
     RDKit          2D

 26 29  0  0  1  0  0  0  0  0999 V2000
   -5.3020   -1.9240    0.0000 C   0  0  0  0  0  0  0  0  0  0  0  0
    5.4576    1.0963    0.0000 C   0  0  0  0  0  0  0  0  0  0  0  0
    4.1586    3.3463    0.0000 C   0  0  0  0  0  0  0  0  0  0  0  0
   -3.3420   -2.3091    0.0000 C   0  0  0  0  0  0  0  0  0  0  0  0
   -1.5803   -1.5248    0.0000 C   0  0  0  0  0  0  0  0  0  0  0  0
   -4.4203   -0.7104    0.0000 C   0  0  0  0  0  0  0  0  0  0  0  0
   -6.0715    0.8098    0.0000 C   0  0  0  0  0  0  0  0  0  0  0  0
   -6.0715    2.3098    0.0000 C   0  0  0  0  0  0  0  0  0  0  0  0
   -4.7724    0.0598    0.0000 C   0  0  0  0  0  0  0  0  0  0  0  0
   -4.7724    3.0598    0.0000 C   0  0  0  0  0  0  0  0  0  0  0  0
   -1.1651   -0.8672    0.0000 C   0  0  0  0  0  0  0  0  0  0  0  0
    4.1586    1.8463    0.0000 C   0  0  0  0  0  0  0  0  0  0  0  0
   -3.4734    0.8098    0.0000 C   0  0  0  0  0  0  0  0  0  0  0  0
   -3.4734    2.3098    0.0000 C   0  0  0  0  0  0  0  0  0  0  0  0
    0.2614   -0.4037    0.0000 C   0  0  0  0  0  0  0  0  0  0  0  0
    2.8595    1.0963    0.0000 C   0  0  0  0  0  0  0  0  0  0  0  0
    1.5605   -1.1537    0.0000 C   0  0  0  0  0  0  0  0  0  0  0  0
    1.5605    1.8463    0.0000 C   0  0  0  0  0  0  0  0  0  0  0  0
   -1.1651    1.5598    0.0000 C   0  0  0  0  0  0  0  0  0  0  0  0
   -2.9285   -0.8672    0.0000 C   0  0  0  0  0  0  0  0  0  0  0  0
   -2.0468    0.3463    0.0000 C   0  0  0  0  0  0  0  0  0  0  0  0
   -2.0468    2.7733    0.0000 N   0  0  0  0  0  0  0  0  0  0  0  0
    2.8595   -0.4037    0.0000 N   0  0  0  0  0  0  0  0  0  0  0  0
    0.2614    1.0963    0.0000 N   0  0  0  0  0  0  0  0  0  0  0  0
    1.5605   -2.6537    0.0000 O   0  0  0  0  0  0  0  0  0  0  0  0
    1.5605    3.3463    0.0000 O   0  0  0  0  0  0  0  0  0  0  0  0
  6  1  2  0
  8  7  2  0
  9  7  1  0
 10  8  1  0
 12  2  1  0
 12  3  1  0
 13  9  2  0
 14 10  2  0
 14 13  1  0
 15 11  1  6
 16 12  1  1
 17 15  1  0
 18 16  1  0
 20  4  1  0
 20  5  1  0
 20  6  1  0
 21 11  1  0
 21 13  1  0
 21 19  1  0
 21 20  1  6
 22 14  1  0
 19 22  1  1
 23 16  1  0
 23 17  2  0
 15 24  1  0
 24 18  1  0
 24 19  1  0
 25 17  1  0
 26 18  2  0
M  END
>  <NAME>  (1) 
Brevicompanine C

>  <SYNONYMS>  (1) 


>  <SPECTRUM TYPE>  (1) 
MS1

>  <INSTRUMENT TYPE>  (1) 
EI-B

>  <INSTRUMENT>  (1) 
Hitachi M80 mass spectrometers

>  <ION MODE>  (1) 
P

>  <INCHIKEY>  (1) 
GFKUCJKLCHSSJN-JRYVEOFUSA-N

>  <FORMULA>  (1) 
C21H27N3O2

>  <EXACT MASS>  (1) 
353.210327104

>  <MW>  (1) 
353

>  <ID>  (1) 
TT000166

>  <CONTRIBUTOR>  (1) 
Yasuo Kimura, {Faculty of Agriculture, Tottori University

>  <COMMENT>  (1) 
compound class=Natural Product; Diketopiperazine
SMILES=CC(C)[C@@H]1C(=O)N2[C@@H](C[C@@]3([C@H]2NC4=CC=CC=C43)C(C)(C)C=C)C(=O)N1
pubchem cid=5325980
InChI=InChI=1S/C21H27N3O2/c1-6-20(4,5)21-11-15-17(25)23-16(12(2)3)18(26)24(15)19(21)22-14-10-8-7-9-13(14)21/h6-10,12,15-16,19,22H,1,11H2,2-5H3,(H,23,25)/t15-,16+,19-,21+/m0/s1
computed SMILES=O=C1N2C(C(O)=NC1C(C)C)CC3(C=4C=CC=CC4NC23)C(C=C)(C)C
accession=TT000166
date=2016.01.19 (Created 2008.10.21, modified 2011.05.06)
author=Kimura Y, Sawada A, Faculty of Agriculture, Tottori University
license=CC BY-SA
publication=Kimura, Y., Sawada, A., Kuramata, M., Kusano, M., Fujioka, S., Kawano, T., and Shimada, A. 2005. Brevicompanine C, Cyclo-(D-Ile-L-Trp), and Cyclo-(D-Leu-L-Trp), Plant Growth Regulators from Penicillium brevi-compactum. J. Nat. Prod., 68 (2):237 -239. doi:10.1021/np040178p
comment=[Analytical] Sample was directly injected
exact mass=353.21033
ionization potential=70 eV
computed spectral entropy=2.634548956636915
computed normalized entropy=0.6358830042033121
SPLASH=splash10-001i-1592000000-ae7e57ca2b2b3901637b
submitter=submitter = Yasuo Kimura (Faculty of Agriculture, Tottori University)
MoNA Rating=3.75

>  <NUM PEAKS>  (1) 
63

>  <MASS SPECTRAL PEAKS>  (1) 
27.0 0.300300
28.0 5.205205
32.0 1.401401
39.0 0.400400
41.0 3.703704
43.0 1.101101
44.0 0.900901
50.0 0.200200
55.0 1.201201
57.0 0.200200
60.0 0.400400
69.0 2.602603
70.0 0.300300
72.0 3.703704
77.0 0.900901
85.0 0.800801
102.0 0.300300
103.0 1.401401
115.0 0.800801
116.0 0.400400
117.0 0.400400
128.0 0.800801
129.0 1.401401
130.0 20.920921
131.0 2.302302
132.0 1.201201
140.0 0.200200
142.0 0.300300
143.0 0.900901
149.0 0.300300
154.0 0.500501
155.0 1.201201
156.0 2.202202
157.0 25.725726
158.0 5.005005
159.0 0.900901
167.0 1.201201
168.0 0.600601
169.0 0.600601
170.0 0.900901
171.0 0.200200
182.0 0.200200
184.0 1.301301
185.0 5.105105
186.0 0.600601
196.0 0.200200
198.0 1.801802
199.0 0.300300
224.0 0.300300
241.0 0.900901
256.0 12.112112
257.0 2.102102
268.0 0.300300
283.0 2.602603
284.0 100.000000
285.0 19.719720
286.0 2.302302
352.0 0.700701
353.0 25.125125
354.0 6.206206
355.0 1.001001
392.0 0.300300
410.0 0.300300

>  <PREDICTED SPECTRUM>  (1) 
27 167
28 52
29 135
30 96
36 20
38 24
39 241
40 138
41 539
42 224
43 301
44 231
45 13
49 5
50 103
51 211
52 128
53 203
54 125
55 295
56 84
57 395
58 162
59 35
62 22
63 161
64 108
65 173
66 85
67 211
68 115
69 456
70 239
71 190
72 123
73 11
74 43
75 53
76 128
77 527
78 234
79 220
80 148
81 190
82 154
83 189
84 108
85 94
86 85
87 121
88 178
89 160
90 226
91 286
92 191
93 245
94 105
95 132
96 116
97 148
98 145
99 43
100 44
101 143
102 306
103 355
104 278
105 246
106 148
107 142
108 92
109 103
110 80
111 82
112 10
113 47
114 88
115 325
116 238
117 312
118 167
119 260
120 130
121 201
122 64
123 86
124 30
125 30
126 110
127 108
128 293
129 168
130 805
131 636
132 999
133 306
134 155
135 118
137 71
138 155
139 232
140 212
141 156
142 160
143 215
144 446
145 275
146 158
147 44
148 4
149 36
150 107
151 165
152 168
153 200
154 280
155 294
156 319
157 379
158 893
159 978
160 133
161 88
163 71
164 60
165 93
166 127
167 241
168 174
169 179
170 202
171 276
172 289
173 84
174 117
175 147
176 84
177 96
178 145
179 225
180 276
181 302
182 445
183 405
184 294
185 299
186 232
187 296
188 87
189 60
190 14
191 76
192 6
193 264
194 239
195 296
196 187
197 132
198 259
199 254
200 254
201 126
202 93
206 125
207 135
208 308
209 249
210 239
211 300
212 280
213 148
222 31
223 110
224 138
225 207
226 309
227 180
228 130
236 90
237 57
238 99
239 112
240 325
241 182
242 109
243 74
250 24
251 57
252 305
253 134
254 267
255 110
256 85
264 111
265 76
266 247
267 329
268 222
269 145
271 24
277 37
278 27
280 22
281 93
282 414
283 305
284 285
285 30
292 1
296 320
297 144
298 36
310 273
311 102
312 4
325 18
334 14
336 49
338 290
339 122
352 28
353 716
354 303
355 51

$$$$

     RDKit          2D

 21 22  0  0  1  0  0  0  0  0999 V2000
   -6.1802    4.5780    0.0000 C   0  0  0  0  0  0  0  0  0  0  0  0
   -7.6800    6.0800    0.0000 C   0  0  0  0  0  0  0  0  0  0  0  0
   -3.5900    6.0800    0.0000 C   0  0  0  0  0  0  0  0  0  0  0  0
   -7.6800    4.5800    0.0000 C   0  0  0  0  0  0  0  0  0  0  0  0
   -3.5900    4.5800    0.0000 C   0  0  0  0  0  0  0  0  0  0  0  0
   -6.3800    3.8300    0.0000 C   0  0  0  0  0  0  0  0  0  0  0  0
   -8.9790   -0.6700    0.0000 C   0  0  0  0  0  0  0  0  0  0  0  0
   -3.5900    0.0800    0.0000 C   0  0  0  0  0  0  0  0  0  0  0  0
  -10.2781    1.5800    0.0000 C   0  0  0  0  0  0  0  0  0  0  0  0
   -4.8800    3.8300    0.0000 C   0  0  0  0  0  0  0  0  0  0  0  0
   -7.6800    0.0800    0.0000 C   0  0  0  0  0  0  0  0  0  0  0  0
  -10.2781    0.0800    0.0000 C   0  0  0  0  0  0  0  0  0  0  0  0
   -6.3800    2.3300    0.0000 C   0  0  0  0  0  0  0  0  0  0  0  0
   -8.9790    2.3300    0.0000 C   0  0  0  0  0  0  0  0  0  0  0  0
   -3.5900    1.5800    0.0000 C   0  0  0  0  0  0  0  0  0  0  0  0
   -7.6800    1.5800    0.0000 C   0  0  0  0  0  0  0  0  0  0  0  0
  -11.5771   -0.6700    0.0000 O   0  0  0  0  0  0  0  0  0  0  0  0
   -5.0811    1.5798    0.0000 O   0  0  0  0  0  0  0  0  0  0  0  0
   -8.9790    3.8300    0.0000 O   0  0  0  0  0  0  0  0  0  0  0  0
   -2.2898    2.3280    0.0000 O   0  0  0  0  0  0  0  0  0  0  0  0
   -4.8800    2.3300    0.0000 O   0  0  0  0  0  0  0  0  0  0  0  0
  3  2  1  0
  4  2  1  0
  5  3  1  0
  4  6  2  0
 10  1  1  1
 10  5  1  0
 11  7  1  0
 11  8  1  0
 12  7  2  0
 12  9  1  0
 13  6  1  0
 14  9  2  0
 15  8  1  0
 16 11  2  0
 16 13  1  0
 16 14  1  0
 17 12  1  0
 18 13  2  0
 19 14  1  0
 20 15  2  0
 21 10  1  0
 21 15  1  0
M  END
>  <NAME>  (2) 
alpha,beta-Dehydrocurvularin

>  <SYNONYMS>  (2) 
(4S,8E)-4beta-Methyl-11,13-dihydroxy-1,4,5,6,7,10-hexahydro-2H-3-benzoxacyclododecin-2,10-dione

>  <SPECTRUM TYPE>  (2) 
MS1

>  <INSTRUMENT TYPE>  (2) 
EI-B

>  <INSTRUMENT>  (2) 
Unknown

>  <ION MODE>  (2) 
P

>  <INCHIKEY>  (2) 
AVIRMQMUBGNCKS-RWCYGVJQSA-N

>  <FORMULA>  (2) 
C16H18O5

>  <EXACT MASS>  (2) 
290.115423676

>  <MW>  (2) 
290

>  <ID>  (2) 
TT000153

>  <CONTRIBUTOR>  (2) 
Yasuo Kimura, {Faculty of Agriculture, Tottori University

>  <COMMENT>  (2) 
compound class=Natural Product; Curvularin
SMILES=C[C@H]1CCC/C=C/C(=O)C2=C(C=C(C=C2CC(=O)O1)O)O
chemspider=4942635
pubchem cid=6438143
InChI=InChI=1S/C16H18O5/c1-10-5-3-2-4-6-13(18)16-11(8-15(20)21-10)7-12(17)9-14(16)19/h4,6-7,9-10,17,19H,2-3,5,8H2,1H3/b6-4+/t10-/m0/s1
computed SMILES=O=C1C=CCCCC(OC(=O)CC=2C=C(O)C=C(O)C12)C
accession=TT000153
date=2016.01.19 (Created 2008.10.21, modified 2011.05.06)
author=Kimura Y, Kusano M, Faculty of Agriculture, Tottori University
license=CC BY-SA
publication=Kusano, M., Nakagami, K., Fujioka, S., Kawano, T., Shimada, A., and Kimura, Y. 2003. beta,gamma-Dehydrocurvularin and Related Compounds as Nematicides of Pratylenchus penetrans from the Fungus Aspergillus sp. Biosci. Biotechnol. Biochem., 67 (6):1413 -1416.
comment=[Analytical] Sample was directly injected
exact mass=290.11542
ionization potential=70 eV
computed spectral entropy=3.807915063562138
computed normalized entropy=0.6947940042800964
SPLASH=splash10-014m-3910000000-beee4ad69248060c4eaa
submitter=submitter = Yasuo Kimura (Faculty of Agriculture, Tottori University)
MoNA Rating=3.75

>  <NUM PEAKS>  (2) 
240

>  <MASS SPECTRAL PEAKS>  (2) 
41.08 5.405405
42.11 1.001001
43.09 2.302302
44.08 0.800801
45.07 0.600601
46.05 0.100100
47.04 0.100100
50.04 0.400400
51.03 1.401401
52.06 0.800801
53.09 3.803804
54.05 28.128128
54.98 6.006006
56.05 0.700701
57.04 1.101101
58.03 0.200200
59.01 0.200200
59.96 0.500501
60.50 0.100100
60.95 0.200200
61.91 0.200200
62.95 0.900901
63.95 0.600601
64.95 4.904905
65.95 3.803804
67.05 10.710711
68.00 2.402402
69.00 10.310310
70.00 0.600601
71.09 0.700701
71.99 0.100100
72.94 0.700701
73.53 0.100100
73.98 0.300300
74.98 0.800801
75.97 0.500501
77.06 3.003003
78.05 0.700701
79.10 2.302302
80.00 0.800801
81.13 19.719720
82.07 1.601602
83.06 0.700701
84.05 0.200200
84.95 0.700701
86.08 0.100100
86.94 0.300300
87.93 0.200200
88.96 0.700701
89.91 0.200200
90.96 2.502503
91.97 1.201201
92.98 2.202202
93.99 2.502503
95.00 2.402402
96.08 27.127127
97.02 3.103103
98.03 0.300300
99.04 0.600601
100.05 0.100100
101.05 0.300300
101.96 0.900901
102.97 1.101101
104.06 0.200200
105.07 0.900901
105.94 0.400400
106.99 1.301301
107.99 0.800801
108.45 0.100100
108.95 0.600601
109.95 0.400400
111.01 2.102102
112.07 0.200200
113.09 0.300300
114.01 0.300300
115.02 2.302302
116.08 0.500501
117.05 0.400400
118.11 0.700701
119.08 0.800801
120.05 2.402402
121.01 14.314314
121.99 6.406406
122.99 2.702703
123.94 0.400400
125.07 0.200200
126.06 0.100100
126.97 0.600601
127.92 0.900901
128.91 0.900901
129.91 0.500501
130.93 1.901902
131.94 0.600601
133.01 0.600601
133.98 0.800801
135.00 1.001001
136.02 0.500501
136.94 4.604605
138.01 1.201201
139.03 0.400400
140.14 0.200200
141.05 0.400400
142.15 0.100100
143.06 0.400400
144.06 0.500501
145.07 0.600601
145.98 0.800801
146.94 3.703704
147.99 4.204204
148.95 3.703704
150.01 24.224224
150.93 4.704705
151.94 0.500501
152.96 0.300300
154.07 0.100100
155.09 0.200200
156.02 0.100100
156.99 0.700701
158.06 0.200200
159.07 0.400400
160.05 2.002002
161.05 3.203203
161.96 1.001001
162.97 4.804805
163.97 4.104104
164.98 1.301301
166.00 100.000000
167.03 55.655656
167.99 5.705706
169.00 0.700701
170.00 0.100100
171.01 0.200200
171.94 0.400400
172.95 1.601602
173.96 1.701702
175.02 5.505506
175.94 16.616617
177.05 7.207207
178.06 1.301301
179.03 0.900901
180.05 0.200200
181.00 0.400400
182.05 0.100100
183.15 0.100100
184.06 0.100100
185.02 0.800801
185.98 0.300300
186.99 0.600601
187.99 0.500501
189.00 2.602603
190.00 2.802803
191.00 0.700701
191.99 3.603604
192.99 1.101101
193.99 85.285285
195.07 65.765766
195.97 7.007007
196.88 1.001001
197.92 0.200200
198.91 0.400400
199.91 0.200200
200.92 1.601602
201.94 1.301301
202.86 7.107107
203.87 2.102102
204.84 4.204204
205.99 1.101101
207.00 0.200200
207.93 0.300300
209.03 0.100100
210.05 0.100100
211.05 0.300300
212.95 0.400400
213.95 0.300300
214.95 0.800801
215.95 0.600601
216.95 1.001001
217.95 2.002002
218.95 0.700701
220.00 0.600601
220.96 1.701702
221.97 0.200200
222.98 0.200200
224.08 0.100100
225.05 0.100100
226.01 0.100100
227.06 0.400400
228.07 0.300300
229.08 1.701702
230.05 0.700701
230.99 1.001001
232.03 0.600601
233.11 0.600601
233.96 0.600601
235.00 0.300300
236.08 0.100100
241.05 0.200200
242.00 0.100100
242.95 0.600601
243.91 0.600601
245.00 0.400400
245.91 0.600601
247.09 1.601602
248.05 1.601602
249.09 0.300300
250.09 0.100100
253.92 0.100100
254.95 0.100100
255.90 0.200200
256.17 0.400400
256.98 0.700701
258.02 0.300300
259.10 0.100100
260.05 0.200200
261.00 0.200200
262.09 0.300300
263.05 0.100100
268.14 0.100100
269.00 0.100100
270.05 0.100100
271.13 0.200200
272.08 1.601602
273.03 0.300300
273.98 0.700701
275.16 0.800801
276.06 0.200200
277.06 0.100100
278.05 0.100100
279.19 0.100100
281.00 0.100100
282.90 0.100100
284.16 0.100100
286.06 0.100100
287.06 0.100100
288.10 3.603604
289.05 1.001001
290.07 26.326326
290.97 4.804805
292.05 1.101101
293.09 0.200200

>  <PREDICTED SPECTRUM>  (2) 
17 5
18 22
26 76
27 182
28 33
29 90
31 2
33 25
38 120
39 534
40 279
41 702
42 350
43 478
44 198
45 196
46 60
47 15
50 213
51 426
52 312
53 632
54 328
55 683
56 279
57 284
58 194
59 112
60 95
61 9
62 110
63 278
64 191
65 431
66 245
67 461
68 246
69 609
70 177
71 185
73 68
74 94
75 146
76 125
77 547
78 312
79 405
80 212
81 407
82 231
83 234
84 112
85 84
86 81
87 82
88 70
89 202
90 132
91 537
92 291
93 403
94 242
95 247
96 117
97 99
98 330
99 244
100 35
101 123
102 91
103 192
104 110
105 398
106 249
107 453
108 327
109 355
110 222
111 258
112 146
113 148
114 50
115 494
116 226
117 161
118 248
119 362
120 439
121 639
122 431
123 241
124 135
125 63
126 192
127 62
128 180
129 189
130 68
131 241
132 236
133 490
134 504
135 546
136 495
137 392
138 265
139 42
141 16
142 13
143 52
144 110
145 146
146 150
147 572
148 685
149 769
150 505
151 308
152 171
157 191
158 242
159 356
160 230
161 516
162 448
163 353
164 799
165 859
166 698
167 343
168 102
171 151
172 103
173 236
174 277
175 631
176 556
177 413
178 157
179 135
180 148
185 68
186 130
187 207
188 155
189 346
190 373
191 278
192 999
193 835
194 457
198 31
199 133
200 71
201 361
202 294
203 465
204 275
205 218
207 57
208 177
209 262
211 131
213 95
214 9
215 206
216 212
217 239
218 173
219 227
221 223
222 51
223 43
224 3
226 78
227 130
228 104
229 366
230 243
231 288
232 198
233 148
234 85
235 156
236 125
243 231
244 374
245 342
246 185
247 281
248 140
257 99
261 9
262 197
263 6
272 298
273 141
274 13
275 310
276 70
289 54
290 998
291 451
292 142
293 4

$$$$

     RDKit          2D

 22 23  0  0  1  0  0  0  0  0999 V2000
   -6.1802    4.5780    0.0000 C   0  0  0  0  0  0  0  0  0  0  0  0
   -3.5900    4.5800    0.0000 C   0  0  0  0  0  0  0  0  0  0  0  0
   -3.5900    6.0800    0.0000 C   0  0  0  0  0  0  0  0  0  0  0  0
   -7.6800    4.5800    0.0000 C   0  0  0  0  0  0  0  0  0  0  0  0
   -6.3800    3.8300    0.0000 C   0  0  0  0  0  0  0  0  0  0  0  0
   -8.9790   -0.6700    0.0000 C   0  0  0  0  0  0  0  0  0  0  0  0
   -3.5900    0.0800    0.0000 C   0  0  0  0  0  0  0  0  0  0  0  0
  -10.2781    1.5800    0.0000 C   0  0  0  0  0  0  0  0  0  0  0  0
   -4.8800    3.8300    0.0000 C   0  0  0  0  0  0  0  0  0  0  0  0
   -7.6800    0.0800    0.0000 C   0  0  0  0  0  0  0  0  0  0  0  0
   -7.6800    6.0800    0.0000 C   0  0  0  0  0  0  0  0  0  0  0  0
  -10.2781    0.0800    0.0000 C   0  0  0  0  0  0  0  0  0  0  0  0
   -6.3800    2.3300    0.0000 C   0  0  0  0  0  0  0  0  0  0  0  0
   -8.9790    2.3300    0.0000 C   0  0  0  0  0  0  0  0  0  0  0  0
   -3.5900    1.5800    0.0000 C   0  0  0  0  0  0  0  0  0  0  0  0
   -7.6800    1.5800    0.0000 C   0  0  0  0  0  0  0  0  0  0  0  0
   -8.7407    7.1407    0.0000 O   0  0  0  0  0  0  0  0  0  0  0  0
  -11.5771   -0.6700    0.0000 O   0  0  0  0  0  0  0  0  0  0  0  0
   -5.0811    1.5798    0.0000 O   0  0  0  0  0  0  0  0  0  0  0  0
   -8.9790    3.8300    0.0000 O   0  0  0  0  0  0  0  0  0  0  0  0
   -2.2898    2.3280    0.0000 O   0  0  0  0  0  0  0  0  0  0  0  0
   -4.8800    2.3300    0.0000 O   0  0  0  0  0  0  0  0  0  0  0  0
  3  2  1  0
  5  4  1  0
  9  1  1  1
  9  2  1  0
 10  6  2  0
 10  7  1  0
 11  3  1  0
 11  4  1  0
 12  6  1  0
 12  8  2  0
 13  5  1  0
 14  8  1  0
 15  7  1  0
 16 10  1  0
 16 13  1  0
 16 14  2  0
 17 11  2  0
 18 12  1  0
 19 13  2  0
 20 14  1  0
 21 15  2  0
 22  9  1  0
 22 15  1  0
M  END
>  <NAME>  (3) 
7-Oxocurvularin

>  <SYNONYMS>  (3) 


>  <SPECTRUM TYPE>  (3) 
MS1

>  <INSTRUMENT TYPE>  (3) 
EI-B

>  <INSTRUMENT>  (3) 
Unknown

>  <ION MODE>  (3) 
P

>  <INCHIKEY>  (3) 
MFGVWPFVDDUSLL-VIFPVBQESA-N

>  <FORMULA>  (3) 
C16H18O6

>  <EXACT MASS>  (3) 
306.110338296

>  <MW>  (3) 
306

>  <ID>  (3) 
TT000151

>  <CONTRIBUTOR>  (3) 
Yasuo Kimura, {Faculty of Agriculture, Tottori University

>  <COMMENT>  (3) 
compound class=Natural Product; Curvularin
SMILES=C[C@H]1CCC(=O)CCC(=O)C2=C(C=C(C=C2CC(=O)O1)O)O
pubchem cid=14314901
InChI=InChI=1S/C16H18O6/c1-9-2-3-11(17)4-5-13(19)16-10(7-15(21)22-9)6-12(18)8-14(16)20/h6,8-9,18,20H,2-5,7H2,1H3/t9-/m0/s1
computed SMILES=O=C1OC(C)CCC(=O)CCC(=O)C=2C(O)=CC(O)=CC2C1
accession=TT000151
date=2016.01.19 (Created 2008.10.21, modified 2011.05.06)
author=Kimura Y, Kusano M, Faculty of Agriculture, Tottori University
license=CC BY-SA
publication=Kusano, M., Nakagami, K., Fujioka, S., Kawano, T., Shimada, A., and Kimura, Y. 2003. beta,gamma-Dehydrocurvularin and Related Compounds as Nematicides of Pratylenchus penetrans from the Fungus Aspergillus sp. Biosci. Biotechnol. Biochem., 67 (6):1413 -1416.
comment=[Analytical] Sample was directly injected
exact mass=306.11034
ionization potential=70 eV
computed spectral entropy=4.392651177644291
computed normalized entropy=0.869856718951636
SPLASH=splash10-000i-2690000000-3a0c6bdcead3484c2bef
submitter=submitter = Yasuo Kimura (Faculty of Agriculture, Tottori University)
MoNA Rating=3.75

>  <NUM PEAKS>  (3) 
156

>  <MASS SPECTRAL PEAKS>  (3) 
40.8 7.807808
41.9 2.502503
42.9 7.407407
43.6 3.703704
45.0 1.201201
49.9 2.502503
50.9 3.703704
51.9 2.002002
52.8 3.703704
54.9 10.210210
55.9 3.703704
57.0 2.902903
60.1 1.201201
63.0 2.502503
64.0 1.201201
65.0 5.305305
65.9 2.902903
66.8 2.502503
68.9 8.208208
70.0 0.800801
73.1 0.800801
75.0 1.601602
75.9 2.002002
77.0 10.210210
78.0 4.504505
78.9 2.902903
81.1 1.201201
83.1 9.809810
84.0 0.800801
85.0 1.601602
88.9 2.502503
89.9 2.002002
90.9 8.608609
91.9 2.002002
93.0 1.601602
94.0 1.201201
95.1 1.201201
97.1 1.201201
102.0 2.002002
103.1 3.303303
105.0 3.303303
105.9 2.902903
106.9 3.703704
109.2 2.002002
111.1 1.201201
112.0 2.902903
115.0 4.504505
116.0 1.601602
118.0 1.601602
118.9 2.902903
120.0 1.601602
120.9 5.305305
121.9 3.303303
123.1 2.002002
128.0 1.201201
128.9 1.201201
129.8 0.800801
130.8 3.703704
131.9 1.201201
132.8 4.104104
133.8 7.007007
135.1 6.106106
136.0 4.904905
137.0 0.800801
138.1 1.201201
145.1 1.201201
146.0 2.902903
146.9 6.606607
148.2 3.703704
149.2 10.610611
150.0 11.511512
151.1 8.208208
157.0 0.800801
159.0 2.902903
159.9 3.703704
161.1 5.305305
162.0 16.416416
163.0 15.615616
164.1 6.606607
165.1 1.201201
166.1 1.201201
167.0 7.407407
171.1 0.800801
171.9 0.800801
173.0 2.502503
173.9 3.703704
175.1 4.904905
176.1 9.409409
177.0 18.818819
178.0 18.018018
178.9 6.106106
185.1 0.800801
186.0 0.800801
186.9 5.305305
188.1 2.502503
189.1 4.104104
190.1 3.303303
191.1 1.201201
192.1 2.502503
193.1 22.922923
194.0 2.902903
195.0 3.703704
199.2 0.800801
200.2 4.104104
201.1 2.902903
202.1 1.601602
203.1 2.502503
204.1 20.520521
205.0 44.244244
206.1 13.513514
207.0 7.007007
208.0 2.902903
213.9 0.800801
215.0 3.303303
216.0 7.407407
217.0 6.606607
218.0 6.106106
218.9 3.703704
220.9 1.601602
222.1 36.436436
223.0 4.904905
227.1 2.002002
228.2 7.807808
229.1 13.113113
230.2 2.002002
231.0 3.703704
232.1 10.610611
233.1 2.002002
234.9 0.800801
236.1 2.502503
241.1 2.002002
242.0 3.303303
243.1 7.007007
244.1 5.305305
245.0 3.703704
246.1 1.601602
247.1 2.502503
250.1 0.800801
252.0 2.502503
255.0 4.504505
256.1 0.800801
258.0 0.800801
259.0 1.601602
260.0 0.800801
261.0 0.800801
268.9 2.902903
269.8 14.314314
270.9 1.601602
272.9 7.407407
273.9 2.502503
286.0 2.902903
288.1 100.000000
289.1 18.418418
290.2 2.002002
305.9 4.904905
344.0 2.002002

>  <PREDICTED SPECTRUM>  (3) 
26 55
27 129
28 17
38 14
39 312
40 161
41 367
42 298
43 353
44 77
45 11
46 23
50 77
51 238
52 152
53 424
54 248
55 655
56 259
57 169
58 2
59 42
60 55
62 47
63 124
64 54
65 191
66 146
67 253
68 207
69 434
70 167
71 167
72 57
73 82
74 112
75 34
76 64
77 332
78 161
79 213
80 166
81 347
82 228
83 384
84 247
85 155
86 80
87 37
89 46
90 23
91 195
92 112
93 179
94 166
95 263
96 188
97 323
98 328
99 378
100 1
103 21
104 63
105 121
106 74
107 216
108 267
109 454
110 367
111 284
112 222
113 162
115 255
116 77
117 145
118 68
119 173
120 107
121 317
122 345
123 298
124 251
125 314
126 97
127 118
128 127
129 106
130 98
131 97
132 128
133 153
134 244
135 388
136 393
137 461
138 416
139 112
140 44
145 79
146 66
147 177
148 198
149 396
150 324
151 627
152 488
153 391
154 279
155 439
157 11
159 16
160 105
161 204
162 172
163 391
164 547
165 562
166 328
167 218
173 126
174 173
175 245
176 222
177 354
178 293
179 351
180 628
181 466
182 402
183 129
187 64
188 133
189 240
190 269
191 563
192 335
193 486
194 266
195 431
196 241
201 40
202 69
203 201
204 98
205 318
206 254
207 309
208 681
209 460
210 141
215 15
216 39
217 216
218 309
219 433
220 268
221 157
223 91
225 43
229 31
231 190
232 230
233 244
234 161
235 258
236 91
237 100
243 21
245 242
246 214
247 358
248 132
249 223
250 114
251 142
259 121
260 305
261 174
262 190
263 173
264 443
265 88
273 42
277 98
278 238
279 14
288 438
289 233
291 172
304 11
305 21
306 999
307 431
308 137

$$$$

     RDKit          2D

 23 24  0  0  1  0  0  0  0  0999 V2000
   -6.1802    4.5780    0.0000 C   0  0  0  0  0  0  0  0  0  0  0  0
   -3.5900    4.5800    0.0000 C   0  0  0  0  0  0  0  0  0  0  0  0
   -3.5900    6.0800    0.0000 C   0  0  0  0  0  0  0  0  0  0  0  0
   -8.9790   -0.6700    0.0000 C   0  0  0  0  0  0  0  0  0  0  0  0
   -3.5900    0.0800    0.0000 C   0  0  0  0  0  0  0  0  0  0  0  0
  -10.2781    1.5800    0.0000 C   0  0  0  0  0  0  0  0  0  0  0  0
   -6.3800    3.8300    0.0000 C   0  0  0  0  0  0  0  0  0  0  0  0
   -4.8800    3.8300    0.0000 C   0  0  0  0  0  0  0  0  0  0  0  0
   -7.6800    0.0800    0.0000 C   0  0  0  0  0  0  0  0  0  0  0  0
  -10.2781    0.0800    0.0000 C   0  0  0  0  0  0  0  0  0  0  0  0
   -7.6800    6.0800    0.0000 C   0  0  0  0  0  0  0  0  0  0  0  0
   -7.6800    4.5800    0.0000 C   0  0  0  0  0  0  0  0  0  0  0  0
   -8.9790    2.3300    0.0000 C   0  0  0  0  0  0  0  0  0  0  0  0
   -6.3800    2.3300    0.0000 C   0  0  0  0  0  0  0  0  0  0  0  0
   -3.5900    1.5800    0.0000 C   0  0  0  0  0  0  0  0  0  0  0  0
   -7.6800    1.5800    0.0000 C   0  0  0  0  0  0  0  0  0  0  0  0
  -11.5771   -0.6700    0.0000 O   0  0  0  0  0  0  0  0  0  0  0  0
   -8.7407    7.1407    0.0000 O   0  0  0  0  0  0  0  0  0  0  0  0
   -6.3811    5.3302    0.0000 O   0  0  0  0  0  0  0  0  0  0  0  0
   -8.9790    3.8300    0.0000 O   0  0  0  0  0  0  0  0  0  0  0  0
   -5.0811    1.5798    0.0000 O   0  0  0  0  0  0  0  0  0  0  0  0
   -2.2898    2.3280    0.0000 O   0  0  0  0  0  0  0  0  0  0  0  0
   -4.8800    2.3300    0.0000 O   0  0  0  0  0  0  0  0  0  0  0  0
  3  2  1  0
  8  1  1  1
  8  2  1  0
  9  4  2  0
  9  5  1  0
 10  4  1  0
 10  6  2  0
 11  3  1  0
 12  7  1  0
 12 11  1  0
 13  6  1  0
 14  7  1  0
 15  5  1  0
 16  9  1  0
 16 13  2  0
 16 14  1  0
 17 10  1  0
 18 11  2  0
 12 19  1  6
 20 13  1  0
 21 14  2  0
 22 15  2  0
 23  8  1  0
 23 15  1  0
M  END
>  <NAME>  (4) 
8-beta-Hydroxy-oxocurvularin

>  <SYNONYMS>  (4) 


>  <SPECTRUM TYPE>  (4) 
MS1

>  <INSTRUMENT TYPE>  (4) 
EI-B

>  <INSTRUMENT>  (4) 
Unknown

>  <ION MODE>  (4) 
P

>  <INCHIKEY>  (4) 
PCSBVPMYIHSHPB-UFBFGSQYSA-N

>  <FORMULA>  (4) 
C16H18O7

>  <EXACT MASS>  (4) 
322.105252916

>  <MW>  (4) 
322

>  <ID>  (4) 
TT000148

>  <CONTRIBUTOR>  (4) 
Yasuo Kimura, {Faculty of Agriculture, Tottori University

>  <COMMENT>  (4) 
compound class=Natural Product; Curvularin
SMILES=C[C@H]1CCC(=O)[C@H](CC(=O)C2=C(C=C(C=C2CC(=O)O1)O)O)O
pubchem cid=14582210
InChI=InChI=1S/C16H18O7/c1-8-2-3-11(18)12(19)7-14(21)16-9(5-15(22)23-8)4-10(17)6-13(16)20/h4,6,8,12,17,19-20H,2-3,5,7H2,1H3/t8-,12-/m0/s1
computed SMILES=O=C1OC(C)CCC(=O)C(O)CC(=O)C=2C(O)=CC(O)=CC2C1
accession=TT000148
date=2016.01.19 (Created 2008.10.21, modified 2011.05.06)
author=Kimura Y, Kusano M, Faculty of Agriculture, Tottori University
license=CC BY-SA
publication=Kusano, M., Nakagami, K., Fujioka, S., Kawano, T., Shimada, A., and Kimura, Y. 2003. beta,gamma-Dehydrocurvularin and Related Compounds as Nematicides of Pratylenchus penetrans from the Fungus Aspergillus sp. Biosci. Biotechnol. Biochem., 67 (6):1413 -1416.
comment=[Analytical] Sample was directly injected
exact mass=322.10525
ionization potential=70 eV
computed spectral entropy=4.45769493597011
computed normalized entropy=0.7613390570091095
SPLASH=splash10-0fi3-4921000000-c70c74e8886b26cf8bee
submitter=submitter = Yasuo Kimura (Faculty of Agriculture, Tottori University)
MoNA Rating=3.75

>  <NUM PEAKS>  (4) 
349

>  <MASS SPECTRAL PEAKS>  (4) 
40.5 1.001001
41.1 19.619620
42.0 5.705706
43.1 16.216216
43.9 83.983984
44.9 4.004004
45.7 0.300300
46.1 0.800801
47.0 0.600601
47.7 0.200200
48.3 0.300300
50.0 3.403403
51.1 7.707708
51.6 0.300300
52.1 2.302302
53.1 5.005005
54.1 2.802803
54.5 0.100100
55.1 21.921922
55.6 0.500501
56.0 5.005005
57.1 6.806807
58.0 0.900901
59.1 3.003003
60.0 3.903904
60.9 1.001001
62.0 2.402402
62.3 0.300300
62.9 6.106106
63.9 2.002002
64.9 9.209209
65.4 0.400400
66.0 2.802803
66.9 2.802803
68.0 1.501502
68.6 0.400400
68.9 11.611612
69.9 1.901902
71.0 2.402402
72.0 2.002002
72.9 4.004004
73.9 1.901902
74.4 0.100100
74.9 2.302302
75.6 0.300300
75.8 4.804805
76.9 14.814815
78.0 4.504505
78.9 3.003003
79.3 0.700701
79.8 0.800801
80.9 3.403403
82.0 2.102102
82.9 7.907908
84.0 1.301301
84.9 2.502503
85.9 1.001001
86.8 1.901902
87.4 0.600601
87.9 2.102102
88.4 0.200200
88.9 2.002002
89.9 1.501502
90.3 0.100100
90.9 11.211211
91.4 0.200200
91.9 2.802803
92.9 2.402402
93.4 0.300300
93.9 3.403403
94.9 5.305305
96.1 1.501502
97.0 4.904905
97.9 2.702703
98.9 1.601602
99.3 0.300300
100.0 0.900901
100.5 0.200200
100.9 2.102102
101.4 0.700701
101.7 0.400400
102.0 4.604605
102.9 1.901902
103.4 0.300300
103.9 2.002002
104.9 12.212212
105.9 12.212212
106.4 0.400400
106.9 5.105105
108.0 1.301301
108.9 2.002002
110.0 0.800801
110.9 2.202202
111.9 0.700701
113.1 0.600601
113.9 0.500501
114.9 2.802803
115.3 0.500501
116.0 1.401401
116.9 1.001001
117.9 3.203203
118.9 6.606607
119.8 8.808809
120.9 24.424424
121.2 0.600601
121.8 5.105105
122.9 1.301301
123.9 0.400400
124.9 0.800801
125.9 0.700701
126.3 0.200200
126.9 1.001001
127.5 0.100100
127.9 1.301301
128.9 1.901902
129.8 1.901902
130.8 3.903904
131.5 0.200200
131.9 1.701702
132.8 1.901902
133.8 6.006006
134.8 9.009009
135.5 0.700701
135.8 0.700701
136.3 0.500501
136.9 1.601602
137.8 2.902903
138.9 1.201201
139.8 0.300300
140.8 1.701702
141.2 0.300300
141.8 0.700701
142.8 0.700701
143.9 0.500501
144.9 1.001001
145.9 3.203203
146.8 21.921922
147.2 0.400400
147.8 11.311311
148.8 6.506507
149.8 6.606607
150.8 3.403403
151.8 0.700701
152.8 0.400400
153.8 0.700701
154.2 0.600601
154.8 1.301301
155.8 0.300300
156.8 1.501502
157.7 0.400400
158.8 1.301301
159.7 12.912913
160.7 3.003003
161.8 17.417417
162.8 31.331331
163.7 12.412412
164.8 3.603604
165.7 0.700701
166.4 0.200200
166.7 1.301301
167.8 0.400400
168.8 0.400400
169.8 0.300300
170.9 1.201201
171.3 0.100100
171.8 0.800801
172.9 1.401401
173.9 3.603604
174.4 0.300300
174.8 100.000000
175.4 0.200200
175.9 65.165165
176.8 87.187187
177.8 12.412412
178.8 1.101101
179.9 0.700701
180.8 0.400400
182.0 0.700701
183.1 0.900901
183.9 0.800801
184.8 6.606607
185.9 1.901902
186.8 3.303303
187.9 2.202202
188.1 0.300300
188.8 2.802803
189.8 14.414414
190.8 4.104104
191.9 1.301301
192.9 4.204204
193.9 0.700701
195.0 0.600601
195.8 0.600601
196.8 2.102102
197.8 0.400400
198.8 1.101101
199.7 1.001001
200.5 0.100100
200.8 0.700701
201.5 1.001001
201.7 2.502503
202.8 65.265265
203.8 19.819820
204.8 8.308308
205.5 0.400400
205.8 0.700701
206.7 2.102102
207.7 4.904905
208.7 1.301301
210.7 0.300300
211.8 0.700701
212.8 1.401401
213.7 1.401401
214.8 2.002002
215.4 0.100100
215.7 0.900901
216.8 2.002002
217.4 0.100100
217.7 4.104104
218.7 3.803804
219.6 0.500501
220.6 3.703704
221.8 1.101101
222.9 0.400400
223.8 0.200200
224.9 0.600601
225.7 0.300300
226.7 0.600601
227.8 0.400400
228.8 1.101101
229.3 0.400400
229.7 0.900901
230.4 0.400400
230.8 2.302302
231.8 2.002002
232.7 2.202202
233.4 0.600601
233.8 1.001001
235.1 0.900901
235.6 0.600601
236.8 0.300300
237.4 0.100100
238.1 0.100100
238.7 0.300300
239.7 0.300300
240.9 0.400400
241.9 0.800801
242.8 1.801802
243.8 0.600601
244.8 0.700701
245.7 0.100100
246.2 0.100100
246.8 0.800801
247.8 0.400400
248.8 1.001001
249.3 0.300300
249.8 0.900901
250.5 0.100100
250.9 0.400400
251.7 0.400400
252.4 0.200200
252.8 0.400400
254.1 0.100100
254.7 0.600601
256.0 1.401401
256.9 0.400400
257.8 4.704705
258.8 1.701702
259.8 6.406406
260.7 4.004004
261.8 1.201201
262.8 0.200200
263.2 0.300300
264.0 1.201201
264.6 0.300300
265.1 0.300300
266.9 0.500501
267.7 0.300300
268.9 0.900901
270.7 0.300300
272.4 0.200200
272.9 0.100100
273.8 0.200200
274.4 0.100100
274.9 0.200200
275.8 4.904905
276.3 0.700701
276.7 0.600601
277.7 0.600601
278.2 0.100100
278.9 0.200200
279.4 0.400400
279.9 0.300300
280.7 1.501502
281.6 0.100100
283.0 0.100100
283.3 0.600601
283.9 0.400400
285.8 4.404404
286.4 0.600601
286.7 0.800801
287.0 0.500501
288.0 0.200200
288.3 0.300300
288.8 1.001001
289.8 0.700701
290.2 0.300300
291.9 0.600601
293.5 0.400400
294.8 0.700701
295.5 0.100100
296.2 0.200200
297.5 0.200200
298.0 0.300300
299.4 0.200200
299.9 0.100100
301.4 0.100100
302.8 0.600601
303.8 55.855856
304.8 11.211211
305.7 2.602603
306.6 0.700701
308.0 0.300300
308.7 0.600601
313.0 0.500501
314.7 0.200200
315.2 0.200200
315.9 0.200200
317.4 0.200200
317.8 0.400400
319.0 0.100100
320.0 0.100100
322.8 0.800801
324.7 0.200200
325.5 0.100100
326.6 0.200200
327.8 0.400400
332.7 0.100100
333.8 0.400400
336.0 0.200200
336.9 0.100100
337.3 0.300300
338.0 0.200200
339.2 0.500501
340.0 0.400400
340.7 0.400400
341.3 0.200200
342.1 0.300300
342.7 0.400400

>  <PREDICTED SPECTRUM>  (4) 
38 1
39 287
40 161
41 480
42 285
43 352
44 125
50 58
51 223
52 65
53 408
54 66
55 392
56 54
57 88
58 79
62 22
63 175
64 38
65 198
66 39
67 181
68 167
69 553
70 213
71 180
77 277
78 94
79 173
81 204
82 240
83 284
84 201
85 172
89 144
90 48
91 151
93 32
95 220
96 295
97 376
98 210
99 304
100 63
101 25
103 4
104 48
105 115
106 30
107 124
108 34
109 163
110 126
111 223
112 99
113 123
115 56
119 63
121 240
122 151
123 338
124 289
125 452
126 371
128 70
135 155
136 28
137 242
138 179
139 254
140 23
147 92
148 132
149 451
150 295
151 546
152 486
153 654
154 55
155 558
163 13
167 307
168 238
169 275
170 256
176 237
177 599
178 316
179 300
180 237
193 58
194 167
195 744
196 629
197 426
198 145
205 18
223 3
224 177
280 23
304 999
305 103
322 536
323 178

$$$$

     RDKit          2D

 21 22  0  0  1  0  0  0  0  0999 V2000
   -8.9789    2.3302    0.0000 C   0  0  0  0  0  0  0  0  0  0  0  0
   -3.5900    1.5800    0.0000 C   0  0  0  0  0  0  0  0  0  0  0  0
   -3.5900    0.0800    0.0000 C   0  0  0  0  0  0  0  0  0  0  0  0
   -4.8800    2.3300    0.0000 C   0  0  0  0  0  0  0  0  0  0  0  0
   -7.6800    0.0800    0.0000 C   0  0  0  0  0  0  0  0  0  0  0  0
   -4.8800    3.8300    0.0000 C   0  0  0  0  0  0  0  0  0  0  0  0
   -7.0729    7.8062    0.0000 C   0  0  0  0  0  0  0  0  0  0  0  0
   -7.6800    4.5800    0.0000 C   0  0  0  0  0  0  0  0  0  0  0  0
   -5.0133    8.7441    0.0000 C   0  0  0  0  0  0  0  0  0  0  0  0
   -7.6800    1.5800    0.0000 C   0  0  0  0  0  0  0  0  0  0  0  0
   -7.6800    6.0800    0.0000 C   0  0  0  0  0  0  0  0  0  0  0  0
   -6.2567    8.7441    0.0000 C   0  0  0  0  0  0  0  0  0  0  0  0
   -3.5900    4.5800    0.0000 C   0  0  0  0  0  0  0  0  0  0  0  0
   -4.1971    7.8062    0.0000 C   0  0  0  0  0  0  0  0  0  0  0  0
   -6.3800    3.8300    0.0000 C   0  0  0  0  0  0  0  0  0  0  0  0
   -3.5900    6.0800    0.0000 C   0  0  0  0  0  0  0  0  0  0  0  0
   -6.8784   10.1092    0.0000 O   0  0  0  0  0  0  0  0  0  0  0  0
   -2.2898    3.8320    0.0000 O   0  0  0  0  0  0  0  0  0  0  0  0
   -2.9007    8.5608    0.0000 O   0  0  0  0  0  0  0  0  0  0  0  0
   -5.0811    4.5802    0.0000 O   0  0  0  0  0  0  0  0  0  0  0  0
   -6.3800    2.3300    0.0000 O   0  0  0  0  0  0  0  0  0  0  0  0
  3  2  1  0
  2  4  2  0
  5  3  1  0
  6  4  1  0
 10  1  1  6
 10  5  1  0
 11  7  1  0
 11  8  1  0
 12  7  2  0
 12  9  1  0
 13  6  1  0
 14  9  2  0
 15  8  1  0
 16 11  2  0
 16 13  1  0
 16 14  1  0
 17 12  1  0
 18 13  2  0
 19 14  1  0
 20 15  2  0
 21 10  1  0
 21 15  1  0
M  END
>  <NAME>  (5) 
beta,gamma-Dehydrocurvularin

>  <SYNONYMS>  (5) 
(4S,7E)-4beta-Methyl-11,13-dihydroxy-1,4,5,6,9,10-hexahydro-2H-3-benzoxacyclododecin-2,10-dione

>  <SPECTRUM TYPE>  (5) 
MS1

>  <INSTRUMENT TYPE>  (5) 
EI-B

>  <INSTRUMENT>  (5) 
Unknown

>  <ION MODE>  (5) 
P

>  <INCHIKEY>  (5) 
ZWRCIODUEDCNMZ-YWNRKNDBSA-N

>  <FORMULA>  (5) 
C16H18O5

>  <EXACT MASS>  (5) 
290.115423676

>  <MW>  (5) 
290

>  <ID>  (5) 
TT000133

>  <CONTRIBUTOR>  (5) 
Yasuo Kimura, {Faculty of Agriculture, Tottori University

>  <COMMENT>  (5) 
compound class=Natural Product; Curvularin
SMILES=C[C@H]1CC/C=C/CC(=O)C2=C(C=C(C=C2CC(=O)O1)O)O
pubchem cid=134785854
InChI=InChI=1S/C16H18O5/c1-10-5-3-2-4-6-13(18)16-11(8-15(20)21-10)7-12(17)9-14(16)19/h2,4,7,9-10,17,19H,3,5-6,8H2,1H3/b4-2+/t10-/m0/s1
computed SMILES=O=C1OC(C)CCC=CCC(=O)C=2C(O)=CC(O)=CC2C1
accession=TT000133
date=2016.01.19 (Created 2008.10.21, modified 2011.05.06)
author=Kimura Y, Kusano M, Faculty of Agriculture, Tottori University
license=CC BY-SA
publication=Kusano, M., Nakagami, K., Fujioka, S., Kawano, T., Shimada, A., and Kimura, Y. 2003. beta,gamma-Dehydrocurvularin and Related Compounds as Nematicides of Pratylenchus penetrans from the Fungus Aspergillus sp. Biosci. Biotechnol. Biochem., 67 (6):1413 -1416.
comment=[Analytical] Sample was directly injected
exact mass=290.11542
ionization potential=70 eV
computed spectral entropy=4.697822201854148
computed normalized entropy=0.8245998091802055
SPLASH=splash10-000i-3690000000-8c99655e0767b6a440c3
submitter=submitter = Yasuo Kimura (Faculty of Agriculture, Tottori University)
MoNA Rating=3.75

>  <NUM PEAKS>  (5) 
298

>  <MASS SPECTRAL PEAKS>  (5) 
40.0 1.201201
41.0 7.807808
42.0 2.302302
43.1 7.707708
43.9 3.803804
45.0 1.601602
46.1 0.200200
47.1 0.200200
48.0 0.100100
49.0 0.100100
50.1 1.501502
51.0 4.704705
52.0 2.202202
52.9 3.203203
54.0 1.001001
55.1 10.010010
56.0 3.603604
57.1 2.402402
57.5 0.100100
58.0 0.600601
59.0 0.600601
59.9 2.002002
61.0 0.400400
62.0 1.001001
63.0 3.103103
64.0 1.601602
65.0 6.006006
65.5 0.100100
65.9 2.902903
67.0 2.402402
67.9 0.600601
69.0 8.708709
70.0 0.900901
71.1 1.401401
72.0 0.200200
72.9 2.002002
73.5 0.100100
74.0 0.900901
75.0 1.901902
76.0 1.801802
77.0 10.110110
78.1 4.704705
79.1 3.503504
79.6 0.100100
80.1 0.900901
80.5 0.100100
81.0 1.901902
82.0 0.800801
83.1 10.110110
84.0 1.201201
85.0 2.002002
86.0 0.400400
87.1 1.001001
88.0 1.201201
88.5 0.100100
89.1 3.003003
90.0 1.601602
91.0 9.409409
92.0 1.401401
93.0 1.801802
93.5 0.500501
94.0 1.801802
95.0 1.501502
95.5 0.100100
96.0 0.700701
97.0 1.901902
98.1 0.900901
99.1 0.500501
99.5 0.100100
100.1 0.400400
100.6 0.100100
101.0 1.101101
102.1 2.402402
102.6 0.100100
103.1 4.104104
103.5 0.100100
104.1 1.401401
105.0 2.702703
106.1 2.902903
107.1 3.503504
108.1 1.001001
109.2 2.202202
109.6 0.300300
110.2 0.400400
111.1 1.801802
112.1 2.902903
113.1 0.600601
114.0 0.400400
115.1 5.205205
115.5 0.200200
116.0 1.501502
117.0 1.101101
117.9 2.002002
119.0 2.402402
120.1 1.901902
120.9 5.305305
122.1 3.403403
123.0 2.902903
124.1 0.700701
125.0 0.200200
126.1 0.200200
127.0 1.201201
128.1 1.601602
129.1 1.601602
130.1 1.001001
131.0 4.504505
132.0 2.102102
133.0 4.004004
134.0 6.606607
135.0 7.207207
135.9 5.405405
137.0 1.301301
137.9 1.801802
139.0 1.201201
140.0 0.200200
140.9 0.800801
141.9 0.400400
143.0 0.500501
144.1 1.001001
145.0 1.501502
146.0 2.302302
147.0 6.406406
148.1 4.304304
149.0 11.211211
150.0 11.611612
151.0 8.108108
152.0 0.900901
153.0 0.400400
155.0 0.400400
156.0 0.200200
157.1 0.900901
158.0 0.600601
159.0 2.502503
159.9 3.303303
161.0 5.305305
162.0 16.316316
163.1 16.116116
164.0 6.606607
165.0 1.801802
166.0 1.701702
167.0 7.307307
168.0 1.301301
169.1 0.300300
170.0 0.200200
171.0 1.101101
172.1 1.001001
173.0 2.902903
174.0 3.403403
175.0 5.405405
176.0 10.210210
177.0 19.319319
178.0 18.418418
179.0 6.306306
179.9 0.900901
181.0 0.400400
182.0 0.200200
183.0 0.200200
184.0 0.400400
185.0 1.301301
186.0 1.001001
187.0 4.904905
188.0 2.202202
189.1 4.504505
190.0 3.603604
191.1 1.801802
192.0 2.902903
193.0 22.822823
194.1 2.602603
195.0 4.504505
196.0 0.400400
196.9 0.500501
198.1 0.300300
199.0 1.101101
200.1 3.803804
201.0 3.803804
202.0 1.701702
202.9 3.103103
204.0 20.920921
205.0 44.144144
206.0 14.014014
207.0 7.507508
208.0 2.302302
209.0 0.500501
210.1 0.200200
211.0 0.200200
212.1 0.200200
213.1 1.301301
213.9 1.201201
215.1 3.603604
215.9 7.907908
217.0 6.906907
218.1 6.806807
219.0 3.303303
220.0 0.600601
221.0 1.901902
222.0 36.536537
223.1 5.205205
224.0 0.900901
225.0 0.400400
226.0 0.200200
227.1 2.702703
228.0 8.208208
228.9 13.713714
230.0 2.902903
231.0 4.304304
232.0 11.311311
233.0 3.003003
234.0 0.600601
234.9 0.900901
236.1 2.702703
237.0 0.500501
238.0 0.200200
239.1 0.100100
240.0 0.200200
241.0 2.102102
242.0 3.703704
243.0 7.507508
244.0 6.106106
244.9 3.303303
246.0 2.102102
246.9 2.902903
247.9 0.600601
248.9 0.400400
249.8 1.401401
251.0 0.400400
251.9 2.502503
253.0 0.300300
254.1 0.100100
254.9 5.005005
256.2 1.101101
257.0 0.400400
257.9 0.800801
259.1 1.601602
260.1 0.700701
261.1 1.101101
262.0 0.300300
263.0 0.100100
264.0 0.300300
266.1 0.100100
267.0 0.200200
268.1 0.300300
269.0 3.403403
270.1 14.814815
271.0 2.902903
272.0 0.500501
272.9 7.407407
274.0 2.502503
275.0 0.400400
275.9 0.500501
277.0 0.100100
278.0 0.600601
279.1 0.200200
281.0 0.400400
282.0 0.100100
283.0 0.100100
284.1 0.800801
285.1 0.500501
286.0 2.902903
287.0 1.301301
288.1 100.000000
288.9 18.718719
290.0 2.702703
291.1 0.500501
292.1 0.100100
293.2 0.400400
295.0 0.200200
296.0 0.100100
297.0 0.100100
300.0 0.200200
300.9 0.100100
301.9 0.700701
303.0 0.200200
304.0 0.600601
305.1 0.100100
306.0 3.903904
307.1 0.700701
308.1 0.200200
311.1 0.100100
312.3 0.100100
313.0 0.200200
315.0 0.200200
316.0 0.100100
320.0 0.100100
321.0 0.100100
326.1 0.200200
329.1 0.100100
330.1 0.100100
339.9 0.100100
340.9 0.100100
343.0 0.100100
344.0 2.802803
345.1 0.500501
346.0 0.300300
348.9 0.100100
354.2 0.100100
355.0 0.600601
356.1 0.100100
357.0 0.200200

>  <PREDICTED SPECTRUM>  (5) 
26 46
27 123
28 61
29 64
38 40
39 286
40 120
41 317
42 154
43 216
44 122
45 76
46 1
50 118
51 262
52 160
53 377
54 188
55 375
56 118
57 181
58 163
59 35
60 58
62 25
63 148
64 127
65 279
66 193
67 286
68 160
69 346
70 153
71 206
73 44
74 55
75 56
76 80
77 383
78 233
79 286
80 166
81 275
82 203
83 175
84 78
85 178
86 120
87 67
89 134
90 81
91 365
92 185
93 267
94 253
95 312
96 204
97 203
98 121
99 190
100 40
101 67
102 48
103 142
104 76
105 258
106 246
107 341
108 214
109 228
110 166
111 156
112 104
113 146
114 97
115 323
116 179
117 203
118 221
119 240
120 269
121 451
122 314
123 241
124 154
125 114
126 111
127 138
128 140
129 126
130 109
131 233
132 251
133 343
134 311
135 463
136 321
137 217
138 236
139 151
140 43
141 90
142 71
143 146
144 165
145 223
146 139
147 359
148 379
149 498
150 322
151 264
152 103
153 100
155 185
156 112
157 152
158 215
159 196
160 215
161 337
162 257
163 402
164 418
165 425
166 395
167 369
168 207
169 100
171 170
172 136
173 179
174 184
175 329
176 289
177 362
178 270
179 255
180 121
181 14
183 22
184 85
185 150
186 155
187 174
188 115
189 236
190 327
191 390
192 479
193 439
194 262
195 3
196 21
197 77
198 115
199 119
200 80
201 150
202 215
203 328
204 294
205 235
206 34
207 47
209 125
211 9
213 90
214 16
215 179
216 223
217 245
218 182
219 159
220 16
221 268
222 169
223 21
225 23
227 56
228 118
229 215
230 126
231 242
232 73
233 191
234 118
235 79
243 150
244 261
245 295
246 312
247 167
248 164
249 33
257 105
262 129
271 46
272 321
273 119
275 60
289 46
290 999
291 430
292 161
293 36

$$$$

     RDKit          2D

 22 24  0  0  1  0  0  0  0  0999 V2000
    9.7794    5.3262    0.0000 C   0  0  0  0  0  0  0  0  0  0  0  0
    8.8427    2.4762    0.0000 C   0  0  0  0  0  0  0  0  0  0  0  0
    8.3112    5.0193    0.0000 C   0  0  0  0  0  0  0  0  0  0  0  0
   -2.5200    0.5000    0.0000 C   0  0  0  0  0  0  0  0  0  0  0  0
   -2.5300   -1.0000    0.0000 C   0  0  0  0  0  0  0  0  0  0  0  0
   -1.2200    1.2400    0.0000 C   0  0  0  0  0  0  0  0  0  0  0  0
   -1.2300   -1.7600    0.0000 C   0  0  0  0  0  0  0  0  0  0  0  0
    1.9684    2.3650    0.0000 C   0  0  0  0  0  0  0  0  0  0  0  0
    2.3800   -0.2700    0.0000 C   0  0  0  0  0  0  0  0  0  0  0  0
    7.8428    3.5943    0.0000 C   0  0  0  0  0  0  0  0  0  0  0  0
    1.5000    0.9400    0.0000 C   0  0  0  0  0  0  0  0  0  0  0  0
    0.0800    0.4900    0.0000 C   0  0  0  0  0  0  0  0  0  0  0  0
    0.0700   -1.0100    0.0000 C   0  0  0  0  0  0  0  0  0  0  0  0
    3.4366    2.6719    0.0000 C   0  0  0  0  0  0  0  0  0  0  0  0
    6.3745    3.2874    0.0000 C   0  0  0  0  0  0  0  0  0  0  0  0
    4.4367    1.5539    0.0000 C   0  0  0  0  0  0  0  0  0  0  0  0
    5.3744    4.4054    0.0000 C   0  0  0  0  0  0  0  0  0  0  0  0
    1.5000   -1.4800    0.0000 N   0  0  0  0  0  0  0  0  0  0  0  0
    3.9055    4.0976    0.0000 N   0  0  0  0  0  0  0  0  0  0  0  0
    5.9057    1.8617    0.0000 N   0  0  0  0  0  0  0  0  0  0  0  0
    3.9688    0.1288    0.0000 O   0  0  0  0  0  0  0  0  0  0  0  0
    5.8423    5.8305    0.0000 O   0  0  0  0  0  0  0  0  0  0  0  0
  3  1  1  0
  5  4  2  0
  6  4  1  0
  7  5  1  0
 10  2  1  0
 10  3  1  0
 11  8  1  0
 11  9  2  0
 12  6  2  0
 12 11  1  0
 13  7  2  0
 13 12  1  0
 14  8  1  6
 15 10  1  1
 16 14  1  0
 17 15  1  0
 18  9  1  0
 18 13  1  0
 19 14  1  0
 19 17  2  0
 15 20  1  0
 20 16  2  0
 21 16  1  0
 22 17  1  0
M  END
>  <NAME>  (6) 
Cyclo-(D-Ile-L-Trp)

>  <SYNONYMS>  (6) 


>  <SPECTRUM TYPE>  (6) 
MS1

>  <INSTRUMENT TYPE>  (6) 
EI-B

>  <INSTRUMENT>  (6) 
Hitachi M80 mass spectrometers

>  <ION MODE>  (6) 
P

>  <INCHIKEY>  (6) 
PGCNHGBQEYFZEX-XVDHHWJWSA-N

>  <FORMULA>  (6) 
C17H21N3O2

>  <EXACT MASS>  (6) 
299.163376912

>  <MW>  (6) 
299

>  <ID>  (6) 
TT000132

>  <CONTRIBUTOR>  (6) 
Yasuo Kimura, {Faculty of Agriculture, Tottori University

>  <COMMENT>  (6) 
compound class=Natural Product; Oligopeptide
SMILES=CCC(C)[C@@H]1C(=O)N[C@H](C(=O)N1)CC2=CNC3=CC=CC=C32
chemspider=10184233
pubchem cid=11277966
InChI=InChI=1S/C17H21N3O2/c1-3-10(2)15-17(22)19-14(16(21)20-15)8-11-9-18-13-7-5-4-6-12(11)13/h4-7,9-10,14-15,18H,3,8H2,1-2H3,(H,19,22)(H,20,21)/t10?,14-,15+/m0/s1
computed SMILES=OC1=NC(C(O)=NC1CC2=CNC=3C=CC=CC32)C(C)CC
accession=TT000132
date=2016.01.19 (Created 2008.10.21, modified 2011.05.06)
author=Kimura Y, Kuramata M, Faculty of Agriculture, Tottori University
license=CC BY-SA
publication=Kimura, Y., Sawada, A., Kuramata, M., Kusano, M., Fujioka, S., Kawano, T., and Shimada, A. 2005. Brevicompanine C, Cyclo-(D-Ile-L-Trp), and Cyclo-(D-Leu-L-Trp), Plant Growth Regulators from Penicillium brevi-compactum. J. Nat. Prod., 68 (2):237 -239. doi:10.1021/np040178p
comment=[Analytical] Sample was directly injected
exact mass=299.16338
ionization potential=70 eV
computed spectral entropy=1.7996850564686642
computed normalized entropy=0.4019543606031795
SPLASH=splash10-001i-0900000000-af991b9d19adce085a9b
submitter=submitter = Yasuo Kimura (Faculty of Agriculture, Tottori University)
MoNA Rating=3.75

>  <NUM PEAKS>  (6) 
88

>  <MASS SPECTRAL PEAKS>  (6) 
40.8 0.800801
42.0 0.100100
43.0 0.200200
44.0 1.201201
45.0 0.200200
50.9 0.200200
52.0 0.100100
54.0 0.100100
55.0 0.200200
56.1 0.200200
57.1 0.600601
58.0 0.100100
59.9 0.200200
62.9 0.100100
65.0 0.100100
68.0 0.100100
69.0 0.300300
69.9 0.200200
71.0 0.100100
73.0 0.200200
74.8 0.100100
76.0 0.200200
77.0 1.701702
78.0 0.200200
79.0 0.100100
81.0 0.100100
82.1 0.100100
83.1 0.100100
84.0 0.100100
85.0 0.600601
86.1 0.300300
89.0 0.200200
89.9 0.200200
91.1 0.100100
95.1 0.100100
96.1 0.100100
97.0 0.100100
101.0 0.200200
102.2 1.101101
103.2 2.302302
104.0 0.300300
113.0 1.301301
114.0 0.500501
115.0 0.700701
116.0 0.200200
117.1 0.700701
118.1 0.100100
128.0 0.900901
129.2 2.702703
130.1 100.000000
131.1 10.610611
132.1 0.800801
139.0 0.100100
140.2 0.100100
141.0 0.300300
142.0 0.300300
143.1 0.500501
144.1 0.100100
149.8 0.100100
155.1 0.300300
156.0 0.300300
157.0 0.400400
158.1 0.400400
159.1 0.300300
167.1 0.100100
168.0 0.100100
169.0 0.300300
170.1 1.701702
171.0 0.200200
183.9 0.200200
185.0 0.400400
186.0 0.200200
197.0 0.100100
213.1 0.100100
240.0 0.100100
241.0 0.100100
242.0 0.100100
251.7 0.100100
256.1 0.100100
259.9 0.100100
270.2 0.100100
297.0 0.300300
298.0 0.200200
299.1 12.812813
300.0 2.602603
301.1 0.300300
354.1 0.100100
446.1 0.100100

>  <PREDICTED SPECTRUM>  (6) 
26 16
27 89
28 38
29 71
33 28
36 25
38 30
39 158
40 64
41 237
42 159
43 196
44 215
45 107
46 26
50 67
51 137
52 113
53 119
54 116
55 205
56 134
57 89
58 157
59 121
62 25
63 83
64 111
65 87
66 31
67 124
68 136
69 240
70 86
71 129
72 107
73 59
74 42
75 66
76 149
77 398
78 140
79 46
80 62
81 70
82 128
83 184
84 103
85 76
86 56
87 86
88 95
89 76
90 188
91 99
92 80
93 84
94 7
96 23
97 51
98 95
99 52
100 95
101 160
102 256
103 393
104 260
105 109
107 8
109 68
110 0
111 52
112 97
113 74
114 103
115 142
116 139
117 137
119 3
121 39
126 7
127 33
128 140
129 88
130 999
131 690
132 365
133 134
140 97
141 107
142 79
143 194
144 112
145 214
146 67
147 64
148 39
153 3
154 1
155 39
156 73
157 207
158 307
159 362
160 61
167 18
168 18
169 203
170 291
171 84
172 80
173 8
175 28
183 57
184 37
185 37
186 120
187 194
188 126
200 4
201 3
212 82
213 2
226 65
227 47
228 45
230 42
240 92
241 70
242 164
254 36
255 199
256 46
260 4
282 37
297 12
298 31
299 380
300 165
301 29

$$$$

     RDKit          2D

 22 24  0  0  1  0  0  0  0  0999 V2000
    9.7794    5.3262    0.0000 C   0  0  0  0  0  0  0  0  0  0  0  0
    7.3113    6.1374    0.0000 C   0  0  0  0  0  0  0  0  0  0  0  0
   -2.5200    0.5000    0.0000 C   0  0  0  0  0  0  0  0  0  0  0  0
   -2.5300   -1.0000    0.0000 C   0  0  0  0  0  0  0  0  0  0  0  0
   -1.2200    1.2400    0.0000 C   0  0  0  0  0  0  0  0  0  0  0  0
   -1.2300   -1.7600    0.0000 C   0  0  0  0  0  0  0  0  0  0  0  0
    7.8428    3.5943    0.0000 C   0  0  0  0  0  0  0  0  0  0  0  0
    1.9684    2.3650    0.0000 C   0  0  0  0  0  0  0  0  0  0  0  0
    2.3800   -0.2700    0.0000 C   0  0  0  0  0  0  0  0  0  0  0  0
    8.3112    5.0193    0.0000 C   0  0  0  0  0  0  0  0  0  0  0  0
    1.5000    0.9400    0.0000 C   0  0  0  0  0  0  0  0  0  0  0  0
    0.0800    0.4900    0.0000 C   0  0  0  0  0  0  0  0  0  0  0  0
    0.0700   -1.0100    0.0000 C   0  0  0  0  0  0  0  0  0  0  0  0
    6.3745    3.2874    0.0000 C   0  0  0  0  0  0  0  0  0  0  0  0
    3.4366    2.6719    0.0000 C   0  0  0  0  0  0  0  0  0  0  0  0
    5.3744    4.4054    0.0000 C   0  0  0  0  0  0  0  0  0  0  0  0
    4.4367    1.5539    0.0000 C   0  0  0  0  0  0  0  0  0  0  0  0
    1.5000   -1.4800    0.0000 N   0  0  0  0  0  0  0  0  0  0  0  0
    5.9057    1.8617    0.0000 N   0  0  0  0  0  0  0  0  0  0  0  0
    3.9055    4.0976    0.0000 N   0  0  0  0  0  0  0  0  0  0  0  0
    5.8423    5.8305    0.0000 O   0  0  0  0  0  0  0  0  0  0  0  0
    3.9688    0.1288    0.0000 O   0  0  0  0  0  0  0  0  0  0  0  0
  4  3  2  0
  5  3  1  0
  6  4  1  0
 10  1  1  0
 10  2  1  0
 10  7  1  0
 11  8  1  0
 11  9  2  0
 12  5  2  0
 12 11  1  0
 13  6  2  0
 13 12  1  0
 14  7  1  1
 15  8  1  6
 16 14  1  0
 17 15  1  0
 18  9  1  0
 18 13  1  0
 19 14  1  0
 19 17  2  0
 20 15  1  0
 20 16  2  0
 21 16  1  0
 22 17  1  0
M  END
>  <NAME>  (7) 
Cyclo-(D-Leu-L-Trp)

>  <SYNONYMS>  (7) 


>  <SPECTRUM TYPE>  (7) 
MS1

>  <INSTRUMENT TYPE>  (7) 
EI-B

>  <INSTRUMENT>  (7) 
Hitachi M80 mass spectrometers

>  <ION MODE>  (7) 
P

>  <INCHIKEY>  (7) 
BZUNCDPEEKFTCX-CABCVRRESA-N

>  <FORMULA>  (7) 
C17H21N3O2

>  <EXACT MASS>  (7) 
299.16337691200005

>  <MW>  (7) 
299

>  <ID>  (7) 
TT000131

>  <CONTRIBUTOR>  (7) 
Yasuo Kimura, {Faculty of Agriculture, Tottori University

>  <COMMENT>  (7) 
compound class=Natural Product; Oligopeptide
SMILES=CC(C)C[C@@H]1C(=O)N[C@H](C(=O)N1)CC2=CNC3=CC=CC=C32
chemspider=20100302
pubchem cid=11185646
InChI=InChI=1S/C17H21N3O2/c1-10(2)7-14-16(21)20-15(17(22)19-14)8-11-9-18-13-6-4-3-5-12(11)13/h3-6,9-10,14-15,18H,7-8H2,1-2H3,(H,19,22)(H,20,21)/t14-,15+/m1/s1
computed SMILES=OC1=NC(C(O)=NC1CC2=CNC=3C=CC=CC32)CC(C)C
accession=TT000131
date=2016.01.19 (Created 2008.10.21, modified 2011.05.06)
author=Kimura Y, Kuramata M, Faculty of Agriculture, Tottori University
license=CC BY-SA
publication=Kimura, Y., Sawada, A., Kuramata, M., Kusano, M., Fujioka, S., Kawano, T., and Shimada, A. 2005. Brevicompanine C, Cyclo-(D-Ile-L-Trp), and Cyclo-(D-Leu-L-Trp), Plant Growth Regulators from Penicillium brevi-compactum. J. Nat. Prod., 68 (2):237 -239. doi:10.1021/np040178p
comment=[Analytical] Sample was directly injected
exact mass=299.16338
ionization potential=70 eV
computed spectral entropy=2.1517704311859593
computed normalized entropy=0.44945673993696544
SPLASH=splash10-001i-1900000000-6861514b08a26990d02f
submitter=submitter = Yasuo Kimura (Faculty of Agriculture, Tottori University)
MoNA Rating=3.75

>  <NUM PEAKS>  (7) 
120

>  <MASS SPECTRAL PEAKS>  (7) 
40.99 1.001001
41.97 0.300300
42.96 1.201201
43.99 1.701702
44.93 0.200200
49.95 0.100100
50.89 0.200200
51.93 0.100100
52.87 0.200200
54.01 0.100100
55.05 0.700701
55.99 0.300300
57.08 1.001001
57.92 0.200200
59.06 0.100100
59.90 0.300300
60.94 0.100100
61.98 0.100100
62.92 0.200200
64.95 0.100100
67.03 0.200200
67.97 0.400400
69.06 0.700701
70.05 0.400400
71.04 0.500501
72.04 0.100100
72.99 0.400400
73.98 0.100100
74.98 0.600601
76.02 0.300300
77.06 2.202202
78.11 0.300300
79.05 0.100100
80.10 0.100100
81.09 0.300300
82.08 0.200200
83.07 0.400400
84.11 0.200200
85.05 0.400400
86.04 0.400400
87.08 0.100100
89.06 0.200200
90.10 0.100100
91.04 0.200200
93.08 0.100100
95.02 0.300300
96.07 0.100100
97.06 0.400400
98.01 0.200200
99.15 0.200200
101.10 0.300300
102.05 1.001001
103.10 2.602603
104.05 0.300300
105.05 0.100100
109.10 0.100100
110.15 0.100100
111.14 0.300300
112.08 0.100100
113.07 0.600601
114.01 0.700701
115.00 1.001001
115.99 0.200200
116.98 0.800801
118.02 0.100100
119.01 0.100100
120.95 0.100100
123.10 0.100100
124.05 0.100100
125.00 0.200200
125.90 0.200200
126.90 0.200200
127.95 0.900901
129.00 3.203203
130.03 100.000000
131.01 10.810811
131.91 0.700701
133.02 0.100100
135.03 0.100100
137.04 0.100100
138.04 0.100100
140.00 0.200200
141.05 0.300300
142.00 0.300300
142.95 0.800801
144.05 0.200200
145.05 0.100100
147.05 0.200200
148.90 0.500501
149.95 0.100100
154.04 0.100100
155.05 0.300300
156.06 0.300300
157.07 0.700701
158.03 0.700701
159.09 0.300300
166.98 0.300300
168.04 0.100100
169.05 0.400400
170.05 1.301301
171.06 0.300300
184.01 0.100100
185.00 0.300300
186.09 0.100100
213.97 0.100100
221.00 0.100100
228.15 0.100100
242.09 0.200200
243.13 0.100100
252.25 0.100100
256.13 0.200200
279.05 0.100100
284.06 0.200200
285.05 0.100100
297.03 0.200200
298.02 0.300300
299.09 9.309309
300.15 1.701702
301.05 0.200200
308.85 0.100100

>  <PREDICTED SPECTRUM>  (7) 
26 0
27 24
33 49
36 4
38 13
39 129
40 47
41 215
42 139
43 218
44 242
45 86
46 21
50 101
51 157
52 116
53 135
54 126
55 211
56 124
57 53
58 86
60 21
62 13
63 87
64 95
65 81
66 17
67 97
68 121
69 125
70 72
71 102
72 121
73 27
74 17
75 94
76 196
77 417
78 151
79 53
80 88
81 113
82 107
83 85
84 49
85 42
86 62
87 21
88 67
89 122
90 191
91 67
92 33
93 101
94 63
95 41
96 33
97 59
98 85
99 76
100 120
101 170
102 339
103 448
104 241
105 77
106 43
107 34
109 50
111 11
113 50
114 74
115 110
116 126
117 116
118 8
119 6
121 63
127 20
128 97
129 20
130 999
131 490
132 444
133 94
134 37
135 31
141 48
142 54
143 189
145 58
146 36
147 37
148 118
149 35
151 61
156 26
157 223
158 359
159 484
160 243
170 95
171 73
172 40
173 55
174 20
175 141
176 22
183 55
184 18
186 148
187 167
188 256
189 88
200 74
201 83
202 103
210 11
212 40
213 15
214 132
215 33
216 128
226 31
227 101
228 165
229 158
230 102
240 19
241 31
242 105
254 30
255 215
256 180
257 189
258 124
260 31
297 22
298 30
299 256
300 120
301 68

$$$$

     RDKit          2D

 16 17  0  0  1  0  0  0  0  0999 V2000
    1.3000   -3.0000    0.0000 C   0  0  0  0  0  0  0  0  0  0  0  0
   -3.8989    1.5002    0.0000 C   0  0  0  0  0  0  0  0  0  0  0  0
    3.8989   -1.5002    0.0000 C   0  0  0  0  0  0  0  0  0  0  0  0
   -1.3000   -1.5000    0.0000 C   0  0  0  0  0  0  0  0  0  0  0  0
    1.3000   -1.5000    0.0000 C   0  0  0  0  0  0  0  0  0  0  0  0
   -2.6000    0.7500    0.0000 C   0  0  0  0  0  0  0  0  0  0  0  0
    2.6000   -0.7500    0.0000 C   0  0  0  0  0  0  0  0  0  0  0  0
    0.0000   -0.7500    0.0000 C   0  0  0  0  0  0  0  0  0  0  0  0
   -2.6000   -0.7500    0.0000 C   0  0  0  0  0  0  0  0  0  0  0  0
    0.0000    0.7500    0.0000 C   0  0  0  0  0  0  0  0  0  0  0  0
   -1.3000    1.5000    0.0000 C   0  0  0  0  0  0  0  0  0  0  0  0
    1.3000    1.5000    0.0000 C   0  0  0  0  0  0  0  0  0  0  0  0
   -3.8989   -1.5002    0.0000 O   0  0  0  0  0  0  0  0  0  0  0  0
   -1.3000    3.0000    0.0000 O   0  0  0  0  0  0  0  0  0  0  0  0
    1.3000    3.0000    0.0000 O   0  0  0  0  0  0  0  0  0  0  0  0
    2.6000    0.7500    0.0000 O   0  0  0  0  0  0  0  0  0  0  0  0
  5  1  1  6
  6  2  1  0
  7  3  1  6
  7  5  1  0
  8  4  2  0
  8  5  1  0
  9  4  1  0
  9  6  2  0
 10  8  1  0
 11  6  1  0
 11 10  2  0
 12 10  1  0
 13  9  1  0
 14 11  1  0
 15 12  2  0
 16  7  1  0
 16 12  1  0
M  END
>  <NAME>  (8) 
Sclerotinin C

>  <SYNONYMS>  (8) 


>  <SPECTRUM TYPE>  (8) 
MS1

>  <INSTRUMENT TYPE>  (8) 
EI-B

>  <INSTRUMENT>  (8) 
JEOL JMX-SX 102

>  <ION MODE>  (8) 
P

>  <INCHIKEY>  (8) 
WWSWVMRYHCEPFK-CAHLUQPWSA-N

>  <FORMULA>  (8) 
C12H14O4

>  <EXACT MASS>  (8) 
222.089208928

>  <MW>  (8) 
222

>  <ID>  (8) 
TT000129

>  <CONTRIBUTOR>  (8) 
Yasuo Kimura, {Faculty of Agriculture, Tottori University

>  <COMMENT>  (8) 
compound class=Natural Product; Isocoumarin
SMILES=C[C@H]1[C@H](OC(=O)C2=C(C(=C(C=C12)O)C)O)C
pubchem cid=102595352
InChI=InChI=1S/C12H14O4/c1-5-7(3)16-12(15)10-8(5)4-9(13)6(2)11(10)14/h4-5,7,13-14H,1-3H3/t5-,7+/m0/s1
computed SMILES=O=C1OC(C)C(C2=CC(O)=C(C(O)=C12)C)C
accession=TT000129
date=2016.01.19 (Created 2008.10.21, modified 2011.05.06)
author=Kimura Y, Kuramata M, Faculty of Agriculture, Tottori University
license=CC BY-SA
publication=Kuramata, M., Fujioka, S., Shimada, A., Kawano, T., and Kimura, Y. 2007. Citrinolactones A, B and C, and Sclerotinin C, Plant Growth Regulators from Penicillium citrinum. Bioscience, Biotechnology, and Biochemistry. 71(2): 499-503.
comment=[Analytical] Sample was directly injected
exact mass=222.08921
ionization potential=70 eV
computed spectral entropy=3.9395606936385903
computed normalized entropy=0.7256050660376273
SPLASH=splash10-0udl-3910000000-3b0c4185548c1c940634
submitter=submitter = Yasuo Kimura (Faculty of Agriculture, Tottori University)
MoNA Rating=3.75

>  <NUM PEAKS>  (8) 
228

>  <MASS SPECTRAL PEAKS>  (8) 
40.00 1.601602
40.54 0.200200
41.08 6.306306
42.01 1.401401
42.58 0.100100
43.05 11.411411
44.00 61.561562
44.41 0.100100
45.09 5.605606
45.99 0.400400
47.81 0.200200
50.04 1.201201
50.57 0.100100
51.07 3.103103
51.43 0.100100
51.61 0.100100
52.07 1.201201
53.07 3.903904
54.00 0.700701
55.07 4.404404
56.07 1.201201
57.11 2.002002
57.71 0.200200
58.04 1.301301
59.04 0.400400
60.04 2.002002
61.03 0.100100
61.53 0.200200
62.06 1.001001
63.02 2.402402
63.99 0.600601
65.02 4.604605
65.37 0.100100
66.01 1.501502
66.51 0.100100
67.01 4.304304
68.01 0.500501
68.97 7.807808
70.04 0.500501
71.05 1.001001
71.44 0.100100
71.95 0.500501
72.49 0.100100
73.00 0.900901
73.50 0.300300
74.01 0.700701
74.51 0.200200
74.77 0.100100
74.95 0.700701
75.99 1.201201
77.05 10.310310
78.01 2.702703
79.06 7.007007
79.93 1.501502
81.09 5.405405
81.41 0.100100
81.92 1.401401
83.01 1.501502
84.13 0.700701
85.00 0.500501
86.05 0.300300
86.99 0.600601
88.12 0.100100
89.06 1.201201
89.82 0.100100
90.07 0.700701
90.50 0.200200
91.08 8.008008
91.72 0.200200
92.08 1.401401
93.08 2.602603
94.01 1.101101
94.30 0.200200
94.52 0.100100
95.05 5.005005
96.06 1.101101
96.99 0.600601
97.63 0.100100
97.99 0.500501
99.00 0.300300
99.93 0.200200
100.98 0.300300
102.00 1.301301
102.98 4.204204
104.00 1.001001
105.02 5.005005
105.38 0.100100
106.04 1.201201
106.95 5.205205
108.00 3.203203
109.02 7.607608
110.04 4.504505
110.62 0.100100
110.98 1.401401
112.04 0.500501
113.05 0.200200
114.00 0.400400
115.05 2.402402
116.04 0.800801
117.05 1.201201
118.00 0.800801
119.02 1.901902
120.04 1.001001
121.06 3.603604
122.05 2.002002
122.67 0.100100
123.06 31.631632
124.03 6.406406
125.05 2.602603
126.04 0.600601
126.92 1.101101
127.95 1.701702
129.12 0.800801
130.04 0.400400
131.08 2.102102
132.09 0.700701
133.09 8.108108
133.49 0.400400
134.06 2.602603
135.07 2.502503
136.01 4.104104
137.07 58.558559
138.02 6.606607
139.03 1.501502
139.93 0.600601
140.98 0.600601
141.85 0.300300
143.02 0.300300
144.00 0.100100
145.05 0.800801
145.67 0.100100
146.04 0.100100
146.69 0.100100
147.02 2.302302
147.56 0.100100
148.04 1.101101
148.51 0.100100
149.09 14.614615
150.07 8.108108
151.16 37.637638
152.10 100.000000
152.72 0.200200
153.08 9.509510
153.99 1.301301
154.67 0.100100
155.07 0.400400
155.47 0.100100
157.03 0.400400
158.08 0.100100
159.09 0.400400
160.00 0.600601
161.05 3.703704
162.07 1.401401
163.12 4.404404
164.09 2.902903
165.00 1.401401
166.12 0.900901
167.07 0.200200
168.04 0.400400
169.24 0.100100
171.04 0.200200
172.08 0.200200
173.01 0.500501
174.09 0.400400
175.09 1.501502
175.70 0.400400
176.09 2.002002
177.03 6.106106
178.06 14.214214
179.07 4.904905
180.04 1.801802
181.08 2.802803
182.05 0.500501
183.02 0.200200
184.10 0.100100
184.39 0.100100
185.11 0.100100
186.12 0.200200
187.12 0.100100
187.52 0.100100
188.09 0.200200
189.03 1.101101
190.07 0.400400
191.07 0.700701
192.00 0.700701
193.06 19.019019
194.11 4.104104
195.04 0.700701
196.12 40.140140
196.50 0.100100
197.07 5.405405
198.11 0.400400
199.07 0.300300
200.11 0.100100
200.82 0.400400
203.04 0.600601
204.07 2.302302
204.75 0.100100
205.07 0.600601
206.07 1.001001
207.04 5.005005
208.11 1.001001
209.04 0.400400
210.00 0.500501
212.08 0.100100
213.05 0.100100
214.09 0.100100
215.13 0.100100
216.06 0.100100
220.11 0.400400
220.69 0.400400
221.05 0.800801
222.11 34.334334
223.18 5.105105
224.08 0.500501
225.20 0.200200
226.14 0.200200
228.09 0.200200
230.22 0.200200
231.09 0.300300
231.56 0.400400
232.17 0.200200
233.08 0.100100
234.24 0.100100
235.18 0.100100
236.09 0.400400
236.85 0.100100
239.75 0.200200

>  <PREDICTED SPECTRUM>  (8) 
15 1
17 11
18 19
26 16
27 123
28 67
29 164
31 11
38 26
39 239
40 91
41 282
42 177
43 351
44 107
45 65
47 14
50 77
51 214
52 141
53 277
54 111
55 338
56 31
57 77
61 2
62 33
63 129
64 64
65 230
66 145
67 257
68 64
69 307
70 0
71 13
76 37
77 280
78 87
79 201
80 80
81 111
82 82
83 72
85 18
89 23
91 288
92 56
93 114
94 20
95 61
97 15
102 30
103 7
105 173
106 30
107 130
108 69
109 25
115 181
119 66
120 46
121 117
122 19
123 85
128 63
131 14
132 37
133 172
135 138
136 163
137 177
138 31
147 98
148 91
149 225
150 155
151 287
152 107
153 35
154 36
161 214
162 41
163 58
165 375
166 253
167 139
175 136
176 190
177 288
178 257
179 674
180 193
189 221
190 10
193 376
194 147
204 160
207 313
208 52
221 52
222 999
223 353
224 95

$$$$

     RDKit          2D

 17 19  0  0  1  0  0  0  0  0999 V2000
   -4.5489    0.9002    0.0000 C   0  0  0  0  0  0  0  0  0  0  0  0
    2.4500    2.5200    0.0000 C   0  0  0  0  0  0  0  0  0  0  0  0
    3.0600    1.1500    0.0000 C   0  0  0  0  0  0  0  0  0  0  0  0
   -1.9500    0.9000    0.0000 C   0  0  0  0  0  0  0  0  0  0  0  0
   -3.2500   -1.3500    0.0000 C   0  0  0  0  0  0  0  0  0  0  0  0
   -3.2500    0.1500    0.0000 C   0  0  0  0  0  0  0  0  0  0  0  0
   -0.6500    0.1500    0.0000 C   0  0  0  0  0  0  0  0  0  0  0  0
    0.9600    2.3600    0.0000 C   0  0  0  0  0  0  0  0  0  0  0  0
   -1.9500   -2.1000    0.0000 C   0  0  0  0  0  0  0  0  0  0  0  0
    1.9500    0.1500    0.0000 C   0  0  0  0  0  0  0  0  0  0  0  0
    0.6500    0.9000    0.0000 C   0  0  0  0  0  0  0  0  0  0  0  0
   -0.6500   -1.3500    0.0000 C   0  0  0  0  0  0  0  0  0  0  0  0
    0.6500   -2.1000    0.0000 C   0  0  0  0  0  0  0  0  0  0  0  0
   -0.0451    3.4735    0.0000 O   0  0  0  0  0  0  0  0  0  0  0  0
   -1.9500   -3.6000    0.0000 O   0  0  0  0  0  0  0  0  0  0  0  0
    0.6500   -3.6000    0.0000 O   0  0  0  0  0  0  0  0  0  0  0  0
    1.9500   -1.3500    0.0000 O   0  0  0  0  0  0  0  0  0  0  0  0
  3  2  1  0
  6  1  1  0
  6  4  1  0
  6  5  2  0
  7  4  2  0
  8  2  1  0
  9  5  1  0
 10  3  1  0
 11  7  1  0
 11  8  1  0
 11 10  2  0
 12  7  1  0
 12  9  2  0
 13 12  1  0
  8 14  1  1
 15  9  1  0
 16 13  2  0
 17 10  1  0
 17 13  1  0
M  END
>  <NAME>  (9) 
Citrinolactone B

>  <SYNONYMS>  (9) 


>  <SPECTRUM TYPE>  (9) 
MS1

>  <INSTRUMENT TYPE>  (9) 
EI-B

>  <INSTRUMENT>  (9) 
JEOL JMX-SX 102

>  <ION MODE>  (9) 
P

>  <INCHIKEY>  (9) 
DMYRPFPADKEUEO-QMMMGPOBSA-N

>  <FORMULA>  (9) 
C13H12O4

>  <EXACT MASS>  (9) 
232.073558864

>  <MW>  (9) 
232

>  <ID>  (9) 
TT000123

>  <CONTRIBUTOR>  (9) 
Yasuo Kimura, {Faculty of Agriculture, Tottori University

>  <COMMENT>  (9) 
compound class=Natural Product; Isocoumarin
SMILES=CC1=CC(=C2C(=C1)C3=C(CC[C@@H]3O)OC2=O)O
pubchem cid=102595350
InChI=InChI=1S/C13H12O4/c1-6-4-7-11-8(14)2-3-10(11)17-13(16)12(7)9(15)5-6/h4-5,8,14-15H,2-3H2,1H3/t8-/m0/s1
computed SMILES=O=C1OC2=C(C=3C=C(C=C(O)C13)C)C(O)CC2
license=CC BY-SA
accession=TT000123
date=2016.01.19 (Created 2008.10.21, modified 2011.05.06)
author=Kimura Y, Kuramata M, Faculty of Agriculture, Tottori University
publication=Kuramata, M., Fujioka, S., Shimada, A., Kawano, T., and Kimura, Y. 2007. Citrinolactones A, B and C, and Sclerotinin C, Plant Growth Regulators from Penicillium citrinum. Bioscience, Biotechnology, and Biochemistry. 71(2): 499-503.
comment=[Analytical] Sample was directly injected
exact mass=232.07356
ionization potential=70 eV
computed spectral entropy=3.842909718102711
computed normalized entropy=0.7280837886653564
SPLASH=splash10-0gx0-3590000000-95e3296b5dc751b849ca
submitter=submitter = Yasuo Kimura (Faculty of Agriculture, Tottori University)
MoNA Rating=3.75

>  <NUM PEAKS>  (9) 
196

>  <MASS SPECTRAL PEAKS>  (9) 
40.00 1.801802
41.00 4.404404
41.99 0.900901
43.03 2.902903
43.94 0.700701
44.98 0.200200
49.00 0.100100
49.96 3.503504
51.00 12.112112
51.54 0.200200
52.03 5.705706
53.11 11.511512
54.07 0.700701
54.98 7.707708
55.98 0.400400
57.10 0.600601
57.51 0.500501
57.97 0.200200
59.00 0.200200
60.04 0.200200
61.03 0.500501
62.02 2.502503
63.02 6.606607
63.55 0.500501
64.05 4.704705
64.55 0.700701
65.03 15.215215
65.45 0.400400
66.03 5.905906
66.94 2.402402
67.89 0.400400
68.93 4.404404
69.46 0.400400
69.96 1.101101
70.42 0.200200
70.96 0.400400
71.97 0.300300
72.97 0.400400
73.97 2.002002
74.98 3.203203
76.03 3.003003
77.03 12.412412
77.49 0.200200
78.03 3.803804
78.54 0.300300
79.04 5.505506
79.54 0.200200
80.00 2.702703
80.46 0.300300
81.08 3.403403
82.08 0.600601
83.08 0.200200
84.00 0.600601
84.50 0.100100
85.08 0.100100
85.50 0.100100
86.00 0.700701
86.50 0.100100
87.00 1.701702
87.46 0.200200
88.00 1.301301
88.50 0.900901
88.96 4.604605
90.0 1.501502
90.97 4.404404
92.02 2.702703
92.52 0.600601
93.03 7.207207
93.53 0.600601
94.03 3.503504
94.45 0.100100
95.0 1.701702
96.01 0.100100
96.97 0.500501
97.94 0.400400
98.99 0.300300
99.96 0.400400
100.97 2.302302
101.48 1.101101
101.98 5.005005
102.49 0.300300
103.00 2.402402
104.01 0.600601
105.02 4.104104
106.03 5.405405
106.54 0.300300
107.05 5.105105
107.55 0.900901
108.06 0.600601
108.52 0.100100
109.11 4.804805
110.04 0.400400
111.05 0.200200
113.01 0.300300
113.97 0.500501
114.98 8.008008
115.48 2.502503
115.98 6.106106
116.49 0.700701
117.07 1.201201
118.08 0.800801
118.95 1.001001
119.96 0.400400
121.01 8.708709
122.03 7.907908
123.04 0.900901
124.01 0.600601
125.02 0.700701
125.99 0.400400
127.05 2.602603
128.06 5.905906
129.07 5.105105
130.04 2.002002
130.97 2.402402
131.98 1.601602
133.00 4.804805
134.01 5.405405
134.98 3.003003
135.99 0.300300
137.05 0.100100
138.99 0.600601
140.00 0.400400
141.01 0.900901
142.02 0.200200
143.03 0.600601
144.03 1.801802
145.04 1.701702
146.05 0.500501
146.97 0.800801
147.98 0.500501
148.99 0.700701
149.96 3.403403
151.02 16.416416
151.98 1.601602
153.04 0.100100
154.98 0.200200
155.99 0.200200
157.00 3.403403
158.02 7.207207
159.03 2.202202
160.04 1.001001
160.96 2.302302
162.05 0.200200
162.97 0.300300
164.02 0.100100
164.94 0.200200
166.95 0.100100
167.95 0.500501
168.95 0.500501
170.00 0.100100
170.97 0.900901
171.97 0.300300
172.98 0.600601
173.99 0.600601
175.00 2.402402
175.92 2.702703
176.93 3.103103
178.03 0.500501
178.99 0.100100
183.00 0.100100
184.01 0.400400
185.06 18.518519
186.05 41.241241
187.05 6.706707
188.06 0.800801
188.99 0.600601
190.00 0.300300
192.99 0.200200
195.93 0.400400
196.93 0.200200
198.01 0.200200
198.92 0.200200
199.96 0.400400
200.92 1.301301
201.97 1.101101
203.05 77.377377
204.10 37.537538
205.02 5.205205
206.03 0.600601
207.03 0.100100
212.04 0.200200
212.96 2.402402
214.03 100.000000
215.08 29.529530
216.04 4.104104
217.00 0.800801
218.08 0.100100
222.02 0.400400
226.03 0.100100
228.97 0.600601
230.00 1.601602
231.08 25.825826
232.04 100.000000
233.04 19.619620
234.00 2.402402
235.04 0.200200

>  <PREDICTED SPECTRUM>  (9) 
26 12
27 20
28 22
29 56
31 2
34 11
37 1
38 45
39 216
40 115
41 220
42 162
43 218
44 192
45 142
46 14
49 28
50 166
51 273
52 195
53 252
54 166
55 190
56 100
57 147
58 119
59 5
60 14
61 18
62 135
63 240
64 164
65 253
66 176
67 175
68 160
69 222
70 88
71 153
72 46
73 55
74 125
75 201
76 196
77 412
78 225
79 199
80 84
81 108
82 116
83 93
84 130
85 134
86 80
87 128
88 103
89 250
90 186
91 341
92 169
93 205
94 83
95 56
96 17
97 83
98 71
99 98
100 109
101 105
102 221
103 258
104 224
105 280
106 190
107 197
108 67
109 86
110 38
111 105
112 55
113 100
114 87
115 335
116 218
117 229
118 220
119 261
120 222
121 240
122 111
123 5
125 6
126 85
127 183
128 224
129 248
130 193
131 293
132 339
133 260
134 211
135 192
136 62
139 35
140 9
141 177
142 124
143 190
144 84
145 387
146 329
147 386
148 191
149 110
151 8
153 12
155 70
156 56
157 184
158 367
159 345
160 338
161 256
162 80
163 100
164 30
169 73
170 129
171 271
172 195
173 238
174 150
175 360
176 232
177 131
178 3
181 34
185 201
186 314
187 274
188 356
189 229
190 112
199 138
203 122
204 103
205 4
213 148
214 519
215 276
216 172
217 76
218 4
230 51
231 25
232 999
233 404
234 169
235 56

$$$$

     RDKit          2D

 21 23  0  0  1  0  0  0  0  0999 V2000
   -4.5489    0.9002    0.0000 C   0  0  0  0  0  0  0  0  0  0  0  0
    2.2531    6.1120    0.0000 C   0  0  0  0  0  0  0  0  0  0  0  0
    3.0600    1.1500    0.0000 C   0  0  0  0  0  0  0  0  0  0  0  0
    2.4500    2.5200    0.0000 C   0  0  0  0  0  0  0  0  0  0  0  0
   -1.9500    0.9000    0.0000 C   0  0  0  0  0  0  0  0  0  0  0  0
   -3.2500   -1.3500    0.0000 C   0  0  0  0  0  0  0  0  0  0  0  0
   -3.2500    0.1500    0.0000 C   0  0  0  0  0  0  0  0  0  0  0  0
   -0.6500    0.1500    0.0000 C   0  0  0  0  0  0  0  0  0  0  0  0
   -1.9500   -2.1000    0.0000 C   0  0  0  0  0  0  0  0  0  0  0  0
    1.9500    0.1500    0.0000 C   0  0  0  0  0  0  0  0  0  0  0  0
   -0.6500   -1.3500    0.0000 C   0  0  0  0  0  0  0  0  0  0  0  0
    0.6500    0.9000    0.0000 C   0  0  0  0  0  0  0  0  0  0  0  0
    0.6500   -2.1000    0.0000 C   0  0  0  0  0  0  0  0  0  0  0  0
    0.9576    3.8600    0.0000 C   0  0  0  0  0  0  0  0  0  0  0  0
    0.9600    2.3600    0.0000 C   0  0  0  0  0  0  0  0  0  0  0  0
   -1.9500   -3.6000    0.0000 O   0  0  0  0  0  0  0  0  0  0  0  0
    0.6500   -3.6000    0.0000 O   0  0  0  0  0  0  0  0  0  0  0  0
   -0.3426    4.6080    0.0000 O   0  0  0  0  0  0  0  0  0  0  0  0
   -0.5319    2.5155    0.0000 O   0  0  0  0  0  0  0  0  0  0  0  0
    2.2555    4.6120    0.0000 O   0  0  0  0  0  0  0  0  0  0  0  0
    1.9500   -1.3500    0.0000 O   0  0  0  0  0  0  0  0  0  0  0  0
  4  3  1  0
  7  1  1  0
  7  5  1  0
  7  6  2  0
  8  5  2  0
  9  6  1  0
 10  3  1  0
 11  8  1  0
 11  9  2  0
 12  8  1  0
 12 10  2  0
 13 11  1  0
 15  4  1  0
 15 12  1  0
 15 14  1  0
 16  9  1  0
 17 13  2  0
 18 14  2  0
 15 19  1  1
 20  2  1  0
 20 14  1  0
 21 10  1  0
 21 13  1  0
M  END
>  <NAME>  (10) 
Citrinolactone A

>  <SYNONYMS>  (10) 


>  <SPECTRUM TYPE>  (10) 
MS1

>  <INSTRUMENT TYPE>  (10) 
EI-B

>  <INSTRUMENT>  (10) 
JEOL JMX-SX 102

>  <ION MODE>  (10) 
P

>  <INCHIKEY>  (10) 
MWJQDTTVNPGMAY-HNNXBMFYSA-N

>  <FORMULA>  (10) 
C15H14O6

>  <EXACT MASS>  (10) 
290.079038168

>  <MW>  (10) 
290

>  <ID>  (10) 
TT000121

>  <CONTRIBUTOR>  (10) 
Yasuo Kimura, {Faculty of Agriculture, Tottori University

>  <COMMENT>  (10) 
compound class=Natural Product; Isocoumarin
SMILES=CC1=CC(=C2C(=C1)C3=C(CC[C@]3(C(=O)OC)O)OC2=O)O
pubchem cid=102595349
InChI=InChI=1S/C15H14O6/c1-7-5-8-11(9(16)6-7)13(17)21-10-3-4-15(19,12(8)10)14(18)20-2/h5-6,16,19H,3-4H2,1-2H3/t15-/m0/s1
computed SMILES=O=C1OC2=C(C=3C=C(C=C(O)C13)C)C(O)(C(=O)OC)CC2
accession=TT000121
date=2016.01.19 (Created 2008.10.21, modified 2011.05.06)
author=Kimura Y, Kuramata M, Faculty of Agriculture, Tottori University
license=CC BY-SA
publication=Kuramata, M., Fujioka, S., Shimada, A., Kawano, T., and Kimura, Y. 2007. Citrinolactones A, B and C, and Sclerotinin C, Plant Growth Regulators from Penicillium citrinum. Bioscience, Biotechnology, and Biochemistry. 71(2): 499-503.
comment=[Analytical] Sample was directly injected
exact mass=290.07904
ionization potential=70 eV
computed spectral entropy=4.071663424917274
computed normalized entropy=0.7499363096729903
SPLASH=splash10-001i-5590000000-da772180c4b263296a1a
submitter=submitter = Yasuo Kimura (Faculty of Agriculture, Tottori University)
MoNA Rating=3.75

>  <NUM PEAKS>  (10) 
228

>  <MASS SPECTRAL PEAKS>  (10) 
40.0 1.201201
41.0 4.804805
42.0 0.600601
43.0 4.504505
44.0 1.301301
45.0 1.001001
47.0 0.100100
49.1 0.100100
50.1 2.302302
51.1 8.808809
52.1 5.805806
53.1 7.107107
54.1 0.700701
55.0 8.808809
56.1 0.900901
57.1 3.403403
57.6 0.200200
58.1 0.200200
59.0 3.103103
60.0 2.702703
61.0 0.500501
62.0 1.801802
63.0 5.505506
63.5 0.300300
64.0 2.802803
64.5 0.300300
65.0 5.905906
65.5 0.200200
66.1 4.504505
67.1 2.302302
68.1 0.500501
69.0 9.009009
69.6 0.100100
70.0 0.700701
71.0 2.102102
72.0 0.200200
73.1 2.402402
73.6 0.100100
74.1 1.301301
75.0 2.502503
76.0 2.002002
77.0 10.810811
77.5 0.100100
78.1 3.103103
78.5 0.200200
79.0 9.109109
80.0 2.502503
80.9 3.603604
81.8 0.700701
83.1 1.201201
84.0 0.400400
84.8 0.300300
85.1 1.201201
85.9 0.400400
86.5 0.100100
86.9 1.301301
87.4 0.300300
88.0 1.301301
88.5 1.201201
89.0 5.905906
89.9 1.301301
91.0 4.104104
92.0 1.501502
92.5 0.500501
93.0 1.301301
94.0 3.303303
95.0 1.501502
96.0 0.300300
97.0 2.102102
98.0 0.300300
99.1 0.400400
100.1 0.500501
100.6 0.200200
101.1 2.602603
101.6 1.901902
102.1 1.701702
103.1 1.801802
104.0 0.600601
104.9 2.502503
106.0 3.303303
106.5 0.500501
107.0 2.202202
107.9 0.800801
109.0 1.301301
110.0 0.200200
111.0 0.600601
112.1 0.200200
113.0 0.400400
113.9 0.400400
115.0 7.207207
115.5 7.107107
116.0 1.601602
116.5 0.100100
117.0 1.101101
118.0 0.700701
119.0 1.301301
120.0 0.400400
121.1 2.802803
122.0 8.708709
123.0 1.801802
124.0 0.300300
124.9 4.704705
126.0 0.700701
127.0 2.802803
128.0 5.605606
129.0 3.403403
130.0 0.500501
130.9 1.601602
132.0 1.301301
132.9 1.501502
133.9 1.901902
134.9 1.101101
136.0 0.200200
136.9 0.400400
138.1 0.100100
138.9 0.400400
140.0 0.200200
141.0 0.400400
141.9 0.700701
143.0 0.500501
144.1 0.600601
145.0 1.201201
146.0 0.300300
147.1 0.800801
148.0 0.300300
149.0 1.401401
150.0 5.905906
151.0 17.017017
152.0 3.903904
153.0 0.400400
153.8 0.100100
155.0 0.500501
155.8 0.400400
156.0 0.300300
156.9 2.602603
157.7 0.700701
158.1 0.400400
158.9 0.300300
159.9 1.001001
161.0 1.401401
161.9 0.200200
163.0 0.400400
164.1 0.100100
165.1 0.100100
166.0 0.800801
167.0 0.500501
168.1 0.100100
169.1 0.100100
170.1 0.100100
171.1 1.101101
172.1 0.200200
173.1 0.900901
174.1 1.301301
175.1 7.107107
176.1 1.601602
177.0 2.102102
178.0 0.400400
179.0 0.100100
181.1 0.100100
183.0 0.300300
184.0 0.900901
185.1 2.502503
186.0 1.001001
187.0 0.700701
188.1 0.300300
189.0 0.300300
190.1 0.400400
191.1 0.100100
192.2 0.100100
193.1 0.400400
198.1 0.200200
199.1 0.200200
200.1 0.200200
201.0 4.704705
202.0 2.802803
203.0 4.604605
204.0 0.800801
205.0 0.200200
207.0 0.200200
211.0 0.300300
211.9 0.300300
213.0 1.101101
214.0 2.402402
215.0 1.901902
216.0 0.800801
217.1 0.200200
219.1 0.300300
221.0 0.200200
222.1 0.700701
223.1 0.200200
227.1 0.200200
228.2 0.200200
229.1 3.303303
230.1 13.013013
231.0 100.000000
232.1 66.966967
233.1 7.807808
234.0 1.401401
235.1 0.100100
239.0 0.100100
240.1 0.700701
241.0 0.200200
242.1 0.300300
243.1 0.400400
244.1 0.700701
245.0 1.101101
246.0 0.200200
256.2 0.500501
257.0 0.200200
257.3 0.100100
258.1 0.100100
261.0 0.300300
262.1 0.100100
268.1 0.700701
269.0 0.100100
271.1 0.100100
272.0 0.500501
273.0 1.001001
274.0 0.400400
278.0 0.400400
279.0 0.100100
281.0 0.100100
288.0 0.300300
289.0 0.500501
290.1 28.028028
291.1 5.005005
292.1 0.700701
300.1 0.200200

>  <PREDICTED SPECTRUM>  (10) 
17 0
27 16
28 11
29 81
39 131
40 48
41 90
43 121
44 58
45 92
50 43
51 127
52 100
53 215
54 37
55 163
56 57
57 108
59 49
62 9
63 94
64 40
65 210
66 99
67 93
69 119
70 8
73 2
74 70
75 45
76 34
77 305
78 123
79 179
80 10
81 83
83 56
84 33
85 14
87 49
88 53
89 98
91 210
92 2
93 68
95 57
97 152
98 107
99 121
101 50
102 109
103 173
104 65
105 255
106 38
107 115
108 9
109 160
110 78
111 50
112 28
114 23
115 299
116 163
117 120
119 11
121 109
122 40
123 11
124 76
125 36
127 19
128 58
129 196
130 152
131 52
132 49
133 186
134 109
135 68
136 51
139 15
141 108
142 28
143 182
144 50
145 100
147 82
148 74
149 58
155 8
157 203
158 183
159 236
160 303
161 316
162 121
163 103
171 51
173 160
174 164
175 282
176 171
185 101
186 61
187 237
188 232
189 239
190 147
191 46
201 40
202 340
203 657
204 325
205 131
212 134
213 206
214 189
215 223
216 16
217 75
218 44
219 0
229 96
230 797
231 999
232 286
233 118
234 17
241 10
243 59
244 59
245 78
246 197
247 105
257 16
258 236
259 48
272 292
273 132
274 105
290 586
291 204
292 85

$$$$

     RDKit          2D

 27 29  0  0  0  0  0  0  0  0999 V2000
    9.0948    3.0010    0.0000 C   0  0  0  0  0  0  0  0  0  0  0  0
   -5.1981    0.7504    0.0000 C   0  0  0  0  0  0  0  0  0  0  0  0
   -5.1981   -0.7504    0.0000 C   0  0  0  0  0  0  0  0  0  0  0  0
    3.8987   -3.0002    0.0000 C   0  0  0  0  0  0  0  0  0  0  0  0
    5.1986    0.7496    0.0000 C   0  0  0  0  0  0  0  0  0  0  0  0
    6.4975    1.4998    0.0000 C   0  0  0  0  0  0  0  0  0  0  0  0
    3.8982    3.0010    0.0000 C   0  0  0  0  0  0  0  0  0  0  0  0
   -1.3000    1.5000    0.0000 C   0  0  0  0  0  0  0  0  0  0  0  0
    3.8989    1.5002    0.0000 C   0  0  0  0  0  0  0  0  0  0  0  0
    5.1971    3.7512    0.0000 C   0  0  0  0  0  0  0  0  0  0  0  0
    6.4968    3.0006    0.0000 C   0  0  0  0  0  0  0  0  0  0  0  0
    0.0000    0.7500    0.0000 C   0  0  0  0  0  0  0  0  0  0  0  0
   -2.6000    0.7500    0.0000 C   0  0  0  0  0  0  0  0  0  0  0  0
    0.0000   -0.7500    0.0000 C   0  0  0  0  0  0  0  0  0  0  0  0
   -1.3000   -1.5000    0.0000 C   0  0  0  0  0  0  0  0  0  0  0  0
    1.3000   -1.5000    0.0000 C   0  0  0  0  0  0  0  0  0  0  0  0
    2.6000    0.7500    0.0000 C   0  0  0  0  0  0  0  0  0  0  0  0
   -2.6000   -0.7500    0.0000 C   0  0  0  0  0  0  0  0  0  0  0  0
    2.6000   -0.7500    0.0000 C   0  0  0  0  0  0  0  0  0  0  0  0
    5.1971    5.2512    0.0000 O   0  0  0  0  0  0  0  0  0  0  0  0
   -1.3000   -3.0000    0.0000 O   0  0  0  0  0  0  0  0  0  0  0  0
    1.3000   -3.0000    0.0000 O   0  0  0  0  0  0  0  0  0  0  0  0
    7.7957    3.7508    0.0000 O   0  0  0  0  0  0  0  0  0  0  0  0
   -3.8989    1.5002    0.0000 O   0  0  0  0  0  0  0  0  0  0  0  0
   -3.8989   -1.5002    0.0000 O   0  0  0  0  0  0  0  0  0  0  0  0
    3.8989   -1.5002    0.0000 O   0  0  0  0  0  0  0  0  0  0  0  0
    1.3000    1.5000    0.0000 O   0  0  0  0  0  0  0  0  0  0  0  0
  6  5  2  0
  9  5  1  0
  9  7  2  0
 10  7  1  0
 11  6  1  0
 11 10  2  0
 12  8  2  0
 13  8  1  0
 14 12  1  0
 15 14  2  0
 16 14  1  0
 17  9  1  0
 18 13  2  0
 18 15  1  0
 19 16  1  0
 19 17  2  0
 20 10  1  0
 21 15  1  0
 22 16  2  0
 23  1  1  0
 23 11  1  0
 24  2  1  0
 24 13  1  0
 25  3  1  0
 25 18  1  0
 26  4  1  0
 26 19  1  0
 27 12  1  0
 27 17  1  0
M  END
>  <NAME>  (11) 
Vitexicarpin

>  <SYNONYMS>  (11) 
3',5-Dihydroxy-3,4',6,7-tetramethoxyflavone
Casticin

>  <SPECTRUM TYPE>  (11) 
MS1

>  <INSTRUMENT TYPE>  (11) 
EI-B

>  <INSTRUMENT>  (11) 
Unknown

>  <ION MODE>  (11) 
P

>  <INCHIKEY>  (11) 
PJQLSMYMOKWUJG-UHFFFAOYSA-N

>  <FORMULA>  (11) 
C19H18O8

>  <EXACT MASS>  (11) 
374.10016753599996

>  <MW>  (11) 
374

>  <ID>  (11) 
TT000113

>  <CONTRIBUTOR>  (11) 
Yasuo Kimura, {Faculty of Agriculture, Tottori University

>  <COMMENT>  (11) 
compound class=Natural Product; Flavonoid
SMILES=COc(c3)c(O)cc(c3)C(O1)=C(OC)C(=O)c(c(O)2)c(cc(OC)c(OC)2)1
chemspider=4474632
pubchem cid=5315263
InChI=InChI=1S/C19H18O8/c1-23-11-6-5-9(7-10(11)20)17-19(26-4)16(22)14-12(27-17)8-13(24-2)18(25-3)15(14)21/h5-8,20-21H,1-4H3
computed SMILES=O=C1C(OC)=C(OC2=CC(OC)=C(OC)C(O)=C12)C=3C=CC(OC)=C(O)C3
accession=TT000113
date=2016.01.19 (Created 2008.10.21, modified 2011.05.06)
author=Kimura Y, Inokuchi T, Faculty of Agriculture, Tottori University
license=CC BY-SA
publication=Yoshioka, T., Inokuchi, T., Fujioka, S., and Kimura, Y. 2004. Phenolic Compounds and Flavonoids as Plant Growth Regulators from Fruit and Leaf of Vitex rotundifolia. Z. Naturforsch. 59c:509-514. doi:10.1515/znc-2004-7-810
comment=[Analytical] Sample was directly injected
exact mass=374.10017
ionization potential=70 eV
computed spectral entropy=4.3059149964589665
computed normalized entropy=0.729490509277103
SPLASH=splash10-05fr-0219000000-b10838d2170a87f5e165
submitter=submitter = Yasuo Kimura (Faculty of Agriculture, Tottori University)
MoNA Rating=3.75

>  <NUM PEAKS>  (11) 
366

>  <MASS SPECTRAL PEAKS>  (11) 
41.0 0.500501
42.0 0.100100
42.9 0.800801
43.9 0.800801
45.0 0.100100
50.1 0.200200
50.9 0.500501
51.9 0.400400
53.0 0.600601
54.0 0.200200
54.9 0.400400
56.0 0.200200
57.0 0.400400
58.9 0.600601
59.9 0.100100
61.9 0.200200
62.8 0.600601
63.8 0.300300
64.9 0.700701
66.0 0.600601
67.0 0.300300
69.1 2.402402
70.0 0.100100
71.0 0.200200
73.0 0.200200
74.1 0.100100
75.0 0.400400
75.9 0.300300
77.0 1.001001
78.0 0.300300
79.0 0.400400
79.9 0.300300
81.0 0.300300
81.9 0.300300
83.0 0.200200
84.1 0.100100
85.0 0.400400
87.0 0.200200
88.0 0.100100
88.9 0.500501
90.0 0.200200
91.0 1.401401
91.9 0.800801
92.9 1.001001
94.0 0.300300
95.0 0.300300
96.1 0.100100
97.1 0.200200
98.0 0.100100
99.0 0.200200
99.9 0.200200
101.0 0.200200
102.0 0.300300
103.0 0.300300
103.9 0.400400
104.9 0.700701
106.0 0.200200
106.9 0.400400
107.9 1.001001
108.5 0.100100
108.9 0.800801
110.0 0.200200
111.0 0.100100
111.9 0.200200
112.5 0.100100
112.9 0.400400
113.5 0.100100
114.0 0.200200
115.0 0.600601
115.5 0.100100
116.0 0.100100
117.0 0.400400
118.0 0.300300
119.0 0.600601
119.9 1.001001
120.4 0.400400
121.0 1.401401
121.5 0.100100
122.0 0.500501
122.5 0.200200
123.0 1.001001
124.0 0.300300
124.9 0.800801
126.0 0.300300
126.5 0.300300
127.0 0.200200
127.4 0.200200
127.9 1.301301
128.4 0.300300
128.9 0.500501
129.4 0.100100
129.9 0.400400
131.0 0.300300
131.9 0.400400
132.9 0.700701
133.4 0.200200
134.0 0.700701
134.5 0.200200
135.1 2.902903
135.5 0.400400
135.9 1.301301
136.4 0.400400
137.0 1.001001
138.1 0.200200
139.0 0.200200
140.1 0.100100
140.5 0.400400
141.0 0.300300
141.5 0.300300
142.1 3.703704
142.5 0.800801
143.0 0.500501
143.4 0.200200
143.9 2.102102
144.4 0.400400
145.0 0.600601
145.9 0.400400
147.0 0.600601
147.9 0.600601
148.5 0.200200
149.0 3.103103
149.5 0.700701
150.0 0.700701
150.5 0.200200
151.0 5.805806
152.1 0.800801
153.0 4.704705
154.0 0.500501
155.0 0.400400
156.0 0.500501
156.5 0.300300
157.0 1.001001
157.6 0.200200
158.0 1.901902
158.6 0.200200
159.0 0.500501
160.1 0.500501
161.0 2.102102
162.0 0.500501
163.1 2.202202
163.5 0.200200
164.0 5.805806
164.6 0.200200
164.9 1.001001
165.5 1.001001
166.0 0.400400
167.0 1.201201
168.0 0.300300
168.5 0.100100
169.0 0.200200
169.5 0.100100
169.9 0.200200
171.0 1.001001
171.5 0.200200
172.0 0.400400
172.5 0.100100
173.0 4.404404
173.5 0.600601
174.1 0.500501
175.0 1.601602
175.9 0.600601
176.5 0.100100
177.0 1.001001
177.9 1.601602
179.0 0.800801
179.5 0.800801
179.9 0.300300
181.0 4.204204
181.9 0.600601
182.9 0.200200
184.0 0.200200
185.0 0.300300
186.0 0.400400
187.0 2.802803
187.4 0.400400
187.9 0.500501
189.0 0.500501
190.0 0.200200
190.9 0.200200
191.9 0.200200
192.9 1.301301
193.9 0.200200
194.9 0.500501
196.0 0.500501
196.9 1.201201
198.0 0.300300
199.0 0.400400
199.9 0.400400
201.0 0.500501
201.8 0.600601
202.9 0.600601
203.9 0.500501
205.0 0.300300
206.0 0.100100
206.9 0.400400
208.0 0.200200
209.1 0.200200
210.1 0.100100
211.0 0.200200
212.0 0.200200
213.0 0.400400
214.0 0.400400
214.9 0.600601
216.0 0.200200
217.0 1.801802
217.9 0.300300
219.0 0.200200
219.9 0.100100
221.0 0.300300
222.1 2.402402
222.9 0.500501
224.0 0.200200
225.0 0.200200
226.0 0.200200
226.9 0.400400
228.0 0.500501
229.0 0.700701
229.9 0.400400
231.0 1.501502
232.0 0.300300
233.0 0.100100
234.0 0.400400
235.0 0.400400
235.9 0.400400
237.0 0.100100
237.9 0.100100
239.0 0.300300
240.0 0.200200
241.0 0.400400
241.9 0.600601
242.9 0.800801
244.0 0.600601
244.9 2.102102
245.9 0.400400
247.0 0.200200
248.1 0.200200
249.1 0.300300
250.1 0.200200
251.1 0.500501
252.0 0.200200
253.0 0.400400
254.0 0.200200
255.0 0.400400
255.9 0.600601
257.0 0.800801
258.0 0.400400
259.0 0.800801
260.0 1.001001
261.1 0.200200
262.0 0.300300
263.1 0.200200
264.0 0.100100
265.0 0.200200
265.9 0.200200
266.9 0.200200
268.0 0.300300
268.9 0.500501
269.9 0.900901
270.8 1.201201
271.8 0.500501
273.0 3.603604
273.9 0.600601
275.0 0.200200
276.1 0.200200
277.1 0.100100
278.0 0.200200
279.1 0.200200
280.1 0.700701
281.0 1.001001
282.0 0.400400
282.9 0.800801
283.9 0.800801
285.0 1.801802
286.0 0.600601
286.9 1.201201
287.9 1.701702
289.0 0.400400
290.1 0.100100
292.0 0.100100
293.1 0.100100
294.0 0.200200
295.1 0.600601
296.0 0.500501
297.0 0.900901
298.1 1.001001
298.9 1.601602
300.0 1.001001
301.1 3.603604
302.0 0.800801
303.0 0.500501
303.9 0.200200
306.1 0.100100
306.8 0.200200
307.8 0.300300
308.9 0.800801
309.9 0.600601
310.8 0.800801
311.9 0.900901
313.0 4.304304
313.9 2.002002
314.8 2.102102
316.0 4.704705
316.9 0.900901
318.2 0.400400
319.0 0.200200
320.2 0.100100
321.0 0.200200
322.0 0.200200
323.0 0.200200
323.9 0.200200
324.9 1.601602
326.1 2.202202
327.1 4.204204
328.0 3.003003
329.0 5.105105
329.9 1.801802
331.0 10.510511
331.9 2.002002
333.1 0.200200
334.0 0.200200
336.0 3.303303
336.8 1.001001
337.9 2.302302
339.2 2.402402
340.0 1.101101
341.1 4.104104
342.0 1.101101
343.1 3.303303
344.1 2.402402
345.0 4.504505
346.1 1.101101
347.1 0.200200
348.2 0.100100
349.9 6.306306
350.9 1.601602
352.0 4.204204
352.9 1.001001
353.8 0.800801
355.2 19.519520
356.0 8.108108
356.9 5.105105
358.0 1.901902
359.0 51.351351
359.9 10.110110
360.9 1.701702
362.1 0.200200
364.1 0.200200
367.9 1.601602
368.8 0.200200
369.8 0.900901
371.0 0.300300
372.0 0.200200
373.1 37.837838
374.0 100.000000
375.2 20.020020
376.2 3.803804
377.0 0.400400
381.9 2.702703
382.9 0.400400
383.9 1.801802
384.9 0.300300
386.0 0.300300
387.1 0.100100
388.1 0.200200
389.2 0.100100
390.1 0.200200

>  <PREDICTED SPECTRUM>  (11) 
15 12
27 13
28 4
29 2
31 23
36 2
38 41
39 42
40 10
41 88
42 53
43 107
44 81
45 100
47 31
49 62
50 104
51 157
52 116
53 217
54 71
55 139
57 137
58 11
59 100
60 39
61 57
62 86
63 197
64 145
65 151
66 140
67 114
68 49
69 268
70 70
71 88
73 22
74 82
75 171
76 194
77 241
78 148
79 158
80 95
81 156
82 107
83 178
84 84
85 69
86 39
87 82
88 107
89 143
90 91
91 160
92 158
93 186
94 134
95 193
96 65
97 80
98 56
99 57
100 51
101 109
102 122
103 110
104 108
105 188
106 173
107 186
108 127
109 123
110 77
111 82
112 34
113 102
114 92
115 173
116 95
117 128
118 77
119 194
120 201
121 176
122 101
123 142
124 96
125 122
126 127
127 146
128 136
129 134
130 80
131 164
132 151
133 196
134 167
135 242
136 149
137 222
138 111
139 164
140 116
141 114
142 129
143 133
144 158
145 154
146 123
147 147
148 112
149 263
150 187
151 230
152 176
153 198
154 112
155 150
156 144
157 173
158 143
159 194
160 171
161 141
162 138
163 135
164 123
165 153
166 110
167 150
168 69
169 129
170 100
171 133
172 132
173 195
174 180
175 185
176 118
177 98
178 122
179 132
180 112
181 287
182 134
183 143
184 55
185 67
186 113
187 155
188 133
189 155
190 69
191 45
192 23
193 52
194 76
195 115
196 98
197 141
198 55
199 93
200 65
201 153
202 147
203 134
204 44
205 42
206 20
207 37
209 49
210 26
211 117
212 74
213 90
214 82
215 111
216 97
217 138
218 90
219 36
220 2
223 15
224 23
225 106
226 78
227 142
228 92
229 135
230 124
231 128
232 61
233 53
234 12
235 18
239 79
240 74
241 141
242 113
243 168
244 90
245 173
246 56
247 32
248 14
251 55
253 133
254 88
255 130
256 115
257 205
258 125
259 112
260 84
261 63
262 72
263 3
265 0
266 7
267 52
268 72
269 154
270 188
271 194
272 121
273 215
274 122
275 60
279 44
280 42
281 119
282 147
283 172
284 148
285 256
286 108
287 196
288 180
289 105
295 89
296 92
297 200
298 224
299 276
300 153
301 203
302 101
303 96
304 2
309 99
310 121
311 165
312 122
313 316
314 189
315 242
316 247
317 115
323 9
325 178
326 148
327 278
328 240
329 285
330 184
331 387
332 147
333 31
339 136
340 137
341 276
342 114
343 241
344 206
345 231
346 102
347 49
355 341
356 258
357 256
358 137
359 838
360 363
361 143
362 63
371 77
372 56
373 743
374 999
375 462
376 182
377 54

$$$$

     RDKit          2D

 28 31  0  0  1  0  0  0  0  0999 V2000
    3.1130    4.9420    0.0000 C   0  0  0  0  0  0  0  0  0  0  0  0
   -1.6800    1.1900    0.0000 C   0  0  0  0  0  0  0  0  0  0  0  0
    2.3787    3.4316    0.0000 C   0  0  0  0  0  0  0  0  0  0  0  0
    9.4486    7.6082    0.0000 C   0  0  0  0  0  0  0  0  0  0  0  0
   -4.2800   -1.8100    0.0000 C   0  0  0  0  0  0  0  0  0  0  0  0
   -4.2800   -0.3100    0.0000 C   0  0  0  0  0  0  0  0  0  0  0  0
   -2.9800   -2.5600    0.0000 C   0  0  0  0  0  0  0  0  0  0  0  0
    5.5829    4.1361    0.0000 C   0  0  0  0  0  0  0  0  0  0  0  0
    4.5300    1.1900    0.0000 C   0  0  0  0  0  0  0  0  0  0  0  0
    3.6500   -0.0200    0.0000 C   0  0  0  0  0  0  0  0  0  0  0  0
    6.0482    5.5621    0.0000 C   0  0  0  0  0  0  0  0  0  0  0  0
   -0.3800    1.9400    0.0000 C   0  0  0  0  0  0  0  0  0  0  0  0
   -2.9800    0.4400    0.0000 C   0  0  0  0  0  0  0  0  0  0  0  0
    0.9200    2.6900    0.0000 C   0  0  0  0  0  0  0  0  0  0  0  0
    0.9200   -1.8100    0.0000 C   0  0  0  0  0  0  0  0  0  0  0  0
    4.1153    3.8260    0.0000 C   0  0  0  0  0  0  0  0  0  0  0  0
    0.9200   -0.3100    0.0000 C   0  0  0  0  0  0  0  0  0  0  0  0
    3.6500    2.4000    0.0000 C   0  0  0  0  0  0  0  0  0  0  0  0
    2.2200    0.4400    0.0000 C   0  0  0  0  0  0  0  0  0  0  0  0
   -0.3800    0.4400    0.0000 C   0  0  0  0  0  0  0  0  0  0  0  0
   -1.6800   -1.8100    0.0000 C   0  0  0  0  0  0  0  0  0  0  0  0
   -0.3800   -2.5600    0.0000 C   0  0  0  0  0  0  0  0  0  0  0  0
    7.5158    5.8722    0.0000 C   0  0  0  0  0  0  0  0  0  0  0  0
   -1.6800   -0.3100    0.0000 C   0  0  0  0  0  0  0  0  0  0  0  0
    2.2200    1.9400    0.0000 C   0  0  0  0  0  0  0  0  0  0  0  0
   -0.3800   -4.0600    0.0000 O   0  0  0  0  0  0  0  0  0  0  0  0
    8.5181    4.7562    0.0000 O   0  0  0  0  0  0  0  0  0  0  0  0
    7.9810    7.2982    0.0000 O   0  0  0  0  0  0  0  0  0  0  0  0
  6  5  1  0
  7  5  1  0
 10  9  1  0
 11  8  1  0
 13  6  1  0
 14 12  1  0
 16  1  1  6
 16  8  1  0
 17 15  1  6
 18  9  1  1
 18 16  1  0
 19 10  1  1
 19 17  1  0
 20 12  1  1
 20 17  1  0
 21  7  1  1
 22 15  1  0
 22 21  1  0
 23 11  1  0
 24  2  1  1
 24 13  1  0
 24 20  1  0
 24 21  1  0
 25  3  1  1
 25 14  1  0
 25 18  1  0
 25 19  1  0
 22 26  1  1
 27 23  2  0
 28  4  1  0
 28 23  1  0
M  END
>  <NAME>  (12) 
6beta-Hydroxy-5alpha-cholan-24-oic acid Methyl ester

>  <SYNONYMS>  (12) 


>  <SPECTRUM TYPE>  (12) 
MS1

>  <INSTRUMENT TYPE>  (12) 
EI-B

>  <INSTRUMENT>  (12) 
JEOL DX-303 mass spectrometer

>  <ION MODE>  (12) 
P

>  <INCHIKEY>  (12) 
MOPCJIIMYLCQCF-UETNCTRESA-N

>  <FORMULA>  (12) 
C25H42O3

>  <EXACT MASS>  (12) 
390.31339520399996

>  <MW>  (12) 
390

>  <ID>  (12) 
NU000059

>  <CONTRIBUTOR>  (12) 
Takashi Iida, {Department of Chemistry, College of Humanities and Sciences, Nihon University

>  <COMMENT>  (12) 
compound class=Natural Product; BILE ACID
SMILES=C(C3(C)4)([H])(CCCC4)C(O)CC(C3([H])2)(C(C1(C)CC2)([H])CCC1([H])C(C)CCC(=O)OC)[H]
lipidbank=BBA0010
InChI=InChI=1S/C25H42O3/c1-16(8-11-23(27)28-4)18-9-10-19-17-15-22(26)21-7-5-6-13-24(21,2)20(17)12-14-25(18,19)3/h16-22,26H,5-15H2,1-4H3/t16-,17+,18-,19+,20+,21-,22-,24-,25-/m1/s1
computed SMILES=O=C(OC)CCC(C)C1CCC2C3CC(O)C4CCCCC4(C)C3CCC12C
accession=NU000059
date=2016.01.19 (Created 2008.11.11, modified 2011.05.06)
author=Takashi Iida, Department of Chemistry, College of Humanities and Sciences, Nihon University. Koichi Metori, Chemical Analytical Center, College of Pharmacy, Nihon Univercity.
license=CC BY-NC-SA
publication=Iida, T., Tamaru, T., Chang, F. C., Niwa, T., Goto, J., and Nambara, T. 1993. Potential bile acid metabolites. 20. A new synthetic route to stereoisomeric 3,6-dihydroxy- and 6-hydroxy-5 alpha-cholanoic acids [PMID: 8212086]. Steroids. 58: 362-369. doi:10.1016/0039-128X(93)90039-P
comment=Mass spectral data were collected from the publications cited in LipidBank
exact mass=390.3134
ionization potential=70 eV
column temperature=215.8 C
ion type=[M]+*
computed spectral entropy=4.252392194768752
computed normalized entropy=0.9012171690107008
SPLASH=splash10-06ea-9743000000-f0693be0475c4843b2a5
submitter=submitter = Takashi Iida (Department of Chemistry, College of Humanities and Sciences, Nihon University)
MoNA Rating=3.75

>  <NUM PEAKS>  (12) 
112

>  <MASS SPECTRAL PEAKS>  (12) 
41 33.824460
42 2.621475
43 15.972458
45 2.236985
53 8.902389
54 3.046229
55 69.799914
56 4.750971
57 7.465221
59 10.223875
65 3.124290
67 34.294940
68 11.089682
69 18.135523
71 2.544823
73 9.594717
74 9.124237
77 9.026088
78 2.136105
79 26.048581
80 5.593871
81 45.591757
82 7.590241
83 15.804442
84 2.008440
85 4.806037
87 5.174404
91 17.870680
92 4.557317
93 28.386446
94 9.179302
95 32.950547
96 8.794812
97 20.915763
98 2.144210
99 2.554251
105 17.765835
106 6.231135
107 22.004652
108 14.443926
109 23.731157
110 4.237408
111 5.944705
115 5.540127
117 3.781641
119 13.946485
120 7.756936
121 16.659413
122 8.118607
123 10.065286
124 6.448930
125 11.095056
131 5.329028
132 2.234253
133 15.030000
134 15.148325
135 17.857288
136 4.348948
137 3.733271
141 2.534075
143 2.036634
145 12.495925
146 6.638444
147 33.676531
148 26.907604
149 14.074149
150 2.396895
151 2.442622
154 12.262007
155 2.353900
159 7.344252
160 5.674487
161 11.566947
162 5.279249
163 6.259328
164 3.304376
165 2.905085
173 6.740645
174 2.290729
175 5.319601
177 3.273451
187 4.199787
188 2.858036
189 3.251954
201 7.176236
202 3.048960
203 7.203108
208 2.704822
215 47.370332
216 34.136351
217 16.205055
218 10.399996
219 2.525969
229 4.080140
230 35.994220
231 11.111180
233 7.024255
248 8.958864
249 4.332825
257 13.701818
258 2.910459
262 3.545079
289 2.226236
325 3.909393
341 7.117030
357 15.315019
358 4.405424
372 100.000000
373 30.486339
374 5.324975
390 2.265178
391 2.076986

>  <PREDICTED SPECTRUM>  (12) 
17 15
18 10
26 13
27 88
28 33
29 147
30 11
31 58
32 18
38 13
39 130
40 92
41 755
42 243
43 541
44 233
45 263
46 1
47 55
48 25
49 2
50 73
51 120
52 73
53 380
54 247
55 998
56 309
57 588
58 140
59 388
60 97
61 14
63 63
64 52
65 242
66 215
67 815
68 462
69 751
70 321
71 389
72 35
73 362
74 278
75 134
76 51
77 497
78 218
79 721
80 339
81 999
82 434
83 614
84 309
85 334
86 68
87 218
88 137
89 5
90 41
91 653
92 318
93 692
94 444
95 847
96 381
97 541
98 234
99 158
100 61
101 217
102 94
103 192
104 150
105 762
106 434
107 863
108 605
109 745
110 359
111 525
112 178
113 88
114 31
115 382
116 274
117 425
118 321
119 645
120 404
121 655
122 531
123 671
124 399
125 380
126 166
127 183
128 193
129 222
130 123
131 451
132 301
133 664
134 480
135 596
136 321
137 342
138 185
139 188
140 174
141 190
142 167
143 311
144 159
145 491
146 310
147 584
148 422
149 576
150 306
151 335
152 225
153 186
154 160
155 184
156 131
157 267
158 229
159 523
160 433
161 630
162 435
163 376
164 198
165 410
166 260
167 156
168 126
169 135
170 37
171 295
172 160
173 372
174 311
175 424
176 393
177 281
178 301
179 243
180 137
181 234
182 55
183 149
184 65
185 165
186 92
187 347
188 208
189 266
190 123
191 204
192 169
193 162
194 29
195 104
196 108
197 108
198 95
199 429
200 260
201 424
202 262
203 396
204 178
205 207
206 89
207 97
208 84
209 69
210 49
211 45
212 78
213 522
214 306
215 762
216 492
217 599
218 388
219 246
220 162
221 214
222 102
223 6
224 20
225 70
226 9
227 128
228 157
229 232
230 181
231 619
232 495
233 576
234 361
235 219
236 138
237 86
239 118
240 33
241 73
242 14
243 167
244 158
245 91
246 338
247 349
248 406
249 323
250 124
251 45
255 112
256 213
257 553
258 169
259 33
260 127
261 339
262 371
263 266
264 278
265 125
266 27
267 51
271 5
272 30
273 104
274 70
275 217
276 135
277 216
278 70
279 24
280 23
281 17
283 65
285 210
286 52
287 21
289 100
290 178
291 146
292 17
293 39
294 102
297 51
298 59
299 109
300 122
301 87
302 56
303 200
304 151
305 75
306 20
307 26
308 14
309 26
311 7
313 91
314 22
315 81
316 108
317 297
318 209
319 82
320 49
321 75
322 46
323 158
324 31
325 166
327 98
330 33
331 76
332 80
333 150
334 17
335 14
339 104
340 147
341 293
342 138
343 271
344 187
345 167
346 127
348 28
353 12
354 69
355 216
356 200
357 591
358 306
359 300
360 181
361 19
370 93
371 139
372 915
373 594
374 308
375 208
376 88
387 101
388 206
389 7
390 534
391 384
392 145

$$$$

     RDKit          2D

 29 32  0  0  1  0  0  0  0  0999 V2000
    3.1899    4.8613    0.0000 C   0  0  0  0  0  0  0  0  0  0  0  0
    2.4540    3.3421    0.0000 C   0  0  0  0  0  0  0  0  0  0  0  0
   -1.6000    1.1000    0.0000 C   0  0  0  0  0  0  0  0  0  0  0  0
    9.5224    7.5352    0.0000 C   0  0  0  0  0  0  0  0  0  0  0  0
    5.6608    4.0584    0.0000 C   0  0  0  0  0  0  0  0  0  0  0  0
    4.6100    1.1000    0.0000 C   0  0  0  0  0  0  0  0  0  0  0  0
    3.7300   -0.1100    0.0000 C   0  0  0  0  0  0  0  0  0  0  0  0
    6.1243    5.4850    0.0000 C   0  0  0  0  0  0  0  0  0  0  0  0
   -4.2000   -0.4000    0.0000 C   0  0  0  0  0  0  0  0  0  0  0  0
   -0.3000    1.8500    0.0000 C   0  0  0  0  0  0  0  0  0  0  0  0
   -2.9000    0.3500    0.0000 C   0  0  0  0  0  0  0  0  0  0  0  0
    1.0000    2.6000    0.0000 C   0  0  0  0  0  0  0  0  0  0  0  0
   -2.9000   -2.6500    0.0000 C   0  0  0  0  0  0  0  0  0  0  0  0
    1.0000   -1.9000    0.0000 C   0  0  0  0  0  0  0  0  0  0  0  0
    4.1936    3.7466    0.0000 C   0  0  0  0  0  0  0  0  0  0  0  0
   -4.2000   -1.9000    0.0000 C   0  0  0  0  0  0  0  0  0  0  0  0
    1.0000   -0.4000    0.0000 C   0  0  0  0  0  0  0  0  0  0  0  0
    3.7300    2.3200    0.0000 C   0  0  0  0  0  0  0  0  0  0  0  0
    2.3000    0.3500    0.0000 C   0  0  0  0  0  0  0  0  0  0  0  0
   -0.3000    0.3500    0.0000 C   0  0  0  0  0  0  0  0  0  0  0  0
   -1.6000   -1.9000    0.0000 C   0  0  0  0  0  0  0  0  0  0  0  0
   -0.3000   -2.6500    0.0000 C   0  0  0  0  0  0  0  0  0  0  0  0
    7.5916    5.7968    0.0000 C   0  0  0  0  0  0  0  0  0  0  0  0
    2.3000    1.8500    0.0000 C   0  0  0  0  0  0  0  0  0  0  0  0
   -1.6000   -0.4000    0.0000 C   0  0  0  0  0  0  0  0  0  0  0  0
   -5.4989   -2.6502    0.0000 O   0  0  0  0  0  0  0  0  0  0  0  0
   -0.3000   -4.1500    0.0000 O   0  0  0  0  0  0  0  0  0  0  0  0
    8.5952    4.6821    0.0000 O   0  0  0  0  0  0  0  0  0  0  0  0
    8.0551    7.2234    0.0000 O   0  0  0  0  0  0  0  0  0  0  0  0
  7  6  1  0
  8  5  1  0
 11  9  1  0
 12 10  1  0
 15  1  1  6
 15  5  1  0
 16  9  1  0
 16 13  1  0
 17 14  1  6
 18  6  1  1
 18 15  1  0
 19  7  1  1
 19 17  1  0
 20 10  1  1
 20 17  1  0
 21 13  1  1
 22 14  1  0
 22 21  1  0
 23  8  1  0
 24  2  1  1
 24 12  1  0
 24 18  1  0
 24 19  1  0
 25  3  1  1
 25 11  1  0
 25 20  1  0
 25 21  1  0
 16 26  1  1
 22 27  1  1
 28 23  2  0
 29  4  1  0
 29 23  1  0
M  END
>  <NAME>  (13) 
3beta,6beta-Dihydroxy-5alpha-cholan-24-oic acid Methyl ester

>  <SYNONYMS>  (13) 


>  <SPECTRUM TYPE>  (13) 
MS1

>  <INSTRUMENT TYPE>  (13) 
EI-B

>  <INSTRUMENT>  (13) 
JEOL DX-303 mass spectrometer

>  <ION MODE>  (13) 
P

>  <INCHIKEY>  (13) 
BWDRDVHYVJQWBO-MGUHFAAZSA-N

>  <FORMULA>  (13) 
C25H42O4

>  <EXACT MASS>  (13) 
406.308309824

>  <MW>  (13) 
406

>  <ID>  (13) 
NU000057

>  <CONTRIBUTOR>  (13) 
Takashi Iida, {Department of Chemistry, College of Humanities and Sciences, Nihon University

>  <COMMENT>  (13) 
compound class=Natural Product; BILE ACID
SMILES=C(C1(C)4)([H])(C(C)CCC(=O)OC)CCC1(C(C3([H])CC4)([H])CC(C(C3(C)2)([H])CC(O)CC2)O)[H]
lipidbank=BBA0031
InChI=InChI=1S/C25H42O4/c1-15(5-8-23(28)29-4)18-6-7-19-17-14-22(27)21-13-16(26)9-11-25(21,3)20(17)10-12-24(18,19)2/h15-22,26-27H,5-14H2,1-4H3/t15-,16+,17+,18-,19+,20+,21-,22-,24-,25-/m1/s1
computed SMILES=O=C(OC)CCC(C)C1CCC2C3CC(O)C4CC(O)CCC4(C)C3CCC12C
accession=NU000057
date=2016.01.19 (Created 2008.11.11, modified 2011.05.06)
author=Takashi Iida, Department of Chemistry, College of Humanities and Sciences, Nihon University. Koichi Metori, Chemical Analytical Center, College of Pharmacy, Nihon Univercity.
license=CC BY-NC-SA
publication=Iida, T., Tamaru, T., Chang, F. C., Niwa, T., Goto, J., and Nambara, T. 1993. Potential bile acid metabolites. 20. A new synthetic route to stereoisomeric 3,6-dihydroxy- and 6-hydroxy-5 alpha-cholanoic acids [PMID: 8212086]. Steroids. 58: 362-369. doi:10.1016/0039-128X(93)90039-P
comment=Mass spectral data were collected from the publications cited in LipidBank
exact mass=406.30831
ionization potential=70 eV
column temperature=297.8 C
ion type=[M]+*
computed spectral entropy=4.69819669905743
computed normalized entropy=0.8892704011207418
SPLASH=splash10-001a-5964000000-51dc9915e560b06be46d
submitter=submitter = Takashi Iida (Department of Chemistry, College of Humanities and Sciences, Nihon University)
MoNA Rating=3.75

>  <NUM PEAKS>  (13) 
197

>  <MASS SPECTRAL PEAKS>  (13) 
17.0000 1.283835
18.0000 6.468193
27.0000 1.038674
28.0000 3.072491
29.0000 4.044370
31.0000 1.004200
39.0000 1.178710
41.0000 11.702454
43.0000 9.358488
44.0000 1.604717
45.0000 1.121223
53.0000 3.093017
55.0000 27.328378
56.0000 1.910897
57.0000 4.724977
59.0000 4.561871
65.0000 1.075104
67.0000 17.091845
68.0000 6.566992
69.0000 11.010144
70.0000 1.260011
71.0000 1.545581
73.0000 6.319296
74.0000 4.115171
77.0000 3.699767
78.0000 1.212494
79.0000 15.105423
81.0000 28.053587
82.0080 5.279048
83.0000 9.867632
84.0000 1.333141
85.0000 4.784299
87.0000 3.833179
88.0000 3.523654
91.0000 10.883795
92.0000 2.918852
93.0000 20.083276
94.0000 9.779743
95.0000 46.629137
96.0000 6.266431
97.0000 6.855525
98.0000 1.273325
99.0000 2.594280
101.0000 1.064920
104.0000 1.342309
105.0000 13.600195
106.0000 7.005279
107.0000 21.527497
108.0000 13.668023
109.0000 22.361482
110.0000 5.018513
111.0000 3.970113
113.0000 1.104098
115.0000 4.975775
117.0000 3.609428
118.0000 3.341309
119.0000 14.365112
120.0000 8.584085
121.0000 14.626700
122.0000 10.256808
123.0000 16.204919
124.0000 7.900646
125.0000 3.841946
127.0000 1.155808
128.0000 1.109959
129.0000 1.886560
130.0000 1.058109
131.0000 8.001560
132.0000 3.898930
133.0000 12.749457
134.0000 9.169508
135.0000 12.195675
136.0000 4.429848
137.0000 4.994876
138.0000 1.728765
139.0000 1.387609
140.0000 1.492231
141.0000 9.792563
142.0000 2.448318
143.0000 6.885228
144.0000 2.320589
145.0000 10.625934
146.0000 9.148824
147.0000 32.569469
148.0000 15.034287
149.0000 8.470146
150.0000 2.920873
151.0000 2.880866
152.0000 1.092312
154.0000 21.770478
155.0000 4.224573
156.0000 1.071619
157.0000 4.669251
158.0000 3.917294
159.0000 9.413729
160.0000 4.163024
161.0000 11.950625
162.0000 3.519471
163.0000 4.752472
164.0000 2.431156
165.0000 2.843346
171.0000 4.293566
172.0000 2.270510
173.0000 7.658279
174.0000 3.114977
175.0000 5.391590
176.0000 3.227258
177.0000 3.648206
178.0000 1.708258
185.0000 3.608505
186.0000 2.479344
187.0000 5.764368
188.0000 2.367222
189.0000 5.110203
190.0000 1.567309
191.0000 1.796808
195.0000 1.370093
197.0000 1.223004
199.0000 5.699912
200.0000 2.175401
201.0000 4.133852
202.0000 2.651208
203.0000 2.735872
204.0000 1.263365
205.0000 1.031760
208.0000 4.138808
209.0000 1.540680
211.0000 1.193794
213.0000 34.904136
214.0000 10.138937
215.0000 10.010314
216.0000 6.215531
217.0000 4.888269
218.0000 1.901076
219.0000 5.381946
220.0000 1.343111
221.0000 1.100567
222.0000 1.027530
227.0000 2.989839
228.0000 22.542011
229.0000 10.317397
230.0000 2.789651
231.0000 25.125641
232.0000 30.095221
233.0000 13.200052
234.0000 8.927356
235.0000 2.066986
241.0000 1.387954
244.0000 1.141358
245.0000 2.265311
246.0000 41.960855
247.0000 11.350732
248.0000 2.789213
249.0000 4.451305
250.0000 2.598128
255.0000 6.137631
256.0000 1.467616
259.0000 1.265108
260.0000 1.252716
261.0000 1.383938
262.0000 5.894454
263.0000 4.031960
264.0000 10.061186
265.0000 3.342250
271.0000 1.139261
273.0000 12.430382
274.0000 3.741070
275.0000 1.411750
289.0000 2.422444
290.0000 1.482551
297.0000 1.015250
303.0000 1.454981
315.0000 2.517786
316.0000 1.149566
323.0000 1.156722
328.0000 1.032990
329.0000 2.056272
330.0000 1.055929
331.0000 1.692438
339.0000 2.810260
341.0000 1.345952
355.0000 8.757784
356.0000 3.273788
357.0000 8.599179
358.0000 2.429870
370.0000 17.342270
371.0000 5.883245
372.0000 1.629678
373.0000 10.932188
374.0000 3.117195
375.0000 1.948938
386.0000 2.377060
388.0000 100.000000
389.0000 30.819823
390.0000 5.272200
404.0000 1.074908
406.0000 1.415188

>  <PREDICTED SPECTRUM>  (13) 
41 663
42 148
43 405
44 215
45 300
46 10
49 64
50 33
51 98
52 16
53 341
54 133
55 999
56 157
57 527
58 118
59 328
60 79
63 31
65 227
66 94
67 713
68 336
69 623
70 168
71 207
72 20
73 263
74 168
75 53
77 469
78 154
79 708
80 214
81 902
82 305
83 497
84 235
85 190
87 130
88 76
90 5
91 615
92 205
93 675
94 324
95 775
96 275
97 317
98 109
99 134
100 26
101 196
102 21
103 165
104 99
105 707
106 340
107 792
108 528
109 624
110 272
111 273
112 86
113 49
114 28
115 396
116 189
117 445
118 252
119 579
120 323
121 624
122 367
123 496
124 281
125 195
126 55
127 125
128 75
129 114
130 84
131 456
132 213
133 606
134 362
135 574
136 172
137 221
138 171
139 163
140 143
141 201
142 112
143 274
144 159
145 515
146 191
147 489
148 233
149 409
150 200
151 264
152 139
153 123
154 87
155 203
156 91
157 282
158 229
159 467
160 305
161 513
162 264
163 255
164 135
165 284
166 114
167 91
168 105
169 50
171 333
172 147
173 368
174 224
175 341
176 231
177 230
178 215
179 150
180 38
181 95
183 96
185 198
186 116
187 326
188 131
189 227
190 93
191 161
192 130
193 118
194 57
195 111
196 32
197 114
198 48
199 302
200 121
201 335
202 127
203 220
204 0
205 81
207 93
208 86
209 87
211 114
212 65
213 542
214 298
215 584
216 286
217 313
218 231
219 220
220 121
221 116
222 74
223 22
225 23
227 43
228 217
229 282
230 155
231 574
232 469
233 411
234 148
235 84
237 39
239 86
240 20
241 30
243 60
246 116
247 182
248 253
249 470
250 282
251 108
254 48
255 243
256 155
257 161
258 3
259 113
260 39
261 155
262 171
263 226
264 252
265 74
266 16
267 135
268 30
271 23
273 628
274 164
275 90
276 16
277 182
281 103
282 0
291 64
292 65
294 114
295 59
297 14
299 44
301 256
302 51
303 19
305 77
306 52
307 44
308 0
313 119
314 13
315 109
316 196
317 123
318 74
319 223
320 85
321 121
323 97
327 28
329 61
330 37
331 113
332 40
333 136
334 87
335 17
336 5
339 107
341 202
342 71
346 7
347 8
348 59
354 8
355 271
356 154
357 277
358 160
359 50
360 32
370 280
371 213
372 100
373 492
374 292
375 83
376 94
386 10
387 75
388 813
389 391
390 198
391 131
392 49
404 115
406 524
407 219
409 2
411 49

$$$$

     RDKit          2D

 30 33  0  0  1  0  0  0  0  0999 V2000
    3.0099    4.6213    0.0000 C   0  0  0  0  0  0  0  0  0  0  0  0
   -1.7700    0.8600    0.0000 C   0  0  0  0  0  0  0  0  0  0  0  0
    2.2765    3.1018    0.0000 C   0  0  0  0  0  0  0  0  0  0  0  0
    9.3424    7.2952    0.0000 C   0  0  0  0  0  0  0  0  0  0  0  0
    5.4808    3.8184    0.0000 C   0  0  0  0  0  0  0  0  0  0  0  0
    4.4300    0.8600    0.0000 C   0  0  0  0  0  0  0  0  0  0  0  0
    3.5500   -0.3500    0.0000 C   0  0  0  0  0  0  0  0  0  0  0  0
    5.9443    5.2450    0.0000 C   0  0  0  0  0  0  0  0  0  0  0  0
   -4.3700   -0.6400    0.0000 C   0  0  0  0  0  0  0  0  0  0  0  0
   -3.0700    0.1100    0.0000 C   0  0  0  0  0  0  0  0  0  0  0  0
   -3.0700   -2.8900    0.0000 C   0  0  0  0  0  0  0  0  0  0  0  0
   -0.4700   -2.8900    0.0000 C   0  0  0  0  0  0  0  0  0  0  0  0
   -0.4700    1.6100    0.0000 C   0  0  0  0  0  0  0  0  0  0  0  0
    4.0136    3.5066    0.0000 C   0  0  0  0  0  0  0  0  0  0  0  0
   -1.7700   -2.1400    0.0000 C   0  0  0  0  0  0  0  0  0  0  0  0
   -4.3700   -2.1400    0.0000 C   0  0  0  0  0  0  0  0  0  0  0  0
    3.5500    2.0800    0.0000 C   0  0  0  0  0  0  0  0  0  0  0  0
    2.1200    0.1100    0.0000 C   0  0  0  0  0  0  0  0  0  0  0  0
   -0.4700    0.1100    0.0000 C   0  0  0  0  0  0  0  0  0  0  0  0
    0.8300   -2.1400    0.0000 C   0  0  0  0  0  0  0  0  0  0  0  0
    0.8300    2.3600    0.0000 C   0  0  0  0  0  0  0  0  0  0  0  0
    7.4116    5.5568    0.0000 C   0  0  0  0  0  0  0  0  0  0  0  0
    0.8300   -0.6400    0.0000 C   0  0  0  0  0  0  0  0  0  0  0  0
   -1.7700   -0.6400    0.0000 C   0  0  0  0  0  0  0  0  0  0  0  0
    2.1200    1.6100    0.0000 C   0  0  0  0  0  0  0  0  0  0  0  0
   -5.6689   -2.8902    0.0000 O   0  0  0  0  0  0  0  0  0  0  0  0
    2.1289   -2.8902    0.0000 O   0  0  0  0  0  0  0  0  0  0  0  0
    0.8325    3.8600    0.0000 O   0  0  0  0  0  0  0  0  0  0  0  0
    8.4152    4.4421    0.0000 O   0  0  0  0  0  0  0  0  0  0  0  0
    7.8751    6.9834    0.0000 O   0  0  0  0  0  0  0  0  0  0  0  0
  7  6  1  0
  8  5  1  0
 10  9  1  0
 14  1  1  6
 14  5  1  0
 15 11  1  6
 15 12  1  0
 16  9  1  0
 16 11  1  0
 17  6  1  1
 17 14  1  0
 18  7  1  1
 19 13  1  1
 20 12  1  0
 21 13  1  0
 22  8  1  0
 23 18  1  0
 23 19  1  0
 23 20  1  6
 24  2  1  1
 24 10  1  0
 24 15  1  0
 24 19  1  0
 25  3  1  1
 25 17  1  0
 25 18  1  0
 25 21  1  0
 16 26  1  1
 20 27  1  1
 21 28  1  1
 29 22  2  0
 30  4  1  0
 30 22  1  0
M  END
>  <NAME>  (14) 
3beta,7beta,12beta-Trihydroxy-5beta-cholan-24-oic acid Methyl ester

>  <SYNONYMS>  (14) 


>  <SPECTRUM TYPE>  (14) 
MS1

>  <INSTRUMENT TYPE>  (14) 
EI-B

>  <INSTRUMENT>  (14) 
JEOL GCmate

>  <ION MODE>  (14) 
P

>  <INCHIKEY>  (14) 
DLYVTEULDNMQAR-AAXWLKRGSA-N

>  <FORMULA>  (14) 
C25H42O5

>  <EXACT MASS>  (14) 
422.30322444399997

>  <MW>  (14) 
422

>  <ID>  (14) 
NU000053

>  <CONTRIBUTOR>  (14) 
Takashi Iida, {Department of Chemistry, College of Humanities and Sciences, Nihon University

>  <COMMENT>  (14) 
compound class=Natural Product; BILE ACID
SMILES=C(C3(C)4)([H])(CC(O)CC4)CC(C(C3([H])2)(C(C1(C)C(O)C2)([H])CCC1([H])C(C)CCC(=O)OC)[H])O
chemspider=10295403
lipidbank=BBA0091
InChI=InChI=1S/C25H42O5/c1-14(5-8-22(29)30-4)17-6-7-18-23-19(13-21(28)25(17,18)3)24(2)10-9-16(26)11-15(24)12-20(23)27/h14-21,23,26-28H,5-13H2,1-4H3/t14-,15+,16+,17-,18+,19+,20+,21-,23+,24+,25-/m1/s1
computed SMILES=O=C(OC)CCC(C)C1CCC2C3C(O)CC4CC(O)CCC4(C)C3CC(O)C12C
ionization potential=70 eV
accession=NU000053
date=2016.01.19 (Created 2008.10.06, modified 2011.05.06)
author=Takashi Iida, Department of Chemistry, College of Humanities and Sciences, Nihon University. Koichi Metori, Chemical Analytical Center, College of Pharmacy, Nihon Univercity.
license=CC BY-NC-SA
publication=Iida, T., Chang, F. C., Matsumoto, T., and Tamura, T. 1982. High Resolution Mass Spectra of Mono-, Di- and Trihydroxy Stereoisomers of Bile Acids. Biomed. Mass Spectrom. 9: 473-476. doi:10.1002/bms.1200091104
comment=Mass spectral data were collected from the publications cited in LipidBank
comment=[Analytical] Sample was directly injected
exact mass=422.30322
source temperature=200 C
ion type=[M]+*
computed spectral entropy=5.030107504109746
computed normalized entropy=0.8687637489102529
SPLASH=splash10-059i-4972000000-135a1bd822081fc490d4
submitter=submitter = Takashi Iida (Department of Chemistry, College of Humanities and Sciences, Nihon University)
MoNA Rating=3.75

>  <NUM PEAKS>  (14) 
327

>  <MASS SPECTRAL PEAKS>  (14) 
51.0 0.3
53.0 3.6
54.0 1.1
55.1 29.8
56.1 2.5
57.1 6.3
58.1 1.7
59.0 4.8
60.1 0.6
65.1 1.6
66.1 1.0
67.1 18.8
68.1 4.7
69.1 12.8
70.1 2.3
71.1 4.5
72.1 0.7
73.1 7.6
74.1 7.7
75.1 0.6
77.1 5.5
78.1 1.5
79.1 18.2
80.1 5.0
81.1 34.8
82.1 5.6
83.1 14.7
84.1 4.9
85.1 4.4
86.1 0.6
87.1 2.3
88.1 0.8
89.1 0.3
91.1 15.9
92.1 4.3
93.1 30.9
94.1 15.0
95.1 29.7
96.1 5.0
97.1 7.8
98.1 2.1
99.1 3.8
100.1 0.7
101.0 1.3
102.1 0.3
103.1 1.2
104.1 1.3
105.1 25.2
106.1 10.2
107.1 30.2
108.1 13.2
109.1 28.6
110.1 6.9
111.1 7.5
112.1 2.4
113.1 1.6
114.1 0.8
115.1 17.4
116.1 10.0
117.1 6.2
118.1 3.7
119.1 19.1
120.1 8.8
121.1 26.4
122.1 9.9
123.1 12.2
124.1 4.4
125.1 4.2
126.1 1.6
126.6 0.4
127.1 1.3
128.1 1.8
129.1 4.1
130.1 2.0
131.1 11.8
132.1 5.1
133.1 20.1
133.6 0.3
134.1 6.6
135.1 15.7
136.1 5.4
137.1 7.2
138.1 2.5
139.1 3.1
140.1 1.0
141.1 4.0
142.1 1.9
143.1 8.8
144.1 4.0
145.1 22.5
146.1 6.6
147.1 22.8
147.6 0.3
148.1 5.6
149.1 10.3
150.1 3.3
151.1 4.2
152.1 1.4
153.1 2.4
154.1 21.6
155.1 6.3
156.1 2.1
157.1 11.9
158.1 3.8
159.1 19.9
160.1 5.2
161.1 11.6
162.1 4.2
163.1 12.8
164.1 5.1
165.1 3.9
166.1 1.2
167.1 1.5
168.1 8.4
169.1 4.0
170.1 1.5
171.1 8.6
172.1 2.7
173.1 9.4
174.1 3.2
175.1 11.0
176.1 2.8
177.1 4.8
178.1 1.9
179.1 1.8
180.1 1.5
181.1 3.0
182.1 1.1
183.1 3.5
184.1 1.3
185.1 6.8
186.1 2.5
187.1 7.4
188.1 3.4
189.1 5.7
190.1 1.5
191.1 2.6
192.1 1.0
193.1 2.2
194.1 5.3
195.1 13.8
196.1 4.3
197.1 5.8
198.1 2.1
199.1 7.4
200.1 2.5
201.1 9.8
202.1 2.4
203.1 3.7
204.1 2.8
205.1 2.5
206.1 2.5
207.1 5.2
208.1 7.4
209.1 3.8
210.1 1.4
211.1 5.8
212.2 1.8
213.1 6.7
214.2 3.3
215.1 6.0
216.1 2.3
217.2 5.5
218.1 2.7
219.2 4.3
220.1 2.6
221.1 2.9
222.2 0.9
223.1 1.4
224.2 0.7
225.1 3.0
226.2 1.8
227.2 5.1
228.2 1.8
229.2 7.3
230.2 2.6
231.2 4.3
232.2 16.1
233.2 5.4
234.2 1.7
235.2 1.5
236.1 0.6
237.2 1.2
238.2 0.7
239.2 2.0
240.2 0.9
241.2 4.1
242.2 1.5
243.2 3.7
244.2 3.9
245.2 4.8
246.2 2.0
247.2 5.3
248.2 2.2
249.2 4.9
250.2 1.8
251.2 2.9
252.2 2.1
253.2 37.2
254.2 8.4
255.2 2.7
256.2 0.9
257.2 2.8
258.2 2.9
259.2 2.4
260.2 2.1
261.2 3.8
262.2 2.6
263.2 2.4
264.2 1.1
265.2 4.2
266.2 2.6
267.2 1.3
268.2 0.6
269.2 8.3
270.2 7.2
271.1 100.0
272.2 28.1
273.2 4.9
274.2 2.0
275.2 1.5
276.2 1.7
277.2 1.2
278.1 0.6
279.2 1.1
280.2 0.4
281.2 2.7
282.2 0.9
283.2 1.3
284.2 0.6
285.2 1.4
286.2 1.7
287.2 7.9
288.2 8.2
289.2 90.1
290.2 21.5
291.2 3.2
292.2 1.2
293.2 0.9
294.2 0.4
295.2 1.3
296.2 0.4
297.2 1.4
298.2 0.6
299.2 7.7
300.2 2.6
301.2 1.3
302.2 0.7
303.2 1.0
304.2 0.5
305.2 0.7
306.2 0.3
307.2 1.8
308.2 0.6
309.2 0.5
310.2 0.5
311.2 0.9
312.2 0.9
313.2 2.2
314.2 1.4
315.2 1.7
316.2 1.5
317.2 1.7
318.2 0.7
319.2 0.5
321.2 1.1
322.2 0.4
323.2 0.6
325.2 1.3
326.2 0.8
327.2 1.6
328.2 1.1
329.2 1.0
330.2 0.6
331.3 2.0
332.3 0.8
333.2 0.4
335.2 0.5
336.3 0.5
337.2 1.3
338.2 0.4
339.2 1.8
340.2 0.6
341.3 0.9
342.2 0.6
343.2 2.1
344.3 1.2
345.2 0.8
346.3 0.3
351.2 0.4
352.2 0.3
353.2 3.4
354.2 1.8
355.2 7.0
356.2 2.1
357.2 6.0
358.2 2.0
359.2 0.9
360.2 1.0
361.2 0.4
362.2 0.5
366.3 0.3
367.2 0.4
368.3 3.5
369.2 1.6
370.3 0.8
371.2 6.3
372.3 2.9
373.3 6.2
374.3 1.9
375.3 1.7
376.3 0.5
384.3 2.0
385.3 1.1
386.3 41.8
387.3 12.4
388.3 2.3
389.3 1.6
390.3 0.5
391.3 0.6
400.2 0.5
402.3 1.5
403.3 0.6
404.3 7.2
405.3 2.4
406.3 0.5
420.3 0.3

>  <PREDICTED SPECTRUM>  (14) 
17 86
18 117
19 25
25 17
26 50
27 124
28 73
29 153
31 74
32 36
36 55
37 36
38 41
39 260
40 104
41 684
42 120
43 452
44 185
45 171
48 15
50 43
51 144
52 92
53 320
54 138
55 664
56 250
57 382
58 102
59 258
60 111
61 81
62 13
63 68
64 75
65 302
66 231
67 536
68 280
69 480
70 209
71 328
72 10
73 157
74 126
75 130
76 45
77 345
78 227
79 492
80 254
81 467
82 229
83 443
84 293
85 313
86 150
87 91
89 75
91 527
92 226
93 605
94 330
95 565
96 279
97 257
98 146
99 191
100 103
101 180
102 91
103 99
104 138
105 603
106 338
107 522
108 440
109 479
110 229
111 316
112 221
113 136
114 59
115 217
116 96
117 484
118 368
119 471
120 328
121 406
122 320
123 163
124 110
125 287
126 233
127 145
128 218
129 247
130 182
131 463
132 204
133 439
134 284
135 303
136 146
137 148
138 168
139 145
140 126
141 222
142 185
143 417
144 231
145 539
146 264
147 320
148 203
149 155
150 102
151 175
152 209
153 92
154 105
155 204
156 228
157 358
158 256
159 469
160 180
161 354
162 182
163 199
164 194
165 200
166 190
167 115
168 99
169 173
170 98
171 267
172 246
173 383
174 302
175 173
176 185
177 119
178 210
179 149
180 175
181 213
182 170
183 140
184 86
185 236
186 195
187 257
188 195
189 316
190 256
191 185
192 197
193 208
194 166
195 185
196 215
197 308
198 205
199 432
200 349
201 373
202 239
203 214
204 231
205 264
206 142
207 179
208 190
209 154
210 176
211 422
212 176
213 454
214 278
215 317
216 219
217 212
218 204
219 227
220 139
221 109
222 93
223 87
224 101
225 299
226 336
227 345
228 194
229 378
230 181
231 265
232 218
233 280
234 178
235 79
236 38
237 145
238 170
239 141
240 71
241 191
242 260
243 242
244 205
245 171
246 188
247 214
248 186
249 162
250 199
251 163
252 222
253 999
254 563
255 328
256 224
257 101
258 191
259 209
260 162
261 140
262 175
263 107
264 233
265 194
266 142
267 86
269 245
270 151
271 974
272 481
273 293
274 144
275 120
276 111
277 31
279 132
280 93
281 152
282 27
283 111
284 107
285 61
286 82
287 17
288 76
289 271
290 186
291 158
292 143
293 92
295 77
296 26
297 81
298 169
299 219
300 152
301 57
302 105
303 9
304 110
305 59
306 22
307 64
308 61
309 40
310 56
311 178
312 111
313 180
314 280
315 103
316 165
317 88
318 15
325 0
326 46
327 27
328 34
329 69
331 34
332 116
333 27
334 18
335 51
336 67
337 147
338 47
339 167
340 95
341 155
343 83
344 120
345 8
346 20
347 56
350 55
352 79
353 362
354 371
355 452
356 172
357 302
358 143
359 51
360 48
364 22
367 104
368 461
369 371
370 403
371 387
372 376
373 237
374 122
375 51
380 29
385 107
386 897
387 368
388 272
389 154
390 139
391 34
402 122
403 95
404 165
405 172
406 145
407 50
418 10

$$$$

     RDKit          2D

 29 32  0  0  1  0  0  0  0  0999 V2000
    3.1130    4.9420    0.0000 C   0  0  0  0  0  0  0  0  0  0  0  0
   -1.6800    1.1900    0.0000 C   0  0  0  0  0  0  0  0  0  0  0  0
    2.3787    3.4316    0.0000 C   0  0  0  0  0  0  0  0  0  0  0  0
    9.4486    7.6082    0.0000 C   0  0  0  0  0  0  0  0  0  0  0  0
   -4.2800   -1.8100    0.0000 C   0  0  0  0  0  0  0  0  0  0  0  0
   -4.2800   -0.3100    0.0000 C   0  0  0  0  0  0  0  0  0  0  0  0
   -2.9800   -2.5600    0.0000 C   0  0  0  0  0  0  0  0  0  0  0  0
    5.5829    4.1361    0.0000 C   0  0  0  0  0  0  0  0  0  0  0  0
    4.5300    1.1900    0.0000 C   0  0  0  0  0  0  0  0  0  0  0  0
    3.6500   -0.0200    0.0000 C   0  0  0  0  0  0  0  0  0  0  0  0
    6.0482    5.5621    0.0000 C   0  0  0  0  0  0  0  0  0  0  0  0
   -2.9800    0.4400    0.0000 C   0  0  0  0  0  0  0  0  0  0  0  0
   -0.3800   -2.5600    0.0000 C   0  0  0  0  0  0  0  0  0  0  0  0
   -0.3800    1.9400    0.0000 C   0  0  0  0  0  0  0  0  0  0  0  0
    4.1153    3.8260    0.0000 C   0  0  0  0  0  0  0  0  0  0  0  0
   -1.6800   -1.8100    0.0000 C   0  0  0  0  0  0  0  0  0  0  0  0
    3.6500    2.4000    0.0000 C   0  0  0  0  0  0  0  0  0  0  0  0
    2.2200    0.4400    0.0000 C   0  0  0  0  0  0  0  0  0  0  0  0
   -0.3800    0.4400    0.0000 C   0  0  0  0  0  0  0  0  0  0  0  0
    0.9200   -1.8100    0.0000 C   0  0  0  0  0  0  0  0  0  0  0  0
    0.9200    2.6900    0.0000 C   0  0  0  0  0  0  0  0  0  0  0  0
    7.5158    5.8722    0.0000 C   0  0  0  0  0  0  0  0  0  0  0  0
    0.9200   -0.3100    0.0000 C   0  0  0  0  0  0  0  0  0  0  0  0
   -1.6800   -0.3100    0.0000 C   0  0  0  0  0  0  0  0  0  0  0  0
    2.2200    1.9400    0.0000 C   0  0  0  0  0  0  0  0  0  0  0  0
    2.2189   -2.5602    0.0000 O   0  0  0  0  0  0  0  0  0  0  0  0
    0.9200    4.1900    0.0000 O   0  0  0  0  0  0  0  0  0  0  0  0
    8.5181    4.7562    0.0000 O   0  0  0  0  0  0  0  0  0  0  0  0
    7.9810    7.2982    0.0000 O   0  0  0  0  0  0  0  0  0  0  0  0
  6  5  1  0
  7  5  1  0
 10  9  1  0
 11  8  1  0
 12  6  1  0
 15  1  1  6
 15  8  1  0
 16  7  1  6
 16 13  1  0
 17  9  1  1
 17 15  1  0
 18 10  1  1
 19 14  1  1
 20 13  1  0
 21 14  1  0
 22 11  1  0
 23 18  1  0
 23 19  1  0
 23 20  1  6
 24  2  1  1
 24 12  1  0
 24 16  1  0
 24 19  1  0
 25  3  1  1
 25 17  1  0
 25 18  1  0
 25 21  1  0
 20 26  1  1
 21 27  1  1
 28 22  2  0
 29  4  1  0
 29 22  1  0
M  END
>  <NAME>  (15) 
7beta,12beta-Dihydroxy-5beta-cholan-24-oic acid Methyl ester

>  <SYNONYMS>  (15) 


>  <SPECTRUM TYPE>  (15) 
MS1

>  <INSTRUMENT TYPE>  (15) 
EI-B

>  <INSTRUMENT>  (15) 
JEOL GCmate

>  <ION MODE>  (15) 
P

>  <INCHIKEY>  (15) 
XPMSMFOWYBQWHS-KQLZVSNCSA-N

>  <FORMULA>  (15) 
C25H42O4

>  <EXACT MASS>  (15) 
406.308309824

>  <MW>  (15) 
406

>  <ID>  (15) 
NU000045

>  <CONTRIBUTOR>  (15) 
Takashi Iida, {Department of Chemistry, College of Humanities and Sciences, Nihon University

>  <COMMENT>  (15) 
compound class=Natural Product; BILE ACID
SMILES=C(C1(C)4)([H])(C(C)CCC(=O)OC)CCC1(C(C3([H])CC4O)([H])C(O)CC(C3(C)2)([H])CCCC2)[H]
chemspider=10295397
lipidbank=BBA0052
InChI=InChI=1S/C25H42O4/c1-15(8-11-22(28)29-4)17-9-10-18-23-19(14-21(27)25(17,18)3)24(2)12-6-5-7-16(24)13-20(23)26/h15-21,23,26-27H,5-14H2,1-4H3/t15-,16+,17-,18+,19+,20+,21-,23+,24+,25-/m1/s1
computed SMILES=O=C(OC)CCC(C)C1CCC2C3C(O)CC4CCCCC4(C)C3CC(O)C12C
accession=NU000045
date=2016.01.19 (Created 2008.09.25, modified 2011.05.06)
author=Takashi Iida, Department of Chemistry, College of Humanities and Sciences, Nihon University. Koichi Metori, Chemical Analytical Center, College of Pharmacy, Nihon Univercity.
license=CC BY-NC-SA
publication=Iida, T., Chang, F. C., Matsumoto, T., and Tamura, T. 1982. High Resolution Mass Spectra of Mono-, Di- and Trihydroxy Stereoisomers of Bile Acids. Biomed. Mass Spectrom. 9: 473-476. doi:10.1002/bms.1200091104
comment=Mass spectral data were collected from the publications cited in LipidBank
comment=[Analytical] Sample was directly injected
exact mass=406.30831
ionization potential=70 eV
source temperature=200 C
ion type=[M]+*
computed spectral entropy=4.866482142151462
computed normalized entropy=0.8275580042498989
SPLASH=splash10-0ab9-4972000000-88884e3882fe1ba10b63
submitter=submitter = Takashi Iida (Department of Chemistry, College of Humanities and Sciences, Nihon University)
MoNA Rating=3.75

>  <NUM PEAKS>  (15) 
358

>  <MASS SPECTRAL PEAKS>  (15) 
50.0 0.1
51.0 0.3
52.0 0.2
53.0 3.4
54.1 1.2
55.1 31.2
56.1 2.4
57.1 5.3
58.1 1.9
59.0 4.3
60.0 0.4
61.1 0.2
63.1 0.1
64.1 0.1
65.1 1.4
66.1 1.0
67.1 21.0
68.1 4.4
69.1 14.8
70.1 2.1
71.1 3.9
72.1 0.5
73.1 6.6
74.1 7.4
75.1 0.6
76.1 0.1
77.1 4.4
78.1 1.2
79.1 14.5
80.1 4.2
81.1 36.6
82.1 5.1
83.1 15.6
83.6 0.1
84.1 4.6
85.1 3.4
86.1 0.5
87.1 2.1
88.1 0.6
89.0 0.2
90.0 0.2
91.1 12.1
92.1 3.5
92.6 0.1
93.1 22.5
93.6 0.1
94.1 8.9
94.6 0.1
95.1 36.0
96.1 9.1
97.1 7.9
98.1 1.7
99.1 2.9
99.6 0.1
100.1 0.6
100.6 0.1
101.1 1.0
102.1 0.3
103.0 0.8
104.1 1.1
104.6 0.1
105.1 25.2
106.1 9.7
106.6 0.2
107.1 22.5
107.6 0.2
108.1 9.5
108.6 0.1
109.1 29.7
110.1 7.2
111.1 5.8
112.1 1.3
113.1 1.7
113.6 0.2
114.1 0.7
114.6 0.1
115.1 14.9
115.6 0.1
116.1 9.1
117.1 4.5
118.1 2.7
119.1 17.7
119.6 0.2
120.1 8.1
120.6 0.2
121.1 26.8
121.6 0.1
122.1 8.9
122.6 0.1
123.1 12.3
123.6 0.1
124.1 3.2
125.1 3.1
126.1 0.6
127.1 1.2
127.6 0.2
128.1 1.2
129.1 2.5
129.6 0.1
130.1 1.2
130.6 0.1
131.1 7.6
132.1 4.1
133.1 15.8
134.1 5.7
134.6 0.2
135.1 17.9
136.1 5.6
136.6 0.2
137.1 8.5
137.6 0.1
138.1 2.7
139.1 3.4
140.1 0.7
141.1 3.0
142.1 1.2
143.1 3.3
143.6 0.1
144.1 2.1
144.6 0.1
145.1 14.8
146.1 4.5
147.1 21.4
148.1 6.1
148.6 0.2
149.1 19.0
150.1 4.8
150.6 0.1
151.1 3.7
152.1 1.2
153.1 2.0
154.1 15.9
155.1 3.8
156.1 1.0
157.1 3.4
157.6 0.1
158.1 1.5
159.1 22.5
160.1 4.7
161.1 9.8
162.1 3.5
163.1 9.2
164.1 5.0
164.6 0.1
165.1 7.3
166.1 1.4
167.1 1.2
168.1 6.8
169.1 1.9
170.1 0.6
171.1 3.2
172.1 1.0
173.1 9.1
174.1 2.6
175.1 11.0
176.1 2.8
177.1 3.9
178.1 1.5
179.1 3.6
180.1 1.0
181.1 1.1
182.1 0.4
183.1 1.0
184.1 0.4
185.1 3.6
186.1 1.2
187.1 6.8
188.1 6.1
189.1 6.6
190.1 1.6
191.1 3.4
192.1 1.1
193.1 2.4
194.1 4.5
195.1 9.2
196.1 3.1
197.1 1.4
198.1 0.5
199.1 5.5
200.1 2.3
201.1 8.4
202.1 4.1
203.2 10.3
204.1 2.3
205.1 2.3
206.1 2.1
207.1 3.0
208.1 6.3
209.1 2.2
210.1 0.7
211.1 1.2
212.1 0.4
213.1 5.7
214.2 2.1
215.2 6.8
216.2 18.5
217.2 8.2
218.2 2.2
219.1 2.0
220.1 2.4
221.1 1.9
222.1 0.8
223.1 0.8
224.2 0.4
225.2 0.9
226.1 0.4
227.2 3.5
228.2 4.7
229.2 8.5
230.2 2.8
231.2 6.2
232.1 2.4
233.2 4.9
234.2 2.4
235.2 1.4
236.2 0.8
237.1 0.6
238.1 0.2
239.1 0.8
240.2 0.4
241.2 3.2
242.2 3.1
243.2 2.9
244.2 0.8
245.2 2.1
246.2 2.5
247.2 2.4
248.2 1.1
249.2 5.5
250.2 3.3
251.2 1.2
252.2 0.3
253.2 1.3
254.2 6.2
255.1 100.0
256.2 30.6
257.2 4.8
258.2 0.9
259.2 1.5
260.2 2.9
261.2 3.2
262.2 0.9
263.2 2.2
264.2 0.9
265.2 0.6
266.2 0.2
267.2 0.4
268.2 0.2
269.2 0.6
270.2 0.4
271.2 2.6
272.2 6.7
273.2 90.3
274.2 23.3
275.2 3.7
276.2 0.6
277.1 0.8
278.2 0.5
279.2 0.4
280.2 0.2
281.2 0.8
282.2 0.3
283.2 8.8
284.2 2.6
285.2 0.9
286.2 0.3
287.2 0.5
288.2 0.3
289.2 0.5
290.2 0.3
291.2 1.1
292.2 1.2
293.2 0.4
294.2 0.2
295.2 0.6
296.2 0.6
297.2 1.8
298.2 0.5
299.2 0.6
300.2 0.5
301.2 1.7
302.2 0.6
303.2 0.5
304.2 0.2
305.2 0.4
306.2 0.2
307.2 0.1
309.2 0.6
310.2 0.4
311.2 0.3
312.2 0.2
313.2 0.8
314.2 0.7
315.2 2.1
316.2 0.7
317.2 1.9
318.2 0.6
319.2 0.4
320.2 0.2
321.2 0.4
322.2 0.1
323.2 1.8
324.2 0.5
325.2 0.4
326.2 0.2
327.2 1.2
328.2 1.1
329.2 0.7
330.2 0.3
331.2 0.4
332.2 0.2
333.2 0.2
337.2 0.4
338.3 0.6
339.2 1.4
340.2 0.4
341.2 1.6
342.2 0.6
343.2 0.9
344.2 2.7
345.2 1.9
346.2 0.9
347.2 0.2
348.1 0.3
351.1 0.1
353.2 0.2
354.2 0.3
355.2 8.9
356.2 3.6
357.2 12.7
358.3 3.8
359.2 6.4
360.2 1.9
361.3 0.4
362.2 0.1
366.2 0.1
367.2 0.1
368.2 0.3
369.2 0.7
370.2 42.2
371.3 12.5
372.2 2.3
373.3 2.1
374.2 0.6
375.3 0.8
376.3 0.2
384.2 0.4
385.2 0.2
386.2 2.6
387.2 0.8
388.3 8.1
389.3 2.4
390.3 0.5
391.3 0.1
402.2 0.1
404.2 0.5
405.2 0.2
406.2 0.2

>  <PREDICTED SPECTRUM>  (15) 
39 19
40 6
41 175
43 117
53 8
55 131
59 131
66 7
67 232
69 134
70 32
71 2
73 135
74 25
77 70
79 125
81 16
83 88
84 39
85 55
86 41
88 28
91 193
92 133
93 436
95 257
103 12
105 167
106 268
107 43
108 50
109 315
110 45
111 217
112 80
113 25
115 99
116 11
117 183
118 144
119 355
120 202
121 56
122 60
123 45
125 99
129 171
130 35
131 61
132 43
133 16
135 162
136 162
137 148
138 52
139 125
140 177
141 138
142 181
143 175
144 134
145 219
146 56
147 212
148 151
149 148
150 224
151 122
154 292
155 206
156 43
157 286
158 244
159 330
160 19
161 270
162 134
163 192
164 283
165 283
166 97
167 152
168 36
169 183
170 176
171 187
172 104
173 193
174 118
175 106
176 87
177 16
178 147
179 55
180 77
181 127
182 13
183 159
185 51
186 35
187 141
188 24
189 281
190 125
191 76
192 146
193 57
194 96
195 210
196 148
197 84
198 81
199 245
200 162
201 167
202 37
203 252
204 124
205 195
206 162
207 259
208 216
209 87
210 25
211 178
213 307
214 36
215 68
216 0
217 123
218 78
219 141
220 156
221 105
222 79
225 52
226 60
227 357
228 405
229 138
230 130
231 233
232 55
233 191
234 56
235 85
238 119
241 192
242 81
243 41
244 16
245 72
248 4
250 102
251 26
253 324
254 354
255 999
256 401
257 236
259 17
261 119
262 217
263 10
264 267
265 6
272 49
273 272
274 232
275 222
276 57
277 14
281 36
283 382
284 90
297 28
298 168
311 174
313 33
315 71
316 94
328 9
337 0
339 218
341 64
352 59
353 286
354 381
355 734
356 458
357 363
358 121
362 121
369 358
370 716
371 524
372 378
373 290
374 148
375 33
387 392
388 713
389 3
390 104
402 16
404 79
405 159
406 4

$$$$

     RDKit          2D

 28 31  0  0  1  0  0  0  0  0999 V2000
    3.1130    4.9420    0.0000 C   0  0  0  0  0  0  0  0  0  0  0  0
   -1.6800    1.1900    0.0000 C   0  0  0  0  0  0  0  0  0  0  0  0
    2.3787    3.4316    0.0000 C   0  0  0  0  0  0  0  0  0  0  0  0
    9.4486    7.6082    0.0000 C   0  0  0  0  0  0  0  0  0  0  0  0
   -4.2800   -1.8100    0.0000 C   0  0  0  0  0  0  0  0  0  0  0  0
   -4.2800   -0.3100    0.0000 C   0  0  0  0  0  0  0  0  0  0  0  0
   -2.9800   -2.5600    0.0000 C   0  0  0  0  0  0  0  0  0  0  0  0
    5.5829    4.1361    0.0000 C   0  0  0  0  0  0  0  0  0  0  0  0
    4.5300    1.1900    0.0000 C   0  0  0  0  0  0  0  0  0  0  0  0
    3.6500   -0.0200    0.0000 C   0  0  0  0  0  0  0  0  0  0  0  0
    6.0482    5.5621    0.0000 C   0  0  0  0  0  0  0  0  0  0  0  0
   -0.3800    1.9400    0.0000 C   0  0  0  0  0  0  0  0  0  0  0  0
   -2.9800    0.4400    0.0000 C   0  0  0  0  0  0  0  0  0  0  0  0
    0.9200    2.6900    0.0000 C   0  0  0  0  0  0  0  0  0  0  0  0
   -0.3800   -2.5600    0.0000 C   0  0  0  0  0  0  0  0  0  0  0  0
    4.1153    3.8260    0.0000 C   0  0  0  0  0  0  0  0  0  0  0  0
   -1.6800   -1.8100    0.0000 C   0  0  0  0  0  0  0  0  0  0  0  0
    3.6500    2.4000    0.0000 C   0  0  0  0  0  0  0  0  0  0  0  0
    2.2200    0.4400    0.0000 C   0  0  0  0  0  0  0  0  0  0  0  0
   -0.3800    0.4400    0.0000 C   0  0  0  0  0  0  0  0  0  0  0  0
    0.9200   -1.8100    0.0000 C   0  0  0  0  0  0  0  0  0  0  0  0
    7.5158    5.8722    0.0000 C   0  0  0  0  0  0  0  0  0  0  0  0
    0.9200   -0.3100    0.0000 C   0  0  0  0  0  0  0  0  0  0  0  0
   -1.6800   -0.3100    0.0000 C   0  0  0  0  0  0  0  0  0  0  0  0
    2.2200    1.9400    0.0000 C   0  0  0  0  0  0  0  0  0  0  0  0
    2.2189   -2.5602    0.0000 O   0  0  0  0  0  0  0  0  0  0  0  0
    8.5181    4.7562    0.0000 O   0  0  0  0  0  0  0  0  0  0  0  0
    7.9810    7.2982    0.0000 O   0  0  0  0  0  0  0  0  0  0  0  0
  6  5  1  0
  7  5  1  0
 10  9  1  0
 11  8  1  0
 13  6  1  0
 14 12  1  0
 16  1  1  6
 16  8  1  0
 17  7  1  6
 17 15  1  0
 18  9  1  1
 18 16  1  0
 19 10  1  1
 20 12  1  1
 21 15  1  0
 22 11  1  0
 23 19  1  0
 23 20  1  0
 23 21  1  6
 24  2  1  1
 24 13  1  0
 24 17  1  0
 24 20  1  0
 25  3  1  1
 25 14  1  0
 25 18  1  0
 25 19  1  0
 21 26  1  1
 27 22  2  0
 28  4  1  0
 28 22  1  0
M  END
>  <NAME>  (16) 
7beta-Hydroxy-5beta-cholan-24-oic acid Methyl ester

>  <SYNONYMS>  (16) 


>  <SPECTRUM TYPE>  (16) 
MS1

>  <INSTRUMENT TYPE>  (16) 
EI-B

>  <INSTRUMENT>  (16) 
JEOL GCmate

>  <ION MODE>  (16) 
P

>  <INCHIKEY>  (16) 
SLMFZEZJHJUPDN-VKFOQVEHSA-N

>  <FORMULA>  (16) 
C25H42O3

>  <EXACT MASS>  (16) 
390.313395204

>  <MW>  (16) 
390

>  <ID>  (16) 
NU000041

>  <CONTRIBUTOR>  (16) 
Takashi Iida, {Department of Chemistry, College of Humanities and Sciences, Nihon University

>  <COMMENT>  (16) 
compound class=Natural Product; BILE ACID
SMILES=C(C1(C)4)([H])(C(C)CCC(=O)OC)CCC1(C(C3([H])CC4)([H])C(O)CC(C3(C)2)([H])CCCC2)[H]
chemspider=10295383
lipidbank=BBA0012
InChI=InChI=1S/C25H42O3/c1-16(8-11-22(27)28-4)18-9-10-19-23-20(12-14-25(18,19)3)24(2)13-6-5-7-17(24)15-21(23)26/h16-21,23,26H,5-15H2,1-4H3/t16-,17+,18-,19+,20+,21+,23+,24+,25-/m1/s1
computed SMILES=O=C(OC)CCC(C)C1CCC2C3C(O)CC4CCCCC4(C)C3CCC12C
accession=NU000041
date=2016.01.19 (Created 2008.09.25, modified 2011.05.06)
author=Takashi Iida, Department of Chemistry, College of Humanities and Sciences, Nihon University. Koichi Metori, Chemical Analytical Center, College of Pharmacy, Nihon Univercity.
license=CC BY-NC-SA
publication=Iida, T., Chang, F. C., Matsumoto, T., and Tamura, T. 1982. High Resolution Mass Spectra of Mono-, Di- and Trihydroxy Stereoisomers of Bile Acids. Biomed. Mass Spectrom. 9: 473-476. doi:10.1002/bms.1200091104
comment=Mass spectral data were collected from the publications cited in LipidBank
comment=[Analytical] Sample was directly injected
exact mass=390.3134
ionization potential=70 eV
source temperature=200 C
ion type=[M]+*
computed spectral entropy=4.660509128327068
computed normalized entropy=0.9171695054308708
SPLASH=splash10-0avj-5952000000-01f8237316d2426a31a7
submitter=submitter = Takashi Iida (Department of Chemistry, College of Humanities and Sciences, Nihon University)
MoNA Rating=3.75

>  <NUM PEAKS>  (16) 
161

>  <MASS SPECTRAL PEAKS>  (16) 
53.0 4.8
55.1 44.7
56.1 3.1
57.1 7.3
58.1 2.3
59.0 6.1
65.1 2.3
67.1 32.2
68.1 7.8
69.1 21.4
70.1 6.4
71.1 3.8
73.1 8.6
74.1 6.5
77.1 6.4
79.1 22.6
80.1 7.5
81.1 50.4
82.1 8.6
83.1 18.9
84.1 3.6
85.1 5.7
87.1 6.6
91.0 18.1
92.0 5.3
93.1 31.8
94.1 19.3
95.1 56.4
96.1 13.8
97.1 10.4
98.1 2.6
99.1 3.3
101.1 2.5
105.1 25.6
106.1 15.8
107.1 29.2
108.1 21.8
109.1 36.7
110.1 16.1
111.1 9.9
112.1 2.5
113.1 2.7
115.1 8.8
116.1 2.4
117.1 4.1
118.1 2.7
119.1 23.5
120.1 19.5
121.1 31.4
122.1 14.7
123.1 17.2
124.1 7.3
125.1 11.9
129.1 2.6
131.1 7.0
132.1 4.3
133.1 22.4
134.1 16.5
135.1 28.6
136.1 8.8
137.1 9.1
138.1 37.0
139.1 18.7
140.1 2.4
141.1 6.5
142.1 2.0
143.1 3.3
145.1 10.8
146.1 4.4
147.1 25.2
148.1 22.3
149.1 19.4
150.1 4.9
151.1 3.9
152.1 17.0
153.1 6.7
154.1 11.2
155.1 2.9
157.1 2.3
159.1 9.3
160.1 6.1
161.1 24.5
162.1 17.6
163.1 13.6
164.1 3.1
165.1 10.9
166.1 3.1
173.1 6.3
174.1 2.7
175.1 11.6
176.1 5.7
177.1 4.9
178.1 17.0
179.1 4.0
187.1 6.2
188.1 2.8
189.2 9.6
190.2 2.8
191.1 9.9
192.1 2.2
195.1 4.4
197.1 4.7
198.1 2.2
199.1 4.0
201.1 9.3
202.2 6.0
203.2 11.2
204.2 6.1
205.1 4.3
206.1 2.8
208.1 20.7
209.1 5.3
210.1 2.2
213.1 2.9
215.2 30.6
216.2 22.9
217.2 44.0
218.2 12.4
219.2 3.9
220.2 2.8
221.1 2.7
222.1 2.5
229.2 7.1
230.2 23.7
231.2 10.4
232.2 2.5
233.2 11.2
234.2 21.7
235.2 5.0
243.2 9.3
244.2 4.9
247.1 2.9
248.2 32.4
249.2 20.5
250.2 17.3
251.2 3.5
255.2 2.2
256.2 2.8
257.2 50.7
258.2 11.0
261.2 2.5
262.2 12.8
263.2 5.2
264.2 2.7
275.2 5.3
276.2 12.9
277.2 3.7
299.2 2.5
315.2 2.3
323.2 4.0
325.2 2.3
341.3 10.3
342.2 2.8
357.2 31.9
358.2 9.3
359.2 2.8
372.3 100.0
373.3 30.4
374.3 5.2
390.3 16.1
391.3 4.6

>  <PREDICTED SPECTRUM>  (16) 
27 1
29 94
31 24
39 103
40 48
41 730
42 145
43 635
44 106
45 187
51 45
53 280
54 113
55 999
56 246
57 568
58 152
59 361
60 78
65 127
66 84
67 749
68 317
69 697
70 208
71 258
72 0
73 271
74 209
75 5
77 411
78 120
79 590
80 198
81 863
82 269
83 531
84 241
85 277
87 157
88 63
91 547
92 219
93 714
94 363
95 768
96 254
97 436
98 146
99 117
101 32
103 73
104 44
105 700
106 412
107 752
108 442
109 692
110 218
111 366
112 82
113 25
115 286
116 94
117 251
118 155
119 556
120 340
121 643
122 445
123 437
124 237
125 245
126 115
127 97
128 47
129 76
130 19
131 377
132 204
133 490
134 333
135 453
136 232
137 315
138 144
139 125
140 67
141 92
142 67
143 130
144 73
145 419
146 205
147 553
148 416
149 408
150 162
151 201
152 146
153 78
154 59
155 95
156 50
157 178
158 105
159 444
160 283
161 467
162 231
163 189
164 34
165 177
166 105
167 92
168 18
169 49
171 270
172 81
173 278
174 146
175 276
176 218
177 76
178 171
179 41
181 61
183 107
185 72
187 190
188 71
189 214
190 109
191 202
192 53
193 12
194 1
195 40
197 34
199 307
200 111
201 289
202 118
203 183
204 62
205 31
206 34
213 441
214 159
215 456
216 207
217 336
218 217
219 82
220 38
221 3
228 148
229 295
230 139
231 347
232 191
233 243
234 145
235 92
236 49
241 77
242 33
243 175
244 141
246 194
247 147
248 198
249 280
250 97
251 4
255 477
256 269
257 395
258 191
259 121
260 163
261 172
262 134
263 103
264 165
265 98
267 32
274 24
275 133
276 41
277 116
278 11
285 62
288 33
313 6
314 5
315 37
317 88
318 81
323 59
339 179
340 158
341 261
342 77
343 78
354 107
355 336
356 220
357 551
358 210
359 135
360 57
370 395
371 73
372 489
373 552
374 270
375 0
387 101
388 174
390 445
391 189
392 60

$$$$

     RDKit          2D

 29 32  0  0  1  0  0  0  0  0999 V2000
    3.0730    4.7920    0.0000 C   0  0  0  0  0  0  0  0  0  0  0  0
   -1.7200    1.0400    0.0000 C   0  0  0  0  0  0  0  0  0  0  0  0
    2.3387    3.2816    0.0000 C   0  0  0  0  0  0  0  0  0  0  0  0
    9.4086    7.4582    0.0000 C   0  0  0  0  0  0  0  0  0  0  0  0
    5.5429    3.9861    0.0000 C   0  0  0  0  0  0  0  0  0  0  0  0
    4.4900    1.0400    0.0000 C   0  0  0  0  0  0  0  0  0  0  0  0
    3.6100   -0.1800    0.0000 C   0  0  0  0  0  0  0  0  0  0  0  0
    6.0082    5.4121    0.0000 C   0  0  0  0  0  0  0  0  0  0  0  0
   -4.3200   -0.4600    0.0000 C   0  0  0  0  0  0  0  0  0  0  0  0
   -0.4200    1.7900    0.0000 C   0  0  0  0  0  0  0  0  0  0  0  0
   -3.0200    0.2900    0.0000 C   0  0  0  0  0  0  0  0  0  0  0  0
    0.8800    2.5400    0.0000 C   0  0  0  0  0  0  0  0  0  0  0  0
   -3.0200   -2.7100    0.0000 C   0  0  0  0  0  0  0  0  0  0  0  0
   -0.4200   -2.7100    0.0000 C   0  0  0  0  0  0  0  0  0  0  0  0
    4.0753    3.6760    0.0000 C   0  0  0  0  0  0  0  0  0  0  0  0
   -1.7200   -1.9600    0.0000 C   0  0  0  0  0  0  0  0  0  0  0  0
   -4.3200   -1.9600    0.0000 C   0  0  0  0  0  0  0  0  0  0  0  0
    3.6100    2.2500    0.0000 C   0  0  0  0  0  0  0  0  0  0  0  0
    2.1800    0.2900    0.0000 C   0  0  0  0  0  0  0  0  0  0  0  0
   -0.4200    0.2900    0.0000 C   0  0  0  0  0  0  0  0  0  0  0  0
    0.8800   -1.9600    0.0000 C   0  0  0  0  0  0  0  0  0  0  0  0
    7.4758    5.7222    0.0000 C   0  0  0  0  0  0  0  0  0  0  0  0
    0.8800   -0.4600    0.0000 C   0  0  0  0  0  0  0  0  0  0  0  0
   -1.7200   -0.4600    0.0000 C   0  0  0  0  0  0  0  0  0  0  0  0
    2.1800    1.7900    0.0000 C   0  0  0  0  0  0  0  0  0  0  0  0
   -5.6189   -2.7102    0.0000 O   0  0  0  0  0  0  0  0  0  0  0  0
    2.1789   -2.7102    0.0000 O   0  0  0  0  0  0  0  0  0  0  0  0
    8.4781    4.6062    0.0000 O   0  0  0  0  0  0  0  0  0  0  0  0
    7.9410    7.1482    0.0000 O   0  0  0  0  0  0  0  0  0  0  0  0
  7  6  1  0
  8  5  1  0
 11  9  1  0
 12 10  1  0
 15  1  1  6
 15  5  1  0
 16 13  1  6
 16 14  1  0
 17  9  1  0
 17 13  1  0
 18  6  1  1
 18 15  1  0
 19  7  1  1
 20 10  1  1
 21 14  1  0
 22  8  1  0
 23 19  1  0
 23 20  1  0
 23 21  1  6
 24  2  1  1
 24 11  1  0
 24 16  1  0
 24 20  1  0
 25  3  1  1
 25 12  1  0
 25 18  1  0
 25 19  1  0
 17 26  1  1
 21 27  1  1
 28 22  2  0
 29  4  1  0
 29 22  1  0
M  END
>  <NAME>  (17) 
3beta,7beta-Dihydroxy-5beta-cholan-24-oic acid Methyl ester

>  <SYNONYMS>  (17) 
Isoursodeoxycholic Acid Methyl ester

>  <SPECTRUM TYPE>  (17) 
MS1

>  <INSTRUMENT TYPE>  (17) 
EI-B

>  <INSTRUMENT>  (17) 
JEOL GCmate

>  <ION MODE>  (17) 
P

>  <INCHIKEY>  (17) 
GRQROVWZGGDYSW-LWNNJCQBSA-N

>  <FORMULA>  (17) 
C25H42O4

>  <EXACT MASS>  (17) 
406.308309824

>  <MW>  (17) 
406

>  <ID>  (17) 
NU000039

>  <CONTRIBUTOR>  (17) 
Takashi Iida, {Department of Chemistry, College of Humanities and Sciences, Nihon University

>  <COMMENT>  (17) 
compound class=Natural Product; BILE ACID
SMILES=C(C3(C)4)([H])(CC(O)CC4)CC(C(C3([H])2)(C(C1(C)CC2)([H])CCC1([H])C(C)CCC(=O)OC)[H])O
chemspider=10295390
lipidbank=BBA0035
InChI=InChI=1S/C25H42O4/c1-15(5-8-22(28)29-4)18-6-7-19-23-20(10-12-25(18,19)3)24(2)11-9-17(26)13-16(24)14-21(23)27/h15-21,23,26-27H,5-14H2,1-4H3/t15-,16+,17+,18-,19+,20+,21+,23+,24+,25-/m1/s1
computed SMILES=O=C(OC)CCC(C)C1CCC2C3C(O)CC4CC(O)CCC4(C)C3CCC12C
accession=NU000039
date=2016.01.19 (Created 2008.09.19, modified 2011.05.06)
author=Takashi Iida, Department of Chemistry, College of Humanities and Sciences, Nihon University. Koichi Metori, Chemical Analytical Center, College of Pharmacy, Nihon Univercity.
license=CC BY-NC-SA
publication=Iida, T., Chang, F. C., Matsumoto, T., and Tamura, T. 1982. High Resolution Mass Spectra of Mono-, Di- and Trihydroxy Stereoisomers of Bile Acids. Biomed. Mass Spectrom. 9: 473-476. doi:10.1002/bms.1200091104
comment=Mass spectral data were collected from the publications cited in LipidBank
comment=[Analytical] Sample was directly injected
exact mass=406.30831
ionization potential=70 eV
source temperature=200 C
ion type=[M]+*
computed spectral entropy=5.041528366780984
computed normalized entropy=0.9198796777706264
SPLASH=splash10-0a4i-4942000000-2cea8468f976e04bbf26
submitter=submitter = Takashi Iida (Department of Chemistry, College of Humanities and Sciences, Nihon University)
MoNA Rating=3.75

>  <NUM PEAKS>  (17) 
240

>  <MASS SPECTRAL PEAKS>  (17) 
53.0 7.7
54.1 2.0
55.1 63.0
56.1 4.0
57.1 11.5
58.1 2.6
59.0 9.9
65.1 3.2
66.1 2.1
67.1 44.3
68.1 12.3
69.1 26.3
70.1 8.3
71.1 5.3
73.1 13.8
74.1 10.0
77.1 11.2
78.1 3.1
79.1 39.8
80.1 11.5
81.0 2.9
81.1 67.9
82.1 14.1
83.1 24.3
84.1 6.0
85.1 11.6
87.1 8.4
91.1 30.8
92.1 8.9
93.1 65.9
94.1 45.1
95.1 69.8
96.1 14.1
97.1 13.0
98.1 3.7
99.1 6.5
101.1 3.4
103.1 2.4
104.1 2.8
105.1 39.3
106.1 20.1
107.1 53.5
108.1 49.4
109.1 64.3
110.1 20.3
111.1 16.8
112.1 4.2
113.1 2.1
114.1 3.4
115.1 15.0
116.1 3.7
117.1 9.3
118.1 9.8
119.1 38.4
120.1 27.6
121.1 44.8
122.1 27.8
123.1 25.5
124.1 15.2
125.1 10.6
126.1 5.6
127.1 4.3
128.1 3.0
129.1 6.3
130.1 2.8
131.1 20.6
132.1 10.7
133.1 37.3
134.1 21.8
135.1 34.9
136.1 11.6
137.1 18.8
138.1 45.1
139.1 33.2
140.1 13.7
141.1 15.8
142.1 4.6
143.1 10.6
144.1 4.8
145.1 31.2
146.1 14.3
147.1 39.8
148.1 29.0
149.1 19.7
150.1 8.4
151.1 9.1
152.1 22.1
153.1 11.0
154.1 22.2
155.1 13.2
156.1 6.8
157.1 13.3
158.1 8.6
159.1 26.5
160.1 14.4
161.1 32.0
162.1 14.8
163.1 19.8
164.1 7.3
165.1 6.2
166.1 2.1
168.1 2.4
169.1 3.4
171.1 9.1
172.1 4.8
173.1 16.6
174.1 7.3
175.1 13.8
176.1 8.7
177.1 9.8
178.1 11.0
179.1 5.1
181.1 5.8
182.1 2.7
183.1 2.4
185.1 8.7
186.1 4.1
187.1 12.3
188.1 4.9
189.1 10.7
190.1 4.2
191.1 5.4
192.2 4.7
193.1 3.0
194.1 18.0
195.1 11.9
196.1 3.7
197.1 8.7
198.1 2.9
199.1 14.3
200.1 4.9
201.2 14.2
202.2 6.3
203.2 8.3
204.2 2.9
205.1 5.3
206.2 2.2
207.1 9.9
208.1 26.2
209.1 7.5
210.1 4.0
211.1 4.2
212.1 2.2
213.2 34.9
214.2 13.4
215.2 27.6
216.2 12.4
217.2 16.7
218.2 7.4
219.2 9.2
220.2 5.6
221.2 6.6
222.2 4.9
223.2 2.2
227.2 7.2
228.2 12.3
229.2 13.3
230.2 4.7
231.2 19.6
232.2 20.7
233.2 22.5
234.2 8.0
235.2 4.1
236.2 4.8
237.2 2.2
241.1 2.3
241.2 4.6
242.2 4.1
243.2 3.7
244.2 2.2
245.2 5.7
246.2 24.7
247.2 9.2
248.2 10.4
249.2 21.5
250.2 47.1
251.2 10.2
252.2 2.1
253.2 2.7
255.2 29.2
256.2 6.8
257.2 2.8
259.2 5.8
260.2 5.0
261.2 3.8
262.2 13.6
263.2 7.2
264.2 24.2
265.2 6.2
271.2 9.2
272.2 4.6
273.2 48.6
274.2 13.9
275.2 6.1
276.2 8.2
277.2 3.5
283.2 3.5
287.2 2.5
288.2 4.0
289.2 2.8
290.2 2.9
292.2 13.2
293.2 3.4
294.2 2.9
297.2 2.9
301.2 3.3
302.2 2.6
303.2 2.3
304.2 3.4
313.2 3.4
314.3 2.6
315.2 5.7
316.2 8.3
317.3 2.9
318.2 4.9
321.2 2.3
323.2 3.2
328.2 2.0
329.3 5.0
330.2 4.2
331.2 3.3
339.2 10.4
340.3 2.9
341.3 3.3
355.2 19.1
356.2 11.1
357.3 11.8
358.3 3.1
370.3 36.7
371.3 11.7
372.3 3.0
373.3 33.5
374.3 12.0
375.3 3.8
386.3 3.0
388.3 100.0
389.3 33.4
390.3 5.8
406.3 12.6
407.3 3.6

>  <PREDICTED SPECTRUM>  (17) 
17 23
18 4
27 63
28 29
29 119
31 52
32 25
36 29
37 33
38 7
39 173
40 95
41 776
42 177
43 600
44 225
45 207
49 13
50 43
51 122
52 31
53 338
54 121
55 999
56 232
57 630
58 137
59 379
60 73
63 80
64 39
65 256
66 126
67 780
68 355
69 618
70 211
71 215
72 25
73 236
74 193
75 79
76 24
77 495
78 181
79 684
80 269
81 929
82 296
83 523
84 234
85 286
86 8
87 138
88 93
91 646
92 277
93 756
94 457
95 867
96 338
97 357
98 139
99 164
100 54
101 185
102 19
103 138
104 109
105 783
106 388
107 863
108 577
109 671
110 330
111 308
112 166
113 96
114 54
115 330
116 130
117 393
118 225
119 662
120 480
121 720
122 454
123 417
124 292
125 292
126 175
127 241
128 217
129 220
130 102
131 552
132 378
133 649
134 386
135 474
136 218
137 314
138 276
139 220
140 234
141 313
142 195
143 367
144 164
145 613
146 313
147 590
148 394
149 392
150 146
151 259
152 269
153 182
154 203
155 215
156 141
157 377
158 299
159 500
160 344
161 444
162 218
163 217
164 125
165 268
166 89
167 99
168 100
169 165
170 19
171 338
172 242
173 386
174 260
175 235
176 186
177 111
178 301
179 102
180 45
181 208
182 67
183 137
184 13
185 250
186 143
187 364
188 98
189 304
190 144
191 130
192 146
193 136
194 123
195 204
196 123
197 221
198 72
199 358
200 303
201 383
202 180
203 142
204 30
205 35
206 35
207 201
208 186
209 196
210 72
211 218
212 114
213 895
214 384
215 502
216 240
217 317
218 299
219 169
220 78
221 127
222 87
223 71
225 38
227 191
228 670
229 490
230 234
231 475
232 298
233 284
234 130
235 127
236 73
237 75
238 21
239 185
240 85
241 93
242 16
243 5
245 59
246 605
247 268
248 332
249 541
250 380
251 127
252 62
253 8
254 123
255 572
256 375
257 229
258 51
259 136
260 76
261 168
262 309
263 253
264 542
265 253
266 68
267 19
271 135
272 102
273 803
274 468
275 186
276 109
277 56
280 39
281 51
283 110
288 55
289 20
290 33
294 79
295 84
297 22
298 45
301 67
304 85
305 5
313 89
314 39
315 124
316 259
317 58
318 16
323 91
329 37
330 71
331 73
332 52
333 55
335 34
339 273
340 73
341 218
342 48
346 27
353 198
354 219
355 530
356 319
357 421
358 210
359 94
369 149
370 815
371 486
372 235
373 607
374 288
375 29
386 197
387 124
388 997
389 546
390 241
391 3
392 41
402 20
403 15
404 97
406 328
407 101
409 25

$$$$

     RDKit          2D

 29 32  0  0  1  0  0  0  0  0999 V2000
    3.1099    4.4913    0.0000 C   0  0  0  0  0  0  0  0  0  0  0  0
   -1.6775    0.7300    0.0000 C   0  0  0  0  0  0  0  0  0  0  0  0
    2.3740    2.9721    0.0000 C   0  0  0  0  0  0  0  0  0  0  0  0
    9.4424    7.1652    0.0000 C   0  0  0  0  0  0  0  0  0  0  0  0
    5.5808    3.6884    0.0000 C   0  0  0  0  0  0  0  0  0  0  0  0
   -0.3800   -3.0200    0.0000 C   0  0  0  0  0  0  0  0  0  0  0  0
    0.9200   -2.2700    0.0000 C   0  0  0  0  0  0  0  0  0  0  0  0
    4.5300    0.7300    0.0000 C   0  0  0  0  0  0  0  0  0  0  0  0
    3.6500   -0.4800    0.0000 C   0  0  0  0  0  0  0  0  0  0  0  0
    6.0443    5.1150    0.0000 C   0  0  0  0  0  0  0  0  0  0  0  0
   -4.2700   -0.7700    0.0000 C   0  0  0  0  0  0  0  0  0  0  0  0
   -2.9700   -0.0200    0.0000 C   0  0  0  0  0  0  0  0  0  0  0  0
   -2.9700   -3.0200    0.0000 C   0  0  0  0  0  0  0  0  0  0  0  0
   -0.3800    1.4800    0.0000 C   0  0  0  0  0  0  0  0  0  0  0  0
    4.1136    3.3766    0.0000 C   0  0  0  0  0  0  0  0  0  0  0  0
   -1.6800   -2.2700    0.0000 C   0  0  0  0  0  0  0  0  0  0  0  0
   -4.2700   -2.2700    0.0000 C   0  0  0  0  0  0  0  0  0  0  0  0
    0.9200   -0.7700    0.0000 C   0  0  0  0  0  0  0  0  0  0  0  0
    3.6500    1.9500    0.0000 C   0  0  0  0  0  0  0  0  0  0  0  0
    2.2200   -0.0200    0.0000 C   0  0  0  0  0  0  0  0  0  0  0  0
   -0.3800   -0.0200    0.0000 C   0  0  0  0  0  0  0  0  0  0  0  0
    0.9200    2.2300    0.0000 C   0  0  0  0  0  0  0  0  0  0  0  0
    7.5116    5.4268    0.0000 C   0  0  0  0  0  0  0  0  0  0  0  0
   -1.6800   -0.7700    0.0000 C   0  0  0  0  0  0  0  0  0  0  0  0
    2.2200    1.4800    0.0000 C   0  0  0  0  0  0  0  0  0  0  0  0
   -5.5689   -3.0202    0.0000 O   0  0  0  0  0  0  0  0  0  0  0  0
    0.9200    3.7300    0.0000 O   0  0  0  0  0  0  0  0  0  0  0  0
    8.5152    4.3121    0.0000 O   0  0  0  0  0  0  0  0  0  0  0  0
    7.9751    6.8534    0.0000 O   0  0  0  0  0  0  0  0  0  0  0  0
  7  6  1  0
  9  8  1  0
 10  5  1  0
 12 11  1  0
 15  1  1  6
 15  5  1  0
 16  6  1  6
 16 13  1  0
 17 11  1  0
 17 13  1  0
 18  7  1  6
 19  8  1  1
 19 15  1  0
 20  9  1  1
 20 18  1  0
 21 14  1  1
 21 18  1  0
 22 14  1  0
 23 10  1  0
 24  2  1  1
 24 12  1  0
 24 16  1  0
 24 21  1  0
 25  3  1  1
 25 19  1  0
 25 20  1  0
 25 22  1  0
 17 26  1  1
 22 27  1  1
 28 23  2  0
 29  4  1  0
 29 23  1  0
M  END
>  <NAME>  (18) 
3beta,12beta-Dihydroxy-5beta-cholan-24-oic acid Methyl ester

>  <SYNONYMS>  (18) 


>  <SPECTRUM TYPE>  (18) 
MS1

>  <INSTRUMENT TYPE>  (18) 
EI-B

>  <INSTRUMENT>  (18) 
JEOL GCmate

>  <ION MODE>  (18) 
P

>  <INCHIKEY>  (18) 
ZHUOOEGSSFNTNP-PLQQDRFXSA-N

>  <FORMULA>  (18) 
C25H42O4

>  <EXACT MASS>  (18) 
406.308309824

>  <MW>  (18) 
406

>  <ID>  (18) 
NU000035

>  <CONTRIBUTOR>  (18) 
Takashi Iida, {Department of Chemistry, College of Humanities and Sciences, Nihon University

>  <COMMENT>  (18) 
compound class=Natural Product; BILE ACID
SMILES=C(C1(C)4)([H])(C(C)CCC(=O)OC)CCC1(C(C3([H])CC4O)([H])CCC(C3(C)2)([H])CC(O)CC2)[H]
chemspider=10295393
lipidbank=BBA0043
InChI=InChI=1S/C25H42O4/c1-15(5-10-23(28)29-4)19-8-9-20-18-7-6-16-13-17(26)11-12-24(16,2)21(18)14-22(27)25(19,20)3/h15-22,26-27H,5-14H2,1-4H3/t15-,16-,17+,18+,19-,20+,21+,22-,24+,25-/m1/s1
computed SMILES=O=C(OC)CCC(C)C1CCC2C3CCC4CC(O)CCC4(C)C3CC(O)C12C
accession=NU000035
date=2016.01.19 (Created 2008.09.08, modified 2011.05.06)
author=Takashi Iida, Department of Chemistry, College of Humanities and Sciences, Nihon University. Koichi Metori, Chemical Analytical Center, College of Pharmacy, Nihon Univercity.
license=CC BY-NC-SA
publication=Iida, T., Chang, F. C., Matsumoto, T., and Tamura, T. 1982. High Resolution Mass Spectra of Mono-, Di- and Trihydroxy Stereoisomers of Bile Acids. Biomed. Mass Spectrom. 9: 473-476. doi:10.1002/bms.1200091104
comment=Mass spectral data were collected from the publications cited in LipidBank
comment=[Analytical] Sample was directly injected
exact mass=406.30831
ionization potential=70 eV
source temperature=200 C
ion type=[M]+*
computed spectral entropy=4.796899163451504
computed normalized entropy=0.8434886495690432
SPLASH=splash10-0ab9-4971000000-cd8ee7058592af904be4
submitter=submitter = Takashi Iida (Department of Chemistry, College of Humanities and Sciences, Nihon University)
MoNA Rating=3.75

>  <NUM PEAKS>  (18) 
295

>  <MASS SPECTRAL PEAKS>  (18) 
51.0 0.4
53.0 4.0
54.1 1.2
55.1 33.5
56.1 2.8
57.1 6.0
58.1 2.2
59.0 5.1
60.1 0.5
65.1 1.7
66.1 1.0
67.1 21.0
68.1 3.6
69.1 13.3
70.1 1.7
71.1 3.9
72.1 0.7
73.1 6.7
74.1 4.4
75.1 0.4
77.1 5.8
78.1 1.6
79.1 20.8
80.1 4.8
81.1 45.7
82.1 6.0
83.1 14.0
84.1 6.1
85.1 3.6
86.1 0.6
87.1 3.0
88.1 0.7
91.1 17.2
92.1 4.2
93.1 28.4
94.1 11.7
95.1 29.1
96.1 4.8
97.1 7.2
98.1 2.8
99.1 3.1
100.1 0.8
101.1 1.3
102.1 0.3
103.0 0.9
104.1 1.0
105.1 24.0
106.1 9.1
107.1 34.9
108.1 16.3
109.1 23.8
110.1 5.3
111.1 6.2
112.1 2.3
113.1 1.5
114.1 0.8
115.1 10.1
116.1 1.7
117.1 4.6
118.1 3.1
119.1 18.0
120.1 10.0
120.6 0.4
121.1 37.0
121.6 0.3
122.1 12.7
123.1 11.4
124.1 9.2
125.1 4.0
126.1 1.1
127.1 1.8
127.6 0.5
128.1 1.4
129.1 2.6
130.1 1.3
131.1 9.8
132.1 3.2
133.1 16.4
134.1 7.1
135.1 15.2
136.1 3.9
137.1 7.1
138.1 1.9
139.1 2.1
140.1 0.8
141.1 2.6
142.1 1.0
143.1 3.8
144.1 1.8
145.1 15.0
146.1 4.8
147.1 36.3
148.1 9.7
148.6 0.4
149.1 11.8
150.1 2.5
151.1 2.6
152.1 0.8
153.1 1.6
154.1 26.2
155.1 4.9
156.1 1.1
157.1 4.3
158.1 2.0
159.1 14.3
160.1 4.7
161.1 17.2
162.1 4.6
163.1 7.5
164.1 2.4
165.1 5.8
166.1 1.2
167.1 1.0
168.1 3.7
169.1 1.6
170.1 0.5
171.1 4.3
172.1 1.5
173.1 9.1
174.1 3.2
175.1 7.6
176.1 2.3
177.1 3.5
178.1 1.3
179.1 1.6
180.1 0.8
181.1 0.9
182.1 0.5
183.1 0.9
184.1 0.4
185.1 4.4
186.1 1.5
187.1 8.0
188.1 2.3
189.1 4.4
190.1 2.1
191.1 2.7
192.1 1.6
193.1 1.9
194.1 1.8
195.1 14.3
196.1 2.8
197.1 1.5
198.1 0.5
199.1 6.2
200.1 2.4
201.2 10.9
202.2 3.3
203.1 6.7
204.1 1.6
205.1 5.1
206.1 1.2
207.1 1.4
208.1 16.4
209.1 7.7
210.1 1.2
211.1 1.4
212.1 0.6
213.1 9.1
214.1 3.8
215.2 8.4
216.2 4.2
217.2 4.3
218.2 2.8
219.2 4.5
220.1 1.5
221.1 2.7
222.1 0.8
223.2 0.6
225.1 0.8
226.1 0.4
227.2 3.4
228.2 2.3
229.2 4.9
230.2 1.7
231.2 10.2
232.2 4.2
233.2 5.6
234.2 3.4
235.2 1.5
236.2 0.6
237.1 0.5
239.2 0.6
240.1 0.3
241.2 2.0
242.2 1.0
243.2 1.8
244.2 0.8
245.2 2.3
246.2 3.6
247.2 3.0
248.2 1.1
249.2 7.7
250.2 3.1
251.2 1.0
252.2 0.4
253.2 3.0
254.2 1.9
255.2 100.0
256.2 27.4
257.2 4.4
258.2 0.9
259.2 2.3
260.2 2.4
261.2 1.7
262.2 2.3
263.2 2.7
264.2 1.1
265.2 0.7
266.2 0.3
267.2 0.5
269.2 0.7
270.2 1.2
271.2 9.5
272.2 15.0
273.2 98.3
274.2 30.9
275.2 5.0
276.2 1.3
277.2 0.8
278.2 0.4
279.2 0.4
281.2 0.6
283.2 3.1
284.2 0.9
285.2 0.7
286.2 0.3
287.2 0.8
288.2 0.6
289.2 0.7
290.2 0.4
291.2 4.6
292.2 1.1
293.2 0.3
295.2 0.5
297.2 1.3
298.2 0.4
299.2 0.9
300.2 0.5
301.2 2.4
302.2 1.0
303.2 0.8
304.2 0.4
305.2 0.6
306.2 0.3
309.2 0.3
311.2 0.3
313.2 0.8
314.3 0.7
315.2 1.4
316.3 1.4
317.2 0.9
318.2 0.7
319.2 0.6
321.2 0.4
323.2 0.8
327.2 0.6
328.2 0.7
329.2 1.3
330.2 0.8
331.2 0.7
332.2 0.4
333.3 0.5
334.2 0.4
337.2 0.4
338.2 0.4
339.3 1.0
340.3 0.3
341.3 1.6
342.3 0.5
343.2 0.6
344.3 0.5
345.2 1.0
346.3 0.6
354.2 0.4
355.2 4.4
356.2 2.5
357.2 11.2
358.2 3.2
359.2 2.8
360.3 1.0
369.3 0.4
370.3 6.0
371.3 2.2
372.3 0.8
373.3 7.4
374.3 2.2
375.3 1.0
386.3 1.6
387.3 0.7
388.3 23.0
389.3 6.7
390.3 1.2
391.3 0.5
404.2 0.6

>  <PREDICTED SPECTRUM>  (18) 
17 1
27 64
28 6
29 62
31 20
39 161
40 49
41 915
42 144
43 999
44 230
45 405
46 0
47 74
48 14
49 81
50 54
51 124
52 17
53 336
54 86
55 879
56 142
57 538
58 135
59 364
60 136
61 166
62 3
63 48
64 35
65 210
66 49
67 686
68 213
69 558
70 183
71 353
72 41
73 258
74 308
75 170
76 36
77 362
78 101
79 578
80 98
81 786
82 271
83 422
84 258
85 202
86 53
87 263
88 55
89 30
91 560
92 113
93 626
94 192
95 587
96 181
97 319
98 84
99 108
101 150
102 6
103 146
104 35
105 582
106 272
107 582
108 313
109 427
110 190
111 229
112 108
113 66
114 34
115 272
116 64
117 392
118 196
119 465
120 207
121 445
122 285
123 251
124 131
125 97
126 73
127 101
128 70
129 81
130 39
131 411
132 158
133 408
134 219
135 336
136 108
137 162
138 75
139 99
140 76
141 143
142 88
143 218
144 144
145 424
146 158
147 508
148 213
149 278
150 99
151 121
152 68
153 23
154 136
155 118
156 19
157 139
158 96
159 354
160 111
161 388
162 152
163 217
164 58
165 122
166 74
167 24
168 10
169 0
171 211
172 51
173 250
174 140
175 141
176 32
177 133
178 61
179 43
181 78
183 52
185 131
186 25
187 229
188 15
189 167
191 49
192 35
193 37
194 12
195 109
196 39
197 45
199 210
200 141
201 237
202 96
203 170
207 54
208 1
209 67
211 46
213 329
214 180
215 184
216 39
217 165
218 76
219 79
220 9
221 109
227 90
228 191
229 207
230 56
231 210
232 87
233 2
238 13
239 26
241 29
243 40
246 102
247 74
248 34
249 153
253 37
254 107
255 817
256 410
257 61
258 5
259 32
261 55
262 34
263 37
265 4
271 65
272 61
273 722
274 263
275 189
276 53
277 25
283 133
284 90
297 64
298 60
301 117
302 42
313 54
316 69
327 28
329 77
331 71
332 16
339 93
341 77
344 7
354 33
355 215
356 146
357 147
358 82
369 71
370 460
371 199
372 129
373 175
374 62
375 35
385 69
388 234
389 97
390 41
406 14

$$$$

     RDKit          2D

 28 31  0  0  1  0  0  0  0  0999 V2000
    3.1130    4.9420    0.0000 C   0  0  0  0  0  0  0  0  0  0  0  0
   -1.6800    1.1900    0.0000 C   0  0  0  0  0  0  0  0  0  0  0  0
    2.3787    3.4316    0.0000 C   0  0  0  0  0  0  0  0  0  0  0  0
    9.4486    7.6082    0.0000 C   0  0  0  0  0  0  0  0  0  0  0  0
   -4.2800   -1.8100    0.0000 C   0  0  0  0  0  0  0  0  0  0  0  0
   -4.2800   -0.3100    0.0000 C   0  0  0  0  0  0  0  0  0  0  0  0
   -2.9800   -2.5600    0.0000 C   0  0  0  0  0  0  0  0  0  0  0  0
    5.5829    4.1361    0.0000 C   0  0  0  0  0  0  0  0  0  0  0  0
   -0.3800   -2.5600    0.0000 C   0  0  0  0  0  0  0  0  0  0  0  0
    0.9200   -1.8100    0.0000 C   0  0  0  0  0  0  0  0  0  0  0  0
    4.5300    1.1900    0.0000 C   0  0  0  0  0  0  0  0  0  0  0  0
    3.6500   -0.0200    0.0000 C   0  0  0  0  0  0  0  0  0  0  0  0
    6.0482    5.5621    0.0000 C   0  0  0  0  0  0  0  0  0  0  0  0
   -2.9800    0.4400    0.0000 C   0  0  0  0  0  0  0  0  0  0  0  0
   -0.3800    1.9400    0.0000 C   0  0  0  0  0  0  0  0  0  0  0  0
    4.1153    3.8260    0.0000 C   0  0  0  0  0  0  0  0  0  0  0  0
   -1.6800   -1.8100    0.0000 C   0  0  0  0  0  0  0  0  0  0  0  0
    0.9200   -0.3100    0.0000 C   0  0  0  0  0  0  0  0  0  0  0  0
    3.6500    2.4000    0.0000 C   0  0  0  0  0  0  0  0  0  0  0  0
    2.2200    0.4400    0.0000 C   0  0  0  0  0  0  0  0  0  0  0  0
   -0.3800    0.4400    0.0000 C   0  0  0  0  0  0  0  0  0  0  0  0
    0.9200    2.6900    0.0000 C   0  0  0  0  0  0  0  0  0  0  0  0
    7.5158    5.8722    0.0000 C   0  0  0  0  0  0  0  0  0  0  0  0
   -1.6800   -0.3100    0.0000 C   0  0  0  0  0  0  0  0  0  0  0  0
    2.2200    1.9400    0.0000 C   0  0  0  0  0  0  0  0  0  0  0  0
    0.9200    4.1900    0.0000 O   0  0  0  0  0  0  0  0  0  0  0  0
    8.5181    4.7562    0.0000 O   0  0  0  0  0  0  0  0  0  0  0  0
    7.9810    7.2982    0.0000 O   0  0  0  0  0  0  0  0  0  0  0  0
  6  5  1  0
  7  5  1  0
 10  9  1  0
 12 11  1  0
 13  8  1  0
 14  6  1  0
 16  1  1  6
 16  8  1  0
 17  7  1  6
 17  9  1  0
 18 10  1  6
 19 11  1  1
 19 16  1  0
 20 12  1  1
 20 18  1  0
 21 15  1  1
 21 18  1  0
 22 15  1  0
 23 13  1  0
 24  2  1  1
 24 14  1  0
 24 17  1  0
 24 21  1  0
 25  3  1  1
 25 19  1  0
 25 20  1  0
 25 22  1  0
 22 26  1  1
 27 23  2  0
 28  4  1  0
 28 23  1  0
M  END
>  <NAME>  (19) 
12beta-Hydroxy-5beta-cholan-24-oic acid Methyl ester

>  <SYNONYMS>  (19) 


>  <SPECTRUM TYPE>  (19) 
MS1

>  <INSTRUMENT TYPE>  (19) 
EI-B

>  <INSTRUMENT>  (19) 
JEOL GCmate

>  <ION MODE>  (19) 
P

>  <INCHIKEY>  (19) 
FKEDTKXWEOKYFM-VPXJZYEMSA-N

>  <FORMULA>  (19) 
C25H42O3

>  <EXACT MASS>  (19) 
390.31339520399996

>  <MW>  (19) 
390

>  <ID>  (19) 
NU000031

>  <CONTRIBUTOR>  (19) 
Takashi Iida, {Department of Chemistry, College of Humanities and Sciences, Nihon University

>  <COMMENT>  (19) 
compound class=Natural Product; BILE ACID
SMILES=C(C1(C)4)([H])(C(C)CCC(=O)OC)CCC1(C(C3([H])CC4O)([H])CCC(C3(C)2)([H])CCCC2)[H]
lipidbank=BBA0016
InChI=InChI=1S/C25H42O3/c1-16(8-13-23(27)28-4)19-11-12-20-18-10-9-17-7-5-6-14-24(17,2)21(18)15-22(26)25(19,20)3/h16-22,26H,5-15H2,1-4H3/t16-,17+,18+,19-,20+,21+,22-,24+,25-/m1/s1
computed SMILES=O=C(OC)CCC(C)C1CCC2C3CCC4CCCCC4(C)C3CC(O)C12C
accession=NU000031
ionization potential=70 eV
date=2016.01.19 (Created 2008.09.08, modified 2011.05.06)
author=Takashi Iida, Department of Chemistry, College of Humanities and Sciences, Nihon University. Koichi Metori, Chemical Analytical Center, College of Pharmacy, Nihon Univercity.
license=CC BY-NC-SA
publication=Iida, T., Chang, F. C., Matsumoto, T., and Tamura, T. 1982. High Resolution Mass Spectra of Mono-, Di- and Trihydroxy Stereoisomers of Bile Acids. Biomed. Mass Spectrom. 9: 473-476. doi:10.1002/bms.1200091104
comment=Mass spectral data were collected from the publications cited in LipidBank
comment=[Analytical] Sample was directly injected
exact mass=390.3134
source temperature=200 C
ion type=[M]+*
computed spectral entropy=4.359692306490874
computed normalized entropy=0.8228446891491712
SPLASH=splash10-0a4i-5981000000-73f6b083804d02a60281
submitter=submitter = Takashi Iida (Department of Chemistry, College of Humanities and Sciences, Nihon University)
MoNA Rating=3.75

>  <NUM PEAKS>  (19) 
200

>  <MASS SPECTRAL PEAKS>  (19) 
53.0 1.6
54.1 0.7
55.1 14.1
56.1 1.4
57.1 2.4
58.1 3.4
59.0 2.0
60.1 0.4
65.1 0.8
66.1 0.5
67.1 10.6
68.1 1.8
69.1 6.8
70.1 0.9
71.1 1.7
73.1 2.5
74.1 1.6
77.1 2.1
78.1 0.6
79.1 6.8
80.1 1.8
81.1 19.4
82.1 2.7
83.1 7.1
84.1 2.8
85.1 1.4
87.1 1.4
91.1 5.3
92.1 1.3
93.1 9.4
94.1 3.9
95.1 14.4
96.1 2.4
97.1 3.6
98.1 1.3
99.1 1.1
100.1 0.3
101.0 0.7
103.0 0.4
104.1 0.4
105.1 7.3
106.1 2.6
107.1 10.7
108.1 6.8
109.1 15.0
110.1 2.5
111.1 2.3
112.1 1.0
113.1 0.6
114.1 0.3
115.1 3.5
116.1 0.8
117.1 1.4
118.1 0.6
119.1 5.5
120.1 3.3
121.1 11.4
122.1 4.5
123.1 5.4
124.1 1.9
125.1 1.7
126.1 0.5
127.1 0.4
128.1 0.6
129.1 1.3
130.1 0.5
131.1 2.0
132.1 0.8
133.1 4.9
134.1 2.4
135.1 8.7
136.1 1.7
137.1 2.5
138.1 0.8
139.1 0.8
141.1 0.8
142.1 0.4
143.1 0.8
144.1 0.4
145.1 2.5
146.1 1.1
147.1 9.5
148.1 4.3
149.1 14.4
150.1 2.4
151.1 1.7
152.1 0.4
153.1 0.6
154.1 7.9
155.1 1.5
156.1 0.4
157.1 0.7
158.1 0.4
159.1 2.1
160.1 0.9
161.1 9.0
162.1 2.8
163.1 6.2
164.1 1.3
165.1 1.0
167.1 0.5
168.1 1.1
169.1 0.4
171.1 0.7
173.1 1.6
174.1 0.6
175.1 4.8
176.1 2.1
177.1 2.1
178.1 0.5
179.1 0.5
181.1 0.4
185.1 0.5
187.1 2.0
188.1 0.7
189.2 5.8
190.2 1.3
191.1 1.0
192.1 0.4
193.1 2.6
194.1 1.1
195.1 4.5
196.1 1.0
197.1 0.4
199.1 0.6
201.1 2.8
202.1 2.0
203.2 7.3
204.2 1.9
205.2 1.5
206.2 0.4
207.1 0.4
208.1 6.4
209.1 1.6
211.1 0.3
213.1 0.5
215.2 5.5
216.2 2.9
217.2 4.5
218.2 2.2
219.2 1.3
220.2 0.4
221.1 1.0
222.1 0.3
227.2 0.3
229.2 1.8
230.2 2.3
231.2 1.9
232.2 0.6
233.2 7.0
234.2 2.3
235.2 0.6
237.2 0.4
241.2 0.4
243.2 1.5
244.2 1.2
245.2 0.6
246.2 0.3
247.2 0.6
248.2 0.3
249.2 0.6
255.2 1.0
256.2 6.1
257.2 100.0
258.2 22.7
259.2 2.9
260.2 0.4
261.2 0.5
262.2 1.1
263.2 1.3
264.2 0.4
265.2 0.3
273.2 0.4
275.2 1.9
276.2 0.7
277.2 0.4
283.2 0.4
285.2 1.5
286.2 0.5
287.2 0.3
299.3 0.4
301.2 0.3
305.2 0.3
315.2 0.6
316.2 0.3
323.2 0.3
325.2 0.4
341.3 0.7
343.3 0.7
357.2 4.7
358.2 1.5
359.2 2.7
360.2 0.8
372.3 10.3
373.3 3.0
374.3 0.7
375.3 0.5
388.3 1.1
389.3 0.4
390.3 0.3

>  <PREDICTED SPECTRUM>  (19) 
27 57
28 19
29 85
32 0
39 104
40 36
41 788
42 135
43 938
44 68
45 225
47 40
48 41
49 91
51 36
53 335
54 189
55 910
56 187
57 365
58 145
59 465
60 119
61 124
63 3
64 9
65 198
66 87
67 812
68 314
69 671
70 155
71 339
72 37
73 164
74 267
77 385
78 90
79 642
80 207
81 999
82 391
83 606
84 273
85 165
86 5
87 109
88 27
91 529
92 157
93 703
94 268
95 650
96 224
97 334
98 119
99 98
101 59
103 57
105 452
106 259
107 572
108 389
109 657
110 141
111 247
112 54
115 31
116 40
117 215
118 40
119 432
120 175
121 491
122 389
123 409
124 127
125 60
126 32
127 15
128 35
129 143
130 10
131 196
132 77
133 319
134 276
135 434
136 184
137 241
138 84
139 23
143 40
144 24
145 201
146 53
147 452
148 390
149 463
150 192
151 93
152 2
153 57
154 57
157 38
158 45
159 161
160 16
161 417
162 213
163 336
164 79
165 61
166 32
171 89
172 72
173 67
175 228
176 149
177 208
178 4
185 36
186 22
187 84
189 204
191 26
199 2
201 79
202 3
203 247
204 108
213 23
215 186
216 92
217 329
218 272
219 253
220 113
221 60
229 41
230 77
231 129
232 85
233 2
234 63
243 162
249 3
255 237
256 294
257 709
258 490
259 124
260 67
273 8
275 31
284 38
285 76
286 19
287 32
297 87
300 62
301 45
315 22
340 22
341 107
355 86
356 77
357 212
358 192
359 73
372 135
373 86
374 26

$$$$

     RDKit          2D

 28 31  0  0  1  0  0  0  0  0999 V2000
    3.2009    4.6377    0.0000 C   0  0  0  0  0  0  0  0  0  0  0  0
   -1.6125    0.9400    0.0000 C   0  0  0  0  0  0  0  0  0  0  0  0
    2.4507    3.1203    0.0000 C   0  0  0  0  0  0  0  0  0  0  0  0
    9.5655    7.2342    0.0000 C   0  0  0  0  0  0  0  0  0  0  0  0
    5.6618    3.8047    0.0000 C   0  0  0  0  0  0  0  0  0  0  0  0
   -0.3200   -2.8400    0.0000 C   0  0  0  0  0  0  0  0  0  0  0  0
    1.0100   -2.0900    0.0000 C   0  0  0  0  0  0  0  0  0  0  0  0
    4.5500    0.8800    0.0000 C   0  0  0  0  0  0  0  0  0  0  0  0
    3.7100   -0.3100    0.0000 C   0  0  0  0  0  0  0  0  0  0  0  0
    6.1427    5.2256    0.0000 C   0  0  0  0  0  0  0  0  0  0  0  0
   -4.2000   -0.5600    0.0000 C   0  0  0  0  0  0  0  0  0  0  0  0
   -0.3200    1.6300    0.0000 C   0  0  0  0  0  0  0  0  0  0  0  0
   -2.8900    0.1600    0.0000 C   0  0  0  0  0  0  0  0  0  0  0  0
    1.0100    2.3900    0.0000 C   0  0  0  0  0  0  0  0  0  0  0  0
   -2.8900   -2.8400    0.0000 C   0  0  0  0  0  0  0  0  0  0  0  0
    4.1909    3.5108    0.0000 C   0  0  0  0  0  0  0  0  0  0  0  0
   -1.6200   -2.0900    0.0000 C   0  0  0  0  0  0  0  0  0  0  0  0
   -4.2000   -2.0900    0.0000 C   0  0  0  0  0  0  0  0  0  0  0  0
    1.0100   -0.5600    0.0000 C   0  0  0  0  0  0  0  0  0  0  0  0
    3.7100    2.0900    0.0000 C   0  0  0  0  0  0  0  0  0  0  0  0
    2.2800    0.1600    0.0000 C   0  0  0  0  0  0  0  0  0  0  0  0
   -0.3200    0.1600    0.0000 C   0  0  0  0  0  0  0  0  0  0  0  0
    7.6137    5.5195    0.0000 C   0  0  0  0  0  0  0  0  0  0  0  0
   -1.6200   -0.5600    0.0000 C   0  0  0  0  0  0  0  0  0  0  0  0
    2.2800    1.6300    0.0000 C   0  0  0  0  0  0  0  0  0  0  0  0
   -5.4977   -2.8424    0.0000 O   0  0  0  0  0  0  0  0  0  0  0  0
    8.6037    4.3926    0.0000 O   0  0  0  0  0  0  0  0  0  0  0  0
    8.0946    6.9403    0.0000 O   0  0  0  0  0  0  0  0  0  0  0  0
  7  6  1  0
  9  8  1  0
 10  5  1  0
 13 11  1  0
 14 12  1  0
 16  1  1  6
 16  5  1  0
 17  6  1  6
 17 15  1  0
 18 11  1  0
 18 15  1  0
 19  7  1  6
 20  8  1  1
 20 16  1  0
 21  9  1  1
 21 19  1  0
 22 12  1  1
 22 19  1  0
 23 10  1  0
 24  2  1  1
 24 13  1  0
 24 17  1  0
 24 22  1  0
 25  3  1  1
 25 14  1  0
 25 20  1  0
 25 21  1  0
 18 26  1  1
 27 23  2  0
 28  4  1  0
 28 23  1  0
M  END
>  <NAME>  (20) 
3beta-Hydroxy-5beta-cholan-24-oic acid Methyl ester

>  <SYNONYMS>  (20) 
Isolithocholic Acid Methyl ester

>  <SPECTRUM TYPE>  (20) 
MS1

>  <INSTRUMENT TYPE>  (20) 
EI-B

>  <INSTRUMENT>  (20) 
JEOL GCmate

>  <ION MODE>  (20) 
P

>  <INCHIKEY>  (20) 
YXZVCZUDUJEPPK-ARCWCCGYSA-N

>  <FORMULA>  (20) 
C25H42O3

>  <EXACT MASS>  (20) 
390.31339520399996

>  <MW>  (20) 
390

>  <ID>  (20) 
NU000029

>  <CONTRIBUTOR>  (20) 
Takashi Iida, {Department of Chemistry, College of Humanities and Sciences, Nihon University

>  <COMMENT>  (20) 
compound class=Natural Product; BILE ACID
SMILES=C(C1(C)4)([H])(C(C)CCC(=O)OC)CCC1(C(C3([H])CC4)([H])CCC(C3(C)2)([H])CC(O)CC2)[H]
lipidbank=BBA0004
InChI=InChI=1S/C25H42O3/c1-16(5-10-23(27)28-4)20-8-9-21-19-7-6-17-15-18(26)11-13-24(17,2)22(19)12-14-25(20,21)3/h16-22,26H,5-15H2,1-4H3/t16-,17-,18+,19+,20-,21+,22+,24+,25-/m1/s1
computed SMILES=O=C(OC)CCC(C)C1CCC2C3CCC4CC(O)CCC4(C)C3CCC12C
accession=NU000029
date=2016.01.19 (Created 2008.09.08, modified 2011.05.06)
author=Takashi Iida, Department of Chemistry, College of Humanities and Sciences, Nihon University. Koichi Metori, Chemical Analytical Center, College of Pharmacy, Nihon Univercity.
license=CC BY-NC-SA
publication=Iida, T., Chang, F. C., Matsumoto, T., and Tamura, T. 1982. High Resolution Mass Spectra of Mono-, Di- and Trihydroxy Stereoisomers of Bile Acids. Biomed. Mass Spectrom. 9: 473-476. doi:10.1002/bms.1200091104
comment=Mass spectral data were collected from the publications cited in LipidBank
comment=[Analytical] Sample was directly injected
exact mass=390.3134
ionization potential=70 eV
source temperature=200 C
ion type=[M]+*
computed spectral entropy=4.626374292170905
computed normalized entropy=0.8977513124059446
SPLASH=splash10-05uv-4943000000-fe94ac4ce27c46ece825
submitter=submitter = Takashi Iida (Department of Chemistry, College of Humanities and Sciences, Nihon University)
MoNA Rating=3.75

>  <NUM PEAKS>  (20) 
173

>  <MASS SPECTRAL PEAKS>  (20) 
53.0 6.7
54.1 2.3
55.1 51.8
56.1 3.4
57.1 7.0
58.1 2.2
59.0 7.9
65.1 2.9
67.1 41.4
68.1 13.9
69.1 22.7
70.1 3.0
71.1 2.7
73.1 11.0
74.1 6.3
77.1 10.1
78.1 2.7
79.1 38.5
80.1 9.3
81.1 65.3
82.1 13.8
83.1 18.8
84.1 2.2
85.1 9.2
87.1 8.8
91.1 28.2
92.1 7.9
93.1 54.4
94.1 21.2
95.1 60.3
96.1 10.4
97.1 11.3
99.1 4.4
101.1 4.5
104.1 2.2
105.1 34.7
106.1 21.5
107.1 67.7
108.1 58.2
109.1 45.7
110.1 14.4
111.1 10.3
115.1 9.9
117.1 5.6
118.1 4.2
119.1 26.9
120.1 21.1
121.1 45.3
122.1 35.5
123.1 23.6
124.1 35.8
125.1 9.3
128.1 4.0
129.1 3.4
131.1 10.2
132.1 3.9
133.1 29.1
134.1 19.4
135.1 38.0
136.1 15.1
137.1 11.6
138.1 5.5
141.1 4.7
142.1 2.2
143.1 3.7
145.1 26.7
146.1 7.4
147.1 39.6
148.1 31.0
149.1 72.0
150.1 11.0
151.1 4.6
154.1 11.1
155.1 3.2
156.1 2.2
157.1 3.3
158.1 4.0
159.1 15.7
160.1 11.8
161.1 28.1
162.1 16.3
163.1 15.1
164.1 5.6
165.1 22.1
166.1 24.4
167.1 18.4
168.1 2.3
171.1 2.3
173.1 13.1
174.1 6.6
175.1 21.3
176.1 8.9
177.1 9.2
178.1 11.2
179.1 6.6
185.1 2.1
187.1 8.4
188.1 4.4
189.2 8.5
190.2 9.2
191.1 9.7
192.2 2.7
199.1 3.2
201.2 15.1
202.2 4.6
203.2 7.9
204.2 2.9
205.1 2.8
206.2 2.3
208.1 2.3
210.1 2.1
213.1 4.0
214.1 2.4
215.1 100.0
216.2 51.1
217.2 40.5
218.2 12.0
219.2 10.1
220.2 2.5
229.2 6.3
230.2 16.5
231.2 8.9
232.2 4.7
233.2 85.7
234.2 38.3
235.2 7.0
248.2 39.2
249.2 10.4
257.2 12.6
258.2 2.9
262.2 3.9
263.2 3.1
264.2 15.1
265.2 8.1
266.2 2.1
273.2 4.0
278.2 5.4
285.2 2.9
289.2 2.7
290.2 12.7
291.2 4.5
299.3 2.7
303.2 2.1
304.3 2.7
315.3 2.5
316.3 2.2
317.3 4.4
318.2 11.2
319.2 6.5
320.2 8.4
321.2 2.2
323.2 3.5
325.2 7.3
330.3 2.7
331.3 2.5
332.3 5.8
333.2 9.9
334.3 2.3
341.3 13.5
342.3 3.8
343.3 3.3
357.2 47.5
358.3 15.0
359.2 7.3
372.3 88.8
373.3 28.2
374.3 5.0
375.3 29.1
376.3 7.9
388.3 2.6
390.3 77.2
391.3 23.0
392.3 3.9

>  <PREDICTED SPECTRUM>  (20) 
41 560
42 104
43 437
44 102
45 244
47 75
50 23
51 67
53 276
54 142
55 861
56 112
57 461
59 253
60 28
61 30
65 167
66 80
67 641
68 331
69 524
70 110
71 185
73 320
74 208
75 80
77 356
78 98
79 640
80 166
81 799
82 310
83 437
84 93
85 110
86 5
87 133
88 119
91 471
92 172
93 666
94 306
95 676
96 239
97 285
98 103
99 110
100 22
101 210
102 48
103 104
104 82
105 577
106 374
107 891
108 677
109 639
110 323
111 332
112 30
113 85
114 21
115 255
116 132
117 295
118 190
119 527
120 284
121 663
122 483
123 498
124 400
125 276
126 51
127 96
128 17
129 81
130 11
131 270
132 104
133 473
134 286
135 456
136 228
137 207
138 118
139 140
140 97
141 209
142 92
143 164
144 75
145 441
146 165
147 495
148 294
149 502
150 245
151 203
152 109
153 22
154 42
155 86
156 117
157 98
158 92
159 389
160 267
161 535
162 410
163 299
164 120
165 547
166 268
167 106
168 93
169 87
171 98
172 50
173 311
174 192
175 340
176 246
177 225
178 128
179 125
180 28
181 70
185 62
187 270
188 159
189 184
190 130
191 48
192 16
193 37
194 15
199 140
201 383
202 125
203 178
204 112
205 60
206 13
208 17
211 5
213 267
214 108
215 999
216 594
217 528
218 245
219 121
221 59
227 30
229 153
230 277
231 442
232 269
233 737
234 488
235 168
239 94
241 40
243 172
244 47
247 118
248 531
249 263
250 103
251 21
255 11
257 561
258 66
261 137
262 198
263 112
264 346
265 40
267 60
273 12
275 116
276 136
277 129
283 76
285 237
286 40
289 76
290 123
291 68
298 7
300 2
303 21
313 46
315 25
316 50
317 246
318 233
319 120
321 36
323 61
325 133
331 123
332 56
333 213
334 46
339 1
341 196
342 89
343 12
344 16
348 3
355 27
357 553
358 245
359 145
360 119
361 110
372 639
373 379
374 138
375 306
376 141
388 101
389 34
390 456
391 273
392 148

$$$$

     RDKit          2D

 21 21  0  0  0  0  0  0  0  0999 V2000
   14.5504   -0.9021    0.0000 C   0  0  0  0  0  0  0  0  0  0  0  0
   -1.0390    3.6000    0.0000 C   0  0  0  0  0  0  0  0  0  0  0  0
   13.2512   -1.6519    0.0000 C   0  0  0  0  0  0  0  0  0  0  0  0
   11.9523   -0.9017    0.0000 C   0  0  0  0  0  0  0  0  0  0  0  0
   10.6531   -1.6515    0.0000 C   0  0  0  0  0  0  0  0  0  0  0  0
    9.3542   -0.9012    0.0000 C   0  0  0  0  0  0  0  0  0  0  0  0
    8.0551   -1.6510    0.0000 C   0  0  0  0  0  0  0  0  0  0  0  0
    6.7562   -0.9008    0.0000 C   0  0  0  0  0  0  0  0  0  0  0  0
    5.4570   -1.6506    0.0000 C   0  0  0  0  0  0  0  0  0  0  0  0
    4.1581   -0.9004    0.0000 C   0  0  0  0  0  0  0  0  0  0  0  0
    2.8589   -1.6502    0.0000 C   0  0  0  0  0  0  0  0  0  0  0  0
    1.5600    0.6000    0.0000 C   0  0  0  0  0  0  0  0  0  0  0  0
   -2.3389    1.3502    0.0000 C   0  0  0  0  0  0  0  0  0  0  0  0
    1.5600   -0.9000    0.0000 C   0  0  0  0  0  0  0  0  0  0  0  0
   -1.0400    0.6000    0.0000 C   0  0  0  0  0  0  0  0  0  0  0  0
    0.2600    1.3500    0.0000 C   0  0  0  0  0  0  0  0  0  0  0  0
   -1.0400   -0.9000    0.0000 C   0  0  0  0  0  0  0  0  0  0  0  0
   -3.6381    0.6004    0.0000 O   0  0  0  0  0  0  0  0  0  0  0  0
   -2.3389   -1.6502    0.0000 O   0  0  0  0  0  0  0  0  0  0  0  0
    0.2600    2.8500    0.0000 O   0  0  0  0  0  0  0  0  0  0  0  0
    0.2600   -1.6500    0.0000 O   0  0  0  0  0  0  0  0  0  0  0  0
  3  1  1  0
  4  3  1  0
  5  4  1  0
  6  5  1  0
  7  6  1  0
  8  7  1  0
  9  8  1  0
 10  9  1  0
 11 10  1  0
 14 11  1  0
 14 12  2  0
 15 13  1  0
 16 12  1  0
 16 15  2  0
 17 15  1  0
 18 13  2  0
 19 17  2  0
 20  2  1  0
 20 16  1  0
 21 14  1  0
 21 17  1  0
M  END
>  <NAME>  (21) 
6-DECYL-4-METHOXY-2H-PYRAN-2-ONE-3-CARBOXALDEHYDE

>  <SYNONYMS>  (21) 


>  <SPECTRUM TYPE>  (21) 
MS1

>  <INSTRUMENT TYPE>  (21) 
EI-B

>  <INSTRUMENT>  (21) 
JEOL JMS-DX-300

>  <ION MODE>  (21) 
P

>  <INCHIKEY>  (21) 
MNCBVHHTEQODCX-UHFFFAOYSA-N

>  <FORMULA>  (21) 
C17H26O4

>  <EXACT MASS>  (21) 
294.183109312

>  <MW>  (21) 
294

>  <ID>  (21) 
JP012128

>  <CONTRIBUTOR>  (21) 
University of Tokyo Team, {Faculty of Engineering, University of Tokyo

>  <COMMENT>  (21) 
SMILES=CCCCCCCCCCC(O1)=CC(OC)=C(C=O)C(=O)1
InChI=InChI=1S/C17H26O4/c1-3-4-5-6-7-8-9-10-11-14-12-16(20-2)15(13-18)17(19)21-14/h12-13H,3-11H2,1-2H3
computed SMILES=O=CC=1C(=O)OC(=CC1OC)CCCCCCCCCC
accession=JP012128
date=2016.01.19 (Created 2008.10.21, modified 2011.05.06)
author=HISAHIRO HAGIWARA, INSTITUTE FOR CHEMICAL REACTION SCIENCE TOHOKU UNIV.
license=CC BY-NC-SA
exact mass=294.18311
ionization energy=70 eV
ion type=[M]+*
computed spectral entropy=3.856235644702209
computed normalized entropy=0.92041847888331
SPLASH=splash10-0fr6-5940000000-1b4c821eb2087cf235fc
submitter=submitter = University of Tokyo Team (Faculty of Engineering, University of Tokyo)
MoNA Rating=3.75

>  <NUM PEAKS>  (21) 
66

>  <MASS SPECTRAL PEAKS>  (21) 
39 11.73
41 38.09
42 5.67
43 37.53
53 13.78
55 31.84
57 9.13
59 14.63
66 6.31
67 12.95
68 7.32
69 26.93
71 5.8
79 6.5
81 12.2
82 5.89
83 9.17
93 12.57
95 16.73
97 8.99
98 5.22
107 6.06
109 7.42
110 19.64
111 9.41
119 8.87
121 10.3
123 25.74
125 24.41
127 7.39
131 5.84
133 9.78
137 6.38
139 6.21
140 57.62
141 7.2
147 5.83
149 5.76
150 10.36
151 11.75
153 99.99
154 11.92
163 16.44
164 7.23
167 9.62
168 6.48
174 5.35
177 21.44
178 7.87
181 25.37
182 10.51
191 6.57
195 9.38
196 13.98
206 6.65
207 16.53
209 8.19
223 5.67
237 32.9
238 6.68
265 31.09
266 56.05
267 10.1
293 5.62
294 34.67
295 9.92

>  <PREDICTED SPECTRUM>  (21) 
27 53
29 69
39 124
40 39
41 460
42 181
43 513
44 51
50 35
51 185
52 110
53 282
54 69
55 426
56 131
57 241
59 5
63 82
64 47
65 194
66 122
67 248
68 175
69 426
70 62
71 166
73 24
77 314
78 105
79 296
80 155
81 346
82 168
83 377
84 4
85 121
91 122
92 107
93 249
94 90
95 289
96 166
97 307
98 160
99 118
105 54
106 83
107 190
108 71
109 262
110 165
111 370
112 97
113 90
117 16
118 30
119 167
120 17
121 258
122 85
123 301
124 131
125 521
126 252
127 172
128 31
131 3
133 5
134 35
135 189
136 127
137 228
138 135
139 716
140 407
141 199
147 67
149 247
150 171
151 187
152 176
153 999
154 460
155 110
163 177
164 156
165 135
166 67
167 501
168 207
176 71
177 350
178 186
179 125
181 505
182 192
191 111
193 24
195 390
196 185
197 50
205 49
206 35
207 69
209 328
210 57
220 57
221 22
223 252
233 41
235 66
237 396
238 190
249 24
251 172
252 11
265 490
266 952
267 373
268 66
277 13
279 60
293 113
294 638
295 236
296 29

$$$$

     RDKit          2D

 24 26  0  0  0  0  0  0  0  0999 V2000
    3.8989   -1.5002    0.0000 C   0  0  0  0  0  0  0  0  0  0  0  0
    2.5990   -5.2500    0.0000 C   0  0  0  0  0  0  0  0  0  0  0  0
   -2.6000    0.7500    0.0000 C   0  0  0  0  0  0  0  0  0  0  0  0
   -1.3000    1.5000    0.0000 C   0  0  0  0  0  0  0  0  0  0  0  0
   -2.6000   -0.7500    0.0000 C   0  0  0  0  0  0  0  0  0  0  0  0
   -3.3490   -7.5600    0.0000 C   0  0  0  0  0  0  0  0  0  0  0  0
   -3.8090   -6.1300    0.0000 C   0  0  0  0  0  0  0  0  0  0  0  0
    2.6000    0.7500    0.0000 C   0  0  0  0  0  0  0  0  0  0  0  0
   -1.3890   -6.1300    0.0000 C   0  0  0  0  0  0  0  0  0  0  0  0
    2.6000   -0.7500    0.0000 C   0  0  0  0  0  0  0  0  0  0  0  0
    0.0000    0.7500    0.0000 C   0  0  0  0  0  0  0  0  0  0  0  0
    1.3000    1.5000    0.0000 C   0  0  0  0  0  0  0  0  0  0  0  0
   -1.3000   -1.5000    0.0000 C   0  0  0  0  0  0  0  0  0  0  0  0
    1.3000   -1.5000    0.0000 C   0  0  0  0  0  0  0  0  0  0  0  0
    0.0000   -0.7500    0.0000 C   0  0  0  0  0  0  0  0  0  0  0  0
    1.3000   -3.0000    0.0000 C   0  0  0  0  0  0  0  0  0  0  0  0
   -2.5990   -3.7500    0.0000 C   0  0  0  0  0  0  0  0  0  0  0  0
   -1.8490   -7.5600    0.0000 N   0  0  0  0  0  0  0  0  0  0  0  0
   -2.5990   -5.2500    0.0000 N   0  0  0  0  0  0  0  0  0  0  0  0
    1.3000    3.0000    0.0000 O   0  0  0  0  0  0  0  0  0  0  0  0
    0.0010   -3.7500    0.0000 O   0  0  0  0  0  0  0  0  0  0  0  0
    2.5990   -3.7500    0.0000 O   0  0  0  0  0  0  0  0  0  0  0  0
   -1.3000   -3.0000    0.0000 O   0  0  0  0  0  0  0  0  0  0  0  0
   -3.8981   -3.0000    0.0000 S   0  0  0  0  0  0  0  0  0  0  0  0
  4  3  1  0
  5  3  1  0
  7  6  2  0
 10  1  1  0
 10  8  1  0
 11  4  1  0
 12  8  1  0
 12 11  1  0
 13  5  1  0
 14 10  1  0
 15 11  1  0
 15 13  1  0
 15 14  1  0
 16 14  1  0
 18  6  1  0
 18  9  2  0
 19  7  1  0
 19  9  1  0
 19 17  1  0
 20 12  2  0
 21 16  2  0
 22  2  1  0
 22 16  1  0
 23 13  1  0
 23 17  1  0
 24 17  2  0
M  END
>  <NAME>  (22) 
O-((1S,2R,(4A)R,8S,(8A)R)-METHYL 1,2,3,5,6,7,8,(8A)-OCTAHYDRO-8-HYDROXY-2-METHYLNAPHTHALEN-4((4A)H)-ONE-1-CARBOXYLATE-8-YL) THIOCARBOXYIMIDAZOLE

>  <SYNONYMS>  (22) 


>  <SPECTRUM TYPE>  (22) 
MS1

>  <INSTRUMENT TYPE>  (22) 
EI-B

>  <INSTRUMENT>  (22) 
JEOL JMS-DX-300

>  <ION MODE>  (22) 
P

>  <INCHIKEY>  (22) 
GVLJXHPXDBXDJW-UHFFFAOYSA-N

>  <FORMULA>  (22) 
C17H22N2O4S

>  <EXACT MASS>  (22) 
350.130028184

>  <MW>  (22) 
350

>  <ID>  (22) 
JP012127

>  <CONTRIBUTOR>  (22) 
University of Tokyo Team, {Faculty of Engineering, University of Tokyo

>  <COMMENT>  (22) 
SMILES=COC(=O)C(C(C)1)C(C2OC(=S)n(c3)cnc3)C(CCC2)C(=O)C1
InChI=InChI=1S/C17H22N2O4S/c1-10-8-12(20)11-4-3-5-13(15(11)14(10)16(21)22-2)23-17(24)19-7-6-18-9-19/h6-7,9-11,13-15H,3-5,8H2,1-2H3
computed SMILES=O=C(OC)C1C(C)CC(=O)C2CCCC(OC(=S)N3C=NC=C3)C21
accession=JP012127
date=2016.01.19 (Created 2008.10.21, modified 2011.05.06)
author=HISAHIRO HAGIWARA, INSTITUTE FOR CHEMICAL REACTION SCIENCE TOHOKU UNIV.
license=CC BY-NC-SA
exact mass=350.13003
ionization energy=70 eV
ion type=[M]+*
computed spectral entropy=3.415967813232022
computed normalized entropy=0.8563503321539244
SPLASH=splash10-0229-8940000000-f924079ef8ad3b30109f
submitter=submitter = University of Tokyo Team (Faculty of Engineering, University of Tokyo)
MoNA Rating=3.75

>  <NUM PEAKS>  (22) 
54

>  <MASS SPECTRAL PEAKS>  (22) 
27 4.82
29 3.56
39 6.51
40 6.74
41 21.12
42 3.17
43 4.45
53 7.7
55 13.35
59 7.71
60 5.25
65 4.06
67 15.51
68 15.69
69 49.78
77 10.69
79 20.7
80 4.72
81 25.63
82 3.97
84 5.85
91 14.38
92 3.02
93 18.88
94 3.72
95 6.33
97 3.13
105 6.06
107 10.21
109 3.22
111 5.81
115 5.32
119 7.67
120 3.49
121 44.55
122 9.97
129 14.88
131 3.11
133 3.8
135 23.39
136 3.25
145 20.8
146 3.24
147 5.67
149 3.21
162 9.18
163 99.99
164 14.9
191 13.22
195 3.28
222 63.53
223 89.13
224 14.86
319 3.35

>  <PREDICTED SPECTRUM>  (22) 
29 23
39 201
40 128
41 378
42 64
43 222
44 30
45 117
51 65
52 34
53 223
54 90
55 261
56 35
57 105
58 13
59 92
65 114
66 79
67 435
68 126
69 332
70 26
71 141
77 305
78 90
79 373
80 60
81 576
82 166
83 62
85 55
89 59
91 283
92 88
93 295
94 85
95 153
96 7
97 19
103 30
104 9
105 224
106 27
107 192
108 54
109 143
111 117
113 31
115 15
117 136
118 88
119 191
120 119
121 393
122 258
123 21
127 6
128 115
129 376
130 17
131 91
133 133
134 116
135 315
136 106
137 83
145 170
146 47
147 99
148 16
149 174
161 12
162 265
163 698
164 340
165 169
181 4
190 61
191 357
192 66
195 68
222 542
223 999
224 390
225 35
319 109

$$$$

     RDKit          2D

 17 18  0  0  1  0  0  0  0  0999 V2000
    3.8989   -1.5002    0.0000 C   0  0  0  0  0  0  0  0  0  0  0  0
    2.5990   -5.2500    0.0000 C   0  0  0  0  0  0  0  0  0  0  0  0
   -2.6000    0.7500    0.0000 C   0  0  0  0  0  0  0  0  0  0  0  0
   -1.3000    1.5000    0.0000 C   0  0  0  0  0  0  0  0  0  0  0  0
   -2.6000   -0.7500    0.0000 C   0  0  0  0  0  0  0  0  0  0  0  0
    2.6000    0.7500    0.0000 C   0  0  0  0  0  0  0  0  0  0  0  0
    2.6000   -0.7500    0.0000 C   0  0  0  0  0  0  0  0  0  0  0  0
    0.0000    0.7500    0.0000 C   0  0  0  0  0  0  0  0  0  0  0  0
   -1.3000   -1.5000    0.0000 C   0  0  0  0  0  0  0  0  0  0  0  0
    1.3000    1.5000    0.0000 C   0  0  0  0  0  0  0  0  0  0  0  0
    1.3000   -1.5000    0.0000 C   0  0  0  0  0  0  0  0  0  0  0  0
    0.0000   -0.7500    0.0000 C   0  0  0  0  0  0  0  0  0  0  0  0
    1.3000   -3.0000    0.0000 C   0  0  0  0  0  0  0  0  0  0  0  0
   -1.3000   -3.0000    0.0000 O   0  0  0  0  0  0  0  0  0  0  0  0
    1.3000    3.0000    0.0000 O   0  0  0  0  0  0  0  0  0  0  0  0
    0.0010   -3.7500    0.0000 O   0  0  0  0  0  0  0  0  0  0  0  0
    2.5990   -3.7500    0.0000 O   0  0  0  0  0  0  0  0  0  0  0  0
  4  3  1  0
  5  3  1  0
  7  1  1  1
  7  6  1  0
  8  4  1  1
  9  5  1  0
 10  6  1  0
 10  8  1  0
 11  7  1  0
 12  8  1  0
 12  9  1  6
 12 11  1  0
 11 13  1  6
  9 14  1  6
 15 10  2  0
 16 13  2  0
 17  2  1  0
 17 13  1  0
M  END
>  <NAME>  (23) 
METHYL (1S,2R,(4A)R,8S,(8A)R)-1,2,3,5,6,7,8,(8A)-OCTAHYDRO-8-HYDROXY-2-METHYLNAPHTHALEN-4(4A)H)-ONE-1-CARBOXYLATE

>  <SYNONYMS>  (23) 


>  <SPECTRUM TYPE>  (23) 
MS1

>  <INSTRUMENT TYPE>  (23) 
EI-B

>  <INSTRUMENT>  (23) 
JEOL JMS-DX-300

>  <ION MODE>  (23) 
P

>  <INCHIKEY>  (23) 
YWLUZFIMMMHFCW-TWXYISROSA-N

>  <FORMULA>  (23) 
C13H20O4

>  <EXACT MASS>  (23) 
240.13615912

>  <MW>  (23) 
240

>  <ID>  (23) 
JP012126

>  <CONTRIBUTOR>  (23) 
University of Tokyo Team, {Faculty of Engineering, University of Tokyo

>  <COMMENT>  (23) 
SMILES=COC(=O)C(C(C)1)C([H])(C(O)2)C([H])(CCC2)C(=O)C1
InChI=InChI=1S/C13H20O4/c1-7-6-10(15)8-4-3-5-9(14)12(8)11(7)13(16)17-2/h7-9,11-12,14H,3-6H2,1-2H3/t7-,8+,9-,11+,12+/m1/s1
computed SMILES=O=C(OC)C1C(C)CC(=O)C2CCCC(O)C21
accession=JP012126
date=2016.01.19 (Created 2008.10.21, modified 2011.05.06)
author=HISAHIRO HAGIWARA, INSTITUTE FOR CHEMICAL REACTION SCIENCE TOHOKU UNIV.
license=CC BY-NC-SA
exact mass=240.13616
ionization energy=70 eV
ion type=[M]+*
computed spectral entropy=4.1492735226215585
computed normalized entropy=0.9389959699611216
SPLASH=splash10-03dm-8910000000-7fcf10ed155265208f30
submitter=submitter = University of Tokyo Team (Faculty of Engineering, University of Tokyo)
MoNA Rating=3.75

>  <NUM PEAKS>  (23) 
83

>  <MASS SPECTRAL PEAKS>  (23) 
31 6.62
39 20.71
41 51.41
42 8.67
43 17.66
53 21.11
54 6.26
55 36.28
57 9.77
59 14.49
65 8.01
66 8.3
67 28.01
68 7.88
69 45.02
70 8
71 7.09
74 5.79
77 16.43
79 29.82
80 9.74
81 32.67
82 13.72
83 12.36
84 23.76
85 5.56
91 16.49
92 6
93 24.25
94 17.4
95 21.05
96 8.92
97 63.36
98 10.21
101 22.38
105 7.89
107 11.39
108 5.94
109 18.44
110 22.6
111 17.39
113 13.56
114 17.18
119 7.9
120 9.95
121 23.97
122 16.21
123 24.5
124 7.78
125 6.4
133 5.51
134 11.05
135 16.25
136 10.49
137 18.98
138 13.69
139 17.11
140 7.45
145 8
147 11.86
148 6.78
151 5.91
152 12.49
153 6.28
154 6.82
162 52.57
163 99.99
164 16.01
170 13.99
171 6.67
180 16.99
181 7.91
183 24.52
184 5.78
190 24.09
196 34.39
207 8.4
208 9.9
209 21.23
222 53.39
223 8.59
240 33.73
241 5.26

>  <PREDICTED SPECTRUM>  (23) 
27 132
29 157
31 57
33 30
39 387
40 147
41 615
42 188
43 308
45 110
50 40
51 133
52 39
53 373
54 155
55 658
56 132
57 243
59 344
63 20
65 236
66 173
67 553
68 290
69 443
70 97
71 178
74 218
75 35
77 294
78 120
79 494
80 217
81 750
82 183
83 315
84 337
85 145
87 68
91 391
92 194
93 560
94 352
95 290
96 222
97 418
98 229
99 25
100 32
101 350
102 4
103 46
105 134
106 82
107 373
108 504
109 336
110 252
111 420
112 172
113 311
114 77
119 212
120 195
121 440
122 236
123 310
124 255
125 241
126 29
130 28
131 136
133 100
134 245
135 389
136 391
137 426
138 474
139 341
140 171
141 13
145 207
146 10
147 371
148 281
149 143
151 96
152 326
153 259
154 87
155 62
156 3
161 40
162 806
163 999
164 414
165 217
166 122
167 105
168 73
169 238
170 359
171 124
172 57
179 37
180 599
181 409
182 23
183 355
184 234
189 76
190 398
191 197
193 16
194 93
195 6
196 272
197 14
207 310
208 430
209 258
212 25
222 825
223 275
224 46
225 66
240 563
241 144
242 3

$$$$

     RDKit          2D

 16 17  0  0  1  0  0  0  0  0999 V2000
    3.8989    1.5002    0.0000 C   0  0  0  0  0  0  0  0  0  0  0  0
    2.5990    5.2500    0.0000 C   0  0  0  0  0  0  0  0  0  0  0  0
   -2.6000   -0.7500    0.0000 C   0  0  0  0  0  0  0  0  0  0  0  0
   -2.6000    0.7500    0.0000 C   0  0  0  0  0  0  0  0  0  0  0  0
   -1.3000   -1.5000    0.0000 C   0  0  0  0  0  0  0  0  0  0  0  0
   -1.3000    1.5000    0.0000 C   0  0  0  0  0  0  0  0  0  0  0  0
    2.6000   -0.7500    0.0000 C   0  0  0  0  0  0  0  0  0  0  0  0
    2.6000    0.7500    0.0000 C   0  0  0  0  0  0  0  0  0  0  0  0
    0.0000   -0.7500    0.0000 C   0  0  0  0  0  0  0  0  0  0  0  0
    0.0000    0.7500    0.0000 C   0  0  0  0  0  0  0  0  0  0  0  0
    1.3000   -1.5000    0.0000 C   0  0  0  0  0  0  0  0  0  0  0  0
    1.3000    1.5000    0.0000 C   0  0  0  0  0  0  0  0  0  0  0  0
    1.3000    3.0000    0.0000 C   0  0  0  0  0  0  0  0  0  0  0  0
    1.3000   -3.0000    0.0000 O   0  0  0  0  0  0  0  0  0  0  0  0
    0.0010    3.7500    0.0000 O   0  0  0  0  0  0  0  0  0  0  0  0
    2.5990    3.7500    0.0000 O   0  0  0  0  0  0  0  0  0  0  0  0
  4  3  1  0
  5  3  1  0
  6  4  1  0
  8  1  1  6
  8  7  1  0
  9  5  1  6
 10  6  1  1
 10  9  1  0
 11  7  1  0
 11  9  1  0
 12  8  1  0
 12 10  1  0
 12 13  1  1
 14 11  2  0
 15 13  2  0
 16  2  1  0
 16 13  1  0
M  END
>  <NAME>  (24) 
METHYL (1S,2R,(4A)R,(8A)R)-1,2,3,5,6,7,8,(8A)-OCTAHYDRO-2-METHYLNAPHTHALEN-4(4A)H-ONE-1-CARBOXYLATE

>  <SYNONYMS>  (24) 


>  <SPECTRUM TYPE>  (24) 
MS1

>  <INSTRUMENT TYPE>  (24) 
EI-B

>  <INSTRUMENT>  (24) 
JEOL JMS-DX-300

>  <ION MODE>  (24) 
P

>  <INCHIKEY>  (24) 
MGMNAJYGRQZXQO-BFLSOPEQSA-N

>  <FORMULA>  (24) 
C13H20O3

>  <EXACT MASS>  (24) 
224.1412445

>  <MW>  (24) 
224

>  <ID>  (24) 
JP012125

>  <CONTRIBUTOR>  (24) 
University of Tokyo Team, {Faculty of Engineering, University of Tokyo

>  <COMMENT>  (24) 
SMILES=COC(=O)C(C(C)1)C([H])(C2)C([H])(CCC2)C(=O)C1
InChI=InChI=1S/C13H20O3/c1-8-7-11(14)9-5-3-4-6-10(9)12(8)13(15)16-2/h8-10,12H,3-7H2,1-2H3/t8-,9-,10-,12+/m1/s1
computed SMILES=O=C(OC)C1C(C)CC(=O)C2CCCCC21
accession=JP012125
date=2016.01.19 (Created 2008.10.21, modified 2011.05.06)
author=HISAHIRO HAGIWARA, INSTITUTE FOR CHEMICAL REACTION SCIENCE TOHOKU UNIV.
license=CC BY-NC-SA
exact mass=224.14124
ionization energy=70 eV
ion type=[M]+*
computed spectral entropy=2.854543517843478
computed normalized entropy=0.8312621299564383
SPLASH=splash10-001r-9100000000-d93ff297b29fb3af3842
submitter=submitter = University of Tokyo Team (Faculty of Engineering, University of Tokyo)
MoNA Rating=3.75

>  <NUM PEAKS>  (24) 
31

>  <MASS SPECTRAL PEAKS>  (24) 
35 5.3
40 12.18
41 5.37
42 5.11
43 36.87
44 7.29
47 22.7
48 10.26
49 7.39
50 4.74
53 4.01
58 15.25
67 4.45
69 10.1
80 4.7
81 9.69
82 5.05
83 99.99
84 4.58
85 68.18
87 11.43
114 4.96
118 4.7
120 4.39
122 4.55
124 22.82
147 15.12
149 4.29
164 7.2
165 5.3
224 8.55

>  <PREDICTED SPECTRUM>  (24) 
26 39
27 272
28 88
29 235
31 53
33 18
38 13
39 389
40 182
41 664
42 198
43 217
45 16
50 62
51 185
52 86
53 483
54 301
55 663
56 107
57 9
59 383
60 35
63 60
65 268
66 218
67 778
68 387
69 382
70 77
71 83
74 315
75 55
77 369
78 104
79 545
80 339
81 999
82 472
83 205
84 166
85 30
87 388
88 143
91 350
92 150
93 633
94 638
95 639
96 377
97 336
98 275
100 178
101 295
102 16
105 271
106 79
107 420
108 633
109 570
110 197
111 175
113 242
114 149
115 39
119 276
120 302
121 556
122 588
123 576
124 232
125 23
129 34
131 155
132 103
133 42
135 144
136 484
137 428
138 224
139 145
140 166
141 130
142 100
145 42
146 389
147 538
148 335
149 290
150 250
151 254
152 57
153 293
154 392
155 188
156 133
157 36
163 90
164 601
165 381
166 19
167 263
168 195
169 72
174 165
175 87
177 46
180 234
181 204
182 167
191 203
192 667
193 408
194 71
195 58
196 125
206 240
207 71
224 769
225 266
226 85

$$$$

     RDKit          2D

 16 17  0  0  1  0  0  0  0  0999 V2000
    3.8989    1.5002    0.0000 C   0  0  0  0  0  0  0  0  0  0  0  0
    2.5990    5.2500    0.0000 C   0  0  0  0  0  0  0  0  0  0  0  0
   -2.6000   -0.7500    0.0000 C   0  0  0  0  0  0  0  0  0  0  0  0
   -2.6000    0.7500    0.0000 C   0  0  0  0  0  0  0  0  0  0  0  0
   -1.3000   -1.5000    0.0000 C   0  0  0  0  0  0  0  0  0  0  0  0
   -1.3000    1.5000    0.0000 C   0  0  0  0  0  0  0  0  0  0  0  0
    2.6000   -0.7500    0.0000 C   0  0  0  0  0  0  0  0  0  0  0  0
    2.6000    0.7500    0.0000 C   0  0  0  0  0  0  0  0  0  0  0  0
    0.0000   -0.7500    0.0000 C   0  0  0  0  0  0  0  0  0  0  0  0
    0.0000    0.7500    0.0000 C   0  0  0  0  0  0  0  0  0  0  0  0
    1.3000   -1.5000    0.0000 C   0  0  0  0  0  0  0  0  0  0  0  0
    1.3000    1.5000    0.0000 C   0  0  0  0  0  0  0  0  0  0  0  0
    1.3000    3.0000    0.0000 C   0  0  0  0  0  0  0  0  0  0  0  0
    1.3000   -3.0000    0.0000 O   0  0  0  0  0  0  0  0  0  0  0  0
    0.0010    3.7500    0.0000 O   0  0  0  0  0  0  0  0  0  0  0  0
    2.5990    3.7500    0.0000 O   0  0  0  0  0  0  0  0  0  0  0  0
  4  3  1  0
  5  3  1  0
  6  4  1  0
  8  1  1  6
  8  7  1  0
  9  5  1  6
 10  6  1  1
 10  9  1  0
 11  7  1  0
 11  9  1  0
 12  8  1  0
 12 10  1  0
 12 13  1  1
 11 14  1  6
 15 13  2  0
 16  2  1  0
 16 13  1  0
M  END
>  <NAME>  (25) 
METHYL (1S,2R,4S,(4A)R,(8A)R)-DECAHYDRO-4-HYDROXY-2-METHYLNAPHTHALEN-1-CARBOXYLATE

>  <SYNONYMS>  (25) 


>  <SPECTRUM TYPE>  (25) 
MS1

>  <INSTRUMENT TYPE>  (25) 
EI-B

>  <INSTRUMENT>  (25) 
JEOL JMS-DX-300

>  <ION MODE>  (25) 
P

>  <INCHIKEY>  (25) 
PFMCGYTZQRCFBE-JCIQBVFBSA-N

>  <FORMULA>  (25) 
C13H22O3

>  <EXACT MASS>  (25) 
226.15689456399997

>  <MW>  (25) 
226

>  <ID>  (25) 
JP012124

>  <CONTRIBUTOR>  (25) 
University of Tokyo Team, {Faculty of Engineering, University of Tokyo

>  <COMMENT>  (25) 
SMILES=COC(=O)C(C(C)1)C([H])(C2)C([H])(CCC2)C(O)C1
InChI=InChI=1S/C13H22O3/c1-8-7-11(14)9-5-3-4-6-10(9)12(8)13(15)16-2/h8-12,14H,3-7H2,1-2H3/t8-,9-,10-,11+,12+/m1/s1
computed SMILES=O=C(OC)C1C(C)CC(O)C2CCCCC12
accession=JP012124
date=2016.01.19 (Created 2008.10.21, modified 2011.05.06)
author=HISAHIRO HAGIWARA, INSTITUTE FOR CHEMICAL REACTION SCIENCE TOHOKU UNIV.
license=CC BY-NC-SA
exact mass=226.15689
ionization energy=70 eV
ion type=[M]+*
computed spectral entropy=3.565976149029977
computed normalized entropy=0.8939559816242846
SPLASH=splash10-0002-6900000000-5c5b60f94c56c0465e0f
submitter=submitter = University of Tokyo Team (Faculty of Engineering, University of Tokyo)
MoNA Rating=3.75

>  <NUM PEAKS>  (25) 
54

>  <MASS SPECTRAL PEAKS>  (25) 
39 9.78
41 25.21
43 8.8
51 4.12
53 10.55
55 16.34
57 5.45
59 7.54
65 8.1
66 5.52
67 21.86
69 15.01
71 4.26
74 4.75
77 13.48
78 8.87
79 36.03
80 9.22
81 30.03
82 5.59
83 8.59
91 28.49
92 9.01
93 34.15
94 10.89
95 11.73
101 16.76
103 4.82
105 20.18
106 16.41
107 22.98
108 65.64
109 9.85
114 4.33
117 5.87
119 11.8
120 6.43
121 8.59
124 5.73
125 4.82
131 3.98
133 16.2
134 7.89
135 5.17
146 4.89
147 10.41
148 84.71
149 99.99
150 14.46
166 4.61
176 29.26
177 7.4
208 24.93
209 4.54

>  <PREDICTED SPECTRUM>  (25) 
29 19
31 37
33 50
39 303
40 72
41 513
42 27
43 183
45 101
50 16
51 162
52 24
53 357
54 158
55 575
57 166
59 470
65 236
66 138
67 586
68 152
69 334
70 50
71 215
73 63
74 289
77 539
78 217
79 618
80 304
81 737
82 86
83 154
84 59
87 76
90 35
91 610
92 351
93 436
94 284
95 290
97 37
98 35
99 65
101 408
103 143
105 487
106 186
107 530
108 781
109 312
110 8
111 32
112 38
113 16
114 86
115 63
116 50
117 225
118 0
119 317
120 246
121 146
122 10
124 117
125 11
126 46
127 6
130 63
131 263
133 399
134 177
135 149
144 10
146 4
147 258
148 927
149 999
150 427
151 89
166 182
167 133
175 185
176 543
177 361
183 27
194 34
208 648
209 208

$$$$

     RDKit          2D

 13 14  0  0  1  0  0  0  0  0999 V2000
    3.8989    1.5002    0.0000 C   0  0  0  0  0  0  0  0  0  0  0  0
   -2.6000   -0.7500    0.0000 C   0  0  0  0  0  0  0  0  0  0  0  0
   -2.6000    0.7500    0.0000 C   0  0  0  0  0  0  0  0  0  0  0  0
   -1.3000   -1.5000    0.0000 C   0  0  0  0  0  0  0  0  0  0  0  0
   -1.3000    1.5000    0.0000 C   0  0  0  0  0  0  0  0  0  0  0  0
    2.6000   -0.7500    0.0000 C   0  0  0  0  0  0  0  0  0  0  0  0
    1.3000   -1.5000    0.0000 C   0  0  0  0  0  0  0  0  0  0  0  0
    1.3000    3.0000    0.0000 C   0  0  0  0  0  0  0  0  0  0  0  0
    2.6000    0.7500    0.0000 C   0  0  0  0  0  0  0  0  0  0  0  0
    0.0000   -0.7500    0.0000 C   0  0  0  0  0  0  0  0  0  0  0  0
    0.0000    0.7500    0.0000 C   0  0  0  0  0  0  0  0  0  0  0  0
    1.3000    1.5000    0.0000 C   0  0  0  0  0  0  0  0  0  0  0  0
    2.5990    3.7500    0.0000 O   0  0  0  0  0  0  0  0  0  0  0  0
  3  2  1  0
  4  2  1  0
  5  3  1  0
  7  6  2  0
  9  1  1  6
  9  6  1  0
 10  4  1  6
 10  7  1  0
 11  5  1  1
 11 10  1  0
 12  8  1  6
 12  9  1  0
 12 11  1  0
 13  8  1  0
M  END
>  <NAME>  (26) 
(1R,2R,(4A)S,(8A)R)-1,2,(4A),5,6,7,8,(8A)-OCTAHYDRO-2-METHYLNAPHTHALEN-1-METHANOL

>  <SYNONYMS>  (26) 


>  <SPECTRUM TYPE>  (26) 
MS1

>  <INSTRUMENT TYPE>  (26) 
EI-B

>  <INSTRUMENT>  (26) 
JEOL JMS-DX-300

>  <ION MODE>  (26) 
P

>  <INCHIKEY>  (26) 
TUMHGYLMWUWTEY-WRWGMCAJSA-N

>  <FORMULA>  (26) 
C12H20O

>  <EXACT MASS>  (26) 
180.15141526

>  <MW>  (26) 
180

>  <ID>  (26) 
JP012123

>  <CONTRIBUTOR>  (26) 
University of Tokyo Team, {Faculty of Engineering, University of Tokyo

>  <COMMENT>  (26) 
SMILES=OCC([H])(C([H])(C)1)C([H])(C2)C([H])(CCC2)C([H])=C([H])1
InChI=InChI=1S/C12H20O/c1-9-6-7-10-4-2-3-5-11(10)12(9)8-13/h6-7,9-13H,2-5,8H2,1H3/t9-,10+,11-,12-/m1/s1
computed SMILES=OCC1C(C=CC2CCCCC21)C
accession=JP012123
date=2016.01.19 (Created 2008.10.21, modified 2011.05.06)
author=HISAHIRO HAGIWARA, INSTITUTE FOR CHEMICAL REACTION SCIENCE TOHOKU UNIV.
license=CC BY-NC-SA
exact mass=180.15142
ionization energy=70 eV
ion type=[M]+*
computed spectral entropy=2.523295809617661
computed normalized entropy=0.8569699788215671
SPLASH=splash10-0002-4900000000-1056f553f6afb3db679c
submitter=submitter = University of Tokyo Team (Faculty of Engineering, University of Tokyo)
MoNA Rating=3.75

>  <NUM PEAKS>  (26) 
19

>  <MASS SPECTRAL PEAKS>  (26) 
41 8.34
55 6.51
67 8.14
77 6.99
79 14.53
81 21.5
91 15.65
93 13.18
95 5.35
105 17.05
107 12.68
119 11.12
120 5.66
133 6.46
147 13.18
149 99.99
150 15.56
162 9.56
180 12.86

>  <PREDICTED SPECTRUM>  (26) 
27 3
29 45
31 141
39 141
40 12
41 258
42 21
43 100
51 72
52 11
53 130
55 230
57 35
65 174
66 85
67 361
68 50
69 87
77 362
78 84
79 420
80 129
81 470
91 439
92 185
93 431
94 170
95 263
103 23
104 26
105 353
107 429
108 83
109 1
119 459
120 308
121 216
131 127
132 50
133 166
147 270
148 41
149 999
150 246
162 266
180 324
181 69

$$$$

     RDKit          2D

 20 22  0  0  0  0  0  0  0  0999 V2000
    3.3966    4.6694    0.0000 C   0  0  0  0  0  0  0  0  0  0  0  0
   -6.1074    1.7708    0.0000 C   0  0  0  0  0  0  0  0  0  0  0  0
    1.9041    4.8274    0.0000 C   0  0  0  0  0  0  0  0  0  0  0  0
    4.0069    3.2983    0.0000 C   0  0  0  0  0  0  0  0  0  0  0  0
   -5.2250    0.5567    0.0000 C   0  0  0  0  0  0  0  0  0  0  0  0
   -5.4980    3.1423    0.0000 C   0  0  0  0  0  0  0  0  0  0  0  0
    1.0219    3.6143    0.0000 C   0  0  0  0  0  0  0  0  0  0  0  0
    3.1247    2.0851    0.0000 C   0  0  0  0  0  0  0  0  0  0  0  0
   -3.7333    0.7141    0.0000 C   0  0  0  0  0  0  0  0  0  0  0  0
   -4.0062    3.2998    0.0000 C   0  0  0  0  0  0  0  0  0  0  0  0
    1.6322    2.2431    0.0000 C   0  0  0  0  0  0  0  0  0  0  0  0
   -3.1239    2.0857    0.0000 C   0  0  0  0  0  0  0  0  0  0  0  0
   -0.7500    1.0300    0.0000 C   0  0  0  0  0  0  0  0  0  0  0  0
    0.7500    1.0300    0.0000 C   0  0  0  0  0  0  0  0  0  0  0  0
   -1.6322    2.2431    0.0000 C   0  0  0  0  0  0  0  0  0  0  0  0
   -1.2100   -0.3900    0.0000 C   0  0  0  0  0  0  0  0  0  0  0  0
    1.2100   -0.3900    0.0000 N   0  0  0  0  0  0  0  0  0  0  0  0
   -1.0227    3.6137    0.0000 O   0  0  0  0  0  0  0  0  0  0  0  0
   -2.6377   -0.8500    0.0000 O   0  0  0  0  0  0  0  0  0  0  0  0
   -0.0000   -1.2800    0.0000 O   0  0  0  0  0  0  0  0  0  0  0  0
  3  1  2  0
  4  1  1  0
  5  2  2  0
  6  2  1  0
  7  3  1  0
  8  4  2  0
  9  5  1  0
 10  6  2  0
 11  7  2  0
 11  8  1  0
 12  9  2  0
 12 10  1  0
 14 11  1  0
 14 13  1  0
 15 12  1  0
 15 13  1  0
 16 13  1  0
 17 14  2  0
 18 15  2  0
 19 16  2  0
 20 16  1  0
 20 17  1  0
M  END
>  <NAME>  (27) 
4-BENZOYL-3-PHENYL-5-ISOXAZOLONE

>  <SYNONYMS>  (27) 


>  <SPECTRUM TYPE>  (27) 
MS1

>  <INSTRUMENT TYPE>  (27) 
EI-B

>  <INSTRUMENT>  (27) 
JEOL JMS-DX-300

>  <ION MODE>  (27) 
P

>  <INCHIKEY>  (27) 
SVVFJNDRCLYVHB-UHFFFAOYSA-N

>  <FORMULA>  (27) 
C16H11NO3

>  <EXACT MASS>  (27) 
265.07389321200003

>  <MW>  (27) 
265

>  <ID>  (27) 
JP012122

>  <CONTRIBUTOR>  (27) 
University of Tokyo Team, {Faculty of Engineering, University of Tokyo

>  <COMMENT>  (27) 
SMILES=c(c3)ccc(c3)C(=O)C(C(=O)2)C(=NO2)c(c1)cccc1
InChI=InChI=1S/C16H11NO3/c18-15(12-9-5-2-6-10-12)13-14(17-20-16(13)19)11-7-3-1-4-8-11/h1-10,13H
computed SMILES=O=C1ON=C(C=2C=CC=CC2)C1C(=O)C=3C=CC=CC3
accession=JP012122
date=2016.01.19 (Created 2008.10.21, modified 2011.05.06)
author=HISAHIRO HAGIWARA, INSTITUTE FOR CHEMICAL REACTION SCIENCE TOHOKU UNIV.
license=CC BY-NC-SA
exact mass=265.07389
ionization energy=70 eV
ion type=[M]+*
computed spectral entropy=1.631937682988822
computed normalized entropy=0.5885971005719497
SPLASH=splash10-0a4i-3900000000-a8feb1f69d461d1d6136
submitter=submitter = University of Tokyo Team (Faculty of Engineering, University of Tokyo)
MoNA Rating=3.75

>  <NUM PEAKS>  (27) 
16

>  <MASS SPECTRAL PEAKS>  (27) 
39 1.04
50 2.19
51 6.76
63 1.51
75 1.01
76 3.03
77 26.82
78 3.45
89 2.15
102 6.35
103 2.72
104 1
105 99.99
106 19.69
116 2.39
265 1.76

>  <PREDICTED SPECTRUM>  (27) 
28 2
33 4
37 26
38 64
39 117
40 20
44 22
45 14
47 15
49 7
50 187
51 358
52 120
53 24
61 37
62 102
63 145
64 90
65 84
74 80
75 136
76 131
77 647
78 173
79 5
89 82
91 10
102 189
103 230
104 33
105 999
106 323
107 12
265 75

$$$$

     RDKit          2D

 21 23  0  0  0  0  0  0  0  0999 V2000
    3.7924    0.9202    0.0000 C   0  0  0  0  0  0  0  0  0  0  0  0
    2.3658    0.4541    0.0000 C   0  0  0  0  0  0  0  0  0  0  0  0
    4.1029    2.3886    0.0000 C   0  0  0  0  0  0  0  0  0  0  0  0
   -5.4951    3.1364    0.0000 C   0  0  0  0  0  0  0  0  0  0  0  0
   -6.1079    1.7758    0.0000 C   0  0  0  0  0  0  0  0  0  0  0  0
    1.2497    1.4563    0.0000 C   0  0  0  0  0  0  0  0  0  0  0  0
    2.9869    3.3908    0.0000 C   0  0  0  0  0  0  0  0  0  0  0  0
   -4.0032    3.2913    0.0000 C   0  0  0  0  0  0  0  0  0  0  0  0
   -5.2276    0.5602    0.0000 C   0  0  0  0  0  0  0  0  0  0  0  0
    1.5603    2.9247    0.0000 C   0  0  0  0  0  0  0  0  0  0  0  0
   -3.1239    2.0857    0.0000 C   0  0  0  0  0  0  0  0  0  0  0  0
   -3.7356    0.7152    0.0000 C   0  0  0  0  0  0  0  0  0  0  0  0
   -1.0227    3.6137    0.0000 C   0  0  0  0  0  0  0  0  0  0  0  0
    0.4442    3.9269    0.0000 C   0  0  0  0  0  0  0  0  0  0  0  0
   -1.6322    2.2431    0.0000 C   0  0  0  0  0  0  0  0  0  0  0  0
   -1.7690    4.9064    0.0000 C   0  0  0  0  0  0  0  0  0  0  0  0
   -2.8552   -0.4993    0.0000 F   0  0  0  0  0  0  0  0  0  0  0  0
    0.5976    5.4116    0.0000 N   0  0  0  0  0  0  0  0  0  0  0  0
   -0.7500    1.0300    0.0000 O   0  0  0  0  0  0  0  0  0  0  0  0
   -3.2613    5.0582    0.0000 O   0  0  0  0  0  0  0  0  0  0  0  0
   -0.7715    6.0294    0.0000 O   0  0  0  0  0  0  0  0  0  0  0  0
  2  1  2  0
  3  1  1  0
  5  4  2  0
  6  2  1  0
  7  3  2  0
  8  4  1  0
  9  5  1  0
 10  6  2  0
 10  7  1  0
 11  8  2  0
 12  9  2  0
 12 11  1  0
 14 10  1  0
 14 13  1  0
 15 11  1  0
 15 13  1  0
 16 13  1  0
 17 12  1  0
 18 14  2  0
 19 15  2  0
 20 16  2  0
 21 16  1  0
 21 18  1  0
M  END
>  <NAME>  (28) 
4-(2-FLUOROBENZOYL)-3-PHENYL-5-ISOXAZOLONE

>  <SYNONYMS>  (28) 


>  <SPECTRUM TYPE>  (28) 
MS1

>  <INSTRUMENT TYPE>  (28) 
EI-B

>  <INSTRUMENT>  (28) 
JEOL JMS-DX-300

>  <ION MODE>  (28) 
P

>  <INCHIKEY>  (28) 
VHRCZUMIDWIWQN-UHFFFAOYSA-N

>  <FORMULA>  (28) 
C16H10FNO3

>  <EXACT MASS>  (28) 
283.0644714

>  <MW>  (28) 
283

>  <ID>  (28) 
JP012121

>  <CONTRIBUTOR>  (28) 
University of Tokyo Team, {Faculty of Engineering, University of Tokyo

>  <COMMENT>  (28) 
SMILES=Fc(c3)c(ccc3)C(=O)C(C(=O)2)C(=NO2)c(c1)cccc1
InChI=InChI=1S/C16H10FNO3/c17-12-9-5-4-8-11(12)15(19)13-14(18-21-16(13)20)10-6-2-1-3-7-10/h1-9,13H
computed SMILES=O=C1ON=C(C=2C=CC=CC2)C1C(=O)C=3C=CC=CC3F
accession=JP012121
date=2016.01.19 (Created 2008.10.21, modified 2011.05.06)
author=HISAHIRO HAGIWARA, INSTITUTE FOR CHEMICAL REACTION SCIENCE TOHOKU UNIV.
license=CC BY-NC-SA
exact mass=283.06447
ionization energy=70 eV
ion type=[M]+*
computed spectral entropy=1.555834334220507
computed normalized entropy=0.5611486196061769
SPLASH=splash10-00di-2900000000-702fbf54737c62123912
submitter=submitter = University of Tokyo Team (Faculty of Engineering, University of Tokyo)
MoNA Rating=3.75

>  <NUM PEAKS>  (28) 
16

>  <MASS SPECTRAL PEAKS>  (28) 
39 1.14
50 1.53
51 2.58
63 1.75
75 4.5
76 2.42
77 2.46
89 2.53
94 1.11
95 14.44
102 5
103 2.58
116 2.76
123 99.99
124 21.19
283 1.01

>  <PREDICTED SPECTRUM>  (28) 
37 6
38 48
39 115
40 48
44 34
49 2
50 153
51 178
52 98
53 16
54 0
61 38
62 91
63 117
64 38
65 45
66 3
68 36
69 65
74 89
75 276
76 145
77 176
78 56
89 142
90 55
93 2
94 44
95 491
96 132
101 41
102 246
103 159
104 65
105 22
112 11
113 6
114 19
116 164
117 32
123 999
124 336
125 46
127 20
130 46
131 24
132 37
142 51
144 49
159 7
160 39
283 101

$$$$

     RDKit          2D

 21 23  0  0  0  0  0  0  0  0999 V2000
    3.3966    4.6694    0.0000 C   0  0  0  0  0  0  0  0  0  0  0  0
    1.9041    4.8274    0.0000 C   0  0  0  0  0  0  0  0  0  0  0  0
    4.0069    3.2983    0.0000 C   0  0  0  0  0  0  0  0  0  0  0  0
    1.0219    3.6143    0.0000 C   0  0  0  0  0  0  0  0  0  0  0  0
    3.1247    2.0851    0.0000 C   0  0  0  0  0  0  0  0  0  0  0  0
   -3.7336    0.7152    0.0000 C   0  0  0  0  0  0  0  0  0  0  0  0
   -4.0068    3.2994    0.0000 C   0  0  0  0  0  0  0  0  0  0  0  0
   -5.2263    0.5584    0.0000 C   0  0  0  0  0  0  0  0  0  0  0  0
   -5.4994    3.1425    0.0000 C   0  0  0  0  0  0  0  0  0  0  0  0
    1.6322    2.2431    0.0000 C   0  0  0  0  0  0  0  0  0  0  0  0
   -3.1239    2.0857    0.0000 C   0  0  0  0  0  0  0  0  0  0  0  0
   -6.1092    1.7720    0.0000 C   0  0  0  0  0  0  0  0  0  0  0  0
   -0.7500    1.0300    0.0000 C   0  0  0  0  0  0  0  0  0  0  0  0
    0.7500    1.0300    0.0000 C   0  0  0  0  0  0  0  0  0  0  0  0
   -1.6322    2.2431    0.0000 C   0  0  0  0  0  0  0  0  0  0  0  0
   -1.2100   -0.3900    0.0000 C   0  0  0  0  0  0  0  0  0  0  0  0
   -7.6009    1.6146    0.0000 F   0  0  0  0  0  0  0  0  0  0  0  0
    1.2100   -0.3900    0.0000 N   0  0  0  0  0  0  0  0  0  0  0  0
   -1.0227    3.6137    0.0000 O   0  0  0  0  0  0  0  0  0  0  0  0
   -2.6377   -0.8500    0.0000 O   0  0  0  0  0  0  0  0  0  0  0  0
   -0.0000   -1.2800    0.0000 O   0  0  0  0  0  0  0  0  0  0  0  0
  2  1  2  0
  3  1  1  0
  4  2  1  0
  5  3  2  0
  8  6  2  0
  9  7  1  0
 10  4  2  0
 10  5  1  0
 11  6  1  0
 11  7  2  0
 12  8  1  0
 12  9  2  0
 14 10  1  0
 14 13  1  0
 15 11  1  0
 15 13  1  0
 16 13  1  0
 17 12  1  0
 18 14  2  0
 19 15  2  0
 20 16  2  0
 21 16  1  0
 21 18  1  0
M  END
>  <NAME>  (29) 
4-(4-FLUOROBENZOYL)-3-PHENYL-5-ISOXAZOLONE

>  <SYNONYMS>  (29) 


>  <SPECTRUM TYPE>  (29) 
MS1

>  <INSTRUMENT TYPE>  (29) 
EI-B

>  <INSTRUMENT>  (29) 
JEOL JMS-DX-300

>  <ION MODE>  (29) 
P

>  <INCHIKEY>  (29) 
BCECACPCPCOKJZ-UHFFFAOYSA-N

>  <FORMULA>  (29) 
C16H10FNO3

>  <EXACT MASS>  (29) 
283.0644714

>  <MW>  (29) 
283

>  <ID>  (29) 
JP012120

>  <CONTRIBUTOR>  (29) 
University of Tokyo Team, {Faculty of Engineering, University of Tokyo

>  <COMMENT>  (29) 
SMILES=Fc(c3)ccc(c3)C(=O)C(C(=O)2)C(=NO2)c(c1)cccc1
InChI=InChI=1S/C16H10FNO3/c17-12-8-6-11(7-9-12)15(19)13-14(18-21-16(13)20)10-4-2-1-3-5-10/h1-9,13H
computed SMILES=O=C1ON=C(C=2C=CC=CC2)C1C(=O)C3=CC=C(F)C=C3
accession=JP012120
date=2016.01.19 (Created 2008.10.21, modified 2011.05.06)
author=HISAHIRO HAGIWARA, INSTITUTE FOR CHEMICAL REACTION SCIENCE TOHOKU UNIV.
license=CC BY-NC-SA
exact mass=283.06447
ionization energy=70 eV
ion type=[M]+*
computed spectral entropy=2.3066021926624725
computed normalized entropy=0.6922150743206316
SPLASH=splash10-00di-5900000000-c5854a0f05ad679a91a7
submitter=submitter = University of Tokyo Team (Faculty of Engineering, University of Tokyo)
MoNA Rating=3.75

>  <NUM PEAKS>  (29) 
28

>  <MASS SPECTRAL PEAKS>  (29) 
39 2.08
50 3.27
51 5.56
52 1.62
62 1.02
63 3.35
69 1.7
74 1.75
75 10.09
76 5.05
77 5.69
89 4.67
90 1.07
94 2.58
95 47.9
96 7.26
102 12.78
103 5.39
104 1.59
105 1.16
116 5.85
122 1.37
123 99.99
124 33.32
132 1.04
140 1.43
144 1.73
283 5.62

>  <PREDICTED SPECTRUM>  (29) 
26 2
27 16
33 12
36 13
37 48
38 88
39 190
40 83
42 16
44 87
45 42
49 23
50 227
51 239
52 137
53 48
54 14
57 45
61 84
62 126
63 179
64 107
65 90
66 16
68 27
69 116
70 37
71 16
74 142
75 352
76 213
77 183
78 57
86 25
89 187
90 103
92 1
93 16
94 50
95 584
96 172
98 10
99 28
101 65
102 264
103 140
104 97
105 12
107 7
112 14
113 29
114 24
116 147
117 43
118 18
123 999
124 377
125 48
128 5
130 5
131 4
132 79
140 55
142 14
144 4
160 67
283 101
284 6

$$$$

     RDKit          2D

 21 23  0  0  0  0  0  0  0  0999 V2000
    3.3966    4.6694    0.0000 C   0  0  0  0  0  0  0  0  0  0  0  0
    1.9041    4.8274    0.0000 C   0  0  0  0  0  0  0  0  0  0  0  0
    4.0069    3.2983    0.0000 C   0  0  0  0  0  0  0  0  0  0  0  0
   -5.4951    3.1364    0.0000 C   0  0  0  0  0  0  0  0  0  0  0  0
    1.0219    3.6143    0.0000 C   0  0  0  0  0  0  0  0  0  0  0  0
    3.1247    2.0851    0.0000 C   0  0  0  0  0  0  0  0  0  0  0  0
   -4.0032    3.2913    0.0000 C   0  0  0  0  0  0  0  0  0  0  0  0
   -6.1079    1.7758    0.0000 C   0  0  0  0  0  0  0  0  0  0  0  0
   -3.7356    0.7152    0.0000 C   0  0  0  0  0  0  0  0  0  0  0  0
    1.6322    2.2431    0.0000 C   0  0  0  0  0  0  0  0  0  0  0  0
   -3.1239    2.0857    0.0000 C   0  0  0  0  0  0  0  0  0  0  0  0
   -5.2276    0.5602    0.0000 C   0  0  0  0  0  0  0  0  0  0  0  0
   -0.7500    1.0300    0.0000 C   0  0  0  0  0  0  0  0  0  0  0  0
    0.7500    1.0300    0.0000 C   0  0  0  0  0  0  0  0  0  0  0  0
   -1.6322    2.2431    0.0000 C   0  0  0  0  0  0  0  0  0  0  0  0
   -1.2100   -0.3900    0.0000 C   0  0  0  0  0  0  0  0  0  0  0  0
   -5.8396   -0.8093    0.0000 F   0  0  0  0  0  0  0  0  0  0  0  0
    1.2100   -0.3900    0.0000 N   0  0  0  0  0  0  0  0  0  0  0  0
   -1.0227    3.6137    0.0000 O   0  0  0  0  0  0  0  0  0  0  0  0
   -2.6377   -0.8500    0.0000 O   0  0  0  0  0  0  0  0  0  0  0  0
   -0.0000   -1.2800    0.0000 O   0  0  0  0  0  0  0  0  0  0  0  0
  2  1  2  0
  3  1  1  0
  5  2  1  0
  6  3  2  0
  7  4  2  0
  8  4  1  0
 10  5  2  0
 10  6  1  0
 11  7  1  0
 11  9  2  0
 12  8  2  0
 12  9  1  0
 14 10  1  0
 14 13  1  0
 15 11  1  0
 15 13  1  0
 16 13  1  0
 17 12  1  0
 18 14  2  0
 19 15  2  0
 20 16  2  0
 21 16  1  0
 21 18  1  0
M  END
>  <NAME>  (30) 
4-(3-FLUOROBENZOYL)-3-PHENYL-5-ISOXAZOLONE

>  <SYNONYMS>  (30) 


>  <SPECTRUM TYPE>  (30) 
MS1

>  <INSTRUMENT TYPE>  (30) 
EI-B

>  <INSTRUMENT>  (30) 
JEOL JMS-DX-300

>  <ION MODE>  (30) 
P

>  <INCHIKEY>  (30) 
CHDLZDDLKCBEJW-UHFFFAOYSA-N

>  <FORMULA>  (30) 
C16H10FNO3

>  <EXACT MASS>  (30) 
283.0644714

>  <MW>  (30) 
283

>  <ID>  (30) 
JP012119

>  <CONTRIBUTOR>  (30) 
University of Tokyo Team, {Faculty of Engineering, University of Tokyo

>  <COMMENT>  (30) 
SMILES=Fc(c3)cc(cc3)C(=O)C(C(=O)2)C(=NO2)c(c1)cccc1
InChI=InChI=1S/C16H10FNO3/c17-12-8-4-7-11(9-12)15(19)13-14(18-21-16(13)20)10-5-2-1-3-6-10/h1-9,13H
computed SMILES=O=C1ON=C(C=2C=CC=CC2)C1C(=O)C=3C=CC=C(F)C3
accession=JP012119
date=2016.01.19 (Created 2008.10.21, modified 2011.05.06)
author=HISAHIRO HAGIWARA, INSTITUTE FOR CHEMICAL REACTION SCIENCE TOHOKU UNIV.
license=CC BY-NC-SA
exact mass=283.06447
ionization energy=70 eV
ion type=[M]+*
computed spectral entropy=2.101626846313717
computed normalized entropy=0.6799087615345976
SPLASH=splash10-00di-6900000000-a4045d7084d46d1f6b47
submitter=submitter = University of Tokyo Team (Faculty of Engineering, University of Tokyo)
MoNA Rating=3.75

>  <NUM PEAKS>  (30) 
22

>  <MASS SPECTRAL PEAKS>  (30) 
39 3.48
50 4.58
51 6.52
52 4.17
63 2.61
69 1.1
74 2.03
75 5.69
76 3.81
77 7.13
78 21.68
79 1.63
89 2.4
94 1.2
95 23.2
96 1.86
102 5.93
103 2.26
116 2.55
123 99.99
124 8.98
283 2.32

>  <PREDICTED SPECTRUM>  (30) 
33 26
36 22
37 35
38 70
39 180
40 81
41 13
42 39
43 26
44 74
45 51
49 30
50 191
51 231
52 114
53 52
54 1
57 17
61 40
62 109
63 173
64 86
65 97
66 12
68 6
69 120
74 104
75 301
76 167
77 213
78 71
79 20
86 1
89 151
90 48
91 30
93 20
94 49
95 568
96 141
101 30
102 235
103 218
104 35
105 46
113 9
114 13
115 21
116 170
117 62
118 24
120 9
123 999
124 334
125 19
130 11
131 2
132 30
283 169
284 42

$$$$

     RDKit          2D

 22 24  0  0  0  0  0  0  0  0999 V2000
    3.6789    4.2812    0.0000 C   0  0  0  0  0  0  0  0  0  0  0  0
    2.1865    4.4392    0.0000 C   0  0  0  0  0  0  0  0  0  0  0  0
    4.2892    2.9101    0.0000 C   0  0  0  0  0  0  0  0  0  0  0  0
   -6.1089    1.7692    0.0000 C   0  0  0  0  0  0  0  0  0  0  0  0
    1.3042    3.2261    0.0000 C   0  0  0  0  0  0  0  0  0  0  0  0
    3.4070    1.6969    0.0000 C   0  0  0  0  0  0  0  0  0  0  0  0
   -5.4988    3.1404    0.0000 C   0  0  0  0  0  0  0  0  0  0  0  0
   -5.2265    0.5562    0.0000 C   0  0  0  0  0  0  0  0  0  0  0  0
    1.9145    1.8549    0.0000 C   0  0  0  0  0  0  0  0  0  0  0  0
   -4.0063    3.2987    0.0000 C   0  0  0  0  0  0  0  0  0  0  0  0
   -3.7340    0.7144    0.0000 C   0  0  0  0  0  0  0  0  0  0  0  0
   -3.1239    2.0857    0.0000 C   0  0  0  0  0  0  0  0  0  0  0  0
   -0.4677    0.6418    0.0000 C   0  0  0  0  0  0  0  0  0  0  0  0
    1.0323    0.6418    0.0000 C   0  0  0  0  0  0  0  0  0  0  0  0
   -1.6322    2.2431    0.0000 C   0  0  0  0  0  0  0  0  0  0  0  0
   -0.9277   -0.7782    0.0000 C   0  0  0  0  0  0  0  0  0  0  0  0
   -3.3973    4.6695    0.0000 F   0  0  0  0  0  0  0  0  0  0  0  0
   -2.8516   -0.4986    0.0000 F   0  0  0  0  0  0  0  0  0  0  0  0
    1.4923   -0.7782    0.0000 N   0  0  0  0  0  0  0  0  0  0  0  0
   -1.0227    3.6137    0.0000 O   0  0  0  0  0  0  0  0  0  0  0  0
   -2.3554   -1.2382    0.0000 O   0  0  0  0  0  0  0  0  0  0  0  0
    0.2823   -1.6682    0.0000 O   0  0  0  0  0  0  0  0  0  0  0  0
  2  1  2  0
  3  1  1  0
  5  2  1  0
  6  3  2  0
  7  4  2  0
  8  4  1  0
  9  5  2  0
  9  6  1  0
 10  7  1  0
 11  8  2  0
 12 10  2  0
 12 11  1  0
 14  9  1  0
 14 13  1  0
 15 12  1  0
 15 13  1  0
 16 13  1  0
 17 10  1  0
 18 11  1  0
 19 14  2  0
 20 15  2  0
 21 16  2  0
 22 16  1  0
 22 19  1  0
M  END
>  <NAME>  (31) 
4-(2,6-DIFLUOROBENZOYL)-3-PHENYL-5-ISOXAZOLONE

>  <SYNONYMS>  (31) 


>  <SPECTRUM TYPE>  (31) 
MS1

>  <INSTRUMENT TYPE>  (31) 
EI-B

>  <INSTRUMENT>  (31) 
JEOL JMS-DX-300

>  <ION MODE>  (31) 
P

>  <INCHIKEY>  (31) 
BNKWTLOFWODNEM-UHFFFAOYSA-N

>  <FORMULA>  (31) 
C16H9F2NO3

>  <EXACT MASS>  (31) 
301.05504958800003

>  <MW>  (31) 
301

>  <ID>  (31) 
JP012118

>  <CONTRIBUTOR>  (31) 
University of Tokyo Team, {Faculty of Engineering, University of Tokyo

>  <COMMENT>  (31) 
SMILES=c(c3)ccc(c3)C(=N2)C(C(=O)O2)C(=O)c(c(F)1)c(F)ccc1
InChI=InChI=1S/C16H9F2NO3/c17-10-7-4-8-11(18)12(10)15(20)13-14(19-22-16(13)21)9-5-2-1-3-6-9/h1-8,13H
computed SMILES=O=C1ON=C(C=2C=CC=CC2)C1C(=O)C=3C(F)=CC=CC3F
accession=JP012118
date=2016.01.19 (Created 2008.10.21, modified 2011.05.06)
author=HISAHIRO HAGIWARA, INSTITUTE FOR CHEMICAL REACTION SCIENCE TOHOKU UNIV.
license=CC BY-NC-SA
exact mass=301.05505
ionization energy=70 eV
ion type=[M]+*
computed spectral entropy=1.5251455543400905
computed normalized entropy=0.5276641491439873
SPLASH=splash10-0006-1900000000-32f7834a582d5130d4b7
submitter=submitter = University of Tokyo Team (Faculty of Engineering, University of Tokyo)
MoNA Rating=3.75

>  <NUM PEAKS>  (31) 
18

>  <MASS SPECTRAL PEAKS>  (31) 
39 1.02
50 1.08
51 2.21
62 0.85
63 5.49
75 0.71
76 1.89
77 2.25
89 2.16
102 5.95
103 2.28
112 0.7
113 10.03
116 2.64
141 99.99
142 22.56
158 0.75
301 0.93

>  <PREDICTED SPECTRUM>  (31) 
27 1
38 9
39 71
40 28
43 7
44 1
50 106
51 165
52 98
53 45
61 24
62 103
63 226
64 91
65 29
69 11
74 47
75 138
76 77
77 216
78 81
81 3
89 136
90 43
91 2
93 59
94 12
95 9
96 3
101 71
102 185
103 138
104 99
105 2
112 112
113 336
114 132
116 54
118 18
130 10
132 40
141 999
142 400
143 53
144 34
187 8
301 127
302 33

$$$$

     RDKit          2D

 21 23  0  0  0  0  0  0  0  0999 V2000
   -5.8060    4.6176    0.0000 C   0  0  0  0  0  0  0  0  0  0  0  0
   -4.3794    5.0838    0.0000 C   0  0  0  0  0  0  0  0  0  0  0  0
   -6.1166    3.1493    0.0000 C   0  0  0  0  0  0  0  0  0  0  0  0
    3.4850    2.4061    0.0000 C   0  0  0  0  0  0  0  0  0  0  0  0
    4.1029    3.7755    0.0000 C   0  0  0  0  0  0  0  0  0  0  0  0
   -3.2634    4.0816    0.0000 C   0  0  0  0  0  0  0  0  0  0  0  0
   -5.0005    2.1471    0.0000 C   0  0  0  0  0  0  0  0  0  0  0  0
    1.9948    2.2351    0.0000 C   0  0  0  0  0  0  0  0  0  0  0  0
    3.2085    4.9914    0.0000 C   0  0  0  0  0  0  0  0  0  0  0  0
   -3.5739    2.6132    0.0000 C   0  0  0  0  0  0  0  0  0  0  0  0
    1.1103    3.4522    0.0000 C   0  0  0  0  0  0  0  0  0  0  0  0
    1.7182    4.8204    0.0000 C   0  0  0  0  0  0  0  0  0  0  0  0
   -0.9909    1.9241    0.0000 C   0  0  0  0  0  0  0  0  0  0  0  0
   -2.4579    1.6110    0.0000 C   0  0  0  0  0  0  0  0  0  0  0  0
   -0.3814    3.2947    0.0000 C   0  0  0  0  0  0  0  0  0  0  0  0
   -0.2446    0.6315    0.0000 C   0  0  0  0  0  0  0  0  0  0  0  0
    0.8303    6.0294    0.0000 Cl  0  0  0  0  0  0  0  0  0  0  0  0
   -2.6113    0.1262    0.0000 N   0  0  0  0  0  0  0  0  0  0  0  0
   -1.2636    4.5079    0.0000 O   0  0  0  0  0  0  0  0  0  0  0  0
    1.2477    0.4797    0.0000 O   0  0  0  0  0  0  0  0  0  0  0  0
   -1.2421   -0.4915    0.0000 O   0  0  0  0  0  0  0  0  0  0  0  0
  2  1  2  0
  3  1  1  0
  5  4  2  0
  6  2  1  0
  7  3  2  0
  8  4  1  0
  9  5  1  0
 10  6  2  0
 10  7  1  0
 11  8  2  0
 12  9  2  0
 12 11  1  0
 14 10  1  0
 14 13  1  0
 15 11  1  0
 15 13  1  0
 16 13  1  0
 17 12  1  0
 18 14  2  0
 19 15  2  0
 20 16  2  0
 21 16  1  0
 21 18  1  0
M  END
>  <NAME>  (32) 
4-(2-CHLOROBENZOYL)-3-PHENYL-5-ISOXAZOLONE

>  <SYNONYMS>  (32) 


>  <SPECTRUM TYPE>  (32) 
MS1

>  <INSTRUMENT TYPE>  (32) 
EI-B

>  <INSTRUMENT>  (32) 
JEOL JMS-DX-300

>  <ION MODE>  (32) 
P

>  <INCHIKEY>  (32) 
PLRKKMYNKANJAL-UHFFFAOYSA-N

>  <FORMULA>  (32) 
C16H10ClNO3

>  <EXACT MASS>  (32) 
299.03492086

>  <MW>  (32) 
299

>  <ID>  (32) 
JP012117

>  <CONTRIBUTOR>  (32) 
University of Tokyo Team, {Faculty of Engineering, University of Tokyo

>  <COMMENT>  (32) 
SMILES=c(c3)ccc(c3)C(=N2)C(C(=O)O2)C(=O)c(c1)c(Cl)ccc1
InChI=InChI=1S/C16H10ClNO3/c17-12-9-5-4-8-11(12)15(19)13-14(18-21-16(13)20)10-6-2-1-3-7-10/h1-9,13H
computed SMILES=O=C1ON=C(C=2C=CC=CC2)C1C(=O)C=3C=CC=CC3Cl
accession=JP012117
date=2016.01.19 (Created 2008.10.21, modified 2011.05.06)
author=HISAHIRO HAGIWARA, INSTITUTE FOR CHEMICAL REACTION SCIENCE TOHOKU UNIV.
license=CC BY-NC-SA
exact mass=299.03492
ionization energy=70 eV
ion type=[M]+*
computed spectral entropy=2.5308561868765875
computed normalized entropy=0.6771214273451369
SPLASH=splash10-000f-1900000000-d7e6e6a50df47fe68226
submitter=submitter = University of Tokyo Team (Faculty of Engineering, University of Tokyo)
MoNA Rating=3.75

>  <NUM PEAKS>  (32) 
42

>  <MASS SPECTRAL PEAKS>  (32) 
36 0.8
38 0.72
39 1.74
50 3.74
51 4.8
52 1.13
61 0.5
62 0.94
63 3.06
64 0.6
74 1.87
75 10.86
76 6.25
77 4.49
85 1.29
87 0.8
88 0.55
89 5.14
90 1.02
102 10.24
103 4.05
104 2.23
105 1.11
110 0.76
111 24.62
112 4.48
113 9.24
116 7.3
117 1.65
132 0.85
138 0.56
139 99.99
140 30.11
141 61.87
142 14.12
144 2.04
156 0.8
158 0.51
161 0.56
165 1.05
259 0.66
299 0.6

>  <PREDICTED SPECTRUM>  (32) 
33 7
35 26
36 34
37 38
38 79
39 83
40 35
44 27
47 10
49 44
50 227
51 248
52 106
53 28
54 0
57 1
61 112
62 114
63 176
64 78
65 58
73 20
74 153
75 373
76 212
77 254
78 68
83 15
84 24
85 92
86 64
87 107
88 83
89 183
90 87
98 21
100 26
101 63
102 291
103 215
104 125
105 93
111 490
112 167
113 328
114 98
115 176
116 146
117 69
118 33
128 46
130 27
139 999
140 308
141 685
142 295
143 72
144 57
146 2
169 21
299 14

$$$$

     RDKit          2D

 21 23  0  0  0  0  0  0  0  0999 V2000
    5.4932    1.7699    0.0000 C   0  0  0  0  0  0  0  0  0  0  0  0
    4.3807    2.7773    0.0000 C   0  0  0  0  0  0  0  0  0  0  0  0
    5.1780    0.3026    0.0000 C   0  0  0  0  0  0  0  0  0  0  0  0
   -5.5078   -3.1416    0.0000 C   0  0  0  0  0  0  0  0  0  0  0  0
    2.9530    2.3173    0.0000 C   0  0  0  0  0  0  0  0  0  0  0  0
    3.7502   -0.1574    0.0000 C   0  0  0  0  0  0  0  0  0  0  0  0
   -4.0098   -3.2961    0.0000 C   0  0  0  0  0  0  0  0  0  0  0  0
   -6.1079   -1.7605    0.0000 C   0  0  0  0  0  0  0  0  0  0  0  0
   -3.7359   -0.7207    0.0000 C   0  0  0  0  0  0  0  0  0  0  0  0
    2.6377    0.8500    0.0000 C   0  0  0  0  0  0  0  0  0  0  0  0
   -3.1239   -2.0857    0.0000 C   0  0  0  0  0  0  0  0  0  0  0  0
   -5.2220   -0.5501    0.0000 C   0  0  0  0  0  0  0  0  0  0  0  0
   -0.7500   -1.0300    0.0000 C   0  0  0  0  0  0  0  0  0  0  0  0
   -1.6322   -2.2431    0.0000 C   0  0  0  0  0  0  0  0  0  0  0  0
    1.2100    0.3900    0.0000 C   0  0  0  0  0  0  0  0  0  0  0  0
   -1.2100    0.3900    0.0000 C   0  0  0  0  0  0  0  0  0  0  0  0
   -5.8231    0.8242    0.0000 Cl  0  0  0  0  0  0  0  0  0  0  0  0
    0.7500   -1.0300    0.0000 N   0  0  0  0  0  0  0  0  0  0  0  0
   -1.0227   -3.6137    0.0000 O   0  0  0  0  0  0  0  0  0  0  0  0
   -2.6377    0.8500    0.0000 O   0  0  0  0  0  0  0  0  0  0  0  0
    0.0000    1.2800    0.0000 O   0  0  0  0  0  0  0  0  0  0  0  0
  2  1  2  0
  3  1  1  0
  5  2  1  0
  6  3  2  0
  7  4  2  0
  8  4  1  0
 10  5  2  0
 10  6  1  0
 11  7  1  0
 11  9  2  0
 12  8  2  0
 12  9  1  0
 14 11  1  0
 14 13  1  0
 15 10  1  0
 16 13  1  0
 17 12  1  0
 18 13  1  0
 18 15  2  0
 19 14  2  0
 20 16  2  0
 21 15  1  0
 21 16  1  0
M  END
>  <NAME>  (33) 
4-(3-CHLOROBENZOYL)-3-PHENYL-5-OXAZOLONE

>  <SYNONYMS>  (33) 


>  <SPECTRUM TYPE>  (33) 
MS1

>  <INSTRUMENT TYPE>  (33) 
EI-B

>  <INSTRUMENT>  (33) 
JEOL JMS-DX-300

>  <ION MODE>  (33) 
P

>  <INCHIKEY>  (33) 
KMASZWZAPIAVKK-UHFFFAOYSA-N

>  <FORMULA>  (33) 
C16H10ClNO3

>  <EXACT MASS>  (33) 
299.03492086

>  <MW>  (33) 
299

>  <ID>  (33) 
JP012116

>  <CONTRIBUTOR>  (33) 
University of Tokyo Team, {Faculty of Engineering, University of Tokyo

>  <COMMENT>  (33) 
SMILES=Clc(c3)cc(cc3)C(=O)C(N=1)C(=O)OC(c(c2)cccc2)1
InChI=InChI=1S/C16H10ClNO3/c17-12-8-4-7-11(9-12)14(19)13-16(20)21-15(18-13)10-5-2-1-3-6-10/h1-9,13H
computed SMILES=O=C1OC(=NC1C(=O)C=2C=CC=C(Cl)C2)C=3C=CC=CC3
accession=JP012116
date=2016.01.19 (Created 2008.10.21, modified 2011.05.06)
author=HISAHIRO HAGIWARA, INSTITUTE FOR CHEMICAL REACTION SCIENCE TOHOKU UNIV.
license=CC BY-NC-SA
exact mass=299.03492
ionization energy=70 eV
ion type=[M]+*
computed spectral entropy=2.635864607689419
computed normalized entropy=0.7474745107000449
SPLASH=splash10-000f-1900000000-722bac3683e8617dacfe
submitter=submitter = University of Tokyo Team (Faculty of Engineering, University of Tokyo)
MoNA Rating=3.75

>  <NUM PEAKS>  (33) 
34

>  <MASS SPECTRAL PEAKS>  (33) 
39 2.19
50 5.86
51 6.9
52 1.65
62 1.28
63 3.96
74 2.73
75 14.82
76 9.57
77 7
85 1.82
87 1.1
89 5.76
90 1.18
102 15.94
103 5.61
104 3.01
105 1.64
110 1.12
111 41.36
112 7.65
113 16.32
114 2.89
116 7.46
117 1.7
132 1.21
139 99.99
140 37.26
141 76.23
142 18.18
144 2.55
156 1.05
299 4.99
301 2.22

>  <PREDICTED SPECTRUM>  (33) 
36 17
37 22
38 50
39 54
40 24
41 7
43 7
44 18
45 17
49 6
50 212
51 184
52 70
53 11
61 33
62 70
63 129
64 43
65 3
73 29
74 93
75 333
76 230
77 237
78 67
85 87
86 18
87 78
88 51
89 138
90 101
91 39
100 20
101 38
102 190
103 173
104 204
105 176
106 36
111 538
112 177
113 362
114 80
115 70
116 121
117 71
118 39
128 9
129 47
130 57
131 78
132 150
133 54
139 999
140 372
141 666
142 332
143 46
144 56
145 29
146 1
160 0
299 146
300 30
301 68
302 7

$$$$

     RDKit          2D

 21 23  0  0  0  0  0  0  0  0999 V2000
    5.4932    1.7699    0.0000 C   0  0  0  0  0  0  0  0  0  0  0  0
    4.3807    2.7773    0.0000 C   0  0  0  0  0  0  0  0  0  0  0  0
    5.1780    0.3026    0.0000 C   0  0  0  0  0  0  0  0  0  0  0  0
    2.9530    2.3173    0.0000 C   0  0  0  0  0  0  0  0  0  0  0  0
    3.7502   -0.1574    0.0000 C   0  0  0  0  0  0  0  0  0  0  0  0
   -3.7286   -0.7310    0.0000 C   0  0  0  0  0  0  0  0  0  0  0  0
   -4.0134   -3.3053    0.0000 C   0  0  0  0  0  0  0  0  0  0  0  0
   -5.2195   -0.5660    0.0000 C   0  0  0  0  0  0  0  0  0  0  0  0
   -5.5043   -3.1403    0.0000 C   0  0  0  0  0  0  0  0  0  0  0  0
   -3.1239   -2.0857    0.0000 C   0  0  0  0  0  0  0  0  0  0  0  0
    2.6377    0.8500    0.0000 C   0  0  0  0  0  0  0  0  0  0  0  0
   -6.1157   -1.7547    0.0000 C   0  0  0  0  0  0  0  0  0  0  0  0
   -0.7500   -1.0300    0.0000 C   0  0  0  0  0  0  0  0  0  0  0  0
   -1.6322   -2.2431    0.0000 C   0  0  0  0  0  0  0  0  0  0  0  0
    1.2100    0.3900    0.0000 C   0  0  0  0  0  0  0  0  0  0  0  0
   -1.2100    0.3900    0.0000 C   0  0  0  0  0  0  0  0  0  0  0  0
   -7.6057   -1.5822    0.0000 Cl  0  0  0  0  0  0  0  0  0  0  0  0
    0.7500   -1.0300    0.0000 N   0  0  0  0  0  0  0  0  0  0  0  0
   -1.0227   -3.6137    0.0000 O   0  0  0  0  0  0  0  0  0  0  0  0
   -2.6377    0.8500    0.0000 O   0  0  0  0  0  0  0  0  0  0  0  0
    0.0000    1.2800    0.0000 O   0  0  0  0  0  0  0  0  0  0  0  0
  2  1  2  0
  3  1  1  0
  4  2  1  0
  5  3  2  0
  8  6  2  0
  9  7  1  0
 10  6  1  0
 10  7  2  0
 11  4  2  0
 11  5  1  0
 12  8  1  0
 12  9  2  0
 14 10  1  0
 14 13  1  0
 15 11  1  0
 16 13  1  0
 17 12  1  0
 18 13  1  0
 18 15  2  0
 19 14  2  0
 20 16  2  0
 21 15  1  0
 21 16  1  0
M  END
>  <NAME>  (34) 
4-(4-CHLOROBENZOYL)-3-PHENYL-5-OXAZOLONE

>  <SYNONYMS>  (34) 


>  <SPECTRUM TYPE>  (34) 
MS1

>  <INSTRUMENT TYPE>  (34) 
EI-B

>  <INSTRUMENT>  (34) 
JEOL JMS-DX-300

>  <ION MODE>  (34) 
P

>  <INCHIKEY>  (34) 
JQOVUUKWQVLGJM-UHFFFAOYSA-N

>  <FORMULA>  (34) 
C16H10ClNO3

>  <EXACT MASS>  (34) 
299.03492086

>  <MW>  (34) 
299

>  <ID>  (34) 
JP012115

>  <CONTRIBUTOR>  (34) 
University of Tokyo Team, {Faculty of Engineering, University of Tokyo

>  <COMMENT>  (34) 
SMILES=Clc(c3)ccc(c3)C(=O)C(N=1)C(=O)OC(c(c2)cccc2)1
InChI=InChI=1S/C16H10ClNO3/c17-12-8-6-10(7-9-12)14(19)13-16(20)21-15(18-13)11-4-2-1-3-5-11/h1-9,13H
computed SMILES=O=C1OC(=NC1C(=O)C2=CC=C(Cl)C=C2)C=3C=CC=CC3
accession=JP012115
date=2016.01.19 (Created 2008.10.21, modified 2011.05.06)
author=HISAHIRO HAGIWARA, INSTITUTE FOR CHEMICAL REACTION SCIENCE TOHOKU UNIV.
license=CC BY-NC-SA
exact mass=299.03492
ionization energy=70 eV
ion type=[M]+*
computed spectral entropy=2.5171902850951873
computed normalized entropy=0.7263075882561405
SPLASH=splash10-000f-1900000000-5b130e3f3fe364401e87
submitter=submitter = University of Tokyo Team (Faculty of Engineering, University of Tokyo)
MoNA Rating=3.75

>  <NUM PEAKS>  (34) 
32

>  <MASS SPECTRAL PEAKS>  (34) 
39 1.81
50 4.94
51 5.41
52 1.33
62 1.08
63 3.31
74 2.68
75 12.64
76 7.66
77 5.15
85 1.52
89 4.94
102 13.52
103 4.77
104 3.46
105 1.2
110 1.03
111 33.4
112 6.07
113 12.97
114 2.24
116 6.43
117 1.44
132 1.06
139 99.99
140 35.22
141 75.3
142 17.13
144 1.84
156 1.03
299 2.83
301 1.24

>  <PREDICTED SPECTRUM>  (34) 
36 24
37 25
38 55
39 31
40 25
43 11
44 23
49 7
50 225
51 183
52 50
61 64
62 75
63 122
64 56
73 78
74 134
75 362
76 238
77 232
78 61
85 96
86 37
87 67
88 66
89 137
90 130
91 2
100 33
101 41
102 234
103 129
104 232
105 95
106 14
111 514
112 126
113 367
114 107
115 39
116 91
117 37
118 6
129 45
130 47
131 33
132 75
133 7
139 999
140 298
141 632
142 291
143 8
299 92
301 46

$$$$

     RDKit          2D

 22 24  0  0  0  0  0  0  0  0999 V2000
    3.3966    4.6694    0.0000 C   0  0  0  0  0  0  0  0  0  0  0  0
    1.9041    4.8274    0.0000 C   0  0  0  0  0  0  0  0  0  0  0  0
    4.0069    3.2983    0.0000 C   0  0  0  0  0  0  0  0  0  0  0  0
    1.0219    3.6143    0.0000 C   0  0  0  0  0  0  0  0  0  0  0  0
    3.1247    2.0851    0.0000 C   0  0  0  0  0  0  0  0  0  0  0  0
   -5.2263    0.5584    0.0000 C   0  0  0  0  0  0  0  0  0  0  0  0
   -3.7336    0.7152    0.0000 C   0  0  0  0  0  0  0  0  0  0  0  0
   -5.4994    3.1425    0.0000 C   0  0  0  0  0  0  0  0  0  0  0  0
    1.6322    2.2431    0.0000 C   0  0  0  0  0  0  0  0  0  0  0  0
   -6.1092    1.7720    0.0000 C   0  0  0  0  0  0  0  0  0  0  0  0
   -3.1239    2.0857    0.0000 C   0  0  0  0  0  0  0  0  0  0  0  0
   -4.0068    3.2994    0.0000 C   0  0  0  0  0  0  0  0  0  0  0  0
   -0.7500    1.0300    0.0000 C   0  0  0  0  0  0  0  0  0  0  0  0
    0.7500    1.0300    0.0000 C   0  0  0  0  0  0  0  0  0  0  0  0
   -1.6322    2.2431    0.0000 C   0  0  0  0  0  0  0  0  0  0  0  0
   -1.2100   -0.3900    0.0000 C   0  0  0  0  0  0  0  0  0  0  0  0
   -7.6009    1.6146    0.0000 Cl  0  0  0  0  0  0  0  0  0  0  0  0
   -3.3971    4.6698    0.0000 Cl  0  0  0  0  0  0  0  0  0  0  0  0
    1.2100   -0.3900    0.0000 N   0  0  0  0  0  0  0  0  0  0  0  0
   -1.0227    3.6137    0.0000 O   0  0  0  0  0  0  0  0  0  0  0  0
   -2.6377   -0.8500    0.0000 O   0  0  0  0  0  0  0  0  0  0  0  0
   -0.0000   -1.2800    0.0000 O   0  0  0  0  0  0  0  0  0  0  0  0
  2  1  2  0
  3  1  1  0
  4  2  1  0
  5  3  2  0
  7  6  2  0
  9  4  2  0
  9  5  1  0
 10  6  1  0
 10  8  2  0
 11  7  1  0
 12  8  1  0
 12 11  2  0
 14  9  1  0
 14 13  1  0
 15 11  1  0
 15 13  1  0
 16 13  1  0
 17 10  1  0
 18 12  1  0
 19 14  2  0
 20 15  2  0
 21 16  2  0
 22 16  1  0
 22 19  1  0
M  END
>  <NAME>  (35) 
4-(2,4-DICHLOROBENZOYL)-3-PHENYL-5-OXAZOLONE

>  <SYNONYMS>  (35) 


>  <SPECTRUM TYPE>  (35) 
MS1

>  <INSTRUMENT TYPE>  (35) 
EI-B

>  <INSTRUMENT>  (35) 
JEOL JMS-DX-300

>  <ION MODE>  (35) 
P

>  <INCHIKEY>  (35) 
ATULXUIRHBZVCU-UHFFFAOYSA-N

>  <FORMULA>  (35) 
C16H9Cl2NO3

>  <EXACT MASS>  (35) 
332.99594850799997

>  <MW>  (35) 
333

>  <ID>  (35) 
JP012114

>  <CONTRIBUTOR>  (35) 
University of Tokyo Team, {Faculty of Engineering, University of Tokyo

>  <COMMENT>  (35) 
SMILES=Clc(c3)cc(Cl)c(c3)C(=O)C(C(=O)2)C(=NO2)c(c1)cccc1
InChI=InChI=1S/C16H9Cl2NO3/c17-10-6-7-11(12(18)8-10)15(20)13-14(19-22-16(13)21)9-4-2-1-3-5-9/h1-8,13H
computed SMILES=O=C1ON=C(C=2C=CC=CC2)C1C(=O)C3=CC=C(Cl)C=C3Cl
accession=JP012114
date=2016.01.19 (Created 2008.10.21, modified 2011.05.06)
author=HISAHIRO HAGIWARA, INSTITUTE FOR CHEMICAL REACTION SCIENCE TOHOKU UNIV.
license=CC BY-NC-SA
exact mass=332.99595
ionization energy=70 eV
ion type=[M]+*
computed spectral entropy=2.7747256672760825
computed normalized entropy=0.6862949498936777
SPLASH=splash10-00b9-1900000000-8196530370c2fb450d8c
submitter=submitter = University of Tokyo Team (Faculty of Engineering, University of Tokyo)
MoNA Rating=3.75

>  <NUM PEAKS>  (35) 
57

>  <MASS SPECTRAL PEAKS>  (35) 
36 0.78
38 0.78
39 1.92
50 2.64
51 4
52 1.15
61 0.42
62 1.18
63 3.84
64 0.65
73 0.67
74 4.29
75 5.38
76 3.65
77 4.28
78 0.59
84 1.09
85 1.07
86 0.65
87 0.86
88 0.67
89 6.1
90 1.13
102 12.6
103 4.22
104 1.16
105 1.15
109 8.66
110 4.79
111 3.72
112 1.7
116 10.49
117 2.31
123 0.53
132 1.03
138 2.43
139 1.47
140 1.2
141 0.56
144 3.75
145 18.42
147 12.82
149 2.61
160 0.56
161 0.71
173 99.99
174 32.76
175 91.84
176 26.25
177 24.84
190 0.85
192 0.79
199 0.87
327 0.92
329 0.99
333 0.69
335 0.49

>  <PREDICTED SPECTRUM>  (35) 
33 6
35 34
36 68
37 28
38 85
39 145
40 104
41 39
42 38
43 44
44 87
45 4
49 13
50 194
51 245
52 130
53 71
54 22
55 42
56 5
57 56
58 28
61 40
62 131
63 232
64 112
65 154
66 74
69 11
70 9
71 62
72 40
73 67
74 235
75 336
76 122
77 245
78 118
79 33
81 3
83 14
84 94
85 86
86 120
87 92
88 20
89 194
90 124
91 96
92 13
93 23
98 19
99 27
100 41
101 194
102 227
103 160
104 94
105 74
109 303
110 173
111 201
112 85
113 68
114 67
115 137
116 196
117 134
118 51
119 34
123 55
124 27
128 106
129 69
130 31
132 15
133 5
135 22
136 50
137 55
138 84
139 82
140 53
141 1
142 30
144 13
145 438
146 84
147 364
148 20
149 153
160 68
161 28
162 31
173 999
174 343
175 900
176 353
177 360
178 109
179 21
270 5
333 114
334 30
335 98
336 47
337 38

$$$$

     RDKit          2D

 22 24  0  0  0  0  0  0  0  0999 V2000
   -7.2903    4.6109    0.0000 C   0  0  0  0  0  0  0  0  0  0  0  0
   -5.8637    5.0771    0.0000 C   0  0  0  0  0  0  0  0  0  0  0  0
   -7.6009    3.1426    0.0000 C   0  0  0  0  0  0  0  0  0  0  0  0
   -4.7477    4.0749    0.0000 C   0  0  0  0  0  0  0  0  0  0  0  0
   -6.4848    2.1404    0.0000 C   0  0  0  0  0  0  0  0  0  0  0  0
    2.0015    2.3886    0.0000 C   0  0  0  0  0  0  0  0  0  0  0  0
    0.5089    2.2318    0.0000 C   0  0  0  0  0  0  0  0  0  0  0  0
    1.7283    4.9728    0.0000 C   0  0  0  0  0  0  0  0  0  0  0  0
   -5.0582    2.6065    0.0000 C   0  0  0  0  0  0  0  0  0  0  0  0
    2.6112    3.7591    0.0000 C   0  0  0  0  0  0  0  0  0  0  0  0
   -0.3740    3.4455    0.0000 C   0  0  0  0  0  0  0  0  0  0  0  0
    0.2357    4.8160    0.0000 C   0  0  0  0  0  0  0  0  0  0  0  0
   -2.4752    1.9175    0.0000 C   0  0  0  0  0  0  0  0  0  0  0  0
   -3.9422    1.6043    0.0000 C   0  0  0  0  0  0  0  0  0  0  0  0
   -1.8657    3.2880    0.0000 C   0  0  0  0  0  0  0  0  0  0  0  0
   -1.7289    0.6248    0.0000 C   0  0  0  0  0  0  0  0  0  0  0  0
    4.1029    3.9166    0.0000 F   0  0  0  0  0  0  0  0  0  0  0  0
   -0.6461    6.0294    0.0000 F   0  0  0  0  0  0  0  0  0  0  0  0
   -4.0956    0.1195    0.0000 N   0  0  0  0  0  0  0  0  0  0  0  0
   -2.7479    4.5012    0.0000 O   0  0  0  0  0  0  0  0  0  0  0  0
   -0.2366    0.4730    0.0000 O   0  0  0  0  0  0  0  0  0  0  0  0
   -2.7264   -0.4982    0.0000 O   0  0  0  0  0  0  0  0  0  0  0  0
  2  1  2  0
  3  1  1  0
  4  2  1  0
  5  3  2  0
  7  6  2  0
  9  4  2  0
  9  5  1  0
 10  6  1  0
 10  8  2  0
 11  7  1  0
 12  8  1  0
 12 11  2  0
 14  9  1  0
 14 13  1  0
 15 11  1  0
 15 13  1  0
 16 13  1  0
 17 10  1  0
 18 12  1  0
 19 14  2  0
 20 15  2  0
 21 16  2  0
 22 16  1  0
 22 19  1  0
M  END
>  <NAME>  (36) 
4-(2,4-DIFLUOROBENZOYL)-3-PHENYL-5-ISOXAZOLONE

>  <SYNONYMS>  (36) 


>  <SPECTRUM TYPE>  (36) 
MS1

>  <INSTRUMENT TYPE>  (36) 
EI-B

>  <INSTRUMENT>  (36) 
JEOL JMS-DX-300

>  <ION MODE>  (36) 
P

>  <INCHIKEY>  (36) 
MBUZPEVHTORBKX-UHFFFAOYSA-N

>  <FORMULA>  (36) 
C16H9F2NO3

>  <EXACT MASS>  (36) 
301.055049588

>  <MW>  (36) 
301

>  <ID>  (36) 
JP012113

>  <CONTRIBUTOR>  (36) 
University of Tokyo Team, {Faculty of Engineering, University of Tokyo

>  <COMMENT>  (36) 
SMILES=Fc(c3)cc(F)c(c3)C(=O)C(C(=O)2)C(=NO2)c(c1)cccc1
InChI=InChI=1S/C16H9F2NO3/c17-10-6-7-11(12(18)8-10)15(20)13-14(19-22-16(13)21)9-4-2-1-3-5-9/h1-8,13H
computed SMILES=O=C1ON=C(C=2C=CC=CC2)C1C(=O)C3=CC=C(F)C=C3F
accession=JP012113
date=2016.01.19 (Created 2008.10.21, modified 2011.05.06)
author=HISAHIRO HAGIWARA, INSTITUTE FOR CHEMICAL REACTION SCIENCE TOHOKU UNIV.
license=CC BY-NC-SA
exact mass=301.05505
ionization energy=70 eV
ion type=[M]+*
computed spectral entropy=2.2348591918074967
computed normalized entropy=0.6706848829305468
SPLASH=splash10-0006-1900000000-34211cc94062faec8c46
submitter=submitter = University of Tokyo Team (Faculty of Engineering, University of Tokyo)
MoNA Rating=3.75

>  <NUM PEAKS>  (36) 
28

>  <MASS SPECTRAL PEAKS>  (36) 
39 1.78
50 2.23
51 4.33
52 1.38
62 1.63
63 9.76
64 1.3
74 1.4
75 1.42
76 3.42
77 4.43
89 3.88
93 1.43
94 1.18
102 12.18
103 4.46
104 1.17
112 1.85
113 26.94
114 9.38
116 4.71
123 2.88
132 1.02
140 1.33
141 99.99
142 44.17
144 1.85
301 3.4

>  <PREDICTED SPECTRUM>  (36) 
26 7
27 30
29 11
31 7
33 4
38 10
39 82
40 32
41 27
42 6
43 15
44 25
45 0
50 105
51 155
52 79
53 45
54 8
55 12
57 9
61 28
62 114
63 236
64 78
65 51
74 60
75 154
76 76
77 197
78 66
79 2
86 26
89 160
90 53
91 20
92 4
93 70
100 29
101 106
102 185
103 142
104 116
105 32
112 114
113 401
114 159
115 34
116 96
117 25
118 43
130 53
131 0
132 70
141 999
142 431
143 75
144 99
145 83
160 62
161 30
301 140
302 42

$$$$

     RDKit          2D

 25 27  0  0  0  0  0  0  0  0999 V2000
    2.0868    6.2107    0.0000 C   0  0  0  0  0  0  0  0  0  0  0  0
    0.6591    5.7480    0.0000 C   0  0  0  0  0  0  0  0  0  0  0  0
    3.2021    5.2063    0.0000 C   0  0  0  0  0  0  0  0  0  0  0  0
    0.3466    4.2809    0.0000 C   0  0  0  0  0  0  0  0  0  0  0  0
    2.8895    3.7392    0.0000 C   0  0  0  0  0  0  0  0  0  0  0  0
    1.4618    3.2765    0.0000 C   0  0  0  0  0  0  0  0  0  0  0  0
   -3.2349    1.4380    0.0000 C   0  0  0  0  0  0  0  0  0  0  0  0
   -0.2210    1.1993    0.0000 C   0  0  0  0  0  0  0  0  0  0  0  0
   -4.5351    2.1876    0.0000 C   0  0  0  0  0  0  0  0  0  0  0  0
   -3.2345   -0.0620    0.0000 C   0  0  0  0  0  0  0  0  0  0  0  0
   -5.8349    1.4373    0.0000 C   0  0  0  0  0  0  0  0  0  0  0  0
   -4.5343   -0.8124    0.0000 C   0  0  0  0  0  0  0  0  0  0  0  0
   -5.8345   -0.0627    0.0000 C   0  0  0  0  0  0  0  0  0  0  0  0
    1.1493    1.8094    0.0000 C   0  0  0  0  0  0  0  0  0  0  0  0
   -1.9362    2.1886    0.0000 C   0  0  0  0  0  0  0  0  0  0  0  0
   -0.0637   -0.2850    0.0000 C   0  0  0  0  0  0  0  0  0  0  0  0
   -4.5355    3.6876    0.0000 F   0  0  0  0  0  0  0  0  0  0  0  0
   -1.9353   -0.8119    0.0000 F   0  0  0  0  0  0  0  0  0  0  0  0
   -7.1340    2.1871    0.0000 F   0  0  0  0  0  0  0  0  0  0  0  0
   -4.5338   -2.3124    0.0000 F   0  0  0  0  0  0  0  0  0  0  0  0
   -7.1332   -0.8133    0.0000 F   0  0  0  0  0  0  0  0  0  0  0  0
    2.1471    0.6993    0.0000 N   0  0  0  0  0  0  0  0  0  0  0  0
   -1.9368    3.6886    0.0000 O   0  0  0  0  0  0  0  0  0  0  0  0
   -1.1809   -1.2859    0.0000 O   0  0  0  0  0  0  0  0  0  0  0  0
    1.4037   -0.6059    0.0000 O   0  0  0  0  0  0  0  0  0  0  0  0
  2  1  2  0
  3  1  1  0
  4  2  1  0
  5  3  2  0
  6  4  2  0
  6  5  1  0
  9  7  2  0
 10  7  1  0
 11  9  1  0
 12 10  2  0
 13 11  2  0
 13 12  1  0
 14  6  1  0
 14  8  1  0
 15  7  1  0
 15  8  1  0
 16  8  1  0
 17  9  1  0
 18 10  1  0
 19 11  1  0
 20 12  1  0
 21 13  1  0
 22 14  2  0
 23 15  2  0
 24 16  2  0
 25 16  1  0
 25 22  1  0
M  END
>  <NAME>  (37) 
4-(PENTAFLUOROBENZOYL)-1-OXA-3-PHENYL-2-AZACYCLOPENT-2-EN-5-ONE

>  <SYNONYMS>  (37) 


>  <SPECTRUM TYPE>  (37) 
MS1

>  <INSTRUMENT TYPE>  (37) 
EI-B

>  <INSTRUMENT>  (37) 
JEOL JMS-DX-300

>  <ION MODE>  (37) 
P

>  <INCHIKEY>  (37) 
HPQAVSVVQHKXOS-UHFFFAOYSA-N

>  <FORMULA>  (37) 
C16H6F5NO3

>  <EXACT MASS>  (37) 
355.026784152

>  <MW>  (37) 
355

>  <ID>  (37) 
JP012112

>  <CONTRIBUTOR>  (37) 
University of Tokyo Team, {Faculty of Engineering, University of Tokyo

>  <COMMENT>  (37) 
SMILES=c(c3)ccc(c3)C(=N2)C(C(=O)O2)C(=O)c(c(F)1)c(F)c(F)c(F)c(F)1
InChI=InChI=1S/C16H6F5NO3/c17-9-7(10(18)12(20)13(21)11(9)19)15(23)8-14(22-25-16(8)24)6-4-2-1-3-5-6/h1-5,8H
computed SMILES=O=C1ON=C(C=2C=CC=CC2)C1C(=O)C=3C(F)=C(F)C(F)=C(F)C3F
accession=JP012112
date=2016.01.19 (Created 2008.10.21, modified 2011.05.06)
author=HISAHIRO HAGIWARA, INSTITUTE FOR CHEMICAL REACTION SCIENCE TOHOKU UNIV.
license=CC BY-NC-SA
exact mass=355.02678
ionization energy=70 eV
ion type=[M]+*
computed spectral entropy=1.784079513275548
computed normalized entropy=0.5859965067656437
SPLASH=splash10-0002-1900000000-e4b473f8929ac6e78d64
submitter=submitter = University of Tokyo Team (Faculty of Engineering, University of Tokyo)
MoNA Rating=3.75

>  <NUM PEAKS>  (37) 
21

>  <MASS SPECTRAL PEAKS>  (37) 
39 2.1
50 1.9
51 3
52 1.2
63 2.9
74 1.1
75 1.3
76 2.7
77 1.7
89 3.1
93 1.2
102 8.5
103 1.6
116 1.4
117 5.4
167 16.2
168 1.3
195 99.99
196 11.8
311 1.1
355 4.7

>  <PREDICTED SPECTRUM>  (37) 
27 25
31 25
33 14
38 14
39 150
40 54
41 21
43 24
44 41
50 109
51 188
52 89
53 31
62 69
63 140
64 57
65 37
66 20
69 14
74 105
75 132
76 66
77 201
78 21
79 53
81 17
87 6
88 9
89 169
90 52
91 44
93 60
99 89
100 6
101 98
102 162
103 154
104 26
105 37
107 21
115 155
116 135
117 212
118 20
119 44
131 28
134 17
138 18
139 26
140 0
144 14
150 32
151 25
152 20
160 16
161 63
167 402
168 161
179 73
195 999
196 320
197 29
207 3
355 262
356 0
357 1

$$$$

     RDKit          2D

 13 13  0  0  0  0  0  0  0  0999 V2000
    6.1262    0.5408    0.0000 C   0  0  0  0  0  0  0  0  0  0  0  0
   -0.3700   -1.7100    0.0000 C   0  0  0  0  0  0  0  0  0  0  0  0
    7.4251    1.2910    0.0000 C   0  0  0  0  0  0  0  0  0  0  0  0
    4.8270    1.2906    0.0000 C   0  0  0  0  0  0  0  0  0  0  0  0
   -1.6700   -0.9600    0.0000 C   0  0  0  0  0  0  0  0  0  0  0  0
    0.9300   -0.9600    0.0000 C   0  0  0  0  0  0  0  0  0  0  0  0
    8.7240    2.0412    0.0000 C   0  0  0  0  0  0  0  0  0  0  0  0
    3.5281    0.5404    0.0000 C   0  0  0  0  0  0  0  0  0  0  0  0
   -1.6700    0.5400    0.0000 C   0  0  0  0  0  0  0  0  0  0  0  0
    0.9300    0.5400    0.0000 C   0  0  0  0  0  0  0  0  0  0  0  0
   10.0229    2.7915    0.0000 Br  0  0  0  0  0  0  0  0  0  0  0  0
    2.2289    1.2902    0.0000 O   0  0  0  0  0  0  0  0  0  0  0  0
   -0.3700    1.2900    0.0000 O   0  0  0  0  0  0  0  0  0  0  0  0
  3  1  1  0
  4  1  1  0
  5  2  1  0
  6  2  1  0
  7  3  3  0
  8  4  1  0
  9  5  1  0
 10  6  1  0
 11  7  1  0
 12  8  1  0
 12 10  1  0
 13  9  1  0
 13 10  1  0
M  END
>  <NAME>  (38) 
1-BROMO-5-TETRAHYDROPYRANYLOXY-1-PENTYNE

>  <SYNONYMS>  (38) 


>  <SPECTRUM TYPE>  (38) 
MS1

>  <INSTRUMENT TYPE>  (38) 
EI-B

>  <INSTRUMENT>  (38) 
JEOL JMS-DX-300

>  <ION MODE>  (38) 
P

>  <INCHIKEY>  (38) 
NFAQYDQDGGRJQU-UHFFFAOYSA-N

>  <FORMULA>  (38) 
C10H15BrO2

>  <EXACT MASS>  (38) 
246.02554182

>  <MW>  (38) 
246

>  <ID>  (38) 
JP012109

>  <CONTRIBUTOR>  (38) 
University of Tokyo Team, {Faculty of Engineering, University of Tokyo

>  <COMMENT>  (38) 
SMILES=BrC#CCCCOC(C1)OCCC1
InChI=InChI=1S/C10H15BrO2/c11-7-3-1-4-8-12-10-6-2-5-9-13-10/h10H,1-2,4-6,8-9H2
computed SMILES=BrC#CCCCOC1OCCCC1
exact mass=246.02554
accession=JP012109
date=2016.01.19 (Created 2008.10.21, modified 2011.05.06)
author=HISAHIRO HAGIWARA, INSTITUTE FOR CHEMICAL REACTION SCIENCE TOHOKU UNIV.
license=CC BY-NC-SA
ionization energy=70 eV
ion type=[M]+*
computed spectral entropy=3.5414225718167684
computed normalized entropy=0.8580826892018143
SPLASH=splash10-05n0-9300000000-fa87d76c5b1e3844b5a9
submitter=submitter = University of Tokyo Team (Faculty of Engineering, University of Tokyo)
MoNA Rating=3.75

>  <NUM PEAKS>  (38) 
62

>  <MASS SPECTRAL PEAKS>  (38) 
38 5.8
39 24.3
40 2.4
41 33.1
42 3.8
43 14.1
44 2.7
50 3.5
51 8.7
52 3.8
53 10
54 3.7
55 39.1
56 24.7
57 15.8
63 2.1
65 51.1
66 24.1
67 19.5
69 2.2
77 2.6
79 4.7
80 3.7
81 7.5
82 3.6
83 11.5
84 6.6
85 99.99
86 8
87 2.1
91 3
93 2.2
101 2.9
109 4.5
111 4.6
117 7.4
119 8.3
120 2.5
122 2.1
144 9.5
145 9.7
146 10.4
147 10.2
162 19.3
163 10.8
164 18.8
165 10.3
167 8.7
188 3.1
190 4.7
191 2.5
192 2
199 2.1
224 4.5
225 2.4
226 8.3
227 3.8
228 4.3
229 2
242 2.3
245 2.3
247 3

>  <PREDICTED SPECTRUM>  (38) 
26 72
27 161
28 36
29 147
31 28
36 3
37 17
38 70
39 304
40 128
41 551
42 259
43 400
44 138
45 61
47 20
49 44
50 122
51 232
52 155
53 298
54 253
55 522
56 428
57 453
58 41
62 37
63 104
64 53
65 261
66 205
67 407
68 87
69 131
70 23
75 30
77 110
78 98
79 170
80 116
81 202
82 157
83 298
84 255
85 999
86 290
89 64
91 68
92 24
93 112
94 67
95 96
96 0
99 23
100 7
101 309
102 93
103 122
105 30
107 27
109 155
110 77
111 183
112 15
116 4
117 177
118 67
119 126
120 64
121 160
122 35
123 2
124 11
125 6
131 27
133 23
144 223
145 521
146 253
147 410
148 189
149 14
153 52
161 110
162 199
163 145
164 213
165 186
166 1
167 183
174 29
175 65
191 135
192 67
193 35
220 17
245 225
246 47
247 115
248 86
249 41

$$$$

     RDKit          2D

 25 28  0  0  0  0  0  0  0  0999 V2000
   13.8517   -1.3005    0.0000 C   0  0  0  0  0  0  0  0  0  0  0  0
   13.1017   -0.0005    0.0000 C   0  0  0  0  0  0  0  0  0  0  0  0
   13.1017   -2.6005    0.0000 C   0  0  0  0  0  0  0  0  0  0  0  0
   -2.3100   -0.7500    0.0000 C   0  0  0  0  0  0  0  0  0  0  0  0
   -2.3100    0.7500    0.0000 C   0  0  0  0  0  0  0  0  0  0  0  0
   11.6017   -0.0005    0.0000 C   0  0  0  0  0  0  0  0  0  0  0  0
   11.6017   -2.6005    0.0000 C   0  0  0  0  0  0  0  0  0  0  0  0
   -1.0100   -1.5000    0.0000 C   0  0  0  0  0  0  0  0  0  0  0  0
   -1.0100    1.5000    0.0000 C   0  0  0  0  0  0  0  0  0  0  0  0
    9.3517   -1.3005    0.0000 C   0  0  0  0  0  0  0  0  0  0  0  0
    8.6017   -0.0014    0.0000 C   0  0  0  0  0  0  0  0  0  0  0  0
    6.3515   -1.3004    0.0000 C   0  0  0  0  0  0  0  0  0  0  0  0
    6.3510    1.2982    0.0000 C   0  0  0  0  0  0  0  0  0  0  0  0
    4.8506   -1.2996    0.0000 C   0  0  0  0  0  0  0  0  0  0  0  0
    4.8502    1.2989    0.0000 C   0  0  0  0  0  0  0  0  0  0  0  0
   10.8517   -1.3005    0.0000 C   0  0  0  0  0  0  0  0  0  0  0  0
    7.1017   -0.0014    0.0000 C   0  0  0  0  0  0  0  0  0  0  0  0
    4.1000   -0.0000    0.0000 C   0  0  0  0  0  0  0  0  0  0  0  0
    0.2900   -0.7500    0.0000 C   0  0  0  0  0  0  0  0  0  0  0  0
    0.2900    0.7500    0.0000 C   0  0  0  0  0  0  0  0  0  0  0  0
    2.6000    0.0000    0.0000 C   0  0  0  0  0  0  0  0  0  0  0  0
    1.7200   -1.2100    0.0000 C   0  0  0  0  0  0  0  0  0  0  0  0
    1.7200    1.2100    0.0000 C   0  0  0  0  0  0  0  0  0  0  0  0
    2.1853   -2.6360    0.0000 O   0  0  0  0  0  0  0  0  0  0  0  0
    2.1853    2.6360    0.0000 O   0  0  0  0  0  0  0  0  0  0  0  0
  2  1  2  0
  3  1  1  0
  5  4  2  0
  6  2  1  0
  7  3  2  0
  8  4  1  0
  9  5  1  0
 10 11  2  0
 14 12  2  0
 15 13  1  0
 16  6  2  0
 16  7  1  0
 16 10  1  0
 17 11  1  0
 17 12  1  0
 17 13  2  0
 18 14  1  0
 18 15  2  0
 19  8  2  0
 20  9  2  0
 20 19  1  0
 21 18  1  0
 22 19  1  0
 22 21  1  0
 23 20  1  0
 23 21  1  0
 24 22  2  0
 25 23  2  0
M  END
>  <NAME>  (39) 
3-(4-STYRYLPHENYL)INDAN-1,3-DIONE

>  <SYNONYMS>  (39) 


>  <SPECTRUM TYPE>  (39) 
MS1

>  <INSTRUMENT TYPE>  (39) 
EI-B

>  <INSTRUMENT>  (39) 
JEOL JMS-DX-300

>  <ION MODE>  (39) 
P

>  <INCHIKEY>  (39) 
AWDAOSFUOPBPIE-ZHACJKMWSA-N

>  <FORMULA>  (39) 
C23H16O2

>  <EXACT MASS>  (39) 
324.115029752

>  <MW>  (39) 
324

>  <ID>  (39) 
JP012107

>  <CONTRIBUTOR>  (39) 
University of Tokyo Team, {Faculty of Engineering, University of Tokyo

>  <COMMENT>  (39) 
SMILES=c(c4)ccc(c4)C=Cc(c3)ccc(c3)C(C(=O)1)C(=O)c(c2)c(ccc2)1
InChI=InChI=1S/C23H16O2/c24-22-19-8-4-5-9-20(19)23(25)21(22)18-14-12-17(13-15-18)11-10-16-6-2-1-3-7-16/h1-15,21H/b11-10+
computed SMILES=O=C1C=2C=CC=CC2C(=O)C1C3=CC=C(C=CC=4C=CC=CC4)C=C3
accession=JP012107
date=2016.01.19 (Created 2008.10.21, modified 2011.05.06)
author=HISAHIRO HAGIWARA, INSTITUTE FOR CHEMICAL REACTION SCIENCE TOHOKU UNIV.
license=CC BY-NC-SA
exact mass=324.11503
ionization energy=70 eV
ion type=[M]+*
computed spectral entropy=3.100827949980116
computed normalized entropy=0.809902946988874
SPLASH=splash10-00fr-1739000000-3a779110e18161641842
submitter=submitter = University of Tokyo Team (Faculty of Engineering, University of Tokyo)
MoNA Rating=3.75

>  <NUM PEAKS>  (39) 
46

>  <MASS SPECTRAL PEAKS>  (39) 
40 4.7
44 4.3
50 2.4
51 2.3
63 2.1
76 6.2
77 5
89 2.1
103 2.5
104 2.7
105 4
115 3.4
126 4.3
133 3.8
139 3.4
152 2
162 6
163 2.7
164 2
165 10.2
166 2.2
178 20.6
179 20.1
180 3.1
189 9.9
190 3.9
191 11.4
192 2.4
239 2.3
252 8.8
253 3.2
263 3.1
265 12.8
266 5.1
267 4.4
276 3.9
277 4.2
278 3.6
279 2.7
295 3.9
305 6.6
306 2.3
323 3.9
324 99.99
325 28.2
326 4.2

>  <PREDICTED SPECTRUM>  (39) 
26 3
27 33
28 34
34 4
38 8
39 133
40 42
41 65
43 5
44 47
45 3
50 105
51 183
52 79
53 55
55 32
62 43
63 127
64 30
65 97
67 3
71 19
74 59
75 95
76 160
77 249
78 81
79 42
81 11
82 28
83 21
87 21
88 79
89 191
90 53
91 111
92 26
93 20
94 20
96 30
98 13
100 0
101 57
102 80
103 169
104 79
105 101
106 150
107 47
111 2
112 3
113 101
114 65
115 121
116 58
117 33
118 82
119 71
120 60
121 14
122 16
123 6
125 41
126 142
127 27
128 29
129 18
130 34
131 77
132 55
133 64
134 24
138 13
139 134
140 41
141 8
149 11
150 51
151 108
152 169
153 57
163 104
164 92
165 245
166 197
167 67
168 34
176 114
177 89
178 595
179 593
180 84
188 0
189 178
190 169
191 210
192 134
193 47
201 15
202 44
205 8
213 7
214 14
220 5
221 52
226 52
233 45
234 58
238 1
239 74
240 29
241 1
247 32
250 142
251 62
252 269
253 124
254 10
263 52
264 52
265 299
266 123
267 117
268 60
269 36
275 12
276 105
277 113
278 100
279 139
280 5
295 170
296 76
305 47
306 64
307 58
309 16
322 25
323 237
324 999
325 502
326 175
327 24

$$$$

     RDKit          2D

 18 18  0  0  0  0  0  0  0  0999 V2000
    1.4772    1.2395    0.0000 C   0  0  0  0  0  0  0  0  0  0  0  0
    0.5130    2.9095    0.0000 C   0  0  0  0  0  0  0  0  0  0  0  0
    0.5130   -1.4095    0.0000 C   0  0  0  0  0  0  0  0  0  0  0  0
    1.4772    0.2605    0.0000 C   0  0  0  0  0  0  0  0  0  0  0  0
   -0.3349    3.3991    0.0000 C   0  0  0  0  0  0  0  0  0  0  0  0
   -2.2632    3.3991    0.0000 C   0  0  0  0  0  0  0  0  0  0  0  0
   -2.2632   -1.8991    0.0000 C   0  0  0  0  0  0  0  0  0  0  0  0
   -0.3349   -1.8991    0.0000 C   0  0  0  0  0  0  0  0  0  0  0  0
   -3.1111    2.9095    0.0000 C   0  0  0  0  0  0  0  0  0  0  0  0
   -4.0753    1.2395    0.0000 C   0  0  0  0  0  0  0  0  0  0  0  0
   -4.0753    0.2605    0.0000 C   0  0  0  0  0  0  0  0  0  0  0  0
   -3.1111   -1.4095    0.0000 C   0  0  0  0  0  0  0  0  0  0  0  0
    0.0000    1.5000    0.0000 Si  0  0  0  0  0  4  0  0  0  0  0  0
    0.0000    0.0000    0.0000 Si  0  0  0  0  0  4  0  0  0  0  0  0
   -1.2990    2.2500    0.0000 Si  0  0  0  0  0  4  0  0  0  0  0  0
   -1.2990   -0.7500    0.0000 Si  0  0  0  0  0  4  0  0  0  0  0  0
   -2.5981    1.5000    0.0000 Si  0  0  0  0  0  4  0  0  0  0  0  0
   -2.5981   -0.0000    0.0000 Si  0  0  0  0  0  4  0  0  0  0  0  0
 13  1  1  0
 13  2  1  0
 14  3  1  0
 14  4  1  0
 14 13  1  0
 15  5  1  0
 15  6  1  0
 15 13  1  0
 16  7  1  0
 16  8  1  0
 16 14  1  0
 17  9  1  0
 17 10  1  0
 17 15  1  0
 18 11  1  0
 18 12  1  0
 18 16  1  0
 18 17  1  0
M  END
>  <NAME>  (40) 
DODECAMETHYLCYCLOHEXASILANE

>  <SYNONYMS>  (40) 


>  <SPECTRUM TYPE>  (40) 
MS1

>  <INSTRUMENT TYPE>  (40) 
EI-B

>  <INSTRUMENT>  (40) 
JEOL JMS-DX-300

>  <ION MODE>  (40) 
P

>  <INCHIKEY>  (40) 
RTCLHEHPUHREBC-UHFFFAOYSA-N

>  <FORMULA>  (40) 
C12H36Si6

>  <EXACT MASS>  (40) 
348.14326033199995

>  <MW>  (40) 
348

>  <ID>  (40) 
JP012106

>  <CONTRIBUTOR>  (40) 
University of Tokyo Team, {Faculty of Engineering, University of Tokyo

>  <COMMENT>  (40) 
SMILES=C[Si](C)([Si](C)(C)1)[Si](C)(C)[Si](C)(C)[Si](C)(C)[Si](C)(C)1
InChI=InChI=1S/C12H36Si6/c1-13(2)14(3,4)16(7,8)18(11,12)17(9,10)15(13,5)6/h1-12H3
computed SMILES=C[Si]1(C)[Si](C)(C)[Si](C)(C)[Si](C)(C)[Si](C)(C)[Si]1(C)C
accession=JP012106
date=2016.01.19 (Created 2008.10.21, modified 2011.05.06)
author=HISAHIRO HAGIWARA, INSTITUTE FOR CHEMICAL REACTION SCIENCE TOHOKU UNIV.
license=CC BY-NC-SA
exact mass=348.14326
ionization energy=70 eV
ion type=[M]+*
computed spectral entropy=1.8982725817394832
computed normalized entropy=0.6446975451591384
SPLASH=splash10-0006-9000000000-b8ab57b492be784ec26a
submitter=submitter = University of Tokyo Team (Faculty of Engineering, University of Tokyo)
MoNA Rating=3.75

>  <NUM PEAKS>  (40) 
19

>  <MASS SPECTRAL PEAKS>  (40) 
38 2.8
39 3.7
42 5.7
43 99.99
56 2
57 2.4
58 34.5
71 2.3
73 8.1
83 2.6
105 2.6
131 3.3
199 3.4
201 4.4
215 2.9
259 3.4
348 5.3
349 5.5
350 3.1

>  <PREDICTED SPECTRUM>  (40) 
41 17
42 44
43 188
44 47
45 171
46 2
47 25
49 2
53 45
55 193
56 81
57 147
58 157
59 464
60 106
61 20
69 149
70 106
71 205
72 15
73 785
74 269
75 155
77 8
83 190
84 45
85 244
86 86
87 193
88 34
89 47
97 44
98 44
99 364
100 233
101 299
102 124
103 88
111 83
112 19
113 343
114 56
115 324
116 244
117 147
118 13
125 435
126 100
127 344
128 198
129 280
130 100
131 267
132 98
133 89
139 20
141 440
142 100
143 354
144 101
145 201
146 26
147 92
148 4
153 76
154 53
155 228
156 156
157 644
158 309
159 330
160 165
161 134
162 15
167 84
168 4
169 206
170 37
171 555
172 267
173 331
174 110
175 37
178 5
179 107
180 111
182 44
183 57
184 128
185 517
186 551
187 728
188 340
189 335
190 86
195 32
197 257
198 126
199 601
200 364
201 999
202 679
203 462
204 119
205 67
210 62
211 153
212 116
213 232
214 176
215 684
216 405
217 490
218 135
219 228
220 95
221 126
223 16
225 26
226 56
227 210
228 123
229 272
230 73
231 68
232 39
233 6
235 77
240 86
241 346
242 178
243 142
244 135
245 405
247 29
253 32
254 8
255 182
256 204
257 288
258 220
259 503
260 681
261 429
262 333
263 17
270 4
271 151
272 37
273 239
274 131
275 209
276 181
277 207
278 127
279 171
285 15
288 81
289 77
290 128
291 112
295 91
303 17
333 211
334 135
335 52
347 18
348 531
350 466
351 179
352 173
353 64

$$$$

     RDKit          2D

 20 19  0  0  0  0  0  0  0  0999 V2000
    6.9240    1.1848    0.0000 C   0  0  0  0  0  0  0  0  0  0  0  0
    4.3260   -0.3152    0.0000 C   0  0  0  0  0  0  0  0  0  0  0  0
    6.3750   -0.8642    0.0000 C   0  0  0  0  0  0  0  0  0  0  0  0
    0.9540    5.4976    0.0000 C   0  0  0  0  0  0  0  0  0  0  0  0
   -1.0950    6.0466    0.0000 C   0  0  0  0  0  0  0  0  0  0  0  0
   -1.6440    3.9976    0.0000 C   0  0  0  0  0  0  0  0  0  0  0  0
    6.2845    2.2469    0.0000 C   0  0  0  0  0  0  0  0  0  0  0  0
    4.6145    3.2110    0.0000 C   0  0  0  0  0  0  0  0  0  0  0  0
   -1.0045    2.9355    0.0000 C   0  0  0  0  0  0  0  0  0  0  0  0
    0.6655    1.9713    0.0000 C   0  0  0  0  0  0  0  0  0  0  0  0
    1.9655    1.2208    0.0000 C   0  0  0  0  0  0  0  0  0  0  0  0
    3.6355    0.2566    0.0000 C   0  0  0  0  0  0  0  0  0  0  0  0
    3.7945    3.9616    0.0000 C   0  0  0  0  0  0  0  0  0  0  0  0
    2.1245    4.9258    0.0000 C   0  0  0  0  0  0  0  0  0  0  0  0
    5.6250    0.4348    0.0000 Si  0  0  0  0  0  4  0  0  0  0  0  0
   -0.3450    4.7476    0.0000 Si  0  0  0  0  0  4  0  0  0  0  0  0
    4.8750    1.7338    0.0000 Si  0  0  0  0  0  4  0  0  0  0  0  0
    0.4050    3.4486    0.0000 Si  0  0  0  0  0  4  0  0  0  0  0  0
    3.3750    1.7338    0.0000 Si  0  0  0  0  0  4  0  0  0  0  0  0
    2.3850    3.4486    0.0000 Si  0  0  0  0  0  4  0  0  0  0  0  0
 15  1  1  0
 15  2  1  0
 15  3  1  0
 16  4  1  0
 16  5  1  0
 16  6  1  0
 17  7  1  0
 17  8  1  0
 17 15  1  0
 18  9  1  0
 18 10  1  0
 18 16  1  0
 19 11  1  0
 19 12  1  0
 19 17  1  0
 20 13  1  0
 20 14  1  0
 20 18  1  0
 20 19  1  0
M  END
>  <NAME>  (41) 
TETRADECAMETHYLHEXASILANE

>  <SYNONYMS>  (41) 


>  <SPECTRUM TYPE>  (41) 
MS1

>  <INSTRUMENT TYPE>  (41) 
EI-B

>  <INSTRUMENT>  (41) 
JEOL JMS-DX-300

>  <ION MODE>  (41) 
P

>  <INCHIKEY>  (41) 
MYVYLCKNQVLMQO-UHFFFAOYSA-N

>  <FORMULA>  (41) 
C14H42Si6

>  <EXACT MASS>  (41) 
378.190210524

>  <MW>  (41) 
378

>  <ID>  (41) 
JP012105

>  <CONTRIBUTOR>  (41) 
University of Tokyo Team, {Faculty of Engineering, University of Tokyo

>  <COMMENT>  (41) 
SMILES=C[Si](C)(C)[Si](C)(C)[Si](C)(C)[Si](C)(C)[Si](C)(C)[Si](C)(C)C
InChI=InChI=1S/C14H42Si6/c1-15(2,3)17(7,8)19(11,12)20(13,14)18(9,10)16(4,5)6/h1-14H3
computed SMILES=C[Si](C)(C)[Si](C)(C)[Si](C)(C)[Si](C)(C)[Si](C)(C)[Si](C)(C)C
accession=JP012105
date=2016.01.19 (Created 2008.10.21, modified 2011.05.06)
author=HISAHIRO HAGIWARA, INSTITUTE FOR CHEMICAL REACTION SCIENCE TOHOKU UNIV.
license=CC BY-NC-SA
exact mass=378.19021
ionization energy=70 eV
ion type=[M]+*
computed spectral entropy=3.322560818472535
computed normalized entropy=0.888939140639861
SPLASH=splash10-00dl-9611000000-b806527da8ea1fbad91e
submitter=submitter = University of Tokyo Team (Faculty of Engineering, University of Tokyo)
MoNA Rating=3.75

>  <NUM PEAKS>  (41) 
42

>  <MASS SPECTRAL PEAKS>  (41) 
33 6.4
42 5.4
43 99.6
45 12
47 9
58 41.2
59 14.6
73 99.99
74 8.8
75 34.1
77 18.8
79 7
81 12.6
99 6.7
101 6.5
113 5.9
115 11.5
116 22.2
117 8.5
129 10.8
131 25.7
145 5.9
157 10.7
158 6.2
159 12.1
171 7.4
173 47.7
174 32.8
175 12.9
187 5.3
189 31.7
190 8.3
191 5.8
205 10.3
215 8.3
231 11.9
232 9.3
247 17.9
248 6.3
378 29.5
379 14.3
380 10

>  <PREDICTED SPECTRUM>  (41) 
29 52
31 31
41 32
43 215
45 183
46 1
47 76
53 3
55 27
57 74
58 62
59 389
69 122
71 15
73 999
74 239
75 195
76 18
77 106
83 11
84 1
85 107
86 5
87 42
91 58
97 89
98 54
99 175
100 40
101 229
102 19
103 133
104 24
105 65
113 187
114 132
115 348
116 445
117 304
118 105
119 5
121 34
123 106
127 9
128 20
129 559
130 127
131 593
132 149
133 119
135 69
136 14
137 5
143 27
145 213
146 70
147 67
149 89
151 3
157 239
158 145
159 281
160 36
161 91
162 29
163 60
165 3
171 192
172 163
173 824
174 865
175 356
176 107
177 98
187 233
188 66
189 754
190 282
191 223
203 37
204 73
205 241
206 46
213 0
215 245
216 59
217 171
218 87
219 3
224 2
231 392
232 168
233 88
246 148
247 388
248 241
249 39
262 32
263 82
275 11
277 66
306 41
361 19
364 14
378 467
379 256
380 237
382 25

$$$$

     RDKit          2D

 10 11  0  0  0  0  0  0  0  0999 V2000
   -2.6000   -0.7500    0.0000 C   0  0  0  0  0  0  0  0  0  0  0  0
   -2.6000    0.7500    0.0000 C   0  0  0  0  0  0  0  0  0  0  0  0
    2.6000   -0.7500    0.0000 C   0  0  0  0  0  0  0  0  0  0  0  0
    2.6000    0.7500    0.0000 C   0  0  0  0  0  0  0  0  0  0  0  0
   -1.3000   -1.5000    0.0000 C   0  0  0  0  0  0  0  0  0  0  0  0
   -1.3000    1.5000    0.0000 C   0  0  0  0  0  0  0  0  0  0  0  0
    1.3000   -1.5000    0.0000 C   0  0  0  0  0  0  0  0  0  0  0  0
    1.3000    1.5000    0.0000 C   0  0  0  0  0  0  0  0  0  0  0  0
    0.0000   -0.7500    0.0000 C   0  0  0  0  0  0  0  0  0  0  0  0
    0.0000    0.7500    0.0000 C   0  0  0  0  0  0  0  0  0  0  0  0
  2  1  2  0
  4  3  1  0
  5  1  1  0
  6  2  1  0
  7  3  1  0
  8  4  1  0
  9  5  2  0
  9  7  1  0
 10  6  2  0
 10  8  1  0
 10  9  1  0
M  END
>  <NAME>  (42) 
TETRALIN

>  <SYNONYMS>  (42) 


>  <SPECTRUM TYPE>  (42) 
MS1

>  <INSTRUMENT TYPE>  (42) 
EI-B

>  <INSTRUMENT>  (42) 
JEOL JMS-DX-300

>  <ION MODE>  (42) 
P

>  <INCHIKEY>  (42) 
CXWXQJXEFPUFDZ-UHFFFAOYSA-N

>  <FORMULA>  (42) 
C10H12

>  <EXACT MASS>  (42) 
132.093900384

>  <MW>  (42) 
132

>  <ID>  (42) 
JP012104

>  <CONTRIBUTOR>  (42) 
University of Tokyo Team, {Faculty of Engineering, University of Tokyo

>  <COMMENT>  (42) 
SMILES=C(C2)Cc(c1)c(C2)ccc1
InChI=InChI=1S/C10H12/c1-2-6-10-8-4-3-7-9(10)5-1/h1-2,5-6H,3-4,7-8H2
computed SMILES=C=1C=CC2=C(C1)CCCC2
accession=JP012104
date=2016.01.19 (Created 2008.10.21, modified 2011.05.06)
author=HISAHIRO HAGIWARA, INSTITUTE FOR CHEMICAL REACTION SCIENCE TOHOKU UNIV.
license=CC BY-NC-SA
exact mass=132.0939
ionization energy=70 eV
ion type=[M]+*
computed spectral entropy=2.8410830212856046
computed normalized entropy=0.775497533742077
SPLASH=splash10-0ue9-4900000000-6df963605be8ec78f34c
submitter=submitter = University of Tokyo Team (Faculty of Engineering, University of Tokyo)
MoNA Rating=3.75

>  <NUM PEAKS>  (42) 
39

>  <MASS SPECTRAL PEAKS>  (42) 
39 7.2
41 2
50 3.2
51 10.1
52 2.4
53 2.9
57 2.2
58 1.9
62 1.7
63 6.3
64 8.1
65 11
66 1.3
74 1.8
75 1.7
76 1.8
77 9.7
78 10
79 1.8
89 2.8
91 48.4
92 4.1
101 1
102 3.2
103 8.9
104 99.99
105 10.6
115 14.6
116 6.6
117 16.1
118 1.6
126 1.4
127 4.5
128 10
129 6.8
130 2.3
131 15.7
132 68.2
133 7.8

>  <PREDICTED SPECTRUM>  (42) 
15 44
18 0
26 6
27 93
28 84
37 41
38 126
39 374
40 108
41 169
43 2
49 25
50 257
51 430
52 231
53 196
54 4
55 41
58 73
61 93
62 183
63 351
64 263
65 361
66 92
73 23
74 163
75 199
76 194
77 495
78 406
79 218
80 35
86 40
87 97
88 45
89 267
90 72
91 600
92 355
101 41
102 173
103 379
104 826
105 353
106 8
113 21
114 30
115 589
116 434
117 886
118 332
119 19
127 236
128 331
129 277
130 126
131 310
132 999
133 327
134 21

$$$$

     RDKit          2D

 38 43  0  0  0  0  0  0  0  0999 V2000
    5.1442    0.3500    0.0000 C   0  0  0  0  0  0  0  0  0  0  0  0
    4.1396    6.0472    0.0000 C   0  0  0  0  0  0  0  0  0  0  0  0
   -1.6455    6.0472    0.0000 C   0  0  0  0  0  0  0  0  0  0  0  0
   -5.6118    4.1000    0.0000 C   0  0  0  0  0  0  0  0  0  0  0  0
   -3.7759   -2.0772    0.0000 C   0  0  0  0  0  0  0  0  0  0  0  0
    2.0092   -2.0772    0.0000 C   0  0  0  0  0  0  0  0  0  0  0  0
    5.1447    1.8508    0.0000 C   0  0  0  0  0  0  0  0  0  0  0  0
    3.8447   -0.4008    0.0000 C   0  0  0  0  0  0  0  0  0  0  0  0
    2.6617    6.3083    0.0000 C   0  0  0  0  0  0  0  0  0  0  0  0
    4.6534    4.6370    0.0000 C   0  0  0  0  0  0  0  0  0  0  0  0
   -2.1592    4.6370    0.0000 C   0  0  0  0  0  0  0  0  0  0  0  0
   -0.1675    6.3083    0.0000 C   0  0  0  0  0  0  0  0  0  0  0  0
   -5.6123    2.5992    0.0000 C   0  0  0  0  0  0  0  0  0  0  0  0
   -4.3123    4.8508    0.0000 C   0  0  0  0  0  0  0  0  0  0  0  0
   -2.2979   -2.3383    0.0000 C   0  0  0  0  0  0  0  0  0  0  0  0
   -4.2897   -0.6670    0.0000 C   0  0  0  0  0  0  0  0  0  0  0  0
    2.5230   -0.6670    0.0000 C   0  0  0  0  0  0  0  0  0  0  0  0
    0.5312   -2.3383    0.0000 C   0  0  0  0  0  0  0  0  0  0  0  0
    3.8456    2.6008    0.0000 C   0  0  0  0  0  0  0  0  0  0  0  0
    2.5456    0.3492    0.0000 C   0  0  0  0  0  0  0  0  0  0  0  0
    1.6975    5.1592    0.0000 C   0  0  0  0  0  0  0  0  0  0  0  0
    3.6892    3.4880    0.0000 C   0  0  0  0  0  0  0  0  0  0  0  0
   -1.1951    3.4880    0.0000 C   0  0  0  0  0  0  0  0  0  0  0  0
    0.7967    5.1592    0.0000 C   0  0  0  0  0  0  0  0  0  0  0  0
   -4.3133    1.8492    0.0000 C   0  0  0  0  0  0  0  0  0  0  0  0
   -3.0133    4.1008    0.0000 C   0  0  0  0  0  0  0  0  0  0  0  0
   -1.3338   -1.1892    0.0000 C   0  0  0  0  0  0  0  0  0  0  0  0
   -3.3255    0.4820    0.0000 C   0  0  0  0  0  0  0  0  0  0  0  0
    1.5588    0.4820    0.0000 C   0  0  0  0  0  0  0  0  0  0  0  0
   -0.4329   -1.1892    0.0000 C   0  0  0  0  0  0  0  0  0  0  0  0
    2.5461    1.8500    0.0000 C   0  0  0  0  0  0  0  0  0  0  0  0
    2.2113    3.7491    0.0000 C   0  0  0  0  0  0  0  0  0  0  0  0
    0.2829    3.7491    0.0000 C   0  0  0  0  0  0  0  0  0  0  0  0
   -3.0138    2.6000    0.0000 C   0  0  0  0  0  0  0  0  0  0  0  0
   -1.8475    0.2209    0.0000 C   0  0  0  0  0  0  0  0  0  0  0  0
    0.0808    0.2209    0.0000 C   0  0  0  0  0  0  0  0  0  0  0  0
    1.2471    2.6000    0.0000 C   0  0  0  0  0  0  0  0  0  0  0  0
   -0.8833    1.3700    0.0000 C   0  0  0  0  0  0  0  0  0  0  0  0
  7  1  2  0
  8  1  1  0
  9  2  2  0
 10  2  1  0
 11  3  2  0
 12  3  1  0
 13  4  2  0
 14  4  1  0
 15  5  2  0
 16  5  1  0
 17  6  2  0
 18  6  1  0
 19  7  1  0
 20  8  2  0
 21  9  1  0
 22 10  2  0
 23 11  1  0
 24 12  2  0
 25 13  1  0
 26 14  2  0
 27 15  1  0
 28 16  2  0
 29 17  1  0
 30 18  2  0
 31 19  2  0
 31 20  1  0
 32 21  2  0
 32 22  1  0
 33 23  2  0
 33 24  1  0
 34 25  2  0
 34 26  1  0
 35 27  2  0
 35 28  1  0
 36 29  2  0
 36 30  1  0
 37 31  1  0
 37 32  1  0
 37 33  1  0
 38 34  1  0
 38 35  1  0
 38 36  1  0
 38 37  1  0
M  END
>  <NAME>  (43) 
HEXAPHENYLETHANE

>  <SYNONYMS>  (43) 


>  <SPECTRUM TYPE>  (43) 
MS1

>  <INSTRUMENT TYPE>  (43) 
EI-B

>  <INSTRUMENT>  (43) 
JEOL JMS-DX-300

>  <ION MODE>  (43) 
P

>  <INCHIKEY>  (43) 
IPOBVSHPVYWJQC-UHFFFAOYSA-N

>  <FORMULA>  (43) 
C38H30

>  <EXACT MASS>  (43) 
486.23475096

>  <MW>  (43) 
486

>  <ID>  (43) 
JP012103

>  <CONTRIBUTOR>  (43) 
University of Tokyo Team, {Faculty of Engineering, University of Tokyo

>  <COMMENT>  (43) 
SMILES=C(C(c(c6)cccc6)(c(c5)cccc5)c(c4)cccc4)(c(c3)cccc3)(c(c2)cccc2)c(c1)cccc1
InChI=InChI=1S/C38H30/c1-7-19-31(20-8-1)37(32-21-9-2-10-22-32,33-23-11-3-12-24-33)38(34-25-13-4-14-26-34,35-27-15-5-16-28-35)36-29-17-6-18-30-36/h1-30H
computed SMILES=C=1C=CC(=CC1)C(C=2C=CC=CC2)(C=3C=CC=CC3)C(C=4C=CC=CC4)(C=5C=CC=CC5)C=6C=CC=CC6
accession=JP012103
date=2016.01.19 (Created 2008.10.21, modified 2011.05.06)
author=HISAHIRO HAGIWARA, INSTITUTE FOR CHEMICAL REACTION SCIENCE TOHOKU UNIV.
license=CC BY-NC-SA
exact mass=486.23475
ionization energy=70 eV
ion type=[M]+*
computed spectral entropy=2.832059866391772
computed normalized entropy=0.8099681801357151
SPLASH=splash10-05ox-5970000000-9c7102ed7e93fa9f34f6
submitter=submitter = University of Tokyo Team (Faculty of Engineering, University of Tokyo)
MoNA Rating=3.75

>  <NUM PEAKS>  (43) 
33

>  <MASS SPECTRAL PEAKS>  (43) 
39 9.6
50 6.4
51 27.5
63 4.4
65 7.2
76 4.5
77 81.1
78 8.2
91 3.2
94 4.5
105 66
106 5.7
115 5.9
139 5
152 8.3
153 8
154 3.4
163 4
164 5.4
165 73.2
166 28.5
167 11.2
181 5.5
182 5.9
215 7.2
216 6.3
228 3.8
241 5.2
242 3.7
243 99.99
244 24.7
259 30.4
260 7.3

>  <PREDICTED SPECTRUM>  (43) 
28 7
39 89
49 21
50 74
51 154
52 88
54 38
62 2
63 96
65 33
75 22
76 13
77 83
78 50
82 8
84 16
89 47
91 131
96 42
101 19
102 86
103 28
105 118
115 198
116 60
123 28
126 43
127 42
128 27
135 35
136 36
137 26
138 58
139 193
150 42
151 103
152 201
153 128
154 47
163 142
164 244
165 745
166 330
167 105
168 71
169 10
173 16
176 35
177 19
178 119
179 85
180 41
182 2
183 32
189 76
190 4
194 25
195 25
197 129
199 15
201 73
202 172
203 133
204 3
209 21
210 5
211 45
213 83
214 16
215 267
216 77
217 5
225 32
226 195
227 131
228 199
229 132
231 46
237 191
238 16
239 212
240 184
241 342
242 373
243 999
244 575
245 268
269 0
270 0
271 20
276 29
315 19
318 112
319 249
320 53
324 17
331 77
332 25
333 22
366 1
367 89
395 102
409 157
410 102
436 42
437 3
486 346
487 170

$$$$

     RDKit          2D

 16 18  0  0  0  0  0  0  0  0999 V2000
    0.3662    8.4218    0.0000 C   0  0  0  0  0  0  0  0  0  0  0  0
    1.6653    7.6720    0.0000 C   0  0  0  0  0  0  0  0  0  0  0  0
   -0.9282    7.6794    0.0000 C   0  0  0  0  0  0  0  0  0  0  0  0
    0.3707    5.4288    0.0000 C   0  0  0  0  0  0  0  0  0  0  0  0
    4.2682    6.1846    0.0000 C   0  0  0  0  0  0  0  0  0  0  0  0
   -2.2275    3.9285    0.0000 C   0  0  0  0  0  0  0  0  0  0  0  0
    7.0694    5.4392    0.0000 C   0  0  0  0  0  0  0  0  0  0  0  0
   -4.2774    1.8790    0.0000 C   0  0  0  0  0  0  0  0  0  0  0  0
    1.6701    6.1798    0.0000 C   0  0  0  0  0  0  0  0  0  0  0  0
   -0.9285    6.1785    0.0000 C   0  0  0  0  0  0  0  0  0  0  0  0
    5.5686    5.4369    0.0000 C   0  0  0  0  0  0  0  0  0  0  0  0
   -3.5265    3.1785    0.0000 C   0  0  0  0  0  0  0  0  0  0  0  0
    2.9705    5.4322    0.0000 O   0  0  0  0  0  0  0  0  0  0  0  0
   -2.2275    5.4285    0.0000 O   0  0  0  0  0  0  0  0  0  0  0  0
    6.3218    4.1388    0.0000 O   0  0  0  0  0  0  0  0  0  0  0  0
   -5.0274    3.1781    0.0000 O   0  0  0  0  0  0  0  0  0  0  0  0
  2  1  2  0
  3  1  1  0
  9  2  1  0
  9  4  2  0
 10  3  2  0
 10  4  1  0
 11  5  1  0
 11  7  1  0
 12  6  1  0
 12  8  1  0
 13  5  1  0
 13  9  1  0
 14  6  1  0
 14 10  1  0
 15  7  1  0
 15 11  1  0
 16  8  1  0
 16 12  1  0
M  END
>  <NAME>  (44) 
1,3-BENZENDIOL BIS(2-PROPENYL)ETHER BISEPOXIDE

>  <SYNONYMS>  (44) 


>  <SPECTRUM TYPE>  (44) 
MS1

>  <INSTRUMENT TYPE>  (44) 
EI-B

>  <INSTRUMENT>  (44) 
JEOL JMS-DX-300

>  <ION MODE>  (44) 
P

>  <INCHIKEY>  (44) 
WPYCRFCQABTEKC-UHFFFAOYSA-N

>  <FORMULA>  (44) 
C12H14O4

>  <EXACT MASS>  (44) 
222.089208928

>  <MW>  (44) 
222

>  <ID>  (44) 
JP012102

>  <CONTRIBUTOR>  (44) 
University of Tokyo Team, {Faculty of Engineering, University of Tokyo

>  <COMMENT>  (44) 
SMILES=c(c1)cc(OCC(O3)C3)cc1OCC(O2)C2
InChI=InChI=1S/C12H14O4/c1-2-9(13-5-11-7-15-11)4-10(3-1)14-6-12-8-16-12/h1-4,11-12H,5-8H2
computed SMILES=O(C1=CC=CC(OCC2OC2)=C1)CC3OC3
accession=JP012102
date=2016.01.19 (Created 2008.10.21, modified 2011.05.06)
author=HISAHIRO HAGIWARA, INSTITUTE FOR CHEMICAL REACTION SCIENCE TOHOKU UNIV.
license=CC BY-NC-SA
exact mass=222.08921
ionization energy=70 eV
ion type=[M]+*
computed spectral entropy=3.4090176381722728
computed normalized entropy=0.8506948338448456
SPLASH=splash10-00di-9640000000-92e200fa60c09517dc94
submitter=submitter = University of Tokyo Team (Faculty of Engineering, University of Tokyo)
MoNA Rating=3.75

>  <NUM PEAKS>  (44) 
55

>  <MASS SPECTRAL PEAKS>  (44) 
38 3.5
39 12.4
41 11.5
43 6.4
50 3.1
51 4.3
52 4.6
53 6.4
55 6.6
57 63.8
58 3.1
63 9.1
64 11
65 11.2
66 2.8
67 3.8
68 3.4
69 5.9
76 2.4
77 12.4
78 2.9
79 7.1
80 2.8
81 7.4
82 8.7
91 9
92 8.1
93 9.5
94 3.4
95 5.4
103 5.2
105 4.3
107 10.9
108 3.6
109 2.2
110 35
111 3.5
119 5.2
121 4.1
123 17.6
124 2.7
133 2.1
134 4.5
135 8.8
136 10.9
137 4.2
147 2.5
149 10.4
163 2.8
166 27.9
167 3.1
192 4.3
222 99.99
223 21.1
224 3.1

>  <PREDICTED SPECTRUM>  (44) 
14 1
15 3
19 38
25 4
26 79
27 288
28 149
29 504
30 123
31 303
32 39
33 70
34 28
36 40
37 98
38 173
39 590
40 229
41 755
42 210
43 392
44 218
45 473
46 136
47 111
48 12
49 65
50 183
51 345
52 225
53 259
54 174
55 321
56 204
57 999
58 351
59 349
60 106
61 93
62 121
63 271
64 197
65 361
66 159
67 200
68 154
69 163
70 70
71 238
72 210
73 236
74 182
75 126
76 123
77 510
78 218
79 411
80 187
81 252
82 81
83 51
85 78
86 116
87 69
88 43
89 113
90 147
91 345
92 283
93 332
94 243
95 244
96 144
97 97
98 71
100 73
101 60
102 17
103 11
104 75
105 194
106 183
107 341
108 287
109 469
110 391
111 130
112 63
114 28
115 178
116 56
117 80
118 108
119 166
120 99
121 254
122 43
123 105
124 0
132 61
133 193
134 103
135 270
136 227
137 136
138 158
145 0
146 62
147 268
148 235
149 143
151 4
163 72
164 61
165 229
166 428
167 91
179 137
191 119
192 118
221 32
222 741
223 243
224 18

$$$$

     RDKit          2D

 23 27  0  0  0  0  0  0  0  0999 V2000
   -6.1668    3.0106    0.0000 C   0  0  0  0  0  0  0  0  0  0  0  0
   -6.1668   -2.9906    0.0000 C   0  0  0  0  0  0  0  0  0  0  0  0
   -6.1675    1.5098    0.0000 C   0  0  0  0  0  0  0  0  0  0  0  0
   -4.8671    3.7612    0.0000 C   0  0  0  0  0  0  0  0  0  0  0  0
   -4.8671   -3.7412    0.0000 C   0  0  0  0  0  0  0  0  0  0  0  0
   -6.1675   -1.4898    0.0000 C   0  0  0  0  0  0  0  0  0  0  0  0
   -4.8686    0.7596    0.0000 C   0  0  0  0  0  0  0  0  0  0  0  0
   -3.5682    3.0110    0.0000 C   0  0  0  0  0  0  0  0  0  0  0  0
   -3.5682   -2.9910    0.0000 C   0  0  0  0  0  0  0  0  0  0  0  0
   -4.8686   -0.7396    0.0000 C   0  0  0  0  0  0  0  0  0  0  0  0
    1.7600    1.2200    0.0000 C   0  0  0  0  0  0  0  0  0  0  0  0
    2.6400    0.0100    0.0000 C   0  0  0  0  0  0  0  0  0  0  0  0
   -0.3500   -0.0600    0.0000 C   0  0  0  0  0  0  0  0  0  0  0  0
   -3.5689    1.5102    0.0000 C   0  0  0  0  0  0  0  0  0  0  0  0
   -3.5689   -1.4902    0.0000 C   0  0  0  0  0  0  0  0  0  0  0  0
    0.3300    0.7600    0.0000 C   0  0  0  0  0  0  0  0  0  0  0  0
   -0.9700    1.5100    0.0000 C   0  0  0  0  0  0  0  0  0  0  0  0
   -0.9700   -1.4900    0.0000 C   0  0  0  0  0  0  0  0  0  0  0  0
    1.7600   -1.2100    0.0000 C   0  0  0  0  0  0  0  0  0  0  0  0
   -2.2700    0.7600    0.0000 C   0  0  0  0  0  0  0  0  0  0  0  0
   -2.2700   -0.7400    0.0000 C   0  0  0  0  0  0  0  0  0  0  0  0
    0.3300   -0.7400    0.0000 C   0  0  0  0  0  0  0  0  0  0  0  0
    2.2236   -2.6366    0.0000 O   0  0  0  0  0  0  0  0  0  0  0  0
  3  1  2  0
  4  1  1  0
  5  2  2  0
  6  2  1  0
  7  3  1  0
  8  4  2  0
  9  5  1  0
 10  6  2  0
 12 11  2  0
 14  7  2  0
 14  8  1  0
 15  9  2  0
 15 10  1  0
 16 11  1  0
 17 13  1  0
 17 16  1  0
 18 13  1  0
 19 12  1  0
 20 14  1  0
 20 17  1  0
 21 15  1  0
 21 18  1  0
 21 20  2  0
 22 16  1  0
 22 18  1  0
 22 19  1  0
 23 19  2  0
M  END
>  <NAME>  (45) 
8,9-DIPHENYLTRICYCLO(5,2,1,0(2,6))DECA-4,8-DIEN-3-ONE

>  <SYNONYMS>  (45) 


>  <SPECTRUM TYPE>  (45) 
MS1

>  <INSTRUMENT TYPE>  (45) 
EI-B

>  <INSTRUMENT>  (45) 
JEOL JMS-DX-300

>  <ION MODE>  (45) 
P

>  <INCHIKEY>  (45) 
APNUTSSHCCOFPX-UHFFFAOYSA-N

>  <FORMULA>  (45) 
C22H18O

>  <EXACT MASS>  (45) 
298.13576519599997

>  <MW>  (45) 
298

>  <ID>  (45) 
JP012101

>  <CONTRIBUTOR>  (45) 
University of Tokyo Team, {Faculty of Engineering, University of Tokyo

>  <COMMENT>  (45) 
SMILES=c(c5)ccc(c5)C(=C(c(c4)cccc4)2)C(C1)C(C=3)C(C(=O)C3)C12
InChI=InChI=1S/C22H18O/c23-19-12-11-16-17-13-18(22(16)19)21(15-9-5-2-6-10-15)20(17)14-7-3-1-4-8-14/h1-12,16-18,22H,13H2
computed SMILES=O=C1C=CC2C3C(C=4C=CC=CC4)=C(C=5C=CC=CC5)C(C3)C12
accession=JP012101
date=2016.01.19 (Created 2008.10.21, modified 2011.05.06)
author=HISAHIRO HAGIWARA, INSTITUTE FOR CHEMICAL REACTION SCIENCE TOHOKU UNIV.
license=CC BY-NC-SA
exact mass=298.13577
ionization energy=70 eV
ion type=[M]+*
computed spectral entropy=3.043248243202874
computed normalized entropy=0.7994531302370578
SPLASH=splash10-014i-1290000000-2997b7e6bd1ae3cc1463
submitter=submitter = University of Tokyo Team (Faculty of Engineering, University of Tokyo)
MoNA Rating=3.75

>  <NUM PEAKS>  (45) 
45

>  <MASS SPECTRAL PEAKS>  (45) 
39 4.6
51 5.6
52 3.7
53 2.5
63 3.2
65 2.9
77 4.1
81 3.8
89 3
91 6.1
101 2.5
113 2.4
114 2.1
115 11.5
116 2.2
126 3.2
127 2
139 3.3
141 5.8
152 3.5
165 6.8
178 5.2
179 3.6
189 5.3
190 2.1
191 5.8
192 2.9
202 19.5
203 12.6
204 2.8
207 2.5
213 2.1
215 14.5
216 7.2
217 23.9
218 99.99
219 25.9
220 3.5
239 2.6
255 2.7
270 3.1
297 3.3
298 51.1
299 15
300 2.1

>  <PREDICTED SPECTRUM>  (45) 
18 0
26 11
27 51
29 0
38 0
39 262
40 75
41 51
42 17
43 37
50 105
51 300
52 129
53 99
54 59
55 44
56 15
57 51
62 64
63 201
64 62
65 214
66 82
67 35
74 69
75 64
76 147
77 364
78 114
79 121
80 8
81 99
82 35
87 27
88 11
89 225
90 29
91 217
92 1
94 69
95 43
96 38
97 18
98 0
99 90
101 71
102 177
103 134
104 63
105 50
106 13
113 33
114 38
115 445
116 178
124 28
125 29
126 27
127 40
128 211
129 70
139 119
140 35
141 157
142 34
151 59
152 158
153 61
159 9
164 14
165 378
166 85
167 35
173 16
178 369
179 245
180 15
186 24
188 63
189 301
190 146
191 422
192 513
200 30
201 61
202 306
203 327
204 169
205 50
214 12
215 354
216 454
217 663
218 999
219 773
220 345
227 41
230 0
231 74
232 63
241 12
243 55
244 23
254 9
255 134
256 129
257 44
269 131
270 81
271 53
283 2
297 213
298 859
299 445
300 125

$$$$

     RDKit          2D

 14 13  0  0  0  0  0  0  0  0999 V2000
   -1.3861    1.4498    0.0000 C   0  0  0  0  0  0  0  0  0  0  0  0
   -3.9841    1.4498    0.0000 C   0  0  0  0  0  0  0  0  0  0  0  0
    2.5111    3.6998    0.0000 C   0  0  0  0  0  0  0  0  0  0  0  0
   -6.0332    4.9988    0.0000 C   0  0  0  0  0  0  0  0  0  0  0  0
   -6.5822    2.9498    0.0000 C   0  0  0  0  0  0  0  0  0  0  0  0
   -4.5332    2.4007    0.0000 C   0  0  0  0  0  0  0  0  0  0  0  0
   -0.0870    3.6998    0.0000 C   0  0  0  0  0  0  0  0  0  0  0  0
   -1.3861    4.4498    0.0000 C   0  0  0  0  0  0  0  0  0  0  0  0
   -3.9841    4.4498    0.0000 C   0  0  0  0  0  0  0  0  0  0  0  0
   -2.6851    2.1998    0.0000 C   0  0  0  0  0  0  0  0  0  0  0  0
    1.2120    4.4498    0.0000 C   0  0  0  0  0  0  0  0  0  0  0  0
   -2.6851    3.6998    0.0000 C   0  0  0  0  0  0  0  0  0  0  0  0
    1.2120    5.9498    0.0000 O   0  0  0  0  0  0  0  0  0  0  0  0
   -5.2832    3.6998    0.0000 Si  0  0  0  0  0  4  0  0  0  0  0  0
  8  7  1  0
 10  1  2  0
 10  2  1  0
 11  3  1  0
 11  7  1  0
 12  8  1  0
 12  9  1  0
 12 10  1  0
 13 11  2  0
 14  4  1  0
 14  5  1  0
 14  6  1  0
 14  9  1  0
M  END
>  <NAME>  (46) 
6-METHYL-5-TRIMETHYLSILYLMETHYL-6-HEPTEN-2-ONE

>  <SYNONYMS>  (46) 


>  <SPECTRUM TYPE>  (46) 
MS1

>  <INSTRUMENT TYPE>  (46) 
EI-B

>  <INSTRUMENT>  (46) 
JEOL JMS-DX-300

>  <ION MODE>  (46) 
P

>  <INCHIKEY>  (46) 
AJNMYAQSXRODBL-UHFFFAOYSA-N

>  <FORMULA>  (46) 
C12H24OSi

>  <EXACT MASS>  (46) 
212.15964191799998

>  <MW>  (46) 
212

>  <ID>  (46) 
JP012098

>  <CONTRIBUTOR>  (46) 
University of Tokyo Team, {Faculty of Engineering, University of Tokyo

>  <COMMENT>  (46) 
SMILES=CC(=O)CCC(C(C)=C)C[Si](C)(C)C
InChI=InChI=1S/C12H24OSi/c1-10(2)12(8-7-11(3)13)9-14(4,5)6/h12H,1,7-9H2,2-6H3
computed SMILES=O=C(C)CCC(C(=C)C)C[Si](C)(C)C
accession=JP012098
date=2016.01.19 (Created 2008.10.21, modified 2011.05.06)
author=HISAHIRO HAGIWARA, INSTITUTE FOR CHEMICAL REACTION SCIENCE TOHOKU UNIV.
license=CC BY-NC-SA
exact mass=212.15964
ionization energy=70 eV
ion type=[M]+*
computed spectral entropy=2.915264090268416
computed normalized entropy=0.7850296258975342
SPLASH=splash10-00di-9500000000-2afa9eabf6f50ef8f1bb
submitter=submitter = University of Tokyo Team (Faculty of Engineering, University of Tokyo)
MoNA Rating=3.75

>  <NUM PEAKS>  (46) 
41

>  <MASS SPECTRAL PEAKS>  (46) 
39 2.2
41 3.3
43 16.1
44 2.9
45 10.3
53 2.2
55 2.1
58 2.6
59 8.4
67 2.4
72 2.6
73 99.99
74 10.8
75 41.6
76 3.3
77 2.7
85 3.1
93 2.2
99 2.8
107 15.1
111 3.4
112 2.6
115 11.7
121 3
122 17.7
123 2.7
127 2.6
129 5.4
130 9.3
139 2.5
141 14.5
142 2.5
143 4.4
144 4.3
154 9.8
155 2.2
169 3.6
183 1.8
194 1.6
197 5.1
212 0.6

>  <PREDICTED SPECTRUM>  (46) 
26 2
27 118
28 43
29 84
30 18
31 65
39 94
40 35
41 171
42 45
43 272
44 84
45 279
46 29
47 116
51 16
53 101
54 13
55 169
57 73
58 69
59 305
60 49
61 120
62 5
63 5
65 58
66 65
67 150
68 87
69 150
70 59
71 36
72 55
73 999
74 272
75 602
76 144
77 174
78 61
79 233
80 105
81 144
82 55
83 69
85 114
86 7
89 44
91 37
92 88
93 256
94 94
95 92
96 2
97 99
98 17
99 46
101 77
103 139
104 8
105 115
106 23
107 341
108 67
109 88
110 10
111 49
112 31
113 107
115 181
116 116
117 0
120 2
121 146
122 362
123 126
124 21
127 175
128 31
129 251
130 214
131 40
135 7
139 21
140 14
141 191
142 125
143 301
144 210
153 1
154 42
155 111
156 61
157 32
169 219
170 55
179 56
183 9
197 211
198 64
212 76
213 20

$$$$

     RDKit          2D

 15 14  0  0  0  0  0  0  0  0999 V2000
   -8.2697    4.9755    0.0000 C   0  0  0  0  0  0  0  0  0  0  0  0
   -3.0736    1.9755    0.0000 C   0  0  0  0  0  0  0  0  0  0  0  0
   -0.4755    1.9755    0.0000 C   0  0  0  0  0  0  0  0  0  0  0  0
    0.0736    2.9264    0.0000 C   0  0  0  0  0  0  0  0  0  0  0  0
    2.1226    3.4755    0.0000 C   0  0  0  0  0  0  0  0  0  0  0  0
    1.5736    5.5245    0.0000 C   0  0  0  0  0  0  0  0  0  0  0  0
   -6.9707    4.2255    0.0000 C   0  0  0  0  0  0  0  0  0  0  0  0
   -3.0736    4.9755    0.0000 C   0  0  0  0  0  0  0  0  0  0  0  0
   -4.3726    4.2255    0.0000 C   0  0  0  0  0  0  0  0  0  0  0  0
   -0.4755    4.9755    0.0000 C   0  0  0  0  0  0  0  0  0  0  0  0
   -1.7745    2.7255    0.0000 C   0  0  0  0  0  0  0  0  0  0  0  0
   -1.7745    4.2255    0.0000 C   0  0  0  0  0  0  0  0  0  0  0  0
   -5.6716    4.9755    0.0000 C   0  0  0  0  0  0  0  0  0  0  0  0
   -5.6716    6.4755    0.0000 O   0  0  0  0  0  0  0  0  0  0  0  0
    0.8236    4.2255    0.0000 Si  0  0  0  0  0  4  0  0  0  0  0  0
  7  1  1  0
  9  8  1  0
 11  2  2  0
 11  3  1  0
 12  8  1  0
 12 10  1  0
 12 11  1  0
 13  7  1  0
 13  9  1  0
 14 13  2  0
 15  4  1  0
 15  5  1  0
 15  6  1  0
 15 10  1  0
M  END
>  <NAME>  (47) 
7-METHYL-6-TRIMETHYLSILYLMETHYL-7-OCTEN-3-ONE

>  <SYNONYMS>  (47) 


>  <SPECTRUM TYPE>  (47) 
MS1

>  <INSTRUMENT TYPE>  (47) 
EI-B

>  <INSTRUMENT>  (47) 
JEOL JMS-DX-300

>  <ION MODE>  (47) 
P

>  <INCHIKEY>  (47) 
QTOJCRMBVDQWJP-UHFFFAOYSA-N

>  <FORMULA>  (47) 
C13H26OSi

>  <EXACT MASS>  (47) 
226.17529198199998

>  <MW>  (47) 
226

>  <ID>  (47) 
JP012097

>  <CONTRIBUTOR>  (47) 
University of Tokyo Team, {Faculty of Engineering, University of Tokyo

>  <COMMENT>  (47) 
SMILES=CCC(=O)CCC(C(C)=C)C[Si](C)(C)C
InChI=InChI=1S/C13H26OSi/c1-7-13(14)9-8-12(11(2)3)10-15(4,5)6/h12H,2,7-10H2,1,3-6H3
computed SMILES=O=C(CC)CCC(C(=C)C)C[Si](C)(C)C
accession=JP012097
date=2016.01.19 (Created 2008.10.21, modified 2011.05.06)
author=HISAHIRO HAGIWARA, INSTITUTE FOR CHEMICAL REACTION SCIENCE TOHOKU UNIV.
license=CC BY-NC-SA
exact mass=226.17529
ionization energy=70 eV
ion type=[M]+*
computed spectral entropy=3.073262372392935
computed normalized entropy=0.7537054937377037
SPLASH=splash10-00di-9400000000-360ad26962b50ab65fff
submitter=submitter = University of Tokyo Team (Faculty of Engineering, University of Tokyo)
MoNA Rating=3.75

>  <NUM PEAKS>  (47) 
59

>  <MASS SPECTRAL PEAKS>  (47) 
39 1.7
41 3.3
43 2.3
44 1.7
45 11.6
47 1.3
53 2
55 2.7
57 5.9
59 8.4
61 2.1
67 2.2
68 1.3
71 1.2
72 2.4
73 99.99
74 10.8
75 38.7
76 3
77 2.2
79 1.8
81 1.3
83 3.6
85 3.3
91 1.2
93 1.8
95 1.4
97 1.2
99 2.4
107 15.2
108 1.9
109 1
111 2.6
112 2.7
113 1.3
117 1.2
121 3.5
127 1.8
129 7.5
130 1
135 2
136 6.5
137 1.2
139 2.3
141 8.3
142 1.7
143 3.8
144 13.2
145 1.9
154 4.8
155 1.8
157 2.4
158 2.6
169 1.3
183 2.3
197 5.2
198 1.1
211 2.1
226 0.5

>  <PREDICTED SPECTRUM>  (47) 
27 65
28 31
29 83
31 21
39 75
40 17
41 137
43 106
44 1
45 195
46 12
47 104
49 9
51 21
53 95
54 4
55 182
56 3
57 148
58 16
59 154
60 31
61 135
62 10
63 23
65 60
66 6
67 113
68 8
69 106
70 42
71 33
72 68
73 999
74 278
75 507
76 109
77 167
78 33
79 173
80 82
81 154
82 74
83 124
85 96
86 25
89 75
91 189
92 98
93 207
94 61
95 119
96 19
97 73
99 130
100 7
101 39
103 46
105 81
106 31
107 347
108 99
109 95
111 32
113 116
115 107
116 18
117 103
118 10
119 24
121 95
122 54
123 50
125 50
126 48
127 188
128 67
129 197
130 83
131 23
135 78
136 205
137 50
141 136
142 79
143 186
144 144
151 23
153 42
154 36
155 153
156 134
157 155
158 52
167 3
169 75
170 31
171 14
181 34
183 130
197 156
198 31
199 30
211 160
212 37
226 89
227 43

$$$$

     RDKit          2D

 19 18  0  0  0  0  0  0  0  0999 V2000
    3.2476    5.6250    0.0000 C   0  0  0  0  0  0  0  0  0  0  0  0
    1.9486    7.8750    0.0000 C   0  0  0  0  0  0  0  0  0  0  0  0
   -3.2476    7.8750    0.0000 C   0  0  0  0  0  0  0  0  0  0  0  0
   -9.7428    5.6250    0.0000 C   0  0  0  0  0  0  0  0  0  0  0  0
   -6.5957    4.6740    0.0000 C   0  0  0  0  0  0  0  0  0  0  0  0
   -7.1447    2.6250    0.0000 C   0  0  0  0  0  0  0  0  0  0  0  0
   -5.0957    2.0760    0.0000 C   0  0  0  0  0  0  0  0  0  0  0  0
   -0.6495    6.3750    0.0000 C   0  0  0  0  0  0  0  0  0  0  0  0
    0.6495    5.6250    0.0000 C   0  0  0  0  0  0  0  0  0  0  0  0
   -1.9486    5.6250    0.0000 C   0  0  0  0  0  0  0  0  0  0  0  0
   -7.1447    5.6250    0.0000 C   0  0  0  0  0  0  0  0  0  0  0  0
   -5.8457    6.3750    0.0000 C   0  0  0  0  0  0  0  0  0  0  0  0
   -4.5466    4.1250    0.0000 C   0  0  0  0  0  0  0  0  0  0  0  0
    1.9486    6.3750    0.0000 C   0  0  0  0  0  0  0  0  0  0  0  0
   -3.2476    6.3750    0.0000 C   0  0  0  0  0  0  0  0  0  0  0  0
   -8.4437    6.3750    0.0000 C   0  0  0  0  0  0  0  0  0  0  0  0
   -4.5466    5.6250    0.0000 C   0  0  0  0  0  0  0  0  0  0  0  0
   -8.4437    7.8750    0.0000 O   0  0  0  0  0  0  0  0  0  0  0  0
   -5.8457    3.3750    0.0000 Si  0  0  0  0  0  4  0  0  0  0  0  0
  9  8  1  0
 10  8  1  0
 12 11  1  0
 14  1  1  0
 14  2  1  0
 14  9  2  0
 15  3  2  0
 15 10  1  0
 16  4  1  0
 16 11  1  0
 17 12  1  0
 17 13  1  0
 17 15  1  0
 18 16  2  0
 19  5  1  0
 19  6  1  0
 19  7  1  0
 19 13  1  0
M  END
>  <NAME>  (48) 
10-METHYL-6-METHYLENE-5-TRIMETHYLSILYLMETHYL-9-UNDECEN-2-ONE

>  <SYNONYMS>  (48) 


>  <SPECTRUM TYPE>  (48) 
MS1

>  <INSTRUMENT TYPE>  (48) 
EI-B

>  <INSTRUMENT>  (48) 
JEOL JMS-DX-300

>  <ION MODE>  (48) 
P

>  <INCHIKEY>  (48) 
ICGYNFPQDKXQEN-UHFFFAOYSA-N

>  <FORMULA>  (48) 
C17H32OSi

>  <EXACT MASS>  (48) 
280.22224217400003

>  <MW>  (48) 
280

>  <ID>  (48) 
JP012096

>  <CONTRIBUTOR>  (48) 
University of Tokyo Team, {Faculty of Engineering, University of Tokyo

>  <COMMENT>  (48) 
SMILES=CC(C)=CCCC(=C)C(CCC(C)=O)C[Si](C)(C)C
InChI=InChI=1S/C17H32OSi/c1-14(2)9-8-10-15(3)17(12-11-16(4)18)13-19(5,6)7/h9,17H,3,8,10-13H2,1-2,4-7H3
computed SMILES=O=C(C)CCC(C(=C)CCC=C(C)C)C[Si](C)(C)C
accession=JP012096
date=2016.01.19 (Created 2008.10.21, modified 2011.05.06)
author=HISAHIRO HAGIWARA, INSTITUTE FOR CHEMICAL REACTION SCIENCE TOHOKU UNIV.
license=CC BY-NC-SA
exact mass=280.22224
ionization energy=70 eV
ion type=[M]+*
computed spectral entropy=3.5209668251266764
computed normalized entropy=0.8565008174569073
SPLASH=splash10-00di-9600000000-c7f8840d341ee84126f9
submitter=submitter = University of Tokyo Team (Faculty of Engineering, University of Tokyo)
MoNA Rating=3.75

>  <NUM PEAKS>  (48) 
61

>  <MASS SPECTRAL PEAKS>  (48) 
39 2.8
41 27.3
43 13.2
45 10.8
53 3.1
55 4
59 7.6
61 2.5
67 5.4
69 35.7
70 2.4
72 2
73 99.99
74 11.3
75 37.1
76 2.9
77 3.1
79 7.6
80 2.5
81 8.9
82 3
91 5.3
93 13.6
94 3.7
95 4.7
106 2.5
107 30.4
108 8.9
109 6.4
113 3.3
115 12.7
117 4.2
119 2.5
120 2.3
121 19.2
122 3
129 3.4
130 15.2
131 5.7
133 3.5
135 8.8
141 3.2
147 13.9
148 5
150 8.1
169 10.5
170 2.6
171 23.5
172 3.9
179 10.9
180 2.4
183 3.3
189 2.3
190 9.9
191 2.2
197 2.1
209 4.6
211 2.4
222 4.6
265 2.8
280 2.1

>  <PREDICTED SPECTRUM>  (48) 
27 83
28 43
29 94
30 33
31 13
38 2
39 83
40 64
41 359
42 76
43 225
44 108
45 239
46 46
47 107
49 5
50 3
51 36
52 29
53 151
54 48
55 283
56 46
57 131
58 145
59 310
60 72
61 106
63 5
65 72
66 80
67 244
68 94
69 483
70 58
71 84
72 129
73 999
74 263
75 577
76 134
77 204
78 81
79 251
80 123
81 230
82 130
83 124
85 90
86 36
89 22
91 202
92 160
93 345
94 136
95 213
96 50
97 29
99 67
101 57
103 96
105 191
106 129
107 461
108 243
109 223
113 50
115 126
116 46
117 87
118 21
119 185
120 112
121 323
122 251
123 61
125 18
127 38
128 41
129 174
130 143
131 187
132 40
133 183
134 153
135 471
136 131
137 38
141 97
142 78
143 212
144 164
145 140
146 62
147 262
148 161
149 104
150 98
151 4
153 13
155 51
156 7
157 91
161 80
162 72
163 23
167 17
168 5
169 187
170 178
171 250
172 112
173 62
175 124
179 191
180 13
181 70
183 161
184 40
190 229
191 98
192 21
193 7
194 5
195 74
196 39
197 140
198 76
207 59
209 132
210 72
211 85
212 26
222 19
223 26
225 38
237 68
247 38
249 32
262 29
265 150
266 20
280 130
281 24

$$$$

     RDKit          2D

 16 16  0  0  0  0  0  0  0  0999 V2000
    1.0594    1.3567    0.0000 C   0  0  0  0  0  0  0  0  0  0  0  0
    3.6574    1.3563    0.0000 C   0  0  0  0  0  0  0  0  0  0  0  0
    5.7059   -2.1931    0.0000 C   0  0  0  0  0  0  0  0  0  0  0  0
    6.2553   -0.1441    0.0000 C   0  0  0  0  0  0  0  0  0  0  0  0
    4.2063    0.4053    0.0000 C   0  0  0  0  0  0  0  0  0  0  0  0
   -0.2361   -3.8863    0.0000 C   0  0  0  0  0  0  0  0  0  0  0  0
    1.0584   -3.1441    0.0000 C   0  0  0  0  0  0  0  0  0  0  0  0
   -1.5352   -3.1363    0.0000 C   0  0  0  0  0  0  0  0  0  0  0  0
   -0.2402   -0.8933    0.0000 C   0  0  0  0  0  0  0  0  0  0  0  0
    3.6570   -1.6437    0.0000 C   0  0  0  0  0  0  0  0  0  0  0  0
    2.3583    0.6065    0.0000 C   0  0  0  0  0  0  0  0  0  0  0  0
    1.0589   -1.6433    0.0000 C   0  0  0  0  0  0  0  0  0  0  0  0
   -1.5397   -1.6441    0.0000 C   0  0  0  0  0  0  0  0  0  0  0  0
    2.3580   -0.8935    0.0000 C   0  0  0  0  0  0  0  0  0  0  0  0
   -2.8400   -0.8963    0.0000 O   0  0  0  0  0  0  0  0  0  0  0  0
    4.9561   -0.8939    0.0000 Si  0  0  0  0  0  4  0  0  0  0  0  0
  7  6  1  0
  8  6  1  0
 11  1  2  0
 11  2  1  0
 12  7  1  0
 12  9  1  0
 13  8  1  0
 13  9  1  0
 14 10  1  0
 14 11  1  0
 14 12  1  0
 15 13  2  0
 16  3  1  0
 16  4  1  0
 16  5  1  0
 16 10  1  0
M  END
>  <NAME>  (49) 
3-(2-METHYL-1-TRIMETHYLSILYLMETHYL-2-PROPENYL)CYCLOHEXANONE

>  <SYNONYMS>  (49) 


>  <SPECTRUM TYPE>  (49) 
MS1

>  <INSTRUMENT TYPE>  (49) 
EI-B

>  <INSTRUMENT>  (49) 
JEOL JMS-DX-300

>  <ION MODE>  (49) 
P

>  <INCHIKEY>  (49) 
LSOIEULYYCJKRO-UHFFFAOYSA-N

>  <FORMULA>  (49) 
C14H26OSi

>  <EXACT MASS>  (49) 
238.175291982

>  <MW>  (49) 
238

>  <ID>  (49) 
JP012095

>  <CONTRIBUTOR>  (49) 
University of Tokyo Team, {Faculty of Engineering, University of Tokyo

>  <COMMENT>  (49) 
SMILES=O=C(C1)CC(CC1)C(C(C)=C)C[Si](C)(C)C
InChI=InChI=1S/C14H26OSi/c1-11(2)14(10-16(3,4)5)12-7-6-8-13(15)9-12/h12,14H,1,6-10H2,2-5H3
computed SMILES=O=C1CCCC(C1)C(C(=C)C)C[Si](C)(C)C
accession=JP012095
date=2016.01.19 (Created 2008.10.21, modified 2011.05.06)
author=HISAHIRO HAGIWARA, INSTITUTE FOR CHEMICAL REACTION SCIENCE TOHOKU UNIV.
license=CC BY-NC-SA
exact mass=238.17529
ionization energy=70 eV
ion type=[M]+*
computed spectral entropy=2.7205317204776565
computed normalized entropy=0.7591788315341638
SPLASH=splash10-00di-9400000000-306afb991e442229762a
submitter=submitter = University of Tokyo Team (Faculty of Engineering, University of Tokyo)
MoNA Rating=3.75

>  <NUM PEAKS>  (49) 
36

>  <MASS SPECTRAL PEAKS>  (49) 
39 3
41 4.7
42 2.7
43 23.5
44 4.5
45 5.2
55 1.5
58 8.4
59 5.4
67 2.4
68 1.9
69 1.5
72 1.8
73 99.99
74 9.6
75 21.1
76 2.1
77 2.6
79 2.3
85 2
91 1.6
105 1.6
111 2.1
127 4.7
141 23.4
142 6.9
143 2
147 1.8
155 9.3
156 1.7
169 6.6
170 38.8
171 7.7
172 2.2
181 3.5
223 4.4

>  <PREDICTED SPECTRUM>  (49) 
27 36
29 42
31 0
39 99
40 55
41 229
42 66
43 119
44 67
45 258
47 110
49 15
50 8
51 34
52 10
53 96
55 146
57 68
58 48
59 253
60 29
61 99
62 9
63 36
65 50
66 13
67 111
68 10
69 158
70 61
71 90
72 46
73 999
74 301
75 527
76 91
77 166
78 53
79 88
81 93
82 5
83 29
85 7
89 75
91 110
92 71
93 50
94 10
95 81
96 38
97 71
99 13
101 10
103 62
104 7
105 72
107 59
111 99
113 25
115 79
117 33
119 65
125 62
127 193
128 38
129 94
130 34
137 4
139 34
141 344
142 207
143 16
146 6
148 69
153 14
155 166
156 137
164 46
167 66
168 43
169 410
170 550
171 252
181 2
195 56
211 15
223 141
224 43
238 17

$$$$

     RDKit          2D

 19 19  0  0  0  0  0  0  0  0999 V2000
    3.6376   -3.9004    0.0000 C   0  0  0  0  0  0  0  0  0  0  0  0
   -2.8587   -3.1502    0.0000 C   0  0  0  0  0  0  0  0  0  0  0  0
   -4.1581   -0.9004    0.0000 C   0  0  0  0  0  0  0  0  0  0  0  0
    2.3389    1.3502    0.0000 C   0  0  0  0  0  0  0  0  0  0  0  0
    4.1868   -2.9495    0.0000 C   0  0  0  0  0  0  0  0  0  0  0  0
    6.2359   -2.4008    0.0000 C   0  0  0  0  0  0  0  0  0  0  0  0
    5.6872   -0.3517    0.0000 C   0  0  0  0  0  0  0  0  0  0  0  0
    2.3387   -3.1502    0.0000 C   0  0  0  0  0  0  0  0  0  0  0  0
   -0.2600   -1.6500    0.0000 C   0  0  0  0  0  0  0  0  0  0  0  0
   -1.5600    0.6000    0.0000 C   0  0  0  0  0  0  0  0  0  0  0  0
    3.6381   -0.9004    0.0000 C   0  0  0  0  0  0  0  0  0  0  0  0
   -2.8589   -1.6502    0.0000 C   0  0  0  0  0  0  0  0  0  0  0  0
    1.0400    0.6000    0.0000 C   0  0  0  0  0  0  0  0  0  0  0  0
    2.3389   -1.6502    0.0000 C   0  0  0  0  0  0  0  0  0  0  0  0
   -1.5600   -0.9000    0.0000 C   0  0  0  0  0  0  0  0  0  0  0  0
    1.0400   -0.9000    0.0000 C   0  0  0  0  0  0  0  0  0  0  0  0
   -0.2600    1.3500    0.0000 C   0  0  0  0  0  0  0  0  0  0  0  0
   -0.2600    2.8500    0.0000 O   0  0  0  0  0  0  0  0  0  0  0  0
    4.9370   -1.6506    0.0000 Si  0  0  0  0  0  4  0  0  0  0  0  0
  8  1  2  0
 12  2  2  0
 12  3  1  0
 13  4  1  0
 14  8  1  0
 14 11  1  0
 15  9  1  0
 15 10  1  0
 15 12  1  0
 16  9  1  0
 16 13  1  0
 16 14  1  0
 17 10  1  0
 17 13  1  0
 18 17  2  0
 19  5  1  0
 19  6  1  0
 19  7  1  0
 19 11  1  0
M  END
>  <NAME>  (50) 
3-ISOPROPENYL-6-METHYL-5-(1-TRIMETHYLSILYLMETHYL-2-PROPENYL)CYCLOHEXANONE

>  <SYNONYMS>  (50) 


>  <SPECTRUM TYPE>  (50) 
MS1

>  <INSTRUMENT TYPE>  (50) 
EI-B

>  <INSTRUMENT>  (50) 
JEOL JMS-DX-300

>  <ION MODE>  (50) 
P

>  <INCHIKEY>  (50) 
YBSDYQVCPCLBQT-UHFFFAOYSA-N

>  <FORMULA>  (50) 
C17H30OSi

>  <EXACT MASS>  (50) 
278.20659211

>  <MW>  (50) 
278

>  <ID>  (50) 
JP012094

>  <CONTRIBUTOR>  (50) 
University of Tokyo Team, {Faculty of Engineering, University of Tokyo

>  <COMMENT>  (50) 
SMILES=C=CC(C[Si](C)(C)C)C(C1)C(C)C(=O)CC(C(C)=C)1
InChI=InChI=1S/C17H30OSi/c1-8-14(11-19(5,6)7)16-9-15(12(2)3)10-17(18)13(16)4/h8,13-16H,1-2,9-11H2,3-7H3
computed SMILES=O=C1CC(C(=C)C)CC(C1C)C(C=C)C[Si](C)(C)C
accession=JP012094
date=2016.01.19 (Created 2008.10.21, modified 2011.05.06)
license=CC BY-NC-SA
author=HISAHIRO HAGIWARA, INSTITUTE FOR CHEMICAL REACTION SCIENCE TOHOKU UNIV.
exact mass=278.20659
ionization energy=70 eV
ion type=[M]+*
computed spectral entropy=2.9334848235380044
computed normalized entropy=0.82509075702397
SPLASH=splash10-00di-9310000000-567ef43a2866722d0618
submitter=submitter = University of Tokyo Team (Faculty of Engineering, University of Tokyo)
MoNA Rating=3.75

>  <NUM PEAKS>  (50) 
35

>  <MASS SPECTRAL PEAKS>  (50) 
41 6.5
43 9.9
45 7.9
55 11.2
58 3.7
59 7.6
67 5.2
69 3.4
73 99.99
74 9.8
75 14.7
79 3.2
81 5.6
91 3
93 3.6
97 10.4
107 4.2
109 4.4
117 3.3
119 3.6
127 19.1
128 3.2
141 4.5
169 3.5
170 3.6
181 11.5
182 3.2
195 8.4
196 3
209 10
221 3.8
223 4.1
224 17.9
225 3.8
263 3.8

>  <PREDICTED SPECTRUM>  (50) 
26 11
27 95
28 45
29 77
31 33
39 79
40 40
41 167
42 72
43 119
44 111
45 266
47 28
51 20
52 30
53 127
54 35
55 194
56 8
57 147
58 103
59 287
60 22
61 6
65 12
66 50
67 99
68 38
69 187
70 52
71 76
72 80
73 999
74 251
75 288
76 40
77 85
78 54
79 84
80 37
81 131
82 34
83 51
84 15
85 58
86 33
91 116
92 4
93 170
94 16
95 57
96 9
97 167
98 71
99 57
101 25
103 35
105 49
107 23
109 120
111 117
112 42
113 61
115 61
116 46
117 49
118 5
119 62
121 115
123 30
125 63
126 39
127 197
128 73
129 112
130 45
131 44
133 19
134 11
135 119
136 2
137 22
138 30
139 89
140 100
141 87
142 113
143 104
144 31
145 23
151 65
152 4
153 77
154 4
155 100
156 32
160 1
165 29
167 80
168 52
169 172
170 91
179 34
181 193
182 119
183 84
194 5
195 189
196 79
197 50
198 6
207 36
208 8
209 193
210 115
211 98
223 206
224 141
225 87
226 25
235 37
249 31
250 21
251 17
263 96
264 41
278 3

$$$$

     RDKit          2D

 25 25  0  0  0  0  0  0  0  0999 V2000
   10.1331   -1.6515    0.0000 C   0  0  0  0  0  0  0  0  0  0  0  0
    8.8345    0.5988    0.0000 C   0  0  0  0  0  0  0  0  0  0  0  0
   -2.8587   -3.1502    0.0000 C   0  0  0  0  0  0  0  0  0  0  0  0
   -4.1581   -0.9004    0.0000 C   0  0  0  0  0  0  0  0  0  0  0  0
    3.6383    0.5996    0.0000 C   0  0  0  0  0  0  0  0  0  0  0  0
    2.3389    1.3502    0.0000 C   0  0  0  0  0  0  0  0  0  0  0  0
    2.8874   -5.1993    0.0000 C   0  0  0  0  0  0  0  0  0  0  0  0
    4.9365   -4.6506    0.0000 C   0  0  0  0  0  0  0  0  0  0  0  0
    4.3878   -2.6015    0.0000 C   0  0  0  0  0  0  0  0  0  0  0  0
    6.2362   -0.9008    0.0000 C   0  0  0  0  0  0  0  0  0  0  0  0
    7.5351   -1.6510    0.0000 C   0  0  0  0  0  0  0  0  0  0  0  0
    4.9370   -1.6506    0.0000 C   0  0  0  0  0  0  0  0  0  0  0  0
   -0.2600   -1.6500    0.0000 C   0  0  0  0  0  0  0  0  0  0  0  0
   -1.5600    0.6000    0.0000 C   0  0  0  0  0  0  0  0  0  0  0  0
    2.3387   -3.1502    0.0000 C   0  0  0  0  0  0  0  0  0  0  0  0
    8.8342   -0.9012    0.0000 C   0  0  0  0  0  0  0  0  0  0  0  0
   -2.8589   -1.6502    0.0000 C   0  0  0  0  0  0  0  0  0  0  0  0
    3.6381   -0.9004    0.0000 C   0  0  0  0  0  0  0  0  0  0  0  0
    1.0400    0.6000    0.0000 C   0  0  0  0  0  0  0  0  0  0  0  0
   -1.5600   -0.9000    0.0000 C   0  0  0  0  0  0  0  0  0  0  0  0
    1.0400   -0.9000    0.0000 C   0  0  0  0  0  0  0  0  0  0  0  0
    2.3389   -1.6502    0.0000 C   0  0  0  0  0  0  0  0  0  0  0  0
   -0.2600    1.3500    0.0000 C   0  0  0  0  0  0  0  0  0  0  0  0
   -0.2600    2.8500    0.0000 O   0  0  0  0  0  0  0  0  0  0  0  0
    3.6376   -3.9004    0.0000 Si  0  0  0  0  0  4  0  0  0  0  0  0
 11 10  1  0
 12 10  1  0
 16  1  1  0
 16  2  1  0
 16 11  2  0
 17  3  2  0
 17  4  1  0
 18  5  2  0
 18 12  1  0
 19  6  1  0
 20 13  1  0
 20 14  1  0
 20 17  1  0
 21 13  1  0
 21 19  1  0
 22 15  1  0
 22 18  1  0
 22 21  1  0
 23 14  1  0
 23 19  1  0
 24 23  2  0
 25  7  1  0
 25  8  1  0
 25  9  1  0
 25 15  1  0
M  END
>  <NAME>  (51) 
3-ISOPROPENYL-6-METHYL-5-(6-METHYL-2-METHYLENE-1-TRIMETHYLSILYLMETHYL-5-HEPTENYL)CYCLOHEXANONE

>  <SYNONYMS>  (51) 


>  <SPECTRUM TYPE>  (51) 
MS1

>  <INSTRUMENT TYPE>  (51) 
EI-B

>  <INSTRUMENT>  (51) 
JEOL JMS-DX-300

>  <ION MODE>  (51) 
P

>  <INCHIKEY>  (51) 
ONIYXPBYZAIWFM-UHFFFAOYSA-N

>  <FORMULA>  (51) 
C23H40OSi

>  <EXACT MASS>  (51) 
360.28484243

>  <MW>  (51) 
360

>  <ID>  (51) 
JP012093

>  <CONTRIBUTOR>  (51) 
University of Tokyo Team, {Faculty of Engineering, University of Tokyo

>  <COMMENT>  (51) 
SMILES=CC(C)=CCCC(=C)C(C[Si](C)(C)C)C(C1)C(C)C(=O)CC(C(C)=C)1
InChI=InChI=1S/C23H40OSi/c1-16(2)11-10-12-18(5)22(15-25(7,8)9)21-13-20(17(3)4)14-23(24)19(21)6/h11,19-22H,3,5,10,12-15H2,1-2,4,6-9H3
computed SMILES=O=C1CC(C(=C)C)CC(C1C)C(C(=C)CCC=C(C)C)C[Si](C)(C)C
accession=JP012093
date=2016.01.19 (Created 2008.10.21, modified 2011.05.06)
author=HISAHIRO HAGIWARA, INSTITUTE FOR CHEMICAL REACTION SCIENCE TOHOKU UNIV.
license=CC BY-NC-SA
exact mass=360.28484
ionization energy=70 eV
ion type=[M]+*
computed spectral entropy=2.98182409052045
computed normalized entropy=0.8029530697021684
SPLASH=splash10-00di-9210000000-4ffcabdaac3519a69010
submitter=submitter = University of Tokyo Team (Faculty of Engineering, University of Tokyo)
MoNA Rating=3.75

>  <NUM PEAKS>  (51) 
41

>  <MASS SPECTRAL PEAKS>  (51) 
39 2.9
41 11
42 3.8
43 40.9
44 2.2
45 4.9
55 7.5
58 25
59 5.7
67 3.9
69 9.8
73 99.99
74 11.7
75 11.4
77 2.1
79 2.3
81 3.5
91 2.4
93 4.1
94 2
95 2.1
97 4
105 2.3
107 3.3
109 4.5
117 2.6
119 2.8
135 25.1
136 4
141 4.4
151 4.7
181 6.4
195 5.4
196 3.2
209 10.4
210 3.6
221 3.6
223 6.1
224 7
345 3.1
360 2.3

>  <PREDICTED SPECTRUM>  (51) 
27 24
28 3
29 21
39 78
40 16
41 309
42 19
43 100
44 58
45 187
47 12
53 87
55 121
56 4
57 95
58 51
59 276
65 29
66 6
67 112
68 10
69 498
70 66
71 71
72 22
73 999
74 246
75 371
76 25
77 137
78 62
79 150
80 36
81 326
82 46
83 128
84 0
85 44
91 185
92 99
93 210
94 1
95 111
96 59
97 103
98 2
99 91
103 13
105 135
106 1
107 190
108 100
109 145
110 31
111 92
112 29
113 27
117 48
119 54
120 61
121 135
122 3
123 41
124 56
125 61
126 71
127 76
128 16
129 7
131 50
133 77
134 119
135 465
136 57
137 6
138 17
139 29
141 144
142 15
147 0
148 31
149 22
151 133
152 37
153 39
154 15
155 32
156 35
163 36
166 36
167 21
168 15
169 1
179 73
180 38
195 85
196 21
208 35
209 336
210 154
221 75
222 111
223 249
224 262
225 51
249 12
251 149
252 49
263 48
264 47
277 15
278 13
292 23
311 48
345 135
346 24
360 130
361 49
362 2

$$$$

     RDKit          2D

 15 15  0  0  0  0  0  0  0  0999 V2000
    3.6574    1.3563    0.0000 C   0  0  0  0  0  0  0  0  0  0  0  0
    5.7059   -2.1931    0.0000 C   0  0  0  0  0  0  0  0  0  0  0  0
    6.2553   -0.1441    0.0000 C   0  0  0  0  0  0  0  0  0  0  0  0
    4.2063    0.4053    0.0000 C   0  0  0  0  0  0  0  0  0  0  0  0
    2.3583    0.6065    0.0000 C   0  0  0  0  0  0  0  0  0  0  0  0
   -0.2361   -3.8863    0.0000 C   0  0  0  0  0  0  0  0  0  0  0  0
    1.0584   -3.1441    0.0000 C   0  0  0  0  0  0  0  0  0  0  0  0
   -1.5352   -3.1363    0.0000 C   0  0  0  0  0  0  0  0  0  0  0  0
   -0.2402   -0.8933    0.0000 C   0  0  0  0  0  0  0  0  0  0  0  0
    3.6570   -1.6437    0.0000 C   0  0  0  0  0  0  0  0  0  0  0  0
    2.3580   -0.8935    0.0000 C   0  0  0  0  0  0  0  0  0  0  0  0
    1.0589   -1.6433    0.0000 C   0  0  0  0  0  0  0  0  0  0  0  0
   -1.5397   -1.6441    0.0000 C   0  0  0  0  0  0  0  0  0  0  0  0
   -2.8400   -0.8963    0.0000 O   0  0  0  0  0  0  0  0  0  0  0  0
    4.9561   -0.8939    0.0000 Si  0  0  0  0  0  4  0  0  0  0  0  0
  5  1  2  0
  7  6  1  0
  8  6  1  0
 11  5  1  0
 11 10  1  0
 12  7  1  0
 12  9  1  0
 12 11  1  0
 13  8  1  0
 13  9  1  0
 14 13  2  0
 15  2  1  0
 15  3  1  0
 15  4  1  0
 15 10  1  0
M  END
>  <NAME>  (52) 
3-(1-TRIMETHYLSILYLMETHYL-2-PROPENYL)CYCLOHEXANONE

>  <SYNONYMS>  (52) 


>  <SPECTRUM TYPE>  (52) 
MS1

>  <INSTRUMENT TYPE>  (52) 
EI-B

>  <INSTRUMENT>  (52) 
JEOL JMS-DX-300

>  <ION MODE>  (52) 
P

>  <INCHIKEY>  (52) 
ZDRGHKSWNMUTAK-UHFFFAOYSA-N

>  <FORMULA>  (52) 
C13H24OSi

>  <EXACT MASS>  (52) 
224.159641918

>  <MW>  (52) 
224

>  <ID>  (52) 
JP012092

>  <CONTRIBUTOR>  (52) 
University of Tokyo Team, {Faculty of Engineering, University of Tokyo

>  <COMMENT>  (52) 
SMILES=C=CC(C[Si](C)(C)C)C(C1)CC(=O)CC1
InChI=InChI=1S/C13H24OSi/c1-5-11(10-15(2,3)4)12-7-6-8-13(14)9-12/h5,11-12H,1,6-10H2,2-4H3
computed SMILES=O=C1CCCC(C1)C(C=C)C[Si](C)(C)C
accession=JP012092
date=2016.01.19 (Created 2008.10.21, modified 2011.05.06)
author=HISAHIRO HAGIWARA, INSTITUTE FOR CHEMICAL REACTION SCIENCE TOHOKU UNIV.
license=CC BY-NC-SA
exact mass=224.15964
ionization energy=70 eV
ion type=[M]+*
computed spectral entropy=2.564601843278529
computed normalized entropy=0.7213363639576151
SPLASH=splash10-006x-9100000000-0ec67d50cdb811320254
submitter=submitter = University of Tokyo Team (Faculty of Engineering, University of Tokyo)
MoNA Rating=3.75

>  <NUM PEAKS>  (52) 
35

>  <MASS SPECTRAL PEAKS>  (52) 
37 2.6
38 3.1
39 6.9
41 8.1
42 10.8
43 99.99
44 4.5
45 6
53 1.6
54 1.5
55 2.9
57 2.1
58 43.6
59 6.7
67 1.3
69 2.4
72 1.1
73 59.3
74 6.2
75 16.9
76 1.4
77 1.6
79 1.7
85 1
91 1.2
97 2.1
115 1.5
127 12.1
128 1.7
142 2
155 4.3
169 4
170 17.3
171 3
209 2.3

>  <PREDICTED SPECTRUM>  (52) 
27 75
29 31
31 2
39 126
40 73
41 215
42 77
43 213
44 109
45 275
47 42
50 13
51 53
52 31
53 98
54 1
55 257
56 35
57 128
58 70
59 285
60 42
61 74
63 1
65 60
66 22
67 110
69 90
70 20
73 999
74 291
75 450
76 70
77 125
78 45
79 44
81 52
82 13
83 42
84 15
85 92
86 47
91 116
92 58
93 36
97 126
98 5
99 58
101 21
105 41
111 72
113 77
115 84
125 18
127 302
128 105
129 36
134 16
135 78
141 135
142 70
153 47
154 15
155 234
156 115
157 28
167 7
169 104
170 266
181 53
209 87
210 21

$$$$

     RDKit          2D

 20 20  0  0  0  0  0  0  0  0999 V2000
    1.2990    3.7500    0.0000 C   0  0  0  0  0  0  0  0  0  0  0  0
   -1.2990    3.7500    0.0000 C   0  0  0  0  0  0  0  0  0  0  0  0
    2.3264    2.0690    0.0000 C   0  0  0  0  0  0  0  0  0  0  0  0
    4.7677    1.1801    0.0000 C   0  0  0  0  0  0  0  0  0  0  0  0
    1.8127   -2.1596    0.0000 C   0  0  0  0  0  0  0  0  0  0  0  0
    5.4789   -2.8558    0.0000 C   0  0  0  0  0  0  0  0  0  0  0  0
    6.6958   -1.1182    0.0000 C   0  0  0  0  0  0  0  0  0  0  0  0
    4.9582    0.0987    0.0000 C   0  0  0  0  0  0  0  0  0  0  0  0
   -1.3000    0.7500    0.0000 C   0  0  0  0  0  0  0  0  0  0  0  0
    1.3000    0.7500    0.0000 C   0  0  0  0  0  0  0  0  0  0  0  0
    0.0000   -1.5000    0.0000 C   0  0  0  0  0  0  0  0  0  0  0  0
    3.7413   -1.6389    0.0000 C   0  0  0  0  0  0  0  0  0  0  0  0
    0.0000    3.0000    0.0000 C   0  0  0  0  0  0  0  0  0  0  0  0
    3.2904    0.9198    0.0000 C   0  0  0  0  0  0  0  0  0  0  0  0
    0.0000    1.5000    0.0000 C   0  0  0  0  0  0  0  0  0  0  0  0
   -1.3000   -0.7500    0.0000 C   0  0  0  0  0  0  0  0  0  0  0  0
    2.7772   -0.4897    0.0000 C   0  0  0  0  0  0  0  0  0  0  0  0
    1.3000   -0.7500    0.0000 C   0  0  0  0  0  0  0  0  0  0  0  0
   -2.5989   -1.5002    0.0000 O   0  0  0  0  0  0  0  0  0  0  0  0
    5.2185   -1.3785    0.0000 Si  0  0  0  0  0  4  0  0  0  0  0  0
 13  1  2  0
 13  2  1  0
 14  3  2  0
 14  4  1  0
 15  9  1  0
 15 10  1  0
 15 13  1  0
 16  9  1  0
 16 11  1  0
 17 12  1  0
 17 14  1  0
 18  5  1  0
 18 10  1  0
 18 11  1  0
 18 17  1  0
 19 16  2  0
 20  6  1  0
 20  7  1  0
 20  8  1  0
 20 12  1  0
M  END
>  <NAME>  (53) 
3-ISOPROPENYL-5-(2-METHYL-1-TRIMETHYLSILYLMETHYL-2-PROPENYL)-5-METHYLCYCLOHEXANONE

>  <SYNONYMS>  (53) 


>  <SPECTRUM TYPE>  (53) 
MS1

>  <INSTRUMENT TYPE>  (53) 
EI-B

>  <INSTRUMENT>  (53) 
JEOL JMS-DX-300

>  <ION MODE>  (53) 
P

>  <INCHIKEY>  (53) 
AQWFFLWTSWZNHW-UHFFFAOYSA-N

>  <FORMULA>  (53) 
C18H32OSi

>  <EXACT MASS>  (53) 
292.222242174

>  <MW>  (53) 
292

>  <ID>  (53) 
JP012091

>  <CONTRIBUTOR>  (53) 
University of Tokyo Team, {Faculty of Engineering, University of Tokyo

>  <COMMENT>  (53) 
SMILES=CC(=C)C(C1)CC(C)(CC(=O)1)C(C(C)=C)C[Si](C)(C)C
InChI=InChI=1S/C18H32OSi/c1-13(2)15-9-16(19)11-18(5,10-15)17(14(3)4)12-20(6,7)8/h15,17H,1,3,9-12H2,2,4-8H3
computed SMILES=O=C1CC(C(=C)C)CC(C)(C1)C(C(=C)C)C[Si](C)(C)C
accession=JP012091
date=2016.01.19 (Created 2008.10.21, modified 2011.05.06)
author=HISAHIRO HAGIWARA, INSTITUTE FOR CHEMICAL REACTION SCIENCE TOHOKU UNIV.
license=CC BY-NC-SA
exact mass=292.22224
ionization energy=70 eV
ion type=[M]+*
computed spectral entropy=2.740783329113417
computed normalized entropy=0.7429853328649226
SPLASH=splash10-00di-9310000000-c6589bed9a848d37647e
submitter=submitter = University of Tokyo Team (Faculty of Engineering, University of Tokyo)
MoNA Rating=3.75

>  <NUM PEAKS>  (53) 
40

>  <MASS SPECTRAL PEAKS>  (53) 
41 3.7
43 3
45 5.7
53 1.8
55 5.7
59 4.8
67 3.5
68 2.6
73 99.99
74 9.2
75 12
77 1.9
79 2.1
81 2.7
91 2
93 2.2
94 3.2
95 1.7
97 3.8
105 2
107 1.8
109 2.2
111 1.8
117 2.9
119 2.4
131 1.8
134 2.2
141 21.1
142 4
143 1.8
181 8.6
182 2.3
195 6.1
196 2
209 7.3
223 2
224 15.3
225 3.2
277 1.8
292 0.6

>  <PREDICTED SPECTRUM>  (53) 
27 28
39 54
40 40
41 162
42 20
43 71
44 54
45 254
47 20
53 59
55 116
56 7
57 30
58 51
59 213
61 39
66 6
67 66
68 25
69 112
70 5
71 27
72 54
73 999
74 266
75 369
76 24
77 60
78 15
79 56
80 12
81 55
82 9
83 112
84 15
85 57
91 94
92 71
93 102
95 56
103 25
105 78
107 65
111 64
112 3
113 21
115 32
117 61
119 93
125 3
127 77
128 0
135 126
141 183
142 108
143 205
144 71
145 21
146 14
151 12
153 58
154 4
155 33
156 32
159 45
160 16
179 85
181 148
182 18
183 48
193 23
195 156
196 48
209 179
210 82
221 30
223 160
224 265
225 194
249 20
277 102
278 38
292 13

$$$$

     RDKit          2D

 17 16  0  0  0  0  0  0  0  0999 V2000
    3.8971    6.0000    0.0000 C   0  0  0  0  0  0  0  0  0  0  0  0
  -10.3923    6.7500    0.0000 C   0  0  0  0  0  0  0  0  0  0  0  0
   -3.4460    3.4414    0.0000 C   0  0  0  0  0  0  0  0  0  0  0  0
   -4.8613    4.8509    0.0000 C   0  0  0  0  0  0  0  0  0  0  0  0
    2.5981    6.7500    0.0000 C   0  0  0  0  0  0  0  0  0  0  0  0
   -9.0933    6.0000    0.0000 C   0  0  0  0  0  0  0  0  0  0  0  0
   -2.9329    4.8509    0.0000 C   0  0  0  0  0  0  0  0  0  0  0  0
    1.2990    6.0000    0.0000 C   0  0  0  0  0  0  0  0  0  0  0  0
   -7.7942    6.7500    0.0000 C   0  0  0  0  0  0  0  0  0  0  0  0
    0.0000    6.7500    0.0000 C   0  0  0  0  0  0  0  0  0  0  0  0
   -6.4952    6.0000    0.0000 C   0  0  0  0  0  0  0  0  0  0  0  0
   -2.5981    6.7500    0.0000 C   0  0  0  0  0  0  0  0  0  0  0  0
   -1.2990    6.0000    0.0000 C   0  0  0  0  0  0  0  0  0  0  0  0
   -5.1962    6.7500    0.0000 C   0  0  0  0  0  0  0  0  0  0  0  0
   -3.8971    6.0000    0.0000 C   0  0  0  0  0  0  0  0  0  0  0  0
   -1.2990    4.5000    0.0000 O   0  0  0  0  0  0  0  0  0  0  0  0
   -5.1962    8.2500    0.0000 O   0  0  0  0  0  0  0  0  0  0  0  0
  5  1  1  0
  6  2  1  0
  7  3  2  0
  8  5  1  0
  9  6  1  0
 10  8  1  0
 11  9  1  0
 13 10  1  0
 13 12  1  0
 14 11  1  0
 15  4  1  0
 15  7  1  0
 15 12  1  0
 15 14  1  0
 16 13  2  0
 17 14  2  0
M  END
>  <NAME>  (54) 
6-METHYL-6-VINYLDODECANE-5,8-DIONE

>  <SYNONYMS>  (54) 


>  <SPECTRUM TYPE>  (54) 
MS1

>  <INSTRUMENT TYPE>  (54) 
EI-B

>  <INSTRUMENT>  (54) 
JEOL JMS-DX-300

>  <ION MODE>  (54) 
P

>  <INCHIKEY>  (54) 
REOULBHPBOSYMQ-UHFFFAOYSA-N

>  <FORMULA>  (54) 
C15H26O2

>  <EXACT MASS>  (54) 
238.193280072

>  <MW>  (54) 
238

>  <ID>  (54) 
JP012090

>  <CONTRIBUTOR>  (54) 
University of Tokyo Team, {Faculty of Engineering, University of Tokyo

>  <COMMENT>  (54) 
SMILES=CCCCC(=O)CC(C)(C=C)C(=O)CCCC
InChI=InChI=1S/C15H26O2/c1-5-8-10-13(16)12-15(4,7-3)14(17)11-9-6-2/h7H,3,5-6,8-12H2,1-2,4H3
computed SMILES=O=C(CCCC)CC(C=C)(C(=O)CCCC)C
accession=JP012090
date=2016.01.19 (Created 2008.10.21, modified 2011.05.06)
license=CC BY-NC-SA
author=HISAHIRO HAGIWARA, INSTITUTE FOR CHEMICAL REACTION SCIENCE TOHOKU UNIV.
exact mass=238.19328
ionization energy=70 eV
ion type=[M]+*
computed spectral entropy=1.8316061416253515
computed normalized entropy=0.6114051505184818
SPLASH=splash10-052r-9100000000-9c4df35e6c188e35a7a5
submitter=submitter = University of Tokyo Team (Faculty of Engineering, University of Tokyo)
MoNA Rating=3.75

>  <NUM PEAKS>  (54) 
20

>  <MASS SPECTRAL PEAKS>  (54) 
39 1.9
41 13.1
42 1
43 1.9
53 1.4
55 2.5
57 61.5
58 3.1
67 1.9
68 1.9
85 99.99
86 6.6
94 1.5
97 2.1
138 12.5
139 2.1
153 8.7
154 1.7
181 1.3
238 3.7

>  <PREDICTED SPECTRUM>  (54) 
26 7
27 135
28 51
29 237
39 110
40 7
41 358
42 82
43 141
44 22
51 18
52 9
53 60
54 41
55 274
56 110
57 830
58 206
59 24
60 4
67 66
68 12
69 146
70 29
77 14
79 54
80 1
81 118
82 33
83 18
85 999
86 177
93 60
94 8
95 76
96 56
97 152
98 55
100 14
107 1
111 17
113 45
121 147
123 55
125 66
126 39
127 23
135 59
136 47
138 17
139 93
153 88
154 131
155 7
181 220
209 18
238 87
239 13

$$$$

     RDKit          2D

 21 20  0  0  0  0  0  0  0  0999 V2000
  -11.6913    6.7500    0.0000 C   0  0  0  0  0  0  0  0  0  0  0  0
    3.8971    6.7500    0.0000 C   0  0  0  0  0  0  0  0  0  0  0  0
   -3.8971    8.2500    0.0000 C   0  0  0  0  0  0  0  0  0  0  0  0
   -2.0490    2.4510    0.0000 C   0  0  0  0  0  0  0  0  0  0  0  0
    0.0000    3.0000    0.0000 C   0  0  0  0  0  0  0  0  0  0  0  0
   -0.5490    5.0490    0.0000 C   0  0  0  0  0  0  0  0  0  0  0  0
  -10.3923    6.0000    0.0000 C   0  0  0  0  0  0  0  0  0  0  0  0
    2.5981    6.0000    0.0000 C   0  0  0  0  0  0  0  0  0  0  0  0
   -9.0933    6.7500    0.0000 C   0  0  0  0  0  0  0  0  0  0  0  0
    1.2990    6.7500    0.0000 C   0  0  0  0  0  0  0  0  0  0  0  0
   -7.7942    6.0000    0.0000 C   0  0  0  0  0  0  0  0  0  0  0  0
    0.0000    6.0000    0.0000 C   0  0  0  0  0  0  0  0  0  0  0  0
   -5.1962    6.0000    0.0000 C   0  0  0  0  0  0  0  0  0  0  0  0
   -2.5981    4.5000    0.0000 C   0  0  0  0  0  0  0  0  0  0  0  0
   -3.8971    6.7500    0.0000 C   0  0  0  0  0  0  0  0  0  0  0  0
   -6.4952    6.7500    0.0000 C   0  0  0  0  0  0  0  0  0  0  0  0
   -2.5981    6.0000    0.0000 C   0  0  0  0  0  0  0  0  0  0  0  0
   -1.2990    6.7500    0.0000 C   0  0  0  0  0  0  0  0  0  0  0  0
   -6.4952    8.2500    0.0000 O   0  0  0  0  0  0  0  0  0  0  0  0
   -1.2990    8.2500    0.0000 O   0  0  0  0  0  0  0  0  0  0  0  0
   -1.2990    3.7500    0.0000 Si  0  0  0  0  0  4  0  0  0  0  0  0
  7  1  1  0
  8  2  1  0
  9  7  1  0
 10  8  1  0
 11  9  1  0
 12 10  1  0
 15  3  2  0
 15 13  1  0
 16 11  1  0
 16 13  1  0
 17 14  1  0
 17 15  1  0
 18 12  1  0
 18 17  1  0
 19 16  2  0
 20 18  2  0
 21  4  1  0
 21  5  1  0
 21  6  1  0
 21 14  1  0
M  END
>  <NAME>  (55) 
7-METHYLENE-8-(TRIMETHYLSILYLMETHYL)-TRIDECANE-5,9-DIONE

>  <SYNONYMS>  (55) 


>  <SPECTRUM TYPE>  (55) 
MS1

>  <INSTRUMENT TYPE>  (55) 
EI-B

>  <INSTRUMENT>  (55) 
JEOL JMS-DX-300

>  <ION MODE>  (55) 
P

>  <INCHIKEY>  (55) 
YEXWVMSNWQPQHO-UHFFFAOYSA-N

>  <FORMULA>  (55) 
C18H34O2Si

>  <EXACT MASS>  (55) 
310.232806858

>  <MW>  (55) 
310

>  <ID>  (55) 
JP012089

>  <CONTRIBUTOR>  (55) 
University of Tokyo Team, {Faculty of Engineering, University of Tokyo

>  <COMMENT>  (55) 
SMILES=CCCCC(=O)CC(=C)C(C(=O)CCCC)C[Si](C)(C)C
InChI=InChI=1S/C18H34O2Si/c1-7-9-11-16(19)13-15(3)17(14-21(4,5)6)18(20)12-10-8-2/h17H,3,7-14H2,1-2,4-6H3
computed SMILES=O=C(CC(=C)C(C(=O)CCCC)C[Si](C)(C)C)CCCC
accession=JP012089
date=2016.01.19 (Created 2008.10.21, modified 2011.05.06)
author=HISAHIRO HAGIWARA, INSTITUTE FOR CHEMICAL REACTION SCIENCE TOHOKU UNIV.
license=CC BY-NC-SA
exact mass=310.23281
ionization energy=70 eV
ion type=[M]+*
computed spectral entropy=2.9393779786496093
computed normalized entropy=0.8267483036297265
SPLASH=splash10-00fr-9160000000-56818c8b6e5bbcd1567c
submitter=submitter = University of Tokyo Team (Faculty of Engineering, University of Tokyo)
MoNA Rating=3.75

>  <NUM PEAKS>  (55) 
35

>  <MASS SPECTRAL PEAKS>  (55) 
41 10.4
45 8.4
57 40.1
59 3.5
73 99.99
74 9.4
75 18.9
79 5.2
85 42.2
86 2.6
93 11.7
103 2.2
130 2.4
135 7
163 9.5
169 9.3
177 2.5
178 6.3
181 3
197 6.5
209 2
210 3.2
211 21.2
212 4.3
220 5.5
225 51.2
226 13.6
227 3.5
253 38.8
254 7.8
255 2.6
281 4.4
295 13.8
296 3.5
310 6.4

>  <PREDICTED SPECTRUM>  (55) 
27 48
29 114
39 18
41 213
43 144
44 19
45 187
47 69
53 77
54 0
55 291
57 623
58 159
59 295
65 35
66 21
67 109
68 15
69 157
71 71
73 999
74 247
75 672
76 137
77 128
78 21
79 137
80 30
81 126
82 43
83 89
84 19
85 722
86 36
89 28
91 142
92 56
93 225
95 83
99 55
100 0
101 24
106 119
107 195
108 76
109 74
111 35
113 64
115 71
117 16
119 58
121 21
123 29
124 2
125 113
126 4
127 25
129 14
135 379
136 39
147 40
163 68
164 44
165 6
168 46
169 412
170 161
171 65
177 50
178 121
179 20
181 46
182 8
183 207
184 27
185 14
192 17
193 52
197 96
198 65
208 3
209 171
210 102
211 676
212 339
220 204
225 808
226 529
227 224
240 45
253 769
254 322
255 174
281 269
295 397
296 174
297 42
310 259
311 110

$$$$

     RDKit          2D

 14 13  0  0  0  0  0  0  0  0999 V2000
   -0.4755    1.9755    0.0000 C   0  0  0  0  0  0  0  0  0  0  0  0
   -8.2697    4.9755    0.0000 C   0  0  0  0  0  0  0  0  0  0  0  0
    0.0736    2.9264    0.0000 C   0  0  0  0  0  0  0  0  0  0  0  0
    2.1226    3.4755    0.0000 C   0  0  0  0  0  0  0  0  0  0  0  0
    1.5736    5.5245    0.0000 C   0  0  0  0  0  0  0  0  0  0  0  0
   -1.7745    2.7255    0.0000 C   0  0  0  0  0  0  0  0  0  0  0  0
   -6.9707    4.2255    0.0000 C   0  0  0  0  0  0  0  0  0  0  0  0
   -3.0736    4.9755    0.0000 C   0  0  0  0  0  0  0  0  0  0  0  0
   -4.3726    4.2255    0.0000 C   0  0  0  0  0  0  0  0  0  0  0  0
   -0.4755    4.9755    0.0000 C   0  0  0  0  0  0  0  0  0  0  0  0
   -1.7745    4.2255    0.0000 C   0  0  0  0  0  0  0  0  0  0  0  0
   -5.6716    4.9755    0.0000 C   0  0  0  0  0  0  0  0  0  0  0  0
   -5.6716    6.4755    0.0000 O   0  0  0  0  0  0  0  0  0  0  0  0
    0.8236    4.2255    0.0000 Si  0  0  0  0  0  4  0  0  0  0  0  0
  6  1  2  0
  7  2  1  0
  9  8  1  0
 11  6  1  0
 11  8  1  0
 11 10  1  0
 12  7  1  0
 12  9  1  0
 13 12  2  0
 14  3  1  0
 14  4  1  0
 14  5  1  0
 14 10  1  0
M  END
>  <NAME>  (56) 
7-TRIMETHYLSILYL-6-VINYLHEPTAN-3-ONE

>  <SYNONYMS>  (56) 


>  <SPECTRUM TYPE>  (56) 
MS1

>  <INSTRUMENT TYPE>  (56) 
EI-B

>  <INSTRUMENT>  (56) 
JEOL JMS-DX-300

>  <ION MODE>  (56) 
P

>  <INCHIKEY>  (56) 
MSJGHQLNYLHARC-UHFFFAOYSA-N

>  <FORMULA>  (56) 
C12H24OSi

>  <EXACT MASS>  (56) 
212.15964191799998

>  <MW>  (56) 
212

>  <ID>  (56) 
JP012088

>  <CONTRIBUTOR>  (56) 
University of Tokyo Team, {Faculty of Engineering, University of Tokyo

>  <COMMENT>  (56) 
SMILES=CCC(=O)CCC(C=C)C[Si](C)(C)C
InChI=InChI=1S/C12H24OSi/c1-6-11(10-14(3,4)5)8-9-12(13)7-2/h6,11H,1,7-10H2,2-5H3
computed SMILES=O=C(CC)CCC(C=C)C[Si](C)(C)C
accession=JP012088
date=2016.01.19 (Created 2008.10.21, modified 2011.05.06)
author=HISAHIRO HAGIWARA, INSTITUTE FOR CHEMICAL REACTION SCIENCE TOHOKU UNIV.
license=CC BY-NC-SA
exact mass=212.15964
ionization energy=70 eV
ion type=[M]+*
computed spectral entropy=3.0630655866536096
computed normalized entropy=0.8303512285384109
SPLASH=splash10-00di-9400000000-5f1b0b36c235b8f884bf
submitter=submitter = University of Tokyo Team (Faculty of Engineering, University of Tokyo)
MoNA Rating=3.75

>  <NUM PEAKS>  (56) 
40

>  <MASS SPECTRAL PEAKS>  (56) 
41 3
43 4.1
45 7.5
55 3.1
57 23.6
58 2.2
59 4.7
67 2
68 3.2
69 4.7
73 99.99
74 8.4
75 19.8
77 5.6
79 2.9
81 4.7
85 3
91 5.9
93 3.4
95 3
96 3
98 2.1
99 5.1
107 6.6
109 6.2
111 4
112 7.6
113 5.3
121 6.1
127 7.3
129 3.6
131 6.8
141 5.4
144 5.4
147 7.1
149 8.1
155 6.9
157 10.2
169 11.7
183 6.2

>  <PREDICTED SPECTRUM>  (56) 
27 44
29 48
39 81
40 12
41 108
43 147
44 14
45 217
47 81
51 47
52 8
53 62
55 104
56 47
57 250
58 45
59 201
60 40
61 60
63 0
65 82
66 20
67 83
69 100
70 38
71 92
72 91
73 999
74 282
75 374
76 61
77 178
78 51
79 120
80 3
81 112
82 0
83 20
85 187
86 67
87 12
91 100
92 13
93 248
94 20
95 142
96 41
97 101
98 13
99 125
101 24
103 103
104 16
105 60
106 14
107 152
108 45
109 97
110 19
111 75
112 5
113 100
115 76
119 2
121 122
122 84
126 2
127 144
128 37
129 129
131 213
139 26
141 125
142 82
143 122
144 97
155 119
156 71
157 103
159 45
169 108
170 19
183 166
184 10
185 40
197 72
212 11

$$$$

     RDKit          2D

 20 19  0  0  0  0  0  0  0  0999 V2000
  -10.3923    6.7500    0.0000 C   0  0  0  0  0  0  0  0  0  0  0  0
    3.8971    6.0000    0.0000 C   0  0  0  0  0  0  0  0  0  0  0  0
    2.5981    8.2500    0.0000 C   0  0  0  0  0  0  0  0  0  0  0  0
   -2.5981    8.2500    0.0000 C   0  0  0  0  0  0  0  0  0  0  0  0
   -5.9462    5.0490    0.0000 C   0  0  0  0  0  0  0  0  0  0  0  0
   -6.4952    3.0000    0.0000 C   0  0  0  0  0  0  0  0  0  0  0  0
   -4.4462    2.4510    0.0000 C   0  0  0  0  0  0  0  0  0  0  0  0
   -9.0933    6.0000    0.0000 C   0  0  0  0  0  0  0  0  0  0  0  0
    0.0000    6.7500    0.0000 C   0  0  0  0  0  0  0  0  0  0  0  0
    1.2990    6.0000    0.0000 C   0  0  0  0  0  0  0  0  0  0  0  0
   -1.2990    6.0000    0.0000 C   0  0  0  0  0  0  0  0  0  0  0  0
   -5.1962    6.7500    0.0000 C   0  0  0  0  0  0  0  0  0  0  0  0
   -6.4952    6.0000    0.0000 C   0  0  0  0  0  0  0  0  0  0  0  0
   -3.8971    4.5000    0.0000 C   0  0  0  0  0  0  0  0  0  0  0  0
    2.5981    6.7500    0.0000 C   0  0  0  0  0  0  0  0  0  0  0  0
   -2.5981    6.7500    0.0000 C   0  0  0  0  0  0  0  0  0  0  0  0
   -3.8971    6.0000    0.0000 C   0  0  0  0  0  0  0  0  0  0  0  0
   -7.7942    6.7500    0.0000 C   0  0  0  0  0  0  0  0  0  0  0  0
   -7.7942    8.2500    0.0000 O   0  0  0  0  0  0  0  0  0  0  0  0
   -5.1962    3.7500    0.0000 Si  0  0  0  0  0  4  0  0  0  0  0  0
  8  1  1  0
 10  9  1  0
 11  9  1  0
 13 12  1  0
 15  2  1  0
 15  3  1  0
 15 10  2  0
 16  4  2  0
 16 11  1  0
 17 12  1  0
 17 14  1  0
 17 16  1  0
 18  8  1  0
 18 13  1  0
 19 18  2  0
 20  5  1  0
 20  6  1  0
 20  7  1  0
 20 14  1  0
M  END
>  <NAME>  (57) 
11-METHYL-7-METHYLENE-6-TRIMETHYLSILYLMETHYL-10-DODECEN-3-ONE

>  <SYNONYMS>  (57) 


>  <SPECTRUM TYPE>  (57) 
MS1

>  <INSTRUMENT TYPE>  (57) 
EI-B

>  <INSTRUMENT>  (57) 
JEOL JMS-DX-300

>  <ION MODE>  (57) 
P

>  <INCHIKEY>  (57) 
MJRLSIJCVDIDRU-UHFFFAOYSA-N

>  <FORMULA>  (57) 
C18H34OSi

>  <EXACT MASS>  (57) 
294.237892238

>  <MW>  (57) 
294

>  <ID>  (57) 
JP012087

>  <CONTRIBUTOR>  (57) 
University of Tokyo Team, {Faculty of Engineering, University of Tokyo

>  <COMMENT>  (57) 
SMILES=CCC(=O)CCC(C(=C)CCC=C(C)C)C[Si](C)(C)C
InChI=InChI=1S/C18H34OSi/c1-8-18(19)13-12-17(14-20(5,6)7)16(4)11-9-10-15(2)3/h10,17H,4,8-9,11-14H2,1-3,5-7H3
computed SMILES=O=C(CC)CCC(C(=C)CCC=C(C)C)C[Si](C)(C)C
accession=JP012087
date=2016.01.19 (Created 2008.10.21, modified 2011.05.06)
author=HISAHIRO HAGIWARA, INSTITUTE FOR CHEMICAL REACTION SCIENCE TOHOKU UNIV.
license=CC BY-NC-SA
exact mass=294.23789
ionization energy=70 eV
ion type=[M]+*
computed spectral entropy=3.2075202781440537
computed normalized entropy=0.8117748502984309
SPLASH=splash10-00di-9600000000-5fd83327143799ca5383
submitter=submitter = University of Tokyo Team (Faculty of Engineering, University of Tokyo)
MoNA Rating=3.75

>  <NUM PEAKS>  (57) 
52

>  <MASS SPECTRAL PEAKS>  (57) 
41 18.7
45 7.2
53 1.7
59 5.3
61 1.9
67 3.8
69 29.2
73 99.99
74 9.9
75 34.2
76 2.5
77 1.8
79 3.9
81 3.1
91 2.3
93 9.3
94 2.1
95 10.4
107 19.9
108 3.3
109 3
117 1.5
121 4.2
122 2.4
129 10.7
130 1.9
131 1.9
135 15.6
136 1.5
143 4.5
144 25.4
145 5.5
148 2.3
150 7.5
154 3.2
155 1.8
161 3.1
175 7.1
176 1.5
179 9.9
180 1.9
183 7.6
185 24.2
186 3.3
197 2.1
204 1.9
207 1.7
209 2.4
222 3.5
265 3.9
279 1.7
294 1.9

>  <PREDICTED SPECTRUM>  (57) 
27 38
29 76
39 63
40 32
41 228
42 16
43 83
44 58
45 217
46 11
47 53
53 81
54 19
55 145
57 102
58 86
59 212
60 79
61 35
65 56
66 13
67 138
68 5
69 343
70 43
71 71
72 96
73 999
74 275
75 467
76 94
77 158
78 32
79 177
80 49
81 209
82 66
83 106
85 108
86 48
91 129
92 85
93 241
94 80
95 146
96 25
97 53
99 37
101 21
103 58
105 105
106 67
107 391
108 153
109 215
110 9
111 12
113 43
115 92
116 10
117 73
119 69
120 35
121 156
122 89
123 14
127 53
128 25
129 120
130 89
131 138
132 43
133 85
134 29
135 268
136 30
137 44
141 24
142 16
143 153
144 143
145 103
146 43
147 139
148 98
149 77
150 31
151 21
155 95
156 83
157 119
158 110
159 51
160 32
161 63
162 26
167 19
170 51
175 58
176 17
179 199
180 22
181 42
183 151
184 73
185 229
186 71
191 15
195 62
197 116
198 35
204 84
205 4
206 23
209 128
211 57
212 34
219 13
220 2
221 39
222 38
223 42
224 21
225 49
235 2
237 61
249 48
250 35
251 43
261 13
265 113
266 46
267 25
276 9
279 96
294 160
295 36
296 12

$$$$

     RDKit          2D

 21 21  0  0  0  0  0  0  0  0999 V2000
   -4.5455   -3.3737    0.0000 C   0  0  0  0  0  0  0  0  0  0  0  0
   -3.2461   -1.1239    0.0000 C   0  0  0  0  0  0  0  0  0  0  0  0
    1.9500   -1.1247    0.0000 C   0  0  0  0  0  0  0  0  0  0  0  0
    3.7972   -6.9241    0.0000 C   0  0  0  0  0  0  0  0  0  0  0  0
    5.8463   -6.3754    0.0000 C   0  0  0  0  0  0  0  0  0  0  0  0
    5.2976   -4.3262    0.0000 C   0  0  0  0  0  0  0  0  0  0  0  0
   -0.6483   -2.6243    0.0000 C   0  0  0  0  0  0  0  0  0  0  0  0
    5.8429   -0.3821    0.0000 C   0  0  0  0  0  0  0  0  0  0  0  0
   -1.9474   -3.3741    0.0000 C   0  0  0  0  0  0  0  0  0  0  0  0
    0.6506   -3.3745    0.0000 C   0  0  0  0  0  0  0  0  0  0  0  0
    4.5484   -1.1243    0.0000 C   0  0  0  0  0  0  0  0  0  0  0  0
    7.1419   -1.1321    0.0000 C   0  0  0  0  0  0  0  0  0  0  0  0
    5.8469   -3.3751    0.0000 C   0  0  0  0  0  0  0  0  0  0  0  0
    3.2485   -4.8749    0.0000 C   0  0  0  0  0  0  0  0  0  0  0  0
   -3.2464   -2.6239    0.0000 C   0  0  0  0  0  0  0  0  0  0  0  0
    1.9498   -2.6247    0.0000 C   0  0  0  0  0  0  0  0  0  0  0  0
    4.5479   -2.6251    0.0000 C   0  0  0  0  0  0  0  0  0  0  0  0
    7.1464   -2.6243    0.0000 C   0  0  0  0  0  0  0  0  0  0  0  0
    3.2487   -3.3749    0.0000 C   0  0  0  0  0  0  0  0  0  0  0  0
    8.4467   -3.3721    0.0000 O   0  0  0  0  0  0  0  0  0  0  0  0
    4.5474   -5.6251    0.0000 Si  0  0  0  0  0  4  0  0  0  0  0  0
  9  7  1  0
 10  7  1  0
 11  8  1  0
 12  8  1  0
 15  1  1  0
 15  2  1  0
 15  9  2  0
 16  3  2  0
 16 10  1  0
 17 11  1  0
 17 13  1  0
 18 12  1  0
 18 13  1  0
 19 14  1  0
 19 16  1  0
 19 17  1  0
 20 18  2  0
 21  4  1  0
 21  5  1  0
 21  6  1  0
 21 14  1  0
M  END
>  <NAME>  (58) 
7-(3-KETOCYCLOHEXYL)-2-METHYL-6-METHYLENE-8-TRIMETHYLSILYL-2-OCTENE

>  <SYNONYMS>  (58) 


>  <SPECTRUM TYPE>  (58) 
MS1

>  <INSTRUMENT TYPE>  (58) 
EI-B

>  <INSTRUMENT>  (58) 
JEOL JMS-DX-300

>  <ION MODE>  (58) 
P

>  <INCHIKEY>  (58) 
AONPXOGOSNOJNR-UHFFFAOYSA-N

>  <FORMULA>  (58) 
C19H34OSi

>  <EXACT MASS>  (58) 
306.237892238

>  <MW>  (58) 
306

>  <ID>  (58) 
JP012086

>  <CONTRIBUTOR>  (58) 
University of Tokyo Team, {Faculty of Engineering, University of Tokyo

>  <COMMENT>  (58) 
SMILES=CC(C)=CCCC(=C)C(C[Si](C)(C)C)C(C1)CC(=O)CC1
InChI=InChI=1S/C19H34OSi/c1-15(2)9-7-10-16(3)19(14-21(4,5)6)17-11-8-12-18(20)13-17/h9,17,19H,3,7-8,10-14H2,1-2,4-6H3
computed SMILES=O=C1CCCC(C1)C(C(=C)CCC=C(C)C)C[Si](C)(C)C
accession=JP012086
date=2016.01.19 (Created 2008.10.21, modified 2011.05.06)
author=HISAHIRO HAGIWARA, INSTITUTE FOR CHEMICAL REACTION SCIENCE TOHOKU UNIV.
license=CC BY-NC-SA
exact mass=306.23789
ionization energy=70 eV
ion type=[M]+*
computed spectral entropy=2.486322948072213
computed normalized entropy=0.7543828924659365
SPLASH=splash10-00di-9300000000-6bd891bcdadcbd91cc3e
submitter=submitter = University of Tokyo Team (Faculty of Engineering, University of Tokyo)
MoNA Rating=3.75

>  <NUM PEAKS>  (58) 
27

>  <MASS SPECTRAL PEAKS>  (58) 
41 13.5
45 5.2
55 2
59 4.5
69 11.7
73 99.99
74 10.2
75 13.7
93 2
97 5.4
133 2.1
135 19.2
136 2.6
141 2.1
142 2.2
155 3.8
169 11.3
170 10.2
181 3
195 3.6
197 4.9
209 6.5
210 2.1
224 2.1
263 4.5
291 3.1
306 2.5

>  <PREDICTED SPECTRUM>  (58) 
27 36
29 16
39 24
40 17
41 244
42 30
43 65
44 37
45 180
53 57
55 128
56 5
57 48
58 55
59 233
61 32
65 20
66 12
67 121
69 373
70 40
71 46
72 38
73 999
74 232
75 406
76 64
77 167
78 44
79 114
80 9
81 84
82 11
83 4
85 60
86 43
87 36
91 129
92 57
93 97
94 8
95 79
97 134
99 71
101 0
103 38
105 83
106 29
107 68
109 42
113 10
115 38
119 60
121 67
125 24
126 29
127 30
128 7
129 36
131 57
133 52
134 11
135 295
141 133
142 94
143 16
145 6
149 81
155 130
156 91
157 18
167 53
168 56
169 184
170 284
171 42
183 44
193 3
195 155
196 89
197 114
198 52
205 13
209 263
210 126
211 44
223 54
224 49
238 106
239 4
278 10
288 39
291 105
292 2
306 80
307 12

$$$$

     RDKit          2D

 17 18  0  0  1  0  0  0  0  0999 V2000
    3.1487   -2.7991    0.0000 C   0  0  0  0  0  0  0  0  0  0  0  0
    5.1978   -2.2504    0.0000 C   0  0  0  0  0  0  0  0  0  0  0  0
    0.0000    2.2500    0.0000 C   0  0  0  0  0  0  0  0  0  0  0  0
   -2.2641   -2.6492    0.0000 C   0  0  0  0  0  0  0  0  0  0  0  0
   -2.6000    0.7500    0.0000 C   0  0  0  0  0  0  0  0  0  0  0  0
    2.6000    0.7500    0.0000 C   0  0  0  0  0  0  0  0  0  0  0  0
   -1.3000    1.5000    0.0000 C   0  0  0  0  0  0  0  0  0  0  0  0
   -2.6000   -0.7500    0.0000 C   0  0  0  0  0  0  0  0  0  0  0  0
    1.3000    1.5000    0.0000 C   0  0  0  0  0  0  0  0  0  0  0  0
    1.3000   -1.5000    0.0000 C   0  0  0  0  0  0  0  0  0  0  0  0
    2.6000   -0.7500    0.0000 C   0  0  0  0  0  0  0  0  0  0  0  0
    0.0000   -0.7500    0.0000 C   0  0  0  0  0  0  0  0  0  0  0  0
    3.8989   -1.5002    0.0000 C   0  0  0  0  0  0  0  0  0  0  0  0
    0.0000    0.7500    0.0000 C   0  0  0  0  0  0  0  0  0  0  0  0
   -1.3000   -1.5000    0.0000 C   0  0  0  0  0  0  0  0  0  0  0  0
    4.6491   -0.2013    0.0000 O   0  0  0  0  0  0  0  0  0  0  0  0
   -0.3359   -2.6492    0.0000 O   0  0  0  0  0  0  0  0  0  0  0  0
  7  5  1  0
  8  5  1  0
  9  6  1  0
 11  6  1  0
 11 10  1  0
 12 10  1  6
 13  1  1  0
 13  2  1  0
 11 13  1  1
 14  3  1  1
 14  7  1  0
 14  9  1  0
 14 12  1  0
 15  4  1  6
 15  8  1  0
 15 12  1  0
 16 13  1  0
 15 17  1  0
M  END
>  <NAME>  (59) 
1BETA-HYDROXY-1ALPHA,(4A)BETA-DIMETHYL-7BETA-(1-METHYL-1-HYDROXYETHYL)-(8A)BETA-DECAHYDRONPHTHALENE

>  <SYNONYMS>  (59) 


>  <SPECTRUM TYPE>  (59) 
MS1

>  <INSTRUMENT TYPE>  (59) 
EI-B

>  <INSTRUMENT>  (59) 
JEOL JMS-DX-300

>  <ION MODE>  (59) 
P

>  <INCHIKEY>  (59) 
LKKDASYGWYYFIK-OSRDXIQISA-N

>  <FORMULA>  (59) 
C15H28O2

>  <EXACT MASS>  (59) 
240.208930136

>  <MW>  (59) 
240

>  <ID>  (59) 
JP012085

>  <CONTRIBUTOR>  (59) 
University of Tokyo Team, {Faculty of Engineering, University of Tokyo

>  <COMMENT>  (59) 
SMILES=CC(C)(O)C([H])(C1)CC([H])(C(C)(O)2)C(C)(CCC2)C1
InChI=InChI=1S/C15H28O2/c1-13(2,16)11-6-9-14(3)7-5-8-15(4,17)12(14)10-11/h11-12,16-17H,5-10H2,1-4H3/t11-,12+,14-,15+/m1/s1
computed SMILES=OC(C)(C)C1CCC2(C)CCCC(O)(C)C2C1
accession=JP012085
date=2016.01.19 (Created 2008.10.21, modified 2011.05.06)
author=HISAHIRO HAGIWARA, INSTITUTE FOR CHEMICAL REACTION SCIENCE TOHOKU UNIV.
license=CC BY-NC-SA
exact mass=240.20893
ionization energy=70 eV
ion type=[M]+*
computed spectral entropy=3.6147852272908025
computed normalized entropy=0.928816068163703
SPLASH=splash10-0a4i-8910000000-0e214f68cfbb2c21da94
submitter=submitter = University of Tokyo Team (Faculty of Engineering, University of Tokyo)
MoNA Rating=3.75

>  <NUM PEAKS>  (59) 
49

>  <MASS SPECTRAL PEAKS>  (59) 
41 19.2
43 48.1
53 6.2
55 19.4
58 12.9
59 57.6
67 17.5
68 6.2
69 15
71 35.8
77 6.6
79 11.3
81 39.1
82 13.9
83 9.1
85 13.1
91 8.6
93 20.8
94 7.6
95 26.2
96 20.1
97 15.9
105 12
107 15.7
108 23.4
109 99.99
110 15.2
111 6.9
121 19.5
122 11.7
123 18.4
125 6.2
133 9.2
134 7
135 28.8
136 7.4
137 24.1
147 9.7
149 49.1
150 7
161 23.2
163 6.6
164 44.8
165 8.2
189 22.6
204 42.6
205 9.4
207 8.9
222 10.7

>  <PREDICTED SPECTRUM>  (59) 
29 28
31 72
41 266
42 83
43 770
45 14
51 30
52 58
53 201
54 96
55 306
57 20
58 99
59 999
60 148
61 4
65 140
66 121
67 386
68 253
69 442
70 42
71 397
72 123
73 26
77 207
78 62
79 324
80 187
81 443
82 192
83 136
84 62
85 123
89 14
91 287
92 136
93 417
94 212
95 424
96 242
97 229
98 79
99 66
105 226
106 78
107 339
108 444
109 690
110 354
111 120
113 59
115 2
119 191
120 13
121 411
122 418
123 637
124 185
125 178
126 28
127 14
129 18
131 54
132 33
133 93
134 46
135 353
136 257
137 148
138 72
139 91
140 69
145 24
146 3
147 278
148 121
149 844
150 341
151 178
152 29
154 20
161 81
162 56
163 174
164 543
165 218
166 55
167 324
168 74
178 24
179 103
180 0
181 0
182 308
189 242
204 126
207 343
208 135
225 97

$$$$

     RDKit          2D

 19 20  0  0  1  0  0  0  0  0999 V2000
   -3.8987   -3.0002    0.0000 C   0  0  0  0  0  0  0  0  0  0  0  0
    1.3000   -3.0000    0.0000 C   0  0  0  0  0  0  0  0  0  0  0  0
    0.0000    2.2500    0.0000 C   0  0  0  0  0  0  0  0  0  0  0  0
   -7.7962   -0.7508    0.0000 C   0  0  0  0  0  0  0  0  0  0  0  0
   -2.6000    0.7500    0.0000 C   0  0  0  0  0  0  0  0  0  0  0  0
    2.6000    0.7500    0.0000 C   0  0  0  0  0  0  0  0  0  0  0  0
   -1.3000    1.5000    0.0000 C   0  0  0  0  0  0  0  0  0  0  0  0
    1.3000    1.5000    0.0000 C   0  0  0  0  0  0  0  0  0  0  0  0
   -1.3000   -1.5000    0.0000 C   0  0  0  0  0  0  0  0  0  0  0  0
   -3.8989   -1.5002    0.0000 C   0  0  0  0  0  0  0  0  0  0  0  0
    1.3000   -1.5000    0.0000 C   0  0  0  0  0  0  0  0  0  0  0  0
   -2.6000   -0.7500    0.0000 C   0  0  0  0  0  0  0  0  0  0  0  0
    0.0000   -0.7500    0.0000 C   0  0  0  0  0  0  0  0  0  0  0  0
    2.6000   -0.7500    0.0000 C   0  0  0  0  0  0  0  0  0  0  0  0
   -5.1981   -0.7504    0.0000 C   0  0  0  0  0  0  0  0  0  0  0  0
    0.0000    0.7500    0.0000 C   0  0  0  0  0  0  0  0  0  0  0  0
    3.8989   -1.5002    0.0000 O   0  0  0  0  0  0  0  0  0  0  0  0
   -5.1983    0.7496    0.0000 O   0  0  0  0  0  0  0  0  0  0  0  0
   -6.4970   -1.5006    0.0000 O   0  0  0  0  0  0  0  0  0  0  0  0
  7  5  1  0
  8  6  1  0
 10  1  1  0
 11  2  1  6
 12  5  1  0
 12  9  1  0
 12 10  1  0
 13  9  1  1
 13 11  1  0
 14  6  1  0
 14 11  1  0
 15 10  1  0
 16  3  1  6
 16  7  1  0
 16  8  1  0
 16 13  1  0
 17 14  2  0
 18 15  2  0
 19  4  1  0
 19 15  1  0
M  END
>  <NAME>  (60) 
1BETA,(4A)BETA-DIMETHYL-7-(1-CARBOMETHOXY-1-METHYL)-(8A)BETA-OCTAHYDRONAPHTHALEN-2(3H)-ONE

>  <SYNONYMS>  (60) 


>  <SPECTRUM TYPE>  (60) 
MS1

>  <INSTRUMENT TYPE>  (60) 
EI-B

>  <INSTRUMENT>  (60) 
JEOL JMS-DX-300

>  <ION MODE>  (60) 
P

>  <INCHIKEY>  (60) 
KBKKFVFNAGCAQX-DPSUSNHFSA-N

>  <FORMULA>  (60) 
C16H26O3

>  <EXACT MASS>  (60) 
266.18819469199997

>  <MW>  (60) 
266

>  <ID>  (60) 
JP012084

>  <CONTRIBUTOR>  (60) 
University of Tokyo Team, {Faculty of Engineering, University of Tokyo

>  <COMMENT>  (60) 
SMILES=COC(=O)C(C)C(C1)CC([H])(C([H])(C)2)C(C)(CCC(=O)2)C1
InChI=InChI=1S/C16H26O3/c1-10(15(18)19-4)12-5-7-16(3)8-6-14(17)11(2)13(16)9-12/h10-13H,5-9H2,1-4H3/t10?,11-,12?,13-,16+/m1/s1
computed SMILES=O=C(OC)C(C)C1CCC2(C)CCC(=O)C(C)C2C1
accession=JP012084
date=2016.01.19 (Created 2008.10.21, modified 2011.05.06)
author=HISAHIRO HAGIWARA, INSTITUTE FOR CHEMICAL REACTION SCIENCE TOHOKU UNIV.
license=CC BY-NC-SA
exact mass=266.18819
ionization energy=70 eV
ion type=[M]+*
computed spectral entropy=3.5189436919837633
computed normalized entropy=0.9414806688023803
SPLASH=splash10-032i-5940000000-002a2097d8ed3057d50e
submitter=submitter = University of Tokyo Team (Faculty of Engineering, University of Tokyo)
MoNA Rating=3.75

>  <NUM PEAKS>  (60) 
42

>  <MASS SPECTRAL PEAKS>  (60) 
41 20.5
55 26.6
57 10.6
67 20.1
69 9.9
79 15.8
81 24
88 71.8
91 12.5
93 23.6
95 27.5
97 14
105 17.4
106 9.6
107 43.4
109 16.2
119 13.2
121 30.9
122 16.4
123 46.3
124 16.1
134 15.7
135 17.2
138 11.5
151 10.9
160 9.1
161 58.9
162 9.8
163 19.5
177 20
178 28.7
179 44.8
182 11.2
189 13.8
206 10.6
207 16.3
234 11.2
235 13.1
248 25.3
251 35.3
266 99.99
267 21.8

>  <PREDICTED SPECTRUM>  (60) 
41 261
43 28
45 54
53 144
55 475
56 172
57 101
59 72
65 21
67 358
68 102
69 143
70 57
71 26
77 141
78 0
79 356
80 30
81 485
82 145
83 162
88 471
91 273
93 444
94 123
95 428
96 74
97 126
105 427
106 132
107 607
108 322
109 309
119 244
121 606
122 584
123 664
124 274
125 74
129 36
133 108
134 249
135 427
137 62
147 144
149 171
150 3
151 306
160 61
161 767
162 373
163 435
171 7
173 174
177 264
178 469
179 771
180 304
181 109
188 25
189 334
190 13
191 114
205 80
206 383
207 472
209 71
210 36
233 63
234 337
235 330
248 331
251 516
252 76
266 999
267 338
268 23

$$$$

     RDKit          2D

 17 18  0  0  1  0  0  0  0  0999 V2000
   -3.8987   -3.0002    0.0000 C   0  0  0  0  0  0  0  0  0  0  0  0
    1.3000   -3.0000    0.0000 C   0  0  0  0  0  0  0  0  0  0  0  0
    0.0000    2.2500    0.0000 C   0  0  0  0  0  0  0  0  0  0  0  0
   -2.6000    0.7500    0.0000 C   0  0  0  0  0  0  0  0  0  0  0  0
    2.6000    0.7500    0.0000 C   0  0  0  0  0  0  0  0  0  0  0  0
   -1.3000    1.5000    0.0000 C   0  0  0  0  0  0  0  0  0  0  0  0
    1.3000    1.5000    0.0000 C   0  0  0  0  0  0  0  0  0  0  0  0
   -1.3000   -1.5000    0.0000 C   0  0  0  0  0  0  0  0  0  0  0  0
   -5.1981   -0.7504    0.0000 C   0  0  0  0  0  0  0  0  0  0  0  0
   -3.8989   -1.5002    0.0000 C   0  0  0  0  0  0  0  0  0  0  0  0
    1.3000   -1.5000    0.0000 C   0  0  0  0  0  0  0  0  0  0  0  0
   -2.6000   -0.7500    0.0000 C   0  0  0  0  0  0  0  0  0  0  0  0
    0.0000   -0.7500    0.0000 C   0  0  0  0  0  0  0  0  0  0  0  0
    2.6000   -0.7500    0.0000 C   0  0  0  0  0  0  0  0  0  0  0  0
    0.0000    0.7500    0.0000 C   0  0  0  0  0  0  0  0  0  0  0  0
   -6.4970   -1.5006    0.0000 O   0  0  0  0  0  0  0  0  0  0  0  0
    3.8989   -1.5002    0.0000 O   0  0  0  0  0  0  0  0  0  0  0  0
  6  4  1  0
  7  5  1  0
 10  1  1  0
 10  9  1  0
 11  2  1  6
 12  4  1  0
 12  8  1  0
 12 10  1  6
 13  8  1  1
 13 11  1  0
 14  5  1  0
 14 11  1  0
 15  3  1  6
 15  6  1  0
 15  7  1  0
 15 13  1  0
 16  9  1  0
 14 17  1  1
M  END
>  <NAME>  (61) 
2ALPHA-HYDROXY-7BETA-(2-HYDROXY-1-METHYLETHYL)-1BETA,(4A)BETA-DIMETHYL-(8A)BETA-DECAHYDRONAPHTHALENE

>  <SYNONYMS>  (61) 


>  <SPECTRUM TYPE>  (61) 
MS1

>  <INSTRUMENT TYPE>  (61) 
EI-B

>  <INSTRUMENT>  (61) 
JEOL JMS-DX-300

>  <ION MODE>  (61) 
P

>  <INCHIKEY>  (61) 
ARSHJAOOWKIGRS-CIJFKWAFSA-N

>  <FORMULA>  (61) 
C15H28O2

>  <EXACT MASS>  (61) 
240.208930136

>  <MW>  (61) 
240

>  <ID>  (61) 
JP012083

>  <CONTRIBUTOR>  (61) 
University of Tokyo Team, {Faculty of Engineering, University of Tokyo

>  <COMMENT>  (61) 
SMILES=OCC(C)C([H])(C2)CC([H])(C(C)1C2)C([H])(C)C([H])(O)CC1
InChI=InChI=1S/C15H28O2/c1-10(9-16)12-4-6-15(3)7-5-14(17)11(2)13(15)8-12/h10-14,16-17H,4-9H2,1-3H3/t10?,11-,12-,13-,14-,15+/m1/s1
computed SMILES=OCC(C)C1CCC2(C)CCC(O)C(C)C2C1
accession=JP012083
date=2016.01.19 (Created 2008.10.21, modified 2011.05.06)
author=HISAHIRO HAGIWARA, INSTITUTE FOR CHEMICAL REACTION SCIENCE TOHOKU UNIV.
license=CC BY-NC-SA
exact mass=240.20893
ionization energy=70 eV
ion type=[M]+*
computed spectral entropy=3.180348555708375
computed normalized entropy=0.9350673303629757
SPLASH=splash10-0bt9-4910000000-f95b8a01b04c47319973
submitter=submitter = University of Tokyo Team (Faculty of Engineering, University of Tokyo)
MoNA Rating=3.75

>  <NUM PEAKS>  (61) 
30

>  <MASS SPECTRAL PEAKS>  (61) 
41 17
55 22.5
67 17
69 14.1
79 11.2
81 42.2
83 9.5
93 22.5
95 31
105 9.3
107 29.4
108 10.9
109 45
121 20.4
122 11.3
123 18.4
133 9.9
135 17.7
147 11
149 16.4
161 9.7
162 12.4
163 99.99
164 18.8
189 16.9
191 13.1
193 13.3
204 11.2
207 31.1
222 32.8

>  <PREDICTED SPECTRUM>  (61) 
17 14
18 22
26 34
27 266
28 101
29 296
30 22
31 269
38 10
39 296
40 117
41 806
42 206
43 733
44 152
45 195
50 38
51 141
52 127
53 454
54 182
55 844
56 315
57 552
58 241
59 322
60 80
63 45
64 17
65 244
66 158
67 735
68 451
69 696
70 168
71 405
72 172
73 152
74 87
75 20
76 5
77 353
78 131
79 566
80 361
81 933
82 465
83 550
84 315
85 375
86 180
87 173
88 53
89 106
91 355
92 199
93 721
94 422
95 999
96 393
97 478
98 293
99 192
100 91
101 25
103 43
105 389
106 204
107 707
108 624
109 821
110 365
111 378
112 179
113 271
114 110
115 85
117 1
119 298
120 180
121 695
122 571
123 817
124 287
125 457
126 222
127 240
128 124
133 184
134 99
135 455
136 276
137 372
138 221
139 281
140 218
141 187
142 136
143 19
144 42
145 95
146 18
147 341
148 166
149 497
150 263
151 339
152 146
153 187
154 163
155 91
161 333
162 321
163 716
164 383
165 638
166 397
167 258
168 157
169 6
175 97
176 20
177 52
178 144
179 384
180 351
181 453
182 278
183 197
184 88
189 501
190 163
191 457
192 181
193 345
194 141
195 2
196 88
203 18
204 418
205 172
206 13
207 626
208 223
209 266
210 22
222 714
223 303
224 4
225 83
240 227
241 84

$$$$

     RDKit          2D

 15 16  0  0  1  0  0  0  0  0999 V2000
    3.6987   -2.8302    0.0000 C   0  0  0  0  0  0  0  0  0  0  0  0
    4.9981   -0.5804    0.0000 C   0  0  0  0  0  0  0  0  0  0  0  0
   -1.5000   -2.8300    0.0000 C   0  0  0  0  0  0  0  0  0  0  0  0
   -0.2000    2.4200    0.0000 C   0  0  0  0  0  0  0  0  0  0  0  0
   -2.8000    0.9200    0.0000 C   0  0  0  0  0  0  0  0  0  0  0  0
   -2.8000   -0.5800    0.0000 C   0  0  0  0  0  0  0  0  0  0  0  0
    2.4000    0.9200    0.0000 C   0  0  0  0  0  0  0  0  0  0  0  0
   -1.5000    1.6700    0.0000 C   0  0  0  0  0  0  0  0  0  0  0  0
    1.1000    1.6700    0.0000 C   0  0  0  0  0  0  0  0  0  0  0  0
    1.1000   -1.3300    0.0000 C   0  0  0  0  0  0  0  0  0  0  0  0
    3.6989   -1.3302    0.0000 C   0  0  0  0  0  0  0  0  0  0  0  0
   -1.5000   -1.3300    0.0000 C   0  0  0  0  0  0  0  0  0  0  0  0
    2.4000   -0.5800    0.0000 C   0  0  0  0  0  0  0  0  0  0  0  0
   -0.2000   -0.5800    0.0000 C   0  0  0  0  0  0  0  0  0  0  0  0
   -0.2000    0.9200    0.0000 C   0  0  0  0  0  0  0  0  0  0  0  0
  6  5  1  0
  8  5  1  0
  9  7  1  0
 11  1  2  0
 11  2  1  0
 12  3  1  0
 12  6  2  0
 13  7  1  0
 13 10  1  0
 13 11  1  1
 14 10  1  6
 14 12  1  0
 15  4  1  1
 15  8  1  0
 15  9  1  0
 15 14  1  0
M  END
>  <NAME>  (62) 
7BETA-ISOPROPENYL-1,(4A)BETA-DIMETHYL-3,4,(4A),5,6,7,8,8ABETA-OCTAHYDRONAPHTHALENE

>  <SYNONYMS>  (62) 


>  <SPECTRUM TYPE>  (62) 
MS1

>  <INSTRUMENT TYPE>  (62) 
EI-B

>  <INSTRUMENT>  (62) 
JEOL JMS-DX-300

>  <ION MODE>  (62) 
P

>  <INCHIKEY>  (62) 
OZQAPQSEYFAMCY-RBSFLKMASA-N

>  <FORMULA>  (62) 
C15H24

>  <EXACT MASS>  (62) 
204.187800768

>  <MW>  (62) 
204

>  <ID>  (62) 
JP012082

>  <CONTRIBUTOR>  (62) 
University of Tokyo Team, {Faculty of Engineering, University of Tokyo

>  <COMMENT>  (62) 
SMILES=CC(=C)C([H])(C1)CC([H])(C(C)=2)C(C)(CCC([H])2)C1
InChI=InChI=1S/C15H24/c1-11(2)13-7-9-15(4)8-5-6-12(3)14(15)10-13/h6,13-14H,1,5,7-10H2,2-4H3/t13-,14-,15-/m1/s1
computed SMILES=C=C(C)C1CCC2(C)CCC=C(C)C2C1
accession=JP012082
date=2016.01.19 (Created 2008.10.21, modified 2011.05.06)
author=HISAHIRO HAGIWARA, INSTITUTE FOR CHEMICAL REACTION SCIENCE TOHOKU UNIV.
license=CC BY-NC-SA
exact mass=204.1878
ionization energy=70 eV
ion type=[M]+*
computed spectral entropy=3.7957912882668126
computed normalized entropy=0.9606573419949844
SPLASH=splash10-052f-9800000000-3a5b6d89a35ea45419e1
submitter=submitter = University of Tokyo Team (Faculty of Engineering, University of Tokyo)
MoNA Rating=3.75

>  <NUM PEAKS>  (62) 
52

>  <MASS SPECTRAL PEAKS>  (62) 
36 15
39 26.2
40 18
41 64.4
42 14.4
43 78.8
44 20
53 24
55 42.1
58 25.5
59 23
65 23.8
67 39.1
68 30.9
69 20.4
73 38
77 25.3
79 48.1
80 16.3
81 56.2
82 15.9
88 13.9
91 50.2
92 19.7
93 74.5
94 29.6
95 35.8
97 29.2
105 47.2
106 23
107 78.1
108 51.7
109 86.3
110 21.3
119 27.7
120 21.3
121 38.8
122 73.4
123 24.9
133 32.8
134 19.7
135 20.4
147 27
148 16.7
149 15
161 99.99
162 29.4
163 17.2
175 22.8
189 30.3
204 47.6
205 15.5

>  <PREDICTED SPECTRUM>  (62) 
26 25
27 242
28 77
29 236
38 32
39 398
40 175
41 745
42 133
43 269
44 33
50 106
51 272
52 211
53 522
54 176
55 534
56 194
57 186
62 45
63 144
64 111
65 395
66 230
67 673
68 381
69 524
70 142
71 75
72 0
74 12
75 53
76 78
77 579
78 315
79 791
80 449
81 808
82 319
83 221
84 46
85 31
89 109
90 55
91 792
92 434
93 999
94 597
95 539
96 274
97 169
98 63
102 51
103 262
104 166
105 740
106 443
107 954
108 630
109 681
110 164
111 148
112 82
114 13
115 239
116 168
117 313
118 215
119 735
120 392
121 760
122 581
123 406
124 114
125 26
127 74
128 167
129 202
130 150
131 391
132 207
133 576
134 429
135 430
136 330
137 38
138 3
139 7
142 57
143 293
144 120
145 323
146 266
147 535
148 353
149 240
150 36
156 38
157 188
158 124
159 195
160 189
161 493
162 253
163 101
171 429
172 99
173 126
174 22
175 321
176 192
177 63
186 176
187 101
189 690
190 259
191 61
202 56
203 24
204 564
205 215
206 54

$$$$

     RDKit          2D

 17 18  0  0  1  0  0  0  0  0999 V2000
    1.3000    3.0000    0.0000 C   0  0  0  0  0  0  0  0  0  0  0  0
    1.3000   -3.0000    0.0000 C   0  0  0  0  0  0  0  0  0  0  0  0
   -4.6491   -0.2013    0.0000 C   0  0  0  0  0  0  0  0  0  0  0  0
   -5.1978   -2.2504    0.0000 C   0  0  0  0  0  0  0  0  0  0  0  0
   -2.6000    0.7500    0.0000 C   0  0  0  0  0  0  0  0  0  0  0  0
   -1.3000    1.5000    0.0000 C   0  0  0  0  0  0  0  0  0  0  0  0
    2.6000    0.7500    0.0000 C   0  0  0  0  0  0  0  0  0  0  0  0
   -1.3000   -1.5000    0.0000 C   0  0  0  0  0  0  0  0  0  0  0  0
    1.3000    1.5000    0.0000 C   0  0  0  0  0  0  0  0  0  0  0  0
    1.3000   -1.5000    0.0000 C   0  0  0  0  0  0  0  0  0  0  0  0
   -2.6000   -0.7500    0.0000 C   0  0  0  0  0  0  0  0  0  0  0  0
    0.0000    0.7500    0.0000 C   0  0  0  0  0  0  0  0  0  0  0  0
    0.0000   -0.7500    0.0000 C   0  0  0  0  0  0  0  0  0  0  0  0
    2.6000   -0.7500    0.0000 C   0  0  0  0  0  0  0  0  0  0  0  0
   -3.8989   -1.5002    0.0000 C   0  0  0  0  0  0  0  0  0  0  0  0
    3.8989   -1.5002    0.0000 O   0  0  0  0  0  0  0  0  0  0  0  0
   -3.1487   -2.7991    0.0000 O   0  0  0  0  0  0  0  0  0  0  0  0
  6  5  1  0
  9  1  1  6
  9  7  1  0
 10  2  1  6
 11  5  1  0
 11  8  1  0
 12  6  1  0
 12  9  1  0
 13  8  1  1
 13 10  1  0
 13 12  1  0
 14  7  1  0
 14 10  1  0
 15  3  1  0
 15  4  1  0
 11 15  1  6
 14 16  1  6
 15 17  1  0
M  END
>  <NAME>  (63) 
2BETA-HYDROXY-1BETA,(4A)BETA-DIMETHYL-7BETA-(1-METHYL-1-HYDROXYETHYL)-(8A)BETA-DECAHYDRONAPHTHALENE

>  <SYNONYMS>  (63) 


>  <SPECTRUM TYPE>  (63) 
MS1

>  <INSTRUMENT TYPE>  (63) 
EI-B

>  <INSTRUMENT>  (63) 
JEOL JMS-DX-300

>  <ION MODE>  (63) 
P

>  <INCHIKEY>  (63) 
LRDUEXWYKQITLS-MBVYDAKFSA-N

>  <FORMULA>  (63) 
C15H28O2

>  <EXACT MASS>  (63) 
240.208930136

>  <MW>  (63) 
240

>  <ID>  (63) 
JP012081

>  <CONTRIBUTOR>  (63) 
University of Tokyo Team, {Faculty of Engineering, University of Tokyo

>  <COMMENT>  (63) 
SMILES=CC(C)(O)C([H])(C2)CC([H])(C(C2)1)C([H])(C)C([H])(O)CC([H])(C)1
InChI=InChI=1S/C15H28O2/c1-9-7-14(16)10(2)13-8-11(15(3,4)17)5-6-12(9)13/h9-14,16-17H,5-8H2,1-4H3/t9-,10-,11-,12?,13-,14+/m1/s1
computed SMILES=OC1CC(C)C2CCC(CC2C1C)C(O)(C)C
accession=JP012081
date=2016.01.19 (Created 2008.10.21, modified 2011.05.06)
author=HISAHIRO HAGIWARA, INSTITUTE FOR CHEMICAL REACTION SCIENCE TOHOKU UNIV.
license=CC BY-NC-SA
exact mass=240.20893
ionization energy=70 eV
ion type=[M]+*
computed spectral entropy=3.5883674851883116
computed normalized entropy=0.8596153766246091
SPLASH=splash10-0a4j-6900000000-1a92b486b17fa2355578
submitter=submitter = University of Tokyo Team (Faculty of Engineering, University of Tokyo)
MoNA Rating=3.75

>  <NUM PEAKS>  (63) 
65

>  <MASS SPECTRAL PEAKS>  (63) 
39 4.8
41 21.1
43 15.9
45 2.5
53 6.4
55 20.8
56 2.2
57 9.7
58 3.2
59 87.6
60 3.4
65 2.4
67 21.3
68 5.8
69 18.3
70 2.4
71 5.4
77 7.3
79 11.7
80 3.1
81 24.7
82 11.8
83 12.3
84 3.7
85 2.2
91 8
92 2.2
93 17.2
94 7.4
95 24.5
96 10.1
97 4.7
105 5.2
106 2.1
107 18.5
108 19.5
109 90.5
110 12.9
111 2.7
115 6.3
116 2.6
119 3.1
121 13
122 12
123 19.1
124 14.9
125 20.4
126 2.8
133 5
135 23.7
136 4.5
147 3.8
149 99.99
150 15.1
161 2.5
163 6.6
164 46.2
165 11.6
180 2.2
181 15.8
182 6.5
189 7
207 4.1
222 2
225 3

>  <PREDICTED SPECTRUM>  (63) 
27 69
29 108
31 125
39 90
40 26
41 314
42 61
43 544
45 94
51 68
52 63
53 187
54 115
55 411
56 101
57 176
58 79
59 999
60 193
63 1
65 149
66 108
67 482
68 222
69 362
70 36
71 217
72 26
77 232
78 87
79 382
80 164
81 628
82 255
83 167
84 25
85 78
91 292
92 115
93 407
94 177
95 720
96 322
97 260
99 34
100 5
105 215
106 107
107 390
108 365
109 820
110 364
111 135
113 65
119 155
120 28
121 455
122 296
123 576
124 175
125 142
126 59
127 17
131 28
132 41
133 100
134 6
135 242
136 247
137 35
138 87
139 38
140 46
145 94
147 187
148 42
149 734
150 261
151 27
154 28
163 237
164 517
165 272
166 130
167 170
168 64
179 74
180 51
181 129
182 193
189 271
204 2
207 162
208 3
222 197
223 92
225 110

$$$$

     RDKit          2D

 24 25  0  0  1  0  0  0  0  0999 V2000
   -3.8981   -6.0000    0.0000 C   0  0  0  0  0  0  0  0  0  0  0  0
   -1.3000   -6.0000    0.0000 C   0  0  0  0  0  0  0  0  0  0  0  0
   -4.5893   -2.0800    0.0000 C   0  0  0  0  0  0  0  0  0  0  0  0
   -2.1479   -1.1914    0.0000 C   0  0  0  0  0  0  0  0  0  0  0  0
   -4.5893   -5.4200    0.0000 C   0  0  0  0  0  0  0  0  0  0  0  0
   -5.0404   -2.8614    0.0000 C   0  0  0  0  0  0  0  0  0  0  0  0
    2.5983    0.7525    0.0000 C   0  0  0  0  0  0  0  0  0  0  0  0
    1.2976   -6.0008    0.0000 C   0  0  0  0  0  0  0  0  0  0  0  0
    2.5971   -5.2500    0.0000 C   0  0  0  0  0  0  0  0  0  0  0  0
   -0.0014   -5.2508    0.0000 C   0  0  0  0  0  0  0  0  0  0  0  0
    3.8976   -1.4975    0.0000 C   0  0  0  0  0  0  0  0  0  0  0  0
    3.8971   -2.9983    0.0000 C   0  0  0  0  0  0  0  0  0  0  0  0
    0.0000   -0.7483    0.0000 C   0  0  0  0  0  0  0  0  0  0  0  0
   -2.5990   -5.2500    0.0000 C   0  0  0  0  0  0  0  0  0  0  0  0
   -3.1121   -2.3405    0.0000 C   0  0  0  0  0  0  0  0  0  0  0  0
   -4.0762   -4.0105    0.0000 C   0  0  0  0  0  0  0  0  0  0  0  0
    2.5986   -0.7475    0.0000 C   0  0  0  0  0  0  0  0  0  0  0  0
    2.5976   -3.7492    0.0000 C   0  0  0  0  0  0  0  0  0  0  0  0
    1.2990   -1.4983    0.0000 C   0  0  0  0  0  0  0  0  0  0  0  0
   -0.0010   -3.7500    0.0000 C   0  0  0  0  0  0  0  0  0  0  0  0
    1.2986   -2.9992    0.0000 C   0  0  0  0  0  0  0  0  0  0  0  0
    0.0000    0.7517    0.0000 O   0  0  0  0  0  0  0  0  0  0  0  0
   -1.3000   -3.0000    0.0000 O   0  0  0  0  0  0  0  0  0  0  0  0
   -2.5990   -3.7500    0.0000 Si  0  0  0  0  0  4  0  0  0  0  0  0
  9  8  1  0
 10  8  1  0
 12 11  2  0
 14  1  1  0
 14  2  1  0
 15  3  1  0
 15  4  1  0
 16  5  1  0
 16  6  1  0
 17  7  1  1
 17 11  1  0
 18  9  1  1
 18 12  1  0
 19 13  1  6
 19 17  1  0
 20 10  1  0
 21 18  1  0
 21 19  1  0
 21 20  1  6
 22 13  2  0
 20 23  1  6
 24 14  1  0
 24 15  1  0
 24 16  1  0
 24 23  1  0
M  END
>  <NAME>  (64) 
1-FORMYL-8-(TRIISOPROPYLSILYL)OXY-2-METHYL-1BETA,2ALPHA,(4A)ALPHA,5,6,7,8BETA,(8A)BETA-OCTAHYDRONAPHTHALENE

>  <SYNONYMS>  (64) 


>  <SPECTRUM TYPE>  (64) 
MS1

>  <INSTRUMENT TYPE>  (64) 
EI-B

>  <INSTRUMENT>  (64) 
JEOL JMS-DX-300

>  <ION MODE>  (64) 
P

>  <INCHIKEY>  (64) 
QMUCTJUYXBSPAP-ZPAWYTMASA-N

>  <FORMULA>  (64) 
C21H38O2Si

>  <EXACT MASS>  (64) 
350.264106986

>  <MW>  (64) 
350

>  <ID>  (64) 
JP012080

>  <CONTRIBUTOR>  (64) 
University of Tokyo Team, {Faculty of Engineering, University of Tokyo

>  <COMMENT>  (64) 
SMILES=O=CC([H])(C([H])(C)2)C([H])(C([H])1C([H])=C([H])2)C([H])(CCC1)O[Si](C(C)C)(C(C)C)C(C)C
InChI=InChI=1S/C21H38O2Si/c1-14(2)24(15(3)4,16(5)6)23-20-10-8-9-18-12-11-17(7)19(13-22)21(18)20/h11-21H,8-10H2,1-7H3/t17-,18+,19+,20-,21-/m0/s1
computed SMILES=O=CC1C(C=CC2CCCC(O[Si](C(C)C)(C(C)C)C(C)C)C21)C
accession=JP012080
date=2016.01.19 (Created 2008.10.21, modified 2011.05.06)
author=HISAHIRO HAGIWARA, INSTITUTE FOR CHEMICAL REACTION SCIENCE TOHOKU UNIV.
license=CC BY-NC-SA
exact mass=350.26411
ionization energy=70 eV
ion type=[M]+*
computed spectral entropy=3.4841126830567943
computed normalized entropy=0.9100128014735888
SPLASH=splash10-0a4i-6901000000-8c53ab6b73d2483acef5
submitter=submitter = University of Tokyo Team (Faculty of Engineering, University of Tokyo)
MoNA Rating=3.75

>  <NUM PEAKS>  (64) 
46

>  <MASS SPECTRAL PEAKS>  (64) 
39 11.3
41 26.6
43 12.5
45 15.5
55 16
59 32.3
61 93.1
67 16.5
73 13.7
75 57.9
77 20.1
79 16.5
81 14.2
87 10.5
89 9.3
91 22.2
93 9.8
103 37.5
104 7.3
105 34.1
106 11.9
107 10.4
109 6.7
115 9
117 14
118 8.6
119 64.5
120 7.5
129 6.4
131 61.3
132 9.9
133 15.1
145 36.6
147 10.3
148 15.9
149 9.8
157 9.6
159 99.99
160 16.7
161 21
185 19.9
230 9.7
251 9.2
265 6.8
307 74.7
308 21.2

>  <PREDICTED SPECTRUM>  (64) 
26 19
27 146
29 65
33 1
37 7
38 3
39 255
40 78
41 443
42 81
43 231
44 92
45 294
46 80
47 267
48 8
49 27
50 78
51 148
52 52
53 159
54 21
55 307
56 4
57 66
58 27
59 536
60 158
61 634
62 103
63 123
64 48
65 174
66 137
67 300
68 85
69 96
70 19
71 110
72 40
73 510
74 122
75 686
76 126
77 430
78 149
79 340
80 81
81 243
82 24
83 88
85 77
87 292
88 81
89 430
90 66
91 496
92 147
93 315
95 141
96 9
97 66
101 110
102 53
103 537
104 166
105 599
106 198
107 251
108 79
109 106
110 8
111 85
115 303
116 34
117 114
118 154
119 613
120 115
121 128
123 47
127 31
129 204
130 94
131 999
132 339
133 331
134 17
135 34
136 17
137 66
139 52
141 9
143 120
144 103
145 431
146 88
147 269
148 167
149 213
151 14
157 481
158 82
159 953
160 389
161 451
173 7
175 84
176 16
177 34
185 386
199 21
217 49
219 33
227 13
245 2
247 6
251 102
253 11
265 186
266 23
267 137
279 81
280 51
291 25
305 49
306 21
307 778
308 462
309 19

$$$$

     RDKit          2D

 24 25  0  0  1  0  0  0  0  0999 V2000
   -3.8981   -6.0000    0.0000 C   0  0  0  0  0  0  0  0  0  0  0  0
   -1.3000   -6.0000    0.0000 C   0  0  0  0  0  0  0  0  0  0  0  0
   -4.5893   -2.0800    0.0000 C   0  0  0  0  0  0  0  0  0  0  0  0
   -2.1479   -1.1914    0.0000 C   0  0  0  0  0  0  0  0  0  0  0  0
   -4.5893   -5.4200    0.0000 C   0  0  0  0  0  0  0  0  0  0  0  0
   -5.0404   -2.8614    0.0000 C   0  0  0  0  0  0  0  0  0  0  0  0
    2.5983    0.7525    0.0000 C   0  0  0  0  0  0  0  0  0  0  0  0
    1.2976   -6.0008    0.0000 C   0  0  0  0  0  0  0  0  0  0  0  0
    2.5971   -5.2500    0.0000 C   0  0  0  0  0  0  0  0  0  0  0  0
   -0.0014   -5.2508    0.0000 C   0  0  0  0  0  0  0  0  0  0  0  0
    3.8976   -1.4975    0.0000 C   0  0  0  0  0  0  0  0  0  0  0  0
    3.8971   -2.9983    0.0000 C   0  0  0  0  0  0  0  0  0  0  0  0
    0.0000   -0.7483    0.0000 C   0  0  0  0  0  0  0  0  0  0  0  0
   -2.5990   -5.2500    0.0000 C   0  0  0  0  0  0  0  0  0  0  0  0
   -3.1121   -2.3405    0.0000 C   0  0  0  0  0  0  0  0  0  0  0  0
   -4.0762   -4.0105    0.0000 C   0  0  0  0  0  0  0  0  0  0  0  0
    2.5986   -0.7475    0.0000 C   0  0  0  0  0  0  0  0  0  0  0  0
    2.5976   -3.7492    0.0000 C   0  0  0  0  0  0  0  0  0  0  0  0
    1.2990   -1.4983    0.0000 C   0  0  0  0  0  0  0  0  0  0  0  0
   -0.0010   -3.7500    0.0000 C   0  0  0  0  0  0  0  0  0  0  0  0
    1.2986   -2.9992    0.0000 C   0  0  0  0  0  0  0  0  0  0  0  0
    0.0000    0.7517    0.0000 O   0  0  0  0  0  0  0  0  0  0  0  0
   -1.3000   -3.0000    0.0000 O   0  0  0  0  0  0  0  0  0  0  0  0
   -2.5990   -3.7500    0.0000 Si  0  0  0  0  0  4  0  0  0  0  0  0
  9  8  1  0
 10  8  1  0
 12 11  2  0
 14  1  1  0
 14  2  1  0
 15  3  1  0
 15  4  1  0
 16  5  1  0
 16  6  1  0
 17  7  1  1
 17 11  1  0
 18  9  1  6
 18 12  1  0
 19 13  1  6
 19 17  1  0
 20 10  1  0
 21 18  1  0
 21 19  1  0
 21 20  1  6
 22 13  1  0
 20 23  1  6
 24 14  1  0
 24 15  1  0
 24 16  1  0
 24 23  1  0
M  END
>  <NAME>  (65) 
1-HYDROXYMETHYL-8-(TRIISOPROPYLSILYL)OXY-2-METHYL-1BETA-2ALPHA-(4A)BETA,5,6,7,8BETA,(8A)BETA-OCTAHYDRONAPHTHALENE

>  <SYNONYMS>  (65) 


>  <SPECTRUM TYPE>  (65) 
MS1

>  <INSTRUMENT TYPE>  (65) 
EI-B

>  <INSTRUMENT>  (65) 
JEOL JMS-DX-300

>  <ION MODE>  (65) 
P

>  <INCHIKEY>  (65) 
BNRUWIZMEBUHHR-WHZJULEDSA-N

>  <FORMULA>  (65) 
C21H40O2Si

>  <EXACT MASS>  (65) 
352.27975705

>  <MW>  (65) 
352

>  <ID>  (65) 
JP012079

>  <CONTRIBUTOR>  (65) 
University of Tokyo Team, {Faculty of Engineering, University of Tokyo

>  <COMMENT>  (65) 
SMILES=OCC([H])(C([H])(C)2)C([H])(C([H])1C([H])=C([H])2)C([H])(CCC1)O[Si](C(C)C)(C(C)C)C(C)C
InChI=InChI=1S/C21H40O2Si/c1-14(2)24(15(3)4,16(5)6)23-20-10-8-9-18-12-11-17(7)19(13-22)21(18)20/h11-12,14-22H,8-10,13H2,1-7H3/t17-,18-,19+,20-,21-/m0/s1
computed SMILES=OCC1C(C=CC2CCCC(O[Si](C(C)C)(C(C)C)C(C)C)C21)C
accession=JP012079
date=2016.01.19 (Created 2008.10.21, modified 2011.05.06)
author=HISAHIRO HAGIWARA, INSTITUTE FOR CHEMICAL REACTION SCIENCE TOHOKU UNIV.
license=CC BY-NC-SA
exact mass=352.27976
ionization energy=70 eV
ion type=[M]+*
computed spectral entropy=3.1204220989310327
computed normalized entropy=0.8348576566711575
SPLASH=splash10-03xr-4900000000-79ba05389da945b8b2d5
submitter=submitter = University of Tokyo Team (Faculty of Engineering, University of Tokyo)
MoNA Rating=3.75

>  <NUM PEAKS>  (65) 
42

>  <MASS SPECTRAL PEAKS>  (65) 
39 2.1
41 5.9
43 2.6
45 3.3
55 5.2
59 8.7
61 15.5
67 6.8
69 9.5
73 5
75 27.9
76 2.5
77 8.7
79 6.6
81 10.3
87 4
89 3.5
91 13.5
93 16.2
95 5.3
103 17.6
104 2.8
105 31.5
106 3.9
107 3.7
115 3.2
117 3.6
119 71.9
120 8.9
121 3.3
131 18.9
132 3.1
133 11.8
145 5.5
147 6.7
149 2.2
159 5.3
161 99.99
162 14.9
187 3.4
227 7.9
309 6.5

>  <PREDICTED SPECTRUM>  (65) 
27 73
29 10
39 159
40 7
41 297
42 25
43 175
44 33
45 207
46 32
47 176
50 3
51 54
53 104
55 251
57 104
58 17
59 388
60 58
61 503
62 38
63 56
65 131
66 92
67 243
69 92
71 91
73 340
74 82
75 620
76 69
77 316
78 82
79 234
80 11
81 300
84 4
85 71
87 201
89 361
90 12
91 452
92 81
93 325
95 105
97 36
99 47
101 5
103 515
104 117
105 640
106 190
107 241
108 67
109 72
111 12
115 251
117 17
118 30
119 881
120 231
121 61
123 63
125 65
131 644
132 126
133 300
134 18
135 31
137 9
139 52
141 26
145 313
146 6
147 226
148 172
149 275
159 758
160 74
161 999
162 170
163 53
179 1
247 27
253 24
307 12
309 139
311 0
352 23

$$$$

     RDKit          2D

 10  9  0  0  0  0  0  0  0  0999 V2000
    2.2733    2.8125    0.0000 C   0  0  0  0  0  0  0  0  0  0  0  0
    0.9743    5.0625    0.0000 C   0  0  0  0  0  0  0  0  0  0  0  0
   -5.5209    2.8125    0.0000 C   0  0  0  0  0  0  0  0  0  0  0  0
   -4.2219    5.0625    0.0000 C   0  0  0  0  0  0  0  0  0  0  0  0
   -1.6238    5.0625    0.0000 C   0  0  0  0  0  0  0  0  0  0  0  0
   -0.3248    2.8125    0.0000 C   0  0  0  0  0  0  0  0  0  0  0  0
   -2.9228    2.8125    0.0000 C   0  0  0  0  0  0  0  0  0  0  0  0
    0.9743    3.5625    0.0000 C   0  0  0  0  0  0  0  0  0  0  0  0
   -4.2219    3.5625    0.0000 C   0  0  0  0  0  0  0  0  0  0  0  0
   -1.6238    3.5625    0.0000 Si  0  0  0  0  0  4  0  0  0  0  0  0
  8  1  1  0
  8  2  1  0
  8  6  1  0
  9  3  1  0
  9  4  1  0
  9  7  1  0
 10  5  1  0
 10  6  1  0
 10  7  1  0
M  END
>  <NAME>  (66) 
DIISOBUTYLMETHYLSILANE

>  <SYNONYMS>  (66) 


>  <SPECTRUM TYPE>  (66) 
MS1

>  <INSTRUMENT TYPE>  (66) 
EI-B

>  <INSTRUMENT>  (66) 
HITACHI RMU-6M

>  <ION MODE>  (66) 
P

>  <INCHIKEY>  (66) 
YRFUHKCAAALZQQ-UHFFFAOYSA-N

>  <FORMULA>  (66) 
C9H22Si

>  <EXACT MASS>  (66) 
158.149077234

>  <MW>  (66) 
158

>  <ID>  (66) 
JP012046

>  <CONTRIBUTOR>  (66) 
University of Tokyo Team, {Faculty of Engineering, University of Tokyo

>  <COMMENT>  (66) 
SMILES=CC(C)C[SiH](C)CC(C)C
InChI=InChI=1S/C9H22Si/c1-8(2)6-10(5)7-9(3)4/h8-10H,6-7H2,1-5H3
computed SMILES=CC(C)C[SiH](C)CC(C)C
accession=JP012046
date=2016.01.19 (Created 2008.10.21, modified 2011.05.06)
author=YAMAMOTO M, DEP. CHEMISTRY, FAC. SCIENCE, NARA WOMEN'S UNIV.
license=CC BY-NC-SA
exact mass=158.14908
ionization energy=70 eV
ion type=[M]+*
computed spectral entropy=2.890244095434185
computed normalized entropy=0.7782921789368145
SPLASH=splash10-0pb9-9300000000-5a65e6eabde758edcffc
submitter=submitter = University of Tokyo Team (Faculty of Engineering, University of Tokyo)
MoNA Rating=3.75

>  <NUM PEAKS>  (66) 
41

>  <MASS SPECTRAL PEAKS>  (66) 
39 4.6
41 10.8
42 1.8
43 15.8
44 3.6
45 23.3
46 1.6
50 1.4
53 1
55 3.3
56 2.4
57 3.2
58 9.9
59 99.99
60 8.4
61 3.6
67 1
69 4.7
70 1.1
71 2.3
72 6.6
73 25.5
74 5.8
75 1.2
81 2.3
83 1.1
85 6.7
86 2.2
87 10.2
88 1.3
95 1.1
99 2.2
100 14.8
101 43.8
102 5.9
103 1.9
143 14.3
144 2.4
156 11.4
157 3.5
158 2.6

>  <PREDICTED SPECTRUM>  (66) 
26 30
27 143
28 36
29 100
31 23
39 193
40 81
41 378
42 70
43 506
44 161
45 355
46 94
47 17
51 46
52 18
53 153
54 112
55 128
56 180
57 292
58 355
59 671
60 358
61 212
62 38
63 5
67 18
69 150
70 32
71 155
72 170
73 367
74 169
75 113
83 124
84 96
85 259
86 118
87 269
88 71
97 5
99 275
100 396
101 999
102 328
103 249
104 20
115 68
116 43
141 40
143 294
144 78
145 1
156 159
157 203
158 255
159 84

$$$$

     RDKit          2D

 17 16  0  0  0  0  0  0  0  0999 V2000
    6.7254    4.9075    0.0000 C   0  0  0  0  0  0  0  0  0  0  0  0
    1.5292    7.3675    0.0000 C   0  0  0  0  0  0  0  0  0  0  0  0
    3.0292    7.3675    0.0000 H   0  0  0  0  0  0  0  0  0  0  0  0
    1.5292    8.8675    0.0000 H   0  0  0  0  0  0  0  0  0  0  0  0
   -1.3661    7.8780    0.0000 H   0  0  0  0  0  0  0  0  0  0  0  0
   -0.4207    5.2513    0.0000 C   0  0  0  0  0  0  0  0  0  0  0  0
   -0.0769    7.2012    0.0000 H   0  0  0  0  0  0  0  0  0  0  0  0
   -1.8979    5.5118    0.0000 H   0  0  0  0  0  0  0  0  0  0  0  0
   -1.4262    2.4886    0.0000 H   0  0  0  0  0  0  0  0  0  0  0  0
    0.0592    2.3614    0.0000 C   0  0  0  0  0  0  0  0  0  0  0  0
   -2.4869    3.8314    0.0000 H   0  0  0  0  0  0  0  0  0  0  0  0
   -0.6908    1.0623    0.0000 H   0  0  0  0  0  0  0  0  0  0  0  0
    1.3583    1.6114    0.0000 H   0  0  0  0  0  0  0  0  0  0  0  0
    5.4263    4.1575    0.0000 C   0  0  0  0  0  0  0  0  0  0  0  0
    4.1273    4.9075    0.0000 C   0  0  0  0  0  0  0  0  0  0  0  0
    2.8283    4.1575    0.0000 C   0  0  0  0  0  0  0  0  0  0  0  0
    1.5292    4.9075    0.0000 Si  0  0  0  0  0  4  0  0  0  0  0  0
  2  3  1  0
  2  4  1  0
  2  5  1  0
  6  7  1  0
  6  8  1  0
  6  9  1  0
 10 11  1  0
 10 12  1  0
 10 13  1  0
 14  1  1  0
 15 14  1  0
 16 15  1  0
 17  2  1  0
 17  6  1  0
 17 10  1  0
 17 16  1  0
M  ISO  8   3   2   4   2   5   2   7   2   8   2   9   2  11   2  12   2
M  ISO  1  13   2
M  END
>  <NAME>  (67) 
BUTYLTRIMETHYLSILANE (D9)

>  <SYNONYMS>  (67) 


>  <SPECTRUM TYPE>  (67) 
MS1

>  <INSTRUMENT TYPE>  (67) 
EI-B

>  <INSTRUMENT>  (67) 
HITACHI RMU-6M

>  <ION MODE>  (67) 
P

>  <INCHIKEY>  (67) 
LYVYUAHSSSHKHC-WVZRYRIDSA-N

>  <FORMULA>  (67) 
C7H18Si

>  <EXACT MASS>  (67) 
139.17426782

>  <MW>  (67) 
139

>  <ID>  (67) 
JP012045

>  <CONTRIBUTOR>  (67) 
University of Tokyo Team, {Faculty of Engineering, University of Tokyo

>  <COMMENT>  (67) 
SMILES=CCCC[Si](C([2H])([2H])[2H])(C([2H])([2H])[2H])C([2H])([2H])[2H]
InChI=InChI=1S/C7H18Si/c1-5-6-7-8(2,3)4/h5-7H2,1-4H3/i2D3,3D3,4D3
computed SMILES=[H]C([H])([H])[Si](CCCC)(C([H])([H])[H])C([H])([H])[H]
accession=JP012045
date=2016.01.19 (Created 2008.10.21, modified 2011.05.06)
author=YAMAMOTO M, DEP. CHEMISTRY, FAC. SCIENCE, NARA WOMEN'S UNIV.
license=CC BY-NC-SA
exact mass=130.11778
ionization energy=70 eV
ion type=[M]+*
computed spectral entropy=2.1584231307968733
computed normalized entropy=0.6624797962885414
SPLASH=splash10-001i-9000000000-44ef2a93b271ab187636
submitter=submitter = University of Tokyo Team (Faculty of Engineering, University of Tokyo)
MoNA Rating=3.75

>  <NUM PEAKS>  (67) 
26

>  <MASS SPECTRAL PEAKS>  (67) 
27 2.9
28 2
29 2.2
30 2.2
33 1.3
34 1.6
44 1.6
46 7.8
48 2.9
49 1.6
50 9.1
62 1.3
64 4.6
65 34.2
66 3.2
67 1
79 7.4
80 1.1
81 3.1
82 99.99
83 8.6
84 3.4
110 1.1
121 15.8
122 2
139 2.4

>  <PREDICTED SPECTRUM>  (67) 
25 28
26 152
27 8
28 152
29 16
46 382
47 233
53 57
54 638
55 513
56 195
57 213
60 21
61 14
63 37
64 49
65 204
69 164
71 649
72 328
73 52
74 190
75 565
81 194
82 529
83 540
84 520
85 935
86 399
87 134
88 59
91 321
92 226
93 84
94 96
103 185
107 218
108 40
109 461
110 422
111 165
112 59
115 16
120 178
121 999
122 394
123 83
135 76
136 41
137 288
138 212
139 818
140 165

$$$$

     RDKit          2D

  8  7  0  0  0  0  0  0  0  0999 V2000
    1.5368    3.1373    0.0000 C   0  0  0  0  0  0  0  0  0  0  0  0
   -4.4094    4.4363    0.0000 C   0  0  0  0  0  0  0  0  0  0  0  0
   -4.9584    2.3873    0.0000 C   0  0  0  0  0  0  0  0  0  0  0  0
   -2.9094    1.8382    0.0000 C   0  0  0  0  0  0  0  0  0  0  0  0
    0.2377    3.8873    0.0000 C   0  0  0  0  0  0  0  0  0  0  0  0
   -1.0613    3.1373    0.0000 C   0  0  0  0  0  0  0  0  0  0  0  0
   -2.3603    3.8873    0.0000 C   0  0  0  0  0  0  0  0  0  0  0  0
   -3.6594    3.1373    0.0000 Si  0  0  0  0  0  4  0  0  0  0  0  0
  5  1  1  0
  6  5  1  0
  7  6  1  0
  8  2  1  0
  8  3  1  0
  8  4  1  0
  8  7  1  0
M  END
>  <NAME>  (68) 
BUTYLTRIMETHYLSILANE

>  <SYNONYMS>  (68) 


>  <SPECTRUM TYPE>  (68) 
MS1

>  <INSTRUMENT TYPE>  (68) 
EI-B

>  <INSTRUMENT>  (68) 
HITACHI RMU-6M

>  <ION MODE>  (68) 
P

>  <INCHIKEY>  (68) 
LYVYUAHSSSHKHC-UHFFFAOYSA-N

>  <FORMULA>  (68) 
C7H18Si

>  <EXACT MASS>  (68) 
130.117777106

>  <MW>  (68) 
130

>  <ID>  (68) 
JP012044

>  <CONTRIBUTOR>  (68) 
University of Tokyo Team, {Faculty of Engineering, University of Tokyo

>  <COMMENT>  (68) 
SMILES=CCCC[Si](C)(C)C
InChI=InChI=1S/C7H18Si/c1-5-6-7-8(2,3)4/h5-7H2,1-4H3
computed SMILES=CCCC[Si](C)(C)C
accession=JP012044
date=2016.01.19 (Created 2008.10.21, modified 2011.05.06)
author=YAMAMOTO M, DEP. CHEMISTRY, FAC. SCIENCE, NARA WOMEN'S UNIV.
license=CC BY-NC-SA
exact mass=130.11778
ionization energy=70 eV
ion type=[M]+*
computed spectral entropy=2.2489809694182386
computed normalized entropy=0.6612321241759771
SPLASH=splash10-00di-9100000000-82b5170c1dbd45704d68
submitter=submitter = University of Tokyo Team (Faculty of Engineering, University of Tokyo)
MoNA Rating=3.75

>  <NUM PEAKS>  (68) 
30

>  <MASS SPECTRAL PEAKS>  (68) 
27 2.2
28 1.6
29 3.2
31 4
39 1.1
41 1.1
42 1.5
43 9.5
44 3.5
45 10.4
53 1
55 1.7
57 2.2
58 4.4
59 42.9
60 3.6
61 1.7
71 1
72 2.2
73 99.99
74 9.2
75 3.8
85 1
86 1.1
87 1.5
101 1.5
115 22.6
116 2.8
117 1.3
130 3.5

>  <PREDICTED SPECTRUM>  (68) 
29 91
39 12
41 8
43 102
44 82
45 249
46 4
47 32
53 8
55 30
57 100
58 150
59 542
60 158
61 122
71 40
72 33
73 999
74 294
75 527
76 59
87 170
89 23
115 439
116 139
117 52
130 105
131 29

$$$$

     RDKit          2D

 13 12  0  0  0  0  0  0  0  0999 V2000
   -7.1447    3.3750    0.0000 C   0  0  0  0  0  0  0  0  0  0  0  0
   -0.6495    2.6250    0.0000 C   0  0  0  0  0  0  0  0  0  0  0  0
   -1.3995    1.3260    0.0000 H   0  0  0  0  0  0  0  0  0  0  0  0
    0.6495    1.8750    0.0000 H   0  0  0  0  0  0  0  0  0  0  0  0
    0.1005    3.9240    0.0000 H   0  0  0  0  0  0  0  0  0  0  0  0
   -1.9486    4.8750    0.0000 C   0  0  0  0  0  0  0  0  0  0  0  0
   -0.4486    4.8750    0.0000 H   0  0  0  0  0  0  0  0  0  0  0  0
   -1.9486    6.3750    0.0000 H   0  0  0  0  0  0  0  0  0  0  0  0
   -3.4486    4.8750    0.0000 H   0  0  0  0  0  0  0  0  0  0  0  0
   -5.8457    2.6250    0.0000 C   0  0  0  0  0  0  0  0  0  0  0  0
   -4.5466    3.3750    0.0000 C   0  0  0  0  0  0  0  0  0  0  0  0
   -3.2476    2.6250    0.0000 C   0  0  0  0  0  0  0  0  0  0  0  0
   -1.9486    3.3750    0.0000 Si  0  0  0  0  0  4  0  0  0  0  0  0
  2  3  1  0
  2  4  1  0
  2  5  1  0
  6  7  1  0
  6  8  1  0
  6  9  1  0
 10  1  1  0
 11 10  1  0
 12 11  1  0
 13  2  1  0
 13  6  1  0
 13 12  1  0
M  ISO  6   3   2   4   2   5   2   7   2   8   2   9   2
M  END
>  <NAME>  (69) 
BUTYLDIMETHYLSILANE (D6)

>  <SYNONYMS>  (69) 


>  <SPECTRUM TYPE>  (69) 
MS1

>  <INSTRUMENT TYPE>  (69) 
EI-B

>  <INSTRUMENT>  (69) 
HITACHI RMU-6M

>  <ION MODE>  (69) 
P

>  <INCHIKEY>  (69) 
HXLVDKGPVGFXTH-XERRXZQWSA-N

>  <FORMULA>  (69) 
C6H16Si

>  <EXACT MASS>  (69) 
122.13978751799999

>  <MW>  (69) 
122

>  <ID>  (69) 
JP012042

>  <CONTRIBUTOR>  (69) 
University of Tokyo Team, {Faculty of Engineering, University of Tokyo

>  <COMMENT>  (69) 
SMILES=CCCC[SiH](C([2H])([2H])[2H])C([2H])([2H])[2H]
InChI=InChI=1S/C6H16Si/c1-4-5-6-7(2)3/h7H,4-6H2,1-3H3/i2D3,3D3
computed SMILES=[H]C([H])([H])[SiH](CCCC)C([H])([H])[H]
accession=JP012042
date=2016.01.19 (Created 2008.10.21, modified 2011.05.06)
author=YAMAMOTO M, DEP. CHEMISTRY, FAC. SCIENCE, NARA WOMEN'S UNIV.
license=CC BY-NC-SA
exact mass=116.10213
ionization energy=70 eV
ion type=[M]+*
computed spectral entropy=2.798771532489708
computed normalized entropy=0.7750858923403792
SPLASH=splash10-014i-9000000000-f311ab30df3f22c723bd
submitter=submitter = University of Tokyo Team (Faculty of Engineering, University of Tokyo)
MoNA Rating=3.75

>  <NUM PEAKS>  (69) 
37

>  <MASS SPECTRAL PEAKS>  (69) 
27 5.7
28 2
29 3.3
30 3.3
33 5.2
34 4.2
39 2.3
41 2
43 2.1
44 2
45 4.2
46 12.2
47 3.6
48 11.1
49 1.6
55 1.8
56 3.4
61 2.3
62 20.4
63 2.4
64 16.6
65 99.99
66 9.1
67 3.6
74 1.6
75 3.6
76 8.2
78 2.3
79 3.3
91 1
92 7.2
93 24.3
94 3
104 6.4
120 8.8
121 4.9
122 1.8

>  <PREDICTED SPECTRUM>  (69) 
25 1
26 226
28 141
29 104
31 70
36 55
38 82
39 464
40 231
41 661
42 179
45 279
46 51
47 268
48 293
49 27
50 36
51 172
52 182
53 162
54 805
55 843
56 17
57 752
58 60
59 832
60 83
61 365
62 150
63 157
64 394
65 349
66 421
67 520
68 410
69 662
70 316
71 586
72 37
73 141
74 10
75 503
89 145
91 179
92 181
93 650
94 528
103 19
104 332
105 73
120 386
121 209
122 999
123 150

$$$$

     RDKit          2D

  7  6  0  0  0  0  0  0  0  0999 V2000
    1.6238    3.1875    0.0000 C   0  0  0  0  0  0  0  0  0  0  0  0
   -4.8714    3.9375    0.0000 C   0  0  0  0  0  0  0  0  0  0  0  0
   -3.5724    1.6875    0.0000 C   0  0  0  0  0  0  0  0  0  0  0  0
    0.3248    3.9375    0.0000 C   0  0  0  0  0  0  0  0  0  0  0  0
   -0.9743    3.1875    0.0000 C   0  0  0  0  0  0  0  0  0  0  0  0
   -2.2733    3.9375    0.0000 C   0  0  0  0  0  0  0  0  0  0  0  0
   -3.5724    3.1875    0.0000 Si  0  0  0  0  0  4  0  0  0  0  0  0
  4  1  1  0
  5  4  1  0
  6  5  1  0
  7  2  1  0
  7  3  1  0
  7  6  1  0
M  END
>  <NAME>  (70) 
BUTYLDIMETHYLSILANE

>  <SYNONYMS>  (70) 


>  <SPECTRUM TYPE>  (70) 
MS1

>  <INSTRUMENT TYPE>  (70) 
EI-B

>  <INSTRUMENT>  (70) 
HITACHI RMU-6M

>  <ION MODE>  (70) 
P

>  <INCHIKEY>  (70) 
HXLVDKGPVGFXTH-UHFFFAOYSA-N

>  <FORMULA>  (70) 
C6H16Si

>  <EXACT MASS>  (70) 
116.102127042

>  <MW>  (70) 
116

>  <ID>  (70) 
JP012041

>  <CONTRIBUTOR>  (70) 
University of Tokyo Team, {Faculty of Engineering, University of Tokyo

>  <COMMENT>  (70) 
SMILES=CCCC[SiH](C)C
InChI=InChI=1S/C6H16Si/c1-4-5-6-7(2)3/h7H,4-6H2,1-3H3
computed SMILES=CCCC[SiH](C)C
accession=JP012041
date=2016.01.19 (Created 2008.10.21, modified 2011.05.06)
author=YAMAMOTO M, DEP. CHEMISTRY, FAC. SCIENCE, NARA WOMEN'S UNIV.
license=CC BY-NC-SA
exact mass=116.10213
ionization energy=70 eV
ion type=[M]+*
computed spectral entropy=2.6553971927058946
computed normalized entropy=0.7530135317048815
SPLASH=splash10-0a4i-9000000000-6634b2afa59777099179
submitter=submitter = University of Tokyo Team (Faculty of Engineering, University of Tokyo)
MoNA Rating=3.75

>  <NUM PEAKS>  (70) 
34

>  <MASS SPECTRAL PEAKS>  (70) 
27 4.1
28 2
29 3.9
31 6.4
32 1.1
39 2
41 2.7
42 2.3
43 14.6
44 3.6
45 13.1
46 1.2
53 1.4
55 2.4
56 3.2
57 2.5
58 15.2
59 99.99
60 8.3
61 4
71 1.6
72 5.4
73 12.9
74 1.7
85 1.2
86 7
87 22.3
88 3.1
89 1.1
101 7.5
102 1.1
114 10.5
115 5.5
116 2.4

>  <PREDICTED SPECTRUM>  (70) 
26 23
27 91
28 34
29 55
31 155
33 1
39 55
40 11
41 164
42 121
43 344
44 197
45 402
46 61
47 31
51 33
53 80
54 9
55 193
56 271
57 252
58 371
59 999
60 287
61 198
69 49
71 241
72 215
73 383
74 121
85 46
87 138
88 47
99 127
100 99
101 223
102 71
103 14
114 236
115 233
116 185
117 51

$$$$

     RDKit          2D

 11 10  0  0  0  0  0  0  0  0999 V2000
   -6.3212    3.8505    0.0000 C   0  0  0  0  0  0  0  0  0  0  0  0
    0.1740    3.1005    0.0000 C   0  0  0  0  0  0  0  0  0  0  0  0
   -0.5760    1.8014    0.0000 H   0  0  0  0  0  0  0  0  0  0  0  0
    1.4731    2.3505    0.0000 H   0  0  0  0  0  0  0  0  0  0  0  0
    0.9240    4.3995    0.0000 H   0  0  0  0  0  0  0  0  0  0  0  0
   -5.0221    3.1005    0.0000 C   0  0  0  0  0  0  0  0  0  0  0  0
   -3.7231    3.8505    0.0000 C   0  0  0  0  0  0  0  0  0  0  0  0
   -2.4240    3.1005    0.0000 C   0  0  0  0  0  0  0  0  0  0  0  0
   -1.1250    3.8505    0.0000 Si  0  0  0  0  0  4  0  0  0  0  0  0
   -0.1608    4.9995    0.0000 H   0  0  0  0  0  0  0  0  0  0  0  0
   -2.0892    4.9995    0.0000 H   0  0  0  0  0  0  0  0  0  0  0  0
  2  3  1  0
  2  4  1  0
  2  5  1  0
  9 10  1  0
  9 11  1  0
  6  1  1  0
  7  6  1  0
  8  7  1  0
  9  2  1  0
  9  8  1  0
M  ISO  5   3   2   4   2   5   2  10   2  11   2
M  END
>  <NAME>  (71) 
BUTYLMETHYLSILANE (5,5,6,6,6-D5)

>  <SYNONYMS>  (71) 


>  <SPECTRUM TYPE>  (71) 
MS1

>  <INSTRUMENT TYPE>  (71) 
EI-B

>  <INSTRUMENT>  (71) 
HITACHI RMU-6M

>  <ION MODE>  (71) 
P

>  <INCHIKEY>  (71) 
MFGTZDMAYACKNE-QKLSXCJMSA-N

>  <FORMULA>  (71) 
C5H14Si

>  <EXACT MASS>  (71) 
107.117860708

>  <MW>  (71) 
107

>  <ID>  (71) 
JP012040

>  <CONTRIBUTOR>  (71) 
University of Tokyo Team, {Faculty of Engineering, University of Tokyo

>  <COMMENT>  (71) 
SMILES=CCCC[Si]([2H])([2H])C([2H])([2H])[2H]
InChI=InChI=1S/C5H14Si/c1-3-4-5-6-2/h3-6H2,1-2H3/i2D3,6D2
computed SMILES=[H]C([H])([H])[Si]([H])([H])CCCC
accession=JP012040
date=2016.01.19 (Created 2008.10.21, modified 2011.05.06)
author=YAMAMOTO M, DEP. CHEMISTRY, FAC. SCIENCE, NARA WOMEN'S UNIV.
license=CC BY-NC-SA
exact mass=102.08648
ionization energy=70 eV
ion type=[M]+*
computed spectral entropy=3.066958531502162
computed normalized entropy=0.792249878748323
SPLASH=splash10-00dj-9000000000-88d0d6b268b6e0302a03
submitter=submitter = University of Tokyo Team (Faculty of Engineering, University of Tokyo)
MoNA Rating=3.75

>  <NUM PEAKS>  (71) 
48

>  <MASS SPECTRAL PEAKS>  (71) 
27 2.6
28 6.1
29 5.6
30 7.1
31 3.7
32 4.5
33 2.6
34 3.7
40 2.8
41 2.9
42 5
43 21.3
44 17.4
45 88.8
46 16.6
47 6.7
48 2.9
49 1.7
53 2.9
54 1.6
55 2.9
56 1.7
57 2.2
58 5.2
59 9.1
60 21
61 8.6
62 11.6
63 8.8
64 3.7
71 2.8
72 2.6
73 99.99
74 12.1
75 7.3
76 8.4
77 7.5
78 3.7
79 2.9
87 1.5
89 1.9
90 2.3
91 1.9
92 2.3
104 8
105 5.6
106 5.9
107 5.8

>  <PREDICTED SPECTRUM>  (71) 
16 2
26 2
30 149
32 10
36 209
40 17
41 416
43 263
44 21
45 4
46 160
47 112
48 16
49 85
50 66
51 125
52 169
53 197
54 353
55 397
56 117
57 517
59 17
60 127
61 137
62 328
63 83
64 56
74 399
75 80
76 238
77 168
78 373
79 179
88 338
89 545
90 375
91 220
103 81
104 53
105 442
106 332
107 999
108 146

$$$$

     RDKit          2D

  9  8  0  0  0  0  0  0  0  0999 V2000
   -6.3212    3.8505    0.0000 C   0  0  0  0  0  0  0  0  0  0  0  0
    0.1740    3.1005    0.0000 C   0  0  0  0  0  0  0  0  0  0  0  0
   -0.5760    1.8014    0.0000 H   0  0  0  0  0  0  0  0  0  0  0  0
    1.4731    2.3505    0.0000 H   0  0  0  0  0  0  0  0  0  0  0  0
    0.9240    4.3995    0.0000 H   0  0  0  0  0  0  0  0  0  0  0  0
   -5.0221    3.1005    0.0000 C   0  0  0  0  0  0  0  0  0  0  0  0
   -3.7231    3.8505    0.0000 C   0  0  0  0  0  0  0  0  0  0  0  0
   -2.4240    3.1005    0.0000 C   0  0  0  0  0  0  0  0  0  0  0  0
   -1.1250    3.8505    0.0000 Si  0  0  0  0  0  4  0  0  0  0  0  0
  2  3  1  0
  2  4  1  0
  2  5  1  0
  6  1  1  0
  7  6  1  0
  8  7  1  0
  9  2  1  0
  9  8  1  0
M  ISO  3   3   2   4   2   5   2
M  END
>  <NAME>  (72) 
BUTYLMETHYLSILANE (6,6,6-D3)

>  <SYNONYMS>  (72) 


>  <SPECTRUM TYPE>  (72) 
MS1

>  <INSTRUMENT TYPE>  (72) 
EI-B

>  <INSTRUMENT>  (72) 
HITACHI RMU-6M

>  <ION MODE>  (72) 
P

>  <INCHIKEY>  (72) 
MFGTZDMAYACKNE-BMSJAHLVSA-N

>  <FORMULA>  (72) 
C5H14Si

>  <EXACT MASS>  (72) 
105.105307216

>  <MW>  (72) 
105

>  <ID>  (72) 
JP012039

>  <CONTRIBUTOR>  (72) 
University of Tokyo Team, {Faculty of Engineering, University of Tokyo

>  <COMMENT>  (72) 
SMILES=CCCC[SiH2]C([2H])([2H])[2H]
InChI=InChI=1S/C5H14Si/c1-3-4-5-6-2/h3-6H2,1-2H3/i2D3
computed SMILES=[H]C([H])([H])[SiH2]CCCC
accession=JP012039
date=2016.01.19 (Created 2008.10.21, modified 2011.05.06)
author=YAMAMOTO M, DEP. CHEMISTRY, FAC. SCIENCE, NARA WOMEN'S UNIV.
license=CC BY-NC-SA
exact mass=102.08648
ionization energy=70 eV
ion type=[M]+*
computed spectral entropy=3.0356896719281576
computed normalized entropy=0.812187802014022
SPLASH=splash10-00dj-9000000000-e7ed11b0896881c60ab7
submitter=submitter = University of Tokyo Team (Faculty of Engineering, University of Tokyo)
MoNA Rating=3.75

>  <NUM PEAKS>  (72) 
42

>  <MASS SPECTRAL PEAKS>  (72) 
27 5.1
28 7.1
29 7.6
30 4.7
31 7.6
32 5.7
39 3.8
40 3
41 4.5
42 5.6
43 23.5
44 14.8
45 92.7
46 12
47 5.1
48 3.6
53 3.1
55 3.6
56 2.6
57 3.8
58 11.1
59 25.3
60 8.1
61 7.2
62 17.2
63 2.5
69 3.8
71 4.3
72 3.5
73 99.99
74 12.7
75 19.5
76 7.5
77 4.8
87 2.3
88 4
89 3
90 3
103 16.9
104 7.1
105 7
106 2.3

>  <PREDICTED SPECTRUM>  (72) 
25 14
26 203
27 534
28 213
29 420
31 257
32 36
34 182
37 8
38 93
39 533
40 204
41 999
42 248
43 190
44 253
46 274
47 363
48 273
49 167
50 129
51 164
52 76
53 313
54 299
55 115
56 863
57 881
58 374
59 290
60 181
61 130
63 22
72 233
74 5
75 262
76 302
77 137
78 6
103 435
105 739
106 100

$$$$

     RDKit          2D

  8  7  0  0  0  0  0  0  0  0999 V2000
    1.5368    3.1373    0.0000 C   0  0  0  0  0  0  0  0  0  0  0  0
   -4.4094    4.4363    0.0000 C   0  0  0  0  0  0  0  0  0  0  0  0
    0.2377    3.8873    0.0000 C   0  0  0  0  0  0  0  0  0  0  0  0
   -1.0613    3.1373    0.0000 C   0  0  0  0  0  0  0  0  0  0  0  0
   -2.3603    3.8873    0.0000 C   0  0  0  0  0  0  0  0  0  0  0  0
   -3.6594    3.1373    0.0000 Si  0  0  0  0  0  4  0  0  0  0  0  0
   -4.9584    2.3873    0.0000 H   0  0  0  0  0  0  0  0  0  0  0  0
   -2.9094    1.8382    0.0000 H   0  0  0  0  0  0  0  0  0  0  0  0
  6  7  1  0
  6  8  1  0
  3  1  1  0
  4  3  1  0
  5  4  1  0
  6  2  1  0
  6  5  1  0
M  ISO  2   7   2   8   2
M  END
>  <NAME>  (73) 
BUTYLMETHYLSILANE (5,5-D2)

>  <SYNONYMS>  (73) 


>  <SPECTRUM TYPE>  (73) 
MS1

>  <INSTRUMENT TYPE>  (73) 
EI-B

>  <INSTRUMENT>  (73) 
HITACHI RMU-6M

>  <ION MODE>  (73) 
P

>  <INCHIKEY>  (73) 
MFGTZDMAYACKNE-NCYHJHSESA-N

>  <FORMULA>  (73) 
C5H14Si

>  <EXACT MASS>  (73) 
104.09903047

>  <MW>  (73) 
104

>  <ID>  (73) 
JP012038

>  <CONTRIBUTOR>  (73) 
University of Tokyo Team, {Faculty of Engineering, University of Tokyo

>  <COMMENT>  (73) 
SMILES=CCCC[Si]([2H])([2H])C
InChI=InChI=1S/C5H14Si/c1-3-4-5-6-2/h3-6H2,1-2H3/i6D2
computed SMILES=[H][Si]([H])(C)CCCC
accession=JP012038
date=2016.01.19 (Created 2008.10.21, modified 2011.05.06)
author=YAMAMOTO M, DEP. CHEMISTRY, FAC. SCIENCE, NARA WOMEN'S UNIV.
license=CC BY-NC-SA
exact mass=102.08648
ionization energy=70 eV
ion type=[M]+*
computed spectral entropy=3.0352132531935334
computed normalized entropy=0.806979995701144
SPLASH=splash10-00dj-9000000000-00173b9c3eb984a8be86
submitter=submitter = University of Tokyo Team (Faculty of Engineering, University of Tokyo)
MoNA Rating=3.75

>  <NUM PEAKS>  (73) 
43

>  <MASS SPECTRAL PEAKS>  (73) 
26 1.9
27 5
28 7.2
29 7
30 6.6
31 6.1
32 2.7
39 3.9
40 4.8
41 4.6
42 6.9
43 22.6
44 15.5
45 90.8
46 14.6
47 5.3
53 3.2
54 2.2
55 3.4
56 7.7
57 21.2
58 8.3
59 18.4
60 18.6
61 8.5
62 2
70 1.7
71 3.8
72 8.2
73 99.99
74 17.6
75 8.5
76 4.4
86 2.7
87 3
88 2.8
89 3.7
100 2
101 6.7
102 5.1
103 5.8
104 6.3
105 2

>  <PREDICTED SPECTRUM>  (73) 
14 48
15 100
18 7
25 35
26 184
27 583
28 424
29 705
30 351
31 192
32 1
33 81
34 105
37 45
38 127
40 283
41 744
42 418
43 999
44 113
45 403
46 289
47 643
48 319
49 28
50 48
57 376
58 231
59 357
60 225
61 685
62 594
63 35
75 278
76 54
77 12
87 153
88 10
89 914
90 195
103 194
104 542
105 142

$$$$

     RDKit          2D

  6  5  0  0  0  0  0  0  0  0999 V2000
    0.0502    1.3125    0.0000 C   0  0  0  0  0  0  0  0  0  0  0  0
    0.8002    0.0135    0.0000 H   0  0  0  0  0  0  0  0  0  0  0  0
   -0.6998    2.6115    0.0000 H   0  0  0  0  0  0  0  0  0  0  0  0
   -1.2488    0.5625    0.0000 H   0  0  0  0  0  0  0  0  0  0  0  0
    1.3493    2.0625    0.0000 C   0  0  0  0  0  0  0  0  0  0  0  0
    1.3493    3.5625    0.0000 I   0  0  0  0  0  0  0  0  0  0  0  0
  1  2  1  0
  1  3  1  0
  1  4  1  0
  5  1  1  0
  6  5  1  0
M  ISO  3   2   2   3   2   4   2
M  END
>  <NAME>  (74) 
IODOETHANE (2,2,2-D3)

>  <SYNONYMS>  (74) 


>  <SPECTRUM TYPE>  (74) 
MS1

>  <INSTRUMENT TYPE>  (74) 
EI-B

>  <INSTRUMENT>  (74) 
HITACHI RMU-6M

>  <ION MODE>  (74) 
P

>  <INCHIKEY>  (74) 
HVTICUPFWKNHNG-FIBGUPNXSA-N

>  <FORMULA>  (74) 
C2H5I

>  <EXACT MASS>  (74) 
158.962428398

>  <MW>  (74) 
159

>  <ID>  (74) 
JP012037

>  <CONTRIBUTOR>  (74) 
University of Tokyo Team, {Faculty of Engineering, University of Tokyo

>  <COMMENT>  (74) 
SMILES=[2H]C([2H])([2H])CI
InChI=InChI=1S/C2H5I/c1-2-3/h2H2,1H3/i1D3
computed SMILES=[H]C([H])([H])CI
accession=JP012037
date=2016.01.19 (Created 2008.10.21, modified 2011.05.06)
author=YAMAMOTO M, DEP. CHEMISTRY, FAC. SCIENCE, NARA WOMEN'S UNIV.
license=CC BY-NC-SA
exact mass=155.94359
ionization energy=70 eV
ion type=[M]+*
computed spectral entropy=1.916376841976063
computed normalized entropy=0.650846173255926
SPLASH=splash10-0560-9500000000-2d3c41c1e499441fb310
submitter=submitter = University of Tokyo Team (Faculty of Engineering, University of Tokyo)
MoNA Rating=3.75

>  <NUM PEAKS>  (74) 
19

>  <MASS SPECTRAL PEAKS>  (74) 
18 1.5
26 1.3
27 5.2
28 17.7
29 35.7
30 11.7
31 3.6
32 99.99
33 2.7
48 1.1
127 16.9
128 2.2
129 2.6
139 1
140 1.2
141 1.5
158 1.6
159 75.7
160 2.5

>  <PREDICTED SPECTRUM>  (74) 
4 57
16 10
18 30
19 69
25 45
27 350
28 324
29 422
30 300
31 426
32 542
33 15
34 125
37 31
38 68
39 295
41 200
43 568
44 22
58 90
68 69
70 20
71 34
72 111
73 164
86 92
127 530
155 22
156 121
157 512
159 999
160 136
161 328

$$$$

     RDKit          2D

 12 11  0  0  0  0  0  0  0  0999 V2000
    0.0000    0.0000    0.0000 C   0  0  0  0  0  0  0  0  0  0  0  0
   -5.1962    4.5000    0.0000 C   0  0  0  0  0  0  0  0  0  0  0  0
    0.6235    4.6465    0.0000 C   0  0  0  0  0  0  0  0  0  0  0  0
   -2.1955    5.6726    0.0000 C   0  0  0  0  0  0  0  0  0  0  0  0
    0.0000    1.5000    0.0000 C   0  0  0  0  0  0  0  0  0  0  0  0
   -3.8971    3.7500    0.0000 C   0  0  0  0  0  0  0  0  0  0  0  0
   -1.2990    2.2500    0.0000 C   0  0  0  0  0  0  0  0  0  0  0  0
   -2.5981    4.5000    0.0000 C   0  0  0  0  0  0  0  0  0  0  0  0
   -0.7860    5.1595    0.0000 Si  0  0  0  0  0  4  0  0  0  0  0  0
   -0.2730    6.5691    0.0000 H   0  0  0  0  0  0  0  0  0  0  0  0
   -1.2990    3.7500    0.0000 Si  0  0  0  0  0  4  0  0  0  0  0  0
    0.1782    3.4895    0.0000 H   0  0  0  0  0  0  0  0  0  0  0  0
  9 10  1  0
 11 12  1  0
  5  1  1  0
  6  2  1  0
  7  5  1  0
  8  6  1  0
  9  3  1  0
  9  4  1  0
 11  7  1  0
 11  8  1  0
 11  9  1  0
M  ISO  2  10   2  12   2
M  END
>  <NAME>  (75) 
1,1-DIMETHYL-2,2-DIPROPYLDISILANE (1,2-D2)

>  <SYNONYMS>  (75) 


>  <SPECTRUM TYPE>  (75) 
MS1

>  <INSTRUMENT TYPE>  (75) 
EI-B

>  <INSTRUMENT>  (75) 
HITACHI RMU-6M

>  <ION MODE>  (75) 
P

>  <INCHIKEY>  (75) 
UFXQZDUFUWDYOA-QDRJLNDYSA-N

>  <FORMULA>  (75) 
C8H22Si2

>  <EXACT MASS>  (75) 
176.13855725599998

>  <MW>  (75) 
176

>  <ID>  (75) 
JP012036

>  <CONTRIBUTOR>  (75) 
University of Tokyo Team, {Faculty of Engineering, University of Tokyo

>  <COMMENT>  (75) 
SMILES=CCC[Si]([2H])(CCC)[Si]([2H])(C)C
InChI=InChI=1S/C8H22Si2/c1-5-7-10(8-6-2)9(3)4/h9-10H,5-8H2,1-4H3/i9D,10D
computed SMILES=[H][Si](C)(C)[Si]([H])(CCC)CCC
accession=JP012036
date=2016.01.19 (Created 2008.10.21, modified 2011.05.06)
author=YAMAMOTO M, DEP. CHEMISTRY, FAC. SCIENCE, NARA WOMEN'S UNIV.
license=CC BY-NC-SA
exact mass=174.126
ionization energy=70 eV
ion type=[M]+*
computed spectral entropy=3.4580550833451227
computed normalized entropy=0.9194020464150336
SPLASH=splash10-01t9-9800000000-91224964d1e8a9276e05
submitter=submitter = University of Tokyo Team (Faculty of Engineering, University of Tokyo)
MoNA Rating=3.75

>  <NUM PEAKS>  (75) 
43

>  <MASS SPECTRAL PEAKS>  (75) 
43 18.7
44 13.1
45 22.4
46 17.6
47 6.5
58 15
59 20.6
60 27.1
70 8.4
71 16.8
72 19.6
73 28
74 28
75 9.3
85 11.2
86 47.7
87 20.6
88 22.4
89 12.1
90 15.9
91 19.6
99 6.5
101 7.5
103 7.5
104 8.4
105 8.4
114 75.7
115 31.8
116 27.1
117 10.3
118 9.3
119 10.3
129 8.4
131 7.5
132 7.5
133 8.4
134 8.4
149 6.5
159 6.5
161 9.3
176 99.99
177 23.4
178 12.1

>  <PREDICTED SPECTRUM>  (75) 
27 90
29 52
31 2
39 55
40 43
41 182
42 107
43 293
44 241
45 180
46 79
47 181
53 108
54 15
55 118
57 181
58 138
59 587
60 49
61 282
63 6
64 43
66 20
71 73
72 91
73 971
74 476
75 613
76 221
77 163
78 22
89 105
90 103
91 435
92 26
93 18
104 78
105 122
106 13
118 113
119 714
120 182
132 264
133 999
134 462
135 80
161 292
162 87
176 267
177 107

$$$$

     RDKit          2D

 10  9  0  0  0  0  0  0  0  0999 V2000
    2.2733    2.8125    0.0000 C   0  0  0  0  0  0  0  0  0  0  0  0
   -5.5209    2.8125    0.0000 C   0  0  0  0  0  0  0  0  0  0  0  0
   -2.9228    5.8125    0.0000 C   0  0  0  0  0  0  0  0  0  0  0  0
   -0.3248    5.8125    0.0000 C   0  0  0  0  0  0  0  0  0  0  0  0
    0.9743    3.5625    0.0000 C   0  0  0  0  0  0  0  0  0  0  0  0
   -4.2219    3.5625    0.0000 C   0  0  0  0  0  0  0  0  0  0  0  0
   -0.3248    2.8125    0.0000 C   0  0  0  0  0  0  0  0  0  0  0  0
   -2.9228    2.8125    0.0000 C   0  0  0  0  0  0  0  0  0  0  0  0
   -1.6238    5.0625    0.0000 Si  0  0  0  0  0  4  0  0  0  0  0  0
   -1.6238    3.5625    0.0000 Si  0  0  0  0  0  4  0  0  0  0  0  0
  5  1  1  0
  6  2  1  0
  7  5  1  0
  8  6  1  0
  9  3  1  0
  9  4  1  0
 10  7  1  0
 10  8  1  0
 10  9  1  0
M  END
>  <NAME>  (76) 
1,1-DIMETHYL-2,2-DIPROPYLDISILANE

>  <SYNONYMS>  (76) 


>  <SPECTRUM TYPE>  (76) 
MS1

>  <INSTRUMENT TYPE>  (76) 
EI-B

>  <INSTRUMENT>  (76) 
HITACHI RMU-6M

>  <ION MODE>  (76) 
P

>  <INCHIKEY>  (76) 
UFXQZDUFUWDYOA-UHFFFAOYSA-N

>  <FORMULA>  (76) 
C8H22Si2

>  <EXACT MASS>  (76) 
174.126003764

>  <MW>  (76) 
174

>  <ID>  (76) 
JP012035

>  <CONTRIBUTOR>  (76) 
University of Tokyo Team, {Faculty of Engineering, University of Tokyo

>  <COMMENT>  (76) 
SMILES=CCC[SiH](CCC)[SiH](C)C
InChI=InChI=1S/C8H22Si2/c1-5-7-10(8-6-2)9(3)4/h9-10H,5-8H2,1-4H3
computed SMILES=CCC[SiH](CCC)[SiH](C)C
accession=JP012035
date=2016.01.19 (Created 2008.10.21, modified 2011.05.06)
author=YAMAMOTO M, DEP. CHEMISTRY, FAC. SCIENCE, NARA WOMEN'S UNIV.
license=CC BY-NC-SA
exact mass=174.126
ionization energy=70 eV
ion type=[M]+*
computed spectral entropy=3.373207055791045
computed normalized entropy=0.8913948248144021
SPLASH=splash10-022i-7900000000-c12a247bcd7c9caf5d4a
submitter=submitter = University of Tokyo Team (Faculty of Engineering, University of Tokyo)
MoNA Rating=3.75

>  <NUM PEAKS>  (76) 
44

>  <MASS SPECTRAL PEAKS>  (76) 
43 8.8
44 5.3
45 9.6
55 5.3
57 5.3
58 7
59 15.8
69 5.3
70 6.1
71 9.6
72 25.4
73 26.3
74 8.8
75 6.1
85 13.2
86 42.1
87 24.6
88 13.2
89 26.3
90 7
91 5.3
99 7.9
100 5.3
101 7.9
102 4.4
103 13.1
104 5.3
105 6.1
114 99.99
115 29.8
116 14
117 12.3
118 4.4
119 4.4
129 7.9
130 6.1
131 11.4
158 7
159 7
160 5.3
173 9.6
174 50.9
175 14
176 7

>  <PREDICTED SPECTRUM>  (76) 
26 3
27 87
28 5
29 114
31 83
39 40
40 20
41 33
43 504
44 283
45 358
46 95
53 69
55 113
56 69
57 172
58 456
59 689
60 224
61 202
62 9
65 88
66 56
67 39
69 142
70 262
71 306
72 372
73 529
74 248
75 198
77 70
78 39
83 68
84 175
85 464
86 623
87 604
88 395
89 328
90 192
91 182
93 116
99 391
100 315
101 364
102 161
103 359
104 150
105 229
106 5
113 296
114 999
115 954
116 512
117 509
118 218
119 142
129 327
130 296
131 342
132 135
143 3
145 72
146 27
159 195
160 99
161 28
172 79
173 280
174 854
175 419
176 250
177 27

$$$$

     RDKit          2D

 14 13  0  0  0  0  0  0  0  0999 V2000
   -8.4437    5.6250    0.0000 C   0  0  0  0  0  0  0  0  0  0  0  0
    3.2476    4.8750    0.0000 C   0  0  0  0  0  0  0  0  0  0  0  0
   -4.2118    6.7741    0.0000 C   0  0  0  0  0  0  0  0  0  0  0  0
   -0.9844    3.7259    0.0000 C   0  0  0  0  0  0  0  0  0  0  0  0
   -7.1447    4.8750    0.0000 C   0  0  0  0  0  0  0  0  0  0  0  0
    1.9486    5.6250    0.0000 C   0  0  0  0  0  0  0  0  0  0  0  0
   -5.8457    5.6250    0.0000 C   0  0  0  0  0  0  0  0  0  0  0  0
    0.6495    4.8750    0.0000 C   0  0  0  0  0  0  0  0  0  0  0  0
   -4.5466    4.8750    0.0000 C   0  0  0  0  0  0  0  0  0  0  0  0
   -0.6495    5.6250    0.0000 C   0  0  0  0  0  0  0  0  0  0  0  0
   -3.2476    5.6250    0.0000 Si  0  0  0  0  0  4  0  0  0  0  0  0
   -2.2834    6.7741    0.0000 H   0  0  0  0  0  0  0  0  0  0  0  0
   -1.9486    4.8750    0.0000 Si  0  0  0  0  0  4  0  0  0  0  0  0
   -2.9127    3.7259    0.0000 H   0  0  0  0  0  0  0  0  0  0  0  0
 11 12  1  0
 13 14  1  0
  5  1  1  0
  6  2  1  0
  7  5  1  0
  8  6  1  0
  9  7  1  0
 10  8  1  0
 11  3  1  0
 11  9  1  0
 13  4  1  0
 13 10  1  0
 13 11  1  0
M  ISO  2  12   2  14   2
M  END
>  <NAME>  (77) 
1,2-DIBUTYL-1,2-DIMETHYLDISILANE (1,2-D2)

>  <SYNONYMS>  (77) 


>  <SPECTRUM TYPE>  (77) 
MS1

>  <INSTRUMENT TYPE>  (77) 
EI-B

>  <INSTRUMENT>  (77) 
HITACHI RMU-6M

>  <ION MODE>  (77) 
P

>  <INCHIKEY>  (77) 
NSYKINUQOKOVNW-USUSYXOVSA-N

>  <FORMULA>  (77) 
C10H26Si2

>  <EXACT MASS>  (77) 
204.16985738399998

>  <MW>  (77) 
204

>  <ID>  (77) 
JP012034

>  <CONTRIBUTOR>  (77) 
University of Tokyo Team, {Faculty of Engineering, University of Tokyo

>  <COMMENT>  (77) 
SMILES=CCCC[Si]([2H])(C)[Si]([2H])(C)CCCC
InChI=InChI=1S/C10H26Si2/c1-5-7-9-11(3)12(4)10-8-6-2/h11-12H,5-10H2,1-4H3/i11D,12D
computed SMILES=[H][Si](C)(CCCC)[Si]([H])(C)CCCC
computed normalized entropy=0.8400886554498438
accession=JP012034
date=2016.01.19 (Created 2008.10.21, modified 2011.05.06)
author=YAMAMOTO M, DEP. CHEMISTRY, FAC. SCIENCE, NARA WOMEN'S UNIV.
license=CC BY-NC-SA
exact mass=202.1573
ionization energy=70 eV
ion type=[M]+*
computed spectral entropy=3.2694740814921666
SPLASH=splash10-00di-9100000000-75396bd7ce558fb1b791
submitter=submitter = University of Tokyo Team (Faculty of Engineering, University of Tokyo)
MoNA Rating=3.75

>  <NUM PEAKS>  (77) 
49

>  <MASS SPECTRAL PEAKS>  (77) 
27 6.7
28 2
29 10
31 2.7
39 2.7
41 4
43 38
44 16.7
45 28.7
46 42
47 4.7
55 4.7
56 2
57 2.7
58 14.7
59 70
60 40
61 4
69 2
71 8
72 99.99
73 33.3
74 20
75 2.7
76 2
77 2
85 15.3
86 9.3
87 8
88 10.7
89 8.7
90 15.3
91 18.7
92 3.3
99 2.7
100 27.3
101 20
102 26.7
103 5.3
104 4
105 3.3
115 4
118 1.3
119 2
122 1.3
147 2.7
204 17.3
205 2.7
206 1.3

>  <PREDICTED SPECTRUM>  (77) 
26 13
27 117
28 26
29 97
30 114
39 123
40 31
41 348
42 97
43 216
44 69
45 211
46 94
47 167
48 86
49 74
50 42
51 76
52 24
53 71
54 24
55 137
56 116
57 179
58 23
59 144
60 104
61 140
62 86
63 139
64 78
65 68
66 15
67 34
69 18
71 17
72 48
73 331
74 210
75 181
76 76
77 40
78 64
83 4
84 38
85 41
86 8
89 88
90 108
91 999
92 406
93 115
100 79
103 24
104 68
105 113
106 68
131 74
132 110
133 62
134 38
147 805
148 412
149 216
150 36
159 16
161 67
162 31
175 37
189 118
190 29
203 73
204 191
205 74

$$$$

     RDKit          2D

 12 11  0  0  0  0  0  0  0  0999 V2000
   -8.4437    5.6250    0.0000 C   0  0  0  0  0  0  0  0  0  0  0  0
    3.2476    4.8750    0.0000 C   0  0  0  0  0  0  0  0  0  0  0  0
   -3.2476    7.1250    0.0000 C   0  0  0  0  0  0  0  0  0  0  0  0
   -1.9486    3.3750    0.0000 C   0  0  0  0  0  0  0  0  0  0  0  0
   -7.1447    4.8750    0.0000 C   0  0  0  0  0  0  0  0  0  0  0  0
    1.9486    5.6250    0.0000 C   0  0  0  0  0  0  0  0  0  0  0  0
   -5.8457    5.6250    0.0000 C   0  0  0  0  0  0  0  0  0  0  0  0
    0.6495    4.8750    0.0000 C   0  0  0  0  0  0  0  0  0  0  0  0
   -4.5466    4.8750    0.0000 C   0  0  0  0  0  0  0  0  0  0  0  0
   -0.6495    5.6250    0.0000 C   0  0  0  0  0  0  0  0  0  0  0  0
   -3.2476    5.6250    0.0000 Si  0  0  0  0  0  4  0  0  0  0  0  0
   -1.9486    4.8750    0.0000 Si  0  0  0  0  0  4  0  0  0  0  0  0
  5  1  1  0
  6  2  1  0
  7  5  1  0
  8  6  1  0
  9  7  1  0
 10  8  1  0
 11  3  1  0
 11  9  1  0
 12  4  1  0
 12 10  1  0
 12 11  1  0
M  END
>  <NAME>  (78) 
1,2-DIBUTYL-1,2-DIMETHYLDISILANE

>  <SYNONYMS>  (78) 


>  <SPECTRUM TYPE>  (78) 
MS1

>  <INSTRUMENT TYPE>  (78) 
EI-B

>  <INSTRUMENT>  (78) 
HITACHI RMU-6M

>  <ION MODE>  (78) 
P

>  <INCHIKEY>  (78) 
NSYKINUQOKOVNW-UHFFFAOYSA-N

>  <FORMULA>  (78) 
C10H26Si2

>  <EXACT MASS>  (78) 
202.157303892

>  <MW>  (78) 
202

>  <ID>  (78) 
JP012033

>  <CONTRIBUTOR>  (78) 
University of Tokyo Team, {Faculty of Engineering, University of Tokyo

>  <COMMENT>  (78) 
SMILES=CCCC[SiH](C)[SiH](C)CCCC
InChI=InChI=1S/C10H26Si2/c1-5-7-9-11(3)12(4)10-8-6-2/h11-12H,5-10H2,1-4H3
computed SMILES=CCCC[SiH](C)[SiH](C)CCCC
accession=JP012033
date=2016.01.19 (Created 2008.10.21, modified 2011.05.06)
author=YAMAMOTO M, DEP. CHEMISTRY, FAC. SCIENCE, NARA WOMEN'S UNIV.
license=CC BY-NC-SA
exact mass=202.1573
ionization energy=70 eV
ion type=[M]+*
computed spectral entropy=3.2238513091046084
computed normalized entropy=0.7906368374183714
SPLASH=splash10-0kmi-9100000000-33d5bab3dc05e2f20bfe
submitter=submitter = University of Tokyo Team (Faculty of Engineering, University of Tokyo)
MoNA Rating=3.75

>  <NUM PEAKS>  (78) 
59

>  <MASS SPECTRAL PEAKS>  (78) 
27 9.2
28 1.9
29 9.5
31 3.5
39 3
41 4.3
42 1.9
43 40.7
44 8.9
45 61
46 3.5
47 2.7
53 1.4
54 1.1
55 5.4
56 1.4
57 4.9
58 15.7
59 97.6
60 7.3
61 3.5
67 1.1
69 2.7
70 1.6
71 11.9
72 99.99
73 39.8
74 6.8
75 3.8
83 2.4
84 1.4
85 34.7
86 8.7
87 15.2
88 10.8
89 33.1
90 4.9
91 2.7
97 1.4
99 6.8
100 36.6
101 27.9
102 4.1
103 9.5
104 1.6
105 2.2
115 3.8
117 3.3
121 2.7
130 1.4
131 2.7
145 4.1
146 1.1
157 1.4
186 1.4
187 1.4
202 16.8
203 3.8
204 1.4

>  <PREDICTED SPECTRUM>  (78) 
25 9
26 43
27 171
28 84
29 208
31 126
33 18
34 8
39 228
40 129
41 326
42 220
43 470
44 228
45 483
46 135
47 138
51 29
52 13
53 92
54 27
55 201
56 87
57 267
58 379
59 999
60 334
61 190
62 1
63 43
65 38
67 79
68 21
69 180
70 126
71 416
72 850
73 664
74 203
75 179
76 3
77 7
79 55
83 169
84 87
85 585
86 344
87 392
88 205
89 485
90 163
91 108
97 76
99 169
100 777
101 709
102 205
103 215
104 190
105 160
113 49
114 75
115 117
116 75
117 121
118 66
119 29
131 189
132 74
143 53
145 198
146 41
159 11
160 45
201 53
202 352
203 151
204 110

$$$$

     RDKit          2D

 11 10  0  0  0  0  0  0  0  0999 V2000
   -6.3212    3.8505    0.0000 C   0  0  0  0  0  0  0  0  0  0  0  0
   -0.5760    1.8014    0.0000 C   0  0  0  0  0  0  0  0  0  0  0  0
    0.9240    4.3995    0.0000 C   0  0  0  0  0  0  0  0  0  0  0  0
   -2.0892    4.9995    0.0000 C   0  0  0  0  0  0  0  0  0  0  0  0
   -5.0221    3.1005    0.0000 C   0  0  0  0  0  0  0  0  0  0  0  0
   -3.7231    3.8505    0.0000 C   0  0  0  0  0  0  0  0  0  0  0  0
   -2.4240    3.1005    0.0000 C   0  0  0  0  0  0  0  0  0  0  0  0
    0.1740    3.1005    0.0000 Si  0  0  0  0  0  4  0  0  0  0  0  0
    1.4731    2.3505    0.0000 H   0  0  0  0  0  0  0  0  0  0  0  0
   -1.1250    3.8505    0.0000 Si  0  0  0  0  0  4  0  0  0  0  0  0
   -0.1608    4.9995    0.0000 H   0  0  0  0  0  0  0  0  0  0  0  0
  8  9  1  0
 10 11  1  0
  5  1  1  0
  6  5  1  0
  7  6  1  0
  8  2  1  0
  8  3  1  0
 10  4  1  0
 10  7  1  0
 10  8  1  0
M  ISO  2   9   2  11   2
M  END
>  <NAME>  (79) 
1-BUTYL-1,2,2-TRIMETHYLDISILANE (1,2-D2)

>  <SYNONYMS>  (79) 


>  <SPECTRUM TYPE>  (79) 
MS1

>  <INSTRUMENT TYPE>  (79) 
EI-B

>  <INSTRUMENT>  (79) 
HITACHI RMU-6M

>  <ION MODE>  (79) 
P

>  <INCHIKEY>  (79) 
UCLLPTUTMNRQBU-XETGXLELSA-N

>  <FORMULA>  (79) 
C7H20Si2

>  <EXACT MASS>  (79) 
162.12290719199999

>  <MW>  (79) 
162

>  <ID>  (79) 
JP012032

>  <CONTRIBUTOR>  (79) 
University of Tokyo Team, {Faculty of Engineering, University of Tokyo

>  <COMMENT>  (79) 
SMILES=CCCC[Si]([2H])(C)[Si]([2H])(C)C
InChI=InChI=1S/C7H20Si2/c1-5-6-7-9(4)8(2)3/h8-9H,5-7H2,1-4H3/i8D,9D
computed SMILES=[H][Si](C)(C)[Si]([H])(C)CCCC
accession=JP012032
date=2016.01.19 (Created 2008.10.21, modified 2011.05.06)
author=YAMAMOTO M, DEP. CHEMISTRY, FAC. SCIENCE, NARA WOMEN'S UNIV.
license=CC BY-NC-SA
exact mass=160.11035
ionization energy=70 eV
ion type=[M]+*
computed spectral entropy=3.3572991641333703
computed normalized entropy=0.8303874825538714
SPLASH=splash10-05fr-9200000000-4d3a991bd56c7928e6e8
submitter=submitter = University of Tokyo Team (Faculty of Engineering, University of Tokyo)
MoNA Rating=3.75

>  <NUM PEAKS>  (79) 
57

>  <MASS SPECTRAL PEAKS>  (79) 
27 7.3
28 3.4
29 7.1
30 1.1
31 8.5
32 5.1
39 3.7
41 4.2
42 2.8
43 50.8
44 15.8
45 22.9
46 30.5
47 4.8
53 2.8
54 1.1
55 6.2
56 2.3
57 3.4
58 31.9
59 66.9
60 64.4
61 7.3
62 2.3
69 3.7
70 2.3
71 8.2
72 99.99
73 44.9
74 21.2
75 3.7
83 1.1
85 15
86 7.6
87 4.5
88 5.1
89 7.1
90 7.6
91 8.5
92 1.4
99 2.3
100 26
101 10.7
102 22
103 6.5
104 8.5
105 17.8
106 3.4
107 1.4
115 2.3
122 5.4
137 2
145 1.4
147 2.5
162 20.3
163 3.4
164 1.7

>  <PREDICTED SPECTRUM>  (79) 
15 3
26 14
27 98
28 64
29 210
30 77
31 97
39 85
40 42
41 218
42 39
43 229
44 134
45 256
46 62
47 172
48 49
49 74
50 64
51 52
52 28
56 112
57 193
58 68
59 337
60 249
61 167
62 72
63 52
64 37
65 48
66 14
73 606
74 196
75 445
76 122
77 166
78 144
79 97
86 39
87 33
89 83
90 124
91 322
92 187
93 85
100 50
101 3
103 64
104 50
105 999
106 492
107 254
108 30
117 39
118 80
119 144
120 137
121 31
133 25
145 61
146 18
147 299
148 78
149 30
161 102
162 367
163 128
164 83

$$$$

     RDKit          2D

  9  8  0  0  0  0  0  0  0  0999 V2000
    1.9486    3.3750    0.0000 C   0  0  0  0  0  0  0  0  0  0  0  0
   -5.8457    3.3750    0.0000 C   0  0  0  0  0  0  0  0  0  0  0  0
   -4.5466    5.6250    0.0000 C   0  0  0  0  0  0  0  0  0  0  0  0
   -3.2476    1.8750    0.0000 C   0  0  0  0  0  0  0  0  0  0  0  0
    0.6495    4.1250    0.0000 C   0  0  0  0  0  0  0  0  0  0  0  0
   -0.6495    3.3750    0.0000 C   0  0  0  0  0  0  0  0  0  0  0  0
   -1.9486    4.1250    0.0000 C   0  0  0  0  0  0  0  0  0  0  0  0
   -4.5466    4.1250    0.0000 Si  0  0  0  0  0  4  0  0  0  0  0  0
   -3.2476    3.3750    0.0000 Si  0  0  0  0  0  4  0  0  0  0  0  0
  5  1  1  0
  6  5  1  0
  7  6  1  0
  8  2  1  0
  8  3  1  0
  9  4  1  0
  9  7  1  0
  9  8  1  0
M  END
>  <NAME>  (80) 
1-BUTYL-1,2,2-TRIMETHYLDISILANE

>  <SYNONYMS>  (80) 


>  <SPECTRUM TYPE>  (80) 
MS1

>  <INSTRUMENT TYPE>  (80) 
EI-B

>  <INSTRUMENT>  (80) 
HITACHI RMU-6M

>  <ION MODE>  (80) 
P

>  <INCHIKEY>  (80) 
UCLLPTUTMNRQBU-UHFFFAOYSA-N

>  <FORMULA>  (80) 
C7H20Si2

>  <EXACT MASS>  (80) 
160.1103537

>  <MW>  (80) 
160

>  <ID>  (80) 
JP012031

>  <CONTRIBUTOR>  (80) 
University of Tokyo Team, {Faculty of Engineering, University of Tokyo

>  <COMMENT>  (80) 
SMILES=CCCC[SiH](C)[SiH](C)C
InChI=InChI=1S/C7H20Si2/c1-5-6-7-9(4)8(2)3/h8-9H,5-7H2,1-4H3
computed SMILES=CCCC[SiH](C)[SiH](C)C
accession=JP012031
date=2016.01.19 (Created 2008.10.21, modified 2011.05.06)
author=YAMAMOTO M, DEP. CHEMISTRY, FAC. SCIENCE, NARA WOMEN'S UNIV.
license=CC BY-NC-SA
exact mass=160.11035
ionization energy=70 eV
ion type=[M]+*
computed spectral entropy=3.1163586392332623
computed normalized entropy=0.7925983831266612
SPLASH=splash10-0pi0-9100000000-002a7a118d1830e2b1ff
submitter=submitter = University of Tokyo Team (Faculty of Engineering, University of Tokyo)
MoNA Rating=3.75

>  <NUM PEAKS>  (80) 
51

>  <MASS SPECTRAL PEAKS>  (80) 
27 5.8
28 2.9
29 6.7
31 13.3
39 2.5
41 2.9
42 2.9
43 52.1
44 8.3
45 46.7
46 2.9
47 1.3
53 2.5
55 5
56 1.7
57 4.2
58 25.8
59 99.99
60 6.7
61 2.9
67 1.3
69 5
70 1.3
71 8.3
72 70
73 45
74 5.4
75 1.7
81 1.3
83 1.3
84 1.3
85 13.8
86 5.4
87 5.4
88 6.7
89 10
90 1.7
99 2.9
100 21.7
101 20.4
102 4.7
103 20.8
104 3.3
105 2.1
115 1.7
121 2.9
136 3.3
144 1.7
145 1.7
160 13.8
161 2.1

>  <PREDICTED SPECTRUM>  (80) 
26 42
27 145
28 75
29 164
31 232
39 151
40 51
41 247
42 112
43 713
44 330
45 619
46 146
47 28
53 97
54 27
55 211
56 136
57 191
58 462
59 999
60 373
61 208
62 26
66 19
67 55
69 194
70 55
71 350
72 685
73 892
74 258
75 194
76 17
77 104
79 4
83 77
84 44
85 375
86 246
87 384
88 129
89 292
90 90
91 52
99 122
100 580
101 605
102 353
103 472
104 206
105 154
115 183
116 66
117 150
118 29
131 10
145 70
146 23
158 17
159 107
160 304
161 140
162 67

$$$$

     RDKit          2D

 12 11  0  0  0  0  0  0  0  0999 V2000
   -6.4952    4.5000    0.0000 C   0  0  0  0  0  0  0  0  0  0  0  0
    2.5981    3.7500    0.0000 C   0  0  0  0  0  0  0  0  0  0  0  0
   -1.6339    2.6009    0.0000 C   0  0  0  0  0  0  0  0  0  0  0  0
   -2.2632    5.6491    0.0000 C   0  0  0  0  0  0  0  0  0  0  0  0
   -5.1962    3.7500    0.0000 C   0  0  0  0  0  0  0  0  0  0  0  0
    1.2990    4.5000    0.0000 C   0  0  0  0  0  0  0  0  0  0  0  0
   -3.8971    4.5000    0.0000 C   0  0  0  0  0  0  0  0  0  0  0  0
    0.0000    3.7500    0.0000 C   0  0  0  0  0  0  0  0  0  0  0  0
   -2.5981    3.7500    0.0000 Si  0  0  0  0  0  4  0  0  0  0  0  0
   -3.5623    2.6009    0.0000 H   0  0  0  0  0  0  0  0  0  0  0  0
   -1.2990    4.5000    0.0000 Si  0  0  0  0  0  4  0  0  0  0  0  0
   -0.3349    5.6491    0.0000 H   0  0  0  0  0  0  0  0  0  0  0  0
  9 10  1  0
 11 12  1  0
  5  1  1  0
  6  2  1  0
  7  5  1  0
  8  6  1  0
  9  3  1  0
  9  7  1  0
 11  4  1  0
 11  8  1  0
 11  9  1  0
M  ISO  2  10   2  12   2
M  END
>  <NAME>  (81) 
1,2-DIMETHYL-1,2-DIPROPYLDISILANE (1,2-D2)

>  <SYNONYMS>  (81) 


>  <SPECTRUM TYPE>  (81) 
MS1

>  <INSTRUMENT TYPE>  (81) 
EI-B

>  <INSTRUMENT>  (81) 
HITACHI RMU-6M

>  <ION MODE>  (81) 
P

>  <INCHIKEY>  (81) 
ZHXZTSLNKZHPGH-QDRJLNDYSA-N

>  <FORMULA>  (81) 
C8H22Si2

>  <EXACT MASS>  (81) 
176.13855725599998

>  <MW>  (81) 
176

>  <ID>  (81) 
JP012030

>  <CONTRIBUTOR>  (81) 
University of Tokyo Team, {Faculty of Engineering, University of Tokyo

>  <COMMENT>  (81) 
SMILES=CCC[Si]([2H])(C)[Si]([2H])(C)CCC
InChI=InChI=1S/C8H22Si2/c1-5-7-9(3)10(4)8-6-2/h9-10H,5-8H2,1-4H3/i9D,10D
computed SMILES=[H][Si](C)(CCC)[Si]([H])(C)CCC
accession=JP012030
date=2016.01.19 (Created 2008.10.21, modified 2011.05.06)
author=YAMAMOTO M, DEP. CHEMISTRY, FAC. SCIENCE, NARA WOMEN'S UNIV.
license=CC BY-NC-SA
exact mass=174.126
ionization energy=70 eV
ion type=[M]+*
computed spectral entropy=3.4732973080121616
computed normalized entropy=0.8044717707786113
SPLASH=splash10-0a4r-9100000000-912ea5dc01f87f9127db
submitter=submitter = University of Tokyo Team (Faculty of Engineering, University of Tokyo)
MoNA Rating=3.75

>  <NUM PEAKS>  (81) 
75

>  <MASS SPECTRAL PEAKS>  (81) 
27 6.7
28 3.5
29 3.5
31 4
32 3.2
39 3.7
41 4
42 2.7
43 46.4
44 17.1
45 28.8
46 48
47 6.7
48 1.9
53 1.6
55 3.7
56 1.6
57 2.1
58 96
59 99.99
60 60.8
61 8.5
62 2.7
67 1.6
69 4.5
70 2.7
71 12.5
72 10.1
73 10.6
74 4.3
75 4
76 3.7
77 3.7
84 1.9
85 6.7
86 64.8
87 48.8
88 34.1
89 15.5
90 20.8
91 26.1
92 5.1
93 2.7
100 1.1
101 13.6
102 2.1
103 4.8
104 7.2
105 5.3
106 4.3
107 7.2
108 1.3
115 2.7
117 3.7
118 2.7
119 4.3
120 1.6
128 1.1
129 5.1
130 1.3
131 2.4
132 2.7
133 9.9
134 2.9
135 1.3
148 2.9
149 4.3
150 1.1
151 1.1
159 1.6
161 1.9
175 1.9
176 35.7
177 7.2
178 2.7

>  <PREDICTED SPECTRUM>  (81) 
27 81
29 27
39 106
40 83
41 254
42 65
43 284
44 161
45 252
46 101
47 242
48 44
52 17
53 120
57 29
59 560
60 171
61 217
62 36
63 52
64 44
71 20
73 711
74 332
75 387
76 145
77 74
78 15
89 110
90 157
91 999
92 255
93 31
104 56
105 277
106 136
118 37
119 363
131 99
132 116
133 957
134 439
135 110
148 3
161 243
162 55
175 46
176 336
177 111

$$$$

     RDKit          2D

 10  9  0  0  0  0  0  0  0  0999 V2000
   -6.4952    4.5000    0.0000 C   0  0  0  0  0  0  0  0  0  0  0  0
    2.5981    3.7500    0.0000 C   0  0  0  0  0  0  0  0  0  0  0  0
   -2.5981    2.2500    0.0000 C   0  0  0  0  0  0  0  0  0  0  0  0
   -1.2990    6.0000    0.0000 C   0  0  0  0  0  0  0  0  0  0  0  0
   -5.1962    3.7500    0.0000 C   0  0  0  0  0  0  0  0  0  0  0  0
    1.2990    4.5000    0.0000 C   0  0  0  0  0  0  0  0  0  0  0  0
   -3.8971    4.5000    0.0000 C   0  0  0  0  0  0  0  0  0  0  0  0
    0.0000    3.7500    0.0000 C   0  0  0  0  0  0  0  0  0  0  0  0
   -2.5981    3.7500    0.0000 Si  0  0  0  0  0  4  0  0  0  0  0  0
   -1.2990    4.5000    0.0000 Si  0  0  0  0  0  4  0  0  0  0  0  0
  5  1  1  0
  6  2  1  0
  7  5  1  0
  8  6  1  0
  9  3  1  0
  9  7  1  0
 10  4  1  0
 10  8  1  0
 10  9  1  0
M  END
>  <NAME>  (82) 
1,2-DIMETHYL-1,2-DIPROPYLDISILANE

>  <SYNONYMS>  (82) 


>  <SPECTRUM TYPE>  (82) 
MS1

>  <INSTRUMENT TYPE>  (82) 
EI-B

>  <INSTRUMENT>  (82) 
HITACHI RMU-6M

>  <ION MODE>  (82) 
P

>  <INCHIKEY>  (82) 
ZHXZTSLNKZHPGH-UHFFFAOYSA-N

>  <FORMULA>  (82) 
C8H22Si2

>  <EXACT MASS>  (82) 
174.12600376400002

>  <MW>  (82) 
174

>  <ID>  (82) 
JP012029

>  <CONTRIBUTOR>  (82) 
University of Tokyo Team, {Faculty of Engineering, University of Tokyo

>  <COMMENT>  (82) 
SMILES=CCC[SiH](C)[SiH](C)CCC
InChI=InChI=1S/C8H22Si2/c1-5-7-9(3)10(4)8-6-2/h9-10H,5-8H2,1-4H3
computed SMILES=CCC[SiH](C)[SiH](C)CCC
accession=JP012029
date=2016.01.19 (Created 2008.10.21, modified 2011.05.06)
author=YAMAMOTO M, DEP. CHEMISTRY, FAC. SCIENCE, NARA WOMEN'S UNIV.
license=CC BY-NC-SA
exact mass=174.126
ionization energy=70 eV
ion type=[M]+*
computed spectral entropy=2.999653016321673
computed normalized entropy=0.7791007843411938
SPLASH=splash10-0a4r-9100000000-b00288db9c5a85964142
submitter=submitter = University of Tokyo Team (Faculty of Engineering, University of Tokyo)
MoNA Rating=3.75

>  <NUM PEAKS>  (82) 
47

>  <MASS SPECTRAL PEAKS>  (82) 
27 3.8
28 2.2
29 3.2
31 4.3
39 2.2
41 2.2
42 1.6
43 37.6
44 7.5
45 47.3
46 3.2
55 2.2
57 1.6
58 67.7
59 99.99
60 9.1
61 3.2
69 3.2
70 1.6
71 11.8
72 2.2
73 8.6
74 3.2
75 2.7
85 6.5
86 66.1
87 28.5
88 11.8
89 27.4
90 3.8
91 2.2
101 8.6
102 1.1
103 9.1
105 3.2
115 2.2
116 3.2
117 3.8
129 3.8
130 2.2
131 6.5
147 2.7
158 3.2
159 1.1
174 25.8
175 4.3
176 3.2

>  <PREDICTED SPECTRUM>  (82) 
25 7
26 51
27 174
28 65
29 153
31 134
39 95
40 33
41 118
42 94
43 490
44 335
45 479
46 167
47 73
53 41
55 114
56 1
57 221
58 484
59 999
60 304
61 164
62 14
63 10
65 31
66 2
67 37
69 2
70 76
71 335
72 526
73 305
74 163
75 230
77 7
85 290
86 496
87 485
88 329
89 352
90 127
91 170
98 68
99 145
100 141
101 206
102 100
103 471
104 201
105 172
106 36
114 187
115 337
116 261
117 268
118 107
119 44
129 234
130 160
131 325
132 125
133 1
145 60
146 82
159 41
173 43
174 532
175 227
176 151

$$$$

     RDKit          2D

 10  9  0  0  0  0  0  0  0  0999 V2000
   -5.3003    2.7389    0.0000 C   0  0  0  0  0  0  0  0  0  0  0  0
    0.6459    1.4399    0.0000 C   0  0  0  0  0  0  0  0  0  0  0  0
   -0.8541    4.0380    0.0000 C   0  0  0  0  0  0  0  0  0  0  0  0
   -0.4390    0.8399    0.0000 C   0  0  0  0  0  0  0  0  0  0  0  0
   -4.0012    1.9889    0.0000 C   0  0  0  0  0  0  0  0  0  0  0  0
   -2.7022    2.7389    0.0000 C   0  0  0  0  0  0  0  0  0  0  0  0
   -0.1041    2.7389    0.0000 Si  0  0  0  0  0  4  0  0  0  0  0  0
    1.1949    3.4889    0.0000 H   0  0  0  0  0  0  0  0  0  0  0  0
   -1.4031    1.9889    0.0000 Si  0  0  0  0  0  4  0  0  0  0  0  0
   -2.3673    0.8399    0.0000 H   0  0  0  0  0  0  0  0  0  0  0  0
  7  8  1  0
  9 10  1  0
  5  1  1  0
  6  5  1  0
  7  2  1  0
  7  3  1  0
  9  4  1  0
  9  6  1  0
  9  7  1  0
M  ISO  2   8   2  10   2
M  END
>  <NAME>  (83) 
1,1,2-TRIMETHYL-2-PROPYLDISILANE (D2)

>  <SYNONYMS>  (83) 


>  <SPECTRUM TYPE>  (83) 
MS1

>  <INSTRUMENT TYPE>  (83) 
EI-B

>  <INSTRUMENT>  (83) 
HITACHI RMU-6M

>  <ION MODE>  (83) 
P

>  <INCHIKEY>  (83) 
MVBTVTKKXMKCEV-QTQOOCSTSA-N

>  <FORMULA>  (83) 
C6H18Si2

>  <EXACT MASS>  (83) 
148.107257128

>  <MW>  (83) 
148

>  <ID>  (83) 
JP012028

>  <CONTRIBUTOR>  (83) 
University of Tokyo Team, {Faculty of Engineering, University of Tokyo

>  <COMMENT>  (83) 
SMILES=CCC[Si]([2H])(C)[Si]([2H])(C)C
InChI=InChI=1S/C6H18Si2/c1-5-6-8(4)7(2)3/h7-8H,5-6H2,1-4H3/i7D,8D
computed SMILES=[H][Si](C)(C)[Si]([H])(C)CCC
accession=JP012028
date=2016.01.19 (Created 2008.10.21, modified 2011.05.06)
license=CC BY-NC-SA
author=YAMAMOTO M, DEP. CHEMISTRY, FAC. SCIENCE, NARA WOMEN'S UNIV.
exact mass=146.0947
ionization energy=70 eV
ion type=[M]+*
computed spectral entropy=3.2149217389837985
computed normalized entropy=0.8176664072349029
SPLASH=splash10-0a4r-9100000000-71d0bdb09e646bad2407
submitter=submitter = University of Tokyo Team (Faculty of Engineering, University of Tokyo)
MoNA Rating=3.75

>  <NUM PEAKS>  (83) 
51

>  <MASS SPECTRAL PEAKS>  (83) 
17 2.8
18 8.5
27 3.4
28 3.4
29 5.7
31 9.9
32 6.4
39 2.2
41 2.2
42 3.5
43 54.6
44 19.9
45 21.3
46 33.3
47 5.7
53 1.4
55 3.5
57 2.2
58 99.99
59 80.9
60 87.9
61 9.2
62 2.8
69 5
70 2.8
71 11.3
72 4.3
73 31.2
74 7.1
75 2.2
85 3.5
86 55.3
87 23.4
88 24.8
89 9.2
90 6.4
91 14.9
92 1.4
100 1.4
101 9.2
102 2.8
103 6.4
104 9.9
105 22
106 3.5
107 1.4
131 3.5
133 3.5
148 31.2
149 5
150 2.8

>  <PREDICTED SPECTRUM>  (83) 
31 8
43 367
44 74
45 173
46 33
47 101
48 2
57 64
59 607
60 195
61 139
65 8
73 999
74 296
75 445
76 65
77 194
78 81
79 16
89 23
90 141
91 341
92 89
93 1
103 28
104 61
105 653
106 409
107 132
108 16
133 443
134 108
135 7
147 62
148 390
149 119
150 48

$$$$

     RDKit          2D

  8  7  0  0  0  0  0  0  0  0999 V2000
    1.6238    3.1875    0.0000 C   0  0  0  0  0  0  0  0  0  0  0  0
   -4.8714    3.9375    0.0000 C   0  0  0  0  0  0  0  0  0  0  0  0
   -3.5724    1.6875    0.0000 C   0  0  0  0  0  0  0  0  0  0  0  0
   -2.2733    5.4375    0.0000 C   0  0  0  0  0  0  0  0  0  0  0  0
    0.3248    3.9375    0.0000 C   0  0  0  0  0  0  0  0  0  0  0  0
   -0.9743    3.1875    0.0000 C   0  0  0  0  0  0  0  0  0  0  0  0
   -3.5724    3.1875    0.0000 Si  0  0  0  0  0  4  0  0  0  0  0  0
   -2.2733    3.9375    0.0000 Si  0  0  0  0  0  4  0  0  0  0  0  0
  5  1  1  0
  6  5  1  0
  7  2  1  0
  7  3  1  0
  8  4  1  0
  8  6  1  0
  8  7  1  0
M  END
>  <NAME>  (84) 
1,1,2-TRIMETHYL-2-PROPYLDISILANE

>  <SYNONYMS>  (84) 


>  <SPECTRUM TYPE>  (84) 
MS1

>  <INSTRUMENT TYPE>  (84) 
EI-B

>  <INSTRUMENT>  (84) 
HITACHI RMU-6M

>  <ION MODE>  (84) 
P

>  <INCHIKEY>  (84) 
MVBTVTKKXMKCEV-UHFFFAOYSA-N

>  <FORMULA>  (84) 
C6H18Si2

>  <EXACT MASS>  (84) 
146.094703636

>  <MW>  (84) 
146

>  <ID>  (84) 
JP012027

>  <CONTRIBUTOR>  (84) 
University of Tokyo Team, {Faculty of Engineering, University of Tokyo

>  <COMMENT>  (84) 
SMILES=CCC[SiH](C)[SiH](C)C
InChI=InChI=1S/C6H18Si2/c1-5-6-8(4)7(2)3/h7-8H,5-6H2,1-4H3
computed SMILES=CCC[SiH](C)[SiH](C)C
accession=JP012027
date=2016.01.19 (Created 2008.10.21, modified 2011.05.06)
author=YAMAMOTO M, DEP. CHEMISTRY, FAC. SCIENCE, NARA WOMEN'S UNIV.
license=CC BY-NC-SA
exact mass=146.0947
ionization energy=70 eV
ion type=[M]+*
computed spectral entropy=2.9618620496953185
computed normalized entropy=0.7826938753670544
SPLASH=splash10-0a4r-9100000000-59c6ac2e4c747076f1b6
submitter=submitter = University of Tokyo Team (Faculty of Engineering, University of Tokyo)
MoNA Rating=3.75

>  <NUM PEAKS>  (84) 
44

>  <MASS SPECTRAL PEAKS>  (84) 
17 1.7
18 7.6
27 1.7
28 2.2
29 4.3
31 8.7
39 1.3
41 1.3
42 2.6
43 41.6
44 7.4
45 34.6
46 2.2
47 1.3
53 1.7
55 2.6
57 2.2
58 63.2
59 99.99
60 8.7
61 3.5
69 4.3
70 1.7
71 10
72 1.7
73 24.7
74 2.6
85 4.3
86 48.1
87 21.6
88 9.5
89 12.1
90 1.7
99 1.3
101 6.5
102 4.8
103 20.3
104 3.9
105 1.3
130 2.2
131 2.6
146 23.4
147 3.5
148 1.7

>  <PREDICTED SPECTRUM>  (84) 
26 21
27 75
28 50
29 102
31 173
39 46
40 4
41 103
42 59
43 635
44 320
45 601
46 117
47 10
53 67
55 102
57 105
58 608
59 999
60 287
61 141
67 15
69 201
70 67
71 359
72 483
73 731
74 150
75 207
85 319
86 718
87 567
88 436
89 433
90 127
91 80
101 362
102 208
103 367
104 54
115 4
117 114
118 79
119 5
130 28
131 159
132 37
145 75
146 497
147 231
148 162

$$$$

     RDKit          2D

 11 10  0  0  0  0  0  0  0  0999 V2000
    2.0490    4.0981    0.0000 C   0  0  0  0  0  0  0  0  0  0  0  0
    3.5490    2.5981    0.0000 C   0  0  0  0  0  0  0  0  0  0  0  0
   -1.5000    2.0490    0.0000 C   0  0  0  0  0  0  0  0  0  0  0  0
    1.0981    0.5490    0.0000 C   0  0  0  0  0  0  0  0  0  0  0  0
    0.8095    4.0753    0.0000 C   0  0  0  0  0  0  0  0  0  0  0  0
   -0.8605    3.1111    0.0000 C   0  0  0  0  0  0  0  0  0  0  0  0
    2.0490    2.5981    0.0000 Si  0  0  0  0  0  4  0  0  0  0  0  0
    2.0490    1.0981    0.0000 H   0  0  0  0  0  0  0  0  0  0  0  0
   -0.2010    1.2990    0.0000 Si  0  0  0  0  0  4  0  0  0  0  0  0
   -0.9510    0.0000    0.0000 H   0  0  0  0  0  0  0  0  0  0  0  0
    0.5490    2.5981    0.0000 Si  0  0  0  0  0  4  0  0  0  0  0  0
  7  8  1  0
  9 10  1  0
  7  1  1  0
  7  2  1  0
  9  3  1  0
  9  4  1  0
 11  5  1  0
 11  6  1  0
 11  7  1  0
 11  9  1  0
M  ISO  2   8   2  10   2
M  END
>  <NAME>  (85) 
1,1,2,2,3,3-HEXAMETHYLTRISILANE (D2)

>  <SYNONYMS>  (85) 


>  <SPECTRUM TYPE>  (85) 
MS1

>  <INSTRUMENT TYPE>  (85) 
EI-B

>  <INSTRUMENT>  (85) 
HITACHI RMU-6M

>  <ION MODE>  (85) 
P

>  <INCHIKEY>  (85) 
JSBOVJABZFDRGV-QTQOOCSTSA-N

>  <FORMULA>  (85) 
C6H20Si3

>  <EXACT MASS>  (85) 
178.09983372199997

>  <MW>  (85) 
178

>  <ID>  (85) 
JP012026

>  <CONTRIBUTOR>  (85) 
University of Tokyo Team, {Faculty of Engineering, University of Tokyo

>  <COMMENT>  (85) 
SMILES=[2H][Si](C)(C)[Si](C)(C)[Si]([2H])(C)C
InChI=InChI=1S/C6H20Si3/c1-7(2)9(5,6)8(3)4/h7-8H,1-6H3/i7D,8D
computed SMILES=[H][Si](C)(C)[Si](C)(C)[Si]([H])(C)C
accession=JP012026
date=2016.01.19 (Created 2008.10.21, modified 2011.05.06)
author=YAMAMOTO M, DEP. CHEMISTRY, FAC. SCIENCE, NARA WOMEN'S UNIV.
license=CC BY-NC-SA
exact mass=176.08728
ionization energy=70 eV
ion type=[M]+*
computed spectral entropy=3.003804706378006
computed normalized entropy=0.7462216812736234
SPLASH=splash10-01b9-8900000000-d38bcb9b1b3073a9ce2a
submitter=submitter = University of Tokyo Team (Faculty of Engineering, University of Tokyo)
MoNA Rating=3.75

>  <NUM PEAKS>  (85) 
56

>  <MASS SPECTRAL PEAKS>  (85) 
28 2.1
29 3.7
31 7.4
32 4.4
42 1.7
43 31.6
44 6.6
45 15.1
46 4.1
53 2
55 1.8
57 2
58 5
59 12.3
60 27.1
61 2.2
62 1.1
69 4.6
70 1.6
71 2.3
72 1.3
73 91.6
74 11.7
75 3.6
83 1.4
84 1.3
85 3.3
86 4
87 1.6
88 3.1
89 1
99 3.1
100 2.9
101 9.8
102 10.3
103 7.1
104 2
105 1.7
115 3.6
116 99.99
117 13.4
118 83.7
119 11.4
120 5.3
122 1.3
131 1
132 1.4
160 1.7
161 2.9
163 12.7
164 2.9
165 1.3
177 1.6
178 8.1
179 1.7
180 1.1

>  <PREDICTED SPECTRUM>  (85) 
15 5
26 1
27 35
28 17
29 20
31 123
39 19
40 7
41 24
43 277
44 84
45 353
46 133
47 99
53 56
54 60
55 128
57 58
59 317
60 83
61 25
66 88
71 61
72 124
73 999
74 310
75 307
76 53
77 55
78 23
79 42
86 87
87 54
89 51
90 104
91 71
100 14
101 99
103 0
104 109
105 72
117 43
118 51
131 113
132 109
133 11
147 70
163 430
164 177
165 74
178 130
179 9

$$$$

     RDKit          2D

  9  8  0  0  0  0  0  0  0  0999 V2000
   -3.0565    2.7353    0.0000 C   0  0  0  0  0  0  0  0  0  0  0  0
   -1.7574    0.4853    0.0000 C   0  0  0  0  0  0  0  0  0  0  0  0
    2.1397    2.7353    0.0000 C   0  0  0  0  0  0  0  0  0  0  0  0
    0.8406    0.4853    0.0000 C   0  0  0  0  0  0  0  0  0  0  0  0
    0.5058    3.8844    0.0000 C   0  0  0  0  0  0  0  0  0  0  0  0
   -1.4226    3.8844    0.0000 C   0  0  0  0  0  0  0  0  0  0  0  0
   -1.7574    1.9853    0.0000 Si  0  0  0  0  0  4  0  0  0  0  0  0
    0.8406    1.9853    0.0000 Si  0  0  0  0  0  4  0  0  0  0  0  0
   -0.4584    2.7353    0.0000 Si  0  0  0  0  0  4  0  0  0  0  0  0
  7  1  1  0
  7  2  1  0
  8  3  1  0
  8  4  1  0
  9  5  1  0
  9  6  1  0
  9  7  1  0
  9  8  1  0
M  END
>  <NAME>  (86) 
1,1,2,2,3,3-HEXAMETHYLTRISILANE

>  <SYNONYMS>  (86) 


>  <SPECTRUM TYPE>  (86) 
MS1

>  <INSTRUMENT TYPE>  (86) 
EI-B

>  <INSTRUMENT>  (86) 
HITACHI RMU-6M

>  <ION MODE>  (86) 
P

>  <INCHIKEY>  (86) 
JSBOVJABZFDRGV-UHFFFAOYSA-N

>  <FORMULA>  (86) 
C6H20Si3

>  <EXACT MASS>  (86) 
176.08728023

>  <MW>  (86) 
176

>  <ID>  (86) 
JP012025

>  <CONTRIBUTOR>  (86) 
University of Tokyo Team, {Faculty of Engineering, University of Tokyo

>  <COMMENT>  (86) 
SMILES=C[SiH](C)[Si](C)(C)[SiH](C)C
InChI=InChI=1S/C6H20Si3/c1-7(2)9(5,6)8(3)4/h7-8H,1-6H3
computed SMILES=C[SiH](C)[Si](C)(C)[SiH](C)C
accession=JP012025
date=2016.01.19 (Created 2008.10.21, modified 2011.05.06)
author=YAMAMOTO M, DEP. CHEMISTRY, FAC. SCIENCE, NARA WOMEN'S UNIV.
license=CC BY-NC-SA
exact mass=176.08728
ionization energy=70 eV
ion type=[M]+*
computed spectral entropy=2.9693503362935245
computed normalized entropy=0.7478921955733275
SPLASH=splash10-01b9-9800000000-ef0e18f8264da24d4b2e
submitter=submitter = University of Tokyo Team (Faculty of Engineering, University of Tokyo)
MoNA Rating=3.75

>  <NUM PEAKS>  (86) 
53

>  <MASS SPECTRAL PEAKS>  (86) 
28 1.2
29 4.1
31 11.9
42 2.3
43 39
44 4
45 20.2
46 1.4
54 2.1
56 2.3
57 2.8
58 5.1
59 42.4
60 2.8
61 1.4
69 6.1
70 2.1
71 3.4
73 99.99
74 7.8
75 3.5
81 1.7
83 1.9
84 2.8
85 7.3
86 2.1
87 4.3
97 1.1
99 4.7
100 1.8
101 19
102 8.6
103 4
113 1.5
115 6.1
116 86.7
117 80
118 16.1
119 5.4
121 1.5
129 1.2
131 2.9
145 1.5
157 1.2
159 3.1
160 3.7
161 12.1
162 3.2
163 1.4
175 2.3
176 8.1
177 1.8
178 1.2

>  <PREDICTED SPECTRUM>  (86) 
31 196
43 454
44 176
45 384
46 70
55 85
57 155
58 168
59 577
60 193
61 41
69 162
70 6
71 97
72 108
73 850
74 228
75 199
77 38
83 60
84 23
85 280
87 205
88 32
89 53
95 26
98 8
99 110
100 161
101 382
102 231
103 209
104 34
114 67
115 297
116 717
117 999
118 444
119 227
131 107
143 44
157 90
159 244
160 150
161 315
162 156
163 88
174 64
175 246
176 284
177 141
178 75

$$$$

     RDKit          2D

 12 11  0  0  0  0  0  0  0  0999 V2000
    6.9976    3.7231    0.0000 C   0  0  0  0  0  0  0  0  0  0  0  0
    7.5466    1.6740    0.0000 C   0  0  0  0  0  0  0  0  0  0  0  0
    0.5024    4.4731    0.0000 C   0  0  0  0  0  0  0  0  0  0  0  0
   -0.9976    1.8750    0.0000 C   0  0  0  0  0  0  0  0  0  0  0  0
    3.6495    2.4240    0.0000 C   0  0  0  0  0  0  0  0  0  0  0  0
    2.3505    3.1740    0.0000 C   0  0  0  0  0  0  0  0  0  0  0  0
    4.9486    3.1740    0.0000 C   0  0  0  0  0  0  0  0  0  0  0  0
    1.0514    2.4240    0.0000 C   0  0  0  0  0  0  0  0  0  0  0  0
    6.2476    2.4240    0.0000 Si  0  0  0  0  0  4  0  0  0  0  0  0
    5.4976    1.1250    0.0000 H   0  0  0  0  0  0  0  0  0  0  0  0
   -0.2476    3.1740    0.0000 Si  0  0  0  0  0  4  0  0  0  0  0  0
   -1.5466    3.9240    0.0000 H   0  0  0  0  0  0  0  0  0  0  0  0
  9 10  1  0
 11 12  1  0
  6  5  1  0
  7  5  1  0
  8  6  1  0
  9  1  1  0
  9  2  1  0
  9  7  1  0
 11  3  1  0
 11  4  1  0
 11  8  1  0
M  ISO  2  10   2  12   2
M  END
>  <NAME>  (87) 
1,4-BIS(DIMETHYLSILYL)BUTANE (D2)

>  <SYNONYMS>  (87) 


>  <SPECTRUM TYPE>  (87) 
MS1

>  <INSTRUMENT TYPE>  (87) 
EI-B

>  <INSTRUMENT>  (87) 
HITACHI RMU-6M

>  <ION MODE>  (87) 
P

>  <INCHIKEY>  (87) 
QLPZDSWCLQMGCV-QDRJLNDYSA-N

>  <FORMULA>  (87) 
C8H22Si2

>  <EXACT MASS>  (87) 
176.13855725599998

>  <MW>  (87) 
176

>  <ID>  (87) 
JP012024

>  <CONTRIBUTOR>  (87) 
University of Tokyo Team, {Faculty of Engineering, University of Tokyo

>  <COMMENT>  (87) 
SMILES=[2H][Si](C)(C)CCCC[Si]([2H])(C)C
InChI=InChI=1S/C8H22Si2/c1-9(2)7-5-6-8-10(3)4/h9-10H,5-8H2,1-4H3/i9D,10D
computed SMILES=[H][Si](C)(C)CCCC[Si]([H])(C)C
accession=JP012024
date=2016.01.19 (Created 2008.10.21, modified 2011.05.06)
author=YAMAMOTO M, DEP. CHEMISTRY, FAC. SCIENCE, NARA WOMEN'S UNIV.
license=CC BY-NC-SA
exact mass=174.126
ionization energy=70 eV
ion type=[M]+*
computed spectral entropy=3.0964008295806287
computed normalized entropy=0.813416171751926
SPLASH=splash10-03dr-9200000000-45225927a464a0bf18b9
submitter=submitter = University of Tokyo Team (Faculty of Engineering, University of Tokyo)
MoNA Rating=3.75

>  <NUM PEAKS>  (87) 
45

>  <MASS SPECTRAL PEAKS>  (87) 
27 1.2
28 2.7
31 7.8
32 4.9
43 13.5
44 7.6
45 6.9
46 6.7
55 1.9
57 2.4
58 10.2
59 44.6
60 99.99
61 9.7
62 3.2
71 4.4
72 5.5
73 15
74 2.4
85 3.6
86 24.8
87 4
88 40.2
89 3.8
90 1.5
97 3.9
98 3.2
99 34
100 11.1
101 3
113 3
114 14
115 2.7
116 7.3
117 1.3
145 2.6
146 9.7
147 2.2
157 1.9
158 2.3
161 10.5
162 1.9
174 3.5
175 5.7
176 3.6

>  <PREDICTED SPECTRUM>  (87) 
31 31
39 15
40 8
41 100
42 12
43 198
44 78
45 217
46 33
47 11
53 5
54 61
55 33
57 67
59 492
60 151
61 29
67 2
69 37
71 64
72 86
73 999
74 340
75 130
76 8
85 111
86 202
87 194
88 26
95 77
97 16
102 57
103 45
104 32
105 104
106 8
133 3
161 76
175 74
176 261
177 85
178 19

$$$$

     RDKit          2D

 10  9  0  0  0  0  0  0  0  0999 V2000
   -6.4952    4.5000    0.0000 C   0  0  0  0  0  0  0  0  0  0  0  0
   -5.1962    2.2500    0.0000 C   0  0  0  0  0  0  0  0  0  0  0  0
    2.5981    3.7500    0.0000 C   0  0  0  0  0  0  0  0  0  0  0  0
    1.2990    6.0000    0.0000 C   0  0  0  0  0  0  0  0  0  0  0  0
   -2.5981    3.7500    0.0000 C   0  0  0  0  0  0  0  0  0  0  0  0
   -1.2990    4.5000    0.0000 C   0  0  0  0  0  0  0  0  0  0  0  0
   -3.8971    4.5000    0.0000 C   0  0  0  0  0  0  0  0  0  0  0  0
    0.0000    3.7500    0.0000 C   0  0  0  0  0  0  0  0  0  0  0  0
   -5.1962    3.7500    0.0000 Si  0  0  0  0  0  4  0  0  0  0  0  0
    1.2990    4.5000    0.0000 Si  0  0  0  0  0  4  0  0  0  0  0  0
  6  5  1  0
  7  5  1  0
  8  6  1  0
  9  1  1  0
  9  2  1  0
  9  7  1  0
 10  3  1  0
 10  4  1  0
 10  8  1  0
M  END
>  <NAME>  (88) 
1,4-BIS(DIMETHYLSILYL)BUTANE

>  <SYNONYMS>  (88) 


>  <SPECTRUM TYPE>  (88) 
MS1

>  <INSTRUMENT TYPE>  (88) 
EI-B

>  <INSTRUMENT>  (88) 
HITACHI RMU-6M

>  <ION MODE>  (88) 
P

>  <INCHIKEY>  (88) 
QLPZDSWCLQMGCV-UHFFFAOYSA-N

>  <FORMULA>  (88) 
C8H22Si2

>  <EXACT MASS>  (88) 
174.12600376400002

>  <MW>  (88) 
174

>  <ID>  (88) 
JP012023

>  <CONTRIBUTOR>  (88) 
University of Tokyo Team, {Faculty of Engineering, University of Tokyo

>  <COMMENT>  (88) 
SMILES=C[SiH](C)CCCC[SiH](C)C
InChI=InChI=1S/C8H22Si2/c1-9(2)7-5-6-8-10(3)4/h9-10H,5-8H2,1-4H3
computed SMILES=C[SiH](C)CCCC[SiH](C)C
accession=JP012023
date=2016.01.19 (Created 2008.10.21, modified 2011.05.06)
author=YAMAMOTO M, DEP. CHEMISTRY, FAC. SCIENCE, NARA WOMEN'S UNIV.
license=CC BY-NC-SA
exact mass=174.126
ionization energy=70 eV
ion type=[M]+*
computed spectral entropy=2.8921865774142543
computed normalized entropy=0.7840284870758818
SPLASH=splash10-0a4i-9200000000-f8e0e027df2ccb96b5dd
submitter=submitter = University of Tokyo Team (Faculty of Engineering, University of Tokyo)
MoNA Rating=3.75

>  <NUM PEAKS>  (88) 
40

>  <MASS SPECTRAL PEAKS>  (88) 
28 1.4
29 2.3
31 8.8
41 1.4
43 13
44 3.2
45 8.6
55 1.9
57 3
58 8.1
59 99.99
60 6.7
61 3.5
71 5.1
72 6.3
73 9.7
74 1.4
85 3.7
86 16.4
87 28
88 2.9
97 3.7
98 2.3
99 31.9
100 3.4
101 1.4
112 1
113 3.4
114 10
115 6
116 3
117 1.3
144 9
145 1.6
157 3
159 7.4
160 1.2
173 5.8
174 4.4
175 1.6

>  <PREDICTED SPECTRUM>  (88) 
26 11
27 18
29 37
31 179
39 82
40 46
41 58
42 15
43 356
44 77
45 251
51 20
53 57
55 81
56 29
57 116
58 324
59 999
60 175
61 134
69 133
70 106
71 180
72 193
73 335
74 134
75 54
77 5
83 121
84 34
85 329
86 204
87 357
88 123
97 225
98 50
99 393
100 237
101 153
111 55
113 132
114 390
115 328
116 209
117 107
129 99
131 56
157 98
158 68
159 106
160 22
161 4
170 9
172 164
173 196
174 133
175 36

$$$$

     RDKit          2D

 17 16  0  0  0  0  0  0  0  0999 V2000
    5.9213    2.3941    0.0000 C   0  0  0  0  0  0  0  0  0  0  0  0
    5.3723    0.3451    0.0000 C   0  0  0  0  0  0  0  0  0  0  0  0
   -0.3577    5.7422    0.0000 C   0  0  0  0  0  0  0  0  0  0  0  0
   -0.3577    2.7422    0.0000 C   0  0  0  0  0  0  0  0  0  0  0  0
    1.8923    2.9432    0.0000 C   0  0  0  0  0  0  0  0  0  0  0  0
    0.4827    2.4302    0.0000 H   0  0  0  0  0  0  0  0  0  0  0  0
    2.1527    1.4660    0.0000 H   0  0  0  0  0  0  0  0  0  0  0  0
    3.8723    2.9432    0.0000 C   0  0  0  0  0  0  0  0  0  0  0  0
    5.2818    3.4562    0.0000 H   0  0  0  0  0  0  0  0  0  0  0  0
    3.6118    4.4204    0.0000 H   0  0  0  0  0  0  0  0  0  0  0  0
    1.1423    4.2422    0.0000 C   0  0  0  0  0  0  0  0  0  0  0  0
    2.5518    4.7552    0.0000 H   0  0  0  0  0  0  0  0  0  0  0  0
    0.8818    5.7194    0.0000 H   0  0  0  0  0  0  0  0  0  0  0  0
    4.6223    1.6441    0.0000 Si  0  0  0  0  0  4  0  0  0  0  0  0
    3.3232    0.8941    0.0000 H   0  0  0  0  0  0  0  0  0  0  0  0
   -0.3577    4.2422    0.0000 Si  0  0  0  0  0  4  0  0  0  0  0  0
   -1.8577    4.2422    0.0000 H   0  0  0  0  0  0  0  0  0  0  0  0
  5  6  1  0
  5  7  1  0
  8  9  1  0
  8 10  1  0
 11 12  1  0
 11 13  1  0
 14 15  1  0
 16 17  1  0
  8  5  1  0
 11  5  1  0
 14  1  1  0
 14  2  1  0
 14  8  1  0
 16  3  1  0
 16  4  1  0
 16 11  1  0
M  ISO  8   6   2   7   2   9   2  10   2  12   2  13   2  15   2  17   2
M  END
>  <NAME>  (89) 
1-DIMETHYLSILYL-3-DIMEHYLSILYLPROPANE (D8)

>  <SYNONYMS>  (89) 


>  <SPECTRUM TYPE>  (89) 
MS1

>  <INSTRUMENT TYPE>  (89) 
EI-B

>  <INSTRUMENT>  (89) 
HITACHI RMU-6M

>  <ION MODE>  (89) 
P

>  <INCHIKEY>  (89) 
NKDJYWYZEVYOLX-XZHXTBDASA-N

>  <FORMULA>  (89) 
C7H20Si2

>  <EXACT MASS>  (89) 
168.160567668

>  <MW>  (89) 
168

>  <ID>  (89) 
JP012022

>  <CONTRIBUTOR>  (89) 
University of Tokyo Team, {Faculty of Engineering, University of Tokyo

>  <COMMENT>  (89) 
SMILES=[2H]C([2H])(C([2H])([2H])[Si]([2H])(C)C)C([2H])([2H])[Si]([2H])(C)C
InChI=InChI=1S/C7H20Si2/c1-8(2)6-5-7-9(3)4/h8-9H,5-7H2,1-4H3/i5D2,6D2,7D2,8D,9D
computed SMILES=[H]C([H])(C([H])([H])[Si]([H])(C)C)C([H])([H])[Si]([H])(C)C
accession=JP012022
date=2016.01.19 (Created 2008.10.21, modified 2011.05.06)
author=YAMAMOTO M, DEP. CHEMISTRY, FAC. SCIENCE, NARA WOMEN'S UNIV.
license=CC BY-NC-SA
exact mass=160.11035
ionization energy=70 eV
ion type=[M]+*
computed spectral entropy=4.011360546553119
computed normalized entropy=0.8655005625442989
SPLASH=splash10-11or-9400000000-dd7182cc9100f8e42b28
submitter=submitter = University of Tokyo Team (Faculty of Engineering, University of Tokyo)
MoNA Rating=3.75

>  <NUM PEAKS>  (89) 
103

>  <MASS SPECTRAL PEAKS>  (89) 
28 1.5
29 4.8
30 6.3
31 12.3
32 9.3
33 3.1
34 17.3
39 2.7
41 2.3
42 2.7
43 27.4
44 15.7
45 9.4
46 34.2
47 6.1
48 8.3
49 6.9
50 1.9
53 1.5
54 1.1
55 3.1
56 2.1
57 4
58 11.9
59 43.8
60 86.7
61 13.2
62 6.9
63 25.3
64 15
65 7.3
66 99.99
67 9.2
68 4
69 2.3
71 1.9
72 46.4
73 8
74 6.1
75 2.7
76 20.1
77 5.8
78 46.4
79 25.1
80 5
81 1.9
82 1.1
83 1
84 1.5
85 14.6
86 31.7
87 9.2
88 23.6
89 30.9
90 8.8
91 5
92 1.1
93 9.6
94 9
98 2.7
99 5
100 57.1
101 10.6
102 9
103 5
104 3.1
105 6.9
106 54.5
107 10.7
108 8.6
109 1.9
110 1.5
118 1
119 1.9
120 3.6
121 4.6
122 15
123 8.3
124 10
125 5.9
134 3.3
135 1
136 6.5
137 7.5
138 2.3
139 4.4
140 1
146 1.5
147 1.9
148 1.3
149 2.3
150 36.7
151 6.9
152 4.4
153 40.2
154 7.3
155 3.6
163 2.3
164 12.6
165 17.3
166 17.6
167 3
168 6.1

>  <PREDICTED SPECTRUM>  (89) 
14 26
18 16
25 11
28 90
31 199
32 158
41 112
43 667
44 169
45 214
46 328
47 701
48 146
49 226
51 9
52 7
54 345
55 109
57 102
59 65
60 99
61 162
63 310
65 137
67 135
68 73
71 14
73 893
75 117
76 200
77 485
78 414
79 24
80 78
82 42
91 45
94 99
95 421
96 213
97 217
108 18
109 378
110 402
122 179
123 820
124 378
125 235
153 999
154 371
167 89
168 308

$$$$

     RDKit          2D

 15 14  0  0  0  0  0  0  0  0999 V2000
    2.4366    3.0097    0.0000 C   0  0  0  0  0  0  0  0  0  0  0  0
    1.1376    5.2597    0.0000 C   0  0  0  0  0  0  0  0  0  0  0  0
   -5.7733    3.2497    0.0000 C   0  0  0  0  0  0  0  0  0  0  0  0
   -4.4743    5.4997    0.0000 C   0  0  0  0  0  0  0  0  0  0  0  0
   -1.8762    3.9997    0.0000 C   0  0  0  0  0  0  0  0  0  0  0  0
   -0.9120    5.1487    0.0000 H   0  0  0  0  0  0  0  0  0  0  0  0
   -2.8404    5.1487    0.0000 H   0  0  0  0  0  0  0  0  0  0  0  0
   -0.1615    3.0097    0.0000 C   0  0  0  0  0  0  0  0  0  0  0  0
   -1.1256    1.8606    0.0000 H   0  0  0  0  0  0  0  0  0  0  0  0
    0.8027    1.8606    0.0000 H   0  0  0  0  0  0  0  0  0  0  0  0
   -3.1752    3.2497    0.0000 C   0  0  0  0  0  0  0  0  0  0  0  0
   -4.1394    2.1006    0.0000 H   0  0  0  0  0  0  0  0  0  0  0  0
   -2.2110    2.1006    0.0000 H   0  0  0  0  0  0  0  0  0  0  0  0
    1.1376    3.7597    0.0000 Si  0  0  0  0  0  4  0  0  0  0  0  0
   -4.4743    3.9997    0.0000 Si  0  0  0  0  0  4  0  0  0  0  0  0
  5  6  1  0
  5  7  1  0
  8  9  1  0
  8 10  1  0
 11 12  1  0
 11 13  1  0
  8  5  1  0
 11  5  1  0
 14  1  1  0
 14  2  1  0
 14  8  1  0
 15  3  1  0
 15  4  1  0
 15 11  1  0
M  ISO  6   6   2   7   2   9   2  10   2  12   2  13   2
M  END
>  <NAME>  (90) 
1-DIMETHYLSILYL-3-DIMETHYLSILYLPROPANE (D6)

>  <SYNONYMS>  (90) 


>  <SPECTRUM TYPE>  (90) 
MS1

>  <INSTRUMENT TYPE>  (90) 
EI-B

>  <INSTRUMENT>  (90) 
HITACHI RMU-6M

>  <ION MODE>  (90) 
P

>  <INCHIKEY>  (90) 
NKDJYWYZEVYOLX-IPSWUHLQSA-N

>  <FORMULA>  (90) 
C7H20Si2

>  <EXACT MASS>  (90) 
166.148014176

>  <MW>  (90) 
166

>  <ID>  (90) 
JP012021

>  <CONTRIBUTOR>  (90) 
University of Tokyo Team, {Faculty of Engineering, University of Tokyo

>  <COMMENT>  (90) 
SMILES=C[SiH](C)C([2H])([2H])C([2H])([2H])C([2H])([2H])[SiH](C)C
InChI=InChI=1S/C7H20Si2/c1-8(2)6-5-7-9(3)4/h8-9H,5-7H2,1-4H3/i5D2,6D2,7D2
computed SMILES=[H]C([H])([SiH](C)C)C([H])([H])C([H])([H])[SiH](C)C
accession=JP012021
date=2016.01.19 (Created 2008.10.21, modified 2011.05.06)
author=YAMAMOTO M, DEP. CHEMISTRY, FAC. SCIENCE, NARA WOMEN'S UNIV.
license=CC BY-NC-SA
exact mass=160.11035
ionization energy=70 eV
ion type=[M]+*
computed spectral entropy=3.8905472266809293
computed normalized entropy=0.8543373743495133
SPLASH=splash10-0pvr-9400000000-d26d56a9aa2397d5af8b
submitter=submitter = University of Tokyo Team (Faculty of Engineering, University of Tokyo)
MoNA Rating=3.75

>  <NUM PEAKS>  (90) 
95

>  <MASS SPECTRAL PEAKS>  (90) 
27 1.2
28 5.2
29 6.6
30 4.4
31 12.3
32 2.2
33 7.6
34 7.4
39 2.6
41 2.4
42 2.4
43 27.1
44 9
45 13.9
46 19.3
47 3.8
48 8.2
49 2.8
53 2.4
55 3.2
56 1.2
57 5.6
58 14.7
59 96.4
60 10
61 11.7
62 23.9
63 4.8
64 8
65 99.99
66 8
67 4.4
69 2
71 2.8
72 34.7
73 8.8
74 3
75 2.4
76 22.9
77 3.6
78 37.7
79 26.3
80 2.8
81 1.2
82 1
83 1.1
84 1.1
85 37.1
86 5.4
87 11.8
88 37.5
89 5
90 2.4
91 3.6
93 7.4
98 1.2
99 5.6
100 43.4
101 12.4
102 9.2
103 2.8
104 3.6
105 7.4
106 38.3
107 11.9
108 3.2
109 2.2
118 2
119 1.6
120 5.4
121 3.2
122 11.1
123 13.6
124 2.4
125 1.6
132 1.2
134 3.2
135 1
136 8.6
137 5.2
138 1.4
139 3
146 2.6
147 1.6
148 30.7
149 8.8
150 4.8
151 34.7
152 6.6
153 2.8
163 1.8
164 15.1
165 27.1
166 9.2
167 2.8

>  <PREDICTED SPECTRUM>  (90) 
26 40
28 4
29 62
31 101
36 50
39 45
40 6
42 67
43 148
45 87
46 38
48 14
49 17
50 67
51 53
52 10
53 56
54 46
55 45
59 999
61 199
63 198
64 73
67 66
68 33
69 94
70 62
71 202
72 254
73 463
74 242
75 367
76 178
77 436
78 106
79 299
80 72
81 60
82 90
87 36
88 179
91 108
92 69
93 146
94 47
95 39
101 78
102 7
105 114
106 215
107 138
108 253
109 75
113 43
120 31
121 39
122 7
123 10
133 179
135 108
136 18
137 0
145 208
147 232
148 277
149 195
150 219
151 363
152 205
153 156
154 87
162 56
163 88
164 137
165 228
166 335
167 117
168 97

$$$$

     RDKit          2D

 14 13  0  0  0  0  0  0  0  0999 V2000
    4.6740    1.6005    0.0000 C   0  0  0  0  0  0  0  0  0  0  0  0
    4.1250   -0.4486    0.0000 C   0  0  0  0  0  0  0  0  0  0  0  0
    1.6740    4.1986    0.0000 C   0  0  0  0  0  0  0  0  0  0  0  0
   -0.9240    2.6986    0.0000 C   0  0  0  0  0  0  0  0  0  0  0  0
    2.6250    2.1495    0.0000 C   0  0  0  0  0  0  0  0  0  0  0  0
    4.0345    2.6625    0.0000 H   0  0  0  0  0  0  0  0  0  0  0  0
    2.3645    3.6267    0.0000 H   0  0  0  0  0  0  0  0  0  0  0  0
    1.1250    2.1495    0.0000 C   0  0  0  0  0  0  0  0  0  0  0  0
   -0.2845    1.6365    0.0000 H   0  0  0  0  0  0  0  0  0  0  0  0
    1.3855    0.6723    0.0000 H   0  0  0  0  0  0  0  0  0  0  0  0
    3.3750    0.8505    0.0000 Si  0  0  0  0  0  4  0  0  0  0  0  0
    2.0760    0.1005    0.0000 H   0  0  0  0  0  0  0  0  0  0  0  0
    0.3750    3.4486    0.0000 Si  0  0  0  0  0  4  0  0  0  0  0  0
   -0.3750    4.7476    0.0000 H   0  0  0  0  0  0  0  0  0  0  0  0
  5  6  1  0
  5  7  1  0
  8  9  1  0
  8 10  1  0
 11 12  1  0
 13 14  1  0
  8  5  1  0
 11  1  1  0
 11  2  1  0
 11  5  1  0
 13  3  1  0
 13  4  1  0
 13  8  1  0
M  ISO  6   6   2   7   2   9   2  10   2  12   2  14   2
M  END
>  <NAME>  (91) 
1,2-BIS(DIMETHYLSILYL)ETHANE (D6)

>  <SYNONYMS>  (91) 


>  <SPECTRUM TYPE>  (91) 
MS1

>  <INSTRUMENT TYPE>  (91) 
EI-B

>  <INSTRUMENT>  (91) 
HITACHI RMU-6M

>  <ION MODE>  (91) 
P

>  <INCHIKEY>  (91) 
YZJSARUCMYJHNV-QNBRLEJZSA-N

>  <FORMULA>  (91) 
C6H18Si2

>  <EXACT MASS>  (91) 
152.132364112

>  <MW>  (91) 
152

>  <ID>  (91) 
JP012020

>  <CONTRIBUTOR>  (91) 
University of Tokyo Team, {Faculty of Engineering, University of Tokyo

>  <COMMENT>  (91) 
SMILES=[2H]C([2H])([Si]([2H])(C)C)C([2H])([2H])[Si]([2H])(C)C
InChI=InChI=1S/C6H18Si2/c1-7(2)5-6-8(3)4/h7-8H,5-6H2,1-4H3/i5D2,6D2,7D,8D
computed SMILES=[H]C([H])(C([H])([H])[Si]([H])(C)C)[Si]([H])(C)C
accession=JP012020
date=2016.01.19 (Created 2008.10.21, modified 2011.05.06)
author=YAMAMOTO M, DEP. CHEMISTRY, FAC. SCIENCE, NARA WOMEN'S UNIV.
license=CC BY-NC-SA
exact mass=146.0947
ionization energy=70 eV
ion type=[M]+*
computed spectral entropy=2.9459590658153023
computed normalized entropy=0.7784913946727796
SPLASH=splash10-06r6-9200000000-f89922c3e03e786e09a3
submitter=submitter = University of Tokyo Team (Faculty of Engineering, University of Tokyo)
MoNA Rating=3.75

>  <NUM PEAKS>  (91) 
44

>  <MASS SPECTRAL PEAKS>  (91) 
28 2.7
29 3.9
30 1.6
31 8.4
32 6.9
42 1.3
43 21.1
44 7.8
45 7.1
46 3.6
47 6.5
56 1.1
57 1.6
58 30.9
59 5.6
60 99.99
61 9.1
62 4.2
73 14.3
74 3.1
75 14.2
76 2.4
77 6.5
86 1.3
88 4.4
89 4.4
90 90.2
91 9.3
92 10
103 3.8
104 1.8
105 31.1
106 4
107 2.2
116 6.7
117 1.5
118 4.5
120 1.1
137 19.3
138 2.5
139 1.3
150 4.4
152 7.1
153 1.1

>  <PREDICTED SPECTRUM>  (91) 
28 34
31 7
32 76
39 77
43 80
45 46
46 97
47 299
48 116
49 96
53 20
54 159
55 45
57 109
59 245
60 137
61 212
62 16
63 10
64 58
73 741
74 111
75 244
76 145
78 7
79 2
80 40
92 2
93 112
94 132
105 14
106 22
107 272
108 138
109 203
121 50
122 52
131 73
136 60
137 999
138 298
139 166
152 287
153 36

$$$$

     RDKit          2D

 14 13  0  0  0  0  0  0  0  0999 V2000
    4.6740    1.6005    0.0000 C   0  0  0  0  0  0  0  0  0  0  0  0
    2.0760    0.1005    0.0000 C   0  0  0  0  0  0  0  0  0  0  0  0
    4.1250   -0.4486    0.0000 C   0  0  0  0  0  0  0  0  0  0  0  0
    1.6740    4.1986    0.0000 C   0  0  0  0  0  0  0  0  0  0  0  0
   -0.3750    4.7476    0.0000 C   0  0  0  0  0  0  0  0  0  0  0  0
   -0.9240    2.6986    0.0000 C   0  0  0  0  0  0  0  0  0  0  0  0
    2.6250    2.1495    0.0000 C   0  0  0  0  0  0  0  0  0  0  0  0
    4.0345    2.6625    0.0000 H   0  0  0  0  0  0  0  0  0  0  0  0
    2.3645    3.6267    0.0000 H   0  0  0  0  0  0  0  0  0  0  0  0
    1.1250    2.1495    0.0000 C   0  0  0  0  0  0  0  0  0  0  0  0
   -0.2845    1.6365    0.0000 H   0  0  0  0  0  0  0  0  0  0  0  0
    1.3855    0.6723    0.0000 H   0  0  0  0  0  0  0  0  0  0  0  0
    3.3750    0.8505    0.0000 Si  0  0  0  0  0  4  0  0  0  0  0  0
    0.3750    3.4486    0.0000 Si  0  0  0  0  0  4  0  0  0  0  0  0
  7  8  1  0
  7  9  1  0
 10 11  1  0
 10 12  1  0
 10  7  1  0
 13  1  1  0
 13  2  1  0
 13  3  1  0
 13  7  1  0
 14  4  1  0
 14  5  1  0
 14  6  1  0
 14 10  1  0
M  ISO  4   8   2   9   2  11   2  12   2
M  END
>  <NAME>  (92) 
1,2-BIS(TRIMETHYLSILYL)ETHANE (1,1,2,2-D4)

>  <SYNONYMS>  (92) 


>  <SPECTRUM TYPE>  (92) 
MS1

>  <INSTRUMENT TYPE>  (92) 
EI-B

>  <INSTRUMENT>  (92) 
HITACHI RMU-6M

>  <ION MODE>  (92) 
P

>  <INCHIKEY>  (92) 
DMKCEJPDZDUPDV-OSEHSPPNSA-N

>  <FORMULA>  (92) 
C8H22Si2

>  <EXACT MASS>  (92) 
178.151110748

>  <MW>  (92) 
178

>  <ID>  (92) 
JP012019

>  <CONTRIBUTOR>  (92) 
University of Tokyo Team, {Faculty of Engineering, University of Tokyo

>  <COMMENT>  (92) 
SMILES=C[Si](C)(C)C([2H])([2H])C([2H])([2H])[Si](C)(C)C
InChI=InChI=1S/C8H22Si2/c1-9(2,3)7-8-10(4,5)6/h7-8H2,1-6H3/i7D2,8D2
computed SMILES=[H]C([H])(C([H])([H])[Si](C)(C)C)[Si](C)(C)C
accession=JP012019
date=2016.01.19 (Created 2008.10.21, modified 2011.05.06)
author=YAMAMOTO M, DEP. CHEMISTRY, FAC. SCIENCE, NARA WOMEN'S UNIV.
license=CC BY-NC-SA
exact mass=174.126
ionization energy=70 eV
ion type=[M]+*
computed spectral entropy=2.6077998332708052
computed normalized entropy=0.7458298852289799
SPLASH=splash10-00di-9100000000-6d62ca7ecaa88aad5f15
submitter=submitter = University of Tokyo Team (Faculty of Engineering, University of Tokyo)
MoNA Rating=3.75

>  <NUM PEAKS>  (92) 
33

>  <MASS SPECTRAL PEAKS>  (92) 
27 1.9
28 5.2
29 3.1
31 7.8
32 1.3
43 7.3
44 2.9
45 15.1
46 1.8
47 1
57 1.3
58 10.5
59 5.8
60 5.7
72 1.9
73 99.99
74 10.9
75 3.6
88 15.1
89 2.3
90 23
91 2.3
92 1
115 1.3
131 10.9
132 1.8
133 1
163 13.4
164 2.6
165 1.3
178 11
179 2.3
180 1

>  <PREDICTED SPECTRUM>  (92) 
29 31
31 79
32 1
42 80
43 425
44 19
45 377
46 81
47 65
54 17
55 121
56 27
57 113
58 69
59 423
60 116
61 132
71 292
72 97
73 999
74 275
75 437
76 100
77 130
85 61
86 64
87 148
88 87
89 175
90 42
91 85
100 102
101 59
102 40
103 13
104 19
105 62
106 14
117 34
119 82
120 34
130 53
131 289
133 49
147 104
161 6
163 396
164 156
165 125
178 20

$$$$

     RDKit          2D

 10  9  0  0  0  0  0  0  0  0999 V2000
    1.3260   -0.6495    0.0000 C   0  0  0  0  0  0  0  0  0  0  0  0
   -0.1740    1.9486    0.0000 C   0  0  0  0  0  0  0  0  0  0  0  0
   -0.7231   -0.1005    0.0000 C   0  0  0  0  0  0  0  0  0  0  0  0
    3.9240    2.3505    0.0000 C   0  0  0  0  0  0  0  0  0  0  0  0
    4.4731    4.3995    0.0000 C   0  0  0  0  0  0  0  0  0  0  0  0
    2.4240    4.9486    0.0000 C   0  0  0  0  0  0  0  0  0  0  0  0
    1.8750    1.3995    0.0000 C   0  0  0  0  0  0  0  0  0  0  0  0
    1.8750    2.8995    0.0000 C   0  0  0  0  0  0  0  0  0  0  0  0
    0.5760    0.6495    0.0000 Si  0  0  0  0  0  4  0  0  0  0  0  0
    3.1740    3.6495    0.0000 Si  0  0  0  0  0  4  0  0  0  0  0  0
  8  7  1  0
  9  1  1  0
  9  2  1  0
  9  3  1  0
  9  7  1  0
 10  4  1  0
 10  5  1  0
 10  6  1  0
 10  8  1  0
M  END
>  <NAME>  (93) 
1,2-BIS(TRIMETHYLSILYL)ETHANE

>  <SYNONYMS>  (93) 


>  <SPECTRUM TYPE>  (93) 
MS1

>  <INSTRUMENT TYPE>  (93) 
EI-B

>  <INSTRUMENT>  (93) 
HITACHI RMU-6M

>  <ION MODE>  (93) 
P

>  <INCHIKEY>  (93) 
DMKCEJPDZDUPDV-UHFFFAOYSA-N

>  <FORMULA>  (93) 
C8H22Si2

>  <EXACT MASS>  (93) 
174.126003764

>  <MW>  (93) 
174

>  <ID>  (93) 
JP012018

>  <CONTRIBUTOR>  (93) 
University of Tokyo Team, {Faculty of Engineering, University of Tokyo

>  <COMMENT>  (93) 
SMILES=C[Si](C)(C)CC[Si](C)(C)C
InChI=InChI=1S/C8H22Si2/c1-9(2,3)7-8-10(4,5)6/h7-8H2,1-6H3
computed SMILES=C[Si](C)(C)CC[Si](C)(C)C
accession=JP012018
date=2016.01.19 (Created 2008.10.21, modified 2011.05.06)
author=YAMAMOTO M, DEP. CHEMISTRY, FAC. SCIENCE, NARA WOMEN'S UNIV.
license=CC BY-NC-SA
exact mass=174.126
ionization energy=70 eV
ion type=[M]+*
computed spectral entropy=2.4349779645829637
computed normalized entropy=0.7564684371391263
SPLASH=splash10-00di-9100000000-91102352c09056b869dc
submitter=submitter = University of Tokyo Team (Faculty of Engineering, University of Tokyo)
MoNA Rating=3.75

>  <NUM PEAKS>  (93) 
25

>  <MASS SPECTRAL PEAKS>  (93) 
28 1.9
29 3.6
31 2.6
43 8
44 3.8
45 14.9
55 1.9
57 2
58 10.7
59 9.2
72 3
73 99.99
74 9.6
75 4.1
85 16.2
86 26.6
87 4.7
88 1.8
131 8.6
159 11.4
160 4.1
161 1.8
174 11
175 2.1
176 1

>  <PREDICTED SPECTRUM>  (93) 
43 90
44 68
45 92
58 43
59 274
71 108
72 131
73 999
74 235
75 104
85 169
86 45
100 2
131 197
132 20
145 286
159 226
160 52
174 322
175 71
176 9

$$$$

     RDKit          2D

 12 11  0  0  0  0  0  0  0  0999 V2000
    1.9486    2.6250    0.0000 C   0  0  0  0  0  0  0  0  0  0  0  0
    1.7919    1.7364    0.0000 C   0  0  0  0  0  0  0  0  0  0  0  0
   -4.5466    3.3750    0.0000 C   0  0  0  0  0  0  0  0  0  0  0  0
   -4.3900    4.2636    0.0000 C   0  0  0  0  0  0  0  0  0  0  0  0
    0.6495    3.3750    0.0000 C   0  0  0  0  0  0  0  0  0  0  0  0
    0.3147    1.4759    0.0000 C   0  0  0  0  0  0  0  0  0  0  0  0
   -3.2476    2.6250    0.0000 C   0  0  0  0  0  0  0  0  0  0  0  0
   -2.9127    4.5241    0.0000 C   0  0  0  0  0  0  0  0  0  0  0  0
   -0.6495    2.6250    0.0000 Si  0  0  0  0  0  4  0  0  0  0  0  0
   -1.6137    1.4759    0.0000 H   0  0  0  0  0  0  0  0  0  0  0  0
   -1.9486    3.3750    0.0000 Si  0  0  0  0  0  4  0  0  0  0  0  0
   -0.9844    4.5241    0.0000 H   0  0  0  0  0  0  0  0  0  0  0  0
  9 10  1  0
 11 12  1  0
  5  1  1  0
  6  2  1  0
  7  3  1  0
  8  4  1  0
  9  5  1  0
  9  6  1  0
 11  7  1  0
 11  8  1  0
 11  9  1  0
M  ISO  2  10   2  12   2
M  END
>  <NAME>  (94) 
1,1,2,2-TETRAETHYLDISILANE (1,2-D2)

>  <SYNONYMS>  (94) 


>  <SPECTRUM TYPE>  (94) 
MS1

>  <INSTRUMENT TYPE>  (94) 
EI-B

>  <INSTRUMENT>  (94) 
HITACHI RMU-6M

>  <ION MODE>  (94) 
P

>  <INCHIKEY>  (94) 
IIXGTNXLTMXDDF-QDRJLNDYSA-N

>  <FORMULA>  (94) 
C8H22Si2

>  <EXACT MASS>  (94) 
176.13855725599998

>  <MW>  (94) 
176

>  <ID>  (94) 
JP012017

>  <CONTRIBUTOR>  (94) 
University of Tokyo Team, {Faculty of Engineering, University of Tokyo

>  <COMMENT>  (94) 
SMILES=CC[Si]([2H])(CC)[Si]([2H])(CC)CC
InChI=InChI=1S/C8H22Si2/c1-5-9(6-2)10(7-3)8-4/h9-10H,5-8H2,1-4H3/i9D,10D
computed SMILES=[H][Si](CC)(CC)[Si]([H])(CC)CC
computed spectral entropy=3.2929918674778555
accession=JP012017
date=2016.01.19 (Created 2008.10.21, modified 2011.05.06)
author=YAMAMOTO M, DEP. CHEMISTRY, FAC. SCIENCE, NARA WOMEN'S UNIV.
license=CC BY-NC-SA
exact mass=174.126
ionization energy=70 eV
ion type=[M]+*
computed normalized entropy=0.8010442490528884
SPLASH=splash10-052r-9100000000-929842a56c5c9681f670
submitter=submitter = University of Tokyo Team (Faculty of Engineering, University of Tokyo)
MoNA Rating=3.75

>  <NUM PEAKS>  (94) 
61

>  <MASS SPECTRAL PEAKS>  (94) 
27 3.8
28 4.8
29 12
30 1.9
31 16.9
32 12.5
33 1.5
42 1
43 13.3
44 7.3
45 5.5
46 4.4
47 1
53 2.6
55 7.9
56 7
57 22
58 82.1
59 47.6
60 64.3
61 7.9
62 9.9
63 5.1
69 2.4
70 1.4
71 1.5
72 1.7
73 1.4
74 1.4
75 1.7
76 1
77 1.2
81 1.2
83 1.4
84 1.9
85 3.4
86 99.99
87 42.9
88 77.4
89 16.2
90 26.2
91 30.4
92 4.8
93 1.9
105 1.5
114 3.4
115 18.1
116 2.4
117 8.9
118 10.9
119 33.3
120 5.1
121 2.4
145 3.1
146 1.4
147 25
148 4.8
149 1.7
176 13.7
177 2.4
178 1.2

>  <PREDICTED SPECTRUM>  (94) 
45 8
46 45
47 22
49 235
54 103
55 11
58 129
59 915
60 299
61 224
62 40
63 231
64 198
65 13
77 296
78 168
79 62
87 378
88 182
89 576
90 210
91 479
92 188
93 216
105 0
117 91
118 49
119 744
120 258
121 54
147 999
148 228
149 183
176 195
177 17

$$$$

     RDKit          2D

 10  9  0  0  0  0  0  0  0  0999 V2000
   -3.2476    0.3750    0.0000 C   0  0  0  0  0  0  0  0  0  0  0  0
   -4.5466    2.6250    0.0000 C   0  0  0  0  0  0  0  0  0  0  0  0
    0.6495    5.6250    0.0000 C   0  0  0  0  0  0  0  0  0  0  0  0
    1.9486    3.3750    0.0000 C   0  0  0  0  0  0  0  0  0  0  0  0
   -1.9486    1.1250    0.0000 C   0  0  0  0  0  0  0  0  0  0  0  0
   -3.2476    3.3750    0.0000 C   0  0  0  0  0  0  0  0  0  0  0  0
   -0.6495    4.8750    0.0000 C   0  0  0  0  0  0  0  0  0  0  0  0
    0.6495    2.6250    0.0000 C   0  0  0  0  0  0  0  0  0  0  0  0
   -1.9486    2.6250    0.0000 Si  0  0  0  0  0  4  0  0  0  0  0  0
   -0.6495    3.3750    0.0000 Si  0  0  0  0  0  4  0  0  0  0  0  0
  5  1  1  0
  6  2  1  0
  7  3  1  0
  8  4  1  0
  9  5  1  0
  9  6  1  0
 10  7  1  0
 10  8  1  0
 10  9  1  0
M  END
>  <NAME>  (95) 
1,1,2,2-TETRAETHYLDISILANE

>  <SYNONYMS>  (95) 


>  <SPECTRUM TYPE>  (95) 
MS1

>  <INSTRUMENT TYPE>  (95) 
EI-B

>  <INSTRUMENT>  (95) 
HITACHI RMU-6M

>  <ION MODE>  (95) 
P

>  <INCHIKEY>  (95) 
IIXGTNXLTMXDDF-UHFFFAOYSA-N

>  <FORMULA>  (95) 
C8H22Si2

>  <EXACT MASS>  (95) 
174.12600376400002

>  <MW>  (95) 
174

>  <ID>  (95) 
JP012016

>  <CONTRIBUTOR>  (95) 
University of Tokyo Team, {Faculty of Engineering, University of Tokyo

>  <COMMENT>  (95) 
SMILES=CC[SiH](CC)[SiH](CC)CC
InChI=InChI=1S/C8H22Si2/c1-5-9(6-2)10(7-3)8-4/h9-10H,5-8H2,1-4H3
computed SMILES=CC[SiH](CC)[SiH](CC)CC
accession=JP012016
date=2016.01.19 (Created 2008.10.21, modified 2011.05.06)
author=YAMAMOTO M, DEP. CHEMISTRY, FAC. SCIENCE, NARA WOMEN'S UNIV.
license=CC BY-NC-SA
exact mass=174.126
ionization energy=70 eV
ion type=[M]+*
computed spectral entropy=3.1583582071774146
computed normalized entropy=0.7954977306320304
SPLASH=splash10-052r-9200000000-1a379a05074104f6ace9
submitter=submitter = University of Tokyo Team (Faculty of Engineering, University of Tokyo)
MoNA Rating=3.75

>  <NUM PEAKS>  (95) 
53

>  <MASS SPECTRAL PEAKS>  (95) 
26 1.1
27 3.8
28 3.9
29 12.5
30 1.9
31 28.1
32 2.2
42 1
43 18.2
44 2.2
45 9.3
53 3.1
55 9.9
56 6.5
57 31.8
58 68.2
59 86.4
60 10.1
61 12.1
62 1.5
63 1
68 4.5
69 1.5
71 3.4
72 1.2
73 2.9
74 1
75 1.9
81 2.2
83 2.9
84 1.7
85 7.9
86 99.99
87 86.4
88 17.8
89 49.8
90 6.9
91 3.8
103 1.4
114 3.4
115 18
116 10.8
117 42
118 6.9
119 3.1
144 4.5
145 25.4
146 4.8
147 2.2
173 2.2
174 51.1
175 9.8
176 4.5

>  <PREDICTED SPECTRUM>  (95) 
14 24
15 22
25 32
26 263
27 542
28 432
29 635
30 241
31 244
32 19
36 1
38 54
39 305
40 162
41 376
42 225
43 384
44 197
45 213
46 1
47 54
50 94
51 152
52 135
53 294
54 225
55 278
56 237
57 629
58 414
59 527
60 367
61 273
62 296
63 187
65 134
68 108
69 255
70 235
71 332
72 316
73 249
74 135
75 95
76 53
77 68
78 33
83 25
84 183
85 498
86 694
87 558
88 395
89 408
90 155
91 251
93 121
99 142
100 165
101 253
102 192
103 291
104 190
105 179
111 51
112 53
113 427
114 533
115 616
116 776
117 999
118 587
119 296
120 34
129 161
130 47
131 100
132 56
141 113
143 157
144 469
145 727
146 312
147 271
159 98
160 7
171 108
172 297
173 340
174 613
175 229
176 78

$$$$

     RDKit          2D

 10  9  0  0  0  0  0  0  0  0999 V2000
   -0.0775    4.0652    0.0000 C   0  0  0  0  0  0  0  0  0  0  0  0
   -3.9747    1.8152    0.0000 C   0  0  0  0  0  0  0  0  0  0  0  0
   -1.5615   -0.2980    0.0000 C   0  0  0  0  0  0  0  0  0  0  0  0
    0.7367    1.6303    0.0000 C   0  0  0  0  0  0  0  0  0  0  0  0
   -0.0775    2.5652    0.0000 C   0  0  0  0  0  0  0  0  0  0  0  0
   -2.6756    2.5652    0.0000 C   0  0  0  0  0  0  0  0  0  0  0  0
   -0.4124    0.6662    0.0000 Si  0  0  0  0  0  4  0  0  0  0  0  0
    0.5518   -0.4829    0.0000 H   0  0  0  0  0  0  0  0  0  0  0  0
   -1.3766    1.8152    0.0000 Si  0  0  0  0  0  4  0  0  0  0  0  0
   -2.3408    0.6662    0.0000 H   0  0  0  0  0  0  0  0  0  0  0  0
  7  8  1  0
  9 10  1  0
  5  1  1  0
  6  2  1  0
  7  3  1  0
  7  4  1  0
  9  5  1  0
  9  6  1  0
  9  7  1  0
M  ISO  2   8   2  10   2
M  END
>  <NAME>  (96) 
1,1-DIETHYL-2,2-DIMETHYLDISILANE (1,2-D2)

>  <SYNONYMS>  (96) 


>  <SPECTRUM TYPE>  (96) 
MS1

>  <INSTRUMENT TYPE>  (96) 
EI-B

>  <INSTRUMENT>  (96) 
HITACHI

>  <ION MODE>  (96) 
P

>  <INCHIKEY>  (96) 
OONIWCFTRWGZGX-QTQOOCSTSA-N

>  <FORMULA>  (96) 
C6H18Si2

>  <EXACT MASS>  (96) 
148.107257128

>  <MW>  (96) 
148

>  <ID>  (96) 
JP012015

>  <CONTRIBUTOR>  (96) 
University of Tokyo Team, {Faculty of Engineering, University of Tokyo

>  <COMMENT>  (96) 
SMILES=CC[Si]([2H])(CC)[Si]([2H])(C)C
InChI=InChI=1S/C6H18Si2/c1-5-8(6-2)7(3)4/h7-8H,5-6H2,1-4H3/i7D,8D
computed SMILES=[H][Si](C)(C)[Si]([H])(CC)CC
accession=JP012015
date=2016.01.19 (Created 2008.10.21, modified 2011.05.06)
author=YAMAMOTO M, DEP. CHEMISTRY, FAC. SCIENCE, NARA WOMEN'S UNIV.
license=CC BY-NC-SA
exact mass=146.0947
ionization energy=70 eV
ion type=[M]+*
computed spectral entropy=3.355027490994083
computed normalized entropy=0.8067135872172175
SPLASH=splash10-06rl-9100000000-4d54298bbd1cdfc104fb
submitter=submitter = University of Tokyo Team (Faculty of Engineering, University of Tokyo)
MoNA Rating=3.75

>  <NUM PEAKS>  (96) 
64

>  <MASS SPECTRAL PEAKS>  (96) 
27 5.5
28 4.9
29 15
30 4.1
31 17.1
32 14.6
33 1.5
39 1.1
41 2.6
42 2.6
43 41
44 13.8
45 14.6
46 14.1
47 3.3
54 4.1
55 1.2
56 7.2
57 5.5
58 91.9
59 51.6
60 99.99
61 7.7
62 2.7
69 6.9
70 4.5
71 5.3
72 5.6
73 9.3
74 3.5
75 5.7
76 7.5
77 4.9
78 1.2
83 1.2
84 1.6
85 3.6
86 99.1
87 27.9
88 53.1
89 15.4
90 21.1
91 28.6
92 5.7
93 1.9
101 8.5
102 1.5
103 5.3
104 4
105 10.2
106 1.3
107 1.5
117 2.9
118 1.5
119 9.3
120 2.1
131 2.7
133 4.5
134 1.1
135 1.1
146 1.5
148 38.9
149 7.9
150 4.1

>  <PREDICTED SPECTRUM>  (96) 
31 48
40 21
41 40
42 94
43 191
44 134
45 312
46 114
47 243
49 87
50 1
51 81
52 51
53 128
55 150
59 691
60 207
61 242
62 65
63 37
65 20
66 74
73 968
74 377
75 650
76 213
77 245
78 81
87 332
88 0
89 63
90 26
91 358
92 91
93 95
103 376
104 87
105 128
106 37
119 999
120 281
121 158
133 220
134 7
148 130
149 27

$$$$

     RDKit          2D

  8  7  0  0  0  0  0  0  0  0999 V2000
    0.9743    2.8125    0.0000 C   0  0  0  0  0  0  0  0  0  0  0  0
   -4.2219    2.8125    0.0000 C   0  0  0  0  0  0  0  0  0  0  0  0
   -0.3248    0.5625    0.0000 C   0  0  0  0  0  0  0  0  0  0  0  0
   -2.9228    0.5625    0.0000 C   0  0  0  0  0  0  0  0  0  0  0  0
   -0.3248    3.5625    0.0000 C   0  0  0  0  0  0  0  0  0  0  0  0
   -2.9228    3.5625    0.0000 C   0  0  0  0  0  0  0  0  0  0  0  0
   -1.6238    1.3125    0.0000 Si  0  0  0  0  0  4  0  0  0  0  0  0
   -1.6238    2.8125    0.0000 Si  0  0  0  0  0  4  0  0  0  0  0  0
  5  1  1  0
  6  2  1  0
  7  3  1  0
  7  4  1  0
  8  5  1  0
  8  6  1  0
  8  7  1  0
M  END
>  <NAME>  (97) 
1,1-DIETHYL-2,2-DIMETHYLDISILANE

>  <SYNONYMS>  (97) 


>  <SPECTRUM TYPE>  (97) 
MS1

>  <INSTRUMENT TYPE>  (97) 
EI-B

>  <INSTRUMENT>  (97) 
HITACHI RMU-6M

>  <ION MODE>  (97) 
P

>  <INCHIKEY>  (97) 
OONIWCFTRWGZGX-UHFFFAOYSA-N

>  <FORMULA>  (97) 
C6H18Si2

>  <EXACT MASS>  (97) 
146.094703636

>  <MW>  (97) 
146

>  <ID>  (97) 
JP012014

>  <CONTRIBUTOR>  (97) 
University of Tokyo Team, {Faculty of Engineering, University of Tokyo

>  <COMMENT>  (97) 
SMILES=CC[SiH](CC)[SiH](C)C
InChI=InChI=1S/C6H18Si2/c1-5-8(6-2)7(3)4/h7-8H,5-6H2,1-4H3
computed SMILES=CC[SiH](CC)[SiH](C)C
accession=JP012014
date=2016.01.19 (Created 2008.10.21, modified 2011.05.06)
author=YAMAMOTO M, DEP. CHEMISTRY, FAC. SCIENCE, NARA WOMEN'S UNIV.
license=CC BY-NC-SA
exact mass=146.0947
ionization energy=70 eV
ion type=[M]+*
computed spectral entropy=3.270960197807397
computed normalized entropy=0.802190106848968
SPLASH=splash10-0a4r-9100000000-41867fd19898c85dfdfb
submitter=submitter = University of Tokyo Team (Faculty of Engineering, University of Tokyo)
MoNA Rating=3.75

>  <NUM PEAKS>  (97) 
59

>  <MASS SPECTRAL PEAKS>  (97) 
27 4.6
28 4.4
29 14.2
30 1
31 23.2
32 1.4
39 1
41 2.9
42 2.9
43 40.3
44 4.5
45 22.9
46 1.3
53 3.4
54 1.4
55 6.6
56 3.9
57 15
58 66.2
59 99.99
60 8.7
61 2.6
69 7.3
70 2.8
71 7.2
72 3.4
73 9.5
74 4.2
75 7.2
81 2.4
83 2.3
84 1.2
85 6.5
86 76.2
87 53.8
88 11.8
89 42.1
90 6.8
91 3.5
99 1.4
101 7.9
102 5.1
103 10.7
104 1.6
105 4.3
107 4.9
116 2.8
117 10.5
118 1.9
119 2.3
130 2.8
131 4.4
132 1.1
133 2.9
135 2.7
145 3.1
146 29.3
147 6.1
148 3.3

>  <PREDICTED SPECTRUM>  (97) 
25 5
26 115
27 214
28 160
29 255
30 49
31 331
37 3
38 14
39 105
40 23
41 191
42 158
43 657
44 336
45 510
46 149
47 103
50 4
51 49
52 68
53 182
54 79
55 252
56 180
57 486
58 825
59 999
60 369
61 256
62 39
63 96
65 118
66 65
67 107
68 17
69 209
70 141
71 440
72 359
73 564
74 235
75 346
76 73
78 11
84 83
85 415
86 924
87 938
88 612
89 859
90 289
91 202
101 313
102 170
103 251
104 73
105 162
115 42
116 167
117 510
118 274
119 199
131 179
132 89
133 59
145 180
146 653
147 300
148 176

$$$$

     RDKit          2D

  8  7  0  0  0  0  0  0  0  0999 V2000
    1.9486    2.6250    0.0000 C   0  0  0  0  0  0  0  0  0  0  0  0
   -4.5466    3.3750    0.0000 C   0  0  0  0  0  0  0  0  0  0  0  0
   -0.6495    1.1250    0.0000 C   0  0  0  0  0  0  0  0  0  0  0  0
   -1.9486    4.8750    0.0000 C   0  0  0  0  0  0  0  0  0  0  0  0
    0.6495    3.3750    0.0000 C   0  0  0  0  0  0  0  0  0  0  0  0
   -3.2476    2.6250    0.0000 C   0  0  0  0  0  0  0  0  0  0  0  0
   -0.6495    2.6250    0.0000 Si  0  0  0  0  0  4  0  0  0  0  0  0
   -1.9486    3.3750    0.0000 Si  0  0  0  0  0  4  0  0  0  0  0  0
  5  1  1  0
  6  2  1  0
  7  3  1  0
  7  5  1  0
  8  4  1  0
  8  6  1  0
  8  7  1  0
M  END
>  <NAME>  (98) 
1,2-DIETHYL-1,2-DIMETHYLDISILANE

>  <SYNONYMS>  (98) 


>  <SPECTRUM TYPE>  (98) 
MS1

>  <INSTRUMENT TYPE>  (98) 
EI-B

>  <INSTRUMENT>  (98) 
HITACHI RMU-6M

>  <ION MODE>  (98) 
P

>  <INCHIKEY>  (98) 
FYFFMJYIIZPDAG-UHFFFAOYSA-N

>  <FORMULA>  (98) 
C6H18Si2

>  <EXACT MASS>  (98) 
146.094703636

>  <MW>  (98) 
146

>  <ID>  (98) 
JP012013

>  <CONTRIBUTOR>  (98) 
University of Tokyo Team, {Faculty of Engineering, University of Tokyo

>  <COMMENT>  (98) 
SMILES=CC[SiH](C)[SiH](C)CC
InChI=InChI=1S/C6H18Si2/c1-5-7(3)8(4)6-2/h7-8H,5-6H2,1-4H3
computed SMILES=CC[SiH](C)[SiH](C)CC
accession=JP012013
date=2016.01.19 (Created 2008.10.21, modified 2011.05.06)
author=YAMAMOTO M, DEP. CHEMISTRY, FAC. SCIENCE, NARA WOMEN'S UNIV.
license=CC BY-NC-SA
exact mass=146.0947
ionization energy=70 eV
ion type=[M]+*
computed spectral entropy=3.253856768162774
computed normalized entropy=0.7915243511897727
SPLASH=splash10-00dj-9200000000-ecf30a06950b65fa783b
submitter=submitter = University of Tokyo Team (Faculty of Engineering, University of Tokyo)
MoNA Rating=3.75

>  <NUM PEAKS>  (98) 
61

>  <MASS SPECTRAL PEAKS>  (98) 
28 2.7
29 3.6
30 6.9
32 4.5
33 1.1
40 1.3
41 1.6
42 2.3
43 37.9
44 22
45 78.7
46 5.4
47 2.6
53 3
54 1.2
55 4.7
56 1.6
57 6.2
58 2.3
59 26.7
60 2.5
67 1.8
68 3.1
69 7.2
70 4.2
71 9.4
72 99.99
73 85.4
74 11.9
75 8
76 1.8
77 1.2
81 2
82 2
83 1.9
84 1.6
85 6.4
86 7.6
87 25.3
88 12.1
89 48.9
90 7
91 4.3
99 1.6
100 4
101 12.6
102 7.2
103 11.2
104 2.4
105 1.5
117 20.3
118 3.5
119 1.8
130 5
131 5
132 1.4
133 1.4
145 3.7
146 43
147 8
148 3.7

>  <PREDICTED SPECTRUM>  (98) 
15 8
25 4
26 87
27 228
28 152
29 259
30 167
31 157
38 5
39 96
40 26
41 181
42 145
43 563
44 351
45 550
46 185
47 126
51 44
52 56
53 148
54 76
55 225
56 30
57 273
58 327
59 560
60 222
61 171
62 24
63 21
65 28
66 23
67 83
68 33
69 187
70 124
71 360
72 757
73 999
74 367
75 335
76 108
77 37
78 24
84 45
85 228
86 327
87 449
88 299
89 465
90 183
91 102
99 94
100 123
101 309
102 260
103 288
104 163
105 93
115 100
116 111
117 422
118 258
119 232
129 36
130 37
131 232
132 97
133 76
145 227
146 655
147 305
148 218
149 25

$$$$

     RDKit          2D

  9  8  0  0  0  0  0  0  0  0999 V2000
   -4.2219    2.8125    0.0000 C   0  0  0  0  0  0  0  0  0  0  0  0
   -1.0748    0.7635    0.0000 C   0  0  0  0  0  0  0  0  0  0  0  0
    0.4252    3.3615    0.0000 C   0  0  0  0  0  0  0  0  0  0  0  0
   -2.5880    3.9616    0.0000 C   0  0  0  0  0  0  0  0  0  0  0  0
   -2.9228    2.0625    0.0000 C   0  0  0  0  0  0  0  0  0  0  0  0
   -0.3248    2.0625    0.0000 Si  0  0  0  0  0  4  0  0  0  0  0  0
    0.9743    1.3125    0.0000 H   0  0  0  0  0  0  0  0  0  0  0  0
   -1.6238    2.8125    0.0000 Si  0  0  0  0  0  4  0  0  0  0  0  0
   -0.6596    3.9616    0.0000 H   0  0  0  0  0  0  0  0  0  0  0  0
  6  7  1  0
  8  9  1  0
  5  1  1  0
  6  2  1  0
  6  3  1  0
  8  4  1  0
  8  5  1  0
  8  6  1  0
M  ISO  2   7   2   9   2
M  END
>  <NAME>  (99) 
1-ETHYL-1,2,2-TRIMETHYLDISILANE (1,2-D2)

>  <SYNONYMS>  (99) 


>  <SPECTRUM TYPE>  (99) 
MS1

>  <INSTRUMENT TYPE>  (99) 
EI-B

>  <INSTRUMENT>  (99) 
HITACHI RMU-6M

>  <ION MODE>  (99) 
P

>  <INCHIKEY>  (99) 
NHHYFIMQHQQRNN-QFIQSOQBSA-N

>  <FORMULA>  (99) 
C5H16Si2

>  <EXACT MASS>  (99) 
134.091607064

>  <MW>  (99) 
134

>  <ID>  (99) 
JP012012

>  <CONTRIBUTOR>  (99) 
University of Tokyo Team, {Faculty of Engineering, University of Tokyo

>  <COMMENT>  (99) 
SMILES=CC[Si]([2H])(C)[Si]([2H])(C)C
InChI=InChI=1S/C5H16Si2/c1-5-7(4)6(2)3/h6-7H,5H2,1-4H3/i6D,7D
computed SMILES=[H][Si](C)(C)[Si]([H])(C)CC
accession=JP012012
date=2016.01.19 (Created 2008.10.21, modified 2011.05.06)
author=YAMAMOTO M, DEP. CHEMISTRY, FAC. SCIENCE, NARA WOMEN'S UNIV.
license=CC BY-NC-SA
exact mass=132.07905
ionization energy=70 eV
ion type=[M]+*
computed spectral entropy=3.4970629521156074
computed normalized entropy=0.8377428173316169
SPLASH=splash10-00di-9100000000-9424b8bfa200cb09b21b
submitter=submitter = University of Tokyo Team (Faculty of Engineering, University of Tokyo)
MoNA Rating=3.75

>  <NUM PEAKS>  (99) 
65

>  <MASS SPECTRAL PEAKS>  (99) 
27 5.3
28 8.4
29 11.7
30 3.9
31 14.4
32 10.3
33 1.8
41 2.1
42 6.8
43 68.6
44 45.3
45 56.7
46 53.8
47 9.4
48 3.3
53 5
54 1.7
55 5.7
56 3
57 6.9
58 32.6
59 37.5
60 68.6
61 8.4
62 3
69 8.7
70 5.6
71 7.6
72 99.99
73 56.5
74 77.6
75 8.8
76 4
77 1.3
78 1.6
81 2.8
82 1.1
83 2.1
84 2.9
85 4
86 9.9
87 31.2
88 8.1
89 15.2
90 14.6
91 21.8
92 4.3
93 2.4
100 1.2
101 4.3
102 3.8
103 7.5
104 7.1
105 28
106 4.3
107 4
117 6.2
118 1.1
119 12.1
120 2.5
121 5.3
132 3.5
134 44.4
135 8.7
136 4

>  <PREDICTED SPECTRUM>  (99) 
26 33
28 85
29 19
31 115
45 144
46 73
47 101
48 61
49 18
51 61
52 63
53 46
54 53
57 138
59 560
60 307
61 207
62 71
63 110
66 18
73 999
74 290
75 246
76 150
77 294
78 182
79 109
89 287
90 113
91 142
92 159
105 375
106 126
107 16
119 298
120 31
134 323
135 95
136 36

$$$$

     RDKit          2D

  7  6  0  0  0  0  0  0  0  0999 V2000
   -3.8971    2.2500    0.0000 C   0  0  0  0  0  0  0  0  0  0  0  0
    1.2990    2.2500    0.0000 C   0  0  0  0  0  0  0  0  0  0  0  0
   -0.0000    0.0000    0.0000 C   0  0  0  0  0  0  0  0  0  0  0  0
   -1.2990    3.7500    0.0000 C   0  0  0  0  0  0  0  0  0  0  0  0
   -2.5981    1.5000    0.0000 C   0  0  0  0  0  0  0  0  0  0  0  0
    0.0000    1.5000    0.0000 Si  0  0  0  0  0  4  0  0  0  0  0  0
   -1.2990    2.2500    0.0000 Si  0  0  0  0  0  4  0  0  0  0  0  0
  5  1  1  0
  6  2  1  0
  6  3  1  0
  7  4  1  0
  7  5  1  0
  7  6  1  0
M  END
>  <NAME>  (100) 
1-ETHYL-1,2,2-TRIMETHYLDISILANE

>  <SYNONYMS>  (100) 


>  <SPECTRUM TYPE>  (100) 
MS1

>  <INSTRUMENT TYPE>  (100) 
EI-B

>  <INSTRUMENT>  (100) 
HITACHI RMU-6M

>  <ION MODE>  (100) 
P

>  <INCHIKEY>  (100) 
NHHYFIMQHQQRNN-UHFFFAOYSA-N

>  <FORMULA>  (100) 
C5H16Si2

>  <EXACT MASS>  (100) 
132.079053572

>  <MW>  (100) 
132

>  <ID>  (100) 
JP012011

>  <CONTRIBUTOR>  (100) 
University of Tokyo Team, {Faculty of Engineering, University of Tokyo

>  <COMMENT>  (100) 
SMILES=CC[SiH](C)[SiH](C)C
InChI=InChI=1S/C5H16Si2/c1-5-7(4)6(2)3/h6-7H,5H2,1-4H3
computed SMILES=CC[SiH](C)[SiH](C)C
accession=JP012011
date=2016.01.19 (Created 2008.10.21, modified 2011.05.06)
author=YAMAMOTO M, DEP. CHEMISTRY, FAC. SCIENCE, NARA WOMEN'S UNIV.
license=CC BY-NC-SA
exact mass=132.07905
ionization energy=70 eV
ion type=[M]+*
computed spectral entropy=3.3019651732636133
computed normalized entropy=0.8000624319936064
SPLASH=splash10-05fu-9100000000-3ac53a04388118d361e8
submitter=submitter = University of Tokyo Team (Faculty of Engineering, University of Tokyo)
MoNA Rating=3.75

>  <NUM PEAKS>  (100) 
62

>  <MASS SPECTRAL PEAKS>  (100) 
26 1.3
27 4
28 7.9
29 10.4
30 2
31 16.1
32 3.6
40 1
41 1.4
42 7.1
43 70.3
44 29.9
45 81.2
46 7.3
47 3
50 1.6
51 1.4
52 1.4
53 6.6
54 1
55 6.9
56 3.2
58 28.9
59 83.6
60 8.1
61 3.3
67 1.4
68 1.3
69 9.8
70 5.2
71 7.9
72 92.3
73 99.99
74 13.1
75 4.9
78 5.3
81 3
82 1.4
83 2.3
84 2.3
85 7.8
86 8.4
87 28.2
88 11.5
89 29.1
90 5.3
91 3.3
99 1.6
100 2.2
101 6.6
102 8.8
103 31.1
104 5.2
105 3.6
116 6
117 8.6
118 2.2
119 4.2
131 3.2
132 34.3
133 7.3
134 3.7

>  <PREDICTED SPECTRUM>  (100) 
26 69
27 173
28 144
29 188
30 37
31 224
38 12
39 163
40 27
41 204
42 151
43 775
44 456
45 731
46 153
47 21
51 34
52 27
53 142
54 23
55 283
56 48
57 160
58 395
59 951
60 286
61 237
62 17
66 34
67 58
69 260
70 91
71 447
72 822
73 999
74 454
75 344
76 36
77 87
78 35
85 101
86 196
87 578
88 355
89 496
90 124
91 15
99 95
101 255
102 159
103 343
104 190
105 175
115 79
116 156
117 266
118 116
119 94
130 6
131 180
132 613
133 289
134 173

$$$$

     RDKit          2D

 10  9  0  0  0  0  0  0  0  0999 V2000
    1.9486    2.6250    0.0000 C   0  0  0  0  0  0  0  0  0  0  0  0
   -4.5466    3.3750    0.0000 C   0  0  0  0  0  0  0  0  0  0  0  0
   -0.6495    2.6250    0.0000 C   0  0  0  0  0  0  0  0  0  0  0  0
   -1.6137    1.4759    0.0000 H   0  0  0  0  0  0  0  0  0  0  0  0
    0.3147    1.4759    0.0000 H   0  0  0  0  0  0  0  0  0  0  0  0
   -1.9486    3.3750    0.0000 C   0  0  0  0  0  0  0  0  0  0  0  0
   -0.9844    4.5241    0.0000 H   0  0  0  0  0  0  0  0  0  0  0  0
   -2.9127    4.5241    0.0000 H   0  0  0  0  0  0  0  0  0  0  0  0
    0.6495    3.3750    0.0000 Si  0  0  0  0  0  4  0  0  0  0  0  0
   -3.2476    2.6250    0.0000 Si  0  0  0  0  0  4  0  0  0  0  0  0
  3  4  1  0
  3  5  1  0
  6  7  1  0
  6  8  1  0
  6  3  1  0
  9  1  1  0
  9  3  1  0
 10  2  1  0
 10  6  1  0
M  ISO  4   4   2   5   2   7   2   8   2
M  END
>  <NAME>  (101) 
1,2-BIS(METHYLSILYL)ETHANE (D4)

>  <SYNONYMS>  (101) 


>  <SPECTRUM TYPE>  (101) 
MS1

>  <INSTRUMENT TYPE>  (101) 
EI-B

>  <INSTRUMENT>  (101) 
HITACHI RMU-6M

>  <ION MODE>  (101) 
P

>  <INCHIKEY>  (101) 
CBXZGERYGLVXSG-KHORGVISSA-N

>  <FORMULA>  (101) 
C4H14Si2

>  <EXACT MASS>  (101) 
122.088510492

>  <MW>  (101) 
122

>  <ID>  (101) 
JP012010

>  <CONTRIBUTOR>  (101) 
University of Tokyo Team, {Faculty of Engineering, University of Tokyo

>  <COMMENT>  (101) 
SMILES=C[SiH2]C([2H])([2H])C([2H])([2H])[SiH2]C
InChI=InChI=1S/C4H14Si2/c1-5-3-4-6-2/h3-6H2,1-2H3/i3D2,4D2
computed SMILES=[H]C([H])([SiH2]C)C([H])([H])[SiH2]C
accession=JP012010
date=2016.01.19 (Created 2008.10.21, modified 2011.05.06)
author=YAMAMOTO M, DEP. CHEMISTRY, FAC. SCIENCE, NARA WOMEN'S UNIV.
license=CC BY-NC-SA
exact mass=118.0634
ionization energy=70 eV
ion type=[M]+*
computed spectral entropy=3.1716302232053946
computed normalized entropy=0.7844645078923556
SPLASH=splash10-00dj-9000000000-ec8d007089a001e0f9df
submitter=submitter = University of Tokyo Team (Faculty of Engineering, University of Tokyo)
MoNA Rating=3.75

>  <NUM PEAKS>  (101) 
57

>  <MASS SPECTRAL PEAKS>  (101) 
27 1.1
28 6.1
29 3.4
30 2.5
31 1.4
32 2.7
33 1.3
42 1.9
43 13.9
44 17.8
45 26.7
46 32.7
47 34.5
48 3.4
49 1.6
53 1.9
54 1
55 2.5
56 2.1
57 1.3
58 3
59 4.9
60 8.3
61 2
69 1.9
70 1.6
71 2.7
73 99.99
74 11.1
75 30.3
76 4.1
77 7
78 5.2
79 3.3
80 1.1
85 1.4
86 3.3
87 2
88 2.3
89 2.8
90 16
91 5.5
92 4.5
93 1.2
94 3.5
103 1.1
105 2
107 10.5
108 1.8
109 1.2
118 2.8
119 1
120 8.9
121 1.9
122 7.7
123 1.5
124 1.1

>  <PREDICTED SPECTRUM>  (101) 
14 11
26 143
30 76
31 372
32 44
34 114
38 69
39 11
40 53
41 486
43 47
44 93
46 357
47 122
48 461
49 127
53 9
55 121
57 226
58 508
59 389
61 261
64 56
71 130
75 322
76 999
77 487
78 82
103 344
104 14
105 88
106 707
107 831
120 581
121 149
122 796
123 127

$$$$

     RDKit          2D

  6  5  0  0  0  0  0  0  0  0999 V2000
   -4.5466    3.3750    0.0000 C   0  0  0  0  0  0  0  0  0  0  0  0
    1.9486    2.6250    0.0000 C   0  0  0  0  0  0  0  0  0  0  0  0
   -1.9486    3.3750    0.0000 C   0  0  0  0  0  0  0  0  0  0  0  0
   -0.6495    2.6250    0.0000 C   0  0  0  0  0  0  0  0  0  0  0  0
   -3.2476    2.6250    0.0000 Si  0  0  0  0  0  4  0  0  0  0  0  0
    0.6495    3.3750    0.0000 Si  0  0  0  0  0  4  0  0  0  0  0  0
  4  3  1  0
  5  1  1  0
  5  3  1  0
  6  2  1  0
  6  4  1  0
M  END
>  <NAME>  (102) 
1,2-BIS(METHYLSILYL)ETHANE

>  <SYNONYMS>  (102) 


>  <SPECTRUM TYPE>  (102) 
MS1

>  <INSTRUMENT TYPE>  (102) 
EI-B

>  <INSTRUMENT>  (102) 
HITACHI RMU-6M

>  <ION MODE>  (102) 
P

>  <INCHIKEY>  (102) 
CBXZGERYGLVXSG-UHFFFAOYSA-N

>  <FORMULA>  (102) 
C4H14Si2

>  <EXACT MASS>  (102) 
118.063403508

>  <MW>  (102) 
118

>  <ID>  (102) 
JP012009

>  <CONTRIBUTOR>  (102) 
University of Tokyo Team, {Faculty of Engineering, University of Tokyo

>  <COMMENT>  (102) 
SMILES=C[SiH2]CC[SiH2]C
InChI=InChI=1S/C4H14Si2/c1-5-3-4-6-2/h3-6H2,1-2H3
computed SMILES=C[SiH2]CC[SiH2]C
accession=JP012009
date=2016.01.19 (Created 2008.10.21, modified 2011.05.06)
author=YAMAMOTO M, DEP. CHEMISTRY, FAC. SCIENCE, NARA WOMEN'S UNIV.
license=CC BY-NC-SA
exact mass=118.0634
ionization energy=70 eV
ion type=[M]+*
computed spectral entropy=2.8794626733657553
computed normalized entropy=0.7859735829497372
SPLASH=splash10-00dj-9000000000-5cdf941cfd0e3feb3330
submitter=submitter = University of Tokyo Team (Faculty of Engineering, University of Tokyo)
MoNA Rating=3.75

>  <NUM PEAKS>  (102) 
39

>  <MASS SPECTRAL PEAKS>  (102) 
27 2.6
28 4.7
29 5.3
31 4.7
41 3.2
42 3.7
43 31
44 16.1
45 77.1
46 5
47 2.6
53 2
55 5.3
56 4.4
57 5
58 2.9
59 14.1
69 2.9
70 2.3
71 10.2
72 99.99
73 35.1
74 6.4
75 13.2
76 1.5
85 2
86 5.3
87 4.1
88 18.2
89 17
90 5
91 1.2
102 1.5
103 10
104 1.2
116 2.9
117 11.7
118 6.4
119 1.5

>  <PREDICTED SPECTRUM>  (102) 
14 5
15 22
26 49
27 120
28 131
29 165
30 140
31 167
32 1
33 21
39 45
40 42
41 291
42 268
43 588
44 512
45 625
46 206
47 239
53 0
54 23
55 240
56 81
57 382
58 363
59 496
60 147
61 110
69 319
70 210
71 538
72 999
73 740
74 489
75 447
85 153
86 207
87 300
88 404
89 497
90 320
91 98
101 86
102 168
103 491
104 144
116 366
117 528
118 341
119 119
120 51

$$$$

     RDKit          2D

 11 10  0  0  0  0  0  0  0  0999 V2000
    5.3603    3.9608    0.0000 C   0  0  0  0  0  0  0  0  0  0  0  0
    5.9094    1.9118    0.0000 C   0  0  0  0  0  0  0  0  0  0  0  0
   -1.3358    3.9608    0.0000 C   0  0  0  0  0  0  0  0  0  0  0  0
    0.1642    1.3627    0.0000 C   0  0  0  0  0  0  0  0  0  0  0  0
    2.0123    2.6618    0.0000 C   0  0  0  0  0  0  0  0  0  0  0  0
    3.3113    3.4118    0.0000 C   0  0  0  0  0  0  0  0  0  0  0  0
    0.7132    3.4118    0.0000 C   0  0  0  0  0  0  0  0  0  0  0  0
    4.6103    2.6618    0.0000 Si  0  0  0  0  0  4  0  0  0  0  0  0
    3.8603    1.3627    0.0000 H   0  0  0  0  0  0  0  0  0  0  0  0
   -0.5858    2.6618    0.0000 Si  0  0  0  0  0  4  0  0  0  0  0  0
   -1.8849    1.9118    0.0000 H   0  0  0  0  0  0  0  0  0  0  0  0
  8  9  1  0
 10 11  1  0
  6  5  1  0
  7  5  1  0
  8  1  1  0
  8  2  1  0
  8  6  1  0
 10  3  1  0
 10  4  1  0
 10  7  1  0
M  ISO  2   9   2  11   2
M  END
>  <NAME>  (103) 
1,3-BIS(DIMETHYLSILYL)PROPANE (2D)

>  <SYNONYMS>  (103) 


>  <SPECTRUM TYPE>  (103) 
MS1

>  <INSTRUMENT TYPE>  (103) 
EI-B

>  <INSTRUMENT>  (103) 
HITACHI RMU-6M

>  <ION MODE>  (103) 
P

>  <INCHIKEY>  (103) 
NKDJYWYZEVYOLX-XETGXLELSA-N

>  <FORMULA>  (103) 
C7H20Si2

>  <EXACT MASS>  (103) 
162.122907192

>  <MW>  (103) 
162

>  <ID>  (103) 
JP012008

>  <CONTRIBUTOR>  (103) 
University of Tokyo Team, {Faculty of Engineering, University of Tokyo

>  <COMMENT>  (103) 
SMILES=[2H][Si](C)(C)CCC[Si]([2H])(C)C
InChI=InChI=1S/C7H20Si2/c1-8(2)6-5-7-9(3)4/h8-9H,5-7H2,1-4H3/i8D,9D
computed SMILES=[H][Si](C)(C)CCC[Si]([H])(C)C
accession=JP012008
date=2016.01.19 (Created 2008.10.21, modified 2011.05.06)
author=YAMAMOTO M, DEP. CHEMISTRY, FAC. SCIENCE, NARA WOMEN'S UNIV.
license=CC BY-NC-SA
exact mass=160.11035
ionization energy=70 eV
ion type=[M]+*
computed spectral entropy=3.2847218278361723
computed normalized entropy=0.802258280395794
SPLASH=splash10-03di-9300000000-5e04381be63848ad366e
submitter=submitter = University of Tokyo Team (Faculty of Engineering, University of Tokyo)
MoNA Rating=3.75

>  <NUM PEAKS>  (103) 
60

>  <MASS SPECTRAL PEAKS>  (103) 
28 2.7
29 6.1
30 1.1
31 12.9
32 8.4
39 1.6
42 2.6
43 26.4
44 12.6
45 8.2
46 8.5
47 1
53 1.3
55 2.7
56 1.4
57 3.1
58 10.9
59 45.6
60 99.99
61 9.3
62 4.7
69 1
70 1.3
71 2.3
72 42.1
75 1.9
83 1
84 1
85 12.7
86 28.1
87 8.9
88 10.8
89 1.2
98 1.6
99 5.8
100 45.6
101 9.5
102 6.6
103 2.1
104 1.4
115 1.2
116 5
117 3.6
118 6.1
119 4.7
120 1
130 2.8
131 3.7
132 1.2
133 1.4
143 1.2
144 1.6
147 34.2
148 5.4
149 2.7
158 4.8
159 6.7
160 7.6
161 1.6
162 1.9

>  <PREDICTED SPECTRUM>  (103) 
41 12
43 213
45 202
46 38
47 9
54 49
55 33
56 7
57 124
58 1
59 314
60 105
61 114
69 10
70 1
71 94
73 999
74 358
75 179
76 12
86 97
87 65
88 4
90 26
91 176
95 9
96 67
105 15
106 21
119 59
120 61
121 19
147 154
148 22
161 165
162 355
163 126
164 43

$$$$

     RDKit          2D

  9  8  0  0  0  0  0  0  0  0999 V2000
    2.2733    2.8125    0.0000 C   0  0  0  0  0  0  0  0  0  0  0  0
    0.9743    5.0625    0.0000 C   0  0  0  0  0  0  0  0  0  0  0  0
   -5.5209    2.8125    0.0000 C   0  0  0  0  0  0  0  0  0  0  0  0
   -4.2219    5.0625    0.0000 C   0  0  0  0  0  0  0  0  0  0  0  0
   -1.6238    3.5625    0.0000 C   0  0  0  0  0  0  0  0  0  0  0  0
   -0.3248    2.8125    0.0000 C   0  0  0  0  0  0  0  0  0  0  0  0
   -2.9228    2.8125    0.0000 C   0  0  0  0  0  0  0  0  0  0  0  0
    0.9743    3.5625    0.0000 Si  0  0  0  0  0  4  0  0  0  0  0  0
   -4.2219    3.5625    0.0000 Si  0  0  0  0  0  4  0  0  0  0  0  0
  6  5  1  0
  7  5  1  0
  8  1  1  0
  8  2  1  0
  8  6  1  0
  9  3  1  0
  9  4  1  0
  9  7  1  0
M  END
>  <NAME>  (104) 
1,3-BIS(DIMETHYLSILYL)PROPANE

>  <SYNONYMS>  (104) 


>  <SPECTRUM TYPE>  (104) 
MS1

>  <INSTRUMENT TYPE>  (104) 
EI-B

>  <INSTRUMENT>  (104) 
HITACHI RMU-6M

>  <ION MODE>  (104) 
P

>  <INCHIKEY>  (104) 
NKDJYWYZEVYOLX-UHFFFAOYSA-N

>  <FORMULA>  (104) 
C7H20Si2

>  <EXACT MASS>  (104) 
160.1103537

>  <MW>  (104) 
160

>  <ID>  (104) 
JP012007

>  <CONTRIBUTOR>  (104) 
University of Tokyo Team, {Faculty of Engineering, University of Tokyo

>  <COMMENT>  (104) 
SMILES=C[SiH](C)CCC[SiH](C)C
InChI=InChI=1S/C7H20Si2/c1-8(2)6-5-7-9(3)4/h8-9H,5-7H2,1-4H3
computed SMILES=C[SiH](C)CCC[SiH](C)C
accession=JP012007
date=2016.01.19 (Created 2008.10.21, modified 2011.05.06)
author=YAMAMOTO M, DEP. CHEMISTRY, FAC. SCIENCE, NARA WOMEN'S UNIV.
license=CC BY-NC-SA
exact mass=160.11035
ionization energy=70 eV
ion type=[M]+*
computed spectral entropy=3.019324075995114
computed normalized entropy=0.8027554990751543
SPLASH=splash10-0a4i-9300000000-f6a8a8cdab52cc2fe72d
submitter=submitter = University of Tokyo Team (Faculty of Engineering, University of Tokyo)
MoNA Rating=3.75

>  <NUM PEAKS>  (104) 
43

>  <MASS SPECTRAL PEAKS>  (104) 
29 5.3
31 12.9
32 1.2
42 2.3
43 23.9
44 4.8
45 10.3
53 1.2
55 2.4
57 3.7
58 12
59 99.99
60 8.2
61 4.1
70 3.7
71 2.8
72 29.9
73 22.5
74 2.5
75 2.1
85 34.2
86 3.6
87 7.9
98 1.1
99 6.7
100 34.2
101 7.6
102 2.1
103 2.4
115 1.7
116 4.3
117 7
118 1.3
130 3.2
131 2.2
143 2.1
144 1
145 24.6
146 4.5
147 1.9
158 5.3
159 9.3
160 3.2

>  <PREDICTED SPECTRUM>  (104) 
26 0
27 4
31 109
39 105
40 30
41 71
42 28
43 386
44 184
45 323
51 23
53 74
55 96
56 144
57 106
58 286
59 999
60 255
61 161
69 163
70 51
71 255
72 297
73 372
74 78
77 56
79 21
83 78
84 100
85 581
86 255
87 235
88 10
97 88
98 61
99 289
100 667
101 451
102 250
103 161
105 2
115 116
117 99
127 38
128 9
129 14
141 19
143 214
144 200
145 260
146 94
147 69
158 248
159 322
160 163
161 46

$$$$

     RDKit          2D

  9  8  0  0  0  0  0  0  0  0999 V2000
    2.0490    4.0981    0.0000 C   0  0  0  0  0  0  0  0  0  0  0  0
    3.5490    2.5981    0.0000 C   0  0  0  0  0  0  0  0  0  0  0  0
   -1.5000    2.0490    0.0000 C   0  0  0  0  0  0  0  0  0  0  0  0
    1.0981    0.5490    0.0000 C   0  0  0  0  0  0  0  0  0  0  0  0
    0.5490    2.5981    0.0000 C   0  0  0  0  0  0  0  0  0  0  0  0
    2.0490    2.5981    0.0000 Si  0  0  0  0  0  4  0  0  0  0  0  0
    2.0490    1.0981    0.0000 H   0  0  0  0  0  0  0  0  0  0  0  0
   -0.2010    1.2990    0.0000 Si  0  0  0  0  0  4  0  0  0  0  0  0
   -0.9510    0.0000    0.0000 H   0  0  0  0  0  0  0  0  0  0  0  0
  6  7  1  0
  8  9  1  0
  6  1  1  0
  6  2  1  0
  6  5  1  0
  8  3  1  0
  8  4  1  0
  8  5  1  0
M  ISO  2   7   2   9   2
M  END
>  <NAME>  (105) 
BIS(DIMETHYLSILYL)METHANE (D2)

>  <SYNONYMS>  (105) 


>  <SPECTRUM TYPE>  (105) 
MS1

>  <INSTRUMENT TYPE>  (105) 
EI-B

>  <INSTRUMENT>  (105) 
HITACHI RMU-6M

>  <ION MODE>  (105) 
P

>  <INCHIKEY>  (105) 
PTQFHZAGGNQPDA-QFIQSOQBSA-N

>  <FORMULA>  (105) 
C5H16Si2

>  <EXACT MASS>  (105) 
134.091607064

>  <MW>  (105) 
134

>  <ID>  (105) 
JP012006

>  <CONTRIBUTOR>  (105) 
University of Tokyo Team, {Faculty of Engineering, University of Tokyo

>  <COMMENT>  (105) 
SMILES=[2H][Si](C)(C)C[Si]([2H])(C)C
InChI=InChI=1S/C5H16Si2/c1-6(2)5-7(3)4/h6-7H,5H2,1-4H3/i6D,7D
computed SMILES=[H][Si](C)(C)C[Si]([H])(C)C
accession=JP012006
date=2016.01.19 (Created 2008.10.21, modified 2011.05.06)
author=YAMAMOTO M, DEP. CHEMISTRY, FAC. SCIENCE, NARA WOMEN'S UNIV.
license=CC BY-NC-SA
exact mass=132.07905
ionization energy=70 eV
ion type=[M]+*
computed spectral entropy=2.9172522115209474
computed normalized entropy=0.7457144826278118
SPLASH=splash10-01b9-8900000000-d611be88f5d07e787c53
submitter=submitter = University of Tokyo Team (Faculty of Engineering, University of Tokyo)
MoNA Rating=3.75

>  <NUM PEAKS>  (105) 
50

>  <MASS SPECTRAL PEAKS>  (105) 
28 2.1
29 4.2
31 5
32 3.7
42 1.6
43 14
44 7.4
45 7.6
46 5.3
47 1.6
53 1.6
56 1.8
57 1.6
58 2.4
59 5.3
60 14.2
61 3.4
62 1.1
69 2.6
70 1.6
71 1.6
72 6.6
73 34.7
74 12.9
75 2.9
81 1.1
83 1.1
84 1.1
85 1.3
86 2.1
87 1.6
88 1.1
89 1.1
100 1.1
101 1.1
102 2.9
103 2.4
104 1.1
115 2.1
116 2.9
117 2.1
118 1.6
119 99.99
120 16.3
121 8.4
122 1.1
130 1.8
132 9.5
133 2.1
134 1.1

>  <PREDICTED SPECTRUM>  (105) 
29 18
31 120
41 5
42 13
43 248
44 71
45 332
46 119
47 58
53 1
55 65
57 119
59 214
60 197
61 107
73 999
74 338
75 234
89 6
118 81
119 543
120 190
121 80
131 55
134 533
135 153
136 74

$$$$

     RDKit          2D

  7  6  0  0  0  0  0  0  0  0999 V2000
    1.6238    1.6875    0.0000 C   0  0  0  0  0  0  0  0  0  0  0  0
    0.3248    3.9375    0.0000 C   0  0  0  0  0  0  0  0  0  0  0  0
   -3.5724    1.6875    0.0000 C   0  0  0  0  0  0  0  0  0  0  0  0
   -2.2733    3.9375    0.0000 C   0  0  0  0  0  0  0  0  0  0  0  0
   -0.9743    1.6875    0.0000 C   0  0  0  0  0  0  0  0  0  0  0  0
    0.3248    2.4375    0.0000 Si  0  0  0  0  0  4  0  0  0  0  0  0
   -2.2733    2.4375    0.0000 Si  0  0  0  0  0  4  0  0  0  0  0  0
  6  1  1  0
  6  2  1  0
  6  5  1  0
  7  3  1  0
  7  4  1  0
  7  5  1  0
M  END
>  <NAME>  (106) 
BIS(DIMETHYLSILYL)METHANE

>  <SYNONYMS>  (106) 


>  <SPECTRUM TYPE>  (106) 
MS1

>  <INSTRUMENT TYPE>  (106) 
EI-B

>  <INSTRUMENT>  (106) 
HITACHI RMU-6M

>  <ION MODE>  (106) 
P

>  <INCHIKEY>  (106) 
PTQFHZAGGNQPDA-UHFFFAOYSA-N

>  <FORMULA>  (106) 
C5H16Si2

>  <EXACT MASS>  (106) 
132.079053572

>  <MW>  (106) 
132

>  <ID>  (106) 
JP012005

>  <CONTRIBUTOR>  (106) 
University of Tokyo Team, {Faculty of Engineering, University of Tokyo

>  <COMMENT>  (106) 
SMILES=C[SiH](C)C[SiH](C)C
InChI=InChI=1S/C5H16Si2/c1-6(2)5-7(3)4/h6-7H,5H2,1-4H3
computed SMILES=C[SiH](C)C[SiH](C)C
accession=JP012005
date=2016.01.19 (Created 2008.10.21, modified 2011.05.06)
author=YAMAMOTO M, DEP. CHEMISTRY, FAC. SCIENCE, NARA WOMEN'S UNIV.
license=CC BY-NC-SA
exact mass=132.07905
ionization energy=70 eV
ion type=[M]+*
computed spectral entropy=2.8653006856533887
computed normalized entropy=0.7442054128991714
SPLASH=splash10-014i-9800000000-7ae57e21afe4b5a820a6
submitter=submitter = University of Tokyo Team (Faculty of Engineering, University of Tokyo)
MoNA Rating=3.75

>  <NUM PEAKS>  (106) 
47

>  <MASS SPECTRAL PEAKS>  (106) 
28 1.8
29 4.5
30 1.1
31 7.2
32 1.1
42 2.5
43 19.2
44 4.5
45 12.2
46 1.4
51 1.1
53 2.2
55 2.8
57 2.8
58 4.2
59 19.2
60 1.9
61 1.4
69 3.9
70 1.7
71 2.2
72 6.1
73 47.5
74 4.7
75 2.5
81 1.7
83 1.7
84 1.1
85 2.8
86 1.1
87 1.7
89 1.1
99 2.2
100 5.6
102 1.4
103 1.1
115 5.6
116 3.3
117 99.99
118 16.1
119 8.3
120 1.2
129 1.1
130 3.1
131 16.1
132 2.8
133 1.7

>  <PREDICTED SPECTRUM>  (106) 
29 10
31 180
39 90
40 26
41 121
43 448
44 182
45 430
53 132
55 80
57 143
58 360
59 999
60 278
61 134
67 64
69 189
71 231
72 535
73 630
74 207
75 156
86 80
87 311
88 20
89 289
90 37
99 87
101 72
105 48
113 27
115 173
116 128
117 420
118 137
119 100
130 184
131 267
132 190
133 113

$$$$

     RDKit          2D

 17 18  0  0  0  0  0  0  0  0999 V2000
    1.7164    6.7735    0.0000 C   0  0  0  0  0  0  0  0  0  0  0  0
    2.2294    3.8640    0.0000 C   0  0  0  0  0  0  0  0  0  0  0  0
   -4.7788    1.5235    0.0000 C   0  0  0  0  0  0  0  0  0  0  0  0
    6.1494    6.0566    0.0000 C   0  0  0  0  0  0  0  0  0  0  0  0
   -3.4793    0.7727    0.0000 C   0  0  0  0  0  0  0  0  0  0  0  0
   -4.7793    3.0243    0.0000 C   0  0  0  0  0  0  0  0  0  0  0  0
    5.6359    4.6464    0.0000 C   0  0  0  0  0  0  0  0  0  0  0  0
    5.1850    7.2056    0.0000 C   0  0  0  0  0  0  0  0  0  0  0  0
   -2.1803    1.5227    0.0000 C   0  0  0  0  0  0  0  0  0  0  0  0
   -3.4803    3.7743    0.0000 C   0  0  0  0  0  0  0  0  0  0  0  0
    4.1579    4.3851    0.0000 C   0  0  0  0  0  0  0  0  0  0  0  0
    3.7071    6.9442    0.0000 C   0  0  0  0  0  0  0  0  0  0  0  0
   -0.8817    3.7735    0.0000 C   0  0  0  0  0  0  0  0  0  0  0  0
    0.4173    4.5235    0.0000 C   0  0  0  0  0  0  0  0  0  0  0  0
   -2.1807    3.0235    0.0000 C   0  0  0  0  0  0  0  0  0  0  0  0
    3.1936    5.5340    0.0000 C   0  0  0  0  0  0  0  0  0  0  0  0
    1.7164    5.2735    0.0000 Si  0  0  0  0  0  4  0  0  0  0  0  0
  5  3  2  0
  6  3  1  0
  7  4  2  0
  8  4  1  0
  9  5  1  0
 10  6  2  0
 11  7  1  0
 12  8  2  0
 14 13  3  0
 15  9  2  0
 15 10  1  0
 15 13  1  0
 16 11  2  0
 16 12  1  0
 17  1  1  0
 17  2  1  0
 17 14  1  0
 17 16  1  0
M  END
>  <NAME>  (107) 
(DIMETHYLPHENYLSILYL)PHENYLACETYLENE

>  <SYNONYMS>  (107) 


>  <SPECTRUM TYPE>  (107) 
MS1

>  <INSTRUMENT TYPE>  (107) 
EI-B

>  <INSTRUMENT>  (107) 
SHIMADZU QP-1000

>  <ION MODE>  (107) 
P

>  <INCHIKEY>  (107) 
ZLASSMJFYNXSGL-UHFFFAOYSA-N

>  <FORMULA>  (107) 
C16H16Si

>  <EXACT MASS>  (107) 
236.102127042

>  <MW>  (107) 
236

>  <ID>  (107) 
JP011969

>  <CONTRIBUTOR>  (107) 
University of Tokyo Team, {Faculty of Engineering, University of Tokyo

>  <COMMENT>  (107) 
SMILES=c(c2)ccc(c2)C#C[Si](C)(C)c(c1)cccc1
InChI=InChI=1S/C16H16Si/c1-17(2,16-11-7-4-8-12-16)14-13-15-9-5-3-6-10-15/h3-12H,1-2H3
computed SMILES=C(#C[Si](C=1C=CC=CC1)(C)C)C=2C=CC=CC2
accession=JP011969
date=2016.01.19 (Created 2008.10.21, modified 2011.05.06)
author=ISHIKAWA M, HIROSHIMA UNIV. FAC. TEQUNOLOGY
license=CC BY-NC-SA
exact mass=236.10213
ionization energy=70 eV
ion type=[M]+*
computed spectral entropy=1.9975842133535378
computed normalized entropy=0.6561239912711087
SPLASH=splash10-00di-2190000000-628abe5f47fb06c05c27
submitter=submitter = University of Tokyo Team (Faculty of Engineering, University of Tokyo)
MoNA Rating=3.75

>  <NUM PEAKS>  (107) 
21

>  <MASS SPECTRAL PEAKS>  (107) 
52 1.1
53 4.2
54 18.9
55 1.1
56 2.1
65 1.1
67 1.1
77 3.2
79 1.1
91 1.1
93 3.2
103 3.2
105 9.5
111 1.1
119 2.1
129 5.3
221 99.99
222 21.1
223 4.2
236 26.3
237 6.3

>  <PREDICTED SPECTRUM>  (107) 
39 42
43 92
44 4
50 15
51 85
53 30
63 34
65 39
74 3
75 32
76 36
77 108
78 26
79 10
89 1
91 60
102 52
103 2
105 219
115 93
119 22
126 16
127 15
129 88
134 0
135 29
143 4
152 5
158 18
159 150
161 13
163 1
165 40
177 30
191 19
219 45
221 999
222 444
223 160
235 20
236 460
237 209
238 55

$$$$

     RDKit          2D

 11 10  0  0  0  0  0  0  0  0999 V2000
    2.5981    4.5000    0.0000 C   0  0  0  0  0  0  0  0  0  0  0  0
   -7.7942    4.5000    0.0000 C   0  0  0  0  0  0  0  0  0  0  0  0
   -3.5623    3.3509    0.0000 C   0  0  0  0  0  0  0  0  0  0  0  0
    1.2990    5.2500    0.0000 C   0  0  0  0  0  0  0  0  0  0  0  0
   -6.4952    5.2500    0.0000 C   0  0  0  0  0  0  0  0  0  0  0  0
    0.0000    4.5000    0.0000 C   0  0  0  0  0  0  0  0  0  0  0  0
   -5.1962    4.5000    0.0000 C   0  0  0  0  0  0  0  0  0  0  0  0
   -1.2990    5.2500    0.0000 C   0  0  0  0  0  0  0  0  0  0  0  0
   -3.8971    5.2500    0.0000 C   0  0  0  0  0  0  0  0  0  0  0  0
   -1.6339    3.3509    0.0000 I   0  0  0  0  0  0  0  0  0  0  0  0
   -2.5981    4.5000    0.0000 Si  0  0  0  0  0  4  0  0  0  0  0  0
  4  1  1  0
  5  2  1  0
  6  4  1  0
  7  5  1  0
  8  6  1  0
  9  7  1  0
 11  3  1  0
 11  8  1  0
 11  9  1  0
 11 10  1  0
M  END
>  <NAME>  (108) 
DIBUTYLIODOMETHYLSILANE

>  <SYNONYMS>  (108) 


>  <SPECTRUM TYPE>  (108) 
MS1

>  <INSTRUMENT TYPE>  (108) 
EI-B

>  <INSTRUMENT>  (108) 
SHIMADZU QP-1000

>  <ION MODE>  (108) 
P

>  <INCHIKEY>  (108) 
FXZJDXGJYGYLQK-UHFFFAOYSA-N

>  <FORMULA>  (108) 
C9H21ISi

>  <EXACT MASS>  (108) 
284.045725202

>  <MW>  (108) 
284

>  <ID>  (108) 
JP011968

>  <CONTRIBUTOR>  (108) 
University of Tokyo Team, {Faculty of Engineering, University of Tokyo

>  <COMMENT>  (108) 
SMILES=CCCC[Si](C)(I)CCCC
InChI=InChI=1S/C9H21ISi/c1-4-6-8-11(3,10)9-7-5-2/h4-9H2,1-3H3
computed SMILES=I[Si](C)(CCCC)CCCC
accession=JP011968
date=2016.01.19 (Created 2008.10.21, modified 2011.05.06)
author=ISHIKAWA M, HIROSHIMA UNIV. FAC. TEQUNOLOGY
license=CC BY-NC-SA
exact mass=284.04572
ionization energy=70 eV
ion type=[M]+*
computed spectral entropy=2.067660181422731
computed normalized entropy=0.7022255159820219
SPLASH=splash10-0a4i-9400000000-f9284fed2fc188c1d2dd
submitter=submitter = University of Tokyo Team (Faculty of Engineering, University of Tokyo)
MoNA Rating=3.75

>  <NUM PEAKS>  (108) 
19

>  <MASS SPECTRAL PEAKS>  (108) 
53 2.1
55 9.5
56 1.1
57 4.2
59 99.99
60 8.4
61 3.2
71 5.3
73 42.1
74 3.2
99 2.1
101 32.6
102 3.2
157 40
158 5.3
170 1.1
171 8.4
185 1.9
227 1.3

>  <PREDICTED SPECTRUM>  (108) 
15 22
25 17
26 99
27 345
28 171
29 499
30 148
31 145
37 17
38 62
39 267
40 110
41 487
42 203
43 436
44 171
45 238
46 58
47 126
49 44
50 29
51 147
52 104
53 194
54 110
55 334
56 270
57 417
58 233
59 525
60 141
61 159
62 33
63 116
65 63
66 40
67 148
68 79
69 314
70 149
71 264
72 193
73 230
74 26
75 73
77 68
78 139
79 210
80 42
81 105
82 49
83 120
84 101
85 211
86 209
87 82
88 45
89 91
93 5
97 49
98 115
99 220
100 192
101 167
102 47
103 119
104 103
105 72
107 88
109 3
113 170
114 122
115 317
116 93
117 106
125 77
126 2
127 170
128 98
129 156
131 13
141 153
142 141
143 87
144 31
151 5
153 101
154 0
155 122
156 18
157 597
158 214
159 13
169 87
170 47
171 529
172 212
173 11
183 17
185 41
186 12
197 148
213 50
225 91
226 65
227 999
228 357
229 239
230 32
284 54

$$$$

     RDKit          2D

 22 23  0  0  0  0  0  0  0  0999 V2000
    7.7962    0.7508    0.0000 C   0  0  0  0  0  0  0  0  0  0  0  0
    0.8491   -4.0587    0.0000 C   0  0  0  0  0  0  0  0  0  0  0  0
    1.7509   -4.0587    0.0000 C   0  0  0  0  0  0  0  0  0  0  0  0
    1.7509    4.0587    0.0000 C   0  0  0  0  0  0  0  0  0  0  0  0
    0.8491    4.0587    0.0000 C   0  0  0  0  0  0  0  0  0  0  0  0
    6.4970    1.5006    0.0000 C   0  0  0  0  0  0  0  0  0  0  0  0
    0.3359   -2.6492    0.0000 C   0  0  0  0  0  0  0  0  0  0  0  0
    2.2641   -2.6492    0.0000 C   0  0  0  0  0  0  0  0  0  0  0  0
    2.2641    2.6492    0.0000 C   0  0  0  0  0  0  0  0  0  0  0  0
    0.3359    2.6492    0.0000 C   0  0  0  0  0  0  0  0  0  0  0  0
    5.1981    0.7504    0.0000 C   0  0  0  0  0  0  0  0  0  0  0  0
   -2.6000   -0.7500    0.0000 C   0  0  0  0  0  0  0  0  0  0  0  0
   -2.6000    0.7500    0.0000 C   0  0  0  0  0  0  0  0  0  0  0  0
    3.8989    1.5002    0.0000 C   0  0  0  0  0  0  0  0  0  0  0  0
   -1.3000   -1.5000    0.0000 C   0  0  0  0  0  0  0  0  0  0  0  0
   -1.3000    1.5000    0.0000 C   0  0  0  0  0  0  0  0  0  0  0  0
    2.6000   -0.7500    0.0000 C   0  0  0  0  0  0  0  0  0  0  0  0
    2.6000    0.7500    0.0000 C   0  0  0  0  0  0  0  0  0  0  0  0
    0.0000   -0.7500    0.0000 C   0  0  0  0  0  0  0  0  0  0  0  0
    0.0000    0.7500    0.0000 C   0  0  0  0  0  0  0  0  0  0  0  0
    1.3000   -1.5000    0.0000 Si  0  0  0  0  0  4  0  0  0  0  0  0
    1.3000    1.5000    0.0000 Si  0  0  0  0  0  4  0  0  0  0  0  0
  6  1  1  0
  7  2  1  0
  8  3  1  0
  9  4  1  0
 10  5  1  0
 11  6  1  0
 13 12  2  0
 14 11  1  0
 15 12  1  0
 16 13  1  0
 18 14  1  0
 18 17  1  0
 19 15  2  0
 20 16  2  0
 20 19  1  0
 21  7  1  0
 21  8  1  0
 21 17  1  0
 21 19  1  0
 22  9  1  0
 22 10  1  0
 22 18  1  0
 22 20  1  0
M  END
>  <NAME>  (109) 
5-BUTYL-1,1,4,4-TETRAETHYL-2,3-BENZO-1,4-DISILACYCLOHEX-2-ENE

>  <SYNONYMS>  (109) 


>  <SPECTRUM TYPE>  (109) 
MS1

>  <INSTRUMENT TYPE>  (109) 
EI-B

>  <INSTRUMENT>  (109) 
SHIMADZU QP-1000

>  <ION MODE>  (109) 
P

>  <INCHIKEY>  (109) 
GOGDOWVJFBUYPC-UHFFFAOYSA-N

>  <FORMULA>  (109) 
C20H36Si2

>  <EXACT MASS>  (109) 
332.235554212

>  <MW>  (109) 
332

>  <ID>  (109) 
JP011967

>  <CONTRIBUTOR>  (109) 
University of Tokyo Team, {Faculty of Engineering, University of Tokyo

>  <COMMENT>  (109) 
SMILES=CCCCC(C1)[Si](CC)(CC)c(c2)c(ccc2)[Si](CC)(CC)1
InChI=InChI=1S/C20H36Si2/c1-6-11-14-18-17-21(7-2,8-3)19-15-12-13-16-20(19)22(18,9-4)10-5/h12-13,15-16,18H,6-11,14,17H2,1-5H3
computed SMILES=C=1C=CC2=C(C1)[Si](CC)(CC)CC(CCCC)[Si]2(CC)CC
accession=JP011967
date=2016.01.19 (Created 2008.10.21, modified 2011.05.06)
author=ISHIKAWA M, HIROSHIMA UNIV. FAC. TEQUNOLOGY
license=CC BY-NC-SA
exact mass=332.23555
ionization energy=70 eV
ion type=[M]+*
computed spectral entropy=3.4690364636278415
computed normalized entropy=0.8193077948939808
SPLASH=splash10-0f89-6695000000-b9901575df0164b3ad96
submitter=submitter = University of Tokyo Team (Faculty of Engineering, University of Tokyo)
MoNA Rating=3.75

>  <NUM PEAKS>  (109) 
69

>  <MASS SPECTRAL PEAKS>  (109) 
54 3.2
56 6.3
57 1.1
58 9.5
59 3.2
60 37.9
61 2.1
67 1.1
68 3.2
69 3.2
71 2.1
73 4.2
74 8.4
81 9.5
82 5.3
83 1.1
85 1.1
87 8.4
88 18.9
89 1.1
95 5.3
96 9.5
102 9.5
103 1.1
105 7.4
107 5.3
109 3.2
110 6.3
124 1.1
131 8.4
132 1.1
133 7.4
134 1.1
135 8.4
137 3.2
145 5.3
147 6.3
148 1.1
149 27.4
150 3.2
151 1.1
159 5.3
161 6.3
162 2.1
163 8.4
164 1.1
175 2.1
177 14.7
178 2.1
189 1.1
191 3.2
205 44.2
206 8.4
207 3.2
219 6.3
220 1.1
233 99.99
234 25.3
235 9.5
247 6.3
248 1.1
249 1.1
275 2.1
303 73.7
304 23.2
305 7.4
332 20
333 5.3
334 2.1

>  <PREDICTED SPECTRUM>  (109) 
27 37
29 120
41 54
43 2
45 21
53 37
54 10
55 264
56 125
57 247
58 149
59 412
60 264
61 130
65 45
67 107
68 64
69 304
70 34
71 144
72 47
73 281
74 100
75 90
77 61
79 82
81 297
82 113
83 109
84 6
85 78
86 45
87 160
88 123
89 108
91 45
93 100
94 80
95 349
96 59
97 8
99 4
100 10
101 126
102 117
103 138
105 195
106 63
107 186
108 41
109 310
110 196
115 52
117 99
118 2
119 212
120 20
121 163
122 42
123 82
125 14
129 46
130 18
131 238
132 47
133 317
134 125
135 398
136 138
137 109
145 178
146 75
147 302
148 85
149 462
150 228
151 98
157 9
159 203
161 227
162 126
163 298
164 72
173 57
174 1
175 173
176 9
177 388
178 70
187 9
189 194
190 23
191 244
192 74
201 71
202 26
203 221
204 11
205 601
206 209
207 65
217 66
219 199
220 74
233 999
234 382
235 187
245 74
247 189
248 65
249 120
273 17
275 145
276 66
277 39
287 14
289 28
303 788
304 406
305 285
306 73
331 14
332 308
333 131
334 9

$$$$

     RDKit          2D

 30 33  0  0  0  0  0  0  0  0999 V2000
   -5.1962   -6.0000    0.0000 C   0  0  0  0  0  0  0  0  0  0  0  0
   -2.5983   -1.4992    0.0000 C   0  0  0  0  0  0  0  0  0  0  0  0
    0.0006   -6.0006    0.0000 C   0  0  0  0  0  0  0  0  0  0  0  0
    2.1319   -8.7317    0.0000 C   0  0  0  0  0  0  0  0  0  0  0  0
    6.5639   -5.0103    0.0000 C   0  0  0  0  0  0  0  0  0  0  0  0
    3.6687    0.0007    0.0000 C   0  0  0  0  0  0  0  0  0  0  0  0
    0.8322   -7.9810    0.0000 C   0  0  0  0  0  0  0  0  0  0  0  0
    3.4308   -7.9815    0.0000 C   0  0  0  0  0  0  0  0  0  0  0  0
    5.5990   -6.1598    0.0000 C   0  0  0  0  0  0  0  0  0  0  0  0
    6.0507   -3.6008    0.0000 C   0  0  0  0  0  0  0  0  0  0  0  0
    4.6333   -1.1492    0.0000 C   0  0  0  0  0  0  0  0  0  0  0  0
    2.1916   -0.2600    0.0000 C   0  0  0  0  0  0  0  0  0  0  0  0
    0.8315   -6.4802    0.0000 C   0  0  0  0  0  0  0  0  0  0  0  0
    3.4301   -6.4806    0.0000 C   0  0  0  0  0  0  0  0  0  0  0  0
    4.1209   -5.8999    0.0000 C   0  0  0  0  0  0  0  0  0  0  0  0
    4.5725   -3.3409    0.0000 C   0  0  0  0  0  0  0  0  0  0  0  0
    4.1206   -2.5598    0.0000 C   0  0  0  0  0  0  0  0  0  0  0  0
    1.6789   -1.6706    0.0000 C   0  0  0  0  0  0  0  0  0  0  0  0
   -3.8976   -3.7492    0.0000 C   0  0  0  0  0  0  0  0  0  0  0  0
   -2.5976   -6.0008    0.0000 C   0  0  0  0  0  0  0  0  0  0  0  0
   -3.8971   -5.2500    0.0000 C   0  0  0  0  0  0  0  0  0  0  0  0
   -2.5986   -2.9992    0.0000 C   0  0  0  0  0  0  0  0  0  0  0  0
   -1.2986   -5.2508    0.0000 C   0  0  0  0  0  0  0  0  0  0  0  0
    2.1304   -5.7300    0.0000 C   0  0  0  0  0  0  0  0  0  0  0  0
    3.6076   -4.4905    0.0000 C   0  0  0  0  0  0  0  0  0  0  0  0
    2.6435   -2.8205    0.0000 C   0  0  0  0  0  0  0  0  0  0  0  0
   -1.2990   -3.7500    0.0000 C   0  0  0  0  0  0  0  0  0  0  0  0
   -0.0000   -3.0000    0.0000 C   0  0  0  0  0  0  0  0  0  0  0  0
    0.0000   -1.5000    0.0000 O   0  0  0  0  0  0  0  0  0  0  0  0
    2.1304   -4.2300    0.0000 Si  0  0  0  0  0  4  0  0  0  0  0  0
  7  4  2  0
  8  4  1  0
  9  5  2  0
 10  5  1  0
 11  6  2  0
 12  6  1  0
 13  7  1  0
 14  8  2  0
 15  9  1  0
 16 10  2  0
 17 11  1  0
 18 12  2  0
 21  1  1  0
 21 19  2  0
 21 20  1  0
 22  2  1  0
 22 19  1  0
 23  3  1  0
 23 20  2  0
 24 13  2  0
 24 14  1  0
 25 15  2  0
 25 16  1  0
 26 17  2  0
 26 18  1  0
 27 22  2  0
 27 23  1  0
 28 27  1  0
 29 28  2  0
 30 24  1  0
 30 25  1  0
 30 26  1  0
 30 28  1  0
M  END
>  <NAME>  (110) 
(2,4,6-TRIMETHYLBENZOYL)TRIPHENYLSILANE

>  <SYNONYMS>  (110) 


>  <SPECTRUM TYPE>  (110) 
MS1

>  <INSTRUMENT TYPE>  (110) 
EI-B

>  <INSTRUMENT>  (110) 
SHIMADZU QP-1000

>  <ION MODE>  (110) 
P

>  <INCHIKEY>  (110) 
CERAAUHWEOIMMB-UHFFFAOYSA-N

>  <FORMULA>  (110) 
C28H26OSi

>  <EXACT MASS>  (110) 
406.175291982

>  <MW>  (110) 
406

>  <ID>  (110) 
JP011965

>  <CONTRIBUTOR>  (110) 
University of Tokyo Team, {Faculty of Engineering, University of Tokyo

>  <COMMENT>  (110) 
SMILES=C([Si](c(c4)cccc4)(c(c3)cccc3)c(c2)cccc2)(=O)c(c1C)c(cc(C)c1)C
InChI=InChI=1S/C28H26OSi/c1-21-19-22(2)27(23(3)20-21)28(29)30(24-13-7-4-8-14-24,25-15-9-5-10-16-25)26-17-11-6-12-18-26/h4-20H,1-3H3
computed SMILES=O=C(C=1C(=CC(=CC1C)C)C)[Si](C=2C=CC=CC2)(C=3C=CC=CC3)C=4C=CC=CC4
accession=JP011965
date=2016.01.19 (Created 2008.10.21, modified 2011.05.06)
author=ISHIKAWA M, HIROSHIMA UNIV. FAC. TEQUNOLOGY
license=CC BY-NC-SA
exact mass=406.17529
ionization energy=70 eV
ion type=[M]+*
computed spectral entropy=3.125431112530059
computed normalized entropy=0.811769167276051
SPLASH=splash10-0a4l-2596100000-e510b53022b9b94a4d2e
submitter=submitter = University of Tokyo Team (Faculty of Engineering, University of Tokyo)
MoNA Rating=3.75

>  <NUM PEAKS>  (110) 
47

>  <MASS SPECTRAL PEAKS>  (110) 
51 4.2
52 4.2
53 14.7
55 1.1
65 2.1
77 6.3
78 3.2
79 5.3
91 8.4
103 5.3
105 15.8
106 1.1
115 1.1
117 2.1
119 7.4
129 2.1
147 9.5
148 1.1
155 6.3
179 2.1
180 8.4
181 21.1
182 3.2
199 15.8
200 3.2
205 1.1
206 23.2
207 5.3
255 1.1
257 4.2
259 99.99
260 25.3
261 6.3
288 3.2
299 1.1
314 1.1
316 27.4
317 7.4
318 1.1
329 6.3
330 3.2
392 55.8
393 18.9
394 4.2
406 11.6
407 6.3
408 2.1

>  <PREDICTED SPECTRUM>  (110) 
27 99
28 55
29 10
39 137
40 33
41 1
42 60
43 73
44 58
50 47
51 267
52 145
53 278
54 40
55 97
57 68
63 49
65 111
66 44
67 119
69 77
74 1
76 22
77 509
78 403
79 343
80 67
81 162
82 48
83 123
91 300
92 30
93 140
95 81
101 22
102 28
103 385
104 105
105 777
106 273
107 86
115 104
116 5
117 214
118 97
119 205
120 257
121 198
122 251
127 14
128 196
129 267
130 152
131 260
132 151
133 139
134 78
135 72
136 15
141 178
142 28
145 137
146 194
147 146
148 22
149 37
150 56
151 87
152 160
153 122
154 57
155 294
156 19
157 67
158 17
159 81
161 37
165 174
166 76
167 141
168 79
170 17
171 90
173 51
175 225
176 100
177 53
178 51
179 266
180 257
181 508
182 180
183 270
184 166
185 114
186 50
191 43
192 57
193 204
194 226
195 479
196 40
197 702
198 417
199 381
200 16
201 45
202 53
203 61
205 88
206 117
207 293
208 301
209 334
210 175
211 13
212 37
219 77
220 60
221 93
222 40
226 146
234 4
235 106
236 106
237 75
238 108
239 63
250 288
251 494
252 339
253 83
254 31
255 49
256 39
257 132
258 71
259 985
261 56
266 51
269 50
270 83
271 12
273 1
284 165
285 696
286 591
287 362
288 131
293 47
294 77
304 9
311 196
312 53
313 297
314 61
326 128
327 661
328 759
329 441
330 118
389 226
390 29
391 927
392 433
393 89
405 385
406 999
407 681
408 164
409 101

$$$$

     RDKit          2D

 18 18  0  0  0  0  0  0  0  0999 V2000
    5.1975   -1.4994    0.0000 C   0  0  0  0  0  0  0  0  0  0  0  0
    1.2995    3.7500    0.0000 C   0  0  0  0  0  0  0  0  0  0  0  0
    7.7951    1.5010    0.0000 C   0  0  0  0  0  0  0  0  0  0  0  0
    6.4964   -0.7492    0.0000 C   0  0  0  0  0  0  0  0  0  0  0  0
   -2.5989   -1.5002    0.0000 C   0  0  0  0  0  0  0  0  0  0  0  0
    5.1968    3.0006    0.0000 C   0  0  0  0  0  0  0  0  0  0  0  0
    3.8983   -0.7496    0.0000 C   0  0  0  0  0  0  0  0  0  0  0  0
    2.5987    3.0002    0.0000 C   0  0  0  0  0  0  0  0  0  0  0  0
   -1.3000    0.7500    0.0000 C   0  0  0  0  0  0  0  0  0  0  0  0
   -0.0000   -1.5000    0.0000 C   0  0  0  0  0  0  0  0  0  0  0  0
    0.0000    1.5000    0.0000 C   0  0  0  0  0  0  0  0  0  0  0  0
    1.3000   -0.7500    0.0000 C   0  0  0  0  0  0  0  0  0  0  0  0
    6.4962    0.7508    0.0000 C   0  0  0  0  0  0  0  0  0  0  0  0
   -1.3000   -0.7500    0.0000 C   0  0  0  0  0  0  0  0  0  0  0  0
    5.1970    1.5006    0.0000 C   0  0  0  0  0  0  0  0  0  0  0  0
    1.3000    0.7500    0.0000 C   0  0  0  0  0  0  0  0  0  0  0  0
    3.8981    0.7504    0.0000 Si  0  0  0  0  0  4  0  0  0  0  0  0
    2.5989    1.5002    0.0000 Si  0  0  0  0  0  4  0  0  0  0  0  0
  7  1  1  0
  8  2  1  0
 11  9  2  0
 12 10  1  0
 13  3  1  0
 13  4  1  0
 14  5  1  0
 14  9  1  0
 14 10  2  0
 15  6  1  0
 15 13  1  0
 16 11  1  0
 16 12  2  0
 17  7  1  0
 17 15  1  0
 18  8  1  0
 18 16  1  0
 18 17  1  0
M  END
>  <NAME>  (111) 
1,2-DIETHYL-1,2-DIMETHYLPROPYL(PARA-TOLYL)DISILANE

>  <SYNONYMS>  (111) 


>  <SPECTRUM TYPE>  (111) 
MS1

>  <INSTRUMENT TYPE>  (111) 
EI-B

>  <INSTRUMENT>  (111) 
SHIMADZU QP-1000

>  <ION MODE>  (111) 
P

>  <INCHIKEY>  (111) 
ORBZJDGFDGGPEG-UHFFFAOYSA-N

>  <FORMULA>  (111) 
C16H30Si2

>  <EXACT MASS>  (111) 
278.18860402

>  <MW>  (111) 
278

>  <ID>  (111) 
JP011964

>  <CONTRIBUTOR>  (111) 
University of Tokyo Team, {Faculty of Engineering, University of Tokyo

>  <COMMENT>  (111) 
SMILES=Cc(c1)ccc(c1)[SiH](CC)[SiH](CC)C(C)C(C)C
InChI=InChI=1S/C16H30Si2/c1-7-17(15(6)13(3)4)18(8-2)16-11-9-14(5)10-12-16/h9-13,15,17-18H,7-8H2,1-6H3
computed SMILES=C=1C=C(C=CC1C)[SiH](CC)[SiH](CC)C(C)C(C)C
accession=JP011964
date=2016.01.19 (Created 2008.10.21, modified 2011.05.06)
author=ISHIKAWA M, HIROSHIMA UNIV. FAC. TEQUNOLOGY
license=CC BY-NC-SA
exact mass=278.1886
ionization energy=70 eV
ion type=[M]+*
computed spectral entropy=2.953973828309674
computed normalized entropy=0.7512982782664481
SPLASH=splash10-0ab9-9300000000-44dc5deedec02d5cfbc4
submitter=submitter = University of Tokyo Team (Faculty of Engineering, University of Tokyo)
MoNA Rating=3.75

>  <NUM PEAKS>  (111) 
51

>  <MASS SPECTRAL PEAKS>  (111) 
51 2.1
53 22.1
54 2.1
55 15.8
56 3.2
57 13.7
58 15.8
59 78.9
60 4.2
61 1.1
65 1.1
67 5.3
69 7.4
70 2.1
71 7.4
72 12.6
73 99.99
74 7.4
75 3.2
79 1.1
81 1.1
83 1.1
85 3.2
86 2.1
87 9.5
88 1.1
91 2.1
93 3.2
95 1.1
105 2.1
107 3.2
114 1.1
115 6.3
119 9.5
120 1.1
121 3.2
133 1.1
135 45.3
136 5.3
137 1.1
148 1.1
149 4.2
163 18.3
164 3.2
165 1.1
177 1.1
179 5.9
180 1.1
191 1.5
207 3.2
278 3.6

>  <PREDICTED SPECTRUM>  (111) 
26 18
27 77
28 16
29 53
39 109
40 36
41 183
42 66
43 192
44 107
45 139
46 37
50 22
51 103
52 97
53 117
54 80
55 76
56 36
57 114
58 113
59 93
60 45
61 33
62 20
63 74
64 31
65 148
66 72
67 120
68 32
69 109
70 72
71 133
72 184
73 236
74 96
75 49
77 123
78 88
79 118
80 51
81 111
82 47
83 92
84 58
85 115
86 139
87 75
88 6
89 59
90 66
91 187
92 89
93 88
94 61
95 68
96 55
97 21
99 67
100 76
101 98
102 78
103 111
104 55
105 159
106 17
107 178
108 67
109 48
110 10
111 44
113 69
114 47
115 143
116 87
117 3
119 2
120 102
121 93
122 122
123 33
124 16
126 16
127 104
128 45
129 34
130 31
131 68
132 10
133 59
134 43
135 163
136 74
137 143
138 39
141 71
143 94
144 24
145 104
146 128
147 181
148 171
149 179
150 166
151 142
152 19
159 31
161 31
162 80
163 133
164 112
165 153
166 71
167 8
175 26
176 19
177 146
178 177
179 72
180 3
190 37
191 244
192 184
193 299
194 62
195 49
205 91
206 210
207 999
208 386
209 127
220 26
221 119
222 20
233 96
234 50
235 232
236 82
249 85
278 167
279 51
280 0

$$$$

     RDKit          2D

 22 23  0  0  0  0  0  0  0  0999 V2000
    2.1474    4.0587    0.0000 C   0  0  0  0  0  0  0  0  0  0  0  0
    6.4962    0.7508    0.0000 C   0  0  0  0  0  0  0  0  0  0  0  0
   -2.5989   -1.5002    0.0000 C   0  0  0  0  0  0  0  0  0  0  0  0
    7.7555   -3.8474    0.0000 C   0  0  0  0  0  0  0  0  0  0  0  0
    3.5629    2.6494    0.0000 C   0  0  0  0  0  0  0  0  0  0  0  0
    2.9341   -0.3988    0.0000 C   0  0  0  0  0  0  0  0  0  0  0  0
    1.6346    2.6491    0.0000 C   0  0  0  0  0  0  0  0  0  0  0  0
    5.1970    1.5006    0.0000 C   0  0  0  0  0  0  0  0  0  0  0  0
   -1.3000    0.7500    0.0000 C   0  0  0  0  0  0  0  0  0  0  0  0
    0.0000   -1.5000    0.0000 C   0  0  0  0  0  0  0  0  0  0  0  0
    5.3139   -2.9590    0.0000 C   0  0  0  0  0  0  0  0  0  0  0  0
    7.3040   -1.2880    0.0000 C   0  0  0  0  0  0  0  0  0  0  0  0
    0.0000    1.5000    0.0000 C   0  0  0  0  0  0  0  0  0  0  0  0
    1.3000   -0.7500    0.0000 C   0  0  0  0  0  0  0  0  0  0  0  0
    4.3496   -1.8090    0.0000 C   0  0  0  0  0  0  0  0  0  0  0  0
    6.3397   -0.1380    0.0000 C   0  0  0  0  0  0  0  0  0  0  0  0
   -1.3000   -0.7500    0.0000 C   0  0  0  0  0  0  0  0  0  0  0  0
    6.7911   -2.6985    0.0000 C   0  0  0  0  0  0  0  0  0  0  0  0
    1.3000    0.7500    0.0000 C   0  0  0  0  0  0  0  0  0  0  0  0
    4.8624   -0.3985    0.0000 C   0  0  0  0  0  0  0  0  0  0  0  0
    2.5989    1.5002    0.0000 Si  0  0  0  0  0  4  0  0  0  0  0  0
    3.8981    0.7504    0.0000 Si  0  0  0  0  0  4  0  0  0  0  0  0
  7  1  1  0
  8  2  1  0
 13  9  2  0
 14 10  1  0
 15 11  2  0
 16 12  1  0
 17  3  1  0
 17  9  1  0
 17 10  2  0
 18  4  1  0
 18 11  1  0
 18 12  2  0
 19 13  1  0
 19 14  2  0
 20 15  1  0
 20 16  2  0
 21  5  1  0
 21  7  1  0
 21 19  1  0
 22  6  1  0
 22  8  1  0
 22 20  1  0
 22 21  1  0
M  END
>  <NAME>  (112) 
1,2-DIETHYL-1,2-DIMETHYL-1,2-DI(PARA-TOLYL)DISILANE

>  <SYNONYMS>  (112) 


>  <SPECTRUM TYPE>  (112) 
MS1

>  <INSTRUMENT TYPE>  (112) 
EI-B

>  <INSTRUMENT>  (112) 
SHIMADZU QP-1000

>  <ION MODE>  (112) 
P

>  <INCHIKEY>  (112) 
DPXWZMNCMNSKSS-UHFFFAOYSA-N

>  <FORMULA>  (112) 
C20H30Si2

>  <EXACT MASS>  (112) 
326.18860401999996

>  <MW>  (112) 
326

>  <ID>  (112) 
JP011963

>  <CONTRIBUTOR>  (112) 
University of Tokyo Team, {Faculty of Engineering, University of Tokyo

>  <COMMENT>  (112) 
SMILES=Cc(c2)ccc(c2)[Si](C)(CC)[Si](C)(CC)c(c1)ccc(C)c1
InChI=InChI=1S/C20H30Si2/c1-7-21(5,19-13-9-17(3)10-14-19)22(6,8-2)20-15-11-18(4)12-16-20/h9-16H,7-8H2,1-6H3
computed SMILES=C=1C=C(C=CC1C)[Si](C)(CC)[Si](C2=CC=C(C=C2)C)(C)CC
accession=JP011963
date=2016.01.19 (Created 2008.10.21, modified 2011.05.06)
author=ISHIKAWA M, HIROSHIMA UNIV. FAC. TEQUNOLOGY
license=CC BY-NC-SA
exact mass=326.1886
ionization energy=70 eV
ion type=[M]+*
computed spectral entropy=2.870328400183593
computed normalized entropy=0.7679459913051045
SPLASH=splash10-000i-0932000000-b6880149b6ecdf0a2527
submitter=submitter = University of Tokyo Team (Faculty of Engineering, University of Tokyo)
MoNA Rating=3.75

>  <NUM PEAKS>  (112) 
42

>  <MASS SPECTRAL PEAKS>  (112) 
52 1.1
53 4.2
55 1.1
59 2.1
67 1.1
69 1.1
91 4.2
93 5.3
105 4.2
107 6.3
119 16.8
120 2.1
121 2.1
131 2.1
133 2.1
134 7.4
135 99.99
136 12.6
137 3.2
149 3.2
162 3.2
163 38.9
164 6.3
165 1.1
177 1.1
209 1.1
211 3.2
223 1.1
225 10.5
226 1.1
239 13.7
240 3.2
255 1.1
269 27.4
270 7.4
271 2.1
297 14.7
298 3.2
311 2.1
326 37.9
327 12.6
328 3.2

>  <PREDICTED SPECTRUM>  (112) 
27 10
29 4
39 27
40 10
41 35
45 72
46 2
52 18
53 60
54 6
55 36
57 2
59 194
60 37
65 160
66 11
67 50
69 22
73 99
77 88
78 30
79 120
81 13
91 238
92 69
93 65
103 2
104 26
105 183
106 81
107 130
115 7
119 437
120 242
121 205
122 61
133 88
134 281
135 999
136 141
137 39
146 36
147 115
148 83
149 214
150 9
152 8
160 47
161 89
162 162
163 335
164 183
165 84
175 29
176 36
177 91
178 142
179 98
211 67
214 6
235 6
237 11
238 9
239 256
240 230
241 108
251 37
254 43
255 37
269 717
270 382
271 176
297 622
298 226
299 104
311 91
312 42
326 649
327 363
328 179
329 41

$$$$

     RDKit          2D

 22 23  0  0  0  0  0  0  0  0999 V2000
    8.6000    2.5981    0.0000 C   0  0  0  0  0  0  0  0  0  0  0  0
    1.9962   -3.7934    0.0000 C   0  0  0  0  0  0  0  0  0  0  0  0
    3.0205   -3.4591    0.0000 C   0  0  0  0  0  0  0  0  0  0  0  0
    3.0205    3.4591    0.0000 C   0  0  0  0  0  0  0  0  0  0  0  0
    1.9962    3.7934    0.0000 C   0  0  0  0  0  0  0  0  0  0  0  0
    7.1000    2.5981    0.0000 C   0  0  0  0  0  0  0  0  0  0  0  0
    1.1124   -2.5814    0.0000 C   0  0  0  0  0  0  0  0  0  0  0  0
    3.0195   -1.9591    0.0000 C   0  0  0  0  0  0  0  0  0  0  0  0
    3.0195    1.9591    0.0000 C   0  0  0  0  0  0  0  0  0  0  0  0
    1.1124    2.5814    0.0000 C   0  0  0  0  0  0  0  0  0  0  0  0
    6.3500    1.2990    0.0000 C   0  0  0  0  0  0  0  0  0  0  0  0
    4.8500    1.2990    0.0000 C   0  0  0  0  0  0  0  0  0  0  0  0
   -2.3100   -0.7500    0.0000 C   0  0  0  0  0  0  0  0  0  0  0  0
   -2.3100    0.7500    0.0000 C   0  0  0  0  0  0  0  0  0  0  0  0
   -1.0100   -1.5000    0.0000 C   0  0  0  0  0  0  0  0  0  0  0  0
   -1.0100    1.5000    0.0000 C   0  0  0  0  0  0  0  0  0  0  0  0
    4.1000   -0.0000    0.0000 C   0  0  0  0  0  0  0  0  0  0  0  0
    0.2900   -0.7500    0.0000 C   0  0  0  0  0  0  0  0  0  0  0  0
    0.2900    0.7500    0.0000 C   0  0  0  0  0  0  0  0  0  0  0  0
    2.6000    0.0000    0.0000 C   0  0  0  0  0  0  0  0  0  0  0  0
    1.7200   -1.2100    0.0000 Si  0  0  0  0  0  4  0  0  0  0  0  0
    1.7200    1.2100    0.0000 Si  0  0  0  0  0  4  0  0  0  0  0  0
  6  1  1  0
  7  2  1  0
  8  3  1  0
  9  4  1  0
 10  5  1  0
 11  6  1  0
 12 11  1  0
 14 13  2  0
 15 13  1  0
 16 14  1  0
 17 12  1  0
 18 15  2  0
 19 16  2  0
 19 18  1  0
 20 17  1  0
 21  7  1  0
 21  8  1  0
 21 18  1  0
 21 20  1  0
 22  9  1  0
 22 10  1  0
 22 19  1  0
 22 20  1  0
M  END
>  <NAME>  (113) 
4,5-BENZO-1,1,3,3-TETRAETHYL-2-PENTYL-1,3-DISILACYCLOPENT-4-ENE

>  <SYNONYMS>  (113) 


>  <SPECTRUM TYPE>  (113) 
MS1

>  <INSTRUMENT TYPE>  (113) 
EI-B

>  <INSTRUMENT>  (113) 
SHIMADZU QP-1000

>  <ION MODE>  (113) 
P

>  <INCHIKEY>  (113) 
AVYPDCPCKCFYLU-UHFFFAOYSA-N

>  <FORMULA>  (113) 
C20H36Si2

>  <EXACT MASS>  (113) 
332.235554212

>  <MW>  (113) 
332

>  <ID>  (113) 
JP011962

>  <CONTRIBUTOR>  (113) 
University of Tokyo Team, {Faculty of Engineering, University of Tokyo

>  <COMMENT>  (113) 
SMILES=CCCCCC([Si](CC)(CC)1)[Si](CC)(CC)c(c2)c(ccc2)1
InChI=InChI=1S/C20H36Si2/c1-6-11-12-17-20-21(7-2,8-3)18-15-13-14-16-19(18)22(20,9-4)10-5/h13-16,20H,6-12,17H2,1-5H3
computed SMILES=C=1C=CC2=C(C1)[Si](CC)(CC)C(CCCCC)[Si]2(CC)CC
accession=JP011962
date=2016.01.19 (Created 2008.10.21, modified 2011.05.06)
author=ISHIKAWA M, HIROSHIMA UNIV. FAC. TEQUNOLOGY
license=CC BY-NC-SA
exact mass=332.23555
ionization energy=70 eV
ion type=[M]+*
computed spectral entropy=3.710546069347086
computed normalized entropy=0.8397103219338127
SPLASH=splash10-0a4i-9753000000-37e56a9ee43fe729d3e5
submitter=submitter = University of Tokyo Team (Faculty of Engineering, University of Tokyo)
MoNA Rating=3.75

>  <NUM PEAKS>  (113) 
83

>  <MASS SPECTRAL PEAKS>  (113) 
53 5.3
55 17.9
57 23.2
59 99.99
60 6.3
61 2.1
67 2.1
68 4.2
69 5.3
71 5.3
73 11.6
74 6.3
75 1.1
81 15.8
82 5.3
83 3.2
85 4.2
87 18.9
88 15.8
93 1.1
94 1.1
95 6.3
96 8.4
101 2.1
102 6.3
103 1.1
105 11.6
106 1.1
107 8.4
108 1.1
109 3.2
110 5.3
115 3.2
119 2.1
121 1.1
131 14.7
132 2.1
133 11.6
134 2.1
135 11.6
136 1.1
137 4.2
143 2.1
145 8.4
146 1.1
147 8.4
148 2.1
149 30.5
150 4.2
151 2.1
159 9.5
160 1.1
161 8.4
162 2.1
163 11.6
164 2.1
173 1.1
175 3.2
177 18.9
178 3.2
187 1.1
189 2.1
191 5.3
203 2.1
205 46.3
206 9.5
207 3.2
215 1.1
219 8.4
220 1.1
221 2.1
233 51.6
234 17.9
235 6.3
247 6.3
248 1.1
249 3.2
275 3.2
303 65.3
304 20
305 10.5
306 2.1
332 4.2

>  <PREDICTED SPECTRUM>  (113) 
25 9
26 51
27 166
29 281
31 35
39 107
40 29
41 287
42 33
43 104
45 194
47 60
49 12
50 2
51 15
53 156
54 101
55 496
56 181
57 476
58 229
59 662
60 435
61 383
62 102
63 100
64 7
65 104
67 193
68 140
69 522
70 189
71 341
72 82
73 635
74 229
75 254
76 111
77 164
79 169
81 380
82 167
83 361
84 47
85 224
86 125
87 416
88 241
89 217
90 83
91 171
93 155
94 37
95 379
96 76
97 78
99 91
100 72
101 262
102 156
103 249
104 97
105 301
106 88
107 373
108 65
109 347
110 127
115 138
117 165
118 82
119 347
120 84
121 197
122 45
123 104
125 39
127 6
129 146
130 62
131 359
132 145
133 457
134 200
135 517
136 186
137 165
143 32
145 240
146 89
147 403
148 173
149 609
150 322
151 184
157 54
159 316
160 103
161 348
162 74
163 384
164 112
173 208
174 14
175 226
176 56
177 518
178 94
187 10
189 240
191 258
192 28
201 51
203 250
205 940
206 417
207 184
217 100
219 305
220 86
231 23
233 856
234 352
235 102
245 91
247 301
248 59
249 250
273 22
275 126
289 9
303 999
304 453
305 348
306 115
332 239
333 79
334 2

$$$$

     RDKit          2D

  8  7  0  0  0  0  0  0  0  0999 V2000
    1.6740    0.1005    0.0000 C   0  0  0  0  0  0  0  0  0  0  0  0
   -0.9240    1.6005    0.0000 C   0  0  0  0  0  0  0  0  0  0  0  0
   -0.3750   -0.4486    0.0000 C   0  0  0  0  0  0  0  0  0  0  0  0
    2.4240    1.3995    0.0000 C   0  0  0  0  0  0  0  0  0  0  0  0
    1.8750    3.4486    0.0000 C   0  0  0  0  0  0  0  0  0  0  0  0
    0.3750    0.8505    0.0000 C   0  0  0  0  0  0  0  0  0  0  0  0
   -0.1740    2.8995    0.0000 I   0  0  0  0  0  0  0  0  0  0  0  0
    1.1250    2.1495    0.0000 Si  0  0  0  0  0  4  0  0  0  0  0  0
  6  1  1  0
  6  2  1  0
  6  3  1  0
  8  4  1  0
  8  5  1  0
  8  6  1  0
  8  7  1  0
M  END
>  <NAME>  (114) 
TERT-BUTYLIODODIMETHYLSILANE

>  <SYNONYMS>  (114) 


>  <SPECTRUM TYPE>  (114) 
MS1

>  <INSTRUMENT TYPE>  (114) 
EI-B

>  <INSTRUMENT>  (114) 
SHIMADZU QP-1000

>  <ION MODE>  (114) 
P

>  <INCHIKEY>  (114) 
ODGTVVCTZIKYTG-UHFFFAOYSA-N

>  <FORMULA>  (114) 
C6H15ISi

>  <EXACT MASS>  (114) 
241.99877501

>  <MW>  (114) 
242

>  <ID>  (114) 
JP011961

>  <CONTRIBUTOR>  (114) 
University of Tokyo Team, {Faculty of Engineering, University of Tokyo

>  <COMMENT>  (114) 
SMILES=CC(C)(C)[Si](C)(C)I
InChI=InChI=1S/C6H15ISi/c1-6(2,3)8(4,5)7/h1-5H3
computed SMILES=I[Si](C)(C)C(C)(C)C
accession=JP011961
date=2016.01.19 (Created 2008.10.21, modified 2011.05.06)
author=ISHIKAWA M, HIROSHIMA UNIV. FAC. TEQUNOLOGY
license=CC BY-NC-SA
exact mass=241.99877
ionization energy=70 eV
ion type=[M]+*
computed spectral entropy=2.1614288780792834
computed normalized entropy=0.73407154754186
SPLASH=splash10-0ab9-9000000000-715f772a1944f168c806
submitter=submitter = University of Tokyo Team (Faculty of Engineering, University of Tokyo)
MoNA Rating=3.75

>  <NUM PEAKS>  (114) 
19

>  <MASS SPECTRAL PEAKS>  (114) 
53 6.3
54 2.1
55 12.1
56 36.3
57 58.9
58 29.5
59 49.5
60 3.2
73 99.99
74 8.4
75 5.8
115 12.6
116 1.1
154 0.6
155 0.8
157 1.2
185 12.3
186 1.3
242 1.3

>  <PREDICTED SPECTRUM>  (114) 
26 27
27 128
28 36
29 201
31 127
32 7
38 7
39 179
40 73
41 284
42 58
43 134
44 45
45 129
46 10
47 25
50 21
51 59
52 1
53 125
54 26
55 267
56 306
57 518
58 287
59 436
60 82
61 83
67 6
68 1
69 43
70 36
71 11
72 150
73 999
74 227
75 260
76 74
87 15
97 14
99 45
100 125
101 36
111 7
115 803
116 210
117 72
127 71
141 43
155 189
157 98
171 25
185 681
186 228
187 80
242 223
243 56
244 10

$$$$

     RDKit          2D

 15 16  0  0  0  0  0  0  0  0999 V2000
   -2.2746   -3.5637    0.0000 C   0  0  0  0  0  0  0  0  0  0  0  0
    5.5225   -3.5625    0.0000 C   0  0  0  0  0  0  0  0  0  0  0  0
   -2.2742   -2.0629    0.0000 C   0  0  0  0  0  0  0  0  0  0  0  0
   -0.9756   -4.3137    0.0000 C   0  0  0  0  0  0  0  0  0  0  0  0
    4.2225   -4.3125    0.0000 C   0  0  0  0  0  0  0  0  0  0  0  0
    5.5225   -2.0625    0.0000 C   0  0  0  0  0  0  0  0  0  0  0  0
   -0.9746   -1.3121    0.0000 C   0  0  0  0  0  0  0  0  0  0  0  0
    0.3239   -3.5629    0.0000 C   0  0  0  0  0  0  0  0  0  0  0  0
    2.9225   -3.5625    0.0000 C   0  0  0  0  0  0  0  0  0  0  0  0
    4.2225   -1.3125    0.0000 C   0  0  0  0  0  0  0  0  0  0  0  0
    1.6238    0.1877    0.0000 C   0  0  0  0  0  0  0  0  0  0  0  0
    0.3244   -2.0621    0.0000 C   0  0  0  0  0  0  0  0  0  0  0  0
    2.9225   -2.0625    0.0000 C   0  0  0  0  0  0  0  0  0  0  0  0
    2.9230    0.9375    0.0000 I   0  0  0  0  0  0  0  0  0  0  0  0
    1.6236   -1.3123    0.0000 Si  0  0  0  0  0  4  0  0  0  0  0  0
  3  1  2  0
  4  1  1  0
  5  2  2  0
  6  2  1  0
  7  3  1  0
  8  4  2  0
  9  5  1  0
 10  6  2  0
 12  7  2  0
 12  8  1  0
 13  9  2  0
 13 10  1  0
 14 11  1  0
 15 11  1  0
 15 12  1  0
 15 13  1  0
M  END
>  <NAME>  (115) 
IODOMETHYLDIPHENYLSILANE

>  <SYNONYMS>  (115) 


>  <SPECTRUM TYPE>  (115) 
MS1

>  <INSTRUMENT TYPE>  (115) 
EI-B

>  <INSTRUMENT>  (115) 
SHIMADZU QP-1000

>  <ION MODE>  (115) 
P

>  <INCHIKEY>  (115) 
WDRILLYELKEKFG-UHFFFAOYSA-N

>  <FORMULA>  (115) 
C13H13ISi

>  <EXACT MASS>  (115) 
323.983124946

>  <MW>  (115) 
324

>  <ID>  (115) 
JP011960

>  <CONTRIBUTOR>  (115) 
University of Tokyo Team, {Faculty of Engineering, University of Tokyo

>  <COMMENT>  (115) 
SMILES=IC[SiH](c(c2)cccc2)c(c1)cccc1
InChI=InChI=1S/C13H13ISi/c14-11-15(12-7-3-1-4-8-12)13-9-5-2-6-10-13/h1-10,15H,11H2
computed SMILES=IC[SiH](C=1C=CC=CC1)C=2C=CC=CC2
accession=JP011960
date=2016.01.19 (Created 2008.10.21, modified 2011.05.06)
author=ISHIKAWA M, HIROSHIMA UNIV. FAC. TEQUNOLOGY
license=CC BY-NC-SA
exact mass=323.98312
ionization energy=70 eV
ion type=[M]+*
computed spectral entropy=2.737653274250741
computed normalized entropy=0.7526016303230777
SPLASH=splash10-0002-6910000000-b0788b2e832c055e6184
submitter=submitter = University of Tokyo Team (Faculty of Engineering, University of Tokyo)
MoNA Rating=3.75

>  <NUM PEAKS>  (115) 
38

>  <MASS SPECTRAL PEAKS>  (115) 
52 9.5
53 24.7
54 33.7
55 3.2
56 1.1
63 8.4
65 6.3
66 2.1
67 3.2
77 8.4
78 2.1
79 5.3
91 6.3
93 4.2
103 2.1
105 13.7
106 1.1
119 3.2
155 2.1
165 2.1
180 2.1
181 5.3
195 5.3
197 99.99
198 18.9
199 5.3
217 7.4
218 1.1
219 2.1
232 2.1
247 3.2
261 2.9
262 0.8
263 3
276 1.2
278 1.1
309 3.3
324 0.7

>  <PREDICTED SPECTRUM>  (115) 
26 20
27 43
28 9
29 4
39 126
40 7
41 185
43 98
45 76
50 99
51 173
52 98
53 201
54 87
55 142
57 19
62 14
63 89
64 11
65 111
66 110
67 145
69 70
73 73
74 18
77 182
78 201
79 85
80 14
81 50
82 32
83 40
85 25
86 1
90 18
91 171
92 20
93 34
94 9
95 35
99 4
105 316
106 106
111 33
119 99
120 72
121 49
122 23
123 54
124 15
125 7
137 3
152 4
153 60
155 40
165 186
181 126
195 197
197 999
198 484
199 497
203 45
246 28
247 83
248 1
323 19
324 93

$$$$

     RDKit          2D

  8  7  0  0  0  0  0  0  0  0999 V2000
    1.1262    2.5493    0.0000 C   0  0  0  0  0  0  0  0  0  0  0  0
   -4.0699    2.5493    0.0000 C   0  0  0  0  0  0  0  0  0  0  0  0
   -3.9132    1.6607    0.0000 C   0  0  0  0  0  0  0  0  0  0  0  0
   -0.1728    3.2993    0.0000 C   0  0  0  0  0  0  0  0  0  0  0  0
   -2.7709    3.2993    0.0000 C   0  0  0  0  0  0  0  0  0  0  0  0
   -2.4360    1.4002    0.0000 C   0  0  0  0  0  0  0  0  0  0  0  0
   -0.5077    1.4002    0.0000 I   0  0  0  0  0  0  0  0  0  0  0  0
   -1.4718    2.5493    0.0000 Si  0  0  0  0  0  4  0  0  0  0  0  0
  4  1  1  0
  5  2  1  0
  6  3  1  0
  8  4  1  0
  8  5  1  0
  8  6  1  0
  8  7  1  0
M  END
>  <NAME>  (116) 
TRIETHYLIODOSILANE

>  <SYNONYMS>  (116) 


>  <SPECTRUM TYPE>  (116) 
MS1

>  <INSTRUMENT TYPE>  (116) 
EI-B

>  <INSTRUMENT>  (116) 
SHIMADZU QP-1000

>  <ION MODE>  (116) 
P

>  <INCHIKEY>  (116) 
PPLMQFARLJLZAO-UHFFFAOYSA-N

>  <FORMULA>  (116) 
C6H15ISi

>  <EXACT MASS>  (116) 
241.99877501

>  <MW>  (116) 
242

>  <ID>  (116) 
JP011959

>  <CONTRIBUTOR>  (116) 
University of Tokyo Team, {Faculty of Engineering, University of Tokyo

>  <COMMENT>  (116) 
computed SMILES=I[Si](CC)(CC)CC
SMILES=CC[Si](I)(CC)CC
InChI=InChI=1S/C6H15ISi/c1-4-8(7,5-2)6-3/h4-6H2,1-3H3
accession=JP011959
date=2016.01.19 (Created 2008.10.21, modified 2011.05.06)
license=CC BY-NC-SA
author=ISHIKAWA M, HIROSHIMA UNIV. FAC. TEQUNOLOGY
exact mass=241.99877
ionization energy=70 eV
ion type=[M]+*
computed spectral entropy=2.306990104398172
computed normalized entropy=0.746346949033878
SPLASH=splash10-0aor-9500000000-179f1a7d44f4ca874e96
submitter=submitter = University of Tokyo Team (Faculty of Engineering, University of Tokyo)
MoNA Rating=3.75

>  <NUM PEAKS>  (116) 
22

>  <MASS SPECTRAL PEAKS>  (116) 
53 12.1
54 4.2
55 17.9
56 7.9
57 25.3
58 26.3
59 81.6
60 5.8
61 2.1
87 51.6
88 4.2
89 1.1
115 99.99
116 11.6
117 2.6
155 2.6
156 1.1
157 6.3
185 12.6
213 4.6
214 0.6
242 1.5

>  <PREDICTED SPECTRUM>  (116) 
25 1
26 13
27 41
41 44
42 64
45 103
51 17
53 110
54 132
55 320
56 208
57 185
58 475
59 696
60 218
61 130
62 15
63 53
65 37
66 43
67 26
68 89
70 103
72 19
79 30
84 33
86 26
87 564
88 217
89 80
96 3
97 18
115 999
116 267
117 278
138 47
154 36
155 99
157 17
185 356
213 213
242 156

$$$$

     RDKit          2D

  7  6  0  0  0  0  0  0  0  0999 V2000
    1.2545    2.3272    0.0000 C   0  0  0  0  0  0  0  0  0  0  0  0
   -3.9417    2.3272    0.0000 C   0  0  0  0  0  0  0  0  0  0  0  0
   -0.0445    3.0772    0.0000 C   0  0  0  0  0  0  0  0  0  0  0  0
   -2.6426    3.0772    0.0000 C   0  0  0  0  0  0  0  0  0  0  0  0
   -2.3078    1.1781    0.0000 I   0  0  0  0  0  0  0  0  0  0  0  0
   -0.3794    1.1781    0.0000 I   0  0  0  0  0  0  0  0  0  0  0  0
   -1.3436    2.3272    0.0000 Si  0  0  0  0  0  4  0  0  0  0  0  0
  3  1  1  0
  4  2  1  0
  7  3  1  0
  7  4  1  0
  7  5  1  0
  7  6  1  0
M  END
>  <NAME>  (117) 
DIETHYLDIIODOSILANE

>  <SYNONYMS>  (117) 


>  <SPECTRUM TYPE>  (117) 
MS1

>  <INSTRUMENT TYPE>  (117) 
EI-B

>  <INSTRUMENT>  (117) 
SHIMADZU QP-1000

>  <ION MODE>  (117) 
P

>  <INCHIKEY>  (117) 
GPTNEHSWPUSHFX-UHFFFAOYSA-N

>  <FORMULA>  (117) 
C4H10I2Si

>  <EXACT MASS>  (117) 
339.86412285

>  <MW>  (117) 
340

>  <ID>  (117) 
JP011958

>  <CONTRIBUTOR>  (117) 
University of Tokyo Team, {Faculty of Engineering, University of Tokyo

>  <COMMENT>  (117) 
SMILES=CC[Si](I)(I)CC
InChI=InChI=1S/C4H10I2Si/c1-3-7(5,6)4-2/h3-4H2,1-2H3
computed SMILES=I[Si](I)(CC)CC
accession=JP011958
date=2016.01.19 (Created 2008.10.21, modified 2011.05.06)
author=ISHIKAWA M, HIROSHIMA UNIV. FAC. TEQUNOLOGY
license=CC BY-NC-SA
exact mass=339.86411
ionization energy=70 eV
ion type=[M]+*
computed spectral entropy=2.6286842512266704
computed normalized entropy=0.8271364777162606
SPLASH=splash10-08fu-7495000000-7e7045ed05b39055ee61
submitter=submitter = University of Tokyo Team (Faculty of Engineering, University of Tokyo)
MoNA Rating=3.75

>  <NUM PEAKS>  (117) 
24

>  <MASS SPECTRAL PEAKS>  (117) 
54 25.3
55 6.3
56 29.5
57 9.5
58 40
59 22.1
60 3.2
81 1.1
127 5.8
128 5.3
155 17.9
156 3.2
157 14.2
185 37.9
186 2.1
213 99.99
214 9.5
215 3.2
282 6.3
283 37.9
311 16.8
340 75.8
341 7.4
342 2.1

>  <PREDICTED SPECTRUM>  (117) 
25 25
26 36
27 106
28 22
29 134
30 43
32 20
37 6
38 22
39 32
41 73
42 26
43 56
44 66
45 62
46 67
47 67
53 70
54 54
55 134
56 206
57 169
58 387
59 528
60 32
65 27
68 38
69 9
70 46
71 110
73 115
74 1
77 21
78 6
82 1
84 34
85 83
86 134
87 46
88 18
91 2
92 17
93 15
94 46
101 27
127 320
153 42
154 65
155 223
156 196
157 251
158 35
185 557
186 184
213 999
214 267
215 230
253 22
283 451
311 274
340 676
341 176
342 142

$$$$

     RDKit          2D

 10  9  0  0  0  0  0  0  0  0999 V2000
   -0.0870    2.9498    0.0000 C   0  0  0  0  0  0  0  0  0  0  0  0
   -7.3322    4.9988    0.0000 C   0  0  0  0  0  0  0  0  0  0  0  0
   -7.8812    2.9498    0.0000 C   0  0  0  0  0  0  0  0  0  0  0  0
   -5.8322    2.4007    0.0000 C   0  0  0  0  0  0  0  0  0  0  0  0
   -2.6851    5.9498    0.0000 C   0  0  0  0  0  0  0  0  0  0  0  0
   -3.9841    5.1998    0.0000 C   0  0  0  0  0  0  0  0  0  0  0  0
   -1.3861    5.1998    0.0000 C   0  0  0  0  0  0  0  0  0  0  0  0
   -5.2832    4.4498    0.0000 C   0  0  0  0  0  0  0  0  0  0  0  0
   -1.3861    3.6998    0.0000 O   0  0  0  0  0  0  0  0  0  0  0  0
   -6.5822    3.6998    0.0000 Si  0  0  0  0  0  4  0  0  0  0  0  0
  6  5  1  0
  5  7  2  0
  8  6  3  0
  9  1  1  0
  9  7  1  0
 10  2  1  0
 10  3  1  0
 10  4  1  0
 10  8  1  0
M  END
>  <NAME>  (118) 
CIS-1-METHOXY-4-TRIMETHYLSILYLBUT-1-EN-3-YNE

>  <SYNONYMS>  (118) 


>  <SPECTRUM TYPE>  (118) 
MS1

>  <INSTRUMENT TYPE>  (118) 
EI-B

>  <INSTRUMENT>  (118) 
SHIMADZU QP-1000

>  <ION MODE>  (118) 
P

>  <INCHIKEY>  (118) 
KHAWMPYFFORPIN-ALCCZGGFSA-N

>  <FORMULA>  (118) 
C8H14OSi

>  <EXACT MASS>  (118) 
154.08139159799998

>  <MW>  (118) 
154

>  <ID>  (118) 
JP011957

>  <CONTRIBUTOR>  (118) 
University of Tokyo Team, {Faculty of Engineering, University of Tokyo

>  <COMMENT>  (118) 
SMILES=COC=CC#C[Si](C)(C)C
InChI=InChI=1S/C8H14OSi/c1-9-7-5-6-8-10(2,3)4/h5,7H,1-4H3/b7-5-
computed SMILES=C(#C[Si](C)(C)C)C=COC
accession=JP011957
date=2016.01.19 (Created 2008.10.21, modified 2011.05.06)
author=ISHIKAWA M, HIROSHIMA UNIV. FAC. TEQUNOLOGY
license=CC BY-NC-SA
exact mass=154.08139
ionization energy=70 eV
ion type=[M]+*
computed spectral entropy=3.29971265033249
computed normalized entropy=0.8392316848614035
SPLASH=splash10-0rki-9300000000-3d3b802fb07c7e5aade8
submitter=submitter = University of Tokyo Team (Faculty of Engineering, University of Tokyo)
MoNA Rating=3.75

>  <NUM PEAKS>  (118) 
51

>  <MASS SPECTRAL PEAKS>  (118) 
52 5.3
53 10
54 64.2
55 14.7
56 43.2
57 3.7
58 8.9
59 12.6
60 93.2
61 8.4
62 21.1
63 2.1
64 9.5
65 39.5
66 18.4
67 31.6
68 5.3
69 25.3
70 17.9
71 11.6
72 2.1
73 7.4
75 10
77 15.3
78 3.2
79 9.5
80 2.1
81 6.3
83 43.2
84 4.2
85 17.4
87 2.1
89 3.2
93 3.2
94 1.1
95 7.4
97 3.2
98 1.1
99 3.2
107 2.1
109 56.8
110 6.3
111 8.9
113 3.2
123 2.1
124 3.2
139 99.99
140 12.1
141 3.2
154 22.1
155 2.1

>  <PREDICTED SPECTRUM>  (118) 
15 34
26 22
27 80
28 24
29 105
31 72
32 1
33 10
37 25
38 40
39 203
40 51
41 108
42 74
43 372
44 57
45 394
47 96
49 1
50 110
51 192
52 107
53 258
54 112
55 231
56 17
57 73
58 51
59 405
60 83
61 82
62 1
63 116
64 16
65 136
66 141
67 206
68 108
69 146
70 76
71 85
72 11
73 204
77 76
78 65
79 216
80 129
81 217
82 118
83 270
84 109
85 74
91 71
93 53
94 3
95 242
96 164
97 213
98 61
99 49
107 166
108 49
109 296
110 112
111 379
112 112
113 182
114 15
115 31
123 312
124 173
125 88
127 68
139 999
140 334
141 248
142 62
153 16
154 542
155 184
156 63

$$$$

     RDKit          2D

 14 14  0  0  0  0  0  0  0  0999 V2000
    6.4962   -0.7508    0.0000 C   0  0  0  0  0  0  0  0  0  0  0  0
    6.0042   -3.5384    0.0000 C   0  0  0  0  0  0  0  0  0  0  0  0
    1.6346   -2.6491    0.0000 C   0  0  0  0  0  0  0  0  0  0  0  0
    5.1970   -1.5006    0.0000 C   0  0  0  0  0  0  0  0  0  0  0  0
    5.0402   -2.3892    0.0000 C   0  0  0  0  0  0  0  0  0  0  0  0
   -1.3000    0.7500    0.0000 C   0  0  0  0  0  0  0  0  0  0  0  0
    0.0000    1.5000    0.0000 C   0  0  0  0  0  0  0  0  0  0  0  0
   -1.3000   -0.7500    0.0000 C   0  0  0  0  0  0  0  0  0  0  0  0
    1.3000    0.7500    0.0000 C   0  0  0  0  0  0  0  0  0  0  0  0
   -0.0000   -1.5000    0.0000 C   0  0  0  0  0  0  0  0  0  0  0  0
    1.3000   -0.7500    0.0000 C   0  0  0  0  0  0  0  0  0  0  0  0
    3.8981   -0.7504    0.0000 O   0  0  0  0  0  0  0  0  0  0  0  0
    3.5629   -2.6494    0.0000 O   0  0  0  0  0  0  0  0  0  0  0  0
    2.5989   -1.5002    0.0000 Si  0  0  0  0  0  4  0  0  0  0  0  0
  4  1  1  0
  5  2  1  0
  7  6  2  0
  8  6  1  0
  9  7  1  0
 10  8  2  0
 11  9  2  0
 11 10  1  0
 12  4  1  0
 13  5  1  0
 14  3  1  0
 14 11  1  0
 14 12  1  0
 14 13  1  0
M  END
>  <NAME>  (119) 
DIETHOXYMETHYLPHENYLSILANE

>  <SYNONYMS>  (119) 


>  <SPECTRUM TYPE>  (119) 
MS1

>  <INSTRUMENT TYPE>  (119) 
EI-B

>  <INSTRUMENT>  (119) 
SHIMADZU QP-1000

>  <ION MODE>  (119) 
P

>  <INCHIKEY>  (119) 
MNFGEHQPOWJJBH-UHFFFAOYSA-N

>  <FORMULA>  (119) 
C11H18O2Si

>  <EXACT MASS>  (119) 
210.107606346

>  <MW>  (119) 
210

>  <ID>  (119) 
JP011956

>  <CONTRIBUTOR>  (119) 
University of Tokyo Team, {Faculty of Engineering, University of Tokyo

>  <COMMENT>  (119) 
SMILES=CCO[Si](C)(OCC)c(c1)cccc1
InChI=InChI=1S/C11H18O2Si/c1-4-12-14(3,13-5-2)11-9-7-6-8-10-11/h6-10H,4-5H2,1-3H3
computed SMILES=O(CC)[Si](OCC)(C=1C=CC=CC1)C
accession=JP011956
date=2016.01.19 (Created 2008.10.21, modified 2011.05.06)
author=ISHIKAWA M, HIROSHIMA UNIV. FAC. TEQUNOLOGY
license=CC BY-NC-SA
exact mass=210.10761
ionization energy=70 eV
ion type=[M]+*
computed spectral entropy=3.188105198024497
computed normalized entropy=0.8235442151005247
SPLASH=splash10-002b-5900000000-24356c680acf1a85b5d7
submitter=submitter = University of Tokyo Team (Faculty of Engineering, University of Tokyo)
MoNA Rating=3.75

>  <NUM PEAKS>  (119) 
48

>  <MASS SPECTRAL PEAKS>  (119) 
52 6.3
53 14.7
54 6.3
55 3.2
60 5.8
62 15.8
63 2.6
64 11.6
65 3.2
69 1.1
73 7.4
74 1.1
75 1.1
77 33.7
78 17.9
79 3.2
85 1.1
87 1.1
88 2.1
89 6.3
91 29.5
92 3.2
93 1.1
98 1.1
104 3.2
105 25.3
106 2.1
107 2.1
117 3.2
119 2.1
121 17.4
122 3.2
123 17.9
124 1.1
132 13.2
133 6.3
137 11.6
139 22.1
140 2.1
149 1.1
151 33.2
152 3.2
165 8.4
167 3.2
195 99.99
196 15.3
197 4.2
210 5.8

>  <PREDICTED SPECTRUM>  (119) 
26 20
27 206
29 231
31 102
38 28
39 193
41 255
42 85
43 245
44 82
45 544
46 69
47 228
50 144
51 286
52 64
53 96
55 57
59 144
60 38
61 302
62 104
63 261
64 94
65 192
66 35
73 363
74 57
75 356
76 124
77 619
78 387
79 413
80 17
81 220
83 167
87 149
89 198
90 31
91 641
92 150
93 76
94 31
97 2
103 159
104 270
105 647
106 264
107 409
108 70
109 142
111 56
115 63
117 417
118 406
119 287
120 117
121 431
122 134
123 533
124 315
125 999
126 201
129 77
131 33
132 534
133 395
134 163
135 216
136 95
137 281
138 88
139 189
141 119
142 18
149 224
151 884
152 260
153 968
154 246
155 84
163 87
164 158
165 762
166 354
167 465
168 199
169 88
181 4
183 339
195 588
196 194
197 103
209 35
210 108
211 0

$$$$

     RDKit          2D

 30 33  0  0  0  0  0  0  0  0999 V2000
    1.9504    1.0609    0.0000 C   0  0  0  0  0  0  0  0  0  0  0  0
    1.1637   -3.5585    0.0000 C   0  0  0  0  0  0  0  0  0  0  0  0
    6.3614    1.9027    0.0000 C   0  0  0  0  0  0  0  0  0  0  0  0
    4.0032   -7.0387    0.0000 C   0  0  0  0  0  0  0  0  0  0  0  0
    6.3609    0.4019    0.0000 C   0  0  0  0  0  0  0  0  0  0  0  0
    5.0624    2.6527    0.0000 C   0  0  0  0  0  0  0  0  0  0  0  0
    2.5252   -6.7776    0.0000 C   0  0  0  0  0  0  0  0  0  0  0  0
    4.9673   -5.8896    0.0000 C   0  0  0  0  0  0  0  0  0  0  0  0
    5.0614   -0.3489    0.0000 C   0  0  0  0  0  0  0  0  0  0  0  0
    3.7629    1.9019    0.0000 C   0  0  0  0  0  0  0  0  0  0  0  0
    2.0114   -5.3674    0.0000 C   0  0  0  0  0  0  0  0  0  0  0  0
    4.4536   -4.4794    0.0000 C   0  0  0  0  0  0  0  0  0  0  0  0
   -1.4569    0.2811    0.0000 C   0  0  0  0  0  0  0  0  0  0  0  0
   -1.0057   -2.2780    0.0000 C   0  0  0  0  0  0  0  0  0  0  0  0
    6.3830   -3.4385    0.0000 C   0  0  0  0  0  0  0  0  0  0  0  0
    5.9318   -0.8794    0.0000 C   0  0  0  0  0  0  0  0  0  0  0  0
    0.0212    0.5408    0.0000 C   0  0  0  0  0  0  0  0  0  0  0  0
    0.4725   -2.0183    0.0000 C   0  0  0  0  0  0  0  0  0  0  0  0
    4.9048   -3.6982    0.0000 C   0  0  0  0  0  0  0  0  0  0  0  0
    4.4536   -1.1391    0.0000 C   0  0  0  0  0  0  0  0  0  0  0  0
   -1.9704   -1.1283    0.0000 C   0  0  0  0  0  0  0  0  0  0  0  0
    6.8965   -2.0291    0.0000 C   0  0  0  0  0  0  0  0  0  0  0  0
    3.7624    0.4011    0.0000 C   0  0  0  0  0  0  0  0  0  0  0  0
    2.9756   -4.2183    0.0000 C   0  0  0  0  0  0  0  0  0  0  0  0
    0.9860   -0.6090    0.0000 C   0  0  0  0  0  0  0  0  0  0  0  0
    3.9401   -2.5485    0.0000 C   0  0  0  0  0  0  0  0  0  0  0  0
   -3.4477   -1.3885    0.0000 Br  0  0  0  0  0  0  0  0  0  0  0  0
    8.3737   -1.7689    0.0000 Br  0  0  0  0  0  0  0  0  0  0  0  0
    2.4632   -0.3487    0.0000 Si  0  0  0  0  0  4  0  0  0  0  0  0
    2.4628   -2.8087    0.0000 Si  0  0  0  0  0  4  0  0  0  0  0  0
  5  3  2  0
  6  3  1  0
  7  4  2  0
  8  4  1  0
  9  5  1  0
 10  6  2  0
 11  7  1  0
 12  8  2  0
 17 13  2  0
 18 14  1  0
 19 15  2  0
 20 16  1  0
 21 13  1  0
 21 14  2  0
 22 15  1  0
 22 16  2  0
 23  9  2  0
 23 10  1  0
 24 11  2  0
 24 12  1  0
 25 17  1  0
 25 18  2  0
 26 19  1  0
 26 20  2  0
 27 21  1  0
 28 22  1  0
 29  1  1  0
 29 23  1  0
 29 25  1  0
 30  2  1  0
 30 24  1  0
 30 26  1  0
 30 29  1  0
M  END
>  <NAME>  (120) 
1,2-DI(PARA-BROMOPHENYL)-1,2-DIMETHYL-1,2-DIPHENYLDISILANE

>  <SYNONYMS>  (120) 


>  <SPECTRUM TYPE>  (120) 
MS1

>  <INSTRUMENT TYPE>  (120) 
EI-B

>  <INSTRUMENT>  (120) 
SHIMADZU QP-1000

>  <ION MODE>  (120) 
P

>  <INCHIKEY>  (120) 
XYZNTWCMWKNRRA-UHFFFAOYSA-N

>  <FORMULA>  (120) 
C26H24Br2Si2

>  <EXACT MASS>  (120) 
549.978328028

>  <MW>  (120) 
550

>  <ID>  (120) 
JP011955

>  <CONTRIBUTOR>  (120) 
University of Tokyo Team, {Faculty of Engineering, University of Tokyo

>  <COMMENT>  (120) 
SMILES=c(c1)c(ccc([Si](c(c4)cccc4)([Si](c(c3)cccc3)(c(c2)ccc(c2)Br)C)C)1)Br
InChI=InChI=1S/C26H24Br2Si2/c1-29(23-9-5-3-6-10-23,25-17-13-21(27)14-18-25)30(2,24-11-7-4-8-12-24)26-19-15-22(28)16-20-26/h3-20H,1-2H3
computed SMILES=BrC1=CC=C(C=C1)[Si](C=2C=CC=CC2)(C)[Si](C=3C=CC=CC3)(C4=CC=C(Br)C=C4)C
accession=JP011955
date=2016.01.19 (Created 2008.10.21, modified 2011.05.06)
author=ISHIKAWA M, HIROSHIMA UNIV. FAC. TEQUNOLOGY
license=CC BY-NC-SA
exact mass=549.97833
ionization energy=70 eV
ion type=[M]+*
computed spectral entropy=2.6504476497838647
computed normalized entropy=0.7792689904073131
SPLASH=splash10-0079-0000590000-acff3127955933fa3777
submitter=submitter = University of Tokyo Team (Faculty of Engineering, University of Tokyo)
MoNA Rating=3.75

>  <NUM PEAKS>  (120) 
30

>  <MASS SPECTRAL PEAKS>  (120) 
51 2.1
53 12.8
55 1.1
79 1.1
91 1.1
105 4.3
195 1.1
196 4.3
197 2.7
275 7.4
276 1.1
277 6.4
471 44.7
472 19.1
473 50
474 28.7
475 6.4
476 1.1
535 38.5
536 16
537 99.99
539 48.9
541 5.3
550 5.3
551 3.2
552 11.7
553 6.4
554 7.4
555 3.2
556 1.1

>  <PREDICTED SPECTRUM>  (120) 
15 14
51 28
53 10
57 35
69 37
73 28
75 35
76 85
77 105
78 124
79 39
80 5
91 11
92 3
93 28
104 10
105 58
107 63
120 41
121 34
133 5
139 9
157 36
160 5
165 28
166 42
170 22
175 17
176 52
177 50
184 32
186 22
196 58
197 153
198 9
203 16
204 20
205 54
214 7
216 1
218 17
219 51
228 5
245 17
246 3
247 53
251 30
261 11
267 9
268 56
275 89
277 51
303 4
458 30
470 19
471 442
472 271
473 580
474 409
475 280
535 688
536 425
537 999
538 12
539 776
541 214
550 150
551 152
552 346
553 191
554 259
555 181

$$$$

     RDKit          2D

 14 15  0  0  0  0  0  0  0  0999 V2000
   -4.5977   -2.2700    0.0000 C   0  0  0  0  0  0  0  0  0  0  0  0
    0.7500    1.0300    0.0000 C   0  0  0  0  0  0  0  0  0  0  0  0
   -3.0977   -2.2700    0.0000 C   0  0  0  0  0  0  0  0  0  0  0  0
   -0.7500    1.0300    0.0000 C   0  0  0  0  0  0  0  0  0  0  0  0
   -5.0577   -0.8500    0.0000 C   0  0  0  0  0  0  0  0  0  0  0  0
    1.2100   -0.3900    0.0000 C   0  0  0  0  0  0  0  0  0  0  0  0
   -2.6377   -0.8500    0.0000 C   0  0  0  0  0  0  0  0  0  0  0  0
   -1.2100   -0.3900    0.0000 C   0  0  0  0  0  0  0  0  0  0  0  0
   -2.2155   -3.4831    0.0000 Br  0  0  0  0  0  0  0  0  0  0  0  0
   -1.6322    2.2431    0.0000 Br  0  0  0  0  0  0  0  0  0  0  0  0
   -6.4855   -0.3900    0.0000 Br  0  0  0  0  0  0  0  0  0  0  0  0
    2.6377   -0.8500    0.0000 Br  0  0  0  0  0  0  0  0  0  0  0  0
   -3.8477    0.0400    0.0000 S   0  0  0  0  0  0  0  0  0  0  0  0
   -0.0000   -1.2800    0.0000 S   0  0  0  0  0  0  0  0  0  0  0  0
  3  1  1  0
  4  2  1  0
  5  1  2  0
  6  2  2  0
  7  3  2  0
  8  4  2  0
  8  7  1  0
  9  3  1  0
 10  4  1  0
 11  5  1  0
 12  6  1  0
 13  5  1  0
 13  7  1  0
 14  6  1  0
 14  8  1  0
M  END
>  <NAME>  (121) 
3,3'5,5'-TETRABROMO-2,2'-BITHIOPHENE

>  <SYNONYMS>  (121) 


>  <SPECTRUM TYPE>  (121) 
MS1

>  <INSTRUMENT TYPE>  (121) 
EI-B

>  <INSTRUMENT>  (121) 
SHIMADZU QP-1000

>  <ION MODE>  (121) 
P

>  <INCHIKEY>  (121) 
MOMHMPZSZNZLAK-UHFFFAOYSA-N

>  <FORMULA>  (121) 
C8H2Br4S2

>  <EXACT MASS>  (121) 
477.633140464

>  <MW>  (121) 
477

>  <ID>  (121) 
JP011954

>  <CONTRIBUTOR>  (121) 
University of Tokyo Team, {Faculty of Engineering, University of Tokyo

>  <COMMENT>  (121) 
SMILES=Brc(c2)sc(c(Br)2)c(s1)c(Br)cc(Br)1
InChI=InChI=1S/C8H2Br4S2/c9-3-1-5(11)13-7(3)8-4(10)2-6(12)14-8/h1-2H
computed SMILES=BrC=1SC(=C(Br)C1)C=2SC(Br)=CC2Br
accession=JP011954
date=2016.01.19 (Created 2008.10.21, modified 2011.05.06)
author=ISHIKAWA M, HIROSHIMA UNIV. FAC. TEQUNOLOGY
license=CC BY-NC-SA
exact mass=477.63314
ionization energy=70 eV
ion type=[M]+*
computed spectral entropy=2.2290103083538115
computed normalized entropy=0.8970197365538779
SPLASH=splash10-001i-0000900000-98cfc41c40a11b3ddeaf
submitter=submitter = University of Tokyo Team (Faculty of Engineering, University of Tokyo)
MoNA Rating=3.75

>  <NUM PEAKS>  (121) 
12

>  <MASS SPECTRAL PEAKS>  (121) 
56 6.4
58 11.8
73 7.4
81 12.8
321 26.6
478 52.1
479 67
480 78.7
481 99.99
482 74.5
483 67
484 47.9

>  <PREDICTED SPECTRUM>  (121) 
25 13
26 6
32 59
35 35
36 169
37 195
38 176
39 175
40 3
41 7
43 77
44 188
45 399
46 79
47 83
48 87
49 203
50 114
51 2
52 22
53 67
55 84
56 84
57 353
58 186
60 40
61 385
62 223
63 25
68 31
69 256
70 136
71 224
72 153
73 206
74 121
79 368
80 206
81 391
82 377
83 245
84 218
85 176
86 175
87 80
88 137
89 194
90 76
91 41
92 16
93 437
94 198
95 279
96 145
97 170
98 271
99 12
100 172
101 1
102 4
106 67
107 222
108 172
109 79
110 172
111 81
112 232
113 16
114 44
115 24
116 52
117 87
118 83
119 107
120 74
121 120
122 241
123 442
124 127
125 150
126 124
127 160
128 111
129 45
130 377
131 40
132 78
133 75
134 225
135 222
136 321
137 148
138 29
140 27
142 67
143 45
147 79
148 35
149 90
150 124
151 83
152 123
153 168
154 246
155 54
159 6
160 245
161 438
162 927
163 300
164 483
165 164
166 330
167 141
168 101
170 57
179 8
181 66
182 71
184 62
185 0
186 13
187 55
188 31
189 27
191 63
193 84
194 52
195 122
196 116
197 195
198 101
199 245
200 95
201 63
205 89
206 159
207 66
208 48
212 12
213 92
214 126
215 159
221 80
225 32
226 50
227 24
233 7
234 12
235 32
239 81
240 279
241 668
242 393
243 566
244 188
245 184
255 14
261 29
275 105
276 113
277 120
296 35
319 84
320 673
321 257
322 938
323 249
324 684
325 139
326 340
357 50
366 60
368 117
369 54
370 70
375 26
397 20
398 142
399 467
400 368
401 729
402 265
403 854
404 285
405 504
406 177
477 129
478 434
479 114
480 841
482 999
483 96

$$$$

     RDKit          2D

  7  6  0  0  0  0  0  0  0  0999 V2000
   -4.2219    2.8125    0.0000 C   0  0  0  0  0  0  0  0  0  0  0  0
   -1.0748    0.7635    0.0000 C   0  0  0  0  0  0  0  0  0  0  0  0
    0.9743    1.3125    0.0000 C   0  0  0  0  0  0  0  0  0  0  0  0
    0.4252    3.3615    0.0000 C   0  0  0  0  0  0  0  0  0  0  0  0
   -2.9228    2.0625    0.0000 C   0  0  0  0  0  0  0  0  0  0  0  0
   -1.6238    2.8125    0.0000 O   0  0  0  0  0  0  0  0  0  0  0  0
   -0.3248    2.0625    0.0000 Si  0  0  0  0  0  4  0  0  0  0  0  0
  5  1  1  0
  6  5  1  0
  7  2  1  0
  7  3  1  0
  7  4  1  0
  7  6  1  0
M  END
>  <NAME>  (122) 
ETHOXYTRIMETHYLSILANE

>  <SYNONYMS>  (122) 


>  <SPECTRUM TYPE>  (122) 
MS1

>  <INSTRUMENT TYPE>  (122) 
EI-B

>  <INSTRUMENT>  (122) 
SHIMADZU QP-1000

>  <ION MODE>  (122) 
P

>  <INCHIKEY>  (122) 
RSIHJDGMBDPTIM-UHFFFAOYSA-N

>  <FORMULA>  (122) 
C5H14OSi

>  <EXACT MASS>  (122) 
118.081391598

>  <MW>  (122) 
118

>  <ID>  (122) 
JP011953

>  <CONTRIBUTOR>  (122) 
University of Tokyo Team, {Faculty of Engineering, University of Tokyo

>  <COMMENT>  (122) 
SMILES=CCO[Si](C)(C)C
InChI=InChI=1S/C5H14OSi/c1-5-6-7(2,3)4/h5H2,1-4H3
computed SMILES=O(CC)[Si](C)(C)C
accession=JP011953
date=2016.01.19 (Created 2008.10.21, modified 2011.05.06)
author=ISHIKAWA M, HIROSHIMA UNIV. FAC. TEQUNOLOGY
license=CC BY-NC-SA
exact mass=118.08139
ionization energy=70 eV
ion type=[M]+*
computed spectral entropy=2.000548016487118
computed normalized entropy=0.6921421132149697
SPLASH=splash10-0h00-9200000000-82b3d110a5f48b20282c
submitter=submitter = University of Tokyo Team (Faculty of Engineering, University of Tokyo)
MoNA Rating=3.75

>  <NUM PEAKS>  (122) 
18

>  <MASS SPECTRAL PEAKS>  (122) 
52 2.1
53 5.8
54 1.1
56 2.1
58 2.1
59 11.6
60 55.3
61 5.3
62 12.1
73 41.1
75 99.99
76 6.3
77 3.2
102 1.1
103 69.5
104 5.8
105 2.1
118 0.4

>  <PREDICTED SPECTRUM>  (122) 
14 15
15 84
26 57
27 175
28 107
29 272
31 162
38 21
39 80
40 9
41 82
42 77
43 266
44 142
45 302
46 52
47 200
49 39
50 5
51 0
52 21
53 89
55 99
56 21
57 179
58 151
59 483
60 104
61 206
62 40
63 15
66 2
71 24
72 50
73 595
74 197
75 627
76 150
77 189
78 33
85 8
89 56
101 46
102 8
103 999
104 328
105 263
106 41
117 26
118 115
119 12

$$$$

     RDKit          2D

 14 13  0  0  0  0  0  0  0  0999 V2000
    1.4534   -2.4240    0.0000 C   0  0  0  0  0  0  0  0  0  0  0  0
   -0.0466    0.1740    0.0000 C   0  0  0  0  0  0  0  0  0  0  0  0
   -0.5957   -1.8750    0.0000 C   0  0  0  0  0  0  0  0  0  0  0  0
   10.5466    2.8260    0.0000 C   0  0  0  0  0  0  0  0  0  0  0  0
   11.0957    4.8750    0.0000 C   0  0  0  0  0  0  0  0  0  0  0  0
    9.0466    5.4240    0.0000 C   0  0  0  0  0  0  0  0  0  0  0  0
    4.6005    1.1250    0.0000 C   0  0  0  0  0  0  0  0  0  0  0  0
    5.8995    1.8750    0.0000 C   0  0  0  0  0  0  0  0  0  0  0  0
    3.3014    0.3750    0.0000 C   0  0  0  0  0  0  0  0  0  0  0  0
    7.1986    2.6250    0.0000 C   0  0  0  0  0  0  0  0  0  0  0  0
    2.0024   -0.3750    0.0000 C   0  0  0  0  0  0  0  0  0  0  0  0
    8.4976    3.3750    0.0000 C   0  0  0  0  0  0  0  0  0  0  0  0
    0.7034   -1.1250    0.0000 Si  0  0  0  0  0  4  0  0  0  0  0  0
    9.7966    4.1250    0.0000 Si  0  0  0  0  0  4  0  0  0  0  0  0
  8  7  3  0
  9  7  1  0
 10  8  1  0
 11  9  3  0
 12 10  3  0
 13  1  1  0
 13  2  1  0
 13  3  1  0
 13 11  1  0
 14  4  1  0
 14  5  1  0
 14  6  1  0
 14 12  1  0
M  END
>  <NAME>  (123) 
1,6-BIS(TRIMETHYLSILYL)-1,3,5-HEXATRIYNE

>  <SYNONYMS>  (123) 


>  <SPECTRUM TYPE>  (123) 
MS1

>  <INSTRUMENT TYPE>  (123) 
EI-B

>  <INSTRUMENT>  (123) 
SHIMADZU QP-1000

>  <ION MODE>  (123) 
P

>  <INCHIKEY>  (123) 
WFRYFVIBFUVRKZ-UHFFFAOYSA-N

>  <FORMULA>  (123) 
C12H18Si2

>  <EXACT MASS>  (123) 
218.094703636

>  <MW>  (123) 
218

>  <ID>  (123) 
JP011952

>  <CONTRIBUTOR>  (123) 
University of Tokyo Team, {Faculty of Engineering, University of Tokyo

>  <COMMENT>  (123) 
SMILES=C[Si](C)(C)C#CC#CC#C[Si](C)(C)C
InChI=InChI=1S/C12H18Si2/c1-13(2,3)11-9-7-8-10-12-14(4,5)6/h1-6H3
computed SMILES=C(#CC#C[Si](C)(C)C)C#C[Si](C)(C)C
accession=JP011952
date=2016.01.19 (Created 2008.10.21, modified 2011.05.06)
author=ISHIKAWA M, HIROSHIMA UNIV. FAC. TEQUNOLOGY
license=CC BY-NC-SA
exact mass=218.0947
ionization energy=70 eV
ion type=[M]+*
computed spectral entropy=1.710768930146307
computed normalized entropy=0.6482500061473525
SPLASH=splash10-0udi-1090000000-48c39395ee676b8e8047
submitter=submitter = University of Tokyo Team (Faculty of Engineering, University of Tokyo)
MoNA Rating=3.75

>  <NUM PEAKS>  (123) 
14

>  <MASS SPECTRAL PEAKS>  (123) 
53 2.7
67 3.7
73 10.6
79 1.1
80 3.2
94 7.4
97 2.7
121 3.2
145 2.1
203 99.99
204 20.2
205 6.4
218 19.7
219 3.2

>  <PREDICTED SPECTRUM>  (123) 
43 66
44 7
45 33
53 22
59 79
66 26
67 36
69 25
73 354
80 6
81 35
82 15
83 96
89 17
91 99
97 118
105 39
106 28
107 12
115 19
119 52
121 21
130 12
131 67
144 23
146 1
147 76
149 17
161 74
162 7
163 26
174 6
175 13
189 68
203 999
204 446
205 295
206 52
218 389
219 189
220 49

$$$$

     RDKit          2D

 15 15  0  0  0  0  0  0  0  0999 V2000
   -4.6896    5.2416    0.0000 C   0  0  0  0  0  0  0  0  0  0  0  0
   -5.2386    3.1926    0.0000 C   0  0  0  0  0  0  0  0  0  0  0  0
   -3.1896    2.6436    0.0000 C   0  0  0  0  0  0  0  0  0  0  0  0
   -1.6764    5.8417    0.0000 C   0  0  0  0  0  0  0  0  0  0  0  0
   -3.6047    5.8417    0.0000 C   0  0  0  0  0  0  0  0  0  0  0  0
    3.8546    0.9426    0.0000 C   0  0  0  0  0  0  0  0  0  0  0  0
    3.8551    2.4434    0.0000 C   0  0  0  0  0  0  0  0  0  0  0  0
    2.5551    0.1918    0.0000 C   0  0  0  0  0  0  0  0  0  0  0  0
    2.5561    3.1934    0.0000 C   0  0  0  0  0  0  0  0  0  0  0  0
    1.2561    0.9418    0.0000 C   0  0  0  0  0  0  0  0  0  0  0  0
   -0.0425    3.1926    0.0000 C   0  0  0  0  0  0  0  0  0  0  0  0
   -1.3415    3.9426    0.0000 C   0  0  0  0  0  0  0  0  0  0  0  0
    1.2566    2.4426    0.0000 C   0  0  0  0  0  0  0  0  0  0  0  0
   -3.9396    3.9426    0.0000 Si  0  0  0  0  0  4  0  0  0  0  0  0
   -2.6406    4.6926    0.0000 Si  0  0  0  0  0  4  0  0  0  0  0  0
  7  6  2  0
  8  6  1  0
  9  7  1  0
 10  8  2  0
 12 11  3  0
 13  9  2  0
 13 10  1  0
 13 11  1  0
 14  1  1  0
 14  2  1  0
 14  3  1  0
 15  4  1  0
 15  5  1  0
 15 12  1  0
 15 14  1  0
M  END
>  <NAME>  (124) 
PENTAMETHYL(PHENYLETHYNYL)DISILANE

>  <SYNONYMS>  (124) 


>  <SPECTRUM TYPE>  (124) 
MS1

>  <INSTRUMENT TYPE>  (124) 
EI-B

>  <INSTRUMENT>  (124) 
SHIMADZU QP-1000

>  <ION MODE>  (124) 
P

>  <INCHIKEY>  (124) 
BSWIDNCLOWNORA-UHFFFAOYSA-N

>  <FORMULA>  (124) 
C13H20Si2

>  <EXACT MASS>  (124) 
232.1103537

>  <MW>  (124) 
232

>  <ID>  (124) 
JP011951

>  <CONTRIBUTOR>  (124) 
University of Tokyo Team, {Faculty of Engineering, University of Tokyo

>  <COMMENT>  (124) 
SMILES=c(c1)ccc(c1)C#C[Si](C)(C)[Si](C)(C)C
InChI=InChI=1S/C13H20Si2/c1-14(2,3)15(4,5)12-11-13-9-7-6-8-10-13/h6-10H,1-5H3
computed SMILES=C(#C[Si](C)(C)[Si](C)(C)C)C=1C=CC=CC1
accession=JP011951
date=2016.01.19 (Created 2008.10.21, modified 2011.05.06)
author=ISHIKAWA M, HIROSHIMA UNIV. FAC. TEQUNOLOGY
license=CC BY-NC-SA
exact mass=232.11035
ionization energy=70 eV
ion type=[M]+*
computed spectral entropy=2.5115843092082084
computed normalized entropy=0.724690045533843
SPLASH=splash10-06di-5690000000-aec2a6aa1fceda18073d
submitter=submitter = University of Tokyo Team (Faculty of Engineering, University of Tokyo)
MoNA Rating=3.75

>  <NUM PEAKS>  (124) 
32

>  <MASS SPECTRAL PEAKS>  (124) 
53 9.6
55 3.2
57 1.6
58 3.2
59 3.2
67 1.6
72 2.7
73 64.9
74 4.8
75 1.1
77 2.1
91 1.1
103 1.6
105 9
117 1.1
129 10.6
130 1.1
131 5.9
135 3.2
143 3.7
144 1.1
145 1.6
158 6.4
159 63.8
160 9.6
161 1.6
217 99.99
218 22.3
219 8
232 36.2
233 8
234 3.2

>  <PREDICTED SPECTRUM>  (124) 
27 21
29 31
31 11
39 23
43 195
44 6
45 202
46 21
50 17
51 77
53 82
55 6
58 77
59 210
60 25
63 32
65 32
67 56
69 9
72 10
73 770
74 199
75 160
76 18
77 133
78 31
79 50
85 21
93 10
99 2
101 40
102 138
103 141
104 81
105 166
106 22
115 130
116 105
117 82
118 18
119 56
128 2
129 324
130 112
131 223
132 36
133 81
135 355
136 27
141 69
143 221
144 160
145 177
155 64
157 109
158 267
159 700
160 302
161 137
173 41
177 1
189 1
190 50
201 109
215 110
216 17
217 999
218 494
219 273
220 74
231 195
232 612
233 299
234 108

$$$$

     RDKit          2D

 30 33  0  0  0  0  0  0  0  0999 V2000
    3.8981   -0.7504    0.0000 C   0  0  0  0  0  0  0  0  0  0  0  0
   -3.6432  -10.9529    0.0000 C   0  0  0  0  0  0  0  0  0  0  0  0
   -1.3000    0.7500    0.0000 C   0  0  0  0  0  0  0  0  0  0  0  0
   -7.0502   -6.0953    0.0000 C   0  0  0  0  0  0  0  0  0  0  0  0
    0.0000    1.5000    0.0000 C   0  0  0  0  0  0  0  0  0  0  0  0
   -1.3000   -0.7500    0.0000 C   0  0  0  0  0  0  0  0  0  0  0  0
   -5.5720   -5.8351    0.0000 C   0  0  0  0  0  0  0  0  0  0  0  0
   -7.5632   -7.5048    0.0000 C   0  0  0  0  0  0  0  0  0  0  0  0
    1.3000    0.7500    0.0000 C   0  0  0  0  0  0  0  0  0  0  0  0
    0.0000   -1.5000    0.0000 C   0  0  0  0  0  0  0  0  0  0  0  0
   -4.6070   -6.9845    0.0000 C   0  0  0  0  0  0  0  0  0  0  0  0
   -6.5981   -8.6542    0.0000 C   0  0  0  0  0  0  0  0  0  0  0  0
   -0.8089   -3.5376    0.0000 C   0  0  0  0  0  0  0  0  0  0  0  0
    1.1817   -5.2079    0.0000 C   0  0  0  0  0  0  0  0  0  0  0  0
   -0.7481   -7.5059    0.0000 C   0  0  0  0  0  0  0  0  0  0  0  0
   -2.7388   -5.8356    0.0000 C   0  0  0  0  0  0  0  0  0  0  0  0
    0.1565   -2.3885    0.0000 C   0  0  0  0  0  0  0  0  0  0  0  0
    2.1471   -4.0588    0.0000 C   0  0  0  0  0  0  0  0  0  0  0  0
   -1.7136   -8.6550    0.0000 C   0  0  0  0  0  0  0  0  0  0  0  0
   -3.7042   -6.9847    0.0000 C   0  0  0  0  0  0  0  0  0  0  0  0
   -0.2964   -4.9473    0.0000 C   0  0  0  0  0  0  0  0  0  0  0  0
   -1.2607   -6.0962    0.0000 C   0  0  0  0  0  0  0  0  0  0  0  0
    1.3000   -0.7500    0.0000 C   0  0  0  0  0  0  0  0  0  0  0  0
   -5.1200   -8.3941    0.0000 C   0  0  0  0  0  0  0  0  0  0  0  0
    1.6346   -2.6491    0.0000 C   0  0  0  0  0  0  0  0  0  0  0  0
   -3.1916   -8.3944    0.0000 C   0  0  0  0  0  0  0  0  0  0  0  0
    3.5629   -2.6494    0.0000 Cl  0  0  0  0  0  0  0  0  0  0  0  0
   -5.4552  -10.2931    0.0000 Cl  0  0  0  0  0  0  0  0  0  0  0  0
    2.5989   -1.5002    0.0000 Si  0  0  0  0  0  4  0  0  0  0  0  0
   -4.1560   -9.5433    0.0000 Si  0  0  0  0  0  4  0  0  0  0  0  0
  5  3  2  0
  6  3  1  0
  7  4  2  0
  8  4  1  0
  9  5  1  0
 10  6  2  0
 11  7  1  0
 12  8  2  0
 17 13  2  0
 18 14  1  0
 19 15  2  0
 20 16  1  0
 21 13  1  0
 21 14  2  0
 22 15  1  0
 22 16  2  0
 22 21  1  0
 23  9  2  0
 23 10  1  0
 24 11  2  0
 24 12  1  0
 25 17  1  0
 25 18  2  0
 26 19  1  0
 26 20  2  0
 29  1  1  0
 29 23  1  0
 29 25  1  0
 29 27  1  0
 30  2  1  0
 30 24  1  0
 30 26  1  0
 30 28  1  0
M  END
>  <NAME>  (125) 
4,4'-BIS(CHLOROMETHYLPHENYLSILYL)BIPHENYL

>  <SYNONYMS>  (125) 


>  <SPECTRUM TYPE>  (125) 
MS1

>  <INSTRUMENT TYPE>  (125) 
EI-B

>  <INSTRUMENT>  (125) 
SHIMADZU QP-1000

>  <ION MODE>  (125) 
P

>  <INCHIKEY>  (125) 
PQLPMUJETIAKPR-UHFFFAOYSA-N

>  <FORMULA>  (125) 
C26H24Cl2Si2

>  <EXACT MASS>  (125) 
462.079359188

>  <MW>  (125) 
462

>  <ID>  (125) 
JP011950

>  <CONTRIBUTOR>  (125) 
University of Tokyo Team, {Faculty of Engineering, University of Tokyo

>  <COMMENT>  (125) 
SMILES=c(c3)c(ccc3[Si](c(c4)cccc4)(C)Cl)c(c2)ccc(c2)[Si](c(c1)cccc1)(C)Cl
InChI=InChI=1S/C26H24Cl2Si2/c1-29(27,23-9-5-3-6-10-23)25-17-13-21(14-18-25)22-15-19-26(20-16-22)30(2,28)24-11-7-4-8-12-24/h3-20H,1-2H3
computed SMILES=Cl[Si](C=1C=CC=CC1)(C2=CC=C(C=C2)C=3C=CC(=CC3)[Si](Cl)(C=4C=CC=CC4)C)C
accession=JP011950
date=2016.01.19 (Created 2008.10.21, modified 2011.05.06)
author=ISHIKAWA M, HIROSHIMA UNIV. FAC. TEQUNOLOGY
license=CC BY-NC-SA
exact mass=462.07936
ionization energy=70 eV
ion type=[M]+*
computed spectral entropy=2.658429046232972
computed normalized entropy=0.7418487503175594
SPLASH=splash10-0006-2193000000-daf1f55c723f9d135228
submitter=submitter = University of Tokyo Team (Faculty of Engineering, University of Tokyo)
MoNA Rating=3.75

>  <NUM PEAKS>  (125) 
36

>  <MASS SPECTRAL PEAKS>  (125) 
51 5.3
53 2.6
63 25.3
65 8.9
77 3.2
91 5.3
103 1.1
105 1.1
129 1.1
136 6.3
147 1.6
151 1.1
152 5.8
153 1.1
155 3.3
165 3.3
167 1.1
195 2.1
215 3.2
229 1.1
230 4.2
231 3.2
255 5.3
256 1.1
257 4.2
273 2.1
293 99.99
294 26.3
295 38.9
296 8.4
297 1.1
308 48.9
309 12.6
310 18.9
311 4.2
447 0.5

>  <PREDICTED SPECTRUM>  (125) 
27 60
38 55
41 92
43 79
51 97
52 32
53 78
57 77
63 228
64 60
65 257
67 31
69 125
75 128
76 90
77 251
78 178
79 210
81 15
83 9
85 18
87 49
89 51
91 261
92 95
93 71
95 32
103 253
104 63
105 360
107 133
109 0
113 16
115 237
116 95
117 110
118 46
119 124
120 55
121 119
125 74
126 16
127 79
128 86
129 119
130 19
131 41
133 68
134 77
135 70
139 138
140 25
141 177
142 6
143 104
145 106
146 98
147 59
148 119
149 163
150 87
151 230
152 353
153 561
154 391
155 737
156 281
157 203
158 127
159 149
160 32
161 110
162 113
163 140
164 98
165 413
166 302
167 349
169 227
170 116
171 188
172 18
173 155
175 40
176 0
177 114
178 125
179 190
180 194
181 299
182 40
183 111
185 96
186 53
187 130
189 139
190 26
191 56
192 26
195 284
196 94
197 448
198 73
199 194
200 111
201 225
202 136
203 162
204 7
205 51
206 21
211 29
212 67
213 131
214 143
215 214
216 69
217 212
218 82
219 186
220 42
224 22
225 45
226 147
227 158
228 259
229 374
230 324
231 481
232 172
233 178
234 60
235 45
237 13
240 50
241 90
242 160
243 240
244 108
245 95
247 158
249 110
250 94
255 49
256 65
257 230
258 208
259 219
260 17
261 96
265 24
266 18
267 48
268 85
269 135
270 134
271 237
272 134
273 173
274 5
275 145
277 109
285 19
291 191
292 90
293 226
294 141
295 73
296 9
305 72
307 134
308 64
309 73
310 34
312 44
333 62
335 1
349 512
350 169
351 178
352 8
369 12
372 4
385 162
386 21
387 138
389 0
392 38
412 3
427 78
428 2
429 50
447 642
448 666
449 999
450 569
451 554
453 97
462 854
463 443
464 993
465 466
466 501
467 248

$$$$

     RDKit          2D

 22 21  0  0  0  0  0  0  0  0999 V2000
    7.1447    5.6250    0.0000 C   0  0  0  0  0  0  0  0  0  0  0  0
    4.0955    3.0664    0.0000 C   0  0  0  0  0  0  0  0  0  0  0  0
    6.9880    4.7364    0.0000 C   0  0  0  0  0  0  0  0  0  0  0  0
   -9.7428   12.3750    0.0000 C   0  0  0  0  0  0  0  0  0  0  0  0
   -6.6936   14.9336    0.0000 C   0  0  0  0  0  0  0  0  0  0  0  0
   -9.5861   13.2636    0.0000 C   0  0  0  0  0  0  0  0  0  0  0  0
    5.8457    6.3750    0.0000 C   0  0  0  0  0  0  0  0  0  0  0  0
    3.5825    4.4759    0.0000 C   0  0  0  0  0  0  0  0  0  0  0  0
    5.5108    4.4759    0.0000 C   0  0  0  0  0  0  0  0  0  0  0  0
   -8.4437   11.6250    0.0000 C   0  0  0  0  0  0  0  0  0  0  0  0
   -6.1805   13.5241    0.0000 C   0  0  0  0  0  0  0  0  0  0  0  0
   -8.1089   13.5241    0.0000 C   0  0  0  0  0  0  0  0  0  0  0  0
   -0.6495    8.6250    0.0000 C   0  0  0  0  0  0  0  0  0  0  0  0
   -1.9486    9.3750    0.0000 C   0  0  0  0  0  0  0  0  0  0  0  0
    0.6495    7.8750    0.0000 C   0  0  0  0  0  0  0  0  0  0  0  0
   -3.2476   10.1250    0.0000 C   0  0  0  0  0  0  0  0  0  0  0  0
    1.9486    7.1250    0.0000 C   0  0  0  0  0  0  0  0  0  0  0  0
   -4.5466   10.8750    0.0000 C   0  0  0  0  0  0  0  0  0  0  0  0
    3.2476    6.3750    0.0000 C   0  0  0  0  0  0  0  0  0  0  0  0
   -5.8457   11.6250    0.0000 C   0  0  0  0  0  0  0  0  0  0  0  0
    4.5466    5.6250    0.0000 Si  0  0  0  0  0  4  0  0  0  0  0  0
   -7.1447   12.3750    0.0000 Si  0  0  0  0  0  4  0  0  0  0  0  0
  7  1  1  0
  8  2  1  0
  9  3  1  0
 10  4  1  0
 11  5  1  0
 12  6  1  0
 14 13  1  0
 15 13  3  0
 16 14  3  0
 17 15  1  0
 18 16  1  0
 19 17  3  0
 20 18  3  0
 21  7  1  0
 21  8  1  0
 21  9  1  0
 21 19  1  0
 22 10  1  0
 22 11  1  0
 22 12  1  0
 22 20  1  0
M  END
>  <NAME>  (126) 
1,8-BIS(TRIETHYLSILYL)-1,3,5,7-OCTATETRAYNE

>  <SYNONYMS>  (126) 


>  <SPECTRUM TYPE>  (126) 
MS1

>  <INSTRUMENT TYPE>  (126) 
EI-B

>  <INSTRUMENT>  (126) 
SHIMADZU QP-1000

>  <ION MODE>  (126) 
P

>  <INCHIKEY>  (126) 
YXTUPTZXIDLSHB-UHFFFAOYSA-N

>  <FORMULA>  (126) 
C20H30Si2

>  <EXACT MASS>  (126) 
326.18860402

>  <MW>  (126) 
326

>  <ID>  (126) 
JP011949

>  <CONTRIBUTOR>  (126) 
University of Tokyo Team, {Faculty of Engineering, University of Tokyo

>  <COMMENT>  (126) 
SMILES=CC[Si](CC)(CC)C#CC#CC#CC#C[Si](CC)(CC)CC
InChI=InChI=1S/C20H30Si2/c1-7-21(8-2,9-3)19-17-15-13-14-16-18-20-22(10-4,11-5)12-6/h7-12H2,1-6H3
computed SMILES=C(C#CC#C[Si](CC)(CC)CC)#CC#C[Si](CC)(CC)CC
accession=JP011949
date=2016.01.19 (Created 2008.10.21, modified 2011.05.06)
author=ISHIKAWA M, HIROSHIMA UNIV. FAC. TEQUNOLOGY
license=CC BY-NC-SA
exact mass=326.1886
ionization energy=70 eV
ion type=[M]+*
computed spectral entropy=3.2302374357327666
computed normalized entropy=0.8024733449173055
SPLASH=splash10-00ke-2290000000-c1829d2701b7c402ec6c
submitter=submitter = University of Tokyo Team (Faculty of Engineering, University of Tokyo)
MoNA Rating=3.75

>  <NUM PEAKS>  (126) 
56

>  <MASS SPECTRAL PEAKS>  (126) 
53 5.8
55 3.2
57 8.4
58 4.2
59 6.3
67 1.1
69 1.1
77 4.2
78 11.1
79 4.2
81 6.8
83 2.1
85 2.1
87 2.1
91 2.7
92 17.9
93 4.2
101 2.6
103 1.1
105 6.3
106 17.9
107 3.2
120 11.1
121 3.2
127 2.1
128 1.1
129 6.3
130 2.1
131 4.2
134 3.2
155 5.3
156 8.4
157 8.9
158 2.1
159 2.6
183 3.2
184 7.4
185 10
186 3.2
187 1.1
211 1.1
212 3.2
213 4.2
241 56.8
242 14.7
243 5.8
269 80
270 24.2
271 8.4
272 1.1
297 99.99
298 45.3
299 14.7
326 23.2
327 7.4
328 1.6

>  <PREDICTED SPECTRUM>  (126) 
29 28
39 63
43 82
44 18
45 65
50 27
51 67
52 55
53 130
55 164
57 153
58 13
59 130
60 37
65 116
66 1
67 70
68 3
69 219
70 18
71 61
73 191
75 16
77 125
78 55
79 77
81 44
83 89
85 21
87 88
90 36
91 214
92 156
93 167
95 2
99 67
101 212
102 90
103 77
104 34
105 271
106 110
107 152
113 89
114 7
115 42
116 27
117 21
119 44
120 32
123 31
125 8
126 94
127 168
128 156
129 316
130 209
131 193
132 17
133 110
134 27
145 90
149 8
155 232
156 137
157 490
158 195
159 106
160 43
169 28
181 12
183 161
184 261
185 417
186 250
187 141
188 85
189 50
211 7
212 30
213 210
214 51
215 69
241 880
242 444
243 211
267 17
269 999
270 498
271 252
272 51
297 921
298 679
299 363
300 11
326 582
327 277
328 96

$$$$

     RDKit          2D

  8  7  0  0  0  0  0  0  0  0999 V2000
   -3.2476    1.8750    0.0000 C   0  0  0  0  0  0  0  0  0  0  0  0
    2.6986    3.5760    0.0000 C   0  0  0  0  0  0  0  0  0  0  0  0
    3.2476    5.6250    0.0000 C   0  0  0  0  0  0  0  0  0  0  0  0
    1.1986    6.1740    0.0000 C   0  0  0  0  0  0  0  0  0  0  0  0
   -1.9486    2.6250    0.0000 C   0  0  0  0  0  0  0  0  0  0  0  0
   -0.6495    3.3750    0.0000 C   0  0  0  0  0  0  0  0  0  0  0  0
    0.6495    4.1250    0.0000 C   0  0  0  0  0  0  0  0  0  0  0  0
    1.9486    4.8750    0.0000 Si  0  0  0  0  0  4  0  0  0  0  0  0
  5  1  3  0
  6  5  1  0
  7  6  3  0
  8  2  1  0
  8  3  1  0
  8  4  1  0
  8  7  1  0
M  END
>  <NAME>  (127) 
TRIMETHYLSILYL-1,3-BUTADIYNE

>  <SYNONYMS>  (127) 


>  <SPECTRUM TYPE>  (127) 
MS1

>  <INSTRUMENT TYPE>  (127) 
EI-B

>  <INSTRUMENT>  (127) 
SHIMADZU QP-1000

>  <ION MODE>  (127) 
P

>  <INCHIKEY>  (127) 
GVCHYDYMLIWQPE-UHFFFAOYSA-N

>  <FORMULA>  (127) 
C7H10Si

>  <EXACT MASS>  (127) 
122.05517685

>  <MW>  (127) 
122

>  <ID>  (127) 
JP011948

>  <CONTRIBUTOR>  (127) 
University of Tokyo Team, {Faculty of Engineering, University of Tokyo

>  <COMMENT>  (127) 
SMILES=C#CC#C[Si](C)(C)C
InChI=InChI=1S/C7H10Si/c1-5-6-7-8(2,3)4/h1H,2-4H3
computed SMILES=C#CC#C[Si](C)(C)C
accession=JP011948
date=2016.01.19 (Created 2008.10.21, modified 2011.05.06)
author=ISHIKAWA M, HIROSHIMA UNIV. FAC. TEQUNOLOGY
license=CC BY-NC-SA
exact mass=122.05518
ionization energy=70 eV
ion type=[M]+*
computed spectral entropy=1.6170639696319042
computed normalized entropy=0.6127430243691038
SPLASH=splash10-0a4i-2900000000-58d82b2fbf8eae78e395
submitter=submitter = University of Tokyo Team (Faculty of Engineering, University of Tokyo)
MoNA Rating=3.75

>  <NUM PEAKS>  (127) 
14

>  <MASS SPECTRAL PEAKS>  (127) 
53 10.5
54 1.1
55 3.2
65 1.1
66 1.1
67 2.1
77 9.5
79 6.3
91 3.2
107 99.99
108 11.6
109 3.2
122 20.5
123 2.1

>  <PREDICTED SPECTRUM>  (127) 
15 28
26 14
27 23
29 75
31 45
32 7
38 37
39 110
40 12
41 37
43 347
44 60
45 277
46 35
47 104
48 3
49 27
50 61
51 151
52 103
53 276
54 80
55 126
57 10
59 214
60 96
61 77
62 38
63 109
64 23
65 83
66 94
67 169
68 9
69 139
70 11
71 4
73 271
74 48
75 101
76 14
77 194
78 56
79 279
80 75
81 82
82 39
83 166
84 28
89 20
91 83
93 80
97 88
105 6
107 999
108 376
109 274
110 59
121 0
122 341
123 126
124 27

$$$$

     RDKit          2D

 24 25  0  0  0  0  0  0  0  0999 V2000
    2.9542   -8.1239    0.0000 C   0  0  0  0  0  0  0  0  0  0  0  0
    4.2532   -5.8739    0.0000 C   0  0  0  0  0  0  0  0  0  0  0  0
    2.9551   -0.6235    0.0000 C   0  0  0  0  0  0  0  0  0  0  0  0
    3.6457   -4.5436    0.0000 C   0  0  0  0  0  0  0  0  0  0  0  0
    1.6551   -7.3739    0.0000 C   0  0  0  0  0  0  0  0  0  0  0  0
    2.9542   -5.1239    0.0000 C   0  0  0  0  0  0  0  0  0  0  0  0
    1.6560   -1.3733    0.0000 C   0  0  0  0  0  0  0  0  0  0  0  0
    2.1685   -4.2829    0.0000 C   0  0  0  0  0  0  0  0  0  0  0  0
    9.0420   -1.5721    0.0000 C   0  0  0  0  0  0  0  0  0  0  0  0
    8.0778   -0.4219    0.0000 C   0  0  0  0  0  0  0  0  0  0  0  0
    8.5289   -2.9825    0.0000 C   0  0  0  0  0  0  0  0  0  0  0  0
   -2.2425   -5.1248    0.0000 C   0  0  0  0  0  0  0  0  0  0  0  0
   -2.2420   -3.6239    0.0000 C   0  0  0  0  0  0  0  0  0  0  0  0
    6.6006   -0.6822    0.0000 C   0  0  0  0  0  0  0  0  0  0  0  0
    7.0516   -3.2428    0.0000 C   0  0  0  0  0  0  0  0  0  0  0  0
   -0.9434   -5.8748    0.0000 C   0  0  0  0  0  0  0  0  0  0  0  0
   -0.9425   -2.8731    0.0000 C   0  0  0  0  0  0  0  0  0  0  0  0
    4.6102   -2.3528    0.0000 C   0  0  0  0  0  0  0  0  0  0  0  0
    3.1330   -2.6131    0.0000 C   0  0  0  0  0  0  0  0  0  0  0  0
    6.0875   -2.0926    0.0000 C   0  0  0  0  0  0  0  0  0  0  0  0
    0.3561   -5.1239    0.0000 C   0  0  0  0  0  0  0  0  0  0  0  0
    0.3566   -3.6231    0.0000 C   0  0  0  0  0  0  0  0  0  0  0  0
    1.6551   -5.8739    0.0000 Si  0  0  0  0  0  4  0  0  0  0  0  0
    1.6557   -2.8733    0.0000 Si  0  0  0  0  0  4  0  0  0  0  0  0
  5  1  1  0
  6  2  1  0
  7  3  1  0
  8  4  1  0
 10  9  2  0
 11  9  1  0
 13 12  2  0
 14 10  1  0
 15 11  2  0
 16 12  1  0
 17 13  1  0
 19 18  3  0
 20 14  2  0
 20 15  1  0
 20 18  1  0
 21 16  2  0
 22 17  2  0
 22 21  1  0
 23  5  1  0
 23  6  1  0
 23 21  1  0
 24  7  1  0
 24  8  1  0
 24 19  1  0
 24 22  1  0
M  END
>  <NAME>  (128) 
1-DIETHYL(2-PHENYLETHYNYL)SILYL-2-DIETHYLSILYLBENZENE

>  <SYNONYMS>  (128) 


>  <SPECTRUM TYPE>  (128) 
MS1

>  <INSTRUMENT TYPE>  (128) 
EI-B

>  <INSTRUMENT>  (128) 
SHIMADZU QP-1000

>  <ION MODE>  (128) 
P

>  <INCHIKEY>  (128) 
DDVDTQDACUPAFP-UHFFFAOYSA-N

>  <FORMULA>  (128) 
C22H30Si2

>  <EXACT MASS>  (128) 
350.18860401999996

>  <MW>  (128) 
350

>  <ID>  (128) 
JP011947

>  <CONTRIBUTOR>  (128) 
University of Tokyo Team, {Faculty of Engineering, University of Tokyo

>  <COMMENT>  (128) 
SMILES=CC[SiH](CC)c(c2)c(ccc2)[Si](CC)(CC)C#Cc(c1)cccc1
InChI=InChI=1S/C22H30Si2/c1-5-23(6-2)21-16-12-13-17-22(21)24(7-3,8-4)19-18-20-14-10-9-11-15-20/h9-17,23H,5-8H2,1-4H3
computed SMILES=C(#C[Si](C=1C=CC=CC1[SiH](CC)CC)(CC)CC)C=2C=CC=CC2
accession=JP011947
date=2016.01.19 (Created 2008.10.21, modified 2011.05.06)
author=ISHIKAWA M, HIROSHIMA UNIV. FAC. TEQUNOLOGY
license=CC BY-NC-SA
exact mass=350.1886
ionization energy=70 eV
ion type=[M]+*
computed spectral entropy=1.982737921853302
computed normalized entropy=0.6998194915370132
SPLASH=splash10-00di-0059000000-5840f5181383500387f8
submitter=submitter = University of Tokyo Team (Faculty of Engineering, University of Tokyo)
MoNA Rating=3.75

>  <NUM PEAKS>  (128) 
17

>  <MASS SPECTRAL PEAKS>  (128) 
105 3.2
118 1.1
207 1.1
235 5.3
236 1.1
237 11.7
238 3.2
263 14.9
266 3.2
267 1.1
293 35.1
294 10.6
295 3.2
321 99.99
322 40.4
323 13.3
324 2.7

>  <PREDICTED SPECTRUM>  (128) 
18 1
26 46
27 141
28 65
29 148
31 21
38 10
39 144
40 49
41 200
42 37
43 174
44 39
45 103
47 12
50 41
51 94
52 38
53 95
54 23
55 138
56 10
57 85
58 29
59 102
60 32
61 37
62 21
63 111
64 36
65 113
66 20
67 59
69 90
70 49
71 53
73 20
74 80
75 110
76 94
77 168
78 87
79 45
81 32
82 21
83 77
84 38
85 25
86 57
87 111
88 57
89 141
90 31
91 187
92 100
93 51
94 10
95 50
96 15
97 27
98 10
100 20
101 47
102 128
103 133
104 114
105 167
106 60
107 66
108 17
110 15
113 65
114 26
115 221
116 89
117 151
118 81
119 84
120 45
121 53
122 14
123 23
124 21
126 60
127 97
128 189
129 140
130 120
131 85
132 70
133 83
134 47
135 89
137 58
138 3
139 134
140 68
141 85
142 60
143 72
144 77
145 93
146 70
147 93
148 63
149 67
150 56
151 109
152 157
153 116
154 56
155 66
156 72
157 84
158 100
159 137
160 19
161 42
162 31
163 73
164 91
165 121
166 80
167 38
168 12
170 9
171 43
172 55
173 86
174 60
175 91
176 99
177 158
178 82
179 132
180 50
181 23
182 5
183 42
184 9
185 26
186 62
187 51
188 74
189 94
190 83
191 81
192 68
193 69
194 66
195 87
196 61
197 57
198 22
199 31
201 43
202 64
203 57
204 31
205 101
206 32
207 60
208 67
209 58
210 60
211 105
212 43
213 19
214 52
215 161
216 66
217 120
218 40
219 91
220 61
221 143
222 90
223 118
224 13
225 71
226 13
227 40
228 8
229 80
233 60
234 95
235 218
236 140
237 144
238 86
239 88
247 29
248 39
249 168
250 112
251 140
252 83
253 8
254 0
259 10
261 36
262 72
263 259
264 224
265 298
266 135
267 66
271 1
273 4
275 30
276 30
277 132
278 86
279 165
280 26
289 2
290 53
291 132
292 97
293 264
294 143
295 50
303 58
304 45
305 96
306 53
307 12
319 98
320 18
321 999
322 477
323 197
324 56
335 107
336 47
349 66
350 182
351 87
352 12

$$$$

     RDKit          2D

 29 33  0  0  0  0  0  0  0  0999 V2000
   -0.0122    5.7542    0.0000 C   0  0  0  0  0  0  0  0  0  0  0  0
   -3.2806    5.7637    0.0000 C   0  0  0  0  0  0  0  0  0  0  0  0
    0.9938    2.6612    0.0000 C   0  0  0  0  0  0  0  0  0  0  0  0
   -4.2788    2.6514    0.0000 C   0  0  0  0  0  0  0  0  0  0  0  0
   -2.6502    1.1267    0.0000 C   0  0  0  0  0  0  0  0  0  0  0  0
    3.6541    4.4726    0.0000 C   0  0  0  0  0  0  0  0  0  0  0  0
    4.1175    3.0450    0.0000 C   0  0  0  0  0  0  0  0  0  0  0  0
    2.1869    4.7844    0.0000 C   0  0  0  0  0  0  0  0  0  0  0  0
    3.2200   -2.6966    0.0000 C   0  0  0  0  0  0  0  0  0  0  0  0
   -3.2200   -2.6966    0.0000 C   0  0  0  0  0  0  0  0  0  0  0  0
    3.6900   -1.2666    0.0000 C   0  0  0  0  0  0  0  0  0  0  0  0
   -3.6800   -1.2666    0.0000 C   0  0  0  0  0  0  0  0  0  0  0  0
    3.1136    1.9294    0.0000 C   0  0  0  0  0  0  0  0  0  0  0  0
    1.1830    3.6688    0.0000 C   0  0  0  0  0  0  0  0  0  0  0  0
    1.7500   -3.0066    0.0000 C   0  0  0  0  0  0  0  0  0  0  0  0
   -1.7500   -3.0066    0.0000 C   0  0  0  0  0  0  0  0  0  0  0  0
    2.6800   -0.1566    0.0000 C   0  0  0  0  0  0  0  0  0  0  0  0
   -2.6800   -0.1566    0.0000 C   0  0  0  0  0  0  0  0  0  0  0  0
   -0.8964    4.5424    0.0000 C   0  0  0  0  0  0  0  0  0  0  0  0
   -2.3984    4.5506    0.0000 C   0  0  0  0  0  0  0  0  0  0  0  0
   -0.4332    3.1235    0.0000 C   0  0  0  0  0  0  0  0  0  0  0  0
   -2.8536    3.1191    0.0000 C   0  0  0  0  0  0  0  0  0  0  0  0
    1.6464    2.2412    0.0000 C   0  0  0  0  0  0  0  0  0  0  0  0
    0.7500   -1.8966    0.0000 C   0  0  0  0  0  0  0  0  0  0  0  0
   -0.7500   -1.8966    0.0000 C   0  0  0  0  0  0  0  0  0  0  0  0
    1.2100   -0.4666    0.0000 C   0  0  0  0  0  0  0  0  0  0  0  0
   -1.2100   -0.4666    0.0000 C   0  0  0  0  0  0  0  0  0  0  0  0
   -1.6464    2.2412    0.0000 C   0  0  0  0  0  0  0  0  0  0  0  0
    0.0000    0.4134    0.0000 Si  0  0  0  0  0  4  0  0  0  0  0  0
  7  6  2  0
  8  6  1  0
 11  9  2  0
 12 10  2  0
 13  7  1  0
 14  8  2  0
 15  9  1  0
 16 10  1  0
 17 11  1  0
 18 12  1  0
 19  1  1  0
 20  2  1  0
 20 19  1  0
 21  3  1  0
 21 19  2  0
 22  4  1  0
 22 20  2  0
 23 13  2  0
 23 14  1  0
 24 15  2  0
 25 16  2  0
 25 24  1  0
 26 17  2  0
 26 24  1  0
 27 18  2  0
 27 25  1  0
 28  5  1  0
 28 21  1  0
 28 22  1  0
 29 23  1  0
 29 26  1  0
 29 27  1  0
 29 28  1  0
M  END
>  <NAME>  (129) 
1-PHENYL-1-(PENTAMETHYLCYCLOPENTA-2,4-DIENYL)DIBENZOSILACYCLOPENTADIENE

>  <SYNONYMS>  (129) 


>  <SPECTRUM TYPE>  (129) 
MS1

>  <INSTRUMENT TYPE>  (129) 
EI-B

>  <INSTRUMENT>  (129) 
SHIMADZU QP-1000

>  <ION MODE>  (129) 
P

>  <INCHIKEY>  (129) 
DKHGQWUZCPYZOG-UHFFFAOYSA-N

>  <FORMULA>  (129) 
C28H28Si

>  <EXACT MASS>  (129) 
392.196027426

>  <MW>  (129) 
392

>  <ID>  (129) 
JP011946

>  <CONTRIBUTOR>  (129) 
University of Tokyo Team, {Faculty of Engineering, University of Tokyo

>  <COMMENT>  (129) 
SMILES=c(c5)cc(cc5)[Si](c43)(c(c2)c(c3cccc4)ccc2)C(C=1C)(C(=C(C)C(C)1)C)C
InChI=InChI=1S/C28H28Si/c1-19-20(2)22(4)28(5,21(19)3)29(23-13-7-6-8-14-23)26-17-11-9-15-24(26)25-16-10-12-18-27(25)29/h6-18H,1-5H3
computed SMILES=C=1C=CC(=CC1)[Si]2(C=3C=CC=CC3C=4C=CC=CC42)C5(C(=C(C(=C5C)C)C)C)C
accession=JP011946
date=2016.01.19 (Created 2008.10.21, modified 2011.05.06)
author=ISHIKAWA M, HIROSHIMA UNIV. FAC. TEQUNOLOGY
license=CC BY-NC-SA
exact mass=392.19603
ionization energy=70 eV
ion type=[M]+*
computed spectral entropy=2.2329277298018835
computed normalized entropy=0.7121453831609744
SPLASH=splash10-0a4l-1195000000-c0e7d1acccf0ea248120
submitter=submitter = University of Tokyo Team (Faculty of Engineering, University of Tokyo)
MoNA Rating=3.75

>  <NUM PEAKS>  (129) 
23

>  <MASS SPECTRAL PEAKS>  (129) 
53 3.2
54 6.8
56 2.1
77 2.7
78 1.1
79 1.1
91 2.7
105 2.7
119 5.8
134 12.1
135 2.1
229 2.1
254 2.1
255 8.4
256 5.3
257 99.99
258 24.2
259 5.8
334 4.7
390 2.6
392 54.7
393 22.1
394 5.8

>  <PREDICTED SPECTRUM>  (129) 
44 19
60 22
73 56
77 37
91 66
105 108
116 31
117 22
118 51
119 149
120 2
121 22
134 335
135 68
150 20
151 39
164 22
193 12
194 16
199 3
239 31
240 5
255 345
256 308
257 999
258 202
259 201
260 29
273 70
392 572
393 343
394 182
395 23

$$$$

     RDKit          2D

 18 19  0  0  0  0  0  0  0  0999 V2000
    0.8491   -4.0587    0.0000 C   0  0  0  0  0  0  0  0  0  0  0  0
    1.7509   -4.0587    0.0000 C   0  0  0  0  0  0  0  0  0  0  0  0
    1.7509    4.0587    0.0000 C   0  0  0  0  0  0  0  0  0  0  0  0
    0.8491    4.0587    0.0000 C   0  0  0  0  0  0  0  0  0  0  0  0
    0.3359   -2.6492    0.0000 C   0  0  0  0  0  0  0  0  0  0  0  0
    2.2641   -2.6492    0.0000 C   0  0  0  0  0  0  0  0  0  0  0  0
    2.2641    2.6492    0.0000 C   0  0  0  0  0  0  0  0  0  0  0  0
    0.3359    2.6492    0.0000 C   0  0  0  0  0  0  0  0  0  0  0  0
   -2.6000   -0.7500    0.0000 C   0  0  0  0  0  0  0  0  0  0  0  0
   -2.6000    0.7500    0.0000 C   0  0  0  0  0  0  0  0  0  0  0  0
   -1.3000   -1.5000    0.0000 C   0  0  0  0  0  0  0  0  0  0  0  0
   -1.3000    1.5000    0.0000 C   0  0  0  0  0  0  0  0  0  0  0  0
    2.6000   -0.7500    0.0000 C   0  0  0  0  0  0  0  0  0  0  0  0
    2.6000    0.7500    0.0000 C   0  0  0  0  0  0  0  0  0  0  0  0
    0.0000   -0.7500    0.0000 C   0  0  0  0  0  0  0  0  0  0  0  0
    0.0000    0.7500    0.0000 C   0  0  0  0  0  0  0  0  0  0  0  0
    1.3000   -1.5000    0.0000 Si  0  0  0  0  0  4  0  0  0  0  0  0
    1.3000    1.5000    0.0000 Si  0  0  0  0  0  4  0  0  0  0  0  0
  5  1  1  0
  6  2  1  0
  7  3  1  0
  8  4  1  0
 10  9  2  0
 11  9  1  0
 12 10  1  0
 14 13  1  0
 15 11  2  0
 16 12  2  0
 16 15  1  0
 17  5  1  0
 17  6  1  0
 17 13  1  0
 17 15  1  0
 18  7  1  0
 18  8  1  0
 18 14  1  0
 18 16  1  0
M  END
>  <NAME>  (130) 
5,6-BENZO-1,1,4,4-TETRAETHYL-1,4-DISILACYCLOHEX-5-ENE

>  <SYNONYMS>  (130) 


>  <SPECTRUM TYPE>  (130) 
MS1

>  <INSTRUMENT TYPE>  (130) 
EI-B

>  <INSTRUMENT>  (130) 
SHIMADZU QP-1000

>  <ION MODE>  (130) 
P

>  <INCHIKEY>  (130) 
GRHDPCHHVFWZBM-UHFFFAOYSA-N

>  <FORMULA>  (130) 
C16H28Si2

>  <EXACT MASS>  (130) 
276.172953956

>  <MW>  (130) 
276

>  <ID>  (130) 
JP011945

>  <CONTRIBUTOR>  (130) 
University of Tokyo Team, {Faculty of Engineering, University of Tokyo

>  <COMMENT>  (130) 
SMILES=CC[Si](CC)(C1)c(c2)c(ccc2)[Si](CC)(CC)C1
InChI=InChI=1S/C16H28Si2/c1-5-17(6-2)13-14-18(7-3,8-4)16-12-10-9-11-15(16)17/h9-12H,5-8,13-14H2,1-4H3
computed SMILES=C=1C=CC2=C(C1)[Si](CC)(CC)CC[Si]2(CC)CC
accession=JP011945
date=2016.01.19 (Created 2008.10.21, modified 2011.05.06)
author=ISHIKAWA M, HIROSHIMA UNIV. FAC. TEQUNOLOGY
license=CC BY-NC-SA
exact mass=276.17295
ionization energy=70 eV
ion type=[M]+*
computed spectral entropy=3.4535576328461066
computed normalized entropy=0.8243060217357462
SPLASH=splash10-052b-7690000000-50660464190870fe31e4
submitter=submitter = University of Tokyo Team (Faculty of Engineering, University of Tokyo)
MoNA Rating=3.75

>  <NUM PEAKS>  (130) 
66

>  <MASS SPECTRAL PEAKS>  (130) 
53 8.4
54 1.1
55 9.5
56 2.1
57 22.1
58 8.4
59 60
60 3.2
61 1.1
67 2.1
68 3.2
69 1.1
79 2.1
80 3.2
81 43.2
82 5.3
87 6.3
95 26.3
96 11.6
97 2.1
104 1.1
105 9.5
107 4.2
108 3.2
109 15.8
110 4.2
119 1.1
130 2.1
131 15.8
132 4.2
133 8.4
134 3.2
135 8.4
136 2.1
145 2.1
147 3.2
149 4.2
158 3.2
159 15.8
160 5.3
161 9.5
162 5.3
163 15.8
164 3.2
177 2.1
189 4.2
190 3.2
191 28.4
192 6.3
193 1.1
217 1.1
218 2.1
219 63.2
220 14.7
221 14.7
222 4.2
245 2.1
246 5.3
248 99.99
249 30.5
250 1.1
251 3.2
274 1.1
275 4.2
276 9.5
277 3.2

>  <PREDICTED SPECTRUM>  (130) 
26 43
27 92
28 18
29 150
31 41
33 2
39 10
40 8
41 71
42 19
43 54
44 43
45 57
46 6
47 34
50 14
51 45
52 24
53 110
54 52
55 165
56 56
57 298
58 118
59 434
60 161
61 84
62 34
63 85
64 21
65 26
67 66
68 59
69 183
70 67
71 114
72 33
73 48
74 76
75 129
76 59
77 132
78 79
79 137
80 158
81 257
82 132
83 176
84 44
85 113
86 51
87 135
88 26
89 107
90 60
91 105
92 34
93 49
94 47
95 354
96 106
97 142
98 42
99 94
100 34
101 66
102 84
103 232
104 126
105 241
106 115
107 235
108 140
109 226
110 89
111 47
112 14
113 19
115 5
116 24
117 35
118 37
119 126
120 58
121 104
122 27
123 44
124 32
126 16
127 27
128 25
129 39
130 107
131 355
132 276
133 405
134 209
135 335
136 240
137 63
138 62
139 84
141 41
143 33
145 159
146 84
147 190
148 90
149 159
150 8
151 25
157 84
158 71
159 268
160 151
161 340
162 127
163 446
164 244
165 104
173 33
175 46
177 104
178 39
187 124
188 116
189 234
190 136
191 646
192 317
193 167
194 93
195 4
205 124
215 7
217 198
218 89
219 661
220 424
221 307
222 170
223 57
233 28
245 255
246 134
247 211
248 999
249 523
250 287
251 147
252 8
262 0
275 62
276 338
277 173
278 39

$$$$

     RDKit          2D

 22 24  0  0  0  0  0  0  0  0999 V2000
   -0.4509   -4.0587    0.0000 C   0  0  0  0  0  0  0  0  0  0  0  0
    0.4509   -4.0587    0.0000 C   0  0  0  0  0  0  0  0  0  0  0  0
    0.4509    4.0587    0.0000 C   0  0  0  0  0  0  0  0  0  0  0  0
   -0.4509    4.0587    0.0000 C   0  0  0  0  0  0  0  0  0  0  0  0
   -0.9641   -2.6492    0.0000 C   0  0  0  0  0  0  0  0  0  0  0  0
    0.9641   -2.6492    0.0000 C   0  0  0  0  0  0  0  0  0  0  0  0
    0.9641    2.6492    0.0000 C   0  0  0  0  0  0  0  0  0  0  0  0
   -0.9641    2.6492    0.0000 C   0  0  0  0  0  0  0  0  0  0  0  0
    3.9000   -0.7500    0.0000 C   0  0  0  0  0  0  0  0  0  0  0  0
   -3.9000   -0.7500    0.0000 C   0  0  0  0  0  0  0  0  0  0  0  0
    3.9000    0.7500    0.0000 C   0  0  0  0  0  0  0  0  0  0  0  0
   -3.9000    0.7500    0.0000 C   0  0  0  0  0  0  0  0  0  0  0  0
    2.6000   -1.5000    0.0000 C   0  0  0  0  0  0  0  0  0  0  0  0
   -2.6000   -1.5000    0.0000 C   0  0  0  0  0  0  0  0  0  0  0  0
    2.6000    1.5000    0.0000 C   0  0  0  0  0  0  0  0  0  0  0  0
   -2.6000    1.5000    0.0000 C   0  0  0  0  0  0  0  0  0  0  0  0
    1.3000   -0.7500    0.0000 C   0  0  0  0  0  0  0  0  0  0  0  0
   -1.3000   -0.7500    0.0000 C   0  0  0  0  0  0  0  0  0  0  0  0
    1.3000    0.7500    0.0000 C   0  0  0  0  0  0  0  0  0  0  0  0
   -1.3000    0.7500    0.0000 C   0  0  0  0  0  0  0  0  0  0  0  0
   -0.0000   -1.5000    0.0000 Si  0  0  0  0  0  4  0  0  0  0  0  0
   -0.0000    1.5000    0.0000 Si  0  0  0  0  0  4  0  0  0  0  0  0
  5  1  1  0
  6  2  1  0
  7  3  1  0
  8  4  1  0
 11  9  2  0
 12 10  2  0
 13  9  1  0
 14 10  1  0
 15 11  1  0
 16 12  1  0
 17 13  2  0
 18 14  2  0
 19 15  2  0
 19 17  1  0
 20 16  2  0
 20 18  1  0
 21  5  1  0
 21  6  1  0
 21 17  1  0
 21 18  1  0
 22  7  1  0
 22  8  1  0
 22 19  1  0
 22 20  1  0
M  END
>  <NAME>  (131) 
2,3,5,6-BENZO-1,1,4,4-TETRAETHYL-1,4-DISILACYCLOHEXA-2,5-DIENE

>  <SYNONYMS>  (131) 


>  <SPECTRUM TYPE>  (131) 
MS1

>  <INSTRUMENT TYPE>  (131) 
EI-B

>  <INSTRUMENT>  (131) 
SHIMADZU QP-1000

>  <ION MODE>  (131) 
P

>  <INCHIKEY>  (131) 
XVDULWVRZSBLGW-UHFFFAOYSA-N

>  <FORMULA>  (131) 
C20H28Si2

>  <EXACT MASS>  (131) 
324.172953956

>  <MW>  (131) 
324

>  <ID>  (131) 
JP011944

>  <CONTRIBUTOR>  (131) 
University of Tokyo Team, {Faculty of Engineering, University of Tokyo

>  <COMMENT>  (131) 
SMILES=CC[Si](CC)(c21)c(c3)c(ccc3)[Si](CC)(CC)c(cccc2)1
InChI=InChI=1S/C20H28Si2/c1-5-21(6-2)17-13-9-11-15-19(17)22(7-3,8-4)20-16-12-10-14-18(20)21/h9-16H,5-8H2,1-4H3
computed SMILES=C=1C=CC2=C(C1)[Si](C=3C=CC=CC3[Si]2(CC)CC)(CC)CC
accession=JP011944
date=2016.01.19 (Created 2008.10.21, modified 2011.05.06)
author=ISHIKAWA M, HIROSHIMA UNIV. FAC. TEQUNOLOGY
license=CC BY-NC-SA
exact mass=324.17295
ionization energy=70 eV
ion type=[M]+*
computed spectral entropy=2.1137333885963643
computed normalized entropy=0.7055815391970037
SPLASH=splash10-0002-0190000000-85aaa55975a3766eb57e
submitter=submitter = University of Tokyo Team (Faculty of Engineering, University of Tokyo)
MoNA Rating=3.75

>  <NUM PEAKS>  (131) 
20

>  <MASS SPECTRAL PEAKS>  (131) 
54 1.1
105 20
106 1.1
119 4.2
133 3.2
181 2.1
209 3.2
211 13.7
212 3.2
239 10.5
240 2.1
267 24.2
268 6.3
269 2.1
295 99.99
296 30.5
297 10.5
298 1.1
324 4
325 1.1

>  <PREDICTED SPECTRUM>  (131) 
27 2
29 21
41 20
45 6
51 23
55 16
57 46
59 123
60 17
63 6
69 25
75 4
76 4
77 60
81 113
82 32
95 22
97 16
99 66
103 32
105 117
109 28
115 61
125 5
127 19
151 49
153 93
155 69
165 2
167 67
181 176
183 82
193 50
195 2
197 4
209 154
210 38
211 506
212 139
223 9
228 71
237 24
239 329
240 70
252 19
265 18
266 63
267 420
268 187
269 92
295 999
296 474
297 258
323 31
324 210
325 76

$$$$

     RDKit          2D

 24 25  0  0  0  0  0  0  0  0999 V2000
    3.8971   -4.0589    0.0000 C   0  0  0  0  0  0  0  0  0  0  0  0
    2.5988   -1.8085    0.0000 C   0  0  0  0  0  0  0  0  0  0  0  0
    7.6388    2.0795    0.0000 C   0  0  0  0  0  0  0  0  0  0  0  0
    4.7465    3.7500    0.0000 C   0  0  0  0  0  0  0  0  0  0  0  0
    5.1964   -3.3093    0.0000 C   0  0  0  0  0  0  0  0  0  0  0  0
    3.8981   -1.0589    0.0000 C   0  0  0  0  0  0  0  0  0  0  0  0
    6.1616    2.3402    0.0000 C   0  0  0  0  0  0  0  0  0  0  0  0
    4.2332    2.3405    0.0000 C   0  0  0  0  0  0  0  0  0  0  0  0
   -1.2983   -1.0576    0.0000 C   0  0  0  0  0  0  0  0  0  0  0  0
    0.0011   -1.8087    0.0000 C   0  0  0  0  0  0  0  0  0  0  0  0
   -1.2986    0.4432    0.0000 C   0  0  0  0  0  0  0  0  0  0  0  0
    9.0947   -1.0614    0.0000 C   0  0  0  0  0  0  0  0  0  0  0  0
    9.0947    0.4394    0.0000 C   0  0  0  0  0  0  0  0  0  0  0  0
    1.3002   -1.0589    0.0000 C   0  0  0  0  0  0  0  0  0  0  0  0
    0.0006    1.1930    0.0000 C   0  0  0  0  0  0  0  0  0  0  0  0
    7.7954   -1.8110    0.0000 C   0  0  0  0  0  0  0  0  0  0  0  0
    7.7954    1.1907    0.0000 C   0  0  0  0  0  0  0  0  0  0  0  0
    2.5992    1.1917    0.0000 C   0  0  0  0  0  0  0  0  0  0  0  0
    3.8981    0.4415    0.0000 C   0  0  0  0  0  0  0  0  0  0  0  0
    1.3000    0.4419    0.0000 C   0  0  0  0  0  0  0  0  0  0  0  0
    6.4962   -1.0597    0.0000 C   0  0  0  0  0  0  0  0  0  0  0  0
    6.4962    0.4411    0.0000 C   0  0  0  0  0  0  0  0  0  0  0  0
    5.1969   -1.8093    0.0000 Si  0  0  0  0  0  4  0  0  0  0  0  0
    5.1972    1.1913    0.0000 Si  0  0  0  0  0  4  0  0  0  0  0  0
  5  1  1  0
  6  2  1  0
  7  3  1  0
  8  4  1  0
 10  9  2  0
 11  9  1  0
 13 12  2  0
 14 10  1  0
 15 11  2  0
 16 12  1  0
 17 13  1  0
 18 19  2  0
 20 14  2  0
 20 15  1  0
 20 18  1  0
 21 16  2  0
 22 17  2  0
 22 21  1  0
 23  5  1  0
 23  6  1  0
 23 21  1  0
 24  7  1  0
 24  8  1  0
 24 19  1  0
 24 22  1  0
M  END
>  <NAME>  (132) 
TRANS-1-(DIETHYL(2-PHENYLETHENYL)SILYL-2-(DIETHYL)BENZENE

>  <SYNONYMS>  (132) 


>  <SPECTRUM TYPE>  (132) 
MS1

>  <INSTRUMENT TYPE>  (132) 
EI-B

>  <INSTRUMENT>  (132) 
SHIMADZU QP-1000

>  <ION MODE>  (132) 
P

>  <INCHIKEY>  (132) 
FLKOOYUSMGBXQI-VHEBQXMUSA-N

>  <FORMULA>  (132) 
C22H32Si2

>  <EXACT MASS>  (132) 
352.204254084

>  <MW>  (132) 
352

>  <ID>  (132) 
JP011943

>  <CONTRIBUTOR>  (132) 
University of Tokyo Team, {Faculty of Engineering, University of Tokyo

>  <COMMENT>  (132) 
SMILES=CC[SiH](CC)c(c2)c(ccc2)[Si](CC)(CC)C([H])=C([H])c(c1)cccc1
InChI=InChI=1S/C22H32Si2/c1-5-23(6-2)21-16-12-13-17-22(21)24(7-3,8-4)19-18-20-14-10-9-11-15-20/h9-19,23H,5-8H2,1-4H3/b19-18+
computed SMILES=C=1C=CC(=CC1)C=C[Si](C=2C=CC=CC2[SiH](CC)CC)(CC)CC
accession=JP011943
date=2016.01.19 (Created 2008.10.21, modified 2011.05.06)
author=ISHIKAWA M, HIROSHIMA UNIV. FAC. TEQUNOLOGY
license=CC BY-NC-SA
exact mass=352.20425
ionization energy=70 eV
ion type=[M]+*
computed spectral entropy=3.1671763655690484
computed normalized entropy=0.805523098280058
SPLASH=splash10-00di-3249000000-78c93f9ff727e9a1b883
submitter=submitter = University of Tokyo Team (Faculty of Engineering, University of Tokyo)
MoNA Rating=3.75

>  <NUM PEAKS>  (132) 
51

>  <MASS SPECTRAL PEAKS>  (132) 
51 5.3
52 1.5
53 3.9
55 5.3
56 2.1
57 9.5
58 2.1
59 24.2
60 1.1
77 3.2
78 5.3
87 2.1
91 3.2
103 2.1
104 3.2
105 8.4
106 1.1
107 10.5
131 4.2
133 3.2
135 6.3
149 3.2
159 3.2
163 3.2
177 3.2
205 6.3
207 3.2
219 1.1
225 3.2
235 5.3
237 4.2
239 3.2
245 2.1
253 6.3
254 1.1
265 2.1
267 5.3
281 9.5
282 1.1
293 4.2
295 17.9
296 4.2
297 1.1
321 13.7
322 6.3
323 99.99
324 31.6
325 11.6
326 1.1
352 5.3
353 2.1

>  <PREDICTED SPECTRUM>  (132) 
26 28
27 114
28 45
29 114
34 4
36 2
38 10
39 102
40 48
41 95
42 9
43 5
44 59
45 230
46 4
47 21
50 28
51 99
52 43
53 39
55 54
56 10
57 92
58 63
59 300
60 52
61 37
63 38
64 2
65 83
66 9
67 13
69 31
70 58
71 53
72 0
74 49
75 77
76 46
77 123
78 41
82 11
83 53
85 24
86 18
87 91
88 19
89 87
90 31
91 152
92 80
97 15
100 7
101 3
102 72
103 96
104 111
105 131
106 14
107 86
113 9
114 6
115 259
116 44
117 82
118 48
119 79
120 90
121 93
122 38
128 16
129 5
130 4
132 66
133 83
134 76
135 214
137 52
139 5
142 26
143 38
144 10
145 14
147 64
148 46
149 98
150 74
151 69
152 89
153 76
154 65
155 50
156 0
159 38
160 34
161 95
162 59
163 84
164 68
165 107
166 53
168 3
174 5
175 65
177 81
178 13
179 50
180 47
181 25
185 43
186 39
187 26
188 39
189 103
190 26
191 13
192 19
193 54
194 37
195 19
196 20
198 17
204 10
205 189
206 41
207 122
208 42
209 21
215 15
216 44
217 200
218 9
219 80
220 31
222 37
225 35
233 4
234 12
235 59
236 24
237 123
239 71
240 0
241 17
250 47
251 131
253 136
254 16
265 184
266 141
267 298
268 107
269 67
279 63
280 12
281 207
282 49
291 49
293 221
294 140
295 395
296 169
297 106
321 194
322 117
323 999
324 461
325 322
326 82
337 0
351 71
352 236
353 110
354 25

$$$$

     RDKit          2D

 12 12  0  0  0  0  0  0  0  0999 V2000
    5.1970    1.5006    0.0000 C   0  0  0  0  0  0  0  0  0  0  0  0
   -2.5989   -1.5002    0.0000 C   0  0  0  0  0  0  0  0  0  0  0  0
    3.5629    2.6494    0.0000 C   0  0  0  0  0  0  0  0  0  0  0  0
    3.8981    0.7504    0.0000 C   0  0  0  0  0  0  0  0  0  0  0  0
   -1.3000    0.7500    0.0000 C   0  0  0  0  0  0  0  0  0  0  0  0
   -0.0000   -1.5000    0.0000 C   0  0  0  0  0  0  0  0  0  0  0  0
    0.0000    1.5000    0.0000 C   0  0  0  0  0  0  0  0  0  0  0  0
    1.3000   -0.7500    0.0000 C   0  0  0  0  0  0  0  0  0  0  0  0
   -1.3000   -0.7500    0.0000 C   0  0  0  0  0  0  0  0  0  0  0  0
    1.3000    0.7500    0.0000 C   0  0  0  0  0  0  0  0  0  0  0  0
    1.6346    2.6491    0.0000 Cl  0  0  0  0  0  0  0  0  0  0  0  0
    2.5989    1.5002    0.0000 Si  0  0  0  0  0  4  0  0  0  0  0  0
  4  1  1  0
  7  5  2  0
  8  6  1  0
  9  2  1  0
  9  5  1  0
  9  6  2  0
 10  7  1  0
 10  8  2  0
 12  3  1  0
 12  4  1  0
 12 10  1  0
 12 11  1  0
M  END
>  <NAME>  (133) 
CHLOROETHYLMETHYL(PARA-TOLYL)SILANE

>  <SYNONYMS>  (133) 


>  <SPECTRUM TYPE>  (133) 
MS1

>  <INSTRUMENT TYPE>  (133) 
EI-B

>  <INSTRUMENT>  (133) 
SHIMADZU QP-1000

>  <ION MODE>  (133) 
P

>  <INCHIKEY>  (133) 
KBTQTCKPXGMEGG-UHFFFAOYSA-N

>  <FORMULA>  (133) 
C10H15ClSi

>  <EXACT MASS>  (133) 
198.06315469

>  <MW>  (133) 
198

>  <ID>  (133) 
JP011942

>  <CONTRIBUTOR>  (133) 
University of Tokyo Team, {Faculty of Engineering, University of Tokyo

>  <COMMENT>  (133) 
SMILES=Cc(c1)ccc(c1)[Si](C)(Cl)CC
InChI=InChI=1S/C10H15ClSi/c1-4-12(3,11)10-7-5-9(2)6-8-10/h5-8H,4H2,1-3H3
computed SMILES=Cl[Si](C1=CC=C(C=C1)C)(C)CC
accession=JP011942
date=2016.01.19 (Created 2008.10.21, modified 2011.05.06)
author=ISHIKAWA M, HIROSHIMA UNIV. FAC. TEQUNOLOGY
license=CC BY-NC-SA
exact mass=198.06315
ionization energy=70 eV
ion type=[M]+*
computed spectral entropy=2.8714058424309825
computed normalized entropy=0.7783951408953509
SPLASH=splash10-014i-6900000000-746e2924265a13420965
submitter=submitter = University of Tokyo Team (Faculty of Engineering, University of Tokyo)
MoNA Rating=3.75

>  <NUM PEAKS>  (133) 
40

>  <MASS SPECTRAL PEAKS>  (133) 
51 4.2
53 7.4
63 49.5
64 3.2
65 29.5
66 2.1
67 3.2
77 7.4
78 6.3
79 15.8
80 2.1
82 3.2
89 3.2
91 36.8
92 3.2
93 3.2
103 5.3
104 1.1
105 13.7
106 2.1
107 2.1
117 2.1
119 6.3
131 3.2
135 3.2
141 2.1
153 1.1
155 11.6
156 1.1
157 3.2
163 1.1
168 5.3
169 99.99
170 13.7
171 36.8
172 3.2
183 2.1
198 13.7
199 1.1
200 4.2

>  <PREDICTED SPECTRUM>  (133) 
26 31
27 123
28 25
29 44
36 4
38 52
39 214
40 30
41 56
43 71
44 21
50 123
51 251
52 137
53 132
55 18
62 89
63 288
64 102
65 441
66 109
67 97
68 14
69 17
74 55
75 27
76 48
77 311
78 276
79 257
80 40
81 25
85 1
89 179
90 130
91 607
92 268
93 230
95 46
99 1
101 28
102 81
103 235
104 73
105 233
106 72
107 221
108 57
113 14
115 143
117 155
119 282
120 32
127 13
129 17
133 16
134 41
135 91
139 25
140 62
141 218
142 38
143 103
153 8
154 52
155 165
156 94
157 48
169 999
170 342
171 634
172 164
173 6
183 64
198 402
199 147
200 210
201 42

$$$$

     RDKit          2D

 16 16  0  0  0  0  0  0  0  0999 V2000
    1.6111   -3.2110    0.0000 C   0  0  0  0  0  0  0  0  0  0  0  0
    3.6601   -2.6620    0.0000 C   0  0  0  0  0  0  0  0  0  0  0  0
    3.1111   -0.6129    0.0000 C   0  0  0  0  0  0  0  0  0  0  0  0
    2.5620    0.3380    0.0000 C   0  0  0  0  0  0  0  0  0  0  0  0
    1.0620    1.8380    0.0000 C   0  0  0  0  0  0  0  0  0  0  0  0
   -0.4380    0.3380    0.0000 C   0  0  0  0  0  0  0  0  0  0  0  0
   -1.5356   -4.1628    0.0000 C   0  0  0  0  0  0  0  0  0  0  0  0
   -2.8351   -3.4120    0.0000 C   0  0  0  0  0  0  0  0  0  0  0  0
   -0.2365   -3.4128    0.0000 C   0  0  0  0  0  0  0  0  0  0  0  0
   -1.5365   -1.1612    0.0000 C   0  0  0  0  0  0  0  0  0  0  0  0
   -2.8356   -1.9112    0.0000 C   0  0  0  0  0  0  0  0  0  0  0  0
   -0.2370   -1.9120    0.0000 C   0  0  0  0  0  0  0  0  0  0  0  0
   -4.1347   -1.1614    0.0000 Br  0  0  0  0  0  0  0  0  0  0  0  0
    1.0620   -1.1620    0.0000 N   0  0  0  0  0  0  0  0  0  0  0  0
    2.3611   -1.9120    0.0000 Si  0  0  0  0  0  4  0  0  0  0  0  0
    1.0620    0.3380    0.0000 Si  0  0  0  0  0  4  0  0  0  0  0  0
  8  7  2  0
  9  7  1  0
 11  8  1  0
 11 10  2  0
 12  9  2  0
 12 10  1  0
 13 11  1  0
 14 12  1  0
 15  1  1  0
 15  2  1  0
 15  3  1  0
 15 14  1  0
 16  4  1  0
 16  5  1  0
 16  6  1  0
 16 14  1  0
M  END
>  <NAME>  (134) 
N,N-BIS(TRIMETHYLSILYL)-3-BROMOANILINE

>  <SYNONYMS>  (134) 


>  <SPECTRUM TYPE>  (134) 
MS1

>  <INSTRUMENT TYPE>  (134) 
EI-B

>  <INSTRUMENT>  (134) 
SHIMADZU QP-1000

>  <ION MODE>  (134) 
P

>  <INCHIKEY>  (134) 
MDGATTWZVMLJMF-UHFFFAOYSA-N

>  <FORMULA>  (134) 
C12H22BrNSi2

>  <EXACT MASS>  (134) 
315.047414864

>  <MW>  (134) 
315

>  <ID>  (134) 
JP011941

>  <CONTRIBUTOR>  (134) 
University of Tokyo Team, {Faculty of Engineering, University of Tokyo

>  <COMMENT>  (134) 
SMILES=Brc(c1)cc(cc1)N([Si](C)(C)C)[Si](C)(C)C
InChI=InChI=1S/C12H22BrNSi2/c1-15(2,3)14(16(4,5)6)12-9-7-8-11(13)10-12/h7-10H,1-6H3
computed SMILES=BrC1=CC=CC(=C1)N([Si](C)(C)C)[Si](C)(C)C
accession=JP011941
date=2016.01.19 (Created 2008.10.21, modified 2011.05.06)
author=ISHIKAWA M, HIROSHIMA UNIV. FAC. TEQUNOLOGY
license=CC BY-NC-SA
exact mass=315.04742
ionization energy=70 eV
ion type=[M]+*
computed spectral entropy=2.7213999664721413
computed normalized entropy=0.7377307934085956
SPLASH=splash10-0uk9-6019000000-9e3bee25a86696027a23
submitter=submitter = University of Tokyo Team (Faculty of Engineering, University of Tokyo)
MoNA Rating=3.75

>  <NUM PEAKS>  (134) 
40

>  <MASS SPECTRAL PEAKS>  (134) 
51 1.1
53 2.6
54 2.1
55 4.2
56 1.1
57 3.2
58 5.3
59 18.9
60 1.1
63 1.1
67 2.1
69 3.2
70 5.3
71 1.1
73 99.99
74 8.4
75 8.4
79 2.6
81 2.1
84 1.1
95 1.1
100 2.1
121 4.2
137 1.1
139 1.1
148 6.3
206 12.6
207 2.1
221 12.6
222 3.2
299 10.5
300 75.8
301 18.9
302 82.1
303 18.9
304 6.3
310 12.6
311 2.6
312 13.2
313 2.6

>  <PREDICTED SPECTRUM>  (134) 
15 67
18 6
26 4
27 23
28 8
29 81
31 31
33 4
38 30
39 68
40 18
41 31
42 53
43 168
44 86
45 392
46 77
47 57
50 81
51 102
52 60
53 73
54 38
55 92
56 37
57 29
58 60
59 154
60 32
61 44
62 54
63 120
64 68
65 31
66 29
67 25
68 31
70 38
71 3
72 47
73 735
74 224
75 163
76 132
77 137
78 89
79 44
80 28
81 55
82 46
83 40
84 24
85 14
86 44
87 49
88 3
89 74
90 54
91 128
92 36
93 52
94 66
95 59
96 17
98 44
99 64
100 39
101 41
102 95
103 68
104 13
105 80
106 40
107 133
108 34
109 116
110 44
111 81
112 29
113 22
114 57
115 100
116 70
117 92
118 71
119 118
120 118
121 63
122 20
123 32
125 89
127 32
128 46
129 15
130 145
131 109
132 127
133 83
134 113
135 118
136 84
137 264
138 20
139 191
140 13
141 62
142 53
143 31
144 31
145 51
146 165
147 161
148 162
149 102
150 13
155 39
156 18
157 81
158 83
159 32
160 58
161 81
162 62
163 90
169 85
171 52
172 64
174 37
175 76
176 117
177 52
178 78
180 9
181 10
182 11
184 30
185 23
186 90
187 79
188 67
189 6
190 63
191 60
192 87
193 42
203 73
204 132
205 98
206 284
207 168
208 35
212 5
214 15
218 24
219 63
220 339
221 522
222 208
223 122
224 5
227 9
228 61
229 17
234 6
236 154
237 72
270 34
284 128
286 125
287 10
298 8
300 944
301 459
302 999
303 434
304 226
306 46
314 76
315 379
316 228
317 452
318 174
319 65

$$$$

     RDKit          2D

 11 10  0  0  0  0  0  0  0  0999 V2000
    2.2733    2.8125    0.0000 C   0  0  0  0  0  0  0  0  0  0  0  0
    0.9743    5.0625    0.0000 C   0  0  0  0  0  0  0  0  0  0  0  0
   -5.5209    2.8125    0.0000 C   0  0  0  0  0  0  0  0  0  0  0  0
   -4.2219    5.0625    0.0000 C   0  0  0  0  0  0  0  0  0  0  0  0
   -0.6596    4.7116    0.0000 C   0  0  0  0  0  0  0  0  0  0  0  0
   -2.5880    4.7116    0.0000 C   0  0  0  0  0  0  0  0  0  0  0  0
   -0.3248    2.8125    0.0000 O   0  0  0  0  0  0  0  0  0  0  0  0
   -2.9228    2.8125    0.0000 O   0  0  0  0  0  0  0  0  0  0  0  0
    0.9743    3.5625    0.0000 Si  0  0  0  0  0  4  0  0  0  0  0  0
   -4.2219    3.5625    0.0000 Si  0  0  0  0  0  4  0  0  0  0  0  0
   -1.6238    3.5625    0.0000 Si  0  0  0  0  0  4  0  0  0  0  0  0
  9  1  1  0
  9  2  1  0
  9  7  1  0
 10  3  1  0
 10  4  1  0
 10  8  1  0
 11  5  1  0
 11  6  1  0
 11  7  1  0
 11  8  1  0
M  END
>  <NAME>  (135) 
1,1,3,3,5,5-HEXAMETHYLTRISILOXANE

>  <SYNONYMS>  (135) 


>  <SPECTRUM TYPE>  (135) 
MS1

>  <INSTRUMENT TYPE>  (135) 
EI-B

>  <INSTRUMENT>  (135) 
SHIMADZU QP-1000

>  <ION MODE>  (135) 
P

>  <INCHIKEY>  (135) 
HZBDPZBVINJJET-UHFFFAOYSA-N

>  <FORMULA>  (135) 
C6H20O2Si3

>  <EXACT MASS>  (135) 
208.07710946999998

>  <MW>  (135) 
208

>  <ID>  (135) 
JP011940

>  <CONTRIBUTOR>  (135) 
University of Tokyo Team, {Faculty of Engineering, University of Tokyo

>  <COMMENT>  (135) 
SMILES=C[SiH](C)O[Si](C)(C)O[SiH](C)C
InChI=InChI=1S/C6H20O2Si3/c1-9(2)7-11(5,6)8-10(3)4/h9-10H,1-6H3
computed SMILES=O([SiH](C)C)[Si](O[SiH](C)C)(C)C
accession=JP011940
date=2016.01.19 (Created 2008.10.21, modified 2011.05.06)
author=ISHIKAWA M, HIROSHIMA UNIV. FAC. TEQUNOLOGY
license=CC BY-NC-SA
exact mass=208.07711
ionization energy=70 eV
ion type=[M]+*
computed spectral entropy=2.655177187345214
computed normalized entropy=0.7661221921728893
SPLASH=splash10-0a4j-9100000000-807f30e4e00d92f12330
submitter=submitter = University of Tokyo Team (Faculty of Engineering, University of Tokyo)
MoNA Rating=3.75

>  <NUM PEAKS>  (135) 
32

>  <MASS SPECTRAL PEAKS>  (135) 
51 1.1
52 1.6
55 4.2
56 1.1
57 3.7
58 27.4
59 99.99
60 4.2
61 16.3
71 1.1
72 1.1
73 29.5
74 33.2
75 21.1
77 1.1
81 6.3
82 5.8
87 8.4
88 3.7
89 9.5
96 71.1
97 8.9
103 9.5
104 2.1
105 3.2
115 5.8
117 2.1
119 6.8
134 11.6
192 1
208 5.2
209 1

>  <PREDICTED SPECTRUM>  (135) 
43 41
44 14
45 213
46 54
57 68
59 438
60 16
61 7
73 545
74 52
75 124
77 4
85 19
87 77
91 38
101 121
103 249
104 41
105 126
115 182
116 39
117 233
118 94
119 917
120 294
121 364
122 39
131 218
133 651
134 354
135 330
136 141
137 93
147 145
148 234
149 261
150 64
151 48
163 63
165 41
177 158
191 79
193 999
194 476
195 354
196 122
207 188
208 81
209 20

$$$$

     RDKit          2D

 12 12  0  0  0  0  0  0  0  0999 V2000
    3.3481    2.7710    0.0000 C   0  0  0  0  0  0  0  0  0  0  0  0
    3.8971    4.8200    0.0000 C   0  0  0  0  0  0  0  0  0  0  0  0
   -3.8971    0.3200    0.0000 C   0  0  0  0  0  0  0  0  0  0  0  0
   -2.5976   -0.4308    0.0000 C   0  0  0  0  0  0  0  0  0  0  0  0
   -3.8976    1.8208    0.0000 C   0  0  0  0  0  0  0  0  0  0  0  0
   -1.2986    0.3192    0.0000 C   0  0  0  0  0  0  0  0  0  0  0  0
   -2.5986    2.5708    0.0000 C   0  0  0  0  0  0  0  0  0  0  0  0
    0.0000    2.5700    0.0000 C   0  0  0  0  0  0  0  0  0  0  0  0
    1.2990    3.3200    0.0000 C   0  0  0  0  0  0  0  0  0  0  0  0
   -1.2990    1.8200    0.0000 C   0  0  0  0  0  0  0  0  0  0  0  0
    1.8481    5.3690    0.0000 Cl  0  0  0  0  0  0  0  0  0  0  0  0
    2.5981    4.0700    0.0000 Si  0  0  0  0  0  4  0  0  0  0  0  0
  4  3  2  0
  5  3  1  0
  6  4  1  0
  7  5  2  0
  9  8  3  0
 10  6  2  0
 10  7  1  0
 10  8  1  0
 12  1  1  0
 12  2  1  0
 12  9  1  0
 12 11  1  0
M  END
>  <NAME>  (136) 
CHLORODIMETHYL(PHENYLETHYNYL)SILANE

>  <SYNONYMS>  (136) 


>  <SPECTRUM TYPE>  (136) 
MS1

>  <INSTRUMENT TYPE>  (136) 
EI-B

>  <INSTRUMENT>  (136) 
SHIMADZU QP-1000

>  <ION MODE>  (136) 
P

>  <INCHIKEY>  (136) 
MYOJVBNQQVJWHE-UHFFFAOYSA-N

>  <FORMULA>  (136) 
C10H11ClSi

>  <EXACT MASS>  (136) 
194.031854562

>  <MW>  (136) 
194

>  <ID>  (136) 
JP011938

>  <CONTRIBUTOR>  (136) 
University of Tokyo Team, {Faculty of Engineering, University of Tokyo

>  <COMMENT>  (136) 
SMILES=c(c1)ccc(c1)C#C[Si](C)(C)Cl
InChI=InChI=1S/C10H11ClSi/c1-12(2,11)9-8-10-6-4-3-5-7-10/h3-7H,1-2H3
computed SMILES=Cl[Si](C#CC=1C=CC=CC1)(C)C
accession=JP011938
date=2016.01.19 (Created 2008.10.21, modified 2011.05.06)
author=ISHIKAWA M, HIROSHIMA UNIV. FAC. TEQUNOLOGY
license=CC BY-NC-SA
exact mass=194.03185
ionization energy=70 eV
ion type=[M]+*
computed spectral entropy=2.743161505443263
computed normalized entropy=0.7845432784629088
SPLASH=splash10-0400-9500000000-c2e4812e18b6ce56a3af
submitter=submitter = University of Tokyo Team (Faculty of Engineering, University of Tokyo)
MoNA Rating=3.75

>  <NUM PEAKS>  (136) 
33

>  <MASS SPECTRAL PEAKS>  (136) 
51 6.3
52 11.6
54 16.8
63 99.99
64 7.4
65 38.9
66 3.7
67 3.7
74 3.2
75 3.2
76 2.1
77 9.5
78 2.1
79 2.1
88 1.1
89 10.5
90 11.6
91 5.8
101 1.1
103 5.3
105 1.1
115 13.2
116 1.1
117 1.1
129 11.6
159 6.3
179 52.6
180 6.3
181 20
182 2.1
194 12.6
195 2.1
196 4.2

>  <PREDICTED SPECTRUM>  (136) 
14 25
15 95
16 4
26 54
27 102
28 79
29 44
36 29
37 32
38 85
39 214
40 68
41 73
42 39
43 224
44 40
49 2
50 196
51 293
52 139
53 139
54 37
55 62
56 9
57 101
58 44
61 53
62 149
63 305
64 170
65 242
66 108
67 96
68 16
69 28
73 124
74 145
75 190
76 138
77 299
78 123
79 14
80 12
81 31
82 27
85 19
86 30
87 75
88 41
89 176
90 65
91 188
92 58
93 12
99 27
101 152
102 110
103 143
104 64
105 99
113 1
115 277
116 163
117 76
118 7
119 34
127 43
128 72
129 450
131 71
143 50
144 12
153 4
159 271
160 76
179 999
180 368
181 662
182 217
183 19
193 6
194 401
195 198
196 253
197 71

$$$$

     RDKit          2D

 19 19  0  0  0  0  0  0  0  0999 V2000
   -1.2121    4.5398    0.0000 C   0  0  0  0  0  0  0  0  0  0  0  0
    3.1412    2.0265    0.0000 C   0  0  0  0  0  0  0  0  0  0  0  0
   -3.1686    2.3316    0.0000 C   0  0  0  0  0  0  0  0  0  0  0  0
   -4.9477    1.1763    0.0000 C   0  0  0  0  0  0  0  0  0  0  0  0
   -3.7923   -0.6028    0.0000 C   0  0  0  0  0  0  0  0  0  0  0  0
   -0.0224   -2.7794    0.0000 C   0  0  0  0  0  0  0  0  0  0  0  0
    2.0961   -2.8904    0.0000 C   0  0  0  0  0  0  0  0  0  0  0  0
    2.2071   -0.7720    0.0000 C   0  0  0  0  0  0  0  0  0  0  0  0
   -2.8297   -1.2813    0.0000 C   0  0  0  0  0  0  0  0  0  0  0  0
   -1.0912   -2.2850    0.0000 C   0  0  0  0  0  0  0  0  0  0  0  0
   -1.0553    3.0480    0.0000 C   0  0  0  0  0  0  0  0  0  0  0  0
    1.7709    1.4164    0.0000 C   0  0  0  0  0  0  0  0  0  0  0  0
   -0.8985    1.5562    0.0000 C   0  0  0  0  0  0  0  0  0  0  0  0
    0.4005    0.8062    0.0000 C   0  0  0  0  0  0  0  0  0  0  0  0
   -2.0132    0.5526    0.0000 C   0  0  0  0  0  0  0  0  0  0  0  0
    0.0887   -0.6610    0.0000 C   0  0  0  0  0  0  0  0  0  0  0  0
   -3.4804    0.8644    0.0000 Si  0  0  0  0  0  4  0  0  0  0  0  0
    1.0924   -1.7757    0.0000 Si  0  0  0  0  0  4  0  0  0  0  0  0
   -1.4031   -0.8178    0.0000 Si  0  0  0  0  0  4  0  0  0  0  0  0
 11  1  3  0
 12  2  3  0
 13 11  1  0
 14 12  1  0
 14 13  1  0
 15 13  2  0
 16 14  2  0
 17  3  1  0
 17  4  1  0
 17  5  1  0
 17 15  1  0
 18  6  1  0
 18  7  1  0
 18  8  1  0
 18 16  1  0
 19  9  1  0
 19 10  1  0
 19 15  1  0
 19 16  1  0
M  END
>  <NAME>  (137) 
3,4-DIETHYNYL-1,1-DIMETHYL-2,5-BIS(TRIMETHYLSILYL)-1-SILACYCLOPENTA-2,5-DIENE

>  <SYNONYMS>  (137) 


>  <SPECTRUM TYPE>  (137) 
MS1

>  <INSTRUMENT TYPE>  (137) 
EI-B

>  <INSTRUMENT>  (137) 
SHIMADZU QP-1000

>  <ION MODE>  (137) 
P

>  <INCHIKEY>  (137) 
CJPAQDRQMODKHS-UHFFFAOYSA-N

>  <FORMULA>  (137) 
C16H26Si3

>  <EXACT MASS>  (137) 
302.134230422

>  <MW>  (137) 
302

>  <ID>  (137) 
JP011937

>  <CONTRIBUTOR>  (137) 
University of Tokyo Team, {Faculty of Engineering, University of Tokyo

>  <COMMENT>  (137) 
SMILES=C#CC(C(C#C)=1)=C([Si](C)(C)C)[Si](C)(C)C([Si](C)(C)C)1
InChI=InChI=1S/C16H26Si3/c1-11-13-14(12-2)16(18(6,7)8)19(9,10)15(13)17(3,4)5/h1-2H,3-10H3
computed SMILES=C#CC=1C(C#C)=C([Si](C1[Si](C)(C)C)(C)C)[Si](C)(C)C
accession=JP011937
date=2016.01.19 (Created 2008.10.21, modified 2011.05.06)
author=ISHIKAWA M, HIROSHIMA UNIV. FAC. TEQUNOLOGY
license=CC BY-NC-SA
exact mass=302.13423
computed spectral entropy=2.4142520935133716
ionization energy=70 eV
ion type=[M]+*
computed normalized entropy=0.7245209848738944
SPLASH=splash10-00di-9020000000-d70c50d3b33cbd16dd12
submitter=submitter = University of Tokyo Team (Faculty of Engineering, University of Tokyo)
MoNA Rating=3.75

>  <NUM PEAKS>  (137) 
28

>  <MASS SPECTRAL PEAKS>  (137) 
54 7.4
56 6.8
58 1.1
59 3.2
60 9.5
67 5.3
69 3.7
73 99.99
74 7.4
75 3.2
77 1.1
79 2.1
81 1.1
83 6.8
93 1.1
97 4.2
107 3.7
165 4
199 3.2
207 3.2
213 4
227 2.8
228 2.7
229 4.2
287 24.2
288 7.5
289 4
302 6.5

>  <PREDICTED SPECTRUM>  (137) 
39 3
41 24
43 197
44 107
45 291
46 9
47 21
53 87
54 10
55 104
57 47
58 28
59 204
67 27
69 68
71 42
73 999
74 248
75 178
81 45
82 32
83 213
84 18
85 59
93 42
95 57
96 2
97 117
99 38
101 13
109 55
111 7
113 52
115 70
116 9
117 11
119 12
121 13
123 29
124 7
125 39
128 8
131 35
132 31
141 60
149 8
153 36
154 18
155 83
157 17
171 18
173 10
183 14
185 44
197 24
199 178
200 33
201 49
203 35
205 34
213 128
214 148
215 54
228 45
229 122
271 9
287 490
288 242
289 139
290 30
302 237
303 91
304 13

$$$$

     RDKit          2D

 19 19  0  0  0  0  0  0  0  0999 V2000
   -5.9470   -1.7017    0.0000 C   0  0  0  0  0  0  0  0  0  0  0  0
   -6.4957   -3.7508    0.0000 C   0  0  0  0  0  0  0  0  0  0  0  0
   -4.4465   -4.2995    0.0000 C   0  0  0  0  0  0  0  0  0  0  0  0
    5.9470    1.7017    0.0000 C   0  0  0  0  0  0  0  0  0  0  0  0
    6.4957    3.7508    0.0000 C   0  0  0  0  0  0  0  0  0  0  0  0
    4.4465    4.2995    0.0000 C   0  0  0  0  0  0  0  0  0  0  0  0
   -1.3000    0.7500    0.0000 C   0  0  0  0  0  0  0  0  0  0  0  0
    0.0000    1.5000    0.0000 C   0  0  0  0  0  0  0  0  0  0  0  0
   -2.5989   -1.5002    0.0000 C   0  0  0  0  0  0  0  0  0  0  0  0
    2.5989    1.5002    0.0000 C   0  0  0  0  0  0  0  0  0  0  0  0
   -3.8978   -2.2504    0.0000 C   0  0  0  0  0  0  0  0  0  0  0  0
    3.8978    2.2504    0.0000 C   0  0  0  0  0  0  0  0  0  0  0  0
   -0.0000   -1.5000    0.0000 C   0  0  0  0  0  0  0  0  0  0  0  0
   -1.3000   -0.7500    0.0000 C   0  0  0  0  0  0  0  0  0  0  0  0
    1.3000    0.7500    0.0000 C   0  0  0  0  0  0  0  0  0  0  0  0
    1.3000   -0.7500    0.0000 C   0  0  0  0  0  0  0  0  0  0  0  0
    2.5989   -1.5002    0.0000 N   0  0  0  0  0  0  0  0  0  0  0  0
   -5.1968   -3.0006    0.0000 Si  0  0  0  0  0  4  0  0  0  0  0  0
    5.1968    3.0006    0.0000 Si  0  0  0  0  0  4  0  0  0  0  0  0
  8  7  2  0
 11  9  3  0
 12 10  3  0
 14  7  1  0
 14  9  1  0
 14 13  2  0
 15  8  1  0
 15 10  1  0
 16 13  1  0
 16 15  2  0
 17 16  1  0
 18  1  1  0
 18  2  1  0
 18  3  1  0
 18 11  1  0
 19  4  1  0
 19  5  1  0
 19  6  1  0
 19 12  1  0
M  END
>  <NAME>  (138) 
2,5-BIS(TRIMETHYLSILYLETHYNYL)ANILINE

>  <SYNONYMS>  (138) 


>  <SPECTRUM TYPE>  (138) 
MS1

>  <INSTRUMENT TYPE>  (138) 
EI-B

>  <INSTRUMENT>  (138) 
SHIMADZU QP-1000

>  <ION MODE>  (138) 
P

>  <INCHIKEY>  (138) 
OSGZOINJOWXGQI-UHFFFAOYSA-N

>  <FORMULA>  (138) 
C16H23NSi2

>  <EXACT MASS>  (138) 
285.136902796

>  <MW>  (138) 
285

>  <ID>  (138) 
JP011936

>  <CONTRIBUTOR>  (138) 
University of Tokyo Team, {Faculty of Engineering, University of Tokyo

>  <COMMENT>  (138) 
SMILES=C[Si](C)(C)C#Cc(c1)cc(N)c(c1)C#C[Si](C)(C)C
InChI=InChI=1S/C16H23NSi2/c1-18(2,3)11-9-14-7-8-15(16(17)13-14)10-12-19(4,5)6/h7-8,13H,17H2,1-6H3
computed SMILES=C(#C[Si](C)(C)C)C1=CC=C(C#C[Si](C)(C)C)C(N)=C1
accession=JP011936
date=2016.01.19 (Created 2008.10.21, modified 2011.05.06)
author=ISHIKAWA M, HIROSHIMA UNIV. FAC. TEQUNOLOGY
license=CC BY-NC-SA
exact mass=285.1369
ionization energy=70 eV
ion type=[M]+*
computed spectral entropy=2.6880312849756023
computed normalized entropy=0.7687760537398087
SPLASH=splash10-00di-9150000000-f66aa967402587c7dc73
submitter=submitter = University of Tokyo Team (Faculty of Engineering, University of Tokyo)
MoNA Rating=3.75

>  <NUM PEAKS>  (138) 
33

>  <MASS SPECTRAL PEAKS>  (138) 
53 12.1
54 2.1
55 5.8
56 3.2
57 4.2
58 23.2
59 14.2
60 2.1
67 3.2
69 1.6
70 7.9
71 1.1
73 99.99
74 14.2
75 6.3
77 2.1
83 3.7
84 1.1
85 12.1
97 2.1
100 2.1
101 2.1
106 1.1
113 2.1
114 3.2
120 2.1
128 14.2
270 55
271 14.2
272 4.2
285 41
286 11.6
287 3.2

>  <PREDICTED SPECTRUM>  (138) 
27 0
29 65
30 26
31 32
39 19
41 92
42 52
43 200
44 101
45 279
46 45
47 21
51 26
53 119
54 44
55 185
56 82
57 125
58 128
59 233
60 26
61 12
63 15
65 18
66 15
67 94
68 26
69 86
70 78
71 63
72 101
73 872
74 181
75 164
76 35
77 56
78 36
79 71
80 41
81 56
82 32
83 167
84 92
85 48
86 45
87 42
89 2
90 6
91 115
92 19
93 39
95 86
96 7
97 106
98 48
99 19
100 56
101 15
102 26
103 3
104 29
105 37
106 20
107 17
109 30
110 9
111 22
112 15
113 34
114 20
115 95
116 49
117 42
118 52
121 36
122 31
126 11
127 59
128 83
129 76
130 114
131 57
132 42
140 12
141 42
142 71
143 96
144 87
145 56
146 28
147 13
154 34
155 54
156 103
157 66
158 33
159 5
166 26
167 21
168 54
170 36
171 35
172 45
173 47
180 28
181 60
182 112
183 93
184 79
186 73
196 29
197 54
198 88
210 16
211 71
212 96
213 52
226 21
239 13
240 75
242 47
243 10
254 57
255 41
256 83
268 7
270 999
271 498
272 270
273 99
274 21
285 745
286 411
287 222
288 52
289 7

$$$$

     RDKit          2D

 11 11  0  0  0  0  0  0  0  0999 V2000
   -2.9228   -0.9925    0.0000 C   0  0  0  0  0  0  0  0  0  0  0  0
   -4.2219    1.2575    0.0000 C   0  0  0  0  0  0  0  0  0  0  0  0
    3.5724    4.2575    0.0000 C   0  0  0  0  0  0  0  0  0  0  0  0
    2.2728    5.0083    0.0000 C   0  0  0  0  0  0  0  0  0  0  0  0
    3.5728    2.7567    0.0000 C   0  0  0  0  0  0  0  0  0  0  0  0
    0.9738    4.2583    0.0000 C   0  0  0  0  0  0  0  0  0  0  0  0
    2.2738    2.0067    0.0000 C   0  0  0  0  0  0  0  0  0  0  0  0
   -0.3248    2.0075    0.0000 C   0  0  0  0  0  0  0  0  0  0  0  0
   -1.6238    1.2575    0.0000 C   0  0  0  0  0  0  0  0  0  0  0  0
    0.9743    2.7575    0.0000 C   0  0  0  0  0  0  0  0  0  0  0  0
   -2.9228    0.5075    0.0000 Si  0  0  0  0  0  4  0  0  0  0  0  0
  4  3  2  0
  5  3  1  0
  6  4  1  0
  7  5  2  0
  9  8  3  0
 10  6  2  0
 10  7  1  0
 10  8  1  0
 11  1  1  0
 11  2  1  0
 11  9  1  0
M  END
>  <NAME>  (139) 
DIMETHYL(PHENYLETHYNYL)SILANE

>  <SYNONYMS>  (139) 


>  <SPECTRUM TYPE>  (139) 
MS1

>  <INSTRUMENT TYPE>  (139) 
EI-B

>  <INSTRUMENT>  (139) 
SHIMADZU QP-1000

>  <ION MODE>  (139) 
P

>  <INCHIKEY>  (139) 
JPQVPTPDZWZPQT-UHFFFAOYSA-N

>  <FORMULA>  (139) 
C10H12Si

>  <EXACT MASS>  (139) 
160.070826914

>  <MW>  (139) 
160

>  <ID>  (139) 
JP011935

>  <CONTRIBUTOR>  (139) 
University of Tokyo Team, {Faculty of Engineering, University of Tokyo

>  <COMMENT>  (139) 
SMILES=C[SiH](C)C#Cc(c1)cccc1
InChI=InChI=1S/C10H12Si/c1-11(2)9-8-10-6-4-3-5-7-10/h3-7,11H,1-2H3
computed SMILES=C(#C[SiH](C)C)C=1C=CC=CC1
accession=JP011935
date=2016.01.19 (Created 2008.10.21, modified 2011.05.06)
author=ISHIKAWA M, HIROSHIMA UNIV. FAC. TEQUNOLOGY
license=CC BY-NC-SA
exact mass=160.07083
ionization energy=70 eV
ion type=[M]+*
computed spectral entropy=3.084662416624838
computed normalized entropy=0.8103325222328696
SPLASH=splash10-0zfr-9300000000-ef701f4bd786f0899a4c
submitter=submitter = University of Tokyo Team (Faculty of Engineering, University of Tokyo)
MoNA Rating=3.75

>  <NUM PEAKS>  (139) 
45

>  <MASS SPECTRAL PEAKS>  (139) 
50 13.2
51 22.1
52 14.7
53 99.99
54 10.5
55 14.7
57 8.9
58 72.6
59 7.4
60 2.1
62 4.2
63 10.5
64 7.9
65 11.1
66 11.6
67 17.9
68 1.1
69 1.1
72 6.3
73 2.6
74 3.2
75 2.6
76 5.3
77 22.1
78 5.3
79 8.4
80 2.1
83 2.1
89 3.2
90 1.1
91 3.2
93 2.1
101 1.1
103 6.3
105 13.2
115 1.1
117 1.1
129 8.4
143 3.2
145 69.5
146 10.5
147 2.1
159 11.6
160 21.6
161 3.2

>  <PREDICTED SPECTRUM>  (139) 
4 9
14 6
15 41
25 0
26 40
27 103
28 38
29 34
32 0
33 3
34 7
36 12
37 85
38 129
39 289
40 119
41 172
42 94
43 181
44 101
45 80
46 16
47 30
48 21
49 48
50 281
51 404
52 232
53 221
54 99
55 39
56 42
57 98
58 149
59 131
60 51
61 127
62 171
63 265
64 154
65 177
66 112
67 143
68 59
70 20
72 31
73 32
74 211
75 194
76 166
77 363
78 249
79 179
80 97
81 106
82 60
83 106
84 13
85 111
86 61
87 55
88 46
89 133
90 83
91 217
92 63
93 30
94 3
98 40
100 49
101 82
102 123
103 160
104 79
105 165
106 61
107 16
115 98
116 63
117 84
118 110
119 95
120 9
129 47
130 56
133 11
134 5
143 178
144 168
145 999
146 357
147 144
157 38
158 57
159 276
160 445
161 136
162 28

$$$$

     RDKit          2D

 18 19  0  0  0  0  0  0  0  0999 V2000
   -0.5000   -3.1900    0.0000 C   0  0  0  0  0  0  0  0  0  0  0  0
   -3.0989    1.3102    0.0000 C   0  0  0  0  0  0  0  0  0  0  0  0
    2.6838    2.4465    0.0000 C   0  0  0  0  0  0  0  0  0  0  0  0
    4.6149    4.1846    0.0000 C   0  0  0  0  0  0  0  0  0  0  0  0
    3.1000   -0.1900    0.0000 C   0  0  0  0  0  0  0  0  0  0  0  0
    4.1511    2.7581    0.0000 C   0  0  0  0  0  0  0  0  0  0  0  0
    0.8000    0.5600    0.0000 C   0  0  0  0  0  0  0  0  0  0  0  0
    0.8000   -0.9400    0.0000 C   0  0  0  0  0  0  0  0  0  0  0  0
   -0.5000    1.3100    0.0000 C   0  0  0  0  0  0  0  0  0  0  0  0
   -1.8000   -0.9400    0.0000 C   0  0  0  0  0  0  0  0  0  0  0  0
    2.2200   -1.4000    0.0000 N   0  0  0  0  0  0  0  0  0  0  0  0
   -0.5000   -1.6900    0.0000 N   0  0  0  0  0  0  0  0  0  0  0  0
   -1.8000    0.5600    0.0000 N   0  0  0  0  0  0  0  0  0  0  0  0
    2.2200    1.0200    0.0000 N   0  0  0  0  0  0  0  0  0  0  0  0
    6.0822    4.4961    0.0000 O   0  0  0  0  0  0  0  0  0  0  0  0
    5.1546    1.6431    0.0000 O   0  0  0  0  0  0  0  0  0  0  0  0
   -0.5000    2.8100    0.0000 O   0  0  0  0  0  0  0  0  0  0  0  0
   -3.0989   -1.6902    0.0000 O   0  0  0  0  0  0  0  0  0  0  0  0
  6  3  1  0
  6  4  1  0
  8  7  2  0
  9  7  1  0
 11  5  2  0
 11  8  1  0
 12  1  1  0
 12  8  1  0
 12 10  1  0
 13  2  1  0
 13  9  1  0
 13 10  1  0
 14  3  1  0
 14  5  1  0
 14  7  1  0
 15  4  1  0
 16  6  1  0
 17  9  2  0
 18 10  2  0
M  END
>  <NAME>  (140) 
7-(2,3-DIHYDROXYPROPYL)THEOPHYLLINE

>  <SYNONYMS>  (140) 
DYPHYLLINE

>  <SPECTRUM TYPE>  (140) 
MS1

>  <INSTRUMENT TYPE>  (140) 
EI-B

>  <INSTRUMENT>  (140) 
HITACHI M-2500

>  <ION MODE>  (140) 
P

>  <INCHIKEY>  (140) 
KSCFJBIXMNOVSH-UHFFFAOYSA-N

>  <FORMULA>  (140) 
C10H14N4O4

>  <EXACT MASS>  (140) 
254.101504928

>  <MW>  (140) 
254

>  <ID>  (140) 
JP011934

>  <CONTRIBUTOR>  (140) 
University of Tokyo Team, {Faculty of Engineering, University of Tokyo

>  <COMMENT>  (140) 
SMILES=OCC(O)Cn(c2)c(C(=O)1)c(n2)N(C)C(=O)N(C)1
cas=479-18-5
InChI=InChI=1S/C10H14N4O4/c1-12-8-7(9(17)13(2)10(12)18)14(5-11-8)3-6(16)4-15/h5-6,15-16H,3-4H2,1-2H3
computed SMILES=O=C1C2=C(N=CN2CC(O)CO)N(C(=O)N1C)C
accession=JP011934
date=2016.01.19 (Created 2008.10.21, modified 2011.05.06)
author=YAMAMOTO M, DEP. CHEMISTRY, FAC. SCIENCE, NARA WOMEN'S UNIV.
license=CC BY-NC-SA
exact mass=254.1015
ionization energy=70 eV
ion type=[M]+*
computed spectral entropy=2.770334962602652
computed normalized entropy=0.7509963383360496
SPLASH=splash10-001i-9000000000-d159f2e06ae5688fe714
submitter=submitter = University of Tokyo Team (Faculty of Engineering, University of Tokyo)
MoNA Rating=3.75

>  <NUM PEAKS>  (140) 
40

>  <MASS SPECTRAL PEAKS>  (140) 
15 7.76
27 3.16
28 8.32
29 23.33
30 3.33
31 99.99
32 2.87
39 1.58
40 3.25
41 3.32
42 7.29
43 23.36
44 7.47
45 1.03
52 1.99
53 2.98
54 2.82
55 2.44
56 6.97
57 2.83
58 5.34
60 1.42
61 12.93
66 4.13
67 5.85
68 3.72
69 1.12
70 1.3
80 1.75
81 6.83
82 2.4
94 2.7
95 2.37
109 3.83
180 2.76
193 3.03
194 1.55
223 1.34
254 1.43
255 1.25

>  <PREDICTED SPECTRUM>  (140) 
17 8
18 8
27 23
28 49
29 75
30 100
31 156
32 14
33 46
34 12
39 131
40 151
41 325
42 444
43 347
44 215
45 268
46 62
51 71
52 207
53 334
54 424
55 451
56 360
57 398
58 374
59 182
60 138
61 127
62 29
63 38
64 41
65 138
66 267
67 602
68 605
69 482
70 185
71 219
72 198
73 153
74 178
75 136
76 56
77 96
78 71
79 114
80 206
81 628
82 561
83 416
84 184
85 113
86 39
87 55
88 27
91 72
92 60
93 70
94 233
95 577
96 287
97 337
98 144
99 142
100 84
101 74
103 12
106 10
107 153
108 326
109 794
110 507
111 268
112 122
113 19
114 6
115 20
119 0
120 97
121 97
122 229
123 483
124 282
125 226
126 131
127 17
133 7
134 35
135 124
136 340
137 467
138 182
139 161
140 84
141 35
147 129
148 37
149 19
151 23
152 125
153 188
154 152
162 39
164 31
165 179
166 399
167 240
168 222
169 60
174 90
175 41
178 11
179 242
180 709
181 503
182 176
183 85
184 56
192 17
193 793
194 999
195 524
196 293
197 126
205 166
206 98
207 176
208 23
209 215
210 350
219 3
220 227
221 415
222 261
223 569
224 269
225 65
235 68
236 419
237 155
238 56
239 14
252 7
253 156
254 865
255 326
256 59

$$$$

     RDKit          2D

 17 18  0  0  0  0  0  0  0  0999 V2000
    4.6149    4.1846    0.0000 C   0  0  0  0  0  0  0  0  0  0  0  0
   -0.5000   -3.1900    0.0000 C   0  0  0  0  0  0  0  0  0  0  0  0
   -3.0989    1.3102    0.0000 C   0  0  0  0  0  0  0  0  0  0  0  0
    2.6838    2.4465    0.0000 C   0  0  0  0  0  0  0  0  0  0  0  0
    3.1000   -0.1900    0.0000 C   0  0  0  0  0  0  0  0  0  0  0  0
    4.1511    2.7581    0.0000 C   0  0  0  0  0  0  0  0  0  0  0  0
    0.8000    0.5600    0.0000 C   0  0  0  0  0  0  0  0  0  0  0  0
    0.8000   -0.9400    0.0000 C   0  0  0  0  0  0  0  0  0  0  0  0
   -0.5000    1.3100    0.0000 C   0  0  0  0  0  0  0  0  0  0  0  0
   -1.8000   -0.9400    0.0000 C   0  0  0  0  0  0  0  0  0  0  0  0
    2.2200   -1.4000    0.0000 N   0  0  0  0  0  0  0  0  0  0  0  0
   -0.5000   -1.6900    0.0000 N   0  0  0  0  0  0  0  0  0  0  0  0
   -1.8000    0.5600    0.0000 N   0  0  0  0  0  0  0  0  0  0  0  0
    2.2200    1.0200    0.0000 N   0  0  0  0  0  0  0  0  0  0  0  0
    5.1546    1.6431    0.0000 O   0  0  0  0  0  0  0  0  0  0  0  0
   -0.5000    2.8100    0.0000 O   0  0  0  0  0  0  0  0  0  0  0  0
   -3.0989   -1.6902    0.0000 O   0  0  0  0  0  0  0  0  0  0  0  0
  6  1  1  0
  6  4  1  0
  8  7  2  0
  9  7  1  0
 11  5  2  0
 11  8  1  0
 12  2  1  0
 12  8  1  0
 12 10  1  0
 13  3  1  0
 13  9  1  0
 13 10  1  0
 14  4  1  0
 14  5  1  0
 14  7  1  0
 15  6  1  0
 16  9  2  0
 17 10  2  0
M  END
>  <NAME>  (141) 
PROXYPHYLLINE

>  <SYNONYMS>  (141) 
7-(BETA-HYDROXYPROPYL)THEOPHYLLINE

>  <SPECTRUM TYPE>  (141) 
MS1

>  <INSTRUMENT TYPE>  (141) 
EI-B

>  <INSTRUMENT>  (141) 
HITACHI M-2500

>  <ION MODE>  (141) 
P

>  <INCHIKEY>  (141) 
KYHQZNGJUGFTGR-UHFFFAOYSA-N

>  <FORMULA>  (141) 
C10H14N4O3

>  <EXACT MASS>  (141) 
238.10659030799997

>  <MW>  (141) 
238

>  <ID>  (141) 
JP011932

>  <CONTRIBUTOR>  (141) 
University of Tokyo Team, {Faculty of Engineering, University of Tokyo

>  <COMMENT>  (141) 
SMILES=CC(O)Cn(c2)c(C(=O)1)c(n2)N(C)C(=O)N(C)1
cas=603-00-9
InChI=InChI=1S/C10H14N4O3/c1-6(15)4-14-5-11-8-7(14)9(16)13(3)10(17)12(8)2/h5-6,15H,4H2,1-3H3
computed SMILES=O=C1C2=C(N=CN2CC(O)C)N(C(=O)N1C)C
accession=JP011932
date=2016.01.19 (Created 2008.10.21, modified 2011.05.06)
author=YAMAMOTO M, DEP. CHEMISTRY, FAC. SCIENCE, NARA WOMEN'S UNIV.
license=CC BY-NC-SA
exact mass=238.10659
ionization energy=70 eV
ion type=[M]+*
computed spectral entropy=2.791342995382944
computed normalized entropy=0.7619205748405642
SPLASH=splash10-0002-9000000000-a3183abe7d00c2b94165
submitter=submitter = University of Tokyo Team (Faculty of Engineering, University of Tokyo)
MoNA Rating=3.75

>  <NUM PEAKS>  (141) 
39

>  <MASS SPECTRAL PEAKS>  (141) 
15 12.73
19 1.48
26 1.13
27 9.23
28 9.8
29 18.83
31 4.09
39 6.81
40 4.89
41 7.71
42 8.14
43 32.1
44 4.18
45 99.99
46 2.31
52 2.04
53 2.25
54 3.83
55 1.99
56 9.13
57 3.62
58 9.38
66 4.74
67 6.41
68 2.37
69 1.16
70 1.06
80 1.97
81 9.53
82 2.39
94 1.89
95 1.64
108 1.43
109 6.39
180 1.62
193 3.63
194 1.6
238 0.78
239 0.53

>  <PREDICTED SPECTRUM>  (141) 
17 21
18 41
26 18
27 76
28 43
29 105
30 49
31 27
33 59
34 32
36 2
38 78
39 232
40 232
41 482
42 423
43 355
44 240
45 614
46 118
50 50
51 111
52 237
53 341
54 443
55 483
56 474
57 483
58 492
59 358
60 97
63 6
64 88
65 211
66 332
67 762
68 705
69 357
70 260
71 260
72 76
73 10
74 45
75 41
76 7
77 64
78 68
79 300
80 405
81 725
82 473
83 359
84 173
85 112
86 26
87 5
91 60
92 50
93 257
94 413
95 676
96 369
97 223
98 109
99 64
104 28
106 32
107 185
108 425
109 851
110 354
111 270
112 21
113 33
114 11
120 46
121 199
122 323
123 401
124 234
125 129
126 66
135 97
136 411
137 489
138 255
150 120
151 178
152 449
153 223
163 66
164 24
165 211
166 276
167 173
168 75
177 38
178 9
179 129
180 854
181 659
182 354
183 49
191 29
192 2
193 924
194 988
195 549
196 118
206 161
208 74
220 213
221 142
222 45
223 133
237 33
238 999
239 324
240 134

$$$$

     RDKit          2D

 16 17  0  0  0  0  0  0  0  0999 V2000
   -0.5000   -3.1900    0.0000 C   0  0  0  0  0  0  0  0  0  0  0  0
   -3.0989    1.3102    0.0000 C   0  0  0  0  0  0  0  0  0  0  0  0
    2.6838    2.4465    0.0000 C   0  0  0  0  0  0  0  0  0  0  0  0
    4.1511    2.7581    0.0000 C   0  0  0  0  0  0  0  0  0  0  0  0
    3.1000   -0.1900    0.0000 C   0  0  0  0  0  0  0  0  0  0  0  0
    0.8000    0.5600    0.0000 C   0  0  0  0  0  0  0  0  0  0  0  0
    0.8000   -0.9400    0.0000 C   0  0  0  0  0  0  0  0  0  0  0  0
   -0.5000    1.3100    0.0000 C   0  0  0  0  0  0  0  0  0  0  0  0
   -1.8000   -0.9400    0.0000 C   0  0  0  0  0  0  0  0  0  0  0  0
    2.2200   -1.4000    0.0000 N   0  0  0  0  0  0  0  0  0  0  0  0
   -0.5000   -1.6900    0.0000 N   0  0  0  0  0  0  0  0  0  0  0  0
   -1.8000    0.5600    0.0000 N   0  0  0  0  0  0  0  0  0  0  0  0
    2.2200    1.0200    0.0000 N   0  0  0  0  0  0  0  0  0  0  0  0
    4.6149    4.1846    0.0000 O   0  0  0  0  0  0  0  0  0  0  0  0
   -0.5000    2.8100    0.0000 O   0  0  0  0  0  0  0  0  0  0  0  0
   -3.0989   -1.6902    0.0000 O   0  0  0  0  0  0  0  0  0  0  0  0
  4  3  1  0
  7  6  2  0
  8  6  1  0
 10  5  2  0
 10  7  1  0
 11  1  1  0
 11  7  1  0
 11  9  1  0
 12  2  1  0
 12  8  1  0
 12  9  1  0
 13  3  1  0
 13  5  1  0
 13  6  1  0
 14  4  1  0
 15  8  2  0
 16  9  2  0
M  END
>  <NAME>  (142) 
BETA-HYDROXYETHYLTHEOPHYLLINE

>  <SYNONYMS>  (142) 
1,3-DIMETHYL-7-(2-HYDROXYETHYL)XANTHINE

>  <SPECTRUM TYPE>  (142) 
MS1

>  <INSTRUMENT TYPE>  (142) 
EI-B

>  <INSTRUMENT>  (142) 
HITACHI M-2500

>  <ION MODE>  (142) 
P

>  <INCHIKEY>  (142) 
NWPRCRWQMGIBOT-UHFFFAOYSA-N

>  <FORMULA>  (142) 
C9H12N4O3

>  <EXACT MASS>  (142) 
224.09094024399997

>  <MW>  (142) 
224

>  <ID>  (142) 
JP011931

>  <CONTRIBUTOR>  (142) 
University of Tokyo Team, {Faculty of Engineering, University of Tokyo

>  <COMMENT>  (142) 
SMILES=OCCn(c([H])2)c(C(=O)1)c(n2)N(C)C(=O)N(C)1
cas=519-37-9
InChI=InChI=1S/C9H12N4O3/c1-11-7-6(8(15)12(2)9(11)16)13(3-4-14)5-10-7/h5,14H,3-4H2,1-2H3
computed SMILES=O=C1C2=C(N=CN2CCO)N(C(=O)N1C)C
accession=JP011931
date=2016.01.19 (Created 2008.10.21, modified 2011.05.06)
author=YAMAMOTO M, DEP. CHEMISTRY, FAC. SCIENCE, NARA WOMEN'S UNIV.
license=CC BY-NC-SA
exact mass=224.09094
ionization energy=70 eV
ion type=[M]+*
computed spectral entropy=3.3757406124058202
computed normalized entropy=0.8278870908840326
SPLASH=splash10-0059-9000000000-52db58ceb5fd1e7148af
submitter=submitter = University of Tokyo Team (Faculty of Engineering, University of Tokyo)
MoNA Rating=3.75

>  <NUM PEAKS>  (142) 
59

>  <MASS SPECTRAL PEAKS>  (142) 
14 3.05
15 30.67
19 1.19
26 3.91
27 21.2
28 43.97
29 62
30 8.79
31 99.99
32 3.15
38 1.23
39 2.73
40 12.11
41 11.84
42 13.97
43 33.39
44 18.69
45 17.89
51 2.47
52 6.88
53 9.68
54 9.75
55 4.28
56 42.17
57 10.78
58 20.37
65 2.06
66 14.27
67 21.09
68 8.05
69 2.35
70 4.69
77 1.89
78 1.3
79 3.81
80 6.98
81 21.38
82 3.72
83 2.28
93 1.7
94 6.69
95 6.7
96 2.06
97 1.2
108 2.03
109 8.52
110 1.36
122 5.58
123 2.08
136 1.77
137 1.35
151 1.31
152 1.09
180 4.51
193 6.08
194 2.04
206 1.04
224 3.18
225 2

>  <PREDICTED SPECTRUM>  (142) 
17 16
18 16
28 29
30 11
31 68
33 12
34 9
38 24
39 183
40 140
41 260
42 301
43 197
44 100
45 182
46 19
51 77
52 229
53 386
54 424
55 355
56 315
57 263
58 238
59 1
60 13
64 44
65 123
66 325
67 693
68 634
69 343
70 203
71 100
72 71
74 26
77 81
78 78
79 280
80 363
81 631
82 447
83 225
84 87
85 50
91 44
92 84
93 188
94 377
95 603
96 292
97 261
98 37
100 15
106 57
107 185
108 296
109 538
110 181
111 38
112 35
119 3
120 97
121 209
122 367
123 460
124 292
125 41
126 24
134 35
135 77
136 300
137 282
138 289
139 292
140 43
141 44
149 99
150 94
151 154
152 181
153 81
154 91
163 72
164 108
165 208
166 152
167 377
168 145
169 20
177 107
178 33
179 272
180 645
181 304
182 64
191 123
192 6
193 619
194 614
195 218
196 62
197 9
205 16
206 153
207 44
209 14
222 39
223 127
224 999
225 364
226 105

$$$$

     RDKit          2D

  7  7  0  0  0  0  0  0  0  0999 V2000
    0.4012   -1.4375    0.0000 C   0  0  0  0  0  0  0  0  0  0  0  0
   -0.5986   -0.3291    0.0000 C   0  0  0  0  0  0  0  0  0  0  0  0
    1.6112    0.6583    0.0000 C   0  0  0  0  0  0  0  0  0  0  0  0
    0.1514    0.9699    0.0000 N   0  0  0  0  0  0  0  0  0  0  0  0
   -2.0903   -0.4866    0.0000 O   0  0  0  0  0  0  0  0  0  0  0  0
    2.7234    1.6647    0.0000 O   0  0  0  0  0  0  0  0  0  0  0  0
    1.7769   -0.8346    0.0000 S   0  0  0  0  0  0  0  0  0  0  0  0
  2  1  1  0
  4  2  2  0
  4  3  1  0
  5  2  1  0
  6  3  2  0
  7  1  1  0
  7  3  1  0
M  END
>  <NAME>  (143) 
2,4-THIAZOLIDINEDIONE

>  <SYNONYMS>  (143) 


>  <SPECTRUM TYPE>  (143) 
MS1

>  <INSTRUMENT TYPE>  (143) 
EI-B

>  <INSTRUMENT>  (143) 
HITACHI M-2500

>  <ION MODE>  (143) 
P

>  <INCHIKEY>  (143) 
ZOBPZXTWZATXDG-UHFFFAOYSA-N

>  <FORMULA>  (143) 
C3H3NO2S

>  <EXACT MASS>  (143) 
116.988449336

>  <MW>  (143) 
117

>  <ID>  (143) 
JP011928

>  <CONTRIBUTOR>  (143) 
University of Tokyo Team, {Faculty of Engineering, University of Tokyo

>  <COMMENT>  (143) 
SMILES=O=C(C1)NC(=O)S1
cas=2295-31-0
InChI=InChI=1S/C3H3NO2S/c5-2-1-7-3(6)4-2/h1H2,(H,4,5,6)
computed SMILES=O=C1N=C(O)CS1
accession=JP011928
date=2016.01.19 (Created 2008.10.21, modified 2011.05.06)
author=YAMAMOTO M, DEP. CHEMISTRY, FAC. SCIENCE, NARA WOMEN'S UNIV.
license=CC BY-NC-SA
exact mass=116.98845
ionization energy=70 eV
ion type=[M]+*
computed spectral entropy=2.359563579143134
computed normalized entropy=0.7007295165844136
SPLASH=splash10-0002-9200000000-f5f3bbe3b05d2cd8d44b
submitter=submitter = University of Tokyo Team (Faculty of Engineering, University of Tokyo)
MoNA Rating=3.75

>  <NUM PEAKS>  (143) 
29

>  <MASS SPECTRAL PEAKS>  (143) 
12 1.11
13 2.24
14 6.82
15 1.11
17 1.2
18 5.52
27 2.55
28 7.65
29 4.45
30 1.13
32 6.02
33 1.36
40 1.14
42 11.39
43 9.22
44 4.5
45 24.48
46 99.99
47 3.96
48 4.69
60 1.89
70 1.96
74 42.21
75 1.24
76 1.85
89 2.07
117 53.61
118 2.59
119 2.53

>  <PREDICTED SPECTRUM>  (143) 
14 17
16 12
25 9
26 63
28 49
30 14
32 21
33 135
34 58
35 32
36 12
40 155
41 205
42 502
43 533
44 388
45 494
46 573
47 319
48 248
49 78
50 52
51 67
52 58
53 136
54 129
56 47
58 55
59 90
60 142
61 119
62 68
69 168
70 304
71 91
72 181
73 72
74 488
75 154
76 5
87 77
88 8
89 85
98 75
100 173
101 61
102 558
103 92
104 47
116 66
117 999
118 232
119 207

$$$$

     RDKit          2D

 10 10  0  0  0  0  0  0  0  0999 V2000
   -1.3000   -0.7500    0.0000 C   0  0  0  0  0  0  0  0  0  0  0  0
   -1.3000    0.7500    0.0000 C   0  0  0  0  0  0  0  0  0  0  0  0
   -0.0000   -1.5000    0.0000 C   0  0  0  0  0  0  0  0  0  0  0  0
    1.3000    0.7500    0.0000 C   0  0  0  0  0  0  0  0  0  0  0  0
   -2.5989   -1.5002    0.0000 N   0  0  0  0  0  0  0  0  0  0  0  0
    0.0000    1.5000    0.0000 N   0  0  0  0  0  0  0  0  0  0  0  0
    1.3000   -0.7500    0.0000 N   0  0  0  0  0  0  0  0  0  0  0  0
   -2.5989    1.5002    0.0000 O   0  0  0  0  0  0  0  0  0  0  0  0
   -0.0000   -3.0000    0.0000 O   0  0  0  0  0  0  0  0  0  0  0  0
    2.5989    1.5002    0.0000 O   0  0  0  0  0  0  0  0  0  0  0  0
  2  1  1  0
  3  1  1  0
  5  1  1  0
  6  2  2  0
  6  4  1  0
  7  3  2  0
  7  4  1  0
  8  2  1  0
  9  3  1  0
 10  4  2  0
M  END
>  <NAME>  (144) 
URAMIL

>  <SYNONYMS>  (144) 
5-AMINOBARBITURIC ACID

>  <SPECTRUM TYPE>  (144) 
MS1

>  <INSTRUMENT TYPE>  (144) 
EI-B

>  <INSTRUMENT>  (144) 
HITACHI M-2500

>  <ION MODE>  (144) 
P

>  <INCHIKEY>  (144) 
PSQZLWHRJMYZHD-UHFFFAOYSA-N

>  <FORMULA>  (144) 
C4H5N3O3

>  <EXACT MASS>  (144) 
143.03309102

>  <MW>  (144) 
143

>  <ID>  (144) 
JP011927

>  <CONTRIBUTOR>  (144) 
University of Tokyo Team, {Faculty of Engineering, University of Tokyo

>  <COMMENT>  (144) 
SMILES=O=C(N1)NC(=O)C(N)C(=O)1
cas=118-78-5
InChI=InChI=1S/C4H5N3O3/c5-1-2(8)6-4(10)7-3(1)9/h1H,5H2,(H2,6,7,8,9,10)
computed SMILES=O=C1N=C(O)C(N)C(O)=N1
accession=JP011927
date=2016.01.19 (Created 2008.10.21, modified 2011.05.06)
author=YAMAMOTO M, DEP. CHEMISTRY, FAC. SCIENCE, NARA WOMEN'S UNIV.
license=CC BY-NC-SA
exact mass=143.03309
ionization energy=70 eV
ion type=[M]+*
computed spectral entropy=2.613920690227729
computed normalized entropy=0.7134916626800027
SPLASH=splash10-05r0-9000000000-ecc78860e3e51a2e559b
submitter=submitter = University of Tokyo Team (Faculty of Engineering, University of Tokyo)
MoNA Rating=3.75

>  <NUM PEAKS>  (144) 
39

>  <MASS SPECTRAL PEAKS>  (144) 
14 1.48
15 2.38
16 7.21
17 16.63
18 69.75
26 1.17
27 8.95
28 68.59
29 83.7
30 5.49
31 1.53
32 3.32
36 4.79
38 1.82
39 1.18
40 1.04
41 3.63
42 10.36
43 18.59
44 27.3
45 7.35
46 2.19
53 1.32
54 2.06
55 2.57
56 1.46
57 99.99
58 3.92
60 1.09
69 1.21
70 4.31
71 2.24
72 2.17
87 1.42
100 7.5
114 1.37
128 1.93
142 1.18
143 10.34

>  <PREDICTED SPECTRUM>  (144) 
28 5
29 67
30 86
33 55
34 22
38 39
39 22
40 216
41 174
42 700
43 629
44 498
45 361
46 272
47 143
48 95
49 4
51 51
52 112
53 315
54 307
55 115
56 285
57 288
58 282
59 75
60 217
61 61
66 5
67 200
68 168
69 612
70 588
71 285
72 348
73 518
74 580
75 254
76 42
82 78
83 33
85 89
86 192
87 275
88 186
96 18
97 47
98 154
99 17
100 303
101 186
102 66
114 94
115 241
116 78
143 999
144 282
145 135

$$$$

     RDKit          2D

  6  5  0  0  0  0  0  0  0  0999 V2000
   -0.0000   -0.0000    0.0000 C   0  0  0  0  0  0  0  0  0  0  0  0
   -0.0000    1.5000    0.0000 C   0  0  0  0  0  0  0  0  0  0  0  0
   -1.2990    2.2500    0.0000 C   0  0  0  0  0  0  0  0  0  0  0  0
    1.2990    2.2500    0.0000 O   0  0  0  0  0  0  0  0  0  0  0  0
   -2.5981    1.5000    0.0000 O   0  0  0  0  0  0  0  0  0  0  0  0
   -1.2990    3.7500    0.0000 O   0  0  0  0  0  0  0  0  0  0  0  0
  2  1  1  0
  3  2  1  0
  4  2  1  0
  5  3  2  0
  6  3  1  0
M  END
>  <NAME>  (145) 
LACTIC ACID

>  <SYNONYMS>  (145) 


>  <SPECTRUM TYPE>  (145) 
MS1

>  <INSTRUMENT TYPE>  (145) 
EI-B

>  <INSTRUMENT>  (145) 
HITACHI M-2500

>  <ION MODE>  (145) 
P

>  <INCHIKEY>  (145) 
JVTAAEKCZFNVCJ-UHFFFAOYSA-N

>  <FORMULA>  (145) 
C3H6O3

>  <EXACT MASS>  (145) 
90.03169405199999

>  <MW>  (145) 
90

>  <ID>  (145) 
JP011926

>  <CONTRIBUTOR>  (145) 
University of Tokyo Team, {Faculty of Engineering, University of Tokyo

>  <COMMENT>  (145) 
SMILES=CC(O)C(O)=O
cas=50-21-5
InChI=InChI=1S/C3H6O3/c1-2(4)3(5)6/h2,4H,1H3,(H,5,6)
computed SMILES=O=C(O)C(O)C
accession=JP011926
date=2016.01.19 (Created 2008.10.21, modified 2011.05.06)
author=YAMAMOTO M, DEP. CHEMISTRY, FAC. SCIENCE, NARA WOMEN'S UNIV.
license=CC BY-NC-SA
exact mass=90.03169
ionization energy=70 eV
ion type=[M]+*
computed spectral entropy=2.145577512516181
computed normalized entropy=0.7286880549053137
SPLASH=splash10-00kb-9000000000-e9462d6d6eeac598b73b
submitter=submitter = University of Tokyo Team (Faculty of Engineering, University of Tokyo)
MoNA Rating=3.75

>  <NUM PEAKS>  (145) 
19

>  <MASS SPECTRAL PEAKS>  (145) 
14 2.88
15 9.09
17 10.38
18 45.11
19 15.99
26 4.16
27 16.85
28 5.75
29 20.61
30 1.58
42 2.46
43 12.95
44 3.17
45 99.99
46 2.77
55 1.77
56 2.27
74 4.18
89 1.11

>  <PREDICTED SPECTRUM>  (145) 
14 37
15 50
16 7
17 9
18 27
19 64
25 24
26 66
27 222
28 146
29 198
31 128
32 36
36 27
37 4
38 26
40 39
41 294
42 103
43 528
44 97
45 999
46 261
47 103
55 85
57 104
72 3
73 178
75 166
90 167
91 58

$$$$

     RDKit          2D

 15 14  0  0  0  0  0  0  0  0999 V2000
   -3.5724    7.6875    0.0000 C   0  0  0  0  0  0  0  0  0  0  0  0
   -4.8714    8.4375    0.0000 C   0  0  0  0  0  0  0  0  0  0  0  0
   -2.2733    8.4375    0.0000 C   0  0  0  0  0  0  0  0  0  0  0  0
   -6.1704    7.6875    0.0000 C   0  0  0  0  0  0  0  0  0  0  0  0
   -0.9743    7.6875    0.0000 C   0  0  0  0  0  0  0  0  0  0  0  0
   -7.4695    8.4375    0.0000 C   0  0  0  0  0  0  0  0  0  0  0  0
    0.3248    8.4375    0.0000 C   0  0  0  0  0  0  0  0  0  0  0  0
   -8.7685    7.6875    0.0000 C   0  0  0  0  0  0  0  0  0  0  0  0
    1.6238    7.6875    0.0000 C   0  0  0  0  0  0  0  0  0  0  0  0
  -10.0675    8.4375    0.0000 C   0  0  0  0  0  0  0  0  0  0  0  0
    2.9228    8.4375    0.0000 C   0  0  0  0  0  0  0  0  0  0  0  0
  -11.3666    7.6875    0.0000 C   0  0  0  0  0  0  0  0  0  0  0  0
    4.2219    7.6875    0.0000 O   0  0  0  0  0  0  0  0  0  0  0  0
  -11.3666    6.1875    0.0000 O   0  0  0  0  0  0  0  0  0  0  0  0
  -12.6656    8.4375    0.0000 O   0  0  0  0  0  0  0  0  0  0  0  0
  2  1  1  0
  3  1  1  0
  4  2  1  0
  5  3  1  0
  6  4  1  0
  7  5  1  0
  8  6  1  0
  9  7  1  0
 10  8  1  0
 11  9  1  0
 12 10  1  0
 13 11  1  0
 14 12  2  0
 15 12  1  0
M  END
>  <NAME>  (146) 
12-HYDROXYDODECANOIC ACID

>  <SYNONYMS>  (146) 


>  <SPECTRUM TYPE>  (146) 
MS1

>  <INSTRUMENT TYPE>  (146) 
EI-B

>  <INSTRUMENT>  (146) 
HITACHI M-2500

>  <ION MODE>  (146) 
P

>  <INCHIKEY>  (146) 
ZDHCZVWCTKTBRY-UHFFFAOYSA-N

>  <FORMULA>  (146) 
C12H24O3

>  <EXACT MASS>  (146) 
216.17254462799997

>  <MW>  (146) 
216

>  <ID>  (146) 
JP011923

>  <CONTRIBUTOR>  (146) 
University of Tokyo Team, {Faculty of Engineering, University of Tokyo

>  <COMMENT>  (146) 
SMILES=OCCCCCCCCCCCC(O)=O
cas=505-95-3
InChI=InChI=1S/C12H24O3/c13-11-9-7-5-3-1-2-4-6-8-10-12(14)15/h13H,1-11H2,(H,14,15)
computed SMILES=O=C(O)CCCCCCCCCCCO
accession=JP011923
date=2016.01.19 (Created 2008.10.21, modified 2011.05.06)
author=YAMAMOTO M, DEP. CHEMISTRY, FAC. SCIENCE, NARA WOMEN'S UNIV.
license=CC BY-NC-SA
exact mass=216.17254
ionization energy=70 eV
ion type=[M]+*
computed spectral entropy=3.8374982266676185
computed normalized entropy=0.8486682119870372
SPLASH=splash10-053v-9100000000-a92cb682b3bdad87a6b8
submitter=submitter = University of Tokyo Team (Faculty of Engineering, University of Tokyo)
MoNA Rating=3.75

>  <NUM PEAKS>  (146) 
92

>  <MASS SPECTRAL PEAKS>  (146) 
15 2.25
17 2.56
18 10.78
19 1.52
26 2.54
27 29.2
28 11.05
29 38.4
30 1.42
31 51.65
39 19.1
40 4.23
41 83.39
42 22.59
43 38.72
44 3.58
45 13.46
53 6.6
54 12.01
55 99.99
56 24.33
57 16.96
58 1.93
59 4.59
60 37.91
61 4.62
66 1.44
67 16.02
68 25.39
69 57.25
70 14.54
71 9.67
72 1.07
73 40.35
74 3.86
79 2.8
80 3.39
81 13.78
82 19.57
83 39.85
84 52.98
85 7.94
86 1.44
87 10.21
88 1.42
93 1.82
94 4.76
95 10.73
96 17.96
97 24.19
98 73.37
99 7.38
100 4.75
101 7.15
102 1.4
107 1.28
108 3.16
109 6.21
110 12.35
111 9.88
112 23.49
113 3.94
114 5.74
115 4.27
116 1.76
119 1.15
121 1.67
123 5.48
124 5.04
125 3.66
126 7.44
127 2.49
129 12.27
130 2.17
133 1.54
134 1.42
136 3.97
137 4.91
138 6.66
139 2.64
140 1.31
143 5.07
151 3.38
152 6.31
153 1.14
155 1.91
157 1.27
162 4.22
170 1.04
180 4.22
187 2.31
198 2.79

>  <PREDICTED SPECTRUM>  (146) 
13 0
14 5
15 5
16 14
17 27
18 53
19 1
25 16
26 104
27 355
28 182
29 438
30 78
31 250
32 10
34 1
36 28
37 13
38 33
39 316
40 132
41 898
42 491
43 809
44 232
45 375
46 84
47 74
49 31
50 30
51 107
52 63
53 289
54 417
55 999
56 499
57 559
58 174
59 230
60 596
61 277
62 23
63 23
65 118
66 120
67 517
68 424
69 730
70 442
71 359
72 164
73 657
74 204
75 113
76 15
77 137
78 57
79 226
80 219
81 447
82 452
83 619
84 727
85 303
86 165
87 291
88 114
89 103
91 175
92 74
93 215
94 241
95 426
96 432
97 536
98 962
99 383
100 214
101 315
102 219
103 80
104 17
105 82
106 96
107 138
108 171
109 319
110 278
111 440
112 518
113 295
114 270
115 309
116 179
117 115
118 66
119 160
120 107
121 184
122 176
123 320
124 341
125 286
126 255
127 246
128 147
129 236
130 80
131 67
133 120
134 169
135 179
136 144
137 272
138 257
139 254
140 189
141 156
142 89
143 86
144 64
145 13
147 65
148 80
149 19
151 152
152 191
153 113
154 166
155 158
156 119
157 244
158 139
159 29
161 1
162 70
163 105
164 37
165 62
168 13
169 90
170 83
171 23
172 52
173 6
174 1
176 3
180 271
181 145
186 59
187 9
197 22
198 250
199 217
200 85
216 12

$$$$

     RDKit          2D

 21 24  0  0  0  0  0  0  0  0999 V2000
    6.9568    4.4506    0.0000 C   0  0  0  0  0  0  0  0  0  0  0  0
    5.6571    5.2012    0.0000 C   0  0  0  0  0  0  0  0  0  0  0  0
    6.9575    2.9498    0.0000 C   0  0  0  0  0  0  0  0  0  0  0  0
   -3.4300   -1.5500    0.0000 C   0  0  0  0  0  0  0  0  0  0  0  0
   -3.4300   -0.0500    0.0000 C   0  0  0  0  0  0  0  0  0  0  0  0
   -2.1300   -2.3000    0.0000 C   0  0  0  0  0  0  0  0  0  0  0  0
    4.3582    4.4510    0.0000 C   0  0  0  0  0  0  0  0  0  0  0  0
    5.6586    2.1996    0.0000 C   0  0  0  0  0  0  0  0  0  0  0  0
   -2.1300    0.7000    0.0000 C   0  0  0  0  0  0  0  0  0  0  0  0
    0.4600   -2.3000    0.0000 C   0  0  0  0  0  0  0  0  0  0  0  0
    1.7600   -1.5500    0.0000 C   0  0  0  0  0  0  0  0  0  0  0  0
    1.7600    2.9500    0.0000 C   0  0  0  0  0  0  0  0  0  0  0  0
   -0.8300   -1.5500    0.0000 C   0  0  0  0  0  0  0  0  0  0  0  0
    4.3589    2.9502    0.0000 C   0  0  0  0  0  0  0  0  0  0  0  0
   -0.8300   -0.0500    0.0000 C   0  0  0  0  0  0  0  0  0  0  0  0
    0.4600    2.2000    0.0000 C   0  0  0  0  0  0  0  0  0  0  0  0
    1.7600   -0.0500    0.0000 C   0  0  0  0  0  0  0  0  0  0  0  0
    3.0600    2.2000    0.0000 C   0  0  0  0  0  0  0  0  0  0  0  0
    0.4600    0.7000    0.0000 C   0  0  0  0  0  0  0  0  0  0  0  0
   -0.8389    2.9502    0.0000 O   0  0  0  0  0  0  0  0  0  0  0  0
    3.0600    0.7000    0.0000 O   0  0  0  0  0  0  0  0  0  0  0  0
  2  1  2  0
  3  1  1  0
  5  4  2  0
  6  4  1  0
  7  2  1  0
  8  3  2  0
  9  5  1  0
 11 10  2  0
 13  6  2  0
 13 10  1  0
 14  7  2  0
 14  8  1  0
 15  9  2  0
 15 13  1  0
 16 12  1  0
 17 11  1  0
 18 12  2  0
 18 14  1  0
 19 15  1  0
 19 16  1  0
 19 17  2  0
 20 16  2  0
 21 17  1  0
 21 18  1  0
M  END
>  <NAME>  (147) 
BETA-NAPHTHOFLAVONE

>  <SYNONYMS>  (147) 
3,5-BENZOFLAVONE

>  <SPECTRUM TYPE>  (147) 
MS1

>  <INSTRUMENT TYPE>  (147) 
EI-B

>  <INSTRUMENT>  (147) 
HITACHI M-2500

>  <ION MODE>  (147) 
P

>  <INCHIKEY>  (147) 
OUGIDAPQYNCXRA-UHFFFAOYSA-N

>  <FORMULA>  (147) 
C19H12O2

>  <EXACT MASS>  (147) 
272.083729624

>  <MW>  (147) 
272

>  <ID>  (147) 
JP011922

>  <CONTRIBUTOR>  (147) 
University of Tokyo Team, {Faculty of Engineering, University of Tokyo

>  <COMMENT>  (147) 
SMILES=c(c4)ccc(c4)C(=C3)Oc(c1)c(C(=O)3)c(c2)c(ccc2)c1
cas=6051-87-2
InChI=InChI=1S/C19H12O2/c20-16-12-18(14-7-2-1-3-8-14)21-17-11-10-13-6-4-5-9-15(13)19(16)17/h1-12H
computed SMILES=O=C1C=C(OC=2C=CC=3C=CC=CC3C12)C=4C=CC=CC4
accession=JP011922
date=2016.01.19 (Created 2008.10.21, modified 2011.05.06)
author=YAMAMOTO M, DEP. CHEMISTRY, FAC. SCIENCE, NARA WOMEN'S UNIV.
license=CC BY-NC-SA
exact mass=272.08373
ionization energy=70 eV
ion type=[M]+*
computed spectral entropy=3.109235345323918
computed normalized entropy=0.7947896372310909
SPLASH=splash10-00di-3790000000-c4fd2800aec22c1db180
submitter=submitter = University of Tokyo Team (Faculty of Engineering, University of Tokyo)
MoNA Rating=3.75

>  <NUM PEAKS>  (147) 
50

>  <MASS SPECTRAL PEAKS>  (147) 
17 1.09
18 4.84
27 1.98
28 1.97
31 1.21
39 4.06
50 4.02
51 5.37
52 2.2
62 3.26
63 6.68
64 1.51
74 3.54
75 3.94
76 4.49
77 3.37
86 1.52
87 2.94
88 4.91
89 2.27
94 1.11
95 3.21
102 7.71
106 3.21
107 6.17
108 1.95
113 6.67
114 31.55
115 8.61
116 1.87
122 12.7
126 2.17
136 3.01
139 1.3
142 15.35
143 1.81
144 13.8
145 1.46
170 31.47
171 3.86
189 1.66
213 2.86
215 8.15
243 2.41
244 42.62
245 8.22
271 6.41
272 99.99
273 21.74
274 2.69

>  <PREDICTED SPECTRUM>  (147) 
18 6
27 25
28 13
29 24
38 18
39 131
40 36
43 22
44 57
50 157
51 229
52 86
53 64
55 16
57 11
61 0
62 122
63 202
64 46
69 89
74 125
75 161
76 268
77 232
78 58
82 58
86 109
87 126
88 205
89 163
90 6
91 81
93 47
94 20
96 8
98 50
100 96
101 200
102 308
103 79
104 4
105 63
106 82
107 78
110 18
113 329
114 550
115 377
116 116
121 43
122 25
126 40
134 45
140 66
141 281
142 418
143 180
144 183
145 10
158 15
163 35
168 96
169 103
170 827
171 333
172 153
173 5
186 5
187 10
198 59
200 0
214 31
215 133
216 68
242 76
243 110
244 347
245 133
246 64
247 13
270 75
271 307
272 999
273 456
274 186
275 45

$$$$

     RDKit          2D

  8  8  0  0  0  0  0  0  0  0999 V2000
    0.7500    1.8100    0.0000 S   0  0  0  0  0  0  0  0  0  0  0  0
   -0.7500    1.8100    0.0000 S   0  0  0  0  0  0  0  0  0  0  0  0
    1.8100    0.7500    0.0000 S   0  0  0  0  0  0  0  0  0  0  0  0
   -1.8100    0.7500    0.0000 S   0  0  0  0  0  0  0  0  0  0  0  0
    1.8100   -0.7500    0.0000 S   0  0  0  0  0  0  0  0  0  0  0  0
   -1.8100   -0.7500    0.0000 S   0  0  0  0  0  0  0  0  0  0  0  0
    0.7500   -1.8100    0.0000 S   0  0  0  0  0  0  0  0  0  0  0  0
   -0.7500   -1.8100    0.0000 S   0  0  0  0  0  0  0  0  0  0  0  0
  2  1  1  0
  3  1  1  0
  4  2  1  0
  5  3  1  0
  6  4  1  0
  7  5  1  0
  8  6  1  0
  8  7  1  0
M  END
>  <NAME>  (148) 
SULFUR

>  <SYNONYMS>  (148) 


>  <SPECTRUM TYPE>  (148) 
MS1

>  <INSTRUMENT TYPE>  (148) 
EI-B

>  <INSTRUMENT>  (148) 
HITACHI M-80

>  <ION MODE>  (148) 
P

>  <INCHIKEY>  (148) 
JLQNHALFVCURHW-UHFFFAOYSA-N

>  <FORMULA>  (148) 
S8

>  <EXACT MASS>  (148) 
255.776568

>  <MW>  (148) 
255

>  <ID>  (148) 
JP011921

>  <CONTRIBUTOR>  (148) 
University of Tokyo Team, {Faculty of Engineering, University of Tokyo

>  <COMMENT>  (148) 
SMILES=S(S1)SSSSSS1
InChI=InChI=1S/S8/c1-2-4-6-8-7-5-3-1
computed SMILES=S1SSSSSSS1
accession=JP011921
date=2016.01.19 (Created 2008.10.21, modified 2011.05.06)
author=YAMAMOTO M, DEP. CHEMISTRY, FAC. SCIENCE, NARA WOMEN'S UNIV.
license=CC BY-NC-SA
exact mass=255.77657
ionization energy=70 eV
ion type=[M]+*
computed spectral entropy=2.4178929959010675
computed normalized entropy=0.7608093270202245
SPLASH=splash10-08fr-8970000000-05d363b8af247651039a
submitter=submitter = University of Tokyo Team (Faculty of Engineering, University of Tokyo)
MoNA Rating=3.75

>  <NUM PEAKS>  (148) 
24

>  <MASS SPECTRAL PEAKS>  (148) 
32 11.3
64 99.99
65 1.53
66 8.72
86 1.59
96 24.23
98 3.25
128 46.19
129 1.43
130 8.1
160 61.86
161 2.53
162 13.69
164 1.24
192 25.47
193 1.2
194 6.65
224 7.42
226 2.29
256 87.41
257 5.58
258 31.03
259 1.72
260 4.94

>  <PREDICTED SPECTRUM>  (148) 
15 51
26 11
27 29
32 238
34 72
40 21
41 77
42 96
44 71
45 999
46 781
52 3
64 943
72 155
76 862
78 822
79 41
102 51
103 16
104 28
119 72
160 24
178 201
180 41
192 732
194 107
204 6
224 273
256 342
257 13
258 150
259 15

$$$$

     RDKit          2D

 13 13  0  0  0  0  0  0  0  0999 V2000
    2.3381   -1.6500    0.0000 C   0  0  0  0  0  0  0  0  0  0  0  0
   -2.8589   -0.1506    0.0000 C   0  0  0  0  0  0  0  0  0  0  0  0
    3.6381    0.6000    0.0000 C   0  0  0  0  0  0  0  0  0  0  0  0
    2.3381    2.8500    0.0000 C   0  0  0  0  0  0  0  0  0  0  0  0
    2.3381   -0.1500    0.0000 C   0  0  0  0  0  0  0  0  0  0  0  0
    3.6381    2.1000    0.0000 C   0  0  0  0  0  0  0  0  0  0  0  0
    1.0381    2.1000    0.0000 C   0  0  0  0  0  0  0  0  0  0  0  0
    1.0381    0.6000    0.0000 C   0  0  0  0  0  0  0  0  0  0  0  0
   -0.2608   -0.1502    0.0000 C   0  0  0  0  0  0  0  0  0  0  0  0
    4.9370    2.8502    0.0000 O   0  0  0  0  0  0  0  0  0  0  0  0
   -0.2608    2.8502    0.0000 O   0  0  0  0  0  0  0  0  0  0  0  0
   -0.2606   -1.6502    0.0000 O   0  0  0  0  0  0  0  0  0  0  0  0
   -1.5600    0.5996    0.0000 O   0  0  0  0  0  0  0  0  0  0  0  0
  5  1  1  0
  5  3  2  0
  6  3  1  0
  6  4  2  0
  7  4  1  0
  8  5  1  0
  8  7  2  0
  9  8  1  0
 10  6  1  0
 11  7  1  0
 12  9  2  0
 13  2  1  0
 13  9  1  0
M  END
>  <NAME>  (149) 
METHYL 2,4-DIHYDROXY-6-METHYLBENZOATE

>  <SYNONYMS>  (149) 


>  <SPECTRUM TYPE>  (149) 
MS1

>  <INSTRUMENT TYPE>  (149) 
EI-B

>  <INSTRUMENT>  (149) 
HITACHI M-80

>  <ION MODE>  (149) 
P

>  <INCHIKEY>  (149) 
NCCWCZLEACWJIN-UHFFFAOYSA-N

>  <FORMULA>  (149) 
C9H10O4

>  <EXACT MASS>  (149) 
182.0579088

>  <MW>  (149) 
182

>  <ID>  (149) 
JP011920

>  <CONTRIBUTOR>  (149) 
University of Tokyo Team, {Faculty of Engineering, University of Tokyo

>  <COMMENT>  (149) 
SMILES=COC(=O)c(c(C)1)c(O)cc(O)c1
InChI=InChI=1S/C9H10O4/c1-5-3-6(10)4-7(11)8(5)9(12)13-2/h3-4,10-11H,1-2H3
computed SMILES=O=C(OC)C=1C(O)=CC(O)=CC1C
accession=JP011920
date=2016.01.19 (Created 2008.10.21, modified 2011.05.06)
author=YAMAMOTO M, DEP. CHEMISTRY, FAC. SCIENCE, NARA WOMEN'S UNIV.
license=CC BY-NC-SA
exact mass=182.05791
ionization energy=70 eV
ion type=[M]+*
computed spectral entropy=2.657705249060374
computed normalized entropy=0.7254430266972838
SPLASH=splash10-0udi-3900000000-d351d3a1c60f50c4becb
submitter=submitter = University of Tokyo Team (Faculty of Engineering, University of Tokyo)
MoNA Rating=3.75

>  <NUM PEAKS>  (149) 
39

>  <MASS SPECTRAL PEAKS>  (149) 
15 1.02
27 1.79
28 1.06
29 1.53
38 1.19
39 7.51
40 1.77
41 3.75
43 2.14
50 2.25
51 4.49
52 1.76
53 6.4
55 3.59
62 1.15
63 2.11
64 1.05
65 8.17
66 11.55
67 4.69
69 11.92
77 3.02
79 1.25
81 1.11
91 1.08
93 2.74
94 14.24
95 2.98
109 2.52
121 7.6
122 54.35
123 5.11
150 99.99
151 42.32
152 4.05
153 1.05
182 52.98
183 8.65
184 1.74

>  <PREDICTED SPECTRUM>  (149) 
15 22
26 32
27 76
28 51
29 71
31 49
32 15
33 31
37 31
38 63
39 125
40 51
41 143
42 50
43 86
44 88
45 37
49 43
50 121
51 219
52 180
53 231
54 65
55 172
56 17
57 81
59 20
60 17
61 13
62 62
63 122
64 69
65 223
66 190
67 187
68 142
69 184
74 45
75 23
76 20
77 209
78 122
79 210
80 94
81 111
82 89
83 64
84 1
85 40
86 3
92 69
93 210
94 228
95 158
107 149
108 103
120 44
121 250
122 422
123 184
135 17
149 82
150 999
151 481
152 117
153 13
181 26
182 526
183 171
184 17

$$$$

     RDKit          2D

  8  6  0  0  0  0  0  0  0  0999 V2000
    1.9486    2.6250    0.0000 C   0  0  0  0  0  0  0  0  0  0  0  0
    0.6495    3.3750    0.0000 C   0  0  0  0  0  0  0  0  0  0  0  0
   -3.2476    2.6250    0.0000 C   0  0  0  0  0  0  0  0  0  0  0  0
   -1.9486    3.3750    0.0000 C   0  0  0  0  0  0  0  0  0  0  0  0
   -4.5466    3.3750    0.0000 N   0  0  0  0  0  0  0  0  0  0  0  0
   -1.9486    4.8750    0.0000 O   0  0  0  0  0  0  0  0  0  0  0  0
   -0.6495    2.6250    0.0000 O   0  0  0  0  0  0  0  0  0  0  0  0
    0.0000    0.0000    0.0000 Cl  0  0  0  0  0  0  0  0  0  0  0  0
  2  1  1  0
  4  3  1  0
  5  3  1  0
  6  4  2  0
  7  2  1  0
  7  4  1  0
M  END
>  <NAME>  (150) 
GLYCINE ETHYL ESTER HYDROCHLORIDE

>  <SYNONYMS>  (150) 


>  <SPECTRUM TYPE>  (150) 
MS1

>  <INSTRUMENT TYPE>  (150) 
EI-B

>  <INSTRUMENT>  (150) 
HITACHI M-2500

>  <ION MODE>  (150) 
P

>  <INCHIKEY>  (150) 
TXTWXQXDMWILOF-UHFFFAOYSA-N

>  <FORMULA>  (150) 
C4H10ClNO2

>  <EXACT MASS>  (150) 
139.04000624

>  <MW>  (150) 
139

>  <ID>  (150) 
JP011918

>  <CONTRIBUTOR>  (150) 
University of Tokyo Team, {Faculty of Engineering, University of Tokyo

>  <COMMENT>  (150) 
SMILES=CCOC(=O)CN.Cl
cas=623-33-6
InChI=InChI=1S/C4H9NO2.ClH/c1-2-7-4(6)3-5;/h2-3,5H2,1H3;1H
computed SMILES=Cl.O=C(OCC)CN
accession=JP011918
date=2016.01.19 (Created 2008.10.21, modified 2011.05.06)
author=YAMAMOTO M, DEP. CHEMISTRY, FAC. SCIENCE, NARA WOMEN'S UNIV.
license=CC BY-NC-SA
exact mass=139.04001
ion type=[M]+*
ionization energy=70 eV
computed spectral entropy=1.7356643647173586
computed normalized entropy=0.5894720104570544
SPLASH=splash10-001i-9000000000-8ae5d06a0333d8c50cb3
submitter=submitter = University of Tokyo Team (Faculty of Engineering, University of Tokyo)
MoNA Rating=3.75

>  <NUM PEAKS>  (150) 
19

>  <MASS SPECTRAL PEAKS>  (150) 
14 1.66
25 1.83
27 6.94
28 1.86
29 4.35
30 99.99
31 2.86
35 3.7
36 19.91
37 1.4
38 7.83
40 1.19
42 2.53
43 1.49
45 2.28
46 1.44
60 2.93
74 1.92
104 6.49

>  <PREDICTED SPECTRUM>  (150) 
14 65
15 79
16 77
17 51
18 151
25 39
26 191
27 354
28 373
29 595
30 999
36 84
37 231
38 199
39 445
40 151
41 291
42 635
43 278
45 257
46 87
48 53
49 168
50 114
51 236
52 248
53 264
54 219
55 14
60 84
63 122
64 220
65 564
66 464
67 657
68 131
80 53
81 408
82 50
83 14
92 58
93 711
94 794
95 546
109 293
110 353
111 6
123 10
139 502
140 185

$$$$

     RDKit          2D

 11 12  0  0  0  0  0  0  0  0999 V2000
   -2.3100   -0.7500    0.0000 C   0  0  0  0  0  0  0  0  0  0  0  0
   -2.3100    0.7500    0.0000 C   0  0  0  0  0  0  0  0  0  0  0  0
   -1.0100   -1.5000    0.0000 C   0  0  0  0  0  0  0  0  0  0  0  0
   -1.0100    1.5000    0.0000 C   0  0  0  0  0  0  0  0  0  0  0  0
    0.2900   -0.7500    0.0000 C   0  0  0  0  0  0  0  0  0  0  0  0
    0.2900    0.7500    0.0000 C   0  0  0  0  0  0  0  0  0  0  0  0
    1.7200   -1.2100    0.0000 C   0  0  0  0  0  0  0  0  0  0  0  0
    1.7200    1.2100    0.0000 C   0  0  0  0  0  0  0  0  0  0  0  0
    2.6000    0.0000    0.0000 N   0  0  0  0  0  0  0  0  0  0  0  0
    2.1853   -2.6360    0.0000 O   0  0  0  0  0  0  0  0  0  0  0  0
    2.1853    2.6360    0.0000 O   0  0  0  0  0  0  0  0  0  0  0  0
  2  1  2  0
  3  1  1  0
  4  2  1  0
  5  3  2  0
  6  4  2  0
  6  5  1  0
  7  5  1  0
  8  6  1  0
  9  7  2  0
  9  8  1  0
 10  7  1  0
 11  8  2  0
M  END
>  <NAME>  (151) 
PHTHALIMIDE

>  <SYNONYMS>  (151) 


>  <SPECTRUM TYPE>  (151) 
MS1

>  <INSTRUMENT TYPE>  (151) 
EI-B

>  <INSTRUMENT>  (151) 
HITACHI M-80

>  <ION MODE>  (151) 
P

>  <INCHIKEY>  (151) 
XKJCHHZQLQNZHY-UHFFFAOYSA-N

>  <FORMULA>  (151) 
C8H5NO2

>  <EXACT MASS>  (151) 
147.0320284

>  <MW>  (151) 
147

>  <ID>  (151) 
JP011917

>  <CONTRIBUTOR>  (151) 
University of Tokyo Team, {Faculty of Engineering, University of Tokyo

>  <COMMENT>  (151) 
SMILES=C1=CC=C2C(=C1)C(=O)NC2=O
cas=85-41-6
InChI=InChI=1S/C8H5NO2/c10-7-5-3-1-2-4-6(5)8(11)9-7/h1-4H,(H,9,10,11)
computed SMILES=O=C1N=C(O)C=2C=CC=CC12
accession=JP011917
date=2016.01.19 (Created 2008.10.21, modified 2011.05.06)
author=YAMAMOTO M, DEP. CHEMISTRY, FAC. SCIENCE, NARA WOMEN'S UNIV.
license=CC BY-NC-SA
exact mass=147.03203
ionization energy=70 eV
ion type=[M]+*
computed spectral entropy=2.6314952085836394
computed normalized entropy=0.7287607395806549
SPLASH=splash10-0ufs-9800000000-e9a94eb343ce2dbdbd59
submitter=submitter = University of Tokyo Team (Faculty of Engineering, University of Tokyo)
MoNA Rating=3.75

>  <NUM PEAKS>  (151) 
37

>  <MASS SPECTRAL PEAKS>  (151) 
18 3.5
26 1.2
27 1.11
28 10.03
32 2.33
37 7.06
38 7.29
39 2.75
43 5.53
44 1.38
46 1.4
49 3.57
50 41.55
51 3.91
52 2.94
53 1.81
59 1.21
61 2.14
62 2.04
63 3.58
64 2.71
66 3.62
70 1.29
73 5.04
74 21.79
75 16.79
76 84.03
77 7.77
90 3.33
91 1.35
92 1.98
103 38.14
104 73.14
105 5.98
139 1.11
147 99.99
148 9.49

>  <PREDICTED SPECTRUM>  (151) 
14 5
25 5
26 19
28 47
29 12
37 142
38 194
39 167
40 120
41 85
42 226
43 211
44 255
45 127
46 36
49 129
50 542
51 436
52 206
53 82
61 120
62 281
63 407
64 227
65 60
66 57
69 12
72 10
73 111
74 272
75 260
76 406
77 553
78 202
88 3
89 78
90 288
91 357
92 304
102 99
103 148
104 544
105 755
106 187
118 120
119 549
120 240
121 21
147 999
148 288
149 55

$$$$

     RDKit          2D

 14 14  0  0  0  0  0  0  0  0999 V2000
   -0.2600    2.8500    0.0000 C   0  0  0  0  0  0  0  0  0  0  0  0
    2.3387   -3.1502    0.0000 C   0  0  0  0  0  0  0  0  0  0  0  0
    4.9370    1.3506    0.0000 C   0  0  0  0  0  0  0  0  0  0  0  0
   -1.5600    0.6000    0.0000 C   0  0  0  0  0  0  0  0  0  0  0  0
   -0.2600   -1.6500    0.0000 C   0  0  0  0  0  0  0  0  0  0  0  0
   -0.2600    1.3500    0.0000 C   0  0  0  0  0  0  0  0  0  0  0  0
   -1.5600   -0.9000    0.0000 C   0  0  0  0  0  0  0  0  0  0  0  0
    1.0400   -0.9000    0.0000 C   0  0  0  0  0  0  0  0  0  0  0  0
    1.0400    0.6000    0.0000 C   0  0  0  0  0  0  0  0  0  0  0  0
    2.3389    1.3502    0.0000 C   0  0  0  0  0  0  0  0  0  0  0  0
   -2.8589   -1.6502    0.0000 O   0  0  0  0  0  0  0  0  0  0  0  0
    2.3387    2.8502    0.0000 O   0  0  0  0  0  0  0  0  0  0  0  0
    2.3389   -1.6502    0.0000 O   0  0  0  0  0  0  0  0  0  0  0  0
    3.6381    0.6004    0.0000 O   0  0  0  0  0  0  0  0  0  0  0  0
  6  1  1  0
  6  4  2  0
  7  4  1  0
  7  5  2  0
  8  5  1  0
  9  6  1  0
  9  8  2  0
 10  9  1  0
 11  7  1  0
 12 10  2  0
 13  2  1  0
 13  8  1  0
 14  3  1  0
 14 10  1  0
M  END
>  <NAME>  (152) 
METHYL 4-HYDROXY-2-METHOXY-6-METHYLBENZOATE

>  <SYNONYMS>  (152) 


>  <SPECTRUM TYPE>  (152) 
MS1

>  <INSTRUMENT TYPE>  (152) 
EI-B

>  <INSTRUMENT>  (152) 
HITACHI M-80

>  <ION MODE>  (152) 
P

>  <INCHIKEY>  (152) 
ZGYSDRFXXJOWGZ-UHFFFAOYSA-N

>  <FORMULA>  (152) 
C10H12O4

>  <EXACT MASS>  (152) 
196.073558864

>  <MW>  (152) 
196

>  <ID>  (152) 
JP011916

>  <CONTRIBUTOR>  (152) 
University of Tokyo Team, {Faculty of Engineering, University of Tokyo

>  <COMMENT>  (152) 
SMILES=COC(=O)c(c(C)1)c(OC)cc(O)c1
InChI=InChI=1S/C10H12O4/c1-6-4-7(11)5-8(13-2)9(6)10(12)14-3/h4-5,11H,1-3H3
computed SMILES=O=C(OC)C=1C(OC)=CC(O)=CC1C
accession=JP011916
date=2016.01.19 (Created 2008.10.21, modified 2011.05.06)
author=YAMAMOTO M, DEP. CHEMISTRY, FAC. SCIENCE, NARA WOMEN'S UNIV.
license=CC BY-NC-SA
exact mass=196.07356
ionization energy=70 eV
ion type=[M]+*
computed spectral entropy=3.034988014827535
computed normalized entropy=0.7539684102169109
SPLASH=splash10-014i-3900000000-3f5671ad133f2fd19213
submitter=submitter = University of Tokyo Team (Faculty of Engineering, University of Tokyo)
MoNA Rating=3.75

>  <NUM PEAKS>  (152) 
56

>  <MASS SPECTRAL PEAKS>  (152) 
15 8.81
18 1.36
27 1.59
29 4.23
30 1.06
31 1.58
39 1.3
40 7.13
41 1.46
42 1.15
44 2.03
46 1.14
51 2.36
52 4.54
53 2.21
54 4.9
56 1.51
59 1.2
62 1.48
63 2.95
64 1.29
65 5.82
66 6.21
67 1.94
69 5.4
77 7.56
78 2.43
79 2.79
81 1.2
93 2.35
94 3.92
95 1.04
106 3.14
107 6.26
108 1.06
109 1.6
121 6.96
122 9.98
123 1.06
134 1.28
135 5.5
136 1.56
137 1.76
138 2.13
139 1.3
150 4.67
151 1.39
163 2.13
164 24.5
165 99.99
166 10.18
167 2.11
179 1.26
181 1.18
196 35.38
197 4.05

>  <PREDICTED SPECTRUM>  (152) 
14 10
15 49
25 5
26 19
27 67
28 9
29 88
31 30
32 0
33 25
34 5
36 18
37 38
38 72
39 127
40 49
41 75
42 40
43 76
44 56
45 96
47 9
49 58
50 106
51 173
52 120
53 169
54 52
55 55
56 23
57 16
59 90
61 41
62 88
63 140
64 88
65 155
66 139
67 97
68 47
69 159
70 19
73 15
74 49
75 40
76 28
77 218
78 132
79 170
80 84
81 55
82 40
83 54
84 48
91 50
92 53
93 177
94 162
95 92
97 51
105 75
106 125
107 202
108 102
109 116
110 89
111 48
121 124
122 250
123 95
124 56
125 48
134 19
135 256
136 196
137 200
138 77
149 117
150 194
151 131
152 30
163 194
164 492
165 999
166 271
167 129
179 18
181 32
195 54
196 530
197 164
198 41

$$$$

     RDKit          2D

 33 36  0  0  1  0  0  0  0  0999 V2000
    8.4378    0.0777    0.0000 C   0  0  0  0  0  0  0  0  0  0  0  0
    6.4062    1.6971    0.0000 C   0  0  0  0  0  0  0  0  0  0  0  0
    2.4575    1.0074    0.0000 C   0  0  0  0  0  0  0  0  0  0  0  0
    3.8948   -5.5187    0.0000 C   0  0  0  0  0  0  0  0  0  0  0  0
   -4.7868   -7.1141    0.0000 C   0  0  0  0  0  0  0  0  0  0  0  0
   -0.2351   -5.0249    0.0000 C   0  0  0  0  0  0  0  0  0  0  0  0
    6.0195   -0.8720    0.0000 C   0  0  0  0  0  0  0  0  0  0  0  0
    0.0312   -0.0020    0.0000 C   0  0  0  0  0  0  0  0  0  0  0  0
    1.1551   -2.7821    0.0000 C   0  0  0  0  0  0  0  0  0  0  0  0
    0.2950   -3.8478    0.0000 C   0  0  0  0  0  0  0  0  0  0  0  0
   -2.3282   -3.7147    0.0000 C   0  0  0  0  0  0  0  0  0  0  0  0
    6.9545    0.3010    0.0000 C   0  0  0  0  0  0  0  0  0  0  0  0
    1.5461   -0.1839    0.0000 C   0  0  0  0  0  0  0  0  0  0  0  0
    2.4025   -5.3673    0.0000 C   0  0  0  0  0  0  0  0  0  0  0  0
   -4.3196   -5.6887    0.0000 C   0  0  0  0  0  0  0  0  0  0  0  0
    2.1180   -1.5985    0.0000 C   0  0  0  0  0  0  0  0  0  0  0  0
   -0.8194   -1.2446    0.0000 C   0  0  0  0  0  0  0  0  0  0  0  0
    4.5362   -0.6488    0.0000 C   0  0  0  0  0  0  0  0  0  0  0  0
   -3.4601   -2.9185    0.0000 C   0  0  0  0  0  0  0  0  0  0  0  0
   -2.3844   -3.9552    0.0000 C   0  0  0  0  0  0  0  0  0  0  0  0
   -3.3364   -1.6042    0.0000 C   0  0  0  0  0  0  0  0  0  0  0  0
   -1.0700   -3.7788    0.0000 C   0  0  0  0  0  0  0  0  0  0  0  0
   -0.3200   -2.4797    0.0000 C   0  0  0  0  0  0  0  0  0  0  0  0
   -1.8808   -2.2830    0.0000 C   0  0  0  0  0  0  0  0  0  0  0  0
    1.5252   -6.5840    0.0000 O   0  0  0  0  0  0  0  0  0  0  0  0
   -5.3204   -4.5714    0.0000 O   0  0  0  0  0  0  0  0  0  0  0  0
    3.9879    0.7474    0.0000 O   0  0  0  0  0  0  0  0  0  0  0  0
   -4.8666   -3.4399    0.0000 O   0  0  0  0  0  0  0  0  0  0  0  0
    1.7874   -3.9992    0.0000 O   0  0  0  0  0  0  0  0  0  0  0  0
   -3.3444   -2.6114    0.0000 O   0  0  0  0  0  0  0  0  0  0  0  0
   -2.8516   -5.3806    0.0000 O   0  0  0  0  0  0  0  0  0  0  0  0
    3.6012   -1.8217    0.0000 O   0  0  0  0  0  0  0  0  0  0  0  0
   -2.2551   -0.8314    0.0000 O   0  0  0  0  0  0  0  0  0  0  0  0
 12  1  1  0
 12  2  1  0
 12  7  1  0
 13  3  1  0
 13  8  2  0
 14  4  1  0
 15  5  1  0
 16  9  1  0
 16 13  1  0
 17  8  1  6
 18  7  1  0
 20 19  1  0
 21 19  1  0
 22  6  1  6
 22 20  1  0
 23  9  1  0
 23 10  1  1
 23 17  1  0
 23 22  1  0
 24 11  1  6
 24 21  1  0
 24 22  1  0
 25 14  2  0
 26 15  2  0
 27 18  2  0
 19 28  1  1
 29 10  1  0
 29 14  1  0
 30 11  1  0
 24 30  1  0
 31 15  1  0
 20 31  1  6
 16 32  1  1
 32 18  1  0
 17 33  1  0
 21 33  1  1
M  END
>  <NAME>  (153) 
T2 TOXIN

>  <SYNONYMS>  (153) 
MYCOTOXIN T2

>  <SPECTRUM TYPE>  (153) 
MS1

>  <INSTRUMENT TYPE>  (153) 
EI-B

>  <INSTRUMENT>  (153) 
HITACHI M-80

>  <ION MODE>  (153) 
P

>  <INCHIKEY>  (153) 
BXFOFFBJRFZBQZ-QYWOHJEZSA-N

>  <FORMULA>  (153) 
C24H34O9

>  <EXACT MASS>  (153) 
466.220282668

>  <MW>  (153) 
466

>  <ID>  (153) 
JP011915

>  <CONTRIBUTOR>  (153) 
University of Tokyo Team, {Faculty of Engineering, University of Tokyo

>  <COMMENT>  (153) 
SMILES=O(C1)C1(C34[H])C(C(C4O)OC(C)=O)(C(C(O3)([H])2)(COC(C)=O)CC(OC(=O)CC(C)C)C(C)=C2)C
cas=21259-20-1
InChI=InChI=1S/C24H34O9/c1-12(2)7-18(27)32-16-9-23(10-29-14(4)25)17(8-13(16)3)33-21-19(28)20(31-15(5)26)22(23,6)24(21)11-30-24/h8,12,16-17,19-21,28H,7,9-11H2,1-6H3/t16-,17+,19+,20+,21+,22+,23+,24-/m0/s1
computed SMILES=O=C(OCC12CC(OC(=O)CC(C)C)C(=CC2OC3C(O)C(OC(=O)C)C1(C)C43OC4)C)C
accession=JP011915
date=2016.01.19 (Created 2008.10.21, modified 2011.05.06)
author=YAMAMOTO M, DEP. CHEMISTRY, FAC. SCIENCE, NARA WOMEN'S UNIV.
license=CC BY-NC-SA
exact mass=466.22028
ionization energy=70 eV
ion type=[M]+*
computed spectral entropy=4.346606011857411
computed normalized entropy=0.8674760298317395
SPLASH=splash10-0596-7910000000-84a88b77277b1b533aba
submitter=submitter = University of Tokyo Team (Faculty of Engineering, University of Tokyo)
MoNA Rating=3.75

>  <NUM PEAKS>  (153) 
150

>  <MASS SPECTRAL PEAKS>  (153) 
15 3.24
27 3.25
28 1.53
29 8.45
31 1.36
39 3.92
41 16.39
43 99.99
44 2.59
45 1.24
53 2.86
56 5.63
57 38.67
58 1.78
59 1.25
60 2.18
65 1.78
67 3.04
69 4.64
71 2.52
73 1.27
77 5.13
78 1.4
79 5.03
80 1.43
81 2.82
82 4.19
83 4.48
85 25.63
86 1.42
91 9.33
92 2.98
93 7.21
94 2.62
95 8.16
96 4.22
97 2.97
100 1.51
103 1.96
104 3.93
105 22.7
106 4.02
107 6.24
108 4.24
109 4.46
110 1.38
111 3.51
112 1.83
115 2.33
116 1.3
117 2.76
118 4.76
119 4.76
120 8.55
121 37.97
122 19.44
123 5.8
124 15.23
125 17.03
126 2.55
127 1.17
128 2.35
129 3.19
130 1.68
131 3.22
132 1.25
133 2.89
134 2.53
135 3.17
136 1.61
137 2.2
138 8.45
139 2.3
141 3.14
142 7.53
143 4.79
144 2.1
145 6.29
146 2.18
147 4.5
148 1.33
149 1.57
151 1.1
155 1.49
156 1.1
157 6.09
158 2.81
159 6.51
160 3.17
161 4.57
162 1.34
163 1.97
164 2.12
167 2
169 1.59
171 3.65
172 5.68
173 8.21
174 2.19
175 4.68
176 1.88
177 1.47
180 17.8
181 2.96
183 1.68
184 2.21
185 10.33
186 5.82
187 4.3
188 2.42
189 3.47
190 1.12
191 1.36
197 1.65
198 1.49
199 1.87
200 3.38
201 4.57
202 2.71
203 5.25
204 1.59
205 7.34
206 1.2
213 3.18
214 2.15
215 3.7
216 1.45
218 3.73
219 1.65
226 1.4
227 3.15
231 4.15
232 1.38
233 2.1
244 1.68
245 3.23
246 1.64
261 2.1
262 1.19
263 1.04
275 2.05
276 1.42
278 7.51
279 1.36
291 1.54
304 2.81
305 3.01
364 9.08
365 2.06
382 2.23

>  <PREDICTED SPECTRUM>  (153) 
27 22
29 99
39 45
41 151
43 182
44 21
45 40
49 45
53 77
55 210
56 13
57 767
58 9
65 23
67 89
68 3
69 174
71 32
72 74
73 74
77 115
79 229
80 4
81 143
82 0
83 5
84 192
85 999
86 208
91 345
92 56
93 199
94 11
95 212
97 25
99 2
101 36
103 17
104 70
105 659
106 93
107 288
109 244
110 1
111 10
113 55
115 54
116 10
117 110
118 0
119 68
120 535
121 872
122 538
123 88
124 632
125 433
127 21
128 27
129 64
131 211
132 5
137 101
138 754
139 161
143 247
144 134
145 452
146 51
147 117
148 21
149 32
157 192
159 422
161 321
162 19
163 24
165 3
171 182
172 84
173 259
174 34
175 323
176 56
180 2
185 591
186 227
187 156
189 175
190 7
191 41
199 88
200 58
201 279
202 75
203 342
204 313
205 411
215 45
217 43
218 51
219 126
220 45
221 42
231 168
233 112
244 4
245 248
246 91
247 86
248 19
261 66
262 71
263 71
272 73
275 46
305 216
306 65
319 37
336 25
347 181
364 80
407 80
411 38
424 8

$$$$

     RDKit          2D

 24 27  0  0  1  0  0  0  0  0999 V2000
    4.1839   -0.2973    0.0000 C   0  0  0  0  0  0  0  0  0  0  0  0
    4.6196    4.4955    0.0000 C   0  0  0  0  0  0  0  0  0  0  0  0
    2.9295    0.5252    0.0000 C   0  0  0  0  0  0  0  0  0  0  0  0
    1.9125    5.7889    0.0000 C   0  0  0  0  0  0  0  0  0  0  0  0
    0.5580    6.4354    0.0000 C   0  0  0  0  0  0  0  0  0  0  0  0
   -3.1548    3.8884    0.0000 C   0  0  0  0  0  0  0  0  0  0  0  0
   -1.2100    0.0000    0.0000 C   0  0  0  0  0  0  0  0  0  0  0  0
   -3.2717    5.3839    0.0000 C   0  0  0  0  0  0  0  0  0  0  0  0
   -1.5400   -1.3700    0.0000 C   0  0  0  0  0  0  0  0  0  0  0  0
    0.1600    2.1800    0.0000 C   0  0  0  0  0  0  0  0  0  0  0  0
    0.7917    3.4445    0.0000 C   0  0  0  0  0  0  0  0  0  0  0  0
    1.3400   -1.5100    0.0000 C   0  0  0  0  0  0  0  0  0  0  0  0
    1.5900   -0.1500    0.0000 C   0  0  0  0  0  0  0  0  0  0  0  0
    0.1600    0.5500    0.0000 C   0  0  0  0  0  0  0  0  0  0  0  0
    2.0294    4.2935    0.0000 C   0  0  0  0  0  0  0  0  0  0  0  0
   -1.8004    3.2420    0.0000 C   0  0  0  0  0  0  0  0  0  0  0  0
   -0.5627    4.0910    0.0000 C   0  0  0  0  0  0  0  0  0  0  0  0
   -0.6796    5.5864    0.0000 C   0  0  0  0  0  0  0  0  0  0  0  0
   -0.3300    1.1000    0.0000 C   0  0  0  0  0  0  0  0  0  0  0  0
   -1.6835    1.7465    0.0000 C   0  0  0  0  0  0  0  0  0  0  0  0
   -2.0341    6.2328    0.0000 N   0  0  0  0  0  0  0  0  0  0  0  0
   -0.1600   -0.8000    0.0000 N   0  0  0  0  0  0  0  0  0  0  0  0
   -2.9202    0.8976    0.0000 O   0  0  0  0  0  0  0  0  0  0  0  0
    3.3828    3.6468    0.0000 O   0  0  0  0  0  0  0  0  0  0  0  0
  3  1  2  0
  5  4  2  0
  8  6  1  0
  9  7  1  0
 13  3  1  6
 13 12  1  0
 14  7  1  6
 14 10  1  0
 14 13  1  0
 15  4  1  0
 15 11  2  0
 16  6  2  0
 17 11  1  0
 17 16  1  0
 18  5  1  0
 18 17  2  0
 19 10  1  6
 20 16  1  0
 20 19  1  0
 21  8  2  0
 21 18  1  0
 22  9  1  6
 22 12  1  0
 19 22  1  0
 20 23  1  6
 24  2  1  0
 24 15  1  0
M  END
>  <NAME>  (154) 
QUINIDINE

>  <SYNONYMS>  (154) 
CONQUININE

>  <SPECTRUM TYPE>  (154) 
MS1

>  <INSTRUMENT TYPE>  (154) 
EI-B

>  <INSTRUMENT>  (154) 
HITACHI M-2500

>  <ION MODE>  (154) 
P

>  <INCHIKEY>  (154) 
LOUPRKONTZGTKE-VPCNSNALSA-N

>  <FORMULA>  (154) 
C20H24N2O2

>  <EXACT MASS>  (154) 
324.183778008

>  <MW>  (154) 
324

>  <ID>  (154) 
JP011914

>  <CONTRIBUTOR>  (154) 
University of Tokyo Team, {Faculty of Engineering, University of Tokyo

>  <COMMENT>  (154) 
SMILES=COc(c4)cc(c3c4)c(ccn3)C(O)C(C1)N(C2)CC(C=C)C([H])(C2)1
cas=56-54-2
InChI=InChI=1S/C20H24N2O2/c1-3-13-12-22-9-7-14(13)10-19(22)20(23)16-6-8-21-18-5-4-15(24-2)11-17(16)18/h3-6,8,11,13-14,19-20,23H,1,7,9-10,12H2,2H3/t13-,14-,19+,20-/m1/s1
computed SMILES=OC(C=1C=CN=C2C=CC(OC)=CC21)C3N4CCC(C3)C(C=C)C4
accession=JP011914
date=2016.01.19 (Created 2008.10.21, modified 2011.05.06)
author=YAMAMOTO M, DEP. CHEMISTRY, FAC. SCIENCE, NARA WOMEN'S UNIV.
license=CC BY-NC-SA
exact mass=324.18378
ionization energy=70 eV
ion type=[M]+*
computed spectral entropy=4.020110667001886
computed normalized entropy=0.8354024638548511
SPLASH=splash10-000i-4902000000-d605b00c00597674d277
submitter=submitter = University of Tokyo Team (Faculty of Engineering, University of Tokyo)
MoNA Rating=3.75

>  <NUM PEAKS>  (154) 
123

>  <MASS SPECTRAL PEAKS>  (154) 
18 1.85
27 2.85
28 2.96
29 2.91
30 1.43
39 4.29
41 12.22
42 12.09
43 1.93
44 2.52
51 1.45
53 6.44
54 3.6
55 11.31
56 4.58
57 1.21
63 1.97
65 2.13
66 1.31
67 4.44
68 3.04
69 2.43
70 2.21
77 4.43
78 1.2
79 8.09
80 4.66
81 18.79
82 9.76
83 1.54
88 1.23
89 3.72
90 2.95
91 2.3
93 1.77
94 3.88
95 6.26
96 1.91
101 1.62
102 1.55
103 1.11
105 1.21
106 1.14
107 1.25
108 5.08
109 2.15
110 2.44
111 1.51
115 2.13
116 5.79
117 9.68
118 1.57
122 2.66
123 1.29
124 2.55
126 1.85
128 2.42
129 2.53
130 2.39
134 1.6
135 1.06
136 99.99
137 14.37
138 7.59
139 2.09
140 1.1
141 1.01
142 1.09
143 1.33
144 1.74
145 5.5
146 1.51
152 1.59
154 2.14
155 1.26
158 5.81
159 5.57
160 8
161 1.01
166 1.98
167 1.32
168 1.06
169 1.3
170 1.61
172 7.96
173 16.59
174 6.78
182 1.53
183 1.46
184 2.33
185 1.39
186 4.63
187 3.77
188 6.73
189 24.43
190 3.15
196 1.04
197 1.05
198 2.34
199 1.92
200 2.45
201 3.38
202 1.74
212 1.13
213 1.25
214 2.66
215 1.5
240 1.07
267 1.03
269 1.41
283 6.85
284 1.36
295 1.68
297 1.29
307 2.01
309 5.8
310 1.27
311 1.08
323 2.81
324 48.34
325 11.48
326 5.26
327 1.01

>  <PREDICTED SPECTRUM>  (154) 
17 0
27 4
28 31
30 19
38 16
39 96
40 48
41 286
42 205
43 121
44 111
45 34
46 9
49 13
50 56
51 107
52 92
53 206
54 129
55 225
56 175
57 37
58 69
59 33
61 3
62 16
63 101
64 63
65 111
66 88
67 188
68 86
69 76
70 63
71 37
72 38
73 30
74 41
75 46
76 34
77 133
78 83
79 119
80 118
81 189
82 132
83 45
84 32
86 84
87 32
88 64
89 60
90 65
91 81
92 21
93 103
94 157
95 140
96 52
97 30
98 42
99 7
100 81
101 90
102 53
103 60
104 61
105 58
106 89
107 56
108 114
109 5
110 73
111 61
112 30
113 22
114 34
115 96
116 78
117 47
118 59
119 5
120 23
121 49
122 72
123 28
124 23
125 30
126 79
128 97
129 77
130 76
131 45
132 15
133 5
134 34
135 8
136 999
137 285
138 121
139 33
140 47
141 27
142 59
143 73
144 52
145 51
146 20
147 3
148 10
149 55
150 47
152 40
154 88
155 30
156 110
157 68
158 105
161 35
162 1
167 72
168 62
171 81
172 63
173 44
174 5
178 13
180 27
181 49
182 59
183 8
184 66
185 59
186 77
187 139
188 169
189 127
190 51
196 12
199 8
200 20
208 5
210 91
211 94
212 66
213 28
214 17
215 21
229 19
230 34
245 5
255 7
277 11
280 4
291 54
293 26
294 1
307 159
308 95
309 39
323 21
324 126
325 39
326 32

$$$$

     RDKit          2D

 11 11  0  0  0  0  0  0  0  0999 V2000
    2.9583   -2.0456    0.0000 C   0  0  0  0  0  0  0  0  0  0  0  0
   -0.9401    1.7059    0.0000 C   0  0  0  0  0  0  0  0  0  0  0  0
    0.3589    2.4559    0.0000 C   0  0  0  0  0  0  0  0  0  0  0  0
    0.3599   -0.5458    0.0000 C   0  0  0  0  0  0  0  0  0  0  0  0
    2.9581   -0.5456    0.0000 C   0  0  0  0  0  0  0  0  0  0  0  0
   -0.9396    0.2051    0.0000 C   0  0  0  0  0  0  0  0  0  0  0  0
    1.6589    0.2042    0.0000 C   0  0  0  0  0  0  0  0  0  0  0  0
    1.6585    1.7051    0.0000 C   0  0  0  0  0  0  0  0  0  0  0  0
    4.2570    0.2046    0.0000 O   0  0  0  0  0  0  0  0  0  0  0  0
   -2.2386   -0.5449    0.0000 O   0  0  0  0  0  0  0  0  0  0  0  0
    2.9575    2.4551    0.0000 O   0  0  0  0  0  0  0  0  0  0  0  0
  3  2  2  0
  5  1  1  0
  6  2  1  0
  6  4  2  0
  7  4  1  0
  7  5  1  0
  8  3  1  0
  8  7  2  0
  9  5  2  0
 10  6  1  0
 11  8  1  0
M  END
>  <NAME>  (155) 
2',5'-DIHYDROXYACETOPHENONE

>  <SYNONYMS>  (155) 


>  <SPECTRUM TYPE>  (155) 
MS1

>  <INSTRUMENT TYPE>  (155) 
EI-B

>  <INSTRUMENT>  (155) 
HITACHI M-2500

>  <ION MODE>  (155) 
P

>  <INCHIKEY>  (155) 
WLDWSGZHNBANIO-UHFFFAOYSA-N

>  <FORMULA>  (155) 
C8H8O3

>  <EXACT MASS>  (155) 
152.04734411599998

>  <MW>  (155) 
152

>  <ID>  (155) 
JP011911

>  <CONTRIBUTOR>  (155) 
University of Tokyo Team, {Faculty of Engineering, University of Tokyo

>  <COMMENT>  (155) 
SMILES=CC(=O)c(c1)c(O)ccc(O)1
cas=490-78-8
InChI=InChI=1S/C8H8O3/c1-5(9)7-4-6(10)2-3-8(7)11/h2-4,10-11H,1H3
computed SMILES=O=C(C1=CC(O)=CC=C1O)C
accession=JP011911
date=2016.01.19 (Created 2008.10.21, modified 2011.05.06)
author=YAMAMOTO M, DEP. CHEMISTRY, FAC. SCIENCE, NARA WOMEN'S UNIV.
license=CC BY-NC-SA
exact mass=152.04734
ionization energy=70 eV
ion type=[M]+*
computed spectral entropy=2.8081130900135562
computed normalized entropy=0.7334489703289072
SPLASH=splash10-0f79-5900000000-e57c3609fe3f8770c9bb
submitter=submitter = University of Tokyo Team (Faculty of Engineering, University of Tokyo)
MoNA Rating=3.75

>  <NUM PEAKS>  (155) 
46

>  <MASS SPECTRAL PEAKS>  (155) 
15 2.46
18 1.64
26 2.77
27 6.4
28 1.02
29 2.93
37 1.02
38 1.99
39 5.88
41 1.6
42 1.94
43 18.29
50 3.84
51 7.21
52 7.7
53 15.13
54 4.03
55 5.66
61 1.11
62 2.17
63 4.05
65 1.21
66 1.1
67 1.5
69 6.53
77 3.87
78 3.21
79 1.67
80 1.73
81 21.41
82 2.66
95 1.26
105 2.22
106 1.55
108 2.7
109 17.42
110 3.24
123 1.04
133 1.08
134 4.46
136 1.09
137 99.99
138 7.97
151 1.3
152 68.66
153 6.27

>  <PREDICTED SPECTRUM>  (155) 
14 18
15 55
16 5
17 4
18 5
26 32
27 57
28 26
29 50
33 13
34 2
36 5
37 99
38 174
39 296
40 166
41 196
42 130
43 493
44 72
45 2
49 26
50 182
51 268
52 238
53 366
54 168
55 177
56 46
61 104
62 140
63 203
64 105
65 154
66 177
67 187
68 131
69 208
74 27
76 32
77 131
78 101
79 169
80 129
81 322
82 174
83 39
84 38
91 42
92 44
93 99
94 67
95 122
96 12
105 78
106 30
107 28
108 106
109 394
110 191
111 65
121 0
123 103
134 77
135 138
136 102
137 999
138 326
139 126
151 81
152 709
153 223
154 75

$$$$

     RDKit          2D

  9  8  0  0  0  0  0  0  0  0999 V2000
    0.6495    4.1250    0.0000 C   0  0  0  0  0  0  0  0  0  0  0  0
   -3.2476    3.3750    0.0000 C   0  0  0  0  0  0  0  0  0  0  0  0
   -0.6495    3.3750    0.0000 C   0  0  0  0  0  0  0  0  0  0  0  0
   -4.5466    4.1250    0.0000 C   0  0  0  0  0  0  0  0  0  0  0  0
    1.9486    3.3750    0.0000 N   0  0  0  0  0  0  0  0  0  0  0  0
   -1.9486    4.1250    0.0000 N   0  0  0  0  0  0  0  0  0  0  0  0
   -0.6495    1.8750    0.0000 O   0  0  0  0  0  0  0  0  0  0  0  0
   -4.5466    5.6250    0.0000 O   0  0  0  0  0  0  0  0  0  0  0  0
   -5.8457    3.3750    0.0000 O   0  0  0  0  0  0  0  0  0  0  0  0
  3  1  1  0
  4  2  1  0
  5  1  1  0
  6  2  1  0
  6  3  2  3
  7  3  1  0
  8  4  2  0
  9  4  1  0
M  END
>  <NAME>  (156) 
GLYCYLGLYCINE

>  <SYNONYMS>  (156) 


>  <SPECTRUM TYPE>  (156) 
MS1

>  <INSTRUMENT TYPE>  (156) 
EI-B

>  <INSTRUMENT>  (156) 
HITACHI M-2500

>  <ION MODE>  (156) 
P

>  <INCHIKEY>  (156) 
YMAWOPBAYDPSLA-UHFFFAOYSA-N

>  <FORMULA>  (156) 
C4H8N2O3

>  <EXACT MASS>  (156) 
132.053492116

>  <MW>  (156) 
132

>  <ID>  (156) 
JP011910

>  <CONTRIBUTOR>  (156) 
University of Tokyo Team, {Faculty of Engineering, University of Tokyo

>  <COMMENT>  (156) 
SMILES=NCC(=O)NCC(O)=O
cas=556-50-3
InChI=InChI=1S/C4H8N2O3/c5-1-3(7)6-2-4(8)9/h1-2,5H2,(H,6,7)(H,8,9)
computed SMILES=O=C(O)CN=C(O)CN
accession=JP011910
date=2016.01.19 (Created 2008.10.21, modified 2011.05.06)
author=YAMAMOTO M, DEP. CHEMISTRY, FAC. SCIENCE, NARA WOMEN'S UNIV.
license=CC BY-NC-SA
exact mass=132.05349
ionization energy=70 eV
ion type=[M]+*
computed spectral entropy=1.5250691511337993
computed normalized entropy=0.5276377154487083
SPLASH=splash10-001i-9000000000-156d6e678bff48157df2
submitter=submitter = University of Tokyo Team (Faculty of Engineering, University of Tokyo)
MoNA Rating=3.75

>  <NUM PEAKS>  (156) 
18

>  <MASS SPECTRAL PEAKS>  (156) 
18 2.22
27 1.29
28 15.95
29 5.24
30 99.99
31 4.16
42 3.49
43 2.49
44 1.07
45 2.89
56 3.37
59 1.22
71 1.69
74 1.26
89 1.24
104 3.43
114 1.83
132 1.67

>  <PREDICTED SPECTRUM>  (156) 
14 114
15 238
16 129
17 197
18 309
19 59
25 88
26 264
27 440
28 559
29 516
30 999
31 302
32 110
33 34
34 23
36 86
37 62
38 185
39 136
40 245
41 437
42 638
43 451
44 402
45 411
46 191
50 167
51 63
52 204
53 287
54 398
55 356
56 525
57 393
58 240
59 132
60 301
64 83
65 33
66 149
67 252
68 401
69 520
70 416
71 179
72 142
73 316
74 228
75 119
76 100
77 19
78 91
79 2
80 23
81 118
82 88
83 122
84 283
85 333
86 342
87 350
88 190
89 25
95 49
96 284
97 69
98 25
100 51
101 18
102 158
103 65
112 131
113 161
114 366
115 232
116 43
131 78
132 215
133 62
134 15

$$$$

     RDKit          2D

  5  4  0  0  0  0  0  0  0  0999 V2000
    0.0000    1.5000    0.0000 C   0  0  0  0  0  0  0  0  0  0  0  0
   -1.2990    2.2500    0.0000 C   0  0  0  0  0  0  0  0  0  0  0  0
   -0.0000   -0.0000    0.0000 O   0  0  0  0  0  0  0  0  0  0  0  0
   -2.5981    1.5000    0.0000 O   0  0  0  0  0  0  0  0  0  0  0  0
   -1.2990    3.7500    0.0000 O   0  0  0  0  0  0  0  0  0  0  0  0
  2  1  1  0
  3  1  1  0
  4  2  2  0
  5  2  1  0
M  END
>  <NAME>  (157) 
GLYCOLIC ACID

>  <SYNONYMS>  (157) 
HYDROXYACETIC ACID

>  <SPECTRUM TYPE>  (157) 
MS1

>  <INSTRUMENT TYPE>  (157) 
EI-B

>  <INSTRUMENT>  (157) 
HITACHI M-2500

>  <ION MODE>  (157) 
P

>  <INCHIKEY>  (157) 
AEMRFAOFKBGASW-UHFFFAOYSA-N

>  <FORMULA>  (157) 
C2H4O3

>  <EXACT MASS>  (157) 
76.01604398799999

>  <MW>  (157) 
76

>  <ID>  (157) 
JP011909

>  <CONTRIBUTOR>  (157) 
University of Tokyo Team, {Faculty of Engineering, University of Tokyo

>  <COMMENT>  (157) 
SMILES=OCC(O)=O
cas=79-14-1
InChI=InChI=1S/C2H4O3/c3-1-2(4)5/h3H,1H2,(H,4,5)
computed SMILES=O=C(O)CO
accession=JP011909
date=2016.01.19 (Created 2008.10.21, modified 2011.05.06)
author=YAMAMOTO M, DEP. CHEMISTRY, FAC. SCIENCE, NARA WOMEN'S UNIV.
license=CC BY-NC-SA
exact mass=76.01604
ionization energy=70 eV
ion type=[M]+*
computed spectral entropy=1.7907719336539973
computed normalized entropy=0.6785649987812389
SPLASH=splash10-001i-9000000000-e66ed28d8419895e0fb4
submitter=submitter = University of Tokyo Team (Faculty of Engineering, University of Tokyo)
MoNA Rating=3.75

>  <NUM PEAKS>  (157) 
14

>  <MASS SPECTRAL PEAKS>  (157) 
14 1.34
19 3.4
28 3.12
29 27.06
30 5.3
31 99.99
32 31.97
42 2.45
44 1.65
45 12.5
46 1.25
47 1.72
49 14.08
77 10.01

>  <PREDICTED SPECTRUM>  (157) 
14 199
15 339
16 130
17 157
18 232
19 142
25 156
26 344
27 496
28 631
29 999
30 792
31 976
32 174
33 80
35 50
36 199
38 133
40 204
41 86
42 760
43 788
44 527
45 897
46 630
47 228
48 25
56 77
57 487
58 884
59 398
60 283
61 59
76 66

$$$$

     RDKit          2D

 17 18  0  0  0  0  0  0  0  0999 V2000
    2.5641   -0.6088    0.0000 C   0  0  0  0  0  0  0  0  0  0  0  0
    4.4924   -0.6085    0.0000 C   0  0  0  0  0  0  0  0  0  0  0  0
   -1.6700    0.5400    0.0000 C   0  0  0  0  0  0  0  0  0  0  0  0
    7.4270    1.2906    0.0000 C   0  0  0  0  0  0  0  0  0  0  0  0
   -0.3700    1.2900    0.0000 C   0  0  0  0  0  0  0  0  0  0  0  0
    6.1270    0.5406    0.0000 C   0  0  0  0  0  0  0  0  0  0  0  0
   -1.6700   -0.9600    0.0000 C   0  0  0  0  0  0  0  0  0  0  0  0
    7.4270    2.7906    0.0000 C   0  0  0  0  0  0  0  0  0  0  0  0
    0.9300   -0.9600    0.0000 C   0  0  0  0  0  0  0  0  0  0  0  0
    4.8270    2.7906    0.0000 C   0  0  0  0  0  0  0  0  0  0  0  0
    0.9300    0.5400    0.0000 C   0  0  0  0  0  0  0  0  0  0  0  0
    4.8270    1.2906    0.0000 C   0  0  0  0  0  0  0  0  0  0  0  0
    2.2289    1.2902    0.0000 C   0  0  0  0  0  0  0  0  0  0  0  0
    3.5281    0.5404    0.0000 C   0  0  0  0  0  0  0  0  0  0  0  0
   -0.3700   -1.7100    0.0000 N   0  0  0  0  0  0  0  0  0  0  0  0
    6.1270    3.5406    0.0000 N   0  0  0  0  0  0  0  0  0  0  0  0
    2.2287    2.7902    0.0000 O   0  0  0  0  0  0  0  0  0  0  0  0
  5  3  2  0
  6  4  2  0
  7  3  1  0
  8  4  1  0
 11  5  1  0
 11  9  2  0
 12  6  1  0
 12 10  2  0
 13 11  1  0
 14  1  1  0
 14  2  1  0
 14 12  1  0
 14 13  1  0
 15  7  2  0
 15  9  1  0
 16  8  2  0
 16 10  1  0
 17 13  2  0
M  END
>  <NAME>  (158) 
2-METHYL-1,2-DI-3-PYRIDYL-1-PROPANONE

>  <SYNONYMS>  (158) 
METYRAPONE

>  <SPECTRUM TYPE>  (158) 
MS1

>  <INSTRUMENT TYPE>  (158) 
EI-B

>  <INSTRUMENT>  (158) 
HITACHI M-2500

>  <ION MODE>  (158) 
P

>  <INCHIKEY>  (158) 
FJLBFSROUSIWMA-UHFFFAOYSA-N

>  <FORMULA>  (158) 
C14H14N2O

>  <EXACT MASS>  (158) 
226.11061306800002

>  <MW>  (158) 
226

>  <ID>  (158) 
JP011907

>  <CONTRIBUTOR>  (158) 
University of Tokyo Team, {Faculty of Engineering, University of Tokyo

>  <COMMENT>  (158) 
SMILES=c(c2)ncc(c2)C(=O)C(C)(C)c(c1)cncc1
cas=54-36-4
InChI=InChI=1S/C14H14N2O/c1-14(2,12-6-4-8-16-10-12)13(17)11-5-3-7-15-9-11/h3-10H,1-2H3
computed SMILES=O=C(C=1C=NC=CC1)C(C=2C=NC=CC2)(C)C
accession=JP011907
date=2016.01.19 (Created 2008.10.21, modified 2011.05.06)
author=YAMAMOTO M, DEP. CHEMISTRY, FAC. SCIENCE, NARA WOMEN'S UNIV.
license=CC BY-NC-SA
exact mass=226.11061
ionization energy=70 eV
ion type=[M]+*
computed spectral entropy=2.7430874469347484
computed normalized entropy=0.7654731268468068
SPLASH=splash10-05di-8930000000-51278af0b7707c808df8
submitter=submitter = University of Tokyo Team (Faculty of Engineering, University of Tokyo)
MoNA Rating=3.75

>  <NUM PEAKS>  (158) 
36

>  <MASS SPECTRAL PEAKS>  (158) 
18 1.58
26 1
27 3.64
28 2.65
38 1.04
39 9.21
40 1.14
41 9.79
50 7.21
51 28.51
52 7.62
53 4.5
63 2.53
65 8.55
66 1.14
75 1.1
76 1.6
77 8.79
78 41.31
79 9.78
80 9
91 5.59
92 43.56
93 4.8
104 8.96
105 2.73
106 83.63
107 6.13
117 2.25
118 6.57
119 4.62
120 99.99
121 9.47
226 77.04
227 12.96
228 1.13

>  <PREDICTED SPECTRUM>  (158) 
26 3
27 10
34 12
38 29
39 221
40 105
41 297
42 115
43 302
44 48
50 181
51 468
52 206
53 139
54 38
55 197
56 100
57 229
58 15
63 49
64 15
65 86
66 39
67 112
68 20
69 123
70 4
75 10
76 31
77 61
78 689
79 229
80 33
81 56
89 2
90 7
91 121
92 37
93 29
98 5
99 30
105 56
106 999
107 326
108 12
115 9
117 5
118 4
119 7
120 175
122 19
148 186
169 85
170 46
171 39
183 45
184 24
197 52
198 48
211 148
212 17
225 57
226 300
227 108

$$$$

     RDKit          2D

 11 11  0  0  0  0  0  0  0  0999 V2000
   -3.8981    0.0002    0.0000 C   0  0  0  0  0  0  0  0  0  0  0  0
    0.0008   -2.2500    0.0000 C   0  0  0  0  0  0  0  0  0  0  0  0
   -1.2992   -3.0000    0.0000 C   0  0  0  0  0  0  0  0  0  0  0  0
   -1.2992    0.0000    0.0000 C   0  0  0  0  0  0  0  0  0  0  0  0
   -2.5992   -0.7500    0.0000 C   0  0  0  0  0  0  0  0  0  0  0  0
    0.0008   -0.7500    0.0000 C   0  0  0  0  0  0  0  0  0  0  0  0
   -2.5992   -2.2500    0.0000 C   0  0  0  0  0  0  0  0  0  0  0  0
   -3.8981   -3.0002    0.0000 N   0  0  0  0  0  0  0  0  0  0  0  0
    1.2998    0.0002    0.0000 N   0  0  0  0  0  0  0  0  0  0  0  0
    2.5989   -0.7496    0.0000 O   0  0  0  0  0  0  0  0  0  0  0  0
    1.2995    1.5002    0.0000 O   0  0  0  0  0  0  0  0  0  0  0  0
  3  2  2  0
  5  1  1  0
  5  4  1  0
  6  2  1  0
  6  4  2  0
  7  3  1  0
  7  5  2  0
  8  7  1  0
  9  6  1  0
 10  9  1  0
 11  9  2  0
M  CHG  2   9   1  10  -1
M  END
>  <NAME>  (159) 
2-METHYL-4-NITROANILINE

>  <SYNONYMS>  (159) 
4-NITRO-O-TOLUIDINE

>  <SPECTRUM TYPE>  (159) 
MS1

>  <INSTRUMENT TYPE>  (159) 
EI-B

>  <INSTRUMENT>  (159) 
HITACHI M-2500

>  <ION MODE>  (159) 
P

>  <INCHIKEY>  (159) 
XTTIQGSLJBWVIV-UHFFFAOYSA-N

>  <FORMULA>  (159) 
C7H8N2O2

>  <EXACT MASS>  (159) 
152.058577496

>  <MW>  (159) 
152

>  <ID>  (159) 
JP011906

>  <CONTRIBUTOR>  (159) 
University of Tokyo Team, {Faculty of Engineering, University of Tokyo

>  <COMMENT>  (159) 
SMILES=[O-1][N+1](=O)c(c1)cc(C)c(N)c1
cas=99-52-5
InChI=InChI=1S/C7H8N2O2/c1-5-4-6(9(10)11)2-3-7(5)8/h2-4H,8H2,1H3
computed SMILES=O=N(=O)C1=CC=C(N)C(=C1)C
accession=JP011906
date=2016.01.19 (Created 2008.10.21, modified 2011.05.06)
author=YAMAMOTO M, DEP. CHEMISTRY, FAC. SCIENCE, NARA WOMEN'S UNIV.
license=CC BY-NC-SA
exact mass=152.05858
ionization energy=70 eV
ion type=[M]+*
computed spectral entropy=3.086102523565541
computed normalized entropy=0.792971485621718
SPLASH=splash10-0ufr-9600000000-9f216819e597c04067e9
submitter=submitter = University of Tokyo Team (Faculty of Engineering, University of Tokyo)
MoNA Rating=3.75

>  <NUM PEAKS>  (159) 
49

>  <MASS SPECTRAL PEAKS>  (159) 
17 4.79
18 15.69
27 4.2
28 8.98
29 1.14
30 4.58
37 1.35
38 3.81
39 11.67
40 1.78
41 4.69
42 3.88
46 2.09
50 6.83
51 14.07
52 12.18
53 9.79
54 5.54
55 1.22
61 1
62 2.65
63 6.91
64 2.47
65 6.4
66 6.12
67 3.67
74 2.44
75 2.55
76 3.29
77 57.18
78 15.68
79 46.74
80 6.9
89 2.08
91 2.03
92 1.03
93 6.39
94 16.54
95 1.29
104 12.84
105 6.64
106 65.63
107 7.48
121 1.08
122 4.54
135 1.08
136 1.18
152 99.99
153 8.81

>  <PREDICTED SPECTRUM>  (159) 
14 27
15 47
16 27
17 20
18 31
25 16
26 103
27 222
28 157
29 94
30 401
31 59
32 29
36 27
37 173
38 282
39 505
40 225
41 321
42 146
43 33
44 119
46 187
49 67
50 402
51 666
52 601
53 378
54 182
55 101
56 25
61 140
62 278
63 490
64 276
65 111
66 171
67 122
73 59
74 115
75 110
76 221
77 797
78 611
79 531
80 304
81 114
86 56
87 1
88 33
89 174
90 169
91 27
93 127
94 196
102 14
104 497
105 309
106 615
107 267
108 139
122 412
124 8
135 320
136 205
152 999
153 293
154 375
155 54

$$$$

     RDKit          2D

 25 28  0  0  0  0  0  0  0  0999 V2000
   -2.6000   -0.7500    0.0000 C   0  0  0  0  0  0  0  0  0  0  0  0
    8.6295    4.2328    0.0000 C   0  0  0  0  0  0  0  0  0  0  0  0
   -2.6000    0.7500    0.0000 C   0  0  0  0  0  0  0  0  0  0  0  0
    9.9286    3.4828    0.0000 C   0  0  0  0  0  0  0  0  0  0  0  0
   -1.3000   -1.5000    0.0000 C   0  0  0  0  0  0  0  0  0  0  0  0
    7.3300    3.4819    0.0000 C   0  0  0  0  0  0  0  0  0  0  0  0
   -1.3000    1.5000    0.0000 C   0  0  0  0  0  0  0  0  0  0  0  0
    9.9281    1.9819    0.0000 C   0  0  0  0  0  0  0  0  0  0  0  0
    3.8989   -1.5002    0.0000 C   0  0  0  0  0  0  0  0  0  0  0  0
    0.0000   -0.7500    0.0000 C   0  0  0  0  0  0  0  0  0  0  0  0
    7.3295    1.9811    0.0000 C   0  0  0  0  0  0  0  0  0  0  0  0
    2.6000   -0.7500    0.0000 C   0  0  0  0  0  0  0  0  0  0  0  0
    6.0295   -0.2705    0.0000 C   0  0  0  0  0  0  0  0  0  0  0  0
    0.0000    0.7500    0.0000 C   0  0  0  0  0  0  0  0  0  0  0  0
    8.6286    1.2311    0.0000 C   0  0  0  0  0  0  0  0  0  0  0  0
    1.3000   -1.5000    0.0000 C   0  0  0  0  0  0  0  0  0  0  0  0
    6.0300    1.2303    0.0000 C   0  0  0  0  0  0  0  0  0  0  0  0
    2.6000    0.7500    0.0000 C   0  0  0  0  0  0  0  0  0  0  0  0
    7.3286   -1.0205    0.0000 C   0  0  0  0  0  0  0  0  0  0  0  0
    1.3000   -3.0000    0.0000 O   0  0  0  0  0  0  0  0  0  0  0  0
    4.7310    1.9803    0.0000 O   0  0  0  0  0  0  0  0  0  0  0  0
    3.8989    1.5002    0.0000 O   0  0  0  0  0  0  0  0  0  0  0  0
    7.3288   -2.5205    0.0000 O   0  0  0  0  0  0  0  0  0  0  0  0
    1.3000    1.5000    0.0000 O   0  0  0  0  0  0  0  0  0  0  0  0
    8.6281   -0.2697    0.0000 O   0  0  0  0  0  0  0  0  0  0  0  0
  3  1  2  0
  4  2  2  0
  5  1  1  0
  6  2  1  0
  7  3  1  0
  8  4  1  0
 10  5  2  0
 11  6  2  0
 12  9  1  0
 13  9  1  0
 14  7  2  0
 14 10  1  0
 15  8  2  0
 15 11  1  0
 16 10  1  0
 16 12  2  0
 17 11  1  0
 17 13  2  0
 18 12  1  0
 19 13  1  0
 20 16  1  0
 21 17  1  0
 22 18  2  0
 23 19  2  0
 24 14  1  0
 24 18  1  0
 25 15  1  0
 25 19  1  0
M  END
>  <NAME>  (160) 
DICUMAROL

>  <SYNONYMS>  (160) 
3,3'-METHYLENEBIS(4-HYDROXYCOUMARIN)

>  <SPECTRUM TYPE>  (160) 
MS1

>  <INSTRUMENT TYPE>  (160) 
EI-B

>  <INSTRUMENT>  (160) 
HITACHI M-2500

>  <ION MODE>  (160) 
P

>  <INCHIKEY>  (160) 
DOBMPNYZJYQDGZ-UHFFFAOYSA-N

>  <FORMULA>  (160) 
C19H12O6

>  <EXACT MASS>  (160) 
336.06338810399996

>  <MW>  (160) 
336

>  <ID>  (160) 
JP011905

>  <CONTRIBUTOR>  (160) 
University of Tokyo Team, {Faculty of Engineering, University of Tokyo

>  <COMMENT>  (160) 
SMILES=O=C(O1)C(CC(C(=O)3)=C(O)c(c4)c(ccc4)O3)=C(O)c(c2)c(ccc2)1
cas=66-76-2
InChI=InChI=1S/C19H12O6/c20-16-10-5-1-3-7-14(10)24-18(22)12(16)9-13-17(21)11-6-2-4-8-15(11)25-19(13)23/h1-8,20-21H,9H2
computed SMILES=O=C1OC=2C=CC=CC2C(O)=C1CC=3C(=O)OC=4C=CC=CC4C3O
accession=JP011905
date=2016.01.19 (Created 2008.10.21, modified 2011.05.06)
author=YAMAMOTO M, DEP. CHEMISTRY, FAC. SCIENCE, NARA WOMEN'S UNIV.
license=CC BY-NC-SA
exact mass=336.06339
ionization energy=70 eV
ion type=[M]+*
computed spectral entropy=3.4388347196406275
computed normalized entropy=0.8015073366408945
SPLASH=splash10-0079-6914000000-95659ff5087535a07662
submitter=submitter = University of Tokyo Team (Faculty of Engineering, University of Tokyo)
MoNA Rating=3.75

>  <NUM PEAKS>  (160) 
73

>  <MASS SPECTRAL PEAKS>  (160) 
18 2.46
26 1.35
27 1.52
28 1.41
37 1.34
38 4.05
39 7.9
42 1.36
43 1.32
50 5.01
51 6.3
52 1.28
53 4.93
55 2.21
61 1.44
62 4.02
63 13.7
64 11.9
65 17.02
66 1.88
67 1.67
69 1.6
74 2.35
75 3.06
76 5.87
77 10.82
78 1.75
79 1.01
88 1.05
89 3.15
90 1.48
91 3.19
92 38.36
93 13.69
94 2.17
101 1.34
102 3.56
103 3.25
104 2.71
105 3.35
107 2.48
115 4.61
118 2.36
119 1.41
120 39.43
121 70.73
122 5.48
130 1.15
131 6.97
132 1.51
134 5.3
146 4
147 4.23
159 1.21
160 3.79
162 34.1
163 4.03
174 10.53
175 11.95
176 2.71
186 2.25
187 22.66
188 8.51
189 1.27
215 34.11
216 4.79
262 1.79
289 1.96
290 5.85
291 1.38
336 99.99
337 21.43
338 3.47

>  <PREDICTED SPECTRUM>  (160) 
33 76
34 60
36 46
37 107
38 277
39 535
40 208
41 35
42 66
43 146
44 248
45 165
46 17
49 25
50 602
51 537
52 289
53 255
54 64
55 140
56 88
57 200
58 127
59 15
60 22
61 93
62 353
63 671
64 552
65 656
66 219
67 59
69 228
70 118
71 214
73 130
74 258
75 469
76 901
77 827
78 328
79 195
80 1
81 2
82 80
83 102
84 58
85 72
86 82
87 52
88 269
89 601
90 271
91 220
92 747
93 381
94 95
95 68
96 20
97 66
99 37
100 8
101 163
102 187
103 278
104 697
105 426
106 144
107 207
108 40
109 192
110 41
114 16
115 53
116 38
117 100
118 197
119 256
120 727
121 999
122 396
123 87
125 59
129 46
130 148
131 223
132 232
133 288
134 175
135 255
136 48
137 68
145 66
146 109
147 197
148 187
149 208
150 151
151 143
152 100
158 22
159 53
160 113
161 140
162 95
163 209
164 42
165 79
171 13
173 556
174 164
175 198
176 92
177 141
178 53
179 8
187 131
188 27
189 30
190 79
191 182
193 102
194 25
207 68
236 4
250 21
251 14
263 12
264 72
265 15
276 13
279 269
280 84
281 21
291 7
292 35
307 1
308 50
321 0
336 876
337 341
338 80

$$$$

     RDKit          2D

 12 12  0  0  0  0  0  0  0  0999 V2000
    3.8969   -0.3755    0.0000 C   0  0  0  0  0  0  0  0  0  0  0  0
    5.1960    0.3745    0.0000 C   0  0  0  0  0  0  0  0  0  0  0  0
    2.5974    0.3753    0.0000 C   0  0  0  0  0  0  0  0  0  0  0  0
    5.1955    1.8753    0.0000 C   0  0  0  0  0  0  0  0  0  0  0  0
    1.2978    2.6259    0.0000 C   0  0  0  0  0  0  0  0  0  0  0  0
   -0.0011    1.8757    0.0000 C   0  0  0  0  0  0  0  0  0  0  0  0
    2.5969    1.8761    0.0000 C   0  0  0  0  0  0  0  0  0  0  0  0
    3.8960    2.6261    0.0000 C   0  0  0  0  0  0  0  0  0  0  0  0
   -1.3003    2.6255    0.0000 C   0  0  0  0  0  0  0  0  0  0  0  0
    3.8962    4.1261    0.0000 O   0  0  0  0  0  0  0  0  0  0  0  0
   -1.3005    4.1255    0.0000 O   0  0  0  0  0  0  0  0  0  0  0  0
   -2.5992    1.8753    0.0000 O   0  0  0  0  0  0  0  0  0  0  0  0
  2  1  2  0
  3  1  1  0
  4  2  1  0
  5  6  2  0
  7  3  2  0
  7  5  1  0
  8  4  2  0
  8  7  1  0
  9  6  1  0
 10  8  1  0
 11  9  2  0
 12  9  1  0
M  END
>  <NAME>  (161) 
TRANS-ORTHO-COUMARIC ACID

>  <SYNONYMS>  (161) 


>  <SPECTRUM TYPE>  (161) 
MS1

>  <INSTRUMENT TYPE>  (161) 
EI-B

>  <INSTRUMENT>  (161) 
HITACHI M-2500

>  <ION MODE>  (161) 
P

>  <INCHIKEY>  (161) 
PMOWTIHVNWZYFI-AATRIKPKSA-N

>  <FORMULA>  (161) 
C9H8O3

>  <EXACT MASS>  (161) 
164.04734411599998

>  <MW>  (161) 
164

>  <ID>  (161) 
JP011904

>  <CONTRIBUTOR>  (161) 
University of Tokyo Team, {Faculty of Engineering, University of Tokyo

>  <COMMENT>  (161) 
SMILES=OC(=O)C=Cc(c1)c(O)ccc1
cas=14755-02-3
InChI=InChI=1S/C9H8O3/c10-8-4-2-1-3-7(8)5-6-9(11)12/h1-6,10H,(H,11,12)/b6-5+
computed SMILES=O=C(O)C=CC=1C=CC=CC1O
accession=JP011904
date=2016.01.19 (Created 2008.10.21, modified 2011.05.06)
author=YAMAMOTO M, DEP. CHEMISTRY, FAC. SCIENCE, NARA WOMEN'S UNIV.
license=CC BY-NC-SA
exact mass=164.04734
ionization energy=70 eV
ion type=[M]+*
computed spectral entropy=3.0327026937676207
computed normalized entropy=0.779250443613729
SPLASH=splash10-014i-9800000000-3650ee76a1293cba7523
submitter=submitter = University of Tokyo Team (Faculty of Engineering, University of Tokyo)
MoNA Rating=3.75

>  <NUM PEAKS>  (161) 
49

>  <MASS SPECTRAL PEAKS>  (161) 
17 1.38
18 4.16
26 1.16
27 2.69
28 1.28
29 2.08
37 1.48
38 4.03
39 13.16
40 1.58
41 2.19
43 2
44 1.13
45 5.16
50 5.26
51 8.61
52 2.16
53 3.03
55 1.44
59 1.48
61 2.46
62 6.53
63 16.65
64 6.17
65 14.59
66 1.97
73 1.01
74 2.92
75 4.81
76 1.4
77 1.58
78 1.36
79 2.04
86 1.36
87 1.46
89 21.63
90 31.36
91 30.48
92 4.38
101 2.53
103 3.29
107 2.14
118 99.99
119 13.28
120 2.81
146 34.5
147 7.08
164 28.74
165 3.11

>  <PREDICTED SPECTRUM>  (161) 
16 3
17 42
18 46
26 47
27 115
28 8
36 37
37 109
38 198
39 408
40 185
41 130
42 125
43 143
44 212
45 237
46 35
49 22
50 301
51 434
52 220
53 219
54 45
55 98
56 22
58 56
60 10
61 136
62 249
63 463
64 314
65 308
66 178
68 65
69 63
70 19
71 62
73 28
74 150
75 179
76 200
77 456
78 272
79 90
81 4
83 5
86 84
87 43
89 471
90 458
91 387
92 208
93 23
94 24
96 23
98 19
99 13
101 214
102 271
103 81
104 152
105 110
106 31
107 134
108 0
116 111
117 259
118 999
119 562
120 316
121 112
129 99
130 12
145 322
146 718
147 515
148 133
163 114
164 672
165 219
166 57

$$$$

     RDKit          2D

 12 12  0  0  0  0  0  0  0  0999 V2000
    3.5596    3.1719    0.0000 C   0  0  0  0  0  0  0  0  0  0  0  0
    2.2461    0.9470    0.0000 C   0  0  0  0  0  0  0  0  0  0  0  0
    0.9653    3.1783    0.0000 C   0  0  0  0  0  0  0  0  0  0  0  0
    4.8441    2.4470    0.0000 C   0  0  0  0  0  0  0  0  0  0  0  0
    3.5706    0.1529    0.0000 C   0  0  0  0  0  0  0  0  0  0  0  0
   -0.3375    2.4347    0.0000 C   0  0  0  0  0  0  0  0  0  0  0  0
    2.2606    2.4219    0.0000 C   0  0  0  0  0  0  0  0  0  0  0  0
    4.8696    0.9029    0.0000 C   0  0  0  0  0  0  0  0  0  0  0  0
   -1.6328    3.1910    0.0000 C   0  0  0  0  0  0  0  0  0  0  0  0
    6.1748    0.1636    0.0000 O   0  0  0  0  0  0  0  0  0  0  0  0
   -1.6254    4.6910    0.0000 O   0  0  0  0  0  0  0  0  0  0  0  0
   -2.9355    2.4474    0.0000 O   0  0  0  0  0  0  0  0  0  0  0  0
  4  1  2  0
  5  2  1  0
  3  6  2  0
  7  1  1  0
  7  2  2  0
  7  3  1  0
  8  4  1  0
  8  5  2  0
  9  6  1  0
 10  8  1  0
 11  9  2  0
 12  9  1  0
M  END
>  <NAME>  (162) 
TRANS-PARA-COUMARIC ACID

>  <SYNONYMS>  (162) 


>  <SPECTRUM TYPE>  (162) 
MS1

>  <INSTRUMENT TYPE>  (162) 
EI-B

>  <INSTRUMENT>  (162) 
HITACHI M-2500

>  <ION MODE>  (162) 
P

>  <INCHIKEY>  (162) 
NGSWKAQJJWESNS-ZZXKWVIFSA-N

>  <FORMULA>  (162) 
C9H8O3

>  <EXACT MASS>  (162) 
164.04734411599998

>  <MW>  (162) 
164

>  <ID>  (162) 
JP011903

>  <CONTRIBUTOR>  (162) 
University of Tokyo Team, {Faculty of Engineering, University of Tokyo

>  <COMMENT>  (162) 
SMILES=OC(=O)C=Cc(c1)ccc(O)c1
cas=7400-08-0
InChI=InChI=1S/C9H8O3/c10-8-4-1-7(2-5-8)3-6-9(11)12/h1-6,10H,(H,11,12)/b6-3+
computed SMILES=O=C(O)C=CC1=CC=C(O)C=C1
accession=JP011903
date=2016.01.19 (Created 2008.10.21, modified 2011.05.06)
author=YAMAMOTO M, DEP. CHEMISTRY, FAC. SCIENCE, NARA WOMEN'S UNIV.
license=CC BY-NC-SA
exact mass=164.04734
ionization energy=70 eV
ion type=[M]+*
computed spectral entropy=3.113989203982064
computed normalized entropy=0.7881035506207766
SPLASH=splash10-03xr-5900000000-a364c62c9122c0fbe6de
submitter=submitter = University of Tokyo Team (Faculty of Engineering, University of Tokyo)
MoNA Rating=3.75

>  <NUM PEAKS>  (162) 
52

>  <MASS SPECTRAL PEAKS>  (162) 
18 1.46
27 2.28
29 1.53
38 3.02
39 11.76
40 1.17
41 1.25
45 3.9
50 3.94
51 6.35
52 1.36
53 3.96
55 2.35
59 1.58
61 2.33
62 6.32
63 13.55
64 4.81
65 18.9
66 2.1
68 1.7
69 1.45
74 2.39
75 2.75
77 6.06
78 1.25
79 3.28
89 11.2
90 4.35
91 25.04
92 2.75
94 2.61
95 1.46
101 1.95
107 13.85
108 1.71
110 1.36
117 1.03
118 26.44
119 26.12
120 3.92
121 2.16
123 2.05
135 2.53
136 4.86
146 3.84
147 44.31
148 4.32
163 25.81
164 99.99
165 10.04
166 1.05

>  <PREDICTED SPECTRUM>  (162) 
15 26
16 5
17 29
18 2
25 2
26 66
27 164
28 74
29 139
36 41
37 117
38 198
39 437
40 125
41 94
42 127
43 107
44 127
45 177
46 56
49 34
50 275
51 404
52 205
53 277
54 67
55 212
60 18
61 92
62 224
63 404
64 211
65 518
66 213
67 37
68 52
69 13
70 39
71 180
73 71
74 161
75 169
76 141
77 286
78 128
79 202
80 62
81 181
83 42
85 19
86 14
87 10
88 34
89 352
90 267
91 419
92 257
93 128
94 212
95 103
96 48
97 62
101 149
102 234
103 70
104 11
105 154
106 58
107 362
108 226
109 80
117 184
118 524
119 511
120 409
121 175
122 44
131 13
135 297
136 235
137 63
145 133
146 294
147 500
148 101
149 52
163 820
164 999
165 314
166 58

$$$$

     RDKit          2D

  8  8  0  0  0  0  0  0  0  0999 V2000
   -0.0837   -0.8045    0.0000 C   0  0  0  0  0  0  0  0  0  0  0  0
   -1.3828   -1.5545    0.0000 C   0  0  0  0  0  0  0  0  0  0  0  0
   -0.0837    0.6955    0.0000 C   0  0  0  0  0  0  0  0  0  0  0  0
   -2.6818   -0.8045    0.0000 C   0  0  0  0  0  0  0  0  0  0  0  0
   -3.1948    2.1050    0.0000 O   0  0  0  0  0  0  0  0  0  0  0  0
   -4.1590    0.4350    0.0000 O   0  0  0  0  0  0  0  0  0  0  0  0
   -1.3828    1.4455    0.0000 O   0  0  0  0  0  0  0  0  0  0  0  0
   -2.6818    0.6955    0.0000 S   0  0  0  0  0  0  0  0  0  0  0  0
  2  1  1  0
  3  1  1  0
  4  2  1  0
  7  3  1  0
  8  4  1  0
  8  5  2  0
  8  6  2  0
  8  7  1  0
M  END
>  <NAME>  (163) 
1,4-BUTANE SULTONE

>  <SYNONYMS>  (163) 
4-HYDROXY-1-BUTANESULFONIC ACID DELTA SULTONE

>  <SPECTRUM TYPE>  (163) 
MS1

>  <INSTRUMENT TYPE>  (163) 
EI-B

>  <INSTRUMENT>  (163) 
HITACHI M-2500

>  <ION MODE>  (163) 
P

>  <INCHIKEY>  (163) 
MHYFEEDKONKGEB-UHFFFAOYSA-N

>  <FORMULA>  (163) 
C4H8O3S

>  <EXACT MASS>  (163) 
136.019415116

>  <MW>  (163) 
136

>  <ID>  (163) 
JP011902

>  <CONTRIBUTOR>  (163) 
University of Tokyo Team, {Faculty of Engineering, University of Tokyo

>  <COMMENT>  (163) 
SMILES=C(C1)COS(=O)(=O)C1
cas=1633-83-6
InChI=InChI=1S/C4H8O3S/c5-8(6)4-2-1-3-7-8/h1-4H2
computed SMILES=O=S1(=O)OCCCC1
accession=JP011902
date=2016.01.19 (Created 2008.10.21, modified 2011.05.06)
author=YAMAMOTO M, DEP. CHEMISTRY, FAC. SCIENCE, NARA WOMEN'S UNIV.
license=CC BY-NC-SA
exact mass=136.01941
ionization energy=70 eV
ion type=[M]+*
computed spectral entropy=2.5320478523679397
computed normalized entropy=0.744457780080536
SPLASH=splash10-0006-9000000000-10e6885b2c1cf30a82a7
submitter=submitter = University of Tokyo Team (Faculty of Engineering, University of Tokyo)
MoNA Rating=3.75

>  <NUM PEAKS>  (163) 
30

>  <MASS SPECTRAL PEAKS>  (163) 
15 3.26
17 1.5
18 6.31
26 4.43
27 23.79
28 8.83
29 8.8
30 2.23
31 4.19
38 2.4
39 21.33
40 10.22
41 46.97
42 99.99
43 11.12
44 2.71
48 3.66
51 1.02
53 1.66
54 34.86
55 5.62
57 1.16
64 2.57
65 2.09
71 18.29
72 1.23
78 2.01
106 1.4
107 1.54
121 1.23

>  <PREDICTED SPECTRUM>  (163) 
14 50
15 93
16 26
17 19
18 19
25 26
26 185
27 500
28 304
29 417
30 98
31 119
32 74
33 49
34 53
35 15
36 86
37 64
38 168
39 561
40 273
41 903
42 595
43 469
44 305
45 289
46 123
47 61
48 272
49 124
50 151
51 207
52 117
53 312
54 450
55 999
56 474
57 229
59 10
62 42
63 301
64 262
65 267
69 12
70 60
71 440
72 178
73 183
74 62
78 17
81 64
91 43
106 90
136 356
137 101
138 0

$$$$

     RDKit          2D

 29 32  0  0  1  0  0  0  0  0999 V2000
    3.0099    4.6213    0.0000 C   0  0  0  0  0  0  0  0  0  0  0  0
   -1.7700    0.8600    0.0000 C   0  0  0  0  0  0  0  0  0  0  0  0
    2.2765    3.1018    0.0000 C   0  0  0  0  0  0  0  0  0  0  0  0
    5.4808    3.8184    0.0000 C   0  0  0  0  0  0  0  0  0  0  0  0
    4.4300    0.8600    0.0000 C   0  0  0  0  0  0  0  0  0  0  0  0
    3.5500   -0.3500    0.0000 C   0  0  0  0  0  0  0  0  0  0  0  0
    5.9443    5.2450    0.0000 C   0  0  0  0  0  0  0  0  0  0  0  0
   -4.3700   -0.6400    0.0000 C   0  0  0  0  0  0  0  0  0  0  0  0
   -3.0700    0.1100    0.0000 C   0  0  0  0  0  0  0  0  0  0  0  0
   -3.0700   -2.8900    0.0000 C   0  0  0  0  0  0  0  0  0  0  0  0
   -0.4700   -2.8900    0.0000 C   0  0  0  0  0  0  0  0  0  0  0  0
   -0.4700    1.6100    0.0000 C   0  0  0  0  0  0  0  0  0  0  0  0
    4.0136    3.5066    0.0000 C   0  0  0  0  0  0  0  0  0  0  0  0
   -1.7700   -2.1400    0.0000 C   0  0  0  0  0  0  0  0  0  0  0  0
   -4.3700   -2.1400    0.0000 C   0  0  0  0  0  0  0  0  0  0  0  0
    3.5500    2.0800    0.0000 C   0  0  0  0  0  0  0  0  0  0  0  0
    2.1200    0.1100    0.0000 C   0  0  0  0  0  0  0  0  0  0  0  0
   -0.4700    0.1100    0.0000 C   0  0  0  0  0  0  0  0  0  0  0  0
    0.8300   -2.1400    0.0000 C   0  0  0  0  0  0  0  0  0  0  0  0
    0.8300    2.3600    0.0000 C   0  0  0  0  0  0  0  0  0  0  0  0
    7.4116    5.5568    0.0000 C   0  0  0  0  0  0  0  0  0  0  0  0
    0.8300   -0.6400    0.0000 C   0  0  0  0  0  0  0  0  0  0  0  0
   -1.7700   -0.6400    0.0000 C   0  0  0  0  0  0  0  0  0  0  0  0
    2.1200    1.6100    0.0000 C   0  0  0  0  0  0  0  0  0  0  0  0
   -5.6689   -2.8902    0.0000 O   0  0  0  0  0  0  0  0  0  0  0  0
    2.1289   -2.8902    0.0000 O   0  0  0  0  0  0  0  0  0  0  0  0
    0.8325    3.8600    0.0000 O   0  0  0  0  0  0  0  0  0  0  0  0
    8.4152    4.4421    0.0000 O   0  0  0  0  0  0  0  0  0  0  0  0
    7.8751    6.9834    0.0000 O   0  0  0  0  0  0  0  0  0  0  0  0
  6  5  1  0
  7  4  1  0
  9  8  1  0
 13  1  1  6
 13  4  1  0
 14 10  1  6
 14 11  1  0
 15  8  1  0
 15 10  1  0
 16  5  1  1
 16 13  1  0
 17  6  1  1
 18 12  1  1
 19 11  1  0
 20 12  1  0
 21  7  1  0
 22 17  1  0
 22 18  1  0
 22 19  1  6
 23  2  1  1
 23  9  1  0
 23 14  1  0
 23 18  1  0
 24  3  1  1
 24 16  1  0
 24 17  1  0
 24 20  1  0
 15 25  1  6
 19 26  1  6
 20 27  1  6
 28 21  2  0
 29 21  1  0
M  END
>  <NAME>  (164) 
CHOLIC ACID

>  <SYNONYMS>  (164) 
3ALPHA,7ALPHA,12ALPHA-TRIHYDROXY-5BETA-CHOLAN-24-OIC ACID

>  <SPECTRUM TYPE>  (164) 
MS1

>  <INSTRUMENT TYPE>  (164) 
EI-B

>  <INSTRUMENT>  (164) 
HITACHI M-2500

>  <ION MODE>  (164) 
P

>  <INCHIKEY>  (164) 
BHQCQFFYRZLCQQ-OELDTZBJSA-N

>  <FORMULA>  (164) 
C24H40O5

>  <EXACT MASS>  (164) 
408.28757438

>  <MW>  (164) 
408

>  <ID>  (164) 
JP011901

>  <CONTRIBUTOR>  (164) 
University of Tokyo Team, {Faculty of Engineering, University of Tokyo

>  <COMMENT>  (164) 
SMILES=C(C2([H])O)C(C3(C)4)(C(C([H])(O)CC3([H])CC([H])(O)CC4)(C(C21C)([H])CCC1([H])C([H])(C)CCC(O)=O)[H])[H]
cas=81-25-4
InChI=InChI=1S/C24H40O5/c1-13(4-7-21(28)29)16-5-6-17-22-18(12-20(27)24(16,17)3)23(2)9-8-15(25)10-14(23)11-19(22)26/h13-20,22,25-27H,4-12H2,1-3H3,(H,28,29)/t13-,14+,15-,16-,17+,18+,19-,20+,22+,23+,24-/m1/s1
computed SMILES=O=C(O)CCC(C)C1CCC2C3C(O)CC4CC(O)CCC4(C)C3CC(O)C12C
accession=JP011901
date=2016.01.19 (Created 2008.10.21, modified 2011.05.06)
author=YAMAMOTO M, DEP. CHEMISTRY, FAC. SCIENCE, NARA WOMEN'S UNIV.
license=CC BY-NC-SA
exact mass=408.28757
ionization energy=70 eV
ion type=[M]+*
computed spectral entropy=4.9142899315503
computed normalized entropy=0.8819372011562373
SPLASH=splash10-0fk9-5796000000-2876080f3fa17fb96370
submitter=submitter = University of Tokyo Team (Faculty of Engineering, University of Tokyo)
MoNA Rating=3.75

>  <NUM PEAKS>  (164) 
263

>  <MASS SPECTRAL PEAKS>  (164) 
18 1.84
27 3.42
28 1.32
29 7.38
31 1.68
39 4.01
41 19.04
42 1.94
43 12.39
44 2.05
45 2.36
53 5.82
54 1.6
55 32.49
56 2.74
57 8.09
59 3.76
60 6.61
65 2.33
66 1.42
67 16.98
68 4.49
69 10.61
70 2.39
71 4.46
73 1.89
77 7.41
79 16.33
80 4.61
81 27.99
82 4.56
83 9.74
84 4
85 3.89
91 16.12
92 4.07
93 21.95
94 9.6
95 20.52
96 3.62
97 4.96
99 2.68
101 2.55
103 1.37
104 1.15
105 18.47
106 6.16
107 19.28
108 6.52
109 14.12
110 3.43
111 3.49
112 1.02
115 2.39
116 1.31
117 5.89
118 4.29
119 13.91
120 5.65
121 13.2
122 4.08
123 5.74
124 1.76
125 1.81
127 2.01
128 2.44
129 4.53
130 2.28
131 11
132 4.57
133 12.21
134 4.53
135 7.79
136 2.42
137 3.62
138 1.12
139 1.23
140 2.11
141 2.73
142 2.59
143 9.03
144 5
145 17.24
146 5.47
147 12.11
148 3.54
149 4.58
150 1.56
151 1.82
153 1.37
154 1
155 3.75
156 2.08
157 9.99
158 5.36
159 13.03
160 4.48
161 7.32
162 3.31
163 4.79
164 1.87
165 2.18
167 1.5
169 4.54
170 2.22
171 8.15
172 5.85
173 8.02
174 3.14
175 4.7
176 1.61
177 2.29
178 1.37
179 1.3
180 1.2
181 4.39
182 1.97
183 4.39
184 2.14
185 6.92
186 2.56
187 5.8
188 1.83
189 3.5
190 1.91
191 1.69
193 2.5
194 3.64
195 3.75
196 1.28
197 5.99
198 2.94
199 9.8
200 3.86
201 9.88
202 2.68
203 3.65
204 1.13
205 1.2
207 1.65
209 2.34
210 1.23
211 10.36
212 5.21
213 7.44
214 3.7
215 8.06
216 4.03
217 5
218 2.11
219 1.99
221 1.04
223 1.26
225 3.69
226 24.71
227 14.95
228 4.86
229 9.91
230 3.31
231 3.5
232 2.99
233 4.33
234 1.93
235 2.4
236 1.17
237 2.02
238 1.18
239 2.04
240 1.33
241 1.68
242 1.13
243 2.78
244 10.98
245 6.8
246 8.19
247 22.56
248 6.98
249 2.76
250 1.12
251 2.76
252 1.92
253 64.75
254 14.48
255 4.44
256 1.44
257 1.59
258 2.04
259 3.39
260 4.17
261 2.64
262 1.56
263 1.54
265 1.83
269 5.23
270 2.34
271 86.21
272 19.57
273 3.86
274 1.25
278 1.08
279 1.38
281 5.72
282 1.85
283 1.56
285 1.31
287 2.93
288 1.64
289 11.76
290 3.16
295 2.54
297 1.75
298 1.56
299 6.84
300 12.65
301 4.07
302 1.57
310 1.2
311 1.63
312 2.19
313 6.48
314 2.1
315 1.86
316 1.14
317 1.04
318 1.9
321 1.01
325 1.37
326 1.53
327 1.14
328 4.74
329 3.8
330 1.71
331 1.86
337 1.61
338 1.11
339 16.59
340 4.77
341 3.89
342 1.67
343 29.17
345 1.83
346 1.16
352 1.18
353 1.58
354 52.95
355 16.72
356 4.5
357 17.34
358 4.79
359 1.27
361 2.12
362 1.24
370 2.41
371 1.65
372 99.99
373 29.41
374 4.99
375 1.79
388 2.5
390 5.45
391 1.46
406 1.34
408 1.09

>  <PREDICTED SPECTRUM>  (164) 
14 18
16 40
17 109
18 176
19 46
25 42
26 106
27 303
28 196
29 346
30 135
31 183
32 65
33 5
35 12
36 78
37 73
38 109
39 401
40 169
41 999
42 352
43 958
44 470
45 332
46 78
47 43
48 67
49 70
50 150
51 279
52 195
53 471
54 308
55 977
56 451
57 674
58 130
59 293
60 312
61 175
62 96
63 177
64 122
65 389
66 264
67 708
68 384
69 720
70 407
71 421
72 158
73 359
74 158
75 170
76 98
77 589
78 332
79 791
80 364
81 761
82 331
83 548
84 341
85 377
86 135
87 115
89 91
90 34
91 809
92 366
93 791
94 475
95 738
96 349
97 357
98 218
99 246
100 165
101 259
102 92
103 182
104 205
105 709
106 437
107 684
108 542
109 638
110 361
111 356
112 223
113 172
114 145
115 285
116 166
117 482
118 367
119 580
120 392
121 533
122 400
123 354
124 215
125 351
126 209
127 248
128 229
129 364
130 241
131 507
132 269
133 540
134 317
135 481
136 243
137 267
138 199
139 175
140 187
141 333
142 245
143 482
144 356
145 609
146 389
147 487
148 239
149 310
150 168
151 226
152 188
153 180
154 155
155 182
156 141
157 488
158 384
159 514
160 348
161 406
162 250
163 318
164 222
165 220
166 175
167 161
168 184
169 214
170 149
171 361
172 272
173 364
174 314
175 276
176 179
177 194
178 168
179 153
180 60
181 173
182 129
183 180
184 141
185 275
186 215
187 231
188 184
189 227
190 123
191 67
192 82
193 159
194 189
195 215
196 175
197 284
198 147
199 384
200 208
201 261
202 139
203 163
204 76
205 98
206 109
207 70
208 62
209 169
210 86
211 239
212 160
213 246
214 204
215 217
216 160
217 122
218 150
219 53
220 60
221 58
222 62
223 74
224 35
225 291
226 215
227 281
228 211
229 166
230 69
231 181
232 134
233 153
234 92
235 121
236 90
237 113
238 134
239 121
240 52
241 56
242 80
243 105
244 181
245 189
246 114
247 154
248 128
249 58
250 33
251 115
252 144
253 706
254 423
255 284
256 115
257 47
258 46
259 24
260 99
261 35
262 42
263 48
264 23
265 137
266 93
267 80
268 101
269 158
270 158
271 724
272 359
273 161
274 54
275 76
276 61
277 22
279 47
280 60
281 96
282 49
283 112
284 78
285 75
286 131
287 78
288 191
289 244
290 180
293 12
294 6
295 45
296 5
297 89
298 48
299 200
300 234
301 71
302 73
303 53
304 28
305 19
306 8
308 24
309 29
310 32
311 50
313 36
314 53
316 32
317 37
318 43
323 28
325 3
326 58
327 22
328 34
329 9
335 4
336 50
337 36
339 254
340 116
341 154
343 131
344 81
345 43
346 20
348 20
350 1
353 156
354 342
355 258
356 91
357 195
358 85
360 92
364 18
371 100
372 375
373 244
374 104
375 73
388 32
390 104
391 45
402 27
403 10
409 9
412 30

$$$$

     RDKit          2D

 13 13  0  0  0  0  0  0  0  0999 V2000
   -1.3000    0.7500    0.0000 C   0  0  0  0  0  0  0  0  0  0  0  0
    0.0000    1.5000    0.0000 C   0  0  0  0  0  0  0  0  0  0  0  0
    0.0000   -1.5000    0.0000 C   0  0  0  0  0  0  0  0  0  0  0  0
   -1.3000   -0.7500    0.0000 C   0  0  0  0  0  0  0  0  0  0  0  0
    1.3000    0.7500    0.0000 C   0  0  0  0  0  0  0  0  0  0  0  0
    1.3000   -0.7500    0.0000 C   0  0  0  0  0  0  0  0  0  0  0  0
    2.5989    1.5002    0.0000 Cl  0  0  0  0  0  0  0  0  0  0  0  0
   -2.5989   -1.5002    0.0000 N   0  0  0  0  0  0  0  0  0  0  0  0
    2.5989   -1.5002    0.0000 N   0  0  0  0  0  0  0  0  0  0  0  0
   -3.8981   -0.7504    0.0000 O   0  0  0  0  0  0  0  0  0  0  0  0
   -2.5987   -3.0002    0.0000 O   0  0  0  0  0  0  0  0  0  0  0  0
    3.8981   -0.7504    0.0000 O   0  0  0  0  0  0  0  0  0  0  0  0
    2.5987   -3.0002    0.0000 O   0  0  0  0  0  0  0  0  0  0  0  0
  2  1  2  0
  4  1  1  0
  4  3  2  0
  5  2  1  0
  6  3  1  0
  6  5  2  0
  7  5  1  0
  8  4  1  0
  9  6  1  0
 10  8  1  0
 11  8  2  0
 12  9  1  0
 13  9  2  0
M  CHG  4   8   1   9   1  10  -1  12  -1
M  END
>  <NAME>  (165) 
1-CHLORO-2,4-DINITROBENZENE

>  <SYNONYMS>  (165) 
2,4-DINITROCHLOROBENZENE

>  <SPECTRUM TYPE>  (165) 
MS1

>  <INSTRUMENT TYPE>  (165) 
EI-B

>  <INSTRUMENT>  (165) 
HITACHI M-2500

>  <ION MODE>  (165) 
P

>  <INCHIKEY>  (165) 
VYZAHLCBVHPDDF-UHFFFAOYSA-N

>  <FORMULA>  (165) 
C6H3ClN2O4

>  <EXACT MASS>  (165) 
201.97813425599998

>  <MW>  (165) 
202

>  <ID>  (165) 
JP011900

>  <CONTRIBUTOR>  (165) 
University of Tokyo Team, {Faculty of Engineering, University of Tokyo

>  <COMMENT>  (165) 
SMILES=[O-1][N+1](=O)c(c1)cc([N+1]([O-1])=O)c(Cl)c1
cas=97-00-7
InChI=InChI=1S/C6H3ClN2O4/c7-5-2-1-4(8(10)11)3-6(5)9(12)13/h1-3H
computed SMILES=O=N(=O)C1=CC=C(Cl)C(=C1)N(=O)=O
accession=JP011900
date=2016.01.19 (Created 2008.10.21, modified 2011.05.06)
author=YAMAMOTO M, DEP. CHEMISTRY, FAC. SCIENCE, NARA WOMEN'S UNIV.
license=CC BY-NC-SA
exact mass=201.97813
ionization energy=70 eV
ion type=[M]+*
computed spectral entropy=3.1677121429279222
computed normalized entropy=0.7941150192506494
SPLASH=splash10-0w59-9530000000-7ea2caea63400fe591c1
submitter=submitter = University of Tokyo Team (Faculty of Engineering, University of Tokyo)
MoNA Rating=3.75

>  <NUM PEAKS>  (165) 
54

>  <MASS SPECTRAL PEAKS>  (165) 
30 76.23
37 4.42
38 4.07
46 4.6
49 2.46
50 9.58
51 2.45
52 1.13
53 2.15
60 1.41
61 4.85
62 6.84
63 27.9
64 3.03
72 2.24
73 10.06
74 44.54
75 63.46
76 9.96
79 5.2
84 12.91
85 3.32
86 6.06
87 2.26
88 1.67
89 2.04
91 1.21
97 1.64
98 6.15
99 1.27
100 2.03
107 11.61
108 2.27
109 32.19
110 50.77
111 14.49
112 16.15
113 2.06
126 15.37
127 2.84
128 5.27
140 1.11
141 1.3
156 8.11
158 2.54
172 10.48
173 1
174 3.48
186 3.84
188 1.19
202 99.99
203 7.79
204 34.19
205 2.44

>  <PREDICTED SPECTRUM>  (165) 
14 5
15 34
16 32
25 15
26 20
27 31
28 175
29 100
30 786
31 46
32 17
35 140
36 164
37 277
38 243
39 119
40 43
44 119
45 48
46 401
47 101
48 81
49 274
50 504
51 357
52 102
53 194
60 139
61 388
62 506
63 626
64 213
65 96
68 20
69 111
70 0
71 16
72 357
73 651
74 999
75 834
76 167
79 75
80 2
81 62
83 91
84 448
85 250
86 269
87 92
88 87
96 19
97 457
98 408
99 293
100 305
101 36
108 233
109 862
110 819
111 471
112 341
113 18
114 169
115 16
116 28
126 303
127 9
128 252
130 17
139 16
144 93
146 47
156 343
157 118
158 306
159 42
167 22
172 107
173 51
174 101
186 99
188 63
202 914
203 311
204 517
205 142

$$$$

     RDKit          2D

 10 10  0  0  0  0  0  0  0  0999 V2000
   -1.6344    3.0000    0.0000 C   0  0  0  0  0  0  0  0  0  0  0  0
   -2.5989    1.3300    0.0000 C   0  0  0  0  0  0  0  0  0  0  0  0
    1.4783    0.0904    0.0000 C   0  0  0  0  0  0  0  0  0  0  0  0
   -1.1217    0.0904    0.0000 C   0  0  0  0  0  0  0  0  0  0  0  0
    0.1783    2.3404    0.0000 C   0  0  0  0  0  0  0  0  0  0  0  0
    0.1783   -0.6596    0.0000 C   0  0  0  0  0  0  0  0  0  0  0  0
    1.4783    1.5904    0.0000 C   0  0  0  0  0  0  0  0  0  0  0  0
   -1.1217    1.5904    0.0000 C   0  0  0  0  0  0  0  0  0  0  0  0
    0.1783   -2.1596    0.0000 O   0  0  0  0  0  0  0  0  0  0  0  0
    2.7772    2.3406    0.0000 O   0  0  0  0  0  0  0  0  0  0  0  0
  6  3  1  0
  6  4  1  0
  7  3  1  0
  7  5  1  0
  8  1  1  0
  8  2  1  0
  8  4  1  0
  8  5  1  0
  9  6  2  0
 10  7  2  0
M  END
>  <NAME>  (166) 
5,5-DIMETHYL-1,3-CYCLOHEXANEDIONE

>  <SYNONYMS>  (166) 
DIMEDONE

>  <SPECTRUM TYPE>  (166) 
MS1

>  <INSTRUMENT TYPE>  (166) 
EI-B

>  <INSTRUMENT>  (166) 
HITACHI M-2500

>  <ION MODE>  (166) 
P

>  <INCHIKEY>  (166) 
BADXJIPKFRBFOT-UHFFFAOYSA-N

>  <FORMULA>  (166) 
C8H12O2

>  <EXACT MASS>  (166) 
140.083729624

>  <MW>  (166) 
140

>  <ID>  (166) 
JP011899

>  <CONTRIBUTOR>  (166) 
University of Tokyo Team, {Faculty of Engineering, University of Tokyo

>  <COMMENT>  (166) 
SMILES=O=C(C1)CC(C)(C)CC(=O)1
cas=126-81-8
InChI=InChI=1S/C8H12O2/c1-8(2)4-6(9)3-7(10)5-8/h3-5H2,1-2H3
computed SMILES=O=C1CC(=O)CC(C)(C)C1
accession=JP011899
date=2016.01.19 (Created 2008.10.21, modified 2011.05.06)
author=YAMAMOTO M, DEP. CHEMISTRY, FAC. SCIENCE, NARA WOMEN'S UNIV.
license=CC BY-NC-SA
exact mass=140.08373
ionization energy=70 eV
ion type=[M]+*
computed spectral entropy=2.8087160870408097
computed normalized entropy=0.7964914725633545
SPLASH=splash10-053u-9100000000-b54edab4c125238cb5cb
submitter=submitter = University of Tokyo Team (Faculty of Engineering, University of Tokyo)
MoNA Rating=3.75

>  <NUM PEAKS>  (166) 
34

>  <MASS SPECTRAL PEAKS>  (166) 
15 1.86
18 1.21
26 1.73
27 13.7
28 6.18
29 9.65
38 2.05
39 22.39
40 5
41 29.56
42 18.57
43 11.45
50 1.92
51 2.96
52 1.26
53 6.45
54 2.67
55 43.93
56 55
57 3.4
67 1.31
69 5.51
70 18.39
71 1.05
82 1.62
83 99.99
84 16.34
85 1.01
97 11.89
112 23.14
113 1.73
125 3.38
140 35.98
141 3.61

>  <PREDICTED SPECTRUM>  (166) 
26 19
27 113
28 118
29 80
37 33
38 51
39 372
40 202
41 670
42 515
43 469
44 16
50 66
51 93
52 94
53 227
54 83
55 242
56 840
57 293
58 126
65 46
66 41
67 187
68 101
69 390
70 235
71 32
77 36
79 122
80 29
81 63
82 134
83 999
84 335
85 81
95 14
96 0
97 193
98 100
99 21
111 52
112 163
125 192
126 3
140 614
141 199
142 17

$$$$

     RDKit          2D

 10 10  0  0  0  0  0  0  0  0999 V2000
    0.0008   -2.2500    0.0000 C   0  0  0  0  0  0  0  0  0  0  0  0
   -1.2992    0.0000    0.0000 C   0  0  0  0  0  0  0  0  0  0  0  0
   -1.2992   -3.0000    0.0000 C   0  0  0  0  0  0  0  0  0  0  0  0
   -2.5992   -0.7500    0.0000 C   0  0  0  0  0  0  0  0  0  0  0  0
    0.0008   -0.7500    0.0000 C   0  0  0  0  0  0  0  0  0  0  0  0
   -2.5992   -2.2500    0.0000 C   0  0  0  0  0  0  0  0  0  0  0  0
    1.2998    0.0002    0.0000 B   0  0  0  0  0  0  0  0  0  0  0  0
   -3.8981   -3.0002    0.0000 Br  0  0  0  0  0  0  0  0  0  0  0  0
    2.5989   -0.7496    0.0000 O   0  0  0  0  0  0  0  0  0  0  0  0
    1.2995    1.5002    0.0000 O   0  0  0  0  0  0  0  0  0  0  0  0
  3  1  2  0
  4  2  1  0
  5  1  1  0
  5  2  2  0
  6  3  1  0
  6  4  2  0
  7  5  1  0
  8  6  1  0
  9  7  1  0
 10  7  1  0
M  END
>  <NAME>  (167) 
4-BROMOPHENYLBORIC ACID

>  <SYNONYMS>  (167) 
4-BROMOBENZENEBORIC ACID

>  <SPECTRUM TYPE>  (167) 
MS1

>  <INSTRUMENT TYPE>  (167) 
EI-B

>  <INSTRUMENT>  (167) 
HITACHI M-2500

>  <ION MODE>  (167) 
P

>  <INCHIKEY>  (167) 
QBLFZIBJXUQVRF-UHFFFAOYSA-N

>  <FORMULA>  (167) 
C6H6BBrO2

>  <EXACT MASS>  (167) 
199.964421932

>  <MW>  (167) 
200

>  <ID>  (167) 
JP011898

>  <CONTRIBUTOR>  (167) 
University of Tokyo Team, {Faculty of Engineering, University of Tokyo

>  <COMMENT>  (167) 
SMILES=O[B](O)c(c1)ccc(Br)c1
cas=5467-74-3
InChI=InChI=1S/C6H6BBrO2/c8-6-3-1-5(2-4-6)7(9)10/h1-4,9-10H
computed SMILES=BrC1=CC=C(C=C1)B(O)O
accession=JP011898
date=2016.01.19 (Created 2008.10.21, modified 2011.05.06)
author=YAMAMOTO M, DEP. CHEMISTRY, FAC. SCIENCE, NARA WOMEN'S UNIV.
license=CC BY-NC-SA
exact mass=199.96442
ionization energy=70 eV
ion type=[M]+*
computed spectral entropy=2.559643219098685
computed normalized entropy=0.768153098431555
SPLASH=splash10-004i-9000000000-f0291e45295f40a36d3f
submitter=submitter = University of Tokyo Team (Faculty of Engineering, University of Tokyo)
MoNA Rating=3.75

>  <NUM PEAKS>  (167) 
28

>  <MASS SPECTRAL PEAKS>  (167) 
17 4.53
18 21.94
26 1.17
29 1.71
31 3.3
37 2.85
38 4.69
39 3.08
44 7.17
45 28.52
49 2.95
50 27.47
51 28.95
52 3.23
53 3.17
59 2.5
61 1.18
62 1.28
63 1.21
65 1.43
73 3.97
74 15.57
75 18.38
76 19.9
77 99.99
78 12.61
79 2.68
80 4.5

>  <PREDICTED SPECTRUM>  (167) 
14 43
15 52
16 40
17 21
18 36
25 45
26 126
27 86
28 78
29 84
31 122
32 21
36 126
37 197
38 332
39 275
40 156
41 91
42 171
43 370
44 333
45 894
46 129
47 191
48 175
49 233
50 876
51 741
52 308
53 198
55 11
57 261
58 9
59 119
60 112
61 152
62 103
63 471
66 55
69 77
71 3
73 495
74 605
75 863
76 709
77 754
78 418
79 293
81 33
82 8
84 113
85 111
86 200
90 5
92 185
93 330
94 17
95 23
102 81
103 229
104 214
105 118
110 22
119 100
120 128
121 609
122 249
123 125
137 30
138 59
139 20
140 0
154 232
155 666
156 624
157 692
158 381
159 65
182 183
183 349
184 391
185 333
186 190
187 73
198 159
199 999
200 901
201 775
202 941
203 284
204 199

$$$$

     RDKit          2D

 16 16  0  0  0  0  0  0  0  0999 V2000
    1.3000    0.7500    0.0000 C   0  0  0  0  0  0  0  0  0  0  0  0
   -1.3000    0.7500    0.0000 C   0  0  0  0  0  0  0  0  0  0  0  0
    0.0000   -1.5000    0.0000 C   0  0  0  0  0  0  0  0  0  0  0  0
    0.0000    3.0000    0.0000 C   0  0  0  0  0  0  0  0  0  0  0  0
    0.0000    1.5000    0.0000 C   0  0  0  0  0  0  0  0  0  0  0  0
    1.3000   -0.7500    0.0000 C   0  0  0  0  0  0  0  0  0  0  0  0
   -1.3000   -0.7500    0.0000 C   0  0  0  0  0  0  0  0  0  0  0  0
    2.5989   -1.5002    0.0000 C   0  0  0  0  0  0  0  0  0  0  0  0
   -2.5989   -1.5002    0.0000 C   0  0  0  0  0  0  0  0  0  0  0  0
   -1.2990    3.7500    0.0000 Br  0  0  0  0  0  0  0  0  0  0  0  0
    1.8487   -2.7991    0.0000 F   0  0  0  0  0  0  0  0  0  0  0  0
    3.8978   -2.2504    0.0000 F   0  0  0  0  0  0  0  0  0  0  0  0
    3.3491   -0.2013    0.0000 F   0  0  0  0  0  0  0  0  0  0  0  0
   -3.3491   -0.2013    0.0000 F   0  0  0  0  0  0  0  0  0  0  0  0
   -3.8978   -2.2504    0.0000 F   0  0  0  0  0  0  0  0  0  0  0  0
   -1.8487   -2.7991    0.0000 F   0  0  0  0  0  0  0  0  0  0  0  0
  5  1  2  0
  5  2  1  0
  5  4  1  0
  6  1  1  0
  6  3  2  0
  7  2  2  0
  7  3  1  0
  8  6  1  0
  9  7  1  0
 10  4  1  0
 11  8  1  0
 12  8  1  0
 13  8  1  0
 14  9  1  0
 15  9  1  0
 16  9  1  0
M  END
>  <NAME>  (168) 
3,5-BIS(TRIFLUOROMETHYL)BENZYL BROMIDE

>  <SYNONYMS>  (168) 


>  <SPECTRUM TYPE>  (168) 
MS1

>  <INSTRUMENT TYPE>  (168) 
EI-B

>  <INSTRUMENT>  (168) 
HITACHI M-2500

>  <ION MODE>  (168) 
P

>  <INCHIKEY>  (168) 
ATLQGZVLWOURFU-UHFFFAOYSA-N

>  <FORMULA>  (168) 
C9H5BrF6

>  <EXACT MASS>  (168) 
305.94788158

>  <MW>  (168) 
306

>  <ID>  (168) 
JP011897

>  <CONTRIBUTOR>  (168) 
University of Tokyo Team, {Faculty of Engineering, University of Tokyo

>  <COMMENT>  (168) 
SMILES=BrCc(c1)cc(cc1C(F)(F)F)C(F)(F)F
cas=32247-96-4
InChI=InChI=1S/C9H5BrF6/c10-4-5-1-6(8(11,12)13)3-7(2-5)9(14,15)16/h1-3H,4H2
computed SMILES=FC(F)(F)C1=CC(=CC(=C1)C(F)(F)F)CBr
accession=JP011897
date=2016.01.19 (Created 2008.10.21, modified 2011.05.06)
author=YAMAMOTO M, DEP. CHEMISTRY, FAC. SCIENCE, NARA WOMEN'S UNIV.
license=CC BY-NC-SA
exact mass=305.94788
ionization energy=70 eV
ion type=[M]+*
computed spectral entropy=2.247987303251278
computed normalized entropy=0.6273128011484097
SPLASH=splash10-004i-1290000000-4935afc999045d4ee9fb
submitter=submitter = University of Tokyo Team (Faculty of Engineering, University of Tokyo)
MoNA Rating=3.75

>  <NUM PEAKS>  (168) 
36

>  <MASS SPECTRAL PEAKS>  (168) 
29 1.17
31 2.26
32 1.52
39 1.11
62 1.75
63 2.56
69 2.93
75 1.52
87 1.72
88 1.04
89 1.45
99 1.04
104 1.93
107 1.59
108 1.16
127 1.74
132 1.18
137 1.45
138 3.78
139 1.43
156 1.41
157 1.8
158 5.34
173 1.5
176 1.12
177 8.86
187 4.69
207 2.58
208 3.58
226 1.17
227 99.99
228 9.18
287 5.51
289 4.5
306 1.56
308 1.46

>  <PREDICTED SPECTRUM>  (168) 
31 92
33 35
37 40
38 52
39 22
41 37
43 69
44 49
45 5
47 34
49 47
50 150
51 110
52 43
55 32
56 15
57 152
60 33
61 168
62 158
63 238
64 39
67 17
68 13
69 319
70 36
71 0
74 113
75 213
76 76
77 87
78 22
79 219
80 181
81 221
82 54
83 46
84 68
85 98
86 96
87 136
88 105
89 29
91 36
92 37
93 228
94 165
95 115
96 55
98 47
99 151
100 6
101 60
105 4
106 52
107 210
108 182
109 117
110 94
111 42
112 87
113 85
119 70
121 53
122 88
127 140
128 17
129 56
131 24
132 73
133 31
134 2
136 15
137 249
138 227
139 85
140 57
141 29
143 101
148 42
149 115
150 118
151 3
152 19
156 25
157 201
158 212
159 62
160 27
161 88
162 37
163 60
164 8
168 12
172 10
175 71
177 281
178 132
179 120
180 151
181 88
186 78
187 152
188 51
192 4
194 3
201 23
205 62
206 78
207 422
208 329
209 119
210 53
224 12
225 146
226 220
227 999
228 443
229 156
236 15
237 38
257 12
286 40
287 294
288 48
289 82
306 275
307 52
308 235
309 87

$$$$

     RDKit          2D

 10 10  0  0  0  0  0  0  0  0999 V2000
    0.9634    3.5489    0.0000 C   0  0  0  0  0  0  0  0  0  0  0  0
    2.2624    2.7989    0.0000 C   0  0  0  0  0  0  0  0  0  0  0  0
   -0.3312    2.8067    0.0000 C   0  0  0  0  0  0  0  0  0  0  0  0
    0.9674    0.5559    0.0000 C   0  0  0  0  0  0  0  0  0  0  0  0
    3.5672    0.5589    0.0000 C   0  0  0  0  0  0  0  0  0  0  0  0
   -1.6308    0.5561    0.0000 C   0  0  0  0  0  0  0  0  0  0  0  0
    2.2669    1.3067    0.0000 C   0  0  0  0  0  0  0  0  0  0  0  0
   -0.3316    1.3059    0.0000 C   0  0  0  0  0  0  0  0  0  0  0  0
    4.8650    1.3111    0.0000 Br  0  0  0  0  0  0  0  0  0  0  0  0
   -2.9300   -0.1937    0.0000 N   0  0  0  0  0  0  0  0  0  0  0  0
  2  1  2  0
  3  1  1  0
  7  2  1  0
  7  4  2  0
  7  5  1  0
  8  3  2  0
  8  4  1  0
  8  6  1  0
  9  5  1  0
 10  6  3  0
M  END
>  <NAME>  (169) 
3-CYANOBENZYL BROMIDE

>  <SYNONYMS>  (169) 
ALPHA-BROMO-M-TOLUNITRILE

>  <SPECTRUM TYPE>  (169) 
MS1

>  <INSTRUMENT TYPE>  (169) 
EI-B

>  <INSTRUMENT>  (169) 
HITACHI M-2500

>  <ION MODE>  (169) 
P

>  <INCHIKEY>  (169) 
CVKOOKPNCVYHNY-UHFFFAOYSA-N

>  <FORMULA>  (169) 
C8H6BrN

>  <EXACT MASS>  (169) 
194.968361292

>  <MW>  (169) 
195

>  <ID>  (169) 
JP011896

>  <CONTRIBUTOR>  (169) 
University of Tokyo Team, {Faculty of Engineering, University of Tokyo

>  <COMMENT>  (169) 
SMILES=N#Cc(c1)cc(CBr)cc1
cas=28188-41-2
InChI=InChI=1S/C8H6BrN/c9-5-7-2-1-3-8(4-7)6-10/h1-4H,5H2
computed SMILES=N#CC1=CC=CC(=C1)CBr
accession=JP011896
date=2016.01.19 (Created 2008.10.21, modified 2011.05.06)
author=YAMAMOTO M, DEP. CHEMISTRY, FAC. SCIENCE, NARA WOMEN'S UNIV.
license=CC BY-NC-SA
exact mass=194.96836
ionization energy=70 eV
ion type=[M]+*
computed spectral entropy=2.091612570860679
computed normalized entropy=0.6581425874185654
SPLASH=splash10-014i-3900000000-8daf868bbab56440ed44
submitter=submitter = University of Tokyo Team (Faculty of Engineering, University of Tokyo)
MoNA Rating=3.75

>  <NUM PEAKS>  (169) 
24

>  <MASS SPECTRAL PEAKS>  (169) 
37 1.03
38 2.03
39 4.27
50 2.68
51 2.28
61 1.45
62 3.53
63 6.07
64 2.42
65 1.08
75 1.36
76 1.29
87 1.43
88 3.2
89 14.97
90 3.83
114 3.27
115 3.46
116 99.99
117 9.45
194 5.6
195 6.76
196 6.14
197 6.61

>  <PREDICTED SPECTRUM>  (169) 
14 4
25 13
26 85
27 64
28 28
30 61
33 1
35 0
36 48
37 179
38 285
39 306
40 120
41 17
43 19
44 92
46 3
49 150
50 321
51 313
52 223
53 63
55 14
57 77
58 46
60 45
61 310
62 334
63 397
64 316
65 213
66 98
67 9
69 100
70 66
74 67
75 143
76 137
79 149
80 76
81 151
82 18
86 99
87 149
88 241
89 388
90 282
91 15
93 5
99 36
102 0
112 23
113 3
114 369
115 250
116 999
117 425
194 44
195 425
196 181
197 395
198 117

$$$$

     RDKit          2D

 10 10  0  0  0  0  0  0  0  0999 V2000
    2.5987    3.0002    0.0000 C   0  0  0  0  0  0  0  0  0  0  0  0
   -1.3000    0.7500    0.0000 C   0  0  0  0  0  0  0  0  0  0  0  0
    0.0000    1.5000    0.0000 C   0  0  0  0  0  0  0  0  0  0  0  0
   -1.3000   -0.7500    0.0000 C   0  0  0  0  0  0  0  0  0  0  0  0
    1.3000   -0.7500    0.0000 C   0  0  0  0  0  0  0  0  0  0  0  0
    2.5989    1.5002    0.0000 C   0  0  0  0  0  0  0  0  0  0  0  0
    1.3000    0.7500    0.0000 C   0  0  0  0  0  0  0  0  0  0  0  0
    0.0000   -1.5000    0.0000 C   0  0  0  0  0  0  0  0  0  0  0  0
   -0.0000   -3.0000    0.0000 Br  0  0  0  0  0  0  0  0  0  0  0  0
    3.8981    0.7504    0.0000 O   0  0  0  0  0  0  0  0  0  0  0  0
  3  2  2  0
  4  2  1  0
  6  1  1  0
  7  3  1  0
  7  5  2  0
  7  6  1  0
  8  4  2  0
  8  5  1  0
  9  8  1  0
 10  6  2  0
M  END
>  <NAME>  (170) 
3'-BROMOACETOPHENONE

>  <SYNONYMS>  (170) 


>  <SPECTRUM TYPE>  (170) 
MS1

>  <INSTRUMENT TYPE>  (170) 
EI-B

>  <INSTRUMENT>  (170) 
HITACHI M-2500

>  <ION MODE>  (170) 
P

>  <INCHIKEY>  (170) 
JYAQYXOVOHJRCS-UHFFFAOYSA-N

>  <FORMULA>  (170) 
C8H7BrO

>  <EXACT MASS>  (170) 
197.968026944

>  <MW>  (170) 
198

>  <ID>  (170) 
JP011895

>  <CONTRIBUTOR>  (170) 
University of Tokyo Team, {Faculty of Engineering, University of Tokyo

>  <COMMENT>  (170) 
SMILES=CC(=O)c(c1)cc(Br)cc1
cas=2142-63-4
InChI=InChI=1S/C8H7BrO/c1-6(10)7-3-2-4-8(9)5-7/h2-5H,1H3
computed SMILES=O=C(C=1C=CC=C(Br)C1)C
accession=JP011895
date=2016.01.19 (Created 2008.10.21, modified 2011.05.06)
author=YAMAMOTO M, DEP. CHEMISTRY, FAC. SCIENCE, NARA WOMEN'S UNIV.
license=CC BY-NC-SA
exact mass=197.96803
ionization energy=70 eV
ion type=[M]+*
computed spectral entropy=2.833729739280224
computed normalized entropy=0.7790137786023943
SPLASH=splash10-0kd0-4910000000-c1de8801257c1a77d628
submitter=submitter = University of Tokyo Team (Faculty of Engineering, University of Tokyo)
MoNA Rating=3.75

>  <NUM PEAKS>  (170) 
38

>  <MASS SPECTRAL PEAKS>  (170) 
15 3.37
28 1.03
37 2.31
38 4.53
39 2.85
42 2.1
43 29.87
49 2.45
50 28.76
51 7.71
61 1.99
62 3.33
63 4.49
65 1.12
73 3.34
74 17.31
75 29.04
76 33.7
77 7.76
89 3.81
90 2.77
91 2.47
104 3.99
105 1.25
129 1.14
131 1.14
155 48.86
156 4.33
157 48.07
158 3.89
183 99.99
184 7.88
185 97.59
186 7.75
198 42.82
199 3.66
200 41.4
201 3.55

>  <PREDICTED SPECTRUM>  (170) 
14 60
15 226
16 35
18 0
25 11
26 47
27 104
28 71
29 104
31 63
33 26
36 47
37 217
38 298
39 319
40 161
41 122
42 226
43 820
44 208
45 172
46 12
48 30
49 172
50 749
51 551
52 195
53 233
54 23
57 102
58 68
59 130
61 209
62 190
63 356
64 162
65 60
66 6
69 37
73 264
74 614
75 878
76 764
77 451
78 175
79 102
80 1
81 68
85 131
86 153
87 28
88 50
89 364
90 205
91 170
92 46
93 35
101 31
102 174
103 115
104 368
105 115
106 32
118 40
119 399
120 161
127 19
129 97
130 35
131 154
154 87
155 781
156 194
157 670
158 121
159 3
167 45
183 998
184 377
185 999
186 331
187 31
197 5
198 645
199 245
200 668
201 189

$$$$

     RDKit          2D

 18 19  0  0  0  0  0  0  0  0999 V2000
    2.5987    3.0002    0.0000 C   0  0  0  0  0  0  0  0  0  0  0  0
    3.8879   -5.2522    0.0000 C   0  0  0  0  0  0  0  0  0  0  0  0
    2.5908   -6.0103    0.0000 C   0  0  0  0  0  0  0  0  0  0  0  0
    3.9018   -3.7523    0.0000 C   0  0  0  0  0  0  0  0  0  0  0  0
    1.2878   -5.2482    0.0000 C   0  0  0  0  0  0  0  0  0  0  0  0
   -1.3000    0.7500    0.0000 C   0  0  0  0  0  0  0  0  0  0  0  0
    0.0000    1.5000    0.0000 C   0  0  0  0  0  0  0  0  0  0  0  0
    0.0000   -1.5000    0.0000 C   0  0  0  0  0  0  0  0  0  0  0  0
   -1.3000   -0.7500    0.0000 C   0  0  0  0  0  0  0  0  0  0  0  0
    2.5987   -3.0002    0.0000 C   0  0  0  0  0  0  0  0  0  0  0  0
    1.3000   -0.7500    0.0000 C   0  0  0  0  0  0  0  0  0  0  0  0
    1.3017   -3.7482    0.0000 C   0  0  0  0  0  0  0  0  0  0  0  0
    1.3000    0.7500    0.0000 C   0  0  0  0  0  0  0  0  0  0  0  0
    2.5989   -1.5002    0.0000 C   0  0  0  0  0  0  0  0  0  0  0  0
   -2.5989   -1.5002    0.0000 Cl  0  0  0  0  0  0  0  0  0  0  0  0
    0.0063   -2.9919    0.0000 Cl  0  0  0  0  0  0  0  0  0  0  0  0
    2.5989    1.5002    0.0000 N   0  0  0  0  0  0  0  0  0  0  0  0
    3.8981   -0.7504    0.0000 O   0  0  0  0  0  0  0  0  0  0  0  0
  3  2  2  0
  4  2  1  0
  5  3  1  0
  7  6  2  0
  9  6  1  0
  9  8  2  0
 10  4  2  0
 11  8  1  0
 12  5  2  0
 12 10  1  0
 13  7  1  0
 13 11  2  0
 14 10  1  0
 14 11  1  0
 15  9  1  0
 16 12  1  0
 17  1  1  0
 17 13  1  0
 18 14  2  0
M  END
>  <NAME>  (171) 
2-METHYLAMINO-2',5-DICHLOROBENZOPHENONE

>  <SYNONYMS>  (171) 


>  <SPECTRUM TYPE>  (171) 
MS1

>  <INSTRUMENT TYPE>  (171) 
EI-B

>  <INSTRUMENT>  (171) 
HITACHI M-2500

>  <ION MODE>  (171) 
P

>  <INCHIKEY>  (171) 
DQYHYPVCQHTLRO-UHFFFAOYSA-N

>  <FORMULA>  (171) 
C14H11Cl2NO

>  <EXACT MASS>  (171) 
279.021769332

>  <MW>  (171) 
279

>  <ID>  (171) 
JP011894

>  <CONTRIBUTOR>  (171) 
University of Tokyo Team, {Faculty of Engineering, University of Tokyo

>  <COMMENT>  (171) 
SMILES=CNc(c2)c(cc(Cl)c2)C(=O)c(c1)c(Cl)ccc1
InChI=InChI=1S/C14H11Cl2NO/c1-17-13-7-6-9(15)8-11(13)14(18)10-4-2-3-5-12(10)16/h2-8,17H,1H3
computed SMILES=O=C(C=1C=CC=CC1Cl)C2=CC(Cl)=CC=C2NC
accession=JP011894
date=2016.01.19 (Created 2008.10.21, modified 2011.05.06)
author=YAMAMOTO M, DEP. CHEMISTRY, FAC. SCIENCE, NARA WOMEN'S UNIV.
license=CC BY-NC-SA
exact mass=279.02177
ionization energy=70 eV
ion type=[M]+*
computed spectral entropy=3.811440315521997
computed normalized entropy=0.8276437485673961
SPLASH=splash10-0059-1390000000-af0f7aeab34615842d92
submitter=submitter = University of Tokyo Team (Faculty of Engineering, University of Tokyo)
MoNA Rating=3.75

>  <NUM PEAKS>  (171) 
100

>  <MASS SPECTRAL PEAKS>  (171) 
28 1.66
30 2.18
39 1.43
50 4.55
51 4.22
52 1.39
62 1.92
63 4.59
73 1.54
74 4.29
75 16.74
76 5.2
77 10.39
78 1.96
85 1.67
87 1.38
89 2.13
90 2.64
91 1.33
98 1.73
99 1.66
102 1.42
104 3.14
105 3.91
110 1.25
111 23.86
112 6.05
113 9.17
114 2.24
122 4.59
123 2.01
124 1.06
125 9.61
126 1.86
127 3.07
132 1
133 5.44
138 4.47
139 17.35
140 8.02
141 5.82
142 1.79
150 4.31
151 3.55
152 5.22
153 1.52
164 2.76
165 1.84
166 11.89
167 2.26
168 17.61
169 1.87
170 4.54
179 1.42
180 4.35
181 2.91
186 1.4
190 1.1
191 1.42
199 2.99
200 2.36
201 4.45
202 1.3
203 1.22
208 6.64
209 8.61
210 1.28
214 6.81
215 3.27
216 2.99
217 1.15
226 3.38
227 14.26
228 5.04
229 39.51
230 6.72
231 12.06
232 1.68
235 2.1
237 1.4
242 2.63
243 7.3
244 66.88
245 12.45
246 20.89
247 3.37
250 1.07
261 1.61
262 14.62
263 4.01
264 10.17
265 2.18
266 1.34
278 12.06
279 99.99
280 23.34
281 67.46
282 11.75
283 11.26
284 1.66

>  <PREDICTED SPECTRUM>  (171) 
33 20
34 4
35 44
36 95
37 9
38 57
39 122
40 61
41 111
42 105
43 49
44 128
45 18
49 104
50 308
51 395
52 186
53 142
55 102
56 32
57 76
61 76
62 177
63 321
64 127
65 139
67 44
68 3
69 91
70 93
71 81
72 27
73 86
74 237
75 572
76 327
77 555
78 201
79 159
80 0
81 81
82 26
83 75
84 100
85 150
86 61
87 121
88 115
89 242
90 143
91 111
92 23
93 75
94 20
95 122
96 64
97 105
98 53
99 156
100 53
101 58
102 68
103 133
104 216
105 264
106 145
107 63
109 137
110 43
111 693
112 194
113 484
114 135
115 137
117 58
119 5
120 26
121 37
122 105
123 137
124 137
125 123
126 98
127 79
128 22
133 34
135 11
137 35
138 195
139 674
140 356
141 443
142 138
143 52
145 6
149 55
150 66
151 224
152 364
153 213
154 201
155 0
164 114
165 86
166 312
167 167
168 455
169 149
170 46
173 5
174 18
175 36
176 8
177 9
178 172
179 183
180 144
181 156
182 10
186 43
187 19
188 5
192 46
193 58
194 122
200 71
201 202
202 127
203 106
208 101
209 163
214 170
215 134
216 172
218 35
226 50
227 204
228 200
229 225
230 58
231 23
235 0
236 36
242 2
243 25
244 457
245 157
246 214
247 22
249 4
250 123
251 21
252 65
262 347
263 199
264 457
265 235
266 238
267 60
278 118
279 999
280 462
281 748
282 271
283 278
284 40

$$$$

     RDKit          2D

  8  7  0  0  0  0  0  0  0  0999 V2000
   -1.9486    4.1250    0.0000 C   0  0  0  0  0  0  0  0  0  0  0  0
   -0.6495    3.3750    0.0000 C   0  0  0  0  0  0  0  0  0  0  0  0
   -3.2476    3.3750    0.0000 C   0  0  0  0  0  0  0  0  0  0  0  0
    0.6495    4.1250    0.0000 C   0  0  0  0  0  0  0  0  0  0  0  0
   -4.5466    4.1250    0.0000 C   0  0  0  0  0  0  0  0  0  0  0  0
    1.9486    3.3750    0.0000 N   0  0  0  0  0  0  0  0  0  0  0  0
   -4.5466    5.6250    0.0000 O   0  0  0  0  0  0  0  0  0  0  0  0
   -5.8457    3.3750    0.0000 O   0  0  0  0  0  0  0  0  0  0  0  0
  2  1  1  0
  3  1  1  0
  4  2  1  0
  5  3  1  0
  6  4  1  0
  7  5  2  0
  8  5  1  0
M  END
>  <NAME>  (172) 
5-AMINOVALERIC ACID

>  <SYNONYMS>  (172) 


>  <SPECTRUM TYPE>  (172) 
MS1

>  <INSTRUMENT TYPE>  (172) 
EI-B

>  <INSTRUMENT>  (172) 
HITACHI M-2500

>  <ION MODE>  (172) 
P

>  <INCHIKEY>  (172) 
JJMDCOVWQOJGCB-UHFFFAOYSA-N

>  <FORMULA>  (172) 
C5H11NO2

>  <EXACT MASS>  (172) 
117.078978592

>  <MW>  (172) 
117

>  <ID>  (172) 
JP011893

>  <CONTRIBUTOR>  (172) 
University of Tokyo Team, {Faculty of Engineering, University of Tokyo

>  <COMMENT>  (172) 
SMILES=NCCCCC(O)=O
cas=660-88-8
InChI=InChI=1S/C5H11NO2/c6-4-2-1-3-5(7)8/h1-4,6H2,(H,7,8)
computed SMILES=O=C(O)CCCCN
accession=JP011893
date=2016.01.19 (Created 2008.10.21, modified 2011.05.06)
author=YAMAMOTO M, DEP. CHEMISTRY, FAC. SCIENCE, NARA WOMEN'S UNIV.
license=CC BY-NC-SA
exact mass=117.07898
ionization energy=70 eV
ion type=[M]+*
computed spectral entropy=3.2247069657346517
computed normalized entropy=0.8422588150177089
SPLASH=splash10-0536-9000000000-5adf6445ea3955b657bd
submitter=submitter = University of Tokyo Team (Faculty of Engineering, University of Tokyo)
MoNA Rating=3.75

>  <NUM PEAKS>  (172) 
46

>  <MASS SPECTRAL PEAKS>  (172) 
14 1.55
15 7.13
17 2.06
18 15.27
26 6.54
27 34.1
28 54.66
29 16.73
30 99.99
31 19.12
37 1.91
38 4.37
39 29.23
40 6.14
41 35.66
42 43.66
43 37.88
44 34.57
45 52.37
46 1.48
50 1.72
51 2.24
52 1.8
53 4.08
54 6.42
55 38.86
56 51.74
57 4.81
58 3.3
59 1.19
60 15.11
68 2.37
69 1.37
70 9.49
71 4.6
72 6.89
73 3.02
82 1.65
89 2.28
98 14
99 31.23
100 8.87
101 2.04
116 1.37
117 35.67
118 10.82

>  <PREDICTED SPECTRUM>  (172) 
16 9
17 35
18 34
25 0
26 25
27 93
28 124
29 112
30 610
31 155
33 53
38 0
39 167
40 108
41 431
42 447
43 504
44 464
45 487
46 120
49 18
51 104
52 105
53 105
54 177
55 479
56 570
57 260
58 999
59 552
60 421
63 14
65 12
67 49
68 67
69 197
70 188
71 274
72 310
73 303
74 156
75 47
78 15
82 77
83 84
87 154
88 81
97 124
98 380
99 415
100 313
101 231
102 121
103 6
117 342
118 119

$$$$

     RDKit          2D

  7  6  0  0  0  0  0  0  0  0999 V2000
   -0.9743    3.1875    0.0000 C   0  0  0  0  0  0  0  0  0  0  0  0
   -2.2733    3.9375    0.0000 C   0  0  0  0  0  0  0  0  0  0  0  0
    0.3248    3.9375    0.0000 C   0  0  0  0  0  0  0  0  0  0  0  0
   -3.5724    3.1875    0.0000 C   0  0  0  0  0  0  0  0  0  0  0  0
    1.6238    3.1875    0.0000 N   0  0  0  0  0  0  0  0  0  0  0  0
   -3.5724    1.6875    0.0000 O   0  0  0  0  0  0  0  0  0  0  0  0
   -4.8714    3.9375    0.0000 O   0  0  0  0  0  0  0  0  0  0  0  0
  2  1  1  0
  3  1  1  0
  4  2  1  0
  5  3  1  0
  6  4  2  0
  7  4  1  0
M  END
>  <NAME>  (173) 
4-AMINOBUTYRIC ACID

>  <SYNONYMS>  (173) 
GAMMA-AMINOBUTYRIC ACID

>  <SPECTRUM TYPE>  (173) 
MS1

>  <INSTRUMENT TYPE>  (173) 
EI-B

>  <INSTRUMENT>  (173) 
HITACHI M-2500

>  <ION MODE>  (173) 
P

>  <INCHIKEY>  (173) 
BTCSSZJGUNDROE-UHFFFAOYSA-N

>  <FORMULA>  (173) 
C4H9NO2

>  <EXACT MASS>  (173) 
103.063328528

>  <MW>  (173) 
103

>  <ID>  (173) 
JP011892

>  <CONTRIBUTOR>  (173) 
University of Tokyo Team, {Faculty of Engineering, University of Tokyo

>  <COMMENT>  (173) 
SMILES=NCCCC(O)=O
cas=56-12-2
InChI=InChI=1S/C4H9NO2/c5-3-1-2-4(6)7/h1-3,5H2,(H,6,7)
computed SMILES=O=C(O)CCCN
accession=JP011892
date=2016.01.19 (Created 2008.10.21, modified 2011.05.06)
author=YAMAMOTO M, DEP. CHEMISTRY, FAC. SCIENCE, NARA WOMEN'S UNIV.
license=CC BY-NC-SA
exact mass=103.06333
ionization energy=70 eV
ion type=[M]+*
computed spectral entropy=2.155016278633393
computed normalized entropy=0.6694934492297888
SPLASH=splash10-001i-9000000000-21ea76dfb0da62031f1d
submitter=submitter = University of Tokyo Team (Faculty of Engineering, University of Tokyo)
MoNA Rating=3.75

>  <NUM PEAKS>  (173) 
25

>  <MASS SPECTRAL PEAKS>  (173) 
15 1.11
17 1.25
18 4.62
26 2.3
27 6.17
28 17.5
29 3.86
30 99.99
31 2.28
39 3.9
40 1.09
41 6.87
42 6.13
43 12.86
44 7.65
45 5.72
54 1.28
55 1.57
56 7.51
57 1.21
69 1.73
84 2.28
85 1.3
86 1.5
103 3.91

>  <PREDICTED SPECTRUM>  (173) 
14 32
15 28
16 40
17 78
18 109
25 13
26 52
27 153
28 189
29 143
30 744
31 203
32 61
33 61
36 28
37 45
38 93
39 256
40 204
41 463
42 574
43 614
44 999
45 400
46 104
50 99
51 151
52 163
53 133
54 139
55 358
56 475
57 527
58 359
59 189
60 406
63 14
65 34
67 1
68 170
69 165
70 127
71 96
74 128
75 75
83 308
84 380
85 484
86 309
87 134
102 68
103 322
104 126

$$$$

     RDKit          2D

 10  9  0  0  1  0  0  0  0  0999 V2000
    2.2733    2.0625    0.0000 C   0  0  0  0  0  0  0  0  0  0  0  0
   -2.9228    2.0625    0.0000 C   0  0  0  0  0  0  0  0  0  0  0  0
    0.9743    2.8125    0.0000 C   0  0  0  0  0  0  0  0  0  0  0  0
   -1.6238    2.8125    0.0000 C   0  0  0  0  0  0  0  0  0  0  0  0
   -1.6238    4.3125    0.0000 C   0  0  0  0  0  0  0  0  0  0  0  0
   -0.3248    2.0625    0.0000 N   0  0  0  0  0  0  0  0  0  0  0  0
    0.9743    4.3125    0.0000 O   0  0  0  0  0  0  0  0  0  0  0  0
   -0.3248    5.0625    0.0000 O   0  0  0  0  0  0  0  0  0  0  0  0
   -2.9228    5.0625    0.0000 O   0  0  0  0  0  0  0  0  0  0  0  0
   -4.2219    2.8125    0.0000 S   0  0  0  0  0  0  0  0  0  0  0  0
  3  1  1  0
  4  2  1  1
  5  4  1  0
  6  3  2  3
  4  6  1  0
  7  3  1  0
  8  5  2  0
  9  5  1  0
 10  2  1  0
M  END
>  <NAME>  (174) 
N-ACETYL-L-CYSTEINE

>  <SYNONYMS>  (174) 


>  <SPECTRUM TYPE>  (174) 
MS1

>  <INSTRUMENT TYPE>  (174) 
EI-B

>  <INSTRUMENT>  (174) 
HITACHI M-2500

>  <ION MODE>  (174) 
P

>  <INCHIKEY>  (174) 
PWKSKIMOESPYIA-BYPYZUCNSA-N

>  <FORMULA>  (174) 
C5H9NO3S

>  <EXACT MASS>  (174) 
163.030314148

>  <MW>  (174) 
163

>  <ID>  (174) 
JP011891

>  <CONTRIBUTOR>  (174) 
University of Tokyo Team, {Faculty of Engineering, University of Tokyo

>  <COMMENT>  (174) 
SMILES=CC(=O)NC(CS)C(O)=O
cas=616-91-1
InChI=InChI=1S/C5H9NO3S/c1-3(7)6-4(2-10)5(8)9/h4,10H,2H2,1H3,(H,6,7)(H,8,9)/t4-/m0/s1
computed SMILES=O=C(O)C(N=C(O)C)CS
accession=JP011891
date=2016.01.19 (Created 2008.10.21, modified 2011.05.06)
author=YAMAMOTO M, DEP. CHEMISTRY, FAC. SCIENCE, NARA WOMEN'S UNIV.
license=CC BY-NC-SA
exact mass=163.03031
ionization energy=70 eV
ion type=[M]+*
computed spectral entropy=3.0177344492120057
computed normalized entropy=0.7754043655810712
SPLASH=splash10-01ox-9000000000-192b8907b32f1e180c72
submitter=submitter = University of Tokyo Team (Faculty of Engineering, University of Tokyo)
MoNA Rating=3.75

>  <NUM PEAKS>  (174) 
49

>  <MASS SPECTRAL PEAKS>  (174) 
14 1.6
15 10.56
17 1.14
18 4.01
26 1.39
27 4.61
28 18.27
29 2.36
30 5.02
32 1.01
33 1.32
34 1.18
40 2.23
41 5.8
42 13.8
43 99.99
44 12.27
45 12.3
46 5.74
47 9.76
48 2.8
55 1.65
56 1.05
57 6.71
58 5.59
59 13.79
60 79.69
61 2.41
70 3.13
71 2.24
74 32.63
75 7.78
76 31
77 1.48
78 1.37
84 2.06
85 5.52
86 8.17
87 3.95
88 4.16
99 10.48
100 4.47
117 2.75
118 4.41
120 2.07
121 1.92
130 1.3
151 1.44
163 4.05

>  <PREDICTED SPECTRUM>  (174) 
14 42
15 52
16 16
17 43
18 59
25 34
26 118
27 267
28 133
29 100
30 150
31 115
32 112
33 142
34 150
35 156
36 109
37 68
38 147
39 343
40 246
41 707
42 780
43 871
44 446
45 999
46 546
47 617
48 255
49 189
50 129
51 156
52 220
53 221
54 341
55 373
56 258
57 283
58 456
59 571
60 323
61 312
62 150
63 136
64 11
67 35
68 58
69 199
70 289
71 442
72 504
73 438
74 740
75 401
76 228
77 124
78 100
79 59
80 75
81 39
82 197
83 178
84 347
85 305
86 323
87 550
88 264
89 407
90 195
91 176
92 44
93 2
96 50
97 102
98 144
99 279
100 394
101 285
102 202
103 217
104 105
105 67
106 69
111 48
112 135
113 5
114 6
115 280
116 553
117 578
118 467
119 154
120 61
129 234
130 291
131 170
132 109
133 70
144 11
145 319
146 148
147 92
148 102
162 63
163 400
164 101
165 8

$$$$

     RDKit          2D

 15 16  0  0  0  0  0  0  0  0999 V2000
   -2.6580   -1.6509    0.0000 C   0  0  0  0  0  0  0  0  0  0  0  0
    0.5235   -0.9751    0.0000 C   0  0  0  0  0  0  0  0  0  0  0  0
    3.4741    3.7742    0.0000 C   0  0  0  0  0  0  0  0  0  0  0  0
    3.4746    2.2734    0.0000 C   0  0  0  0  0  0  0  0  0  0  0  0
    2.1746    4.5250    0.0000 C   0  0  0  0  0  0  0  0  0  0  0  0
    2.1756    1.5234    0.0000 C   0  0  0  0  0  0  0  0  0  0  0  0
    0.8756    3.7750    0.0000 C   0  0  0  0  0  0  0  0  0  0  0  0
   -2.0485   -0.2803    0.0000 C   0  0  0  0  0  0  0  0  0  0  0  0
    0.8760    2.2742    0.0000 C   0  0  0  0  0  0  0  0  0  0  0  0
   -2.7985    1.0187    0.0000 C   0  0  0  0  0  0  0  0  0  0  0  0
   -1.7988    2.1271    0.0000 C   0  0  0  0  0  0  0  0  0  0  0  0
   -4.2902    1.1762    0.0000 N   0  0  0  0  0  0  0  0  0  0  0  0
   -0.5888    0.0313    0.0000 N   0  0  0  0  0  0  0  0  0  0  0  0
   -0.4230    1.5242    0.0000 N   0  0  0  0  0  0  0  0  0  0  0  0
   -2.1143    3.5935    0.0000 O   0  0  0  0  0  0  0  0  0  0  0  0
  4  3  2  0
  5  3  1  0
  6  4  1  0
  7  5  2  0
  8  1  1  0
  9  6  2  0
  9  7  1  0
 10  8  2  0
 11 10  1  0
 12 10  1  0
 13  2  1  0
 13  8  1  0
 14  9  1  0
 14 11  1  0
 14 13  1  0
 15 11  2  0
M  END
>  <NAME>  (175) 
4-AMINOANTIPYRINE

>  <SYNONYMS>  (175) 
4-AMINO-1,5-DIMETHYL-2-PHENYL-3H-PYRAZOL-3-ONE

>  <SPECTRUM TYPE>  (175) 
MS1

>  <INSTRUMENT TYPE>  (175) 
EI-B

>  <INSTRUMENT>  (175) 
HITACHI M-2500

>  <ION MODE>  (175) 
P

>  <INCHIKEY>  (175) 
RLFWWDJHLFCNIJ-UHFFFAOYSA-N

>  <FORMULA>  (175) 
C11H13N3O

>  <EXACT MASS>  (175) 
203.10586203600002

>  <MW>  (175) 
203

>  <ID>  (175) 
JP011890

>  <CONTRIBUTOR>  (175) 
University of Tokyo Team, {Faculty of Engineering, University of Tokyo

>  <COMMENT>  (175) 
SMILES=CC(=C(N)1)N(C)N(c(c2)cccc2)C(=O)1
cas=83-07-8
InChI=InChI=1S/C11H13N3O/c1-8-10(12)11(15)14(13(8)2)9-6-4-3-5-7-9/h3-7H,12H2,1-2H3
computed SMILES=O=C1C(N)=C(N(N1C=2C=CC=CC2)C)C
accession=JP011890
date=2016.01.19 (Created 2008.10.21, modified 2011.05.06)
author=YAMAMOTO M, DEP. CHEMISTRY, FAC. SCIENCE, NARA WOMEN'S UNIV.
license=CC BY-NC-SA
exact mass=203.10586
ionization energy=70 eV
ion type=[M]+*
computed spectral entropy=2.936607056156965
computed normalized entropy=0.7670102138188927
SPLASH=splash10-0pb9-9010000000-173f15d248e0d2eca946
submitter=submitter = University of Tokyo Team (Faculty of Engineering, University of Tokyo)
MoNA Rating=3.75

>  <NUM PEAKS>  (175) 
46

>  <MASS SPECTRAL PEAKS>  (175) 
15 7.12
18 3.18
27 3.71
28 10.44
29 2.97
30 1.8
38 2.66
39 5.47
40 1.83
41 3.46
42 43.13
43 2.57
50 3.21
51 11.53
52 4.23
53 2.21
54 8.82
55 5.04
56 99.99
57 56.97
58 1.89
62 1.04
63 4.48
64 7.46
65 5.48
66 1.47
67 1.19
69 1.57
76 1.42
77 22.63
78 3.77
82 1.02
83 20.63
84 55.41
85 2.66
91 9.77
92 3.67
93 6.76
109 1.28
118 1.01
119 7.89
120 3.53
147 2.01
202 7.06
203 77.37
204 10.42

>  <PREDICTED SPECTRUM>  (175) 
15 1
16 0
25 5
26 18
27 43
28 56
29 32
30 64
33 24
34 22
36 11
37 52
38 110
39 312
40 208
41 256
42 446
43 274
44 179
45 130
46 22
48 21
49 20
50 164
51 378
52 225
53 174
54 245
55 257
56 761
57 313
58 120
60 21
61 30
62 94
63 188
64 194
65 303
66 207
67 283
68 215
69 207
70 202
71 136
72 26
73 67
74 99
75 87
76 75
77 616
78 225
79 103
80 126
81 138
82 205
83 294
84 239
85 113
86 8
87 18
88 31
89 114
90 66
91 229
92 257
93 360
94 218
95 133
96 118
97 114
98 135
99 117
100 36
101 33
102 53
103 74
104 210
105 278
106 133
107 46
108 72
109 106
110 84
111 590
112 220
113 98
115 129
116 59
117 174
118 272
119 216
120 97
121 117
122 31
123 43
125 24
126 19
128 40
129 72
130 96
131 110
132 93
133 68
144 68
145 64
146 65
147 56
157 12
158 91
159 64
160 100
161 76
162 19
171 23
172 70
173 23
174 157
175 148
176 86
177 35
185 16
186 107
187 63
188 178
189 57
200 6
201 30
202 245
203 999
204 392
205 86

$$$$

     RDKit          2D

  6  6  0  0  0  0  0  0  0  0999 V2000
   -1.1900    1.1700    0.0000 C   0  0  0  0  0  0  0  0  0  0  0  0
   -1.6500   -0.2500    0.0000 C   0  0  0  0  0  0  0  0  0  0  0  0
    0.7700   -0.2500    0.0000 C   0  0  0  0  0  0  0  0  0  0  0  0
    2.1960   -0.7153    0.0000 N   0  0  0  0  0  0  0  0  0  0  0  0
    0.3100    1.1800    0.0000 N   0  0  0  0  0  0  0  0  0  0  0  0
   -0.4400   -1.1300    0.0000 S   0  0  0  0  0  0  0  0  0  0  0  0
  2  1  1  0
  4  3  2  0
  5  1  1  0
  5  3  1  0
  6  2  1  0
  6  3  1  0
M  END
>  <NAME>  (176) 
2-AMINO-2-THIAZOLINE

>  <SYNONYMS>  (176) 


>  <SPECTRUM TYPE>  (176) 
MS1

>  <INSTRUMENT TYPE>  (176) 
EI-B

>  <INSTRUMENT>  (176) 
HITACHI M-2500

>  <ION MODE>  (176) 
P

>  <INCHIKEY>  (176) 
REGFWZVTTFGQOJ-UHFFFAOYSA-N

>  <FORMULA>  (176) 
C3H6N2S

>  <EXACT MASS>  (176) 
102.02516919199999

>  <MW>  (176) 
102

>  <ID>  (176) 
JP011889

>  <CONTRIBUTOR>  (176) 
University of Tokyo Team, {Faculty of Engineering, University of Tokyo

>  <COMMENT>  (176) 
cas=1779-81-3
SMILES=NC(=N1)SCC1
InChI=InChI=1S/C3H6N2S/c4-3-5-1-2-6-3/h1-2H2,(H2,4,5)
computed SMILES=N=C1SCCN1
accession=JP011889
date=2016.01.19 (Created 2008.10.21, modified 2011.05.06)
author=YAMAMOTO M, DEP. CHEMISTRY, FAC. SCIENCE, NARA WOMEN'S UNIV.
license=CC BY-NC-SA
exact mass=102.02517
ionization energy=70 eV
ion type=[M]+*
computed spectral entropy=2.5750796192398773
computed normalized entropy=0.7498803769206112
SPLASH=splash10-0zfr-9600000000-5f7e0ed9711ed988a644
submitter=submitter = University of Tokyo Team (Faculty of Engineering, University of Tokyo)
MoNA Rating=3.75

>  <NUM PEAKS>  (176) 
31

>  <MASS SPECTRAL PEAKS>  (176) 
15 1.15
18 1.97
26 1.81
27 5.36
28 12.58
29 1.34
30 1.04
32 1.81
33 1.06
40 1.87
41 2.11
42 5.6
43 18.85
45 17.08
46 4.21
47 2.78
55 11.75
56 38.16
57 1.83
58 6.5
59 26.78
60 49.79
61 3.15
62 2.1
74 4.06
75 1.05
100 1.32
101 44.68
102 99.99
103 8.76
104 4.73

>  <PREDICTED SPECTRUM>  (176) 
14 25
26 42
27 138
28 218
29 40
30 56
32 80
33 167
34 103
35 10
36 39
40 179
41 403
42 457
43 282
44 42
45 502
46 508
47 266
48 103
51 8
52 56
53 131
54 144
55 217
56 208
57 271
58 110
59 394
60 654
61 171
62 30
68 11
69 344
70 79
72 86
73 131
74 289
75 104
85 5
86 23
101 247
102 999
103 254
104 221

$$$$

     RDKit          2D

  9  9  0  0  0  0  0  0  0  0999 V2000
    4.7380   -0.1782    0.0000 C   0  0  0  0  0  0  0  0  0  0  0  0
   -1.1900    1.1700    0.0000 C   0  0  0  0  0  0  0  0  0  0  0  0
   -1.6500   -0.2500    0.0000 C   0  0  0  0  0  0  0  0  0  0  0  0
    3.3120    0.2870    0.0000 C   0  0  0  0  0  0  0  0  0  0  0  0
    0.7700   -0.2500    0.0000 C   0  0  0  0  0  0  0  0  0  0  0  0
    0.3100    1.1800    0.0000 N   0  0  0  0  0  0  0  0  0  0  0  0
    2.1960   -0.7153    0.0000 N   0  0  0  0  0  0  0  0  0  0  0  0
    3.0019    1.7547    0.0000 O   0  0  0  0  0  0  0  0  0  0  0  0
   -0.4400   -1.1300    0.0000 S   0  0  0  0  0  0  0  0  0  0  0  0
  3  2  2  0
  4  1  1  0
  6  2  1  0
  6  5  2  0
  7  4  2  3
  7  5  1  0
  8  4  1  0
  9  3  1  0
  9  5  1  0
M  END
>  <NAME>  (177) 
ACETAMIDOTHIAZOLE

>  <SYNONYMS>  (177) 


>  <SPECTRUM TYPE>  (177) 
MS1

>  <INSTRUMENT TYPE>  (177) 
EI-B

>  <INSTRUMENT>  (177) 
HITACHI M-2500

>  <ION MODE>  (177) 
P

>  <INCHIKEY>  (177) 
WXPLRSVMGRAIGW-UHFFFAOYSA-N

>  <FORMULA>  (177) 
C5H6N2OS

>  <EXACT MASS>  (177) 
142.020083812

>  <MW>  (177) 
142

>  <ID>  (177) 
JP011888

>  <CONTRIBUTOR>  (177) 
University of Tokyo Team, {Faculty of Engineering, University of Tokyo

>  <COMMENT>  (177) 
computed SMILES=OC(=NC1=NC=CS1)C
SMILES=CC(=O)Nc(n1)scc1
InChI=InChI=1S/C5H6N2OS/c1-4(8)7-5-6-2-3-9-5/h2-3H,1H3,(H,6,7,8)
accession=JP011888
date=2016.01.19 (Created 2008.10.21, modified 2011.05.06)
author=YAMAMOTO M, DEP. CHEMISTRY, FAC. SCIENCE, NARA WOMEN'S UNIV.
license=CC BY-NC-SA
exact mass=142.02008
ionization energy=70 eV
ion type=[M]+*
computed spectral entropy=2.1035366963559174
computed normalized entropy=0.6909250102058244
SPLASH=splash10-0udl-6900000000-bd41f53ff5bef1a17372
submitter=submitter = University of Tokyo Team (Faculty of Engineering, University of Tokyo)
MoNA Rating=3.75

>  <NUM PEAKS>  (177) 
21

>  <MASS SPECTRAL PEAKS>  (177) 
15 3.67
28 3.51
40 1.02
42 2.48
43 38.71
45 8.67
46 2.18
55 7.39
57 2.67
58 16.38
59 1.47
60 1
71 1.07
73 11.18
99 1.12
100 99.99
101 5.49
102 4.76
142 29.3
143 5.47
144 1.59

>  <PREDICTED SPECTRUM>  (177) 
14 14
15 43
27 14
28 4
29 4
32 38
33 55
34 27
38 65
39 225
40 94
41 231
42 207
43 488
44 123
45 712
46 296
47 161
51 18
52 31
53 148
54 156
55 277
56 93
57 331
58 450
59 315
60 27
66 43
67 161
68 141
69 281
70 264
71 331
72 325
73 50
74 28
77 7
79 25
80 27
81 16
82 145
83 323
84 272
85 117
95 1
96 136
97 416
98 123
99 532
100 305
101 115
109 346
110 24
111 70
112 19
113 9
125 50
127 475
128 4
129 103
141 38
142 999
143 261
144 244
145 1

$$$$

     RDKit          2D

 14 14  0  0  0  0  0  0  0  0999 V2000
   -1.3000   -0.7500    0.0000 C   0  0  0  0  0  0  0  0  0  0  0  0
    0.0000    1.5000    0.0000 C   0  0  0  0  0  0  0  0  0  0  0  0
    0.0000   -1.5000    0.0000 C   0  0  0  0  0  0  0  0  0  0  0  0
    1.3000    0.7500    0.0000 C   0  0  0  0  0  0  0  0  0  0  0  0
   -5.1970    1.5006    0.0000 C   0  0  0  0  0  0  0  0  0  0  0  0
   -1.3000    0.7500    0.0000 C   0  0  0  0  0  0  0  0  0  0  0  0
    1.3000   -0.7500    0.0000 C   0  0  0  0  0  0  0  0  0  0  0  0
   -6.4962    0.7508    0.0000 C   0  0  0  0  0  0  0  0  0  0  0  0
   -2.5989    1.5002    0.0000 C   0  0  0  0  0  0  0  0  0  0  0  0
    2.5989   -1.5002    0.0000 N   0  0  0  0  0  0  0  0  0  0  0  0
   -3.8981    0.7504    0.0000 N   0  0  0  0  0  0  0  0  0  0  0  0
   -6.4964   -0.7492    0.0000 O   0  0  0  0  0  0  0  0  0  0  0  0
   -7.7951    1.5010    0.0000 O   0  0  0  0  0  0  0  0  0  0  0  0
   -2.5987    3.0002    0.0000 O   0  0  0  0  0  0  0  0  0  0  0  0
  3  1  2  0
  4  2  1  0
  6  1  1  0
  6  2  2  0
  7  3  1  0
  7  4  2  0
  8  5  1  0
  9  6  1  0
 10  7  1  0
 11  5  1  0
 11  9  1  0
 12  8  2  0
 13  8  1  0
 14  9  2  0
M  END
>  <NAME>  (178) 
4-AMINOHIPPURIC ACID

>  <SYNONYMS>  (178) 


>  <SPECTRUM TYPE>  (178) 
MS1

>  <INSTRUMENT TYPE>  (178) 
EI-B

>  <INSTRUMENT>  (178) 
HITACHI M-2500

>  <ION MODE>  (178) 
P

>  <INCHIKEY>  (178) 
HSMNQINEKMPTIC-UHFFFAOYSA-N

>  <FORMULA>  (178) 
C9H10N2O3

>  <EXACT MASS>  (178) 
194.06914217999997

>  <MW>  (178) 
194

>  <ID>  (178) 
JP011887

>  <CONTRIBUTOR>  (178) 
University of Tokyo Team, {Faculty of Engineering, University of Tokyo

>  <COMMENT>  (178) 
SMILES=OC(=O)CNC(=O)c(c1)ccc(N)c1
cas=61-78-9
InChI=InChI=1S/C9H10N2O3/c10-7-3-1-6(2-4-7)9(14)11-5-8(12)13/h1-4H,5,10H2,(H,11,14)(H,12,13)
computed SMILES=O=C(O)CNC(=O)C1=CC=C(N)C=C1
accession=JP011887
date=2016.01.19 (Created 2008.10.21, modified 2011.05.06)
author=YAMAMOTO M, DEP. CHEMISTRY, FAC. SCIENCE, NARA WOMEN'S UNIV.
license=CC BY-NC-SA
exact mass=194.06914
ionization energy=70 eV
ion type=[M]+*
computed spectral entropy=2.1828566126829076
computed normalized entropy=0.6781425352971752
SPLASH=splash10-00di-3900000000-454a970609f4250f1022
submitter=submitter = University of Tokyo Team (Faculty of Engineering, University of Tokyo)
MoNA Rating=3.75

>  <NUM PEAKS>  (178) 
25

>  <MASS SPECTRAL PEAKS>  (178) 
18 1.65
28 2.17
39 3.98
41 1.38
44 1.08
45 1.34
52 1.39
63 2.62
64 2.5
65 15.83
66 2.37
91 2.96
92 22.44
93 2.4
119 2.95
120 99.99
121 8.61
149 5.92
150 15.38
151 1.89
160 2.79
161 1.93
176 1.02
194 24.58
195 2.66

>  <PREDICTED SPECTRUM>  (178) 
16 2
28 19
30 12
33 9
36 21
37 13
38 75
39 207
40 67
41 116
42 70
43 115
44 82
45 120
46 35
50 54
51 101
52 93
53 113
54 60
55 62
60 139
61 47
62 82
63 143
64 117
65 452
66 143
68 21
74 53
75 38
76 40
77 72
78 3
79 1
80 4
90 59
91 258
92 494
93 172
94 20
104 2
106 80
107 140
108 12
118 60
119 82
120 999
121 208
122 67
133 4
134 68
135 100
136 240
137 58
148 73
149 205
150 158
151 32
176 34
177 25
194 420
195 137
196 2

$$$$

     RDKit          2D

  7  7  0  0  0  0  0  0  0  0999 V2000
    1.3000    0.7500    0.0000 C   0  0  0  0  0  0  0  0  0  0  0  0
   -1.3000    0.7500    0.0000 C   0  0  0  0  0  0  0  0  0  0  0  0
    1.3000    2.2500    0.0000 C   0  0  0  0  0  0  0  0  0  0  0  0
   -1.3000    2.2500    0.0000 C   0  0  0  0  0  0  0  0  0  0  0  0
   -0.0000    0.0000    0.0000 C   0  0  0  0  0  0  0  0  0  0  0  0
   -0.0000   -1.5000    0.0000 N   0  0  0  0  0  0  0  0  0  0  0  0
    0.0000    3.0000    0.0000 N   0  0  0  0  0  0  0  0  0  0  0  0
  3  1  2  0
  4  2  2  0
  5  1  1  0
  5  2  1  0
  6  5  2  0
  7  3  1  0
  7  4  1  0
M  END
>  <NAME>  (179) 
4-AMINOPYRIDINE

>  <SYNONYMS>  (179) 


>  <SPECTRUM TYPE>  (179) 
MS1

>  <INSTRUMENT TYPE>  (179) 
EI-B

>  <INSTRUMENT>  (179) 
HITACHI M-2500

>  <ION MODE>  (179) 
P

>  <INCHIKEY>  (179) 
NUKYPUAOHBNCPY-UHFFFAOYSA-N

>  <FORMULA>  (179) 
C5H6N2

>  <EXACT MASS>  (179) 
94.053098192

>  <MW>  (179) 
94

>  <ID>  (179) 
JP011886

>  <CONTRIBUTOR>  (179) 
University of Tokyo Team, {Faculty of Engineering, University of Tokyo

>  <COMMENT>  (179) 
SMILES=Nc(c1)ccnc1
cas=504-24-5
InChI=InChI=1S/C5H6N2/c6-5-1-3-7-4-2-5/h1-4H,(H2,6,7)
computed SMILES=N=C1C=CNC=C1
accession=JP011886
date=2016.01.19 (Created 2008.10.21, modified 2011.05.06)
author=YAMAMOTO M, DEP. CHEMISTRY, FAC. SCIENCE, NARA WOMEN'S UNIV.
license=CC BY-NC-SA
exact mass=94.0531
ionization energy=70 eV
ion type=[M]+*
computed spectral entropy=2.2512117958909537
computed normalized entropy=0.7179767018718118
SPLASH=splash10-0006-9000000000-d76cf775a4e0c55c9a50
submitter=submitter = University of Tokyo Team (Faculty of Engineering, University of Tokyo)
MoNA Rating=3.75

>  <NUM PEAKS>  (179) 
23

>  <MASS SPECTRAL PEAKS>  (179) 
26 2.35
27 1.08
28 5.96
37 1.89
38 4.09
39 10.35
40 8.4
41 18.77
42 3.84
43 1.36
50 2.79
51 3.77
52 6.07
53 1.51
54 4.55
64 1
65 2.43
66 8.64
67 35.06
68 4.67
93 9.2
94 99.99
95 7.49

>  <PREDICTED SPECTRUM>  (179) 
25 1
26 12
27 86
28 55
37 42
38 122
39 212
40 229
41 280
42 100
43 148
49 19
50 242
51 265
52 249
53 150
54 104
55 24
61 1
62 45
63 200
64 161
65 189
66 345
67 599
68 306
69 68
73 44
74 113
75 21
76 60
77 106
78 87
90 85
91 133
92 392
93 373
94 999
95 326
96 73

$$$$

     RDKit          2D

 11 11  0  0  0  0  0  0  0  0999 V2000
   -1.3447   -0.7348    0.0000 C   0  0  0  0  0  0  0  0  0  0  0  0
   -0.0056    1.4938    0.0000 C   0  0  0  0  0  0  0  0  0  0  0  0
   -0.0401   -1.4954    0.0000 C   0  0  0  0  0  0  0  0  0  0  0  0
    1.2682    0.7401    0.0000 C   0  0  0  0  0  0  0  0  0  0  0  0
   -1.3146    0.7521    0.0000 C   0  0  0  0  0  0  0  0  0  0  0  0
    1.2638   -0.7622    0.0000 C   0  0  0  0  0  0  0  0  0  0  0  0
   -3.9124    0.7888    0.0000 N   0  0  0  0  0  0  0  0  0  0  0  0
   -2.6029    1.5204    0.0000 N   0  0  0  0  0  0  0  0  0  0  0  0
    2.5575   -1.5214    0.0000 N   0  0  0  0  0  0  0  0  0  0  0  0
    3.8618   -0.7807    0.0000 O   0  0  0  0  0  0  0  0  0  0  0  0
    2.5468   -3.0214    0.0000 O   0  0  0  0  0  0  0  0  0  0  0  0
  3  1  2  0
  4  2  1  0
  5  1  1  0
  5  2  2  0
  6  3  1  0
  6  4  2  0
  8  5  1  0
  8  7  1  0
  9  6  1  0
 10  9  1  0
 11  9  2  0
M  CHG  2   9   1  10  -1
M  END
>  <NAME>  (180) 
4-NITROPHENYLHYDRAZINE

>  <SYNONYMS>  (180) 


>  <SPECTRUM TYPE>  (180) 
MS1

>  <INSTRUMENT TYPE>  (180) 
EI-B

>  <INSTRUMENT>  (180) 
HITACHI M-2500

>  <ION MODE>  (180) 
P

>  <INCHIKEY>  (180) 
KMVPXBDOWDXXEN-UHFFFAOYSA-N

>  <FORMULA>  (180) 
C6H7N3O2

>  <EXACT MASS>  (180) 
153.053826464

>  <MW>  (180) 
153

>  <ID>  (180) 
JP011885

>  <CONTRIBUTOR>  (180) 
University of Tokyo Team, {Faculty of Engineering, University of Tokyo

>  <COMMENT>  (180) 
SMILES=NNc(c1)ccc(c1)[N+1]([O-1])=O
cas=100-16-3
InChI=InChI=1S/C6H7N3O2/c7-8-5-1-3-6(4-2-5)9(10)11/h1-4,8H,7H2
computed SMILES=O=N(=O)C1=CC=C(C=C1)NN
accession=JP011885
date=2016.01.19 (Created 2008.10.21, modified 2011.05.06)
author=YAMAMOTO M, DEP. CHEMISTRY, FAC. SCIENCE, NARA WOMEN'S UNIV.
license=CC BY-NC-SA
exact mass=153.05383
ionization energy=70 eV
ion type=[M]+*
computed spectral entropy=3.4331273771181614
computed normalized entropy=0.8455056180325903
SPLASH=splash10-0udi-9500000000-c35caa4cc0f2fbabad94
submitter=submitter = University of Tokyo Team (Faculty of Engineering, University of Tokyo)
MoNA Rating=3.75

>  <NUM PEAKS>  (180) 
58

>  <MASS SPECTRAL PEAKS>  (180) 
17 2.03
18 7.85
26 1.09
27 2.16
28 5.12
29 3.09
30 7.59
31 1.94
37 2.66
38 5.89
39 11.28
40 1.67
41 3.96
42 1.06
43 1.23
46 1.51
50 14.58
51 12.73
52 10.33
53 9.88
54 2.56
56 1.11
61 2.66
62 6.05
63 26.89
64 16.01
65 13.06
66 2.3
67 1.79
73 1.25
74 7.04
75 7.36
76 9.63
77 9.6
78 5.88
79 4.1
80 22.78
81 3.59
90 32.24
91 13.38
92 4.97
93 2.85
105 2.94
106 5.35
107 14.25
108 3.92
109 4.51
122 5.05
123 31.92
124 2.41
137 1.98
138 3.74
139 5.82
150 4.33
151 7
152 1.19
153 99.99
154 8

>  <PREDICTED SPECTRUM>  (180) 
14 22
15 76
16 14
17 12
26 52
27 80
28 104
29 51
30 267
31 41
32 8
36 33
37 160
38 263
39 402
40 188
41 334
42 84
43 77
44 94
46 205
49 102
50 463
51 553
52 576
53 373
54 174
61 159
62 323
63 630
64 465
65 533
66 257
67 139
68 69
69 5
74 97
75 305
76 393
77 641
78 534
79 418
80 351
81 87
89 140
90 414
91 370
92 351
93 123
94 100
95 127
105 279
106 247
107 490
108 301
109 10
122 75
123 198
124 141
137 172
153 999
154 318
155 83

$$$$

     RDKit          2D

 15 16  0  0  0  0  0  0  0  0999 V2000
   -3.0000    0.7500    0.0000 C   0  0  0  0  0  0  0  0  0  0  0  0
   -3.0000   -0.7500    0.0000 C   0  0  0  0  0  0  0  0  0  0  0  0
   -1.7000    1.5000    0.0000 C   0  0  0  0  0  0  0  0  0  0  0  0
   -1.7000   -1.5000    0.0000 C   0  0  0  0  0  0  0  0  0  0  0  0
    3.4100   -0.0000    0.0000 C   0  0  0  0  0  0  0  0  0  0  0  0
   -0.4000    0.7500    0.0000 C   0  0  0  0  0  0  0  0  0  0  0  0
   -0.4000   -0.7500    0.0000 C   0  0  0  0  0  0  0  0  0  0  0  0
    4.1600    1.2990    0.0000 C   0  0  0  0  0  0  0  0  0  0  0  0
    1.0300    1.2100    0.0000 C   0  0  0  0  0  0  0  0  0  0  0  0
    1.0300   -1.2100    0.0000 C   0  0  0  0  0  0  0  0  0  0  0  0
    1.9100    0.0000    0.0000 N   0  0  0  0  0  0  0  0  0  0  0  0
    3.4100    2.5981    0.0000 O   0  0  0  0  0  0  0  0  0  0  0  0
    5.6600    1.2990    0.0000 O   0  0  0  0  0  0  0  0  0  0  0  0
    1.4953    2.6360    0.0000 O   0  0  0  0  0  0  0  0  0  0  0  0
    1.4953   -2.6360    0.0000 O   0  0  0  0  0  0  0  0  0  0  0  0
  2  1  2  0
  3  1  1  0
  4  2  1  0
  6  3  2  0
  7  4  2  0
  7  6  1  0
  8  5  1  0
  9  6  1  0
 10  7  1  0
 11  5  1  0
 11  9  1  0
 11 10  1  0
 12  8  2  0
 13  8  1  0
 14  9  2  0
 15 10  2  0
M  END
>  <NAME>  (181) 
N-PHTHALOYLGLYCINE

>  <SYNONYMS>  (181) 
1,3-DIOXO-2-ISOINDOLINEACETIC ACID

>  <SPECTRUM TYPE>  (181) 
MS1

>  <INSTRUMENT TYPE>  (181) 
EI-B

>  <INSTRUMENT>  (181) 
HITACHI M-2500

>  <ION MODE>  (181) 
P

>  <INCHIKEY>  (181) 
WQINSVOOIJDOLJ-UHFFFAOYSA-N

>  <FORMULA>  (181) 
C10H7NO4

>  <EXACT MASS>  (181) 
205.03750770399998

>  <MW>  (181) 
205

>  <ID>  (181) 
JP011884

>  <CONTRIBUTOR>  (181) 
University of Tokyo Team, {Faculty of Engineering, University of Tokyo

>  <COMMENT>  (181) 
SMILES=OC(=O)Cn(c(=O)1)c(=O)c(c2)c(ccc2)1
cas=4702-13-0
InChI=InChI=1S/C10H7NO4/c12-8(13)5-11-9(14)6-3-1-2-4-7(6)10(11)15/h1-4H,5H2,(H,12,13)
computed SMILES=O=C(O)CN1C(=O)C=2C=CC=CC2C1=O
accession=JP011884
date=2016.01.19 (Created 2008.10.21, modified 2011.05.06)
author=YAMAMOTO M, DEP. CHEMISTRY, FAC. SCIENCE, NARA WOMEN'S UNIV.
license=CC BY-NC-SA
exact mass=205.03751
ionization energy=70 eV
ion type=[M]+*
computed spectral entropy=2.1451974027623
computed normalized entropy=0.6841656386620403
SPLASH=splash10-03di-2900000000-3333d17a667406bf7e82
submitter=submitter = University of Tokyo Team (Faculty of Engineering, University of Tokyo)
MoNA Rating=3.75

>  <NUM PEAKS>  (181) 
23

>  <MASS SPECTRAL PEAKS>  (181) 
28 1.13
38 1.19
45 2.29
50 8.98
51 3.69
52 1.5
66 1.8
74 5.02
75 5.64
76 16.12
77 13.78
78 1.53
102 1.24
104 14.66
105 6.48
117 1.71
130 1.58
132 3.37
133 10.74
160 99.99
161 66.81
162 6.71
205 1.42

>  <PREDICTED SPECTRUM>  (181) 
16 2
17 20
18 12
25 8
26 0
37 126
38 128
39 224
40 85
41 145
42 71
43 114
44 33
45 273
46 10
49 132
50 609
51 359
52 153
53 186
60 33
61 18
62 96
63 127
64 132
65 49
66 150
74 308
75 293
76 743
77 549
78 205
89 46
90 131
102 53
103 147
104 760
105 411
106 64
117 6
118 83
119 6
130 115
131 145
132 447
133 449
134 70
159 300
160 999
161 967
162 282
163 12
187 6
205 269
206 18

$$$$

     RDKit          2D

 10 10  0  0  0  0  0  0  0  0999 V2000
   -3.9008    0.7413    0.0000 C   0  0  0  0  0  0  0  0  0  0  0  0
    0.0072   -1.5063    0.0000 C   0  0  0  0  0  0  0  0  0  0  0  0
    1.3207    0.7186    0.0000 C   0  0  0  0  0  0  0  0  0  0  0  0
   -1.2773   -0.7814    0.0000 C   0  0  0  0  0  0  0  0  0  0  0  0
   -0.0038    1.5127    0.0000 C   0  0  0  0  0  0  0  0  0  0  0  0
    2.6016   -1.5127    0.0000 C   0  0  0  0  0  0  0  0  0  0  0  0
    1.3062   -0.7563    0.0000 C   0  0  0  0  0  0  0  0  0  0  0  0
   -1.3028    0.7627    0.0000 C   0  0  0  0  0  0  0  0  0  0  0  0
    3.9043   -0.7691    0.0000 N   0  0  0  0  0  0  0  0  0  0  0  0
   -2.6080    1.5020    0.0000 O   0  0  0  0  0  0  0  0  0  0  0  0
  4  2  2  0
  5  3  1  0
  7  2  1  0
  7  3  2  0
  7  6  1  0
  8  4  1  0
  8  5  2  0
  9  6  1  0
 10  1  1  0
 10  8  1  0
M  END
>  <NAME>  (182) 
4-METHOXYBENZYLAMINE

>  <SYNONYMS>  (182) 


>  <SPECTRUM TYPE>  (182) 
MS1

>  <INSTRUMENT TYPE>  (182) 
EI-B

>  <INSTRUMENT>  (182) 
HITACHI M-2500

>  <ION MODE>  (182) 
P

>  <INCHIKEY>  (182) 
IDPURXSQCKYKIJ-UHFFFAOYSA-N

>  <FORMULA>  (182) 
C8H11NO

>  <EXACT MASS>  (182) 
137.084063972

>  <MW>  (182) 
137

>  <ID>  (182) 
JP011883

>  <CONTRIBUTOR>  (182) 
University of Tokyo Team, {Faculty of Engineering, University of Tokyo

>  <COMMENT>  (182) 
SMILES=NCc(c1)ccc(OC)c1
cas=2393-23-9
InChI=InChI=1S/C8H11NO/c1-10-8-4-2-7(6-9)3-5-8/h2-5H,6,9H2,1H3
computed SMILES=O(C1=CC=C(C=C1)CN)C
accession=JP011883
date=2016.01.19 (Created 2008.10.21, modified 2011.05.06)
author=YAMAMOTO M, DEP. CHEMISTRY, FAC. SCIENCE, NARA WOMEN'S UNIV.
license=CC BY-NC-SA
exact mass=137.08406
ionization energy=70 eV
ion type=[M]+*
computed spectral entropy=3.0758947009703634
computed normalized entropy=0.7862670277507037
SPLASH=splash10-000i-4900000000-cf58462d070dccc8a608
submitter=submitter = University of Tokyo Team (Faculty of Engineering, University of Tokyo)
MoNA Rating=3.75

>  <NUM PEAKS>  (182) 
50

>  <MASS SPECTRAL PEAKS>  (182) 
15 3.22
27 1.53
28 10.18
29 1.73
30 14.9
38 2.03
39 6.42
40 1.16
41 3.32
50 3.93
51 6.41
52 3.12
53 1.46
54 1.32
62 1.46
63 4.96
64 3.3
65 7.08
66 5.72
67 4.24
74 1.25
76 1.31
77 14.95
78 9.61
79 5.93
81 1.21
89 3.72
90 1.17
91 6.76
92 3.08
93 8.65
94 12.77
95 2.38
104 4.26
105 5.68
106 41.32
107 4.9
108 8.77
109 18.8
110 1.57
119 5.25
120 11.97
121 40
122 9.32
123 1.11
134 3.14
135 1.62
136 99.99
137 82.86
138 8.07

>  <PREDICTED SPECTRUM>  (182) 
14 16
15 80
16 31
17 23
18 10
25 9
26 94
27 178
28 211
29 219
30 547
31 54
36 0
37 80
38 172
39 402
40 143
41 190
42 43
43 82
44 124
49 7
50 252
51 414
52 295
53 233
54 158
55 136
58 9
60 2
61 18
62 146
63 301
64 197
65 389
66 242
67 153
68 62
69 56
74 76
75 66
76 90
77 634
78 513
79 342
80 153
81 41
83 34
86 26
89 174
90 49
91 279
92 217
93 291
94 284
95 111
104 240
105 361
106 474
107 279
108 308
109 473
110 151
119 100
120 198
121 803
122 416
123 89
134 282
135 150
136 999
137 752
138 193

$$$$

     RDKit          2D

 25 29  0  0  0  0  0  0  0  0999 V2000
    3.2476    9.3717    0.0000 C   0  0  0  0  0  0  0  0  0  0  0  0
    0.6495    9.3717    0.0000 C   0  0  0  0  0  0  0  0  0  0  0  0
   -3.2500   -1.8800    0.0000 C   0  0  0  0  0  0  0  0  0  0  0  0
   -1.9500   -2.6200    0.0000 C   0  0  0  0  0  0  0  0  0  0  0  0
   -3.2500   -0.3800    0.0000 C   0  0  0  0  0  0  0  0  0  0  0  0
    0.6500   -2.6200    0.0000 C   0  0  0  0  0  0  0  0  0  0  0  0
    1.9500   -1.8800    0.0000 C   0  0  0  0  0  0  0  0  0  0  0  0
    3.2489    4.8702    0.0000 C   0  0  0  0  0  0  0  0  0  0  0  0
    0.6504    4.8706    0.0000 C   0  0  0  0  0  0  0  0  0  0  0  0
    3.2500    0.3800    0.0000 C   0  0  0  0  0  0  0  0  0  0  0  0
   -1.9500    1.8800    0.0000 C   0  0  0  0  0  0  0  0  0  0  0  0
    3.2482    6.3710    0.0000 C   0  0  0  0  0  0  0  0  0  0  0  0
    0.6496    6.3715    0.0000 C   0  0  0  0  0  0  0  0  0  0  0  0
    3.2500    1.8800    0.0000 C   0  0  0  0  0  0  0  0  0  0  0  0
   -0.6500    2.6200    0.0000 C   0  0  0  0  0  0  0  0  0  0  0  0
    1.9500    4.1200    0.0000 C   0  0  0  0  0  0  0  0  0  0  0  0
   -0.6500   -1.8800    0.0000 C   0  0  0  0  0  0  0  0  0  0  0  0
   -1.9500    0.3800    0.0000 C   0  0  0  0  0  0  0  0  0  0  0  0
    1.9500   -0.3800    0.0000 C   0  0  0  0  0  0  0  0  0  0  0  0
    1.9486    7.1217    0.0000 C   0  0  0  0  0  0  0  0  0  0  0  0
    1.9500    2.6200    0.0000 C   0  0  0  0  0  0  0  0  0  0  0  0
    0.6500    1.8800    0.0000 C   0  0  0  0  0  0  0  0  0  0  0  0
   -0.6500   -0.3800    0.0000 C   0  0  0  0  0  0  0  0  0  0  0  0
    0.6500    0.3800    0.0000 C   0  0  0  0  0  0  0  0  0  0  0  0
    1.9486    8.6217    0.0000 N   0  0  0  0  0  0  0  0  0  0  0  0
  4  3  2  0
  5  3  1  0
  7  6  1  0
 12  8  2  0
 13  9  1  0
 14 10  2  0
 15 11  2  0
 16  8  1  0
 16  9  2  0
 17  4  1  0
 17  6  2  0
 18  5  2  0
 18 11  1  0
 19  7  2  0
 19 10  1  0
 20 12  1  0
 20 13  2  0
 21 14  1  0
 21 16  1  0
 22 15  1  0
 22 21  2  0
 23 17  1  0
 23 18  1  0
 24 19  1  0
 24 22  1  0
 24 23  2  0
 25  1  1  0
 25  2  1  0
 25 20  1  0
M  END
>  <NAME>  (183) 
1-(4-DIMETHYLAMINOPHENYL)PYRENE

>  <SYNONYMS>  (183) 


>  <SPECTRUM TYPE>  (183) 
MS1

>  <INSTRUMENT TYPE>  (183) 
EI-B

>  <INSTRUMENT>  (183) 
HITACHI RMU-6M

>  <ION MODE>  (183) 
P

>  <INCHIKEY>  (183) 
VYIYLDMJKOXUIV-UHFFFAOYSA-N

>  <FORMULA>  (183) 
C24H19N

>  <EXACT MASS>  (183) 
321.15174960800005

>  <MW>  (183) 
321

>  <ID>  (183) 
JP011882

>  <CONTRIBUTOR>  (183) 
University of Tokyo Team, {Faculty of Engineering, University of Tokyo

>  <COMMENT>  (183) 
SMILES=CN(C)c(c5)ccc(c5)c(c4)c(c1)c(c3c4)c(c2cc3)c(ccc2)c1
InChI=InChI=1S/C24H19N/c1-25(2)20-12-8-16(9-13-20)21-14-10-19-7-6-17-4-3-5-18-11-15-22(21)24(19)23(17)18/h3-15H,1-2H3
computed SMILES=C1=CC=2C=CC3=CC=C(C4=CC=C(C=C4)N(C)C)C=5C=CC(=C1)C2C35
accession=JP011882
date=2016.01.19 (Created 2008.10.21, modified 2011.05.06)
author=YAMAMOTO M, DEP. CHEMISTRY, FAC. SCIENCE, NARA WOMEN'S UNIV.
license=CC BY-NC-SA
exact mass=321.15175
ionization energy=70 eV
ion type=[M]+*
computed spectral entropy=2.9785194356562794
computed normalized entropy=0.8377574808831831
SPLASH=splash10-00di-0549000000-a79cacf4b1bf9fe2c879
submitter=submitter = University of Tokyo Team (Faculty of Engineering, University of Tokyo)
MoNA Rating=3.75

>  <NUM PEAKS>  (183) 
35

>  <MASS SPECTRAL PEAKS>  (183) 
41 2.7
42 6
43 3
44 3
125 5.3
125.5 2
126 2
137 7
137.5 5.3
138 23.3
138.5 10.6
139 3.3
153 14
153.5 11
160.5 14.3
161 11
161.5 3.1
201 3.3
202 2
203 4.1
262 2
263 2.3
264 5.6
265 3.3
275 6.6
276 6.3
277 26.6
278 15
279 7.6
305 14
306 10.3
307 14
320 12
321 99.99
322 28.6

>  <PREDICTED SPECTRUM>  (183) 
18 1
26 3
27 77
28 6
29 42
39 66
40 21
41 42
42 127
43 51
44 57
51 24
55 33
56 8
57 58
58 8
63 26
74 30
75 3
77 29
81 7
91 34
98 1
99 36
100 60
101 21
105 0
106 12
107 11
112 22
113 84
114 45
118 20
119 84
120 70
121 48
122 6
124 0
125 102
126 191
127 76
128 9
129 11
132 56
133 18
134 43
135 47
137 26
138 84
139 96
140 47
141 54
142 18
143 8
144 11
146 35
147 27
148 79
149 113
150 71
151 84
152 23
157 33
158 18
160 24
161 7
162 67
163 55
164 83
165 27
171 11
172 42
173 18
174 17
175 22
178 26
179 0
185 37
186 30
187 53
188 1
189 23
201 28
211 14
224 40
226 35
238 27
239 19
240 6
249 43
250 96
251 20
252 73
262 67
263 134
264 99
265 42
274 40
275 126
276 298
277 571
278 374
279 195
280 55
286 3
287 4
288 68
289 138
290 108
291 114
292 15
293 14
294 24
302 0
303 42
304 150
305 301
306 316
307 186
308 25
319 40
320 414
321 999
322 542
323 117
324 35

$$$$

     RDKit          2D

 22 25  0  0  0  0  0  0  0  0999 V2000
   -1.3005    8.5917    0.0000 C   0  0  0  0  0  0  0  0  0  0  0  0
    1.2976    8.5917    0.0000 C   0  0  0  0  0  0  0  0  0  0  0  0
    3.2200   -1.2700    0.0000 C   0  0  0  0  0  0  0  0  0  0  0  0
   -3.2200   -1.2700    0.0000 C   0  0  0  0  0  0  0  0  0  0  0  0
    3.6900    0.1600    0.0000 C   0  0  0  0  0  0  0  0  0  0  0  0
   -3.6800    0.1600    0.0000 C   0  0  0  0  0  0  0  0  0  0  0  0
    1.7500   -1.5800    0.0000 C   0  0  0  0  0  0  0  0  0  0  0  0
   -1.7500   -1.5800    0.0000 C   0  0  0  0  0  0  0  0  0  0  0  0
    2.6800    1.2700    0.0000 C   0  0  0  0  0  0  0  0  0  0  0  0
   -2.6800    1.2700    0.0000 C   0  0  0  0  0  0  0  0  0  0  0  0
    1.2989    4.0902    0.0000 C   0  0  0  0  0  0  0  0  0  0  0  0
   -1.2996    4.0906    0.0000 C   0  0  0  0  0  0  0  0  0  0  0  0
    1.2982    5.5910    0.0000 C   0  0  0  0  0  0  0  0  0  0  0  0
   -1.3004    5.5915    0.0000 C   0  0  0  0  0  0  0  0  0  0  0  0
   -0.0000    3.3400    0.0000 C   0  0  0  0  0  0  0  0  0  0  0  0
   -0.0014    6.3417    0.0000 C   0  0  0  0  0  0  0  0  0  0  0  0
    0.7500   -0.4700    0.0000 C   0  0  0  0  0  0  0  0  0  0  0  0
   -0.7500   -0.4700    0.0000 C   0  0  0  0  0  0  0  0  0  0  0  0
    1.2100    0.9600    0.0000 C   0  0  0  0  0  0  0  0  0  0  0  0
   -1.2100    0.9600    0.0000 C   0  0  0  0  0  0  0  0  0  0  0  0
   -0.0000    1.8400    0.0000 C   0  0  0  0  0  0  0  0  0  0  0  0
   -0.0014    7.8417    0.0000 N   0  0  0  0  0  0  0  0  0  0  0  0
  5  3  2  0
  6  4  2  0
  7  3  1  0
  8  4  1  0
  9  5  1  0
 10  6  1  0
 13 11  2  0
 14 12  1  0
 15 11  1  0
 15 12  2  0
 16 13  1  0
 16 14  2  0
 17  7  2  0
 18  8  2  0
 18 17  1  0
 19  9  2  0
 19 17  1  0
 20 10  2  0
 20 18  1  0
 21 15  1  0
 21 19  1  0
 21 20  1  0
 22  1  1  0
 22  2  1  0
 22 16  1  0
M  END
>  <NAME>  (184) 
9-(4-DIMETHYLAMINOPHENYL)FLUORENE

>  <SYNONYMS>  (184) 


>  <SPECTRUM TYPE>  (184) 
MS1

>  <INSTRUMENT TYPE>  (184) 
EI-B

>  <INSTRUMENT>  (184) 
HITACHI RMU-6M

>  <ION MODE>  (184) 
P

>  <INCHIKEY>  (184) 
WKIKVLRCRQYTJZ-UHFFFAOYSA-N

>  <FORMULA>  (184) 
C21H19N

>  <EXACT MASS>  (184) 
285.15174960800005

>  <MW>  (184) 
285

>  <ID>  (184) 
JP011881

>  <CONTRIBUTOR>  (184) 
University of Tokyo Team, {Faculty of Engineering, University of Tokyo

>  <COMMENT>  (184) 
SMILES=CN(C)c(c4)ccc(c4)C(c21)c(c3)c(ccc3)c(cccc2)1
InChI=InChI=1S/C21H19N/c1-22(2)16-13-11-15(12-14-16)21-19-9-5-3-7-17(19)18-8-4-6-10-20(18)21/h3-14,21H,1-2H3
computed SMILES=C=1C=CC2=C(C1)C=3C=CC=CC3C2C4=CC=C(C=C4)N(C)C
accession=JP011881
date=2016.01.19 (Created 2008.10.21, modified 2011.05.06)
author=YAMAMOTO M, DEP. CHEMISTRY, FAC. SCIENCE, NARA WOMEN'S UNIV.
license=CC BY-NC-SA
exact mass=285.15175
ionization energy=70 eV
ion type=[M]+*
computed spectral entropy=3.602495642568417
computed normalized entropy=0.8152581100599503
SPLASH=splash10-000i-1290000000-6fb9f74edac5f1de294d
submitter=submitter = University of Tokyo Team (Faculty of Engineering, University of Tokyo)
MoNA Rating=3.75

>  <NUM PEAKS>  (184) 
83

>  <MASS SPECTRAL PEAKS>  (184) 
41 1.9
42 9
43 1.9
44 1.6
50 2.2
51 3.4
52 2.2
63 3.8
65 1.6
68 1.7
69 1.5
70 2.2
71 1.5
75 1.9
76 1.6
77 2.4
78 3
79 1.6
118.5 2.2
119 2.4
119.5 4.9
120 6.9
120.5 8.5
121 2.8
134 2
134.5 1.7
135 1.6
135.5 1.4
142 7.2
142.5 5.6
143 7.7
150 1.6
151 1.6
152 1.6
153 2.8
154 1.1
164 5
165 3.6
166 17.9
167 4.9
177 1.7
179 2.3
188 2.7
189 1.4
190 2.9
194 1.4
194.5 1.4
195 1.4
195.5 1.7
196 1.1
201 2
202 2
203 5.4
204 2
212 0.7
213 0.8
214 3.2
215 1.4
216 4
217 1.6
224 1.6
225 2.9
226 2.7
227 5.6
228 3.5
229 3.3
230 2.4
240 20.1
241 9.6
242 27.7
243 8
269 14.1
270 18.5
271 16.9
272 3.3
283 4.8
284 49
285 99.99
286 22.9
390 4.8
391 2.9
405 12.4
406 5.2

>  <PREDICTED SPECTRUM>  (184) 
27 48
28 26
29 31
30 19
36 0
39 88
40 25
41 64
42 147
43 55
44 105
50 2
51 61
55 16
56 26
57 23
58 4
63 57
65 66
70 5
76 50
77 126
78 50
82 9
83 12
87 8
89 56
90 2
91 140
92 8
95 2
97 22
104 93
105 79
106 70
107 52
111 11
112 24
113 78
114 38
115 58
117 13
118 217
119 77
120 159
121 117
126 127
127 30
128 51
129 22
131 2
133 5
134 96
135 65
139 47
141 11
147 13
148 116
149 97
150 9
151 95
152 147
153 54
154 16
155 56
157 0
163 150
164 182
165 431
166 113
167 3
176 2
181 87
200 4
211 21
213 101
214 18
215 57
224 43
225 109
226 147
227 145
228 131
229 5
237 18
238 54
239 251
240 296
241 405
242 255
243 104
250 27
251 16
252 300
253 154
254 171
255 157
256 148
257 99
258 61
265 119
266 138
267 146
268 364
269 352
270 325
271 157
281 21
282 129
283 168
284 519
285 999
286 465
287 149
288 1

$$$$

     RDKit          2D

 23 26  0  0  0  0  0  0  0  0999 V2000
   -1.3005    8.2517    0.0000 C   0  0  0  0  0  0  0  0  0  0  0  0
    1.2976    8.2517    0.0000 C   0  0  0  0  0  0  0  0  0  0  0  0
    3.9000   -0.7500    0.0000 C   0  0  0  0  0  0  0  0  0  0  0  0
   -3.9000   -0.7500    0.0000 C   0  0  0  0  0  0  0  0  0  0  0  0
    3.9000    0.7500    0.0000 C   0  0  0  0  0  0  0  0  0  0  0  0
   -3.9000    0.7500    0.0000 C   0  0  0  0  0  0  0  0  0  0  0  0
    2.6000   -1.5000    0.0000 C   0  0  0  0  0  0  0  0  0  0  0  0
   -2.6000   -1.5000    0.0000 C   0  0  0  0  0  0  0  0  0  0  0  0
    2.6000    1.5000    0.0000 C   0  0  0  0  0  0  0  0  0  0  0  0
   -2.6000    1.5000    0.0000 C   0  0  0  0  0  0  0  0  0  0  0  0
    1.2989    3.7502    0.0000 C   0  0  0  0  0  0  0  0  0  0  0  0
   -1.2996    3.7506    0.0000 C   0  0  0  0  0  0  0  0  0  0  0  0
    1.2982    5.2510    0.0000 C   0  0  0  0  0  0  0  0  0  0  0  0
   -1.3004    5.2515    0.0000 C   0  0  0  0  0  0  0  0  0  0  0  0
   -0.0000   -1.5000    0.0000 C   0  0  0  0  0  0  0  0  0  0  0  0
   -0.0000    3.0000    0.0000 C   0  0  0  0  0  0  0  0  0  0  0  0
    1.3000   -0.7500    0.0000 C   0  0  0  0  0  0  0  0  0  0  0  0
   -1.3000   -0.7500    0.0000 C   0  0  0  0  0  0  0  0  0  0  0  0
   -0.0014    6.0017    0.0000 C   0  0  0  0  0  0  0  0  0  0  0  0
    1.3000    0.7500    0.0000 C   0  0  0  0  0  0  0  0  0  0  0  0
   -1.3000    0.7500    0.0000 C   0  0  0  0  0  0  0  0  0  0  0  0
   -0.0000    1.5000    0.0000 C   0  0  0  0  0  0  0  0  0  0  0  0
   -0.0014    7.5017    0.0000 N   0  0  0  0  0  0  0  0  0  0  0  0
  5  3  2  0
  6  4  1  0
  7  3  1  0
  8  4  2  0
  9  5  1  0
 10  6  2  0
 13 11  2  0
 14 12  1  0
 16 11  1  0
 16 12  2  0
 17  7  2  0
 17 15  1  0
 18  8  1  0
 18 15  2  0
 19 13  1  0
 19 14  2  0
 20  9  2  0
 20 17  1  0
 21 10  1  0
 21 18  1  0
 22 16  1  0
 22 20  1  0
 22 21  2  0
 23  1  1  0
 23  2  1  0
 23 19  1  0
M  END
>  <NAME>  (185) 
9-(4-DIMETHYLAMINOPHENYL)ANTHRACENE

>  <SYNONYMS>  (185) 


>  <SPECTRUM TYPE>  (185) 
MS1

>  <INSTRUMENT TYPE>  (185) 
EI-B

>  <INSTRUMENT>  (185) 
HITACHI RMU-6M

>  <ION MODE>  (185) 
P

>  <INCHIKEY>  (185) 
CPADYVIHWPZXEE-UHFFFAOYSA-N

>  <FORMULA>  (185) 
C22H19N

>  <EXACT MASS>  (185) 
297.151749608

>  <MW>  (185) 
297

>  <ID>  (185) 
JP011880

>  <CONTRIBUTOR>  (185) 
University of Tokyo Team, {Faculty of Engineering, University of Tokyo

>  <COMMENT>  (185) 
SMILES=CN(C)c(c4)ccc(c4)c(c21)c(c3)c(ccc3)cc(cccc2)1
InChI=InChI=1S/C22H19N/c1-23(2)19-13-11-16(12-14-19)22-20-9-5-3-7-17(20)15-18-8-4-6-10-21(18)22/h3-15H,1-2H3
computed SMILES=C=1C=CC2=C(C1)C=C3C=CC=CC3=C2C4=CC=C(C=C4)N(C)C
accession=JP011880
date=2016.01.19 (Created 2008.10.21, modified 2011.05.06)
author=YAMAMOTO M, DEP. CHEMISTRY, FAC. SCIENCE, NARA WOMEN'S UNIV.
license=CC BY-NC-SA
exact mass=297.15175
ionization energy=70 eV
ion type=[M]+*
computed spectral entropy=3.1121008358169995
computed normalized entropy=0.7801737985132987
SPLASH=splash10-0002-0190000000-845bf0e1c4a18c3e7e1a
submitter=submitter = University of Tokyo Team (Faculty of Engineering, University of Tokyo)
MoNA Rating=3.75

>  <NUM PEAKS>  (185) 
54

>  <MASS SPECTRAL PEAKS>  (185) 
40 1.3
41 0.8
42 3.3
43 0.8
44 0.8
112.5 1.9
113 1.3
113.5 5
114 1.4
125.5 4.9
126 2.6
126.5 11.1
127 5.3
140 1.3
140.5 2
141 1.9
141.5 1.7
147.5 2.3
148 7.4
148.5 7.2
149 2
200 1.7
201 3.4
202 2
213 1.8
214 0.8
215 1.7
224 1.9
225 2
226 4.5
227 1.8
228 1.4
237 1.8
238 1.3
239 3.6
240 2.6
250 4.5
251 6
252 26.7
253 18
254 5.3
264 6
265 4.2
266 4.5
267 4.2
280 3
281 8.3
282 6.8
283 3
295 3.8
296 15.8
297 99.99
298 26.3
299 3.8

>  <PREDICTED SPECTRUM>  (185) 
15 1
26 7
27 65
28 32
29 14
31 8
39 49
40 32
41 39
42 139
43 58
44 72
51 35
55 34
56 35
57 34
58 4
63 37
68 21
69 20
74 14
75 20
76 7
77 32
81 10
87 2
88 4
91 20
94 3
95 11
98 10
99 21
100 58
101 39
105 12
106 38
107 37
108 19
112 51
113 107
114 72
117 16
118 80
119 76
120 88
121 32
122 0
124 15
125 105
126 158
127 88
128 35
129 5
130 11
131 45
132 32
133 45
134 62
135 10
137 22
138 57
139 41
140 78
141 67
142 48
146 49
147 59
148 83
149 121
150 64
151 87
154 5
158 23
160 41
162 42
163 58
164 4
174 37
186 13
187 32
188 28
200 36
201 35
202 77
211 26
213 54
214 9
215 88
216 34
223 28
224 74
225 73
226 154
227 38
228 17
237 64
238 47
239 190
240 87
241 21
248 3
249 3
250 130
251 171
252 435
253 389
254 252
255 78
256 23
263 51
264 138
265 192
266 200
267 109
268 58
276 35
278 46
279 22
280 182
281 257
282 236
283 116
294 41
295 75
296 384
297 999
298 514
299 159
300 18

$$$$

     RDKit          2D

 19 21  0  0  0  0  0  0  0  0999 V2000
    2.4776    7.9817    0.0000 C   0  0  0  0  0  0  0  0  0  0  0  0
   -0.1205    7.9817    0.0000 C   0  0  0  0  0  0  0  0  0  0  0  0
   -2.7200   -1.0200    0.0000 C   0  0  0  0  0  0  0  0  0  0  0  0
   -2.7200    0.4800    0.0000 C   0  0  0  0  0  0  0  0  0  0  0  0
    2.4800   -1.0200    0.0000 C   0  0  0  0  0  0  0  0  0  0  0  0
   -1.4200   -1.7700    0.0000 C   0  0  0  0  0  0  0  0  0  0  0  0
    1.1800   -1.7700    0.0000 C   0  0  0  0  0  0  0  0  0  0  0  0
   -1.4200    1.2300    0.0000 C   0  0  0  0  0  0  0  0  0  0  0  0
    2.4800    0.4800    0.0000 C   0  0  0  0  0  0  0  0  0  0  0  0
    2.4789    3.4802    0.0000 C   0  0  0  0  0  0  0  0  0  0  0  0
   -0.1196    3.4806    0.0000 C   0  0  0  0  0  0  0  0  0  0  0  0
    2.4782    4.9810    0.0000 C   0  0  0  0  0  0  0  0  0  0  0  0
   -0.1204    4.9815    0.0000 C   0  0  0  0  0  0  0  0  0  0  0  0
   -0.1200   -1.0200    0.0000 C   0  0  0  0  0  0  0  0  0  0  0  0
    1.1800    2.7300    0.0000 C   0  0  0  0  0  0  0  0  0  0  0  0
    1.1786    5.7317    0.0000 C   0  0  0  0  0  0  0  0  0  0  0  0
   -0.1200    0.4800    0.0000 C   0  0  0  0  0  0  0  0  0  0  0  0
    1.1800    1.2300    0.0000 C   0  0  0  0  0  0  0  0  0  0  0  0
    1.1786    7.2317    0.0000 N   0  0  0  0  0  0  0  0  0  0  0  0
  4  3  2  0
  6  3  1  0
  7  5  2  0
  8  4  1  0
  9  5  1  0
 12 10  2  0
 13 11  1  0
 14  6  2  0
 14  7  1  0
 15 10  1  0
 15 11  2  0
 16 12  1  0
 16 13  2  0
 17  8  2  0
 17 14  1  0
 18  9  2  0
 18 15  1  0
 18 17  1  0
 19  1  1  0
 19  2  1  0
 19 16  1  0
M  END
>  <NAME>  (186) 
1-(4-DIMETHYLAMINOPHENYL)NAPHTHALENE

>  <SYNONYMS>  (186) 


>  <SPECTRUM TYPE>  (186) 
MS1

>  <INSTRUMENT TYPE>  (186) 
EI-B

>  <INSTRUMENT>  (186) 
HITACHI RMU-6M

>  <ION MODE>  (186) 
P

>  <INCHIKEY>  (186) 
VEXNITXCNXSHHK-UHFFFAOYSA-N

>  <FORMULA>  (186) 
C18H17N

>  <EXACT MASS>  (186) 
247.136099544

>  <MW>  (186) 
247

>  <ID>  (186) 
JP011879

>  <CONTRIBUTOR>  (186) 
University of Tokyo Team, {Faculty of Engineering, University of Tokyo

>  <COMMENT>  (186) 
SMILES=CN(C)c(c3)ccc(c3)c(c1)c(c2)c(ccc2)cc1
InChI=InChI=1S/C18H17N/c1-19(2)16-12-10-15(11-13-16)18-9-5-7-14-6-3-4-8-17(14)18/h3-13H,1-2H3
computed SMILES=C=1C=CC2=C(C1)C=CC=C2C3=CC=C(C=C3)N(C)C
accession=JP011879
date=2016.01.19 (Created 2008.10.21, modified 2011.05.06)
author=YAMAMOTO M, DEP. CHEMISTRY, FAC. SCIENCE, NARA WOMEN'S UNIV.
license=CC BY-NC-SA
exact mass=247.1361
ionization energy=70 eV
ion type=[M]+*
computed spectral entropy=2.964090195981908
computed normalized entropy=0.7538712223939894
SPLASH=splash10-0002-0290000000-6937d306a1477512bedf
submitter=submitter = University of Tokyo Team (Faculty of Engineering, University of Tokyo)
MoNA Rating=3.75

>  <NUM PEAKS>  (186) 
51

>  <MASS SPECTRAL PEAKS>  (186) 
28 2.6
49 1.9
51 1.2
52 3.9
53 1.2
54 1.2
74 0.9
75 1.5
76 1.2
77 1.5
87 1.3
88 3.2
89 1.5
100 2.8
100.5 2.8
101 11.2
101.5 4.5
102 1.2
120 1.2
122 1.5
122.5 3.8
123 9
123.5 7.5
124 1.9
150 1.5
151 1.5
152 2.4
163 1.9
164 1.2
165 1.9
175 1.3
176 2.6
177 1.2
178 1.2
188 1.2
189 4.9
190 3.7
191 1.2
200 5.2
201 5.4
202 26.1
203 17.1
204 5.4
230 2.7
231 9.8
232 6.8
233 2.7
245 6.8
246 34.2
247 99.99
248 21.8

>  <PREDICTED SPECTRUM>  (186) 
15 7
17 0
26 9
27 54
28 6
29 17
31 10
36 5
38 15
39 86
40 53
41 18
42 139
43 64
44 88
45 35
50 35
51 54
52 28
53 1
55 34
56 5
57 18
62 54
63 98
64 19
65 34
68 15
69 37
74 73
75 98
76 88
77 82
78 4
81 35
82 26
83 38
87 31
88 79
89 70
90 51
91 67
92 13
94 5
97 33
98 42
99 38
100 69
101 141
102 92
103 22
104 35
105 5
106 30
107 32
108 56
109 2
110 28
111 28
112 3
113 72
114 90
115 142
116 34
117 33
118 0
120 29
121 12
122 33
125 65
126 129
127 133
128 55
129 15
130 26
131 11
137 14
138 11
141 54
146 4
148 30
149 61
150 61
151 113
152 92
153 6
160 30
162 23
163 52
164 8
165 16
173 8
174 53
175 63
176 53
177 37
178 63
186 0
187 56
188 73
189 141
190 66
191 12
200 67
201 146
202 293
203 345
204 218
205 69
214 64
215 182
216 160
217 91
228 7
229 21
230 232
231 337
232 328
233 147
244 39
245 66
246 776
247 999
248 445
249 94

$$$$

     RDKit          2D

 25 28  0  0  0  0  0  0  0  0999 V2000
   -2.1411   -3.7961    0.0000 C   0  0  0  0  0  0  0  0  0  0  0  0
    3.0557   -3.8050    0.0000 C   0  0  0  0  0  0  0  0  0  0  0  0
    1.7463   -9.0538    0.0000 C   0  0  0  0  0  0  0  0  0  0  0  0
   -0.8518   -9.0495    0.0000 C   0  0  0  0  0  0  0  0  0  0  0  0
    3.0600    2.2000    0.0000 C   0  0  0  0  0  0  0  0  0  0  0  0
    1.7600    2.9500    0.0000 C   0  0  0  0  0  0  0  0  0  0  0  0
   -3.4300   -0.0500    0.0000 C   0  0  0  0  0  0  0  0  0  0  0  0
   -3.4300   -1.5500    0.0000 C   0  0  0  0  0  0  0  0  0  0  0  0
    3.0600    0.7000    0.0000 C   0  0  0  0  0  0  0  0  0  0  0  0
    0.4600    2.2000    0.0000 C   0  0  0  0  0  0  0  0  0  0  0  0
   -2.1300    0.7000    0.0000 C   0  0  0  0  0  0  0  0  0  0  0  0
   -2.1300   -2.3000    0.0000 C   0  0  0  0  0  0  0  0  0  0  0  0
   -0.8466   -6.0493    0.0000 C   0  0  0  0  0  0  0  0  0  0  0  0
    1.7519   -6.0532    0.0000 C   0  0  0  0  0  0  0  0  0  0  0  0
    1.7600   -1.5500    0.0000 C   0  0  0  0  0  0  0  0  0  0  0  0
   -0.8434   -4.5484    0.0000 C   0  0  0  0  0  0  0  0  0  0  0  0
    1.7551   -4.5524    0.0000 C   0  0  0  0  0  0  0  0  0  0  0  0
    1.7600   -0.0500    0.0000 C   0  0  0  0  0  0  0  0  0  0  0  0
    0.4510   -6.8017    0.0000 C   0  0  0  0  0  0  0  0  0  0  0  0
    0.4600    0.7000    0.0000 C   0  0  0  0  0  0  0  0  0  0  0  0
   -0.8300   -0.0500    0.0000 C   0  0  0  0  0  0  0  0  0  0  0  0
   -0.8300   -1.5500    0.0000 C   0  0  0  0  0  0  0  0  0  0  0  0
    0.4600   -2.3000    0.0000 C   0  0  0  0  0  0  0  0  0  0  0  0
    0.4575   -3.8000    0.0000 C   0  0  0  0  0  0  0  0  0  0  0  0
    0.4485   -8.3017    0.0000 N   0  0  0  0  0  0  0  0  0  0  0  0
  6  5  2  0
  8  7  2  0
  9  5  1  0
 10  6  1  0
 11  7  1  0
 12  8  1  0
 16  1  1  0
 16 13  2  0
 17  2  1  0
 17 14  1  0
 18  9  2  0
 18 15  1  0
 19 13  1  0
 19 14  2  0
 20 10  2  0
 20 18  1  0
 21 11  2  0
 21 20  1  0
 22 12  2  0
 22 21  1  0
 23 15  2  0
 23 22  1  0
 24 16  1  0
 24 17  2  0
 24 23  1  0
 25  3  1  0
 25  4  1  0
 25 19  1  0
M  END
>  <NAME>  (187) 
4-(9-PHENANTHRYL)-3,5-DIMETHYL-N,N-DIMETHYLANILINE

>  <SYNONYMS>  (187) 


>  <SPECTRUM TYPE>  (187) 
MS1

>  <INSTRUMENT TYPE>  (187) 
EI-B

>  <INSTRUMENT>  (187) 
HITACHI RMU-6M

>  <ION MODE>  (187) 
P

>  <INCHIKEY>  (187) 
QJSUZPQTDAZZIE-UHFFFAOYSA-N

>  <FORMULA>  (187) 
C24H23N

>  <EXACT MASS>  (187) 
325.18304973600004

>  <MW>  (187) 
325

>  <ID>  (187) 
JP011878

>  <CONTRIBUTOR>  (187) 
University of Tokyo Team, {Faculty of Engineering, University of Tokyo

>  <COMMENT>  (187) 
SMILES=CN(C)c(c4)cc(C)c(c(C)4)c(c1)c(c3)c(ccc3)c(c2)c(ccc2)1
InChI=InChI=1S/C24H23N/c1-16-13-19(25(3)4)14-17(2)24(16)23-15-18-9-5-6-10-20(18)21-11-7-8-12-22(21)23/h5-15H,1-4H3
computed SMILES=C=1C=CC=2C(C1)=CC(=C3C=CC=CC23)C4=C(C=C(C=C4C)N(C)C)C
accession=JP011878
date=2016.01.19 (Created 2008.10.21, modified 2011.05.06)
author=YAMAMOTO M, DEP. CHEMISTRY, FAC. SCIENCE, NARA WOMEN'S UNIV.
license=CC BY-NC-SA
exact mass=325.18305
ionization energy=70 eV
ion type=[M]+*
computed spectral entropy=2.193953634321706
computed normalized entropy=0.9528219569375016
SPLASH=splash10-01t9-3119000000-2ab45427b17eb530a11a
submitter=submitter = University of Tokyo Team (Faculty of Engineering, University of Tokyo)
MoNA Rating=3.75

>  <NUM PEAKS>  (187) 
10

>  <MASS SPECTRAL PEAKS>  (187) 
33 25
42 30.8
45 30.8
163 36.7
268 30.8
311 27.5
313 30.8
325 34.2
326 99.99
327 46.7

>  <PREDICTED SPECTRUM>  (187) 
27 26
29 20
39 16
41 36
42 47
43 58
44 45
45 2
51 6
55 5
57 22
63 4
74 16
75 13
91 31
94 27
95 4
100 21
101 27
105 4
106 43
107 35
108 42
112 37
113 139
114 85
117 15
118 67
119 113
120 131
121 50
122 9
124 29
125 91
126 154
127 97
128 34
129 21
130 18
131 64
132 70
133 91
134 30
135 18
138 79
139 78
140 53
141 63
142 28
143 17
144 13
145 44
146 47
147 67
148 49
149 61
150 14
151 12
152 36
153 58
154 1
155 9
157 24
158 6
159 38
160 10
161 32
162 21
163 56
164 40
165 50
166 43
167 29
168 66
169 25
173 25
174 71
175 21
176 40
183 14
187 34
188 41
189 67
190 7
200 29
201 24
202 128
203 41
213 119
214 25
215 45
216 64
224 27
225 33
226 91
227 12
228 34
237 36
238 17
239 147
240 79
241 47
242 15
244 10
248 40
249 27
250 84
251 62
252 286
253 160
254 101
255 28
263 155
264 108
265 179
266 139
267 189
268 83
269 57
270 12
276 119
277 94
278 129
279 226
280 238
281 256
282 145
283 19
284 0
290 18
291 53
292 104
293 135
294 229
295 270
296 171
297 57
298 40
306 38
307 33
308 136
309 207
310 426
311 217
312 67
322 79
323 100
324 214
325 999
326 517
327 182
328 37

$$$$

     RDKit          2D

 10 11  0  0  0  0  0  0  0  0999 V2000
   -2.3100   -0.7500    0.0000 C   0  0  0  0  0  0  0  0  0  0  0  0
   -2.3100    0.7500    0.0000 C   0  0  0  0  0  0  0  0  0  0  0  0
   -1.0100   -1.5000    0.0000 C   0  0  0  0  0  0  0  0  0  0  0  0
   -1.0100    1.5000    0.0000 C   0  0  0  0  0  0  0  0  0  0  0  0
    1.7200   -1.2100    0.0000 C   0  0  0  0  0  0  0  0  0  0  0  0
    1.7200    1.2100    0.0000 C   0  0  0  0  0  0  0  0  0  0  0  0
    0.2900   -0.7500    0.0000 C   0  0  0  0  0  0  0  0  0  0  0  0
    0.2900    0.7500    0.0000 C   0  0  0  0  0  0  0  0  0  0  0  0
    2.6000    0.0000    0.0000 C   0  0  0  0  0  0  0  0  0  0  0  0
    4.1000   -0.0000    0.0000 O   0  0  0  0  0  0  0  0  0  0  0  0
  2  1  1  0
  3  1  1  0
  4  2  1  0
  7  3  1  0
  7  5  1  0
  8  4  1  0
  8  6  1  0
  8  7  1  0
  9  5  1  0
  9  6  1  0
 10  9  2  0
M  END
>  <NAME>  (188) 
BICYCLO(4,3,0)NONAN-8-ONE

>  <SYNONYMS>  (188) 


>  <SPECTRUM TYPE>  (188) 
MS1

>  <INSTRUMENT TYPE>  (188) 
EI-B

>  <INSTRUMENT>  (188) 
HITACHI RMU-6M

>  <ION MODE>  (188) 
P

>  <INCHIKEY>  (188) 
HAMUKWWZXAKCAU-UHFFFAOYSA-N

>  <FORMULA>  (188) 
C9H14O

>  <EXACT MASS>  (188) 
138.104465068

>  <MW>  (188) 
138

>  <ID>  (188) 
JP011877

>  <CONTRIBUTOR>  (188) 
University of Tokyo Team, {Faculty of Engineering, University of Tokyo

>  <COMMENT>  (188) 
SMILES=O=C(C1)CC(C2)C(CCC2)1
InChI=InChI=1S/C9H14O/c10-9-5-7-3-1-2-4-8(7)6-9/h7-8H,1-6H2
computed SMILES=O=C1CC2CCCCC2C1
accession=JP011877
date=2016.01.19 (Created 2008.10.21, modified 2011.05.06)
author=YAMAMOTO M, DEP. CHEMISTRY, FAC. SCIENCE, NARA WOMEN'S UNIV.
license=CC BY-NC-SA
exact mass=138.10447
ionization energy=70 eV
ion type=[M]+*
computed spectral entropy=3.5393677704484507
computed normalized entropy=0.8330873800722807
SPLASH=splash10-00ko-9100000000-dcf8e726c29c802ce6e3
submitter=submitter = University of Tokyo Team (Faculty of Engineering, University of Tokyo)
MoNA Rating=3.75

>  <NUM PEAKS>  (188) 
70

>  <MASS SPECTRAL PEAKS>  (188) 
15 2.7
26 3.1
27 32.9
28 8.3
29 16.8
31 1.1
32 1.8
37 1.1
38 2.8
39 44.2
40 10.2
41 65.2
42 5.8
43 4.6
44 1.2
45 1
46 1
50 3.7
51 8.3
52 4.3
53 21.4
54 49.4
55 27.6
56 7.4
57 11.2
58 1.5
62 1.6
63 3.4
64 1.9
65 6.1
66 6.5
67 63.1
68 35.5
69 10.7
70 6.4
71 2.5
77 8.2
78 3.7
79 15.5
80 9.3
81 68.1
82 27.6
83 5.7
84 4
89 1.5
91 8.3
92 5.1
93 5.5
94 99.99
95 33.2
96 25.7
97 3.6
103 2.2
104 1.7
105 22.5
106 4.1
107 2.1
109 9.3
110 5
115 2.8
116 2.5
119 1.1
120 3.7
122 7.3
123 3.5
134 10.1
135 1.5
137 1.9
138 53.2
139 5.4

>  <PREDICTED SPECTRUM>  (188) 
26 88
27 309
28 163
29 202
32 4
34 11
36 1
37 54
38 126
39 619
40 283
41 714
42 324
43 233
44 120
45 6
50 182
51 281
52 197
53 520
54 694
55 570
56 214
57 159
58 1
59 43
60 84
61 11
62 65
63 156
64 38
65 288
66 343
67 975
68 747
69 404
70 174
71 29
74 24
75 43
76 27
77 314
78 184
79 532
80 300
81 999
82 464
83 294
84 109
91 258
92 140
93 261
94 856
95 603
96 513
97 192
98 8
105 166
106 3
107 87
108 58
109 405
110 296
111 77
119 63
120 219
121 65
122 46
123 188
124 14
137 43
138 812
139 272
140 53

$$$$

     RDKit          2D

 10 11  0  0  0  0  0  0  0  0999 V2000
   -2.5200   -1.0100    0.0000 C   0  0  0  0  0  0  0  0  0  0  0  0
   -2.5200    0.4900    0.0000 C   0  0  0  0  0  0  0  0  0  0  0  0
   -1.2300   -1.7600    0.0000 C   0  0  0  0  0  0  0  0  0  0  0  0
   -1.2300    1.2400    0.0000 C   0  0  0  0  0  0  0  0  0  0  0  0
    1.5000   -1.4800    0.0000 C   0  0  0  0  0  0  0  0  0  0  0  0
    2.3800   -0.2600    0.0000 C   0  0  0  0  0  0  0  0  0  0  0  0
    0.0700   -1.0100    0.0000 C   0  0  0  0  0  0  0  0  0  0  0  0
    0.0700    0.4900    0.0000 C   0  0  0  0  0  0  0  0  0  0  0  0
    1.5000    0.9500    0.0000 C   0  0  0  0  0  0  0  0  0  0  0  0
    1.9653    2.3760    0.0000 O   0  0  0  0  0  0  0  0  0  0  0  0
  2  1  1  0
  3  1  1  0
  4  2  1  0
  6  5  1  0
  7  3  1  0
  7  5  1  0
  8  4  1  0
  8  7  1  0
  9  6  1  0
  9  8  1  0
 10  9  2  0
M  END
>  <NAME>  (189) 
BICYCLO(4.3.0)NONAN-7-ONE

>  <SYNONYMS>  (189) 


>  <SPECTRUM TYPE>  (189) 
MS1

>  <INSTRUMENT TYPE>  (189) 
EI-B

>  <INSTRUMENT>  (189) 
HITACHI RMU-6M

>  <ION MODE>  (189) 
P

>  <INCHIKEY>  (189) 
ATKSQUYIHKMKTG-UHFFFAOYSA-N

>  <FORMULA>  (189) 
C9H14O

>  <EXACT MASS>  (189) 
138.104465068

>  <MW>  (189) 
138

>  <ID>  (189) 
JP011876

>  <CONTRIBUTOR>  (189) 
University of Tokyo Team, {Faculty of Engineering, University of Tokyo

>  <COMMENT>  (189) 
SMILES=O=C(C1)C(C2)C(CCC2)C1
InChI=InChI=1S/C9H14O/c10-9-6-5-7-3-1-2-4-8(7)9/h7-8H,1-6H2
computed SMILES=O=C1CCC2CCCCC12
accession=JP011876
date=2016.01.19 (Created 2008.10.21, modified 2011.05.06)
author=YAMAMOTO M, DEP. CHEMISTRY, FAC. SCIENCE, NARA WOMEN'S UNIV.
license=CC BY-NC-SA
exact mass=138.10447
ionization energy=70 eV
ion type=[M]+*
computed spectral entropy=3.5143974803304285
computed normalized entropy=0.8388274683060417
SPLASH=splash10-00lg-9100000000-fce1fdc4fd5f77870bac
submitter=submitter = University of Tokyo Team (Faculty of Engineering, University of Tokyo)
MoNA Rating=3.75

>  <NUM PEAKS>  (189) 
66

>  <MASS SPECTRAL PEAKS>  (189) 
15 2.6
26 4.2
27 37.2
28 16.4
29 13.8
31 1
32 1.8
37 1.2
38 3.4
39 41.8
40 8.7
41 56.5
42 5.8
43 4
44 1.6
45 1.2
50 4
51 8.4
52 5.7
53 21
54 46.1
55 25
56 7.7
57 4.4
58 2
62 1.3
63 3.1
64 1.1
65 6.4
66 12.1
67 99.99
68 30.5
69 16.7
70 2.9
71 2.8
72 1.2
77 7.7
78 4.6
79 23.1
80 15.8
81 68.3
82 28
83 42.9
84 4.1
91 6.5
92 5.5
93 4.5
94 61.3
95 18.7
96 64
97 8.3
98 2
105 1.7
107 2.1
109 32.3
110 13.8
111 2.4
119 1.4
120 7
121 1.6
122 2.9
123 2.5
137 4.6
138 54.4
139 7.3
140 1.6

>  <PREDICTED SPECTRUM>  (189) 
26 80
27 295
28 113
29 172
37 41
38 118
39 539
40 280
41 635
42 324
43 155
44 61
45 0
50 170
51 267
52 209
53 502
54 699
55 656
56 254
57 176
58 22
62 65
63 160
64 51
65 254
66 358
67 999
68 755
69 353
70 296
71 95
76 5
77 307
78 216
79 505
80 247
81 991
82 599
83 503
84 315
85 65
89 28
90 21
91 333
92 204
93 183
94 795
95 564
96 570
97 344
98 48
105 118
107 46
108 5
109 390
110 332
111 47
119 67
120 312
121 121
122 27
123 193
124 38
137 182
138 630
139 186

$$$$

     RDKit          2D

 11 12  0  0  0  0  0  0  0  0999 V2000
   -2.3100   -0.7500    0.0000 C   0  0  0  0  0  0  0  0  0  0  0  0
   -2.3100    0.7500    0.0000 C   0  0  0  0  0  0  0  0  0  0  0  0
   -1.0100   -1.5000    0.0000 C   0  0  0  0  0  0  0  0  0  0  0  0
   -1.0100    1.5000    0.0000 C   0  0  0  0  0  0  0  0  0  0  0  0
    1.7200   -1.2100    0.0000 C   0  0  0  0  0  0  0  0  0  0  0  0
    2.1853   -2.6360    0.0000 H   0  0  0  0  0  0  0  0  0  0  0  0
    1.7200    1.2100    0.0000 C   0  0  0  0  0  0  0  0  0  0  0  0
    0.2900   -0.7500    0.0000 C   0  0  0  0  0  0  0  0  0  0  0  0
    0.2900    0.7500    0.0000 C   0  0  0  0  0  0  0  0  0  0  0  0
    2.6000    0.0000    0.0000 C   0  0  0  0  0  0  0  0  0  0  0  0
    4.1000   -0.0000    0.0000 O   0  0  0  0  0  0  0  0  0  0  0  0
  5  6  1  0
  2  1  1  0
  3  1  1  0
  4  2  1  0
  8  3  1  0
  8  5  1  0
  9  4  1  0
  9  7  1  0
  9  8  1  0
 10  5  1  0
 10  7  1  0
 11 10  1  0
M  ISO  1   6   2
M  END
>  <NAME>  (190) 
BICYCLO(4.3.0)NONAN-8-OL (7-D)

>  <SYNONYMS>  (190) 


>  <SPECTRUM TYPE>  (190) 
MS1

>  <INSTRUMENT TYPE>  (190) 
EI-B

>  <INSTRUMENT>  (190) 
HITACHI RMU-6M

>  <ION MODE>  (190) 
P

>  <INCHIKEY>  (190) 
FNTAZLZSKBIIIW-UICOGKGYSA-N

>  <FORMULA>  (190) 
C9H16O

>  <EXACT MASS>  (190) 
141.126391878

>  <MW>  (190) 
141

>  <ID>  (190) 
JP011875

>  <CONTRIBUTOR>  (190) 
University of Tokyo Team, {Faculty of Engineering, University of Tokyo

>  <COMMENT>  (190) 
SMILES=OC(C1)C([2H])C(C2)C(CCC2)1
InChI=InChI=1S/C9H16O/c10-9-5-7-3-1-2-4-8(7)6-9/h7-10H,1-6H2/i5D
computed SMILES=[H]C1C(O)CC2CCCCC21
accession=JP011875
date=2016.01.19 (Created 2008.10.21, modified 2011.05.06)
author=YAMAMOTO M, DEP. CHEMISTRY, FAC. SCIENCE, NARA WOMEN'S UNIV.
license=CC BY-NC-SA
exact mass=140.12012
ionization energy=70 eV
ion type=[M]+*
computed spectral entropy=3.703586263085327
computed normalized entropy=0.8500880849316399
SPLASH=splash10-001i-9100000000-b36640e3d2a43b8b896c
submitter=submitter = University of Tokyo Team (Faculty of Engineering, University of Tokyo)
MoNA Rating=3.75

>  <NUM PEAKS>  (190) 
78

>  <MASS SPECTRAL PEAKS>  (190) 
21 1
22 1.3
24 1.1
25 1.1
26 2.9
27 23.7
28 10.3
29 24.7
30 5.9
31 34.9
32 4.3
33 1.1
38 1.8
39 20
40 7.6
41 29.4
42 11.1
43 8.5
44 5.3
45 14.9
46 3
50 1.3
51 3.9
52 3.3
53 10
54 18.4
55 22.3
56 8.3
57 3.9
58 10.5
59 15.5
60 1.8
61 1.8
62 1.1
63 1.5
64 1.5
65 4
66 4.9
67 31.5
68 20
69 6.5
70 3.6
71 12.5
72 3.1
73 2.5
74 9.6
75 1
76 1.9
77 4.1
78 3.1
79 10.8
80 25.8
81 99.99
82 16.8
83 3.4
84 12.3
85 3.6
91 2
92 2.4
93 9.9
94 32.4
95 19.4
96 17.4
97 3.1
98 3.1
99 1.9
100 1.1
101 1.5
107 1.9
108 6.3
109 3
110 1.3
111 1.6
112 1.6
122 3.1
123 64.5
124 7.4
125 1.5

>  <PREDICTED SPECTRUM>  (190) 
25 1
26 92
27 339
28 124
29 294
31 200
37 29
38 107
39 525
40 221
41 677
42 324
43 416
44 271
45 219
46 71
47 29
48 31
50 141
51 238
52 206
53 396
54 440
55 564
56 366
57 577
58 336
59 117
60 68
62 51
63 101
64 91
65 255
66 488
67 784
68 491
69 357
70 453
71 305
72 59
74 52
75 55
77 380
78 322
79 708
80 718
81 860
82 506
83 362
84 223
85 134
86 30
91 386
92 365
93 435
94 700
95 735
96 473
97 450
98 242
99 139
100 31
105 141
108 502
109 190
110 207
111 96
112 110
113 0
120 80
121 121
122 273
123 999
124 388
125 98
126 33
140 122
141 217
142 31

$$$$

     RDKit          2D

 11 12  0  0  0  0  0  0  0  0999 V2000
   -2.5200   -1.0100    0.0000 C   0  0  0  0  0  0  0  0  0  0  0  0
   -2.5200    0.4900    0.0000 C   0  0  0  0  0  0  0  0  0  0  0  0
   -1.2300   -1.7600    0.0000 C   0  0  0  0  0  0  0  0  0  0  0  0
   -1.2300    1.2400    0.0000 C   0  0  0  0  0  0  0  0  0  0  0  0
    1.5000   -1.4800    0.0000 C   0  0  0  0  0  0  0  0  0  0  0  0
    2.3800   -0.2600    0.0000 C   0  0  0  0  0  0  0  0  0  0  0  0
    0.0700   -1.0100    0.0000 C   0  0  0  0  0  0  0  0  0  0  0  0
    0.0700    0.4900    0.0000 C   0  0  0  0  0  0  0  0  0  0  0  0
    1.5000    0.9500    0.0000 C   0  0  0  0  0  0  0  0  0  0  0  0
    2.7995    1.6991    0.0000 H   0  0  0  0  0  0  0  0  0  0  0  0
    0.8924    2.3214    0.0000 O   0  0  0  0  0  0  0  0  0  0  0  0
  9 10  1  0
  2  1  1  0
  3  1  1  0
  4  2  1  0
  6  5  1  0
  7  3  1  0
  7  5  1  0
  8  4  1  0
  8  7  1  0
  9  6  1  0
  9  8  1  0
 11  9  1  0
M  ISO  1  10   2
M  END
>  <NAME>  (191) 
BICYCLO(4.3.0)NONAN-7-OL (7-D)

>  <SYNONYMS>  (191) 


>  <SPECTRUM TYPE>  (191) 
MS1

>  <INSTRUMENT TYPE>  (191) 
EI-B

>  <INSTRUMENT>  (191) 
HITACHI RMU-6M

>  <ION MODE>  (191) 
P

>  <INCHIKEY>  (191) 
WHHUTBUNHHDROB-QOWOAITPSA-N

>  <FORMULA>  (191) 
C9H16O

>  <EXACT MASS>  (191) 
141.126391878

>  <MW>  (191) 
141

>  <ID>  (191) 
JP011874

>  <CONTRIBUTOR>  (191) 
University of Tokyo Team, {Faculty of Engineering, University of Tokyo

>  <COMMENT>  (191) 
SMILES=[2H]C(O)(C1)C(C2)C(CCC2)C1
InChI=InChI=1S/C9H16O/c10-9-6-5-7-3-1-2-4-8(7)9/h7-10H,1-6H2/i9D
computed SMILES=[H]C1(O)CCC2CCCCC21
accession=JP011874
date=2016.01.19 (Created 2008.10.21, modified 2011.05.06)
author=YAMAMOTO M, DEP. CHEMISTRY, FAC. SCIENCE, NARA WOMEN'S UNIV.
license=CC BY-NC-SA
exact mass=140.12012
ionization energy=70 eV
ion type=[M]+*
computed spectral entropy=3.662157196575666
computed normalized entropy=0.8430757920581236
SPLASH=splash10-01c3-9100000000-8b3a20ce567dc8b92a38
submitter=submitter = University of Tokyo Team (Faculty of Engineering, University of Tokyo)
MoNA Rating=3.75

>  <NUM PEAKS>  (191) 
77

>  <MASS SPECTRAL PEAKS>  (191) 
22 1.2
26 2
27 23
28 10.1
29 15.5
30 7.8
31 3.2
32 4.7
38 2
39 26.4
40 9
41 43.1
42 14.3
43 7.7
44 4
45 6.4
46 2.7
50 1.6
51 4.6
52 4.1
53 12.8
54 29.9
55 41.5
56 12.6
57 5.6
58 18.2
59 23
60 2.8
62 1
63 1.3
64 1.2
65 4.5
66 8.7
67 65.5
68 35.8
69 8.6
70 3.1
71 4.3
72 2.4
73 1.2
75 1.3
76 1.1
77 5.5
78 5.1
79 15.9
80 23.3
81 99.99
82 25
83 20.2
84 5.6
85 2.4
86 1.5
87 1
89 1.5
91 2.8
92 2.9
93 10.9
94 30.5
95 23.1
96 43.7
97 23.5
98 4.5
99 1.8
107 3.8
108 5.4
109 4.2
110 1.6
111 1.6
112 5.4
113 4.5
114 1
121 1.2
122 4.6
123 80.6
124 9.2
126 1.4
141 3.7

>  <PREDICTED SPECTRUM>  (191) 
26 48
27 183
28 75
29 116
31 114
38 65
39 413
40 201
41 575
42 291
43 259
44 293
45 98
50 124
51 196
52 135
53 350
54 457
55 563
56 349
57 389
58 264
59 90
60 113
62 30
63 72
64 3
65 204
66 346
67 960
68 591
69 455
70 526
71 280
72 21
73 52
74 54
77 304
78 220
79 602
80 619
81 999
82 624
83 343
84 293
85 156
91 320
92 250
93 507
94 682
95 787
96 428
97 547
98 244
99 214
100 51
105 146
107 1
108 647
109 277
110 240
111 144
112 292
113 89
120 34
121 26
122 258
123 969
124 335
125 143
126 106
140 36
141 306
142 54

$$$$

     RDKit          2D

 10 11  0  0  0  0  0  0  0  0999 V2000
   -2.3100   -0.7500    0.0000 C   0  0  0  0  0  0  0  0  0  0  0  0
   -2.3100    0.7500    0.0000 C   0  0  0  0  0  0  0  0  0  0  0  0
   -1.0100   -1.5000    0.0000 C   0  0  0  0  0  0  0  0  0  0  0  0
   -1.0100    1.5000    0.0000 C   0  0  0  0  0  0  0  0  0  0  0  0
    1.7200   -1.2100    0.0000 C   0  0  0  0  0  0  0  0  0  0  0  0
    1.7200    1.2100    0.0000 C   0  0  0  0  0  0  0  0  0  0  0  0
    0.2900   -0.7500    0.0000 C   0  0  0  0  0  0  0  0  0  0  0  0
    0.2900    0.7500    0.0000 C   0  0  0  0  0  0  0  0  0  0  0  0
    2.6000    0.0000    0.0000 C   0  0  0  0  0  0  0  0  0  0  0  0
    4.1000   -0.0000    0.0000 O   0  0  0  0  0  0  0  0  0  0  0  0
  2  1  1  0
  3  1  1  0
  4  2  1  0
  7  3  1  0
  7  5  1  0
  8  4  1  0
  8  6  1  0
  8  7  1  0
  9  5  1  0
  9  6  1  0
 10  9  1  0
M  END
>  <NAME>  (192) 
BICYCLO(4.3.0)NONAN-8-OL

>  <SYNONYMS>  (192) 


>  <SPECTRUM TYPE>  (192) 
MS1

>  <INSTRUMENT TYPE>  (192) 
EI-B

>  <INSTRUMENT>  (192) 
HITACHI RMU-6M

>  <ION MODE>  (192) 
P

>  <INCHIKEY>  (192) 
FNTAZLZSKBIIIW-UHFFFAOYSA-N

>  <FORMULA>  (192) 
C9H16O

>  <EXACT MASS>  (192) 
140.120115132

>  <MW>  (192) 
140

>  <ID>  (192) 
JP011873

>  <CONTRIBUTOR>  (192) 
University of Tokyo Team, {Faculty of Engineering, University of Tokyo

>  <COMMENT>  (192) 
SMILES=OC(C1)CC(C2)C(CCC2)1
InChI=InChI=1S/C9H16O/c10-9-5-7-3-1-2-4-8(7)6-9/h7-10H,1-6H2
computed SMILES=OC1CC2CCCCC2C1
accession=JP011873
date=2016.01.19 (Created 2008.10.21, modified 2011.05.06)
author=YAMAMOTO M, DEP. CHEMISTRY, FAC. SCIENCE, NARA WOMEN'S UNIV.
license=CC BY-NC-SA
exact mass=140.12012
ionization energy=70 eV
ion type=[M]+*
computed spectral entropy=3.455335054632914
computed normalized entropy=0.8405354113991467
SPLASH=splash10-001l-9100000000-8cdfb1a20aee25636398
submitter=submitter = University of Tokyo Team (Faculty of Engineering, University of Tokyo)
MoNA Rating=3.75

>  <NUM PEAKS>  (192) 
61

>  <MASS SPECTRAL PEAKS>  (192) 
15 2.8
26 1.6
27 28.2
28 5.4
29 21
31 6
38 1.7
39 34.2
40 5.9
41 47.2
42 7.1
43 10.3
44 5.3
45 2.8
50 2
51 5.5
52 3
53 15.3
54 24
55 36.1
56 4.7
57 14.4
58 2.7
63 2
64 1.2
65 4.8
66 7.6
67 44.5
68 22.8
69 6.5
70 17.4
71 2.8
77 8.8
78 3.5
79 25.8
80 61.6
81 99.99
82 9.4
83 16.8
84 3.3
85 1.1
91 5.5
92 2.1
93 37.4
94 30
95 7.9
96 20.6
97 4.5
98 1.9
105 6.3
107 9.5
108 1.3
109 2.1
111 1.5
115 1.2
116 1
121 3.5
122 76.7
123 9.4
134 2.3
138 1.5

>  <PREDICTED SPECTRUM>  (192) 
26 2
27 147
29 118
31 125
38 28
39 378
40 132
41 600
42 227
43 439
44 240
45 208
47 134
48 5
50 45
51 155
52 122
53 362
54 379
55 672
56 270
57 400
58 225
59 129
60 119
62 14
63 42
64 13
65 193
66 259
67 741
68 426
69 362
70 535
71 302
72 7
75 30
77 285
78 221
79 674
80 516
81 840
82 235
83 364
84 166
85 31
86 8
91 420
92 189
93 659
94 575
95 288
96 450
97 411
98 56
103 14
104 476
105 187
106 59
107 545
108 429
109 144
110 25
111 140
112 29
121 299
122 999
123 300
124 37
140 310
141 78

$$$$

     RDKit          2D

 10 11  0  0  0  0  0  0  0  0999 V2000
   -2.5200   -1.0100    0.0000 C   0  0  0  0  0  0  0  0  0  0  0  0
   -2.5200    0.4900    0.0000 C   0  0  0  0  0  0  0  0  0  0  0  0
   -1.2300   -1.7600    0.0000 C   0  0  0  0  0  0  0  0  0  0  0  0
   -1.2300    1.2400    0.0000 C   0  0  0  0  0  0  0  0  0  0  0  0
    1.5000   -1.4800    0.0000 C   0  0  0  0  0  0  0  0  0  0  0  0
    2.3800   -0.2600    0.0000 C   0  0  0  0  0  0  0  0  0  0  0  0
    0.0700   -1.0100    0.0000 C   0  0  0  0  0  0  0  0  0  0  0  0
    0.0700    0.4900    0.0000 C   0  0  0  0  0  0  0  0  0  0  0  0
    1.5000    0.9500    0.0000 C   0  0  0  0  0  0  0  0  0  0  0  0
    1.9653    2.3760    0.0000 O   0  0  0  0  0  0  0  0  0  0  0  0
  2  1  1  0
  3  1  1  0
  4  2  1  0
  6  5  1  0
  7  3  1  0
  7  5  1  0
  8  4  1  0
  8  7  1  0
  9  6  1  0
  9  8  1  0
 10  9  1  0
M  END
>  <NAME>  (193) 
BICYLO(4.3.1)NONAN-7-OL

>  <SYNONYMS>  (193) 


>  <SPECTRUM TYPE>  (193) 
MS1

>  <INSTRUMENT TYPE>  (193) 
EI-B

>  <INSTRUMENT>  (193) 
HITACHI RMU-6M

>  <ION MODE>  (193) 
P

>  <INCHIKEY>  (193) 
WHHUTBUNHHDROB-UHFFFAOYSA-N

>  <FORMULA>  (193) 
C9H16O

>  <EXACT MASS>  (193) 
140.120115132

>  <MW>  (193) 
140

>  <ID>  (193) 
JP011872

>  <CONTRIBUTOR>  (193) 
University of Tokyo Team, {Faculty of Engineering, University of Tokyo

>  <COMMENT>  (193) 
SMILES=OC(C1)C(C2)C(CCC2)C1
InChI=InChI=1S/C9H16O/c10-9-6-5-7-3-1-2-4-8(7)9/h7-10H,1-6H2
computed SMILES=OC1CCC2CCCCC12
accession=JP011872
date=2016.01.19 (Created 2008.10.21, modified 2011.05.06)
author=YAMAMOTO M, DEP. CHEMISTRY, FAC. SCIENCE, NARA WOMEN'S UNIV.
license=CC BY-NC-SA
exact mass=140.12012
ionization energy=70 eV
ion type=[M]+*
computed spectral entropy=3.5382876488083346
computed normalized entropy=0.8356633554131369
SPLASH=splash10-00sl-9100000000-55a514d9206793dd772a
submitter=submitter = University of Tokyo Team (Faculty of Engineering, University of Tokyo)
MoNA Rating=3.75

>  <NUM PEAKS>  (193) 
69

>  <MASS SPECTRAL PEAKS>  (193) 
26 2.4
27 29
28 7.9
29 20.5
30 2.7
31 9
32 2.1
38 2.6
39 31.9
40 7.5
41 54.4
42 6.9
43 8.8
44 8.8
45 3.2
50 2.4
51 6.1
52 4.4
53 18.7
54 34.6
55 53.5
56 5
57 21.6
58 31.3
59 3.1
62 1.1
63 1.8
65 5.9
66 11.6
67 89.2
68 38.6
69 8.1
70 5.8
71 3
72 1.8
73 1.1
74 1.1
77 10.4
78 4.3
79 27.8
80 52.3
81 99.99
82 17.4
83 26.8
84 3.3
91 4.9
92 2
93 24.5
94 38
95 11.2
96 68.1
97 17.8
98 3.2
99 1.4
105 1.3
107 9.6
108 1.8
109 5.1
110 1.6
111 6.1
112 4.3
121 2.8
122 89
123 10.8
124 1.2
138 2.3
139 1.1
140 4.3
141 1.1

>  <PREDICTED SPECTRUM>  (193) 
26 66
27 284
28 56
29 274
31 186
38 67
39 505
40 218
41 715
42 299
43 434
44 245
45 101
50 88
51 237
52 192
53 434
54 484
55 691
56 323
57 716
58 318
59 87
60 5
63 64
64 74
65 267
66 369
67 911
68 508
69 427
70 575
71 268
72 51
77 383
78 281
79 689
80 707
81 916
82 426
83 573
84 256
85 55
86 35
91 428
92 231
93 736
94 700
95 354
96 385
97 512
98 130
104 202
105 128
107 551
108 174
109 137
111 276
112 216
113 98
121 268
122 999
123 259
124 34
125 11
140 136

$$$$

     RDKit          2D

 30 34  0  0  1  0  0  0  0  0999 V2000
   -2.8258   -5.4880    0.0000 C   0  0  0  0  0  0  0  0  0  0  0  0
   -6.0600    3.8971    0.0000 C   0  0  0  0  0  0  0  0  0  0  0  0
    6.8100   -0.0000    0.0000 C   0  0  0  0  0  0  0  0  0  0  0  0
   -1.3573   -5.1783    0.0000 C   0  0  0  0  0  0  0  0  0  0  0  0
   -3.8291   -4.3718    0.0000 C   0  0  0  0  0  0  0  0  0  0  0  0
   -6.8108    2.5976    0.0000 C   0  0  0  0  0  0  0  0  0  0  0  0
   -4.5592    3.8976    0.0000 C   0  0  0  0  0  0  0  0  0  0  0  0
    6.0600   -1.3000    0.0000 C   0  0  0  0  0  0  0  0  0  0  0  0
    6.0600    1.3000    0.0000 C   0  0  0  0  0  0  0  0  0  0  0  0
   -0.8920   -3.7523    0.0000 C   0  0  0  0  0  0  0  0  0  0  0  0
   -3.3638   -2.9458    0.0000 C   0  0  0  0  0  0  0  0  0  0  0  0
   -6.0608    1.2986    0.0000 C   0  0  0  0  0  0  0  0  0  0  0  0
   -3.8092    2.5986    0.0000 C   0  0  0  0  0  0  0  0  0  0  0  0
    4.5600   -1.3000    0.0000 C   0  0  0  0  0  0  0  0  0  0  0  0
    4.5600    1.3000    0.0000 C   0  0  0  0  0  0  0  0  0  0  0  0
   -1.4300    1.2100    0.0000 C   0  0  0  0  0  0  0  0  0  0  0  0
   -1.8953   -2.6360    0.0000 C   0  0  0  0  0  0  0  0  0  0  0  0
   -4.5600    1.2990    0.0000 C   0  0  0  0  0  0  0  0  0  0  0  0
    3.8100   -0.0000    0.0000 C   0  0  0  0  0  0  0  0  0  0  0  0
    0.0000    0.7500    0.0000 C   0  0  0  0  0  0  0  0  0  0  0  0
    0.0000   -0.7500    0.0000 C   0  0  0  0  0  0  0  0  0  0  0  0
   -1.4300   -1.2100    0.0000 C   0  0  0  0  0  0  0  0  0  0  0  0
   -3.8100    0.0000    0.0000 C   0  0  0  0  0  0  0  0  0  0  0  0
    1.4300    1.2100    0.0000 C   0  0  0  0  0  0  0  0  0  0  0  0
    1.4300   -1.2100    0.0000 C   0  0  0  0  0  0  0  0  0  0  0  0
   -2.3100    0.0000    0.0000 N   0  0  0  0  0  0  0  0  0  0  0  0
    2.3100    0.0000    0.0000 N   0  0  0  0  0  0  0  0  0  0  0  0
   -4.5600   -1.2990    0.0000 O   0  0  0  0  0  0  0  0  0  0  0  0
    1.8953    2.6360    0.0000 O   0  0  0  0  0  0  0  0  0  0  0  0
    1.8953   -2.6360    0.0000 O   0  0  0  0  0  0  0  0  0  0  0  0
  4  1  2  0
  5  1  1  0
  6  2  2  0
  7  2  1  0
  8  3  2  0
  9  3  1  0
 10  4  1  0
 11  5  2  0
 12  6  1  0
 13  7  2  0
 14  8  1  0
 15  9  2  0
 17 10  2  0
 17 11  1  0
 18 12  2  0
 18 13  1  0
 19 14  2  0
 19 15  1  0
 20 16  1  1
 21 20  1  0
 22 17  1  1
 22 21  1  0
 23 18  1  0
 24 20  1  0
 21 25  1  1
 26 16  1  0
 26 22  1  0
 26 23  1  0
 27 19  1  0
 27 24  1  0
 27 25  1  0
 28 23  2  0
 29 24  2  0
 30 25  2  0
M  END
>  <NAME>  (194) 
(2S,2AR,5AS)-1-BENZOYL-3,5-DIOXO-2,4-DIPHENYL-1,2,3,4,5,6-HEXAHYDROPYRROLO(3,4-C)PYRROLE

>  <SYNONYMS>  (194) 


>  <SPECTRUM TYPE>  (194) 
MS1

>  <INSTRUMENT TYPE>  (194) 
EI-B

>  <INSTRUMENT>  (194) 
Unknown

>  <ION MODE>  (194) 
P

>  <INCHIKEY>  (194) 
LZVNGKZIHPRVON-YPAWHYETSA-N

>  <FORMULA>  (194) 
C25H20N2O3

>  <EXACT MASS>  (194) 
396.1473925

>  <MW>  (194) 
396

>  <ID>  (194) 
JP011871

>  <CONTRIBUTOR>  (194) 
University of Tokyo Team, {Faculty of Engineering, University of Tokyo

>  <COMMENT>  (194) 
SMILES=C(C13[H])(=O)N(c(c5)cccc5)C(C1([H])CN(C3([H])c(c4)cccc4)C(=O)c(c2)cccc2)=O
InChI=InChI=1S/C25H20N2O3/c28-23(18-12-6-2-7-13-18)26-16-20-21(22(26)17-10-4-1-5-11-17)25(30)27(24(20)29)19-14-8-3-9-15-19/h1-15,20-22H,16H2/t20-,21-,22-/m1/s1
computed SMILES=O=C(C=1C=CC=CC1)N2CC3C(=O)N(C=4C=CC=CC4)C(=O)C3C2C=5C=CC=CC5
accession=JP011871
date=2016.01.19 (Created 2008.10.21, modified 2011.05.06)
author=YOSHIKI O, FAC, TECHNOLOGY, OSAKA UNIV.
license=CC BY-NC-SA
exact mass=396.14739
ionization energy=70 eV
ion type=[M]+*
computed spectral entropy=2.731781320122031
computed normalized entropy=0.7176316070739586
SPLASH=splash10-0a6r-7910000000-8d4c274b09399d94331c
submitter=submitter = University of Tokyo Team (Faculty of Engineering, University of Tokyo)
MoNA Rating=3.75

>  <NUM PEAKS>  (194) 
45

>  <MASS SPECTRAL PEAKS>  (194) 
50 2.7
51 12.7
52 1.5
54 1.8
55 1.6
63 1.8
64 2
65 2.9
67 1.4
68 2.8
69 1.9
76 2.3
77 60.5
78 5.7
84 2.4
86 1.5
89 2.1
90 2.2
91 11.6
92 1.2
93 1.2
103 2.4
105 99.99
106 8.9
115 4
116 1.5
117 5.6
118 5.1
119 2
128 2.1
129 2.3
131 1
143 1.5
144 5
145 1
173 2.6
188 7.4
208 1
209 6.6
210 1.2
248 2.3
291 13.6
292 3
396 10.4
397 2.8

>  <PREDICTED SPECTRUM>  (194) 
17 6
18 17
26 20
27 48
28 56
34 4
37 5
38 59
39 158
40 95
41 93
42 127
43 99
44 17
45 31
50 136
51 370
52 138
53 59
54 80
55 48
56 36
63 121
64 142
65 174
66 67
67 17
68 31
74 52
75 82
76 115
77 809
78 222
79 9
80 22
88 24
89 138
90 150
91 390
92 106
93 67
102 63
103 139
104 81
105 999
106 270
115 130
116 148
117 124
118 260
119 200
120 15
128 52
129 150
130 50
131 35
132 35
133 7
134 7
143 9
144 257
145 44
146 13
155 6
158 20
160 17
170 22
171 54
172 69
173 18
185 11
187 19
188 33
210 6
222 5
223 12
248 58
249 55
250 84
277 49
291 304
292 220
293 9
395 7
396 471
397 232
398 57

$$$$

     RDKit          2D

 26 29  0  0  1  0  0  0  0  0999 V2000
   -3.3213   -2.1707    0.0000 C   0  0  0  0  0  0  0  0  0  0  0  0
   -2.3606   -4.0620    0.0000 C   0  0  0  0  0  0  0  0  0  0  0  0
   -0.4693   -3.1013    0.0000 C   0  0  0  0  0  0  0  0  0  0  0  0
   -2.8258    5.4880    0.0000 C   0  0  0  0  0  0  0  0  0  0  0  0
    6.8100   -0.0000    0.0000 C   0  0  0  0  0  0  0  0  0  0  0  0
   -3.8291    4.3718    0.0000 C   0  0  0  0  0  0  0  0  0  0  0  0
   -1.3573    5.1783    0.0000 C   0  0  0  0  0  0  0  0  0  0  0  0
    6.0600   -1.3000    0.0000 C   0  0  0  0  0  0  0  0  0  0  0  0
    6.0600    1.3000    0.0000 C   0  0  0  0  0  0  0  0  0  0  0  0
   -3.3638    2.9458    0.0000 C   0  0  0  0  0  0  0  0  0  0  0  0
   -0.8920    3.7523    0.0000 C   0  0  0  0  0  0  0  0  0  0  0  0
    4.5600   -1.3000    0.0000 C   0  0  0  0  0  0  0  0  0  0  0  0
    4.5600    1.3000    0.0000 C   0  0  0  0  0  0  0  0  0  0  0  0
   -1.8953    2.6360    0.0000 C   0  0  0  0  0  0  0  0  0  0  0  0
    3.8100   -0.0000    0.0000 C   0  0  0  0  0  0  0  0  0  0  0  0
    0.0000    0.7500    0.0000 C   0  0  0  0  0  0  0  0  0  0  0  0
    0.0000   -0.7500    0.0000 C   0  0  0  0  0  0  0  0  0  0  0  0
   -1.4300    1.2100    0.0000 C   0  0  0  0  0  0  0  0  0  0  0  0
   -1.4300   -1.2100    0.0000 C   0  0  0  0  0  0  0  0  0  0  0  0
    1.4300    1.2100    0.0000 C   0  0  0  0  0  0  0  0  0  0  0  0
    1.4300   -1.2100    0.0000 C   0  0  0  0  0  0  0  0  0  0  0  0
   -2.3100    0.0000    0.0000 N   0  0  0  0  0  0  0  0  0  0  0  0
    2.3100    0.0000    0.0000 N   0  0  0  0  0  0  0  0  0  0  0  0
    1.8953    2.6360    0.0000 O   0  0  0  0  0  0  0  0  0  0  0  0
    1.8953   -2.6360    0.0000 O   0  0  0  0  0  0  0  0  0  0  0  0
   -1.8953   -2.6360    0.0000 Si  0  0  0  0  0  4  0  0  0  0  0  0
  6  4  2  0
  7  4  1  0
  8  5  2  0
  9  5  1  0
 10  6  1  0
 11  7  2  0
 12  8  1  0
 13  9  2  0
 14 10  2  0
 14 11  1  0
 15 12  2  0
 15 13  1  0
 17 16  1  0
 18 14  1  0
 16 18  1  6
 19 17  1  0
 20 16  1  0
 17 21  1  6
 22 18  2  0
 19 22  1  0
 23 15  1  0
 23 20  1  0
 23 21  1  0
 24 20  2  0
 25 21  2  0
 26  1  1  0
 26  2  1  0
 26  3  1  0
 19 26  1  6
M  END
>  <NAME>  (195) 
(2AR,5AR,6S)-6-TRIMETHYLSILYL-3,5-DIOXO-2,4-DIPHENYL-3,4,5,6-TETRAHYDROPYRROLO(3,4-C)PYRROLE

>  <SYNONYMS>  (195) 


>  <SPECTRUM TYPE>  (195) 
MS1

>  <INSTRUMENT TYPE>  (195) 
EI-B

>  <INSTRUMENT>  (195) 
Unknown

>  <ION MODE>  (195) 
P

>  <INCHIKEY>  (195) 
NMQPRLMQDAJJKZ-AOIWGVFYSA-N

>  <FORMULA>  (195) 
C21H22N2O2Si

>  <EXACT MASS>  (195) 
362.145054474

>  <MW>  (195) 
362

>  <ID>  (195) 
JP011870

>  <CONTRIBUTOR>  (195) 
University of Tokyo Team, {Faculty of Engineering, University of Tokyo

>  <COMMENT>  (195) 
SMILES=c(c4)ccc(c4)N(C(=O)1)C(=O)C([H])(C([H])([Si](C)(C)C)2)C([H])1C(c(c3)cccc3)=N2
InChI=InChI=1S/C21H22N2O2Si/c1-26(2,3)19-17-16(18(22-19)14-10-6-4-7-11-14)20(24)23(21(17)25)15-12-8-5-9-13-15/h4-13,16-17,19H,1-3H3/t16-,17+,19+/m1/s1
computed SMILES=O=C1N(C=2C=CC=CC2)C(=O)C3C(N=C(C=4C=CC=CC4)C13)[Si](C)(C)C
accession=JP011870
date=2016.01.19 (Created 2008.10.21, modified 2011.05.06)
author=YOSHIKI O, FAC, TECHNOLOGY, OSAKA UNIV.
license=CC BY-NC-SA
exact mass=362.14505
ionization energy=70 eV
ion type=[M]+*
computed spectral entropy=3.2308551476901513
computed normalized entropy=0.8758364668400904
SPLASH=splash10-0229-9445000000-6462ceca91ff58192536
submitter=submitter = University of Tokyo Team (Faculty of Engineering, University of Tokyo)
MoNA Rating=3.75

>  <NUM PEAKS>  (195) 
40

>  <MASS SPECTRAL PEAKS>  (195) 
51 6.6
52 3.4
63 3.7
64 3.1
67 5.3
68 3.6
73 99.99
74 9.1
75 8.4
77 14.5
89 3.4
91 5.3
93 3.2
103 4.3
104 4.7
105 11.2
115 11.6
116 3.2
117 17.3
119 4.5
130 14.2
131 11.6
142 7
143 4.2
200 7.2
214 9.6
215 13.8
216 3.2
242 11
278 12.1
279 12.8
290 6.4
291 6.1
347 13.7
348 13
349 4.1
361 8.2
362 27.7
363 28.5
364 8.9

>  <PREDICTED SPECTRUM>  (195) 
14 5
15 67
17 6
18 28
26 31
27 129
28 93
29 130
31 109
38 43
39 183
40 85
41 94
42 151
43 217
44 139
45 346
46 42
47 88
49 20
50 110
51 313
52 114
53 13
54 54
55 59
56 64
57 88
58 130
59 371
60 85
61 69
62 57
63 153
64 128
65 76
66 106
67 55
68 13
69 70
70 143
71 104
72 132
73 999
74 282
75 390
76 209
77 683
78 162
82 9
83 11
84 48
85 80
86 42
87 66
88 89
89 192
90 162
91 240
92 44
98 36
99 27
100 60
101 68
102 175
103 170
104 306
105 217
109 5
113 50
114 36
115 234
116 123
117 206
118 161
119 106
120 36
121 94
128 99
129 105
130 107
131 70
132 191
133 76
134 73
135 96
140 112
141 142
142 146
143 173
144 232
145 90
146 107
147 220
148 141
154 1
155 24
157 28
158 41
159 38
160 52
161 85
162 91
163 57
164 9
168 14
170 7
171 7
172 56
173 123
174 220
175 145
176 77
177 35
178 9
186 42
187 197
188 269
189 373
190 209
191 29
199 24
200 18
203 3
204 74
215 149
216 149
217 88
218 40
231 51
243 16
244 49
245 179
272 4
275 33
289 247
290 82
347 322
348 207
349 9
361 278
362 496
363 192
364 41
366 13

$$$$

     RDKit          2D

 34 38  0  0  1  0  0  0  0  0999 V2000
   -0.0107   -3.1013    0.0000 C   0  0  0  0  0  0  0  0  0  0  0  0
    1.8806   -4.0620    0.0000 C   0  0  0  0  0  0  0  0  0  0  0  0
    2.8413   -2.1707    0.0000 C   0  0  0  0  0  0  0  0  0  0  0  0
    2.3458    5.4880    0.0000 C   0  0  0  0  0  0  0  0  0  0  0  0
    6.0600   -3.8971    0.0000 C   0  0  0  0  0  0  0  0  0  0  0  0
   -7.2900    0.0000    0.0000 C   0  0  0  0  0  0  0  0  0  0  0  0
    0.8773    5.1783    0.0000 C   0  0  0  0  0  0  0  0  0  0  0  0
    3.3491    4.3718    0.0000 C   0  0  0  0  0  0  0  0  0  0  0  0
    6.8108   -2.5976    0.0000 C   0  0  0  0  0  0  0  0  0  0  0  0
    4.5592   -3.8976    0.0000 C   0  0  0  0  0  0  0  0  0  0  0  0
   -6.5400    1.3000    0.0000 C   0  0  0  0  0  0  0  0  0  0  0  0
   -6.5400   -1.3000    0.0000 C   0  0  0  0  0  0  0  0  0  0  0  0
    0.4120    3.7523    0.0000 C   0  0  0  0  0  0  0  0  0  0  0  0
    2.8838    2.9458    0.0000 C   0  0  0  0  0  0  0  0  0  0  0  0
    6.0608   -1.2986    0.0000 C   0  0  0  0  0  0  0  0  0  0  0  0
    3.8092   -2.5986    0.0000 C   0  0  0  0  0  0  0  0  0  0  0  0
   -5.0400    1.3000    0.0000 C   0  0  0  0  0  0  0  0  0  0  0  0
   -5.0400   -1.3000    0.0000 C   0  0  0  0  0  0  0  0  0  0  0  0
    1.4153    2.6360    0.0000 C   0  0  0  0  0  0  0  0  0  0  0  0
    4.5600   -1.2990    0.0000 C   0  0  0  0  0  0  0  0  0  0  0  0
   -4.2900    0.0000    0.0000 C   0  0  0  0  0  0  0  0  0  0  0  0
   -0.4800    0.7500    0.0000 C   0  0  0  0  0  0  0  0  0  0  0  0
   -0.4800   -0.7500    0.0000 C   0  0  0  0  0  0  0  0  0  0  0  0
    0.9500    1.2100    0.0000 C   0  0  0  0  0  0  0  0  0  0  0  0
    3.8100   -0.0000    0.0000 C   0  0  0  0  0  0  0  0  0  0  0  0
   -1.9100    1.2100    0.0000 C   0  0  0  0  0  0  0  0  0  0  0  0
   -1.9100   -1.2100    0.0000 C   0  0  0  0  0  0  0  0  0  0  0  0
    0.9500   -1.2100    0.0000 C   0  0  0  0  0  0  0  0  0  0  0  0
   -2.7900    0.0000    0.0000 N   0  0  0  0  0  0  0  0  0  0  0  0
    1.8300    0.0000    0.0000 N   0  0  0  0  0  0  0  0  0  0  0  0
    4.5600    1.2990    0.0000 O   0  0  0  0  0  0  0  0  0  0  0  0
   -2.3753    2.6360    0.0000 O   0  0  0  0  0  0  0  0  0  0  0  0
   -2.3753   -2.6360    0.0000 O   0  0  0  0  0  0  0  0  0  0  0  0
    1.4153   -2.6360    0.0000 Si  0  0  0  0  0  4  0  0  0  0  0  0
  7  4  2  0
  8  4  1  0
  9  5  2  0
 10  5  1  0
 11  6  2  0
 12  6  1  0
 13  7  1  0
 14  8  2  0
 15  9  1  0
 16 10  2  0
 17 11  1  0
 18 12  2  0
 19 13  2  0
 19 14  1  0
 20 15  2  0
 20 16  1  0
 21 17  2  0
 21 18  1  0
 23 22  1  0
 24 19  1  1
 24 22  1  0
 25 20  1  0
 22 26  1  1
 23 27  1  6
 28 23  1  0
 29 21  1  0
 29 26  1  0
 29 27  1  0
 30 24  1  0
 30 25  1  0
 30 28  1  0
 31 25  2  0
 32 26  2  0
 33 27  2  0
 34  1  1  0
 34  2  1  0
 34  3  1  0
 28 34  1  1
M  END
>  <NAME>  (196) 
(2S,2AR,5AS,6R)-1-BENZOYL-6-TRIMETHYLSILYL-3,5-DIOXO-2,4-DIPHENYL-1,2,3,4,5,6-HEXAHYDROPYRROLO(3,4-C)PYRROLE

>  <SYNONYMS>  (196) 


>  <SPECTRUM TYPE>  (196) 
MS1

>  <INSTRUMENT TYPE>  (196) 
EI-B

>  <INSTRUMENT>  (196) 
Unknown

>  <ION MODE>  (196) 
P

>  <INCHIKEY>  (196) 
BVDBCALRFHDKGL-PVIBPIFHSA-N

>  <FORMULA>  (196) 
C28H28N2O3Si

>  <EXACT MASS>  (196) 
468.186919286

>  <MW>  (196) 
468

>  <ID>  (196) 
JP011869

>  <CONTRIBUTOR>  (196) 
University of Tokyo Team, {Faculty of Engineering, University of Tokyo

>  <COMMENT>  (196) 
SMILES=c(c5)(cccc5)C(N(C3([H])c(c4)cccc4)C(C(C3([H])1)(C(N(c(c2)cccc2)C1=O)=O)[H])([Si](C)(C)C)[H])=O
InChI=InChI=1S/C28H28N2O3Si/c1-34(2,3)28-23-22(26(32)29(27(23)33)21-17-11-6-12-18-21)24(19-13-7-4-8-14-19)30(28)25(31)20-15-9-5-10-16-20/h4-18,22-24,28H,1-3H3/t22-,23+,24-,28+/m1/s1
computed SMILES=O=C(C=1C=CC=CC1)N2C(C=3C=CC=CC3)C4C(=O)N(C=5C=CC=CC5)C(=O)C4C2[Si](C)(C)C
accession=JP011869
date=2016.01.19 (Created 2008.10.21, modified 2011.05.06)
author=YOSHIKI O, FAC, TECHNOLOGY, OSAKA UNIV.
license=CC BY-NC-SA
exact mass=468.18692
ionization energy=70 eV
ion type=[M]+*
computed spectral entropy=2.8627571254454858
computed normalized entropy=0.8118163487430406
SPLASH=splash10-05di-9823200000-6d6103bef954875e6e3a
submitter=submitter = University of Tokyo Team (Faculty of Engineering, University of Tokyo)
MoNA Rating=3.75

>  <NUM PEAKS>  (196) 
34

>  <MASS SPECTRAL PEAKS>  (196) 
51 6.8
59 3.5
73 68.5
74 6.6
75 8.4
77 53.5
78 4.8
90 3.1
91 3.8
103 6.8
104 6.4
105 99.99
106 7.9
115 4.3
117 3.2
128 6.7
131 4.4
163 3.7
177 4.3
178 4.5
205 3.1
206 3.9
246 22.7
247 4.8
248 4.4
321 6
378 41.2
379 10.9
380 10.6
453 19.1
454 7.5
467 10.4
468 10.3
469 5.5

>  <PREDICTED SPECTRUM>  (196) 
14 1
15 27
17 5
18 33
27 86
28 34
29 29
38 3
39 64
40 14
41 127
42 47
43 68
45 82
46 8
50 41
51 228
52 66
53 9
54 13
55 23
56 88
58 23
59 168
60 13
63 61
64 87
65 42
69 54
70 63
71 40
72 30
73 786
74 152
75 225
76 11
77 715
78 146
81 1
82 12
84 35
85 4
86 17
89 87
90 89
91 209
92 34
93 9
99 35
100 27
101 75
102 59
103 80
104 60
105 999
106 222
107 29
112 66
113 33
115 137
116 24
117 113
118 54
119 47
122 11
126 7
127 8
128 121
129 34
131 115
133 87
134 0
135 65
143 24
144 121
146 0
147 19
148 76
149 58
153 24
154 42
155 11
156 34
157 29
159 8
160 33
161 49
162 9
163 47
165 63
166 26
170 12
175 65
176 84
177 64
178 107
179 7
187 6
189 11
190 38
191 25
192 18
193 39
194 96
202 34
203 10
204 72
205 58
206 79
216 16
217 64
218 60
219 71
220 50
221 53
232 4
234 51
245 36
246 164
247 212
248 165
249 38
262 36
263 33
278 56
279 28
280 33
294 68
295 78
296 55
305 23
306 84
308 26
320 27
321 69
322 63
337 21
348 58
349 24
350 67
351 98
352 75
363 22
364 34
365 6
377 39
378 442
379 338
380 101
396 15
430 9
453 623
454 348
455 93
456 12
467 274
468 410
469 273
470 43

$$$$

     RDKit          2D

 22 25  0  0  1  0  0  0  0  0999 V2000
   -2.8258   -5.4880    0.0000 C   0  0  0  0  0  0  0  0  0  0  0  0
    6.8100   -0.0000    0.0000 C   0  0  0  0  0  0  0  0  0  0  0  0
   -1.3573   -5.1783    0.0000 C   0  0  0  0  0  0  0  0  0  0  0  0
   -3.8291   -4.3718    0.0000 C   0  0  0  0  0  0  0  0  0  0  0  0
    6.0600   -1.3000    0.0000 C   0  0  0  0  0  0  0  0  0  0  0  0
    6.0600    1.3000    0.0000 C   0  0  0  0  0  0  0  0  0  0  0  0
   -0.8920   -3.7523    0.0000 C   0  0  0  0  0  0  0  0  0  0  0  0
   -3.3638   -2.9458    0.0000 C   0  0  0  0  0  0  0  0  0  0  0  0
    4.5600   -1.3000    0.0000 C   0  0  0  0  0  0  0  0  0  0  0  0
    4.5600    1.3000    0.0000 C   0  0  0  0  0  0  0  0  0  0  0  0
   -1.4300    1.2100    0.0000 C   0  0  0  0  0  0  0  0  0  0  0  0
   -1.8953   -2.6360    0.0000 C   0  0  0  0  0  0  0  0  0  0  0  0
    3.8100   -0.0000    0.0000 C   0  0  0  0  0  0  0  0  0  0  0  0
    0.0000    0.7500    0.0000 C   0  0  0  0  0  0  0  0  0  0  0  0
    0.0000   -0.7500    0.0000 C   0  0  0  0  0  0  0  0  0  0  0  0
   -1.4300   -1.2100    0.0000 C   0  0  0  0  0  0  0  0  0  0  0  0
    1.4300    1.2100    0.0000 C   0  0  0  0  0  0  0  0  0  0  0  0
    1.4300   -1.2100    0.0000 C   0  0  0  0  0  0  0  0  0  0  0  0
   -2.3100    0.0000    0.0000 N   0  0  0  0  0  0  0  0  0  0  0  0
    2.3100    0.0000    0.0000 N   0  0  0  0  0  0  0  0  0  0  0  0
    1.8953    2.6360    0.0000 O   0  0  0  0  0  0  0  0  0  0  0  0
    1.8953   -2.6360    0.0000 O   0  0  0  0  0  0  0  0  0  0  0  0
  3  1  2  0
  4  1  1  0
  5  2  2  0
  6  2  1  0
  7  3  1  0
  8  4  2  0
  9  5  1  0
 10  6  2  0
 12  7  2  0
 12  8  1  0
 13  9  2  0
 13 10  1  0
 14 11  1  1
 15 14  1  0
 16 12  1  0
 15 16  1  1
 17 14  1  0
 18 15  1  0
 19 11  1  0
 19 16  2  0
 20 13  1  0
 20 17  1  0
 20 18  1  0
 21 17  2  0
 22 18  2  0
M  END
>  <NAME>  (197) 
(2AR,5AS)-3,5-DIOXO-2,4-DIPHENYL-3,4,5,6-TETRAHYDROPYRROLO(3,4-C)PYRROLE

>  <SYNONYMS>  (197) 


>  <SPECTRUM TYPE>  (197) 
MS1

>  <INSTRUMENT TYPE>  (197) 
EI-B

>  <INSTRUMENT>  (197) 
Unknown

>  <ION MODE>  (197) 
P

>  <INCHIKEY>  (197) 
HLWUBVVHVMJKTP-HUUCEWRRSA-N

>  <FORMULA>  (197) 
C18H14N2O2

>  <EXACT MASS>  (197) 
290.105527688

>  <MW>  (197) 
290

>  <ID>  (197) 
JP011867

>  <CONTRIBUTOR>  (197) 
University of Tokyo Team, {Faculty of Engineering, University of Tokyo

>  <COMMENT>  (197) 
SMILES=c(c4)ccc(c4)C(=N3)C([H])(C(=O)1)C([H])(C3)C(=O)N(c(c2)cccc2)1
InChI=InChI=1S/C18H14N2O2/c21-17-14-11-19-16(12-7-3-1-4-8-12)15(14)18(22)20(17)13-9-5-2-6-10-13/h1-10,14-15H,11H2/t14-,15-/m1/s1
computed SMILES=O=C1N(C=2C=CC=CC2)C(=O)C3CN=C(C=4C=CC=CC4)C13
accession=JP011867
date=2016.01.19 (Created 2008.10.21, modified 2011.05.06)
author=YOSHIKI O, FAC, TECHNOLOGY, OSAKA UNIV.
license=CC BY-NC-SA
exact mass=290.10553
ionization energy=70 eV
ion type=[M]+*
computed spectral entropy=3.1213613455235865
computed normalized entropy=0.8298844117598911
SPLASH=splash10-014l-9830000000-f8e87a6f2d5ed3b72673
submitter=submitter = University of Tokyo Team (Faculty of Engineering, University of Tokyo)
MoNA Rating=3.75

>  <NUM PEAKS>  (197) 
43

>  <MASS SPECTRAL PEAKS>  (197) 
50 8.1
51 24.4
52 5.9
54 4.9
55 2.8
62 3.7
63 14
64 14.7
65 9
66 2.2
67 3.5
68 57.2
69 3.1
75 2.9
76 6.3
77 39.7
78 3.9
85 9.2
86 9.4
89 13.5
90 12.2
91 15.7
93 2
103 6.7
104 7.3
105 2.7
114 2.6
115 29.6
116 18.7
117 99.99
118 24.7
119 8.2
130 3.7
142 4.8
143 35.1
144 4.5
159 2.3
170 6.9
171 2.1
187 3.2
290 91.5
291 19.7
292 2.3

>  <PREDICTED SPECTRUM>  (197) 
14 4
17 12
18 26
25 2
26 59
27 99
28 103
29 7
37 50
38 120
39 293
40 123
41 102
42 61
43 60
44 146
45 19
50 227
51 430
52 223
53 97
54 151
55 81
56 50
57 111
58 19
61 22
62 154
63 336
64 342
65 293
66 176
67 161
68 257
69 106
70 74
71 106
74 73
75 172
76 225
77 610
78 210
80 30
81 60
82 21
85 112
86 114
87 119
88 111
89 451
90 280
91 470
92 95
93 127
94 68
95 48
96 45
99 7
101 2
102 163
103 243
104 458
105 162
113 3
114 181
115 472
116 452
117 999
118 533
119 379
127 40
128 133
129 49
130 119
131 85
132 25
142 324
143 592
144 325
145 131
170 272
171 169
173 61
174 50
185 19
187 81
206 5
213 3
218 14
233 28
234 68
245 21
261 53
262 36
263 4
289 87
290 978
291 427
292 126
293 12

$$$$

     RDKit          2D

 26 29  0  0  1  0  0  0  0  0999 V2000
   -3.3213   -2.1707    0.0000 C   0  0  0  0  0  0  0  0  0  0  0  0
   -2.3606   -4.0620    0.0000 C   0  0  0  0  0  0  0  0  0  0  0  0
   -0.4693   -3.1013    0.0000 C   0  0  0  0  0  0  0  0  0  0  0  0
   -2.8258    5.4880    0.0000 C   0  0  0  0  0  0  0  0  0  0  0  0
    6.8100   -0.0000    0.0000 C   0  0  0  0  0  0  0  0  0  0  0  0
   -3.8291    4.3718    0.0000 C   0  0  0  0  0  0  0  0  0  0  0  0
   -1.3573    5.1783    0.0000 C   0  0  0  0  0  0  0  0  0  0  0  0
    6.0600   -1.3000    0.0000 C   0  0  0  0  0  0  0  0  0  0  0  0
    6.0600    1.3000    0.0000 C   0  0  0  0  0  0  0  0  0  0  0  0
   -3.3638    2.9458    0.0000 C   0  0  0  0  0  0  0  0  0  0  0  0
   -0.8920    3.7523    0.0000 C   0  0  0  0  0  0  0  0  0  0  0  0
    4.5600   -1.3000    0.0000 C   0  0  0  0  0  0  0  0  0  0  0  0
    4.5600    1.3000    0.0000 C   0  0  0  0  0  0  0  0  0  0  0  0
   -1.8953    2.6360    0.0000 C   0  0  0  0  0  0  0  0  0  0  0  0
    3.8100   -0.0000    0.0000 C   0  0  0  0  0  0  0  0  0  0  0  0
    0.0000    0.7500    0.0000 C   0  0  0  0  0  0  0  0  0  0  0  0
    0.0000   -0.7500    0.0000 C   0  0  0  0  0  0  0  0  0  0  0  0
   -1.4300    1.2100    0.0000 C   0  0  0  0  0  0  0  0  0  0  0  0
   -1.4300   -1.2100    0.0000 C   0  0  0  0  0  0  0  0  0  0  0  0
    1.4300    1.2100    0.0000 C   0  0  0  0  0  0  0  0  0  0  0  0
    1.4300   -1.2100    0.0000 C   0  0  0  0  0  0  0  0  0  0  0  0
   -2.3100    0.0000    0.0000 N   0  0  0  0  0  0  0  0  0  0  0  0
    2.3100    0.0000    0.0000 N   0  0  0  0  0  0  0  0  0  0  0  0
    1.8953    2.6360    0.0000 O   0  0  0  0  0  0  0  0  0  0  0  0
    1.8953   -2.6360    0.0000 O   0  0  0  0  0  0  0  0  0  0  0  0
   -1.8953   -2.6360    0.0000 Si  0  0  0  0  0  4  0  0  0  0  0  0
  6  4  2  0
  7  4  1  0
  8  5  2  0
  9  5  1  0
 10  6  1  0
 11  7  2  0
 12  8  1  0
 13  9  2  0
 14 10  2  0
 14 11  1  0
 15 12  2  0
 15 13  1  0
 17 16  1  0
 18 14  1  0
 16 18  1  6
 19 17  1  0
 16 20  1  0
 17 21  1  1
 22 18  1  0
 19 22  1  0
 23 15  1  0
 23 20  1  0
 23 21  1  0
 24 20  2  0
 25 21  2  0
 26  1  1  0
 26  2  1  0
 26  3  1  0
 19 26  1  6
M  END
>  <NAME>  (198) 
(2S,2AR,5AS)-6-TRIMETHYLSILYL-3,5-DIOXO-4-PHENYL-1,2,3,4,5,6-HEXAHYDROPYRROLO(3,4-C)PYRROLE

>  <SYNONYMS>  (198) 


>  <SPECTRUM TYPE>  (198) 
MS1

>  <INSTRUMENT TYPE>  (198) 
EI-B

>  <INSTRUMENT>  (198) 
Unknown

>  <ION MODE>  (198) 
P

>  <INCHIKEY>  (198) 
VIMLDWOVFSLUBJ-VPQXAQPCSA-N

>  <FORMULA>  (198) 
C21H24N2O2Si

>  <EXACT MASS>  (198) 
364.160704538

>  <MW>  (198) 
364

>  <ID>  (198) 
JP011866

>  <CONTRIBUTOR>  (198) 
University of Tokyo Team, {Faculty of Engineering, University of Tokyo

>  <COMMENT>  (198) 
SMILES=c(c4)ccc(c4)N(C(=O)1)C(=O)C([H])(C([H])([Si](C)(C)C)2)C([H])1C(c(c3)cccc3)N2
InChI=InChI=1S/C21H24N2O2Si/c1-26(2,3)19-17-16(18(22-19)14-10-6-4-7-11-14)20(24)23(21(17)25)15-12-8-5-9-13-15/h4-13,16-19,22H,1-3H3/t16-,17-,18?,19+/m1/s1
computed SMILES=O=C1N(C=2C=CC=CC2)C(=O)C3C1C(NC3[Si](C)(C)C)C=4C=CC=CC4
accession=JP011866
date=2016.01.19 (Created 2008.10.21, modified 2011.05.06)
author=YOSHIKI O, FAC, TECHNOLOGY, OSAKA UNIV.
license=CC BY-NC-SA
exact mass=364.1607
ionization energy=70 eV
ion type=[M]+*
computed spectral entropy=3.1193918174090354
computed normalized entropy=0.8057943280701567
SPLASH=splash10-0006-3920000000-099a359497735e5be2f2
submitter=submitter = University of Tokyo Team (Faculty of Engineering, University of Tokyo)
MoNA Rating=3.75

>  <NUM PEAKS>  (198) 
48

>  <MASS SPECTRAL PEAKS>  (198) 
51 3.7
58 2.5
59 11.2
64 2.3
65 2.7
67 6.3
73 68.5
74 7
75 4.8
77 8.9
89 3.7
90 4.2
91 8.6
100 4.4
103 4.8
104 6
115 13.7
116 5
117 13.8
118 5.7
119 3.1
127 4.3
128 2.2
131 5.7
142 99.99
143 27
144 76.3
145 10
170 2.3
174 4.3
176 2.4
190 5.7
191 41.4
192 7.8
193 2.2
218 2.3
244 5.4
246 8.4
247 3
273 2.2
291 45
292 10
294 3.3
295 9.6
296 2.6
349 6.1
364 8.4
365 2.4

>  <PREDICTED SPECTRUM>  (198) 
15 5
27 55
28 26
29 44
38 20
39 135
40 16
41 12
42 28
43 78
44 165
45 202
46 50
47 27
49 16
50 36
51 224
52 97
58 40
59 317
61 53
62 26
63 110
64 114
65 138
66 33
67 6
70 5
71 6
72 148
73 576
74 209
75 241
76 105
77 452
78 167
79 2
84 2
87 52
88 35
89 144
90 115
91 306
92 98
93 42
96 4
97 33
98 21
99 3
101 81
102 97
103 177
104 233
105 46
106 12
107 10
114 16
115 293
116 142
117 430
118 139
119 43
121 47
123 17
128 36
129 55
130 58
135 3
141 75
142 251
143 603
144 999
145 312
146 109
147 12
148 44
149 51
156 12
160 43
162 23
163 95
164 18
170 72
171 92
172 47
173 68
174 113
175 127
176 160
177 121
178 72
179 37
186 6
188 11
189 95
190 304
191 560
192 379
193 211
194 30
218 19
219 91
221 6
273 78
291 815
292 329
293 47
294 27
295 106
296 53
349 295
350 103
351 20
363 28
364 270
365 144
366 4

$$$$

     RDKit          2D

 21 22  0  0  0  0  0  0  0  0999 V2000
   -6.1880    0.0483    0.0000 C   0  0  0  0  0  0  0  0  0  0  0  0
   -4.3470   -6.9933    0.0000 C   0  0  0  0  0  0  0  0  0  0  0  0
    4.8424   -2.3072    0.0000 C   0  0  0  0  0  0  0  0  0  0  0  0
   -0.0330   -5.9450    0.0000 C   0  0  0  0  0  0  0  0  0  0  0  0
   -1.0362   -4.8298    0.0000 C   0  0  0  0  0  0  0  0  0  0  0  0
    1.3378   -5.3305    0.0000 C   0  0  0  0  0  0  0  0  0  0  0  0
   -0.8970   -2.1534    0.0000 C   0  0  0  0  0  0  0  0  0  0  0  0
   -0.2875   -3.5240    0.0000 C   0  0  0  0  0  0  0  0  0  0  0  0
   -2.8660   -1.9456    0.0000 C   0  0  0  0  0  0  0  0  0  0  0  0
   -3.8658   -3.0539    0.0000 C   0  0  0  0  0  0  0  0  0  0  0  0
   -3.6160   -0.6465    0.0000 C   0  0  0  0  0  0  0  0  0  0  0  0
   -3.5503   -4.5204    0.0000 C   0  0  0  0  0  0  0  0  0  0  0  0
    2.2998   -2.8414    0.0000 C   0  0  0  0  0  0  0  0  0  0  0  0
   -5.2416   -2.4511    0.0000 N   0  0  0  0  0  0  0  0  0  0  0  0
   -5.0758   -0.9582    0.0000 N   0  0  0  0  0  0  0  0  0  0  0  0
    1.1827   -3.8424    0.0000 N   0  0  0  0  0  0  0  0  0  0  0  0
   -3.0065    0.7241    0.0000 O   0  0  0  0  0  0  0  0  0  0  0  0
   -2.1225   -4.9804    0.0000 O   0  0  0  0  0  0  0  0  0  0  0  0
    1.9914   -1.3734    0.0000 O   0  0  0  0  0  0  0  0  0  0  0  0
   -4.6625   -5.5269    0.0000 O   0  0  0  0  0  0  0  0  0  0  0  0
    3.7253   -3.3083    0.0000 O   0  0  0  0  0  0  0  0  0  0  0  0
  5  4  1  0
  6  4  2  0
  8  5  2  0
  8  7  1  0
  7  9  2  0
 10  9  1  0
 11  9  1  0
 12 10  1  0
 14 10  2  0
 15  1  1  0
 15 11  1  0
 15 14  1  0
 16  6  1  0
 16  8  1  0
 16 13  1  0
 17 11  2  0
 18 12  2  0
 19 13  2  0
 20  2  1  0
 20 12  1  0
 21  3  1  0
 21 13  1  0
M  END
>  <NAME>  (199) 
1-METHYL-4-(1'-METHOXYCARBONYL-2'-PYRROLOMETHYLENE)-3-METHOXYCARBONYL-2-PYRAZOLIN-5-ONE

>  <SYNONYMS>  (199) 


>  <SPECTRUM TYPE>  (199) 
MS1

>  <INSTRUMENT TYPE>  (199) 
EI-B

>  <INSTRUMENT>  (199) 
Unknown

>  <ION MODE>  (199) 
P

>  <INCHIKEY>  (199) 
CBZBTEMGKJECOG-VQHVLOKHSA-N

>  <FORMULA>  (199) 
C13H13N3O5

>  <EXACT MASS>  (199) 
291.08552051600003

>  <MW>  (199) 
291

>  <ID>  (199) 
JP011865

>  <CONTRIBUTOR>  (199) 
University of Tokyo Team, {Faculty of Engineering, University of Tokyo

>  <COMMENT>  (199) 
SMILES=COC(=O)c(n1)c(=Cc(c([H])2)n(C(=O)OC)c([H])c([H])2)c(=O)n(C)1
InChI=InChI=1S/C13H13N3O5/c1-15-11(17)9(10(14-15)12(18)20-2)7-8-5-4-6-16(8)13(19)21-3/h4-7H,1-3H3/b9-7+
computed SMILES=O=C(OC)C1=NN(C(=O)C1=CC2=CC=CN2C(=O)OC)C
accession=JP011865
date=2016.01.19 (Created 2008.10.21, modified 2011.05.06)
author=YOSHIKI O, FAC, TECHNOLOGY, OSAKA UNIV.
license=CC BY-NC-SA
exact mass=291.08552
ionization energy=70 eV
ion type=[M]+*
computed spectral entropy=4.136143509787764
computed normalized entropy=0.8749321334322806
SPLASH=splash10-0f6x-8890000000-b52dbdb269a1d609dd26
submitter=submitter = University of Tokyo Team (Faculty of Engineering, University of Tokyo)
MoNA Rating=3.75

>  <NUM PEAKS>  (199) 
113

>  <MASS SPECTRAL PEAKS>  (199) 
50 6.1
51 13.1
52 6.1
53 4.6
54 1.7
55 2.1
56 2.3
57 1.9
59 46.7
60 1.8
61 1.6
62 6.5
63 11.7
64 5.9
65 4.9
66 3.6
67 2.6
68 1.3
69 1
74 4.1
75 9.1
76 9.8
77 8.3
78 4.9
79 2.9
80 3.4
81 1.2
84 9.7
86 6.5
87 1.4
88 3.8
89 8.6
90 8.2
91 4.5
92 2.6
93 1.7
94 11
95 1
101 1.5
102 14.6
103 15.8
104 9.2
105 5.3
106 2.9
107 1.5
108 1
115 1.2
116 6.6
117 9.9
118 16.9
119 4.5
120 1.1
129 2.4
130 11.8
131 11.8
132 6.2
133 4.7
134 1.5
143 1
144 10.1
145 7.3
146 7.1
147 1.9
148 2
149 1.6
151 1.9
152 1
157 1.8
158 5.2
159 5.9
160 3.1
161 1.6
162 3.4
165 1.1
167 1.9
172 3.8
173 6.9
174 2.8
175 1.5
176 4.3
177 1.2
186 2.2
187 1.4
188 9.4
189 5.5
190 2.6
192 1.5
200 6.1
201 13.9
202 5.2
203 2.1
204 3.6
205 2.8
214 3.3
215 1.3
216 11.4
217 3.6
218 3.1
220 2.6
230 4.4
231 1.8
232 19.1
233 8.3
234 2.1
244 3.8
246 1.7
260 3.6
276 8.9
277 1.2
290 6.8
291 99.99
292 13.8
293 2.5

>  <PREDICTED SPECTRUM>  (199) 
15 16
29 3
33 5
37 8
38 72
39 181
40 115
41 156
42 233
43 143
44 102
45 59
49 28
50 202
51 290
52 249
53 237
54 137
55 95
56 116
57 116
58 19
59 465
60 3
61 13
62 162
63 302
64 228
65 198
66 188
67 167
68 111
69 71
70 18
71 60
72 15
73 3
74 94
75 226
76 277
77 365
78 298
79 198
80 148
81 76
82 75
83 43
84 61
85 59
86 60
87 44
88 173
89 295
90 296
91 281
92 183
93 117
94 113
95 85
99 21
100 64
101 208
102 183
103 300
104 312
105 259
106 175
107 131
108 52
113 61
114 78
115 218
116 252
117 303
118 335
119 261
120 167
121 125
122 64
128 47
129 137
130 255
131 260
132 320
133 281
134 154
135 35
142 76
143 133
144 248
145 250
146 229
147 135
148 110
149 83
150 25
156 154
157 71
158 172
159 193
160 194
161 165
162 82
163 30
170 96
171 75
172 267
173 343
174 184
175 101
176 103
177 25
185 4
186 119
187 223
188 324
189 138
190 134
191 119
192 47
200 484
201 208
202 202
203 113
204 136
205 108
214 166
215 143
216 431
217 170
218 149
219 37
228 73
229 26
230 193
231 231
232 531
233 229
234 108
244 171
245 43
246 125
248 38
249 5
260 243
261 1
262 30
276 324
277 113
290 362
291 999
292 423
293 144
294 11

$$$$

     RDKit          2D

 22 26  0  0  0  0  0  0  0  0999 V2000
    2.4000   -3.3004    0.0000 C   0  0  0  0  0  0  0  0  0  0  0  0
    0.9221   -3.5614    0.0000 C   0  0  0  0  0  0  0  0  0  0  0  0
    2.9138   -1.8902    0.0000 C   0  0  0  0  0  0  0  0  0  0  0  0
    1.9138    4.0108    0.0000 C   0  0  0  0  0  0  0  0  0  0  0  0
    2.6388    2.7551    0.0000 C   0  0  0  0  0  0  0  0  0  0  0  0
   -6.3245    0.4999    0.0000 C   0  0  0  0  0  0  0  0  0  0  0  0
   -0.0421   -2.4124    0.0000 C   0  0  0  0  0  0  0  0  0  0  0  0
    1.9496   -0.7411    0.0000 C   0  0  0  0  0  0  0  0  0  0  0  0
    0.4649    4.0663    0.0000 C   0  0  0  0  0  0  0  0  0  0  0  0
    1.9624    1.4725    0.0000 C   0  0  0  0  0  0  0  0  0  0  0  0
   -5.4428    1.7135    0.0000 C   0  0  0  0  0  0  0  0  0  0  0  0
   -5.4428   -0.7136    0.0000 C   0  0  0  0  0  0  0  0  0  0  0  0
    0.4717   -1.0022    0.0000 C   0  0  0  0  0  0  0  0  0  0  0  0
   -0.4489    2.8788    0.0000 C   0  0  0  0  0  0  0  0  0  0  0  0
    0.4771    1.2749    0.0000 C   0  0  0  0  0  0  0  0  0  0  0  0
   -4.0162    1.2499    0.0000 C   0  0  0  0  0  0  0  0  0  0  0  0
   -2.7172    1.9999    0.0000 C   0  0  0  0  0  0  0  0  0  0  0  0
   -2.7172   -1.0001    0.0000 C   0  0  0  0  0  0  0  0  0  0  0  0
   -4.0162   -0.2501    0.0000 N   0  0  0  0  0  0  0  0  0  0  0  0
   -1.4181    1.2499    0.0000 N   0  0  0  0  0  0  0  0  0  0  0  0
   -1.4181   -0.2501    0.0000 N   0  0  0  0  0  0  0  0  0  0  0  0
   -2.7172   -2.5001    0.0000 O   0  0  0  0  0  0  0  0  0  0  0  0
  2  1  2  0
  3  1  1  0
  5  4  2  0
  7  2  1  0
  8  3  2  0
  9  4  1  0
 10  5  1  0
 11  6  1  0
 12  6  2  0
 13  7  2  0
 13  8  1  0
 14  9  2  0
 15 10  2  0
 15 14  1  0
 16 11  2  0
 17 14  1  0
 17 16  1  0
 19 12  1  0
 19 16  1  0
 19 18  1  0
 20 13  1  0
 20 17  1  0
 21 15  1  0
 21 18  1  0
 21 20  1  0
 22 18  2  0
M  END
>  <NAME>  (200) 
6,11-PHENYLIMINO-5,6-DIHYDROPYRROLO(1,2-C)(1,3)BENZODIAZEPIN-5-ONE

>  <SYNONYMS>  (200) 


>  <SPECTRUM TYPE>  (200) 
MS1

>  <INSTRUMENT TYPE>  (200) 
EI-B

>  <INSTRUMENT>  (200) 
Unknown

>  <ION MODE>  (200) 
P

>  <INCHIKEY>  (200) 
UNCFTRHPAZCHOC-UHFFFAOYSA-N

>  <FORMULA>  (200) 
C18H13N3O

>  <EXACT MASS>  (200) 
287.105862036

>  <MW>  (200) 
287

>  <ID>  (200) 
JP011864

>  <CONTRIBUTOR>  (200) 
University of Tokyo Team, {Faculty of Engineering, University of Tokyo

>  <COMMENT>  (200) 
SMILES=c(c5)ccc(c5)N(N31)C(c(c4)n(cc4)C(=O)3)c(c2)c(ccc2)1
InChI=InChI=1S/C18H13N3O/c22-18-19-12-6-11-16(19)17-14-9-4-5-10-15(14)21(18)20(17)13-7-2-1-3-8-13/h1-12,17H
computed SMILES=O=C1N2C=CC=C2C3C=4C=CC=CC4N1N3C=5C=CC=CC5
accession=JP011864
date=2016.01.19 (Created 2008.10.21, modified 2011.05.06)
author=YOSHIKI O, FAC, TECHNOLOGY, OSAKA UNIV.
license=CC BY-NC-SA
exact mass=287.10586
ionization energy=70 eV
ion type=[M]+*
computed spectral entropy=4.1465398383335685
computed normalized entropy=0.8821523579823605
SPLASH=splash10-0pdr-9650000000-2e1783b0b9da57c4fa8a
submitter=submitter = University of Tokyo Team (Faculty of Engineering, University of Tokyo)
MoNA Rating=3.75

>  <NUM PEAKS>  (200) 
110

>  <MASS SPECTRAL PEAKS>  (200) 
50 20.4
51 63.8
52 14.2
53 7.2
54 4.5
55 21.7
56 10.8
57 24
58 5.3
59 2.7
60 5.8
61 3.8
62 6.9
63 18.5
64 20.3
65 13.4
66 7.5
67 6.5
68 3.6
69 10.7
70 7.4
71 11.3
73 3.4
74 7
75 10.9
76 14.5
77 90.8
78 11.9
79 4.9
80 2.8
81 6
82 4.1
83 7.6
84 5.2
85 6.6
86 4
87 4.6
88 6.2
89 6.5
90 6.8
91 15.3
92 4.1
93 8.1
94 4
95 4.9
96 2.6
97 4.2
98 2.8
99 4
100 2.7
101 9.7
102 8.3
103 6.5
104 7.5
105 11.3
106 3.7
107 2.6
109 4.1
111 2.4
113 4.2
114 7
115 11.2
116 6.1
117 3.4
119 4.1
121 3
125 2.9
126 9.6
127 21.4
128 14
129 14.6
130 3.4
139 2.6
140 7.9
141 4.2
142 3.6
143 4.4
144 2.3
145 2.4
149 14.1
151 3.8
152 6.2
153 9.2
154 42.8
155 11
156 4.6
166 4.5
167 8.4
168 14.7
169 5.5
179 6.5
180 3.6
182 18.1
183 4
184 4.6
195 6.3
196 4.7
202 3.7
229 4.2
230 8.8
231 18.5
232 5.9
245 6.6
257 12.6
258 88.7
259 62.8
260 10.1
286 18.2
287 99.99
288 21

>  <PREDICTED SPECTRUM>  (200) 
17 17
18 35
26 21
27 45
28 70
29 3
30 69
33 52
34 19
36 49
37 121
38 268
39 593
40 288
41 263
42 133
43 101
44 170
45 59
49 9
50 440
51 770
52 431
53 243
54 150
55 127
56 93
57 147
58 47
61 96
62 238
63 473
64 434
65 563
66 270
67 111
68 120
69 189
70 130
71 217
72 21
73 20
74 235
75 360
76 352
77 995
78 466
79 288
80 151
81 175
82 128
83 166
84 174
85 205
86 145
87 171
88 142
89 323
90 309
91 426
92 436
93 314
94 113
95 103
96 107
97 132
98 148
99 180
100 211
101 260
102 332
103 305
104 369
105 238
106 95
107 123
108 91
109 103
110 91
111 189
112 137
113 223
114 244
115 472
116 335
117 353
118 235
119 151
120 23
121 33
122 37
123 27
124 77
125 145
126 216
127 351
128 419
129 370
130 143
131 180
132 24
133 50
134 22
135 35
137 18
138 63
139 295
140 353
141 264
142 252
143 152
144 60
149 76
150 53
151 96
152 171
153 340
154 519
155 423
156 245
157 90
158 2
164 9
165 135
166 185
167 440
168 412
169 326
170 76
171 20
175 63
176 14
177 22
179 47
180 158
181 183
182 449
183 220
184 26
191 3
192 32
193 51
194 125
195 252
196 94
202 28
203 68
204 55
205 4
210 66
211 46
217 42
219 0
228 22
229 150
230 344
231 306
232 176
233 97
241 31
242 75
243 24
244 77
245 16
256 111
257 301
258 999
259 841
260 363
261 67
270 61
271 59
272 17
286 551
287 972
288 424
289 98

$$$$

     RDKit          2D

 40 46  0  0  0  0  0  0  0  0999 V2000
    1.8900   -0.0000    0.0000 C   0  0  0  0  0  0  0  0  0  0  0  0
    1.4275    3.0025    0.0000 C   0  0  0  0  0  0  0  0  0  0  0  0
   -0.0750    4.5000    0.0000 C   0  0  0  0  0  0  0  0  0  0  0  0
   -1.5725    2.9975    0.0000 C   0  0  0  0  0  0  0  0  0  0  0  0
   -0.0775   -6.0000    0.0000 C   0  0  0  0  0  0  0  0  0  0  0  0
    8.0383   -0.0000    0.0000 C   0  0  0  0  0  0  0  0  0  0  0  0
   -8.1683    0.0000    0.0000 C   0  0  0  0  0  0  0  0  0  0  0  0
    1.2237   -5.2522    0.0000 C   0  0  0  0  0  0  0  0  0  0  0  0
   -1.3763   -5.2478    0.0000 C   0  0  0  0  0  0  0  0  0  0  0  0
    7.2883   -1.3000    0.0000 C   0  0  0  0  0  0  0  0  0  0  0  0
    7.2883    1.3000    0.0000 C   0  0  0  0  0  0  0  0  0  0  0  0
   -7.4183    1.3000    0.0000 C   0  0  0  0  0  0  0  0  0  0  0  0
   -7.4183   -1.3000    0.0000 C   0  0  0  0  0  0  0  0  0  0  0  0
    1.2262   -3.7522    0.0000 C   0  0  0  0  0  0  0  0  0  0  0  0
   -1.3738   -3.7478    0.0000 C   0  0  0  0  0  0  0  0  0  0  0  0
    5.7883   -1.3000    0.0000 C   0  0  0  0  0  0  0  0  0  0  0  0
    5.7883    1.3000    0.0000 C   0  0  0  0  0  0  0  0  0  0  0  0
   -5.9183    1.3000    0.0000 C   0  0  0  0  0  0  0  0  0  0  0  0
   -5.9183   -1.3000    0.0000 C   0  0  0  0  0  0  0  0  0  0  0  0
   -0.0725   -3.0000    0.0000 C   0  0  0  0  0  0  0  0  0  0  0  0
    5.0383   -0.0000    0.0000 C   0  0  0  0  0  0  0  0  0  0  0  0
   -5.1683    0.0000    0.0000 C   0  0  0  0  0  0  0  0  0  0  0  0
    1.2300   -0.7500    0.0000 C   0  0  0  0  0  0  0  0  0  0  0  0
   -1.3600   -0.7500    0.0000 C   0  0  0  0  0  0  0  0  0  0  0  0
    1.2300    0.7500    0.0000 C   0  0  0  0  0  0  0  0  0  0  0  0
   -1.3600    0.7500    0.0000 C   0  0  0  0  0  0  0  0  0  0  0  0
    2.6566   -1.2135    0.0000 C   0  0  0  0  0  0  0  0  0  0  0  0
   -2.7866   -1.2135    0.0000 C   0  0  0  0  0  0  0  0  0  0  0  0
    2.6566    1.2135    0.0000 C   0  0  0  0  0  0  0  0  0  0  0  0
   -2.7866    1.2135    0.0000 C   0  0  0  0  0  0  0  0  0  0  0  0
   -0.0700   -1.5000    0.0000 C   0  0  0  0  0  0  0  0  0  0  0  0
   -0.0700    1.5000    0.0000 C   0  0  0  0  0  0  0  0  0  0  0  0
    0.3900   -0.0000    0.0000 N   0  0  0  0  0  0  0  0  0  0  0  0
    3.5383    0.0000    0.0000 N   0  0  0  0  0  0  0  0  0  0  0  0
   -3.6683    0.0000    0.0000 N   0  0  0  0  0  0  0  0  0  0  0  0
    3.1201   -2.6401    0.0000 O   0  0  0  0  0  0  0  0  0  0  0  0
   -3.2501   -2.6401    0.0000 O   0  0  0  0  0  0  0  0  0  0  0  0
    3.1201    2.6401    0.0000 O   0  0  0  0  0  0  0  0  0  0  0  0
   -3.2501    2.6401    0.0000 O   0  0  0  0  0  0  0  0  0  0  0  0
   -0.0725    3.0000    0.0000 Si  0  0  0  0  0  4  0  0  0  0  0  0
  8  5  2  0
  9  5  1  0
 10  6  2  0
 11  6  1  0
 12  7  2  0
 13  7  1  0
 14  8  1  0
 15  9  2  0
 16 10  1  0
 17 11  2  0
 18 12  1  0
 19 13  2  0
 20 14  2  0
 20 15  1  0
 21 16  2  0
 21 17  1  0
 22 18  2  0
 22 19  1  0
 25 23  1  0
 26 24  1  0
 27 23  1  0
 28 24  1  0
 29 25  1  0
 30 26  1  0
 31 20  1  0
 31 23  1  0
 31 24  1  0
 32 25  1  0
 32 26  1  0
 33  1  1  0
 33 31  1  0
 33 32  1  0
 34 21  1  0
 34 27  1  0
 34 29  1  0
 35 22  1  0
 35 28  1  0
 35 30  1  0
 36 27  2  0
 37 28  2  0
 38 29  2  0
 39 30  2  0
 40  2  1  0
 40  3  1  0
 40  4  1  0
 40 32  1  0
M  END
>  <NAME>  (201) 
7-METHYL-1-PHENYL-4-TRIMETHYLSILYL-7-AZOBICYCLO(2,2,1)HEPTANE-N,N-DIPHENYL-2,3,5,6-TETRACARBOXODIIMIDO

>  <SYNONYMS>  (201) 


>  <SPECTRUM TYPE>  (201) 
MS1

>  <INSTRUMENT TYPE>  (201) 
EI-B

>  <INSTRUMENT>  (201) 
Unknown

>  <ION MODE>  (201) 
P

>  <INCHIKEY>  (201) 
QQVIDBZLVINMML-UHFFFAOYSA-N

>  <FORMULA>  (201) 
C32H31N3O4Si

>  <EXACT MASS>  (201) 
549.208383002

>  <MW>  (201) 
549

>  <ID>  (201) 
JP011863

>  <CONTRIBUTOR>  (201) 
University of Tokyo Team, {Faculty of Engineering, University of Tokyo

>  <COMMENT>  (201) 
SMILES=C(C56[Si](C)(C)C)(C(C(c(c7)cccc7)(N6C)C(C53)C(=O)N(c(c4)cccc4)C3=O)1)C(N(c(c2)cccc2)C(=O)1)=O
InChI=InChI=1S/C32H31N3O4Si/c1-33-31(20-14-8-5-9-15-20)23-25(29(38)34(27(23)36)21-16-10-6-11-17-21)32(33,40(2,3)4)26-24(31)28(37)35(30(26)39)22-18-12-7-13-19-22/h5-19,23-26H,1-4H3
computed SMILES=O=C1N(C=2C=CC=CC2)C(=O)C3C1C4(C=5C=CC=CC5)N(C)C3(C6C(=O)N(C=7C=CC=CC7)C(=O)C64)[Si](C)(C)C
accession=JP011863
date=2016.01.19 (Created 2008.10.21, modified 2011.05.06)
author=YOSHIKI O, FAC, TECHNOLOGY, OSAKA UNIV.
license=CC BY-NC-SA
exact mass=549.20838
ionization energy=70 eV
ion type=[M]+*
computed spectral entropy=3.359664583669347
computed normalized entropy=0.8346263486497429
SPLASH=splash10-004i-4469000000-b605540d91a12355ca48
submitter=submitter = University of Tokyo Team (Faculty of Engineering, University of Tokyo)
MoNA Rating=3.75

>  <NUM PEAKS>  (201) 
56

>  <MASS SPECTRAL PEAKS>  (201) 
51 3.4
54 5
55 2.3
58 2.1
59 22
64 2.9
73 37
74 3.6
75 5.7
77 13.8
91 7.2
103 3.9
115 6.4
117 2.2
118 10.9
119 4.1
128 3
129 4.5
130 2.2
154 2.9
155 2.1
156 4
157 2.1
166 2.5
167 2.8
170 2.2
173 5.3
180 3.7
181 5
182 5.8
184 6.2
198 2
199 2.9
212 2.7
214 42.8
215 8.9
216 2.7
229 16.6
230 4.1
256 26.2
257 11.2
258 4.7
259 9.3
271 12.8
272 3.1
333 4.9
347 8.2
348 2.8
375 37.7
376 99.99
377 29.3
378 8.2
476 2.8
534 5.7
535 2.3
549 2.3

>  <PREDICTED SPECTRUM>  (201) 
14 25
15 70
17 17
18 80
25 7
26 73
27 48
28 100
29 183
30 50
31 68
32 18
38 8
39 58
43 36
45 93
49 29
50 16
51 50
52 39
56 36
57 12
58 40
59 373
60 41
63 50
64 91
65 73
69 20
70 20
73 497
74 71
75 68
76 9
77 391
78 86
79 14
80 13
81 17
82 7
84 50
89 5
90 65
91 169
92 31
93 80
94 55
95 8
96 17
102 27
103 134
104 78
105 83
106 3
108 82
112 30
115 178
116 30
117 206
118 170
119 213
120 14
121 69
122 30
123 14
128 34
129 156
130 35
131 13
132 57
133 68
137 31
140 26
141 37
142 10
143 67
144 94
146 11
147 39
149 26
153 42
154 149
155 145
156 137
157 121
165 20
166 93
167 68
168 28
170 80
172 0
173 102
178 44
180 170
181 183
182 147
183 68
184 137
186 27
187 5
196 68
198 28
199 84
212 100
214 623
215 217
216 133
217 81
218 33
219 59
229 350
230 168
231 37
237 21
242 22
243 31
244 63
245 11
255 18
256 578
257 266
258 231
259 223
261 5
269 22
271 235
272 93
273 1
275 48
283 6
287 21
300 37
301 21
305 10
308 12
315 12
327 36
329 75
333 23
335 9
342 11
347 305
348 276
362 22
375 585
376 999
377 547
378 266
379 15
431 78
476 183
477 2
519 16
533 127
534 265
535 211
548 40
549 237
550 8

$$$$

     RDKit          2D

 21 22  0  0  0  0  0  0  0  0999 V2000
   -7.0466    7.1972    0.0000 C   0  0  0  0  0  0  0  0  0  0  0  0
   -7.9862   -0.9858    0.0000 C   0  0  0  0  0  0  0  0  0  0  0  0
   -4.3970    1.6981    0.0000 C   0  0  0  0  0  0  0  0  0  0  0  0
  -13.2736    6.1707    0.0000 C   0  0  0  0  0  0  0  0  0  0  0  0
  -12.8878    4.7212    0.0000 C   0  0  0  0  0  0  0  0  0  0  0  0
  -12.0144    6.9856    0.0000 C   0  0  0  0  0  0  0  0  0  0  0  0
  -10.7800    3.2700    0.0000 C   0  0  0  0  0  0  0  0  0  0  0  0
  -11.3900    4.6400    0.0000 C   0  0  0  0  0  0  0  0  0  0  0  0
   -9.3800    2.7300    0.0000 C   0  0  0  0  0  0  0  0  0  0  0  0
   -8.0100    3.3400    0.0000 C   0  0  0  0  0  0  0  0  0  0  0  0
   -9.3419    1.2305    0.0000 C   0  0  0  0  0  0  0  0  0  0  0  0
   -6.9228    2.3066    0.0000 C   0  0  0  0  0  0  0  0  0  0  0  0
   -9.4800    6.6500    0.0000 C   0  0  0  0  0  0  0  0  0  0  0  0
   -7.4700    4.7400    0.0000 N   0  0  0  0  0  0  0  0  0  0  0  0
   -8.0800    6.1100    0.0000 N   0  0  0  0  0  0  0  0  0  0  0  0
  -10.8500    6.0400    0.0000 N   0  0  0  0  0  0  0  0  0  0  0  0
  -10.6215    0.4478    0.0000 O   0  0  0  0  0  0  0  0  0  0  0  0
   -7.2741    0.8483    0.0000 O   0  0  0  0  0  0  0  0  0  0  0  0
   -9.5181    8.1495    0.0000 O   0  0  0  0  0  0  0  0  0  0  0  0
   -8.0243    0.5137    0.0000 O   0  0  0  0  0  0  0  0  0  0  0  0
   -5.4842    2.7315    0.0000 O   0  0  0  0  0  0  0  0  0  0  0  0
  5  4  1  0
  6  4  2  0
  8  5  2  0
  8  7  1  0
  7  9  2  0
 10  9  1  0
 11  9  1  0
 12 10  1  0
 10 14  2  0
 15  1  1  0
 15 13  1  0
 15 14  1  0
 16  6  1  0
 16  8  1  0
 16 13  1  0
 17 11  2  0
 18 12  2  0
 19 13  2  0
 20  2  1  0
 20 11  1  0
 21  3  1  0
 21 12  1  0
M  END
>  <NAME>  (202) 
5-METHYL-2,3-DIMETHOXYCARBONYL-5,6-DIHYDROPYRROLO(1,2-D)(1,2,4)TRIAZOCIN-6-ONE

>  <SYNONYMS>  (202) 


>  <SPECTRUM TYPE>  (202) 
MS1

>  <INSTRUMENT TYPE>  (202) 
EI-B

>  <INSTRUMENT>  (202) 
Unknown

>  <ION MODE>  (202) 
P

>  <INCHIKEY>  (202) 
ZSTBUXXHIKVPIZ-IESVIYHPSA-N

>  <FORMULA>  (202) 
C13H13N3O5

>  <EXACT MASS>  (202) 
291.085520516

>  <MW>  (202) 
291

>  <ID>  (202) 
JP011862

>  <CONTRIBUTOR>  (202) 
University of Tokyo Team, {Faculty of Engineering, University of Tokyo

>  <COMMENT>  (202) 
SMILES=COC(=O)c(c1)c(C(=O)OC)nn(C)c(=O)n(c2)c(cc2)1
InChI=InChI=1S/C13H13N3O5/c1-15-13(19)16-6-4-5-8(16)7-9(11(17)20-2)10(14-15)12(18)21-3/h4-7H,1-3H3/b9-7+,14-10+
computed SMILES=O=C(OC)C1=NN(C(=O)N2C=CC=C2C=C1C(=O)OC)C
accession=JP011862
date=2016.01.19 (Created 2008.10.21, modified 2011.05.06)
author=YOSHIKI O, FAC, TECHNOLOGY, OSAKA UNIV.
license=CC BY-NC-SA
exact mass=291.08552
ionization energy=70 eV
ion type=[M]+*
computed spectral entropy=4.379944852721412
computed normalized entropy=0.8902361449672053
SPLASH=splash10-0a5c-9860000000-558e64b7f7f493b48495
submitter=submitter = University of Tokyo Team (Faculty of Engineering, University of Tokyo)
MoNA Rating=3.75

>  <NUM PEAKS>  (202) 
137

>  <MASS SPECTRAL PEAKS>  (202) 
50 14.4
51 30.8
52 19.1
53 14.2
54 4.9
55 6
56 23.4
57 11.1
58 4.4
59 99.99
60 3
61 6.3
62 28.9
63 42.7
64 20.3
65 14.9
66 10.3
67 5.7
68 2.8
69 3.5
70 1.3
71 1.9
72 6.2
73 2.1
74 7.1
75 15.1
76 18.2
77 22.9
78 16.3
79 9.4
80 10.7
81 2.4
82 1.9
83 1.6
84 1
85 1.2
86 1.1
87 3
88 10.4
89 25.3
90 28.3
91 10.6
92 8.2
93 4
94 4.9
95 1.9
96 1
99 1
100 1.3
101 1.8
102 15.2
103 29.5
104 27.3
105 8.7
106 7.7
107 3
108 1.1
109 1
111 1.1
115 4.1
116 26.2
117 25.1
118 15.6
119 18.9
120 4.4
121 1.2
129 11.1
130 13.3
131 19.2
132 13.3
133 5.2
134 2
135 4.6
143 1.3
144 33.6
145 14
146 28.3
147 9.7
148 4.5
149 10
150 1.1
157 1.7
158 5.4
159 11.6
160 14.4
161 4.3
162 6.1
163 1.4
171 1.9
172 11.3
173 11.4
174 14.4
175 11.3
176 8.1
177 18.9
178 2.5
182 1.5
186 2.8
187 1.7
188 5
189 10.8
190 12.4
191 2.9
192 17.9
193 2.1
200 37.2
201 9
202 2.9
203 4.3
204 17.5
205 7
206 49.6
207 6.5
214 1.1
216 3.2
217 4.3
218 3.6
219 1.1
220 29.7
221 4.4
230 15.8
231 59.8
232 34.4
233 6.1
234 1.7
235 1.5
247 1.3
248 2.5
260 10
261 1.9
263 6.3
264 1.1
276 1.1
290 2
291 65.4
292 10.5
293 1.7

>  <PREDICTED SPECTRUM>  (202) 
33 27
37 121
38 171
39 166
40 201
41 157
42 357
43 324
44 262
45 264
46 12
47 138
48 0
49 139
50 447
51 560
52 387
53 392
54 275
55 191
56 255
57 152
58 166
59 837
60 43
61 261
62 458
63 662
64 465
65 406
66 298
67 282
68 238
69 181
70 98
71 84
72 0
73 32
74 335
75 531
76 573
77 678
78 484
79 382
80 275
81 128
82 175
83 187
85 66
86 151
87 219
88 427
89 579
90 523
91 468
92 282
93 259
94 221
95 140
96 22
99 94
100 201
101 360
102 590
103 564
104 515
105 511
106 346
107 260
108 160
109 43
110 23
111 10
113 127
114 137
115 282
116 491
117 667
118 543
119 327
120 278
121 146
122 89
123 44
128 22
129 353
130 427
131 463
132 469
133 518
134 333
135 231
137 30
142 92
143 283
144 595
145 664
146 615
147 450
148 324
149 295
150 225
151 181
152 120
156 96
157 125
158 257
159 375
160 481
161 500
162 379
163 229
164 167
165 75
171 41
172 400
173 672
174 389
175 192
176 340
177 392
178 325
179 100
186 169
187 248
188 457
189 444
190 210
191 327
192 442
193 203
194 60
200 656
201 526
202 225
203 217
204 418
205 441
206 392
207 163
208 1
215 105
216 447
217 334
218 224
219 204
220 480
221 200
222 15
228 8
230 288
231 777
232 720
233 404
234 129
235 14
246 101
247 205
248 180
249 85
260 313
261 112
262 51
263 344
264 162
276 59
277 49
289 44
291 999
292 414
293 108

$$$$

     RDKit          2D

 24 25  0  0  0  0  0  0  0  0999 V2000
   -5.9594    6.1638    0.0000 C   0  0  0  0  0  0  0  0  0  0  0  0
   -6.0132    8.2845    0.0000 C   0  0  0  0  0  0  0  0  0  0  0  0
   -8.1338    8.2306    0.0000 C   0  0  0  0  0  0  0  0  0  0  0  0
  -10.5834   -1.0518    0.0000 C   0  0  0  0  0  0  0  0  0  0  0  0
   -6.1868   -0.1851    0.0000 C   0  0  0  0  0  0  0  0  0  0  0  0
  -13.2736    6.1707    0.0000 C   0  0  0  0  0  0  0  0  0  0  0  0
  -12.8878    4.7212    0.0000 C   0  0  0  0  0  0  0  0  0  0  0  0
  -12.0144    6.9856    0.0000 C   0  0  0  0  0  0  0  0  0  0  0  0
  -10.7800    3.2700    0.0000 C   0  0  0  0  0  0  0  0  0  0  0  0
  -11.3900    4.6400    0.0000 C   0  0  0  0  0  0  0  0  0  0  0  0
   -9.3800    2.7300    0.0000 C   0  0  0  0  0  0  0  0  0  0  0  0
   -8.0100    3.3400    0.0000 C   0  0  0  0  0  0  0  0  0  0  0  0
   -9.3419    1.2305    0.0000 C   0  0  0  0  0  0  0  0  0  0  0  0
   -6.9228    2.3066    0.0000 C   0  0  0  0  0  0  0  0  0  0  0  0
   -9.4800    6.6500    0.0000 C   0  0  0  0  0  0  0  0  0  0  0  0
   -7.0466    7.1972    0.0000 C   0  0  0  0  0  0  0  0  0  0  0  0
   -7.4700    4.7400    0.0000 N   0  0  0  0  0  0  0  0  0  0  0  0
  -10.8500    6.0400    0.0000 N   0  0  0  0  0  0  0  0  0  0  0  0
   -8.0800    6.1100    0.0000 N   0  0  0  0  0  0  0  0  0  0  0  0
   -8.0243    0.5137    0.0000 O   0  0  0  0  0  0  0  0  0  0  0  0
   -5.4842    2.7315    0.0000 O   0  0  0  0  0  0  0  0  0  0  0  0
   -9.5181    8.1495    0.0000 O   0  0  0  0  0  0  0  0  0  0  0  0
  -10.6215    0.4478    0.0000 O   0  0  0  0  0  0  0  0  0  0  0  0
   -7.2741    0.8483    0.0000 O   0  0  0  0  0  0  0  0  0  0  0  0
  7  6  1  0
  8  6  2  0
 10  7  2  0
 10  9  1  0
  9 11  2  0
 12 11  1  0
 13 11  1  0
 14 12  1  0
 16  1  1  0
 16  2  1  0
 16  3  1  0
 12 17  2  0
 18  8  1  0
 18 10  1  0
 18 15  1  0
 19 15  1  0
 19 16  1  0
 19 17  1  0
 20 13  2  0
 21 14  2  0
 22 15  2  0
 23  4  1  0
 23 13  1  0
 24  5  1  0
 24 14  1  0
M  END
>  <NAME>  (203) 
5-TERT-BUTYL-2,3-DIMETHOXYCARBONYL-5,6-DIHYDROPYRROLO(1,2-D)(1,2,4)TRIAZOCIN-6-ONE

>  <SYNONYMS>  (203) 


>  <SPECTRUM TYPE>  (203) 
MS1

>  <INSTRUMENT TYPE>  (203) 
EI-B

>  <INSTRUMENT>  (203) 
Unknown

>  <ION MODE>  (203) 
P

>  <INCHIKEY>  (203) 
ZXJAGBZHYUDHNH-KAZNXQFFSA-N

>  <FORMULA>  (203) 
C16H19N3O5

>  <EXACT MASS>  (203) 
333.132470708

>  <MW>  (203) 
333

>  <ID>  (203) 
JP011861

>  <CONTRIBUTOR>  (203) 
University of Tokyo Team, {Faculty of Engineering, University of Tokyo

>  <COMMENT>  (203) 
SMILES=COC(=O)c(c1)c(C(=O)OC)nn(C(C)(C)C)c(=O)n(c2)c(cc2)1
InChI=InChI=1S/C16H19N3O5/c1-16(2,3)19-15(22)18-8-6-7-10(18)9-11(13(20)23-4)12(17-19)14(21)24-5/h6-9H,1-5H3/b11-9+,17-12+
computed SMILES=O=C(OC)C1=NN(C(=O)N2C=CC=C2C=C1C(=O)OC)C(C)(C)C
accession=JP011861
date=2016.01.19 (Created 2008.10.21, modified 2011.05.06)
author=YOSHIKI O, FAC, TECHNOLOGY, OSAKA UNIV.
license=CC BY-NC-SA
exact mass=333.13247
ionization energy=70 eV
ion type=[M]+*
computed spectral entropy=4.3453495327394025
computed normalized entropy=0.8832045486046267
SPLASH=splash10-0a4l-6961000000-40e623e1e0bf75c2e2f3
submitter=submitter = University of Tokyo Team (Faculty of Engineering, University of Tokyo)
MoNA Rating=3.75

>  <NUM PEAKS>  (203) 
137

>  <MASS SPECTRAL PEAKS>  (203) 
50 3.5
51 5.7
52 4.6
53 6.9
54 1.8
55 9.8
56 16.1
57 99.99
59 19
61 1.1
62 4.4
63 6.4
64 3.4
65 3.1
66 2.2
67 2.3
68 1.6
69 1.4
70 1.9
71 1.1
73 1
74 1.7
75 4.2
76 6.7
77 5.9
78 4.7
79 5.4
80 6.6
81 1.2
82 1.5
83 1
84 7.2
85 1.1
88 1.7
89 6
90 6.7
91 3
92 2.6
93 2.6
94 2.2
95 1.2
102 11.2
103 14.1
104 11.8
105 7.5
106 2.9
110 1.1
112 1
116 5.6
117 7.3
118 6.3
119 4.8
120 2
121 2
129 2.1
130 8.5
131 14.6
132 10.1
133 2.8
134 2.7
135 3.5
137 1.4
142 1.1
143 1
144 8.9
145 8.9
146 8.8
147 2.4
148 3.2
149 3.7
150 1.3
158 4.3
159 10.3
160 7.7
161 3.9
162 10
163 5.4
164 1
168 5.2
169 2.5
170 1
171 1
172 1.4
173 2
174 5.7
175 4
176 5.3
177 5.8
178 2.1
179 1
185 2.8
186 25.1
187 5.8
188 3.3
189 24.2
190 16.6
191 7.1
192 35.7
193 4
194 1.2
200 1.6
202 7.6
203 22.8
204 10.2
205 3.3
206 1.2
209 1.4
214 1.4
216 2
217 15.1
218 12.5
219 3.9
220 19.7
221 3.5
224 2.1
232 14.3
233 3
234 2.4
235 7.6
236 1.5
244 24.4
245 16.3
246 25.1
247 3.4
248 2.9
249 3
261 1.8
275 2.4
276 17.3
277 40.8
278 8.2
317 2.4
318 10.6
319 2.5
332 6.1
333 23.6
334 4

>  <PREDICTED SPECTRUM>  (203) 
29 46
33 16
37 18
38 51
39 299
40 153
41 628
42 242
43 113
44 194
45 141
46 37
47 10
48 31
49 40
50 214
51 339
52 353
53 403
54 276
55 273
56 406
57 999
58 212
59 539
60 32
61 45
62 169
63 314
64 304
65 276
66 228
67 255
68 144
69 97
70 22
71 90
73 54
74 149
75 212
76 296
77 440
78 425
79 308
80 259
81 124
82 90
83 84
84 117
85 196
86 63
87 131
88 204
89 351
90 399
91 382
92 304
93 141
94 145
95 103
97 2
99 20
101 85
102 271
103 289
104 370
105 295
106 342
107 179
108 88
109 104
113 19
114 113
115 227
116 283
117 326
118 303
119 217
120 199
121 173
122 89
123 33
124 53
125 43
126 30
127 64
128 50
129 214
130 484
131 520
132 496
133 292
134 248
135 219
136 68
137 41
142 99
143 170
144 445
145 397
146 412
147 270
148 325
149 239
150 123
151 38
152 4
156 58
157 163
158 334
159 480
160 589
161 461
162 427
163 383
164 171
165 124
170 83
171 168
172 272
173 216
174 255
175 263
176 249
177 291
178 112
179 28
185 100
186 484
187 457
188 506
189 575
190 484
191 507
192 621
193 298
194 43
199 2
200 207
201 135
202 316
203 538
204 436
205 266
206 204
207 78
214 1
215 56
216 275
217 468
218 543
219 407
220 402
221 328
230 4
231 75
232 446
233 272
234 264
235 236
236 36
243 65
244 640
245 634
246 529
247 204
248 85
249 136
250 81
258 22
260 53
261 90
262 88
263 5
276 594
277 868
278 381
279 95
286 32
288 82
291 45
292 22
302 93
318 475
319 226
333 777
334 343
335 99

$$$$

     RDKit          2D

 17 17  0  0  0  0  0  0  0  0999 V2000
   -3.8834   -0.6547    0.0000 C   0  0  0  0  0  0  0  0  0  0  0  0
   -5.9324   -0.1057    0.0000 C   0  0  0  0  0  0  0  0  0  0  0  0
   -5.3834    1.9434    0.0000 C   0  0  0  0  0  0  0  0  0  0  0  0
   -1.2853    1.9434    0.0000 C   0  0  0  0  0  0  0  0  0  0  0  0
   -0.7363   -0.1057    0.0000 C   0  0  0  0  0  0  0  0  0  0  0  0
   -2.7853   -0.6547    0.0000 C   0  0  0  0  0  0  0  0  0  0  0  0
    1.8618    1.3943    0.0000 C   0  0  0  0  0  0  0  0  0  0  0  0
    1.8623    2.8952    0.0000 C   0  0  0  0  0  0  0  0  0  0  0  0
    0.5623    0.6435    0.0000 C   0  0  0  0  0  0  0  0  0  0  0  0
    0.5632    3.6452    0.0000 C   0  0  0  0  0  0  0  0  0  0  0  0
   -0.7368    1.3935    0.0000 C   0  0  0  0  0  0  0  0  0  0  0  0
   -2.0353    3.6443    0.0000 C   0  0  0  0  0  0  0  0  0  0  0  0
   -0.7363    2.8943    0.0000 C   0  0  0  0  0  0  0  0  0  0  0  0
   -3.3344    1.3943    0.0000 C   0  0  0  0  0  0  0  0  0  0  0  0
   -3.3344    2.8943    0.0000 N   0  0  0  0  0  0  0  0  0  0  0  0
   -4.6334    0.6443    0.0000 Si  0  0  0  0  0  4  0  0  0  0  0  0
   -2.0353    0.6443    0.0000 Si  0  0  0  0  0  4  0  0  0  0  0  0
  8  7  2  0
  9  7  1  0
 10  8  1  0
 11  9  2  0
 13 10  2  0
 13 11  1  0
 13 12  1  0
 12 15  2  0
 15 14  1  0
 16  1  1  0
 16  2  1  0
 16  3  1  0
 16 14  1  0
 17  4  1  0
 17  5  1  0
 17  6  1  0
 17 14  1  0
M  END
>  <NAME>  (204) 
N-(BENZYLIDENE)BIS(TRIMETHYLSILYL)METHYLAMINE

>  <SYNONYMS>  (204) 


>  <SPECTRUM TYPE>  (204) 
MS1

>  <INSTRUMENT TYPE>  (204) 
EI-B

>  <INSTRUMENT>  (204) 
Unknown

>  <ION MODE>  (204) 
P

>  <INCHIKEY>  (204) 
IVNKBXWUJJTCLW-QINSGFPZSA-N

>  <FORMULA>  (204) 
C14H25NSi2

>  <EXACT MASS>  (204) 
263.15255286

>  <MW>  (204) 
263

>  <ID>  (204) 
JP011859

>  <CONTRIBUTOR>  (204) 
University of Tokyo Team, {Faculty of Engineering, University of Tokyo

>  <COMMENT>  (204) 
SMILES=c(c1)ccc(c1)C=NC([Si](C)(C)C)[Si](C)(C)C
InChI=InChI=1S/C14H25NSi2/c1-16(2,3)14(17(4,5)6)15-12-13-10-8-7-9-11-13/h7-12,14H,1-6H3/b15-12-
computed SMILES=N(=CC=1C=CC=CC1)C([Si](C)(C)C)[Si](C)(C)C
accession=JP011859
date=2016.01.19 (Created 2008.10.21, modified 2011.05.06)
author=YOSHIKI O, FAC, TECHNOLOGY, OSAKA UNIV.
license=CC BY-NC-SA
exact mass=263.15255
ionization energy=70 eV
ion type=[M]+*
computed spectral entropy=3.0952322385346815
computed normalized entropy=0.8131091860264809
SPLASH=splash10-03kc-8960000000-f513ee4ff6ec8041b73e
submitter=submitter = University of Tokyo Team (Faculty of Engineering, University of Tokyo)
MoNA Rating=3.75

>  <NUM PEAKS>  (204) 
45

>  <MASS SPECTRAL PEAKS>  (204) 
57 3.4
58 4.2
59 60.4
60 4.6
63 3.3
71 3
72 3.6
73 99.99
74 20.5
75 10.1
85 8
86 5
89 10.3
90 6.6
91 6.6
100 4
105 5.3
117 8.3
118 2.8
121 7
131 2.6
133 4.3
135 11.3
145 9
146 4.3
147 3.5
148 10.3
149 7.4
160 6.5
162 8.7
172 14.3
173 2.8
174 5.2
176 3.4
186 3.3
189 42.8
190 83.4
191 16.3
192 3.9
248 24.6
249 6.4
262 97.8
263 37.9
264 13.2
265 2.9

>  <PREDICTED SPECTRUM>  (204) 
29 7
39 72
43 128
44 64
45 260
46 49
51 38
57 19
58 68
59 274
60 70
61 4
63 15
69 46
70 38
71 81
72 103
73 924
74 287
75 163
76 50
77 178
78 2
79 2
85 76
86 91
87 25
88 10
89 52
90 25
91 118
93 62
94 10
97 7
99 17
100 174
101 26
102 84
103 82
104 89
105 104
106 3
107 21
113 54
114 80
115 55
116 115
117 114
118 71
119 25
120 48
121 78
122 41
128 101
129 137
130 34
131 122
132 139
133 137
134 176
135 366
136 104
144 42
145 157
146 173
147 235
148 252
149 174
150 92
151 19
159 49
160 183
161 93
162 185
163 92
164 15
170 5
171 13
172 169
173 56
174 296
175 163
176 82
177 23
185 20
186 126
188 129
189 328
190 647
191 301
192 120
193 3
221 81
248 361
249 212
250 55
251 8
260 66
261 152
262 999
263 651
264 393
265 136
266 49

$$$$

     RDKit          2D

 21 21  0  0  0  0  0  0  0  0999 V2000
    7.7942   -1.1249    0.0000 C   0  0  0  0  0  0  0  0  0  0  0  0
   -0.5500    5.4247    0.0000 C   0  0  0  0  0  0  0  0  0  0  0  0
   -2.5990    4.8753    0.0000 C   0  0  0  0  0  0  0  0  0  0  0  0
   -2.0496    2.8264    0.0000 C   0  0  0  0  0  0  0  0  0  0  0  0
    2.0485    2.8270    0.0000 C   0  0  0  0  0  0  0  0  0  0  0  0
    2.5972    4.8761    0.0000 C   0  0  0  0  0  0  0  0  0  0  0  0
    0.5480    5.4249    0.0000 C   0  0  0  0  0  0  0  0  0  0  0  0
    6.4953   -0.3747    0.0000 C   0  0  0  0  0  0  0  0  0  0  0  0
   -0.0010   -2.6257    0.0000 C   0  0  0  0  0  0  0  0  0  0  0  0
    1.2980   -3.3757    0.0000 C   0  0  0  0  0  0  0  0  0  0  0  0
   -0.0005   -1.1249    0.0000 C   0  0  0  0  0  0  0  0  0  0  0  0
    2.5975   -2.6249    0.0000 C   0  0  0  0  0  0  0  0  0  0  0  0
    5.1961   -1.1245    0.0000 C   0  0  0  0  0  0  0  0  0  0  0  0
    1.2987    1.1259    0.0000 C   0  0  0  0  0  0  0  0  0  0  0  0
    1.2990   -0.3741    0.0000 C   0  0  0  0  0  0  0  0  0  0  0  0
    2.5980   -1.1241    0.0000 C   0  0  0  0  0  0  0  0  0  0  0  0
   -0.0007    3.3757    0.0000 C   0  0  0  0  0  0  0  0  0  0  0  0
   -0.0004    1.8757    0.0000 N   0  0  0  0  0  0  0  0  0  0  0  0
    3.8972   -0.3743    0.0000 O   0  0  0  0  0  0  0  0  0  0  0  0
   -1.2998    4.1255    0.0000 Si  0  0  0  0  0  4  0  0  0  0  0  0
    1.2983    4.1259    0.0000 Si  0  0  0  0  0  4  0  0  0  0  0  0
  8  1  2  0
 10  9  2  0
 11  9  1  0
 12 10  1  0
 13  8  1  0
 15 11  2  0
 15 14  1  0
 16 12  2  0
 16 15  1  0
 14 18  2  0
 18 17  1  0
 19 13  1  0
 19 16  1  0
 20  2  1  0
 20  3  1  0
 20  4  1  0
 20 17  1  0
 21  5  1  0
 21  6  1  0
 21  7  1  0
 21 17  1  0
M  END
>  <NAME>  (205) 
N-(2-PROPENOXYBENZYLIDENE)BIS(TRIMETHYLSILYL)METHYLAMINE

>  <SYNONYMS>  (205) 


>  <SPECTRUM TYPE>  (205) 
MS1

>  <INSTRUMENT TYPE>  (205) 
EI-B

>  <INSTRUMENT>  (205) 
Unknown

>  <ION MODE>  (205) 
P

>  <INCHIKEY>  (205) 
GDNQPQDOMYIIIY-NBVRZTHBSA-N

>  <FORMULA>  (205) 
C17H29NOSi2

>  <EXACT MASS>  (205) 
319.178767608

>  <MW>  (205) 
319

>  <ID>  (205) 
JP011857

>  <CONTRIBUTOR>  (205) 
University of Tokyo Team, {Faculty of Engineering, University of Tokyo

>  <COMMENT>  (205) 
SMILES=C=CCOc(c1)c(ccc1)C=NC([Si](C)(C)C)[Si](C)(C)C
InChI=InChI=1S/C17H29NOSi2/c1-8-13-19-16-12-10-9-11-15(16)14-18-17(20(2,3)4)21(5,6)7/h8-12,14,17H,1,13H2,2-7H3/b18-14+
computed SMILES=N(=CC=1C=CC=CC1OCC=C)C([Si](C)(C)C)[Si](C)(C)C
accession=JP011857
date=2016.01.19 (Created 2008.10.21, modified 2011.05.06)
author=YOSHIKI O, FAC, TECHNOLOGY, OSAKA UNIV.
license=CC BY-NC-SA
exact mass=319.17877
ionization energy=70 eV
ion type=[M]+*
computed spectral entropy=3.4227956352703846
computed normalized entropy=0.8841689247409179
SPLASH=splash10-00fs-9880000000-f652b0c52c084e1e38d7
submitter=submitter = University of Tokyo Team (Faculty of Engineering, University of Tokyo)
MoNA Rating=3.75

>  <NUM PEAKS>  (205) 
48

>  <MASS SPECTRAL PEAKS>  (205) 
51 9
58 5
59 29.1
73 99.99
74 21.9
75 14.7
77 8.6
85 5.3
89 3.9
91 8.9
100 4.4
102 28.6
103 5.6
115 4
117 6.5
129 3.6
131 11.3
132 4.3
135 14.4
145 23.9
146 5.3
147 7.5
149 5.4
151 4.2
161 6.6
162 8.8
163 13.8
172 6.6
176 5.2
177 5.9
179 4.6
189 4.3
190 8.2
204 8.2
205 8.9
206 5.6
246 41.4
247 8.6
248 5.3
262 11.1
263 14.5
264 4.3
277 29
278 43.6
279 12.4
280 4.2
318 8.4
319 3.7

>  <PREDICTED SPECTRUM>  (205) 
27 3
28 29
29 53
31 26
39 129
41 224
42 52
43 31
44 64
45 304
46 44
47 58
51 21
54 4
55 77
56 26
57 101
58 48
59 525
60 21
61 72
63 64
64 6
65 26
72 56
73 999
74 328
75 255
76 78
77 186
78 24
85 105
86 62
87 38
88 78
89 116
90 54
91 107
92 6
93 29
99 89
100 299
101 124
102 379
103 197
104 93
105 82
114 146
115 259
116 125
117 172
118 70
119 64
120 35
121 35
128 102
129 161
130 47
131 183
132 165
133 163
134 141
135 522
136 82
144 38
145 494
146 298
147 459
148 215
149 128
150 29
158 78
159 39
160 36
161 280
162 305
163 256
164 102
166 0
175 50
176 119
177 159
178 26
184 19
186 16
187 37
188 64
189 208
190 279
191 89
194 48
202 65
203 127
204 343
205 249
206 214
207 57
218 60
230 71
245 38
246 754
247 334
248 201
249 36
250 70
262 270
263 295
264 164
265 5
276 107
277 421
278 917
279 473
280 221
305 103
318 368
319 266
320 101

$$$$

     RDKit          2D

 23 24  0  0  0  0  0  0  0  0999 V2000
    1.9049    4.8269    0.0000 C   0  0  0  0  0  0  0  0  0  0  0  0
   -4.0061    3.2988    0.0000 C   0  0  0  0  0  0  0  0  0  0  0  0
   -3.0977    0.5778    0.0000 C   0  0  0  0  0  0  0  0  0  0  0  0
   -4.0655   -1.3099    0.0000 C   0  0  0  0  0  0  0  0  0  0  0  0
   -2.1778   -2.2777    0.0000 C   0  0  0  0  0  0  0  0  0  0  0  0
    5.4932   -1.7699    0.0000 C   0  0  0  0  0  0  0  0  0  0  0  0
    5.1780   -0.3026    0.0000 C   0  0  0  0  0  0  0  0  0  0  0  0
    4.3807   -2.7773    0.0000 C   0  0  0  0  0  0  0  0  0  0  0  0
    3.7502    0.1574    0.0000 C   0  0  0  0  0  0  0  0  0  0  0  0
    2.9530   -2.3173    0.0000 C   0  0  0  0  0  0  0  0  0  0  0  0
    2.6377   -0.8500    0.0000 C   0  0  0  0  0  0  0  0  0  0  0  0
    0.7500    1.0300    0.0000 C   0  0  0  0  0  0  0  0  0  0  0  0
   -0.7500    1.0300    0.0000 C   0  0  0  0  0  0  0  0  0  0  0  0
    1.2100   -0.3900    0.0000 C   0  0  0  0  0  0  0  0  0  0  0  0
   -1.2100   -0.3900    0.0000 C   0  0  0  0  0  0  0  0  0  0  0  0
    1.6322    2.2431    0.0000 C   0  0  0  0  0  0  0  0  0  0  0  0
   -1.6322    2.2431    0.0000 C   0  0  0  0  0  0  0  0  0  0  0  0
   -0.0000   -1.2800    0.0000 N   0  0  0  0  0  0  0  0  0  0  0  0
    3.1239    2.0857    0.0000 O   0  0  0  0  0  0  0  0  0  0  0  0
   -1.0227    3.6137    0.0000 O   0  0  0  0  0  0  0  0  0  0  0  0
    1.0227    3.6137    0.0000 O   0  0  0  0  0  0  0  0  0  0  0  0
   -3.1239    2.0857    0.0000 O   0  0  0  0  0  0  0  0  0  0  0  0
   -2.6377   -0.8500    0.0000 Si  0  0  0  0  0  4  0  0  0  0  0  0
  7  6  2  0
  8  6  1  0
  9  7  1  0
 10  8  2  0
 11  9  2  0
 11 10  1  0
 13 12  1  0
 14 11  1  0
 14 12  2  0
 15 13  2  0
 16 12  1  0
 17 13  1  0
 18 14  1  0
 18 15  1  0
 19 16  2  0
 20 17  2  0
 21  1  1  0
 21 16  1  0
 22  2  1  0
 22 17  1  0
 23  3  1  0
 23  4  1  0
 23  5  1  0
 23 15  1  0
M  END
>  <NAME>  (206) 
3,4-BIS(METHOXYCARBONYL)-2-TRIMETHYLSILYL-5-PHENYLPYRROLE

>  <SYNONYMS>  (206) 


>  <SPECTRUM TYPE>  (206) 
MS1

>  <INSTRUMENT TYPE>  (206) 
EI-B

>  <INSTRUMENT>  (206) 
Unknown

>  <ION MODE>  (206) 
P

>  <INCHIKEY>  (206) 
QSRJOFCWFWAPJH-UHFFFAOYSA-N

>  <FORMULA>  (206) 
C17H21NO4Si

>  <EXACT MASS>  (206) 
331.12398468200007

>  <MW>  (206) 
331

>  <ID>  (206) 
JP011856

>  <CONTRIBUTOR>  (206) 
University of Tokyo Team, {Faculty of Engineering, University of Tokyo

>  <COMMENT>  (206) 
SMILES=COC(=O)C1=C(NC(=C1C(=O)OC)[Si](C)(C)C)C2=CC=CC=C2
InChI=InChI=1S/C17H21NO4Si/c1-21-16(19)12-13(17(20)22-2)15(23(3,4)5)18-14(12)11-9-7-6-8-10-11/h6-10,18H,1-5H3
computed SMILES=O=C(OC)C1=C(NC(=C1C(=O)OC)[Si](C)(C)C)C=2C=CC=CC2
accession=JP011856
date=2016.01.19 (Created 2008.10.21, modified 2011.05.06)
author=YOSHIKI O, FAC, TECHNOLOGY, OSAKA UNIV.
license=CC BY-NC-SA
exact mass=331.12398
ionization energy=70 eV
ion type=[M]+*
computed spectral entropy=2.7924555627415426
computed normalized entropy=0.8675250971683203
SPLASH=splash10-0159-1169000000-68dba810b190e1aa545e
submitter=submitter = University of Tokyo Team (Faculty of Engineering, University of Tokyo)
MoNA Rating=3.75

>  <NUM PEAKS>  (206) 
25

>  <MASS SPECTRAL PEAKS>  (206) 
59 20.3
73 6.5
75 7.1
77 5.4
89 12.9
104 8.3
113 10.9
128 6.7
129 5.6
143 11.4
254 46.6
255 42.3
256 9.1
270 8
271 7.5
284 57.3
285 52.8
300 15.9
301 13.8
316 99.99
317 93.3
318 23.3
319 6.5
331 29.2
332 26.4

>  <PREDICTED SPECTRUM>  (206) 
15 18
29 15
39 73
40 4
41 39
42 29
43 104
44 110
45 198
46 34
47 32
50 17
51 183
52 39
53 64
55 39
57 22
58 2
59 380
61 4
63 84
65 40
66 3
69 53
70 11
73 507
74 119
75 180
76 64
77 325
78 88
79 7
83 16
84 21
85 1
86 21
88 29
89 323
90 47
91 14
99 42
100 32
101 105
102 123
103 45
104 168
105 259
106 79
113 152
114 116
115 95
116 6
119 11
126 29
127 105
128 118
129 84
130 23
139 54
140 73
141 80
142 8
146 37
154 73
155 152
156 84
157 81
158 66
159 27
168 13
169 105
170 73
171 88
172 64
182 55
183 172
184 125
185 105
186 15
196 58
197 54
198 176
199 143
210 75
211 90
212 331
213 267
214 190
215 65
216 15
225 52
226 284
227 284
228 216
229 2
239 33
240 139
241 178
242 90
243 30
244 15
254 122
255 24
256 119
257 69
258 78
259 10
268 65
270 245
271 31
272 175
274 47
284 549
285 173
286 54
298 47
299 302
300 477
301 172
316 999
317 543
318 286
319 31
331 911
332 400
333 217
334 31

$$$$

     RDKit          2D

 24 25  0  0  0  0  0  0  0  0999 V2000
   -0.0000   -2.7800    0.0000 C   0  0  0  0  0  0  0  0  0  0  0  0
    1.9049    4.8269    0.0000 C   0  0  0  0  0  0  0  0  0  0  0  0
   -4.0061    3.2988    0.0000 C   0  0  0  0  0  0  0  0  0  0  0  0
   -3.0977    0.5778    0.0000 C   0  0  0  0  0  0  0  0  0  0  0  0
   -4.0655   -1.3099    0.0000 C   0  0  0  0  0  0  0  0  0  0  0  0
   -2.1778   -2.2777    0.0000 C   0  0  0  0  0  0  0  0  0  0  0  0
    5.4932   -1.7699    0.0000 C   0  0  0  0  0  0  0  0  0  0  0  0
    5.1780   -0.3026    0.0000 C   0  0  0  0  0  0  0  0  0  0  0  0
    4.3807   -2.7773    0.0000 C   0  0  0  0  0  0  0  0  0  0  0  0
    3.7502    0.1574    0.0000 C   0  0  0  0  0  0  0  0  0  0  0  0
    2.9530   -2.3173    0.0000 C   0  0  0  0  0  0  0  0  0  0  0  0
    2.6377   -0.8500    0.0000 C   0  0  0  0  0  0  0  0  0  0  0  0
    0.7500    1.0300    0.0000 C   0  0  0  0  0  0  0  0  0  0  0  0
   -0.7500    1.0300    0.0000 C   0  0  0  0  0  0  0  0  0  0  0  0
    1.2100   -0.3900    0.0000 C   0  0  0  0  0  0  0  0  0  0  0  0
   -1.2100   -0.3900    0.0000 C   0  0  0  0  0  0  0  0  0  0  0  0
    1.6322    2.2431    0.0000 C   0  0  0  0  0  0  0  0  0  0  0  0
   -1.6322    2.2431    0.0000 C   0  0  0  0  0  0  0  0  0  0  0  0
    0.0000   -1.2800    0.0000 N   0  0  0  0  0  0  0  0  0  0  0  0
    3.1239    2.0857    0.0000 O   0  0  0  0  0  0  0  0  0  0  0  0
   -1.0227    3.6137    0.0000 O   0  0  0  0  0  0  0  0  0  0  0  0
    1.0227    3.6137    0.0000 O   0  0  0  0  0  0  0  0  0  0  0  0
   -3.1239    2.0857    0.0000 O   0  0  0  0  0  0  0  0  0  0  0  0
   -2.6377   -0.8500    0.0000 Si  0  0  0  0  0  4  0  0  0  0  0  0
  8  7  2  0
  9  7  1  0
 10  8  1  0
 11  9  2  0
 12 10  2  0
 12 11  1  0
 14 13  1  0
 15 12  1  0
 15 13  2  0
 16 14  2  0
 17 13  1  0
 18 14  1  0
 19  1  1  0
 19 15  1  0
 19 16  1  0
 20 17  2  0
 21 18  2  0
 22  2  1  0
 22 17  1  0
 23  3  1  0
 23 18  1  0
 24  4  1  0
 24  5  1  0
 24  6  1  0
 24 16  1  0
M  END
>  <NAME>  (207) 
1-METHYL-3,4-BIS(METHOXYCARBONYL)-2-TRIMETHYLSILYL-5-PHENYLPYRROLE

>  <SYNONYMS>  (207) 


>  <SPECTRUM TYPE>  (207) 
MS1

>  <INSTRUMENT TYPE>  (207) 
EI-B

>  <INSTRUMENT>  (207) 
Unknown

>  <ION MODE>  (207) 
P

>  <INCHIKEY>  (207) 
YWPUIMMAJJUFBQ-UHFFFAOYSA-N

>  <FORMULA>  (207) 
C18H23NO4Si

>  <EXACT MASS>  (207) 
345.13963474600007

>  <MW>  (207) 
345

>  <ID>  (207) 
JP011855

>  <CONTRIBUTOR>  (207) 
University of Tokyo Team, {Faculty of Engineering, University of Tokyo

>  <COMMENT>  (207) 
SMILES=COC(=O)c(c(c(c2)cccc2)1)c(C(=O)OC)c([Si](C)(C)C)n(C)1
InChI=InChI=1S/C18H23NO4Si/c1-19-15(12-10-8-7-9-11-12)13(17(20)22-2)14(18(21)23-3)16(19)24(4,5)6/h7-11H,1-6H3
computed SMILES=O=C(OC)C=1C(C(=O)OC)=C(N(C1C=2C=CC=CC2)C)[Si](C)(C)C
accession=JP011855
date=2016.01.19 (Created 2008.10.21, modified 2011.05.06)
author=YOSHIKI O, FAC, TECHNOLOGY, OSAKA UNIV.
license=CC BY-NC-SA
exact mass=345.13963
ionization energy=70 eV
ion type=[M]+*
computed spectral entropy=3.0871210926390917
computed normalized entropy=0.8207808671913297
SPLASH=splash10-001i-3349000000-4d3aa6762590717b5045
submitter=submitter = University of Tokyo Team (Faculty of Engineering, University of Tokyo)
MoNA Rating=3.75

>  <NUM PEAKS>  (207) 
43

>  <MASS SPECTRAL PEAKS>  (207) 
51 2.4
59 21.9
73 10.5
75 5.9
77 9.1
89 7.5
91 2.9
113 3.4
118 21.4
119 2.3
126 2
127 3
128 2.3
129 4
134 2.3
135 2.6
139 7.4
149 7.9
150 8.2
154 2.2
168 2.5
182 2.4
212 3.6
226 2.2
228 2.5
256 2.9
270 2.6
282 7.8
283 2.1
284 8.3
285 2.1
286 10.7
287 3.3
298 31.2
299 7.7
300 6.3
314 10
315 2.5
330 99.99
331 24.5
332 6.5
345 18.9
346 4.4

>  <PREDICTED SPECTRUM>  (207) 
15 30
29 1
39 12
45 20
50 3
51 66
52 11
53 25
58 5
59 303
61 4
63 46
65 43
73 296
74 48
75 61
76 49
77 154
78 8
89 216
90 49
91 103
100 26
101 84
102 87
105 111
106 12
113 17
114 3
115 45
118 44
120 5
127 34
128 56
129 86
130 41
139 50
140 12
141 15
142 11
144 16
150 3
152 91
153 4
154 33
156 21
162 16
167 50
168 54
169 32
170 22
172 22
182 41
183 4
184 79
185 40
196 22
197 39
200 28
212 128
224 69
226 237
227 111
228 160
229 25
238 70
239 3
240 62
241 16
242 8
254 72
255 25
256 82
268 5
270 94
271 50
272 63
282 98
284 233
285 69
286 207
287 1
298 503
299 197
300 189
301 22
313 1
314 275
315 124
330 999
331 499
332 204
333 41
345 329
346 103
347 9

$$$$

     RDKit          2D

 20 21  0  0  0  0  0  0  0  0999 V2000
   -0.0000   -2.7800    0.0000 C   0  0  0  0  0  0  0  0  0  0  0  0
   -1.9049    4.8269    0.0000 C   0  0  0  0  0  0  0  0  0  0  0  0
    2.1778   -2.2777    0.0000 C   0  0  0  0  0  0  0  0  0  0  0  0
    4.0655   -1.3099    0.0000 C   0  0  0  0  0  0  0  0  0  0  0  0
    3.0977    0.5778    0.0000 C   0  0  0  0  0  0  0  0  0  0  0  0
   -5.4932   -1.7699    0.0000 C   0  0  0  0  0  0  0  0  0  0  0  0
   -4.3807   -2.7773    0.0000 C   0  0  0  0  0  0  0  0  0  0  0  0
   -5.1780   -0.3026    0.0000 C   0  0  0  0  0  0  0  0  0  0  0  0
   -2.9530   -2.3173    0.0000 C   0  0  0  0  0  0  0  0  0  0  0  0
   -3.7502    0.1574    0.0000 C   0  0  0  0  0  0  0  0  0  0  0  0
    0.7500    1.0300    0.0000 C   0  0  0  0  0  0  0  0  0  0  0  0
   -2.6377   -0.8500    0.0000 C   0  0  0  0  0  0  0  0  0  0  0  0
   -0.7500    1.0300    0.0000 C   0  0  0  0  0  0  0  0  0  0  0  0
    1.2100   -0.3900    0.0000 C   0  0  0  0  0  0  0  0  0  0  0  0
   -1.2100   -0.3900    0.0000 C   0  0  0  0  0  0  0  0  0  0  0  0
   -1.6322    2.2431    0.0000 C   0  0  0  0  0  0  0  0  0  0  0  0
    0.0000   -1.2800    0.0000 N   0  0  0  0  0  0  0  0  0  0  0  0
   -3.1239    2.0857    0.0000 O   0  0  0  0  0  0  0  0  0  0  0  0
   -1.0227    3.6137    0.0000 O   0  0  0  0  0  0  0  0  0  0  0  0
    2.6377   -0.8500    0.0000 Si  0  0  0  0  0  4  0  0  0  0  0  0
  7  6  2  0
  8  6  1  0
  9  7  1  0
 10  8  2  0
 12  9  2  0
 12 10  1  0
 13 11  1  0
 14 11  2  0
 15 12  1  0
 15 13  2  0
 16 13  1  0
 17  1  1  0
 17 14  1  0
 17 15  1  0
 18 16  2  0
 19  2  1  0
 19 16  1  0
 20  3  1  0
 20  4  1  0
 20  5  1  0
 20 14  1  0
M  END
>  <NAME>  (208) 
1-METHYL-3-METHOXYCARBONYL-5-TRIMETHYLSILYL-2-PHENYLPYRROLE

>  <SYNONYMS>  (208) 


>  <SPECTRUM TYPE>  (208) 
MS1

>  <INSTRUMENT TYPE>  (208) 
EI-B

>  <INSTRUMENT>  (208) 
Unknown

>  <ION MODE>  (208) 
P

>  <INCHIKEY>  (208) 
XIPSZFRGMKNJAT-UHFFFAOYSA-N

>  <FORMULA>  (208) 
C16H21NO2Si

>  <EXACT MASS>  (208) 
287.134155442

>  <MW>  (208) 
287

>  <ID>  (208) 
JP011854

>  <CONTRIBUTOR>  (208) 
University of Tokyo Team, {Faculty of Engineering, University of Tokyo

>  <COMMENT>  (208) 
SMILES=COC(=O)c(c([H])1)c(c(c2)cccc2)n(C)c([Si](C)(C)C)1
InChI=InChI=1S/C16H21NO2Si/c1-17-14(20(3,4)5)11-13(16(18)19-2)15(17)12-9-7-6-8-10-12/h6-11H,1-5H3
computed SMILES=O=C(OC)C=1C=C(N(C1C=2C=CC=CC2)C)[Si](C)(C)C
accession=JP011854
date=2016.01.19 (Created 2008.10.21, modified 2011.05.06)
author=YOSHIKI O, FAC, TECHNOLOGY, OSAKA UNIV.
license=CC BY-NC-SA
exact mass=287.13416
ionization energy=70 eV
ion type=[M]+*
computed spectral entropy=2.928534301270048
computed normalized entropy=0.8236983413779242
SPLASH=splash10-00dr-2390000000-f46859728d67e32104d2
submitter=submitter = University of Tokyo Team (Faculty of Engineering, University of Tokyo)
MoNA Rating=3.75

>  <NUM PEAKS>  (208) 
35

>  <MASS SPECTRAL PEAKS>  (208) 
51 3.4
53 3.6
59 21.2
73 17.2
75 4.3
77 7.4
83 3.1
89 7.1
91 3.4
113 7.7
114 8.1
115 3.5
118 8
120 9.7
121 9.7
127 4.3
128 6.7
129 7
154 4.4
167 3.2
168 4.1
182 14.9
198 3.6
212 3.7
224 3.5
240 3.3
242 9.8
256 17.3
257 5.3
272 99.99
273 23.3
274 6.5
287 68
288 15.3
289 4.2

>  <PREDICTED SPECTRUM>  (208) 
15 44
27 13
28 21
29 11
31 48
39 41
41 75
42 1
43 191
44 44
45 145
50 31
51 130
52 31
53 52
55 42
56 27
57 39
59 315
62 6
63 68
64 6
65 20
67 18
69 36
73 388
74 63
75 159
76 68
77 262
78 75
79 8
80 4
81 11
83 37
88 6
89 159
90 45
91 88
92 28
101 54
102 103
103 100
104 80
105 170
106 60
112 44
113 25
114 49
115 184
116 45
117 62
118 40
119 13
126 12
127 86
128 180
129 134
130 54
131 55
132 8
139 13
140 28
141 74
142 77
143 30
144 37
145 75
146 38
152 35
153 24
154 134
155 119
156 55
166 36
167 54
168 152
169 132
170 177
171 67
172 46
180 1
182 145
183 110
184 118
185 89
186 82
196 62
197 48
198 172
199 81
200 89
210 79
211 14
212 161
213 106
214 108
215 53
224 3
226 79
227 5
228 132
229 29
230 3
240 162
241 113
242 207
243 0
256 380
257 202
258 105
270 32
272 999
273 491
274 224
275 57
286 58
287 780
288 377
289 172
290 35

$$$$

     RDKit          2D

 19 19  0  0  0  0  0  0  0  0999 V2000
   -2.0353    1.3943    0.0000 C   0  0  0  0  0  0  0  0  0  0  0  0
   -5.3834    4.1934    0.0000 C   0  0  0  0  0  0  0  0  0  0  0  0
   -5.9324    2.1443    0.0000 C   0  0  0  0  0  0  0  0  0  0  0  0
   -3.8834    1.5953    0.0000 C   0  0  0  0  0  0  0  0  0  0  0  0
   -1.8344    5.1443    0.0000 C   0  0  0  0  0  0  0  0  0  0  0  0
   -3.3344    6.6443    0.0000 C   0  0  0  0  0  0  0  0  0  0  0  0
   -4.8344    5.1443    0.0000 C   0  0  0  0  0  0  0  0  0  0  0  0
    3.1608    1.3943    0.0000 C   0  0  0  0  0  0  0  0  0  0  0  0
    3.1613    2.8952    0.0000 C   0  0  0  0  0  0  0  0  0  0  0  0
    1.8613    0.6435    0.0000 C   0  0  0  0  0  0  0  0  0  0  0  0
    1.8623    3.6452    0.0000 C   0  0  0  0  0  0  0  0  0  0  0  0
    0.5623    1.3935    0.0000 C   0  0  0  0  0  0  0  0  0  0  0  0
    0.5627    2.8943    0.0000 C   0  0  0  0  0  0  0  0  0  0  0  0
   -0.7363    3.6443    0.0000 C   0  0  0  0  0  0  0  0  0  0  0  0
   -3.3344    3.6443    0.0000 C   0  0  0  0  0  0  0  0  0  0  0  0
   -2.0353    2.8943    0.0000 N   0  0  0  0  0  0  0  0  0  0  0  0
   -0.7363    5.1443    0.0000 O   0  0  0  0  0  0  0  0  0  0  0  0
   -4.6334    2.8943    0.0000 Si  0  0  0  0  0  4  0  0  0  0  0  0
   -3.3344    5.1443    0.0000 Si  0  0  0  0  0  4  0  0  0  0  0  0
  9  8  2  0
 10  8  1  0
 11  9  1  0
 12 10  2  0
 13 11  2  0
 13 12  1  0
 14 13  1  0
 16  1  1  0
 16 14  1  0
 16 15  1  0
 17 14  2  0
 18  2  1  0
 18  3  1  0
 18  4  1  0
 18 15  1  0
 19  5  1  0
 19  6  1  0
 19  7  1  0
 19 15  1  0
M  END
>  <NAME>  (209) 
N-METHYL-N-BIS(TRIMETHYLSILYL)METHYLBENZAMIDE

>  <SYNONYMS>  (209) 


>  <SPECTRUM TYPE>  (209) 
MS1

>  <INSTRUMENT TYPE>  (209) 
EI-B

>  <INSTRUMENT>  (209) 
Unknown

>  <ION MODE>  (209) 
P

>  <INCHIKEY>  (209) 
NWWLYVWRNWGAEB-UHFFFAOYSA-N

>  <FORMULA>  (209) 
C15H27NOSi2

>  <EXACT MASS>  (209) 
293.163117544

>  <MW>  (209) 
293

>  <ID>  (209) 
JP011852

>  <CONTRIBUTOR>  (209) 
University of Tokyo Team, {Faculty of Engineering, University of Tokyo

>  <COMMENT>  (209) 
SMILES=c(c1)ccc(c1)C(=O)N(C)C([Si](C)(C)C)[Si](C)(C)C
InChI=InChI=1S/C15H27NOSi2/c1-16(14(17)13-11-9-8-10-12-13)15(18(2,3)4)19(5,6)7/h8-12,15H,1-7H3
computed SMILES=O=C(C=1C=CC=CC1)N(C)C([Si](C)(C)C)[Si](C)(C)C
accession=JP011852
date=2016.01.19 (Created 2008.10.21, modified 2011.05.06)
author=YOSHIKI O, FAC, TECHNOLOGY, OSAKA UNIV.
license=CC BY-NC-SA
exact mass=293.16312
ionization energy=70 eV
ion type=[M]+*
computed spectral entropy=2.9122724817972627
computed normalized entropy=0.7742934149251567
SPLASH=splash10-05dl-7490000000-368063cfe423df4d2adc
submitter=submitter = University of Tokyo Team (Faculty of Engineering, University of Tokyo)
MoNA Rating=3.75

>  <NUM PEAKS>  (209) 
43

>  <MASS SPECTRAL PEAKS>  (209) 
50 2.1
51 10.5
57 2.7
58 4.2
59 28.8
60 2.4
61 2.1
72 2.8
73 96.6
74 8.9
75 6.2
77 60.9
78 4.4
86 2.6
91 4.5
100 6
103 2.3
104 5.3
105 62
106 4.9
114 2.5
116 2.5
118 37
119 4.2
130 2
133 2
135 3.3
147 7.4
162 2.1
188 3.2
190 5.5
204 3.5
205 3.1
219 4.3
220 12.6
221 2.5
278 86.7
279 22.3
280 9
292 99.99
293 38.8
294 14.7
295 2.9

>  <PREDICTED SPECTRUM>  (209) 
15 18
27 35
28 25
29 91
31 66
39 74
40 2
41 126
42 101
43 223
44 130
45 317
46 118
47 112
50 46
51 167
52 37
53 41
55 58
56 1
57 67
58 74
59 335
60 130
61 117
63 8
65 6
66 25
69 7
70 53
71 11
72 101
73 999
74 269
75 268
76 72
77 348
78 112
83 12
84 28
85 14
86 106
87 76
88 67
89 57
91 22
97 6
98 66
99 39
100 104
101 43
102 110
103 47
104 55
105 477
106 159
114 13
115 111
116 68
117 72
118 82
119 55
120 42
121 31
128 28
129 5
130 74
131 113
132 41
133 81
134 96
135 108
136 19
142 21
143 23
144 73
145 113
146 126
147 331
148 203
149 181
158 33
159 41
160 200
161 131
162 87
163 79
173 24
174 178
175 96
176 109
177 94
178 3
188 649
189 342
190 275
191 79
192 64
193 60
203 55
204 233
205 114
206 56
207 35
219 27
220 48
264 10
265 63
278 276
279 126
280 51
292 361
293 181
294 113
295 19

$$$$

     RDKit          2D

 18 18  0  0  0  0  0  0  0  0999 V2000
   -5.3834    4.1934    0.0000 C   0  0  0  0  0  0  0  0  0  0  0  0
   -5.9324    2.1443    0.0000 C   0  0  0  0  0  0  0  0  0  0  0  0
   -3.8834    1.5953    0.0000 C   0  0  0  0  0  0  0  0  0  0  0  0
   -1.8344    5.1443    0.0000 C   0  0  0  0  0  0  0  0  0  0  0  0
   -3.3344    6.6443    0.0000 C   0  0  0  0  0  0  0  0  0  0  0  0
   -4.8344    5.1443    0.0000 C   0  0  0  0  0  0  0  0  0  0  0  0
    3.1608    1.3943    0.0000 C   0  0  0  0  0  0  0  0  0  0  0  0
    3.1613    2.8952    0.0000 C   0  0  0  0  0  0  0  0  0  0  0  0
    1.8613    0.6435    0.0000 C   0  0  0  0  0  0  0  0  0  0  0  0
    1.8623    3.6452    0.0000 C   0  0  0  0  0  0  0  0  0  0  0  0
    0.5623    1.3935    0.0000 C   0  0  0  0  0  0  0  0  0  0  0  0
    0.5627    2.8943    0.0000 C   0  0  0  0  0  0  0  0  0  0  0  0
   -0.7363    3.6443    0.0000 C   0  0  0  0  0  0  0  0  0  0  0  0
   -3.3344    3.6443    0.0000 C   0  0  0  0  0  0  0  0  0  0  0  0
   -2.0353    2.8943    0.0000 N   0  0  0  0  0  0  0  0  0  0  0  0
   -0.7363    5.1443    0.0000 O   0  0  0  0  0  0  0  0  0  0  0  0
   -4.6334    2.8943    0.0000 Si  0  0  0  0  0  4  0  0  0  0  0  0
   -3.3344    5.1443    0.0000 Si  0  0  0  0  0  4  0  0  0  0  0  0
  8  7  2  0
  9  7  1  0
 10  8  1  0
 11  9  2  0
 12 10  2  0
 12 11  1  0
 13 12  1  0
 15 13  2  3
 15 14  1  0
 16 13  1  0
 17  1  1  0
 17  2  1  0
 17  3  1  0
 17 14  1  0
 18  4  1  0
 18  5  1  0
 18  6  1  0
 18 14  1  0
M  END
>  <NAME>  (210) 
N-BIS(TRIMETHYLSILYL)METHYLBENZAMIDE

>  <SYNONYMS>  (210) 


>  <SPECTRUM TYPE>  (210) 
MS1

>  <INSTRUMENT TYPE>  (210) 
EI-B

>  <INSTRUMENT>  (210) 
Unknown

>  <ION MODE>  (210) 
P

>  <INCHIKEY>  (210) 
LOLJOUYHPBYQHE-UHFFFAOYSA-N

>  <FORMULA>  (210) 
C14H25NOSi2

>  <EXACT MASS>  (210) 
279.14746748

>  <MW>  (210) 
279

>  <ID>  (210) 
JP011851

>  <CONTRIBUTOR>  (210) 
University of Tokyo Team, {Faculty of Engineering, University of Tokyo

>  <COMMENT>  (210) 
SMILES=c(c1)ccc(c1)C(=O)NC([Si](C)(C)C)[Si](C)(C)C
InChI=InChI=1S/C14H25NOSi2/c1-17(2,3)14(18(4,5)6)15-13(16)12-10-8-7-9-11-12/h7-11,14H,1-6H3,(H,15,16)
computed SMILES=OC(=NC([Si](C)(C)C)[Si](C)(C)C)C=1C=CC=CC1
accession=JP011851
date=2016.01.19 (Created 2008.10.21, modified 2011.05.06)
author=YOSHIKI O, FAC, TECHNOLOGY, OSAKA UNIV.
license=CC BY-NC-SA
exact mass=279.14747
ionization energy=70 eV
ion type=[M]+*
computed spectral entropy=2.9266242967001954
computed normalized entropy=0.8231611212417184
SPLASH=splash10-00b9-8590000000-17c772949b096b5e6bb7
submitter=submitter = University of Tokyo Team (Faculty of Engineering, University of Tokyo)
MoNA Rating=3.75

>  <NUM PEAKS>  (210) 
35

>  <MASS SPECTRAL PEAKS>  (210) 
51 8.9
58 3.2
59 18.8
73 92.2
74 9.7
75 14.1
76 3.5
77 41.4
78 3.4
86 3.5
104 13.7
105 34.7
117 7.1
119 4.5
132 4.1
133 7
135 3
145 5.3
146 12.6
147 6.1
148 3.3
174 15.3
175 3.2
190 8.1
191 3.5
193 5.8
206 4.5
262 9.9
263 3.5
264 34.3
265 8.6
266 3.4
278 99.99
279 38.7
280 14.1

>  <PREDICTED SPECTRUM>  (210) 
15 1
27 28
28 15
31 59
33 7
39 67
40 5
41 68
42 109
43 270
44 148
45 406
46 91
47 87
48 24
50 34
51 110
52 25
53 28
54 14
55 93
56 49
57 89
58 75
59 185
60 30
61 6
63 23
64 26
65 18
67 5
68 49
69 59
70 95
71 44
72 35
73 999
74 312
75 247
76 51
77 243
78 48
79 33
81 28
82 3
83 88
84 98
85 66
86 67
87 65
88 52
89 52
91 81
95 8
96 8
97 44
98 54
99 78
100 174
101 110
102 163
103 105
104 98
105 150
107 45
109 53
113 2
114 22
115 136
116 141
117 89
118 8
119 23
121 86
122 56
123 44
124 15
126 31
127 61
128 60
129 48
130 51
131 81
132 58
133 57
134 19
135 262
136 39
137 34
144 74
145 72
146 108
147 151
148 62
149 149
150 98
151 71
152 68
159 37
160 82
161 75
162 83
163 92
164 59
165 1
167 35
172 20
174 85
175 82
176 132
177 80
178 120
179 43
186 5
187 70
188 176
189 152
190 319
191 213
192 74
193 61
201 57
202 123
203 13
205 156
206 145
207 7
234 9
235 48
237 19
248 16
262 64
263 57
264 214
265 106
266 9
275 73
276 37
278 574
279 299
280 131
281 24

$$$$

     RDKit          2D

 17 17  0  0  0  0  0  0  0  0999 V2000
   -4.4518    5.3789    0.0000 C   0  0  0  0  0  0  0  0  0  0  0  0
   -6.5009    4.8299    0.0000 C   0  0  0  0  0  0  0  0  0  0  0  0
   -5.9518    2.7808    0.0000 C   0  0  0  0  0  0  0  0  0  0  0  0
    0.9585    5.2289    0.0000 C   0  0  0  0  0  0  0  0  0  0  0  0
   -0.9699    5.2289    0.0000 C   0  0  0  0  0  0  0  0  0  0  0  0
    3.8914    1.8299    0.0000 C   0  0  0  0  0  0  0  0  0  0  0  0
    3.8919    3.3307    0.0000 C   0  0  0  0  0  0  0  0  0  0  0  0
    2.5919    1.0790    0.0000 C   0  0  0  0  0  0  0  0  0  0  0  0
    2.5929    4.0807    0.0000 C   0  0  0  0  0  0  0  0  0  0  0  0
    1.2929    1.8290    0.0000 C   0  0  0  0  0  0  0  0  0  0  0  0
    1.2933    3.3299    0.0000 C   0  0  0  0  0  0  0  0  0  0  0  0
   -2.6038    4.0799    0.0000 C   0  0  0  0  0  0  0  0  0  0  0  0
   -5.2018    4.0799    0.0000 C   0  0  0  0  0  0  0  0  0  0  0  0
   -0.0057    4.0799    0.0000 C   0  0  0  0  0  0  0  0  0  0  0  0
   -3.9028    3.3299    0.0000 N   0  0  0  0  0  0  0  0  0  0  0  0
   -1.3047    3.3299    0.0000 N   0  0  0  0  0  0  0  0  0  0  0  0
   -2.6038    5.5799    0.0000 O   0  0  0  0  0  0  0  0  0  0  0  0
  7  6  2  0
  8  6  1  0
  9  7  1  0
 10  8  2  0
 11  9  2  0
 11 10  1  0
 13  1  1  0
 13  2  1  0
 13  3  1  0
 14  4  1  0
 14  5  1  0
 14 11  1  0
 15 12  2  3
 15 13  1  0
 16 12  1  0
 16 14  1  0
 17 12  1  0
M  END
>  <NAME>  (211) 
1-ALPHA,ALPHA-DIMETHYLBENZYL-3-TERT-BUTYLUREA

>  <SYNONYMS>  (211) 


>  <SPECTRUM TYPE>  (211) 
MS1

>  <INSTRUMENT TYPE>  (211) 
EI-B

>  <INSTRUMENT>  (211) 
Unknown

>  <ION MODE>  (211) 
P

>  <INCHIKEY>  (211) 
HDKBXCJPXGAQTP-UHFFFAOYSA-N

>  <FORMULA>  (211) 
C14H22N2O

>  <EXACT MASS>  (211) 
234.173213324

>  <MW>  (211) 
234

>  <ID>  (211) 
JP011850

>  <CONTRIBUTOR>  (211) 
University of Tokyo Team, {Faculty of Engineering, University of Tokyo

>  <COMMENT>  (211) 
SMILES=CC(C)(C)NC(=O)NC(C)(C)c(c1)cccc1
InChI=InChI=1S/C14H22N2O/c1-13(2,3)15-12(17)16-14(4,5)11-9-7-6-8-10-11/h6-10H,1-5H3,(H2,15,16,17)
computed SMILES=OC(=NC(C)(C)C)NC(C=1C=CC=CC1)(C)C
accession=JP011850
date=2016.01.19 (Created 2008.10.21, modified 2011.05.06)
author=YOSHIKI O, FAC, TECHNOLOGY, OSAKA UNIV.
license=CC BY-NC-SA
exact mass=234.17321
ionization energy=70 eV
ion type=[M]+*
computed spectral entropy=2.577175285931932
computed normalized entropy=0.7248728510851611
SPLASH=splash10-0ab9-9500000000-4e3edd19d302d864eec7
submitter=submitter = University of Tokyo Team (Faculty of Engineering, University of Tokyo)
MoNA Rating=3.75

>  <NUM PEAKS>  (211) 
35

>  <MASS SPECTRAL PEAKS>  (211) 
50 1.1
51 4.6
52 1.1
55 2.3
56 4.3
57 14.9
58 99.99
59 3.9
61 6.3
65 2
72 2
77 9.7
78 3.2
79 4.2
84 1.4
91 18.8
92 1.7
93 5.5
101 1.2
102 5.6
103 3.5
104 3.7
105 1.1
115 1.9
117 3.5
118 6.8
119 16
120 64.9
121 6.3
129 1.1
134 1.6
146 1.7
219 12.6
220 2.1
234 3.2

>  <PREDICTED SPECTRUM>  (211) 
33 3
34 5
38 18
39 329
40 164
41 591
42 560
43 201
44 84
50 119
51 370
52 142
53 110
54 70
55 145
56 382
57 573
58 474
59 133
62 15
63 101
64 58
65 259
66 79
67 63
68 94
69 34
72 25
73 55
74 11
75 30
76 22
77 541
78 281
79 196
80 37
81 107
82 87
83 167
84 184
89 108
90 40
91 732
92 278
93 72
97 6
98 152
99 49
100 131
101 12
102 52
103 343
104 219
105 223
106 120
110 47
114 29
115 151
116 197
117 261
118 846
119 944
120 528
121 17
125 14
130 66
131 175
132 186
133 193
134 18
135 0
136 16
144 27
146 30
148 22
157 123
158 85
159 61
160 180
161 73
162 24
163 13
173 7
175 34
176 98
177 163
178 57
179 19
219 999
220 371
233 49
234 459
235 149
236 14

$$$$

     RDKit          2D

 10 11  0  0  0  0  0  0  0  0999 V2000
    2.6000    0.0000    0.0000 C   0  0  0  0  0  0  0  0  0  0  0  0
    1.7200    1.2100    0.0000 C   0  0  0  0  0  0  0  0  0  0  0  0
    1.7200   -1.2100    0.0000 C   0  0  0  0  0  0  0  0  0  0  0  0
   -1.0100    1.5000    0.0000 C   0  0  0  0  0  0  0  0  0  0  0  0
    0.2900    0.7500    0.0000 C   0  0  0  0  0  0  0  0  0  0  0  0
   -1.0100   -1.5000    0.0000 C   0  0  0  0  0  0  0  0  0  0  0  0
   -2.3100    0.7500    0.0000 N   0  0  0  0  0  0  0  0  0  0  0  0
   -2.3100   -0.7500    0.0000 N   0  0  0  0  0  0  0  0  0  0  0  0
    0.2900   -0.7500    0.0000 N   0  0  0  0  0  0  0  0  0  0  0  0
   -1.0100   -3.0000    0.0000 O   0  0  0  0  0  0  0  0  0  0  0  0
  2  1  1  0
  3  1  2  0
  5  2  2  0
  5  4  1  0
  7  4  2  0
  8  6  2  0
  8  7  1  0
  9  3  1  0
  9  5  1  0
  9  6  1  0
 10  6  1  0
M  END
>  <NAME>  (212) 
3H,4H-PYRRO(1,2-D)(1,2,4)TRIAZIN-4-ONE

>  <SYNONYMS>  (212) 


>  <SPECTRUM TYPE>  (212) 
MS1

>  <INSTRUMENT TYPE>  (212) 
EI-B

>  <INSTRUMENT>  (212) 
Unknown

>  <ION MODE>  (212) 
P

>  <INCHIKEY>  (212) 
OQRPWJFDQXSBRH-UHFFFAOYSA-N

>  <FORMULA>  (212) 
C6H5N3O

>  <EXACT MASS>  (212) 
135.04326178

>  <MW>  (212) 
135

>  <ID>  (212) 
JP011849

>  <CONTRIBUTOR>  (212) 
University of Tokyo Team, {Faculty of Engineering, University of Tokyo

>  <COMMENT>  (212) 
SMILES=O=C(N1)n(c2)c(cc2)C=N1
InChI=InChI=1S/C6H5N3O/c10-6-8-7-4-5-2-1-3-9(5)6/h1-4H,(H,8,10)
computed SMILES=OC1=NN=CC2=CC=CN12
accession=JP011849
date=2016.01.19 (Created 2008.10.21, modified 2011.05.06)
author=YOSHIKI O, FAC, TECHNOLOGY, OSAKA UNIV.
license=CC BY-NC-SA
exact mass=135.04326
ionization energy=70 eV
ion type=[M]+*
computed spectral entropy=2.2568106365643152
computed normalized entropy=0.7301131157588485
SPLASH=splash10-0udr-9300000000-f3ab3eab093be3ba1b05
submitter=submitter = University of Tokyo Team (Faculty of Engineering, University of Tokyo)
MoNA Rating=3.75

>  <NUM PEAKS>  (212) 
22

>  <MASS SPECTRAL PEAKS>  (212) 
50 20.7
51 41.2
52 75.4
53 10.4
55 1
56 3.2
62 2.5
63 5.5
64 11.5
65 11.1
66 4.3
67 3
68 2.9
75 1.4
76 1.8
77 1.1
78 8.7
79 46.1
80 3.1
106 1.4
135 99.99
136 8.5

>  <PREDICTED SPECTRUM>  (212) 
25 1
26 13
28 13
37 154
38 275
39 252
40 202
41 102
42 46
44 6
49 58
50 292
51 474
52 662
53 552
54 224
55 77
61 38
63 115
64 135
65 224
66 223
67 79
68 6
76 112
78 323
79 505
80 371
81 13
106 212
107 223
108 83
135 999
136 288
137 19

$$$$

     RDKit          2D

 17 19  0  0  0  0  0  0  0  0999 V2000
   -7.5064    0.7492    0.0000 C   0  0  0  0  0  0  0  0  0  0  0  0
   -7.5066   -0.7517    0.0000 C   0  0  0  0  0  0  0  0  0  0  0  0
   -6.2070    1.5002    0.0000 C   0  0  0  0  0  0  0  0  0  0  0  0
    2.6000    0.0000    0.0000 C   0  0  0  0  0  0  0  0  0  0  0  0
   -6.2075   -1.5015    0.0000 C   0  0  0  0  0  0  0  0  0  0  0  0
   -4.9078    0.7504    0.0000 C   0  0  0  0  0  0  0  0  0  0  0  0
    1.7200    1.2100    0.0000 C   0  0  0  0  0  0  0  0  0  0  0  0
    1.7200   -1.2100    0.0000 C   0  0  0  0  0  0  0  0  0  0  0  0
   -1.0100    1.5000    0.0000 C   0  0  0  0  0  0  0  0  0  0  0  0
   -3.6089   -1.5002    0.0000 C   0  0  0  0  0  0  0  0  0  0  0  0
   -4.9081   -0.7504    0.0000 C   0  0  0  0  0  0  0  0  0  0  0  0
    0.2900    0.7500    0.0000 C   0  0  0  0  0  0  0  0  0  0  0  0
   -1.0100   -1.5000    0.0000 C   0  0  0  0  0  0  0  0  0  0  0  0
   -2.3100    0.7500    0.0000 N   0  0  0  0  0  0  0  0  0  0  0  0
    0.2900   -0.7500    0.0000 N   0  0  0  0  0  0  0  0  0  0  0  0
   -2.3100   -0.7500    0.0000 N   0  0  0  0  0  0  0  0  0  0  0  0
   -1.0100   -3.0000    0.0000 O   0  0  0  0  0  0  0  0  0  0  0  0
  2  1  2  0
  3  1  1  0
  5  2  1  0
  6  3  2  0
  7  4  1  0
  8  4  2  0
 11  5  2  0
 11  6  1  0
 11 10  1  0
 12  7  2  0
 12  9  1  0
 14  9  2  0
 15  8  1  0
 15 12  1  0
 15 13  1  0
 16 10  1  0
 16 13  1  0
 16 14  1  0
 17 13  2  0
M  END
>  <NAME>  (213) 
3H,4H-3-BENZYLPYRRO(1,2-D)(1,2,4)TRIAZIN-4-ONE

>  <SYNONYMS>  (213) 


>  <SPECTRUM TYPE>  (213) 
MS1

>  <INSTRUMENT TYPE>  (213) 
EI-B

>  <INSTRUMENT>  (213) 
Unknown

>  <ION MODE>  (213) 
P

>  <INCHIKEY>  (213) 
UEFIKAMUIWOPPJ-UHFFFAOYSA-N

>  <FORMULA>  (213) 
C13H11N3O

>  <EXACT MASS>  (213) 
225.090211972

>  <MW>  (213) 
225

>  <ID>  (213) 
JP011848

>  <CONTRIBUTOR>  (213) 
University of Tokyo Team, {Faculty of Engineering, University of Tokyo

>  <COMMENT>  (213) 
SMILES=c(c3)ccc(c3)CN(N=1)C(=O)n(c2)c(cc2)C1
InChI=InChI=1S/C13H11N3O/c17-13-15-8-4-7-12(15)9-14-16(13)10-11-5-2-1-3-6-11/h1-9H,10H2
computed SMILES=O=C1N2C=CC=C2C=NN1CC=3C=CC=CC3
accession=JP011848
date=2016.01.19 (Created 2008.10.21, modified 2011.05.06)
author=YOSHIKI O, FAC, TECHNOLOGY, OSAKA UNIV.
license=CC BY-NC-SA
exact mass=225.09021
ionization energy=70 eV
ion type=[M]+*
computed spectral entropy=2.5765209291900333
computed normalized entropy=0.743426793457817
SPLASH=splash10-0006-9210000000-92f5cdc54e3d2d646030
submitter=submitter = University of Tokyo Team (Faculty of Engineering, University of Tokyo)
MoNA Rating=3.75

>  <NUM PEAKS>  (213) 
32

>  <MASS SPECTRAL PEAKS>  (213) 
50 6.7
51 24
52 6.2
56 2.1
62 1.4
63 5.5
64 3.4
65 27.9
66 2.7
76 1.5
77 8.6
78 4.6
79 1.9
89 3.2
90 1.9
91 99.99
92 9.2
93 1.4
94 12.7
104 2.3
105 2.6
106 1.5
121 4.1
132 40.4
133 4
169 1.6
183 1.1
196 2.6
197 3.6
224 1.6
225 24.1
226 3.7

>  <PREDICTED SPECTRUM>  (213) 
27 10
37 50
38 112
39 303
40 131
41 171
44 81
50 183
51 330
52 194
53 72
54 6
62 67
63 227
64 208
65 437
66 126
67 91
70 7
74 11
75 55
76 108
77 297
78 254
79 65
89 144
90 19
91 999
92 334
93 175
94 20
104 254
105 230
106 127
107 53
119 57
120 66
132 663
133 173
148 9
196 111
197 167
198 44
224 124
225 573
226 138
227 3

$$$$

     RDKit          2D

 11 12  0  0  0  0  0  0  0  0999 V2000
   -3.6089   -1.5002    0.0000 C   0  0  0  0  0  0  0  0  0  0  0  0
    2.6000    0.0000    0.0000 C   0  0  0  0  0  0  0  0  0  0  0  0
    1.7200    1.2100    0.0000 C   0  0  0  0  0  0  0  0  0  0  0  0
    1.7200   -1.2100    0.0000 C   0  0  0  0  0  0  0  0  0  0  0  0
   -1.0100    1.5000    0.0000 C   0  0  0  0  0  0  0  0  0  0  0  0
    0.2900    0.7500    0.0000 C   0  0  0  0  0  0  0  0  0  0  0  0
   -1.0100   -1.5000    0.0000 C   0  0  0  0  0  0  0  0  0  0  0  0
   -2.3100    0.7500    0.0000 N   0  0  0  0  0  0  0  0  0  0  0  0
   -2.3100   -0.7500    0.0000 N   0  0  0  0  0  0  0  0  0  0  0  0
    0.2900   -0.7500    0.0000 N   0  0  0  0  0  0  0  0  0  0  0  0
   -1.0100   -3.0000    0.0000 O   0  0  0  0  0  0  0  0  0  0  0  0
  3  2  1  0
  4  2  2  0
  6  3  2  0
  6  5  1  0
  8  5  2  0
  9  1  1  0
  9  7  1  0
  9  8  1  0
 10  4  1  0
 10  6  1  0
 10  7  1  0
 11  7  2  0
M  END
>  <NAME>  (214) 
3H,4H-3-METHYLPYRRO(1,2-D)(1,2,4)TRIAZIN-4-ONE

>  <SYNONYMS>  (214) 


>  <SPECTRUM TYPE>  (214) 
MS1

>  <INSTRUMENT TYPE>  (214) 
EI-B

>  <INSTRUMENT>  (214) 
Unknown

>  <ION MODE>  (214) 
P

>  <INCHIKEY>  (214) 
YPIXFRMCJJZKOC-UHFFFAOYSA-N

>  <FORMULA>  (214) 
C7H7N3O

>  <EXACT MASS>  (214) 
149.058911844

>  <MW>  (214) 
149

>  <ID>  (214) 
JP011847

>  <CONTRIBUTOR>  (214) 
University of Tokyo Team, {Faculty of Engineering, University of Tokyo

>  <COMMENT>  (214) 
SMILES=CN(N=1)C(=O)n(c2)c(cc2)C1
InChI=InChI=1S/C7H7N3O/c1-9-7(11)10-4-2-3-6(10)5-8-9/h2-5H,1H3
computed SMILES=O=C1N2C=CC=C2C=NN1C
accession=JP011847
date=2016.01.19 (Created 2008.10.21, modified 2011.05.06)
author=YOSHIKI O, FAC, TECHNOLOGY, OSAKA UNIV.
license=CC BY-NC-SA
exact mass=149.05891
ionization energy=70 eV
ion type=[M]+*
computed spectral entropy=2.6586819073432477
computed normalized entropy=0.7603821414955448
SPLASH=splash10-0002-9800000000-b79279597e28e14ee050
submitter=submitter = University of Tokyo Team (Faculty of Engineering, University of Tokyo)
MoNA Rating=3.75

>  <NUM PEAKS>  (214) 
33

>  <MASS SPECTRAL PEAKS>  (214) 
51 22.4
52 7.9
53 1.8
56 6.8
58 1.4
61 1.4
63 2.3
64 6.9
65 9.2
66 4.7
67 3.1
74 1.7
75 1.9
76 1.2
77 1.6
78 25
79 14
80 4
91 1.4
92 3.9
93 11
94 16.3
95 1.2
105 2.6
106 8
107 1.6
119 1
120 4.8
121 10.3
122 1.1
148 5.5
149 99.99
150 8.1

>  <PREDICTED SPECTRUM>  (214) 
25 3
26 23
27 8
28 49
37 102
38 176
39 224
40 169
41 97
42 58
43 106
44 5
49 16
50 221
51 379
52 417
53 149
54 80
55 73
56 83
63 140
64 210
65 332
66 358
67 211
68 18
76 14
77 220
78 382
79 406
80 138
81 16
91 32
92 288
93 419
94 275
95 126
105 88
106 317
107 87
120 188
121 285
122 85
148 251
149 999
150 323

$$$$

     RDKit          2D

 15 16  0  0  0  0  0  0  0  0999 V2000
   -4.3591   -0.2013    0.0000 C   0  0  0  0  0  0  0  0  0  0  0  0
   -4.9078   -2.2504    0.0000 C   0  0  0  0  0  0  0  0  0  0  0  0
   -2.8587   -2.7991    0.0000 C   0  0  0  0  0  0  0  0  0  0  0  0
    2.6000    0.0000    0.0000 C   0  0  0  0  0  0  0  0  0  0  0  0
    1.7200    1.2100    0.0000 C   0  0  0  0  0  0  0  0  0  0  0  0
    1.7200   -1.2100    0.0000 C   0  0  0  0  0  0  0  0  0  0  0  0
    0.2900    0.7500    0.0000 C   0  0  0  0  0  0  0  0  0  0  0  0
   -1.0100    1.5000    0.0000 C   0  0  0  0  0  0  0  0  0  0  0  0
   -1.0100   -1.5000    0.0000 C   0  0  0  0  0  0  0  0  0  0  0  0
   -3.6089   -1.5002    0.0000 C   0  0  0  0  0  0  0  0  0  0  0  0
   -2.3100    0.7500    0.0000 N   0  0  0  0  0  0  0  0  0  0  0  0
    0.2900   -0.7500    0.0000 N   0  0  0  0  0  0  0  0  0  0  0  0
   -2.3100   -0.7500    0.0000 N   0  0  0  0  0  0  0  0  0  0  0  0
   -1.0100    3.0000    0.0000 O   0  0  0  0  0  0  0  0  0  0  0  0
   -1.0100   -3.0000    0.0000 O   0  0  0  0  0  0  0  0  0  0  0  0
  5  4  1  0
  6  4  2  0
  7  5  2  0
  8  7  1  0
 10  1  1  0
 10  2  1  0
 10  3  1  0
 11  8  1  0
 12  6  1  0
 12  7  1  0
 12  9  1  0
 13  9  1  0
 13 10  1  0
 13 11  1  0
 14  8  2  0
 15  9  2  0
M  END
>  <NAME>  (215) 
1H,2H,3H,4H-3-TERT-BUTYLPYRRO(1,2-D)(1,2,4)TRIAZINE-1,4-DIONE

>  <SYNONYMS>  (215) 


>  <SPECTRUM TYPE>  (215) 
MS1

>  <INSTRUMENT TYPE>  (215) 
EI-B

>  <INSTRUMENT>  (215) 
Unknown

>  <ION MODE>  (215) 
P

>  <INCHIKEY>  (215) 
WQLAWOVOLCRKAT-UHFFFAOYSA-N

>  <FORMULA>  (215) 
C10H13N3O2

>  <EXACT MASS>  (215) 
207.100776656

>  <MW>  (215) 
207

>  <ID>  (215) 
JP011846

>  <CONTRIBUTOR>  (215) 
University of Tokyo Team, {Faculty of Engineering, University of Tokyo

>  <COMMENT>  (215) 
SMILES=[H]c(c([H])1)c([H])n(C(=O)2)c1C(=O)NN(C(C)(C)C)2
InChI=InChI=1S/C10H13N3O2/c1-10(2,3)13-9(15)12-6-4-5-7(12)8(14)11-13/h4-6H,1-3H3,(H,11,14)
computed SMILES=O=C1NN(C(=O)N2C=CC=C12)C(C)(C)C
accession=JP011846
date=2016.01.19 (Created 2008.10.21, modified 2011.05.06)
author=YOSHIKI O, FAC, TECHNOLOGY, OSAKA UNIV.
license=CC BY-NC-SA
exact mass=207.10078
ionization energy=70 eV
ion type=[M]+*
computed spectral entropy=2.6795636533714164
computed normalized entropy=0.7263895951880716
SPLASH=splash10-0udl-9300000000-1cee83d2e912266455fd
submitter=submitter = University of Tokyo Team (Faculty of Engineering, University of Tokyo)
MoNA Rating=3.75

>  <NUM PEAKS>  (215) 
40

>  <MASS SPECTRAL PEAKS>  (215) 
50 4.7
51 29
52 2.5
53 4
54 2.4
55 5.9
56 10.6
57 53.2
58 3.8
60 1.1
64 2.7
65 4.5
66 14.2
67 4.6
68 2
70 1.5
73 1.8
81 1
83 1.7
84 43
85 1.7
86 27.9
87 2.8
88 5.6
93 5
94 86.5
95 14.3
96 1.3
99 1
101 3.1
102 1
107 1.1
125 1.8
144 1.1
151 99.99
152 9.5
166 1
181 1.2
207 8.1
208 1.1

>  <PREDICTED SPECTRUM>  (215) 
37 4
38 64
39 221
40 147
41 458
42 175
50 115
51 215
52 297
53 273
54 93
55 160
56 115
57 680
58 141
64 50
65 154
66 242
67 270
68 134
69 35
76 20
79 142
80 40
81 71
82 45
92 147
93 193
94 530
95 657
96 235
107 53
108 4
121 50
122 34
123 76
124 55
134 66
135 103
136 15
150 16
151 999
152 211
207 341
208 129

$$$$

     RDKit          2D

 14 15  0  0  0  0  0  0  0  0999 V2000
   -4.3591   -0.2013    0.0000 C   0  0  0  0  0  0  0  0  0  0  0  0
   -4.9078   -2.2504    0.0000 C   0  0  0  0  0  0  0  0  0  0  0  0
   -2.8587   -2.7991    0.0000 C   0  0  0  0  0  0  0  0  0  0  0  0
    2.6000    0.0000    0.0000 C   0  0  0  0  0  0  0  0  0  0  0  0
    1.7200    1.2100    0.0000 C   0  0  0  0  0  0  0  0  0  0  0  0
    1.7200   -1.2100    0.0000 C   0  0  0  0  0  0  0  0  0  0  0  0
   -1.0100    1.5000    0.0000 C   0  0  0  0  0  0  0  0  0  0  0  0
    0.2900    0.7500    0.0000 C   0  0  0  0  0  0  0  0  0  0  0  0
   -1.0100   -1.5000    0.0000 C   0  0  0  0  0  0  0  0  0  0  0  0
   -3.6089   -1.5002    0.0000 C   0  0  0  0  0  0  0  0  0  0  0  0
   -2.3100    0.7500    0.0000 N   0  0  0  0  0  0  0  0  0  0  0  0
    0.2900   -0.7500    0.0000 N   0  0  0  0  0  0  0  0  0  0  0  0
   -2.3100   -0.7500    0.0000 N   0  0  0  0  0  0  0  0  0  0  0  0
   -1.0100   -3.0000    0.0000 O   0  0  0  0  0  0  0  0  0  0  0  0
  5  4  1  0
  6  4  2  0
  8  5  2  0
  8  7  1  0
 10  1  1  0
 10  2  1  0
 10  3  1  0
 11  7  2  0
 12  6  1  0
 12  8  1  0
 12  9  1  0
 13  9  1  0
 13 10  1  0
 13 11  1  0
 14  9  2  0
M  END
>  <NAME>  (216) 
3H,4H-3-TERT-BUTYLPYRRO(1,2-D)(1,2,4)TRIAZIN-4-ONE

>  <SYNONYMS>  (216) 


>  <SPECTRUM TYPE>  (216) 
MS1

>  <INSTRUMENT TYPE>  (216) 
EI-B

>  <INSTRUMENT>  (216) 
Unknown

>  <ION MODE>  (216) 
P

>  <INCHIKEY>  (216) 
BKVYRJITXUGASZ-UHFFFAOYSA-N

>  <FORMULA>  (216) 
C10H13N3O

>  <EXACT MASS>  (216) 
191.105862036

>  <MW>  (216) 
191

>  <ID>  (216) 
JP011845

>  <CONTRIBUTOR>  (216) 
University of Tokyo Team, {Faculty of Engineering, University of Tokyo

>  <COMMENT>  (216) 
SMILES=CC(C)(C)N(N=1)C(=O)n(c2)c(cc2)C1
InChI=InChI=1S/C10H13N3O/c1-10(2,3)13-9(14)12-6-4-5-8(12)7-11-13/h4-7H,1-3H3
computed SMILES=O=C1N2C=CC=C2C=NN1C(C)(C)C
accession=JP011845
date=2016.01.19 (Created 2008.10.21, modified 2011.05.06)
author=YOSHIKI O, FAC, TECHNOLOGY, OSAKA UNIV.
license=CC BY-NC-SA
exact mass=191.10586
ionization energy=70 eV
ion type=[M]+*
computed spectral entropy=2.050436293535868
computed normalized entropy=0.673483718868272
SPLASH=splash10-000i-7900000000-c1446fcdf62c8bbd036b
submitter=submitter = University of Tokyo Team (Faculty of Engineering, University of Tokyo)
MoNA Rating=3.75

>  <NUM PEAKS>  (216) 
21

>  <MASS SPECTRAL PEAKS>  (216) 
50 3.8
51 12.9
52 11.4
53 3.3
54 1
55 2.7
56 4.1
57 9.5
64 2.3
65 2.3
66 2.3
78 3.2
79 36.1
80 2.6
84 1
93 1.7
106 1.2
135 99.99
136 9.9
191 11.3
192 1.5

>  <PREDICTED SPECTRUM>  (216) 
38 10
39 110
40 19
41 186
42 23
50 21
51 181
52 178
53 105
54 9
57 339
58 9
63 21
64 53
65 117
66 99
77 35
78 231
79 533
80 261
91 2
92 18
93 5
105 74
118 12
119 35
135 999
136 188
191 323
192 110

$$$$

     RDKit          2D

 10 11  0  0  0  0  0  0  0  0999 V2000
    2.6000    0.0000    0.0000 C   0  0  0  0  0  0  0  0  0  0  0  0
    1.7200    1.2100    0.0000 C   0  0  0  0  0  0  0  0  0  0  0  0
    1.7200   -1.2100    0.0000 C   0  0  0  0  0  0  0  0  0  0  0  0
   -1.0100    1.5000    0.0000 C   0  0  0  0  0  0  0  0  0  0  0  0
    0.2900    0.7500    0.0000 C   0  0  0  0  0  0  0  0  0  0  0  0
   -1.0100   -1.5000    0.0000 C   0  0  0  0  0  0  0  0  0  0  0  0
   -2.3100    0.7500    0.0000 N   0  0  0  0  0  0  0  0  0  0  0  0
   -2.3100   -0.7500    0.0000 N   0  0  0  0  0  0  0  0  0  0  0  0
    0.2900   -0.7500    0.0000 N   0  0  0  0  0  0  0  0  0  0  0  0
   -1.0100   -3.0000    0.0000 S   0  0  0  0  0  0  0  0  0  0  0  0
  2  1  1  0
  3  1  2  0
  5  2  2  0
  5  4  1  0
  7  4  2  0
  8  6  2  0
  8  7  1  0
  9  3  1  0
  9  5  1  0
  9  6  1  0
 10  6  1  0
M  END
>  <NAME>  (217) 
3H,4H-PYRROLO(1,2-D))1,2,4)TRIAZINE-4-THIONE

>  <SYNONYMS>  (217) 


>  <SPECTRUM TYPE>  (217) 
MS1

>  <INSTRUMENT TYPE>  (217) 
EI-B

>  <INSTRUMENT>  (217) 
Unknown

>  <ION MODE>  (217) 
P

>  <INCHIKEY>  (217) 
YHDJVFRFPVQQBR-UHFFFAOYSA-N

>  <FORMULA>  (217) 
C6H5N3S

>  <EXACT MASS>  (217) 
151.02041816

>  <MW>  (217) 
151

>  <ID>  (217) 
JP011844

>  <CONTRIBUTOR>  (217) 
University of Tokyo Team, {Faculty of Engineering, University of Tokyo

>  <COMMENT>  (217) 
SMILES=SC(=N1)n(c2)c(cc2)C=N1
InChI=InChI=1S/C6H5N3S/c10-6-8-7-4-5-2-1-3-9(5)6/h1-4H,(H,8,10)
computed SMILES=SC1=NN=CC2=CC=CN12
accession=JP011844
date=2016.01.19 (Created 2008.10.21, modified 2011.05.06)
author=YOSHIKI O, FAC, TECHNOLOGY, OSAKA UNIV.
license=CC BY-NC-SA
exact mass=151.02042
ionization energy=70 eV
ion type=[M]+*
computed spectral entropy=3.0222479723414377
computed normalized entropy=0.8720364324067434
SPLASH=splash10-0uxr-9300000000-25a26624baece34450e7
submitter=submitter = University of Tokyo Team (Faculty of Engineering, University of Tokyo)
MoNA Rating=3.75

>  <NUM PEAKS>  (217) 
32

>  <MASS SPECTRAL PEAKS>  (217) 
50 11.4
51 18.4
52 29.3
53 9.2
58 5.2
59 14.8
60 7.1
62 1.2
63 31.3
64 25.8
65 33.6
66 53.4
67 5.2
69 7.9
70 10.1
71 5
72 8.5
75 5.6
76 5.9
78 12.6
79 18.1
92 15.8
93 50.9
94 6.4
95 6
96 7.6
119 13.7
122 5.2
135 4.8
151 99.99
152 9.2
153 7.5

>  <PREDICTED SPECTRUM>  (217) 
33 49
34 36
36 6
37 131
38 238
39 273
40 151
41 136
42 110
43 96
44 247
45 257
46 110
47 61
48 12
49 54
50 313
51 480
52 495
53 351
54 86
55 120
57 97
58 164
59 271
60 204
61 105
62 108
63 333
64 419
65 463
66 293
67 212
68 156
69 236
70 249
71 174
72 137
73 46
74 27
75 59
76 231
78 443
79 344
80 109
81 106
82 10
90 72
91 135
92 402
93 520
94 152
95 187
96 187
97 81
106 37
107 102
108 42
118 56
119 165
122 23
123 94
124 207
125 44
150 91
151 999
152 297
153 208
154 14

$$$$

     RDKit          2D

 19 19  0  0  0  0  0  0  0  0999 V2000
    0.0000    7.0700    0.0000 C   0  0  0  0  0  0  0  0  0  0  0  0
   -3.8971    9.3200    0.0000 C   0  0  0  0  0  0  0  0  0  0  0  0
   -2.5981    1.0700    0.0000 C   0  0  0  0  0  0  0  0  0  0  0  0
    5.1962    7.0700    0.0000 C   0  0  0  0  0  0  0  0  0  0  0  0
    5.1966    5.5692    0.0000 C   0  0  0  0  0  0  0  0  0  0  0  0
    3.8966    7.8208    0.0000 C   0  0  0  0  0  0  0  0  0  0  0  0
    3.8976    4.8192    0.0000 C   0  0  0  0  0  0  0  0  0  0  0  0
    2.5976    7.0708    0.0000 C   0  0  0  0  0  0  0  0  0  0  0  0
   -2.5981    5.5700    0.0000 C   0  0  0  0  0  0  0  0  0  0  0  0
    1.2990    4.8200    0.0000 C   0  0  0  0  0  0  0  0  0  0  0  0
    2.5981    5.5700    0.0000 C   0  0  0  0  0  0  0  0  0  0  0  0
   -1.2990    4.8200    0.0000 C   0  0  0  0  0  0  0  0  0  0  0  0
   -2.5981    7.0700    0.0000 C   0  0  0  0  0  0  0  0  0  0  0  0
   -1.2990    3.3200    0.0000 C   0  0  0  0  0  0  0  0  0  0  0  0
    0.0000    5.5700    0.0000 N   0  0  0  0  0  0  0  0  0  0  0  0
   -1.2990    7.8200    0.0000 O   0  0  0  0  0  0  0  0  0  0  0  0
   -0.0000    2.5700    0.0000 O   0  0  0  0  0  0  0  0  0  0  0  0
   -3.8971    7.8200    0.0000 O   0  0  0  0  0  0  0  0  0  0  0  0
   -2.5981    2.5700    0.0000 O   0  0  0  0  0  0  0  0  0  0  0  0
  5  4  2  0
  6  4  1  0
  7  5  1  0
  8  6  2  0
 11  7  2  0
 11  8  1  0
 11 10  1  0
  9 12  2  0
 13  9  1  0
 14 12  1  0
 15  1  1  0
 15 10  1  0
 15 12  1  0
 16 13  2  0
 17 14  2  0
 18  2  1  0
 18 13  1  0
 19  3  1  0
 19 14  1  0
M  END
>  <NAME>  (218) 
BENZYLMETHYLAMINO-1,2-BIS(METHOXYCARBONYL)ETHYLENE

>  <SYNONYMS>  (218) 


>  <SPECTRUM TYPE>  (218) 
MS1

>  <INSTRUMENT TYPE>  (218) 
EI-B

>  <INSTRUMENT>  (218) 
Unknown

>  <ION MODE>  (218) 
P

>  <INCHIKEY>  (218) 
XHXCFKCCRZRAAW-XFXZXTDPSA-N

>  <FORMULA>  (218) 
C14H17NO4

>  <EXACT MASS>  (218) 
263.115758024

>  <MW>  (218) 
263

>  <ID>  (218) 
JP011843

>  <CONTRIBUTOR>  (218) 
University of Tokyo Team, {Faculty of Engineering, University of Tokyo

>  <COMMENT>  (218) 
SMILES=COC(=O)C=C(C(=O)OC)N(C)Cc(c1)cccc1
InChI=InChI=1S/C14H17NO4/c1-15(10-11-7-5-4-6-8-11)12(14(17)19-3)9-13(16)18-2/h4-9H,10H2,1-3H3/b12-9-
computed SMILES=O=C(OC)C=C(C(=O)OC)N(C)CC=1C=CC=CC1
accession=JP011843
date=2016.01.19 (Created 2008.10.21, modified 2011.05.06)
author=YOSHIKI O, FAC, TECHNOLOGY, OSAKA UNIV.
license=CC BY-NC-SA
exact mass=263.11576
ionization energy=70 eV
ion type=[M]+*
computed spectral entropy=3.4445005252397474
computed normalized entropy=0.8107577692797917
SPLASH=splash10-0006-9520000000-47374378b412bb5db28f
submitter=submitter = University of Tokyo Team (Faculty of Engineering, University of Tokyo)
MoNA Rating=3.75

>  <NUM PEAKS>  (218) 
70

>  <MASS SPECTRAL PEAKS>  (218) 
50 1.5
51 4.5
52 2.5
53 3
54 2.2
55 5.2
56 11.4
57 1.1
59 4.8
63 3.5
65 19.9
66 1.4
68 1.1
72 2.2
77 3.8
78 1.3
82 17.7
83 1.1
85 1.5
86 1.3
89 3.5
90 1.6
91 99.99
92 8.6
93 6.6
100 7
101 1
102 1.5
103 2.4
104 1.4
105 1.5
112 2.8
114 3.3
115 2.1
116 1.8
118 2.6
120 5.9
121 7.9
122 6.4
131 2.2
135 1.1
140 4.4
141 3.5
142 2.1
143 1.6
144 17.8
145 3.1
146 2.5
156 1.1
158 1.5
159 1.2
172 4.7
173 2
174 1.7
188 7.3
189 10.5
190 2.1
191 1.6
202 5.7
203 3
204 9.9
205 1.6
216 2.7
217 1.1
231 16.5
232 13.6
233 2.1
248 2.4
249 1.8
263 4.2

>  <PREDICTED SPECTRUM>  (218) 
15 46
26 41
27 81
28 44
29 104
30 60
31 50
32 4
33 23
38 44
39 236
40 103
41 133
42 150
43 56
44 13
45 69
50 59
51 147
52 77
53 109
54 84
55 72
56 124
57 91
58 9
59 206
62 29
63 108
64 12
65 314
66 90
67 25
68 52
69 63
70 37
71 32
72 20
74 22
75 23
76 8
77 180
78 79
79 64
81 11
82 88
83 24
84 56
85 66
86 53
87 39
89 113
90 70
91 999
92 236
96 5
97 33
98 47
99 68
100 114
101 98
102 48
103 4
104 73
105 48
106 62
107 34
112 132
113 100
114 87
115 124
116 55
117 57
118 242
119 39
120 127
121 182
122 74
126 31
127 37
128 69
130 42
131 54
132 56
139 29
140 195
141 66
142 58
143 82
144 228
145 155
146 129
147 34
148 66
156 56
157 9
158 69
159 55
160 61
162 29
163 6
172 208
173 41
174 48
175 80
176 118
177 48
188 103
189 130
190 56
200 43
202 77
203 111
204 313
205 164
230 81
231 369
232 378
233 156
248 259
249 62
262 30
263 284
264 86

$$$$

     RDKit          2D

 26 28  0  0  0  0  0  0  0  0999 V2000
   -0.8515    4.7421    0.0000 C   0  0  0  0  0  0  0  0  0  0  0  0
    6.7741   -0.8149    0.0000 C   0  0  0  0  0  0  0  0  0  0  0  0
   -6.7177   -3.2642    0.0000 C   0  0  0  0  0  0  0  0  0  0  0  0
   -5.4170   -4.0129    0.0000 C   0  0  0  0  0  0  0  0  0  0  0  0
   -6.7206   -1.7633    0.0000 C   0  0  0  0  0  0  0  0  0  0  0  0
    1.8987   -4.4526    0.0000 C   0  0  0  0  0  0  0  0  0  0  0  0
   -4.1192   -3.2608    0.0000 C   0  0  0  0  0  0  0  0  0  0  0  0
   -5.4228   -1.0112    0.0000 C   0  0  0  0  0  0  0  0  0  0  0  0
    0.8955   -3.3375    0.0000 C   0  0  0  0  0  0  0  0  0  0  0  0
    3.2694   -3.8382    0.0000 C   0  0  0  0  0  0  0  0  0  0  0  0
    1.0347   -0.6610    0.0000 C   0  0  0  0  0  0  0  0  0  0  0  0
   -4.1220   -1.7600    0.0000 C   0  0  0  0  0  0  0  0  0  0  0  0
    1.6442   -2.0316    0.0000 C   0  0  0  0  0  0  0  0  0  0  0  0
   -0.4570   -0.5036    0.0000 C   0  0  0  0  0  0  0  0  0  0  0  0
   -1.2033    0.7891    0.0000 C   0  0  0  0  0  0  0  0  0  0  0  0
   -1.4617   -1.6174    0.0000 C   0  0  0  0  0  0  0  0  0  0  0  0
   -0.5886    2.1573    0.0000 C   0  0  0  0  0  0  0  0  0  0  0  0
    4.2315   -1.3490    0.0000 C   0  0  0  0  0  0  0  0  0  0  0  0
   -2.6746    0.4867    0.0000 N   0  0  0  0  0  0  0  0  0  0  0  0
    3.1144   -2.3501    0.0000 N   0  0  0  0  0  0  0  0  0  0  0  0
   -2.8242   -1.0079    0.0000 N   0  0  0  0  0  0  0  0  0  0  0  0
   -1.1518   -3.0851    0.0000 O   0  0  0  0  0  0  0  0  0  0  0  0
    0.9037    2.3091    0.0000 O   0  0  0  0  0  0  0  0  0  0  0  0
    3.9231    0.1190    0.0000 O   0  0  0  0  0  0  0  0  0  0  0  0
   -1.4662    3.3738    0.0000 O   0  0  0  0  0  0  0  0  0  0  0  0
    5.6570   -1.8159    0.0000 O   0  0  0  0  0  0  0  0  0  0  0  0
  4  3  2  0
  5  3  1  0
  7  4  1  0
  8  5  2  0
  9  6  1  0
 10  6  2  0
 12  7  2  0
 12  8  1  0
 13  9  2  0
 13 11  1  0
 11 14  2  0
 15 14  1  0
 16 14  1  0
 17 15  1  0
 19 15  2  0
 20 10  1  0
 20 13  1  0
 20 18  1  0
 21 12  1  0
 21 16  1  0
 21 19  1  0
 22 16  2  0
 23 17  2  0
 24 18  2  0
 25  1  1  0
 25 17  1  0
 26  2  1  0
 26 18  1  0
M  END
>  <NAME>  (219) 
4H,5H-3-METHOXYCARBONYL-4-(1-METHOXYCARBONYLPYRROL-2-YL)METHYLENE-1-PHENYLPYRAZOL-5-ONE

>  <SYNONYMS>  (219) 


>  <SPECTRUM TYPE>  (219) 
MS1

>  <INSTRUMENT TYPE>  (219) 
EI-B

>  <INSTRUMENT>  (219) 
Unknown

>  <ION MODE>  (219) 
P

>  <INCHIKEY>  (219) 
MNBLTQPCVDADPL-KAMYIIQDSA-N

>  <FORMULA>  (219) 
C18H15N3O5

>  <EXACT MASS>  (219) 
353.10117058000003

>  <MW>  (219) 
353

>  <ID>  (219) 
JP011842

>  <CONTRIBUTOR>  (219) 
University of Tokyo Team, {Faculty of Engineering, University of Tokyo

>  <COMMENT>  (219) 
computed SMILES=O=C(OC)C1=NN(C(=O)C1=CC2=CC=CN2C(=O)OC)C=3C=CC=CC3
SMILES=COC(=O)n(c3)c(cc3)C=c(c(=O)1)c(C(=O)OC)nn(c(c2)cccc2)1
InChI=InChI=1S/C18H15N3O5/c1-25-17(23)15-14(11-13-9-6-10-20(13)18(24)26-2)16(22)21(19-15)12-7-4-3-5-8-12/h3-11H,1-2H3/b14-11-
accession=JP011842
date=2016.01.19 (Created 2008.10.21, modified 2011.05.06)
author=YOSHIKI O, FAC, TECHNOLOGY, OSAKA UNIV.
license=CC BY-NC-SA
exact mass=353.10117
ionization energy=70 eV
ion type=[M]+*
computed spectral entropy=3.900926547518292
computed normalized entropy=0.823640856696081
SPLASH=splash10-0ufu-9443000000-cefe5b5b5d4b4d1b2581
submitter=submitter = University of Tokyo Team (Faculty of Engineering, University of Tokyo)
MoNA Rating=3.75

>  <NUM PEAKS>  (219) 
114

>  <MASS SPECTRAL PEAKS>  (219) 
50 5.5
51 31
52 5.7
53 3.2
54 1.2
55 1.4
57 1
59 40.7
60 1.5
61 1.3
62 4.4
63 11
64 16.2
65 8.1
66 2.1
67 1.5
74 2
75 4.7
76 7
77 99.99
78 10.7
79 2.4
80 1.8
88 1.7
89 6.5
90 7.1
91 35.6
92 4.5
93 2.2
94 3.4
102 9.8
103 11.9
104 8.3
105 10.2
106 3.2
107 2
115 1.2
116 4.1
117 5.4
118 9.2
119 4.1
128 1
129 1.8
130 7.3
131 6.5
132 3.9
133 1.9
144 4.6
145 2.5
146 3
149 1.3
151 3.9
152 3
153 1
157 1
158 3
159 3.1
160 1.3
162 1.4
167 1
168 1.2
176 1.8
177 1
178 2.7
179 2.9
180 1.3
181 2.2
188 3
189 2.8
190 1.5
192 4.7
193 2
194 1.3
195 1.4
205 1.3
206 6.6
207 4.9
208 1.9
218 1.1
220 5
221 2.4
222 2.2
227 4.1
233 1
234 6
235 4.5
236 1.5
248 2.1
249 1.8
250 2.7
251 1.2
262 10.7
263 10.8
264 2.8
265 2.7
266 5.7
267 2.5
278 3.8
279 7.1
280 2.7
292 5
293 27.3
294 33.3
295 9
296 1.9
306 1.1
322 2.6
324 1.1
325 2.7
338 3
352 2.2
353 85.5
354 17.2
355 3.1

>  <PREDICTED SPECTRUM>  (219) 
15 49
29 42
33 49
34 7
37 53
38 128
39 330
40 152
41 107
42 127
43 94
44 117
45 133
49 17
50 309
51 585
52 253
53 202
54 87
55 109
57 86
59 578
60 17
61 31
62 167
63 359
64 317
65 340
66 100
67 76
68 4
69 12
71 7
72 8
74 124
75 216
76 239
77 959
78 389
79 169
80 76
81 13
82 9
83 24
86 39
87 50
88 106
89 345
90 322
91 591
92 242
93 108
94 69
95 26
99 16
100 39
101 112
102 249
103 267
104 349
105 409
106 192
107 91
108 1
111 51
113 41
114 92
115 286
116 263
117 276
118 302
119 215
120 63
121 130
122 85
123 5
126 26
127 68
128 113
129 203
130 227
131 218
132 239
133 165
134 63
135 35
139 45
140 70
141 70
142 70
143 101
144 213
145 199
146 140
147 111
148 87
149 88
150 41
151 134
152 114
153 69
154 33
155 45
156 102
157 113
158 127
159 137
160 168
161 104
162 12
163 92
164 39
165 108
166 105
167 88
168 42
169 6
170 13
172 15
174 7
175 96
176 170
177 180
178 118
179 162
180 94
181 99
182 2
188 55
189 100
190 117
191 77
192 106
193 143
194 255
195 164
196 61
197 22
204 159
205 181
206 230
207 146
208 169
209 81
210 38
211 15
217 1
218 75
219 33
220 171
221 121
222 131
223 69
232 104
233 161
234 293
235 297
236 154
237 46
238 28
247 48
248 168
249 97
250 192
251 60
261 79
262 417
263 206
264 224
265 164
266 221
267 80
268 32
276 149
277 97
278 243
279 148
280 45
290 42
291 17
292 243
293 445
294 704
295 337
296 57
306 125
307 10
308 61
322 172
323 71
324 73
325 77
338 143
339 37
352 172
353 999
354 479
355 202
356 47

$$$$

     RDKit          2D

 26 28  0  0  0  0  0  0  0  0999 V2000
   -0.0000   -2.7800    0.0000 C   0  0  0  0  0  0  0  0  0  0  0  0
    1.9049    4.8269    0.0000 C   0  0  0  0  0  0  0  0  0  0  0  0
   -4.0061    3.2988    0.0000 C   0  0  0  0  0  0  0  0  0  0  0  0
    5.4932   -1.7699    0.0000 C   0  0  0  0  0  0  0  0  0  0  0  0
   -5.4932   -1.7699    0.0000 C   0  0  0  0  0  0  0  0  0  0  0  0
    5.1780   -0.3026    0.0000 C   0  0  0  0  0  0  0  0  0  0  0  0
    4.3807   -2.7773    0.0000 C   0  0  0  0  0  0  0  0  0  0  0  0
   -4.3807   -2.7773    0.0000 C   0  0  0  0  0  0  0  0  0  0  0  0
   -5.1780   -0.3026    0.0000 C   0  0  0  0  0  0  0  0  0  0  0  0
    3.7502    0.1574    0.0000 C   0  0  0  0  0  0  0  0  0  0  0  0
    2.9530   -2.3173    0.0000 C   0  0  0  0  0  0  0  0  0  0  0  0
   -2.9530   -2.3173    0.0000 C   0  0  0  0  0  0  0  0  0  0  0  0
   -3.7502    0.1574    0.0000 C   0  0  0  0  0  0  0  0  0  0  0  0
    2.6377   -0.8500    0.0000 C   0  0  0  0  0  0  0  0  0  0  0  0
   -2.6377   -0.8500    0.0000 C   0  0  0  0  0  0  0  0  0  0  0  0
    0.7500    1.0300    0.0000 C   0  0  0  0  0  0  0  0  0  0  0  0
   -0.7500    1.0300    0.0000 C   0  0  0  0  0  0  0  0  0  0  0  0
    1.2100   -0.3900    0.0000 C   0  0  0  0  0  0  0  0  0  0  0  0
   -1.2100   -0.3900    0.0000 C   0  0  0  0  0  0  0  0  0  0  0  0
    1.6322    2.2431    0.0000 C   0  0  0  0  0  0  0  0  0  0  0  0
   -1.6322    2.2431    0.0000 C   0  0  0  0  0  0  0  0  0  0  0  0
    0.0000   -1.2800    0.0000 N   0  0  0  0  0  0  0  0  0  0  0  0
    3.1239    2.0857    0.0000 O   0  0  0  0  0  0  0  0  0  0  0  0
   -1.0227    3.6137    0.0000 O   0  0  0  0  0  0  0  0  0  0  0  0
    1.0227    3.6137    0.0000 O   0  0  0  0  0  0  0  0  0  0  0  0
   -3.1239    2.0857    0.0000 O   0  0  0  0  0  0  0  0  0  0  0  0
  6  4  2  0
  7  4  1  0
  8  5  2  0
  9  5  1  0
 10  6  1  0
 11  7  2  0
 12  8  1  0
 13  9  2  0
 14 10  2  0
 14 11  1  0
 15 12  2  0
 15 13  1  0
 17 16  2  0
 18 14  1  0
 18 16  1  0
 19 15  1  0
 19 17  1  0
 20 16  1  0
 21 17  1  0
 22  1  1  0
 22 18  1  0
 22 19  1  0
 23 20  2  0
 24 21  2  0
 25  2  1  0
 25 20  1  0
 26  3  1  0
 26 21  1  0
M  END
>  <NAME>  (220) 
3,4-BIS(METHOXYCARBONYL)-1-METHYL-2,5-DIPHENYL-3-PYRROLINE

>  <SYNONYMS>  (220) 


>  <SPECTRUM TYPE>  (220) 
MS1

>  <INSTRUMENT TYPE>  (220) 
EI-B

>  <INSTRUMENT>  (220) 
Unknown

>  <ION MODE>  (220) 
P

>  <INCHIKEY>  (220) 
FGXNOZQWNCQTGN-UHFFFAOYSA-N

>  <FORMULA>  (220) 
C21H21NO4

>  <EXACT MASS>  (220) 
351.147058152

>  <MW>  (220) 
351

>  <ID>  (220) 
JP011841

>  <CONTRIBUTOR>  (220) 
University of Tokyo Team, {Faculty of Engineering, University of Tokyo

>  <COMMENT>  (220) 
SMILES=COC(=O)C(C(c(c3)cccc3)1)=C(C(=O)OC)C(c(c2)cccc2)N(C)1
InChI=InChI=1S/C21H21NO4/c1-22-18(14-10-6-4-7-11-14)16(20(23)25-2)17(21(24)26-3)19(22)15-12-8-5-9-13-15/h4-13,18-19H,1-3H3
computed SMILES=O=C(OC)C1=C(C(=O)OC)C(C=2C=CC=CC2)N(C)C1C=3C=CC=CC3
accession=JP011841
ion type=[M]+*
date=2016.01.19 (Created 2008.10.21, modified 2011.05.06)
author=YOSHIKI O, FAC, TECHNOLOGY, OSAKA UNIV.
license=CC BY-NC-SA
exact mass=351.14706
ionization energy=70 eV
computed spectral entropy=4.258480219701857
computed normalized entropy=0.8443627338524122
SPLASH=splash10-0006-2492000000-0fe957752605c4c17d1d
submitter=submitter = University of Tokyo Team (Faculty of Engineering, University of Tokyo)
MoNA Rating=3.75

>  <NUM PEAKS>  (220) 
155

>  <MASS SPECTRAL PEAKS>  (220) 
50 2.5
51 10.5
52 2.1
53 1.8
55 1.6
56 1.2
57 2.2
59 17.3
62 1.1
63 4.7
64 1.3
65 7.6
66 1
70 1.1
71 1.4
73 2.5
74 1.3
75 3
76 4
77 23.4
78 4.4
87 1.3
88 2.9
89 6.1
90 2.6
91 57.3
92 4.7
94 1.4
95 1.2
100 1
101 3.6
102 7.1
103 4.7
104 3.1
105 5.7
106 1.1
108 1.5
109 1.6
113 4
114 8.7
115 19.6
116 5.7
117 2.6
118 24.6
119 2.6
120 2.4
121 3
126 1.3
127 6.3
128 7.3
129 7
130 4.1
131 2.2
136 1.6
140 2
141 1.5
142 3.3
143 3.2
144 2.8
145 1.5
149 4.5
150 1
152 1
154 3.1
155 3.2
156 3.8
157 4.1
158 3.9
159 2.3
160 1.8
165 1.8
166 2.4
167 2.1
168 1.8
169 1.5
170 12.4
171 11.2
172 1.9
173 1.7
176 1.2
177 1.1
179 1.7
180 1.5
182 1.3
183 1.5
184 36.8
185 32.4
186 5
189 3.5
190 2.2
191 6.4
192 5.3
194 1
198 21
199 18.6
200 3
201 1.7
202 6.8
203 6.2
204 3.3
205 2.3
208 1.3
212 5.1
213 4.3
214 1.9
215 18.4
216 4.8
217 5.1
218 2.5
219 2.4
228 1.4
230 15.2
231 5.6
232 8.8
233 17.6
234 15.2
235 3.8
242 99.99
243 18
244 14.7
245 1.7
246 2.3
247 1.5
248 1.2
258 2
259 1.3
260 40.5
261 34.7
262 18.3
263 15
264 2.9
273 7.1
274 87.4
275 77.6
276 3.4
277 3
288 4.7
289 4.5
290 1.3
291 3.5
292 48.9
293 42.6
294 10.7
316 1.3
318 29.2
319 24.9
320 17.8
321 3.6
322 1.7
323 1.6
349 16.7
350 19.2
351 15
352 17.8
353 4.6

>  <PREDICTED SPECTRUM>  (220) 
15 61
33 5
39 136
40 73
41 8
42 162
44 24
51 134
52 51
53 54
59 235
63 19
65 44
77 216
78 61
79 4
90 90
91 164
92 2
102 85
105 73
106 57
115 121
116 31
117 7
120 73
121 10
126 6
127 212
128 227
129 26
139 58
140 76
141 65
142 39
144 47
154 31
155 75
156 111
157 39
164 51
165 407
170 41
186 34
192 79
193 59
194 102
198 36
200 150
202 76
204 0
215 181
216 244
218 24
231 84
232 96
233 15
238 38
240 78
241 51
242 228
243 13
247 17
262 47
274 899
275 503
276 164
290 11
292 999
293 376
294 89
320 193
336 52
351 387
352 107

$$$$

     RDKit          2D

 26 28  0  0  0  0  0  0  0  0999 V2000
   -2.4441   -5.4695    0.0000 C   0  0  0  0  0  0  0  0  0  0  0  0
   -4.3490   -2.1701    0.0000 C   0  0  0  0  0  0  0  0  0  0  0  0
    7.0883   -2.2664    0.0000 C   0  0  0  0  0  0  0  0  0  0  0  0
   -0.4302    4.2358    0.0000 C   0  0  0  0  0  0  0  0  0  0  0  0
    7.0888   -0.7656    0.0000 C   0  0  0  0  0  0  0  0  0  0  0  0
    5.7888   -3.0172    0.0000 C   0  0  0  0  0  0  0  0  0  0  0  0
   -1.5433    3.2291    0.0000 C   0  0  0  0  0  0  0  0  0  0  0  0
    0.9985    3.7760    0.0000 C   0  0  0  0  0  0  0  0  0  0  0  0
    5.7897   -0.0156    0.0000 C   0  0  0  0  0  0  0  0  0  0  0  0
    4.4897   -2.2672    0.0000 C   0  0  0  0  0  0  0  0  0  0  0  0
   -1.2278    1.7627    0.0000 C   0  0  0  0  0  0  0  0  0  0  0  0
    1.3140    2.3096    0.0000 C   0  0  0  0  0  0  0  0  0  0  0  0
    3.1912   -0.0164    0.0000 C   0  0  0  0  0  0  0  0  0  0  0  0
    1.7264   -2.2593    0.0000 C   0  0  0  0  0  0  0  0  0  0  0  0
    4.4902   -0.7664    0.0000 C   0  0  0  0  0  0  0  0  0  0  0  0
    0.2009    1.3029    0.0000 C   0  0  0  0  0  0  0  0  0  0  0  0
    0.2666   -2.5709    0.0000 C   0  0  0  0  0  0  0  0  0  0  0  0
   -0.4834   -1.2719    0.0000 C   0  0  0  0  0  0  0  0  0  0  0  0
    0.5164   -0.1635    0.0000 C   0  0  0  0  0  0  0  0  0  0  0  0
   -0.3429   -3.9415    0.0000 C   0  0  0  0  0  0  0  0  0  0  0  0
   -1.9751   -1.1144    0.0000 C   0  0  0  0  0  0  0  0  0  0  0  0
    1.8921   -0.7664    0.0000 N   0  0  0  0  0  0  0  0  0  0  0  0
    0.5393   -5.1546    0.0000 O   0  0  0  0  0  0  0  0  0  0  0  0
   -2.5846    0.2562    0.0000 O   0  0  0  0  0  0  0  0  0  0  0  0
   -1.8346   -4.0990    0.0000 O   0  0  0  0  0  0  0  0  0  0  0  0
   -2.8573   -2.3276    0.0000 O   0  0  0  0  0  0  0  0  0  0  0  0
  5  3  2  0
  6  3  1  0
  7  4  2  0
  8  4  1  0
  9  5  1  0
 10  6  2  0
 11  7  1  0
 12  8  2  0
 15  9  2  0
 15 10  1  0
 15 13  1  0
 16 11  2  0
 16 12  1  0
 17 14  1  0
 18 17  2  0
 19 16  1  0
 19 18  1  0
 20 17  1  0
 21 18  1  0
 22 13  1  0
 22 14  1  0
 22 19  1  0
 23 20  2  0
 24 21  2  0
 25  1  1  0
 25 20  1  0
 26  2  1  0
 26 21  1  0
M  END
>  <NAME>  (221) 
1-BENZYL-3,4-BIS(METHOXYCARBONYL)-2-PHENYL-3-PYRROLINE

>  <SYNONYMS>  (221) 


>  <SPECTRUM TYPE>  (221) 
MS1

>  <INSTRUMENT TYPE>  (221) 
EI-B

>  <INSTRUMENT>  (221) 
Unknown

>  <ION MODE>  (221) 
P

>  <INCHIKEY>  (221) 
ZOQZAHIJVNSYFS-UHFFFAOYSA-N

>  <FORMULA>  (221) 
C21H21NO4

>  <EXACT MASS>  (221) 
351.14705815200006

>  <MW>  (221) 
351

>  <ID>  (221) 
JP011840

>  <CONTRIBUTOR>  (221) 
University of Tokyo Team, {Faculty of Engineering, University of Tokyo

>  <COMMENT>  (221) 
SMILES=COC(=O)C(C1)=C(C(=O)OC)C(c(c3)cccc3)N(Cc(c2)cccc2)1
InChI=InChI=1S/C21H21NO4/c1-25-20(23)17-14-22(13-15-9-5-3-6-10-15)19(18(17)21(24)26-2)16-11-7-4-8-12-16/h3-12,19H,13-14H2,1-2H3
computed SMILES=O=C(OC)C1=C(C(=O)OC)C(C=2C=CC=CC2)N(CC=3C=CC=CC3)C1
accession=JP011840
date=2016.01.19 (Created 2008.10.21, modified 2011.05.06)
author=YOSHIKI O, FAC, TECHNOLOGY, OSAKA UNIV.
license=CC BY-NC-SA
exact mass=351.14706
ionization energy=70 eV
ion type=[M]+*
computed spectral entropy=2.505867966042221
computed normalized entropy=0.6992757702912619
SPLASH=splash10-0006-9033000000-6a182ce34cd8d7eb482a
submitter=submitter = University of Tokyo Team (Faculty of Engineering, University of Tokyo)
MoNA Rating=3.75

>  <NUM PEAKS>  (221) 
36

>  <MASS SPECTRAL PEAKS>  (221) 
51 1.9
53 1.1
59 1.9
63 1.7
65 9.7
77 2.1
89 1.9
91 99.99
92 8.5
105 1
114 1
115 2
128 1.1
196 1.1
197 1
228 1.4
229 1.4
231 2
242 2.5
243 2.4
260 5.1
261 5.4
262 1.1
274 3.3
292 8.4
293 8.9
294 2.2
317 1
318 7.3
319 8
320 2.2
321 1.2
349 14
350 14.4
351 4
352 2.1

>  <PREDICTED SPECTRUM>  (221) 
15 52
16 2
18 1
29 25
30 72
33 4
38 8
39 178
40 62
41 128
42 98
43 92
44 99
45 124
50 69
51 184
52 108
53 58
54 52
55 43
56 29
57 54
58 29
59 257
63 101
64 34
65 350
66 80
67 11
68 8
70 6
71 19
74 5
76 17
77 217
78 127
79 73
80 18
82 59
83 39
86 13
87 20
88 2
89 132
90 53
91 999
92 265
93 44
96 7
97 35
100 2
104 92
105 140
106 96
107 62
114 13
115 105
116 52
117 99
118 63
119 26
120 56
121 112
122 4
127 6
128 64
129 45
130 3
132 53
133 46
134 32
135 26
137 19
139 45
140 53
141 25
142 9
143 9
144 20
149 19
152 50
153 26
155 28
156 4
157 36
158 11
159 5
164 4
165 14
166 71
167 5
168 19
184 42
194 54
196 30
200 106
201 41
202 12
206 19
213 20
214 32
226 37
228 81
231 63
232 61
233 45
234 26
242 69
260 210
261 136
262 36
274 176
275 46
292 279
293 251
294 81
318 191
319 201
320 203
321 75
336 109
337 42
349 29
350 429
351 294
352 164
353 9

$$$$

     RDKit          2D

 19 20  0  0  0  0  0  0  0  0999 V2000
   -4.7099   -0.8075    0.0000 C   0  0  0  0  0  0  0  0  0  0  0  0
   -0.3505    3.4763    0.0000 C   0  0  0  0  0  0  0  0  0  0  0  0
    6.0600   -0.4684    0.0000 C   0  0  0  0  0  0  0  0  0  0  0  0
    5.0575    0.6484    0.0000 C   0  0  0  0  0  0  0  0  0  0  0  0
    5.5949   -1.8954    0.0000 C   0  0  0  0  0  0  0  0  0  0  0  0
    3.5898    0.3384    0.0000 C   0  0  0  0  0  0  0  0  0  0  0  0
    4.1273   -2.2055    0.0000 C   0  0  0  0  0  0  0  0  0  0  0  0
   -0.4386   -2.6086    0.0000 C   0  0  0  0  0  0  0  0  0  0  0  0
    3.1248   -1.0886    0.0000 C   0  0  0  0  0  0  0  0  0  0  0  0
   -0.7552   -1.1402    0.0000 C   0  0  0  0  0  0  0  0  0  0  0  0
    0.5438   -0.3902    0.0000 C   0  0  0  0  0  0  0  0  0  0  0  0
    1.6572   -1.3986    0.0000 C   0  0  0  0  0  0  0  0  0  0  0  0
   -2.1265   -0.5321    0.0000 C   0  0  0  0  0  0  0  0  0  0  0  0
    0.7028    1.1013    0.0000 C   0  0  0  0  0  0  0  0  0  0  0  0
    1.0493   -2.7657    0.0000 N   0  0  0  0  0  0  0  0  0  0  0  0
   -2.2854    0.9594    0.0000 O   0  0  0  0  0  0  0  0  0  0  0  0
    2.0740    1.7094    0.0000 O   0  0  0  0  0  0  0  0  0  0  0  0
   -3.3387   -1.4156    0.0000 O   0  0  0  0  0  0  0  0  0  0  0  0
   -0.5095    1.9848    0.0000 O   0  0  0  0  0  0  0  0  0  0  0  0
  4  3  2  0
  5  3  1  0
  6  4  1  0
  7  5  2  0
  9  6  2  0
  9  7  1  0
 10  8  2  0
 11 10  1  0
 12  9  1  0
 12 11  2  0
 13 10  1  0
 14 11  1  0
 15  8  1  0
 15 12  1  0
 16 13  2  0
 17 14  2  0
 18  1  1  0
 18 13  1  0
 19  2  1  0
 19 14  1  0
M  END
>  <NAME>  (222) 
3,4-BIS(METHOXYCARBONYL)-2-PHENYLPYRROLE

>  <SYNONYMS>  (222) 


>  <SPECTRUM TYPE>  (222) 
MS1

>  <INSTRUMENT TYPE>  (222) 
EI-B

>  <INSTRUMENT>  (222) 
Unknown

>  <ION MODE>  (222) 
P

>  <INCHIKEY>  (222) 
JHOYJHRSOQLJIX-UHFFFAOYSA-N

>  <FORMULA>  (222) 
C14H13NO4

>  <EXACT MASS>  (222) 
259.084457896

>  <MW>  (222) 
259

>  <ID>  (222) 
JP011839

>  <CONTRIBUTOR>  (222) 
University of Tokyo Team, {Faculty of Engineering, University of Tokyo

>  <COMMENT>  (222) 
SMILES=COC(=O)C1=CNC(=C1C(=O)OC)C2=CC=CC=C2
InChI=InChI=1S/C14H13NO4/c1-18-13(16)10-8-15-12(11(10)14(17)19-2)9-6-4-3-5-7-9/h3-8,15H,1-2H3
computed SMILES=O=C(OC)C1=CNC(C=2C=CC=CC2)=C1C(=O)OC
accession=JP011839
date=2016.01.19 (Created 2008.10.21, modified 2011.05.06)
author=YOSHIKI O, FAC, TECHNOLOGY, OSAKA UNIV.
license=CC BY-NC-SA
exact mass=259.08446
ionization energy=70 eV
ion type=[M]+*
computed spectral entropy=2.642216502457843
computed normalized entropy=0.7556730411730221
SPLASH=splash10-056r-1490000000-12420289f4a65856d561
submitter=submitter = University of Tokyo Team (Faculty of Engineering, University of Tokyo)
MoNA Rating=3.75

>  <NUM PEAKS>  (222) 
33

>  <MASS SPECTRAL PEAKS>  (222) 
51 3.7
53 2.2
59 2.6
63 3.8
70 4.7
71 4.8
77 5.4
85 2.4
88 2.3
98 4.5
99 4.2
104 4
105 2.2
106 2.2
113 5.5
114 9.2
115 9.9
129 3.2
140 4.7
141 3.9
142 2.8
168 2.9
169 7.7
170 5.2
196 14.8
197 2.6
198 19.5
199 2.9
212 3
228 99.99
229 15
259 71.2
260 11.7

>  <PREDICTED SPECTRUM>  (222) 
39 3
43 11
50 4
51 137
52 32
53 66
59 74
63 38
65 11
74 1
77 131
78 11
85 29
111 96
113 116
114 99
115 101
129 55
140 73
141 285
142 132
168 166
169 254
196 369
197 121
198 350
228 999
229 324
259 871
260 324

$$$$

     RDKit          2D

 14 14  0  0  0  0  0  0  0  0999 V2000
    3.3974   -3.6638    0.0000 C   0  0  0  0  0  0  0  0  0  0  0  0
   -1.7991   -0.6636    0.0000 C   0  0  0  0  0  0  0  0  0  0  0  0
   -1.0489    0.6354    0.0000 H   0  0  0  0  0  0  0  0  0  0  0  0
   -3.0980    0.0867    0.0000 H   0  0  0  0  0  0  0  0  0  0  0  0
   -2.5493   -1.9625    0.0000 H   0  0  0  0  0  0  0  0  0  0  0  0
    3.3980    0.8377    0.0000 C   0  0  0  0  0  0  0  0  0  0  0  0
    2.0990    1.5877    0.0000 C   0  0  0  0  0  0  0  0  0  0  0  0
    3.3976   -0.6631    0.0000 C   0  0  0  0  0  0  0  0  0  0  0  0
    0.7995    0.8369    0.0000 C   0  0  0  0  0  0  0  0  0  0  0  0
    2.0983   -2.9140    0.0000 C   0  0  0  0  0  0  0  0  0  0  0  0
    2.0980   -1.4140    0.0000 C   0  0  0  0  0  0  0  0  0  0  0  0
    0.7990   -0.6640    0.0000 C   0  0  0  0  0  0  0  0  0  0  0  0
    0.7994   -3.6642    0.0000 O   0  0  0  0  0  0  0  0  0  0  0  0
   -0.5002   -1.4138    0.0000 O   0  0  0  0  0  0  0  0  0  0  0  0
  2  3  1  0
  2  4  1  0
  2  5  1  0
  7  6  2  0
  8  6  1  0
  9  7  1  0
 10  1  1  0
 11  8  2  0
 11 10  1  0
 12  9  2  0
 12 11  1  0
 13 10  2  0
 14  2  1  0
 14 12  1  0
M  ISO  3   3   2   4   2   5   2
M  END
>  <NAME>  (223) 
2-METHOXYACETOPHENONE (D3)

>  <SYNONYMS>  (223) 


>  <SPECTRUM TYPE>  (223) 
MS1

>  <INSTRUMENT TYPE>  (223) 
EI-B

>  <INSTRUMENT>  (223) 
HITACHI M-80A

>  <ION MODE>  (223) 
P

>  <INCHIKEY>  (223) 
DWPLEOPKBWNPQV-BMSJAHLVSA-N

>  <FORMULA>  (223) 
C9H10O2

>  <EXACT MASS>  (223) 
153.086909798

>  <MW>  (223) 
153

>  <ID>  (223) 
JP011805

>  <CONTRIBUTOR>  (223) 
University of Tokyo Team, {Faculty of Engineering, University of Tokyo

>  <COMMENT>  (223) 
SMILES=[2H]C([2H])([2H])Oc(c1)c(ccc1)C(C)=O
InChI=InChI=1S/C9H10O2/c1-7(10)8-5-3-4-6-9(8)11-2/h3-6H,1-2H3/i2D3
computed SMILES=[H]C([H])([H])OC=1C=CC=CC1C(=O)C
accession=JP011805
date=2016.01.19 (Created 2008.10.21, modified 2011.05.06)
author=TAJIMA S, GUNMA COLLEGE OF TECHNOLOGY
license=CC BY-NC-SA
exact mass=150.06808
ionization energy=70 eV
ion type=[M]+*
computed spectral entropy=2.585560538942094
computed normalized entropy=0.746035073489991
SPLASH=splash10-0f79-4900000000-59d6a384245d2a17b94f
submitter=submitter = University of Tokyo Team (Faculty of Engineering, University of Tokyo)
MoNA Rating=3.75

>  <NUM PEAKS>  (223) 
32

>  <MASS SPECTRAL PEAKS>  (223) 
15 2.83
18 3.26
38 2.3
39 4.55
43 15.62
50 2.87
51 3.91
52 3.01
53 1.45
62 1.7
63 10.24
64 5.43
65 2.17
76 1.17
77 2.39
78 19.53
79 3.24
82 2.79
92 20.57
93 1.77
106 2.47
108 3.97
120 2.47
135 1.12
136 3.78
137 1.31
138 99.99
139 8.82
153 41.3
154 22.77
155 13.67
156 1.33

>  <PREDICTED SPECTRUM>  (223) 
14 5
15 43
26 30
27 40
33 10
37 61
38 102
39 244
40 84
41 88
42 35
43 419
44 72
45 31
49 19
50 163
51 206
52 163
53 161
54 94
55 22
61 13
62 81
63 157
64 201
65 256
66 148
67 125
68 32
69 4
70 30
72 35
74 14
76 63
77 155
78 104
79 94
80 83
81 86
82 86
83 64
90 37
91 8
92 226
93 67
94 90
95 167
96 36
104 1
105 33
106 88
107 2
108 55
109 26
110 183
111 3
121 7
123 23
135 26
136 112
137 2
138 999
139 278
140 72
153 469
154 133
155 44

$$$$

     RDKit          2D

 14 14  0  0  0  0  0  0  0  0999 V2000
    4.7781    0.5117    0.0000 C   0  0  0  0  0  0  0  0  0  0  0  0
   -3.0166    0.5069    0.0000 C   0  0  0  0  0  0  0  0  0  0  0  0
   -3.7688    1.8047    0.0000 H   0  0  0  0  0  0  0  0  0  0  0  0
   -4.3144   -0.2453    0.0000 H   0  0  0  0  0  0  0  0  0  0  0  0
   -2.2644   -0.7909    0.0000 H   0  0  0  0  0  0  0  0  0  0  0  0
    0.8850   -1.7309    0.0000 C   0  0  0  0  0  0  0  0  0  0  0  0
    2.1796   -0.9888    0.0000 C   0  0  0  0  0  0  0  0  0  0  0  0
   -0.4140   -0.9809    0.0000 C   0  0  0  0  0  0  0  0  0  0  0  0
    0.8810    1.2621    0.0000 C   0  0  0  0  0  0  0  0  0  0  0  0
    3.4792    1.2619    0.0000 C   0  0  0  0  0  0  0  0  0  0  0  0
    2.1800    0.5121    0.0000 C   0  0  0  0  0  0  0  0  0  0  0  0
   -0.4185    0.5112    0.0000 C   0  0  0  0  0  0  0  0  0  0  0  0
    3.4794    2.7619    0.0000 O   0  0  0  0  0  0  0  0  0  0  0  0
   -1.7188    1.2591    0.0000 O   0  0  0  0  0  0  0  0  0  0  0  0
  2  3  1  0
  2  4  1  0
  2  5  1  0
  7  6  2  0
  8  6  1  0
 10  1  1  0
 11  7  1  0
 11  9  2  0
 11 10  1  0
 12  8  2  0
 12  9  1  0
 13 10  2  0
 14  2  1  0
 14 12  1  0
M  ISO  3   3   2   4   2   5   2
M  END
>  <NAME>  (224) 
3-METHOXYACETOPHENONE (D3)

>  <SYNONYMS>  (224) 


>  <SPECTRUM TYPE>  (224) 
MS1

>  <INSTRUMENT TYPE>  (224) 
EI-B

>  <INSTRUMENT>  (224) 
HITACHI M-80A

>  <ION MODE>  (224) 
P

>  <INCHIKEY>  (224) 
BAYUSCHCCGXLAY-BMSJAHLVSA-N

>  <FORMULA>  (224) 
C9H10O2

>  <EXACT MASS>  (224) 
153.086909798

>  <MW>  (224) 
153

>  <ID>  (224) 
JP011804

>  <CONTRIBUTOR>  (224) 
University of Tokyo Team, {Faculty of Engineering, University of Tokyo

>  <COMMENT>  (224) 
SMILES=[2H]C([2H])([2H])Oc(c1)cc(cc1)C(C)=O
InChI=InChI=1S/C9H10O2/c1-7(10)8-4-3-5-9(6-8)11-2/h3-6H,1-2H3/i2D3
computed SMILES=[H]C([H])([H])OC1=CC=CC(=C1)C(=O)C
accession=JP011804
date=2016.01.19 (Created 2008.10.21, modified 2011.05.06)
author=TAJIMA S, GUNMA COLLEGE OF TECHNOLOGY
license=CC BY-NC-SA
exact mass=150.06808
ionization energy=70 eV
ion type=[M]+*
computed spectral entropy=3.0840741647423244
computed normalized entropy=0.8055270382779786
SPLASH=splash10-0ikl-9500000000-918b553e199588d65e59
submitter=submitter = University of Tokyo Team (Faculty of Engineering, University of Tokyo)
MoNA Rating=3.75

>  <NUM PEAKS>  (224) 
46

>  <MASS SPECTRAL PEAKS>  (224) 
15 5.93
18 9.46
26 1.15
27 1.82
29 1.86
30 2.76
37 2.79
38 11.18
39 9.98
40 1.38
42 5.7
43 46.01
44 1.22
49 1.29
50 13.43
51 10.84
52 6.16
53 2.93
61 3.31
62 9.96
63 37.56
64 33.43
65 7.43
66 1.63
73 1.3
74 6.88
75 4.35
76 5.75
77 7.19
78 40.22
79 11.5
80 5.76
81 1.28
82 3.37
89 1.29
91 1.47
92 48.71
93 4.67
110 46.04
111 4.43
120 1.74
124 1.43
138 99.99
139 9.56
153 45.64
154 4.35

>  <PREDICTED SPECTRUM>  (224) 
14 10
15 34
16 3
25 2
26 45
27 40
28 20
31 14
33 9
36 14
37 90
38 152
39 250
40 113
41 65
42 14
43 609
44 149
45 42
49 35
50 208
51 263
52 184
53 129
54 50
55 68
56 36
60 2
61 66
62 146
63 254
64 247
65 273
66 184
67 152
68 54
74 45
75 58
76 85
77 213
78 185
79 99
80 127
81 143
82 164
83 107
89 14
90 55
91 14
92 219
93 140
94 165
95 216
96 74
105 29
106 77
107 56
108 71
109 61
110 223
111 55
120 21
121 18
123 36
124 10
135 59
136 80
137 67
138 999
139 279
140 61
153 576
154 170
155 76

$$$$

     RDKit          2D

 14 14  0  0  0  0  0  0  0  0999 V2000
    2.6101    2.9936    0.0000 C   0  0  0  0  0  0  0  0  0  0  0  0
   -3.9180   -0.7714    0.0000 C   0  0  0  0  0  0  0  0  0  0  0  0
   -3.1787    0.5337    0.0000 H   0  0  0  0  0  0  0  0  0  0  0  0
   -5.2232   -0.0322    0.0000 H   0  0  0  0  0  0  0  0  0  0  0  0
   -4.6572   -2.0766    0.0000 H   0  0  0  0  0  0  0  0  0  0  0  0
    1.3000   -0.7500    0.0000 C   0  0  0  0  0  0  0  0  0  0  0  0
    0.0300    1.5000    0.0000 C   0  0  0  0  0  0  0  0  0  0  0  0
    0.0300   -1.5000    0.0000 C   0  0  0  0  0  0  0  0  0  0  0  0
   -1.3200    0.7500    0.0000 C   0  0  0  0  0  0  0  0  0  0  0  0
    2.6027    1.4936    0.0000 C   0  0  0  0  0  0  0  0  0  0  0  0
    1.3000    0.7500    0.0000 C   0  0  0  0  0  0  0  0  0  0  0  0
   -1.3200   -0.7500    0.0000 C   0  0  0  0  0  0  0  0  0  0  0  0
    3.8980    0.7372    0.0000 O   0  0  0  0  0  0  0  0  0  0  0  0
   -2.6128   -1.5107    0.0000 O   0  0  0  0  0  0  0  0  0  0  0  0
  2  3  1  0
  2  4  1  0
  2  5  1  0
  8  6  2  0
  9  7  1  0
 10  1  1  0
 11  6  1  0
 11  7  2  0
 11 10  1  0
 12  8  1  0
 12  9  2  0
 13 10  2  0
 14  2  1  0
 14 12  1  0
M  ISO  3   3   2   4   2   5   2
M  END
>  <NAME>  (225) 
4-METHOXYACETOPHENONE (D3)

>  <SYNONYMS>  (225) 


>  <SPECTRUM TYPE>  (225) 
MS1

>  <INSTRUMENT TYPE>  (225) 
EI-B

>  <INSTRUMENT>  (225) 
HITACHI M-80A

>  <ION MODE>  (225) 
P

>  <INCHIKEY>  (225) 
NTPLXRHDUXRPNE-BMSJAHLVSA-N

>  <FORMULA>  (225) 
C9H10O2

>  <EXACT MASS>  (225) 
153.086909798

>  <MW>  (225) 
153

>  <ID>  (225) 
JP011803

>  <CONTRIBUTOR>  (225) 
University of Tokyo Team, {Faculty of Engineering, University of Tokyo

>  <COMMENT>  (225) 
SMILES=[2H]C([2H])([2H])Oc(c1)ccc(c1)C(C)=O
InChI=InChI=1S/C9H10O2/c1-7(10)8-3-5-9(11-2)6-4-8/h3-6H,1-2H3/i2D3
computed SMILES=[H]C([H])([H])OC1=CC=C(C=C1)C(=O)C
accession=JP011803
date=2016.01.19 (Created 2008.10.21, modified 2011.05.06)
author=TAJIMA S, GUNMA COLLEGE OF TECHNOLOGY
license=CC BY-NC-SA
exact mass=150.06808
ionization energy=70 eV
ion type=[M]+*
computed spectral entropy=2.681668723485573
computed normalized entropy=0.7604635727872628
SPLASH=splash10-000i-9800000000-b943a08390f9ab22ada1
submitter=submitter = University of Tokyo Team (Faculty of Engineering, University of Tokyo)
MoNA Rating=3.75

>  <NUM PEAKS>  (225) 
34

>  <MASS SPECTRAL PEAKS>  (225) 
15 2.68
18 3.62
37 1.09
38 4.65
39 4.43
42 1.81
43 15.74
50 5.85
51 5.2
52 2.91
53 1.56
61 1.29
62 4.13
63 14.32
64 15.29
65 2.79
66 1.05
74 2.46
75 1.74
76 2.25
77 4.08
78 25.46
79 6.98
80 3.09
82 1.59
92 25.69
93 2.09
110 10.23
120 1.81
124 1.19
138 99.99
139 9.14
153 33.84
154 3.6

>  <PREDICTED SPECTRUM>  (225) 
14 16
15 61
16 1
25 4
26 58
27 105
28 30
29 38
31 30
33 10
34 8
36 4
37 82
38 142
39 214
40 90
41 85
42 45
43 589
44 98
45 46
49 32
50 214
51 243
52 139
53 156
54 73
55 45
56 6
60 4
61 73
62 143
63 255
64 246
65 267
66 148
67 79
68 42
69 25
70 19
72 17
74 88
75 87
76 130
77 216
78 129
79 99
80 62
81 89
82 124
83 67
84 36
85 118
86 6
89 100
90 142
91 132
92 246
93 81
94 84
95 128
96 35
108 43
109 73
110 203
111 64
112 21
120 5
137 46
138 999
139 308
140 132
141 14
153 526
154 159
155 76

$$$$

     RDKit          2D

 10 11  0  0  0  0  0  0  0  0999 V2000
    4.1000   -0.0000    0.0000 C   0  0  0  0  0  0  0  0  0  0  0  0
   -2.3100    0.7500    0.0000 C   0  0  0  0  0  0  0  0  0  0  0  0
   -2.3100   -0.7500    0.0000 C   0  0  0  0  0  0  0  0  0  0  0  0
   -1.0100    1.5000    0.0000 C   0  0  0  0  0  0  0  0  0  0  0  0
   -1.0100   -1.5000    0.0000 C   0  0  0  0  0  0  0  0  0  0  0  0
    1.7200    1.2100    0.0000 C   0  0  0  0  0  0  0  0  0  0  0  0
    2.6000    0.0000    0.0000 C   0  0  0  0  0  0  0  0  0  0  0  0
    0.2900    0.7500    0.0000 C   0  0  0  0  0  0  0  0  0  0  0  0
    0.2900   -0.7500    0.0000 C   0  0  0  0  0  0  0  0  0  0  0  0
    1.7200   -1.2100    0.0000 O   0  0  0  0  0  0  0  0  0  0  0  0
  3  2  2  0
  4  2  1  0
  5  3  1  0
  7  1  1  0
  7  6  2  0
  8  4  2  0
  8  6  1  0
  9  5  2  0
  9  8  1  0
 10  7  1  0
 10  9  1  0
M  END
>  <NAME>  (226) 
2-METHYLBENZOFURAN

>  <SYNONYMS>  (226) 


>  <SPECTRUM TYPE>  (226) 
MS1

>  <INSTRUMENT TYPE>  (226) 
EI-B

>  <INSTRUMENT>  (226) 
HITACHI M-80A

>  <ION MODE>  (226) 
P

>  <INCHIKEY>  (226) 
GBGPVUAOTCNZPT-UHFFFAOYSA-N

>  <FORMULA>  (226) 
C9H8O

>  <EXACT MASS>  (226) 
132.057514876

>  <MW>  (226) 
132

>  <ID>  (226) 
JP011802

>  <CONTRIBUTOR>  (226) 
University of Tokyo Team, {Faculty of Engineering, University of Tokyo

>  <COMMENT>  (226) 
SMILES=Cc(c1)oc(c2)c(ccc2)1
InChI=InChI=1S/C9H8O/c1-7-6-8-4-2-3-5-9(8)10-7/h2-6H,1H3
computed SMILES=O1C=2C=CC=CC2C=C1C
accession=JP011802
date=2016.01.19 (Created 2008.10.21, modified 2011.05.06)
author=TAJIMA S, GUNMA COLLEGE OF TECHNOLOGY
license=CC BY-NC-SA
exact mass=132.05751
ionization energy=70 eV
ion type=[M]+*
computed spectral entropy=2.546969066388171
computed normalized entropy=0.7284323061266138
SPLASH=splash10-001i-5900000000-83e7a36e777b30e97e68
submitter=submitter = University of Tokyo Team (Faculty of Engineering, University of Tokyo)
MoNA Rating=3.75

>  <NUM PEAKS>  (226) 
33

>  <MASS SPECTRAL PEAKS>  (226) 
15 1.89
26 2.31
27 4.79
37 1.8
38 4.56
39 11.37
43 5.23
49 1.06
50 9.38
51 19.5
52 4.84
53 1.55
61 1.91
62 4.84
63 9.95
64 1.8
65 2.54
66 5.13
74 3.92
75 3.48
76 3.77
77 18.36
78 10.67
87 1.27
89 2.58
102 4.97
103 13.77
104 5.48
105 1.16
130 1.22
131 99.99
132 88.65
133 8.59

>  <PREDICTED SPECTRUM>  (226) 
14 23
15 50
16 9
25 45
26 102
27 150
28 113
29 103
31 47
33 7
35 3
36 48
37 181
38 271
39 447
40 153
41 149
42 116
43 303
44 154
47 1
48 36
49 110
50 336
51 465
52 258
53 186
54 54
55 113
57 114
58 52
61 172
62 236
63 399
64 206
65 104
66 81
69 10
73 200
74 187
75 269
76 213
77 428
78 300
79 141
80 15
85 125
86 151
87 104
88 38
89 298
90 49
91 74
92 15
101 91
102 204
103 649
104 278
105 113
113 0
114 3
129 23
130 128
131 999
132 986
133 300
134 56

$$$$

     RDKit          2D

  9 10  0  0  0  0  0  0  0  0999 V2000
   -2.3100    0.7500    0.0000 C   0  0  0  0  0  0  0  0  0  0  0  0
   -2.3100   -0.7500    0.0000 C   0  0  0  0  0  0  0  0  0  0  0  0
   -1.0100    1.5000    0.0000 C   0  0  0  0  0  0  0  0  0  0  0  0
   -1.0100   -1.5000    0.0000 C   0  0  0  0  0  0  0  0  0  0  0  0
    1.7200    1.2100    0.0000 C   0  0  0  0  0  0  0  0  0  0  0  0
    2.6000    0.0000    0.0000 C   0  0  0  0  0  0  0  0  0  0  0  0
    0.2900    0.7500    0.0000 C   0  0  0  0  0  0  0  0  0  0  0  0
    0.2900   -0.7500    0.0000 C   0  0  0  0  0  0  0  0  0  0  0  0
    1.7200   -1.2100    0.0000 O   0  0  0  0  0  0  0  0  0  0  0  0
  2  1  2  0
  3  1  1  0
  4  2  1  0
  6  5  2  0
  7  3  2  0
  7  5  1  0
  8  4  2  0
  8  7  1  0
  9  6  1  0
  9  8  1  0
M  END
>  <NAME>  (227) 
2,3-BENZOFURAN

>  <SYNONYMS>  (227) 


>  <SPECTRUM TYPE>  (227) 
MS1

>  <INSTRUMENT TYPE>  (227) 
EI-B

>  <INSTRUMENT>  (227) 
HITACHI M-80A

>  <ION MODE>  (227) 
P

>  <INCHIKEY>  (227) 
IANQTJSKSUMEQM-UHFFFAOYSA-N

>  <FORMULA>  (227) 
C8H6O

>  <EXACT MASS>  (227) 
118.041864812

>  <MW>  (227) 
118

>  <ID>  (227) 
JP011801

>  <CONTRIBUTOR>  (227) 
University of Tokyo Team, {Faculty of Engineering, University of Tokyo

>  <COMMENT>  (227) 
SMILES=c(c2)cc(c1)c(c2)oc1
InChI=InChI=1S/C8H6O/c1-2-4-8-7(3-1)5-6-9-8/h1-6H
computed SMILES=O1C=CC=2C=CC=CC12
accession=JP011801
date=2016.01.19 (Created 2008.10.21, modified 2011.05.06)
author=TAJIMA S, GUNMA COLLEGE OF TECHNOLOGY
license=CC BY-NC-SA
exact mass=118.04186
ionization energy=70 eV
ion type=[M]+*
computed spectral entropy=2.3688067712478835
computed normalized entropy=0.7187269478296964
SPLASH=splash10-014i-9500000000-3d2e5f26beb578276710
submitter=submitter = University of Tokyo Team (Faculty of Engineering, University of Tokyo)
MoNA Rating=3.75

>  <NUM PEAKS>  (227) 
27

>  <MASS SPECTRAL PEAKS>  (227) 
26 1.97
27 1.94
29 2.39
37 3.14
38 5.89
39 10.27
40 1.45
43 1.87
45 3.96
49 1.19
50 5.19
51 5.3
59 4.61
61 4.03
62 9.74
63 22.62
64 6.42
74 1.21
85 1.18
86 2.11
87 1.91
88 1.04
89 32.39
90 33.62
91 2.55
118 99.99
119 8.86

>  <PREDICTED SPECTRUM>  (227) 
25 24
26 48
28 51
36 22
37 120
38 159
39 247
40 87
41 68
44 20
49 76
50 284
51 325
52 174
61 152
62 288
63 426
64 230
65 91
66 22
74 152
76 8
78 2
86 77
87 121
88 79
89 519
90 430
91 166
116 30
117 301
118 999
119 309
120 29

$$$$

     RDKit          2D

  9  9  0  0  0  0  0  0  0  0999 V2000
    2.5989   -1.5002    0.0000 C   0  0  0  0  0  0  0  0  0  0  0  0
   -1.3000    0.7500    0.0000 C   0  0  0  0  0  0  0  0  0  0  0  0
    0.0000    1.5000    0.0000 C   0  0  0  0  0  0  0  0  0  0  0  0
   -0.0000   -1.5000    0.0000 C   0  0  0  0  0  0  0  0  0  0  0  0
    1.3000   -0.7500    0.0000 C   0  0  0  0  0  0  0  0  0  0  0  0
   -1.3000   -0.7500    0.0000 C   0  0  0  0  0  0  0  0  0  0  0  0
    1.3000    0.7500    0.0000 C   0  0  0  0  0  0  0  0  0  0  0  0
   -2.5989   -1.5002    0.0000 F   0  0  0  0  0  0  0  0  0  0  0  0
    2.5989    1.5002    0.0000 F   0  0  0  0  0  0  0  0  0  0  0  0
  3  2  2  0
  5  1  1  0
  5  4  1  0
  6  2  1  0
  6  4  2  0
  7  3  1  0
  7  5  2  0
  8  6  1  0
  9  7  1  0
M  END
>  <NAME>  (228) 
2,5-DIFLUOROTOLUENE

>  <SYNONYMS>  (228) 


>  <SPECTRUM TYPE>  (228) 
MS1

>  <INSTRUMENT TYPE>  (228) 
EI-B

>  <INSTRUMENT>  (228) 
HITACHI M-80A

>  <ION MODE>  (228) 
P

>  <INCHIKEY>  (228) 
YSNVKDGEALPJGC-UHFFFAOYSA-N

>  <FORMULA>  (228) 
C7H6F2

>  <EXACT MASS>  (228) 
128.043756632

>  <MW>  (228) 
128

>  <ID>  (228) 
JP011800

>  <CONTRIBUTOR>  (228) 
University of Tokyo Team, {Faculty of Engineering, University of Tokyo

>  <COMMENT>  (228) 
SMILES=Fc(c1)cc(C)c(F)c1
InChI=InChI=1S/C7H6F2/c1-5-4-6(8)2-3-7(5)9/h2-4H,1H3
computed SMILES=FC1=CC=C(F)C(=C1)C
accession=JP011800
date=2016.01.19 (Created 2008.10.21, modified 2011.05.06)
author=TAJIMA S, GUNMA COLLEGE OF TECHNOLOGY
license=CC BY-NC-SA
exact mass=128.04376
ionization energy=70 eV
ion type=[M]+*
computed spectral entropy=2.687934035547239
computed normalized entropy=0.7146479721543841
SPLASH=splash10-004i-4900000000-1100881ce8d2185d8e26
submitter=submitter = University of Tokyo Team (Faculty of Engineering, University of Tokyo)
MoNA Rating=3.75

>  <NUM PEAKS>  (228) 
43

>  <MASS SPECTRAL PEAKS>  (228) 
26 1.21
27 1.48
31 6.21
33 1.26
37 2.03
38 2.97
39 4.55
44 2.42
50 5.73
51 7.46
54 1.71
56 2.32
57 10.81
61 2.98
62 4
63 6.2
64 2.21
68 1.98
69 1.81
70 1.45
74 2.68
75 6.47
76 1.31
77 3.72
78 1.18
80 1.42
81 6.62
82 1.21
83 3.21
85 1.14
86 1.2
87 1.05
99 1.37
101 12.11
105 1.19
107 9.05
108 2.18
109 6.45
125 3.89
126 4.35
127 99.99
128 61.85
129 4.44

>  <PREDICTED SPECTRUM>  (228) 
14 20
15 27
25 35
26 87
27 100
28 81
29 35
31 264
32 11
33 102
36 68
37 169
38 171
39 146
40 11
43 43
44 58
47 1
48 36
49 130
50 314
51 249
52 100
53 23
54 3
55 6
56 200
57 424
58 22
59 43
60 68
61 267
62 264
63 378
64 137
68 235
69 189
70 98
71 59
72 66
73 145
74 203
75 377
76 141
77 111
78 60
80 186
81 428
82 145
83 232
84 2
85 25
86 89
87 62
88 66
89 99
93 53
94 9
96 70
97 4
99 190
100 273
101 526
102 168
103 3
107 457
108 494
109 274
110 73
112 4
113 137
114 69
125 271
126 231
127 888
128 999
129 286
130 66

$$$$

     RDKit          2D

  9  9  0  0  0  0  0  0  0  0999 V2000
   -2.5989   -1.5002    0.0000 C   0  0  0  0  0  0  0  0  0  0  0  0
   -1.3000    0.7500    0.0000 C   0  0  0  0  0  0  0  0  0  0  0  0
    0.0000    1.5000    0.0000 C   0  0  0  0  0  0  0  0  0  0  0  0
   -0.0000   -1.5000    0.0000 C   0  0  0  0  0  0  0  0  0  0  0  0
   -1.3000   -0.7500    0.0000 C   0  0  0  0  0  0  0  0  0  0  0  0
    1.3000    0.7500    0.0000 C   0  0  0  0  0  0  0  0  0  0  0  0
    1.3000   -0.7500    0.0000 C   0  0  0  0  0  0  0  0  0  0  0  0
    2.5989    1.5002    0.0000 F   0  0  0  0  0  0  0  0  0  0  0  0
    2.5989   -1.5002    0.0000 F   0  0  0  0  0  0  0  0  0  0  0  0
  3  2  2  0
  5  1  1  0
  5  2  1  0
  5  4  2  0
  6  3  1  0
  7  4  1  0
  7  6  2  0
  8  6  1  0
  9  7  1  0
M  END
>  <NAME>  (229) 
3,4-DIFLUOROTOLUENE

>  <SYNONYMS>  (229) 


>  <SPECTRUM TYPE>  (229) 
MS1

>  <INSTRUMENT TYPE>  (229) 
EI-B

>  <INSTRUMENT>  (229) 
HITACHI M-80A

>  <ION MODE>  (229) 
P

>  <INCHIKEY>  (229) 
FZMPLKVGINKUJZ-UHFFFAOYSA-N

>  <FORMULA>  (229) 
C7H6F2

>  <EXACT MASS>  (229) 
128.043756632

>  <MW>  (229) 
128

>  <ID>  (229) 
JP011799

>  <CONTRIBUTOR>  (229) 
University of Tokyo Team, {Faculty of Engineering, University of Tokyo

>  <COMMENT>  (229) 
SMILES=Cc(c1)cc(F)c(F)c1
InChI=InChI=1S/C7H6F2/c1-5-2-3-6(8)7(9)4-5/h2-4H,1H3
computed SMILES=FC1=CC=C(C=C1F)C
accession=JP011799
date=2016.01.19 (Created 2008.10.21, modified 2011.05.06)
author=TAJIMA S, GUNMA COLLEGE OF TECHNOLOGY
license=CC BY-NC-SA
exact mass=128.04376
ionization energy=70 eV
ion type=[M]+*
computed spectral entropy=2.5749769036585093
computed normalized entropy=0.707880663327627
SPLASH=splash10-004i-4900000000-51c14a490c10f4ccf383
submitter=submitter = University of Tokyo Team (Faculty of Engineering, University of Tokyo)
MoNA Rating=3.75

>  <NUM PEAKS>  (229) 
38

>  <MASS SPECTRAL PEAKS>  (229) 
26 1.22
27 1.75
31 4.91
37 1.76
38 2.73
39 4.31
44 1.44
50 5.4
51 7.54
54 1.16
56 2.09
57 7.04
61 2.43
62 3.32
63 6.08
64 2
68 1.7
69 1.42
74 2.49
75 7.68
76 1.36
77 4.33
78 4.73
80 1.37
81 5.09
83 2.5
99 1.57
101 11.97
102 1.06
105 1.01
107 6.46
108 1.05
109 7.96
125 3.9
126 3.58
127 99.99
128 55.9
129 3.91

>  <PREDICTED SPECTRUM>  (229) 
14 14
15 17
25 20
26 63
27 61
28 63
29 8
30 30
31 217
33 47
36 30
37 128
38 133
39 114
49 111
50 267
51 239
52 73
53 6
56 108
57 361
61 199
62 227
63 373
64 145
68 144
69 148
70 45
72 18
73 75
74 194
75 305
76 119
77 170
78 89
79 5
80 130
81 305
82 21
83 111
86 56
88 26
89 44
99 129
100 122
101 517
102 122
107 414
108 440
109 294
110 37
113 111
114 60
125 343
126 245
127 974
128 999
129 277
130 19

$$$$

     RDKit          2D

 24 30  0  0  0  0  0  0  0  0999 V2000
   -1.3000   -3.7500    0.0000 C   0  0  0  0  0  0  0  0  0  0  0  0
   -2.6000   -3.0000    0.0000 C   0  0  0  0  0  0  0  0  0  0  0  0
    1.3000   -3.7500    0.0000 C   0  0  0  0  0  0  0  0  0  0  0  0
    2.6000   -3.0000    0.0000 C   0  0  0  0  0  0  0  0  0  0  0  0
   -3.9000   -0.7500    0.0000 C   0  0  0  0  0  0  0  0  0  0  0  0
   -3.9000    0.7500    0.0000 C   0  0  0  0  0  0  0  0  0  0  0  0
    3.9000   -0.7500    0.0000 C   0  0  0  0  0  0  0  0  0  0  0  0
    3.9000    0.7500    0.0000 C   0  0  0  0  0  0  0  0  0  0  0  0
   -2.6000    3.0000    0.0000 C   0  0  0  0  0  0  0  0  0  0  0  0
    2.6000    3.0000    0.0000 C   0  0  0  0  0  0  0  0  0  0  0  0
   -1.3000    3.7500    0.0000 C   0  0  0  0  0  0  0  0  0  0  0  0
    1.3000    3.7500    0.0000 C   0  0  0  0  0  0  0  0  0  0  0  0
    0.0000   -3.0000    0.0000 C   0  0  0  0  0  0  0  0  0  0  0  0
   -2.6000   -1.5000    0.0000 C   0  0  0  0  0  0  0  0  0  0  0  0
    2.6000   -1.5000    0.0000 C   0  0  0  0  0  0  0  0  0  0  0  0
   -2.6000    1.5000    0.0000 C   0  0  0  0  0  0  0  0  0  0  0  0
    2.6000    1.5000    0.0000 C   0  0  0  0  0  0  0  0  0  0  0  0
    0.0000    3.0000    0.0000 C   0  0  0  0  0  0  0  0  0  0  0  0
    0.0000   -1.5000    0.0000 C   0  0  0  0  0  0  0  0  0  0  0  0
   -1.3000   -0.7500    0.0000 C   0  0  0  0  0  0  0  0  0  0  0  0
    1.3000   -0.7500    0.0000 C   0  0  0  0  0  0  0  0  0  0  0  0
   -1.3000    0.7500    0.0000 C   0  0  0  0  0  0  0  0  0  0  0  0
    1.3000    0.7500    0.0000 C   0  0  0  0  0  0  0  0  0  0  0  0
    0.0000    1.5000    0.0000 C   0  0  0  0  0  0  0  0  0  0  0  0
  2  1  2  0
  4  3  1  0
  6  5  1  0
  8  7  2  0
 11  9  2  0
 12 10  1  0
 13  1  1  0
 13  3  2  0
 14  2  1  0
 14  5  2  0
 15  4  2  0
 15  7  1  0
 16  6  2  0
 16  9  1  0
 17  8  1  0
 17 10  2  0
 18 11  1  0
 18 12  2  0
 19 13  1  0
 20 14  1  0
 20 19  2  0
 21 15  1  0
 21 19  1  0
 22 16  1  0
 22 20  1  0
 23 17  1  0
 23 21  2  0
 24 18  1  0
 24 22  2  0
 24 23  1  0
M  END
>  <NAME>  (230) 
CORONENE

>  <SYNONYMS>  (230) 


>  <SPECTRUM TYPE>  (230) 
MS1

>  <INSTRUMENT TYPE>  (230) 
EI-B

>  <INSTRUMENT>  (230) 
HITACHI M-80A

>  <ION MODE>  (230) 
P

>  <INCHIKEY>  (230) 
VPUGDVKSAQVFFS-UHFFFAOYSA-N

>  <FORMULA>  (230) 
C24H12

>  <EXACT MASS>  (230) 
300.093900384

>  <MW>  (230) 
300

>  <ID>  (230) 
JP011798

>  <CONTRIBUTOR>  (230) 
University of Tokyo Team, {Faculty of Engineering, University of Tokyo

>  <COMMENT>  (230) 
SMILES=c(c42)(c71)c(c3)ccc1ccc(c67)ccc(c56)ccc(c45)ccc2c3
InChI=InChI=1S/C24H12/c1-2-14-5-6-16-9-11-18-12-10-17-8-7-15-4-3-13(1)19-20(14)22(16)24(18)23(17)21(15)19/h1-12H
computed SMILES=C1=CC2=CC=C3C=CC4=CC=C5C=CC6=CC=C1C=7C2=C3C4=C5C67
accession=JP011798
date=2016.01.19 (Created 2008.10.21, modified 2011.05.06)
author=TAJIMA S, GUNMA COLLEGE OF TECHNOLOGY
license=CC BY-NC-SA
exact mass=300.0939
ionization energy=70 eV
ion type=[M]+*
computed spectral entropy=2.5972743567297516
computed normalized entropy=0.7140104021412692
SPLASH=splash10-0udi-2249000000-4fe84853d495cc9162e8
submitter=submitter = University of Tokyo Team (Faculty of Engineering, University of Tokyo)
MoNA Rating=3.75

>  <NUM PEAKS>  (230) 
38

>  <MASS SPECTRAL PEAKS>  (230) 
39 3.99
41 2.55
42 1.63
43 2.49
50 1.75
51 2.26
53 2.95
54 1.45
55 1.76
62 1.34
63 1.43
69 1.61
74 1.27
77 1.28
81 2.39
82 1.54
105 1.91
110 3.55
135 2
136 2.26
137 1.24
147 1.68
148 3.33
149 8.69
150 14.85
272 1.31
274 1.33
275 1.27
276 6.27
294 2.54
295 2.73
296 9.17
297 5.62
298 19.69
299 12.08
300 99.99
301 23.79
302 3.98

>  <PREDICTED SPECTRUM>  (230) 
74 29
76 5
86 19
97 78
98 47
100 39
110 21
111 3
112 33
117 9
123 32
124 44
125 14
133 50
136 118
137 103
148 176
149 274
150 222
158 3
160 18
161 58
169 32
170 56
246 63
247 40
248 105
271 48
272 86
273 127
274 128
275 10
294 195
295 160
296 373
297 350
298 553
299 461
300 999
301 505
302 224
303 39

$$$$

     RDKit          2D

 10 10  0  0  0  0  0  0  0  0999 V2000
    1.9487    3.0002    0.0000 C   0  0  0  0  0  0  0  0  0  0  0  0
   -1.9500    0.7500    0.0000 C   0  0  0  0  0  0  0  0  0  0  0  0
   -1.9500   -0.7500    0.0000 C   0  0  0  0  0  0  0  0  0  0  0  0
   -0.6500    1.5000    0.0000 C   0  0  0  0  0  0  0  0  0  0  0  0
   -0.6500   -1.5000    0.0000 C   0  0  0  0  0  0  0  0  0  0  0  0
    1.9489    1.5002    0.0000 C   0  0  0  0  0  0  0  0  0  0  0  0
    0.6500    0.7500    0.0000 C   0  0  0  0  0  0  0  0  0  0  0  0
    0.6500   -0.7500    0.0000 C   0  0  0  0  0  0  0  0  0  0  0  0
    3.2481    0.7504    0.0000 O   0  0  0  0  0  0  0  0  0  0  0  0
    1.9489   -1.5002    0.0000 O   0  0  0  0  0  0  0  0  0  0  0  0
  3  2  2  0
  4  2  1  0
  5  3  1  0
  6  1  1  0
  7  4  2  0
  7  6  1  0
  8  5  2  0
  8  7  1  0
  9  6  2  0
 10  8  1  0
M  END
>  <NAME>  (231) 
ORTHO-HYDROXYACETHOPHENONE

>  <SYNONYMS>  (231) 
2-ACETYLPHENOL

>  <SPECTRUM TYPE>  (231) 
MS1

>  <INSTRUMENT TYPE>  (231) 
EI-B

>  <INSTRUMENT>  (231) 
HITACHI M-80A

>  <ION MODE>  (231) 
P

>  <INCHIKEY>  (231) 
JECYUBVRTQDVAT-UHFFFAOYSA-N

>  <FORMULA>  (231) 
C8H8O2

>  <EXACT MASS>  (231) 
136.052429496

>  <MW>  (231) 
136

>  <ID>  (231) 
JP011797

>  <CONTRIBUTOR>  (231) 
University of Tokyo Team, {Faculty of Engineering, University of Tokyo

>  <COMMENT>  (231) 
SMILES=CC(=O)c(c1)c(O)ccc1
InChI=InChI=1S/C8H8O2/c1-6(9)7-4-2-3-5-8(7)10/h2-5,10H,1H3
computed SMILES=O=C(C=1C=CC=CC1O)C
accession=JP011797
date=2016.01.19 (Created 2008.10.21, modified 2011.05.06)
author=TAJIMA S, GUNMA COLLEGE OF TECHNOLOGY
license=CC BY-NC-SA
exact mass=136.05243
ionization energy=70 eV
ion type=[M]+*
computed spectral entropy=3.2335904630919834
computed normalized entropy=0.8265775683336217
SPLASH=splash10-0fyc-9100000000-6aa38be570fc2e4c3c7e
submitter=submitter = University of Tokyo Team (Faculty of Engineering, University of Tokyo)
MoNA Rating=3.75

>  <NUM PEAKS>  (231) 
50

>  <MASS SPECTRAL PEAKS>  (231) 
15 14.03
16 3.06
27 14.3
29 11.84
31 1.39
37 10.97
38 29.1
39 97.84
40 6.67
41 3.06
42 11.61
43 68.33
44 1.9
49 3.67
50 25.6
51 29.51
52 8.75
53 29.59
54 2.63
55 5.4
61 10.65
62 23.83
63 52.22
64 22.77
65 94.42
66 14.5
67 2.86
69 1.43
73 2.31
74 9.91
75 5.97
76 3.46
77 19.81
78 5.3
79 5.91
81 2.12
85 1.2
86 1.81
87 1.52
89 6.1
90 6.25
91 1.91
92 11.27
93 27.17
94 4.26
107 3.19
121 99.99
122 8.62
136 22.19
137 2.65

>  <PREDICTED SPECTRUM>  (231) 
14 24
15 65
18 1
26 24
27 33
37 57
38 125
39 279
40 97
41 24
42 16
43 553
44 45
45 4
49 27
50 209
51 286
52 152
53 220
54 40
55 48
61 111
62 148
63 294
64 242
65 449
66 204
67 136
74 123
75 119
76 94
77 318
78 56
79 107
80 38
91 84
92 431
93 362
94 129
95 30
102 46
107 77
118 53
119 93
120 408
121 999
122 322
123 95
135 107
136 852
137 303
138 83

$$$$

     RDKit          2D

  9  9  0  0  0  0  0  0  0  0999 V2000
    2.5989    0.0004    0.0000 C   0  0  0  0  0  0  0  0  0  0  0  0
    1.3000   -2.2498    0.0000 C   0  0  0  0  0  0  0  0  0  0  0  0
   -0.0000   -2.9998    0.0000 C   0  0  0  0  0  0  0  0  0  0  0  0
   -1.3000   -0.7498    0.0000 C   0  0  0  0  0  0  0  0  0  0  0  0
    1.3000   -0.7498    0.0000 C   0  0  0  0  0  0  0  0  0  0  0  0
   -1.3000   -2.2498    0.0000 C   0  0  0  0  0  0  0  0  0  0  0  0
    0.0000    0.0002    0.0000 C   0  0  0  0  0  0  0  0  0  0  0  0
   -2.5989   -3.0000    0.0000 F   0  0  0  0  0  0  0  0  0  0  0  0
    0.0000    1.5002    0.0000 F   0  0  0  0  0  0  0  0  0  0  0  0
  3  2  2  0
  5  1  1  0
  5  2  1  0
  6  3  1  0
  6  4  2  0
  7  4  1  0
  7  5  2  0
  8  6  1  0
  9  7  1  0
M  END
>  <NAME>  (232) 
2,4-DIFLUOROTOLUENE

>  <SYNONYMS>  (232) 


>  <SPECTRUM TYPE>  (232) 
MS1

>  <INSTRUMENT TYPE>  (232) 
EI-B

>  <INSTRUMENT>  (232) 
HITACHI M-80A

>  <ION MODE>  (232) 
P

>  <INCHIKEY>  (232) 
MPXDAIBTYWGBSL-UHFFFAOYSA-N

>  <FORMULA>  (232) 
C7H6F2

>  <EXACT MASS>  (232) 
128.043756632

>  <MW>  (232) 
128

>  <ID>  (232) 
JP011796

>  <CONTRIBUTOR>  (232) 
University of Tokyo Team, {Faculty of Engineering, University of Tokyo

>  <COMMENT>  (232) 
SMILES=Fc(c1)cc(F)c(C)c1
InChI=InChI=1S/C7H6F2/c1-5-2-3-6(8)4-7(5)9/h2-4H,1H3
computed SMILES=FC1=CC=C(C(F)=C1)C
accession=JP011796
date=2016.01.19 (Created 2008.10.21, modified 2011.05.06)
author=TAJIMA S, GUNMA COLLEGE OF TECHNOLOGY
license=CC BY-NC-SA
exact mass=128.04376
ionization energy=70 eV
ion type=[M]+*
computed spectral entropy=2.703150780644829
computed normalized entropy=0.714327515834852
SPLASH=splash10-004i-4900000000-7801fcfdc5949367167a
submitter=submitter = University of Tokyo Team (Faculty of Engineering, University of Tokyo)
MoNA Rating=3.75

>  <NUM PEAKS>  (232) 
44

>  <MASS SPECTRAL PEAKS>  (232) 
26 1.68
27 1.96
31 6.56
33 1.12
37 1.92
38 2.79
39 4.07
43 1.04
44 2.31
49 1.16
50 6.79
51 8.01
54 1.89
56 2.44
57 9.13
61 2.92
62 3.59
63 5.79
64 2.19
68 1.7
69 1.41
70 1.13
74 3
75 7.53
76 1.45
77 3.33
78 1.23
80 1.56
81 6.18
82 1.02
83 2.67
85 1.09
86 1.07
99 1.54
101 10.87
105 1.12
107 7.25
108 1.59
109 5.15
125 3.9
126 3.85
127 99.99
128 52.42
129 3.68

>  <PREDICTED SPECTRUM>  (232) 
14 4
15 22
25 33
26 74
27 84
28 38
29 26
31 229
33 68
36 69
37 149
38 149
39 119
43 79
44 70
49 99
50 303
51 271
52 77
53 26
54 4
56 172
57 398
60 47
61 211
62 233
63 365
64 113
68 208
69 189
70 79
71 18
72 55
73 98
74 185
75 355
76 150
77 123
78 38
80 148
81 344
82 81
83 195
85 10
86 118
89 40
94 51
99 216
100 217
101 543
102 190
107 446
108 532
109 297
110 97
113 28
114 42
125 331
126 312
127 999
128 933
129 268
130 36

$$$$

     RDKit          2D

 15 15  0  0  0  0  0  0  0  0999 V2000
    1.3000    0.7500    0.0000 C   0  0  0  0  0  0  0  0  0  0  0  0
    0.0000    1.5000    0.0000 C   0  0  0  0  0  0  0  0  0  0  0  0
    1.3000   -0.7500    0.0000 C   0  0  0  0  0  0  0  0  0  0  0  0
   -1.3000    0.7500    0.0000 C   0  0  0  0  0  0  0  0  0  0  0  0
   -0.0000   -1.5000    0.0000 C   0  0  0  0  0  0  0  0  0  0  0  0
   -1.3000   -0.7500    0.0000 C   0  0  0  0  0  0  0  0  0  0  0  0
    2.5989    1.5002    0.0000 C   0  0  0  0  0  0  0  0  0  0  0  0
    0.0000    3.0000    0.0000 F   0  0  0  0  0  0  0  0  0  0  0  0
    2.5989   -1.5002    0.0000 F   0  0  0  0  0  0  0  0  0  0  0  0
   -2.5989    1.5002    0.0000 F   0  0  0  0  0  0  0  0  0  0  0  0
   -0.0000   -3.0000    0.0000 F   0  0  0  0  0  0  0  0  0  0  0  0
   -2.5989   -1.5002    0.0000 F   0  0  0  0  0  0  0  0  0  0  0  0
    3.3491    0.2013    0.0000 F   0  0  0  0  0  0  0  0  0  0  0  0
    3.8978    2.2504    0.0000 F   0  0  0  0  0  0  0  0  0  0  0  0
    1.8487    2.7991    0.0000 F   0  0  0  0  0  0  0  0  0  0  0  0
  2  1  2  0
  3  1  1  0
  4  2  1  0
  5  3  2  0
  6  4  2  0
  6  5  1  0
  7  1  1  0
  8  2  1  0
  9  3  1  0
 10  4  1  0
 11  5  1  0
 12  6  1  0
 13  7  1  0
 14  7  1  0
 15  7  1  0
M  END
>  <NAME>  (233) 
PERFLUOROTOLUENE

>  <SYNONYMS>  (233) 
OCTAFLUOROTOLUENE

>  <SPECTRUM TYPE>  (233) 
MS1

>  <INSTRUMENT TYPE>  (233) 
EI-B

>  <INSTRUMENT>  (233) 
HITACHI M-80A

>  <ION MODE>  (233) 
P

>  <INCHIKEY>  (233) 
USPWUOFNOTUBAD-UHFFFAOYSA-N

>  <FORMULA>  (233) 
C7F8

>  <EXACT MASS>  (233) 
235.98722576

>  <MW>  (233) 
236

>  <ID>  (233) 
JP011795

>  <CONTRIBUTOR>  (233) 
University of Tokyo Team, {Faculty of Engineering, University of Tokyo

>  <COMMENT>  (233) 
SMILES=Fc(c(F)1)c(F)c(c(F)c(F)1)C(F)(F)F
InChI=InChI=1S/C7F8/c8-2-1(7(13,14)15)3(9)5(11)6(12)4(2)10
computed SMILES=FC=1C(F)=C(F)C(=C(F)C1F)C(F)(F)F
accession=JP011795
date=2016.01.19 (Created 2008.10.21, modified 2011.05.06)
author=TAJIMA S, GUNMA COLLEGE OF TECHNOLOGY
license=CC BY-NC-SA
exact mass=235.98723
ionization energy=70 eV
ion type=[M]+*
computed spectral entropy=2.8784757738010036
computed normalized entropy=0.775123175771723
SPLASH=splash10-014i-9630000000-be76dc75e762f2f1cc94
submitter=submitter = University of Tokyo Team (Faculty of Engineering, University of Tokyo)
MoNA Rating=3.75

>  <NUM PEAKS>  (233) 
41

>  <MASS SPECTRAL PEAKS>  (233) 
19 1.42
31 65.57
43 3.47
50 8.07
55 8.5
60 1.91
62 1.54
67 1.64
69 87.71
74 16.46
79 37.16
80 1.8
86 11.1
91 1.59
93 45.25
94 1.28
98 40.88
99 2.25
105 3.3
108 2.06
110 8.67
117 99.99
118 5.81
122 1.35
124 3.79
129 8.93
136 2.75
141 2.76
148 19.2
149 1.46
155 2.23
167 21.6
168 1.54
179 4.68
186 55.23
187 3.47
198 1.21
217 89.17
218 7.18
236 31.35
237 2.48

>  <PREDICTED SPECTRUM>  (233) 
19 0
31 337
32 20
50 85
60 9
69 546
74 161
79 135
86 82
92 28
93 349
98 302
99 85
108 2
109 15
110 73
111 35
117 516
118 18
129 157
130 64
131 137
136 7
140 3
141 10
148 281
149 4
150 3
155 148
161 101
167 302
168 19
179 8
180 76
186 639
187 135
191 4
197 72
198 110
217 999
218 342
236 916
237 272

$$$$

     RDKit          2D

  7  6  0  0  0  0  0  0  0  0999 V2000
    1.2990    2.2500    0.0000 C   0  0  0  0  0  0  0  0  0  0  0  0
   -3.8971    2.2500    0.0000 C   0  0  0  0  0  0  0  0  0  0  0  0
   -0.0000    0.0000    0.0000 C   0  0  0  0  0  0  0  0  0  0  0  0
   -1.2990    2.2500    0.0000 B   0  0  0  0  0  0  0  0  0  0  0  0
    0.0000    3.0000    0.0000 O   0  0  0  0  0  0  0  0  0  0  0  0
   -2.5981    3.0000    0.0000 O   0  0  0  0  0  0  0  0  0  0  0  0
   -1.2990    0.7500    0.0000 O   0  0  0  0  0  0  0  0  0  0  0  0
  5  1  1  0
  5  4  1  0
  6  2  1  0
  6  4  1  0
  7  3  1  0
  7  4  1  0
M  END
>  <NAME>  (234) 
BORIC ACID TRIMETHYL ESTER

>  <SYNONYMS>  (234) 
TRIMETHYL BORATE

>  <SPECTRUM TYPE>  (234) 
MS1

>  <INSTRUMENT TYPE>  (234) 
EI-B

>  <INSTRUMENT>  (234) 
HITACHI M-80A

>  <ION MODE>  (234) 
P

>  <INCHIKEY>  (234) 
WRECIMRULFAWHA-UHFFFAOYSA-N

>  <FORMULA>  (234) 
C3H9BO3

>  <EXACT MASS>  (234) 
104.06447454799999

>  <MW>  (234) 
104

>  <ID>  (234) 
JP011794

>  <CONTRIBUTOR>  (234) 
University of Tokyo Team, {Faculty of Engineering, University of Tokyo

>  <COMMENT>  (234) 
SMILES=CO[B](OC)OC
InChI=InChI=1S/C3H9BO3/c1-5-4(6-2)7-3/h1-3H3
computed SMILES=O(B(OC)OC)C
accession=JP011794
date=2016.01.19 (Created 2008.10.21, modified 2011.05.06)
author=TAJIMA S, GUNMA COLLEGE OF TECHNOLOGY
license=CC BY-NC-SA
exact mass=104.06447
ionization energy=70 eV
ion type=[M]+*
computed spectral entropy=2.852466259547817
computed normalized entropy=0.8158044017932728
SPLASH=splash10-00fr-9000000000-4dfe09aa99b71dc3532e
submitter=submitter = University of Tokyo Team (Faculty of Engineering, University of Tokyo)
MoNA Rating=3.75

>  <NUM PEAKS>  (234) 
33

>  <MASS SPECTRAL PEAKS>  (234) 
13 1.59
14 14.31
15 54.53
16 4.42
27 3.06
28 2.83
29 79.11
30 9.47
31 16.79
39 1
40 2.73
41 5.14
42 18.7
43 47.72
44 3.26
45 6.86
55 1.11
56 9.44
57 38.14
58 13.08
59 28.64
71 5.46
72 43.41
73 99.99
74 2.62
86 2.75
87 10.54
88 4.64
89 14.28
102 1.06
103 11.85
104 31.64
105 1.69

>  <PREDICTED SPECTRUM>  (234) 
14 68
15 161
16 13
17 5
18 21
25 16
26 92
27 319
28 225
29 361
30 411
31 333
32 98
33 111
41 356
42 431
43 621
44 287
45 714
46 114
47 229
57 344
58 448
59 505
60 121
61 435
62 87
63 64
71 154
72 153
73 999
74 698
75 379
88 97
89 573
90 44
102 19
103 233
104 561
105 103

$$$$

     RDKit          2D

 10 10  0  0  0  0  0  0  0  0999 V2000
   -1.9500    0.7500    0.0000 C   0  0  0  0  0  0  0  0  0  0  0  0
   -1.9500   -0.7500    0.0000 C   0  0  0  0  0  0  0  0  0  0  0  0
   -0.6500    1.5000    0.0000 C   0  0  0  0  0  0  0  0  0  0  0  0
   -0.6500   -1.5000    0.0000 C   0  0  0  0  0  0  0  0  0  0  0  0
    0.6500    0.7500    0.0000 C   0  0  0  0  0  0  0  0  0  0  0  0
    0.6500   -0.7500    0.0000 C   0  0  0  0  0  0  0  0  0  0  0  0
    1.9489    1.5002    0.0000 C   0  0  0  0  0  0  0  0  0  0  0  0
    1.9489   -1.5002    0.0000 O   0  0  0  0  0  0  0  0  0  0  0  0
    3.2481    0.7504    0.0000 O   0  0  0  0  0  0  0  0  0  0  0  0
    1.9487    3.0002    0.0000 O   0  0  0  0  0  0  0  0  0  0  0  0
  2  1  2  0
  3  1  1  0
  4  2  1  0
  5  3  2  0
  6  4  2  0
  6  5  1  0
  7  5  1  0
  8  6  1  0
  9  7  2  0
 10  7  1  0
M  END
>  <NAME>  (235) 
SALICYLIC ACID

>  <SYNONYMS>  (235) 
ORTHO-HYDROXYBENZOIC ACID

>  <SPECTRUM TYPE>  (235) 
MS1

>  <INSTRUMENT TYPE>  (235) 
EI-B

>  <INSTRUMENT>  (235) 
HITACHI M-80A

>  <ION MODE>  (235) 
P

>  <INCHIKEY>  (235) 
YGSDEFSMJLZEOE-UHFFFAOYSA-N

>  <FORMULA>  (235) 
C7H6O3

>  <EXACT MASS>  (235) 
138.03169405199998

>  <MW>  (235) 
138

>  <ID>  (235) 
JP011792

>  <CONTRIBUTOR>  (235) 
University of Tokyo Team, {Faculty of Engineering, University of Tokyo

>  <COMMENT>  (235) 
SMILES=OC(=O)c(c1)c(O)ccc1
InChI=InChI=1S/C7H6O3/c8-6-4-2-1-3-5(6)7(9)10/h1-4,8H,(H,9,10)
computed SMILES=O=C(O)C=1C=CC=CC1O
accession=JP011792
date=2016.01.19 (Created 2008.10.21, modified 2011.05.06)
author=TAJIMA S, GUNMA COLLEGE OF TECHNOLOGY
license=CC BY-NC-SA
exact mass=138.03169
ionization energy=70 eV
ion type=[M]+*
computed spectral entropy=2.5308397914699134
computed normalized entropy=0.7369974437191764
SPLASH=splash10-00du-9700000000-e1e2ee6b61d86c596403
submitter=submitter = University of Tokyo Team (Faculty of Engineering, University of Tokyo)
MoNA Rating=3.75

>  <NUM PEAKS>  (235) 
31

>  <MASS SPECTRAL PEAKS>  (235) 
26 1.24
27 2.89
29 2.53
31 1.14
37 4.1
38 8.73
39 20.42
40 1.46
45 4.69
46 5.45
50 3.7
51 2.27
53 8.62
55 4.39
60 1.12
61 2.77
62 5.36
63 16.68
64 23.19
65 12.97
66 2.39
69 1.32
74 1.43
81 2.09
92 73.16
93 7.81
120 99.99
121 13.64
122 1.12
138 62.53
139 5.24

>  <PREDICTED SPECTRUM>  (235) 
17 24
25 21
26 95
27 99
28 69
29 92
31 53
36 72
37 173
38 264
39 411
40 151
41 53
42 76
43 76
44 77
45 200
46 7
49 78
50 253
51 241
52 254
53 332
54 87
55 65
56 3
58 62
61 114
62 144
63 359
64 395
65 405
66 199
74 114
75 141
76 181
77 154
81 48
91 92
92 757
93 369
94 51
105 197
119 199
120 999
121 429
122 62
138 771
139 228
140 59

$$$$

     RDKit          2D

  9  9  0  0  0  0  0  0  0  0999 V2000
    0.9719   -2.0515    0.0000 C   0  0  0  0  0  0  0  0  0  0  0  0
    2.2664   -1.3093    0.0000 C   0  0  0  0  0  0  0  0  0  0  0  0
   -0.3272   -1.3015    0.0000 C   0  0  0  0  0  0  0  0  0  0  0  0
    2.2669    0.1916    0.0000 C   0  0  0  0  0  0  0  0  0  0  0  0
   -1.6320    0.9385    0.0000 C   0  0  0  0  0  0  0  0  0  0  0  0
   -0.3317    0.1907    0.0000 C   0  0  0  0  0  0  0  0  0  0  0  0
    0.9678    0.9416    0.0000 C   0  0  0  0  0  0  0  0  0  0  0  0
    0.9676    2.4416    0.0000 F   0  0  0  0  0  0  0  0  0  0  0  0
   -2.9297    0.1864    0.0000 O   0  0  0  0  0  0  0  0  0  0  0  0
  2  1  2  0
  3  1  1  0
  4  2  1  0
  6  3  2  0
  6  5  1  0
  7  4  2  0
  7  6  1  0
  8  7  1  0
  9  5  2  0
M  END
>  <NAME>  (236) 
ORTHO-FLUOROBENZALDEHYDE

>  <SYNONYMS>  (236) 
2-FLUOROBENZALDEHYDE

>  <SPECTRUM TYPE>  (236) 
MS1

>  <INSTRUMENT TYPE>  (236) 
EI-B

>  <INSTRUMENT>  (236) 
HITACHI M-80A

>  <ION MODE>  (236) 
P

>  <INCHIKEY>  (236) 
ZWDVQMVZZYIAHO-UHFFFAOYSA-N

>  <FORMULA>  (236) 
C7H5FO

>  <EXACT MASS>  (236) 
124.032443

>  <MW>  (236) 
124

>  <ID>  (236) 
JP011791

>  <CONTRIBUTOR>  (236) 
University of Tokyo Team, {Faculty of Engineering, University of Tokyo

>  <COMMENT>  (236) 
SMILES=O=Cc(c1)c(F)ccc1
InChI=InChI=1S/C7H5FO/c8-7-4-2-1-3-6(7)5-9/h1-5H
computed SMILES=O=CC=1C=CC=CC1F
accession=JP011791
date=2016.01.19 (Created 2008.10.21, modified 2011.05.06)
author=TAJIMA S, GUNMA COLLEGE OF TECHNOLOGY
license=CC BY-NC-SA
exact mass=124.03244
ionization energy=70 eV
ion type=[M]+*
computed spectral entropy=2.299857314222932
computed normalized entropy=0.682998296063631
SPLASH=splash10-00di-6900000000-a32d07f8e13c7ee20a7e
submitter=submitter = University of Tokyo Team (Faculty of Engineering, University of Tokyo)
MoNA Rating=3.75

>  <NUM PEAKS>  (236) 
29

>  <MASS SPECTRAL PEAKS>  (236) 
29 4.3
31 1.27
37 1.85
38 1.7
39 2.49
43 1.18
49 1.45
50 10.16
51 4.78
57 2.27
61 1.69
62 2.08
63 2.32
68 3.86
69 6.19
70 6.77
73 1.36
74 6.41
75 18.21
76 4.28
77 1.26
92 1.14
93 1.3
94 3.57
95 42.84
96 11.29
123 99.99
124 82.48
125 8.29

>  <PREDICTED SPECTRUM>  (236) 
14 7
16 1
17 32
19 2
25 36
26 64
27 61
28 81
29 261
30 44
31 253
32 4
33 46
36 21
37 150
38 177
39 156
40 30
41 20
44 57
46 36
47 14
48 149
49 170
50 348
51 291
52 112
53 26
56 104
57 320
58 13
60 70
61 248
62 303
63 408
64 121
65 62
68 262
69 251
70 198
73 76
74 243
75 381
76 236
77 183
78 35
79 11
80 32
81 256
85 37
86 76
87 19
88 20
92 132
93 118
94 275
95 673
96 338
103 80
105 89
106 53
107 10
121 29
122 52
123 999
124 852
125 259
126 56

$$$$

     RDKit          2D

  9  9  0  0  0  0  0  0  0  0999 V2000
    3.5724   -0.9375    0.0000 C   0  0  0  0  0  0  0  0  0  0  0  0
   -1.6243   -0.9383    0.0000 C   0  0  0  0  0  0  0  0  0  0  0  0
   -0.3243    1.3133    0.0000 C   0  0  0  0  0  0  0  0  0  0  0  0
   -0.3252   -1.6883    0.0000 C   0  0  0  0  0  0  0  0  0  0  0  0
    0.9748    0.5633    0.0000 C   0  0  0  0  0  0  0  0  0  0  0  0
   -1.6238    0.5625    0.0000 C   0  0  0  0  0  0  0  0  0  0  0  0
    0.9743   -0.9375    0.0000 C   0  0  0  0  0  0  0  0  0  0  0  0
   -2.9228    1.3125    0.0000 O   0  0  0  0  0  0  0  0  0  0  0  0
    2.2733   -1.6875    0.0000 O   0  0  0  0  0  0  0  0  0  0  0  0
  4  2  2  0
  5  3  1  0
  6  2  1  0
  6  3  2  0
  7  4  1  0
  7  5  2  0
  8  6  1  0
  9  1  1  0
  9  7  1  0
M  END
>  <NAME>  (237) 
PARA-METHOXYPHENOL

>  <SYNONYMS>  (237) 
4-METHOXYPHENOL

>  <SPECTRUM TYPE>  (237) 
MS1

>  <INSTRUMENT TYPE>  (237) 
EI-B

>  <INSTRUMENT>  (237) 
HITACHI M-80A

>  <ION MODE>  (237) 
P

>  <INCHIKEY>  (237) 
NWVVVBRKAWDGAB-UHFFFAOYSA-N

>  <FORMULA>  (237) 
C7H8O2

>  <EXACT MASS>  (237) 
124.052429496

>  <MW>  (237) 
124

>  <ID>  (237) 
JP011790

>  <CONTRIBUTOR>  (237) 
University of Tokyo Team, {Faculty of Engineering, University of Tokyo

>  <COMMENT>  (237) 
SMILES=COc(c1)ccc(O)c1
InChI=InChI=1S/C7H8O2/c1-9-7-4-2-6(8)3-5-7/h2-5,8H,1H3
computed SMILES=OC1=CC=C(OC)C=C1
accession=JP011790
date=2016.01.19 (Created 2008.10.21, modified 2011.05.06)
author=TAJIMA S, GUNMA COLLEGE OF TECHNOLOGY
license=CC BY-NC-SA
exact mass=124.05243
ionization energy=70 eV
ion type=[M]+*
computed spectral entropy=1.9672724413792224
computed normalized entropy=0.6190179733877691
SPLASH=splash10-05fr-3900000000-5f100d415313d60a9ba0
submitter=submitter = University of Tokyo Team (Faculty of Engineering, University of Tokyo)
MoNA Rating=3.75

>  <NUM PEAKS>  (237) 
24

>  <MASS SPECTRAL PEAKS>  (237) 
26 1.03
27 1.98
29 1.43
38 1.41
39 4.48
41 1.12
50 2.14
51 3.12
52 3.77
53 11.79
54 3.31
55 2.67
64 1.41
65 4.32
80 1.19
81 34.47
82 2.57
93 1.51
95 1.93
109 90.07
110 6.04
123 2.39
124 99.99
125 8.01

>  <PREDICTED SPECTRUM>  (237) 
14 12
15 61
25 11
26 66
27 84
28 30
29 95
37 32
38 92
39 257
41 217
42 11
50 168
51 258
52 276
53 349
54 178
55 90
62 77
63 181
64 173
65 186
66 88
67 119
68 17
69 38
77 139
78 39
79 68
80 148
81 470
82 169
83 33
92 100
93 102
94 155
95 358
96 25
108 24
109 791
110 295
123 149
124 999
125 273
126 45

$$$$

     RDKit          2D

  9  9  0  0  0  0  0  0  0  0999 V2000
   -3.2458   -0.3738    0.0000 C   0  0  0  0  0  0  0  0  0  0  0  0
    0.6473    1.8688    0.0000 C   0  0  0  0  0  0  0  0  0  0  0  0
    1.9463    1.1188    0.0000 C   0  0  0  0  0  0  0  0  0  0  0  0
   -0.6473    1.1266    0.0000 C   0  0  0  0  0  0  0  0  0  0  0  0
    0.6513   -1.1242    0.0000 C   0  0  0  0  0  0  0  0  0  0  0  0
    1.9508   -0.3734    0.0000 C   0  0  0  0  0  0  0  0  0  0  0  0
   -0.6477   -0.3742    0.0000 C   0  0  0  0  0  0  0  0  0  0  0  0
    3.2511   -1.1212    0.0000 O   0  0  0  0  0  0  0  0  0  0  0  0
   -1.9469   -1.1240    0.0000 O   0  0  0  0  0  0  0  0  0  0  0  0
  3  2  2  0
  4  2  1  0
  6  3  1  0
  6  5  2  0
  7  4  2  0
  7  5  1  0
  8  6  1  0
  9  1  1  0
  9  7  1  0
M  END
>  <NAME>  (238) 
META-METHOXYPHENOL

>  <SYNONYMS>  (238) 
3-METHOXYPHENOL

>  <SPECTRUM TYPE>  (238) 
MS1

>  <INSTRUMENT TYPE>  (238) 
EI-B

>  <INSTRUMENT>  (238) 
HITACHI M-80A

>  <ION MODE>  (238) 
P

>  <INCHIKEY>  (238) 
ASHGTJPOSUFTGB-UHFFFAOYSA-N

>  <FORMULA>  (238) 
C7H8O2

>  <EXACT MASS>  (238) 
124.052429496

>  <MW>  (238) 
124

>  <ID>  (238) 
JP011789

>  <CONTRIBUTOR>  (238) 
University of Tokyo Team, {Faculty of Engineering, University of Tokyo

>  <COMMENT>  (238) 
SMILES=COc(c1)cc(O)cc1
InChI=InChI=1S/C7H8O2/c1-9-7-4-2-3-6(8)5-7/h2-5,8H,1H3
computed SMILES=OC1=CC=CC(OC)=C1
accession=JP011789
date=2016.01.19 (Created 2008.10.21, modified 2011.05.06)
author=TAJIMA S, GUNMA COLLEGE OF TECHNOLOGY
license=CC BY-NC-SA
exact mass=124.05243
ionization energy=70 eV
ion type=[M]+*
computed spectral entropy=2.6637481170504453
computed normalized entropy=0.7270924783985961
SPLASH=splash10-00di-9700000000-3ad15a062ac324441080
submitter=submitter = University of Tokyo Team (Faculty of Engineering, University of Tokyo)
MoNA Rating=3.75

>  <NUM PEAKS>  (238) 
39

>  <MASS SPECTRAL PEAKS>  (238) 
15 1.02
27 1.68
29 1.48
38 1.8
39 4.32
41 1.5
42 1.75
43 17.61
50 2.19
51 2.93
52 3.3
53 7.21
55 2.47
58 10.28
62 2.42
63 3.51
64 1.78
65 5.13
66 5.59
67 1.08
68 1.16
69 2.93
77 2.08
78 1.07
79 1.19
80 1.45
81 22.84
82 1.54
93 2.73
94 29.26
95 16.72
96 1.31
108 1
109 21.18
110 1.62
123 2.61
124 99.99
125 8.11
138 1.23

>  <PREDICTED SPECTRUM>  (238) 
14 10
15 48
25 10
26 51
27 76
28 14
29 50
37 39
38 108
39 230
40 14
41 118
49 2
50 214
51 316
52 243
53 291
54 69
55 104
61 7
62 131
63 276
64 161
65 252
66 82
67 38
68 9
69 124
74 94
75 57
76 56
77 250
78 150
79 97
80 91
81 547
82 126
92 119
93 154
94 259
95 393
96 168
97 59
107 22
108 48
109 460
110 132
111 0
123 386
124 999
125 286
126 48

$$$$

     RDKit          2D

  9  9  0  0  0  0  0  0  0  0999 V2000
    3.5681    0.1904    0.0000 C   0  0  0  0  0  0  0  0  0  0  0  0
   -1.6200   -1.3100    0.0000 C   0  0  0  0  0  0  0  0  0  0  0  0
   -0.3300   -2.0600    0.0000 C   0  0  0  0  0  0  0  0  0  0  0  0
   -1.6200    0.1900    0.0000 C   0  0  0  0  0  0  0  0  0  0  0  0
    0.9700   -1.3100    0.0000 C   0  0  0  0  0  0  0  0  0  0  0  0
   -0.3300    0.9400    0.0000 C   0  0  0  0  0  0  0  0  0  0  0  0
    0.9700    0.1900    0.0000 C   0  0  0  0  0  0  0  0  0  0  0  0
   -0.3325    2.4400    0.0000 O   0  0  0  0  0  0  0  0  0  0  0  0
    2.2689    0.9402    0.0000 O   0  0  0  0  0  0  0  0  0  0  0  0
  3  2  2  0
  4  2  1  0
  5  3  1  0
  6  4  2  0
  7  5  2  0
  7  6  1  0
  8  6  1  0
  9  1  1  0
  9  7  1  0
M  END
>  <NAME>  (239) 
ORTHO-METHOXYPHENOL

>  <SYNONYMS>  (239) 
2-METHOXYPHENOL

>  <SPECTRUM TYPE>  (239) 
MS1

>  <INSTRUMENT TYPE>  (239) 
EI-B

>  <INSTRUMENT>  (239) 
HITACHI M-80A

>  <ION MODE>  (239) 
P

>  <INCHIKEY>  (239) 
LHGVFZTZFXWLCP-UHFFFAOYSA-N

>  <FORMULA>  (239) 
C7H8O2

>  <EXACT MASS>  (239) 
124.052429496

>  <MW>  (239) 
124

>  <ID>  (239) 
JP011788

>  <CONTRIBUTOR>  (239) 
University of Tokyo Team, {Faculty of Engineering, University of Tokyo

>  <COMMENT>  (239) 
SMILES=COc(c1)c(O)ccc1
InChI=InChI=1S/C7H8O2/c1-9-7-5-3-2-4-6(7)8/h2-5,8H,1H3
computed SMILES=OC=1C=CC=CC1OC
accession=JP011788
date=2016.01.19 (Created 2008.10.21, modified 2011.05.06)
author=TAJIMA S, GUNMA COLLEGE OF TECHNOLOGY
license=CC BY-NC-SA
exact mass=124.05243
ionization energy=70 eV
ion type=[M]+*
computed spectral entropy=2.005502609703134
computed normalized entropy=0.6155442560707546
SPLASH=splash10-05fr-4900000000-c09a31d9523d2eab5598
submitter=submitter = University of Tokyo Team (Faculty of Engineering, University of Tokyo)
MoNA Rating=3.75

>  <NUM PEAKS>  (239) 
26

>  <MASS SPECTRAL PEAKS>  (239) 
27 1.4
28 1.63
29 1.07
38 1.27
39 3.14
50 2.96
51 4.24
52 5.25
53 7.9
55 1.72
62 1.85
63 3.74
64 1.48
65 4.07
66 1.02
77 2.6
79 1.18
80 1.62
81 40.43
82 2.48
95 2.02
109 90.36
110 6.33
123 1.4
124 99.99
125 8.22

>  <PREDICTED SPECTRUM>  (239) 
14 33
15 100
25 25
26 98
27 168
28 46
29 99
31 1
37 71
38 156
39 310
40 54
41 225
42 94
49 67
50 232
51 352
52 321
53 430
54 175
55 145
61 76
62 111
63 201
64 105
65 232
66 149
67 142
69 60
70 24
74 71
75 48
76 45
77 200
78 139
79 147
80 48
81 727
82 256
83 32
91 95
92 69
93 177
94 188
95 308
96 56
97 24
107 16
108 22
109 821
110 259
111 31
123 82
124 999
125 294
126 31

$$$$

     RDKit          2D

  5  4  0  0  0  0  0  0  0  0999 V2000
   -1.2990    0.7500    0.0000 C   0  0  0  0  0  0  0  0  0  0  0  0
    0.7500    0.2010    0.0000 C   0  0  0  0  0  0  0  0  0  0  0  0
    1.2990    2.2500    0.0000 C   0  0  0  0  0  0  0  0  0  0  0  0
   -0.7500    2.7990    0.0000 Cl  0  0  0  0  0  0  0  0  0  0  0  0
    0.0000    1.5000    0.0000 Si  0  0  0  0  0  4  0  0  0  0  0  0
  5  1  1  0
  5  2  1  0
  5  3  1  0
  5  4  1  0
M  END
>  <NAME>  (240) 
TRIMETHYLCHLOROSILANE

>  <SYNONYMS>  (240) 


>  <SPECTRUM TYPE>  (240) 
MS1

>  <INSTRUMENT TYPE>  (240) 
EI-B

>  <INSTRUMENT>  (240) 
HITACHI M-80A

>  <ION MODE>  (240) 
P

>  <INCHIKEY>  (240) 
IJOOHPMOJXWVHK-UHFFFAOYSA-N

>  <FORMULA>  (240) 
C3H9ClSi

>  <EXACT MASS>  (240) 
108.016204498

>  <MW>  (240) 
108

>  <ID>  (240) 
JP011787

>  <CONTRIBUTOR>  (240) 
University of Tokyo Team, {Faculty of Engineering, University of Tokyo

>  <COMMENT>  (240) 
SMILES=C[Si](C)(C)Cl
InChI=InChI=1S/C3H9ClSi/c1-5(2,3)4/h1-3H3
computed SMILES=Cl[Si](C)(C)C
accession=JP011787
date=2016.01.19 (Created 2008.10.21, modified 2011.05.06)
author=TAJIMA S, GUNMA COLLEGE OF TECHNOLOGY
license=CC BY-NC-SA
exact mass=108.0162
ionization energy=70 eV
ion type=[M]+*
computed spectral entropy=1.8619187637338013
computed normalized entropy=0.6441796833390904
SPLASH=splash10-0006-9000000000-8e86a7f30d7033195a51
submitter=submitter = University of Tokyo Team (Faculty of Engineering, University of Tokyo)
MoNA Rating=3.75

>  <NUM PEAKS>  (240) 
18

>  <MASS SPECTRAL PEAKS>  (240) 
63 6.22
65 6.1
67 1.71
72 1.32
73 26.79
74 2.37
75 1.16
77 1.59
78 2.25
79 2.89
92 1.4
93 99.99
94 8.33
95 37.79
96 2.68
97 1.2
108 10.22
110 3.84

>  <PREDICTED SPECTRUM>  (240) 
14 18
15 82
26 20
27 12
29 139
31 13
38 13
39 31
40 14
41 35
42 109
43 347
44 65
45 197
49 16
50 58
51 65
52 41
53 96
54 27
55 133
57 290
58 168
59 248
60 52
63 184
64 71
65 285
66 75
67 196
69 3
73 412
74 111
77 194
79 193
80 32
81 101
91 17
93 999
94 292
95 584
96 158
107 31
108 389
109 187
110 150
111 17

$$$$

     RDKit          2D

 14 14  0  0  0  0  0  0  0  0999 V2000
    5.2126   -1.5201    0.0000 C   0  0  0  0  0  0  0  0  0  0  0  0
   -5.1930    1.4859    0.0000 C   0  0  0  0  0  0  0  0  0  0  0  0
   -0.0006    1.4667    0.0000 C   0  0  0  0  0  0  0  0  0  0  0  0
   -1.3141   -0.7581    0.0000 C   0  0  0  0  0  0  0  0  0  0  0  0
    1.2839    0.7419    0.0000 C   0  0  0  0  0  0  0  0  0  0  0  0
    0.0104   -1.5522    0.0000 C   0  0  0  0  0  0  0  0  0  0  0  0
    3.9074   -0.7808    0.0000 C   0  0  0  0  0  0  0  0  0  0  0  0
   -1.2996    0.7167    0.0000 C   0  0  0  0  0  0  0  0  0  0  0  0
    1.3094   -0.8022    0.0000 C   0  0  0  0  0  0  0  0  0  0  0  0
   -2.5950    1.4731    0.0000 C   0  0  0  0  0  0  0  0  0  0  0  0
    3.8950    0.7191    0.0000 O   0  0  0  0  0  0  0  0  0  0  0  0
   -2.5876    2.9731    0.0000 O   0  0  0  0  0  0  0  0  0  0  0  0
   -3.8977    0.7295    0.0000 O   0  0  0  0  0  0  0  0  0  0  0  0
    2.6146   -1.5415    0.0000 O   0  0  0  0  0  0  0  0  0  0  0  0
  5  3  2  0
  6  4  1  0
  7  1  1  0
  8  3  1  0
  8  4  2  0
  9  5  1  0
  9  6  2  0
 10  8  1  0
 11  7  2  0
 12 10  2  0
 13  2  1  0
 13 10  1  0
 14  7  1  0
 14  9  1  0
M  END
>  <NAME>  (241) 
PARA-ACETOXYBENZOIC ACID METHYL ESTER

>  <SYNONYMS>  (241) 
METHYL PARA-ACETOXYBENZOATE

>  <SPECTRUM TYPE>  (241) 
MS1

>  <INSTRUMENT TYPE>  (241) 
EI-B

>  <INSTRUMENT>  (241) 
HITACHI M-80A

>  <ION MODE>  (241) 
P

>  <INCHIKEY>  (241) 
PGJQPLVEUVHSFQ-UHFFFAOYSA-N

>  <FORMULA>  (241) 
C10H10O4

>  <EXACT MASS>  (241) 
194.0579088

>  <MW>  (241) 
194

>  <ID>  (241) 
JP011786

>  <CONTRIBUTOR>  (241) 
University of Tokyo Team, {Faculty of Engineering, University of Tokyo

>  <COMMENT>  (241) 
SMILES=COC(=O)c(c1)ccc(OC(C)=O)c1
InChI=InChI=1S/C10H10O4/c1-7(11)14-9-5-3-8(4-6-9)10(12)13-2/h3-6H,1-2H3
computed SMILES=O=C(OC)C1=CC=C(OC(=O)C)C=C1
accession=JP011786
date=2016.01.19 (Created 2008.10.21, modified 2011.05.06)
author=TAJIMA S, GUNMA COLLEGE OF TECHNOLOGY
license=CC BY-NC-SA
exact mass=194.05791
ionization energy=70 eV
ion type=[M]+*
computed spectral entropy=2.353736123940634
computed normalized entropy=0.6791446867140726
SPLASH=splash10-0fk9-4900000000-c4d17a834af0dc264242
submitter=submitter = University of Tokyo Team (Faculty of Engineering, University of Tokyo)
MoNA Rating=3.75

>  <NUM PEAKS>  (241) 
32

>  <MASS SPECTRAL PEAKS>  (241) 
15 1.85
29 1.03
38 3.1
39 4.92
41 1.14
42 1.36
43 36.02
50 1.57
51 1.03
52 1.01
53 1.36
62 2.04
63 6.88
64 5.54
65 10.48
66 1.37
75 1.18
77 1.03
92 5.24
93 8.15
95 1.89
120 2.01
121 99.99
122 8.17
123 2.91
135 1.09
151 2.67
152 57.68
153 5.01
163 3.17
194 10.86
195 1.88

>  <PREDICTED SPECTRUM>  (241) 
14 33
15 136
16 12
26 53
27 103
28 36
29 89
31 47
32 21
33 18
36 8
37 66
38 146
39 239
40 48
41 137
42 65
43 369
44 91
45 11
49 3
50 170
51 196
52 150
53 166
54 19
55 56
59 125
60 19
61 105
62 130
63 275
64 234
65 336
66 142
67 67
68 15
69 54
74 100
75 76
76 134
77 205
78 110
79 135
80 111
81 169
82 56
83 15
90 30
91 139
92 281
93 323
94 194
95 193
96 39
97 22
98 8
103 45
104 52
105 125
106 76
107 115
108 34
109 70
110 15
119 153
120 228
121 999
122 374
123 172
124 74
133 17
135 43
137 55
151 159
152 736
153 294
154 7
163 234
164 51
194 272
195 95

$$$$

     RDKit          2D

 10 10  0  0  0  0  0  0  0  0999 V2000
   -0.6496    1.8749    0.0000 C   0  0  0  0  0  0  0  0  0  0  0  0
    3.2480   -0.3742    0.0000 C   0  0  0  0  0  0  0  0  0  0  0  0
    3.2475   -1.8751    0.0000 C   0  0  0  0  0  0  0  0  0  0  0  0
    1.9489    0.3758    0.0000 C   0  0  0  0  0  0  0  0  0  0  0  0
    1.9480   -2.6259    0.0000 C   0  0  0  0  0  0  0  0  0  0  0  0
   -0.6496    0.3749    0.0000 C   0  0  0  0  0  0  0  0  0  0  0  0
    0.6494   -0.3751    0.0000 C   0  0  0  0  0  0  0  0  0  0  0  0
    0.6489   -1.8759    0.0000 C   0  0  0  0  0  0  0  0  0  0  0  0
   -0.6502   -2.6257    0.0000 Br  0  0  0  0  0  0  0  0  0  0  0  0
   -1.9486   -0.3751    0.0000 O   0  0  0  0  0  0  0  0  0  0  0  0
  3  2  2  0
  4  2  1  0
  5  3  1  0
  6  1  1  0
  7  4  2  0
  7  6  1  0
  8  5  2  0
  8  7  1  0
  9  8  1  0
 10  6  2  0
M  END
>  <NAME>  (242) 
2-BROMOACETOPHENONE

>  <SYNONYMS>  (242) 


>  <SPECTRUM TYPE>  (242) 
MS1

>  <INSTRUMENT TYPE>  (242) 
EI-B

>  <INSTRUMENT>  (242) 
HITACHI M-80A

>  <ION MODE>  (242) 
P

>  <INCHIKEY>  (242) 
PIMNFNXBTGPCIL-UHFFFAOYSA-N

>  <FORMULA>  (242) 
C8H7BrO

>  <EXACT MASS>  (242) 
197.968026944

>  <MW>  (242) 
198

>  <ID>  (242) 
JP011785

>  <CONTRIBUTOR>  (242) 
University of Tokyo Team, {Faculty of Engineering, University of Tokyo

>  <COMMENT>  (242) 
SMILES=CC(=O)c(c1)c(Br)ccc1
InChI=InChI=1S/C8H7BrO/c1-6(10)7-4-2-3-5-8(7)9/h2-5H,1H3
computed SMILES=O=C(C=1C=CC=CC1Br)C
accession=JP011785
date=2016.01.19 (Created 2008.10.21, modified 2011.05.06)
author=TAJIMA S, GUNMA COLLEGE OF TECHNOLOGY
license=CC BY-NC-SA
exact mass=197.96803
ionization energy=70 eV
ion type=[M]+*
computed spectral entropy=2.5543924150412973
computed normalized entropy=0.784013728639386
SPLASH=splash10-0540-2900000000-21baa4fdb97d255c142b
submitter=submitter = University of Tokyo Team (Faculty of Engineering, University of Tokyo)
MoNA Rating=3.75

>  <NUM PEAKS>  (242) 
26

>  <MASS SPECTRAL PEAKS>  (242) 
38 2.42
39 2.18
43 16.89
50 14.3
51 5.42
63 3.08
74 8.75
75 16.4
76 18.29
77 7.97
89 2.56
91 2.1
104 3.3
105 2.94
155 31.43
156 3.3
157 30.27
158 3.38
183 99.99
184 7.67
185 97.59
186 8.07
198 30.27
199 2.74
200 28.79
201 2.88

>  <PREDICTED SPECTRUM>  (242) 
14 41
15 146
16 17
26 17
27 9
28 6
29 42
31 5
36 2
37 143
38 201
39 181
40 71
41 61
42 102
43 662
44 139
45 149
46 11
47 0
49 122
50 607
51 426
52 99
53 175
57 5
58 35
59 28
61 167
62 125
63 276
64 183
65 86
66 18
69 74
70 4
73 160
74 532
75 761
76 675
77 401
78 94
79 98
81 29
85 34
86 97
87 6
89 263
90 94
91 167
92 166
99 10
101 63
102 156
103 158
104 270
105 136
106 6
117 60
118 71
119 620
120 214
121 42
127 78
129 74
130 38
131 54
154 36
155 616
156 111
157 489
158 105
169 12
183 930
184 259
185 999
186 345
197 71
198 582
199 275
200 621
201 188

$$$$

     RDKit          2D

 11 11  0  0  0  0  0  0  0  0999 V2000
    1.5257    1.9053    0.0000 C   0  0  0  0  0  0  0  0  0  0  0  0
    0.2121   -0.3195    0.0000 C   0  0  0  0  0  0  0  0  0  0  0  0
    2.8102    1.1805    0.0000 C   0  0  0  0  0  0  0  0  0  0  0  0
    1.5366   -1.1137    0.0000 C   0  0  0  0  0  0  0  0  0  0  0  0
    0.2266    1.1553    0.0000 C   0  0  0  0  0  0  0  0  0  0  0  0
    2.8357   -0.3637    0.0000 C   0  0  0  0  0  0  0  0  0  0  0  0
   -1.0687    1.9117    0.0000 C   0  0  0  0  0  0  0  0  0  0  0  0
   -0.3123    3.2070    0.0000 F   0  0  0  0  0  0  0  0  0  0  0  0
   -2.3640    2.6681    0.0000 F   0  0  0  0  0  0  0  0  0  0  0  0
   -1.8251    0.6164    0.0000 F   0  0  0  0  0  0  0  0  0  0  0  0
    4.1409   -1.1029    0.0000 O   0  0  0  0  0  0  0  0  0  0  0  0
  3  1  2  0
  4  2  1  0
  5  1  1  0
  5  2  2  0
  6  3  1  0
  6  4  2  0
  7  5  1  0
  8  7  1  0
  9  7  1  0
 10  7  1  0
 11  6  1  0
M  END
>  <NAME>  (243) 
2,2,2-TRIFLUORO-PARA-CRESOL

>  <SYNONYMS>  (243) 
PARA-HYDROXYBENZOTRIFLUORIDE

>  <SPECTRUM TYPE>  (243) 
MS1

>  <INSTRUMENT TYPE>  (243) 
EI-B

>  <INSTRUMENT>  (243) 
HITACHI RMU-7M

>  <ION MODE>  (243) 
P

>  <INCHIKEY>  (243) 
BAYGVMXZJBFEMB-UHFFFAOYSA-N

>  <FORMULA>  (243) 
C7H5F3O

>  <EXACT MASS>  (243) 
162.02924944

>  <MW>  (243) 
162

>  <ID>  (243) 
JP011784

>  <CONTRIBUTOR>  (243) 
University of Tokyo Team, {Faculty of Engineering, University of Tokyo

>  <COMMENT>  (243) 
SMILES=Oc(c1)ccc(c1)C(F)(F)F
InChI=InChI=1S/C7H5F3O/c8-7(9,10)5-1-3-6(11)4-2-5/h1-4,11H
computed SMILES=FC(F)(F)C1=CC=C(O)C=C1
accession=JP011784
date=2016.01.19 (Created 2008.10.21, modified 2011.05.06)
author=TAJIMA S, GUNMA COLLEGE OF TECHNOLOGY
license=CC BY-NC-SA
exact mass=162.02925
ionization energy=70 eV
ion type=[M]+*
computed spectral entropy=2.838862547711275
computed normalized entropy=0.7595274161805409
SPLASH=splash10-03di-3900000000-e1eb24e4633874ece248
submitter=submitter = University of Tokyo Team (Faculty of Engineering, University of Tokyo)
MoNA Rating=3.75

>  <NUM PEAKS>  (243) 
42

>  <MASS SPECTRAL PEAKS>  (243) 
27 1.73
29 3.27
31 1.73
36 2.89
37 5.97
38 12.13
39 2.12
40 1.54
42 2.5
50 4.43
51 2.5
53 3.65
55 1.73
56 1.54
57 6.35
61 1.93
62 3.47
63 9.24
64 2.7
65 6.16
69 2.89
71 1.54
71.5 1.34
74 1.35
75 3.85
81 2.5
83 5.78
84 2.5
112 24.46
113 6.1
114 8.28
115 1.93
133 4.04
141 6.55
142 2.7
143 48.14
144 4.24
145 2.7
154 2.69
161 8.09
162 99.99
163 8.47

>  <PREDICTED SPECTRUM>  (243) 
14 28
15 23
16 16
17 10
19 47
25 39
26 105
27 105
28 107
29 177
30 11
31 199
32 23
33 51
35 5
36 48
37 195
38 268
39 325
40 106
41 68
42 24
43 134
44 73
45 27
46 66
47 66
49 70
50 354
51 294
52 149
53 159
54 61
55 61
56 152
57 477
58 33
61 109
62 192
63 407
64 262
65 251
66 75
67 67
68 60
69 405
73 111
74 141
75 398
76 127
77 17
80 112
81 214
82 115
83 409
84 94
85 34
87 6
88 107
89 52
92 128
93 340
94 222
95 165
96 152
97 6
99 58
100 78
106 18
111 59
112 109
113 407
114 302
115 134
116 37
123 96
132 165
133 345
134 89
141 133
142 142
143 501
144 184
145 323
161 36
162 999
163 292
164 46

$$$$

     RDKit          2D

  9  9  0  0  0  0  0  0  0  0999 V2000
   -2.5989   -0.7504    0.0000 C   0  0  0  0  0  0  0  0  0  0  0  0
    2.5992   -0.7500    0.0000 C   0  0  0  0  0  0  0  0  0  0  0  0
    1.2992    1.5000    0.0000 C   0  0  0  0  0  0  0  0  0  0  0  0
    1.2992   -1.5000    0.0000 C   0  0  0  0  0  0  0  0  0  0  0  0
   -0.0008    0.7500    0.0000 C   0  0  0  0  0  0  0  0  0  0  0  0
    2.5992    0.7500    0.0000 C   0  0  0  0  0  0  0  0  0  0  0  0
   -0.0008   -0.7500    0.0000 C   0  0  0  0  0  0  0  0  0  0  0  0
    3.8981    1.5002    0.0000 Br  0  0  0  0  0  0  0  0  0  0  0  0
   -1.2998   -1.5002    0.0000 O   0  0  0  0  0  0  0  0  0  0  0  0
  4  2  2  0
  5  3  1  0
  6  2  1  0
  6  3  2  0
  7  4  1  0
  7  5  2  0
  8  6  1  0
  9  1  1  0
  9  7  1  0
M  END
>  <NAME>  (244) 
PARA-BROMOANISOLE

>  <SYNONYMS>  (244) 
4-METHOXYBROMOBENZENE

>  <SPECTRUM TYPE>  (244) 
MS1

>  <INSTRUMENT TYPE>  (244) 
EI-B

>  <INSTRUMENT>  (244) 
HITACHI M-80A

>  <ION MODE>  (244) 
P

>  <INCHIKEY>  (244) 
QJPJQTDYNZXKQF-UHFFFAOYSA-N

>  <FORMULA>  (244) 
C7H7BrO

>  <EXACT MASS>  (244) 
185.968026944

>  <MW>  (244) 
186

>  <ID>  (244) 
JP011783

>  <CONTRIBUTOR>  (244) 
University of Tokyo Team, {Faculty of Engineering, University of Tokyo

>  <COMMENT>  (244) 
SMILES=COc(c1)ccc(Br)c1
InChI=InChI=1S/C7H7BrO/c1-9-7-4-2-6(8)3-5-7/h2-5H,1H3
computed SMILES=BrC1=CC=C(OC)C=C1
accession=JP011783
date=2016.01.19 (Created 2008.10.21, modified 2011.05.06)
author=TAJIMA S, GUNMA COLLEGE OF TECHNOLOGY
license=CC BY-NC-SA
exact mass=185.96803
ionization energy=70 eV
ion type=[M]+*
computed spectral entropy=2.957278800140117
computed normalized entropy=0.8129783516557473
SPLASH=splash10-000i-4900000000-fe8bbaa73b4cfc3543c3
submitter=submitter = University of Tokyo Team (Faculty of Engineering, University of Tokyo)
MoNA Rating=3.75

>  <NUM PEAKS>  (244) 
38

>  <MASS SPECTRAL PEAKS>  (244) 
15 6.32
29 3.06
37 4.52
38 12.84
39 3.99
49 2.01
50 15.54
51 6.11
53 2.4
61 4.34
62 9.95
63 33.46
64 20.2
73 2.21
74 9.47
75 11.21
76 8.63
77 17
78 2.81
79 4.44
92 13.7
117 4.48
119 4.5
143 37.88
144 2.56
145 37.88
146 2.03
155 3.57
156 2.09
157 3.9
171 38.04
172 3.41
173 36.72
174 2.58
186 99.99
187 8.07
188 96.58
189 7.91

>  <PREDICTED SPECTRUM>  (244) 
14 51
15 154
16 29
18 4
25 29
26 70
29 40
30 13
31 93
32 23
37 94
38 142
39 128
49 56
50 339
51 320
52 100
53 63
61 31
62 181
63 452
64 354
65 215
66 147
74 243
75 309
76 209
77 507
78 227
79 177
80 62
91 85
92 284
93 57
106 72
107 273
108 61
117 25
119 18
123 56
141 4
143 382
144 108
145 376
146 60
155 273
156 112
157 172
158 51
159 26
171 372
172 273
173 314
185 15
186 997
187 294
188 999
189 264

$$$$

     RDKit          2D

  9  9  0  0  0  0  0  0  0  0999 V2000
    3.8971   -1.4998    0.0000 C   0  0  0  0  0  0  0  0  0  0  0  0
    0.0005   -3.7506    0.0000 C   0  0  0  0  0  0  0  0  0  0  0  0
   -1.2990   -2.9998    0.0000 C   0  0  0  0  0  0  0  0  0  0  0  0
    1.2995   -3.0006    0.0000 C   0  0  0  0  0  0  0  0  0  0  0  0
   -0.0005   -0.7490    0.0000 C   0  0  0  0  0  0  0  0  0  0  0  0
   -1.2995   -1.4990    0.0000 C   0  0  0  0  0  0  0  0  0  0  0  0
    1.2990   -1.4998    0.0000 C   0  0  0  0  0  0  0  0  0  0  0  0
   -2.5987   -0.7492    0.0000 Br  0  0  0  0  0  0  0  0  0  0  0  0
    2.5981   -0.7498    0.0000 O   0  0  0  0  0  0  0  0  0  0  0  0
  3  2  2  0
  4  2  1  0
  6  3  1  0
  6  5  2  0
  7  4  2  0
  7  5  1  0
  8  6  1  0
  9  1  1  0
  9  7  1  0
M  END
>  <NAME>  (245) 
META-BROMOANISOLE

>  <SYNONYMS>  (245) 
3-METHOXYBROMOBENZENE

>  <SPECTRUM TYPE>  (245) 
MS1

>  <INSTRUMENT TYPE>  (245) 
EI-B

>  <INSTRUMENT>  (245) 
HITACHI M-80A

>  <ION MODE>  (245) 
P

>  <INCHIKEY>  (245) 
PLDWAJLZAAHOGG-UHFFFAOYSA-N

>  <FORMULA>  (245) 
C7H7BrO

>  <EXACT MASS>  (245) 
185.968026944

>  <MW>  (245) 
186

>  <ID>  (245) 
JP011782

>  <CONTRIBUTOR>  (245) 
University of Tokyo Team, {Faculty of Engineering, University of Tokyo

>  <COMMENT>  (245) 
SMILES=COc(c1)cc(Br)cc1
InChI=InChI=1S/C7H7BrO/c1-9-7-4-2-3-6(8)5-7/h2-5H,1H3
computed SMILES=BrC1=CC=CC(OC)=C1
accession=JP011782
date=2016.01.19 (Created 2008.10.21, modified 2011.05.06)
author=TAJIMA S, GUNMA COLLEGE OF TECHNOLOGY
license=CC BY-NC-SA
exact mass=185.96803
ionization energy=70 eV
ion type=[M]+*
computed spectral entropy=2.9950430233660756
computed normalized entropy=0.81752221271619
SPLASH=splash10-000i-6900000000-6ef714916e3b09ba669b
submitter=submitter = University of Tokyo Team (Faculty of Engineering, University of Tokyo)
MoNA Rating=3.75

>  <NUM PEAKS>  (245) 
39

>  <MASS SPECTRAL PEAKS>  (245) 
29 3.49
37 4.48
38 12.18
39 4.98
49 2.03
50 15.37
51 6.61
53 2.99
61 4.35
62 9.47
63 32.97
64 21.02
65 1.63
73 2.32
74 8.67
75 10.89
76 8.57
77 58.1
78 6.61
79 9.4
92 23.2
93 2.91
107 5.28
117 3.7
119 3.71
143 24.76
144 1.71
145 22.82
155 4.58
156 13.62
157 6.41
158 13.28
159 2.32
171 4.85
173 4.93
186 99.99
187 8.57
188 96.92
189 7.35

>  <PREDICTED SPECTRUM>  (245) 
14 51
15 183
16 38
17 5
18 10
25 35
26 90
27 94
28 105
29 115
30 32
31 99
32 23
36 53
37 194
38 260
39 300
40 66
41 68
49 137
50 408
51 411
52 142
53 159
54 4
61 172
62 297
63 541
64 489
65 285
66 181
73 91
74 287
75 380
76 324
77 563
78 241
79 309
80 123
81 30
89 10
90 34
91 136
92 379
93 125
94 17
106 142
107 349
108 129
115 24
117 83
119 64
142 53
143 477
144 162
145 482
146 110
147 8
154 54
155 299
156 234
157 240
158 138
159 134
161 40
170 74
171 158
172 187
173 163
185 56
186 989
187 322
188 999
189 291

$$$$

     RDKit          2D

  9  9  0  0  0  0  0  0  0  0999 V2000
    3.8981   -0.7504    0.0000 C   0  0  0  0  0  0  0  0  0  0  0  0
   -1.3000    0.7500    0.0000 C   0  0  0  0  0  0  0  0  0  0  0  0
    0.0000    1.5000    0.0000 C   0  0  0  0  0  0  0  0  0  0  0  0
   -1.3000   -0.7500    0.0000 C   0  0  0  0  0  0  0  0  0  0  0  0
    1.3000    0.7500    0.0000 C   0  0  0  0  0  0  0  0  0  0  0  0
    0.0000   -1.5000    0.0000 C   0  0  0  0  0  0  0  0  0  0  0  0
    1.3000   -0.7500    0.0000 C   0  0  0  0  0  0  0  0  0  0  0  0
   -0.0000   -3.0000    0.0000 Br  0  0  0  0  0  0  0  0  0  0  0  0
    2.5989   -1.5002    0.0000 O   0  0  0  0  0  0  0  0  0  0  0  0
  3  2  2  0
  4  2  1  0
  5  3  1  0
  6  4  2  0
  7  5  2  0
  7  6  1  0
  8  6  1  0
  9  1  1  0
  9  7  1  0
M  END
>  <NAME>  (246) 
ORTHO-BROMOANISOLE

>  <SYNONYMS>  (246) 
2-METHOXYBROMOBENZENE

>  <SPECTRUM TYPE>  (246) 
MS1

>  <INSTRUMENT TYPE>  (246) 
EI-B

>  <INSTRUMENT>  (246) 
HITACHI M-80A

>  <ION MODE>  (246) 
P

>  <INCHIKEY>  (246) 
HTDQSWDEWGSAMN-UHFFFAOYSA-N

>  <FORMULA>  (246) 
C7H7BrO

>  <EXACT MASS>  (246) 
185.968026944

>  <MW>  (246) 
186

>  <ID>  (246) 
JP011781

>  <CONTRIBUTOR>  (246) 
University of Tokyo Team, {Faculty of Engineering, University of Tokyo

>  <COMMENT>  (246) 
SMILES=COc(c1)c(Br)ccc1
InChI=InChI=1S/C7H7BrO/c1-9-7-5-3-2-4-6(7)8/h2-5H,1H3
computed SMILES=BrC=1C=CC=CC1OC
accession=JP011781
date=2016.01.19 (Created 2008.10.21, modified 2011.05.06)
author=TAJIMA S, GUNMA COLLEGE OF TECHNOLOGY
license=CC BY-NC-SA
exact mass=185.96803
ionization energy=70 eV
ion type=[M]+*
computed spectral entropy=3.0526086711466673
computed normalized entropy=0.7973085893983025
SPLASH=splash10-000i-5900000000-a7c241ec03f353869b71
submitter=submitter = University of Tokyo Team (Faculty of Engineering, University of Tokyo)
MoNA Rating=3.75

>  <NUM PEAKS>  (246) 
46

>  <MASS SPECTRAL PEAKS>  (246) 
26 1.3
27 1.44
29 3.85
32 1.77
37 5.16
38 11.87
39 6.76
49 2.34
50 15.89
51 14.52
52 1.56
53 3.96
61 4.51
62 9.91
63 32.98
64 17.84
65 1.83
73 2.11
74 8.46
75 10.21
76 8.96
77 29.03
78 4.6
79 5.77
81 1.24
92 14.84
93 1.7
107 1.05
117 5.5
119 5.59
143 43.3
144 2.56
145 42.87
146 2.39
155 2.93
156 1.59
157 3.13
158 1.43
171 30.69
172 2.77
173 29.59
174 1.77
186 99.99
187 8.31
188 98.67
189 7.41

>  <PREDICTED SPECTRUM>  (246) 
14 65
15 207
16 41
17 3
18 10
25 35
26 98
27 78
28 87
29 100
30 58
31 109
32 35
36 55
37 150
38 192
39 181
40 6
49 109
50 438
51 405
52 124
53 75
54 2
55 26
57 13
61 152
62 266
63 445
64 389
65 202
66 150
67 4
73 44
74 304
75 359
76 332
77 528
78 275
79 243
80 108
81 8
86 65
89 5
91 93
92 318
93 90
94 67
105 23
106 94
107 343
108 151
117 130
118 50
119 87
143 559
144 101
145 492
146 70
147 2
155 333
156 205
157 216
158 121
159 30
170 53
171 316
172 239
173 360
174 72
185 143
186 980
187 331
188 999
189 306
190 46

$$$$

     RDKit          2D

 12 12  0  0  0  0  0  0  0  0999 V2000
   -1.3000    0.7500    0.0000 C   0  0  0  0  0  0  0  0  0  0  0  0
   -0.0000   -1.5000    0.0000 C   0  0  0  0  0  0  0  0  0  0  0  0
    0.0000    1.5000    0.0000 C   0  0  0  0  0  0  0  0  0  0  0  0
    1.3000   -0.7500    0.0000 C   0  0  0  0  0  0  0  0  0  0  0  0
   -2.5989   -1.5002    0.0000 C   0  0  0  0  0  0  0  0  0  0  0  0
   -1.3000   -0.7500    0.0000 C   0  0  0  0  0  0  0  0  0  0  0  0
    1.3000    0.7500    0.0000 C   0  0  0  0  0  0  0  0  0  0  0  0
    2.5989    1.5002    0.0000 C   0  0  0  0  0  0  0  0  0  0  0  0
    3.3491    0.2013    0.0000 F   0  0  0  0  0  0  0  0  0  0  0  0
    3.8978    2.2504    0.0000 F   0  0  0  0  0  0  0  0  0  0  0  0
    1.8487    2.7991    0.0000 F   0  0  0  0  0  0  0  0  0  0  0  0
   -3.8981   -0.7504    0.0000 O   0  0  0  0  0  0  0  0  0  0  0  0
  3  1  2  0
  4  2  1  0
  6  1  1  0
  6  2  2  0
  6  5  1  0
  7  3  1  0
  7  4  2  0
  8  7  1  0
  9  8  1  0
 10  8  1  0
 11  8  1  0
 12  5  1  0
M  END
>  <NAME>  (247) 
4-(TRIFLUOROMETHYL)BENZYL ALCOHOL

>  <SYNONYMS>  (247) 


>  <SPECTRUM TYPE>  (247) 
MS1

>  <INSTRUMENT TYPE>  (247) 
EI-B

>  <INSTRUMENT>  (247) 
HITACHI M-80A

>  <ION MODE>  (247) 
P

>  <INCHIKEY>  (247) 
MOOUWXDQAUXZRG-UHFFFAOYSA-N

>  <FORMULA>  (247) 
C8H7F3O

>  <EXACT MASS>  (247) 
176.044899504

>  <MW>  (247) 
176

>  <ID>  (247) 
JP011780

>  <CONTRIBUTOR>  (247) 
University of Tokyo Team, {Faculty of Engineering, University of Tokyo

>  <COMMENT>  (247) 
SMILES=OCc(c1)ccc(c1)C(F)(F)F
InChI=InChI=1S/C8H7F3O/c9-8(10,11)7-3-1-6(5-12)2-4-7/h1-4,12H,5H2
computed SMILES=FC(F)(F)C1=CC=C(C=C1)CO
accession=JP011780
date=2016.01.19 (Created 2008.10.21, modified 2011.05.06)
author=TAJIMA S, GUNMA COLLEGE OF TECHNOLOGY
license=CC BY-NC-SA
exact mass=176.0449
ionization energy=70 eV
ion type=[M]+*
computed spectral entropy=3.3410675440187028
computed normalized entropy=0.7890844362065708
SPLASH=splash10-004i-5900000000-3bbb9d7030eccec89ef4
submitter=submitter = University of Tokyo Team (Faculty of Engineering, University of Tokyo)
MoNA Rating=3.75

>  <NUM PEAKS>  (247) 
69

>  <MASS SPECTRAL PEAKS>  (247) 
27 2.81
29 11.37
30 1.37
31 9.47
38 3.69
39 6.7
40 1.74
49 1.03
50 13.86
51 16.26
52 3.21
53 2.67
57 3.93
61 1.9
62 4.99
63 9.03
64 1.92
69 15.45
70 1.2
73 1.07
74 6.27
75 15.06
76 4.38
77 27.99
78 9.75
79 57.53
80 4.44
81 2.98
83 2.73
87 2.49
88 2.17
89 4.74
90 1.69
94 1.2
95 6.31
96 4.85
97 1.22
99 3.61
100 1.45
101 2.72
105 2.35
106 1.33
107 95.94
108 7.82
109 9.63
110 2.88
114 1.59
119 3.57
125 6.23
126 4.59
127 99.99
128 7.84
129 1.27
132 1.12
138 1.87
139 1.14
145 19.88
146 3.12
147 9.76
155 3
156 1.91
157 25.04
158 5.15
159 9.26
173 5.49
174 1.08
175 14.71
176 81.88
177 5.8

>  <PREDICTED SPECTRUM>  (247) 
14 40
15 107
16 45
17 55
18 49
19 27
25 23
26 127
27 202
28 213
29 410
30 252
31 392
32 48
33 50
37 141
38 199
39 313
40 83
41 59
42 47
43 63
44 116
45 58
47 29
49 139
50 363
51 370
52 167
53 54
54 25
56 164
57 320
58 31
59 107
60 77
61 144
62 259
63 431
64 208
65 141
66 1
67 25
68 112
69 325
70 193
71 140
73 40
74 236
75 418
76 191
77 387
78 169
79 302
80 105
81 149
82 29
83 325
84 35
85 53
86 121
87 167
88 134
89 345
90 204
91 168
92 101
93 64
94 100
95 305
96 228
98 10
99 170
100 103
101 188
104 2
105 156
106 97
107 723
108 386
109 521
110 81
113 164
114 302
117 30
118 22
119 291
120 40
122 29
123 19
125 320
126 242
127 712
128 262
129 72
131 6
136 53
137 175
138 90
139 222
140 231
145 999
146 337
147 508
148 140
155 392
156 216
157 370
158 265
159 816
160 528
173 250
174 200
175 367
176 754
177 212

$$$$

     RDKit          2D

  8  8  0  0  0  0  0  0  0  0999 V2000
   -1.3000    0.7500    0.0000 C   0  0  0  0  0  0  0  0  0  0  0  0
    0.0000    1.5000    0.0000 C   0  0  0  0  0  0  0  0  0  0  0  0
   -1.3000   -0.7500    0.0000 C   0  0  0  0  0  0  0  0  0  0  0  0
    1.3000   -0.7500    0.0000 C   0  0  0  0  0  0  0  0  0  0  0  0
    1.3000    0.7500    0.0000 C   0  0  0  0  0  0  0  0  0  0  0  0
   -0.0000   -1.5000    0.0000 C   0  0  0  0  0  0  0  0  0  0  0  0
    2.5989    1.5002    0.0000 F   0  0  0  0  0  0  0  0  0  0  0  0
   -0.0000   -3.0000    0.0000 O   0  0  0  0  0  0  0  0  0  0  0  0
  2  1  2  0
  3  1  1  0
  5  2  1  0
  5  4  2  0
  6  3  2  0
  6  4  1  0
  7  5  1  0
  8  6  1  0
M  END
>  <NAME>  (248) 
META-FLUOROPHENOL

>  <SYNONYMS>  (248) 


>  <SPECTRUM TYPE>  (248) 
MS1

>  <INSTRUMENT TYPE>  (248) 
EI-B

>  <INSTRUMENT>  (248) 
HITACHI M-80A

>  <ION MODE>  (248) 
P

>  <INCHIKEY>  (248) 
SJTBRFHBXDZMPS-UHFFFAOYSA-N

>  <FORMULA>  (248) 
C6H5FO

>  <EXACT MASS>  (248) 
112.032443

>  <MW>  (248) 
112

>  <ID>  (248) 
JP011779

>  <CONTRIBUTOR>  (248) 
University of Tokyo Team, {Faculty of Engineering, University of Tokyo

>  <COMMENT>  (248) 
SMILES=Oc(c1)cc(F)cc1
InChI=InChI=1S/C6H5FO/c7-5-2-1-3-6(8)4-5/h1-4,8H
computed SMILES=FC1=CC=CC(O)=C1
accession=JP011779
date=2016.01.19 (Created 2008.10.21, modified 2011.05.06)
author=TAJIMA S, GUNMA COLLEGE OF TECHNOLOGY
license=CC BY-NC-SA
exact mass=112.03244
ionization energy=70 eV
ion type=[M]+*
computed spectral entropy=3.1412331553309847
computed normalized entropy=0.8158734366276746
SPLASH=splash10-03e9-9100000000-aa539782382a8695d6e2
submitter=submitter = University of Tokyo Team (Faculty of Engineering, University of Tokyo)
MoNA Rating=3.75

>  <NUM PEAKS>  (248) 
47

>  <MASS SPECTRAL PEAKS>  (248) 
26 4.27
27 5.15
29 12.55
31 13.29
33 2.72
36 2.44
37 12.07
38 17.23
39 23.56
40 1.84
41 1.5
42 2.04
48 4.51
49 15.58
50 8.07
51 1.77
52 8.55
54 3.78
55 8.15
56 45.61
57 7.38
59 2.1
60 12.91
61 16.91
63 33.64
64 35.91
65 8.66
66 3.83
68 5
69 3.96
70 2.42
73 9.45
74 4.73
75 6.89
79 1.76
80 11.3
82 5.06
83 71.83
84 66.64
85 2.98
92 1.73
94 3.89
95 1.5
96 1.29
111 2.3
112 99.99
113 4.6

>  <PREDICTED SPECTRUM>  (248) 
14 2
16 18
17 56
19 17
25 51
26 69
27 62
28 64
29 177
31 234
32 20
33 124
36 72
37 230
38 282
39 342
40 114
41 86
42 30
44 125
45 57
46 31
48 36
49 171
50 394
51 333
52 225
53 215
54 104
55 164
56 353
57 599
58 127
60 38
61 257
62 328
63 468
64 418
65 225
66 101
67 29
68 277
69 146
70 34
73 180
74 210
75 367
76 82
80 69
81 452
82 145
83 684
84 342
85 86
86 51
91 38
92 151
93 170
94 233
95 172
110 54
111 442
112 999
113 322
114 111

$$$$

     RDKit          2D

  8  8  0  0  0  0  0  0  0  0999 V2000
    2.2733   -0.6175    0.0000 C   0  0  0  0  0  0  0  0  0  0  0  0
    2.2738    0.8833    0.0000 C   0  0  0  0  0  0  0  0  0  0  0  0
    0.9738   -1.3683    0.0000 C   0  0  0  0  0  0  0  0  0  0  0  0
    0.9748    1.6333    0.0000 C   0  0  0  0  0  0  0  0  0  0  0  0
   -0.3252   -0.6183    0.0000 C   0  0  0  0  0  0  0  0  0  0  0  0
   -1.6238    1.6325    0.0000 C   0  0  0  0  0  0  0  0  0  0  0  0
   -0.3248    0.8825    0.0000 C   0  0  0  0  0  0  0  0  0  0  0  0
   -2.9228    0.8825    0.0000 Br  0  0  0  0  0  0  0  0  0  0  0  0
  2  1  2  0
  3  1  1  0
  4  2  1  0
  5  3  2  0
  7  4  2  0
  7  5  1  0
  7  6  1  0
  8  6  1  0
M  END
>  <NAME>  (249) 
BENZYL BROMIDE

>  <SYNONYMS>  (249) 
ALPHA-BROMOTOLUENE

>  <SPECTRUM TYPE>  (249) 
MS1

>  <INSTRUMENT TYPE>  (249) 
EI-B

>  <INSTRUMENT>  (249) 
HITACHI M-80A

>  <ION MODE>  (249) 
P

>  <INCHIKEY>  (249) 
AGEZXYOZHKGVCM-UHFFFAOYSA-N

>  <FORMULA>  (249) 
C7H7Br

>  <EXACT MASS>  (249) 
169.973112324

>  <MW>  (249) 
170

>  <ID>  (249) 
JP011778

>  <CONTRIBUTOR>  (249) 
University of Tokyo Team, {Faculty of Engineering, University of Tokyo

>  <COMMENT>  (249) 
SMILES=BrCc(c1)cccc1
InChI=InChI=1S/C7H7Br/c8-6-7-4-2-1-3-5-7/h1-5H,6H2
computed SMILES=BrCC=1C=CC=CC1
accession=JP011778
date=2016.01.19 (Created 2008.10.21, modified 2011.05.06)
author=TAJIMA S, GUNMA COLLEGE OF TECHNOLOGY
license=CC BY-NC-SA
exact mass=169.97311
ionization energy=70 eV
ion type=[M]+*
computed spectral entropy=2.5133596467742985
computed normalized entropy=0.7625861803716462
SPLASH=splash10-0006-9100000000-c48b5a5fb4ea89f4c580
submitter=submitter = University of Tokyo Team (Faculty of Engineering, University of Tokyo)
MoNA Rating=3.75

>  <NUM PEAKS>  (249) 
27

>  <MASS SPECTRAL PEAKS>  (249) 
26 1.01
27 1.7
37 1.16
38 4.25
39 16.74
40 1.91
41 3.92
50 6.83
51 9.83
52 4.5
61 1.86
62 5.73
63 16.6
64 6.23
65 35.42
66 1.71
79 2.5
81 3.27
86 1.42
89 14.83
90 8.25
91 99.99
92 17.9
170 15.9
171 1.27
172 15.16
173 1.2

>  <PREDICTED SPECTRUM>  (249) 
26 50
37 66
38 157
39 224
40 59
49 17
50 212
51 340
52 186
53 66
57 11
61 132
62 119
63 212
64 152
65 329
74 90
75 65
76 33
77 93
78 69
79 73
80 75
81 47
82 18
86 24
87 112
89 220
90 87
91 999
92 248
93 152
115 40
170 156
171 65
172 169
173 36

$$$$

     RDKit          2D

  8  8  0  0  0  0  0  0  0  0999 V2000
   -1.3000    0.7500    0.0000 C   0  0  0  0  0  0  0  0  0  0  0  0
   -0.0000   -1.5000    0.0000 C   0  0  0  0  0  0  0  0  0  0  0  0
    0.0000    1.5000    0.0000 C   0  0  0  0  0  0  0  0  0  0  0  0
    1.3000   -0.7500    0.0000 C   0  0  0  0  0  0  0  0  0  0  0  0
   -1.3000   -0.7500    0.0000 C   0  0  0  0  0  0  0  0  0  0  0  0
    1.3000    0.7500    0.0000 C   0  0  0  0  0  0  0  0  0  0  0  0
   -2.5989   -1.5002    0.0000 F   0  0  0  0  0  0  0  0  0  0  0  0
    2.5989    1.5002    0.0000 O   0  0  0  0  0  0  0  0  0  0  0  0
  3  1  2  0
  4  2  1  0
  5  1  1  0
  5  2  2  0
  6  3  1  0
  6  4  2  0
  7  5  1  0
  8  6  1  0
M  END
>  <NAME>  (250) 
4-FLUOROPHENOL

>  <SYNONYMS>  (250) 
PARA-FLUOROPHENOL

>  <SPECTRUM TYPE>  (250) 
MS1

>  <INSTRUMENT TYPE>  (250) 
EI-B

>  <INSTRUMENT>  (250) 
HITACHI M-80A

>  <ION MODE>  (250) 
P

>  <INCHIKEY>  (250) 
RHMPLDJJXGPMEX-UHFFFAOYSA-N

>  <FORMULA>  (250) 
C6H5FO

>  <EXACT MASS>  (250) 
112.032443

>  <MW>  (250) 
112

>  <ID>  (250) 
JP011777

>  <CONTRIBUTOR>  (250) 
University of Tokyo Team, {Faculty of Engineering, University of Tokyo

>  <COMMENT>  (250) 
SMILES=Oc(c1)ccc(F)c1
InChI=InChI=1S/C6H5FO/c7-5-1-3-6(8)4-2-5/h1-4,8H
computed SMILES=FC1=CC=C(O)C=C1
accession=JP011777
date=2016.01.19 (Created 2008.10.21, modified 2011.05.06)
author=TAJIMA S, GUNMA COLLEGE OF TECHNOLOGY
license=CC BY-NC-SA
exact mass=112.03244
ionization energy=70 eV
ion type=[M]+*
computed spectral entropy=2.6734663451477774
computed normalized entropy=0.7403841377247027
SPLASH=splash10-03e9-9400000000-8a68a8d4696988d82cf8
submitter=submitter = University of Tokyo Team (Faculty of Engineering, University of Tokyo)
MoNA Rating=3.75

>  <NUM PEAKS>  (250) 
37

>  <MASS SPECTRAL PEAKS>  (250) 
26 1.5
27 1.36
28 1.88
29 3.13
31 5.34
37 2.95
38 4.17
39 5.52
49 1.47
50 4.44
51 2.86
53 4.09
55 1.79
56 5.91
57 22.39
58 3.74
61 4.41
62 5.69
63 12.81
64 18.58
65 2.79
68 1.48
69 1.19
73 2.9
74 2.11
75 2.55
81 5.92
82 3.17
83 42.21
84 32.85
85 1.66
86 1.15
94 1.33
95 1.07
111 2.67
112 99.99
113 6.34

>  <PREDICTED SPECTRUM>  (250) 
14 12
16 14
17 10
19 27
25 48
26 83
27 84
28 73
29 142
31 214
32 14
33 83
36 44
37 185
38 242
39 310
40 60
41 46
42 47
44 110
45 5
46 9
49 109
50 304
51 245
52 155
53 181
54 59
55 185
56 303
57 590
58 76
60 67
61 221
62 261
63 368
64 308
65 173
66 27
68 124
69 81
73 181
74 151
75 333
76 18
81 499
82 149
83 647
84 416
85 84
86 28
92 85
93 126
94 144
95 90
110 69
111 300
112 999
113 302
114 103

$$$$

     RDKit          2D

  8  8  0  0  0  0  0  0  0  0999 V2000
   -1.3000    0.7500    0.0000 C   0  0  0  0  0  0  0  0  0  0  0  0
    0.0000    1.5000    0.0000 C   0  0  0  0  0  0  0  0  0  0  0  0
   -1.3000   -0.7500    0.0000 C   0  0  0  0  0  0  0  0  0  0  0  0
    1.3000   -0.7500    0.0000 C   0  0  0  0  0  0  0  0  0  0  0  0
    1.3000    0.7500    0.0000 C   0  0  0  0  0  0  0  0  0  0  0  0
   -0.0000   -1.5000    0.0000 C   0  0  0  0  0  0  0  0  0  0  0  0
    2.5989    1.5002    0.0000 F   0  0  0  0  0  0  0  0  0  0  0  0
   -0.0000   -3.0000    0.0000 F   0  0  0  0  0  0  0  0  0  0  0  0
  2  1  2  0
  3  1  1  0
  5  2  1  0
  5  4  2  0
  6  3  2  0
  6  4  1  0
  7  5  1  0
  8  6  1  0
M  END
>  <NAME>  (251) 
1,3-DIFLUOROBENZENE

>  <SYNONYMS>  (251) 
META-DIFLUOROBENZENE

>  <SPECTRUM TYPE>  (251) 
MS1

>  <INSTRUMENT TYPE>  (251) 
EI-B

>  <INSTRUMENT>  (251) 
HITACHI M-80A

>  <ION MODE>  (251) 
P

>  <INCHIKEY>  (251) 
UEMGWPRHOOEKTA-UHFFFAOYSA-N

>  <FORMULA>  (251) 
C6H4F2

>  <EXACT MASS>  (251) 
114.028106568

>  <MW>  (251) 
114

>  <ID>  (251) 
JP011776

>  <CONTRIBUTOR>  (251) 
University of Tokyo Team, {Faculty of Engineering, University of Tokyo

>  <COMMENT>  (251) 
SMILES=Fc(c1)cc(F)cc1
InChI=InChI=1S/C6H4F2/c7-5-2-1-3-6(8)4-5/h1-4H
computed SMILES=FC1=CC=CC(F)=C1
accession=JP011776
date=2016.01.19 (Created 2008.10.21, modified 2011.05.06)
author=TAJIMA S, GUNMA COLLEGE OF TECHNOLOGY
license=CC BY-NC-SA
exact mass=114.02811
ionization energy=70 eV
ion type=[M]+*
computed spectral entropy=2.411338103467599
computed normalized entropy=0.7161052147524813
SPLASH=splash10-03di-9800000000-e82b87974f5f1f5a434f
submitter=submitter = University of Tokyo Team (Faculty of Engineering, University of Tokyo)
MoNA Rating=3.75

>  <NUM PEAKS>  (251) 
29

>  <MASS SPECTRAL PEAKS>  (251) 
31 4.41
37 2.81
38 2.91
39 1.88
49 1.5
50 7.92
51 2.2
56 1.87
57 8.44
61 3.01
62 3.64
63 20.88
64 3.15
68 5.27
69 3.3
70 3.51
73 1.22
74 4.09
75 6.42
81 4.47
83 1.52
88 12.86
92 1.46
93 2.13
94 5.81
95 2.92
113 3.72
114 99.99
115 6.16

>  <PREDICTED SPECTRUM>  (251) 
14 6
16 8
17 33
18 18
19 37
25 49
26 98
27 77
28 106
29 10
31 330
32 60
33 85
36 99
37 178
38 163
39 95
43 32
44 136
45 59
49 143
50 288
51 157
52 25
55 19
56 251
57 475
58 7
59 14
60 41
61 302
62 219
63 254
64 85
67 20
68 377
69 303
70 174
71 5
72 17
73 143
74 239
75 417
76 83
81 323
82 219
83 324
84 120
85 129
86 117
87 207
88 127
89 43
92 0
93 118
94 303
95 261
96 150
99 33
111 132
112 160
113 370
114 999
115 356
116 87

$$$$

     RDKit          2D

  8  8  0  0  0  0  0  0  0  0999 V2000
   -1.3000    0.7500    0.0000 C   0  0  0  0  0  0  0  0  0  0  0  0
    0.0000    1.5000    0.0000 C   0  0  0  0  0  0  0  0  0  0  0  0
   -1.3000   -0.7500    0.0000 C   0  0  0  0  0  0  0  0  0  0  0  0
    1.3000    0.7500    0.0000 C   0  0  0  0  0  0  0  0  0  0  0  0
    0.0000   -1.5000    0.0000 C   0  0  0  0  0  0  0  0  0  0  0  0
    1.3000   -0.7500    0.0000 C   0  0  0  0  0  0  0  0  0  0  0  0
   -0.0000   -3.0000    0.0000 F   0  0  0  0  0  0  0  0  0  0  0  0
    2.5989   -1.5002    0.0000 F   0  0  0  0  0  0  0  0  0  0  0  0
  2  1  2  0
  3  1  1  0
  4  2  1  0
  5  3  2  0
  6  4  2  0
  6  5  1  0
  7  5  1  0
  8  6  1  0
M  END
>  <NAME>  (252) 
1,2-DIFLUOROBENZENE

>  <SYNONYMS>  (252) 
ORTHO-DIFLUOROBENZENE

>  <SPECTRUM TYPE>  (252) 
MS1

>  <INSTRUMENT TYPE>  (252) 
EI-B

>  <INSTRUMENT>  (252) 
HITACHI M-80A

>  <ION MODE>  (252) 
P

>  <INCHIKEY>  (252) 
GOYDNIKZWGIXJT-UHFFFAOYSA-N

>  <FORMULA>  (252) 
C6H4F2

>  <EXACT MASS>  (252) 
114.028106568

>  <MW>  (252) 
114

>  <ID>  (252) 
JP011775

>  <CONTRIBUTOR>  (252) 
University of Tokyo Team, {Faculty of Engineering, University of Tokyo

>  <COMMENT>  (252) 
SMILES=Fc(c1)c(F)ccc1
InChI=InChI=1S/C6H4F2/c7-5-3-1-2-4-6(5)8/h1-4H
computed SMILES=FC=1C=CC=CC1F
accession=JP011775
date=2016.01.19 (Created 2008.10.21, modified 2011.05.06)
author=TAJIMA S, GUNMA COLLEGE OF TECHNOLOGY
license=CC BY-NC-SA
exact mass=114.02811
ionization energy=70 eV
ion type=[M]+*
computed spectral entropy=3.2366781089102115
computed normalized entropy=0.8553160443914805
SPLASH=splash10-03di-9200000000-a10128a6a1fbba03d510
submitter=submitter = University of Tokyo Team (Faculty of Engineering, University of Tokyo)
MoNA Rating=3.75

>  <NUM PEAKS>  (252) 
44

>  <MASS SPECTRAL PEAKS>  (252) 
26 7.71
27 1.96
31 38.7
33 2.57
36 5.85
37 23.96
38 18.28
39 10.22
44 4.19
45 2.14
48 2.69
49 9.64
50 29.33
51 10.88
55 2.21
56 12.72
57 20.97
60 3.52
61 15.26
62 15.5
63 49.15
64 7.05
68 16.94
69 9.63
70 6.34
73 5.49
74 15.26
75 18.91
76 1.38
79 1.07
80 2.1
81 11.73
82 1.66
83 5.1
87 2.42
88 26.09
92 3.83
93 4.88
94 14.72
95 8.53
99 1.24
113 3.43
114 99.99
115 5.06

>  <PREDICTED SPECTRUM>  (252) 
14 0
19 6
25 42
26 85
28 62
31 402
32 35
33 64
36 88
37 211
38 180
39 60
44 108
49 144
50 333
51 250
56 286
57 400
60 11
61 315
62 313
63 588
64 229
68 320
69 196
70 178
72 20
73 130
74 292
75 451
76 69
80 19
81 465
82 33
85 40
86 129
87 197
88 133
93 92
94 496
95 270
99 108
101 450
111 38
112 69
113 320
114 999
115 402

$$$$

     RDKit          2D

  8  8  0  0  0  0  0  0  0  0999 V2000
   -0.0005    1.5008    0.0000 C   0  0  0  0  0  0  0  0  0  0  0  0
   -1.2995    0.7508    0.0000 C   0  0  0  0  0  0  0  0  0  0  0  0
    1.2995   -0.7508    0.0000 C   0  0  0  0  0  0  0  0  0  0  0  0
    0.0005   -1.5008    0.0000 C   0  0  0  0  0  0  0  0  0  0  0  0
    1.2990    0.7500    0.0000 C   0  0  0  0  0  0  0  0  0  0  0  0
   -1.2990   -0.7500    0.0000 C   0  0  0  0  0  0  0  0  0  0  0  0
    2.5981    1.5000    0.0000 O   0  0  0  0  0  0  0  0  0  0  0  0
   -2.5981   -1.5000    0.0000 O   0  0  0  0  0  0  0  0  0  0  0  0
  2  1  2  0
  4  3  1  0
  5  1  1  0
  5  3  2  0
  6  2  1  0
  6  4  2  0
  7  5  1  0
  8  6  1  0
M  END
>  <NAME>  (253) 
1,4-DIHYDROXYBENZENE

>  <SYNONYMS>  (253) 
HYDROQUINONE

>  <SPECTRUM TYPE>  (253) 
MS1

>  <INSTRUMENT TYPE>  (253) 
EI-B

>  <INSTRUMENT>  (253) 
HITACHI M-80A

>  <ION MODE>  (253) 
P

>  <INCHIKEY>  (253) 
QIGBRXMKCJKVMJ-UHFFFAOYSA-N

>  <FORMULA>  (253) 
C6H6O2

>  <EXACT MASS>  (253) 
110.036779432

>  <MW>  (253) 
110

>  <ID>  (253) 
JP011774

>  <CONTRIBUTOR>  (253) 
University of Tokyo Team, {Faculty of Engineering, University of Tokyo

>  <COMMENT>  (253) 
SMILES=Oc(c1)ccc(O)c1
InChI=InChI=1S/C6H6O2/c7-5-1-2-6(8)4-3-5/h1-4,7-8H
computed SMILES=OC1=CC=C(O)C=C1
accession=JP011774
date=2016.01.19 (Created 2008.10.21, modified 2011.05.06)
author=TAJIMA S, GUNMA COLLEGE OF TECHNOLOGY
license=CC BY-NC-SA
exact mass=110.03678
ionization energy=70 eV
ion type=[M]+*
computed spectral entropy=2.8074153037832192
computed normalized entropy=0.7961225984086814
SPLASH=splash10-03e9-9300000000-f8b11742557329691e8a
submitter=submitter = University of Tokyo Team (Faculty of Engineering, University of Tokyo)
MoNA Rating=3.75

>  <NUM PEAKS>  (253) 
34

>  <MASS SPECTRAL PEAKS>  (253) 
26 9.05
27 16
29 9.92
31 1.02
37 3.28
38 5.02
39 18.6
40 1.78
41 1.43
42 3.26
43 2.01
49 2.02
50 6.78
51 8.49
52 7.38
53 36.94
54 18.53
55 26.51
56 2.15
61 3.93
62 5.52
63 9.32
64 5.87
65 2.78
66 1.3
69 3.61
79 1.1
81 48.49
82 16.96
83 1.02
109 9.48
110 99.99
111 13.05
112 1.1

>  <PREDICTED SPECTRUM>  (253) 
16 9
17 5
26 87
27 178
28 102
29 150
31 76
32 2
34 5
36 57
37 89
38 166
39 401
40 124
41 291
42 81
43 21
44 62
45 12
50 139
51 234
52 262
53 240
54 281
55 184
56 32
57 16
62 54
63 115
64 190
65 247
66 103
67 3
81 535
82 296
83 66
92 67
93 210
95 36
109 413
110 999
111 307
112 47

$$$$

     RDKit          2D

  8  8  0  0  0  0  0  0  0  0999 V2000
   -1.9467    1.4939    0.0000 C   0  0  0  0  0  0  0  0  0  0  0  0
   -0.6477    2.2439    0.0000 C   0  0  0  0  0  0  0  0  0  0  0  0
   -1.9512    0.0017    0.0000 C   0  0  0  0  0  0  0  0  0  0  0  0
    0.6473    0.0009    0.0000 C   0  0  0  0  0  0  0  0  0  0  0  0
    0.6468    1.5017    0.0000 C   0  0  0  0  0  0  0  0  0  0  0  0
   -0.6517   -0.7491    0.0000 C   0  0  0  0  0  0  0  0  0  0  0  0
    1.9446    2.2539    0.0000 O   0  0  0  0  0  0  0  0  0  0  0  0
   -0.6520   -2.2491    0.0000 O   0  0  0  0  0  0  0  0  0  0  0  0
  2  1  2  0
  3  1  1  0
  5  2  1  0
  5  4  2  0
  6  3  2  0
  6  4  1  0
  7  5  1  0
  8  6  1  0
M  END
>  <NAME>  (254) 
1,3-DIHYDROXYBENZENE

>  <SYNONYMS>  (254) 
RESORCINOL

>  <SPECTRUM TYPE>  (254) 
MS1

>  <INSTRUMENT TYPE>  (254) 
EI-B

>  <INSTRUMENT>  (254) 
HITACHI M-80A

>  <ION MODE>  (254) 
P

>  <INCHIKEY>  (254) 
GHMLBKRAJCXXBS-UHFFFAOYSA-N

>  <FORMULA>  (254) 
C6H6O2

>  <EXACT MASS>  (254) 
110.036779432

>  <MW>  (254) 
110

>  <ID>  (254) 
JP011773

>  <CONTRIBUTOR>  (254) 
University of Tokyo Team, {Faculty of Engineering, University of Tokyo

>  <COMMENT>  (254) 
SMILES=Oc(c1)cc(O)cc1
InChI=InChI=1S/C6H6O2/c7-5-2-1-3-6(8)4-5/h1-4,7-8H
computed SMILES=OC1=CC=CC(O)=C1
accession=JP011773
date=2016.01.19 (Created 2008.10.21, modified 2011.05.06)
author=TAJIMA S, GUNMA COLLEGE OF TECHNOLOGY
license=CC BY-NC-SA
exact mass=110.03678
ionization energy=70 eV
ion type=[M]+*
computed spectral entropy=3.0443672970223004
computed normalized entropy=0.8309856885412339
SPLASH=splash10-03e9-9300000000-fcd22d3e2208eda085dd
submitter=submitter = University of Tokyo Team (Faculty of Engineering, University of Tokyo)
MoNA Rating=3.75

>  <NUM PEAKS>  (254) 
39

>  <MASS SPECTRAL PEAKS>  (254) 
26 3.62
27 10.88
29 10.36
37 5.77
38 10.8
39 22.72
40 3.33
41 5.73
42 7.57
43 4.85
49 2.8
50 9.01
51 10.9
52 6.95
53 29.87
54 10.98
55 15.95
56 1.1
61 4.71
62 7.26
63 14.2
64 10.96
65 4.04
66 3.08
68 4.55
69 19.14
70 1.13
71 3.43
74 1.02
79 1.5
81 41.76
82 30.25
83 1.67
92 1.9
95 3.57
109 4.22
110 99.99
111 12.05
112 1.25

>  <PREDICTED SPECTRUM>  (254) 
16 12
17 52
25 2
26 75
27 246
28 148
29 226
36 60
37 136
38 239
39 557
40 212
41 214
42 76
43 138
44 70
49 9
50 217
51 350
52 264
53 403
54 226
55 260
56 56
57 8
62 114
63 183
64 191
65 428
66 185
67 106
68 61
69 42
74 5
80 35
81 463
82 291
83 125
91 12
92 31
93 468
94 333
95 2
109 619
110 999
111 360
112 98

$$$$

     RDKit          2D

 17 16  0  0  0  0  0  0  0  0999 V2000
    1.7596    5.3350    0.0000 C   0  0  0  0  0  0  0  0  0  0  0  0
   -8.6327    5.3350    0.0000 C   0  0  0  0  0  0  0  0  0  0  0  0
   -4.3388    0.2178    0.0000 C   0  0  0  0  0  0  0  0  0  0  0  0
    1.4463    3.5578    0.0000 C   0  0  0  0  0  0  0  0  0  0  0  0
    0.4606    6.0850    0.0000 C   0  0  0  0  0  0  0  0  0  0  0  0
   -7.3336    6.0850    0.0000 C   0  0  0  0  0  0  0  0  0  0  0  0
   -4.8518    1.6273    0.0000 C   0  0  0  0  0  0  0  0  0  0  0  0
   -0.0309    3.2973    0.0000 C   0  0  0  0  0  0  0  0  0  0  0  0
   -0.8384    5.3350    0.0000 C   0  0  0  0  0  0  0  0  0  0  0  0
   -6.0346    5.3350    0.0000 C   0  0  0  0  0  0  0  0  0  0  0  0
   -3.8877    2.7764    0.0000 C   0  0  0  0  0  0  0  0  0  0  0  0
   -0.9951    4.4464    0.0000 C   0  0  0  0  0  0  0  0  0  0  0  0
   -3.4365    5.3350    0.0000 C   0  0  0  0  0  0  0  0  0  0  0  0
   -2.1375    6.0850    0.0000 O   0  0  0  0  0  0  0  0  0  0  0  0
   -4.7356    6.0850    0.0000 O   0  0  0  0  0  0  0  0  0  0  0  0
   -4.4007    4.1859    0.0000 O   0  0  0  0  0  0  0  0  0  0  0  0
   -2.4723    4.1859    0.0000 O   0  0  0  0  0  0  0  0  0  0  0  0
  5  1  1  0
  6  2  1  0
  7  3  1  0
  8  4  1  0
  9  5  1  0
 10  6  1  0
 11  7  1  0
 12  8  1  0
 14  9  1  0
 14 13  1  0
 15 10  1  0
 15 13  1  0
 16 11  1  0
 16 13  1  0
 17 12  1  0
 17 13  1  0
M  END
>  <NAME>  (255) 
TETRAPROPOXYMETHANE

>  <SYNONYMS>  (255) 


>  <SPECTRUM TYPE>  (255) 
MS1

>  <INSTRUMENT TYPE>  (255) 
EI-B

>  <INSTRUMENT>  (255) 
HITACHI M-80A

>  <ION MODE>  (255) 
P

>  <INCHIKEY>  (255) 
LFMXSZSVDQJYDU-UHFFFAOYSA-N

>  <FORMULA>  (255) 
C13H28O4

>  <EXACT MASS>  (255) 
248.198759376

>  <MW>  (255) 
248

>  <ID>  (255) 
JP011772

>  <CONTRIBUTOR>  (255) 
University of Tokyo Team, {Faculty of Engineering, University of Tokyo

>  <COMMENT>  (255) 
SMILES=CCCOC(OCCC)(OCCC)OCCC
InChI=InChI=1S/C13H28O4/c1-5-9-14-13(15-10-6-2,16-11-7-3)17-12-8-4/h5-12H2,1-4H3
computed SMILES=O(CCC)C(OCCC)(OCCC)OCCC
date=2016.01.19 (Created 2008.10.21, modified 2011.05.06)
author=TAJIMA S, GUNMA COLLEGE OF TECHNOLOGY
license=CC BY-NC-SA
exact mass=248.19876
ionization energy=70 eV
ion type=[M]+*
computed spectral entropy=2.285529905796167
accession=JP011772
computed normalized entropy=0.7289217419649711
SPLASH=splash10-06rf-9700000000-03c15dc78feeee303cac
submitter=submitter = University of Tokyo Team (Faculty of Engineering, University of Tokyo)
MoNA Rating=3.75

>  <NUM PEAKS>  (255) 
23

>  <MASS SPECTRAL PEAKS>  (255) 
27 18.13
29 8.86
30 1.44
31 8.25
39 4.95
40 1.17
41 25.11
42 8.41
43 86.48
44 3.07
59 7.63
61 1.23
63 88.93
64 1.18
76 2.68
104 1.27
105 67.03
106 3.08
147 24.47
148 1.93
189 99.99
190 11.61
191 1.42

>  <PREDICTED SPECTRUM>  (255) 
15 82
26 33
27 216
29 91
31 376
33 8
38 46
39 280
40 145
41 574
42 390
43 999
44 227
45 358
46 48
47 154
49 34
51 22
55 35
57 140
58 115
59 356
61 119
62 7
63 318
64 41
65 226
66 41
67 12
71 28
73 44
75 206
76 119
77 321
78 63
79 35
81 33
85 46
86 74
87 162
89 131
91 122
93 48
101 17
103 20
104 50
105 434
106 123
107 94
119 131
121 54
123 423
124 671
126 66
131 106
133 6
146 33
147 402
148 37
157 24
161 189
162 68
165 89
189 396
190 78
207 47
219 129

$$$$

     RDKit          2D

 11 11  0  0  0  0  0  0  0  0999 V2000
    4.5401   -0.3765    0.0000 C   0  0  0  0  0  0  0  0  0  0  0  0
   -3.2546   -0.3812    0.0000 C   0  0  0  0  0  0  0  0  0  0  0  0
    0.6471   -2.6191    0.0000 C   0  0  0  0  0  0  0  0  0  0  0  0
    1.9416   -1.8769    0.0000 C   0  0  0  0  0  0  0  0  0  0  0  0
   -0.6520   -1.8691    0.0000 C   0  0  0  0  0  0  0  0  0  0  0  0
    0.6430    0.3740    0.0000 C   0  0  0  0  0  0  0  0  0  0  0  0
    3.2412    0.3737    0.0000 C   0  0  0  0  0  0  0  0  0  0  0  0
    1.9421   -0.3760    0.0000 C   0  0  0  0  0  0  0  0  0  0  0  0
   -0.6565   -0.3769    0.0000 C   0  0  0  0  0  0  0  0  0  0  0  0
    3.2415    1.8737    0.0000 O   0  0  0  0  0  0  0  0  0  0  0  0
   -1.9568    0.3709    0.0000 O   0  0  0  0  0  0  0  0  0  0  0  0
  4  3  2  0
  5  3  1  0
  7  1  1  0
  8  4  1  0
  8  6  2  0
  8  7  1  0
  9  5  2  0
  9  6  1  0
 10  7  2  0
 11  2  1  0
 11  9  1  0
M  END
>  <NAME>  (256) 
META-METHOXYACETOPHENONE

>  <SYNONYMS>  (256) 
META-ACETYLANISOLE

>  <SPECTRUM TYPE>  (256) 
MS1

>  <INSTRUMENT TYPE>  (256) 
EI-B

>  <INSTRUMENT>  (256) 
HITACHI M-80A

>  <ION MODE>  (256) 
P

>  <INCHIKEY>  (256) 
BAYUSCHCCGXLAY-UHFFFAOYSA-N

>  <FORMULA>  (256) 
C9H10O2

>  <EXACT MASS>  (256) 
150.06807956

>  <MW>  (256) 
150

>  <ID>  (256) 
JP011771

>  <CONTRIBUTOR>  (256) 
University of Tokyo Team, {Faculty of Engineering, University of Tokyo

>  <COMMENT>  (256) 
SMILES=COc(c1)cc(cc1)C(C)=O
InChI=InChI=1S/C9H10O2/c1-7(10)8-4-3-5-9(6-8)11-2/h3-6H,1-2H3
computed SMILES=O=C(C=1C=CC=C(OC)C1)C
accession=JP011771
author=TAJIMA S, GUNMA COLLEGE OF TECHNOLOGY
license=CC BY-NC-SA
exact mass=150.06808
date=2016.01.19 (Created 2008.10.21, modified 2011.05.06)
ionization energy=70 eV
ion type=[M]+*
computed spectral entropy=2.532252640494665
computed normalized entropy=0.7520137131832687
SPLASH=splash10-0f79-6900000000-9fa2d0bc92f056e89b2b
submitter=submitter = University of Tokyo Team (Faculty of Engineering, University of Tokyo)
MoNA Rating=3.75

>  <NUM PEAKS>  (256) 
29

>  <MASS SPECTRAL PEAKS>  (256) 
29 1.7
38 3
39 3.2
42 1.77
43 18.67
50 5.77
51 4.78
52 1.64
53 1.62
62 3.45
63 12.24
64 12.4
65 3.94
74 3.23
75 2.5
76 5.26
77 29.42
78 5.6
79 2.55
91 2.46
92 22.58
93 1.81
107 33.69
108 2.89
120 1
135 99.99
136 6.72
150 58.52
151 4.58

>  <PREDICTED SPECTRUM>  (256) 
14 44
15 143
16 16
18 9
25 5
26 45
27 46
28 25
29 19
37 104
38 179
39 170
40 66
41 42
42 61
43 611
44 42
49 61
50 339
51 437
52 227
53 167
54 3
61 87
62 231
63 406
64 343
65 233
66 113
67 16
74 161
75 201
76 228
77 613
78 271
79 295
80 48
89 100
91 125
92 393
93 111
103 30
104 45
105 54
106 44
107 443
108 178
119 29
120 135
121 132
135 999
136 315
137 29
150 672
151 196

$$$$

     RDKit          2D

 11 11  0  0  0  0  0  0  0  0999 V2000
    1.9487    3.0002    0.0000 C   0  0  0  0  0  0  0  0  0  0  0  0
    1.9487   -3.0002    0.0000 C   0  0  0  0  0  0  0  0  0  0  0  0
   -1.9500    0.7500    0.0000 C   0  0  0  0  0  0  0  0  0  0  0  0
   -1.9500   -0.7500    0.0000 C   0  0  0  0  0  0  0  0  0  0  0  0
   -0.6500    1.5000    0.0000 C   0  0  0  0  0  0  0  0  0  0  0  0
   -0.6500   -1.5000    0.0000 C   0  0  0  0  0  0  0  0  0  0  0  0
    1.9489    1.5002    0.0000 C   0  0  0  0  0  0  0  0  0  0  0  0
    0.6500    0.7500    0.0000 C   0  0  0  0  0  0  0  0  0  0  0  0
    0.6500   -0.7500    0.0000 C   0  0  0  0  0  0  0  0  0  0  0  0
    3.2481    0.7504    0.0000 O   0  0  0  0  0  0  0  0  0  0  0  0
    1.9489   -1.5002    0.0000 O   0  0  0  0  0  0  0  0  0  0  0  0
  4  3  2  0
  5  3  1  0
  6  4  1  0
  7  1  1  0
  8  5  2  0
  8  7  1  0
  9  6  2  0
  9  8  1  0
 10  7  2  0
 11  2  1  0
 11  9  1  0
M  END
>  <NAME>  (257) 
ORTHO-METHOXYACETOPHENONE

>  <SYNONYMS>  (257) 
ORTHO-ACETYLANISOLE

>  <SPECTRUM TYPE>  (257) 
MS1

>  <INSTRUMENT TYPE>  (257) 
EI-B

>  <INSTRUMENT>  (257) 
HITACHI M-80A

>  <ION MODE>  (257) 
P

>  <INCHIKEY>  (257) 
DWPLEOPKBWNPQV-UHFFFAOYSA-N

>  <FORMULA>  (257) 
C9H10O2

>  <EXACT MASS>  (257) 
150.06807956

>  <MW>  (257) 
150

>  <ID>  (257) 
JP011770

>  <CONTRIBUTOR>  (257) 
University of Tokyo Team, {Faculty of Engineering, University of Tokyo

>  <COMMENT>  (257) 
SMILES=COc(c1)c(ccc1)C(C)=O
InChI=InChI=1S/C9H10O2/c1-7(10)8-5-3-4-6-9(8)11-2/h3-6H,1-2H3
computed SMILES=O=C(C=1C=CC=CC1OC)C
accession=JP011770
date=2016.01.19 (Created 2008.10.21, modified 2011.05.06)
author=TAJIMA S, GUNMA COLLEGE OF TECHNOLOGY
license=CC BY-NC-SA
exact mass=150.06808
ionization energy=70 eV
ion type=[M]+*
computed spectral entropy=2.7669686264115048
computed normalized entropy=0.7606606427762614
SPLASH=splash10-000i-9700000000-676b8bbe30b58c5fa762
submitter=submitter = University of Tokyo Team (Faculty of Engineering, University of Tokyo)
MoNA Rating=3.75

>  <NUM PEAKS>  (257) 
38

>  <MASS SPECTRAL PEAKS>  (257) 
27 1.58
29 2.49
31 1.51
37 1.05
38 3.45
39 5.06
42 1.65
43 18.31
50 6.92
51 9.88
52 2.77
53 2.45
58 1
61 1.18
62 3.05
63 10.94
64 8.18
65 5.43
74 2.55
75 2.14
76 3.89
77 37.07
78 9.54
79 4.35
89 1.39
91 3.35
92 20.69
93 2.49
104 1.09
105 3.45
107 2.03
120 4.85
121 5.46
133 1.48
135 99.99
136 8.85
150 17.54
151 1.16

>  <PREDICTED SPECTRUM>  (257) 
14 25
15 115
26 22
27 33
28 1
29 24
37 69
38 132
39 170
40 39
41 24
43 412
49 38
50 274
51 421
52 168
53 170
61 82
62 166
63 301
64 280
65 255
66 121
67 88
74 134
75 152
76 196
77 722
78 246
79 345
80 72
89 92
91 151
92 382
93 164
94 13
102 25
103 72
104 55
105 362
106 119
107 396
108 136
119 183
120 177
121 161
122 20
133 92
134 23
135 999
136 308
137 73
148 14
149 57
150 693
151 238
152 37

$$$$

     RDKit          2D

  8  8  0  0  0  0  0  0  0  0999 V2000
    0.6513   -2.2440    0.0000 C   0  0  0  0  0  0  0  0  0  0  0  0
    1.9458   -1.5018    0.0000 C   0  0  0  0  0  0  0  0  0  0  0  0
   -0.6478   -1.4940    0.0000 C   0  0  0  0  0  0  0  0  0  0  0  0
    1.9463   -0.0009    0.0000 C   0  0  0  0  0  0  0  0  0  0  0  0
   -0.6523   -0.0018    0.0000 C   0  0  0  0  0  0  0  0  0  0  0  0
    0.6472    0.7491    0.0000 C   0  0  0  0  0  0  0  0  0  0  0  0
   -1.9526    0.7460    0.0000 O   0  0  0  0  0  0  0  0  0  0  0  0
    0.6470    2.2491    0.0000 O   0  0  0  0  0  0  0  0  0  0  0  0
  2  1  2  0
  3  1  1  0
  4  2  1  0
  5  3  2  0
  6  4  2  0
  6  5  1  0
  7  5  1  0
  8  6  1  0
M  END
>  <NAME>  (258) 
CATECHOL

>  <SYNONYMS>  (258) 
ORTHO-DIHYDROXYBENZENE

>  <SPECTRUM TYPE>  (258) 
MS1

>  <INSTRUMENT TYPE>  (258) 
EI-B

>  <INSTRUMENT>  (258) 
HITACHI M-80A

>  <ION MODE>  (258) 
P

>  <INCHIKEY>  (258) 
YCIMNLLNPGFGHC-UHFFFAOYSA-N

>  <FORMULA>  (258) 
C6H6O2

>  <EXACT MASS>  (258) 
110.036779432

>  <MW>  (258) 
110

>  <ID>  (258) 
JP011769

>  <CONTRIBUTOR>  (258) 
University of Tokyo Team, {Faculty of Engineering, University of Tokyo

>  <COMMENT>  (258) 
SMILES=Oc(c1)c(O)ccc1
InChI=InChI=1S/C6H6O2/c7-5-3-1-2-4-6(5)8/h1-4,7-8H
computed SMILES=OC=1C=CC=CC1O
accession=JP011769
ionization energy=70 eV
date=2016.01.19 (Created 2008.10.21, modified 2011.05.06)
author=TAJIMA S, GUNMA COLLEGE OF TECHNOLOGY
license=CC BY-NC-SA
exact mass=110.03678
ion type=[M]+*
computed spectral entropy=2.781758062765231
computed normalized entropy=0.7955818810237396
SPLASH=splash10-03di-9400000000-90885264baa17f65d954
submitter=submitter = University of Tokyo Team (Faculty of Engineering, University of Tokyo)
MoNA Rating=3.75

>  <NUM PEAKS>  (258) 
33

>  <MASS SPECTRAL PEAKS>  (258) 
26 4.28
27 10.37
29 6.68
37 3.56
38 7.36
39 11.04
40 1.05
42 1.95
43 1.49
46 1.28
49 2.69
50 9.3
51 10.71
52 7.76
53 19.6
54 6.22
55 10.13
61 2.55
62 5.26
63 28.34
64 50.09
65 4.78
66 1.73
77 1.26
79 1.56
80 1.02
81 23.18
82 6.56
92 16.73
93 1.86
109 5.7
110 99.99
111 15.37

>  <PREDICTED SPECTRUM>  (258) 
16 0
17 19
18 37
19 0
25 26
26 109
27 212
28 111
29 124
31 41
36 76
37 117
38 185
39 330
40 122
41 279
42 129
43 31
44 108
45 69
46 60
47 26
48 15
49 67
50 228
51 347
52 294
53 390
54 280
55 280
56 89
57 13
61 78
62 117
63 262
64 392
65 329
66 93
67 4
69 57
70 7
71 10
74 8
75 58
79 45
80 6
81 317
82 224
83 52
91 135
92 343
93 204
108 20
109 150
110 999
111 285
112 53

$$$$

     RDKit          2D

  8  8  0  0  0  0  0  0  0  0999 V2000
   -1.3000    0.7500    0.0000 C   0  0  0  0  0  0  0  0  0  0  0  0
    0.0000    1.5000    0.0000 C   0  0  0  0  0  0  0  0  0  0  0  0
   -1.3000   -0.7500    0.0000 C   0  0  0  0  0  0  0  0  0  0  0  0
    1.3000    0.7500    0.0000 C   0  0  0  0  0  0  0  0  0  0  0  0
    0.0000   -1.5000    0.0000 C   0  0  0  0  0  0  0  0  0  0  0  0
    1.3000   -0.7500    0.0000 C   0  0  0  0  0  0  0  0  0  0  0  0
   -0.0000   -3.0000    0.0000 F   0  0  0  0  0  0  0  0  0  0  0  0
    2.5989   -1.5002    0.0000 O   0  0  0  0  0  0  0  0  0  0  0  0
  2  1  2  0
  3  1  1  0
  4  2  1  0
  5  3  2  0
  6  4  2  0
  6  5  1  0
  7  5  1  0
  8  6  1  0
M  END
>  <NAME>  (259) 
ORTHO-FLUOROPHENOL

>  <SYNONYMS>  (259) 
2-FLUOROPHENOL

>  <SPECTRUM TYPE>  (259) 
MS1

>  <INSTRUMENT TYPE>  (259) 
EI-B

>  <INSTRUMENT>  (259) 
HITACHI M-80A

>  <ION MODE>  (259) 
P

>  <INCHIKEY>  (259) 
HFHFGHLXUCOHLN-UHFFFAOYSA-N

>  <FORMULA>  (259) 
C6H5FO

>  <EXACT MASS>  (259) 
112.032443

>  <MW>  (259) 
112

>  <ID>  (259) 
JP011768

>  <CONTRIBUTOR>  (259) 
University of Tokyo Team, {Faculty of Engineering, University of Tokyo

>  <COMMENT>  (259) 
SMILES=Oc(c1)c(F)ccc1
InChI=InChI=1S/C6H5FO/c7-5-3-1-2-4-6(5)8/h1-4,8H
computed SMILES=FC=1C=CC=CC1O
accession=JP011768
date=2016.01.19 (Created 2008.10.21, modified 2011.05.06)
author=TAJIMA S, GUNMA COLLEGE OF TECHNOLOGY
license=CC BY-NC-SA
exact mass=112.03244
ionization energy=70 eV
ion type=[M]+*
computed spectral entropy=3.2257026723083544
computed normalized entropy=0.8049499562939952
SPLASH=splash10-03di-9200000000-26c5660c866c158228f0
submitter=submitter = University of Tokyo Team (Faculty of Engineering, University of Tokyo)
MoNA Rating=3.75

>  <NUM PEAKS>  (259) 
55

>  <MASS SPECTRAL PEAKS>  (259) 
26 3.13
27 3.05
29 6.05
31 10.34
33 1.34
37 7.94
38 14.13
39 14.48
40 1.34
41 1.15
42 1.97
43 8.31
44 1.57
45 3.01
49 3.64
50 10.71
51 6.99
52 1.56
53 10.02
55 4.01
56 17.44
57 41.96
58 7.37
60 2.04
61 9.04
62 13.14
63 52.93
64 67.8
65 11.06
66 3.36
68 4.22
69 3.44
70 1.56
71 1.02
73 6.87
74 4.72
75 4.93
76 1.72
77 1.13
79 1.45
80 2.4
81 12.43
82 5.22
83 49.65
84 9.23
86 1.15
91 1.34
92 43.6
93 4.04
94 2.17
95 1.38
110 1.43
111 5.58
112 99.99
113 23.18

>  <PREDICTED SPECTRUM>  (259) 
14 3
17 15
19 8
25 43
26 55
27 40
28 35
29 74
31 141
32 1
33 84
36 36
37 155
38 187
39 197
40 30
44 72
46 35
48 0
49 130
50 269
51 246
52 149
53 130
54 39
55 62
56 178
57 445
58 31
60 29
61 176
62 197
63 317
64 359
65 165
66 146
67 0
68 101
69 70
70 11
73 96
74 76
75 171
81 227
82 61
83 477
84 292
85 68
92 104
93 145
94 203
95 72
110 107
111 220
112 999
113 279
114 74

$$$$

     RDKit          2D

 11 11  0  0  0  0  0  0  0  0999 V2000
   -1.9500    0.7500    0.0000 C   0  0  0  0  0  0  0  0  0  0  0  0
   -1.9500   -0.7500    0.0000 C   0  0  0  0  0  0  0  0  0  0  0  0
   -0.6500    1.5000    0.0000 C   0  0  0  0  0  0  0  0  0  0  0  0
   -0.6500   -1.5000    0.0000 C   0  0  0  0  0  0  0  0  0  0  0  0
    0.6500    0.7500    0.0000 C   0  0  0  0  0  0  0  0  0  0  0  0
    0.6500   -0.7500    0.0000 C   0  0  0  0  0  0  0  0  0  0  0  0
    1.9489    1.5002    0.0000 C   0  0  0  0  0  0  0  0  0  0  0  0
    2.6991    0.2013    0.0000 F   0  0  0  0  0  0  0  0  0  0  0  0
    3.2478    2.2504    0.0000 F   0  0  0  0  0  0  0  0  0  0  0  0
    1.1987    2.7991    0.0000 F   0  0  0  0  0  0  0  0  0  0  0  0
    1.9489   -1.5002    0.0000 O   0  0  0  0  0  0  0  0  0  0  0  0
  2  1  2  0
  3  1  1  0
  4  2  1  0
  5  3  2  0
  6  4  2  0
  6  5  1  0
  7  5  1  0
  8  7  1  0
  9  7  1  0
 10  7  1  0
 11  6  1  0
M  END
>  <NAME>  (260) 
2,2,2-TRIFLUORO-META-CRESOL

>  <SYNONYMS>  (260) 
META-HYDROXYBENZOTRIFLUORIDE

>  <SPECTRUM TYPE>  (260) 
MS1

>  <INSTRUMENT TYPE>  (260) 
EI-B

>  <INSTRUMENT>  (260) 
HITACHI M-80A

>  <ION MODE>  (260) 
P

>  <INCHIKEY>  (260) 
ZOQOPXVJANRGJZ-UHFFFAOYSA-N

>  <FORMULA>  (260) 
C7H5F3O

>  <EXACT MASS>  (260) 
162.02924944

>  <MW>  (260) 
162

>  <ID>  (260) 
JP011767

>  <CONTRIBUTOR>  (260) 
University of Tokyo Team, {Faculty of Engineering, University of Tokyo

>  <COMMENT>  (260) 
SMILES=Oc(c1)c(ccc1)C(F)(F)F
InChI=InChI=1S/C7H5F3O/c8-7(9,10)5-3-1-2-4-6(5)11/h1-4,11H
computed SMILES=FC(F)(F)C=1C=CC=CC1O
accession=JP011767
date=2016.01.19 (Created 2008.10.21, modified 2011.05.06)
author=TAJIMA S, GUNMA COLLEGE OF TECHNOLOGY
license=CC BY-NC-SA
exact mass=162.02925
ionization energy=70 eV
ion type=[M]+*
computed spectral entropy=3.3577258927618434
computed normalized entropy=0.8269358501130619
SPLASH=splash10-03di-8900000000-e5568cbdd3c4450d2517
submitter=submitter = University of Tokyo Team (Faculty of Engineering, University of Tokyo)
MoNA Rating=3.75

>  <NUM PEAKS>  (260) 
58

>  <MASS SPECTRAL PEAKS>  (260) 
27 2.61
29 5.6
31 3.88
37 6.83
38 15.24
39 34.45
40 1.45
42 1.36
49 1.7
50 10.67
51 5.5
53 8.09
55 1.64
56 1.82
57 9.33
61 5.84
62 11.02
63 30.06
64 9.65
65 20.89
66 2.89
67 1.1
68 1.91
69 13.95
70 1.3
72 1.66
73 1.59
74 5.19
75 11.68
76 1.47
81 3.61
83 12.22
84 7.67
87 1.61
88 8.3
89 1.75
92 2.31
93 2.72
94 1.59
95 6.49
99 2.06
112 31.79
113 12.19
114 42.09
115 5
123 1.83
125 2.06
132 2.55
133 7.53
134 1.68
141 3.86
142 1.05
143 47.09
144 4.51
145 7.28
161 9.46
162 99.99
163 8.1

>  <PREDICTED SPECTRUM>  (260) 
14 9
17 2
19 32
25 42
26 65
27 56
28 44
29 128
31 96
33 16
36 51
37 190
38 237
39 296
40 102
43 145
44 3
49 66
50 349
51 334
52 124
53 54
56 167
57 345
61 117
62 202
63 396
64 239
65 314
66 172
67 6
68 152
69 424
73 56
74 210
75 399
76 122
79 1
81 173
83 241
84 66
85 45
86 96
87 181
88 178
89 105
90 20
92 63
93 141
94 202
95 228
96 144
99 5
106 61
112 84
113 308
114 999
115 300
116 80
123 122
133 225
141 70
142 469
143 500
144 113
145 84
162 875
163 281
164 25

$$$$

     RDKit          2D

  7  6  0  0  0  0  0  0  0  0999 V2000
   -2.5111    2.0993    0.0000 C   0  0  0  0  0  0  0  0  0  0  0  0
   -1.2120    1.3493    0.0000 C   0  0  0  0  0  0  0  0  0  0  0  0
    0.0870    2.0993    0.0000 C   0  0  0  0  0  0  0  0  0  0  0  0
    0.8370    0.8002    0.0000 F   0  0  0  0  0  0  0  0  0  0  0  0
    1.3861    2.8493    0.0000 F   0  0  0  0  0  0  0  0  0  0  0  0
   -0.6630    3.3983    0.0000 F   0  0  0  0  0  0  0  0  0  0  0  0
   -1.2120   -0.1507    0.0000 O   0  0  0  0  0  0  0  0  0  0  0  0
  2  1  1  0
  3  2  1  0
  4  3  1  0
  5  3  1  0
  6  3  1  0
  7  2  2  0
M  END
>  <NAME>  (261) 
1,1,1-TRIFLUOROACETONE

>  <SYNONYMS>  (261) 


>  <SPECTRUM TYPE>  (261) 
MS1

>  <INSTRUMENT TYPE>  (261) 
EI-B

>  <INSTRUMENT>  (261) 
HITACHI M-80A

>  <ION MODE>  (261) 
P

>  <INCHIKEY>  (261) 
FHUDAMLDXFJHJE-UHFFFAOYSA-N

>  <FORMULA>  (261) 
C3H3F3O

>  <EXACT MASS>  (261) 
112.013599376

>  <MW>  (261) 
112

>  <ID>  (261) 
JP011766

>  <CONTRIBUTOR>  (261) 
University of Tokyo Team, {Faculty of Engineering, University of Tokyo

>  <COMMENT>  (261) 
SMILES=CC(=O)C(F)(F)F
InChI=InChI=1S/C3H3F3O/c1-2(7)3(4,5)6/h1H3
computed SMILES=O=C(C)C(F)(F)F
accession=JP011766
date=2016.01.19 (Created 2008.10.21, modified 2011.05.06)
author=TAJIMA S, GUNMA COLLEGE OF TECHNOLOGY
license=CC BY-NC-SA
exact mass=112.0136
ionization energy=70 eV
ion type=[M]+*
computed spectral entropy=1.8094063769335382
computed normalized entropy=0.6260116443465956
SPLASH=splash10-00kf-9000000000-11dbb8873168018b095f
submitter=submitter = University of Tokyo Team (Faculty of Engineering, University of Tokyo)
MoNA Rating=3.75

>  <NUM PEAKS>  (261) 
18

>  <MASS SPECTRAL PEAKS>  (261) 
14 6.17
15 57.35
26 1.75
27 1.17
29 2.48
31 6.83
33 1.84
41 2.85
42 12.03
43 99.99
44 3.24
50 6.58
51 1.23
59 1.11
69 32.48
75 1.08
78 1.42
97 1.22

>  <PREDICTED SPECTRUM>  (261) 
14 64
15 144
16 19
19 28
25 19
26 32
27 65
28 45
29 48
31 35
32 30
42 40
43 835
44 142
45 132
47 172
49 63
50 185
65 96
69 999
70 45
93 86
97 554
112 453
113 78

$$$$

     RDKit          2D

 26 29  0  0  0  0  0  0  0  0999 V2000
    3.3490    2.4510    0.0000 C   0  0  0  0  0  0  0  0  0  0  0  0
    3.8981    4.5000    0.0000 C   0  0  0  0  0  0  0  0  0  0  0  0
    1.8490    5.0490    0.0000 C   0  0  0  0  0  0  0  0  0  0  0  0
    0.7870    4.4095    0.0000 C   0  0  0  0  0  0  0  0  0  0  0  0
    5.2000   -0.7500    0.0000 C   0  0  0  0  0  0  0  0  0  0  0  0
   -3.0703    6.1896    0.0000 C   0  0  0  0  0  0  0  0  0  0  0  0
    5.2000    0.7500    0.0000 C   0  0  0  0  0  0  0  0  0  0  0  0
   -1.5930    6.4500    0.0000 C   0  0  0  0  0  0  0  0  0  0  0  0
   -0.0000   -0.7500    0.0000 C   0  0  0  0  0  0  0  0  0  0  0  0
   -2.1673    1.0686    0.0000 C   0  0  0  0  0  0  0  0  0  0  0  0
    3.9000   -1.5000    0.0000 C   0  0  0  0  0  0  0  0  0  0  0  0
   -3.5831    4.7791    0.0000 C   0  0  0  0  0  0  0  0  0  0  0  0
    1.3000   -1.5000    0.0000 C   0  0  0  0  0  0  0  0  0  0  0  0
   -3.1316    2.2186    0.0000 C   0  0  0  0  0  0  0  0  0  0  0  0
    3.9000    1.5000    0.0000 C   0  0  0  0  0  0  0  0  0  0  0  0
   -0.6287    5.3000    0.0000 C   0  0  0  0  0  0  0  0  0  0  0  0
   -0.0000    0.7500    0.0000 C   0  0  0  0  0  0  0  0  0  0  0  0
   -0.6901    1.3290    0.0000 C   0  0  0  0  0  0  0  0  0  0  0  0
    2.6000   -0.7500    0.0000 C   0  0  0  0  0  0  0  0  0  0  0  0
   -2.6188    3.6291    0.0000 C   0  0  0  0  0  0  0  0  0  0  0  0
    2.6000    0.7500    0.0000 C   0  0  0  0  0  0  0  0  0  0  0  0
   -1.1416    3.8895    0.0000 C   0  0  0  0  0  0  0  0  0  0  0  0
    1.3000    1.5000    0.0000 C   0  0  0  0  0  0  0  0  0  0  0  0
   -0.1772    2.7395    0.0000 C   0  0  0  0  0  0  0  0  0  0  0  0
    2.5990    3.7500    0.0000 Si  0  0  0  0  0  4  0  0  0  0  0  0
    1.3000    3.0000    0.0000 Si  0  0  0  0  0  4  0  0  0  0  0  0
  7  5  2  0
  8  6  2  0
 11  5  1  0
 12  6  1  0
 13  9  2  0
 14 10  2  0
 15  7  1  0
 16  8  1  0
 17  9  1  0
 18 10  1  0
 19 11  2  0
 19 13  1  0
 20 12  2  0
 20 14  1  0
 21 15  2  0
 21 19  1  0
 22 16  2  0
 22 20  1  0
 23 17  2  0
 23 21  1  0
 24 18  2  0
 24 22  1  0
 25  1  1  0
 25  2  1  0
 25  3  1  0
 26  4  1  0
 26 23  1  0
 26 24  1  0
 26 25  1  0
M  END
>  <NAME>  (262) 
1,2,2,2-(TETRAMETHYL)-1,1-DI(1-NAPHTHYL)DISILANE

>  <SYNONYMS>  (262) 


>  <SPECTRUM TYPE>  (262) 
MS1

>  <INSTRUMENT TYPE>  (262) 
EI-B

>  <INSTRUMENT>  (262) 
SHIMADZU QP-1000

>  <ION MODE>  (262) 
P

>  <INCHIKEY>  (262) 
GEYWEFDIDTUDMB-UHFFFAOYSA-N

>  <FORMULA>  (262) 
C24H26Si2

>  <EXACT MASS>  (262) 
370.157303892

>  <MW>  (262) 
370

>  <ID>  (262) 
JP011765

>  <CONTRIBUTOR>  (262) 
University of Tokyo Team, {Faculty of Engineering, University of Tokyo

>  <COMMENT>  (262) 
SMILES=[Si](C)([Si](C)(C)C)(c(c3)c(c4)c(ccc4)cc3)c(c1)c(c2)c(ccc2)cc1
InChI=InChI=1S/C24H26Si2/c1-25(2,3)26(4,23-17-9-13-19-11-5-7-15-21(19)23)24-18-10-14-20-12-6-8-16-22(20)24/h5-18H,1-4H3
computed SMILES=C=1C=CC2=C(C1)C=CC=C2[Si](C3=CC=CC=4C=CC=CC43)(C)[Si](C)(C)C
accession=JP011765
date=2016.01.19 (Created 2008.10.21, modified 2011.05.06)
author=FAC. TECHNOLOGY, HIROSHIMA UNIV.
license=CC BY-NC-SA
exact mass=370.1573
ionization energy=70 eV
ion type=[M]+*
computed spectral entropy=3.19471182496855
computed normalized entropy=0.777136913105214
SPLASH=splash10-00kb-2972000000-fb5bc3157ae493505baa
submitter=submitter = University of Tokyo Team (Faculty of Engineering, University of Tokyo)
MoNA Rating=3.75

>  <NUM PEAKS>  (262) 
61

>  <MASS SPECTRAL PEAKS>  (262) 
43 15.2
45 19.2
46 1.3
53 6.4
55 1
57 1.3
59 2.4
73 22.3
77 1.6
103 2.2
105 1.3
115 3
129 8.5
130 1.3
131 1.7
141 2.1
142 1
143 2.4
145 2.9
153 2.1
154 4
155 15.1
156 2.6
157 1.4
167 22.9
168 6.3
169 71.3
170 15.1
171 4.4
181 2.1
182 1.3
183 5.1
184 1.5
185 33.7
186 6.3
187 1.7
225 1
227 11.8
228 2.8
229 1.6
241 1.2
242 1.6
252 5.8
253 2.3
255 1
265 1.6
278 1.2
279 2.1
281 2.8
282 1.4
295 3.7
296 2
297 99.99
298 29.6
299 7.1
300 1.1
311 2.7
355 1.7
370 33.6
371 12.7
372 4.9

>  <PREDICTED SPECTRUM>  (262) 
43 125
44 30
45 70
53 10
55 5
59 62
69 52
73 314
75 64
77 36
91 10
101 31
113 13
114 9
115 236
116 24
117 8
126 13
127 100
128 91
129 334
130 61
131 82
133 24
141 185
142 56
143 311
144 51
145 62
153 81
154 139
155 482
156 222
157 229
159 26
167 512
168 353
169 702
170 463
171 287
172 19
181 121
182 109
183 216
184 208
185 613
186 201
187 123
195 14
211 8
213 0
218 38
225 89
226 40
227 241
228 89
229 99
238 14
239 24
240 8
241 116
242 168
243 114
244 52
251 50
252 186
253 45
265 148
269 8
271 45
279 10
281 177
282 94
283 84
293 44
295 102
296 135
297 999
298 535
299 204
300 54
309 45
310 53
311 91
327 10
328 32
337 30
342 43
355 120
356 64
370 478
371 299
372 91

$$$$

     RDKit          2D

 26 29  0  0  0  0  0  0  0  0999 V2000
    2.5990   -3.7500    0.0000 C   0  0  0  0  0  0  0  0  0  0  0  0
    2.5990    3.7500    0.0000 C   0  0  0  0  0  0  0  0  0  0  0  0
   -2.5978   -5.2521    0.0000 C   0  0  0  0  0  0  0  0  0  0  0  0
   -2.5993    5.2496    0.0000 C   0  0  0  0  0  0  0  0  0  0  0  0
   -2.5976   -3.7512    0.0000 C   0  0  0  0  0  0  0  0  0  0  0  0
   -1.2987   -6.0019    0.0000 C   0  0  0  0  0  0  0  0  0  0  0  0
   -1.2994    5.9998    0.0000 C   0  0  0  0  0  0  0  0  0  0  0  0
   -2.5990    3.7496    0.0000 C   0  0  0  0  0  0  0  0  0  0  0  0
   -2.6000   -0.7500    0.0000 C   0  0  0  0  0  0  0  0  0  0  0  0
   -2.6000    0.7500    0.0000 C   0  0  0  0  0  0  0  0  0  0  0  0
   -1.2982   -3.0002    0.0000 C   0  0  0  0  0  0  0  0  0  0  0  0
    0.0007   -5.2508    0.0000 C   0  0  0  0  0  0  0  0  0  0  0  0
    0.0007    5.2500    0.0000 C   0  0  0  0  0  0  0  0  0  0  0  0
   -1.2989    2.9998    0.0000 C   0  0  0  0  0  0  0  0  0  0  0  0
   -1.3000   -1.5000    0.0000 C   0  0  0  0  0  0  0  0  0  0  0  0
   -1.3000    1.5000    0.0000 C   0  0  0  0  0  0  0  0  0  0  0  0
    2.6000   -0.7500    0.0000 C   0  0  0  0  0  0  0  0  0  0  0  0
    2.6000    0.7500    0.0000 C   0  0  0  0  0  0  0  0  0  0  0  0
    0.0010   -3.7500    0.0000 C   0  0  0  0  0  0  0  0  0  0  0  0
    0.0010    3.7500    0.0000 C   0  0  0  0  0  0  0  0  0  0  0  0
    0.0000   -0.7500    0.0000 C   0  0  0  0  0  0  0  0  0  0  0  0
    0.0000    0.7500    0.0000 C   0  0  0  0  0  0  0  0  0  0  0  0
    1.3000   -1.5000    0.0000 C   0  0  0  0  0  0  0  0  0  0  0  0
    1.3000    1.5000    0.0000 C   0  0  0  0  0  0  0  0  0  0  0  0
    1.3000   -3.0000    0.0000 Si  0  0  0  0  0  4  0  0  0  0  0  0
    1.3000    3.0000    0.0000 Si  0  0  0  0  0  4  0  0  0  0  0  0
  5  3  2  0
  6  3  1  0
  7  4  2  0
  8  4  1  0
 10  9  2  0
 11  5  1  0
 12  6  2  0
 13  7  1  0
 14  8  2  0
 15  9  1  0
 16 10  1  0
 18 17  1  0
 19 11  2  0
 19 12  1  0
 20 13  2  0
 20 14  1  0
 21 15  2  0
 22 16  2  0
 22 21  1  0
 23 17  2  0
 23 21  1  0
 24 18  2  0
 24 22  1  0
 25  1  1  0
 25 19  1  0
 25 23  1  0
 26  2  1  0
 26 20  1  0
 26 24  1  0
M  END
>  <NAME>  (263) 
1,4-BIS(METHLPHENYLSILYL)NAPHTHALENE

>  <SYNONYMS>  (263) 


>  <SPECTRUM TYPE>  (263) 
MS1

>  <INSTRUMENT TYPE>  (263) 
EI-B

>  <INSTRUMENT>  (263) 
SHIMADZU QP-1000

>  <ION MODE>  (263) 
P

>  <INCHIKEY>  (263) 
TXCYFZLDBJCYCD-UHFFFAOYSA-N

>  <FORMULA>  (263) 
C24H24Si2

>  <EXACT MASS>  (263) 
368.141653828

>  <MW>  (263) 
368

>  <ID>  (263) 
JP011764

>  <CONTRIBUTOR>  (263) 
University of Tokyo Team, {Faculty of Engineering, University of Tokyo

>  <COMMENT>  (263) 
SMILES=c(c4)ccc(c4)[SiH](C)c(c2)c(c3)c(ccc3)c(c2)[SiH](C)c(c1)cccc1
InChI=InChI=1S/C24H24Si2/c1-25(19-11-5-3-6-12-19)23-17-18-24(22-16-10-9-15-21(22)23)26(2)20-13-7-4-8-14-20/h3-18,25-26H,1-2H3
computed SMILES=C=1C=CC(=CC1)[SiH](C=2C=CC(=C3C=CC=CC32)[SiH](C=4C=CC=CC4)C)C
accession=JP011764
date=2016.01.19 (Created 2008.10.21, modified 2011.05.06)
author=FAC. TECHNOLOGY, HIROSHIMA UNIV.
license=CC BY-NC-SA
exact mass=368.14165
ionization energy=70 eV
ion type=[M]+*
computed spectral entropy=3.7773004998017923
computed normalized entropy=0.8133037424778602
SPLASH=splash10-00kb-4974000000-99ab4d71924e773634b0
submitter=submitter = University of Tokyo Team (Faculty of Engineering, University of Tokyo)
MoNA Rating=3.75

>  <NUM PEAKS>  (263) 
104

>  <MASS SPECTRAL PEAKS>  (263) 
32 3.8
39 2.2
43 53.4
45 5.2
50 1.3
51 2.9
52 1.1
53 14.7
55 2.5
59 1.1
65 1
67 2.3
69 2.9
77 3.3
78 3.6
79 5.8
81 2
91 5.8
93 4.3
95 4.8
97 1.1
98 3
103 4.1
104 1.4
105 36.7
106 8.7
107 3.6
115 1.5
117 1.1
119 5.4
120 5.5
121 26.5
122 3.9
123 1.5
128 1
129 6.3
130 5.2
131 2.2
135 6.6
136 3.1
137 5.3
142 1
143 2.6
144 4.6
145 6.6
153 2
154 1.6
155 8.5
156 1.5
165 1.2
167 6.8
168 2.4
169 21.7
170 5.3
171 2.9
179 2
181 2.5
183 3.4
185 1.7
195 3.2
197 50.6
198 9.6
199 2.9
202 2.9
203 1.3
205 2.5
212 5.6
213 2.3
215 3.5
229 2.8
230 1.9
231 9.6
232 3.1
233 2.2
240 1.3
241 1.3
243 1
245 7.3
246 2.4
247 99.99
248 23.7
249 6.2
250 1.1
257 1.2
271 1.6
273 2.2
275 13.3
276 4.1
277 1.8
289 2.6
290 5
291 1.8
307 1.1
309 6.8
310 1.8
323 1.8
351 1.2
353 5
354 2.1
367 3.5
368 70.7
369 25.4
370 8.9
371 2

>  <PREDICTED SPECTRUM>  (263) 
29 45
34 18
39 85
40 11
41 243
42 0
43 504
44 169
45 197
50 70
51 144
52 39
53 257
55 196
57 69
59 23
60 7
63 24
65 134
66 71
67 179
69 160
71 27
73 54
75 22
77 208
78 150
79 172
80 8
81 154
82 21
83 47
85 13
89 38
91 216
92 43
93 173
94 89
95 120
97 16
101 14
103 49
105 627
106 206
107 246
108 14
109 17
111 5
113 4
115 93
116 22
117 47
119 264
120 196
121 560
122 191
123 129
128 93
129 271
130 131
131 116
134 42
135 162
136 120
137 154
141 97
142 63
143 152
144 120
145 194
146 13
147 119
150 10
152 0
153 115
154 46
155 319
156 74
157 53
165 23
166 5
167 223
168 224
169 392
170 195
171 191
172 27
176 7
177 9
178 14
179 80
181 145
182 44
183 148
184 13
185 181
186 7
195 213
196 38
197 760
198 345
199 237
201 3
202 40
203 100
204 29
205 42
211 0
212 231
213 152
214 92
215 124
219 8
229 149
230 82
231 322
232 97
245 249
246 116
247 999
248 520
249 300
250 99
257 74
273 103
275 306
276 165
277 147
289 145
290 337
291 179
292 81
308 1
309 234
310 71
323 137
325 2
351 76
353 210
354 182
367 107
368 904
369 516
370 337
371 171
372 0

$$$$

     RDKit          2D

 26 29  0  0  0  0  0  0  0  0999 V2000
    4.4483   -0.5487    0.0000 C   0  0  0  0  0  0  0  0  0  0  0  0
    6.4972    0.0006    0.0000 C   0  0  0  0  0  0  0  0  0  0  0  0
    5.9479    2.0496    0.0000 C   0  0  0  0  0  0  0  0  0  0  0  0
    4.8629    2.6494    0.0000 C   0  0  0  0  0  0  0  0  0  0  0  0
   -2.6000   -0.7500    0.0000 C   0  0  0  0  0  0  0  0  0  0  0  0
    0.5544    7.5096    0.0000 C   0  0  0  0  0  0  0  0  0  0  0  0
   -2.6000    0.7500    0.0000 C   0  0  0  0  0  0  0  0  0  0  0  0
    2.0316    7.7701    0.0000 C   0  0  0  0  0  0  0  0  0  0  0  0
   -1.3000   -1.5000    0.0000 C   0  0  0  0  0  0  0  0  0  0  0  0
    0.0415    6.0992    0.0000 C   0  0  0  0  0  0  0  0  0  0  0  0
   -1.3000    1.5000    0.0000 C   0  0  0  0  0  0  0  0  0  0  0  0
    2.9959    6.6201    0.0000 C   0  0  0  0  0  0  0  0  0  0  0  0
    1.3000   -1.5000    0.0000 C   0  0  0  0  0  0  0  0  0  0  0  0
    0.4930    3.5387    0.0000 C   0  0  0  0  0  0  0  0  0  0  0  0
    2.6000   -0.7500    0.0000 C   0  0  0  0  0  0  0  0  0  0  0  0
    1.4573    2.3886    0.0000 C   0  0  0  0  0  0  0  0  0  0  0  0
    1.3000    1.5000    0.0000 C   0  0  0  0  0  0  0  0  0  0  0  0
    3.4474    4.0596    0.0000 C   0  0  0  0  0  0  0  0  0  0  0  0
    0.0000   -0.7500    0.0000 C   0  0  0  0  0  0  0  0  0  0  0  0
    1.0059    4.9491    0.0000 C   0  0  0  0  0  0  0  0  0  0  0  0
    0.0000    0.7500    0.0000 C   0  0  0  0  0  0  0  0  0  0  0  0
    2.4831    5.2096    0.0000 C   0  0  0  0  0  0  0  0  0  0  0  0
    2.6000    0.7500    0.0000 C   0  0  0  0  0  0  0  0  0  0  0  0
    2.9346    2.6491    0.0000 C   0  0  0  0  0  0  0  0  0  0  0  0
    5.1981    0.7504    0.0000 Si  0  0  0  0  0  4  0  0  0  0  0  0
    3.8989    1.5002    0.0000 Si  0  0  0  0  0  4  0  0  0  0  0  0
  7  5  2  0
  8  6  2  0
  9  5  1  0
 10  6  1  0
 11  7  1  0
 12  8  1  0
 15 13  2  0
 16 14  2  0
 19  9  2  0
 19 13  1  0
 20 10  2  0
 20 14  1  0
 21 11  2  0
 21 17  1  0
 21 19  1  0
 22 12  2  0
 22 18  1  0
 22 20  1  0
 23 15  1  0
 23 17  2  0
 24 16  1  0
 24 18  2  0
 25  1  1  0
 25  2  1  0
 25  3  1  0
 26  4  1  0
 26 23  1  0
 26 24  1  0
 26 25  1  0
M  END
>  <NAME>  (264) 
1,2,2,2-TETRAMETHYL-1,1-DI(2-NAPHTHYL)DISILANE

>  <SYNONYMS>  (264) 


>  <SPECTRUM TYPE>  (264) 
MS1

>  <INSTRUMENT TYPE>  (264) 
EI-B

>  <INSTRUMENT>  (264) 
SHIMADZU QP-1000

>  <ION MODE>  (264) 
P

>  <INCHIKEY>  (264) 
BCRNXLPGCYHFLZ-UHFFFAOYSA-N

>  <FORMULA>  (264) 
C24H26Si2

>  <EXACT MASS>  (264) 
370.15730389199996

>  <MW>  (264) 
370

>  <ID>  (264) 
JP011762

>  <CONTRIBUTOR>  (264) 
University of Tokyo Team, {Faculty of Engineering, University of Tokyo

>  <COMMENT>  (264) 
SMILES=[Si](C)([Si](C)(C)C)(c(c3)cc(c4)c(ccc4)c3)c(c1)cc(c2)c(ccc2)c1
InChI=InChI=1S/C24H26Si2/c1-25(2,3)26(4,23-15-13-19-9-5-7-11-21(19)17-23)24-16-14-20-10-6-8-12-22(20)18-24/h5-18H,1-4H3
computed SMILES=C=1C=CC=2C=C(C=CC2C1)[Si](C=3C=CC=4C=CC=CC4C3)(C)[Si](C)(C)C
accession=JP011762
date=2016.01.19 (Created 2008.10.21, modified 2011.05.06)
author=FAC. TECHNOLOGY, HIROSHIMA UNIV.
license=CC BY-NC-SA
exact mass=370.1573
ionization energy=70 eV
ion type=[M]+*
computed spectral entropy=3.3280408312770446
computed normalized entropy=0.7807390954225268
SPLASH=splash10-0002-4961000000-651504d2d410b0a074c0
submitter=submitter = University of Tokyo Team (Faculty of Engineering, University of Tokyo)
MoNA Rating=3.75

>  <NUM PEAKS>  (264) 
71

>  <MASS SPECTRAL PEAKS>  (264) 
40 2
41 1.4
43 23.7
45 19.9
46 1.3
50 1.1
51 1.2
53 9.3
55 1.8
57 2.2
58 1.6
59 3.5
63 1
73 24.2
75 1.7
77 2.3
103 2.5
105 1.8
115 3.8
116 2.4
117 1.3
119 1
127 1.2
128 2.5
129 9.7
130 1.6
131 2
141 2.9
142 1.1
143 3
145 2.7
153 2.2
154 1.9
155 17.4
156 3.1
157 1.5
167 20.5
168 5.2
169 44.7
170 9.5
171 3
181 2.2
182 1.2
183 3.7
184 1.4
185 49
186 9.2
187 2.3
227 9
228 2.4
229 1.1
241 1.1
242 1.6
252 4
253 1.6
255 1
265 2.7
278 1.2
279 2
280 1.1
281 2.5
295 2.4
296 1.4
297 99.99
298 27.1
299 6.9
300 1.3
355 1.8
370 22.5
371 8.5
372 3.1

>  <PREDICTED SPECTRUM>  (264) 
40 10
41 16
43 105
44 62
45 83
46 4
47 34
53 18
55 8
57 17
59 52
67 0
69 26
71 12
72 10
73 455
74 22
75 72
77 34
85 34
86 15
91 26
93 28
95 1
99 0
100 11
101 35
113 73
114 29
115 281
116 106
117 42
118 5
125 41
126 8
127 120
128 117
129 353
130 94
131 105
139 20
141 232
142 32
143 271
153 92
154 76
155 356
156 184
157 153
158 47
159 51
166 6
167 467
168 298
169 640
170 357
171 293
172 48
173 8
181 106
182 128
183 250
184 182
185 702
186 182
187 168
189 4
211 36
225 31
226 72
227 222
228 133
229 37
239 16
240 27
241 128
242 119
243 86
244 15
252 109
261 66
265 135
280 31
281 76
293 17
295 182
296 34
297 999
298 519
299 275
300 128
355 90
356 52
370 329
371 226
372 88
373 4

$$$$

     RDKit          2D

 26 29  0  0  0  0  0  0  0  0999 V2000
    2.5990    3.7500    0.0000 C   0  0  0  0  0  0  0  0  0  0  0  0
    1.1511    4.8634    0.0000 C   0  0  0  0  0  0  0  0  0  0  0  0
    3.3500    3.9526    0.0000 C   0  0  0  0  0  0  0  0  0  0  0  0
    3.6607    6.3123    0.0000 C   0  0  0  0  0  0  0  0  0  0  0  0
   -2.6000   -0.7500    0.0000 C   0  0  0  0  0  0  0  0  0  0  0  0
   -2.6000    0.7500    0.0000 C   0  0  0  0  0  0  0  0  0  0  0  0
    2.6000   -0.7500    0.0000 C   0  0  0  0  0  0  0  0  0  0  0  0
   -2.5976    3.7492    0.0000 C   0  0  0  0  0  0  0  0  0  0  0  0
    0.0024    8.2525    0.0000 C   0  0  0  0  0  0  0  0  0  0  0  0
   -1.3000   -1.5000    0.0000 C   0  0  0  0  0  0  0  0  0  0  0  0
    1.3000   -1.5000    0.0000 C   0  0  0  0  0  0  0  0  0  0  0  0
   -2.5971    5.2500    0.0000 C   0  0  0  0  0  0  0  0  0  0  0  0
   -1.2971    7.5017    0.0000 C   0  0  0  0  0  0  0  0  0  0  0  0
   -1.3000    1.5000    0.0000 C   0  0  0  0  0  0  0  0  0  0  0  0
    2.6000    0.7500    0.0000 C   0  0  0  0  0  0  0  0  0  0  0  0
   -1.2986    2.9992    0.0000 C   0  0  0  0  0  0  0  0  0  0  0  0
    1.3014    7.5025    0.0000 C   0  0  0  0  0  0  0  0  0  0  0  0
    0.0000   -0.7500    0.0000 C   0  0  0  0  0  0  0  0  0  0  0  0
   -1.2976    6.0008    0.0000 C   0  0  0  0  0  0  0  0  0  0  0  0
    0.0000    0.7500    0.0000 C   0  0  0  0  0  0  0  0  0  0  0  0
    1.3000    1.5000    0.0000 C   0  0  0  0  0  0  0  0  0  0  0  0
    0.0010    3.7500    0.0000 C   0  0  0  0  0  0  0  0  0  0  0  0
    1.3010    6.0017    0.0000 C   0  0  0  0  0  0  0  0  0  0  0  0
    0.0014    5.2508    0.0000 C   0  0  0  0  0  0  0  0  0  0  0  0
    1.3000    3.0000    0.0000 Si  0  0  0  0  0  4  0  0  0  0  0  0
    2.6000    5.2517    0.0000 Si  0  0  0  0  0  4  0  0  0  0  0  0
  6  5  2  0
 10  5  1  0
 11  7  2  0
 12  8  2  0
 13  9  1  0
 14  6  1  0
 15  7  1  0
 16  8  1  0
 17  9  2  0
 18 10  2  0
 18 11  1  0
 19 12  1  0
 19 13  2  0
 20 14  2  0
 20 18  1  0
 21 15  2  0
 21 20  1  0
 22 16  2  0
 23 17  1  0
 24 19  1  0
 24 22  1  0
 24 23  2  0
 25  1  1  0
 25 21  1  0
 25 22  1  0
 26  2  1  0
 26  3  1  0
 26  4  1  0
 26 23  1  0
M  END
>  <NAME>  (265) 
8-(TRIMETHYLSILYL)-1-(METHYL(1-NAPHTHYL)SILYL)NAPHTHALENE

>  <SYNONYMS>  (265) 


>  <SPECTRUM TYPE>  (265) 
MS1

>  <INSTRUMENT TYPE>  (265) 
EI-B

>  <INSTRUMENT>  (265) 
SHIMADZU QP-1000

>  <ION MODE>  (265) 
P

>  <INCHIKEY>  (265) 
RIUNZCLGVCVFFH-UHFFFAOYSA-N

>  <FORMULA>  (265) 
C24H26Si2

>  <EXACT MASS>  (265) 
370.15730389199996

>  <MW>  (265) 
370

>  <ID>  (265) 
JP011761

>  <CONTRIBUTOR>  (265) 
University of Tokyo Team, {Faculty of Engineering, University of Tokyo

>  <COMMENT>  (265) 
SMILES=c(c4)cc(c3)c(c4)c(cc3)[SiH](C)c(c2)c(c1cc2)c(ccc1)[Si](C)(C)C
InChI=InChI=1S/C24H26Si2/c1-25(21-15-7-11-18-10-5-6-14-20(18)21)22-16-8-12-19-13-9-17-23(24(19)22)26(2,3)4/h5-17,25H,1-4H3
computed SMILES=C=1C=CC2=C(C1)C=CC=C2[SiH](C=3C=CC=C4C=CC=C(C43)[Si](C)(C)C)C
accession=JP011761
date=2016.01.19 (Created 2008.10.21, modified 2011.05.06)
author=FAC. TECHNOLOGY, HIROSHIMA UNIV.
license=CC BY-NC-SA
exact mass=370.1573
ionization energy=70 eV
ion type=[M]+*
computed spectral entropy=3.244751599947159
computed normalized entropy=0.7773000898472653
SPLASH=splash10-0002-5890000000-7ff65f57d721145b92bc
submitter=submitter = University of Tokyo Team (Faculty of Engineering, University of Tokyo)
MoNA Rating=3.75

>  <NUM PEAKS>  (265) 
65

>  <MASS SPECTRAL PEAKS>  (265) 
43 26.6
45 22.5
53 4.9
55 1.1
57 1.4
59 8.4
73 40.1
75 1.6
77 1.2
103 1.4
105 1.4
115 2.2
128 1.8
129 5
130 1
131 1.3
141 2.2
143 2.1
145 6
146 1.1
153 1.7
154 2.4
155 10.6
156 1.8
157 1.1
167 14.8
168 4.8
169 44.3
170 9.6
171 8.9
172 1.3
181 2.2
182 1.2
183 5.5
184 1.6
185 33.7
186 6.3
187 1.7
195 1.3
197 1.2
211 1
227 9.1
228 2.4
229 1.4
252 6.1
253 2.2
265 1.1
278 1.2
279 1.9
280 1
281 4.3
282 1.6
293 1
295 7.5
296 8.7
297 99.99
298 35.4
299 6.5
300 1.1
311 1.6
355 3.6
356 1.4
370 8.6
371 3
372 1.1

>  <PREDICTED SPECTRUM>  (265) 
26 17
27 97
28 34
29 87
31 34
39 21
41 21
43 315
44 106
45 285
49 26
51 38
53 52
55 53
58 83
59 239
63 81
69 57
71 12
73 460
74 115
75 132
76 42
77 215
78 76
79 20
81 2
83 26
85 97
87 60
91 6
92 1
95 6
100 20
102 44
105 65
113 9
114 4
115 148
116 57
117 7
118 12
119 104
120 52
121 36
125 10
126 245
127 434
128 165
129 173
130 48
131 123
132 41
133 65
135 82
139 86
141 207
142 150
143 142
144 115
145 85
146 6
147 32
148 6
149 31
150 24
151 70
153 243
154 497
155 999
156 568
157 263
158 166
159 176
160 104
161 142
162 78
167 195
168 171
169 331
170 201
171 217
172 167
173 196
174 51
175 114
181 123
182 123
183 256
184 239
185 704
186 391
187 233
188 77
189 174
197 13
198 47
199 231
200 165
201 93
202 14
203 53
211 50
212 128
213 256
214 577
215 602
216 304
217 241
218 249
225 151
226 182
227 344
228 172
229 151
239 140
241 35
242 374
243 421
244 212
245 4
250 95
251 79
252 272
254 0
278 65
279 82
280 5
281 182
282 174
283 66
293 50
294 13
295 100
296 185
297 329
298 269
299 9
309 43
310 69
311 298
324 14
325 251
326 57
327 126
328 169
329 88
333 40
336 107
337 59
338 80
339 253
340 83
341 327
342 203
343 185
344 80
353 79
355 667
356 300
357 200
369 270
370 775
371 424
372 226
373 22

$$$$

     RDKit          2D

 10 10  0  0  0  0  0  0  0  0999 V2000
   -0.0000   -3.0000    0.0000 C   0  0  0  0  0  0  0  0  0  0  0  0
    3.8981   -0.7504    0.0000 C   0  0  0  0  0  0  0  0  0  0  0  0
   -1.3000    0.7500    0.0000 C   0  0  0  0  0  0  0  0  0  0  0  0
    0.0000    1.5000    0.0000 C   0  0  0  0  0  0  0  0  0  0  0  0
   -1.3000   -0.7500    0.0000 C   0  0  0  0  0  0  0  0  0  0  0  0
    1.3000    0.7500    0.0000 C   0  0  0  0  0  0  0  0  0  0  0  0
    0.0000   -1.5000    0.0000 C   0  0  0  0  0  0  0  0  0  0  0  0
    1.3000   -0.7500    0.0000 C   0  0  0  0  0  0  0  0  0  0  0  0
    2.5987   -3.0002    0.0000 Cl  0  0  0  0  0  0  0  0  0  0  0  0
    2.5989   -1.5002    0.0000 Si  0  0  0  0  0  4  0  0  0  0  0  0
  4  3  2  0
  5  3  1  0
  6  4  1  0
  7  1  1  0
  7  5  2  0
  8  6  2  0
  8  7  1  0
 10  2  1  0
 10  8  1  0
 10  9  1  0
M  END
>  <NAME>  (266) 
CHLORO(ORTHO-TOLYL)METHYLSILANE

>  <SYNONYMS>  (266) 


>  <SPECTRUM TYPE>  (266) 
MS1

>  <INSTRUMENT TYPE>  (266) 
EI-B

>  <INSTRUMENT>  (266) 
SHIMADZU QP-1000

>  <ION MODE>  (266) 
P

>  <INCHIKEY>  (266) 
IXIOLGYXQUHGAH-UHFFFAOYSA-N

>  <FORMULA>  (266) 
C8H11ClSi

>  <EXACT MASS>  (266) 
170.031854562

>  <MW>  (266) 
170

>  <ID>  (266) 
JP011760

>  <CONTRIBUTOR>  (266) 
University of Tokyo Team, {Faculty of Engineering, University of Tokyo

>  <COMMENT>  (266) 
SMILES=Cc(c1)c(ccc1)[SiH](C)Cl
InChI=InChI=1S/C8H11ClSi/c1-7-5-3-4-6-8(7)10(2)9/h3-6,10H,1-2H3
computed SMILES=Cl[SiH](C=1C=CC=CC1C)C
accession=JP011760
date=2016.01.19 (Created 2008.10.21, modified 2011.05.06)
author=FAC. TECHNOLOGY, HIROSHIMA UNIV.
license=CC BY-NC-SA
exact mass=170.03185
ionization energy=70 eV
ion type=[M]+*
computed spectral entropy=3.2810572535346916
computed normalized entropy=0.8013632471992005
SPLASH=splash10-06tf-9400000000-e133a4981eed9351997b
submitter=submitter = University of Tokyo Team (Faculty of Engineering, University of Tokyo)
MoNA Rating=3.75

>  <NUM PEAKS>  (266) 
60

>  <MASS SPECTRAL PEAKS>  (266) 
36 9.8
38 5.6
39 23.8
41 7.7
43 21.2
45 4.4
50 4.5
51 8.6
53 16.5
54 2.4
55 2.5
56 1.8
57 3.1
61 1.4
63 99.99
65 52.8
67 6.5
69 1.1
73 2.9
78 48.9
79 27.2
80 18.7
84 1.7
85 1.2
88 4.7
89 6.6
91 82.2
92 80.1
94 13.3
95 2
103 4.8
104 1.3
105 11.9
107 3.1
109 1.6
117 2.7
119 10.2
120 1.4
121 1.1
122 2
124 2.1
131 2.3
133 3.1
134 3.4
135 5.7
136 1.8
137 1.6
138 1.2
141 2.6
153 1.6
154 1.6
155 71.9
156 9.4
157 24.9
158 3
169 25.9
171 15.8
172 16.6
173 2.4
176 46.9

>  <PREDICTED SPECTRUM>  (266) 
14 47
15 127
16 2
25 9
26 87
27 170
28 148
34 13
35 43
36 68
37 82
38 172
39 400
40 166
41 187
42 158
43 345
44 225
45 22
46 9
47 18
48 16
49 70
50 249
51 433
52 318
53 287
54 135
57 41
58 62
59 46
60 30
61 39
62 147
63 365
64 187
65 447
66 270
67 195
68 29
74 130
75 139
76 60
77 383
78 323
79 262
80 196
81 132
82 4
89 217
90 136
91 606
92 365
93 401
94 285
95 187
102 57
103 110
104 100
105 207
106 97
107 130
108 56
116 20
117 97
118 69
119 356
120 223
121 133
127 120
129 38
130 21
131 25
132 48
133 267
134 69
135 565
136 129
143 7
153 231
154 11
155 999
156 298
157 482
158 119
167 64
168 27
169 371
170 743
171 326
172 371
173 72

$$$$

     RDKit          2D

 26 29  0  0  0  0  0  0  0  0999 V2000
   -5.1981   -0.7504    0.0000 C   0  0  0  0  0  0  0  0  0  0  0  0
    5.1981   -0.7504    0.0000 C   0  0  0  0  0  0  0  0  0  0  0  0
   -3.8968   -6.0019    0.0000 C   0  0  0  0  0  0  0  0  0  0  0  0
    3.8996   -6.0019    0.0000 C   0  0  0  0  0  0  0  0  0  0  0  0
   -5.1965   -5.2515    0.0000 C   0  0  0  0  0  0  0  0  0  0  0  0
   -2.5980   -5.2515    0.0000 C   0  0  0  0  0  0  0  0  0  0  0  0
    2.6001   -5.2510    0.0000 C   0  0  0  0  0  0  0  0  0  0  0  0
    5.1987   -5.2519    0.0000 C   0  0  0  0  0  0  0  0  0  0  0  0
   -5.1975   -3.7506    0.0000 C   0  0  0  0  0  0  0  0  0  0  0  0
   -2.5989   -3.7506    0.0000 C   0  0  0  0  0  0  0  0  0  0  0  0
    2.5996   -3.7502    0.0000 C   0  0  0  0  0  0  0  0  0  0  0  0
    5.1982   -3.7510    0.0000 C   0  0  0  0  0  0  0  0  0  0  0  0
   -1.3000    1.5000    0.0000 C   0  0  0  0  0  0  0  0  0  0  0  0
    1.3000    1.5000    0.0000 C   0  0  0  0  0  0  0  0  0  0  0  0
   -2.6000    0.7500    0.0000 C   0  0  0  0  0  0  0  0  0  0  0  0
    2.6000    0.7500    0.0000 C   0  0  0  0  0  0  0  0  0  0  0  0
   -1.3000   -1.5000    0.0000 C   0  0  0  0  0  0  0  0  0  0  0  0
    1.3000   -1.5000    0.0000 C   0  0  0  0  0  0  0  0  0  0  0  0
    0.0000    0.7500    0.0000 C   0  0  0  0  0  0  0  0  0  0  0  0
    0.0000   -0.7500    0.0000 C   0  0  0  0  0  0  0  0  0  0  0  0
   -3.8987   -3.0002    0.0000 C   0  0  0  0  0  0  0  0  0  0  0  0
    3.8987   -3.0002    0.0000 C   0  0  0  0  0  0  0  0  0  0  0  0
   -2.6000   -0.7500    0.0000 C   0  0  0  0  0  0  0  0  0  0  0  0
    2.6000   -0.7500    0.0000 C   0  0  0  0  0  0  0  0  0  0  0  0
   -3.8989   -1.5002    0.0000 Si  0  0  0  0  0  4  0  0  0  0  0  0
    3.8989   -1.5002    0.0000 Si  0  0  0  0  0  4  0  0  0  0  0  0
  5  3  2  0
  6  3  1  0
  7  4  2  0
  8  4  1  0
  9  5  1  0
 10  6  2  0
 11  7  1  0
 12  8  2  0
 15 13  2  0
 16 14  1  0
 19 13  1  0
 19 14  2  0
 20 17  1  0
 20 18  2  0
 20 19  1  0
 21  9  2  0
 21 10  1  0
 22 11  2  0
 22 12  1  0
 23 15  1  0
 23 17  2  0
 24 16  2  0
 24 18  1  0
 25  1  1  0
 25 21  1  0
 25 23  1  0
 26  2  1  0
 26 22  1  0
 26 24  1  0
M  END
>  <NAME>  (267) 
2,7-BIS(METHYLPHENYLSILYL)NAPHTHALENE

>  <SYNONYMS>  (267) 


>  <SPECTRUM TYPE>  (267) 
MS1

>  <INSTRUMENT TYPE>  (267) 
EI-B

>  <INSTRUMENT>  (267) 
SHIMADZU QP-1000

>  <ION MODE>  (267) 
P

>  <INCHIKEY>  (267) 
BDNUKGQZZTVCSN-UHFFFAOYSA-N

>  <FORMULA>  (267) 
C24H24Si2

>  <EXACT MASS>  (267) 
368.141653828

>  <MW>  (267) 
368

>  <ID>  (267) 
JP011759

>  <CONTRIBUTOR>  (267) 
University of Tokyo Team, {Faculty of Engineering, University of Tokyo

>  <COMMENT>  (267) 
SMILES=c(c4)ccc(c4)[SiH](C)c(c1)cc(c2)c(ccc2[SiH](C)c(c3)cccc3)c1
InChI=InChI=1S/C24H24Si2/c1-25(21-9-5-3-6-10-21)23-15-13-19-14-16-24(18-20(19)17-23)26(2)22-11-7-4-8-12-22/h3-18,25-26H,1-2H3
computed SMILES=C=1C=CC(=CC1)[SiH](C2=CC=C3C=CC(=CC3=C2)[SiH](C=4C=CC=CC4)C)C
accession=JP011759
date=2016.01.19 (Created 2008.10.21, modified 2011.05.06)
author=FAC. TECHNOLOGY, HIROSHIMA UNIV.
license=CC BY-NC-SA
exact mass=368.14165
ionization energy=70 eV
ion type=[M]+*
computed spectral entropy=3.400819176024345
computed normalized entropy=0.7926468534833828
SPLASH=splash10-0002-0693000000-1cd7a31e6606aac9a150
submitter=submitter = University of Tokyo Team (Faculty of Engineering, University of Tokyo)
MoNA Rating=3.75

>  <NUM PEAKS>  (267) 
73

>  <MASS SPECTRAL PEAKS>  (267) 
43 9.7
53 2.4
78 1
79 1.3
91 2.3
93 1.3
95 1.9
103 1.3
105 17.3
106 2.7
107 1.4
119 2.9
120 3.7
121 19.7
122 2.8
129 3.3
130 4.1
131 1.4
135 3.4
136 1.3
137 3.1
145 1.4
153 1
154 1
155 4.7
167 4.7
168 1.9
169 9
170 2.7
171 1.6
176 1.1
179 1.4
181 2
183 3.2
185 1.9
195 2.4
197 29.7
198 5.9
199 1.7
202 2.1
203 1
205 2
215 2.6
229 3.1
230 1.7
231 8.2
232 2.5
233 2
245 5.7
246 1.7
247 99.99
248 23.7
249 6.1
257 1.2
271 1.1
273 1.3
275 9.5
276 2.8
277 1
290 10.4
291 3.6
292 1.3
309 4.9
310 1.4
323 1.1
353 10
354 3.5
355 1.3
367 3.1
368 39
369 14.4
370 5.2
371 1.1

>  <PREDICTED SPECTRUM>  (267) 
39 40
41 111
43 223
44 95
45 93
50 8
51 63
52 8
53 180
55 47
57 1
60 3
65 84
66 64
67 87
69 39
73 11
77 68
78 128
79 118
80 16
81 70
89 44
91 124
92 24
93 103
94 43
95 87
103 17
105 436
106 131
107 164
115 22
117 45
118 11
119 147
120 124
121 480
122 87
123 35
128 17
129 198
130 120
131 96
134 27
135 130
136 129
137 141
141 48
143 38
144 84
145 134
146 19
147 14
150 9
153 106
154 15
155 224
156 37
166 15
167 200
168 194
169 332
170 158
171 124
172 2
176 8
178 45
179 116
181 44
182 19
183 82
185 82
193 13
195 157
196 22
197 679
198 306
199 153
202 80
203 82
205 125
212 108
213 37
214 18
215 72
229 108
230 101
231 263
232 127
233 64
245 194
246 51
247 999
248 538
249 249
250 68
273 5
275 285
276 114
277 113
289 126
290 346
291 203
292 71
309 228
310 92
353 258
354 194
367 141
368 700
369 427
370 244
371 123

$$$$

     RDKit          2D

 26 29  0  0  0  0  0  0  0  0999 V2000
   -5.1981   -0.7504    0.0000 C   0  0  0  0  0  0  0  0  0  0  0  0
    5.1981    0.7504    0.0000 C   0  0  0  0  0  0  0  0  0  0  0  0
   -3.8968   -6.0019    0.0000 C   0  0  0  0  0  0  0  0  0  0  0  0
    3.8968    6.0019    0.0000 C   0  0  0  0  0  0  0  0  0  0  0  0
   -5.1965   -5.2515    0.0000 C   0  0  0  0  0  0  0  0  0  0  0  0
   -2.5980   -5.2515    0.0000 C   0  0  0  0  0  0  0  0  0  0  0  0
    5.1965    5.2515    0.0000 C   0  0  0  0  0  0  0  0  0  0  0  0
    2.5980    5.2515    0.0000 C   0  0  0  0  0  0  0  0  0  0  0  0
   -5.1975   -3.7506    0.0000 C   0  0  0  0  0  0  0  0  0  0  0  0
   -2.5989   -3.7506    0.0000 C   0  0  0  0  0  0  0  0  0  0  0  0
    5.1975    3.7506    0.0000 C   0  0  0  0  0  0  0  0  0  0  0  0
    2.5989    3.7506    0.0000 C   0  0  0  0  0  0  0  0  0  0  0  0
   -1.3000    1.5000    0.0000 C   0  0  0  0  0  0  0  0  0  0  0  0
    1.3000   -1.5000    0.0000 C   0  0  0  0  0  0  0  0  0  0  0  0
   -2.6000    0.7500    0.0000 C   0  0  0  0  0  0  0  0  0  0  0  0
    2.6000   -0.7500    0.0000 C   0  0  0  0  0  0  0  0  0  0  0  0
   -1.3000   -1.5000    0.0000 C   0  0  0  0  0  0  0  0  0  0  0  0
    1.3000    1.5000    0.0000 C   0  0  0  0  0  0  0  0  0  0  0  0
    0.0000   -0.7500    0.0000 C   0  0  0  0  0  0  0  0  0  0  0  0
    0.0000    0.7500    0.0000 C   0  0  0  0  0  0  0  0  0  0  0  0
   -3.8987   -3.0002    0.0000 C   0  0  0  0  0  0  0  0  0  0  0  0
    3.8987    3.0002    0.0000 C   0  0  0  0  0  0  0  0  0  0  0  0
   -2.6000   -0.7500    0.0000 C   0  0  0  0  0  0  0  0  0  0  0  0
    2.6000    0.7500    0.0000 C   0  0  0  0  0  0  0  0  0  0  0  0
   -3.8989   -1.5002    0.0000 Si  0  0  0  0  0  4  0  0  0  0  0  0
    3.8989    1.5002    0.0000 Si  0  0  0  0  0  4  0  0  0  0  0  0
  5  3  2  0
  6  3  1  0
  7  4  2  0
  8  4  1  0
  9  5  1  0
 10  6  2  0
 11  7  1  0
 12  8  2  0
 15 13  2  0
 16 14  1  0
 19 14  2  0
 19 17  1  0
 20 13  1  0
 20 18  2  0
 20 19  1  0
 21  9  2  0
 21 10  1  0
 22 11  2  0
 22 12  1  0
 23 15  1  0
 23 17  2  0
 24 16  2  0
 24 18  1  0
 25  1  1  0
 25 21  1  0
 25 23  1  0
 26  2  1  0
 26 22  1  0
 26 24  1  0
M  END
>  <NAME>  (268) 
2,6-BIS(METHYLPHENYLSILYL)NAPHTHALENE

>  <SYNONYMS>  (268) 


>  <SPECTRUM TYPE>  (268) 
MS1

>  <INSTRUMENT TYPE>  (268) 
EI-B

>  <INSTRUMENT>  (268) 
SHIMADZU QP-1000

>  <ION MODE>  (268) 
P

>  <INCHIKEY>  (268) 
PLVAMQPKLWRSLL-UHFFFAOYSA-N

>  <FORMULA>  (268) 
C24H24Si2

>  <EXACT MASS>  (268) 
368.141653828

>  <MW>  (268) 
368

>  <ID>  (268) 
JP011757

>  <CONTRIBUTOR>  (268) 
University of Tokyo Team, {Faculty of Engineering, University of Tokyo

>  <COMMENT>  (268) 
SMILES=c(c4)ccc(c4)[SiH](C)c(c3)cc(c2)c(c3)cc(c2)[SiH](C)c(c1)cccc1
InChI=InChI=1S/C24H24Si2/c1-25(21-9-5-3-6-10-21)23-15-13-20-18-24(16-14-19(20)17-23)26(2)22-11-7-4-8-12-22/h3-18,25-26H,1-2H3
computed SMILES=C=1C=CC(=CC1)[SiH](C2=CC=C3C=C(C=CC3=C2)[SiH](C=4C=CC=CC4)C)C
accession=JP011757
date=2016.01.19 (Created 2008.10.21, modified 2011.05.06)
author=FAC. TECHNOLOGY, HIROSHIMA UNIV.
license=CC BY-NC-SA
exact mass=368.14165
ionization energy=70 eV
ion type=[M]+*
computed spectral entropy=3.399552373034118
computed normalized entropy=0.7949071258843706
SPLASH=splash10-0002-1893000000-3123b85b75e434a97774
submitter=submitter = University of Tokyo Team (Faculty of Engineering, University of Tokyo)
MoNA Rating=3.75

>  <NUM PEAKS>  (268) 
72

>  <MASS SPECTRAL PEAKS>  (268) 
43 14.7
44 1.4
45 1.3
53 3.6
77 1
91 3.5
93 1.8
95 2.4
103 1.6
105 22
106 3.2
107 1.7
119 3.4
121 23.9
122 3.4
123 1.4
129 4.5
130 6
135 3.8
136 1.9
137 4.4
138 2.5
145 1.2
153 1.2
155 6
156 1.1
167 4.8
168 2.2
169 10.5
170 3.1
171 2
175 1
176 1.5
179 1.3
181 1.8
183 3
185 2.3
195 1.9
197 31.6
198 6.1
199 1.7
202 1.9
205 1.7
215 2.2
229 2.2
230 1.2
231 7.5
232 2.2
233 2.6
240 1
245 4.8
246 1.6
247 99.99
248 24.4
249 6
273 1
275 8.4
276 2.6
277 1.1
290 8.8
291 3.1
292 1
309 5.3
310 1.4
323 1
353 8.9
354 3
355 1.2
368 38
369 14.9
370 5.1
372 1.2

>  <PREDICTED SPECTRUM>  (268) 
39 35
41 120
43 240
44 81
45 80
50 9
51 60
52 6
53 181
55 65
59 1
60 0
65 79
66 57
67 89
69 46
73 15
77 72
78 137
79 106
80 10
81 78
89 35
91 141
92 13
93 93
94 33
95 80
103 11
105 416
106 121
107 169
115 26
117 43
118 8
119 156
120 129
121 506
122 102
123 24
128 10
129 176
130 104
131 99
134 17
135 115
136 120
137 130
141 42
143 35
144 89
145 125
146 16
147 19
150 12
153 107
154 18
155 231
156 40
166 0
167 180
168 178
169 332
170 156
171 125
172 2
176 19
178 53
179 100
181 40
182 5
183 93
185 80
193 13
195 120
197 677
198 323
199 104
202 101
203 55
205 95
212 120
213 48
214 17
215 68
229 86
230 78
231 254
232 120
233 44
245 177
246 45
247 999
248 534
249 241
250 54
275 240
276 94
277 107
289 114
290 324
291 177
292 53
309 212
310 81
353 225
354 176
367 109
368 697
369 427
370 240
371 119

$$$$

     RDKit          2D

 26 27  0  0  0  0  0  0  0  0999 V2000
    3.1483   -0.5487    0.0000 C   0  0  0  0  0  0  0  0  0  0  0  0
    5.1972    0.0006    0.0000 C   0  0  0  0  0  0  0  0  0  0  0  0
    4.6479    2.0496    0.0000 C   0  0  0  0  0  0  0  0  0  0  0  0
   -7.0472   -1.7015    0.0000 C   0  0  0  0  0  0  0  0  0  0  0  0
   -9.0962   -2.2508    0.0000 C   0  0  0  0  0  0  0  0  0  0  0  0
   -8.5468   -4.2998    0.0000 C   0  0  0  0  0  0  0  0  0  0  0  0
    3.5629    2.6494    0.0000 C   0  0  0  0  0  0  0  0  0  0  0  0
    1.6346    2.6491    0.0000 C   0  0  0  0  0  0  0  0  0  0  0  0
   -7.4618   -4.8996    0.0000 C   0  0  0  0  0  0  0  0  0  0  0  0
   -5.5335   -4.8993    0.0000 C   0  0  0  0  0  0  0  0  0  0  0  0
   -1.3000    0.7500    0.0000 C   0  0  0  0  0  0  0  0  0  0  0  0
    0.0000   -1.5000    0.0000 C   0  0  0  0  0  0  0  0  0  0  0  0
   -2.5989   -3.0002    0.0000 C   0  0  0  0  0  0  0  0  0  0  0  0
   -3.8989   -0.7502    0.0000 C   0  0  0  0  0  0  0  0  0  0  0  0
    0.0000    1.5000    0.0000 C   0  0  0  0  0  0  0  0  0  0  0  0
    1.3000   -0.7500    0.0000 C   0  0  0  0  0  0  0  0  0  0  0  0
   -3.8989   -3.7502    0.0000 C   0  0  0  0  0  0  0  0  0  0  0  0
   -5.1989   -1.5002    0.0000 C   0  0  0  0  0  0  0  0  0  0  0  0
   -1.3000   -0.7500    0.0000 C   0  0  0  0  0  0  0  0  0  0  0  0
   -2.5989   -1.5002    0.0000 C   0  0  0  0  0  0  0  0  0  0  0  0
    1.3000    0.7500    0.0000 C   0  0  0  0  0  0  0  0  0  0  0  0
   -5.1989   -3.0002    0.0000 C   0  0  0  0  0  0  0  0  0  0  0  0
    3.8981    0.7504    0.0000 Si  0  0  0  0  0  4  0  0  0  0  0  0
   -7.7970   -3.0006    0.0000 Si  0  0  0  0  0  4  0  0  0  0  0  0
    2.5989    1.5002    0.0000 Si  0  0  0  0  0  4  0  0  0  0  0  0
   -6.4978   -3.7504    0.0000 Si  0  0  0  0  0  4  0  0  0  0  0  0
 15 11  2  0
 16 12  1  0
 17 13  2  0
 18 14  1  0
 19 11  1  0
 19 12  2  0
 20 13  1  0
 20 14  2  0
 20 19  1  0
 21 15  1  0
 21 16  2  0
 22 17  1  0
 22 18  2  0
 23  1  1  0
 23  2  1  0
 23  3  1  0
 24  4  1  0
 24  5  1  0
 24  6  1  0
 25  7  1  0
 25  8  1  0
 25 21  1  0
 25 23  1  0
 26  9  1  0
 26 10  1  0
 26 22  1  0
 26 24  1  0
M  END
>  <NAME>  (269) 
4,4'-(PENTAMETHYLDISILANYL)BIPHENYLENE

>  <SYNONYMS>  (269) 


>  <SPECTRUM TYPE>  (269) 
MS1

>  <INSTRUMENT TYPE>  (269) 
EI-B

>  <INSTRUMENT>  (269) 
SHIMADZU QP-1000

>  <ION MODE>  (269) 
P

>  <INCHIKEY>  (269) 
DHBZDKHWHZYFDI-UHFFFAOYSA-N

>  <FORMULA>  (269) 
C22H38Si4

>  <EXACT MASS>  (269) 
414.205057336

>  <MW>  (269) 
414

>  <ID>  (269) 
JP011755

>  <CONTRIBUTOR>  (269) 
University of Tokyo Team, {Faculty of Engineering, University of Tokyo

>  <COMMENT>  (269) 
SMILES=C[Si](C)(C)[Si](C)(C)c(c2)ccc(c2)c(c1)ccc(c1)[Si](C)(C)[Si](C)(C)C
InChI=InChI=1S/C22H38Si4/c1-23(2,3)25(7,8)21-15-11-19(12-16-21)20-13-17-22(18-14-20)26(9,10)24(4,5)6/h11-18H,1-10H3
computed SMILES=C=1C=C(C=CC1C=2C=CC(=CC2)[Si](C)(C)[Si](C)(C)C)[Si](C)(C)[Si](C)(C)C
accession=JP011755
date=2016.01.19 (Created 2008.10.21, modified 2011.05.06)
author=FAC. TECHNOLOGY, HIROSHIMA UNIV.
license=CC BY-NC-SA
exact mass=414.20506
ionization energy=70 eV
ion type=[M]+*
computed spectral entropy=3.1149523726259525
computed normalized entropy=0.7577348455697176
SPLASH=splash10-00yl-9876100000-158b4fd396ca6ec7f58f
submitter=submitter = University of Tokyo Team (Faculty of Engineering, University of Tokyo)
MoNA Rating=3.75

>  <NUM PEAKS>  (269) 
61

>  <MASS SPECTRAL PEAKS>  (269) 
41 1.1
43 8.3
45 21.2
46 1.2
55 1
57 2.2
59 7.7
73 99.99
74 8.1
83 1
101 1.5
115 2.3
116 72.2
118 5.4
119 1.9
120 1.1
131 20.8
133 2.1
134 2.4
155 1
165 2.3
179 1.4
180 1.1
181 3.1
193 3.2
194 1.1
195 10.9
196 2.4
207 1.4
209 4
210 1.1
211 1
221 1.1
223 1.3
224 9.1
225 2.5
235 1.1
237 2.2
251 2.5
253 11.6
254 3.1
255 1.3
267 5.4
268 6.3
269 2.5
283 46.9
284 13.3
285 4.8
311 1.8
325 1.4
326 1.7
341 59.3
342 22.3
343 9.7
344 2
399 4.3
400 2
401 1.1
414 13.4
415 5.9
416 2.9

>  <PREDICTED SPECTRUM>  (269) 
31 7
39 40
43 174
44 107
45 164
46 7
47 107
57 92
58 124
59 154
60 33
63 22
73 799
74 183
75 94
77 2
89 21
91 31
100 44
101 9
103 35
105 61
114 39
115 95
116 999
117 278
118 123
121 19
131 400
132 41
133 81
134 24
135 79
146 38
147 27
148 1
149 54
152 21
161 20
164 3
165 94
166 3
167 22
179 97
180 73
181 88
182 11
192 104
193 249
194 207
195 172
196 65
207 92
208 44
209 186
210 93
211 51
221 4
223 53
225 130
226 49
227 20
251 159
252 143
253 528
254 244
255 198
264 72
265 32
267 240
268 155
269 26
283 788
284 432
285 299
286 4
308 11
311 20
326 70
327 71
328 37
341 654
342 453
343 271
344 68
399 221
400 155
401 41
414 509
415 348
416 186
417 86

$$$$

     RDKit          2D

 26 29  0  0  0  0  0  0  0  0999 V2000
   -2.5990   -3.7500    0.0000 C   0  0  0  0  0  0  0  0  0  0  0  0
    2.5990    3.7500    0.0000 C   0  0  0  0  0  0  0  0  0  0  0  0
    2.5993   -5.2496    0.0000 C   0  0  0  0  0  0  0  0  0  0  0  0
   -2.5993    5.2496    0.0000 C   0  0  0  0  0  0  0  0  0  0  0  0
    1.2994   -5.9998    0.0000 C   0  0  0  0  0  0  0  0  0  0  0  0
    2.5990   -3.7496    0.0000 C   0  0  0  0  0  0  0  0  0  0  0  0
   -1.2994    5.9998    0.0000 C   0  0  0  0  0  0  0  0  0  0  0  0
   -2.5990    3.7496    0.0000 C   0  0  0  0  0  0  0  0  0  0  0  0
   -2.6000    0.7500    0.0000 C   0  0  0  0  0  0  0  0  0  0  0  0
    2.6000   -0.7500    0.0000 C   0  0  0  0  0  0  0  0  0  0  0  0
   -0.0007   -5.2500    0.0000 C   0  0  0  0  0  0  0  0  0  0  0  0
    1.2989   -2.9998    0.0000 C   0  0  0  0  0  0  0  0  0  0  0  0
    0.0007    5.2500    0.0000 C   0  0  0  0  0  0  0  0  0  0  0  0
   -1.2989    2.9998    0.0000 C   0  0  0  0  0  0  0  0  0  0  0  0
    1.3000   -1.5000    0.0000 C   0  0  0  0  0  0  0  0  0  0  0  0
   -1.3000    1.5000    0.0000 C   0  0  0  0  0  0  0  0  0  0  0  0
   -2.6000   -0.7500    0.0000 C   0  0  0  0  0  0  0  0  0  0  0  0
    2.6000    0.7500    0.0000 C   0  0  0  0  0  0  0  0  0  0  0  0
   -0.0010   -3.7500    0.0000 C   0  0  0  0  0  0  0  0  0  0  0  0
    0.0010    3.7500    0.0000 C   0  0  0  0  0  0  0  0  0  0  0  0
    0.0000   -0.7500    0.0000 C   0  0  0  0  0  0  0  0  0  0  0  0
    0.0000    0.7500    0.0000 C   0  0  0  0  0  0  0  0  0  0  0  0
   -1.3000   -1.5000    0.0000 C   0  0  0  0  0  0  0  0  0  0  0  0
    1.3000    1.5000    0.0000 C   0  0  0  0  0  0  0  0  0  0  0  0
   -1.3000   -3.0000    0.0000 Si  0  0  0  0  0  4  0  0  0  0  0  0
    1.3000    3.0000    0.0000 Si  0  0  0  0  0  4  0  0  0  0  0  0
  5  3  2  0
  6  3  1  0
  7  4  2  0
  8  4  1  0
 11  5  1  0
 12  6  2  0
 13  7  1  0
 14  8  2  0
 15 10  2  0
 16  9  2  0
 17  9  1  0
 18 10  1  0
 19 11  2  0
 19 12  1  0
 20 13  2  0
 20 14  1  0
 21 15  1  0
 22 16  1  0
 22 21  2  0
 23 17  2  0
 23 21  1  0
 24 18  2  0
 24 22  1  0
 25  1  1  0
 25 19  1  0
 25 23  1  0
 26  2  1  0
 26 20  1  0
 26 24  1  0
M  END
>  <NAME>  (270) 
1,5-BIS(METHYLPHENYLSILYL)NAPHTHALENE

>  <SYNONYMS>  (270) 


>  <SPECTRUM TYPE>  (270) 
MS1

>  <INSTRUMENT TYPE>  (270) 
EI-B

>  <INSTRUMENT>  (270) 
SHIMADZU QP-1000

>  <ION MODE>  (270) 
P

>  <INCHIKEY>  (270) 
WYXNQGKTKYDVSW-UHFFFAOYSA-N

>  <FORMULA>  (270) 
C24H24Si2

>  <EXACT MASS>  (270) 
368.141653828

>  <MW>  (270) 
368

>  <ID>  (270) 
JP011753

>  <CONTRIBUTOR>  (270) 
University of Tokyo Team, {Faculty of Engineering, University of Tokyo

>  <COMMENT>  (270) 
SMILES=c(c4)ccc(c4)[SiH](C)c(c3)c(c2)c(cc3)c(cc2)[SiH](C)c(c1)cccc1
InChI=InChI=1S/C24H24Si2/c1-25(19-11-5-3-6-12-19)23-17-9-16-22-21(23)15-10-18-24(22)26(2)20-13-7-4-8-14-20/h3-18,25-26H,1-2H3
computed SMILES=C=1C=CC(=CC1)[SiH](C=2C=CC=C3C2C=CC=C3[SiH](C=4C=CC=CC4)C)C
accession=JP011753
date=2016.01.19 (Created 2008.10.21, modified 2011.05.06)
author=FAC. TECHNOLOGY, HIROSHIMA UNIV.
license=CC BY-NC-SA
exact mass=368.14165
ionization energy=70 eV
ion type=[M]+*
computed spectral entropy=3.8888535569905587
computed normalized entropy=0.8027876478721134
SPLASH=splash10-00ke-5953000000-c92306f0304974ac50d6
submitter=submitter = University of Tokyo Team (Faculty of Engineering, University of Tokyo)
MoNA Rating=3.75

>  <NUM PEAKS>  (270) 
127

>  <MASS SPECTRAL PEAKS>  (270) 
31 1.1
32 7.4
39 3.1
40 1
43 94.5
45 8.9
50 1.7
51 4.7
53 22.7
54 2.3
55 3.9
59 2
65 1.7
66 1
67 3.7
69 4.6
73 1
77 4.4
78 6.1
79 7.8
80 1.1
81 3
91 10.6
93 6.2
94 1
95 8.3
96 1
97 1.4
98 3.3
99 1.8
103 5.1
104 1.6
105 54.5
106 8.8
107 4.2
115 2
116 1
117 1.6
119 9.1
120 9.7
121 54.3
122 7.3
123 2.5
128 1.6
129 10.3
130 8.6
135 9.4
136 4.4
137 7.3
141 1.3
142 1.2
143 2.8
144 2.7
145 3.3
147 1.1
153 3
154 2.5
155 10.5
156 1.9
157 1
165 1.8
167 10.1
168 3.5
169 25.1
170 6.6
171 3.6
176 1.1
179 2.9
180 1
181 3.6
182 1.3
183 7
184 1.5
185 1.9
195 3.9
196 1.2
197 58.5
198 11.7
199 3.3
202 3.4
203 2
204 1.2
205 3.6
212 7.6
213 2.6
214 1.2
215 4.1
217 1.2
228 1.1
229 3.6
230 1.8
231 13.9
232 3.4
233 2.8
240 1.2
241 1.4
243 1.1
245 8.5
246 3.1
247 99.99
248 24.1
249 6
250 1.3
257 1.3
271 1.6
273 2.2
274 1
275 17.5
276 5.1
277 2.4
289 2.2
290 6.2
291 2.1
292 1
307 1.1
309 5.8
310 1.8
323 1.7
351 1.5
353 4.5
354 1.6
367 3.1
368 87.3
369 31.8
370 11
371 2.2
372 2.3

>  <PREDICTED SPECTRUM>  (270) 
25 8
26 14
27 61
28 4
29 69
34 19
37 8
38 0
39 129
40 28
41 203
42 28
43 557
44 163
45 216
49 14
50 102
51 179
52 58
53 261
54 6
55 178
57 66
59 23
60 18
61 14
63 65
64 23
65 159
66 83
67 151
69 147
71 26
73 55
74 13
75 43
76 30
77 229
78 191
79 214
80 23
81 138
82 29
83 53
84 18
85 3
86 23
89 64
91 223
92 72
93 186
94 90
95 131
97 28
101 30
102 1
103 77
104 6
105 537
106 180
107 222
108 21
109 30
111 24
113 6
115 104
116 41
117 74
118 4
119 241
120 232
121 568
122 170
123 170
127 13
128 93
129 242
130 132
131 64
134 36
135 164
136 128
137 165
139 60
141 120
142 85
143 137
144 127
145 170
146 28
147 90
150 19
151 5
152 29
153 141
154 85
155 359
156 106
157 100
165 64
166 26
167 233
168 243
169 394
170 251
171 220
172 25
173 2
176 44
177 51
178 13
179 82
181 111
182 65
183 159
184 79
185 201
186 8
189 6
192 3
193 9
195 183
196 39
197 720
198 301
199 181
201 27
202 122
203 149
204 79
205 73
211 49
212 239
213 163
214 107
215 109
217 18
229 150
230 96
231 332
232 156
233 50
245 275
246 130
247 999
248 509
249 288
250 109
256 23
257 100
273 108
274 4
275 319
276 134
277 154
289 124
290 305
291 93
292 39
309 233
310 83
323 145
324 7
325 2
351 60
353 158
354 168
367 116
368 828
369 472
370 337
371 179
372 29

$$$$

     RDKit          2D

 28 31  0  0  0  0  0  0  0  0999 V2000
   -3.5667   -1.3641    0.0000 C   0  0  0  0  0  0  0  0  0  0  0  0
   -3.1791    2.0294    0.0000 C   0  0  0  0  0  0  0  0  0  0  0  0
   -0.2776   -4.4229    0.0000 C   0  0  0  0  0  0  0  0  0  0  0  0
   -6.1462   -3.6544    0.0000 C   0  0  0  0  0  0  0  0  0  0  0  0
   -1.7774   -4.3665    0.0000 C   0  0  0  0  0  0  0  0  0  0  0  0
    0.5203   -3.1526    0.0000 C   0  0  0  0  0  0  0  0  0  0  0  0
   -4.6464   -3.7103    0.0000 C   0  0  0  0  0  0  0  0  0  0  0  0
   -6.8469   -2.3281    0.0000 C   0  0  0  0  0  0  0  0  0  0  0  0
   -2.4793   -3.0399    0.0000 C   0  0  0  0  0  0  0  0  0  0  0  0
   -0.1817   -1.8261    0.0000 C   0  0  0  0  0  0  0  0  0  0  0  0
   -3.8473   -2.4399    0.0000 C   0  0  0  0  0  0  0  0  0  0  0  0
   -6.0478   -1.0577    0.0000 C   0  0  0  0  0  0  0  0  0  0  0  0
    1.0054    1.4364    0.0000 C   0  0  0  0  0  0  0  0  0  0  0  0
   -6.7324    2.6908    0.0000 C   0  0  0  0  0  0  0  0  0  0  0  0
   -0.4946    1.4364    0.0000 C   0  0  0  0  0  0  0  0  0  0  0  0
   -5.2366    2.5787    0.0000 C   0  0  0  0  0  0  0  0  0  0  0  0
   -1.6815   -1.7697    0.0000 C   0  0  0  0  0  0  0  0  0  0  0  0
   -4.5480   -1.1136    0.0000 C   0  0  0  0  0  0  0  0  0  0  0  0
    1.4654    0.0164    0.0000 C   0  0  0  0  0  0  0  0  0  0  0  0
   -7.2972    1.3091    0.0000 C   0  0  0  0  0  0  0  0  0  0  0  0
   -0.9546    0.0164    0.0000 C   0  0  0  0  0  0  0  0  0  0  0  0
   -4.8839    1.1283    0.0000 C   0  0  0  0  0  0  0  0  0  0  0  0
    2.8931   -0.4435    0.0000 Br  0  0  0  0  0  0  0  0  0  0  0  0
   -8.7553    0.9571    0.0000 Br  0  0  0  0  0  0  0  0  0  0  0  0
    0.2554   -0.8736    0.0000 S   0  0  0  0  0  0  0  0  0  0  0  0
   -6.1571    0.3312    0.0000 S   0  0  0  0  0  0  0  0  0  0  0  0
   -2.3824   -0.4435    0.0000 Si  0  0  0  0  0  4  0  0  0  0  0  0
   -3.4946    0.5629    0.0000 Si  0  0  0  0  0  4  0  0  0  0  0  0
  5  3  2  0
  6  3  1  0
  7  4  2  0
  8  4  1  0
  9  5  1  0
 10  6  2  0
 11  7  1  0
 12  8  2  0
 15 13  1  0
 16 14  1  0
 17  9  2  0
 17 10  1  0
 18 11  2  0
 18 12  1  0
 19 13  2  0
 20 14  2  0
 21 15  2  0
 22 16  2  0
 23 19  1  0
 24 20  1  0
 25 19  1  0
 25 21  1  0
 26 20  1  0
 26 22  1  0
 27  1  1  0
 27 17  1  0
 27 21  1  0
 28  2  1  0
 28 18  1  0
 28 22  1  0
 28 27  1  0
M  END
>  <NAME>  (271) 
1,2-DI(5-(2-BROMOTHIENYL))-1,2-DIMETHYLDIPHENYLDISILANE

>  <SYNONYMS>  (271) 


>  <SPECTRUM TYPE>  (271) 
MS1

>  <INSTRUMENT TYPE>  (271) 
EI-B

>  <INSTRUMENT>  (271) 
SHIMADZU QP-1000

>  <ION MODE>  (271) 
P

>  <INCHIKEY>  (271) 
RXWBLWOMHGKHMO-UHFFFAOYSA-N

>  <FORMULA>  (271) 
C22H20Br2S2Si2

>  <EXACT MASS>  (271) 
561.8911698999999

>  <MW>  (271) 
562

>  <ID>  (271) 
JP011752

>  <CONTRIBUTOR>  (271) 
University of Tokyo Team, {Faculty of Engineering, University of Tokyo

>  <COMMENT>  (271) 
SMILES=c(c4)ccc(c4)[Si](C)(c(s3)c([H])c([H])c(Br)3)[Si](C)(c(c2)cccc2)c(s1)c([H])c([H])c(Br)1
InChI=InChI=1S/C22H20Br2S2Si2/c1-27(17-9-5-3-6-10-17,21-15-13-19(23)25-21)28(2,18-11-7-4-8-12-18)22-16-14-20(24)26-22/h3-16H,1-2H3
computed SMILES=BrC=1SC(=CC1)[Si](C=2C=CC=CC2)(C)[Si](C=3SC(Br)=CC3)(C=4C=CC=CC4)C
accession=JP011752
date=2016.01.19 (Created 2008.10.21, modified 2011.05.06)
author=FAC. TECHNOLOGY, HIROSHIMA UNIV.
license=CC BY-NC-SA
exact mass=561.89117
ionization energy=70 eV
ion type=[M]+*
computed spectral entropy=4.141959012218177
computed normalized entropy=0.9095456708234402
SPLASH=splash10-000t-4950450000-77348780e72d6f3088a4
submitter=submitter = University of Tokyo Team (Faculty of Engineering, University of Tokyo)
MoNA Rating=3.75

>  <NUM PEAKS>  (271) 
95

>  <MASS SPECTRAL PEAKS>  (271) 
51 5.2
52 6.9
53 14.1
54 46.1
56 5.4
58 5.4
63 6.2
64 6.2
65 9
66 8.3
67 9.7
69 7.2
75 22.5
77 28.8
78 8.2
79 17.2
80 7.1
81 6.5
82 11.5
85 8.3
91 72.8
92 7.1
93 19.3
101 5.7
102 10.1
103 8.4
105 74.6
106 9.5
107 37.6
109 37.8
115 18.3
117 6
119 34.9
120 7
121 5.9
125 5.2
126 6.7
127 15.5
129 8.2
135 14.8
137 8.2
139 5.4
141 7.5
143 11.1
145 68.2
146 11
147 5.5
151 6
158 5.4
161 6.1
177 10
179 5.8
181 9
187 19.8
189 5.2
197 34.2
198 7.4
199 91.3
200 12.5
201 99.99
202 50.7
203 14.5
279 6
281 73
282 14.4
283 76.9
284 13.9
285 7.9
326 6.3
328 6.7
363 11
365 12.7
410 16.8
412 33.5
413 7.9
414 18.3
483 68.8
484 28.9
485 81.1
486 27.9
487 19.1
547 28.5
548 27.3
549 63.7
550 60.4
551 45.1
552 36.9
553 13
554 6.3
562 10.9
563 11.9
564 23.9
565 24.7
566 19.4
567 14.8

>  <PREDICTED SPECTRUM>  (271) 
29 23
39 132
40 18
41 170
42 148
43 266
44 172
45 349
47 200
50 174
51 291
52 137
53 263
54 140
55 129
56 135
57 354
58 110
59 65
63 334
64 167
65 319
66 250
67 384
69 343
70 236
71 212
73 432
74 158
75 350
76 137
77 514
78 379
79 215
80 208
81 447
82 600
83 298
84 65
85 165
89 87
90 104
91 85
92 262
93 100
94 38
95 211
96 98
97 72
99 118
101 18
102 2
103 147
104 145
105 403
106 166
107 878
108 245
109 608
110 124
111 203
113 172
114 34
115 649
116 100
117 262
119 188
120 22
121 183
122 264
123 469
124 113
125 59
126 87
127 168
128 17
129 311
130 161
131 164
132 47
133 106
135 266
137 850
138 222
139 659
140 183
141 137
142 37
143 321
144 12
145 242
147 95
149 252
150 65
151 132
153 147
154 157
155 177
156 196
157 212
158 118
159 137
161 12
162 66
163 62
165 148
166 23
167 267
168 22
169 258
171 16
172 35
173 61
174 52
175 40
177 44
178 157
179 83
180 40
181 171
182 264
183 278
184 229
185 191
186 148
187 229
188 39
189 109
190 67
193 112
195 108
196 140
197 274
198 89
199 34
200 54
201 226
202 190
203 147
204 32
205 165
207 275
208 100
209 259
210 92
211 79
212 69
214 18
215 211
216 194
217 327
218 348
219 766
220 106
221 273
222 70
223 190
224 109
225 118
228 19
229 91
230 68
231 56
232 143
233 146
235 76
236 154
237 326
238 194
239 186
240 130
241 229
242 73
243 135
245 119
249 98
250 86
251 129
256 81
257 109
258 250
259 188
260 198
261 122
262 54
263 212
264 195
265 122
266 139
267 96
268 68
269 153
270 66
271 36
272 48
273 31
275 124
276 64
277 79
278 29
279 138
280 41
281 48
282 36
283 209
285 113
287 165
288 49
289 96
290 93
291 102
292 182
293 114
297 90
301 196
302 40
303 115
305 17
311 58
313 39
314 17
315 362
316 105
317 260
318 54
319 44
323 46
325 110
326 41
327 157
328 51
329 363
330 293
331 195
338 52
343 265
345 197
346 25
347 105
357 24
359 127
361 165
373 43
380 23
381 1
385 69
397 69
398 20
413 53
449 56
451 18
452 60
469 43
470 264
471 229
472 34
483 746
484 744
485 999
486 693
487 452
489 216
490 11
547 314
548 343
550 304
551 511
553 232
555 87
562 298
563 343
564 724
565 298
566 237
567 182

$$$$

     RDKit          2D

 18 19  0  0  0  0  0  0  0  0999 V2000
   -2.8000   -3.0000    0.0000 C   0  0  0  0  0  0  0  0  0  0  0  0
   -1.3000   -4.5000    0.0000 C   0  0  0  0  0  0  0  0  0  0  0  0
    2.8000    3.0000    0.0000 C   0  0  0  0  0  0  0  0  0  0  0  0
    1.3000    4.5000    0.0000 C   0  0  0  0  0  0  0  0  0  0  0  0
   -2.6000    0.7500    0.0000 C   0  0  0  0  0  0  0  0  0  0  0  0
    2.6000   -0.7500    0.0000 C   0  0  0  0  0  0  0  0  0  0  0  0
    1.3000   -1.5000    0.0000 C   0  0  0  0  0  0  0  0  0  0  0  0
   -1.3000    1.5000    0.0000 C   0  0  0  0  0  0  0  0  0  0  0  0
   -2.6000   -0.7500    0.0000 C   0  0  0  0  0  0  0  0  0  0  0  0
    2.6000    0.7500    0.0000 C   0  0  0  0  0  0  0  0  0  0  0  0
    0.0000   -0.7500    0.0000 C   0  0  0  0  0  0  0  0  0  0  0  0
    0.0000    0.7500    0.0000 C   0  0  0  0  0  0  0  0  0  0  0  0
   -1.3000   -1.5000    0.0000 C   0  0  0  0  0  0  0  0  0  0  0  0
    1.3000    1.5000    0.0000 C   0  0  0  0  0  0  0  0  0  0  0  0
    0.2000   -3.0000    0.0000 Cl  0  0  0  0  0  0  0  0  0  0  0  0
   -0.2000    3.0000    0.0000 Cl  0  0  0  0  0  0  0  0  0  0  0  0
   -1.3000   -3.0000    0.0000 Si  0  0  0  0  0  4  0  0  0  0  0  0
    1.3000    3.0000    0.0000 Si  0  0  0  0  0  4  0  0  0  0  0  0
  7  6  2  0
  8  5  2  0
  9  5  1  0
 10  6  1  0
 11  7  1  0
 12  8  1  0
 12 11  2  0
 13  9  2  0
 13 11  1  0
 14 10  2  0
 14 12  1  0
 17  1  1  0
 17  2  1  0
 17 13  1  0
 17 15  1  0
 18  3  1  0
 18  4  1  0
 18 14  1  0
 18 16  1  0
M  END
>  <NAME>  (272) 
1,5-BIS(CHLORODIMETHYLSILYL)NAPHTHALENE

>  <SYNONYMS>  (272) 


>  <SPECTRUM TYPE>  (272) 
MS1

>  <INSTRUMENT TYPE>  (272) 
EI-B

>  <INSTRUMENT>  (272) 
SHIMADZU QP-1000

>  <ION MODE>  (272) 
P

>  <INCHIKEY>  (272) 
HLLXILCLJRIWRS-UHFFFAOYSA-N

>  <FORMULA>  (272) 
C14H18Cl2Si2

>  <EXACT MASS>  (272) 
312.032408996

>  <MW>  (272) 
312

>  <ID>  (272) 
JP011751

>  <CONTRIBUTOR>  (272) 
University of Tokyo Team, {Faculty of Engineering, University of Tokyo

>  <COMMENT>  (272) 
SMILES=C[Si](C)(Cl)c(c2)c(c1)c(cc2)c(cc1)[Si](C)(C)Cl
InChI=InChI=1S/C14H18Cl2Si2/c1-17(2,15)13-9-5-8-12-11(13)7-6-10-14(12)18(3,4)16/h5-10H,1-4H3
computed SMILES=Cl[Si](C=1C=CC=C2C1C=CC=C2[Si](Cl)(C)C)(C)C
accession=JP011751
date=2016.01.19 (Created 2008.10.21, modified 2011.05.06)
author=FAC. TECHNOLOGY, HIROSHIMA UNIV.
license=CC BY-NC-SA
exact mass=312.03241
ionization energy=70 eV
ion type=[M]+*
computed spectral entropy=3.335214731309831
computed normalized entropy=0.7877021344854126
SPLASH=splash10-014i-5912000000-3194ee5050f213b31671
submitter=submitter = University of Tokyo Team (Faculty of Engineering, University of Tokyo)
MoNA Rating=3.75

>  <NUM PEAKS>  (272) 
69

>  <MASS SPECTRAL PEAKS>  (272) 
52 1.1
53 1.3
54 1
55 4.3
56 1
64 16.4
65 23.2
67 7.3
73 5.4
74 1.1
75 1.1
77 2.3
78 1.1
79 1.8
89 1.2
91 1.4
93 55.4
95 19.9
97 1.2
103 2
105 1.3
113 2
115 4.5
116 2
117 1.7
122 2.1
123 8.3
127 1.1
128 1.1
129 1.5
130 1
131 1.3
139 2.2
140 1
141 12.4
142 8.1
143 3.7
152 1.1
153 2.7
154 2.2
155 3.9
167 15.2
168 4.4
169 99.99
170 16.1
171 4.3
181 4.5
182 1.8
183 4.8
184 1.9
185 1.2
189 2.9
191 1.4
202 1.1
203 2.4
205 2.3
207 1
261 1.1
297 18.8
298 4.7
299 12.8
300 3.7
301 3.5
312 26
313 6.8
314 19.2
315 4.7
316 4.6
317 1.1

>  <PREDICTED SPECTRUM>  (272) 
36 3
39 52
40 2
43 13
44 25
45 2
50 2
51 55
52 32
53 23
55 12
58 6
63 240
64 61
65 260
66 52
67 32
70 7
71 31
73 195
74 63
75 117
76 58
77 84
78 103
79 53
80 14
81 44
85 47
87 29
89 38
90 44
91 117
92 168
93 757
94 118
95 311
96 5
97 54
99 55
100 57
101 79
102 18
103 112
104 13
105 63
106 5
107 2
109 2
111 14
113 137
114 55
115 298
116 55
117 55
119 35
123 62
125 89
126 37
127 35
128 23
129 195
130 14
139 119
140 113
141 321
142 259
143 174
144 3
145 7
153 117
154 112
155 235
156 33
167 372
168 150
169 999
170 537
171 303
172 3
181 110
183 307
184 212
185 191
186 102
187 46
203 110
204 2
205 80
212 3
219 9
261 125
275 0
297 346
298 158
299 311
300 152
301 137
312 570
313 274
314 479
315 204
316 164
317 41

$$$$

     RDKit          2D

 28 31  0  0  0  0  0  0  0  0999 V2000
   -5.1981   -0.7504    0.0000 C   0  0  0  0  0  0  0  0  0  0  0  0
    5.1981   -0.7504    0.0000 C   0  0  0  0  0  0  0  0  0  0  0  0
   -6.7909   -4.9501    0.0000 C   0  0  0  0  0  0  0  0  0  0  0  0
    1.0059   -4.9491    0.0000 C   0  0  0  0  0  0  0  0  0  0  0  0
   -7.3042   -3.5398    0.0000 C   0  0  0  0  0  0  0  0  0  0  0  0
   -5.3136   -5.2101    0.0000 C   0  0  0  0  0  0  0  0  0  0  0  0
    0.4930   -3.5387    0.0000 C   0  0  0  0  0  0  0  0  0  0  0  0
    2.4831   -5.2096    0.0000 C   0  0  0  0  0  0  0  0  0  0  0  0
   -6.3402   -2.3894    0.0000 C   0  0  0  0  0  0  0  0  0  0  0  0
   -4.3496   -4.0598    0.0000 C   0  0  0  0  0  0  0  0  0  0  0  0
    1.4573   -2.3886    0.0000 C   0  0  0  0  0  0  0  0  0  0  0  0
    3.4474   -4.0596    0.0000 C   0  0  0  0  0  0  0  0  0  0  0  0
   -1.3000    1.5000    0.0000 C   0  0  0  0  0  0  0  0  0  0  0  0
    1.3000    1.5000    0.0000 C   0  0  0  0  0  0  0  0  0  0  0  0
   -2.6000    0.7500    0.0000 C   0  0  0  0  0  0  0  0  0  0  0  0
    2.6000    0.7500    0.0000 C   0  0  0  0  0  0  0  0  0  0  0  0
   -1.3000   -1.5000    0.0000 C   0  0  0  0  0  0  0  0  0  0  0  0
    1.3000   -1.5000    0.0000 C   0  0  0  0  0  0  0  0  0  0  0  0
    0.0000    0.7500    0.0000 C   0  0  0  0  0  0  0  0  0  0  0  0
    0.0000   -0.7500    0.0000 C   0  0  0  0  0  0  0  0  0  0  0  0
   -4.8629   -2.6494    0.0000 C   0  0  0  0  0  0  0  0  0  0  0  0
    2.9346   -2.6491    0.0000 C   0  0  0  0  0  0  0  0  0  0  0  0
   -2.6000   -0.7500    0.0000 C   0  0  0  0  0  0  0  0  0  0  0  0
    2.6000   -0.7500    0.0000 C   0  0  0  0  0  0  0  0  0  0  0  0
   -2.9346   -2.6491    0.0000 Cl  0  0  0  0  0  0  0  0  0  0  0  0
    4.8629   -2.6494    0.0000 Cl  0  0  0  0  0  0  0  0  0  0  0  0
   -3.8989   -1.5002    0.0000 Si  0  0  0  0  0  4  0  0  0  0  0  0
    3.8989   -1.5002    0.0000 Si  0  0  0  0  0  4  0  0  0  0  0  0
  5  3  2  0
  6  3  1  0
  7  4  2  0
  8  4  1  0
  9  5  1  0
 10  6  2  0
 11  7  1  0
 12  8  2  0
 15 13  2  0
 16 14  1  0
 19 13  1  0
 19 14  2  0
 20 17  1  0
 20 18  2  0
 20 19  1  0
 21  9  2  0
 21 10  1  0
 22 11  2  0
 22 12  1  0
 23 15  1  0
 23 17  2  0
 24 16  2  0
 24 18  1  0
 27  1  1  0
 27 21  1  0
 27 23  1  0
 27 25  1  0
 28  2  1  0
 28 22  1  0
 28 24  1  0
 28 26  1  0
M  END
>  <NAME>  (273) 
2,7-BIS(CHLOROMETHYLPHENYLSILYL)NAPHTHALENE

>  <SYNONYMS>  (273) 


>  <SPECTRUM TYPE>  (273) 
MS1

>  <INSTRUMENT TYPE>  (273) 
EI-B

>  <INSTRUMENT>  (273) 
SHIMADZU QP-1000

>  <ION MODE>  (273) 
P

>  <INCHIKEY>  (273) 
WMPCPWLALQEAIX-UHFFFAOYSA-N

>  <FORMULA>  (273) 
C24H22Cl2Si2

>  <EXACT MASS>  (273) 
436.063709124

>  <MW>  (273) 
436

>  <ID>  (273) 
JP011749

>  <CONTRIBUTOR>  (273) 
University of Tokyo Team, {Faculty of Engineering, University of Tokyo

>  <COMMENT>  (273) 
SMILES=c(c4)ccc(c4)[Si](C)(Cl)c(c1)cc(c2)c(ccc2[Si](C)(Cl)c(c3)cccc3)c1
InChI=InChI=1S/C24H22Cl2Si2/c1-27(25,21-9-5-3-6-10-21)23-15-13-19-14-16-24(18-20(19)17-23)28(2,26)22-11-7-4-8-12-22/h3-18H,1-2H3
computed SMILES=Cl[Si](C=1C=CC=CC1)(C2=CC=C3C=CC(=CC3=C2)[Si](Cl)(C=4C=CC=CC4)C)C
accession=JP011749
date=2016.01.19 (Created 2008.10.21, modified 2011.05.06)
author=FAC. TECHNOLOGY, HIROSHIMA UNIV.
license=CC BY-NC-SA
exact mass=436.06371
ionization energy=70 eV
ion type=[M]+*
computed spectral entropy=3.6787641615421944
computed normalized entropy=0.784159319217698
SPLASH=splash10-00dr-1220900000-272f63aae13eb88c806a
submitter=submitter = University of Tokyo Team (Faculty of Engineering, University of Tokyo)
MoNA Rating=3.75

>  <NUM PEAKS>  (273) 
109

>  <MASS SPECTRAL PEAKS>  (273) 
36 2.2
43 1.7
51 2.3
53 1.7
63 19
65 7.9
77 2.2
78 1.3
79 1.6
91 20.7
92 1.7
93 1.6
103 2.2
105 3.6
115 1.7
119 3.9
126 1.1
129 1.6
139 2.5
140 1.2
141 1.8
153 2.6
154 2.8
155 60.4
156 7.7
157 20.7
158 2.7
159 1.5
165 1
166 1.2
167 8.7
168 2.2
169 6.2
170 1.2
172 1.5
173 1.1
175 1.7
177 1.7
179 2.5
181 1.4
184 1.3
185 5
186 2.4
189 3.7
191 1.6
192 1.4
193 1.4
197 1.4
200 1.1
201 1.6
202 12.2
203 21.7
204 14.6
205 8.1
206 1.4
215 6.4
216 1.6
217 5.3
218 1.2
219 2
228 2
229 6.5
230 3.2
231 29.5
232 6.5
233 1.7
241 2.3
242 1.1
243 1.8
245 9.2
246 5.7
247 1.9
265 4.5
266 2.8
267 2.6
268 1.1
279 1.1
280 1.1
281 3.1
282 1.1
283 1.2
305 1.8
307 3.3
308 1.1
323 17.1
324 5.2
325 1.4
343 2.9
345 1.3
358 1.9
359 3.3
360 1.6
361 2.3
401 2.3
403 1
421 99.99
422 35.5
423 75.1
424 24.5
425 18.7
426 5.4
427 1.7
436 94.3
437 35.5
438 72.3
439 24.8
440 17.7
441 5.4
442 1.5

>  <PREDICTED SPECTRUM>  (273) 
43 83
51 27
53 1
55 15
57 3
59 6
63 159
64 19
65 192
73 7
74 5
75 73
76 16
77 175
78 111
79 151
81 18
83 35
89 19
91 352
92 59
93 132
94 9
95 103
101 13
103 115
105 278
106 9
107 94
109 51
111 77
115 149
116 40
117 39
119 55
120 9
121 10
125 49
126 20
127 31
128 58
129 149
131 83
133 60
135 61
139 77
140 48
141 83
143 34
145 83
146 4
147 98
149 46
151 62
152 10
153 204
154 186
155 646
156 276
157 124
159 46
161 21
163 69
164 16
165 123
166 88
167 85
168 48
169 161
170 6
171 64
173 96
175 119
177 77
179 38
180 75
181 105
185 14
186 12
187 63
188 21
189 166
191 70
192 29
193 66
194 65
195 28
197 116
198 12
199 8
200 55
201 99
202 168
203 221
204 258
205 225
206 121
207 91
208 12
209 3
211 23
212 36
213 35
214 50
215 103
216 100
217 276
218 116
219 142
221 63
223 31
224 37
229 107
230 76
231 532
232 193
233 140
235 14
241 9
242 77
243 122
244 93
245 198
246 100
247 65
259 10
261 39
263 35
265 116
266 56
267 63
268 30
269 22
279 73
281 140
282 91
283 104
286 7
293 7
305 39
306 53
307 200
308 78
322 42
323 459
324 250
325 170
343 108
345 64
359 209
360 76
361 200
363 1
364 15
366 27
401 55
402 34
403 38
421 999
422 573
423 868
424 487
425 445
427 121
436 878
437 580
438 846
439 481
440 385
441 218

$$$$

     RDKit          2D

 26 29  0  0  0  0  0  0  0  0999 V2000
    4.8629    2.6494    0.0000 C   0  0  0  0  0  0  0  0  0  0  0  0
    2.9346    2.6491    0.0000 C   0  0  0  0  0  0  0  0  0  0  0  0
    6.4970    1.5006    0.0000 C   0  0  0  0  0  0  0  0  0  0  0  0
    4.2341   -0.3988    0.0000 C   0  0  0  0  0  0  0  0  0  0  0  0
   -2.6000   -0.7500    0.0000 C   0  0  0  0  0  0  0  0  0  0  0  0
    8.5426   -5.2590    0.0000 C   0  0  0  0  0  0  0  0  0  0  0  0
   -2.6000    0.7500    0.0000 C   0  0  0  0  0  0  0  0  0  0  0  0
    7.0654   -5.5195    0.0000 C   0  0  0  0  0  0  0  0  0  0  0  0
   -1.3000   -1.5000    0.0000 C   0  0  0  0  0  0  0  0  0  0  0  0
    9.0555   -3.8485    0.0000 C   0  0  0  0  0  0  0  0  0  0  0  0
   -1.3000    1.5000    0.0000 C   0  0  0  0  0  0  0  0  0  0  0  0
    6.1011   -4.3695    0.0000 C   0  0  0  0  0  0  0  0  0  0  0  0
    1.3000   -1.5000    0.0000 C   0  0  0  0  0  0  0  0  0  0  0  0
    8.6040   -1.2880    0.0000 C   0  0  0  0  0  0  0  0  0  0  0  0
    2.6000   -0.7500    0.0000 C   0  0  0  0  0  0  0  0  0  0  0  0
    7.6397   -0.1380    0.0000 C   0  0  0  0  0  0  0  0  0  0  0  0
    1.3000    1.5000    0.0000 C   0  0  0  0  0  0  0  0  0  0  0  0
    5.6496   -1.8090    0.0000 C   0  0  0  0  0  0  0  0  0  0  0  0
    0.0000   -0.7500    0.0000 C   0  0  0  0  0  0  0  0  0  0  0  0
    8.0911   -2.6985    0.0000 C   0  0  0  0  0  0  0  0  0  0  0  0
    0.0000    0.7500    0.0000 C   0  0  0  0  0  0  0  0  0  0  0  0
    6.6139   -2.9590    0.0000 C   0  0  0  0  0  0  0  0  0  0  0  0
    2.6000    0.7500    0.0000 C   0  0  0  0  0  0  0  0  0  0  0  0
    6.1624   -0.3985    0.0000 C   0  0  0  0  0  0  0  0  0  0  0  0
    3.8989    1.5002    0.0000 Si  0  0  0  0  0  4  0  0  0  0  0  0
    5.1981    0.7504    0.0000 Si  0  0  0  0  0  4  0  0  0  0  0  0
  7  5  2  0
  8  6  2  0
  9  5  1  0
 10  6  1  0
 11  7  1  0
 12  8  1  0
 15 13  2  0
 16 14  2  0
 19  9  2  0
 19 13  1  0
 20 10  2  0
 20 14  1  0
 21 11  2  0
 21 17  1  0
 21 19  1  0
 22 12  2  0
 22 18  1  0
 22 20  1  0
 23 15  1  0
 23 17  2  0
 24 16  1  0
 24 18  2  0
 25  1  1  0
 25  2  1  0
 25 23  1  0
 26  3  1  0
 26  4  1  0
 26 24  1  0
 26 25  1  0
M  END
>  <NAME>  (274) 
1,2-DI(BETA-NAPHTHYL)TETRAMETHYLDISILANE

>  <SYNONYMS>  (274) 


>  <SPECTRUM TYPE>  (274) 
MS1

>  <INSTRUMENT TYPE>  (274) 
EI-B

>  <INSTRUMENT>  (274) 
SHIMADZU QP-1000

>  <ION MODE>  (274) 
P

>  <INCHIKEY>  (274) 
VFQZUOTUGBMKPL-UHFFFAOYSA-N

>  <FORMULA>  (274) 
C24H26Si2

>  <EXACT MASS>  (274) 
370.157303892

>  <MW>  (274) 
370

>  <ID>  (274) 
JP011748

>  <CONTRIBUTOR>  (274) 
University of Tokyo Team, {Faculty of Engineering, University of Tokyo

>  <COMMENT>  (274) 
SMILES=c(c4)cc(c3)c(c4)cc(c3)[Si](C)(C)[Si](C)(C)c(c1)cc(c2)c(ccc2)c1
InChI=InChI=1S/C24H26Si2/c1-25(2,23-15-13-19-9-5-7-11-21(19)17-23)26(3,4)24-16-14-20-10-6-8-12-22(20)18-24/h5-18H,1-4H3
computed SMILES=C=1C=CC=2C=C(C=CC2C1)[Si](C)(C)[Si](C=3C=CC=4C=CC=CC4C3)(C)C
accession=JP011748
date=2016.01.19 (Created 2008.10.21, modified 2011.05.06)
author=FAC. TECHNOLOGY, HIROSHIMA UNIV.
license=CC BY-NC-SA
exact mass=370.1573
ionization energy=70 eV
ion type=[M]+*
computed spectral entropy=2.66216963658554
computed normalized entropy=0.7122538663029873
SPLASH=splash10-000i-2910000000-705cdd978cab4db6ba29
submitter=submitter = University of Tokyo Team (Faculty of Engineering, University of Tokyo)
MoNA Rating=3.75

>  <NUM PEAKS>  (274) 
42

>  <MASS SPECTRAL PEAKS>  (274) 
40 2
43 20.9
44 2.3
53 3.4
55 1.9
57 2.4
58 1.1
59 2.3
73 2.6
77 1
105 1.2
115 2.4
116 1.1
128 1
129 3.4
131 3
141 3.3
143 1.5
145 1.5
153 1.2
155 9.4
156 1.7
157 2.4
159 1.5
167 6.7
168 2
169 9.3
171 1.1
181 2.8
182 1
183 7.7
185 99.99
187 4.5
227 3.3
228 1.1
241 1
297 22.7
298 6.1
299 1.8
370 8.3
371 3.4
372 1.5

>  <PREDICTED SPECTRUM>  (274) 
39 6
40 17
41 45
43 116
44 79
45 224
46 87
47 75
55 5
59 79
71 47
72 16
73 323
74 77
75 51
78 3
91 22
93 16
114 16
115 198
116 7
117 1
127 58
128 80
129 270
131 73
141 191
142 30
143 44
152 2
153 108
154 56
155 343
156 185
157 287
166 34
167 366
168 71
169 205
170 14
171 57
180 6
181 153
182 71
183 248
184 56
185 999
187 241
209 1
211 14
227 70
241 59
242 79
297 553
298 233
299 100
300 2
370 301
371 142
372 67

$$$$

     RDKit          2D

 21 21  0  0  0  0  0  0  0  0999 V2000
   10.2576    0.7895    0.0000 C   0  0  0  0  0  0  0  0  0  0  0  0
  -10.2576    0.7895    0.0000 C   0  0  0  0  0  0  0  0  0  0  0  0
    2.9533   -2.3164    0.0000 C   0  0  0  0  0  0  0  0  0  0  0  0
   -2.9533   -2.3164    0.0000 C   0  0  0  0  0  0  0  0  0  0  0  0
    8.8298    1.2495    0.0000 C   0  0  0  0  0  0  0  0  0  0  0  0
   -8.8298    1.2495    0.0000 C   0  0  0  0  0  0  0  0  0  0  0  0
    7.7176    0.2430    0.0000 C   0  0  0  0  0  0  0  0  0  0  0  0
   -7.7176    0.2430    0.0000 C   0  0  0  0  0  0  0  0  0  0  0  0
    6.2899    0.7030    0.0000 C   0  0  0  0  0  0  0  0  0  0  0  0
   -6.2899    0.7030    0.0000 C   0  0  0  0  0  0  0  0  0  0  0  0
    5.1777   -0.3035    0.0000 C   0  0  0  0  0  0  0  0  0  0  0  0
   -5.1777   -0.3035    0.0000 C   0  0  0  0  0  0  0  0  0  0  0  0
    0.7500    1.0300    0.0000 C   0  0  0  0  0  0  0  0  0  0  0  0
   -0.7500    1.0300    0.0000 C   0  0  0  0  0  0  0  0  0  0  0  0
    3.7499    0.1565    0.0000 C   0  0  0  0  0  0  0  0  0  0  0  0
   -3.7499    0.1565    0.0000 C   0  0  0  0  0  0  0  0  0  0  0  0
    1.2100   -0.3900    0.0000 C   0  0  0  0  0  0  0  0  0  0  0  0
   -1.2100   -0.3900    0.0000 C   0  0  0  0  0  0  0  0  0  0  0  0
   -0.0000   -1.2800    0.0000 S   0  0  0  0  0  0  0  0  0  0  0  0
    2.6377   -0.8500    0.0000 Si  0  0  0  0  0  4  0  0  0  0  0  0
   -2.6377   -0.8500    0.0000 Si  0  0  0  0  0  4  0  0  0  0  0  0
  5  1  1  0
  6  2  1  0
  7  5  1  0
  8  6  1  0
  9  7  1  0
 10  8  1  0
 11  9  1  0
 12 10  1  0
 14 13  1  0
 15 11  1  0
 16 12  1  0
 17 13  2  0
 18 14  2  0
 19 17  1  0
 19 18  1  0
 20  3  1  0
 20 15  1  0
 20 17  1  0
 21  4  1  0
 21 16  1  0
 21 18  1  0
M  END
>  <NAME>  (275) 
2,5-BIS(N-HEXYLMETHYLSILYL)THIOPHENE

>  <SYNONYMS>  (275) 


>  <SPECTRUM TYPE>  (275) 
MS1

>  <INSTRUMENT TYPE>  (275) 
EI-B

>  <INSTRUMENT>  (275) 
SHIMADZU QP-1000

>  <ION MODE>  (275) 
P

>  <INCHIKEY>  (275) 
UIVZUHLZPZAWTR-UHFFFAOYSA-N

>  <FORMULA>  (275) 
C18H36SSi2

>  <EXACT MASS>  (275) 
340.20762521200004

>  <MW>  (275) 
340

>  <ID>  (275) 
JP011738

>  <CONTRIBUTOR>  (275) 
University of Tokyo Team, {Faculty of Engineering, University of Tokyo

>  <COMMENT>  (275) 
SMILES=CCCCCC[SiH](C)c(c1)sc(c1)[SiH](C)CCCCCC
InChI=InChI=1S/C18H36SSi2/c1-5-7-9-11-15-20(3)17-13-14-18(19-17)21(4)16-12-10-8-6-2/h13-14,20-21H,5-12,15-16H2,1-4H3
computed SMILES=S1C(=CC=C1[SiH](C)CCCCCC)[SiH](C)CCCCCC
accession=JP011738
date=2016.01.19 (Created 2008.10.21, modified 2011.05.06)
author=FAC. TECHNOLOGY, HIROSHIMA UNIV.
license=CC BY-NC-SA
exact mass=340.20762
ionization energy=70 eV
ion type=[M]+*
computed spectral entropy=3.8417606966751134
computed normalized entropy=0.8647450530947358
SPLASH=splash10-05di-7900000000-5b5a767ebb192fa8cc45
submitter=submitter = University of Tokyo Team (Faculty of Engineering, University of Tokyo)
MoNA Rating=3.75

>  <NUM PEAKS>  (275) 
85

>  <MASS SPECTRAL PEAKS>  (275) 
53 8.4
55 20.5
56 3.8
57 9.1
58 8.5
59 66.2
60 5.6
61 3.8
67 7.6
68 3.7
69 37.2
70 4.7
71 15.6
72 23
73 24.7
74 2.7
75 7.6
77 5.6
78 2.1
79 3.8
81 8.2
82 3.9
83 28.8
84 6.2
85 37
86 9
87 5
91 2.6
92 6.3
93 11
94 3.2
95 43.9
96 10.9
97 15.4
98 5.4
99 24.2
100 47.6
101 12.2
102 2.7
105 2.4
107 3.6
108 2.7
109 14.7
110 4.4
111 24
112 3.7
114 3.3
115 2.1
118 2.1
119 2.8
121 12.7
122 2.4
123 3.4
125 2.3
126 3.7
127 50.9
128 80.5
129 18.7
130 5.6
131 5.7
133 4.2
141 2.5
144 23.2
145 12
146 4.5
147 4.2
155 3.7
156 2.3
157 13.6
158 3.9
159 4.2
169 2.4
170 6.1
171 99.99
172 28.1
173 22.2
174 4.5
178 2.4
185 5.1
199 2
211 5.9
212 7.4
213 2.8
255 5.4
340 2.2

>  <PREDICTED SPECTRUM>  (275) 
31 3
34 0
36 17
39 168
40 65
41 229
42 105
43 274
44 87
45 290
46 65
47 80
51 3
53 155
54 67
55 343
56 170
57 221
58 301
59 999
60 414
61 171
62 45
63 63
65 63
66 51
67 175
68 130
69 443
70 139
71 437
72 262
73 489
74 99
75 144
76 56
77 80
78 2
79 91
80 40
81 199
82 124
83 486
84 298
85 568
86 283
87 320
88 80
89 74
91 94
92 82
93 171
94 40
95 335
96 174
97 394
98 187
99 595
100 569
101 371
102 90
103 67
105 70
107 53
108 142
109 254
110 135
111 309
112 190
113 226
114 129
115 193
116 138
117 112
119 116
121 279
123 118
124 18
125 159
126 259
127 871
128 700
129 717
130 87
131 273
133 71
135 48
136 15
137 67
140 12
141 180
142 68
143 248
144 189
145 273
146 101
147 107
151 3
153 23
155 156
156 92
157 214
158 142
159 97
160 41
161 71
169 119
170 119
171 902
172 474
173 425
174 151
175 22
181 36
183 68
184 29
185 196
186 59
199 85
200 50
210 37
211 162
212 10
213 73
230 21
255 130
256 27
257 98
340 163
341 77
342 50

$$$$

     RDKit          2D

 13 13  0  0  0  0  0  0  0  0999 V2000
   -1.3000   -2.2980    0.0000 C   0  0  0  0  0  0  0  0  0  0  0  0
    3.2270    1.4994    0.0000 C   0  0  0  0  0  0  0  0  0  0  0  0
   -0.6297    1.5000    0.0000 C   0  0  0  0  0  0  0  0  0  0  0  0
   -0.0008   -1.5482    0.0000 C   0  0  0  0  0  0  0  0  0  0  0  0
    2.2627    0.3505    0.0000 C   0  0  0  0  0  0  0  0  0  0  0  0
    0.3343    0.3508    0.0000 C   0  0  0  0  0  0  0  0  0  0  0  0
    5.1972   -3.0487    0.0000 C   0  0  0  0  0  0  0  0  0  0  0  0
    3.8972   -3.7987    0.0000 C   0  0  0  0  0  0  0  0  0  0  0  0
    5.1972   -1.5487    0.0000 C   0  0  0  0  0  0  0  0  0  0  0  0
    2.5972   -3.0487    0.0000 C   0  0  0  0  0  0  0  0  0  0  0  0
    3.8972   -0.7987    0.0000 C   0  0  0  0  0  0  0  0  0  0  0  0
    2.5972   -1.5487    0.0000 C   0  0  0  0  0  0  0  0  0  0  0  0
    1.2983   -0.7984    0.0000 Si  0  0  0  0  0  4  0  0  0  0  0  0
  4  1  3  0
  5  2  3  0
  6  3  3  0
  8  7  2  0
  9  7  1  0
 10  8  1  0
 11  9  2  0
 12 10  2  0
 12 11  1  0
 13  4  1  0
 13  5  1  0
 13  6  1  0
 13 12  1  0
M  END
>  <NAME>  (276) 
PHENYLTRIETHYNYLSILANE

>  <SYNONYMS>  (276) 


>  <SPECTRUM TYPE>  (276) 
MS1

>  <INSTRUMENT TYPE>  (276) 
EI-B

>  <INSTRUMENT>  (276) 
SHIMADZU QP-1000

>  <ION MODE>  (276) 
P

>  <INCHIKEY>  (276) 
HYVKPKFKOROWNW-UHFFFAOYSA-N

>  <FORMULA>  (276) 
C12H8Si

>  <EXACT MASS>  (276) 
180.039526786

>  <MW>  (276) 
180

>  <ID>  (276) 
JP011736

>  <CONTRIBUTOR>  (276) 
University of Tokyo Team, {Faculty of Engineering, University of Tokyo

>  <COMMENT>  (276) 
SMILES=C#C[Si](C#C)(C#C)c(c1)cccc1
InChI=InChI=1S/C12H8Si/c1-4-13(5-2,6-3)12-10-8-7-9-11-12/h1-3,7-11H
computed SMILES=C#C[Si](C#C)(C#C)C=1C=CC=CC1
accession=JP011736
date=2016.01.19 (Created 2008.10.21, modified 2011.05.06)
author=FAC. TECHNOLOGY, HIROSHIMA UNIV.
license=CC BY-NC-SA
exact mass=180.03953
ionization energy=70 eV
ion type=[M]+*
computed spectral entropy=2.813008493187914
computed normalized entropy=0.7912048116069634
SPLASH=splash10-0udi-9500000000-38d8dc580e3a92c50ef5
submitter=submitter = University of Tokyo Team (Faculty of Engineering, University of Tokyo)
MoNA Rating=3.75

>  <NUM PEAKS>  (276) 
35

>  <MASS SPECTRAL PEAKS>  (276) 
50 11.6
51 17.4
53 99.99
54 8.6
55 3.9
62 1.4
63 2.9
65 1.3
66 1.5
74 4.1
75 2.9
76 6.8
77 30
78 16.3
79 5.2
89 1.3
90 1.1
101 5.6
102 11.5
103 24.1
104 5.9
105 3
126 1.6
127 1.6
128 1.5
129 16.3
130 5.5
131 1.1
152 1.1
153 7.7
154 12.8
155 2.3
179 17
180 10.3
181 2.1

>  <PREDICTED SPECTRUM>  (276) 
25 2
26 28
27 35
37 32
38 147
40 8
49 72
50 565
51 742
52 471
53 462
54 143
61 54
62 168
63 266
64 94
74 327
75 303
76 510
77 999
78 418
79 220
87 10
89 173
90 15
100 49
101 196
102 594
103 720
104 453
105 221
125 199
126 158
127 217
128 206
129 594
130 115
151 22
152 178
153 514
154 457
155 64
177 3
178 46
179 636
180 581
181 181

$$$$

     RDKit          2D

 18 18  0  0  0  0  0  0  0  0999 V2000
    1.5000    3.0000    0.0000 C   0  0  0  0  0  0  0  0  0  0  0  0
    0.0000    4.5000    0.0000 C   0  0  0  0  0  0  0  0  0  0  0  0
   -3.3491   -0.2013    0.0000 C   0  0  0  0  0  0  0  0  0  0  0  0
   -3.8978   -2.2504    0.0000 C   0  0  0  0  0  0  0  0  0  0  0  0
    1.8487   -2.7991    0.0000 C   0  0  0  0  0  0  0  0  0  0  0  0
    3.8978   -2.2504    0.0000 C   0  0  0  0  0  0  0  0  0  0  0  0
   -1.3000    0.7500    0.0000 C   0  0  0  0  0  0  0  0  0  0  0  0
    1.3000    0.7500    0.0000 C   0  0  0  0  0  0  0  0  0  0  0  0
    0.0000   -1.5000    0.0000 C   0  0  0  0  0  0  0  0  0  0  0  0
    0.0000    1.5000    0.0000 C   0  0  0  0  0  0  0  0  0  0  0  0
   -1.3000   -0.7500    0.0000 C   0  0  0  0  0  0  0  0  0  0  0  0
    1.3000   -0.7500    0.0000 C   0  0  0  0  0  0  0  0  0  0  0  0
   -1.5000    3.0000    0.0000 Cl  0  0  0  0  0  0  0  0  0  0  0  0
   -1.8487   -2.7991    0.0000 Cl  0  0  0  0  0  0  0  0  0  0  0  0
    3.3491   -0.2013    0.0000 Cl  0  0  0  0  0  0  0  0  0  0  0  0
    0.0000    3.0000    0.0000 Si  0  0  0  0  0  4  0  0  0  0  0  0
   -2.5989   -1.5002    0.0000 Si  0  0  0  0  0  4  0  0  0  0  0  0
    2.5989   -1.5002    0.0000 Si  0  0  0  0  0  4  0  0  0  0  0  0
 10  7  2  0
 10  8  1  0
 11  7  1  0
 11  9  2  0
 12  8  2  0
 12  9  1  0
 16  1  1  0
 16  2  1  0
 16 10  1  0
 16 13  1  0
 17  3  1  0
 17  4  1  0
 17 11  1  0
 17 14  1  0
 18  5  1  0
 18  6  1  0
 18 12  1  0
 18 15  1  0
M  END
>  <NAME>  (277) 
1,3,5-TRIS(CHROLODIMETHYLSILYL)BENZENE

>  <SYNONYMS>  (277) 


>  <SPECTRUM TYPE>  (277) 
MS1

>  <INSTRUMENT TYPE>  (277) 
EI-B

>  <INSTRUMENT>  (277) 
SHIMADZU QP-1000

>  <ION MODE>  (277) 
P

>  <INCHIKEY>  (277) 
LBFOVAINRVHXRL-UHFFFAOYSA-N

>  <FORMULA>  (277) 
C12H21Cl3Si3

>  <EXACT MASS>  (277) 
354.001663302

>  <MW>  (277) 
354

>  <ID>  (277) 
JP011735

>  <CONTRIBUTOR>  (277) 
University of Tokyo Team, {Faculty of Engineering, University of Tokyo

>  <COMMENT>  (277) 
SMILES=C[Si](C)(Cl)c(c1)cc(cc1[Si](C)(C)Cl)[Si](C)(C)Cl
InChI=InChI=1S/C12H21Cl3Si3/c1-16(2,13)10-7-11(17(3,4)14)9-12(8-10)18(5,6)15/h7-9H,1-6H3
computed SMILES=Cl[Si](C=1C=C(C=C(C1)[Si](Cl)(C)C)[Si](Cl)(C)C)(C)C
accession=JP011735
date=2016.01.19 (Created 2008.10.21, modified 2011.05.06)
author=FAC. TECHNOLOGY, HIROSHIMA UNIV.
license=CC BY-NC-SA
exact mass=354.00166
ionization energy=70 eV
ion type=[M]+*
computed spectral entropy=4.223121688062856
computed normalized entropy=0.8933309155103679
SPLASH=splash10-052f-8309000000-ae4b37872050b6063d1d
submitter=submitter = University of Tokyo Team (Faculty of Engineering, University of Tokyo)
MoNA Rating=3.75

>  <NUM PEAKS>  (277) 
113

>  <MASS SPECTRAL PEAKS>  (277) 
51 3
53 15.9
54 10
55 58.5
56 31.8
57 57.4
58 9.6
59 60.4
60 4.9
61 2.8
63 31.1
64 3.2
65 34.4
66 5.1
67 23.1
68 8.4
69 35.1
70 20.9
71 17.9
73 42
74 4.8
75 7.4
77 6.7
78 5.3
79 10.4
80 2.9
81 7.3
83 56.5
84 12.3
85 9.5
87 3.4
88 2.7
89 6.1
90 2.8
91 5.7
93 93.4
94 8.7
95 31
96 6.2
97 24.6
98 6
103 17.3
104 3.6
105 14.7
106 3.3
107 12.2
109 5.9
110 2.8
111 10.2
112 5
113 5.3
115 4.4
117 9.2
118 2.9
119 8.9
120 3.3
121 5.4
125 5.4
126 3.1
127 3.9
129 3.2
131 15.9
132 6.4
133 16.5
134 5.7
135 5.8
137 4.9
138 3.9
139 4.8
143 3.6
144 4.3
145 23.6
146 12.6
147 8.8
148 4.3
152 19.4
153 18.4
154 6.3
155 7.4
156 8.7
157 6.4
159 4.7
161 7
162 6.9
163 7.9
175 7.3
197 4.6
211 6.7
225 5.6
305 11.3
307 9.5
319 83.9
320 23
321 63.2
322 18.9
323 18.3
325 48
326 12.9
327 75
328 16.6
329 38.4
330 8.4
335 17.9
337 10.3
339 91.5
340 39.4
341 99.99
342 46.5
343 43.8
344 20.7
345 9.1
354 16.2
356 18.4

>  <PREDICTED SPECTRUM>  (277) 
26 24
27 257
28 125
29 135
30 18
31 5
36 104
38 53
39 193
40 17
41 72
42 8
43 100
44 116
45 167
47 62
49 61
50 81
51 207
52 202
53 317
54 110
55 181
57 213
58 153
59 293
61 4
62 150
63 680
64 244
65 738
66 273
67 191
68 12
69 53
70 69
73 315
74 139
75 250
76 67
77 134
78 301
79 473
80 232
81 217
82 53
83 108
84 100
85 123
86 32
87 37
89 151
91 272
92 549
93 999
94 231
95 663
96 161
97 327
98 123
99 189
100 129
101 97
102 40
103 268
104 47
105 377
106 164
107 289
108 77
109 204
110 28
111 210
112 152
113 470
114 220
115 596
116 167
117 205
118 116
119 165
120 168
121 178
123 259
124 15
125 310
126 172
127 176
128 139
129 237
130 81
131 286
133 461
134 158
135 334
136 174
137 196
138 90
139 186
140 70
141 92
142 94
143 108
144 2
145 236
146 77
147 197
148 85
149 180
150 155
151 155
153 121
155 117
156 226
157 295
158 78
159 86
160 9
161 116
162 168
163 98
164 41
165 49
167 75
169 5
170 35
171 286
172 229
173 193
175 27
177 92
178 8
179 325
180 172
181 250
182 14
183 219
184 68
185 263
187 18
189 73
191 179
195 83
197 97
201 65
203 37
204 2
205 179
206 248
207 209
208 182
209 251
210 77
211 135
212 33
213 230
214 118
215 135
217 125
218 156
219 181
220 10
221 271
222 113
223 325
224 146
225 435
226 329
227 286
228 242
229 161
231 80
233 10
237 128
238 86
239 236
240 181
241 566
242 213
243 210
245 157
247 86
248 46
257 93
261 46
271 367
272 273
273 344
274 117
275 51
276 9
277 144
279 117
319 188
320 152
321 124
339 854
340 382
341 759
342 320
343 409
345 33
354 255
355 266
356 491
357 271
358 246
359 99

$$$$

     RDKit          2D

 21 21  0  0  0  0  0  0  0  0999 V2000
    0.7932    3.8267    0.0000 C   0  0  0  0  0  0  0  0  0  0  0  0
    4.6384    3.1067    0.0000 C   0  0  0  0  0  0  0  0  0  0  0  0
    3.5623    7.1228    0.0000 C   0  0  0  0  0  0  0  0  0  0  0  0
    3.1158    5.9626    0.0000 C   0  0  0  0  0  0  0  0  0  0  0  0
    2.0073    8.6221    0.0000 C   0  0  0  0  0  0  0  0  0  0  0  0
   -0.0879    8.2902    0.0000 C   0  0  0  0  0  0  0  0  0  0  0  0
   -2.7808    3.1625    0.0000 C   0  0  0  0  0  0  0  0  0  0  0  0
   -1.9519    1.2098    0.0000 C   0  0  0  0  0  0  0  0  0  0  0  0
    0.0008    2.0386    0.0000 C   0  0  0  0  0  0  0  0  0  0  0  0
    0.4495    1.0661    0.0000 C   0  0  0  0  0  0  0  0  0  0  0  0
    2.8505    1.7028    0.0000 C   0  0  0  0  0  0  0  0  0  0  0  0
    3.8533    4.5936    0.0000 C   0  0  0  0  0  0  0  0  0  0  0  0
   -2.4519    6.0604    0.0000 C   0  0  0  0  0  0  0  0  0  0  0  0
   -1.1529    6.8104    0.0000 C   0  0  0  0  0  0  0  0  0  0  0  0
   -2.1400    4.5932    0.0000 C   0  0  0  0  0  0  0  0  0  0  0  0
    2.0923    4.5767    0.0000 Si  0  0  0  0  0  4  0  0  0  0  0  0
    1.1257    7.4085    0.0000 Si  0  0  0  0  0  4  0  0  0  0  0  0
   -1.3900    2.6005    0.0000 Si  0  0  0  0  0  4  0  0  0  0  0  0
    1.6685    2.6263    0.0000 Si  0  0  0  0  0  4  0  0  0  0  0  0
   -0.0381    5.8067    0.0000 Si  0  0  0  0  0  4  0  0  0  0  0  0
   -0.6483    4.4364    0.0000 Si  0  0  0  0  0  4  0  0  0  0  0  0
 14 13  1  0
 15 13  1  0
 16  1  1  0
 16  2  1  0
 16  3  1  0
 17  4  1  0
 17  5  1  0
 17  6  1  0
 18  7  1  0
 18  8  1  0
 18  9  1  0
 19 10  1  0
 19 11  1  0
 19 12  1  0
 20 14  1  0
 20 16  1  0
 20 17  1  0
 21 15  1  0
 21 18  1  0
 21 19  1  0
 21 20  1  0
M  END
>  <NAME>  (278) 
1,1,2,2-TETRAKIS(TRIMETHYLSILYL)-1,2-DISILACYCLOPENTANE

>  <SYNONYMS>  (278) 


>  <SPECTRUM TYPE>  (278) 
MS1

>  <INSTRUMENT TYPE>  (278) 
EI-B

>  <INSTRUMENT>  (278) 
SHIMADZU QP-1000

>  <ION MODE>  (278) 
P

>  <INCHIKEY>  (278) 
AGTOZWQMZJDUSV-UHFFFAOYSA-N

>  <FORMULA>  (278) 
C15H42Si6

>  <EXACT MASS>  (278) 
390.190210524

>  <MW>  (278) 
390

>  <ID>  (278) 
JP011733

>  <CONTRIBUTOR>  (278) 
University of Tokyo Team, {Faculty of Engineering, University of Tokyo

>  <COMMENT>  (278) 
SMILES=C[Si](C)(C)[Si](C1)([Si](C)(C)C)[Si](CC1)([Si](C)(C)C)[Si](C)(C)C
InChI=InChI=1S/C15H42Si6/c1-16(2,3)20(17(4,5)6)14-13-15-21(20,18(7,8)9)19(10,11)12/h13-15H2,1-12H3
computed SMILES=C[Si](C)(C)[Si]1(CCC[Si]1([Si](C)(C)C)[Si](C)(C)C)[Si](C)(C)C
accession=JP011733
date=2016.01.19 (Created 2008.10.21, modified 2011.05.06)
author=FAC. TECHNOLOGY, HIROSHIMA UNIV.
license=CC BY-NC-SA
exact mass=390.19021
ionization energy=70 eV
ion type=[M]+*
computed spectral entropy=3.625640637497589
computed normalized entropy=0.8929175038488428
SPLASH=splash10-00di-9630000000-907d33f0793859e43c9b
submitter=submitter = University of Tokyo Team (Faculty of Engineering, University of Tokyo)
MoNA Rating=3.75

>  <NUM PEAKS>  (278) 
58

>  <MASS SPECTRAL PEAKS>  (278) 
44 10.3
45 15.6
47 22.2
56 4.6
57 4.4
58 9.6
60 16.5
69 3.6
71 3.2
73 99.99
74 8.8
75 4.6
83 3.4
85 5.7
97 3.5
99 9.3
101 6.3
111 3.6
113 8.4
115 8.9
117 6.7
125 7.8
127 8.6
129 9.1
131 11.3
141 12.9
142 3.2
143 6
145 3.9
155 4.7
157 10.4
159 5.7
169 6.7
171 9.5
173 4.5
175 4.4
183 4
185 10.1
187 3.8
199 7.3
201 5.9
202 6.2
203 3.3
213 8
215 5.9
217 5.5
227 8.6
228 3.4
229 7.8
241 4.7
243 3.2
244 9.9
245 6.8
301 3
317 9.1
318 3.1
319 2.1
390 4

>  <PREDICTED SPECTRUM>  (278) 
41 35
43 76
44 59
45 162
55 64
57 68
58 18
59 112
67 3
69 67
70 1
71 8
73 999
74 193
75 231
77 32
79 8
83 114
85 103
86 38
87 123
91 2
95 77
97 146
98 50
99 210
100 46
101 51
111 88
113 101
114 92
115 207
116 10
117 134
123 48
125 184
126 44
127 218
128 59
129 383
131 467
132 59
133 110
135 20
137 30
139 87
141 219
142 131
143 228
144 45
145 119
147 29
155 70
156 26
157 223
158 34
159 164
160 7
161 11
168 21
169 201
170 139
171 351
172 97
173 273
175 117
181 19
183 184
184 98
185 292
186 111
187 275
188 96
189 73
197 89
199 303
200 85
201 274
202 160
203 234
211 61
213 222
214 12
215 116
217 119
227 318
228 146
229 370
231 63
241 167
242 15
243 256
244 264
245 350
246 44
259 62
273 2
289 20
301 102
304 28
317 376
318 200
319 178
320 56
321 14
337 34
390 264

$$$$

     RDKit          2D

 13 14  0  0  0  0  0  0  0  0999 V2000
   -0.4345   -0.8352    0.0000 C   0  0  0  0  0  0  0  0  0  0  0  0
    1.4893   -0.7015    0.0000 C   0  0  0  0  0  0  0  0  0  0  0  0
    0.5883    3.0476    0.0000 C   0  0  0  0  0  0  0  0  0  0  0  0
    3.1012    0.7032    0.0000 C   0  0  0  0  0  0  0  0  0  0  0  0
   -0.4115    4.1559    0.0000 C   0  0  0  0  0  0  0  0  0  0  0  0
    4.0191    1.8802    0.0000 C   0  0  0  0  0  0  0  0  0  0  0  0
   -1.6215    2.0602    0.0000 C   0  0  0  0  0  0  0  0  0  0  0  0
    1.7451    2.7079    0.0000 C   0  0  0  0  0  0  0  0  0  0  0  0
   -0.1617    1.7485    0.0000 C   0  0  0  0  0  0  0  0  0  0  0  0
    1.6917    1.2162    0.0000 C   0  0  0  0  0  0  0  0  0  0  0  0
   -1.7873    3.5531    0.0000 S   0  0  0  0  0  0  0  0  0  0  0  0
    3.1865    3.1304    0.0000 S   0  0  0  0  0  0  0  0  0  0  0  0
    0.4478    0.3779    0.0000 Si  0  0  0  0  0  4  0  0  0  0  0  0
  5  3  2  0
  6  4  2  0
  9  3  1  0
  9  7  2  0
 10  4  1  0
 10  8  2  0
 11  5  1  0
 11  7  1  0
 12  6  1  0
 12  8  1  0
 13  1  1  0
 13  2  1  0
 13  9  1  0
 13 10  1  0
M  END
>  <NAME>  (279) 
DIMETHYLDI(3-THIENYL)SILANE

>  <SYNONYMS>  (279) 


>  <SPECTRUM TYPE>  (279) 
MS1

>  <INSTRUMENT TYPE>  (279) 
EI-B

>  <INSTRUMENT>  (279) 
SHIMADZU QP-1000

>  <ION MODE>  (279) 
P

>  <INCHIKEY>  (279) 
VGHQCYAPAKSXHU-UHFFFAOYSA-N

>  <FORMULA>  (279) 
C10H12S2Si

>  <EXACT MASS>  (279) 
224.014968914

>  <MW>  (279) 
224

>  <ID>  (279) 
JP011732

>  <CONTRIBUTOR>  (279) 
University of Tokyo Team, {Faculty of Engineering, University of Tokyo

>  <COMMENT>  (279) 
SMILES=c(s2)cc(c2)[Si](C)(C)c(c1)csc1
InChI=InChI=1S/C10H12S2Si/c1-13(2,9-3-5-11-7-9)10-4-6-12-8-10/h3-8H,1-2H3
computed SMILES=S1C=CC(=C1)[Si](C2=CSC=C2)(C)C
accession=JP011732
date=2016.01.19 (Created 2008.10.21, modified 2011.05.06)
author=FAC. TECHNOLOGY, HIROSHIMA UNIV.
license=CC BY-NC-SA
exact mass=224.01497
ionization energy=70 eV
ion type=[M]+*
computed spectral entropy=3.227962877753911
computed normalized entropy=0.7821317593753719
SPLASH=splash10-0zfr-9140000000-9cb63ee3608f1d80f1b3
submitter=submitter = University of Tokyo Team (Faculty of Engineering, University of Tokyo)
MoNA Rating=3.75

>  <NUM PEAKS>  (279) 
62

>  <MASS SPECTRAL PEAKS>  (279) 
50 11.7
51 79.8
52 11.7
53 57.4
54 7.4
55 16
56 1.1
57 11.7
58 12.8
59 6.4
60 2.1
61 6.4
62 2.1
63 6.4
64 2.1
65 12.8
66 4.3
67 5.3
68 1.1
69 7.4
73 2.1
74 1.1
75 50
76 4.3
77 6.4
78 1.1
79 1.1
81 2.1
82 1.1
83 6.4
84 3.2
85 6.4
89 2.1
90 1.1
91 2.1
96 1.1
97 6.4
98 2.1
99 1.1
100 1.1
101 2.1
108 2.1
111 7.4
115 5.3
125 2.1
134 2.1
140 2.1
141 6.4
142 1.1
143 1.1
151 1.1
166 2.1
183 5.3
207 2.1
209 99.99
210 20.2
211 12.8
212 2.1
222 3.2
224 22.3
225 6.4
226 4.3

>  <PREDICTED SPECTRUM>  (279) 
14 0
26 29
27 73
28 22
29 73
31 17
33 26
34 27
36 35
37 63
38 94
39 265
40 92
41 99
42 42
43 186
44 45
45 315
46 9
47 85
48 6
49 43
50 149
51 175
52 130
53 192
54 61
55 169
56 26
57 194
58 214
59 172
60 47
61 90
62 84
63 158
64 104
65 183
66 95
67 60
68 36
69 158
70 43
71 58
72 44
73 130
74 98
75 168
76 92
77 139
78 96
79 80
80 36
81 128
82 121
83 233
84 156
85 112
86 59
88 44
89 74
90 72
91 87
92 33
93 90
94 36
95 55
96 16
97 142
98 68
99 66
100 97
101 43
102 43
103 78
104 18
105 20
106 0
107 26
108 12
109 106
110 16
111 287
112 47
113 87
114 83
115 137
118 18
120 28
121 5
122 28
123 8
124 48
125 84
127 112
128 3
130 49
131 46
133 6
134 32
136 26
137 86
139 73
140 50
141 123
142 20
143 25
144 10
148 30
149 71
150 9
151 45
152 45
153 43
165 75
166 67
176 32
177 43
179 54
181 104
183 63
195 10
207 3
209 999
210 381
211 308
212 103
222 27
223 50
224 477
225 201
226 168
227 58
228 3

$$$$

     RDKit          2D

  9  9  0  0  0  0  0  0  0  0999 V2000
    0.2422   -1.8255    0.0000 C   0  0  0  0  0  0  0  0  0  0  0  0
    1.2100    0.0622    0.0000 C   0  0  0  0  0  0  0  0  0  0  0  0
   -3.6055   -2.2777    0.0000 C   0  0  0  0  0  0  0  0  0  0  0  0
   -2.1055   -2.2777    0.0000 C   0  0  0  0  0  0  0  0  0  0  0  0
   -4.0655   -0.8577    0.0000 C   0  0  0  0  0  0  0  0  0  0  0  0
   -1.6455   -0.8577    0.0000 C   0  0  0  0  0  0  0  0  0  0  0  0
   -0.6777    1.0300    0.0000 Cl  0  0  0  0  0  0  0  0  0  0  0  0
   -2.8555    0.0323    0.0000 S   0  0  0  0  0  0  0  0  0  0  0  0
   -0.2177   -0.3977    0.0000 Si  0  0  0  0  0  4  0  0  0  0  0  0
  4  3  1  0
  5  3  2  0
  6  4  2  0
  8  5  1  0
  8  6  1  0
  9  1  1  0
  9  2  1  0
  9  6  1  0
  9  7  1  0
M  END
>  <NAME>  (280) 
CHLORODIMETHYL-2-THIENYLSILANE

>  <SYNONYMS>  (280) 


>  <SPECTRUM TYPE>  (280) 
MS1

>  <INSTRUMENT TYPE>  (280) 
EI-B

>  <INSTRUMENT>  (280) 
SHIMADZU QP-1000

>  <ION MODE>  (280) 
P

>  <INCHIKEY>  (280) 
DEPVFYAOAUKMFL-UHFFFAOYSA-N

>  <FORMULA>  (280) 
C6H9ClSSi

>  <EXACT MASS>  (280) 
175.98827549799998

>  <MW>  (280) 
176

>  <ID>  (280) 
JP011731

>  <CONTRIBUTOR>  (280) 
University of Tokyo Team, {Faculty of Engineering, University of Tokyo

>  <COMMENT>  (280) 
SMILES=C[Si](C)(Cl)c(c1)scc1
InChI=InChI=1S/C6H9ClSSi/c1-9(2,7)6-4-3-5-8-6/h3-5H,1-2H3
computed SMILES=Cl[Si](C=1SC=CC1)(C)C
accession=JP011731
date=2016.01.19 (Created 2008.10.21, modified 2011.05.06)
author=FAC. TECHNOLOGY, HIROSHIMA UNIV.
license=CC BY-NC-SA
exact mass=175.98828
ionization energy=70 eV
ion type=[M]+*
computed spectral entropy=3.1397498555347454
computed normalized entropy=0.802589824031753
SPLASH=splash10-03di-9400000000-5fd0b55c692ba73a4a67
submitter=submitter = University of Tokyo Team (Faculty of Engineering, University of Tokyo)
MoNA Rating=3.75

>  <NUM PEAKS>  (280) 
50

>  <MASS SPECTRAL PEAKS>  (280) 
52 7.4
53 32.6
54 3.2
55 35.8
56 6.3
57 4.2
58 14.7
59 9.5
60 1.1
61 2.1
62 3.2
63 2.1
64 99.99
65 64.2
66 7.4
67 11.6
69 5.3
71 5.3
73 1.1
75 12.6
76 1.1
77 6.3
78 3.2
79 4.2
81 12.6
82 4.2
83 3.2
85 3.2
89 1.1
93 13.7
95 6.3
97 16.8
98 1.1
99 1.1
103 12.6
105 3.2
111 6.3
117 3.2
120 1.1
135 8.4
136 6.3
137 3.2
161 82.1
162 9.5
163 31.6
164 3.2
165 1.1
176 14.7
177 1.1
178 5.3

>  <PREDICTED SPECTRUM>  (280) 
14 8
15 55
26 40
27 67
28 7
29 25
31 12
32 0
33 21
34 3
35 26
36 27
37 49
38 97
39 237
40 70
41 58
42 26
43 171
44 43
45 253
46 24
47 121
48 60
49 66
50 133
51 198
52 145
53 242
54 80
55 175
57 55
58 88
59 153
60 37
61 53
62 77
63 257
64 149
65 373
66 173
67 201
68 87
69 160
70 67
71 104
72 48
73 77
74 15
75 106
76 34
77 154
78 185
79 239
80 87
81 124
82 83
83 136
84 90
85 45
86 8
91 77
92 238
93 333
94 71
95 291
96 99
97 402
98 49
99 69
103 28
105 115
106 22
107 51
109 88
110 84
111 116
112 20
113 59
117 47
123 0
125 193
126 8
131 52
133 156
134 12
135 128
137 26
161 999
162 340
163 616
164 195
165 73
176 401
177 124
178 207
179 64

$$$$

     RDKit          2D

 14 15  0  0  0  0  0  0  0  0999 V2000
    1.2992    0.7499    0.0000 C   0  0  0  0  0  0  0  0  0  0  0  0
   -2.5992   -3.0016    0.0000 C   0  0  0  0  0  0  0  0  0  0  0  0
    5.1979   -3.0003    0.0000 C   0  0  0  0  0  0  0  0  0  0  0  0
   -2.5987   -1.5007    0.0000 C   0  0  0  0  0  0  0  0  0  0  0  0
   -1.3002   -3.7516    0.0000 C   0  0  0  0  0  0  0  0  0  0  0  0
    3.8979   -3.7503    0.0000 C   0  0  0  0  0  0  0  0  0  0  0  0
    5.1979   -1.5003    0.0000 C   0  0  0  0  0  0  0  0  0  0  0  0
   -1.2992   -0.7499    0.0000 C   0  0  0  0  0  0  0  0  0  0  0  0
   -0.0007   -3.0007    0.0000 C   0  0  0  0  0  0  0  0  0  0  0  0
    2.5979   -3.0003    0.0000 C   0  0  0  0  0  0  0  0  0  0  0  0
    3.8979   -0.7503    0.0000 C   0  0  0  0  0  0  0  0  0  0  0  0
   -0.0002   -1.4999    0.0000 C   0  0  0  0  0  0  0  0  0  0  0  0
    2.5979   -1.5003    0.0000 C   0  0  0  0  0  0  0  0  0  0  0  0
    1.2990   -0.7501    0.0000 Si  0  0  0  0  0  4  0  0  0  0  0  0
  4  2  2  0
  5  2  1  0
  6  3  2  0
  7  3  1  0
  8  4  1  0
  9  5  2  0
 10  6  1  0
 11  7  2  0
 12  8  2  0
 12  9  1  0
 13 10  2  0
 13 11  1  0
 14  1  1  0
 14 12  1  0
 14 13  1  0
M  END
>  <NAME>  (281) 
METHYLDIPHENYLSILANE

>  <SYNONYMS>  (281) 


>  <SPECTRUM TYPE>  (281) 
MS1

>  <INSTRUMENT TYPE>  (281) 
EI-B

>  <INSTRUMENT>  (281) 
SHIMADZU QP-1000

>  <ION MODE>  (281) 
P

>  <INCHIKEY>  (281) 
FULSRCPEOUATID-UHFFFAOYSA-N

>  <FORMULA>  (281) 
C13H14Si

>  <EXACT MASS>  (281) 
198.086476978

>  <MW>  (281) 
198

>  <ID>  (281) 
JP011730

>  <CONTRIBUTOR>  (281) 
University of Tokyo Team, {Faculty of Engineering, University of Tokyo

>  <COMMENT>  (281) 
SMILES=c(c2)ccc(c2)[SiH](C)c(c1)cccc1
InChI=InChI=1S/C13H14Si/c1-14(12-8-4-2-5-9-12)13-10-6-3-7-11-13/h2-11,14H,1H3
computed SMILES=C=1C=CC(=CC1)[SiH](C=2C=CC=CC2)C
accession=JP011730
date=2016.01.19 (Created 2008.10.21, modified 2011.05.06)
author=FAC. TECHNOLOGY, HIROSHIMA UNIV.
license=CC BY-NC-SA
exact mass=198.08648
ionization energy=70 eV
ion type=[M]+*
computed spectral entropy=2.681436600531569
computed normalized entropy=0.7541980571680671
SPLASH=splash10-05fr-3900000000-4e6c3fa5f4d4fca761cb
submitter=submitter = University of Tokyo Team (Faculty of Engineering, University of Tokyo)
MoNA Rating=3.75

>  <NUM PEAKS>  (281) 
35

>  <MASS SPECTRAL PEAKS>  (281) 
52 2.8
53 7.7
54 26.8
55 27.5
56 2.8
65 2.1
66 2.1
67 3.5
69 2.1
77 5.6
78 4.2
79 12
91 3.5
93 4.9
95 1.4
98 2.1
103 4.9
105 73.2
106 8.5
107 2.1
119 4.2
120 99.99
121 17.6
122 3.5
129 1.4
155 2.1
165 1.4
180 1.4
181 6.3
182 1.4
183 19.7
184 2.8
197 9.2
198 14.8
199 2.1

>  <PREDICTED SPECTRUM>  (281) 
25 8
26 50
27 122
29 96
34 8
36 20
38 33
39 245
40 69
41 332
42 240
43 453
44 183
45 400
47 21
50 194
51 278
52 203
53 467
54 102
55 247
57 64
59 257
60 73
61 46
62 24
63 121
64 39
65 181
66 134
67 246
69 161
71 20
74 89
75 52
76 33
77 489
78 427
79 291
80 108
81 138
82 5
91 305
92 94
93 175
94 137
95 193
103 104
105 856
106 370
107 327
115 25
116 48
117 64
118 85
119 377
120 792
121 877
122 396
123 289
129 80
141 3
153 187
154 74
155 329
179 37
181 421
182 45
183 696
184 305
185 62
195 257
196 23
197 999
198 610
199 556
200 166
201 67

$$$$

     RDKit          2D

 18 19  0  0  0  0  0  0  0  0999 V2000
    2.5607   -2.7206    0.0000 C   0  0  0  0  0  0  0  0  0  0  0  0
    3.5252   -1.0508    0.0000 C   0  0  0  0  0  0  0  0  0  0  0  0
    0.7492    0.9392    0.0000 C   0  0  0  0  0  0  0  0  0  0  0  0
    2.5614    1.5985    0.0000 C   0  0  0  0  0  0  0  0  0  0  0  0
   -1.8503   -3.5625    0.0000 C   0  0  0  0  0  0  0  0  0  0  0  0
    6.9538   -0.6783    0.0000 C   0  0  0  0  0  0  0  0  0  0  0  0
   -1.8498   -2.0616    0.0000 C   0  0  0  0  0  0  0  0  0  0  0  0
   -0.5512   -4.3125    0.0000 C   0  0  0  0  0  0  0  0  0  0  0  0
    6.4404    0.7321    0.0000 C   0  0  0  0  0  0  0  0  0  0  0  0
    5.9892   -1.8270    0.0000 C   0  0  0  0  0  0  0  0  0  0  0  0
   -0.5503   -1.3108    0.0000 C   0  0  0  0  0  0  0  0  0  0  0  0
    0.7483   -3.5616    0.0000 C   0  0  0  0  0  0  0  0  0  0  0  0
    4.9626    0.9936    0.0000 C   0  0  0  0  0  0  0  0  0  0  0  0
    4.5113   -1.5655    0.0000 C   0  0  0  0  0  0  0  0  0  0  0  0
    0.7488   -2.0608    0.0000 C   0  0  0  0  0  0  0  0  0  0  0  0
    3.9980   -0.1551    0.0000 C   0  0  0  0  0  0  0  0  0  0  0  0
    2.0479   -1.3110    0.0000 Si  0  0  0  0  0  4  0  0  0  0  0  0
    2.0482    0.1890    0.0000 Si  0  0  0  0  0  4  0  0  0  0  0  0
  7  5  2  0
  8  5  1  0
  9  6  2  0
 10  6  1  0
 11  7  1  0
 12  8  2  0
 13  9  1  0
 14 10  2  0
 15 11  2  0
 15 12  1  0
 16 13  2  0
 16 14  1  0
 17  1  1  0
 17  2  1  0
 17 15  1  0
 18  3  1  0
 18  4  1  0
 18 16  1  0
 18 17  1  0
M  END
>  <NAME>  (282) 
1,1,2,2-TETRAMETHYLDIPHENYLDISILANE

>  <SYNONYMS>  (282) 


>  <SPECTRUM TYPE>  (282) 
MS1

>  <INSTRUMENT TYPE>  (282) 
EI-B

>  <INSTRUMENT>  (282) 
SHIMADZU QP-1000

>  <ION MODE>  (282) 
P

>  <INCHIKEY>  (282) 
IIOOIYHUTINYQO-UHFFFAOYSA-N

>  <FORMULA>  (282) 
C16H22Si2

>  <EXACT MASS>  (282) 
270.12600376399996

>  <MW>  (282) 
270

>  <ID>  (282) 
JP011729

>  <CONTRIBUTOR>  (282) 
University of Tokyo Team, {Faculty of Engineering, University of Tokyo

>  <COMMENT>  (282) 
SMILES=c(c2)ccc(c2)[Si](C)(C)[Si](C)(C)c(c1)cccc1
InChI=InChI=1S/C16H22Si2/c1-17(2,15-11-7-5-8-12-15)18(3,4)16-13-9-6-10-14-16/h5-14H,1-4H3
computed SMILES=C=1C=CC(=CC1)[Si](C)(C)[Si](C=2C=CC=CC2)(C)C
accession=JP011729
date=2016.01.19 (Created 2008.10.21, modified 2011.05.06)
author=FAC. TECHNOLOGY, HIROSHIMA UNIV.
license=CC BY-NC-SA
exact mass=270.126
ionization energy=70 eV
ion type=[M]+*
computed spectral entropy=3.2417988058456104
computed normalized entropy=0.8467230200296049
SPLASH=splash10-052r-6910000000-ca11c5b8070e13a7f0b2
submitter=submitter = University of Tokyo Team (Faculty of Engineering, University of Tokyo)
MoNA Rating=3.75

>  <NUM PEAKS>  (282) 
46

>  <MASS SPECTRAL PEAKS>  (282) 
51 9.5
52 8.4
53 24.2
55 10.5
57 13.7
58 10.5
59 6.3
65 5.3
66 8.4
67 7.4
68 4.2
69 4.2
73 4.2
77 6.3
78 9.5
79 8.4
80 4.2
81 4.2
82 3.2
83 3.2
91 11.6
92 10.5
93 10.5
94 3.2
95 2.1
103 4.2
105 49.5
107 28.4
108 6.3
109 5.3
117 2.1
119 14.7
120 11.6
121 5.3
131 3.2
135 99.99
165 1.1
177 1.1
195 3.2
197 38.9
198 7.4
199 1.1
255 5.3
270 23.2
271 6.3
272 1.1

>  <PREDICTED SPECTRUM>  (282) 
27 56
29 24
43 168
45 193
57 36
58 131
59 249
65 50
67 37
69 16
73 631
74 165
75 73
77 29
78 96
79 61
91 224
103 29
105 359
106 137
115 0
116 16
117 47
118 181
119 311
120 441
121 420
122 115
133 1
134 148
135 999
136 384
137 150
164 4
165 106
167 12
177 134
178 270
179 32
182 33
183 3
193 213
195 55
196 124
197 716
198 514
199 322
200 111
255 400
256 208
257 58
270 478
271 242
272 124

$$$$

     RDKit          2D

 23 25  0  0  0  0  0  0  0  0999 V2000
    3.4627   -2.4183    0.0000 C   0  0  0  0  0  0  0  0  0  0  0  0
    4.9627   -0.9183    0.0000 C   0  0  0  0  0  0  0  0  0  0  0  0
    3.4627    0.5817    0.0000 C   0  0  0  0  0  0  0  0  0  0  0  0
    1.6521    2.7096    0.0000 C   0  0  0  0  0  0  0  0  0  0  0  0
   -0.3270    3.4734    0.0000 C   0  0  0  0  0  0  0  0  0  0  0  0
   -1.0908    1.4943    0.0000 C   0  0  0  0  0  0  0  0  0  0  0  0
    5.8138    3.0207    0.0000 C   0  0  0  0  0  0  0  0  0  0  0  0
    5.8125    1.5198    0.0000 C   0  0  0  0  0  0  0  0  0  0  0  0
    4.5151    3.7713    0.0000 C   0  0  0  0  0  0  0  0  0  0  0  0
   -2.9473   -1.6683    0.0000 C   0  0  0  0  0  0  0  0  0  0  0  0
   -2.9473   -0.1683    0.0000 C   0  0  0  0  0  0  0  0  0  0  0  0
   -1.6473   -2.4183    0.0000 C   0  0  0  0  0  0  0  0  0  0  0  0
    4.5126    0.7696    0.0000 C   0  0  0  0  0  0  0  0  0  0  0  0
    3.2152    3.0211    0.0000 C   0  0  0  0  0  0  0  0  0  0  0  0
   -1.6473    0.5817    0.0000 C   0  0  0  0  0  0  0  0  0  0  0  0
    1.0827   -2.1283    0.0000 C   0  0  0  0  0  0  0  0  0  0  0  0
   -0.3473   -1.6683    0.0000 C   0  0  0  0  0  0  0  0  0  0  0  0
    3.2140    1.5203    0.0000 C   0  0  0  0  0  0  0  0  0  0  0  0
   -0.3473   -0.1683    0.0000 C   0  0  0  0  0  0  0  0  0  0  0  0
    1.9627   -0.9183    0.0000 C   0  0  0  0  0  0  0  0  0  0  0  0
    3.4627   -0.9183    0.0000 Si  0  0  0  0  0  4  0  0  0  0  0  0
    0.2807    2.1020    0.0000 Si  0  0  0  0  0  4  0  0  0  0  0  0
    1.0827    0.2917    0.0000 Si  0  0  0  0  0  4  0  0  0  0  0  0
  8  7  2  0
  9  7  1  0
 11 10  2  0
 12 10  1  0
 13  8  1  0
 14  9  2  0
 15 11  1  0
 17 12  2  0
 17 16  1  0
 18 13  2  0
 18 14  1  0
 19 15  2  0
 19 17  1  0
 20 16  2  0
 21  1  1  0
 21  2  1  0
 21  3  1  0
 21 20  1  0
 22  4  1  0
 22  5  1  0
 22  6  1  0
 23 18  1  0
 23 19  1  0
 23 20  1  0
 23 22  1  0
M  END
>  <NAME>  (283) 
1-PHENYL-1,2-BIS(TRIMETHYLSILYL)-1-SILAINDENE

>  <SYNONYMS>  (283) 


>  <SPECTRUM TYPE>  (283) 
MS1

>  <INSTRUMENT TYPE>  (283) 
EI-B

>  <INSTRUMENT>  (283) 
SHIMADZU QP-1000

>  <ION MODE>  (283) 
P

>  <INCHIKEY>  (283) 
NDSQIVUJPKOZRS-UHFFFAOYSA-N

>  <FORMULA>  (283) 
C20H28Si3

>  <EXACT MASS>  (283) 
352.149880486

>  <MW>  (283) 
352

>  <ID>  (283) 
JP011728

>  <CONTRIBUTOR>  (283) 
University of Tokyo Team, {Faculty of Engineering, University of Tokyo

>  <COMMENT>  (283) 
SMILES=c(c3)ccc(c3)[Si]([Si](C)(C)C)(c21)C(=Cc(cccc2)1)[Si](C)(C)C
InChI=InChI=1S/C20H28Si3/c1-21(2,3)20-16-17-12-10-11-15-19(17)23(20,22(4,5)6)18-13-8-7-9-14-18/h7-16H,1-6H3
computed SMILES=C=1C=CC(=CC1)[Si]2(C=3C=CC=CC3C=C2[Si](C)(C)C)[Si](C)(C)C
accession=JP011728
date=2016.01.19 (Created 2008.10.21, modified 2011.05.06)
author=FAC. TECHNOLOGY, HIROSHIMA UNIV.
license=CC BY-NC-SA
exact mass=352.14988
ionization energy=70 eV
ion type=[M]+*
computed spectral entropy=3.187339444308467
computed normalized entropy=0.7918163900174306
SPLASH=splash10-00di-9611000000-12f51e04a1ac82f8fd44
submitter=submitter = University of Tokyo Team (Faculty of Engineering, University of Tokyo)
MoNA Rating=3.75

>  <NUM PEAKS>  (283) 
56

>  <MASS SPECTRAL PEAKS>  (283) 
55 13.8
56 5.3
58 4.3
59 4.3
60 12.8
67 3.2
69 3.2
73 99.99
74 8.5
75 3.2
77 1.1
79 2.1
81 1.1
83 4.3
91 2.1
93 3.2
101 2.1
103 3.2
105 18.1
106 2.1
107 4.3
117 2.1
119 4.3
121 3.2
129 3.2
131 3.2
133 3.2
135 26.6
136 3.2
143 5.3
145 16
146 2.1
147 2.1
159 2.1
161 1.1
165 1.1
175 3.2
177 4.3
179 1.1
195 2.1
202 3.2
217 1.6
218 4.3
219 2.1
249 1.1
253 1.1
254 1.1
277 2.1
278 1.1
279 12.8
280 3.2
337 18.1
338 6.4
339 2.1
352 4.9
353 2.1

>  <PREDICTED SPECTRUM>  (283) 
29 20
31 19
39 24
41 58
43 342
44 84
45 261
46 29
47 31
51 52
52 22
53 95
54 10
55 104
57 101
58 117
59 233
60 30
61 14
63 22
64 1
65 51
66 22
67 92
69 77
71 42
72 60
73 999
74 230
75 208
77 135
78 80
79 30
81 6
83 99
85 60
89 55
91 145
92 34
93 48
95 32
96 5
97 55
99 20
101 16
102 9
103 97
104 31
105 258
106 53
107 119
109 29
115 68
116 64
117 138
118 61
119 135
120 37
121 96
122 14
123 18
129 111
130 56
131 188
132 54
133 68
134 13
135 595
136 193
137 60
143 53
145 296
146 36
147 129
148 58
149 137
150 49
151 6
155 21
159 84
161 72
162 10
163 13
167 9
174 17
175 96
176 69
177 251
178 149
179 119
187 50
193 20
195 1
201 17
202 78
203 114
204 88
205 80
217 177
218 81
219 139
220 17
221 65
223 17
235 12
247 9
249 82
250 2
251 6
259 28
261 23
262 10
263 118
264 113
275 22
277 125
278 144
279 446
280 192
281 63
295 36
296 2
321 26
337 322
338 221
339 96
340 30
352 198
353 104
354 25

$$$$

     RDKit          2D

 21 22  0  0  0  0  0  0  0  0999 V2000
   -2.5989   -1.5002    0.0000 C   0  0  0  0  0  0  0  0  0  0  0  0
    2.6380   -3.8464    0.0000 C   0  0  0  0  0  0  0  0  0  0  0  0
    2.5987    3.0002    0.0000 C   0  0  0  0  0  0  0  0  0  0  0  0
    7.7951    1.5010    0.0000 C   0  0  0  0  0  0  0  0  0  0  0  0
   -1.3000    0.7500    0.0000 C   0  0  0  0  0  0  0  0  0  0  0  0
   -0.0000   -1.5000    0.0000 C   0  0  0  0  0  0  0  0  0  0  0  0
    3.0890   -1.2876    0.0000 C   0  0  0  0  0  0  0  0  0  0  0  0
    5.0801   -2.9573    0.0000 C   0  0  0  0  0  0  0  0  0  0  0  0
    0.0000    1.5000    0.0000 C   0  0  0  0  0  0  0  0  0  0  0  0
    1.3000   -0.7500    0.0000 C   0  0  0  0  0  0  0  0  0  0  0  0
    4.0540   -0.1382    0.0000 C   0  0  0  0  0  0  0  0  0  0  0  0
    6.0452   -1.8079    0.0000 C   0  0  0  0  0  0  0  0  0  0  0  0
    3.8981    0.7504    0.0000 C   0  0  0  0  0  0  0  0  0  0  0  0
    5.1970    1.5006    0.0000 C   0  0  0  0  0  0  0  0  0  0  0  0
   -1.3000   -0.7500    0.0000 C   0  0  0  0  0  0  0  0  0  0  0  0
    3.6020   -2.6972    0.0000 C   0  0  0  0  0  0  0  0  0  0  0  0
    1.3000    0.7500    0.0000 C   0  0  0  0  0  0  0  0  0  0  0  0
    5.5322   -0.3984    0.0000 C   0  0  0  0  0  0  0  0  0  0  0  0
    7.4605   -0.3981    0.0000 Cl  0  0  0  0  0  0  0  0  0  0  0  0
    2.5989    1.5002    0.0000 Si  0  0  0  0  0  4  0  0  0  0  0  0
    6.4962    0.7508    0.0000 Si  0  0  0  0  0  4  0  0  0  0  0  0
  9  5  2  0
 10  6  1  0
 11  7  2  0
 12  8  1  0
 14 13  1  0
 15  1  1  0
 15  5  1  0
 15  6  2  0
 16  2  1  0
 16  7  1  0
 16  8  2  0
 17  9  1  0
 17 10  2  0
 18 11  1  0
 18 12  2  0
 20  3  1  0
 20 13  1  0
 20 17  1  0
 21  4  1  0
 21 14  1  0
 21 18  1  0
 21 19  1  0
M  END
>  <NAME>  (284) 
1-(CHLOROMETHYL(PARA-TOLYL)SILYL)-2-(METHYL(PARA-TOLYL)SILYL)ETHANE

>  <SYNONYMS>  (284) 


>  <SPECTRUM TYPE>  (284) 
MS1

>  <INSTRUMENT TYPE>  (284) 
EI-B

>  <INSTRUMENT>  (284) 
SHIMADZU QP-1000

>  <ION MODE>  (284) 
P

>  <INCHIKEY>  (284) 
OYOFPNYXPNQFJM-UHFFFAOYSA-N

>  <FORMULA>  (284) 
C18H25ClSi2

>  <EXACT MASS>  (284) 
332.11833154

>  <MW>  (284) 
332

>  <ID>  (284) 
JP011727

>  <CONTRIBUTOR>  (284) 
University of Tokyo Team, {Faculty of Engineering, University of Tokyo

>  <COMMENT>  (284) 
SMILES=Cc(c2)ccc(c2)[SiH](C)CC[Si](C)(Cl)c(c1)ccc(C)c1
InChI=InChI=1S/C18H25ClSi2/c1-15-5-9-17(10-6-15)20(3)13-14-21(4,19)18-11-7-16(2)8-12-18/h5-12,20H,13-14H2,1-4H3
computed SMILES=Cl[Si](C1=CC=C(C=C1)C)(C)CC[SiH](C2=CC=C(C=C2)C)C
accession=JP011727
date=2016.01.19 (Created 2008.10.21, modified 2011.05.06)
author=FAC. TECHNOLOGY, HIROSHIMA UNIV.
license=CC BY-NC-SA
exact mass=332.11833
ionization energy=70 eV
ion type=[M]+*
computed spectral entropy=3.364001233433718
computed normalized entropy=0.8029304180340741
SPLASH=splash10-01q3-2910000000-0fca1ebea9bffe1913cf
submitter=submitter = University of Tokyo Team (Faculty of Engineering, University of Tokyo)
MoNA Rating=3.75

>  <NUM PEAKS>  (284) 
66

>  <MASS SPECTRAL PEAKS>  (284) 
52 1.1
53 2.1
55 6.4
56 2.1
60 1.1
64 16
65 11.7
66 1.1
67 3.2
69 3.2
70 2.1
77 3.2
78 3.2
79 4.3
81 1.1
89 1.1
91 43.6
92 17
93 9.6
95 2.1
103 2.1
104 1.1
105 16
106 2.1
107 10.6
109 2.1
117 2.1
119 40.4
120 7.4
121 6.4
131 5.3
132 1.1
134 96.8
135 99.99
136 14.9
137 2.1
145 1.1
147 11.7
148 4.3
149 25.5
150 3.2
161 18.1
162 19.1
163 3.2
169 16
170 2.1
171 5.3
211 4.3
212 14.9
213 3.2
214 5.3
225 8.5
226 2.1
227 1.1
240 24.5
241 8.5
242 9.6
243 2.1
297 1.2
317 5.2
318 1.8
319 2.3
331 3.2
332 2.7
333 1.9
334 1.1

>  <PREDICTED SPECTRUM>  (284) 
26 10
27 111
28 36
29 28
38 20
39 230
40 71
41 193
42 67
43 201
44 60
45 111
50 43
51 153
52 107
53 159
55 111
56 33
57 83
58 51
59 95
62 2
63 157
64 29
65 420
66 111
67 90
69 151
70 61
71 40
73 152
74 60
75 138
77 194
78 242
79 229
80 99
81 76
82 13
83 62
89 97
90 9
91 571
92 443
93 335
94 27
95 47
97 102
98 48
101 68
102 12
103 108
104 31
105 369
106 184
107 361
108 115
109 97
111 61
115 54
116 52
117 73
118 30
119 690
120 559
121 260
122 93
123 51
125 68
126 4
127 59
128 24
129 37
130 26
131 139
132 85
133 235
134 941
135 999
136 265
137 79
141 35
142 27
145 123
146 97
147 197
148 300
149 515
150 181
151 52
153 14
154 47
155 35
157 88
159 44
161 247
162 287
163 269
164 116
167 1
169 179
170 50
171 62
172 37
174 9
175 48
176 71
177 64
178 14
181 7
182 33
183 57
184 9
185 8
187 12
189 85
190 79
195 35
198 65
200 31
201 3
209 0
210 26
211 218
212 264
213 287
214 181
223 1
224 15
225 498
226 174
227 182
228 85
229 0
239 25
240 308
241 321
242 218
243 120
244 0
246 0
253 3
254 25
260 15
317 189
318 105
319 83
320 9
331 29
332 148
333 140
334 118
335 32

$$$$

     RDKit          2D

  9  9  0  0  0  0  0  0  0  0999 V2000
   -1.3000    0.7500    0.0000 C   0  0  0  0  0  0  0  0  0  0  0  0
    0.0000    1.5000    0.0000 C   0  0  0  0  0  0  0  0  0  0  0  0
   -1.3000   -0.7500    0.0000 C   0  0  0  0  0  0  0  0  0  0  0  0
    1.3000    0.7500    0.0000 C   0  0  0  0  0  0  0  0  0  0  0  0
    0.0000   -1.5000    0.0000 C   0  0  0  0  0  0  0  0  0  0  0  0
    1.3000   -0.7500    0.0000 C   0  0  0  0  0  0  0  0  0  0  0  0
    3.8981   -0.7504    0.0000 Cl  0  0  0  0  0  0  0  0  0  0  0  0
    2.5987   -3.0002    0.0000 Cl  0  0  0  0  0  0  0  0  0  0  0  0
    2.5989   -1.5002    0.0000 Si  0  0  0  0  0  4  0  0  0  0  0  0
  2  1  2  0
  3  1  1  0
  4  2  1  0
  5  3  2  0
  6  4  2  0
  6  5  1  0
  9  6  1  0
  9  7  1  0
  9  8  1  0
M  END
>  <NAME>  (285) 
DICHLOROPHENYLSILANE

>  <SYNONYMS>  (285) 


>  <SPECTRUM TYPE>  (285) 
MS1

>  <INSTRUMENT TYPE>  (285) 
EI-B

>  <INSTRUMENT>  (285) 
SHIMADZU QP-1000

>  <ION MODE>  (285) 
P

>  <INCHIKEY>  (285) 
VIRVTHOOZABTPR-UHFFFAOYSA-N

>  <FORMULA>  (285) 
C6H6Cl2Si

>  <EXACT MASS>  (285) 
175.961582082

>  <MW>  (285) 
176

>  <ID>  (285) 
JP011726

>  <CONTRIBUTOR>  (285) 
University of Tokyo Team, {Faculty of Engineering, University of Tokyo

>  <COMMENT>  (285) 
SMILES=c(c1)ccc(c1)[SiH](Cl)Cl
InChI=InChI=1S/C6H6Cl2Si/c7-9(8)6-4-2-1-3-5-6/h1-5,9H
computed SMILES=Cl[SiH](Cl)C=1C=CC=CC1
accession=JP011726
license=CC BY-NC-SA
date=2016.01.19 (Created 2008.10.21, modified 2011.05.06)
author=FAC. TECHNOLOGY, HIROSHIMA UNIV.
exact mass=175.96158
ionization energy=70 eV
ion type=[M]+*
computed spectral entropy=2.1701150520470276
computed normalized entropy=0.7244022008256795
SPLASH=splash10-004i-9000000000-db68c4d5834e32335dd0
submitter=submitter = University of Tokyo Team (Faculty of Engineering, University of Tokyo)
MoNA Rating=3.75

>  <NUM PEAKS>  (285) 
20

>  <MASS SPECTRAL PEAKS>  (285) 
52 17
53 29.8
54 6.4
55 7.4
64 25.5
65 9.6
71 8.5
72 8.5
74 2.1
75 1.1
78 99.99
79 6.4
101 2.1
102 4.3
105 1.1
141 1.2
175 4.3
176 4.3
177 3.1
178 2.6

>  <PREDICTED SPECTRUM>  (285) 
14 22
25 13
26 82
27 76
28 69
35 112
36 129
37 109
38 186
39 323
40 115
41 77
43 164
44 27
47 88
49 179
50 518
51 773
52 421
53 238
57 23
61 70
62 137
63 509
64 248
65 352
66 182
73 156
74 193
75 325
76 220
77 685
78 999
79 604
80 249
97 101
98 41
99 297
100 36
101 125
102 178
103 33
104 8
105 101
106 110
111 24
113 21
139 94
141 303
142 13
175 732
176 750
177 538
178 558
179 286
180 191
181 9

$$$$

     RDKit          2D

 17 18  0  0  0  0  0  0  0  0999 V2000
   -2.5989   -1.5002    0.0000 C   0  0  0  0  0  0  0  0  0  0  0  0
    7.7963   -1.5010    0.0000 C   0  0  0  0  0  0  0  0  0  0  0  0
   -1.3000    0.7500    0.0000 C   0  0  0  0  0  0  0  0  0  0  0  0
    0.0000   -1.5000    0.0000 C   0  0  0  0  0  0  0  0  0  0  0  0
    5.1981   -1.5012    0.0000 C   0  0  0  0  0  0  0  0  0  0  0  0
    6.4966    0.7496    0.0000 C   0  0  0  0  0  0  0  0  0  0  0  0
    0.0000    1.5000    0.0000 C   0  0  0  0  0  0  0  0  0  0  0  0
    1.3000   -0.7500    0.0000 C   0  0  0  0  0  0  0  0  0  0  0  0
    3.8986   -0.7504    0.0000 C   0  0  0  0  0  0  0  0  0  0  0  0
    5.1971    1.5004    0.0000 C   0  0  0  0  0  0  0  0  0  0  0  0
   -1.3000   -0.7500    0.0000 C   0  0  0  0  0  0  0  0  0  0  0  0
    6.4971   -0.7512    0.0000 C   0  0  0  0  0  0  0  0  0  0  0  0
    1.3000    0.7500    0.0000 C   0  0  0  0  0  0  0  0  0  0  0  0
    3.8981    0.7504    0.0000 C   0  0  0  0  0  0  0  0  0  0  0  0
    3.5629    2.6494    0.0000 Cl  0  0  0  0  0  0  0  0  0  0  0  0
    1.6346    2.6491    0.0000 Cl  0  0  0  0  0  0  0  0  0  0  0  0
    2.5989    1.5002    0.0000 Si  0  0  0  0  0  4  0  0  0  0  0  0
  7  3  2  0
  8  4  1  0
  9  5  2  0
 10  6  1  0
 11  1  1  0
 11  3  1  0
 11  4  2  0
 12  2  1  0
 12  5  1  0
 12  6  2  0
 13  7  1  0
 13  8  2  0
 14  9  1  0
 14 10  2  0
 17 13  1  0
 17 14  1  0
 17 15  1  0
 17 16  1  0
M  END
>  <NAME>  (286) 
DICHLORODI(PARA-TOLYL)SILANE

>  <SYNONYMS>  (286) 


>  <SPECTRUM TYPE>  (286) 
MS1

>  <INSTRUMENT TYPE>  (286) 
EI-B

>  <INSTRUMENT>  (286) 
SHIMADZU QP-1000

>  <ION MODE>  (286) 
P

>  <INCHIKEY>  (286) 
JRAHXNQYHZPMCW-UHFFFAOYSA-N

>  <FORMULA>  (286) 
C14H14Cl2Si

>  <EXACT MASS>  (286) 
280.024182338

>  <MW>  (286) 
280

>  <ID>  (286) 
JP011725

>  <CONTRIBUTOR>  (286) 
University of Tokyo Team, {Faculty of Engineering, University of Tokyo

>  <COMMENT>  (286) 
SMILES=Cc(c2)ccc(c2)[Si](Cl)(Cl)c(c1)ccc(C)c1
InChI=InChI=1S/C14H14Cl2Si/c1-11-3-7-13(8-4-11)17(15,16)14-9-5-12(2)6-10-14/h3-10H,1-2H3
computed SMILES=Cl[Si](Cl)(C1=CC=C(C=C1)C)C2=CC=C(C=C2)C
accession=JP011725
date=2016.01.19 (Created 2008.10.21, modified 2011.05.06)
author=FAC. TECHNOLOGY, HIROSHIMA UNIV.
license=CC BY-NC-SA
exact mass=280.02418
ionization energy=70 eV
ion type=[M]+*
computed spectral entropy=3.0716504326143794
computed normalized entropy=0.7851820984570633
SPLASH=splash10-00l6-9610000000-d9a7a29ee121687c4060
submitter=submitter = University of Tokyo Team (Faculty of Engineering, University of Tokyo)
MoNA Rating=3.75

>  <NUM PEAKS>  (286) 
50

>  <MASS SPECTRAL PEAKS>  (286) 
50 5.3
51 8.5
52 2.1
53 3.2
63 42.6
65 62.8
76 2.1
77 2.1
89 18.1
90 18.1
91 99.99
92 11.7
115 3.2
121 12.8
122 9.6
123 3.2
125 1.1
128 1.1
139 1.1
152 4.3
153 5.3
154 1.1
155 1.1
165 13.8
166 6.4
167 18.1
168 2.1
178 2.1
179 3.2
181 13.8
182 63.8
183 9.6
189 18.1
190 4.3
191 12.8
192 1.1
193 1.1
229 5.5
230 1.5
231 1.9
243 1.7
244 1.1
245 2.6
265 3
267 1.7
280 8.9
281 3.6
282 6.4
283 2.1
284 1.3

>  <PREDICTED SPECTRUM>  (286) 
27 14
35 4
36 61
38 71
39 274
40 73
41 110
50 126
51 283
52 164
53 131
54 28
62 105
63 358
64 149
65 608
66 127
67 39
75 37
76 23
77 154
78 167
79 82
82 10
89 315
90 278
91 999
92 320
95 38
96 26
98 13
113 20
115 144
117 71
119 62
120 25
125 32
126 3
139 67
140 18
151 120
152 152
153 217
154 127
165 457
166 351
167 427
168 96
169 83
179 13
181 410
182 704
183 174
189 474
190 191
191 315
192 88
193 88
229 221
230 23
231 40
243 32
245 36
265 48
266 19
267 78
268 14
278 26
279 49
280 115
281 172
282 192
283 102
284 36

$$$$

     RDKit          2D

 20 21  0  0  0  0  0  0  0  0999 V2000
    4.8525   -5.4077    0.0000 C   0  0  0  0  0  0  0  0  0  0  0  0
    2.2544   -5.4073    0.0000 C   0  0  0  0  0  0  0  0  0  0  0  0
    4.8530   -2.4077    0.0000 C   0  0  0  0  0  0  0  0  0  0  0  0
    1.7423    0.5024    0.0000 C   0  0  0  0  0  0  0  0  0  0  0  0
    6.1533    1.3442    0.0000 C   0  0  0  0  0  0  0  0  0  0  0  0
   -2.1780   -1.6897    0.0000 C   0  0  0  0  0  0  0  0  0  0  0  0
    6.1529   -0.1566    0.0000 C   0  0  0  0  0  0  0  0  0  0  0  0
    4.8543    2.0942    0.0000 C   0  0  0  0  0  0  0  0  0  0  0  0
   -1.6642   -0.2795    0.0000 C   0  0  0  0  0  0  0  0  0  0  0  0
   -1.2138   -2.8387    0.0000 C   0  0  0  0  0  0  0  0  0  0  0  0
    4.8533   -0.9075    0.0000 C   0  0  0  0  0  0  0  0  0  0  0  0
    3.5548    1.3434    0.0000 C   0  0  0  0  0  0  0  0  0  0  0  0
   -0.1863   -0.0184    0.0000 C   0  0  0  0  0  0  0  0  0  0  0  0
    0.2641   -2.5777    0.0000 C   0  0  0  0  0  0  0  0  0  0  0  0
    2.2549   -2.4073    0.0000 C   0  0  0  0  0  0  0  0  0  0  0  0
    3.5536   -4.6575    0.0000 C   0  0  0  0  0  0  0  0  0  0  0  0
    3.5538   -3.1575    0.0000 C   0  0  0  0  0  0  0  0  0  0  0  0
    3.5543   -0.1575    0.0000 C   0  0  0  0  0  0  0  0  0  0  0  0
    0.7779   -1.1675    0.0000 C   0  0  0  0  0  0  0  0  0  0  0  0
    2.2551   -0.9073    0.0000 Si  0  0  0  0  0  4  0  0  0  0  0  0
  7  5  2  0
  8  5  1  0
  9  6  2  0
 10  6  1  0
 11  7  1  0
 12  8  2  0
 13  9  1  0
 14 10  2  0
 16  1  1  0
 16  2  1  0
 17  3  1  0
 17 15  1  0
 17 16  2  0
 18 11  2  0
 18 12  1  0
 19 13  2  0
 19 14  1  0
 20  4  1  0
 20 15  1  0
 20 18  1  0
 20 19  1  0
M  END
>  <NAME>  (287) 
2,3-DIMETHYL-1-(METHYLDIPHENYLSILYL)-2-BUTENE

>  <SYNONYMS>  (287) 


>  <SPECTRUM TYPE>  (287) 
MS1

>  <INSTRUMENT TYPE>  (287) 
EI-B

>  <INSTRUMENT>  (287) 
SHIMADZU QP-1000

>  <ION MODE>  (287) 
P

>  <INCHIKEY>  (287) 
JEKZJRAGCKQIDM-UHFFFAOYSA-N

>  <FORMULA>  (287) 
C19H24Si

>  <EXACT MASS>  (287) 
280.164727298

>  <MW>  (287) 
280

>  <ID>  (287) 
JP011724

>  <CONTRIBUTOR>  (287) 
University of Tokyo Team, {Faculty of Engineering, University of Tokyo

>  <COMMENT>  (287) 
SMILES=CC(C)=C(C)C[Si](C)(c(c2)cccc2)c(c1)cccc1
InChI=InChI=1S/C19H24Si/c1-16(2)17(3)15-20(4,18-11-7-5-8-12-18)19-13-9-6-10-14-19/h5-14H,15H2,1-4H3
computed SMILES=C=1C=CC(=CC1)[Si](C=2C=CC=CC2)(C)CC(=C(C)C)C
accession=JP011724
date=2016.01.19 (Created 2008.10.21, modified 2011.05.06)
author=FAC. TECHNOLOGY, HIROSHIMA UNIV.
license=CC BY-NC-SA
exact mass=280.16473
ionization energy=70 eV
ion type=[M]+*
computed spectral entropy=2.928033427991256
computed normalized entropy=0.7937460316643948
SPLASH=splash10-052b-5900000000-cb4a67077c0f8d912580
submitter=submitter = University of Tokyo Team (Faculty of Engineering, University of Tokyo)
MoNA Rating=3.75

>  <NUM PEAKS>  (287) 
40

>  <MASS SPECTRAL PEAKS>  (287) 
50 3.2
51 8.4
53 14.7
54 6.3
55 33.7
59 2.1
65 4.2
66 2.1
67 14.7
68 3.2
69 4.2
77 3.2
78 3.2
79 8.4
81 1.1
83 4.2
91 6.3
93 14.7
94 1.1
95 2.1
103 6.3
105 43.2
106 5.3
107 2.1
117 2.1
119 14.7
120 3.2
121 6.3
129 2.1
145 1.1
155 2.1
165 6.3
180 3.2
181 6.3
193 1.1
195 9.5
197 99.99
198 17.9
199 4.2
280 2.5

>  <PREDICTED SPECTRUM>  (287) 
25 0
26 33
27 89
28 14
29 69
38 26
39 148
40 34
41 88
42 13
43 184
45 127
49 6
50 63
51 172
52 80
53 211
54 18
55 237
56 58
57 72
58 17
59 127
60 11
61 51
63 30
65 129
66 101
67 161
68 25
69 105
70 37
73 33
74 11
75 67
76 1
77 209
78 161
79 192
80 21
81 106
82 34
83 135
84 36
91 219
92 48
93 116
94 41
95 106
96 2
103 52
104 37
105 510
106 124
107 103
108 46
109 51
111 0
115 43
116 56
117 105
118 36
119 285
120 170
121 207
122 13
123 64
124 63
125 0
128 44
129 54
136 31
137 53
143 41
145 62
159 11
160 31
165 127
169 28
180 134
181 216
182 58
189 5
190 21
193 1
195 317
196 23
197 999
198 495
199 94
202 30
209 4
210 14
265 87
266 44
280 267
281 145
282 51

$$$$

     RDKit          2D

 21 23  0  0  0  0  0  0  0  0999 V2000
    3.2164    1.9214    0.0000 C   0  0  0  0  0  0  0  0  0  0  0  0
   -2.7511    7.2971    0.0000 C   0  0  0  0  0  0  0  0  0  0  0  0
   -3.8965   -2.4135    0.0000 C   0  0  0  0  0  0  0  0  0  0  0  0
   -6.3217   -0.2299    0.0000 C   0  0  0  0  0  0  0  0  0  0  0  0
    1.1143    0.3944    0.0000 C   0  0  0  0  0  0  0  0  0  0  0  0
    0.8422    2.9786    0.0000 C   0  0  0  0  0  0  0  0  0  0  0  0
   -1.4522    5.0469    0.0000 C   0  0  0  0  0  0  0  0  0  0  0  0
   -4.0507    5.0465    0.0000 C   0  0  0  0  0  0  0  0  0  0  0  0
   -0.3784    0.2382    0.0000 C   0  0  0  0  0  0  0  0  0  0  0  0
   -0.6504    2.8225    0.0000 C   0  0  0  0  0  0  0  0  0  0  0  0
   -1.4529    3.5461    0.0000 C   0  0  0  0  0  0  0  0  0  0  0  0
   -4.0515    3.5457    0.0000 C   0  0  0  0  0  0  0  0  0  0  0  0
   -2.4407   -0.1718    0.0000 C   0  0  0  0  0  0  0  0  0  0  0  0
   -4.2443    1.4523    0.0000 C   0  0  0  0  0  0  0  0  0  0  0  0
    1.7246    1.7646    0.0000 C   0  0  0  0  0  0  0  0  0  0  0  0
   -2.7511    5.7971    0.0000 C   0  0  0  0  0  0  0  0  0  0  0  0
   -3.7397   -0.9218    0.0000 C   0  0  0  0  0  0  0  0  0  0  0  0
   -4.8544    0.0819    0.0000 C   0  0  0  0  0  0  0  0  0  0  0  0
   -1.2608    1.4523    0.0000 C   0  0  0  0  0  0  0  0  0  0  0  0
   -2.7525    2.7955    0.0000 C   0  0  0  0  0  0  0  0  0  0  0  0
   -2.7525    1.2955    0.0000 Si  0  0  0  0  0  4  0  0  0  0  0  0
  9  5  2  0
 10  6  1  0
 11  7  2  0
 12  8  1  0
 15  1  1  0
 15  5  1  0
 15  6  2  0
 16  2  1  0
 16  7  1  0
 16  8  2  0
 17  3  1  0
 17 13  1  0
 18  4  1  0
 18 14  1  0
 18 17  2  0
 19  9  1  0
 19 10  2  0
 20 11  1  0
 20 12  2  0
 21 13  1  0
 21 14  1  0
 21 19  1  0
 21 20  1  0
M  END
>  <NAME>  (288) 
3,4-DIMETHYL-1,1-DI(PARA-TOLYL)-1-SILACYCLOPENT-3-ENE

>  <SYNONYMS>  (288) 


>  <SPECTRUM TYPE>  (288) 
MS1

>  <INSTRUMENT TYPE>  (288) 
EI-B

>  <INSTRUMENT>  (288) 
SHIMADZU QP-1000

>  <ION MODE>  (288) 
P

>  <INCHIKEY>  (288) 
WIGCMNCYCAIXEH-UHFFFAOYSA-N

>  <FORMULA>  (288) 
C20H24Si

>  <EXACT MASS>  (288) 
292.164727298

>  <MW>  (288) 
292

>  <ID>  (288) 
JP011723

>  <CONTRIBUTOR>  (288) 
University of Tokyo Team, {Faculty of Engineering, University of Tokyo

>  <COMMENT>  (288) 
SMILES=Cc(c3)ccc(c3)[Si](C2)(CC(C)=C(C)2)c(c1)ccc(C)c1
InChI=InChI=1S/C20H24Si/c1-15-5-9-19(10-6-15)21(13-17(3)18(4)14-21)20-11-7-16(2)8-12-20/h5-12H,13-14H2,1-4H3
computed SMILES=C=1C=C(C=CC1C)[Si]2(C3=CC=C(C=C3)C)CC(=C(C)C2)C
accession=JP011723
date=2016.01.19 (Created 2008.10.21, modified 2011.05.06)
author=FAC. TECHNOLOGY, HIROSHIMA UNIV.
license=CC BY-NC-SA
exact mass=292.16473
ionization energy=70 eV
ion type=[M]+*
computed spectral entropy=3.6835515994479557
computed normalized entropy=0.8313482065901631
SPLASH=splash10-0udi-4790000000-04fe6f8ee1e54acbd465
submitter=submitter = University of Tokyo Team (Faculty of Engineering, University of Tokyo)
MoNA Rating=3.75

>  <NUM PEAKS>  (288) 
84

>  <MASS SPECTRAL PEAKS>  (288) 
51 3.2
52 3.2
53 16.8
55 6.3
56 1.1
57 1.1
58 1.1
62 2.1
63 2.1
65 6.3
66 11.6
67 11.6
68 3.2
69 2.1
76 2.1
77 3.2
78 3.2
79 3.2
80 1.1
81 2.1
82 1.1
89 1.1
91 11.6
93 18.9
94 3.2
95 2.1
103 1.1
104 3.2
105 6.3
107 9.5
108 11.6
109 6.3
115 1.1
117 6.3
119 32.6
120 4.2
121 3.2
128 2.1
129 1.1
131 1.1
135 3.2
141 1.1
142 3.2
143 3.2
145 3.2
155 3.2
156 3.2
157 3.2
158 3.2
159 6.3
160 2.1
165 5.3
166 1.1
167 2.1
169 1.1
171 1.1
178 2.1
179 6.3
180 2.1
181 3.2
182 1.1
183 2.1
185 22.1
186 3.2
187 3.2
193 3.2
195 17.9
196 3.2
197 1.1
200 99.99
201 24.2
202 5.3
205 1.1
207 4.2
208 6.3
209 22.1
210 13.7
211 12.6
212 2.1
235 2.1
249 1.1
292 41.1
293 11.6
294 2.1

>  <PREDICTED SPECTRUM>  (288) 
26 12
27 149
28 31
29 82
38 53
39 229
40 77
41 404
42 34
43 181
45 26
50 29
51 138
52 59
53 226
55 292
56 14
57 111
58 6
63 92
65 296
66 90
67 257
69 116
75 16
76 42
77 246
78 151
79 266
80 27
81 219
82 88
83 126
89 102
90 52
91 424
92 215
93 275
94 36
95 111
103 94
104 82
105 415
106 108
107 208
108 137
109 215
110 102
115 121
116 3
117 239
118 93
119 810
120 211
121 272
129 141
130 78
131 55
132 91
133 80
134 93
135 228
136 5
139 42
141 154
142 108
143 211
144 47
145 183
147 25
148 14
149 10
152 35
153 76
155 107
156 137
157 279
158 176
159 287
160 208
165 337
166 53
167 96
168 79
169 180
170 127
171 109
173 37
178 10
179 167
180 131
181 148
182 195
183 267
184 176
185 482
186 282
187 189
188 31
193 59
194 89
195 419
196 182
197 93
198 61
199 49
200 999
201 540
202 284
203 17
205 91
206 14
207 250
208 352
209 550
210 432
211 284
235 48
236 30
249 89
278 18
290 57
291 25
292 737
293 344
294 178
295 15

$$$$

     RDKit          2D

 23 24  0  0  0  0  0  0  0  0999 V2000
    7.5548   -0.1823    0.0000 C   0  0  0  0  0  0  0  0  0  0  0  0
    8.1041    1.8666    0.0000 C   0  0  0  0  0  0  0  0  0  0  0  0
    6.0552    2.4160    0.0000 C   0  0  0  0  0  0  0  0  0  0  0  0
    2.7223   -3.2458    0.0000 C   0  0  0  0  0  0  0  0  0  0  0  0
    4.8355   -3.4310    0.0000 C   0  0  0  0  0  0  0  0  0  0  0  0
    5.0207   -1.3178    0.0000 C   0  0  0  0  0  0  0  0  0  0  0  0
   -0.9914    1.1177    0.0000 C   0  0  0  0  0  0  0  0  0  0  0  0
   -0.2941   -4.9491    0.0000 C   0  0  0  0  0  0  0  0  0  0  0  0
    0.3086    1.8677    0.0000 C   0  0  0  0  0  0  0  0  0  0  0  0
   -0.9914   -0.3823    0.0000 C   0  0  0  0  0  0  0  0  0  0  0  0
   -0.8070   -3.5387    0.0000 C   0  0  0  0  0  0  0  0  0  0  0  0
    1.1831   -5.2096    0.0000 C   0  0  0  0  0  0  0  0  0  0  0  0
    1.6086    1.1177    0.0000 C   0  0  0  0  0  0  0  0  0  0  0  0
    0.3086   -1.1323    0.0000 C   0  0  0  0  0  0  0  0  0  0  0  0
    0.1573   -2.3886    0.0000 C   0  0  0  0  0  0  0  0  0  0  0  0
    2.1474   -4.0596    0.0000 C   0  0  0  0  0  0  0  0  0  0  0  0
    5.5058    0.3670    0.0000 C   0  0  0  0  0  0  0  0  0  0  0  0
    4.2067   -0.3828    0.0000 C   0  0  0  0  0  0  0  0  0  0  0  0
    1.6086   -0.3823    0.0000 C   0  0  0  0  0  0  0  0  0  0  0  0
    1.6346   -2.6491    0.0000 C   0  0  0  0  0  0  0  0  0  0  0  0
    6.8050    1.1168    0.0000 Si  0  0  0  0  0  4  0  0  0  0  0  0
    3.8715   -2.2818    0.0000 Si  0  0  0  0  0  4  0  0  0  0  0  0
    2.9075   -1.1326    0.0000 Si  0  0  0  0  0  4  0  0  0  0  0  0
  9  7  2  0
 10  7  1  0
 11  8  2  0
 12  8  1  0
 13  9  1  0
 14 10  2  0
 15 11  1  0
 16 12  2  0
 18 17  3  0
 19 13  2  0
 19 14  1  0
 20 15  2  0
 20 16  1  0
 21  1  1  0
 21  2  1  0
 21  3  1  0
 21 17  1  0
 22  4  1  0
 22  5  1  0
 22  6  1  0
 23 18  1  0
 23 19  1  0
 23 20  1  0
 23 22  1  0
M  END
>  <NAME>  (289) 
(TRIMETHYL-1,1-DIPHENYLDISILANYL)TRIMETHYLSILYLACETYLENE

>  <SYNONYMS>  (289) 


>  <SPECTRUM TYPE>  (289) 
MS1

>  <INSTRUMENT TYPE>  (289) 
EI-B

>  <INSTRUMENT>  (289) 
SHIMADZU QP-1000

>  <ION MODE>  (289) 
P

>  <INCHIKEY>  (289) 
QJACLBMFJRBXMU-UHFFFAOYSA-N

>  <FORMULA>  (289) 
C20H28Si3

>  <EXACT MASS>  (289) 
352.14988048600003

>  <MW>  (289) 
352

>  <ID>  (289) 
JP011722

>  <CONTRIBUTOR>  (289) 
University of Tokyo Team, {Faculty of Engineering, University of Tokyo

>  <COMMENT>  (289) 
SMILES=C[Si](C)(C)C#C[Si](c(c2)cccc2)(c(c1)cccc1)[Si](C)(C)C
InChI=InChI=1S/C20H28Si3/c1-21(2,3)17-18-23(22(4,5)6,19-13-9-7-10-14-19)20-15-11-8-12-16-20/h7-16H,1-6H3
computed SMILES=C(#C[Si](C)(C)C)[Si](C=1C=CC=CC1)(C=2C=CC=CC2)[Si](C)(C)C
accession=JP011722
date=2016.01.19 (Created 2008.10.21, modified 2011.05.06)
author=FAC. TECHNOLOGY, HIROSHIMA UNIV.
license=CC BY-NC-SA
exact mass=352.14988
ionization energy=70 eV
ion type=[M]+*
computed spectral entropy=3.5287917302369474
computed normalized entropy=0.8007752552939844
SPLASH=splash10-0fkj-7931000000-49ba472597f66e818430
submitter=submitter = University of Tokyo Team (Faculty of Engineering, University of Tokyo)
MoNA Rating=3.75

>  <NUM PEAKS>  (289) 
82

>  <MASS SPECTRAL PEAKS>  (289) 
31 1.1
32 6.4
43 38.3
45 48.9
53 9.6
55 4.3
57 4.3
59 3.2
67 4.3
69 3.2
73 99.99
75 3.2
77 1.1
79 3.2
81 2.1
83 5.3
91 3.2
93 4.3
95 1.1
97 3.2
103 3.2
105 39.4
107 8.5
109 1.1
116 2.1
117 1.1
119 5.3
121 2.1
129 9.6
131 3.2
133 1.1
135 84
136 11.7
137 2.1
140 3.2
143 3.2
145 11.7
146 1.1
147 1.1
155 4.3
157 1.1
159 12.8
160 1.1
161 2.1
163 2.1
165 2.1
171 1.1
173 3.2
177 4.3
178 11.7
179 2.1
180 2.1
181 8.5
182 2.1
187 5.3
191 2.1
195 6.4
197 35.1
198 5.3
199 1.1
201 2.1
202 14.9
203 2.1
204 1.1
207 2.1
217 18.1
218 4.3
219 2.1
221 9.6
222 1.1
249 4.3
259 1.1
263 2.1
264 2.1
280 44.7
281 4.3
337 7.4
338 2.1
351 1.1
352 37.2
353 13.8
354 6.4

>  <PREDICTED SPECTRUM>  (289) 
27 15
29 9
31 8
41 28
43 196
44 24
45 230
46 46
51 35
53 111
54 7
55 83
57 58
58 67
59 175
65 43
66 3
67 100
69 97
72 19
73 826
74 158
75 124
77 151
78 75
79 119
81 48
83 87
85 27
89 7
91 124
92 5
93 132
95 44
97 76
103 137
104 18
105 380
106 103
107 151
115 119
116 147
117 109
118 37
119 242
120 37
121 75
122 25
123 18
125 15
128 44
129 241
130 75
131 148
132 44
133 32
134 1
135 999
136 346
137 143
140 9
141 160
143 74
145 299
146 14
147 113
149 70
151 27
153 4
155 138
157 75
159 240
160 107
161 139
162 2
163 5
173 79
174 46
175 61
177 254
178 401
179 258
180 203
181 217
182 115
185 31
186 2
187 234
188 71
189 29
193 63
195 309
197 581
198 159
199 76
200 96
201 239
202 313
203 164
204 77
205 83
216 92
217 478
218 146
219 217
220 6
221 148
222 23
223 19
241 17
249 152
263 8
264 69
265 63
275 17
277 49
278 23
279 50
280 417
281 206
282 50
337 345
338 179
339 114
352 576
353 355
354 210
355 82

$$$$

     RDKit          2D

 17 17  0  0  0  0  0  0  0  0999 V2000
   -3.3491   -0.2013    0.0000 C   0  0  0  0  0  0  0  0  0  0  0  0
   -3.8978   -2.2504    0.0000 C   0  0  0  0  0  0  0  0  0  0  0  0
   -1.8487   -2.7991    0.0000 C   0  0  0  0  0  0  0  0  0  0  0  0
    3.1483   -0.5487    0.0000 C   0  0  0  0  0  0  0  0  0  0  0  0
    5.1972    0.0006    0.0000 C   0  0  0  0  0  0  0  0  0  0  0  0
    4.6479    2.0496    0.0000 C   0  0  0  0  0  0  0  0  0  0  0  0
    3.5629    2.6494    0.0000 C   0  0  0  0  0  0  0  0  0  0  0  0
    1.6346    2.6491    0.0000 C   0  0  0  0  0  0  0  0  0  0  0  0
   -1.3000    0.7500    0.0000 C   0  0  0  0  0  0  0  0  0  0  0  0
   -0.0000   -1.5000    0.0000 C   0  0  0  0  0  0  0  0  0  0  0  0
    0.0000    1.5000    0.0000 C   0  0  0  0  0  0  0  0  0  0  0  0
    1.3000   -0.7500    0.0000 C   0  0  0  0  0  0  0  0  0  0  0  0
   -1.3000   -0.7500    0.0000 C   0  0  0  0  0  0  0  0  0  0  0  0
    1.3000    0.7500    0.0000 C   0  0  0  0  0  0  0  0  0  0  0  0
   -2.5989   -1.5002    0.0000 Si  0  0  0  0  0  4  0  0  0  0  0  0
    3.8981    0.7504    0.0000 Si  0  0  0  0  0  4  0  0  0  0  0  0
    2.5989    1.5002    0.0000 Si  0  0  0  0  0  4  0  0  0  0  0  0
 11  9  2  0
 12 10  1  0
 13  9  1  0
 13 10  2  0
 14 11  1  0
 14 12  2  0
 15  1  1  0
 15  2  1  0
 15  3  1  0
 15 13  1  0
 16  4  1  0
 16  5  1  0
 16  6  1  0
 17  7  1  0
 17  8  1  0
 17 14  1  0
 17 16  1  0
M  END
>  <NAME>  (290) 
PARA-TRIMETHYLSILYLPENTAMETHYLDISILANYLBENZENE

>  <SYNONYMS>  (290) 


>  <SPECTRUM TYPE>  (290) 
MS1

>  <INSTRUMENT TYPE>  (290) 
EI-B

>  <INSTRUMENT>  (290) 
SHIMADZU QP-1000

>  <ION MODE>  (290) 
P

>  <INCHIKEY>  (290) 
WRILCDHGYNWDFY-UHFFFAOYSA-N

>  <FORMULA>  (290) 
C14H28Si3

>  <EXACT MASS>  (290) 
280.149880486

>  <MW>  (290) 
280

>  <ID>  (290) 
JP011721

>  <CONTRIBUTOR>  (290) 
University of Tokyo Team, {Faculty of Engineering, University of Tokyo

>  <COMMENT>  (290) 
SMILES=C[Si](C)(C)c(c1)ccc(c1)[Si](C)(C)[Si](C)(C)C
InChI=InChI=1S/C14H28Si3/c1-15(2,3)13-9-11-14(12-10-13)17(7,8)16(4,5)6/h9-12H,1-8H3
computed SMILES=C=1C=C(C=CC1[Si](C)(C)C)[Si](C)(C)[Si](C)(C)C
accession=JP011721
date=2016.01.19 (Created 2008.10.21, modified 2011.05.06)
author=FAC. TECHNOLOGY, HIROSHIMA UNIV.
license=CC BY-NC-SA
exact mass=280.14988
ionization energy=70 eV
ion type=[M]+*
computed spectral entropy=2.533041376626785
computed normalized entropy=0.7124594646763328
SPLASH=splash10-006t-4910000000-a945026703f3e65d76e2
submitter=submitter = University of Tokyo Team (Faculty of Engineering, University of Tokyo)
MoNA Rating=3.75

>  <NUM PEAKS>  (290) 
35

>  <MASS SPECTRAL PEAKS>  (290) 
58 1.1
59 6.4
72 46.8
73 44.7
74 4.3
82 1.1
83 1.1
105 1.1
108 1.1
109 2.1
131 2.1
132 2.1
133 3.2
134 2.1
135 3.2
145 3.2
147 1.1
161 2.1
164 1.1
175 4.3
177 12.8
178 2.1
191 7.4
192 7.4
193 2.1
196 4.3
197 99.99
198 22.3
199 8.5
265 4.3
266 1.3
279 1.3
280 10.6
281 3
282 1.7

>  <PREDICTED SPECTRUM>  (290) 
29 0
31 3
39 19
41 13
43 174
44 32
45 292
46 22
53 0
57 46
58 114
59 275
60 47
69 17
73 999
74 301
75 157
77 24
83 51
91 86
93 49
95 5
107 16
115 64
116 240
117 174
118 91
119 247
120 15
121 163
130 78
131 320
132 67
133 139
134 58
135 164
147 50
148 6
149 267
150 141
151 136
152 29
153 4
161 31
163 74
166 4
167 93
177 388
178 139
179 106
191 320
192 560
193 580
194 118
206 135
207 834
208 383
209 162
265 266
266 184
267 57
280 413
281 206
282 98
283 26

$$$$

     RDKit          2D

 34 37  0  0  0  0  0  0  0  0999 V2000
    8.1302    0.5135    0.0000 C   0  0  0  0  0  0  0  0  0  0  0  0
    5.5323    2.0139    0.0000 C   0  0  0  0  0  0  0  0  0  0  0  0
    9.0937   -3.6357    0.0000 C   0  0  0  0  0  0  0  0  0  0  0  0
    2.9343    2.0143    0.0000 C   0  0  0  0  0  0  0  0  0  0  0  0
   12.0293   -0.2375    0.0000 C   0  0  0  0  0  0  0  0  0  0  0  0
    5.2344   -5.9336    0.0000 C   0  0  0  0  0  0  0  0  0  0  0  0
   -1.4994    1.2953    0.0000 C   0  0  0  0  0  0  0  0  0  0  0  0
    1.3950   -3.7161    0.0000 C   0  0  0  0  0  0  0  0  0  0  0  0
   10.7296    0.5129    0.0000 C   0  0  0  0  0  0  0  0  0  0  0  0
   12.0289   -1.7375    0.0000 C   0  0  0  0  0  0  0  0  0  0  0  0
    6.7125   -6.1942    0.0000 C   0  0  0  0  0  0  0  0  0  0  0  0
    4.7218   -4.5239    0.0000 C   0  0  0  0  0  0  0  0  0  0  0  0
   -0.5343    2.4447    0.0000 C   0  0  0  0  0  0  0  0  0  0  0  0
   -0.9863   -0.1142    0.0000 C   0  0  0  0  0  0  0  0  0  0  0  0
    0.4307   -2.5661    0.0000 C   0  0  0  0  0  0  0  0  0  0  0  0
    2.8723   -3.4556    0.0000 C   0  0  0  0  0  0  0  0  0  0  0  0
    9.4293   -0.2367    0.0000 C   0  0  0  0  0  0  0  0  0  0  0  0
   10.7286   -2.4871    0.0000 C   0  0  0  0  0  0  0  0  0  0  0  0
    7.6779   -5.0451    0.0000 C   0  0  0  0  0  0  0  0  0  0  0  0
    5.6873   -3.3748    0.0000 C   0  0  0  0  0  0  0  0  0  0  0  0
    0.9438    2.1846    0.0000 C   0  0  0  0  0  0  0  0  0  0  0  0
    0.4918   -0.3743    0.0000 C   0  0  0  0  0  0  0  0  0  0  0  0
    0.9436   -1.1556    0.0000 C   0  0  0  0  0  0  0  0  0  0  0  0
    3.3851   -2.0451    0.0000 C   0  0  0  0  0  0  0  0  0  0  0  0
    6.8308   -1.7363    0.0000 C   0  0  0  0  0  0  0  0  0  0  0  0
    4.2329   -0.2359    0.0000 C   0  0  0  0  0  0  0  0  0  0  0  0
    6.8310   -0.2363    0.0000 C   0  0  0  0  0  0  0  0  0  0  0  0
    5.5321    0.5139    0.0000 C   0  0  0  0  0  0  0  0  0  0  0  0
    9.4289   -1.7367    0.0000 C   0  0  0  0  0  0  0  0  0  0  0  0
    7.1653   -3.6354    0.0000 C   0  0  0  0  0  0  0  0  0  0  0  0
    1.4569    0.7750    0.0000 C   0  0  0  0  0  0  0  0  0  0  0  0
    2.4208   -0.8951    0.0000 C   0  0  0  0  0  0  0  0  0  0  0  0
    8.1297   -2.4865    0.0000 Si  0  0  0  0  0  4  0  0  0  0  0  0
    2.9340    0.5143    0.0000 Si  0  0  0  0  0  4  0  0  0  0  0  0
  9  5  2  0
 10  5  1  0
 11  6  2  0
 12  6  1  0
 13  7  2  0
 14  7  1  0
 15  8  2  0
 16  8  1  0
 17  9  1  0
 18 10  2  0
 19 11  1  0
 20 12  2  0
 21 13  1  0
 22 14  2  0
 23 15  1  0
 24 16  2  0
 27  1  1  0
 27 25  1  0
 28  2  1  0
 28 26  1  0
 27 28  2  0
 29 17  2  0
 29 18  1  0
 30 19  2  0
 30 20  1  0
 31 21  2  0
 31 22  1  0
 32 23  2  0
 32 24  1  0
 33  3  1  0
 33 25  1  0
 33 29  1  0
 33 30  1  0
 34  4  1  0
 34 26  1  0
 34 31  1  0
 34 32  1  0
M  END
>  <NAME>  (291) 
1,4-BIS(METHYLDIPHENYLSILYL)-2,3-DIMETHYL-2-BUTENE

>  <SYNONYMS>  (291) 


>  <SPECTRUM TYPE>  (291) 
MS1

>  <INSTRUMENT TYPE>  (291) 
EI-B

>  <INSTRUMENT>  (291) 
SHIMADZU QP-1000

>  <ION MODE>  (291) 
P

>  <INCHIKEY>  (291) 
UGKYGFNFBPZBAP-DQSJHHFOSA-N

>  <FORMULA>  (291) 
C32H36Si2

>  <EXACT MASS>  (291) 
476.235554212

>  <MW>  (291) 
476

>  <ID>  (291) 
JP011720

>  <CONTRIBUTOR>  (291) 
University of Tokyo Team, {Faculty of Engineering, University of Tokyo

>  <COMMENT>  (291) 
SMILES=[Si](C)(c(c4)cccc4)(c(c3)cccc3)CC(C)=C(C[Si](C)(c(c2)cccc2)c(c1)cccc1)C
InChI=InChI=1S/C32H36Si2/c1-27(25-33(3,29-17-9-5-10-18-29)30-19-11-6-12-20-30)28(2)26-34(4,31-21-13-7-14-22-31)32-23-15-8-16-24-32/h5-24H,25-26H2,1-4H3/b28-27-
computed SMILES=C=1C=CC(=CC1)[Si](C=2C=CC=CC2)(C)CC(=C(C)C[Si](C=3C=CC=CC3)(C=4C=CC=CC4)C)C
accession=JP011720
date=2016.01.19 (Created 2008.10.21, modified 2011.05.06)
author=FAC. TECHNOLOGY, HIROSHIMA UNIV.
license=CC BY-NC-SA
exact mass=476.23555
ionization energy=70 eV
ion type=[M]+*
computed spectral entropy=2.7578830226374618
computed normalized entropy=0.7527873935330159
SPLASH=splash10-002b-3900500000-bdce11b7b943f4f8d19d
submitter=submitter = University of Tokyo Team (Faculty of Engineering, University of Tokyo)
MoNA Rating=3.75

>  <NUM PEAKS>  (291) 
39

>  <MASS SPECTRAL PEAKS>  (291) 
52 3.2
53 4.3
54 12.8
55 3.2
56 3.2
58 3.2
65 2.1
67 8.5
69 3.2
77 3.2
78 6.4
79 3.2
82 2.1
91 3.2
93 9.6
94 1.1
95 2.1
103 2.1
105 26.6
106 3.2
107 2.1
109 1.1
119 9.6
120 2.1
121 3.2
124 3.2
165 3.2
180 1.1
181 3.2
195 8.5
197 99.99
198 19.1
199 5.3
202 3.2
245 1.1
476 69.1
477 35.1
478 11.7
479 2.1

>  <PREDICTED SPECTRUM>  (291) 
26 9
27 44
29 17
39 2
41 84
43 39
45 40
53 57
55 29
57 11
67 43
73 26
78 42
79 33
80 10
81 43
82 6
83 76
84 19
91 115
93 66
95 19
97 5
103 37
105 427
106 40
107 23
117 1
118 6
119 312
120 93
121 155
122 40
123 9
128 8
129 45
131 15
133 28
135 44
136 32
137 24
141 13
142 33
144 19
151 16
152 4
155 58
159 59
160 53
161 37
165 62
171 3
173 13
174 34
180 76
181 119
182 34
185 15
186 2
187 38
188 17
189 49
191 16
195 322
197 999
198 498
199 94
200 20
202 34
211 16
229 8
233 1
234 13
237 21
244 18
251 22
253 2
254 15
263 4
277 5
279 19
283 4
302 24
321 20
322 6
400 10
462 12
463 31
476 660
477 467
478 342
479 170
480 39
481 4

$$$$

     RDKit          2D

 23 26  0  0  0  0  0  0  0  0999 V2000
    3.2955   -1.3551    0.0000 C   0  0  0  0  0  0  0  0  0  0  0  0
    5.8331    3.8461    0.0000 C   0  0  0  0  0  0  0  0  0  0  0  0
    1.8030   -1.1973    0.0000 C   0  0  0  0  0  0  0  0  0  0  0  0
    4.1776   -0.1418    0.0000 C   0  0  0  0  0  0  0  0  0  0  0  0
    5.4186    2.4037    0.0000 C   0  0  0  0  0  0  0  0  0  0  0  0
    4.7914    4.9254    0.0000 C   0  0  0  0  0  0  0  0  0  0  0  0
    1.1925    0.1737    0.0000 C   0  0  0  0  0  0  0  0  0  0  0  0
    3.5671    1.2292    0.0000 C   0  0  0  0  0  0  0  0  0  0  0  0
    3.9623    2.0405    0.0000 C   0  0  0  0  0  0  0  0  0  0  0  0
    3.3352    4.5623    0.0000 C   0  0  0  0  0  0  0  0  0  0  0  0
   -0.7767    4.2141    0.0000 C   0  0  0  0  0  0  0  0  0  0  0  0
    2.5101    5.2182    0.0000 C   0  0  0  0  0  0  0  0  0  0  0  0
   -2.2364    3.9025    0.0000 C   0  0  0  0  0  0  0  0  0  0  0  0
    1.9498    6.6016    0.0000 C   0  0  0  0  0  0  0  0  0  0  0  0
   -1.0264    1.8067    0.0000 C   0  0  0  0  0  0  0  0  0  0  0  0
    0.0959    5.0461    0.0000 C   0  0  0  0  0  0  0  0  0  0  0  0
    2.0746    1.3870    0.0000 C   0  0  0  0  0  0  0  0  0  0  0  0
    2.9207    3.1198    0.0000 C   0  0  0  0  0  0  0  0  0  0  0  0
   -0.0267    2.9150    0.0000 C   0  0  0  0  0  0  0  0  0  0  0  0
    1.3611    4.2540    0.0000 C   0  0  0  0  0  0  0  0  0  0  0  0
   -2.4022    2.4096    0.0000 S   0  0  0  0  0  0  0  0  0  0  0  0
    0.4508    6.5056    0.0000 S   0  0  0  0  0  0  0  0  0  0  0  0
    1.4651    2.7576    0.0000 Si  0  0  0  0  0  4  0  0  0  0  0  0
  3  1  2  0
  4  1  1  0
  5  2  2  0
  6  2  1  0
  7  3  1  0
  8  4  2  0
  9  5  1  0
 10  6  2  0
 13 11  2  0
 14 12  2  0
 17  7  2  0
 17  8  1  0
 18  9  2  0
 18 10  1  0
 19 11  1  0
 19 15  2  0
 20 12  1  0
 20 16  2  0
 21 13  1  0
 21 15  1  0
 22 14  1  0
 22 16  1  0
 23 17  1  0
 23 18  1  0
 23 19  1  0
 23 20  1  0
M  END
>  <NAME>  (292) 
DIPHENYLDI(3-THIENYL)SILANE

>  <SYNONYMS>  (292) 


>  <SPECTRUM TYPE>  (292) 
MS1

>  <INSTRUMENT TYPE>  (292) 
EI-B

>  <INSTRUMENT>  (292) 
SHIMADZU QP-1000

>  <ION MODE>  (292) 
P

>  <INCHIKEY>  (292) 
JQNWHOFPAXWKMW-UHFFFAOYSA-N

>  <FORMULA>  (292) 
C20H16S2Si

>  <EXACT MASS>  (292) 
348.046269042

>  <MW>  (292) 
348

>  <ID>  (292) 
JP011719

>  <CONTRIBUTOR>  (292) 
University of Tokyo Team, {Faculty of Engineering, University of Tokyo

>  <COMMENT>  (292) 
SMILES=c(c4)ccc(c4)[Si](c(c3)cccc3)(c(c2)csc2)c(c1)csc1
InChI=InChI=1S/C20H16S2Si/c1-3-7-17(8-4-1)23(19-11-13-21-15-19,20-12-14-22-16-20)18-9-5-2-6-10-18/h1-16H
computed SMILES=S1C=CC(=C1)[Si](C2=CSC=C2)(C=3C=CC=CC3)C=4C=CC=CC4
accession=JP011719
date=2016.01.19 (Created 2008.10.21, modified 2011.05.06)
author=FAC. TECHNOLOGY, HIROSHIMA UNIV.
license=CC BY-NC-SA
exact mass=348.04627
ionization energy=70 eV
ion type=[M]+*
computed spectral entropy=3.596305843218512
computed normalized entropy=0.8073698802613163
SPLASH=splash10-006t-4897000000-2594737be1ac005954e3
submitter=submitter = University of Tokyo Team (Faculty of Engineering, University of Tokyo)
MoNA Rating=3.75

>  <NUM PEAKS>  (292) 
86

>  <MASS SPECTRAL PEAKS>  (292) 
50 2.8
51 25.4
52 2.1
53 15.5
55 1.4
57 1.4
63 1.4
75 1.4
76 1.4
77 28.2
78 3.5
79 5.6
83 1.4
85 5.6
89 2.1
101 3.5
102 4.2
103 4.2
105 21.1
106 2.1
111 9.2
115 2.8
117 1.4
126 2.1
127 14.1
128 8.5
129 2.8
132 4.2
133 2.1
134 3.5
135 9.2
136 1.4
137 14.8
138 1.4
139 2.1
143 5.6
152 2.1
155 2.1
161 4.2
163 1.4
165 2.1
167 2.1
173 4.2
178 2.8
179 1.4
180 2.1
181 5.6
186 2.1
187 9.9
188 7
189 2.1
193 2.8
194 13.4
195 2.1
196 1.4
202 2.1
204 2.8
205 1.4
208 1.4
210 2.8
211 4.2
213 2.8
226 1.4
233 2.1
237 2.1
239 2.1
245 2.1
263 4.2
264 2.8
265 21.1
266 5.6
267 2.1
269 2.1
271 99.99
272 21.1
273 13.4
274 2.1
302 3.5
313 1.4
314 4.2
315 10.6
316 2.8
348 95.1
349 28.2
350 14.8
351 2.8

>  <PREDICTED SPECTRUM>  (292) 
26 2
27 23
33 1
38 15
39 104
40 8
41 66
42 2
43 93
45 103
47 17
49 92
50 144
51 391
52 122
53 79
55 6
57 112
58 63
59 41
62 9
63 88
64 2
65 40
68 11
69 145
70 39
71 31
72 8
74 74
75 76
76 68
77 682
78 180
79 77
81 67
82 92
83 42
84 26
85 51
86 56
87 30
88 62
89 75
90 37
91 1
93 22
94 28
95 25
97 44
98 7
99 50
100 51
101 31
102 159
103 76
104 73
105 456
106 56
107 13
108 25
109 39
110 45
111 251
113 60
114 42
115 97
116 80
117 120
118 26
119 63
120 2
121 66
122 4
123 12
124 16
125 65
126 217
127 288
128 164
129 167
130 40
131 11
132 27
133 113
134 85
135 171
136 102
137 108
138 30
139 225
140 54
141 71
142 98
143 146
144 19
145 102
147 47
149 61
150 55
151 112
152 178
153 120
154 107
155 216
156 85
157 83
159 25
160 55
161 214
162 74
163 64
164 75
165 41
166 101
167 76
168 104
169 52
170 43
171 60
172 23
176 34
177 22
178 66
179 150
180 191
181 250
182 131
183 37
184 32
185 78
186 104
187 196
188 131
189 99
190 31
191 7
192 36
193 247
194 293
195 126
196 144
197 8
198 1
199 10
202 98
203 9
204 19
205 115
206 37
207 94
208 128
209 59
210 95
211 147
212 54
213 116
221 18
223 81
224 10
225 47
227 49
229 49
235 29
236 19
237 99
238 150
239 162
245 88
246 72
247 31
251 1
252 65
257 97
263 164
264 217
265 426
266 220
267 205
269 179
270 24
271 999
272 446
273 397
274 71
275 34
301 13
313 58
314 243
315 381
316 208
348 947
349 488
350 360
351 192
352 4

$$$$

     RDKit          2D

 28 31  0  0  0  0  0  0  0  0999 V2000
    0.8031   -3.1290    0.0000 C   0  0  0  0  0  0  0  0  0  0  0  0
    5.1970   -1.5006    0.0000 C   0  0  0  0  0  0  0  0  0  0  0  0
   -2.1315    0.2701    0.0000 C   0  0  0  0  0  0  0  0  0  0  0  0
    4.6616   -5.4281    0.0000 C   0  0  0  0  0  0  0  0  0  0  0  0
    6.7911    2.6985    0.0000 C   0  0  0  0  0  0  0  0  0  0  0  0
    1.0039    2.6976    0.0000 C   0  0  0  0  0  0  0  0  0  0  0  0
   -0.8315    1.0201    0.0000 C   0  0  0  0  0  0  0  0  0  0  0  0
   -2.1315   -1.2299    0.0000 C   0  0  0  0  0  0  0  0  0  0  0  0
    3.1835   -5.6882    0.0000 C   0  0  0  0  0  0  0  0  0  0  0  0
    5.1747   -4.0185    0.0000 C   0  0  0  0  0  0  0  0  0  0  0  0
    7.3040    1.2880    0.0000 C   0  0  0  0  0  0  0  0  0  0  0  0
    5.3139    2.9590    0.0000 C   0  0  0  0  0  0  0  0  0  0  0  0
    2.4820    2.9577    0.0000 C   0  0  0  0  0  0  0  0  0  0  0  0
    0.4909    1.2881    0.0000 C   0  0  0  0  0  0  0  0  0  0  0  0
    0.4685    0.2701    0.0000 C   0  0  0  0  0  0  0  0  0  0  0  0
   -0.8315   -1.9799    0.0000 C   0  0  0  0  0  0  0  0  0  0  0  0
    2.2184   -4.5388    0.0000 C   0  0  0  0  0  0  0  0  0  0  0  0
    4.2096   -2.8692    0.0000 C   0  0  0  0  0  0  0  0  0  0  0  0
    6.3397    0.1380    0.0000 C   0  0  0  0  0  0  0  0  0  0  0  0
    4.3496    1.8090    0.0000 C   0  0  0  0  0  0  0  0  0  0  0  0
    3.4471    1.8083    0.0000 C   0  0  0  0  0  0  0  0  0  0  0  0
    1.4560    0.1387    0.0000 C   0  0  0  0  0  0  0  0  0  0  0  0
    0.4685   -1.2299    0.0000 C   0  0  0  0  0  0  0  0  0  0  0  0
    2.7315   -3.1293    0.0000 C   0  0  0  0  0  0  0  0  0  0  0  0
    4.8624    0.3985    0.0000 C   0  0  0  0  0  0  0  0  0  0  0  0
    2.9341    0.3988    0.0000 C   0  0  0  0  0  0  0  0  0  0  0  0
    1.7675   -1.9801    0.0000 Si  0  0  0  0  0  4  0  0  0  0  0  0
    3.8981   -0.7504    0.0000 Si  0  0  0  0  0  4  0  0  0  0  0  0
  7  3  2  0
  8  3  1  0
  9  4  2  0
 10  4  1  0
 11  5  2  0
 12  5  1  0
 13  6  2  0
 14  6  1  0
 15  7  1  0
 16  8  2  0
 17  9  1  0
 18 10  2  0
 19 11  1  0
 20 12  2  0
 21 13  1  0
 22 14  2  0
 23 15  2  0
 23 16  1  0
 24 17  2  0
 24 18  1  0
 25 19  2  0
 25 20  1  0
 26 21  2  0
 26 22  1  0
 27  1  1  0
 27 23  1  0
 27 24  1  0
 28  2  1  0
 28 25  1  0
 28 26  1  0
 28 27  1  0
M  END
>  <NAME>  (293) 
1,2-DIMETHYLTETRAPHENYLDISILANE

>  <SYNONYMS>  (293) 


>  <SPECTRUM TYPE>  (293) 
MS1

>  <INSTRUMENT TYPE>  (293) 
EI-B

>  <INSTRUMENT>  (293) 
Unknown

>  <ION MODE>  (293) 
P

>  <INCHIKEY>  (293) 
JNZRJYXUMDPPRK-UHFFFAOYSA-N

>  <FORMULA>  (293) 
C26H26Si2

>  <EXACT MASS>  (293) 
394.157303892

>  <MW>  (293) 
394

>  <ID>  (293) 
JP011718

>  <CONTRIBUTOR>  (293) 
University of Tokyo Team, {Faculty of Engineering, University of Tokyo

>  <COMMENT>  (293) 
SMILES=c(c4)c(ccc4)[Si](C)([Si](C)(c(c3)cccc3)c(c2)cccc2)c(c1)cccc1
InChI=InChI=1S/C26H26Si2/c1-27(23-15-7-3-8-16-23,24-17-9-4-10-18-24)28(2,25-19-11-5-12-20-25)26-21-13-6-14-22-26/h3-22H,1-2H3
computed SMILES=C=1C=CC(=CC1)[Si](C=2C=CC=CC2)(C)[Si](C=3C=CC=CC3)(C=4C=CC=CC4)C
accession=JP011718
date=2016.01.19 (Created 2008.10.21, modified 2011.05.06)
author=FAC. TECHNOLOGY, HIROSHIMA UNIV.
license=CC BY-NC-SA
exact mass=394.1573
ionization energy=70 eV
ion type=[M]+*
computed spectral entropy=2.091152756424728
computed normalized entropy=0.6669292342499349
SPLASH=splash10-0002-1900000000-a72b5ba2515dd3220f94
submitter=submitter = University of Tokyo Team (Faculty of Engineering, University of Tokyo)
MoNA Rating=3.75

>  <NUM PEAKS>  (293) 
23

>  <MASS SPECTRAL PEAKS>  (293) 
54 5.5
67 1.4
69 1.4
79 3.5
91 2.1
93 7.7
103 1.4
105 25.4
106 2.1
119 7.7
155 1.4
165 4.2
180 1.4
181 7
182 1.4
195 7
196 1.4
197 99.99
198 10.6
199 4.2
394 7.9
395 3
396 1

>  <PREDICTED SPECTRUM>  (293) 
27 29
28 76
29 11
39 1
41 39
43 75
44 44
45 23
51 36
52 6
53 106
57 16
60 24
67 31
68 1
76 1
77 118
78 106
79 83
80 31
81 76
89 17
91 93
92 27
93 38
94 17
95 50
103 79
104 54
105 381
106 102
107 70
109 12
119 87
120 287
121 206
122 18
125 56
126 0
129 51
130 37
131 7
134 20
135 51
136 47
137 66
141 23
142 20
145 7
149 24
150 50
151 106
152 80
153 71
154 59
155 129
156 26
157 4
160 58
161 98
162 127
163 108
164 72
165 89
166 109
167 94
168 32
169 20
177 31
178 4
179 56
180 159
181 253
182 163
183 43
184 73
191 81
192 30
193 112
194 102
195 439
196 93
197 403
198 151
199 39
200 40
201 10
202 77
207 25
212 15
213 49
214 13
215 72
216 82
217 118
218 76
222 42
223 74
224 52
225 76
226 67
227 123
228 129
229 17
230 13
231 25
235 6
238 77
239 170
240 247
241 186
242 175
243 211
244 103
245 20
254 39
255 97
256 62
257 112
258 215
259 488
261 55
275 80
289 6
291 43
297 25
298 46
299 50
301 504
302 344
303 206
304 107
305 10
313 88
314 104
315 459
316 543
317 607
318 358
319 241
320 85
321 215
322 127
323 66
324 0
377 49
379 999
380 612
381 459
382 215
383 175
393 34
394 431
395 336
396 228
397 116

$$$$

     RDKit          2D

 15 16  0  0  0  0  0  0  0  0999 V2000
   -1.3205   -6.5744    0.0000 C   0  0  0  0  0  0  0  0  0  0  0  0
    0.3844   -5.6734    0.0000 C   0  0  0  0  0  0  0  0  0  0  0  0
   -4.3269   -3.1141    0.0000 C   0  0  0  0  0  0  0  0  0  0  0  0
    0.3818   -1.4903    0.0000 C   0  0  0  0  0  0  0  0  0  0  0  0
   -3.5769   -4.4132    0.0000 C   0  0  0  0  0  0  0  0  0  0  0  0
   -0.7673   -2.4545    0.0000 C   0  0  0  0  0  0  0  0  0  0  0  0
   -3.3272   -2.0058    0.0000 C   0  0  0  0  0  0  0  0  0  0  0  0
    1.6469   -2.2824    0.0000 C   0  0  0  0  0  0  0  0  0  0  0  0
   -2.1172   -4.1015    0.0000 C   0  0  0  0  0  0  0  0  0  0  0  0
   -0.2069   -3.8379    0.0000 C   0  0  0  0  0  0  0  0  0  0  0  0
   -3.6427   -0.5393    0.0000 Br  0  0  0  0  0  0  0  0  0  0  0  0
    3.0363   -1.7170    0.0000 Br  0  0  0  0  0  0  0  0  0  0  0  0
   -1.9514   -2.6086    0.0000 S   0  0  0  0  0  0  0  0  0  0  0  0
    1.2921   -3.7419    0.0000 S   0  0  0  0  0  0  0  0  0  0  0  0
   -1.0050   -5.1080    0.0000 Si  0  0  0  0  0  4  0  0  0  0  0  0
  5  3  1  0
  6  4  1  0
  7  3  2  0
  8  4  2  0
  9  5  2  0
 10  6  2  0
 11  7  1  0
 12  8  1  0
 13  7  1  0
 13  9  1  0
 14  8  1  0
 14 10  1  0
 15  1  1  0
 15  2  1  0
 15  9  1  0
 15 10  1  0
M  END
>  <NAME>  (294) 
DI(2-(5-BROMOTHIENYL))DIMETHYLSILANE

>  <SYNONYMS>  (294) 


>  <SPECTRUM TYPE>  (294) 
MS1

>  <INSTRUMENT TYPE>  (294) 
EI-B

>  <INSTRUMENT>  (294) 
SHIMADZU QP-1000

>  <ION MODE>  (294) 
P

>  <INCHIKEY>  (294) 
KJJFHNIBGPJTSG-UHFFFAOYSA-N

>  <FORMULA>  (294) 
C10H10Br2S2Si

>  <EXACT MASS>  (294) 
379.83599305

>  <MW>  (294) 
380

>  <ID>  (294) 
JP011717

>  <CONTRIBUTOR>  (294) 
University of Tokyo Team, {Faculty of Engineering, University of Tokyo

>  <COMMENT>  (294) 
SMILES=Brc(c2)sc(c2)[Si](C)(C)c(c1)sc(Br)c1
InChI=InChI=1S/C10H10Br2S2Si/c1-15(2,9-5-3-7(11)13-9)10-6-4-8(12)14-10/h3-6H,1-2H3
computed SMILES=BrC=1SC(=CC1)[Si](C=2SC(Br)=CC2)(C)C
accession=JP011717
date=2016.01.19 (Created 2008.10.21, modified 2011.05.06)
author=FAC. TECHNOLOGY, HIROSHIMA UNIV.
license=CC BY-NC-SA
exact mass=379.83599
ionization energy=70 eV
ion type=[M]+*
computed spectral entropy=4.277430428902922
computed normalized entropy=0.8760196495206609
SPLASH=splash10-014r-9705000000-556c17e85d81a1e0631d
submitter=submitter = University of Tokyo Team (Faculty of Engineering, University of Tokyo)
MoNA Rating=3.75

>  <NUM PEAKS>  (294) 
132

>  <MASS SPECTRAL PEAKS>  (294) 
51 12.6
52 9.5
53 57.9
54 7.4
55 22.1
56 3.2
57 25
58 13.7
59 8.4
60 2.1
61 6.3
62 6.3
63 24.2
64 6.3
65 11.6
66 9.5
67 14.7
68 3.2
69 24.2
70 11.6
71 11.6
72 2.1
73 3.2
74 3.2
75 42.1
76 5.3
77 18.9
78 3.2
79 8.4
80 4.2
81 16.8
82 44.2
83 23.2
84 6.3
85 15.8
86 3.2
87 7.4
88 2.1
89 5.3
90 3.2
91 5.3
93 10.5
94 2.1
95 15.8
96 21.1
97 12.6
98 2.1
99 3.2
100 2.1
101 2.1
102 3.2
103 4.2
104 2.1
105 1.1
106 3.2
107 32.6
108 4.2
109 53.7
110 5.3
111 16.8
112 1.1
114 3.2
115 24.2
116 2.1
117 5.3
119 7.4
120 7.4
121 4.2
122 4.2
123 6.3
124 3.2
125 11.6
131 2.1
132 8.4
133 2.1
134 2.1
135 4.2
136 1.1
137 58.9
138 8.4
139 63.2
140 4.2
141 4.2
145 3.2
146 2.1
147 21.1
148 2.1
149 18.9
150 2.1
151 3.2
155 1.1
157 2.1
159 1.1
163 1.1
164 4.2
165 1.1
175 2.1
177 3.2
179 11.6
181 8.4
183 8.4
186 1.1
188 1.1
189 4.2
191 4.2
199 2.1
201 8.4
203 14.7
205 8.4
207 3.2
211 10.5
213 1.1
219 8.4
229 1.1
283 1.1
285 3.2
287 2.1
364 2.1
365 44.2
366 9.5
367 99.99
368 15.8
369 55.8
370 9.5
371 6.3
380 22.1
381 4.2
382 44.2
383 7.4
384 29.5
385 4.2
386 2.1

>  <PREDICTED SPECTRUM>  (294) 
15 53
26 46
27 67
28 41
29 214
31 71
33 3
36 28
37 71
38 76
39 154
40 53
41 242
42 119
43 418
44 193
45 468
46 79
47 224
48 43
49 57
50 249
51 285
52 150
53 327
54 237
55 370
56 171
57 464
58 219
59 289
60 111
61 148
62 202
63 355
64 195
65 250
66 228
67 384
68 240
69 433
70 254
71 288
72 70
73 290
74 304
75 703
76 272
77 360
78 141
79 358
80 292
81 583
82 640
83 632
84 161
85 280
86 164
87 149
88 85
89 120
90 67
91 103
92 142
93 294
94 199
95 336
96 385
97 406
98 106
99 182
100 62
101 155
102 83
103 64
105 142
106 88
107 499
108 244
109 719
110 322
111 322
112 84
113 226
114 104
115 579
116 204
117 253
118 76
119 190
120 76
121 202
122 151
123 423
124 155
125 302
126 40
127 102
128 43
129 76
130 18
131 277
132 189
133 161
134 78
135 200
136 112
137 899
138 352
139 977
140 231
141 206
142 55
143 50
144 0
145 134
146 10
147 422
148 189
149 332
150 93
151 108
152 19
153 93
154 32
155 32
156 34
157 32
158 5
159 60
160 17
161 186
162 30
163 200
164 113
165 184
173 53
175 59
177 192
178 86
179 245
181 99
183 141
184 18
189 156
191 131
192 22
193 137
194 46
201 323
202 26
203 417
205 210
207 215
209 63
211 193
212 12
215 72
218 28
219 408
221 152
232 18
233 26
239 3
245 41
261 5
283 47
285 95
365 671
366 285
367 999
368 415
369 865
371 255
380 387
381 170
382 633
383 273
384 513
385 216

$$$$

     RDKit          2D

 23 25  0  0  0  0  0  0  0  0999 V2000
   -3.7499    0.1565    0.0000 C   0  0  0  0  0  0  0  0  0  0  0  0
    3.7499    0.1565    0.0000 C   0  0  0  0  0  0  0  0  0  0  0  0
   -6.1911   -3.6138    0.0000 C   0  0  0  0  0  0  0  0  0  0  0  0
    0.5355   -4.8306    0.0000 C   0  0  0  0  0  0  0  0  0  0  0  0
   -6.3960   -2.1270    0.0000 C   0  0  0  0  0  0  0  0  0  0  0  0
   -4.8016   -4.1789    0.0000 C   0  0  0  0  0  0  0  0  0  0  0  0
   -0.2628   -3.5597    0.0000 C   0  0  0  0  0  0  0  0  0  0  0  0
    2.0344   -4.7743    0.0000 C   0  0  0  0  0  0  0  0  0  0  0  0
   -5.2115   -1.2054    0.0000 C   0  0  0  0  0  0  0  0  0  0  0  0
   -3.6171   -3.2573    0.0000 C   0  0  0  0  0  0  0  0  0  0  0  0
    0.4379   -2.2325    0.0000 C   0  0  0  0  0  0  0  0  0  0  0  0
    2.7351   -3.4471    0.0000 C   0  0  0  0  0  0  0  0  0  0  0  0
   -0.7500    1.0300    0.0000 C   0  0  0  0  0  0  0  0  0  0  0  0
    0.7500    1.0300    0.0000 C   0  0  0  0  0  0  0  0  0  0  0  0
   -3.8220   -1.7705    0.0000 C   0  0  0  0  0  0  0  0  0  0  0  0
    1.9368   -2.1761    0.0000 C   0  0  0  0  0  0  0  0  0  0  0  0
   -1.2100   -0.3900    0.0000 C   0  0  0  0  0  0  0  0  0  0  0  0
    1.2100   -0.3900    0.0000 C   0  0  0  0  0  0  0  0  0  0  0  0
   -1.9368   -2.1761    0.0000 Cl  0  0  0  0  0  0  0  0  0  0  0  0
    3.8220   -1.7705    0.0000 Cl  0  0  0  0  0  0  0  0  0  0  0  0
   -0.0000   -1.2800    0.0000 O   0  0  0  0  0  0  0  0  0  0  0  0
   -2.6377   -0.8500    0.0000 Si  0  0  0  0  0  4  0  0  0  0  0  0
    2.6377   -0.8500    0.0000 Si  0  0  0  0  0  4  0  0  0  0  0  0
  5  3  2  0
  6  3  1  0
  7  4  2  0
  8  4  1  0
  9  5  1  0
 10  6  2  0
 11  7  1  0
 12  8  2  0
 14 13  1  0
 15  9  2  0
 15 10  1  0
 16 11  2  0
 16 12  1  0
 17 13  2  0
 18 14  2  0
 21 17  1  0
 21 18  1  0
 22  1  1  0
 22 15  1  0
 22 17  1  0
 22 19  1  0
 23  2  1  0
 23 16  1  0
 23 18  1  0
 23 20  1  0
M  END
>  <NAME>  (295) 
2,5-DI(CHLOROMETHYLPHENYLSILYL)FURAN

>  <SYNONYMS>  (295) 


>  <SPECTRUM TYPE>  (295) 
MS1

>  <INSTRUMENT TYPE>  (295) 
EI-B

>  <INSTRUMENT>  (295) 
SHIMADZU QP-1000

>  <ION MODE>  (295) 
P

>  <INCHIKEY>  (295) 
GMFLVRCCIKBFCP-UHFFFAOYSA-N

>  <FORMULA>  (295) 
C18H18Cl2OSi2

>  <EXACT MASS>  (295) 
376.027323616

>  <MW>  (295) 
376

>  <ID>  (295) 
JP011716

>  <CONTRIBUTOR>  (295) 
University of Tokyo Team, {Faculty of Engineering, University of Tokyo

>  <COMMENT>  (295) 
SMILES=c(c3)ccc(c3)[Si](C)(Cl)c(c2)oc(c2)[Si](C)(Cl)c(c1)cccc1
InChI=InChI=1S/C18H18Cl2OSi2/c1-22(19,15-9-5-3-6-10-15)17-13-14-18(21-17)23(2,20)16-11-7-4-8-12-16/h3-14H,1-2H3
computed SMILES=Cl[Si](C=1OC(=CC1)[Si](Cl)(C=2C=CC=CC2)C)(C=3C=CC=CC3)C
accession=JP011716
date=2016.01.19 (Created 2008.10.21, modified 2011.05.06)
author=FAC. TECHNOLOGY, HIROSHIMA UNIV.
license=CC BY-NC-SA
exact mass=376.02732
ionization energy=70 eV
ion type=[M]+*
computed spectral entropy=3.95555536453186
computed normalized entropy=0.8448194150597046
SPLASH=splash10-03fu-9435000000-8ab43f4a5af86c84d07e
submitter=submitter = University of Tokyo Team (Faculty of Engineering, University of Tokyo)
MoNA Rating=3.75

>  <NUM PEAKS>  (295) 
108

>  <MASS SPECTRAL PEAKS>  (295) 
36 4.3
38 2.1
39 11.7
41 1.1
43 8.5
45 3.2
51 24.5
53 11.7
55 2.1
63 99.99
65 48.9
66 4.3
67 3.2
75 1.1
77 19.1
78 8.5
79 7.4
80 2.1
81 1.1
89 6.4
91 67
93 6.4
95 2.1
101 1.1
102 2.1
103 10.6
105 13.8
106 1.1
113 4.3
115 16
117 4.3
119 9.6
120 1.1
121 1.1
127 3.2
128 1.1
129 8.5
130 3.2
131 3.2
137 2.1
139 3.2
141 3.2
142 2.1
143 3.2
153 1.1
155 27.7
156 3.2
157 12.8
158 3.2
159 2.1
161 2.1
165 6.4
167 2.1
175 2.1
177 2.1
181 3.2
183 2.1
185 2.1
195 9.6
196 2.1
197 1.1
203 2.1
204 2.1
213 7.4
215 4.3
217 1.1
219 2.1
223 1.1
233 20.2
234 3.2
235 13.8
236 1.1
237 3.2
245 4.3
247 1.1
263 8.5
264 1.1
275 16
276 3.2
277 6.4
283 3.2
285 2.1
289 2.1
291 2.1
298 6.4
299 1.1
300 3.2
311 17
312 4.3
313 12.8
314 2.1
315 3.2
325 5.3
327 2.1
341 8.5
342 2.1
343 3.2
361 17
362 4.3
363 11.7
364 3.2
365 2.1
376 48.9
377 14.9
378 38.3
379 10.1
380 8.5
381 1.1

>  <PREDICTED SPECTRUM>  (295) 
39 16
41 1
43 50
45 101
51 150
52 53
53 152
55 72
57 9
59 212
63 281
64 70
65 320
66 72
67 60
69 60
70 41
73 224
74 85
75 143
76 9
77 212
78 291
79 270
80 17
83 11
87 16
89 90
90 45
91 538
92 241
93 273
95 233
96 4
97 50
101 10
103 218
104 56
105 515
106 144
107 106
109 58
111 15
113 40
115 237
116 143
117 196
119 134
120 26
121 34
127 3
128 87
129 199
131 175
132 29
133 107
134 12
135 337
139 26
140 48
141 133
142 116
143 180
145 257
146 150
147 90
149 58
151 23
152 31
153 53
154 77
155 434
156 64
157 139
158 51
159 14
161 46
163 81
164 47
165 192
166 29
167 88
169 157
170 11
171 250
172 166
173 129
175 5
177 32
178 159
179 245
180 183
181 120
182 7
183 53
184 15
185 88
186 23
192 34
193 65
194 62
195 47
197 421
198 108
199 90
200 15
201 221
202 102
203 36
205 94
207 66
211 49
219 33
221 104
222 24
223 56
225 2
226 22
227 13
247 62
263 255
264 50
265 108
270 31
271 67
273 25
283 254
284 24
285 144
298 59
299 220
300 105
301 123
361 999
362 524
363 804
364 363
365 376
367 2
376 841
377 482
378 675
379 385
380 312
381 150

$$$$

     RDKit          2D

 32 35  0  0  0  0  0  0  0  0999 V2000
   -0.1613   -4.2779    0.0000 C   0  0  0  0  0  0  0  0  0  0  0  0
   -1.1256   -5.4268    0.0000 H   0  0  0  0  0  0  0  0  0  0  0  0
    6.4959   -2.2508    0.0000 C   0  0  0  0  0  0  0  0  0  0  0  0
    7.7948   -3.0010    0.0000 H   0  0  0  0  0  0  0  0  0  0  0  0
    0.8031   -3.1290    0.0000 C   0  0  0  0  0  0  0  0  0  0  0  0
    5.1970   -1.5006    0.0000 C   0  0  0  0  0  0  0  0  0  0  0  0
   -2.1315    0.2701    0.0000 C   0  0  0  0  0  0  0  0  0  0  0  0
    4.6616   -5.4281    0.0000 C   0  0  0  0  0  0  0  0  0  0  0  0
    6.7911    2.6985    0.0000 C   0  0  0  0  0  0  0  0  0  0  0  0
    1.0039    2.6976    0.0000 C   0  0  0  0  0  0  0  0  0  0  0  0
   -0.8315    1.0201    0.0000 C   0  0  0  0  0  0  0  0  0  0  0  0
   -2.1315   -1.2299    0.0000 C   0  0  0  0  0  0  0  0  0  0  0  0
    3.1835   -5.6882    0.0000 C   0  0  0  0  0  0  0  0  0  0  0  0
    5.1747   -4.0185    0.0000 C   0  0  0  0  0  0  0  0  0  0  0  0
    7.3040    1.2880    0.0000 C   0  0  0  0  0  0  0  0  0  0  0  0
    5.3139    2.9590    0.0000 C   0  0  0  0  0  0  0  0  0  0  0  0
    2.4820    2.9577    0.0000 C   0  0  0  0  0  0  0  0  0  0  0  0
    0.4909    1.2881    0.0000 C   0  0  0  0  0  0  0  0  0  0  0  0
    0.4685    0.2701    0.0000 C   0  0  0  0  0  0  0  0  0  0  0  0
   -0.8315   -1.9799    0.0000 C   0  0  0  0  0  0  0  0  0  0  0  0
    2.2184   -4.5388    0.0000 C   0  0  0  0  0  0  0  0  0  0  0  0
    4.2096   -2.8692    0.0000 C   0  0  0  0  0  0  0  0  0  0  0  0
    6.3397    0.1380    0.0000 C   0  0  0  0  0  0  0  0  0  0  0  0
    4.3496    1.8090    0.0000 C   0  0  0  0  0  0  0  0  0  0  0  0
    3.4471    1.8083    0.0000 C   0  0  0  0  0  0  0  0  0  0  0  0
    1.4560    0.1387    0.0000 C   0  0  0  0  0  0  0  0  0  0  0  0
    0.4685   -1.2299    0.0000 C   0  0  0  0  0  0  0  0  0  0  0  0
    2.7315   -3.1293    0.0000 C   0  0  0  0  0  0  0  0  0  0  0  0
    4.8624    0.3985    0.0000 C   0  0  0  0  0  0  0  0  0  0  0  0
    2.9341    0.3988    0.0000 C   0  0  0  0  0  0  0  0  0  0  0  0
    1.7675   -1.9801    0.0000 Si  0  0  0  0  0  4  0  0  0  0  0  0
    3.8981   -0.7504    0.0000 Si  0  0  0  0  0  4  0  0  0  0  0  0
  1  2  1  0
  3  4  1  0
  5  1  3  0
  6  3  3  0
 11  7  2  0
 12  7  1  0
 13  8  2  0
 14  8  1  0
 15  9  2  0
 16  9  1  0
 17 10  2  0
 18 10  1  0
 19 11  1  0
 20 12  2  0
 21 13  1  0
 22 14  2  0
 23 15  1  0
 24 16  2  0
 25 17  1  0
 26 18  2  0
 27 19  2  0
 27 20  1  0
 28 21  2  0
 28 22  1  0
 29 23  2  0
 29 24  1  0
 30 25  2  0
 30 26  1  0
 31  5  1  0
 31 27  1  0
 31 28  1  0
 32  6  1  0
 32 29  1  0
 32 30  1  0
 32 31  1  0
M  ISO  2   2   2   4   2
M  END
>  <NAME>  (296) 
1,2-DI(DEUTERIOETHYNYL)-1,1,2,2-TETRAPHENYL-DISILANE

>  <SYNONYMS>  (296) 


>  <SPECTRUM TYPE>  (296) 
MS1

>  <INSTRUMENT TYPE>  (296) 
EI-B

>  <INSTRUMENT>  (296) 
SHIMADZU QP-1000

>  <ION MODE>  (296) 
P

>  <INCHIKEY>  (296) 
BWYKIYGPAWQNGN-QDNHWIQGSA-N

>  <FORMULA>  (296) 
C28H22Si2

>  <EXACT MASS>  (296) 
416.138557256

>  <MW>  (296) 
416

>  <ID>  (296) 
JP011715

>  <CONTRIBUTOR>  (296) 
University of Tokyo Team, {Faculty of Engineering, University of Tokyo

>  <COMMENT>  (296) 
SMILES=c(c1)cccc1[Si](C#C[2H])(c(c4)cccc4)[Si](C#C[2H])(c(c3)cccc3)c(c2)cccc2
InChI=InChI=1S/C28H22Si2/c1-3-29(25-17-9-5-10-18-25,26-19-11-6-12-20-26)30(4-2,27-21-13-7-14-22-27)28-23-15-8-16-24-28/h1-2,5-24H/i1D,2D
computed SMILES=[H]C#C[Si](C=1C=CC=CC1)(C=2C=CC=CC2)[Si](C#C[H])(C=3C=CC=CC3)C=4C=CC=CC4
accession=JP011715
date=2016.01.19 (Created 2008.10.21, modified 2011.05.06)
author=FAC. TECHNOLOGY, HIROSHIMA UNIV.
license=CC BY-NC-SA
exact mass=414.126
ionization energy=70 eV
ion type=[M]+*
computed spectral entropy=3.2876452743731814
computed normalized entropy=0.824181103758698
SPLASH=splash10-0a4i-3930000000-3e3acfaa61a136873116
submitter=submitter = University of Tokyo Team (Faculty of Engineering, University of Tokyo)
MoNA Rating=3.75

>  <NUM PEAKS>  (296) 
54

>  <MASS SPECTRAL PEAKS>  (296) 
39 1.4
43 2.8
44 1.4
51 5.6
52 1.4
53 40.1
54 35.9
55 5.6
56 1.4
77 7
78 6.3
79 14.8
80 3.5
103 24.6
104 10.6
105 99.99
106 16.9
107 4.2
129 21.8
130 21.8
131 7
132 3.5
152 2.1
153 3.5
154 2.1
155 25.4
156 8.5
157 2.8
165 2.1
166 1.4
178 1.4
179 9.2
180 18.3
181 62
182 16.9
183 12
184 2.8
204 1.4
205 3.5
206 5.6
207 21.1
208 90.8
209 16.2
210 4.2
259 10.6
261 2.8
309 1.4
338 2.8
339 3.5
340 2.1
415 4.2
416 12.7
417 11.3
418 4.2

>  <PREDICTED SPECTRUM>  (296) 
26 4
27 61
36 8
38 18
39 76
40 26
43 53
45 34
50 110
51 150
52 81
53 134
54 11
55 3
60 10
62 25
63 89
64 21
65 91
66 23
69 75
74 43
76 100
77 269
78 155
79 112
81 7
83 38
87 12
89 14
91 131
92 80
93 59
94 49
95 31
101 0
102 2
103 177
104 49
105 302
107 113
108 45
109 64
112 19
113 11
115 114
116 25
117 49
119 13
120 4
121 84
122 139
125 10
127 58
128 55
129 157
130 70
131 146
132 85
133 123
134 124
135 47
136 7
137 74
142 27
143 55
145 60
146 56
147 22
148 53
150 38
151 38
152 115
153 115
154 195
155 230
156 116
157 103
159 42
160 23
161 68
162 7
163 34
166 6
169 33
170 48
171 57
172 90
173 24
174 12
175 52
176 40
177 72
178 46
179 93
180 165
181 296
182 184
183 286
184 232
185 184
186 94
187 83
188 41
191 20
192 78
193 52
194 7
195 96
201 73
202 103
203 100
204 100
205 45
208 41
210 25
211 6
212 62
213 17
219 73
220 29
222 54
223 18
229 75
231 11
232 15
234 92
235 128
236 83
237 48
239 33
246 9
247 39
249 10
253 7
256 34
257 328
258 53
259 999
260 524
261 368
262 403
263 209
264 77
265 38
266 62
267 143
281 54
283 45
313 127
314 191
323 41
325 37
335 43
337 261
338 83
339 323
340 250
341 70
401 16
415 96
416 608
417 447
418 311
419 151
420 18

$$$$

     RDKit          2D

 30 33  0  0  0  0  0  0  0  0999 V2000
   -0.1613   -4.2779    0.0000 C   0  0  0  0  0  0  0  0  0  0  0  0
    6.4959   -2.2508    0.0000 C   0  0  0  0  0  0  0  0  0  0  0  0
    0.8031   -3.1290    0.0000 C   0  0  0  0  0  0  0  0  0  0  0  0
    5.1970   -1.5006    0.0000 C   0  0  0  0  0  0  0  0  0  0  0  0
   -2.1315    0.2701    0.0000 C   0  0  0  0  0  0  0  0  0  0  0  0
    4.6616   -5.4281    0.0000 C   0  0  0  0  0  0  0  0  0  0  0  0
    6.7911    2.6985    0.0000 C   0  0  0  0  0  0  0  0  0  0  0  0
    1.0039    2.6976    0.0000 C   0  0  0  0  0  0  0  0  0  0  0  0
   -0.8315    1.0201    0.0000 C   0  0  0  0  0  0  0  0  0  0  0  0
   -2.1315   -1.2299    0.0000 C   0  0  0  0  0  0  0  0  0  0  0  0
    3.1835   -5.6882    0.0000 C   0  0  0  0  0  0  0  0  0  0  0  0
    5.1747   -4.0185    0.0000 C   0  0  0  0  0  0  0  0  0  0  0  0
    7.3040    1.2880    0.0000 C   0  0  0  0  0  0  0  0  0  0  0  0
    5.3139    2.9590    0.0000 C   0  0  0  0  0  0  0  0  0  0  0  0
    2.4820    2.9577    0.0000 C   0  0  0  0  0  0  0  0  0  0  0  0
    0.4909    1.2881    0.0000 C   0  0  0  0  0  0  0  0  0  0  0  0
    0.4685    0.2701    0.0000 C   0  0  0  0  0  0  0  0  0  0  0  0
   -0.8315   -1.9799    0.0000 C   0  0  0  0  0  0  0  0  0  0  0  0
    2.2184   -4.5388    0.0000 C   0  0  0  0  0  0  0  0  0  0  0  0
    4.2096   -2.8692    0.0000 C   0  0  0  0  0  0  0  0  0  0  0  0
    6.3397    0.1380    0.0000 C   0  0  0  0  0  0  0  0  0  0  0  0
    4.3496    1.8090    0.0000 C   0  0  0  0  0  0  0  0  0  0  0  0
    3.4471    1.8083    0.0000 C   0  0  0  0  0  0  0  0  0  0  0  0
    1.4560    0.1387    0.0000 C   0  0  0  0  0  0  0  0  0  0  0  0
    0.4685   -1.2299    0.0000 C   0  0  0  0  0  0  0  0  0  0  0  0
    2.7315   -3.1293    0.0000 C   0  0  0  0  0  0  0  0  0  0  0  0
    4.8624    0.3985    0.0000 C   0  0  0  0  0  0  0  0  0  0  0  0
    2.9341    0.3988    0.0000 C   0  0  0  0  0  0  0  0  0  0  0  0
    1.7675   -1.9801    0.0000 Si  0  0  0  0  0  4  0  0  0  0  0  0
    3.8981   -0.7504    0.0000 Si  0  0  0  0  0  4  0  0  0  0  0  0
  3  1  3  0
  4  2  3  0
  9  5  2  0
 10  5  1  0
 11  6  2  0
 12  6  1  0
 13  7  2  0
 14  7  1  0
 15  8  2  0
 16  8  1  0
 17  9  1  0
 18 10  2  0
 19 11  1  0
 20 12  2  0
 21 13  1  0
 22 14  2  0
 23 15  1  0
 24 16  2  0
 25 17  2  0
 25 18  1  0
 26 19  2  0
 26 20  1  0
 27 21  2  0
 27 22  1  0
 28 23  2  0
 28 24  1  0
 29  3  1  0
 29 25  1  0
 29 26  1  0
 30  4  1  0
 30 27  1  0
 30 28  1  0
 30 29  1  0
M  END
>  <NAME>  (297) 
1,2-DIETHYNYL-1,1,2,2-TETRAPHENYLDISILANE

>  <SYNONYMS>  (297) 


>  <SPECTRUM TYPE>  (297) 
MS1

>  <INSTRUMENT TYPE>  (297) 
EI-B

>  <INSTRUMENT>  (297) 
Unknown

>  <ION MODE>  (297) 
P

>  <INCHIKEY>  (297) 
BWYKIYGPAWQNGN-UHFFFAOYSA-N

>  <FORMULA>  (297) 
C28H22Si2

>  <EXACT MASS>  (297) 
414.12600376399996

>  <MW>  (297) 
414

>  <ID>  (297) 
JP011714

>  <CONTRIBUTOR>  (297) 
University of Tokyo Team, {Faculty of Engineering, University of Tokyo

>  <COMMENT>  (297) 
SMILES=c(c1)cccc1[Si]([Si](c(c4)cccc4)(c(c3)cccc3)C#C)(c(c2)cccc2)C#C
InChI=InChI=1S/C28H22Si2/c1-3-29(25-17-9-5-10-18-25,26-19-11-6-12-20-26)30(4-2,27-21-13-7-14-22-27)28-23-15-8-16-24-28/h1-2,5-24H
computed SMILES=C#C[Si](C=1C=CC=CC1)(C=2C=CC=CC2)[Si](C#C)(C=3C=CC=CC3)C=4C=CC=CC4
ion type=[M]+*
accession=JP011714
date=2016.01.19 (Created 2008.10.21, modified 2011.05.06)
author=FAC. TECHNOLOGY, HIROSHIMA UNIV.
license=CC BY-NC-SA
exact mass=414.126
ionization energy=70 eV
computed spectral entropy=2.953098700779563
computed normalized entropy=0.7900908861323752
SPLASH=splash10-0pb9-3900000000-977a6ff1f67a61ee910f
submitter=submitter = University of Tokyo Team (Faculty of Engineering, University of Tokyo)
MoNA Rating=3.75

>  <NUM PEAKS>  (297) 
42

>  <MASS SPECTRAL PEAKS>  (297) 
39 1.1
50 1.1
51 8.5
53 78.7
54 5.3
55 3.2
77 10.6
78 4.3
79 18.1
102 2.1
103 36.2
104 7.4
105 99.99
106 11.7
107 3.2
129 42.6
130 7.4
131 5.3
152 3.2
153 4.3
154 1.1
155 23.4
156 3.2
157 1.1
165 3.2
178 4.3
179 5.3
180 11.7
181 46.8
182 7.4
183 3.2
195 3.2
197 43.6
198 7.4
199 1.1
259 3.2
336 1.1
337 4.3
338 1.1
414 8.5
415 9.6
416 3.2

>  <PREDICTED SPECTRUM>  (297) 
25 1
26 48
27 80
36 10
38 17
39 157
40 25
41 25
43 127
44 15
45 61
49 33
50 181
51 316
52 100
53 204
54 46
55 43
60 4
62 12
63 111
64 14
65 83
66 5
67 34
69 126
70 16
71 11
74 40
75 76
76 190
77 531
78 224
79 171
81 40
83 67
85 17
86 19
87 24
89 83
91 191
92 100
93 14
97 22
98 34
99 62
100 20
101 96
102 73
103 168
104 151
105 501
106 123
107 152
109 14
111 30
112 73
113 35
114 17
115 122
116 48
117 140
119 35
120 74
121 32
122 110
123 47
125 12
126 42
127 158
128 98
129 338
130 124
131 175
132 36
133 60
134 84
135 127
137 16
138 29
139 68
140 25
141 113
142 46
143 82
145 138
146 83
147 57
148 52
149 66
150 48
151 105
152 142
153 124
154 220
155 262
156 98
157 66
158 60
159 138
160 10
161 28
166 6
167 63
168 86
169 93
170 130
171 61
172 55
173 174
174 123
175 145
176 31
177 79
178 147
179 147
180 384
181 498
182 230
183 220
184 116
185 50
186 40
187 60
188 0
189 201
190 144
191 111
192 69
193 44
194 43
195 48
196 31
198 13
199 27
200 64
201 201
202 265
203 52
204 35
205 23
206 78
207 152
208 126
209 45
210 80
211 65
215 4
216 11
217 55
218 75
219 38
220 69
221 28
222 47
223 38
227 113
228 43
229 15
230 84
231 107
232 236
233 241
234 221
235 114
245 116
247 130
248 55
249 17
254 58
255 81
256 45
257 258
258 267
259 999
260 530
261 345
262 100
264 15
274 29
276 81
277 15
279 33
283 7
284 33
287 7
295 98
296 9
300 45
308 100
309 135
310 33
311 156
312 159
313 16
322 11
323 90
333 52
335 417
336 450
337 463
338 93
339 95
340 64
387 21
410 1
413 69
414 462
415 289
416 132
417 39

$$$$

     RDKit          2D

 20 20  0  0  0  0  0  0  0  0999 V2000
   -8.7610    8.4841    0.0000 C   0  0  0  0  0  0  0  0  0  0  0  0
   -7.3238    8.9434    0.0000 C   0  0  0  0  0  0  0  0  0  0  0  0
  -10.7287    1.3459    0.0000 C   0  0  0  0  0  0  0  0  0  0  0  0
   -9.3045    1.8165    0.0000 C   0  0  0  0  0  0  0  0  0  0  0  0
   -9.8700    4.6573    0.0000 C   0  0  0  0  0  0  0  0  0  0  0  0
   -6.3005    7.1091    0.0000 C   0  0  0  0  0  0  0  0  0  0  0  0
  -11.7599    3.1815    0.0000 C   0  0  0  0  0  0  0  0  0  0  0  0
   -8.1926    5.6445    0.0000 C   0  0  0  0  0  0  0  0  0  0  0  0
   -9.6414    7.2697    0.0000 C   0  0  0  0  0  0  0  0  0  0  0  0
   -8.2076    7.7314    0.0000 C   0  0  0  0  0  0  0  0  0  0  0  0
   -9.8484    2.5604    0.0000 C   0  0  0  0  0  0  0  0  0  0  0  0
   -8.4214    3.0290    0.0000 C   0  0  0  0  0  0  0  0  0  0  0  0
  -10.4600    6.3600    0.0000 C   0  0  0  0  0  0  0  0  0  0  0  0
  -11.3400    5.1500    0.0000 C   0  0  0  0  0  0  0  0  0  0  0  0
   -6.7200    5.1500    0.0000 C   0  0  0  0  0  0  0  0  0  0  0  0
   -7.6000    3.9300    0.0000 C   0  0  0  0  0  0  0  0  0  0  0  0
   -9.0300    5.9000    0.0000 Si  0  0  0  0  0  4  0  0  0  0  0  0
   -7.6000    6.3600    0.0000 Si  0  0  0  0  0  4  0  0  0  0  0  0
  -10.4600    3.9300    0.0000 Si  0  0  0  0  0  4  0  0  0  0  0  0
   -9.0300    4.4000    0.0000 Si  0  0  0  0  0  4  0  0  0  0  0  0
  9  1  1  0
 10  2  1  0
 11  3  1  0
 12  4  1  0
 14 13  3  0
 16 15  3  0
 17  5  1  0
 17  9  1  0
 17 13  1  0
 18  6  1  0
 18 10  1  0
 18 15  1  0
 18 17  1  0
 19  7  1  0
 19 11  1  0
 19 14  1  0
 20  8  1  0
 20 12  1  0
 20 16  1  0
 20 19  1  0
M  END
>  <NAME>  (298) 
1,2,5,6-TERTAETHYL-1,2,5,6-TETRAMETHYL-1,2,5,6-TETRASILACYCLOOCTA-3,7-DIYNE

>  <SYNONYMS>  (298) 


>  <SPECTRUM TYPE>  (298) 
MS1

>  <INSTRUMENT TYPE>  (298) 
EI-B

>  <INSTRUMENT>  (298) 
SHIMADZU QP-1000

>  <ION MODE>  (298) 
P

>  <INCHIKEY>  (298) 
ZSRIYGVDTADWFF-UHFFFAOYSA-N

>  <FORMULA>  (298) 
C16H32Si4

>  <EXACT MASS>  (298) 
336.158107144

>  <MW>  (298) 
336

>  <ID>  (298) 
JP011713

>  <CONTRIBUTOR>  (298) 
University of Tokyo Team, {Faculty of Engineering, University of Tokyo

>  <COMMENT>  (298) 
SMILES=CC[Si](C)(C#1)[Si](C)(CC)C#C[Si](C)(CC)[Si](C)(CC)C1
InChI=InChI=1S/C16H32Si4/c1-9-17(5)13-14-19(7,11-3)20(8,12-4)16-15-18(17,6)10-2/h9-12H2,1-8H3
computed SMILES=C1#C[Si](C)(CC)[Si](C#C[Si](C)(CC)[Si]1(C)CC)(C)CC
accession=JP011713
date=2016.01.19 (Created 2008.10.21, modified 2011.05.06)
author=FAC. TECHNOLOGY, HIROSHIMA UNIV.
license=CC BY-NC-SA
exact mass=336.15811
ionization energy=70 eV
ion type=[M]+*
computed spectral entropy=3.8797815932492874
computed normalized entropy=0.8519733153975687
SPLASH=splash10-03k9-9332000000-778716b28f3957199984
submitter=submitter = University of Tokyo Team (Faculty of Engineering, University of Tokyo)
MoNA Rating=3.75

>  <NUM PEAKS>  (298) 
95

>  <MASS SPECTRAL PEAKS>  (298) 
54 3.2
56 6.4
57 1.1
58 5.3
60 99.99
61 6.4
62 2.1
67 9.6
68 1.1
69 23.4
70 3.2
71 10.6
73 63.8
74 4.3
75 1.1
81 13.8
82 2.1
83 24.5
84 3.2
85 20.2
86 2.1
87 14.9
88 1.1
93 9.6
95 10.6
96 4.3
97 25.5
98 3.2
99 11.7
100 1.1
101 6.4
104 1.1
107 2.1
109 10.6
110 2.1
111 24.5
112 17
113 17
114 2.1
115 3.2
135 1.1
137 5.3
139 8.5
140 5.3
141 7.4
149 2.1
153 6.4
155 3.2
157 1.1
159 3.2
161 1.1
163 2.1
165 3.2
167 3.2
168 1.1
169 3.2
171 2.1
175 1.1
177 2.1
179 3.2
181 4.3
183 3.2
191 2.1
193 3.2
195 3.2
197 2.1
205 1.1
207 3.2
209 3.2
211 1.1
219 1.1
221 2.1
223 10.6
224 3.2
225 3.2
235 2.1
237 4.3
249 2.1
251 27.7
252 9.6
253 5.3
265 6.4
266 1.1
277 1.1
279 27.7
280 10.6
281 5.3
293 5.3
307 22.3
308 10.6
309 4.3
321 2.1
336 34
337 12.8
338 6.4

>  <PREDICTED SPECTRUM>  (298) 
27 42
29 121
43 81
44 7
45 107
47 63
48 5
53 155
54 99
55 406
56 147
57 352
58 88
59 620
60 429
61 222
62 56
63 52
64 50
65 64
66 7
67 292
68 127
69 426
70 110
71 243
72 29
73 845
74 226
75 136
76 39
77 128
78 25
79 210
80 79
81 296
82 149
83 502
84 169
85 474
86 141
87 509
88 119
89 133
90 34
91 121
92 5
93 138
94 19
95 450
96 120
97 472
98 147
99 365
100 145
101 263
102 53
103 113
105 76
107 87
108 48
109 434
110 176
111 536
112 306
113 294
114 63
115 157
117 66
119 116
121 168
122 5
123 227
124 9
125 264
126 124
127 127
129 64
130 53
131 37
135 135
136 14
137 237
138 69
139 515
140 222
141 237
142 104
143 94
145 14
147 67
148 28
149 169
150 17
151 160
153 301
154 49
155 179
157 37
159 139
160 16
161 50
163 169
165 177
167 342
168 101
169 40
170 64
171 114
172 86
177 136
178 37
179 152
181 166
183 133
191 134
192 43
193 244
194 67
195 208
196 1
197 99
205 107
206 51
207 173
209 184
210 55
211 101
217 5
219 155
220 41
221 95
223 447
224 262
225 302
226 114
235 86
237 181
238 15
239 16
249 80
251 666
252 389
253 225
254 19
265 112
266 37
277 114
279 706
280 384
281 256
282 61
293 100
294 4
295 39
306 0
307 490
308 361
309 256
321 148
322 1
335 13
336 999
337 513
338 343
339 57

$$$$

     RDKit          2D

 22 24  0  0  0  0  0  0  0  0999 V2000
    1.8961   -0.3813    0.0000 C   0  0  0  0  0  0  0  0  0  0  0  0
   -2.0024   -4.1328    0.0000 C   0  0  0  0  0  0  0  0  0  0  0  0
   -2.0019   -2.6319    0.0000 C   0  0  0  0  0  0  0  0  0  0  0  0
   -0.7033   -4.8828    0.0000 C   0  0  0  0  0  0  0  0  0  0  0  0
   -0.7024   -1.8811    0.0000 C   0  0  0  0  0  0  0  0  0  0  0  0
    0.5962   -4.1319    0.0000 C   0  0  0  0  0  0  0  0  0  0  0  0
    1.9563   -5.8513    0.0000 C   0  0  0  0  0  0  0  0  0  0  0  0
    4.3982   -4.9625    0.0000 C   0  0  0  0  0  0  0  0  0  0  0  0
    5.8160   -2.5111    0.0000 C   0  0  0  0  0  0  0  0  0  0  0  0
    5.3648    0.0480    0.0000 C   0  0  0  0  0  0  0  0  0  0  0  0
    1.4439   -4.4407    0.0000 C   0  0  0  0  0  0  0  0  0  0  0  0
    3.8858   -3.5519    0.0000 C   0  0  0  0  0  0  0  0  0  0  0  0
    4.3378   -2.7708    0.0000 C   0  0  0  0  0  0  0  0  0  0  0  0
    3.8866   -0.2117    0.0000 C   0  0  0  0  0  0  0  0  0  0  0  0
    3.4335   -6.1122    0.0000 C   0  0  0  0  0  0  0  0  0  0  0  0
    6.3295   -1.1017    0.0000 C   0  0  0  0  0  0  0  0  0  0  0  0
    0.5967   -2.6311    0.0000 C   0  0  0  0  0  0  0  0  0  0  0  0
    2.4086   -3.2909    0.0000 C   0  0  0  0  0  0  0  0  0  0  0  0
    3.3731   -1.6211    0.0000 C   0  0  0  0  0  0  0  0  0  0  0  0
    3.9463   -7.5219    0.0000 Br  0  0  0  0  0  0  0  0  0  0  0  0
    7.8067   -0.8415    0.0000 Br  0  0  0  0  0  0  0  0  0  0  0  0
    1.8958   -1.8813    0.0000 Si  0  0  0  0  0  4  0  0  0  0  0  0
  3  2  2  0
  4  2  1  0
  5  3  1  0
  6  4  2  0
 11  7  2  0
 12  8  1  0
 13  9  2  0
 14 10  1  0
 15  7  1  0
 15  8  2  0
 16  9  1  0
 16 10  2  0
 17  5  2  0
 17  6  1  0
 18 11  1  0
 18 12  2  0
 19 13  1  0
 19 14  2  0
 20 15  1  0
 21 16  1  0
 22  1  1  0
 22 17  1  0
 22 18  1  0
 22 19  1  0
M  END
>  <NAME>  (299) 
DI(4-BROMOPHENYL)METHYLPHENYLSILANE

>  <SYNONYMS>  (299) 


>  <SPECTRUM TYPE>  (299) 
MS1

>  <INSTRUMENT TYPE>  (299) 
EI-B

>  <INSTRUMENT>  (299) 
SHIMADZU QP-1000

>  <ION MODE>  (299) 
P

>  <INCHIKEY>  (299) 
HKEBXOBIFIZXTE-UHFFFAOYSA-N

>  <FORMULA>  (299) 
C19H16Br2Si

>  <EXACT MASS>  (299) 
429.938801242

>  <MW>  (299) 
430

>  <ID>  (299) 
JP011712

>  <CONTRIBUTOR>  (299) 
University of Tokyo Team, {Faculty of Engineering, University of Tokyo

>  <COMMENT>  (299) 
SMILES=Brc(c3)ccc(c3)[Si](C)(c(c2)cccc2)c(c1)ccc(Br)c1
InChI=InChI=1S/C19H16Br2Si/c1-22(17-5-3-2-4-6-17,18-11-7-15(20)8-12-18)19-13-9-16(21)10-14-19/h2-14H,1H3
computed SMILES=BrC1=CC=C(C=C1)[Si](C=2C=CC=CC2)(C3=CC=C(Br)C=C3)C
accession=JP011712
date=2016.01.19 (Created 2008.10.21, modified 2011.05.06)
author=FAC. TECHNOLOGY, HIROSHIMA UNIV.
license=CC BY-NC-SA
exact mass=429.9388
ionization energy=70 eV
ion type=[M]+*
computed spectral entropy=4.13144206001619
computed normalized entropy=0.862965887355323
SPLASH=splash10-0pb9-8900100000-02c291f77181d3a8956e
submitter=submitter = University of Tokyo Team (Faculty of Engineering, University of Tokyo)
MoNA Rating=3.75

>  <NUM PEAKS>  (299) 
120

>  <MASS SPECTRAL PEAKS>  (299) 
52 55.3
53 50
54 89.4
55 99.99
56 12.8
57 12.8
58 16
63 2.1
64 10.4
65 13.8
66 12.8
67 13.8
68 3.2
69 8.5
70 2.1
71 4.3
73 6.4
74 8.5
75 28.7
76 35.1
77 53.2
78 22.3
79 31.9
80 16
81 7.4
82 12.8
83 3.2
85 3.2
86 1.1
87 2.1
88 1.1
89 10.4
90 12.8
91 40.4
92 6.4
93 18.1
94 2.1
95 3.2
96 1.1
97 2.1
98 1.1
99 1.1
101 7.4
102 7.4
103 43.6
104 17
105 98.9
107 76.6
109 71.3
110 3.2
111 3.2
113 3.2
114 3.2
115 7.4
116 3.2
117 12.8
118 6.4
119 18.1
120 7.4
121 6.4
122 6.4
123 3.2
124 3.2
125 3.2
126 5.3
127 13.8
128 15
129 16
130 3.2
131 2.1
135 50
139 3.2
141 3.2
142 2.1
143 2.1
145 2.1
147 1.1
149 3.2
150 6.4
151 13.8
152 44.7
153 28.7
154 6.4
155 12.8
156 2.1
157 1.1
163 1.1
164 3.2
165 28.7
166 4.3
167 5.3
168 3.2
169 3.2
175 2.1
176 3.2
177 3.2
178 2.1
179 19.1
180 26.6
181 26.6
182 6.4
183 9.6
185 9.6
193 6.4
194 2.1
195 6.4
196 3.2
197 2.1
201 2.1
274 3.2
276 3.2
415 16
416 9.6
417 37.2
418 8.5
419 23.4
420 4.3
430 3.2
432 5.3
434 3.2

>  <PREDICTED SPECTRUM>  (299) 
15 20
25 2
26 39
27 143
28 50
29 37
30 26
34 0
36 33
37 56
38 146
39 324
40 165
41 317
42 173
43 234
44 140
45 128
46 41
47 119
49 3
50 467
51 604
52 398
53 413
54 181
55 339
56 138
57 245
58 101
59 156
61 41
62 202
63 488
64 309
65 483
66 263
67 298
68 66
69 188
70 74
71 80
73 295
74 314
75 474
76 563
77 752
78 584
79 561
80 236
81 304
82 259
83 256
84 101
85 138
86 96
87 185
88 41
89 407
90 323
91 930
92 402
93 300
94 91
95 226
96 127
97 111
98 141
99 158
101 173
102 277
103 317
104 363
105 684
106 241
107 583
108 166
109 426
110 125
111 126
112 35
113 124
114 66
115 438
116 102
117 437
118 305
119 413
120 310
121 299
122 183
123 378
124 205
125 200
126 193
127 360
128 256
129 431
130 148
131 194
132 120
133 167
134 147
135 322
136 139
137 170
139 394
140 84
141 179
142 84
143 129
144 13
145 142
146 19
147 73
148 117
149 172
150 162
151 583
152 596
153 550
154 296
155 362
156 183
157 299
158 56
159 43
162 7
163 151
164 129
165 671
166 214
167 182
168 127
169 174
170 96
171 177
173 33
174 39
175 152
176 132
177 60
178 101
179 283
180 518
181 541
182 142
183 293
184 53
185 229
186 36
187 55
191 63
192 52
193 172
194 178
195 303
196 169
197 172
198 73
199 67
201 94
205 27
209 2
210 62
211 84
212 0
213 58
214 23
215 56
217 23
219 16
220 1
221 76
235 35
243 25
255 85
259 55
271 39
272 20
275 9
276 70
277 97
293 53
338 74
413 38
415 759
416 411
417 999
418 438
419 695
421 84
430 100
431 37
432 245
433 94
434 137

$$$$

     RDKit          2D

 30 33  0  0  0  0  0  0  0  0999 V2000
    6.5639    1.3418    0.0000 C   0  0  0  0  0  0  0  0  0  0  0  0
    3.9661   -3.1590    0.0000 C   0  0  0  0  0  0  0  0  0  0  0  0
    1.3672    1.3425    0.0000 C   0  0  0  0  0  0  0  0  0  0  0  0
   -0.7626    1.0718    0.0000 C   0  0  0  0  0  0  0  0  0  0  0  0
    1.3664   -6.1598    0.0000 C   0  0  0  0  0  0  0  0  0  0  0  0
   -5.1962    0.3521    0.0000 C   0  0  0  0  0  0  0  0  0  0  0  0
   -2.3009   -4.6588    0.0000 C   0  0  0  0  0  0  0  0  0  0  0  0
    2.6660   -5.4092    0.0000 C   0  0  0  0  0  0  0  0  0  0  0  0
    0.0674   -5.4096    0.0000 C   0  0  0  0  0  0  0  0  0  0  0  0
   -4.2313    1.5017    0.0000 C   0  0  0  0  0  0  0  0  0  0  0  0
   -4.6829   -1.0573    0.0000 C   0  0  0  0  0  0  0  0  0  0  0  0
   -3.2655   -3.5090    0.0000 C   0  0  0  0  0  0  0  0  0  0  0  0
   -0.8238   -4.3981    0.0000 C   0  0  0  0  0  0  0  0  0  0  0  0
    2.6667   -3.9084    0.0000 C   0  0  0  0  0  0  0  0  0  0  0  0
    0.0682   -3.9088    0.0000 C   0  0  0  0  0  0  0  0  0  0  0  0
   -2.7531    1.2418    0.0000 C   0  0  0  0  0  0  0  0  0  0  0  0
   -3.2047   -1.3172    0.0000 C   0  0  0  0  0  0  0  0  0  0  0  0
   -2.7528   -2.0984    0.0000 C   0  0  0  0  0  0  0  0  0  0  0  0
   -0.3111   -2.9876    0.0000 C   0  0  0  0  0  0  0  0  0  0  0  0
    5.2654   -0.9090    0.0000 C   0  0  0  0  0  0  0  0  0  0  0  0
    3.9654    1.3427    0.0000 C   0  0  0  0  0  0  0  0  0  0  0  0
    5.2649    0.5918    0.0000 C   0  0  0  0  0  0  0  0  0  0  0  0
    3.9664   -1.6590    0.0000 C   0  0  0  0  0  0  0  0  0  0  0  0
    2.6664    0.5927    0.0000 C   0  0  0  0  0  0  0  0  0  0  0  0
    1.3678   -3.1582    0.0000 C   0  0  0  0  0  0  0  0  0  0  0  0
   -2.2398   -0.1677    0.0000 C   0  0  0  0  0  0  0  0  0  0  0  0
   -1.2757   -1.8377    0.0000 C   0  0  0  0  0  0  0  0  0  0  0  0
    2.6668   -0.9082    0.0000 C   0  0  0  0  0  0  0  0  0  0  0  0
    1.3678   -1.6582    0.0000 Si  0  0  0  0  0  4  0  0  0  0  0  0
   -0.7626   -0.4282    0.0000 Si  0  0  0  0  0  4  0  0  0  0  0  0
  8  5  2  0
  9  5  1  0
 10  6  2  0
 11  6  1  0
 12  7  2  0
 13  7  1  0
 14  8  1  0
 15  9  2  0
 16 10  1  0
 17 11  2  0
 18 12  1  0
 19 13  2  0
 22  1  1  0
 22 20  2  0
 22 21  1  0
 23  2  1  0
 23 20  1  0
 24  3  1  0
 24 21  2  0
 25 14  2  0
 25 15  1  0
 26 16  2  0
 26 17  1  0
 27 18  2  0
 27 19  1  0
 28 23  2  0
 28 24  1  0
 29 25  1  0
 29 28  1  0
 30  4  1  0
 30 26  1  0
 30 27  1  0
 30 29  1  0
M  END
>  <NAME>  (300) 
1-METHYL-2-MESITYL-1,1,2-TRIPHENYLDISILANE

>  <SYNONYMS>  (300) 


>  <SPECTRUM TYPE>  (300) 
MS1

>  <INSTRUMENT TYPE>  (300) 
EI-B

>  <INSTRUMENT>  (300) 
SHIMADZU QP-1000

>  <ION MODE>  (300) 
P

>  <INCHIKEY>  (300) 
DBYXZJROQFGNRY-UHFFFAOYSA-N

>  <FORMULA>  (300) 
C28H30Si2

>  <EXACT MASS>  (300) 
422.18860402

>  <MW>  (300) 
422

>  <ID>  (300) 
JP011711

>  <CONTRIBUTOR>  (300) 
University of Tokyo Team, {Faculty of Engineering, University of Tokyo

>  <COMMENT>  (300) 
SMILES=c([Si](c(c4)cccc4)(C)[SiH](c(c3C)c(cc(C)c3)C)c(c2)cccc2)(c1)cccc1
InChI=InChI=1S/C28H30Si2/c1-22-20-23(2)28(24(3)21-22)29(25-14-8-5-9-15-25)30(4,26-16-10-6-11-17-26)27-18-12-7-13-19-27/h5-21,29H,1-4H3
computed SMILES=C=1C=CC(=CC1)[SiH](C=2C(=CC(=CC2C)C)C)[Si](C=3C=CC=CC3)(C=4C=CC=CC4)C
accession=JP011711
date=2016.01.19 (Created 2008.10.21, modified 2011.05.06)
author=FAC. TECHNOLOGY, HIROSHIMA UNIV.
license=CC BY-NC-SA
exact mass=422.1886
ionization energy=70 eV
ion type=[M]+*
computed spectral entropy=2.9694450975970863
computed normalized entropy=0.7755871574496632
SPLASH=splash10-0udj-0936100000-1c15bf681618aebe7269
submitter=submitter = University of Tokyo Team (Faculty of Engineering, University of Tokyo)
MoNA Rating=3.75

>  <NUM PEAKS>  (300) 
46

>  <MASS SPECTRAL PEAKS>  (300) 
55 5.3
67 1.1
78 1.1
79 2.1
91 3.2
93 4.3
103 1.1
105 33
106 4.3
107 2.1
119 10.6
120 3.2
121 2.1
131 2.1
133 2.1
145 4.3
146 11.7
147 3.2
165 3.2
178 1.1
179 2.1
180 1.1
181 4.3
193 6.4
194 2.1
195 8.5
197 73.4
198 12.8
199 3.2
209 14.9
210 3.2
221 1.1
222 1.1
223 12.8
224 9.6
225 10.6
226 1.1
239 12.8
240 2.1
301 99.99
302 28.7
303 6.4
344 2.1
422 17
423 6.4
424 2.1

>  <PREDICTED SPECTRUM>  (300) 
41 140
42 44
43 144
44 13
45 13
51 25
53 132
55 92
57 77
59 8
65 88
67 94
69 33
77 111
78 105
79 127
81 81
91 216
93 172
95 2
103 38
105 486
106 173
107 120
115 10
116 65
117 117
118 113
119 286
120 207
121 184
122 93
128 63
129 96
130 1
131 132
132 51
133 124
134 74
135 134
136 12
137 30
143 9
144 39
145 166
146 132
147 159
148 55
149 83
151 20
153 5
161 11
162 8
163 66
165 82
167 32
179 25
180 12
181 180
182 48
183 77
191 36
192 13
193 106
194 80
195 277
196 71
197 756
198 352
199 155
209 279
210 187
211 39
221 65
222 120
223 385
224 237
225 348
226 68
229 14
237 76
238 87
239 86
266 24
267 64
284 9
299 29
301 999
302 605
303 447
304 115
343 79
344 122
420 35
422 407
423 268
424 156
425 70

$$$$

     RDKit          2D

 14 14  0  0  0  0  0  0  0  0999 V2000
   -3.3491   -0.2013    0.0000 C   0  0  0  0  0  0  0  0  0  0  0  0
   -3.8978   -2.2504    0.0000 C   0  0  0  0  0  0  0  0  0  0  0  0
   -1.8487   -2.7991    0.0000 C   0  0  0  0  0  0  0  0  0  0  0  0
    3.3491    0.2013    0.0000 C   0  0  0  0  0  0  0  0  0  0  0  0
    3.8978    2.2504    0.0000 C   0  0  0  0  0  0  0  0  0  0  0  0
    1.8487    2.7991    0.0000 C   0  0  0  0  0  0  0  0  0  0  0  0
   -1.3000    0.7500    0.0000 C   0  0  0  0  0  0  0  0  0  0  0  0
   -0.0000   -1.5000    0.0000 C   0  0  0  0  0  0  0  0  0  0  0  0
    0.0000    1.5000    0.0000 C   0  0  0  0  0  0  0  0  0  0  0  0
    1.3000   -0.7500    0.0000 C   0  0  0  0  0  0  0  0  0  0  0  0
   -1.3000   -0.7500    0.0000 C   0  0  0  0  0  0  0  0  0  0  0  0
    1.3000    0.7500    0.0000 C   0  0  0  0  0  0  0  0  0  0  0  0
   -2.5989   -1.5002    0.0000 Si  0  0  0  0  0  4  0  0  0  0  0  0
    2.5989    1.5002    0.0000 Si  0  0  0  0  0  4  0  0  0  0  0  0
  9  7  2  0
 10  8  1  0
 11  7  1  0
 11  8  2  0
 12  9  1  0
 12 10  2  0
 13  1  1  0
 13  2  1  0
 13  3  1  0
 13 11  1  0
 14  4  1  0
 14  5  1  0
 14  6  1  0
 14 12  1  0
M  END
>  <NAME>  (301) 
1,4-BIS(TRIMETHYLSILYL)BENZENE

>  <SYNONYMS>  (301) 


>  <SPECTRUM TYPE>  (301) 
MS1

>  <INSTRUMENT TYPE>  (301) 
EI-B

>  <INSTRUMENT>  (301) 
SHIMADZU QP-1000

>  <ION MODE>  (301) 
P

>  <INCHIKEY>  (301) 
NVRBTKMAZQNKPX-UHFFFAOYSA-N

>  <FORMULA>  (301) 
C12H22Si2

>  <EXACT MASS>  (301) 
222.12600376400002

>  <MW>  (301) 
222

>  <ID>  (301) 
JP011710

>  <CONTRIBUTOR>  (301) 
University of Tokyo Team, {Faculty of Engineering, University of Tokyo

>  <COMMENT>  (301) 
SMILES=C[Si](C)(C)c(c1)ccc(c1)[Si](C)(C)C
InChI=InChI=1S/C12H22Si2/c1-13(2,3)11-7-9-12(10-8-11)14(4,5)6/h7-10H,1-6H3
computed SMILES=C=1C=C(C=CC1[Si](C)(C)C)[Si](C)(C)C
accession=JP011710
date=2016.01.19 (Created 2008.10.21, modified 2011.05.06)
author=FAC. TECHNOLOGY, HIROSHIMA UNIV.
license=CC BY-NC-SA
exact mass=222.126
ionization energy=70 eV
ion type=[M]+*
computed spectral entropy=2.2926382553792486
computed normalized entropy=0.695616424170503
SPLASH=splash10-00di-9200000000-833fcdc5c3f0cba0de81
submitter=submitter = University of Tokyo Team (Faculty of Engineering, University of Tokyo)
MoNA Rating=3.75

>  <NUM PEAKS>  (301) 
27

>  <MASS SPECTRAL PEAKS>  (301) 
53 3.5
55 5.6
56 1.4
57 6.3
58 18.3
59 12.7
73 99.99
74 7
75 2.8
83 2.1
91 1.4
93 2.8
105 3.5
107 2.1
118 1.4
119 9.9
120 1.4
121 2.1
131 1.4
133 4.2
134 7
135 3.5
148 1.4
149 3.5
161 4.4
163 1.3
207 7.4

>  <PREDICTED SPECTRUM>  (301) 
15 6
27 34
28 10
29 38
31 12
41 16
42 18
43 207
44 70
45 222
46 15
47 33
50 19
51 44
52 32
53 80
55 60
56 23
57 68
58 45
59 137
60 52
61 16
63 53
64 11
65 25
66 45
67 75
68 19
69 76
71 33
72 16
73 475
74 126
75 127
76 25
77 86
78 46
79 54
80 10
81 69
82 29
83 83
84 27
85 33
87 17
88 9
89 60
90 20
91 79
92 20
93 85
94 30
95 75
96 41
97 12
99 41
101 41
102 6
103 61
104 32
105 124
106 48
107 43
109 72
110 30
111 37
113 10
115 52
116 33
117 108
118 53
119 121
120 55
121 87
122 31
123 25
129 34
130 15
131 122
132 61
133 126
134 87
135 90
136 46
137 9
145 54
146 50
147 112
148 68
149 97
150 60
151 70
152 11
159 24
160 37
161 77
162 28
163 78
164 7
173 32
174 16
175 89
176 31
177 182
178 62
179 39
180 5
189 42
191 155
192 56
193 65
205 37
207 999
208 466
209 286
210 88
211 0
222 277
223 126
224 38

$$$$

     RDKit          2D

 24 25  0  0  0  0  0  0  0  0999 V2000
   -3.8663    5.5520    0.0000 C   0  0  0  0  0  0  0  0  0  0  0  0
    0.2470    0.8106    0.0000 C   0  0  0  0  0  0  0  0  0  0  0  0
    1.7473   -0.6891    0.0000 C   0  0  0  0  0  0  0  0  0  0  0  0
    3.2470    0.8111    0.0000 C   0  0  0  0  0  0  0  0  0  0  0  0
    3.6692    3.2077    0.0000 C   0  0  0  0  0  0  0  0  0  0  0  0
    2.7724    5.1301    0.0000 C   0  0  0  0  0  0  0  0  0  0  0  0
    0.8500    4.2333    0.0000 C   0  0  0  0  0  0  0  0  0  0  0  0
    9.1330    1.0097    0.0000 C   0  0  0  0  0  0  0  0  0  0  0  0
    8.6200    2.4201    0.0000 C   0  0  0  0  0  0  0  0  0  0  0  0
    8.1689   -0.1405    0.0000 C   0  0  0  0  0  0  0  0  0  0  0  0
    7.1427    2.6803    0.0000 C   0  0  0  0  0  0  0  0  0  0  0  0
    6.6916    0.1198    0.0000 C   0  0  0  0  0  0  0  0  0  0  0  0
   -1.2681    5.5523    0.0000 C   0  0  0  0  0  0  0  0  0  0  0  0
   -2.5667    3.3014    0.0000 C   0  0  0  0  0  0  0  0  0  0  0  0
    0.0314    4.8014    0.0000 C   0  0  0  0  0  0  0  0  0  0  0  0
   -1.2672    2.5506    0.0000 C   0  0  0  0  0  0  0  0  0  0  0  0
    4.7013    1.7904    0.0000 C   0  0  0  0  0  0  0  0  0  0  0  0
    3.2240    2.0506    0.0000 C   0  0  0  0  0  0  0  0  0  0  0  0
   -2.5672    4.8023    0.0000 C   0  0  0  0  0  0  0  0  0  0  0  0
    6.1785    1.5302    0.0000 C   0  0  0  0  0  0  0  0  0  0  0  0
    0.0319    3.3006    0.0000 C   0  0  0  0  0  0  0  0  0  0  0  0
    1.7470    0.8109    0.0000 Si  0  0  0  0  0  4  0  0  0  0  0  0
    2.2596    3.7205    0.0000 Si  0  0  0  0  0  4  0  0  0  0  0  0
    1.7468    2.3109    0.0000 Si  0  0  0  0  0  4  0  0  0  0  0  0
  9  8  2  0
 10  8  1  0
 11  9  1  0
 12 10  2  0
 15 13  2  0
 16 14  1  0
 18 17  3  0
 19  1  1  0
 19 13  1  0
 19 14  2  0
 20 11  2  0
 20 12  1  0
 20 17  1  0
 21 15  1  0
 21 16  2  0
 22  2  1  0
 22  3  1  0
 22  4  1  0
 23  5  1  0
 23  6  1  0
 23  7  1  0
 24 18  1  0
 24 21  1  0
 24 22  1  0
 24 23  1  0
M  END
>  <NAME>  (302) 
2-(PHENYLETHYNYL)-2-(PARA-TOLYL)-HEXAMETHYLTRISILANE

>  <SYNONYMS>  (302) 


>  <SPECTRUM TYPE>  (302) 
MS1

>  <INSTRUMENT TYPE>  (302) 
EI-B

>  <INSTRUMENT>  (302) 
SHIMADZU QP-1000

>  <ION MODE>  (302) 
P

>  <INCHIKEY>  (302) 
KAMAFVFQMVILDR-UHFFFAOYSA-N

>  <FORMULA>  (302) 
C21H30Si3

>  <EXACT MASS>  (302) 
366.16553054999997

>  <MW>  (302) 
366

>  <ID>  (302) 
JP011709

>  <CONTRIBUTOR>  (302) 
University of Tokyo Team, {Faculty of Engineering, University of Tokyo

>  <COMMENT>  (302) 
SMILES=Cc(c2)ccc(c2)[Si](C#Cc(c1)cccc1)([Si](C)(C)C)[Si](C)(C)C
InChI=InChI=1S/C21H30Si3/c1-19-13-15-21(16-14-19)24(22(2,3)4,23(5,6)7)18-17-20-11-9-8-10-12-20/h8-16H,1-7H3
computed SMILES=C(#C[Si](C1=CC=C(C=C1)C)([Si](C)(C)C)[Si](C)(C)C)C=2C=CC=CC2
ionization energy=70 eV
accession=JP011709
date=2016.01.19 (Created 2008.10.21, modified 2011.05.06)
author=FAC. TECHNOLOGY, HIROSHIMA UNIV.
license=CC BY-NC-SA
exact mass=366.16553
ion type=[M]+*
computed spectral entropy=3.675414703709705
computed normalized entropy=0.8363766593594071
SPLASH=splash10-0gi1-3924000000-64a23d0a5393aed14e48
submitter=submitter = University of Tokyo Team (Faculty of Engineering, University of Tokyo)
MoNA Rating=3.75

>  <NUM PEAKS>  (302) 
81

>  <MASS SPECTRAL PEAKS>  (302) 
54 8.5
56 2.8
58 2.8
59 1.4
60 5.6
67 2.8
69 1.4
73 99.99
74 9.2
75 2.8
77 1.4
79 0.7
83 1.4
91 3.5
93 13.4
95 1.4
103 3.5
105 13.4
106 1.4
107 2.8
116 11.3
117 5.6
119 29.6
120 4.2
121 15.5
122 1.4
129 14.1
130 2.1
131 7
133 3.5
135 11.3
136 1.4
143 5.6
145 9.2
146 1.4
147 2.1
149 78.2
150 11.3
151 2.8
159 15.1
160 2.1
161 2.1
175 4.9
177 44.4
178 11.3
179 4.2
187 14.8
188 2.8
189 3.5
190 3.5
191 14.1
192 21.1
193 5.6
202 4.2
207 2.1
208 2.1
211 8.5
217 3.5
231 3.5
234 2.1
235 9.9
236 2.1
265 2.1
275 5.6
276 2.1
277 4.2
291 4.2
292 6.3
293 21.1
294 5.6
295 1.4
307 7
351 50
352 19.7
353 7.7
354 1.4
364 7
366 63.4
367 23.9
368 10.6
369 2.1

>  <PREDICTED SPECTRUM>  (302) 
29 18
31 16
39 8
41 13
43 203
44 11
45 208
46 45
47 10
51 38
53 49
55 87
57 61
58 32
59 251
60 84
61 0
63 43
65 118
69 26
72 20
73 999
74 218
75 200
76 39
77 148
78 42
79 56
85 32
89 48
91 160
92 17
93 147
95 66
99 31
100 4
101 82
102 80
103 134
104 59
105 175
106 60
107 109
114 7
115 126
116 218
117 317
118 104
119 251
120 108
121 175
126 2
127 1
128 13
129 338
130 105
131 256
132 70
133 162
134 117
135 740
136 280
137 97
141 43
143 75
144 19
145 363
146 95
147 103
148 45
149 645
150 324
151 131
152 9
153 12
157 27
159 241
160 99
161 264
162 43
163 35
165 3
167 15
168 0
170 10
171 1
173 72
174 68
175 408
176 237
177 615
178 524
179 242
180 36
187 125
188 62
189 71
190 117
191 524
192 616
193 392
194 123
201 86
202 64
203 55
205 149
206 14
207 82
208 16
209 61
211 122
213 88
215 52
216 100
217 137
218 7
219 115
221 6
231 234
232 78
233 116
234 90
235 280
236 121
237 10
249 3
259 48
261 75
262 24
263 21
274 103
275 113
276 131
277 248
278 85
279 131
289 91
290 65
291 222
292 263
293 370
294 303
295 112
308 11
349 4
351 926
352 555
353 317
354 108
364 13
365 101
366 870
367 534
368 332
369 132

$$$$

     RDKit          2D

 30 33  0  0  0  0  0  0  0  0999 V2000
    8.4133    0.0155    0.0000 C   0  0  0  0  0  0  0  0  0  0  0  0
    7.1139    2.2653    0.0000 C   0  0  0  0  0  0  0  0  0  0  0  0
    5.1851    2.8429    0.0000 C   0  0  0  0  0  0  0  0  0  0  0  0
    6.4018    4.5806    0.0000 C   0  0  0  0  0  0  0  0  0  0  0  0
    4.6642    5.7973    0.0000 C   0  0  0  0  0  0  0  0  0  0  0  0
    5.4801    1.9141    0.0000 C   0  0  0  0  0  0  0  0  0  0  0  0
   -1.9828   -1.4853    0.0000 C   0  0  0  0  0  0  0  0  0  0  0  0
   -1.9828    0.0147    0.0000 C   0  0  0  0  0  0  0  0  0  0  0  0
    0.5544    7.5096    0.0000 C   0  0  0  0  0  0  0  0  0  0  0  0
    2.0316    7.7701    0.0000 C   0  0  0  0  0  0  0  0  0  0  0  0
   -0.6828   -2.2353    0.0000 C   0  0  0  0  0  0  0  0  0  0  0  0
    0.0415    6.0992    0.0000 C   0  0  0  0  0  0  0  0  0  0  0  0
   -0.6828    0.7647    0.0000 C   0  0  0  0  0  0  0  0  0  0  0  0
    2.9959    6.6201    0.0000 C   0  0  0  0  0  0  0  0  0  0  0  0
    1.9172   -2.2353    0.0000 C   0  0  0  0  0  0  0  0  0  0  0  0
    0.4930    3.5387    0.0000 C   0  0  0  0  0  0  0  0  0  0  0  0
    3.2172   -1.4853    0.0000 C   0  0  0  0  0  0  0  0  0  0  0  0
    1.4573    2.3886    0.0000 C   0  0  0  0  0  0  0  0  0  0  0  0
    1.9172    0.7647    0.0000 C   0  0  0  0  0  0  0  0  0  0  0  0
    5.8153    0.0151    0.0000 C   0  0  0  0  0  0  0  0  0  0  0  0
    7.1142    0.7653    0.0000 C   0  0  0  0  0  0  0  0  0  0  0  0
    0.6172   -1.4853    0.0000 C   0  0  0  0  0  0  0  0  0  0  0  0
    1.0059    4.9491    0.0000 C   0  0  0  0  0  0  0  0  0  0  0  0
    0.6172    0.0147    0.0000 C   0  0  0  0  0  0  0  0  0  0  0  0
    3.2172    0.0147    0.0000 C   0  0  0  0  0  0  0  0  0  0  0  0
    2.4831    5.2096    0.0000 C   0  0  0  0  0  0  0  0  0  0  0  0
    2.9346    2.6491    0.0000 C   0  0  0  0  0  0  0  0  0  0  0  0
    3.4474    4.0596    0.0000 C   0  0  0  0  0  0  0  0  0  0  0  0
    4.9246    4.3201    0.0000 Si  0  0  0  0  0  4  0  0  0  0  0  0
    4.5161    0.7649    0.0000 Si  0  0  0  0  0  4  0  0  0  0  0  0
  8  7  2  0
 10  9  2  0
 11  7  1  0
 12  9  1  0
 13  8  1  0
 14 10  1  0
 17 15  2  0
 18 16  2  0
 21  1  1  0
 21  2  1  0
 21 20  1  0
 22 11  2  0
 22 15  1  0
 23 12  2  0
 23 16  1  0
 24 13  2  0
 24 19  1  0
 24 22  1  0
 25 17  1  0
 25 19  2  0
 26 14  2  0
 26 23  1  0
 27 18  1  0
 28 26  1  0
 28 27  2  0
 29  3  1  0
 29  4  1  0
 29  5  1  0
 29 28  1  0
 30  6  1  0
 30 20  1  0
 30 25  1  0
 30 27  1  0
M  END
>  <NAME>  (303) 
2(ISOBUTYLMETHYL(2-NAPHTHYLSILYL))-1-(TRIMETHYLSILYL)NAPHTHALENE

>  <SYNONYMS>  (303) 


>  <SPECTRUM TYPE>  (303) 
MS1

>  <INSTRUMENT TYPE>  (303) 
EI-B

>  <INSTRUMENT>  (303) 
SHIMADZU QP-1000

>  <ION MODE>  (303) 
P

>  <INCHIKEY>  (303) 
NWUOBOGYTBAVIH-UHFFFAOYSA-N

>  <FORMULA>  (303) 
C28H34Si2

>  <EXACT MASS>  (303) 
426.219904148

>  <MW>  (303) 
426

>  <ID>  (303) 
JP011708

>  <CONTRIBUTOR>  (303) 
University of Tokyo Team, {Faculty of Engineering, University of Tokyo

>  <COMMENT>  (303) 
SMILES=C[Si](C)(C)c(c([Si](CC(C)C)(C)c(c4)ccc(c43)cccc3)2)c(c1)c(cc2)ccc1
InChI=InChI=1S/C28H34Si2/c1-21(2)20-30(6,25-17-15-22-11-7-8-13-24(22)19-25)27-18-16-23-12-9-10-14-26(23)28(27)29(3,4)5/h7-19,21H,20H2,1-6H3
computed SMILES=C=1C=CC=2C=C(C=CC2C1)[Si](C=3C=CC=4C=CC=CC4C3[Si](C)(C)C)(C)CC(C)C
accession=JP011708
date=2016.01.19 (Created 2008.10.21, modified 2011.05.06)
author=FAC. TECHNOLOGY, HIROSHIMA UNIV.
license=CC BY-NC-SA
exact mass=426.2199
ionization energy=70 eV
ion type=[M]+*
computed spectral entropy=3.322245753782914
computed normalized entropy=0.7958642883332607
SPLASH=splash10-05fs-2930000000-a2dfadbe8107dee9d8fe
submitter=submitter = University of Tokyo Team (Faculty of Engineering, University of Tokyo)
MoNA Rating=3.75

>  <NUM PEAKS>  (303) 
65

>  <MASS SPECTRAL PEAKS>  (303) 
54 9.6
56 4.3
57 3.2
58 2.1
59 5.3
60 16
68 1.1
69 1.1
71 1.1
73 73.4
74 5.3
75 2.1
76 1.1
77 1.1
83 6.4
97 6.4
98 30.9
99 2.1
103 2.1
105 2.1
115 5.3
127 1.1
128 8.5
129 16
130 2.1
131 3.2
153 3.2
155 99.99
156 14.9
157 5.3
165 2.1
166 1.1
167 23.4
168 8.5
169 37.2
170 47.9
171 74.5
172 12.8
173 2.1
181 3.2
183 9.6
184 71.3
185 76.6
186 14.9
187 3.2
195 1.1
209 1.1
211 11.7
212 1.1
225 4.3
226 54.3
227 14.9
228 3.2
252 2.1
265 1.1
280 1.1
281 1.1
295 1.1
297 67
298 18.1
299 3.2
370 17
371 9.6
372 3.2
426 1

>  <PREDICTED SPECTRUM>  (303) 
27 24
29 22
39 50
41 105
43 126
44 50
45 98
47 53
55 81
57 137
58 46
59 161
60 7
63 5
69 91
70 116
71 37
72 51
73 549
74 86
75 130
76 12
77 44
78 30
82 31
83 86
84 18
85 67
86 26
87 6
89 17
91 43
95 9
96 119
97 85
98 130
99 96
100 15
101 58
102 17
103 99
104 1
105 72
107 10
114 22
115 249
116 22
117 17
121 36
125 9
126 50
127 148
128 110
129 383
130 70
131 95
135 51
137 10
141 55
142 74
143 40
145 14
147 11
150 41
152 61
153 170
154 30
155 759
156 403
157 255
158 0
164 7
165 21
166 59
167 362
168 177
169 638
170 489
171 841
172 225
173 79
174 27
179 25
181 121
182 66
183 166
184 709
185 823
186 262
187 117
193 101
194 60
195 52
197 58
198 2
199 81
200 17
201 28
202 31
203 4
210 11
211 305
212 25
213 154
215 0
225 129
226 650
227 86
237 40
238 84
239 134
240 26
243 18
252 173
261 2
263 10
281 65
283 67
295 65
296 195
297 999
298 594
299 263
300 42
319 77
351 8
354 15
355 15
369 82
370 375
371 291
372 186
426 105
428 5

$$$$

     RDKit          2D

 23 23  0  0  0  0  0  0  0  0999 V2000
    9.6432   -1.3004    0.0000 C   0  0  0  0  0  0  0  0  0  0  0  0
   11.6923   -0.7517    0.0000 C   0  0  0  0  0  0  0  0  0  0  0  0
   11.1436    1.2975    0.0000 C   0  0  0  0  0  0  0  0  0  0  0  0
    2.4137   -3.6134    0.0000 C   0  0  0  0  0  0  0  0  0  0  0  0
    4.5269   -3.7987    0.0000 C   0  0  0  0  0  0  0  0  0  0  0  0
    4.7121   -1.6854    0.0000 C   0  0  0  0  0  0  0  0  0  0  0  0
   10.0588    1.8977    0.0000 C   0  0  0  0  0  0  0  0  0  0  0  0
    8.1305    1.8980    0.0000 C   0  0  0  0  0  0  0  0  0  0  0  0
    1.6346   -2.6491    0.0000 C   0  0  0  0  0  0  0  0  0  0  0  0
   -1.3000    0.7500    0.0000 C   0  0  0  0  0  0  0  0  0  0  0  0
    0.0000    1.5000    0.0000 C   0  0  0  0  0  0  0  0  0  0  0  0
   -1.3000   -0.7500    0.0000 C   0  0  0  0  0  0  0  0  0  0  0  0
    6.4964    0.7492    0.0000 C   0  0  0  0  0  0  0  0  0  0  0  0
    5.1972   -0.0006    0.0000 C   0  0  0  0  0  0  0  0  0  0  0  0
    1.3000    0.7500    0.0000 C   0  0  0  0  0  0  0  0  0  0  0  0
    0.0000   -1.5000    0.0000 C   0  0  0  0  0  0  0  0  0  0  0  0
    7.7953   -0.0010    0.0000 C   0  0  0  0  0  0  0  0  0  0  0  0
    3.8981   -0.7504    0.0000 C   0  0  0  0  0  0  0  0  0  0  0  0
    1.3000   -0.7500    0.0000 C   0  0  0  0  0  0  0  0  0  0  0  0
   10.3934   -0.0015    0.0000 Si  0  0  0  0  0  4  0  0  0  0  0  0
    3.5629   -2.6494    0.0000 Si  0  0  0  0  0  4  0  0  0  0  0  0
    9.0945    0.7488    0.0000 Si  0  0  0  0  0  4  0  0  0  0  0  0
    2.5989   -1.5002    0.0000 Si  0  0  0  0  0  4  0  0  0  0  0  0
 11 10  2  0
 12 10  1  0
 14 13  1  0
 15 11  1  0
 16 12  2  0
 13 17  2  0
 18 14  3  0
 19 15  2  0
 19 16  1  0
 20  1  1  0
 20  2  1  0
 20  3  1  0
 21  4  1  0
 21  5  1  0
 21  6  1  0
 22  7  1  0
 22  8  1  0
 22 17  1  0
 22 20  1  0
 23  9  1  0
 23 18  1  0
 23 19  1  0
 23 21  1  0
M  END
>  <NAME>  (304) 
1-(PENTAMETHYLDISILANYL)-4-(1-PHENYLTETRAMETHYLDISILANYL)BUT-1-EN-3-YNE

>  <SYNONYMS>  (304) 


>  <SPECTRUM TYPE>  (304) 
MS1

>  <INSTRUMENT TYPE>  (304) 
EI-B

>  <INSTRUMENT>  (304) 
SHIMADZU QP-1000

>  <ION MODE>  (304) 
P

>  <INCHIKEY>  (304) 
FHHYPLJAVCZASC-GHRIWEEISA-N

>  <FORMULA>  (304) 
C19H34Si4

>  <EXACT MASS>  (304) 
374.173757208

>  <MW>  (304) 
374

>  <ID>  (304) 
JP011706

>  <CONTRIBUTOR>  (304) 
University of Tokyo Team, {Faculty of Engineering, University of Tokyo

>  <COMMENT>  (304) 
SMILES=c(c1)ccc(c1)[Si](C)(C#CC=C[Si](C)(C)[Si](C)(C)C)[Si](C)(C)C
InChI=InChI=1S/C19H34Si4/c1-20(2,3)22(7,8)17-13-14-18-23(9,21(4,5)6)19-15-11-10-12-16-19/h10-13,15-17H,1-9H3/b17-13+
computed SMILES=C(#C[Si](C=1C=CC=CC1)(C)[Si](C)(C)C)C=C[Si](C)(C)[Si](C)(C)C
accession=JP011706
date=2016.01.19 (Created 2008.10.21, modified 2011.05.06)
author=FAC. TECHNOLOGY, HIROSHIMA UNIV.
license=CC BY-NC-SA
exact mass=374.17376
ionization energy=70 eV
ion type=[M]+*
computed spectral entropy=2.684235135206212
computed normalized entropy=0.7051413521476051
SPLASH=splash10-00di-9711000000-23dafdadf64e71ea7b53
submitter=submitter = University of Tokyo Team (Faculty of Engineering, University of Tokyo)
MoNA Rating=3.75

>  <NUM PEAKS>  (304) 
45

>  <MASS SPECTRAL PEAKS>  (304) 
54 1.1
58 1.1
59 1.1
60 6.3
73 99.99
74 8.4
75 3.2
83 3.2
97 3.2
105 5.3
107 3.2
116 3.2
121 2.1
125 1.1
127 4.2
129 5.3
131 3.2
135 45.3
136 5.3
137 1.1
141 3.2
143 1.1
145 4.2
151 1.1
155 5.3
159 4.2
163 3.2
175 1.1
177 2.1
187 1.1
189 1.1
191 1.1
203 1.1
209 2.1
213 3.2
217 3.2
227 4.2
239 4.2
271 1.1
286 1.1
301 7.6
302 2.5
303 1.1
359 3.4
360 1.3

>  <PREDICTED SPECTRUM>  (304) 
28 11
29 25
43 26
45 65
46 9
53 1
55 11
59 172
67 16
69 44
72 9
73 999
74 216
75 87
77 28
78 12
83 41
85 9
91 42
92 24
93 38
95 12
97 33
99 23
105 172
106 11
107 95
109 48
111 31
113 27
114 1
115 269
116 91
117 42
119 53
121 84
125 61
126 1
129 296
131 293
134 13
135 818
136 248
137 133
139 3
140 28
141 78
142 34
143 45
145 148
147 43
151 76
152 45
153 81
154 32
155 143
157 0
163 37
165 43
166 10
167 52
168 7
169 95
170 35
171 73
175 108
177 44
181 62
183 27
185 20
189 35
193 22
209 106
211 49
213 53
223 31
224 66
226 3
227 150
239 210
241 24
243 148
244 63
271 136
286 117
300 6
301 359
302 163
303 67
359 214
360 93
361 13
373 25
374 4
375 16
376 62

$$$$

     RDKit          2D

 14 15  0  0  0  0  0  0  0  0999 V2000
    4.6491    0.2013    0.0000 C   0  0  0  0  0  0  0  0  0  0  0  0
    5.1978    2.2504    0.0000 C   0  0  0  0  0  0  0  0  0  0  0  0
   -2.6000   -0.7500    0.0000 C   0  0  0  0  0  0  0  0  0  0  0  0
   -2.6000    0.7500    0.0000 C   0  0  0  0  0  0  0  0  0  0  0  0
   -1.3000   -1.5000    0.0000 C   0  0  0  0  0  0  0  0  0  0  0  0
   -1.3000    1.5000    0.0000 C   0  0  0  0  0  0  0  0  0  0  0  0
    1.3000   -1.5000    0.0000 C   0  0  0  0  0  0  0  0  0  0  0  0
    2.6000   -0.7500    0.0000 C   0  0  0  0  0  0  0  0  0  0  0  0
    1.3000    1.5000    0.0000 C   0  0  0  0  0  0  0  0  0  0  0  0
    0.0000   -0.7500    0.0000 C   0  0  0  0  0  0  0  0  0  0  0  0
    0.0000    0.7500    0.0000 C   0  0  0  0  0  0  0  0  0  0  0  0
    2.6000    0.7500    0.0000 C   0  0  0  0  0  0  0  0  0  0  0  0
    3.1487    2.7991    0.0000 Cl  0  0  0  0  0  0  0  0  0  0  0  0
    3.8989    1.5002    0.0000 Si  0  0  0  0  0  4  0  0  0  0  0  0
  4  3  2  0
  5  3  1  0
  6  4  1  0
  8  7  2  0
 10  5  2  0
 10  7  1  0
 11  6  2  0
 11  9  1  0
 11 10  1  0
 12  8  1  0
 12  9  2  0
 14  1  1  0
 14  2  1  0
 14 12  1  0
 14 13  1  0
M  END
>  <NAME>  (305) 
CHLORODIMETHYL(2-NAPHTHYL)SILANE

>  <SYNONYMS>  (305) 


>  <SPECTRUM TYPE>  (305) 
MS1

>  <INSTRUMENT TYPE>  (305) 
EI-B

>  <INSTRUMENT>  (305) 
SHIMADZU QP-1000

>  <ION MODE>  (305) 
P

>  <INCHIKEY>  (305) 
URILQKXUGKSUFB-UHFFFAOYSA-N

>  <FORMULA>  (305) 
C12H13ClSi

>  <EXACT MASS>  (305) 
220.04750462599998

>  <MW>  (305) 
220

>  <ID>  (305) 
JP011704

>  <CONTRIBUTOR>  (305) 
University of Tokyo Team, {Faculty of Engineering, University of Tokyo

>  <COMMENT>  (305) 
SMILES=c(c2)cc(c1)c(c2)cc(c1)[Si](C)(C)Cl
InChI=InChI=1S/C12H13ClSi/c1-14(2,13)12-8-7-10-5-3-4-6-11(10)9-12/h3-9H,1-2H3
computed SMILES=Cl[Si](C=1C=CC=2C=CC=CC2C1)(C)C
accession=JP011704
date=2016.01.19 (Created 2008.10.21, modified 2011.05.06)
author=FAC. TECHNOLOGY, HIROSHIMA UNIV.
license=CC BY-NC-SA
exact mass=220.0475
ionization energy=70 eV
ion type=[M]+*
computed spectral entropy=3.4919608582706894
computed normalized entropy=0.846098171875384
SPLASH=splash10-066r-7950000000-d60d21059ae09b785fce
submitter=submitter = University of Tokyo Team (Faculty of Engineering, University of Tokyo)
MoNA Rating=3.75

>  <NUM PEAKS>  (305) 
62

>  <MASS SPECTRAL PEAKS>  (305) 
51 5.3
52 11.6
53 14.7
54 12.6
63 84.2
64 7.4
65 41.1
66 2.1
67 5.3
74 6.3
75 11.6
76 7.4
77 24.2
78 7.4
79 5.3
87 2.1
89 5.3
91 5.3
92 2.1
93 15.8
94 1.1
95 5.3
100 1.1
101 8.4
102 22.1
103 11.6
105 1.1
109 1.1
110 1.1
113 1.1
115 59
116 5.3
117 1.1
126 14.7
127 18.9
128 10.5
129 7.4
139 9.5
140 2.1
141 49.5
142 8.4
143 4.2
153 3.2
154 3.2
155 10.5
156 1.1
167 28.4
168 6.3
169 44.2
170 7.4
171 2.1
183 2.1
185 5.3
189 8.4
191 2.1
205 99.99
206 16.8
207 35.8
208 5.3
220 30.5
221 4.2
222 9.5

>  <PREDICTED SPECTRUM>  (305) 
15 3
33 7
34 1
35 7
36 28
37 8
38 92
39 242
40 96
41 104
42 68
43 81
44 36
45 108
47 98
49 52
50 182
51 303
52 176
53 166
54 64
55 45
57 47
58 17
61 61
62 160
63 380
64 235
65 346
66 142
67 155
68 7
69 112
72 6
73 116
74 136
75 248
76 205
77 376
78 240
79 194
80 42
81 24
82 49
83 17
84 10
85 116
86 72
87 57
88 81
89 237
90 136
91 319
92 166
93 363
94 91
95 185
96 41
97 7
98 12
99 83
100 70
101 188
102 230
103 160
104 50
105 61
107 73
109 21
111 32
113 213
114 209
115 620
116 257
117 181
118 5
119 43
120 3
121 2
123 14
125 95
126 233
127 423
128 451
129 414
130 22
131 9
136 8
137 15
139 298
140 173
141 622
142 318
143 203
144 51
145 34
152 40
153 52
154 194
155 273
156 49
157 10
165 26
167 400
168 119
169 697
170 257
171 80
177 12
183 64
184 13
185 70
186 0
189 149
191 55
193 46
203 75
204 37
205 999
206 411
207 568
208 221
219 45
220 519
221 211
222 276
223 82

$$$$

     RDKit          2D

 24 26  0  0  0  0  0  0  0  0999 V2000
    8.1196   -4.3149    0.0000 C   0  0  0  0  0  0  0  0  0  0  0  0
   -0.9758    0.9382    0.0000 C   0  0  0  0  0  0  0  0  0  0  0  0
    8.1191   -5.8158    0.0000 C   0  0  0  0  0  0  0  0  0  0  0  0
    6.8205   -3.5649    0.0000 C   0  0  0  0  0  0  0  0  0  0  0  0
    0.3238    0.1873    0.0000 C   0  0  0  0  0  0  0  0  0  0  0  0
   -2.2748    0.1882    0.0000 C   0  0  0  0  0  0  0  0  0  0  0  0
    6.8196   -6.5666    0.0000 C   0  0  0  0  0  0  0  0  0  0  0  0
    5.5210   -4.3158    0.0000 C   0  0  0  0  0  0  0  0  0  0  0  0
    0.3242   -1.3135    0.0000 C   0  0  0  0  0  0  0  0  0  0  0  0
   -2.2743   -1.3127    0.0000 C   0  0  0  0  0  0  0  0  0  0  0  0
    1.6232   -6.5658    0.0000 C   0  0  0  0  0  0  0  0  0  0  0  0
    2.9224   -4.3154    0.0000 C   0  0  0  0  0  0  0  0  0  0  0  0
    0.3239   -5.8145    0.0000 C   0  0  0  0  0  0  0  0  0  0  0  0
    1.6232   -3.5641    0.0000 C   0  0  0  0  0  0  0  0  0  0  0  0
    4.2211   -8.0664    0.0000 C   0  0  0  0  0  0  0  0  0  0  0  0
   -2.2742   -4.3133    0.0000 C   0  0  0  0  0  0  0  0  0  0  0  0
    5.5205   -5.8166    0.0000 C   0  0  0  0  0  0  0  0  0  0  0  0
   -0.9748   -2.0635    0.0000 C   0  0  0  0  0  0  0  0  0  0  0  0
    2.9224   -5.8162    0.0000 C   0  0  0  0  0  0  0  0  0  0  0  0
    0.3239   -4.3137    0.0000 C   0  0  0  0  0  0  0  0  0  0  0  0
    2.9220   -8.8162    0.0000 Cl  0  0  0  0  0  0  0  0  0  0  0  0
   -3.5731   -3.5631    0.0000 Cl  0  0  0  0  0  0  0  0  0  0  0  0
    4.2214   -6.5664    0.0000 Si  0  0  0  0  0  4  0  0  0  0  0  0
   -0.9750   -3.5635    0.0000 Si  0  0  0  0  0  4  0  0  0  0  0  0
  3  1  2  0
  4  1  1  0
  5  2  2  0
  6  2  1  0
  7  3  1  0
  8  4  2  0
  9  5  1  0
 10  6  2  0
 13 11  2  0
 14 12  1  0
 17  7  2  0
 17  8  1  0
 18  9  2  0
 18 10  1  0
 19 11  1  0
 19 12  2  0
 20 13  1  0
 20 14  2  0
 21 15  1  0
 22 16  1  0
 23 15  1  0
 23 17  1  0
 23 19  1  0
 24 16  1  0
 24 18  1  0
 24 20  1  0
M  END
>  <NAME>  (306) 
1,4-BIS(CHLOROMETHYLPHENYLSILYL)BENZENE

>  <SYNONYMS>  (306) 


>  <SPECTRUM TYPE>  (306) 
MS1

>  <INSTRUMENT TYPE>  (306) 
EI-B

>  <INSTRUMENT>  (306) 
SHIMADZU QP-1000

>  <ION MODE>  (306) 
P

>  <INCHIKEY>  (306) 
FKOCKWJYGCCZDI-UHFFFAOYSA-N

>  <FORMULA>  (306) 
C20H20Cl2Si2

>  <EXACT MASS>  (306) 
386.04805906

>  <MW>  (306) 
386

>  <ID>  (306) 
JP011703

>  <CONTRIBUTOR>  (306) 
University of Tokyo Team, {Faculty of Engineering, University of Tokyo

>  <COMMENT>  (306) 
SMILES=ClC[SiH](c(c3)cccc3)c(c2)ccc(c2)[SiH](CCl)c(c1)cccc1
InChI=InChI=1S/C20H20Cl2Si2/c21-15-23(17-7-3-1-4-8-17)19-11-13-20(14-12-19)24(16-22)18-9-5-2-6-10-18/h1-14,23-24H,15-16H2
computed SMILES=ClC[SiH](C=1C=CC=CC1)C2=CC=C(C=C2)[SiH](C=3C=CC=CC3)CCl
accession=JP011703
date=2016.01.19 (Created 2008.10.21, modified 2011.05.06)
author=FAC. TECHNOLOGY, HIROSHIMA UNIV.
license=CC BY-NC-SA
exact mass=386.04806
ionization energy=70 eV
ion type=[M]+*
computed spectral entropy=3.2650122945705835
computed normalized entropy=0.8007314070041135
SPLASH=splash10-0229-9305000000-5bca0e87ca43e28d2639
submitter=submitter = University of Tokyo Team (Faculty of Engineering, University of Tokyo)
MoNA Rating=3.75

>  <NUM PEAKS>  (306) 
59

>  <MASS SPECTRAL PEAKS>  (306) 
51 24.2
52 5.3
53 16.8
62 6.3
63 99.99
64 6.3
65 40
66 3.2
67 3.2
74 1.1
75 1.1
76 3.2
77 14.7
78 11.6
79 8.4
80 1.1
81 1.1
91 47.4
92 3.2
93 6.3
103 8.4
104 2.1
105 14.7
106 1.1
113 1.1
115 2.1
117 1.1
119 7.4
120 1.1
121 1.1
129 3.2
139 1.1
141 1.1
142 2.1
152 3.2
153 1.1
155 22.1
156 3.2
157 6.3
165 3.2
175 1.1
178 3.2
179 2.1
180 1.1
181 3.2
195 3.2
196 1.1
273 1.1
371 59
372 18.9
373 46.3
374 12.6
375 10.5
376 2.1
386 18.9
387 5.3
388 13.7
389 4.2
390 3.2

>  <PREDICTED SPECTRUM>  (306) 
14 18
15 77
26 78
27 240
28 213
29 339
38 53
39 344
40 42
41 487
42 129
43 331
44 15
45 256
49 115
50 362
51 667
52 416
53 616
54 115
55 411
56 202
57 354
60 71
61 165
62 164
63 503
64 84
65 358
66 282
67 299
68 50
69 286
73 116
74 179
75 184
76 209
77 533
78 868
79 631
80 157
81 218
82 171
83 55
84 100
85 82
86 5
89 177
90 166
91 392
92 266
93 534
94 301
95 414
97 147
101 72
102 179
103 132
105 480
106 456
107 439
108 37
110 36
111 35
112 56
113 75
115 108
116 183
117 14
118 10
119 370
120 139
121 156
122 94
123 37
125 178
126 174
127 169
128 172
129 158
130 16
131 143
133 27
134 182
135 457
137 111
139 105
141 298
142 113
143 46
145 325
146 75
147 343
148 81
149 0
151 66
152 168
153 223
154 308
155 660
156 372
157 412
158 53
159 116
161 145
162 140
163 8
165 144
166 189
167 27
168 112
169 157
170 34
171 255
172 58
173 551
174 325
175 94
180 92
181 727
182 267
183 390
184 418
185 611
186 414
187 305
188 71
189 277
190 55
194 63
195 82
197 999
199 170
200 47
201 320
202 272
203 321
204 14
205 15
209 326
210 255
211 297
212 306
214 20
215 392
216 208
217 26
223 236
229 358
230 251
231 817
232 323
233 221
235 135
238 160
243 221
245 191
247 224
257 350
258 12
259 20
261 62
263 225
265 345
266 41
267 114
271 66
273 126
274 288
275 298
281 355
283 212
285 26
292 57
293 508
294 286
308 870
309 945
310 908
311 425
312 531
313 0
314 81
353 201
385 96
386 876
387 667
388 715
389 440
390 292
391 88

$$$$

     RDKit          2D

 28 29  0  0  0  0  0  0  0  0999 V2000
    3.1197   -9.6561    0.0000 C   0  0  0  0  0  0  0  0  0  0  0  0
   11.6923   -0.7517    0.0000 C   0  0  0  0  0  0  0  0  0  0  0  0
    0.8031   -3.1290    0.0000 C   0  0  0  0  0  0  0  0  0  0  0  0
    4.8624    0.3985    0.0000 C   0  0  0  0  0  0  0  0  0  0  0  0
    3.6329   -8.2467    0.0000 C   0  0  0  0  0  0  0  0  0  0  0  0
   10.3931   -1.5015    0.0000 C   0  0  0  0  0  0  0  0  0  0  0  0
    2.6689   -7.0974    0.0000 C   0  0  0  0  0  0  0  0  0  0  0  0
    9.0942   -0.7512    0.0000 C   0  0  0  0  0  0  0  0  0  0  0  0
    3.1822   -5.6880    0.0000 C   0  0  0  0  0  0  0  0  0  0  0  0
    7.7951   -1.5010    0.0000 C   0  0  0  0  0  0  0  0  0  0  0  0
   -2.1315    0.2701    0.0000 C   0  0  0  0  0  0  0  0  0  0  0  0
    1.0039    2.6976    0.0000 C   0  0  0  0  0  0  0  0  0  0  0  0
   -0.8315    1.0201    0.0000 C   0  0  0  0  0  0  0  0  0  0  0  0
   -2.1315   -1.2299    0.0000 C   0  0  0  0  0  0  0  0  0  0  0  0
    2.4820    2.9577    0.0000 C   0  0  0  0  0  0  0  0  0  0  0  0
    0.4909    1.2881    0.0000 C   0  0  0  0  0  0  0  0  0  0  0  0
    2.2182   -4.5388    0.0000 C   0  0  0  0  0  0  0  0  0  0  0  0
    6.4962   -0.7508    0.0000 C   0  0  0  0  0  0  0  0  0  0  0  0
    0.4685    0.2701    0.0000 C   0  0  0  0  0  0  0  0  0  0  0  0
   -0.8315   -1.9799    0.0000 C   0  0  0  0  0  0  0  0  0  0  0  0
    3.4471    1.8083    0.0000 C   0  0  0  0  0  0  0  0  0  0  0  0
    1.4560    0.1387    0.0000 C   0  0  0  0  0  0  0  0  0  0  0  0
    2.7315   -3.1293    0.0000 C   0  0  0  0  0  0  0  0  0  0  0  0
    5.1970   -1.5006    0.0000 C   0  0  0  0  0  0  0  0  0  0  0  0
    0.4685   -1.2299    0.0000 C   0  0  0  0  0  0  0  0  0  0  0  0
    2.9341    0.3988    0.0000 C   0  0  0  0  0  0  0  0  0  0  0  0
    1.7675   -1.9801    0.0000 Si  0  0  0  0  0  4  0  0  0  0  0  0
    3.8981   -0.7504    0.0000 Si  0  0  0  0  0  4  0  0  0  0  0  0
  5  1  1  0
  6  2  1  0
  7  5  1  0
  8  6  1  0
  9  7  1  0
 10  8  1  0
 13 11  2  0
 14 11  1  0
 15 12  2  0
 16 12  1  0
 17  9  1  0
 18 10  1  0
 19 13  1  0
 20 14  2  0
 21 15  1  0
 22 16  2  0
 23 17  1  0
 24 18  1  0
 25 19  2  0
 25 20  1  0
 26 21  2  0
 26 22  1  0
 27  3  1  0
 27 23  1  0
 27 25  1  0
 28  4  1  0
 28 24  1  0
 28 26  1  0
 28 27  1  0
M  END
>  <NAME>  (307) 
1,2-DI(N-HEXYL)-1,2-DIMETHYLDIPHENYLDISILANE

>  <SYNONYMS>  (307) 


>  <SPECTRUM TYPE>  (307) 
MS1

>  <INSTRUMENT TYPE>  (307) 
EI-B

>  <INSTRUMENT>  (307) 
SHIMADZU QP-1000

>  <ION MODE>  (307) 
P

>  <INCHIKEY>  (307) 
BZEWXEKVKZOJLE-UHFFFAOYSA-N

>  <FORMULA>  (307) 
C26H42Si2

>  <EXACT MASS>  (307) 
410.28250440399995

>  <MW>  (307) 
410

>  <ID>  (307) 
JP011702

>  <CONTRIBUTOR>  (307) 
University of Tokyo Team, {Faculty of Engineering, University of Tokyo

>  <COMMENT>  (307) 
SMILES=c(c1[Si](C)([Si](C)(CCCCCC)c(c2)cccc2)CCCCCC)cccc1
InChI=InChI=1S/C26H42Si2/c1-5-7-9-17-23-27(3,25-19-13-11-14-20-25)28(4,24-18-10-8-6-2)26-21-15-12-16-22-26/h11-16,19-22H,5-10,17-18,23-24H2,1-4H3
computed SMILES=C=1C=CC(=CC1)[Si](C)(CCCCCC)[Si](C=2C=CC=CC2)(C)CCCCCC
accession=JP011702
date=2016.01.19 (Created 2008.10.21, modified 2011.05.06)
author=FAC. TECHNOLOGY, HIROSHIMA UNIV.
license=CC BY-NC-SA
exact mass=410.2825
ionization energy=70 eV
ion type=[M]+*
computed spectral entropy=1.9226076972178612
computed normalized entropy=0.66517661334239
SPLASH=splash10-00di-0910000000-5635318cc75692e52455
submitter=submitter = University of Tokyo Team (Faculty of Engineering, University of Tokyo)
MoNA Rating=3.75

>  <NUM PEAKS>  (307) 
18

>  <MASS SPECTRAL PEAKS>  (307) 
55 1.1
59 1.1
105 15.8
106 1.1
107 2.1
119 3.2
120 4.2
121 99.99
122 17.9
123 5.3
135 6.3
183 2.1
197 3.2
205 23.2
206 3.2
241 2.1
410 10.5
411 3.2

>  <PREDICTED SPECTRUM>  (307) 
28 19
29 16
41 21
43 122
44 71
45 27
46 19
55 39
57 24
59 101
71 75
72 28
73 52
74 28
75 38
78 41
91 155
93 13
95 65
103 4
104 84
105 175
106 59
107 51
115 60
117 57
118 20
119 167
120 164
121 999
122 374
123 134
131 2
134 9
135 210
136 25
144 5
145 33
146 4
159 15
160 13
171 3
177 33
178 30
190 42
204 26
205 325
206 123
207 44
395 14
410 302
411 122
412 31

$$$$

     RDKit          2D

 20 21  0  0  0  0  0  0  0  0999 V2000
    7.7953   -0.0010    0.0000 C   0  0  0  0  0  0  0  0  0  0  0  0
    1.6346   -2.6491    0.0000 C   0  0  0  0  0  0  0  0  0  0  0  0
    9.3895    4.1981    0.0000 C   0  0  0  0  0  0  0  0  0  0  0  0
   -1.3000    0.7500    0.0000 C   0  0  0  0  0  0  0  0  0  0  0  0
    9.9023    2.7876    0.0000 C   0  0  0  0  0  0  0  0  0  0  0  0
    7.9122    4.4586    0.0000 C   0  0  0  0  0  0  0  0  0  0  0  0
    0.0000    1.5000    0.0000 C   0  0  0  0  0  0  0  0  0  0  0  0
   -1.3000   -0.7500    0.0000 C   0  0  0  0  0  0  0  0  0  0  0  0
    8.9380    1.6376    0.0000 C   0  0  0  0  0  0  0  0  0  0  0  0
    6.9479    3.3086    0.0000 C   0  0  0  0  0  0  0  0  0  0  0  0
    1.3000    0.7500    0.0000 C   0  0  0  0  0  0  0  0  0  0  0  0
    0.0000   -1.5000    0.0000 C   0  0  0  0  0  0  0  0  0  0  0  0
    5.1972   -0.0006    0.0000 C   0  0  0  0  0  0  0  0  0  0  0  0
    3.8981   -0.7504    0.0000 C   0  0  0  0  0  0  0  0  0  0  0  0
    7.4608    1.8981    0.0000 C   0  0  0  0  0  0  0  0  0  0  0  0
    1.3000   -0.7500    0.0000 C   0  0  0  0  0  0  0  0  0  0  0  0
    5.5324    1.8984    0.0000 Cl  0  0  0  0  0  0  0  0  0  0  0  0
    3.5629   -2.6494    0.0000 Cl  0  0  0  0  0  0  0  0  0  0  0  0
    6.4964    0.7492    0.0000 Si  0  0  0  0  0  4  0  0  0  0  0  0
    2.5989   -1.5002    0.0000 Si  0  0  0  0  0  4  0  0  0  0  0  0
  5  3  2  0
  6  3  1  0
  7  4  2  0
  8  4  1  0
  9  5  1  0
 10  6  2  0
 11  7  1  0
 12  8  2  0
 14 13  3  0
 15  9  2  0
 15 10  1  0
 16 11  2  0
 16 12  1  0
 19  1  1  0
 19 13  1  0
 19 15  1  0
 19 17  1  0
 20  2  1  0
 20 14  1  0
 20 16  1  0
 20 18  1  0
M  END
>  <NAME>  (308) 
BIS(CHLOROMETHYLPHENYLSILYL)ACETYLENE

>  <SYNONYMS>  (308) 


>  <SPECTRUM TYPE>  (308) 
MS1

>  <INSTRUMENT TYPE>  (308) 
EI-B

>  <INSTRUMENT>  (308) 
SHIMADZU QP-1000

>  <ION MODE>  (308) 
P

>  <INCHIKEY>  (308) 
ZTFMCSPBSBCTFO-UHFFFAOYSA-N

>  <FORMULA>  (308) 
C16H16Cl2Si2

>  <EXACT MASS>  (308) 
334.016758932

>  <MW>  (308) 
334

>  <ID>  (308) 
JP011701

>  <CONTRIBUTOR>  (308) 
University of Tokyo Team, {Faculty of Engineering, University of Tokyo

>  <COMMENT>  (308) 
SMILES=c(c2)ccc(c2)[Si](C)(Cl)C#C[Si](C)(Cl)c(c1)cccc1
InChI=InChI=1S/C16H16Cl2Si2/c1-19(17,15-9-5-3-6-10-15)13-14-20(2,18)16-11-7-4-8-12-16/h3-12H,1-2H3
computed SMILES=Cl[Si](C#C[Si](Cl)(C=1C=CC=CC1)C)(C=2C=CC=CC2)C
license=CC BY-NC-SA
exact mass=334.01676
accession=JP011701
date=2016.01.19 (Created 2008.10.21, modified 2011.05.06)
author=FAC. TECHNOLOGY, HIROSHIMA UNIV.
ionization energy=70 eV
ion type=[M]+*
computed spectral entropy=3.5524401547821265
computed normalized entropy=0.8228025327144309
SPLASH=splash10-0hb9-9531000000-8f38973d2c35666b140f
submitter=submitter = University of Tokyo Team (Faculty of Engineering, University of Tokyo)
MoNA Rating=3.75

>  <NUM PEAKS>  (308) 
75

>  <MASS SPECTRAL PEAKS>  (308) 
51 10.6
52 34
53 39.4
54 24.5
55 1.1
56 2.1
63 79.8
65 39.4
66 6.4
67 8.5
74 1.1
75 2.1
76 2.1
77 27.7
78 11.7
79 8.5
80 3.2
89 5.3
91 44.7
92 4.3
93 6.4
101 1.1
102 2.1
103 13.8
104 3.2
105 31.9
106 3.2
107 1.1
113 3.2
115 10.6
116 2.1
117 6.4
119 8.5
120 3.2
129 42.3
130 5.3
131 5.3
135 2.1
139 2.1
140 1.1
141 2.1
142 3.2
143 11.7
144 3.2
145 1.1
152 3.2
153 3.2
155 14.9
156 1.1
157 4.3
159 6.4
165 3.2
167 1.1
175 1.1
177 1.1
178 3.2
179 11.7
180 2.1
181 6.4
195 2.1
205 3.2
217 2.1
219 2.1
221 99.99
222 21.3
223 5.3
241 5.3
243 2.1
319 16
320 4.3
321 11.7
322 2.1
323 2.1
334 4.3
336 3.2

>  <PREDICTED SPECTRUM>  (308) 
15 15
26 80
27 71
28 39
29 50
36 16
37 27
38 70
39 218
40 47
41 38
43 40
44 9
45 14
47 43
49 46
50 187
51 400
52 226
53 320
54 113
55 44
57 82
61 44
62 91
63 464
64 217
65 459
66 258
67 204
69 7
73 60
74 117
75 169
76 102
77 443
78 469
79 341
80 121
81 32
83 18
85 79
87 6
89 205
90 108
91 865
92 328
93 188
95 82
97 8
101 76
102 146
103 308
104 70
105 489
106 140
107 53
109 52
113 111
115 449
116 134
117 191
118 36
119 193
121 105
123 52
125 38
127 29
128 132
129 586
130 187
131 223
135 122
137 51
139 50
140 8
141 120
142 85
143 287
144 32
145 55
150 26
151 124
152 96
153 54
154 28
155 359
156 156
157 168
158 51
159 226
160 43
161 14
163 1
165 146
167 89
168 4
169 2
174 11
177 149
178 59
179 233
180 90
181 202
183 4
184 40
185 29
186 63
187 5
193 76
194 46
195 109
200 54
201 122
203 124
204 55
205 186
206 23
207 138
217 116
219 165
220 106
221 999
222 465
223 290
227 6
231 45
241 194
243 117
256 164
258 54
299 23
319 363
320 139
321 272
322 49
323 29
334 175
335 77
336 133

$$$$

     RDKit          2D

 10  9  0  0  0  0  0  0  0  0999 V2000
    1.9486    2.6250    0.0000 C   0  0  0  0  0  0  0  0  0  0  0  0
   -4.5466    3.3750    0.0000 C   0  0  0  0  0  0  0  0  0  0  0  0
   -1.6137    1.4759    0.0000 C   0  0  0  0  0  0  0  0  0  0  0  0
   -0.9844    4.5241    0.0000 C   0  0  0  0  0  0  0  0  0  0  0  0
    0.6495    3.3750    0.0000 C   0  0  0  0  0  0  0  0  0  0  0  0
   -3.2476    2.6250    0.0000 C   0  0  0  0  0  0  0  0  0  0  0  0
    0.3147    1.4759    0.0000 Cl  0  0  0  0  0  0  0  0  0  0  0  0
   -2.9127    4.5241    0.0000 Cl  0  0  0  0  0  0  0  0  0  0  0  0
   -0.6495    2.6250    0.0000 Si  0  0  0  0  0  4  0  0  0  0  0  0
   -1.9486    3.3750    0.0000 Si  0  0  0  0  0  4  0  0  0  0  0  0
  5  1  1  0
  6  2  1  0
  9  3  1  0
  9  5  1  0
  9  7  1  0
 10  4  1  0
 10  6  1  0
 10  8  1  0
 10  9  1  0
M  END
>  <NAME>  (309) 
1,2-DICHLORO-1,2-DIETHYL-1,2-DIMETHYLDISILANE

>  <SYNONYMS>  (309) 


>  <SPECTRUM TYPE>  (309) 
MS1

>  <INSTRUMENT TYPE>  (309) 
EI-B

>  <INSTRUMENT>  (309) 
SHIMADZU QP-1000

>  <ION MODE>  (309) 
P

>  <INCHIKEY>  (309) 
SHNKFHWZADNPMU-UHFFFAOYSA-N

>  <FORMULA>  (309) 
C6H16Cl2Si2

>  <EXACT MASS>  (309) 
214.016758932

>  <MW>  (309) 
214

>  <ID>  (309) 
JP011700

>  <CONTRIBUTOR>  (309) 
University of Tokyo Team, {Faculty of Engineering, University of Tokyo

>  <COMMENT>  (309) 
SMILES=CC[Si](C)(Cl)[Si](C)(Cl)CC
InChI=InChI=1S/C6H16Cl2Si2/c1-5-9(3,7)10(4,8)6-2/h5-6H2,1-4H3
computed SMILES=Cl[Si](C)(CC)[Si](Cl)(C)CC
accession=JP011700
date=2016.01.19 (Created 2008.10.21, modified 2011.05.06)
author=FAC. TECHNOLOGY, HIROSHIMA UNIV.
license=CC BY-NC-SA
exact mass=214.01676
ionization energy=70 eV
ion type=[M]+*
computed spectral entropy=2.6819643366993353
computed normalized entropy=0.7670409085500405
SPLASH=splash10-00di-9200000000-fcf4f5923d6800e759e2
submitter=submitter = University of Tokyo Team (Faculty of Engineering, University of Tokyo)
MoNA Rating=3.75

>  <NUM PEAKS>  (309) 
33

>  <MASS SPECTRAL PEAKS>  (309) 
56 3.2
58 4.2
59 3.2
60 27.4
61 1.1
62 3.2
63 12.6
65 5.3
70 4.2
71 4.2
72 99.99
73 16.8
74 3.2
78 4.2
79 44.2
80 3.2
81 15.8
87 18.9
88 1.1
89 2.1
93 3.2
101 2.1
106 8.4
107 30.5
108 5.3
109 9.5
151 2.1
157 1.1
179 5.3
181 3.2
185 1.1
214 1.8
216 1.2

>  <PREDICTED SPECTRUM>  (309) 
36 21
42 78
43 40
47 148
49 152
51 42
53 62
54 76
55 76
56 205
57 337
58 320
59 502
60 209
61 98
63 592
64 174
65 485
66 119
67 177
68 32
71 380
72 903
73 975
74 359
75 281
76 48
77 287
78 783
79 794
80 575
81 276
83 37
84 40
85 348
86 352
87 472
89 178
91 117
92 51
93 647
100 45
101 105
105 140
106 593
107 999
108 634
109 411
113 138
115 183
151 170
160 205
169 15
179 373
180 106
181 139
185 496
186 88
187 536
188 75
189 118
199 38
214 198
215 38
216 197

$$$$

     RDKit          2D

 24 24  0  0  0  0  0  0  0  0999 V2000
   -8.8462    8.4916    0.0000 C   0  0  0  0  0  0  0  0  0  0  0  0
  -11.1334    7.4251    0.0000 C   0  0  0  0  0  0  0  0  0  0  0  0
   -6.2995    8.6091    0.0000 C   0  0  0  0  0  0  0  0  0  0  0  0
   -7.3238    8.9434    0.0000 C   0  0  0  0  0  0  0  0  0  0  0  0
  -11.7616    1.6815    0.0000 C   0  0  0  0  0  0  0  0  0  0  0  0
  -10.7287    1.3459    0.0000 C   0  0  0  0  0  0  0  0  0  0  0  0
   -6.4465    4.6745    0.0000 C   0  0  0  0  0  0  0  0  0  0  0  0
   -6.9298    2.8705    0.0000 C   0  0  0  0  0  0  0  0  0  0  0  0
   -8.1900    7.1427    0.0000 C   0  0  0  0  0  0  0  0  0  0  0  0
   -9.6414    7.2697    0.0000 C   0  0  0  0  0  0  0  0  0  0  0  0
   -6.3005    7.1091    0.0000 C   0  0  0  0  0  0  0  0  0  0  0  0
   -8.2076    7.7314    0.0000 C   0  0  0  0  0  0  0  0  0  0  0  0
  -11.7599    3.1815    0.0000 C   0  0  0  0  0  0  0  0  0  0  0  0
   -9.8484    2.5604    0.0000 C   0  0  0  0  0  0  0  0  0  0  0  0
   -7.8175    5.2830    0.0000 C   0  0  0  0  0  0  0  0  0  0  0  0
   -8.4214    3.0290    0.0000 C   0  0  0  0  0  0  0  0  0  0  0  0
  -10.4600    6.3600    0.0000 C   0  0  0  0  0  0  0  0  0  0  0  0
  -11.3400    5.1500    0.0000 C   0  0  0  0  0  0  0  0  0  0  0  0
   -6.7200    5.1500    0.0000 C   0  0  0  0  0  0  0  0  0  0  0  0
   -7.6000    3.9300    0.0000 C   0  0  0  0  0  0  0  0  0  0  0  0
   -9.0300    5.9000    0.0000 Si  0  0  0  0  0  4  0  0  0  0  0  0
   -7.6000    6.3600    0.0000 Si  0  0  0  0  0  4  0  0  0  0  0  0
  -10.4600    3.9300    0.0000 Si  0  0  0  0  0  4  0  0  0  0  0  0
   -9.0300    4.4000    0.0000 Si  0  0  0  0  0  4  0  0  0  0  0  0
  9  1  1  0
 10  2  1  0
 11  3  1  0
 12  4  1  0
 13  5  1  0
 14  6  1  0
 15  7  1  0
 16  8  1  0
 18 17  3  0
 20 19  3  0
 21  9  1  0
 21 10  1  0
 21 17  1  0
 22 11  1  0
 22 12  1  0
 22 19  1  0
 22 21  1  0
 23 13  1  0
 23 14  1  0
 23 18  1  0
 24 15  1  0
 24 16  1  0
 24 20  1  0
 24 23  1  0
M  END
>  <NAME>  (310) 
1,1,2,2,5,5,6,6-OCTETHYL-1,2,5,6-TETRASILACYCLOOCTA-3,7-DIYNE

>  <SYNONYMS>  (310) 


>  <SPECTRUM TYPE>  (310) 
MS1

>  <INSTRUMENT TYPE>  (310) 
EI-B

>  <INSTRUMENT>  (310) 
SHIMADZU QP-1000

>  <ION MODE>  (310) 
P

>  <INCHIKEY>  (310) 
LQYQMXQJUXKONI-UHFFFAOYSA-N

>  <FORMULA>  (310) 
C20H40Si4

>  <EXACT MASS>  (310) 
392.2207074

>  <MW>  (310) 
392

>  <ID>  (310) 
JP011699

>  <CONTRIBUTOR>  (310) 
University of Tokyo Team, {Faculty of Engineering, University of Tokyo

>  <COMMENT>  (310) 
SMILES=CC[Si](CC)(C#1)[Si](CC)(CC)C#C[Si](CC)(CC)[Si](CC)(CC)C1
InChI=InChI=1S/C20H40Si4/c1-9-21(10-2)17-18-23(13-5,14-6)24(15-7,16-8)20-19-22(21,11-3)12-4/h9-16H2,1-8H3
computed SMILES=C1#C[Si](CC)(CC)[Si](C#C[Si](CC)(CC)[Si]1(CC)CC)(CC)CC
accession=JP011699
date=2016.01.19 (Created 2008.10.21, modified 2011.05.06)
author=FAC. TECHNOLOGY, HIROSHIMA UNIV.
license=CC BY-NC-SA
exact mass=392.22071
ionization energy=70 eV
ion type=[M]+*
computed spectral entropy=4.232085110723489
computed normalized entropy=0.8614659912324382
SPLASH=splash10-0btl-7946000000-ace919ae6bbd0f035d0a
submitter=submitter = University of Tokyo Team (Faculty of Engineering, University of Tokyo)
MoNA Rating=3.75

>  <NUM PEAKS>  (310) 
136

>  <MASS SPECTRAL PEAKS>  (310) 
43 13.8
45 11.7
53 5.3
55 23.4
57 36.2
59 99.99
60 7.4
67 7.4
68 1.1
69 18.1
71 8.5
73 8.5
79 2.1
80 1.1
81 38.3
83 71.3
85 36.2
87 66
89 3.2
90 2.1
91 1.1
93 18.1
95 13.8
97 28.3
98 26.6
100 2.1
101 3.1
103 1.1
104 3.1
105 5.3
107 5.3
109 34
111 76.6
112 55.3
115 13.8
117 1.1
118 2.1
119 3.2
121 3.2
123 2.1
125 24.5
126 34
129 2.1
133 2.1
135 11.7
137 24.5
139 29.8
140 28.3
142 4.3
143 3.2
147 2.1
149 3.2
151 4.3
153 8.5
154 13.8
156 1.1
157 2.1
161 5.3
162 1.1
163 8.5
164 3.2
165 18.1
166 3.2
167 22.3
168 11.7
169 12.8
170 2.1
171 2.1
175 1.1
177 2.1
179 4.3
181 4.3
182 1.1
183 4.3
185 1.1
189 3.2
191 8.5
192 3.2
193 18.1
194 6.4
195 56.4
196 17
197 17
198 3.2
199 1.1
205 1.1
207 3.2
209 3.2
210 1.1
211 2.1
217 1.1
219 5.3
220 2.1
221 18.1
222 5.3
223 48.9
224 13.8
225 11.7
226 2.1
237 2.1
247 3.2
248 1.1
249 8.5
250 2.1
251 37.2
252 12.8
253 8.5
254 1.1
265 1.1
275 2.1
277 6.4
278 2.1
279 54.3
280 20.2
281 10.6
282 3.2
305 3.2
306 1.1
307 74.5
308 30.9
309 17
310 3.2
333 1.1
334 1.1
335 71.3
336 29.8
337 17
338 3.2
363 36.2
364 14.9
365 17
366 2.1
392 96.8
393 40.4
394 20.2
396 1.1

>  <PREDICTED SPECTRUM>  (310) 
25 9
26 55
27 110
28 6
29 216
36 3
38 25
39 174
40 61
41 162
42 51
43 216
44 130
45 165
50 63
51 58
52 13
53 176
54 49
55 456
56 133
57 371
58 104
59 683
60 199
61 170
63 157
64 9
65 152
66 24
67 224
68 199
69 346
70 67
71 300
73 183
74 108
76 23
77 100
78 108
79 245
80 71
81 362
82 117
83 672
84 178
85 396
86 81
87 509
89 168
90 33
91 224
93 171
94 61
95 406
96 60
97 399
98 273
100 198
101 6
103 35
104 49
105 212
106 73
107 287
108 47
109 427
110 175
111 741
112 541
113 126
114 80
115 158
116 8
117 220
118 86
119 208
120 20
121 251
122 90
123 274
124 126
125 453
126 592
127 176
131 3
133 25
135 220
136 8
137 350
138 228
139 629
140 280
141 154
142 68
143 122
145 62
147 105
149 129
151 223
152 70
153 423
154 182
155 51
156 3
157 71
159 12
161 75
163 159
164 94
165 492
166 258
167 626
168 309
169 221
170 175
171 145
175 23
177 66
179 223
181 266
182 77
183 125
184 29
185 86
189 74
191 284
192 92
193 451
194 268
195 767
196 452
197 400
198 162
199 168
205 44
207 187
209 130
210 30
211 65
215 27
217 4
219 141
220 66
221 398
222 137
223 732
224 316
225 336
226 206
227 130
235 15
237 63
241 3
247 102
249 252
250 163
251 555
252 370
253 460
254 252
255 31
275 124
277 265
278 124
279 797
280 425
281 333
282 155
305 139
306 38
307 999
308 553
309 473
310 137
333 94
335 912
336 538
337 424
338 257
349 11
363 594
364 384
365 276
366 114
392 953
393 469
394 429
395 47
396 122

$$$$

     RDKit          2D

 11 11  0  0  0  0  0  0  0  0999 V2000
   -1.3000    0.3512    0.0000 C   0  0  0  0  0  0  0  0  0  0  0  0
    2.2624    1.4997    0.0000 C   0  0  0  0  0  0  0  0  0  0  0  0
   -0.0011   -0.3990    0.0000 C   0  0  0  0  0  0  0  0  0  0  0  0
    5.1970   -1.8994    0.0000 C   0  0  0  0  0  0  0  0  0  0  0  0
    3.8970   -2.6494    0.0000 C   0  0  0  0  0  0  0  0  0  0  0  0
    5.1970   -0.3994    0.0000 C   0  0  0  0  0  0  0  0  0  0  0  0
    2.5970   -1.8994    0.0000 C   0  0  0  0  0  0  0  0  0  0  0  0
    3.8970    0.3506    0.0000 C   0  0  0  0  0  0  0  0  0  0  0  0
    2.5970   -0.3994    0.0000 C   0  0  0  0  0  0  0  0  0  0  0  0
    0.3341    1.5000    0.0000 Cl  0  0  0  0  0  0  0  0  0  0  0  0
    1.2981    0.3508    0.0000 Si  0  0  0  0  0  4  0  0  0  0  0  0
  3  1  2  0
  5  4  2  0
  6  4  1  0
  7  5  1  0
  8  6  2  0
  9  7  2  0
  9  8  1  0
 11  2  1  0
 11  3  1  0
 11  9  1  0
 11 10  1  0
M  END
>  <NAME>  (311) 
CHLOROMETHYLPHENYLVINYLSILANE

>  <SYNONYMS>  (311) 


>  <SPECTRUM TYPE>  (311) 
MS1

>  <INSTRUMENT TYPE>  (311) 
EI-B

>  <INSTRUMENT>  (311) 
SHIMADZU QP-1000

>  <ION MODE>  (311) 
P

>  <INCHIKEY>  (311) 
GSXJAPJSIVGONK-UHFFFAOYSA-N

>  <FORMULA>  (311) 
C9H11ClSi

>  <EXACT MASS>  (311) 
182.03185456199998

>  <MW>  (311) 
182

>  <ID>  (311) 
JP011698

>  <CONTRIBUTOR>  (311) 
University of Tokyo Team, {Faculty of Engineering, University of Tokyo

>  <COMMENT>  (311) 
SMILES=C=C[Si](C)(Cl)c(c1)cccc1
InChI=InChI=1S/C9H11ClSi/c1-3-11(2,10)9-7-5-4-6-8-9/h3-8H,1H2,2H3
computed SMILES=Cl[Si](C=C)(C=1C=CC=CC1)C
license=CC BY-NC-SA
accession=JP011698
date=2016.01.19 (Created 2008.10.21, modified 2011.05.06)
author=FAC. TECHNOLOGY, HIROSHIMA UNIV.
exact mass=182.03185
ionization energy=70 eV
ion type=[M]+*
computed spectral entropy=3.1057462955264454
computed normalized entropy=0.8158712005260638
SPLASH=splash10-014i-3900000000-71ade3fb6364bce1abe4
submitter=submitter = University of Tokyo Team (Faculty of Engineering, University of Tokyo)
MoNA Rating=3.75

>  <NUM PEAKS>  (311) 
45

>  <MASS SPECTRAL PEAKS>  (311) 
50 6.3
51 12.6
53 1.1
63 62.1
65 27.4
66 2.1
67 2.1
77 7.4
78 8.4
79 12.6
80 2.1
81 3.2
89 2.1
91 2.1
92 1.1
93 2.1
103 7.4
104 16.8
105 14.7
106 1.1
107 1.1
115 1.1
119 3.2
121 2.1
129 1.1
131 8.4
140 4.2
141 45.3
142 10.5
143 15.8
144 1.1
145 5.3
146 34.7
147 11.6
148 2.1
155 28.4
156 3.2
157 9.5
167 99.99
168 15.8
169 35.8
170 3.2
182 16.2
183 2.7
184 5.7

>  <PREDICTED SPECTRUM>  (311) 
26 18
27 69
28 85
38 34
39 165
40 9
41 36
43 47
45 0
47 0
50 108
51 269
52 138
53 188
54 54
55 178
57 32
62 67
63 313
64 140
65 425
66 133
67 130
69 75
70 18
71 3
73 2
74 53
75 169
76 46
77 252
78 284
79 226
80 74
85 79
86 18
89 184
90 69
91 512
92 318
93 151
99 4
101 27
102 51
103 313
104 442
105 417
106 205
107 75
115 122
117 227
118 82
119 338
120 101
127 71
128 125
129 212
130 118
131 344
132 82
138 34
139 151
140 76
141 189
142 47
143 17
145 116
146 27
147 525
148 116
153 68
154 154
155 323
156 207
157 111
167 999
168 336
169 577
170 137
181 148
182 767
183 295
184 470
185 136

$$$$

     RDKit          2D

 24 26  0  0  0  0  0  0  0  0999 V2000
    7.1112    0.7671    0.0000 C   0  0  0  0  0  0  0  0  0  0  0  0
    3.4627   -2.4183    0.0000 C   0  0  0  0  0  0  0  0  0  0  0  0
    4.9627   -0.9183    0.0000 C   0  0  0  0  0  0  0  0  0  0  0  0
    3.4627    0.5817    0.0000 C   0  0  0  0  0  0  0  0  0  0  0  0
    1.6521    2.7096    0.0000 C   0  0  0  0  0  0  0  0  0  0  0  0
   -0.3270    3.4734    0.0000 C   0  0  0  0  0  0  0  0  0  0  0  0
   -1.0908    1.4943    0.0000 C   0  0  0  0  0  0  0  0  0  0  0  0
   -2.9473   -1.6683    0.0000 C   0  0  0  0  0  0  0  0  0  0  0  0
   -2.9473   -0.1683    0.0000 C   0  0  0  0  0  0  0  0  0  0  0  0
    4.5140    3.7703    0.0000 C   0  0  0  0  0  0  0  0  0  0  0  0
    5.8130    3.0186    0.0000 C   0  0  0  0  0  0  0  0  0  0  0  0
   -1.6473   -2.4183    0.0000 C   0  0  0  0  0  0  0  0  0  0  0  0
    3.2145    3.0211    0.0000 C   0  0  0  0  0  0  0  0  0  0  0  0
   -1.6473    0.5817    0.0000 C   0  0  0  0  0  0  0  0  0  0  0  0
    4.5130    0.7686    0.0000 C   0  0  0  0  0  0  0  0  0  0  0  0
    1.0827   -2.1283    0.0000 C   0  0  0  0  0  0  0  0  0  0  0  0
    5.8125    1.5177    0.0000 C   0  0  0  0  0  0  0  0  0  0  0  0
   -0.3473   -1.6683    0.0000 C   0  0  0  0  0  0  0  0  0  0  0  0
    3.2140    1.5203    0.0000 C   0  0  0  0  0  0  0  0  0  0  0  0
   -0.3473   -0.1683    0.0000 C   0  0  0  0  0  0  0  0  0  0  0  0
    1.9627   -0.9183    0.0000 C   0  0  0  0  0  0  0  0  0  0  0  0
    3.4627   -0.9183    0.0000 Si  0  0  0  0  0  4  0  0  0  0  0  0
    0.2807    2.1020    0.0000 Si  0  0  0  0  0  4  0  0  0  0  0  0
    1.0827    0.2917    0.0000 Si  0  0  0  0  0  4  0  0  0  0  0  0
  9  8  2  0
 11 10  2  0
 12  8  1  0
 13 10  1  0
 14  9  1  0
 17  1  1  0
 17 11  1  0
 17 15  2  0
 18 12  2  0
 18 16  1  0
 19 13  2  0
 19 15  1  0
 20 14  2  0
 20 18  1  0
 21 16  2  0
 22  2  1  0
 22  3  1  0
 22  4  1  0
 22 21  1  0
 23  5  1  0
 23  6  1  0
 23  7  1  0
 24 19  1  0
 24 20  1  0
 24 21  1  0
 24 23  1  0
M  END
>  <NAME>  (312) 
1-(META-TOLYL)-1,2-BIS(TRIMETHYLSILYL)-1-SILAINDENE

>  <SYNONYMS>  (312) 


>  <SPECTRUM TYPE>  (312) 
MS1

>  <INSTRUMENT TYPE>  (312) 
EI-B

>  <INSTRUMENT>  (312) 
SHIMADZU QP-1000

>  <ION MODE>  (312) 
P

>  <INCHIKEY>  (312) 
CNOMQMUIWZHTOR-UHFFFAOYSA-N

>  <FORMULA>  (312) 
C21H30Si3

>  <EXACT MASS>  (312) 
366.16553054999997

>  <MW>  (312) 
366

>  <ID>  (312) 
JP011697

>  <CONTRIBUTOR>  (312) 
University of Tokyo Team, {Faculty of Engineering, University of Tokyo

>  <COMMENT>  (312) 
SMILES=Cc(c3)cc(cc3)[Si]([Si](C)(C)C)(c21)C([Si](C)(C)C)=C([H])c(cccc2)1
InChI=InChI=1S/C21H30Si3/c1-17-11-10-13-19(15-17)24(23(5,6)7)20-14-9-8-12-18(20)16-21(24)22(2,3)4/h8-16H,1-7H3
computed SMILES=C=1C=CC2=C(C1)C=C([Si]2(C=3C=CC=C(C3)C)[Si](C)(C)C)[Si](C)(C)C
accession=JP011697
date=2016.01.19 (Created 2008.10.21, modified 2011.05.06)
author=FAC. TECHNOLOGY, HIROSHIMA UNIV.
license=CC BY-NC-SA
exact mass=366.16553
ionization energy=70 eV
ion type=[M]+*
computed spectral entropy=3.1647078924402927
computed normalized entropy=0.7729461564228314
SPLASH=splash10-00di-9321000000-14bdb3f9dd4384b48242
submitter=submitter = University of Tokyo Team (Faculty of Engineering, University of Tokyo)
MoNA Rating=3.75

>  <NUM PEAKS>  (312) 
60

>  <MASS SPECTRAL PEAKS>  (312) 
52 4.2
53 6.3
54 4.2
55 3.2
56 2.1
58 15.8
59 11.6
66 1.1
67 1.1
70 1.1
72 73.7
73 99.99
74 9.5
75 2.1
82 1.1
83 2.1
91 2.1
92 3.2
93 3.2
105 4.2
115 1.1
116 1.1
117 1.1
119 5.3
121 4.2
131 3.2
133 3.2
135 3.2
143 4.2
145 11.6
146 2.1
147 2.1
149 18.9
150 2.1
159 5.3
161 1.1
175 2.1
177 3.2
187 1.1
191 3.2
202 6.3
203 1.1
209 2.1
217 17.9
218 4.2
219 2.1
233 2.1
263 3.2
277 3.2
278 1.1
291 3.2
293 24.2
294 6.3
295 2.1
351 18.9
352 18.9
354 2.1
366 2.5
367 2.5
368 1.1

>  <PREDICTED SPECTRUM>  (312) 
29 42
39 28
41 53
43 258
44 9
45 244
46 30
47 1
51 6
52 13
53 77
55 45
57 67
58 87
59 243
60 31
65 63
66 19
67 78
69 58
71 23
72 100
73 999
74 256
75 194
77 74
78 43
79 44
83 46
85 57
89 8
91 104
92 37
93 38
95 47
97 38
99 17
101 56
102 29
103 103
104 28
105 156
106 37
107 98
109 21
115 82
116 44
117 133
118 57
119 145
121 97
123 5
129 86
130 50
131 220
132 41
133 110
134 35
135 305
136 73
137 30
139 4
141 1
143 117
144 97
145 356
146 113
147 83
148 34
149 167
150 63
151 43
155 20
157 67
158 8
159 125
160 47
161 142
162 84
163 84
164 18
165 9
173 37
174 4
175 95
176 20
177 171
178 129
179 57
181 2
188 17
189 67
190 64
191 116
192 68
193 115
201 10
202 15
203 29
205 33
216 62
217 144
218 144
219 105
220 21
231 46
232 10
233 101
235 120
236 37
237 12
263 60
275 3
276 9
277 257
278 211
279 28
291 95
292 109
293 564
294 268
295 101
309 0
323 13
351 357
352 238
353 114
354 42
366 213
367 112
368 46

$$$$

     RDKit          2D

  7  7  0  0  0  0  0  0  0  0999 V2000
   -1.3000    0.7500    0.0000 C   0  0  0  0  0  0  0  0  0  0  0  0
    0.0000    1.5000    0.0000 C   0  0  0  0  0  0  0  0  0  0  0  0
   -1.3000   -0.7500    0.0000 C   0  0  0  0  0  0  0  0  0  0  0  0
    1.3000    0.7500    0.0000 C   0  0  0  0  0  0  0  0  0  0  0  0
    0.0000   -1.5000    0.0000 C   0  0  0  0  0  0  0  0  0  0  0  0
    1.3000   -0.7500    0.0000 C   0  0  0  0  0  0  0  0  0  0  0  0
    2.5989   -1.5002    0.0000 Si  0  0  0  0  0  4  0  0  0  0  0  0
  2  1  2  0
  3  1  1  0
  4  2  1  0
  5  3  2  0
  6  4  2  0
  6  5  1  0
  7  6  1  0
M  END
>  <NAME>  (313) 
PHENYLSILANE

>  <SYNONYMS>  (313) 


>  <SPECTRUM TYPE>  (313) 
MS1

>  <INSTRUMENT TYPE>  (313) 
EI-B

>  <INSTRUMENT>  (313) 
SHIMADZU QP-1000

>  <ION MODE>  (313) 
P

>  <INCHIKEY>  (313) 
PARWUHTVGZSQPD-UHFFFAOYSA-N

>  <FORMULA>  (313) 
C6H8Si

>  <EXACT MASS>  (313) 
108.039526786

>  <MW>  (313) 
108

>  <ID>  (313) 
JP011696

>  <CONTRIBUTOR>  (313) 
University of Tokyo Team, {Faculty of Engineering, University of Tokyo

>  <COMMENT>  (313) 
SMILES=[SiH3]c(c1)cccc1
InChI=InChI=1S/C6H8Si/c7-6-4-2-1-3-5-6/h1-5H,7H3
computed SMILES=C=1C=CC(=CC1)[SiH3]
accession=JP011696
date=2016.01.19 (Created 2008.10.21, modified 2011.05.06)
author=FAC. TECHNOLOGY, HIROSHIMA UNIV.
license=CC BY-NC-SA
exact mass=108.03953
ionization energy=70 eV
ion type=[M]+*
computed spectral entropy=2.0412148056246733
computed normalized entropy=0.7204592657686465
SPLASH=splash10-0fb9-9000000000-b352d2aca3d6968ccb79
submitter=submitter = University of Tokyo Team (Faculty of Engineering, University of Tokyo)
MoNA Rating=3.75

>  <NUM PEAKS>  (313) 
17

>  <MASS SPECTRAL PEAKS>  (313) 
51 5.6
52 33.8
53 36.6
54 32.4
55 2.8
63 4.2
64 4.2
74 4.2
75 1.4
76 4.9
77 26.8
78 99.99
79 6.3
105 1.7
106 2.3
107 2.4
108 2.4

>  <PREDICTED SPECTRUM>  (313) 
14 4
25 27
26 81
27 67
28 11
32 19
33 36
34 3
36 37
37 152
38 221
39 436
40 109
41 141
44 81
45 168
47 78
48 13
49 119
50 367
51 538
52 232
53 178
54 84
55 24
57 185
58 73
59 11
60 36
61 189
62 170
63 349
64 161
65 121
67 49
68 39
69 219
73 6
74 197
75 191
76 163
77 491
78 347
79 263
80 394
81 236
82 240
83 21
88 7
89 45
105 187
106 240
107 693
108 999
109 290
110 78

$$$$

     RDKit          2D

 12 12  0  0  0  0  0  0  0  0999 V2000
    2.5987   -3.0002    0.0000 C   0  0  0  0  0  0  0  0  0  0  0  0
    4.6479   -2.0496    0.0000 C   0  0  0  0  0  0  0  0  0  0  0  0
    5.1972   -0.0006    0.0000 C   0  0  0  0  0  0  0  0  0  0  0  0
    3.1483    0.5487    0.0000 C   0  0  0  0  0  0  0  0  0  0  0  0
   -1.3000    0.7500    0.0000 C   0  0  0  0  0  0  0  0  0  0  0  0
    0.0000    1.5000    0.0000 C   0  0  0  0  0  0  0  0  0  0  0  0
   -1.3000   -0.7500    0.0000 C   0  0  0  0  0  0  0  0  0  0  0  0
    1.3000    0.7500    0.0000 C   0  0  0  0  0  0  0  0  0  0  0  0
   -0.0000   -1.5000    0.0000 C   0  0  0  0  0  0  0  0  0  0  0  0
    1.3000   -0.7500    0.0000 C   0  0  0  0  0  0  0  0  0  0  0  0
    2.5989   -1.5002    0.0000 Si  0  0  0  0  0  4  0  0  0  0  0  0
    3.8981   -0.7504    0.0000 Si  0  0  0  0  0  4  0  0  0  0  0  0
  6  5  2  0
  7  5  1  0
  8  6  1  0
  9  7  2  0
 10  8  2  0
 10  9  1  0
 11  1  1  0
 11 10  1  0
 12  2  1  0
 12  3  1  0
 12  4  1  0
 12 11  1  0
M  END
>  <NAME>  (314) 
1,2,2,2-TETRAMETHYL-1-PHENYLDISILANE

>  <SYNONYMS>  (314) 


>  <SPECTRUM TYPE>  (314) 
MS1

>  <INSTRUMENT TYPE>  (314) 
EI-B

>  <INSTRUMENT>  (314) 
SHIMADZU QP-1000

>  <ION MODE>  (314) 
P

>  <INCHIKEY>  (314) 
TYOJOOJHYFAQKT-UHFFFAOYSA-N

>  <FORMULA>  (314) 
C10H18Si2

>  <EXACT MASS>  (314) 
194.094703636

>  <MW>  (314) 
194

>  <ID>  (314) 
JP011693

>  <CONTRIBUTOR>  (314) 
University of Tokyo Team, {Faculty of Engineering, University of Tokyo

>  <COMMENT>  (314) 
SMILES=c(c1)ccc(c1)[SiH](C)[Si](C)(C)C
InChI=InChI=1S/C10H18Si2/c1-11(12(2,3)4)10-8-6-5-7-9-10/h5-9,11H,1-4H3
computed SMILES=C=1C=CC(=CC1)[SiH](C)[Si](C)(C)C
accession=JP011693
date=2016.01.19 (Created 2008.10.21, modified 2011.05.06)
author=FAC. TECHNOLOGY, HIROSHIMA UNIV.
license=CC BY-NC-SA
exact mass=194.0947
ionization energy=70 eV
ion type=[M]+*
computed spectral entropy=2.534451768616073
computed normalized entropy=0.701885733746888
SPLASH=splash10-00di-9300000000-9ab4cdfbd8a003b747b0
submitter=submitter = University of Tokyo Team (Faculty of Engineering, University of Tokyo)
MoNA Rating=3.75

>  <NUM PEAKS>  (314) 
37

>  <MASS SPECTRAL PEAKS>  (314) 
51 3.5
52 2.8
53 13.4
55 5.6
57 4.2
59 7
65 1.4
66 2.8
67 2.1
68 2.8
69 2.8
70 1.4
72 99.99
73 98.6
74 9.2
75 2.8
76 1.4
77 2.1
78 3.5
79 3.5
80 1.4
91 1.4
92 1.4
93 1.4
104 12.6
105 15.5
106 3.5
107 2.8
115 2.1
116 2.8
119 3.5
120 9.2
121 9.2
135 26.8
136 2.1
179 2.5
194 2.5

>  <PREDICTED SPECTRUM>  (314) 
29 18
31 60
39 87
40 15
41 24
43 274
44 53
45 317
46 48
51 84
52 43
53 146
54 38
55 53
57 53
58 117
59 317
60 44
65 93
66 86
67 89
69 55
71 52
72 347
73 999
74 246
75 157
77 78
78 106
79 60
83 14
85 53
91 179
92 76
93 168
95 4
97 0
103 156
104 113
105 326
106 187
107 90
116 66
117 55
119 114
120 174
121 135
135 633
136 54
137 2
151 81
177 42
178 18
179 222
180 108
193 37
194 168
195 30

$$$$

     RDKit          2D

 30 32  0  0  0  0  0  0  0  0999 V2000
   -5.3381    2.6712    0.0000 C   0  0  0  0  0  0  0  0  0  0  0  0
    0.5723    3.7139    0.0000 C   0  0  0  0  0  0  0  0  0  0  0  0
    3.0702   -3.2088    0.0000 C   0  0  0  0  0  0  0  0  0  0  0  0
    0.4721   -4.7088    0.0000 C   0  0  0  0  0  0  0  0  0  0  0  0
   -1.8876   -0.5195    0.0000 C   0  0  0  0  0  0  0  0  0  0  0  0
   -2.2969    3.0873    0.0000 C   0  0  0  0  0  0  0  0  0  0  0  0
    0.6220    0.9294    0.0000 C   0  0  0  0  0  0  0  0  0  0  0  0
   -3.0373    0.1745    0.0000 C   0  0  0  0  0  0  0  0  0  0  0  0
   -4.2540   -1.5631    0.0000 C   0  0  0  0  0  0  0  0  0  0  0  0
   -2.5164   -2.7799    0.0000 C   0  0  0  0  0  0  0  0  0  0  0  0
    4.7849    2.2812    0.0000 C   0  0  0  0  0  0  0  0  0  0  0  0
    3.4854    3.0320    0.0000 C   0  0  0  0  0  0  0  0  0  0  0  0
    4.7854    0.7803    0.0000 C   0  0  0  0  0  0  0  0  0  0  0  0
    2.1864    2.2820    0.0000 C   0  0  0  0  0  0  0  0  0  0  0  0
    3.4864    0.0303    0.0000 C   0  0  0  0  0  0  0  0  0  0  0  0
   -3.3482    4.3418    0.0000 C   0  0  0  0  0  0  0  0  0  0  0  0
   -1.8701    4.6022    0.0000 C   0  0  0  0  0  0  0  0  0  0  0  0
   -2.8957    1.7830    0.0000 C   0  0  0  0  0  0  0  0  0  0  0  0
    1.7712   -0.9588    0.0000 C   0  0  0  0  0  0  0  0  0  0  0  0
   -0.8269   -2.4588    0.0000 C   0  0  0  0  0  0  0  0  0  0  0  0
   -3.8610    2.9322    0.0000 C   0  0  0  0  0  0  0  0  0  0  0  0
   -0.9049    3.4530    0.0000 C   0  0  0  0  0  0  0  0  0  0  0  0
    1.7712   -2.4588    0.0000 C   0  0  0  0  0  0  0  0  0  0  0  0
    0.4721   -3.2088    0.0000 C   0  0  0  0  0  0  0  0  0  0  0  0
    2.1869    0.7812    0.0000 C   0  0  0  0  0  0  0  0  0  0  0  0
   -1.4177    2.0433    0.0000 C   0  0  0  0  0  0  0  0  0  0  0  0
    0.4721   -0.2088    0.0000 C   0  0  0  0  0  0  0  0  0  0  0  0
   -0.8269    0.5412    0.0000 Si  0  0  0  0  0  4  0  0  0  0  0  0
   -2.7768   -1.3027    0.0000 Si  0  0  0  0  0  4  0  0  0  0  0  0
   -0.8269   -0.9588    0.0000 Si  0  0  0  0  0  4  0  0  0  0  0  0
 12 11  2  0
 13 11  1  0
 14 12  1  0
 15 13  2  0
 17 16  2  0
 21  1  1  0
 21 16  1  0
 21 18  2  0
 22  2  1  0
 22 17  1  0
 23  3  1  0
 23 19  1  0
 24  4  1  0
 24 20  1  0
 24 23  2  0
 25 14  2  0
 25 15  1  0
 26 18  1  0
 26 22  2  0
 27 19  1  0
 27 25  1  0
 27 26  1  0
 28  5  1  0
 28  6  1  0
 28  7  1  0
 29  8  1  0
 29  9  1  0
 29 10  1  0
 30 20  1  0
 30 27  1  0
 30 28  1  0
 30 29  1  0
M  END
>  <NAME>  (315) 
3,4-DIMETHYL-6-(2,5-DIMETHYLPHENYL)-6-PHENYL-1,1-BIS(TRIMETHYLSILYL)-1-SILACYCLOHEX-3-ENE

>  <SYNONYMS>  (315) 


>  <SPECTRUM TYPE>  (315) 
MS1

>  <INSTRUMENT TYPE>  (315) 
EI-B

>  <INSTRUMENT>  (315) 
SHIMADZU QP-1000

>  <ION MODE>  (315) 
P

>  <INCHIKEY>  (315) 
FWLIDNPVHLYBNP-UHFFFAOYSA-N

>  <FORMULA>  (315) 
C27H42Si3

>  <EXACT MASS>  (315) 
450.25943093399997

>  <MW>  (315) 
450

>  <ID>  (315) 
JP011692

>  <CONTRIBUTOR>  (315) 
University of Tokyo Team, {Faculty of Engineering, University of Tokyo

>  <COMMENT>  (315) 
SMILES=c(c1C)cc(cc1C([Si]3([Si](C)(C)C)[Si](C)(C)C)(CC(=C(C3)C)C)c(c2)cccc2)C
InChI=InChI=1S/C27H42Si3/c1-21-16-17-22(2)26(18-21)27(25-14-12-11-13-15-25)19-23(3)24(4)20-30(27,28(5,6)7)29(8,9)10/h11-18H,19-20H2,1-10H3
computed SMILES=C=1C=CC(=CC1)C2(C3=CC(=CC=C3C)C)CC(=C(C)C[Si]2([Si](C)(C)C)[Si](C)(C)C)C
accession=JP011692
date=2016.01.19 (Created 2008.10.21, modified 2011.05.06)
author=FAC. TECHNOLOGY, HIROSHIMA UNIV.
license=CC BY-NC-SA
exact mass=450.25943
ion type=[M]+*
ionization energy=70 eV
computed spectral entropy=3.3334661378903765
computed normalized entropy=0.7769485258199145
SPLASH=splash10-00di-9302100000-bcef7cc7e323fa35d041
submitter=submitter = University of Tokyo Team (Faculty of Engineering, University of Tokyo)
MoNA Rating=3.75

>  <NUM PEAKS>  (315) 
73

>  <MASS SPECTRAL PEAKS>  (315) 
53 2.1
55 3.2
57 1.1
58 1.1
59 35.1
60 2.1
67 3.2
69 3.2
71 1.1
73 99.99
74 7.4
75 3.2
81 1.1
83 3.2
85 3.2
91 2.1
95 1.1
97 2.1
99 3.2
101 2.1
105 4.3
109 2.1
111 1.1
115 3.2
119 2.1
121 2
123 1.5
125 3.2
127 1.1
129 3.2
131 4.3
133 2.1
135 12.8
136 1.1
141 1.1
145 2.1
149 3.2
155 1.1
159 3.2
163 6.4
169 2.1
173 1.1
175 1.1
179 1.1
181 5.3
191 1.1
213 2.1
225 2.1
227 3.2
236 2.1
241 2.1
255 1.1
303 1.5
306 1.9
307 4.5
308 1.5
321 1.3
334 1.5
335 4.9
336 1.3
369 3
376 5.5
377 13
378 4.5
379 1.5
408 1.5
409 1.5
435 1.3
436 1.1
450 11.9
451 12.8
452 6.2
453 3

>  <PREDICTED SPECTRUM>  (315) 
27 9
29 33
31 41
43 151
45 111
46 15
53 40
55 42
57 39
59 460
67 53
69 108
73 999
74 280
75 196
77 31
78 3
79 23
81 71
82 35
83 104
84 52
85 46
91 60
92 3
93 79
95 57
97 70
99 50
103 25
105 270
106 27
107 28
109 84
111 11
113 1
115 91
116 6
117 22
119 89
120 31
121 93
123 80
125 106
127 69
128 30
129 118
130 54
131 87
132 3
133 71
135 371
137 13
141 31
142 22
143 96
144 10
145 80
146 20
147 17
148 8
149 89
150 13
151 58
152 1
153 40
154 30
155 58
156 36
157 62
158 62
159 84
161 62
162 14
163 60
165 43
169 61
171 22
173 61
174 10
175 64
177 34
179 179
180 27
181 76
183 83
184 86
185 130
186 56
187 72
191 72
192 48
195 21
197 30
201 39
202 19
203 34
205 38
213 15
217 36
218 3
219 25
223 16
227 79
228 24
229 101
235 33
237 46
239 42
241 94
243 34
245 54
246 33
247 80
253 19
255 29
257 29
263 18
276 2
277 36
287 22
289 2
291 100
292 52
293 93
301 13
303 171
304 66
305 41
306 133
307 197
308 21
319 3
320 6
321 122
322 4
334 1
335 81
336 42
347 26
362 10
375 2
376 137
377 341
378 235
379 87
435 116
436 77
450 438
451 360
452 235
453 88

$$$$

     RDKit          2D

 12 11  0  0  0  0  0  0  0  0999 V2000
    1.9486    2.6250    0.0000 C   0  0  0  0  0  0  0  0  0  0  0  0
   -1.1007    0.0664    0.0000 C   0  0  0  0  0  0  0  0  0  0  0  0
   -4.5466    3.3750    0.0000 C   0  0  0  0  0  0  0  0  0  0  0  0
   -1.4974    5.9336    0.0000 C   0  0  0  0  0  0  0  0  0  0  0  0
    0.6495    3.3750    0.0000 C   0  0  0  0  0  0  0  0  0  0  0  0
   -1.6137    1.4759    0.0000 C   0  0  0  0  0  0  0  0  0  0  0  0
   -3.2476    2.6250    0.0000 C   0  0  0  0  0  0  0  0  0  0  0  0
   -0.9844    4.5241    0.0000 C   0  0  0  0  0  0  0  0  0  0  0  0
    0.3147    1.4759    0.0000 Cl  0  0  0  0  0  0  0  0  0  0  0  0
   -2.9127    4.5241    0.0000 Cl  0  0  0  0  0  0  0  0  0  0  0  0
   -0.6495    2.6250    0.0000 Si  0  0  0  0  0  4  0  0  0  0  0  0
   -1.9486    3.3750    0.0000 Si  0  0  0  0  0  4  0  0  0  0  0  0
  5  1  1  0
  6  2  1  0
  7  3  1  0
  8  4  1  0
 11  5  1  0
 11  6  1  0
 11  9  1  0
 12  7  1  0
 12  8  1  0
 12 10  1  0
 12 11  1  0
M  END
>  <NAME>  (316) 
1,2-DICHLOROTETRAETHYLDISILANE

>  <SYNONYMS>  (316) 


>  <SPECTRUM TYPE>  (316) 
MS1

>  <INSTRUMENT TYPE>  (316) 
EI-B

>  <INSTRUMENT>  (316) 
SHIMADZU QP-1000

>  <ION MODE>  (316) 
P

>  <INCHIKEY>  (316) 
RGDZHSGMSWHBAK-UHFFFAOYSA-N

>  <FORMULA>  (316) 
C8H20Cl2Si2

>  <EXACT MASS>  (316) 
242.04805905999999

>  <MW>  (316) 
242

>  <ID>  (316) 
JP011691

>  <CONTRIBUTOR>  (316) 
University of Tokyo Team, {Faculty of Engineering, University of Tokyo

>  <COMMENT>  (316) 
SMILES=CC[Si](Cl)(CC)[Si](Cl)(CC)CC
InChI=InChI=1S/C8H20Cl2Si2/c1-5-11(9,6-2)12(10,7-3)8-4/h5-8H2,1-4H3
computed SMILES=Cl[Si](CC)(CC)[Si](Cl)(CC)CC
accession=JP011691
date=2016.01.19 (Created 2008.10.21, modified 2011.05.06)
author=FAC. TECHNOLOGY, HIROSHIMA UNIV.
license=CC BY-NC-SA
exact mass=242.04806
ionization energy=70 eV
ion type=[M]+*
computed spectral entropy=2.855188754425339
computed normalized entropy=0.7967555923272006
SPLASH=splash10-052r-9100000000-61d569079f463cd22494
submitter=submitter = University of Tokyo Team (Faculty of Engineering, University of Tokyo)
MoNA Rating=3.75

>  <NUM PEAKS>  (316) 
36

>  <MASS SPECTRAL PEAKS>  (316) 
54 2.1
56 9.5
57 5.3
58 26.3
59 99.99
60 27.4
61 4.2
63 24.2
64 3.2
65 35.8
66 2.1
67 9.5
75 1.1
79 2.1
86 93.7
87 34.7
88 5.3
91 4.2
92 7.4
93 49.5
94 5.3
95 16.8
115 9.5
120 14.7
121 32.6
122 8.4
123 11.6
157 3.2
159 2.1
185 3.2
187 2.1
207 1.7
213 2.9
215 2.1
242 1.6
244 1.1

>  <PREDICTED SPECTRUM>  (316) 
26 15
27 1
28 7
33 37
42 41
43 3
45 39
47 11
49 5
51 52
53 70
54 126
55 36
56 125
57 157
58 484
59 721
60 385
61 260
62 89
63 373
64 62
65 402
66 83
67 149
68 38
77 1
79 121
80 17
81 72
85 72
86 999
87 849
88 230
89 137
91 274
92 225
93 763
94 281
95 326
96 133
101 56
102 91
103 48
105 65
106 40
113 65
114 25
115 303
116 12
119 34
120 109
121 529
122 355
123 379
124 79
127 21
129 65
157 158
159 71
185 242
187 59
188 44
207 21
208 44
213 65
215 76
216 12
217 24
241 26
242 74
244 85

$$$$

     RDKit          2D

 28 30  0  0  0  0  0  0  0  0999 V2000
    3.5371   -0.6115    0.0000 C   0  0  0  0  0  0  0  0  0  0  0  0
   -1.6597   -0.6109    0.0000 C   0  0  0  0  0  0  0  0  0  0  0  0
    0.9392   -5.1124    0.0000 C   0  0  0  0  0  0  0  0  0  0  0  0
   -0.3600   -6.3415    0.0000 C   0  0  0  0  0  0  0  0  0  0  0  0
   -2.1721   -7.0011    0.0000 C   0  0  0  0  0  0  0  0  0  0  0  0
   -4.3677   -3.3746    0.0000 C   0  0  0  0  0  0  0  0  0  0  0  0
   -1.9939   -1.7125    0.0000 C   0  0  0  0  0  0  0  0  0  0  0  0
   -6.0921   -4.8084    0.0000 C   0  0  0  0  0  0  0  0  0  0  0  0
   -5.8528    0.5860    0.0000 C   0  0  0  0  0  0  0  0  0  0  0  0
   -5.5786   -6.2187    0.0000 C   0  0  0  0  0  0  0  0  0  0  0  0
   -5.1277   -3.6595    0.0000 C   0  0  0  0  0  0  0  0  0  0  0  0
   -4.3748    0.8464    0.0000 C   0  0  0  0  0  0  0  0  0  0  0  0
   -6.3656   -0.8236    0.0000 C   0  0  0  0  0  0  0  0  0  0  0  0
   -4.1007   -6.4800    0.0000 C   0  0  0  0  0  0  0  0  0  0  0  0
   -3.6498   -3.9208    0.0000 C   0  0  0  0  0  0  0  0  0  0  0  0
   -3.4095   -0.3029    0.0000 C   0  0  0  0  0  0  0  0  0  0  0  0
   -5.4004   -1.9729    0.0000 C   0  0  0  0  0  0  0  0  0  0  0  0
    0.9385   -0.6107    0.0000 C   0  0  0  0  0  0  0  0  0  0  0  0
    2.2385   -2.8624    0.0000 C   0  0  0  0  0  0  0  0  0  0  0  0
    2.2380   -1.3615    0.0000 C   0  0  0  0  0  0  0  0  0  0  0  0
   -0.3605   -1.3607    0.0000 C   0  0  0  0  0  0  0  0  0  0  0  0
    0.9395   -3.6124    0.0000 C   0  0  0  0  0  0  0  0  0  0  0  0
   -3.1363   -5.3311    0.0000 C   0  0  0  0  0  0  0  0  0  0  0  0
   -3.9223   -1.7125    0.0000 C   0  0  0  0  0  0  0  0  0  0  0  0
   -0.3600   -2.8615    0.0000 C   0  0  0  0  0  0  0  0  0  0  0  0
   -1.6591   -3.6115    0.0000 Si  0  0  0  0  0  4  0  0  0  0  0  0
   -1.6591   -5.5915    0.0000 Si  0  0  0  0  0  4  0  0  0  0  0  0
   -2.9581   -2.8615    0.0000 Si  0  0  0  0  0  4  0  0  0  0  0  0
 10  8  2  0
 11  8  1  0
 12  9  2  0
 13  9  1  0
 14 10  1  0
 15 11  2  0
 16 12  1  0
 17 13  2  0
 20  1  1  0
 20 18  2  0
 20 19  1  0
 21  2  1  0
 21 18  1  0
 22  3  1  0
 22 19  2  0
 23 14  2  0
 23 15  1  0
 24 16  2  0
 24 17  1  0
 25 21  2  0
 25 22  1  0
 26 25  1  0
 27  4  1  0
 27  5  1  0
 27 23  1  0
 27 26  1  0
 28  6  1  0
 28  7  1  0
 28 24  1  0
 28 26  1  0
M  END
>  <NAME>  (317) 
1,1,3,3-TETRAMETHYL-2-MESITYL-1,3-DIPHENYLTRISILANE

>  <SYNONYMS>  (317) 


>  <SPECTRUM TYPE>  (317) 
MS1

>  <INSTRUMENT TYPE>  (317) 
EI-B

>  <INSTRUMENT>  (317) 
SHIMADZU QP-1000

>  <ION MODE>  (317) 
P

>  <INCHIKEY>  (317) 
HTWVIZKVBCZIGX-UHFFFAOYSA-N

>  <FORMULA>  (317) 
C25H34Si3

>  <EXACT MASS>  (317) 
418.19683067799997

>  <MW>  (317) 
418

>  <ID>  (317) 
JP011690

>  <CONTRIBUTOR>  (317) 
University of Tokyo Team, {Faculty of Engineering, University of Tokyo

>  <COMMENT>  (317) 
SMILES=[SiH](c(c(C)3)c(C)cc(C)c3)([Si](C)(C)c(c2)cccc2)[Si](C)(C)c(c1)cccc1
InChI=InChI=1S/C25H34Si3/c1-20-18-21(2)25(22(3)19-20)26(27(4,5)23-14-10-8-11-15-23)28(6,7)24-16-12-9-13-17-24/h8-19,26H,1-7H3
computed SMILES=C=1C=CC(=CC1)[Si](C)(C)[SiH](C=2C(=CC(=CC2C)C)C)[Si](C=3C=CC=CC3)(C)C
accession=JP011690
date=2016.01.19 (Created 2008.10.21, modified 2011.05.06)
author=FAC. TECHNOLOGY, HIROSHIMA UNIV.
license=CC BY-NC-SA
exact mass=418.19683
ionization energy=70 eV
ion type=[M]+*
computed spectral entropy=3.901416957405111
computed normalized entropy=0.8567242923499165
SPLASH=splash10-0a4r-7910000000-2a47cf897bfc30c304f2
submitter=submitter = University of Tokyo Team (Faculty of Engineering, University of Tokyo)
MoNA Rating=3.75

>  <NUM PEAKS>  (317) 
95

>  <MASS SPECTRAL PEAKS>  (317) 
51 8.4
52 5.3
53 25.3
54 3.2
55 26.3
56 2.1
57 21.1
58 21.1
59 35.8
60 3.2
63 7.4
65 7.4
66 2.1
67 18.9
68 1.1
69 9.5
71 2.1
73 21.1
74 2.1
75 3.2
77 8.4
78 9.5
79 8.4
80 1.1
81 7.4
83 5.3
84 2.1
85 1.1
89 3.2
91 24.2
92 3.2
93 11.6
95 7.4
97 1.1
103 3.2
105 60
106 8.4
107 30.5
108 3.2
109 6.3
115 2.1
117 3.2
118 1.1
119 27.4
120 6.3
121 29.5
122 3.2
123 1.1
131 6.3
132 1.1
133 8.4
135 99.99
136 14.7
137 3.2
143 1.1
145 12.6
146 15.8
147 11.6
148 1.1
149 3.2
159 5.3
160 3.2
161 14.7
162 3.2
163 5.3
165 1.1
173 1.1
176 2.1
177 3.2
178 1.1
179 1.1
189 1.1
195 1.1
204 5.3
205 1.1
206 1.1
209 3.2
222 2.1
223 8.4
224 5.3
237 2.1
267 9.5
268 3.2
282 11.6
283 4.2
301 1.1
317 1.1
359 2.1
395 9.5
396 4.2
397 3.2
403 2.1
418 12.6
419 5.5
420 2.5

>  <PREDICTED SPECTRUM>  (317) 
41 36
43 362
45 197
51 45
53 40
59 171
67 25
73 999
74 165
75 131
77 141
78 139
79 25
83 4
91 454
93 58
103 121
105 215
106 8
115 60
117 22
119 458
121 56
122 11
131 129
133 100
135 598
136 7
137 74
145 61
147 129
149 119
153 36
159 67
160 17
163 17
165 41
176 2
177 184
189 59
190 20
191 180
192 81
193 232
194 99
195 525
197 736
198 315
203 23
205 101
206 117
207 177
208 51
209 127
217 19
219 262
220 239
221 404
222 123
223 78
225 52
235 4
237 47
239 126
250 10
251 151
252 27
253 417
254 171
255 104
266 176
267 388
268 170
281 57
282 181
283 307
284 77
297 215
298 264
299 210
340 0
341 96
345 88
346 153
401 69
403 224
404 203
405 79
417 19
418 174
419 68
420 4

$$$$

     RDKit          2D

 20 22  0  0  0  0  0  0  0  0999 V2000
   -3.7499    0.1565    0.0000 C   0  0  0  0  0  0  0  0  0  0  0  0
   -6.1911   -3.6138    0.0000 C   0  0  0  0  0  0  0  0  0  0  0  0
   -6.3960   -2.1270    0.0000 C   0  0  0  0  0  0  0  0  0  0  0  0
   -4.8016   -4.1789    0.0000 C   0  0  0  0  0  0  0  0  0  0  0  0
   -5.2115   -1.2054    0.0000 C   0  0  0  0  0  0  0  0  0  0  0  0
   -3.6171   -3.2573    0.0000 C   0  0  0  0  0  0  0  0  0  0  0  0
    0.7500    1.0300    0.0000 C   0  0  0  0  0  0  0  0  0  0  0  0
   -0.1980   -3.8598    0.0000 C   0  0  0  0  0  0  0  0  0  0  0  0
   -0.7500    1.0300    0.0000 C   0  0  0  0  0  0  0  0  0  0  0  0
   -0.4585   -2.3826    0.0000 C   0  0  0  0  0  0  0  0  0  0  0  0
   -3.8220   -1.7705    0.0000 C   0  0  0  0  0  0  0  0  0  0  0  0
    1.2100   -0.3900    0.0000 C   0  0  0  0  0  0  0  0  0  0  0  0
   -1.5166   -4.5594    0.0000 C   0  0  0  0  0  0  0  0  0  0  0  0
   -1.2100   -0.3900    0.0000 C   0  0  0  0  0  0  0  0  0  0  0  0
   -1.9368   -2.1761    0.0000 C   0  0  0  0  0  0  0  0  0  0  0  0
    2.6377   -0.8500    0.0000 Br  0  0  0  0  0  0  0  0  0  0  0  0
   -1.7217   -6.0453    0.0000 Br  0  0  0  0  0  0  0  0  0  0  0  0
   -0.0000   -1.2800    0.0000 S   0  0  0  0  0  0  0  0  0  0  0  0
   -2.6032   -3.5223    0.0000 S   0  0  0  0  0  0  0  0  0  0  0  0
   -2.6377   -0.8500    0.0000 Si  0  0  0  0  0  4  0  0  0  0  0  0
  3  2  2  0
  4  2  1  0
  5  3  1  0
  6  4  2  0
  9  7  1  0
 10  8  1  0
 11  5  2  0
 11  6  1  0
 12  7  2  0
 13  8  2  0
 14  9  2  0
 15 10  2  0
 16 12  1  0
 17 13  1  0
 18 12  1  0
 18 14  1  0
 19 13  1  0
 19 15  1  0
 20  1  1  0
 20 11  1  0
 20 14  1  0
 20 15  1  0
M  END
>  <NAME>  (318) 
DI(5-(2-BROMOTHIENYL))METHYLPHENYLSILANE

>  <SYNONYMS>  (318) 


>  <SPECTRUM TYPE>  (318) 
MS1

>  <INSTRUMENT TYPE>  (318) 
EI-B

>  <INSTRUMENT>  (318) 
SHIMADZU QP-1000

>  <ION MODE>  (318) 
P

>  <INCHIKEY>  (318) 
JWROVZUCWZMWIQ-UHFFFAOYSA-N

>  <FORMULA>  (318) 
C15H12Br2S2Si

>  <EXACT MASS>  (318) 
441.851643114

>  <MW>  (318) 
442

>  <ID>  (318) 
JP011689

>  <CONTRIBUTOR>  (318) 
University of Tokyo Team, {Faculty of Engineering, University of Tokyo

>  <COMMENT>  (318) 
SMILES=c(c3)ccc(c3)[Si](C)(c(c2)sc(Br)c2)c(c1)sc(Br)c1
InChI=InChI=1S/C15H12Br2S2Si/c1-20(11-5-3-2-4-6-11,14-9-7-12(16)18-14)15-10-8-13(17)19-15/h2-10H,1H3
computed SMILES=BrC=1SC(=CC1)[Si](C=2SC(Br)=CC2)(C=3C=CC=CC3)C
accession=JP011689
date=2016.01.19 (Created 2008.10.21, modified 2011.05.06)
author=FAC. TECHNOLOGY, HIROSHIMA UNIV.
license=CC BY-NC-SA
exact mass=441.85164
ionization energy=70 eV
ion type=[M]+*
computed spectral entropy=3.347277250744636
computed normalized entropy=0.901363213267395
SPLASH=splash10-004i-6400900000-a5a63c400996875f1f1e
submitter=submitter = University of Tokyo Team (Faculty of Engineering, University of Tokyo)
MoNA Rating=3.75

>  <NUM PEAKS>  (318) 
41

>  <MASS SPECTRAL PEAKS>  (318) 
51 24.5
52 6.4
53 36.2
57 8.5
63 9.6
65 7.4
67 5.3
69 8.5
75 13.8
76 5.3
77 26.6
78 3.2
79 8.5
81 5.3
82 21.3
85 6.4
89 4.3
91 25.5
93 7.4
102 5.3
103 5.3
105 28.7
106 5.3
107 22.3
109 26.6
115 16
119 11.7
120 13.8
126 5.3
127 7.4
129 8.5
199 10.6
201 11.7
427 47.9
429 99.99
430 23.4
431 60.6
432 12.8
442 22.3
444 45.7
446 28.7

>  <PREDICTED SPECTRUM>  (318) 
26 46
27 45
29 114
32 7
33 0
34 8
36 40
37 100
38 165
39 358
40 126
41 224
42 93
43 263
44 238
45 487
46 51
47 315
48 78
49 13
50 375
51 502
52 265
53 355
54 153
55 157
56 34
57 485
58 219
59 147
60 84
61 143
62 251
63 486
64 290
65 461
66 293
67 335
68 107
69 459
70 283
71 391
72 47
73 299
74 323
75 540
76 337
77 573
78 290
79 308
80 301
81 540
82 604
83 557
84 172
85 211
86 137
87 148
88 63
89 265
90 146
91 419
92 251
93 264
94 222
95 437
96 343
97 320
98 159
99 140
101 168
102 284
103 248
104 211
105 337
106 154
107 636
108 223
109 541
110 282
111 51
112 44
113 221
114 120
115 697
116 265
117 420
118 234
119 393
120 155
121 350
122 127
123 246
124 122
125 220
126 133
127 160
128 66
129 142
130 67
131 290
132 130
133 126
134 105
135 263
136 100
137 919
138 247
139 999
140 273
141 290
142 88
143 222
144 93
145 193
146 209
147 398
148 144
149 208
150 78
151 265
152 128
153 196
154 16
155 93
156 17
157 29
159 83
160 23
161 178
162 110
163 181
164 74
165 149
167 68
169 62
170 13
171 69
172 32
173 99
174 32
175 125
176 110
177 162
178 92
179 115
180 45
181 215
182 45
183 120
185 51
187 72
189 52
191 57
193 91
194 92
195 251
196 60
197 193
198 105
199 125
201 129
203 262
205 88
206 42
207 144
208 62
209 250
210 183
211 183
212 12
216 27
217 65
218 86
219 501
220 13
221 107
223 279
224 17
225 244
226 80
227 135
237 13
239 131
241 158
245 45
250 12
251 60
253 42
255 170
256 88
257 25
265 9
267 168
269 60
271 55
273 29
277 73
282 34
283 159
284 47
285 21
331 52
332 70
363 282
364 199
365 385
366 168
427 470
428 188
429 724
430 310
431 753
433 91
442 299
443 172
444 654
445 312
446 556
447 236

$$$$

     RDKit          2D

 14 15  0  0  0  0  0  0  0  0999 V2000
    1.2135   -0.8817    0.0000 C   0  0  0  0  0  0  0  0  0  0  0  0
   -1.8901   -1.8901    0.0000 C   0  0  0  0  0  0  0  0  0  0  0  0
   -0.8165    3.3338    0.0000 C   0  0  0  0  0  0  0  0  0  0  0  0
   -5.3259    4.2131    0.0000 C   0  0  0  0  0  0  0  0  0  0  0  0
   -4.0260    4.9633    0.0000 C   0  0  0  0  0  0  0  0  0  0  0  0
   -5.3256    2.7131    0.0000 C   0  0  0  0  0  0  0  0  0  0  0  0
   -2.7259    4.2135    0.0000 C   0  0  0  0  0  0  0  0  0  0  0  0
   -4.0255    1.9633    0.0000 C   0  0  0  0  0  0  0  0  0  0  0  0
    0.0000    1.5000    0.0000 C   0  0  0  0  0  0  0  0  0  0  0  0
   -2.3083    0.7500    0.0000 C   0  0  0  0  0  0  0  0  0  0  0  0
    0.0000    0.0000    0.0000 C   0  0  0  0  0  0  0  0  0  0  0  0
   -1.4266   -0.4635    0.0000 C   0  0  0  0  0  0  0  0  0  0  0  0
   -2.7256    2.7135    0.0000 C   0  0  0  0  0  0  0  0  0  0  0  0
   -1.4266    1.9635    0.0000 Si  0  0  0  0  0  4  0  0  0  0  0  0
  5  4  2  0
  6  4  1  0
  7  5  1  0
  8  6  2  0
 11  1  1  0
 11  9  1  0
 12  2  1  0
 12 10  1  0
 12 11  2  0
 13  7  2  0
 13  8  1  0
 14  3  1  0
 14  9  1  0
 14 10  1  0
 14 13  1  0
M  END
>  <NAME>  (319) 
1,3,4-TRIMETHYL-1-PHENYL-1-SILACYCLOPENT-3-ENE

>  <SYNONYMS>  (319) 


>  <SPECTRUM TYPE>  (319) 
MS1

>  <INSTRUMENT TYPE>  (319) 
EI-B

>  <INSTRUMENT>  (319) 
SHIMADZU QP-1000

>  <ION MODE>  (319) 
P

>  <INCHIKEY>  (319) 
OWCZXLLXIGBHOM-UHFFFAOYSA-N

>  <FORMULA>  (319) 
C13H18Si

>  <EXACT MASS>  (319) 
202.117777106

>  <MW>  (319) 
202

>  <ID>  (319) 
JP011688

>  <CONTRIBUTOR>  (319) 
University of Tokyo Team, {Faculty of Engineering, University of Tokyo

>  <COMMENT>  (319) 
SMILES=CC(=C(C)2)C[Si](C)(C2)c(c1)cccc1
InChI=InChI=1S/C13H18Si/c1-11-9-14(3,10-12(11)2)13-7-5-4-6-8-13/h4-8H,9-10H2,1-3H3
computed SMILES=C=1C=CC(=CC1)[Si]2(C)CC(=C(C)C2)C
accession=JP011688
date=2016.01.19 (Created 2008.10.21, modified 2011.05.06)
author=FAC. TECHNOLOGY, HIROSHIMA UNIV.
license=CC BY-NC-SA
exact mass=202.11778
ionization energy=70 eV
ion type=[M]+*
computed spectral entropy=3.3082756535387348
computed normalized entropy=0.8742362232289212
SPLASH=splash10-0pb9-6910000000-f239a46c6a82de5f0f2b
submitter=submitter = University of Tokyo Team (Faculty of Engineering, University of Tokyo)
MoNA Rating=3.75

>  <NUM PEAKS>  (319) 
44

>  <MASS SPECTRAL PEAKS>  (319) 
50 7.4
51 19.1
52 7.4
53 83
54 13.8
55 17
57 6.4
59 61.7
65 8.5
66 8.5
67 34
68 4.3
69 18.1
73 6.4
77 9.6
78 9.6
79 23.4
81 11.7
83 12.8
91 7.4
93 10.6
95 8.5
103 7.4
105 99.99
106 12.8
107 12.8
109 94.7
110 9.6
111 5.3
119 9.6
120 12.8
121 33
123 11.7
124 77.7
125 12.8
131 4.3
145 22.3
147 4.3
159 8.5
185 5.3
187 60.6
188 11.7
202 57.4
203 10.6

>  <PREDICTED SPECTRUM>  (319) 
26 14
27 31
28 4
29 17
39 112
41 221
42 93
43 308
44 98
45 163
46 17
47 59
49 41
50 129
51 273
52 157
53 334
54 127
55 317
56 51
57 92
58 29
59 438
60 47
61 92
62 3
63 87
65 186
66 86
67 289
68 137
69 244
70 30
71 88
73 83
74 71
75 73
76 48
77 314
78 276
79 300
80 125
81 262
82 126
83 201
84 59
85 112
91 230
92 140
93 249
95 222
96 91
97 115
98 125
99 36
103 84
104 51
105 881
106 378
107 266
108 59
109 696
110 356
111 362
117 6
118 12
119 244
120 414
121 483
122 189
123 272
124 999
125 491
126 128
129 21
130 21
131 256
132 73
133 90
143 66
144 1
145 372
146 156
147 95
148 19
157 31
158 34
159 298
160 85
161 26
183 148
185 195
186 63
187 836
188 330
189 121
200 31
201 122
202 740
203 299
204 123

$$$$

     RDKit          2D

 26 27  0  0  0  0  0  0  0  0999 V2000
    3.1487   -2.7991    0.0000 C   0  0  0  0  0  0  0  0  0  0  0  0
    5.1978   -2.2504    0.0000 C   0  0  0  0  0  0  0  0  0  0  0  0
    4.6491   -0.2013    0.0000 C   0  0  0  0  0  0  0  0  0  0  0  0
   -4.8639    0.7888    0.0000 C   0  0  0  0  0  0  0  0  0  0  0  0
   -6.9129    0.2394    0.0000 C   0  0  0  0  0  0  0  0  0  0  0  0
   -6.3635   -1.8095    0.0000 C   0  0  0  0  0  0  0  0  0  0  0  0
    4.2335    0.4414    0.0000 C   0  0  0  0  0  0  0  0  0  0  0  0
    4.7822    2.4905    0.0000 C   0  0  0  0  0  0  0  0  0  0  0  0
   -5.2786   -2.4094    0.0000 C   0  0  0  0  0  0  0  0  0  0  0  0
   -3.3502   -2.4091    0.0000 C   0  0  0  0  0  0  0  0  0  0  0  0
   -1.7157    1.7401    0.0000 C   0  0  0  0  0  0  0  0  0  0  0  0
   -3.0157    0.9901    0.0000 C   0  0  0  0  0  0  0  0  0  0  0  0
   -1.7157   -1.2599    0.0000 C   0  0  0  0  0  0  0  0  0  0  0  0
    0.8843    1.7401    0.0000 C   0  0  0  0  0  0  0  0  0  0  0  0
    0.8843   -1.2599    0.0000 C   0  0  0  0  0  0  0  0  0  0  0  0
    0.8843   -2.7599    0.0000 H   0  0  0  0  0  0  0  0  0  0  0  0
   -0.4157    0.9901    0.0000 C   0  0  0  0  0  0  0  0  0  0  0  0
   -0.4157   -0.5099    0.0000 C   0  0  0  0  0  0  0  0  0  0  0  0
   -3.0157   -0.5099    0.0000 C   0  0  0  0  0  0  0  0  0  0  0  0
    2.1843   -0.5099    0.0000 C   0  0  0  0  0  0  0  0  0  0  0  0
    2.1843    0.9901    0.0000 C   0  0  0  0  0  0  0  0  0  0  0  0
    2.7331    3.0392    0.0000 O   0  0  0  0  0  0  0  0  0  0  0  0
    3.8989   -1.5002    0.0000 Si  0  0  0  0  0  4  0  0  0  0  0  0
   -5.6137   -0.5103    0.0000 Si  0  0  0  0  0  4  0  0  0  0  0  0
    3.4833    1.7403    0.0000 Si  0  0  0  0  0  4  0  0  0  0  0  0
   -4.3146   -1.2601    0.0000 Si  0  0  0  0  0  4  0  0  0  0  0  0
 15 16  1  0
 12 11  2  0
 17 11  1  0
 17 14  1  0
 18 13  1  0
 18 15  1  0
 18 17  2  0
 19 12  1  0
 19 13  2  0
 20 15  1  0
 21 14  2  0
 21 20  1  0
 23  1  1  0
 23  2  1  0
 23  3  1  0
 23 20  1  0
 24  4  1  0
 24  5  1  0
 24  6  1  0
 25  7  1  0
 25  8  1  0
 25 21  1  0
 25 22  1  0
 26  9  1  0
 26 10  1  0
 26 19  1  0
 26 24  1  0
M  ISO  1  16   2
M  END
>  <NAME>  (320) 
5-DEUTERIO-6-HYDRO-7-(HYDROXYDIMETHYLSILYL)-3-(PENTAMETHYLDISILANYL)-6-(TRIMETHYLSILYL)NAPHTHALENE

>  <SYNONYMS>  (320) 


>  <SPECTRUM TYPE>  (320) 
MS1

>  <INSTRUMENT TYPE>  (320) 
EI-B

>  <INSTRUMENT>  (320) 
SHIMADZU QP-1000

>  <ION MODE>  (320) 
P

>  <INCHIKEY>  (320) 
OHHXNTFRQNXLRK-RWFJLFJASA-N

>  <FORMULA>  (320) 
C20H38OSi4

>  <EXACT MASS>  (320) 
407.206248702

>  <MW>  (320) 
407

>  <ID>  (320) 
JP011686

>  <CONTRIBUTOR>  (320) 
University of Tokyo Team, {Faculty of Engineering, University of Tokyo

>  <COMMENT>  (320) 
SMILES=C[Si](C)(O)C(=C1)C([Si](C)(C)C)C([2H])c(c2)c(ccc2[Si](C)(C)[Si](C)(C)C)1
InChI=InChI=1S/C20H38OSi4/c1-22(2,3)19-15-17-13-18(25(9,10)23(4,5)6)12-11-16(17)14-20(19)24(7,8)21/h11-14,19,21H,15H2,1-10H3/i15D
computed SMILES=[H]C1C=2C=C(C=CC2C=C(C1[Si](C)(C)C)[Si](O)(C)C)[Si](C)(C)[Si](C)(C)C
accession=JP011686
date=2016.01.19 (Created 2008.10.21, modified 2011.05.06)
author=FAC. TECHNOLOGY, HIROSHIMA UNIV.
license=CC BY-NC-SA
exact mass=406.19997
ionization energy=70 eV
ion type=[M]+*
computed spectral entropy=2.636702270281247
computed normalized entropy=0.767825304310231
SPLASH=splash10-00di-9301000000-0f9ba0a73a3ef79685c9
submitter=submitter = University of Tokyo Team (Faculty of Engineering, University of Tokyo)
MoNA Rating=3.75

>  <NUM PEAKS>  (320) 
31

>  <MASS SPECTRAL PEAKS>  (320) 
43 7.4
45 27.4
47 6.3
59 7.4
60 1.1
73 99.99
74 8.4
75 42.1
117 4.2
131 16.8
132 3.2
133 14.7
134 3.2
147 11.6
148 1.1
170 1.1
184 1.1
185 3.2
186 14.7
187 3.2
205 5.3
244 3.2
245 1.1
246 3.2
259 3.2
260 4.2
261 1.1
333 1.1
335 21.1
336 7.4
393 3.2

>  <PREDICTED SPECTRUM>  (320) 
29 4
40 14
42 3
43 111
44 179
45 312
46 50
55 5
57 55
58 125
59 274
60 38
61 8
69 9
72 26
73 999
74 284
75 282
76 0
77 96
83 41
95 16
96 24
97 19
98 3
99 25
100 94
101 56
102 44
103 35
104 71
105 25
110 17
113 1
114 19
115 133
116 121
117 60
118 21
119 26
124 30
126 45
127 46
128 53
129 94
130 101
131 208
132 36
133 61
134 42
135 81
145 192
146 52
147 68
149 123
152 34
153 3
154 27
155 34
156 5
158 30
160 25
171 63
175 44
176 11
177 25
178 21
180 16
184 16
185 20
186 135
187 110
188 76
189 8
198 0
199 25
200 82
201 60
202 132
203 58
204 58
205 42
206 15
216 57
218 77
219 88
220 13
230 93
231 102
232 32
233 8
244 106
245 135
246 154
247 56
258 106
260 90
261 60
274 147
275 12
276 176
277 221
278 73
288 65
289 43
290 107
291 122
292 53
293 23
303 16
304 610
305 246
306 129
307 7
308 14
310 66
317 62
318 367
319 395
320 150
321 26
333 135
334 321
335 231
336 11
379 15
392 91
393 112
401 22
406 19
408 100
409 12
410 29

$$$$

     RDKit          2D

 28 31  0  0  0  0  0  0  0  0999 V2000
    0.0010   -3.7500    0.0000 C   0  0  0  0  0  0  0  0  0  0  0  0
    2.5990    3.7500    0.0000 C   0  0  0  0  0  0  0  0  0  0  0  0
    5.7335   -2.2197    0.0000 C   0  0  0  0  0  0  0  0  0  0  0  0
   -0.2410    7.2297    0.0000 C   0  0  0  0  0  0  0  0  0  0  0  0
    4.7686   -1.0702    0.0000 C   0  0  0  0  0  0  0  0  0  0  0  0
    5.2203   -3.6292    0.0000 C   0  0  0  0  0  0  0  0  0  0  0  0
    1.2370    6.9688    0.0000 C   0  0  0  0  0  0  0  0  0  0  0  0
   -1.2050    6.0805    0.0000 C   0  0  0  0  0  0  0  0  0  0  0  0
   -2.6000   -0.7500    0.0000 C   0  0  0  0  0  0  0  0  0  0  0  0
   -2.6000    0.7500    0.0000 C   0  0  0  0  0  0  0  0  0  0  0  0
    3.2905   -1.3301    0.0000 C   0  0  0  0  0  0  0  0  0  0  0  0
    3.7421   -3.8891    0.0000 C   0  0  0  0  0  0  0  0  0  0  0  0
    1.7510    5.5588    0.0000 C   0  0  0  0  0  0  0  0  0  0  0  0
   -0.6910    4.6704    0.0000 C   0  0  0  0  0  0  0  0  0  0  0  0
   -1.3000   -1.5000    0.0000 C   0  0  0  0  0  0  0  0  0  0  0  0
   -1.3000    1.5000    0.0000 C   0  0  0  0  0  0  0  0  0  0  0  0
    2.6000   -0.7500    0.0000 C   0  0  0  0  0  0  0  0  0  0  0  0
    2.6000    0.7500    0.0000 C   0  0  0  0  0  0  0  0  0  0  0  0
    2.7772   -2.7395    0.0000 C   0  0  0  0  0  0  0  0  0  0  0  0
    0.7870    4.4095    0.0000 C   0  0  0  0  0  0  0  0  0  0  0  0
    0.0000   -0.7500    0.0000 C   0  0  0  0  0  0  0  0  0  0  0  0
    0.0000    0.7500    0.0000 C   0  0  0  0  0  0  0  0  0  0  0  0
    1.3000   -1.5000    0.0000 C   0  0  0  0  0  0  0  0  0  0  0  0
    1.3000    1.5000    0.0000 C   0  0  0  0  0  0  0  0  0  0  0  0
    1.8130   -4.4095    0.0000 Cl  0  0  0  0  0  0  0  0  0  0  0  0
   -0.1772    2.7395    0.0000 Cl  0  0  0  0  0  0  0  0  0  0  0  0
    1.3000   -3.0000    0.0000 Si  0  0  0  0  0  4  0  0  0  0  0  0
    1.3000    3.0000    0.0000 Si  0  0  0  0  0  4  0  0  0  0  0  0
  5  3  2  0
  6  3  1  0
  7  4  2  0
  8  4  1  0
 10  9  2  0
 11  5  1  0
 12  6  2  0
 13  7  1  0
 14  8  2  0
 15  9  1  0
 16 10  1  0
 18 17  1  0
 19 11  2  0
 19 12  1  0
 20 13  2  0
 20 14  1  0
 21 15  2  0
 22 16  2  0
 22 21  1  0
 23 17  2  0
 23 21  1  0
 24 18  2  0
 24 22  1  0
 27  1  1  0
 27 19  1  0
 27 23  1  0
 27 25  1  0
 28  2  1  0
 28 20  1  0
 28 24  1  0
 28 26  1  0
M  END
>  <NAME>  (321) 
1,4-BIS(CHLOROMETHYLPHENYLSILYL)NAPHTHALENE

>  <SYNONYMS>  (321) 


>  <SPECTRUM TYPE>  (321) 
MS1

>  <INSTRUMENT TYPE>  (321) 
EI-B

>  <INSTRUMENT>  (321) 
SHIMADZU QP-1000

>  <ION MODE>  (321) 
P

>  <INCHIKEY>  (321) 
KMXNBQNAAWVWLF-UHFFFAOYSA-N

>  <FORMULA>  (321) 
C24H22Cl2Si2

>  <EXACT MASS>  (321) 
436.06370912399996

>  <MW>  (321) 
436

>  <ID>  (321) 
JP011685

>  <CONTRIBUTOR>  (321) 
University of Tokyo Team, {Faculty of Engineering, University of Tokyo

>  <COMMENT>  (321) 
SMILES=c(c4)ccc(c4)[Si](C)(Cl)c(c2)c(c3)c(ccc3)c(c2)[Si](C)(Cl)c(c1)cccc1
InChI=InChI=1S/C24H22Cl2Si2/c1-27(25,19-11-5-3-6-12-19)23-17-18-24(22-16-10-9-15-21(22)23)28(2,26)20-13-7-4-8-14-20/h3-18H,1-2H3
computed SMILES=Cl[Si](C=1C=CC=CC1)(C=2C=CC(=C3C=CC=CC32)[Si](Cl)(C=4C=CC=CC4)C)C
accession=JP011685
date=2016.01.19 (Created 2008.10.21, modified 2011.05.06)
author=FAC. TECHNOLOGY, HIROSHIMA UNIV.
license=CC BY-NC-SA
exact mass=436.06371
ionization energy=70 eV
ion type=[M]+*
computed spectral entropy=3.995411685558816
computed normalized entropy=0.8405040243128137
SPLASH=splash10-06su-9521300000-c78d06fa08c79fe79b37
submitter=submitter = University of Tokyo Team (Faculty of Engineering, University of Tokyo)
MoNA Rating=3.75

>  <NUM PEAKS>  (321) 
116

>  <MASS SPECTRAL PEAKS>  (321) 
32 91.5
36 5.3
38 3.2
39 5.3
40 7.4
41 4.3
43 12.8
44 5.3
45 2.1
50 4.3
51 12.8
53 11.7
55 2.1
57 2.1
63 99.99
64 6.4
65 41.5
66 2.1
67 3.2
69 2.1
73 3.2
77 13.8
78 8.5
79 8.5
80 2.1
81 3.2
89 2.1
91 66
92 3.2
93 5.3
105 13.8
113 2.1
115 4.3
119 8.5
120 2.1
121 2.1
126 2.1
135 4.3
139 3.2
140 2.1
141 3.2
142 3.2
143 7.4
144 3.2
146 3.2
147 2.1
153 5.3
154 2.1
155 78.7
156 11.7
157 27.7
158 3.2
161 7.4
162 2.1
164 5.3
165 4.3
167 7.4
168 2.1
169 7.4
175 2.1
177 2.1
179 3.2
181 2.1
182 5.3
183 2.1
189 4.3
191 2.1
195 2.1
197 4.3
200 2.1
201 3.2
202 16
203 6.4
204 3.2
205 4.3
219 3.2
228 2.1
229 3.2
230 3.2
231 27.7
232 5.3
241 3.2
242 2.1
243 2.1
245 17
246 9.6
247 3.2
265 4.3
281 5.3
282 2.1
283 3.2
305 2.1
307 3.2
323 10.6
324 2.1
343 8.5
344 3.2
345 7.4
346 0.21
347 2.1
358 5.3
359 3.2
360 3.2
385 4.3
387 2.1
421 18.1
422 5.3
423 14.9
424 4.3
425 3.2
436 45.7
437 18.1
438 27.7
439 12.8
440 9.6
441 3.2

>  <PREDICTED SPECTRUM>  (321) 
43 60
51 82
52 34
55 43
63 224
64 17
65 279
66 36
71 15
75 54
76 51
77 127
78 239
79 77
89 22
90 31
91 285
92 292
93 116
95 3
97 15
103 68
104 68
105 42
106 20
107 44
109 11
111 33
115 289
116 7
117 78
119 83
125 105
126 142
127 185
128 279
129 174
131 107
133 83
134 72
135 107
138 15
139 96
140 42
141 299
142 124
143 40
145 44
147 99
151 54
152 167
153 472
154 457
155 999
156 343
157 220
161 12
162 54
163 25
164 15
165 372
166 248
167 498
169 98
170 94
171 70
172 7
173 195
174 25
175 160
176 84
177 137
178 281
179 163
180 403
181 395
183 247
187 56
188 85
189 182
190 60
191 41
193 5
195 47
200 7
201 101
202 221
203 419
204 399
205 352
206 149
207 15
212 3
215 94
216 85
217 630
218 135
219 174
221 88
224 67
226 9
229 75
230 213
231 407
232 201
233 199
235 41
243 60
244 4
245 106
246 7
247 207
248 113
249 175
250 9
251 10
254 8
257 25
261 26
265 345
266 145
267 249
269 90
275 13
277 112
279 217
281 188
282 216
287 22
297 12
301 86
303 149
305 18
307 210
309 224
311 90
321 75
323 285
324 103
329 23
343 219
344 63
345 265
346 119
358 105
359 20
399 35
400 103
421 430
422 193
423 199
424 226
425 101
436 815
437 498
438 749
439 398
440 333
441 104

$$$$

     RDKit          2D

  9  9  0  0  0  0  0  0  0  0999 V2000
    0.2422   -1.8255    0.0000 C   0  0  0  0  0  0  0  0  0  0  0  0
    1.2100    0.0622    0.0000 C   0  0  0  0  0  0  0  0  0  0  0  0
   -0.6777    1.0300    0.0000 C   0  0  0  0  0  0  0  0  0  0  0  0
   -3.6055   -2.2777    0.0000 C   0  0  0  0  0  0  0  0  0  0  0  0
   -2.1055   -2.2777    0.0000 C   0  0  0  0  0  0  0  0  0  0  0  0
   -4.0655   -0.8577    0.0000 C   0  0  0  0  0  0  0  0  0  0  0  0
   -1.6455   -0.8577    0.0000 C   0  0  0  0  0  0  0  0  0  0  0  0
   -2.8555    0.0323    0.0000 S   0  0  0  0  0  0  0  0  0  0  0  0
   -0.2177   -0.3977    0.0000 Si  0  0  0  0  0  4  0  0  0  0  0  0
  5  4  1  0
  6  4  2  0
  7  5  2  0
  8  6  1  0
  8  7  1  0
  9  1  1  0
  9  2  1  0
  9  3  1  0
  9  7  1  0
M  END
>  <NAME>  (322) 
2-TRIMETHYLSILYLTHIOPHENE

>  <SYNONYMS>  (322) 


>  <SPECTRUM TYPE>  (322) 
MS1

>  <INSTRUMENT TYPE>  (322) 
EI-B

>  <INSTRUMENT>  (322) 
SHIMADZU QP-1000

>  <ION MODE>  (322) 
P

>  <INCHIKEY>  (322) 
OANGLGSZPSFVDY-UHFFFAOYSA-N

>  <FORMULA>  (322) 
C7H12SSi

>  <EXACT MASS>  (322) 
156.04289791399998

>  <MW>  (322) 
156

>  <ID>  (322) 
JP011684

>  <CONTRIBUTOR>  (322) 
University of Tokyo Team, {Faculty of Engineering, University of Tokyo

>  <COMMENT>  (322) 
SMILES=C[Si](C)(C)c(c1)scc1
InChI=InChI=1S/C7H12SSi/c1-9(2,3)7-5-4-6-8-7/h4-6H,1-3H3
computed SMILES=S1C=CC=C1[Si](C)(C)C
accession=JP011684
date=2016.01.19 (Created 2008.10.21, modified 2011.05.06)
author=FAC. TECHNOLOGY, HIROSHIMA UNIV.
license=CC BY-NC-SA
exact mass=156.0429
ionization energy=70 eV
ion type=[M]+*
computed spectral entropy=3.0645203811559036
computed normalized entropy=0.8252217342521052
SPLASH=splash10-0006-7900000000-eeb25dcec03804ae3ac4
submitter=submitter = University of Tokyo Team (Faculty of Engineering, University of Tokyo)
MoNA Rating=3.75

>  <NUM PEAKS>  (322) 
41

>  <MASS SPECTRAL PEAKS>  (322) 
51 21.8
53 31
55 15.5
57 7
58 8.5
59 8.5
61 5.6
63 4.2
65 12.7
66 12
67 9.2
69 9.2
71 9.2
73 50
75 25.4
77 6.3
79 2.1
81 2.8
83 19.7
85 8.5
86 1.4
87 1.4
91 4.2
95 2.1
97 15.5
98 1.4
99 1.4
101 4.2
109 1.4
111 9.2
113 3.5
115 24.6
117 1.4
125 2.1
127 2.1
141 99.99
142 63.4
143 38
156 80.3
157 11.3
158 7

>  <PREDICTED SPECTRUM>  (322) 
15 18
27 46
28 26
29 56
31 23
32 4
38 10
39 84
40 5
41 3
43 163
44 64
45 199
46 35
47 63
49 5
50 22
51 49
52 25
53 97
54 25
55 63
57 60
58 62
59 84
60 28
61 23
63 33
64 0
65 69
66 46
67 96
68 46
69 103
70 38
71 68
72 24
73 217
74 51
75 84
77 43
79 48
80 8
81 71
82 40
83 106
84 82
85 72
86 7
93 9
95 75
96 42
97 201
98 55
99 62
100 5
109 46
110 40
111 129
112 32
113 43
114 11
115 36
123 12
125 88
139 33
140 35
141 999
142 369
143 240
144 37
155 22
156 400
157 151
158 82
159 3

$$$$

     RDKit          2D

 26 29  0  0  0  0  0  0  0  0999 V2000
    0.7870    4.4095    0.0000 C   0  0  0  0  0  0  0  0  0  0  0  0
   -0.1772    2.7395    0.0000 C   0  0  0  0  0  0  0  0  0  0  0  0
    2.5990    5.2500    0.0000 C   0  0  0  0  0  0  0  0  0  0  0  0
    3.1121    2.3405    0.0000 C   0  0  0  0  0  0  0  0  0  0  0  0
   -2.6000   -0.7500    0.0000 C   0  0  0  0  0  0  0  0  0  0  0  0
    6.9693    0.5604    0.0000 C   0  0  0  0  0  0  0  0  0  0  0  0
   -2.6000    0.7500    0.0000 C   0  0  0  0  0  0  0  0  0  0  0  0
    5.4921    0.3000    0.0000 C   0  0  0  0  0  0  0  0  0  0  0  0
    2.6000   -0.7500    0.0000 C   0  0  0  0  0  0  0  0  0  0  0  0
    6.0663    5.6814    0.0000 C   0  0  0  0  0  0  0  0  0  0  0  0
   -1.3000   -1.5000    0.0000 C   0  0  0  0  0  0  0  0  0  0  0  0
    7.4822    1.9709    0.0000 C   0  0  0  0  0  0  0  0  0  0  0  0
    1.3000   -1.5000    0.0000 C   0  0  0  0  0  0  0  0  0  0  0  0
    7.0307    4.5314    0.0000 C   0  0  0  0  0  0  0  0  0  0  0  0
   -1.3000    1.5000    0.0000 C   0  0  0  0  0  0  0  0  0  0  0  0
    4.5277    1.4500    0.0000 C   0  0  0  0  0  0  0  0  0  0  0  0
    2.6000    0.7500    0.0000 C   0  0  0  0  0  0  0  0  0  0  0  0
    4.5891    5.4210    0.0000 C   0  0  0  0  0  0  0  0  0  0  0  0
    0.0000   -0.7500    0.0000 C   0  0  0  0  0  0  0  0  0  0  0  0
    6.5178    3.1209    0.0000 C   0  0  0  0  0  0  0  0  0  0  0  0
    0.0000    0.7500    0.0000 C   0  0  0  0  0  0  0  0  0  0  0  0
    5.0406    2.8605    0.0000 C   0  0  0  0  0  0  0  0  0  0  0  0
    1.3000    1.5000    0.0000 C   0  0  0  0  0  0  0  0  0  0  0  0
    4.0762    4.0105    0.0000 C   0  0  0  0  0  0  0  0  0  0  0  0
    1.3000    3.0000    0.0000 Si  0  0  0  0  0  4  0  0  0  0  0  0
    2.5990    3.7500    0.0000 Si  0  0  0  0  0  4  0  0  0  0  0  0
  7  5  2  0
  8  6  2  0
 11  5  1  0
 12  6  1  0
 13  9  2  0
 14 10  2  0
 15  7  1  0
 16  8  1  0
 17  9  1  0
 18 10  1  0
 19 11  2  0
 19 13  1  0
 20 12  2  0
 20 14  1  0
 21 15  2  0
 21 19  1  0
 22 16  2  0
 22 20  1  0
 23 17  2  0
 23 21  1  0
 24 18  2  0
 24 22  1  0
 25  1  1  0
 25  2  1  0
 25 23  1  0
 26  3  1  0
 26  4  1  0
 26 24  1  0
 26 25  1  0
M  END
>  <NAME>  (323) 
1,2-BIS(1-NAPHTHYL)TETRAMETHYLDISILANE

>  <SYNONYMS>  (323) 


>  <SPECTRUM TYPE>  (323) 
MS1

>  <INSTRUMENT TYPE>  (323) 
EI-B

>  <INSTRUMENT>  (323) 
SHIMADZU QP-1000

>  <ION MODE>  (323) 
P

>  <INCHIKEY>  (323) 
RLWPPMCLXCJLGQ-UHFFFAOYSA-N

>  <FORMULA>  (323) 
C24H26Si2

>  <EXACT MASS>  (323) 
370.157303892

>  <MW>  (323) 
370

>  <ID>  (323) 
JP011683

>  <CONTRIBUTOR>  (323) 
University of Tokyo Team, {Faculty of Engineering, University of Tokyo

>  <COMMENT>  (323) 
SMILES=c(c4)cc(c3)c(c4)c(cc3)[Si](C)(C)[Si](C)(C)c(c1)c(c2)c(ccc2)cc1
InChI=InChI=1S/C24H26Si2/c1-25(2,23-17-9-13-19-11-5-7-15-21(19)23)26(3,4)24-18-10-14-20-12-6-8-16-22(20)24/h5-18H,1-4H3
computed SMILES=C=1C=CC2=C(C1)C=CC=C2[Si](C)(C)[Si](C3=CC=CC=4C=CC=CC43)(C)C
accession=JP011683
date=2016.01.19 (Created 2008.10.21, modified 2011.05.06)
author=FAC. TECHNOLOGY, HIROSHIMA UNIV.
license=CC BY-NC-SA
exact mass=370.1573
ionization energy=70 eV
ion type=[M]+*
computed spectral entropy=2.460193582065781
computed normalized entropy=0.7464549011639552
SPLASH=splash10-000i-0910000000-85f148566f422969263b
submitter=submitter = University of Tokyo Team (Faculty of Engineering, University of Tokyo)
MoNA Rating=3.75

>  <NUM PEAKS>  (323) 
27

>  <MASS SPECTRAL PEAKS>  (323) 
45 11.6
54 2.1
115 3.2
128 1.1
129 4.2
131 3.2
141 3.2
143 1.1
153 1.1
155 14.7
156 1.1
157 1.1
167 10.5
168 3.2
169 13.7
170 3.2
181 3.2
183 10.5
184 2.1
185 99.99
186 17.9
187 4.2
227 3.2
297 23.2
298 6.3
370 12.6
371 4.2

>  <PREDICTED SPECTRUM>  (323) 
40 48
43 82
44 19
45 127
47 9
59 19
73 118
112 9
113 28
114 4
115 131
116 10
117 11
125 5
127 23
128 89
129 272
131 26
141 141
142 49
143 148
153 44
154 70
155 324
156 112
157 262
167 507
168 174
169 465
170 257
171 109
181 143
182 82
183 366
184 197
185 999
186 552
187 299
213 21
227 220
228 79
229 2
252 38
265 78
295 29
297 707
298 329
299 67
370 335
371 161
372 9

$$$$

     RDKit          2D

 23 24  0  0  0  0  0  0  0  0999 V2000
    0.6369    1.4377    0.0000 C   0  0  0  0  0  0  0  0  0  0  0  0
    0.4221    5.4277    0.0000 C   0  0  0  0  0  0  0  0  0  0  0  0
   -1.0779    6.9277    0.0000 C   0  0  0  0  0  0  0  0  0  0  0  0
   -2.5779    5.4277    0.0000 C   0  0  0  0  0  0  0  0  0  0  0  0
   -3.1646    2.5801    0.0000 C   0  0  0  0  0  0  0  0  0  0  0  0
   -2.2681    0.6576    0.0000 C   0  0  0  0  0  0  0  0  0  0  0  0
   -0.3455    1.5541    0.0000 C   0  0  0  0  0  0  0  0  0  0  0  0
    4.5340    5.1877    0.0000 C   0  0  0  0  0  0  0  0  0  0  0  0
   -5.9841    4.7913    0.0000 C   0  0  0  0  0  0  0  0  0  0  0  0
    4.5345    3.6869    0.0000 C   0  0  0  0  0  0  0  0  0  0  0  0
    3.2345    5.9385    0.0000 C   0  0  0  0  0  0  0  0  0  0  0  0
   -5.0192    5.9409    0.0000 C   0  0  0  0  0  0  0  0  0  0  0  0
   -5.4708    3.3819    0.0000 C   0  0  0  0  0  0  0  0  0  0  0  0
    3.2354    2.9369    0.0000 C   0  0  0  0  0  0  0  0  0  0  0  0
    1.9354    5.1885    0.0000 C   0  0  0  0  0  0  0  0  0  0  0  0
   -3.5410    5.6810    0.0000 C   0  0  0  0  0  0  0  0  0  0  0  0
   -3.9927    3.1220    0.0000 C   0  0  0  0  0  0  0  0  0  0  0  0
    0.6369    2.9377    0.0000 C   0  0  0  0  0  0  0  0  0  0  0  0
    1.9359    3.6877    0.0000 C   0  0  0  0  0  0  0  0  0  0  0  0
   -3.0278    4.2715    0.0000 C   0  0  0  0  0  0  0  0  0  0  0  0
   -1.0779    5.4277    0.0000 Si  0  0  0  0  0  4  0  0  0  0  0  0
   -1.7551    2.0671    0.0000 Si  0  0  0  0  0  4  0  0  0  0  0  0
   -1.0779    3.9277    0.0000 Si  0  0  0  0  0  4  0  0  0  0  0  0
 10  8  2  0
 11  8  1  0
 12  9  2  0
 13  9  1  0
 14 10  1  0
 15 11  2  0
 16 12  1  0
 17 13  2  0
 18  1  1  0
 19 14  2  0
 19 15  1  0
 19 18  1  0
 20 16  2  0
 20 17  1  0
 21  2  1  0
 21  3  1  0
 21  4  1  0
 22  5  1  0
 22  6  1  0
 22  7  1  0
 23 18  1  0
 23 20  1  0
 23 21  1  0
 23 22  1  0
M  END
>  <NAME>  (324) 
PHENYL(1-PHENYLETHYL)BIS(TRIMETHYLSILYL)SILANE

>  <SYNONYMS>  (324) 


>  <SPECTRUM TYPE>  (324) 
MS1

>  <INSTRUMENT TYPE>  (324) 
EI-B

>  <INSTRUMENT>  (324) 
SHIMADZU QP-1000

>  <ION MODE>  (324) 
P

>  <INCHIKEY>  (324) 
SRINWIMSOLZBIV-UHFFFAOYSA-N

>  <FORMULA>  (324) 
C20H32Si3

>  <EXACT MASS>  (324) 
356.18118061399997

>  <MW>  (324) 
356

>  <ID>  (324) 
JP011682

>  <CONTRIBUTOR>  (324) 
University of Tokyo Team, {Faculty of Engineering, University of Tokyo

>  <COMMENT>  (324) 
SMILES=c(c2)ccc(c2)C(C)[Si](c(c1)cccc1)([Si](C)(C)C)[Si](C)(C)C
InChI=InChI=1S/C20H32Si3/c1-18(19-14-10-8-11-15-19)23(21(2,3)4,22(5,6)7)20-16-12-9-13-17-20/h8-18H,1-7H3
computed SMILES=C=1C=CC(=CC1)C(C)[Si](C=2C=CC=CC2)([Si](C)(C)C)[Si](C)(C)C
accession=JP011682
date=2016.01.19 (Created 2008.10.21, modified 2011.05.06)
author=FAC. TECHNOLOGY, HIROSHIMA UNIV.
license=CC BY-NC-SA
exact mass=356.18118
ionization energy=70 eV
ion type=[M]+*
computed spectral entropy=2.852222994206614
computed normalized entropy=0.7290915698218029
SPLASH=splash10-00dr-7900000000-f67aa2052b7adc1ad76a
submitter=submitter = University of Tokyo Team (Faculty of Engineering, University of Tokyo)
MoNA Rating=3.75

>  <NUM PEAKS>  (324) 
50

>  <MASS SPECTRAL PEAKS>  (324) 
51 1.4
53 3.5
55 2.1
57 3.5
58 1.4
59 19.7
69 2.1
73 99.99
74 7
75 2.8
77 3.5
79 3.5
83 1.4
85 1.4
91 2.1
93 1.4
95 1.4
99 1.4
101 1.4
102 1.4
103 2.1
105 21.8
106 2.1
107 6.3
109 1.4
115 1.4
119 2.1
121 11.3
122 1.4
131 6.3
132 1.4
133 2.1
135 72.5
136 8.5
137 2.1
145 4.2
146 3.5
147 2.8
161 2.1
163 3.5
175 1.4
177 8.5
179 2.8
191 5.6
193 2.1
206 8.6
207 2
251 6.8
252 2.1
356 2.5

>  <PREDICTED SPECTRUM>  (324) 
26 2
27 16
28 27
29 33
31 28
41 43
43 104
44 24
45 107
46 58
51 108
52 33
53 37
55 30
57 57
58 101
59 311
60 26
69 45
73 871
74 198
75 211
76 34
77 248
78 140
79 67
85 0
89 31
91 184
92 10
93 63
102 20
103 111
104 40
105 489
106 238
107 93
115 71
117 20
118 27
119 108
120 72
121 290
122 14
129 52
131 204
132 93
133 121
134 99
135 999
136 335
137 117
145 267
146 72
147 208
148 57
149 80
150 15
151 72
152 24
159 46
161 74
162 10
163 149
164 30
165 18
177 134
178 159
179 69
191 77
192 54
193 72
194 55
205 65
206 129
221 46
237 6
251 133
252 54
253 38
341 109
342 43
356 150
357 55
358 5

$$$$

     RDKit          2D

 19 21  0  0  0  0  0  0  0  0999 V2000
   -3.5362   -0.0577    0.0000 C   0  0  0  0  0  0  0  0  0  0  0  0
   -1.7977   -1.0614    0.0000 C   0  0  0  0  0  0  0  0  0  0  0  0
   -7.1213    2.7118    0.0000 C   0  0  0  0  0  0  0  0  0  0  0  0
    2.3933   -2.7815    0.0000 C   0  0  0  0  0  0  0  0  0  0  0  0
   -6.6580    1.2843    0.0000 C   0  0  0  0  0  0  0  0  0  0  0  0
   -6.1174    3.8274    0.0000 C   0  0  0  0  0  0  0  0  0  0  0  0
    2.8575   -1.3543    0.0000 C   0  0  0  0  0  0  0  0  0  0  0  0
    0.9254   -3.0940    0.0000 C   0  0  0  0  0  0  0  0  0  0  0  0
   -5.1908    0.9724    0.0000 C   0  0  0  0  0  0  0  0  0  0  0  0
   -4.6502    3.5156    0.0000 C   0  0  0  0  0  0  0  0  0  0  0  0
    1.8538   -0.2396    0.0000 C   0  0  0  0  0  0  0  0  0  0  0  0
   -0.0783   -1.9793    0.0000 C   0  0  0  0  0  0  0  0  0  0  0  0
   -1.6050    2.7799    0.0000 C   0  0  0  0  0  0  0  0  0  0  0  0
   -0.3059    2.0299    0.0000 C   0  0  0  0  0  0  0  0  0  0  0  0
   -4.1869    2.0880    0.0000 C   0  0  0  0  0  0  0  0  0  0  0  0
    0.3859   -0.5521    0.0000 C   0  0  0  0  0  0  0  0  0  0  0  0
   -2.7197    1.7762    0.0000 C   0  0  0  0  0  0  0  0  0  0  0  0
   -0.6178    0.5627    0.0000 C   0  0  0  0  0  0  0  0  0  0  0  0
   -2.1096    0.4059    0.0000 Si  0  0  0  0  0  4  0  0  0  0  0  0
  5  3  2  0
  6  3  1  0
  7  4  2  0
  8  4  1  0
  9  5  1  0
 10  6  2  0
 11  7  1  0
 12  8  2  0
 14 13  2  0
 15  9  2  0
 15 10  1  0
 16 11  2  0
 16 12  1  0
 17 13  1  0
 17 15  1  0
 18 14  1  0
 18 16  1  0
 19  1  1  0
 19  2  1  0
 19 17  1  0
 19 18  1  0
M  END
>  <NAME>  (325) 
3,4-DIMETHYL-1,1-DIPHENYL-1-SILACYCLOPENT-3-ENE

>  <SYNONYMS>  (325) 


>  <SPECTRUM TYPE>  (325) 
MS1

>  <INSTRUMENT TYPE>  (325) 
EI-B

>  <INSTRUMENT>  (325) 
SHIMADZU QP-1000

>  <ION MODE>  (325) 
P

>  <INCHIKEY>  (325) 
YRZXTMMJKPLFDH-UHFFFAOYSA-N

>  <FORMULA>  (325) 
C18H20Si

>  <EXACT MASS>  (325) 
264.13342717

>  <MW>  (325) 
264

>  <ID>  (325) 
JP011680

>  <CONTRIBUTOR>  (325) 
University of Tokyo Team, {Faculty of Engineering, University of Tokyo

>  <COMMENT>  (325) 
SMILES=c(c3)ccc(c3)C(C([H])=1)[Si](C)(C)C(c(c2)cccc2)C([H])1
InChI=InChI=1S/C18H20Si/c1-19(2)17(15-9-5-3-6-10-15)13-14-18(19)16-11-7-4-8-12-16/h3-14,17-18H,1-2H3
computed SMILES=C=1C=CC(=CC1)C2C=CC(C=3C=CC=CC3)[Si]2(C)C
accession=JP011680
date=2016.01.19 (Created 2008.10.21, modified 2011.05.06)
author=FAC. TECHNOLOGY, HIROSHIMA UNIV.
license=CC BY-NC-SA
exact mass=264.13343
ionization energy=70 eV
ion type=[M]+*
computed spectral entropy=3.6778483704981846
computed normalized entropy=0.8417192502759004
SPLASH=splash10-0a4r-2900000000-0a5ce29dd0ce2f5c0c3e
submitter=submitter = University of Tokyo Team (Faculty of Engineering, University of Tokyo)
MoNA Rating=3.75

>  <NUM PEAKS>  (325) 
79

>  <MASS SPECTRAL PEAKS>  (325) 
50 3.5
51 9.2
53 44.4
54 7
55 9.9
57 2.1
58 1.4
59 2.1
63 2.8
65 3.5
66 3.5
67 12.7
68 2.1
69 4.2
77 8.5
78 8.5
79 17.6
80 2.1
81 3.5
82 1.4
83 1.4
91 5.6
93 4.2
95 3.5
100 1.4
103 13.4
104 9.2
105 99.99
106 13.4
107 15.5
108 17.6
109 11.3
110 8.5
111 2.1
115 2.1
117 2.1
119 2.8
121 9.2
128 2.8
129 7.7
130 2.8
131 6.3
132 1.4
141 3.5
142 8.5
143 7
144 4.2
145 12
146 3.5
152 1.4
153 1.4
154 1.4
155 7
156 1.4
157 2.8
158 1.4
159 1.4
165 1.4
169 1.4
171 23.9
172 3.5
173 3.5
179 2.8
180 14.8
181 47.9
182 14.8
183 15.5
184 3.5
185 9.2
186 61.3
187 21.1
188 3.5
207 2.8
217 2.1
221 1.4
222 1.4
264 10.7
265 5.2
266 1

>  <PREDICTED SPECTRUM>  (325) 
27 40
38 23
39 437
40 197
41 460
42 83
43 113
50 281
51 562
52 193
53 177
54 3
55 229
56 98
57 172
63 218
64 169
65 175
67 107
69 58
70 59
74 128
76 214
77 750
78 431
82 76
83 188
84 15
85 82
89 489
90 415
91 899
92 54
102 41
103 140
104 193
105 695
113 11
114 100
115 493
116 117
127 38
128 382
129 10
132 8
151 118
152 469
153 9
155 33
158 72
165 271
166 47
178 77
179 124
185 329
186 375
187 999
188 85
189 55
249 398
250 150
263 107
264 180

$$$$

     RDKit          2D

 22 22  0  0  0  0  0  0  0  0999 V2000
    3.8090   -0.8240    0.0000 C   0  0  0  0  0  0  0  0  0  0  0  0
    5.8580   -1.3734    0.0000 C   0  0  0  0  0  0  0  0  0  0  0  0
    5.3086   -3.4223    0.0000 C   0  0  0  0  0  0  0  0  0  0  0  0
   -0.4542   -2.7662    0.0000 C   0  0  0  0  0  0  0  0  0  0  0  0
   -1.6713   -4.5037    0.0000 C   0  0  0  0  0  0  0  0  0  0  0  0
    0.0662   -5.7207    0.0000 C   0  0  0  0  0  0  0  0  0  0  0  0
    4.2237   -4.0222    0.0000 C   0  0  0  0  0  0  0  0  0  0  0  0
    2.1104   -3.8369    0.0000 C   0  0  0  0  0  0  0  0  0  0  0  0
    1.2830   -5.4832    0.0000 C   0  0  0  0  0  0  0  0  0  0  0  0
    3.2331   -4.3274    0.0000 C   0  0  0  0  0  0  0  0  0  0  0  0
    0.4836   -1.8620    0.0000 C   0  0  0  0  0  0  0  0  0  0  0  0
    1.9600    2.3789    0.0000 C   0  0  0  0  0  0  0  0  0  0  0  0
    3.2595    1.6281    0.0000 C   0  0  0  0  0  0  0  0  0  0  0  0
    0.6610    1.6289    0.0000 C   0  0  0  0  0  0  0  0  0  0  0  0
    3.2600    0.1273    0.0000 C   0  0  0  0  0  0  0  0  0  0  0  0
    0.6615    0.1281    0.0000 C   0  0  0  0  0  0  0  0  0  0  0  0
    1.9610   -0.6227    0.0000 C   0  0  0  0  0  0  0  0  0  0  0  0
    4.5588   -2.1232    0.0000 Si  0  0  0  0  0  4  0  0  0  0  0  0
   -0.1940   -4.2435    0.0000 Si  0  0  0  0  0  4  0  0  0  0  0  0
    3.2597   -2.8729    0.0000 Si  0  0  0  0  0  4  0  0  0  0  0  0
    1.2832   -3.9832    0.0000 Si  0  0  0  0  0  4  0  0  0  0  0  0
    1.9607   -2.1227    0.0000 Si  0  0  0  0  0  4  0  0  0  0  0  0
 13 12  2  0
 14 12  1  0
 15 13  1  0
 16 14  2  0
 17 15  2  0
 17 16  1  0
 18  1  1  0
 18  2  1  0
 18  3  1  0
 19  4  1  0
 19  5  1  0
 19  6  1  0
 20  7  1  0
 20  8  1  0
 20 18  1  0
 21  9  1  0
 21 10  1  0
 21 19  1  0
 22 11  1  0
 22 17  1  0
 22 20  1  0
 22 21  1  0
M  END
>  <NAME>  (326) 
3-PHENYLDECAMETHYLPENTASILANE

>  <SYNONYMS>  (326) 


>  <SPECTRUM TYPE>  (326) 
MS1

>  <INSTRUMENT TYPE>  (326) 
EI-B

>  <INSTRUMENT>  (326) 
SHIMADZU QP-1000

>  <ION MODE>  (326) 
P

>  <INCHIKEY>  (326) 
NFLALYPIVCUPHL-UHFFFAOYSA-N

>  <FORMULA>  (326) 
C17H38Si5

>  <EXACT MASS>  (326) 
382.181983866

>  <MW>  (326) 
382

>  <ID>  (326) 
JP011679

>  <CONTRIBUTOR>  (326) 
University of Tokyo Team, {Faculty of Engineering, University of Tokyo

>  <COMMENT>  (326) 
SMILES=c(c1)ccc(c1)[Si](C)([Si](C)(C)[Si](C)(C)C)[Si](C)(C)[Si](C)(C)C
InChI=InChI=1S/C17H38Si5/c1-18(2,3)20(7,8)22(11,17-15-13-12-14-16-17)21(9,10)19(4,5)6/h12-16H,1-11H3
computed SMILES=C=1C=CC(=CC1)[Si](C)([Si](C)(C)[Si](C)(C)C)[Si](C)(C)[Si](C)(C)C
license=CC BY-NC-SA
accession=JP011679
date=2016.01.19 (Created 2008.10.21, modified 2011.05.06)
author=FAC. TECHNOLOGY, HIROSHIMA UNIV.
exact mass=382.18198
ionization energy=70 eV
ion type=[M]+*
computed spectral entropy=3.598074990084904
computed normalized entropy=0.8333722978423769
SPLASH=splash10-00di-7920000000-a2ef087669fe7ffc5a1d
submitter=submitter = University of Tokyo Team (Faculty of Engineering, University of Tokyo)
MoNA Rating=3.75

>  <NUM PEAKS>  (326) 
75

>  <MASS SPECTRAL PEAKS>  (326) 
54 2.8
55 2.8
56 5.6
57 2.1
58 9.2
59 1.4
60 12.7
69 2.8
71 4.2
73 99.99
74 8.5
75 4.2
77 2.1
83 2.1
85 3.5
91 5.6
97 1.4
99 2.8
101 2.1
103 2.1
105 5.6
107 2.8
113 1.4
115 5.6
116 14.8
117 3.5
121 2.8
129 3.5
131 12.7
132 1.4
133 2.8
135 33.8
136 4.9
137 1.4
145 2.1
147 3.5
155 1.4
157 1.4
159 3.5
161 3.5
162 2.8
163 4.2
165 1.4
173 2.8
174 4.2
175 5.6
176 2.1
177 18.3
178 3.5
179 2.8
180 2.8
181 18.3
182 2.8
189 1.4
191 15.5
192 3.5
193 5.6
207 2.1
209 8.5
210 1.4
219 2.8
221 2.8
233 2.1
235 5.6
236 2.1
238 3.5
245 1.4
249 2.8
251 26.1
252 6.3
253 3.5
309 2.1
382 10.6
383 4.2
384 1.4

>  <PREDICTED SPECTRUM>  (326) 
29 82
41 41
43 183
44 36
45 161
46 31
53 13
55 54
57 75
58 27
59 306
60 2
65 8
66 19
69 168
71 45
73 999
74 228
75 107
77 68
78 20
83 48
85 136
91 47
93 5
97 8
99 90
100 44
101 163
102 46
103 96
104 23
105 134
107 1
113 82
114 85
115 246
116 479
117 293
118 127
119 150
120 52
121 188
123 23
127 43
129 184
131 640
132 137
133 144
134 96
135 594
136 204
137 63
139 7
141 23
145 149
147 33
148 0
149 144
150 33
151 94
152 1
153 4
155 42
159 36
160 44
161 228
162 138
163 200
164 41
165 28
167 4
173 155
174 231
175 266
176 136
177 329
178 180
179 208
180 20
181 23
189 57
191 179
192 33
193 207
194 50
195 52
205 12
207 81
208 32
209 175
210 55
217 2
219 127
221 165
222 24
232 31
233 21
235 250
236 58
249 29
250 117
251 524
252 270
253 170
281 0
294 16
309 234
310 97
311 2
367 18
368 32
382 336
383 183
384 59

$$$$

     RDKit          2D

 26 30  0  0  0  0  0  0  0  0999 V2000
   -2.1292   -1.0724    0.0000 C   0  0  0  0  0  0  0  0  0  0  0  0
   -0.2007   -1.0721    0.0000 C   0  0  0  0  0  0  0  0  0  0  0  0
    1.6120    2.0676    0.0000 C   0  0  0  0  0  0  0  0  0  0  0  0
    0.6480    3.7379    0.0000 C   0  0  0  0  0  0  0  0  0  0  0  0
    2.7324    3.8276    0.0000 C   0  0  0  0  0  0  0  0  0  0  0  0
    4.0315    3.0776    0.0000 C   0  0  0  0  0  0  0  0  0  0  0  0
   -5.0627    0.8259    0.0000 C   0  0  0  0  0  0  0  0  0  0  0  0
   -2.4627    5.3292    0.0000 C   0  0  0  0  0  0  0  0  0  0  0  0
    0.1344   -0.6724    0.0000 C   0  0  0  0  0  0  0  0  0  0  0  0
    1.4334    3.0776    0.0000 C   0  0  0  0  0  0  0  0  0  0  0  0
   -5.0623    2.3267    0.0000 C   0  0  0  0  0  0  0  0  0  0  0  0
   -3.7623    4.5784    0.0000 C   0  0  0  0  0  0  0  0  0  0  0  0
    0.1344    0.8276    0.0000 C   0  0  0  0  0  0  0  0  0  0  0  0
    4.0315    1.5776    0.0000 C   0  0  0  0  0  0  0  0  0  0  0  0
   -3.7637    0.0759    0.0000 C   0  0  0  0  0  0  0  0  0  0  0  0
   -1.1637    4.5792    0.0000 C   0  0  0  0  0  0  0  0  0  0  0  0
    1.4334   -1.4224    0.0000 C   0  0  0  0  0  0  0  0  0  0  0  0
    1.4334    1.5776    0.0000 C   0  0  0  0  0  0  0  0  0  0  0  0
   -3.7627    3.0776    0.0000 C   0  0  0  0  0  0  0  0  0  0  0  0
    2.7324    0.8276    0.0000 C   0  0  0  0  0  0  0  0  0  0  0  0
   -2.4642    0.8267    0.0000 C   0  0  0  0  0  0  0  0  0  0  0  0
   -1.1642    3.0784    0.0000 C   0  0  0  0  0  0  0  0  0  0  0  0
   -2.4637    2.3276    0.0000 C   0  0  0  0  0  0  0  0  0  0  0  0
    0.1344    0.8276    0.0000 C   0  0  0  0  0  0  0  0  0  0  0  0
   -1.1651    0.0767    0.0000 Si  0  0  0  0  0  4  0  0  0  0  0  0
    0.1349    2.3284    0.0000 Si  0  0  0  0  0  4  0  0  0  0  0  0
  6  5  2  0
 10  5  1  0
 11  7  2  0
 12  8  1  0
 13  9  2  0
 14  6  1  0
 15  7  1  0
 16  8  2  0
 17  9  1  0
 18 10  2  0
 18 13  1  0
 19 11  1  0
 19 12  2  0
 20 14  2  0
 20 18  1  0
 21 15  2  0
 22 16  1  0
 23 19  1  0
 23 21  1  0
 23 22  2  0
 24 17  1  0
 24 20  1  0
 25  1  1  0
 25  2  1  0
 25 21  1  0
 25 24  1  0
 26  3  1  0
 26  4  1  0
 26 22  1  0
 26 24  1  0
M  END
>  <NAME>  (327) 
2,3-DIHYDRO-1,1,3,3-TETRAMETHYL-1,3-DISILAPHENALENE-2-SPIRO-1',2'-DIHYDRONAPHTHALENE

>  <SYNONYMS>  (327) 


>  <SPECTRUM TYPE>  (327) 
MS1

>  <INSTRUMENT TYPE>  (327) 
EI-B

>  <INSTRUMENT>  (327) 
SHIMADZU QP-1000

>  <ION MODE>  (327) 
P

>  <INCHIKEY>  (327) 
OCLRIMUNJXLNRW-UHFFFAOYSA-N

>  <FORMULA>  (327) 
C24H26Si2

>  <EXACT MASS>  (327) 
370.157303892

>  <MW>  (327) 
370

>  <ID>  (327) 
JP011678

>  <CONTRIBUTOR>  (327) 
University of Tokyo Team, {Faculty of Engineering, University of Tokyo

>  <COMMENT>  (327) 
SMILES=c(C([Si]5(C)C)([Si](c(c43)cccc3cccc45)(C)C)1)(c2)c(ccc2)C=CC1
InChI=InChI=1S/C24H26Si2/c1-25(2)21-15-7-11-19-12-8-16-22(23(19)21)26(3,4)24(25)17-9-13-18-10-5-6-14-20(18)24/h5-16H,17H2,1-4H3
computed SMILES=C=1C=CC2=C(C1)C=CCC23[Si](C=4C=CC=C5C=CC=C(C54)[Si]3(C)C)(C)C
accession=JP011678
date=2016.01.19 (Created 2008.10.21, modified 2011.05.06)
author=FAC. TECHNOLOGY, HIROSHIMA UNIV.
license=CC BY-NC-SA
exact mass=370.1573
ionization energy=70 eV
ion type=[M]+*
computed spectral entropy=2.6878834996689864
computed normalized entropy=0.7443767941267563
SPLASH=splash10-000i-1931000000-f1d9154b2f3d7776620d
submitter=submitter = University of Tokyo Team (Faculty of Engineering, University of Tokyo)
MoNA Rating=3.75

>  <NUM PEAKS>  (327) 
37

>  <MASS SPECTRAL PEAKS>  (327) 
43 7.4
45 3.2
58 2.1
59 4.3
73 10.6
128 2.1
129 1.1
145 1.1
155 5.3
167 8.5
168 2.1
169 11.7
171 4.3
181 3.2
183 10.6
184 2.1
185 99.99
186 19.1
187 4.3
195 2.1
197 1.1
211 1.1
225 1.1
227 11.7
228 2.1
242 1.1
252 2.1
281 1.1
295 2.1
297 43.6
298 11.7
299 1.1
311 4.3
312 1.1
370 19.1
371 6.4
372 1.1

>  <PREDICTED SPECTRUM>  (327) 
14 7
43 62
45 22
59 28
73 73
115 39
121 4
128 45
129 153
141 47
142 18
143 63
145 1
153 51
154 67
155 297
156 106
157 82
167 229
168 110
169 443
170 106
171 205
181 147
182 73
183 392
184 112
185 999
186 457
187 265
197 73
198 37
211 78
212 13
213 57
225 96
226 52
227 271
228 29
239 49
241 157
242 11
267 15
295 164
297 729
298 323
299 127
301 10
370 410
371 249
372 99

$$$$

     RDKit          2D

 23 26  0  0  0  0  0  0  0  0999 V2000
    0.0010    3.7500    0.0000 C   0  0  0  0  0  0  0  0  0  0  0  0
    1.8130    4.4095    0.0000 C   0  0  0  0  0  0  0  0  0  0  0  0
   -2.6000   -0.7500    0.0000 C   0  0  0  0  0  0  0  0  0  0  0  0
    5.6703    6.1896    0.0000 C   0  0  0  0  0  0  0  0  0  0  0  0
   -2.6000    0.7500    0.0000 C   0  0  0  0  0  0  0  0  0  0  0  0
    4.1930    6.4500    0.0000 C   0  0  0  0  0  0  0  0  0  0  0  0
    2.6000   -0.7500    0.0000 C   0  0  0  0  0  0  0  0  0  0  0  0
    4.7673    1.0686    0.0000 C   0  0  0  0  0  0  0  0  0  0  0  0
   -1.3000   -1.5000    0.0000 C   0  0  0  0  0  0  0  0  0  0  0  0
    6.1831    4.7791    0.0000 C   0  0  0  0  0  0  0  0  0  0  0  0
    1.3000   -1.5000    0.0000 C   0  0  0  0  0  0  0  0  0  0  0  0
    5.7316    2.2186    0.0000 C   0  0  0  0  0  0  0  0  0  0  0  0
   -1.3000    1.5000    0.0000 C   0  0  0  0  0  0  0  0  0  0  0  0
    3.2287    5.3000    0.0000 C   0  0  0  0  0  0  0  0  0  0  0  0
    2.6000    0.7500    0.0000 C   0  0  0  0  0  0  0  0  0  0  0  0
    3.2901    1.3290    0.0000 C   0  0  0  0  0  0  0  0  0  0  0  0
    0.0000   -0.7500    0.0000 C   0  0  0  0  0  0  0  0  0  0  0  0
    5.2188    3.6291    0.0000 C   0  0  0  0  0  0  0  0  0  0  0  0
    0.0000    0.7500    0.0000 C   0  0  0  0  0  0  0  0  0  0  0  0
    3.7416    3.8895    0.0000 C   0  0  0  0  0  0  0  0  0  0  0  0
    1.3000    1.5000    0.0000 C   0  0  0  0  0  0  0  0  0  0  0  0
    2.7772    2.7395    0.0000 C   0  0  0  0  0  0  0  0  0  0  0  0
    1.3000    3.0000    0.0000 Si  0  0  0  0  0  4  0  0  0  0  0  0
  5  3  2  0
  6  4  2  0
  9  3  1  0
 10  4  1  0
 11  7  2  0
 12  8  2  0
 13  5  1  0
 14  6  1  0
 15  7  1  0
 16  8  1  0
 17  9  2  0
 17 11  1  0
 18 10  2  0
 18 12  1  0
 19 13  2  0
 19 17  1  0
 20 14  2  0
 20 18  1  0
 21 15  2  0
 21 19  1  0
 22 16  2  0
 22 20  1  0
 23  1  1  0
 23  2  1  0
 23 21  1  0
 23 22  1  0
M  END
>  <NAME>  (328) 
DIMETHYLDI(1-NAPHTHYL)SILANE

>  <SYNONYMS>  (328) 


>  <SPECTRUM TYPE>  (328) 
MS1

>  <INSTRUMENT TYPE>  (328) 
EI-B

>  <INSTRUMENT>  (328) 
SHIMADZU QP-1000

>  <ION MODE>  (328) 
P

>  <INCHIKEY>  (328) 
SHCZBMYTPGCRGJ-UHFFFAOYSA-N

>  <FORMULA>  (328) 
C22H20Si

>  <EXACT MASS>  (328) 
312.13342717

>  <MW>  (328) 
312

>  <ID>  (328) 
JP011677

>  <CONTRIBUTOR>  (328) 
University of Tokyo Team, {Faculty of Engineering, University of Tokyo

>  <COMMENT>  (328) 
SMILES=c(c4)cc(c3)c(c4)c(cc3)[Si](C)(C)c(c1)c(c2)c(ccc2)cc1
InChI=InChI=1S/C22H20Si/c1-23(2,21-15-7-11-17-9-3-5-13-19(17)21)22-16-8-12-18-10-4-6-14-20(18)22/h3-16H,1-2H3
computed SMILES=C=1C=CC2=C(C1)C=CC=C2[Si](C3=CC=CC=4C=CC=CC43)(C)C
accession=JP011677
date=2016.01.19 (Created 2008.10.21, modified 2011.05.06)
author=FAC. TECHNOLOGY, HIROSHIMA UNIV.
license=CC BY-NC-SA
exact mass=312.13343
ionization energy=70 eV
ion type=[M]+*
computed spectral entropy=2.688265784033175
computed normalized entropy=0.7337847820503257
SPLASH=splash10-01ot-0694000000-a6065be633a24a42e39a
submitter=submitter = University of Tokyo Team (Faculty of Engineering, University of Tokyo)
MoNA Rating=3.75

>  <NUM PEAKS>  (328) 
39

>  <MASS SPECTRAL PEAKS>  (328) 
43 4.3
53 1.1
59 1.1
115 2.1
127 1.1
128 1.1
129 3.2
140 1.1
141 2.1
143 1.1
147 2.1
148 2.1
153 1.1
154 1.1
155 7.4
156 2.1
167 21.3
168 4.3
169 41.5
170 7.4
171 1.1
181 2.1
183 4.3
185 8.5
250 1.1
252 10.6
253 12.8
254 3.2
265 2.1
279 1.1
281 1.1
295 4.3
297 99.99
298 27.7
299 6.4
311 6.4
312 58.5
313 16
314 3.2

>  <PREDICTED SPECTRUM>  (328) 
27 34
39 5
41 15
43 67
45 24
51 13
55 19
59 43
63 31
74 13
75 80
76 25
77 69
78 1
100 26
101 66
102 47
103 38
104 10
105 3
113 36
114 4
115 174
117 1
125 54
126 94
127 167
128 142
129 138
139 13
141 278
142 101
143 41
144 49
145 67
151 35
152 27
153 142
154 132
155 318
156 113
157 123
167 439
168 223
169 573
170 250
171 115
181 114
182 26
183 228
184 123
185 279
186 79
196 4
197 38
211 92
212 25
213 14
228 10
237 118
238 12
239 113
250 96
251 29
252 422
253 256
265 207
270 42
279 99
280 14
281 52
283 16
294 18
295 201
296 117
297 999
298 496
299 248
300 71
311 137
312 685
313 375
314 147
315 29

$$$$

     RDKit          2D

 18 19  0  0  0  0  0  0  0  0999 V2000
    4.3394   -1.6818    0.0000 C   0  0  0  0  0  0  0  0  0  0  0  0
    4.8888    0.3671    0.0000 C   0  0  0  0  0  0  0  0  0  0  0  0
    2.8398    0.9165    0.0000 C   0  0  0  0  0  0  0  0  0  0  0  0
    1.3261   -2.2814    0.0000 C   0  0  0  0  0  0  0  0  0  0  0  0
   -1.6085    1.1178    0.0000 C   0  0  0  0  0  0  0  0  0  0  0  0
    5.4931   -4.9482    0.0000 C   0  0  0  0  0  0  0  0  0  0  0  0
   -0.3085    1.8678    0.0000 C   0  0  0  0  0  0  0  0  0  0  0  0
   -1.6085   -0.3822    0.0000 C   0  0  0  0  0  0  0  0  0  0  0  0
    4.0150   -5.2084    0.0000 C   0  0  0  0  0  0  0  0  0  0  0  0
    6.0061   -3.5387    0.0000 C   0  0  0  0  0  0  0  0  0  0  0  0
    0.9915    1.1178    0.0000 C   0  0  0  0  0  0  0  0  0  0  0  0
   -0.3085   -1.1322    0.0000 C   0  0  0  0  0  0  0  0  0  0  0  0
    3.0499   -4.0590    0.0000 C   0  0  0  0  0  0  0  0  0  0  0  0
    5.0410   -2.3893    0.0000 C   0  0  0  0  0  0  0  0  0  0  0  0
    0.9915   -0.3822    0.0000 C   0  0  0  0  0  0  0  0  0  0  0  0
    3.5629   -2.6494    0.0000 C   0  0  0  0  0  0  0  0  0  0  0  0
    3.5896   -0.3827    0.0000 Si  0  0  0  0  0  4  0  0  0  0  0  0
    2.2904   -1.1325    0.0000 Si  0  0  0  0  0  4  0  0  0  0  0  0
  7  5  2  0
  8  5  1  0
  9  6  2  0
 10  6  1  0
 11  7  1  0
 12  8  2  0
 13  9  1  0
 14 10  2  0
 15 11  2  0
 15 12  1  0
 16 13  2  0
 16 14  1  0
 17  1  1  0
 17  2  1  0
 17  3  1  0
 18  4  1  0
 18 15  1  0
 18 16  1  0
 18 17  1  0
M  END
>  <NAME>  (329) 
1,1-DIPHENYLTETRAMETHYLDISILANE

>  <SYNONYMS>  (329) 


>  <SPECTRUM TYPE>  (329) 
MS1

>  <INSTRUMENT TYPE>  (329) 
EI-B

>  <INSTRUMENT>  (329) 
SHIMADZU QP-1000

>  <ION MODE>  (329) 
P

>  <INCHIKEY>  (329) 
ZQZXXLQCPQMXIO-UHFFFAOYSA-N

>  <FORMULA>  (329) 
C16H22Si2

>  <EXACT MASS>  (329) 
270.12600376399996

>  <MW>  (329) 
270

>  <ID>  (329) 
JP011676

>  <CONTRIBUTOR>  (329) 
University of Tokyo Team, {Faculty of Engineering, University of Tokyo

>  <COMMENT>  (329) 
SMILES=c(c2)ccc(c2)[Si](C)(c(c1)cccc1)[Si](C)(C)C
InChI=InChI=1S/C16H22Si2/c1-17(2,3)18(4,15-11-7-5-8-12-15)16-13-9-6-10-14-16/h5-14H,1-4H3
computed SMILES=C=1C=CC(=CC1)[Si](C=2C=CC=CC2)(C)[Si](C)(C)C
accession=JP011676
date=2016.01.19 (Created 2008.10.21, modified 2011.05.06)
author=FAC. TECHNOLOGY, HIROSHIMA UNIV.
license=CC BY-NC-SA
exact mass=270.126
ionization energy=70 eV
ion type=[M]+*
computed spectral entropy=3.018493497573044
computed normalized entropy=0.7839942282296835
SPLASH=splash10-0002-2910000000-a29160204f2b715680a2
submitter=submitter = University of Tokyo Team (Faculty of Engineering, University of Tokyo)
MoNA Rating=3.75

>  <NUM PEAKS>  (329) 
47

>  <MASS SPECTRAL PEAKS>  (329) 
52 1.4
53 1.4
54 12
55 12
56 2.8
58 2.8
59 2.1
60 2.1
67 2.1
69 2.1
73 33.8
74 3.5
75 1.4
77 1.4
79 4.2
91 3.5
93 9.2
95 1.4
102 2.1
103 2.1
105 36.6
106 4.2
107 7.7
119 10.6
120 5.6
121 3.5
135 67.6
136 8.5
137 2.1
145 1.4
155 1.4
165 6.3
177 2.1
179 2.1
180 2.8
181 11.3
182 3.5
193 2.8
195 13.4
197 99.99
198 41.5
199 9.9
255 10.6
256 2.1
270 26.8
271 6.3
272 2.1

>  <PREDICTED SPECTRUM>  (329) 
27 47
28 14
29 51
41 77
43 255
44 70
45 192
46 11
51 28
53 85
55 101
57 125
58 102
59 217
60 29
61 17
63 2
65 35
67 61
69 57
73 611
74 113
75 142
77 134
78 100
79 106
81 24
91 161
93 25
95 17
103 90
104 14
105 465
106 153
107 62
115 16
117 96
118 110
119 329
120 209
121 136
123 0
133 52
134 169
135 999
136 383
137 271
145 193
151 26
165 130
167 44
177 103
178 45
179 155
180 86
181 248
182 208
193 339
194 181
195 351
196 10
197 893
198 439
199 283
200 92
255 360
256 168
257 85
270 427
271 247
272 110
273 20
275 21

$$$$

     RDKit          2D

 14 13  0  0  0  0  0  0  0  0999 V2000
    0.6764    3.0736    0.0000 C   0  0  0  0  0  0  0  0  0  0  0  0
    3.2745    4.5736    0.0000 C   0  0  0  0  0  0  0  0  0  0  0  0
    1.4264   -1.2255    0.0000 C   0  0  0  0  0  0  0  0  0  0  0  0
   -0.0736    1.3726    0.0000 C   0  0  0  0  0  0  0  0  0  0  0  0
   -0.6226   -0.6764    0.0000 C   0  0  0  0  0  0  0  0  0  0  0  0
    5.1226    4.3726    0.0000 C   0  0  0  0  0  0  0  0  0  0  0  0
    7.1716    3.8236    0.0000 C   0  0  0  0  0  0  0  0  0  0  0  0
    6.6226    1.7745    0.0000 C   0  0  0  0  0  0  0  0  0  0  0  0
    1.9755    0.8236    0.0000 C   0  0  0  0  0  0  0  0  0  0  0  0
    4.5736    2.3236    0.0000 C   0  0  0  0  0  0  0  0  0  0  0  0
    1.9755    2.3236    0.0000 C   0  0  0  0  0  0  0  0  0  0  0  0
    3.2745    3.0736    0.0000 C   0  0  0  0  0  0  0  0  0  0  0  0
    0.6764    0.0736    0.0000 Si  0  0  0  0  0  4  0  0  0  0  0  0
    5.8726    3.0736    0.0000 Si  0  0  0  0  0  4  0  0  0  0  0  0
 11  1  1  0
 11  9  1  0
 12  2  1  0
 12 10  1  0
 11 12  2  0
 13  3  1  0
 13  4  1  0
 13  5  1  0
 13  9  1  0
 14  6  1  0
 14  7  1  0
 14  8  1  0
 14 10  1  0
M  END
>  <NAME>  (330) 
1,4-BIS(TRIMETHYLSILYL)-2,3-DIMETHYL-2-BUTENE

>  <SYNONYMS>  (330) 


>  <SPECTRUM TYPE>  (330) 
MS1

>  <INSTRUMENT TYPE>  (330) 
EI-B

>  <INSTRUMENT>  (330) 
SHIMADZU QP-1000

>  <ION MODE>  (330) 
P

>  <INCHIKEY>  (330) 
NWOONZIQJRZSMV-QXMHVHEDSA-N

>  <FORMULA>  (330) 
C12H28Si2

>  <EXACT MASS>  (330) 
228.17295395600001

>  <MW>  (330) 
228

>  <ID>  (330) 
JP011675

>  <CONTRIBUTOR>  (330) 
University of Tokyo Team, {Faculty of Engineering, University of Tokyo

>  <COMMENT>  (330) 
SMILES=CC(C[Si](C)(C)C)=C(C)C[Si](C)(C)C
InChI=InChI=1S/C12H28Si2/c1-11(9-13(3,4)5)12(2)10-14(6,7)8/h9-10H2,1-8H3/b12-11-
computed SMILES=C(=C(C)C[Si](C)(C)C)(C)C[Si](C)(C)C
accession=JP011675
date=2016.01.19 (Created 2008.10.21, modified 2011.05.06)
author=FAC. TECHNOLOGY, HIROSHIMA UNIV.
license=CC BY-NC-SA
exact mass=228.17295
ionization energy=70 eV
ion type=[M]+*
computed spectral entropy=1.9155781080497059
computed normalized entropy=0.6627445423989374
SPLASH=splash10-004i-0900000000-82d5ee4f9b39ee3287cf
submitter=submitter = University of Tokyo Team (Faculty of Engineering, University of Tokyo)
MoNA Rating=3.75

>  <NUM PEAKS>  (330) 
18

>  <MASS SPECTRAL PEAKS>  (330) 
109 2.1
111 2.1
112 3.2
123 5.3
125 99.99
126 12.8
127 3.2
131 1.1
139 14.9
140 24.5
141 4.3
154 4.3
155 11.7
156 1.1
227 2.9
228 2.1
229 5.3
230 1.4

>  <PREDICTED SPECTRUM>  (330) 
31 60
39 35
41 31
43 109
44 22
45 342
46 99
47 5
51 19
53 59
55 115
56 8
57 90
58 93
59 328
66 69
67 83
69 146
70 25
71 41
72 60
73 999
74 291
75 143
77 66
79 4
80 12
81 77
82 33
83 102
84 3
85 73
97 114
98 34
109 161
110 39
111 36
112 16
121 48
123 234
124 27
125 552
126 193
127 39
136 30
138 37
139 112
140 394
141 164
154 50
213 85
214 11
228 363
229 116
230 74

$$$$

     RDKit          2D

 29 31  0  0  0  0  0  0  0  0999 V2000
    0.5722    3.7164    0.0000 C   0  0  0  0  0  0  0  0  0  0  0  0
    3.0702   -3.2088    0.0000 C   0  0  0  0  0  0  0  0  0  0  0  0
    0.4721   -4.7088    0.0000 C   0  0  0  0  0  0  0  0  0  0  0  0
   -1.8876   -0.5195    0.0000 C   0  0  0  0  0  0  0  0  0  0  0  0
   -2.2969    3.0873    0.0000 C   0  0  0  0  0  0  0  0  0  0  0  0
    0.6220    0.9294    0.0000 C   0  0  0  0  0  0  0  0  0  0  0  0
   -3.0373    0.1745    0.0000 C   0  0  0  0  0  0  0  0  0  0  0  0
   -4.2540   -1.5631    0.0000 C   0  0  0  0  0  0  0  0  0  0  0  0
   -2.5164   -2.7799    0.0000 C   0  0  0  0  0  0  0  0  0  0  0  0
    4.7849    2.2812    0.0000 C   0  0  0  0  0  0  0  0  0  0  0  0
    3.4854    3.0320    0.0000 C   0  0  0  0  0  0  0  0  0  0  0  0
    4.7854    0.7803    0.0000 C   0  0  0  0  0  0  0  0  0  0  0  0
   -3.3443    4.3338    0.0000 C   0  0  0  0  0  0  0  0  0  0  0  0
   -3.8591    2.9333    0.0000 C   0  0  0  0  0  0  0  0  0  0  0  0
   -1.8670    4.5941    0.0000 C   0  0  0  0  0  0  0  0  0  0  0  0
    2.1864    2.2820    0.0000 C   0  0  0  0  0  0  0  0  0  0  0  0
    3.4864    0.0303    0.0000 C   0  0  0  0  0  0  0  0  0  0  0  0
   -2.8949    1.7831    0.0000 C   0  0  0  0  0  0  0  0  0  0  0  0
    1.7712   -0.9588    0.0000 C   0  0  0  0  0  0  0  0  0  0  0  0
   -0.8269   -2.4588    0.0000 C   0  0  0  0  0  0  0  0  0  0  0  0
   -0.9046    3.4537    0.0000 C   0  0  0  0  0  0  0  0  0  0  0  0
    1.7712   -2.4588    0.0000 C   0  0  0  0  0  0  0  0  0  0  0  0
    0.4721   -3.2088    0.0000 C   0  0  0  0  0  0  0  0  0  0  0  0
    2.1869    0.7812    0.0000 C   0  0  0  0  0  0  0  0  0  0  0  0
   -1.4177    2.0433    0.0000 C   0  0  0  0  0  0  0  0  0  0  0  0
    0.4721   -0.2088    0.0000 C   0  0  0  0  0  0  0  0  0  0  0  0
   -0.8269    0.5412    0.0000 Si  0  0  0  0  0  4  0  0  0  0  0  0
   -2.7768   -1.3027    0.0000 Si  0  0  0  0  0  4  0  0  0  0  0  0
   -0.8269   -0.9588    0.0000 Si  0  0  0  0  0  4  0  0  0  0  0  0
 11 10  2  0
 12 10  1  0
 14 13  2  0
 15 13  1  0
 16 11  1  0
 17 12  2  0
 18 14  1  0
 21  1  1  0
 21 15  2  0
 22  2  1  0
 22 19  1  0
 23  3  1  0
 23 20  1  0
 23 22  2  0
 24 16  2  0
 24 17  1  0
 25 18  2  0
 25 21  1  0
 26 19  1  0
 26 24  1  0
 26 25  1  0
 27  4  1  0
 27  5  1  0
 27  6  1  0
 28  7  1  0
 28  8  1  0
 28  9  1  0
 29 20  1  0
 29 26  1  0
 29 27  1  0
 29 28  1  0
M  END
>  <NAME>  (331) 
3,4 DIMETHYL-6-(2-METHYLPHENYL)-6-PHENYL-1,1-BIS(TRIMETHLSILYL)-1-SILACYCLOHEX-3-ENE

>  <SYNONYMS>  (331) 


>  <SPECTRUM TYPE>  (331) 
MS1

>  <INSTRUMENT TYPE>  (331) 
EI-B

>  <INSTRUMENT>  (331) 
SHIMADZU QP-1000

>  <ION MODE>  (331) 
P

>  <INCHIKEY>  (331) 
OXASNBRYTYGECG-UHFFFAOYSA-N

>  <FORMULA>  (331) 
C26H40Si3

>  <EXACT MASS>  (331) 
436.24378086999997

>  <MW>  (331) 
436

>  <ID>  (331) 
JP011674

>  <CONTRIBUTOR>  (331) 
University of Tokyo Team, {Faculty of Engineering, University of Tokyo

>  <COMMENT>  (331) 
SMILES=c(c1C)cccc1C([Si]3([Si](C)(C)C)[Si](C)(C)C)(CC(=C(C3)C)C)c(c2)cccc2
InChI=InChI=1S/C26H40Si3/c1-21-15-13-14-18-25(21)26(24-16-11-10-12-17-24)19-22(2)23(3)20-29(26,27(4,5)6)28(7,8)9/h10-18H,19-20H2,1-9H3
computed SMILES=C=1C=CC(=CC1)C2(C=3C=CC=CC3C)CC(=C(C)C[Si]2([Si](C)(C)C)[Si](C)(C)C)C
accession=JP011674
license=CC BY-NC-SA
date=2016.01.19 (Created 2008.10.21, modified 2011.05.06)
author=FAC. TECHNOLOGY, HIROSHIMA UNIV.
exact mass=436.24378
ionization energy=70 eV
ion type=[M]+*
computed spectral entropy=3.645191204141367
computed normalized entropy=0.8004588817200545
SPLASH=splash10-00di-9422000000-03c475120112cf93cb52
submitter=submitter = University of Tokyo Team (Faculty of Engineering, University of Tokyo)
MoNA Rating=3.75

>  <NUM PEAKS>  (331) 
95

>  <MASS SPECTRAL PEAKS>  (331) 
51 1.1
53 4.3
55 3.2
57 2.1
58 3.2
59 37.2
60 2.1
67 3.2
69 3.2
71 1.1
73 99.99
74 8.5
75 2.1
83 3.2
85 3.2
91 2.1
97 1.1
99 2.1
101 2.1
105 5.3
109 1.1
111 1.1
115 2.1
117 2.1
119 1.1
121 4.3
123 2.1
125 3.2
127 1.1
129 2.1
131 4.3
135 12.8
141 2.1
145 3.2
149 3.2
155 1.7
159 2.3
165 1.7
167 2.3
169 2.6
173 1.3
175 2.3
177 1.5
178 2.3
179 3.2
180 1.1
181 7.4
182 1.7
183 1.3
191 2.3
193 2.1
195 1.3
197 1.5
199 1.3
205 1.5
207 1.3
209 1.3
211 3.4
212 1.1
213 4.3
221 1.1
222 4.9
223 2.3
227 4
228 1.1
231 1.1
235 1.5
247 1.1
255 2.3
261 1.5
262 2
263 1.7
265 2
271 1.7
277 1.7
280 1.1
281 1.3
285 1.5
289 1.3
292 2.3
293 6.6
294 1.9
307 1.9
320 2.3
321 5.3
322 1.7
323 1.1
354 1.5
362 5.7
363 13.4
364 5.3
365 2.1
394 2.1
436 5.3
437 5.7

>  <PREDICTED SPECTRUM>  (331) 
29 28
31 26
39 8
41 70
43 222
45 121
51 2
53 47
55 92
57 54
59 273
60 18
61 21
67 72
69 113
70 56
71 16
73 999
74 250
75 188
77 60
78 24
79 57
81 123
82 3
83 66
85 21
91 100
92 18
93 73
95 104
97 50
99 70
100 13
103 17
105 207
106 41
107 60
109 105
111 39
113 28
115 71
116 31
117 71
118 14
119 70
121 42
129 104
130 16
131 126
132 40
133 46
134 12
135 502
136 36
137 61
139 25
140 10
141 11
142 31
143 57
144 53
145 95
146 2
147 51
148 22
149 83
151 14
155 74
156 23
157 57
158 18
159 103
160 52
161 93
163 32
165 82
167 0
169 39
170 53
171 127
172 40
173 114
174 13
175 51
176 56
177 107
178 84
179 54
183 16
185 10
187 52
188 14
189 87
191 71
193 21
199 14
203 57
205 68
206 18
207 22
209 33
211 1
213 1
214 11
215 80
217 3
219 40
220 7
221 62
223 46
225 67
226 18
227 124
229 70
231 41
232 44
233 82
235 13
237 4
239 19
243 3
247 101
248 11
252 5
253 64
254 32
255 18
261 49
262 17
263 97
264 10
271 16
273 34
275 11
277 96
278 27
279 10
287 29
288 20
289 118
290 36
291 114
292 115
293 198
294 79
295 40
305 43
306 45
307 145
308 22
329 12
333 6
334 14
336 2
337 13
345 58
348 66
349 35
350 51
361 2
362 78
363 180
364 177
365 66
366 16
417 28
421 99
422 65
436 344
437 283
438 196
439 38

$$$$

     RDKit          2D

 20 19  0  0  0  0  0  0  0  0999 V2000
    3.2476    4.8750    0.0000 C   0  0  0  0  0  0  0  0  0  0  0  0
   -2.8509   -0.2422    0.0000 C   0  0  0  0  0  0  0  0  0  0  0  0
   -8.4437    5.6250    0.0000 C   0  0  0  0  0  0  0  0  0  0  0  0
   -2.3453   10.7422    0.0000 C   0  0  0  0  0  0  0  0  0  0  0  0
    1.9486    5.6250    0.0000 C   0  0  0  0  0  0  0  0  0  0  0  0
   -3.3639    1.1673    0.0000 C   0  0  0  0  0  0  0  0  0  0  0  0
   -7.1447    4.8750    0.0000 C   0  0  0  0  0  0  0  0  0  0  0  0
   -1.8323    9.3327    0.0000 C   0  0  0  0  0  0  0  0  0  0  0  0
    0.6495    4.8750    0.0000 C   0  0  0  0  0  0  0  0  0  0  0  0
   -2.3997    2.3164    0.0000 C   0  0  0  0  0  0  0  0  0  0  0  0
   -5.8457    5.6250    0.0000 C   0  0  0  0  0  0  0  0  0  0  0  0
   -2.7964    8.1836    0.0000 C   0  0  0  0  0  0  0  0  0  0  0  0
   -0.6495    5.6250    0.0000 C   0  0  0  0  0  0  0  0  0  0  0  0
   -2.9127    3.7259    0.0000 C   0  0  0  0  0  0  0  0  0  0  0  0
   -4.5466    4.8750    0.0000 C   0  0  0  0  0  0  0  0  0  0  0  0
   -2.2834    6.7741    0.0000 C   0  0  0  0  0  0  0  0  0  0  0  0
   -0.9844    3.7259    0.0000 Cl  0  0  0  0  0  0  0  0  0  0  0  0
   -4.2118    6.7741    0.0000 Cl  0  0  0  0  0  0  0  0  0  0  0  0
   -1.9486    4.8750    0.0000 Si  0  0  0  0  0  4  0  0  0  0  0  0
   -3.2476    5.6250    0.0000 Si  0  0  0  0  0  4  0  0  0  0  0  0
  5  1  1  0
  6  2  1  0
  7  3  1  0
  8  4  1  0
  9  5  1  0
 10  6  1  0
 11  7  1  0
 12  8  1  0
 13  9  1  0
 14 10  1  0
 15 11  1  0
 16 12  1  0
 19 13  1  0
 19 14  1  0
 19 17  1  0
 20 15  1  0
 20 16  1  0
 20 18  1  0
 20 19  1  0
M  END
>  <NAME>  (332) 
TETRA(N-BUTYL)-1,2-DICHLORODISILANE

>  <SYNONYMS>  (332) 


>  <SPECTRUM TYPE>  (332) 
MS1

>  <INSTRUMENT TYPE>  (332) 
EI-B

>  <INSTRUMENT>  (332) 
SHIMADZU QP-1000

>  <ION MODE>  (332) 
P

>  <INCHIKEY>  (332) 
DIQHHFKDWOIRSK-UHFFFAOYSA-N

>  <FORMULA>  (332) 
C16H36Cl2Si2

>  <EXACT MASS>  (332) 
354.173259572

>  <MW>  (332) 
354

>  <ID>  (332) 
JP011671

>  <CONTRIBUTOR>  (332) 
University of Tokyo Team, {Faculty of Engineering, University of Tokyo

>  <COMMENT>  (332) 
SMILES=CCCC[Si](Cl)(CCCC)[Si](Cl)(CCCC)CCCC
InChI=InChI=1S/C16H36Cl2Si2/c1-5-9-13-19(17,14-10-6-2)20(18,15-11-7-3)16-12-8-4/h5-16H2,1-4H3
computed SMILES=Cl[Si](CCCC)(CCCC)[Si](Cl)(CCCC)CCCC
accession=JP011671
date=2016.01.19 (Created 2008.10.21, modified 2011.05.06)
author=FAC. TECHNOLOGY, HIROSHIMA UNIV.
license=CC BY-NC-SA
exact mass=354.17326
ionization energy=70 eV
ion type=[M]+*
computed spectral entropy=3.5934073492211005
computed normalized entropy=0.8576857928591664
SPLASH=splash10-03dr-8900000000-4b2460a7d2b00dd60872
submitter=submitter = University of Tokyo Team (Faculty of Engineering, University of Tokyo)
MoNA Rating=3.75

>  <NUM PEAKS>  (332) 
66

>  <MASS SPECTRAL PEAKS>  (332) 
55 18.1
56 4.3
57 11.7
58 12.8
59 23.4
60 1.1
63 10.6
65 7.4
67 2.1
69 1.1
71 6.4
72 18.1
73 5.3
78 2.1
79 19.1
80 1.1
81 6.4
83 4.3
84 5.3
85 24.5
86 44.7
87 11.7
88 1.1
91 3.2
92 4.3
93 21.3
94 2.1
95 7.4
99 10.6
100 16
101 7.4
103 1.1
105 3.2
107 2.1
112 3.2
113 13.8
114 99.99
115 11.7
116 2.1
119 5.3
121 23.4
122 2.1
123 8.5
127 2.1
129 3.2
131 2.1
135 5.3
137 1.1
140 7.4
141 2.1
142 23.4
143 11.7
144 2.1
145 2.1
147 2.1
148 6.4
149 2.1
150 2.1
157 2.1
159 1.1
176 12.8
177 14.9
178 6.4
179 4.3
185 5.3
187 2.1

>  <PREDICTED SPECTRUM>  (332) 
26 43
27 202
28 57
29 294
30 40
35 8
36 15
38 18
39 204
40 51
41 356
42 83
43 141
44 116
45 228
46 39
47 127
48 34
49 13
50 14
51 101
52 71
53 109
54 156
55 240
56 209
57 259
58 64
59 274
60 131
61 120
62 92
63 207
64 40
65 236
66 131
67 125
68 32
69 94
71 101
72 30
73 253
74 155
75 80
76 25
77 171
78 255
79 267
80 124
81 89
82 19
83 107
84 1
85 119
86 99
87 145
88 71
89 77
90 42
91 136
92 42
93 136
94 119
95 97
96 42
97 61
99 76
100 86
101 238
102 25
103 142
104 9
105 109
107 72
108 14
109 16
111 69
112 14
113 75
114 22
115 108
116 70
117 35
118 38
119 56
120 53
121 107
122 69
123 47
124 53
125 59
126 17
127 77
128 20
129 153
130 4
131 146
132 61
133 157
135 34
137 47
139 46
140 12
141 84
142 9
143 172
144 3
145 72
147 13
149 83
150 94
151 117
152 78
153 54
154 19
157 119
158 16
159 43
161 76
162 81
163 125
164 4
165 9
166 1
173 108
175 63
177 81
178 37
179 74
180 46
182 44
183 285
184 112
185 525
186 219
187 442
188 116
189 167
192 1
199 235
200 95
201 157
202 85
203 116
205 7
211 41
212 5
213 105
214 11
215 27
233 9
239 54
240 125
241 999
242 533
243 786
244 342
245 314
246 129
255 1
256 39
257 44
258 42
261 10
263 21
284 4
293 139
297 971
298 550
299 700
300 370
301 356
302 92
322 9
327 13
353 7
354 105
355 34
356 111
357 27

$$$$

     RDKit          2D

 28 30  0  0  0  0  0  0  0  0999 V2000
    0.0806    4.2503    0.0000 C   0  0  0  0  0  0  0  0  0  0  0  0
   -1.4090    2.9058    0.0000 C   0  0  0  0  0  0  0  0  0  0  0  0
    2.7105   -1.8303    0.0000 C   0  0  0  0  0  0  0  0  0  0  0  0
    4.6908   -1.0698    0.0000 C   0  0  0  0  0  0  0  0  0  0  0  0
    4.3622    0.6192    0.0000 C   0  0  0  0  0  0  0  0  0  0  0  0
   -7.4749    1.8399    0.0000 C   0  0  0  0  0  0  0  0  0  0  0  0
   -8.0243   -0.2090    0.0000 C   0  0  0  0  0  0  0  0  0  0  0  0
   -5.9753   -0.7584    0.0000 C   0  0  0  0  0  0  0  0  0  0  0  0
   -4.4616    2.4395    0.0000 C   0  0  0  0  0  0  0  0  0  0  0  0
   -6.3900    2.4398    0.0000 C   0  0  0  0  0  0  0  0  0  0  0  0
    3.0649    0.3270    0.0000 C   0  0  0  0  0  0  0  0  0  0  0  0
    3.4819    2.2905    0.0000 C   0  0  0  0  0  0  0  0  0  0  0  0
   -2.8271   -1.7097    0.0000 C   0  0  0  0  0  0  0  0  0  0  0  0
   -4.1271   -0.9597    0.0000 C   0  0  0  0  0  0  0  0  0  0  0  0
   -0.2271   -1.7097    0.0000 C   0  0  0  0  0  0  0  0  0  0  0  0
    1.0729   -0.9597    0.0000 C   0  0  0  0  0  0  0  0  0  0  0  0
   -2.8271    1.2903    0.0000 C   0  0  0  0  0  0  0  0  0  0  0  0
   -1.5271   -0.9597    0.0000 C   0  0  0  0  0  0  0  0  0  0  0  0
   -4.1271    0.5403    0.0000 C   0  0  0  0  0  0  0  0  0  0  0  0
   -1.5271    0.5403    0.0000 C   0  0  0  0  0  0  0  0  0  0  0  0
   -0.2271    1.2903    0.0000 C   0  0  0  0  0  0  0  0  0  0  0  0
    0.0829    2.7503    0.0000 C   0  0  0  0  0  0  0  0  0  0  0  0
    1.0729    0.5403    0.0000 C   0  0  0  0  0  0  0  0  0  0  0  0
    1.5729    2.9103    0.0000 O   0  0  0  0  0  0  0  0  0  0  0  0
    3.3204   -0.4599    0.0000 Si  0  0  0  0  0  4  0  0  0  0  0  0
   -6.7251    0.5408    0.0000 Si  0  0  0  0  0  4  0  0  0  0  0  0
   -5.4260    1.2906    0.0000 Si  0  0  0  0  0  4  0  0  0  0  0  0
    2.1829    1.5403    0.0000 Si  0  0  0  0  0  4  0  0  0  0  0  0
 14 13  2  0
 16 15  2  0
 18 13  1  0
 18 15  1  0
 19 14  1  0
 19 17  2  0
 20 17  1  0
 20 18  2  0
 21 20  1  0
 22  1  1  0
 22  2  1  0
 22 21  1  0
 23 16  1  0
 23 21  1  0
 24 22  1  0
 25  3  1  0
 25  4  1  0
 25  5  1  0
 25 23  1  0
 26  6  1  0
 26  7  1  0
 26  8  1  0
 27  9  1  0
 27 10  1  0
 27 19  1  0
 27 26  1  0
 28 11  1  0
 28 12  1  0
 28 23  1  0
 28 24  1  0
M  END
>  <NAME>  (333) 
7,8-DIHYDRO-2-(PENTAMETHYLDISILANYL)-7,8-(1,1,3,3-TETRAMETHYL-2-OXA-1-SILA-1,3-PROPANEDIYL)-7-(TRIMETHYLSILYL)NAPHTHALENE

>  <SYNONYMS>  (333) 


>  <SPECTRUM TYPE>  (333) 
MS1

>  <INSTRUMENT TYPE>  (333) 
EI-B

>  <INSTRUMENT>  (333) 
SHIMADZU QP-1000

>  <ION MODE>  (333) 
P

>  <INCHIKEY>  (333) 
RSFDNGIJKSFATQ-UHFFFAOYSA-N

>  <FORMULA>  (333) 
C23H42OSi4

>  <EXACT MASS>  (333) 
446.23127208399995

>  <MW>  (333) 
446

>  <ID>  (333) 
JP011670

>  <CONTRIBUTOR>  (333) 
University of Tokyo Team, {Faculty of Engineering, University of Tokyo

>  <COMMENT>  (333) 
SMILES=C[Si](C)(C)[Si](C)(C)c(c3)cc(c(c3)2)C(C(C)(C)1)C(C=C2)([Si](C)(C)C)[Si](C)(C)O1
InChI=InChI=1S/C23H42OSi4/c1-22(2)21-20-17-19(27(9,10)26(6,7)8)14-13-18(20)15-16-23(21,25(3,4)5)28(11,12)24-22/h13-17,21H,1-12H3
computed SMILES=O1C(C)(C)C2C=3C=C(C=CC3C=CC2([Si]1(C)C)[Si](C)(C)C)[Si](C)(C)[Si](C)(C)C
accession=JP011670
date=2016.01.19 (Created 2008.10.21, modified 2011.05.06)
author=FAC. TECHNOLOGY, HIROSHIMA UNIV.
license=CC BY-NC-SA
exact mass=446.23127
ionization energy=70 eV
ion type=[M]+*
computed spectral entropy=3.3659228294447874
computed normalized entropy=0.8063273989260077
SPLASH=splash10-014i-5955000000-dd50337d5651a016a093
submitter=submitter = University of Tokyo Team (Faculty of Engineering, University of Tokyo)
MoNA Rating=3.75

>  <NUM PEAKS>  (333) 
65

>  <MASS SPECTRAL PEAKS>  (333) 
45 5.3
47 16
59 5.3
60 7.4
62 3.2
73 99.99
74 9.6
75 24.5
76 1.1
101 19.1
102 1.1
115 7.5
116 91.5
117 11.7
118 4.2
121 1.1
131 36.2
132 5.3
133 4.3
147 43.6
148 5.3
149 3.2
167 2.1
169 6.4
176 3.2
178 11.7
179 2.1
180 5.3
195 3.2
197 2.1
198 1.1
205 5.3
211 2.1
225 7.4
226 3.2
227 33
228 7.4
229 2.1
240 3.2
241 6.4
242 6.4
243 10.6
244 2.1
257 43.6
258 11.7
259 3.2
283 3.2
284 1.1
285 6.4
299 11.7
300 6.4
301 1.1
314 3.2
315 88.3
316 26.6
317 9.6
318 1.1
331 2.3
373 6
374 2.1
388 3
389 1.3
446 8.5
447 3.8
448 1.7

>  <PREDICTED SPECTRUM>  (333) 
27 21
28 34
29 12
31 70
39 47
41 72
42 47
43 314
44 121
45 325
46 23
53 47
55 38
57 14
59 287
60 20
62 17
63 41
64 12
65 36
67 19
69 168
73 899
74 257
75 256
77 26
79 76
81 9
83 144
89 35
90 31
91 72
92 38
93 44
95 99
96 6
99 111
100 93
101 152
107 15
113 44
114 60
115 482
116 862
117 415
118 198
121 2
123 50
124 10
127 2
129 14
131 621
132 112
133 201
135 38
137 43
139 19
143 2
145 19
147 442
148 126
149 129
151 71
152 18
154 19
161 73
165 65
166 30
167 133
168 5
169 51
174 25
178 66
179 16
180 20
187 4
189 43
193 19
195 91
196 44
197 126
198 123
199 110
201 21
205 401
211 50
212 3
213 98
214 18
215 61
224 66
225 277
226 268
227 380
228 172
229 79
239 70
240 138
241 349
242 216
243 264
244 133
255 130
256 116
257 456
258 326
259 197
269 8
273 6
280 18
283 224
284 119
285 280
286 80
299 340
300 204
301 138
314 68
315 999
316 601
317 358
331 111
333 4
373 294
374 115
388 147
389 68
390 2
391 23
431 15
432 17
446 301
447 170
448 109
449 36

$$$$

     RDKit          2D

  8  8  0  0  0  0  0  0  0  0999 V2000
    3.8981   -0.7504    0.0000 C   0  0  0  0  0  0  0  0  0  0  0  0
   -1.3000    0.7500    0.0000 C   0  0  0  0  0  0  0  0  0  0  0  0
    0.0000    1.5000    0.0000 C   0  0  0  0  0  0  0  0  0  0  0  0
   -1.3000   -0.7500    0.0000 C   0  0  0  0  0  0  0  0  0  0  0  0
    1.3000    0.7500    0.0000 C   0  0  0  0  0  0  0  0  0  0  0  0
    0.0000   -1.5000    0.0000 C   0  0  0  0  0  0  0  0  0  0  0  0
    1.3000   -0.7500    0.0000 C   0  0  0  0  0  0  0  0  0  0  0  0
    2.5989   -1.5002    0.0000 Si  0  0  0  0  0  4  0  0  0  0  0  0
  3  2  2  0
  4  2  1  0
  5  3  1  0
  6  4  2  0
  7  5  2  0
  7  6  1  0
  8  1  1  0
  8  7  1  0
M  END
>  <NAME>  (334) 
METHYLPHENYLSILANE

>  <SYNONYMS>  (334) 


>  <SPECTRUM TYPE>  (334) 
MS1

>  <INSTRUMENT TYPE>  (334) 
EI-B

>  <INSTRUMENT>  (334) 
SHIMADZU QP-1000

>  <ION MODE>  (334) 
P

>  <INCHIKEY>  (334) 
QRLBICHXRCOJDU-UHFFFAOYSA-N

>  <FORMULA>  (334) 
C7H10Si

>  <EXACT MASS>  (334) 
122.05517685

>  <MW>  (334) 
122

>  <ID>  (334) 
JP011669

>  <CONTRIBUTOR>  (334) 
University of Tokyo Team, {Faculty of Engineering, University of Tokyo

>  <COMMENT>  (334) 
SMILES=C[SiH2]c(c1)cccc1
InChI=InChI=1S/C7H10Si/c1-8-7-5-3-2-4-6-7/h2-6H,8H2,1H3
computed SMILES=C=1C=CC(=CC1)[SiH2]C
accession=JP011669
date=2016.01.19 (Created 2008.10.21, modified 2011.05.06)
author=FAC. TECHNOLOGY, HIROSHIMA UNIV.
license=CC BY-NC-SA
exact mass=122.05518
ionization energy=70 eV
ion type=[M]+*
computed spectral entropy=2.894441959963389
computed normalized entropy=0.8141093107915975
SPLASH=splash10-05fr-6900000000-9b69bffc7619f799d83d
submitter=submitter = University of Tokyo Team (Faculty of Engineering, University of Tokyo)
MoNA Rating=3.75

>  <NUM PEAKS>  (334) 
35

>  <MASS SPECTRAL PEAKS>  (334) 
52 13.8
53 16
54 64.9
55 63.8
56 14.9
59 3.2
60 9.6
61 3.2
64 1.1
65 5.3
66 7.4
67 8.5
68 1.1
69 6.4
74 6.4
77 14.9
78 9.6
79 16
80 3.2
81 8.5
91 3.2
93 5.3
95 5.3
96 1.1
103 5.3
105 45.7
106 20.2
107 74.5
108 8.5
109 2.1
120 51
121 99.99
122 83
123 11.7
124 2.1

>  <PREDICTED SPECTRUM>  (334) 
14 13
15 46
25 17
26 113
27 225
28 68
29 39
31 49
32 14
33 10
36 57
37 136
38 209
39 413
40 147
41 252
42 158
43 244
44 226
45 308
46 105
47 35
49 58
50 379
51 563
52 284
53 272
54 128
55 106
57 150
58 110
59 69
60 23
61 217
62 245
63 398
64 231
65 372
66 163
67 150
68 151
69 83
70 71
71 31
73 45
74 254
75 284
76 186
77 533
78 487
79 544
80 359
81 235
82 140
83 33
87 26
88 10
89 150
90 142
91 523
92 288
93 303
94 250
95 221
96 83
101 89
102 232
103 258
104 188
105 333
106 290
107 748
108 222
117 198
118 101
119 362
120 373
121 908
122 999
123 282
124 60

$$$$

     RDKit          2D

  8  7  0  0  0  0  0  0  0  0999 V2000
    1.6740    0.1005    0.0000 C   0  0  0  0  0  0  0  0  0  0  0  0
   -0.9240    1.6005    0.0000 C   0  0  0  0  0  0  0  0  0  0  0  0
   -0.3750   -0.4486    0.0000 C   0  0  0  0  0  0  0  0  0  0  0  0
    2.4240    1.3995    0.0000 C   0  0  0  0  0  0  0  0  0  0  0  0
    1.8750    3.4486    0.0000 C   0  0  0  0  0  0  0  0  0  0  0  0
    0.3750    0.8505    0.0000 C   0  0  0  0  0  0  0  0  0  0  0  0
   -0.1740    2.8995    0.0000 Cl  0  0  0  0  0  0  0  0  0  0  0  0
    1.1250    2.1495    0.0000 Si  0  0  0  0  0  4  0  0  0  0  0  0
  6  1  1  0
  6  2  1  0
  6  3  1  0
  8  4  1  0
  8  5  1  0
  8  6  1  0
  8  7  1  0
M  END
>  <NAME>  (335) 
TERT-BUTYLCHLORODIMETHYLSILANE

>  <SYNONYMS>  (335) 


>  <SPECTRUM TYPE>  (335) 
MS1

>  <INSTRUMENT TYPE>  (335) 
EI-B

>  <INSTRUMENT>  (335) 
SHIMADZU QP-1000

>  <ION MODE>  (335) 
P

>  <INCHIKEY>  (335) 
BCNZYOJHNLTNEZ-UHFFFAOYSA-N

>  <FORMULA>  (335) 
C6H15ClSi

>  <EXACT MASS>  (335) 
150.06315469

>  <MW>  (335) 
150

>  <ID>  (335) 
JP011668

>  <CONTRIBUTOR>  (335) 
University of Tokyo Team, {Faculty of Engineering, University of Tokyo

>  <COMMENT>  (335) 
SMILES=CC(C)(C)[Si](C)(C)Cl
InChI=InChI=1S/C6H15ClSi/c1-6(2,3)8(4,5)7/h1-5H3
computed SMILES=Cl[Si](C)(C)C(C)(C)C
accession=JP011668
date=2016.01.19 (Created 2008.10.21, modified 2011.05.06)
author=FAC. TECHNOLOGY, HIROSHIMA UNIV.
license=CC BY-NC-SA
exact mass=150.06315
ionization energy=70 eV
ion type=[M]+*
computed spectral entropy=2.2485574519684084
computed normalized entropy=0.7636624388816394
SPLASH=splash10-0a4i-9000000000-6f61cf310e7f760f6dde
submitter=submitter = University of Tokyo Team (Faculty of Engineering, University of Tokyo)
MoNA Rating=3.75

>  <NUM PEAKS>  (335) 
19

>  <MASS SPECTRAL PEAKS>  (335) 
56 99.99
57 57
58 18.3
59 63.4
63 7
65 10.6
67 2.1
71 5.6
72 6.3
73 13.4
74 19.7
75 1.4
78 1.4
79 2.1
93 52.8
94 4.2
95 18.3
150 2.3
152 1

>  <PREDICTED SPECTRUM>  (335) 
15 34
27 54
28 8
29 176
31 24
39 161
40 33
41 258
42 175
43 368
44 132
45 135
49 63
50 15
51 156
52 58
53 112
54 59
55 169
56 211
57 463
58 406
59 400
60 92
63 185
64 37
65 281
66 70
67 228
68 15
69 105
71 141
72 86
73 534
74 102
75 4
77 45
78 258
79 258
80 105
81 196
82 49
83 38
85 67
86 126
92 66
93 999
94 348
95 746
96 280
97 223
99 114
107 27
108 2
109 45
115 34
121 9
123 24
135 117
137 66
150 292
151 84
152 128
153 6

$$$$

     RDKit          2D

  9  9  0  0  0  0  0  0  0  0999 V2000
    1.1480    1.5688    0.0000 C   0  0  0  0  0  0  0  0  0  0  0  0
   -0.3438    2.9120    0.0000 C   0  0  0  0  0  0  0  0  0  0  0  0
   -3.7447    0.9485    0.0000 C   0  0  0  0  0  0  0  0  0  0  0  0
   -3.3273   -1.0151    0.0000 C   0  0  0  0  0  0  0  0  0  0  0  0
   -0.0319   -0.0552    0.0000 C   0  0  0  0  0  0  0  0  0  0  0  0
   -1.3309   -0.8052    0.0000 C   0  0  0  0  0  0  0  0  0  0  0  0
   -1.8355    1.5688    0.0000 O   0  0  0  0  0  0  0  0  0  0  0  0
   -0.3438    1.4120    0.0000 Si  0  0  0  0  0  4  0  0  0  0  0  0
   -2.4456    0.1985    0.0000 Si  0  0  0  0  0  4  0  0  0  0  0  0
  6  5  1  0
  8  1  1  0
  8  2  1  0
  8  5  1  0
  8  7  1  0
  9  3  1  0
  9  4  1  0
  9  6  1  0
  9  7  1  0
M  END
>  <NAME>  (336) 
2,2,5,5-TETRAMETHYL-2,5-DISILAOXOLANE

>  <SYNONYMS>  (336) 


>  <SPECTRUM TYPE>  (336) 
MS1

>  <INSTRUMENT TYPE>  (336) 
EI-B

>  <INSTRUMENT>  (336) 
SHIMADZU QP-1000

>  <ION MODE>  (336) 
P

>  <INCHIKEY>  (336) 
ZJWXCSUSULCHCK-UHFFFAOYSA-N

>  <FORMULA>  (336) 
C6H16OSi2

>  <EXACT MASS>  (336) 
160.073968192

>  <MW>  (336) 
160

>  <ID>  (336) 
JP011666

>  <CONTRIBUTOR>  (336) 
University of Tokyo Team, {Faculty of Engineering, University of Tokyo

>  <COMMENT>  (336) 
SMILES=C[Si](C)(C1)O[Si](C)(C)C1
InChI=InChI=1S/C6H16OSi2/c1-8(2)5-6-9(3,4)7-8/h5-6H2,1-4H3
computed SMILES=O1[Si](C)(C)CC[Si]1(C)C
accession=JP011666
date=2016.01.19 (Created 2008.10.21, modified 2011.05.06)
author=FAC. TECHNOLOGY, HIROSHIMA UNIV.
license=CC BY-NC-SA
exact mass=160.07397
ionization energy=70 eV
ion type=[M]+*
computed spectral entropy=2.805767506848463
computed normalized entropy=0.7770233427416352
SPLASH=splash10-06dj-9700000000-8691b26eec5a02a0aacd
submitter=submitter = University of Tokyo Team (Faculty of Engineering, University of Tokyo)
MoNA Rating=3.75

>  <NUM PEAKS>  (336) 
37

>  <MASS SPECTRAL PEAKS>  (336) 
51 31.9
52 22.3
53 4.3
55 5.3
56 1.1
57 6.4
58 48.9
59 66
60 2.1
61 2.1
65 3.2
66 6.4
67 1.1
70 1.1
71 2.1
72 11.7
73 45.7
74 19.1
75 3.2
85 2.1
87 6.4
101 3.2
102 2.1
103 3.2
105 1.1
117 99.99
118 12.8
119 12.8
127 2.1
128 3.2
131 2.1
132 10.6
133 3.2
145 75.5
146 11.7
147 5.3
160 6.4

>  <PREDICTED SPECTRUM>  (336) 
27 40
28 22
29 99
31 60
39 28
40 11
41 101
42 124
43 260
44 109
45 345
46 58
47 64
53 56
54 15
55 117
56 10
57 152
58 287
59 666
60 200
61 171
67 13
69 19
71 190
72 169
73 715
74 215
75 228
76 44
77 47
78 16
79 50
83 17
84 22
85 183
86 159
87 165
88 51
89 117
91 17
99 7
101 248
102 125
103 245
104 66
105 65
106 0
113 4
115 152
116 36
117 968
118 327
119 323
120 30
121 21
129 161
131 335
132 186
133 184
134 23
135 3
144 10
145 999
146 398
147 263
148 21
160 184
161 69

$$$$

     RDKit          2D

 26 29  0  0  0  0  0  0  0  0999 V2000
   -0.3047   -4.3849    0.0000 C   0  0  0  0  0  0  0  0  0  0  0  0
   -2.0775    1.1118    0.0000 C   0  0  0  0  0  0  0  0  0  0  0  0
    5.8274    1.0402    0.0000 C   0  0  0  0  0  0  0  0  0  0  0  0
   -8.2096   -4.3133    0.0000 C   0  0  0  0  0  0  0  0  0  0  0  0
    5.8279   -0.4606    0.0000 C   0  0  0  0  0  0  0  0  0  0  0  0
    4.5279    1.7910    0.0000 C   0  0  0  0  0  0  0  0  0  0  0  0
   -8.2101   -2.8125    0.0000 C   0  0  0  0  0  0  0  0  0  0  0  0
   -6.9101   -5.0642    0.0000 C   0  0  0  0  0  0  0  0  0  0  0  0
    4.5288   -1.2106    0.0000 C   0  0  0  0  0  0  0  0  0  0  0  0
    3.2288    1.0410    0.0000 C   0  0  0  0  0  0  0  0  0  0  0  0
   -6.9110   -2.0625    0.0000 C   0  0  0  0  0  0  0  0  0  0  0  0
   -5.6110   -4.3142    0.0000 C   0  0  0  0  0  0  0  0  0  0  0  0
    0.3047   -3.0143    0.0000 C   0  0  0  0  0  0  0  0  0  0  0  0
   -2.6870   -0.2588    0.0000 C   0  0  0  0  0  0  0  0  0  0  0  0
    3.2293   -0.4598    0.0000 C   0  0  0  0  0  0  0  0  0  0  0  0
   -5.6115   -2.8133    0.0000 C   0  0  0  0  0  0  0  0  0  0  0  0
   -0.4453   -1.7153    0.0000 C   0  0  0  0  0  0  0  0  0  0  0  0
   -1.9370   -1.5578    0.0000 C   0  0  0  0  0  0  0  0  0  0  0  0
    0.5545   -0.6069    0.0000 C   0  0  0  0  0  0  0  0  0  0  0  0
   -2.9367   -2.6662    0.0000 C   0  0  0  0  0  0  0  0  0  0  0  0
    1.7645   -2.7027    0.0000 N   0  0  0  0  0  0  0  0  0  0  0  0
   -4.1467   -0.5704    0.0000 N   0  0  0  0  0  0  0  0  0  0  0  0
    1.9303   -1.2098    0.0000 N   0  0  0  0  0  0  0  0  0  0  0  0
   -4.3125   -2.0633    0.0000 N   0  0  0  0  0  0  0  0  0  0  0  0
    0.2390    0.8595    0.0000 O   0  0  0  0  0  0  0  0  0  0  0  0
   -2.6212   -4.1327    0.0000 O   0  0  0  0  0  0  0  0  0  0  0  0
  5  3  2  0
  6  3  1  0
  7  4  2  0
  8  4  1  0
  9  5  1  0
 10  6  2  0
 11  7  1  0
 12  8  2  0
 13  1  1  0
 14  2  1  0
 15  9  2  0
 15 10  1  0
 16 11  2  0
 16 12  1  0
 17 13  1  0
 18 14  1  0
 18 17  1  0
 19 17  1  0
 20 18  1  0
 21 13  2  0
 22 14  2  0
 23 15  1  0
 23 19  1  0
 23 21  1  0
 24 16  1  0
 24 20  1  0
 24 22  1  0
 25 19  2  0
 26 20  2  0
M  END
>  <NAME>  (337) 
4,4'-BIS-(1-PHENYL-3-METHYL-5-PYRAZOLONE)

>  <SYNONYMS>  (337) 


>  <SPECTRUM TYPE>  (337) 
MS1

>  <INSTRUMENT TYPE>  (337) 
EI-B

>  <INSTRUMENT>  (337) 
HITACHI M-2500

>  <ION MODE>  (337) 
P

>  <INCHIKEY>  (337) 
FORCWSNQDMPPOC-UHFFFAOYSA-N

>  <FORMULA>  (337) 
C20H18N4O2

>  <EXACT MASS>  (337) 
346.142975816

>  <MW>  (337) 
346

>  <ID>  (337) 
JP011665

>  <CONTRIBUTOR>  (337) 
University of Tokyo Team, {Faculty of Engineering, University of Tokyo

>  <COMMENT>  (337) 
cas=7477-67-0
SMILES=c(c4)ccc(c4)N(N=3)C(=O)C(C(C)3)C(C(C)=1)C(=O)N(c(c2)cccc2)N1
InChI=InChI=1S/C20H18N4O2/c1-13-17(19(25)23(21-13)15-9-5-3-6-10-15)18-14(2)22-24(20(18)26)16-11-7-4-8-12-16/h3-12,17-18H,1-2H3
computed SMILES=O=C1N(N=C(C)C1C2C(=O)N(N=C2C)C=3C=CC=CC3)C=4C=CC=CC4
accession=JP011665
date=2016.01.19 (Created 2008.10.21, modified 2011.05.06)
author=YAMAMOTO M, DEP. CHEMISTRY, FAC. SCIENCE, NARA WOMEN'S UNIV.
license=CC BY-NC-SA
exact mass=346.14298
ionization energy=70 eV
ion type=[M]+*
computed spectral entropy=2.822884225450323
computed normalized entropy=0.7144292851830949
SPLASH=splash10-0002-4329000000-7419289a51d82a967e56
submitter=submitter = University of Tokyo Team (Faculty of Engineering, University of Tokyo)
MoNA Rating=3.75

>  <NUM PEAKS>  (337) 
52

>  <MASS SPECTRAL PEAKS>  (337) 
18 3.86
39 1.87
40 1.1
41 1.22
42 3.07
51 4.21
52 1.32
53 1.38
64 1.51
65 1.86
67 1.55
77 31.55
78 2.97
91 4.15
92 2.21
93 4.39
94 1.74
105 4.21
106 2.34
115 1.02
118 1.55
119 1.02
122 2.59
128 1.71
132 1.39
142 1.48
143 1.39
144 1.26
158 1.04
172 1.23
173 17.19
174 2.42
184 1.57
185 4.2
186 1.12
198 2.39
202 1.01
212 1.27
213 12.96
214 2.09
225 1.07
226 4.8
227 1.78
241 7.11
242 1.28
254 3.91
255 1.57
276 1.12
345 2.18
346 99.99
347 24
348 3.18

>  <PREDICTED SPECTRUM>  (337) 
27 45
38 18
39 196
40 63
41 121
42 95
43 4
44 24
50 61
51 319
52 116
53 99
54 71
55 90
56 37
63 119
64 237
65 201
66 82
67 136
68 40
70 29
74 2
75 24
77 664
78 197
79 69
80 37
81 40
82 39
83 41
84 26
89 32
90 46
91 442
92 202
93 147
94 104
95 8
96 18
102 13
103 41
104 42
105 262
106 46
107 55
108 36
109 32
110 27
115 108
116 30
117 30
118 254
119 131
121 63
122 85
128 4
129 17
130 80
131 59
132 71
134 44
135 94
136 49
142 4
143 14
144 39
145 76
146 37
147 15
156 66
157 98
158 79
159 45
160 87
161 62
170 39
171 21
172 145
173 366
174 178
175 5
184 54
185 191
186 176
187 79
188 36
189 29
197 158
198 182
199 86
200 16
201 16
211 31
212 151
213 298
214 80
224 87
225 150
226 190
227 109
228 5
229 3
238 12
240 12
241 91
252 41
253 58
254 448
255 178
256 26
269 7
277 5
317 51
318 69
319 19
345 141
346 999
347 455
348 152
349 25

$$$$

     RDKit          2D

 16 19  0  0  0  0  0  0  0  0999 V2000
   -3.2500   -1.8800    0.0000 C   0  0  0  0  0  0  0  0  0  0  0  0
    3.2500    1.8800    0.0000 C   0  0  0  0  0  0  0  0  0  0  0  0
   -1.9500   -2.6200    0.0000 C   0  0  0  0  0  0  0  0  0  0  0  0
   -3.2500   -0.3800    0.0000 C   0  0  0  0  0  0  0  0  0  0  0  0
    3.2500    0.3800    0.0000 C   0  0  0  0  0  0  0  0  0  0  0  0
    1.9500    2.6200    0.0000 C   0  0  0  0  0  0  0  0  0  0  0  0
    0.6500   -2.6200    0.0000 C   0  0  0  0  0  0  0  0  0  0  0  0
   -1.9500    1.8800    0.0000 C   0  0  0  0  0  0  0  0  0  0  0  0
    1.9500   -1.8800    0.0000 C   0  0  0  0  0  0  0  0  0  0  0  0
   -0.6500    2.6200    0.0000 C   0  0  0  0  0  0  0  0  0  0  0  0
   -0.6500   -1.8800    0.0000 C   0  0  0  0  0  0  0  0  0  0  0  0
   -1.9500    0.3800    0.0000 C   0  0  0  0  0  0  0  0  0  0  0  0
    1.9500   -0.3800    0.0000 C   0  0  0  0  0  0  0  0  0  0  0  0
    0.6500    1.8800    0.0000 C   0  0  0  0  0  0  0  0  0  0  0  0
   -0.6500   -0.3800    0.0000 C   0  0  0  0  0  0  0  0  0  0  0  0
    0.6500    0.3800    0.0000 C   0  0  0  0  0  0  0  0  0  0  0  0
  3  1  2  0
  4  1  1  0
  5  2  2  0
  6  2  1  0
  9  7  1  0
 10  8  2  0
 11  3  1  0
 11  7  2  0
 12  4  2  0
 12  8  1  0
 13  5  1  0
 13  9  2  0
 14  6  2  0
 14 10  1  0
 15 11  1  0
 15 12  1  0
 16 13  1  0
 16 14  1  0
 16 15  2  0
M  END
>  <NAME>  (338) 
PYRENE

>  <SYNONYMS>  (338) 


>  <SPECTRUM TYPE>  (338) 
MS1

>  <INSTRUMENT TYPE>  (338) 
EI-B

>  <INSTRUMENT>  (338) 
HITACHI M-2500

>  <ION MODE>  (338) 
P

>  <INCHIKEY>  (338) 
BBEAQIROQSPTKN-UHFFFAOYSA-N

>  <FORMULA>  (338) 
C16H10

>  <EXACT MASS>  (338) 
202.07825032

>  <MW>  (338) 
202

>  <ID>  (338) 
JP011664

>  <CONTRIBUTOR>  (338) 
University of Tokyo Team, {Faculty of Engineering, University of Tokyo

>  <COMMENT>  (338) 
SMILES=c(c4)cc(c3)c(c41)c(c2c3)c(ccc2)cc1
cas=129-00-0
InChI=InChI=1S/C16H10/c1-3-11-7-9-13-5-2-6-14-10-8-12(4-1)15(11)16(13)14/h1-10H
computed SMILES=C=1C=C2C=CC3=CC=CC=4C=CC(C1)=C2C34
accession=JP011664
date=2016.01.19 (Created 2008.10.21, modified 2011.05.06)
author=YAMAMOTO M, DEP. CHEMISTRY, FAC. SCIENCE, NARA WOMEN'S UNIV.
license=CC BY-NC-SA
exact mass=202.07825
ionization energy=70 eV
ion type=[M]+*
computed spectral entropy=1.9699900174063443
computed normalized entropy=0.6575988230981816
SPLASH=splash10-0udi-1290000000-1f9a049804cf2fb46ba3
submitter=submitter = University of Tokyo Team (Faculty of Engineering, University of Tokyo)
MoNA Rating=3.75

>  <NUM PEAKS>  (338) 
20

>  <MASS SPECTRAL PEAKS>  (338) 
18 1.36
74 1.09
75 1.23
78 5.07
87 2.76
88 4.58
99 2.15
100 12.05
101 17.91
102 3
150 1.14
174 1.67
175 1.24
198 1.86
199 2.73
200 15.5
201 13.04
202 99.99
203 17.94
204 1.42

>  <PREDICTED SPECTRUM>  (338) 
27 19
39 39
40 9
46 36
50 56
51 26
62 64
63 85
73 34
74 123
75 127
76 85
81 16
85 35
86 41
87 53
88 16
94 7
98 82
99 61
100 126
101 81
110 73
111 74
112 36
113 90
120 9
121 1
122 93
126 109
136 53
149 123
150 141
151 49
161 65
162 17
173 132
174 205
175 202
176 163
177 15
187 90
196 23
197 71
198 190
199 303
200 502
201 485
202 999
203 459
204 156

$$$$

     RDKit          2D

 22 22  0  0  0  0  0  0  0  0999 V2000
   -6.4964   -0.7492    0.0000 C   0  0  0  0  0  0  0  0  0  0  0  0
   -3.8983   -0.7496    0.0000 C   0  0  0  0  0  0  0  0  0  0  0  0
    3.8981   -0.7504    0.0000 C   0  0  0  0  0  0  0  0  0  0  0  0
    2.5987   -3.0002    0.0000 C   0  0  0  0  0  0  0  0  0  0  0  0
   -7.7951    1.5010    0.0000 C   0  0  0  0  0  0  0  0  0  0  0  0
   -1.3000   -0.7500    0.0000 C   0  0  0  0  0  0  0  0  0  0  0  0
    0.0000    1.5000    0.0000 C   0  0  0  0  0  0  0  0  0  0  0  0
    0.0000   -1.5000    0.0000 C   0  0  0  0  0  0  0  0  0  0  0  0
    1.3000    0.7500    0.0000 C   0  0  0  0  0  0  0  0  0  0  0  0
   -9.0942    0.7512    0.0000 C   0  0  0  0  0  0  0  0  0  0  0  0
   -5.1970    1.5006    0.0000 C   0  0  0  0  0  0  0  0  0  0  0  0
   -6.4962    0.7508    0.0000 C   0  0  0  0  0  0  0  0  0  0  0  0
   -3.8981    0.7504    0.0000 C   0  0  0  0  0  0  0  0  0  0  0  0
   -1.3000    0.7500    0.0000 C   0  0  0  0  0  0  0  0  0  0  0  0
    1.3000   -0.7500    0.0000 C   0  0  0  0  0  0  0  0  0  0  0  0
  -10.3931    1.5015    0.0000 C   0  0  0  0  0  0  0  0  0  0  0  0
   -2.5989    1.5002    0.0000 C   0  0  0  0  0  0  0  0  0  0  0  0
  -11.6923    0.7517    0.0000 N   0  0  0  0  0  0  0  0  0  0  0  0
    2.5989   -1.5002    0.0000 N   0  0  0  0  0  0  0  0  0  0  0  0
  -10.3929    3.0015    0.0000 O   0  0  0  0  0  0  0  0  0  0  0  0
   -2.5987    3.0002    0.0000 O   0  0  0  0  0  0  0  0  0  0  0  0
  -12.9912    1.5019    0.0000 O   0  0  0  0  0  0  0  0  0  0  0  0
  8  6  2  0
  9  7  1  0
  5 10  2  0
 12  1  1  0
 12  5  1  0
 11 12  2  0
 13  2  1  0
 13 11  1  0
 14  6  1  0
 14  7  2  0
 15  8  1  0
 15  9  2  0
 16 10  1  0
 17 13  1  0
 17 14  1  0
 18 16  2  3
 19  3  1  0
 19  4  1  0
 19 15  1  0
 20 16  1  0
 21 17  2  0
 22 18  1  0
M  END
>  <NAME>  (339) 
TRICHOSTATIN A

>  <SYNONYMS>  (339) 
7-(4-(DIMETHYLAMINO)PHENYL)-N-HYDROXY-4,6-DIMETHYL-7-OXO-2,4-HEPTADIENAMIDE

>  <SPECTRUM TYPE>  (339) 
MS1

>  <INSTRUMENT TYPE>  (339) 
EI-B

>  <INSTRUMENT>  (339) 
HITACHI M-2500

>  <ION MODE>  (339) 
P

>  <INCHIKEY>  (339) 
RTKIYFITIVXBLE-WKWSCTOISA-N

>  <FORMULA>  (339) 
C17H22N2O3

>  <EXACT MASS>  (339) 
302.16304256399997

>  <MW>  (339) 
302

>  <ID>  (339) 
JP011663

>  <CONTRIBUTOR>  (339) 
University of Tokyo Team, {Faculty of Engineering, University of Tokyo

>  <COMMENT>  (339) 
SMILES=ONC(=O)C=CC(C)=CC(C)C(=O)c(c1)ccc(N(C)C)c1
InChI=InChI=1S/C17H22N2O3/c1-12(5-10-16(20)18-22)11-13(2)17(21)14-6-8-15(9-7-14)19(3)4/h5-11,13,22H,1-4H3,(H,18,20)/b10-5+,12-11+
computed SMILES=O=C(C1=CC=C(C=C1)N(C)C)C(C=C(C=CC(O)=NO)C)C
accession=JP011663
date=2016.01.19 (Created 2008.10.21, modified 2011.05.06)
author=YAMAMOTO M, DEP. CHEMISTRY, FAC. SCIENCE, NARA WOMEN'S UNIV.
license=CC BY-NC-SA
exact mass=302.16304
ionization energy=70 eV
ion type=[M]+*
computed spectral entropy=1.9426540895344868
computed normalized entropy=0.5962543058083192
SPLASH=splash10-0002-0930000000-7008314c3db5ba758a41
submitter=submitter = University of Tokyo Team (Faculty of Engineering, University of Tokyo)
MoNA Rating=3.75

>  <NUM PEAKS>  (339) 
26

>  <MASS SPECTRAL PEAKS>  (339) 
42 1.42
44 1.14
77 1.83
79 2.77
105 2.46
118 1.03
119 2.63
120 3.95
121 2.68
134 1.61
148 99.99
149 7.13
177 3.68
199 1.42
200 1.48
214 1.26
225 1
228 15.75
229 2.98
240 1.38
243 1.93
256 1.83
274 1.46
286 5.58
287 7.33
288 1.65

>  <PREDICTED SPECTRUM>  (339) 
15 7
27 28
28 20
29 10
30 22
33 18
34 6
38 25
39 132
40 54
41 115
42 291
43 138
44 177
45 57
46 23
50 84
51 155
52 59
53 79
54 58
55 135
56 75
57 60
58 165
59 52
60 54
61 15
62 44
63 125
64 60
65 139
66 55
67 94
68 56
69 48
70 83
71 97
72 121
73 32
74 91
75 91
76 62
77 230
78 83
79 176
80 31
81 32
82 62
83 43
84 26
85 6
86 45
87 46
88 79
89 80
90 92
91 204
92 79
93 28
98 50
100 39
101 40
102 104
103 141
104 98
105 173
106 38
107 73
108 46
109 64
114 64
115 140
116 107
117 87
118 176
119 93
120 36
126 9
127 77
128 128
129 108
130 68
131 124
132 89
133 107
134 105
135 18
141 30
142 48
143 70
144 132
145 56
146 214
147 239
148 999
149 203
154 4
156 46
157 20
158 55
159 97
160 103
161 35
162 0
163 9
169 13
170 44
171 84
172 51
175 56
176 32
184 19
185 31
198 2
201 36
202 118
211 23
212 84
214 6
215 4
226 11
228 105
229 43
242 11
269 1
284 35
285 147
302 52

$$$$

     RDKit          2D

  8  7  0  0  0  0  0  0  0  0999 V2000
   -1.2990    2.2500    0.0000 C   0  0  0  0  0  0  0  0  0  0  0  0
   -1.2990    3.7500    0.0000 C   0  0  0  0  0  0  0  0  0  0  0  0
    0.0000    1.5000    0.0000 C   0  0  0  0  0  0  0  0  0  0  0  0
   -2.5981    4.5000    0.0000 C   0  0  0  0  0  0  0  0  0  0  0  0
    0.0000    0.0000    0.0000 O   0  0  0  0  0  0  0  0  0  0  0  0
    1.2990    2.2500    0.0000 O   0  0  0  0  0  0  0  0  0  0  0  0
   -3.8971    3.7500    0.0000 O   0  0  0  0  0  0  0  0  0  0  0  0
   -2.5981    6.0000    0.0000 O   0  0  0  0  0  0  0  0  0  0  0  0
  2  1  1  0
  3  1  1  0
  4  2  1  0
  5  3  2  0
  6  3  1  0
  7  4  2  0
  8  4  1  0
M  END
>  <NAME>  (340) 
SUCCINIC ACID

>  <SYNONYMS>  (340) 


>  <SPECTRUM TYPE>  (340) 
MS1

>  <INSTRUMENT TYPE>  (340) 
EI-B

>  <INSTRUMENT>  (340) 
HITACHI M-2500

>  <ION MODE>  (340) 
P

>  <INCHIKEY>  (340) 
KDYFGRWQOYBRFD-UHFFFAOYSA-N

>  <FORMULA>  (340) 
C4H6O4

>  <EXACT MASS>  (340) 
118.026608672

>  <MW>  (340) 
118

>  <ID>  (340) 
JP011660

>  <CONTRIBUTOR>  (340) 
University of Tokyo Team, {Faculty of Engineering, University of Tokyo

>  <COMMENT>  (340) 
SMILES=OC(=O)CCC(O)=O
cas=110-15-6
InChI=InChI=1S/C4H6O4/c5-3(6)1-2-4(7)8/h1-2H2,(H,5,6)(H,7,8)
computed SMILES=O=C(O)CCC(=O)O
accession=JP011660
date=2016.01.19 (Created 2008.10.21, modified 2011.05.06)
author=YAMAMOTO M, DEP. CHEMISTRY, FAC. SCIENCE, NARA WOMEN'S UNIV.
license=CC BY-NC-SA
exact mass=118.02661
ionization energy=70 eV
ion type=[M]+*
computed spectral entropy=2.750312323543606
computed normalized entropy=0.7865884100619791
SPLASH=splash10-0kos-9100000000-f1df0903a24c305e68ec
submitter=submitter = University of Tokyo Team (Faculty of Engineering, University of Tokyo)
MoNA Rating=3.75

>  <NUM PEAKS>  (340) 
33

>  <MASS SPECTRAL PEAKS>  (340) 
14 2.53
15 2.22
18 3.27
19 1.9
25 2.1
26 16.06
27 54.84
28 57.49
29 33.95
30 9.05
31 5.43
41 1.36
42 9.24
43 7.53
44 3.75
45 80.83
46 8.7
47 3.32
53 4.03
54 1.45
55 99.99
56 25.63
57 2.52
63 1.01
71 1.53
72 18.03
73 66.22
74 89.89
75 3.28
100 61.47
101 46.91
102 2.24
119 1.77

>  <PREDICTED SPECTRUM>  (340) 
14 26
16 4
17 6
18 34
19 17
25 67
26 184
27 435
28 312
29 333
31 120
35 35
36 47
37 54
38 90
39 82
40 134
41 219
42 398
43 523
44 359
45 999
46 330
47 277
48 47
50 97
51 94
52 28
53 211
54 300
55 978
56 657
57 303
58 185
59 112
60 505
61 86
63 32
65 42
66 29
70 16
71 121
72 629
73 871
74 454
75 25
83 10
91 186
100 478
101 788
102 162
118 54

$$$$

     RDKit          2D

 11 11  0  0  0  0  0  0  0  0999 V2000
   -1.3000   -0.7500    0.0000 C   0  0  0  0  0  0  0  0  0  0  0  0
    0.0000    1.5000    0.0000 C   0  0  0  0  0  0  0  0  0  0  0  0
    0.0000   -1.5000    0.0000 C   0  0  0  0  0  0  0  0  0  0  0  0
    1.3000    0.7500    0.0000 C   0  0  0  0  0  0  0  0  0  0  0  0
   -2.5989    1.5002    0.0000 C   0  0  0  0  0  0  0  0  0  0  0  0
   -1.3000    0.7500    0.0000 C   0  0  0  0  0  0  0  0  0  0  0  0
    1.3000   -0.7500    0.0000 C   0  0  0  0  0  0  0  0  0  0  0  0
   -3.8981    0.7504    0.0000 Br  0  0  0  0  0  0  0  0  0  0  0  0
    2.5989   -1.5002    0.0000 N   0  0  0  0  0  0  0  0  0  0  0  0
    3.8981   -0.7504    0.0000 O   0  0  0  0  0  0  0  0  0  0  0  0
    2.5987   -3.0002    0.0000 O   0  0  0  0  0  0  0  0  0  0  0  0
  3  1  2  0
  4  2  1  0
  6  1  1  0
  6  2  2  0
  6  5  1  0
  7  3  1  0
  7  4  2  0
  8  5  1  0
  9  7  1  0
 10  9  1  0
 11  9  2  0
M  CHG  2   9   1  10  -1
M  END
>  <NAME>  (341) 
4-NITROBENZYL BROMIDE

>  <SYNONYMS>  (341) 
ALPHA-BROMO-4-NITROTOLUENE

>  <SPECTRUM TYPE>  (341) 
MS1

>  <INSTRUMENT TYPE>  (341) 
EI-B

>  <INSTRUMENT>  (341) 
HITACHI M-2500

>  <ION MODE>  (341) 
P

>  <INCHIKEY>  (341) 
VOLRSQPSJGXRNJ-UHFFFAOYSA-N

>  <FORMULA>  (341) 
C7H6BrNO2

>  <EXACT MASS>  (341) 
214.958190532

>  <MW>  (341) 
215

>  <ID>  (341) 
JP011659

>  <CONTRIBUTOR>  (341) 
University of Tokyo Team, {Faculty of Engineering, University of Tokyo

>  <COMMENT>  (341) 
SMILES=[O-1][N+1](=O)c(c1)ccc(c1)CBr
cas=100-11-8
InChI=InChI=1S/C7H6BrNO2/c8-5-6-1-3-7(4-2-6)9(10)11/h1-4H,5H2
computed SMILES=O=N(=O)C1=CC=C(C=C1)CBr
accession=JP011659
date=2016.01.19 (Created 2008.10.21, modified 2011.05.06)
author=YAMAMOTO M, DEP. CHEMISTRY, FAC. SCIENCE, NARA WOMEN'S UNIV.
license=CC BY-NC-SA
exact mass=214.95819
ionization energy=70 eV
ion type=[M]+*
computed spectral entropy=2.458340550887738
computed normalized entropy=0.7377520027300127
SPLASH=splash10-000i-9710000000-25a76843974a1f2654a2
submitter=submitter = University of Tokyo Team (Faculty of Engineering, University of Tokyo)
MoNA Rating=3.75

>  <NUM PEAKS>  (341) 
28

>  <MASS SPECTRAL PEAKS>  (341) 
30 16.64
38 2.26
39 5.66
40 1.08
50 3.68
51 5.16
52 1.94
61 1.42
62 4.71
63 12.82
64 4.98
77 1.82
78 29.92
79 1.84
86 1.18
87 1.06
89 22.73
90 25.52
91 1.88
106 15.85
107 1.23
120 1.51
136 99.99
137 8.22
169 1.14
215 8.03
216 1.02
217 7.81

>  <PREDICTED SPECTRUM>  (341) 
14 4
25 4
26 101
27 18
28 0
30 465
36 12
37 157
38 267
39 352
40 82
45 94
46 173
49 122
50 450
51 536
52 244
53 94
61 218
62 423
63 706
64 289
65 215
66 73
67 32
74 220
75 185
76 210
77 541
78 664
79 367
80 181
81 90
82 126
85 20
86 187
87 100
89 999
90 821
91 382
92 110
93 17
94 68
95 49
96 63
104 72
106 494
107 90
108 123
117 20
118 132
119 127
120 89
121 381
122 88
129 17
134 16
136 875
137 705
152 35
170 45
215 161
216 15
217 192

$$$$

     RDKit          2D

  8  8  0  0  0  0  0  0  0  0999 V2000
    0.0005   -1.5008    0.0000 C   0  0  0  0  0  0  0  0  0  0  0  0
    1.2995   -0.7508    0.0000 C   0  0  0  0  0  0  0  0  0  0  0  0
   -1.2995    0.7508    0.0000 C   0  0  0  0  0  0  0  0  0  0  0  0
   -0.0005    1.5008    0.0000 C   0  0  0  0  0  0  0  0  0  0  0  0
   -1.2990   -0.7500    0.0000 N   0  0  0  0  0  0  0  0  0  0  0  0
    1.2990    0.7500    0.0000 N   0  0  0  0  0  0  0  0  0  0  0  0
   -2.5981   -1.5000    0.0000 O   0  0  0  0  0  0  0  0  0  0  0  0
    2.5981    1.5000    0.0000 O   0  0  0  0  0  0  0  0  0  0  0  0
  2  1  2  0
  4  3  1  0
  5  1  1  0
  5  3  2  0
  6  2  1  0
  6  4  2  0
  7  5  1  0
  8  6  1  0
M  CHG  4   5   1   6   1   7  -1   8  -1
M  END
>  <NAME>  (342) 
PYRAZINE-N,N'-DIOXIDE

>  <SYNONYMS>  (342) 


>  <SPECTRUM TYPE>  (342) 
MS1

>  <INSTRUMENT TYPE>  (342) 
EI-B

>  <INSTRUMENT>  (342) 
HITACHI M-2500

>  <ION MODE>  (342) 
P

>  <INCHIKEY>  (342) 
SXTKIFFXFIDYJF-UHFFFAOYSA-N

>  <FORMULA>  (342) 
C4H4N2O2

>  <EXACT MASS>  (342) 
112.027277368

>  <MW>  (342) 
112

>  <ID>  (342) 
JP011658

>  <CONTRIBUTOR>  (342) 
University of Tokyo Team, {Faculty of Engineering, University of Tokyo

>  <COMMENT>  (342) 
SMILES=[O-1][n+1](c1)cc[n+1]([O-1])c1
InChI=InChI=1S/C4H4N2O2/c7-5-1-2-6(8)4-3-5/h1-4H
computed SMILES=O=N1=CC=N(=O)C=C1
accession=JP011658
date=2016.01.19 (Created 2008.10.21, modified 2011.05.06)
author=YAMAMOTO M, DEP. CHEMISTRY, FAC. SCIENCE, NARA WOMEN'S UNIV.
license=CC BY-NC-SA
exact mass=112.02728
ionization energy=70 eV
ion type=[M]+*
computed spectral entropy=2.3572084754018383
computed normalized entropy=0.7152078732159985
SPLASH=splash10-03di-9700000000-d19bf49cbec3c7c1b51a
submitter=submitter = University of Tokyo Team (Faculty of Engineering, University of Tokyo)
MoNA Rating=3.75

>  <NUM PEAKS>  (342) 
27

>  <MASS SPECTRAL PEAKS>  (342) 
16 2.17
17 2.87
25 1.15
26 9.69
27 3
28 11.58
29 8.93
30 28.28
37 1.19
39 3.99
40 9.29
41 9.37
42 1.23
46 6.13
51 2.57
52 10.92
53 3.48
55 1.85
56 2.54
67 1.1
68 1.09
80 1.44
85 1.45
95 1.39
96 6.96
112 99.99
113 12.41

>  <PREDICTED SPECTRUM>  (342) 
28 71
30 107
32 12
33 9
34 15
36 32
37 66
38 178
39 384
40 189
41 411
42 17
43 301
48 5
50 168
51 110
52 192
53 146
54 165
55 299
56 19
57 76
66 20
67 308
68 108
69 110
80 44
81 0
82 94
83 19
96 805
97 125
98 72
112 999
113 186
114 56

$$$$

     RDKit          2D

 12 13  0  0  0  0  0  0  0  0999 V2000
   -2.6000   -0.7500    0.0000 C   0  0  0  0  0  0  0  0  0  0  0  0
   -2.6000    0.7500    0.0000 C   0  0  0  0  0  0  0  0  0  0  0  0
   -1.3000   -1.5000    0.0000 C   0  0  0  0  0  0  0  0  0  0  0  0
   -1.3000    1.5000    0.0000 C   0  0  0  0  0  0  0  0  0  0  0  0
    1.3000   -1.5000    0.0000 C   0  0  0  0  0  0  0  0  0  0  0  0
    2.6000    0.7500    0.0000 C   0  0  0  0  0  0  0  0  0  0  0  0
    0.0000   -0.7500    0.0000 C   0  0  0  0  0  0  0  0  0  0  0  0
    2.6000   -0.7500    0.0000 C   0  0  0  0  0  0  0  0  0  0  0  0
    0.0000    0.7500    0.0000 C   0  0  0  0  0  0  0  0  0  0  0  0
    1.3000    1.5000    0.0000 C   0  0  0  0  0  0  0  0  0  0  0  0
    3.8989   -1.5002    0.0000 O   0  0  0  0  0  0  0  0  0  0  0  0
    1.3000    3.0000    0.0000 O   0  0  0  0  0  0  0  0  0  0  0  0
  2  1  2  0
  3  1  1  0
  4  2  1  0
  7  3  2  0
  7  5  1  0
  8  5  2  0
  8  6  1  0
  9  4  2  0
  9  7  1  0
 10  6  2  0
 10  9  1  0
 11  8  1  0
 12 10  1  0
M  END
>  <NAME>  (343) 
1,3-DIHYDROXYNAPHTHALENE

>  <SYNONYMS>  (343) 
NAPHTHORESORCINOL

>  <SPECTRUM TYPE>  (343) 
MS1

>  <INSTRUMENT TYPE>  (343) 
EI-B

>  <INSTRUMENT>  (343) 
HITACHI M-2500

>  <ION MODE>  (343) 
P

>  <INCHIKEY>  (343) 
XOOMNEFVDUTJPP-UHFFFAOYSA-N

>  <FORMULA>  (343) 
C10H8O2

>  <EXACT MASS>  (343) 
160.052429496

>  <MW>  (343) 
160

>  <ID>  (343) 
JP011657

>  <CONTRIBUTOR>  (343) 
University of Tokyo Team, {Faculty of Engineering, University of Tokyo

>  <COMMENT>  (343) 
SMILES=Oc(c1)cc(c2)c(ccc2)c(O)1
cas=132-86-5
InChI=InChI=1S/C10H8O2/c11-8-5-7-3-1-2-4-9(7)10(12)6-8/h1-6,11-12H
computed SMILES=OC=1C=C(O)C=2C=CC=CC2C1
accession=JP011657
date=2016.01.19 (Created 2008.10.21, modified 2011.05.06)
author=YAMAMOTO M, DEP. CHEMISTRY, FAC. SCIENCE, NARA WOMEN'S UNIV.
license=CC BY-NC-SA
exact mass=160.05243
ionization energy=70 eV
ion type=[M]+*
computed spectral entropy=2.5110467822840237
computed normalized entropy=0.7120788599904563
SPLASH=splash10-03di-3900000000-6dcf0f604c39c6722882
submitter=submitter = University of Tokyo Team (Faculty of Engineering, University of Tokyo)
MoNA Rating=3.75

>  <NUM PEAKS>  (343) 
34

>  <MASS SPECTRAL PEAKS>  (343) 
17 2.59
18 11.75
28 3.44
39 1.51
50 1.64
51 4.12
62 1.64
63 3
65 1.11
66 1.27
69 1.96
74 1.35
75 1.4
76 1.74
77 8.23
78 1.95
80 5.17
89 2.63
90 5.92
91 3.89
102 3.31
103 8.09
104 3.14
105 1.17
114 2.06
115 3.23
118 7.54
119 1.54
131 28.12
132 8.63
138 1.53
159 2.07
160 99.99
161 10.75

>  <PREDICTED SPECTRUM>  (343) 
17 14
18 8
26 35
27 91
28 62
29 92
37 26
38 51
39 167
40 49
41 92
42 37
44 55
49 55
50 216
51 272
52 150
53 132
54 56
55 118
57 42
58 64
61 57
62 148
63 228
64 110
65 146
66 97
67 72
68 26
69 48
73 27
74 169
75 212
76 228
77 264
78 136
79 94
80 29
81 42
82 25
83 41
84 33
85 79
86 137
87 108
88 84
89 106
90 96
91 170
92 66
93 18
94 10
97 41
98 14
99 30
101 69
102 206
103 324
104 233
105 190
106 51
113 97
114 135
115 134
117 6
118 113
119 99
120 76
129 22
130 57
131 405
132 355
133 164
134 55
144 16
145 38
158 86
159 221
160 999
161 335
162 100
163 10

$$$$

     RDKit          2D

  7  6  0  0  0  0  0  0  0  0999 V2000
    1.6238    3.1875    0.0000 C   0  0  0  0  0  0  0  0  0  0  0  0
    0.3248    3.9375    0.0000 C   0  0  0  0  0  0  0  0  0  0  0  0
   -0.9743    3.1875    0.0000 C   0  0  0  0  0  0  0  0  0  0  0  0
   -2.2733    3.9375    0.0000 C   0  0  0  0  0  0  0  0  0  0  0  0
   -3.5724    3.1875    0.0000 B   0  0  0  0  0  0  0  0  0  0  0  0
   -4.8714    3.9375    0.0000 O   0  0  0  0  0  0  0  0  0  0  0  0
   -3.5724    1.6875    0.0000 O   0  0  0  0  0  0  0  0  0  0  0  0
  2  1  1  0
  3  2  1  0
  4  3  1  0
  5  4  1  0
  6  5  1  0
  7  5  1  0
M  END
>  <NAME>  (344) 
1-BUTANEBORONIC ACID

>  <SYNONYMS>  (344) 
BUTYLBORONIC ACID

>  <SPECTRUM TYPE>  (344) 
MS1

>  <INSTRUMENT TYPE>  (344) 
EI-B

>  <INSTRUMENT>  (344) 
HITACHI M-2500

>  <ION MODE>  (344) 
P

>  <INCHIKEY>  (344) 
QPKFVRWIISEVCW-UHFFFAOYSA-N

>  <FORMULA>  (344) 
C4H11BO2

>  <EXACT MASS>  (344) 
102.085209992

>  <MW>  (344) 
102

>  <ID>  (344) 
JP011656

>  <CONTRIBUTOR>  (344) 
University of Tokyo Team, {Faculty of Engineering, University of Tokyo

>  <COMMENT>  (344) 
SMILES=CCCC[B](O)O
cas=4426-47-5
InChI=InChI=1S/C4H11BO2/c1-2-3-4-5(6)7/h6-7H,2-4H2,1H3
computed SMILES=OB(O)CCCC
accession=JP011656
ionization energy=70 eV
date=2016.01.19 (Created 2008.10.21, modified 2011.05.06)
author=YAMAMOTO M, DEP. CHEMISTRY, FAC. SCIENCE, NARA WOMEN'S UNIV.
license=CC BY-NC-SA
exact mass=102.08521
ion type=[M]+*
computed spectral entropy=2.426845705762527
computed normalized entropy=0.7283003484185686
SPLASH=splash10-006t-9000000000-f4ffdf1c6be77b4d613a
submitter=submitter = University of Tokyo Team (Faculty of Engineering, University of Tokyo)
MoNA Rating=3.75

>  <NUM PEAKS>  (344) 
28

>  <MASS SPECTRAL PEAKS>  (344) 
26 1.02
27 6.44
28 4.21
29 5.82
39 4.61
41 10.73
42 5.12
43 12.24
44 25.57
45 99.99
53 1
54 1.3
55 5.6
56 45.25
57 6.26
59 2.04
60 8.17
61 1.43
72 20.11
73 73.33
74 3.15
84 2.88
85 4.32
86 1.04
87 3.31
101 1.59
102 4.76
103 1.36

>  <PREDICTED SPECTRUM>  (344) 
14 78
15 84
16 12
17 16
18 58
19 84
26 59
27 307
28 201
29 394
31 246
32 39
38 36
39 319
40 259
41 975
42 704
43 999
44 143
45 842
53 246
54 189
55 438
56 301
57 524
58 365
59 183
69 166
71 166
72 272
73 65
83 181
84 342
85 18
100 10
101 203
102 363

$$$$

     RDKit          2D

 40 39  0  0  0  0  0  0  0  0999 V2000
    1.2600    1.9157    0.0000 C   0  0  0  0  0  0  0  0  0  0  0  0
    8.7300    1.0323    0.0000 C   0  0  0  0  0  0  0  0  0  0  0  0
    3.7500   -2.3971    0.0000 C   0  0  0  0  0  0  0  0  0  0  0  0
    2.2500    3.6304    0.0000 C   0  0  0  0  0  0  0  0  0  0  0  0
    6.7500    1.0323    0.0000 C   0  0  0  0  0  0  0  0  0  0  0  0
    4.7400   -0.6824    0.0000 C   0  0  0  0  0  0  0  0  0  0  0  0
   -0.2400    1.9157    0.0000 C   0  0  0  0  0  0  0  0  0  0  0  0
    9.4800   -0.2667    0.0000 C   0  0  0  0  0  0  0  0  0  0  0  0
    4.5000   -3.6962    0.0000 C   0  0  0  0  0  0  0  0  0  0  0  0
    3.7500    3.6304    0.0000 C   0  0  0  0  0  0  0  0  0  0  0  0
    6.0000    2.3314    0.0000 C   0  0  0  0  0  0  0  0  0  0  0  0
    3.7500    1.0323    0.0000 C   0  0  0  0  0  0  0  0  0  0  0  0
    0.9995    0.4385    0.0000 F   0  0  0  0  0  0  0  0  0  0  0  0
    2.4091    0.9515    0.0000 F   0  0  0  0  0  0  0  0  0  0  0  0
    8.4695    2.5096    0.0000 F   0  0  0  0  0  0  0  0  0  0  0  0
   10.1395    1.5454    0.0000 F   0  0  0  0  0  0  0  0  0  0  0  0
    2.6009   -3.3613    0.0000 F   0  0  0  0  0  0  0  0  0  0  0  0
    2.6009   -1.4329    0.0000 F   0  0  0  0  0  0  0  0  0  0  0  0
    2.5105    5.1076    0.0000 F   0  0  0  0  0  0  0  0  0  0  0  0
    0.8405    4.1435    0.0000 F   0  0  0  0  0  0  0  0  0  0  0  0
    7.0105   -0.4449    0.0000 F   0  0  0  0  0  0  0  0  0  0  0  0
    5.2500    1.0323    0.0000 F   0  0  0  0  0  0  0  0  0  0  0  0
    5.8891    0.2818    0.0000 F   0  0  0  0  0  0  0  0  0  0  0  0
    5.8891   -1.6466    0.0000 F   0  0  0  0  0  0  0  0  0  0  0  0
   -0.2400    0.4157    0.0000 F   0  0  0  0  0  0  0  0  0  0  0  0
   -0.2400    3.4157    0.0000 F   0  0  0  0  0  0  0  0  0  0  0  0
   -1.7400    1.9157    0.0000 F   0  0  0  0  0  0  0  0  0  0  0  0
   10.7790    0.4833    0.0000 F   0  0  0  0  0  0  0  0  0  0  0  0
   10.2300   -1.5657    0.0000 F   0  0  0  0  0  0  0  0  0  0  0  0
    8.1810   -1.0167    0.0000 F   0  0  0  0  0  0  0  0  0  0  0  0
    5.7990   -2.9462    0.0000 F   0  0  0  0  0  0  0  0  0  0  0  0
    5.2500   -4.9952    0.0000 F   0  0  0  0  0  0  0  0  0  0  0  0
    3.2010   -4.4462    0.0000 F   0  0  0  0  0  0  0  0  0  0  0  0
    3.4895    5.1076    0.0000 F   0  0  0  0  0  0  0  0  0  0  0  0
    5.1595    4.1435    0.0000 F   0  0  0  0  0  0  0  0  0  0  0  0
    6.2605    3.8086    0.0000 F   0  0  0  0  0  0  0  0  0  0  0  0
    7.4095    2.8444    0.0000 F   0  0  0  0  0  0  0  0  0  0  0  0
    2.6009    0.0682    0.0000 F   0  0  0  0  0  0  0  0  0  0  0  0
    2.6009    1.9965    0.0000 F   0  0  0  0  0  0  0  0  0  0  0  0
    4.5000    2.3314    0.0000 N   0  0  0  0  0  0  0  0  0  0  0  0
  4  1  1  0
  5  2  1  0
  6  3  1  0
  7  1  1  0
  8  2  1  0
  9  3  1  0
 10  4  1  0
 11  5  1  0
 12  6  1  0
 13  1  1  0
 14  1  1  0
 15  2  1  0
 16  2  1  0
 17  3  1  0
 18  3  1  0
 19  4  1  0
 20  4  1  0
 21  5  1  0
 22  5  1  0
 23  6  1  0
 24  6  1  0
 25  7  1  0
 26  7  1  0
 27  7  1  0
 28  8  1  0
 29  8  1  0
 30  8  1  0
 31  9  1  0
 32  9  1  0
 33  9  1  0
 34 10  1  0
 35 10  1  0
 36 11  1  0
 37 11  1  0
 38 12  1  0
 39 12  1  0
 40 10  1  0
 40 11  1  0
 40 12  1  0
M  END
>  <NAME>  (345) 
PERFLUOROTRIBUTYLAMINE

>  <SYNONYMS>  (345) 
HEPTACOSAFLUOROTRIBUTYLAMINE

>  <SPECTRUM TYPE>  (345) 
MS1

>  <INSTRUMENT TYPE>  (345) 
EI-B

>  <INSTRUMENT>  (345) 
HITACHI M-2500

>  <ION MODE>  (345) 
P

>  <INCHIKEY>  (345) 
RVZRBWKZFJCCIB-UHFFFAOYSA-N

>  <FORMULA>  (345) 
C12F27N

>  <EXACT MASS>  (345) 
670.95996094

>  <MW>  (345) 
671

>  <ID>  (345) 
JP011655

>  <CONTRIBUTOR>  (345) 
University of Tokyo Team, {Faculty of Engineering, University of Tokyo

>  <COMMENT>  (345) 
SMILES=FC(F)(F)C(F)(F)C(F)(F)C(F)(F)N(C(F)(F)C(F)(F)C(F)(F)C(F)(F)F)C(F)(F)C(F)(F)C(F)(F)C(F)(F)F
cas=311-89-7
InChI=InChI=1S/C12F27N/c13-1(14,7(25,26)27)4(19,20)10(34,35)40(11(36,37)5(21,22)2(15,16)8(28,29)30)12(38,39)6(23,24)3(17,18)9(31,32)33
computed SMILES=FC(F)(F)C(F)(F)C(F)(F)C(F)(F)N(C(F)(F)C(F)(F)C(F)(F)C(F)(F)F)C(F)(F)C(F)(F)C(F)(F)C(F)(F)F
accession=JP011655
date=2016.01.19 (Created 2008.10.21, modified 2011.05.06)
author=YAMAMOTO M, DEP. CHEMISTRY, FAC. SCIENCE, NARA WOMEN'S UNIV.
license=CC BY-NC-SA
exact mass=670.95996
ionization energy=70 eV
ion type=[M]+*
computed spectral entropy=2.3674814745441943
computed normalized entropy=0.6894264112143504
SPLASH=splash10-014i-5490110000-9a01b29094d0274f88df
submitter=submitter = University of Tokyo Team (Faculty of Engineering, University of Tokyo)
MoNA Rating=3.75

>  <NUM PEAKS>  (345) 
31

>  <MASS SPECTRAL PEAKS>  (345) 
51 1.24
69 77.06
100 10.29
113 2.25
114 3.61
119 8.47
131 40.53
132 1.32
150 2.76
164 1.1
169 2.99
181 2.08
201 2.39
214 1.35
219 99.99
220 4.45
228 1.04
246 2.23
264 23.73
265 1.28
376 1.12
396 2.5
414 11.61
415 1.03
448 2.36
464 3.91
466 3.52
484 3.95
502 23.54
503 2.44
614 2.5

>  <PREDICTED SPECTRUM>  (345) 
31 171
32 7
41 7
50 115
51 15
57 20
63 1
64 57
65 56
69 999
70 82
91 4
93 23
95 53
100 241
101 2
106 13
110 33
114 311
115 5
116 1
119 448
120 150
126 45
131 595
133 39
136 36
137 32
138 48
145 103
146 7
150 129
164 235
169 269
176 56
181 178
212 24
214 129
215 47
219 540
220 37
226 43
231 15
252 12
264 153
276 37
281 0
326 100
333 62
369 43
414 177
422 11
438 6
464 28
483 5
502 653
505 48
514 30
526 40
552 31
564 247
672 6

$$$$

     RDKit          2D

 33 36  0  0  1  0  0  0  0  0999 V2000
    9.5655    7.2342    0.0000 C   0  0  0  0  0  0  0  0  0  0  0  0
   10.0746    4.6865    0.0000 C   0  0  0  0  0  0  0  0  0  0  0  0
    8.1228    2.9718    0.0000 C   0  0  0  0  0  0  0  0  0  0  0  0
    3.2009    4.6377    0.0000 C   0  0  0  0  0  0  0  0  0  0  0  0
   -8.0957   -2.8471    0.0000 C   0  0  0  0  0  0  0  0  0  0  0  0
   -1.6125    0.9400    0.0000 C   0  0  0  0  0  0  0  0  0  0  0  0
    2.4507    3.1203    0.0000 C   0  0  0  0  0  0  0  0  0  0  0  0
    8.0946    6.9403    0.0000 C   0  0  0  0  0  0  0  0  0  0  0  0
    5.6618    3.8047    0.0000 C   0  0  0  0  0  0  0  0  0  0  0  0
    6.1427    5.2256    0.0000 C   0  0  0  0  0  0  0  0  0  0  0  0
   -0.3200   -2.8400    0.0000 C   0  0  0  0  0  0  0  0  0  0  0  0
    1.0100   -2.0900    0.0000 C   0  0  0  0  0  0  0  0  0  0  0  0
    4.5500    0.8800    0.0000 C   0  0  0  0  0  0  0  0  0  0  0  0
    3.7100   -0.3100    0.0000 C   0  0  0  0  0  0  0  0  0  0  0  0
   -4.2000   -0.5600    0.0000 C   0  0  0  0  0  0  0  0  0  0  0  0
   -0.3200    1.6300    0.0000 C   0  0  0  0  0  0  0  0  0  0  0  0
   -2.8900    0.1600    0.0000 C   0  0  0  0  0  0  0  0  0  0  0  0
    1.0100    2.3900    0.0000 C   0  0  0  0  0  0  0  0  0  0  0  0
   -2.8900   -2.8400    0.0000 C   0  0  0  0  0  0  0  0  0  0  0  0
    8.6037    4.3926    0.0000 C   0  0  0  0  0  0  0  0  0  0  0  0
    4.1909    3.5108    0.0000 C   0  0  0  0  0  0  0  0  0  0  0  0
   -6.7981   -2.0947    0.0000 C   0  0  0  0  0  0  0  0  0  0  0  0
    7.6137    5.5195    0.0000 C   0  0  0  0  0  0  0  0  0  0  0  0
   -1.6200   -2.0900    0.0000 C   0  0  0  0  0  0  0  0  0  0  0  0
   -4.2000   -2.0900    0.0000 C   0  0  0  0  0  0  0  0  0  0  0  0
    1.0100   -0.5600    0.0000 C   0  0  0  0  0  0  0  0  0  0  0  0
    3.7100    2.0900    0.0000 C   0  0  0  0  0  0  0  0  0  0  0  0
    2.2800    0.1600    0.0000 C   0  0  0  0  0  0  0  0  0  0  0  0
   -0.3200    0.1600    0.0000 C   0  0  0  0  0  0  0  0  0  0  0  0
   -1.6200   -0.5600    0.0000 C   0  0  0  0  0  0  0  0  0  0  0  0
    2.2800    1.6300    0.0000 C   0  0  0  0  0  0  0  0  0  0  0  0
   -6.8008   -0.5947    0.0000 O   0  0  0  0  0  0  0  0  0  0  0  0
   -5.4977   -2.8424    0.0000 O   0  0  0  0  0  0  0  0  0  0  0  0
  8  1  1  0
  9 10  2  0
 12 11  1  0
 14 13  1  0
 17 15  1  0
 18 16  1  0
 20  2  1  0
 20  3  1  0
 21  4  1  6
 21  9  1  0
 22  5  1  0
 23  8  1  1
 23 10  1  0
 23 20  1  0
 24 11  2  0
 24 19  1  0
 25 15  1  0
 25 19  1  0
 26 12  1  6
 27 13  1  1
 27 21  1  0
 28 14  1  1
 28 26  1  0
 29 16  1  1
 29 26  1  0
 30  6  1  1
 30 17  1  0
 30 24  1  0
 30 29  1  0
 31  7  1  1
 31 18  1  0
 31 27  1  0
 31 28  1  0
 32 22  2  0
 33 22  1  0
 25 33  1  1
M  END
>  <NAME>  (346) 
STIGMASTEROL ACETATE

>  <SYNONYMS>  (346) 


>  <SPECTRUM TYPE>  (346) 
MS1

>  <INSTRUMENT TYPE>  (346) 
EI-B

>  <INSTRUMENT>  (346) 
HITACHI M-2500

>  <ION MODE>  (346) 
P

>  <INCHIKEY>  (346) 
IZEUIYYDWBKERE-ZRODXFKISA-N

>  <FORMULA>  (346) 
C31H50O2

>  <EXACT MASS>  (346) 
454.38108084

>  <MW>  (346) 
454

>  <ID>  (346) 
JP011654

>  <CONTRIBUTOR>  (346) 
University of Tokyo Team, {Faculty of Engineering, University of Tokyo

>  <COMMENT>  (346) 
SMILES=C(C31[H])CC(C4(C(C=CC([H])(C(C)C)CC)([H])C)[H])(C(CC4)(C1([H])CC=C(C3(C)2)CC([H])(CC2)OC(C)=O)[H])C
InChI=InChI=1S/C31H50O2/c1-8-23(20(2)3)10-9-21(4)27-13-14-28-26-12-11-24-19-25(33-22(5)32)15-17-30(24,6)29(26)16-18-31(27,28)7/h9-11,20-21,23,25-29H,8,12-19H2,1-7H3/b10-9+/t21-,23-,25+,26+,27-,28+,29+,30+,31-/m1/s1
computed SMILES=O=C(OC1CC2=CCC3C(CCC4(C)C(CCC34)C(C=CC(CC)C(C)C)C)C2(C)CC1)C
accession=JP011654
date=2016.01.19 (Created 2008.10.21, modified 2011.05.06)
author=YAMAMOTO M, DEP. CHEMISTRY, FAC. SCIENCE, NARA WOMEN'S UNIV.
license=CC BY-NC-SA
exact mass=454.38108
ionization energy=70 eV
ion type=[M]+*
computed spectral entropy=3.530362578090252
computed normalized entropy=0.8033686256982996
SPLASH=splash10-0006-4539000000-122d14c7e2f191729d0c
submitter=submitter = University of Tokyo Team (Faculty of Engineering, University of Tokyo)
MoNA Rating=3.75

>  <NUM PEAKS>  (346) 
81

>  <MASS SPECTRAL PEAKS>  (346) 
18 1.05
41 2.82
43 3.71
55 9.36
57 1.86
67 3.85
69 6.65
71 1.28
77 1.06
79 3.23
81 11.66
82 1.04
83 9.47
91 3.83
93 4.84
94 1
95 4.65
97 4.75
105 4.87
106 1.08
107 4.84
108 1.1
109 3.43
117 1.77
119 3.47
120 2.17
121 3.19
123 2.08
129 1.02
131 2.94
133 6.49
134 1.17
135 2.96
137 1.25
139 1.78
143 2.68
144 1.03
145 7.34
146 4.55
147 5.54
148 1.06
149 1.75
157 3.22
158 2.39
159 5.56
160 1.64
161 3.58
171 1.06
173 2.1
175 1.66
185 1.17
187 1.17
189 1.54
199 1.85
201 1.21
211 1.64
213 4.24
214 1.22
227 1.07
228 4.69
229 1.44
253 5.05
254 3.62
255 21.79
256 4.58
257 1
267 1.39
281 1.99
282 4.34
283 2.79
286 1
296 1.25
351 8.36
352 3.11
379 3.82
380 1.67
382 3.43
394 99.99
395 35.97
396 7.33
397 1.12

>  <PREDICTED SPECTRUM>  (346) 
29 17
40 35
41 461
42 84
43 999
44 150
45 78
49 1
51 26
53 266
54 116
55 906
56 260
57 546
58 111
59 28
60 100
61 3
65 107
66 38
67 534
68 217
69 733
70 289
71 390
72 9
73 25
77 280
78 83
79 480
80 167
81 745
82 293
83 741
84 184
85 197
86 74
91 457
92 189
93 464
94 260
95 593
96 273
97 503
98 109
99 112
103 19
104 38
105 523
106 248
107 596
108 213
109 495
110 255
111 403
112 84
113 112
115 76
117 313
118 156
119 391
120 299
121 469
122 231
123 359
124 124
125 132
126 69
127 151
128 81
129 170
130 92
131 371
132 214
133 578
134 270
135 481
136 143
137 219
138 106
139 290
140 71
141 173
142 119
143 315
144 209
145 603
146 373
147 589
148 247
149 365
150 117
151 188
152 92
153 60
154 22
155 112
156 94
157 304
158 365
159 435
160 343
161 406
162 190
163 310
164 57
165 67
166 64
167 39
168 31
169 141
170 3
171 210
172 165
173 199
174 162
175 292
176 165
177 94
178 44
179 64
181 56
183 77
184 129
185 240
186 130
187 259
188 6
189 215
190 63
191 60
192 63
193 9
195 20
197 68
198 40
199 280
200 91
201 158
203 114
211 147
212 80
213 312
214 137
215 95
217 46
225 161
226 33
227 168
228 196
229 211
230 58
231 50
232 8
233 19
239 109
240 100
241 168
242 38
243 51
247 24
253 428
254 310
255 630
256 277
257 70
258 4
259 69
267 65
268 46
269 12
270 55
271 86
272 94
273 276
274 183
281 112
282 364
283 124
285 17
286 77
288 140
289 46
297 12
298 0
300 110
309 43
310 51
312 7
313 202
314 98
315 185
316 29
338 38
339 11
341 41
342 146
343 86
351 182
352 132
354 7
364 6
365 46
366 20
379 318
380 114
381 19
382 121
383 49
394 821
395 410
396 274
410 1
411 104
412 106
454 225
455 131
456 27

$$$$

     RDKit          2D

 24 27  0  0  1  0  0  0  0  0999 V2000
    6.0781    1.9994    0.0000 C   0  0  0  0  0  0  0  0  0  0  0  0
   -1.8400    0.7800    0.0000 C   0  0  0  0  0  0  0  0  0  0  0  0
    2.2172    3.0217    0.0000 C   0  0  0  0  0  0  0  0  0  0  0  0
   -0.5400   -2.9700    0.0000 C   0  0  0  0  0  0  0  0  0  0  0  0
    0.7600   -2.2200    0.0000 C   0  0  0  0  0  0  0  0  0  0  0  0
   -4.4400   -0.7200    0.0000 C   0  0  0  0  0  0  0  0  0  0  0  0
   -0.5400    1.5300    0.0000 C   0  0  0  0  0  0  0  0  0  0  0  0
    3.4800   -0.4400    0.0000 C   0  0  0  0  0  0  0  0  0  0  0  0
   -3.1400    0.0300    0.0000 C   0  0  0  0  0  0  0  0  0  0  0  0
    0.7600    2.2800    0.0000 C   0  0  0  0  0  0  0  0  0  0  0  0
    4.3700    0.7800    0.0000 C   0  0  0  0  0  0  0  0  0  0  0  0
   -3.1400   -2.9700    0.0000 C   0  0  0  0  0  0  0  0  0  0  0  0
    4.7763    2.7447    0.0000 C   0  0  0  0  0  0  0  0  0  0  0  0
   -1.8400   -2.2200    0.0000 C   0  0  0  0  0  0  0  0  0  0  0  0
   -4.4400   -2.2200    0.0000 C   0  0  0  0  0  0  0  0  0  0  0  0
    0.7600   -0.7200    0.0000 C   0  0  0  0  0  0  0  0  0  0  0  0
   -0.5400    0.0300    0.0000 C   0  0  0  0  0  0  0  0  0  0  0  0
    2.0600    0.0300    0.0000 C   0  0  0  0  0  0  0  0  0  0  0  0
   -1.8400   -0.7200    0.0000 C   0  0  0  0  0  0  0  0  0  0  0  0
    2.0600    1.5300    0.0000 C   0  0  0  0  0  0  0  0  0  0  0  0
    3.4800    1.9900    0.0000 C   0  0  0  0  0  0  0  0  0  0  0  0
    4.7709    4.2447    0.0000 O   0  0  0  0  0  0  0  0  0  0  0  0
   -5.7389   -2.9702    0.0000 O   0  0  0  0  0  0  0  0  0  0  0  0
    3.5277    0.4908    0.0000 O   0  0  0  0  0  0  0  0  0  0  0  0
  5  4  1  0
  9  6  1  0
 10  7  1  0
 11  8  1  0
 13  1  1  0
 14  4  2  0
 14 12  1  0
 15  6  1  0
 15 12  1  0
 16  5  1  6
 17  7  1  1
 17 16  1  0
 18  8  1  1
 18 16  1  0
 19  2  1  1
 19  9  1  0
 19 14  1  0
 19 17  1  0
 20  3  1  1
 20 10  1  0
 20 18  1  0
 21 11  1  0
 21 13  1  0
 21 20  1  0
 22 13  2  0
 15 23  1  1
 21 24  1  6
M  END
>  <NAME>  (347) 
17ALPHA-HYDROXYPREGNENOLONE

>  <SYNONYMS>  (347) 


>  <SPECTRUM TYPE>  (347) 
MS1

>  <INSTRUMENT TYPE>  (347) 
EI-B

>  <INSTRUMENT>  (347) 
HITACHI M-2500

>  <ION MODE>  (347) 
P

>  <INCHIKEY>  (347) 
JERGUCIJOXJXHF-TVWVXWENSA-N

>  <FORMULA>  (347) 
C21H32O3

>  <EXACT MASS>  (347) 
332.23514488399996

>  <MW>  (347) 
332

>  <ID>  (347) 
JP011653

>  <CONTRIBUTOR>  (347) 
University of Tokyo Team, {Faculty of Engineering, University of Tokyo

>  <COMMENT>  (347) 
SMILES=[H]C(O)(C4)CC(=C([H])3)C(C)(C4)C([H])(C2)C([H])(C3)C([H])(C1)C(C)(C2)C(O)(C(C)=O)C1
cas=19454-90-1
InChI=InChI=1S/C21H32O3/c1-13(22)21(24)11-8-18-16-5-4-14-12-15(23)6-9-19(14,2)17(16)7-10-20(18,21)3/h4,15-18,23-24H,5-12H2,1-3H3/t15-,16+,17-,18-,19-,20-,21-/m0/s1
computed SMILES=O=C(C)C1(O)CCC2C3CC=C4CC(O)CCC4(C)C3CCC21C
accession=JP011653
date=2016.01.19 (Created 2008.10.21, modified 2011.05.06)
author=YAMAMOTO M, DEP. CHEMISTRY, FAC. SCIENCE, NARA WOMEN'S UNIV.
license=CC BY-NC-SA
exact mass=332.23514
ionization energy=70 eV
ion type=[M]+*
computed spectral entropy=4.512274116450653
computed normalized entropy=0.86985512266507
SPLASH=splash10-0ff0-3792000000-974e157d4c25e376b004
submitter=submitter = University of Tokyo Team (Faculty of Engineering, University of Tokyo)
MoNA Rating=3.75

>  <NUM PEAKS>  (347) 
179

>  <MASS SPECTRAL PEAKS>  (347) 
18 2.81
27 1.41
28 1.08
29 3.06
39 1.92
41 10.26
43 26.3
44 1.05
45 1.02
53 4.01
55 10.8
57 4.18
59 1.06
65 2.44
67 9.97
68 1.58
69 4.04
71 2.68
77 7.89
78 1.96
79 14.02
80 1.85
81 16.69
82 1.75
83 3.1
85 2.38
87 5.42
91 19.42
92 3.72
93 14.82
94 2.96
95 11.49
96 1.52
97 4.92
100 2.11
103 1.78
104 1.43
105 19.84
106 4.13
107 15.93
108 3.91
109 6.84
110 1.25
111 1.77
115 3.34
116 2.14
117 8.3
118 3.3
119 16.07
120 6.15
121 9.87
122 2.19
123 4.08
124 1.1
125 1.5
128 3.44
129 6.22
130 2.69
131 13.44
132 3.85
133 18.92
134 3.93
135 7.27
136 1.34
137 2.55
141 2.68
142 2.22
143 14.06
144 4.55
145 23.11
146 5.07
147 13.04
148 3.42
149 4.12
151 4.38
155 3.24
156 1.98
157 15.27
158 7.75
159 22.62
160 5.01
161 8.07
162 1.64
163 6.04
164 1.15
165 1.33
169 4.18
170 1.55
171 13.93
172 4.16
173 10.66
174 2.95
175 6
176 2.02
177 2.55
181 1.13
183 5.51
184 1.9
185 11.59
186 5.38
187 6.89
188 2.02
189 4.23
190 1.29
191 1.47
195 1.66
197 11.95
198 3.67
199 7.65
200 2.16
201 3.97
202 1.64
203 2.35
207 1.05
209 2.02
211 13.17
212 3.82
213 43.86
214 9.03
215 8.17
216 1.92
217 2.16
221 1.19
223 1.79
224 1.16
225 6.33
226 6.09
227 16.13
228 13.56
229 12.34
230 2.69
231 16.52
232 6.11
233 1.64
237 1.97
238 1.69
239 1.91
241 1.72
242 1.33
243 1.92
244 9.26
245 27.48
246 13.56
247 2.45
251 1.19
253 68.64
254 14.59
255 4.46
256 1.35
257 1.17
258 1.58
263 4.14
269 2.75
270 1.59
271 82.23
272 16.95
273 4.8
274 1.55
281 9.99
282 2.16
286 1.9
287 3.79
288 1.62
289 51.81
290 10.37
291 1.57
296 3.57
297 1.14
298 1.07
299 10.72
300 2.36
304 2
314 7.98
315 1.88
316 1.8
317 2.09
332 99.99
333 23.3
334 4.28

>  <PREDICTED SPECTRUM>  (347) 
27 34
29 33
31 2
39 0
41 351
42 55
43 625
44 132
45 192
47 32
49 30
51 117
52 52
53 300
54 56
55 445
56 63
57 245
58 112
59 78
60 63
61 43
62 0
63 12
64 2
65 222
66 79
67 450
68 100
69 253
70 58
71 302
72 34
73 92
77 396
78 157
79 510
80 126
81 499
82 141
83 208
84 132
85 249
86 45
87 142
90 14
91 590
92 185
93 495
94 198
95 438
96 146
97 322
98 43
99 76
100 106
101 61
102 12
103 150
104 76
105 501
106 228
107 535
108 210
109 395
110 132
111 197
112 50
113 66
114 22
115 209
116 124
117 309
118 193
119 458
120 256
121 385
122 209
123 336
124 158
125 159
126 12
127 68
128 194
129 258
130 149
131 430
132 208
133 438
134 130
135 280
136 121
137 187
138 29
139 64
140 23
141 202
142 123
143 460
144 182
145 515
146 160
147 371
148 150
149 227
150 59
151 127
152 0
153 10
154 4
155 175
156 117
157 397
158 239
159 512
160 278
161 320
162 119
163 203
164 66
165 90
166 31
167 58
169 249
170 44
171 377
172 166
173 329
174 131
175 191
176 106
177 113
178 56
179 32
182 85
183 180
184 132
185 255
186 195
187 231
188 114
189 163
190 98
191 32
192 34
195 160
196 76
197 351
198 162
199 372
200 142
201 225
202 98
203 158
204 124
205 130
207 42
209 154
210 17
211 384
212 187
213 531
214 276
215 326
216 105
217 167
218 57
219 88
220 69
221 47
223 79
224 47
225 234
226 218
227 345
228 287
229 440
230 252
231 385
232 246
233 39
235 11
237 199
238 113
239 208
240 126
241 165
242 145
243 173
244 222
245 265
246 265
247 229
248 17
251 84
252 36
253 626
254 327
255 257
256 173
257 127
258 89
259 81
260 8
263 104
267 38
268 62
269 148
270 137
271 894
272 456
273 194
274 83
278 0
281 386
282 160
283 28
286 134
287 169
288 132
289 699
290 310
291 27
296 191
297 117
298 43
299 264
300 107
304 101
305 17
314 373
315 180
316 100
317 143
318 45
330 88
332 999
333 498
334 204
335 8

$$$$

     RDKit          2D

 26 29  0  0  1  0  0  0  0  0999 V2000
   -1.7600    0.6800    0.0000 C   0  0  0  0  0  0  0  0  0  0  0  0
    2.2972    2.9217    0.0000 C   0  0  0  0  0  0  0  0  0  0  0  0
   -0.4600   -3.0700    0.0000 C   0  0  0  0  0  0  0  0  0  0  0  0
    0.8400   -2.3200    0.0000 C   0  0  0  0  0  0  0  0  0  0  0  0
   -4.3600   -0.8200    0.0000 C   0  0  0  0  0  0  0  0  0  0  0  0
    3.5600   -0.5400    0.0000 C   0  0  0  0  0  0  0  0  0  0  0  0
   -3.0600   -0.0700    0.0000 C   0  0  0  0  0  0  0  0  0  0  0  0
    4.4500    0.6800    0.0000 C   0  0  0  0  0  0  0  0  0  0  0  0
   -3.0600   -3.0700    0.0000 C   0  0  0  0  0  0  0  0  0  0  0  0
    0.8400    2.1800    0.0000 C   0  0  0  0  0  0  0  0  0  0  0  0
    6.1581    1.8994    0.0000 C   0  0  0  0  0  0  0  0  0  0  0  0
   -1.7600   -2.3200    0.0000 C   0  0  0  0  0  0  0  0  0  0  0  0
   -4.3600   -2.3200    0.0000 C   0  0  0  0  0  0  0  0  0  0  0  0
    0.8400   -0.8200    0.0000 C   0  0  0  0  0  0  0  0  0  0  0  0
    2.1400   -0.0700    0.0000 C   0  0  0  0  0  0  0  0  0  0  0  0
   -0.4600    1.4300    0.0000 C   0  0  0  0  0  0  0  0  0  0  0  0
    4.8563    2.6447    0.0000 C   0  0  0  0  0  0  0  0  0  0  0  0
   -0.4600   -0.0700    0.0000 C   0  0  0  0  0  0  0  0  0  0  0  0
   -1.7600   -0.8200    0.0000 C   0  0  0  0  0  0  0  0  0  0  0  0
    2.1400    1.4300    0.0000 C   0  0  0  0  0  0  0  0  0  0  0  0
    3.5600    1.8900    0.0000 C   0  0  0  0  0  0  0  0  0  0  0  0
    7.4544    2.6541    0.0000 O   0  0  0  0  0  0  0  0  0  0  0  0
   -5.6589   -3.0702    0.0000 O   0  0  0  0  0  0  0  0  0  0  0  0
   -1.7589    2.1802    0.0000 O   0  0  0  0  0  0  0  0  0  0  0  0
    4.8509    4.1447    0.0000 O   0  0  0  0  0  0  0  0  0  0  0  0
    3.6077    0.3908    0.0000 O   0  0  0  0  0  0  0  0  0  0  0  0
  4  3  1  0
  7  5  1  0
  8  6  1  0
 12  3  1  0
 12  9  2  0
 13  5  1  0
 13  9  1  0
 14  4  1  6
 15  6  1  1
 15 14  1  0
 16 10  1  0
 17 11  1  0
 18 14  1  0
 18 16  1  1
 19  1  1  1
 19  7  1  0
 19 12  1  0
 19 18  1  0
 20  2  1  1
 20 10  1  0
 20 15  1  0
 21  8  1  0
 21 17  1  0
 21 20  1  0
 22 11  1  0
 23 13  2  0
 16 24  1  1
 25 17  2  0
 21 26  1  6
M  END
>  <NAME>  (348) 
(8S,9S,10R,11S,13S,14S,17R)-11,17-dihydroxy-17-(2-hydroxyacetyl)-10,13-dimethyl-2,6,7,8,9,11,12,14,15,16-decahydro-1H-cyclopenta[a]phenanthren-3-one

>  <SYNONYMS>  (348) 
Cortisol
Hydrocortisone

>  <SPECTRUM TYPE>  (348) 
MS1

>  <INSTRUMENT TYPE>  (348) 
EI-B

>  <INSTRUMENT>  (348) 
HITACHI M-2500

>  <ION MODE>  (348) 
P

>  <INCHIKEY>  (348) 
JYGXADMDTFJGBT-VWUMJDOOSA-N

>  <FORMULA>  (348) 
C21H30O5

>  <EXACT MASS>  (348) 
362.20932406

>  <MW>  (348) 
362

>  <ID>  (348) 
JP011651

>  <CONTRIBUTOR>  (348) 
University of Tokyo Team, {Faculty of Engineering, University of Tokyo

>  <COMMENT>  (348) 
SMILES=C[C@]12CCC(=O)C=C1CC[C@@H]3[C@@H]2[C@H](C[C@]4([C@H]3CC[C@@]4(C(=O)CO)O)C)O
cas=50-23-7 80562-38-5
chebi=17650
chemspider=5551
hmdb=HMDB00063
kegg=C00735
lipidmaps=LMST02030001
pubchem cid=5754
InChI=InChI=1S/C21H30O5/c1-19-7-5-13(23)9-12(19)3-4-14-15-6-8-21(26,17(25)11-22)20(15,2)10-16(24)18(14)19/h9,14-16,18,22,24,26H,3-8,10-11H2,1-2H3/t14-,15-,16-,18+,19-,20-,21-/m0/s1
computed SMILES=O=C1C=C2CCC3C4CCC(O)(C(=O)CO)C4(C)CC(O)C3C2(C)CC1
accession=JP011651
date=2016.01.19 (Created 2008.10.21, modified 2011.05.06)
author=YAMAMOTO M, DEP. CHEMISTRY, FAC. SCIENCE, NARA WOMEN'S UNIV.
license=CC BY-NC-SA
exact mass=362.20932
ionization energy=70 eV
ion type=[M]+*
computed spectral entropy=5.066277845310378
computed normalized entropy=0.9031648665493163
SPLASH=splash10-03ec-3975000000-577516644c3109b5b3bc
submitter=submitter = University of Tokyo Team (Faculty of Engineering, University of Tokyo)
MoNA Rating=3.75

>  <NUM PEAKS>  (348) 
273

>  <MASS SPECTRAL PEAKS>  (348) 
18 3.56
27 3.82
28 2.47
29 7.94
30 5.53
31 7.26
32 1.78
39 5.65
40 1.32
41 18.36
42 3.46
43 16.32
44 1.1
45 1.24
51 1.73
52 1.22
53 8.07
54 1.25
55 16.06
56 1.21
57 4.09
60 5.74
65 5.19
66 2.27
67 12.81
68 2.17
69 5.84
70 1.4
71 2.98
72 1.38
73 1.03
77 16.11
78 4.15
79 21.75
80 3.91
81 12.17
82 2.15
83 5.31
84 1.43
85 2.02
86 1.08
87 1.33
91 27.76
92 5.36
93 17.19
94 5.7
95 15.38
96 4.46
97 13.96
98 1.75
99 2.87
100 1.2
103 3.57
104 2.36
105 23.91
106 7.56
107 17.77
108 6.72
109 17.8
110 7.9
111 5.38
112 1.26
113 1.35
115 5.26
116 2.78
117 9.21
118 4.69
119 26.37
120 10.61
121 25.22
122 20.45
123 53.74
124 37.75
125 8.34
126 1.77
127 2.34
128 4.71
129 8.21
130 3.9
131 15.31
132 5.69
133 15.75
134 9.4
135 13.35
136 13.75
137 19.09
138 6.54
139 1.91
141 3.51
142 3.72
143 14.2
144 7.72
145 21.6
146 7.9
147 20.04
148 13.22
149 12.8
150 4.29
151 2.74
152 1.86
153 1.87
154 1.11
155 5.03
156 3.18
157 10.12
158 5.14
159 14.02
160 9.69
161 21.51
162 12.68
163 60.79
164 11.85
165 3.52
166 1.88
167 2.29
168 1.49
169 5.6
170 2.99
171 9.87
172 6.64
173 16.93
174 9.32
175 12.67
176 5.93
177 3.53
178 2.47
179 2.54
180 1.6
181 3.09
182 2.16
183 6.22
184 5.1
185 12.55
186 6.86
187 9.89
188 6.78
189 23.01
190 5.73
191 5.68
192 2.74
193 2.47
194 1.23
195 3.98
196 2.23
197 6.18
198 5.79
199 14.24
200 9.88
201 7.07
202 4.55
203 4.89
204 2.29
205 3.35
206 1.55
207 3.05
208 2.46
209 10.23
210 3.19
211 8.77
212 4.97
213 17.38
214 10.52
215 7.5
216 3.12
217 3.73
218 1.6
219 1.25
221 2.03
222 2.11
223 6.17
224 5.04
225 18.4
226 8.68
227 55.15
228 16.23
229 9.42
230 3.47
231 2.85
232 2.1
233 1.79
235 2.07
236 1.15
237 2.94
238 2.91
239 6.2
240 16.16
241 15.88
242 55.07
243 19.28
244 4.39
245 8.88
246 3.65
247 2.9
248 1.18
249 3.66
250 1.89
251 7.44
252 3.33
253 6.14
254 3.44
255 4.67
256 8.29
257 7.25
258 11.39
259 6.54
260 25.7
261 9.83
262 1.98
263 2.16
265 4.37
266 4.53
267 18.65
268 7.71
269 42.09
270 12.8
271 5.91
272 2.83
273 3.1
274 7.08
275 3.13
276 1.16
278 1.71
279 1.97
280 1.38
281 5.84
282 2.07
283 6.36
284 15.99
285 43.3
286 14.86
287 7.13
288 4.46
289 1.51
290 1.64
291 1.52
293 2.63
295 6.29
296 8.28
297 7.72
298 3.28
299 16.6
300 4.42
301 3.11
302 63.2
303 31.32
304 7.02
305 1.13
308 2.87
309 1.04
311 12.05
312 5.21
313 14.68
314 32.66
315 52.35
316 13.87
317 2.82
326 7.14
327 2.42
328 3.49
329 14.98
330 9.8
331 2.47
332 99.99
333 23.19
334 5.62
344 57.13
345 15.17
346 3.69
347 1.02
360 1.29
362 67.67
363 18.25
364 2.99

>  <PREDICTED SPECTRUM>  (348) 
17 5
18 10
28 4
39 98
40 36
41 679
42 282
43 929
44 361
45 343
46 16
47 124
49 98
50 55
51 282
52 172
53 484
54 173
55 916
56 262
57 332
58 247
59 269
60 312
61 144
62 10
63 98
64 47
65 426
66 165
67 620
68 295
69 531
70 282
71 406
72 205
73 153
74 47
75 75
77 801
78 374
79 856
80 290
81 576
82 212
83 428
84 263
85 223
86 135
87 123
88 15
89 69
90 3
91 999
92 303
93 574
94 282
95 528
96 269
97 564
98 192
99 195
100 153
101 87
102 65
103 275
104 164
105 805
106 389
107 685
108 349
109 549
110 318
111 270
112 20
113 52
115 416
116 210
117 498
118 236
119 551
120 281
121 593
122 529
123 593
124 570
125 304
126 64
127 131
128 329
129 311
130 219
131 510
132 171
133 482
134 348
135 552
136 450
137 394
138 261
139 109
141 135
142 153
143 402
144 221
145 396
146 209
147 501
148 311
149 357
150 155
151 161
152 122
153 118
154 34
155 123
156 36
157 310
158 116
159 462
160 319
161 508
162 310
163 397
164 132
165 162
166 66
167 34
168 26
169 256
170 137
171 290
172 301
173 411
174 368
175 375
176 214
177 301
178 134
179 127
181 99
182 42
183 174
184 148
185 383
186 294
187 263
188 154
189 278
190 113
191 80
193 131
195 147
196 19
197 268
198 111
199 264
200 195
201 195
202 55
203 57
204 29
207 152
208 75
209 269
210 113
211 364
212 211
213 337
214 274
215 389
216 205
217 86
218 31
221 23
222 7
223 361
224 186
225 471
226 291
227 641
228 419
229 558
230 118
231 98
232 133
238 116
239 288
240 344
241 391
242 524
243 519
244 431
245 333
246 107
247 49
249 74
251 241
252 112
253 381
254 111
255 118
256 166
257 80
258 213
259 296
260 355
261 279
265 177
266 90
267 560
268 291
269 268
270 252
271 47
272 10
274 101
275 31
282 149
283 505
284 466
285 685
286 337
287 151
288 106
291 31
293 188
294 23
295 254
296 37
297 64
300 4
301 415
302 860
303 702
304 245
305 45
308 42
309 113
310 50
311 189
312 95
313 454
314 158
315 179
316 93
326 166
329 269
330 55
332 12
334 5
344 631
345 172
346 63
348 20
362 934
363 433
364 148

$$$$

     RDKit          2D

 23 26  0  0  1  0  0  0  0  0999 V2000
    6.0726    3.4994    0.0000 C   0  0  0  0  0  0  0  0  0  0  0  0
   -1.8400    0.7800    0.0000 C   0  0  0  0  0  0  0  0  0  0  0  0
    2.2172    3.0217    0.0000 C   0  0  0  0  0  0  0  0  0  0  0  0
    4.7763    2.7447    0.0000 C   0  0  0  0  0  0  0  0  0  0  0  0
   -0.5400   -2.9700    0.0000 C   0  0  0  0  0  0  0  0  0  0  0  0
    0.7600   -2.2200    0.0000 C   0  0  0  0  0  0  0  0  0  0  0  0
   -4.4400   -0.7200    0.0000 C   0  0  0  0  0  0  0  0  0  0  0  0
   -0.5400    1.5300    0.0000 C   0  0  0  0  0  0  0  0  0  0  0  0
    3.4800   -0.4400    0.0000 C   0  0  0  0  0  0  0  0  0  0  0  0
   -3.1400    0.0300    0.0000 C   0  0  0  0  0  0  0  0  0  0  0  0
    0.7600    2.2800    0.0000 C   0  0  0  0  0  0  0  0  0  0  0  0
    4.3700    0.7800    0.0000 C   0  0  0  0  0  0  0  0  0  0  0  0
   -3.1400   -2.9700    0.0000 C   0  0  0  0  0  0  0  0  0  0  0  0
   -1.8400   -2.2200    0.0000 C   0  0  0  0  0  0  0  0  0  0  0  0
   -4.4400   -2.2200    0.0000 C   0  0  0  0  0  0  0  0  0  0  0  0
    0.7600   -0.7200    0.0000 C   0  0  0  0  0  0  0  0  0  0  0  0
   -0.5400    0.0300    0.0000 C   0  0  0  0  0  0  0  0  0  0  0  0
    2.0600    0.0300    0.0000 C   0  0  0  0  0  0  0  0  0  0  0  0
   -1.8400   -0.7200    0.0000 C   0  0  0  0  0  0  0  0  0  0  0  0
    2.0600    1.5300    0.0000 C   0  0  0  0  0  0  0  0  0  0  0  0
    3.4800    1.9900    0.0000 C   0  0  0  0  0  0  0  0  0  0  0  0
   -5.7389   -2.9702    0.0000 O   0  0  0  0  0  0  0  0  0  0  0  0
    3.5277    0.4908    0.0000 O   0  0  0  0  0  0  0  0  0  0  0  0
  4  1  3  0
  6  5  1  0
 10  7  1  0
 11  8  1  0
 12  9  1  0
 14  5  1  0
 14 13  2  0
 15  7  1  0
 15 13  1  0
 16  6  1  6
 17  8  1  1
 17 16  1  0
 18  9  1  1
 18 16  1  0
 19  2  1  1
 19 10  1  0
 19 14  1  0
 19 17  1  0
 20  3  1  1
 20 11  1  0
 20 18  1  0
 21  4  1  0
 21 12  1  0
 21 20  1  0
 22 15  2  0
 21 23  1  1
M  END
>  <NAME>  (349) 
ETHISTERONE

>  <SYNONYMS>  (349) 
17ALPHA-ETHYNYLTESTOSTERONE

>  <SPECTRUM TYPE>  (349) 
MS1

>  <INSTRUMENT TYPE>  (349) 
EI-B

>  <INSTRUMENT>  (349) 
HITACHI M-2500

>  <ION MODE>  (349) 
P

>  <INCHIKEY>  (349) 
CHNXZKVNWQUJIB-CEGNMAFCSA-N

>  <FORMULA>  (349) 
C21H28O2

>  <EXACT MASS>  (349) 
312.208930136

>  <MW>  (349) 
312

>  <ID>  (349) 
JP011650

>  <CONTRIBUTOR>  (349) 
University of Tokyo Team, {Faculty of Engineering, University of Tokyo

>  <COMMENT>  (349) 
SMILES=O=C(C4)C=C(C3)C(C)(C4)C([H])(C2)C([H])(C3)C([H])(C1)C(C)(C2)C(O)(C#C)C1
cas=434-03-7
InChI=InChI=1S/C21H28O2/c1-4-21(23)12-9-18-16-6-5-14-13-15(22)7-10-19(14,2)17(16)8-11-20(18,21)3/h1,13,16-18,23H,5-12H2,2-3H3/t16-,17+,18+,19+,20+,21+/m1/s1
computed SMILES=O=C1C=C2CCC3C(CCC4(C)C3CCC4(O)C#C)C2(C)CC1
accession=JP011650
date=2016.01.19 (Created 2008.10.21, modified 2011.05.06)
author=YAMAMOTO M, DEP. CHEMISTRY, FAC. SCIENCE, NARA WOMEN'S UNIV.
license=CC BY-NC-SA
exact mass=312.20893
ionization energy=70 eV
ion type=[M]+*
computed spectral entropy=4.567174147823647
computed normalized entropy=0.896623110238167
SPLASH=splash10-03di-3952000000-9a0346ae86fbbfdc4aa9
submitter=submitter = University of Tokyo Team (Faculty of Engineering, University of Tokyo)
MoNA Rating=3.75

>  <NUM PEAKS>  (349) 
163

>  <MASS SPECTRAL PEAKS>  (349) 
18 2.2
27 1.87
28 1.21
29 2.17
39 3.98
40 1.13
41 8.47
43 3.23
51 1.32
53 5.89
54 1.03
55 7.92
65 3.67
66 1.44
67 8.79
68 2.61
69 2
77 10.07
78 2.48
79 14.62
80 2.2
81 7.86
82 1.16
83 1.94
87 1.03
91 16.65
92 3.1
93 10.98
94 2.78
95 8.54
96 1.88
97 5.35
103 1.97
104 1.36
105 13.05
106 4.68
107 11.24
108 4.49
109 8.88
110 3.04
111 2.47
115 3.2
116 1.48
117 5.56
118 2.51
119 10.37
120 6.74
121 15.8
122 11.07
123 13.29
124 30.38
125 3.4
128 2.51
129 3.85
130 1.54
131 7.41
132 2.82
133 8.64
134 6
135 8.34
136 7.03
137 8.08
138 2.4
141 1.72
142 1.5
143 4.21
144 2.09
145 7.01
146 3.55
147 8.24
148 14.1
149 11.08
150 2.71
151 1.02
155 2.92
156 1.66
157 4.17
158 2.04
159 7.75
160 4.55
161 9.72
162 4.76
163 6.47
164 1.41
169 2.39
170 2.55
171 6.65
172 2.85
173 7.3
174 5.38
175 5.99
176 4.03
177 4.2
178 1.31
181 1.06
183 2.22
184 2.08
185 4.49
186 2.29
187 8.87
188 6.93
189 15.8
190 4.43
191 2.08
195 1.39
197 2.15
198 1.93
199 3.2
200 3.41
201 5.71
202 4.64
203 2.83
209 2.1
210 1.05
211 5.22
212 1.8
213 6.46
214 2.83
215 3.42
216 1.73
217 2.08
223 2.11
224 1.47
225 1.96
226 3.99
227 10.01
228 3.39
229 22.22
230 4.75
231 4.2
232 1.5
237 3.1
238 1.75
239 1.9
240 1.42
241 1.79
242 10.77
243 2.95
244 5.54
245 32.21
246 5.97
251 2.4
252 2.56
253 1.25
255 2.95
256 1.23
261 1.18
265 1.15
266 1.92
269 2.67
270 9.52
271 2.16
279 10.7
280 2.31
283 2.8
284 3.8
294 4.28
295 2.23
297 26.29
298 5.93
312 99.99
313 23.41
314 4.21

>  <PREDICTED SPECTRUM>  (349) 
26 33
27 187
28 74
29 152
38 37
39 289
40 178
41 634
42 203
43 378
44 96
45 55
49 42
50 117
51 332
52 266
53 600
54 188
55 704
56 128
57 290
58 63
59 5
61 75
62 41
63 149
64 137
65 527
66 326
67 807
68 305
69 393
71 138
72 39
73 116
74 33
75 74
76 80
77 771
78 424
79 880
80 314
81 584
82 196
83 310
84 95
85 178
86 144
87 66
88 0
89 30
90 51
91 991
92 401
93 699
94 305
95 584
96 205
97 411
98 102
99 78
100 4
101 19
102 84
103 374
104 294
105 882
106 417
107 737
108 371
109 593
110 323
111 276
112 148
115 475
116 335
117 590
118 334
119 577
120 430
121 614
122 552
123 559
124 955
125 379
126 108
127 170
128 459
129 512
130 327
131 610
132 351
133 585
134 457
135 518
136 437
137 352
138 229
139 141
141 241
142 286
143 419
144 379
145 660
146 532
147 641
148 380
149 518
150 226
151 198
152 198
153 124
154 84
155 265
156 260
157 448
158 334
159 532
160 380
161 477
162 317
163 328
164 88
165 130
166 15
167 108
168 128
169 328
170 255
171 383
172 407
173 434
174 479
175 472
176 350
177 176
178 171
179 57
180 30
181 149
182 61
183 372
184 297
185 423
186 346
187 464
188 427
189 373
190 168
191 102
194 70
195 248
196 204
197 326
198 342
199 337
200 210
201 350
202 273
203 246
204 61
205 9
207 92
208 90
209 315
210 264
211 339
212 326
213 481
214 366
215 412
216 238
217 116
219 77
221 21
222 11
223 235
224 192
225 227
226 270
227 639
228 413
229 496
230 389
231 240
232 48
233 42
234 19
235 74
236 44
237 192
238 80
239 168
240 205
241 159
242 384
243 186
244 491
245 302
246 125
247 26
251 192
252 235
253 149
254 126
255 180
256 24
261 127
262 35
263 14
265 34
266 75
267 40
268 103
269 180
270 530
271 339
272 65
276 57
279 397
280 53
283 69
284 117
285 110
286 237
287 62
294 329
295 108
297 348
298 110
299 71
311 80
312 999
313 419
314 94

$$$$

     RDKit          2D

 23 26  0  0  1  0  0  0  0  0999 V2000
    5.6618    3.8047    0.0000 C   0  0  0  0  0  0  0  0  0  0  0  0
   -1.6125    0.9400    0.0000 C   0  0  0  0  0  0  0  0  0  0  0  0
    2.4507    3.1203    0.0000 C   0  0  0  0  0  0  0  0  0  0  0  0
   -0.3200   -2.8400    0.0000 C   0  0  0  0  0  0  0  0  0  0  0  0
    1.0100   -2.0900    0.0000 C   0  0  0  0  0  0  0  0  0  0  0  0
    4.5500    0.8800    0.0000 C   0  0  0  0  0  0  0  0  0  0  0  0
    3.7100   -0.3100    0.0000 C   0  0  0  0  0  0  0  0  0  0  0  0
   -4.2000   -0.5600    0.0000 C   0  0  0  0  0  0  0  0  0  0  0  0
   -0.3200    1.6300    0.0000 C   0  0  0  0  0  0  0  0  0  0  0  0
   -2.8900    0.1600    0.0000 C   0  0  0  0  0  0  0  0  0  0  0  0
    1.0100    2.3900    0.0000 C   0  0  0  0  0  0  0  0  0  0  0  0
   -2.8900   -2.8400    0.0000 C   0  0  0  0  0  0  0  0  0  0  0  0
    4.1909    3.5108    0.0000 C   0  0  0  0  0  0  0  0  0  0  0  0
   -1.6200   -2.0900    0.0000 C   0  0  0  0  0  0  0  0  0  0  0  0
   -4.2000   -2.0900    0.0000 C   0  0  0  0  0  0  0  0  0  0  0  0
    1.0100   -0.5600    0.0000 C   0  0  0  0  0  0  0  0  0  0  0  0
    3.7100    2.0900    0.0000 C   0  0  0  0  0  0  0  0  0  0  0  0
    2.2800    0.1600    0.0000 C   0  0  0  0  0  0  0  0  0  0  0  0
   -0.3200    0.1600    0.0000 C   0  0  0  0  0  0  0  0  0  0  0  0
   -1.6200   -0.5600    0.0000 C   0  0  0  0  0  0  0  0  0  0  0  0
    2.2800    1.6300    0.0000 C   0  0  0  0  0  0  0  0  0  0  0  0
    3.2009    4.6377    0.0000 O   0  0  0  0  0  0  0  0  0  0  0  0
   -5.4977   -2.8424    0.0000 O   0  0  0  0  0  0  0  0  0  0  0  0
  5  4  1  0
  7  6  1  0
 10  8  1  0
 11  9  1  0
 13  1  1  0
 14  4  1  0
 14 12  2  0
 15  8  1  0
 15 12  1  0
 16  5  1  6
 17  6  1  0
 17 13  1  1
 18  7  1  1
 18 16  1  0
 19  9  1  1
 19 16  1  0
 20  2  1  1
 20 10  1  0
 20 14  1  0
 20 19  1  0
 21  3  1  1
 21 11  1  0
 21 17  1  0
 21 18  1  0
 22 13  2  0
 23 15  2  0
M  END
>  <NAME>  (350) 
PROGESTERONE

>  <SYNONYMS>  (350) 
PREGN-4-ENE-3,20-DIONE

>  <SPECTRUM TYPE>  (350) 
MS1

>  <INSTRUMENT TYPE>  (350) 
EI-B

>  <INSTRUMENT>  (350) 
HITACHI M-2500

>  <ION MODE>  (350) 
P

>  <INCHIKEY>  (350) 
RJKFOVLPORLFTN-LEKSSAKUSA-N

>  <FORMULA>  (350) 
C21H30O2

>  <EXACT MASS>  (350) 
314.2245802

>  <MW>  (350) 
314

>  <ID>  (350) 
JP011649

>  <CONTRIBUTOR>  (350) 
University of Tokyo Team, {Faculty of Engineering, University of Tokyo

>  <COMMENT>  (350) 
SMILES=O=C(C4)C=C(C3)C(C)(C4)C([H])(C2)C([H])(C3)C([H])(C1)C(C)(C2)C(C(C)=O)C1
cas=57-83-0
InChI=InChI=1S/C21H30O2/c1-13(22)17-6-7-18-16-5-4-14-12-15(23)8-10-20(14,2)19(16)9-11-21(17,18)3/h12,16-19H,4-11H2,1-3H3/t16-,17+,18-,19-,20-,21+/m0/s1
computed SMILES=O=C1C=C2CCC3C(CCC4(C)C(C(=O)C)CCC34)C2(C)CC1
accession=JP011649
date=2016.01.19 (Created 2008.10.21, modified 2011.05.06)
author=YAMAMOTO M, DEP. CHEMISTRY, FAC. SCIENCE, NARA WOMEN'S UNIV.
license=CC BY-NC-SA
exact mass=314.22458
ionization energy=70 eV
ion type=[M]+*
computed spectral entropy=4.156591816782748
computed normalized entropy=0.8512718481484179
SPLASH=splash10-0229-3963000000-f35e3d9faf6b2ee87465
submitter=submitter = University of Tokyo Team (Faculty of Engineering, University of Tokyo)
MoNA Rating=3.75

>  <NUM PEAKS>  (350) 
132

>  <MASS SPECTRAL PEAKS>  (350) 
18 2.19
27 1.04
29 1.42
39 1.89
41 5.84
43 23.7
53 3.17
55 5.76
65 2.01
67 6.14
69 1.83
71 4.32
77 6.34
78 1.64
79 10.11
80 1.6
81 6.9
83 1.3
84 3.77
85 4.21
91 11.68
92 2.2
93 9.07
94 3.95
95 8.72
96 1.62
97 2.38
103 1.02
105 9.23
106 2.8
107 9.71
108 3.01
109 7.34
110 1.96
111 2.63
115 1.69
117 3.54
118 1.29
119 6.62
120 4.64
121 8.02
122 6.71
123 8.93
124 64.82
125 7.96
128 1.25
129 1.9
131 5.54
132 3.8
133 11.29
134 6.77
135 8.45
136 4.64
137 7.08
138 2.84
143 2.54
144 1.41
145 5.68
146 2.9
147 13.9
148 4.84
149 7.95
150 1.8
155 1.21
157 2.52
158 1.23
159 5.89
160 2.05
161 3.97
162 1.84
163 2.83
171 2.78
172 2.59
173 8.6
174 3.95
175 3.5
176 1.95
177 2.92
178 1.35
183 1.14
185 3.05
186 1.57
187 7.47
188 2.62
189 2.28
190 9.88
191 20.58
192 3.43
197 1.22
199 1.82
200 1.32
201 4.04
202 2.44
203 1.14
211 4.44
212 1.26
213 2.29
214 1.71
215 2.47
216 2.03
225 1.7
226 1.65
227 5.34
228 3.79
229 37.95
230 9.34
231 4.46
232 1.51
239 1.81
243 2.86
244 15.99
245 3.02
253 3.45
254 3.41
255 1.04
256 2.75
257 4.9
258 1.43
270 1.52
271 5.58
272 62.94
273 12.82
274 1.39
281 1.94
286 2.09
296 5.95
297 1.79
299 9.07
300 2.11
314 99.99
315 24.65
316 3.4

>  <PREDICTED SPECTRUM>  (350) 
40 0
41 327
42 36
43 999
44 39
45 14
49 45
50 4
51 76
52 75
53 322
54 76
55 454
57 129
63 2
65 199
66 81
67 411
68 128
69 191
71 288
77 352
78 141
79 487
80 138
81 376
82 50
83 103
84 172
85 251
86 2
91 530
92 157
93 413
94 147
95 386
96 41
97 105
99 36
103 62
104 58
105 417
106 125
107 367
108 175
109 360
110 132
111 183
112 15
115 154
116 63
117 209
118 95
119 284
120 182
121 330
122 255
123 332
124 834
125 257
128 65
129 173
130 36
131 278
132 174
133 329
134 196
135 267
136 216
137 288
138 108
141 11
142 13
143 171
144 44
145 254
146 188
147 364
148 170
149 377
150 93
151 18
155 16
157 148
158 77
159 239
160 69
161 180
162 84
163 172
169 41
171 150
172 56
173 214
174 163
175 225
176 99
177 184
178 45
179 21
183 113
185 95
186 37
187 171
188 67
189 143
190 228
191 331
192 128
197 71
199 40
200 22
201 119
202 21
211 176
212 43
213 75
215 14
225 62
226 71
227 57
228 78
229 454
230 149
231 67
232 17
237 20
239 0
243 6
244 258
253 122
254 39
256 66
257 14
270 55
271 183
272 367
281 91
296 242
297 18
299 221
300 37
314 615

$$$$

     RDKit          2D

 11 12  0  0  0  0  0  0  0  0999 V2000
    2.6000    0.0000    0.0000 C   0  0  0  0  0  0  0  0  0  0  0  0
    0.2900    0.7500    0.0000 C   0  0  0  0  0  0  0  0  0  0  0  0
    0.2900   -0.7500    0.0000 C   0  0  0  0  0  0  0  0  0  0  0  0
   -1.0100    1.5000    0.0000 C   0  0  0  0  0  0  0  0  0  0  0  0
   -2.3100   -0.7500    0.0000 C   0  0  0  0  0  0  0  0  0  0  0  0
   -3.6089   -1.5002    0.0000 N   0  0  0  0  0  0  0  0  0  0  0  0
    1.7200    1.2100    0.0000 N   0  0  0  0  0  0  0  0  0  0  0  0
    1.7200   -1.2100    0.0000 N   0  0  0  0  0  0  0  0  0  0  0  0
   -1.0100   -1.5000    0.0000 N   0  0  0  0  0  0  0  0  0  0  0  0
   -2.3100    0.7500    0.0000 N   0  0  0  0  0  0  0  0  0  0  0  0
   -1.0100    3.0000    0.0000 O   0  0  0  0  0  0  0  0  0  0  0  0
  3  2  2  0
  4  2  1  0
  6  5  2  0
  7  1  2  0
  7  2  1  0
  8  1  1  0
  8  3  1  0
  9  3  1  0
  9  5  1  0
 10  4  2  0
 10  5  1  0
 11  4  1  0
M  END
>  <NAME>  (351) 
GUANINE

>  <SYNONYMS>  (351) 


>  <SPECTRUM TYPE>  (351) 
MS1

>  <INSTRUMENT TYPE>  (351) 
EI-B

>  <INSTRUMENT>  (351) 
HITACHI M-2500

>  <ION MODE>  (351) 
P

>  <INCHIKEY>  (351) 
UYTPUPDQBNUYGX-UHFFFAOYSA-N

>  <FORMULA>  (351) 
C5H5N5O

>  <EXACT MASS>  (351) 
151.04940978000002

>  <MW>  (351) 
151

>  <ID>  (351) 
JP011648

>  <CONTRIBUTOR>  (351) 
University of Tokyo Team, {Faculty of Engineering, University of Tokyo

>  <COMMENT>  (351) 
SMILES=C1=NC2=C(N1)C(=O)N=C(N2)N
cas=73-40-5
InChI=InChI=1S/C5H5N5O/c6-5-9-3-2(4(11)10-5)7-1-8-3/h1H,(H4,6,7,8,9,10,11)
computed SMILES=N=C1N=C(O)C=2N=CNC2N1
accession=JP011648
date=2016.01.19 (Created 2008.10.21, modified 2011.05.06)
author=YAMAMOTO M, DEP. CHEMISTRY, FAC. SCIENCE, NARA WOMEN'S UNIV.
license=CC BY-NC-SA
exact mass=151.04941
ionization energy=70 eV
ion type=[M]+*
computed spectral entropy=3.1881552610888457
computed normalized entropy=0.7786729261883509
SPLASH=splash10-0udi-5900000000-0a63148e3a8dc8d026df
submitter=submitter = University of Tokyo Team (Faculty of Engineering, University of Tokyo)
MoNA Rating=3.75

>  <NUM PEAKS>  (351) 
60

>  <MASS SPECTRAL PEAKS>  (351) 
15 1.03
17 1
18 4.9
27 2.08
28 10.82
29 1.31
36 2.73
38 1.18
39 1.53
41 1.4
42 3.45
43 15.54
44 4.48
45 1.06
53 8.54
54 11.44
55 2.43
56 1.07
65 1.25
66 1.43
68 2.29
69 4.14
70 1.46
73 10.83
74 7.1
75 1.71
77 1.02
79 1.44
80 1.92
81 5.73
82 2.13
83 1.86
91 5.38
92 1.98
96 2.15
103 1.14
106 1.98
107 1.05
108 9.14
109 14.82
110 12.15
111 1.01
115 1.47
117 1.37
119 1.07
120 6.78
123 1.11
124 1.14
131 1.84
132 1.39
133 12.5
134 9.16
135 13.8
136 1.66
147 2.33
148 1.01
149 2.43
150 1.08
151 99.99
152 10.87

>  <PREDICTED SPECTRUM>  (351) 
16 12
25 0
26 20
27 79
28 116
29 11
30 44
31 5
38 48
39 123
40 112
41 231
42 259
43 414
44 213
45 98
46 36
48 32
49 13
50 38
51 118
52 253
53 274
54 265
55 164
56 31
57 171
58 58
63 23
64 54
65 104
66 189
67 239
68 292
69 322
70 180
71 149
72 89
78 71
79 155
80 128
81 219
82 193
83 81
84 128
85 32
86 53
91 73
92 101
93 161
94 148
95 181
96 321
97 216
98 110
105 72
106 101
107 108
108 101
109 179
110 103
111 71
120 8
121 48
122 122
123 230
124 284
125 57
133 49
134 94
135 118
136 71
149 24
150 181
151 999
152 279
153 79

$$$$

     RDKit          2D

 18 20  0  0  0  0  0  0  0  0999 V2000
    3.9000   -0.7500    0.0000 C   0  0  0  0  0  0  0  0  0  0  0  0
    3.9000    0.7500    0.0000 C   0  0  0  0  0  0  0  0  0  0  0  0
    2.6000   -1.5000    0.0000 C   0  0  0  0  0  0  0  0  0  0  0  0
    2.6000    1.5000    0.0000 C   0  0  0  0  0  0  0  0  0  0  0  0
   -3.9000   -0.7500    0.0000 C   0  0  0  0  0  0  0  0  0  0  0  0
   -3.9000    0.7500    0.0000 C   0  0  0  0  0  0  0  0  0  0  0  0
    1.3000   -0.7500    0.0000 C   0  0  0  0  0  0  0  0  0  0  0  0
    1.3000    0.7500    0.0000 C   0  0  0  0  0  0  0  0  0  0  0  0
   -2.6000   -1.5000    0.0000 C   0  0  0  0  0  0  0  0  0  0  0  0
   -2.6000    1.5000    0.0000 C   0  0  0  0  0  0  0  0  0  0  0  0
   -1.3000   -0.7500    0.0000 C   0  0  0  0  0  0  0  0  0  0  0  0
   -1.3000    0.7500    0.0000 C   0  0  0  0  0  0  0  0  0  0  0  0
   -0.0000   -1.5000    0.0000 C   0  0  0  0  0  0  0  0  0  0  0  0
   -0.0000    1.5000    0.0000 C   0  0  0  0  0  0  0  0  0  0  0  0
   -2.6000   -3.0000    0.0000 N   0  0  0  0  0  0  0  0  0  0  0  0
   -2.6000    3.0000    0.0000 N   0  0  0  0  0  0  0  0  0  0  0  0
   -0.0000   -3.0000    0.0000 O   0  0  0  0  0  0  0  0  0  0  0  0
    0.0000    3.0000    0.0000 O   0  0  0  0  0  0  0  0  0  0  0  0
  2  1  2  0
  3  1  1  0
  4  2  1  0
  6  5  2  0
  7  3  2  0
  8  4  2  0
  8  7  1  0
  9  5  1  0
 10  6  1  0
 11  9  2  0
 12 10  2  0
 12 11  1  0
 13  7  1  0
 13 11  1  0
 14  8  1  0
 14 12  1  0
 15  9  1  0
 16 10  1  0
 17 13  2  0
 18 14  2  0
M  END
>  <NAME>  (352) 
1,4-DIAMINOANTHRAQUINONE

>  <SYNONYMS>  (352) 


>  <SPECTRUM TYPE>  (352) 
MS1

>  <INSTRUMENT TYPE>  (352) 
EI-B

>  <INSTRUMENT>  (352) 
HITACHI M-2500

>  <ION MODE>  (352) 
P

>  <INCHIKEY>  (352) 
FBMQNRKSAWNXBT-UHFFFAOYSA-N

>  <FORMULA>  (352) 
C14H10N2O2

>  <EXACT MASS>  (352) 
238.07422756

>  <MW>  (352) 
238

>  <ID>  (352) 
JP011647

>  <CONTRIBUTOR>  (352) 
University of Tokyo Team, {Faculty of Engineering, University of Tokyo

>  <COMMENT>  (352) 
SMILES=Nc(c3)c(c(=O)1)c(c(N)c3)c(=O)c(c2)c(ccc2)1
cas=128-95-0
InChI=InChI=1S/C14H10N2O2/c15-9-5-6-10(16)12-11(9)13(17)7-3-1-2-4-8(7)14(12)18/h1-6H,15-16H2
computed SMILES=O=C1C=2C=CC=CC2C(=O)C=3C(N)=CC=C(N)C13
accession=JP011647
date=2016.01.19 (Created 2008.10.21, modified 2011.05.06)
author=YAMAMOTO M, DEP. CHEMISTRY, FAC. SCIENCE, NARA WOMEN'S UNIV.
license=CC BY-NC-SA
exact mass=238.07423
ionization energy=70 eV
ion type=[M]+*
computed spectral entropy=2.7429998429885725
computed normalized entropy=0.716442089745969
SPLASH=splash10-000i-2290000000-696c3ff9d6caa646075d
submitter=submitter = University of Tokyo Team (Faculty of Engineering, University of Tokyo)
MoNA Rating=3.75

>  <NUM PEAKS>  (352) 
46

>  <MASS SPECTRAL PEAKS>  (352) 
18 3.47
39 1.11
50 2.15
51 5.73
52 1.15
57 1.54
63 1
65 3.12
74 1.11
75 1.24
76 2.02
77 18.02
78 1.89
91 1.62
92 1.37
93 2.79
104 1.06
105 1.32
119 2.53
123 10.96
127 2.25
128 2.02
138 1.96
139 2.12
140 1.01
149 8.62
154 4.55
155 1.34
164 1.13
166 1.2
167 2.27
181 4.29
182 4.27
183 1.59
195 1.76
209 2.48
210 3.44
211 1.33
222 1.21
223 14.56
224 3.77
237 8.59
238 99.99
239 37.59
240 8.68
241 1.14

>  <PREDICTED SPECTRUM>  (352) 
26 7
27 26
28 15
38 8
39 4
40 13
41 17
42 7
43 38
44 53
45 11
49 30
50 74
51 111
52 124
53 50
54 18
55 12
60 43
61 33
62 84
63 150
64 86
65 62
66 33
67 39
68 30
69 36
70 14
71 20
73 17
74 61
75 135
76 175
77 182
78 108
79 86
80 71
81 48
82 59
83 101
84 30
87 8
88 7
89 78
90 125
91 104
92 68
95 3
96 37
97 5
98 20
99 40
100 4
101 51
102 24
104 106
105 160
106 114
107 48
108 48
109 12
110 54
111 34
112 44
113 34
117 13
118 50
119 51
120 40
123 22
124 65
125 79
126 81
127 72
128 26
133 28
134 20
135 7
137 82
138 86
139 51
140 44
149 23
150 17
151 50
152 147
153 153
154 126
155 27
156 1
163 71
164 84
165 124
166 63
167 26
176 5
179 14
180 126
181 199
182 167
183 11
191 41
192 106
193 104
194 107
195 33
208 26
209 163
210 223
211 127
212 7
219 27
220 16
221 67
222 13
223 208
224 71
237 212
238 999
239 457
240 164
241 19

$$$$

     RDKit          2D

 18 20  0  0  0  0  0  0  0  0999 V2000
    3.9000   -0.7500    0.0000 C   0  0  0  0  0  0  0  0  0  0  0  0
    3.9000    0.7500    0.0000 C   0  0  0  0  0  0  0  0  0  0  0  0
    2.6000   -1.5000    0.0000 C   0  0  0  0  0  0  0  0  0  0  0  0
    2.6000    1.5000    0.0000 C   0  0  0  0  0  0  0  0  0  0  0  0
   -3.9000   -0.7500    0.0000 C   0  0  0  0  0  0  0  0  0  0  0  0
   -3.9000    0.7500    0.0000 C   0  0  0  0  0  0  0  0  0  0  0  0
    1.3000   -0.7500    0.0000 C   0  0  0  0  0  0  0  0  0  0  0  0
    1.3000    0.7500    0.0000 C   0  0  0  0  0  0  0  0  0  0  0  0
   -2.6000   -1.5000    0.0000 C   0  0  0  0  0  0  0  0  0  0  0  0
   -2.6000    1.5000    0.0000 C   0  0  0  0  0  0  0  0  0  0  0  0
   -1.3000   -0.7500    0.0000 C   0  0  0  0  0  0  0  0  0  0  0  0
   -1.3000    0.7500    0.0000 C   0  0  0  0  0  0  0  0  0  0  0  0
   -0.0000   -1.5000    0.0000 C   0  0  0  0  0  0  0  0  0  0  0  0
   -0.0000    1.5000    0.0000 C   0  0  0  0  0  0  0  0  0  0  0  0
   -2.6000   -3.0000    0.0000 N   0  0  0  0  0  0  0  0  0  0  0  0
   -2.6000    3.0000    0.0000 O   0  0  0  0  0  0  0  0  0  0  0  0
   -0.0000   -3.0000    0.0000 O   0  0  0  0  0  0  0  0  0  0  0  0
    0.0000    3.0000    0.0000 O   0  0  0  0  0  0  0  0  0  0  0  0
  2  1  2  0
  3  1  1  0
  4  2  1  0
  6  5  2  0
  7  3  2  0
  8  4  2  0
  8  7  1  0
  9  5  1  0
 10  6  1  0
 11  9  2  0
 12 10  2  0
 12 11  1  0
 13  7  1  0
 13 11  1  0
 14  8  1  0
 14 12  1  0
 15  9  1  0
 16 10  1  0
 17 13  2  0
 18 14  2  0
M  END
>  <NAME>  (353) 
1-AMINO-4-HYDROXYANTHRAQUINONE

>  <SYNONYMS>  (353) 


>  <SPECTRUM TYPE>  (353) 
MS1

>  <INSTRUMENT TYPE>  (353) 
EI-B

>  <INSTRUMENT>  (353) 
HITACHI M-2500

>  <ION MODE>  (353) 
P

>  <INCHIKEY>  (353) 
AQXYVFBSOOBBQV-UHFFFAOYSA-N

>  <FORMULA>  (353) 
C14H9NO3

>  <EXACT MASS>  (353) 
239.05824314799997

>  <MW>  (353) 
239

>  <ID>  (353) 
JP011646

>  <CONTRIBUTOR>  (353) 
University of Tokyo Team, {Faculty of Engineering, University of Tokyo

>  <COMMENT>  (353) 
SMILES=Nc(c3)c(c(=O)1)c(c(O)c3)c(=O)c(c2)c(ccc2)1
cas=116-85-8
InChI=InChI=1S/C14H9NO3/c15-9-5-6-10(16)12-11(9)13(17)7-3-1-2-4-8(7)14(12)18/h1-6,16H,15H2
computed SMILES=O=C1C=2C=CC=CC2C(=O)C=3C(N)=CC=C(O)C13
accession=JP011646
date=2016.01.19 (Created 2008.10.21, modified 2011.05.06)
author=YAMAMOTO M, DEP. CHEMISTRY, FAC. SCIENCE, NARA WOMEN'S UNIV.
license=CC BY-NC-SA
exact mass=239.05824
ionization energy=70 eV
ion type=[M]+*
computed spectral entropy=2.977056908483714
computed normalized entropy=0.7463195825633505
SPLASH=splash10-000i-3290000000-3e2d6b88efefae5fd955
submitter=submitter = University of Tokyo Team (Faculty of Engineering, University of Tokyo)
MoNA Rating=3.75

>  <NUM PEAKS>  (353) 
54

>  <MASS SPECTRAL PEAKS>  (353) 
17 1.66
18 9.85
29 1.53
31 1
41 4.13
42 2.7
43 5.09
51 1.63
52 1.14
55 6.56
56 7.33
57 3.69
64 1.17
68 2.24
69 6.08
70 7.1
71 1.57
75 1.39
76 1.71
77 4.1
78 1.25
82 1.81
83 5.55
84 5.15
92 1.71
97 2.43
98 1.19
101 1.72
102 2.8
105 2.19
111 1.23
112 2.16
120 3.84
126 1.37
127 4.42
128 5.6
129 2.02
139 1.37
154 12.24
155 3.32
156 1.03
167 1.02
182 4.61
183 4.96
184 1.95
210 4.02
211 4.26
212 2.1
237 1.59
238 28.81
239 99.99
240 55.33
241 7.47
242 1.27

>  <PREDICTED SPECTRUM>  (353) 
26 5
27 25
28 40
38 8
39 11
41 14
44 82
45 44
49 3
50 142
51 175
52 140
53 86
54 11
55 35
58 9
60 2
61 27
62 82
63 164
64 98
65 24
66 30
67 44
68 9
69 35
71 28
73 48
74 101
75 127
76 239
77 217
78 121
79 105
80 69
81 61
82 47
83 86
84 18
86 3
87 24
88 5
89 23
90 69
91 99
92 89
93 13
97 13
98 39
99 57
100 31
101 119
102 144
103 81
104 134
105 180
106 76
107 22
108 44
110 48
111 8
112 43
113 58
114 7
118 0
119 12
120 37
125 31
126 155
127 141
128 168
129 107
130 21
135 1
136 34
137 121
138 112
139 90
152 76
153 79
154 265
155 192
156 66
157 22
163 94
164 110
165 114
166 43
181 76
182 249
183 239
184 32
193 56
194 11
195 1
210 199
211 274
212 109
224 31
237 9
238 278
239 999
240 404
241 109

$$$$

     RDKit          2D

 15 16  0  0  0  0  0  0  0  0999 V2000
   -5.1780    0.7831    0.0000 C   0  0  0  0  0  0  0  0  0  0  0  0
   -2.5800   -0.7500    0.0000 C   0  0  0  0  0  0  0  0  0  0  0  0
   -1.2800   -1.5000    0.0000 C   0  0  0  0  0  0  0  0  0  0  0  0
   -1.2800    1.4800    0.0000 C   0  0  0  0  0  0  0  0  0  0  0  0
    3.8789   -1.5002    0.0000 C   0  0  0  0  0  0  0  0  0  0  0  0
   -2.5800    0.7600    0.0000 C   0  0  0  0  0  0  0  0  0  0  0  0
   -0.0100   -0.7500    0.0000 C   0  0  0  0  0  0  0  0  0  0  0  0
    2.5800   -0.7500    0.0000 C   0  0  0  0  0  0  0  0  0  0  0  0
   -0.0100    0.7600    0.0000 C   0  0  0  0  0  0  0  0  0  0  0  0
    2.5800    0.7600    0.0000 C   0  0  0  0  0  0  0  0  0  0  0  0
    5.1781   -0.7504    0.0000 Br  0  0  0  0  0  0  0  0  0  0  0  0
    1.2800   -1.5000    0.0000 N   0  0  0  0  0  0  0  0  0  0  0  0
    3.8723    1.5215    0.0000 O   0  0  0  0  0  0  0  0  0  0  0  0
   -3.8723    1.5215    0.0000 O   0  0  0  0  0  0  0  0  0  0  0  0
    1.2800    1.4800    0.0000 O   0  0  0  0  0  0  0  0  0  0  0  0
  3  2  2  0
  6  2  1  0
  6  4  2  0
  7  3  1  0
  8  5  1  0
  9  4  1  0
  9  7  2  0
 10  8  1  0
 11  5  1  0
 12  7  1  0
 12  8  2  0
 13 10  2  0
 14  1  1  0
 14  6  1  0
 15  9  1  0
 15 10  1  0
M  END
>  <NAME>  (354) 
3-BROMOMETHYL-7-METHOXY-1,4-BENZOXAZIN-2-ONE

>  <SYNONYMS>  (354) 


>  <SPECTRUM TYPE>  (354) 
MS1

>  <INSTRUMENT TYPE>  (354) 
EI-B

>  <INSTRUMENT>  (354) 
HITACHI M-2500

>  <ION MODE>  (354) 
P

>  <INCHIKEY>  (354) 
XFCZURAACWKKIH-UHFFFAOYSA-N

>  <FORMULA>  (354) 
C10H8BrNO3

>  <EXACT MASS>  (354) 
268.968755216

>  <MW>  (354) 
269

>  <ID>  (354) 
JP011645

>  <CONTRIBUTOR>  (354) 
University of Tokyo Team, {Faculty of Engineering, University of Tokyo

>  <COMMENT>  (354) 
SMILES=COc(c2)cc(O1)c(c2)N=C(CBr)C(=O)1
InChI=InChI=1S/C10H8BrNO3/c1-14-6-2-3-7-9(4-6)15-10(13)8(5-11)12-7/h2-4H,5H2,1H3
computed SMILES=O=C1OC=2C=C(OC)C=CC2N=C1CBr
accession=JP011645
date=2016.01.19 (Created 2008.10.21, modified 2011.05.06)
author=YAMAMOTO M, DEP. CHEMISTRY, FAC. SCIENCE, NARA WOMEN'S UNIV.
license=CC BY-NC-SA
exact mass=268.96876
ionization energy=70 eV
ion type=[M]+*
computed spectral entropy=2.601009917466546
computed normalized entropy=0.7004064740757462
SPLASH=splash10-01ox-1900000000-5c45ac061ab86952eae7
submitter=submitter = University of Tokyo Team (Faculty of Engineering, University of Tokyo)
MoNA Rating=3.75

>  <NUM PEAKS>  (354) 
41

>  <MASS SPECTRAL PEAKS>  (354) 
17 1.48
18 8.37
28 3.28
38 1.07
39 1.7
43 2.43
44 1.13
50 1.5
51 5.36
52 1.63
62 1.08
63 2.78
64 1.68
65 1.5
69 1.29
76 1.52
77 1.75
79 5.97
91 4.43
103 1.08
106 2.43
107 1.66
119 5.45
120 2.09
132 1.26
134 8.28
147 5.45
148 12.52
149 1.45
162 71.95
163 14.36
164 1.32
167 1.4
176 1.82
190 99.99
191 26.33
192 2.86
269 11.88
270 1.41
271 11.93
272 1.33

>  <PREDICTED SPECTRUM>  (354) 
15 2
33 28
37 112
38 181
39 259
40 90
41 143
42 51
43 61
44 70
48 6
49 58
50 305
51 381
52 198
53 234
54 113
55 56
56 4
57 4
58 46
59 14
61 135
62 246
63 347
64 261
65 209
66 126
67 110
68 45
69 22
70 8
74 102
75 180
76 233
77 417
78 222
79 163
80 112
81 51
82 97
83 39
87 99
88 71
89 184
90 185
91 134
92 189
93 125
94 74
95 38
96 21
101 29
102 132
103 48
104 152
105 121
106 144
107 100
108 86
116 51
117 55
118 157
119 244
120 173
121 111
122 61
123 2
128 16
130 0
131 49
132 193
133 165
134 212
135 54
146 59
147 139
148 201
149 147
150 46
160 49
161 23
162 456
163 111
175 49
190 999
191 310
192 110
226 37
240 1
269 262
270 81
271 259
272 59

$$$$

     RDKit          2D

 10 10  0  0  0  0  0  0  0  0999 V2000
    0.0005   -1.5008    0.0000 C   0  0  0  0  0  0  0  0  0  0  0  0
   -0.0005    1.5008    0.0000 C   0  0  0  0  0  0  0  0  0  0  0  0
   -1.2990   -0.7500    0.0000 C   0  0  0  0  0  0  0  0  0  0  0  0
    1.2995   -0.7508    0.0000 C   0  0  0  0  0  0  0  0  0  0  0  0
   -1.2995    0.7508    0.0000 C   0  0  0  0  0  0  0  0  0  0  0  0
    1.2990    0.7500    0.0000 C   0  0  0  0  0  0  0  0  0  0  0  0
   -2.5981   -1.5000    0.0000 O   0  0  0  0  0  0  0  0  0  0  0  0
    2.5987   -1.5006    0.0000 O   0  0  0  0  0  0  0  0  0  0  0  0
   -2.5987    1.5006    0.0000 O   0  0  0  0  0  0  0  0  0  0  0  0
    2.5981    1.5000    0.0000 O   0  0  0  0  0  0  0  0  0  0  0  0
  3  1  2  0
  4  1  1  0
  5  2  1  0
  5  3  1  0
  6  2  2  0
  6  4  1  0
  7  3  1  0
  8  4  2  0
  9  5  2  0
 10  6  1  0
M  END
>  <NAME>  (355) 
2,5-DIHYDROXY-1,4-BENZOQUINONE

>  <SYNONYMS>  (355) 
2,5-DIHYDROX-P-QUINONE

>  <SPECTRUM TYPE>  (355) 
MS1

>  <INSTRUMENT TYPE>  (355) 
EI-B

>  <INSTRUMENT>  (355) 
HITACHI M-2500

>  <ION MODE>  (355) 
P

>  <INCHIKEY>  (355) 
QFSYADJLNBHAKO-UHFFFAOYSA-N

>  <FORMULA>  (355) 
C6H4O4

>  <EXACT MASS>  (355) 
140.010958608

>  <MW>  (355) 
140

>  <ID>  (355) 
JP011644

>  <CONTRIBUTOR>  (355) 
University of Tokyo Team, {Faculty of Engineering, University of Tokyo

>  <COMMENT>  (355) 
SMILES=Oc(c1)c(=O)cc(O)c(=O)1
cas=615-94-1
InChI=InChI=1S/C6H4O4/c7-3-1-4(8)6(10)2-5(3)9/h1-2,7,10H
computed SMILES=O=C1C=C(O)C(=O)C=C1O
accession=JP011644
date=2016.01.19 (Created 2008.10.21, modified 2011.05.06)
author=YAMAMOTO M, DEP. CHEMISTRY, FAC. SCIENCE, NARA WOMEN'S UNIV.
license=CC BY-NC-SA
exact mass=140.01096
ionization energy=70 eV
ion type=[M]+*
computed spectral entropy=2.4125249655596916
computed normalized entropy=0.7591202334340444
SPLASH=splash10-0006-9600000000-28a6cd351da5ca55d6a8
submitter=submitter = University of Tokyo Team (Faculty of Engineering, University of Tokyo)
MoNA Rating=3.75

>  <NUM PEAKS>  (355) 
24

>  <MASS SPECTRAL PEAKS>  (355) 
14 1.96
15 1.04
18 3.01
29 2.48
37 1.3
38 3.84
39 2.01
41 8.22
42 25.7
43 8.66
53 8.3
55 3.39
66 6.8
69 24.31
70 12.82
71 24.27
84 10.11
94 5.24
95 2.77
111 1.01
112 6.57
140 99.99
141 8.35
142 4.39

>  <PREDICTED SPECTRUM>  (355) 
14 4
15 17
18 30
25 43
26 120
27 330
28 293
29 351
31 74
36 27
37 65
38 164
39 422
40 140
41 510
42 278
43 416
44 227
45 138
50 114
51 121
52 202
53 558
54 341
55 248
56 166
57 58
67 449
68 276
69 943
70 425
71 438
72 124
83 114
84 320
85 51
95 76
96 40
99 78
112 246
140 999
141 243
142 37

$$$$

     RDKit          2D

 21 22  0  0  0  0  0  0  0  0999 V2000
    5.8474   -0.3761    0.0000 C   0  0  0  0  0  0  0  0  0  0  0  0
   -0.6498    4.8766    0.0000 C   0  0  0  0  0  0  0  0  0  0  0  0
    4.5479    0.3747    0.0000 C   0  0  0  0  0  0  0  0  0  0  0  0
    0.6497    4.1257    0.0000 C   0  0  0  0  0  0  0  0  0  0  0  0
    7.1465    0.3739    0.0000 C   0  0  0  0  0  0  0  0  0  0  0  0
   -1.9489    4.1266    0.0000 C   0  0  0  0  0  0  0  0  0  0  0  0
    5.8465    2.6255    0.0000 C   0  0  0  0  0  0  0  0  0  0  0  0
   -0.6489    1.8749    0.0000 C   0  0  0  0  0  0  0  0  0  0  0  0
    4.5474    1.8755    0.0000 C   0  0  0  0  0  0  0  0  0  0  0  0
    0.6502    2.6249    0.0000 C   0  0  0  0  0  0  0  0  0  0  0  0
    7.1460    1.8747    0.0000 C   0  0  0  0  0  0  0  0  0  0  0  0
   -1.9484    2.6257    0.0000 C   0  0  0  0  0  0  0  0  0  0  0  0
    3.2483    2.6253    0.0000 N   0  0  0  0  0  0  0  0  0  0  0  0
    1.9493    1.8751    0.0000 N   0  0  0  0  0  0  0  0  0  0  0  0
    8.4450    2.6247    0.0000 N   0  0  0  0  0  0  0  0  0  0  0  0
   -3.2474    1.8757    0.0000 N   0  0  0  0  0  0  0  0  0  0  0  0
    1.9496    0.3751    0.0000 O   0  0  0  0  0  0  0  0  0  0  0  0
    9.7440    1.8747    0.0000 O   0  0  0  0  0  0  0  0  0  0  0  0
    8.4450    4.1247    0.0000 O   0  0  0  0  0  0  0  0  0  0  0  0
   -4.5465    2.6257    0.0000 O   0  0  0  0  0  0  0  0  0  0  0  0
   -3.2474    0.3757    0.0000 O   0  0  0  0  0  0  0  0  0  0  0  0
  3  1  2  0
  4  2  2  0
  5  1  1  0
  6  2  1  0
  9  3  1  0
  9  7  2  0
 10  4  1  0
 10  8  2  0
 11  5  2  0
 11  7  1  0
 12  6  2  0
 12  8  1  0
 13  9  1  0
 14 10  1  0
 13 14  2  0
 15 11  1  0
 16 12  1  0
 17 14  1  0
 18 15  1  0
 19 15  2  0
 20 16  1  0
 21 16  2  0
M  CHG  6  14   1  15   1  16   1  17  -1  18  -1  20  -1
M  END
>  <NAME>  (356) 
3,3'-DINITROAZOXYBENZENE

>  <SYNONYMS>  (356) 


>  <SPECTRUM TYPE>  (356) 
MS1

>  <INSTRUMENT TYPE>  (356) 
EI-B

>  <INSTRUMENT>  (356) 
HITACHI M-2500

>  <ION MODE>  (356) 
P

>  <INCHIKEY>  (356) 
XTUPRRZRWPZCTF-BUHFOSPRSA-N

>  <FORMULA>  (356) 
C12H8N4O5

>  <EXACT MASS>  (356) 
288.049469356

>  <MW>  (356) 
288

>  <ID>  (356) 
JP011643

>  <CONTRIBUTOR>  (356) 
University of Tokyo Team, {Faculty of Engineering, University of Tokyo

>  <COMMENT>  (356) 
SMILES=[O-1][N+1](=O)c(c2)cc(cc2)N=[N+1]([O-1])c(c1)cc(cc1)[N+1]([O-1])=O
InChI=InChI=1S/C12H8N4O5/c17-14(10-4-2-6-12(8-10)16(20)21)13-9-3-1-5-11(7-9)15(18)19/h1-8H/b14-13+
computed SMILES=O=N(=O)C=1C=CC=C(N=N(=O)C=2C=CC=C(C2)N(=O)=O)C1
computed InChI=InChI=1S/C12H8N4O5/c17-14(10-4-2-6-12(8-10)16(20)21)13-9-3-1-5-11(7-9)15(18)19/h1-8H/b14-13-
accession=JP011643
date=2016.01.19 (Created 2008.10.21, modified 2011.05.06)
author=YAMAMOTO M, DEP. CHEMISTRY, FAC. SCIENCE, NARA WOMEN'S UNIV.
license=CC BY-NC-SA
exact mass=288.04947
ionization energy=70 eV
ion type=[M]+*
computed spectral entropy=3.227277031126526
computed normalized entropy=0.7882280013519439
SPLASH=splash10-0fmu-9730000000-b350471bacf514f58632
submitter=submitter = University of Tokyo Team (Faculty of Engineering, University of Tokyo)
MoNA Rating=3.75

>  <NUM PEAKS>  (356) 
60

>  <MASS SPECTRAL PEAKS>  (356) 
27 1.28
28 1.26
30 5.83
37 1.02
38 2.33
39 15.43
50 17.3
51 8.8
52 4.58
53 1.39
62 2.26
63 28.45
64 17.53
65 4.26
66 1.11
74 4.42
75 35.43
76 37.63
77 5.17
78 5.08
79 3.3
80 2.23
90 35.05
91 5.47
92 44.04
93 3.81
94 1.36
106 4.76
107 1.12
110 3.44
120 1.11
121 6.5
122 99.99
123 7.13
127 1.01
128 1.23
138 9.89
139 6.05
140 3.91
149 2.54
150 49.56
151 4.51
152 7.55
153 1.13
155 1.01
165 1.06
166 8.89
167 2.85
168 3.42
195 1.04
196 1.03
214 1.85
242 3.01
258 4.8
260 1.35
272 5.34
287 9.5
288 86.6
289 13.3
290 1.79

>  <PREDICTED SPECTRUM>  (356) 
14 6
27 16
28 57
29 35
30 134
32 3
33 31
34 15
36 44
37 97
38 217
39 284
40 108
41 45
42 65
44 66
45 53
46 154
48 45
50 467
51 281
52 229
53 128
54 47
55 16
57 28
58 62
59 2
61 48
62 211
63 491
64 492
65 158
66 124
69 28
74 282
75 619
76 680
77 286
78 196
79 124
80 174
81 46
88 73
89 75
90 403
91 135
92 597
93 198
94 64
95 76
96 37
102 135
103 54
104 153
105 123
106 167
107 57
108 152
109 43
110 57
111 7
116 14
120 173
121 118
122 999
123 266
124 59
126 14
134 88
136 38
137 8
138 292
139 171
140 164
142 94
150 748
151 304
152 182
153 71
154 40
166 404
167 141
168 203
169 41
170 24
180 10
183 54
184 13
195 9
196 119
197 19
212 6
214 14
230 6
242 176
243 73
258 74
260 48
272 121
273 38
287 181
288 932
289 335
290 125
291 3

$$$$

     RDKit          2D

  9  9  0  0  0  0  0  0  0  0999 V2000
   -1.3000    0.7500    0.0000 C   0  0  0  0  0  0  0  0  0  0  0  0
    0.0000    1.5000    0.0000 C   0  0  0  0  0  0  0  0  0  0  0  0
   -0.0000   -1.5000    0.0000 C   0  0  0  0  0  0  0  0  0  0  0  0
   -1.3000   -0.7500    0.0000 C   0  0  0  0  0  0  0  0  0  0  0  0
    1.3000   -0.7500    0.0000 C   0  0  0  0  0  0  0  0  0  0  0  0
    1.3000    0.7500    0.0000 C   0  0  0  0  0  0  0  0  0  0  0  0
   -2.5989   -1.5002    0.0000 N   0  0  0  0  0  0  0  0  0  0  0  0
    2.5989   -1.5002    0.0000 N   0  0  0  0  0  0  0  0  0  0  0  0
    2.5989    1.5002    0.0000 O   0  0  0  0  0  0  0  0  0  0  0  0
  2  1  2  0
  4  1  1  0
  4  3  2  0
  5  3  1  0
  6  2  1  0
  6  5  2  0
  7  4  1  0
  8  5  1  0
  9  6  1  0
M  END
>  <NAME>  (357) 
2,4-DIAMINOPHENOL

>  <SYNONYMS>  (357) 
AMIDOL

>  <SPECTRUM TYPE>  (357) 
MS1

>  <INSTRUMENT TYPE>  (357) 
EI-B

>  <INSTRUMENT>  (357) 
HITACHI M-2500

>  <ION MODE>  (357) 
P

>  <INCHIKEY>  (357) 
XIWMTQIUUWJNRP-UHFFFAOYSA-N

>  <FORMULA>  (357) 
C6H8N2O

>  <EXACT MASS>  (357) 
124.063662876

>  <MW>  (357) 
124

>  <ID>  (357) 
JP011642

>  <CONTRIBUTOR>  (357) 
University of Tokyo Team, {Faculty of Engineering, University of Tokyo

>  <COMMENT>  (357) 
SMILES=C1=CC(=C(C=C1N)N)O
cas=95-86-3
pubchem cid=7266
InChI=InChI=1S/C6H8N2O/c7-4-1-2-6(9)5(8)3-4/h1-3,9H,7-8H2
computed SMILES=OC1=CC=C(N)C=C1N
accession=JP011642
date=2016.01.19 (Created 2008.10.21, modified 2011.05.06)
author=YAMAMOTO M, DEP. CHEMISTRY, FAC. SCIENCE, NARA WOMEN'S UNIV.
license=CC BY-NC-SA
exact mass=124.064
ionization energy=70 eV
ion type=[M]+*
computed spectral entropy=2.364158832279123
computed normalized entropy=0.7256257771032122
SPLASH=splash10-00di-8900000000-d0aeccc005bc4f79d8f8
submitter=submitter = University of Tokyo Team (Faculty of Engineering, University of Tokyo)
MoNA Rating=3.75

>  <NUM PEAKS>  (357) 
26

>  <MASS SPECTRAL PEAKS>  (357) 
18 4.34
28 3.19
35 3.12
36 27.51
37 1.02
38 9.02
39 1.6
40 1.48
41 3.9
42 2.42
48 1.09
51 2.31
52 9.08
53 3.08
54 1.86
62 3.69
67 2.26
68 2.11
78 3.76
79 13.56
80 3.09
95 12.85
96 8.03
123 28.19
124 99.99
125 7.59

>  <PREDICTED SPECTRUM>  (357) 
16 2
17 3
26 3
27 23
28 46
29 50
34 11
36 10
37 66
38 114
39 215
40 136
41 325
42 255
43 161
44 172
45 90
46 49
48 51
49 94
50 188
51 287
52 472
53 318
54 316
55 170
56 128
57 101
60 88
61 87
62 118
63 101
64 104
65 143
66 173
67 252
68 341
69 231
70 130
71 37
73 2
74 31
75 62
76 42
77 88
78 232
79 320
80 331
81 115
82 52
83 40
84 43
90 28
93 96
94 93
95 471
96 396
97 159
105 34
106 246
107 161
108 35
109 2
122 95
123 270
124 999
125 287
126 94

$$$$

     RDKit          2D

  4  3  0  0  0  0  0  0  0  0999 V2000
   -0.3248    1.3125    0.0000 C   0  0  0  0  0  0  0  0  0  0  0  0
    0.9743    0.5625    0.0000 N   0  0  0  0  0  0  0  0  0  0  0  0
   -1.6238    0.5625    0.0000 N   0  0  0  0  0  0  0  0  0  0  0  0
   -0.3248    2.8125    0.0000 O   0  0  0  0  0  0  0  0  0  0  0  0
  2  1  2  0
  3  1  1  0
  4  1  1  0
M  END
>  <NAME>  (358) 
UREA

>  <SYNONYMS>  (358) 


>  <SPECTRUM TYPE>  (358) 
MS1

>  <INSTRUMENT TYPE>  (358) 
EI-B

>  <INSTRUMENT>  (358) 
HITACHI M-2500

>  <ION MODE>  (358) 
P

>  <INCHIKEY>  (358) 
XSQUKJJJFZCRTK-UHFFFAOYSA-N

>  <FORMULA>  (358) 
CH4N2O

>  <EXACT MASS>  (358) 
60.032362748

>  <MW>  (358) 
60

>  <ID>  (358) 
JP011641

>  <CONTRIBUTOR>  (358) 
University of Tokyo Team, {Faculty of Engineering, University of Tokyo

>  <COMMENT>  (358) 
SMILES=NC(N)=O
cas=57-13-6
InChI=InChI=1S/CH4N2O/c2-1(3)4/h(H4,2,3,4)
computed SMILES=N=C(O)N
license=CC BY-NC-SA
accession=JP011641
date=2016.01.19 (Created 2008.10.21, modified 2011.05.06)
author=YAMAMOTO M, DEP. CHEMISTRY, FAC. SCIENCE, NARA WOMEN'S UNIV.
exact mass=60.03236
ionization energy=70 eV
ion type=[M]+*
computed spectral entropy=1.8028939917683053
computed normalized entropy=0.683158327610543
SPLASH=splash10-02tc-9000000000-d69da17ffbb84fb6bdca
submitter=submitter = University of Tokyo Team (Faculty of Engineering, University of Tokyo)
MoNA Rating=3.75

>  <NUM PEAKS>  (358) 
14

>  <MASS SPECTRAL PEAKS>  (358) 
16 11.08
17 52.82
18 46.68
27 1.02
28 2.49
29 2.13
31 2.1
41 1.28
42 3.02
43 11.23
44 69.84
45 1.3
60 99.99
61 4.14

>  <PREDICTED SPECTRUM>  (358) 
14 22
15 24
16 67
17 60
18 4
33 167
40 7
41 166
42 438
43 999
44 755
45 272
46 139
57 39
58 24
60 951
61 152
62 21

$$$$

     RDKit          2D

 18 20  0  0  0  0  0  0  0  0999 V2000
    3.9000    0.7500    0.0000 C   0  0  0  0  0  0  0  0  0  0  0  0
   -3.9000   -0.7500    0.0000 C   0  0  0  0  0  0  0  0  0  0  0  0
    2.6000    1.5000    0.0000 C   0  0  0  0  0  0  0  0  0  0  0  0
   -2.6000   -1.5000    0.0000 C   0  0  0  0  0  0  0  0  0  0  0  0
    2.6000   -1.5000    0.0000 C   0  0  0  0  0  0  0  0  0  0  0  0
   -2.6000    1.5000    0.0000 C   0  0  0  0  0  0  0  0  0  0  0  0
    3.9000   -0.7500    0.0000 C   0  0  0  0  0  0  0  0  0  0  0  0
   -3.9000    0.7500    0.0000 C   0  0  0  0  0  0  0  0  0  0  0  0
    1.3000    0.7500    0.0000 C   0  0  0  0  0  0  0  0  0  0  0  0
   -1.3000   -0.7500    0.0000 C   0  0  0  0  0  0  0  0  0  0  0  0
    1.3000   -0.7500    0.0000 C   0  0  0  0  0  0  0  0  0  0  0  0
   -1.3000    0.7500    0.0000 C   0  0  0  0  0  0  0  0  0  0  0  0
   -0.0000    1.5000    0.0000 C   0  0  0  0  0  0  0  0  0  0  0  0
   -0.0000   -1.5000    0.0000 C   0  0  0  0  0  0  0  0  0  0  0  0
    5.1989   -1.5002    0.0000 N   0  0  0  0  0  0  0  0  0  0  0  0
   -5.1989    1.5002    0.0000 N   0  0  0  0  0  0  0  0  0  0  0  0
    0.0000    3.0000    0.0000 O   0  0  0  0  0  0  0  0  0  0  0  0
   -0.0000   -3.0000    0.0000 O   0  0  0  0  0  0  0  0  0  0  0  0
  3  1  2  0
  4  2  1  0
  7  1  1  0
  7  5  2  0
  8  2  2  0
  8  6  1  0
  9  3  1  0
 10  4  2  0
 11  5  1  0
 11  9  2  0
 12  6  2  0
 12 10  1  0
 13  9  1  0
 13 12  1  0
 14 10  1  0
 14 11  1  0
 15  7  1  0
 16  8  1  0
 17 13  2  0
 18 14  2  0
M  END
>  <NAME>  (359) 
2,6-DIAMINOANTHRAQUINONE

>  <SYNONYMS>  (359) 


>  <SPECTRUM TYPE>  (359) 
MS1

>  <INSTRUMENT TYPE>  (359) 
EI-B

>  <INSTRUMENT>  (359) 
HITACHI M-2500

>  <ION MODE>  (359) 
P

>  <INCHIKEY>  (359) 
WQOWBWVMZPPPGX-UHFFFAOYSA-N

>  <FORMULA>  (359) 
C14H10N2O2

>  <EXACT MASS>  (359) 
238.07422756

>  <MW>  (359) 
238

>  <ID>  (359) 
JP011640

>  <CONTRIBUTOR>  (359) 
University of Tokyo Team, {Faculty of Engineering, University of Tokyo

>  <COMMENT>  (359) 
SMILES=Nc(c3)cc(c(=O)1)c(c3)c(=O)c(c2)c(ccc(N)2)1
cas=131-14-6
InChI=InChI=1S/C14H10N2O2/c15-7-1-3-9-11(5-7)14(18)10-4-2-8(16)6-12(10)13(9)17/h1-6H,15-16H2
computed SMILES=O=C1C2=CC=C(N)C=C2C(=O)C3=CC=C(N)C=C13
accession=JP011640
date=2016.01.19 (Created 2008.10.21, modified 2011.05.06)
author=YAMAMOTO M, DEP. CHEMISTRY, FAC. SCIENCE, NARA WOMEN'S UNIV.
license=CC BY-NC-SA
exact mass=238.07423
ionization energy=70 eV
ion type=[M]+*
computed spectral entropy=3.075920974336568
computed normalized entropy=0.7641372010838667
SPLASH=splash10-00xr-2980000000-2159cbbbb4d67a838113
submitter=submitter = University of Tokyo Team (Faculty of Engineering, University of Tokyo)
MoNA Rating=3.75

>  <NUM PEAKS>  (359) 
56

>  <MASS SPECTRAL PEAKS>  (359) 
50 1.66
51 1.5
52 1.32
62 1.53
63 3.48
64 1.42
70 1.35
71 1.66
75 1.57
76 2.39
77 2.6
82 1.19
83 1
84 9.88
89 1.92
90 1.26
91 1.65
97 3.76
105 1.5
113 1.69
114 1.58
115 2.48
126 1.6
127 1.36
128 1.11
139 15.62
140 6.77
141 2.68
151 1.42
152 1.71
154 2.41
164 1.67
165 1.34
166 10.95
167 30.01
168 19.92
169 33.19
170 4.51
180 1.48
181 1.79
182 2.78
194 8.15
195 20
196 3.22
203 1.44
208 1.35
209 1.42
210 4.65
220 1.86
222 6.88
223 99.99
224 15.82
225 1.47
237 4.26
238 25.32
239 4.85

>  <PREDICTED SPECTRUM>  (359) 
39 65
40 23
41 79
43 27
44 67
45 4
50 64
51 122
52 141
53 60
54 4
55 19
61 31
62 50
63 128
64 65
65 57
66 18
67 29
69 10
71 17
74 51
75 88
76 101
77 156
78 119
79 135
80 46
81 21
82 17
83 26
86 0
87 10
88 6
89 39
90 90
91 163
92 40
93 17
95 13
97 16
98 43
99 34
100 12
102 42
103 39
104 55
105 137
106 85
107 46
108 24
111 13
112 1
117 13
118 44
119 61
124 9
125 55
126 79
127 23
128 28
130 17
132 29
133 69
134 26
135 8
137 30
138 8
151 7
152 68
153 156
154 168
155 90
156 51
157 1
162 4
163 18
164 88
165 47
166 2
167 13
180 36
181 160
182 237
183 86
184 26
192 7
193 25
194 24
208 11
209 159
210 303
211 138
212 16
223 20
236 13
237 182
238 999
239 431
240 137
241 15

$$$$

     RDKit          2D

 18 20  0  0  0  0  0  0  0  0999 V2000
    3.9000    0.7500    0.0000 C   0  0  0  0  0  0  0  0  0  0  0  0
   -3.9000   -0.7500    0.0000 C   0  0  0  0  0  0  0  0  0  0  0  0
    2.6000    1.5000    0.0000 C   0  0  0  0  0  0  0  0  0  0  0  0
   -2.6000   -1.5000    0.0000 C   0  0  0  0  0  0  0  0  0  0  0  0
    3.9000   -0.7500    0.0000 C   0  0  0  0  0  0  0  0  0  0  0  0
   -3.9000    0.7500    0.0000 C   0  0  0  0  0  0  0  0  0  0  0  0
    1.3000    0.7500    0.0000 C   0  0  0  0  0  0  0  0  0  0  0  0
   -1.3000   -0.7500    0.0000 C   0  0  0  0  0  0  0  0  0  0  0  0
    2.6000   -1.5000    0.0000 C   0  0  0  0  0  0  0  0  0  0  0  0
   -2.6000    1.5000    0.0000 C   0  0  0  0  0  0  0  0  0  0  0  0
    1.3000   -0.7500    0.0000 C   0  0  0  0  0  0  0  0  0  0  0  0
   -1.3000    0.7500    0.0000 C   0  0  0  0  0  0  0  0  0  0  0  0
   -0.0000    1.5000    0.0000 C   0  0  0  0  0  0  0  0  0  0  0  0
   -0.0000   -1.5000    0.0000 C   0  0  0  0  0  0  0  0  0  0  0  0
    2.6000   -3.0000    0.0000 N   0  0  0  0  0  0  0  0  0  0  0  0
   -2.6000    3.0000    0.0000 N   0  0  0  0  0  0  0  0  0  0  0  0
    0.0000    3.0000    0.0000 O   0  0  0  0  0  0  0  0  0  0  0  0
   -0.0000   -3.0000    0.0000 O   0  0  0  0  0  0  0  0  0  0  0  0
  3  1  2  0
  4  2  2  0
  5  1  1  0
  6  2  1  0
  7  3  1  0
  8  4  1  0
  9  5  2  0
 10  6  2  0
 11  7  2  0
 11  9  1  0
 12  8  2  0
 12 10  1  0
 13  7  1  0
 13 12  1  0
 14  8  1  0
 14 11  1  0
 15  9  1  0
 16 10  1  0
 17 13  2  0
 18 14  2  0
M  END
>  <NAME>  (360) 
1,5-DIAMINOANTHRAQUINONE

>  <SYNONYMS>  (360) 


>  <SPECTRUM TYPE>  (360) 
MS1

>  <INSTRUMENT TYPE>  (360) 
EI-B

>  <INSTRUMENT>  (360) 
HITACHI M-2500

>  <ION MODE>  (360) 
P

>  <INCHIKEY>  (360) 
VWBVCOPVKXNMMZ-UHFFFAOYSA-N

>  <FORMULA>  (360) 
C14H10N2O2

>  <EXACT MASS>  (360) 
238.07422756

>  <MW>  (360) 
238

>  <ID>  (360) 
JP011639

>  <CONTRIBUTOR>  (360) 
University of Tokyo Team, {Faculty of Engineering, University of Tokyo

>  <COMMENT>  (360) 
SMILES=Nc(c3)c(c(=O)1)c(cc3)c(=O)c(c(N)2)c(ccc2)1
cas=129-44-2
InChI=InChI=1S/C14H10N2O2/c15-9-5-1-3-7-11(9)14(18)8-4-2-6-10(16)12(8)13(7)17/h1-6H,15-16H2
computed SMILES=O=C1C=2C=CC=C(N)C2C(=O)C=3C=CC=C(N)C13
accession=JP011639
date=2016.01.19 (Created 2008.10.21, modified 2011.05.06)
author=YAMAMOTO M, DEP. CHEMISTRY, FAC. SCIENCE, NARA WOMEN'S UNIV.
license=CC BY-NC-SA
exact mass=238.07423
ionization energy=70 eV
ion type=[M]+*
computed spectral entropy=2.7710993440565237
computed normalized entropy=0.7237813775397328
SPLASH=splash10-000i-1290000000-194169a42399982b4a85
submitter=submitter = University of Tokyo Team (Faculty of Engineering, University of Tokyo)
MoNA Rating=3.75

>  <NUM PEAKS>  (360) 
46

>  <MASS SPECTRAL PEAKS>  (360) 
17 1.96
18 10.23
28 2.44
39 1.15
44 1
63 2.49
64 1.81
65 1.76
75 1.21
76 1.3
77 3.59
78 1.6
84 1.6
90 1.33
91 3.34
92 1.42
119 4.15
126 1.06
127 2.71
128 1.49
138 1.66
139 4.2
140 2.26
153 1.11
154 5.4
155 1.82
164 1.93
165 1.93
166 2.92
167 4.27
168 1.63
181 5.1
182 5.13
184 1.18
194 1.13
195 4.3
209 2.84
210 10.65
211 2.04
222 3.37
223 31.05
224 4.91
237 4.43
238 99.99
239 21.38
240 3.19

>  <PREDICTED SPECTRUM>  (360) 
27 2
28 1
38 23
39 69
40 24
41 62
42 2
43 61
44 79
45 3
49 5
50 89
51 128
52 134
53 83
54 63
55 24
56 6
57 39
58 22
59 5
60 8
61 37
62 106
63 191
64 130
65 120
66 37
67 33
68 29
69 65
70 35
71 58
73 12
74 107
75 166
76 163
77 140
78 89
79 92
80 77
81 22
82 45
83 57
84 31
85 17
86 28
87 20
88 42
89 125
90 145
91 156
92 150
93 48
94 34
95 32
96 45
97 40
98 65
99 72
100 84
101 64
102 103
103 50
104 59
105 47
106 46
107 5
108 61
109 13
110 37
111 33
112 43
113 76
114 1
115 15
117 54
118 97
119 93
120 105
124 24
125 75
126 137
127 107
128 84
129 47
130 27
133 26
134 48
135 29
136 14
137 55
138 134
139 107
140 80
143 43
144 13
145 18
146 22
151 13
152 54
153 164
154 191
155 132
156 71
163 37
164 142
165 126
166 86
167 50
169 2
180 20
181 181
182 230
183 92
184 56
191 47
192 99
193 90
194 27
195 21
209 194
210 236
211 128
212 30
221 42
222 67
223 48
224 34
237 246
238 999
239 407
240 149
241 20

$$$$

     RDKit          2D

 18 20  0  0  0  0  0  0  0  0999 V2000
    3.9000    0.7500    0.0000 C   0  0  0  0  0  0  0  0  0  0  0  0
   -3.9000   -0.7500    0.0000 C   0  0  0  0  0  0  0  0  0  0  0  0
    2.6000    1.5000    0.0000 C   0  0  0  0  0  0  0  0  0  0  0  0
   -2.6000   -1.5000    0.0000 C   0  0  0  0  0  0  0  0  0  0  0  0
    3.9000   -0.7500    0.0000 C   0  0  0  0  0  0  0  0  0  0  0  0
   -3.9000    0.7500    0.0000 C   0  0  0  0  0  0  0  0  0  0  0  0
    1.3000    0.7500    0.0000 C   0  0  0  0  0  0  0  0  0  0  0  0
   -1.3000   -0.7500    0.0000 C   0  0  0  0  0  0  0  0  0  0  0  0
    2.6000   -1.5000    0.0000 C   0  0  0  0  0  0  0  0  0  0  0  0
   -2.6000    1.5000    0.0000 C   0  0  0  0  0  0  0  0  0  0  0  0
    1.3000   -0.7500    0.0000 C   0  0  0  0  0  0  0  0  0  0  0  0
   -1.3000    0.7500    0.0000 C   0  0  0  0  0  0  0  0  0  0  0  0
   -0.0000    1.5000    0.0000 C   0  0  0  0  0  0  0  0  0  0  0  0
   -0.0000   -1.5000    0.0000 C   0  0  0  0  0  0  0  0  0  0  0  0
    2.6000   -3.0000    0.0000 O   0  0  0  0  0  0  0  0  0  0  0  0
   -2.6000    3.0000    0.0000 O   0  0  0  0  0  0  0  0  0  0  0  0
    0.0000    3.0000    0.0000 O   0  0  0  0  0  0  0  0  0  0  0  0
   -0.0000   -3.0000    0.0000 O   0  0  0  0  0  0  0  0  0  0  0  0
  3  1  2  0
  4  2  2  0
  5  1  1  0
  6  2  1  0
  7  3  1  0
  8  4  1  0
  9  5  2  0
 10  6  2  0
 11  7  2  0
 11  9  1  0
 12  8  2  0
 12 10  1  0
 13  7  1  0
 13 12  1  0
 14  8  1  0
 14 11  1  0
 15  9  1  0
 16 10  1  0
 17 13  2  0
 18 14  2  0
M  END
>  <NAME>  (361) 
1,5-DIHYDROXYANTHRAQUINONE

>  <SYNONYMS>  (361) 
ANTHRARUFIN

>  <SPECTRUM TYPE>  (361) 
MS1

>  <INSTRUMENT TYPE>  (361) 
EI-B

>  <INSTRUMENT>  (361) 
HITACHI M-2500

>  <ION MODE>  (361) 
P

>  <INCHIKEY>  (361) 
JPICKYUTICNNNJ-UHFFFAOYSA-N

>  <FORMULA>  (361) 
C14H8O4

>  <EXACT MASS>  (361) 
240.042258736

>  <MW>  (361) 
240

>  <ID>  (361) 
JP011638

>  <CONTRIBUTOR>  (361) 
University of Tokyo Team, {Faculty of Engineering, University of Tokyo

>  <COMMENT>  (361) 
SMILES=Oc(c3)c(c(=O)1)c(cc3)c(=O)c(c(O)2)c(ccc2)1
cas=117-12-4
InChI=InChI=1S/C14H8O4/c15-9-5-1-3-7-11(9)14(18)8-4-2-6-10(16)12(8)13(7)17/h1-6,15-16H
computed SMILES=O=C1C=2C=CC=C(O)C2C(=O)C=3C=CC=C(O)C13
accession=JP011638
date=2016.01.19 (Created 2008.10.21, modified 2011.05.06)
author=YAMAMOTO M, DEP. CHEMISTRY, FAC. SCIENCE, NARA WOMEN'S UNIV.
license=CC BY-NC-SA
exact mass=240.04226
ionization energy=70 eV
ion type=[M]+*
computed spectral entropy=2.285837328458854
computed normalized entropy=0.6537487159044336
SPLASH=splash10-0006-1290000000-4c1d7a2a5cad384d8ba3
submitter=submitter = University of Tokyo Team (Faculty of Engineering, University of Tokyo)
MoNA Rating=3.75

>  <NUM PEAKS>  (361) 
33

>  <MASS SPECTRAL PEAKS>  (361) 
39 1.2
51 1.81
62 1.26
63 3.35
64 2.31
75 1.46
77 1.26
91 1.2
92 6.26
101 1.04
102 1.57
119 1.57
120 3.93
121 1.1
126 1.32
127 2.85
128 4.25
138 3.12
139 1.58
155 4.24
156 1.53
183 1.02
184 10.87
185 1.42
211 1.43
212 8.79
213 1.23
223 5.97
224 2.39
239 5.94
240 99.99
241 15.87
242 1.93

>  <PREDICTED SPECTRUM>  (361) 
26 7
37 52
38 85
39 147
40 44
41 6
43 46
44 75
45 94
50 181
51 148
52 105
53 154
54 74
55 107
56 86
57 70
58 129
59 34
60 46
61 80
62 183
63 315
64 223
65 173
66 85
67 23
68 28
69 226
70 76
71 115
73 81
74 196
75 207
76 150
77 120
78 80
79 109
80 52
81 112
82 127
83 97
84 83
85 115
86 113
87 127
88 41
89 71
90 53
91 182
92 330
93 208
94 78
95 23
97 43
98 49
99 122
100 103
101 97
102 78
103 126
104 94
105 92
107 44
108 134
109 68
110 78
111 84
112 53
113 119
114 16
115 83
118 12
119 149
120 299
121 286
125 46
126 110
127 152
128 128
129 70
130 11
131 37
134 0
136 115
137 113
138 195
139 249
140 63
141 9
152 60
153 68
154 48
155 163
156 165
157 90
158 80
165 43
166 99
167 47
182 84
183 365
184 406
185 114
186 64
194 172
195 22
211 172
212 378
213 143
214 17
223 34
239 165
240 999
241 383
242 148

$$$$

     RDKit          2D

 27 29  0  0  1  0  0  0  0  0999 V2000
   -5.0589   -1.5802    0.0000 C   0  0  0  0  0  0  0  0  0  0  0  0
   -5.0589    1.4202    0.0000 C   0  0  0  0  0  0  0  0  0  0  0  0
   -2.4600   -1.5800    0.0000 C   0  0  0  0  0  0  0  0  0  0  0  0
   -2.4600    1.4200    0.0000 C   0  0  0  0  0  0  0  0  0  0  0  0
    0.1400    2.9200    0.0000 C   0  0  0  0  0  0  0  0  0  0  0  0
    2.7381    7.4200    0.0000 C   0  0  0  0  0  0  0  0  0  0  0  0
   -3.7600   -0.8300    0.0000 C   0  0  0  0  0  0  0  0  0  0  0  0
   -3.7600    0.6700    0.0000 C   0  0  0  0  0  0  0  0  0  0  0  0
   -1.1600   -0.8300    0.0000 C   0  0  0  0  0  0  0  0  0  0  0  0
   -1.1600    0.6700    0.0000 C   0  0  0  0  0  0  0  0  0  0  0  0
    1.4390    3.6700    0.0000 C   0  0  0  0  0  0  0  0  0  0  0  0
    2.7381    5.9200    0.0000 C   0  0  0  0  0  0  0  0  0  0  0  0
    1.4400   -0.8300    0.0000 C   0  0  0  0  0  0  0  0  0  0  0  0
    1.4390    5.1700    0.0000 C   0  0  0  0  0  0  0  0  0  0  0  0
    1.4400    0.6700    0.0000 C   0  0  0  0  0  0  0  0  0  0  0  0
    2.7300   -1.5800    0.0000 C   0  0  0  0  0  0  0  0  0  0  0  0
    4.0300    0.6700    0.0000 C   0  0  0  0  0  0  0  0  0  0  0  0
    0.1400   -1.5800    0.0000 N   0  0  0  0  0  0  0  0  0  0  0  0
    2.7300    1.4200    0.0000 N   0  0  0  0  0  0  0  0  0  0  0  0
    4.0300   -0.8300    0.0000 N   0  0  0  0  0  0  0  0  0  0  0  0
    0.1400    1.4200    0.0000 N   0  0  0  0  0  0  0  0  0  0  0  0
    4.0371    8.1700    0.0000 O   0  0  0  0  0  0  0  0  0  0  0  0
    2.7381    2.9200    0.0000 O   0  0  0  0  0  0  0  0  0  0  0  0
    4.0371    5.1700    0.0000 O   0  0  0  0  0  0  0  0  0  0  0  0
    0.1400    5.9200    0.0000 O   0  0  0  0  0  0  0  0  0  0  0  0
    2.7275   -3.0800    0.0000 O   0  0  0  0  0  0  0  0  0  0  0  0
    5.3289    1.4202    0.0000 O   0  0  0  0  0  0  0  0  0  0  0  0
  7  1  1  0
  7  3  2  0
  8  2  1  0
  8  4  2  0
  8  7  1  0
  9  3  1  0
 10  4  1  0
 10  9  2  0
 11  5  1  0
 12  6  1  0
 14 11  1  0
 14 12  1  0
 15 13  1  0
 16 13  1  0
 18  9  1  0
 18 13  2  0
 19 15  2  0
 19 17  1  0
 20 16  2  0
 20 17  1  0
 21  5  1  0
 21 10  1  0
 21 15  1  0
 22  6  1  0
 11 23  1  1
 12 24  1  1
 14 25  1  6
 26 16  1  0
 27 17  2  0
M  END
>  <NAME>  (362) 
(-)-RIBOFLAVIN

>  <SYNONYMS>  (362) 
VITAMIN B2

>  <SPECTRUM TYPE>  (362) 
MS1

>  <INSTRUMENT TYPE>  (362) 
EI-B

>  <INSTRUMENT>  (362) 
HITACHI M-2500

>  <ION MODE>  (362) 
P

>  <INCHIKEY>  (362) 
AUNGANRZJHBGPY-SCRDCRAPSA-N

>  <FORMULA>  (362) 
C17H20N4O6

>  <EXACT MASS>  (362) 
376.13828435999994

>  <MW>  (362) 
376

>  <ID>  (362) 
JP011637

>  <CONTRIBUTOR>  (362) 
University of Tokyo Team, {Faculty of Engineering, University of Tokyo

>  <COMMENT>  (362) 
SMILES=OCC([H])(O)C([H])(O)C([H])(O)CN(c21)C(=N3)C(C(=O)NC(=O)3)=Nc(cc(C)c(C)c2)1
cas=83-88-5
InChI=InChI=1S/C17H20N4O6/c1-7-3-9-10(4-8(7)2)21(5-11(23)14(25)12(24)6-22)15-13(18-9)16(26)20-17(27)19-15/h3-4,11-12,14,22-25H,5-6H2,1-2H3,(H,20,26,27)/t11-,12+,14-/m0/s1
computed SMILES=O=C1N=C(O)C2=NC3=CC(=C(C=C3N(C2=N1)CC(O)C(O)C(O)CO)C)C
accession=JP011637
date=2016.01.19 (Created 2008.10.21, modified 2011.05.06)
author=YAMAMOTO M, DEP. CHEMISTRY, FAC. SCIENCE, NARA WOMEN'S UNIV.
license=CC BY-NC-SA
exact mass=376.13828
ionization energy=70 eV
ion type=[M]+*
computed spectral entropy=4.164063612260296
computed normalized entropy=0.8451084271962833
SPLASH=splash10-006x-4980000000-dd278a577316361d270a
submitter=submitter = University of Tokyo Team (Faculty of Engineering, University of Tokyo)
MoNA Rating=3.75

>  <NUM PEAKS>  (362) 
138

>  <MASS SPECTRAL PEAKS>  (362) 
15 1.42
17 1.77
18 8.72
27 3.39
28 3.11
29 3.24
31 2.42
39 5.23
40 1.16
41 2.59
42 2.5
43 6.64
44 14.65
45 2.76
50 1.73
51 3.97
52 2.43
53 2.32
54 1.09
55 1.8
56 2.29
57 2.32
58 1.09
60 1.39
61 1.69
63 2.58
64 1.8
65 3.15
66 1.31
68 1.15
69 1.91
70 2.05
73 1.6
74 2.43
75 2.07
76 2.5
77 6.32
78 2.7
79 1.61
81 1.6
85 1.09
86 2.01
88 1.01
89 3.33
90 2.43
91 4.73
92 1.32
98 1.31
99 1.97
100 1.28
101 1.71
102 3.93
103 6.4
104 3.32
105 1.29
114 1.83
115 1.83
116 7.22
117 3.66
118 3.18
121 1.62
128 2.96
129 3.22
130 5.91
131 5.79
132 1.58
141 1.54
142 1.8
143 3.6
144 3.37
145 4.93
146 2.85
147 1.53
155 1.18
156 26.5
157 8.07
158 5.91
159 6.64
160 2.54
161 1.18
169 1.81
170 19.44
171 49.16
172 13.93
173 5.74
174 10.98
175 3.52
182 1.05
183 1.22
184 3.93
185 9.21
186 3.1
187 3.25
188 3.24
189 2.96
196 1.65
197 4.96
198 5.64
199 5.54
200 2
201 2.02
210 1.15
211 1.94
212 2.36
213 21.2
214 5.01
215 1.48
216 2.58
217 9.99
218 3.92
219 1.02
225 1.33
226 1.78
227 3.29
228 2.5
229 1.2
230 1.93
231 1.56
239 1.21
240 1.97
241 3.28
242 99.99
243 19.4
244 3.1
245 7.09
246 1.29
254 1.48
255 1.32
256 38.02
257 7.67
258 4.76
259 1.75
270 1.44
291 1.07
333 2.2
343 4.26
344 1.07
361 2.93

>  <PREDICTED SPECTRUM>  (362) 
39 44
40 27
41 98
42 270
43 912
44 88
45 121
51 46
52 35
53 74
55 52
56 17
57 26
60 319
61 218
62 12
63 79
65 50
69 25
73 12
74 68
76 35
77 138
78 51
79 31
88 71
89 3
90 52
91 213
92 20
102 11
103 122
116 70
128 41
129 88
130 151
131 58
140 65
142 148
143 150
144 412
147 54
155 19
156 204
157 160
158 13
168 69
170 188
171 308
172 289
184 127
185 61
197 67
198 288
199 452
200 100
213 429
214 479
227 252
228 213
242 661
243 767
244 18
256 999
257 324
272 39
285 331
286 76
315 177
316 267
317 78
358 63
359 25
376 366
377 144

$$$$

     RDKit          2D

 11 11  0  0  0  0  0  0  0  0999 V2000
    2.5987    3.0002    0.0000 C   0  0  0  0  0  0  0  0  0  0  0  0
   -1.3000    0.7500    0.0000 C   0  0  0  0  0  0  0  0  0  0  0  0
    0.0000    1.5000    0.0000 C   0  0  0  0  0  0  0  0  0  0  0  0
   -0.0000   -1.5000    0.0000 C   0  0  0  0  0  0  0  0  0  0  0  0
    2.5989    1.5002    0.0000 C   0  0  0  0  0  0  0  0  0  0  0  0
   -1.3000   -0.7500    0.0000 C   0  0  0  0  0  0  0  0  0  0  0  0
    1.3000    0.7500    0.0000 C   0  0  0  0  0  0  0  0  0  0  0  0
    1.3000   -0.7500    0.0000 C   0  0  0  0  0  0  0  0  0  0  0  0
    3.8981    0.7504    0.0000 O   0  0  0  0  0  0  0  0  0  0  0  0
   -2.5989   -1.5002    0.0000 O   0  0  0  0  0  0  0  0  0  0  0  0
    2.5989   -1.5002    0.0000 O   0  0  0  0  0  0  0  0  0  0  0  0
  3  2  2  0
  5  1  1  0
  6  2  1  0
  6  4  2  0
  7  3  1  0
  7  5  1  0
  8  4  1  0
  8  7  2  0
  9  5  2  0
 10  6  1  0
 11  8  1  0
M  END
>  <NAME>  (363) 
2',4'-DIHYDROXYACETOPHENONE

>  <SYNONYMS>  (363) 


>  <SPECTRUM TYPE>  (363) 
MS1

>  <INSTRUMENT TYPE>  (363) 
EI-B

>  <INSTRUMENT>  (363) 
HITACHI M-2500

>  <ION MODE>  (363) 
P

>  <INCHIKEY>  (363) 
SULYEHHGGXARJS-UHFFFAOYSA-N

>  <FORMULA>  (363) 
C8H8O3

>  <EXACT MASS>  (363) 
152.04734411599998

>  <MW>  (363) 
152

>  <ID>  (363) 
JP011636

>  <CONTRIBUTOR>  (363) 
University of Tokyo Team, {Faculty of Engineering, University of Tokyo

>  <COMMENT>  (363) 
SMILES=CC(=O)c(c1)c(O)cc(O)c1
cas=89-84-9
InChI=InChI=1S/C8H8O3/c1-5(9)7-3-2-6(10)4-8(7)11/h2-4,10-11H,1H3
computed SMILES=O=C(C1=CC=C(O)C=C1O)C
accession=JP011636
date=2016.01.19 (Created 2008.10.21, modified 2011.05.06)
author=YAMAMOTO M, DEP. CHEMISTRY, FAC. SCIENCE, NARA WOMEN'S UNIV.
license=CC BY-NC-SA
exact mass=152.04734
ionization energy=70 eV
ion type=[M]+*
computed spectral entropy=1.927974536908131
computed normalized entropy=0.6066525741312093
SPLASH=splash10-0f79-2900000000-647d0e62b5caf8adccc9
submitter=submitter = University of Tokyo Team (Faculty of Engineering, University of Tokyo)
MoNA Rating=3.75

>  <NUM PEAKS>  (363) 
24

>  <MASS SPECTRAL PEAKS>  (363) 
18 1.72
27 2.57
38 1.05
39 2.93
42 1.21
43 6.98
44 1
50 1.39
51 2.96
52 1.77
53 3.96
55 1.82
62 1.78
63 1.84
69 5.77
77 1.29
81 8.66
108 1.28
109 2.85
123 1.15
137 99.99
138 7.88
152 53.06
153 4.88

>  <PREDICTED SPECTRUM>  (363) 
14 10
15 58
26 11
27 29
28 29
29 35
37 60
38 107
39 204
40 84
41 131
42 64
43 481
44 32
45 13
49 12
50 141
51 219
52 161
53 269
54 100
55 137
61 86
62 121
63 174
64 87
65 169
66 149
67 128
68 82
69 177
74 12
75 22
76 35
77 178
78 125
79 125
80 81
81 253
82 121
83 17
92 8
93 65
94 57
95 100
105 141
106 36
107 9
108 85
109 279
110 145
111 17
122 7
123 80
134 79
135 162
136 89
137 999
138 329
139 114
151 125
152 715
153 239
154 75

$$$$

     RDKit          2D

 16 17  0  0  0  0  0  0  0  0999 V2000
   -0.0000   -1.9300    0.0000 C   0  0  0  0  0  0  0  0  0  0  0  0
    3.8971    4.8200    0.0000 C   0  0  0  0  0  0  0  0  0  0  0  0
    1.3000   -1.1800    0.0000 C   0  0  0  0  0  0  0  0  0  0  0  0
   -1.3000   -1.1800    0.0000 C   0  0  0  0  0  0  0  0  0  0  0  0
    2.5976    5.5708    0.0000 C   0  0  0  0  0  0  0  0  0  0  0  0
    3.8976    3.3192    0.0000 C   0  0  0  0  0  0  0  0  0  0  0  0
    1.3000    0.3200    0.0000 C   0  0  0  0  0  0  0  0  0  0  0  0
   -1.3000    0.3200    0.0000 C   0  0  0  0  0  0  0  0  0  0  0  0
    1.2986    4.8208    0.0000 C   0  0  0  0  0  0  0  0  0  0  0  0
    2.5986    2.5692    0.0000 C   0  0  0  0  0  0  0  0  0  0  0  0
   -0.0000    1.0700    0.0000 C   0  0  0  0  0  0  0  0  0  0  0  0
    1.2990    3.3200    0.0000 C   0  0  0  0  0  0  0  0  0  0  0  0
    0.0000    2.5700    0.0000 C   0  0  0  0  0  0  0  0  0  0  0  0
   -1.2990    3.3200    0.0000 C   0  0  0  0  0  0  0  0  0  0  0  0
   -2.5981    2.5700    0.0000 O   0  0  0  0  0  0  0  0  0  0  0  0
   -1.2990    4.8200    0.0000 O   0  0  0  0  0  0  0  0  0  0  0  0
  3  1  2  0
  4  1  1  0
  5  2  2  0
  6  2  1  0
  7  3  1  0
  8  4  2  0
  9  5  1  0
 10  6  2  0
 11  7  2  0
 11  8  1  0
 12  9  2  0
 12 10  1  0
 13 11  1  0
 13 12  1  0
 14 13  1  0
 15 14  2  0
 16 14  1  0
M  END
>  <NAME>  (364) 
DIPHENYLACETIC ACID

>  <SYNONYMS>  (364) 


>  <SPECTRUM TYPE>  (364) 
MS1

>  <INSTRUMENT TYPE>  (364) 
EI-B

>  <INSTRUMENT>  (364) 
HITACHI M-2500

>  <ION MODE>  (364) 
P

>  <INCHIKEY>  (364) 
PYHXGXCGESYPCW-UHFFFAOYSA-N

>  <FORMULA>  (364) 
C14H12O2

>  <EXACT MASS>  (364) 
212.083729624

>  <MW>  (364) 
212

>  <ID>  (364) 
JP011633

>  <CONTRIBUTOR>  (364) 
University of Tokyo Team, {Faculty of Engineering, University of Tokyo

>  <COMMENT>  (364) 
SMILES=OC(=O)C(c(c2)cccc2)c(c1)cccc1
cas=117-34-0
InChI=InChI=1S/C14H12O2/c15-14(16)13(11-7-3-1-4-8-11)12-9-5-2-6-10-12/h1-10,13H,(H,15,16)
computed SMILES=O=C(O)C(C=1C=CC=CC1)C=2C=CC=CC2
accession=JP011633
date=2016.01.19 (Created 2008.10.21, modified 2011.05.06)
author=YAMAMOTO M, DEP. CHEMISTRY, FAC. SCIENCE, NARA WOMEN'S UNIV.
license=CC BY-NC-SA
exact mass=212.08373
ionization energy=70 eV
ion type=[M]+*
computed spectral entropy=2.098524210874147
computed normalized entropy=0.6603173901067598
SPLASH=splash10-014i-0910000000-5402c61b553fa7bf5889
submitter=submitter = University of Tokyo Team (Faculty of Engineering, University of Tokyo)
MoNA Rating=3.75

>  <NUM PEAKS>  (364) 
24

>  <MASS SPECTRAL PEAKS>  (364) 
18 1.35
39 1.67
51 1.8
63 1.79
77 1.72
82 3.5
83 3.35
89 1.3
91 1
115 2.47
128 1.61
139 1.98
151 1.14
152 13.38
153 2.63
163 1.61
164 1.99
165 27.95
166 9.85
167 99.99
168 18.27
169 1.44
212 29.07
213 4.47

>  <PREDICTED SPECTRUM>  (364) 
27 42
28 6
38 33
39 136
40 11
41 87
42 18
43 61
44 116
45 214
46 29
50 138
51 205
52 79
53 13
54 16
55 63
56 1
57 54
60 7
62 110
63 210
64 67
65 140
69 13
74 125
75 74
76 204
77 190
78 55
79 3
82 123
83 95
84 31
86 88
87 38
88 77
89 210
90 140
91 104
92 18
93 12
98 24
102 22
105 16
107 14
113 59
114 47
115 233
118 10
121 6
124 14
126 136
127 40
134 44
135 102
138 8
139 179
140 38
141 42
150 59
151 115
152 490
153 216
154 98
155 2
163 219
164 218
165 949
166 554
167 999
168 751
169 440
170 86
194 196
195 155
212 662
213 329
214 127
215 0

$$$$

     RDKit          2D

 17 17  0  0  1  0  0  0  0  0999 V2000
    4.2221    2.7571    0.0000 C   0  0  0  0  0  0  0  0  0  0  0  0
    4.2226    4.2579    0.0000 C   0  0  0  0  0  0  0  0  0  0  0  0
    2.9226    2.0063    0.0000 C   0  0  0  0  0  0  0  0  0  0  0  0
    2.9236    5.0079    0.0000 C   0  0  0  0  0  0  0  0  0  0  0  0
    1.6236    2.7563    0.0000 C   0  0  0  0  0  0  0  0  0  0  0  0
   -4.8712    5.0071    0.0000 C   0  0  0  0  0  0  0  0  0  0  0  0
   -3.5721    4.2571    0.0000 C   0  0  0  0  0  0  0  0  0  0  0  0
    0.3250    5.0071    0.0000 C   0  0  0  0  0  0  0  0  0  0  0  0
    1.6240    4.2571    0.0000 C   0  0  0  0  0  0  0  0  0  0  0  0
   -6.1702    4.2571    0.0000 C   0  0  0  0  0  0  0  0  0  0  0  0
   -2.2731    5.0071    0.0000 C   0  0  0  0  0  0  0  0  0  0  0  0
   -7.4692    5.0071    0.0000 C   0  0  0  0  0  0  0  0  0  0  0  0
   -6.1702    2.7571    0.0000 N   0  0  0  0  0  0  0  0  0  0  0  0
   -2.2731    6.5071    0.0000 O   0  0  0  0  0  0  0  0  0  0  0  0
   -7.4692    6.5071    0.0000 O   0  0  0  0  0  0  0  0  0  0  0  0
   -8.7683    4.2571    0.0000 O   0  0  0  0  0  0  0  0  0  0  0  0
   -0.9740    4.2571    0.0000 O   0  0  0  0  0  0  0  0  0  0  0  0
  2  1  2  0
  3  1  1  0
  4  2  1  0
  5  3  2  0
  7  6  1  0
  9  4  2  0
  9  5  1  0
  9  8  1  0
 10  6  1  0
 11  7  1  0
 12 10  1  0
 10 13  1  1
 14 11  2  0
 15 12  2  0
 16 12  1  0
 17  8  1  0
 17 11  1  0
M  END
>  <NAME>  (365) 
GAMMA-BENZYL L-GLUTAMATE

>  <SYNONYMS>  (365) 


>  <SPECTRUM TYPE>  (365) 
MS1

>  <INSTRUMENT TYPE>  (365) 
EI-B

>  <INSTRUMENT>  (365) 
HITACHI M-2500

>  <ION MODE>  (365) 
P

>  <INCHIKEY>  (365) 
BGGHCRNCRWQABU-SNVBAGLBSA-N

>  <FORMULA>  (365) 
C12H15NO4

>  <EXACT MASS>  (365) 
237.10010795999997

>  <MW>  (365) 
237

>  <ID>  (365) 
JP011632

>  <CONTRIBUTOR>  (365) 
University of Tokyo Team, {Faculty of Engineering, University of Tokyo

>  <COMMENT>  (365) 
SMILES=O=C(OCc(c1)cccc1)CCC([H])(N)C(O)=O
cas=1676-73-9
InChI=InChI=1S/C12H15NO4/c13-10(12(15)16)6-7-11(14)17-8-9-4-2-1-3-5-9/h1-5,10H,6-8,13H2,(H,15,16)/t10-/m1/s1
computed SMILES=O=C(O)C(N)CCC(=O)OCC=1C=CC=CC1
accession=JP011632
date=2016.01.19 (Created 2008.10.21, modified 2011.05.06)
author=YAMAMOTO M, DEP. CHEMISTRY, FAC. SCIENCE, NARA WOMEN'S UNIV.
license=CC BY-NC-SA
exact mass=237.10011
ionization energy=70 eV
ion type=[M]+*
computed spectral entropy=3.173152788416725
computed normalized entropy=0.7882920629569171
SPLASH=splash10-0006-9400000000-3ec5a8e9ea9e55e7d5d2
submitter=submitter = University of Tokyo Team (Faculty of Engineering, University of Tokyo)
MoNA Rating=3.75

>  <NUM PEAKS>  (365) 
56

>  <MASS SPECTRAL PEAKS>  (365) 
17 1.22
18 6.41
20 2.56
27 2.09
28 7.18
29 1.46
30 1.64
39 4.47
41 6.38
42 1.04
43 1.93
44 4.34
50 1.97
51 5.42
52 1.39
53 1.14
54 1.11
55 1.66
56 5.64
57 2.23
58 1.35
63 2.1
65 7.49
73 1.01
74 4.47
75 2.67
77 10.42
78 2.25
79 16.07
80 1.55
84 25.17
85 2.14
89 2.95
90 3.33
91 99.99
92 9.07
93 1.04
100 3.86
102 1.65
103 2.62
104 1.16
105 1.81
107 14.19
108 20.77
109 1.55
120 1.66
121 11.92
122 1.01
128 8.08
129 2.57
146 22.09
147 1.49
174 3.23
192 36.36
193 4.55
214 6.95

>  <PREDICTED SPECTRUM>  (365) 
14 11
15 22
16 17
17 39
18 55
25 6
26 67
27 92
28 114
29 68
30 38
36 2
37 17
38 34
39 125
40 46
41 266
42 264
43 234
44 297
45 179
46 80
49 60
50 150
51 230
52 163
53 130
54 208
55 222
56 429
57 224
58 133
59 67
60 51
61 27
62 81
63 176
64 68
65 313
66 72
67 83
68 26
69 94
70 90
71 67
72 75
73 180
74 236
75 143
76 43
77 240
78 118
79 204
80 67
82 127
83 218
84 802
85 210
86 99
87 63
88 52
89 186
90 155
91 999
92 327
93 23
95 5
99 18
100 108
101 188
102 218
103 144
104 45
105 75
106 24
107 221
108 272
109 62
110 16
111 53
112 3
113 78
115 58
118 86
119 28
127 3
128 199
129 171
130 92
131 78
132 45
135 36
146 246
147 63
163 24
164 16
174 103
175 20
191 129
192 257
193 132
219 64
220 56
237 40
238 24

$$$$

     RDKit          2D

 16 17  0  0  0  0  0  0  0  0999 V2000
   -1.0205    2.4142    0.0000 C   0  0  0  0  0  0  0  0  0  0  0  0
   -1.0200    0.9142    0.0000 C   0  0  0  0  0  0  0  0  0  0  0  0
    0.2792    3.1646    0.0000 C   0  0  0  0  0  0  0  0  0  0  0  0
    6.7766    2.4180    0.0000 C   0  0  0  0  0  0  0  0  0  0  0  0
    5.4773    3.1676    0.0000 C   0  0  0  0  0  0  0  0  0  0  0  0
    0.2802    0.1646    0.0000 C   0  0  0  0  0  0  0  0  0  0  0  0
    1.5795    2.4151    0.0000 C   0  0  0  0  0  0  0  0  0  0  0  0
    6.7766    0.9171    0.0000 C   0  0  0  0  0  0  0  0  0  0  0  0
    4.1780    2.4163    0.0000 C   0  0  0  0  0  0  0  0  0  0  0  0
    1.5800    0.9151    0.0000 C   0  0  0  0  0  0  0  0  0  0  0  0
    5.4773    0.1659    0.0000 C   0  0  0  0  0  0  0  0  0  0  0  0
    4.1780    0.9155    0.0000 C   0  0  0  0  0  0  0  0  0  0  0  0
    5.4780   -1.3341    0.0000 C   0  0  0  0  0  0  0  0  0  0  0  0
    4.1794   -2.0847    0.0000 O   0  0  0  0  0  0  0  0  0  0  0  0
    6.7774   -2.0835    0.0000 O   0  0  0  0  0  0  0  0  0  0  0  0
    2.8791    0.1653    0.0000 O   0  0  0  0  0  0  0  0  0  0  0  0
  2  1  2  0
  3  1  1  0
  5  4  2  0
  6  2  1  0
  7  3  2  0
  8  4  1  0
  9  5  1  0
 10  6  2  0
 10  7  1  0
 11  8  2  0
 12  9  2  0
 12 11  1  0
 13 11  1  0
 14 13  2  0
 15 13  1  0
 16 10  1  0
 16 12  1  0
M  END
>  <NAME>  (366) 
2-PHENOXYBENZOIC ACID

>  <SYNONYMS>  (366) 


>  <SPECTRUM TYPE>  (366) 
MS1

>  <INSTRUMENT TYPE>  (366) 
EI-B

>  <INSTRUMENT>  (366) 
HITACHI M-2500

>  <ION MODE>  (366) 
P

>  <INCHIKEY>  (366) 
PKRSYEPBQPFNRB-UHFFFAOYSA-N

>  <FORMULA>  (366) 
C13H10O3

>  <EXACT MASS>  (366) 
214.06299417999998

>  <MW>  (366) 
214

>  <ID>  (366) 
JP011631

>  <CONTRIBUTOR>  (366) 
University of Tokyo Team, {Faculty of Engineering, University of Tokyo

>  <COMMENT>  (366) 
SMILES=OC(=O)c(c2)c(ccc2)Oc(c1)cccc1
cas=2243-42-7
InChI=InChI=1S/C13H10O3/c14-13(15)11-8-4-5-9-12(11)16-10-6-2-1-3-7-10/h1-9H,(H,14,15)
computed SMILES=O=C(O)C=1C=CC=CC1OC=2C=CC=CC2
accession=JP011631
date=2016.01.19 (Created 2008.10.21, modified 2011.05.06)
author=YAMAMOTO M, DEP. CHEMISTRY, FAC. SCIENCE, NARA WOMEN'S UNIV.
license=CC BY-NC-SA
exact mass=214.06299
ionization energy=70 eV
ion type=[M]+*
computed spectral entropy=2.5068571325319606
computed normalized entropy=0.7169603063808484
SPLASH=splash10-0229-4950000000-296b6a7105ff56fd5b4b
submitter=submitter = University of Tokyo Team (Faculty of Engineering, University of Tokyo)
MoNA Rating=3.75

>  <NUM PEAKS>  (366) 
33

>  <MASS SPECTRAL PEAKS>  (366) 
27 1.1
38 1.45
39 6.89
45 1.14
50 3.99
51 10.43
63 3.94
64 2.61
65 9.02
66 1.68
74 1.56
75 1.48
76 1.41
77 9.89
78 1.07
91 1.27
92 7.46
93 5.93
94 7.57
115 5.13
120 9.04
121 99.99
122 8.29
139 4.78
140 1.31
141 4.55
168 5.52
169 3.88
197 9.09
198 1.28
214 73.77
215 11.11
216 1.2

>  <PREDICTED SPECTRUM>  (366) 
17 9
26 25
27 70
28 14
37 84
38 275
39 642
40 227
44 88
45 166
49 14
50 463
51 702
52 184
53 304
54 103
61 48
62 219
63 532
64 506
65 964
66 473
67 72
68 92
74 106
75 161
76 388
77 820
78 260
81 38
84 60
86 96
87 41
89 151
92 199
93 684
94 939
95 165
102 15
103 137
104 69
105 325
115 671
120 63
121 999
122 541
123 112
128 140
139 228
140 181
141 48
142 34
168 104
169 679
170 515
171 102
186 111
187 9
195 22
197 346
198 52
199 36
213 23
214 938
215 314
216 30

$$$$

     RDKit          2D

 13 14  0  0  0  0  0  0  0  0999 V2000
    1.2800    1.8298    0.0000 C   0  0  0  0  0  0  0  0  0  0  0  0
   -0.0037    4.0793    0.0000 C   0  0  0  0  0  0  0  0  0  0  0  0
    2.5828    2.5733    0.0000 C   0  0  0  0  0  0  0  0  0  0  0  0
    1.2991    4.8227    0.0000 C   0  0  0  0  0  0  0  0  0  0  0  0
   -1.3044    0.3189    0.0000 C   0  0  0  0  0  0  0  0  0  0  0  0
   -2.6044    2.5706    0.0000 C   0  0  0  0  0  0  0  0  0  0  0  0
   -2.6034   -0.4311    0.0000 C   0  0  0  0  0  0  0  0  0  0  0  0
   -3.9034    1.8206    0.0000 C   0  0  0  0  0  0  0  0  0  0  0  0
   -0.0058    2.5698    0.0000 C   0  0  0  0  0  0  0  0  0  0  0  0
   -1.3049    1.8198    0.0000 C   0  0  0  0  0  0  0  0  0  0  0  0
    2.6084    4.0617    0.0000 C   0  0  0  0  0  0  0  0  0  0  0  0
    3.9150    4.7985    0.0000 Cl  0  0  0  0  0  0  0  0  0  0  0  0
   -3.9029    0.3198    0.0000 N   0  0  0  0  0  0  0  0  0  0  0  0
  3  1  2  0
  4  2  1  0
  7  5  1  0
  8  6  1  0
  9  1  1  0
  9  2  2  0
 10  5  2  0
 10  6  1  0
 10  9  1  0
 11  3  1  0
 11  4  2  0
 12 11  1  0
 13  7  1  0
 13  8  1  0
M  END
>  <NAME>  (367) 
4-(4-CHLOROPHENYL)-1,2,3,6-TETRAHYDRO PYRIDINE

>  <SYNONYMS>  (367) 


>  <SPECTRUM TYPE>  (367) 
MS1

>  <INSTRUMENT TYPE>  (367) 
EI-B

>  <INSTRUMENT>  (367) 
HITACHI M-2500

>  <ION MODE>  (367) 
P

>  <INCHIKEY>  (367) 
SXOMHACGFSJBIO-UHFFFAOYSA-N

>  <FORMULA>  (367) 
C11H12ClN

>  <EXACT MASS>  (367) 
193.065827064

>  <MW>  (367) 
193

>  <ID>  (367) 
JP011630

>  <CONTRIBUTOR>  (367) 
University of Tokyo Team, {Faculty of Engineering, University of Tokyo

>  <COMMENT>  (367) 
SMILES=Clc(c2)ccc(c2)C(C1)=CCNC1
InChI=InChI=1S/C11H12ClN/c12-11-3-1-9(2-4-11)10-5-7-13-8-6-10/h1-5,13H,6-8H2
computed SMILES=ClC=1C=CC(=CC1)C2=CCNCC2
accession=JP011630
date=2016.01.19 (Created 2008.10.21, modified 2011.05.06)
author=YAMAMOTO M, DEP. CHEMISTRY, FAC. SCIENCE, NARA WOMEN'S UNIV.
license=CC BY-NC-SA
exact mass=193.06583
ionization energy=70 eV
ion type=[M]+*
computed spectral entropy=3.7990467483855492
computed normalized entropy=0.8231738986061715
SPLASH=splash10-002f-3900000000-aa808bbfe500ca19895f
submitter=submitter = University of Tokyo Team (Faculty of Engineering, University of Tokyo)
MoNA Rating=3.75

>  <NUM PEAKS>  (367) 
101

>  <MASS SPECTRAL PEAKS>  (367) 
17 1.66
18 11.33
26 1.54
27 5.02
28 11.86
29 2.19
30 4.48
36 4.82
38 1.54
39 3.32
41 4.14
42 3.63
43 1.72
44 6.81
45 1.69
50 3.82
51 8.01
52 2.07
53 4.65
54 3.17
55 2.98
56 7.02
57 1.11
62 1.61
63 4.69
64 2.06
65 1.91
67 1.39
68 8.56
72 2.56
73 1.28
74 3.18
75 7.54
76 2.43
77 8.82
78 7.27
79 3.03
80 13.72
81 5.42
82 34.68
83 2.51
87 1.4
89 2.94
91 1.8
98 1.46
99 2.21
100 1.1
101 7.99
102 6.5
103 2.9
111 1.02
112 1.09
113 1.46
114 2.42
115 9.69
116 2.65
117 1.18
125 15.25
126 3.61
127 17.79
128 26.72
129 67
130 15.95
131 1.94
136 4.05
137 1.9
138 4.04
139 1.38
140 1.43
141 2.35
143 2.44
149 9.24
150 1.85
151 4.32
152 1.31
153 1.13
154 2.46
155 1.51
156 6.16
157 6.5
158 34.58
159 4.46
162 1.37
163 1.94
164 25.55
165 5.44
166 9.13
167 1.62
175 1.6
177 2.51
178 3.94
179 1.11
180 1.27
189 1.38
190 6.42
191 2.68
192 62.16
193 99.99
194 30.19
195 31.88
196 3.82

>  <PREDICTED SPECTRUM>  (367) 
15 8
17 0
26 40
27 64
28 59
30 40
31 1
35 9
36 55
37 6
38 38
39 80
40 45
41 181
42 319
43 188
44 156
45 73
49 101
50 217
51 281
52 133
53 143
54 146
55 145
56 137
57 186
58 80
61 60
62 164
63 269
64 115
65 142
66 40
67 115
68 204
69 102
70 56
71 61
72 8
73 104
74 195
75 338
76 169
77 205
78 92
79 39
80 162
81 203
82 381
83 198
84 188
85 116
86 98
87 138
88 43
89 258
90 77
91 100
93 1
94 96
95 73
96 131
97 55
98 70
99 99
100 32
101 308
102 361
103 243
104 25
105 25
108 2
109 85
110 51
111 132
112 29
113 178
114 167
115 510
116 245
117 134
118 9
124 57
125 181
126 229
127 373
128 488
129 647
130 384
131 150
136 201
137 50
138 115
139 127
140 185
141 62
142 55
143 106
149 71
150 94
151 78
152 103
153 163
154 161
155 185
156 346
157 282
158 570
159 129
162 94
163 140
164 446
165 235
166 270
167 95
175 6
176 72
177 171
178 153
179 14
180 42
188 5
189 55
190 193
191 171
192 891
193 999
194 600
195 550
196 170

$$$$

     RDKit          2D

 13 13  0  0  0  0  0  0  0  0999 V2000
   -3.3013   -1.3889    0.0000 C   0  0  0  0  0  0  0  0  0  0  0  0
   -2.8499   -2.1704    0.0000 C   0  0  0  0  0  0  0  0  0  0  0  0
   -2.3372   -0.2397    0.0000 C   0  0  0  0  0  0  0  0  0  0  0  0
   -1.3727   -1.9096    0.0000 C   0  0  0  0  0  0  0  0  0  0  0  0
   -0.8600    1.0000    0.0000 C   0  0  0  0  0  0  0  0  0  0  0  0
    0.4400   -1.2500    0.0000 C   0  0  0  0  0  0  0  0  0  0  0  0
    1.7400    1.0000    0.0000 C   0  0  0  0  0  0  0  0  0  0  0  0
   -0.8600   -0.5000    0.0000 C   0  0  0  0  0  0  0  0  0  0  0  0
    0.4400    1.7500    0.0000 N   0  0  0  0  0  0  0  0  0  0  0  0
    1.7400   -0.5000    0.0000 N   0  0  0  0  0  0  0  0  0  0  0  0
   -2.1589    1.7502    0.0000 O   0  0  0  0  0  0  0  0  0  0  0  0
    0.4400   -2.7500    0.0000 O   0  0  0  0  0  0  0  0  0  0  0  0
    3.0389    1.7502    0.0000 O   0  0  0  0  0  0  0  0  0  0  0  0
  3  1  1  0
  4  2  1  0
  8  3  1  0
  8  4  1  0
  8  5  1  0
  8  6  1  0
  9  5  2  0
  9  7  1  0
 10  6  2  0
 10  7  1  0
 11  5  1  0
 12  6  1  0
 13  7  2  0
M  END
>  <NAME>  (368) 
5,5'-DIETHYL-BARBITURIC ACID

>  <SYNONYMS>  (368) 
BARBITAL

>  <SPECTRUM TYPE>  (368) 
MS1

>  <INSTRUMENT TYPE>  (368) 
EI-B

>  <INSTRUMENT>  (368) 
HITACHI M-2500

>  <ION MODE>  (368) 
P

>  <INCHIKEY>  (368) 
FTOAOBMCPZCFFF-UHFFFAOYSA-N

>  <FORMULA>  (368) 
C8H12N2O3

>  <EXACT MASS>  (368) 
184.08479224399997

>  <MW>  (368) 
184

>  <ID>  (368) 
JP011629

>  <CONTRIBUTOR>  (368) 
University of Tokyo Team, {Faculty of Engineering, University of Tokyo

>  <COMMENT>  (368) 
SMILES=CCC(CC)(C(=O)1)C(=O)NC(=O)N1
InChI=InChI=1S/C8H12N2O3/c1-3-8(4-2)5(11)9-7(13)10-6(8)12/h3-4H2,1-2H3,(H2,9,10,11,12,13)
computed SMILES=O=C1N=C(O)C(C(O)=N1)(CC)CC
accession=JP011629
date=2016.01.19 (Created 2008.10.21, modified 2011.05.06)
author=YAMAMOTO M, DEP. CHEMISTRY, FAC. SCIENCE, NARA WOMEN'S UNIV.
license=CC BY-NC-SA
exact mass=184.08479
ionization energy=70 eV
ion type=[M]+*
computed spectral entropy=2.9584113620706063
computed normalized entropy=0.7817820057308756
SPLASH=splash10-0a4u-5900000000-497f9ee367181a6df30a
submitter=submitter = University of Tokyo Team (Faculty of Engineering, University of Tokyo)
MoNA Rating=3.75

>  <NUM PEAKS>  (368) 
44

>  <MASS SPECTRAL PEAKS>  (368) 
26 2.4
27 13.2
28 4.08
29 15.51
30 1.23
38 1.72
39 23.56
40 3.51
41 26.69
42 4.51
43 4.01
44 8.08
51 1.19
52 1.81
53 7.08
54 7.14
55 40.04
56 6.89
57 2.36
67 1.7
68 1.46
69 5.62
70 3.66
80 1
83 7.99
84 1.07
85 3.05
94 2.01
98 10.57
112 12.88
113 1.78
126 1.42
141 81.38
142 7.94
155 51.23
156 99.99
157 20.84
158 2.34
166 1.28
169 1.06
183 1.86
185 53.69
186 35.1
187 3.77

>  <PREDICTED SPECTRUM>  (368) 
26 35
27 143
28 53
29 221
30 15
31 35
38 72
39 206
40 337
41 925
42 905
43 819
44 431
45 350
46 28
50 44
51 74
52 233
53 489
54 367
55 816
56 604
57 621
58 296
59 170
60 80
65 33
66 132
67 365
68 413
69 958
70 994
71 524
72 262
73 128
77 52
80 161
81 13
82 44
83 614
84 208
85 408
86 483
87 336
88 41
95 130
96 157
97 270
98 501
99 226
100 96
101 35
109 121
110 119
111 145
112 250
113 287
114 363
115 301
116 80
117 54
125 104
126 221
127 139
128 192
129 293
130 35
137 159
138 131
139 146
140 199
141 476
142 493
143 244
144 39
154 87
155 999
156 596
157 253
169 240
170 16
183 99
184 974
185 340
186 33

$$$$

     RDKit          2D

 33 38  0  0  0  0  0  0  0  0999 V2000
    3.8976   -0.7542    0.0000 C   0  0  0  0  0  0  0  0  0  0  0  0
   -9.0976   -0.7542    0.0000 C   0  0  0  0  0  0  0  0  0  0  0  0
    2.5986   -1.5042    0.0000 C   0  0  0  0  0  0  0  0  0  0  0  0
   -7.7986   -1.5042    0.0000 C   0  0  0  0  0  0  0  0  0  0  0  0
   -0.0024    6.0008    0.0000 C   0  0  0  0  0  0  0  0  0  0  0  0
   -5.1976    6.0008    0.0000 C   0  0  0  0  0  0  0  0  0  0  0  0
    3.8971    0.7467    0.0000 C   0  0  0  0  0  0  0  0  0  0  0  0
   -9.0971    0.7467    0.0000 C   0  0  0  0  0  0  0  0  0  0  0  0
    1.2990   -0.7533    0.0000 C   0  0  0  0  0  0  0  0  0  0  0  0
   -6.4990   -0.7533    0.0000 C   0  0  0  0  0  0  0  0  0  0  0  0
    1.2971    5.2500    0.0000 C   0  0  0  0  0  0  0  0  0  0  0  0
   -6.4971    5.2500    0.0000 C   0  0  0  0  0  0  0  0  0  0  0  0
   -1.3014    5.2508    0.0000 C   0  0  0  0  0  0  0  0  0  0  0  0
   -3.8986    5.2508    0.0000 C   0  0  0  0  0  0  0  0  0  0  0  0
    2.5976    1.4975    0.0000 C   0  0  0  0  0  0  0  0  0  0  0  0
   -7.7976    1.4975    0.0000 C   0  0  0  0  0  0  0  0  0  0  0  0
    1.2986    0.7475    0.0000 C   0  0  0  0  0  0  0  0  0  0  0  0
   -6.4986    0.7475    0.0000 C   0  0  0  0  0  0  0  0  0  0  0  0
    1.2976    3.7492    0.0000 C   0  0  0  0  0  0  0  0  0  0  0  0
   -6.4976    3.7492    0.0000 C   0  0  0  0  0  0  0  0  0  0  0  0
   -1.3010    3.7500    0.0000 C   0  0  0  0  0  0  0  0  0  0  0  0
   -3.8990    3.7500    0.0000 C   0  0  0  0  0  0  0  0  0  0  0  0
   -0.0014    2.9992    0.0000 C   0  0  0  0  0  0  0  0  0  0  0  0
   -5.1986    2.9992    0.0000 C   0  0  0  0  0  0  0  0  0  0  0  0
    2.5971    2.9983    0.0000 C   0  0  0  0  0  0  0  0  0  0  0  0
   -7.7971    2.9983    0.0000 C   0  0  0  0  0  0  0  0  0  0  0  0
   -0.0010    1.4983    0.0000 C   0  0  0  0  0  0  0  0  0  0  0  0
   -5.1990    1.4983    0.0000 C   0  0  0  0  0  0  0  0  0  0  0  0
   -2.6000    3.0000    0.0000 N   0  0  0  0  0  0  0  0  0  0  0  0
    3.8962    3.7483    0.0000 O   0  0  0  0  0  0  0  0  0  0  0  0
   -9.0962    3.7483    0.0000 O   0  0  0  0  0  0  0  0  0  0  0  0
   -1.3000    0.7483    0.0000 O   0  0  0  0  0  0  0  0  0  0  0  0
   -3.9000    0.7483    0.0000 O   0  0  0  0  0  0  0  0  0  0  0  0
  3  1  2  0
  4  2  2  0
  7  1  1  0
  8  2  1  0
  9  3  1  0
 10  4  1  0
 11  5  1  0
 12  6  1  0
 13  5  2  0
 14  6  2  0
 15  7  2  0
 16  8  2  0
 17  9  2  0
 17 15  1  0
 18 10  2  0
 18 16  1  0
 19 11  2  0
 20 12  2  0
 21 13  1  0
 22 14  1  0
 23 19  1  0
 23 21  2  0
 24 20  1  0
 24 22  2  0
 25 15  1  0
 25 19  1  0
 26 16  1  0
 26 20  1  0
 27 17  1  0
 27 23  1  0
 28 18  1  0
 28 24  1  0
 29 21  1  0
 29 22  1  0
 30 25  2  0
 31 26  2  0
 32 27  2  0
 33 28  2  0
M  END
>  <NAME>  (369) 
1,1'-DIANTHRIMIDE

>  <SYNONYMS>  (369) 


>  <SPECTRUM TYPE>  (369) 
MS1

>  <INSTRUMENT TYPE>  (369) 
EI-B

>  <INSTRUMENT>  (369) 
HITACHI M-2500

>  <ION MODE>  (369) 
P

>  <INCHIKEY>  (369) 
WITKIIIPSSFHST-UHFFFAOYSA-N

>  <FORMULA>  (369) 
C28H15NO4

>  <EXACT MASS>  (369) 
429.10010796

>  <MW>  (369) 
429

>  <ID>  (369) 
JP011627

>  <CONTRIBUTOR>  (369) 
University of Tokyo Team, {Faculty of Engineering, University of Tokyo

>  <COMMENT>  (369) 
SMILES=c(c1=O)(c6)c(ccc6)c(c(c2)c(c(Nc(c5)c(c4=O)c(cc5)c(=O)c(c43)cccc3)cc2)1)=O
cas=82-22-4
InChI=InChI=1S/C28H15NO4/c30-25-15-7-1-3-9-17(15)27(32)23-19(25)11-5-13-21(23)29-22-14-6-12-20-24(22)28(33)18-10-4-2-8-16(18)26(20)31/h1-14,29H
computed SMILES=O=C1C=2C=CC=CC2C(=O)C=3C(=CC=CC13)NC4=CC=CC=5C(=O)C=6C=CC=CC6C(=O)C45
accession=JP011627
date=2016.01.19 (Created 2008.10.21, modified 2011.05.06)
author=YAMAMOTO M, DEP. CHEMISTRY, FAC. SCIENCE, NARA WOMEN'S UNIV.
license=CC BY-NC-SA
exact mass=429.10011
ionization energy=70 eV
ion type=[M]+*
computed spectral entropy=2.942825366881442
computed normalized entropy=0.7377380637598958
SPLASH=splash10-004i-0211900000-450cee2c478566b485ec
submitter=submitter = University of Tokyo Team (Faculty of Engineering, University of Tokyo)
MoNA Rating=3.75

>  <NUM PEAKS>  (369) 
54

>  <MASS SPECTRAL PEAKS>  (369) 
51 1.18
63 1.14
75 1.61
76 2.41
77 3.69
104 2.18
105 1.94
139 5.24
140 2.42
145 1.06
150 2.6
151 4.89
152 2.83
157 1.25
158 6.55
159 1.38
164 1.23
166 1.02
167 1.46
168 3.1
180 2.05
195 1.39
196 1.76
208 2.26
214 6.18
215 2.12
223 8.48
224 6.69
225 1.02
240 1.77
296 1.81
314 1.99
315 4.74
316 2.35
317 1.12
324 1.35
328 1.38
343 1.81
344 3.32
345 2.06
356 1.73
371 1.35
372 5.67
373 3.6
384 2.5
400 7.24
401 2.5
412 4.97
413 1.63
426 1.18
428 5.99
429 99.99
430 31.98
431 5.68

>  <PREDICTED SPECTRUM>  (369) 
39 30
40 36
41 3
44 21
45 30
50 54
51 15
52 73
53 12
54 63
55 75
56 9
62 17
63 55
64 16
65 12
66 1
67 25
69 0
74 91
75 101
76 204
77 209
78 82
79 27
83 46
86 58
87 40
91 107
92 50
93 41
97 27
98 45
99 18
100 70
101 27
102 19
103 47
104 165
105 210
106 77
107 23
110 10
111 137
112 144
113 230
115 41
116 19
119 9
121 17
124 73
125 81
126 118
128 32
129 27
130 22
133 47
134 18
137 118
138 247
139 163
140 16
144 22
145 29
146 66
148 94
149 194
150 384
151 444
152 200
153 88
154 28
156 9
158 21
159 5
161 26
162 122
163 107
164 232
165 55
166 91
167 81
168 66
174 13
175 40
176 70
177 74
178 176
179 154
180 157
181 99
182 96
183 10
184 48
185 4
186 44
189 14
193 113
194 55
195 148
196 87
197 52
199 33
200 34
204 31
205 11
206 60
207 194
208 171
209 83
210 34
211 53
212 48
213 127
214 103
215 91
220 125
221 275
222 333
223 265
224 122
225 85
232 12
233 14
234 68
235 75
236 58
237 51
239 22
240 65
241 64
242 59
248 46
249 90
250 91
251 92
252 64
263 19
286 26
287 43
289 36
290 18
296 76
297 142
298 105
315 98
316 218
317 133
324 125
325 112
326 146
327 33
328 40
329 187
341 82
342 126
343 175
344 297
345 254
346 158
347 95
352 13
353 6
355 8
356 76
369 59
370 31
371 193
372 370
373 329
374 195
375 24
382 83
383 247
384 157
400 187
401 270
402 151
410 8
411 60
412 70
413 63
414 25
428 310
429 999
430 531
431 158
432 31

$$$$

     RDKit          2D

 12 12  0  0  0  0  0  0  0  0999 V2000
    3.5596    3.1719    0.0000 C   0  0  0  0  0  0  0  0  0  0  0  0
    2.2461    0.9470    0.0000 C   0  0  0  0  0  0  0  0  0  0  0  0
    0.9653    3.1783    0.0000 C   0  0  0  0  0  0  0  0  0  0  0  0
    4.8441    2.4470    0.0000 C   0  0  0  0  0  0  0  0  0  0  0  0
    3.5706    0.1529    0.0000 C   0  0  0  0  0  0  0  0  0  0  0  0
   -0.3375    2.4347    0.0000 C   0  0  0  0  0  0  0  0  0  0  0  0
    2.2606    2.4219    0.0000 C   0  0  0  0  0  0  0  0  0  0  0  0
    4.8696    0.9029    0.0000 C   0  0  0  0  0  0  0  0  0  0  0  0
   -1.6328    3.1910    0.0000 C   0  0  0  0  0  0  0  0  0  0  0  0
    6.1748    0.1636    0.0000 O   0  0  0  0  0  0  0  0  0  0  0  0
   -1.6254    4.6910    0.0000 O   0  0  0  0  0  0  0  0  0  0  0  0
   -2.9355    2.4474    0.0000 O   0  0  0  0  0  0  0  0  0  0  0  0
  4  1  2  0
  5  2  1  0
  6  3  1  0
  7  1  1  0
  7  2  2  0
  7  3  1  0
  8  4  1  0
  8  5  2  0
  9  6  1  0
 10  8  1  0
 11  9  2  0
 12  9  1  0
M  END
>  <NAME>  (370) 
3-(4-HYDROXYPHENYL)PROPIONIC ACID

>  <SYNONYMS>  (370) 


>  <SPECTRUM TYPE>  (370) 
MS1

>  <INSTRUMENT TYPE>  (370) 
EI-B

>  <INSTRUMENT>  (370) 
HITACHI M-2500

>  <ION MODE>  (370) 
P

>  <INCHIKEY>  (370) 
NMHMNPHRMNGLLB-UHFFFAOYSA-N

>  <FORMULA>  (370) 
C9H10O3

>  <EXACT MASS>  (370) 
166.06299417999998

>  <MW>  (370) 
166

>  <ID>  (370) 
JP011626

>  <CONTRIBUTOR>  (370) 
University of Tokyo Team, {Faculty of Engineering, University of Tokyo

>  <COMMENT>  (370) 
SMILES=OC(=O)CCc(c1)ccc(O)c1
cas=501-97-3
InChI=InChI=1S/C9H10O3/c10-8-4-1-7(2-5-8)3-6-9(11)12/h1-2,4-5,10H,3,6H2,(H,11,12)
computed SMILES=O=C(O)CCC1=CC=C(O)C=C1
accession=JP011626
date=2016.01.19 (Created 2008.10.21, modified 2011.05.06)
author=YAMAMOTO M, DEP. CHEMISTRY, FAC. SCIENCE, NARA WOMEN'S UNIV.
license=CC BY-NC-SA
exact mass=166.06299
ionization energy=70 eV
ion type=[M]+*
computed spectral entropy=2.49439561370696
computed normalized entropy=0.6761933114743405
SPLASH=splash10-066r-9800000000-44e113d8fc2602ffba88
submitter=submitter = University of Tokyo Team (Faculty of Engineering, University of Tokyo)
MoNA Rating=3.75

>  <NUM PEAKS>  (370) 
40

>  <MASS SPECTRAL PEAKS>  (370) 
17 3.66
18 79.83
28 29.02
32 7.44
39 1
41 5.09
42 2.1
43 4.18
44 3.21
45 2.4
51 2.16
53 1.15
55 2.61
56 2.91
57 2.01
60 2.97
61 2.08
63 1.19
65 2.26
69 1.32
73 1.65
77 7.36
78 1.7
81 1.03
82 1.02
83 1.17
91 3.77
94 1.26
95 1.18
103 1.07
107 99.99
108 7.84
119 2.54
120 5.8
121 1.87
123 1.39
138 7.98
139 1.09
166 33.08
167 3.32

>  <PREDICTED SPECTRUM>  (370) 
26 13
27 55
29 11
32 5
37 1
38 66
39 220
40 63
41 101
42 67
43 52
45 108
46 4
50 159
51 270
52 192
53 174
54 15
55 108
59 36
60 108
61 21
62 73
63 151
64 92
65 236
66 95
68 20
73 2
74 34
75 97
76 39
77 434
78 228
79 192
80 30
89 70
90 37
91 248
92 71
93 91
94 95
95 47
102 58
103 91
104 60
105 190
106 251
107 999
108 299
109 84
119 256
120 340
121 138
147 7
148 102
149 89
164 57
165 1
166 581
167 167
168 56

$$$$

     RDKit          2D

 12 12  0  0  0  0  0  0  0  0999 V2000
   -0.3233   -3.9365    0.0000 C   0  0  0  0  0  0  0  0  0  0  0  0
    0.9713   -3.1943    0.0000 C   0  0  0  0  0  0  0  0  0  0  0  0
   -1.6223   -3.1865    0.0000 C   0  0  0  0  0  0  0  0  0  0  0  0
    2.2709   -0.9437    0.0000 C   0  0  0  0  0  0  0  0  0  0  0  0
    3.5698   -1.6939    0.0000 C   0  0  0  0  0  0  0  0  0  0  0  0
   -0.3273   -0.9434    0.0000 C   0  0  0  0  0  0  0  0  0  0  0  0
    0.9717   -1.6934    0.0000 C   0  0  0  0  0  0  0  0  0  0  0  0
   -1.6268   -1.6943    0.0000 C   0  0  0  0  0  0  0  0  0  0  0  0
    4.8690   -0.9441    0.0000 C   0  0  0  0  0  0  0  0  0  0  0  0
   -2.9271   -0.9465    0.0000 O   0  0  0  0  0  0  0  0  0  0  0  0
    4.8692    0.5559    0.0000 O   0  0  0  0  0  0  0  0  0  0  0  0
    6.1679   -1.6943    0.0000 O   0  0  0  0  0  0  0  0  0  0  0  0
  2  1  2  0
  3  1  1  0
  5  4  1  0
  7  2  1  0
  7  4  1  0
  7  6  2  0
  8  3  2  0
  8  6  1  0
  9  5  1  0
 10  8  1  0
 11  9  2  0
 12  9  1  0
M  END
>  <NAME>  (371) 
3-(3-HYDROXYPHENYL)PROPIONIC ACID

>  <SYNONYMS>  (371) 


>  <SPECTRUM TYPE>  (371) 
MS1

>  <INSTRUMENT TYPE>  (371) 
EI-B

>  <INSTRUMENT>  (371) 
HITACHI M-2500

>  <ION MODE>  (371) 
P

>  <INCHIKEY>  (371) 
QVWAEZJXDYOKEH-UHFFFAOYSA-N

>  <FORMULA>  (371) 
C9H10O3

>  <EXACT MASS>  (371) 
166.06299417999998

>  <MW>  (371) 
166

>  <ID>  (371) 
JP011625

>  <CONTRIBUTOR>  (371) 
University of Tokyo Team, {Faculty of Engineering, University of Tokyo

>  <COMMENT>  (371) 
SMILES=OC(=O)CCc(c1)cc(O)cc1
InChI=InChI=1S/C9H10O3/c10-8-3-1-2-7(6-8)4-5-9(11)12/h1-3,6,10H,4-5H2,(H,11,12)
computed SMILES=O=C(O)CCC=1C=CC=C(O)C1
accession=JP011625
date=2016.01.19 (Created 2008.10.21, modified 2011.05.06)
author=YAMAMOTO M, DEP. CHEMISTRY, FAC. SCIENCE, NARA WOMEN'S UNIV.
license=CC BY-NC-SA
exact mass=166.06299
ionization energy=70 eV
ion type=[M]+*
computed spectral entropy=2.101364316184193
computed normalized entropy=0.6798238289807794
SPLASH=splash10-01b9-1900000000-77779ae60312f591e17e
submitter=submitter = University of Tokyo Team (Faculty of Engineering, University of Tokyo)
MoNA Rating=3.75

>  <NUM PEAKS>  (371) 
22

>  <MASS SPECTRAL PEAKS>  (371) 
65 1.71
77 8.97
78 1.12
79 1.95
91 8.12
92 1.8
93 3.1
94 3.01
95 1.15
103 5.01
107 37.27
108 2.79
119 1.91
120 51.25
121 45.87
122 4.12
147 1.17
148 1.62
149 3.48
166 99.99
167 10.78
168 1.22

>  <PREDICTED SPECTRUM>  (371) 
26 24
27 97
29 60
31 0
32 14
37 44
38 97
39 307
40 92
41 144
42 106
43 151
44 59
45 195
46 60
49 41
50 200
51 336
52 212
53 202
55 131
56 17
57 119
58 11
59 111
60 121
61 78
62 127
63 239
64 161
65 340
66 127
68 33
69 13
70 46
72 0
73 52
74 79
75 132
76 97
77 477
78 301
79 283
80 86
81 18
83 15
87 11
89 136
90 87
91 328
92 169
93 186
94 140
95 127
101 7
102 105
103 175
104 129
105 242
106 443
107 999
108 420
109 89
115 76
117 10
118 121
119 289
120 531
121 169
122 10
124 5
147 60
148 194
149 88
166 557
167 166
168 48

$$$$

     RDKit          2D

 12 12  0  0  0  0  0  0  0  0999 V2000
   -1.3000   -0.7500    0.0000 C   0  0  0  0  0  0  0  0  0  0  0  0
   -0.0000   -1.5000    0.0000 C   0  0  0  0  0  0  0  0  0  0  0  0
   -1.3000    0.7500    0.0000 C   0  0  0  0  0  0  0  0  0  0  0  0
    1.3000   -0.7500    0.0000 C   0  0  0  0  0  0  0  0  0  0  0  0
    0.0000    1.5000    0.0000 C   0  0  0  0  0  0  0  0  0  0  0  0
    1.3000    0.7500    0.0000 C   0  0  0  0  0  0  0  0  0  0  0  0
   -2.5989   -1.5002    0.0000 Cl  0  0  0  0  0  0  0  0  0  0  0  0
   -0.0000   -3.0000    0.0000 Cl  0  0  0  0  0  0  0  0  0  0  0  0
   -2.5989    1.5002    0.0000 Cl  0  0  0  0  0  0  0  0  0  0  0  0
    2.5989   -1.5002    0.0000 Cl  0  0  0  0  0  0  0  0  0  0  0  0
    0.0000    3.0000    0.0000 Cl  0  0  0  0  0  0  0  0  0  0  0  0
    2.5989    1.5002    0.0000 Cl  0  0  0  0  0  0  0  0  0  0  0  0
  2  1  2  0
  3  1  1  0
  4  2  1  0
  5  3  2  0
  6  4  2  0
  6  5  1  0
  7  1  1  0
  8  2  1  0
  9  3  1  0
 10  4  1  0
 11  5  1  0
 12  6  1  0
M  END
>  <NAME>  (372) 
HEXACHLOROBENZENE

>  <SYNONYMS>  (372) 


>  <SPECTRUM TYPE>  (372) 
MS1

>  <INSTRUMENT TYPE>  (372) 
EI-B

>  <INSTRUMENT>  (372) 
HITACHI M-2500

>  <ION MODE>  (372) 
P

>  <INCHIKEY>  (372) 
CKAPSXZOOQJIBF-UHFFFAOYSA-N

>  <FORMULA>  (372) 
C6Cl6

>  <EXACT MASS>  (372) 
281.81311608

>  <MW>  (372) 
282

>  <ID>  (372) 
JP011624

>  <CONTRIBUTOR>  (372) 
University of Tokyo Team, {Faculty of Engineering, University of Tokyo

>  <COMMENT>  (372) 
SMILES=Clc(c(Cl)1)c(Cl)c(Cl)c(Cl)c(Cl)1
cas=118-74-1
InChI=InChI=1S/C6Cl6/c7-1-2(8)4(10)6(12)5(11)3(1)9
computed SMILES=ClC=1C(Cl)=C(Cl)C(Cl)=C(Cl)C1Cl
accession=JP011624
date=2016.01.19 (Created 2008.10.21, modified 2011.05.06)
license=CC BY-NC-SA
author=YAMAMOTO M, DEP. CHEMISTRY, FAC. SCIENCE, NARA WOMEN'S UNIV.
exact mass=281.81312
ionization energy=70 eV
ion type=[M]+*
computed spectral entropy=3.073475580577907
computed normalized entropy=0.7704908178876027
SPLASH=splash10-001r-0290000000-be7d6414f99da634dbcc
submitter=submitter = University of Tokyo Team (Faculty of Engineering, University of Tokyo)
MoNA Rating=3.75

>  <NUM PEAKS>  (372) 
54

>  <MASS SPECTRAL PEAKS>  (372) 
35 2.3
36 3.17
47 3.45
49 1.07
60 2.27
71 6.12
72 2.98
73 1.64
83 1.39
88 1.18
89 1.18
94 1.32
95 3.71
97 1.15
106 5.46
107 11.67
108 3.95
109 3.42
118 4.96
120 3.31
130 1.71
132 1.14
141 3.97
142 21.92
143 6.1
144 12.18
145 1.37
146 1.79
165 1.05
167 1.05
177 7.31
179 7.16
181 2.29
212 10.9
214 13.95
215 1
216 6.91
218 1.49
247 13.85
248 1.24
249 23.66
250 2.02
251 14.14
252 1.27
253 4.65
282 53.02
283 3.52
284 99.99
285 6.59
286 80.06
287 5.28
288 35.21
290 8.25
292 1.04

>  <PREDICTED SPECTRUM>  (372) 
26 10
35 55
36 50
37 16
39 18
49 3
68 12
71 103
72 33
79 15
82 5
83 26
94 21
95 195
96 88
97 31
106 24
107 136
108 134
109 47
116 5
117 40
118 144
120 95
127 11
130 112
132 135
141 144
142 438
143 172
144 238
145 6
146 140
149 60
151 182
152 92
153 220
154 50
158 32
160 73
167 83
176 11
177 337
178 1
179 203
181 65
187 119
188 128
191 4
193 57
195 70
197 50
212 529
213 220
214 595
215 285
216 359
217 229
218 192
223 23
245 36
246 2
247 482
248 194
249 553
250 187
251 388
252 110
253 242
254 19
255 161
257 63
258 17
281 20
282 768
283 187
284 999
285 277
286 923
287 216

$$$$

     RDKit          2D

 12 12  0  0  0  0  0  0  0  0999 V2000
   -1.3000    0.7500    0.0000 C   0  0  0  0  0  0  0  0  0  0  0  0
    0.0000    1.5000    0.0000 C   0  0  0  0  0  0  0  0  0  0  0  0
    0.0000   -1.5000    0.0000 C   0  0  0  0  0  0  0  0  0  0  0  0
    1.3000   -0.7500    0.0000 C   0  0  0  0  0  0  0  0  0  0  0  0
   -1.3000   -0.7500    0.0000 C   0  0  0  0  0  0  0  0  0  0  0  0
    1.3000    0.7500    0.0000 C   0  0  0  0  0  0  0  0  0  0  0  0
   -2.5989   -1.5002    0.0000 C   0  0  0  0  0  0  0  0  0  0  0  0
    2.5989    1.5002    0.0000 C   0  0  0  0  0  0  0  0  0  0  0  0
   -3.8981   -0.7504    0.0000 O   0  0  0  0  0  0  0  0  0  0  0  0
   -2.5987   -3.0002    0.0000 O   0  0  0  0  0  0  0  0  0  0  0  0
    3.8981    0.7504    0.0000 O   0  0  0  0  0  0  0  0  0  0  0  0
    2.5987    3.0002    0.0000 O   0  0  0  0  0  0  0  0  0  0  0  0
  2  1  2  0
  4  3  1  0
  5  1  1  0
  5  3  2  0
  6  2  1  0
  6  4  2  0
  7  5  1  0
  8  6  1  0
  9  7  1  0
 10  7  2  0
 11  8  1  0
 12  8  2  0
M  END
>  <NAME>  (373) 
TEREPHTHALIC ACID

>  <SYNONYMS>  (373) 


>  <SPECTRUM TYPE>  (373) 
MS1

>  <INSTRUMENT TYPE>  (373) 
EI-B

>  <INSTRUMENT>  (373) 
HITACHI M-2500

>  <ION MODE>  (373) 
P

>  <INCHIKEY>  (373) 
KKEYFWRCBNTPAC-UHFFFAOYSA-N

>  <FORMULA>  (373) 
C8H6O4

>  <EXACT MASS>  (373) 
166.026608672

>  <MW>  (373) 
166

>  <ID>  (373) 
JP011623

>  <CONTRIBUTOR>  (373) 
University of Tokyo Team, {Faculty of Engineering, University of Tokyo

>  <COMMENT>  (373) 
SMILES=OC(=O)c(c1)ccc(c1)C(O)=O
cas=100-21-0
InChI=InChI=1S/C8H6O4/c9-7(10)5-1-2-6(4-3-5)8(11)12/h1-4H,(H,9,10)(H,11,12)
computed SMILES=O=C(O)C1=CC=C(C=C1)C(=O)O
license=CC BY-NC-SA
accession=JP011623
date=2016.01.19 (Created 2008.10.21, modified 2011.05.06)
author=YAMAMOTO M, DEP. CHEMISTRY, FAC. SCIENCE, NARA WOMEN'S UNIV.
exact mass=166.02661
ionization energy=70 eV
ion type=[M]+*
computed spectral entropy=2.492174148874616
computed normalized entropy=0.7127609779369006
SPLASH=splash10-014j-4900000000-95e39c2780c93f2f98fd
submitter=submitter = University of Tokyo Team (Faculty of Engineering, University of Tokyo)
MoNA Rating=3.75

>  <NUM PEAKS>  (373) 
33

>  <MASS SPECTRAL PEAKS>  (373) 
37 1.8
38 2.88
39 6.05
44 1.12
45 7.38
49 1.27
50 12.53
51 8.38
52 1.84
53 2.53
63 1.75
65 26.12
66 1.95
73 2.19
74 10.52
75 8.93
76 9.06
77 5.66
78 1.04
93 3.72
103 2.85
104 3.58
105 2.86
120 1.16
121 27.99
122 2.89
138 2.31
148 1.06
149 99.99
150 8.97
166 91.76
167 8.46
168 1.1

>  <PREDICTED SPECTRUM>  (373) 
14 3
16 4
17 7
18 12
26 7
27 11
28 30
29 75
30 86
36 16
37 112
38 154
39 309
40 24
44 61
45 338
49 84
50 423
51 353
52 138
53 272
54 27
58 35
62 120
63 164
64 26
65 781
66 277
74 286
75 235
76 406
77 286
78 103
79 23
81 176
91 7
92 37
93 320
94 26
103 89
104 276
105 234
106 4
109 30
120 10
121 924
122 268
123 59
138 179
149 999
150 314
151 47
166 771
167 212
168 54

$$$$

     RDKit          2D

 13 13  0  0  0  0  0  0  0  0999 V2000
    5.1970    1.5006    0.0000 C   0  0  0  0  0  0  0  0  0  0  0  0
   -1.3000    0.7500    0.0000 C   0  0  0  0  0  0  0  0  0  0  0  0
   -0.0000   -1.5000    0.0000 C   0  0  0  0  0  0  0  0  0  0  0  0
    0.0000    1.5000    0.0000 C   0  0  0  0  0  0  0  0  0  0  0  0
    1.3000   -0.7500    0.0000 C   0  0  0  0  0  0  0  0  0  0  0  0
    3.8981    0.7504    0.0000 C   0  0  0  0  0  0  0  0  0  0  0  0
   -1.3000   -0.7500    0.0000 C   0  0  0  0  0  0  0  0  0  0  0  0
    1.3000    0.7500    0.0000 C   0  0  0  0  0  0  0  0  0  0  0  0
   -2.5989   -1.5002    0.0000 N   0  0  0  0  0  0  0  0  0  0  0  0
    3.8983   -0.7496    0.0000 O   0  0  0  0  0  0  0  0  0  0  0  0
   -3.8981   -0.7504    0.0000 O   0  0  0  0  0  0  0  0  0  0  0  0
   -2.5987   -3.0002    0.0000 O   0  0  0  0  0  0  0  0  0  0  0  0
    2.5989    1.5002    0.0000 O   0  0  0  0  0  0  0  0  0  0  0  0
  4  2  2  0
  5  3  1  0
  6  1  1  0
  7  2  1  0
  7  3  2  0
  8  4  1  0
  8  5  2  0
  9  7  1  0
 10  6  2  0
 11  9  1  0
 12  9  2  0
 13  6  1  0
 13  8  1  0
M  CHG  2   9   1  11  -1
M  END
>  <NAME>  (374) 
4-NITROPHENYL ACETATE

>  <SYNONYMS>  (374) 
4-ACETOXYNITROBENZENE

>  <SPECTRUM TYPE>  (374) 
MS1

>  <INSTRUMENT TYPE>  (374) 
EI-B

>  <INSTRUMENT>  (374) 
HITACHI M-2500

>  <ION MODE>  (374) 
P

>  <INCHIKEY>  (374) 
QAUUDNIGJSLPSX-UHFFFAOYSA-N

>  <FORMULA>  (374) 
C8H7NO4

>  <EXACT MASS>  (374) 
181.037507704

>  <MW>  (374) 
181

>  <ID>  (374) 
JP011622

>  <CONTRIBUTOR>  (374) 
University of Tokyo Team, {Faculty of Engineering, University of Tokyo

>  <COMMENT>  (374) 
SMILES=CC(=O)Oc(c1)ccc(c1)[N+1]([O-1])=O
cas=830-03-5
InChI=InChI=1S/C8H7NO4/c1-6(10)13-8-4-2-7(3-5-8)9(11)12/h2-5H,1H3
computed SMILES=O=C(OC1=CC=C(C=C1)N(=O)=O)C
accession=JP011622
date=2016.01.19 (Created 2008.10.21, modified 2011.05.06)
author=YAMAMOTO M, DEP. CHEMISTRY, FAC. SCIENCE, NARA WOMEN'S UNIV.
license=CC BY-NC-SA
exact mass=181.03751
ionization energy=70 eV
ion type=[M]+*
computed spectral entropy=2.526294510181886
computed normalized entropy=0.728934512332884
SPLASH=splash10-0006-9300000000-1f46a677a572cc91d6bc
submitter=submitter = University of Tokyo Team (Faculty of Engineering, University of Tokyo)
MoNA Rating=3.75

>  <NUM PEAKS>  (374) 
32

>  <MASS SPECTRAL PEAKS>  (374) 
15 3.05
26 1.04
30 5.31
38 4.17
39 5.31
42 3.33
43 99.99
44 2.21
50 3.3
51 1.65
52 1.45
53 1.42
54 1.11
61 1.34
62 4.17
63 12.56
64 6.79
65 11.74
74 1.59
75 1.54
76 1.37
81 5.36
92 1.13
93 6.58
94 1.2
109 19.71
110 1.62
123 7.24
139 17.53
140 2.72
181 16
182 4.39

>  <PREDICTED SPECTRUM>  (374) 
14 39
15 107
26 30
27 42
29 1
30 85
33 8
37 67
38 131
39 173
40 46
41 94
42 190
43 999
44 149
45 23
46 11
50 215
51 205
52 187
53 150
54 55
55 1
61 91
62 166
63 312
64 223
65 254
66 87
73 73
74 130
75 136
76 113
77 13
78 39
79 68
80 49
81 279
82 72
86 4
91 79
92 134
93 143
94 52
107 13
109 336
110 5
121 72
122 98
123 114
139 402
140 62
181 167
182 47

$$$$

     RDKit          2D

 14 15  0  0  0  0  0  0  0  0999 V2000
    0.6388    3.2226    0.0000 C   0  0  0  0  0  0  0  0  0  0  0  0
    0.1765    0.6742    0.0000 C   0  0  0  0  0  0  0  0  0  0  0  0
   -0.8371    3.4903    0.0000 C   0  0  0  0  0  0  0  0  0  0  0  0
   -1.2994    0.9419    0.0000 C   0  0  0  0  0  0  0  0  0  0  0  0
    3.9251    0.8181    0.0000 C   0  0  0  0  0  0  0  0  0  0  0  0
    2.6251    3.0698    0.0000 C   0  0  0  0  0  0  0  0  0  0  0  0
    5.2241    1.5681    0.0000 C   0  0  0  0  0  0  0  0  0  0  0  0
    3.9241    3.8198    0.0000 C   0  0  0  0  0  0  0  0  0  0  0  0
    1.1483    1.8293    0.0000 C   0  0  0  0  0  0  0  0  0  0  0  0
   -1.8133    2.3665    0.0000 C   0  0  0  0  0  0  0  0  0  0  0  0
    2.6256    1.5689    0.0000 C   0  0  0  0  0  0  0  0  0  0  0  0
   -3.2879    2.6417    0.0000 Cl  0  0  0  0  0  0  0  0  0  0  0  0
    5.2236    3.0689    0.0000 N   0  0  0  0  0  0  0  0  0  0  0  0
    2.1124    0.1595    0.0000 O   0  0  0  0  0  0  0  0  0  0  0  0
  3  1  2  0
  4  2  1  0
  7  5  1  0
  8  6  1  0
  9  1  1  0
  9  2  2  0
 10  3  1  0
 10  4  2  0
 11  5  1  0
 11  6  1  0
 11  9  1  0
 12 10  1  0
 13  7  1  0
 13  8  1  0
 14 11  1  0
M  END
>  <NAME>  (375) 
4-(4-CHLOROPHENYL)-4-HYDROXYPIPERIDINE

>  <SYNONYMS>  (375) 
4-(4-CHLOROPHENYL)-4-PIPERIDINOL

>  <SPECTRUM TYPE>  (375) 
MS1

>  <INSTRUMENT TYPE>  (375) 
EI-B

>  <INSTRUMENT>  (375) 
HITACHI M-2500

>  <ION MODE>  (375) 
P

>  <INCHIKEY>  (375) 
LZAYOZUFUAMFLD-UHFFFAOYSA-N

>  <FORMULA>  (375) 
C11H14ClNO

>  <EXACT MASS>  (375) 
211.076391748

>  <MW>  (375) 
211

>  <ID>  (375) 
JP011621

>  <CONTRIBUTOR>  (375) 
University of Tokyo Team, {Faculty of Engineering, University of Tokyo

>  <COMMENT>  (375) 
SMILES=Clc(c2)ccc(c2)C(O)(C1)CCNC1
cas=39512-49-7
InChI=InChI=1S/C11H14ClNO/c12-10-3-1-9(2-4-10)11(14)5-7-13-8-6-11/h1-4,13-14H,5-8H2
computed SMILES=ClC1=CC=C(C=C1)C2(O)CCNCC2
accession=JP011621
date=2016.01.19 (Created 2008.10.21, modified 2011.05.06)
author=YAMAMOTO M, DEP. CHEMISTRY, FAC. SCIENCE, NARA WOMEN'S UNIV.
license=CC BY-NC-SA
exact mass=211.07639
ionization energy=70 eV
ion type=[M]+*
computed spectral entropy=3.7455635871369646
computed normalized entropy=0.822499965698572
SPLASH=splash10-052f-9400000000-5958c2e8aa283789e161
submitter=submitter = University of Tokyo Team (Faculty of Engineering, University of Tokyo)
MoNA Rating=3.75

>  <NUM PEAKS>  (375) 
95

>  <MASS SPECTRAL PEAKS>  (375) 
15 4.63
17 1.63
18 8.31
20 5.24
26 1.84
27 9.87
28 31.39
29 24.31
30 48.13
31 1.04
39 4.26
41 4.8
42 99.99
43 36.17
44 47.46
45 1.97
50 5.55
51 7.3
52 1.28
53 2.36
54 1.61
55 5.01
56 61.99
57 76.22
58 5.71
60 4.21
62 1
63 3.77
65 1.99
68 3.86
70 1.84
74 2.68
75 9.74
76 3.21
77 7.28
78 1.27
80 3.16
81 2.9
82 14.68
89 2.99
90 1.12
91 4.52
98 2.51
99 3.75
101 3.58
102 2.86
103 1.91
111 9.85
112 4.31
113 3.75
114 1.56
116 1.32
125 5.89
126 1.31
127 4.32
128 4.32
129 10.8
130 3.93
131 3.42
133 1.45
136 1.16
137 1.84
138 2.43
139 16.43
140 3.14
141 5.06
149 1.28
151 2.02
153 1.3
154 7.58
155 1.99
156 2.77
158 15.94
159 2.26
164 7.72
165 3.5
166 6.81
167 2.77
168 1.71
178 1.37
182 1.66
183 5.6
185 1.8
189 6.62
190 3.44
191 4.23
192 23.36
193 58.61
194 14.78
195 19.95
196 2.82
210 4.61
211 25.32
212 4.5
213 8.05

>  <PREDICTED SPECTRUM>  (375) 
17 27
18 30
25 0
26 21
27 50
28 56
29 57
30 53
31 65
35 11
36 23
37 3
38 31
39 121
40 70
41 267
42 380
43 288
44 160
45 108
46 19
47 23
49 63
50 199
51 271
52 147
53 179
54 188
55 377
56 463
57 437
58 128
59 32
60 87
61 68
62 85
63 193
64 103
65 145
66 51
67 130
68 209
69 145
70 255
71 148
72 116
73 157
74 159
75 320
76 154
77 271
78 47
79 97
80 125
81 126
82 226
83 230
84 251
85 254
86 131
87 43
88 60
89 218
90 93
91 137
92 33
93 18
94 39
95 147
96 111
97 110
98 165
99 219
100 175
101 284
102 314
103 139
109 108
110 99
111 281
112 142
113 302
114 107
115 292
116 101
117 131
119 20
122 46
123 129
124 46
125 294
126 210
127 385
128 206
129 305
130 252
131 27
136 197
137 376
138 216
139 439
140 208
141 346
142 41
143 68
144 13
148 62
150 189
151 242
152 191
153 127
154 153
155 25
156 84
157 10
158 145
163 1
164 454
165 377
166 192
167 79
168 52
178 69
180 85
182 121
183 98
185 5
190 94
191 159
192 536
193 999
194 481
195 468
196 148
197 39
209 30
210 148
211 423
212 171
213 217
214 33

$$$$

     RDKit          2D

 21 23  0  0  0  0  0  0  0  0999 V2000
   -2.6000    0.7500    0.0000 C   0  0  0  0  0  0  0  0  0  0  0  0
   -2.6000   -0.7500    0.0000 C   0  0  0  0  0  0  0  0  0  0  0  0
   -1.3000    1.5000    0.0000 C   0  0  0  0  0  0  0  0  0  0  0  0
   -1.3000   -1.5000    0.0000 C   0  0  0  0  0  0  0  0  0  0  0  0
    9.0956   -1.5023    0.0000 C   0  0  0  0  0  0  0  0  0  0  0  0
    7.7963   -3.7527    0.0000 C   0  0  0  0  0  0  0  0  0  0  0  0
    7.7963   -0.7510    0.0000 C   0  0  0  0  0  0  0  0  0  0  0  0
    6.4970   -3.0015    0.0000 C   0  0  0  0  0  0  0  0  0  0  0  0
    2.6000    0.7500    0.0000 C   0  0  0  0  0  0  0  0  0  0  0  0
    9.0956   -3.0031    0.0000 C   0  0  0  0  0  0  0  0  0  0  0  0
    6.4970   -1.5006    0.0000 C   0  0  0  0  0  0  0  0  0  0  0  0
    0.0000    0.7500    0.0000 C   0  0  0  0  0  0  0  0  0  0  0  0
    0.0000   -0.7500    0.0000 C   0  0  0  0  0  0  0  0  0  0  0  0
    2.6000   -0.7500    0.0000 C   0  0  0  0  0  0  0  0  0  0  0  0
   10.3945   -3.7533    0.0000 N   0  0  0  0  0  0  0  0  0  0  0  0
    1.3000    1.5000    0.0000 N   0  0  0  0  0  0  0  0  0  0  0  0
    1.3000   -1.5000    0.0000 N   0  0  0  0  0  0  0  0  0  0  0  0
    3.8989   -1.5002    0.0000 N   0  0  0  0  0  0  0  0  0  0  0  0
    6.1624    0.3985    0.0000 O   0  0  0  0  0  0  0  0  0  0  0  0
    4.2341    0.3988    0.0000 O   0  0  0  0  0  0  0  0  0  0  0  0
    5.1981   -0.7504    0.0000 S   0  0  0  0  0  0  0  0  0  0  0  0
  2  1  2  0
  3  1  1  0
  4  2  1  0
  7  5  2  0
  8  6  1  0
 10  5  1  0
 10  6  2  0
 11  7  1  0
 11  8  2  0
 12  3  2  0
 13  4  2  0
 13 12  1  0
 14  9  1  0
 15 10  1  0
 16  9  2  0
 16 12  1  0
 17 13  1  0
 17 14  1  0
 18 14  2  3
 21 11  1  0
 21 18  1  0
 21 19  2  0
 21 20  2  0
M  END
>  <NAME>  (376) 
2-SULFANILAMIDOQUINOXALINE

>  <SYNONYMS>  (376) 
SULFAQUNOXALINE

>  <SPECTRUM TYPE>  (376) 
MS1

>  <INSTRUMENT TYPE>  (376) 
EI-B

>  <INSTRUMENT>  (376) 
HITACHI M-2500

>  <ION MODE>  (376) 
P

>  <INCHIKEY>  (376) 
NHZLNPMOSADWGC-UHFFFAOYSA-N

>  <FORMULA>  (376) 
C14H12N4O2S

>  <EXACT MASS>  (376) 
300.06809662399996

>  <MW>  (376) 
300

>  <ID>  (376) 
JP011620

>  <CONTRIBUTOR>  (376) 
University of Tokyo Team, {Faculty of Engineering, University of Tokyo

>  <COMMENT>  (376) 
SMILES=Nc(c3)ccc(c3)S(=O)(=O)Nc(c1)nc(c2)c(ccc2)n1
InChI=InChI=1S/C14H12N4O2S/c15-10-5-7-11(8-6-10)21(19,20)18-14-9-16-12-3-1-2-4-13(12)17-14/h1-9H,15H2,(H,17,18)
computed SMILES=O=S(=O)(N=C1C=NC=2C=CC=CC2N1)C3=CC=C(N)C=C3
accession=JP011620
date=2016.01.19 (Created 2008.10.21, modified 2011.05.06)
author=YAMAMOTO M, DEP. CHEMISTRY, FAC. SCIENCE, NARA WOMEN'S UNIV.
license=CC BY-NC-SA
exact mass=300.0681
ionization energy=70 eV
ion type=[M]+*
computed spectral entropy=2.8952101367610696
computed normalized entropy=0.7650806161538168
SPLASH=splash10-000i-8490000000-cc9214994a8554fe8414
submitter=submitter = University of Tokyo Team (Faculty of Engineering, University of Tokyo)
MoNA Rating=3.75

>  <NUM PEAKS>  (376) 
44

>  <MASS SPECTRAL PEAKS>  (376) 
27 1.04
28 1.6
38 1.81
39 8.76
40 1.25
41 1.86
50 1.74
51 1.88
52 2.74
62 1.82
63 6.86
64 5.97
65 26.25
66 4.07
75 1.21
76 1.75
80 2.17
89 1.35
90 16.76
91 6.16
92 52.38
93 8.92
102 2.06
107 1.44
108 28.35
109 2.62
116 1.54
117 4.76
118 9.47
119 1.61
129 1.5
140 5.14
144 4.58
145 10.02
146 1.25
156 17.85
157 2.12
234 3.56
235 54.24
236 99.99
237 16.11
238 1.25
300 10.88
301 2.42

>  <PREDICTED SPECTRUM>  (376) 
33 7
34 7
36 77
37 135
38 226
39 388
40 159
41 268
42 98
43 91
44 166
45 111
48 172
49 130
50 324
51 381
52 520
53 352
54 229
55 72
58 34
60 6
61 91
62 261
63 510
64 526
65 865
66 382
67 35
68 31
69 58
70 6
73 17
74 120
75 208
76 203
77 113
78 287
79 225
80 244
81 202
82 38
83 10
87 22
88 72
89 196
90 331
91 372
92 912
93 383
94 50
100 58
102 151
103 60
104 57
105 241
106 151
107 78
108 553
109 93
115 139
116 231
117 285
118 365
119 209
120 45
121 44
122 5
123 63
124 36
128 32
131 36
132 196
133 204
134 0
139 86
140 181
142 53
143 109
144 420
145 232
146 51
151 30
156 999
157 512
158 533
160 124
192 39
218 73
219 0
220 78
235 281
236 305
237 51
300 186
301 62

$$$$

     RDKit          2D

 12 12  0  0  0  0  0  0  0  0999 V2000
    1.3000   -1.1200    0.0000 C   0  0  0  0  0  0  0  0  0  0  0  0
   -0.0000   -1.8800    0.0000 C   0  0  0  0  0  0  0  0  0  0  0  0
    0.0000    1.1200    0.0000 C   0  0  0  0  0  0  0  0  0  0  0  0
    1.3000    0.3800    0.0000 C   0  0  0  0  0  0  0  0  0  0  0  0
   -1.3000    0.3800    0.0000 C   0  0  0  0  0  0  0  0  0  0  0  0
    2.5967    1.1340    0.0000 C   0  0  0  0  0  0  0  0  0  0  0  0
   -2.5967    1.1340    0.0000 C   0  0  0  0  0  0  0  0  0  0  0  0
   -1.3000   -1.1200    0.0000 N   0  0  0  0  0  0  0  0  0  0  0  0
    2.5922    2.6340    0.0000 O   0  0  0  0  0  0  0  0  0  0  0  0
    3.8981    0.3879    0.0000 O   0  0  0  0  0  0  0  0  0  0  0  0
   -3.8981    0.3879    0.0000 O   0  0  0  0  0  0  0  0  0  0  0  0
   -2.5922    2.6340    0.0000 O   0  0  0  0  0  0  0  0  0  0  0  0
  2  1  2  0
  4  1  1  0
  4  3  2  0
  5  3  1  0
  6  4  1  0
  7  5  1  0
  8  2  1  0
  8  5  2  0
  9  6  2  0
 10  6  1  0
 11  7  1  0
 12  7  2  0
M  END
>  <NAME>  (377) 
2,4-PYRIDINEDICARBOXYLIC ACID

>  <SYNONYMS>  (377) 


>  <SPECTRUM TYPE>  (377) 
MS1

>  <INSTRUMENT TYPE>  (377) 
EI-B

>  <INSTRUMENT>  (377) 
HITACHI M-2500

>  <ION MODE>  (377) 
P

>  <INCHIKEY>  (377) 
MJIVRKPEXXHNJT-UHFFFAOYSA-N

>  <FORMULA>  (377) 
C7H5NO4

>  <EXACT MASS>  (377) 
167.02185764

>  <MW>  (377) 
167

>  <ID>  (377) 
JP011619

>  <CONTRIBUTOR>  (377) 
University of Tokyo Team, {Faculty of Engineering, University of Tokyo

>  <COMMENT>  (377) 
SMILES=OC(=O)c(c1)cc(nc1)C(O)=O
InChI=InChI=1S/C7H5NO4/c9-6(10)4-1-2-8-5(3-4)7(11)12/h1-3H,(H,9,10)(H,11,12)
computed SMILES=O=C(O)C1=NC=CC(=C1)C(=O)O
accession=JP011619
date=2016.01.19 (Created 2008.10.21, modified 2011.05.06)
author=YAMAMOTO M, DEP. CHEMISTRY, FAC. SCIENCE, NARA WOMEN'S UNIV.
license=CC BY-NC-SA
exact mass=167.02186
ionization energy=70 eV
ion type=[M]+*
computed spectral entropy=2.5252605244254354
computed normalized entropy=0.7161095715533243
SPLASH=splash10-01b9-3900000000-9761e6214187542c251d
submitter=submitter = University of Tokyo Team (Faculty of Engineering, University of Tokyo)
MoNA Rating=3.75

>  <NUM PEAKS>  (377) 
34

>  <MASS SPECTRAL PEAKS>  (377) 
28 1
38 1.12
39 3.34
44 1.18
45 5.37
49 1.37
50 7
51 9.77
52 5.57
53 1.27
66 3.39
67 2.67
68 2.73
75 1.49
76 3.81
77 6.83
78 8.51
79 3.24
80 2.84
94 7.45
95 1.06
96 3.18
105 2.52
106 4.1
122 8.55
123 66.21
124 8.91
137 1.84
138 2.33
150 25.54
151 2.32
168 99.99
169 8.62
170 1.2

>  <PREDICTED SPECTRUM>  (377) 
16 7
25 5
26 27
28 3
29 7
34 3
36 85
37 182
38 291
39 356
40 227
41 241
42 121
43 135
44 344
45 629
46 143
47 21
48 5
49 171
50 437
51 578
52 425
53 438
54 157
55 68
57 6
63 47
64 61
65 124
66 298
67 220
68 256
69 67
75 150
76 258
77 427
78 535
79 293
80 78
92 44
93 87
94 197
95 308
96 38
105 201
106 212
121 9
122 401
123 999
124 153
139 24
150 347
151 56
167 401
168 124

$$$$

     RDKit          2D

 12 12  0  0  0  0  0  0  0  0999 V2000
    0.0000    1.5000    0.0000 C   0  0  0  0  0  0  0  0  0  0  0  0
    1.3000    0.7500    0.0000 C   0  0  0  0  0  0  0  0  0  0  0  0
   -1.3000   -0.7500    0.0000 C   0  0  0  0  0  0  0  0  0  0  0  0
   -1.3000    0.7500    0.0000 C   0  0  0  0  0  0  0  0  0  0  0  0
    1.3000   -0.7500    0.0000 C   0  0  0  0  0  0  0  0  0  0  0  0
   -2.5989    1.5002    0.0000 C   0  0  0  0  0  0  0  0  0  0  0  0
    2.5989   -1.5002    0.0000 C   0  0  0  0  0  0  0  0  0  0  0  0
    0.0000   -1.5000    0.0000 N   0  0  0  0  0  0  0  0  0  0  0  0
   -2.5987    3.0002    0.0000 O   0  0  0  0  0  0  0  0  0  0  0  0
   -3.8981    0.7504    0.0000 O   0  0  0  0  0  0  0  0  0  0  0  0
    3.8981   -0.7504    0.0000 O   0  0  0  0  0  0  0  0  0  0  0  0
    2.5987   -3.0002    0.0000 O   0  0  0  0  0  0  0  0  0  0  0  0
  2  1  2  0
  4  1  1  0
  4  3  2  0
  5  2  1  0
  6  4  1  0
  7  5  1  0
  8  3  1  0
  8  5  2  0
  9  6  2  0
 10  6  1  0
 11  7  1  0
 12  7  2  0
M  END
>  <NAME>  (378) 
2,5-PYRIDINEDICARBOXYLIC ACID

>  <SYNONYMS>  (378) 
ISOCINCHOMERONIC ACID

>  <SPECTRUM TYPE>  (378) 
MS1

>  <INSTRUMENT TYPE>  (378) 
EI-B

>  <INSTRUMENT>  (378) 
HITACHI M-2500

>  <ION MODE>  (378) 
P

>  <INCHIKEY>  (378) 
LVPMIMZXDYBCDF-UHFFFAOYSA-N

>  <FORMULA>  (378) 
C7H5NO4

>  <EXACT MASS>  (378) 
167.02185763999998

>  <MW>  (378) 
167

>  <ID>  (378) 
JP011617

>  <CONTRIBUTOR>  (378) 
University of Tokyo Team, {Faculty of Engineering, University of Tokyo

>  <COMMENT>  (378) 
SMILES=OC(=O)c(c1)cnc(c1)C(O)=O
cas=100-26-5
InChI=InChI=1S/C7H5NO4/c9-6(10)4-1-2-5(7(11)12)8-3-4/h1-3H,(H,9,10)(H,11,12)
computed SMILES=O=C(O)C1=NC=C(C=C1)C(=O)O
accession=JP011617
date=2016.01.19 (Created 2008.10.21, modified 2011.05.06)
author=YAMAMOTO M, DEP. CHEMISTRY, FAC. SCIENCE, NARA WOMEN'S UNIV.
license=CC BY-NC-SA
exact mass=167.02186
ionization energy=70 eV
ion type=[M]+*
computed spectral entropy=2.527112676263079
computed normalized entropy=0.7227533851530341
SPLASH=splash10-01b9-3900000000-8e114fc34ace946d02eb
submitter=submitter = University of Tokyo Team (Faculty of Engineering, University of Tokyo)
MoNA Rating=3.75

>  <NUM PEAKS>  (378) 
33

>  <MASS SPECTRAL PEAKS>  (378) 
27 1.11
28 1.13
38 1.39
39 3.66
44 1.5
45 6.75
49 1.54
50 7.52
51 11.45
52 6.23
53 2.07
66 1.68
67 2.86
68 2.95
75 1.74
76 3.89
77 9.9
78 11.82
79 4.12
80 2.87
94 6.27
95 1.15
96 3.89
105 4.43
106 4.6
122 11.81
123 81.13
124 9.34
150 27.76
151 2.51
168 99.99
169 8.51
170 1.18

>  <PREDICTED SPECTRUM>  (378) 
16 5
25 3
26 37
27 5
28 23
29 32
36 87
37 150
38 272
39 353
40 196
41 262
42 127
43 133
44 330
45 679
46 74
47 37
48 27
49 145
50 395
51 525
52 350
53 400
54 150
55 89
57 98
65 173
66 267
67 262
68 286
69 134
75 50
76 224
77 334
78 470
79 259
80 73
81 209
92 21
93 97
94 280
95 325
96 95
105 187
106 222
121 134
122 634
123 999
124 168
125 13
137 18
139 73
150 318
151 25
167 395
168 114

$$$$

     RDKit          2D

 12 12  0  0  0  0  0  0  0  0999 V2000
   -1.9500   -0.7500    0.0000 C   0  0  0  0  0  0  0  0  0  0  0  0
   -0.6500   -1.5000    0.0000 C   0  0  0  0  0  0  0  0  0  0  0  0
   -1.9500    0.7500    0.0000 C   0  0  0  0  0  0  0  0  0  0  0  0
    0.6500   -0.7500    0.0000 C   0  0  0  0  0  0  0  0  0  0  0  0
    0.6500    0.7500    0.0000 C   0  0  0  0  0  0  0  0  0  0  0  0
    1.9489   -1.5002    0.0000 C   0  0  0  0  0  0  0  0  0  0  0  0
    1.9489    1.5002    0.0000 C   0  0  0  0  0  0  0  0  0  0  0  0
   -0.6500    1.5000    0.0000 N   0  0  0  0  0  0  0  0  0  0  0  0
    3.2481   -0.7504    0.0000 O   0  0  0  0  0  0  0  0  0  0  0  0
    1.9487   -3.0002    0.0000 O   0  0  0  0  0  0  0  0  0  0  0  0
    3.2481    0.7504    0.0000 O   0  0  0  0  0  0  0  0  0  0  0  0
    1.9487    3.0002    0.0000 O   0  0  0  0  0  0  0  0  0  0  0  0
  2  1  2  0
  3  1  1  0
  4  2  1  0
  5  4  2  0
  6  4  1  0
  7  5  1  0
  8  3  2  0
  8  5  1  0
  9  6  2  0
 10  6  1  0
 11  7  2  0
 12  7  1  0
M  END
>  <NAME>  (379) 
2,3-PYRIDINEDICARBOXYLIC ACID

>  <SYNONYMS>  (379) 
QUINOLINIC ACID

>  <SPECTRUM TYPE>  (379) 
MS1

>  <INSTRUMENT TYPE>  (379) 
EI-B

>  <INSTRUMENT>  (379) 
HITACHI M-2500

>  <ION MODE>  (379) 
P

>  <INCHIKEY>  (379) 
GJAWHXHKYYXBSV-UHFFFAOYSA-N

>  <FORMULA>  (379) 
C7H5NO4

>  <EXACT MASS>  (379) 
167.02185764

>  <MW>  (379) 
167

>  <ID>  (379) 
JP011615

>  <CONTRIBUTOR>  (379) 
University of Tokyo Team, {Faculty of Engineering, University of Tokyo

>  <COMMENT>  (379) 
SMILES=OC(=O)c(c1)c(ncc1)C(O)=O
cas=89-00-9
InChI=InChI=1S/C7H5NO4/c9-6(10)4-2-1-3-8-5(4)7(11)12/h1-3H,(H,9,10)(H,11,12)
computed SMILES=O=C(O)C1=NC=CC=C1C(=O)O
ion type=[M]+*
accession=JP011615
date=2016.01.19 (Created 2008.10.21, modified 2011.05.06)
author=YAMAMOTO M, DEP. CHEMISTRY, FAC. SCIENCE, NARA WOMEN'S UNIV.
license=CC BY-NC-SA
exact mass=167.02186
ionization energy=70 eV
computed spectral entropy=2.92284815211004
computed normalized entropy=0.7923403809930416
SPLASH=splash10-0100-5900000000-3d726d602fec21fd8beb
submitter=submitter = University of Tokyo Team (Faculty of Engineering, University of Tokyo)
MoNA Rating=3.75

>  <NUM PEAKS>  (379) 
40

>  <MASS SPECTRAL PEAKS>  (379) 
26 2.49
27 1.41
28 2.36
37 1.56
38 2.32
39 9.21
40 1.15
43 1.16
44 8.4
45 7.82
49 3.4
50 14.1
51 17.5
52 17.71
53 2.95
66 4.14
67 4.13
75 2.67
76 6.58
77 25.59
78 20.83
79 50.53
80 7.62
94 7.29
95 6.01
96 3.43
105 40.61
106 25.61
107 1.65
122 4.82
123 97.03
124 58.85
125 4.39
140 2.24
144 2.18
150 22.14
151 1.94
156 4.47
168 99.99
169 8.47

>  <PREDICTED SPECTRUM>  (379) 
14 8
16 39
17 29
18 38
25 39
26 88
27 94
28 170
29 46
34 11
36 69
37 225
38 330
39 378
40 270
41 182
42 167
43 107
44 426
45 593
46 146
47 38
48 41
49 219
50 518
51 522
52 448
53 484
54 53
55 96
56 78
57 26
60 58
64 137
65 343
66 517
67 282
68 188
75 55
76 317
77 655
78 635
79 738
80 205
93 75
94 165
95 456
96 1
104 44
105 634
106 426
107 30
121 220
122 191
123 999
124 181
150 131
167 48

$$$$

     RDKit          2D

 12 12  0  0  0  0  0  0  0  0999 V2000
    0.0100    1.8800    0.0000 C   0  0  0  0  0  0  0  0  0  0  0  0
    1.3000    1.1200    0.0000 C   0  0  0  0  0  0  0  0  0  0  0  0
   -1.3000    1.1200    0.0000 C   0  0  0  0  0  0  0  0  0  0  0  0
    1.3000   -0.3800    0.0000 C   0  0  0  0  0  0  0  0  0  0  0  0
   -1.3000   -0.3800    0.0000 C   0  0  0  0  0  0  0  0  0  0  0  0
    2.6002   -1.1280    0.0000 C   0  0  0  0  0  0  0  0  0  0  0  0
   -2.5977   -1.1324    0.0000 C   0  0  0  0  0  0  0  0  0  0  0  0
    0.0100   -1.1300    0.0000 N   0  0  0  0  0  0  0  0  0  0  0  0
    3.8981   -0.3761    0.0000 O   0  0  0  0  0  0  0  0  0  0  0  0
    2.6024   -2.6280    0.0000 O   0  0  0  0  0  0  0  0  0  0  0  0
   -2.5950   -2.6324    0.0000 O   0  0  0  0  0  0  0  0  0  0  0  0
   -3.8981   -0.3847    0.0000 O   0  0  0  0  0  0  0  0  0  0  0  0
  2  1  2  0
  3  1  1  0
  4  2  1  0
  5  3  2  0
  6  4  1  0
  7  5  1  0
  8  4  2  0
  8  5  1  0
  9  6  1  0
 10  6  2  0
 11  7  2  0
 12  7  1  0
M  END
>  <NAME>  (380) 
2,6-PYRIDINE DICARBOXYLIC ACID

>  <SYNONYMS>  (380) 


>  <SPECTRUM TYPE>  (380) 
MS1

>  <INSTRUMENT TYPE>  (380) 
EI-B

>  <INSTRUMENT>  (380) 
HITACHI M-2500

>  <ION MODE>  (380) 
P

>  <INCHIKEY>  (380) 
WJJMNDUMQPNECX-UHFFFAOYSA-N

>  <FORMULA>  (380) 
C7H5NO4

>  <EXACT MASS>  (380) 
167.02185763999998

>  <MW>  (380) 
167

>  <ID>  (380) 
JP011613

>  <CONTRIBUTOR>  (380) 
University of Tokyo Team, {Faculty of Engineering, University of Tokyo

>  <COMMENT>  (380) 
SMILES=OC(=O)c(c1)nc(cc1)C(O)=O
cas=499-83-2
InChI=InChI=1S/C7H5NO4/c9-6(10)4-2-1-3-5(8-4)7(11)12/h1-3H,(H,9,10)(H,11,12)
computed SMILES=O=C(O)C=1N=C(C=CC1)C(=O)O
accession=JP011613
date=2016.01.19 (Created 2008.10.21, modified 2011.05.06)
author=YAMAMOTO M, DEP. CHEMISTRY, FAC. SCIENCE, NARA WOMEN'S UNIV.
license=CC BY-NC-SA
exact mass=167.02186
ionization energy=70 eV
ion type=[M]+*
computed spectral entropy=3.250885083025195
computed normalized entropy=0.7846438259217693
SPLASH=splash10-0g29-9200000000-bbc0b97db569b40d51b6
submitter=submitter = University of Tokyo Team (Faculty of Engineering, University of Tokyo)
MoNA Rating=3.75

>  <NUM PEAKS>  (380) 
63

>  <MASS SPECTRAL PEAKS>  (380) 
15 1.58
16 2.14
17 20.22
18 86.54
20 1.94
26 8.32
27 11.71
28 19.02
29 3.71
30 1.83
31 1.1
32 3.78
37 3.65
38 6.42
39 13.67
40 2.39
41 6.28
42 2.23
43 5.29
44 12.67
45 18.91
49 4.99
50 28.4
51 42.76
52 22.52
53 6.69
54 1.09
55 3.81
56 3.24
57 4.14
58 1.02
60 2.11
61 1.02
65 1.78
66 6.58
67 2.5
68 1.49
69 2.49
70 1.1
71 1.31
73 2.32
74 1.1
75 7.28
76 12.48
77 73.26
78 22.6
79 12.62
80 1.38
81 1.36
83 1.4
85 1.09
87 1.05
93 1.5
94 8.33
95 1.48
104 1.63
106 6.51
122 7.94
123 99.99
124 7.64
138 3.82
149 1.86
150 1.6

>  <PREDICTED SPECTRUM>  (380) 
16 10
25 1
26 4
36 46
37 132
38 177
39 115
40 109
41 109
42 77
43 89
44 469
45 565
46 86
47 31
48 5
49 187
50 579
51 697
52 458
53 335
54 106
55 79
61 13
62 147
63 193
64 115
65 71
66 218
67 51
68 21
69 2
74 41
75 302
76 427
77 704
78 714
79 421
80 102
92 10
93 80
94 145
95 174
105 456
106 229
121 24
122 227
123 999
124 224
125 81
150 78
167 196
168 70

$$$$

     RDKit          2D

 10  9  0  0  0  0  0  0  0  0999 V2000
    1.7108    1.8113    0.0000 C   0  0  0  0  0  0  0  0  0  0  0  0
    0.4118    1.0613    0.0000 C   0  0  0  0  0  0  0  0  0  0  0  0
    1.7108    3.3113    0.0000 C   0  0  0  0  0  0  0  0  0  0  0  0
    1.1618   -0.2377    0.0000 F   0  0  0  0  0  0  0  0  0  0  0  0
   -0.3382    2.3603    0.0000 F   0  0  0  0  0  0  0  0  0  0  0  0
   -0.8873    0.3113    0.0000 F   0  0  0  0  0  0  0  0  0  0  0  0
    3.2108    3.3113    0.0000 F   0  0  0  0  0  0  0  0  0  0  0  0
    1.7108    4.8113    0.0000 F   0  0  0  0  0  0  0  0  0  0  0  0
    0.2108    3.3113    0.0000 F   0  0  0  0  0  0  0  0  0  0  0  0
    3.0099    1.0613    0.0000 O   0  0  0  0  0  0  0  0  0  0  0  0
  2  1  1  0
  3  1  1  0
  4  2  1  0
  5  2  1  0
  6  2  1  0
  7  3  1  0
  8  3  1  0
  9  3  1  0
 10  1  1  0
M  END
>  <NAME>  (381) 
HEXAFLUOROISOPROPANOL

>  <SYNONYMS>  (381) 
1,1,1,3,3,3-HEXAFLUORO-2-PROPANOL

>  <SPECTRUM TYPE>  (381) 
MS1

>  <INSTRUMENT TYPE>  (381) 
EI-B

>  <INSTRUMENT>  (381) 
HITACHI M-2500

>  <ION MODE>  (381) 
P

>  <INCHIKEY>  (381) 
BYEAHWXPCBROCE-UHFFFAOYSA-N

>  <FORMULA>  (381) 
C3H2F6O

>  <EXACT MASS>  (381) 
168.000984004

>  <MW>  (381) 
168

>  <ID>  (381) 
JP011611

>  <CONTRIBUTOR>  (381) 
University of Tokyo Team, {Faculty of Engineering, University of Tokyo

>  <COMMENT>  (381) 
SMILES=OC(C(F)(F)F)C(F)(F)F
cas=920-66-1
InChI=InChI=1S/C3H2F6O/c4-2(5,6)1(10)3(7,8)9/h1,10H
computed SMILES=FC(F)(F)C(O)C(F)(F)F
ion type=[M]+*
accession=JP011611
date=2016.01.19 (Created 2008.10.21, modified 2011.05.06)
author=YAMAMOTO M, DEP. CHEMISTRY, FAC. SCIENCE, NARA WOMEN'S UNIV.
license=CC BY-NC-SA
exact mass=168.00098
ionization energy=70 eV
computed spectral entropy=2.5388116844189654
computed normalized entropy=0.7464464420992396
SPLASH=splash10-0f92-9100000000-ca9bd0b3175790aec673
submitter=submitter = University of Tokyo Team (Faculty of Engineering, University of Tokyo)
MoNA Rating=3.75

>  <NUM PEAKS>  (381) 
30

>  <MASS SPECTRAL PEAKS>  (381) 
17 1.37
18 6.07
28 1.7
29 56.41
30 2.47
31 10.03
32 4.92
44 1.25
47 1.15
49 54.23
50 9.71
51 92.25
52 1.3
60 3.36
63 1.88
67 2.85
69 51.9
78 3.68
79 52.04
80 9.2
82 1.36
93 1.13
97 1.95
99 99.99
100 3.28
101 26.2
113 1.43
129 43.92
130 1.38
149 10.99

>  <PREDICTED SPECTRUM>  (381) 
14 16
15 30
19 26
25 6
27 35
28 39
29 241
30 19
31 224
32 73
33 153
36 0
37 41
38 49
45 118
47 187
48 12
49 198
50 209
51 564
52 110
53 146
54 70
55 97
56 13
59 46
60 54
61 175
63 143
64 11
65 79
67 132
69 999
73 58
78 69
79 272
80 193
81 288
82 400
98 74
99 436
100 165
101 44
113 225
129 325
130 74
131 65
148 83
149 314
150 41
168 16

$$$$

     RDKit          2D

  7  6  0  0  0  0  0  0  0  0999 V2000
   -2.3078    1.1781    0.0000 C   0  0  0  0  0  0  0  0  0  0  0  0
   -0.3794    1.1781    0.0000 C   0  0  0  0  0  0  0  0  0  0  0  0
    1.2545    2.3272    0.0000 C   0  0  0  0  0  0  0  0  0  0  0  0
   -3.9417    2.3272    0.0000 C   0  0  0  0  0  0  0  0  0  0  0  0
   -1.3436    2.3272    0.0000 C   0  0  0  0  0  0  0  0  0  0  0  0
   -0.0445    3.0772    0.0000 O   0  0  0  0  0  0  0  0  0  0  0  0
   -2.6426    3.0772    0.0000 O   0  0  0  0  0  0  0  0  0  0  0  0
  5  1  1  0
  5  2  1  0
  6  3  1  0
  6  5  1  0
  7  4  1  0
  7  5  1  0
M  END
>  <NAME>  (382) 
2,2-DIMETHOXYPROPANE

>  <SYNONYMS>  (382) 


>  <SPECTRUM TYPE>  (382) 
MS1

>  <INSTRUMENT TYPE>  (382) 
EI-B

>  <INSTRUMENT>  (382) 
HITACHI M-2500

>  <ION MODE>  (382) 
P

>  <INCHIKEY>  (382) 
HEWZVZIVELJPQZ-UHFFFAOYSA-N

>  <FORMULA>  (382) 
C5H12O2

>  <EXACT MASS>  (382) 
104.083729624

>  <MW>  (382) 
104

>  <ID>  (382) 
JP011610

>  <CONTRIBUTOR>  (382) 
University of Tokyo Team, {Faculty of Engineering, University of Tokyo

>  <COMMENT>  (382) 
SMILES=COC(C)(C)OC
cas=77-76-9
InChI=InChI=1S/C5H12O2/c1-5(2,6-3)7-4/h1-4H3
computed SMILES=O(C)C(OC)(C)C
accession=JP011610
date=2016.01.19 (Created 2008.10.21, modified 2011.05.06)
author=YAMAMOTO M, DEP. CHEMISTRY, FAC. SCIENCE, NARA WOMEN'S UNIV.
license=CC BY-NC-SA
exact mass=104.08373
ionization energy=70 eV
ion type=[M]+*
computed spectral entropy=2.17633003146645
computed normalized entropy=0.7148346172458581
SPLASH=splash10-00dl-9000000000-cf50cb8dd1f78918a0f5
submitter=submitter = University of Tokyo Team (Faculty of Engineering, University of Tokyo)
MoNA Rating=3.75

>  <NUM PEAKS>  (382) 
21

>  <MASS SPECTRAL PEAKS>  (382) 
15 6.78
27 5.03
28 1.03
29 5.73
31 5.81
32 2.39
33 1.05
39 6.08
40 1.94
41 12.66
42 11.97
43 36.11
45 5.81
47 3.27
55 2.42
57 2.13
72 6.89
73 99.99
74 4.71
89 23.18
90 1.01

>  <PREDICTED SPECTRUM>  (382) 
14 77
15 300
16 17
19 43
25 25
26 122
27 510
28 205
29 547
30 62
31 514
32 137
33 159
37 7
38 66
39 388
40 177
41 604
42 388
43 687
44 51
45 525
47 42
50 97
53 3
54 64
55 401
56 35
57 312
58 113
59 535
60 48
71 49
72 13
73 999
74 267
89 243

$$$$

     RDKit          2D

  9  9  0  0  0  0  0  0  0  0999 V2000
    3.8981   -0.7504    0.0000 C   0  0  0  0  0  0  0  0  0  0  0  0
    2.5987   -3.0002    0.0000 C   0  0  0  0  0  0  0  0  0  0  0  0
   -1.3000    0.7500    0.0000 C   0  0  0  0  0  0  0  0  0  0  0  0
    0.0000    1.5000    0.0000 C   0  0  0  0  0  0  0  0  0  0  0  0
   -1.3000   -0.7500    0.0000 C   0  0  0  0  0  0  0  0  0  0  0  0
    1.3000    0.7500    0.0000 C   0  0  0  0  0  0  0  0  0  0  0  0
    0.0000   -1.5000    0.0000 C   0  0  0  0  0  0  0  0  0  0  0  0
    1.3000   -0.7500    0.0000 C   0  0  0  0  0  0  0  0  0  0  0  0
    2.5989   -1.5002    0.0000 Si  0  0  0  0  0  4  0  0  0  0  0  0
  4  3  2  0
  5  3  1  0
  6  4  1  0
  7  5  2  0
  8  6  2  0
  8  7  1  0
  9  1  1  0
  9  2  1  0
  9  8  1  0
M  END
>  <NAME>  (383) 
DIMETHYLPHENYLSILANE

>  <SYNONYMS>  (383) 


>  <SPECTRUM TYPE>  (383) 
MS1

>  <INSTRUMENT TYPE>  (383) 
EI-B

>  <INSTRUMENT>  (383) 
HITACHI RMU-6M

>  <ION MODE>  (383) 
P

>  <INCHIKEY>  (383) 
ZISUALSZTAEPJH-UHFFFAOYSA-N

>  <FORMULA>  (383) 
C8H12Si

>  <EXACT MASS>  (383) 
136.070826914

>  <MW>  (383) 
136

>  <ID>  (383) 
JP011609

>  <CONTRIBUTOR>  (383) 
University of Tokyo Team, {Faculty of Engineering, University of Tokyo

>  <COMMENT>  (383) 
SMILES=C[SiH](C)c(c1)cccc1
InChI=InChI=1S/C8H12Si/c1-9(2)8-6-4-3-5-7-8/h3-7,9H,1-2H3
computed SMILES=C=1C=CC(=CC1)[SiH](C)C
accession=JP011609
date=2016.01.19 (Created 2008.10.21, modified 2011.05.06)
author=YAMAMOTO M, DEP. CHEMISTRY, FAC. SCIENCE, NARA WOMEN'S UNIV.
license=CC BY-NC-SA
exact mass=136.07083
ionization energy=70 eV
ion type=[M]+*
computed spectral entropy=2.8714765289517525
computed normalized entropy=0.7634468894570515
SPLASH=splash10-05g0-7900000000-320bd44f93d424b212a8
submitter=submitter = University of Tokyo Team (Faculty of Engineering, University of Tokyo)
MoNA Rating=3.75

>  <NUM PEAKS>  (383) 
43

>  <MASS SPECTRAL PEAKS>  (383) 
27 1.5
28 3.4
29 3.9
31 2.5
39 3.4
42 2
43 30.5
44 2.5
45 2
50 2.5
51 4.9
53 14.3
54 2
55 3.4
58 60.1
59 8.4
60 1.7
65 1.7
66 3
67 4.9
69 4.4
77 2.5
78 1.5
79 5.9
81 2
91 3.9
93 4.9
95 3.4
103 2
105 18.2
106 3
107 3.9
117 1.2
119 4.9
120 4.4
121 99.99
122 13.3
123 4.4
134 1.2
135 26.6
136 46.2
137 6.9
138 2

>  <PREDICTED SPECTRUM>  (383) 
15 34
25 8
26 60
27 122
28 50
29 103
31 165
32 8
36 5
37 32
38 49
39 235
40 80
41 207
42 89
43 490
44 241
45 414
46 102
47 122
49 20
50 200
51 334
52 186
53 308
54 139
55 239
56 114
57 177
58 453
59 543
60 243
61 135
62 71
63 173
64 21
65 238
66 118
67 179
71 10
73 35
74 102
75 133
76 87
77 364
78 356
79 197
80 37
81 53
82 46
83 30
84 6
90 64
91 422
92 142
93 156
94 26
95 107
96 47
103 9
105 707
106 207
107 182
117 91
118 27
119 381
120 314
121 999
122 395
123 227
124 8
132 22
133 186
134 252
135 713
136 661
137 270
138 3

$$$$

     RDKit          2D

 10 10  0  0  0  0  0  0  0  0999 V2000
    1.8487   -2.7991    0.0000 C   0  0  0  0  0  0  0  0  0  0  0  0
    3.3491   -0.2013    0.0000 C   0  0  0  0  0  0  0  0  0  0  0  0
   -1.3000    0.7500    0.0000 C   0  0  0  0  0  0  0  0  0  0  0  0
    0.0000    1.5000    0.0000 C   0  0  0  0  0  0  0  0  0  0  0  0
   -1.3000   -0.7500    0.0000 C   0  0  0  0  0  0  0  0  0  0  0  0
    1.3000    0.7500    0.0000 C   0  0  0  0  0  0  0  0  0  0  0  0
    0.0000   -1.5000    0.0000 C   0  0  0  0  0  0  0  0  0  0  0  0
    1.3000   -0.7500    0.0000 C   0  0  0  0  0  0  0  0  0  0  0  0
    2.5989   -1.5002    0.0000 Si  0  0  0  0  0  4  0  0  0  0  0  0
    3.8978   -2.2504    0.0000 H   0  0  0  0  0  0  0  0  0  0  0  0
  9 10  1  0
  4  3  2  0
  5  3  1  0
  6  4  1  0
  7  5  2  0
  8  6  2  0
  8  7  1  0
  9  1  1  0
  9  2  1  0
  9  8  1  0
M  ISO  1  10   2
M  END
>  <NAME>  (384) 
DIMETHYLPHENYLSILANE(1-D)

>  <SYNONYMS>  (384) 


>  <SPECTRUM TYPE>  (384) 
MS1

>  <INSTRUMENT TYPE>  (384) 
EI-B

>  <INSTRUMENT>  (384) 
HITACHI RMU-6M

>  <ION MODE>  (384) 
P

>  <INCHIKEY>  (384) 
ZISUALSZTAEPJH-QOWOAITPSA-N

>  <FORMULA>  (384) 
C8H12Si

>  <EXACT MASS>  (384) 
137.07710366

>  <MW>  (384) 
137

>  <ID>  (384) 
JP011608

>  <CONTRIBUTOR>  (384) 
University of Tokyo Team, {Faculty of Engineering, University of Tokyo

>  <COMMENT>  (384) 
SMILES=c(c1)ccc(c1)[Si]([2H])(C)C
InChI=InChI=1S/C8H12Si/c1-9(2)8-6-4-3-5-7-8/h3-7,9H,1-2H3/i9D
computed SMILES=[H][Si](C=1C=CC=CC1)(C)C
accession=JP011608
date=2016.01.19 (Created 2008.10.21, modified 2011.05.06)
author=YAMAMOTO M, DEP. CHEMISTRY, FAC. SCIENCE, NARA WOMEN'S UNIV.
license=CC BY-NC-SA
exact mass=136.07083
ionization energy=70 eV
ion type=[M]+*
computed spectral entropy=3.104224554699921
computed normalized entropy=0.7581737461331742
SPLASH=splash10-05fr-8900000000-fd6c98accbde8b3a4559
submitter=submitter = University of Tokyo Team (Faculty of Engineering, University of Tokyo)
MoNA Rating=3.75

>  <NUM PEAKS>  (384) 
60

>  <MASS SPECTRAL PEAKS>  (384) 
27 1.4
28 1.7
29 4.1
31 2.1
32 1.4
39 2.8
42 1.7
43 29.9
44 7.9
45 1.7
46 1
50 2.8
51 6.2
52 1.4
53 15.5
54 3.1
55 3.3
56 1.4
57 1
58 61.9
59 5.5
60 5.2
61 2.1
63 1
65 1.7
66 2.6
67 3.8
68 2.4
69 2.9
70 2.1
74 1
77 2.1
78 1.2
79 5
80 1.7
81 1.4
82 1.2
91 2.1
92 2.4
93 3.5
94 1.7
95 2.1
96 2.8
103 1.4
105 11.3
106 7.2
107 3.1
108 1.9
117 1
119 2.4
120 4.5
121 2.1
122 99.99
123 13.4
124 5.2
135 10.3
136 9
137 38.1
138 6.2
139 1.9

>  <PREDICTED SPECTRUM>  (384) 
38 20
39 92
40 0
41 7
42 28
43 126
44 150
45 146
46 56
47 39
50 83
51 143
52 77
53 88
54 5
56 4
57 49
58 69
59 143
60 28
61 14
62 12
63 47
65 58
66 19
67 56
69 20
73 162
74 123
75 160
76 29
77 110
78 98
79 29
82 17
91 54
92 32
94 79
95 44
105 5
106 12
120 60
121 48
122 999
123 364
124 194
125 18
136 166
137 669
138 240
139 112

$$$$

     RDKit          2D

 10 10  0  0  0  0  0  0  0  0999 V2000
   -3.8969    2.5696    0.0000 C   0  0  0  0  0  0  0  0  0  0  0  0
   -2.5978    0.3196    0.0000 C   0  0  0  0  0  0  0  0  0  0  0  0
    2.5983    0.3196    0.0000 C   0  0  0  0  0  0  0  0  0  0  0  0
    2.5988    1.8204    0.0000 C   0  0  0  0  0  0  0  0  0  0  0  0
    1.2988   -0.4312    0.0000 C   0  0  0  0  0  0  0  0  0  0  0  0
    1.2998    2.5704    0.0000 C   0  0  0  0  0  0  0  0  0  0  0  0
   -0.0002    0.3188    0.0000 C   0  0  0  0  0  0  0  0  0  0  0  0
   -1.2988    2.5696    0.0000 C   0  0  0  0  0  0  0  0  0  0  0  0
    0.0002    1.8196    0.0000 C   0  0  0  0  0  0  0  0  0  0  0  0
   -2.5978    1.8196    0.0000 Si  0  0  0  0  0  4  0  0  0  0  0  0
  4  3  2  0
  5  3  1  0
  6  4  1  0
  7  5  2  0
  9  6  2  0
  9  7  1  0
  9  8  1  0
 10  1  1  0
 10  2  1  0
 10  8  1  0
M  END
>  <NAME>  (385) 
DIMETHYLBENZYLSILANE

>  <SYNONYMS>  (385) 


>  <SPECTRUM TYPE>  (385) 
MS1

>  <INSTRUMENT TYPE>  (385) 
EI-B

>  <INSTRUMENT>  (385) 
HITACHI RMU-6M

>  <ION MODE>  (385) 
P

>  <INCHIKEY>  (385) 
USQQZWZBVGCDBX-UHFFFAOYSA-N

>  <FORMULA>  (385) 
C9H14Si

>  <EXACT MASS>  (385) 
150.086476978

>  <MW>  (385) 
150

>  <ID>  (385) 
JP011607

>  <CONTRIBUTOR>  (385) 
University of Tokyo Team, {Faculty of Engineering, University of Tokyo

>  <COMMENT>  (385) 
SMILES=C[SiH](C)Cc(c1)cccc1
InChI=InChI=1S/C9H14Si/c1-10(2)8-9-6-4-3-5-7-9/h3-7,10H,8H2,1-2H3
computed SMILES=C=1C=CC(=CC1)C[SiH](C)C
accession=JP011607
date=2016.01.19 (Created 2008.10.21, modified 2011.05.06)
author=YAMAMOTO M, DEP. CHEMISTRY, FAC. SCIENCE, NARA WOMEN'S UNIV.
license=CC BY-NC-SA
exact mass=150.08648
ionization energy=70 eV
ion type=[M]+*
computed spectral entropy=2.9416790851973933
computed normalized entropy=0.7683349733132344
SPLASH=splash10-0a4i-9300000000-0188d6f80b9d1f6e01f2
submitter=submitter = University of Tokyo Team (Faculty of Engineering, University of Tokyo)
MoNA Rating=3.75

>  <NUM PEAKS>  (385) 
46

>  <MASS SPECTRAL PEAKS>  (385) 
27 1.2
28 4.6
29 2.5
31 6.5
32 1.4
39 6
41 1.5
42 1.9
43 19.4
44 2.8
45 3.7
51 2.2
52 2.3
53 4.6
55 1.9
57 1.9
58 11.1
59 99.99
60 8.3
61 4.6
62 1.2
63 2.8
65 6.5
67 2.5
69 1.4
72 6.5
73 1.1
77 2
89 1.5
91 10.2
92 1.2
93 2.8
105 3.7
107 5.6
117 1.5
119 4.2
121 5.6
133 1.2
134 1.9
135 23.2
136 3.7
137 1.4
149 5.6
150 23.2
151 4.6
152 1.2

>  <PREDICTED SPECTRUM>  (385) 
15 30
26 42
27 161
28 59
29 204
31 218
32 0
38 38
39 304
40 57
41 242
42 153
43 474
44 191
45 387
46 2
50 81
51 268
52 161
53 233
54 14
55 161
57 133
58 536
59 999
60 335
61 212
62 81
63 166
64 16
65 449
66 153
67 200
69 124
71 87
72 274
73 226
74 128
75 149
76 43
77 109
78 225
79 112
90 6
91 466
92 260
93 211
95 23
105 260
106 4
107 251
108 112
109 116
116 49
117 31
119 204
121 220
122 5
123 27
133 146
134 28
135 725
136 258
137 62
148 67
149 222
150 563
151 188
152 57

$$$$

     RDKit          2D

 10 10  0  0  0  0  0  0  0  0999 V2000
   -3.8969    2.5696    0.0000 C   0  0  0  0  0  0  0  0  0  0  0  0
   -2.5978    0.3196    0.0000 C   0  0  0  0  0  0  0  0  0  0  0  0
    2.5983    0.3196    0.0000 C   0  0  0  0  0  0  0  0  0  0  0  0
    2.5988    1.8204    0.0000 C   0  0  0  0  0  0  0  0  0  0  0  0
    1.2988   -0.4312    0.0000 C   0  0  0  0  0  0  0  0  0  0  0  0
    1.2998    2.5704    0.0000 C   0  0  0  0  0  0  0  0  0  0  0  0
   -0.0002    0.3188    0.0000 C   0  0  0  0  0  0  0  0  0  0  0  0
   -1.2988    2.5696    0.0000 C   0  0  0  0  0  0  0  0  0  0  0  0
   -2.5978    1.8196    0.0000 C   0  0  0  0  0  0  0  0  0  0  0  0
    0.0002    1.8196    0.0000 C   0  0  0  0  0  0  0  0  0  0  0  0
  4  3  2  0
  5  3  1  0
  6  4  1  0
  7  5  2  0
  9  1  1  0
  9  2  1  0
  9  8  1  0
 10  6  2  0
 10  7  1  0
 10  8  1  0
M  END
>  <NAME>  (386) 
ISO-BUTYLBENZENE

>  <SYNONYMS>  (386) 


>  <SPECTRUM TYPE>  (386) 
MS1

>  <INSTRUMENT TYPE>  (386) 
EI-B

>  <INSTRUMENT>  (386) 
HITACHI RMU-6M

>  <ION MODE>  (386) 
P

>  <INCHIKEY>  (386) 
KXUHSQYYJYAXGZ-UHFFFAOYSA-N

>  <FORMULA>  (386) 
C10H14

>  <EXACT MASS>  (386) 
134.109550448

>  <MW>  (386) 
134

>  <ID>  (386) 
JP011605

>  <CONTRIBUTOR>  (386) 
University of Tokyo Team, {Faculty of Engineering, University of Tokyo

>  <COMMENT>  (386) 
SMILES=CC(C)Cc(c1)cccc1
InChI=InChI=1S/C10H14/c1-9(2)8-10-6-4-3-5-7-10/h3-7,9H,8H2,1-2H3
computed SMILES=C=1C=CC(=CC1)CC(C)C
accession=JP011605
date=2016.01.19 (Created 2008.10.21, modified 2011.05.06)
author=YAMAMOTO M, DEP. CHEMISTRY, FAC. SCIENCE, NARA WOMEN'S UNIV.
license=CC BY-NC-SA
exact mass=134.10955
ionization energy=70 eV
ion type=[M]+*
computed spectral entropy=2.40439754273118
computed normalized entropy=0.700176616730192
SPLASH=splash10-0006-9100000000-441e2bdac95b54c434ff
submitter=submitter = University of Tokyo Team (Faculty of Engineering, University of Tokyo)
MoNA Rating=3.75

>  <NUM PEAKS>  (386) 
31

>  <MASS SPECTRAL PEAKS>  (386) 
27 10.2
28 1.2
29 2.5
38 1.2
39 15.7
40 1.2
41 12.3
43 22.2
50 2.5
51 7.7
52 1.9
53 1.2
56 1.2
58 1.9
63 4.3
64 1.2
65 15.4
77 3.1
78 3.1
89 2.5
91 99.99
92 61
93 4.9
103 1.2
104 1.5
106 1.2
115 2.2
117 1.5
119 1.5
134 22.2
135 2.5

>  <PREDICTED SPECTRUM>  (386) 
14 0
25 2
26 54
27 206
28 29
29 150
37 27
38 80
39 299
40 122
41 387
42 131
43 464
44 96
50 119
51 209
52 135
53 145
54 2
55 14
56 14
57 206
58 45
62 45
63 154
64 115
65 340
66 155
67 8
74 16
75 75
76 43
77 243
78 205
79 177
89 116
90 160
91 999
92 480
93 187
102 1
103 63
115 189
116 35
117 12
119 114
132 28
134 568
135 198

$$$$

     RDKit          2D

  8  9  0  0  0  0  0  0  0  0999 V2000
   -4.4296    0.0000    0.0000 C   0  0  0  0  0  0  0  0  0  0  0  0
   -4.4296    1.5000    0.0000 C   0  0  0  0  0  0  0  0  0  0  0  0
    0.0000    0.7500    0.0000 C   0  0  0  0  0  0  0  0  0  0  0  0
   -3.0030   -0.4635    0.0000 C   0  0  0  0  0  0  0  0  0  0  0  0
   -3.0030    1.9635    0.0000 C   0  0  0  0  0  0  0  0  0  0  0  0
   -1.0607    1.8107    0.0000 C   0  0  0  0  0  0  0  0  0  0  0  0
   -1.0607   -0.3107    0.0000 C   0  0  0  0  0  0  0  0  0  0  0  0
   -2.1213    0.7500    0.0000 Si  0  0  0  0  0  4  0  0  0  0  0  0
  2  1  1  0
  4  1  1  0
  5  2  1  0
  6  3  1  0
  7  3  1  0
  8  4  1  0
  8  5  1  0
  8  6  1  0
  8  7  1  0
M  END
>  <NAME>  (387) 
SPIRO(3.4)SILAOCTANE

>  <SYNONYMS>  (387) 


>  <SPECTRUM TYPE>  (387) 
MS1

>  <INSTRUMENT TYPE>  (387) 
EI-B

>  <INSTRUMENT>  (387) 
HITACHI RMU-6M

>  <ION MODE>  (387) 
P

>  <INCHIKEY>  (387) 
HYJKBOFKAIXWGW-UHFFFAOYSA-N

>  <FORMULA>  (387) 
C7H14Si

>  <EXACT MASS>  (387) 
126.08647697800001

>  <MW>  (387) 
126

>  <ID>  (387) 
JP011604

>  <CONTRIBUTOR>  (387) 
University of Tokyo Team, {Faculty of Engineering, University of Tokyo

>  <COMMENT>  (387) 
SMILES=C(C2)C[Si](C2)(C1)CC1
InChI=InChI=1S/C7H14Si/c1-2-5-8(4-1)6-3-7-8/h1-7H2
computed SMILES=C1CC[Si]2(C1)CCC2
accession=JP011604
date=2016.01.19 (Created 2008.10.21, modified 2011.05.06)
author=YAMAMOTO M, DEP. CHEMISTRY, FAC. SCIENCE, NARA WOMEN'S UNIV.
license=CC BY-NC-SA
exact mass=126.08648
ionization energy=70 eV
ion type=[M]+*
computed spectral entropy=2.897536689537417
computed normalized entropy=0.7909070378544079
SPLASH=splash10-0002-9100000000-74d4caebb7ecad244ff1
submitter=submitter = University of Tokyo Team (Faculty of Engineering, University of Tokyo)
MoNA Rating=3.75

>  <NUM PEAKS>  (387) 
39

>  <MASS SPECTRAL PEAKS>  (387) 
27 3.4
28 3.3
29 4.7
31 1.6
39 3.9
41 1.9
42 14.1
43 23.2
44 3.8
45 4.4
53 5
54 2.3
55 18.2
56 6.8
57 7.8
58 1.8
59 1.1
66 1.9
67 4.5
68 1.7
69 6.2
70 51.6
71 7.4
72 2.5
81 1.6
82 2
83 21.5
84 6.1
85 9.2
86 1.1
95 1.6
96 6
97 22.6
98 99.99
99 12.4
100 4.3
126 33.1
127 4.5
128 1.5

>  <PREDICTED SPECTRUM>  (387) 
26 8
27 67
28 86
29 56
38 3
39 101
40 54
41 144
42 346
43 339
44 154
45 173
51 11
52 20
53 65
54 72
55 276
56 211
57 174
58 112
59 100
66 46
67 151
68 165
69 305
70 677
71 247
72 170
79 19
81 87
82 41
83 253
84 185
85 159
95 84
96 102
97 281
98 999
99 305
100 136
125 44
126 641
127 228
128 116

$$$$

     RDKit          2D

  9 10  0  0  0  0  0  0  0  0999 V2000
   -4.1119   -0.8740    0.0000 C   0  0  0  0  0  0  0  0  0  0  0  0
   -2.8129   -1.6240    0.0000 C   0  0  0  0  0  0  0  0  0  0  0  0
   -1.8037    3.1240    0.0000 C   0  0  0  0  0  0  0  0  0  0  0  0
   -0.5046    2.3740    0.0000 C   0  0  0  0  0  0  0  0  0  0  0  0
   -3.8000    0.5932    0.0000 C   0  0  0  0  0  0  0  0  0  0  0  0
   -1.6982   -0.6203    0.0000 C   0  0  0  0  0  0  0  0  0  0  0  0
   -2.9184    2.1203    0.0000 C   0  0  0  0  0  0  0  0  0  0  0  0
   -0.8165    0.9068    0.0000 C   0  0  0  0  0  0  0  0  0  0  0  0
   -2.3083    0.7500    0.0000 Si  0  0  0  0  0  4  0  0  0  0  0  0
  2  1  1  0
  4  3  1  0
  5  1  1  0
  6  2  1  0
  7  3  1  0
  8  4  1  0
  9  5  1  0
  9  6  1  0
  9  7  1  0
  9  8  1  0
M  END
>  <NAME>  (388) 
SPIRO(4.4)SILANONANE

>  <SYNONYMS>  (388) 


>  <SPECTRUM TYPE>  (388) 
MS1

>  <INSTRUMENT TYPE>  (388) 
EI-B

>  <INSTRUMENT>  (388) 
HITACHI RMU-6M

>  <ION MODE>  (388) 
P

>  <INCHIKEY>  (388) 
FXRBQAKUIDSTTE-UHFFFAOYSA-N

>  <FORMULA>  (388) 
C8H16Si

>  <EXACT MASS>  (388) 
140.102127042

>  <MW>  (388) 
140

>  <ID>  (388) 
JP011603

>  <CONTRIBUTOR>  (388) 
University of Tokyo Team, {Faculty of Engineering, University of Tokyo

>  <COMMENT>  (388) 
SMILES=C(C2)C[Si](C2)(C1)CCC1
InChI=InChI=1S/C8H16Si/c1-2-6-9(5-1)7-3-4-8-9/h1-8H2
computed SMILES=C1CC[Si]2(C1)CCCC2
accession=JP011603
date=2016.01.19 (Created 2008.10.21, modified 2011.05.06)
author=YAMAMOTO M, DEP. CHEMISTRY, FAC. SCIENCE, NARA WOMEN'S UNIV.
license=CC BY-NC-SA
exact mass=140.10213
ionization energy=70 eV
ion type=[M]+*
computed spectral entropy=2.7416419702912775
computed normalized entropy=0.7650697589092305
SPLASH=splash10-03e9-9600000000-cf37b92898e3b893f006
submitter=submitter = University of Tokyo Team (Faculty of Engineering, University of Tokyo)
MoNA Rating=3.75

>  <NUM PEAKS>  (388) 
36

>  <MASS SPECTRAL PEAKS>  (388) 
27 3.2
28 3.4
29 4.8
31 2.6
39 2.6
41 1.8
42 5
43 12.8
44 2
45 2.6
53 4.6
54 2.9
55 16.2
56 13.7
57 14.6
58 3.1
59 2.2
67 2.4
69 2.9
70 3.6
71 1.6
81 2.7
82 6
83 19.8
84 70
85 13.1
86 3.3
97 3
98 2.4
111 2.8
112 99.99
113 13.1
114 4.4
140 33.3
141 4.9
142 1.8

>  <PREDICTED SPECTRUM>  (388) 
26 23
27 113
28 130
29 94
30 72
31 8
39 161
40 62
41 170
42 164
43 210
44 115
45 228
51 31
52 54
53 150
54 108
55 256
56 386
57 211
58 186
59 141
60 13
64 3
65 46
66 32
67 118
68 63
69 299
70 261
71 226
72 57
78 25
80 84
81 109
82 197
83 472
84 951
85 406
86 201
95 107
96 19
97 224
98 203
99 139
100 17
109 12
110 91
111 322
112 999
113 320
114 150
138 2
139 31
140 745
141 283
142 139

$$$$

     RDKit          2D

  9 10  0  0  0  0  0  0  0  0999 V2000
   -3.5166   -1.5910    0.0000 C   0  0  0  0  0  0  0  0  0  0  0  0
    0.9186   -0.5303    0.0000 C   0  0  0  0  0  0  0  0  0  0  0  0
   -2.0677   -1.9792    0.0000 C   0  0  0  0  0  0  0  0  0  0  0  0
   -3.1284   -0.1421    0.0000 C   0  0  0  0  0  0  0  0  0  0  0  0
   -0.3805   -1.2803    0.0000 C   0  0  0  0  0  0  0  0  0  0  0  0
    0.9186    0.9697    0.0000 C   0  0  0  0  0  0  0  0  0  0  0  0
   -1.6795    0.9697    0.0000 C   0  0  0  0  0  0  0  0  0  0  0  0
   -1.6795   -0.5303    0.0000 C   0  0  0  0  0  0  0  0  0  0  0  0
   -0.3805    1.7197    0.0000 Si  0  0  0  0  0  4  0  0  0  0  0  0
  3  1  1  0
  4  1  1  0
  5  2  1  0
  6  2  1  0
  8  3  1  0
  8  4  1  0
  8  5  1  0
  8  7  1  0
  9  6  1  0
  9  7  1  0
M  END
>  <NAME>  (389) 
SPIRO(3.5)SILANONANE

>  <SYNONYMS>  (389) 


>  <SPECTRUM TYPE>  (389) 
MS1

>  <INSTRUMENT TYPE>  (389) 
EI-B

>  <INSTRUMENT>  (389) 
HITACHI RMU-6M

>  <ION MODE>  (389) 
P

>  <INCHIKEY>  (389) 
FLNUVQXINSOEAK-UHFFFAOYSA-N

>  <FORMULA>  (389) 
C8H16Si

>  <EXACT MASS>  (389) 
140.102127042

>  <MW>  (389) 
140

>  <ID>  (389) 
JP011602

>  <CONTRIBUTOR>  (389) 
University of Tokyo Team, {Faculty of Engineering, University of Tokyo

>  <COMMENT>  (389) 
SMILES=C(C1)[SiH2]CC(C2)(CC2)C1
InChI=InChI=1S/C8H16Si/c1-3-8(4-1)5-2-6-9-7-8/h1-7,9H2
computed SMILES=C1C[SiH2]CC2(C1)CCC2
accession=JP011602
date=2016.01.19 (Created 2008.10.21, modified 2011.05.06)
author=YAMAMOTO M, DEP. CHEMISTRY, FAC. SCIENCE, NARA WOMEN'S UNIV.
license=CC BY-NC-SA
exact mass=140.10213
ionization energy=70 eV
ion type=[M]+*
computed spectral entropy=3.0924419924381255
computed normalized entropy=0.8123761958798487
SPLASH=splash10-01qc-9300000000-6fea4f2fd28bd457b166
submitter=submitter = University of Tokyo Team (Faculty of Engineering, University of Tokyo)
MoNA Rating=3.75

>  <NUM PEAKS>  (389) 
45

>  <MASS SPECTRAL PEAKS>  (389) 
27 4
28 4.6
29 5.5
31 2.5
32 1.2
39 4.9
41 5.3
42 11.7
43 32.9
44 6
45 8
53 5
54 2.3
55 16.9
56 11.3
57 7.2
58 6.8
59 3
66 1.8
67 4.7
68 1.6
69 10
70 11.2
71 15.2
72 2
81 2.8
82 7
83 25.2
84 99.99
85 12.2
86 4.2
95 2.9
96 1.4
97 19.4
98 7.9
99 10.9
100 2.4
110 1.6
111 6
112 89.9
113 11.9
114 3.8
140 43.8
141 6.8
142 2.3

>  <PREDICTED SPECTRUM>  (389) 
26 64
27 379
28 175
29 201
38 37
39 553
40 201
41 592
42 157
43 238
44 0
45 13
50 93
51 212
52 150
53 359
54 179
55 122
56 174
57 128
58 154
59 44
62 5
63 71
65 286
66 229
67 999
68 382
69 275
70 301
71 289
72 107
77 401
78 55
79 417
81 409
82 354
83 404
84 525
85 332
86 167
91 206
93 28
94 111
95 321
96 237
97 504
98 474
99 360
100 104
108 74
109 216
110 226
111 829
112 905
113 205
125 660
126 60
139 161
140 520
141 30

$$$$

     RDKit          2D

 10 11  0  0  0  0  0  0  0  0999 V2000
    0.0000    1.5000    0.0000 C   0  0  0  0  0  0  0  0  0  0  0  0
    0.0000   -0.0000    0.0000 C   0  0  0  0  0  0  0  0  0  0  0  0
   -1.2990    2.2500    0.0000 C   0  0  0  0  0  0  0  0  0  0  0  0
   -4.9721   -0.5046    0.0000 C   0  0  0  0  0  0  0  0  0  0  0  0
   -4.2221   -1.8037    0.0000 C   0  0  0  0  0  0  0  0  0  0  0  0
   -1.2990   -0.7500    0.0000 C   0  0  0  0  0  0  0  0  0  0  0  0
   -2.5981    1.5000    0.0000 C   0  0  0  0  0  0  0  0  0  0  0  0
   -3.9684    0.6101    0.0000 C   0  0  0  0  0  0  0  0  0  0  0  0
   -2.7549   -1.4918    0.0000 C   0  0  0  0  0  0  0  0  0  0  0  0
   -2.5981   -0.0000    0.0000 Si  0  0  0  0  0  4  0  0  0  0  0  0
  2  1  1  0
  3  1  1  0
  5  4  1  0
  6  2  1  0
  7  3  1  0
  8  4  1  0
  9  5  1  0
 10  6  1  0
 10  7  1  0
 10  8  1  0
 10  9  1  0
M  END
>  <NAME>  (390) 
SPIRO(4.5)SILADECANE

>  <SYNONYMS>  (390) 


>  <SPECTRUM TYPE>  (390) 
MS1

>  <INSTRUMENT TYPE>  (390) 
EI-B

>  <INSTRUMENT>  (390) 
HITACHI RMU-6M

>  <ION MODE>  (390) 
P

>  <INCHIKEY>  (390) 
ICUSJPNKTSVHAM-UHFFFAOYSA-N

>  <FORMULA>  (390) 
C9H18Si

>  <EXACT MASS>  (390) 
154.117777106

>  <MW>  (390) 
154

>  <ID>  (390) 
JP011601

>  <CONTRIBUTOR>  (390) 
University of Tokyo Team, {Faculty of Engineering, University of Tokyo

>  <COMMENT>  (390) 
SMILES=C(C2)CC[Si](C2)(C1)CCC1
InChI=InChI=1S/C9H18Si/c1-2-6-10(7-3-1)8-4-5-9-10/h1-9H2
computed SMILES=C1CC[Si]2(CC1)CCCC2
accession=JP011601
date=2016.01.19 (Created 2008.10.21, modified 2011.05.06)
author=YAMAMOTO M, DEP. CHEMISTRY, FAC. SCIENCE, NARA WOMEN'S UNIV.
license=CC BY-NC-SA
exact mass=154.11778
ionization energy=70 eV
ion type=[M]+*
computed spectral entropy=3.1031733000153627
computed normalized entropy=0.797357807481982
SPLASH=splash10-002b-9400000000-ca9ee0a44f7fa392518d
submitter=submitter = University of Tokyo Team (Faculty of Engineering, University of Tokyo)
MoNA Rating=3.75

>  <NUM PEAKS>  (390) 
49

>  <MASS SPECTRAL PEAKS>  (390) 
27 3.2
28 2.3
29 3.7
31 2.6
39 3.4
41 3.6
42 6.6
43 22.4
44 4.1
45 7.1
53 4.2
54 1.9
55 17.4
56 7.1
57 13.4
58 3
59 3.8
66 1
67 3.9
68 1.8
69 6.4
70 19.6
71 13.4
72 2.2
73 1.2
76 1.5
81 2.1
82 2.8
83 20.5
84 10
85 11.3
86 1.5
93 1.1
95 3.8
96 5.1
97 30
98 86.3
99 12.6
100 3.6
111 4.7
112 3.8
113 1.4
125 3.1
126 99.99
127 15
128 4.6
154 46
155 8
156 2.9

>  <PREDICTED SPECTRUM>  (390) 
26 24
27 100
28 86
29 71
30 14
38 11
39 109
40 44
41 158
42 208
43 262
44 230
45 223
51 11
53 119
54 123
55 273
56 140
57 175
58 148
59 171
60 3
63 60
65 64
66 32
67 161
68 116
69 310
70 376
71 268
72 169
73 81
78 20
79 55
80 2
81 60
82 43
83 446
84 412
85 376
86 118
87 22
94 65
95 150
96 199
97 531
98 961
99 366
100 178
109 60
110 15
111 372
112 271
113 224
114 41
124 40
125 298
126 999
127 328
128 174
151 4
152 59
153 24
154 870
155 324
156 173

$$$$

     RDKit          2D

 11 12  0  0  0  0  0  0  0  0999 V2000
   -5.1962   -1.5000    0.0000 C   0  0  0  0  0  0  0  0  0  0  0  0
    0.0000    1.5000    0.0000 C   0  0  0  0  0  0  0  0  0  0  0  0
   -3.8971   -2.2500    0.0000 C   0  0  0  0  0  0  0  0  0  0  0  0
   -5.1962    0.0000    0.0000 C   0  0  0  0  0  0  0  0  0  0  0  0
    0.0000   -0.0000    0.0000 C   0  0  0  0  0  0  0  0  0  0  0  0
   -1.2990    2.2500    0.0000 C   0  0  0  0  0  0  0  0  0  0  0  0
   -2.5981   -1.5000    0.0000 C   0  0  0  0  0  0  0  0  0  0  0  0
   -3.8971    0.7500    0.0000 C   0  0  0  0  0  0  0  0  0  0  0  0
   -1.2990   -0.7500    0.0000 C   0  0  0  0  0  0  0  0  0  0  0  0
   -2.5981    1.5000    0.0000 C   0  0  0  0  0  0  0  0  0  0  0  0
   -2.5981   -0.0000    0.0000 Si  0  0  0  0  0  4  0  0  0  0  0  0
  3  1  1  0
  4  1  1  0
  5  2  1  0
  6  2  1  0
  7  3  1  0
  8  4  1  0
  9  5  1  0
 10  6  1  0
 11  7  1  0
 11  8  1  0
 11  9  1  0
 11 10  1  0
M  END
>  <NAME>  (391) 
SPIRO(5.5)SILAUNDECANE

>  <SYNONYMS>  (391) 


>  <SPECTRUM TYPE>  (391) 
MS1

>  <INSTRUMENT TYPE>  (391) 
EI-B

>  <INSTRUMENT>  (391) 
HITACHI RMU-6M

>  <ION MODE>  (391) 
P

>  <INCHIKEY>  (391) 
HFUJMZDLRNNFDY-UHFFFAOYSA-N

>  <FORMULA>  (391) 
C10H20Si

>  <EXACT MASS>  (391) 
168.13342717

>  <MW>  (391) 
168

>  <ID>  (391) 
JP011600

>  <CONTRIBUTOR>  (391) 
University of Tokyo Team, {Faculty of Engineering, University of Tokyo

>  <COMMENT>  (391) 
SMILES=C(C2)CC[Si](C2)(C1)CCCC1
InChI=InChI=1S/C10H20Si/c1-3-7-11(8-4-1)9-5-2-6-10-11/h1-10H2
computed SMILES=C1CC[Si]2(CC1)CCCCC2
accession=JP011600
date=2016.01.19 (Created 2008.10.21, modified 2011.05.06)
author=YAMAMOTO M, DEP. CHEMISTRY, FAC. SCIENCE, NARA WOMEN'S UNIV.
license=CC BY-NC-SA
exact mass=168.13343
ionization energy=70 eV
ion type=[M]+*
computed spectral entropy=3.4386069411625546
computed normalized entropy=0.8660841610727101
SPLASH=splash10-00ke-9700000000-d06bd4ce9ee8acab2532
submitter=submitter = University of Tokyo Team (Faculty of Engineering, University of Tokyo)
MoNA Rating=3.75

>  <NUM PEAKS>  (391) 
53

>  <MASS SPECTRAL PEAKS>  (391) 
27 6.3
28 4.3
29 5.7
31 4.8
39 6.3
41 8.8
42 9
43 44.5
44 7.1
45 17.5
53 5.3
54 2.3
55 24.8
56 10.1
57 14.7
58 4.5
59 9.4
66 2.1
67 6.1
68 3.6
69 17.3
70 21.9
71 40.6
72 5.1
73 3.5
81 3.8
82 3.8
83 24
84 30.1
85 9.3
86 2.7
95 7
96 5.7
97 63.4
98 52.2
99 44.4
100 7.7
101 2.8
111 11.8
112 65.6
113 13
114 4.9
125 33.7
126 39.6
127 11.4
128 2.8
139 4.3
140 83.7
141 12.2
142 5.6
168 99.99
169 17.2
170 6.1

>  <PREDICTED SPECTRUM>  (391) 
26 7
27 39
28 40
29 16
39 74
40 38
41 213
42 165
43 282
44 231
45 232
46 25
52 20
53 104
54 121
55 358
56 310
57 255
58 305
59 223
64 6
65 41
66 6
67 198
68 170
69 325
70 233
71 237
72 194
73 156
74 0
78 22
79 87
81 139
82 104
83 357
84 502
85 386
86 194
87 86
95 142
96 34
97 639
98 552
99 462
100 154
101 62
108 32
109 85
110 163
111 574
112 818
113 368
114 183
123 23
125 509
126 362
127 268
128 59
139 271
140 999
141 307
142 118
153 35
166 57
168 955
169 339
170 164

$$$$

     RDKit          2D

 12 12  0  0  0  0  0  0  0  0999 V2000
   -2.8445   -1.3818    0.0000 C   0  0  0  0  0  0  0  0  0  0  0  0
   -0.9161   -1.3818    0.0000 C   0  0  0  0  0  0  0  0  0  0  0  0
   -1.8803    2.7673    0.0000 C   0  0  0  0  0  0  0  0  0  0  0  0
   -0.5813    2.0173    0.0000 C   0  0  0  0  0  0  0  0  0  0  0  0
   -3.1794    2.0173    0.0000 C   0  0  0  0  0  0  0  0  0  0  0  0
   -0.5813    0.5173    0.0000 C   0  0  0  0  0  0  0  0  0  0  0  0
   -0.0682   -0.8923    0.0000 H   0  0  0  0  0  0  0  0  0  0  0  0
    0.8959    0.7777    0.0000 H   0  0  0  0  0  0  0  0  0  0  0  0
   -3.1794    0.5173    0.0000 C   0  0  0  0  0  0  0  0  0  0  0  0
   -4.6566    0.7777    0.0000 H   0  0  0  0  0  0  0  0  0  0  0  0
   -3.6924   -0.8923    0.0000 H   0  0  0  0  0  0  0  0  0  0  0  0
   -1.8803   -0.2327    0.0000 Si  0  0  0  0  0  4  0  0  0  0  0  0
  6  7  1  0
  6  8  1  0
  9 10  1  0
  9 11  1  0
  4  3  1  0
  5  3  1  0
  6  4  1  0
  9  5  1  0
 12  1  1  0
 12  2  1  0
 12  6  1  0
 12  9  1  0
M  ISO  4   7   2   8   2  10   2  11   2
M  END
>  <NAME>  (392) 
1,1-DIMETHYL-SILACYCLOHEXANE (2,2,6,6-D4)

>  <SYNONYMS>  (392) 


>  <SPECTRUM TYPE>  (392) 
MS1

>  <INSTRUMENT TYPE>  (392) 
EI-B

>  <INSTRUMENT>  (392) 
HITACHI RMU-6M

>  <ION MODE>  (392) 
P

>  <INCHIKEY>  (392) 
VPVXTYYXTKCTPM-KXGHAPEVSA-N

>  <FORMULA>  (392) 
C7H16Si

>  <EXACT MASS>  (392) 
132.127234026

>  <MW>  (392) 
132

>  <ID>  (392) 
JP011599

>  <CONTRIBUTOR>  (392) 
University of Tokyo Team, {Faculty of Engineering, University of Tokyo

>  <COMMENT>  (392) 
SMILES=[2H]C([2H])(C1)[Si](C)(C)C([2H])([2H])CC1
InChI=InChI=1S/C7H16Si/c1-8(2)6-4-3-5-7-8/h3-7H2,1-2H3/i6D2,7D2
computed SMILES=[H]C1([H])CCCC([H])([H])[Si]1(C)C
accession=JP011599
date=2016.01.19 (Created 2008.10.21, modified 2011.05.06)
author=YAMAMOTO M, DEP. CHEMISTRY, FAC. SCIENCE, NARA WOMEN'S UNIV.
license=CC BY-NC-SA
exact mass=128.10213
ionization energy=70 eV
ion type=[M]+*
computed spectral entropy=3.1549337310298853
computed normalized entropy=0.7946352056031175
SPLASH=splash10-014r-9500000000-9b8970e055843b943e18
submitter=submitter = University of Tokyo Team (Faculty of Engineering, University of Tokyo)
MoNA Rating=3.75

>  <NUM PEAKS>  (392) 
53

>  <MASS SPECTRAL PEAKS>  (392) 
27 1.3
28 2.3
29 6.1
30 1.8
31 4.8
32 1.9
39 1.1
40 1.9
41 1.6
42 3
43 25.7
44 8.5
45 9.7
46 6.4
47 2.7
53 1.9
54 1.3
55 2.4
56 2.4
57 3.5
58 8.5
59 20.6
60 10.3
61 14.7
62 5.6
63 1.4
68 1.2
69 1.6
70 1.3
71 2.4
72 10.5
73 5.4
74 10
75 2.5
85 2.3
86 9.7
87 54.6
88 25
89 10.4
90 2
99 1.1
100 1
101 3.5
102 3.6
103 2.3
115 1.7
116 2.7
117 99.99
118 12.4
119 4.2
132 33.5
133 5
134 1.7

>  <PREDICTED SPECTRUM>  (392) 
54 247
55 565
56 39
58 88
59 52
70 61
71 118
72 161
73 522
74 242
75 385
77 24
83 87
85 162
86 362
87 795
89 83
91 12
99 263
100 219
101 999
102 675
103 578
104 179
113 64
114 19
115 302
117 559
119 300
130 31
131 184
132 978
133 93

$$$$

     RDKit          2D

 10 10  0  0  0  0  0  0  0  0999 V2000
   -1.8803    2.7673    0.0000 C   0  0  0  0  0  0  0  0  0  0  0  0
   -0.5813    2.0173    0.0000 C   0  0  0  0  0  0  0  0  0  0  0  0
   -3.1794    2.0173    0.0000 C   0  0  0  0  0  0  0  0  0  0  0  0
   -0.5813    0.5173    0.0000 C   0  0  0  0  0  0  0  0  0  0  0  0
   -0.0682   -0.8923    0.0000 H   0  0  0  0  0  0  0  0  0  0  0  0
    0.8959    0.7777    0.0000 H   0  0  0  0  0  0  0  0  0  0  0  0
   -3.1794    0.5173    0.0000 C   0  0  0  0  0  0  0  0  0  0  0  0
   -4.6566    0.7777    0.0000 H   0  0  0  0  0  0  0  0  0  0  0  0
   -3.6924   -0.8923    0.0000 H   0  0  0  0  0  0  0  0  0  0  0  0
   -1.8803   -0.2327    0.0000 Si  0  0  0  0  0  4  0  0  0  0  0  0
  4  5  1  0
  4  6  1  0
  7  8  1  0
  7  9  1  0
  2  1  1  0
  3  1  1  0
  4  2  1  0
  7  3  1  0
 10  4  1  0
 10  7  1  0
M  ISO  4   5   2   6   2   8   2   9   2
M  END
>  <NAME>  (393) 
SILACYCLOHEXANE (2,2,6,6-D4)

>  <SYNONYMS>  (393) 


>  <SPECTRUM TYPE>  (393) 
MS1

>  <INSTRUMENT TYPE>  (393) 
EI-B

>  <INSTRUMENT>  (393) 
HITACHI RMU-6M

>  <ION MODE>  (393) 
P

>  <INCHIKEY>  (393) 
VMNDCBPWBMKDBI-CQOLUAMGSA-N

>  <FORMULA>  (393) 
C5H12Si

>  <EXACT MASS>  (393) 
104.095933898

>  <MW>  (393) 
104

>  <ID>  (393) 
JP011598

>  <CONTRIBUTOR>  (393) 
University of Tokyo Team, {Faculty of Engineering, University of Tokyo

>  <COMMENT>  (393) 
SMILES=[2H]C([2H])(C1)[SiH2]C([2H])([2H])CC1
InChI=InChI=1S/C5H12Si/c1-2-4-6-5-3-1/h1-6H2/i4D2,5D2
computed SMILES=[H]C1([H])CCCC([H])([H])[SiH2]1
accession=JP011598
date=2016.01.19 (Created 2008.10.21, modified 2011.05.06)
author=YAMAMOTO M, DEP. CHEMISTRY, FAC. SCIENCE, NARA WOMEN'S UNIV.
license=CC BY-NC-SA
exact mass=100.07083
ionization energy=70 eV
ion type=[M]+*
computed spectral entropy=3.2591275425021364
computed normalized entropy=0.8248358680522562
SPLASH=splash10-0fk9-9200000000-7079a1b25f4913509e04
submitter=submitter = University of Tokyo Team (Faculty of Engineering, University of Tokyo)
MoNA Rating=3.75

>  <NUM PEAKS>  (393) 
52

>  <MASS SPECTRAL PEAKS>  (393) 
27 2.9
28 7.6
29 6.2
30 5.1
31 3.8
32 5.2
33 1.7
39 2.5
40 4.8
41 3.7
42 3.5
43 12.1
44 28.5
45 25.9
46 21.2
47 9.3
48 2.8
53 2.8
54 2.8
55 3.4
56 5.3
57 6.5
58 4.8
59 7.5
60 13.1
61 10.3
62 4
63 1.9
66 1.2
67 1.9
68 1.2
69 2.6
70 2.1
71 4.1
72 11.5
73 25.1
74 99.99
75 23
76 25
77 3.2
78 1.3
85 2.3
86 1.5
87 3
88 1
89 2
101 6.2
102 9.2
103 15.6
104 54
105 6.6
106 2.1

>  <PREDICTED SPECTRUM>  (393) 
26 65
27 89
28 135
29 24
30 373
31 28
32 75
34 8
40 128
41 346
42 158
43 277
44 324
45 297
46 271
47 67
48 236
49 120
50 54
51 17
52 217
53 182
54 601
55 883
56 355
57 134
58 355
59 113
60 45
62 30
63 57
64 27
66 40
67 182
68 221
70 146
71 209
72 762
73 615
74 612
75 421
76 163
85 87
86 377
87 304
88 198
89 72
100 15
101 25
102 345
103 242
104 999
105 240

$$$$

     RDKit          2D

 10 10  0  0  0  0  0  0  0  0999 V2000
    1.4772    1.2395    0.0000 C   0  0  0  0  0  0  0  0  0  0  0  0
    0.5130    2.9095    0.0000 C   0  0  0  0  0  0  0  0  0  0  0  0
   -4.0753    0.2605    0.0000 C   0  0  0  0  0  0  0  0  0  0  0  0
   -3.1111   -1.4095    0.0000 C   0  0  0  0  0  0  0  0  0  0  0  0
   -0.0000   -0.0000    0.0000 C   0  0  0  0  0  0  0  0  0  0  0  0
   -1.2990    2.2500    0.0000 C   0  0  0  0  0  0  0  0  0  0  0  0
   -1.2990   -0.7500    0.0000 C   0  0  0  0  0  0  0  0  0  0  0  0
   -2.5981    1.5000    0.0000 C   0  0  0  0  0  0  0  0  0  0  0  0
   -0.0000    1.5000    0.0000 Si  0  0  0  0  0  4  0  0  0  0  0  0
   -2.5981    0.0000    0.0000 Si  0  0  0  0  0  4  0  0  0  0  0  0
  7  5  1  0
  8  6  1  0
  9  1  1  0
  9  2  1  0
  9  5  1  0
  9  6  1  0
 10  3  1  0
 10  4  1  0
 10  7  1  0
 10  8  1  0
M  END
>  <NAME>  (394) 
1,1,4,4-TETRAMETHYL-1,4-DISILACYCLOHEXANE

>  <SYNONYMS>  (394) 


>  <SPECTRUM TYPE>  (394) 
MS1

>  <INSTRUMENT TYPE>  (394) 
EI-B

>  <INSTRUMENT>  (394) 
HITACHI RMU-6M

>  <ION MODE>  (394) 
P

>  <INCHIKEY>  (394) 
PBSFHKRMPPPFIU-UHFFFAOYSA-N

>  <FORMULA>  (394) 
C8H20Si2

>  <EXACT MASS>  (394) 
172.1103537

>  <MW>  (394) 
172

>  <ID>  (394) 
JP011597

>  <CONTRIBUTOR>  (394) 
University of Tokyo Team, {Faculty of Engineering, University of Tokyo

>  <COMMENT>  (394) 
SMILES=C[Si](C)(C1)CC[Si](C)(C)C1
InChI=InChI=1S/C8H20Si2/c1-9(2)5-7-10(3,4)8-6-9/h5-8H2,1-4H3
computed SMILES=C[Si]1(C)CC[Si](C)(C)CC1
accession=JP011597
date=2016.01.19 (Created 2008.10.21, modified 2011.05.06)
author=YAMAMOTO M, DEP. CHEMISTRY, FAC. SCIENCE, NARA WOMEN'S UNIV.
license=CC BY-NC-SA
exact mass=172.11035
ionization energy=70 eV
ion type=[M]+*
computed spectral entropy=3.3603063392568426
computed normalized entropy=0.820718991328156
SPLASH=splash10-0ab9-7900000000-5276148bcf3214f15458
submitter=submitter = University of Tokyo Team (Faculty of Engineering, University of Tokyo)
MoNA Rating=3.75

>  <NUM PEAKS>  (394) 
60

>  <MASS SPECTRAL PEAKS>  (394) 
28 7.3
29 7.1
31 9.3
32 3
42 3
43 36.3
44 6.8
45 20.5
46 1.8
47 1.2
53 3
55 6.5
57 4.9
58 22.2
59 68.3
60 6.5
61 3.3
67 2.6
69 3.3
70 2.3
71 9.8
72 6.5
73 44.3
74 4.5
75 2.1
81 1.8
83 5.4
84 1.9
85 27.8
86 8
87 9.2
97 56.1
98 6.9
99 8.3
100 3
101 7.9
102 2
103 3.3
111 1.7
113 6.1
114 1.9
115 6.5
116 82.2
117 15.9
118 7.6
127 3.1
128 2.4
129 45.4
130 7.5
131 4.3
141 2.2
143 13.8
144 6.5
145 2.5
157 99.99
158 18.4
159 9.9
172 98.6
173 19.5
174 9.8

>  <PREDICTED SPECTRUM>  (394) 
26 22
27 97
28 108
29 132
32 25
39 73
40 2
41 103
42 113
43 457
44 262
45 452
46 16
47 32
53 120
54 80
55 146
56 16
57 215
58 433
59 745
60 306
61 229
65 25
66 9
67 72
68 16
69 118
70 91
71 266
72 229
73 550
74 78
75 106
76 28
77 27
78 0
79 31
81 12
83 164
84 158
85 363
86 227
87 226
88 94
89 76
95 78
96 36
97 585
98 79
99 260
100 163
101 349
102 219
103 114
104 5
105 41
111 74
112 19
113 232
114 57
115 226
116 686
117 252
118 185
127 117
128 18
129 631
130 282
131 244
139 27
141 120
143 303
144 277
145 98
157 999
158 355
159 326
160 75
172 737
173 333
174 183
175 39

$$$$

     RDKit          2D

 10 10  0  0  0  0  0  0  0  0999 V2000
   -0.0682   -0.8923    0.0000 C   0  0  0  0  0  0  0  0  0  0  0  0
    0.8959    0.7777    0.0000 C   0  0  0  0  0  0  0  0  0  0  0  0
   -4.6566    0.7777    0.0000 C   0  0  0  0  0  0  0  0  0  0  0  0
   -3.6924   -0.8923    0.0000 C   0  0  0  0  0  0  0  0  0  0  0  0
   -1.8803    2.7673    0.0000 C   0  0  0  0  0  0  0  0  0  0  0  0
   -0.5813    2.0173    0.0000 C   0  0  0  0  0  0  0  0  0  0  0  0
   -3.1794    2.0173    0.0000 C   0  0  0  0  0  0  0  0  0  0  0  0
   -1.8803   -0.2327    0.0000 C   0  0  0  0  0  0  0  0  0  0  0  0
   -0.5813    0.5173    0.0000 Si  0  0  0  0  0  4  0  0  0  0  0  0
   -3.1794    0.5173    0.0000 Si  0  0  0  0  0  4  0  0  0  0  0  0
  6  5  1  0
  7  5  1  0
  9  1  1  0
  9  2  1  0
  9  6  1  0
  9  8  1  0
 10  3  1  0
 10  4  1  0
 10  7  1  0
 10  8  1  0
M  END
>  <NAME>  (395) 
1,1,3,3-TETRAMETHYL-1,3-DISILACYCLOHEXANE

>  <SYNONYMS>  (395) 


>  <SPECTRUM TYPE>  (395) 
MS1

>  <INSTRUMENT TYPE>  (395) 
EI-B

>  <INSTRUMENT>  (395) 
HITACHI RMU-6M

>  <ION MODE>  (395) 
P

>  <INCHIKEY>  (395) 
CPOLUICVVAWBCV-UHFFFAOYSA-N

>  <FORMULA>  (395) 
C8H20Si2

>  <EXACT MASS>  (395) 
172.1103537

>  <MW>  (395) 
172

>  <ID>  (395) 
JP011596

>  <CONTRIBUTOR>  (395) 
University of Tokyo Team, {Faculty of Engineering, University of Tokyo

>  <COMMENT>  (395) 
SMILES=C[Si](C)(C1)C[Si](C)(C)CC1
InChI=InChI=1S/C8H20Si2/c1-9(2)6-5-7-10(3,4)8-9/h5-8H2,1-4H3
computed SMILES=C[Si]1(C)CCC[Si](C)(C)C1
accession=JP011596
date=2016.01.19 (Created 2008.10.21, modified 2011.05.06)
author=YAMAMOTO M, DEP. CHEMISTRY, FAC. SCIENCE, NARA WOMEN'S UNIV.
license=CC BY-NC-SA
exact mass=172.11035
ionization energy=70 eV
ion type=[M]+*
computed spectral entropy=3.0494667137442013
computed normalized entropy=0.8211680449359149
SPLASH=splash10-0a4i-4900000000-1828b7699b6b62749ee3
submitter=submitter = University of Tokyo Team (Faculty of Engineering, University of Tokyo)
MoNA Rating=3.75

>  <NUM PEAKS>  (395) 
41

>  <MASS SPECTRAL PEAKS>  (395) 
28 4.5
29 2.8
31 3.3
43 15.2
44 4.2
45 11.6
51 3.2
53 2
55 3.1
57 6
58 3.8
59 23.7
64 5.9
65 8.1
69 2.7
71 4.9
72 2.7
73 21
74 2.1
83 3.1
85 4.6
97 4.1
99 5.6
101 3.5
113 5.3
115 9.9
117 6.6
129 53.9
130 11.9
131 27.6
132 4.7
133 2.2
141 3.4
144 2.5
155 2.9
157 99.99
158 18.9
159 8.2
172 27.7
173 6.2
174 3.3

>  <PREDICTED SPECTRUM>  (395) 
39 38
40 15
41 56
43 353
44 139
45 298
47 46
53 119
55 182
57 89
58 237
59 905
60 88
61 209
67 102
69 117
70 44
71 296
72 264
73 321
74 232
75 475
76 63
81 16
83 130
84 9
85 268
86 113
87 222
88 103
89 369
91 72
97 149
98 59
99 203
100 128
101 502
102 391
103 389
104 103
105 10
113 219
114 81
115 472
116 310
117 124
127 173
128 54
129 999
130 465
131 393
132 89
141 105
143 100
144 953
145 471
146 277
147 3
157 625
158 289
159 191
172 209
173 68

$$$$

     RDKit          2D

 10 10  0  0  0  0  0  0  0  0999 V2000
   -3.1111    2.9095    0.0000 C   0  0  0  0  0  0  0  0  0  0  0  0
   -4.0753    1.2395    0.0000 C   0  0  0  0  0  0  0  0  0  0  0  0
   -4.0753    0.2605    0.0000 C   0  0  0  0  0  0  0  0  0  0  0  0
   -3.1111   -1.4095    0.0000 C   0  0  0  0  0  0  0  0  0  0  0  0
    0.0000    1.5000    0.0000 C   0  0  0  0  0  0  0  0  0  0  0  0
    0.0000   -0.0000    0.0000 C   0  0  0  0  0  0  0  0  0  0  0  0
   -1.2990    2.2500    0.0000 C   0  0  0  0  0  0  0  0  0  0  0  0
   -1.2990   -0.7500    0.0000 C   0  0  0  0  0  0  0  0  0  0  0  0
   -2.5981    1.5000    0.0000 Si  0  0  0  0  0  4  0  0  0  0  0  0
   -2.5981    0.0000    0.0000 Si  0  0  0  0  0  4  0  0  0  0  0  0
  6  5  1  0
  7  5  1  0
  8  6  1  0
  9  1  1  0
  9  2  1  0
  9  7  1  0
 10  3  1  0
 10  4  1  0
 10  8  1  0
 10  9  1  0
M  END
>  <NAME>  (396) 
1,1,2,2-TETRAMETHYL-1,2-DISILACYCLOHEXANE

>  <SYNONYMS>  (396) 


>  <SPECTRUM TYPE>  (396) 
MS1

>  <INSTRUMENT TYPE>  (396) 
EI-B

>  <INSTRUMENT>  (396) 
HITACHI RMU-6M

>  <ION MODE>  (396) 
P

>  <INCHIKEY>  (396) 
KJMGETFPTJFIJX-UHFFFAOYSA-N

>  <FORMULA>  (396) 
C8H20Si2

>  <EXACT MASS>  (396) 
172.1103537

>  <MW>  (396) 
172

>  <ID>  (396) 
JP011595

>  <CONTRIBUTOR>  (396) 
University of Tokyo Team, {Faculty of Engineering, University of Tokyo

>  <COMMENT>  (396) 
SMILES=C(C1)C[Si](C)(C)[Si](C)(C)C1
InChI=InChI=1S/C8H20Si2/c1-9(2)7-5-6-8-10(9,3)4/h5-8H2,1-4H3
computed SMILES=C[Si]1(C)CCCC[Si]1(C)C
accession=JP011595
date=2016.01.19 (Created 2008.10.21, modified 2011.05.06)
author=YAMAMOTO M, DEP. CHEMISTRY, FAC. SCIENCE, NARA WOMEN'S UNIV.
license=CC BY-NC-SA
exact mass=172.11035
ionization energy=70 eV
ion type=[M]+*
computed spectral entropy=3.4315905943791445
computed normalized entropy=0.8381294105146677
SPLASH=splash10-05fs-9500000000-909f8f6ec3c9f1bedbd6
submitter=submitter = University of Tokyo Team (Faculty of Engineering, University of Tokyo)
MoNA Rating=3.75

>  <NUM PEAKS>  (396) 
60

>  <MASS SPECTRAL PEAKS>  (396) 
27 2.2
28 4.9
29 8.1
31 12.2
32 2.3
42 3
43 48.8
44 9.9
45 28
46 2.3
47 1.8
53 3.2
55 6.7
57 4.7
58 28.2
59 90.2
60 7.7
61 3.4
69 6.7
70 2.9
71 16.7
72 10.7
73 99.99
74 9.3
75 4.7
81 2.2
83 8.4
84 2.9
85 37.6
86 14.5
87 4.5
95 3.8
97 93.1
98 20.3
99 36.9
100 5.3
101 8.2
103 9.6
111 2.1
112 2.3
113 12.7
114 2.1
115 8.6
116 39.1
117 17
118 4.9
127 2.3
129 28.9
130 6.4
131 6.3
141 1.6
144 24.7
145 5.2
155 2.3
157 58.7
158 12.1
159 6
172 94
173 19.9
174 8.6

>  <PREDICTED SPECTRUM>  (396) 
27 23
28 51
29 27
31 57
39 86
40 41
41 216
42 161
43 705
44 239
45 516
46 130
47 18
51 26
53 175
54 54
55 258
56 144
57 229
58 230
59 809
60 238
61 211
65 66
67 182
68 55
69 172
70 88
71 341
72 313
73 783
74 195
75 215
77 56
79 115
81 153
83 267
84 248
85 374
86 185
87 240
88 57
89 177
90 35
91 125
95 61
96 43
97 275
98 264
99 349
100 225
101 325
102 199
103 158
104 89
105 130
106 61
110 36
111 168
112 84
113 297
114 235
115 312
116 400
117 240
118 101
123 50
125 121
126 34
127 234
128 111
129 999
130 435
131 482
132 151
133 1
139 24
141 225
142 96
143 393
144 605
145 386
146 240
147 94
155 101
156 50
157 960
158 422
159 346
160 108
170 1
171 77
172 884
173 412
174 242
175 86

$$$$

     RDKit          2D

 10 10  0  0  0  0  0  0  0  0999 V2000
   -2.8562   -0.8990    0.0000 C   0  0  0  0  0  0  0  0  0  0  0  0
   -3.5980    2.9839    0.0000 C   0  0  0  0  0  0  0  0  0  0  0  0
   -4.0153    1.0203    0.0000 C   0  0  0  0  0  0  0  0  0  0  0  0
   -0.6144   -0.9432    0.0000 C   0  0  0  0  0  0  0  0  0  0  0  0
    0.8774    0.4000    0.0000 C   0  0  0  0  0  0  0  0  0  0  0  0
   -1.6016    2.7740    0.0000 C   0  0  0  0  0  0  0  0  0  0  0  0
   -0.3025    2.0240    0.0000 C   0  0  0  0  0  0  0  0  0  0  0  0
   -2.1062    0.4000    0.0000 C   0  0  0  0  0  0  0  0  0  0  0  0
   -2.7163    1.7703    0.0000 Si  0  0  0  0  0  4  0  0  0  0  0  0
   -0.6144    0.5568    0.0000 Si  0  0  0  0  0  4  0  0  0  0  0  0
  7  6  1  0
  8  1  1  0
  9  2  1  0
  9  3  1  0
  9  6  1  0
  9  8  1  0
 10  4  1  0
 10  5  1  0
 10  7  1  0
 10  8  1  0
M  END
>  <NAME>  (397) 
1,1,2,3,3-PENTAMETHYL-1,3-DISILACYCLOPENTANE

>  <SYNONYMS>  (397) 


>  <SPECTRUM TYPE>  (397) 
MS1

>  <INSTRUMENT TYPE>  (397) 
EI-B

>  <INSTRUMENT>  (397) 
HITACHI RMU-6M

>  <ION MODE>  (397) 
P

>  <INCHIKEY>  (397) 
BRAPPWUWCAUKTQ-UHFFFAOYSA-N

>  <FORMULA>  (397) 
C8H20Si2

>  <EXACT MASS>  (397) 
172.1103537

>  <MW>  (397) 
172

>  <ID>  (397) 
JP011594

>  <CONTRIBUTOR>  (397) 
University of Tokyo Team, {Faculty of Engineering, University of Tokyo

>  <COMMENT>  (397) 
SMILES=CC([Si](C)(C)1)[Si](C)(C)CC1
InChI=InChI=1S/C8H20Si2/c1-8-9(2,3)6-7-10(8,4)5/h8H,6-7H2,1-5H3
computed SMILES=CC1[Si](C)(C)CC[Si]1(C)C
accession=JP011594
date=2016.01.19 (Created 2008.10.21, modified 2011.05.06)
author=YAMAMOTO M, DEP. CHEMISTRY, FAC. SCIENCE, NARA WOMEN'S UNIV.
license=CC BY-NC-SA
exact mass=172.11035
ionization energy=70 eV
ion type=[M]+*
computed spectral entropy=3.365770695253885
computed normalized entropy=0.8155224379050869
SPLASH=splash10-0adi-7900000000-4bed822106fe7443460c
submitter=submitter = University of Tokyo Team (Faculty of Engineering, University of Tokyo)
MoNA Rating=3.75

>  <NUM PEAKS>  (397) 
62

>  <MASS SPECTRAL PEAKS>  (397) 
28 2.7
29 4.8
31 9.3
42 2.6
43 32.3
44 5.3
45 21.1
46 1.8
53 3.2
55 6.9
56 1.4
57 4.6
58 18.9
59 62.1
60 6
61 2.9
67 2.6
69 4.4
70 1.8
71 10
72 3.6
73 37.8
74 3.2
75 1.7
81 2
83 6
84 1.6
85 22
86 6.1
87 3.5
95 1.8
97 47.3
98 5.8
99 7
100 1.7
101 4.6
102 2.2
103 2.9
111 1.7
113 6.3
114 1.7
115 10.4
116 16.2
117 6.4
118 2.1
127 3.1
129 99.99
130 17.3
131 9.8
132 1.6
141 2.6
143 4.8
144 27.3
145 5.5
146 2.3
155 2.5
157 85.3
158 16.7
159 8.2
172 70.9
173 15.1
174 6.9

>  <PREDICTED SPECTRUM>  (397) 
26 1
27 22
28 45
29 103
31 61
32 2
39 68
41 77
42 60
43 530
44 260
45 415
46 22
47 36
53 143
54 40
55 189
56 42
57 221
58 275
59 850
60 215
61 145
65 5
67 135
68 39
69 204
70 142
71 266
72 301
73 702
74 163
75 205
77 60
79 125
81 128
82 10
83 242
84 159
85 334
86 176
87 137
88 46
89 149
90 1
91 33
93 2
95 150
96 127
97 426
98 172
99 242
100 140
101 395
102 214
103 215
104 47
105 79
106 17
111 169
112 63
113 288
114 128
115 351
116 490
117 196
118 132
125 31
127 214
128 65
129 953
130 383
131 315
132 55
139 12
141 152
143 271
144 482
145 261
146 60
155 65
156 18
157 999
158 410
159 302
160 71
172 753
173 369
174 220
175 52

$$$$

     RDKit          2D

 12 12  0  0  0  0  0  0  0  0999 V2000
   -1.5598    0.9945    0.0000 C   0  0  0  0  0  0  0  0  0  0  0  0
   -0.2608    1.7445    0.0000 H   0  0  0  0  0  0  0  0  0  0  0  0
   -2.3098    2.2936    0.0000 H   0  0  0  0  0  0  0  0  0  0  0  0
   -2.9693    0.4815    0.0000 H   0  0  0  0  0  0  0  0  0  0  0  0
   -2.9402   -1.5345    0.0000 C   0  0  0  0  0  0  0  0  0  0  0  0
   -3.6902   -0.2355    0.0000 H   0  0  0  0  0  0  0  0  0  0  0  0
   -4.2392   -2.2845    0.0000 H   0  0  0  0  0  0  0  0  0  0  0  0
   -2.1902   -2.8336    0.0000 H   0  0  0  0  0  0  0  0  0  0  0  0
    1.2392   -0.8536    0.0000 C   0  0  0  0  0  0  0  0  0  0  0  0
   -0.0598   -1.6036    0.0000 C   0  0  0  0  0  0  0  0  0  0  0  0
    0.4892    0.4455    0.0000 C   0  0  0  0  0  0  0  0  0  0  0  0
   -0.8098   -0.3045    0.0000 Si  0  0  0  0  0  4  0  0  0  0  0  0
  1  2  1  0
  1  3  1  0
  1  4  1  0
  5  6  1  0
  5  7  1  0
  5  8  1  0
 10  9  1  0
 11  9  1  0
 12  1  1  0
 12  5  1  0
 12 10  1  0
 12 11  1  0
M  ISO  6   2   2   3   2   4   2   6   2   7   2   8   2
M  END
>  <NAME>  (398) 
1,1-DIMETHYLSILACYCLOBUTANE (D6-DIMETHYL)

>  <SYNONYMS>  (398) 


>  <SPECTRUM TYPE>  (398) 
MS1

>  <INSTRUMENT TYPE>  (398) 
EI-B

>  <INSTRUMENT>  (398) 
HITACHI RMU-6M

>  <ION MODE>  (398) 
P

>  <INCHIKEY>  (398) 
YQQFFTNDQFUNHB-WFGJKAKNSA-N

>  <FORMULA>  (398) 
C5H12Si

>  <EXACT MASS>  (398) 
106.10848739

>  <MW>  (398) 
106

>  <ID>  (398) 
JP011593

>  <CONTRIBUTOR>  (398) 
University of Tokyo Team, {Faculty of Engineering, University of Tokyo

>  <COMMENT>  (398) 
SMILES=[2H]C([2H])([2H])[Si](C1)(CC1)C([2H])([2H])[2H]
InChI=InChI=1S/C5H12Si/c1-6(2)4-3-5-6/h3-5H2,1-2H3/i1D3,2D3
computed SMILES=[H]C([H])([H])[Si]1(CCC1)C([H])([H])[H]
accession=JP011593
date=2016.01.19 (Created 2008.10.21, modified 2011.05.06)
author=YAMAMOTO M, DEP. CHEMISTRY, FAC. SCIENCE, NARA WOMEN'S UNIV.
license=CC BY-NC-SA
exact mass=100.07083
ionization energy=70 eV
ion type=[M]+*
computed spectral entropy=2.7002654934127213
computed normalized entropy=0.7179265687422203
SPLASH=splash10-004j-9000000000-ed3f9616fdaed264b885
submitter=submitter = University of Tokyo Team (Faculty of Engineering, University of Tokyo)
MoNA Rating=3.75

>  <NUM PEAKS>  (398) 
43

>  <MASS SPECTRAL PEAKS>  (398) 
27 1.1
28 3
29 3
30 6.1
32 1
33 1.8
34 1.6
39 1.4
42 1.6
43 2.6
44 3.5
45 3
46 23.2
47 15.9
48 17.9
49 2.8
50 1.1
53 1.5
54 1.4
56 1.1
57 1.6
58 1.7
60 2.8
61 1.3
62 2.2
63 1
64 3
65 13.4
66 1.2
67 1.1
74 1.7
75 2.4
76 3.2
77 4.8
78 99.99
79 9.5
80 4.1
88 4.3
91 1.3
105 1
106 21.5
107 2.2
108 0.9

>  <PREDICTED SPECTRUM>  (398) 
25 13
26 185
27 53
28 225
29 113
30 13
31 101
32 47
34 61
36 191
38 24
39 157
40 168
41 433
42 187
43 78
45 176
46 248
47 20
48 394
49 179
50 155
51 213
52 289
53 264
54 613
55 204
57 157
58 87
59 395
60 122
61 205
62 42
63 6
64 195
66 7
68 88
69 48
71 211
72 133
73 187
74 37
75 163
76 421
77 478
78 281
79 145
88 72
102 104
103 179
104 504
105 525
106 999
107 288
108 97

$$$$

     RDKit          2D

  6  6  0  0  0  0  0  0  0  0999 V2000
   -2.2500    1.2990    0.0000 C   0  0  0  0  0  0  0  0  0  0  0  0
   -2.7990   -0.7500    0.0000 C   0  0  0  0  0  0  0  0  0  0  0  0
    0.5490   -0.5490    0.0000 C   0  0  0  0  0  0  0  0  0  0  0  0
   -0.7500   -1.2990    0.0000 C   0  0  0  0  0  0  0  0  0  0  0  0
   -0.2010    0.7500    0.0000 C   0  0  0  0  0  0  0  0  0  0  0  0
   -1.5000    0.0000    0.0000 Si  0  0  0  0  0  4  0  0  0  0  0  0
  4  3  1  0
  5  3  1  0
  6  1  1  0
  6  2  1  0
  6  4  1  0
  6  5  1  0
M  END
>  <NAME>  (399) 
1,1-DIMETHYLSILACYCLOBUTANE

>  <SYNONYMS>  (399) 


>  <SPECTRUM TYPE>  (399) 
MS1

>  <INSTRUMENT TYPE>  (399) 
EI-B

>  <INSTRUMENT>  (399) 
HITACHI RMU-6M

>  <ION MODE>  (399) 
P

>  <INCHIKEY>  (399) 
YQQFFTNDQFUNHB-UHFFFAOYSA-N

>  <FORMULA>  (399) 
C5H12Si

>  <EXACT MASS>  (399) 
100.070826914

>  <MW>  (399) 
100

>  <ID>  (399) 
JP011592

>  <CONTRIBUTOR>  (399) 
University of Tokyo Team, {Faculty of Engineering, University of Tokyo

>  <COMMENT>  (399) 
SMILES=C[Si](C)(C1)CC1
InChI=InChI=1S/C5H12Si/c1-6(2)4-3-5-6/h3-5H2,1-2H3
computed SMILES=C[Si]1(C)CCC1
accession=JP011592
date=2016.01.19 (Created 2008.10.21, modified 2011.05.06)
author=YAMAMOTO M, DEP. CHEMISTRY, FAC. SCIENCE, NARA WOMEN'S UNIV.
license=CC BY-NC-SA
exact mass=100.07083
ionization energy=70 eV
ion type=[M]+*
computed spectral entropy=2.587350982561621
computed normalized entropy=0.7607176803415009
SPLASH=splash10-00dl-9000000000-055bb7f02533379623d8
submitter=submitter = University of Tokyo Team (Faculty of Engineering, University of Tokyo)
MoNA Rating=3.75

>  <NUM PEAKS>  (399) 
30

>  <MASS SPECTRAL PEAKS>  (399) 
27 2.7
28 3.8
29 9.5
31 5.1
39 2.8
41 1.2
42 6.6
43 29.8
44 33.9
45 7
46 1.7
53 4.2
54 1.6
55 5.1
56 2.1
57 5.5
58 4.4
59 16.2
60 1.6
66 1.5
67 2
70 5.5
71 6.6
72 99.99
73 9.7
74 4.4
85 7.6
100 18
101 2.1
102 1.1

>  <PREDICTED SPECTRUM>  (399) 
31 102
42 2
43 301
44 573
45 258
46 13
53 71
55 115
57 41
58 417
59 835
60 55
69 0
71 147
72 999
73 301
74 109
75 29
83 11
85 662
86 197
87 102
99 53
100 592
101 175
102 59

$$$$

     RDKit          2D

  6  6  0  0  0  0  0  0  0  0999 V2000
   -2.7990   -0.7500    0.0000 C   0  0  0  0  0  0  0  0  0  0  0  0
    0.5490   -0.5490    0.0000 C   0  0  0  0  0  0  0  0  0  0  0  0
   -0.7500   -1.2990    0.0000 C   0  0  0  0  0  0  0  0  0  0  0  0
   -0.2010    0.7500    0.0000 C   0  0  0  0  0  0  0  0  0  0  0  0
   -1.5000    0.0000    0.0000 Si  0  0  0  0  0  4  0  0  0  0  0  0
   -2.2500    1.2990    0.0000 H   0  0  0  0  0  0  0  0  0  0  0  0
  5  6  1  0
  3  2  1  0
  4  2  1  0
  5  1  1  0
  5  3  1  0
  5  4  1  0
M  ISO  1   6   2
M  END
>  <NAME>  (400) 
1-METHYL-SILACYCLOBUTANE (1-D)

>  <SYNONYMS>  (400) 


>  <SPECTRUM TYPE>  (400) 
MS1

>  <INSTRUMENT TYPE>  (400) 
EI-B

>  <INSTRUMENT>  (400) 
HITACHI RMU-6M

>  <ION MODE>  (400) 
P

>  <INCHIKEY>  (400) 
CQFRXHDORNUERA-UICOGKGYSA-N

>  <FORMULA>  (400) 
C4H10Si

>  <EXACT MASS>  (400) 
87.06145359599999

>  <MW>  (400) 
87

>  <ID>  (400) 
JP011591

>  <CONTRIBUTOR>  (400) 
University of Tokyo Team, {Faculty of Engineering, University of Tokyo

>  <COMMENT>  (400) 
SMILES=[2H][Si](C)(C1)CC1
InChI=InChI=1S/C4H10Si/c1-5-3-2-4-5/h5H,2-4H2,1H3/i5D
computed SMILES=[H][Si]1(C)CCC1
accession=JP011591
date=2016.01.19 (Created 2008.10.21, modified 2011.05.06)
author=YAMAMOTO M, DEP. CHEMISTRY, FAC. SCIENCE, NARA WOMEN'S UNIV.
license=CC BY-NC-SA
exact mass=86.05518
ionization energy=70 eV
ion type=[M]+*
computed spectral entropy=2.6222314435781167
computed normalized entropy=0.7317476169688821
SPLASH=splash10-0a4l-9000000000-0bc90a3f4f3966f2dc19
submitter=submitter = University of Tokyo Team (Faculty of Engineering, University of Tokyo)
MoNA Rating=3.75

>  <NUM PEAKS>  (400) 
36

>  <MASS SPECTRAL PEAKS>  (400) 
26 1.3
27 3.7
28 6
29 6.4
30 2.5
31 2.4
32 1.4
39 3.7
40 1.2
41 2.3
42 7.1
43 46.4
44 35.5
45 8.2
46 10.8
47 1.7
53 3.9
54 1.5
55 3
56 2.3
57 2
58 31.5
59 99.99
60 10.9
61 4.1
66 1.7
67 2.1
68 1
70 1.8
71 2.1
72 4.8
80 1.5
86 1.8
87 29.5
88 2.8
89 1.2

>  <PREDICTED SPECTRUM>  (400) 
31 69
41 24
42 119
43 273
44 345
45 180
46 67
53 26
54 73
56 21
57 53
58 238
59 999
60 294
61 138
63 82
71 72
72 267
73 51
74 8
87 363
88 84
89 22

$$$$

     RDKit          2D

  5  5  0  0  0  0  0  0  0  0999 V2000
    0.4686   -0.2490    0.0000 C   0  0  0  0  0  0  0  0  0  0  0  0
   -3.0293    0.6883    0.0000 C   0  0  0  0  0  0  0  0  0  0  0  0
   -1.7303    1.4383    0.0000 C   0  0  0  0  0  0  0  0  0  0  0  0
   -2.2793   -0.6107    0.0000 C   0  0  0  0  0  0  0  0  0  0  0  0
   -0.9803    0.1393    0.0000 Si  0  0  0  0  0  4  0  0  0  0  0  0
  3  2  1  0
  4  2  1  0
  5  1  1  0
  5  3  1  0
  5  4  1  0
M  END
>  <NAME>  (401) 
1-METHYLSILACYCLOBUTANE

>  <SYNONYMS>  (401) 


>  <SPECTRUM TYPE>  (401) 
MS1

>  <INSTRUMENT TYPE>  (401) 
EI-B

>  <INSTRUMENT>  (401) 
HITACHI RMU-6M

>  <ION MODE>  (401) 
P

>  <INCHIKEY>  (401) 
CQFRXHDORNUERA-UHFFFAOYSA-N

>  <FORMULA>  (401) 
C4H10Si

>  <EXACT MASS>  (401) 
86.05517685

>  <MW>  (401) 
86

>  <ID>  (401) 
JP011590

>  <CONTRIBUTOR>  (401) 
University of Tokyo Team, {Faculty of Engineering, University of Tokyo

>  <COMMENT>  (401) 
SMILES=C[SiH](C1)CC1
InChI=InChI=1S/C4H10Si/c1-5-3-2-4-5/h5H,2-4H2,1H3
computed SMILES=C[SiH]1CCC1
accession=JP011590
date=2016.01.19 (Created 2008.10.21, modified 2011.05.06)
author=YAMAMOTO M, DEP. CHEMISTRY, FAC. SCIENCE, NARA WOMEN'S UNIV.
license=CC BY-NC-SA
exact mass=86.05518
ionization energy=70 eV
ion type=[M]+*
computed spectral entropy=2.358667915314721
computed normalized entropy=0.6934816332717646
SPLASH=splash10-0a4l-9000000000-b7c5eee69262772032a4
submitter=submitter = University of Tokyo Team (Faculty of Engineering, University of Tokyo)
MoNA Rating=3.75

>  <NUM PEAKS>  (401) 
30

>  <MASS SPECTRAL PEAKS>  (401) 
27 3
28 5
29 7.7
30 1
31 2.6
39 3.9
41 1.7
42 10.1
43 60
44 6.8
45 12.2
46 1
53 4.5
54 1
55 4.4
56 1.1
57 2.3
58 99.99
59 12.4
60 4.1
65 1
66 2
67 1.9
69 1.2
70 2.2
71 5.6
85 2.3
86 30.3
87 3.2
88 1.1

>  <PREDICTED SPECTRUM>  (401) 
39 468
41 464
42 327
43 610
44 511
45 341
46 92
50 47
51 51
54 75
55 350
56 294
57 261
58 912
59 360
60 193
67 66
69 497
70 109
71 382
73 42
80 68
81 7
82 560
83 531
84 982
85 320
86 999
87 249
88 426
89 23

$$$$

     RDKit          2D

  6  6  0  0  0  0  0  0  0  0999 V2000
    0.5490   -0.5490    0.0000 C   0  0  0  0  0  0  0  0  0  0  0  0
   -0.7500   -1.2990    0.0000 C   0  0  0  0  0  0  0  0  0  0  0  0
   -0.2010    0.7500    0.0000 C   0  0  0  0  0  0  0  0  0  0  0  0
   -1.5000    0.0000    0.0000 Si  0  0  0  0  0  4  0  0  0  0  0  0
   -2.2500    1.2990    0.0000 H   0  0  0  0  0  0  0  0  0  0  0  0
   -2.7990   -0.7500    0.0000 H   0  0  0  0  0  0  0  0  0  0  0  0
  4  5  1  0
  4  6  1  0
  2  1  1  0
  3  1  1  0
  4  2  1  0
  4  3  1  0
M  ISO  2   5   2   6   2
M  END
>  <NAME>  (402) 
SILACYCLOBUTANE (1,1-D2)

>  <SYNONYMS>  (402) 


>  <SPECTRUM TYPE>  (402) 
MS1

>  <INSTRUMENT TYPE>  (402) 
EI-B

>  <INSTRUMENT>  (402) 
HITACHI RMU-6M

>  <ION MODE>  (402) 
P

>  <INCHIKEY>  (402) 
QZYLHXTXFGOILC-APZFVMQVSA-N

>  <FORMULA>  (402) 
C3H8Si

>  <EXACT MASS>  (402) 
74.05208027799999

>  <MW>  (402) 
74

>  <ID>  (402) 
JP011589

>  <CONTRIBUTOR>  (402) 
University of Tokyo Team, {Faculty of Engineering, University of Tokyo

>  <COMMENT>  (402) 
SMILES=[2H][Si]([2H])(C1)CC1
InChI=InChI=1S/C3H8Si/c1-2-4-3-1/h1-4H2/i4D2
computed SMILES=[H][Si]1([H])CCC1
accession=JP011589
date=2016.01.19 (Created 2008.10.21, modified 2011.05.06)
author=YAMAMOTO M, DEP. CHEMISTRY, FAC. SCIENCE, NARA WOMEN'S UNIV.
license=CC BY-NC-SA
exact mass=72.03953
ionization energy=70 eV
ion type=[M]+*
computed spectral entropy=2.9602726711526373
computed normalized entropy=0.7971496494424564
SPLASH=splash10-006w-9000000000-d843b0c415044c7310f7
submitter=submitter = University of Tokyo Team (Faculty of Engineering, University of Tokyo)
MoNA Rating=3.75

>  <NUM PEAKS>  (402) 
41

>  <MASS SPECTRAL PEAKS>  (402) 
26 3.1
27 7.4
28 49
29 9.9
30 10.6
31 3
32 5.6
33 4.2
37 1.9
38 2.3
39 9.5
40 3.5
41 4.5
42 14
43 24.7
44 63.7
45 86.8
46 99.99
47 13.3
48 4.3
52 1.1
53 6
54 3.2
55 6
56 6.5
57 5.1
58 9.8
59 7.4
60 1.5
65 3.9
66 6
67 6.2
68 3.2
69 2.3
70 11
71 10.8
72 22.1
73 20.5
74 98
75 9.7
76 4.1

>  <PREDICTED SPECTRUM>  (402) 
26 97
27 67
28 170
31 220
32 14
33 78
40 211
41 282
42 102
43 95
44 214
45 550
46 635
47 290
54 204
57 11
59 93
73 8
74 999
75 360

$$$$

     RDKit          2D

  4  4  0  0  0  0  0  0  0  0999 V2000
   -0.4755   -0.2745    0.0000 C   0  0  0  0  0  0  0  0  0  0  0  0
   -1.7745    0.4755    0.0000 C   0  0  0  0  0  0  0  0  0  0  0  0
    0.2745    1.0245    0.0000 C   0  0  0  0  0  0  0  0  0  0  0  0
   -1.0245    1.7745    0.0000 Si  0  0  0  0  0  4  0  0  0  0  0  0
  2  1  1  0
  3  1  1  0
  4  2  1  0
  4  3  1  0
M  END
>  <NAME>  (403) 
SILACYCLOBUTANE

>  <SYNONYMS>  (403) 


>  <SPECTRUM TYPE>  (403) 
MS1

>  <INSTRUMENT TYPE>  (403) 
EI-B

>  <INSTRUMENT>  (403) 
HITACHI RMU-6M

>  <ION MODE>  (403) 
P

>  <INCHIKEY>  (403) 
QZYLHXTXFGOILC-UHFFFAOYSA-N

>  <FORMULA>  (403) 
C3H8Si

>  <EXACT MASS>  (403) 
72.039526786

>  <MW>  (403) 
72

>  <ID>  (403) 
JP011588

>  <CONTRIBUTOR>  (403) 
University of Tokyo Team, {Faculty of Engineering, University of Tokyo

>  <COMMENT>  (403) 
SMILES=C(C1)C[SiH2]1
InChI=InChI=1S/C3H8Si/c1-2-4-3-1/h1-4H2
computed SMILES=C1C[SiH2]C1
accession=JP011588
date=2016.01.19 (Created 2008.10.21, modified 2011.05.06)
author=YAMAMOTO M, DEP. CHEMISTRY, FAC. SCIENCE, NARA WOMEN'S UNIV.
license=CC BY-NC-SA
exact mass=72.03953
ionization energy=70 eV
ion type=[M]+*
computed spectral entropy=2.651517152355673
computed normalized entropy=0.7650661293071112
SPLASH=splash10-006x-9000000000-fbdfa4d9f40a1f1c54c8
submitter=submitter = University of Tokyo Team (Faculty of Engineering, University of Tokyo)
MoNA Rating=3.75

>  <NUM PEAKS>  (403) 
32

>  <MASS SPECTRAL PEAKS>  (403) 
26 1.7
27 4.3
28 26
29 10.1
30 1.9
31 3.5
32 1.3
38 1.1
39 6.1
40 1.1
41 3.4
42 15.1
43 38.5
44 99.99
45 14.6
46 4.5
53 5.2
54 1.4
55 7.3
56 3.1
57 7.7
58 1.2
65 3.1
66 5
67 4
68 1.1
69 2.1
70 21.1
71 18.9
72 55.9
73 5.9
74 2.4

>  <PREDICTED SPECTRUM>  (403) 
14 32
15 16
16 20
17 2
19 4
25 44
26 177
27 413
28 351
29 250
30 151
31 117
32 3
37 44
38 74
39 323
40 185
41 435
42 461
43 574
44 763
45 324
46 125
50 1
51 70
53 212
54 169
55 254
56 167
57 387
68 118
69 252
70 434
71 789
72 999
73 197
74 29

$$$$

     RDKit          2D

 11 11  0  0  0  0  0  0  0  0999 V2000
   -1.6980    2.7340    0.0000 C   0  0  0  0  0  0  0  0  0  0  0  0
   -3.4365    1.7303    0.0000 C   0  0  0  0  0  0  0  0  0  0  0  0
   -0.2062   -0.3572    0.0000 C   0  0  0  0  0  0  0  0  0  0  0  0
   -1.5053   -1.1072    0.0000 C   0  0  0  0  0  0  0  0  0  0  0  0
   -0.5181    1.1100    0.0000 C   0  0  0  0  0  0  0  0  0  0  0  0
    0.9737    1.2668    0.0000 H   0  0  0  0  0  0  0  0  0  0  0  0
   -0.5181    2.6100    0.0000 H   0  0  0  0  0  0  0  0  0  0  0  0
   -2.6200   -0.1035    0.0000 C   0  0  0  0  0  0  0  0  0  0  0  0
   -3.9190    0.6465    0.0000 H   0  0  0  0  0  0  0  0  0  0  0  0
   -3.5017   -1.3170    0.0000 H   0  0  0  0  0  0  0  0  0  0  0  0
   -2.0099    1.2668    0.0000 Si  0  0  0  0  0  4  0  0  0  0  0  0
  5  6  1  0
  5  7  1  0
  8  9  1  0
  8 10  1  0
  4  3  1  0
  5  3  1  0
  8  4  1  0
 11  1  1  0
 11  2  1  0
 11  5  1  0
 11  8  1  0
M  ISO  4   6   2   7   2   9   2  10   2
M  END
>  <NAME>  (404) 
1,1-DIMETHYL-SILACYCLOPENTANE (2,2,5,5-D4)

>  <SYNONYMS>  (404) 


>  <SPECTRUM TYPE>  (404) 
MS1

>  <INSTRUMENT TYPE>  (404) 
EI-B

>  <INSTRUMENT>  (404) 
HITACHI RMU-6M

>  <ION MODE>  (404) 
P

>  <INCHIKEY>  (404) 
KDQBKCRYCZJUAE-NZLXMSDQSA-N

>  <FORMULA>  (404) 
C6H14Si

>  <EXACT MASS>  (404) 
118.111583962

>  <MW>  (404) 
118

>  <ID>  (404) 
JP011587

>  <CONTRIBUTOR>  (404) 
University of Tokyo Team, {Faculty of Engineering, University of Tokyo

>  <COMMENT>  (404) 
SMILES=[2H]C([2H])(C1)[Si](C)(C)C([2H])([2H])C1
InChI=InChI=1S/C6H14Si/c1-7(2)5-3-4-6-7/h3-6H2,1-2H3/i5D2,6D2
computed SMILES=[H]C1([H])CCC([H])([H])[Si]1(C)C
accession=JP011587
date=2016.01.19 (Created 2008.10.21, modified 2011.05.06)
author=YAMAMOTO M, DEP. CHEMISTRY, FAC. SCIENCE, NARA WOMEN'S UNIV.
license=CC BY-NC-SA
exact mass=114.08648
ionization energy=70 eV
ion type=[M]+*
computed spectral entropy=3.0239912713395825
computed normalized entropy=0.7898340320178888
SPLASH=splash10-052r-9200000000-da26ca98e87e36f16e9f
submitter=submitter = University of Tokyo Team (Faculty of Engineering, University of Tokyo)
MoNA Rating=3.75

>  <NUM PEAKS>  (404) 
46

>  <MASS SPECTRAL PEAKS>  (404) 
27 1.8
28 3.3
29 8.1
30 2.4
31 4.5
32 2.2
33 1.6
40 2.2
41 1.7
42 5
43 28.2
44 7.6
45 7.8
46 6.1
47 2.6
53 2.7
54 1.9
55 3.1
56 3.4
57 4
58 58
59 17.5
60 9.6
61 6.9
62 3.2
71 2
72 7.1
73 17.3
74 11.8
75 3.5
76 1.5
86 2.3
87 3.6
88 99.99
89 10.8
90 4.6
99 1.7
100 4.4
101 4.2
102 2
103 46.8
104 5.8
105 2.2
118 23.1
119 3.1
120 1.1

>  <PREDICTED SPECTRUM>  (404) 
27 9
28 38
30 82
32 48
41 127
42 60
43 141
44 186
45 136
46 88
53 0
54 282
55 724
56 246
57 269
58 297
59 157
60 51
67 14
69 2
70 47
71 208
72 300
73 765
74 91
75 136
82 82
84 106
85 419
86 522
87 999
88 487
89 305
99 140
100 84
101 396
102 31
103 702
116 56
117 83
118 820
119 110

$$$$

     RDKit          2D

  7  7  0  0  0  0  0  0  0  0999 V2000
   -3.4230    1.7537    0.0000 C   0  0  0  0  0  0  0  0  0  0  0  0
   -3.4230   -0.2537    0.0000 C   0  0  0  0  0  0  0  0  0  0  0  0
    0.0000    1.5000    0.0000 C   0  0  0  0  0  0  0  0  0  0  0  0
   -0.0000   -0.0000    0.0000 C   0  0  0  0  0  0  0  0  0  0  0  0
   -1.4266    1.9635    0.0000 C   0  0  0  0  0  0  0  0  0  0  0  0
   -1.4266   -0.4635    0.0000 C   0  0  0  0  0  0  0  0  0  0  0  0
   -2.3083    0.7500    0.0000 Si  0  0  0  0  0  4  0  0  0  0  0  0
  4  3  1  0
  5  3  1  0
  6  4  1  0
  7  1  1  0
  7  2  1  0
  7  5  1  0
  7  6  1  0
M  END
>  <NAME>  (405) 
1,1-DIMETHYLSILACYCLOPENTANE

>  <SYNONYMS>  (405) 


>  <SPECTRUM TYPE>  (405) 
MS1

>  <INSTRUMENT TYPE>  (405) 
EI-B

>  <INSTRUMENT>  (405) 
HITACHI RMU-6M

>  <ION MODE>  (405) 
P

>  <INCHIKEY>  (405) 
KDQBKCRYCZJUAE-UHFFFAOYSA-N

>  <FORMULA>  (405) 
C6H14Si

>  <EXACT MASS>  (405) 
114.086476978

>  <MW>  (405) 
114

>  <ID>  (405) 
JP011585

>  <CONTRIBUTOR>  (405) 
University of Tokyo Team, {Faculty of Engineering, University of Tokyo

>  <COMMENT>  (405) 
SMILES=C[Si](C)(C1)CCC1
InChI=InChI=1S/C6H14Si/c1-7(2)5-3-4-6-7/h3-6H2,1-2H3
computed SMILES=C[Si]1(C)CCCC1
accession=JP011585
date=2016.01.19 (Created 2008.10.21, modified 2011.05.06)
author=YAMAMOTO M, DEP. CHEMISTRY, FAC. SCIENCE, NARA WOMEN'S UNIV.
license=CC BY-NC-SA
exact mass=114.08648
ionization energy=70 eV
ion type=[M]+*
computed spectral entropy=2.816051183132517
computed normalized entropy=0.7686648827398666
SPLASH=splash10-052s-9000000000-73b021b0d93049e1c9e4
submitter=submitter = University of Tokyo Team (Faculty of Engineering, University of Tokyo)
MoNA Rating=3.75

>  <NUM PEAKS>  (405) 
39

>  <MASS SPECTRAL PEAKS>  (405) 
27 3.8
28 2.8
29 9.2
31 6.4
39 2.8
41 1.5
42 5.4
43 31.8
44 5
45 9.9
53 3.9
54 1
55 7
56 1.7
57 3.5
58 61.5
59 34
60 4.1
61 1.2
67 1.4
69 1.1
70 2.5
71 29.2
72 7.2
73 3.1
83 1.5
85 4.2
86 99.99
87 10.4
88 4
95 1.4
97 10.8
98 1.6
99 48.6
100 5.6
101 1.9
114 23.2
115 2.6
116 0.9

>  <PREDICTED SPECTRUM>  (405) 
31 62
39 19
42 51
43 440
44 467
45 530
46 85
47 77
53 96
54 15
55 221
57 33
58 849
59 978
60 274
61 340
63 198
65 28
67 35
69 74
70 14
71 506
72 305
73 202
83 17
85 173
86 849
87 226
88 113
97 64
99 999
100 317
101 279
114 539
115 179
116 21

$$$$

     RDKit          2D

 10 10  0  0  0  0  0  0  0  0999 V2000
   -2.8562   -0.8990    0.0000 C   0  0  0  0  0  0  0  0  0  0  0  0
   -1.6016    2.7740    0.0000 C   0  0  0  0  0  0  0  0  0  0  0  0
   -0.3025    2.0240    0.0000 C   0  0  0  0  0  0  0  0  0  0  0  0
   -2.7163    1.7703    0.0000 C   0  0  0  0  0  0  0  0  0  0  0  0
   -3.5980    2.9839    0.0000 H   0  0  0  0  0  0  0  0  0  0  0  0
   -4.0153    1.0203    0.0000 H   0  0  0  0  0  0  0  0  0  0  0  0
   -0.6144    0.5568    0.0000 C   0  0  0  0  0  0  0  0  0  0  0  0
   -0.6144   -0.9432    0.0000 H   0  0  0  0  0  0  0  0  0  0  0  0
    0.8774    0.4000    0.0000 H   0  0  0  0  0  0  0  0  0  0  0  0
   -2.1062    0.4000    0.0000 Si  0  0  0  0  0  4  0  0  0  0  0  0
  4  5  1  0
  4  6  1  0
  7  8  1  0
  7  9  1  0
  3  2  1  0
  4  2  1  0
  7  3  1  0
 10  1  1  0
 10  4  1  0
 10  7  1  0
M  ISO  4   5   2   6   2   8   2   9   2
M  END
>  <NAME>  (406) 
1-METHYL-SILACYCLOPENTANE(2,2,5,5-D4)

>  <SYNONYMS>  (406) 


>  <SPECTRUM TYPE>  (406) 
MS1

>  <INSTRUMENT TYPE>  (406) 
EI-B

>  <INSTRUMENT>  (406) 
HITACHI RMU-6M

>  <ION MODE>  (406) 
P

>  <INCHIKEY>  (406) 
SBWCARQXLPGQNH-CQOLUAMGSA-N

>  <FORMULA>  (406) 
C5H12Si

>  <EXACT MASS>  (406) 
104.095933898

>  <MW>  (406) 
104

>  <ID>  (406) 
JP011584

>  <CONTRIBUTOR>  (406) 
University of Tokyo Team, {Faculty of Engineering, University of Tokyo

>  <COMMENT>  (406) 
SMILES=[2H]C([2H])(C1)[SiH](C)C([2H])([2H])C1
InChI=InChI=1S/C5H12Si/c1-6-4-2-3-5-6/h6H,2-5H2,1H3/i4D2,5D2
computed SMILES=[H]C1([H])CCC([H])([H])[SiH]1C
accession=JP011584
date=2016.01.19 (Created 2008.10.21, modified 2011.05.06)
author=YAMAMOTO M, DEP. CHEMISTRY, FAC. SCIENCE, NARA WOMEN'S UNIV.
license=CC BY-NC-SA
exact mass=100.07083
ionization energy=70 eV
ion type=[M]+*
computed spectral entropy=2.883769822548555
computed normalized entropy=0.7765487704962787
SPLASH=splash10-00di-9000000000-fa40433879f5f08c56ac
submitter=submitter = University of Tokyo Team (Faculty of Engineering, University of Tokyo)
MoNA Rating=3.75

>  <NUM PEAKS>  (406) 
41

>  <MASS SPECTRAL PEAKS>  (406) 
27 1.4
28 5.2
29 4.5
30 3.1
31 1.2
32 1.4
40 2
41 1.4
42 4.2
43 17.6
44 22.6
45 21.1
46 8.9
47 2.9
53 1.7
54 2.3
55 1.4
56 3.4
57 3.9
58 4.5
59 8.2
60 9.9
61 4.2
62 2.3
67 1
68 1
70 1
71 2.4
72 5.6
73 10.8
74 99.99
75 17.1
76 6.2
86 1.4
87 3.7
88 2.6
89 7.4
103 4.7
104 22.8
105 2.7
106 1

>  <PREDICTED SPECTRUM>  (406) 
26 69
27 158
28 72
32 59
40 53
41 290
42 231
43 170
44 58
45 37
46 140
47 63
53 8
54 261
55 5
56 126
58 498
59 291
63 128
64 73
65 5
66 79
68 55
70 245
71 431
72 911
73 556
74 344
75 185
76 8
85 511
86 300
87 119
99 61
100 78
101 34
102 569
103 468
104 999
105 99

$$$$

     RDKit          2D

  7  7  0  0  0  0  0  0  0  0999 V2000
   -3.4230   -0.2537    0.0000 C   0  0  0  0  0  0  0  0  0  0  0  0
    0.0000    1.5000    0.0000 C   0  0  0  0  0  0  0  0  0  0  0  0
   -0.0000   -0.0000    0.0000 C   0  0  0  0  0  0  0  0  0  0  0  0
   -1.4266    1.9635    0.0000 C   0  0  0  0  0  0  0  0  0  0  0  0
   -1.4266   -0.4635    0.0000 C   0  0  0  0  0  0  0  0  0  0  0  0
   -2.3083    0.7500    0.0000 Si  0  0  0  0  0  4  0  0  0  0  0  0
   -3.4230    1.7537    0.0000 H   0  0  0  0  0  0  0  0  0  0  0  0
  6  7  1  0
  3  2  1  0
  4  2  1  0
  5  3  1  0
  6  1  1  0
  6  4  1  0
  6  5  1  0
M  ISO  1   7   2
M  END
>  <NAME>  (407) 
1-METHYL-SILACYCLOPENTANE (1-D)

>  <SYNONYMS>  (407) 


>  <SPECTRUM TYPE>  (407) 
MS1

>  <INSTRUMENT TYPE>  (407) 
EI-B

>  <INSTRUMENT>  (407) 
HITACHI RMU-6M

>  <ION MODE>  (407) 
P

>  <INCHIKEY>  (407) 
SBWCARQXLPGQNH-RAMDWTOOSA-N

>  <FORMULA>  (407) 
C5H12Si

>  <EXACT MASS>  (407) 
101.07710366

>  <MW>  (407) 
101

>  <ID>  (407) 
JP011583

>  <CONTRIBUTOR>  (407) 
University of Tokyo Team, {Faculty of Engineering, University of Tokyo

>  <COMMENT>  (407) 
SMILES=[2H][Si](C)(C1)CCC1
InChI=InChI=1S/C5H12Si/c1-6-4-2-3-5-6/h6H,2-5H2,1H3/i6D
computed SMILES=[H][Si]1(C)CCCC1
accession=JP011583
date=2016.01.19 (Created 2008.10.21, modified 2011.05.06)
author=YAMAMOTO M, DEP. CHEMISTRY, FAC. SCIENCE, NARA WOMEN'S UNIV.
license=CC BY-NC-SA
exact mass=100.07083
ionization energy=70 eV
ion type=[M]+*
computed spectral entropy=2.796752292625166
computed normalized entropy=0.7633970880713261
SPLASH=splash10-00di-9000000000-de324cb3b1c21189d7de
submitter=submitter = University of Tokyo Team (Faculty of Engineering, University of Tokyo)
MoNA Rating=3.75

>  <NUM PEAKS>  (407) 
39

>  <MASS SPECTRAL PEAKS>  (407) 
26 1
27 3.6
28 4.6
29 4.5
30 1.6
31 1.5
32 1.2
39 2.8
41 1.1
42 3.6
43 18
44 24.2
45 17.4
46 9.1
47 1.1
53 3.1
54 1.4
55 4.2
56 3.2
57 4.6
58 10.6
59 6.3
60 3.2
67 1.1
70 2.7
71 7.4
72 17.2
73 99.99
74 9.7
75 3.7
83 1
84 2.3
85 1.8
86 8
87 1.1
99 2.4
101 18.6
102 2.3
103 0.9

>  <PREDICTED SPECTRUM>  (407) 
39 34
40 36
41 153
42 182
43 270
44 438
45 453
46 181
47 194
50 3
51 19
52 15
53 85
54 171
55 117
56 30
57 142
58 474
59 342
60 238
61 225
63 131
67 161
71 2
72 399
73 999
74 243
75 140
86 897
87 222
88 175
100 109
101 680
102 193
103 85

$$$$

     RDKit          2D

  6  6  0  0  0  0  0  0  0  0999 V2000
    0.0000    0.7500    0.0000 C   0  0  0  0  0  0  0  0  0  0  0  0
   -3.8083    0.0000    0.0000 C   0  0  0  0  0  0  0  0  0  0  0  0
   -3.8083    1.5000    0.0000 C   0  0  0  0  0  0  0  0  0  0  0  0
   -2.3817   -0.4635    0.0000 C   0  0  0  0  0  0  0  0  0  0  0  0
   -2.3817    1.9635    0.0000 C   0  0  0  0  0  0  0  0  0  0  0  0
   -1.5000    0.7500    0.0000 Si  0  0  0  0  0  4  0  0  0  0  0  0
  3  2  1  0
  4  2  1  0
  5  3  1  0
  6  1  1  0
  6  4  1  0
  6  5  1  0
M  END
>  <NAME>  (408) 
1-METHYLSILACYCLOPENTANE

>  <SYNONYMS>  (408) 


>  <SPECTRUM TYPE>  (408) 
MS1

>  <INSTRUMENT TYPE>  (408) 
EI-B

>  <INSTRUMENT>  (408) 
HITACHI RMU-6M

>  <ION MODE>  (408) 
P

>  <INCHIKEY>  (408) 
SBWCARQXLPGQNH-UHFFFAOYSA-N

>  <FORMULA>  (408) 
C5H12Si

>  <EXACT MASS>  (408) 
100.070826914

>  <MW>  (408) 
100

>  <ID>  (408) 
JP011582

>  <CONTRIBUTOR>  (408) 
University of Tokyo Team, {Faculty of Engineering, University of Tokyo

>  <COMMENT>  (408) 
SMILES=C[SiH](C1)CCC1
InChI=InChI=1S/C5H12Si/c1-6-4-2-3-5-6/h6H,2-5H2,1H3
computed SMILES=C[SiH]1CCCC1
accession=JP011582
date=2016.01.19 (Created 2008.10.21, modified 2011.05.06)
author=YAMAMOTO M, DEP. CHEMISTRY, FAC. SCIENCE, NARA WOMEN'S UNIV.
license=CC BY-NC-SA
exact mass=100.07083
ionization energy=70 eV
ion type=[M]+*
computed spectral entropy=2.6874005590791907
computed normalized entropy=0.7620889980815871
SPLASH=splash10-00di-9000000000-22ba1b2e6bf44ce5543c
submitter=submitter = University of Tokyo Team (Faculty of Engineering, University of Tokyo)
MoNA Rating=3.75

>  <NUM PEAKS>  (408) 
34

>  <MASS SPECTRAL PEAKS>  (408) 
27 4
28 4.4
29 5.6
31 2.3
39 2.5
41 1.3
42 4.7
43 23.6
44 24.6
45 13.9
46 1.6
53 3.3
54 1.3
55 5.2
56 3.1
57 8.8
58 8.1
59 6
67 1.1
69 1.3
70 5.2
71 10.2
72 99.99
73 10.2
74 4.4
83 2.6
84 1.3
85 9.7
86 1.1
97 1.4
99 3.6
100 18.2
101 2.2
102 0.8

>  <PREDICTED SPECTRUM>  (408) 
26 42
27 138
28 74
29 96
31 2
37 8
38 35
39 249
40 113
41 305
42 200
43 413
44 693
45 225
46 132
51 55
52 20
53 138
54 160
55 180
56 158
57 213
58 325
59 194
60 43
63 70
66 2
67 182
68 29
69 176
70 129
71 297
72 999
73 309
74 214
83 142
84 53
85 292
86 63
96 30
97 60
98 95
99 219
100 460
101 124
102 39

$$$$

     RDKit          2D

  9  9  0  0  0  0  0  0  0  0999 V2000
   -0.0319   -0.0552    0.0000 C   0  0  0  0  0  0  0  0  0  0  0  0
   -1.3309   -0.8052    0.0000 C   0  0  0  0  0  0  0  0  0  0  0  0
   -0.3438    1.4120    0.0000 C   0  0  0  0  0  0  0  0  0  0  0  0
    1.1480    1.5688    0.0000 H   0  0  0  0  0  0  0  0  0  0  0  0
   -0.3438    2.9120    0.0000 H   0  0  0  0  0  0  0  0  0  0  0  0
   -2.4456    0.1985    0.0000 C   0  0  0  0  0  0  0  0  0  0  0  0
   -3.7447    0.9485    0.0000 H   0  0  0  0  0  0  0  0  0  0  0  0
   -3.3273   -1.0151    0.0000 H   0  0  0  0  0  0  0  0  0  0  0  0
   -1.8355    1.5688    0.0000 Si  0  0  0  0  0  4  0  0  0  0  0  0
  3  4  1  0
  3  5  1  0
  6  7  1  0
  6  8  1  0
  2  1  1  0
  3  1  1  0
  6  2  1  0
  9  3  1  0
  9  6  1  0
M  ISO  4   4   2   5   2   7   2   8   2
M  END
>  <NAME>  (409) 
SILACYCLOPENTANE (2,2,5,5-D4)

>  <SYNONYMS>  (409) 


>  <SPECTRUM TYPE>  (409) 
MS1

>  <INSTRUMENT TYPE>  (409) 
EI-B

>  <INSTRUMENT>  (409) 
HITACHI RMU-6M

>  <ION MODE>  (409) 
P

>  <INCHIKEY>  (409) 
DWRSCILTXDLQBG-KHORGVISSA-N

>  <FORMULA>  (409) 
C4H10Si

>  <EXACT MASS>  (409) 
90.080283834

>  <MW>  (409) 
90

>  <ID>  (409) 
JP011581

>  <CONTRIBUTOR>  (409) 
University of Tokyo Team, {Faculty of Engineering, University of Tokyo

>  <COMMENT>  (409) 
SMILES=[2H]C([2H])(C1)[SiH2]C([2H])([2H])C1
InChI=InChI=1S/C4H10Si/c1-2-4-5-3-1/h1-5H2/i3D2,4D2
computed SMILES=[H]C1([H])CCC([H])([H])[SiH2]1
accession=JP011581
date=2016.01.19 (Created 2008.10.21, modified 2011.05.06)
author=YAMAMOTO M, DEP. CHEMISTRY, FAC. SCIENCE, NARA WOMEN'S UNIV.
license=CC BY-NC-SA
exact mass=86.05518
ionization energy=70 eV
ion type=[M]+*
computed spectral entropy=2.7759837206634432
computed normalized entropy=0.7746530068177684
SPLASH=splash10-03di-9000000000-f5de7cac6a0efb5ad66f
submitter=submitter = University of Tokyo Team (Faculty of Engineering, University of Tokyo)
MoNA Rating=3.75

>  <NUM PEAKS>  (409) 
36

>  <MASS SPECTRAL PEAKS>  (409) 
27 2.1
28 8.3
29 7.6
30 5.9
31 3.1
32 3
33 1.5
40 3
41 2.5
42 1.2
43 8.2
44 19.7
45 13.5
46 4.5
47 3.1
48 1.3
53 2.3
54 3.5
55 2.1
56 4.7
57 6.5
58 8.8
59 16.7
60 99.99
61 26
62 9.8
63 1.5
73 1.8
74 1.4
86 1.3
87 1.5
88 5.3
89 9.6
90 31.4
91 3.5
92 1.3

>  <PREDICTED SPECTRUM>  (409) 
4 71
14 19
15 151
16 2
27 57
28 90
29 63
30 520
31 143
32 107
33 58
34 15
36 47
38 41
40 156
41 299
42 311
44 677
45 93
46 137
48 52
50 80
51 78
52 383
53 329
54 812
55 459
56 331
57 261
58 999
60 299
62 140
70 90
71 49
72 275
73 382
74 152
75 59
78 56
84 21
86 196
87 133
88 472
89 108
90 533
91 271

$$$$

     RDKit          2D

  7  7  0  0  0  0  0  0  0  0999 V2000
    0.0000    1.5000    0.0000 C   0  0  0  0  0  0  0  0  0  0  0  0
   -0.0000   -0.0000    0.0000 C   0  0  0  0  0  0  0  0  0  0  0  0
   -1.4266    1.9635    0.0000 C   0  0  0  0  0  0  0  0  0  0  0  0
   -1.4266   -0.4635    0.0000 C   0  0  0  0  0  0  0  0  0  0  0  0
   -2.3083    0.7500    0.0000 Si  0  0  0  0  0  4  0  0  0  0  0  0
   -3.4230    1.7537    0.0000 H   0  0  0  0  0  0  0  0  0  0  0  0
   -3.4230   -0.2537    0.0000 H   0  0  0  0  0  0  0  0  0  0  0  0
  5  6  1  0
  5  7  1  0
  2  1  1  0
  3  1  1  0
  4  2  1  0
  5  3  1  0
  5  4  1  0
M  ISO  2   6   2   7   2
M  END
>  <NAME>  (410) 
SILACYCLOPENTANE (1,1-D2)

>  <SYNONYMS>  (410) 


>  <SPECTRUM TYPE>  (410) 
MS1

>  <INSTRUMENT TYPE>  (410) 
EI-B

>  <INSTRUMENT>  (410) 
HITACHI RMU-6M

>  <ION MODE>  (410) 
P

>  <INCHIKEY>  (410) 
DWRSCILTXDLQBG-BFWBPSQCSA-N

>  <FORMULA>  (410) 
C4H10Si

>  <EXACT MASS>  (410) 
88.06773034199999

>  <MW>  (410) 
88

>  <ID>  (410) 
JP011580

>  <CONTRIBUTOR>  (410) 
University of Tokyo Team, {Faculty of Engineering, University of Tokyo

>  <COMMENT>  (410) 
SMILES=[2H][Si]([2H])(C1)CCC1
InChI=InChI=1S/C4H10Si/c1-2-4-5-3-1/h1-5H2/i5D2
computed SMILES=[H][Si]1([H])CCCC1
accession=JP011580
date=2016.01.19 (Created 2008.10.21, modified 2011.05.06)
author=YAMAMOTO M, DEP. CHEMISTRY, FAC. SCIENCE, NARA WOMEN'S UNIV.
license=CC BY-NC-SA
exact mass=86.05518
ionization energy=70 eV
ion type=[M]+*
computed spectral entropy=2.8180201745833475
computed normalized entropy=0.7692023355360849
SPLASH=splash10-08fr-9000000000-b65361946da468baec11
submitter=submitter = University of Tokyo Team (Faculty of Engineering, University of Tokyo)
MoNA Rating=3.75

>  <NUM PEAKS>  (410) 
39

>  <MASS SPECTRAL PEAKS>  (410) 
26 1.4
27 5.6
28 7.9
29 7
30 5
31 2.9
32 4.7
33 2.8
39 4.7
40 1.1
41 2.2
42 1.6
43 11.5
44 24.7
45 8.9
46 4.7
47 2.1
53 4.5
54 2.8
55 4.7
56 6.1
57 7.3
58 15.2
59 39.8
60 99.99
61 9.6
62 4
66 1
67 1.2
72 1.7
73 1.5
83 1.2
84 3.8
85 1
86 4.9
87 1.9
88 28.5
89 3.2
90 1.6

>  <PREDICTED SPECTRUM>  (410) 
14 41
16 21
25 45
26 201
27 355
28 365
29 195
30 120
31 132
32 53
33 73
34 59
36 13
38 86
39 465
40 299
41 571
42 284
43 170
44 189
45 410
46 300
47 304
48 103
49 30
50 19
51 33
53 64
54 269
56 39
57 60
58 106
59 804
60 807
61 223
67 166
73 24
87 97
88 999
89 322
90 73

$$$$

     RDKit          2D

  5  5  0  0  0  0  0  0  0  0999 V2000
    0.0000    1.5000    0.0000 C   0  0  0  0  0  0  0  0  0  0  0  0
    0.0000    0.0000    0.0000 C   0  0  0  0  0  0  0  0  0  0  0  0
   -1.4266    1.9635    0.0000 C   0  0  0  0  0  0  0  0  0  0  0  0
   -1.4266   -0.4635    0.0000 C   0  0  0  0  0  0  0  0  0  0  0  0
   -2.3083    0.7500    0.0000 Si  0  0  0  0  0  4  0  0  0  0  0  0
  2  1  1  0
  3  1  1  0
  4  2  1  0
  5  3  1  0
  5  4  1  0
M  END
>  <NAME>  (411) 
SILACYCLOPENTANE

>  <SYNONYMS>  (411) 


>  <SPECTRUM TYPE>  (411) 
MS1

>  <INSTRUMENT TYPE>  (411) 
EI-B

>  <INSTRUMENT>  (411) 
HITACHI RMU-6M

>  <ION MODE>  (411) 
P

>  <INCHIKEY>  (411) 
DWRSCILTXDLQBG-UHFFFAOYSA-N

>  <FORMULA>  (411) 
C4H10Si

>  <EXACT MASS>  (411) 
86.05517685

>  <MW>  (411) 
86

>  <ID>  (411) 
JP011579

>  <CONTRIBUTOR>  (411) 
University of Tokyo Team, {Faculty of Engineering, University of Tokyo

>  <COMMENT>  (411) 
computed SMILES=C1CC[SiH2]C1
SMILES=C(C1)C[SiH2]C1
InChI=InChI=1S/C4H10Si/c1-2-4-5-3-1/h1-5H2
accession=JP011579
date=2016.01.19 (Created 2008.10.21, modified 2011.05.06)
author=YAMAMOTO M, DEP. CHEMISTRY, FAC. SCIENCE, NARA WOMEN'S UNIV.
license=CC BY-NC-SA
exact mass=86.05518
ionization energy=70 eV
ion type=[M]+*
computed spectral entropy=2.4905715763681293
computed normalized entropy=0.7474245859649166
SPLASH=splash10-0a4i-9000000000-6f97781d8fd889cef70a
submitter=submitter = University of Tokyo Team (Faculty of Engineering, University of Tokyo)
MoNA Rating=3.75

>  <NUM PEAKS>  (411) 
28

>  <MASS SPECTRAL PEAKS>  (411) 
26 1.2
27 4.9
28 6.3
29 9.2
30 3
31 4.8
39 3.8
41 1.5
42 3.1
43 27.3
44 4.4
45 3.8
53 5.1
54 2.2
55 7.7
56 8.4
57 12.2
58 99.99
59 9.3
60 4.2
67 1.2
71 2.5
83 2.1
84 3.6
85 6.9
86 24.7
87 2.7
88 1

>  <PREDICTED SPECTRUM>  (411) 
4 1
14 26
16 1
25 19
26 114
27 293
28 245
29 149
30 171
31 75
32 21
36 2
37 72
38 88
39 302
40 212
41 270
42 179
43 309
44 100
45 139
46 78
47 17
50 107
51 131
52 73
53 207
54 86
55 166
56 189
57 303
58 999
59 300
60 134
61 9
68 25
69 62
70 111
71 158
82 2
83 173
84 239
85 641
86 800
87 209
88 31

$$$$

     RDKit          2D

 11 11  0  0  0  0  0  0  0  0999 V2000
   -4.8712    2.0071    0.0000 C   0  0  0  0  0  0  0  0  0  0  0  0
    2.9231    0.5071    0.0000 C   0  0  0  0  0  0  0  0  0  0  0  0
    2.9236    2.0079    0.0000 C   0  0  0  0  0  0  0  0  0  0  0  0
    1.6236   -0.2437    0.0000 C   0  0  0  0  0  0  0  0  0  0  0  0
    1.6245    2.7579    0.0000 C   0  0  0  0  0  0  0  0  0  0  0  0
    0.3245    0.5063    0.0000 C   0  0  0  0  0  0  0  0  0  0  0  0
   -0.9740    2.7571    0.0000 C   0  0  0  0  0  0  0  0  0  0  0  0
   -3.5721    2.7571    0.0000 C   0  0  0  0  0  0  0  0  0  0  0  0
    0.3250    2.0071    0.0000 C   0  0  0  0  0  0  0  0  0  0  0  0
   -3.5721    4.2571    0.0000 O   0  0  0  0  0  0  0  0  0  0  0  0
   -2.2731    2.0071    0.0000 O   0  0  0  0  0  0  0  0  0  0  0  0
  3  2  2  0
  4  2  1  0
  5  3  1  0
  6  4  2  0
  8  1  1  0
  9  5  2  0
  9  6  1  0
  9  7  1  0
 10  8  2  0
 11  7  1  0
 11  8  1  0
M  END
>  <NAME>  (412) 
BENZYL ACETATE

>  <SYNONYMS>  (412) 


>  <SPECTRUM TYPE>  (412) 
MS1

>  <INSTRUMENT TYPE>  (412) 
EI-B

>  <INSTRUMENT>  (412) 
JEOL JMS-DX-300

>  <ION MODE>  (412) 
P

>  <INCHIKEY>  (412) 
QUKGYYKBILRGFE-UHFFFAOYSA-N

>  <FORMULA>  (412) 
C9H10O2

>  <EXACT MASS>  (412) 
150.06807956

>  <MW>  (412) 
150

>  <ID>  (412) 
JP011500

>  <CONTRIBUTOR>  (412) 
University of Tokyo Team, {Faculty of Engineering, University of Tokyo

>  <COMMENT>  (412) 
SMILES=CC(=O)OCc(c1)cccc1
InChI=InChI=1S/C9H10O2/c1-8(10)11-7-9-5-3-2-4-6-9/h2-6H,7H2,1H3
computed SMILES=O=C(OCC=1C=CC=CC1)C
accession=JP011500
date=2016.01.19 (Created 2008.10.21, modified 2011.05.06)
author=FUJISE Y, HAMAMATSU UNIV. SCHOOL OF MEDICINE
license=CC BY-NC-SA
exact mass=150.06808
ionization energy=70 eV
ion type=[M]+*
computed spectral entropy=3.0682398909901596
computed normalized entropy=0.8157608732882798
SPLASH=splash10-0006-9200000000-25dd8e6faa7ec0169f6b
submitter=submitter = University of Tokyo Team (Faculty of Engineering, University of Tokyo)
MoNA Rating=3.75

>  <NUM PEAKS>  (412) 
43

>  <MASS SPECTRAL PEAKS>  (412) 
26 2.56
27 7.06
28 4.93
29 7.82
30 1.2
31 2.1
37 1.26
38 5.06
39 26.67
40 2.03
41 4.36
42 7.21
43 82.86
44 3.42
45 1.53
50 16.04
51 39.05
52 10.25
53 3.83
61 1.17
62 5.32
63 16.04
64 4.59
65 31.15
66 1.95
74 3.26
75 2.65
76 3.53
77 49.86
78 12.37
79 44.88
80 4.71
89 18.72
90 40.69
91 89.67
92 7.55
105 9.61
106 1.54
107 23.8
108 99.99
109 7.61
150 39.12
151 4.33

>  <PREDICTED SPECTRUM>  (412) 
14 38
15 50
17 2
25 15
26 66
27 112
28 64
29 31
31 6
37 35
38 85
39 193
40 75
41 40
42 125
43 659
44 139
45 71
49 33
50 176
51 253
52 131
53 102
61 14
62 107
63 210
64 107
65 315
66 104
74 66
75 38
76 81
77 381
78 176
79 315
80 48
89 344
90 369
91 999
92 349
105 139
106 78
107 647
108 554
109 200
110 71
150 264
151 50

$$$$

     RDKit          2D

 17 18  0  0  0  0  0  0  0  0999 V2000
   -0.3325    2.4400    0.0000 C   0  0  0  0  0  0  0  0  0  0  0  0
    8.7645   -1.3088    0.0000 C   0  0  0  0  0  0  0  0  0  0  0  0
    8.7647    0.1921    0.0000 C   0  0  0  0  0  0  0  0  0  0  0  0
    7.4651   -2.0598    0.0000 C   0  0  0  0  0  0  0  0  0  0  0  0
   -1.6200   -1.3100    0.0000 C   0  0  0  0  0  0  0  0  0  0  0  0
   -0.3300   -2.0600    0.0000 C   0  0  0  0  0  0  0  0  0  0  0  0
   -1.6200    0.1900    0.0000 C   0  0  0  0  0  0  0  0  0  0  0  0
    7.4656    0.9419    0.0000 C   0  0  0  0  0  0  0  0  0  0  0  0
    6.1659   -1.3100    0.0000 C   0  0  0  0  0  0  0  0  0  0  0  0
    0.9700   -1.3100    0.0000 C   0  0  0  0  0  0  0  0  0  0  0  0
    4.8670    0.9406    0.0000 C   0  0  0  0  0  0  0  0  0  0  0  0
   -0.3300    0.9400    0.0000 C   0  0  0  0  0  0  0  0  0  0  0  0
    6.1662    0.1908    0.0000 C   0  0  0  0  0  0  0  0  0  0  0  0
    0.9700    0.1900    0.0000 C   0  0  0  0  0  0  0  0  0  0  0  0
    2.2689    0.9402    0.0000 C   0  0  0  0  0  0  0  0  0  0  0  0
    2.2687    2.4402    0.0000 O   0  0  0  0  0  0  0  0  0  0  0  0
    3.5681    0.1904    0.0000 O   0  0  0  0  0  0  0  0  0  0  0  0
  3  2  2  0
  4  2  1  0
  6  5  2  0
  7  5  1  0
  8  3  1  0
  9  4  2  0
 10  6  1  0
 12  1  1  0
 12  7  2  0
 13  8  2  0
 13  9  1  0
 13 11  1  0
 14 10  2  0
 14 12  1  0
 15 14  1  0
 16 15  2  0
 17 11  1  0
 17 15  1  0
M  END
>  <NAME>  (413) 
BENZYL 2-METHYLBENZOATE

>  <SYNONYMS>  (413) 


>  <SPECTRUM TYPE>  (413) 
MS1

>  <INSTRUMENT TYPE>  (413) 
EI-B

>  <INSTRUMENT>  (413) 
JEOL JMS-DX-300

>  <ION MODE>  (413) 
P

>  <INCHIKEY>  (413) 
IRNSYGIUGHROTJ-UHFFFAOYSA-N

>  <FORMULA>  (413) 
C15H14O2

>  <EXACT MASS>  (413) 
226.099379688

>  <MW>  (413) 
226

>  <ID>  (413) 
JP011499

>  <CONTRIBUTOR>  (413) 
University of Tokyo Team, {Faculty of Engineering, University of Tokyo

>  <COMMENT>  (413) 
SMILES=Cc(c2)c(ccc2)C(=O)OCc(c1)cccc1
InChI=InChI=1S/C15H14O2/c1-12-7-5-6-10-14(12)15(16)17-11-13-8-3-2-4-9-13/h2-10H,11H2,1H3
computed SMILES=O=C(OCC=1C=CC=CC1)C=2C=CC=CC2C
accession=JP011499
date=2016.01.19 (Created 2008.10.21, modified 2011.05.06)
author=FUJISE Y, HAMAMATSU UNIV. SCHOOL OF MEDICINE
license=CC BY-NC-SA
exact mass=226.09938
ionization energy=70 eV
ion type=[M]+*
computed spectral entropy=2.9835730182556452
computed normalized entropy=0.7884311588175792
SPLASH=splash10-00kf-9430000000-daee0022520caecec5b5
submitter=submitter = University of Tokyo Team (Faculty of Engineering, University of Tokyo)
MoNA Rating=3.75

>  <NUM PEAKS>  (413) 
44

>  <MASS SPECTRAL PEAKS>  (413) 
27 2.01
28 4.48
29 1.18
38 1.16
39 10.65
41 3.19
45 3.11
50 3.27
51 9.66
52 2.37
53 1.33
62 1.45
63 7.64
64 2.31
65 33.29
66 2.11
74 1.15
75 1
76 1.35
77 15.85
78 2.93
79 8.34
89 11.06
90 13.6
91 99.99
92 15.26
105 9.16
107 4.83
108 2.05
118 11.14
119 62.57
120 5.95
122 6.33
135 10.08
136 7.36
148 1.51
165 1.15
167 2.33
181 3
208 49.42
209 8.29
211 1.6
226 26.3
227 4.4

>  <PREDICTED SPECTRUM>  (413) 
26 40
27 102
28 16
29 70
33 2
34 3
36 26
37 21
38 90
39 313
40 128
41 231
42 17
43 122
44 63
45 46
49 41
50 143
51 250
52 118
53 150
54 69
55 20
61 74
62 102
63 235
64 127
65 483
66 124
67 26
70 15
75 39
76 69
77 268
78 146
79 235
80 48
81 106
82 111
83 6
87 24
88 16
89 279
90 240
91 999
92 320
93 160
102 11
104 47
105 228
106 130
107 205
108 80
117 72
118 125
119 850
120 226
135 331
136 251
137 23
152 37
165 25
180 112
181 301
182 160
208 203
209 57
210 32
211 28
225 21
226 514
227 214
228 55

$$$$

     RDKit          2D

  9 10  0  0  0  0  0  0  0  0999 V2000
   -2.5115    3.3300    0.0000 C   0  0  0  0  0  0  0  0  0  0  0  0
   -2.5120    1.8292    0.0000 C   0  0  0  0  0  0  0  0  0  0  0  0
   -1.2120    4.0808    0.0000 C   0  0  0  0  0  0  0  0  0  0  0  0
   -1.2129    1.0792    0.0000 C   0  0  0  0  0  0  0  0  0  0  0  0
    0.0871    3.3308    0.0000 C   0  0  0  0  0  0  0  0  0  0  0  0
    2.8865    1.0795    0.0000 C   0  0  0  0  0  0  0  0  0  0  0  0
    0.0866    1.8300    0.0000 C   0  0  0  0  0  0  0  0  0  0  0  0
    1.3856    1.0800    0.0000 C   0  0  0  0  0  0  0  0  0  0  0  0
    2.1365   -0.2195    0.0000 O   0  0  0  0  0  0  0  0  0  0  0  0
  2  1  2  0
  3  1  1  0
  4  2  1  0
  5  3  2  0
  7  4  2  0
  7  5  1  0
  8  6  1  0
  8  7  1  0
  9  6  1  0
  9  8  1  0
M  END
>  <NAME>  (414) 
STYRENE OXIDE

>  <SYNONYMS>  (414) 


>  <SPECTRUM TYPE>  (414) 
MS1

>  <INSTRUMENT TYPE>  (414) 
EI-B

>  <INSTRUMENT>  (414) 
JEOL JMS-DX-300

>  <ION MODE>  (414) 
P

>  <INCHIKEY>  (414) 
AWMVMTVKBNGEAK-UHFFFAOYSA-N

>  <FORMULA>  (414) 
C8H8O

>  <EXACT MASS>  (414) 
120.057514876

>  <MW>  (414) 
120

>  <ID>  (414) 
JP011498

>  <CONTRIBUTOR>  (414) 
University of Tokyo Team, {Faculty of Engineering, University of Tokyo

>  <COMMENT>  (414) 
SMILES=c(c2)ccc(c2)C(C1)O1
InChI=InChI=1S/C8H8O/c1-2-4-7(5-3-1)8-6-9-8/h1-5,8H,6H2
computed SMILES=O1CC1C=2C=CC=CC2
accession=JP011498
date=2016.01.19 (Created 2008.10.21, modified 2011.05.06)
author=FUJISE Y, HAMAMATSU UNIV. SCHOOL OF MEDICINE
license=CC BY-NC-SA
exact mass=120.05751
ionization energy=70 eV
ion type=[M]+*
computed spectral entropy=3.141481967018344
computed normalized entropy=0.7912471010746758
SPLASH=splash10-0kdi-9600000000-ee02f9b2bd239f01f9b0
submitter=submitter = University of Tokyo Team (Faculty of Engineering, University of Tokyo)
MoNA Rating=3.75

>  <NUM PEAKS>  (414) 
53

>  <MASS SPECTRAL PEAKS>  (414) 
38 3.11
39 15.74
40 2.22
41 4.25
42 1.4
43 15.83
44 1.38
45 2.99
50 10.66
51 31.99
52 7.58
53 4.06
55 1.79
57 2.7
60 1.12
61 1.11
62 3.08
63 10.47
64 3.22
65 12.85
66 1.28
69 1.31
71 1.42
73 1.36
74 3.44
75 2.75
76 4.27
77 82.83
78 25.59
79 86.62
80 6.66
85 1.13
87 1.26
89 14.95
90 14.67
91 45.42
92 10.19
93 1.73
94 1.8
102 1.98
103 17.11
104 67.17
105 66.69
106 6.99
107 99.99
108 11.76
115 1.29
118 1.94
119 9.96
120 29.05
121 15.13
122 9.97
123 1.09

>  <PREDICTED SPECTRUM>  (414) 
14 23
15 5
25 36
26 111
27 105
28 93
29 72
31 29
34 24
36 31
37 174
38 236
39 443
40 101
41 133
42 53
43 209
44 25
49 74
50 402
51 565
52 335
53 65
61 180
62 278
63 488
64 326
65 422
66 117
73 27
74 105
75 52
76 134
77 428
78 161
79 81
89 872
90 864
91 999
92 438
101 11
102 15
104 39
105 122
118 125
119 422
120 524
121 135

$$$$

     RDKit          2D

 10 11  0  0  0  0  0  0  0  0999 V2000
    3.1628    4.4556    0.0000 C   0  0  0  0  0  0  0  0  0  0  0  0
    1.8635    2.2056    0.0000 C   0  0  0  0  0  0  0  0  0  0  0  0
    0.5639    4.4558    0.0000 C   0  0  0  0  0  0  0  0  0  0  0  0
    0.5634    1.4558    0.0000 C   0  0  0  0  0  0  0  0  0  0  0  0
   -0.7362    3.7060    0.0000 C   0  0  0  0  0  0  0  0  0  0  0  0
   -2.7864    0.1565    0.0000 C   0  0  0  0  0  0  0  0  0  0  0  0
    1.8638    3.7056    0.0000 C   0  0  0  0  0  0  0  0  0  0  0  0
   -0.7365    2.2060    0.0000 C   0  0  0  0  0  0  0  0  0  0  0  0
   -2.0355    1.4560    0.0000 C   0  0  0  0  0  0  0  0  0  0  0  0
   -3.5364    1.4556    0.0000 O   0  0  0  0  0  0  0  0  0  0  0  0
  4  2  2  0
  5  3  1  0
  7  1  1  0
  7  2  1  0
  7  3  2  0
  8  4  1  0
  8  5  2  0
  9  6  1  0
  9  8  1  0
 10  6  1  0
 10  9  1  0
M  END
>  <NAME>  (415) 
4-METHYLSTYRENE OXIDE

>  <SYNONYMS>  (415) 


>  <SPECTRUM TYPE>  (415) 
MS1

>  <INSTRUMENT TYPE>  (415) 
EI-B

>  <INSTRUMENT>  (415) 
JEOL JMS-DX-300

>  <ION MODE>  (415) 
P

>  <INCHIKEY>  (415) 
QAWJAMQTRGCJMH-UHFFFAOYSA-N

>  <FORMULA>  (415) 
C9H10O

>  <EXACT MASS>  (415) 
134.07316494

>  <MW>  (415) 
134

>  <ID>  (415) 
JP011497

>  <CONTRIBUTOR>  (415) 
University of Tokyo Team, {Faculty of Engineering, University of Tokyo

>  <COMMENT>  (415) 
SMILES=Cc(c2)ccc(c2)C(C1)O1
InChI=InChI=1S/C9H10O/c1-7-2-4-8(5-3-7)9-6-10-9/h2-5,9H,6H2,1H3
computed SMILES=O1CC1C2=CC=C(C=C2)C
accession=JP011497
date=2016.01.19 (Created 2008.10.21, modified 2011.05.06)
author=FUJISE Y, HAMAMATSU UNIV. SCHOOL OF MEDICINE
license=CC BY-NC-SA
exact mass=134.07316
ionization energy=70 eV
ion type=[M]+*
computed spectral entropy=3.182836166376612
computed normalized entropy=0.8313226120616328
SPLASH=splash10-0fvi-9500000000-6a6554bf1cb06c3b2808
submitter=submitter = University of Tokyo Team (Faculty of Engineering, University of Tokyo)
MoNA Rating=3.75

>  <NUM PEAKS>  (415) 
46

>  <MASS SPECTRAL PEAKS>  (415) 
37 2.63
38 9.4
39 51.87
40 4.15
41 6.15
42 1.26
43 1.18
49 1.22
50 24.74
51 48.87
52 18.4
53 12.59
54 1.12
61 2.77
62 11.05
63 34.71
64 6.47
65 26.14
66 3.16
74 6.65
75 6.96
76 8.88
77 61.9
78 99.99
79 26.37
80 1.49
86 1.78
87 2.37
89 13.42
90 3.78
91 59.85
92 5.04
101 1.14
102 11.95
103 66.11
104 39.63
105 46.48
106 7.15
115 2.65
117 3.28
118 2.86
119 89.89
120 8.59
133 8.4
134 26.58
135 3.3

>  <PREDICTED SPECTRUM>  (415) 
14 8
15 37
25 5
26 90
27 200
28 80
29 32
37 95
38 151
39 389
40 95
41 163
42 32
43 39
49 3
50 223
51 347
52 216
53 134
61 65
62 154
63 332
64 145
65 452
66 112
74 87
75 135
76 47
77 470
78 322
79 235
80 17
86 18
87 103
89 430
90 260
91 879
92 251
101 111
102 174
103 544
104 745
105 999
106 415
107 138
115 75
116 89
117 36
119 413
120 100
132 75
133 590
134 583
135 126

$$$$

     RDKit          2D

 10 11  0  0  0  0  0  0  0  0999 V2000
   -4.5970    0.9432    0.0000 C   0  0  0  0  0  0  0  0  0  0  0  0
   -3.2975    0.1923    0.0000 C   0  0  0  0  0  0  0  0  0  0  0  0
   -4.5975    2.4440    0.0000 C   0  0  0  0  0  0  0  0  0  0  0  0
   -1.9985    0.9423    0.0000 C   0  0  0  0  0  0  0  0  0  0  0  0
   -3.2985    3.1940    0.0000 C   0  0  0  0  0  0  0  0  0  0  0  0
   -0.6999    3.1932    0.0000 C   0  0  0  0  0  0  0  0  0  0  0  0
    2.0999    2.4427    0.0000 C   0  0  0  0  0  0  0  0  0  0  0  0
   -1.9990    2.4432    0.0000 C   0  0  0  0  0  0  0  0  0  0  0  0
    0.5991    2.4432    0.0000 C   0  0  0  0  0  0  0  0  0  0  0  0
    1.3499    1.1436    0.0000 O   0  0  0  0  0  0  0  0  0  0  0  0
  2  1  2  0
  3  1  1  0
  4  2  1  0
  5  3  2  0
  8  4  2  0
  8  5  1  0
  8  6  1  0
  9  6  1  0
  9  7  1  0
 10  7  1  0
 10  9  1  0
M  END
>  <NAME>  (416) 
1,2-EPOXY-3-PHENYL-PROPANE

>  <SYNONYMS>  (416) 


>  <SPECTRUM TYPE>  (416) 
MS1

>  <INSTRUMENT TYPE>  (416) 
EI-B

>  <INSTRUMENT>  (416) 
JEOL JMS-DX-300

>  <ION MODE>  (416) 
P

>  <INCHIKEY>  (416) 
JFDMLXYWGLECEY-UHFFFAOYSA-N

>  <FORMULA>  (416) 
C9H10O

>  <EXACT MASS>  (416) 
134.07316494

>  <MW>  (416) 
134

>  <ID>  (416) 
JP011496

>  <CONTRIBUTOR>  (416) 
University of Tokyo Team, {Faculty of Engineering, University of Tokyo

>  <COMMENT>  (416) 
SMILES=c(c2)ccc(c2)CC(C1)O1
InChI=InChI=1S/C9H10O/c1-2-4-8(5-3-1)6-9-7-10-9/h1-5,9H,6-7H2
computed SMILES=O1CC1CC=2C=CC=CC2
accession=JP011496
date=2016.01.19 (Created 2008.10.21, modified 2011.05.06)
author=FUJISE Y, HAMAMATSU UNIV. SCHOOL OF MEDICINE
license=CC BY-NC-SA
exact mass=134.07316
ionization energy=70 eV
ion type=[M]+*
computed spectral entropy=3.112315274508297
computed normalized entropy=0.8326887050915208
SPLASH=splash10-0ufu-9400000000-3ec62a3489ce7d9714fc
submitter=submitter = University of Tokyo Team (Faculty of Engineering, University of Tokyo)
MoNA Rating=3.75

>  <NUM PEAKS>  (416) 
42

>  <MASS SPECTRAL PEAKS>  (416) 
37 2.23
38 7.54
39 46.73
40 3.29
41 10.14
42 2.65
43 6.39
49 1.14
50 24.39
51 56.35
52 17.35
53 4.87
55 2.8
61 1.52
62 7.05
63 23.55
64 5.16
65 44.58
74 6.81
75 6.16
76 7.64
77 52.22
78 75.33
79 16.88
87 1.27
89 10.04
90 4.5
91 99.99
92 17.91
102 9.46
103 47.66
104 83.79
105 53.33
106 7.58
115 5.18
116 3.88
117 4.53
118 1.4
119 4.62
133 4.01
134 43.16
135 4.27

>  <PREDICTED SPECTRUM>  (416) 
14 14
15 26
25 14
26 95
27 213
28 111
29 144
30 103
31 96
36 1
37 91
38 183
39 423
40 170
41 244
42 152
43 340
44 119
49 76
50 337
51 517
52 299
53 178
54 36
55 60
56 46
57 198
58 61
61 52
62 166
63 330
64 206
65 474
66 138
67 27
71 9
73 19
74 170
75 199
76 225
77 616
78 487
79 264
80 52
87 46
88 16
89 263
90 185
91 999
92 451
101 5
102 165
103 441
104 690
105 603
106 224
107 54
115 318
116 235
117 195
118 54
119 104
120 12
128 0
131 24
132 104
133 326
134 531
135 181
136 9

$$$$

     RDKit          2D

  7  8  0  0  1  0  0  0  0  0999 V2000
   -1.6700   -0.7500    0.0000 C   0  0  0  0  0  0  0  0  0  0  0  0
   -1.6700    0.7500    0.0000 C   0  0  0  0  0  0  0  0  0  0  0  0
   -0.3700   -1.5000    0.0000 C   0  0  0  0  0  0  0  0  0  0  0  0
   -0.3700    1.5000    0.0000 C   0  0  0  0  0  0  0  0  0  0  0  0
    0.9300   -0.7500    0.0000 C   0  0  0  0  0  0  0  0  0  0  0  0
    0.9300    0.7500    0.0000 C   0  0  0  0  0  0  0  0  0  0  0  0
    2.2300   -0.0000    0.0000 O   0  0  0  0  0  0  0  0  0  0  0  0
  2  1  1  0
  3  1  1  0
  4  2  1  0
  5  3  1  1
  6  4  1  1
  6  5  1  0
  5  7  1  0
  6  7  1  0
M  END
>  <NAME>  (417) 
CYCLOHEXENE OXIDE

>  <SYNONYMS>  (417) 


>  <SPECTRUM TYPE>  (417) 
MS1

>  <INSTRUMENT TYPE>  (417) 
EI-B

>  <INSTRUMENT>  (417) 
JEOL JMS-DX-300

>  <ION MODE>  (417) 
P

>  <INCHIKEY>  (417) 
ZWAJLVLEBYIOTI-OLQVQODUSA-N

>  <FORMULA>  (417) 
C6H10O

>  <EXACT MASS>  (417) 
98.07316494

>  <MW>  (417) 
98

>  <ID>  (417) 
JP011495

>  <CONTRIBUTOR>  (417) 
University of Tokyo Team, {Faculty of Engineering, University of Tokyo

>  <COMMENT>  (417) 
SMILES=[H]C(C2)(O1)C([H])(CCC2)1
InChI=InChI=1S/C6H10O/c1-2-4-6-5(3-1)7-6/h5-6H,1-4H2/t5-,6+
computed SMILES=O1C2CCCCC12
accession=JP011495
date=2016.01.19 (Created 2008.10.21, modified 2011.05.06)
author=FUJISE Y, HAMAMATSU UNIV. SCHOOL OF MEDICINE
license=CC BY-NC-SA
exact mass=98.07316
ionization energy=70 eV
ion type=[M]+*
computed spectral entropy=3.400541774030442
computed normalized entropy=0.8485797453932376
SPLASH=splash10-05tf-9000000000-8c60284c636a3896c8bc
submitter=submitter = University of Tokyo Team (Faculty of Engineering, University of Tokyo)
MoNA Rating=3.75

>  <NUM PEAKS>  (417) 
55

>  <MASS SPECTRAL PEAKS>  (417) 
33 1.89
34 1.41
37 1.73
38 4.36
39 51.78
40 10.99
41 99.99
42 38.54
43 50.71
44 30.65
45 18.22
47 3.3
50 2.87
51 5.18
52 2.32
53 14.43
54 14.24
55 44.08
56 13.16
57 68.38
58 5.98
59 1.99
60 6.38
61 1.02
63 1.34
65 5.09
66 3.1
67 42.56
68 15.28
69 47.82
70 83.52
71 22.17
72 2.24
73 10.47
74 2.11
75 2.45
77 7.66
78 1.64
79 40.13
80 14.64
81 56.49
82 9.15
83 30.72
84 6.62
85 7.81
86 3.26
87 6
88 4.76
89 1.06
91 1.02
95 7.78
96 5.3
97 32.34
98 58.63
99 15.32

>  <PREDICTED SPECTRUM>  (417) 
14 56
15 140
16 47
17 16
18 33
19 5
25 39
26 294
27 824
28 508
29 734
30 136
31 221
32 61
35 0
36 58
37 134
38 207
39 816
40 334
41 999
42 661
43 527
44 273
45 40
49 87
50 194
51 307
52 207
53 418
54 720
55 889
56 457
57 638
58 220
62 67
63 101
64 29
65 219
66 191
67 820
68 507
69 645
70 595
71 218
72 59
77 185
78 129
79 309
80 184
81 532
82 157
83 508
84 126
95 59
96 80
97 441
98 354
99 76

$$$$

     RDKit          2D

 31 32  0  0  0  0  0  0  0  0999 V2000
    2.6142   -2.7270    0.0000 C   0  0  0  0  0  0  0  0  0  0  0  0
   -6.5112    4.0334    0.0000 C   0  0  0  0  0  0  0  0  0  0  0  0
    7.8023    1.7607    0.0000 C   0  0  0  0  0  0  0  0  0  0  0  0
   -5.2123    1.7998    0.0000 C   0  0  0  0  0  0  0  0  0  0  0  0
    6.5189    5.5193    0.0000 C   0  0  0  0  0  0  0  0  0  0  0  0
   -2.6207   -1.2129    0.0000 C   0  0  0  0  0  0  0  0  0  0  0  0
    2.5965    6.2875    0.0000 C   0  0  0  0  0  0  0  0  0  0  0  0
    1.3035   -0.4580    0.0000 C   0  0  0  0  0  0  0  0  0  0  0  0
    3.9136   -0.4772    0.0000 C   0  0  0  0  0  0  0  0  0  0  0  0
   -3.9132    4.0330    0.0000 C   0  0  0  0  0  0  0  0  0  0  0  0
    3.9138    1.0228    0.0000 C   0  0  0  0  0  0  0  0  0  0  0  0
   -2.6142    3.2828    0.0000 C   0  0  0  0  0  0  0  0  0  0  0  0
    5.2042    1.7678    0.0000 C   0  0  0  0  0  0  0  0  0  0  0  0
   -2.6142    1.7928    0.0000 C   0  0  0  0  0  0  0  0  0  0  0  0
    5.2124    3.2736    0.0000 C   0  0  0  0  0  0  0  0  0  0  0  0
   -1.3142    1.0328    0.0000 C   0  0  0  0  0  0  0  0  0  0  0  0
    3.8942    4.0368    0.0000 C   0  0  0  0  0  0  0  0  0  0  0  0
    0.0058    1.7928    0.0000 C   0  0  0  0  0  0  0  0  0  0  0  0
    2.6038    3.2918    0.0000 C   0  0  0  0  0  0  0  0  0  0  0  0
    0.0058    3.2828    0.0000 C   0  0  0  0  0  0  0  0  0  0  0  0
    2.6144   -1.2270    0.0000 O   0  0  0  0  0  0  0  0  0  0  0  0
   -5.2123    3.2832    0.0000 O   0  0  0  0  0  0  0  0  0  0  0  0
    6.5012    1.0142    0.0000 O   0  0  0  0  0  0  0  0  0  0  0  0
   -3.9153    1.0463    0.0000 O   0  0  0  0  0  0  0  0  0  0  0  0
    6.5139    4.0193    0.0000 O   0  0  0  0  0  0  0  0  0  0  0  0
   -1.3192   -0.4672    0.0000 O   0  0  0  0  0  0  0  0  0  0  0  0
    3.8951    5.5368    0.0000 O   0  0  0  0  0  0  0  0  0  0  0  0
    1.3044    1.0420    0.0000 O   0  0  0  0  0  0  0  0  0  0  0  0
    2.6143    1.7736    0.0000 O   0  0  0  0  0  0  0  0  0  0  0  0
   -1.3142    4.0328    0.0000 O   0  0  0  0  0  0  0  0  0  0  0  0
    1.3022    4.0373    0.0000 O   0  0  0  0  0  0  0  0  0  0  0  0
 11  9  1  0
 12 10  1  0
 13 11  1  0
 14 12  1  0
 15 13  1  0
 16 14  1  0
 17 15  1  0
 18 16  1  0
 19 17  1  0
 20 18  1  0
 21  1  1  0
 21  9  1  0
 22  2  1  0
 22 10  1  0
 23  3  1  0
 23 13  1  0
 24  4  1  0
 24 14  1  0
 25  5  1  0
 25 15  1  0
 26  6  1  0
 26 16  1  0
 27  7  1  0
 27 17  1  0
 28  8  1  0
 28 18  1  0
 29 11  1  0
 29 19  1  0
 30 12  1  0
 30 20  1  0
 31 19  1  0
 31 20  1  0
M  END
>  <NAME>  (418) 
2,2',3,3',4,4',6,6'-OCTA-ORTHO-METHYL-TREHALOSE

>  <SYNONYMS>  (418) 


>  <SPECTRUM TYPE>  (418) 
MS1

>  <INSTRUMENT TYPE>  (418) 
EI-B

>  <INSTRUMENT>  (418) 
JEOL JMS-DX-300

>  <ION MODE>  (418) 
P

>  <INCHIKEY>  (418) 
PREGLBRFCLDAND-UHFFFAOYSA-N

>  <FORMULA>  (418) 
C20H38O11

>  <EXACT MASS>  (418) 
454.241412036

>  <MW>  (418) 
454

>  <ID>  (418) 
JP011494

>  <CONTRIBUTOR>  (418) 
University of Tokyo Team, {Faculty of Engineering, University of Tokyo

>  <COMMENT>  (418) 
SMILES=COCC([H])(O1)C([H])(OC)C([H])(OC)C([H])(OC)C([H])1OC([H])(O2)C([H])(OC)C([H])(OC)C([H])(OC)C([H])(COC)2
InChI=InChI=1S/C20H38O11/c1-21-9-11-13(23-3)15(25-5)17(27-7)19(29-11)31-20-18(28-8)16(26-6)14(24-4)12(30-20)10-22-2/h11-20H,9-10H2,1-8H3
computed SMILES=O(C)CC1OC(OC2OC(COC)C(OC)C(OC)C2OC)C(OC)C(OC)C1OC
accession=JP011494
date=2016.01.19 (Created 2008.10.21, modified 2011.05.06)
author=FUJISE Y, HAMAMATSU UNIV. SCHOOL OF MEDICINE
license=CC BY-NC-SA
exact mass=454.24141
ionization energy=70 eV
ion type=[M]+*
computed spectral entropy=4.692028782463451
computed normalized entropy=0.8751675225747718
SPLASH=splash10-0k9m-9710000000-e0be1dcc12b10149e716
submitter=submitter = University of Tokyo Team (Faculty of Engineering, University of Tokyo)
MoNA Rating=3.75

>  <NUM PEAKS>  (418) 
213

>  <MASS SPECTRAL PEAKS>  (418) 
33 5.56
34 1.5
35 6.26
36 1.77
37 2.37
38 3.2
39 36.76
40 16.11
41 57.55
42 50.76
43 89.5
44 36.75
45 73.48
46 11.46
47 19.81
48 14.57
49 6.46
50 5.41
51 1.26
53 8.07
54 3.58
55 37.28
56 17.81
57 54.54
58 11.54
59 36.86
60 17.32
61 23.95
62 1.24
63 4.46
64 3.06
65 7.2
66 63.72
67 11.74
68 14.23
69 34.21
70 26.69
71 67.75
72 16.25
73 58
74 24.93
75 65.72
76 10.44
77 9.14
78 12.07
79 3.83
80 4.54
81 15.29
82 8.53
83 66.85
84 9.91
85 61.61
86 7.59
87 24.83
88 68.09
89 61.32
90 5.54
91 5.76
92 1.42
93 9.33
94 72.87
95 67.16
96 12.63
97 19.4
98 9.09
99 41.44
100 5.58
101 91.24
102 55.71
103 14.36
104 3.64
105 3.22
106 2.73
107 12.12
108 43.76
109 8
110 6.01
111 83.02
112 19.28
113 18.73
114 10.74
115 56.87
116 11.06
117 10.57
118 3.95
119 7.03
120 2.91
121 2.42
122 28.54
123 8.98
124 4.7
125 12.39
126 4.69
127 60.61
128 10.08
129 16.86
130 3.21
131 20.27
132 2.83
133 6.94
135 1.81
136 4.2
137 3.33
138 1.94
139 3.37
140 2.98
141 6.32
142 1.89
143 36.39
144 7.06
145 43.42
146 5.24
147 68.63
148 6.78
149 29.12
150 4.69
151 3.21
152 1.47
153 2.09
154 3.05
155 71.25
156 12.1
157 33.3
158 69.01
159 12.76
160 3.32
161 3.81
163 2.11
165 1.87
166 1.29
167 4.57
168 2.25
169 3.4
171 2.69
173 4.35
175 43.02
176 8.07
177 2.33
179 1.56
180 1.15
181 1.36
182 1.68
183 2.36
185 2.41
186 1.66
187 99.99
188 26.54
189 5.79
190 2.75
191 21.54
192 2.83
193 1.59
194 1.19
196 2.27
197 1.65
199 7.66
200 9.13
201 2.4
203 7.01
204 48.8
205 8.55
206 1.47
207 3.52
208 1.29
210 1.37
211 1.99
217 1.34
218 16.77
219 21.87
220 3.99
221 1.17
223 1.51
224 1.98
225 1.32
231 21.59
232 4.21
234 3.41
235 9.74
236 2.31
238 1.23
239 1.36
240 1
243 4.35
244 3.78
249 18.6
250 3.83
252 1.51
262 6
263 10.7
264 2.9
275 46.03
276 9.87
277 2
278 1.13
279 5.79
280 1.8
291 1.66
293 4.58
294 1.19
305 1.66
307 39.13
308 9.03
319 1.09
320 10.99
321 8.08
322 1.7
345 3.31
351 28.23
352 7.84
353 12.05
376 1.45
390 2.63
422 10.53

>  <PREDICTED SPECTRUM>  (418) 
15 165
41 95
43 91
45 644
53 16
55 52
57 168
58 75
59 168
63 59
66 4
69 49
71 518
73 28
74 16
75 458
81 19
83 93
84 36
85 137
87 88
88 722
89 336
95 29
96 17
97 21
98 12
99 200
100 76
101 999
102 100
103 106
110 62
111 813
112 82
113 101
114 122
115 203
116 28
117 2
123 20
125 16
126 30
127 380
128 48
129 64
130 24
131 218
139 70
141 39
142 4
143 411
144 2
145 324
147 55
155 549
157 86
158 50
159 93
160 31
161 86
171 14
173 68
174 84
175 23
187 784
188 13
189 20
219 374
220 69
221 4
234 29
235 17
279 116
305 53
360 40
391 97
423 56

$$$$

     RDKit          2D

 27 27  0  0  0  0  0  0  0  0999 V2000
   -6.5024   -0.4896    0.0000 C   0  0  0  0  0  0  0  0  0  0  0  0
    1.2730   -4.9889    0.0000 C   0  0  0  0  0  0  0  0  0  0  0  0
    5.1869   -1.2525    0.0000 C   0  0  0  0  0  0  0  0  0  0  0  0
    3.8940    4.0320    0.0000 C   0  0  0  0  0  0  0  0  0  0  0  0
   -1.3082    5.5241    0.0000 C   0  0  0  0  0  0  0  0  0  0  0  0
   -2.6054   -1.2402    0.0000 C   0  0  0  0  0  0  0  0  0  0  0  0
   -5.2035   -1.2398    0.0000 C   0  0  0  0  0  0  0  0  0  0  0  0
    1.2771   -3.4889    0.0000 C   0  0  0  0  0  0  0  0  0  0  0  0
    3.8904   -0.4982    0.0000 C   0  0  0  0  0  0  0  0  0  0  0  0
    2.5945    3.2828    0.0000 C   0  0  0  0  0  0  0  0  0  0  0  0
   -1.3030    4.0241    0.0000 C   0  0  0  0  0  0  0  0  0  0  0  0
   -1.3062   -0.4904    0.0000 C   0  0  0  0  0  0  0  0  0  0  0  0
   -0.0158   -1.2354    0.0000 C   0  0  0  0  0  0  0  0  0  0  0  0
    1.2923   -0.4896    0.0000 C   0  0  0  0  0  0  0  0  0  0  0  0
    1.2942    1.0336    0.0000 C   0  0  0  0  0  0  0  0  0  0  0  0
    0.0038    1.7786    0.0000 C   0  0  0  0  0  0  0  0  0  0  0  0
   -5.2037   -2.7398    0.0000 O   0  0  0  0  0  0  0  0  0  0  0  0
    2.5782   -2.7425    0.0000 O   0  0  0  0  0  0  0  0  0  0  0  0
    3.8954    1.0018    0.0000 O   0  0  0  0  0  0  0  0  0  0  0  0
    1.2960    4.0336    0.0000 O   0  0  0  0  0  0  0  0  0  0  0  0
   -2.5995    3.2696    0.0000 O   0  0  0  0  0  0  0  0  0  0  0  0
   -3.9043   -0.4900    0.0000 O   0  0  0  0  0  0  0  0  0  0  0  0
   -0.0199   -2.7354    0.0000 O   0  0  0  0  0  0  0  0  0  0  0  0
    2.5889   -1.2439    0.0000 O   0  0  0  0  0  0  0  0  0  0  0  0
    2.5936    1.7828    0.0000 O   0  0  0  0  0  0  0  0  0  0  0  0
   -0.0014    3.2786    0.0000 O   0  0  0  0  0  0  0  0  0  0  0  0
   -1.3057    1.0104    0.0000 O   0  0  0  0  0  0  0  0  0  0  0  0
  7  1  1  0
  8  2  1  0
  9  3  1  0
 10  4  1  0
 11  5  1  0
 12  6  1  0
 13 12  1  0
 14 13  1  0
 15 14  1  0
 16 15  1  0
 17  7  2  0
 18  8  2  0
 19  9  2  0
 20 10  2  0
 21 11  2  0
 22  6  1  0
 22  7  1  0
 23  8  1  0
 23 13  1  0
 24  9  1  0
 24 14  1  0
 25 10  1  0
 25 15  1  0
 26 11  1  0
 26 16  1  0
 27 12  1  0
 27 16  1  0
M  END
>  <NAME>  (419) 
A-D-GALACTOSE PENTAACETATE

>  <SYNONYMS>  (419) 


>  <SPECTRUM TYPE>  (419) 
MS1

>  <INSTRUMENT TYPE>  (419) 
EI-B

>  <INSTRUMENT>  (419) 
JEOL JMS-DX-300

>  <ION MODE>  (419) 
P

>  <INCHIKEY>  (419) 
LPTITAGPBXDDGR-UHFFFAOYSA-N

>  <FORMULA>  (419) 
C16H22O11

>  <EXACT MASS>  (419) 
390.116211524

>  <MW>  (419) 
390

>  <ID>  (419) 
JP011491

>  <CONTRIBUTOR>  (419) 
University of Tokyo Team, {Faculty of Engineering, University of Tokyo

>  <COMMENT>  (419) 
SMILES=CC(=O)OCC([H])(O1)C([H])(OC(C)=O)C([H])(OC(C)=O)C([H])(OC(C)=O)C([H])(OC(C)=O)1
InChI=InChI=1S/C16H22O11/c1-7(17)22-6-12-13(23-8(2)18)14(24-9(3)19)15(25-10(4)20)16(27-12)26-11(5)21/h12-16H,6H2,1-5H3
computed SMILES=O=C(OCC1OC(OC(=O)C)C(OC(=O)C)C(OC(=O)C)C1OC(=O)C)C
accession=JP011491
date=2016.01.19 (Created 2008.10.21, modified 2011.05.06)
author=FUJISE Y, HAMAMATSU UNIV. SCHOOL OF MEDICINE
license=CC BY-NC-SA
exact mass=390.11621
ionization energy=70 eV
ion type=[M]+*
computed spectral entropy=4.158521248801943
computed normalized entropy=0.8570682832968489
SPLASH=splash10-0fr6-6930000000-9800b852e2198d41f783
submitter=submitter = University of Tokyo Team (Faculty of Engineering, University of Tokyo)
MoNA Rating=3.75

>  <NUM PEAKS>  (419) 
128

>  <MASS SPECTRAL PEAKS>  (419) 
39 2.72
40 6.52
41 15.22
42 10.2
43 68.03
44 46.56
45 7.4
53 2.76
54 2.14
55 15.06
56 5.33
57 21.66
58 1.33
60 8.78
61 8.83
67 3.7
68 5.13
69 32.63
70 13.63
71 14.7
72 1.33
73 33.33
74 2.82
78 1.19
79 1.17
80 8.09
81 31.89
82 7.39
83 7.97
84 5.36
85 16.26
86 11.22
87 2.63
88 1.05
89 1.55
93 2.24
94 3.4
95 4.75
96 4.27
97 32.76
98 69.15
99 21
100 2.29
101 5.56
102 10.53
103 54.66
104 4.31
105 1.3
107 3.3
109 35.67
110 5.48
111 5.02
112 11.32
113 8.89
114 17.75
115 77.17
117 19.12
118 2.39
121 2.37
122 1.92
123 3.25
124 1.13
125 4.39
126 17.78
127 26.04
128 4
129 3.71
131 8.09
135 1.6
136 3.29
137 3.87
138 1.89
139 15.76
140 60.61
141 11.46
142 1.65
143 10.02
144 5.45
145 50.85
146 4.05
147 1.25
149 17.86
150 2.19
151 1.03
153 1.64
155 6.74
156 3.66
157 81.95
158 48.4
159 5.6
161 1.01
167 9.68
168 10.25
169 59.05
170 6.74
171 2.66
173 1.27
182 12.33
183 2.04
185 2.65
186 4.63
187 5.42
197 6.3
199 24.69
200 68.32
201 9.46
202 1.14
203 6.51
210 4.03
211 8.73
212 1.25
215 2.54
224 1.06
228 5.32
229 5.76
242 99.99
243 32.44
244 5.67
245 18.14
246 3.12
256 2.87
270 2.28
271 1.15
276 7.01
280 1.43
288 2.93
331 59.78
332 14.79

>  <PREDICTED SPECTRUM>  (419) 
14 14
41 50
42 113
43 591
44 244
45 130
49 65
53 88
54 73
55 109
57 59
60 152
61 192
67 85
68 157
69 255
70 249
71 267
72 130
73 629
74 10
77 28
79 1
80 126
81 500
82 174
83 261
84 258
85 454
86 431
87 43
89 90
95 57
96 135
97 547
98 999
99 432
100 19
101 130
102 463
103 747
104 50
105 17
107 10
108 138
109 457
110 53
112 95
113 223
114 451
115 899
116 331
121 4
122 2
123 21
125 150
126 405
127 401
128 95
129 46
131 79
132 22
139 433
140 455
141 293
142 5
143 267
144 337
145 623
146 17
155 192
156 54
157 599
158 458
159 52
167 26
168 417
169 549
170 80
171 35
172 1
173 97
174 19
182 182
183 109
185 97
186 187
187 85
197 37
198 7
199 220
200 434
201 128
203 14
204 1
210 149
211 324
214 4
215 221
216 21
217 117
228 244
229 156
242 372
243 84
245 269
246 65
247 16
271 9
288 63
317 1
331 338
332 44

$$$$

     RDKit          2D

 27 27  0  0  1  0  0  0  0  0999 V2000
   -6.5024   -0.4896    0.0000 C   0  0  0  0  0  0  0  0  0  0  0  0
    1.2730   -4.9889    0.0000 C   0  0  0  0  0  0  0  0  0  0  0  0
    5.1869   -1.2525    0.0000 C   0  0  0  0  0  0  0  0  0  0  0  0
    3.8940    4.0320    0.0000 C   0  0  0  0  0  0  0  0  0  0  0  0
   -1.3082    5.5241    0.0000 C   0  0  0  0  0  0  0  0  0  0  0  0
   -2.6054   -1.2402    0.0000 C   0  0  0  0  0  0  0  0  0  0  0  0
   -5.2035   -1.2398    0.0000 C   0  0  0  0  0  0  0  0  0  0  0  0
    1.2771   -3.4889    0.0000 C   0  0  0  0  0  0  0  0  0  0  0  0
    3.8904   -0.4982    0.0000 C   0  0  0  0  0  0  0  0  0  0  0  0
    2.5945    3.2828    0.0000 C   0  0  0  0  0  0  0  0  0  0  0  0
   -1.3030    4.0241    0.0000 C   0  0  0  0  0  0  0  0  0  0  0  0
   -1.3062   -0.4904    0.0000 C   0  0  0  0  0  0  0  0  0  0  0  0
   -0.0158   -1.2354    0.0000 C   0  0  0  0  0  0  0  0  0  0  0  0
    1.2923   -0.4896    0.0000 C   0  0  0  0  0  0  0  0  0  0  0  0
    1.2942    1.0336    0.0000 C   0  0  0  0  0  0  0  0  0  0  0  0
    0.0038    1.7786    0.0000 C   0  0  0  0  0  0  0  0  0  0  0  0
   -5.2037   -2.7398    0.0000 O   0  0  0  0  0  0  0  0  0  0  0  0
    2.5782   -2.7425    0.0000 O   0  0  0  0  0  0  0  0  0  0  0  0
    3.8954    1.0018    0.0000 O   0  0  0  0  0  0  0  0  0  0  0  0
    1.2960    4.0336    0.0000 O   0  0  0  0  0  0  0  0  0  0  0  0
   -2.5995    3.2696    0.0000 O   0  0  0  0  0  0  0  0  0  0  0  0
   -3.9043   -0.4900    0.0000 O   0  0  0  0  0  0  0  0  0  0  0  0
   -0.0199   -2.7354    0.0000 O   0  0  0  0  0  0  0  0  0  0  0  0
    2.5889   -1.2439    0.0000 O   0  0  0  0  0  0  0  0  0  0  0  0
    2.5936    1.7828    0.0000 O   0  0  0  0  0  0  0  0  0  0  0  0
   -0.0014    3.2786    0.0000 O   0  0  0  0  0  0  0  0  0  0  0  0
   -1.3057    1.0104    0.0000 O   0  0  0  0  0  0  0  0  0  0  0  0
  7  1  1  0
  8  2  1  0
  9  3  1  0
 10  4  1  0
 11  5  1  0
 12  6  1  1
 13 12  1  0
 14 13  1  0
 15 14  1  0
 16 15  1  0
 17  7  2  0
 18  8  2  0
 19  9  2  0
 20 10  2  0
 21 11  2  0
 22  6  1  0
 22  7  1  0
 23  8  1  0
 13 23  1  6
 24  9  1  0
 14 24  1  1
 25 10  1  0
 15 25  1  6
 26 11  1  0
 16 26  1  1
 27 12  1  0
 27 16  1  0
M  END
>  <NAME>  (420) 
B-D-GLUCOSE PENTAACETATE

>  <SYNONYMS>  (420) 


>  <SPECTRUM TYPE>  (420) 
MS1

>  <INSTRUMENT TYPE>  (420) 
EI-B

>  <INSTRUMENT>  (420) 
JEOL JMS-DX-300

>  <ION MODE>  (420) 
P

>  <INCHIKEY>  (420) 
LPTITAGPBXDDGR-IBEHDNSVSA-N

>  <FORMULA>  (420) 
C16H22O11

>  <EXACT MASS>  (420) 
390.116211524

>  <MW>  (420) 
390

>  <ID>  (420) 
JP011490

>  <CONTRIBUTOR>  (420) 
University of Tokyo Team, {Faculty of Engineering, University of Tokyo

>  <COMMENT>  (420) 
SMILES=CC(=O)OCC(O1)C(OC(C)=O)C(OC(C)=O)C(OC(C)=O)C(OC(C)=O)1
InChI=InChI=1S/C16H22O11/c1-7(17)22-6-12-13(23-8(2)18)14(24-9(3)19)15(25-10(4)20)16(27-12)26-11(5)21/h12-16H,6H2,1-5H3/t12-,13-,14+,15-,16-/m1/s1
computed SMILES=O=C(OCC1OC(OC(=O)C)C(OC(=O)C)C(OC(=O)C)C1OC(=O)C)C
accession=JP011490
date=2016.01.19 (Created 2008.10.21, modified 2011.05.06)
author=FUJISE Y, HAMAMATSU UNIV. SCHOOL OF MEDICINE
license=CC BY-NC-SA
exact mass=390.11621
ionization energy=70 eV
ion type=[M]+*
computed spectral entropy=4.399100037635778
computed normalized entropy=0.871133757342875
SPLASH=splash10-0k97-5930000000-e21c830a522243fe6a57
submitter=submitter = University of Tokyo Team (Faculty of Engineering, University of Tokyo)
MoNA Rating=3.75

>  <NUM PEAKS>  (420) 
156

>  <MASS SPECTRAL PEAKS>  (420) 
39 4.68
40 7.81
41 17.67
42 20.59
43 67.62
44 60.52
45 12.74
46 1.05
48 1.56
53 4.16
54 3.54
55 14.83
56 6.56
57 22.48
58 1.95
60 10.88
61 14.6
67 3.67
68 7.38
69 46.39
70 25.19
71 20.2
72 1.93
73 47.74
74 5.65
76 1.41
77 1.26
78 4.15
79 1.64
80 18.17
81 49.54
82 11.04
83 8.81
84 9.31
85 42.15
86 25.53
87 3.83
88 1.24
89 2.91
91 2.04
93 2.67
94 8.84
95 6.36
96 6.29
97 55.95
98 74.15
99 38.84
100 4.38
101 9.84
102 25.95
103 64.51
104 8.89
105 1.95
107 6.45
108 1.58
109 31.11
110 5.33
111 7.16
112 26.19
113 23.88
114 36.54
115 80.78
116 39.9
117 4.65
119 1.05
121 2.43
122 3.54
123 3.47
124 1.34
125 8.78
126 48
127 32.46
128 6.89
129 5.04
130 1.1
131 17.86
132 1.9
133 1.31
135 1.64
136 3.3
137 3.89
138 3.18
139 36.06
140 73.72
141 23.18
142 3.98
143 21.14
144 13.71
145 70.9
146 8.95
147 2.19
149 18.4
150 2.87
151 1
152 1
153 3.01
154 1.1
155 32.77
156 9.24
157 86.74
158 70.61
159 10.85
160 1.26
161 2.61
167 10.8
168 37.72
169 46.43
170 5.73
171 4.84
173 3.95
175 2.02
182 26.22
183 3.8
185 5.94
186 11.21
187 9.55
188 1.25
191 1.08
192 1.05
196 1.07
197 22.82
198 3.66
199 51.16
200 84.77
201 18.57
202 3.05
203 11.68
204 1.8
205 1.07
210 10.92
211 22.52
212 3.41
215 27.76
216 3.52
217 2.91
224 1.34
228 25.51
229 10.31
230 1.61
236 2.15
242 99.99
243 49.7
244 8.54
245 21.34
246 3.53
259 2.17
270 5.77
271 2.03
279 6.84
280 1.35
287 2.65
288 9
289 2.32
317 4.54
331 8.84
347 1.83

>  <PREDICTED SPECTRUM>  (420) 
14 14
41 50
42 113
43 591
44 244
45 130
49 65
53 88
54 73
55 109
57 59
60 152
61 192
67 85
68 157
69 255
70 249
71 267
72 130
73 629
74 10
77 28
79 1
80 126
81 500
82 174
83 261
84 258
85 454
86 431
87 43
89 90
95 57
96 135
97 547
98 999
99 432
100 19
101 130
102 463
103 747
104 50
105 17
107 10
108 138
109 457
110 53
112 95
113 223
114 451
115 899
116 331
121 4
122 2
123 21
125 150
126 405
127 401
128 95
129 46
131 79
132 22
139 433
140 455
141 293
142 5
143 267
144 337
145 623
146 17
155 192
156 54
157 599
158 458
159 52
167 26
168 417
169 549
170 80
171 35
172 1
173 97
174 19
182 182
183 109
185 97
186 187
187 85
197 37
198 7
199 220
200 434
201 128
203 14
204 1
210 149
211 324
214 4
215 221
216 21
217 117
228 244
229 156
242 372
243 84
245 269
246 65
247 16
271 9
288 63
317 1
331 338
332 44

$$$$

     RDKit          2D

 26 28  0  0  0  0  0  0  0  0999 V2000
    0.0000    3.0000    0.0000 C   0  0  0  0  0  0  0  0  0  0  0  0
    2.5989   -1.5002    0.0000 C   0  0  0  0  0  0  0  0  0  0  0  0
   -7.7978   -7.5004    0.0000 C   0  0  0  0  0  0  0  0  0  0  0  0
  -10.3968   -3.0002    0.0000 C   0  0  0  0  0  0  0  0  0  0  0  0
    3.8981    0.7504    0.0000 C   0  0  0  0  0  0  0  0  0  0  0  0
  -11.6959   -5.2508    0.0000 C   0  0  0  0  0  0  0  0  0  0  0  0
   -2.5989   -3.0002    0.0000 C   0  0  0  0  0  0  0  0  0  0  0  0
   -3.8989   -0.7502    0.0000 C   0  0  0  0  0  0  0  0  0  0  0  0
   -3.8989   -3.7502    0.0000 C   0  0  0  0  0  0  0  0  0  0  0  0
   -5.1989   -1.5002    0.0000 C   0  0  0  0  0  0  0  0  0  0  0  0
   -1.3000    0.7500    0.0000 C   0  0  0  0  0  0  0  0  0  0  0  0
    0.0000   -1.5000    0.0000 C   0  0  0  0  0  0  0  0  0  0  0  0
   -6.4978   -5.2504    0.0000 C   0  0  0  0  0  0  0  0  0  0  0  0
   -7.7978   -3.0004    0.0000 C   0  0  0  0  0  0  0  0  0  0  0  0
    0.0000    1.5000    0.0000 C   0  0  0  0  0  0  0  0  0  0  0  0
    1.3000   -0.7500    0.0000 C   0  0  0  0  0  0  0  0  0  0  0  0
   -7.7978   -6.0004    0.0000 C   0  0  0  0  0  0  0  0  0  0  0  0
   -9.0978   -3.7504    0.0000 C   0  0  0  0  0  0  0  0  0  0  0  0
   -2.5989   -1.5002    0.0000 C   0  0  0  0  0  0  0  0  0  0  0  0
   -5.1989   -3.0002    0.0000 C   0  0  0  0  0  0  0  0  0  0  0  0
   -1.3000   -0.7500    0.0000 C   0  0  0  0  0  0  0  0  0  0  0  0
   -6.4978   -3.7504    0.0000 C   0  0  0  0  0  0  0  0  0  0  0  0
    1.3000    0.7500    0.0000 C   0  0  0  0  0  0  0  0  0  0  0  0
   -9.0978   -5.2504    0.0000 C   0  0  0  0  0  0  0  0  0  0  0  0
    2.5989    1.5002    0.0000 O   0  0  0  0  0  0  0  0  0  0  0  0
  -10.3968   -6.0006    0.0000 O   0  0  0  0  0  0  0  0  0  0  0  0
  9  7  2  0
 10  8  1  0
 15  1  1  0
 15 11  2  0
 16  2  1  0
 16 12  1  0
 17  3  1  0
 17 13  2  0
 18  4  1  0
 18 14  1  0
 19  7  1  0
 19  8  2  0
 20  9  1  0
 20 10  2  0
 21 11  1  0
 21 12  2  0
 21 19  1  0
 22 13  1  0
 22 14  2  0
 22 20  1  0
 23 15  1  0
 23 16  2  0
 24 17  1  0
 24 18  2  0
 25  5  1  0
 25 23  1  0
 26  6  1  0
 26 24  1  0
M  END
>  <NAME>  (421) 
4,4''-DI-METHOXY-3,5,3'',5''-TETRA-METHYL-TERPHENYL

>  <SYNONYMS>  (421) 


>  <SPECTRUM TYPE>  (421) 
MS1

>  <INSTRUMENT TYPE>  (421) 
EI-B

>  <INSTRUMENT>  (421) 
JEOL JMS-DX-300

>  <ION MODE>  (421) 
P

>  <INCHIKEY>  (421) 
NESXEOLYZMMQRA-UHFFFAOYSA-N

>  <FORMULA>  (421) 
C24H26O2

>  <EXACT MASS>  (421) 
346.193280072

>  <MW>  (421) 
346

>  <ID>  (421) 
JP011488

>  <CONTRIBUTOR>  (421) 
University of Tokyo Team, {Faculty of Engineering, University of Tokyo

>  <COMMENT>  (421) 
SMILES=COc(c(C)3)c(C)cc(c3)c(c2)ccc(c2)c(c1)cc(C)c(OC)c(C)1
InChI=InChI=1S/C24H26O2/c1-15-11-21(12-16(2)23(15)25-5)19-7-9-20(10-8-19)22-13-17(3)24(26-6)18(4)14-22/h7-14H,1-6H3
computed SMILES=O(C=1C(=CC(=CC1C)C=2C=CC(=CC2)C3=CC(=C(OC)C(=C3)C)C)C)C
accession=JP011488
date=2016.01.19 (Created 2008.10.21, modified 2011.05.06)
author=FUJISE Y, HAMAMATSU UNIV. SCHOOL OF MEDICINE
license=CC BY-NC-SA
exact mass=346.19328
ionization energy=70 eV
ion type=[M]+*
computed spectral entropy=2.427366970147351
computed normalized entropy=0.6625702539253658
SPLASH=splash10-000t-0109000000-bb0add4f227d353d0005
submitter=submitter = University of Tokyo Team (Faculty of Engineering, University of Tokyo)
MoNA Rating=3.75

>  <NUM PEAKS>  (421) 
39

>  <MASS SPECTRAL PEAKS>  (421) 
41 2.53
77 1.34
91 2.95
115 1.73
121 1
128 1.84
143 1.49
144 1.84
150 1.25
152 2.23
153 1.15
158 6.47
159 1.59
165 3.15
166 3.15
167 1.24
173 7.68
178 1.69
179 1.26
189 1.44
202 1.89
203 1.48
215 2.65
229 2.03
230 1.1
245 1.38
257 1.07
273 2.36
288 2.4
300 1.02
315 1.76
316 9.05
317 2.51
331 51.13
332 12.57
333 1.86
346 99.99
347 26.63
348 3.21

>  <PREDICTED SPECTRUM>  (421) 
29 15
39 11
41 68
43 67
44 1
45 1
51 1
55 7
57 55
59 5
69 47
70 6
75 3
76 7
77 59
78 3
91 44
102 5
113 31
115 94
119 14
125 8
126 107
127 64
128 53
129 7
131 9
133 10
139 69
141 75
142 17
149 4
150 13
151 74
152 90
153 55
154 29
155 3
159 15
163 24
164 31
165 141
166 42
167 46
168 35
169 53
178 133
183 39
185 27
189 14
193 34
195 3
197 7
198 16
201 6
202 8
211 9
213 18
215 86
226 15
228 22
229 23
243 52
244 8
245 92
255 26
257 57
259 12
270 37
271 127
272 26
273 14
285 88
287 75
288 86
300 43
301 98
302 10
303 59
315 94
316 163
317 85
331 748
332 363
333 142
334 48
346 999
347 564
348 137
349 7

$$$$

     RDKit          2D

 16 17  0  0  0  0  0  0  0  0999 V2000
   -3.9180   -0.7714    0.0000 C   0  0  0  0  0  0  0  0  0  0  0  0
    7.8207    3.0150    0.0000 C   0  0  0  0  0  0  0  0  0  0  0  0
    1.3000   -0.7500    0.0000 C   0  0  0  0  0  0  0  0  0  0  0  0
    0.0300    1.5000    0.0000 C   0  0  0  0  0  0  0  0  0  0  0  0
    2.6027    2.9936    0.0000 C   0  0  0  0  0  0  0  0  0  0  0  0
    3.8727    0.7436    0.0000 C   0  0  0  0  0  0  0  0  0  0  0  0
    0.0300   -1.5000    0.0000 C   0  0  0  0  0  0  0  0  0  0  0  0
   -1.3200    0.7500    0.0000 C   0  0  0  0  0  0  0  0  0  0  0  0
    3.8727    3.7436    0.0000 C   0  0  0  0  0  0  0  0  0  0  0  0
    5.2227    1.4936    0.0000 C   0  0  0  0  0  0  0  0  0  0  0  0
    1.3000    0.7500    0.0000 C   0  0  0  0  0  0  0  0  0  0  0  0
    2.6027    1.4936    0.0000 C   0  0  0  0  0  0  0  0  0  0  0  0
   -1.3200   -0.7500    0.0000 C   0  0  0  0  0  0  0  0  0  0  0  0
    5.2227    2.9936    0.0000 C   0  0  0  0  0  0  0  0  0  0  0  0
   -2.6128   -1.5107    0.0000 O   0  0  0  0  0  0  0  0  0  0  0  0
    6.5155    3.7543    0.0000 O   0  0  0  0  0  0  0  0  0  0  0  0
  7  3  2  0
  8  4  1  0
  9  5  2  0
 10  6  1  0
 11  3  1  0
 11  4  2  0
 12  5  1  0
 12  6  2  0
 12 11  1  0
 13  7  1  0
 13  8  2  0
 14  9  1  0
 14 10  2  0
 15  1  1  0
 15 13  1  0
 16  2  1  0
 16 14  1  0
M  END
>  <NAME>  (422) 
4,4'-DI-METHOXY-BIPHENYL

>  <SYNONYMS>  (422) 


>  <SPECTRUM TYPE>  (422) 
MS1

>  <INSTRUMENT TYPE>  (422) 
EI-B

>  <INSTRUMENT>  (422) 
JEOL JMS-DX-300

>  <ION MODE>  (422) 
P

>  <INCHIKEY>  (422) 
UIMPAOAAAYDUKQ-UHFFFAOYSA-N

>  <FORMULA>  (422) 
C14H14O2

>  <EXACT MASS>  (422) 
214.099379688

>  <MW>  (422) 
214

>  <ID>  (422) 
JP011487

>  <CONTRIBUTOR>  (422) 
University of Tokyo Team, {Faculty of Engineering, University of Tokyo

>  <COMMENT>  (422) 
SMILES=COc(c2)ccc(c2)c(c1)ccc(OC)c1
InChI=InChI=1S/C14H14O2/c1-15-13-7-3-11(4-8-13)12-5-9-14(16-2)10-6-12/h3-10H,1-2H3
computed SMILES=O(C=1C=CC(=CC1)C2=CC=C(OC)C=C2)C
accession=JP011487
date=2016.01.19 (Created 2008.10.21, modified 2011.05.06)
author=FUJISE Y, HAMAMATSU UNIV. SCHOOL OF MEDICINE
license=CC BY-NC-SA
exact mass=214.09938
ionization energy=70 eV
ion type=[M]+*
computed spectral entropy=2.8296781239646687
computed normalized entropy=0.7161487181004814
SPLASH=splash10-03dj-1950000000-89d83f8036414d19fc85
submitter=submitter = University of Tokyo Team (Faculty of Engineering, University of Tokyo)
MoNA Rating=3.75

>  <NUM PEAKS>  (422) 
52

>  <MASS SPECTRAL PEAKS>  (422) 
39 2.62
41 1.55
43 1.34
50 1.8
51 2.85
55 1.11
57 1.08
62 1.49
63 4.47
69 1.96
74 1.8
75 3.32
76 3.27
77 2.97
78 1.57
87 1.52
88 1
89 2.79
91 1.02
101 1.77
102 6.87
103 1.05
107 5.86
113 1.64
114 1.3
115 3.3
126 2.5
127 6.5
128 22.2
129 2.66
139 9.56
140 4.64
141 2.32
145 1.24
152 2.33
153 1.24
155 2.19
156 11.28
157 1.87
168 2.31
169 1.13
171 30.06
172 4.25
183 1.72
185 1.2
199 76.57
200 12.52
201 1.17
211 3.19
214 99.99
215 17.46
216 1.49

>  <PREDICTED SPECTRUM>  (422) 
14 10
15 87
16 6
25 4
26 34
27 48
28 29
29 62
36 0
37 51
38 113
39 199
40 61
41 99
43 16
49 32
50 176
51 220
52 133
53 93
54 33
55 75
57 28
61 55
62 150
63 283
64 180
65 155
66 40
67 4
69 23
70 11
74 124
75 157
76 209
77 193
78 69
79 28
84 18
85 15
86 107
87 108
88 98
89 140
90 55
91 148
92 97
97 42
98 37
99 59
100 54
101 150
102 191
103 78
104 19
111 46
112 35
113 151
114 134
115 251
116 134
117 82
118 20
119 32
126 191
127 233
128 320
129 180
130 58
131 74
138 30
139 308
140 142
141 78
142 57
143 34
144 92
145 76
151 79
152 144
153 119
154 55
155 147
156 179
157 6
167 15
168 62
169 141
170 91
171 510
172 197
173 44
182 3
183 73
184 105
185 132
186 80
187 12
199 568
200 199
201 21
214 999
215 429
216 121
217 19

$$$$

     RDKit          2D

 17 17  0  0  0  0  0  0  0  0999 V2000
   -6.4962    0.7506    0.0000 C   0  0  0  0  0  0  0  0  0  0  0  0
    6.4962    0.7506    0.0000 C   0  0  0  0  0  0  0  0  0  0  0  0
   -5.1970    1.5004    0.0000 C   0  0  0  0  0  0  0  0  0  0  0  0
    5.1970    1.5004    0.0000 C   0  0  0  0  0  0  0  0  0  0  0  0
   -1.3000   -0.7502    0.0000 C   0  0  0  0  0  0  0  0  0  0  0  0
    1.3000   -0.7502    0.0000 C   0  0  0  0  0  0  0  0  0  0  0  0
    0.0000   -1.5002    0.0000 C   0  0  0  0  0  0  0  0  0  0  0  0
   -1.3000    0.7498    0.0000 C   0  0  0  0  0  0  0  0  0  0  0  0
    1.3000    0.7498    0.0000 C   0  0  0  0  0  0  0  0  0  0  0  0
   -2.5989    1.5000    0.0000 C   0  0  0  0  0  0  0  0  0  0  0  0
    2.5989    1.5000    0.0000 C   0  0  0  0  0  0  0  0  0  0  0  0
    0.0000   -3.0002    0.0000 Cl  0  0  0  0  0  0  0  0  0  0  0  0
    0.0000    1.4998    0.0000 N   0  0  0  0  0  0  0  0  0  0  0  0
   -2.5987    3.0000    0.0000 O   0  0  0  0  0  0  0  0  0  0  0  0
    2.5987    3.0000    0.0000 O   0  0  0  0  0  0  0  0  0  0  0  0
   -3.8981    0.7502    0.0000 O   0  0  0  0  0  0  0  0  0  0  0  0
    3.8981    0.7502    0.0000 O   0  0  0  0  0  0  0  0  0  0  0  0
  3  1  1  0
  4  2  1  0
  7  5  2  0
  7  6  1  0
  8  5  1  0
  9  6  2  0
 10  8  1  0
 11  9  1  0
 12  7  1  0
 13  8  2  0
 13  9  1  0
 14 10  2  0
 15 11  2  0
 16  3  1  0
 16 10  1  0
 17  4  1  0
 17 11  1  0
M  END
>  <NAME>  (423) 
2,6-DIETHOXYCARBONYL-4-CHLORO-PYRIDINE

>  <SYNONYMS>  (423) 


>  <SPECTRUM TYPE>  (423) 
MS1

>  <INSTRUMENT TYPE>  (423) 
EI-B

>  <INSTRUMENT>  (423) 
JEOL JMS-DX-300

>  <ION MODE>  (423) 
P

>  <INCHIKEY>  (423) 
XQVRVZXJZVVBLW-UHFFFAOYSA-N

>  <FORMULA>  (423) 
C11H12ClNO4

>  <EXACT MASS>  (423) 
257.04548554400003

>  <MW>  (423) 
257

>  <ID>  (423) 
JP011485

>  <CONTRIBUTOR>  (423) 
University of Tokyo Team, {Faculty of Engineering, University of Tokyo

>  <COMMENT>  (423) 
SMILES=CCOC(=O)c(c1)nc(cc(Cl)1)C(=O)OCC
InChI=InChI=1S/C11H12ClNO4/c1-3-16-10(14)8-5-7(12)6-9(13-8)11(15)17-4-2/h5-6H,3-4H2,1-2H3
computed SMILES=O=C(OCC)C=1N=C(C=C(Cl)C1)C(=O)OCC
accession=JP011485
date=2016.01.19 (Created 2008.10.21, modified 2011.05.06)
author=FUJISE Y, HAMAMATSU UNIV. SCHOOL OF MEDICINE
license=CC BY-NC-SA
exact mass=257.04549
ionization energy=70 eV
ion type=[M]+*
computed spectral entropy=3.3768050723351437
computed normalized entropy=0.8002841346142792
SPLASH=splash10-000i-2900000000-98167a2cf44165295d33
submitter=submitter = University of Tokyo Team (Faculty of Engineering, University of Tokyo)
MoNA Rating=3.75

>  <NUM PEAKS>  (423) 
68

>  <MASS SPECTRAL PEAKS>  (423) 
36 2.29
38 1.63
39 1.64
40 1.93
42 1.09
43 7.27
44 3.28
45 7.14
49 2.41
50 10.02
51 4.8
52 2.38
53 6.42
57 1.17
60 4.48
61 1.34
62 4.36
63 1.07
64 4.96
65 2.23
66 1.34
69 1.76
73 5.87
75 11.36
76 47.73
77 10.58
78 6.91
79 1.07
83 2.32
84 1.33
85 3.28
86 1.26
87 1.5
92 3.67
100 5.34
102 2.68
103 1.73
104 6.01
105 1.29
110 1.3
111 39.28
112 25.07
113 40.98
114 10.55
115 9.34
128 10.03
129 1.14
130 3.63
138 3.66
139 75.62
140 27.71
141 37.78
142 8.84
143 1.09
149 1.2
156 9.66
157 57.76
158 10.92
159 19.58
160 2.82
184 40.95
185 99.99
186 47.06
187 84.72
242 3.15
257 7.22
258 2.54
259 2.54

>  <PREDICTED SPECTRUM>  (423) 
15 11
26 39
27 100
28 76
29 235
30 30
36 21
38 10
42 113
43 79
44 80
45 120
49 30
50 34
51 73
52 28
53 47
54 2
63 17
66 72
72 100
73 102
74 30
76 24
77 66
78 70
79 90
80 40
81 43
85 12
92 15
93 86
94 68
95 82
96 2
97 7
98 17
100 18
101 32
105 133
106 103
109 2
110 45
111 26
112 83
113 117
114 24
120 12
121 103
122 45
128 40
129 58
130 84
138 26
139 191
140 0
141 77
143 82
145 14
148 24
149 33
150 164
156 167
157 113
158 14
159 9
166 0
167 84
171 34
184 422
185 999
186 479
187 465
188 74
189 54
212 508
213 273
214 296
215 155
216 32
256 97
257 96
258 88
259 63
260 8

$$$$

     RDKit          2D

 20 21  0  0  0  0  0  0  0  0999 V2000
   -3.8989   -5.2502    0.0000 C   0  0  0  0  0  0  0  0  0  0  0  0
   -6.4978   -0.7500    0.0000 C   0  0  0  0  0  0  0  0  0  0  0  0
    0.0000    3.0000    0.0000 C   0  0  0  0  0  0  0  0  0  0  0  0
    2.5989   -1.5002    0.0000 C   0  0  0  0  0  0  0  0  0  0  0  0
   -7.7970   -3.0006    0.0000 C   0  0  0  0  0  0  0  0  0  0  0  0
    3.8981    0.7504    0.0000 C   0  0  0  0  0  0  0  0  0  0  0  0
   -2.5989   -3.0002    0.0000 C   0  0  0  0  0  0  0  0  0  0  0  0
   -3.8989   -0.7502    0.0000 C   0  0  0  0  0  0  0  0  0  0  0  0
   -1.3000    0.7500    0.0000 C   0  0  0  0  0  0  0  0  0  0  0  0
   -0.0000   -1.5000    0.0000 C   0  0  0  0  0  0  0  0  0  0  0  0
   -3.8989   -3.7502    0.0000 C   0  0  0  0  0  0  0  0  0  0  0  0
   -5.1989   -1.5002    0.0000 C   0  0  0  0  0  0  0  0  0  0  0  0
    0.0000    1.5000    0.0000 C   0  0  0  0  0  0  0  0  0  0  0  0
    1.3000   -0.7500    0.0000 C   0  0  0  0  0  0  0  0  0  0  0  0
   -2.5989   -1.5002    0.0000 C   0  0  0  0  0  0  0  0  0  0  0  0
   -1.3000   -0.7500    0.0000 C   0  0  0  0  0  0  0  0  0  0  0  0
   -5.1989   -3.0002    0.0000 C   0  0  0  0  0  0  0  0  0  0  0  0
    1.3000    0.7500    0.0000 C   0  0  0  0  0  0  0  0  0  0  0  0
   -6.4978   -3.7504    0.0000 O   0  0  0  0  0  0  0  0  0  0  0  0
    2.5989    1.5002    0.0000 O   0  0  0  0  0  0  0  0  0  0  0  0
 11  1  1  0
 11  7  2  0
 12  2  1  0
 12  8  1  0
 13  3  1  0
 13  9  2  0
 14  4  1  0
 14 10  1  0
 15  7  1  0
 15  8  2  0
 16  9  1  0
 16 10  2  0
 16 15  1  0
 17 11  1  0
 17 12  2  0
 18 13  1  0
 18 14  2  0
 19  5  1  0
 19 17  1  0
 20  6  1  0
 20 18  1  0
M  END
>  <NAME>  (424) 
3,3',5,5'-TETRAMETHYL-4,4'-DIMETHOXY-1,1'-BIPHENYL

>  <SYNONYMS>  (424) 


>  <SPECTRUM TYPE>  (424) 
MS1

>  <INSTRUMENT TYPE>  (424) 
EI-B

>  <INSTRUMENT>  (424) 
JEOL JMS-DX-300

>  <ION MODE>  (424) 
P

>  <INCHIKEY>  (424) 
LZRFEVSDBKMZJX-UHFFFAOYSA-N

>  <FORMULA>  (424) 
C18H22O2

>  <EXACT MASS>  (424) 
270.161979944

>  <MW>  (424) 
270

>  <ID>  (424) 
JP011484

>  <CONTRIBUTOR>  (424) 
University of Tokyo Team, {Faculty of Engineering, University of Tokyo

>  <COMMENT>  (424) 
SMILES=COc(c(C)2)c(C)cc(c2)c(c1)cc(C)c(OC)c(C)1
InChI=InChI=1S/C18H22O2/c1-11-7-15(8-12(2)17(11)19-5)16-9-13(3)18(20-6)14(4)10-16/h7-10H,1-6H3
computed SMILES=O(C=1C(=CC(=CC1C)C=2C=C(C(OC)=C(C2)C)C)C)C
accession=JP011484
date=2016.01.19 (Created 2008.10.21, modified 2011.05.06)
author=FUJISE Y, HAMAMATSU UNIV. SCHOOL OF MEDICINE
license=CC BY-NC-SA
exact mass=270.16198
ionization energy=70 eV
ion type=[M]+*
computed spectral entropy=2.2974392767518665
computed normalized entropy=0.6228013968278907
SPLASH=splash10-05fr-0190000000-7d3e1e5cb5d08b37d16f
submitter=submitter = University of Tokyo Team (Faculty of Engineering, University of Tokyo)
MoNA Rating=3.75

>  <NUM PEAKS>  (424) 
40

>  <MASS SPECTRAL PEAKS>  (424) 
41 1.27
43 1.01
44 1.65
77 0.98
91 1.74
105 1.41
115 1.8
120 1.79
128 2.14
129 1.35
135 2.91
141 1.81
152 1.77
153 2.25
154 1.39
165 3.17
166 1.23
167 1.71
169 1.93
178 0.98
179 1.44
181 2.4
182 1.64
185 1.81
195 1
196 1.39
197 3.19
209 1.51
211 1.26
212 2.91
224 1.26
225 1.61
227 2.13
239 2.14
240 4.46
241 1.85
255 64.62
256 16.33
270 99.99
271 26.54

>  <PREDICTED SPECTRUM>  (424) 
39 33
41 61
43 16
51 44
53 0
57 29
59 63
75 7
76 6
77 90
78 17
83 9
84 1
91 80
102 19
105 41
107 21
113 5
115 140
117 3
119 24
126 54
127 69
128 80
129 8
130 17
139 33
141 13
149 30
151 11
152 64
153 71
154 13
155 13
165 188
166 26
167 105
168 87
169 126
178 118
179 96
180 40
181 158
182 54
183 53
193 105
194 81
195 152
196 111
197 100
198 10
209 86
211 125
212 126
224 53
225 81
226 0
227 78
239 96
240 129
241 58
255 842
256 379
257 78
270 999
271 454
272 66

$$$$

     RDKit          2D

 18 19  0  0  0  0  0  0  0  0999 V2000
    2.4562    0.9086    0.0000 C   0  0  0  0  0  0  0  0  0  0  0  0
    0.3305    3.0136    0.0000 C   0  0  0  0  0  0  0  0  0  0  0  0
    1.3400   -0.0934    0.0000 C   0  0  0  0  0  0  0  0  0  0  0  0
   -6.5073   -6.5008    0.0000 C   0  0  0  0  0  0  0  0  0  0  0  0
   -5.2087   -7.2532    0.0000 C   0  0  0  0  0  0  0  0  0  0  0  0
   -6.5059   -5.0000    0.0000 C   0  0  0  0  0  0  0  0  0  0  0  0
   -3.9087   -6.5048    0.0000 C   0  0  0  0  0  0  0  0  0  0  0  0
   -5.2059   -4.2516    0.0000 C   0  0  0  0  0  0  0  0  0  0  0  0
   -2.0516    1.7944    0.0000 C   0  0  0  0  0  0  0  0  0  0  0  0
   -2.6074   -4.2556    0.0000 C   0  0  0  0  0  0  0  0  0  0  0  0
   -0.5494    1.7988    0.0000 C   0  0  0  0  0  0  0  0  0  0  0  0
   -3.9073   -5.0040    0.0000 C   0  0  0  0  0  0  0  0  0  0  0  0
   -0.0859    0.3722    0.0000 C   0  0  0  0  0  0  0  0  0  0  0  0
   -1.3037   -0.5072    0.0000 C   0  0  0  0  0  0  0  0  0  0  0  0
   -1.3056   -2.0072    0.0000 C   0  0  0  0  0  0  0  0  0  0  0  0
   -2.5146    0.3716    0.0000 N   0  0  0  0  0  0  0  0  0  0  0  0
   -0.0075   -2.7588    0.0000 O   0  0  0  0  0  0  0  0  0  0  0  0
   -2.6055   -2.7556    0.0000 O   0  0  0  0  0  0  0  0  0  0  0  0
  3  1  1  0
  5  4  2  0
  6  4  1  0
  7  5  1  0
  8  6  2  0
 11  2  1  0
 11  9  2  0
 12  7  2  0
 12  8  1  0
 12 10  1  0
 13  3  1  0
 13 11  1  0
 14 13  2  0
 15 14  1  0
 16  9  1  0
 16 14  1  0
 17 15  2  0
 18 10  1  0
 18 15  1  0
M  END
>  <NAME>  (425) 
BENZYL 3-ETHYL-4-METHYL-PYRROLE-2-CARBOXYLATE

>  <SYNONYMS>  (425) 


>  <SPECTRUM TYPE>  (425) 
MS1

>  <INSTRUMENT TYPE>  (425) 
EI-B

>  <INSTRUMENT>  (425) 
JEOL JMS-DX-300

>  <ION MODE>  (425) 
P

>  <INCHIKEY>  (425) 
QQDVJEVOWNBCDV-UHFFFAOYSA-N

>  <FORMULA>  (425) 
C15H17NO2

>  <EXACT MASS>  (425) 
243.125928784

>  <MW>  (425) 
243

>  <ID>  (425) 
JP011483

>  <CONTRIBUTOR>  (425) 
University of Tokyo Team, {Faculty of Engineering, University of Tokyo

>  <COMMENT>  (425) 
SMILES=CCC1=C(NC=C1C)C(=O)OCC2=CC=CC=C2
InChI=InChI=1S/C15H17NO2/c1-3-13-11(2)9-16-14(13)15(17)18-10-12-7-5-4-6-8-12/h4-9,16H,3,10H2,1-2H3
computed SMILES=O=C(OCC=1C=CC=CC1)C=2NC=C(C2CC)C
accession=JP011483
date=2016.01.19 (Created 2008.10.21, modified 2011.05.06)
author=FUJISE Y, HAMAMATSU UNIV. SCHOOL OF MEDICINE
license=CC BY-NC-SA
exact mass=243.12593
ionization energy=70 eV
ion type=[M]+*
computed spectral entropy=3.530348965017377
computed normalized entropy=0.8553995667816874
SPLASH=splash10-0f6x-9200000000-9a9259808eb0822157d8
submitter=submitter = University of Tokyo Team (Faculty of Engineering, University of Tokyo)
MoNA Rating=3.75

>  <NUM PEAKS>  (425) 
62

>  <MASS SPECTRAL PEAKS>  (425) 
37 1.4
38 6.03
39 55.04
40 9.63
41 28.43
42 5.57
43 2.08
44 1.06
50 9.92
51 32.68
52 22.1
53 28.41
54 4.64
55 3.2
62 3.55
63 15.94
64 7.57
65 66.61
66 23.28
67 10.81
68 3.63
69 1.15
74 1.19
75 1.9
76 2.67
77 39.27
78 15.09
79 30.84
80 12.76
81 6.07
82 1.45
89 11.19
90 8.98
91 99.99
92 24.5
93 37.7
94 8.57
96 1.27
104 4.38
105 7.28
106 22.44
107 16.49
108 13.03
109 8.26
119 1.16
120 6.73
121 1.35
122 1.79
133 1.65
134 23.27
135 3.89
136 23.55
137 2.95
138 2.1
152 32.39
153 3.7
168 1.14
184 2.59
198 1.88
228 1.81
243 17.76
244 3.11

>  <PREDICTED SPECTRUM>  (425) 
27 1
29 41
33 12
34 20
36 54
37 51
38 126
39 402
40 200
41 352
42 150
43 263
44 167
45 90
46 5
49 34
50 196
51 334
52 244
53 295
54 135
55 126
56 37
57 48
58 4
60 14
61 41
62 112
63 258
64 117
65 531
66 212
67 265
68 143
69 101
70 24
74 56
75 80
76 93
77 379
78 223
79 383
80 236
81 244
82 145
83 43
88 0
89 266
90 136
91 999
92 399
93 208
94 157
95 141
96 44
103 46
104 183
105 173
106 317
107 303
108 438
109 258
110 93
111 23
115 7
116 27
117 0
120 167
121 45
122 132
124 79
134 431
135 209
136 307
137 231
138 55
140 12
152 507
153 181
154 41
166 1
182 62
184 10
196 28
198 132
199 28
214 61
215 27
225 19
228 59
242 67
243 402
244 147
245 1

$$$$

     RDKit          2D

 22 23  0  0  0  0  0  0  0  0999 V2000
   -3.1239    2.0857    0.0000 C   0  0  0  0  0  0  0  0  0  0  0  0
   -6.2899    0.7030    0.0000 C   0  0  0  0  0  0  0  0  0  0  0  0
    1.6322    2.2431    0.0000 C   0  0  0  0  0  0  0  0  0  0  0  0
   -1.6322    2.2431    0.0000 C   0  0  0  0  0  0  0  0  0  0  0  0
   -5.1777   -0.3035    0.0000 C   0  0  0  0  0  0  0  0  0  0  0  0
    5.3275   -7.1757    0.0000 C   0  0  0  0  0  0  0  0  0  0  0  0
    6.4407   -6.1690    0.0000 C   0  0  0  0  0  0  0  0  0  0  0  0
    3.8989   -6.7159    0.0000 C   0  0  0  0  0  0  0  0  0  0  0  0
    6.1252   -4.7026    0.0000 C   0  0  0  0  0  0  0  0  0  0  0  0
    3.5834   -5.2495    0.0000 C   0  0  0  0  0  0  0  0  0  0  0  0
    4.3810   -2.7764    0.0000 C   0  0  0  0  0  0  0  0  0  0  0  0
   -2.6377   -0.8500    0.0000 C   0  0  0  0  0  0  0  0  0  0  0  0
    0.7500    1.0300    0.0000 C   0  0  0  0  0  0  0  0  0  0  0  0
    4.6965   -4.2428    0.0000 C   0  0  0  0  0  0  0  0  0  0  0  0
   -0.7500    1.0300    0.0000 C   0  0  0  0  0  0  0  0  0  0  0  0
   -1.2100   -0.3900    0.0000 C   0  0  0  0  0  0  0  0  0  0  0  0
    1.2100   -0.3900    0.0000 C   0  0  0  0  0  0  0  0  0  0  0  0
    2.6377   -0.8500    0.0000 C   0  0  0  0  0  0  0  0  0  0  0  0
    0.0000   -1.2800    0.0000 N   0  0  0  0  0  0  0  0  0  0  0  0
    3.7499    0.1565    0.0000 O   0  0  0  0  0  0  0  0  0  0  0  0
   -3.7499    0.1565    0.0000 O   0  0  0  0  0  0  0  0  0  0  0  0
    2.9533   -2.3164    0.0000 O   0  0  0  0  0  0  0  0  0  0  0  0
  4  1  1  0
  5  2  1  0
  7  6  2  0
  8  6  1  0
  9  7  1  0
 10  8  2  0
 13  3  1  0
 14  9  2  0
 14 10  1  0
 14 11  1  0
 15  4  1  0
 15 13  1  0
 16 12  1  0
 16 15  2  0
 17 13  2  0
 18 17  1  0
 19 16  1  0
 19 17  1  0
 20 18  2  0
 21  5  1  0
 21 12  1  0
 22 11  1  0
 22 18  1  0
M  END
>  <NAME>  (426) 
BENZYL 5-ETHOXYMETHYL-4-ETHYL-3-METHYL-2-CARBOXYLATE

>  <SYNONYMS>  (426) 


>  <SPECTRUM TYPE>  (426) 
MS1

>  <INSTRUMENT TYPE>  (426) 
EI-B

>  <INSTRUMENT>  (426) 
JEOL JMS-DX-300

>  <ION MODE>  (426) 
P

>  <INCHIKEY>  (426) 
NAHUUKINEAKKQM-UHFFFAOYSA-N

>  <FORMULA>  (426) 
C18H23NO3

>  <EXACT MASS>  (426) 
301.16779359599997

>  <MW>  (426) 
301

>  <ID>  (426) 
JP011482

>  <CONTRIBUTOR>  (426) 
University of Tokyo Team, {Faculty of Engineering, University of Tokyo

>  <COMMENT>  (426) 
SMILES=CCC1=C(NC(=C1C)C(=O)OCC2=CC=CC=C2)COCC
InChI=InChI=1S/C18H23NO3/c1-4-15-13(3)17(19-16(15)12-21-5-2)18(20)22-11-14-9-7-6-8-10-14/h6-10,19H,4-5,11-12H2,1-3H3
computed SMILES=O=C(OCC=1C=CC=CC1)C=2NC(=C(C2C)CC)COCC
accession=JP011482
date=2016.01.19 (Created 2008.10.21, modified 2011.05.06)
author=FUJISE Y, HAMAMATSU UNIV. SCHOOL OF MEDICINE
license=CC BY-NC-SA
exact mass=301.16779
ionization energy=70 eV
ion type=[M]+*
computed spectral entropy=3.5483506177752
computed normalized entropy=0.8030048903584559
SPLASH=splash10-0f6x-9422000000-78c416f234986cfb0528
submitter=submitter = University of Tokyo Team (Faculty of Engineering, University of Tokyo)
MoNA Rating=3.75

>  <NUM PEAKS>  (426) 
83

>  <MASS SPECTRAL PEAKS>  (426) 
36 2.6
39 6.27
40 3.06
41 8.04
42 2.8
43 6.6
44 6.11
45 1.34
51 3.05
52 1.7
53 3.52
54 1.36
55 3.28
56 3.17
57 6.42
63 1.66
65 13.78
66 2.49
67 2.43
69 2.03
71 1.59
77 8.88
78 2.49
79 6.39
80 1.6
81 1.59
82 1.17
83 3.23
85 1.88
89 2.18
90 2.05
91 99.99
92 13.82
93 3.76
94 3.44
95 1.43
97 1.09
104 2.5
105 2.62
106 3.22
107 2.47
108 1.64
118 1.46
119 1.63
120 5.84
121 8.98
122 8.56
123 1.3
134 1.48
136 1.33
138 1.66
146 2.11
147 1.39
148 6.62
149 4.63
150 1.18
151 1.12
162 2.29
164 9.45
165 1.51
166 6.58
167 12.92
168 1.48
180 2.72
182 1.38
194 5.17
195 1
210 11.04
211 1.58
212 2.23
238 1.19
240 1.03
242 3.29
254 2.22
255 3.31
256 36.69
257 6.59
271 3.68
272 5.03
300 1.23
301 60.13
302 12.38
303 1.63

>  <PREDICTED SPECTRUM>  (426) 
27 43
28 57
29 75
30 6
31 25
36 10
38 24
39 168
40 80
41 211
42 103
43 124
44 121
45 146
49 30
50 70
51 175
52 115
53 122
54 48
55 105
56 60
57 56
58 0
59 98
60 27
62 19
63 136
64 68
65 358
66 131
67 95
68 44
69 90
70 7
71 16
74 20
75 84
76 70
77 251
78 145
79 220
80 86
81 94
82 42
83 23
84 10
89 198
90 74
91 999
92 311
93 135
94 109
95 87
97 40
102 17
103 33
104 81
105 131
106 158
107 141
108 157
109 84
114 1
115 27
116 1
117 53
118 104
119 131
120 201
121 184
122 201
123 83
124 30
125 15
132 33
134 90
135 98
136 145
137 53
138 128
139 88
146 30
147 83
148 206
149 172
150 185
151 83
152 47
153 34
154 30
162 68
163 7
164 425
165 166
166 325
167 266
168 86
169 18
178 68
180 62
182 142
192 157
194 201
195 69
196 64
198 26
210 509
211 211
212 145
213 28
224 1
229 7
240 81
242 145
254 180
255 168
256 379
257 199
272 157
273 31
301 661
302 310
303 90
304 16

$$$$

     RDKit          2D

 12 12  0  0  0  0  0  0  0  0999 V2000
   -4.6965   -4.2428    0.0000 C   0  0  0  0  0  0  0  0  0  0  0  0
   -1.6322    2.2431    0.0000 C   0  0  0  0  0  0  0  0  0  0  0  0
    2.6377   -0.8500    0.0000 C   0  0  0  0  0  0  0  0  0  0  0  0
   -4.3810   -2.7764    0.0000 C   0  0  0  0  0  0  0  0  0  0  0  0
    0.7500    1.0300    0.0000 C   0  0  0  0  0  0  0  0  0  0  0  0
   -0.7500    1.0300    0.0000 C   0  0  0  0  0  0  0  0  0  0  0  0
    1.2100   -0.3900    0.0000 C   0  0  0  0  0  0  0  0  0  0  0  0
   -1.2100   -0.3900    0.0000 C   0  0  0  0  0  0  0  0  0  0  0  0
   -2.6377   -0.8500    0.0000 C   0  0  0  0  0  0  0  0  0  0  0  0
   -0.0000   -1.2800    0.0000 N   0  0  0  0  0  0  0  0  0  0  0  0
   -3.7499    0.1565    0.0000 O   0  0  0  0  0  0  0  0  0  0  0  0
   -2.9533   -2.3164    0.0000 O   0  0  0  0  0  0  0  0  0  0  0  0
  4  1  1  0
  6  2  1  0
  6  5  1  0
  7  3  1  0
  7  5  2  0
  8  6  2  0
  9  8  1  0
 10  7  1  0
 10  8  1  0
 11  9  2  0
 12  4  1  0
 12  9  1  0
M  END
>  <NAME>  (427) 
ETHYL 3-METHYL-5-METHYLPYRROLE-2-CARBOXYLATE

>  <SYNONYMS>  (427) 


>  <SPECTRUM TYPE>  (427) 
MS1

>  <INSTRUMENT TYPE>  (427) 
EI-B

>  <INSTRUMENT>  (427) 
JEOL JMS-DX-300

>  <ION MODE>  (427) 
P

>  <INCHIKEY>  (427) 
IZSBSZYFPYIJDI-UHFFFAOYSA-N

>  <FORMULA>  (427) 
C9H13NO2

>  <EXACT MASS>  (427) 
167.094628656

>  <MW>  (427) 
167

>  <ID>  (427) 
JP011481

>  <CONTRIBUTOR>  (427) 
University of Tokyo Team, {Faculty of Engineering, University of Tokyo

>  <COMMENT>  (427) 
SMILES=CCOC(=O)C1=C(C=C(N1)C)C
InChI=InChI=1S/C9H13NO2/c1-4-12-9(11)8-6(2)5-7(3)10-8/h5,10H,4H2,1-3H3
computed SMILES=O=C(OCC)C=1NC(=CC1C)C
accession=JP011481
date=2016.01.19 (Created 2008.10.21, modified 2011.05.06)
author=FUJISE Y, HAMAMATSU UNIV. SCHOOL OF MEDICINE
license=CC BY-NC-SA
exact mass=167.09463
ionization energy=70 eV
ion type=[M]+*
computed spectral entropy=2.9368280304867187
computed normalized entropy=0.7961301167517117
SPLASH=splash10-00xr-6900000000-7edac69e161fdc108b38
submitter=submitter = University of Tokyo Team (Faculty of Engineering, University of Tokyo)
MoNA Rating=3.75

>  <NUM PEAKS>  (427) 
40

>  <MASS SPECTRAL PEAKS>  (427) 
38 2.09
39 16.82
40 5.33
41 16.4
42 7.48
43 2.36
45 1.09
50 1.3
51 3.94
52 5.88
53 9.16
54 2.87
63 2.21
64 2.64
65 20.94
66 27.19
67 18.37
68 1.42
77 1.87
78 2.44
80 1.42
91 1.43
92 11.76
93 26.58
94 22.69
95 26.06
96 1.88
110 1.67
120 30.54
121 87.72
122 62.15
123 8.5
138 34.51
139 14.94
140 1.15
152 1.25
166 1.37
167 99.99
168 10.61
169 0.9

>  <PREDICTED SPECTRUM>  (427) 
26 1
27 54
29 39
37 9
38 84
39 309
40 180
41 273
42 248
43 175
44 140
45 178
46 14
49 3
50 116
51 258
52 290
53 264
54 114
55 3
56 28
57 63
58 22
62 53
63 139
64 161
65 362
66 367
67 492
68 271
69 99
75 17
76 100
77 236
78 168
79 262
80 201
81 125
82 109
90 91
91 34
92 365
93 477
94 924
95 622
96 124
105 16
106 148
107 64
108 103
109 1
110 126
111 29
120 429
121 437
122 944
123 311
124 89
136 25
138 768
139 595
140 151
152 84
153 3
167 999
168 335
169 58

$$$$

     RDKit          2D

 13 13  0  0  0  0  0  0  0  0999 V2000
    3.1434   -0.6954    0.0000 C   0  0  0  0  0  0  0  0  0  0  0  0
   -4.7358   -4.3522    0.0000 C   0  0  0  0  0  0  0  0  0  0  0  0
    1.7722    1.9635    0.0000 C   0  0  0  0  0  0  0  0  0  0  0  0
    1.7722   -1.3035    0.0000 C   0  0  0  0  0  0  0  0  0  0  0  0
   -3.2682   -4.0421    0.0000 C   0  0  0  0  0  0  0  0  0  0  0  0
   -0.8700    1.5400    0.0000 C   0  0  0  0  0  0  0  0  0  0  0  0
    0.5600    1.0800    0.0000 C   0  0  0  0  0  0  0  0  0  0  0  0
    0.5600   -0.4200    0.0000 C   0  0  0  0  0  0  0  0  0  0  0  0
   -0.8700   -0.8800    0.0000 C   0  0  0  0  0  0  0  0  0  0  0  0
   -1.3353   -2.3060    0.0000 C   0  0  0  0  0  0  0  0  0  0  0  0
   -1.7500    0.3300    0.0000 N   0  0  0  0  0  0  0  0  0  0  0  0
   -0.3330   -3.4220    0.0000 O   0  0  0  0  0  0  0  0  0  0  0  0
   -2.8029   -2.6161    0.0000 O   0  0  0  0  0  0  0  0  0  0  0  0
  4  1  1  0
  5  2  1  0
  7  3  1  0
  7  6  2  0
  8  4  1  0
  8  7  1  0
  9  8  2  0
 10  9  1  0
 11  6  1  0
 11  9  1  0
 12 10  2  0
 13  5  1  0
 13 10  1  0
M  END
>  <NAME>  (428) 
ETHYL 3-ETHYL-4-METHYLPYRROLE-2-CARBOXYLATE

>  <SYNONYMS>  (428) 


>  <SPECTRUM TYPE>  (428) 
MS1

>  <INSTRUMENT TYPE>  (428) 
EI-B

>  <INSTRUMENT>  (428) 
JEOL JMS-DX-300

>  <ION MODE>  (428) 
P

>  <INCHIKEY>  (428) 
IJIMBHGENKKALU-UHFFFAOYSA-N

>  <FORMULA>  (428) 
C10H15NO2

>  <EXACT MASS>  (428) 
181.11027872

>  <MW>  (428) 
181

>  <ID>  (428) 
JP011480

>  <CONTRIBUTOR>  (428) 
University of Tokyo Team, {Faculty of Engineering, University of Tokyo

>  <COMMENT>  (428) 
SMILES=CCC1=C(NC=C1C)C(=O)OCC
InChI=InChI=1S/C10H15NO2/c1-4-8-7(3)6-11-9(8)10(12)13-5-2/h6,11H,4-5H2,1-3H3
computed SMILES=O=C(OCC)C=1NC=C(C1CC)C
accession=JP011480
date=2016.01.19 (Created 2008.10.21, modified 2011.05.06)
author=FUJISE Y, HAMAMATSU UNIV. SCHOOL OF MEDICINE
license=CC BY-NC-SA
exact mass=181.11028
ionization energy=70 eV
ion type=[M]+*
computed spectral entropy=3.672146136416054
computed normalized entropy=0.8586469072458046
SPLASH=splash10-001r-8900000000-5d1b5b3df2b7d99b076b
submitter=submitter = University of Tokyo Team (Faculty of Engineering, University of Tokyo)
MoNA Rating=3.75

>  <NUM PEAKS>  (428) 
72

>  <MASS SPECTRAL PEAKS>  (428) 
37 2.84
38 9.67
39 58.58
40 14.25
41 47.22
42 15.31
43 25.98
44 3.16
45 14.23
50 9.72
51 28.36
52 28.78
53 34.69
54 6.53
55 4.47
56 1.68
57 0.91
62 2.48
63 8.67
64 7.32
65 40.29
66 23.66
67 11.44
68 3.1
74 1.06
75 1.24
76 3.62
77 39.81
78 16.12
79 35.29
80 17.43
81 6.87
82 2.4
91 6.72
92 21.64
93 33.04
94 9.95
95 1.05
104 8.72
105 4.72
106 49.29
107 21.58
108 29.38
109 5.49
110 0.98
114 1.17
118 1.34
119 3.24
120 69.03
121 7.28
122 10.25
123 1.21
124 1.21
128 4.5
132 1.27
133 2.86
134 88.75
135 26.61
136 38.26
137 4.88
138 16.96
139 2.14
140 1.44
152 81.07
153 10.82
154 1.59
166 22.53
167 2.62
180 3.13
181 99.99
182 21.01
183 2.09

>  <PREDICTED SPECTRUM>  (428) 
26 8
27 88
28 20
29 68
33 23
34 6
37 50
38 136
39 453
40 243
41 428
42 282
43 267
44 160
45 186
46 44
47 30
49 0
50 189
51 437
52 412
53 506
54 235
55 134
56 47
58 3
61 21
62 83
63 221
64 226
65 471
66 399
67 416
68 157
69 12
74 45
75 108
76 113
77 620
78 373
79 537
80 317
81 337
82 146
83 7
90 37
91 280
92 364
93 386
94 322
95 115
96 102
97 18
104 233
105 240
106 589
107 465
108 476
109 283
110 68
117 34
118 112
119 60
120 678
121 230
122 315
123 77
124 138
125 38
132 45
134 978
135 496
136 598
137 245
138 285
139 78
140 19
152 999
153 361
154 100
166 322
167 101
180 23
181 875
182 326
183 91

$$$$

     RDKit          2D

 15 15  0  0  0  0  0  0  0  0999 V2000
   -7.7951    1.5010    0.0000 C   0  0  0  0  0  0  0  0  0  0  0  0
   -6.4962    0.7508    0.0000 C   0  0  0  0  0  0  0  0  0  0  0  0
   -1.3000   -0.7500    0.0000 C   0  0  0  0  0  0  0  0  0  0  0  0
    0.0000    1.5000    0.0000 C   0  0  0  0  0  0  0  0  0  0  0  0
    0.0000   -1.5000    0.0000 C   0  0  0  0  0  0  0  0  0  0  0  0
    1.3000    0.7500    0.0000 C   0  0  0  0  0  0  0  0  0  0  0  0
   -2.5989    1.5002    0.0000 C   0  0  0  0  0  0  0  0  0  0  0  0
   -1.3000    0.7500    0.0000 C   0  0  0  0  0  0  0  0  0  0  0  0
    1.3000   -0.7500    0.0000 C   0  0  0  0  0  0  0  0  0  0  0  0
   -3.8981    0.7504    0.0000 C   0  0  0  0  0  0  0  0  0  0  0  0
    2.5989   -1.5002    0.0000 N   0  0  0  0  0  0  0  0  0  0  0  0
   -3.8983   -0.7496    0.0000 O   0  0  0  0  0  0  0  0  0  0  0  0
    3.8981   -0.7504    0.0000 O   0  0  0  0  0  0  0  0  0  0  0  0
    2.5987   -3.0002    0.0000 O   0  0  0  0  0  0  0  0  0  0  0  0
   -5.1970    1.5006    0.0000 O   0  0  0  0  0  0  0  0  0  0  0  0
  2  1  1  0
  5  3  2  0
  6  4  1  0
  8  3  1  0
  8  4  2  0
  8  7  1  0
  9  5  1  0
  9  6  2  0
 10  7  1  0
 11  9  1  0
 12 10  2  0
 13 11  1  0
 14 11  2  0
 15  2  1  0
 15 10  1  0
M  CHG  2  11   1  13  -1
M  END
>  <NAME>  (429) 
ETHYL 4-NITROPHENYLACETATE

>  <SYNONYMS>  (429) 


>  <SPECTRUM TYPE>  (429) 
MS1

>  <INSTRUMENT TYPE>  (429) 
EI-B

>  <INSTRUMENT>  (429) 
JEOL JMS-DX-300

>  <ION MODE>  (429) 
P

>  <INCHIKEY>  (429) 
DWDRNKYLWMKWTH-UHFFFAOYSA-N

>  <FORMULA>  (429) 
C10H11NO4

>  <EXACT MASS>  (429) 
209.06880783199998

>  <MW>  (429) 
209

>  <ID>  (429) 
JP011478

>  <CONTRIBUTOR>  (429) 
University of Tokyo Team, {Faculty of Engineering, University of Tokyo

>  <COMMENT>  (429) 
SMILES=CCOC(=O)Cc(c1)ccc(c1)[N+1]([O-1])=O
InChI=InChI=1S/C10H11NO4/c1-2-15-10(12)7-8-3-5-9(6-4-8)11(13)14/h3-6H,2,7H2,1H3
computed SMILES=O=C(OCC)CC1=CC=C(C=C1)N(=O)=O
accession=JP011478
date=2016.01.19 (Created 2008.10.21, modified 2011.05.06)
author=FUJISE Y, HAMAMATSU UNIV. SCHOOL OF MEDICINE
license=CC BY-NC-SA
exact mass=209.06881
ionization energy=70 eV
ion type=[M]+*
computed spectral entropy=3.1759759934815657
computed normalized entropy=0.7961866872385827
SPLASH=splash10-052r-9710000000-8eea6f911a6d3d813827
submitter=submitter = University of Tokyo Team (Faculty of Engineering, University of Tokyo)
MoNA Rating=3.75

>  <NUM PEAKS>  (429) 
54

>  <MASS SPECTRAL PEAKS>  (429) 
38 3.06
39 16.27
40 3.1
41 1.51
42 1.17
43 5.35
44 1.4
45 5.71
46 3.6
50 5.26
51 13.32
52 8.25
53 2.1
62 6.59
63 32.61
64 14.72
65 4.42
73 2.18
75 1.85
76 1.73
77 17.96
78 62.73
79 12.24
87 1.36
88 1.49
89 82.58
90 77.88
91 19.16
92 1.76
105 1.85
106 28.35
107 53.91
108 3.66
117 2.44
118 1.23
119 12.72
120 22.99
121 5.61
133 2.11
135 5.94
136 71.38
137 99.99
138 8.37
148 1.85
150 1.5
163 3.34
164 15.47
165 5.09
179 1.86
181 5.94
193 2.16
209 63.79
210 8.93
211 1.07

>  <PREDICTED SPECTRUM>  (429) 
14 9
25 2
26 67
27 178
28 90
29 318
30 318
31 50
37 47
38 129
39 267
40 125
41 185
42 146
43 202
44 204
45 126
46 139
50 236
51 369
52 289
53 110
54 57
55 78
56 32
57 52
58 4
61 48
62 229
63 486
64 311
65 117
66 133
67 52
68 26
73 47
74 132
75 76
76 118
77 284
78 577
79 200
80 95
81 25
86 138
87 114
88 36
89 742
90 777
91 249
92 82
95 19
104 14
105 209
106 608
107 186
108 82
109 11
117 42
118 11
119 133
120 296
121 219
122 67
133 123
134 253
135 302
136 999
137 610
138 47
151 11
163 19
164 123
165 49
166 14
179 63
180 73
181 24
209 401
210 139
211 3

$$$$

     RDKit          2D

 19 21  0  0  0  0  0  0  0  0999 V2000
  -10.0911   -1.1235    0.0000 C   0  0  0  0  0  0  0  0  0  0  0  0
   -8.6244   -1.4378    0.0000 C   0  0  0  0  0  0  0  0  0  0  0  0
    3.6900    0.1600    0.0000 C   0  0  0  0  0  0  0  0  0  0  0  0
    3.2200   -1.2700    0.0000 C   0  0  0  0  0  0  0  0  0  0  0  0
    2.6800    1.2700    0.0000 C   0  0  0  0  0  0  0  0  0  0  0  0
    1.7500   -1.5800    0.0000 C   0  0  0  0  0  0  0  0  0  0  0  0
   -3.2200   -1.2700    0.0000 C   0  0  0  0  0  0  0  0  0  0  0  0
   -1.7500   -1.5800    0.0000 C   0  0  0  0  0  0  0  0  0  0  0  0
   -2.6800    1.2700    0.0000 C   0  0  0  0  0  0  0  0  0  0  0  0
   -5.1467    0.4742    0.0000 C   0  0  0  0  0  0  0  0  0  0  0  0
   -0.0000    1.8400    0.0000 C   0  0  0  0  0  0  0  0  0  0  0  0
   -3.6800    0.1600    0.0000 C   0  0  0  0  0  0  0  0  0  0  0  0
    1.2100    0.9600    0.0000 C   0  0  0  0  0  0  0  0  0  0  0  0
   -1.2100    0.9600    0.0000 C   0  0  0  0  0  0  0  0  0  0  0  0
    0.7500   -0.4700    0.0000 C   0  0  0  0  0  0  0  0  0  0  0  0
   -0.7500   -0.4700    0.0000 C   0  0  0  0  0  0  0  0  0  0  0  0
   -6.1522   -0.6389    0.0000 C   0  0  0  0  0  0  0  0  0  0  0  0
   -5.6910   -2.0662    0.0000 O   0  0  0  0  0  0  0  0  0  0  0  0
   -7.6189   -0.3247    0.0000 O   0  0  0  0  0  0  0  0  0  0  0  0
  2  1  1  0
  4  3  2  0
  5  3  1  0
  6  4  1  0
  8  7  1  0
 12  7  2  0
 12  9  1  0
 12 10  1  0
 13  5  2  0
 13 11  1  0
 14  9  2  0
 14 11  1  0
 15  6  2  0
 15 13  1  0
 16  8  2  0
 16 14  1  0
 16 15  1  0
 17 10  1  0
 18 17  2  0
 19  2  1  0
 19 17  1  0
M  END
>  <NAME>  (430) 
ETHYL 2-FLUORENYLMETHYLCARBOXYLATE

>  <SYNONYMS>  (430) 


>  <SPECTRUM TYPE>  (430) 
MS1

>  <INSTRUMENT TYPE>  (430) 
EI-B

>  <INSTRUMENT>  (430) 
JEOL JMS-DX-300

>  <ION MODE>  (430) 
P

>  <INCHIKEY>  (430) 
JIUOWDAPJJNCNT-UHFFFAOYSA-N

>  <FORMULA>  (430) 
C17H16O2

>  <EXACT MASS>  (430) 
252.115029752

>  <MW>  (430) 
252

>  <ID>  (430) 
JP011477

>  <CONTRIBUTOR>  (430) 
University of Tokyo Team, {Faculty of Engineering, University of Tokyo

>  <COMMENT>  (430) 
SMILES=CCOC(=O)Cc(c3)cc(C1)c(c3)c(c2)c(ccc2)1
InChI=InChI=1S/C17H16O2/c1-2-19-17(18)10-12-7-8-16-14(9-12)11-13-5-3-4-6-15(13)16/h3-9H,2,10-11H2,1H3
computed SMILES=O=C(OCC)CC1=CC=C2C=3C=CC=CC3CC2=C1
accession=JP011477
date=2016.01.19 (Created 2008.10.21, modified 2011.05.06)
author=FUJISE Y, HAMAMATSU UNIV. SCHOOL OF MEDICINE
license=CC BY-NC-SA
exact mass=252.11503
ionization energy=70 eV
ion type=[M]+*
computed spectral entropy=2.2309085875024324
computed normalized entropy=0.6380391142545565
SPLASH=splash10-004i-0920000000-b8b58e1d411d41c93a6e
submitter=submitter = University of Tokyo Team (Faculty of Engineering, University of Tokyo)
MoNA Rating=3.75

>  <NUM PEAKS>  (430) 
33

>  <MASS SPECTRAL PEAKS>  (430) 
43 1.28
45 1.4
51 0.96
63 1.03
76 2.65
89 4.1
90 2.97
126 0.86
127 0.67
128 0.88
139 1.39
150 1.73
151 4.5
152 9.18
153 1.54
163 0.84
164 0.62
165 3.68
166 0.94
167 0.65
175 0.75
176 8.22
177 8.44
178 63.66
179 99.99
180 15.93
181 1.16
223 4.27
224 1.38
251 0.74
252 49.47
253 9.26
254 0.99

>  <PREDICTED SPECTRUM>  (430) 
26 6
27 66
29 192
39 28
40 0
41 0
42 28
43 25
44 61
45 41
50 48
51 116
52 26
57 33
62 42
63 144
64 68
65 49
69 81
75 28
76 109
77 73
78 83
81 51
82 113
83 66
85 8
86 62
87 20
89 163
90 83
95 7
96 78
98 9
100 34
101 5
102 40
103 38
104 37
105 20
109 26
111 24
112 5
113 38
115 108
116 4
122 6
126 10
128 39
139 110
149 93
150 173
151 234
152 248
153 107
162 25
163 164
164 110
165 134
166 70
175 31
176 181
177 263
178 706
179 999
180 447
181 122
223 187
224 155
225 33
252 615
253 225
254 61

$$$$

     RDKit          2D

  9  9  0  0  0  0  0  0  0  0999 V2000
   -0.3162    1.6831    0.0000 C   0  0  0  0  0  0  0  0  0  0  0  0
    0.9788   -0.5599    0.0000 C   0  0  0  0  0  0  0  0  0  0  0  0
   -1.6153    0.9331    0.0000 C   0  0  0  0  0  0  0  0  0  0  0  0
   -0.3203   -1.3099    0.0000 C   0  0  0  0  0  0  0  0  0  0  0  0
    2.2685    1.7061    0.0000 C   0  0  0  0  0  0  0  0  0  0  0  0
    0.9733    0.9496    0.0000 C   0  0  0  0  0  0  0  0  0  0  0  0
   -1.6334   -0.5554    0.0000 C   0  0  0  0  0  0  0  0  0  0  0  0
   -2.9363   -1.2988    0.0000 Cl  0  0  0  0  0  0  0  0  0  0  0  0
    3.5713    0.9627    0.0000 O   0  0  0  0  0  0  0  0  0  0  0  0
  3  1  2  0
  4  2  1  0
  6  1  1  0
  6  2  2  0
  6  5  1  0
  7  3  1  0
  7  4  2  0
  8  7  1  0
  9  5  1  0
M  END
>  <NAME>  (431) 
4-CHLOROBENZYLALCOHOL

>  <SYNONYMS>  (431) 


>  <SPECTRUM TYPE>  (431) 
MS1

>  <INSTRUMENT TYPE>  (431) 
EI-B

>  <INSTRUMENT>  (431) 
JEOL JMS-DX-300

>  <ION MODE>  (431) 
P

>  <INCHIKEY>  (431) 
PTHGDVCPCZKZKR-UHFFFAOYSA-N

>  <FORMULA>  (431) 
C7H7ClO

>  <EXACT MASS>  (431) 
142.018542524

>  <MW>  (431) 
142

>  <ID>  (431) 
JP011476

>  <CONTRIBUTOR>  (431) 
University of Tokyo Team, {Faculty of Engineering, University of Tokyo

>  <COMMENT>  (431) 
SMILES=OCc(c1)ccc(Cl)c1
InChI=InChI=1S/C7H7ClO/c8-7-3-1-6(5-9)2-4-7/h1-4,9H,5H2
computed SMILES=ClC1=CC=C(C=C1)CO
accession=JP011476
date=2016.01.19 (Created 2008.10.21, modified 2011.05.06)
author=FUJISE Y, HAMAMATSU UNIV. SCHOOL OF MEDICINE
license=CC BY-NC-SA
exact mass=142.01854
ionization energy=70 eV
ion type=[M]+*
computed spectral entropy=3.4503179796367336
computed normalized entropy=0.8427033746676568
SPLASH=splash10-004i-9200000000-2edda7c06e59effab1ba
submitter=submitter = University of Tokyo Team (Faculty of Engineering, University of Tokyo)
MoNA Rating=3.75

>  <NUM PEAKS>  (431) 
60

>  <MASS SPECTRAL PEAKS>  (431) 
35 6.07
36 2.61
37 14.61
38 24.21
39 36.43
40 3.24
42 2.06
43 2.24
47 3.05
48 1.56
49 10.68
50 69.12
51 72.69
52 16.85
53 10.32
55 5.57
60 4.87
61 12.77
62 21.34
63 38.92
64 5.21
65 2.12
66 1.14
68 1
72 3.94
73 17.36
74 35.66
75 55.34
76 16.73
77 99.99
78 30.46
79 98.05
80 9.17
84 3.92
85 9.8
86 6.52
87 6.22
88 1.45
89 28.24
90 5.56
97 2.19
99 4.61
101 1.66
105 16.49
106 4.27
107 70.09
108 5.96
111 19.07
112 5.96
113 19.03
114 2.61
115 4.19
125 15.13
126 1.21
127 4.9
139 2.15
141 6.63
142 29.87
143 4.01
144 9.75

>  <PREDICTED SPECTRUM>  (431) 
14 29
15 67
16 19
17 37
18 35
19 1
25 18
26 115
27 155
28 103
29 230
30 235
31 255
32 20
35 62
36 102
37 126
38 201
39 344
40 29
41 85
43 16
46 27
47 61
49 169
50 369
51 513
52 233
53 199
54 57
55 111
57 16
60 96
61 193
62 242
63 414
64 178
65 271
66 55
67 53
68 19
72 39
73 346
74 253
75 384
76 170
77 736
78 481
79 439
80 51
83 24
84 87
85 141
86 165
87 98
89 564
90 284
91 20
92 24
96 10
97 11
99 323
100 76
101 241
102 96
104 1
105 162
106 62
107 533
108 131
109 15
111 314
112 197
113 495
114 117
115 270
124 149
125 999
126 381
127 573
128 168
139 378
140 275
141 399
142 754
143 354
144 418
145 119

$$$$

     RDKit          2D

 11 11  0  0  0  0  0  0  0  0999 V2000
   -1.3000   -0.7500    0.0000 C   0  0  0  0  0  0  0  0  0  0  0  0
    0.0000    1.5000    0.0000 C   0  0  0  0  0  0  0  0  0  0  0  0
    0.0000   -1.5000    0.0000 C   0  0  0  0  0  0  0  0  0  0  0  0
    1.3000    0.7500    0.0000 C   0  0  0  0  0  0  0  0  0  0  0  0
   -2.5989    1.5002    0.0000 C   0  0  0  0  0  0  0  0  0  0  0  0
   -1.3000    0.7500    0.0000 C   0  0  0  0  0  0  0  0  0  0  0  0
    1.3000   -0.7500    0.0000 C   0  0  0  0  0  0  0  0  0  0  0  0
    2.5989   -1.5002    0.0000 N   0  0  0  0  0  0  0  0  0  0  0  0
   -3.8981    0.7504    0.0000 O   0  0  0  0  0  0  0  0  0  0  0  0
    3.8981   -0.7504    0.0000 O   0  0  0  0  0  0  0  0  0  0  0  0
    2.5987   -3.0002    0.0000 O   0  0  0  0  0  0  0  0  0  0  0  0
  3  1  2  0
  4  2  1  0
  6  1  1  0
  6  2  2  0
  6  5  1  0
  7  3  1  0
  7  4  2  0
  8  7  1  0
  9  5  1  0
 10  8  1  0
 11  8  2  0
M  CHG  2   8   1  10  -1
M  END
>  <NAME>  (432) 
4-NITROBENZYLALCOHOL

>  <SYNONYMS>  (432) 


>  <SPECTRUM TYPE>  (432) 
MS1

>  <INSTRUMENT TYPE>  (432) 
EI-B

>  <INSTRUMENT>  (432) 
JEOL JMS-DX-300

>  <ION MODE>  (432) 
P

>  <INCHIKEY>  (432) 
JKTYGPATCNUWKN-UHFFFAOYSA-N

>  <FORMULA>  (432) 
C7H7NO3

>  <EXACT MASS>  (432) 
153.042593084

>  <MW>  (432) 
153

>  <ID>  (432) 
JP011475

>  <CONTRIBUTOR>  (432) 
University of Tokyo Team, {Faculty of Engineering, University of Tokyo

>  <COMMENT>  (432) 
SMILES=OCc(c1)ccc(c1)[N+1]([O-1])=O
InChI=InChI=1S/C7H7NO3/c9-5-6-1-3-7(4-2-6)8(10)11/h1-4,9H,5H2
computed SMILES=O=N(=O)C1=CC=C(C=C1)CO
accession=JP011475
date=2016.01.19 (Created 2008.10.21, modified 2011.05.06)
author=FUJISE Y, HAMAMATSU UNIV. SCHOOL OF MEDICINE
license=CC BY-NC-SA
exact mass=153.04259
ionization energy=70 eV
ion type=[M]+*
computed spectral entropy=3.29076113963388
computed normalized entropy=0.8211848098283293
SPLASH=splash10-0fb9-9300000000-4a9fa5a740fc524f1fc3
submitter=submitter = University of Tokyo Team (Faculty of Engineering, University of Tokyo)
MoNA Rating=3.75

>  <NUM PEAKS>  (432) 
55

>  <MASS SPECTRAL PEAKS>  (432) 
37 1.54
38 5.87
39 28.47
40 3.62
41 9.74
42 0.85
43 0.9
46 13.37
50 29.18
51 57.59
52 16.61
53 16.01
55 4.87
61 1.68
62 7.69
63 23.76
64 6.31
65 7.4
66 7.34
67 7.73
68 1.16
73 1.02
74 10.19
75 9.37
76 12.85
77 99.99
78 51.88
79 42.83
80 3.14
86 1.2
87 1.32
89 48.51
90 6.84
91 2.37
92 2.92
94 8.15
95 3.04
104 2.12
105 15.14
106 21.46
107 82.61
108 19.99
109 1.31
122 1.26
123 0.97
124 6.45
125 1.27
136 13.51
137 4.1
150 2.34
151 2.25
152 4.81
153 48.42
154 4.37
155 1.18

>  <PREDICTED SPECTRUM>  (432) 
14 21
15 27
16 16
17 35
18 26
25 53
26 163
27 345
28 182
29 338
30 330
31 293
32 53
33 14
34 9
36 29
37 165
38 288
39 629
40 246
41 369
42 43
43 139
44 68
45 39
46 117
49 82
50 510
51 729
52 480
53 336
54 158
55 122
56 71
57 32
58 70
60 55
61 149
62 331
63 663
64 315
65 435
66 191
67 247
68 66
70 58
74 236
75 292
76 344
77 930
78 862
79 762
80 233
81 107
82 6
86 114
87 31
89 915
90 595
91 217
92 18
93 83
94 207
95 182
96 1
104 135
105 577
106 805
107 932
108 280
109 82
120 226
121 123
122 257
123 260
124 199
125 161
135 165
136 800
137 247
150 197
151 98
152 482
153 999
154 316
155 75

$$$$

     RDKit          2D

 14 15  0  0  0  0  0  0  0  0999 V2000
    4.8705    4.2614    0.0000 C   0  0  0  0  0  0  0  0  0  0  0  0
    3.5710    5.0123    0.0000 C   0  0  0  0  0  0  0  0  0  0  0  0
    4.8710    2.7606    0.0000 C   0  0  0  0  0  0  0  0  0  0  0  0
   -0.3213   -0.2318    0.0000 C   0  0  0  0  0  0  0  0  0  0  0  0
   -1.6204    0.5180    0.0000 C   0  0  0  0  0  0  0  0  0  0  0  0
    2.2719    4.2623    0.0000 C   0  0  0  0  0  0  0  0  0  0  0  0
    3.5719    2.0106    0.0000 C   0  0  0  0  0  0  0  0  0  0  0  0
    0.9731    0.5106    0.0000 C   0  0  0  0  0  0  0  0  0  0  0  0
   -0.3258    2.7612    0.0000 C   0  0  0  0  0  0  0  0  0  0  0  0
   -2.9256    2.7578    0.0000 C   0  0  0  0  0  0  0  0  0  0  0  0
   -1.6252    2.0102    0.0000 C   0  0  0  0  0  0  0  0  0  0  0  0
    2.2724    2.7614    0.0000 C   0  0  0  0  0  0  0  0  0  0  0  0
    0.9734    2.0114    0.0000 C   0  0  0  0  0  0  0  0  0  0  0  0
   -4.2233    2.0054    0.0000 O   0  0  0  0  0  0  0  0  0  0  0  0
  2  1  2  0
  3  1  1  0
  5  4  2  0
  6  2  1  0
  7  3  2  0
  8  4  1  0
 11  5  1  0
 11  9  2  0
 11 10  1  0
 12  6  2  0
 12  7  1  0
 13  8  2  0
 13  9  1  0
 13 12  1  0
 14 10  1  0
M  END
>  <NAME>  (433) 
3-PHENYLBENZYLALCOHOL

>  <SYNONYMS>  (433) 


>  <SPECTRUM TYPE>  (433) 
MS1

>  <INSTRUMENT TYPE>  (433) 
EI-B

>  <INSTRUMENT>  (433) 
JEOL JMS-DX-300

>  <ION MODE>  (433) 
P

>  <INCHIKEY>  (433) 
WGUZZTGZDPJWSG-UHFFFAOYSA-N

>  <FORMULA>  (433) 
C13H12O

>  <EXACT MASS>  (433) 
184.088815004

>  <MW>  (433) 
184

>  <ID>  (433) 
JP011474

>  <CONTRIBUTOR>  (433) 
University of Tokyo Team, {Faculty of Engineering, University of Tokyo

>  <COMMENT>  (433) 
SMILES=OCc(c2)cc(cc2)c(c1)cccc1
InChI=InChI=1S/C13H12O/c14-10-11-5-4-8-13(9-11)12-6-2-1-3-7-12/h1-9,14H,10H2
computed SMILES=OCC1=CC=CC(=C1)C=2C=CC=CC2
ion type=[M]+*
accession=JP011474
date=2016.01.19 (Created 2008.10.21, modified 2011.05.06)
author=FUJISE Y, HAMAMATSU UNIV. SCHOOL OF MEDICINE
license=CC BY-NC-SA
exact mass=184.08882
ionization energy=70 eV
computed spectral entropy=3.4191473019028367
computed normalized entropy=0.8190776468107421
SPLASH=splash10-0kai-2900000000-5e8ea4207ee8ca37305e
submitter=submitter = University of Tokyo Team (Faculty of Engineering, University of Tokyo)
MoNA Rating=3.75

>  <NUM PEAKS>  (433) 
65

>  <MASS SPECTRAL PEAKS>  (433) 
39 8.49
50 4.71
51 15.87
52 3.39
53 1.98
55 0.88
62 1.91
63 7.74
64 1.39
65 2.81
74 2.85
75 5.32
76 6.95
77 36.75
78 17.89
79 13.58
82 1.33
83 1.22
86 1.16
87 2.36
88 1.15
89 4.37
91 4.93
92 2.91
99 1.04
101 2.07
102 5.41
103 1.74
105 5.81
106 2.38
107 12.25
108 0.98
113 1.59
114 1.13
115 10.17
116 2.19
126 5.91
127 9.15
128 11.77
129 7.04
130 1.02
139 4.93
140 0.88
141 4.08
150 3.61
151 11.35
152 40.02
153 27.57
154 15.63
155 68.33
156 12.07
157 1.28
163 2.04
164 2.67
165 30.43
166 16.75
167 9.28
168 1.93
169 2.1
181 2.92
182 2.02
183 20.09
184 99.99
185 15.32
186 1.36

>  <PREDICTED SPECTRUM>  (433) 
17 8
18 24
26 62
27 124
28 76
29 109
30 6
31 66
36 0
37 23
38 87
39 242
40 90
41 133
42 34
43 54
44 57
49 42
50 211
51 343
52 179
53 122
54 77
55 167
56 51
57 88
61 84
62 168
63 305
64 183
65 248
66 78
67 67
68 36
69 83
70 99
71 32
74 158
75 233
76 257
77 339
78 255
79 115
80 19
81 45
82 198
83 162
84 143
85 38
86 98
87 126
88 142
89 300
90 176
91 400
92 157
93 47
94 44
95 10
96 43
97 51
98 99
99 53
100 38
101 75
102 193
103 101
104 52
105 167
106 208
107 199
108 29
109 34
110 50
113 116
114 65
115 490
116 160
126 187
127 247
128 247
129 264
130 37
131 58
135 21
137 68
138 50
139 285
140 37
141 214
142 48
143 13
150 104
151 285
152 569
153 547
154 468
155 518
156 183
157 11
163 203
164 130
165 595
166 511
167 404
168 308
169 187
170 62
180 49
181 246
182 245
183 393
184 999
185 427
186 108

$$$$

     RDKit          2D

  9  9  0  0  0  0  0  0  0  0999 V2000
    0.0004   -3.7508    0.0000 C   0  0  0  0  0  0  0  0  0  0  0  0
   -1.2991   -2.9999    0.0000 C   0  0  0  0  0  0  0  0  0  0  0  0
    1.2994   -3.0008    0.0000 C   0  0  0  0  0  0  0  0  0  0  0  0
   -1.2996   -1.4991    0.0000 C   0  0  0  0  0  0  0  0  0  0  0  0
    2.5980   -0.7499    0.0000 C   0  0  0  0  0  0  0  0  0  0  0  0
    1.2989   -1.4999    0.0000 C   0  0  0  0  0  0  0  0  0  0  0  0
   -0.0006   -0.7491    0.0000 C   0  0  0  0  0  0  0  0  0  0  0  0
   -0.0003    0.7509    0.0000 Br  0  0  0  0  0  0  0  0  0  0  0  0
    3.8970   -1.4999    0.0000 O   0  0  0  0  0  0  0  0  0  0  0  0
  2  1  2  0
  3  1  1  0
  4  2  1  0
  6  3  2  0
  6  5  1  0
  7  4  2  0
  7  6  1  0
  8  7  1  0
  9  5  1  0
M  END
>  <NAME>  (434) 
2-BROMOBENZYLALCOHOL

>  <SYNONYMS>  (434) 


>  <SPECTRUM TYPE>  (434) 
MS1

>  <INSTRUMENT TYPE>  (434) 
EI-B

>  <INSTRUMENT>  (434) 
JEOL JMS-DX-300

>  <ION MODE>  (434) 
P

>  <INCHIKEY>  (434) 
IOWGHQGLUMEZKG-UHFFFAOYSA-N

>  <FORMULA>  (434) 
C7H7BrO

>  <EXACT MASS>  (434) 
185.968026944

>  <MW>  (434) 
186

>  <ID>  (434) 
JP011473

>  <CONTRIBUTOR>  (434) 
University of Tokyo Team, {Faculty of Engineering, University of Tokyo

>  <COMMENT>  (434) 
SMILES=OCc(c1)c(Br)ccc1
InChI=InChI=1S/C7H7BrO/c8-7-4-2-1-3-6(7)5-9/h1-4,9H,5H2
computed SMILES=BrC=1C=CC=CC1CO
accession=JP011473
date=2016.01.19 (Created 2008.10.21, modified 2011.05.06)
author=FUJISE Y, HAMAMATSU UNIV. SCHOOL OF MEDICINE
license=CC BY-NC-SA
exact mass=185.96803
ionization energy=70 eV
ion type=[M]+*
computed spectral entropy=3.141268544675356
computed normalized entropy=0.8114454754026457
SPLASH=splash10-056r-9400000000-2fdb20cf3e108d574988
submitter=submitter = University of Tokyo Team (Faculty of Engineering, University of Tokyo)
MoNA Rating=3.75

>  <NUM PEAKS>  (434) 
48

>  <MASS SPECTRAL PEAKS>  (434) 
37 2.79
38 8.33
39 19.96
40 1.58
49 3.14
50 38.93
51 55.01
52 13.56
53 10.37
54 1.69
55 1.32
61 3.15
62 9.27
63 18.69
64 3.21
73 2.66
74 16.15
75 18.19
76 17.39
77 97.9
78 40.09
79 99.99
80 8.67
81 5.74
82 3.66
83 2.56
85 1.11
86 2.31
87 2.03
89 15.87
90 8.38
105 24.83
106 3.42
107 96.41
108 8.38
155 4.11
156 0.96
157 9.68
158 0.94
159 5.91
169 4.85
171 4.6
183 2.23
185 6.54
186 40.98
187 7.93
188 41.72
189 3.25

>  <PREDICTED SPECTRUM>  (434) 
14 21
15 36
16 24
17 26
18 50
25 33
26 129
27 155
28 129
29 212
30 158
31 201
32 7
37 130
38 228
39 371
40 119
41 143
43 15
44 65
46 30
49 108
50 414
51 539
52 296
53 198
54 88
55 42
56 27
57 98
58 0
59 73
60 22
61 207
62 293
63 419
64 201
65 337
66 80
67 106
68 24
73 29
74 274
75 318
76 230
77 701
78 481
79 465
80 169
81 20
86 75
87 100
88 24
89 456
90 348
91 333
92 145
104 7
105 293
106 222
107 999
108 270
141 9
142 43
143 94
157 151
158 16
159 135
167 1
168 62
169 507
170 193
171 530
172 88
173 68
183 6
185 201
186 422
187 229
188 399
189 89

$$$$

     RDKit          2D

 15 16  0  0  0  0  0  0  0  0999 V2000
   -1.6700   -0.9600    0.0000 C   0  0  0  0  0  0  0  0  0  0  0  0
   -1.6700    0.5400    0.0000 C   0  0  0  0  0  0  0  0  0  0  0  0
   -0.3700   -1.7100    0.0000 C   0  0  0  0  0  0  0  0  0  0  0  0
   -0.3700    1.2900    0.0000 C   0  0  0  0  0  0  0  0  0  0  0  0
    0.9300   -0.9600    0.0000 C   0  0  0  0  0  0  0  0  0  0  0  0
    4.8197   -1.7391    0.0000 C   0  0  0  0  0  0  0  0  0  0  0  0
    6.1512    0.4751    0.0000 C   0  0  0  0  0  0  0  0  0  0  0  0
    3.5411   -1.0039    0.0000 C   0  0  0  0  0  0  0  0  0  0  0  0
    4.8331    1.2799    0.0000 C   0  0  0  0  0  0  0  0  0  0  0  0
    7.4139   -1.7665    0.0000 C   0  0  0  0  0  0  0  0  0  0  0  0
    6.1247   -0.9996    0.0000 C   0  0  0  0  0  0  0  0  0  0  0  0
    0.9300    0.5400    0.0000 C   0  0  0  0  0  0  0  0  0  0  0  0
    3.5281    0.5404    0.0000 C   0  0  0  0  0  0  0  0  0  0  0  0
    8.7226   -1.0334    0.0000 O   0  0  0  0  0  0  0  0  0  0  0  0
    2.2289    1.2902    0.0000 O   0  0  0  0  0  0  0  0  0  0  0  0
  2  1  2  0
  3  1  1  0
  4  2  1  0
  5  3  2  0
  8  6  2  0
  9  7  1  0
 11  6  1  0
 11  7  2  0
 11 10  1  0
 12  4  2  0
 12  5  1  0
 13  8  1  0
 13  9  2  0
 14 10  1  0
 15 12  1  0
 15 13  1  0
M  END
>  <NAME>  (435) 
4-PHENOXYBENZYLALCOHOL

>  <SYNONYMS>  (435) 


>  <SPECTRUM TYPE>  (435) 
MS1

>  <INSTRUMENT TYPE>  (435) 
EI-B

>  <INSTRUMENT>  (435) 
JEOL JMS-DX-300

>  <ION MODE>  (435) 
P

>  <INCHIKEY>  (435) 
FEOMFFKZOZMBKD-UHFFFAOYSA-N

>  <FORMULA>  (435) 
C13H12O2

>  <EXACT MASS>  (435) 
200.083729624

>  <MW>  (435) 
200

>  <ID>  (435) 
JP011472

>  <CONTRIBUTOR>  (435) 
University of Tokyo Team, {Faculty of Engineering, University of Tokyo

>  <COMMENT>  (435) 
SMILES=OCc(c2)ccc(c2)Oc(c1)cccc1
InChI=InChI=1S/C13H12O2/c14-10-11-6-8-13(9-7-11)15-12-4-2-1-3-5-12/h1-9,14H,10H2
computed SMILES=OCC1=CC=C(OC=2C=CC=CC2)C=C1
accession=JP011472
date=2016.01.19 (Created 2008.10.21, modified 2011.05.06)
author=FUJISE Y, HAMAMATSU UNIV. SCHOOL OF MEDICINE
license=CC BY-NC-SA
exact mass=200.08373
ionization energy=70 eV
ion type=[M]+*
computed spectral entropy=3.379723420691075
computed normalized entropy=0.8096334149599808
SPLASH=splash10-0ufr-9530000000-455d18a21cfdecb43c2c
submitter=submitter = University of Tokyo Team (Faculty of Engineering, University of Tokyo)
MoNA Rating=3.75

>  <NUM PEAKS>  (435) 
65

>  <MASS SPECTRAL PEAKS>  (435) 
38 1.7
39 16.12
40 2.34
41 6.59
50 7.56
51 33.83
52 4.99
53 2.94
55 2.63
62 1.42
63 7.49
64 3.32
65 27.43
66 8.25
67 5.78
74 1.48
75 2.01
76 3.62
77 62.82
78 12.06
79 32.99
80 2.01
89 6.07
90 1.66
91 3.12
92 1.13
93 13.43
94 3.17
95 5.65
100 1.15
105 2.63
106 0.92
107 29.86
108 2.31
115 11.23
116 1.37
121 1.09
122 2.53
123 2.34
127 1.99
128 3.61
129 1.69
139 3.34
141 6.85
142 1.88
151 0.88
152 4.2
153 9.04
154 2.04
155 3.8
168 1.23
169 3.63
170 1.31
171 16.24
172 2.35
181 7.08
182 1.19
183 14.49
184 3.7
197 3.23
198 2.85
199 20.74
200 99.99
201 14.33
202 1.09

>  <PREDICTED SPECTRUM>  (435) 
17 0
18 7
26 50
27 112
28 30
29 124
31 101
32 20
33 7
36 2
37 14
38 94
39 318
40 81
41 184
42 72
43 130
44 59
45 100
47 50
49 4
50 251
51 512
52 187
53 194
54 64
55 205
56 5
57 88
58 40
61 25
62 122
63 306
64 161
65 399
66 176
67 83
68 38
69 100
70 38
71 60
74 125
75 178
76 161
77 738
78 392
79 299
80 91
81 86
83 13
84 26
85 8
86 106
87 39
88 1
89 254
90 176
91 146
92 125
93 264
94 289
95 160
96 16
97 5
99 29
100 20
101 2
102 103
103 114
104 128
105 228
106 214
107 371
108 121
109 2
113 43
114 2
115 292
116 147
117 91
118 71
121 15
122 108
123 191
124 34
125 1
126 34
127 159
128 257
129 128
130 64
137 52
139 149
140 36
141 295
142 134
143 146
144 2
150 51
151 137
152 257
153 327
154 172
155 195
156 68
157 106
167 11
168 97
169 232
170 139
171 376
172 145
173 35
179 44
181 453
182 187
183 410
184 206
185 15
186 4
197 143
198 154
199 397
200 999
201 391
202 117

$$$$

     RDKit          2D

 14 15  0  0  0  0  0  0  0  0999 V2000
   -4.2225    0.5081    0.0000 C   0  0  0  0  0  0  0  0  0  0  0  0
   -2.9230   -0.2427    0.0000 C   0  0  0  0  0  0  0  0  0  0  0  0
   -4.2230    2.0090    0.0000 C   0  0  0  0  0  0  0  0  0  0  0  0
   -1.6239    0.5073    0.0000 C   0  0  0  0  0  0  0  0  0  0  0  0
   -2.9239    2.7590    0.0000 C   0  0  0  0  0  0  0  0  0  0  0  0
    2.2746    2.7577    0.0000 C   0  0  0  0  0  0  0  0  0  0  0  0
    0.9750    5.0079    0.0000 C   0  0  0  0  0  0  0  0  0  0  0  0
    0.9745    2.0079    0.0000 C   0  0  0  0  0  0  0  0  0  0  0  0
   -0.3251    4.2581    0.0000 C   0  0  0  0  0  0  0  0  0  0  0  0
    3.5739    5.0077    0.0000 C   0  0  0  0  0  0  0  0  0  0  0  0
    2.2749    4.2577    0.0000 C   0  0  0  0  0  0  0  0  0  0  0  0
   -1.6244    2.0081    0.0000 C   0  0  0  0  0  0  0  0  0  0  0  0
   -0.3254    2.7581    0.0000 C   0  0  0  0  0  0  0  0  0  0  0  0
    4.8730    4.2577    0.0000 O   0  0  0  0  0  0  0  0  0  0  0  0
  2  1  2  0
  3  1  1  0
  4  2  1  0
  5  3  2  0
  8  6  2  0
  9  7  1  0
 11  6  1  0
 11  7  2  0
 11 10  1  0
 12  4  2  0
 12  5  1  0
 13  8  1  0
 13  9  2  0
 13 12  1  0
 14 10  1  0
M  END
>  <NAME>  (436) 
4-PHENYLBENZYLALCOHOL

>  <SYNONYMS>  (436) 


>  <SPECTRUM TYPE>  (436) 
MS1

>  <INSTRUMENT TYPE>  (436) 
EI-B

>  <INSTRUMENT>  (436) 
JEOL JMS-DX-300

>  <ION MODE>  (436) 
P

>  <INCHIKEY>  (436) 
AXCHZLOJGKSWLV-UHFFFAOYSA-N

>  <FORMULA>  (436) 
C13H12O

>  <EXACT MASS>  (436) 
184.088815004

>  <MW>  (436) 
184

>  <ID>  (436) 
JP011471

>  <CONTRIBUTOR>  (436) 
University of Tokyo Team, {Faculty of Engineering, University of Tokyo

>  <COMMENT>  (436) 
SMILES=OCc(c2)ccc(c2)c(c1)cccc1
InChI=InChI=1S/C13H12O/c14-10-11-6-8-13(9-7-11)12-4-2-1-3-5-12/h1-9,14H,10H2
computed SMILES=OCC=1C=CC(=CC1)C=2C=CC=CC2
accession=JP011471
date=2016.01.19 (Created 2008.10.21, modified 2011.05.06)
author=FUJISE Y, HAMAMATSU UNIV. SCHOOL OF MEDICINE
license=CC BY-NC-SA
exact mass=184.08882
ionization energy=70 eV
ion type=[M]+*
computed spectral entropy=3.125027533994896
computed normalized entropy=0.8029732347899035
SPLASH=splash10-001i-1900000000-37f29d9149b2b2bfc624
submitter=submitter = University of Tokyo Team (Faculty of Engineering, University of Tokyo)
MoNA Rating=3.75

>  <NUM PEAKS>  (436) 
49

>  <MASS SPECTRAL PEAKS>  (436) 
39 3.32
50 1.8
51 6.69
52 1.52
63 3.05
65 1.19
69 8.9
74 1.01
75 1.68
76 3.01
77 18.29
78 8.62
79 7.49
89 2.12
91 1.89
92 1.63
102 2.5
105 3.58
106 1.75
107 8.29
115 7.9
116 1.11
119 2.04
126 2.37
127 5.05
128 6.5
129 3.8
131 2.51
139 2.13
141 2
150 1.59
151 5.29
152 20.82
153 15.97
154 8.83
155 56.85
156 9.84
164 1.36
165 15.55
166 11.91
167 13.71
168 2.36
169 2.65
181 5.57
182 4.68
183 21.47
184 99.99
185 15.82
186 1.43

>  <PREDICTED SPECTRUM>  (436) 
26 40
27 79
28 43
29 142
31 136
38 40
39 168
40 49
41 89
42 73
43 50
44 98
50 128
51 288
52 116
53 71
54 45
55 143
56 29
57 101
61 22
62 100
63 240
64 110
65 176
66 26
67 27
69 16
70 25
71 12
74 110
75 156
76 159
77 318
78 190
79 94
81 56
82 159
83 120
84 107
86 62
87 70
88 108
89 278
90 157
91 193
92 38
95 31
97 65
98 62
99 33
101 24
102 119
105 21
106 47
107 153
113 59
114 15
115 421
116 151
121 2
126 92
127 160
128 148
129 13
130 21
131 50
139 166
141 251
142 44
150 38
151 140
152 509
153 475
154 439
155 392
156 70
163 81
164 21
165 548
166 449
167 467
168 330
169 228
170 89
181 189
182 211
183 389
184 999
185 402
186 76

$$$$

     RDKit          2D

 15 17  0  0  0  0  0  0  0  0999 V2000
    3.6900    0.1600    0.0000 C   0  0  0  0  0  0  0  0  0  0  0  0
    3.2200   -1.2700    0.0000 C   0  0  0  0  0  0  0  0  0  0  0  0
    2.6800    1.2700    0.0000 C   0  0  0  0  0  0  0  0  0  0  0  0
    1.7500   -1.5800    0.0000 C   0  0  0  0  0  0  0  0  0  0  0  0
   -3.2200   -1.2700    0.0000 C   0  0  0  0  0  0  0  0  0  0  0  0
   -1.7500   -1.5800    0.0000 C   0  0  0  0  0  0  0  0  0  0  0  0
   -2.6800    1.2700    0.0000 C   0  0  0  0  0  0  0  0  0  0  0  0
   -0.0000    1.8400    0.0000 C   0  0  0  0  0  0  0  0  0  0  0  0
   -5.1467    0.4742    0.0000 C   0  0  0  0  0  0  0  0  0  0  0  0
   -3.6800    0.1600    0.0000 C   0  0  0  0  0  0  0  0  0  0  0  0
    1.2100    0.9600    0.0000 C   0  0  0  0  0  0  0  0  0  0  0  0
   -1.2100    0.9600    0.0000 C   0  0  0  0  0  0  0  0  0  0  0  0
    0.7500   -0.4700    0.0000 C   0  0  0  0  0  0  0  0  0  0  0  0
   -0.7500   -0.4700    0.0000 C   0  0  0  0  0  0  0  0  0  0  0  0
   -6.1522   -0.6389    0.0000 O   0  0  0  0  0  0  0  0  0  0  0  0
  2  1  2  0
  3  1  1  0
  4  2  1  0
  6  5  1  0
 10  5  2  0
 10  7  1  0
 10  9  1  0
 11  3  2  0
 11  8  1  0
 12  7  2  0
 12  8  1  0
 13  4  2  0
 13 11  1  0
 14  6  2  0
 14 12  1  0
 14 13  1  0
 15  9  1  0
M  END
>  <NAME>  (437) 
2-FLUORENYLMETHANOL

>  <SYNONYMS>  (437) 


>  <SPECTRUM TYPE>  (437) 
MS1

>  <INSTRUMENT TYPE>  (437) 
EI-B

>  <INSTRUMENT>  (437) 
JEOL JMS-DX-300

>  <ION MODE>  (437) 
P

>  <INCHIKEY>  (437) 
NVRRCUVMHFKHCL-UHFFFAOYSA-N

>  <FORMULA>  (437) 
C14H12O

>  <EXACT MASS>  (437) 
196.088815004

>  <MW>  (437) 
196

>  <ID>  (437) 
JP011470

>  <CONTRIBUTOR>  (437) 
University of Tokyo Team, {Faculty of Engineering, University of Tokyo

>  <COMMENT>  (437) 
SMILES=OCc(c3)cc(C1)c(c3)c(c2)c(ccc2)1
InChI=InChI=1S/C14H12O/c15-9-10-5-6-14-12(7-10)8-11-3-1-2-4-13(11)14/h1-7,15H,8-9H2
computed SMILES=OCC1=CC=C2C=3C=CC=CC3CC2=C1
accession=JP011470
date=2016.01.19 (Created 2008.10.21, modified 2011.05.06)
author=FUJISE Y, HAMAMATSU UNIV. SCHOOL OF MEDICINE
license=CC BY-NC-SA
exact mass=196.08882
ionization energy=70 eV
ion type=[M]+*
computed spectral entropy=3.0055913133790284
computed normalized entropy=0.7500228142883182
SPLASH=splash10-014i-1900000000-acc1a6b8fbc03a1e9e00
submitter=submitter = University of Tokyo Team (Faculty of Engineering, University of Tokyo)
MoNA Rating=3.75

>  <NUM PEAKS>  (437) 
55

>  <MASS SPECTRAL PEAKS>  (437) 
39 3.42
40 1.18
43 1.17
44 1.46
50 1.78
51 3.46
62 1.61
63 4.78
65 1.1
69 1.05
74 1.84
75 2.62
76 3.71
77 3.66
82 1.94
83 2.17
86 1.56
87 2.83
88 2.4
89 6.31
97 1.58
98 3.03
105 5.85
113 2.2
115 6.8
126 1.53
127 1.04
128 2.14
137 1.21
138 1.2
139 8.6
140 1.07
141 1.37
150 1.83
151 3.88
152 14.6
153 2.41
162 1.87
163 14
164 12.03
165 99.99
166 63.52
167 29.91
168 3.91
176 4.52
177 3.66
178 20.73
179 11.26
180 2.99
181 1.07
194 3.65
195 8.49
196 62.29
197 8.81
198 0.99

>  <PREDICTED SPECTRUM>  (437) 
15 9
26 22
27 66
28 45
29 47
30 32
31 51
38 39
39 143
40 33
41 54
42 11
43 42
44 38
49 13
50 126
51 174
52 77
53 31
54 15
55 38
57 11
61 52
62 133
63 236
64 94
65 91
67 7
68 2
69 49
70 36
74 131
75 153
76 204
77 126
78 15
81 88
82 257
83 162
84 59
86 91
87 147
88 143
89 288
90 129
91 59
94 17
95 25
96 45
97 58
98 131
99 73
100 44
101 30
102 42
111 36
113 130
114 27
115 309
116 84
126 69
127 89
128 157
137 29
138 57
139 231
140 43
141 86
149 27
150 116
151 146
152 330
153 179
154 20
162 69
163 296
164 307
165 999
166 573
167 566
168 232
169 73
175 22
176 169
177 215
178 421
179 268
180 168
181 211
182 52
194 69
195 252
196 757
197 292
198 79

$$$$

     RDKit          2D

 21 23  0  0  0  0  0  0  0  0999 V2000
    2.6004   -8.2528    0.0000 C   0  0  0  0  0  0  0  0  0  0  0  0
    6.4919   -7.4934    0.0000 C   0  0  0  0  0  0  0  0  0  0  0  0
   -2.6000    0.7500    0.0000 C   0  0  0  0  0  0  0  0  0  0  0  0
    6.4966   -6.0012    0.0000 C   0  0  0  0  0  0  0  0  0  0  0  0
   -2.6000   -0.7500    0.0000 C   0  0  0  0  0  0  0  0  0  0  0  0
    5.1927   -8.2432    0.0000 C   0  0  0  0  0  0  0  0  0  0  0  0
   -1.3000    1.5000    0.0000 C   0  0  0  0  0  0  0  0  0  0  0  0
    5.1972   -5.2502    0.0000 C   0  0  0  0  0  0  0  0  0  0  0  0
   -1.3000   -1.5000    0.0000 C   0  0  0  0  0  0  0  0  0  0  0  0
    1.3000    1.5000    0.0000 C   0  0  0  0  0  0  0  0  0  0  0  0
    2.6000    0.7500    0.0000 C   0  0  0  0  0  0  0  0  0  0  0  0
    1.3000   -3.0000    0.0000 C   0  0  0  0  0  0  0  0  0  0  0  0
    3.8983   -7.5008    0.0000 C   0  0  0  0  0  0  0  0  0  0  0  0
    0.0000    0.7500    0.0000 C   0  0  0  0  0  0  0  0  0  0  0  0
    3.8981   -6.0000    0.0000 C   0  0  0  0  0  0  0  0  0  0  0  0
    0.0000   -0.7500    0.0000 C   0  0  0  0  0  0  0  0  0  0  0  0
    1.3000   -1.5000    0.0000 C   0  0  0  0  0  0  0  0  0  0  0  0
    2.5990   -5.2500    0.0000 C   0  0  0  0  0  0  0  0  0  0  0  0
    2.6000   -0.7500    0.0000 N   0  0  0  0  0  0  0  0  0  0  0  0
    1.3000   -6.0000    0.0000 O   0  0  0  0  0  0  0  0  0  0  0  0
    2.5990   -3.7500    0.0000 O   0  0  0  0  0  0  0  0  0  0  0  0
  4  2  2  0
  5  3  2  0
  6  2  1  0
  7  3  1  0
  8  4  1  0
  9  5  1  0
 11 10  2  0
 13  1  1  0
 13  6  2  0
 14  7  2  0
 14 10  1  0
 15  8  2  0
 15 13  1  0
 16  9  2  0
 16 14  1  0
 17 12  1  0
 17 16  1  0
 18 15  1  0
 19 11  1  0
 19 17  2  0
 20 18  2  0
 21 12  1  0
 21 18  1  0
M  END
>  <NAME>  (438) 
3-ISOQUINOLYLMETHYL 2-METHYLBENZOATE

>  <SYNONYMS>  (438) 


>  <SPECTRUM TYPE>  (438) 
MS1

>  <INSTRUMENT TYPE>  (438) 
EI-B

>  <INSTRUMENT>  (438) 
JEOL JMS-DX-300

>  <ION MODE>  (438) 
P

>  <INCHIKEY>  (438) 
AZZFAKNRCBCLEK-UHFFFAOYSA-N

>  <FORMULA>  (438) 
C18H15NO2

>  <EXACT MASS>  (438) 
277.11027872

>  <MW>  (438) 
277

>  <ID>  (438) 
JP011469

>  <CONTRIBUTOR>  (438) 
University of Tokyo Team, {Faculty of Engineering, University of Tokyo

>  <COMMENT>  (438) 
SMILES=Cc(c3)c(ccc3)C(=O)OCc(n1)c(c2)c(ccc2)cc1
InChI=InChI=1S/C18H15NO2/c1-13-6-2-4-8-15(13)18(20)21-12-17-16-9-5-3-7-14(16)10-11-19-17/h2-11H,12H2,1H3
computed SMILES=O=C(OCC1=NC=CC=2C=CC=CC21)C=3C=CC=CC3C
accession=JP011469
date=2016.01.19 (Created 2008.10.21, modified 2011.05.06)
author=FUJISE Y, HAMAMATSU UNIV. SCHOOL OF MEDICINE
license=CC BY-NC-SA
exact mass=277.11028
ionization energy=70 eV
ion type=[M]+*
computed spectral entropy=3.2365383456277574
computed normalized entropy=0.7970899572340537
SPLASH=splash10-0aou-3920000000-ac18bb2be545525373fd
submitter=submitter = University of Tokyo Team (Faculty of Engineering, University of Tokyo)
MoNA Rating=3.75

>  <NUM PEAKS>  (438) 
58

>  <MASS SPECTRAL PEAKS>  (438) 
39 5.7
41 1.73
43 1.67
45 2.62
50 1.41
51 3.52
52 1.13
57 1.39
62 1.14
63 4.65
64 1.35
65 15.31
75 2.19
76 1.73
77 8.54
78 1.34
79 2.8
88 1.29
89 9.26
90 11.93
91 34.78
92 3.66
101 2.98
102 4.14
103 2.68
105 3.45
113 1.1
114 2.35
115 26.42
116 7.85
118 24.26
119 22
120 1.93
128 12.93
129 6.94
130 4.52
135 4.59
136 3.86
140 4.34
141 3.19
142 43.32
143 11.23
144 1.63
156 3.51
157 1.97
158 99.99
159 15.71
160 1.04
218 2.14
230 1.64
231 1.1
232 8.58
233 1.99
246 1.26
276 1.46
277 44.7
278 9.12
279 1.03

>  <PREDICTED SPECTRUM>  (438) 
27 1
37 9
38 59
39 246
40 96
41 123
42 62
43 120
44 82
45 91
49 18
50 159
51 238
52 141
53 127
54 47
55 52
56 10
57 82
58 24
61 86
62 130
63 269
64 136
65 468
66 81
67 39
68 25
69 57
70 18
71 16
73 106
74 118
75 170
76 142
77 231
78 172
79 109
81 9
83 16
85 37
86 70
87 72
88 50
89 296
90 206
91 712
92 246
93 55
100 65
101 161
102 140
103 127
104 64
105 83
112 35
113 68
114 192
115 366
116 275
117 128
118 290
119 566
120 177
121 15
126 26
128 226
129 233
130 212
131 109
132 26
134 62
135 117
140 138
141 285
142 553
143 375
144 130
152 2
156 233
157 51
158 999
159 451
160 201
196 11
232 227
233 198
234 54
246 13
260 21
262 23
276 92
277 591
278 230
279 58

$$$$

     RDKit          2D

 21 23  0  0  0  0  0  0  0  0999 V2000
   -5.2002   -3.7498    0.0000 C   0  0  0  0  0  0  0  0  0  0  0  0
   -6.4883   -7.4996    0.0000 C   0  0  0  0  0  0  0  0  0  0  0  0
   -5.1984   -8.2498    0.0000 C   0  0  0  0  0  0  0  0  0  0  0  0
   -2.6000    0.7500    0.0000 C   0  0  0  0  0  0  0  0  0  0  0  0
    2.6000    0.7500    0.0000 C   0  0  0  0  0  0  0  0  0  0  0  0
   -6.4881   -5.9996    0.0000 C   0  0  0  0  0  0  0  0  0  0  0  0
   -1.3000    1.5000    0.0000 C   0  0  0  0  0  0  0  0  0  0  0  0
   -2.6000   -0.7500    0.0000 C   0  0  0  0  0  0  0  0  0  0  0  0
    1.3000    1.5000    0.0000 C   0  0  0  0  0  0  0  0  0  0  0  0
   -3.8983   -7.5000    0.0000 C   0  0  0  0  0  0  0  0  0  0  0  0
    2.6000   -0.7500    0.0000 C   0  0  0  0  0  0  0  0  0  0  0  0
   -1.3000   -3.0000    0.0000 C   0  0  0  0  0  0  0  0  0  0  0  0
   -5.1980   -5.2498    0.0000 C   0  0  0  0  0  0  0  0  0  0  0  0
   -0.0000    0.7500    0.0000 C   0  0  0  0  0  0  0  0  0  0  0  0
   -1.3000   -1.5000    0.0000 C   0  0  0  0  0  0  0  0  0  0  0  0
   -3.8981   -6.0000    0.0000 C   0  0  0  0  0  0  0  0  0  0  0  0
   -0.0000   -0.7500    0.0000 C   0  0  0  0  0  0  0  0  0  0  0  0
   -2.5990   -5.2500    0.0000 C   0  0  0  0  0  0  0  0  0  0  0  0
    1.3000   -1.5000    0.0000 N   0  0  0  0  0  0  0  0  0  0  0  0
   -1.3000   -6.0000    0.0000 O   0  0  0  0  0  0  0  0  0  0  0  0
   -2.5990   -3.7500    0.0000 O   0  0  0  0  0  0  0  0  0  0  0  0
  3  2  2  0
  6  2  1  0
  7  4  2  0
  8  4  1  0
  9  5  1  0
 10  3  1  0
 11  5  2  0
 13  1  1  0
 13  6  2  0
 14  7  1  0
 14  9  2  0
 15  8  2  0
 15 12  1  0
 16 10  2  0
 16 13  1  0
 17 14  1  0
 17 15  1  0
 18 16  1  0
 19 11  1  0
 19 17  2  0
 20 18  2  0
 21 12  1  0
 21 18  1  0
M  END
>  <NAME>  (439) 
8-QUINOLYLMETHYL 2-METHYLBENZOATE

>  <SYNONYMS>  (439) 


>  <SPECTRUM TYPE>  (439) 
MS1

>  <INSTRUMENT TYPE>  (439) 
EI-B

>  <INSTRUMENT>  (439) 
JEOL JMS-DX-300

>  <ION MODE>  (439) 
P

>  <INCHIKEY>  (439) 
GJVZYYVLYSMMHW-UHFFFAOYSA-N

>  <FORMULA>  (439) 
C18H15NO2

>  <EXACT MASS>  (439) 
277.11027872000005

>  <MW>  (439) 
277

>  <ID>  (439) 
JP011468

>  <CONTRIBUTOR>  (439) 
University of Tokyo Team, {Faculty of Engineering, University of Tokyo

>  <COMMENT>  (439) 
SMILES=Cc(c3)c(ccc3)C(=O)OCc(c1)c(n2)c(ccc2)cc1
InChI=InChI=1S/C18H15NO2/c1-13-6-2-3-10-16(13)18(20)21-12-15-8-4-7-14-9-5-11-19-17(14)15/h2-11H,12H2,1H3
computed SMILES=O=C(OCC1=CC=CC2=CC=CN=C21)C=3C=CC=CC3C
accession=JP011468
date=2016.01.19 (Created 2008.10.21, modified 2011.05.06)
author=FUJISE Y, HAMAMATSU UNIV. SCHOOL OF MEDICINE
license=CC BY-NC-SA
exact mass=277.11028
ionization energy=70 eV
ion type=[M]+*
computed spectral entropy=2.7110965981577917
computed normalized entropy=0.7508053807217384
SPLASH=splash10-0a4i-2900000000-e416173071241b3724aa
submitter=submitter = University of Tokyo Team (Faculty of Engineering, University of Tokyo)
MoNA Rating=3.75

>  <NUM PEAKS>  (439) 
37

>  <MASS SPECTRAL PEAKS>  (439) 
39 3.09
41 1.21
51 1.64
63 2.77
65 9.96
75 1.05
76 1.02
77 4.04
89 4.5
90 3.99
91 20.22
92 1.84
101 1.12
102 2.35
103 1.68
114 2.19
115 5.5
116 3.53
118 4.3
119 12.99
120 1.07
128 6.56
129 5.11
130 3.81
135 1.7
140 2.14
141 6.74
142 35.1
143 6.21
156 8.91
157 1.41
158 99.99
159 15.56
160 1.04
232 2.62
277 11.61
278 2.57

>  <PREDICTED SPECTRUM>  (439) 
38 13
39 154
40 63
41 54
43 20
44 26
50 78
51 124
52 68
53 44
57 15
61 31
62 53
63 141
64 69
65 375
66 66
67 6
74 18
75 70
76 64
77 144
78 66
79 12
87 52
88 0
89 176
90 86
91 535
92 143
93 44
101 77
102 101
103 87
104 25
105 21
114 114
115 263
116 155
117 6
118 74
119 505
120 94
128 155
129 181
130 159
131 67
140 181
141 265
142 532
143 227
144 48
156 220
157 50
158 999
159 397
160 87
232 127
233 42
277 428
278 183
279 49

$$$$

     RDKit          2D

 21 23  0  0  0  0  0  0  0  0999 V2000
   -6.4989    1.5022    0.0000 C   0  0  0  0  0  0  0  0  0  0  0  0
  -10.3902    0.7422    0.0000 C   0  0  0  0  0  0  0  0  0  0  0  0
  -10.3947   -0.7500    0.0000 C   0  0  0  0  0  0  0  0  0  0  0  0
    2.6000    0.7500    0.0000 C   0  0  0  0  0  0  0  0  0  0  0  0
   -9.0912    1.4922    0.0000 C   0  0  0  0  0  0  0  0  0  0  0  0
    1.3000    1.5000    0.0000 C   0  0  0  0  0  0  0  0  0  0  0  0
   -9.0952   -1.5008    0.0000 C   0  0  0  0  0  0  0  0  0  0  0  0
   -2.6000    0.7500    0.0000 C   0  0  0  0  0  0  0  0  0  0  0  0
   -1.3000    1.5000    0.0000 C   0  0  0  0  0  0  0  0  0  0  0  0
    2.6000   -0.7500    0.0000 C   0  0  0  0  0  0  0  0  0  0  0  0
   -1.3000   -1.5000    0.0000 C   0  0  0  0  0  0  0  0  0  0  0  0
   -3.8989   -1.5002    0.0000 C   0  0  0  0  0  0  0  0  0  0  0  0
   -7.7966    0.7500    0.0000 C   0  0  0  0  0  0  0  0  0  0  0  0
   -2.6000   -0.7500    0.0000 C   0  0  0  0  0  0  0  0  0  0  0  0
   -0.0000    0.7500    0.0000 C   0  0  0  0  0  0  0  0  0  0  0  0
   -7.7962   -0.7508    0.0000 C   0  0  0  0  0  0  0  0  0  0  0  0
   -0.0000   -0.7500    0.0000 C   0  0  0  0  0  0  0  0  0  0  0  0
   -6.4970   -1.5006    0.0000 C   0  0  0  0  0  0  0  0  0  0  0  0
    1.3000   -1.5000    0.0000 N   0  0  0  0  0  0  0  0  0  0  0  0
   -6.4968   -3.0006    0.0000 O   0  0  0  0  0  0  0  0  0  0  0  0
   -5.1981   -0.7504    0.0000 O   0  0  0  0  0  0  0  0  0  0  0  0
  3  2  2  0
  5  2  1  0
  6  4  2  0
  7  3  1  0
  9  8  1  0
 10  4  1  0
 13  1  1  0
 13  5  2  0
 14  8  2  0
 14 11  1  0
 14 12  1  0
 15  6  1  0
 15  9  2  0
 16  7  2  0
 16 13  1  0
 17 11  2  0
 17 15  1  0
 18 16  1  0
 19 10  2  0
 19 17  1  0
 20 18  2  0
 21 12  1  0
 21 18  1  0
M  END
>  <NAME>  (440) 
7-QUINOLYLMETHYL 2-METHYLBENZOATE

>  <SYNONYMS>  (440) 


>  <SPECTRUM TYPE>  (440) 
MS1

>  <INSTRUMENT TYPE>  (440) 
EI-B

>  <INSTRUMENT>  (440) 
JEOL JMS-DX-300

>  <ION MODE>  (440) 
P

>  <INCHIKEY>  (440) 
KAZSXOXSTGUMJZ-UHFFFAOYSA-N

>  <FORMULA>  (440) 
C18H15NO2

>  <EXACT MASS>  (440) 
277.11027872

>  <MW>  (440) 
277

>  <ID>  (440) 
JP011467

>  <CONTRIBUTOR>  (440) 
University of Tokyo Team, {Faculty of Engineering, University of Tokyo

>  <COMMENT>  (440) 
SMILES=Cc(c3)c(ccc3)C(=O)OCc(c1)cc(n2)c(ccc2)c1
InChI=InChI=1S/C18H15NO2/c1-13-5-2-3-7-16(13)18(20)21-12-14-8-9-15-6-4-10-19-17(15)11-14/h2-11H,12H2,1H3
computed SMILES=O=C(OCC1=CC=C2C=CC=NC2=C1)C=3C=CC=CC3C
accession=JP011467
date=2016.01.19 (Created 2008.10.21, modified 2011.05.06)
author=FUJISE Y, HAMAMATSU UNIV. SCHOOL OF MEDICINE
license=CC BY-NC-SA
exact mass=277.11028
ion type=[M]+*
ionization energy=70 eV
computed spectral entropy=2.9882222541622094
computed normalized entropy=0.752645477770102
SPLASH=splash10-00kf-2920000000-b196df37f3d13c57270f
submitter=submitter = University of Tokyo Team (Faculty of Engineering, University of Tokyo)
MoNA Rating=3.75

>  <NUM PEAKS>  (440) 
53

>  <MASS SPECTRAL PEAKS>  (440) 
39 5.13
41 2.32
43 1.69
51 3.11
57 1.3
63 4.47
64 1.32
65 14.14
69 3.13
75 1.39
76 0.99
77 7.12
78 1.01
79 3.44
81 1.72
88 1.17
89 7.61
90 5.18
91 33.69
92 3.28
101 2.2
102 2.12
103 1.38
105 2.31
113 1.76
114 4.57
115 11.28
116 7.14
118 2.13
119 99.99
120 10.43
128 4.3
129 2.21
130 5.86
135 7.48
136 1.44
140 4.13
141 15.96
142 95.44
143 16.69
144 1.33
156 3.6
157 1.11
158 29.31
159 3.28
218 1.68
232 11.52
233 3.29
259 1.08
276 1.95
277 60.51
278 12.21
279 1.16

>  <PREDICTED SPECTRUM>  (440) 
38 21
39 173
40 76
41 161
42 34
43 80
44 66
45 20
50 124
51 206
52 85
53 31
57 22
61 39
62 74
63 213
64 88
65 401
66 88
67 16
68 5
69 31
74 47
75 117
76 86
77 187
78 133
79 89
85 4
89 297
90 208
91 594
92 201
93 26
100 1
101 131
102 110
103 79
104 20
105 95
113 80
114 177
115 351
116 196
118 94
119 932
120 282
128 205
129 237
130 252
131 98
136 51
140 180
141 462
142 999
143 401
144 78
156 273
157 72
158 633
159 191
232 314
233 109
276 84
277 714
278 282
279 41

$$$$

     RDKit          2D

 21 23  0  0  0  0  0  0  0  0999 V2000
   -9.0979    3.0012    0.0000 C   0  0  0  0  0  0  0  0  0  0  0  0
  -10.3866   -0.7483    0.0000 C   0  0  0  0  0  0  0  0  0  0  0  0
   -9.0969   -1.4988    0.0000 C   0  0  0  0  0  0  0  0  0  0  0  0
    2.6000    0.7500    0.0000 C   0  0  0  0  0  0  0  0  0  0  0  0
  -10.3862    0.7517    0.0000 C   0  0  0  0  0  0  0  0  0  0  0  0
    1.3000    1.5000    0.0000 C   0  0  0  0  0  0  0  0  0  0  0  0
   -7.7966   -0.7492    0.0000 C   0  0  0  0  0  0  0  0  0  0  0  0
   -2.6000   -0.7500    0.0000 C   0  0  0  0  0  0  0  0  0  0  0  0
   -1.3000   -1.5000    0.0000 C   0  0  0  0  0  0  0  0  0  0  0  0
    2.6000   -0.7500    0.0000 C   0  0  0  0  0  0  0  0  0  0  0  0
   -1.3000    1.5000    0.0000 C   0  0  0  0  0  0  0  0  0  0  0  0
   -3.8989    1.5002    0.0000 C   0  0  0  0  0  0  0  0  0  0  0  0
   -9.0959    1.5012    0.0000 C   0  0  0  0  0  0  0  0  0  0  0  0
   -2.6000    0.7500    0.0000 C   0  0  0  0  0  0  0  0  0  0  0  0
   -0.0000    0.7500    0.0000 C   0  0  0  0  0  0  0  0  0  0  0  0
   -7.7962    0.7508    0.0000 C   0  0  0  0  0  0  0  0  0  0  0  0
   -0.0000   -0.7500    0.0000 C   0  0  0  0  0  0  0  0  0  0  0  0
   -6.4970    1.5006    0.0000 C   0  0  0  0  0  0  0  0  0  0  0  0
    1.3000   -1.5000    0.0000 N   0  0  0  0  0  0  0  0  0  0  0  0
   -6.4968    3.0006    0.0000 O   0  0  0  0  0  0  0  0  0  0  0  0
   -5.1981    0.7504    0.0000 O   0  0  0  0  0  0  0  0  0  0  0  0
  3  2  2  0
  5  2  1  0
  6  4  2  0
  7  3  1  0
  9  8  1  0
 10  4  1  0
 13  1  1  0
 13  5  2  0
 14  8  2  0
 14 11  1  0
 14 12  1  0
 15  6  1  0
 15 11  2  0
 16  7  2  0
 16 13  1  0
 17  9  2  0
 17 15  1  0
 18 16  1  0
 19 10  2  0
 19 17  1  0
 20 18  2  0
 21 12  1  0
 21 18  1  0
M  END
>  <NAME>  (441) 
6-QUINOLYLMETHYL 2-METHYLBENZOATE

>  <SYNONYMS>  (441) 


>  <SPECTRUM TYPE>  (441) 
MS1

>  <INSTRUMENT TYPE>  (441) 
EI-B

>  <INSTRUMENT>  (441) 
JEOL JMS-DX-300

>  <ION MODE>  (441) 
P

>  <INCHIKEY>  (441) 
OXTADCIUYHDWPS-UHFFFAOYSA-N

>  <FORMULA>  (441) 
C18H15NO2

>  <EXACT MASS>  (441) 
277.11027872

>  <MW>  (441) 
277

>  <ID>  (441) 
JP011466

>  <CONTRIBUTOR>  (441) 
University of Tokyo Team, {Faculty of Engineering, University of Tokyo

>  <COMMENT>  (441) 
SMILES=Cc(c3)c(ccc3)C(=O)OCc(c1)cc(c2)c(ncc2)c1
InChI=InChI=1S/C18H15NO2/c1-13-5-2-3-7-16(13)18(20)21-12-14-8-9-17-15(11-14)6-4-10-19-17/h2-11H,12H2,1H3
computed SMILES=O=C(OCC1=CC=C2N=CC=CC2=C1)C=3C=CC=CC3C
accession=JP011466
date=2016.01.19 (Created 2008.10.21, modified 2011.05.06)
author=FUJISE Y, HAMAMATSU UNIV. SCHOOL OF MEDICINE
license=CC BY-NC-SA
exact mass=277.11028
ionization energy=70 eV
ion type=[M]+*
computed spectral entropy=2.786949848762277
computed normalized entropy=0.7161044537732808
SPLASH=splash10-00kf-2920000000-276176028b47949fa97d
submitter=submitter = University of Tokyo Team (Faculty of Engineering, University of Tokyo)
MoNA Rating=3.75

>  <NUM PEAKS>  (441) 
49

>  <MASS SPECTRAL PEAKS>  (441) 
39 4.3
41 2.33
43 1.68
50 1.33
51 3.36
55 1.34
57 1.23
60 1.07
63 3.57
64 1.17
65 12.04
69 2.69
75 1.23
76 1.11
77 5.28
78 4.46
79 2.61
89 6.31
90 4.31
91 26.34
92 2.83
101 1.8
102 1.58
103 1.14
105 1.13
113 1.32
114 3.93
115 8.82
116 5.69
118 1.62
119 94.1
120 9.15
128 3.56
129 1.3
130 3.44
135 6.27
140 3.81
141 14.64
142 99.99
143 14.26
144 1.45
156 1.47
158 2.19
218 1.12
232 2.47
259 1.4
277 48.32
278 9.96
279 1.18

>  <PREDICTED SPECTRUM>  (441) 
38 40
39 214
40 64
41 190
42 50
43 43
44 63
45 83
50 119
51 194
52 89
53 62
54 22
55 42
56 2
57 63
59 10
61 61
62 106
63 232
64 137
65 401
66 100
67 24
68 15
69 51
71 43
73 23
74 71
75 99
76 62
77 186
78 90
79 130
83 6
84 10
87 11
88 41
89 319
90 217
91 584
92 221
93 39
100 36
101 125
102 103
103 36
105 82
113 68
114 213
115 406
116 214
117 15
118 132
119 960
120 343
128 155
129 141
130 269
131 134
135 133
136 64
140 152
141 391
142 999
143 352
144 37
156 153
157 4
158 307
159 70
232 281
233 97
259 40
277 628
278 257
279 15

$$$$

     RDKit          2D

 21 23  0  0  0  0  0  0  0  0999 V2000
   -2.6004    8.2528    0.0000 C   0  0  0  0  0  0  0  0  0  0  0  0
   -6.4919    7.4934    0.0000 C   0  0  0  0  0  0  0  0  0  0  0  0
   -6.4966    6.0012    0.0000 C   0  0  0  0  0  0  0  0  0  0  0  0
   -2.6000   -0.7500    0.0000 C   0  0  0  0  0  0  0  0  0  0  0  0
    2.6000    0.7500    0.0000 C   0  0  0  0  0  0  0  0  0  0  0  0
   -5.1927    8.2432    0.0000 C   0  0  0  0  0  0  0  0  0  0  0  0
   -2.6000    0.7500    0.0000 C   0  0  0  0  0  0  0  0  0  0  0  0
   -5.1972    5.2502    0.0000 C   0  0  0  0  0  0  0  0  0  0  0  0
    1.3000    1.5000    0.0000 C   0  0  0  0  0  0  0  0  0  0  0  0
   -1.3000   -1.5000    0.0000 C   0  0  0  0  0  0  0  0  0  0  0  0
    2.6000   -0.7500    0.0000 C   0  0  0  0  0  0  0  0  0  0  0  0
   -1.3000    3.0000    0.0000 C   0  0  0  0  0  0  0  0  0  0  0  0
   -3.8983    7.5008    0.0000 C   0  0  0  0  0  0  0  0  0  0  0  0
   -1.3000    1.5000    0.0000 C   0  0  0  0  0  0  0  0  0  0  0  0
   -3.8981    6.0000    0.0000 C   0  0  0  0  0  0  0  0  0  0  0  0
   -0.0000    0.7500    0.0000 C   0  0  0  0  0  0  0  0  0  0  0  0
   -0.0000   -0.7500    0.0000 C   0  0  0  0  0  0  0  0  0  0  0  0
   -2.5990    5.2500    0.0000 C   0  0  0  0  0  0  0  0  0  0  0  0
    1.3000   -1.5000    0.0000 N   0  0  0  0  0  0  0  0  0  0  0  0
   -1.3000    6.0000    0.0000 O   0  0  0  0  0  0  0  0  0  0  0  0
   -2.5990    3.7500    0.0000 O   0  0  0  0  0  0  0  0  0  0  0  0
  3  2  2  0
  6  2  1  0
  7  4  2  0
  8  3  1  0
  9  5  2  0
 10  4  1  0
 11  5  1  0
 13  1  1  0
 13  6  2  0
 14  7  1  0
 14 12  1  0
 15  8  2  0
 15 13  1  0
 16  9  1  0
 16 14  2  0
 17 10  2  0
 17 16  1  0
 18 15  1  0
 19 11  2  0
 19 17  1  0
 20 18  2  0
 21 12  1  0
 21 18  1  0
M  END
>  <NAME>  (442) 
5-QUINOLYLMETHYL 2-METHYLBENZOATE

>  <SYNONYMS>  (442) 


>  <SPECTRUM TYPE>  (442) 
MS1

>  <INSTRUMENT TYPE>  (442) 
EI-B

>  <INSTRUMENT>  (442) 
JEOL JMS-DX-300

>  <ION MODE>  (442) 
P

>  <INCHIKEY>  (442) 
DEMBFYWIAASJQR-UHFFFAOYSA-N

>  <FORMULA>  (442) 
C18H15NO2

>  <EXACT MASS>  (442) 
277.11027872

>  <MW>  (442) 
277

>  <ID>  (442) 
JP011465

>  <CONTRIBUTOR>  (442) 
University of Tokyo Team, {Faculty of Engineering, University of Tokyo

>  <COMMENT>  (442) 
SMILES=Cc(c3)c(ccc3)C(=O)OCc(c1)c(c2)c(ncc2)cc1
InChI=InChI=1S/C18H15NO2/c1-13-6-2-3-8-15(13)18(20)21-12-14-7-4-10-17-16(14)9-5-11-19-17/h2-11H,12H2,1H3
computed SMILES=O=C(OCC1=CC=CC2=NC=CC=C21)C=3C=CC=CC3C
accession=JP011465
date=2016.01.19 (Created 2008.10.21, modified 2011.05.06)
author=FUJISE Y, HAMAMATSU UNIV. SCHOOL OF MEDICINE
license=CC BY-NC-SA
exact mass=277.11028
ionization energy=70 eV
ion type=[M]+*
computed spectral entropy=2.8973731046076288
computed normalized entropy=0.7297632435332496
SPLASH=splash10-00kf-2920000000-9afb99a35bd015fe2869
submitter=submitter = University of Tokyo Team (Faculty of Engineering, University of Tokyo)
MoNA Rating=3.75

>  <NUM PEAKS>  (442) 
53

>  <MASS SPECTRAL PEAKS>  (442) 
39 4.71
41 2.66
43 1.79
45 1.25
51 2.41
55 1.13
57 1.38
63 3.59
64 1.2
65 12.12
69 3.51
75 1.37
76 1.08
77 4.84
78 1.25
79 2.62
81 1.63
89 7.26
90 4.14
91 26.87
92 2.7
101 1.73
102 1.96
103 1.34
105 1.44
113 1.53
114 4.41
115 12.23
116 6.72
118 1.85
119 77.1
120 6.76
128 3.6
129 1.72
130 2.67
135 6.59
136 1.39
140 4.61
141 17.34
142 99.99
143 16.6
144 1.37
156 1.1
158 2.93
218 1.71
230 1.15
232 2.3
233 1.01
259 4.6
260 1
277 58.31
278 11.82
279 1.41

>  <PREDICTED SPECTRUM>  (442) 
38 34
39 221
40 79
41 165
42 41
43 54
44 63
45 52
50 114
51 184
52 90
53 73
54 34
55 31
56 26
57 56
61 36
62 71
63 193
64 75
65 370
66 55
69 11
71 37
74 41
75 93
76 68
77 217
78 80
79 123
87 19
88 15
89 259
90 172
91 560
92 172
93 40
101 130
102 164
103 77
104 38
105 153
112 12
113 135
114 207
115 371
116 177
117 107
118 161
119 786
120 239
125 12
127 1
128 102
129 155
130 188
131 80
132 0
135 215
136 105
140 124
141 400
142 999
143 436
144 125
156 147
158 255
159 4
232 225
233 116
259 154
260 68
277 639
278 263
279 57

$$$$

     RDKit          2D

 21 23  0  0  0  0  0  0  0  0999 V2000
    5.2002    3.7498    0.0000 C   0  0  0  0  0  0  0  0  0  0  0  0
    6.4883    7.4996    0.0000 C   0  0  0  0  0  0  0  0  0  0  0  0
    5.1984    8.2498    0.0000 C   0  0  0  0  0  0  0  0  0  0  0  0
   -2.6000    0.7500    0.0000 C   0  0  0  0  0  0  0  0  0  0  0  0
   -2.6000   -0.7500    0.0000 C   0  0  0  0  0  0  0  0  0  0  0  0
    6.4881    5.9996    0.0000 C   0  0  0  0  0  0  0  0  0  0  0  0
    3.8983    7.5000    0.0000 C   0  0  0  0  0  0  0  0  0  0  0  0
   -1.3000    1.5000    0.0000 C   0  0  0  0  0  0  0  0  0  0  0  0
   -1.3000   -1.5000    0.0000 C   0  0  0  0  0  0  0  0  0  0  0  0
    2.6000    0.7500    0.0000 C   0  0  0  0  0  0  0  0  0  0  0  0
    2.6000   -0.7500    0.0000 C   0  0  0  0  0  0  0  0  0  0  0  0
    1.3000    3.0000    0.0000 C   0  0  0  0  0  0  0  0  0  0  0  0
    5.1980    5.2498    0.0000 C   0  0  0  0  0  0  0  0  0  0  0  0
    1.3000    1.5000    0.0000 C   0  0  0  0  0  0  0  0  0  0  0  0
    3.8981    6.0000    0.0000 C   0  0  0  0  0  0  0  0  0  0  0  0
   -0.0000    0.7500    0.0000 C   0  0  0  0  0  0  0  0  0  0  0  0
   -0.0000   -0.7500    0.0000 C   0  0  0  0  0  0  0  0  0  0  0  0
    2.5990    5.2500    0.0000 C   0  0  0  0  0  0  0  0  0  0  0  0
    1.3000   -1.5000    0.0000 N   0  0  0  0  0  0  0  0  0  0  0  0
    1.3000    6.0000    0.0000 O   0  0  0  0  0  0  0  0  0  0  0  0
    2.5990    3.7500    0.0000 O   0  0  0  0  0  0  0  0  0  0  0  0
  3  2  2  0
  5  4  2  0
  6  2  1  0
  7  3  1  0
  8  4  1  0
  9  5  1  0
 11 10  1  0
 13  1  1  0
 13  6  2  0
 14 10  2  0
 14 12  1  0
 15  7  2  0
 15 13  1  0
 16  8  2  0
 16 14  1  0
 17  9  2  0
 17 16  1  0
 18 15  1  0
 19 11  2  0
 19 17  1  0
 20 18  2  0
 21 12  1  0
 21 18  1  0
M  END
>  <NAME>  (443) 
4-QUINOLYLMETHYL 2-METHYLBENZOATE

>  <SYNONYMS>  (443) 


>  <SPECTRUM TYPE>  (443) 
MS1

>  <INSTRUMENT TYPE>  (443) 
EI-B

>  <INSTRUMENT>  (443) 
JEOL JMS-DX-300

>  <ION MODE>  (443) 
P

>  <INCHIKEY>  (443) 
WUEPOTIALDBBBY-UHFFFAOYSA-N

>  <FORMULA>  (443) 
C18H15NO2

>  <EXACT MASS>  (443) 
277.11027872000005

>  <MW>  (443) 
277

>  <ID>  (443) 
JP011464

>  <CONTRIBUTOR>  (443) 
University of Tokyo Team, {Faculty of Engineering, University of Tokyo

>  <COMMENT>  (443) 
SMILES=Cc(c3)c(ccc3)C(=O)OCc(c1)c(c2)c(ccc2)nc1
InChI=InChI=1S/C18H15NO2/c1-13-6-2-3-7-15(13)18(20)21-12-14-10-11-19-17-9-5-4-8-16(14)17/h2-11H,12H2,1H3
computed SMILES=O=C(OCC=1C=CN=C2C=CC=CC21)C=3C=CC=CC3C
accession=JP011464
date=2016.01.19 (Created 2008.10.21, modified 2011.05.06)
author=FUJISE Y, HAMAMATSU UNIV. SCHOOL OF MEDICINE
license=CC BY-NC-SA
exact mass=277.11028
ionization energy=70 eV
ion type=[M]+*
computed spectral entropy=3.16213548893919
computed normalized entropy=0.7855550848432052
SPLASH=splash10-016u-3930000000-2cd8a5ea356120927f41
submitter=submitter = University of Tokyo Team (Faculty of Engineering, University of Tokyo)
MoNA Rating=3.75

>  <NUM PEAKS>  (443) 
56

>  <MASS SPECTRAL PEAKS>  (443) 
39 6.68
41 2.84
50 1.69
51 4.68
52 1.46
62 1.39
63 5.25
64 2.03
65 18.03
66 1.36
75 3.07
76 1.89
77 8.57
78 3.84
79 5.02
88 1.34
89 11.28
90 7.43
91 47.11
92 4.5
101 4.57
102 2.88
103 1.63
105 3.88
113 1.3
114 4.07
115 34.19
116 8.05
118 5.28
119 99.99
120 10.78
128 4.66
129 3.62
130 4.42
135 27.37
136 5.37
140 4.15
141 2.85
142 43.47
143 35.52
144 4.39
156 1.59
158 1.74
217 1.61
218 1.29
230 1.05
231 1.37
232 9.59
233 1.84
259 8.12
260 1.35
263 1.2
276 2.34
277 73.7
278 15.68
279 1.71

>  <PREDICTED SPECTRUM>  (443) 
29 5
38 40
39 277
40 86
41 189
42 55
43 81
44 65
45 48
50 129
51 217
52 96
53 95
54 39
55 35
56 46
57 44
61 26
62 98
63 240
64 87
65 412
66 49
69 97
70 5
71 15
74 41
75 103
76 63
77 257
78 83
79 129
83 12
87 45
88 43
89 344
90 220
91 700
92 195
93 30
100 43
101 137
102 200
103 79
104 12
105 120
113 118
114 190
115 417
116 274
117 128
118 202
119 903
120 295
125 22
128 124
129 160
130 248
131 97
132 42
135 464
136 207
140 74
141 344
142 999
143 449
144 115
156 132
158 193
218 128
232 291
233 149
259 215
260 154
261 30
276 83
277 744
278 306
279 79

$$$$

     RDKit          2D

 21 23  0  0  0  0  0  0  0  0999 V2000
    6.4989   -1.5022    0.0000 C   0  0  0  0  0  0  0  0  0  0  0  0
   10.3902   -0.7422    0.0000 C   0  0  0  0  0  0  0  0  0  0  0  0
   -2.6000    0.7500    0.0000 C   0  0  0  0  0  0  0  0  0  0  0  0
   10.3947    0.7500    0.0000 C   0  0  0  0  0  0  0  0  0  0  0  0
   -2.6000   -0.7500    0.0000 C   0  0  0  0  0  0  0  0  0  0  0  0
    9.0912   -1.4922    0.0000 C   0  0  0  0  0  0  0  0  0  0  0  0
   -1.3000    1.5000    0.0000 C   0  0  0  0  0  0  0  0  0  0  0  0
    9.0952    1.5008    0.0000 C   0  0  0  0  0  0  0  0  0  0  0  0
   -1.3000   -1.5000    0.0000 C   0  0  0  0  0  0  0  0  0  0  0  0
    1.3000    1.5000    0.0000 C   0  0  0  0  0  0  0  0  0  0  0  0
    2.6000   -0.7500    0.0000 C   0  0  0  0  0  0  0  0  0  0  0  0
    3.8989    1.5002    0.0000 C   0  0  0  0  0  0  0  0  0  0  0  0
    7.7966   -0.7500    0.0000 C   0  0  0  0  0  0  0  0  0  0  0  0
    2.6000    0.7500    0.0000 C   0  0  0  0  0  0  0  0  0  0  0  0
   -0.0000    0.7500    0.0000 C   0  0  0  0  0  0  0  0  0  0  0  0
    7.7962    0.7508    0.0000 C   0  0  0  0  0  0  0  0  0  0  0  0
   -0.0000   -0.7500    0.0000 C   0  0  0  0  0  0  0  0  0  0  0  0
    6.4970    1.5006    0.0000 C   0  0  0  0  0  0  0  0  0  0  0  0
    1.3000   -1.5000    0.0000 N   0  0  0  0  0  0  0  0  0  0  0  0
    6.4968    3.0006    0.0000 O   0  0  0  0  0  0  0  0  0  0  0  0
    5.1981    0.7504    0.0000 O   0  0  0  0  0  0  0  0  0  0  0  0
  4  2  2  0
  5  3  2  0
  6  2  1  0
  7  3  1  0
  8  4  1  0
  9  5  1  0
 13  1  1  0
 13  6  2  0
 14 10  2  0
 14 11  1  0
 14 12  1  0
 15  7  2  0
 15 10  1  0
 16  8  2  0
 16 13  1  0
 17  9  2  0
 17 15  1  0
 18 16  1  0
 19 11  2  0
 19 17  1  0
 20 18  2  0
 21 12  1  0
 21 18  1  0
M  END
>  <NAME>  (444) 
3-QUINOLYLMETHYL 2-METHYLBENZOATE

>  <SYNONYMS>  (444) 


>  <SPECTRUM TYPE>  (444) 
MS1

>  <INSTRUMENT TYPE>  (444) 
EI-B

>  <INSTRUMENT>  (444) 
JEOL JMS-DX-300

>  <ION MODE>  (444) 
P

>  <INCHIKEY>  (444) 
KKFPCXIMNQALBG-UHFFFAOYSA-N

>  <FORMULA>  (444) 
C18H15NO2

>  <EXACT MASS>  (444) 
277.11027872

>  <MW>  (444) 
277

>  <ID>  (444) 
JP011463

>  <CONTRIBUTOR>  (444) 
University of Tokyo Team, {Faculty of Engineering, University of Tokyo

>  <COMMENT>  (444) 
SMILES=Cc(c3)c(ccc3)C(=O)OCc(c1)cc(c2)c(ccc2)n1
InChI=InChI=1S/C18H15NO2/c1-13-6-2-4-8-16(13)18(20)21-12-14-10-15-7-3-5-9-17(15)19-11-14/h2-11H,12H2,1H3
computed SMILES=O=C(OCC1=CN=C2C=CC=CC2=C1)C=3C=CC=CC3C
accession=JP011463
date=2016.01.19 (Created 2008.10.21, modified 2011.05.06)
author=FUJISE Y, HAMAMATSU UNIV. SCHOOL OF MEDICINE
license=CC BY-NC-SA
exact mass=277.11028
ionization energy=70 eV
ion type=[M]+*
computed spectral entropy=2.831452859955021
computed normalized entropy=0.7482322858707405
SPLASH=splash10-00mo-3940000000-1a07132b6d747567db13
submitter=submitter = University of Tokyo Team (Faculty of Engineering, University of Tokyo)
MoNA Rating=3.75

>  <NUM PEAKS>  (444) 
44

>  <MASS SPECTRAL PEAKS>  (444) 
39 4.25
41 1.64
51 2.37
63 5.16
64 1.26
65 14.1
75 1.62
77 4.93
79 2.97
88 1.28
89 9.43
90 4.91
91 27.95
92 2.64
101 2.8
102 1.13
103 1.14
105 1.15
113 1.65
114 3.98
115 33.16
116 6.75
118 2.28
119 49.21
120 4.52
128 4.1
129 1.18
130 2.5
135 5.77
136 1.66
140 5.07
141 7.14
142 99.99
144 1.3
156 2.41
158 5.98
218 1.42
228 12.32
229 1.44
232 47.88
233 3.09
259 2.11
276 1.49
277 59.46

>  <PREDICTED SPECTRUM>  (444) 
29 7
38 48
39 239
40 76
41 147
42 8
43 70
44 42
45 116
50 131
51 219
52 73
53 64
55 30
57 81
61 63
62 132
63 275
64 151
65 456
66 69
68 5
69 101
71 39
74 57
75 165
76 81
77 211
78 69
79 40
87 24
88 32
89 353
90 243
91 696
92 218
97 26
100 64
101 165
102 150
103 89
105 30
113 23
114 274
115 550
116 322
117 14
118 1
119 999
120 321
128 196
129 165
130 344
131 129
132 77
135 285
136 69
140 117
141 306
142 975
143 307
156 223
157 76
158 401
159 16
230 22
231 64
232 703
233 339
259 165
260 14
276 40
277 770
278 277
279 25

$$$$

     RDKit          2D

 17 18  0  0  0  0  0  0  0  0999 V2000
    4.8289   -1.7122    0.0000 C   0  0  0  0  0  0  0  0  0  0  0  0
    8.7202   -0.9522    0.0000 C   0  0  0  0  0  0  0  0  0  0  0  0
    8.7247    0.5400    0.0000 C   0  0  0  0  0  0  0  0  0  0  0  0
   -1.6700    0.5400    0.0000 C   0  0  0  0  0  0  0  0  0  0  0  0
    7.4212   -1.7022    0.0000 C   0  0  0  0  0  0  0  0  0  0  0  0
   -0.3700    1.2900    0.0000 C   0  0  0  0  0  0  0  0  0  0  0  0
    7.4252    1.2908    0.0000 C   0  0  0  0  0  0  0  0  0  0  0  0
   -1.6700   -0.9600    0.0000 C   0  0  0  0  0  0  0  0  0  0  0  0
    0.9300   -0.9600    0.0000 C   0  0  0  0  0  0  0  0  0  0  0  0
    2.2289    1.2902    0.0000 C   0  0  0  0  0  0  0  0  0  0  0  0
    6.1266   -0.9600    0.0000 C   0  0  0  0  0  0  0  0  0  0  0  0
    0.9300    0.5400    0.0000 C   0  0  0  0  0  0  0  0  0  0  0  0
    6.1262    0.5408    0.0000 C   0  0  0  0  0  0  0  0  0  0  0  0
    4.8270    1.2906    0.0000 C   0  0  0  0  0  0  0  0  0  0  0  0
   -0.3700   -1.7100    0.0000 N   0  0  0  0  0  0  0  0  0  0  0  0
    4.8268    2.7906    0.0000 O   0  0  0  0  0  0  0  0  0  0  0  0
    3.5281    0.5404    0.0000 O   0  0  0  0  0  0  0  0  0  0  0  0
  3  2  2  0
  5  2  1  0
  6  4  2  0
  7  3  1  0
  8  4  1  0
 11  1  1  0
 11  5  2  0
 12  6  1  0
 12  9  2  0
 12 10  1  0
 13  7  2  0
 13 11  1  0
 14 13  1  0
 15  8  2  0
 15  9  1  0
 16 14  2  0
 17 10  1  0
 17 14  1  0
M  END
>  <NAME>  (445) 
3-PYRIDYLMETHYL 2-METHYLBENZOATE

>  <SYNONYMS>  (445) 


>  <SPECTRUM TYPE>  (445) 
MS1

>  <INSTRUMENT TYPE>  (445) 
EI-B

>  <INSTRUMENT>  (445) 
JEOL JMS-DX-300

>  <ION MODE>  (445) 
P

>  <INCHIKEY>  (445) 
UKWSQGOFAPMMCG-UHFFFAOYSA-N

>  <FORMULA>  (445) 
C14H13NO2

>  <EXACT MASS>  (445) 
227.094628656

>  <MW>  (445) 
227

>  <ID>  (445) 
JP011462

>  <CONTRIBUTOR>  (445) 
University of Tokyo Team, {Faculty of Engineering, University of Tokyo

>  <COMMENT>  (445) 
SMILES=Cc(c2)c(ccc2)C(=O)OCc(c1)cncc1
InChI=InChI=1S/C14H13NO2/c1-11-5-2-3-7-13(11)14(16)17-10-12-6-4-8-15-9-12/h2-9H,10H2,1H3
computed SMILES=O=C(OCC=1C=NC=CC1)C=2C=CC=CC2C
accession=JP011462
date=2016.01.19 (Created 2008.10.21, modified 2011.05.06)
author=FUJISE Y, HAMAMATSU UNIV. SCHOOL OF MEDICINE
license=CC BY-NC-SA
exact mass=227.09463
ionization energy=70 eV
ion type=[M]+*
computed spectral entropy=3.264498312175823
computed normalized entropy=0.7849459209944086
SPLASH=splash10-00kf-9520000000-125e539344c895ef5e4b
submitter=submitter = University of Tokyo Team (Faculty of Engineering, University of Tokyo)
MoNA Rating=3.75

>  <NUM PEAKS>  (445) 
64

>  <MASS SPECTRAL PEAKS>  (445) 
38 4.01
39 34.6
40 2.17
41 5.87
43 3.48
44 2.12
45 4.15
50 5.19
51 12.37
52 6.22
53 7.16
54 1.08
55 2.26
56 1.01
57 3.02
60 2.11
62 2.47
63 15.41
64 8.83
65 77.38
66 5.34
67 1.15
69 2.31
71 1.31
75 1.03
76 1.01
77 11.45
78 8.09
79 11.36
80 7.86
81 1.66
83 1.31
85 1
89 13.56
90 21.24
91 76.24
92 95.14
93 57.03
94 3.81
105 3.54
106 11.57
107 3.11
108 12.35
109 6.78
118 47.27
119 69.54
120 6.3
133 1.44
135 67.95
137 2.5
149 1.21
167 2.16
168 2.75
180 1.67
181 1.19
182 45.56
183 7.9
209 4.25
210 1.1
212 1.02
226 7.17
227 99.99
228 15.78
229 1.47

>  <PREDICTED SPECTRUM>  (445) 
26 2
27 72
28 29
29 47
33 3
37 44
38 136
39 441
40 168
41 268
42 32
43 101
44 50
45 86
49 14
50 212
51 366
52 217
53 214
54 93
55 14
56 24
57 38
61 96
62 148
63 360
64 259
65 714
66 207
67 99
68 58
69 81
70 6
74 48
75 118
76 83
77 222
78 293
79 327
80 208
81 186
82 63
83 18
85 26
86 2
87 18
89 406
90 402
91 956
92 798
93 562
94 163
95 30
102 47
103 1
104 20
105 167
106 290
107 289
108 509
109 193
110 61
116 42
118 719
119 976
120 329
125 44
128 30
134 52
135 803
136 230
137 78
144 18
156 11
159 12
180 37
181 165
182 610
183 304
184 138
198 117
208 37
209 209
210 164
211 23
212 148
226 360
227 999
228 396
229 140

$$$$

     RDKit          2D

 17 18  0  0  0  0  0  0  0  0999 V2000
    4.8289   -1.7122    0.0000 C   0  0  0  0  0  0  0  0  0  0  0  0
    8.7202   -0.9522    0.0000 C   0  0  0  0  0  0  0  0  0  0  0  0
    8.7247    0.5400    0.0000 C   0  0  0  0  0  0  0  0  0  0  0  0
   -0.3700   -1.7100    0.0000 C   0  0  0  0  0  0  0  0  0  0  0  0
   -1.6700   -0.9600    0.0000 C   0  0  0  0  0  0  0  0  0  0  0  0
    7.4212   -1.7022    0.0000 C   0  0  0  0  0  0  0  0  0  0  0  0
    0.9300   -0.9600    0.0000 C   0  0  0  0  0  0  0  0  0  0  0  0
    7.4252    1.2908    0.0000 C   0  0  0  0  0  0  0  0  0  0  0  0
   -1.6700    0.5400    0.0000 C   0  0  0  0  0  0  0  0  0  0  0  0
    2.2289    1.2902    0.0000 C   0  0  0  0  0  0  0  0  0  0  0  0
    6.1266   -0.9600    0.0000 C   0  0  0  0  0  0  0  0  0  0  0  0
    0.9300    0.5400    0.0000 C   0  0  0  0  0  0  0  0  0  0  0  0
    6.1262    0.5408    0.0000 C   0  0  0  0  0  0  0  0  0  0  0  0
    4.8270    1.2906    0.0000 C   0  0  0  0  0  0  0  0  0  0  0  0
   -0.3700    1.2900    0.0000 N   0  0  0  0  0  0  0  0  0  0  0  0
    4.8268    2.7906    0.0000 O   0  0  0  0  0  0  0  0  0  0  0  0
    3.5281    0.5404    0.0000 O   0  0  0  0  0  0  0  0  0  0  0  0
  3  2  2  0
  5  4  2  0
  6  2  1  0
  7  4  1  0
  8  3  1  0
  9  5  1  0
 11  1  1  0
 11  6  2  0
 12  7  2  0
 12 10  1  0
 13  8  2  0
 13 11  1  0
 14 13  1  0
 15  9  2  0
 15 12  1  0
 16 14  2  0
 17 10  1  0
 17 14  1  0
M  END
>  <NAME>  (446) 
2-PYRIDYLMETHYL 2-METHYLBENZOATE

>  <SYNONYMS>  (446) 


>  <SPECTRUM TYPE>  (446) 
MS1

>  <INSTRUMENT TYPE>  (446) 
EI-B

>  <INSTRUMENT>  (446) 
JEOL JMS-DX-300

>  <ION MODE>  (446) 
P

>  <INCHIKEY>  (446) 
GBUUDAAJVDQGIY-UHFFFAOYSA-N

>  <FORMULA>  (446) 
C14H13NO2

>  <EXACT MASS>  (446) 
227.094628656

>  <MW>  (446) 
227

>  <ID>  (446) 
JP011461

>  <CONTRIBUTOR>  (446) 
University of Tokyo Team, {Faculty of Engineering, University of Tokyo

>  <COMMENT>  (446) 
SMILES=Cc(c2)c(ccc2)C(=O)OCc(c1)nccc1
InChI=InChI=1S/C14H13NO2/c1-11-6-2-3-8-13(11)14(16)17-10-12-7-4-5-9-15-12/h2-9H,10H2,1H3
computed SMILES=O=C(OCC1=NC=CC=C1)C=2C=CC=CC2C
accession=JP011461
date=2016.01.19 (Created 2008.10.21, modified 2011.05.06)
author=FUJISE Y, HAMAMATSU UNIV. SCHOOL OF MEDICINE
license=CC BY-NC-SA
exact mass=227.09463
ionization energy=70 eV
ion type=[M]+*
computed spectral entropy=3.3378296476054983
computed normalized entropy=0.8025783799887681
SPLASH=splash10-014l-9610000000-32a69a7055f56a2d3d3e
submitter=submitter = University of Tokyo Team (Faculty of Engineering, University of Tokyo)
MoNA Rating=3.75

>  <NUM PEAKS>  (446) 
64

>  <MASS SPECTRAL PEAKS>  (446) 
38 2.32
39 16.77
40 1.64
41 6.47
42 1.28
43 4.72
44 1.34
45 4.79
50 6
51 15.67
52 13.27
53 8.28
54 1.13
55 2.99
56 1.01
57 4.03
60 1.96
62 1.71
63 7.72
64 4.47
65 42.73
66 4.5
69 3.51
71 1.61
73 1.85
75 1.19
76 1.38
77 6.85
78 17.39
79 16.05
80 17.02
81 2.5
83 1.38
85 1.15
89 8.77
90 24.63
91 46.42
92 24.48
93 11.57
94 1.33
105 4.94
106 2.8
107 1.21
108 69.6
109 18.92
110 1.53
118 99.99
119 36.82
120 2.95
129 1.02
135 6.63
136 4.84
167 1.15
168 2.82
169 1.21
180 1.83
182 3.21
183 1.28
196 2.69
197 1.41
226 3.85
227 44.03
228 7.17
229 0.87

>  <PREDICTED SPECTRUM>  (446) 
26 26
27 71
28 32
29 39
31 3
33 0
36 1
37 49
38 106
39 376
40 155
41 296
42 88
43 91
44 97
45 78
49 48
50 230
51 356
52 262
53 190
54 76
55 30
56 6
57 5
60 2
61 99
62 153
63 310
64 206
65 580
66 200
67 114
68 49
69 78
74 78
75 109
76 123
77 236
78 409
79 388
80 203
81 121
82 51
83 16
84 9
85 32
86 50
87 54
88 3
89 323
90 355
91 745
92 511
93 339
94 41
102 51
103 5
104 90
105 205
106 259
107 221
108 999
109 415
110 152
115 11
116 75
118 737
119 600
120 97
135 243
136 163
137 26
139 8
166 15
168 107
169 8
180 5
182 181
183 49
184 41
197 16
198 14
199 12
200 4
209 8
210 41
212 102
226 236
227 732
228 250
229 73

$$$$

     RDKit          2D

 20 21  0  0  0  0  0  0  0  0999 V2000
   -0.3325    2.4400    0.0000 C   0  0  0  0  0  0  0  0  0  0  0  0
   -1.6200   -1.3100    0.0000 C   0  0  0  0  0  0  0  0  0  0  0  0
   -0.3300   -2.0600    0.0000 C   0  0  0  0  0  0  0  0  0  0  0  0
   -1.6200    0.1900    0.0000 C   0  0  0  0  0  0  0  0  0  0  0  0
    0.9700   -1.3100    0.0000 C   0  0  0  0  0  0  0  0  0  0  0  0
    6.1666   -1.3092    0.0000 C   0  0  0  0  0  0  0  0  0  0  0  0
    7.4659    0.9412    0.0000 C   0  0  0  0  0  0  0  0  0  0  0  0
    7.4669   -2.0588    0.0000 C   0  0  0  0  0  0  0  0  0  0  0  0
    8.7662    0.1917    0.0000 C   0  0  0  0  0  0  0  0  0  0  0  0
    4.8670    0.9406    0.0000 C   0  0  0  0  0  0  0  0  0  0  0  0
   -0.3300    0.9400    0.0000 C   0  0  0  0  0  0  0  0  0  0  0  0
    6.1662    0.1908    0.0000 C   0  0  0  0  0  0  0  0  0  0  0  0
    8.7666   -1.3083    0.0000 C   0  0  0  0  0  0  0  0  0  0  0  0
    0.9700    0.1900    0.0000 C   0  0  0  0  0  0  0  0  0  0  0  0
    2.2689    0.9402    0.0000 C   0  0  0  0  0  0  0  0  0  0  0  0
   10.0658   -2.0581    0.0000 N   0  0  0  0  0  0  0  0  0  0  0  0
    2.2687    2.4402    0.0000 O   0  0  0  0  0  0  0  0  0  0  0  0
   11.3647   -1.3079    0.0000 O   0  0  0  0  0  0  0  0  0  0  0  0
   10.0660   -3.5581    0.0000 O   0  0  0  0  0  0  0  0  0  0  0  0
    3.5681    0.1904    0.0000 O   0  0  0  0  0  0  0  0  0  0  0  0
  3  2  2  0
  4  2  1  0
  5  3  1  0
  8  6  2  0
  9  7  1  0
 11  1  1  0
 11  4  2  0
 12  6  1  0
 12  7  2  0
 12 10  1  0
 13  8  1  0
 13  9  2  0
 14  5  2  0
 14 11  1  0
 15 14  1  0
 16 13  1  0
 17 15  2  0
 18 16  1  0
 19 16  2  0
 20 10  1  0
 20 15  1  0
M  CHG  2  16   1  18  -1
M  END
>  <NAME>  (447) 
4 NITROBENZYL 2-METHYLBENZOATE

>  <SYNONYMS>  (447) 


>  <SPECTRUM TYPE>  (447) 
MS1

>  <INSTRUMENT TYPE>  (447) 
EI-B

>  <INSTRUMENT>  (447) 
JEOL JMS-DX-300

>  <ION MODE>  (447) 
P

>  <INCHIKEY>  (447) 
XCRHOGKPDBYWJW-UHFFFAOYSA-N

>  <FORMULA>  (447) 
C15H13NO4

>  <EXACT MASS>  (447) 
271.084457896

>  <MW>  (447) 
271

>  <ID>  (447) 
JP011460

>  <CONTRIBUTOR>  (447) 
University of Tokyo Team, {Faculty of Engineering, University of Tokyo

>  <COMMENT>  (447) 
SMILES=[O-1][N+1](=O)c(c1)ccc(COC(=O)c(c2)c(C)ccc2)c1
InChI=InChI=1S/C15H13NO4/c1-11-4-2-3-5-14(11)15(17)20-10-12-6-8-13(9-7-12)16(18)19/h2-9H,10H2,1H3
computed SMILES=O=C(OCC1=CC=C(C=C1)N(=O)=O)C=2C=CC=CC2C
accession=JP011460
date=2016.01.19 (Created 2008.10.21, modified 2011.05.06)
author=FUJISE Y, HAMAMATSU UNIV. SCHOOL OF MEDICINE
license=CC BY-NC-SA
exact mass=271.08446
ionization energy=70 eV
ion type=[M]+*
computed spectral entropy=3.030806464068801
computed normalized entropy=0.8058083512820275
SPLASH=splash10-00ku-8910000000-2e35fd7e3114dca563a1
submitter=submitter = University of Tokyo Team (Faculty of Engineering, University of Tokyo)
MoNA Rating=3.75

>  <NUM PEAKS>  (447) 
43

>  <MASS SPECTRAL PEAKS>  (447) 
39 8.32
40 1.18
41 2.36
45 1.12
50 2.77
51 7.17
52 3.19
53 1.01
62 1.5
63 9.71
64 5.27
65 23.08
66 1.61
75 1.37
76 2.58
77 11.97
78 21.22
79 11.71
89 28.88
90 28.65
91 53.6
92 5.12
105 2.92
106 6.05
107 5.74
118 5.11
119 53.83
120 7.29
121 1.02
133 15.09
134 1.36
135 99.99
136 21.25
137 13.67
165 1.13
180 0.99
210 1.14
226 1.33
253 11.49
254 10.05
255 1.67
271 22.38
272 3.3

>  <PREDICTED SPECTRUM>  (447) 
26 15
27 18
36 0
37 27
38 100
39 303
40 131
41 171
43 86
44 104
45 56
46 7
49 51
50 189
51 298
52 188
53 170
54 51
55 91
56 20
57 4
61 45
62 162
63 372
64 227
65 400
66 89
67 64
74 73
75 112
76 131
77 367
78 313
79 305
80 51
81 102
82 39
83 53
88 0
89 587
90 535
91 797
92 240
93 100
94 33
102 69
104 11
105 174
106 200
107 259
108 128
109 96
117 6
118 279
119 999
120 283
121 59
125 89
126 34
128 40
133 286
134 102
135 904
136 619
137 344
152 152
153 88
181 2
224 36
226 166
253 324
254 217
255 130
256 7
271 545
272 196
273 45

$$$$

     RDKit          2D

 20 21  0  0  0  0  0  0  0  0999 V2000
   -0.3325    2.4400    0.0000 C   0  0  0  0  0  0  0  0  0  0  0  0
   -1.6200   -1.3100    0.0000 C   0  0  0  0  0  0  0  0  0  0  0  0
   -0.3300   -2.0600    0.0000 C   0  0  0  0  0  0  0  0  0  0  0  0
    7.4663   -2.0533    0.0000 C   0  0  0  0  0  0  0  0  0  0  0  0
   -1.6200    0.1900    0.0000 C   0  0  0  0  0  0  0  0  0  0  0  0
    6.1684   -1.3013    0.0000 C   0  0  0  0  0  0  0  0  0  0  0  0
    8.7620   -1.3131    0.0000 C   0  0  0  0  0  0  0  0  0  0  0  0
    0.9700   -1.3100    0.0000 C   0  0  0  0  0  0  0  0  0  0  0  0
    7.4668    0.9397    0.0000 C   0  0  0  0  0  0  0  0  0  0  0  0
    4.8670    0.9406    0.0000 C   0  0  0  0  0  0  0  0  0  0  0  0
   -0.3300    0.9400    0.0000 C   0  0  0  0  0  0  0  0  0  0  0  0
    6.1662    0.1908    0.0000 C   0  0  0  0  0  0  0  0  0  0  0  0
    8.7647    0.1877    0.0000 C   0  0  0  0  0  0  0  0  0  0  0  0
    0.9700    0.1900    0.0000 C   0  0  0  0  0  0  0  0  0  0  0  0
    2.2689    0.9402    0.0000 C   0  0  0  0  0  0  0  0  0  0  0  0
   10.0650    0.9356    0.0000 N   0  0  0  0  0  0  0  0  0  0  0  0
    2.2687    2.4402    0.0000 O   0  0  0  0  0  0  0  0  0  0  0  0
   11.3628    0.1834    0.0000 O   0  0  0  0  0  0  0  0  0  0  0  0
   10.0675    2.4356    0.0000 O   0  0  0  0  0  0  0  0  0  0  0  0
    3.5681    0.1904    0.0000 O   0  0  0  0  0  0  0  0  0  0  0  0
  3  2  2  0
  5  2  1  0
  6  4  2  0
  7  4  1  0
  8  3  1  0
 11  1  1  0
 11  5  2  0
 12  6  1  0
 12  9  2  0
 12 10  1  0
 13  7  2  0
 13  9  1  0
 14  8  2  0
 14 11  1  0
 15 14  1  0
 16 13  1  0
 17 15  2  0
 18 16  1  0
 19 16  2  0
 20 10  1  0
 20 15  1  0
M  CHG  2  16   1  18  -1
M  END
>  <NAME>  (448) 
3-NITROBENZYL 2-METHYLBENZOATE

>  <SYNONYMS>  (448) 


>  <SPECTRUM TYPE>  (448) 
MS1

>  <INSTRUMENT TYPE>  (448) 
EI-B

>  <INSTRUMENT>  (448) 
JEOL JMS-DX-300

>  <ION MODE>  (448) 
P

>  <INCHIKEY>  (448) 
TUTITNMJRNVZEO-UHFFFAOYSA-N

>  <FORMULA>  (448) 
C15H13NO4

>  <EXACT MASS>  (448) 
271.084457896

>  <MW>  (448) 
271

>  <ID>  (448) 
JP011459

>  <CONTRIBUTOR>  (448) 
University of Tokyo Team, {Faculty of Engineering, University of Tokyo

>  <COMMENT>  (448) 
SMILES=[O-1][N+1](=O)c(c2)cc(cc2)COC(=O)c(c1)c(C)ccc1
InChI=InChI=1S/C15H13NO4/c1-11-5-2-3-8-14(11)15(17)20-10-12-6-4-7-13(9-12)16(18)19/h2-9H,10H2,1H3
computed SMILES=O=C(OCC=1C=CC=C(C1)N(=O)=O)C=2C=CC=CC2C
accession=JP011459
date=2016.01.19 (Created 2008.10.21, modified 2011.05.06)
author=FUJISE Y, HAMAMATSU UNIV. SCHOOL OF MEDICINE
license=CC BY-NC-SA
exact mass=271.08446
ionization energy=70 eV
ion type=[M]+*
computed spectral entropy=3.056660292328499
computed normalized entropy=0.7774150173110722
SPLASH=splash10-000l-9820000000-946ee7c95b36776d6f9c
submitter=submitter = University of Tokyo Team (Faculty of Engineering, University of Tokyo)
MoNA Rating=3.75

>  <NUM PEAKS>  (448) 
51

>  <MASS SPECTRAL PEAKS>  (448) 
39 9.52
40 1.2
41 1.92
44 1.26
50 2.78
51 7.04
52 2.6
53 1.2
62 1.67
63 10.72
64 5.74
65 23.52
66 1.7
75 1.69
76 3.32
77 13.14
78 7.19
79 12.71
89 33.03
90 45.49
91 62.53
92 5.78
105 3.77
106 1.19
107 2.29
118 7.36
119 57.94
120 7.07
133 15.6
134 1.56
135 99.99
136 37.73
137 3.89
152 0.99
165 1.83
178 1.35
179 1.62
192 1.73
206 1.47
208 1.26
209 1.03
223 2.56
224 2.26
225 1.35
226 1.17
236 3.99
253 17.57
254 6.58
255 1.01
271 21.9
272 3.63

>  <PREDICTED SPECTRUM>  (448) 
26 19
27 10
36 15
37 33
38 105
39 282
40 127
41 145
42 28
43 70
44 78
45 77
46 7
49 47
50 199
51 308
52 168
53 148
54 56
55 85
56 36
57 39
61 53
62 155
63 347
64 203
65 395
66 68
67 41
74 89
75 91
76 147
77 375
78 222
79 237
80 21
81 68
82 49
83 65
86 18
87 3
88 5
89 505
90 485
91 716
92 266
93 105
94 25
101 7
102 43
104 17
105 230
106 138
107 182
108 102
109 60
116 5
117 56
118 447
119 753
120 226
121 19
125 12
130 38
131 46
133 289
134 80
135 999
136 559
137 273
138 20
152 104
153 32
181 4
224 45
225 35
226 194
253 289
254 227
255 74
271 330
272 110
273 20

$$$$

     RDKit          2D

 18 19  0  0  0  0  0  0  0  0999 V2000
   -0.3325    2.4400    0.0000 C   0  0  0  0  0  0  0  0  0  0  0  0
   -1.6200   -1.3100    0.0000 C   0  0  0  0  0  0  0  0  0  0  0  0
   -0.3300   -2.0600    0.0000 C   0  0  0  0  0  0  0  0  0  0  0  0
    8.7734    0.1875    0.0000 C   0  0  0  0  0  0  0  0  0  0  0  0
   -1.6200    0.1900    0.0000 C   0  0  0  0  0  0  0  0  0  0  0  0
    7.4674    0.9371    0.0000 C   0  0  0  0  0  0  0  0  0  0  0  0
    8.7608   -1.3184    0.0000 C   0  0  0  0  0  0  0  0  0  0  0  0
    0.9700   -1.3100    0.0000 C   0  0  0  0  0  0  0  0  0  0  0  0
    6.1710   -1.3050    0.0000 C   0  0  0  0  0  0  0  0  0  0  0  0
    4.8670    0.9406    0.0000 C   0  0  0  0  0  0  0  0  0  0  0  0
   -0.3300    0.9400    0.0000 C   0  0  0  0  0  0  0  0  0  0  0  0
    6.1662    0.1908    0.0000 C   0  0  0  0  0  0  0  0  0  0  0  0
    7.4596   -2.0646    0.0000 C   0  0  0  0  0  0  0  0  0  0  0  0
    0.9700    0.1900    0.0000 C   0  0  0  0  0  0  0  0  0  0  0  0
    2.2689    0.9402    0.0000 C   0  0  0  0  0  0  0  0  0  0  0  0
    7.4507   -3.5646    0.0000 Cl  0  0  0  0  0  0  0  0  0  0  0  0
    2.2687    2.4402    0.0000 O   0  0  0  0  0  0  0  0  0  0  0  0
    3.5681    0.1904    0.0000 O   0  0  0  0  0  0  0  0  0  0  0  0
  3  2  2  0
  5  2  1  0
  6  4  2  0
  7  4  1  0
  8  3  1  0
 11  1  1  0
 11  5  2  0
 12  6  1  0
 12  9  2  0
 12 10  1  0
 13  7  2  0
 13  9  1  0
 14  8  2  0
 14 11  1  0
 15 14  1  0
 16 13  1  0
 17 15  2  0
 18 10  1  0
 18 15  1  0
M  END
>  <NAME>  (449) 
3-CHLOROBENZYL 2-METHYLBENZOATE

>  <SYNONYMS>  (449) 


>  <SPECTRUM TYPE>  (449) 
MS1

>  <INSTRUMENT TYPE>  (449) 
EI-B

>  <INSTRUMENT>  (449) 
JEOL JMS-DX-300

>  <ION MODE>  (449) 
P

>  <INCHIKEY>  (449) 
JDSAPFZIJUADTD-UHFFFAOYSA-N

>  <FORMULA>  (449) 
C15H13ClO2

>  <EXACT MASS>  (449) 
260.06040733599997

>  <MW>  (449) 
260

>  <ID>  (449) 
JP011458

>  <CONTRIBUTOR>  (449) 
University of Tokyo Team, {Faculty of Engineering, University of Tokyo

>  <COMMENT>  (449) 
SMILES=Clc(c2)cc(cc2)COC(=O)c(c1)c(C)ccc1
InChI=InChI=1S/C15H13ClO2/c1-11-5-2-3-8-14(11)15(17)18-10-12-6-4-7-13(16)9-12/h2-9H,10H2,1H3
computed SMILES=O=C(OCC=1C=CC=C(Cl)C1)C=2C=CC=CC2C
accession=JP011458
date=2016.01.19 (Created 2008.10.21, modified 2011.05.06)
author=FUJISE Y, HAMAMATSU UNIV. SCHOOL OF MEDICINE
license=CC BY-NC-SA
exact mass=260.06041
ionization energy=70 eV
ion type=[M]+*
computed spectral entropy=3.6511893851702473
computed normalized entropy=0.8240443130312696
SPLASH=splash10-014u-7920000000-dabd8f440ab924ec0f34
submitter=submitter = University of Tokyo Team (Faculty of Engineering, University of Tokyo)
MoNA Rating=3.75

>  <NUM PEAKS>  (449) 
84

>  <MASS SPECTRAL PEAKS>  (449) 
38 3.29
39 17.77
40 1.72
41 5.66
43 2.37
44 1.77
45 4.59
50 11.53
51 15.63
52 3.12
53 2.12
55 1.69
57 2.38
59 1.31
60 1.36
61 1.43
62 4.83
63 19.17
64 5.93
65 36.93
66 2.3
69 1.04
73 3.24
74 5.34
75 2.32
76 4.8
77 29.03
78 3.88
79 15.09
80 1.04
85 1.77
86 1
87 1.08
89 39.43
90 36.19
91 74.75
92 7.99
99 7.79
101 2.3
105 4.58
107 8.9
111 13.28
112 2.29
113 5.76
114 1.17
115 1.11
118 34.47
119 99.99
120 9.24
125 84.02
126 7.03
127 27.18
128 2.6
133 1.93
134 1.39
135 73.33
136 34.02
137 2.92
139 17.05
140 8.92
141 8.34
142 8.24
143 1.09
144 1.95
149 2.2
156 8.3
158 2.68
166 1.65
167 1.42
179 1.29
181 1.16
207 15.31
208 4.12
215 2.28
225 23.63
226 4.12
242 22.46
243 3.69
244 8.05
245 2.35
260 36.09
261 5.43
262 12.01
263 1.61

>  <PREDICTED SPECTRUM>  (449) 
26 46
27 47
28 19
33 11
34 4
36 9
37 49
38 137
39 333
40 138
41 188
42 10
43 61
44 94
45 90
49 13
50 212
51 319
52 174
53 166
54 77
55 45
56 36
57 8
61 110
62 187
63 387
64 230
65 446
66 60
68 16
69 54
70 39
73 59
74 95
75 220
76 130
77 306
78 163
79 194
80 80
81 92
82 91
83 61
84 76
85 64
86 83
87 22
88 36
89 552
90 505
91 677
92 215
93 32
95 21
96 59
97 117
98 13
99 239
100 30
101 195
102 98
103 43
104 48
105 161
106 68
107 129
108 63
111 126
112 64
113 194
114 90
115 100
116 35
118 473
119 999
120 341
121 174
122 59
123 38
124 97
125 828
126 262
127 554
128 117
134 46
135 671
136 429
137 114
138 23
139 360
140 171
141 266
142 156
143 58
149 13
151 37
178 52
179 142
181 40
182 48
195 0
197 17
207 278
215 224
216 39
225 262
226 155
241 111
242 525
243 204
244 246
245 134
246 33
260 504
261 205
262 245
263 95

$$$$

     RDKit          2D

 18 19  0  0  0  0  0  0  0  0999 V2000
   -0.3325    2.4400    0.0000 C   0  0  0  0  0  0  0  0  0  0  0  0
   -1.6200   -1.3100    0.0000 C   0  0  0  0  0  0  0  0  0  0  0  0
   -0.3300   -2.0600    0.0000 C   0  0  0  0  0  0  0  0  0  0  0  0
   -1.6200    0.1900    0.0000 C   0  0  0  0  0  0  0  0  0  0  0  0
    0.9700   -1.3100    0.0000 C   0  0  0  0  0  0  0  0  0  0  0  0
    6.1685   -1.2927    0.0000 C   0  0  0  0  0  0  0  0  0  0  0  0
    7.4743    0.9440    0.0000 C   0  0  0  0  0  0  0  0  0  0  0  0
    7.4638   -2.0490    0.0000 C   0  0  0  0  0  0  0  0  0  0  0  0
    8.7697    0.1877    0.0000 C   0  0  0  0  0  0  0  0  0  0  0  0
    4.8670    0.9406    0.0000 C   0  0  0  0  0  0  0  0  0  0  0  0
   -0.3300    0.9400    0.0000 C   0  0  0  0  0  0  0  0  0  0  0  0
    6.1662    0.1908    0.0000 C   0  0  0  0  0  0  0  0  0  0  0  0
    8.7655   -1.3268    0.0000 C   0  0  0  0  0  0  0  0  0  0  0  0
    0.9700    0.1900    0.0000 C   0  0  0  0  0  0  0  0  0  0  0  0
    2.2689    0.9402    0.0000 C   0  0  0  0  0  0  0  0  0  0  0  0
   10.0571   -2.0897    0.0000 Cl  0  0  0  0  0  0  0  0  0  0  0  0
    2.2687    2.4402    0.0000 O   0  0  0  0  0  0  0  0  0  0  0  0
    3.5681    0.1904    0.0000 O   0  0  0  0  0  0  0  0  0  0  0  0
  3  2  2  0
  4  2  1  0
  5  3  1  0
  8  6  2  0
  9  7  1  0
 11  1  1  0
 11  4  2  0
 12  6  1  0
 12  7  2  0
 12 10  1  0
 13  8  1  0
 13  9  2  0
 14  5  2  0
 14 11  1  0
 15 14  1  0
 16 13  1  0
 17 15  2  0
 18 10  1  0
 18 15  1  0
M  END
>  <NAME>  (450) 
4-CHLOROBENZYL 2-METHYLBENZOATE

>  <SYNONYMS>  (450) 


>  <SPECTRUM TYPE>  (450) 
MS1

>  <INSTRUMENT TYPE>  (450) 
EI-B

>  <INSTRUMENT>  (450) 
JEOL JMS-DX-300

>  <ION MODE>  (450) 
P

>  <INCHIKEY>  (450) 
DACJFLLVIFTDCX-UHFFFAOYSA-N

>  <FORMULA>  (450) 
C15H13ClO2

>  <EXACT MASS>  (450) 
260.060407336

>  <MW>  (450) 
260

>  <ID>  (450) 
JP011457

>  <CONTRIBUTOR>  (450) 
University of Tokyo Team, {Faculty of Engineering, University of Tokyo

>  <COMMENT>  (450) 
SMILES=Clc(c2)ccc(c2)COC(=O)c(c1)c(C)ccc1
InChI=InChI=1S/C15H13ClO2/c1-11-4-2-3-5-14(11)15(17)18-10-12-6-8-13(16)9-7-12/h2-9H,10H2,1H3
computed SMILES=O=C(OCC1=CC=C(Cl)C=C1)C=2C=CC=CC2C
accession=JP011457
date=2016.01.19 (Created 2008.10.21, modified 2011.05.06)
author=FUJISE Y, HAMAMATSU UNIV. SCHOOL OF MEDICINE
license=CC BY-NC-SA
exact mass=260.06041
ionization energy=70 eV
ion type=[M]+*
computed spectral entropy=3.122273220151075
computed normalized entropy=0.7941026667522081
SPLASH=splash10-00or-7920000000-62b7fd15a74ee3cc9e55
submitter=submitter = University of Tokyo Team (Faculty of Engineering, University of Tokyo)
MoNA Rating=3.75

>  <NUM PEAKS>  (450) 
51

>  <MASS SPECTRAL PEAKS>  (450) 
38 1.04
39 11.9
41 2.42
50 2.76
51 6.93
52 1.77
62 2.08
63 13.53
64 3.65
65 28.75
66 1.4
73 1.49
75 4.54
76 1.77
77 12.71
78 1.79
79 4.98
89 32.36
90 16.34
91 41.36
92 3.78
99 5.68
101 1.79
105 1.6
111 3.58
113 1.77
118 3.55
119 51.9
120 4.74
124 1.51
125 99.99
126 10.75
127 44.03
128 3.47
135 15.76
136 1.68
139 2.33
141 2.61
148 1.16
165 1.02
207 8.91
208 1.41
215 1.9
242 11.82
243 1.88
244 3.62
245 1.61
260 29.43
261 4.28
262 9.82
263 1.81

>  <PREDICTED SPECTRUM>  (450) 
26 52
27 96
28 45
29 46
33 7
34 5
35 13
36 38
37 53
38 132
39 312
40 136
41 128
43 30
44 119
45 48
49 33
50 211
51 299
52 155
53 130
54 44
55 22
56 19
61 85
62 167
63 342
64 193
65 342
66 84
67 4
68 14
69 37
70 9
73 29
74 110
75 223
76 139
77 299
78 143
79 126
80 24
81 61
82 29
83 16
84 37
86 61
88 12
89 518
90 442
91 449
92 170
93 96
94 32
95 21
96 18
97 63
98 2
99 213
101 105
102 36
103 10
104 43
105 88
107 33
111 86
112 15
113 169
114 28
115 70
116 45
118 200
119 707
120 244
121 118
122 47
124 121
125 999
126 308
127 609
128 121
135 350
136 199
137 17
139 269
140 17
141 180
142 69
143 2
178 14
179 79
207 210
215 173
225 115
226 56
241 24
242 308
243 99
244 194
245 78
246 18
260 452
261 178
262 206
263 66

$$$$

     RDKit          2D

 11 11  0  0  0  0  0  0  0  0999 V2000
   -8.1696    4.1302    0.0000 C   0  0  0  0  0  0  0  0  0  0  0  0
   -6.8706    4.8802    0.0000 C   0  0  0  0  0  0  0  0  0  0  0  0
   -5.5716    4.1302    0.0000 C   0  0  0  0  0  0  0  0  0  0  0  0
   -4.2725    4.8802    0.0000 C   0  0  0  0  0  0  0  0  0  0  0  0
   -2.9735    4.1302    0.0000 C   0  0  0  0  0  0  0  0  0  0  0  0
   -1.6745    4.8802    0.0000 C   0  0  0  0  0  0  0  0  0  0  0  0
   -0.3754    4.1302    0.0000 C   0  0  0  0  0  0  0  0  0  0  0  0
    0.9236    4.8802    0.0000 C   0  0  0  0  0  0  0  0  0  0  0  0
    3.7235    4.1298    0.0000 C   0  0  0  0  0  0  0  0  0  0  0  0
    2.2227    4.1302    0.0000 C   0  0  0  0  0  0  0  0  0  0  0  0
    2.9735    2.8307    0.0000 O   0  0  0  0  0  0  0  0  0  0  0  0
  2  1  1  0
  3  2  1  0
  4  3  1  0
  5  4  1  0
  6  5  1  0
  7  6  1  0
  8  7  1  0
 10  8  1  0
 10  9  1  0
 11  9  1  0
 11 10  1  0
M  END
>  <NAME>  (451) 
1,2-EPOXY-DECANE

>  <SYNONYMS>  (451) 


>  <SPECTRUM TYPE>  (451) 
MS1

>  <INSTRUMENT TYPE>  (451) 
EI-B

>  <INSTRUMENT>  (451) 
JEOL JMS-DX-300

>  <ION MODE>  (451) 
P

>  <INCHIKEY>  (451) 
AAMHBRRZYSORSH-UHFFFAOYSA-N

>  <FORMULA>  (451) 
C10H20O

>  <EXACT MASS>  (451) 
156.15141526

>  <MW>  (451) 
156

>  <ID>  (451) 
JP011456

>  <CONTRIBUTOR>  (451) 
University of Tokyo Team, {Faculty of Engineering, University of Tokyo

>  <COMMENT>  (451) 
SMILES=CCCCCCCCC(C1)O1
InChI=InChI=1S/C10H20O/c1-2-3-4-5-6-7-8-10-9-11-10/h10H,2-9H2,1H3
computed SMILES=O1CC1CCCCCCCC
accession=JP011456
date=2016.01.19 (Created 2008.10.21, modified 2011.05.06)
author=FUJISE Y, HAMAMATSU UNIV. SCHOOL OF MEDICINE
license=CC BY-NC-SA
exact mass=156.15142
ionization energy=70 eV
ion type=[M]+*
computed spectral entropy=3.3967580045705543
computed normalized entropy=0.84763553404744
SPLASH=splash10-05mo-9000000000-5e1c4c3a53a6576e983b
submitter=submitter = University of Tokyo Team (Faculty of Engineering, University of Tokyo)
MoNA Rating=3.75

>  <NUM PEAKS>  (451) 
55

>  <MASS SPECTRAL PEAKS>  (451) 
38 1.88
39 60.31
40 12.97
41 93.64
42 68.61
43 92.97
44 10.61
45 18.39
51 2.59
52 1.62
53 18.6
54 44.99
55 91.9
56 80.05
57 67.68
58 80.46
59 18.35
65 2.68
66 8.5
67 60.91
68 78.04
69 75.67
70 46.17
71 99.99
72 14.83
73 1.76
77 1.86
79 4.73
80 2.98
81 56.13
82 76.52
83 38.95
84 13.11
85 29.94
86 2.7
94 2.02
95 48.95
96 41.12
97 17.31
98 13.74
99 7.26
100 1.37
109 11.04
110 7.85
111 1.5
113 12.95
114 1.14
124 6.45
125 1.33
126 1.82
127 5.19
128 1.02
155 0.41
156 0.4
157 0.65

>  <PREDICTED SPECTRUM>  (451) 
14 25
15 113
16 16
17 25
18 59
19 14
25 25
26 167
27 599
28 345
29 704
30 162
31 339
32 87
33 24
37 46
38 99
39 573
40 263
41 999
42 610
43 906
44 453
45 366
46 42
47 27
50 62
51 155
52 142
53 374
54 475
55 831
56 646
57 755
58 503
59 348
60 79
61 54
63 30
65 179
66 203
67 583
68 594
69 656
70 572
71 664
72 339
73 188
74 62
77 22
78 50
79 174
80 213
81 556
82 548
83 507
84 432
85 425
86 235
87 43
91 45
93 4
94 85
95 456
96 428
97 349
98 227
99 317
100 195
101 91
109 262
110 215
111 154
112 150
113 257
114 82
123 78
124 123
125 91
126 6
127 137
128 60
138 178
139 13
140 29
141 86
156 52

$$$$

     RDKit          2D

 29 29  0  0  1  0  0  0  0  0999 V2000
   -3.9076    4.0204    0.0000 C   0  0  0  0  0  0  0  0  0  0  0  0
   -3.1574    5.3193    0.0000 H   0  0  0  0  0  0  0  0  0  0  0  0
   -5.2065    4.7706    0.0000 H   0  0  0  0  0  0  0  0  0  0  0  0
   -4.6578    2.7215    0.0000 H   0  0  0  0  0  0  0  0  0  0  0  0
   -2.6151   -2.7165    0.0000 C   0  0  0  0  0  0  0  0  0  0  0  0
   -4.1151   -2.7124    0.0000 H   0  0  0  0  0  0  0  0  0  0  0  0
   -2.6192   -4.2165    0.0000 H   0  0  0  0  0  0  0  0  0  0  0  0
   -1.1151   -2.7205    0.0000 H   0  0  0  0  0  0  0  0  0  0  0  0
    1.2816   -3.4843    0.0000 C   0  0  0  0  0  0  0  0  0  0  0  0
    0.5273   -4.7808    0.0000 H   0  0  0  0  0  0  0  0  0  0  0  0
    2.5781   -4.2386    0.0000 H   0  0  0  0  0  0  0  0  0  0  0  0
    2.0359   -2.1877    0.0000 H   0  0  0  0  0  0  0  0  0  0  0  0
    3.9081   -0.4716    0.0000 C   0  0  0  0  0  0  0  0  0  0  0  0
    4.6573   -1.7710    0.0000 H   0  0  0  0  0  0  0  0  0  0  0  0
    5.2076    0.2777    0.0000 H   0  0  0  0  0  0  0  0  0  0  0  0
    3.1589    0.8279    0.0000 H   0  0  0  0  0  0  0  0  0  0  0  0
    2.6013    3.2745    0.0000 C   0  0  0  0  0  0  0  0  0  0  0  0
   -2.6089    1.7702    0.0000 C   0  0  0  0  0  0  0  0  0  0  0  0
   -1.3100    1.0200    0.0000 C   0  0  0  0  0  0  0  0  0  0  0  0
   -1.3100   -0.4700    0.0000 C   0  0  0  0  0  0  0  0  0  0  0  0
   -0.0100   -1.2300    0.0000 C   0  0  0  0  0  0  0  0  0  0  0  0
    1.3100   -0.4700    0.0000 C   0  0  0  0  0  0  0  0  0  0  0  0
    1.3100    1.0200    0.0000 C   0  0  0  0  0  0  0  0  0  0  0  0
   -2.6087    3.2702    0.0000 O   0  0  0  0  0  0  0  0  0  0  0  0
   -2.6111   -1.2165    0.0000 O   0  0  0  0  0  0  0  0  0  0  0  0
   -0.0150   -2.7300    0.0000 O   0  0  0  0  0  0  0  0  0  0  0  0
    2.6086   -1.2208    0.0000 O   0  0  0  0  0  0  0  0  0  0  0  0
    2.6064    1.7745    0.0000 O   0  0  0  0  0  0  0  0  0  0  0  0
   -0.0100    1.7700    0.0000 O   0  0  0  0  0  0  0  0  0  0  0  0
  1  2  1  0
  1  3  1  0
  1  4  1  0
  5  6  1  0
  5  7  1  0
  5  8  1  0
  9 10  1  0
  9 11  1  0
  9 12  1  0
 13 14  1  0
 13 15  1  0
 13 16  1  0
 19 18  1  0
 20 19  1  0
 21 20  1  0
 22 21  1  0
 23 22  1  0
 24  1  1  0
 24 18  1  0
 25  5  1  0
 20 25  1  6
 26  9  1  0
 21 26  1  6
 27 13  1  0
 27 22  1  0
 28 17  1  0
 23 28  1  6
 29 19  1  0
 29 23  1  0
M  ISO  8   2   2   3   2   4   2   6   2   7   2   8   2  10   2  11   2
M  ISO  4  12   2  14   2  15   2  16   2
M  END
>  <NAME>  (452) 
METHYL 2,3,4,6,-TETRA-ORTHO-[D3]METHYL-A-D-MANNOSIDE-D12

>  <SYNONYMS>  (452) 


>  <SPECTRUM TYPE>  (452) 
MS1

>  <INSTRUMENT TYPE>  (452) 
EI-B

>  <INSTRUMENT>  (452) 
JEOL JMS-DX-300

>  <ION MODE>  (452) 
P

>  <INCHIKEY>  (452) 
ZYGZAHUNAGVTEC-GMXVFYJPSA-N

>  <FORMULA>  (452) 
C11H22O6

>  <EXACT MASS>  (452) 
262.216959376

>  <MW>  (452) 
262

>  <ID>  (452) 
JP011455

>  <CONTRIBUTOR>  (452) 
University of Tokyo Team, {Faculty of Engineering, University of Tokyo

>  <COMMENT>  (452) 
SMILES=[2H]C([2H])([2H])OCC([H])(O1)C([H])(OC([2H])([2H])[2H])C([H])(OC([2H])([2H])[2H])C([H])(OC([2H])([2H])[2H])C([H])(OC)1
InChI=InChI=1S/C11H22O6/c1-12-6-7-8(13-2)9(14-3)10(15-4)11(16-5)17-7/h7-11H,6H2,1-5H3/t7?,8-,9-,10?,11+/m1/s1/i1D3,2D3,3D3,4D3
computed SMILES=[H]C([H])([H])OCC1OC(OC)C(OC([H])([H])[H])C(OC([H])([H])[H])C1OC([H])([H])[H]
accession=JP011455
date=2016.01.19 (Created 2008.10.21, modified 2011.05.06)
author=FUJISE Y, HAMAMATSU UNIV. SCHOOL OF MEDICINE
license=CC BY-NC-SA
exact mass=250.14164
ionization energy=70 eV
ion type=[M]+*
computed spectral entropy=4.2028786371106746
computed normalized entropy=0.8555208405365048
SPLASH=splash10-0a6v-9500000000-13da2667d240d2313257
submitter=submitter = University of Tokyo Team (Faculty of Engineering, University of Tokyo)
MoNA Rating=3.75

>  <NUM PEAKS>  (452) 
136

>  <MASS SPECTRAL PEAKS>  (452) 
33 11.99
34 2.94
35 1.09
36 8.13
37 1.53
39 5.48
40 10.76
41 11.49
42 29.63
43 26.49
44 32.05
45 25.14
46 5.85
47 9.87
48 63.7
49 9.37
50 27.27
51 1.45
53 11.19
54 5.69
55 12.55
56 8.55
57 12.74
58 7.25
59 8.55
60 12.2
61 8.39
62 17.49
63 12.1
64 1.74
65 2.34
67 1.55
68 4.87
69 6.76
70 3.09
71 8.94
72 5.73
73 17.84
74 66.7
75 14.27
76 65.11
77 40.05
78 85.74
79 18.17
80 5.92
81 68.77
82 5.53
83 5.56
84 2.33
85 4.65
86 6.06
87 5.84
88 19.41
89 4.26
90 11.11
91 75.49
92 23.48
93 25.99
94 97.69
95 73.06
96 8.66
97 2.67
98 7.62
99 3.64
100 2.5
101 12.3
102 10.72
103 2.66
104 57.81
105 5.11
106 14.6
107 95.44
108 49.19
109 6.35
110 3.66
111 2.36
112 1.11
113 1.57
114 20.67
115 3.07
116 3.9
117 2.84
118 1.41
119 4.88
120 13.36
121 8.27
122 3.07
123 14.13
124 1.59
125 2.78
126 1.11
127 1.11
128 2.34
131 1.4
132 2.63
133 23.96
134 3.56
135 5.77
136 1.33
137 11.74
138 1.92
139 1.44
140 9.76
141 1.98
142 1.83
144 1.34
147 1.61
149 14.34
150 3.74
151 18.31
152 2.3
153 2.46
154 23.71
155 99.99
156 20.48
157 3.18
161 7.27
165 1.01
166 2.36
167 4.41
168 4.85
169 1.16
179 9.44
180 1.48
182 1.4
184 3.07
185 54.39
186 6.52
195 1.36
196 31.13
197 4.24
214 3.86
230 1.83
231 27.66
232 4.01
262 0.73

>  <PREDICTED SPECTRUM>  (452) 
26 115
27 60
28 37
30 79
31 195
32 33
33 26
40 27
41 450
42 151
43 423
44 129
45 999
46 222
47 305
48 64
50 21
52 21
53 85
54 366
55 508
57 219
58 104
59 641
61 129
62 3
63 25
64 47
69 99
70 108
71 499
72 664
73 168
76 52
81 9
82 369
83 100
84 275
85 801
86 132
87 166
88 75
89 44
90 74
96 39
99 167
100 21
101 45
103 107
111 287
112 266
113 287
115 709
124 60
126 180
127 425
129 127
130 101
131 161
138 73
139 74
140 88
141 39
142 25
143 172
151 0
157 10
159 64
168 21
169 145
170 135
171 260
172 97
183 82
184 294
187 63
188 2
198 90
200 162
214 152
231 95
232 8
244 30
257 21
262 137

$$$$

     RDKit          2D

 16 16  0  0  0  0  0  0  0  0999 V2000
    3.9081    1.0290    0.0000 C   0  0  0  0  0  0  0  0  0  0  0  0
    3.1625   -0.2727    0.0000 H   0  0  0  0  0  0  0  0  0  0  0  0
    5.2097    0.2835    0.0000 H   0  0  0  0  0  0  0  0  0  0  0  0
    4.6536    2.3306    0.0000 H   0  0  0  0  0  0  0  0  0  0  0  0
   -2.6089    1.7702    0.0000 C   0  0  0  0  0  0  0  0  0  0  0  0
   -1.3100    1.0200    0.0000 C   0  0  0  0  0  0  0  0  0  0  0  0
   -1.3100   -0.4700    0.0000 C   0  0  0  0  0  0  0  0  0  0  0  0
   -0.0100   -1.2300    0.0000 C   0  0  0  0  0  0  0  0  0  0  0  0
    1.3100   -0.4700    0.0000 C   0  0  0  0  0  0  0  0  0  0  0  0
    1.3100    1.0200    0.0000 C   0  0  0  0  0  0  0  0  0  0  0  0
   -2.6087    3.2702    0.0000 O   0  0  0  0  0  0  0  0  0  0  0  0
   -2.6111   -1.2165    0.0000 O   0  0  0  0  0  0  0  0  0  0  0  0
   -0.0150   -2.7300    0.0000 O   0  0  0  0  0  0  0  0  0  0  0  0
    2.6086   -1.2208    0.0000 O   0  0  0  0  0  0  0  0  0  0  0  0
    2.6064    1.7745    0.0000 O   0  0  0  0  0  0  0  0  0  0  0  0
   -0.0100    1.7700    0.0000 O   0  0  0  0  0  0  0  0  0  0  0  0
  1  2  1  0
  1  3  1  0
  1  4  1  0
  6  5  1  0
  7  6  1  0
  8  7  1  0
  9  8  1  0
 10  9  1  0
 11  5  1  0
 12  7  1  0
 13  8  1  0
 14  9  1  0
 15  1  1  0
 15 10  1  0
 16  6  1  0
 16 10  1  0
M  ISO  3   2   3   3   3   4   3
M  END
>  <NAME>  (453) 
(D3)METHYL A-D-GLUCOSIDE

>  <SYNONYMS>  (453) 


>  <SPECTRUM TYPE>  (453) 
MS1

>  <INSTRUMENT TYPE>  (453) 
EI-B

>  <INSTRUMENT>  (453) 
JEOL JMS-DX-300

>  <ION MODE>  (453) 
P

>  <INCHIKEY>  (453) 
HOVAGTYPODGVJG-RLXJOQACSA-N

>  <FORMULA>  (453) 
C7H14O6

>  <EXACT MASS>  (453) 
200.103710906

>  <MW>  (453) 
200

>  <ID>  (453) 
JP011454

>  <CONTRIBUTOR>  (453) 
University of Tokyo Team, {Faculty of Engineering, University of Tokyo

>  <COMMENT>  (453) 
SMILES=[3H]C([3H])([3H])OC([H])(O1)C([H])(O)C([H])(O)C([H])(O)C([H])(CO)1
InChI=InChI=1S/C7H14O6/c1-12-7-6(11)5(10)4(9)3(2-8)13-7/h3-11H,2H2,1H3/i1T3
computed SMILES=[H]C([H])([H])OC1OC(CO)C(O)C(O)C1O
accession=JP011454
date=2016.01.19 (Created 2008.10.21, modified 2011.05.06)
author=FUJISE Y, HAMAMATSU UNIV. SCHOOL OF MEDICINE
license=CC BY-NC-SA
exact mass=194.07904
ionization energy=70 eV
ion type=[M]+*
computed spectral entropy=3.932385714054516
computed normalized entropy=0.8520656610601298
SPLASH=splash10-03kc-9100000000-5fc110e987f170384196
submitter=submitter = University of Tokyo Team (Faculty of Engineering, University of Tokyo)
MoNA Rating=3.75

>  <NUM PEAKS>  (453) 
101

>  <MASS SPECTRAL PEAKS>  (453) 
33 11.61
34 1.14
35 1.83
36 45.4
37 2.32
38 1.62
39 20.35
40 6.06
41 37.04
42 66.19
43 71.68
44 77.23
45 54.54
46 13.36
47 10.54
48 42.76
49 1.82
51 1.45
52 1.07
53 7.42
54 7.99
55 49.17
56 53.9
57 83.63
58 21.25
59 50.49
60 99.99
61 65.72
62 11.62
63 2.4
64 77.24
65 7.04
66 1.06
67 2.1
68 4.75
69 43.05
70 41.38
71 75.24
72 14.97
73 90.95
74 8.13
75 18.04
76 6.34
77 89
78 50.87
79 5.64
80 1.57
81 6.32
82 2.67
83 5.88
84 2.78
85 30.7
86 11.6
87 21.3
88 11.45
89 6.41
90 18.07
91 6.87
92 1.14
93 1.27
94 1.77
95 1.57
96 1.34
97 31.08
98 45.43
99 11.61
100 1.09
101 5.23
102 1.95
103 4.3
104 1.22
106 12.86
107 16.48
108 2.61
109 2.26
113 1.91
115 3.13
116 23.34
117 3.33
119 18.77
120 4.28
123 2.77
124 12.31
125 1.99
126 1.52
127 6.82
131 18.1
132 3.16
133 1.57
136 7.41
137 2.62
144 32.51
145 20.47
146 3
148 4.53
149 4.84
163 7.17
164 1.28
166 7.2
167 3.34
198 0.4

>  <PREDICTED SPECTRUM>  (453) 
14 42
15 99
16 11
17 39
18 79
19 50
25 21
26 81
27 192
28 174
29 235
30 96
31 228
32 78
33 51
34 5
37 5
38 51
39 220
40 64
41 341
42 561
43 891
44 480
45 472
46 134
47 200
48 70
49 147
50 135
51 195
52 101
53 277
54 166
55 449
56 288
57 779
58 198
59 238
60 921
61 499
62 88
63 79
64 75
65 85
66 45
67 203
68 235
69 401
70 132
71 602
72 376
73 999
74 331
75 121
76 77
77 72
78 67
79 183
80 314
81 266
82 151
83 160
84 75
85 418
86 335
87 55
88 79
89 45
90 54
91 186
92 103
93 140
94 113
95 14
96 16
97 196
98 55
99 70
100 30
101 71
102 104
103 165
104 125
105 42
106 60
107 74
108 64
109 230
110 41
111 29
114 62
115 111
120 68
121 28
122 102
123 55
127 95
135 9
139 50
140 58
141 7
144 18
146 28
151 62
169 21
200 36

$$$$

     RDKit          2D

 55 56  0  0  0  0  0  0  0  0999 V2000
    2.6155   -2.7252    0.0000 C   0  0  0  0  0  0  0  0  0  0  0  0
    1.1155   -2.7249    0.0000 H   0  0  0  0  0  0  0  0  0  0  0  0
    2.6153   -4.2252    0.0000 H   0  0  0  0  0  0  0  0  0  0  0  0
    4.1155   -2.7254    0.0000 H   0  0  0  0  0  0  0  0  0  0  0  0
   -6.5099    4.0353    0.0000 C   0  0  0  0  0  0  0  0  0  0  0  0
   -5.7597    5.3342    0.0000 H   0  0  0  0  0  0  0  0  0  0  0  0
   -7.8088    4.7855    0.0000 H   0  0  0  0  0  0  0  0  0  0  0  0
   -7.2601    2.7364    0.0000 H   0  0  0  0  0  0  0  0  0  0  0  0
    7.8036    1.7626    0.0000 C   0  0  0  0  0  0  0  0  0  0  0  0
    8.5501    0.4615    0.0000 H   0  0  0  0  0  0  0  0  0  0  0  0
    9.1047    2.5090    0.0000 H   0  0  0  0  0  0  0  0  0  0  0  0
    7.0571    3.0636    0.0000 H   0  0  0  0  0  0  0  0  0  0  0  0
   -5.2110    1.8017    0.0000 C   0  0  0  0  0  0  0  0  0  0  0  0
   -4.4575    3.0987    0.0000 H   0  0  0  0  0  0  0  0  0  0  0  0
   -6.5080    2.5552    0.0000 H   0  0  0  0  0  0  0  0  0  0  0  0
   -5.9645    0.5047    0.0000 H   0  0  0  0  0  0  0  0  0  0  0  0
    6.5202    5.5211    0.0000 C   0  0  0  0  0  0  0  0  0  0  0  0
    8.0202    5.5162    0.0000 H   0  0  0  0  0  0  0  0  0  0  0  0
    6.5252    7.0211    0.0000 H   0  0  0  0  0  0  0  0  0  0  0  0
    5.0202    5.5261    0.0000 H   0  0  0  0  0  0  0  0  0  0  0  0
   -2.6194   -1.2110    0.0000 C   0  0  0  0  0  0  0  0  0  0  0  0
   -3.3651    0.0905    0.0000 H   0  0  0  0  0  0  0  0  0  0  0  0
   -3.9209   -1.9567    0.0000 H   0  0  0  0  0  0  0  0  0  0  0  0
   -1.8737   -2.5126    0.0000 H   0  0  0  0  0  0  0  0  0  0  0  0
    2.5978    6.2894    0.0000 C   0  0  0  0  0  0  0  0  0  0  0  0
    3.3486    7.5880    0.0000 H   0  0  0  0  0  0  0  0  0  0  0  0
    1.2992    7.0402    0.0000 H   0  0  0  0  0  0  0  0  0  0  0  0
    1.8470    4.9908    0.0000 H   0  0  0  0  0  0  0  0  0  0  0  0
    1.3048   -0.4561    0.0000 C   0  0  0  0  0  0  0  0  0  0  0  0
   -0.1952   -0.4552    0.0000 H   0  0  0  0  0  0  0  0  0  0  0  0
    1.3039   -1.9561    0.0000 H   0  0  0  0  0  0  0  0  0  0  0  0
    2.8048   -0.4570    0.0000 H   0  0  0  0  0  0  0  0  0  0  0  0
    3.9149   -0.4754    0.0000 C   0  0  0  0  0  0  0  0  0  0  0  0
   -3.9118    4.0349    0.0000 C   0  0  0  0  0  0  0  0  0  0  0  0
    3.9151    1.0246    0.0000 C   0  0  0  0  0  0  0  0  0  0  0  0
   -2.6129    3.2846    0.0000 C   0  0  0  0  0  0  0  0  0  0  0  0
    5.2055    1.7696    0.0000 C   0  0  0  0  0  0  0  0  0  0  0  0
   -2.6129    1.7946    0.0000 C   0  0  0  0  0  0  0  0  0  0  0  0
    5.2137    3.2755    0.0000 C   0  0  0  0  0  0  0  0  0  0  0  0
   -1.3129    1.0346    0.0000 C   0  0  0  0  0  0  0  0  0  0  0  0
    3.8955    4.0386    0.0000 C   0  0  0  0  0  0  0  0  0  0  0  0
    0.0071    1.7946    0.0000 C   0  0  0  0  0  0  0  0  0  0  0  0
    2.6051    3.2936    0.0000 C   0  0  0  0  0  0  0  0  0  0  0  0
    0.0071    3.2846    0.0000 C   0  0  0  0  0  0  0  0  0  0  0  0
    2.6157   -1.2252    0.0000 O   0  0  0  0  0  0  0  0  0  0  0  0
   -5.2110    3.2851    0.0000 O   0  0  0  0  0  0  0  0  0  0  0  0
    6.5025    1.0161    0.0000 O   0  0  0  0  0  0  0  0  0  0  0  0
   -3.9140    1.0482    0.0000 O   0  0  0  0  0  0  0  0  0  0  0  0
    6.5152    4.0212    0.0000 O   0  0  0  0  0  0  0  0  0  0  0  0
   -1.3179   -0.4653    0.0000 O   0  0  0  0  0  0  0  0  0  0  0  0
    3.8964    5.5386    0.0000 O   0  0  0  0  0  0  0  0  0  0  0  0
    1.3057    1.0439    0.0000 O   0  0  0  0  0  0  0  0  0  0  0  0
    2.6156    1.7755    0.0000 O   0  0  0  0  0  0  0  0  0  0  0  0
   -1.3129    4.0346    0.0000 O   0  0  0  0  0  0  0  0  0  0  0  0
    1.3035    4.0391    0.0000 O   0  0  0  0  0  0  0  0  0  0  0  0
  1  2  1  0
  1  3  1  0
  1  4  1  0
  5  6  1  0
  5  7  1  0
  5  8  1  0
  9 10  1  0
  9 11  1  0
  9 12  1  0
 13 14  1  0
 13 15  1  0
 13 16  1  0
 17 18  1  0
 17 19  1  0
 17 20  1  0
 21 22  1  0
 21 23  1  0
 21 24  1  0
 25 26  1  0
 25 27  1  0
 25 28  1  0
 29 30  1  0
 29 31  1  0
 29 32  1  0
 35 33  1  0
 36 34  1  0
 37 35  1  0
 38 36  1  0
 39 37  1  0
 40 38  1  0
 41 39  1  0
 42 40  1  0
 43 41  1  0
 44 42  1  0
 45  1  1  0
 45 33  1  0
 46  5  1  0
 46 34  1  0
 47  9  1  0
 47 37  1  0
 48 13  1  0
 48 38  1  0
 49 17  1  0
 49 39  1  0
 50 21  1  0
 50 40  1  0
 51 25  1  0
 51 41  1  0
 52 29  1  0
 52 42  1  0
 53 35  1  0
 53 43  1  0
 54 36  1  0
 54 44  1  0
 55 43  1  0
 55 44  1  0
M  ISO  8   2   2   3   2   4   2   6   2   7   2   8   2  10   2  11   2
M  ISO  8  12   2  14   2  15   2  16   2  18   2  19   2  20   2  22   2
M  ISO  8  23   2  24   2  26   2  27   2  28   2  30   2  31   2  32   2
M  END
>  <NAME>  (454) 
2,2',3,3',4,4',6,6'-OCTA-ORTHO-[D3]METHYL-TREHALOSE-D24

>  <SYNONYMS>  (454) 


>  <SPECTRUM TYPE>  (454) 
MS1

>  <INSTRUMENT TYPE>  (454) 
EI-B

>  <INSTRUMENT>  (454) 
JEOL JMS-DX-300

>  <ION MODE>  (454) 
P

>  <INCHIKEY>  (454) 
PREGLBRFCLDAND-JFUAVBILSA-N

>  <FORMULA>  (454) 
C20H38O11

>  <EXACT MASS>  (454) 
478.39205394

>  <MW>  (454) 
478

>  <ID>  (454) 
JP011453

>  <CONTRIBUTOR>  (454) 
University of Tokyo Team, {Faculty of Engineering, University of Tokyo

>  <COMMENT>  (454) 
SMILES=[2H]C([2H])([2H])OCC([H])(O1)C([H])(OC([2H])([2H])[2H])C([H])(OC([2H])([2H])[2H])C([H])(OC([2H])([2H])[2H])C([H])1OC([H])(O2)C([H])(OC([2H])([2H])[2H])C([H])(OC([2H])([2H])[2H])C([H])(OC([2H])([2H])[2H])C([H])(COC([2H])([2H])[2H])2
InChI=InChI=1S/C20H38O11/c1-21-9-11-13(23-3)15(25-5)17(27-7)19(29-11)31-20-18(28-8)16(26-6)14(24-4)12(30-20)10-22-2/h11-20H,9-10H2,1-8H3/i1D3,2D3,3D3,4D3,5D3,6D3,7D3,8D3
computed SMILES=[H]C([H])([H])OCC1OC(OC2OC(COC([H])([H])[H])C(OC([H])([H])[H])C(OC([H])([H])[H])C2OC([H])([H])[H])C(OC([H])([H])[H])C(OC([H])([H])[H])C1OC([H])([H])[H]
accession=JP011453
date=2016.01.19 (Created 2008.10.21, modified 2011.05.06)
author=FUJISE Y, HAMAMATSU UNIV. SCHOOL OF MEDICINE
license=CC BY-NC-SA
exact mass=454.24141
ionization energy=70 eV
ion type=[M]+*
computed spectral entropy=4.676651435624885
computed normalized entropy=0.8860458208209298
SPLASH=splash10-0002-9300000000-808f01f5a98b881568cb
submitter=submitter = University of Tokyo Team (Faculty of Engineering, University of Tokyo)
MoNA Rating=3.75

>  <NUM PEAKS>  (454) 
196

>  <MASS SPECTRAL PEAKS>  (454) 
33 16.66
34 17.3
35 49.15
36 20.15
37 35.51
38 9.95
39 29.6
40 15.35
41 46.26
42 49.25
43 40.54
44 35.94
45 71.53
46 92.73
47 80.29
48 99.99
49 97.75
50 85.53
51 38.05
52 12.8
53 28.46
54 46.69
55 54.95
56 15.95
57 24.43
58 12.1
59 10.69
60 24.49
61 25.39
62 73.67
63 47.32
64 36.86
65 29.29
66 58.17
67 57.33
68 38.07
69 32.12
70 15.51
71 13.69
72 9.56
73 7.2
74 49.7
75 22.01
76 32.15
77 29.22
78 25.79
79 13.61
80 26.92
81 71.07
82 77.8
83 92.24
84 30.44
85 82.79
86 12.7
87 60.26
88 14.23
89 11.54
90 11.06
91 8.84
92 5.51
93 8.15
94 61.3
95 77.04
96 54.14
97 67.12
98 91.69
99 65.25
100 43.24
101 14.78
102 19.56
103 3.68
104 3.31
105 4.44
106 6.73
107 83.24
108 27.53
109 8.88
110 8.12
111 9.25
112 9.52
113 7.64
114 64.78
115 22.22
116 4.4
117 9.09
118 34.13
119 12.44
120 20.35
121 13.72
122 10.35
123 7.56
124 4.69
125 4.73
126 7.1
127 4.82
128 17.8
129 19.41
130 6.56
131 5.98
132 2.34
133 27.95
134 4.33
135 8.88
136 3
137 7.6
138 2.89
139 2.44
140 6.36
141 3.55
142 4.82
143 14.58
144 3.3
145 5.58
146 21.71
147 9.55
148 35.1
149 23.9
150 3.98
151 2.24
152 2.02
153 31.99
154 20.66
155 7.15
156 1.64
157 3.4
158 10.84
159 2.47
160 4.23
161 31.68
162 5.73
163 3.64
164 1.65
165 2.28
166 15.65
167 28.7
168 5.91
169 2.38
170 1.73
172 1.64
173 1.08
174 1.01
175 5.9
176 1.74
177 1.55
178 1.04
179 1.72
180 1.38
181 1.25
182 2.1
183 2.05
184 16.67
185 2.91
187 1.73
188 2.15
191 1.31
192 1.19
193 1.22
195 2.68
196 78.41
197 12.92
198 1.8
199 1.24
200 8.03
201 1.58
208 3.92
209 3.82
210 1.47
211 1.32
212 3.01
213 16.74
214 2.66
219 1.28
230 6.66
231 8.61
232 1.38
243 8.22
244 1.61
246 1.43
247 3.2
255 1.62
256 1.66
264 7.07
265 1.48
277 1.96
278 3.94
279 1.78
290 17.61
291 3.65
325 13.59
326 3.21
336 1.89
338 3.59
360 1.15
371 3.65
372 9.59
443 3.96

>  <PREDICTED SPECTRUM>  (454) 
26 129
31 186
41 127
43 377
45 999
46 185
47 222
51 47
52 28
53 192
54 228
55 334
57 261
58 107
59 415
60 55
63 102
64 40
65 174
70 41
71 399
72 461
73 238
74 1
75 88
76 182
77 267
78 243
79 391
80 321
81 459
82 427
83 702
84 335
85 882
87 79
89 372
91 104
98 93
99 111
102 114
103 0
104 143
105 220
106 143
107 238
109 162
116 305
117 83
122 66
123 26
129 19
130 124
131 598
133 17
140 228
141 136
144 125
151 148
152 150
153 235
159 48
161 21
162 262
163 284
164 308
165 34
166 149
167 88
172 29
178 53
185 191
186 104
187 357
189 72
222 18
248 16
254 303
303 206
328 94
378 142
477 59
479 168

$$$$

     RDKit          2D

 26 29  0  0  0  0  0  0  0  0999 V2000
    0.0000    3.0000    0.0000 C   0  0  0  0  0  0  0  0  0  0  0  0
    2.5989   -1.5002    0.0000 C   0  0  0  0  0  0  0  0  0  0  0  0
   -3.8989   -5.2502    0.0000 C   0  0  0  0  0  0  0  0  0  0  0  0
   -6.4978   -0.7500    0.0000 C   0  0  0  0  0  0  0  0  0  0  0  0
    5.9476    2.8003    0.0000 C   0  0  0  0  0  0  0  0  0  0  0  0
    6.6978    1.5013    0.0000 C   0  0  0  0  0  0  0  0  0  0  0  0
   -9.8465   -5.0505    0.0000 C   0  0  0  0  0  0  0  0  0  0  0  0
  -10.5967   -3.7516    0.0000 C   0  0  0  0  0  0  0  0  0  0  0  0
   -1.3000    0.7500    0.0000 C   0  0  0  0  0  0  0  0  0  0  0  0
    0.0000   -1.5000    0.0000 C   0  0  0  0  0  0  0  0  0  0  0  0
   -2.5989   -3.0002    0.0000 C   0  0  0  0  0  0  0  0  0  0  0  0
   -3.8989   -0.7502    0.0000 C   0  0  0  0  0  0  0  0  0  0  0  0
    3.8981    0.7504    0.0000 C   0  0  0  0  0  0  0  0  0  0  0  0
   -7.7970   -3.0006    0.0000 C   0  0  0  0  0  0  0  0  0  0  0  0
    0.0000    1.5000    0.0000 C   0  0  0  0  0  0  0  0  0  0  0  0
    1.3000   -0.7500    0.0000 C   0  0  0  0  0  0  0  0  0  0  0  0
   -3.8989   -3.7502    0.0000 C   0  0  0  0  0  0  0  0  0  0  0  0
   -5.1989   -1.5002    0.0000 C   0  0  0  0  0  0  0  0  0  0  0  0
    5.1970    1.5006    0.0000 C   0  0  0  0  0  0  0  0  0  0  0  0
   -9.0959   -3.7508    0.0000 C   0  0  0  0  0  0  0  0  0  0  0  0
   -1.3000   -0.7500    0.0000 C   0  0  0  0  0  0  0  0  0  0  0  0
   -2.5989   -1.5002    0.0000 C   0  0  0  0  0  0  0  0  0  0  0  0
    1.3000    0.7500    0.0000 C   0  0  0  0  0  0  0  0  0  0  0  0
   -5.1989   -3.0002    0.0000 C   0  0  0  0  0  0  0  0  0  0  0  0
    2.5989    1.5002    0.0000 O   0  0  0  0  0  0  0  0  0  0  0  0
   -6.4978   -3.7504    0.0000 O   0  0  0  0  0  0  0  0  0  0  0  0
  6  5  1  0
  8  7  1  0
 15  1  1  0
 15  9  2  0
 16  2  1  0
 16 10  1  0
 17  3  1  0
 17 11  2  0
 18  4  1  0
 18 12  1  0
 19  5  1  0
 19  6  1  0
 19 13  1  0
 20  7  1  0
 20  8  1  0
 20 14  1  0
 21  9  1  0
 21 10  2  0
 22 11  1  0
 22 12  2  0
 22 21  1  0
 23 15  1  0
 23 16  2  0
 24 17  1  0
 24 18  2  0
 25 13  1  0
 25 23  1  0
 26 14  1  0
 26 24  1  0
M  END
>  <NAME>  (455) 
3,3',5,5'-TETRA-METHYL-4,4'-DICYCLOPROPYL-METHYLOXY-BIPHENYL

>  <SYNONYMS>  (455) 


>  <SPECTRUM TYPE>  (455) 
MS1

>  <INSTRUMENT TYPE>  (455) 
EI-B

>  <INSTRUMENT>  (455) 
JEOL JMS-DX-300

>  <ION MODE>  (455) 
P

>  <INCHIKEY>  (455) 
ROUMLMHVPQDDRQ-UHFFFAOYSA-N

>  <FORMULA>  (455) 
C24H30O2

>  <EXACT MASS>  (455) 
350.2245802

>  <MW>  (455) 
350

>  <ID>  (455) 
JP011451

>  <CONTRIBUTOR>  (455) 
University of Tokyo Team, {Faculty of Engineering, University of Tokyo

>  <COMMENT>  (455) 
SMILES=Cc(c1)c(OCC(C4)C4)c(C)cc1c(c2)cc(C)c(OCC(C3)C3)c(C)2
InChI=InChI=1S/C24H30O2/c1-15-9-21(10-16(2)23(15)25-13-19-5-6-19)22-11-17(3)24(18(4)12-22)26-14-20-7-8-20/h9-12,19-20H,5-8,13-14H2,1-4H3
computed SMILES=O(C=1C(=CC(=CC1C)C=2C=C(C(OCC3CC3)=C(C2)C)C)C)CC4CC4
accession=JP011451
date=2016.01.19 (Created 2008.10.21, modified 2011.05.06)
author=FUJISE Y, HAMAMATSU UNIV. SCHOOL OF MEDICINE
license=CC BY-NC-SA
exact mass=350.22458
ionization energy=70 eV
ion type=[M]+*
computed spectral entropy=3.2821322381221774
computed normalized entropy=0.7276068415299729
SPLASH=splash10-0f6y-2192000000-77a8078906d8f0fc462a
submitter=submitter = University of Tokyo Team (Faculty of Engineering, University of Tokyo)
MoNA Rating=3.75

>  <NUM PEAKS>  (455) 
91

>  <MASS SPECTRAL PEAKS>  (455) 
36 12.4
40 7.67
41 4.94
42 1.02
43 6.99
44 3.66
51 1.43
53 0.73
54 2.33
55 75.39
56 0.64
57 2.65
65 1.05
69 2.93
71 2.67
77 2.3
81 1.4
89 1.05
90 1.43
91 3.26
105 1.46
115 1.86
121 1.01
128 2.73
129 2.1
135 1.08
141 2.28
142 1.04
143 1.08
149 1.87
152 2.1
153 2.95
154 2.26
155 1.7
157 1.33
159 1.06
165 4.81
166 2.52
167 2.69
168 1.43
169 3.45
170 1.42
171 1.51
172 1.51
178 1.31
179 2.34
180 2.19
181 3.91
182 2.94
183 4.15
184 1.73
185 3.17
195 2.64
196 1.86
197 5.25
198 10.42
199 2.88
200 5.95
209 1.77
210 1.4
211 3.59
212 2.86
213 6.24
214 2.55
215 1.43
223 1.07
224 1.42
225 3.38
226 3.58
227 1.63
239 2.1
240 7
241 98.1
242 78.08
243 15.62
255 5.14
256 1.69
267 2.52
268 4.81
269 1.79
270 6.47
271 1.73
279 1.11
295 24.46
296 99.99
297 28.55
322 1.95
326 1.83
328 1.82
350 92.12
351 34.07

>  <PREDICTED SPECTRUM>  (455) 
26 29
27 116
28 36
29 82
38 0
39 167
40 22
41 181
42 109
43 163
44 41
45 57
48 2
50 23
51 73
52 107
53 119
54 214
55 378
56 48
57 5
60 35
63 33
64 3
65 95
69 0
76 47
77 178
78 103
79 134
81 57
87 1
89 47
90 28
91 143
93 39
102 1
104 6
106 6
115 117
116 17
121 9
123 5
124 46
128 44
129 34
130 42
138 7
139 92
140 63
141 72
142 70
143 71
151 72
152 73
153 69
154 14
155 93
158 15
159 8
165 107
166 133
167 153
168 134
169 154
170 162
171 159
172 98
173 35
178 49
181 208
182 147
183 196
184 167
185 123
186 39
187 98
195 67
196 99
197 174
198 235
199 167
200 216
201 59
209 1
210 102
211 196
212 357
213 257
214 293
215 128
216 41
223 84
224 110
225 168
226 251
227 180
228 62
230 86
238 54
239 182
240 495
241 964
242 999
243 424
244 91
253 49
254 90
255 199
256 214
267 6
268 194
269 201
270 231
271 40
279 99
280 55
281 39
288 49
295 590
296 998
297 534
298 107
308 66
310 6
321 12
322 2
335 4
350 850
351 504
353 34

$$$$

     RDKit          2D

 21 21  0  0  0  0  0  0  0  0999 V2000
    6.2206    2.9801    0.0000 C   0  0  0  0  0  0  0  0  0  0  0  0
   -3.5558   -4.0615    0.0000 C   0  0  0  0  0  0  0  0  0  0  0  0
   -3.6530    1.1705    0.0000 C   0  0  0  0  0  0  0  0  0  0  0  0
   -7.0130   -1.8242    0.0000 C   0  0  0  0  0  0  0  0  0  0  0  0
   -6.4743    0.7174    0.0000 C   0  0  0  0  0  0  0  0  0  0  0  0
    4.7929    3.4401    0.0000 C   0  0  0  0  0  0  0  0  0  0  0  0
   -2.1281   -3.6015    0.0000 C   0  0  0  0  0  0  0  0  0  0  0  0
   -2.2828    1.7810    0.0000 C   0  0  0  0  0  0  0  0  0  0  0  0
    3.6807    2.4336    0.0000 C   0  0  0  0  0  0  0  0  0  0  0  0
   -1.8125   -2.1351    0.0000 C   0  0  0  0  0  0  0  0  0  0  0  0
   -3.5395    0.0954    0.0000 C   0  0  0  0  0  0  0  0  0  0  0  0
   -4.5425   -1.0199    0.0000 C   0  0  0  0  0  0  0  0  0  0  0  0
    2.2529    2.8936    0.0000 C   0  0  0  0  0  0  0  0  0  0  0  0
   -0.3848   -1.6751    0.0000 C   0  0  0  0  0  0  0  0  0  0  0  0
   -2.0721   -0.2156    0.0000 C   0  0  0  0  0  0  0  0  0  0  0  0
   -0.3190    2.1988    0.0000 C   0  0  0  0  0  0  0  0  0  0  0  0
   -6.0099   -0.7089    0.0000 C   0  0  0  0  0  0  0  0  0  0  0  0
    1.1407    1.8871    0.0000 C   0  0  0  0  0  0  0  0  0  0  0  0
   -0.0693   -0.2087    0.0000 C   0  0  0  0  0  0  0  0  0  0  0  0
   -1.0690    0.8997    0.0000 C   0  0  0  0  0  0  0  0  0  0  0  0
    1.3065    0.3942    0.0000 O   0  0  0  0  0  0  0  0  0  0  0  0
  6  1  1  0
  7  2  1  0
  8  3  2  0
  9  6  1  0
 10  7  1  0
 12 11  1  0
 13  9  1  0
 14 10  1  0
 15 11  1  0
 17  4  1  0
 17  5  1  0
 17 12  2  0
 18 13  1  0
 18 16  1  0
 19 14  1  0
 20  8  1  0
 20 15  1  0
 20 16  1  0
 20 19  1  0
 21 18  1  0
 21 19  1  0
M  END
>  <NAME>  (456) 
3-ETHENYL-2,5-DIBUTYL-3-(4-METHYL-3-PENTENYL)TETRAHYDROFURAN

>  <SYNONYMS>  (456) 


>  <SPECTRUM TYPE>  (456) 
MS1

>  <INSTRUMENT TYPE>  (456) 
EI-B

>  <INSTRUMENT>  (456) 
JEOL JMS-DX-300

>  <ION MODE>  (456) 
P

>  <INCHIKEY>  (456) 
CORRSPQDYCFIHB-UHFFFAOYSA-N

>  <FORMULA>  (456) 
C20H36O

>  <EXACT MASS>  (456) 
292.27661577199996

>  <MW>  (456) 
292

>  <ID>  (456) 
JP011403

>  <CONTRIBUTOR>  (456) 
University of Tokyo Team, {Faculty of Engineering, University of Tokyo

>  <COMMENT>  (456) 
SMILES=CCCCC(O1)CC(C=C)(CCC=C(C)C)C(CCCC)1
InChI=InChI=1S/C20H36O/c1-6-9-13-18-16-20(8-3,15-11-12-17(4)5)19(21-18)14-10-7-2/h8,12,18-19H,3,6-7,9-11,13-16H2,1-2,4-5H3
computed SMILES=O1C(CCCC)CC(C=C)(CCC=C(C)C)C1CCCC
accession=JP011403
date=2016.01.19 (Created 2008.10.21, modified 2011.05.06)
author=HISAHIRO HAGIWARA, INSTITUTE FOR CHEMICAL REACTION SCIENCE TOHOKU UNIV.
license=CC BY-NC-SA
exact mass=292.27662
ionization energy=70 eV
ion type=[M]+*
computed spectral entropy=3.4791190213185845
computed normalized entropy=0.8721817336710488
SPLASH=splash10-0296-9410000000-9cb79cb128f1c549453d
submitter=submitter = University of Tokyo Team (Faculty of Engineering, University of Tokyo)
MoNA Rating=3.75

>  <NUM PEAKS>  (456) 
54

>  <MASS SPECTRAL PEAKS>  (456) 
39 6.7
41 62.9
42 5.2
43 14.6
53 9.6
54 2.3
55 27.5
56 2
57 14.9
65 3.3
66 2.1
67 25.8
68 9.4
69 72.2
70 5.3
77 6.9
78 3.4
79 28.8
80 13
81 27.6
82 13.2
83 9.4
85 11.8
91 6.9
92 4.8
93 77.6
94 16.2
95 22.7
96 6.7
105 2.4
107 22
108 7.7
109 9.7
121 18.9
122 11
123 4.8
124 2.3
135 20.3
136 9.5
137 3.3
149 19.9
150 6.3
151 2.2
163 99.99
164 19
165 5.4
191 7.1
192 3.2
206 12
207 15.8
208 14.5
209 2.7
235 8.6
292 4.2

>  <PREDICTED SPECTRUM>  (456) 
27 68
29 111
39 260
40 110
41 850
42 202
43 458
45 60
50 37
51 122
52 99
53 383
54 136
55 632
56 255
57 421
59 70
63 8
65 184
66 137
67 591
68 272
69 992
70 262
71 110
77 360
78 180
79 574
80 396
81 570
82 266
83 411
85 220
86 20
91 260
92 198
93 999
94 359
95 486
96 161
97 86
105 240
106 19
107 625
108 286
109 223
110 92
111 119
119 0
120 8
121 569
122 409
123 203
124 120
125 14
127 23
133 79
135 442
136 369
137 150
139 65
147 62
149 315
150 296
151 64
162 152
163 850
164 487
165 317
177 185
178 123
189 14
191 287
192 228
206 310
207 366
208 227
209 116
219 82
235 302
237 14
249 9
292 164
293 13

$$$$

     RDKit          2D

 19 19  0  0  0  0  0  0  0  0999 V2000
   -3.0032    1.9715    0.0000 C   0  0  0  0  0  0  0  0  0  0  0  0
   -6.3632   -1.0232    0.0000 C   0  0  0  0  0  0  0  0  0  0  0  0
   -5.8245    1.5184    0.0000 C   0  0  0  0  0  0  0  0  0  0  0  0
    4.3304    3.2346    0.0000 C   0  0  0  0  0  0  0  0  0  0  0  0
    2.5872    5.1610    0.0000 C   0  0  0  0  0  0  0  0  0  0  0  0
    1.3772   -1.8806    0.0000 C   0  0  0  0  0  0  0  0  0  0  0  0
   -1.1628   -1.3341    0.0000 C   0  0  0  0  0  0  0  0  0  0  0  0
   -1.6331    2.5820    0.0000 C   0  0  0  0  0  0  0  0  0  0  0  0
   -2.8897    0.8964    0.0000 C   0  0  0  0  0  0  0  0  0  0  0  0
   -3.8928   -0.2189    0.0000 C   0  0  0  0  0  0  0  0  0  0  0  0
   -1.4223    0.5854    0.0000 C   0  0  0  0  0  0  0  0  0  0  0  0
    0.3307    2.9998    0.0000 C   0  0  0  0  0  0  0  0  0  0  0  0
   -5.3602    0.0921    0.0000 C   0  0  0  0  0  0  0  0  0  0  0  0
    2.9027    3.6946    0.0000 C   0  0  0  0  0  0  0  0  0  0  0  0
    0.2650   -0.8741    0.0000 C   0  0  0  0  0  0  0  0  0  0  0  0
    1.7905    2.6881    0.0000 C   0  0  0  0  0  0  0  0  0  0  0  0
    0.5805    0.5923    0.0000 C   0  0  0  0  0  0  0  0  0  0  0  0
   -0.4193    1.7007    0.0000 C   0  0  0  0  0  0  0  0  0  0  0  0
    1.9562    1.1952    0.0000 O   0  0  0  0  0  0  0  0  0  0  0  0
  8  1  2  0
 10  9  1  0
 11  9  1  0
 13  2  1  0
 13  3  1  0
 13 10  2  0
 14  4  1  0
 14  5  1  0
 15  6  1  0
 15  7  1  0
 16 12  1  0
 16 14  1  0
 17 15  1  0
 18  8  1  0
 18 11  1  0
 18 12  1  0
 18 17  1  0
 19 16  1  0
 19 17  1  0
M  END
>  <NAME>  (457) 
3-ETHENYL-2,5-DIPROPYL-3-(4-METHYL-3-PENTENYL)TETRAHYDROFURAN

>  <SYNONYMS>  (457) 


>  <SPECTRUM TYPE>  (457) 
MS1

>  <INSTRUMENT TYPE>  (457) 
EI-B

>  <INSTRUMENT>  (457) 
JEOL JMS-DX-300

>  <ION MODE>  (457) 
P

>  <INCHIKEY>  (457) 
WTBSTODNZOIJQY-UHFFFAOYSA-N

>  <FORMULA>  (457) 
C18H32O

>  <EXACT MASS>  (457) 
264.245315644

>  <MW>  (457) 
264

>  <ID>  (457) 
JP011402

>  <CONTRIBUTOR>  (457) 
University of Tokyo Team, {Faculty of Engineering, University of Tokyo

>  <COMMENT>  (457) 
SMILES=CC(C)=CCCC(C=C)(C1)C(C(C)C)OC(C(C)C)1
InChI=InChI=1S/C18H32O/c1-8-18(11-9-10-13(2)3)12-16(14(4)5)19-17(18)15(6)7/h8,10,14-17H,1,9,11-12H2,2-7H3
computed SMILES=O1C(CC(C=C)(CCC=C(C)C)C1C(C)C)C(C)C
accession=JP011402
date=2016.01.19 (Created 2008.10.21, modified 2011.05.06)
author=HISAHIRO HAGIWARA, INSTITUTE FOR CHEMICAL REACTION SCIENCE TOHOKU UNIV.
license=CC BY-NC-SA
exact mass=264.24532
ionization energy=70 eV
ion type=[M]+*
computed spectral entropy=3.4865382995867997
computed normalized entropy=0.8661450147602019
SPLASH=splash10-00kg-9500000000-538047bcd00150903b4c
submitter=submitter = University of Tokyo Team (Faculty of Engineering, University of Tokyo)
MoNA Rating=3.75

>  <NUM PEAKS>  (457) 
56

>  <MASS SPECTRAL PEAKS>  (457) 
39 7.6
40 2.1
41 59.8
42 3.7
43 23.9
53 10.5
54 2.6
55 31
56 2.5
57 5
65 3.9
66 2.2
67 26.7
68 8.9
69 70.3
70 5.4
71 16.9
77 7.2
78 3.6
79 30.2
80 11
81 31.6
82 13.5
83 9
91 7.4
92 3.7
93 67
94 12.1
95 13.1
96 5.1
105 3.3
107 21.2
108 7.4
109 9.9
110 3.5
121 14.6
122 10.8
123 8.2
124 2.8
135 19.2
136 7.5
137 3.4
149 99.99
150 18.6
151 5.8
163 2.8
177 7.2
178 3.3
179 12.5
180 12.7
181 2.7
192 10.5
193 4.3
194 4.2
221 9.2
264 4.5

>  <PREDICTED SPECTRUM>  (457) 
27 144
29 187
38 7
39 349
40 146
41 946
42 254
43 669
44 56
45 141
50 45
51 151
52 90
53 452
54 125
55 659
56 153
57 411
59 85
65 251
66 182
67 604
68 372
69 961
70 273
71 218
72 48
77 425
78 95
79 570
80 354
81 617
82 462
83 342
84 63
91 359
92 296
93 999
94 379
95 432
96 224
97 76
98 5
99 5
103 33
105 264
106 16
107 667
108 256
109 421
110 119
111 244
112 32
113 112
114 12
119 126
120 57
121 559
122 376
123 277
124 76
125 79
126 2
133 106
134 51
135 563
136 365
137 281
138 53
139 99
141 6
147 141
148 101
149 616
150 401
151 164
153 32
161 85
163 310
164 219
165 117
166 6
167 103
168 2
175 40
177 319
178 318
179 304
180 249
181 125
182 59
191 138
192 94
193 147
194 115
195 178
203 55
207 31
219 60
220 38
221 332
222 78
235 17
264 164

$$$$

     RDKit          2D

 21 21  0  0  0  0  0  0  0  0999 V2000
   -3.2813    1.4467    0.0000 C   0  0  0  0  0  0  0  0  0  0  0  0
   -6.6413   -1.5481    0.0000 C   0  0  0  0  0  0  0  0  0  0  0  0
   -6.1026    0.9936    0.0000 C   0  0  0  0  0  0  0  0  0  0  0  0
    5.1646    3.7162    0.0000 C   0  0  0  0  0  0  0  0  0  0  0  0
    4.3679    1.2433    0.0000 C   0  0  0  0  0  0  0  0  0  0  0  0
    0.7836   -3.8719    0.0000 C   0  0  0  0  0  0  0  0  0  0  0  0
    2.5268   -1.9455    0.0000 C   0  0  0  0  0  0  0  0  0  0  0  0
   -1.9111    2.0572    0.0000 C   0  0  0  0  0  0  0  0  0  0  0  0
   -3.1678    0.3715    0.0000 C   0  0  0  0  0  0  0  0  0  0  0  0
   -4.1708   -0.7438    0.0000 C   0  0  0  0  0  0  0  0  0  0  0  0
   -1.7004    0.0605    0.0000 C   0  0  0  0  0  0  0  0  0  0  0  0
    2.6246    3.1697    0.0000 C   0  0  0  0  0  0  0  0  0  0  0  0
   -0.0131   -1.3990    0.0000 C   0  0  0  0  0  0  0  0  0  0  0  0
    0.0527    2.4749    0.0000 C   0  0  0  0  0  0  0  0  0  0  0  0
   -5.6382   -0.4328    0.0000 C   0  0  0  0  0  0  0  0  0  0  0  0
    4.0524    2.7098    0.0000 C   0  0  0  0  0  0  0  0  0  0  0  0
    1.0991   -2.4054    0.0000 C   0  0  0  0  0  0  0  0  0  0  0  0
    1.5124    2.1633    0.0000 C   0  0  0  0  0  0  0  0  0  0  0  0
    0.3024    0.0675    0.0000 C   0  0  0  0  0  0  0  0  0  0  0  0
   -0.6973    1.1758    0.0000 C   0  0  0  0  0  0  0  0  0  0  0  0
    1.6782    0.6704    0.0000 O   0  0  0  0  0  0  0  0  0  0  0  0
  8  1  2  0
 10  9  1  0
 11  9  1  0
 15  2  1  0
 15  3  1  0
 15 10  2  0
 16  4  1  0
 16  5  1  0
 16 12  1  0
 17  6  1  0
 17  7  1  0
 17 13  1  0
 18 12  1  0
 18 14  1  0
 19 13  1  0
 20  8  1  0
 20 11  1  0
 20 14  1  0
 20 19  1  0
 21 18  1  0
 21 19  1  0
M  END
>  <NAME>  (458) 
3-ETHENYL-3-(4-METHYL-3-PENTENYL)-2,5-BIS(2-METHYLPROPYL)TETRAHYDROFURAN

>  <SYNONYMS>  (458) 


>  <SPECTRUM TYPE>  (458) 
MS1

>  <INSTRUMENT TYPE>  (458) 
EI-B

>  <INSTRUMENT>  (458) 
JEOL JMS-DX-300

>  <ION MODE>  (458) 
P

>  <INCHIKEY>  (458) 
IYZIXNDGGPPYAM-UHFFFAOYSA-N

>  <FORMULA>  (458) 
C20H36O

>  <EXACT MASS>  (458) 
292.276615772

>  <MW>  (458) 
292

>  <ID>  (458) 
JP011401

>  <CONTRIBUTOR>  (458) 
University of Tokyo Team, {Faculty of Engineering, University of Tokyo

>  <COMMENT>  (458) 
SMILES=CC(C)=CCCC(C=C)(C1)C(CC(C)C)OC(CC(C)C)1
InChI=InChI=1S/C20H36O/c1-8-20(11-9-10-15(2)3)14-18(12-16(4)5)21-19(20)13-17(6)7/h8,10,16-19H,1,9,11-14H2,2-7H3
computed SMILES=O1C(CC(C)C)CC(C=C)(CCC=C(C)C)C1CC(C)C
accession=JP011401
date=2016.01.19 (Created 2008.10.21, modified 2011.05.06)
author=HISAHIRO HAGIWARA, INSTITUTE FOR CHEMICAL REACTION SCIENCE TOHOKU UNIV.
license=CC BY-NC-SA
exact mass=292.27662
ionization energy=70 eV
ion type=[M]+*
computed spectral entropy=3.5683936064535295
computed normalized entropy=0.8751344789701059
SPLASH=splash10-0296-9400000000-142a800369e62d1bfaf4
submitter=submitter = University of Tokyo Team (Faculty of Engineering, University of Tokyo)
MoNA Rating=3.75

>  <NUM PEAKS>  (458) 
59

>  <MASS SPECTRAL PEAKS>  (458) 
39 7.6
40 2.1
41 73.3
42 4.9
43 31.4
53 10.2
54 2.3
55 30.3
56 3
57 19.7
65 3.4
66 3
67 33.6
68 9.5
69 99.99
70 7.9
71 5
77 7.6
78 3.8
79 32.8
80 16.5
81 45.4
82 23.2
83 14.9
85 17.5
91 8.2
92 7
93 77
94 16.5
95 27.3
96 6.4
97 2.5
105 3.5
107 59.4
108 12.1
109 16.6
110 2.3
121 20.7
122 16.2
123 7.1
124 2.7
135 27.3
136 13.6
137 5.2
149 19.5
150 15.7
151 3.6
162 4.8
163 91.5
164 15.4
165 3.8
191 8.5
192 3.3
206 11.9
207 14.5
208 13.7
209 3.1
235 10.4
292 5.2

>  <PREDICTED SPECTRUM>  (458) 
27 68
29 95
39 245
40 124
41 854
42 260
43 663
44 68
45 140
50 37
51 101
52 68
53 361
54 147
55 680
56 298
57 565
58 20
59 88
65 183
66 175
67 628
68 318
69 990
70 342
71 136
76 7
77 394
78 182
79 580
80 505
81 728
82 449
83 544
84 63
85 339
86 54
87 10
91 266
92 260
93 999
94 473
95 545
96 223
97 187
105 232
106 85
107 670
108 314
109 348
110 122
111 140
119 48
120 99
121 651
122 430
123 273
124 122
125 59
126 10
133 122
134 48
135 552
136 412
137 133
147 115
148 17
149 447
150 294
151 127
161 93
162 275
163 916
164 524
165 377
177 146
178 127
189 121
191 347
192 205
193 13
206 398
207 524
208 292
209 146
219 62
235 306
236 31
237 27
247 35
277 16
292 197
293 39

$$$$

     RDKit          2D

 14 13  0  0  0  0  0  0  0  0999 V2000
   -3.9841    1.4498    0.0000 C   0  0  0  0  0  0  0  0  0  0  0  0
    2.5111    3.6998    0.0000 C   0  0  0  0  0  0  0  0  0  0  0  0
    1.2120    5.9498    0.0000 C   0  0  0  0  0  0  0  0  0  0  0  0
   -6.0332    4.9988    0.0000 C   0  0  0  0  0  0  0  0  0  0  0  0
   -6.5822    2.9498    0.0000 C   0  0  0  0  0  0  0  0  0  0  0  0
   -4.5332    2.4007    0.0000 C   0  0  0  0  0  0  0  0  0  0  0  0
   -2.6851    2.1998    0.0000 C   0  0  0  0  0  0  0  0  0  0  0  0
   -0.0870    3.6998    0.0000 C   0  0  0  0  0  0  0  0  0  0  0  0
   -3.9841    4.4498    0.0000 C   0  0  0  0  0  0  0  0  0  0  0  0
    1.2120    4.4498    0.0000 C   0  0  0  0  0  0  0  0  0  0  0  0
   -2.6851    3.6998    0.0000 C   0  0  0  0  0  0  0  0  0  0  0  0
   -1.3861    4.4498    0.0000 C   0  0  0  0  0  0  0  0  0  0  0  0
   -1.3861    5.9498    0.0000 O   0  0  0  0  0  0  0  0  0  0  0  0
   -5.2832    3.6998    0.0000 Si  0  0  0  0  0  4  0  0  0  0  0  0
  7  1  2  0
 10  2  1  0
 10  3  1  0
 10  8  1  0
 11  7  1  0
 11  9  1  0
 12  8  1  0
 12 11  1  0
 13 12  1  0
 14  4  1  0
 14  5  1  0
 14  6  1  0
 14  9  1  0
M  END
>  <NAME>  (459) 
6-METHYL-3-(TRIMETHYLSILYL)METHYL-1-HEPTEN-4-OL

>  <SYNONYMS>  (459) 


>  <SPECTRUM TYPE>  (459) 
MS1

>  <INSTRUMENT TYPE>  (459) 
EI-B

>  <INSTRUMENT>  (459) 
JEOL JMS-DX-300

>  <ION MODE>  (459) 
P

>  <INCHIKEY>  (459) 
XMDRTAVKUHDSRY-UHFFFAOYSA-N

>  <FORMULA>  (459) 
C12H26OSi

>  <EXACT MASS>  (459) 
214.175291982

>  <MW>  (459) 
214

>  <ID>  (459) 
JP011400

>  <CONTRIBUTOR>  (459) 
University of Tokyo Team, {Faculty of Engineering, University of Tokyo

>  <COMMENT>  (459) 
SMILES=CC(C)CC(O)C(C=C)C[Si](C)(C)C
InChI=InChI=1S/C12H26OSi/c1-7-11(9-14(4,5)6)12(13)8-10(2)3/h7,10-13H,1,8-9H2,2-6H3
computed SMILES=OC(CC(C)C)C(C=C)C[Si](C)(C)C
accession=JP011400
date=2016.01.19 (Created 2008.10.21, modified 2011.05.06)
author=HISAHIRO HAGIWARA, INSTITUTE FOR CHEMICAL REACTION SCIENCE TOHOKU UNIV.
license=CC BY-NC-SA
exact mass=214.17529
ionization energy=70 eV
ion type=[M]+*
computed spectral entropy=3.272691176884349
computed normalized entropy=0.8409152854444878
SPLASH=splash10-00fr-9100000000-662f1c0ffeda7421cf8c
submitter=submitter = University of Tokyo Team (Faculty of Engineering, University of Tokyo)
MoNA Rating=3.75

>  <NUM PEAKS>  (459) 
49

>  <MASS SPECTRAL PEAKS>  (459) 
31 3.9
39 7.2
41 25.1
42 2.4
43 24.6
44 8.3
45 34.9
46 2.2
47 4.9
53 4
54 9.8
55 9.2
56 2.6
57 8.7
58 3.6
59 14.5
60 2.1
61 6.1
67 20.6
68 10.4
69 32
70 5.9
71 5.3
72 5.3
73 99.99
74 35.3
75 91.6
76 8
77 4.8
79 2.3
80 2.4
81 12.6
82 14.7
83 4
85 4.9
87 5.4
95 5.5
96 5.2
97 10
103 12.8
109 5.8
113 6.1
117 2.4
124 2.7
127 8.8
128 35.8
129 5.7
159 5.3
181 1.9

>  <PREDICTED SPECTRUM>  (459) 
26 6
27 86
28 16
29 86
31 75
33 1
36 10
37 12
38 34
39 209
40 102
41 449
42 162
43 532
44 125
45 429
46 76
47 175
49 44
50 43
51 88
52 49
53 173
54 101
55 381
56 120
57 205
58 149
59 372
60 86
61 217
62 22
63 9
65 103
66 93
67 227
68 146
69 430
70 119
71 132
72 88
73 999
74 376
75 764
76 221
77 201
78 74
79 146
80 74
81 281
82 195
83 230
84 78
85 210
86 62
87 159
89 58
91 107
93 118
95 155
96 94
97 193
98 20
99 129
100 37
101 183
102 113
103 184
104 38
105 56
107 141
108 9
109 191
110 83
111 75
113 170
114 22
115 183
116 32
117 61
122 14
123 57
124 50
125 13
126 35
127 179
128 130
129 246
130 44
131 54
135 29
137 0
139 39
141 109
142 60
143 99
145 51
155 5
157 13
158 15
159 132
160 12
171 73
172 25
173 69
181 102
199 81
214 52

$$$$

     RDKit          2D

 14 13  0  0  0  0  0  0  0  0999 V2000
   -0.4118    2.8358    0.0000 C   0  0  0  0  0  0  0  0  0  0  0  0
    1.6373   -0.7132    0.0000 C   0  0  0  0  0  0  0  0  0  0  0  0
    0.1373    1.8849    0.0000 C   0  0  0  0  0  0  0  0  0  0  0  0
   -0.4118   -0.1642    0.0000 C   0  0  0  0  0  0  0  0  0  0  0  0
    4.9853    5.0858    0.0000 C   0  0  0  0  0  0  0  0  0  0  0  0
    3.4853    6.5858    0.0000 C   0  0  0  0  0  0  0  0  0  0  0  0
    1.9853    5.0858    0.0000 C   0  0  0  0  0  0  0  0  0  0  0  0
    0.8873    3.5858    0.0000 C   0  0  0  0  0  0  0  0  0  0  0  0
    3.4853    3.5858    0.0000 C   0  0  0  0  0  0  0  0  0  0  0  0
    2.1863    2.8358    0.0000 C   0  0  0  0  0  0  0  0  0  0  0  0
    2.1863    1.3358    0.0000 C   0  0  0  0  0  0  0  0  0  0  0  0
    0.8873    0.5858    0.0000 C   0  0  0  0  0  0  0  0  0  0  0  0
    3.4853    0.5858    0.0000 O   0  0  0  0  0  0  0  0  0  0  0  0
    3.4853    5.0858    0.0000 Si  0  0  0  0  0  4  0  0  0  0  0  0
  8  1  2  0
 10  8  1  0
 10  9  1  0
 11 10  1  0
 12  2  1  0
 12  3  1  0
 12  4  1  0
 12 11  1  0
 13 11  2  0
 14  5  1  0
 14  6  1  0
 14  7  1  0
 14  9  1  0
M  END
>  <NAME>  (460) 
2,2-DIMETHYL-4-(TRIMETHYLSILYL)METHYL-5-HEXEN-3-ONE

>  <SYNONYMS>  (460) 


>  <SPECTRUM TYPE>  (460) 
MS1

>  <INSTRUMENT TYPE>  (460) 
EI-B

>  <INSTRUMENT>  (460) 
JEOL JMS-DX-300

>  <ION MODE>  (460) 
P

>  <INCHIKEY>  (460) 
INDDZOADHRZSTG-UHFFFAOYSA-N

>  <FORMULA>  (460) 
C12H24OSi

>  <EXACT MASS>  (460) 
212.159641918

>  <MW>  (460) 
212

>  <ID>  (460) 
JP011399

>  <CONTRIBUTOR>  (460) 
University of Tokyo Team, {Faculty of Engineering, University of Tokyo

>  <COMMENT>  (460) 
SMILES=C=CC(C[Si](C)(C)C)C(=O)C(C)(C)C
InChI=InChI=1S/C12H24OSi/c1-8-10(9-14(5,6)7)11(13)12(2,3)4/h8,10H,1,9H2,2-7H3
computed SMILES=O=C(C(C=C)C[Si](C)(C)C)C(C)(C)C
accession=JP011399
date=2016.01.19 (Created 2008.10.21, modified 2011.05.06)
author=HISAHIRO HAGIWARA, INSTITUTE FOR CHEMICAL REACTION SCIENCE TOHOKU UNIV.
license=CC BY-NC-SA
exact mass=212.15964
ionization energy=70 eV
ion type=[M]+*
computed spectral entropy=2.4007452904847275
computed normalized entropy=0.7656672681098562
SPLASH=splash10-05fr-9200000000-6da95b13b45f6d1e3871
submitter=submitter = University of Tokyo Team (Faculty of Engineering, University of Tokyo)
MoNA Rating=3.75

>  <NUM PEAKS>  (460) 
23

>  <MASS SPECTRAL PEAKS>  (460) 
39 2.7
41 11.1
43 3.5
44 2.6
45 11.5
57 58.4
58 4.3
59 5
73 99.99
74 12.4
75 22.4
85 8.7
97 3.5
127 11.7
141 2.3
143 17.1
144 2.6
155 30.3
156 5.3
157 2
158 6.7
197 3.8
212 0.3

>  <PREDICTED SPECTRUM>  (460) 
27 35
29 93
39 172
40 62
41 349
42 12
43 157
44 44
45 312
46 2
47 107
53 91
54 18
55 205
56 88
57 515
58 183
59 222
60 1
61 146
65 47
67 49
69 124
70 32
71 165
72 66
73 999
74 270
75 634
76 92
77 61
79 51
81 64
83 5
85 310
86 46
97 25
99 55
101 45
102 11
111 100
113 63
115 31
127 248
128 79
129 146
141 81
143 189
144 32
155 727
156 331
157 316
158 118
169 7
185 53
197 208
198 65
212 29

$$$$

     RDKit          2D

 15 15  0  0  0  0  0  0  0  0999 V2000
    1.0227    3.6137    0.0000 C   0  0  0  0  0  0  0  0  0  0  0  0
   -4.3810   -2.7764    0.0000 C   0  0  0  0  0  0  0  0  0  0  0  0
   -1.8410   -3.3229    0.0000 C   0  0  0  0  0  0  0  0  0  0  0  0
    5.1777   -0.3035    0.0000 C   0  0  0  0  0  0  0  0  0  0  0  0
    3.4344    1.6229    0.0000 C   0  0  0  0  0  0  0  0  0  0  0  0
    1.6322    2.2431    0.0000 C   0  0  0  0  0  0  0  0  0  0  0  0
   -2.6377   -0.8500    0.0000 C   0  0  0  0  0  0  0  0  0  0  0  0
    2.6377   -0.8500    0.0000 C   0  0  0  0  0  0  0  0  0  0  0  0
   -0.7500    1.0300    0.0000 C   0  0  0  0  0  0  0  0  0  0  0  0
   -2.9533   -2.3164    0.0000 C   0  0  0  0  0  0  0  0  0  0  0  0
    3.7499    0.1565    0.0000 C   0  0  0  0  0  0  0  0  0  0  0  0
    0.7500    1.0300    0.0000 C   0  0  0  0  0  0  0  0  0  0  0  0
   -1.2100   -0.3900    0.0000 C   0  0  0  0  0  0  0  0  0  0  0  0
    1.2100   -0.3900    0.0000 C   0  0  0  0  0  0  0  0  0  0  0  0
   -0.0000   -1.2800    0.0000 O   0  0  0  0  0  0  0  0  0  0  0  0
  6  1  2  0
 10  2  1  0
 10  3  1  0
 10  7  1  0
 11  4  1  0
 11  5  1  0
 11  8  1  0
 12  6  1  0
 12  9  1  0
 13  7  1  0
 13  9  1  0
 14  8  1  0
 14 12  1  0
 15 13  1  0
 15 14  1  0
M  END
>  <NAME>  (461) 
3-ETHENYL-2,5-BIS(2-METHYLPROPYL)TETRAHYDROFURAN

>  <SYNONYMS>  (461) 


>  <SPECTRUM TYPE>  (461) 
MS1

>  <INSTRUMENT TYPE>  (461) 
EI-B

>  <INSTRUMENT>  (461) 
JEOL JMS-DX-300

>  <ION MODE>  (461) 
P

>  <INCHIKEY>  (461) 
ITEQWNDUNHFRAG-UHFFFAOYSA-N

>  <FORMULA>  (461) 
C14H26O

>  <EXACT MASS>  (461) 
210.198365452

>  <MW>  (461) 
210

>  <ID>  (461) 
JP011398

>  <CONTRIBUTOR>  (461) 
University of Tokyo Team, {Faculty of Engineering, University of Tokyo

>  <COMMENT>  (461) 
SMILES=CC(C)CC(C1)OC(CC(C)C)C(C=C)1
InChI=InChI=1S/C14H26O/c1-6-12-9-13(7-10(2)3)15-14(12)8-11(4)5/h6,10-14H,1,7-9H2,2-5H3
computed SMILES=O1C(CC(C)C)CC(C=C)C1CC(C)C
accession=JP011398
date=2016.01.19 (Created 2008.10.21, modified 2011.05.06)
author=HISAHIRO HAGIWARA, INSTITUTE FOR CHEMICAL REACTION SCIENCE TOHOKU UNIV.
license=CC BY-NC-SA
exact mass=210.19837
ionization energy=70 eV
ion type=[M]+*
computed spectral entropy=3.2109467736040394
computed normalized entropy=0.8704396046401317
SPLASH=splash10-0159-9100000000-e4bf3022ed210ddf0972
submitter=submitter = University of Tokyo Team (Faculty of Engineering, University of Tokyo)
MoNA Rating=3.75

>  <NUM PEAKS>  (461) 
40

>  <MASS SPECTRAL PEAKS>  (461) 
39 14.9
40 3
41 57.6
42 8.6
43 27.3
44 2.5
45 3.7
53 11.2
54 60
55 43.4
56 13.4
57 39.4
65 3.7
66 13.3
67 41.6
68 52.9
69 80.7
70 23.4
71 5.9
73 3.8
77 4.1
79 12.8
80 17.7
81 72.9
82 99.99
83 25.1
85 5.3
91 2.2
93 6.8
95 24.4
96 33.9
97 6.1
107 4.2
109 41.7
110 4.2
124 46.4
125 5.6
135 5
153 13.6
210 0.7

>  <PREDICTED SPECTRUM>  (461) 
26 57
27 275
28 89
29 166
37 25
38 54
39 381
40 144
41 739
42 262
43 499
44 128
45 86
50 62
51 148
52 117
53 295
54 496
55 589
56 401
57 556
58 93
59 55
63 28
65 190
66 241
67 699
68 687
69 752
70 319
71 297
77 246
78 73
79 315
80 417
81 999
82 880
83 448
84 84
85 180
87 18
91 7
93 169
94 35
95 628
96 706
97 261
98 32
107 249
108 97
109 582
110 147
111 68
123 106
124 517
125 192
126 138
135 14
151 44
153 316
154 83

$$$$

     RDKit          2D

 16 16  0  0  0  0  0  0  0  0999 V2000
   -3.3344    0.6443    0.0000 C   0  0  0  0  0  0  0  0  0  0  0  0
   -5.3834    4.1934    0.0000 C   0  0  0  0  0  0  0  0  0  0  0  0
   -5.9324    2.1443    0.0000 C   0  0  0  0  0  0  0  0  0  0  0  0
   -3.8834    1.5953    0.0000 C   0  0  0  0  0  0  0  0  0  0  0  0
   -2.0353    1.3943    0.0000 C   0  0  0  0  0  0  0  0  0  0  0  0
    3.1608    1.3943    0.0000 C   0  0  0  0  0  0  0  0  0  0  0  0
    3.1613    2.8952    0.0000 C   0  0  0  0  0  0  0  0  0  0  0  0
    1.8613    0.6435    0.0000 C   0  0  0  0  0  0  0  0  0  0  0  0
    1.8623    3.6452    0.0000 C   0  0  0  0  0  0  0  0  0  0  0  0
    0.5623    1.3935    0.0000 C   0  0  0  0  0  0  0  0  0  0  0  0
   -3.3344    3.6443    0.0000 C   0  0  0  0  0  0  0  0  0  0  0  0
   -2.0353    2.8943    0.0000 C   0  0  0  0  0  0  0  0  0  0  0  0
    0.5627    2.8943    0.0000 C   0  0  0  0  0  0  0  0  0  0  0  0
   -0.7363    3.6443    0.0000 C   0  0  0  0  0  0  0  0  0  0  0  0
   -0.7363    5.1443    0.0000 O   0  0  0  0  0  0  0  0  0  0  0  0
   -4.6334    2.8943    0.0000 Si  0  0  0  0  0  4  0  0  0  0  0  0
  5  1  2  0
  7  6  2  0
  8  6  1  0
  9  7  1  0
 10  8  2  0
 12  5  1  0
 12 11  1  0
 13  9  2  0
 13 10  1  0
 14 12  1  0
 14 13  1  0
 15 14  1  0
 16  2  1  0
 16  3  1  0
 16  4  1  0
 16 11  1  0
M  END
>  <NAME>  (462) 
2-(TRIMETHYLSILYL)METHYL-1-PHENYL-3-BUTEN-1-OL

>  <SYNONYMS>  (462) 


>  <SPECTRUM TYPE>  (462) 
MS1

>  <INSTRUMENT TYPE>  (462) 
EI-B

>  <INSTRUMENT>  (462) 
JEOL JMS-DX-300

>  <ION MODE>  (462) 
P

>  <INCHIKEY>  (462) 
QJMIILNHQISUMY-UHFFFAOYSA-N

>  <FORMULA>  (462) 
C14H22OSi

>  <EXACT MASS>  (462) 
234.14399185399998

>  <MW>  (462) 
234

>  <ID>  (462) 
JP011397

>  <CONTRIBUTOR>  (462) 
University of Tokyo Team, {Faculty of Engineering, University of Tokyo

>  <COMMENT>  (462) 
SMILES=C=CC(C[Si](C)(C)C)C(O)c(c1)cccc1
InChI=InChI=1S/C14H22OSi/c1-5-12(11-16(2,3)4)14(15)13-9-7-6-8-10-13/h5-10,12,14-15H,1,11H2,2-4H3
computed SMILES=OC(C=1C=CC=CC1)C(C=C)C[Si](C)(C)C
accession=JP011397
date=2016.01.19 (Created 2008.10.21, modified 2011.05.06)
author=HISAHIRO HAGIWARA, INSTITUTE FOR CHEMICAL REACTION SCIENCE TOHOKU UNIV.
license=CC BY-NC-SA
exact mass=234.14399
ionization energy=70 eV
ion type=[M]+*
computed spectral entropy=1.9971753714235927
computed normalized entropy=0.6559897035664496
SPLASH=splash10-00di-6900000000-1558c6d9cfae03139262
submitter=submitter = University of Tokyo Team (Faculty of Engineering, University of Tokyo)
MoNA Rating=3.75

>  <NUM PEAKS>  (462) 
21

>  <MASS SPECTRAL PEAKS>  (462) 
43 1.7
44 1.2
45 6.3
51 1.4
58 1.5
59 7.4
73 26.7
74 2.8
75 2.2
77 9.1
78 1.6
89 20.3
90 2.3
91 6.7
97 1.5
105 2.9
115 1.3
121 99.99
122 13.3
128 1.6
129 1.5

>  <PREDICTED SPECTRUM>  (462) 
27 22
29 11
31 32
38 15
39 58
40 13
41 43
43 130
44 62
45 299
46 36
47 97
49 56
50 107
51 202
52 118
53 115
54 8
55 80
57 68
58 26
59 183
60 63
61 109
62 30
63 62
65 77
67 26
69 55
70 59
71 125
72 81
73 999
74 355
75 491
76 168
77 382
78 131
79 261
80 31
85 89
90 3
91 285
92 103
93 64
94 3
97 25
99 111
101 73
102 100
103 48
104 7
105 289
106 17
107 570
108 90
110 7
111 21
115 142
127 349
128 325
129 199
130 55
142 13
143 32
144 183
145 10
166 30
167 33
179 399
180 137
219 60
234 10

$$$$

     RDKit          2D

 13 13  0  0  0  0  0  0  0  0999 V2000
    5.1777    3.6137    0.0000 C   0  0  0  0  0  0  0  0  0  0  0  0
   -4.3810    1.1408    0.0000 C   0  0  0  0  0  0  0  0  0  0  0  0
   -0.2260   -2.7764    0.0000 C   0  0  0  0  0  0  0  0  0  0  0  0
    3.7499    3.1538    0.0000 C   0  0  0  0  0  0  0  0  0  0  0  0
   -2.9533    0.6808    0.0000 C   0  0  0  0  0  0  0  0  0  0  0  0
   -0.8355   -1.4058    0.0000 C   0  0  0  0  0  0  0  0  0  0  0  0
    3.4344    1.6873    0.0000 C   0  0  0  0  0  0  0  0  0  0  0  0
   -1.8410    1.6873    0.0000 C   0  0  0  0  0  0  0  0  0  0  0  0
    1.5467   -0.1927    0.0000 C   0  0  0  0  0  0  0  0  0  0  0  0
    0.0467   -0.1927    0.0000 C   0  0  0  0  0  0  0  0  0  0  0  0
    2.0067    1.2273    0.0000 C   0  0  0  0  0  0  0  0  0  0  0  0
   -0.4133    1.2273    0.0000 C   0  0  0  0  0  0  0  0  0  0  0  0
    0.7967    2.1173    0.0000 O   0  0  0  0  0  0  0  0  0  0  0  0
  4  1  1  0
  5  2  1  0
  6  3  2  0
  7  4  1  0
  8  5  1  0
 10  6  1  0
 10  9  1  0
 11  7  1  0
 11  9  1  0
 12  8  1  0
 12 10  1  0
 13 11  1  0
 13 12  1  0
M  END
>  <NAME>  (463) 
2,5-DIBUTYL-3-ETHENYLTETRAHYDROFURAN

>  <SYNONYMS>  (463) 


>  <SPECTRUM TYPE>  (463) 
MS1

>  <INSTRUMENT TYPE>  (463) 
EI-B

>  <INSTRUMENT>  (463) 
JEOL JMS-DX-300

>  <ION MODE>  (463) 
P

>  <INCHIKEY>  (463) 
RGUDGBPPEKIZQX-UHFFFAOYSA-N

>  <FORMULA>  (463) 
C12H22O

>  <EXACT MASS>  (463) 
182.167065324

>  <MW>  (463) 
182

>  <ID>  (463) 
JP011396

>  <CONTRIBUTOR>  (463) 
University of Tokyo Team, {Faculty of Engineering, University of Tokyo

>  <COMMENT>  (463) 
SMILES=CCCC(C1)OC(CCC)C(C=C)1
InChI=InChI=1S/C12H22O/c1-4-7-11-9-10(6-3)12(13-11)8-5-2/h6,10-12H,3-5,7-9H2,1-2H3
computed SMILES=O1C(CCC)CC(C=C)C1CCC
accession=JP011396
date=2016.01.19 (Created 2008.10.21, modified 2011.05.06)
author=HISAHIRO HAGIWARA, INSTITUTE FOR CHEMICAL REACTION SCIENCE TOHOKU UNIV.
license=CC BY-NC-SA
exact mass=182.16707
ionization energy=70 eV
ion type=[M]+*
computed spectral entropy=3.1001124084585103
computed normalized entropy=0.8294238723759446
SPLASH=splash10-0gc0-9100000000-23caaad7097752ecf8db
submitter=submitter = University of Tokyo Team (Faculty of Engineering, University of Tokyo)
MoNA Rating=3.75

>  <NUM PEAKS>  (463) 
42

>  <MASS SPECTRAL PEAKS>  (463) 
31 3.1
39 24.5
40 4.5
41 52.7
42 5.8
43 27.4
44 2.9
45 3.5
51 2.7
52 2.2
53 15.1
54 99.99
55 41.7
56 7.9
57 6.7
65 6
66 7
67 51.1
68 62.2
69 32.2
70 2.6
71 10.5
77 4.9
79 12.6
80 6.5
81 68.1
82 37.7
83 5.9
87 4.6
91 2
93 6.4
95 34.3
96 3.5
97 2.5
109 2.4
110 62.8
111 9
121 6.1
139 15.4
181 1.2
182 1.2
183 1.3

>  <PREDICTED SPECTRUM>  (463) 
26 55
27 265
28 80
29 233
37 28
38 82
39 428
40 203
41 723
42 283
43 542
44 61
45 34
50 83
51 197
52 157
53 386
54 651
55 747
56 305
57 214
59 2
63 42
65 232
66 298
67 853
68 685
69 644
70 161
71 311
72 36
73 46
74 12
76 18
77 203
78 28
79 278
80 144
81 999
82 673
83 265
84 53
85 38
91 140
93 218
94 79
95 709
96 276
97 146
99 24
109 152
110 952
111 80
112 40
121 86
123 100
138 2
139 357
140 103
141 56

$$$$

     RDKit          2D

 13 12  0  0  0  0  0  0  0  0999 V2000
   -0.1507    1.4130    0.0000 C   0  0  0  0  0  0  0  0  0  0  0  0
   -5.3469    4.4130    0.0000 C   0  0  0  0  0  0  0  0  0  0  0  0
   -4.0478    2.1630    0.0000 C   0  0  0  0  0  0  0  0  0  0  0  0
    0.3983    2.3639    0.0000 C   0  0  0  0  0  0  0  0  0  0  0  0
    2.4474    2.9130    0.0000 C   0  0  0  0  0  0  0  0  0  0  0  0
    1.8983    4.9620    0.0000 C   0  0  0  0  0  0  0  0  0  0  0  0
   -1.4498    2.1630    0.0000 C   0  0  0  0  0  0  0  0  0  0  0  0
   -0.1507    4.4130    0.0000 C   0  0  0  0  0  0  0  0  0  0  0  0
   -4.0478    3.6630    0.0000 C   0  0  0  0  0  0  0  0  0  0  0  0
   -1.4498    3.6630    0.0000 C   0  0  0  0  0  0  0  0  0  0  0  0
   -2.7488    4.4130    0.0000 C   0  0  0  0  0  0  0  0  0  0  0  0
   -2.7488    5.9130    0.0000 O   0  0  0  0  0  0  0  0  0  0  0  0
    1.1483    3.6630    0.0000 Si  0  0  0  0  0  4  0  0  0  0  0  0
  7  1  2  0
  9  2  1  0
  9  3  1  0
 10  7  1  0
 10  8  1  0
 11  9  1  0
 11 10  1  0
 12 11  2  0
 13  4  1  0
 13  5  1  0
 13  6  1  0
 13  8  1  0
M  END
>  <NAME>  (464) 
2-METHYL-4-(TRIMETHYLSILYL)METHYL-5-HEXEN-3-ONE

>  <SYNONYMS>  (464) 


>  <SPECTRUM TYPE>  (464) 
MS1

>  <INSTRUMENT TYPE>  (464) 
EI-B

>  <INSTRUMENT>  (464) 
JEOL JMS-DX-300

>  <ION MODE>  (464) 
P

>  <INCHIKEY>  (464) 
IRXDIOWOELNKOQ-UHFFFAOYSA-N

>  <FORMULA>  (464) 
C11H22OSi

>  <EXACT MASS>  (464) 
198.14399185399998

>  <MW>  (464) 
198

>  <ID>  (464) 
JP011395

>  <CONTRIBUTOR>  (464) 
University of Tokyo Team, {Faculty of Engineering, University of Tokyo

>  <COMMENT>  (464) 
SMILES=C=CC(C(=O)C(C)C)C[Si](C)(C)C
InChI=InChI=1S/C11H22OSi/c1-7-10(8-13(4,5)6)11(12)9(2)3/h7,9-10H,1,8H2,2-6H3
computed SMILES=O=C(C(C)C)C(C=C)C[Si](C)(C)C
accession=JP011395
date=2016.01.19 (Created 2008.10.21, modified 2011.05.06)
author=HISAHIRO HAGIWARA, INSTITUTE FOR CHEMICAL REACTION SCIENCE TOHOKU UNIV.
license=CC BY-NC-SA
exact mass=198.14399
ionization energy=70 eV
ion type=[M]+*
computed spectral entropy=2.5132262487662222
computed normalized entropy=0.7908066958359432
SPLASH=splash10-00di-9300000000-88eeac637cb3e53b0284
submitter=submitter = University of Tokyo Team (Faculty of Engineering, University of Tokyo)
MoNA Rating=3.75

>  <NUM PEAKS>  (464) 
24

>  <MASS SPECTRAL PEAKS>  (464) 
39 3.7
41 8.6
43 28.9
44 3.6
45 14.5
55 2.4
58 2.9
59 6.3
67 2.1
71 14.8
72 2.5
73 99.99
74 12.1
75 24.3
97 3.9
127 9.8
129 20.4
130 2.6
144 2.7
155 26.1
156 4.3
183 11.7
184 2
198 2.6

>  <PREDICTED SPECTRUM>  (464) 
27 13
28 5
29 59
39 77
40 2
41 159
42 46
43 270
44 80
45 272
46 51
47 77
52 3
53 96
54 9
55 196
56 17
57 78
58 20
59 242
61 27
65 30
66 22
67 57
69 51
70 86
71 233
72 168
73 999
74 273
75 495
76 60
77 4
79 7
85 105
93 8
95 24
97 5
99 60
101 65
113 128
115 52
126 4
127 306
128 97
129 291
130 168
131 45
141 9
143 36
144 35
155 552
156 219
157 90
171 19
183 248
184 103
185 6
198 197
199 84
200 6

$$$$

     RDKit          2D

 24 23  0  0  0  0  0  0  0  0999 V2000
    4.5466    7.8750    0.0000 C   0  0  0  0  0  0  0  0  0  0  0  0
  -13.6399    7.8750    0.0000 C   0  0  0  0  0  0  0  0  0  0  0  0
  -12.3409   10.1250    0.0000 C   0  0  0  0  0  0  0  0  0  0  0  0
   -7.1447   10.1250    0.0000 C   0  0  0  0  0  0  0  0  0  0  0  0
   -3.2476   10.8750    0.0000 C   0  0  0  0  0  0  0  0  0  0  0  0
   -7.8947    6.9240    0.0000 C   0  0  0  0  0  0  0  0  0  0  0  0
   -8.4437    4.8750    0.0000 C   0  0  0  0  0  0  0  0  0  0  0  0
   -6.3947    4.3260    0.0000 C   0  0  0  0  0  0  0  0  0  0  0  0
    3.2476    8.6250    0.0000 C   0  0  0  0  0  0  0  0  0  0  0  0
    1.9486    7.8750    0.0000 C   0  0  0  0  0  0  0  0  0  0  0  0
    0.6495    8.6250    0.0000 C   0  0  0  0  0  0  0  0  0  0  0  0
   -0.6495    7.8750    0.0000 C   0  0  0  0  0  0  0  0  0  0  0  0
   -1.9486    8.6250    0.0000 C   0  0  0  0  0  0  0  0  0  0  0  0
   -9.7428    8.6250    0.0000 C   0  0  0  0  0  0  0  0  0  0  0  0
  -11.0418    7.8750    0.0000 C   0  0  0  0  0  0  0  0  0  0  0  0
   -8.4437    7.8750    0.0000 C   0  0  0  0  0  0  0  0  0  0  0  0
   -3.2476    7.8750    0.0000 C   0  0  0  0  0  0  0  0  0  0  0  0
   -5.8457    6.3750    0.0000 C   0  0  0  0  0  0  0  0  0  0  0  0
  -12.3409    8.6250    0.0000 C   0  0  0  0  0  0  0  0  0  0  0  0
   -7.1447    8.6250    0.0000 C   0  0  0  0  0  0  0  0  0  0  0  0
   -5.8457    7.8750    0.0000 C   0  0  0  0  0  0  0  0  0  0  0  0
   -4.5466    8.6250    0.0000 C   0  0  0  0  0  0  0  0  0  0  0  0
   -4.5466   10.1250    0.0000 O   0  0  0  0  0  0  0  0  0  0  0  0
   -7.1447    5.6250    0.0000 Si  0  0  0  0  0  4  0  0  0  0  0  0
  9  1  1  0
 10  9  1  0
 11 10  1  0
 12 11  1  0
 13 12  1  0
 15 14  1  0
 16 14  1  0
 17 13  1  0
 19  2  1  0
 19  3  1  0
 19 15  2  0
 20  4  2  0
 20 16  1  0
 21 18  1  0
 21 20  1  0
 22 17  1  0
 22 21  1  0
 23  5  1  0
 23 22  1  0
 24  6  1  0
 24  7  1  0
 24  8  1  0
 24 18  1  0
M  END
>  <NAME>  (465) 
8-METHOXY-2-METHYL-6-METHYLENE-7-(TRIMETHYLSILYL)METHYL-2-PENTADECENE

>  <SYNONYMS>  (465) 


>  <SPECTRUM TYPE>  (465) 
MS1

>  <INSTRUMENT TYPE>  (465) 
EI-B

>  <INSTRUMENT>  (465) 
JEOL JMS-DX-300

>  <ION MODE>  (465) 
P

>  <INCHIKEY>  (465) 
VVUBCPPTYJMBNS-UHFFFAOYSA-N

>  <FORMULA>  (465) 
C22H44OSi

>  <EXACT MASS>  (465) 
352.316142558

>  <MW>  (465) 
352

>  <ID>  (465) 
JP011394

>  <CONTRIBUTOR>  (465) 
University of Tokyo Team, {Faculty of Engineering, University of Tokyo

>  <COMMENT>  (465) 
SMILES=CCCCCCCC(OC)C(C[Si](C)(C)C)C(=C)CCC=C(C)C
InChI=InChI=1S/C22H44OSi/c1-9-10-11-12-13-17-22(23-5)21(18-24(6,7)8)20(4)16-14-15-19(2)3/h15,21-22H,4,9-14,16-18H2,1-3,5-8H3
computed SMILES=O(C)C(CCCCCCC)C(C(=C)CCC=C(C)C)C[Si](C)(C)C
accession=JP011394
date=2016.01.19 (Created 2008.10.21, modified 2011.05.06)
author=HISAHIRO HAGIWARA, INSTITUTE FOR CHEMICAL REACTION SCIENCE TOHOKU UNIV.
license=CC BY-NC-SA
exact mass=352.31614
ionization energy=70 eV
ion type=[M]+*
computed spectral entropy=2.9816773986042997
computed normalized entropy=0.8029135681350748
SPLASH=splash10-006x-9600000000-c4490035051bdada8912
submitter=submitter = University of Tokyo Team (Faculty of Engineering, University of Tokyo)
MoNA Rating=3.75

>  <NUM PEAKS>  (465) 
41

>  <MASS SPECTRAL PEAKS>  (465) 
32 2.4
41 13.5
43 17.1
45 22.2
55 22
57 6.5
58 7.7
59 9.2
67 4.8
69 29.2
70 4.6
71 7
73 73.1
74 6.9
75 4.1
79 2.3
81 5.5
83 5.5
89 17.6
91 2.1
93 2.5
95 5.6
97 2.6
105 10.2
107 2.5
109 4.8
111 35.7
112 2.8
119 3
123 2.5
131 2.7
135 4.5
141 6.7
143 99.99
144 11.8
166 2.1
169 2.2
179 2.2
283 2.5
320 3.1
352 1.5

>  <PREDICTED SPECTRUM>  (465) 
29 76
39 73
41 271
42 24
43 207
44 25
45 338
46 29
47 14
50 22
51 39
52 14
53 111
54 0
55 358
56 54
57 161
58 131
59 384
61 73
63 21
65 85
66 5
67 195
68 51
69 669
70 172
71 214
73 866
74 283
75 217
76 10
77 163
78 64
79 170
80 50
81 245
82 117
83 115
84 24
85 113
87 208
89 452
90 101
91 171
92 45
93 225
94 8
95 227
97 93
99 66
101 219
102 46
104 6
105 241
106 20
107 189
108 22
109 316
110 46
111 198
112 101
113 134
119 63
123 86
125 99
135 245
137 117
139 15
140 32
141 117
142 54
143 999
144 331
149 34
151 42
153 9
173 76
179 115
283 30
352 81

$$$$

     RDKit          2D

 20 19  0  0  0  0  0  0  0  0999 V2000
    3.5724    5.0625    0.0000 C   0  0  0  0  0  0  0  0  0  0  0  0
   -9.4180    5.0625    0.0000 C   0  0  0  0  0  0  0  0  0  0  0  0
   -8.1190    7.3125    0.0000 C   0  0  0  0  0  0  0  0  0  0  0  0
   -2.9228    7.3125    0.0000 C   0  0  0  0  0  0  0  0  0  0  0  0
    0.9743    8.0625    0.0000 C   0  0  0  0  0  0  0  0  0  0  0  0
   -1.0748    1.5135    0.0000 C   0  0  0  0  0  0  0  0  0  0  0  0
    0.9743    2.0625    0.0000 C   0  0  0  0  0  0  0  0  0  0  0  0
    0.4252    4.1115    0.0000 C   0  0  0  0  0  0  0  0  0  0  0  0
    2.2733    5.8125    0.0000 C   0  0  0  0  0  0  0  0  0  0  0  0
   -5.5209    5.8125    0.0000 C   0  0  0  0  0  0  0  0  0  0  0  0
    0.9743    5.0625    0.0000 C   0  0  0  0  0  0  0  0  0  0  0  0
   -6.8200    5.0625    0.0000 C   0  0  0  0  0  0  0  0  0  0  0  0
   -4.2219    5.0625    0.0000 C   0  0  0  0  0  0  0  0  0  0  0  0
   -1.6238    3.5625    0.0000 C   0  0  0  0  0  0  0  0  0  0  0  0
   -8.1190    5.8125    0.0000 C   0  0  0  0  0  0  0  0  0  0  0  0
   -2.9228    5.8125    0.0000 C   0  0  0  0  0  0  0  0  0  0  0  0
   -1.6238    5.0625    0.0000 C   0  0  0  0  0  0  0  0  0  0  0  0
   -0.3248    5.8125    0.0000 C   0  0  0  0  0  0  0  0  0  0  0  0
   -0.3248    7.3125    0.0000 O   0  0  0  0  0  0  0  0  0  0  0  0
   -0.3248    2.8125    0.0000 Si  0  0  0  0  0  4  0  0  0  0  0  0
  9  1  1  0
 11  9  1  0
 12 10  1  0
 13 10  1  0
 15  2  1  0
 15  3  1  0
 15 12  2  0
 16  4  2  0
 16 13  1  0
 17 14  1  0
 17 16  1  0
 18 11  1  0
 18 17  1  0
 19  5  1  0
 19 18  1  0
 20  6  1  0
 20  7  1  0
 20  8  1  0
 20 14  1  0
M  END
>  <NAME>  (466) 
8-METHOXY-2-METHYL-6-METHYLENE-7-(TRIMETHYLSILYL)METHYL-2-UNDECENE

>  <SYNONYMS>  (466) 


>  <SPECTRUM TYPE>  (466) 
MS1

>  <INSTRUMENT TYPE>  (466) 
EI-B

>  <INSTRUMENT>  (466) 
JEOL JMS-DX-300

>  <ION MODE>  (466) 
P

>  <INCHIKEY>  (466) 
CHILDVNDWKTFNC-UHFFFAOYSA-N

>  <FORMULA>  (466) 
C18H36OSi

>  <EXACT MASS>  (466) 
296.253542302

>  <MW>  (466) 
296

>  <ID>  (466) 
JP011393

>  <CONTRIBUTOR>  (466) 
University of Tokyo Team, {Faculty of Engineering, University of Tokyo

>  <COMMENT>  (466) 
SMILES=CCCC(OC)C(C(=C)CCC=C(C)C)C[Si](C)(C)C
InChI=InChI=1S/C18H36OSi/c1-9-11-18(19-5)17(14-20(6,7)8)16(4)13-10-12-15(2)3/h12,17-18H,4,9-11,13-14H2,1-3,5-8H3
computed SMILES=O(C)C(CCC)C(C(=C)CCC=C(C)C)C[Si](C)(C)C
accession=JP011393
date=2016.01.19 (Created 2008.10.21, modified 2011.05.06)
author=HISAHIRO HAGIWARA, INSTITUTE FOR CHEMICAL REACTION SCIENCE TOHOKU UNIV.
license=CC BY-NC-SA
exact mass=296.25354
ionization energy=70 eV
ion type=[M]+*
computed spectral entropy=2.725319097772536
computed normalized entropy=0.7159339986395726
SPLASH=splash10-000i-9100000000-1c812c5e9afa31a3ef63
submitter=submitter = University of Tokyo Team (Faculty of Engineering, University of Tokyo)
MoNA Rating=3.75

>  <NUM PEAKS>  (466) 
45

>  <MASS SPECTRAL PEAKS>  (466) 
39 1.1
41 8.1
43 1.7
45 35
46 1.1
53 1.2
55 9.9
57 5.3
59 6.6
67 3.7
71 1.6
73 53.1
74 5.5
75 3.3
77 1.2
79 1.6
81 7.4
82 1.3
86 1
87 99.99
88 7.5
89 13
90 1.2
91 1.3
93 2
95 1.2
101 1.7
105 8.2
107 1.7
109 1.5
110 2.9
123 6.5
125 1.1
135 4.5
136 1.2
141 3.6
147 3.9
149 2.2
194 2.2
195 2
221 1.1
222 1.4
227 3.5
264 2
296 1.1

>  <PREDICTED SPECTRUM>  (466) 
29 85
39 61
41 286
43 123
44 5
45 484
46 18
50 15
51 60
52 13
53 150
55 177
56 40
57 78
58 30
59 422
61 29
63 20
65 97
66 3
67 151
69 473
70 86
71 18
73 999
74 269
75 116
77 173
78 34
79 135
81 203
85 17
87 509
88 178
89 475
90 145
91 200
92 43
93 248
95 107
101 501
102 116
105 189
107 121
109 77
123 146
135 397
143 119
144 19
195 106
196 21
227 293
296 104

$$$$

     RDKit          2D

 21 20  0  0  0  0  0  0  0  0999 V2000
  -10.3923    6.7500    0.0000 C   0  0  0  0  0  0  0  0  0  0  0  0
    3.8971    6.0000    0.0000 C   0  0  0  0  0  0  0  0  0  0  0  0
    2.5981    8.2500    0.0000 C   0  0  0  0  0  0  0  0  0  0  0  0
   -2.5981    8.2500    0.0000 C   0  0  0  0  0  0  0  0  0  0  0  0
   -6.4952    9.0000    0.0000 C   0  0  0  0  0  0  0  0  0  0  0  0
   -5.9462    5.0490    0.0000 C   0  0  0  0  0  0  0  0  0  0  0  0
   -6.4952    3.0000    0.0000 C   0  0  0  0  0  0  0  0  0  0  0  0
   -4.4462    2.4510    0.0000 C   0  0  0  0  0  0  0  0  0  0  0  0
   -9.0933    6.0000    0.0000 C   0  0  0  0  0  0  0  0  0  0  0  0
   -7.7942    6.7500    0.0000 C   0  0  0  0  0  0  0  0  0  0  0  0
    0.0000    6.7500    0.0000 C   0  0  0  0  0  0  0  0  0  0  0  0
    1.2990    6.0000    0.0000 C   0  0  0  0  0  0  0  0  0  0  0  0
   -1.2990    6.0000    0.0000 C   0  0  0  0  0  0  0  0  0  0  0  0
   -6.4952    6.0000    0.0000 C   0  0  0  0  0  0  0  0  0  0  0  0
   -3.8971    4.5000    0.0000 C   0  0  0  0  0  0  0  0  0  0  0  0
    2.5981    6.7500    0.0000 C   0  0  0  0  0  0  0  0  0  0  0  0
   -2.5981    6.7500    0.0000 C   0  0  0  0  0  0  0  0  0  0  0  0
   -3.8971    6.0000    0.0000 C   0  0  0  0  0  0  0  0  0  0  0  0
   -5.1962    6.7500    0.0000 C   0  0  0  0  0  0  0  0  0  0  0  0
   -5.1962    8.2500    0.0000 O   0  0  0  0  0  0  0  0  0  0  0  0
   -5.1962    3.7500    0.0000 Si  0  0  0  0  0  4  0  0  0  0  0  0
  9  1  1  0
 10  9  1  0
 12 11  1  0
 13 11  1  0
 14 10  1  0
 16  2  1  0
 16  3  1  0
 16 12  2  0
 17  4  2  0
 17 13  1  0
 18 15  1  0
 18 17  1  0
 19 14  1  0
 19 18  1  0
 20  5  1  0
 20 19  1  0
 21  6  1  0
 21  7  1  0
 21  8  1  0
 21 15  1  0
M  END
>  <NAME>  (467) 
8-METHOXY-2-METHYL-6-METHYLENE-7-(TRIMETHYLSILYL)METHYL-2-DODECENE

>  <SYNONYMS>  (467) 


>  <SPECTRUM TYPE>  (467) 
MS1

>  <INSTRUMENT TYPE>  (467) 
EI-B

>  <INSTRUMENT>  (467) 
JEOL JMS-DX-300

>  <ION MODE>  (467) 
P

>  <INCHIKEY>  (467) 
DHDKZORTHXTREN-UHFFFAOYSA-N

>  <FORMULA>  (467) 
C19H38OSi

>  <EXACT MASS>  (467) 
310.26919236599997

>  <MW>  (467) 
310

>  <ID>  (467) 
JP011392

>  <CONTRIBUTOR>  (467) 
University of Tokyo Team, {Faculty of Engineering, University of Tokyo

>  <COMMENT>  (467) 
SMILES=CCCCC(OC)C(C(=C)CCC=C(C)C)C[Si](C)(C)C
InChI=InChI=1S/C19H38OSi/c1-9-10-14-19(20-5)18(15-21(6,7)8)17(4)13-11-12-16(2)3/h12,18-19H,4,9-11,13-15H2,1-3,5-8H3
computed SMILES=O(C)C(CCCC)C(C(=C)CCC=C(C)C)C[Si](C)(C)C
accession=JP011392
date=2016.01.19 (Created 2008.10.21, modified 2011.05.06)
author=HISAHIRO HAGIWARA, INSTITUTE FOR CHEMICAL REACTION SCIENCE TOHOKU UNIV.
license=CC BY-NC-SA
exact mass=310.26919
ionization energy=70 eV
ion type=[M]+*
computed spectral entropy=2.8379989984347405
computed normalized entropy=0.7371143374280591
SPLASH=splash10-0uk9-9700000000-d012423d913f346b657b
submitter=submitter = University of Tokyo Team (Faculty of Engineering, University of Tokyo)
MoNA Rating=3.75

>  <NUM PEAKS>  (467) 
47

>  <MASS SPECTRAL PEAKS>  (467) 
39 1.1
41 11
43 3.7
44 1.1
45 22.8
53 1.1
55 2.5
58 1.3
59 8.5
67 2.9
69 14.5
70 3.2
71 3.6
72 1.2
73 53.1
74 5.6
75 3.6
77 1.3
79 1.7
81 6.3
82 1.1
87 1.1
89 14.4
90 1.3
91 1.7
93 2.3
95 5.8
97 1.1
101 99.99
102 9.9
103 1.2
105 8.3
107 1.8
109 1.2
115 6.4
124 2.4
135 4.4
136 1.5
137 3.8
141 4.4
194 1.4
209 2.6
210 1.4
222 1.6
241 3.3
278 2.5
310 1.2

>  <PREDICTED SPECTRUM>  (467) 
39 41
41 256
43 101
45 356
47 15
50 1
51 57
52 6
53 99
55 140
57 85
58 11
59 392
61 39
63 21
65 77
66 14
67 158
68 24
69 660
70 117
71 161
73 810
74 105
75 4
76 2
77 165
78 42
79 131
80 23
81 258
82 69
83 75
89 400
90 94
91 136
92 3
93 192
95 178
99 59
100 15
101 999
102 208
103 59
105 164
107 142
108 29
109 116
110 21
111 46
129 22
135 359
136 21
137 187
140 11
141 33
145 12
147 1
149 46
150 38
151 17
165 64
169 39
176 4
177 34
209 182
210 95
241 219
277 16
278 137
310 99

$$$$

     RDKit          2D

 14 13  0  0  0  0  0  0  0  0999 V2000
   -8.3567    5.4743    0.0000 C   0  0  0  0  0  0  0  0  0  0  0  0
   -7.0577    3.2243    0.0000 C   0  0  0  0  0  0  0  0  0  0  0  0
   -1.8615    3.2243    0.0000 C   0  0  0  0  0  0  0  0  0  0  0  0
    2.7856    4.1752    0.0000 C   0  0  0  0  0  0  0  0  0  0  0  0
    3.3346    6.2243    0.0000 C   0  0  0  0  0  0  0  0  0  0  0  0
    1.2856    6.7733    0.0000 C   0  0  0  0  0  0  0  0  0  0  0  0
   -4.4596    4.7243    0.0000 C   0  0  0  0  0  0  0  0  0  0  0  0
   -5.7587    5.4743    0.0000 C   0  0  0  0  0  0  0  0  0  0  0  0
   -3.1606    5.4743    0.0000 C   0  0  0  0  0  0  0  0  0  0  0  0
   -0.5625    5.4743    0.0000 C   0  0  0  0  0  0  0  0  0  0  0  0
    0.7365    4.7243    0.0000 C   0  0  0  0  0  0  0  0  0  0  0  0
   -7.0577    4.7243    0.0000 C   0  0  0  0  0  0  0  0  0  0  0  0
   -1.8615    4.7243    0.0000 C   0  0  0  0  0  0  0  0  0  0  0  0
    2.0356    5.4743    0.0000 Si  0  0  0  0  0  4  0  0  0  0  0  0
  8  7  1  0
  9  7  1  0
 11 10  1  0
 12  1  1  0
 12  2  1  0
 12  8  2  0
 13  3  2  0
 13  9  1  0
 13 10  1  0
 14  4  1  0
 14  5  1  0
 14  6  1  0
 14 11  1  0
M  END
>  <NAME>  (468) 
2-METHYL-6-METHYLENE-8-TRIMETHYLSILYL-2-OCTENE

>  <SYNONYMS>  (468) 


>  <SPECTRUM TYPE>  (468) 
MS1

>  <INSTRUMENT TYPE>  (468) 
EI-B

>  <INSTRUMENT>  (468) 
JEOL JMS-DX-300

>  <ION MODE>  (468) 
P

>  <INCHIKEY>  (468) 
JAMFQSRTFAGHMG-UHFFFAOYSA-N

>  <FORMULA>  (468) 
C13H26Si

>  <EXACT MASS>  (468) 
210.180377362

>  <MW>  (468) 
210

>  <ID>  (468) 
JP011391

>  <CONTRIBUTOR>  (468) 
University of Tokyo Team, {Faculty of Engineering, University of Tokyo

>  <COMMENT>  (468) 
SMILES=CC(C)=CCCC(=C)CC[Si](C)(C)C
InChI=InChI=1S/C13H26Si/c1-12(2)8-7-9-13(3)10-11-14(4,5)6/h8H,3,7,9-11H2,1-2,4-6H3
computed SMILES=C=C(CCC=C(C)C)CC[Si](C)(C)C
accession=JP011391
date=2016.01.19 (Created 2008.10.21, modified 2011.05.06)
author=HISAHIRO HAGIWARA, INSTITUTE FOR CHEMICAL REACTION SCIENCE TOHOKU UNIV.
license=CC BY-NC-SA
exact mass=210.18038
ionization energy=70 eV
ion type=[M]+*
computed spectral entropy=2.6085517650734276
computed normalized entropy=0.6979085985324405
SPLASH=splash10-00di-9200000000-c92f675c8dd4c56022b7
submitter=submitter = University of Tokyo Team (Faculty of Engineering, University of Tokyo)
MoNA Rating=3.75

>  <NUM PEAKS>  (468) 
42

>  <MASS SPECTRAL PEAKS>  (468) 
39 2.2
41 21.2
42 1.1
43 2.6
44 1.4
45 7.7
53 2.1
55 1.5
58 1.2
59 8.3
67 2.4
68 1.3
70 2.6
71 1
72 1.8
73 99.99
74 11.6
75 5.1
77 1.2
79 1.2
83 1.4
85 2.4
93 4.1
95 1
97 1
99 1.9
101 1.8
107 1.5
108 2.5
109 6.7
111 1.5
113 1.7
121 1.6
127 2
136 7.8
137 1
139 3.1
141 7.5
142 1.2
153 1.2
167 5.4
210 4

>  <PREDICTED SPECTRUM>  (468) 
27 30
28 15
29 72
39 86
40 44
41 192
42 20
43 83
44 68
45 219
46 32
47 54
51 24
52 13
53 131
54 32
55 126
57 56
58 62
59 302
60 41
61 14
65 63
66 39
67 82
69 140
70 30
71 67
72 102
73 999
74 315
75 283
76 26
77 126
78 48
79 82
81 62
83 109
85 73
86 22
87 1
91 12
92 50
93 129
95 38
96 3
97 70
98 27
99 113
100 15
101 65
105 65
106 16
107 117
108 17
109 102
110 18
111 92
113 70
120 20
122 25
125 64
126 5
127 118
128 14
135 81
136 99
137 25
138 4
139 29
140 24
141 294
142 181
143 50
153 62
155 48
167 121
195 70
196 20
210 140
211 42

$$$$

     RDKit          2D

 13 12  0  0  0  0  0  0  0  0999 V2000
    2.1863    4.2623    0.0000 C   0  0  0  0  0  0  0  0  0  0  0  0
   -4.3089    2.0123    0.0000 C   0  0  0  0  0  0  0  0  0  0  0  0
   -6.3579    5.5613    0.0000 C   0  0  0  0  0  0  0  0  0  0  0  0
   -6.9070    3.5123    0.0000 C   0  0  0  0  0  0  0  0  0  0  0  0
   -4.8579    2.9632    0.0000 C   0  0  0  0  0  0  0  0  0  0  0  0
    0.8873    5.0123    0.0000 C   0  0  0  0  0  0  0  0  0  0  0  0
   -3.0099    2.7623    0.0000 C   0  0  0  0  0  0  0  0  0  0  0  0
   -0.4118    4.2623    0.0000 C   0  0  0  0  0  0  0  0  0  0  0  0
   -4.3089    5.0123    0.0000 C   0  0  0  0  0  0  0  0  0  0  0  0
   -3.0099    4.2623    0.0000 C   0  0  0  0  0  0  0  0  0  0  0  0
   -1.7108    5.0123    0.0000 C   0  0  0  0  0  0  0  0  0  0  0  0
   -1.7108    6.5123    0.0000 O   0  0  0  0  0  0  0  0  0  0  0  0
   -5.6079    4.2623    0.0000 Si  0  0  0  0  0  4  0  0  0  0  0  0
  6  1  1  0
  7  2  2  0
  8  6  1  0
 10  7  1  0
 10  9  1  0
 11  8  1  0
 11 10  1  0
 12 11  2  0
 13  3  1  0
 13  4  1  0
 13  5  1  0
 13  9  1  0
M  END
>  <NAME>  (469) 
3-(TRIMETHYLSILYL)METHYL-1-HEPTEN-4-ONE

>  <SYNONYMS>  (469) 


>  <SPECTRUM TYPE>  (469) 
MS1

>  <INSTRUMENT TYPE>  (469) 
EI-B

>  <INSTRUMENT>  (469) 
JEOL JMS-DX-300

>  <ION MODE>  (469) 
P

>  <INCHIKEY>  (469) 
HZMBUJNSEJGMND-UHFFFAOYSA-N

>  <FORMULA>  (469) 
C11H22OSi

>  <EXACT MASS>  (469) 
198.14399185399998

>  <MW>  (469) 
198

>  <ID>  (469) 
JP011390

>  <CONTRIBUTOR>  (469) 
University of Tokyo Team, {Faculty of Engineering, University of Tokyo

>  <COMMENT>  (469) 
SMILES=CCCC(=O)C(C=C)C[Si](C)(C)C
InChI=InChI=1S/C11H22OSi/c1-6-8-11(12)10(7-2)9-13(3,4)5/h7,10H,2,6,8-9H2,1,3-5H3
computed SMILES=O=C(CCC)C(C=C)C[Si](C)(C)C
accession=JP011390
date=2016.01.19 (Created 2008.10.21, modified 2011.05.06)
author=HISAHIRO HAGIWARA, INSTITUTE FOR CHEMICAL REACTION SCIENCE TOHOKU UNIV.
license=CC BY-NC-SA
exact mass=198.14399
ionization energy=70 eV
ion type=[M]+*
computed spectral entropy=2.7072942150758794
computed normalized entropy=0.7243267842167607
SPLASH=splash10-00di-9300000000-4daef33fbf5c05fff09a
submitter=submitter = University of Tokyo Team (Faculty of Engineering, University of Tokyo)
MoNA Rating=3.75

>  <NUM PEAKS>  (469) 
42

>  <MASS SPECTRAL PEAKS>  (469) 
39 1.5
41 3.9
43 13.5
44 1.9
45 9.4
47 1.3
55 1.4
57 1
58 1.8
59 4.3
61 1.7
67 2.5
71 16.3
72 2.2
73 99.99
74 12.1
75 31.5
76 2.5
77 2.5
79 1.3
85 1.5
95 1
97 2.6
99 1.1
101 2.1
109 1.2
111 1.2
116 1.1
127 11.2
128 1.9
129 2.5
130 1.3
141 2.3
144 1.6
155 24
156 4.1
157 1.4
170 2.1
183 22.2
184 4
185 1.2
198 2.6

>  <PREDICTED SPECTRUM>  (469) 
27 50
28 11
29 79
39 81
40 18
41 129
43 234
44 63
45 272
46 30
47 105
51 1
53 87
55 197
56 52
57 131
58 78
59 198
60 29
61 78
63 2
65 50
67 64
69 79
70 31
71 217
72 139
73 999
74 272
75 548
76 115
77 36
79 78
80 29
81 80
83 62
85 93
93 68
94 9
95 109
96 42
97 120
99 62
101 11
108 21
111 51
113 129
115 70
125 5
126 0
127 236
128 138
129 251
130 157
131 19
139 11
141 108
142 86
143 91
144 59
153 14
155 517
156 204
157 70
169 65
170 100
171 103
183 412
184 160
185 64
198 210
199 83
200 34

$$$$

     RDKit          2D

 14 13  0  0  0  0  0  0  0  0999 V2000
   -3.9841    1.4498    0.0000 C   0  0  0  0  0  0  0  0  0  0  0  0
    2.5111    3.6998    0.0000 C   0  0  0  0  0  0  0  0  0  0  0  0
    1.2120    5.9498    0.0000 C   0  0  0  0  0  0  0  0  0  0  0  0
   -6.0332    4.9988    0.0000 C   0  0  0  0  0  0  0  0  0  0  0  0
   -6.5822    2.9498    0.0000 C   0  0  0  0  0  0  0  0  0  0  0  0
   -4.5332    2.4007    0.0000 C   0  0  0  0  0  0  0  0  0  0  0  0
   -2.6851    2.1998    0.0000 C   0  0  0  0  0  0  0  0  0  0  0  0
   -0.0870    3.6998    0.0000 C   0  0  0  0  0  0  0  0  0  0  0  0
   -3.9841    4.4498    0.0000 C   0  0  0  0  0  0  0  0  0  0  0  0
    1.2120    4.4498    0.0000 C   0  0  0  0  0  0  0  0  0  0  0  0
   -2.6851    3.6998    0.0000 C   0  0  0  0  0  0  0  0  0  0  0  0
   -1.3861    4.4498    0.0000 C   0  0  0  0  0  0  0  0  0  0  0  0
   -1.3861    5.9498    0.0000 O   0  0  0  0  0  0  0  0  0  0  0  0
   -5.2832    3.6998    0.0000 Si  0  0  0  0  0  4  0  0  0  0  0  0
  7  1  2  0
 10  2  1  0
 10  3  1  0
 10  8  1  0
 11  7  1  0
 11  9  1  0
 12  8  1  0
 12 11  1  0
 13 12  2  0
 14  4  1  0
 14  5  1  0
 14  6  1  0
 14  9  1  0
M  END
>  <NAME>  (470) 
6-METHYL-3-(TRIMETHYLSILYL)METHYL-1-HEPTEN-4-ONE

>  <SYNONYMS>  (470) 


>  <SPECTRUM TYPE>  (470) 
MS1

>  <INSTRUMENT TYPE>  (470) 
EI-B

>  <INSTRUMENT>  (470) 
JEOL JMS-DX-300

>  <ION MODE>  (470) 
P

>  <INCHIKEY>  (470) 
XOMWHWHZCDVEAJ-UHFFFAOYSA-N

>  <FORMULA>  (470) 
C12H24OSi

>  <EXACT MASS>  (470) 
212.159641918

>  <MW>  (470) 
212

>  <ID>  (470) 
JP011389

>  <CONTRIBUTOR>  (470) 
University of Tokyo Team, {Faculty of Engineering, University of Tokyo

>  <COMMENT>  (470) 
SMILES=CC(C)CC(=O)C(C=C)C[Si](C)(C)C
InChI=InChI=1S/C12H24OSi/c1-7-11(9-14(4,5)6)12(13)8-10(2)3/h7,10-11H,1,8-9H2,2-6H3
computed SMILES=O=C(CC(C)C)C(C=C)C[Si](C)(C)C
accession=JP011389
date=2016.01.19 (Created 2008.10.21, modified 2011.05.06)
author=HISAHIRO HAGIWARA, INSTITUTE FOR CHEMICAL REACTION SCIENCE TOHOKU UNIV.
license=CC BY-NC-SA
exact mass=212.15964
ionization energy=70 eV
ion type=[M]+*
computed spectral entropy=2.7644738749165683
computed normalized entropy=0.7262198533086569
SPLASH=splash10-00di-9200000000-831b2e74ef2b0c60fe9b
submitter=submitter = University of Tokyo Team (Faculty of Engineering, University of Tokyo)
MoNA Rating=3.75

>  <NUM PEAKS>  (470) 
45

>  <MASS SPECTRAL PEAKS>  (470) 
39 2.1
41 7.9
42 1.2
43 5.1
44 1.8
45 9.2
47 1.4
53 1
55 1.5
57 24
58 2.2
59 3.7
61 1.5
67 1.6
71 1
72 1.5
73 99.99
74 10.5
75 26
76 2.1
77 1.9
79 1.6
83 3
85 20
86 1.3
95 1
97 2.4
101 1.6
107 1.3
111 1
115 1
116 1
127 8.2
128 1.4
130 1.7
141 4.7
142 1.1
155 19.4
156 3.1
157 3
170 2.2
197 18.1
198 3.3
199 1.1
212 0.5

>  <PREDICTED SPECTRUM>  (470) 
27 77
28 10
29 84
39 153
40 36
41 265
42 27
43 261
44 53
45 274
47 103
51 8
52 4
53 98
55 140
56 13
57 355
58 95
59 208
60 15
61 140
65 63
66 13
67 80
68 0
69 145
71 117
72 18
73 999
74 274
75 570
76 98
77 100
78 26
79 133
80 76
81 96
82 11
83 99
84 26
85 394
86 65
93 54
95 24
97 97
99 47
101 0
102 0
105 27
107 71
108 18
111 117
113 148
125 37
127 175
128 57
129 66
141 123
142 46
143 61
153 19
155 580
156 254
157 168
169 87
170 57
197 332
198 112
199 12
212 65

$$$$

     RDKit          2D

 14 13  0  0  0  0  0  0  0  0999 V2000
   -8.2697    4.9755    0.0000 C   0  0  0  0  0  0  0  0  0  0  0  0
   -0.4755    1.9755    0.0000 C   0  0  0  0  0  0  0  0  0  0  0  0
    0.0736    2.9264    0.0000 C   0  0  0  0  0  0  0  0  0  0  0  0
    2.1226    3.4755    0.0000 C   0  0  0  0  0  0  0  0  0  0  0  0
    1.5736    5.5245    0.0000 C   0  0  0  0  0  0  0  0  0  0  0  0
   -6.9707    4.2255    0.0000 C   0  0  0  0  0  0  0  0  0  0  0  0
   -1.7745    2.7255    0.0000 C   0  0  0  0  0  0  0  0  0  0  0  0
   -5.6716    4.9755    0.0000 C   0  0  0  0  0  0  0  0  0  0  0  0
   -4.3726    4.2255    0.0000 C   0  0  0  0  0  0  0  0  0  0  0  0
   -0.4755    4.9755    0.0000 C   0  0  0  0  0  0  0  0  0  0  0  0
   -1.7745    4.2255    0.0000 C   0  0  0  0  0  0  0  0  0  0  0  0
   -3.0736    4.9755    0.0000 C   0  0  0  0  0  0  0  0  0  0  0  0
   -3.0736    6.4755    0.0000 O   0  0  0  0  0  0  0  0  0  0  0  0
    0.8236    4.2255    0.0000 Si  0  0  0  0  0  4  0  0  0  0  0  0
  6  1  1  0
  7  2  2  0
  8  6  1  0
  9  8  1  0
 11  7  1  0
 11 10  1  0
 12  9  1  0
 12 11  1  0
 13 12  2  0
 14  3  1  0
 14  4  1  0
 14  5  1  0
 14 10  1  0
M  END
>  <NAME>  (471) 
3-(TRIMETHYLSILYL)METHYL-1-OCTEN-4-ONE

>  <SYNONYMS>  (471) 


>  <SPECTRUM TYPE>  (471) 
MS1

>  <INSTRUMENT TYPE>  (471) 
EI-B

>  <INSTRUMENT>  (471) 
JEOL JMS-DX-300

>  <ION MODE>  (471) 
P

>  <INCHIKEY>  (471) 
XEQPALKIEVLRRQ-UHFFFAOYSA-N

>  <FORMULA>  (471) 
C12H24OSi

>  <EXACT MASS>  (471) 
212.15964191799998

>  <MW>  (471) 
212

>  <ID>  (471) 
JP011388

>  <CONTRIBUTOR>  (471) 
University of Tokyo Team, {Faculty of Engineering, University of Tokyo

>  <COMMENT>  (471) 
SMILES=CCCCC(=O)C(C=C)C[Si](C)(C)C
InChI=InChI=1S/C12H24OSi/c1-6-8-9-12(13)11(7-2)10-14(3,4)5/h7,11H,2,6,8-10H2,1,3-5H3
computed SMILES=O=C(CCCC)C(C=C)C[Si](C)(C)C
accession=JP011388
date=2016.01.19 (Created 2008.10.21, modified 2011.05.06)
author=HISAHIRO HAGIWARA, INSTITUTE FOR CHEMICAL REACTION SCIENCE TOHOKU UNIV.
license=CC BY-NC-SA
exact mass=212.15964
ionization energy=70 eV
ion type=[M]+*
computed spectral entropy=3.048992693589004
computed normalized entropy=0.7754648802867652
SPLASH=splash10-00fr-9300000000-99f1911610c06a5467c5
submitter=submitter = University of Tokyo Team (Faculty of Engineering, University of Tokyo)
MoNA Rating=3.75

>  <NUM PEAKS>  (471) 
51

>  <MASS SPECTRAL PEAKS>  (471) 
39 2.1
41 8.4
43 5.5
44 2.5
45 11.7
47 1.6
53 1.3
55 2.7
57 22.1
58 3.1
59 5.7
61 2
67 2.8
71 1.3
72 1.9
73 99.99
74 13.8
75 34.6
76 30
77 3.2
79 1.7
81 3.1
83 1.1
85 21.6
86 1.5
93 1.3
95 1.3
97 3.4
99 1.1
101 1.8
111 1.3
115 1.7
116 1.6
127 12.6
128 2.2
129 2
130 1.5
141 2.8
143 3.5
155 31.8
156 5.6
157 3.4
170 6.9
171 1.3
183 15.2
184 2.8
185 1.1
197 18.7
198 3.7
199 1.1
212 1

>  <PREDICTED SPECTRUM>  (471) 
26 0
27 74
28 17
29 94
39 91
40 6
41 193
42 1
43 215
44 34
45 265
46 5
47 118
53 88
54 41
55 158
56 25
57 350
58 147
59 330
60 69
61 183
65 32
66 19
67 72
68 11
69 105
70 13
71 153
72 59
73 999
74 308
75 626
76 112
77 70
78 26
79 128
80 80
81 93
82 38
83 89
84 20
85 366
86 102
87 31
93 157
94 87
95 77
97 103
99 146
100 40
101 83
102 46
107 5
108 18
109 26
110 29
111 99
112 2
113 152
116 15
122 28
127 266
128 137
129 240
130 13
141 76
142 57
143 146
144 60
153 2
154 5
155 563
156 217
157 178
159 26
169 115
170 108
183 322
184 120
185 153
197 385
198 149
199 53
211 39
212 138
213 38
214 26

$$$$

     RDKit          2D

 14 13  0  0  0  0  0  0  0  0999 V2000
   -7.2954    5.5380    0.0000 C   0  0  0  0  0  0  0  0  0  0  0  0
   -0.8002    3.2880    0.0000 C   0  0  0  0  0  0  0  0  0  0  0  0
   -4.6974    2.5380    0.0000 C   0  0  0  0  0  0  0  0  0  0  0  0
    1.0478    3.4889    0.0000 C   0  0  0  0  0  0  0  0  0  0  0  0
    3.0969    4.0380    0.0000 C   0  0  0  0  0  0  0  0  0  0  0  0
    2.5478    6.0870    0.0000 C   0  0  0  0  0  0  0  0  0  0  0  0
   -5.9964    4.7880    0.0000 C   0  0  0  0  0  0  0  0  0  0  0  0
   -4.6974    5.5380    0.0000 C   0  0  0  0  0  0  0  0  0  0  0  0
   -2.0993    5.5380    0.0000 C   0  0  0  0  0  0  0  0  0  0  0  0
    0.4988    5.5380    0.0000 C   0  0  0  0  0  0  0  0  0  0  0  0
   -0.8002    4.7880    0.0000 C   0  0  0  0  0  0  0  0  0  0  0  0
   -3.3983    4.7880    0.0000 C   0  0  0  0  0  0  0  0  0  0  0  0
   -3.3983    3.2880    0.0000 O   0  0  0  0  0  0  0  0  0  0  0  0
    1.7978    4.7880    0.0000 Si  0  0  0  0  0  4  0  0  0  0  0  0
  7  1  1  0
  8  7  1  0
 11  2  2  0
 11  9  1  0
 11 10  1  0
 12  8  1  0
 12  9  1  0
 13  3  1  0
 13 12  1  0
 14  4  1  0
 14  5  1  0
 14  6  1  0
 14 10  1  0
M  END
>  <NAME>  (472) 
4-METHOXY-3-(TRIMEHYLSILYL)METHYL-1-HEPTENE

>  <SYNONYMS>  (472) 


>  <SPECTRUM TYPE>  (472) 
MS1

>  <INSTRUMENT TYPE>  (472) 
EI-B

>  <INSTRUMENT>  (472) 
JEOL JMS-DX-300

>  <ION MODE>  (472) 
P

>  <INCHIKEY>  (472) 
GFJSMWFWSLNDHO-UHFFFAOYSA-N

>  <FORMULA>  (472) 
C12H26OSi

>  <EXACT MASS>  (472) 
214.17529198199998

>  <MW>  (472) 
214

>  <ID>  (472) 
JP011387

>  <CONTRIBUTOR>  (472) 
University of Tokyo Team, {Faculty of Engineering, University of Tokyo

>  <COMMENT>  (472) 
InChI=InChI=1S/C12H26OSi/c1-7-8-12(13-3)9-11(2)10-14(4,5)6/h12H,2,7-10H2,1,3-6H3
SMILES=CCCC(OC)CC(=C)C[Si](C)(C)C
computed SMILES=O(C)C(CC(=C)C[Si](C)(C)C)CCC
accession=JP011387
date=2016.01.19 (Created 2008.10.21, modified 2011.05.06)
author=HISAHIRO HAGIWARA, INSTITUTE FOR CHEMICAL REACTION SCIENCE TOHOKU UNIV.
license=CC BY-NC-SA
exact mass=214.17529
ionization energy=70 eV
ion type=[M]+*
computed spectral entropy=2.4914648176731293
computed normalized entropy=0.6899810181086794
SPLASH=splash10-000i-9000000000-c3036d2ec7ab82f4f4a0
submitter=submitter = University of Tokyo Team (Faculty of Engineering, University of Tokyo)
MoNA Rating=3.75

>  <NUM PEAKS>  (472) 
37

>  <MASS SPECTRAL PEAKS>  (472) 
39 1.3
41 3.3
43 3.2
44 1.5
45 55.1
46 2.1
54 1.8
55 16.1
56 1
57 8.8
58 2.6
59 8.9
67 6.5
68 2.2
71 2.4
72 1.3
73 35.3
74 3.8
75 3.2
77 1.3
81 2.3
82 1.2
85 1.1
86 1.3
87 99.99
88 9.9
89 29.8
90 3.1
91 1.5
95 1.2
97 2.1
103 1
110 3.9
127 1.2
128 1.8
167 1
183 0.5

>  <PREDICTED SPECTRUM>  (472) 
29 58
31 16
39 110
40 33
41 222
42 103
43 252
44 67
45 600
46 54
47 20
51 30
52 19
53 134
54 74
55 326
56 37
57 161
58 300
59 673
61 123
66 11
67 230
68 85
69 314
70 90
71 187
72 10
73 999
74 124
75 53
81 148
82 91
83 133
84 81
85 194
86 56
87 554
88 276
89 620
90 19
95 90
97 104
99 172
101 170
102 23
110 13
111 84
112 5
113 194
114 53
115 10
125 35
127 78
131 52

$$$$

     RDKit          2D

 15 14  0  0  0  0  0  0  0  0999 V2000
   -8.2697    4.9755    0.0000 C   0  0  0  0  0  0  0  0  0  0  0  0
   -0.4755    1.9755    0.0000 C   0  0  0  0  0  0  0  0  0  0  0  0
   -4.3726    7.2255    0.0000 C   0  0  0  0  0  0  0  0  0  0  0  0
    0.0736    2.9264    0.0000 C   0  0  0  0  0  0  0  0  0  0  0  0
    2.1226    3.4755    0.0000 C   0  0  0  0  0  0  0  0  0  0  0  0
    1.5736    5.5245    0.0000 C   0  0  0  0  0  0  0  0  0  0  0  0
   -6.9707    4.2255    0.0000 C   0  0  0  0  0  0  0  0  0  0  0  0
   -1.7745    2.7255    0.0000 C   0  0  0  0  0  0  0  0  0  0  0  0
   -5.6716    4.9755    0.0000 C   0  0  0  0  0  0  0  0  0  0  0  0
   -4.3726    4.2255    0.0000 C   0  0  0  0  0  0  0  0  0  0  0  0
   -0.4755    4.9755    0.0000 C   0  0  0  0  0  0  0  0  0  0  0  0
   -1.7745    4.2255    0.0000 C   0  0  0  0  0  0  0  0  0  0  0  0
   -3.0736    4.9755    0.0000 C   0  0  0  0  0  0  0  0  0  0  0  0
   -3.0736    6.4755    0.0000 O   0  0  0  0  0  0  0  0  0  0  0  0
    0.8236    4.2255    0.0000 Si  0  0  0  0  0  4  0  0  0  0  0  0
  7  1  1  0
  8  2  2  0
  9  7  1  0
 10  9  1  0
 12  8  1  0
 12 11  1  0
 13 10  1  0
 13 12  1  0
 14  3  1  0
 14 13  1  0
 15  4  1  0
 15  5  1  0
 15  6  1  0
 15 11  1  0
M  END
>  <NAME>  (473) 
4-METHOXY-3-(TRIMETHYLSILYL)METHYL-1-OCTENE

>  <SYNONYMS>  (473) 


>  <SPECTRUM TYPE>  (473) 
MS1

>  <INSTRUMENT TYPE>  (473) 
EI-B

>  <INSTRUMENT>  (473) 
JEOL JMS-DX-300

>  <ION MODE>  (473) 
P

>  <INCHIKEY>  (473) 
BLPVQRKCHUVWDZ-UHFFFAOYSA-N

>  <FORMULA>  (473) 
C13H28OSi

>  <EXACT MASS>  (473) 
228.19094204599998

>  <MW>  (473) 
228

>  <ID>  (473) 
JP011386

>  <CONTRIBUTOR>  (473) 
University of Tokyo Team, {Faculty of Engineering, University of Tokyo

>  <COMMENT>  (473) 
SMILES=CCCCC(OC)C(C=C)C[Si](C)(C)C
InChI=InChI=1S/C13H28OSi/c1-7-9-10-13(14-3)12(8-2)11-15(4,5)6/h8,12-13H,2,7,9-11H2,1,3-6H3
computed SMILES=O(C)C(CCCC)C(C=C)C[Si](C)(C)C
accession=JP011386
date=2016.01.19 (Created 2008.10.21, modified 2011.05.06)
author=HISAHIRO HAGIWARA, INSTITUTE FOR CHEMICAL REACTION SCIENCE TOHOKU UNIV.
license=CC BY-NC-SA
exact mass=228.19094
ionization energy=70 eV
ion type=[M]+*
computed spectral entropy=2.6496088652777536
computed normalized entropy=0.7134933206316386
SPLASH=splash10-0udi-9500000000-8732c9438cf51ace4c83
submitter=submitter = University of Tokyo Team (Faculty of Engineering, University of Tokyo)
MoNA Rating=3.75

>  <NUM PEAKS>  (473) 
41

>  <MASS SPECTRAL PEAKS>  (473) 
39 1.5
41 9.9
42 1
43 4.6
44 1.6
45 36.7
46 1.3
53 1
54 1.5
55 2.9
57 1.1
58 2.9
59 10.5
60 1
67 7.1
68 1.6
69 29.1
70 5.2
71 5.8
72 1.4
73 32.9
74 3.5
75 3
77 1.4
81 1.4
82 2.3
83 1
85 1.2
89 29.5
90 3
91 1.5
95 1.4
96 1.4
97 2.6
101 99.99
102 11.4
103 1.8
124 2.2
127 1.3
128 1.6
197 1

>  <PREDICTED SPECTRUM>  (473) 
29 63
38 1
39 145
40 73
41 299
42 82
43 120
44 10
45 478
46 54
47 41
50 6
51 63
52 30
53 132
54 32
55 388
56 71
57 102
58 223
59 552
60 68
61 140
62 38
63 57
65 74
66 13
67 208
68 167
69 660
70 213
71 287
72 55
73 915
74 202
75 85
76 62
77 50
81 168
82 151
83 116
85 131
86 64
87 73
88 8
89 649
90 196
91 136
95 146
96 90
97 170
101 999
102 314
103 40
105 24
110 5
111 6
116 12
127 157
128 139
129 10
159 42
171 53

$$$$

     RDKit          2D

 21 20  0  0  0  0  0  0  0  0999 V2000
    3.2476    5.6250    0.0000 C   0  0  0  0  0  0  0  0  0  0  0  0
    1.9486    7.8750    0.0000 C   0  0  0  0  0  0  0  0  0  0  0  0
   -9.7428    5.6250    0.0000 C   0  0  0  0  0  0  0  0  0  0  0  0
   -8.4437    7.8750    0.0000 C   0  0  0  0  0  0  0  0  0  0  0  0
   -3.2476    7.8750    0.0000 C   0  0  0  0  0  0  0  0  0  0  0  0
   -7.1447    8.6250    0.0000 C   0  0  0  0  0  0  0  0  0  0  0  0
   -6.5957    4.6740    0.0000 C   0  0  0  0  0  0  0  0  0  0  0  0
   -7.1447    2.6250    0.0000 C   0  0  0  0  0  0  0  0  0  0  0  0
   -5.0957    2.0760    0.0000 C   0  0  0  0  0  0  0  0  0  0  0  0
   -0.6495    6.3750    0.0000 C   0  0  0  0  0  0  0  0  0  0  0  0
    0.6495    5.6250    0.0000 C   0  0  0  0  0  0  0  0  0  0  0  0
   -1.9486    5.6250    0.0000 C   0  0  0  0  0  0  0  0  0  0  0  0
   -7.1447    5.6250    0.0000 C   0  0  0  0  0  0  0  0  0  0  0  0
   -4.5466    4.1250    0.0000 C   0  0  0  0  0  0  0  0  0  0  0  0
    1.9486    6.3750    0.0000 C   0  0  0  0  0  0  0  0  0  0  0  0
   -8.4437    6.3750    0.0000 C   0  0  0  0  0  0  0  0  0  0  0  0
   -3.2476    6.3750    0.0000 C   0  0  0  0  0  0  0  0  0  0  0  0
   -4.5466    5.6250    0.0000 C   0  0  0  0  0  0  0  0  0  0  0  0
   -5.8457    6.3750    0.0000 C   0  0  0  0  0  0  0  0  0  0  0  0
   -5.8457    7.8750    0.0000 O   0  0  0  0  0  0  0  0  0  0  0  0
   -5.8457    3.3750    0.0000 Si  0  0  0  0  0  4  0  0  0  0  0  0
 11 10  1  0
 12 10  1  0
 15  1  1  0
 15  2  1  0
 15 11  2  0
 16  3  1  0
 16  4  1  0
 16 13  1  0
 17  5  2  0
 17 12  1  0
 18 14  1  0
 18 17  1  0
 19 13  1  0
 19 18  1  0
 20  6  1  0
 20 19  1  0
 21  7  1  0
 21  8  1  0
 21  9  1  0
 21 14  1  0
M  END
>  <NAME>  (474) 
8-METHOXY-2,10-DIMETHYL-6-METHYLENE-7-(TRIMETHYLSILYL)METHYL-2-UNDECENE

>  <SYNONYMS>  (474) 


>  <SPECTRUM TYPE>  (474) 
MS1

>  <INSTRUMENT TYPE>  (474) 
EI-B

>  <INSTRUMENT>  (474) 
JEOL JMS-DX-300

>  <ION MODE>  (474) 
P

>  <INCHIKEY>  (474) 
ZJJKDNJZLGKDGV-UHFFFAOYSA-N

>  <FORMULA>  (474) 
C19H38OSi

>  <EXACT MASS>  (474) 
310.26919236599997

>  <MW>  (474) 
310

>  <ID>  (474) 
JP011385

>  <CONTRIBUTOR>  (474) 
University of Tokyo Team, {Faculty of Engineering, University of Tokyo

>  <COMMENT>  (474) 
SMILES=CC(C)=CCCC(=C)C(C[Si](C)(C)C)C(OC)CC(C)C
InChI=InChI=1S/C19H38OSi/c1-15(2)11-10-12-17(5)18(14-21(7,8)9)19(20-6)13-16(3)4/h11,16,18-19H,5,10,12-14H2,1-4,6-9H3
computed SMILES=O(C)C(CC(C)C)C(C(=C)CCC=C(C)C)C[Si](C)(C)C
license=CC BY-NC-SA
accession=JP011385
date=2016.01.19 (Created 2008.10.21, modified 2011.05.06)
author=HISAHIRO HAGIWARA, INSTITUTE FOR CHEMICAL REACTION SCIENCE TOHOKU UNIV.
exact mass=310.26919
ionization energy=70 eV
ion type=[M]+*
computed spectral entropy=2.7470028625246723
computed normalized entropy=0.7926174814144263
SPLASH=splash10-0uk9-9500000000-02110dc0bff6ee42c5ed
submitter=submitter = University of Tokyo Team (Faculty of Engineering, University of Tokyo)
MoNA Rating=3.75

>  <NUM PEAKS>  (474) 
32

>  <MASS SPECTRAL PEAKS>  (474) 
41 10.5
43 10.8
45 25
55 2.8
59 22.6
67 2.5
69 31.4
70 4.5
71 11.9
73 58.5
74 6.6
75 3.9
79 2
81 9.4
85 3
89 14.5
93 2.6
95 4.6
101 99.99
102 11.7
105 8.1
107 2.2
124 2.7
135 6.1
137 3.5
141 4.3
194 2.1
209 3.9
222 4.1
241 5
278 3
310 2.3

>  <PREDICTED SPECTRUM>  (474) 
29 48
39 92
40 2
41 366
42 7
43 129
45 463
46 8
47 31
50 26
51 68
52 22
53 106
55 181
56 3
57 111
58 26
59 476
60 5
61 49
62 1
63 36
65 92
66 30
67 175
68 29
69 726
70 118
71 160
73 845
74 220
75 73
76 37
77 151
78 56
79 159
80 50
81 311
82 75
83 58
85 21
89 346
90 73
91 141
92 19
93 201
95 189
99 80
100 48
101 999
102 314
103 97
104 28
105 122
106 25
107 158
108 31
109 126
111 21
113 2
119 3
121 48
122 5
123 17
127 11
129 43
135 293
136 33
137 153
141 93
145 42
149 81
150 42
151 23
153 13
169 7
174 14
176 17
177 75
178 0
209 172
210 90
241 269
277 75
278 153
310 57

$$$$

     RDKit          2D

 29 32  0  0  1  0  0  0  0  0999 V2000
    9.5655    7.2342    0.0000 C   0  0  0  0  0  0  0  0  0  0  0  0
    7.1046    8.0672    0.0000 C   0  0  0  0  0  0  0  0  0  0  0  0
    8.6037    4.3926    0.0000 C   0  0  0  0  0  0  0  0  0  0  0  0
    3.2009    4.6377    0.0000 C   0  0  0  0  0  0  0  0  0  0  0  0
   -1.6125    0.9400    0.0000 C   0  0  0  0  0  0  0  0  0  0  0  0
    2.4507    3.1203    0.0000 C   0  0  0  0  0  0  0  0  0  0  0  0
    6.1427    5.2256    0.0000 C   0  0  0  0  0  0  0  0  0  0  0  0
    5.6618    3.8047    0.0000 C   0  0  0  0  0  0  0  0  0  0  0  0
   -0.3200   -2.8400    0.0000 C   0  0  0  0  0  0  0  0  0  0  0  0
    1.0100   -2.0900    0.0000 C   0  0  0  0  0  0  0  0  0  0  0  0
    4.5500    0.8800    0.0000 C   0  0  0  0  0  0  0  0  0  0  0  0
    3.7100   -0.3100    0.0000 C   0  0  0  0  0  0  0  0  0  0  0  0
   -4.2000   -0.5600    0.0000 C   0  0  0  0  0  0  0  0  0  0  0  0
   -0.3200    1.6300    0.0000 C   0  0  0  0  0  0  0  0  0  0  0  0
   -2.8900    0.1600    0.0000 C   0  0  0  0  0  0  0  0  0  0  0  0
    1.0100    2.3900    0.0000 C   0  0  0  0  0  0  0  0  0  0  0  0
   -2.8900   -2.8400    0.0000 C   0  0  0  0  0  0  0  0  0  0  0  0
    8.0946    6.9403    0.0000 C   0  0  0  0  0  0  0  0  0  0  0  0
    7.6137    5.5195    0.0000 C   0  0  0  0  0  0  0  0  0  0  0  0
    4.1909    3.5108    0.0000 C   0  0  0  0  0  0  0  0  0  0  0  0
   -1.6200   -2.0900    0.0000 C   0  0  0  0  0  0  0  0  0  0  0  0
   -4.2000   -2.0900    0.0000 C   0  0  0  0  0  0  0  0  0  0  0  0
    1.0100   -0.5600    0.0000 C   0  0  0  0  0  0  0  0  0  0  0  0
    3.7100    2.0900    0.0000 C   0  0  0  0  0  0  0  0  0  0  0  0
    2.2800    0.1600    0.0000 C   0  0  0  0  0  0  0  0  0  0  0  0
   -0.3200    0.1600    0.0000 C   0  0  0  0  0  0  0  0  0  0  0  0
   -1.6200   -0.5600    0.0000 C   0  0  0  0  0  0  0  0  0  0  0  0
    2.2800    1.6300    0.0000 C   0  0  0  0  0  0  0  0  0  0  0  0
   -5.4977   -2.8424    0.0000 O   0  0  0  0  0  0  0  0  0  0  0  0
  7  8  2  0
 10  9  1  0
 12 11  1  0
 15 13  1  0
 16 14  1  0
 18  1  1  0
 18  2  1  0
 19  3  1  6
 19  7  1  0
 19 18  1  0
 20  4  1  6
 20  8  1  0
 21  9  2  0
 21 17  1  0
 22 13  1  0
 22 17  1  0
 23 10  2  0
 24 11  1  1
 24 20  1  0
 25 12  1  1
 25 23  1  0
 26 14  1  1
 26 23  1  0
 27  5  1  1
 27 15  1  0
 27 21  1  0
 27 26  1  0
 28  6  1  1
 28 16  1  0
 28 24  1  0
 28 25  1  0
 22 29  1  1
M  END
>  <NAME>  (475) 
ERGOSTEROL

>  <SYNONYMS>  (475) 
ERGOSTA-5,7,22-TRIEN-3BETA-OL

>  <SPECTRUM TYPE>  (475) 
MS1

>  <INSTRUMENT TYPE>  (475) 
EI-B

>  <INSTRUMENT>  (475) 
JEOL JMS-DX-300

>  <ION MODE>  (475) 
P

>  <INCHIKEY>  (475) 
DNVPQKQSNYMLRS-NBEWGGKZSA-N

>  <FORMULA>  (475) 
C28H44O

>  <EXACT MASS>  (475) 
396.33921602799995

>  <MW>  (475) 
396

>  <ID>  (475) 
JP011384

>  <CONTRIBUTOR>  (475) 
University of Tokyo Team, {Faculty of Engineering, University of Tokyo

>  <COMMENT>  (475) 
SMILES=C(=CC([H])(C)C(C)C)C(C(C4)([H])C(C3(C4)[H])(CCC(C=23)(C(C1)(C)C(=CC2)CC(O)C1)[H])C)([H])C
InChI=InChI=1S/C28H44O/c1-18(2)19(3)7-8-20(4)24-11-12-25-23-10-9-21-17-22(29)13-15-27(21,5)26(23)14-16-28(24,25)6/h7-10,18-20,22,24-26,29H,11-17H2,1-6H3/b8-7+/t19-,20-,22+,24-,25+,26+,27+,28-/m1/s1
computed SMILES=OC1CC2=CC=C3C(CCC4(C)C3CCC4C(C=CC(C)C(C)C)C)C2(C)CC1
accession=JP011384
date=2016.01.19 (Created 2008.10.21, modified 2011.05.06)
author=HISAHIRO HAGIWARA, INSTITUTE FOR CHEMICAL REACTION SCIENCE TOHOKU UNIV.
license=CC BY-NC-SA
exact mass=396.33922
ionization energy=70 eV
ion type=[M]+*
computed spectral entropy=3.734081964342168
computed normalized entropy=0.9497069079726349
SPLASH=splash10-0aov-9512000000-7c781aa72c0cc96a2b8a
submitter=submitter = University of Tokyo Team (Faculty of Engineering, University of Tokyo)
MoNA Rating=3.75

>  <NUM PEAKS>  (475) 
51

>  <MASS SPECTRAL PEAKS>  (475) 
41 51
43 46.4
53 10.5
55 76
57 31
67 28.7
69 99.99
71 11.8
77 10.7
79 22.3
81 49.6
82 12.2
83 29
91 24.9
93 26
95 31.3
97 14.5
105 25
107 30.5
109 28
117 10.2
119 22
121 16.1
123 12
125 13.4
129 10.9
131 15.8
133 16.2
135 13.3
143 22.8
145 22.6
147 15.8
155 10.8
157 19.5
159 19.3
161 10.2
171 12.6
175 10.1
183 10.2
197 12
211 14.6
213 13.2
251 19
253 22.8
269 13.3
271 37.1
337 16.1
363 36
364 12.3
396 48.4
397 16.7

>  <PREDICTED SPECTRUM>  (475) 
41 540
42 42
43 999
44 39
45 37
47 4
49 64
51 73
53 225
55 635
56 21
57 405
59 94
65 74
67 402
69 588
70 48
71 105
77 270
78 2
79 338
81 489
82 75
83 342
85 34
91 378
92 2
93 371
94 39
95 397
96 6
97 164
103 66
105 428
106 61
107 379
108 4
109 261
115 139
116 0
117 241
118 155
119 282
120 2
121 168
123 120
124 74
125 221
126 7
127 89
128 254
129 267
130 5
131 336
132 29
133 264
134 0
135 139
137 80
141 308
142 201
143 480
144 185
145 422
146 96
147 261
149 41
150 30
151 84
152 19
153 78
154 29
155 189
156 34
157 352
158 185
159 348
160 30
161 139
164 11
165 90
167 74
168 13
169 223
170 19
171 274
172 42
173 82
175 155
177 74
178 44
179 106
181 88
182 6
183 220
184 91
185 202
186 14
187 61
189 55
191 24
195 191
196 61
197 298
198 68
199 278
201 15
203 105
205 60
209 77
211 255
212 16
213 97
215 36
216 24
217 73
218 25
219 6
223 141
225 154
226 54
227 152
229 109
230 15
231 134
232 114
233 54
235 71
237 166
238 105
239 105
244 1
246 32
247 27
249 76
250 79
251 355
252 129
253 769
254 256
255 179
256 68
257 56
259 17
267 53
268 62
269 362
270 145
271 643
272 258
273 30
281 79
285 42
286 7
287 8
298 0
299 95
300 68
325 40
327 45
335 43
336 18
337 227
338 112
339 30
353 10
362 19
363 707
364 322
365 96
367 20
378 316
379 191
380 62
381 138
394 71
396 788
397 430
398 226
399 49

$$$$

     RDKit          2D

 15 14  0  0  0  0  0  0  0  0999 V2000
   -3.9841    1.4498    0.0000 C   0  0  0  0  0  0  0  0  0  0  0  0
    2.5111    3.6998    0.0000 C   0  0  0  0  0  0  0  0  0  0  0  0
    1.2120    5.9498    0.0000 C   0  0  0  0  0  0  0  0  0  0  0  0
   -0.0870    6.6998    0.0000 C   0  0  0  0  0  0  0  0  0  0  0  0
   -6.0332    4.9988    0.0000 C   0  0  0  0  0  0  0  0  0  0  0  0
   -6.5822    2.9498    0.0000 C   0  0  0  0  0  0  0  0  0  0  0  0
   -4.5332    2.4007    0.0000 C   0  0  0  0  0  0  0  0  0  0  0  0
   -2.6851    2.1998    0.0000 C   0  0  0  0  0  0  0  0  0  0  0  0
   -0.0870    3.6998    0.0000 C   0  0  0  0  0  0  0  0  0  0  0  0
   -3.9841    4.4498    0.0000 C   0  0  0  0  0  0  0  0  0  0  0  0
    1.2120    4.4498    0.0000 C   0  0  0  0  0  0  0  0  0  0  0  0
   -2.6851    3.6998    0.0000 C   0  0  0  0  0  0  0  0  0  0  0  0
   -1.3861    4.4498    0.0000 C   0  0  0  0  0  0  0  0  0  0  0  0
   -1.3861    5.9498    0.0000 O   0  0  0  0  0  0  0  0  0  0  0  0
   -5.2832    3.6998    0.0000 Si  0  0  0  0  0  4  0  0  0  0  0  0
  8  1  2  0
 11  2  1  0
 11  3  1  0
 11  9  1  0
 12  8  1  0
 12 10  1  0
 13  9  1  0
 13 12  1  0
 14  4  1  0
 14 13  1  0
 15  5  1  0
 15  6  1  0
 15  7  1  0
 15 10  1  0
M  END
>  <NAME>  (476) 
4-METHOXY-6-METHYL-3-(TRIMETHYLSILYL)METHYL-1-HEPTENE

>  <SYNONYMS>  (476) 


>  <SPECTRUM TYPE>  (476) 
MS1

>  <INSTRUMENT TYPE>  (476) 
EI-B

>  <INSTRUMENT>  (476) 
JEOL JMS-DX-300

>  <ION MODE>  (476) 
P

>  <INCHIKEY>  (476) 
NQDYFUFXDDHZLI-UHFFFAOYSA-N

>  <FORMULA>  (476) 
C13H28OSi

>  <EXACT MASS>  (476) 
228.19094204599998

>  <MW>  (476) 
228

>  <ID>  (476) 
JP011383

>  <CONTRIBUTOR>  (476) 
University of Tokyo Team, {Faculty of Engineering, University of Tokyo

>  <COMMENT>  (476) 
SMILES=COC(CC(C)C)C(C=C)C[Si](C)(C)C
InChI=InChI=1S/C13H28OSi/c1-8-12(10-15(5,6)7)13(14-4)9-11(2)3/h8,11-13H,1,9-10H2,2-7H3
computed SMILES=O(C)C(CC(C)C)C(C=C)C[Si](C)(C)C
accession=JP011383
date=2016.01.19 (Created 2008.10.21, modified 2011.05.06)
author=HISAHIRO HAGIWARA, INSTITUTE FOR CHEMICAL REACTION SCIENCE TOHOKU UNIV.
license=CC BY-NC-SA
exact mass=228.19094
ionization energy=70 eV
ion type=[M]+*
computed spectral entropy=2.6761698510810947
computed normalized entropy=0.7411328409626939
SPLASH=splash10-0v4j-9200000000-c3825eecb7108ff72691
submitter=submitter = University of Tokyo Team (Faculty of Engineering, University of Tokyo)
MoNA Rating=3.75

>  <NUM PEAKS>  (476) 
37

>  <MASS SPECTRAL PEAKS>  (476) 
31 2.5
33 3
39 3.4
41 13.2
42 1.2
43 23.8
44 3.4
45 56.1
46 1.9
53 1.9
54 1.2
55 3.5
57 1.7
58 5.2
59 49.1
60 2.4
67 9.4
68 1.5
69 68.8
70 5.1
71 13.6
72 2
73 49.3
74 4.7
75 4.2
81 1.7
82 1.2
85 3.3
89 31.3
90 2.9
91 1.5
95 1.1
97 3.3
101 99.99
102 8.6
103 1.6
127 1.3

>  <PREDICTED SPECTRUM>  (476) 
27 49
29 78
31 5
33 8
38 5
39 178
40 78
41 371
42 133
43 240
44 47
45 508
46 73
47 74
50 33
51 72
52 17
53 130
54 8
55 271
56 22
57 34
58 160
59 515
60 14
61 124
62 44
63 53
65 50
66 13
67 173
68 123
69 684
70 185
71 300
72 88
73 762
74 185
75 121
76 62
77 35
78 2
81 134
82 83
83 59
85 164
86 26
87 30
89 587
90 155
91 96
95 149
96 52
97 117
99 7
100 7
101 999
102 350
105 6
109 8
111 10
116 23
123 46
127 268
128 166
159 64

$$$$

     RDKit          2D

 18 17  0  0  0  0  0  0  0  0999 V2000
    3.4853    6.5123    0.0000 C   0  0  0  0  0  0  0  0  0  0  0  0
   -8.2060    4.2623    0.0000 C   0  0  0  0  0  0  0  0  0  0  0  0
   -6.9070    9.5123    0.0000 C   0  0  0  0  0  0  0  0  0  0  0  0
  -10.2550    7.8113    0.0000 C   0  0  0  0  0  0  0  0  0  0  0  0
  -10.8041    5.7623    0.0000 C   0  0  0  0  0  0  0  0  0  0  0  0
   -8.7550    5.2132    0.0000 C   0  0  0  0  0  0  0  0  0  0  0  0
    2.1863    7.2623    0.0000 C   0  0  0  0  0  0  0  0  0  0  0  0
   -6.9070    5.0123    0.0000 C   0  0  0  0  0  0  0  0  0  0  0  0
    0.8873    6.5123    0.0000 C   0  0  0  0  0  0  0  0  0  0  0  0
   -0.4118    7.2623    0.0000 C   0  0  0  0  0  0  0  0  0  0  0  0
   -1.7108    6.5123    0.0000 C   0  0  0  0  0  0  0  0  0  0  0  0
   -3.0099    7.2623    0.0000 C   0  0  0  0  0  0  0  0  0  0  0  0
   -4.3089    6.5123    0.0000 C   0  0  0  0  0  0  0  0  0  0  0  0
   -8.2060    7.2623    0.0000 C   0  0  0  0  0  0  0  0  0  0  0  0
   -6.9070    6.5123    0.0000 C   0  0  0  0  0  0  0  0  0  0  0  0
   -5.6079    7.2623    0.0000 C   0  0  0  0  0  0  0  0  0  0  0  0
   -5.6079    8.7623    0.0000 O   0  0  0  0  0  0  0  0  0  0  0  0
   -9.5050    6.5123    0.0000 Si  0  0  0  0  0  4  0  0  0  0  0  0
  7  1  1  0
  8  2  2  0
  9  7  1  0
 10  9  1  0
 11 10  1  0
 12 11  1  0
 13 12  1  0
 15  8  1  0
 15 14  1  0
 16 13  1  0
 16 15  1  0
 17  3  1  0
 17 16  1  0
 18  4  1  0
 18  5  1  0
 18  6  1  0
 18 14  1  0
M  END
>  <NAME>  (477) 
4-METHOXY-3-(TRIMETHYLSILYL)METHYL-1-UNDECENE

>  <SYNONYMS>  (477) 


>  <SPECTRUM TYPE>  (477) 
MS1

>  <INSTRUMENT TYPE>  (477) 
EI-B

>  <INSTRUMENT>  (477) 
JEOL JMS-DX-300

>  <ION MODE>  (477) 
P

>  <INCHIKEY>  (477) 
WHLNIXZXZWJMBT-UHFFFAOYSA-N

>  <FORMULA>  (477) 
C16H34OSi

>  <EXACT MASS>  (477) 
270.237892238

>  <MW>  (477) 
270

>  <ID>  (477) 
JP011382

>  <CONTRIBUTOR>  (477) 
University of Tokyo Team, {Faculty of Engineering, University of Tokyo

>  <COMMENT>  (477) 
SMILES=CCCCCCCC(OC)C(C=C)C[Si](C)(C)C
InChI=InChI=1S/C16H34OSi/c1-7-9-10-11-12-13-16(17-3)15(8-2)14-18(4,5)6/h8,15-16H,2,7,9-14H2,1,3-6H3
computed SMILES=O(C)C(CCCCCCC)C(C=C)C[Si](C)(C)C
accession=JP011382
date=2016.01.19 (Created 2008.10.21, modified 2011.05.06)
author=HISAHIRO HAGIWARA, INSTITUTE FOR CHEMICAL REACTION SCIENCE TOHOKU UNIV.
license=CC BY-NC-SA
exact mass=270.23789
ionization energy=70 eV
ion type=[M]+*
computed spectral entropy=2.8154207638583295
computed normalized entropy=0.7532556516194687
SPLASH=splash10-00kf-9200000000-2056a45fa243211165f6
submitter=submitter = University of Tokyo Team (Faculty of Engineering, University of Tokyo)
MoNA Rating=3.75

>  <NUM PEAKS>  (477) 
42

>  <MASS SPECTRAL PEAKS>  (477) 
31 1.3
39 2
41 14
42 1.4
43 14.4
44 2.1
45 35
46 1.2
53 1.3
54 1.8
55 31.8
56 2.1
57 7.4
58 5.6
59 12.9
60 1
67 10.3
68 2.2
69 99.99
70 7.4
71 8.5
72 2
73 49.7
74 4.7
75 3.9
81 2
82 1.6
83 5.5
85 1.5
89 33.7
90 3
91 1.6
95 1.5
96 1.1
97 2.7
103 1.1
111 28.1
112 3.1
127 1
128 1.2
143 80
144 9.4

>  <PREDICTED SPECTRUM>  (477) 
27 20
28 1
29 72
38 7
39 151
40 52
41 364
42 158
43 301
44 117
45 308
50 3
51 6
52 20
53 133
54 69
55 504
56 198
57 246
58 256
59 494
60 25
61 214
62 52
67 203
68 123
69 668
70 258
71 333
72 92
73 883
74 290
75 119
76 41
77 27
79 37
81 126
82 140
83 182
85 95
89 492
90 126
91 87
93 23
95 129
96 45
97 272
101 140
102 37
103 35
105 31
109 133
110 52
111 222
125 2
127 45
142 2
143 999
144 384
157 24

$$$$

     RDKit          2D

 21 21  0  0  0  0  0  0  0  0999 V2000
   -7.8675   -6.6292    0.0000 C   0  0  0  0  0  0  0  0  0  0  0  0
   10.2576    0.7895    0.0000 C   0  0  0  0  0  0  0  0  0  0  0  0
    1.0227    3.6137    0.0000 C   0  0  0  0  0  0  0  0  0  0  0  0
   -6.4398   -6.1692    0.0000 C   0  0  0  0  0  0  0  0  0  0  0  0
    8.8298    1.2495    0.0000 C   0  0  0  0  0  0  0  0  0  0  0  0
    1.6322    2.2431    0.0000 C   0  0  0  0  0  0  0  0  0  0  0  0
   -6.1242   -4.7028    0.0000 C   0  0  0  0  0  0  0  0  0  0  0  0
    7.7176    0.2430    0.0000 C   0  0  0  0  0  0  0  0  0  0  0  0
   -4.6965   -4.2428    0.0000 C   0  0  0  0  0  0  0  0  0  0  0  0
    6.2899    0.7030    0.0000 C   0  0  0  0  0  0  0  0  0  0  0  0
   -4.3810   -2.7764    0.0000 C   0  0  0  0  0  0  0  0  0  0  0  0
    5.1777   -0.3035    0.0000 C   0  0  0  0  0  0  0  0  0  0  0  0
   -2.9533   -2.3164    0.0000 C   0  0  0  0  0  0  0  0  0  0  0  0
    3.7499    0.1565    0.0000 C   0  0  0  0  0  0  0  0  0  0  0  0
   -2.6377   -0.8500    0.0000 C   0  0  0  0  0  0  0  0  0  0  0  0
    2.6377   -0.8500    0.0000 C   0  0  0  0  0  0  0  0  0  0  0  0
   -0.7500    1.0300    0.0000 C   0  0  0  0  0  0  0  0  0  0  0  0
    0.7500    1.0300    0.0000 C   0  0  0  0  0  0  0  0  0  0  0  0
   -1.2100   -0.3900    0.0000 C   0  0  0  0  0  0  0  0  0  0  0  0
    1.2100   -0.3900    0.0000 C   0  0  0  0  0  0  0  0  0  0  0  0
    0.0000   -1.2800    0.0000 O   0  0  0  0  0  0  0  0  0  0  0  0
  4  1  1  0
  5  2  1  0
  6  3  2  0
  7  4  1  0
  8  5  1  0
  9  7  1  0
 10  8  1  0
 11  9  1  0
 12 10  1  0
 13 11  1  0
 14 12  1  0
 15 13  1  0
 16 14  1  0
 18  6  1  0
 18 17  1  0
 19 15  1  0
 19 17  1  0
 20 16  1  0
 20 18  1  0
 21 19  1  0
 21 20  1  0
M  END
>  <NAME>  (478) 
3-ETHENYL-2,5-DIHEPTYLTETRAHYDROFURAN

>  <SYNONYMS>  (478) 


>  <SPECTRUM TYPE>  (478) 
MS1

>  <INSTRUMENT TYPE>  (478) 
EI-B

>  <INSTRUMENT>  (478) 
JEOL JMS-DX-300

>  <ION MODE>  (478) 
P

>  <INCHIKEY>  (478) 
PJPJMIPPHVYOFO-UHFFFAOYSA-N

>  <FORMULA>  (478) 
C20H38O

>  <EXACT MASS>  (478) 
294.292265836

>  <MW>  (478) 
294

>  <ID>  (478) 
JP011381

>  <CONTRIBUTOR>  (478) 
University of Tokyo Team, {Faculty of Engineering, University of Tokyo

>  <COMMENT>  (478) 
SMILES=CCCCCCCC(C1)OC(CCCCCCC)C(C=C)1
InChI=InChI=1S/C20H38O/c1-4-7-9-11-13-15-19-17-18(6-3)20(21-19)16-14-12-10-8-5-2/h6,18-20H,3-5,7-17H2,1-2H3
computed SMILES=O1C(CCCCCCC)CC(C=C)C1CCCCCCC
accession=JP011381
date=2016.01.19 (Created 2008.10.21, modified 2011.05.06)
author=HISAHIRO HAGIWARA, INSTITUTE FOR CHEMICAL REACTION SCIENCE TOHOKU UNIV.
license=CC BY-NC-SA
exact mass=294.29227
ionization energy=70 eV
ion type=[M]+*
computed spectral entropy=3.5277475588670755
computed normalized entropy=0.8420139071318314
SPLASH=splash10-0159-9300000000-2bedd8c91d359fcbfc0a
submitter=submitter = University of Tokyo Team (Faculty of Engineering, University of Tokyo)
MoNA Rating=3.75

>  <NUM PEAKS>  (478) 
66

>  <MASS SPECTRAL PEAKS>  (478) 
39 9.6
40 1.4
41 54.7
42 9.1
43 42.9
44 3.6
45 1.2
53 10
54 89
55 61.3
56 11.8
57 37.1
58 2.2
65 3.5
66 7.7
67 63.1
68 70.5
69 53.3
70 10.1
71 5.6
73 2.6
77 3.8
78 1.1
79 17.3
80 13.5
81 62.8
82 90
83 31.6
84 5.8
85 3.5
91 2.4
93 8.5
94 4.1
95 46.4
96 99.99
97 24.3
98 3
99 1.9
107 5.3
108 1.9
109 29.7
110 33
111 10.8
112 2.1
121 6.6
122 1.4
123 11.5
124 33
125 4.6
127 7.5
135 3.8
137 11
138 69.1
139 8.5
151 6.8
152 1.1
166 69.6
167 10.5
177 7.2
178 1.1
195 27.9
196 4.2
221 1.4
293 1.7
294 1.1
295 2.4

>  <PREDICTED SPECTRUM>  (478) 
27 76
28 28
29 156
39 233
40 107
41 655
42 265
43 503
44 103
45 66
51 33
52 75
53 279
54 634
55 690
56 396
57 517
58 92
59 150
65 145
66 253
67 850
68 899
69 713
70 363
71 343
72 6
77 172
78 103
79 343
80 319
81 999
82 935
83 575
84 231
85 153
91 36
92 26
93 141
94 101
95 788
96 867
97 514
98 178
99 61
101 3
106 17
107 142
108 102
109 512
110 520
111 228
112 102
113 14
120 1
121 71
122 47
123 324
124 461
125 102
126 100
127 106
135 120
136 79
137 317
138 735
139 251
140 80
141 126
143 0
149 89
150 43
151 171
152 160
153 82
164 18
165 73
166 492
167 142
168 96
169 17
177 32
181 114
182 55
195 191
196 50
208 20
209 240
210 42
223 10
224 20
237 20
238 36
251 40
265 42
279 44
293 60
294 115
295 34

$$$$

     RDKit          2D

 20 19  0  0  0  0  0  0  0  0999 V2000
    5.8457   10.1250    0.0000 C   0  0  0  0  0  0  0  0  0  0  0  0
    4.5466   10.8750    0.0000 C   0  0  0  0  0  0  0  0  0  0  0  0
    3.2476   10.1250    0.0000 C   0  0  0  0  0  0  0  0  0  0  0  0
    1.9486   10.8750    0.0000 C   0  0  0  0  0  0  0  0  0  0  0  0
    0.6495   10.1250    0.0000 C   0  0  0  0  0  0  0  0  0  0  0  0
   -0.6495   10.8750    0.0000 C   0  0  0  0  0  0  0  0  0  0  0  0
   -1.9486   10.1250    0.0000 C   0  0  0  0  0  0  0  0  0  0  0  0
   -3.2476   10.8750    0.0000 C   0  0  0  0  0  0  0  0  0  0  0  0
   -4.5466   10.1250    0.0000 C   0  0  0  0  0  0  0  0  0  0  0  0
   -5.8457   10.8750    0.0000 C   0  0  0  0  0  0  0  0  0  0  0  0
   -7.1447   10.1250    0.0000 C   0  0  0  0  0  0  0  0  0  0  0  0
   -8.4437   10.8750    0.0000 C   0  0  0  0  0  0  0  0  0  0  0  0
   -9.7428   10.1250    0.0000 C   0  0  0  0  0  0  0  0  0  0  0  0
  -11.0418   10.8750    0.0000 C   0  0  0  0  0  0  0  0  0  0  0  0
  -12.3409   10.1250    0.0000 C   0  0  0  0  0  0  0  0  0  0  0  0
  -13.6399   10.8750    0.0000 C   0  0  0  0  0  0  0  0  0  0  0  0
  -14.9389   10.1250    0.0000 C   0  0  0  0  0  0  0  0  0  0  0  0
  -16.2380   10.8750    0.0000 C   0  0  0  0  0  0  0  0  0  0  0  0
  -16.2380   12.3750    0.0000 O   0  0  0  0  0  0  0  0  0  0  0  0
  -17.5370   10.1250    0.0000 O   0  0  0  0  0  0  0  0  0  0  0  0
  2  1  1  0
  3  2  1  0
  4  3  1  0
  5  4  1  0
  6  5  1  0
  7  6  1  0
  8  7  1  0
  9  8  1  0
 10  9  1  0
 11 10  1  0
 12 11  1  0
 13 12  1  0
 14 13  1  0
 15 14  1  0
 16 15  1  0
 17 16  1  0
 18 17  1  0
 19 18  2  0
 20 18  1  0
M  END
>  <NAME>  (479) 
STEARIC ACID

>  <SYNONYMS>  (479) 


>  <SPECTRUM TYPE>  (479) 
MS1

>  <INSTRUMENT TYPE>  (479) 
EI-B

>  <INSTRUMENT>  (479) 
JEOL JMS-DX-300

>  <ION MODE>  (479) 
P

>  <INCHIKEY>  (479) 
QIQXTHQIDYTFRH-UHFFFAOYSA-N

>  <FORMULA>  (479) 
C18H36O2

>  <EXACT MASS>  (479) 
284.271530392

>  <MW>  (479) 
284

>  <ID>  (479) 
JP011379

>  <CONTRIBUTOR>  (479) 
University of Tokyo Team, {Faculty of Engineering, University of Tokyo

>  <COMMENT>  (479) 
SMILES=CCCCCCCCCCCCCCCCCC(O)=O
InChI=InChI=1S/C18H36O2/c1-2-3-4-5-6-7-8-9-10-11-12-13-14-15-16-17-18(19)20/h2-17H2,1H3,(H,19,20)
computed SMILES=O=C(O)CCCCCCCCCCCCCCCCC
accession=JP011379
date=2016.01.19 (Created 2008.10.21, modified 2011.05.06)
author=HISAHIRO HAGIWARA, INSTITUTE FOR CHEMICAL REACTION SCIENCE TOHOKU UNIV.
license=CC BY-NC-SA
exact mass=284.27153
ionization energy=70 eV
ion type=[M]+*
computed spectral entropy=3.5612742847362204
computed normalized entropy=0.8770654520913902
SPLASH=splash10-075c-9220000000-207b53a511763954eb66
submitter=submitter = University of Tokyo Team (Faculty of Engineering, University of Tokyo)
MoNA Rating=3.75

>  <NUM PEAKS>  (479) 
58

>  <MASS SPECTRAL PEAKS>  (479) 
39 4.6
41 39.8
42 9.1
43 57.9
45 3.9
54 3.8
55 41.7
56 12.3
57 54.4
59 4
60 52.5
61 18.9
67 5.9
68 5.1
69 28.4
70 9.3
71 34.9
73 65.9
74 7.2
81 5.2
82 5.5
83 22.8
84 10.5
85 25.2
87 16.7
95 3.8
96 5.2
97 20
98 12.7
99 9.2
101 7.4
111 10.7
112 4.7
113 6
115 12.3
116 7.9
125 5.9
127 4.3
129 41.2
130 5.6
139 3.2
141 3.5
143 8.3
157 4.2
171 9.5
185 23.4
186 3.7
199 8.1
213 3.6
224 3
227 6.2
241 22.7
242 4
255 3.8
256 3.3
284 99.99
285 24.9
286 3.2

>  <PREDICTED SPECTRUM>  (479) 
0 1
15 44
16 10
17 32
18 76
25 3
26 57
27 270
28 182
29 417
30 83
31 112
32 13
34 7
37 2
38 20
39 215
40 101
41 735
42 347
43 999
44 179
45 277
46 67
47 42
49 14
50 5
51 64
52 28
53 216
54 292
55 891
56 527
57 889
58 215
59 226
60 680
61 475
62 57
63 12
65 102
66 97
67 370
68 320
69 670
70 460
71 579
72 175
73 783
74 232
75 175
76 22
77 68
78 31
79 144
80 94
81 307
82 313
83 671
84 495
85 445
86 171
87 377
88 172
89 86
91 43
92 18
93 123
94 87
95 350
96 327
97 555
98 577
99 294
100 156
101 383
102 206
103 132
104 26
105 14
107 158
108 110
109 248
110 251
111 414
112 327
113 247
114 110
115 300
116 196
117 102
118 6
119 23
120 18
121 140
122 73
123 133
124 160
125 305
126 211
127 190
128 73
129 461
130 155
131 91
132 37
133 8
135 179
136 93
137 160
138 157
139 166
140 126
141 68
142 57
143 213
144 181
145 68
149 72
150 2
151 40
152 78
153 158
154 154
155 87
156 15
157 217
158 89
159 21
160 13
161 6
163 129
165 74
166 76
167 101
168 136
169 132
170 47
171 202
172 102
173 23
177 19
178 49
179 48
180 134
181 134
182 96
183 78
185 220
186 133
187 122
188 13
190 21
191 123
192 15
193 95
194 90
195 75
196 37
197 27
199 132
200 21
201 16
205 130
206 68
207 44
208 53
209 136
210 94
211 13
213 77
214 25
215 61
216 28
219 35
222 140
223 155
224 188
225 211
226 91
227 165
228 74
229 1
235 42
237 134
238 67
239 37
240 11
241 239
242 141
243 95
244 38
248 81
254 2
255 162
256 52
265 30
266 176
267 139
268 28
284 404
285 261
286 100
287 28

$$$$

     RDKit          2D

 19 20  0  0  1  0  0  0  0  0999 V2000
    4.8079    0.1966    0.0000 C   0  0  0  0  0  0  0  0  0  0  0  0
   -5.5879   -6.7498    0.0000 C   0  0  0  0  0  0  0  0  0  0  0  0
   -4.2898   -7.5032    0.0000 C   0  0  0  0  0  0  0  0  0  0  0  0
   -5.5854   -5.2490    0.0000 C   0  0  0  0  0  0  0  0  0  0  0  0
   -1.1300    1.5500    0.0000 C   0  0  0  0  0  0  0  0  0  0  0  0
   -2.9893   -6.7557    0.0000 C   0  0  0  0  0  0  0  0  0  0  0  0
   -4.2849   -4.5015    0.0000 C   0  0  0  0  0  0  0  0  0  0  0  0
    0.3700    1.5500    0.0000 C   0  0  0  0  0  0  0  0  0  0  0  0
   -1.5900    0.1200    0.0000 C   0  0  0  0  0  0  0  0  0  0  0  0
   -1.6864   -4.5075    0.0000 C   0  0  0  0  0  0  0  0  0  0  0  0
   -2.9869   -5.2549    0.0000 C   0  0  0  0  0  0  0  0  0  0  0  0
    0.8400    0.1200    0.0000 C   0  0  0  0  0  0  0  0  0  0  0  0
    2.2666   -0.3436    0.0000 C   0  0  0  0  0  0  0  0  0  0  0  0
   -0.3829   -2.2600    0.0000 C   0  0  0  0  0  0  0  0  0  0  0  0
   -0.3800   -0.7600    0.0000 N   0  0  0  0  0  0  0  0  0  0  0  0
    2.5784   -1.8108    0.0000 O   0  0  0  0  0  0  0  0  0  0  0  0
    0.9146   -3.0125    0.0000 O   0  0  0  0  0  0  0  0  0  0  0  0
    3.3813    0.6601    0.0000 O   0  0  0  0  0  0  0  0  0  0  0  0
   -1.6834   -3.0075    0.0000 O   0  0  0  0  0  0  0  0  0  0  0  0
  3  2  2  0
  4  2  1  0
  6  3  1  0
  7  4  2  0
  8  5  1  0
  9  5  1  0
 11  6  2  0
 11  7  1  0
 11 10  1  0
 12  8  1  0
 12 13  1  1
 15  9  1  0
 15 12  1  0
 15 14  1  0
 16 13  2  0
 17 14  2  0
 18  1  1  0
 18 13  1  0
 19 10  1  0
 19 14  1  0
M  END
>  <NAME>  (480) 
N-(BENZYLOXYCARBONYL)-(S)-PROLINE METHYL ESTER

>  <SYNONYMS>  (480) 


>  <SPECTRUM TYPE>  (480) 
MS1

>  <INSTRUMENT TYPE>  (480) 
EI-B

>  <INSTRUMENT>  (480) 
JEOL JMS-DX-300

>  <ION MODE>  (480) 
P

>  <INCHIKEY>  (480) 
BLQYEDXWEDWCNJ-LBPRGKRZSA-N

>  <FORMULA>  (480) 
C14H17NO4

>  <EXACT MASS>  (480) 
263.115758024

>  <MW>  (480) 
263

>  <ID>  (480) 
JP011378

>  <CONTRIBUTOR>  (480) 
University of Tokyo Team, {Faculty of Engineering, University of Tokyo

>  <COMMENT>  (480) 
SMILES=COC(=O)C(C2)N(CC2)C(=O)OCc(c1)cccc1
InChI=InChI=1S/C14H17NO4/c1-18-13(16)12-8-5-9-15(12)14(17)19-10-11-6-3-2-4-7-11/h2-4,6-7,12H,5,8-10H2,1H3/t12-/m0/s1
computed SMILES=O=C(OCC=1C=CC=CC1)N2CCCC2C(=O)OC
accession=JP011378
date=2016.01.19 (Created 2008.10.21, modified 2011.05.06)
author=HISAHIRO HAGIWARA, INSTITUTE FOR CHEMICAL REACTION SCIENCE TOHOKU UNIV.
license=CC BY-NC-SA
exact mass=263.11576
ionization energy=70 eV
ion type=[M]+*
computed spectral entropy=2.1253520735526568
computed normalized entropy=0.6778363878827457
SPLASH=splash10-0006-9220000000-f4fd10656d1b0b98c1f4
submitter=submitter = University of Tokyo Team (Faculty of Engineering, University of Tokyo)
MoNA Rating=3.75

>  <NUM PEAKS>  (480) 
23

>  <MASS SPECTRAL PEAKS>  (480) 
39 3.6
41 4.8
42 3
51 1.9
59 1.8
63 1.6
65 9.4
68 2
69 1.9
70 2.8
77 1.6
89 2.4
90 1.7
91 99.99
92 10.7
102 2.8
128 4.8
160 30.7
161 4.5
204 27.6
205 4.4
263 5.5
264 1.1

>  <PREDICTED SPECTRUM>  (480) 
15 15
26 13
27 38
28 24
29 56
38 14
39 131
40 43
41 171
42 92
44 31
49 14
50 50
51 112
52 39
53 8
54 41
55 108
56 35
59 47
62 6
63 89
64 29
65 269
66 43
67 19
68 147
69 94
70 93
77 155
78 53
79 89
82 31
83 3
84 5
89 126
90 66
91 999
92 261
96 12
97 37
105 85
106 73
107 150
108 21
114 137
126 24
128 212
129 25
146 10
157 0
158 147
159 127
160 594
161 270
204 550
205 220
263 140
264 33

$$$$

     RDKit          2D

 18 19  0  0  1  0  0  0  0  0999 V2000
    4.4067   -4.9738    0.0000 C   0  0  0  0  0  0  0  0  0  0  0  0
    4.4101   -3.4729    0.0000 C   0  0  0  0  0  0  0  0  0  0  0  0
    3.1057   -5.7220    0.0000 C   0  0  0  0  0  0  0  0  0  0  0  0
   -5.0101   -5.2630    0.0000 C   0  0  0  0  0  0  0  0  0  0  0  0
    3.1126   -2.7204    0.0000 C   0  0  0  0  0  0  0  0  0  0  0  0
    1.8082   -4.9695    0.0000 C   0  0  0  0  0  0  0  0  0  0  0  0
   -5.7601   -3.9640    0.0000 C   0  0  0  0  0  0  0  0  0  0  0  0
   -3.5417   -4.9464    0.0000 C   0  0  0  0  0  0  0  0  0  0  0  0
    0.5140   -2.7161    0.0000 C   0  0  0  0  0  0  0  0  0  0  0  0
    1.8116   -3.4687    0.0000 C   0  0  0  0  0  0  0  0  0  0  0  0
   -4.7567   -2.8420    0.0000 C   0  0  0  0  0  0  0  0  0  0  0  0
   -5.0685   -1.3747    0.0000 C   0  0  0  0  0  0  0  0  0  0  0  0
   -2.0841   -2.7111    0.0000 C   0  0  0  0  0  0  0  0  0  0  0  0
   -3.3846   -3.4585    0.0000 N   0  0  0  0  0  0  0  0  0  0  0  0
   -3.9538   -0.3711    0.0000 O   0  0  0  0  0  0  0  0  0  0  0  0
   -6.4951   -0.9112    0.0000 O   0  0  0  0  0  0  0  0  0  0  0  0
   -2.0811   -1.2111    0.0000 O   0  0  0  0  0  0  0  0  0  0  0  0
   -0.7865   -3.4636    0.0000 O   0  0  0  0  0  0  0  0  0  0  0  0
  2  1  2  0
  3  1  1  0
  5  2  1  0
  6  3  2  0
  7  4  1  0
  8  4  1  0
 10  5  2  0
 10  6  1  0
 10  9  1  0
 11  7  1  0
 11 12  1  1
 14  8  1  0
 14 11  1  0
 14 13  1  0
 15 12  2  0
 16 12  1  0
 17 13  2  0
 18  9  1  0
 18 13  1  0
M  END
>  <NAME>  (481) 
N-(BENZYLOXYCARBONYL)-(S)-PROLINE

>  <SYNONYMS>  (481) 


>  <SPECTRUM TYPE>  (481) 
MS1

>  <INSTRUMENT TYPE>  (481) 
EI-B

>  <INSTRUMENT>  (481) 
JEOL JMS-DX-300

>  <ION MODE>  (481) 
P

>  <INCHIKEY>  (481) 
JXGVXCZADZNAMJ-NSHDSACASA-N

>  <FORMULA>  (481) 
C13H15NO4

>  <EXACT MASS>  (481) 
249.10010795999997

>  <MW>  (481) 
249

>  <ID>  (481) 
JP011377

>  <CONTRIBUTOR>  (481) 
University of Tokyo Team, {Faculty of Engineering, University of Tokyo

>  <COMMENT>  (481) 
SMILES=OC(=O)C(C2)N(CC2)C(=O)OCc(c1)cccc1
InChI=InChI=1S/C13H15NO4/c15-12(16)11-7-4-8-14(11)13(17)18-9-10-5-2-1-3-6-10/h1-3,5-6,11H,4,7-9H2,(H,15,16)/t11-/m0/s1
computed SMILES=O=C(O)C1N(C(=O)OCC=2C=CC=CC2)CCC1
accession=JP011377
date=2016.01.19 (Created 2008.10.21, modified 2011.05.06)
author=HISAHIRO HAGIWARA, INSTITUTE FOR CHEMICAL REACTION SCIENCE TOHOKU UNIV.
license=CC BY-NC-SA
exact mass=249.10011
ionization energy=70 eV
ion type=[M]+*
computed spectral entropy=2.4094051252281217
computed normalized entropy=0.7155311700777416
SPLASH=splash10-01ox-9410000000-dafb05c1e2403151bfdb
submitter=submitter = University of Tokyo Team (Faculty of Engineering, University of Tokyo)
MoNA Rating=3.75

>  <NUM PEAKS>  (481) 
29

>  <MASS SPECTRAL PEAKS>  (481) 
39 4.8
41 6.1
42 2.2
43 2.2
44 1.3
45 1
51 2.6
63 2
65 11.4
68 2.4
69 2.1
70 11.9
77 2.3
79 1.5
89 3
90 2
91 99.99
92 10.7
102 2.2
107 2.1
108 7
114 38.8
115 3.1
160 24.3
161 3.4
204 12.6
205 1.9
249 5.2
250 1.1

>  <PREDICTED SPECTRUM>  (481) 
18 1
26 14
27 70
28 57
29 72
38 31
39 120
40 43
41 194
42 140
43 118
44 157
45 106
47 1
49 32
50 61
51 142
52 78
53 41
54 62
55 95
56 45
57 0
62 20
63 98
64 35
65 287
66 58
68 162
69 95
70 222
71 56
77 168
78 60
79 137
80 4
86 10
89 123
90 82
91 999
92 284
100 16
105 42
106 15
107 165
108 195
114 290
115 106
116 59
130 44
132 85
145 3
146 28
158 56
160 551
161 262
204 195
205 133
249 109
250 41

$$$$

     RDKit          2D

 30 21  0  0  0  0  0  0  0  0999 V2000
   -2.5981    2.2500    0.0000 C   0  0  0  0  0  3  0  0  0  0  0  0
    1.2990    1.5000    0.0000 C   0  0  0  0  0  0  0  0  0  0  0  0
   -1.2990    1.5000    0.0000 C   0  0  0  0  0  0  0  0  0  0  0  0
    0.0000    2.2500    0.0000 C   0  0  0  0  0  0  0  0  0  0  0  0
   -2.5981    2.2500    0.0000 C   0  0  0  0  0  3  0  0  0  0  0  0
    1.2990    1.5000    0.0000 C   0  0  0  0  0  0  0  0  0  0  0  0
   -1.2990    1.5000    0.0000 C   0  0  0  0  0  0  0  0  0  0  0  0
    0.0000    2.2500    0.0000 C   0  0  0  0  0  0  0  0  0  0  0  0
   -2.5981    2.2500    0.0000 C   0  0  0  0  0  3  0  0  0  0  0  0
    1.2990    1.5000    0.0000 C   0  0  0  0  0  0  0  0  0  0  0  0
   -1.2990    1.5000    0.0000 C   0  0  0  0  0  0  0  0  0  0  0  0
    0.0000    2.2500    0.0000 C   0  0  0  0  0  0  0  0  0  0  0  0
   -2.5981    2.2500    0.0000 C   0  0  0  0  0  3  0  0  0  0  0  0
    1.2990    1.5000    0.0000 C   0  0  0  0  0  0  0  0  0  0  0  0
   -1.2990    1.5000    0.0000 C   0  0  0  0  0  0  0  0  0  0  0  0
    0.0000    2.2500    0.0000 C   0  0  0  0  0  0  0  0  0  0  0  0
   -2.5981    2.2500    0.0000 C   0  0  0  0  0  3  0  0  0  0  0  0
    1.2990    1.5000    0.0000 C   0  0  0  0  0  0  0  0  0  0  0  0
   -1.2990    1.5000    0.0000 C   0  0  0  0  0  0  0  0  0  0  0  0
    0.0000    2.2500    0.0000 C   0  0  0  0  0  0  0  0  0  0  0  0
   -2.5981    2.2500    0.0000 C   0  0  0  0  0  3  0  0  0  0  0  0
    1.2990    1.5000    0.0000 C   0  0  0  0  0  0  0  0  0  0  0  0
   -1.2990    1.5000    0.0000 C   0  0  0  0  0  0  0  0  0  0  0  0
    0.0000    2.2500    0.0000 C   0  0  0  0  0  0  0  0  0  0  0  0
   -2.5981    2.2500    0.0000 C   0  0  0  0  0  0  0  0  0  0  0  0
    1.2990    1.5000    0.0000 C   0  0  0  0  0  0  0  0  0  0  0  0
   -1.2990    1.5000    0.0000 C   0  0  0  0  0  0  0  0  0  0  0  0
    0.0000    2.2500    0.0000 C   0  0  0  0  0  0  0  0  0  0  0  0
    0.0000    0.0000    0.0000 Sn  0  0  0  0  0 15  0  0  0  0  0  0
    0.0000    0.0000    0.0000 Sn  0  0  0  0  0 15  0  0  0  0  0  0
  3  1  1  0
  4  2  1  0
  4  3  1  0
  7  5  1  0
  8  6  1  0
  8  7  1  0
 11  9  1  0
 12 10  1  0
 12 11  1  0
 15 13  1  0
 16 14  1  0
 16 15  1  0
 19 17  1  0
 20 18  1  0
 20 19  1  0
 23 21  1  0
 24 22  1  0
 24 23  1  0
 27 25  1  0
 28 26  1  0
 27 28  2  0
M  CHG  2  25  -1  26   1
M  RAD  6   1   2   5   2   9   2  13   2  17   2  21   2
M  END
>  <NAME>  (482) 
1,4-BIS(TRIBUTYLSTANNYL)-2-BUTENYLENE

>  <SYNONYMS>  (482) 


>  <SPECTRUM TYPE>  (482) 
MS1

>  <INSTRUMENT TYPE>  (482) 
EI-B

>  <INSTRUMENT>  (482) 
JEOL JMS-DX-300

>  <ION MODE>  (482) 
P

>  <INCHIKEY>  (482) 
VDQCIJNLWBPEDB-NGJXEQNTSA-N

>  <FORMULA>  (482) 
C28H60Sn2

>  <EXACT MASS>  (482) 
636.27389132

>  <MW>  (482) 
636

>  <ID>  (482) 
JP011376

>  <CONTRIBUTOR>  (482) 
University of Tokyo Team, {Faculty of Engineering, University of Tokyo

>  <COMMENT>  (482) 
SMILES=C(C=CC[Sn](CCCC)(CCCC)CCCC)[Sn](CCCC)(CCCC)CCCC
InChI=InChI=1S/6C4H9.C4H6.2Sn/c7*1-3-4-2;;/h6*1,3-4H2,2H3;3-4H,1-2H2;;/b;;;;;;4-3+;;
computed SMILES=[Sn].[Sn].[CH2]CCC.[CH2]CCC.[CH2]CCC.[CH2]CCC.[CH2]CCC.[CH2]CCC.[CH2+]C=C[CH2-]
accession=JP011376
date=2016.01.19 (Created 2008.10.21, modified 2011.05.06)
author=HISAHIRO HAGIWARA, INSTITUTE FOR CHEMICAL REACTION SCIENCE TOHOKU UNIV.
license=CC BY-NC-SA
exact mass=636.2739
ionization energy=70 eV
ion type=[M]+*
computed spectral entropy=3.519638574213876
computed normalized entropy=0.840078429114548
SPLASH=splash10-000l-0390000000-ba689be25cc3451729d9
submitter=submitter = University of Tokyo Team (Faculty of Engineering, University of Tokyo)
MoNA Rating=3.75

>  <NUM PEAKS>  (482) 
66

>  <MASS SPECTRAL PEAKS>  (482) 
39 3.4
41 6.7
54 2.1
56 2.1
57 2.3
117 6.9
118 5.9
120 8
121 17.1
122 2.5
123 8.9
125 3.3
171 2.8
173 8
174 5
175 32.7
176 17.8
177 18.4
178 16.7
179 50.2
180 2.8
181 2.3
183 9.7
227 2.5
229 2.5
230 4.8
231 22.8
232 20.4
233 42.6
234 25.2
235 52.9
236 6.3
237 9.1
238 2.6
239 10.9
283 4.4
285 3.7
286 2.7
287 49.3
288 33.4
289 78.4
290 39.7
291 99.99
292 16
293 16.2
295 20.6
347 2
353 2.5
355 2.2
357 2
409 3.3
411 3.6
413 2.9
465 3.3
466 2.8
467 3.7
469 3
519 2.2
520 2.5
521 4.4
522 4.2
523 5.1
524 3.9
525 4
634 3.1
636 2.4

>  <PREDICTED SPECTRUM>  (482) 
25 15
26 57
27 408
28 110
29 213
39 539
40 170
41 772
42 605
43 683
44 254
45 1
51 82
52 57
53 281
55 449
56 107
63 0
64 65
65 191
66 168
67 714
68 270
70 262
71 610
72 124
77 322
78 161
79 135
80 131
81 142
83 580
84 55
85 234
89 34
90 32
91 296
94 48
102 55
104 115
105 525
106 24
107 364
108 52
109 456
112 42
115 94
116 169
119 999
120 456
121 145
131 43
135 218
136 3
147 56
149 28
150 46
155 40
156 109
157 150
158 37
159 21
164 400
165 22
170 67
172 11
174 153
175 113
176 67
182 32
183 245
184 77
185 206
186 21
187 241
188 137
196 107
197 68
198 101
199 238
203 48
207 134
209 30
212 199
213 282
214 256
218 46
219 103
221 123
225 88
226 245
228 46
231 96
232 155
233 373
234 31
235 20
237 272
238 161
239 210
241 63
243 78
245 123
247 37
249 17
250 131
251 140
252 251
253 126
254 104
255 344
256 6
257 37
259 134
260 185
261 227
262 87
265 79
266 186
267 63
274 21
277 93
279 188
280 184
281 177
282 132
283 277
284 69
286 130
287 165
288 162
290 98
291 151
297 167
298 301
299 242
301 66
302 8
303 203
304 154
305 116
307 192
308 53
314 144
318 22
319 64
321 76
323 114
327 30
328 257
329 317
330 38
331 84
332 19
333 21
334 65
335 106
341 76
343 66
349 183
351 78
357 375
358 68
363 91
365 9
371 66
379 54
381 117
382 47
383 253
385 376
386 216
387 475
388 23
389 198
397 347
398 8
399 125
407 2
411 311
412 4
413 268
414 74
415 504
416 205
417 114
423 39
425 225
427 106
428 226
429 477
430 176
431 272
441 161
445 102
457 153
459 135
467 423
468 367
469 331
484 43
524 175
535 28
537 89
549 345
550 103
551 1
552 54
554 160
593 67
594 840
598 234
599 10
618 67
633 175
635 142
636 402
637 56
640 62

$$$$

     RDKit          2D

 12  3  0  0  0  0  0  0  0  0999 V2000
   -2.5981    2.2500    0.0000 C   0  0  0  0  0  0  0  0  0  0  0  0
    1.2990    1.5000    0.0000 C   0  0  0  0  0  0  0  0  0  0  0  0
   -1.2990    1.5000    0.0000 C   0  0  0  0  0  0  0  0  0  0  0  0
    0.0000    2.2500    0.0000 C   0  0  0  0  0  0  0  0  0  0  0  0
    0.0000    0.0000    0.0000 C   0  0  0  0  0  3  0  0  0  0  0  0
    0.0000    0.0000    0.0000 C   0  0  0  0  0  3  0  0  0  0  0  0
    0.0000    0.0000    0.0000 C   0  0  0  0  0  3  0  0  0  0  0  0
    0.0000    0.0000    0.0000 C   0  0  0  0  0  3  0  0  0  0  0  0
    0.0000    0.0000    0.0000 C   0  0  0  0  0  3  0  0  0  0  0  0
    0.0000    0.0000    0.0000 C   0  0  0  0  0  3  0  0  0  0  0  0
    0.0000    0.0000    0.0000 Sn  0  0  0  0  0 15  0  0  0  0  0  0
    0.0000    0.0000    0.0000 Sn  0  0  0  0  0 15  0  0  0  0  0  0
  3  1  1  0
  4  2  1  0
  3  4  2  0
M  CHG  2   1  -1   2   1
M  RAD  6   5   2   6   2   7   2   8   2   9   2  10   2
M  END
>  <NAME>  (483) 
1,4-BIS(TRIMETHYLSTANNYL)-2-BUTENYLENE

>  <SYNONYMS>  (483) 


>  <SPECTRUM TYPE>  (483) 
MS1

>  <INSTRUMENT TYPE>  (483) 
EI-B

>  <INSTRUMENT>  (483) 
JEOL JMS-DX-300

>  <ION MODE>  (483) 
P

>  <INCHIKEY>  (483) 
CFJUYISNWQKCKP-FSEHQYEXSA-N

>  <FORMULA>  (483) 
C10H24Sn2

>  <EXACT MASS>  (483) 
383.992190168

>  <MW>  (483) 
384

>  <ID>  (483) 
JP011375

>  <CONTRIBUTOR>  (483) 
University of Tokyo Team, {Faculty of Engineering, University of Tokyo

>  <COMMENT>  (483) 
SMILES=C[Sn](C)(C)CC=CC[Sn](C)(C)C
InChI=InChI=1S/C4H6.6CH3.2Sn/c1-3-4-2;;;;;;;;/h3-4H,1-2H2;6*1H3;;/b4-3+;;;;;;;;
computed SMILES=[Sn].[Sn].[CH3].[CH3].[CH3].[CH3].[CH3].[CH3].[CH2+]C=C[CH2-]
accession=JP011375
date=2016.01.19 (Created 2008.10.21, modified 2011.05.06)
author=HISAHIRO HAGIWARA, INSTITUTE FOR CHEMICAL REACTION SCIENCE TOHOKU UNIV.
license=CC BY-NC-SA
exact mass=383.99219
ionization energy=70 eV
ion type=[M]+*
computed spectral entropy=3.272097244819754
computed normalized entropy=0.8165273745836371
SPLASH=splash10-03xr-0901000000-a29ad20dd006be018bc1
submitter=submitter = University of Tokyo Team (Faculty of Engineering, University of Tokyo)
MoNA Rating=3.75

>  <NUM PEAKS>  (483) 
55

>  <MASS SPECTRAL PEAKS>  (483) 
40 4.9
44 4
107 5
131 9.1
132 5.3
133 14.4
134 5.4
135 20.1
137 3.3
139 4
146 4.6
147 3.1
148 7.6
149 3.5
150 10
154 2.1
157 3.8
159 2.8
161 48.5
162 28.5
163 76.7
164 32.6
165 99.99
166 4.2
167 16.9
169 21.4
185 4.5
186 2.4
187 6.7
188 2.8
189 8.9
215 5.7
216 3.5
217 9.4
218 4
219 12.3
223 2.3
309 2.8
310 2.3
311 5.7
312 3.4
313 6.2
314 2.6
315 5
317 2.1
326 3
328 3.1
330 2.4
378 2.4
379 2.1
380 4.9
381 3.1
382 5.3
383 2.5
384 4.3

>  <PREDICTED SPECTRUM>  (483) 
4 112
14 234
16 152
18 35
19 126
25 138
28 713
30 517
38 597
39 21
52 75
54 554
67 70
122 62
132 158
257 293
262 61
268 113
289 210
290 220
294 111
296 64
314 353
316 45
318 193
327 313
330 260
332 343
342 285
343 16
344 772
346 104
357 79
365 602
379 118
380 282
381 547
382 999
385 35
386 7

$$$$

     RDKit          2D

 13 12  0  0  0  0  0  0  0  0999 V2000
    4.9486    2.4240    0.0000 C   0  0  0  0  0  0  0  0  0  0  0  0
    1.8014   -1.1250    0.0000 C   0  0  0  0  0  0  0  0  0  0  0  0
    0.3014    1.4731    0.0000 C   0  0  0  0  0  0  0  0  0  0  0  0
   -0.2476   -0.5760    0.0000 C   0  0  0  0  0  0  0  0  0  0  0  0
    5.6986    4.1250    0.0000 C   0  0  0  0  0  0  0  0  0  0  0  0
    6.2476    6.1740    0.0000 C   0  0  0  0  0  0  0  0  0  0  0  0
    4.1986    6.7231    0.0000 C   0  0  0  0  0  0  0  0  0  0  0  0
    2.3505    2.4240    0.0000 C   0  0  0  0  0  0  0  0  0  0  0  0
    2.3505    0.9240    0.0000 C   0  0  0  0  0  0  0  0  0  0  0  0
    3.6495    4.6740    0.0000 C   0  0  0  0  0  0  0  0  0  0  0  0
    3.6495    3.1740    0.0000 C   0  0  0  0  0  0  0  0  0  0  0  0
    1.0514    0.1740    0.0000 Si  0  0  0  0  0  4  0  0  0  0  0  0
    4.9486    5.4240    0.0000 Si  0  0  0  0  0  4  0  0  0  0  0  0
  9  8  1  0
 11  1  1  0
  8 11  2  0
 11 10  1  0
 12  2  1  0
 12  3  1  0
 12  4  1  0
 12  9  1  0
 13  5  1  0
 13  6  1  0
 13  7  1  0
 13 10  1  0
M  END
>  <NAME>  (484) 
2-METHYL-1,4-BIS(TRIMETHYLSILYL)-2-BUTENE

>  <SYNONYMS>  (484) 


>  <SPECTRUM TYPE>  (484) 
MS1

>  <INSTRUMENT TYPE>  (484) 
EI-B

>  <INSTRUMENT>  (484) 
JEOL JMS-DX-300

>  <ION MODE>  (484) 
P

>  <INCHIKEY>  (484) 
VSXNVFHRYDHBRC-DHZHZOJOSA-N

>  <FORMULA>  (484) 
C11H26Si2

>  <EXACT MASS>  (484) 
214.15730389200002

>  <MW>  (484) 
214

>  <ID>  (484) 
JP011374

>  <CONTRIBUTOR>  (484) 
University of Tokyo Team, {Faculty of Engineering, University of Tokyo

>  <COMMENT>  (484) 
SMILES=CC(=CC[Si](C)(C)C)C[Si](C)(C)C
InChI=InChI=1S/C11H26Si2/c1-11(10-13(5,6)7)8-9-12(2,3)4/h8H,9-10H2,1-7H3/b11-8+
computed SMILES=C(=C(C)C[Si](C)(C)C)C[Si](C)(C)C
accession=JP011374
date=2016.01.19 (Created 2008.10.21, modified 2011.05.06)
author=HISAHIRO HAGIWARA, INSTITUTE FOR CHEMICAL REACTION SCIENCE TOHOKU UNIV.
license=CC BY-NC-SA
exact mass=214.1573
ionization energy=70 eV
ion type=[M]+*
computed spectral entropy=2.037352845001971
computed normalized entropy=0.6591151288745497
SPLASH=splash10-00di-9300000000-b6ea2bb533dd6c777de9
submitter=submitter = University of Tokyo Team (Faculty of Engineering, University of Tokyo)
MoNA Rating=3.75

>  <NUM PEAKS>  (484) 
22

>  <MASS SPECTRAL PEAKS>  (484) 
43 3.9
44 2.2
45 13.1
58 1.5
59 4.8
72 1.7
73 99.99
74 11
75 4.9
83 1.2
85 1.1
109 1.1
111 27.7
112 3.7
113 1.4
125 1.8
126 18
127 2.5
141 1.6
214 10.1
215 2.3
216 1

>  <PREDICTED SPECTRUM>  (484) 
29 50
39 28
41 26
43 83
44 98
45 349
46 29
51 25
53 35
55 33
57 41
58 75
59 255
66 14
67 21
72 40
73 999
74 300
75 143
77 95
81 21
83 70
97 40
98 42
99 38
109 69
111 471
112 171
113 23
124 55
125 145
126 337
127 86
140 115
214 266
215 79
216 29

$$$$

     RDKit          2D

 13  4  0  0  0  0  0  0  0  0999 V2000
    0.0000    0.0000    0.0000 C   0  0  0  0  0  0  0  0  0  0  0  0
   -1.2990    3.7500    0.0000 C   0  0  0  0  0  0  0  0  0  0  0  0
   -2.5981    1.5000    0.0000 C   0  0  0  0  0  0  0  0  0  0  0  0
    0.0000    1.5000    0.0000 C   0  0  0  0  0  0  0  0  0  0  0  0
   -1.2990    2.2500    0.0000 C   0  0  0  0  0  0  0  0  0  0  0  0
    0.0000    0.0000    0.0000 C   0  0  0  0  0  3  0  0  0  0  0  0
    0.0000    0.0000    0.0000 C   0  0  0  0  0  3  0  0  0  0  0  0
    0.0000    0.0000    0.0000 C   0  0  0  0  0  3  0  0  0  0  0  0
    0.0000    0.0000    0.0000 C   0  0  0  0  0  3  0  0  0  0  0  0
    0.0000    0.0000    0.0000 C   0  0  0  0  0  3  0  0  0  0  0  0
    0.0000    0.0000    0.0000 C   0  0  0  0  0  3  0  0  0  0  0  0
    0.0000    0.0000    0.0000 Sn  0  0  0  0  0 15  0  0  0  0  0  0
    0.0000    0.0000    0.0000 Sn  0  0  0  0  0 15  0  0  0  0  0  0
  4  1  1  0
  5  2  1  0
  5  3  1  0
  4  5  2  0
M  CHG  2   1  -1   2   1
M  RAD  6   6   2   7   2   8   2   9   2  10   2  11   2
M  END
>  <NAME>  (485) 
2-METHYL-1,4-BIS(TRIMETHYLSTANNYL)-2-BUTENE

>  <SYNONYMS>  (485) 


>  <SPECTRUM TYPE>  (485) 
MS1

>  <INSTRUMENT TYPE>  (485) 
EI-B

>  <INSTRUMENT>  (485) 
JEOL JMS-DX-300

>  <ION MODE>  (485) 
P

>  <INCHIKEY>  (485) 
JUVFDQMUBKKZOB-XPOPMFIKSA-N

>  <FORMULA>  (485) 
C11H26Sn2

>  <EXACT MASS>  (485) 
398.007840232

>  <MW>  (485) 
398

>  <ID>  (485) 
JP011373

>  <CONTRIBUTOR>  (485) 
University of Tokyo Team, {Faculty of Engineering, University of Tokyo

>  <COMMENT>  (485) 
SMILES=CC(=CC[Sn](C)(C)C)C[Sn](C)(C)C
InChI=InChI=1S/C5H8.6CH3.2Sn/c1-4-5(2)3;;;;;;;;/h4H,1-2H2,3H3;6*1H3;;/b5-4-;;;;;;;;
computed SMILES=[Sn].[Sn].[CH3].[CH3].[CH3].[CH3].[CH3].[CH3].[CH2+]C(=C[CH2-])C
accession=JP011373
date=2016.01.19 (Created 2008.10.21, modified 2011.05.06)
author=HISAHIRO HAGIWARA, INSTITUTE FOR CHEMICAL REACTION SCIENCE TOHOKU UNIV.
license=CC BY-NC-SA
exact mass=398.00784
ionization energy=70 eV
ion type=[M]+*
computed spectral entropy=3.58056736231952
computed normalized entropy=0.78809928343028
SPLASH=splash10-03xr-0910000000-e6d2f211cb739f939776
submitter=submitter = University of Tokyo Team (Faculty of Engineering, University of Tokyo)
MoNA Rating=3.75

>  <NUM PEAKS>  (485) 
94

>  <MASS SPECTRAL PEAKS>  (485) 
39 2.1
41 4.5
43 5.2
53 2.8
55 1.9
57 1.2
58 3.3
65 1.1
67 5.8
68 3.4
69 2.7
73 1.7
75 1.1
77 1.1
81 2.3
82 2.4
91 1
93 1.5
95 1.6
105 1.1
116 1.3
117 1.6
118 2.5
119 2.3
120 3.6
121 2.2
131 8.4
132 5.2
133 14.7
134 5.9
135 19.2
136 1.8
137 2.9
139 3.9
146 3.9
147 4.3
148 7.9
149 5.6
150 10
151 5.1
152 1.8
154 2
155 1.2
157 4.4
159 3.1
160 1.6
161 45
162 27
163 74.5
164 32
165 99.99
166 4.2
167 17.2
168 1.1
169 19.3
170 1.1
183 1.6
185 2
187 1.1
199 3
200 1.8
201 4.8
202 2
203 5.5
205 1
207 1.3
215 1.6
216 1.5
217 2.2
218 1.5
219 1.6
229 5.9
230 4.2
231 9.8
232 4.2
233 12.7
234 1.7
235 2.2
237 2.7
287 1.2
311 2.2
312 1.3
313 2.3
315 1.8
326 1.4
328 1.5
330 1.3
392 1.2
393 1.1
394 2.5
395 1.4
396 2.6
397 1.2
398 2.1

>  <PREDICTED SPECTRUM>  (485) 
14 183
15 73
16 56
19 78
25 90
26 334
27 116
28 604
37 197
38 365
39 1
41 133
42 91
52 175
54 403
76 66
136 62
146 152
158 2
160 18
220 74
271 52
282 104
310 2
328 616
330 255
332 205
346 42
358 543
360 190
379 407
393 31
394 74
395 81
396 607
398 999
399 42

$$$$

     RDKit          2D

 15 16  0  0  0  0  0  0  0  0999 V2000
   -1.3668   -4.1724    0.0000 C   0  0  0  0  0  0  0  0  0  0  0  0
    1.1664   -3.5952    0.0000 C   0  0  0  0  0  0  0  0  0  0  0  0
    2.4653   -2.6360    0.0000 C   0  0  0  0  0  0  0  0  0  0  0  0
   -2.7100   -0.0000    0.0000 C   0  0  0  0  0  0  0  0  0  0  0  0
   -2.0600    1.3500    0.0000 C   0  0  0  0  0  0  0  0  0  0  0  0
   -2.0600   -1.3500    0.0000 C   0  0  0  0  0  0  0  0  0  0  0  0
   -0.6000    1.6900    0.0000 C   0  0  0  0  0  0  0  0  0  0  0  0
   -0.2668   -3.1525    0.0000 C   0  0  0  0  0  0  0  0  0  0  0  0
    2.0000   -1.2100    0.0000 C   0  0  0  0  0  0  0  0  0  0  0  0
   -0.6000   -1.6900    0.0000 C   0  0  0  0  0  0  0  0  0  0  0  0
    0.5700    0.7500    0.0000 C   0  0  0  0  0  0  0  0  0  0  0  0
    0.5700   -0.7500    0.0000 C   0  0  0  0  0  0  0  0  0  0  0  0
    2.8800   -0.0000    0.0000 C   0  0  0  0  0  0  0  0  0  0  0  0
    4.3800   -0.0000    0.0000 O   0  0  0  0  0  0  0  0  0  0  0  0
    2.0000    1.2100    0.0000 O   0  0  0  0  0  0  0  0  0  0  0  0
  5  4  1  0
  6  4  1  0
  7  5  1  0
  8  1  1  0
  8  2  1  0
  9  3  2  0
 10  6  1  0
 10  8  1  0
 11  7  1  0
 12  9  1  0
 12 10  1  0
 12 11  1  0
 13  9  1  0
 14 13  2  0
 15 11  1  0
 15 13  1  0
M  END
>  <NAME>  (486) 
4-ISOPROPYL-3-METHYLENE-1-OXA-3,3A,4,5,6,7,8,8A-OCTAHYDROAZULEN-2(1H)-ONE

>  <SYNONYMS>  (486) 


>  <SPECTRUM TYPE>  (486) 
MS1

>  <INSTRUMENT TYPE>  (486) 
EI-B

>  <INSTRUMENT>  (486) 
JEOL JMS-DX-300

>  <ION MODE>  (486) 
P

>  <INCHIKEY>  (486) 
AUGHXHZIGLSKLS-UHFFFAOYSA-N

>  <FORMULA>  (486) 
C13H20O2

>  <EXACT MASS>  (486) 
208.14632988

>  <MW>  (486) 
208

>  <ID>  (486) 
JP011372

>  <CONTRIBUTOR>  (486) 
University of Tokyo Team, {Faculty of Engineering, University of Tokyo

>  <COMMENT>  (486) 
SMILES=CC(C)C(C2)C(C(=C)1)C(CCC2)OC(=O)1
InChI=InChI=1S/C13H20O2/c1-8(2)10-6-4-5-7-11-12(10)9(3)13(14)15-11/h8,10-12H,3-7H2,1-2H3
computed SMILES=O=C1OC2CCCCC(C(C)C)C2C1=C
accession=JP011372
date=2016.01.19 (Created 2008.10.21, modified 2011.05.06)
author=HISAHIRO HAGIWARA, INSTITUTE FOR CHEMICAL REACTION SCIENCE TOHOKU UNIV.
license=CC BY-NC-SA
exact mass=208.14633
ionization energy=70 eV
ion type=[M]+*
computed spectral entropy=3.8049800921141808
computed normalized entropy=0.9293258137632475
SPLASH=splash10-053r-9600000000-5e1b189c3cabd5581925
submitter=submitter = University of Tokyo Team (Faculty of Engineering, University of Tokyo)
MoNA Rating=3.75

>  <NUM PEAKS>  (486) 
60

>  <MASS SPECTRAL PEAKS>  (486) 
52 27.8
54 11.2
55 50.3
56 6.8
57 18
65 5
66 5.5
67 35.2
68 14
69 27.6
71 6
77 9.3
78 5.5
79 22.8
80 6.6
81 31.5
82 99.99
83 18.6
84 8.5
91 16.2
92 6.5
93 24.2
94 8.7
95 25.4
96 15.6
97 13.5
98 7.2
101 10
105 5.4
107 10.1
108 9.6
109 30.3
110 17.9
111 9.2
112 5.2
119 18.9
120 6.8
121 12.6
122 7.8
123 14.3
124 9.7
125 5.5
126 10.1
134 5
135 8
136 22.1
137 20.6
138 13.3
139 5.3
147 15.9
148 5.7
151 7.8
152 9.2
163 7.2
165 19.8
166 9.3
179 5.4
180 14.2
193 7
208 9.2

>  <PREDICTED SPECTRUM>  (486) 
26 76
27 394
28 166
29 362
31 22
38 26
39 411
40 184
41 736
42 220
43 552
44 101
45 135
50 76
51 234
52 187
53 519
54 414
55 767
56 300
57 336
58 89
59 15
63 51
65 299
66 289
67 794
68 521
69 566
70 239
71 190
76 4
77 470
78 226
79 631
80 465
81 999
82 743
83 515
84 332
85 264
86 40
91 456
92 327
93 671
94 420
95 677
96 484
97 465
98 212
99 54
103 27
104 80
105 386
106 156
107 473
108 314
109 702
110 467
111 362
112 219
113 2
116 5
117 58
118 64
119 415
120 272
121 414
122 283
123 619
124 448
125 300
126 189
127 142
129 79
131 44
132 116
133 178
134 196
135 358
136 421
137 493
138 326
139 222
140 106
145 102
146 120
147 480
148 94
149 106
150 96
151 274
152 246
153 145
154 53
161 49
162 121
163 134
164 278
165 714
166 336
167 86
175 115
179 198
180 169
181 26
190 153
191 95
193 199
194 4
208 384
209 170

$$$$

     RDKit          2D

 19 20  0  0  0  0  0  0  0  0999 V2000
    5.8658   -4.6822    0.0000 C   0  0  0  0  0  0  0  0  0  0  0  0
   -4.9600    1.2990    0.0000 C   0  0  0  0  0  0  0  0  0  0  0  0
   -4.9600   -1.2990    0.0000 C   0  0  0  0  0  0  0  0  0  0  0  0
    4.3982   -4.3721    0.0000 C   0  0  0  0  0  0  0  0  0  0  0  0
   -2.0600   -1.3500    0.0000 C   0  0  0  0  0  0  0  0  0  0  0  0
   -2.0600    1.3500    0.0000 C   0  0  0  0  0  0  0  0  0  0  0  0
   -0.6000   -1.6900    0.0000 C   0  0  0  0  0  0  0  0  0  0  0  0
   -0.6000    1.6900    0.0000 C   0  0  0  0  0  0  0  0  0  0  0  0
   -4.2100    0.0000    0.0000 C   0  0  0  0  0  0  0  0  0  0  0  0
   -2.7100   -0.0000    0.0000 C   0  0  0  0  0  0  0  0  0  0  0  0
    0.5700   -0.7500    0.0000 C   0  0  0  0  0  0  0  0  0  0  0  0
    0.5700    0.7500    0.0000 C   0  0  0  0  0  0  0  0  0  0  0  0
    2.0000   -1.2100    0.0000 C   0  0  0  0  0  0  0  0  0  0  0  0
    2.4653   -2.6360    0.0000 C   0  0  0  0  0  0  0  0  0  0  0  0
    2.8800   -0.0000    0.0000 C   0  0  0  0  0  0  0  0  0  0  0  0
    1.4630   -3.7520    0.0000 O   0  0  0  0  0  0  0  0  0  0  0  0
    4.3800   -0.0000    0.0000 O   0  0  0  0  0  0  0  0  0  0  0  0
    3.9329   -2.9461    0.0000 O   0  0  0  0  0  0  0  0  0  0  0  0
    2.0000    1.2100    0.0000 O   0  0  0  0  0  0  0  0  0  0  0  0
  4  1  1  0
  7  5  1  0
  8  6  1  0
  9  2  1  0
  9  3  1  0
 10  5  1  0
 10  6  1  0
 10  9  1  0
 11  7  1  0
 12  8  1  0
 12 11  1  0
 13 11  1  0
 14 13  1  0
 15 13  1  0
 16 14  2  0
 17 15  2  0
 18  4  1  0
 18 14  1  0
 19 12  1  0
 19 15  1  0
M  END
>  <NAME>  (487) 
3-ETHOXYCARBONYL-6-ISOPROPYL-1-OXA-3,3A,4,5,6,7,8,8A-OCTAHYDROAZULEN-2(1H)-ONE

>  <SYNONYMS>  (487) 


>  <SPECTRUM TYPE>  (487) 
MS1

>  <INSTRUMENT TYPE>  (487) 
EI-B

>  <INSTRUMENT>  (487) 
JEOL JMS-DX-300

>  <ION MODE>  (487) 
P

>  <INCHIKEY>  (487) 
RGOPUEJOQWLLPT-UHFFFAOYSA-N

>  <FORMULA>  (487) 
C15H24O4

>  <EXACT MASS>  (487) 
268.167459248

>  <MW>  (487) 
268

>  <ID>  (487) 
JP011371

>  <CONTRIBUTOR>  (487) 
University of Tokyo Team, {Faculty of Engineering, University of Tokyo

>  <COMMENT>  (487) 
SMILES=CCOC(=O)C(C(=O)1)C(C2)C(CCC(C(C)C)C2)O1
InChI=InChI=1S/C15H24O4/c1-4-18-14(16)13-11-7-5-10(9(2)3)6-8-12(11)19-15(13)17/h9-13H,4-8H2,1-3H3
computed SMILES=O=C(OCC)C1C(=O)OC2CCC(CCC12)C(C)C
accession=JP011371
date=2016.01.19 (Created 2008.10.21, modified 2011.05.06)
author=HISAHIRO HAGIWARA, INSTITUTE FOR CHEMICAL REACTION SCIENCE TOHOKU UNIV.
license=CC BY-NC-SA
exact mass=268.16746
ionization energy=70 eV
ion type=[M]+*
computed spectral entropy=2.1550754988106977
computed normalized entropy=0.6538780851199651
SPLASH=splash10-0uxr-9600000000-e4dcca9306c1a440de14
submitter=submitter = University of Tokyo Team (Faculty of Engineering, University of Tokyo)
MoNA Rating=3.75

>  <NUM PEAKS>  (487) 
27

>  <MASS SPECTRAL PEAKS>  (487) 
52 1.4
55 1.8
58 3.4
59 19.2
60 1.1
67 1.3
68 1.6
69 67.4
70 4.5
71 7.9
72 1.1
73 35.6
74 3.4
75 2.7
81 5.3
82 1.2
85 1.8
89 12.8
95 1.1
100 1
101 99.99
102 8
111 1.2
138 1
141 1.4
142 4.8
242 1

>  <PREDICTED SPECTRUM>  (487) 
17 6
18 0
26 91
27 362
28 160
29 634
30 143
31 128
38 6
39 425
40 217
41 999
42 273
43 899
44 206
45 146
47 15
50 4
51 165
52 126
53 538
54 314
55 804
56 261
57 385
58 148
59 139
60 60
61 56
64 8
65 248
66 229
67 898
68 567
69 974
70 263
71 338
72 20
73 117
75 6
77 372
78 115
79 505
80 312
81 915
82 465
83 592
84 176
85 195
86 92
87 114
88 152
91 242
92 193
93 516
94 332
95 893
96 628
97 490
98 272
99 228
100 119
101 233
102 38
103 60
105 233
106 199
107 383
108 305
109 413
110 292
111 290
112 201
113 162
114 129
115 118
117 21
119 126
120 175
121 409
122 407
123 515
124 354
125 478
126 262
127 254
128 130
129 112
130 44
132 49
133 230
134 129
135 201
136 290
137 417
138 313
139 308
140 268
141 150
142 95
143 114
144 22
149 253
150 227
151 532
152 329
153 414
154 227
155 362
156 36
161 73
165 188
166 196
167 202
168 167
169 98
170 108
171 186
172 169
173 164
176 182
177 270
178 220
179 558
180 263
181 149
182 78
183 135
193 87
194 385
195 452
196 308
197 204
198 54
200 62
205 32
207 171
211 112
212 35
222 397
223 399
224 173
225 286
226 170
227 53
239 34
240 177
241 36
253 113
268 560
269 263
270 7

$$$$

     RDKit          2D

 20 21  0  0  0  0  0  0  0  0999 V2000
    5.8658   -4.6822    0.0000 C   0  0  0  0  0  0  0  0  0  0  0  0
   -4.9600   -1.2990    0.0000 C   0  0  0  0  0  0  0  0  0  0  0  0
   -4.9600    1.2990    0.0000 C   0  0  0  0  0  0  0  0  0  0  0  0
    4.3982   -4.3721    0.0000 C   0  0  0  0  0  0  0  0  0  0  0  0
   -2.0600   -1.3500    0.0000 C   0  0  0  0  0  0  0  0  0  0  0  0
   -0.6000   -1.6900    0.0000 C   0  0  0  0  0  0  0  0  0  0  0  0
   -2.0600    1.3500    0.0000 C   0  0  0  0  0  0  0  0  0  0  0  0
   -4.2100    0.0000    0.0000 C   0  0  0  0  0  0  0  0  0  0  0  0
   -2.7100   -0.0000    0.0000 C   0  0  0  0  0  0  0  0  0  0  0  0
    0.5700   -0.7500    0.0000 C   0  0  0  0  0  0  0  0  0  0  0  0
   -0.6000    1.6900    0.0000 C   0  0  0  0  0  0  0  0  0  0  0  0
    2.0000   -1.2100    0.0000 C   0  0  0  0  0  0  0  0  0  0  0  0
    0.5700    0.7500    0.0000 C   0  0  0  0  0  0  0  0  0  0  0  0
    2.4653   -2.6360    0.0000 C   0  0  0  0  0  0  0  0  0  0  0  0
    2.8800   -0.0000    0.0000 C   0  0  0  0  0  0  0  0  0  0  0  0
   -0.2668    3.1525    0.0000 O   0  0  0  0  0  0  0  0  0  0  0  0
    1.4630   -3.7520    0.0000 O   0  0  0  0  0  0  0  0  0  0  0  0
    4.3800   -0.0000    0.0000 O   0  0  0  0  0  0  0  0  0  0  0  0
    3.9329   -2.9461    0.0000 O   0  0  0  0  0  0  0  0  0  0  0  0
    2.0000    1.2100    0.0000 O   0  0  0  0  0  0  0  0  0  0  0  0
  4  1  1  0
  6  5  1  0
  8  2  1  0
  8  3  1  0
  9  5  1  0
  9  7  1  0
  9  8  1  0
 10  6  1  0
 11  7  1  0
 12 10  1  0
 13 10  1  0
 13 11  1  0
 14 12  1  0
 15 12  1  0
 16 11  2  0
 17 14  2  0
 18 15  2  0
 19  4  1  0
 19 14  1  0
 20 13  1  0
 20 15  1  0
M  END
>  <NAME>  (488) 
3-CARBOETHOXY-6-ISOPROPYL-1-OXA-3,3A,4,5,6,7-HEXAHYDROAZULENE-2(1H),8(8AH)-DIONE

>  <SYNONYMS>  (488) 


>  <SPECTRUM TYPE>  (488) 
MS1

>  <INSTRUMENT TYPE>  (488) 
EI-B

>  <INSTRUMENT>  (488) 
JEOL JMS-DX-300

>  <ION MODE>  (488) 
P

>  <INCHIKEY>  (488) 
GOLXPQWCEJWVSR-UHFFFAOYSA-N

>  <FORMULA>  (488) 
C15H22O5

>  <EXACT MASS>  (488) 
282.146723804

>  <MW>  (488) 
282

>  <ID>  (488) 
JP011370

>  <CONTRIBUTOR>  (488) 
University of Tokyo Team, {Faculty of Engineering, University of Tokyo

>  <COMMENT>  (488) 
SMILES=CCOC(=O)C(C(=O)2)C(C1)C(O2)C(=O)CC(C(C)C)C1
InChI=InChI=1S/C15H22O5/c1-4-19-14(17)12-10-6-5-9(8(2)3)7-11(16)13(10)20-15(12)18/h8-10,12-13H,4-7H2,1-3H3
computed SMILES=O=C(OCC)C1C(=O)OC2C(=O)CC(CCC21)C(C)C
accession=JP011370
date=2016.01.19 (Created 2008.10.21, modified 2011.05.06)
author=HISAHIRO HAGIWARA, INSTITUTE FOR CHEMICAL REACTION SCIENCE TOHOKU UNIV.
license=CC BY-NC-SA
exact mass=282.14672
ionization energy=70 eV
ion type=[M]+*
computed spectral entropy=2.9986849892724012
computed normalized entropy=0.7788493583831756
SPLASH=splash10-0a4i-9210000000-7b5793bf5b053c5849cb
submitter=submitter = University of Tokyo Team (Faculty of Engineering, University of Tokyo)
MoNA Rating=3.75

>  <NUM PEAKS>  (488) 
47

>  <MASS SPECTRAL PEAKS>  (488) 
52 1.9
53 3.8
55 4.8
56 3.2
57 3.3
58 99.99
59 41.7
60 2.3
61 3.9
67 2.7
68 4.8
69 3.2
70 1.8
73 6.7
77 1.8
79 1.9
80 1.2
81 2.3
83 3.5
84 4.1
88 8.4
89 5.4
91 1.9
93 1.8
94 4.1
95 3.1
96 2.9
97 2.6
98 2.8
101 11.8
107 1.2
109 2.4
119 3.9
121 1.6
122 4
133 5.9
135 4.4
136 4.6
137 1.7
147 3.7
150 3.6
191 4.2
207 23.1
208 6.6
209 4.8
281 10
282 5.2

>  <PREDICTED SPECTRUM>  (488) 
17 34
18 15
26 25
27 202
28 103
29 533
31 119
39 391
40 209
41 799
42 298
43 506
44 192
45 99
50 12
51 111
52 43
53 347
54 215
55 717
56 231
57 251
58 77
59 129
60 163
65 219
66 161
67 548
68 464
69 798
70 345
71 514
72 209
73 114
74 97
75 13
77 310
78 110
79 338
80 159
81 507
82 331
83 457
84 304
85 329
86 156
87 127
88 186
91 123
92 4
93 353
94 224
95 566
96 524
97 645
98 213
99 248
100 125
101 152
102 46
103 56
104 13
105 196
106 133
107 398
108 154
109 474
110 242
111 482
112 322
113 472
114 401
115 247
119 152
120 209
121 441
122 497
123 744
124 475
125 437
126 190
127 221
128 158
132 40
133 89
134 149
135 445
136 313
137 511
138 367
139 840
140 683
141 601
142 335
143 158
147 26
148 109
149 303
150 156
151 512
152 300
153 298
154 186
155 36
156 64
157 132
161 87
162 128
163 341
164 134
165 574
166 346
167 929
168 491
169 605
170 342
173 114
179 544
180 604
181 578
182 172
183 188
184 78
185 70
190 388
191 598
192 273
193 577
194 519
195 514
196 320
197 211
207 311
208 983
209 976
210 436
211 208
212 94
218 400
219 72
220 24
225 75
236 999
237 767
238 167
239 93
253 13
254 84
264 171
265 8
282 891
283 407
284 44

$$$$

     RDKit          2D

 18 19  0  0  0  0  0  0  0  0999 V2000
   -4.9600    1.2990    0.0000 C   0  0  0  0  0  0  0  0  0  0  0  0
   -4.9600   -1.2990    0.0000 C   0  0  0  0  0  0  0  0  0  0  0  0
    4.3982   -4.3721    0.0000 C   0  0  0  0  0  0  0  0  0  0  0  0
   -2.0600   -1.3500    0.0000 C   0  0  0  0  0  0  0  0  0  0  0  0
   -2.0600    1.3500    0.0000 C   0  0  0  0  0  0  0  0  0  0  0  0
   -0.6000   -1.6900    0.0000 C   0  0  0  0  0  0  0  0  0  0  0  0
   -0.6000    1.6900    0.0000 C   0  0  0  0  0  0  0  0  0  0  0  0
   -4.2100    0.0000    0.0000 C   0  0  0  0  0  0  0  0  0  0  0  0
   -2.7100   -0.0000    0.0000 C   0  0  0  0  0  0  0  0  0  0  0  0
    0.5700   -0.7500    0.0000 C   0  0  0  0  0  0  0  0  0  0  0  0
    0.5700    0.7500    0.0000 C   0  0  0  0  0  0  0  0  0  0  0  0
    2.0000   -1.2100    0.0000 C   0  0  0  0  0  0  0  0  0  0  0  0
    2.4653   -2.6360    0.0000 C   0  0  0  0  0  0  0  0  0  0  0  0
    2.8800   -0.0000    0.0000 C   0  0  0  0  0  0  0  0  0  0  0  0
    1.4630   -3.7520    0.0000 O   0  0  0  0  0  0  0  0  0  0  0  0
    4.3800   -0.0000    0.0000 O   0  0  0  0  0  0  0  0  0  0  0  0
    3.9329   -2.9461    0.0000 O   0  0  0  0  0  0  0  0  0  0  0  0
    2.0000    1.2100    0.0000 O   0  0  0  0  0  0  0  0  0  0  0  0
  6  4  1  0
  7  5  1  0
  8  1  1  0
  8  2  1  0
  9  4  1  0
  9  5  1  0
  9  8  1  0
 10  6  1  0
 11  7  1  0
 11 10  1  0
 12 10  1  0
 13 12  1  0
 14 12  1  0
 15 13  2  0
 16 14  2  0
 17  3  1  0
 17 13  1  0
 18 11  1  0
 18 14  1  0
M  END
>  <NAME>  (489) 
3-CARBOMETHOXY-6-ISOPROPYL-1-OXA-3,3A,4,5,6,7,8,8A-OCTAHYDROAZULEN-2(1H)-ONE

>  <SYNONYMS>  (489) 


>  <SPECTRUM TYPE>  (489) 
MS1

>  <INSTRUMENT TYPE>  (489) 
EI-B

>  <INSTRUMENT>  (489) 
JEOL JMS-DX-300

>  <ION MODE>  (489) 
P

>  <INCHIKEY>  (489) 
BTBGIRSEZXWHEE-UHFFFAOYSA-N

>  <FORMULA>  (489) 
C14H22O4

>  <EXACT MASS>  (489) 
254.151809184

>  <MW>  (489) 
254

>  <ID>  (489) 
JP011369

>  <CONTRIBUTOR>  (489) 
University of Tokyo Team, {Faculty of Engineering, University of Tokyo

>  <COMMENT>  (489) 
SMILES=COC(=O)C(C(=O)1)C(C2)C(CCC(C(C)C)C2)O1
InChI=InChI=1S/C14H22O4/c1-8(2)9-4-6-10-11(7-5-9)18-14(16)12(10)13(15)17-3/h8-12H,4-7H2,1-3H3
computed SMILES=O=C(OC)C1C(=O)OC2CCC(CCC12)C(C)C
accession=JP011369
date=2016.01.19 (Created 2008.10.21, modified 2011.05.06)
author=HISAHIRO HAGIWARA, INSTITUTE FOR CHEMICAL REACTION SCIENCE TOHOKU UNIV.
license=CC BY-NC-SA
exact mass=254.15181
ionization energy=70 eV
ion type=[M]+*
computed spectral entropy=3.948050686469726
computed normalized entropy=0.935666187225258
SPLASH=splash10-0f7x-7910000000-b42732726dc86fcf3c1d
submitter=submitter = University of Tokyo Team (Faculty of Engineering, University of Tokyo)
MoNA Rating=3.75

>  <NUM PEAKS>  (489) 
68

>  <MASS SPECTRAL PEAKS>  (489) 
52 24.2
53 12.2
55 55.5
57 13.8
58 25.2
59 19.3
67 34.9
68 23.7
69 36.2
77 11.9
79 39.7
80 21.6
81 50
82 22.8
83 20.1
84 10.3
87 17.5
91 17.4
92 24.3
93 93
94 35.2
95 42.2
96 34.8
97 17.8
100 16.5
101 12.5
105 14
107 30.5
108 33.2
109 21
111 16.9
113 29.9
114 10.1
119 33.1
121 29.5
122 13.2
123 17.2
124 12.9
126 18.1
133 14.9
134 14
135 27.3
136 95.5
137 26.2
139 11.7
151 19.7
154 99.99
155 17.8
161 14
165 12.6
167 15.7
179 18.2
180 76.9
181 11.6
194 21.2
204 4.6
208 27.7
209 8
210 5.8
211 5.5
212 23.6
213 3.7
222 12
223 8.8
226 7.9
236 4.2
254 4.5
255 3.3

>  <PREDICTED SPECTRUM>  (489) 
15 17
26 82
27 313
28 123
29 329
30 72
31 143
32 4
33 70
37 28
38 88
39 469
40 233
41 957
42 299
43 846
44 235
45 240
50 82
51 207
52 148
53 500
54 313
55 845
56 347
57 338
58 149
59 480
60 97
61 41
63 40
64 53
65 293
66 302
67 874
68 584
69 999
70 380
71 366
72 25
73 153
74 119
75 2
76 2
77 452
78 232
79 600
80 346
81 882
82 499
83 484
84 281
85 305
86 59
87 170
88 77
91 404
92 270
93 495
94 398
95 860
96 466
97 428
98 275
99 274
100 147
101 261
102 28
103 69
104 13
105 228
106 261
107 449
108 376
109 438
110 257
111 297
112 297
113 272
114 189
115 122
116 70
117 32
119 226
120 88
121 179
122 319
123 441
124 336
125 440
126 317
127 278
128 72
129 135
130 33
131 27
134 49
135 282
136 275
137 511
138 310
139 344
140 230
141 269
142 21
143 7
144 6
147 65
148 24
149 146
150 269
151 520
152 411
153 346
154 195
155 179
156 56
158 37
162 32
163 193
164 91
165 447
166 273
167 293
168 386
169 325
170 60
171 73
172 35
176 99
177 75
178 51
179 412
180 406
181 154
182 178
183 275
184 130
186 22
193 152
194 409
195 435
196 181
197 239
208 2
209 7
210 119
211 316
212 776
213 256
222 81
223 153
226 210
227 94
239 158
254 500
255 198

$$$$

     RDKit          2D

 11 11  0  0  0  0  0  0  0  0999 V2000
   -0.1782    1.7605    0.0000 C   0  0  0  0  0  0  0  0  0  0  0  0
   -4.0753   -0.4895    0.0000 C   0  0  0  0  0  0  0  0  0  0  0  0
   -4.0753    1.0105    0.0000 C   0  0  0  0  0  0  0  0  0  0  0  0
   -2.7762   -1.2395    0.0000 C   0  0  0  0  0  0  0  0  0  0  0  0
   -2.7762    1.7605    0.0000 C   0  0  0  0  0  0  0  0  0  0  0  0
   -1.8121    2.9095    0.0000 H   0  0  0  0  0  0  0  0  0  0  0  0
   -3.7404    2.9095    0.0000 H   0  0  0  0  0  0  0  0  0  0  0  0
   -1.4772   -0.4895    0.0000 C   0  0  0  0  0  0  0  0  0  0  0  0
   -0.9642   -1.8991    0.0000 H   0  0  0  0  0  0  0  0  0  0  0  0
    0.0000   -0.2291    0.0000 H   0  0  0  0  0  0  0  0  0  0  0  0
   -1.4772    1.0105    0.0000 Si  0  0  0  0  0  4  0  0  0  0  0  0
  5  6  1  0
  5  7  1  0
  8  9  1  0
  8 10  1  0
  3  2  1  0
  4  2  1  0
  5  3  1  0
  8  4  1  0
 11  1  1  0
 11  5  1  0
 11  8  1  0
M  ISO  4   6   2   7   2   9   2  10   2
M  END
>  <NAME>  (490) 
1-METHYLSILACYCLOHEXANE (2,2,6,6-D4)

>  <SYNONYMS>  (490) 


>  <SPECTRUM TYPE>  (490) 
MS1

>  <INSTRUMENT TYPE>  (490) 
EI-B

>  <INSTRUMENT>  (490) 
HITACHI RMU-6M

>  <ION MODE>  (490) 
P

>  <INCHIKEY>  (490) 
SVXKLJJAGXDRDF-NZLXMSDQSA-N

>  <FORMULA>  (490) 
C6H14Si

>  <EXACT MASS>  (490) 
118.111583962

>  <MW>  (490) 
118

>  <ID>  (490) 
JP011368

>  <CONTRIBUTOR>  (490) 
University of Tokyo Team, {Faculty of Engineering, University of Tokyo

>  <COMMENT>  (490) 
SMILES=[2H]C([2H])(C1)[SiH](C)C([2H])([2H])CC1
InChI=InChI=1S/C6H14Si/c1-7-5-3-2-4-6-7/h7H,2-6H2,1H3/i5D2,6D2
computed SMILES=[H]C1([H])CCCC([H])([H])[SiH]1C
accession=JP011368
date=2016.01.19 (Created 2008.10.21, modified 2011.05.06)
author=YAMAMOTO M, DEP. CHEMISTRY, FAC. SCIENCE, NARA WOMEN'S UNIV.
license=CC BY-NC-SA
exact mass=114.08648
ionization energy=70 eV
ion type=[M]+*
computed spectral entropy=3.363014408593536
computed normalized entropy=0.8392150722547027
SPLASH=splash10-00kr-9200000000-0c6d67dca8bab82dada9
submitter=submitter = University of Tokyo Team (Faculty of Engineering, University of Tokyo)
MoNA Rating=3.75

>  <NUM PEAKS>  (490) 
55

>  <MASS SPECTRAL PEAKS>  (490) 
27 2.3
28 5.6
29 6
30 3.8
31 1.6
32 2.5
39 2.2
40 3.8
41 3.2
42 5.1
43 36.9
44 18.5
45 29.3
46 13.6
47 4.7
48 1.7
53 2.1
54 2.1
55 2.6
56 4
57 4.5
58 29.5
59 16.1
60 38.9
61 14.9
62 5.2
63 2.5
67 1.2
68 1.8
69 1.6
70 1.3
71 5.2
72 9.6
73 29.8
74 32.5
75 11.4
76 2.7
77 1.4
85 2.1
86 5.6
87 25.7
88 99.99
89 15.8
90 10.9
99 2.1
100 2.6
101 6.5
102 4.3
103 24.1
104 3.2
116 6
117 25.7
118 53.8
119 7.9
120 2.7

>  <PREDICTED SPECTRUM>  (490) 
41 162
44 37
51 57
52 44
53 25
54 333
55 549
57 96
59 136
62 10
63 57
64 25
65 63
67 754
70 73
72 283
73 306
77 22
78 61
81 491
85 356
86 626
87 207
88 110
89 181
99 227
100 177
101 118
103 265
116 174
117 344
118 999
119 293

$$$$

     RDKit          2D

  7  7  0  0  0  0  0  0  0  0999 V2000
    0.0000    1.5000    0.0000 C   0  0  0  0  0  0  0  0  0  0  0  0
    0.0000   -0.0000    0.0000 C   0  0  0  0  0  0  0  0  0  0  0  0
   -1.2990    2.2500    0.0000 C   0  0  0  0  0  0  0  0  0  0  0  0
   -1.2990   -0.7500    0.0000 C   0  0  0  0  0  0  0  0  0  0  0  0
   -2.5981    1.5000    0.0000 C   0  0  0  0  0  0  0  0  0  0  0  0
   -2.5981    0.0000    0.0000 Si  0  0  0  0  0  4  0  0  0  0  0  0
   -3.8971   -0.7500    0.0000 H   0  0  0  0  0  0  0  0  0  0  0  0
  6  7  1  0
  2  1  1  0
  3  1  1  0
  4  2  1  0
  5  3  1  0
  6  4  1  0
  6  5  1  0
M  ISO  1   7   2
M  END
>  <NAME>  (491) 
SILACYCLOHEXANE (1-D)

>  <SYNONYMS>  (491) 


>  <SPECTRUM TYPE>  (491) 
MS1

>  <INSTRUMENT TYPE>  (491) 
EI-B

>  <INSTRUMENT>  (491) 
HITACHI RMU-6M

>  <ION MODE>  (491) 
P

>  <INCHIKEY>  (491) 
VMNDCBPWBMKDBI-RAMDWTOOSA-N

>  <FORMULA>  (491) 
C5H12Si

>  <EXACT MASS>  (491) 
101.07710366

>  <MW>  (491) 
101

>  <ID>  (491) 
JP011367

>  <CONTRIBUTOR>  (491) 
University of Tokyo Team, {Faculty of Engineering, University of Tokyo

>  <COMMENT>  (491) 
SMILES=[2H][SiH](C1)CCCC1
InChI=InChI=1S/C5H12Si/c1-2-4-6-5-3-1/h1-6H2/i6D
computed SMILES=[H][SiH]1CCCCC1
accession=JP011367
date=2016.01.19 (Created 2008.10.21, modified 2011.05.06)
author=YAMAMOTO M, DEP. CHEMISTRY, FAC. SCIENCE, NARA WOMEN'S UNIV.
license=CC BY-NC-SA
exact mass=100.07083
ionization energy=70 eV
ion type=[M]+*
computed spectral entropy=3.082075844266666
computed normalized entropy=0.8005084903492401
SPLASH=splash10-00di-9100000000-30bcb41551babb86ec1f
submitter=submitter = University of Tokyo Team (Faculty of Engineering, University of Tokyo)
MoNA Rating=3.75

>  <NUM PEAKS>  (491) 
47

>  <MASS SPECTRAL PEAKS>  (491) 
26 0.8
27 4.9
28 5
29 4.7
30 2
31 4
32 4.2
39 5.8
40 1.3
41 6.3
42 3.8
43 17.7
44 23
45 22.7
46 7.2
47 1.3
53 3
54 1.1
55 4.8
56 3.5
57 4.2
58 9.8
59 9.1
60 8.8
61 1.3
66 1.6
67 2.2
68 1
69 2
70 7.2
71 14.2
72 33.4
73 99.99
74 12
75 4
83 2.4
84 1.1
85 1
86 2.6
96 0.7
97 3.9
98 7.8
99 5.3
100 7.5
101 43.7
102 6.3
103 2.1

>  <PREDICTED SPECTRUM>  (491) 
26 55
27 111
28 63
38 7
39 341
40 193
41 326
42 260
43 179
44 206
45 243
46 117
47 106
50 69
51 128
52 83
53 224
54 510
55 188
56 231
57 137
58 472
59 999
60 290
63 137
64 24
65 30
67 393
68 127
70 47
71 133
72 454
73 434
74 199
75 64
86 323
97 53
98 201
99 292
100 352
101 787
102 50

$$$$

     RDKit          2D

 11 11  0  0  0  0  0  0  0  0999 V2000
   -4.0753    0.2605    0.0000 C   0  0  0  0  0  0  0  0  0  0  0  0
   -3.8148    1.7377    0.0000 H   0  0  0  0  0  0  0  0  0  0  0  0
   -5.5525    0.5209    0.0000 H   0  0  0  0  0  0  0  0  0  0  0  0
   -4.3358   -1.2167    0.0000 H   0  0  0  0  0  0  0  0  0  0  0  0
   -3.1111   -1.4095    0.0000 C   0  0  0  0  0  0  0  0  0  0  0  0
    0.0000    1.5000    0.0000 C   0  0  0  0  0  0  0  0  0  0  0  0
    0.0000    0.0000    0.0000 C   0  0  0  0  0  0  0  0  0  0  0  0
   -1.2990    2.2500    0.0000 C   0  0  0  0  0  0  0  0  0  0  0  0
   -1.2990   -0.7500    0.0000 C   0  0  0  0  0  0  0  0  0  0  0  0
   -2.5981    1.5000    0.0000 C   0  0  0  0  0  0  0  0  0  0  0  0
   -2.5981   -0.0000    0.0000 Si  0  0  0  0  0  4  0  0  0  0  0  0
  1  2  1  0
  1  3  1  0
  1  4  1  0
  7  6  1  0
  8  6  1  0
  9  7  1  0
 10  8  1  0
 11  1  1  0
 11  5  1  0
 11  9  1  0
 11 10  1  0
M  ISO  3   2   2   3   2   4   2
M  END
>  <NAME>  (492) 
1,1-DIMETHYLSILACYCLOHEXANE(METHYL-D3)

>  <SYNONYMS>  (492) 


>  <SPECTRUM TYPE>  (492) 
MS1

>  <INSTRUMENT TYPE>  (492) 
EI-B

>  <INSTRUMENT>  (492) 
HITACHI RMU-6M

>  <ION MODE>  (492) 
P

>  <INCHIKEY>  (492) 
VPVXTYYXTKCTPM-FIBGUPNXSA-N

>  <FORMULA>  (492) 
C7H16Si

>  <EXACT MASS>  (492) 
131.12095728

>  <MW>  (492) 
131

>  <ID>  (492) 
JP011366

>  <CONTRIBUTOR>  (492) 
University of Tokyo Team, {Faculty of Engineering, University of Tokyo

>  <COMMENT>  (492) 
SMILES=[2H]C([2H])([2H])[Si](C)(C1)CCCC1
InChI=InChI=1S/C7H16Si/c1-8(2)6-4-3-5-7-8/h3-7H2,1-2H3/i1D3
computed SMILES=[H]C([H])([H])[Si]1(C)CCCCC1
accession=JP011366
date=2016.01.19 (Created 2008.10.21, modified 2011.05.06)
author=YAMAMOTO M, DEP. CHEMISTRY, FAC. SCIENCE, NARA WOMEN'S UNIV.
license=CC BY-NC-SA
exact mass=128.10213
ionization energy=70 eV
ion type=[M]+*
computed spectral entropy=3.3322727712758216
computed normalized entropy=0.79251281197304
SPLASH=splash10-029i-9600000000-a33c50ea32f9a0610134
submitter=submitter = University of Tokyo Team (Faculty of Engineering, University of Tokyo)
MoNA Rating=3.75

>  <NUM PEAKS>  (492) 
67

>  <MASS SPECTRAL PEAKS>  (492) 
27 4.2
28 4.6
29 6.5
30 3.9
31 2.9
32 6.3
33 3.2
39 5
40 1.3
41 5
42 3.2
43 20.8
44 6.6
45 9.9
46 19.1
47 4.9
48 8.5
53 3
54 1.4
55 4.9
56 2.5
57 3.8
58 2.6
59 17.6
60 5.1
61 12.7
62 12.5
63 5.7
64 2.8
66 1.4
67 3.3
68 1.8
69 2.8
70 1.5
71 4.7
72 2.3
73 2.4
74 5.7
75 29.9
76 5.4
77 1.8
79 3.2
81 1.4
83 1.9
84 2.6
85 65.9
86 8.9
87 7.2
88 83.3
89 12
90 4.2
97 2.1
100 1.1
102 5.4
103 8.5
104 1.3
111 1.8
113 88.2
114 12
115 4.8
116 99.99
117 12.1
118 4.1
130 0.9
131 61.8
132 8.2
133 2.4

>  <PREDICTED SPECTRUM>  (492) 
39 31
40 26
41 201
42 178
43 220
44 128
45 382
46 137
47 283
53 104
54 167
55 270
56 172
57 189
58 138
59 488
60 339
61 282
62 68
68 59
69 37
70 134
71 385
72 198
73 267
74 553
75 999
76 449
77 202
78 36
82 139
84 148
85 137
86 126
87 47
88 314
89 337
90 186
91 54
98 66
100 164
101 228
102 493
103 590
104 160
114 95
115 38
116 432
117 110
118 87
129 37
130 320
131 863
132 325
133 87

$$$$

     RDKit          2D

 10 10  0  0  0  0  0  0  0  0999 V2000
   -3.8971   -0.7500    0.0000 C   0  0  0  0  0  0  0  0  0  0  0  0
   -4.6471    0.5490    0.0000 H   0  0  0  0  0  0  0  0  0  0  0  0
   -5.1962   -1.5000    0.0000 H   0  0  0  0  0  0  0  0  0  0  0  0
   -3.1471   -2.0490    0.0000 H   0  0  0  0  0  0  0  0  0  0  0  0
    0.0000    1.5000    0.0000 C   0  0  0  0  0  0  0  0  0  0  0  0
    0.0000   -0.0000    0.0000 C   0  0  0  0  0  0  0  0  0  0  0  0
   -1.2990    2.2500    0.0000 C   0  0  0  0  0  0  0  0  0  0  0  0
   -1.2990   -0.7500    0.0000 C   0  0  0  0  0  0  0  0  0  0  0  0
   -2.5981    1.5000    0.0000 C   0  0  0  0  0  0  0  0  0  0  0  0
   -2.5981   -0.0000    0.0000 Si  0  0  0  0  0  4  0  0  0  0  0  0
  1  2  1  0
  1  3  1  0
  1  4  1  0
  6  5  1  0
  7  5  1  0
  8  6  1  0
  9  7  1  0
 10  1  1  0
 10  8  1  0
 10  9  1  0
M  ISO  3   2   2   3   2   4   2
M  END
>  <NAME>  (493) 
1-METHYLSILACYCLOHEXANE(METHYL-D3)

>  <SYNONYMS>  (493) 


>  <SPECTRUM TYPE>  (493) 
MS1

>  <INSTRUMENT TYPE>  (493) 
EI-B

>  <INSTRUMENT>  (493) 
HITACHI RMU-6M

>  <ION MODE>  (493) 
P

>  <INCHIKEY>  (493) 
SVXKLJJAGXDRDF-FIBGUPNXSA-N

>  <FORMULA>  (493) 
C6H14Si

>  <EXACT MASS>  (493) 
117.10530721600001

>  <MW>  (493) 
117

>  <ID>  (493) 
JP011365

>  <CONTRIBUTOR>  (493) 
University of Tokyo Team, {Faculty of Engineering, University of Tokyo

>  <COMMENT>  (493) 
SMILES=[2H]C([2H])([2H])[SiH](C1)CCCC1
InChI=InChI=1S/C6H14Si/c1-7-5-3-2-4-6-7/h7H,2-6H2,1H3/i1D3
computed SMILES=[H]C([H])([H])[SiH]1CCCCC1
accession=JP011365
date=2016.01.19 (Created 2008.10.21, modified 2011.05.06)
author=YAMAMOTO M, DEP. CHEMISTRY, FAC. SCIENCE, NARA WOMEN'S UNIV.
license=CC BY-NC-SA
exact mass=114.08648
ionization energy=70 eV
ion type=[M]+*
computed spectral entropy=3.3568249773261103
computed normalized entropy=0.8041479528108166
SPLASH=splash10-029i-9100000000-cb1ff44e48f46048972b
submitter=submitter = University of Tokyo Team (Faculty of Engineering, University of Tokyo)
MoNA Rating=3.75

>  <NUM PEAKS>  (493) 
65

>  <MASS SPECTRAL PEAKS>  (493) 
27 3.9
28 5
29 3.5
30 2.5
31 1.4
32 2
33 0.8
39 4.5
40 0.8
41 4.5
42 2.9
43 13.8
44 4.8
45 7.6
46 24.7
47 7.4
48 26
49 1.7
50 0.7
53 3.1
54 1.2
55 5.4
56 1.5
57 3.8
58 1.4
59 4.8
60 2.9
61 65.8
62 20.7
63 3.5
64 1.6
65 7
66 1.6
67 3.8
68 2.5
69 3.1
70 3.8
71 30.7
72 3.9
73 3.6
74 10.6
75 22.7
76 7.7
77 1.3
83 1.3
86 1.1
87 5.8
88 30.5
89 99.99
90 11
91 3.8
93 2.3
95 0.9
97 8.2
98 3.5
99 20.2
100 3.6
102 1.8
106 0.9
114 0.8
115 5.3
116 25.4
117 62.9
118 9
119 3

>  <PREDICTED SPECTRUM>  (493) 
26 58
27 8
36 95
40 34
41 421
42 8
43 331
45 14
46 41
47 55
53 98
54 363
55 731
56 291
57 298
58 166
59 309
60 243
61 110
63 28
64 33
67 244
68 143
69 151
70 76
71 259
73 40
75 147
83 81
84 97
85 151
86 150
87 272
88 105
89 192
90 64
91 46
111 113
112 70
113 665
114 367
115 993
116 146
117 999
118 211
119 198

$$$$

     RDKit          2D

  8  8  0  0  0  0  0  0  0  0999 V2000
   -4.1590    0.4350    0.0000 C   0  0  0  0  0  0  0  0  0  0  0  0
   -0.0837   -0.8045    0.0000 C   0  0  0  0  0  0  0  0  0  0  0  0
   -1.3828   -1.5545    0.0000 C   0  0  0  0  0  0  0  0  0  0  0  0
   -0.0837    0.6955    0.0000 C   0  0  0  0  0  0  0  0  0  0  0  0
   -2.6818   -0.8045    0.0000 C   0  0  0  0  0  0  0  0  0  0  0  0
   -1.3828    1.4455    0.0000 C   0  0  0  0  0  0  0  0  0  0  0  0
   -2.6818    0.6955    0.0000 Si  0  0  0  0  0  4  0  0  0  0  0  0
   -3.1948    2.1050    0.0000 H   0  0  0  0  0  0  0  0  0  0  0  0
  7  8  1  0
  3  2  1  0
  4  2  1  0
  5  3  1  0
  6  4  1  0
  7  1  1  0
  7  5  1  0
  7  6  1  0
M  ISO  1   8   2
M  END
>  <NAME>  (494) 
1-METHYLSILACYCLOHEXANE (1-D)

>  <SYNONYMS>  (494) 


>  <SPECTRUM TYPE>  (494) 
MS1

>  <INSTRUMENT TYPE>  (494) 
EI-B

>  <INSTRUMENT>  (494) 
HITACHI RMU-6M

>  <ION MODE>  (494) 
P

>  <INCHIKEY>  (494) 
SVXKLJJAGXDRDF-WHRKIXHSSA-N

>  <FORMULA>  (494) 
C6H14Si

>  <EXACT MASS>  (494) 
115.092753724

>  <MW>  (494) 
115

>  <ID>  (494) 
JP011364

>  <CONTRIBUTOR>  (494) 
University of Tokyo Team, {Faculty of Engineering, University of Tokyo

>  <COMMENT>  (494) 
computed SMILES=[H][Si]1(C)CCCCC1
SMILES=[2H][Si](C)(C1)CCCC1
InChI=InChI=1S/C6H14Si/c1-7-5-3-2-4-6-7/h7H,2-6H2,1H3/i7D
accession=JP011364
date=2016.01.19 (Created 2008.10.21, modified 2011.05.06)
author=YAMAMOTO M, DEP. CHEMISTRY, FAC. SCIENCE, NARA WOMEN'S UNIV.
license=CC BY-NC-SA
exact mass=114.08648
ionization energy=70 eV
ion type=[M]+*
computed spectral entropy=3.304828680118677
computed normalized entropy=0.8139084015056628
SPLASH=splash10-05n0-9200000000-735b7f71fbfeef8e8738
submitter=submitter = University of Tokyo Team (Faculty of Engineering, University of Tokyo)
MoNA Rating=3.75

>  <NUM PEAKS>  (494) 
58

>  <MASS SPECTRAL PEAKS>  (494) 
26 0.7
27 5.2
28 6.4
29 5.1
30 1.9
31 2.6
32 1.9
38 0.7
39 5.4
40 1.5
41 5.7
42 4.8
43 29.9
44 17.3
45 15.9
46 17.6
47 1.8
48 0.9
53 3.5
54 1.2
55 4.6
56 2.6
57 4.3
58 31.2
59 53.5
60 10.9
61 2.3
65 0.6
66 1.2
67 3.4
68 2.4
69 3.5
70 4
71 15.9
72 47.4
73 13.4
74 6.6
75 1.5
83 1.8
84 4.8
85 18
86 16.5
87 99.99
88 10
89 3.9
96 0.7
97 4
98 9.1
99 2.1
100 27.9
101 2.7
102 1.2
112 7
113 21.7
114 4.6
115 68.8
116 8.4
117 2.7

>  <PREDICTED SPECTRUM>  (494) 
26 32
27 28
31 32
36 35
38 23
39 208
40 110
41 294
42 242
43 336
44 482
45 480
46 186
47 185
48 58
50 35
51 57
52 62
53 193
54 204
55 176
56 128
57 120
58 404
59 598
60 337
61 355
63 194
66 84
67 283
68 156
69 21
70 95
71 131
72 777
73 336
74 231
78 22
79 21
81 108
82 6
86 398
87 512
88 184
89 68
100 999
101 297
102 288
103 1
114 85
115 653
116 220
117 105

$$$$

     RDKit          2D

 14 14  0  0  0  0  0  0  0  0999 V2000
   -2.7639    0.6119    0.0000 C   0  0  0  0  0  0  0  0  0  0  0  0
   -2.5034    2.0891    0.0000 H   0  0  0  0  0  0  0  0  0  0  0  0
   -4.2411    0.8723    0.0000 H   0  0  0  0  0  0  0  0  0  0  0  0
   -3.2769   -0.7977    0.0000 H   0  0  0  0  0  0  0  0  0  0  0  0
   -2.5167   -1.7790    0.0000 C   0  0  0  0  0  0  0  0  0  0  0  0
   -4.6471   -0.5490    0.0000 H   0  0  0  0  0  0  0  0  0  0  0  0
   -3.2667   -3.0781    0.0000 H   0  0  0  0  0  0  0  0  0  0  0  0
   -1.2177   -2.5290    0.0000 H   0  0  0  0  0  0  0  0  0  0  0  0
    1.3114    1.8514    0.0000 C   0  0  0  0  0  0  0  0  0  0  0  0
    1.3114    0.3514    0.0000 C   0  0  0  0  0  0  0  0  0  0  0  0
    0.0123    2.6014    0.0000 C   0  0  0  0  0  0  0  0  0  0  0  0
    0.0123   -0.3986    0.0000 C   0  0  0  0  0  0  0  0  0  0  0  0
   -1.2867    1.8514    0.0000 C   0  0  0  0  0  0  0  0  0  0  0  0
   -1.2867    0.3514    0.0000 Si  0  0  0  0  0  4  0  0  0  0  0  0
  1  2  1  0
  1  3  1  0
  1  4  1  0
  5  6  1  0
  5  7  1  0
  5  8  1  0
 10  9  1  0
 11  9  1  0
 12 10  1  0
 13 11  1  0
 14  1  1  0
 14  5  1  0
 14 12  1  0
 14 13  1  0
M  ISO  6   2   2   3   2   4   2   6   2   7   2   8   2
M  END
>  <NAME>  (495) 
1,1-DIMETHLSILACYCLOHEXANE(METHYL-D6)

>  <SYNONYMS>  (495) 


>  <SPECTRUM TYPE>  (495) 
MS1

>  <INSTRUMENT TYPE>  (495) 
EI-B

>  <INSTRUMENT>  (495) 
HITACHI RMU-6M

>  <ION MODE>  (495) 
P

>  <INCHIKEY>  (495) 
VPVXTYYXTKCTPM-WFGJKAKNSA-N

>  <FORMULA>  (495) 
C7H16Si

>  <EXACT MASS>  (495) 
134.139787518

>  <MW>  (495) 
134

>  <ID>  (495) 
JP011363

>  <CONTRIBUTOR>  (495) 
University of Tokyo Team, {Faculty of Engineering, University of Tokyo

>  <COMMENT>  (495) 
SMILES=[2H]C([2H])([2H])[Si](C1)(CCCC1)C([2H])([2H])[2H]
InChI=InChI=1S/C7H16Si/c1-8(2)6-4-3-5-7-8/h3-7H2,1-2H3/i1D3,2D3
computed SMILES=[H]C([H])([H])[Si]1(CCCCC1)C([H])([H])[H]
accession=JP011363
date=2016.01.19 (Created 2008.10.21, modified 2011.05.06)
author=YAMAMOTO M, DEP. CHEMISTRY, FAC. SCIENCE, NARA WOMEN'S UNIV.
license=CC BY-NC-SA
exact mass=128.10213
ionization energy=70 eV
ion type=[M]+*
computed spectral entropy=3.2209292397276355
computed normalized entropy=0.7581341289613747
SPLASH=splash10-014r-9500000000-a9abc9a2e70ce96f6921
submitter=submitter = University of Tokyo Team (Faculty of Engineering, University of Tokyo)
MoNA Rating=3.75

>  <NUM PEAKS>  (495) 
70

>  <MASS SPECTRAL PEAKS>  (495) 
27 2.8
28 7.4
29 2.4
30 3.4
31 1
32 2.2
33 3.7
34 3.7
39 2.4
40 0.8
41 2.3
42 1
43 3.4
44 3.1
45 3.3
46 18.2
47 3.4
48 7.1
49 2.5
50 1.1
53 1.4
54 0.6
55 2.4
56 1.2
57 1.2
58 0.8
59 1.5
60 2.5
61 2.9
62 17.2
63 2.9
64 7.4
65 25.4
66 2.3
67 2.3
69 0.8
71 0.8
72 1.1
73 1.1
74 3.7
75 1.4
76 1.6
77 1.2
78 16.1
79 2.6
80 0.8
82 4.9
85 1.5
86 3.1
87 5.7
88 70.4
89 8.9
90 3.7
91 7.2
92 3
93 1
97 1
105 3.2
106 6.4
107 0.7
110 0.6
114 2
115 2.4
116 99.99
117 13.2
118 4.1
133 1.6
134 39.7
135 5.7
136 1.7

>  <PREDICTED SPECTRUM>  (495) 
26 168
27 277
28 175
29 181
30 80
31 89
32 15
34 45
36 120
38 23
39 201
40 122
41 593
42 342
43 310
44 218
45 207
46 231
47 283
48 185
49 91
50 150
51 87
52 133
53 172
54 346
55 501
56 78
57 299
58 56
59 467
60 320
61 291
62 143
63 236
64 335
65 110
66 41
67 179
68 56
69 539
70 299
71 412
72 323
73 122
74 211
75 118
76 330
77 479
78 380
79 329
80 251
81 243
82 123
83 33
85 55
86 39
87 335
88 81
89 178
90 31
91 126
92 222
93 86
94 17
101 238
102 80
103 202
104 478
105 569
106 439
107 123
116 109
119 131
120 22
132 222
133 363
134 999
135 335
136 73

$$$$

     RDKit          2D

  8  8  0  0  0  0  0  0  0  0999 V2000
   -0.0837   -0.8045    0.0000 C   0  0  0  0  0  0  0  0  0  0  0  0
   -1.3828   -1.5545    0.0000 C   0  0  0  0  0  0  0  0  0  0  0  0
   -0.0837    0.6955    0.0000 C   0  0  0  0  0  0  0  0  0  0  0  0
   -2.6818   -0.8045    0.0000 C   0  0  0  0  0  0  0  0  0  0  0  0
   -1.3828    1.4455    0.0000 C   0  0  0  0  0  0  0  0  0  0  0  0
   -2.6818    0.6955    0.0000 Si  0  0  0  0  0  4  0  0  0  0  0  0
   -3.1948    2.1050    0.0000 H   0  0  0  0  0  0  0  0  0  0  0  0
   -4.1590    0.4350    0.0000 H   0  0  0  0  0  0  0  0  0  0  0  0
  6  7  1  0
  6  8  1  0
  2  1  1  0
  3  1  1  0
  4  2  1  0
  5  3  1  0
  6  4  1  0
  6  5  1  0
M  ISO  2   7   2   8   2
M  END
>  <NAME>  (496) 
SILACYCLOHEXANE (1,1-D2)

>  <SYNONYMS>  (496) 


>  <SPECTRUM TYPE>  (496) 
MS1

>  <INSTRUMENT TYPE>  (496) 
EI-B

>  <INSTRUMENT>  (496) 
HITACHI RMU-6M

>  <ION MODE>  (496) 
P

>  <INCHIKEY>  (496) 
VMNDCBPWBMKDBI-NCYHJHSESA-N

>  <FORMULA>  (496) 
C5H12Si

>  <EXACT MASS>  (496) 
102.08338040599999

>  <MW>  (496) 
102

>  <ID>  (496) 
JP011362

>  <CONTRIBUTOR>  (496) 
University of Tokyo Team, {Faculty of Engineering, University of Tokyo

>  <COMMENT>  (496) 
SMILES=[2H][Si]([2H])(C1)CCCC1
InChI=InChI=1S/C5H12Si/c1-2-4-6-5-3-1/h1-6H2/i6D2
computed SMILES=[H][Si]1([H])CCCCC1
accession=JP011362
date=2016.01.19 (Created 2008.10.21, modified 2011.05.06)
author=YAMAMOTO M, DEP. CHEMISTRY, FAC. SCIENCE, NARA WOMEN'S UNIV.
license=CC BY-NC-SA
exact mass=100.07083
ionization energy=70 eV
ion type=[M]+*
computed spectral entropy=3.1312572762632747
computed normalized entropy=0.7924738384367381
SPLASH=splash10-00di-9100000000-451e106b2eebcfd502b3
submitter=submitter = University of Tokyo Team (Faculty of Engineering, University of Tokyo)
MoNA Rating=3.75

>  <NUM PEAKS>  (496) 
52

>  <MASS SPECTRAL PEAKS>  (496) 
27 5.2
28 6
29 4.4
30 2.5
31 2.8
32 4.5
33 3.2
38 0.6
39 5.7
40 1.6
41 5.9
42 2.8
43 11.9
44 22.5
45 22.8
46 18.3
47 3.9
48 0.7
53 2.8
54 1
55 3.7
56 3.9
57 3.9
58 5.9
59 10.5
60 6.3
61 9
62 1.1
66 1.2
67 1.8
68 1.2
69 1.9
70 4.6
71 8.5
72 19.2
73 41.8
74 99.99
75 10.4
76 3.9
83 2
84 1.3
86 1.9
87 2.3
96 0.6
97 2.8
98 6.8
99 3.9
100 7.7
101 2.3
102 58.9
103 6.1
104 2

>  <PREDICTED SPECTRUM>  (496) 
14 25
16 23
25 39
26 213
27 392
28 317
29 227
30 92
31 59
32 15
33 49
34 69
35 23
36 108
37 42
38 138
39 492
40 308
41 675
42 500
43 297
44 352
45 388
46 405
47 403
48 224
49 76
50 62
51 130
52 80
53 385
54 509
55 343
56 305
57 142
58 120
59 703
60 448
61 417
62 157
63 92
64 72
67 392
68 191
69 94
70 58
71 84
72 63
73 677
74 481
75 97
86 0
87 357
88 36
100 2
101 169
102 999
103 321
104 104

$$$$

     RDKit          2D

  8  8  0  0  0  0  0  0  0  0999 V2000
   -3.1948    2.1050    0.0000 C   0  0  0  0  0  0  0  0  0  0  0  0
   -4.1590    0.4350    0.0000 C   0  0  0  0  0  0  0  0  0  0  0  0
   -0.0837   -0.8045    0.0000 C   0  0  0  0  0  0  0  0  0  0  0  0
   -1.3828   -1.5545    0.0000 C   0  0  0  0  0  0  0  0  0  0  0  0
   -0.0837    0.6955    0.0000 C   0  0  0  0  0  0  0  0  0  0  0  0
   -2.6818   -0.8045    0.0000 C   0  0  0  0  0  0  0  0  0  0  0  0
   -1.3828    1.4455    0.0000 C   0  0  0  0  0  0  0  0  0  0  0  0
   -2.6818    0.6955    0.0000 Si  0  0  0  0  0  4  0  0  0  0  0  0
  4  3  1  0
  5  3  1  0
  6  4  1  0
  7  5  1  0
  8  1  1  0
  8  2  1  0
  8  6  1  0
  8  7  1  0
M  END
>  <NAME>  (497) 
1,1-DIMETHYLSILACYCLOHEXANE

>  <SYNONYMS>  (497) 


>  <SPECTRUM TYPE>  (497) 
MS1

>  <INSTRUMENT TYPE>  (497) 
EI-B

>  <INSTRUMENT>  (497) 
HITACHI RMU-6M

>  <ION MODE>  (497) 
P

>  <INCHIKEY>  (497) 
VPVXTYYXTKCTPM-UHFFFAOYSA-N

>  <FORMULA>  (497) 
C7H16Si

>  <EXACT MASS>  (497) 
128.102127042

>  <MW>  (497) 
128

>  <ID>  (497) 
JP011361

>  <CONTRIBUTOR>  (497) 
University of Tokyo Team, {Faculty of Engineering, University of Tokyo

>  <COMMENT>  (497) 
SMILES=C(C1)CC[Si](C)(C)C1
InChI=InChI=1S/C7H16Si/c1-8(2)6-4-3-5-7-8/h3-7H2,1-2H3
computed SMILES=C[Si]1(C)CCCCC1
accession=JP011361
date=2016.01.19 (Created 2008.10.21, modified 2011.05.06)
author=YAMAMOTO M, DEP. CHEMISTRY, FAC. SCIENCE, NARA WOMEN'S UNIV.
license=CC BY-NC-SA
exact mass=128.10213
ionization energy=70 eV
ion type=[M]+*
computed spectral entropy=2.733297904365568
computed normalized entropy=0.7222941154604431
SPLASH=splash10-03dr-9500000000-5e60b40b26e28936df96
submitter=submitter = University of Tokyo Team (Faculty of Engineering, University of Tokyo)
MoNA Rating=3.75

>  <NUM PEAKS>  (497) 
44

>  <MASS SPECTRAL PEAKS>  (497) 
27 2.4
28 7
29 4.6
31 5.2
32 1.9
39 2.4
41 2.6
42 2.5
43 22.9
44 4.7
45 9.4
46 0.8
53 1.8
54 0.6
55 3.9
56 0.8
57 3.2
58 7
59 44.3
60 3.3
61 1.6
66 0.7
67 1.4
69 1.7
70 1
71 6
72 15.5
73 3
74 0.7
83 1.5
84 2.2
85 85.4
86 10
87 3.5
97 1.3
99 2.4
100 4.4
111 1.6
113 99.99
114 11.6
115 4.1
128 33.5
129 4.1
130 1

>  <PREDICTED SPECTRUM>  (497) 
26 6
39 117
40 35
41 114
42 93
43 349
44 300
45 516
46 112
47 116
53 143
54 58
55 112
57 37
58 476
59 896
60 231
61 386
63 111
65 5
67 63
69 100
70 22
71 306
72 409
73 205
74 100
75 92
79 70
81 19
83 113
85 804
86 291
87 222
97 107
99 99
100 380
101 101
112 19
113 999
114 341
115 282
128 444
129 168
130 30

$$$$

     RDKit          2D

  7  7  0  0  0  0  0  0  0  0999 V2000
   -3.8971   -0.7500    0.0000 C   0  0  0  0  0  0  0  0  0  0  0  0
    0.0000    1.5000    0.0000 C   0  0  0  0  0  0  0  0  0  0  0  0
    0.0000   -0.0000    0.0000 C   0  0  0  0  0  0  0  0  0  0  0  0
   -1.2990    2.2500    0.0000 C   0  0  0  0  0  0  0  0  0  0  0  0
   -1.2990   -0.7500    0.0000 C   0  0  0  0  0  0  0  0  0  0  0  0
   -2.5981    1.5000    0.0000 C   0  0  0  0  0  0  0  0  0  0  0  0
   -2.5981    0.0000    0.0000 Si  0  0  0  0  0  4  0  0  0  0  0  0
  3  2  1  0
  4  2  1  0
  5  3  1  0
  6  4  1  0
  7  1  1  0
  7  5  1  0
  7  6  1  0
M  END
>  <NAME>  (498) 
1-METHYLSILACYCLOHEXANE

>  <SYNONYMS>  (498) 


>  <SPECTRUM TYPE>  (498) 
MS1

>  <INSTRUMENT TYPE>  (498) 
EI-B

>  <INSTRUMENT>  (498) 
HITACHI RMU-6M

>  <ION MODE>  (498) 
P

>  <INCHIKEY>  (498) 
SVXKLJJAGXDRDF-UHFFFAOYSA-N

>  <FORMULA>  (498) 
C6H14Si

>  <EXACT MASS>  (498) 
114.08647697800001

>  <MW>  (498) 
114

>  <ID>  (498) 
JP011360

>  <CONTRIBUTOR>  (498) 
University of Tokyo Team, {Faculty of Engineering, University of Tokyo

>  <COMMENT>  (498) 
SMILES=C[SiH](C1)CCCC1
InChI=InChI=1S/C6H14Si/c1-7-5-3-2-4-6-7/h7H,2-6H2,1H3
computed SMILES=C[SiH]1CCCCC1
accession=JP011360
date=2016.01.19 (Created 2008.10.21, modified 2011.05.06)
author=YAMAMOTO M, DEP. CHEMISTRY, FAC. SCIENCE, NARA WOMEN'S UNIV.
license=CC BY-NC-SA
exact mass=114.08648
ionization energy=70 eV
ion type=[M]+*
computed spectral entropy=3.0597014523232713
computed normalized entropy=0.7781884900636431
SPLASH=splash10-06y9-9100000000-b0a6ccc7848306ae928d
submitter=submitter = University of Tokyo Team (Faculty of Engineering, University of Tokyo)
MoNA Rating=3.75

>  <NUM PEAKS>  (498) 
51

>  <MASS SPECTRAL PEAKS>  (498) 
26 0.5
27 5.1
28 4.1
29 6.9
30 0.6
31 3.7
32 0.5
39 5.7
40 0.7
41 6
42 6.1
43 46.4
44 9.7
45 31.2
46 2
47 1.1
53 3.3
54 1
55 6.9
56 1.6
57 6.4
58 69.4
59 25.4
60 3.8
61 0.8
65 0.6
66 1.3
67 2.3
68 1.9
69 2.7
70 5.1
71 46
72 25.9
73 8.4
74 1.4
83 2.4
84 4.7
85 31.3
86 99.99
87 10.5
88 3.5
95 1
97 10
98 3
101 0.9
111 0.9
112 4.9
113 24.9
114 52.7
115 6.7
116 2.1

>  <PREDICTED SPECTRUM>  (498) 
27 40
31 52
38 15
39 275
40 109
41 391
42 170
43 455
44 399
45 338
46 170
47 83
50 1
51 40
52 4
53 175
54 182
55 266
56 86
57 240
58 695
59 459
60 132
63 66
65 64
66 43
67 304
68 169
69 114
70 177
71 491
72 556
73 220
81 236
82 13
83 168
85 434
86 999
87 261
88 172
97 75
99 347
100 40
113 218
114 624
115 163
116 63

$$$$

     RDKit          2D

  6  6  0  0  0  0  0  0  0  0999 V2000
    0.0000    1.5000    0.0000 C   0  0  0  0  0  0  0  0  0  0  0  0
   -0.0000   -0.0000    0.0000 C   0  0  0  0  0  0  0  0  0  0  0  0
   -1.2990    2.2500    0.0000 C   0  0  0  0  0  0  0  0  0  0  0  0
   -1.2990   -0.7500    0.0000 C   0  0  0  0  0  0  0  0  0  0  0  0
   -2.5981    1.5000    0.0000 C   0  0  0  0  0  0  0  0  0  0  0  0
   -2.5981    0.0000    0.0000 Si  0  0  0  0  0  4  0  0  0  0  0  0
  2  1  1  0
  3  1  1  0
  4  2  1  0
  5  3  1  0
  6  4  1  0
  6  5  1  0
M  END
>  <NAME>  (499) 
SILACYCLOHEXANE

>  <SYNONYMS>  (499) 


>  <SPECTRUM TYPE>  (499) 
MS1

>  <INSTRUMENT TYPE>  (499) 
EI-B

>  <INSTRUMENT>  (499) 
HITACHI RMU-6M

>  <ION MODE>  (499) 
P

>  <INCHIKEY>  (499) 
VMNDCBPWBMKDBI-UHFFFAOYSA-N

>  <FORMULA>  (499) 
C5H12Si

>  <EXACT MASS>  (499) 
100.07082691400001

>  <MW>  (499) 
100

>  <ID>  (499) 
JP011359

>  <CONTRIBUTOR>  (499) 
University of Tokyo Team, {Faculty of Engineering, University of Tokyo

>  <COMMENT>  (499) 
SMILES=C(C1)CC[SiH2]C1
InChI=InChI=1S/C5H12Si/c1-2-4-6-5-3-1/h1-6H2
computed SMILES=C1CC[SiH2]CC1
accession=JP011359
date=2016.01.19 (Created 2008.10.21, modified 2011.05.06)
author=YAMAMOTO M, DEP. CHEMISTRY, FAC. SCIENCE, NARA WOMEN'S UNIV.
license=CC BY-NC-SA
exact mass=100.07083
ionization energy=70 eV
ion type=[M]+*
computed spectral entropy=2.910668208399175
computed normalized entropy=0.7787387612220211
SPLASH=splash10-00di-9100000000-ee6c8ed6514e9a8618b2
submitter=submitter = University of Tokyo Team (Faculty of Engineering, University of Tokyo)
MoNA Rating=3.75

>  <NUM PEAKS>  (499) 
42

>  <MASS SPECTRAL PEAKS>  (499) 
26 0.7
27 4.9
28 4.6
29 5.2
30 1.4
31 5.9
32 0.9
39 5.5
40 0.7
41 7
42 4.3
43 22.8
44 27.4
45 9.8
46 1.5
53 2.7
54 1.1
55 6.6
56 2.5
57 6.8
58 10.2
59 9.6
60 1.1
65 0.6
66 1.4
67 1.8
68 0.6
69 2.7
70 10.8
71 22.2
72 99.99
73 9.3
74 3.4
83 2.6
85 3
95 0.6
97 6.2
98 6
99 10.2
100 39.6
101 4.5
102 1.5

>  <PREDICTED SPECTRUM>  (499) 
14 17
16 5
25 21
26 125
27 317
28 204
29 128
30 101
31 52
32 5
33 15
35 2
36 13
37 64
38 111
39 347
40 202
41 419
42 339
43 463
44 468
45 278
46 179
49 12
50 102
51 156
52 75
53 211
54 199
55 219
56 218
57 384
58 272
59 236
60 82
61 49
65 87
66 115
67 289
68 152
69 188
70 198
71 403
72 999
73 301
74 148
83 95
84 76
85 262
86 18
97 120
98 132
99 414
100 791
101 242
102 64

$$$$

     RDKit          2D

  7  6  0  0  0  0  0  0  0  0999 V2000
   -2.5111    2.0993    0.0000 C   0  0  0  0  0  0  0  0  0  0  0  0
   -1.2120   -0.1507    0.0000 C   0  0  0  0  0  0  0  0  0  0  0  0
    0.8370    0.8002    0.0000 C   0  0  0  0  0  0  0  0  0  0  0  0
    1.3861    2.8493    0.0000 C   0  0  0  0  0  0  0  0  0  0  0  0
   -0.6630    3.3983    0.0000 C   0  0  0  0  0  0  0  0  0  0  0  0
   -1.2120    1.3493    0.0000 Si  0  0  0  0  0  4  0  0  0  0  0  0
    0.0870    2.0993    0.0000 Si  0  0  0  0  0  4  0  0  0  0  0  0
  6  1  1  0
  6  2  1  0
  7  3  1  0
  7  4  1  0
  7  5  1  0
  7  6  1  0
M  END
>  <NAME>  (500) 
PENTAMETHYLDISILANE

>  <SYNONYMS>  (500) 


>  <SPECTRUM TYPE>  (500) 
MS1

>  <INSTRUMENT TYPE>  (500) 
EI-B

>  <INSTRUMENT>  (500) 
HITACHI RMU-6M

>  <ION MODE>  (500) 
P

>  <INCHIKEY>  (500) 
FHQRQPAFALORSL-UHFFFAOYSA-N

>  <FORMULA>  (500) 
C5H16Si2

>  <EXACT MASS>  (500) 
132.079053572

>  <MW>  (500) 
132

>  <ID>  (500) 
JP011358

>  <CONTRIBUTOR>  (500) 
University of Tokyo Team, {Faculty of Engineering, University of Tokyo

>  <COMMENT>  (500) 
SMILES=C[SiH](C)[Si](C)(C)C
InChI=InChI=1S/C5H16Si2/c1-6(2)7(3,4)5/h6H,1-5H3
computed SMILES=C[SiH](C)[Si](C)(C)C
accession=JP011358
date=2016.01.19 (Created 2008.10.21, modified 2011.05.06)
author=YAMAMOTO M, DEP. CHEMISTRY, FAC. SCIENCE, NARA WOMEN'S UNIV.
license=CC BY-NC-SA
exact mass=132.07905
ionization energy=70 eV
ion type=[M]+*
computed spectral entropy=2.206303395752836
computed normalized entropy=0.6771755747583342
SPLASH=splash10-00di-9100000000-06dd6efa6cd0e2efe7ff
submitter=submitter = University of Tokyo Team (Faculty of Engineering, University of Tokyo)
MoNA Rating=3.75

>  <NUM PEAKS>  (500) 
26

>  <MASS SPECTRAL PEAKS>  (500) 
15 3.1
28 1
29 4.9
31 6.2
42 1.8
43 19
44 4
45 14.2
53 1
55 0.9
57 1.8
58 4.9
59 11.9
60 0.9
69 1
72 1
73 99.99
74 8
75 3.1
101 1
116 2.2
117 13.9
118 2.2
131 2.2
132 10.2
133 1

>  <PREDICTED SPECTRUM>  (500) 
31 118
43 430
44 123
45 332
46 22
53 4
55 35
57 146
58 390
59 560
60 115
61 2
69 55
71 68
72 297
73 999
74 279
75 243
85 130
86 0
87 52
89 55
91 15
101 98
113 69
115 244
116 145
117 473
118 185
119 92
129 10
130 117
131 321
132 266
133 123
134 32

$$$$

     RDKit          2D

  5  4  0  0  0  0  0  0  0  0999 V2000
   -1.2990    0.7500    0.0000 C   0  0  0  0  0  0  0  0  0  0  0  0
    0.7500    0.2010    0.0000 C   0  0  0  0  0  0  0  0  0  0  0  0
    1.2990    2.2500    0.0000 C   0  0  0  0  0  0  0  0  0  0  0  0
   -0.7500    2.7990    0.0000 Si  0  0  0  0  0  4  0  0  0  0  0  0
    0.0000    1.5000    0.0000 Si  0  0  0  0  0  4  0  0  0  0  0  0
  5  1  1  0
  5  2  1  0
  5  3  1  0
  5  4  1  0
M  END
>  <NAME>  (501) 
1,1,1-TRIMETHYLDISILANE

>  <SYNONYMS>  (501) 


>  <SPECTRUM TYPE>  (501) 
MS1

>  <INSTRUMENT TYPE>  (501) 
EI-B

>  <INSTRUMENT>  (501) 
HITACHI RMU-6M

>  <ION MODE>  (501) 
P

>  <INCHIKEY>  (501) 
ZVGUNGATIFIZOL-UHFFFAOYSA-N

>  <FORMULA>  (501) 
C3H12Si2

>  <EXACT MASS>  (501) 
104.047753444

>  <MW>  (501) 
104

>  <ID>  (501) 
JP011357

>  <CONTRIBUTOR>  (501) 
University of Tokyo Team, {Faculty of Engineering, University of Tokyo

>  <COMMENT>  (501) 
SMILES=C[Si](C)(C)[SiH3]
InChI=InChI=1S/C3H12Si2/c1-5(2,3)4/h1-4H3
computed SMILES=C[Si](C)(C)[SiH3]
accession=JP011357
date=2016.01.19 (Created 2008.10.21, modified 2011.05.06)
author=YAMAMOTO M, DEP. CHEMISTRY, FAC. SCIENCE, NARA WOMEN'S UNIV.
license=CC BY-NC-SA
exact mass=104.04775
ionization energy=70 eV
ion type=[M]+*
computed spectral entropy=2.295274438101232
computed normalized entropy=0.6888155967295504
SPLASH=splash10-00di-9200000000-06c6032e383f95cc6d69
submitter=submitter = University of Tokyo Team (Faculty of Engineering, University of Tokyo)
MoNA Rating=3.75

>  <NUM PEAKS>  (501) 
28

>  <MASS SPECTRAL PEAKS>  (501) 
43 5.9
44 1
45 5.9
59 2.9
69 4.4
70 1
71 1
72 1
73 99.99
74 8.8
75 4
81 1
83 1
84 1
85 5.1
86 2.2
87 14
88 2.2
89 19.9
90 2.2
91 1
99 1
100 1
101 2.9
102 16.9
103 15.4
104 10.3
105 2.2

>  <PREDICTED SPECTRUM>  (501) 
14 13
15 35
27 9
28 5
29 21
31 127
42 46
43 391
44 8
45 242
46 101
47 12
51 19
53 37
57 102
58 51
59 387
61 30
63 39
72 214
73 999
74 199
75 80
76 62
77 50
78 54
83 6
84 9
85 418
86 124
87 470
88 115
89 529
90 154
91 192
100 243
101 271
102 475
103 655
104 575
105 213
106 105

$$$$

     RDKit          2D

  8  7  0  0  0  0  0  0  0  0999 V2000
    1.6740    0.1005    0.0000 C   0  0  0  0  0  0  0  0  0  0  0  0
   -0.9240    1.6005    0.0000 C   0  0  0  0  0  0  0  0  0  0  0  0
   -0.3750   -0.4486    0.0000 C   0  0  0  0  0  0  0  0  0  0  0  0
    2.4240    1.3995    0.0000 C   0  0  0  0  0  0  0  0  0  0  0  0
    1.8750    3.4486    0.0000 C   0  0  0  0  0  0  0  0  0  0  0  0
   -0.1740    2.8995    0.0000 C   0  0  0  0  0  0  0  0  0  0  0  0
    0.3750    0.8505    0.0000 Si  0  0  0  0  0  4  0  0  0  0  0  0
    1.1250    2.1495    0.0000 Si  0  0  0  0  0  4  0  0  0  0  0  0
  7  1  1  0
  7  2  1  0
  7  3  1  0
  8  4  1  0
  8  5  1  0
  8  6  1  0
  8  7  1  0
M  END
>  <NAME>  (502) 
HEXAMETHYLDISILANE

>  <SYNONYMS>  (502) 


>  <SPECTRUM TYPE>  (502) 
MS1

>  <INSTRUMENT TYPE>  (502) 
EI-B

>  <INSTRUMENT>  (502) 
HITACHI RMU-6M

>  <ION MODE>  (502) 
P

>  <INCHIKEY>  (502) 
NEXSMEBSBIABKL-UHFFFAOYSA-N

>  <FORMULA>  (502) 
C6H18Si2

>  <EXACT MASS>  (502) 
146.094703636

>  <MW>  (502) 
146

>  <ID>  (502) 
JP011356

>  <CONTRIBUTOR>  (502) 
University of Tokyo Team, {Faculty of Engineering, University of Tokyo

>  <COMMENT>  (502) 
SMILES=C[Si](C)(C)[Si](C)(C)C
InChI=InChI=1S/C6H18Si2/c1-7(2,3)8(4,5)6/h1-6H3
computed SMILES=C[Si](C)(C)[Si](C)(C)C
accession=JP011356
date=2016.01.19 (Created 2008.10.21, modified 2011.05.06)
author=YAMAMOTO M, DEP. CHEMISTRY, FAC. SCIENCE, NARA WOMEN'S UNIV.
license=CC BY-NC-SA
exact mass=146.0947
ionization energy=70 eV
ion type=[M]+*
computed spectral entropy=1.8494846446246982
computed normalized entropy=0.6281280263272022
SPLASH=splash10-00di-9200000000-de52ff23d333dec69709
submitter=submitter = University of Tokyo Team (Faculty of Engineering, University of Tokyo)
MoNA Rating=3.75

>  <NUM PEAKS>  (502) 
19

>  <MASS SPECTRAL PEAKS>  (502) 
28 3.4
29 1.5
43 5.9
44 1.9
45 10.8
55 1.1
58 1.5
59 3.4
72 2.7
73 99.99
74 8.2
75 3.8
115 1.6
131 23
132 3.6
133 2
146 11.7
147 2
148 1

>  <PREDICTED SPECTRUM>  (502) 
14 7
15 66
27 69
28 62
29 38
30 24
31 94
32 13
39 32
40 26
41 10
42 14
43 286
44 87
45 316
46 63
47 4
55 20
57 187
58 203
59 297
60 59
69 111
71 22
72 151
73 999
74 274
75 118
77 17
86 37
100 27
101 38
115 120
116 83
117 74
130 2
131 521
132 264
133 168
146 228
147 247
148 37

$$$$

     RDKit          2D

  6  5  0  0  0  0  0  0  0  0999 V2000
    0.0000    0.0000    0.0000 C   0  0  0  0  0  0  0  0  0  0  0  0
   -0.5490    3.5490    0.0000 C   0  0  0  0  0  0  0  0  0  0  0  0
   -2.5981    3.0000    0.0000 C   0  0  0  0  0  0  0  0  0  0  0  0
   -2.0490    0.9510    0.0000 C   0  0  0  0  0  0  0  0  0  0  0  0
    0.0000    1.5000    0.0000 C   0  0  0  0  0  0  0  0  0  0  0  0
   -1.2990    2.2500    0.0000 C   0  0  0  0  0  0  0  0  0  0  0  0
  5  1  1  0
  6  2  1  0
  6  3  1  0
  6  4  1  0
  6  5  1  0
M  END
>  <NAME>  (503) 
2,2-DIMETHYLBUTANE

>  <SYNONYMS>  (503) 


>  <SPECTRUM TYPE>  (503) 
MS1

>  <INSTRUMENT TYPE>  (503) 
EI-B

>  <INSTRUMENT>  (503) 
HITACHI RMU-6M

>  <ION MODE>  (503) 
P

>  <INCHIKEY>  (503) 
HNRMPXKDFBEGFZ-UHFFFAOYSA-N

>  <FORMULA>  (503) 
C6H14

>  <EXACT MASS>  (503) 
86.109550448

>  <MW>  (503) 
86

>  <ID>  (503) 
JP011355

>  <CONTRIBUTOR>  (503) 
University of Tokyo Team, {Faculty of Engineering, University of Tokyo

>  <COMMENT>  (503) 
computed SMILES=CCC(C)(C)C
SMILES=CCC(C)(C)C
InChI=InChI=1S/C6H14/c1-5-6(2,3)4/h5H2,1-4H3
accession=JP011355
date=2016.01.19 (Created 2008.10.21, modified 2011.05.06)
author=YAMAMOTO M, DEP. CHEMISTRY, FAC. SCIENCE, NARA WOMEN'S UNIV.
license=CC BY-NC-SA
exact mass=86.10955
ionization energy=70 eV
ion type=[M]+*
computed spectral entropy=2.3897749848262366
computed normalized entropy=0.7424253419046035
SPLASH=splash10-0596-9000000000-17b30ed1df026ca3fe98
submitter=submitter = University of Tokyo Team (Faculty of Engineering, University of Tokyo)
MoNA Rating=3.75

>  <NUM PEAKS>  (503) 
25

>  <MASS SPECTRAL PEAKS>  (503) 
15 2.7
26 2.3
27 28.6
28 5.4
29 41
32 1.4
38 2
39 25.7
40 3.5
41 65
42 2.9
43 99.99
44 3.3
50 1.7
51 2.4
53 4.6
54 1.1
55 15.5
56 32.5
57 98.5
58 4.6
69 1.3
70 3.9
71 82.5
72 4.5

>  <PREDICTED SPECTRUM>  (503) 
14 34
15 122
25 15
26 129
27 424
28 205
29 536
30 126
31 53
32 53
37 27
38 86
39 402
40 165
41 703
42 86
43 585
50 44
51 99
52 96
53 194
54 76
55 563
56 471
57 999
58 199
59 8
65 5
70 71
71 150
86 257
87 75

$$$$

     RDKit          2D

  8  7  0  0  0  0  0  0  0  0999 V2000
    1.6740    0.1005    0.0000 C   0  0  0  0  0  0  0  0  0  0  0  0
    2.4240    1.3995    0.0000 C   0  0  0  0  0  0  0  0  0  0  0  0
    1.8750    3.4486    0.0000 C   0  0  0  0  0  0  0  0  0  0  0  0
   -0.1740    2.8995    0.0000 C   0  0  0  0  0  0  0  0  0  0  0  0
    0.3750    0.8505    0.0000 Si  0  0  0  0  0  4  0  0  0  0  0  0
   -0.9240    1.6005    0.0000 H   0  0  0  0  0  0  0  0  0  0  0  0
   -0.3750   -0.4486    0.0000 H   0  0  0  0  0  0  0  0  0  0  0  0
    1.1250    2.1495    0.0000 Si  0  0  0  0  0  4  0  0  0  0  0  0
  5  6  1  0
  5  7  1  0
  5  1  1  0
  8  2  1  0
  8  3  1  0
  8  4  1  0
  8  5  1  0
M  ISO  2   6   2   7   2
M  END
>  <NAME>  (504) 
1,1,1,2-TETRAMETHYLDISILANE (D2)

>  <SYNONYMS>  (504) 


>  <SPECTRUM TYPE>  (504) 
MS1

>  <INSTRUMENT TYPE>  (504) 
EI-B

>  <INSTRUMENT>  (504) 
HITACHI RMU-6M

>  <ION MODE>  (504) 
P

>  <INCHIKEY>  (504) 
VIPCDVWYAADTGR-BFWBPSQCSA-N

>  <FORMULA>  (504) 
C4H14Si2

>  <EXACT MASS>  (504) 
120.075957

>  <MW>  (504) 
120

>  <ID>  (504) 
JP011354

>  <CONTRIBUTOR>  (504) 
University of Tokyo Team, {Faculty of Engineering, University of Tokyo

>  <COMMENT>  (504) 
SMILES=[2H][Si]([2H])(C)[Si](C)(C)C
InChI=InChI=1S/C4H14Si2/c1-5-6(2,3)4/h5H2,1-4H3/i5D2
computed SMILES=[H][Si]([H])(C)[Si](C)(C)C
accession=JP011354
date=2016.01.19 (Created 2008.10.21, modified 2011.05.06)
author=YAMAMOTO M, DEP. CHEMISTRY, FAC. SCIENCE, NARA WOMEN'S UNIV.
license=CC BY-NC-SA
exact mass=118.0634
ionization energy=70 eV
ion type=[M]+*
computed spectral entropy=2.5088567639367763
computed normalized entropy=0.6848135793176149
SPLASH=splash10-00di-9100000000-3d5e0e7788fd63732a1f
submitter=submitter = University of Tokyo Team (Faculty of Engineering, University of Tokyo)
MoNA Rating=3.75

>  <NUM PEAKS>  (504) 
39

>  <MASS SPECTRAL PEAKS>  (504) 
28 1.9
29 3.2
31 2.4
32 1.2
42 1.9
43 17.6
44 5.3
45 12.8
46 2.3
47 1.9
53 1.5
55 1.6
57 1.3
58 2.1
59 2.2
60 6.1
61 1
69 2.7
70 1.3
71 1.3
72 1.8
73 99.99
74 10.7
75 4.3
81 1.2
85 1.1
86 1.5
87 1.1
88 1.1
101 2.4
102 1.3
103 2.2
105 12.7
106 2.1
107 1.5
116 2.1
118 2.2
120 9.5
121 1.5

>  <PREDICTED SPECTRUM>  (504) 
14 7
28 16
43 468
45 169
46 199
47 189
48 14
59 51
60 254
61 66
73 999
74 275
75 73
76 20
101 287
104 68
105 925
106 175
107 116
120 555
121 47
122 17

$$$$

     RDKit          2D

  6  5  0  0  0  0  0  0  0  0999 V2000
    0.0000    0.0000    0.0000 C   0  0  0  0  0  0  0  0  0  0  0  0
   -0.5490    3.5490    0.0000 C   0  0  0  0  0  0  0  0  0  0  0  0
   -2.5981    3.0000    0.0000 C   0  0  0  0  0  0  0  0  0  0  0  0
   -2.0490    0.9510    0.0000 C   0  0  0  0  0  0  0  0  0  0  0  0
    0.0000    1.5000    0.0000 Si  0  0  0  0  0  4  0  0  0  0  0  0
   -1.2990    2.2500    0.0000 Si  0  0  0  0  0  4  0  0  0  0  0  0
  5  1  1  0
  6  2  1  0
  6  3  1  0
  6  4  1  0
  6  5  1  0
M  END
>  <NAME>  (505) 
1,1,1,2-TETRAMETHYLDISILANE

>  <SYNONYMS>  (505) 


>  <SPECTRUM TYPE>  (505) 
MS1

>  <INSTRUMENT TYPE>  (505) 
EI-B

>  <INSTRUMENT>  (505) 
HITACHI RMU-6M

>  <ION MODE>  (505) 
P

>  <INCHIKEY>  (505) 
VIPCDVWYAADTGR-UHFFFAOYSA-N

>  <FORMULA>  (505) 
C4H14Si2

>  <EXACT MASS>  (505) 
118.063403508

>  <MW>  (505) 
118

>  <ID>  (505) 
JP011353

>  <CONTRIBUTOR>  (505) 
University of Tokyo Team, {Faculty of Engineering, University of Tokyo

>  <COMMENT>  (505) 
SMILES=C[SiH2][Si](C)(C)C
InChI=InChI=1S/C4H14Si2/c1-5-6(2,3)4/h5H2,1-4H3
computed SMILES=C[SiH2][Si](C)(C)C
accession=JP011353
date=2016.01.19 (Created 2008.10.21, modified 2011.05.06)
author=YAMAMOTO M, DEP. CHEMISTRY, FAC. SCIENCE, NARA WOMEN'S UNIV.
license=CC BY-NC-SA
exact mass=118.0634
ionization energy=70 eV
ion type=[M]+*
computed spectral entropy=2.3901700463368027
computed normalized entropy=0.6835878385271773
SPLASH=splash10-00di-9100000000-f1a302d201c6817f3982
submitter=submitter = University of Tokyo Team (Faculty of Engineering, University of Tokyo)
MoNA Rating=3.75

>  <NUM PEAKS>  (505) 
33

>  <MASS SPECTRAL PEAKS>  (505) 
28 1.4
29 3.2
31 3.2
42 2.1
43 18.8
44 3.2
45 14.2
46 1
53 1.6
55 1.8
57 1.5
58 1.5
59 8.3
69 3.3
70 1.3
71 1.3
72 1.6
73 99.99
74 9.2
75 3.9
81 1.2
85 2.1
86 1
87 1.2
101 3.8
102 3.1
103 13.2
104 2.2
105 0.9
116 2.4
117 3.2
118 9.6
119 1.7

>  <PREDICTED SPECTRUM>  (505) 
14 12
15 47
26 7
27 136
28 54
29 131
31 80
32 0
42 123
43 585
44 267
45 440
46 118
47 42
53 36
55 88
57 173
58 27
59 508
60 108
61 123
69 63
71 131
72 116
73 999
74 260
75 332
76 59
77 27
87 111
101 116
102 121
103 470
104 144
105 48
116 178
117 428
118 360
119 113
120 12

$$$$

     RDKit          2D

  7  6  0  0  0  0  0  0  0  0999 V2000
   -2.5111    2.0993    0.0000 C   0  0  0  0  0  0  0  0  0  0  0  0
   -1.2120   -0.1507    0.0000 C   0  0  0  0  0  0  0  0  0  0  0  0
    0.8370    0.8002    0.0000 C   0  0  0  0  0  0  0  0  0  0  0  0
   -0.6630    3.3983    0.0000 C   0  0  0  0  0  0  0  0  0  0  0  0
   -1.2120    1.3493    0.0000 C   0  0  0  0  0  0  0  0  0  0  0  0
    0.0870    2.0993    0.0000 Si  0  0  0  0  0  4  0  0  0  0  0  0
    1.3861    2.8493    0.0000 H   0  0  0  0  0  0  0  0  0  0  0  0
  6  7  1  0
  5  1  1  0
  5  2  1  0
  6  3  1  0
  6  4  1  0
  6  5  1  0
M  ISO  1   7   2
M  END
>  <NAME>  (506) 
ISOPROPYLDIMETHYLSILANE (D)

>  <SYNONYMS>  (506) 


>  <SPECTRUM TYPE>  (506) 
MS1

>  <INSTRUMENT TYPE>  (506) 
EI-B

>  <INSTRUMENT>  (506) 
HITACHI RMU-6M

>  <ION MODE>  (506) 
P

>  <INCHIKEY>  (506) 
IIRAZPOUDJHBPM-RAMDWTOOSA-N

>  <FORMULA>  (506) 
C5H14Si

>  <EXACT MASS>  (506) 
103.09275372399999

>  <MW>  (506) 
103

>  <ID>  (506) 
JP011352

>  <CONTRIBUTOR>  (506) 
University of Tokyo Team, {Faculty of Engineering, University of Tokyo

>  <COMMENT>  (506) 
SMILES=CC(C)[Si]([2H])(C)C
InChI=InChI=1S/C5H14Si/c1-5(2)6(3)4/h5-6H,1-4H3/i6D
computed SMILES=[H][Si](C)(C)C(C)C
accession=JP011352
date=2016.01.19 (Created 2008.10.21, modified 2011.05.06)
author=YAMAMOTO M, DEP. CHEMISTRY, FAC. SCIENCE, NARA WOMEN'S UNIV.
license=CC BY-NC-SA
exact mass=102.08648
ionization energy=70 eV
ion type=[M]+*
computed spectral entropy=2.392026227197094
computed normalized entropy=0.6965740070530425
SPLASH=splash10-08fr-9000000000-9e0be689f7174de5d997
submitter=submitter = University of Tokyo Team (Faculty of Engineering, University of Tokyo)
MoNA Rating=3.75

>  <NUM PEAKS>  (506) 
31

>  <MASS SPECTRAL PEAKS>  (506) 
15 1
27 3.5
28 2.3
29 3.4
31 4.8
32 2.8
39 2.8
41 3.4
42 2.4
43 12.5
44 5.5
45 4.2
46 5.5
53 1.7
55 1.8
56 1.1
57 1.7
58 29.3
59 21.8
60 99.99
61 8.3
62 3.8
67 1
72 1.1
73 4
74 1
86 1.1
88 2.9
101 1.9
103 8.8
104 1.1

>  <PREDICTED SPECTRUM>  (506) 
27 6
28 20
31 44
39 7
40 4
41 131
42 205
43 372
44 168
45 425
46 194
47 59
53 130
56 91
58 121
59 782
60 999
61 487
62 171
73 168
74 197
75 270
76 9
88 648
89 133
90 64
103 610
104 209
105 97

$$$$

     RDKit          2D

  6  5  0  0  0  0  0  0  0  0999 V2000
   -0.0000   -0.0000    0.0000 C   0  0  0  0  0  0  0  0  0  0  0  0
    1.2990    2.2500    0.0000 C   0  0  0  0  0  0  0  0  0  0  0  0
   -1.2990    3.7500    0.0000 C   0  0  0  0  0  0  0  0  0  0  0  0
   -2.5981    1.5000    0.0000 C   0  0  0  0  0  0  0  0  0  0  0  0
   -0.0000    1.5000    0.0000 C   0  0  0  0  0  0  0  0  0  0  0  0
   -1.2990    2.2500    0.0000 Si  0  0  0  0  0  4  0  0  0  0  0  0
  5  1  1  0
  5  2  1  0
  6  3  1  0
  6  4  1  0
  6  5  1  0
M  END
>  <NAME>  (507) 
ISOPROPYLDIMETHYLSILANE

>  <SYNONYMS>  (507) 


>  <SPECTRUM TYPE>  (507) 
MS1

>  <INSTRUMENT TYPE>  (507) 
EI-B

>  <INSTRUMENT>  (507) 
HITACHI RMU-6M

>  <ION MODE>  (507) 
P

>  <INCHIKEY>  (507) 
IIRAZPOUDJHBPM-UHFFFAOYSA-N

>  <FORMULA>  (507) 
C5H14Si

>  <EXACT MASS>  (507) 
102.08647697800001

>  <MW>  (507) 
102

>  <ID>  (507) 
JP011351

>  <CONTRIBUTOR>  (507) 
University of Tokyo Team, {Faculty of Engineering, University of Tokyo

>  <COMMENT>  (507) 
SMILES=CC(C)[SiH](C)C
InChI=InChI=1S/C5H14Si/c1-5(2)6(3)4/h5-6H,1-4H3
computed SMILES=CC(C)[SiH](C)C
accession=JP011351
date=2016.01.19 (Created 2008.10.21, modified 2011.05.06)
author=YAMAMOTO M, DEP. CHEMISTRY, FAC. SCIENCE, NARA WOMEN'S UNIV.
license=CC BY-NC-SA
exact mass=102.08648
ionization energy=70 eV
ion type=[M]+*
computed spectral entropy=2.4197064911627026
computed normalized entropy=0.6861767179707423
SPLASH=splash10-0a4i-9000000000-ad275a56414e9d9cf1de
submitter=submitter = University of Tokyo Team (Faculty of Engineering, University of Tokyo)
MoNA Rating=3.75

>  <NUM PEAKS>  (507) 
34

>  <MASS SPECTRAL PEAKS>  (507) 
14 1.3
15 1.5
27 3.4
28 3.6
29 3.8
31 7.1
32 1.2
39 3.5
41 2.5
42 3.5
43 17.9
44 3.3
45 8.1
46 1
53 1.9
54 1
55 2.4
57 2.3
58 32.6
59 99.99
60 8.3
61 4.4
66 1
67 1.2
69 1.1
71 1.5
73 5.8
74 1
85 1.1
86 1.4
87 3.2
101 2.5
102 8.4
103 1.5

>  <PREDICTED SPECTRUM>  (507) 
14 13
15 19
25 1
26 43
27 151
28 63
29 52
31 217
32 41
33 22
39 163
40 62
41 274
42 194
43 490
44 256
45 370
46 89
47 63
51 3
53 131
55 116
56 9
57 234
58 332
59 999
60 276
61 239
67 15
71 140
72 4
73 93
74 116
75 69
86 11
87 182
88 20
100 45
101 177
102 397
103 148
104 52

$$$$

     RDKit          2D

  8  7  0  0  0  0  0  0  0  0999 V2000
    1.6740    0.1005    0.0000 C   0  0  0  0  0  0  0  0  0  0  0  0
   -0.3750   -0.4486    0.0000 C   0  0  0  0  0  0  0  0  0  0  0  0
    2.4240    1.3995    0.0000 C   0  0  0  0  0  0  0  0  0  0  0  0
   -0.1740    2.8995    0.0000 C   0  0  0  0  0  0  0  0  0  0  0  0
    0.3750    0.8505    0.0000 Si  0  0  0  0  0  4  0  0  0  0  0  0
   -0.9240    1.6005    0.0000 H   0  0  0  0  0  0  0  0  0  0  0  0
    1.1250    2.1495    0.0000 Si  0  0  0  0  0  4  0  0  0  0  0  0
    1.8750    3.4486    0.0000 H   0  0  0  0  0  0  0  0  0  0  0  0
  5  6  1  0
  7  8  1  0
  5  1  1  0
  5  2  1  0
  7  3  1  0
  7  4  1  0
  7  5  1  0
M  ISO  2   6   2   8   2
M  END
>  <NAME>  (508) 
1,1,2,2-TETRAMETHYLDISILANE (D2)

>  <SYNONYMS>  (508) 


>  <SPECTRUM TYPE>  (508) 
MS1

>  <INSTRUMENT TYPE>  (508) 
EI-B

>  <INSTRUMENT>  (508) 
HITACHI RMU-6M

>  <ION MODE>  (508) 
P

>  <INCHIKEY>  (508) 
RDWAGGBALVFUHB-KCZCTXNHSA-N

>  <FORMULA>  (508) 
C4H14Si2

>  <EXACT MASS>  (508) 
120.075957

>  <MW>  (508) 
120

>  <ID>  (508) 
JP011350

>  <CONTRIBUTOR>  (508) 
University of Tokyo Team, {Faculty of Engineering, University of Tokyo

>  <COMMENT>  (508) 
SMILES=[2H][Si](C)(C)[Si]([2H])(C)C
InChI=InChI=1S/C4H14Si2/c1-5(2)6(3)4/h5-6H,1-4H3/i5D,6D
computed SMILES=[H][Si](C)(C)[Si]([H])(C)C
accession=JP011350
date=2016.01.19 (Created 2008.10.21, modified 2011.05.06)
author=YAMAMOTO M, DEP. CHEMISTRY, FAC. SCIENCE, NARA WOMEN'S UNIV.
license=CC BY-NC-SA
exact mass=118.0634
ionization energy=70 eV
ion type=[M]+*
computed spectral entropy=2.9622419988252946
computed normalized entropy=0.7392053173271268
SPLASH=splash10-074i-9200000000-c7d8112d6a72d812a412
submitter=submitter = University of Tokyo Team (Faculty of Engineering, University of Tokyo)
MoNA Rating=3.75

>  <NUM PEAKS>  (508) 
55

>  <MASS SPECTRAL PEAKS>  (508) 
28 3.3
29 4.9
30 1
31 7.9
32 5.2
39 1.2
42 3
43 38.9
44 10.4
45 6.5
46 3.3
47 1.8
50 1.6
51 1.7
52 1.8
53 2
55 1.8
56 1.2
57 1.8
58 67.9
59 12.1
60 99.99
61 8.5
62 3.7
69 4.2
70 2.4
71 2
72 1.8
73 78.6
74 12.2
75 4
76 1.1
77 1.8
81 1.2
83 1
84 1.2
85 1.8
86 3.1
87 1.8
88 2
89 1.6
99 1
101 4
102 3.5
103 10.2
104 2.4
105 31.2
106 4.7
107 2.6
116 1
118 4.7
119 1.8
120 34
121 5.2
122 2.9

>  <PREDICTED SPECTRUM>  (508) 
14 13
28 58
31 103
32 6
43 316
44 69
45 198
46 145
47 83
59 214
60 181
63 43
73 999
74 294
75 163
76 22
78 41
86 57
89 12
104 19
105 659
106 200
107 76
120 406
121 79
122 36

$$$$

     RDKit          2D

  6  5  0  0  0  0  0  0  0  0999 V2000
   -0.0000   -0.0000    0.0000 C   0  0  0  0  0  0  0  0  0  0  0  0
    1.2990    2.2500    0.0000 C   0  0  0  0  0  0  0  0  0  0  0  0
   -1.2990    3.7500    0.0000 C   0  0  0  0  0  0  0  0  0  0  0  0
   -2.5981    1.5000    0.0000 C   0  0  0  0  0  0  0  0  0  0  0  0
   -0.0000    1.5000    0.0000 Si  0  0  0  0  0  4  0  0  0  0  0  0
   -1.2990    2.2500    0.0000 Si  0  0  0  0  0  4  0  0  0  0  0  0
  5  1  1  0
  5  2  1  0
  6  3  1  0
  6  4  1  0
  6  5  1  0
M  END
>  <NAME>  (509) 
1,1,2,2-TETRAMETHYLDISILANE

>  <SYNONYMS>  (509) 


>  <SPECTRUM TYPE>  (509) 
MS1

>  <INSTRUMENT TYPE>  (509) 
EI-B

>  <INSTRUMENT>  (509) 
HITACHI RMU-6M

>  <ION MODE>  (509) 
P

>  <INCHIKEY>  (509) 
RDWAGGBALVFUHB-UHFFFAOYSA-N

>  <FORMULA>  (509) 
C4H14Si2

>  <EXACT MASS>  (509) 
118.063403508

>  <MW>  (509) 
118

>  <ID>  (509) 
JP011349

>  <CONTRIBUTOR>  (509) 
University of Tokyo Team, {Faculty of Engineering, University of Tokyo

>  <COMMENT>  (509) 
SMILES=C[SiH](C)[SiH](C)C
InChI=InChI=1S/C4H14Si2/c1-5(2)6(3)4/h5-6H,1-4H3
computed SMILES=C[SiH](C)[SiH](C)C
accession=JP011349
date=2016.01.19 (Created 2008.10.21, modified 2011.05.06)
author=YAMAMOTO M, DEP. CHEMISTRY, FAC. SCIENCE, NARA WOMEN'S UNIV.
license=CC BY-NC-SA
exact mass=118.0634
ionization energy=70 eV
ion type=[M]+*
computed spectral entropy=2.849654831879143
computed normalized entropy=0.7442992270031628
SPLASH=splash10-0ab9-9200000000-aeea5de1da9f8e7293b3
submitter=submitter = University of Tokyo Team (Faculty of Engineering, University of Tokyo)
MoNA Rating=3.75

>  <NUM PEAKS>  (509) 
46

>  <MASS SPECTRAL PEAKS>  (509) 
28 3.4
29 5.1
31 11.7
32 1.1
39 2.1
42 3.5
43 41.4
44 6.2
45 9.6
50 2.1
51 2.8
52 3.1
53 2.3
55 2.5
57 3
58 61.5
59 99.99
60 9.1
61 3.4
69 5.3
70 1.8
71 2.4
72 1.5
73 84.7
74 7.6
75 3.4
76 1
77 2.7
81 1.5
83 1.3
84 1
85 4
86 1.5
87 3
99 1.6
100 1.1
101 7.3
102 14.6
103 29.5
104 4.6
105 2
116 1.3
117 8.4
118 32.2
119 5.2
120 2.6

>  <PREDICTED SPECTRUM>  (509) 
31 197
39 36
41 51
42 6
43 645
44 349
45 557
46 49
53 58
55 74
56 89
57 126
58 999
59 928
60 339
61 155
69 228
71 163
72 50
73 932
74 160
75 199
81 21
85 228
86 19
87 335
89 72
99 30
101 319
102 203
103 463
104 179
105 220
116 89
117 342
118 466
119 233
120 90

$$$$

     RDKit          2D

 13 14  0  0  0  0  0  0  0  0999 V2000
    0.4487    2.2416    0.0000 C   0  0  0  0  0  0  0  0  0  0  0  0
   -2.3100    0.7500    0.0000 C   0  0  0  0  0  0  0  0  0  0  0  0
    2.6000    0.0000    0.0000 C   0  0  0  0  0  0  0  0  0  0  0  0
   -1.0100    1.5000    0.0000 C   0  0  0  0  0  0  0  0  0  0  0  0
    1.7200   -1.2100    0.0000 C   0  0  0  0  0  0  0  0  0  0  0  0
   -1.0100   -1.5000    0.0000 C   0  0  0  0  0  0  0  0  0  0  0  0
   -2.3100   -0.7500    0.0000 C   0  0  0  0  0  0  0  0  0  0  0  0
    1.7200    1.2100    0.0000 C   0  0  0  0  0  0  0  0  0  0  0  0
    0.2900    0.7500    0.0000 C   0  0  0  0  0  0  0  0  0  0  0  0
    0.2900   -0.7500    0.0000 C   0  0  0  0  0  0  0  0  0  0  0  0
   -3.6089   -1.5002    0.0000 O   0  0  0  0  0  0  0  0  0  0  0  0
    2.1853    2.6360    0.0000 O   0  0  0  0  0  0  0  0  0  0  0  0
    0.4487   -2.2416    0.0000 O   0  0  0  0  0  0  0  0  0  0  0  0
  4  2  1  0
  5  3  1  0
  7  2  1  0
  7  6  1  0
  8  3  1  0
  9  1  1  0
  9  4  1  0
  9  8  1  0
 10  5  1  0
 10  6  1  0
 10  9  1  0
 11  7  2  0
 12  8  2  0
 13 10  1  0
M  END
>  <NAME>  (510) 
1-HYDROXY-6-METHYLBICYCLO(4.3.0)NONANE-3,7-DIONE

>  <SYNONYMS>  (510) 


>  <SPECTRUM TYPE>  (510) 
MS1

>  <INSTRUMENT TYPE>  (510) 
EI-B

>  <INSTRUMENT>  (510) 
HITACHI RMU-6M

>  <ION MODE>  (510) 
P

>  <INCHIKEY>  (510) 
PUHCDQVSBDIJTM-UHFFFAOYSA-N

>  <FORMULA>  (510) 
C10H14O3

>  <EXACT MASS>  (510) 
182.09429430799997

>  <MW>  (510) 
182

>  <ID>  (510) 
JP011348

>  <CONTRIBUTOR>  (510) 
University of Tokyo Team, {Faculty of Engineering, University of Tokyo

>  <COMMENT>  (510) 
SMILES=O=C(C2)CC(O)(C1)C(C)(C2)C(=O)C1
InChI=InChI=1S/C10H14O3/c1-9-4-2-7(11)6-10(9,13)5-3-8(9)12/h13H,2-6H2,1H3
computed SMILES=O=C1CCC2(C(=O)CCC2(O)C1)C
accession=JP011348
date=2016.01.19 (Created 2008.10.21, modified 2011.05.06)
author=YAMAMOTO M, DEP. CHEMISTRY, FAC. SCIENCE, NARA WOMEN'S UNIV.
license=CC BY-NC-SA
exact mass=182.09429
ionization energy=70 eV
ion type=[M]+*
computed spectral entropy=3.8713561400278653
computed normalized entropy=0.8885964828109668
SPLASH=splash10-005c-9600000000-dad872bda11279f13c1a
submitter=submitter = University of Tokyo Team (Faculty of Engineering, University of Tokyo)
MoNA Rating=3.75

>  <NUM PEAKS>  (510) 
78

>  <MASS SPECTRAL PEAKS>  (510) 
38 2.5
39 34
40 10.2
41 51
42 11
43 63.7
44 4.2
45 2.5
50 6.4
51 11.3
52 8.5
53 23.4
54 9.3
55 32.3
56 22.9
57 9.3
58 3.8
59 1.3
62 1.5
63 4.7
64 1.3
65 11.7
66 7
67 11
68 4.9
69 47.8
70 11.9
71 19.4
72 2.1
73 3.6
74 1.5
77 14.9
78 6.4
79 50
80 14.9
81 14
82 6.6
83 18.3
84 28.9
85 6.6
86 1.5
91 7.4
92 2.8
93 15.5
94 19.5
95 34
96 9.3
97 37.8
98 11.9
99 8.1
100 1.1
105 2.5
107 19.1
108 8.5
109 39.5
110 10.8
111 12.1
112 13.2
113 23.8
114 2.5
121 17.8
122 57.7
123 27
124 8.9
125 99.99
126 17.8
127 7.6
136 14.1
137 4.9
139 3.8
140 6.6
149 4
164 39.5
165 5.9
167 4.7
182 94.1
183 14.2
185 1.9

>  <PREDICTED SPECTRUM>  (510) 
26 57
27 230
28 104
29 129
31 31
37 4
38 82
39 359
40 218
41 555
42 347
43 658
44 217
45 108
50 90
51 202
52 198
53 476
54 337
55 721
56 276
57 295
58 358
59 176
60 135
61 13
62 23
63 106
64 38
65 241
66 225
67 461
68 486
69 575
70 389
71 504
72 217
73 81
74 45
77 297
78 202
79 498
80 311
81 478
82 471
83 551
84 360
85 242
86 88
87 24
91 307
92 176
93 460
94 386
95 620
96 385
97 579
98 241
99 159
100 80
105 210
106 166
107 495
108 379
109 438
110 304
111 530
112 534
113 276
114 32
118 54
119 49
120 128
121 399
122 399
123 424
124 436
125 999
126 418
127 173
128 52
131 102
135 144
136 333
137 179
138 228
139 274
140 208
146 142
149 338
150 35
153 107
154 121
163 40
164 636
165 272
166 9
167 236
168 30
182 902
183 337
184 25

$$$$

     RDKit          2D

 13 14  0  0  0  0  0  0  0  0999 V2000
    0.4487    2.2416    0.0000 C   0  0  0  0  0  0  0  0  0  0  0  0
   -2.3100    0.7500    0.0000 C   0  0  0  0  0  0  0  0  0  0  0  0
    2.6000    0.0000    0.0000 C   0  0  0  0  0  0  0  0  0  0  0  0
   -1.0100    1.5000    0.0000 C   0  0  0  0  0  0  0  0  0  0  0  0
    1.7200   -1.2100    0.0000 C   0  0  0  0  0  0  0  0  0  0  0  0
   -1.0100   -1.5000    0.0000 C   0  0  0  0  0  0  0  0  0  0  0  0
   -2.3100   -0.7500    0.0000 C   0  0  0  0  0  0  0  0  0  0  0  0
    1.7200    1.2100    0.0000 C   0  0  0  0  0  0  0  0  0  0  0  0
    0.2900    0.7500    0.0000 C   0  0  0  0  0  0  0  0  0  0  0  0
    0.2900   -0.7500    0.0000 C   0  0  0  0  0  0  0  0  0  0  0  0
   -3.6089   -1.5002    0.0000 O   0  0  0  0  0  0  0  0  0  0  0  0
    2.1853    2.6360    0.0000 O   0  0  0  0  0  0  0  0  0  0  0  0
    0.4487   -2.2416    0.0000 O   0  0  0  0  0  0  0  0  0  0  0  0
  4  2  1  0
  5  3  1  0
  7  2  1  0
  7  6  1  0
  8  3  1  0
  9  1  1  0
  9  4  1  0
  9  8  1  0
 10  5  1  0
 10  6  1  0
 10  9  1  0
 11  7  1  0
 12  8  1  0
 13 10  1  0
M  END
>  <NAME>  (511) 
1,3,7-TRIHYDROXY-6-METHYLBICYCLO(4.3.0)NONANE

>  <SYNONYMS>  (511) 


>  <SPECTRUM TYPE>  (511) 
MS1

>  <INSTRUMENT TYPE>  (511) 
EI-B

>  <INSTRUMENT>  (511) 
HITACHI RMU-6M

>  <ION MODE>  (511) 
P

>  <INCHIKEY>  (511) 
QNFLQEIYODCTMR-UHFFFAOYSA-N

>  <FORMULA>  (511) 
C10H18O3

>  <EXACT MASS>  (511) 
186.12559443599997

>  <MW>  (511) 
186

>  <ID>  (511) 
JP011347

>  <CONTRIBUTOR>  (511) 
University of Tokyo Team, {Faculty of Engineering, University of Tokyo

>  <COMMENT>  (511) 
SMILES=OC(C2)CC(O)(C1)C(C)(C2)C(O)C1
InChI=InChI=1S/C10H18O3/c1-9-4-2-7(11)6-10(9,13)5-3-8(9)12/h7-8,11-13H,2-6H2,1H3
computed SMILES=OC1CCC2(C)C(O)CCC2(O)C1
accession=JP011347
date=2016.01.19 (Created 2008.10.21, modified 2011.05.06)
author=YAMAMOTO M, DEP. CHEMISTRY, FAC. SCIENCE, NARA WOMEN'S UNIV.
license=CC BY-NC-SA
exact mass=186.12559
ionization energy=70 eV
ion type=[M]+*
computed spectral entropy=4.121018296971311
computed normalized entropy=0.9008259355259866
SPLASH=splash10-0006-9300000000-53efbb4371f912ba11dc
submitter=submitter = University of Tokyo Team (Faculty of Engineering, University of Tokyo)
MoNA Rating=3.75

>  <NUM PEAKS>  (511) 
97

>  <MASS SPECTRAL PEAKS>  (511) 
26 2.2
27 43.3
28 13.6
29 39.2
30 2.7
31 17.4
38 2
39 36.7
40 8.9
41 74.9
42 6.5
43 99.99
44 10.4
45 7.9
47 1.7
50 2.5
51 7.9
52 4.2
53 25.3
54 8.2
55 43.9
56 7.9
57 25.6
58 10.9
59 3.5
63 2.7
64 1.5
65 9.4
66 6.7
67 36.2
68 13.4
69 24.3
70 6.9
71 16.4
72 4.5
73 2
74 1.5
77 15.1
78 5.5
79 31.3
80 12.4
81 39.7
82 25.8
83 18.4
84 10.4
85 20.1
86 3.2
87 1.2
91 23.8
92 9.9
93 42.4
94 21.6
95 26.1
96 14.1
97 15.9
98 26.6
99 9.2
100 3.2
104 4.5
105 6.5
106 36.7
107 23.8
108 29
109 24.3
110 21.8
111 38.7
112 6.5
113 9.4
114 20.3
115 4
117 11.9
118 1.5
119 2.2
121 9.9
122 9.4
123 4.2
124 11.2
125 10.7
126 5.2
127 4.5
128 3.7
129 2
130 3
131 2.2
132 12.9
133 3
135 10.2
136 1.5
139 3
140 6.7
149 1.7
150 38
151 6
153 5
166 1.5
168 11.4
169 3

>  <PREDICTED SPECTRUM>  (511) 
14 17
15 39
16 19
17 51
18 68
19 18
25 16
26 183
27 633
28 309
29 634
30 158
31 393
32 17
34 5
35 39
36 94
37 53
38 141
39 614
40 269
41 976
42 404
43 999
44 429
45 394
46 50
47 128
49 28
50 106
51 233
52 134
53 469
54 403
55 910
56 392
57 715
58 450
59 302
60 269
61 55
62 81
63 128
64 102
65 406
66 295
67 694
68 503
69 597
70 491
71 549
72 415
73 292
74 147
75 134
76 67
77 460
78 280
79 668
80 352
81 687
82 528
83 552
84 382
85 352
86 171
87 122
88 33
89 93
90 6
91 484
92 304
93 825
94 560
95 777
96 639
97 676
98 554
99 404
100 189
101 142
102 27
103 91
104 212
105 330
106 438
107 770
108 660
109 703
110 469
111 705
112 431
113 409
114 781
115 450
116 169
117 289
118 115
119 232
120 32
121 393
122 530
123 267
124 603
125 388
126 278
127 41
128 66
129 46
130 128
131 129
132 218
133 81
134 39
135 508
136 164
137 230
139 229
140 256
141 42
142 65
143 92
148 48
149 221
150 864
151 293
152 121
153 337
154 69
166 74
167 25
168 494
169 211
171 55
186 70

$$$$

     RDKit          2D

 12 12  0  0  0  0  0  0  0  0999 V2000
    1.3000   -0.7500    0.0000 C   0  0  0  0  0  0  0  0  0  0  0  0
    1.8127   -2.1596    0.0000 H   0  0  0  0  0  0  0  0  0  0  0  0
    2.7772   -0.4897    0.0000 H   0  0  0  0  0  0  0  0  0  0  0  0
   -1.3000    0.7500    0.0000 C   0  0  0  0  0  0  0  0  0  0  0  0
   -1.8127    2.1596    0.0000 H   0  0  0  0  0  0  0  0  0  0  0  0
   -2.7772    0.4897    0.0000 H   0  0  0  0  0  0  0  0  0  0  0  0
    1.3000    0.7500    0.0000 C   0  0  0  0  0  0  0  0  0  0  0  0
   -1.3000   -0.7500    0.0000 C   0  0  0  0  0  0  0  0  0  0  0  0
    0.0000   -1.5000    0.0000 N   0  0  0  0  0  0  0  0  0  0  0  0
    0.0000    1.5000    0.0000 N   0  0  0  0  0  0  0  0  0  0  0  0
    2.5989    1.5002    0.0000 O   0  0  0  0  0  0  0  0  0  0  0  0
   -2.5989   -1.5002    0.0000 O   0  0  0  0  0  0  0  0  0  0  0  0
  1  2  1  0
  1  3  1  0
  4  5  1  0
  4  6  1  0
  7  1  1  0
  8  4  1  0
  9  1  1  0
  9  8  2  0
 10  4  1  0
 10  7  2  0
 11  7  1  0
 12  8  1  0
M  ISO  4   2   2   3   2   5   2   6   2
M  END
>  <NAME>  (512) 
CYCLO-GLYCYLGLYCINE (3,3,6,6-D4)

>  <SYNONYMS>  (512) 


>  <SPECTRUM TYPE>  (512) 
MS1

>  <INSTRUMENT TYPE>  (512) 
EI-B

>  <INSTRUMENT>  (512) 
HITACHI RMU-6M

>  <ION MODE>  (512) 
P

>  <INCHIKEY>  (512) 
BXRNXXXXHLBUKK-LNLMKGTHSA-N

>  <FORMULA>  (512) 
C4H6N2O2

>  <EXACT MASS>  (512) 
118.06803441599999

>  <MW>  (512) 
118

>  <ID>  (512) 
JP011346

>  <CONTRIBUTOR>  (512) 
University of Tokyo Team, {Faculty of Engineering, University of Tokyo

>  <COMMENT>  (512) 
SMILES=[2H]C([2H])(N1)C(=O)NC([2H])([2H])C(=O)1
InChI=InChI=1S/C4H6N2O2/c7-3-1-5-4(8)2-6-3/h1-2H2,(H,5,8)(H,6,7)/i1D2,2D2
computed SMILES=[H]C1([H])N=C(O)C([H])([H])N=C1O
accession=JP011346
date=2016.01.19 (Created 2008.10.21, modified 2011.05.06)
author=YAMAMOTO M, DEP. CHEMISTRY, FAC. SCIENCE, NARA WOMEN'S UNIV.
license=CC BY-NC-SA
exact mass=114.04293
ionization energy=70 eV
ion type=[M]+*
computed spectral entropy=2.8582108202903216
computed normalized entropy=0.7915468834896039
SPLASH=splash10-00lr-9200000000-75e9ebb58c77f551b84e
submitter=submitter = University of Tokyo Team (Faculty of Engineering, University of Tokyo)
MoNA Rating=3.75

>  <NUM PEAKS>  (512) 
37

>  <MASS SPECTRAL PEAKS>  (512) 
18 12.94
27 3.29
28 17.71
29 63.34
30 27.81
31 54.6
32 77.98
33 55.05
38 1.02
39 1.02
40 1.02
41 1.59
42 3.18
43 10.78
44 45.29
45 10.78
46 10.33
47 30.31
56 1.7
57 2.61
58 9.88
59 2.61
60 4.99
61 1.14
62 1.7
72 0.91
73 4.31
74 10.33
75 31.56
76 1.36
88 1.02
89 1.48
90 4.09
116 2.72
117 38.14
118 99.99
119 6.58

>  <PREDICTED SPECTRUM>  (512) 
16 15
17 1
26 103
27 116
28 166
29 70
30 171
31 90
32 89
33 38
34 9
38 43
40 187
41 520
42 557
43 360
44 320
45 86
46 382
48 53
52 249
53 109
54 261
55 423
56 468
57 502
58 298
59 133
60 301
64 48
65 28
66 78
68 31
69 120
70 283
71 382
72 515
73 432
74 101
75 20
80 19
82 228
83 141
84 322
85 341
86 765
87 494
88 765
89 192
99 227
100 189
101 104
102 138
114 18
116 350
117 132
118 999
119 226
120 47

$$$$

     RDKit          2D

 10 10  0  0  0  0  0  0  0  0999 V2000
    2.0285   -0.7989    0.0000 C   0  0  0  0  0  0  0  0  0  0  0  0
    1.8177    1.1977    0.0000 C   0  0  0  0  0  0  0  0  0  0  0  0
   -2.8950   -0.9104    0.0000 C   0  0  0  0  0  0  0  0  0  0  0  0
   -1.5498   -2.3970    0.0000 C   0  0  0  0  0  0  0  0  0  0  0  0
   -0.1851    1.1908    0.0000 C   0  0  0  0  0  0  0  0  0  0  0  0
   -1.5608    0.5879    0.0000 C   0  0  0  0  0  0  0  0  0  0  0  0
    0.0647   -1.2166    0.0000 C   0  0  0  0  0  0  0  0  0  0  0  0
    0.8147    0.0824    0.0000 C   0  0  0  0  0  0  0  0  0  0  0  0
   -1.3951   -0.9050    0.0000 C   0  0  0  0  0  0  0  0  0  0  0  0
    0.6742   -2.5872    0.0000 O   0  0  0  0  0  0  0  0  0  0  0  0
  6  5  1  0
  8  1  1  0
  8  2  1  0
  8  5  1  0
  8  7  1  0
  9  3  1  0
  9  4  1  0
  9  6  1  0
  9  7  1  0
 10  7  2  0
M  END
>  <NAME>  (513) 
2,2,5,5-TETRAMETHYLCYCLOPENTANONE

>  <SYNONYMS>  (513) 


>  <SPECTRUM TYPE>  (513) 
MS1

>  <INSTRUMENT TYPE>  (513) 
EI-B

>  <INSTRUMENT>  (513) 
HITACHI RMU-6M

>  <ION MODE>  (513) 
P

>  <INCHIKEY>  (513) 
BXYUQRQZHXARGL-UHFFFAOYSA-N

>  <FORMULA>  (513) 
C9H16O

>  <EXACT MASS>  (513) 
140.120115132

>  <MW>  (513) 
140

>  <ID>  (513) 
JP011345

>  <CONTRIBUTOR>  (513) 
University of Tokyo Team, {Faculty of Engineering, University of Tokyo

>  <COMMENT>  (513) 
SMILES=O=C(C(C)(C)1)C(C)(C)CC1
InChI=InChI=1S/C9H16O/c1-8(2)5-6-9(3,4)7(8)10/h5-6H2,1-4H3
computed SMILES=O=C1C(C)(C)CCC1(C)C
accession=JP011345
date=2016.01.19 (Created 2008.10.21, modified 2011.05.06)
author=YAMAMOTO M, DEP. CHEMISTRY, FAC. SCIENCE, NARA WOMEN'S UNIV.
license=CC BY-NC-SA
exact mass=140.12012
ionization energy=70 eV
ion type=[M]+*
computed spectral entropy=2.333018288778499
computed normalized entropy=0.7787806371664581
SPLASH=splash10-0a4i-9000000000-be91db224640e551f8d7
submitter=submitter = University of Tokyo Team (Faculty of Engineering, University of Tokyo)
MoNA Rating=3.75

>  <NUM PEAKS>  (513) 
20

>  <MASS SPECTRAL PEAKS>  (513) 
27 10.5
28 4.1
29 9.6
39 12.6
40 3.6
41 36.9
42 4.8
43 3.3
53 4
55 10.6
56 99.99
57 43.1
69 16.8
70 3.8
72 14.5
97 3.1
112 4.1
125 2
140 15.5
141 1.9

>  <PREDICTED SPECTRUM>  (513) 
15 15
25 3
26 85
27 292
28 163
29 221
30 9
31 24
32 21
37 57
38 112
39 448
40 211
41 654
42 334
43 355
44 74
45 83
50 89
51 99
52 49
53 198
54 167
55 322
56 999
57 450
58 174
59 2
67 213
68 152
69 447
70 504
71 237
72 51
77 26
79 73
81 105
82 211
83 424
84 138
85 128
95 60
96 35
97 213
98 115
99 3
111 61
112 155
113 55
125 77
140 346
141 76

$$$$

     RDKit          2D

  9  9  0  0  0  0  0  0  0  0999 V2000
    2.2808    0.5629    0.0000 C   0  0  0  0  0  0  0  0  0  0  0  0
   -2.9207   -0.5873    0.0000 C   0  0  0  0  0  0  0  0  0  0  0  0
   -1.5754   -2.0739    0.0000 C   0  0  0  0  0  0  0  0  0  0  0  0
   -0.2107    1.5139    0.0000 C   0  0  0  0  0  0  0  0  0  0  0  0
   -1.5864    0.9110    0.0000 C   0  0  0  0  0  0  0  0  0  0  0  0
    0.7891    0.4055    0.0000 C   0  0  0  0  0  0  0  0  0  0  0  0
    0.0391   -0.8935    0.0000 C   0  0  0  0  0  0  0  0  0  0  0  0
   -1.4207   -0.5819    0.0000 C   0  0  0  0  0  0  0  0  0  0  0  0
    0.6486   -2.2641    0.0000 O   0  0  0  0  0  0  0  0  0  0  0  0
  5  4  1  0
  6  1  1  0
  6  4  1  0
  7  6  1  0
  8  2  1  0
  8  3  1  0
  8  5  1  0
  8  7  1  0
  9  7  2  0
M  END
>  <NAME>  (514) 
2,2,5-TRIMETHYLCYCLOPENTANONE

>  <SYNONYMS>  (514) 


>  <SPECTRUM TYPE>  (514) 
MS1

>  <INSTRUMENT TYPE>  (514) 
EI-B

>  <INSTRUMENT>  (514) 
HITACHI RMU-6M

>  <ION MODE>  (514) 
P

>  <INCHIKEY>  (514) 
KWJHOYYJYPCTBS-UHFFFAOYSA-N

>  <FORMULA>  (514) 
C8H14O

>  <EXACT MASS>  (514) 
126.104465068

>  <MW>  (514) 
126

>  <ID>  (514) 
JP011344

>  <CONTRIBUTOR>  (514) 
University of Tokyo Team, {Faculty of Engineering, University of Tokyo

>  <COMMENT>  (514) 
SMILES=CC(C1)C(=O)C(C)(C)C1
InChI=InChI=1S/C8H14O/c1-6-4-5-8(2,3)7(6)9/h6H,4-5H2,1-3H3
computed SMILES=O=C1C(C)CCC1(C)C
accession=JP011344
date=2016.01.19 (Created 2008.10.21, modified 2011.05.06)
author=YAMAMOTO M, DEP. CHEMISTRY, FAC. SCIENCE, NARA WOMEN'S UNIV.
license=CC BY-NC-SA
exact mass=126.10447
ionization energy=70 eV
ion type=[M]+*
computed spectral entropy=2.594558748440437
computed normalized entropy=0.8163986159279041
SPLASH=splash10-0a4i-9100000000-6865e12137d7091e3a29
submitter=submitter = University of Tokyo Team (Faculty of Engineering, University of Tokyo)
MoNA Rating=3.75

>  <NUM PEAKS>  (514) 
24

>  <MASS SPECTRAL PEAKS>  (514) 
27 12
28 10.7
29 8.2
39 14.9
40 5.1
41 32
42 8.1
43 4.5
55 14.9
56 99.99
57 16.8
68 3.6
69 13.6
70 7.8
71 5
72 3.5
82 3.1
83 4.7
84 3.5
93 5.1
108 4.5
111 6.7
126 17.7
127 2.8

>  <PREDICTED SPECTRUM>  (514) 
15 31
26 89
27 285
28 196
29 255
31 4
32 19
34 27
37 14
38 60
39 320
40 156
41 599
42 410
43 248
45 11
50 81
51 98
52 68
53 144
54 144
55 352
56 999
57 249
58 23
63 24
65 74
66 7
67 168
68 158
69 299
70 379
71 108
77 36
79 41
81 72
82 70
83 288
84 191
93 72
97 70
98 73
111 132
126 372
127 98

$$$$

     RDKit          2D

 14 14  0  0  0  0  0  0  0  0999 V2000
    1.8532   -0.9044    0.0000 C   0  0  0  0  0  0  0  0  0  0  0  0
    0.7379   -1.9074    0.0000 H   0  0  0  0  0  0  0  0  0  0  0  0
    2.8562   -2.0197    0.0000 H   0  0  0  0  0  0  0  0  0  0  0  0
    4.5798    0.1954    0.0000 H   0  0  0  0  0  0  0  0  0  0  0  0
    1.4894    2.4450    0.0000 C   0  0  0  0  0  0  0  0  0  0  0  0
    3.2168    0.0659    0.0000 H   0  0  0  0  0  0  0  0  0  0  0  0
    2.7032    3.3263    0.0000 H   0  0  0  0  0  0  0  0  0  0  0  0
    0.6081    3.6588    0.0000 H   0  0  0  0  0  0  0  0  0  0  0  0
   -2.3225    2.2690    0.0000 C   0  0  0  0  0  0  0  0  0  0  0  0
   -2.4883    0.7761    0.0000 C   0  0  0  0  0  0  0  0  0  0  0  0
   -0.8628    2.5807    0.0000 C   0  0  0  0  0  0  0  0  0  0  0  0
   -1.1125    0.1733    0.0000 C   0  0  0  0  0  0  0  0  0  0  0  0
   -0.1128    1.2816    0.0000 C   0  0  0  0  0  0  0  0  0  0  0  0
   -0.6960   -1.7624    0.0000 O   0  0  0  0  0  0  0  0  0  0  0  0
  1  2  1  0
  1  3  1  0
  1  4  1  0
  5  6  1  0
  5  7  1  0
  5  8  1  0
 10  9  1  0
 11  9  1  0
 12 10  1  0
 13  1  1  0
 13  5  1  0
 13 11  1  0
 13 12  1  0
 14 12  2  0
M  ISO  6   2   2   3   2   4   2   6   2   7   2   8   2
M  END
>  <NAME>  (515) 
2,2-DIMETHYLCYCLOPENTANONE (D6-METHYL)

>  <SYNONYMS>  (515) 


>  <SPECTRUM TYPE>  (515) 
MS1

>  <INSTRUMENT TYPE>  (515) 
EI-B

>  <INSTRUMENT>  (515) 
HITACHI RMU-6M

>  <ION MODE>  (515) 
P

>  <INCHIKEY>  (515) 
FTGZMZBYOHMEPS-WFGJKAKNSA-N

>  <FORMULA>  (515) 
C7H12O

>  <EXACT MASS>  (515) 
118.12647548

>  <MW>  (515) 
118

>  <ID>  (515) 
JP011343

>  <CONTRIBUTOR>  (515) 
University of Tokyo Team, {Faculty of Engineering, University of Tokyo

>  <COMMENT>  (515) 
SMILES=[2H]C([2H])([2H])C(C1)(C([2H])([2H])[2H])C(=O)CC1
InChI=InChI=1S/C7H12O/c1-7(2)5-3-4-6(7)8/h3-5H2,1-2H3/i1D3,2D3
computed SMILES=[H]C([H])([H])C1(C(=O)CCC1)C([H])([H])[H]
accession=JP011343
date=2016.01.19 (Created 2008.10.21, modified 2011.05.06)
author=YAMAMOTO M, DEP. CHEMISTRY, FAC. SCIENCE, NARA WOMEN'S UNIV.
license=CC BY-NC-SA
exact mass=112.08882
ionization energy=70 eV
ion type=[M]+*
computed spectral entropy=2.774825471110775
computed normalized entropy=0.8240515865580843
SPLASH=splash10-03di-9100000000-f522213444ee16274d1f
submitter=submitter = University of Tokyo Team (Faculty of Engineering, University of Tokyo)
MoNA Rating=3.75

>  <NUM PEAKS>  (515) 
29

>  <MASS SPECTRAL PEAKS>  (515) 
31 3.9
32 35.9
39 5.8
40 7.4
41 10.6
42 11.8
43 7.3
44 19.1
45 24.8
46 11
55 7.1
56 3.9
57 2.1
58 7.9
59 5
60 3.9
61 10.5
62 99.99
63 4.9
72 8
73 8.1
74 2.2
75 3.9
76 2.5
99 5.2
100 10.1
101 3.2
118 21.6
119 2.8

>  <PREDICTED SPECTRUM>  (515) 
25 16
26 166
27 250
28 152
29 23
38 40
39 75
40 162
41 281
42 17
43 135
44 256
45 111
46 62
47 57
48 179
53 100
54 597
55 367
56 43
57 143
58 198
59 124
60 152
61 44
62 216
63 170
64 261
65 94
66 116
67 190
69 51
70 64
71 336
72 188
73 36
82 100
85 35
87 130
88 12
89 16
90 60
91 76
97 97
99 38
100 544
101 29
114 194
115 245
116 464
117 217
118 999
119 215
120 18

$$$$

     RDKit          2D

  8  8  0  0  0  0  0  0  0  0999 V2000
   -0.5857    1.0412    0.0000 C   0  0  0  0  0  0  0  0  0  0  0  0
   -2.4202    0.2254    0.0000 C   0  0  0  0  0  0  0  0  0  0  0  0
   -0.8003   -2.7925    0.0000 C   0  0  0  0  0  0  0  0  0  0  0  0
    0.5754   -2.1896    0.0000 C   0  0  0  0  0  0  0  0  0  0  0  0
   -1.8001   -1.6841    0.0000 C   0  0  0  0  0  0  0  0  0  0  0  0
    0.4097   -0.6967    0.0000 C   0  0  0  0  0  0  0  0  0  0  0  0
   -1.0501   -0.3851    0.0000 C   0  0  0  0  0  0  0  0  0  0  0  0
    1.5219    0.3098    0.0000 O   0  0  0  0  0  0  0  0  0  0  0  0
  4  3  1  0
  5  3  1  0
  6  4  1  0
  7  1  1  0
  7  2  1  0
  7  5  1  0
  7  6  1  0
  8  6  2  0
M  END
>  <NAME>  (516) 
2,2-DIMETHYLCYCLOPENTANONE

>  <SYNONYMS>  (516) 


>  <SPECTRUM TYPE>  (516) 
MS1

>  <INSTRUMENT TYPE>  (516) 
EI-B

>  <INSTRUMENT>  (516) 
HITACHI RMU-6M

>  <ION MODE>  (516) 
P

>  <INCHIKEY>  (516) 
FTGZMZBYOHMEPS-UHFFFAOYSA-N

>  <FORMULA>  (516) 
C7H12O

>  <EXACT MASS>  (516) 
112.088815004

>  <MW>  (516) 
112

>  <ID>  (516) 
JP011342

>  <CONTRIBUTOR>  (516) 
University of Tokyo Team, {Faculty of Engineering, University of Tokyo

>  <COMMENT>  (516) 
SMILES=O=C(C1)C(C)(C)CC1
InChI=InChI=1S/C7H12O/c1-7(2)5-3-4-6(7)8/h3-5H2,1-2H3
computed SMILES=O=C1CCCC1(C)C
accession=JP011342
date=2016.01.19 (Created 2008.10.21, modified 2011.05.06)
author=YAMAMOTO M, DEP. CHEMISTRY, FAC. SCIENCE, NARA WOMEN'S UNIV.
license=CC BY-NC-SA
exact mass=112.08882
ionization energy=70 eV
ion type=[M]+*
computed spectral entropy=2.5329054551863233
computed normalized entropy=0.7969989151848352
SPLASH=splash10-0a4i-9000000000-9067b42b2c1d698938f3
submitter=submitter = University of Tokyo Team (Faculty of Engineering, University of Tokyo)
MoNA Rating=3.75

>  <NUM PEAKS>  (516) 
24

>  <MASS SPECTRAL PEAKS>  (516) 
27 13
28 8.6
29 6.4
39 17.6
40 5.6
41 39
42 8.2
43 4.2
53 3.9
54 2.4
55 12.9
56 99.99
57 6.3
67 3
68 7.8
69 9.7
70 3.5
79 5.9
83 2.4
84 3.3
94 8.2
97 7.6
112 21.8
113 2.4

>  <PREDICTED SPECTRUM>  (516) 
15 32
26 130
27 450
28 237
29 346
30 70
37 72
38 155
39 656
40 306
41 999
42 566
43 482
44 146
45 29
50 162
51 258
52 145
53 395
54 277
55 727
56 741
57 230
58 49
63 8
65 172
66 84
67 324
68 317
69 886
70 747
71 204
77 128
79 209
80 14
81 21
82 73
83 372
84 400
85 124
94 146
95 107
96 7
97 346
98 40
112 529
113 168

$$$$

     RDKit          2D

 10 10  0  0  0  0  0  0  0  0999 V2000
    2.8331    0.2364    0.0000 C   0  0  0  0  0  0  0  0  0  0  0  0
    3.4426    1.6070    0.0000 H   0  0  0  0  0  0  0  0  0  0  0  0
   -1.9806   -1.9149    0.0000 C   0  0  0  0  0  0  0  0  0  0  0  0
   -3.4083   -1.4550    0.0000 H   0  0  0  0  0  0  0  0  0  0  0  0
    0.3416    1.1873    0.0000 C   0  0  0  0  0  0  0  0  0  0  0  0
   -1.0341    0.5844    0.0000 C   0  0  0  0  0  0  0  0  0  0  0  0
    1.3414    0.0789    0.0000 C   0  0  0  0  0  0  0  0  0  0  0  0
   -0.8684   -0.9085    0.0000 C   0  0  0  0  0  0  0  0  0  0  0  0
    0.5914   -1.2201    0.0000 C   0  0  0  0  0  0  0  0  0  0  0  0
    1.2009   -2.5907    0.0000 O   0  0  0  0  0  0  0  0  0  0  0  0
  1  2  1  0
  3  4  1  0
  6  5  1  0
  7  1  1  0
  7  5  1  0
  8  3  1  0
  8  6  1  0
  9  7  1  0
  9  8  1  0
 10  9  2  0
M  ISO  2   2   2   4   2
M  END
>  <NAME>  (517) 
2,5-DIMETHYLCYCLOPENTANONE (2,5-D2)

>  <SYNONYMS>  (517) 


>  <SPECTRUM TYPE>  (517) 
MS1

>  <INSTRUMENT TYPE>  (517) 
EI-B

>  <INSTRUMENT>  (517) 
HITACHI RMU-6M

>  <ION MODE>  (517) 
P

>  <INCHIKEY>  (517) 
MKLARKDYEBNZFK-QDNHWIQGSA-N

>  <FORMULA>  (517) 
C7H12O

>  <EXACT MASS>  (517) 
114.10136849599999

>  <MW>  (517) 
114

>  <ID>  (517) 
JP011341

>  <CONTRIBUTOR>  (517) 
University of Tokyo Team, {Faculty of Engineering, University of Tokyo

>  <COMMENT>  (517) 
SMILES=[2H]C([H])([H])C(C1)C(=O)C(C1)C([2H])([H])[H]
InChI=InChI=1S/C7H12O/c1-5-3-4-6(2)7(5)8/h5-6H,3-4H2,1-2H3/i1D,2D
computed SMILES=[H]CC1C(=O)C(CC1)C[H]
accession=JP011341
date=2016.01.19 (Created 2008.10.21, modified 2011.05.06)
author=YAMAMOTO M, DEP. CHEMISTRY, FAC. SCIENCE, NARA WOMEN'S UNIV.
license=CC BY-NC-SA
exact mass=112.08882
ionization energy=70 eV
ion type=[M]+*
computed spectral entropy=3.130982475844797
computed normalized entropy=0.8607308083886884
SPLASH=splash10-0006-9000000000-2296b33d1b8a2253944c
submitter=submitter = University of Tokyo Team (Faculty of Engineering, University of Tokyo)
MoNA Rating=3.75

>  <NUM PEAKS>  (517) 
38

>  <MASS SPECTRAL PEAKS>  (517) 
26 3.1
27 13.2
28 20
29 16.1
30 7.4
39 14
40 14.3
41 21.5
42 32.4
43 99.99
44 20
45 4.4
51 2.6
52 2.1
53 2.6
54 4
55 10.4
56 35
57 24.6
58 9.1
59 6.6
67 3.9
68 2.5
69 28.1
70 14.8
71 17.3
72 4
81 5.5
82 2.5
83 3.2
84 3.8
85 4.2
86 5.9
96 3.8
99 11.9
113 3.3
114 32.4
115 3.1

>  <PREDICTED SPECTRUM>  (517) 
14 11
25 1
26 150
27 303
28 195
29 183
30 59
32 16
38 41
39 157
40 210
41 468
42 71
43 38
44 74
47 62
49 48
50 27
51 129
52 137
53 396
54 999
55 332
56 134
57 226
58 119
59 87
60 34
63 22
65 159
66 76
67 497
68 259
69 136
70 115
71 120
72 25
81 521
82 10
84 18
85 81
86 8
98 31
99 174
113 67
114 394
115 87

$$$$

     RDKit          2D

 10 10  0  0  0  0  0  0  0  0999 V2000
   -2.6377    0.8500    0.0000 C   0  0  0  0  0  0  0  0  0  0  0  0
   -2.1778    2.2777    0.0000 H   0  0  0  0  0  0  0  0  0  0  0  0
   -4.0655    1.3099    0.0000 H   0  0  0  0  0  0  0  0  0  0  0  0
   -3.0977   -0.5778    0.0000 H   0  0  0  0  0  0  0  0  0  0  0  0
    1.2100    0.3900    0.0000 C   0  0  0  0  0  0  0  0  0  0  0  0
    0.0000    1.2800    0.0000 C   0  0  0  0  0  0  0  0  0  0  0  0
    0.7500   -1.0300    0.0000 C   0  0  0  0  0  0  0  0  0  0  0  0
   -1.2100    0.3900    0.0000 C   0  0  0  0  0  0  0  0  0  0  0  0
   -0.7500   -1.0300    0.0000 C   0  0  0  0  0  0  0  0  0  0  0  0
   -1.6322   -2.2431    0.0000 O   0  0  0  0  0  0  0  0  0  0  0  0
  1  2  1  0
  1  3  1  0
  1  4  1  0
  6  5  1  0
  7  5  1  0
  8  1  1  0
  8  6  1  0
  9  7  1  0
  9  8  1  0
 10  9  2  0
M  ISO  3   2   2   3   2   4   2
M  END
>  <NAME>  (518) 
2-METHYLCYCLOPENTANONE (D3-METHYL)

>  <SYNONYMS>  (518) 


>  <SPECTRUM TYPE>  (518) 
MS1

>  <INSTRUMENT TYPE>  (518) 
EI-B

>  <INSTRUMENT>  (518) 
HITACHI RMU-6M

>  <ION MODE>  (518) 
P

>  <INCHIKEY>  (518) 
ZIXLDMFVRPABBX-FIBGUPNXSA-N

>  <FORMULA>  (518) 
C6H10O

>  <EXACT MASS>  (518) 
101.091995178

>  <MW>  (518) 
101

>  <ID>  (518) 
JP011339

>  <CONTRIBUTOR>  (518) 
University of Tokyo Team, {Faculty of Engineering, University of Tokyo

>  <COMMENT>  (518) 
SMILES=[2H]C([2H])([2H])C(C1)C(=O)CC1
InChI=InChI=1S/C6H10O/c1-5-3-2-4-6(5)7/h5H,2-4H2,1H3/i1D3
computed SMILES=[H]C([H])([H])C1C(=O)CCC1
accession=JP011339
date=2016.01.19 (Created 2008.10.21, modified 2011.05.06)
author=YAMAMOTO M, DEP. CHEMISTRY, FAC. SCIENCE, NARA WOMEN'S UNIV.
license=CC BY-NC-SA
exact mass=98.07316
ionization energy=70 eV
ion type=[M]+*
computed spectral entropy=3.0642197886553153
computed normalized entropy=0.8923212598617501
SPLASH=splash10-0595-9000000000-1e0b3b9b2aeb2e84699c
submitter=submitter = University of Tokyo Team (Faculty of Engineering, University of Tokyo)
MoNA Rating=3.75

>  <NUM PEAKS>  (518) 
31

>  <MASS SPECTRAL PEAKS>  (518) 
26 5.6
27 18.3
28 31.3
29 12.7
30 5.6
31 7.7
32 4.5
39 13.6
40 9.8
41 20.8
42 16.3
43 24.3
44 29.2
45 99.99
46 13.2
55 44.8
56 16.3
57 8.1
58 20.4
59 11
71 9.3
72 35.8
73 19
74 10.3
81 1.7
82 4.1
83 10.8
84 8.1
100 4.5
101 45.8
102 4.7

>  <PREDICTED SPECTRUM>  (518) 
14 14
16 5
25 6
26 176
27 338
28 289
29 172
30 163
31 50
36 3
37 14
38 122
39 401
40 257
41 612
42 471
43 462
44 680
45 605
46 365
47 61
49 42
50 68
51 99
52 176
53 150
54 425
55 425
56 519
57 322
58 396
59 103
60 64
66 39
68 205
69 163
70 201
71 118
72 377
73 617
74 178
82 134
83 427
84 156
85 68
86 220
87 4
97 54
99 54
100 231
101 999
102 188

$$$$

     RDKit          2D

  7  7  0  0  0  0  0  0  0  0999 V2000
   -0.5227    1.8503    0.0000 C   0  0  0  0  0  0  0  0  0  0  0  0
    1.0029   -1.7119    0.0000 C   0  0  0  0  0  0  0  0  0  0  0  0
    1.1686   -0.2190    0.0000 C   0  0  0  0  0  0  0  0  0  0  0  0
   -0.4569   -2.0235    0.0000 C   0  0  0  0  0  0  0  0  0  0  0  0
   -0.2071    0.3839    0.0000 C   0  0  0  0  0  0  0  0  0  0  0  0
   -1.2069   -0.7245    0.0000 C   0  0  0  0  0  0  0  0  0  0  0  0
   -2.6986   -0.5670    0.0000 O   0  0  0  0  0  0  0  0  0  0  0  0
  3  2  1  0
  4  2  1  0
  5  1  1  0
  5  3  1  0
  6  4  1  0
  6  5  1  0
  7  6  2  0
M  END
>  <NAME>  (519) 
2-METHYLCYCLOPENTANONE

>  <SYNONYMS>  (519) 


>  <SPECTRUM TYPE>  (519) 
MS1

>  <INSTRUMENT TYPE>  (519) 
EI-B

>  <INSTRUMENT>  (519) 
HITACHI RMU-6M

>  <ION MODE>  (519) 
P

>  <INCHIKEY>  (519) 
ZIXLDMFVRPABBX-UHFFFAOYSA-N

>  <FORMULA>  (519) 
C6H10O

>  <EXACT MASS>  (519) 
98.07316494

>  <MW>  (519) 
98

>  <ID>  (519) 
JP011338

>  <CONTRIBUTOR>  (519) 
University of Tokyo Team, {Faculty of Engineering, University of Tokyo

>  <COMMENT>  (519) 
SMILES=CC(C1)C(=O)CC1
InChI=InChI=1S/C6H10O/c1-5-3-2-4-6(5)7/h5H,2-4H2,1H3
computed SMILES=O=C1CCCC1C
accession=JP011338
date=2016.01.19 (Created 2008.10.21, modified 2011.05.06)
author=YAMAMOTO M, DEP. CHEMISTRY, FAC. SCIENCE, NARA WOMEN'S UNIV.
license=CC BY-NC-SA
exact mass=98.07316
ionization energy=70 eV
ion type=[M]+*
computed spectral entropy=2.5980899100611343
computed normalized entropy=0.8533653350257081
SPLASH=splash10-0006-9000000000-6fe195a9eefd663b40ac
submitter=submitter = University of Tokyo Team (Faculty of Engineering, University of Tokyo)
MoNA Rating=3.75

>  <NUM PEAKS>  (519) 
21

>  <MASS SPECTRAL PEAKS>  (519) 
26 5.4
27 24.8
28 19.3
29 9.9
38 3.9
39 21.7
40 6.7
41 40.2
42 99.99
43 13
53 4.2
54 4.7
55 33
56 14
69 28.5
70 18.7
80 4.3
83 9.9
97 2.8
98 35.2
99 3.3

>  <PREDICTED SPECTRUM>  (519) 
14 20
15 7
26 125
27 356
28 285
29 217
30 14
37 63
38 135
39 492
40 278
41 830
42 836
43 579
44 134
45 34
50 157
51 189
52 136
53 266
54 374
55 999
56 833
57 277
63 0
65 121
66 19
67 111
68 222
69 539
70 688
71 182
79 54
80 68
81 85
83 525
84 108
97 270
98 954
99 297

$$$$

     RDKit          2D

 14 13  0  0  0  0  0  0  0  0999 V2000
    3.8971    6.7500    0.0000 C   0  0  0  0  0  0  0  0  0  0  0  0
    2.5981    7.5000    0.0000 C   0  0  0  0  0  0  0  0  0  0  0  0
    1.2990    6.7500    0.0000 C   0  0  0  0  0  0  0  0  0  0  0  0
    0.0000    7.5000    0.0000 C   0  0  0  0  0  0  0  0  0  0  0  0
   -1.2990    6.7500    0.0000 C   0  0  0  0  0  0  0  0  0  0  0  0
   -2.5981    7.5000    0.0000 C   0  0  0  0  0  0  0  0  0  0  0  0
   -3.8971    6.7500    0.0000 C   0  0  0  0  0  0  0  0  0  0  0  0
   -5.1962    7.5000    0.0000 C   0  0  0  0  0  0  0  0  0  0  0  0
   -6.4952    6.7500    0.0000 C   0  0  0  0  0  0  0  0  0  0  0  0
   -7.7942    7.5000    0.0000 C   0  0  0  0  0  0  0  0  0  0  0  0
   -9.0933    6.7500    0.0000 C   0  0  0  0  0  0  0  0  0  0  0  0
  -10.3923    7.5000    0.0000 C   0  0  0  0  0  0  0  0  0  0  0  0
  -10.3923    9.0000    0.0000 O   0  0  0  0  0  0  0  0  0  0  0  0
  -11.6913    6.7500    0.0000 O   0  0  0  0  0  0  0  0  0  0  0  0
  2  1  1  0
  3  2  1  0
  4  3  1  0
  5  4  1  0
  6  5  1  0
  7  6  1  0
  8  7  1  0
  9  8  1  0
 10  9  1  0
 11 10  1  0
 12 11  1  0
 13 12  2  0
 14 12  1  0
M  END
>  <NAME>  (520) 
LAURIC ACID

>  <SYNONYMS>  (520) 


>  <SPECTRUM TYPE>  (520) 
MS1

>  <INSTRUMENT TYPE>  (520) 
EI-B

>  <INSTRUMENT>  (520) 
HITACHI RMU-6M

>  <ION MODE>  (520) 
P

>  <INCHIKEY>  (520) 
POULHZVOKOAJMA-UHFFFAOYSA-N

>  <FORMULA>  (520) 
C12H24O2

>  <EXACT MASS>  (520) 
200.177630008

>  <MW>  (520) 
200

>  <ID>  (520) 
JP011337

>  <CONTRIBUTOR>  (520) 
University of Tokyo Team, {Faculty of Engineering, University of Tokyo

>  <COMMENT>  (520) 
SMILES=CCCCCCCCCCCC(O)=O
InChI=InChI=1S/C12H24O2/c1-2-3-4-5-6-7-8-9-10-11-12(13)14/h2-11H2,1H3,(H,13,14)
computed SMILES=O=C(O)CCCCCCCCCCC
accession=JP011337
date=2016.01.19 (Created 2008.10.21, modified 2011.05.06)
author=YAMAMOTO M, DEP. CHEMISTRY, FAC. SCIENCE, NARA WOMEN'S UNIV.
license=CC BY-NC-SA
exact mass=200.17763
ionization energy=70 eV
ion type=[M]+*
computed spectral entropy=3.532514284678809
computed normalized entropy=0.7909957372215324
SPLASH=splash10-0706-9100000000-2dd666a9a0355b1ca144
submitter=submitter = University of Tokyo Team (Faculty of Engineering, University of Tokyo)
MoNA Rating=3.75

>  <NUM PEAKS>  (520) 
87

>  <MASS SPECTRAL PEAKS>  (520) 
26 1.6
27 31.4
28 7.6
29 48.9
30 1.3
31 2.8
39 16.2
40 3.4
41 75.5
42 15.9
43 80.1
44 2.9
45 8.6
51 1.9
53 5.2
54 4.6
55 49.1
56 12.9
57 47.8
58 2.8
59 4.6
60 99.99
61 20
62 1.4
65 0.7
66 0.6
67 4.2
68 3.2
69 24
70 7.9
71 25
72 1.9
73 92.7
74 9.2
75 0.9
77 2.1
78 0.7
79 2.9
80 0.6
81 2.8
82 3.1
83 11.8
84 7.9
85 22.9
86 2
87 12.5
88 2
89 1
91 0.9
93 1.2
94 0.9
95 2.1
96 2.9
97 8.2
98 7.8
99 5.7
100 0.7
101 8.9
102 2.5
105 1
107 3.4
108 0.6
109 0.9
110 1.5
111 4.4
112 3
113 0.8
115 10.6
116 1.6
129 20.8
130 2.3
138 3.9
139 1.3
140 5.2
141 3.8
142 0.8
143 3.9
144 0.7
157 14.6
158 2.1
164 1.4
171 4.9
172 1.3
181 0.9
183 1
200 23.7
201 4

>  <PREDICTED SPECTRUM>  (520) 
14 4
15 17
16 7
17 19
18 54
25 3
26 90
27 380
28 192
29 452
30 67
31 115
32 16
34 8
36 7
37 24
38 58
39 374
40 170
41 881
42 507
43 999
44 201
45 342
46 116
47 80
49 12
50 7
51 103
52 66
53 230
54 293
55 865
56 579
57 713
58 187
59 174
60 817
61 498
62 28
63 13
65 96
66 73
67 282
68 285
69 635
70 436
71 475
72 152
73 873
74 114
75 72
76 43
77 99
78 57
79 145
80 62
81 235
82 275
83 581
84 495
85 291
86 131
87 301
88 159
89 49
91 54
92 8
93 54
94 101
95 251
96 285
97 429
98 505
99 268
100 89
101 338
102 228
103 158
104 35
105 10
106 25
107 159
108 39
109 184
110 102
111 304
112 129
113 89
114 100
115 250
116 87
117 69
118 0
121 178
122 135
123 85
124 90
125 212
126 91
127 65
128 30
129 321
130 95
131 39
132 9
135 81
138 157
139 118
140 167
141 237
142 98
143 207
144 105
145 6
153 94
154 13
157 217
158 82
159 125
160 15
164 43
171 151
172 73
182 88
183 95
200 123
201 30

$$$$

     RDKit          2D

  7  7  0  0  0  0  0  0  0  0999 V2000
   -0.7500    1.0300    0.0000 C   0  0  0  0  0  0  0  0  0  0  0  0
    0.7500    1.0300    0.0000 C   0  0  0  0  0  0  0  0  0  0  0  0
   -1.2100   -0.3900    0.0000 C   0  0  0  0  0  0  0  0  0  0  0  0
    1.2100   -0.3900    0.0000 C   0  0  0  0  0  0  0  0  0  0  0  0
   -2.6377   -0.8500    0.0000 O   0  0  0  0  0  0  0  0  0  0  0  0
    2.6377   -0.8500    0.0000 O   0  0  0  0  0  0  0  0  0  0  0  0
   -0.0000   -1.2800    0.0000 O   0  0  0  0  0  0  0  0  0  0  0  0
  2  1  2  0
  3  1  1  0
  4  2  1  0
  5  3  2  0
  6  4  2  0
  7  3  1  0
  7  4  1  0
M  END
>  <NAME>  (521) 
MALIC ANHYDRIDE

>  <SYNONYMS>  (521) 


>  <SPECTRUM TYPE>  (521) 
MS1

>  <INSTRUMENT TYPE>  (521) 
EI-B

>  <INSTRUMENT>  (521) 
HITACHI RMU-6M

>  <ION MODE>  (521) 
P

>  <INCHIKEY>  (521) 
FPYJFEHAWHCUMM-UHFFFAOYSA-N

>  <FORMULA>  (521) 
C4H2O3

>  <EXACT MASS>  (521) 
98.000393924

>  <MW>  (521) 
98

>  <ID>  (521) 
JP011336

>  <CONTRIBUTOR>  (521) 
University of Tokyo Team, {Faculty of Engineering, University of Tokyo

>  <COMMENT>  (521) 
SMILES=O=c(c1)oc(=O)c1
InChI=InChI=1S/C4H2O3/c5-3-1-2-4(6)7-3/h1-2H
computed SMILES=O=C1OC(=O)C=C1
accession=JP011336
date=2016.01.19 (Created 2008.10.21, modified 2011.05.06)
author=YAMAMOTO M, DEP. CHEMISTRY, FAC. SCIENCE, NARA WOMEN'S UNIV.
license=CC BY-NC-SA
exact mass=98.00039
ionization energy=70 eV
ion type=[M]+*
computed spectral entropy=2.0277431430270676
computed normalized entropy=0.6223704912864364
SPLASH=splash10-0fb9-9000000000-60d6e75945840ee88b72
submitter=submitter = University of Tokyo Team (Faculty of Engineering, University of Tokyo)
MoNA Rating=3.75

>  <NUM PEAKS>  (521) 
26

>  <MASS SPECTRAL PEAKS>  (521) 
24 3.7
25 14.9
26 99.99
27 2.8
28 13.6
29 3.3
32 2.4
36 1.6
37 1.9
40 1.2
41 4.1
42 1.2
44 5.2
45 1.1
52 2.7
53 9.4
54 74.8
55 3
56 0.5
57 0.5
69 0.7
70 0.7
82 0.5
98 25
99 1.7
100 0.5

>  <PREDICTED SPECTRUM>  (521) 
14 54
15 11
16 37
17 43
18 57
25 110
26 359
27 151
28 485
29 415
30 204
31 36
32 21
36 24
37 4
39 8
40 85
41 296
42 404
43 146
44 244
45 121
51 105
52 228
53 550
54 999
55 72
69 146
70 635
71 221
72 21
82 579
98 459
99 109

$$$$

     RDKit          2D

 11 11  0  0  0  0  0  0  0  0999 V2000
    2.5983    0.3196    0.0000 C   0  0  0  0  0  0  0  0  0  0  0  0
    2.5988    1.8204    0.0000 C   0  0  0  0  0  0  0  0  0  0  0  0
    1.2988   -0.4312    0.0000 C   0  0  0  0  0  0  0  0  0  0  0  0
    1.2998    2.5704    0.0000 C   0  0  0  0  0  0  0  0  0  0  0  0
   -0.0002    0.3188    0.0000 C   0  0  0  0  0  0  0  0  0  0  0  0
    0.0002    1.8196    0.0000 C   0  0  0  0  0  0  0  0  0  0  0  0
   -1.2988    2.5696    0.0000 C   0  0  0  0  0  0  0  0  0  0  0  0
   -2.5978    1.8196    0.0000 C   0  0  0  0  0  0  0  0  0  0  0  0
   -1.2988    4.0696    0.0000 O   0  0  0  0  0  0  0  0  0  0  0  0
   -2.5978    0.3196    0.0000 O   0  0  0  0  0  0  0  0  0  0  0  0
   -3.8969    2.5696    0.0000 O   0  0  0  0  0  0  0  0  0  0  0  0
  2  1  2  0
  3  1  1  0
  4  2  1  0
  5  3  2  0
  6  4  2  0
  6  5  1  0
  7  6  1  0
  8  7  1  0
  9  7  1  0
 10  8  2  0
 11  8  1  0
M  END
>  <NAME>  (522) 
DL-MANDERIC ACID

>  <SYNONYMS>  (522) 


>  <SPECTRUM TYPE>  (522) 
MS1

>  <INSTRUMENT TYPE>  (522) 
EI-B

>  <INSTRUMENT>  (522) 
HITACHI RMU-6M

>  <ION MODE>  (522) 
P

>  <INCHIKEY>  (522) 
IWYDHOAUDWTVEP-UHFFFAOYSA-N

>  <FORMULA>  (522) 
C8H8O3

>  <EXACT MASS>  (522) 
152.04734411599998

>  <MW>  (522) 
152

>  <ID>  (522) 
JP011335

>  <CONTRIBUTOR>  (522) 
University of Tokyo Team, {Faculty of Engineering, University of Tokyo

>  <COMMENT>  (522) 
SMILES=OC(=O)C(O)c(c1)cccc1
InChI=InChI=1S/C8H8O3/c9-7(8(10)11)6-4-2-1-3-5-6/h1-5,7,9H,(H,10,11)
computed SMILES=O=C(O)C(O)C=1C=CC=CC1
accession=JP011335
date=2016.01.19 (Created 2008.10.21, modified 2011.05.06)
author=YAMAMOTO M, DEP. CHEMISTRY, FAC. SCIENCE, NARA WOMEN'S UNIV.
license=CC BY-NC-SA
exact mass=152.04734
ionization energy=70 eV
ion type=[M]+*
computed spectral entropy=2.6381721267931226
computed normalized entropy=0.7361959493172731
SPLASH=splash10-056r-9500000000-14cb57f84409d9c91d01
submitter=submitter = University of Tokyo Team (Faculty of Engineering, University of Tokyo)
MoNA Rating=3.75

>  <NUM PEAKS>  (522) 
36

>  <MASS SPECTRAL PEAKS>  (522) 
26 1.6
27 6
28 3.9
29 7
37 1.3
38 2.9
39 8.4
44 2.4
45 3.5
49 1.1
50 9.1
51 20.9
52 5.6
53 3.9
61 1.2
62 2.2
63 4.2
64 1.5
65 0.6
74 2.7
75 2.4
76 1.8
77 48.5
78 8.9
79 62.4
80 5.4
89 3.5
90 6
91 2
105 9.1
106 4.2
107 99.99
108 10
109 0.6
152 10.8
153 1

>  <PREDICTED SPECTRUM>  (522) 
14 5
15 7
19 13
25 3
26 54
27 159
28 90
29 194
31 122
32 9
33 3
37 31
38 77
39 193
40 34
41 69
42 29
44 37
45 180
46 50
47 64
48 11
49 100
50 231
51 363
52 175
53 151
54 28
55 27
60 20
61 67
62 128
63 193
64 85
65 107
66 81
70 0
74 181
75 149
76 112
77 621
78 274
79 676
80 214
81 76
88 3
89 147
90 136
91 30
92 14
93 27
94 4
105 317
106 37
107 999
108 291
152 365
153 127
154 24

$$$$

     RDKit          2D

  8  7  0  0  0  0  0  0  0  0999 V2000
    0.0000    0.0000    0.0000 C   0  0  0  0  0  0  0  0  0  0  0  0
   -1.2990    3.7500    0.0000 C   0  0  0  0  0  0  0  0  0  0  0  0
    0.0000    1.5000    0.0000 C   0  0  0  0  0  0  0  0  0  0  0  0
   -2.5981    4.5000    0.0000 C   0  0  0  0  0  0  0  0  0  0  0  0
   -1.2990    2.2500    0.0000 N   0  0  0  0  0  0  0  0  0  0  0  0
    1.2990    2.2500    0.0000 O   0  0  0  0  0  0  0  0  0  0  0  0
   -3.8971    3.7500    0.0000 O   0  0  0  0  0  0  0  0  0  0  0  0
   -2.5981    6.0000    0.0000 O   0  0  0  0  0  0  0  0  0  0  0  0
  3  1  1  0
  4  2  1  0
  5  2  1  0
  5  3  2  3
  6  3  1  0
  7  4  2  0
  8  4  1  0
M  END
>  <NAME>  (523) 
N-ACETYLGLYCINE

>  <SYNONYMS>  (523) 
ACETAMIDOACETIC ACID

>  <SPECTRUM TYPE>  (523) 
MS1

>  <INSTRUMENT TYPE>  (523) 
EI-B

>  <INSTRUMENT>  (523) 
HITACHI M-2500

>  <ION MODE>  (523) 
P

>  <INCHIKEY>  (523) 
OKJIRPAQVSHGFK-UHFFFAOYSA-N

>  <FORMULA>  (523) 
C4H7NO3

>  <EXACT MASS>  (523) 
117.04259308399999

>  <MW>  (523) 
117

>  <ID>  (523) 
JP011334

>  <CONTRIBUTOR>  (523) 
University of Tokyo Team, {Faculty of Engineering, University of Tokyo

>  <COMMENT>  (523) 
SMILES=CC(=O)NCC(O)=O
cas=543-24-8
InChI=InChI=1S/C4H7NO3/c1-3(6)5-2-4(7)8/h2H2,1H3,(H,5,6)(H,7,8)
computed SMILES=O=C(O)CN=C(O)C
accession=JP011334
date=2016.01.19 (Created 2008.10.21, modified 2011.05.06)
author=YAMAMOTO M, DEP. CHEMISTRY, FAC. SCIENCE, NARA WOMEN'S UNIV.
license=CC BY-NC-SA
exact mass=117.04259
ionization energy=70 eV
ion type=[M]+*
computed spectral entropy=2.319226367532461
computed normalized entropy=0.7503055692466137
SPLASH=splash10-008c-9000000000-c8db9b668b0e8c255556
submitter=submitter = University of Tokyo Team (Faculty of Engineering, University of Tokyo)
MoNA Rating=3.75

>  <NUM PEAKS>  (523) 
22

>  <MASS SPECTRAL PEAKS>  (523) 
14 1.63
15 7.66
27 1.15
28 12.3
29 4.26
30 99.99
31 3.38
42 7
43 73.43
44 2.7
45 5.03
56 7.44
57 3.26
72 58
73 31.51
74 5.93
76 5.51
99 16.08
100 1.75
117 6.04
118 26.67
119 1.35

>  <PREDICTED SPECTRUM>  (523) 
14 87
15 157
16 69
17 95
18 144
19 24
25 48
26 165
27 349
28 371
29 322
30 389
31 207
32 45
33 39
34 19
35 6
36 114
37 99
38 164
39 180
40 285
41 723
42 915
43 999
44 367
45 792
46 259
47 73
49 55
51 1
52 109
53 150
54 381
55 275
56 416
57 450
58 849
59 263
60 434
61 0
69 215
70 245
71 481
72 714
73 454
74 94
75 54
81 44
84 78
87 101
99 423
100 282
101 30
117 354
118 75

$$$$

     RDKit          2D

 15 14  0  0  0  0  0  0  0  0999 V2000
    2.2733    5.0625    0.0000 C   0  0  0  0  0  0  0  0  0  0  0  0
   -8.1190    5.0625    0.0000 C   0  0  0  0  0  0  0  0  0  0  0  0
   -4.2219    1.3125    0.0000 C   0  0  0  0  0  0  0  0  0  0  0  0
    0.9743    5.8125    0.0000 C   0  0  0  0  0  0  0  0  0  0  0  0
   -6.8200    5.8125    0.0000 C   0  0  0  0  0  0  0  0  0  0  0  0
   -4.2219    2.8125    0.0000 C   0  0  0  0  0  0  0  0  0  0  0  0
   -2.9228    5.0625    0.0000 C   0  0  0  0  0  0  0  0  0  0  0  0
   -1.6238    5.8125    0.0000 C   0  0  0  0  0  0  0  0  0  0  0  0
   -4.2219    5.8125    0.0000 C   0  0  0  0  0  0  0  0  0  0  0  0
   -2.9228    3.5625    0.0000 N   0  0  0  0  0  0  0  0  0  0  0  0
   -5.5209    3.5625    0.0000 O   0  0  0  0  0  0  0  0  0  0  0  0
   -1.6238    7.3125    0.0000 O   0  0  0  0  0  0  0  0  0  0  0  0
   -4.2219    7.3125    0.0000 O   0  0  0  0  0  0  0  0  0  0  0  0
   -0.3248    5.0625    0.0000 O   0  0  0  0  0  0  0  0  0  0  0  0
   -5.5209    5.0625    0.0000 O   0  0  0  0  0  0  0  0  0  0  0  0
  4  1  1  0
  5  2  1  0
  6  3  1  0
  8  7  1  0
  9  7  1  0
 10  6  2  3
 10  7  1  0
 11  6  1  0
 12  8  2  0
 13  9  2  0
 14  4  1  0
 14  8  1  0
 15  5  1  0
 15  9  1  0
M  END
>  <NAME>  (524) 
DIETHYL ACETAMIDOMALONATE

>  <SYNONYMS>  (524) 


>  <SPECTRUM TYPE>  (524) 
MS1

>  <INSTRUMENT TYPE>  (524) 
EI-B

>  <INSTRUMENT>  (524) 
HITACHI M-2500

>  <ION MODE>  (524) 
P

>  <INCHIKEY>  (524) 
ISOLMABRZPQKOV-UHFFFAOYSA-N

>  <FORMULA>  (524) 
C9H15NO5

>  <EXACT MASS>  (524) 
217.09502257999998

>  <MW>  (524) 
217

>  <ID>  (524) 
JP011333

>  <CONTRIBUTOR>  (524) 
University of Tokyo Team, {Faculty of Engineering, University of Tokyo

>  <COMMENT>  (524) 
SMILES=CCOC(=O)C(NC(C)=O)C(=O)OCC
cas=1068-90-2
InChI=InChI=1S/C9H15NO5/c1-4-14-8(12)7(10-6(3)11)9(13)15-5-2/h7H,4-5H2,1-3H3,(H,10,11)
computed SMILES=O=C(OCC)C(N=C(O)C)C(=O)OCC
accession=JP011333
date=2016.01.19 (Created 2008.10.21, modified 2011.05.06)
author=YAMAMOTO M, DEP. CHEMISTRY, FAC. SCIENCE, NARA WOMEN'S UNIV.
license=CC BY-NC-SA
exact mass=217.09502
ionization energy=70 eV
ion type=[M]+*
computed spectral entropy=2.554009294366477
computed normalized entropy=0.7584748781566769
SPLASH=splash10-0udi-6910000000-1a6f92f58c9d01e57383
submitter=submitter = University of Tokyo Team (Faculty of Engineering, University of Tokyo)
MoNA Rating=3.75

>  <NUM PEAKS>  (524) 
29

>  <MASS SPECTRAL PEAKS>  (524) 
15 1.79
27 5.06
28 8.78
29 12.8
30 1.86
42 1.54
43 33.44
44 1.37
45 1.12
46 2.82
57 5.48
58 1.1
71 2.19
72 1.39
74 20.48
99 25.72
100 3.04
102 99.99
103 11.62
116 2.44
127 5.68
144 13.45
145 15.44
146 1.31
172 9.07
173 2.23
176 1.89
218 17.75
219 1.78

>  <PREDICTED SPECTRUM>  (524) 
14 15
15 74
16 7
17 3
18 15
25 11
26 158
27 413
28 280
29 756
30 329
31 188
32 35
33 23
38 37
39 177
40 171
41 186
42 394
43 920
44 415
45 572
46 225
47 141
49 7
51 7
52 177
53 334
54 426
55 550
56 633
57 428
58 271
59 6
60 36
61 11
66 151
67 111
68 222
69 235
70 489
71 369
72 482
73 304
74 339
75 170
77 103
78 9
79 85
80 81
81 118
82 247
83 283
84 467
85 304
86 283
87 279
88 130
89 75
94 18
96 138
97 416
98 999
99 678
100 536
101 312
102 305
103 233
104 142
108 77
111 93
112 255
113 158
114 169
115 214
116 282
117 86
124 133
125 684
126 907
127 603
128 198
129 29
131 62
140 92
141 10
143 286
144 564
145 252
154 129
155 62
156 8
157 5
170 127
171 326
172 545
173 151
200 67
217 243
218 64

$$$$

     RDKit          2D

 13 11  0  0  0  0  0  0  0  0999 V2000
    1.0281    2.6481    0.0000 C   0  0  0  0  0  0  0  0  0  0  0  0
    3.7005    2.4945    0.0000 C   0  0  0  0  0  0  0  0  0  0  0  0
    3.9359    0.0852    0.0000 C   0  0  0  0  0  0  0  0  0  0  0  0
    2.3237    1.8922    0.0000 C   0  0  0  0  0  0  0  0  0  0  0  0
   -0.2744    1.9041    0.0000 C   0  0  0  0  0  0  0  0  0  0  0  0
   -1.5700    2.6601    0.0000 C   0  0  0  0  0  0  0  0  0  0  0  0
   -0.2813    0.4041    0.0000 N   0  0  0  0  0  0  0  0  0  0  0  0
    4.6941    1.3772    0.0000 N   0  0  0  0  0  0  0  0  0  0  0  0
    2.4755    0.4096    0.0000 N   0  0  0  0  0  0  0  0  0  0  0  0
   -1.5631    4.1601    0.0000 O   0  0  0  0  0  0  0  0  0  0  0  0
   -2.8724    1.9161    0.0000 O   0  0  0  0  0  0  0  0  0  0  0  0
    0.0000    0.0000    0.0000 Cl  0  0  0  0  0  0  0  0  0  0  0  0
    0.0000    0.0000    0.0000 O   0  0  0  0  0  0  0  0  0  0  0  0
  4  1  1  0
  4  2  2  0
  5  1  1  0
  6  5  1  0
  7  5  1  0
  8  2  1  0
  8  3  2  0
  9  3  1  0
  9  4  1  0
 10  6  2  0
 11  6  1  0
M  END
>  <NAME>  (525) 
DL-HISTIDINE MONOHYDROCHLORIDE MONOHYDRATE

>  <SYNONYMS>  (525) 


>  <SPECTRUM TYPE>  (525) 
MS1

>  <INSTRUMENT TYPE>  (525) 
EI-B

>  <INSTRUMENT>  (525) 
HITACHI M-2500

>  <ION MODE>  (525) 
P

>  <INCHIKEY>  (525) 
CMXXUDSWGMGYLZ-UHFFFAOYSA-N

>  <FORMULA>  (525) 
C6H12ClN3O3

>  <EXACT MASS>  (525) 
209.056718924

>  <MW>  (525) 
209

>  <ID>  (525) 
JP011332

>  <CONTRIBUTOR>  (525) 
University of Tokyo Team, {Faculty of Engineering, University of Tokyo

>  <COMMENT>  (525) 
SMILES=C1=C(NC=N1)CC(C(=O)O)N.O.Cl
InChI=InChI=1S/C6H9N3O2.ClH.H2O/c7-5(6(10)11)1-4-2-8-3-9-4;;/h2-3,5H,1,7H2,(H,8,9)(H,10,11);1H;1H2
computed SMILES=Cl.O=C(O)C(N)CC1=CN=CN1.O
computed spectral entropy=1.6950884354087001
accession=JP011332
date=2016.01.19 (Created 2008.10.21, modified 2011.05.06)
author=YAMAMOTO M, DEP. CHEMISTRY, FAC. SCIENCE, NARA WOMEN'S UNIV.
license=CC BY-NC-SA
exact mass=209.05672
ionization energy=70 eV
ion type=[M]+*
computed normalized entropy=0.6608662391238339
SPLASH=splash10-001r-9100000000-f78e213f7e87829d7644
submitter=submitter = University of Tokyo Team (Faculty of Engineering, University of Tokyo)
MoNA Rating=3.75

>  <NUM PEAKS>  (525) 
13

>  <MASS SPECTRAL PEAKS>  (525) 
17 1.65
18 7.22
36 52.52
38 17.05
81 4.7
82 99.99
83 5.42
94 1.97
109 1.33
110 17.24
111 3.28
155 4.91
156 2.7

>  <PREDICTED SPECTRUM>  (525) 
16 30
17 44
18 72
28 109
30 12
39 75
41 217
42 148
43 304
44 352
45 211
46 209
47 70
48 9
49 73
50 50
51 98
52 128
53 159
54 392
55 241
56 186
57 223
58 35
60 73
61 3
62 24
63 5
64 19
65 34
66 101
67 153
68 91
69 271
70 75
71 35
72 67
74 294
75 98
76 7
77 55
78 101
79 11
80 94
81 944
82 999
83 295
84 85
85 105
86 1
87 29
88 82
89 53
91 91
92 46
93 147
94 192
95 124
96 26
97 26
98 9
99 55
101 10
105 63
106 97
107 84
108 243
109 216
110 214
111 59
117 52
118 26
119 111
120 38
121 15
122 58
128 7
129 137
133 17
134 20
135 606
136 781
137 255
143 0
146 132
147 295
148 142
163 225
164 394
165 157
166 11
191 58
192 88
193 7
209 137
210 33

$$$$

     RDKit          2D

 16 15  0  0  0  0  0  0  0  0999 V2000
   -6.4952    4.5000    0.0000 C   0  0  0  0  0  0  0  0  0  0  0  0
    2.5981    3.7500    0.0000 C   0  0  0  0  0  0  0  0  0  0  0  0
   -5.1962    3.7500    0.0000 C   0  0  0  0  0  0  0  0  0  0  0  0
    1.2990    4.5000    0.0000 C   0  0  0  0  0  0  0  0  0  0  0  0
   -2.5981    3.7500    0.0000 C   0  0  0  0  0  0  0  0  0  0  0  0
   -1.2990    4.5000    0.0000 C   0  0  0  0  0  0  0  0  0  0  0  0
   -2.5981    2.2500    0.0000 C   0  0  0  0  0  0  0  0  0  0  0  0
   -1.2990    6.0000    0.0000 C   0  0  0  0  0  0  0  0  0  0  0  0
   -5.1962    2.2500    0.0000 O   0  0  0  0  0  0  0  0  0  0  0  0
    1.2990    6.0000    0.0000 O   0  0  0  0  0  0  0  0  0  0  0  0
   -1.2990    1.5000    0.0000 O   0  0  0  0  0  0  0  0  0  0  0  0
   -3.8971    1.5000    0.0000 O   0  0  0  0  0  0  0  0  0  0  0  0
   -2.5981    6.7500    0.0000 O   0  0  0  0  0  0  0  0  0  0  0  0
    0.0000    6.7500    0.0000 O   0  0  0  0  0  0  0  0  0  0  0  0
   -3.8971    4.5000    0.0000 O   0  0  0  0  0  0  0  0  0  0  0  0
    0.0000    3.7500    0.0000 O   0  0  0  0  0  0  0  0  0  0  0  0
  3  1  1  0
  4  2  1  0
  6  5  1  0
  7  5  1  0
  8  6  1  0
  9  3  2  0
 10  4  2  0
 11  7  2  0
 12  7  1  0
 13  8  2  0
 14  8  1  0
 15  3  1  0
 15  5  1  0
 16  4  1  0
 16  6  1  0
M  END
>  <NAME>  (526) 
(+)-DIACETYL-L-TARTARIC ACID

>  <SYNONYMS>  (526) 


>  <SPECTRUM TYPE>  (526) 
MS1

>  <INSTRUMENT TYPE>  (526) 
EI-B

>  <INSTRUMENT>  (526) 
HITACHI M-2500

>  <ION MODE>  (526) 
P

>  <INCHIKEY>  (526) 
DNISEZBAYYIQFB-UHFFFAOYSA-N

>  <FORMULA>  (526) 
C8H10O8

>  <EXACT MASS>  (526) 
234.03756728

>  <MW>  (526) 
234

>  <ID>  (526) 
JP011331

>  <CONTRIBUTOR>  (526) 
University of Tokyo Team, {Faculty of Engineering, University of Tokyo

>  <COMMENT>  (526) 
SMILES=CC(=O)OC(C(O)=O)C(OC(C)=O)C(O)=O
InChI=InChI=1S/C8H10O8/c1-3(9)15-5(7(11)12)6(8(13)14)16-4(2)10/h5-6H,1-2H3,(H,11,12)(H,13,14)
computed SMILES=O=C(O)C(OC(=O)C)C(OC(=O)C)C(=O)O
accession=JP011331
date=2016.01.19 (Created 2008.10.21, modified 2011.05.06)
author=YAMAMOTO M, DEP. CHEMISTRY, FAC. SCIENCE, NARA WOMEN'S UNIV.
license=CC BY-NC-SA
exact mass=234.03757
ionization energy=70 eV
ion type=[M]+*
computed spectral entropy=2.201415200531354
computed normalized entropy=0.7121918361682767
SPLASH=splash10-002r-0970000000-8f6a0e7be1d1a2e20952
submitter=submitter = University of Tokyo Team (Faculty of Engineering, University of Tokyo)
MoNA Rating=3.75

>  <NUM PEAKS>  (526) 
22

>  <MASS SPECTRAL PEAKS>  (526) 
43 9.89
61 1.35
76 1.19
100 14.78
102 1.33
103 1.76
118 3.62
129 17.6
130 2.73
147 6.39
151 2.03
160 2.2
175 62.2
176 4.41
189 11.36
193 17.17
194 1.19
217 13.96
218 1.3
235 99.99
236 10.07
237 2.16

>  <PREDICTED SPECTRUM>  (526) 
14 38
15 70
16 15
17 25
18 44
25 6
26 35
27 30
28 107
29 6
30 17
31 36
33 1
36 36
37 8
38 29
39 65
40 40
41 31
42 287
43 999
44 389
45 382
46 70
47 79
48 4
49 54
50 52
51 11
52 15
53 11
54 23
55 125
56 108
57 49
58 70
59 129
60 275
61 137
62 58
63 67
65 30
68 19
69 95
70 75
71 86
72 92
73 152
74 123
75 26
76 77
77 92
85 82
86 94
87 138
88 115
89 135
90 39
98 66
100 2
101 72
102 150
103 154
104 106
105 17
114 10
115 74
116 19
119 1
128 25
129 41
130 71
131 8
132 64
133 17
147 92
148 29
189 75
190 31

$$$$

     RDKit          2D

 13 13  0  0  0  0  0  0  0  0999 V2000
   -1.3000    0.7500    0.0000 C   0  0  0  0  0  0  0  0  0  0  0  0
    0.0000    1.5000    0.0000 C   0  0  0  0  0  0  0  0  0  0  0  0
   -0.0000   -1.5000    0.0000 C   0  0  0  0  0  0  0  0  0  0  0  0
   -1.3000   -0.7500    0.0000 C   0  0  0  0  0  0  0  0  0  0  0  0
    1.3000   -0.7500    0.0000 C   0  0  0  0  0  0  0  0  0  0  0  0
    1.3000    0.7500    0.0000 C   0  0  0  0  0  0  0  0  0  0  0  0
    2.5989   -1.5002    0.0000 C   0  0  0  0  0  0  0  0  0  0  0  0
    3.8981   -0.7504    0.0000 C   0  0  0  0  0  0  0  0  0  0  0  0
   -2.5989   -1.5002    0.0000 Cl  0  0  0  0  0  0  0  0  0  0  0  0
    2.5989    1.5002    0.0000 Cl  0  0  0  0  0  0  0  0  0  0  0  0
    3.8983    0.7496    0.0000 O   0  0  0  0  0  0  0  0  0  0  0  0
    5.1970   -1.5006    0.0000 O   0  0  0  0  0  0  0  0  0  0  0  0
    2.5987   -3.0002    0.0000 S   0  0  0  0  0  0  0  0  0  0  0  0
  2  1  2  0
  4  1  1  0
  4  3  2  0
  5  3  1  0
  6  2  1  0
  6  5  2  0
  7  5  1  0
  8  7  1  0
  9  4  1  0
 10  6  1  0
 11  8  2  0
 12  8  1  0
 13  7  1  0
M  END
>  <NAME>  (527) 
2,5-DICHLOROPHENYLTHIOGLYCOLIC ACID

>  <SYNONYMS>  (527) 


>  <SPECTRUM TYPE>  (527) 
MS1

>  <INSTRUMENT TYPE>  (527) 
EI-B

>  <INSTRUMENT>  (527) 
HITACHI M-2500

>  <ION MODE>  (527) 
P

>  <INCHIKEY>  (527) 
CRTGVRQQKMHWLD-UHFFFAOYSA-N

>  <FORMULA>  (527) 
C8H6Cl2O2S

>  <EXACT MASS>  (527) 
235.946555792

>  <MW>  (527) 
236

>  <ID>  (527) 
JP011330

>  <CONTRIBUTOR>  (527) 
University of Tokyo Team, {Faculty of Engineering, University of Tokyo

>  <COMMENT>  (527) 
SMILES=OC(=O)C(S)c(c1)c(Cl)ccc(Cl)1
cas=6274-27-7
InChI=InChI=1S/C8H6Cl2O2S/c9-4-1-2-6(10)5(3-4)7(13)8(11)12/h1-3,7,13H,(H,11,12)
computed SMILES=O=C(O)C(S)C1=CC(Cl)=CC=C1Cl
accession=JP011330
date=2016.01.19 (Created 2008.10.21, modified 2011.05.06)
author=YAMAMOTO M, DEP. CHEMISTRY, FAC. SCIENCE, NARA WOMEN'S UNIV.
license=CC BY-NC-SA
exact mass=235.94656
ionization energy=70 eV
ion type=[M]+*
computed spectral entropy=1.4772227959974094
computed normalized entropy=0.6160497552812112
SPLASH=splash10-000i-0090000000-003892a9ed9e6a48049e
submitter=submitter = University of Tokyo Team (Faculty of Engineering, University of Tokyo)
MoNA Rating=3.75

>  <NUM PEAKS>  (527) 
11

>  <MASS SPECTRAL PEAKS>  (527) 
144 1.35
191 4.02
193 2.8
201 5.96
203 2.21
236 99.99
237 9.8
238 70.37
239 6.83
240 13.18
241 1.31

>  <PREDICTED SPECTRUM>  (527) 
14 12
16 15
17 26
18 45
25 24
26 29
33 41
34 33
35 109
36 172
37 168
38 175
39 196
40 66
41 198
42 114
43 96
44 144
45 671
46 215
47 234
48 92
49 262
50 391
51 386
52 101
53 75
54 6
55 145
56 135
57 89
59 206
60 316
61 350
62 394
63 535
64 174
65 119
66 11
67 1
68 91
69 222
70 32
71 71
72 176
73 571
74 581
75 623
76 237
77 249
78 146
79 47
81 92
82 51
83 175
84 329
85 332
86 357
87 268
88 90
89 422
90 124
91 337
92 65
94 3
95 105
96 124
97 284
98 114
99 333
101 184
102 103
103 144
104 147
105 76
107 170
108 188
109 459
110 249
111 279
112 107
113 75
114 147
115 257
116 78
117 62
119 162
120 31
121 270
122 111
123 452
124 346
125 204
126 129
127 261
128 288
129 287
130 196
131 117
133 184
134 81
135 447
136 120
137 269
138 80
139 67
140 50
141 77
142 91
143 173
144 78
145 233
146 79
147 82
148 67
150 5
153 3
154 82
155 575
156 494
157 693
158 404
159 616
160 144
161 402
162 208
163 117
164 110
165 234
166 149
167 83
169 24
171 75
172 133
173 302
174 102
175 155
184 46
185 109
190 8
191 999
192 348
193 888
194 330
195 335
196 119
200 28
201 583
202 205
203 363
204 59
205 104
236 672
237 192
238 556
239 175
240 210
241 37

$$$$

     RDKit          2D

 11 12  0  0  1  0  0  0  0  0999 V2000
   -0.6759    1.4813    0.0000 C   0  0  0  0  0  0  0  0  0  0  0  0
   -0.6759   -2.3013    0.0000 C   0  0  0  0  0  0  0  0  0  0  0  0
    2.4475    2.5900    0.0000 C   0  0  0  0  0  0  0  0  0  0  0  0
    1.1450   -1.1600    0.0000 C   0  0  0  0  0  0  0  0  0  0  0  0
    1.1450    0.3400    0.0000 C   0  0  0  0  0  0  0  0  0  0  0  0
    3.7350   -1.1600    0.0000 C   0  0  0  0  0  0  0  0  0  0  0  0
    2.4450   -1.9100    0.0000 C   0  0  0  0  0  0  0  0  0  0  0  0
    3.7350    0.3400    0.0000 C   0  0  0  0  0  0  0  0  0  0  0  0
    1.5750   -0.4100    0.0000 C   0  0  0  0  0  0  0  0  0  0  0  0
    2.4450    1.0900    0.0000 C   0  0  0  0  0  0  0  0  0  0  0  0
    5.0352    1.0880    0.0000 O   0  0  0  0  0  0  0  0  0  0  0  0
  5  4  1  0
  7  4  1  6
  7  6  1  0
  8  6  1  0
  9  1  1  0
  9  2  1  0
  9  7  1  0
 10  3  1  1
 10  5  1  0
 10  8  1  0
 10  9  1  0
 11  8  2  0
M  END
>  <NAME>  (528) 
(1S)-(-)-CAMPHOR

>  <SYNONYMS>  (528) 


>  <SPECTRUM TYPE>  (528) 
MS1

>  <INSTRUMENT TYPE>  (528) 
EI-B

>  <INSTRUMENT>  (528) 
HITACHI M-2500

>  <ION MODE>  (528) 
P

>  <INCHIKEY>  (528) 
DSSYKIVIOFKYAU-OIBJUYFYSA-N

>  <FORMULA>  (528) 
C10H16O

>  <EXACT MASS>  (528) 
152.120115132

>  <MW>  (528) 
152

>  <ID>  (528) 
JP011329

>  <CONTRIBUTOR>  (528) 
University of Tokyo Team, {Faculty of Engineering, University of Tokyo

>  <COMMENT>  (528) 
SMILES=O=C(C1)C(C)(C2)C(C)(C)C([H])(C2)1
cas=464-48-2
InChI=InChI=1S/C10H16O/c1-9(2)7-4-5-10(9,3)8(11)6-7/h7H,4-6H2,1-3H3/t7-,10+/m0/s1
computed SMILES=O=C1CC2CCC1(C)C2(C)C
accession=JP011329
date=2016.01.19 (Created 2008.10.21, modified 2011.05.06)
author=YAMAMOTO M, DEP. CHEMISTRY, FAC. SCIENCE, NARA WOMEN'S UNIV.
license=CC BY-NC-SA
exact mass=152.12012
ionization energy=70 eV
ion type=[M]+*
computed spectral entropy=2.4129944726086605
computed normalized entropy=0.6962430318649988
SPLASH=splash10-0zfr-3900000000-f7126616e4f1ddd0b8e1
submitter=submitter = University of Tokyo Team (Faculty of Engineering, University of Tokyo)
MoNA Rating=3.75

>  <NUM PEAKS>  (528) 
32

>  <MASS SPECTRAL PEAKS>  (528) 
18 2.78
30 2.62
55 1.04
68 1.83
69 2.18
79 1.33
80 15.16
81 28.18
82 2.93
83 2.64
86 1.75
87 1.45
93 3.79
94 1.24
95 21.17
96 2.71
97 2.1
100 1.1
108 68.88
109 16.51
110 16.24
111 2.3
123 1.22
124 2.04
136 1.13
137 3.83
138 3.4
144 4.3
150 1.02
152 99.99
153 12.52
154 1.27

>  <PREDICTED SPECTRUM>  (528) 
26 64
27 314
28 112
29 249
31 28
32 3
37 17
38 84
39 492
40 244
41 758
42 280
43 458
44 110
45 77
46 51
50 127
51 277
52 199
53 437
54 283
55 573
56 259
57 175
58 72
59 33
60 28
62 56
63 151
64 106
65 316
66 196
67 640
68 447
69 633
70 274
71 148
72 24
75 14
77 405
78 212
79 464
80 282
81 786
82 478
83 482
84 156
85 25
89 0
91 446
92 230
93 482
94 330
95 778
96 570
97 361
98 102
103 47
104 47
105 220
106 108
107 341
108 761
109 999
110 563
111 230
112 15
119 244
120 7
121 15
122 26
123 232
124 257
125 62
134 25
137 343
138 109
151 47
152 767
153 272
154 73

$$$$

     RDKit          2D

 13 12  0  0  0  0  0  0  0  0999 V2000
    3.5724    6.5625    0.0000 C   0  0  0  0  0  0  0  0  0  0  0  0
    2.2733    7.3125    0.0000 C   0  0  0  0  0  0  0  0  0  0  0  0
    0.9743    6.5625    0.0000 C   0  0  0  0  0  0  0  0  0  0  0  0
   -0.3248    7.3125    0.0000 C   0  0  0  0  0  0  0  0  0  0  0  0
   -1.6238    6.5625    0.0000 C   0  0  0  0  0  0  0  0  0  0  0  0
   -2.9228    7.3125    0.0000 C   0  0  0  0  0  0  0  0  0  0  0  0
   -4.2219    6.5625    0.0000 C   0  0  0  0  0  0  0  0  0  0  0  0
   -5.5209    7.3125    0.0000 C   0  0  0  0  0  0  0  0  0  0  0  0
   -6.8200    6.5625    0.0000 C   0  0  0  0  0  0  0  0  0  0  0  0
   -8.1190    7.3125    0.0000 C   0  0  0  0  0  0  0  0  0  0  0  0
   -9.4180    6.5625    0.0000 C   0  0  0  0  0  0  0  0  0  0  0  0
   -9.4180    5.0625    0.0000 O   0  0  0  0  0  0  0  0  0  0  0  0
  -10.7171    7.3125    0.0000 O   0  0  0  0  0  0  0  0  0  0  0  0
  2  1  2  0
  3  2  1  0
  4  3  1  0
  5  4  1  0
  6  5  1  0
  7  6  1  0
  8  7  1  0
  9  8  1  0
 10  9  1  0
 11 10  1  0
 12 11  2  0
 13 11  1  0
M  END
>  <NAME>  (529) 
UNDECYLENIC ACID

>  <SYNONYMS>  (529) 
10-UNDECENOIC ACID

>  <SPECTRUM TYPE>  (529) 
MS1

>  <INSTRUMENT TYPE>  (529) 
EI-B

>  <INSTRUMENT>  (529) 
HITACHI M-2500

>  <ION MODE>  (529) 
P

>  <INCHIKEY>  (529) 
FRPZMMHWLSIFAZ-UHFFFAOYSA-N

>  <FORMULA>  (529) 
C11H20O2

>  <EXACT MASS>  (529) 
184.14632988

>  <MW>  (529) 
184

>  <ID>  (529) 
JP011327

>  <CONTRIBUTOR>  (529) 
University of Tokyo Team, {Faculty of Engineering, University of Tokyo

>  <COMMENT>  (529) 
SMILES=C=CCCCCCCCCC(O)=O
cas=112-38-9
InChI=InChI=1S/C11H20O2/c1-2-3-4-5-6-7-8-9-10-11(12)13/h2H,1,3-10H2,(H,12,13)
computed SMILES=O=C(O)CCCCCCCCC=C
accession=JP011327
date=2016.01.19 (Created 2008.10.21, modified 2011.05.06)
author=YAMAMOTO M, DEP. CHEMISTRY, FAC. SCIENCE, NARA WOMEN'S UNIV.
license=CC BY-NC-SA
exact mass=184.14633
ionization energy=70 eV
ion type=[M]+*
computed spectral entropy=4.01673482841178
computed normalized entropy=0.8528950143036553
SPLASH=splash10-056u-9200000000-5b8c18292287532e1deb
submitter=submitter = University of Tokyo Team (Faculty of Engineering, University of Tokyo)
MoNA Rating=3.75

>  <NUM PEAKS>  (529) 
111

>  <MASS SPECTRAL PEAKS>  (529) 
26 5.04
27 31.67
28 74.1
29 31.24
30 2.48
31 5.4
32 18.07
34 1.13
36 1.39
38 2.13
39 38.02
40 8.26
41 84.75
42 20.4
43 22.68
44 8.05
45 19.27
47 1.3
50 1.41
51 2.26
52 1.57
53 11.61
54 14.72
55 99.99
56 26.23
57 9.84
58 2.11
59 6.79
60 32.67
61 4.12
63 1.1
65 2.69
66 2.52
67 13.71
68 21.01
69 43.4
70 13.22
71 6.34
72 1.23
73 24.15
74 2.05
75 1.22
77 3.18
78 1.91
79 6.88
80 16.13
82 27.84
83 37.17
84 22.86
85 5.45
86 2.42
87 8.62
88 1.38
90 1.07
91 3.27
92 1.3
93 4.12
94 6.02
95 13.68
96 32.71
97 14.22
98 16.82
99 5.09
100 9.74
101 11.11
102 2.33
103 1.48
105 3.59
106 2.4
107 2.68
108 2.98
109 6.38
110 10.46
111 5.31
112 2.1
113 6.01
114 9.74
115 3.86
116 2.51
117 1.61
118 1.39
119 4.66
120 1.86
121 1.59
122 10.83
123 12.08
124 21.65
125 7.87
126 2.05
127 2.78
128 5.21
129 2.37
133 2.03
137 8.97
138 4.85
139 1.5
141 4.32
142 1.94
143 1.11
145 1.84
148 6.04
149 2.6
151 1.97
152 1.56
153 1.61
155 1.63
166 8.98
167 2.22
168 1.01
184 2
185 1.78

>  <PREDICTED SPECTRUM>  (529) 
16 0
17 6
18 15
26 61
27 282
28 94
29 306
30 80
31 70
37 9
38 30
39 357
40 141
41 894
42 463
43 700
44 157
45 355
46 83
47 35
49 6
50 65
51 103
52 100
53 307
54 478
55 999
56 515
57 389
58 160
59 191
60 625
61 272
62 50
63 62
64 16
65 158
66 148
67 574
68 527
69 819
70 453
71 367
72 156
73 589
74 197
75 86
76 42
77 157
78 106
79 251
80 220
81 443
82 497
83 545
84 576
85 272
86 168
87 397
88 138
89 71
91 206
92 86
93 202
94 212
95 368
96 453
97 484
98 398
99 243
100 307
101 265
102 150
103 32
104 22
105 97
106 85
107 184
108 170
109 337
110 253
111 250
112 140
113 211
114 287
115 148
116 80
118 29
119 132
120 102
121 88
122 274
123 315
124 395
125 358
126 142
127 189
128 97
129 114
130 29
132 14
133 78
134 18
135 23
136 54
137 234
138 238
139 57
140 66
141 84
142 19
148 205
149 126
151 100
153 24
154 19
155 43
166 344
167 162
168 76
184 47
185 2

$$$$

     RDKit          2D

 17 17  0  0  0  0  0  0  0  0999 V2000
   -2.5981   -1.9300    0.0000 C   0  0  0  0  0  0  0  0  0  0  0  0
   -5.1962    2.5700    0.0000 C   0  0  0  0  0  0  0  0  0  0  0  0
   -1.2990   -1.1800    0.0000 C   0  0  0  0  0  0  0  0  0  0  0  0
   -3.8971    3.3200    0.0000 C   0  0  0  0  0  0  0  0  0  0  0  0
    3.8971    4.8200    0.0000 C   0  0  0  0  0  0  0  0  0  0  0  0
    2.5976    5.5708    0.0000 C   0  0  0  0  0  0  0  0  0  0  0  0
    3.8976    3.3192    0.0000 C   0  0  0  0  0  0  0  0  0  0  0  0
    1.2986    4.8208    0.0000 C   0  0  0  0  0  0  0  0  0  0  0  0
    2.5986    2.5692    0.0000 C   0  0  0  0  0  0  0  0  0  0  0  0
    1.2990    3.3200    0.0000 C   0  0  0  0  0  0  0  0  0  0  0  0
    0.0000    2.5700    0.0000 C   0  0  0  0  0  0  0  0  0  0  0  0
    0.0000    1.0700    0.0000 C   0  0  0  0  0  0  0  0  0  0  0  0
   -1.2990    3.3200    0.0000 C   0  0  0  0  0  0  0  0  0  0  0  0
    1.2990    0.3200    0.0000 O   0  0  0  0  0  0  0  0  0  0  0  0
   -1.2990    4.8200    0.0000 O   0  0  0  0  0  0  0  0  0  0  0  0
   -1.2990    0.3200    0.0000 O   0  0  0  0  0  0  0  0  0  0  0  0
   -2.5981    2.5700    0.0000 O   0  0  0  0  0  0  0  0  0  0  0  0
  3  1  1  0
  4  2  1  0
  6  5  2  0
  7  5  1  0
  8  6  1  0
  9  7  2  0
 10  8  2  0
 10  9  1  0
 11 10  1  0
 12 11  1  0
 13 11  1  0
 14 12  2  0
 15 13  2  0
 16  3  1  0
 16 12  1  0
 17  4  1  0
 17 13  1  0
M  END
>  <NAME>  (530) 
DIETHYL PHENYLMALONATE

>  <SYNONYMS>  (530) 


>  <SPECTRUM TYPE>  (530) 
MS1

>  <INSTRUMENT TYPE>  (530) 
EI-B

>  <INSTRUMENT>  (530) 
HITACHI M-2500

>  <ION MODE>  (530) 
P

>  <INCHIKEY>  (530) 
FGYDHYCFHBSNPE-UHFFFAOYSA-N

>  <FORMULA>  (530) 
C13H16O4

>  <EXACT MASS>  (530) 
236.104858992

>  <MW>  (530) 
236

>  <ID>  (530) 
JP011326

>  <CONTRIBUTOR>  (530) 
University of Tokyo Team, {Faculty of Engineering, University of Tokyo

>  <COMMENT>  (530) 
SMILES=CCOC(=O)C(C(=O)OCC)c(c1)cccc1
cas=83-13-6
InChI=InChI=1S/C13H16O4/c1-3-16-12(14)11(13(15)17-4-2)10-8-6-5-7-9-10/h5-9,11H,3-4H2,1-2H3
computed SMILES=O=C(OCC)C(C(=O)OCC)C=1C=CC=CC1
accession=JP011326
date=2016.01.19 (Created 2008.10.21, modified 2011.05.06)
author=YAMAMOTO M, DEP. CHEMISTRY, FAC. SCIENCE, NARA WOMEN'S UNIV.
license=CC BY-NC-SA
exact mass=236.10486
ionization energy=70 eV
ion type=[M]+*
computed spectral entropy=3.262508166697098
computed normalized entropy=0.8256914528847137
SPLASH=splash10-01rf-9700000000-463c4e043907544a828c
submitter=submitter = University of Tokyo Team (Faculty of Engineering, University of Tokyo)
MoNA Rating=3.75

>  <NUM PEAKS>  (530) 
52

>  <MASS SPECTRAL PEAKS>  (530) 
15 4.28
18 2.1
26 3.08
27 16.45
28 4.19
29 48.62
30 1.76
31 11.67
32 5.98
38 1.25
39 6.12
40 1.11
41 1.38
43 4.51
44 4.16
45 3.86
50 2.48
51 6.02
52 1.28
53 1.08
62 3.11
63 11.24
64 4.96
65 6.23
77 22.87
78 5.18
79 52.1
80 3.49
89 29.5
90 45.85
91 99.99
92 11.23
104 1
105 10.8
106 2.1
107 58.75
108 4.58
117 4.05
118 63.81
119 20.76
120 2.02
135 40.86
136 41.18
137 3.62
146 3.12
163 42.97
164 49.49
165 5.44
191 3.4
192 4.72
236 27.59
237 4.38

>  <PREDICTED SPECTRUM>  (530) 
15 1
26 147
27 358
28 228
29 718
30 16
31 96
36 30
37 64
38 83
39 239
40 66
42 21
44 155
45 102
49 56
50 290
51 492
52 215
53 134
55 179
61 74
62 262
63 447
64 158
65 246
74 168
75 138
76 252
77 848
78 396
79 582
80 82
81 71
83 28
88 74
89 578
90 667
91 792
92 307
93 162
95 59
102 57
103 98
104 478
105 733
106 459
107 744
108 319
109 99
117 537
118 825
119 492
120 176
131 14
133 142
134 197
135 999
136 496
137 95
144 26
145 318
146 223
162 147
163 742
164 600
165 256
190 132
191 329
192 181
193 100
236 408
237 180

$$$$

     RDKit          2D

 11 10  0  0  0  0  0  0  0  0999 V2000
    2.2841    2.8734    0.0000 C   0  0  0  0  0  0  0  0  0  0  0  0
   -5.5102    2.8734    0.0000 C   0  0  0  0  0  0  0  0  0  0  0  0
   -3.0284    7.3311    0.0000 C   0  0  0  0  0  0  0  0  0  0  0  0
   -0.6489    4.7725    0.0000 C   0  0  0  0  0  0  0  0  0  0  0  0
    0.9850    3.6234    0.0000 C   0  0  0  0  0  0  0  0  0  0  0  0
   -4.2111    3.6234    0.0000 C   0  0  0  0  0  0  0  0  0  0  0  0
   -2.0642    6.1820    0.0000 C   0  0  0  0  0  0  0  0  0  0  0  0
   -1.6131    3.6234    0.0000 C   0  0  0  0  0  0  0  0  0  0  0  0
   -0.3140    2.8734    0.0000 O   0  0  0  0  0  0  0  0  0  0  0  0
   -2.9121    2.8734    0.0000 O   0  0  0  0  0  0  0  0  0  0  0  0
   -2.5772    4.7725    0.0000 O   0  0  0  0  0  0  0  0  0  0  0  0
  5  1  1  0
  6  2  1  0
  7  3  1  0
  8  4  1  0
  9  5  1  0
  9  8  1  0
 10  6  1  0
 10  8  1  0
 11  7  1  0
 11  8  1  0
M  END
>  <NAME>  (531) 
TRIETHYL ORTHOACETATE

>  <SYNONYMS>  (531) 
1,1,1-TRIETHOXYETHANE

>  <SPECTRUM TYPE>  (531) 
MS1

>  <INSTRUMENT TYPE>  (531) 
EI-B

>  <INSTRUMENT>  (531) 
HITACHI M-2500

>  <ION MODE>  (531) 
P

>  <INCHIKEY>  (531) 
NDQXKKFRNOPRDW-UHFFFAOYSA-N

>  <FORMULA>  (531) 
C8H18O3

>  <EXACT MASS>  (531) 
162.12559443599997

>  <MW>  (531) 
162

>  <ID>  (531) 
JP011324

>  <CONTRIBUTOR>  (531) 
University of Tokyo Team, {Faculty of Engineering, University of Tokyo

>  <COMMENT>  (531) 
SMILES=CCOC(C)(OCC)OCC
cas=78-39-7
InChI=InChI=1S/C8H18O3/c1-5-9-8(4,10-6-2)11-7-3/h5-7H2,1-4H3
computed SMILES=O(CC)C(OCC)(OCC)C
accession=JP011324
date=2016.01.19 (Created 2008.10.21, modified 2011.05.06)
author=YAMAMOTO M, DEP. CHEMISTRY, FAC. SCIENCE, NARA WOMEN'S UNIV.
license=CC BY-NC-SA
exact mass=162.12559
ionization energy=70 eV
ion type=[M]+*
computed spectral entropy=2.7778984088327867
computed normalized entropy=0.8015320517032807
SPLASH=splash10-0036-9000000000-f6aed8ac583cfc4cef19
submitter=submitter = University of Tokyo Team (Faculty of Engineering, University of Tokyo)
MoNA Rating=3.75

>  <NUM PEAKS>  (531) 
32

>  <MASS SPECTRAL PEAKS>  (531) 
13 2.71
14 9.8
15 26.61
17 4.33
18 13.25
19 3.08
25 2.38
26 15.29
27 47.58
28 11.36
29 43.99
30 6.4
31 83.66
32 1.85
39 1
41 2.95
42 37.1
43 99.99
44 4.28
45 47.79
46 13.03
60 28.3
61 17.38
70 6.44
72 1.1
73 3.9
87 1.64
88 3.44
89 4.58
105 1.07
116 10.46
117 2.35

>  <PREDICTED SPECTRUM>  (531) 
14 45
15 139
16 7
17 2
18 52
19 29
25 17
26 102
27 286
28 56
29 533
31 284
32 9
33 14
40 20
41 64
42 97
43 900
44 334
45 665
46 135
47 164
57 150
58 11
59 323
60 35
61 438
62 63
63 74
71 46
72 61
73 471
74 27
75 226
76 26
88 133
89 816
90 189
91 202
103 115
105 25
117 999
118 292
119 347
147 735
148 40

$$$$

     RDKit          2D

  8  7  0  0  0  0  0  0  0  0999 V2000
   -2.2733    0.5625    0.0000 C   0  0  0  0  0  0  0  0  0  0  0  0
    0.3248    0.5625    0.0000 C   0  0  0  0  0  0  0  0  0  0  0  0
    0.3248    5.0625    0.0000 C   0  0  0  0  0  0  0  0  0  0  0  0
    1.6238    2.8125    0.0000 C   0  0  0  0  0  0  0  0  0  0  0  0
   -0.9743    2.8125    0.0000 C   0  0  0  0  0  0  0  0  0  0  0  0
   -0.9743    1.3125    0.0000 N   0  0  0  0  0  0  0  0  0  0  0  0
    0.3248    3.5625    0.0000 N   0  0  0  0  0  0  0  0  0  0  0  0
   -2.2733    3.5625    0.0000 O   0  0  0  0  0  0  0  0  0  0  0  0
  6  1  1  0
  6  2  1  0
  6  5  1  0
  7  3  1  0
  7  4  1  0
  7  5  1  0
  8  5  2  0
M  END
>  <NAME>  (532) 
1,1,3,3-TETRAMETHYLUREA

>  <SYNONYMS>  (532) 


>  <SPECTRUM TYPE>  (532) 
MS1

>  <INSTRUMENT TYPE>  (532) 
EI-B

>  <INSTRUMENT>  (532) 
HITACHI M-2500

>  <ION MODE>  (532) 
P

>  <INCHIKEY>  (532) 
AVQQQNCBBIEMEU-UHFFFAOYSA-N

>  <FORMULA>  (532) 
C5H12N2O

>  <EXACT MASS>  (532) 
116.094963004

>  <MW>  (532) 
116

>  <ID>  (532) 
JP011323

>  <CONTRIBUTOR>  (532) 
University of Tokyo Team, {Faculty of Engineering, University of Tokyo

>  <COMMENT>  (532) 
SMILES=CN(C)C(=O)N(C)C
cas=632-22-4
InChI=InChI=1S/C5H12N2O/c1-6(2)5(8)7(3)4/h1-4H3
computed SMILES=O=C(N(C)C)N(C)C
accession=JP011323
date=2016.01.19 (Created 2008.10.21, modified 2011.05.06)
author=YAMAMOTO M, DEP. CHEMISTRY, FAC. SCIENCE, NARA WOMEN'S UNIV.
license=CC BY-NC-SA
exact mass=116.09496
ionization energy=70 eV
ion type=[M]+*
computed spectral entropy=1.8659807706474751
computed normalized entropy=0.7070633705860084
SPLASH=splash10-00dl-9200000000-e3c90e73a580e1f62365
submitter=submitter = University of Tokyo Team (Faculty of Engineering, University of Tokyo)
MoNA Rating=3.75

>  <NUM PEAKS>  (532) 
14

>  <MASS SPECTRAL PEAKS>  (532) 
15 7.28
18 4
28 4.82
41 1.51
42 14.14
43 4.11
44 36.62
45 6.46
56 4.33
58 4.45
72 99.99
73 4.56
116 39.73
117 3.34

>  <PREDICTED SPECTRUM>  (532) 
15 62
27 19
28 107
29 32
30 82
40 1
41 131
42 310
43 171
44 372
45 259
46 161
54 15
56 231
57 69
58 161
70 61
71 104
72 999
73 183
82 17
87 3
99 47
101 81
116 265
117 48

$$$$

     RDKit          2D

 11 12  0  0  0  0  0  0  0  0999 V2000
   -2.6000    0.7500    0.0000 C   0  0  0  0  0  0  0  0  0  0  0  0
    2.6000    0.7500    0.0000 C   0  0  0  0  0  0  0  0  0  0  0  0
   -1.3000    1.5000    0.0000 C   0  0  0  0  0  0  0  0  0  0  0  0
    1.3000    1.5000    0.0000 C   0  0  0  0  0  0  0  0  0  0  0  0
   -2.6000   -0.7500    0.0000 C   0  0  0  0  0  0  0  0  0  0  0  0
    2.6000   -0.7500    0.0000 C   0  0  0  0  0  0  0  0  0  0  0  0
   -0.0000    0.7500    0.0000 C   0  0  0  0  0  0  0  0  0  0  0  0
   -1.3000   -1.5000    0.0000 C   0  0  0  0  0  0  0  0  0  0  0  0
   -0.0000   -0.7500    0.0000 C   0  0  0  0  0  0  0  0  0  0  0  0
   -1.3000   -3.0000    0.0000 N   0  0  0  0  0  0  0  0  0  0  0  0
    1.3000   -1.5000    0.0000 N   0  0  0  0  0  0  0  0  0  0  0  0
  3  1  2  0
  4  2  1  0
  5  1  1  0
  6  2  2  0
  7  3  1  0
  7  4  2  0
  8  5  2  0
  9  7  1  0
  9  8  1  0
 10  8  1  0
 11  6  1  0
 11  9  2  0
M  END
>  <NAME>  (533) 
8-AMINOQUINOLINE

>  <SYNONYMS>  (533) 
8-QUINOLINAMINE

>  <SPECTRUM TYPE>  (533) 
MS1

>  <INSTRUMENT TYPE>  (533) 
EI-B

>  <INSTRUMENT>  (533) 
HITACHI M-2500

>  <ION MODE>  (533) 
P

>  <INCHIKEY>  (533) 
WREVVZMUNPAPOV-UHFFFAOYSA-N

>  <FORMULA>  (533) 
C9H8N2

>  <EXACT MASS>  (533) 
144.068748256

>  <MW>  (533) 
144

>  <ID>  (533) 
JP011322

>  <CONTRIBUTOR>  (533) 
University of Tokyo Team, {Faculty of Engineering, University of Tokyo

>  <COMMENT>  (533) 
SMILES=Nc(c1)c(n2)c(ccc2)cc1
cas=578-66-5
InChI=InChI=1S/C9H8N2/c10-8-5-1-3-7-4-2-6-11-9(7)8/h1-6H,10H2
computed SMILES=N1=CC=CC2=CC=CC(N)=C12
accession=JP011322
date=2016.01.19 (Created 2008.10.21, modified 2011.05.06)
author=YAMAMOTO M, DEP. CHEMISTRY, FAC. SCIENCE, NARA WOMEN'S UNIV.
license=CC BY-NC-SA
exact mass=144.06875
ionization energy=70 eV
ion type=[M]+*
computed spectral entropy=2.4127640312871024
computed normalized entropy=0.7026129940541946
SPLASH=splash10-0006-3900000000-a802a2374fbfb44b96c3
submitter=submitter = University of Tokyo Team (Faculty of Engineering, University of Tokyo)
MoNA Rating=3.75

>  <NUM PEAKS>  (533) 
31

>  <MASS SPECTRAL PEAKS>  (533) 
18 3.73
28 1.99
38 1.4
39 3.54
50 1.62
51 2.03
52 2
58 1.07
59 6.47
62 2.33
63 5.32
64 2.31
65 1.56
71 2.3
72 7.12
75 1.01
76 1.36
78 1
88 1.56
89 11.41
90 10.49
91 1.74
114 1.09
115 2.1
116 10.39
117 33.3
118 4.33
142 3.14
143 8.74
144 99.99
145 16.27

>  <PREDICTED SPECTRUM>  (533) 
37 10
38 55
39 105
40 45
41 82
44 11
49 28
50 105
51 157
52 187
53 17
54 1
61 34
62 120
63 209
64 137
65 121
66 54
74 57
75 110
76 84
77 111
78 131
79 86
80 3
87 27
88 73
89 254
90 201
91 69
97 21
99 21
101 39
103 40
104 133
105 51
114 2
115 93
116 308
117 412
118 206
127 36
128 19
141 20
142 100
143 349
144 999
145 347
146 60

$$$$

     RDKit          2D

 11 12  0  0  0  0  0  0  0  0999 V2000
   -2.6000    0.7500    0.0000 C   0  0  0  0  0  0  0  0  0  0  0  0
   -2.6000   -0.7500    0.0000 C   0  0  0  0  0  0  0  0  0  0  0  0
   -1.3000    1.5000    0.0000 C   0  0  0  0  0  0  0  0  0  0  0  0
   -1.3000   -1.5000    0.0000 C   0  0  0  0  0  0  0  0  0  0  0  0
    1.3000    1.5000    0.0000 C   0  0  0  0  0  0  0  0  0  0  0  0
    2.6000   -0.7500    0.0000 C   0  0  0  0  0  0  0  0  0  0  0  0
   -0.0000    0.7500    0.0000 C   0  0  0  0  0  0  0  0  0  0  0  0
    2.6000    0.7500    0.0000 C   0  0  0  0  0  0  0  0  0  0  0  0
   -0.0000   -0.7500    0.0000 C   0  0  0  0  0  0  0  0  0  0  0  0
    3.8989    1.5002    0.0000 N   0  0  0  0  0  0  0  0  0  0  0  0
    1.3000   -1.5000    0.0000 N   0  0  0  0  0  0  0  0  0  0  0  0
  2  1  2  0
  3  1  1  0
  4  2  1  0
  7  3  2  0
  7  5  1  0
  8  5  2  0
  8  6  1  0
  9  4  2  0
  9  7  1  0
 10  8  1  0
 11  6  2  0
 11  9  1  0
M  END
>  <NAME>  (534) 
3-AMINOQUINOLINE

>  <SYNONYMS>  (534) 
3-QUINOLINEAMINE

>  <SPECTRUM TYPE>  (534) 
MS1

>  <INSTRUMENT TYPE>  (534) 
EI-B

>  <INSTRUMENT>  (534) 
HITACHI M-2500

>  <ION MODE>  (534) 
P

>  <INCHIKEY>  (534) 
SVNCRRZKBNSMIV-UHFFFAOYSA-N

>  <FORMULA>  (534) 
C9H8N2

>  <EXACT MASS>  (534) 
144.068748256

>  <MW>  (534) 
144

>  <ID>  (534) 
JP011321

>  <CONTRIBUTOR>  (534) 
University of Tokyo Team, {Faculty of Engineering, University of Tokyo

>  <COMMENT>  (534) 
SMILES=Nc(c1)cc(c2)c(ccc2)n1
cas=580-17-6
InChI=InChI=1S/C9H8N2/c10-8-5-7-3-1-2-4-9(7)11-6-8/h1-6H,10H2
computed SMILES=N=1C=C(N)C=C2C=CC=CC12
accession=JP011321
date=2016.01.19 (Created 2008.10.21, modified 2011.05.06)
author=YAMAMOTO M, DEP. CHEMISTRY, FAC. SCIENCE, NARA WOMEN'S UNIV.
license=CC BY-NC-SA
exact mass=144.06875
ionization energy=70 eV
ion type=[M]+*
computed spectral entropy=1.9767972841588284
computed normalized entropy=0.6304579591045549
SPLASH=splash10-0006-2900000000-b31e3c55cf424a327fdc
submitter=submitter = University of Tokyo Team (Faculty of Engineering, University of Tokyo)
MoNA Rating=3.75

>  <NUM PEAKS>  (534) 
23

>  <MASS SPECTRAL PEAKS>  (534) 
28 1.23
39 1.89
50 1.23
51 1.24
59 2.97
62 1.57
63 3.54
64 1.04
72 4.16
76 1.07
88 1.2
89 10.63
90 8.32
91 1.08
104 1.09
115 1.02
116 8.98
117 15.59
118 2.43
142 1.37
143 12.41
144 99.99
145 10.83

>  <PREDICTED SPECTRUM>  (534) 
25 10
26 25
27 69
28 66
36 4
37 95
38 126
39 165
40 82
41 172
42 9
43 43
44 6
49 71
50 201
51 214
52 210
53 60
54 35
55 38
57 34
61 73
62 201
63 287
64 200
65 172
66 54
67 48
68 35
72 21
73 11
74 96
75 185
76 162
77 109
78 85
79 15
84 29
85 24
86 43
87 65
88 162
89 506
90 319
91 92
97 15
99 25
100 51
101 59
104 86
113 6
114 73
115 172
116 421
117 470
118 183
127 98
128 136
142 49
143 185
144 999
145 339
146 51

$$$$

     RDKit          2D

  7  6  0  0  0  0  0  0  0  0999 V2000
    1.6238    1.6875    0.0000 C   0  0  0  0  0  0  0  0  0  0  0  0
   -3.5724    1.6875    0.0000 C   0  0  0  0  0  0  0  0  0  0  0  0
   -0.9743    1.6875    0.0000 C   0  0  0  0  0  0  0  0  0  0  0  0
    0.3248    2.4375    0.0000 C   0  0  0  0  0  0  0  0  0  0  0  0
   -2.2733    2.4375    0.0000 C   0  0  0  0  0  0  0  0  0  0  0  0
    0.3248    3.9375    0.0000 O   0  0  0  0  0  0  0  0  0  0  0  0
   -2.2733    3.9375    0.0000 O   0  0  0  0  0  0  0  0  0  0  0  0
  4  1  1  0
  4  3  1  0
  5  2  1  0
  5  3  1  0
  6  4  2  0
  7  5  2  0
M  END
>  <NAME>  (535) 
2,4-PENTANEDIONE

>  <SYNONYMS>  (535) 
ACETYLACETONE

>  <SPECTRUM TYPE>  (535) 
MS1

>  <INSTRUMENT TYPE>  (535) 
EI-B

>  <INSTRUMENT>  (535) 
HITACHI M-2500

>  <ION MODE>  (535) 
P

>  <INCHIKEY>  (535) 
YRKCREAYFQTBPV-UHFFFAOYSA-N

>  <FORMULA>  (535) 
C5H8O2

>  <EXACT MASS>  (535) 
100.052429496

>  <MW>  (535) 
100

>  <ID>  (535) 
JP011320

>  <CONTRIBUTOR>  (535) 
University of Tokyo Team, {Faculty of Engineering, University of Tokyo

>  <COMMENT>  (535) 
SMILES=CC(=O)CC(C)=O
cas=123-54-6
InChI=InChI=1S/C5H8O2/c1-4(6)3-5(2)7/h3H2,1-2H3
computed SMILES=O=C(C)CC(=O)C
accession=JP011320
date=2016.01.19 (Created 2008.10.21, modified 2011.05.06)
author=YAMAMOTO M, DEP. CHEMISTRY, FAC. SCIENCE, NARA WOMEN'S UNIV.
license=CC BY-NC-SA
exact mass=100.05243
ionization energy=70 eV
ion type=[M]+*
computed spectral entropy=1.9744743678665402
computed normalized entropy=0.6485333605696716
SPLASH=splash10-0006-9100000000-d3295daaa18cb9c248cf
submitter=submitter = University of Tokyo Team (Faculty of Engineering, University of Tokyo)
MoNA Rating=3.75

>  <NUM PEAKS>  (535) 
21

>  <MASS SPECTRAL PEAKS>  (535) 
14 1.4
15 7.85
18 1.08
26 1.56
27 5.45
28 1.14
29 3.89
31 3.46
38 1.17
39 4.59
41 5.22
42 5.45
43 99.99
44 2.3
55 1.59
58 3.89
72 4.5
85 49.05
86 2.11
100 42.45
101 2.84

>  <PREDICTED SPECTRUM>  (535) 
14 61
15 150
16 29
17 19
18 9
25 20
26 41
27 181
28 116
29 110
30 18
31 50
37 40
38 107
39 273
40 143
41 172
42 289
43 999
44 229
45 190
53 26
54 28
55 73
56 29
57 26
58 246
59 84
67 51
69 124
72 39
82 81
83 68
84 162
85 529
86 134
99 11
100 449
101 145
102 13

$$$$

     RDKit          2D

  9  9  0  0  0  0  0  0  0  0999 V2000
   -2.9228    0.8825    0.0000 C   0  0  0  0  0  0  0  0  0  0  0  0
    2.2733   -0.6175    0.0000 C   0  0  0  0  0  0  0  0  0  0  0  0
    2.2738    0.8833    0.0000 C   0  0  0  0  0  0  0  0  0  0  0  0
    0.9738   -1.3683    0.0000 C   0  0  0  0  0  0  0  0  0  0  0  0
    0.9748    1.6333    0.0000 C   0  0  0  0  0  0  0  0  0  0  0  0
   -0.3252   -0.6183    0.0000 C   0  0  0  0  0  0  0  0  0  0  0  0
   -1.6238    1.6325    0.0000 C   0  0  0  0  0  0  0  0  0  0  0  0
   -0.3248    0.8825    0.0000 C   0  0  0  0  0  0  0  0  0  0  0  0
   -1.6238    3.1325    0.0000 O   0  0  0  0  0  0  0  0  0  0  0  0
  3  2  2  0
  4  2  1  0
  5  3  1  0
  6  4  2  0
  7  1  1  0
  8  5  2  0
  8  6  1  0
  8  7  1  0
  9  7  1  0
M  END
>  <NAME>  (536) 
DL-ALPHA-PHENYLETHANOL

>  <SYNONYMS>  (536) 


>  <SPECTRUM TYPE>  (536) 
MS1

>  <INSTRUMENT TYPE>  (536) 
EI-B

>  <INSTRUMENT>  (536) 
HITACHI M-2500

>  <ION MODE>  (536) 
P

>  <INCHIKEY>  (536) 
WAPNOHKVXSQRPX-UHFFFAOYSA-N

>  <FORMULA>  (536) 
C8H10O

>  <EXACT MASS>  (536) 
122.07316494

>  <MW>  (536) 
122

>  <ID>  (536) 
JP011319

>  <CONTRIBUTOR>  (536) 
University of Tokyo Team, {Faculty of Engineering, University of Tokyo

>  <COMMENT>  (536) 
SMILES=CC(O)c(c1)cccc1
InChI=InChI=1S/C8H10O/c1-7(9)8-5-3-2-4-6-8/h2-7,9H,1H3
computed SMILES=OC(C=1C=CC=CC1)C
accession=JP011319
date=2016.01.19 (Created 2008.10.21, modified 2011.05.06)
author=YAMAMOTO M, DEP. CHEMISTRY, FAC. SCIENCE, NARA WOMEN'S UNIV.
license=CC BY-NC-SA
exact mass=122.07316
ionization energy=70 eV
ion type=[M]+*
computed spectral entropy=2.5061370630221353
computed normalized entropy=0.7298038442743346
SPLASH=splash10-056r-9700000000-b55daadb4b176fb12df9
submitter=submitter = University of Tokyo Team (Faculty of Engineering, University of Tokyo)
MoNA Rating=3.75

>  <NUM PEAKS>  (536) 
31

>  <MASS SPECTRAL PEAKS>  (536) 
15 1.26
27 3.48
29 1.73
38 1.21
39 4.98
43 25.56
45 3.39
50 5.72
51 5.72
52 3.87
53 8.6
60 1.13
63 2.31
65 1.42
74 1.94
75 1.4
76 1.48
77 35.21
78 17.01
79 70.78
80 4.87
91 1.99
103 3.39
104 2.39
105 9.4
106 1.46
107 99.99
108 7.81
121 6.44
122 45.57
123 4.04

>  <PREDICTED SPECTRUM>  (536) 
14 18
15 23
19 20
25 15
26 79
27 153
29 30
31 54
32 1
33 19
36 12
37 80
38 145
39 349
40 86
41 160
43 906
44 243
45 426
46 103
47 91
49 83
50 408
51 682
52 361
53 296
54 100
55 109
57 7
58 102
59 57
61 121
62 163
63 194
64 79
65 111
66 145
67 51
68 42
69 37
70 87
71 6
74 202
75 192
76 140
77 943
78 573
79 747
80 300
81 157
82 20
87 66
89 204
90 40
91 320
92 43
101 34
102 200
103 243
104 225
105 656
106 64
107 999
108 303
109 55
119 99
120 18
121 427
122 646
123 224

$$$$

     RDKit          2D

  9  8  0  0  0  0  0  0  0  0999 V2000
   -0.9743    5.0625    0.0000 C   0  0  0  0  0  0  0  0  0  0  0  0
   -3.5724    0.5625    0.0000 C   0  0  0  0  0  0  0  0  0  0  0  0
   -4.8714    2.8125    0.0000 C   0  0  0  0  0  0  0  0  0  0  0  0
    0.3248    2.8125    0.0000 C   0  0  0  0  0  0  0  0  0  0  0  0
   -0.9743    0.5625    0.0000 C   0  0  0  0  0  0  0  0  0  0  0  0
   -2.2733    4.3125    0.0000 C   0  0  0  0  0  0  0  0  0  0  0  0
   -3.5724    2.0625    0.0000 C   0  0  0  0  0  0  0  0  0  0  0  0
   -0.9743    2.0625    0.0000 C   0  0  0  0  0  0  0  0  0  0  0  0
   -2.2733    2.8125    0.0000 N   0  0  0  0  0  0  0  0  0  0  0  0
  6  1  1  0
  7  2  1  0
  7  3  1  0
  8  4  1  0
  8  5  1  0
  9  6  1  0
  9  7  1  0
  9  8  1  0
M  END
>  <NAME>  (537) 
N,N-DIISOPROPYLETHYLAMINE

>  <SYNONYMS>  (537) 
N-ETHYLDIISOPROPYLAMINE

>  <SPECTRUM TYPE>  (537) 
MS1

>  <INSTRUMENT TYPE>  (537) 
EI-B

>  <INSTRUMENT>  (537) 
HITACHI M-2500

>  <ION MODE>  (537) 
P

>  <INCHIKEY>  (537) 
JGFZNNIVVJXRND-UHFFFAOYSA-N

>  <FORMULA>  (537) 
C8H19N

>  <EXACT MASS>  (537) 
129.151749608

>  <MW>  (537) 
129

>  <ID>  (537) 
JP011318

>  <CONTRIBUTOR>  (537) 
University of Tokyo Team, {Faculty of Engineering, University of Tokyo

>  <COMMENT>  (537) 
SMILES=CCN(C(C)C)C(C)C
cas=7087-68-5
InChI=InChI=1S/C8H19N/c1-6-9(7(2)3)8(4)5/h7-8H,6H2,1-5H3
computed SMILES=N(CC)(C(C)C)C(C)C
accession=JP011318
date=2016.01.19 (Created 2008.10.21, modified 2011.05.06)
author=YAMAMOTO M, DEP. CHEMISTRY, FAC. SCIENCE, NARA WOMEN'S UNIV.
license=CC BY-NC-SA
exact mass=129.15175
ionization energy=70 eV
ion type=[M]+*
computed spectral entropy=2.366623721005462
computed normalized entropy=0.7446770405227388
SPLASH=splash10-022c-9400000000-6cccff0d6d3386c2830c
submitter=submitter = University of Tokyo Team (Faculty of Engineering, University of Tokyo)
MoNA Rating=3.75

>  <NUM PEAKS>  (537) 
24

>  <MASS SPECTRAL PEAKS>  (537) 
15 1.6
18 1.88
27 7.27
28 5.13
29 3.7
30 13.88
39 2.89
41 10.08
42 13.87
43 12.03
44 27.5
56 4.95
58 4.07
70 8.47
71 1.94
72 99.99
73 4.84
84 2.83
86 6.23
114 87.2
115 7.2
128 1.21
129 29.96
130 2.95

>  <PREDICTED SPECTRUM>  (537) 
14 3
15 62
17 11
18 48
26 15
27 265
28 234
29 199
30 450
31 92
39 159
40 87
41 449
42 466
43 512
44 601
54 142
55 219
56 388
57 175
58 141
59 4
67 3
69 64
70 481
71 131
72 999
73 102
84 136
85 1
86 357
98 41
114 940
115 301
116 28
128 174
129 506
130 149

$$$$

     RDKit          2D

  9  9  0  0  0  0  0  0  0  0999 V2000
    3.5728   -1.3131    0.0000 C   0  0  0  0  0  0  0  0  0  0  0  0
   -1.6239   -1.3125    0.0000 C   0  0  0  0  0  0  0  0  0  0  0  0
    0.9744   -2.8133    0.0000 C   0  0  0  0  0  0  0  0  0  0  0  0
    0.9737    1.6883    0.0000 C   0  0  0  0  0  0  0  0  0  0  0  0
    2.2732    0.9375    0.0000 C   0  0  0  0  0  0  0  0  0  0  0  0
   -0.3254    0.9383    0.0000 C   0  0  0  0  0  0  0  0  0  0  0  0
    2.2737   -0.5633    0.0000 C   0  0  0  0  0  0  0  0  0  0  0  0
   -0.3249   -0.5625    0.0000 C   0  0  0  0  0  0  0  0  0  0  0  0
    0.9746   -1.3133    0.0000 C   0  0  0  0  0  0  0  0  0  0  0  0
  5  4  2  0
  6  4  1  0
  7  1  1  0
  7  5  1  0
  8  2  1  0
  8  6  2  0
  9  3  1  0
  9  7  2  0
  9  8  1  0
M  END
>  <NAME>  (538) 
1,2,3-TRIMETHYLBENZENE

>  <SYNONYMS>  (538) 


>  <SPECTRUM TYPE>  (538) 
MS1

>  <INSTRUMENT TYPE>  (538) 
EI-B

>  <INSTRUMENT>  (538) 
HITACHI M-2500

>  <ION MODE>  (538) 
P

>  <INCHIKEY>  (538) 
FYGHSUNMUKGBRK-UHFFFAOYSA-N

>  <FORMULA>  (538) 
C9H12

>  <EXACT MASS>  (538) 
120.093900384

>  <MW>  (538) 
120

>  <ID>  (538) 
JP011317

>  <CONTRIBUTOR>  (538) 
University of Tokyo Team, {Faculty of Engineering, University of Tokyo

>  <COMMENT>  (538) 
SMILES=Cc(c1)c(C)c(C)cc1
cas=526-73-8
InChI=InChI=1S/C9H12/c1-7-5-4-6-8(2)9(7)3/h4-6H,1-3H3
computed SMILES=C=1C=C(C(=C(C1)C)C)C
accession=JP011317
date=2016.01.19 (Created 2008.10.21, modified 2011.05.06)
author=YAMAMOTO M, DEP. CHEMISTRY, FAC. SCIENCE, NARA WOMEN'S UNIV.
license=CC BY-NC-SA
exact mass=120.0939
ionization energy=70 eV
ion type=[M]+*
computed spectral entropy=2.2476948348764885
computed normalized entropy=0.6819800027303706
SPLASH=splash10-0ab9-2900000000-4249969893bf07e58bb1
submitter=submitter = University of Tokyo Team (Faculty of Engineering, University of Tokyo)
MoNA Rating=3.75

>  <NUM PEAKS>  (538) 
27

>  <MASS SPECTRAL PEAKS>  (538) 
27 2.93
39 5.53
41 3.11
50 1.58
51 4.75
52 1.52
53 2.13
58 2.22
59 2.76
63 2.5
65 3.54
77 9.29
78 3.11
79 6.14
91 8.23
92 1.53
102 1.03
103 5.3
104 2.63
105 99.99
106 9.1
115 3.31
117 3.36
118 1.24
119 17.94
120 72.16
121 7.01

>  <PREDICTED SPECTRUM>  (538) 
14 38
15 133
16 10
17 2
18 52
26 72
27 258
28 193
29 72
32 37
37 51
38 118
39 331
40 95
41 281
42 69
44 16
49 2
50 195
51 334
52 182
53 262
54 85
55 3
58 112
59 16
60 5
61 93
62 124
63 207
64 140
65 310
66 112
67 60
74 100
75 115
76 85
77 517
78 332
79 450
80 203
89 48
91 479
92 180
93 268
94 80
102 100
103 362
104 365
105 999
106 318
115 147
116 27
117 156
119 246
120 912
121 227

$$$$

     RDKit          2D

  6  5  0  0  0  0  0  0  0  0999 V2000
   -0.0000   -0.0000    0.0000 C   0  0  0  0  0  0  0  0  0  0  0  0
    1.2990    2.2500    0.0000 C   0  0  0  0  0  0  0  0  0  0  0  0
   -1.2990    3.7500    0.0000 C   0  0  0  0  0  0  0  0  0  0  0  0
   -2.5981    1.5000    0.0000 C   0  0  0  0  0  0  0  0  0  0  0  0
   -0.0000    1.5000    0.0000 C   0  0  0  0  0  0  0  0  0  0  0  0
   -1.2990    2.2500    0.0000 N   0  0  0  0  0  0  0  0  0  0  0  0
  5  1  1  0
  5  2  1  0
  6  3  1  0
  6  4  1  0
  6  5  1  0
M  END
>  <NAME>  (539) 
N,N-DIMETHYLISOPROPYLAMINE

>  <SYNONYMS>  (539) 


>  <SPECTRUM TYPE>  (539) 
MS1

>  <INSTRUMENT TYPE>  (539) 
EI-B

>  <INSTRUMENT>  (539) 
HITACHI M-2500

>  <ION MODE>  (539) 
P

>  <INCHIKEY>  (539) 
VMOWKUTXPNPTEN-UHFFFAOYSA-N

>  <FORMULA>  (539) 
C5H13N

>  <EXACT MASS>  (539) 
87.10479941599999

>  <MW>  (539) 
87

>  <ID>  (539) 
JP011316

>  <CONTRIBUTOR>  (539) 
University of Tokyo Team, {Faculty of Engineering, University of Tokyo

>  <COMMENT>  (539) 
SMILES=CC(C)N(C)C
cas=996-35-0
InChI=InChI=1S/C5H13N/c1-5(2)6(3)4/h5H,1-4H3
computed SMILES=N(C)(C)C(C)C
accession=JP011316
date=2016.01.19 (Created 2008.10.21, modified 2011.05.06)
author=YAMAMOTO M, DEP. CHEMISTRY, FAC. SCIENCE, NARA WOMEN'S UNIV.
license=CC BY-NC-SA
exact mass=87.1048
ionization energy=70 eV
ion type=[M]+*
computed spectral entropy=2.0578749734061184
computed normalized entropy=0.6869355421286548
SPLASH=splash10-00di-9000000000-7567b1be5990df584093
submitter=submitter = University of Tokyo Team (Faculty of Engineering, University of Tokyo)
MoNA Rating=3.75

>  <NUM PEAKS>  (539) 
20

>  <MASS SPECTRAL PEAKS>  (539) 
15 3.48
18 1.07
27 2.85
28 2.65
29 1.39
30 1.8
39 2.39
41 3.82
42 11.95
43 5.22
44 23.03
56 9.12
57 3.38
70 5.09
71 3.74
72 99.99
73 5.03
86 6.12
87 23.21
88 1.44

>  <PREDICTED SPECTRUM>  (539) 
15 32
27 107
28 110
29 68
30 335
31 23
32 10
38 0
39 169
40 96
41 254
42 516
43 217
44 605
45 238
54 15
55 188
56 328
57 97
58 38
70 154
71 66
72 999
73 251
74 17
86 211
87 409
88 102

$$$$

     RDKit          2D

 18 18  0  0  0  0  0  0  0  0999 V2000
   -9.1077    4.1129    0.0000 C   0  0  0  0  0  0  0  0  0  0  0  0
   -7.8074    3.3651    0.0000 C   0  0  0  0  0  0  0  0  0  0  0  0
   -6.5096    4.1173    0.0000 C   0  0  0  0  0  0  0  0  0  0  0  0
   -5.2093    3.3695    0.0000 C   0  0  0  0  0  0  0  0  0  0  0  0
   -3.9115    4.1216    0.0000 C   0  0  0  0  0  0  0  0  0  0  0  0
   -2.6112    3.3738    0.0000 C   0  0  0  0  0  0  0  0  0  0  0  0
    5.1830    1.8825    0.0000 C   0  0  0  0  0  0  0  0  0  0  0  0
    3.8885    1.1403    0.0000 C   0  0  0  0  0  0  0  0  0  0  0  0
   -1.3135    4.1260    0.0000 C   0  0  0  0  0  0  0  0  0  0  0  0
    5.1835    3.3833    0.0000 C   0  0  0  0  0  0  0  0  0  0  0  0
    2.5894    1.8903    0.0000 C   0  0  0  0  0  0  0  0  0  0  0  0
   -0.0132    3.3782    0.0000 C   0  0  0  0  0  0  0  0  0  0  0  0
    3.8844    4.1333    0.0000 C   0  0  0  0  0  0  0  0  0  0  0  0
    2.5849    3.3825    0.0000 C   0  0  0  0  0  0  0  0  0  0  0  0
    3.8842    5.6333    0.0000 N   0  0  0  0  0  0  0  0  0  0  0  0
    5.1831    6.3836    0.0000 O   0  0  0  0  0  0  0  0  0  0  0  0
    2.5850    6.3831    0.0000 O   0  0  0  0  0  0  0  0  0  0  0  0
    1.2846    4.1303    0.0000 O   0  0  0  0  0  0  0  0  0  0  0  0
  2  1  1  0
  3  2  1  0
  4  3  1  0
  5  4  1  0
  6  5  1  0
  8  7  2  0
  9  6  1  0
 10  7  1  0
 11  8  1  0
 12  9  1  0
 13 10  2  0
 14 11  2  0
 14 13  1  0
 15 13  1  0
 16 15  1  0
 17 15  2  0
 18 12  1  0
 18 14  1  0
M  CHG  2  15   1  16  -1
M  END
>  <NAME>  (540) 
2-NITROPHENYL OCTYL ETHER

>  <SYNONYMS>  (540) 


>  <SPECTRUM TYPE>  (540) 
MS1

>  <INSTRUMENT TYPE>  (540) 
EI-B

>  <INSTRUMENT>  (540) 
HITACHI M-2500

>  <ION MODE>  (540) 
P

>  <INCHIKEY>  (540) 
CXVOIIMJZFREMM-UHFFFAOYSA-N

>  <FORMULA>  (540) 
C14H21NO3

>  <EXACT MASS>  (540) 
251.152143532

>  <MW>  (540) 
251

>  <ID>  (540) 
JP011315

>  <CONTRIBUTOR>  (540) 
University of Tokyo Team, {Faculty of Engineering, University of Tokyo

>  <COMMENT>  (540) 
SMILES=CCCCCCCCOc(c1)c(ccc1)[N+1]([O-1])=O
InChI=InChI=1S/C14H21NO3/c1-2-3-4-5-6-9-12-18-14-11-8-7-10-13(14)15(16)17/h7-8,10-11H,2-6,9,12H2,1H3
computed SMILES=O=N(=O)C=1C=CC=CC1OCCCCCCCC
accession=JP011315
date=2016.01.19 (Created 2008.10.21, modified 2011.05.06)
author=YAMAMOTO M, DEP. CHEMISTRY, FAC. SCIENCE, NARA WOMEN'S UNIV.
license=CC BY-NC-SA
exact mass=251.15214
ionization energy=70 eV
ion type=[M]+*
computed spectral entropy=3.341028349802653
computed normalized entropy=0.8263630927421064
SPLASH=splash10-0abc-9300000000-af963402f653863b03e6
submitter=submitter = University of Tokyo Team (Faculty of Engineering, University of Tokyo)
MoNA Rating=3.75

>  <NUM PEAKS>  (540) 
57

>  <MASS SPECTRAL PEAKS>  (540) 
14 1.28
15 1.34
18 40.41
26 1.18
27 11.77
28 58.54
29 7.61
30 1.55
32 2.72
36 1.14
38 1.15
39 8.37
41 32.61
42 12.01
43 52.92
44 4.63
51 1.13
52 1.58
53 4.3
55 15.36
56 1.98
57 32.87
58 13.64
63 2.47
64 3.55
65 3.43
67 1.34
69 5.81
70 18.64
71 20.97
77 2.02
78 3.77
79 6.83
80 16.12
81 3.81
82 4.85
83 14.91
84 7.62
91 2.12
92 1.75
94 3.41
106 2.18
108 8.4
109 99.99
110 8.17
111 5.12
112 19.88
113 2.11
120 1.64
122 2.92
123 5.93
132 2.8
138 6.17
139 10.74
221 33.95
222 5.49
251 4.05

>  <PREDICTED SPECTRUM>  (540) 
26 73
27 256
28 96
29 436
30 122
31 8
34 10
37 30
38 113
39 366
40 147
41 844
42 366
43 996
44 182
45 33
46 39
50 231
51 241
52 172
53 288
54 269
55 795
56 536
57 999
58 169
62 63
63 255
64 239
65 348
66 138
67 253
68 187
69 655
70 554
71 690
72 182
75 205
76 237
77 195
78 241
79 153
80 120
81 284
82 220
83 536
84 338
85 395
86 102
90 5
91 92
92 231
93 257
94 264
95 212
96 108
97 301
98 380
99 20
104 22
105 30
106 223
107 143
108 106
109 440
110 106
111 295
112 325
113 252
120 71
121 144
122 395
123 613
124 133
135 33
139 549
140 514
141 15
221 97
251 370
252 127
253 31

$$$$

     RDKit          2D

 10 10  0  0  0  0  0  0  0  0999 V2000
    3.5637    0.9495    0.0000 C   0  0  0  0  0  0  0  0  0  0  0  0
   -0.3238    1.6700    0.0000 C   0  0  0  0  0  0  0  0  0  0  0  0
    0.9712   -0.5730    0.0000 C   0  0  0  0  0  0  0  0  0  0  0  0
   -1.6229    0.9200    0.0000 C   0  0  0  0  0  0  0  0  0  0  0  0
   -0.3279   -1.3230    0.0000 C   0  0  0  0  0  0  0  0  0  0  0  0
    2.2610    1.6930    0.0000 C   0  0  0  0  0  0  0  0  0  0  0  0
    0.9657    0.9365    0.0000 C   0  0  0  0  0  0  0  0  0  0  0  0
   -1.6410   -0.5685    0.0000 C   0  0  0  0  0  0  0  0  0  0  0  0
   -2.9438   -1.3119    0.0000 Cl  0  0  0  0  0  0  0  0  0  0  0  0
    2.2534    3.1930    0.0000 O   0  0  0  0  0  0  0  0  0  0  0  0
  4  2  2  0
  5  3  1  0
  6  1  1  0
  7  2  1  0
  7  3  2  0
  7  6  1  0
  8  4  1  0
  8  5  2  0
  9  8  1  0
 10  6  1  0
M  END
>  <NAME>  (541) 
4-CHLOROPHENYLMETHYLCARBINOL

>  <SYNONYMS>  (541) 
4-CHLORO-ALPHA-ETHYL ALCOHOL

>  <SPECTRUM TYPE>  (541) 
MS1

>  <INSTRUMENT TYPE>  (541) 
EI-B

>  <INSTRUMENT>  (541) 
HITACHI M-2500

>  <ION MODE>  (541) 
P

>  <INCHIKEY>  (541) 
MVOSNPUNXINWAD-UHFFFAOYSA-N

>  <FORMULA>  (541) 
C8H9ClO

>  <EXACT MASS>  (541) 
156.034192588

>  <MW>  (541) 
156

>  <ID>  (541) 
JP011314

>  <CONTRIBUTOR>  (541) 
University of Tokyo Team, {Faculty of Engineering, University of Tokyo

>  <COMMENT>  (541) 
SMILES=CC(O)c(c1)ccc(Cl)c1
InChI=InChI=1S/C8H9ClO/c1-6(10)7-2-4-8(9)5-3-7/h2-6,10H,1H3
computed SMILES=ClC1=CC=C(C=C1)C(O)C
accession=JP011314
date=2016.01.19 (Created 2008.10.21, modified 2011.05.06)
author=YAMAMOTO M, DEP. CHEMISTRY, FAC. SCIENCE, NARA WOMEN'S UNIV.
license=CC BY-NC-SA
exact mass=156.03419
ionization energy=70 eV
ion type=[M]+*
computed spectral entropy=3.2303679659289637
computed normalized entropy=0.7955703250947115
SPLASH=splash10-004l-9700000000-cbf22a5516f35c6f483e
submitter=submitter = University of Tokyo Team (Faculty of Engineering, University of Tokyo)
MoNA Rating=3.75

>  <NUM PEAKS>  (541) 
58

>  <MASS SPECTRAL PEAKS>  (541) 
15 3.54
26 1.04
27 4.84
29 6.13
37 1.53
38 3.07
39 6.13
43 39.61
44 1.38
45 5.39
49 1.65
50 18.13
51 23.75
52 3.86
53 1.18
61 2.2
62 3.79
63 6.87
65 3.09
70 1.06
73 3.82
74 11.38
75 23.1
76 6.55
77 99.99
78 13.18
79 1.52
84 1.16
85 3.12
86 1.47
87 1.7
89 3.17
91 5.55
99 1.17
101 2.54
102 3.7
103 8.3
104 1.49
105 4.92
106 3.01
111 10.85
112 11.12
113 34.97
114 5.36
115 9.89
121 11.87
122 1.05
125 1.09
138 1.94
139 9.61
140 1.9
141 87.06
142 7.1
144 2.12
155 1.57
156 28.74
157 3.15
158 8.95

>  <PREDICTED SPECTRUM>  (541) 
14 40
15 125
16 17
17 32
18 36
19 2
25 10
26 72
27 164
28 126
29 172
31 116
32 3
36 14
37 52
38 87
39 158
40 40
41 99
42 103
43 609
44 123
45 219
47 23
49 84
50 345
51 444
52 143
53 119
54 18
58 14
59 41
60 62
61 119
62 153
63 188
64 67
65 126
66 24
68 34
70 24
73 130
74 253
75 461
76 232
77 625
78 312
79 207
80 18
81 11
85 104
86 91
87 89
89 224
90 34
91 226
92 70
93 27
99 108
100 0
101 136
102 277
103 252
104 113
105 276
106 164
107 19
110 5
111 290
112 184
113 383
114 139
115 222
116 46
121 296
123 61
124 1
125 322
126 102
127 200
138 9
139 404
140 22
141 999
142 289
143 677
144 158
154 39
155 109
156 383
157 145
158 242
159 14

$$$$

     RDKit          2D

  9  8  0  0  0  0  0  0  0  0999 V2000
    2.5981    4.5000    0.0000 C   0  0  0  0  0  0  0  0  0  0  0  0
   -7.7942    4.5000    0.0000 C   0  0  0  0  0  0  0  0  0  0  0  0
    1.2990    5.2500    0.0000 C   0  0  0  0  0  0  0  0  0  0  0  0
   -6.4952    5.2500    0.0000 C   0  0  0  0  0  0  0  0  0  0  0  0
    0.0000    4.5000    0.0000 C   0  0  0  0  0  0  0  0  0  0  0  0
   -5.1962    4.5000    0.0000 C   0  0  0  0  0  0  0  0  0  0  0  0
   -1.2990    5.2500    0.0000 C   0  0  0  0  0  0  0  0  0  0  0  0
   -3.8971    5.2500    0.0000 C   0  0  0  0  0  0  0  0  0  0  0  0
   -2.5981    4.5000    0.0000 N   0  0  0  0  0  0  0  0  0  0  0  0
  3  1  1  0
  4  2  1  0
  5  3  1  0
  6  4  1  0
  7  5  1  0
  8  6  1  0
  9  7  1  0
  9  8  1  0
M  END
>  <NAME>  (542) 
DIBUTYLAMINE

>  <SYNONYMS>  (542) 


>  <SPECTRUM TYPE>  (542) 
MS1

>  <INSTRUMENT TYPE>  (542) 
EI-B

>  <INSTRUMENT>  (542) 
HITACHI M-2500

>  <ION MODE>  (542) 
P

>  <INCHIKEY>  (542) 
JQVDAXLFBXTEQA-UHFFFAOYSA-N

>  <FORMULA>  (542) 
C8H19N

>  <EXACT MASS>  (542) 
129.151749608

>  <MW>  (542) 
129

>  <ID>  (542) 
JP011312

>  <CONTRIBUTOR>  (542) 
University of Tokyo Team, {Faculty of Engineering, University of Tokyo

>  <COMMENT>  (542) 
SMILES=CCCCNCCCC
cas=111-92-2
InChI=InChI=1S/C8H19N/c1-3-5-7-9-8-6-4-2/h9H,3-8H2,1-2H3
computed SMILES=N(CCCC)CCCC
accession=JP011312
date=2016.01.19 (Created 2008.10.21, modified 2011.05.06)
author=YAMAMOTO M, DEP. CHEMISTRY, FAC. SCIENCE, NARA WOMEN'S UNIV.
license=CC BY-NC-SA
exact mass=129.15175
ionization energy=70 eV
ion type=[M]+*
computed spectral entropy=2.5066483146356737
computed normalized entropy=0.7369899577573713
SPLASH=splash10-002o-9000000000-cea1fed937c50a7590a3
submitter=submitter = University of Tokyo Team (Faculty of Engineering, University of Tokyo)
MoNA Rating=3.75

>  <NUM PEAKS>  (542) 
30

>  <MASS SPECTRAL PEAKS>  (542) 
15 1.65
26 1.12
27 14.84
28 10.97
29 24.44
30 36.41
39 9.1
40 1.15
41 24.03
42 8.74
43 9.5
44 99.99
45 2.77
53 1.46
54 1.36
55 4.29
56 8.31
57 19.11
58 1.72
68 1.4
70 2.64
72 2.77
84 2.76
86 90.09
87 5.55
100 1.23
114 1.19
128 1.79
129 13.91
130 1.87

>  <PREDICTED SPECTRUM>  (542) 
14 12
15 38
18 17
25 11
26 80
27 248
28 233
29 411
30 615
31 65
37 0
38 54
39 293
40 118
41 479
42 315
43 271
44 552
45 53
46 53
47 14
49 10
51 17
52 41
53 50
54 70
55 198
56 284
57 486
58 145
59 23
68 31
69 54
70 191
71 38
72 238
73 29
74 128
78 1
82 3
83 60
84 252
86 999
87 317
98 9
100 616
101 77
112 132
114 80
115 5
128 176
129 294
130 94

$$$$

     RDKit          2D

  8  7  0  0  0  0  0  0  0  0999 V2000
    1.6238    3.1875    0.0000 C   0  0  0  0  0  0  0  0  0  0  0  0
   -4.8714    3.9375    0.0000 C   0  0  0  0  0  0  0  0  0  0  0  0
    0.3248    3.9375    0.0000 C   0  0  0  0  0  0  0  0  0  0  0  0
   -3.5724    3.1875    0.0000 C   0  0  0  0  0  0  0  0  0  0  0  0
   -2.2733    3.9375    0.0000 C   0  0  0  0  0  0  0  0  0  0  0  0
   -3.5724    1.6875    0.0000 Br  0  0  0  0  0  0  0  0  0  0  0  0
   -2.2733    5.4375    0.0000 O   0  0  0  0  0  0  0  0  0  0  0  0
   -0.9743    3.1875    0.0000 O   0  0  0  0  0  0  0  0  0  0  0  0
  3  1  1  0
  4  2  1  0
  5  4  1  0
  6  4  1  0
  7  5  2  0
  8  3  1  0
  8  5  1  0
M  END
>  <NAME>  (543) 
ETHYL 2-BROMOPROPIONATE

>  <SYNONYMS>  (543) 


>  <SPECTRUM TYPE>  (543) 
MS1

>  <INSTRUMENT TYPE>  (543) 
EI-B

>  <INSTRUMENT>  (543) 
HITACHI M-2500

>  <ION MODE>  (543) 
P

>  <INCHIKEY>  (543) 
ARFLASKVLJTEJD-UHFFFAOYSA-N

>  <FORMULA>  (543) 
C5H9BrO2

>  <EXACT MASS>  (543) 
179.978591628

>  <MW>  (543) 
180

>  <ID>  (543) 
JP011311

>  <CONTRIBUTOR>  (543) 
University of Tokyo Team, {Faculty of Engineering, University of Tokyo

>  <COMMENT>  (543) 
SMILES=CCOC(=O)C(C)Br
cas=535-11-5
InChI=InChI=1S/C5H9BrO2/c1-3-8-5(7)4(2)6/h4H,3H2,1-2H3
computed SMILES=O=C(OCC)C(Br)C
accession=JP011311
date=2016.01.19 (Created 2008.10.21, modified 2011.05.06)
author=YAMAMOTO M, DEP. CHEMISTRY, FAC. SCIENCE, NARA WOMEN'S UNIV.
license=CC BY-NC-SA
exact mass=179.97859
ionization energy=70 eV
ion type=[M]+*
computed spectral entropy=2.9613534418227587
computed normalized entropy=0.8083263577538725
SPLASH=splash10-056r-9500000000-843d57926d0c18b539cc
submitter=submitter = University of Tokyo Team (Faculty of Engineering, University of Tokyo)
MoNA Rating=3.75

>  <NUM PEAKS>  (543) 
39

>  <MASS SPECTRAL PEAKS>  (543) 
14 1.28
15 5.13
25 1.26
26 18.37
27 73.38
28 34.25
29 99.99
30 2.68
31 4.16
41 11.46
42 2.4
43 14.44
44 1.12
45 16.52
53 1.45
55 13.61
56 15.04
57 41.33
58 2.36
73 5.43
74 2.22
79 2.13
80 1.04
81 2.18
101 5.48
106 9.17
107 60.74
108 24.73
109 59.08
110 15.26
135 12.69
136 1
137 12.34
152 4.81
154 4.82
180 15.31
181 1.11
182 15.09
183 1.03

>  <PREDICTED SPECTRUM>  (543) 
14 88
15 277
16 40
17 14
18 45
19 30
25 52
26 303
27 798
28 520
29 999
30 212
31 283
32 17
36 46
38 99
39 365
40 139
41 413
42 301
43 520
44 217
45 450
46 212
53 129
54 69
55 189
56 190
57 178
58 46
59 80
63 118
64 28
65 106
71 86
72 113
73 468
74 169
75 92
76 44
78 13
79 61
80 59
81 207
82 84
93 85
94 33
101 251
107 560
108 389
109 626
110 257
111 61
121 58
122 161
123 114
124 299
125 100
135 336
136 13
137 225
151 96
152 226
153 194
154 178
180 12
181 23
182 4

$$$$

     RDKit          2D

 10  9  0  0  0  0  0  0  0  0999 V2000
    2.5981    4.5000    0.0000 C   0  0  0  0  0  0  0  0  0  0  0  0
   -7.7942    4.5000    0.0000 C   0  0  0  0  0  0  0  0  0  0  0  0
    1.2990    5.2500    0.0000 C   0  0  0  0  0  0  0  0  0  0  0  0
   -6.4952    5.2500    0.0000 C   0  0  0  0  0  0  0  0  0  0  0  0
   -1.2990    5.2500    0.0000 C   0  0  0  0  0  0  0  0  0  0  0  0
   -3.8971    5.2500    0.0000 C   0  0  0  0  0  0  0  0  0  0  0  0
   -2.5981    4.5000    0.0000 C   0  0  0  0  0  0  0  0  0  0  0  0
   -2.5981    3.0000    0.0000 O   0  0  0  0  0  0  0  0  0  0  0  0
    0.0000    4.5000    0.0000 O   0  0  0  0  0  0  0  0  0  0  0  0
   -5.1962    4.5000    0.0000 O   0  0  0  0  0  0  0  0  0  0  0  0
  3  1  1  0
  4  2  1  0
  7  5  1  0
  7  6  1  0
  8  7  1  0
  9  3  1  0
  9  5  1  0
 10  4  1  0
 10  6  1  0
M  END
>  <NAME>  (544) 
DIETHYLIN

>  <SYNONYMS>  (544) 
GLYCEROL ALPHA,ALPHA-DIETHYL ESTER

>  <SPECTRUM TYPE>  (544) 
MS1

>  <INSTRUMENT TYPE>  (544) 
EI-B

>  <INSTRUMENT>  (544) 
HITACHI M-2500

>  <ION MODE>  (544) 
P

>  <INCHIKEY>  (544) 
WIHIUTUAHOZVLE-UHFFFAOYSA-N

>  <FORMULA>  (544) 
C7H16O3

>  <EXACT MASS>  (544) 
148.10994437199997

>  <MW>  (544) 
148

>  <ID>  (544) 
JP011310

>  <CONTRIBUTOR>  (544) 
University of Tokyo Team, {Faculty of Engineering, University of Tokyo

>  <COMMENT>  (544) 
SMILES=CCOCC(O)COCC
InChI=InChI=1S/C7H16O3/c1-3-9-5-7(8)6-10-4-2/h7-8H,3-6H2,1-2H3
computed SMILES=OC(COCC)COCC
accession=JP011310
date=2016.01.19 (Created 2008.10.21, modified 2011.05.06)
author=YAMAMOTO M, DEP. CHEMISTRY, FAC. SCIENCE, NARA WOMEN'S UNIV.
license=CC BY-NC-SA
exact mass=148.10994
ionization energy=70 eV
ion type=[M]+*
computed spectral entropy=2.951318108037907
computed normalized entropy=0.7896144949786612
SPLASH=splash10-08j3-9000000000-bed6a6ca4d0d104ef7b3
submitter=submitter = University of Tokyo Team (Faculty of Engineering, University of Tokyo)
MoNA Rating=3.75

>  <NUM PEAKS>  (544) 
42

>  <MASS SPECTRAL PEAKS>  (544) 
15 7.66
18 1.68
19 3.99
26 3.31
27 27.12
28 6.23
29 48.17
30 1.68
31 67.29
32 1.13
33 1.37
39 2.35
41 5.72
42 5.06
43 46.37
44 23.11
45 28.03
47 3.55
55 1.67
56 1.4
57 21.07
58 14.84
59 92.86
60 9.38
61 99.99
62 2.56
72 1.76
73 6.57
74 1.63
75 6.01
85 10.66
86 45.1
87 5.03
88 5.48
89 33.38
90 2.12
101 3.71
102 5.31
103 4.08
105 1.45
129 2.01
130 3.21

>  <PREDICTED SPECTRUM>  (544) 
14 30
15 147
16 13
17 28
18 58
19 77
25 24
26 125
27 298
28 275
29 464
31 677
32 62
33 125
35 19
40 31
41 235
42 214
43 459
44 303
45 372
46 82
47 156
53 15
54 44
55 34
56 67
57 277
58 267
59 999
60 298
61 369
62 24
68 15
71 137
72 84
73 191
74 39
75 23
89 603
90 148
91 23
101 62
102 171
103 189
118 1
130 39
131 43

$$$$

     RDKit          2D

  9  8  0  0  0  0  0  0  0  0999 V2000
    1.9486    2.6250    0.0000 C   0  0  0  0  0  0  0  0  0  0  0  0
   -4.5466    3.3750    0.0000 C   0  0  0  0  0  0  0  0  0  0  0  0
   -3.2476    1.1250    0.0000 C   0  0  0  0  0  0  0  0  0  0  0  0
   -0.6495    2.6250    0.0000 C   0  0  0  0  0  0  0  0  0  0  0  0
    0.6495    3.3750    0.0000 C   0  0  0  0  0  0  0  0  0  0  0  0
   -1.9486    3.3750    0.0000 C   0  0  0  0  0  0  0  0  0  0  0  0
   -3.2476    2.6250    0.0000 N   0  0  0  0  0  0  0  0  0  0  0  0
    0.6495    4.8750    0.0000 O   0  0  0  0  0  0  0  0  0  0  0  0
   -1.9486    4.8750    0.0000 O   0  0  0  0  0  0  0  0  0  0  0  0
  5  1  1  0
  5  4  1  0
  6  4  1  0
  7  2  1  0
  7  3  1  0
  7  6  1  0
  8  5  2  0
  9  6  2  0
M  END
>  <NAME>  (545) 
N,N-DIMETHYLACETOACETAMIDE

>  <SYNONYMS>  (545) 


>  <SPECTRUM TYPE>  (545) 
MS1

>  <INSTRUMENT TYPE>  (545) 
EI-B

>  <INSTRUMENT>  (545) 
HITACHI M-2500

>  <ION MODE>  (545) 
P

>  <INCHIKEY>  (545) 
YPEWWOUWRRQBAX-UHFFFAOYSA-N

>  <FORMULA>  (545) 
C6H11NO2

>  <EXACT MASS>  (545) 
129.078978592

>  <MW>  (545) 
129

>  <ID>  (545) 
JP011309

>  <CONTRIBUTOR>  (545) 
University of Tokyo Team, {Faculty of Engineering, University of Tokyo

>  <COMMENT>  (545) 
SMILES=CC(=O)CC(=O)N(C)C
InChI=InChI=1S/C6H11NO2/c1-5(8)4-6(9)7(2)3/h4H2,1-3H3
computed SMILES=O=C(N(C)C)CC(=O)C
accession=JP011309
date=2016.01.19 (Created 2008.10.21, modified 2011.05.06)
author=YAMAMOTO M, DEP. CHEMISTRY, FAC. SCIENCE, NARA WOMEN'S UNIV.
license=CC BY-NC-SA
exact mass=129.07898
ionization energy=70 eV
ion type=[M]+*
computed spectral entropy=2.7788041480111327
computed normalized entropy=0.7880090899989872
SPLASH=splash10-0006-9100000000-69468d943f9c9f10bf3b
submitter=submitter = University of Tokyo Team (Faculty of Engineering, University of Tokyo)
MoNA Rating=3.75

>  <NUM PEAKS>  (545) 
34

>  <MASS SPECTRAL PEAKS>  (545) 
14 1.74
15 15.33
18 3.81
26 1.7
27 6.14
28 8.05
29 2.7
30 7.6
31 2.25
38 1.31
39 4.31
40 2.37
41 5.32
42 35.1
43 67.41
44 99.99
45 57.91
46 10.59
55 3.61
56 3.89
57 1.64
58 10.39
69 7.67
70 1.03
72 50.82
73 2.13
85 20.56
86 10.09
87 10.11
101 5.91
112 4.78
114 7.38
129 63.93
130 6.35

>  <PREDICTED SPECTRUM>  (545) 
14 47
15 180
16 5
17 0
18 10
25 14
26 64
27 244
28 174
29 176
30 279
31 35
38 36
39 134
40 128
41 256
42 594
43 822
44 816
45 515
46 350
50 30
51 65
52 4
53 85
54 106
55 149
56 154
57 209
58 271
59 182
66 41
67 31
68 34
69 175
70 65
71 186
72 999
73 121
74 78
84 234
85 176
86 343
87 387
88 22
101 149
102 65
112 146
114 209
115 39
129 482
130 102
131 1

$$$$

     RDKit          2D

 14 14  0  0  0  0  0  0  0  0999 V2000
    4.9068    1.6700    0.0000 C   0  0  0  0  0  0  0  0  0  0  0  0
   -0.2904    0.1688    0.0000 C   0  0  0  0  0  0  0  0  0  0  0  0
   -1.5889    2.4196    0.0000 C   0  0  0  0  0  0  0  0  0  0  0  0
    1.0087   -0.5812    0.0000 C   0  0  0  0  0  0  0  0  0  0  0  0
   -2.8880    1.6696    0.0000 C   0  0  0  0  0  0  0  0  0  0  0  0
    1.0096    2.4204    0.0000 C   0  0  0  0  0  0  0  0  0  0  0  0
   -0.2899    1.6696    0.0000 C   0  0  0  0  0  0  0  0  0  0  0  0
    2.3082    0.1696    0.0000 C   0  0  0  0  0  0  0  0  0  0  0  0
    2.3087    1.6704    0.0000 C   0  0  0  0  0  0  0  0  0  0  0  0
   -4.1870    2.4196    0.0000 C   0  0  0  0  0  0  0  0  0  0  0  0
    3.6072   -0.5804    0.0000 O   0  0  0  0  0  0  0  0  0  0  0  0
   -4.1870    3.9196    0.0000 O   0  0  0  0  0  0  0  0  0  0  0  0
   -5.4860    1.6696    0.0000 O   0  0  0  0  0  0  0  0  0  0  0  0
    3.6078    2.4202    0.0000 O   0  0  0  0  0  0  0  0  0  0  0  0
  4  2  2  0
  3  5  2  0
  7  2  1  0
  7  3  1  0
  7  6  2  0
  8  4  1  0
  9  6  1  0
  9  8  2  0
 10  5  1  0
 11  8  1  0
 12 10  2  0
 13 10  1  0
 14  1  1  0
 14  9  1  0
M  END
>  <NAME>  (546) 
3-HYDROXY-4-METHOXYCINNAMIC ACID

>  <SYNONYMS>  (546) 
FERULIC ACID

>  <SPECTRUM TYPE>  (546) 
MS1

>  <INSTRUMENT TYPE>  (546) 
EI-B

>  <INSTRUMENT>  (546) 
HITACHI M-2500

>  <ION MODE>  (546) 
P

>  <INCHIKEY>  (546) 
KSEBMYQBYZTDHS-HWKANZROSA-N

>  <FORMULA>  (546) 
C10H10O4

>  <EXACT MASS>  (546) 
194.0579088

>  <MW>  (546) 
194

>  <ID>  (546) 
JP011308

>  <CONTRIBUTOR>  (546) 
University of Tokyo Team, {Faculty of Engineering, University of Tokyo

>  <COMMENT>  (546) 
SMILES=COc(c1)c(O)ccc(C=CC(O)=O)1
cas=537-73-5
InChI=InChI=1S/C10H10O4/c1-14-9-6-7(2-4-8(9)11)3-5-10(12)13/h2-6,11H,1H3,(H,12,13)/b5-3+
computed SMILES=O=C(O)C=CC1=CC=C(O)C(OC)=C1
accession=JP011308
date=2016.01.19 (Created 2008.10.21, modified 2011.05.06)
author=YAMAMOTO M, DEP. CHEMISTRY, FAC. SCIENCE, NARA WOMEN'S UNIV.
license=CC BY-NC-SA
exact mass=194.05791
ionization energy=70 eV
ion type=[M]+*
computed spectral entropy=2.8166376220236833
computed normalized entropy=0.7488667274765032
SPLASH=splash10-0006-2900000000-a338415bd30d4e62e664
submitter=submitter = University of Tokyo Team (Faculty of Engineering, University of Tokyo)
MoNA Rating=3.75

>  <NUM PEAKS>  (546) 
43

>  <MASS SPECTRAL PEAKS>  (546) 
15 1.63
39 2.52
41 1.07
45 2.02
50 2.11
51 5.71
52 2.52
53 1.68
55 2.65
62 1.19
63 2.97
65 1.69
67 2.8
69 2.03
77 7.57
78 4.06
79 2.17
81 1.08
89 4.99
91 1.67
95 4.52
105 6.61
106 1.77
107 4.72
109 1.44
117 2.15
123 4.39
133 13.59
134 5.09
145 1.02
147 2.61
148 2.73
149 2.95
151 5.08
161 2.65
177 17.67
178 2.12
179 20.38
180 3.16
193 2.81
194 99.99
195 22.11
196 2.66

>  <PREDICTED SPECTRUM>  (546) 
15 67
17 12
18 11
26 47
27 72
28 16
29 83
30 11
31 31
33 4
34 4
36 13
37 72
38 126
39 234
40 72
41 136
42 74
43 131
44 116
45 168
46 2
47 5
49 101
50 278
51 389
52 233
53 293
54 78
55 203
56 35
57 89
58 53
59 93
60 28
61 124
62 231
63 380
64 196
65 314
66 152
67 143
68 55
69 193
70 70
71 83
72 14
73 25
74 141
75 205
76 224
77 441
78 240
79 291
80 134
81 145
82 52
83 16
84 45
85 52
86 81
87 69
88 78
89 356
90 204
91 333
92 182
93 153
94 82
95 168
96 74
97 40
98 28
101 13
102 123
103 214
104 166
105 338
106 224
107 265
108 186
109 154
110 9
111 5
115 5
116 55
117 211
118 315
119 300
120 162
121 168
122 143
123 280
124 124
125 65
131 187
132 154
133 298
134 256
135 255
136 166
137 140
138 49
139 10
145 91
146 20
147 203
148 205
149 244
150 192
151 403
152 198
153 65
161 129
162 145
163 212
164 85
165 84
166 133
167 45
176 81
177 336
178 166
179 290
180 120
181 35
193 220
194 999
195 350
196 139
197 17

$$$$

     RDKit          2D

 14 14  0  0  0  0  0  0  0  0999 V2000
    1.3000   -0.7500    0.0000 C   0  0  0  0  0  0  0  0  0  0  0  0
    0.0000    1.5000    0.0000 C   0  0  0  0  0  0  0  0  0  0  0  0
   -0.0000   -1.5000    0.0000 C   0  0  0  0  0  0  0  0  0  0  0  0
   -1.3000    0.7500    0.0000 C   0  0  0  0  0  0  0  0  0  0  0  0
    3.8981    0.7504    0.0000 C   0  0  0  0  0  0  0  0  0  0  0  0
    5.1970    1.5006    0.0000 C   0  0  0  0  0  0  0  0  0  0  0  0
    1.3000    0.7500    0.0000 C   0  0  0  0  0  0  0  0  0  0  0  0
   -1.3000   -0.7500    0.0000 C   0  0  0  0  0  0  0  0  0  0  0  0
    2.5989    1.5002    0.0000 C   0  0  0  0  0  0  0  0  0  0  0  0
    6.4962    0.7508    0.0000 C   0  0  0  0  0  0  0  0  0  0  0  0
   -2.5989   -1.5002    0.0000 F   0  0  0  0  0  0  0  0  0  0  0  0
    2.5987    3.0002    0.0000 O   0  0  0  0  0  0  0  0  0  0  0  0
    6.4964   -0.7492    0.0000 O   0  0  0  0  0  0  0  0  0  0  0  0
    7.7951    1.5010    0.0000 O   0  0  0  0  0  0  0  0  0  0  0  0
  3  1  2  0
  4  2  1  0
  6  5  1  0
  7  1  1  0
  7  2  2  0
  8  3  1  0
  8  4  2  0
  9  5  1  0
  9  7  1  0
 10  6  1  0
 11  8  1  0
 12  9  2  0
 13 10  2  0
 14 10  1  0
M  END
>  <NAME>  (547) 
3-(4-FLUOROBENZOYL)PROPIONIC ACID

>  <SYNONYMS>  (547) 


>  <SPECTRUM TYPE>  (547) 
MS1

>  <INSTRUMENT TYPE>  (547) 
EI-B

>  <INSTRUMENT>  (547) 
HITACHI M-2500

>  <ION MODE>  (547) 
P

>  <INCHIKEY>  (547) 
WUYWHIAAQYQKPP-UHFFFAOYSA-N

>  <FORMULA>  (547) 
C10H9FO3

>  <EXACT MASS>  (547) 
196.05357236799998

>  <MW>  (547) 
196

>  <ID>  (547) 
JP011306

>  <CONTRIBUTOR>  (547) 
University of Tokyo Team, {Faculty of Engineering, University of Tokyo

>  <COMMENT>  (547) 
SMILES=OC(=O)CCC(=O)c(c1)ccc(F)c1
cas=366-77-8
InChI=InChI=1S/C10H9FO3/c11-8-3-1-7(2-4-8)9(12)5-6-10(13)14/h1-4H,5-6H2,(H,13,14)
computed SMILES=O=C(O)CCC(=O)C1=CC=C(F)C=C1
accession=JP011306
date=2016.01.19 (Created 2008.10.21, modified 2011.05.06)
author=YAMAMOTO M, DEP. CHEMISTRY, FAC. SCIENCE, NARA WOMEN'S UNIV.
license=CC BY-NC-SA
exact mass=196.05357
ionization energy=70 eV
ion type=[M]+*
computed spectral entropy=2.046283842695211
computed normalized entropy=0.6438795413579183
SPLASH=splash10-00di-8900000000-4bf6f4fc7af5412f349a
submitter=submitter = University of Tokyo Team (Faculty of Engineering, University of Tokyo)
MoNA Rating=3.75

>  <NUM PEAKS>  (547) 
24

>  <MASS SPECTRAL PEAKS>  (547) 
27 4.15
28 1.96
29 1.16
45 5.88
50 3.91
51 2.69
55 3.44
57 1.15
63 1.18
68 1.83
69 3.59
73 1.32
74 3.53
75 20.51
76 2.11
94 4.07
95 46.22
96 4.02
101 1.1
123 99.99
124 7.81
151 1.08
179 1.3
196 6.4

>  <PREDICTED SPECTRUM>  (547) 
26 6
27 83
28 25
29 43
31 7
33 6
37 28
38 53
39 126
40 53
41 78
42 105
43 37
44 81
45 187
49 28
50 169
51 162
52 93
53 97
54 35
55 165
56 116
57 84
61 28
62 49
63 95
64 16
65 45
66 0
67 19
68 124
69 145
70 66
73 143
74 142
75 360
76 117
77 38
78 49
79 34
81 10
93 59
94 129
95 632
96 202
97 42
101 58
122 75
123 999
124 265
125 77
135 19
140 7
149 9
150 39
151 77
152 3
177 26
178 110
179 59
196 183
197 40

$$$$

     RDKit          2D

 14 15  0  0  0  0  0  0  0  0999 V2000
   -3.0200   -1.1200    0.0000 C   0  0  0  0  0  0  0  0  0  0  0  0
   -3.0200    0.3600    0.0000 C   0  0  0  0  0  0  0  0  0  0  0  0
   -1.7200   -1.8800    0.0000 C   0  0  0  0  0  0  0  0  0  0  0  0
   -1.7500    1.1100    0.0000 C   0  0  0  0  0  0  0  0  0  0  0  0
    0.8800   -1.8800    0.0000 C   0  0  0  0  0  0  0  0  0  0  0  0
    2.1700   -1.1200    0.0000 C   0  0  0  0  0  0  0  0  0  0  0  0
   -0.4200   -1.1200    0.0000 C   0  0  0  0  0  0  0  0  0  0  0  0
   -0.4200    0.3600    0.0000 C   0  0  0  0  0  0  0  0  0  0  0  0
    2.1500    0.3800    0.0000 C   0  0  0  0  0  0  0  0  0  0  0  0
    0.8500    1.1400    0.0000 C   0  0  0  0  0  0  0  0  0  0  0  0
    3.4461    1.1351    0.0000 C   0  0  0  0  0  0  0  0  0  0  0  0
    0.8337    2.6399    0.0000 O   0  0  0  0  0  0  0  0  0  0  0  0
    3.4401    2.6351    0.0000 O   0  0  0  0  0  0  0  0  0  0  0  0
    4.7481    0.3903    0.0000 O   0  0  0  0  0  0  0  0  0  0  0  0
  2  1  2  0
  3  1  1  0
  4  2  1  0
  6  5  2  0
  7  3  2  0
  7  5  1  0
  8  4  2  0
  8  7  1  0
  9  6  1  0
 10  8  1  0
 10  9  2  0
 11  9  1  0
 12 10  1  0
 13 11  2  0
 14 11  1  0
M  END
>  <NAME>  (548) 
1-HYDROXY-2-NAPHTHOIC ACID

>  <SYNONYMS>  (548) 


>  <SPECTRUM TYPE>  (548) 
MS1

>  <INSTRUMENT TYPE>  (548) 
EI-B

>  <INSTRUMENT>  (548) 
HITACHI M-2500

>  <ION MODE>  (548) 
P

>  <INCHIKEY>  (548) 
SJJCQDRGABAVBB-UHFFFAOYSA-N

>  <FORMULA>  (548) 
C11H8O3

>  <EXACT MASS>  (548) 
188.04734411599998

>  <MW>  (548) 
188

>  <ID>  (548) 
JP011304

>  <CONTRIBUTOR>  (548) 
University of Tokyo Team, {Faculty of Engineering, University of Tokyo

>  <COMMENT>  (548) 
SMILES=OC(=O)c(c1)c(O)c(c2)c(ccc2)c1
cas=86-48-6
InChI=InChI=1S/C11H8O3/c12-10-8-4-2-1-3-7(8)5-6-9(10)11(13)14/h1-6,12H,(H,13,14)
computed SMILES=O=C(O)C=1C=CC=2C=CC=CC2C1O
accession=JP011304
date=2016.01.19 (Created 2008.10.21, modified 2011.05.06)
author=YAMAMOTO M, DEP. CHEMISTRY, FAC. SCIENCE, NARA WOMEN'S UNIV.
license=CC BY-NC-SA
exact mass=188.04734
ionization energy=70 eV
ion type=[M]+*
computed spectral entropy=3.170317832982812
computed normalized entropy=0.7712028969345077
SPLASH=splash10-03ki-4900000000-3ff6ac6d10c5e52710d3
submitter=submitter = University of Tokyo Team (Faculty of Engineering, University of Tokyo)
MoNA Rating=3.75

>  <NUM PEAKS>  (548) 
61

>  <MASS SPECTRAL PEAKS>  (548) 
16 1.16
17 3.83
18 8.52
27 3.01
28 1.96
29 1.57
37 1.15
38 2.91
39 7.24
41 2.03
43 1.5
44 1.01
45 4.35
50 6.22
51 6.58
52 1.01
53 3.97
55 1.47
57 2.7
61 3.53
62 10.24
63 18.54
64 3.31
65 4.61
69 1.39
71 2.94
73 1.32
74 7.43
75 6.44
76 3.57
77 5.81
78 1.03
85 4.17
86 7.8
87 14.64
88 16.68
89 10.99
90 1.52
98 1.51
99 1.19
101 1.16
102 2.58
103 3.52
105 1.08
110 1.17
113 27.93
114 99.99
115 39.78
116 7.37
131 2.69
142 8.26
143 4.25
144 8.47
145 1.15
158 1.04
169 1.01
170 94.02
171 12.34
172 1.04
188 47.83
189 6.13

>  <PREDICTED SPECTRUM>  (548) 
26 7
28 11
29 75
36 10
37 40
38 84
39 165
40 16
41 5
43 77
44 41
45 45
49 46
50 138
51 172
52 109
53 109
55 39
57 112
58 47
61 26
62 132
63 244
64 91
65 120
66 17
69 34
71 44
73 90
74 177
75 228
76 183
77 140
78 85
85 143
86 234
87 145
88 164
89 168
90 18
91 7
97 36
99 24
103 69
105 78
111 10
112 44
113 391
114 725
115 438
116 175
117 0
141 91
142 196
143 284
144 172
169 124
170 999
171 298
172 113
188 645
189 228
190 70

$$$$

     RDKit          2D

 13 13  0  0  0  0  0  0  0  0999 V2000
    3.2823   -3.0174    0.0000 C   0  0  0  0  0  0  0  0  0  0  0  0
    4.5818    0.7330    0.0000 C   0  0  0  0  0  0  0  0  0  0  0  0
   -0.6153   -0.7683    0.0000 C   0  0  0  0  0  0  0  0  0  0  0  0
    0.6838   -1.5183    0.0000 C   0  0  0  0  0  0  0  0  0  0  0  0
   -1.9138    1.4826    0.0000 C   0  0  0  0  0  0  0  0  0  0  0  0
   -3.2129    0.7326    0.0000 C   0  0  0  0  0  0  0  0  0  0  0  0
    0.6847    1.4834    0.0000 C   0  0  0  0  0  0  0  0  0  0  0  0
   -0.6148    0.7326    0.0000 C   0  0  0  0  0  0  0  0  0  0  0  0
    1.9833   -0.7674    0.0000 C   0  0  0  0  0  0  0  0  0  0  0  0
    1.9838    0.7334    0.0000 C   0  0  0  0  0  0  0  0  0  0  0  0
   -4.5119    1.4826    0.0000 N   0  0  0  0  0  0  0  0  0  0  0  0
    3.2823   -1.5174    0.0000 O   0  0  0  0  0  0  0  0  0  0  0  0
    3.2829    1.4832    0.0000 O   0  0  0  0  0  0  0  0  0  0  0  0
  4  3  2  0
  6  5  1  0
  8  3  1  0
  8  5  1  0
  8  7  2  0
  9  4  1  0
 10  7  1  0
 10  9  2  0
 11  6  1  0
 12  1  1  0
 12  9  1  0
 13  2  1  0
 13 10  1  0
M  END
>  <NAME>  (549) 
2-(3,4-DIMETHOXYPHENYL)ETHYLAMINE

>  <SYNONYMS>  (549) 
HOMOVERATRYLAMINE

>  <SPECTRUM TYPE>  (549) 
MS1

>  <INSTRUMENT TYPE>  (549) 
EI-B

>  <INSTRUMENT>  (549) 
HITACHI M-2500

>  <ION MODE>  (549) 
P

>  <INCHIKEY>  (549) 
ANOUKFYBOAKOIR-UHFFFAOYSA-N

>  <FORMULA>  (549) 
C10H15NO2

>  <EXACT MASS>  (549) 
181.11027872

>  <MW>  (549) 
181

>  <ID>  (549) 
JP011303

>  <CONTRIBUTOR>  (549) 
University of Tokyo Team, {Faculty of Engineering, University of Tokyo

>  <COMMENT>  (549) 
SMILES=NCCc(c1)cc(OC)c(OC)c1
cas=120-20-7
InChI=InChI=1S/C10H15NO2/c1-12-9-4-3-8(5-6-11)7-10(9)13-2/h3-4,7H,5-6,11H2,1-2H3
computed SMILES=O(C1=CC=C(C=C1OC)CCN)C
accession=JP011303
date=2016.01.19 (Created 2008.10.21, modified 2011.05.06)
author=YAMAMOTO M, DEP. CHEMISTRY, FAC. SCIENCE, NARA WOMEN'S UNIV.
license=CC BY-NC-SA
exact mass=181.11028
ionization energy=70 eV
ion type=[M]+*
computed spectral entropy=3.367512760871137
computed normalized entropy=0.8097156600398485
SPLASH=splash10-0ue9-8900000000-7b3bb96b7d3241d758d7
submitter=submitter = University of Tokyo Team (Faculty of Engineering, University of Tokyo)
MoNA Rating=3.75

>  <NUM PEAKS>  (549) 
64

>  <MASS SPECTRAL PEAKS>  (549) 
15 4.45
17 1.76
18 4.28
27 2.79
28 9.43
29 2.05
30 68.53
31 1.58
38 1.99
39 12.23
40 1.61
41 3.17
42 1.88
43 2.98
44 1.15
50 4.55
51 12.4
52 4.93
53 3.05
55 1.43
62 2.25
63 6.61
64 3.59
65 19.29
66 5.18
67 2.76
74 1.13
75 1.11
76 1.45
77 13.33
78 16.32
79 8.09
80 3.84
81 2.88
89 6.3
90 7.82
91 11.4
92 2.83
93 3.27
94 5.67
95 1.99
104 1.21
105 10.24
106 14.9
107 21.64
108 8.42
109 10.1
118 2.41
119 1.36
120 1.07
121 6.28
122 3.48
123 1.33
134 1.35
136 2.44
137 23.17
138 2.45
149 1.43
151 54.6
152 99.99
153 10.12
164 2.83
181 19.62
182 2.45

>  <PREDICTED SPECTRUM>  (549) 
15 23
26 12
27 46
29 89
30 377
31 71
36 28
37 60
38 120
39 254
40 139
41 206
42 139
43 165
44 103
45 90
50 240
51 381
52 304
53 291
54 116
55 73
61 82
62 165
63 244
64 214
65 371
66 214
67 161
68 20
74 102
75 204
76 172
77 422
78 399
79 285
80 195
81 122
89 220
90 242
91 376
92 263
93 168
94 136
95 132
102 38
103 107
104 134
105 287
106 302
107 255
108 247
109 386
110 32
118 98
119 111
120 157
121 539
122 262
123 148
124 11
133 67
134 76
135 75
136 148
137 346
138 70
139 15
149 76
150 79
151 999
152 868
153 248
154 54
164 42
165 126
181 336
182 112

$$$$

     RDKit          2D

  7  6  0  0  0  0  0  0  0  0999 V2000
    1.6238    3.1875    0.0000 C   0  0  0  0  0  0  0  0  0  0  0  0
   -4.8714    3.9375    0.0000 C   0  0  0  0  0  0  0  0  0  0  0  0
   -3.5724    1.6875    0.0000 C   0  0  0  0  0  0  0  0  0  0  0  0
    0.3248    3.9375    0.0000 C   0  0  0  0  0  0  0  0  0  0  0  0
   -2.2733    3.9375    0.0000 C   0  0  0  0  0  0  0  0  0  0  0  0
   -3.5724    3.1875    0.0000 C   0  0  0  0  0  0  0  0  0  0  0  0
   -0.9743    3.1875    0.0000 O   0  0  0  0  0  0  0  0  0  0  0  0
  4  1  2  0
  6  2  1  0
  6  3  1  0
  6  5  1  0
  7  4  1  0
  7  5  1  0
M  END
>  <NAME>  (550) 
ISOBUTYL VINYL ETHER

>  <SYNONYMS>  (550) 


>  <SPECTRUM TYPE>  (550) 
MS1

>  <INSTRUMENT TYPE>  (550) 
EI-B

>  <INSTRUMENT>  (550) 
HITACHI M-2500

>  <ION MODE>  (550) 
P

>  <INCHIKEY>  (550) 
OZCMOJQQLBXBKI-UHFFFAOYSA-N

>  <FORMULA>  (550) 
C6H12O

>  <EXACT MASS>  (550) 
100.088815004

>  <MW>  (550) 
100

>  <ID>  (550) 
JP011301

>  <CONTRIBUTOR>  (550) 
University of Tokyo Team, {Faculty of Engineering, University of Tokyo

>  <COMMENT>  (550) 
cas=109-53-5
SMILES=C=COCC(C)C
InChI=InChI=1S/C6H12O/c1-4-7-5-6(2)3/h4,6H,1,5H2,2-3H3
computed SMILES=O(C=C)CC(C)C
accession=JP011301
date=2016.01.19 (Created 2008.10.21, modified 2011.05.06)
author=YAMAMOTO M, DEP. CHEMISTRY, FAC. SCIENCE, NARA WOMEN'S UNIV.
license=CC BY-NC-SA
exact mass=100.08882
ionization energy=70 eV
ion type=[M]+*
computed spectral entropy=2.569152774047475
computed normalized entropy=0.7795145447117224
SPLASH=splash10-0a6u-9000000000-25e7de3edb227c6e46d2
submitter=submitter = University of Tokyo Team (Faculty of Engineering, University of Tokyo)
MoNA Rating=3.75

>  <NUM PEAKS>  (550) 
27

>  <MASS SPECTRAL PEAKS>  (550) 
14 1.76
15 8.94
26 5.56
27 37.21
28 6.74
29 53.3
30 1.24
31 12.29
37 1.12
38 3.26
39 35.68
40 5.13
41 99.99
42 8.56
43 10.44
44 15.8
45 6.17
50 1.16
51 1.33
53 2.65
55 10.83
56 48.34
57 73.89
58 3.97
59 1.83
100 13.98
101 1.66

>  <PREDICTED SPECTRUM>  (550) 
14 32
15 77
19 33
25 12
26 133
27 481
28 204
29 545
30 55
31 110
38 56
39 449
40 111
41 742
42 208
43 704
44 129
45 444
53 86
54 61
55 410
56 506
57 999
58 367
59 64
71 76
72 118
73 55
85 305
86 13
100 136
101 31

$$$$

     RDKit          2D

 10 10  0  0  0  0  0  0  0  0999 V2000
   -0.0330    1.6954    0.0000 C   0  0  0  0  0  0  0  0  0  0  0  0
    1.2275   -0.5786    0.0000 C   0  0  0  0  0  0  0  0  0  0  0  0
   -1.3440    0.9459    0.0000 C   0  0  0  0  0  0  0  0  0  0  0  0
   -0.0621   -1.3049    0.0000 C   0  0  0  0  0  0  0  0  0  0  0  0
    1.2396    0.9259    0.0000 C   0  0  0  0  0  0  0  0  0  0  0  0
   -1.3609   -0.5499    0.0000 C   0  0  0  0  0  0  0  0  0  0  0  0
    2.5491    1.6575    0.0000 N   0  0  0  0  0  0  0  0  0  0  0  0
   -2.6653   -1.2906    0.0000 N   0  0  0  0  0  0  0  0  0  0  0  0
   -3.9590   -0.5314    0.0000 O   0  0  0  0  0  0  0  0  0  0  0  0
   -2.6760   -2.7906    0.0000 O   0  0  0  0  0  0  0  0  0  0  0  0
  3  1  2  0
  4  2  1  0
  5  1  1  0
  5  2  2  0
  6  3  1  0
  6  4  2  0
  7  5  1  0
  8  6  1  0
  9  8  1  0
 10  8  2  0
M  CHG  2   8   1   9  -1
M  END
>  <NAME>  (551) 
4-NITROANILINE

>  <SYNONYMS>  (551) 


>  <SPECTRUM TYPE>  (551) 
MS1

>  <INSTRUMENT TYPE>  (551) 
EI-B

>  <INSTRUMENT>  (551) 
HITACHI M-2500

>  <ION MODE>  (551) 
P

>  <INCHIKEY>  (551) 
TYMLOMAKGOJONV-UHFFFAOYSA-N

>  <FORMULA>  (551) 
C6H6N2O2

>  <EXACT MASS>  (551) 
138.042927432

>  <MW>  (551) 
138

>  <ID>  (551) 
JP011300

>  <CONTRIBUTOR>  (551) 
University of Tokyo Team, {Faculty of Engineering, University of Tokyo

>  <COMMENT>  (551) 
SMILES=Nc(c1)ccc(c1)[N+1]([O-1])=O
cas=100-01-6
InChI=InChI=1S/C6H6N2O2/c7-5-1-3-6(4-2-5)8(9)10/h1-4H,7H2
computed SMILES=O=N(=O)C1=CC=C(N)C=C1
accession=JP011300
date=2016.01.19 (Created 2008.10.21, modified 2011.05.06)
author=YAMAMOTO M, DEP. CHEMISTRY, FAC. SCIENCE, NARA WOMEN'S UNIV.
license=CC BY-NC-SA
exact mass=138.04293
ionization energy=70 eV
ion type=[M]+*
computed spectral entropy=2.7532475404151624
computed normalized entropy=0.7683083549158933
SPLASH=splash10-0ap0-9600000000-4508cf17b2ad0f7ca670
submitter=submitter = University of Tokyo Team (Faculty of Engineering, University of Tokyo)
MoNA Rating=3.75

>  <NUM PEAKS>  (551) 
36

>  <MASS SPECTRAL PEAKS>  (551) 
26 1.24
27 1.73
28 6.02
30 8.55
37 3.12
38 7.24
39 23.44
40 2.88
41 8.04
42 2.61
46 2.18
50 4.61
51 4.7
52 13.26
53 9.06
54 4.19
61 3.85
62 7.62
63 16.18
64 10.65
65 77.12
66 10.76
74 2.64
75 1.74
79 2.13
80 31.18
81 2.12
90 2.03
91 6.18
93 3.21
105 1.01
108 99.99
109 7.21
122 5.98
138 74.19
139 6.09

>  <PREDICTED SPECTRUM>  (551) 
15 5
16 15
25 0
26 71
27 128
28 106
29 17
30 61
37 131
38 224
39 396
40 126
41 299
42 124
46 86
50 180
51 321
52 386
53 237
54 124
61 72
62 185
63 451
64 419
65 698
66 195
74 48
75 108
76 24
78 84
79 174
80 381
90 233
91 261
92 683
93 167
107 61
108 411
109 68
122 52
138 999
139 322
140 65

$$$$

     RDKit          2D

  8  7  0  0  0  0  0  0  0  0999 V2000
    1.6238    3.1875    0.0000 C   0  0  0  0  0  0  0  0  0  0  0  0
   -4.8714    3.9375    0.0000 C   0  0  0  0  0  0  0  0  0  0  0  0
    0.3248    3.9375    0.0000 C   0  0  0  0  0  0  0  0  0  0  0  0
   -3.5724    3.1875    0.0000 C   0  0  0  0  0  0  0  0  0  0  0  0
   -2.2733    3.9375    0.0000 C   0  0  0  0  0  0  0  0  0  0  0  0
   -3.5724    1.6875    0.0000 O   0  0  0  0  0  0  0  0  0  0  0  0
   -2.2733    5.4375    0.0000 O   0  0  0  0  0  0  0  0  0  0  0  0
   -0.9743    3.1875    0.0000 O   0  0  0  0  0  0  0  0  0  0  0  0
  3  1  1  0
  4  2  1  0
  5  4  1  0
  6  4  2  0
  7  5  2  0
  8  3  1  0
  8  5  1  0
M  END
>  <NAME>  (552) 
ETHYL PYRUVATE

>  <SYNONYMS>  (552) 


>  <SPECTRUM TYPE>  (552) 
MS1

>  <INSTRUMENT TYPE>  (552) 
EI-B

>  <INSTRUMENT>  (552) 
HITACHI M-2500

>  <ION MODE>  (552) 
P

>  <INCHIKEY>  (552) 
XXRCUYVCPSWGCC-UHFFFAOYSA-N

>  <FORMULA>  (552) 
C5H8O3

>  <EXACT MASS>  (552) 
116.04734411599999

>  <MW>  (552) 
116

>  <ID>  (552) 
JP011299

>  <CONTRIBUTOR>  (552) 
University of Tokyo Team, {Faculty of Engineering, University of Tokyo

>  <COMMENT>  (552) 
SMILES=CCOC(=O)C(C)=O
cas=617-35-6
InChI=InChI=1S/C5H8O3/c1-3-8-5(7)4(2)6/h3H2,1-2H3
computed SMILES=O=C(OCC)C(=O)C
accession=JP011299
date=2016.01.19 (Created 2008.10.21, modified 2011.05.06)
author=YAMAMOTO M, DEP. CHEMISTRY, FAC. SCIENCE, NARA WOMEN'S UNIV.
license=CC BY-NC-SA
exact mass=116.04734
ionization energy=70 eV
ion type=[M]+*
computed spectral entropy=1.908054665005549
computed normalized entropy=0.626717228739598
SPLASH=splash10-0006-9000000000-980c9b02bf8c3edc429d
submitter=submitter = University of Tokyo Team (Faculty of Engineering, University of Tokyo)
MoNA Rating=3.75

>  <NUM PEAKS>  (552) 
21

>  <MASS SPECTRAL PEAKS>  (552) 
14 2.37
15 8.62
26 3.61
27 14.56
28 2.26
29 18.32
30 1.24
31 4.56
39 2.07
40 1.1
41 1.23
42 6.73
43 99.99
44 3.4
45 3.96
61 4.01
68 2.17
73 1.73
89 2.39
116 1.64
117 1.37

>  <PREDICTED SPECTRUM>  (552) 
14 98
15 196
16 43
17 15
18 40
25 44
26 230
27 484
28 287
29 718
30 25
31 156
38 1
39 4
40 95
41 51
42 184
43 999
44 312
45 363
46 104
70 23
71 431
72 25
73 297
74 123
88 161
89 110
101 55
116 183
117 47

$$$$

     RDKit          2D

 10 10  0  0  0  0  0  0  0  0999 V2000
   -0.3325    2.8100    0.0000 C   0  0  0  0  0  0  0  0  0  0  0  0
   -1.6200   -0.9400    0.0000 C   0  0  0  0  0  0  0  0  0  0  0  0
   -1.6200    0.5600    0.0000 C   0  0  0  0  0  0  0  0  0  0  0  0
   -0.3300   -1.6900    0.0000 C   0  0  0  0  0  0  0  0  0  0  0  0
    0.9700    0.5600    0.0000 C   0  0  0  0  0  0  0  0  0  0  0  0
   -0.3300    1.3100    0.0000 C   0  0  0  0  0  0  0  0  0  0  0  0
    0.9700   -0.9400    0.0000 C   0  0  0  0  0  0  0  0  0  0  0  0
    2.2689   -1.6902    0.0000 C   0  0  0  0  0  0  0  0  0  0  0  0
    2.2687   -3.1902    0.0000 Cl  0  0  0  0  0  0  0  0  0  0  0  0
    3.5681   -0.9404    0.0000 O   0  0  0  0  0  0  0  0  0  0  0  0
  3  2  2  0
  4  2  1  0
  6  1  1  0
  6  3  1  0
  6  5  2  0
  7  4  2  0
  7  5  1  0
  8  7  1  0
  9  8  1  0
 10  8  2  0
M  END
>  <NAME>  (553) 
META-TOLUOYL CHLORIDE

>  <SYNONYMS>  (553) 
3-METHYLBENZOYL CHLORIDE

>  <SPECTRUM TYPE>  (553) 
MS1

>  <INSTRUMENT TYPE>  (553) 
EI-B

>  <INSTRUMENT>  (553) 
HITACHI M-2500

>  <ION MODE>  (553) 
P

>  <INCHIKEY>  (553) 
YHOYYHYBFSYOSQ-UHFFFAOYSA-N

>  <FORMULA>  (553) 
C8H7ClO

>  <EXACT MASS>  (553) 
154.018542524

>  <MW>  (553) 
154

>  <ID>  (553) 
JP011298

>  <CONTRIBUTOR>  (553) 
University of Tokyo Team, {Faculty of Engineering, University of Tokyo

>  <COMMENT>  (553) 
SMILES=Cc(c1)cc(cc1)C(=O)Cl
cas=1711-06-4
InChI=InChI=1S/C8H7ClO/c1-6-3-2-4-7(5-6)8(9)10/h2-5H,1H3
computed SMILES=O=C(Cl)C1=CC=CC(=C1)C
accession=JP011298
date=2016.01.19 (Created 2008.10.21, modified 2011.05.06)
author=YAMAMOTO M, DEP. CHEMISTRY, FAC. SCIENCE, NARA WOMEN'S UNIV.
license=CC BY-NC-SA
exact mass=154.01854
ionization energy=70 eV
ion type=[M]+*
computed spectral entropy=2.3463395083334957
computed normalized entropy=0.6968023086771442
SPLASH=splash10-014l-9600000000-f7adc66ca78671809104
submitter=submitter = University of Tokyo Team (Faculty of Engineering, University of Tokyo)
MoNA Rating=3.75

>  <NUM PEAKS>  (553) 
29

>  <MASS SPECTRAL PEAKS>  (553) 
27 1.41
37 1.42
38 2.98
39 10.18
41 1.57
46 1.07
50 6.79
51 5.81
52 1.56
61 2.55
62 6.19
63 13.87
64 3.39
65 18.96
66 1.09
74 2.54
75 1.86
76 1.43
85 1.01
86 1.59
87 1.28
89 10.68
90 5.33
91 64.21
92 5.26
119 99.99
120 8.94
154 7.18
156 2.2

>  <PREDICTED SPECTRUM>  (553) 
14 20
15 40
17 7
18 44
25 9
26 78
27 136
28 116
31 8
32 19
35 67
36 97
37 114
38 179
39 355
40 89
41 60
44 64
49 76
50 203
51 286
52 195
53 143
54 28
60 73
61 155
62 242
63 377
64 207
65 476
66 83
73 144
74 127
75 132
76 27
82 19
86 132
87 125
88 104
89 354
90 240
91 971
92 271
93 17
100 0
101 3
102 18
119 999
120 299
121 34
126 61
127 57
128 32
154 348
155 109
156 145
157 27

$$$$

     RDKit          2D

 15 16  0  0  0  0  0  0  0  0999 V2000
   -3.5763   -0.5718    0.0000 C   0  0  0  0  0  0  0  0  0  0  0  0
    5.5184   -2.8196    0.0000 C   0  0  0  0  0  0  0  0  0  0  0  0
    5.5192   -1.3188    0.0000 C   0  0  0  0  0  0  0  0  0  0  0  0
    4.2188   -3.5702    0.0000 C   0  0  0  0  0  0  0  0  0  0  0  0
   -0.9725   -3.5618    0.0000 C   0  0  0  0  0  0  0  0  0  0  0  0
   -2.2715   -2.8118    0.0000 C   0  0  0  0  0  0  0  0  0  0  0  0
    4.2202   -0.5685    0.0000 C   0  0  0  0  0  0  0  0  0  0  0  0
    2.9199   -2.8200    0.0000 C   0  0  0  0  0  0  0  0  0  0  0  0
    0.3220   -2.8196    0.0000 C   0  0  0  0  0  0  0  0  0  0  0  0
   -0.9765   -0.5688    0.0000 C   0  0  0  0  0  0  0  0  0  0  0  0
   -2.2760   -1.3196    0.0000 C   0  0  0  0  0  0  0  0  0  0  0  0
    2.9206   -1.3192    0.0000 C   0  0  0  0  0  0  0  0  0  0  0  0
    0.3225   -1.3188    0.0000 C   0  0  0  0  0  0  0  0  0  0  0  0
    1.6217   -0.5690    0.0000 C   0  0  0  0  0  0  0  0  0  0  0  0
    1.6219    0.9310    0.0000 O   0  0  0  0  0  0  0  0  0  0  0  0
  3  2  2  0
  4  2  1  0
  6  5  2  0
  7  3  1  0
  8  4  2  0
  9  5  1  0
 11  1  1  0
 11  6  1  0
 11 10  2  0
 12  7  2  0
 12  8  1  0
 13  9  2  0
 13 10  1  0
 14 12  1  0
 14 13  1  0
 15 14  2  0
M  END
>  <NAME>  (554) 
3-METHYLBENZOPHENONE

>  <SYNONYMS>  (554) 


>  <SPECTRUM TYPE>  (554) 
MS1

>  <INSTRUMENT TYPE>  (554) 
EI-B

>  <INSTRUMENT>  (554) 
HITACHI M-2500

>  <ION MODE>  (554) 
P

>  <INCHIKEY>  (554) 
URBLVRAVOIVZFJ-UHFFFAOYSA-N

>  <FORMULA>  (554) 
C14H12O

>  <EXACT MASS>  (554) 
196.088815004

>  <MW>  (554) 
196

>  <ID>  (554) 
JP011297

>  <CONTRIBUTOR>  (554) 
University of Tokyo Team, {Faculty of Engineering, University of Tokyo

>  <COMMENT>  (554) 
SMILES=Cc(c2)cc(cc2)C(=O)c(c1)cccc1
cas=643-65-2
InChI=InChI=1S/C14H12O/c1-11-6-5-9-13(10-11)14(15)12-7-3-2-4-8-12/h2-10H,1H3
computed SMILES=O=C(C=1C=CC=CC1)C2=CC=CC(=C2)C
accession=JP011297
date=2016.01.19 (Created 2008.10.21, modified 2011.05.06)
author=YAMAMOTO M, DEP. CHEMISTRY, FAC. SCIENCE, NARA WOMEN'S UNIV.
license=CC BY-NC-SA
exact mass=196.08882
ionization energy=70 eV
ion type=[M]+*
computed spectral entropy=3.134072254245282
computed normalized entropy=0.7751749969581475
SPLASH=splash10-016s-8900000000-bd57f16f02845a6b099c
submitter=submitter = University of Tokyo Team (Faculty of Engineering, University of Tokyo)
MoNA Rating=3.75

>  <NUM PEAKS>  (554) 
57

>  <MASS SPECTRAL PEAKS>  (554) 
14 1.94
16 1.06
18 2.27
27 2.84
28 13.95
32 3.33
38 2.29
39 15.69
40 1.18
41 3.75
50 12.83
51 37.23
52 3.71
61 1.07
62 5.26
63 15
64 4.52
65 36.82
66 2.06
74 5.37
75 5
76 5.63
77 71.97
78 5.73
86 1.94
87 2.36
89 13.13
90 6.28
91 56.06
92 4.73
98 1.01
102 1.07
105 63.68
106 5.09
115 3.42
119 99.99
120 9.02
126 1.24
128 1.27
139 2.94
141 1.11
151 1.88
152 7.54
153 2.67
163 1.46
164 1.45
165 9.92
166 2.47
167 4.5
168 4.72
181 18.92
182 3.48
194 1.17
195 5.16
196 88.04
197 13.37
198 1.27

>  <PREDICTED SPECTRUM>  (554) 
37 17
38 67
39 190
40 49
41 93
44 1
49 8
50 192
51 425
52 134
53 75
55 43
61 8
62 103
63 241
64 156
65 314
66 81
69 30
74 122
75 110
76 161
77 753
78 227
79 8
83 23
89 198
90 137
91 500
92 168
93 32
105 999
106 226
116 1
118 43
119 847
120 274
121 81
151 96
152 203
153 82
165 79
166 49
167 12
178 142
179 80
180 44
181 67
194 13
195 130
196 774
197 287
198 47

$$$$

     RDKit          2D

 13 12  0  0  1  0  0  0  0  0999 V2000
    2.5981    4.5000    0.0000 C   0  0  0  0  0  0  0  0  0  0  0  0
    0.0000    4.5000    0.0000 C   0  0  0  0  0  0  0  0  0  0  0  0
   -6.4952    5.2500    0.0000 C   0  0  0  0  0  0  0  0  0  0  0  0
   -1.2990    5.2500    0.0000 C   0  0  0  0  0  0  0  0  0  0  0  0
   -5.1962    4.5000    0.0000 C   0  0  0  0  0  0  0  0  0  0  0  0
   -2.5981    4.5000    0.0000 C   0  0  0  0  0  0  0  0  0  0  0  0
   -3.8971    5.2500    0.0000 C   0  0  0  0  0  0  0  0  0  0  0  0
    1.2990    5.2500    0.0000 N   0  0  0  0  0  0  0  0  0  0  0  0
   -7.7942    4.5000    0.0000 O   0  0  0  0  0  0  0  0  0  0  0  0
   -1.2990    6.7500    0.0000 O   0  0  0  0  0  0  0  0  0  0  0  0
   -5.1962    3.0000    0.0000 O   0  0  0  0  0  0  0  0  0  0  0  0
   -2.5981    3.0000    0.0000 O   0  0  0  0  0  0  0  0  0  0  0  0
   -3.8971    6.7500    0.0000 O   0  0  0  0  0  0  0  0  0  0  0  0
  4  2  1  0
  5  3  1  0
  6  4  1  0
  7  5  1  0
  7  6  1  0
  8  1  1  0
  8  2  1  0
  9  3  1  0
  4 10  1  1
  5 11  1  6
  6 12  1  1
  7 13  1  1
M  END
>  <NAME>  (555) 
N-METHYL-D-GLUCAMINE

>  <SYNONYMS>  (555) 


>  <SPECTRUM TYPE>  (555) 
MS1

>  <INSTRUMENT TYPE>  (555) 
EI-B

>  <INSTRUMENT>  (555) 
HITACHI M-2500

>  <ION MODE>  (555) 
P

>  <INCHIKEY>  (555) 
MBBZMMPHUWSWHV-BDVNFPICSA-N

>  <FORMULA>  (555) 
C7H17NO5

>  <EXACT MASS>  (555) 
195.11067264399998

>  <MW>  (555) 
195

>  <ID>  (555) 
JP011296

>  <CONTRIBUTOR>  (555) 
University of Tokyo Team, {Faculty of Engineering, University of Tokyo

>  <COMMENT>  (555) 
SMILES=CNCC([H])(O)C([H])(O)C([H])(O)C([H])(O)CO
cas=6284-40-8
InChI=InChI=1S/C7H17NO5/c1-8-2-4(10)6(12)7(13)5(11)3-9/h4-13H,2-3H2,1H3/t4-,5+,6+,7+/m0/s1
computed SMILES=OCC(O)C(O)C(O)C(O)CNC
accession=JP011296
date=2016.01.19 (Created 2008.10.21, modified 2011.05.06)
author=YAMAMOTO M, DEP. CHEMISTRY, FAC. SCIENCE, NARA WOMEN'S UNIV.
license=CC BY-NC-SA
exact mass=195.11067
ionization energy=70 eV
ion type=[M]+*
computed spectral entropy=2.5076344171935476
computed normalized entropy=0.7111111866437705
SPLASH=splash10-0006-9100000000-e892e9e9fcffcbf59eaa
submitter=submitter = University of Tokyo Team (Faculty of Engineering, University of Tokyo)
MoNA Rating=3.75

>  <NUM PEAKS>  (555) 
34

>  <MASS SPECTRAL PEAKS>  (555) 
15 3.45
18 1.08
19 1.81
27 2.1
28 4.53
29 2.92
30 7.05
31 5.8
32 5.51
41 1.29
42 4.41
43 6.83
44 99.99
45 6.69
55 1.01
56 3.49
57 2.27
58 1.84
60 2.27
61 3.61
66 1.02
73 3.63
74 19.09
75 3.49
86 2.13
87 1.28
88 1.2
104 5.75
105 1.31
116 4.48
134 4.82
164 2.63
196 13.79
197 1.08

>  <PREDICTED SPECTRUM>  (555) 
14 18
15 33
17 1
18 10
19 8
27 29
28 29
30 202
31 73
32 8
36 23
39 56
40 32
41 198
42 476
43 551
44 854
45 487
46 161
47 149
49 45
50 62
51 54
52 66
53 87
54 94
55 254
56 327
57 379
58 271
59 195
60 470
61 478
62 65
63 53
65 41
66 27
67 48
68 67
69 186
70 130
71 234
72 214
73 999
74 477
75 337
76 77
77 80
78 71
79 40
81 39
82 70
83 126
84 50
85 142
86 257
87 254
88 229
89 105
91 203
92 18
96 52
97 88
98 116
99 85
100 120
102 66
103 285
104 294
105 187
106 20
110 69
111 34
112 29
113 21
115 156
116 231
117 208
118 84
120 11
121 34
128 48
132 135
133 23
134 201
135 9
141 16
146 208
147 98
159 3
160 25
164 95
178 45
180 37
195 150
196 85

$$$$

     RDKit          2D

  9  9  0  0  0  0  0  0  0  0999 V2000
    2.2733   -0.6175    0.0000 C   0  0  0  0  0  0  0  0  0  0  0  0
    2.2738    0.8833    0.0000 C   0  0  0  0  0  0  0  0  0  0  0  0
    0.9738   -1.3683    0.0000 C   0  0  0  0  0  0  0  0  0  0  0  0
    0.9748    1.6333    0.0000 C   0  0  0  0  0  0  0  0  0  0  0  0
   -0.3252   -0.6183    0.0000 C   0  0  0  0  0  0  0  0  0  0  0  0
   -0.3248    0.8825    0.0000 C   0  0  0  0  0  0  0  0  0  0  0  0
   -1.6238    1.6325    0.0000 C   0  0  0  0  0  0  0  0  0  0  0  0
   -2.9228    0.8825    0.0000 N   0  0  0  0  0  0  0  0  0  0  0  0
   -1.6238    3.1325    0.0000 S   0  0  0  0  0  0  0  0  0  0  0  0
  2  1  2  0
  3  1  1  0
  4  2  1  0
  5  3  2  0
  6  4  2  0
  6  5  1  0
  7  6  1  0
  8  7  2  0
  9  7  1  0
M  END
>  <NAME>  (556) 
THIOBENZAMIDE

>  <SYNONYMS>  (556) 


>  <SPECTRUM TYPE>  (556) 
MS1

>  <INSTRUMENT TYPE>  (556) 
EI-B

>  <INSTRUMENT>  (556) 
HITACHI M-2500

>  <ION MODE>  (556) 
P

>  <INCHIKEY>  (556) 
QIOZLISABUUKJY-UHFFFAOYSA-N

>  <FORMULA>  (556) 
C7H7NS

>  <EXACT MASS>  (556) 
137.029920224

>  <MW>  (556) 
137

>  <ID>  (556) 
JP011295

>  <CONTRIBUTOR>  (556) 
University of Tokyo Team, {Faculty of Engineering, University of Tokyo

>  <COMMENT>  (556) 
SMILES=NC(=S)c(c1)cccc1
cas=2227-79-4
InChI=InChI=1S/C7H7NS/c8-7(9)6-4-2-1-3-5-6/h1-5H,(H2,8,9)
computed SMILES=N=C(S)C=1C=CC=CC1
accession=JP011295
date=2016.01.19 (Created 2008.10.21, modified 2011.05.06)
author=YAMAMOTO M, DEP. CHEMISTRY, FAC. SCIENCE, NARA WOMEN'S UNIV.
license=CC BY-NC-SA
exact mass=137.02992
ionization energy=70 eV
ion type=[M]+*
computed spectral entropy=3.010109471549841
computed normalized entropy=0.7618131621176049
SPLASH=splash10-0f9i-5900000000-b3b926ef69c0e81f5e20
submitter=submitter = University of Tokyo Team (Faculty of Engineering, University of Tokyo)
MoNA Rating=3.75

>  <NUM PEAKS>  (556) 
52

>  <MASS SPECTRAL PEAKS>  (556) 
18 1.6
27 2.15
28 1.76
32 1.29
37 1.82
38 2.84
39 6.1
44 3.46
45 1.7
49 1.6
50 16.13
51 30.82
52 7.55
60 12.57
61 1.17
62 1.7
63 3.21
64 5.13
65 3
66 1.3
68 1.59
69 3.06
73 1.56
74 7.11
75 6.08
76 12.84
77 78.44
78 18.25
79 1.74
91 2.61
93 1.12
96 1.2
102 1.64
103 20.72
104 54.87
105 59.42
106 4.18
108 2.51
109 4.62
110 2.29
119 1.62
120 1.19
121 60.16
122 7.31
123 1.48
128 2.85
134 1.09
135 65.54
136 17.18
137 99.99
138 10.08
139 4.15

>  <PREDICTED SPECTRUM>  (556) 
15 3
25 12
26 43
27 40
28 28
32 42
33 10
34 4
37 45
38 63
39 183
40 17
41 8
42 9
43 22
45 155
47 46
49 71
50 427
51 679
52 254
53 89
54 13
56 5
58 136
59 10
60 143
61 36
62 147
63 293
64 95
65 149
66 82
67 1
69 163
70 10
72 8
74 278
75 192
76 353
77 890
78 429
79 148
80 27
82 8
83 23
84 121
85 49
93 140
102 119
103 182
104 645
105 223
106 81
109 111
110 230
111 89
112 26
121 451
122 122
135 114
136 626
137 999
138 341
139 183

$$$$

     RDKit          2D

 15 16  0  0  1  0  0  0  0  0999 V2000
   -2.5200    0.5000    0.0000 C   0  0  0  0  0  0  0  0  0  0  0  0
   -2.5300   -1.0000    0.0000 C   0  0  0  0  0  0  0  0  0  0  0  0
   -1.2200    1.2400    0.0000 C   0  0  0  0  0  0  0  0  0  0  0  0
   -1.2300   -1.7600    0.0000 C   0  0  0  0  0  0  0  0  0  0  0  0
    1.9684    2.3650    0.0000 C   0  0  0  0  0  0  0  0  0  0  0  0
    2.3800   -0.2700    0.0000 C   0  0  0  0  0  0  0  0  0  0  0  0
    1.5000    0.9400    0.0000 C   0  0  0  0  0  0  0  0  0  0  0  0
    0.0800    0.4900    0.0000 C   0  0  0  0  0  0  0  0  0  0  0  0
    3.4366    2.6719    0.0000 C   0  0  0  0  0  0  0  0  0  0  0  0
    0.0700   -1.0100    0.0000 C   0  0  0  0  0  0  0  0  0  0  0  0
    3.9050    4.0969    0.0000 C   0  0  0  0  0  0  0  0  0  0  0  0
    4.4365    1.5538    0.0000 N   0  0  0  0  0  0  0  0  0  0  0  0
    1.5000   -1.4800    0.0000 N   0  0  0  0  0  0  0  0  0  0  0  0
    2.9051    5.2150    0.0000 O   0  0  0  0  0  0  0  0  0  0  0  0
    5.3733    4.4038    0.0000 O   0  0  0  0  0  0  0  0  0  0  0  0
  2  1  2  0
  3  1  1  0
  4  2  1  0
  7  5  1  0
  7  6  2  0
  8  3  2  0
  8  7  1  0
  9  5  1  0
 10  4  2  0
 10  8  1  0
 11  9  1  0
  9 12  1  1
 13  6  1  0
 13 10  1  0
 14 11  2  0
 15 11  1  0
M  END
>  <NAME>  (557) 
L-TRYPTOPHAN

>  <SYNONYMS>  (557) 


>  <SPECTRUM TYPE>  (557) 
MS1

>  <INSTRUMENT TYPE>  (557) 
EI-B

>  <INSTRUMENT>  (557) 
HITACHI M-2500

>  <ION MODE>  (557) 
P

>  <INCHIKEY>  (557) 
QIVBCDIJIAJPQS-VIFPVBQESA-N

>  <FORMULA>  (557) 
C11H12N2O2

>  <EXACT MASS>  (557) 
204.089877624

>  <MW>  (557) 
204

>  <ID>  (557) 
JP011293

>  <CONTRIBUTOR>  (557) 
University of Tokyo Team, {Faculty of Engineering, University of Tokyo

>  <COMMENT>  (557) 
SMILES=C1=CC=C2C(=C1)C(=CN2)C[C@@H](C(=O)O)N
cas=73-22-3
InChI=InChI=1S/C11H12N2O2/c12-9(11(14)15)5-7-6-13-10-4-2-1-3-8(7)10/h1-4,6,9,13H,5,12H2,(H,14,15)/t9-/m0/s1
computed SMILES=O=C(O)C(N)CC1=CNC=2C=CC=CC21
accession=JP011293
date=2016.01.19 (Created 2008.10.21, modified 2011.05.06)
author=YAMAMOTO M, DEP. CHEMISTRY, FAC. SCIENCE, NARA WOMEN'S UNIV.
license=CC BY-NC-SA
exact mass=204.08988
ionization energy=70 eV
ion type=[M]+*
computed spectral entropy=1.6671964834617523
computed normalized entropy=0.5476052542113692
SPLASH=splash10-001i-0900000000-d054a214c1717940989f
submitter=submitter = University of Tokyo Team (Faculty of Engineering, University of Tokyo)
MoNA Rating=3.75

>  <NUM PEAKS>  (557) 
21

>  <MASS SPECTRAL PEAKS>  (557) 
28 1.21
43 1.31
45 1.38
60 1.03
77 2.7
102 2.53
103 5.3
115 1.5
117 2.7
128 2.86
129 3.97
130 99.99
131 12.45
132 2.52
143 1.19
149 1
157 1.01
158 2.54
159 2.98
204 8.39
205 1.38

>  <PREDICTED SPECTRUM>  (557) 
16 3
17 7
18 1
19 0
26 27
27 54
28 89
29 24
30 37
31 13
33 20
37 3
38 28
39 117
40 39
41 213
42 94
43 105
44 202
45 101
46 106
47 18
48 0
49 3
50 122
51 174
52 161
53 61
54 53
55 20
56 126
57 117
58 14
61 26
62 94
63 194
64 123
65 140
66 44
70 32
71 55
72 80
73 28
74 143
75 160
76 155
77 274
78 130
79 74
80 13
81 1
82 6
84 13
85 11
86 37
87 54
88 41
89 126
90 115
91 80
100 4
101 114
102 168
103 238
104 159
105 145
113 19
114 53
115 209
116 74
117 302
118 118
119 20
127 24
128 254
129 314
130 999
131 468
132 208
133 1
142 71
143 24
157 99
158 146
159 145
160 107
187 154
204 311
205 106

$$$$

     RDKit          2D

 13 14  0  0  0  0  0  0  0  0999 V2000
   -0.3000   -3.0000    0.0000 C   0  0  0  0  0  0  0  0  0  0  0  0
   -2.8989    1.5002    0.0000 C   0  0  0  0  0  0  0  0  0  0  0  0
    3.3100    0.0000    0.0000 C   0  0  0  0  0  0  0  0  0  0  0  0
    1.0000    0.7500    0.0000 C   0  0  0  0  0  0  0  0  0  0  0  0
    1.0000   -0.7500    0.0000 C   0  0  0  0  0  0  0  0  0  0  0  0
   -0.3000    1.5000    0.0000 C   0  0  0  0  0  0  0  0  0  0  0  0
   -1.6000   -0.7500    0.0000 C   0  0  0  0  0  0  0  0  0  0  0  0
    2.4300    1.2100    0.0000 N   0  0  0  0  0  0  0  0  0  0  0  0
    2.4300   -1.2100    0.0000 N   0  0  0  0  0  0  0  0  0  0  0  0
   -0.3000   -1.5000    0.0000 N   0  0  0  0  0  0  0  0  0  0  0  0
   -1.6000    0.7500    0.0000 N   0  0  0  0  0  0  0  0  0  0  0  0
   -0.3000    3.0000    0.0000 O   0  0  0  0  0  0  0  0  0  0  0  0
   -2.8989   -1.5002    0.0000 O   0  0  0  0  0  0  0  0  0  0  0  0
  5  4  2  0
  6  4  1  0
  8  3  2  0
  8  4  1  0
  9  3  1  0
  9  5  1  0
 10  1  1  0
 10  5  1  0
 10  7  1  0
 11  2  1  0
 11  6  1  0
 11  7  1  0
 12  6  2  0
 13  7  2  0
M  END
>  <NAME>  (558) 
THEOPHYLLINE

>  <SYNONYMS>  (558) 
3,7-DIHYDRO-1,3-DIMETHYL-1H-PURINE-2,6-DIONE

>  <SPECTRUM TYPE>  (558) 
MS1

>  <INSTRUMENT TYPE>  (558) 
EI-B

>  <INSTRUMENT>  (558) 
HITACHI M-2500

>  <ION MODE>  (558) 
P

>  <INCHIKEY>  (558) 
ZFXYFBGIUFBOJW-UHFFFAOYSA-N

>  <FORMULA>  (558) 
C7H8N4O2

>  <EXACT MASS>  (558) 
180.064725496

>  <MW>  (558) 
180

>  <ID>  (558) 
JP011292

>  <CONTRIBUTOR>  (558) 
University of Tokyo Team, {Faculty of Engineering, University of Tokyo

>  <COMMENT>  (558) 
SMILES=CN1C2=C(C(=O)N(C1=O)C)NC=N2
cas=58-55-9
InChI=InChI=1S/C7H8N4O2/c1-10-5-4(8-3-9-5)6(12)11(2)7(10)13/h3H,1-2H3,(H,8,9)
computed SMILES=O=C1C=2N=CNC2N(C(=O)N1C)C
accession=JP011292
date=2016.01.19 (Created 2008.10.21, modified 2011.05.06)
author=YAMAMOTO M, DEP. CHEMISTRY, FAC. SCIENCE, NARA WOMEN'S UNIV.
license=CC BY-NC-SA
exact mass=180.06473
ionization energy=70 eV
ion type=[M]+*
computed spectral entropy=2.5078853346311027
computed normalized entropy=0.7303129526387118
SPLASH=splash10-001i-9700000000-8d0e1898a6571fbca10a
submitter=submitter = University of Tokyo Team (Faculty of Engineering, University of Tokyo)
MoNA Rating=3.75

>  <NUM PEAKS>  (558) 
31

>  <MASS SPECTRAL PEAKS>  (558) 
15 4.32
18 1.21
27 1.09
28 6.62
38 1.08
39 1.63
40 5.47
41 15.87
42 5.54
53 13.56
54 1.8
56 2.72
58 1.23
66 1.97
67 6.14
68 32.77
69 2.97
70 1.82
81 1.03
94 5.14
95 47.92
96 8.27
122 5.06
123 7.98
124 3.25
136 1.26
151 7.2
152 2.44
179 1
180 99.99
181 9.4

>  <PREDICTED SPECTRUM>  (558) 
38 55
39 128
40 171
41 269
42 327
43 115
44 72
45 10
50 27
51 101
52 245
53 403
54 187
55 191
56 306
57 280
58 135
65 65
66 260
67 579
68 483
69 242
70 88
79 3
80 208
81 180
82 61
93 93
94 316
95 793
96 318
97 111
108 138
110 2
122 161
123 377
124 125
136 34
137 73
149 24
150 15
151 301
152 153
153 114
165 58
179 76
180 999
181 302
182 56

$$$$

     RDKit          2D

 16 16  0  0  1  0  0  0  0  0999 V2000
   -2.9356    5.4356    0.0000 C   0  0  0  0  0  0  0  0  0  0  0  0
    6.1662    0.1908    0.0000 C   0  0  0  0  0  0  0  0  0  0  0  0
   -1.6353    4.6878    0.0000 C   0  0  0  0  0  0  0  0  0  0  0  0
    4.8670    0.9406    0.0000 C   0  0  0  0  0  0  0  0  0  0  0  0
   -1.6200   -1.3100    0.0000 C   0  0  0  0  0  0  0  0  0  0  0  0
   -0.3300   -2.0600    0.0000 C   0  0  0  0  0  0  0  0  0  0  0  0
   -1.6200    0.1900    0.0000 C   0  0  0  0  0  0  0  0  0  0  0  0
    0.9700   -1.3100    0.0000 C   0  0  0  0  0  0  0  0  0  0  0  0
   -0.3300    0.9400    0.0000 C   0  0  0  0  0  0  0  0  0  0  0  0
    0.9700    0.1900    0.0000 C   0  0  0  0  0  0  0  0  0  0  0  0
   -0.3325    2.4400    0.0000 C   0  0  0  0  0  0  0  0  0  0  0  0
    2.2689    0.9402    0.0000 C   0  0  0  0  0  0  0  0  0  0  0  0
    0.9653    3.1922    0.0000 O   0  0  0  0  0  0  0  0  0  0  0  0
    2.2687    2.4402    0.0000 O   0  0  0  0  0  0  0  0  0  0  0  0
   -1.6328    3.1878    0.0000 O   0  0  0  0  0  0  0  0  0  0  0  0
    3.5681    0.1904    0.0000 O   0  0  0  0  0  0  0  0  0  0  0  0
  3  1  1  0
  4  2  1  0
  6  5  1  0
  7  5  1  0
  8  6  1  0
  9  7  1  0
 10  8  1  0
 10  9  1  0
  9 11  1  1
 10 12  1  6
 13 11  2  0
 14 12  2  0
 15  3  1  0
 15 11  1  0
 16  4  1  0
 16 12  1  0
M  END
>  <NAME>  (559) 
TRANS-1,2-CYCLOHEXANEDICARBOXYLIC ACID DIETHYL ESTER

>  <SYNONYMS>  (559) 
DIETHYL TRANS-1,2-CYCLOHEXANEDICARBOXYLATE

>  <SPECTRUM TYPE>  (559) 
MS1

>  <INSTRUMENT TYPE>  (559) 
EI-B

>  <INSTRUMENT>  (559) 
HITACHI M-80A

>  <ION MODE>  (559) 
P

>  <INCHIKEY>  (559) 
ZTUZDYWYNQDJKR-NXEZZACHSA-N

>  <FORMULA>  (559) 
C12H20O4

>  <EXACT MASS>  (559) 
228.13615912

>  <MW>  (559) 
228

>  <ID>  (559) 
JP011291

>  <CONTRIBUTOR>  (559) 
University of Tokyo Team, {Faculty of Engineering, University of Tokyo

>  <COMMENT>  (559) 
SMILES=CCOC(=O)C(C1)C(CCC1)C(=O)OCC
InChI=InChI=1S/C12H20O4/c1-3-15-11(13)9-7-5-6-8-10(9)12(14)16-4-2/h9-10H,3-8H2,1-2H3/t9-,10-/m1/s1
computed SMILES=O=C(OCC)C1CCCCC1C(=O)OCC
accession=JP011291
date=2016.01.19 (Created 2008.10.21, modified 2011.05.06)
author=TAJIMA S, GUNMA COLLEGE OF TECHNOLOGY
license=CC BY-NC-SA
exact mass=228.13616
ionization energy=70 eV
ion type=[M]+*
computed spectral entropy=3.377679324057872
computed normalized entropy=0.8184078852137907
SPLASH=splash10-001l-9400000000-8bd5d426bf1692cc6d7f
submitter=submitter = University of Tokyo Team (Faculty of Engineering, University of Tokyo)
MoNA Rating=3.75

>  <NUM PEAKS>  (559) 
62

>  <MASS SPECTRAL PEAKS>  (559) 
34 1.25
37 1.29
38 2.17
39 16.92
40 19.07
41 27.39
42 4.89
43 58.71
44 3.22
45 7.24
46 1.17
50 1.03
51 2.33
52 1.86
53 13.43
54 20.25
55 13.28
56 1.71
57 3.25
58 8.94
59 1.21
60 1.05
65 2.83
66 3.22
67 29.57
68 3.86
69 3.59
73 2.75
77 4.55
78 1.07
79 13.68
80 13.77
81 99.99
82 23.58
83 5.88
85 1.32
86 1.03
88 1.85
91 1.82
97 1.97
99 3.05
101 2.39
108 10.62
109 27.93
110 3.63
111 1.12
118 1.19
119 1.68
125 3.43
126 4.28
127 6.15
128 3.46
136 1.55
140 1.61
154 26.78
155 17.86
156 7.72
182 18.73
183 50.97
184 5.58
228 8.46
229 1.23

>  <PREDICTED SPECTRUM>  (559) 
14 3
15 0
25 2
26 118
27 379
28 90
29 599
30 103
31 56
37 11
38 35
39 332
40 113
41 341
42 58
43 140
44 106
45 145
46 72
47 99
50 48
51 103
52 78
53 317
54 336
55 110
56 8
57 41
60 47
61 93
63 84
65 205
66 146
67 446
68 186
69 25
70 9
71 22
72 36
73 237
74 148
75 78
77 171
78 45
79 273
80 340
81 999
82 519
83 155
84 28
86 116
88 190
91 123
92 15
93 113
94 281
95 90
96 65
97 45
98 224
99 318
100 188
101 266
102 24
107 84
108 430
109 485
110 141
111 179
112 64
113 44
114 1
115 23
116 17
122 17
125 134
126 382
127 390
128 229
129 67
136 132
137 142
138 58
140 151
141 92
142 79
146 9
153 94
154 798
155 553
156 183
157 22
171 94
173 77
181 23
182 482
183 824
184 298
185 73
199 64
200 107
201 47
228 115
229 59

$$$$

     RDKit          2D

 16 16  0  0  1  0  0  0  0  0999 V2000
   -2.9356    5.4356    0.0000 C   0  0  0  0  0  0  0  0  0  0  0  0
    6.1662    0.1908    0.0000 C   0  0  0  0  0  0  0  0  0  0  0  0
   -1.6353    4.6878    0.0000 C   0  0  0  0  0  0  0  0  0  0  0  0
    4.8670    0.9406    0.0000 C   0  0  0  0  0  0  0  0  0  0  0  0
   -1.6200   -1.3100    0.0000 C   0  0  0  0  0  0  0  0  0  0  0  0
   -0.3300   -2.0600    0.0000 C   0  0  0  0  0  0  0  0  0  0  0  0
   -1.6200    0.1900    0.0000 C   0  0  0  0  0  0  0  0  0  0  0  0
    0.9700   -1.3100    0.0000 C   0  0  0  0  0  0  0  0  0  0  0  0
   -0.3300    0.9400    0.0000 C   0  0  0  0  0  0  0  0  0  0  0  0
    0.9700    0.1900    0.0000 C   0  0  0  0  0  0  0  0  0  0  0  0
   -0.3325    2.4400    0.0000 C   0  0  0  0  0  0  0  0  0  0  0  0
    2.2689    0.9402    0.0000 C   0  0  0  0  0  0  0  0  0  0  0  0
    0.9653    3.1922    0.0000 O   0  0  0  0  0  0  0  0  0  0  0  0
    2.2687    2.4402    0.0000 O   0  0  0  0  0  0  0  0  0  0  0  0
   -1.6328    3.1878    0.0000 O   0  0  0  0  0  0  0  0  0  0  0  0
    3.5681    0.1904    0.0000 O   0  0  0  0  0  0  0  0  0  0  0  0
  3  1  1  0
  4  2  1  0
  6  5  1  0
  7  5  1  0
  8  6  1  0
  9  7  1  0
 10  8  1  0
 10  9  1  0
  9 11  1  6
 10 12  1  6
 13 11  2  0
 14 12  2  0
 15  3  1  0
 15 11  1  0
 16  4  1  0
 16 12  1  0
M  END
>  <NAME>  (560) 
CIS-1,2-CYCLOHEXANEDICARBOXYLIC ACID DIETHYL ESTER

>  <SYNONYMS>  (560) 
DIETHYL CIS-1,2-CYCLOHEXANEDICARBOXYLATE

>  <SPECTRUM TYPE>  (560) 
MS1

>  <INSTRUMENT TYPE>  (560) 
EI-B

>  <INSTRUMENT>  (560) 
HITACHI M-80A

>  <ION MODE>  (560) 
P

>  <INCHIKEY>  (560) 
ZTUZDYWYNQDJKR-AOOOYVTPSA-N

>  <FORMULA>  (560) 
C12H20O4

>  <EXACT MASS>  (560) 
228.13615912

>  <MW>  (560) 
228

>  <ID>  (560) 
JP011290

>  <CONTRIBUTOR>  (560) 
University of Tokyo Team, {Faculty of Engineering, University of Tokyo

>  <COMMENT>  (560) 
SMILES=CCOC(=O)C([H])(C1)C([H])(CCC1)C(=O)OCC
InChI=InChI=1S/C12H20O4/c1-3-15-11(13)9-7-5-6-8-10(9)12(14)16-4-2/h9-10H,3-8H2,1-2H3/t9-,10+
computed SMILES=O=C(OCC)C1CCCCC1C(=O)OCC
accession=JP011290
date=2016.01.19 (Created 2008.10.21, modified 2011.05.06)
author=TAJIMA S, GUNMA COLLEGE OF TECHNOLOGY
license=CC BY-NC-SA
exact mass=228.13616
ionization energy=70 eV
ion type=[M]+*
computed spectral entropy=3.3912200723789248
computed normalized entropy=0.8316833674813793
SPLASH=splash10-0f89-9300000000-953d5112da5f95f0928c
submitter=submitter = University of Tokyo Team (Faculty of Engineering, University of Tokyo)
MoNA Rating=3.75

>  <NUM PEAKS>  (560) 
59

>  <MASS SPECTRAL PEAKS>  (560) 
30 2.47
31 7.86
38 1.4
39 19.67
40 7.06
41 31.56
42 3.02
43 21.85
45 5.91
51 3.22
52 3.49
53 19.7
54 22.53
55 13.42
56 1.3
57 3.13
58 1.8
65 2.95
66 5.15
67 32.47
68 4.71
69 2.89
70 1.26
71 1.1
73 3.52
77 5.96
78 1.31
79 16.36
80 29.7
81 99.99
82 18.43
83 4.22
85 1.46
86 3.53
88 3.41
95 1.13
97 3.11
99 3.7
100 1.52
101 1.98
108 22.37
109 17.36
110 2.97
113 1.12
114 1.48
115 1.71
125 7.09
126 3.86
127 4.33
128 2.64
136 2.5
140 2.44
154 40.65
155 9.66
156 3.07
182 14.48
183 31.69
184 3.48
228 2.85

>  <PREDICTED SPECTRUM>  (560) 
14 3
15 0
25 2
26 118
27 379
28 90
29 599
30 103
31 56
37 11
38 35
39 332
40 113
41 341
42 58
43 140
44 106
45 145
46 72
47 99
50 48
51 103
52 78
53 317
54 336
55 110
56 8
57 41
60 47
61 93
63 84
65 205
66 146
67 446
68 186
69 25
70 9
71 22
72 36
73 237
74 148
75 78
77 171
78 45
79 273
80 340
81 999
82 519
83 155
84 28
86 116
88 190
91 123
92 15
93 113
94 281
95 90
96 65
97 45
98 224
99 318
100 188
101 266
102 24
107 84
108 430
109 485
110 141
111 179
112 64
113 44
114 1
115 23
116 17
122 17
125 134
126 382
127 390
128 229
129 67
136 132
137 142
138 58
140 151
141 92
142 79
146 9
153 94
154 798
155 553
156 183
157 22
171 94
173 77
181 23
182 482
183 824
184 298
185 73
199 64
200 107
201 47
228 115
229 59

$$$$

     RDKit          2D

  6  5  0  0  0  0  0  0  0  0999 V2000
    1.2990    2.2500    0.0000 C   0  0  0  0  0  0  0  0  0  0  0  0
   -3.8971    2.2500    0.0000 C   0  0  0  0  0  0  0  0  0  0  0  0
   -1.2990    2.2500    0.0000 C   0  0  0  0  0  0  0  0  0  0  0  0
   -1.2990    0.7500    0.0000 O   0  0  0  0  0  0  0  0  0  0  0  0
    0.0000    3.0000    0.0000 O   0  0  0  0  0  0  0  0  0  0  0  0
   -2.5981    3.0000    0.0000 O   0  0  0  0  0  0  0  0  0  0  0  0
  4  3  2  0
  5  1  1  0
  5  3  1  0
  6  2  1  0
  6  3  1  0
M  END
>  <NAME>  (561) 
DIMETHYL CARBONATE

>  <SYNONYMS>  (561) 
CARBONIC ACID DIMETHYL ESTER

>  <SPECTRUM TYPE>  (561) 
MS1

>  <INSTRUMENT TYPE>  (561) 
EI-B

>  <INSTRUMENT>  (561) 
HITACHI M-80A

>  <ION MODE>  (561) 
P

>  <INCHIKEY>  (561) 
IEJIGPNLZYLLBP-UHFFFAOYSA-N

>  <FORMULA>  (561) 
C3H6O3

>  <EXACT MASS>  (561) 
90.03169405199999

>  <MW>  (561) 
90

>  <ID>  (561) 
JP011289

>  <CONTRIBUTOR>  (561) 
University of Tokyo Team, {Faculty of Engineering, University of Tokyo

>  <COMMENT>  (561) 
SMILES=COC(=O)OC
InChI=InChI=1S/C3H6O3/c1-5-3(4)6-2/h1-2H3
computed SMILES=O=C(OC)OC
accession=JP011289
date=2016.01.19 (Created 2008.10.21, modified 2011.05.06)
author=TAJIMA S, GUNMA COLLEGE OF TECHNOLOGY
license=CC BY-NC-SA
exact mass=90.03169
ionization energy=70 eV
ion type=[M]+*
computed spectral entropy=2.0918609819810805
computed normalized entropy=0.7383351438639751
SPLASH=splash10-05nb-9000000000-a91772bfccbb956b6353
submitter=submitter = University of Tokyo Team (Faculty of Engineering, University of Tokyo)
MoNA Rating=3.75

>  <NUM PEAKS>  (561) 
17

>  <MASS SPECTRAL PEAKS>  (561) 
15 70.21
16 1.6
29 47.3
30 7.18
31 59.35
33 8.93
43 1.8
44 3.54
45 99.99
46 2.31
47 1.66
59 56.86
60 6.32
61 4.21
62 6.98
90 7.26
91 3.57

>  <PREDICTED SPECTRUM>  (561) 
14 76
15 326
16 51
25 5
27 72
28 197
29 326
30 73
31 433
32 76
33 158
42 68
43 100
44 187
45 560
46 156
47 87
50 56
57 185
58 46
59 999
60 113
63 98
75 232
90 599
91 108

$$$$

     RDKit          2D

 17 16  0  0  0  0  0  0  0  0999 V2000
    1.7596    5.3350    0.0000 C   0  0  0  0  0  0  0  0  0  0  0  0
   -8.6327    5.3350    0.0000 C   0  0  0  0  0  0  0  0  0  0  0  0
   -4.3388    0.2178    0.0000 C   0  0  0  0  0  0  0  0  0  0  0  0
    1.4463    3.5578    0.0000 C   0  0  0  0  0  0  0  0  0  0  0  0
    0.4606    6.0850    0.0000 C   0  0  0  0  0  0  0  0  0  0  0  0
   -7.3336    6.0850    0.0000 C   0  0  0  0  0  0  0  0  0  0  0  0
   -4.8518    1.6273    0.0000 C   0  0  0  0  0  0  0  0  0  0  0  0
   -0.0309    3.2973    0.0000 C   0  0  0  0  0  0  0  0  0  0  0  0
   -0.8384    5.3350    0.0000 C   0  0  0  0  0  0  0  0  0  0  0  0
   -6.0346    5.3350    0.0000 C   0  0  0  0  0  0  0  0  0  0  0  0
   -3.8877    2.7764    0.0000 C   0  0  0  0  0  0  0  0  0  0  0  0
   -0.9951    4.4464    0.0000 C   0  0  0  0  0  0  0  0  0  0  0  0
   -2.1375    6.0850    0.0000 O   0  0  0  0  0  0  0  0  0  0  0  0
   -4.7356    6.0850    0.0000 O   0  0  0  0  0  0  0  0  0  0  0  0
   -4.4007    4.1859    0.0000 O   0  0  0  0  0  0  0  0  0  0  0  0
   -2.4723    4.1859    0.0000 O   0  0  0  0  0  0  0  0  0  0  0  0
   -3.4365    5.3350    0.0000 Si  0  0  0  0  0  4  0  0  0  0  0  0
  5  1  1  0
  6  2  1  0
  7  3  1  0
  8  4  1  0
  9  5  1  0
 10  6  1  0
 11  7  1  0
 12  8  1  0
 13  9  1  0
 14 10  1  0
 15 11  1  0
 16 12  1  0
 17 13  1  0
 17 14  1  0
 17 15  1  0
 17 16  1  0
M  END
>  <NAME>  (562) 
TETRAPROPOXYSILANE

>  <SYNONYMS>  (562) 


>  <SPECTRUM TYPE>  (562) 
MS1

>  <INSTRUMENT TYPE>  (562) 
EI-B

>  <INSTRUMENT>  (562) 
HITACHI M-80A

>  <ION MODE>  (562) 
P

>  <INCHIKEY>  (562) 
ZQZCOBSUOFHDEE-UHFFFAOYSA-N

>  <FORMULA>  (562) 
C12H28O4Si

>  <EXACT MASS>  (562) 
264.175685906

>  <MW>  (562) 
264

>  <ID>  (562) 
JP011287

>  <CONTRIBUTOR>  (562) 
University of Tokyo Team, {Faculty of Engineering, University of Tokyo

>  <COMMENT>  (562) 
SMILES=CCCO[Si](OCCC)(OCCC)OCCC
InChI=InChI=1S/C12H28O4Si/c1-5-9-13-17(14-10-6-2,15-11-7-3)16-12-8-4/h5-12H2,1-4H3
computed SMILES=O(CCC)[Si](OCCC)(OCCC)OCCC
accession=JP011287
date=2016.01.19 (Created 2008.10.21, modified 2011.05.06)
author=TAJIMA S, GUNMA COLLEGE OF TECHNOLOGY
license=CC BY-NC-SA
exact mass=264.17569
ionization energy=70 eV
ion type=[M]+*
computed spectral entropy=3.3137122215021644
computed normalized entropy=0.8029087285138062
SPLASH=splash10-002r-8790000000-3d34b1cdead9978966c3
submitter=submitter = University of Tokyo Team (Faculty of Engineering, University of Tokyo)
MoNA Rating=3.75

>  <NUM PEAKS>  (562) 
62

>  <MASS SPECTRAL PEAKS>  (562) 
27 11.23
29 18.53
31 3.51
39 2.65
41 10.33
42 2.21
43 13.43
45 4.49
55 1.41
57 1.1
62 3.63
63 15.22
76 1.64
77 3.15
79 42.45
80 2.38
81 1.97
83 3.05
87 1.05
89 2.29
91 1.11
92 1.03
93 7.61
97 2.5
101 1.36
103 4.92
105 4.87
107 1.64
109 1.07
117 3.7
119 3.58
121 12.16
123 2.71
133 2.95
135 5.65
137 5.26
139 1.08
145 1.37
147 3.45
149 1.18
151 25.44
152 2.43
153 1.11
163 6.48
165 2.26
177 20.47
178 2.62
179 2.55
193 11.78
194 1.5
205 16.2
206 2.59
207 1.05
221 4.4
222 1.05
223 1.16
235 99.99
236 16.4
237 5.51
263 2.36
264 6.16
265 1.42

>  <PREDICTED SPECTRUM>  (562) 
15 46
26 57
27 227
29 57
31 55
33 14
39 180
40 45
41 390
42 127
43 232
45 471
47 238
49 23
55 49
58 102
59 109
60 70
61 44
63 230
65 63
69 113
75 158
77 378
78 47
79 166
80 13
81 83
85 176
86 30
87 204
88 82
89 104
91 152
93 219
95 158
97 62
99 111
100 60
101 134
102 85
103 81
105 216
106 59
107 243
108 108
109 96
113 13
115 170
116 36
117 145
119 250
120 133
121 475
122 201
123 302
126 84
129 101
133 124
135 232
136 3
137 305
139 264
140 56
141 93
143 114
145 224
146 51
147 350
148 83
149 474
150 200
151 292
153 45
156 5
157 415
158 143
161 17
163 503
164 174
171 19
176 58
177 381
178 62
179 233
180 47
181 259
182 93
189 125
191 297
192 183
193 495
194 104
195 24
199 311
200 137
201 55
205 986
206 455
207 388
208 76
223 30
235 999
236 379
237 312
249 111
264 198
265 71

$$$$

     RDKit          2D

 10  9  0  0  0  0  0  0  0  0999 V2000
    1.7108    1.8113    0.0000 C   0  0  0  0  0  0  0  0  0  0  0  0
    0.4118    1.0613    0.0000 C   0  0  0  0  0  0  0  0  0  0  0  0
    1.7108    3.3113    0.0000 C   0  0  0  0  0  0  0  0  0  0  0  0
    1.1618   -0.2377    0.0000 F   0  0  0  0  0  0  0  0  0  0  0  0
   -0.3382    2.3603    0.0000 F   0  0  0  0  0  0  0  0  0  0  0  0
   -0.8873    0.3113    0.0000 F   0  0  0  0  0  0  0  0  0  0  0  0
    3.2108    3.3113    0.0000 F   0  0  0  0  0  0  0  0  0  0  0  0
    1.7108    4.8113    0.0000 F   0  0  0  0  0  0  0  0  0  0  0  0
    0.2108    3.3113    0.0000 F   0  0  0  0  0  0  0  0  0  0  0  0
    3.0099    1.0613    0.0000 O   0  0  0  0  0  0  0  0  0  0  0  0
  2  1  1  0
  3  1  1  0
  4  2  1  0
  5  2  1  0
  6  2  1  0
  7  3  1  0
  8  3  1  0
  9  3  1  0
 10  1  2  0
M  END
>  <NAME>  (563) 
HEXAFLUOROACETONE

>  <SYNONYMS>  (563) 
PERFLUOROACETONE

>  <SPECTRUM TYPE>  (563) 
MS1

>  <INSTRUMENT TYPE>  (563) 
EI-B

>  <INSTRUMENT>  (563) 
HITACHI M-80A

>  <ION MODE>  (563) 
P

>  <INCHIKEY>  (563) 
VBZWSGALLODQNC-UHFFFAOYSA-N

>  <FORMULA>  (563) 
C3F6O

>  <EXACT MASS>  (563) 
165.98533394

>  <MW>  (563) 
166

>  <ID>  (563) 
JP011286

>  <CONTRIBUTOR>  (563) 
University of Tokyo Team, {Faculty of Engineering, University of Tokyo

>  <COMMENT>  (563) 
SMILES=O=C(C(F)(F)F)C(F)(F)F
InChI=InChI=1S/C3F6O/c4-2(5,6)1(10)3(7,8)9
computed SMILES=O=C(C(F)(F)F)C(F)(F)F
accession=JP011286
date=2016.01.19 (Created 2008.10.21, modified 2011.05.06)
author=TAJIMA S, GUNMA COLLEGE OF TECHNOLOGY
license=CC BY-NC-SA
exact mass=165.98533
ionization energy=70 eV
ion type=[M]+*
computed spectral entropy=1.7073940329476647
computed normalized entropy=0.6304883241280882
SPLASH=splash10-014i-9000000000-3f3d6b6a01fe1cfb62cf
submitter=submitter = University of Tokyo Team (Faculty of Engineering, University of Tokyo)
MoNA Rating=3.75

>  <NUM PEAKS>  (563) 
15

>  <MASS SPECTRAL PEAKS>  (563) 
31 33.75
40 1.26
43 1.64
47 1.39
50 42.88
62 1.05
69 99.99
70 1.79
74 1.02
78 6.43
93 1.76
97 19.4
100 1.33
119 1.38
147 11.98

>  <PREDICTED SPECTRUM>  (563) 
14 17
15 44
19 24
27 42
28 52
29 108
31 244
32 57
33 75
47 217
49 138
50 273
51 123
52 127
53 107
54 28
69 999
70 32
71 138
77 133
78 120
97 534
98 122
99 27
100 137
119 47
127 30
128 4
147 397
148 31
166 153

$$$$

     RDKit          2D

 15 16  0  0  0  0  0  0  0  0999 V2000
   -0.0000   -1.5000    0.0000 C   0  0  0  0  0  0  0  0  0  0  0  0
   -1.3000    0.7500    0.0000 C   0  0  0  0  0  0  0  0  0  0  0  0
    6.4966    0.7496    0.0000 C   0  0  0  0  0  0  0  0  0  0  0  0
    5.1981   -1.5012    0.0000 C   0  0  0  0  0  0  0  0  0  0  0  0
    1.3000   -0.7500    0.0000 C   0  0  0  0  0  0  0  0  0  0  0  0
   -0.0000    1.5000    0.0000 C   0  0  0  0  0  0  0  0  0  0  0  0
    5.1971    1.5004    0.0000 C   0  0  0  0  0  0  0  0  0  0  0  0
    3.8986   -0.7504    0.0000 C   0  0  0  0  0  0  0  0  0  0  0  0
   -1.3000   -0.7500    0.0000 C   0  0  0  0  0  0  0  0  0  0  0  0
    6.4971   -0.7512    0.0000 C   0  0  0  0  0  0  0  0  0  0  0  0
    1.3000    0.7500    0.0000 C   0  0  0  0  0  0  0  0  0  0  0  0
    3.8981    0.7504    0.0000 C   0  0  0  0  0  0  0  0  0  0  0  0
   -2.5989   -1.5002    0.0000 N   0  0  0  0  0  0  0  0  0  0  0  0
    7.7963   -1.5010    0.0000 N   0  0  0  0  0  0  0  0  0  0  0  0
    2.5989    1.5002    0.0000 S   0  0  0  0  0  0  0  0  0  0  0  0
  5  1  2  0
  6  2  1  0
  7  3  2  0
  8  4  1  0
  9  1  1  0
  9  2  2  0
 10  3  1  0
 10  4  2  0
 11  5  1  0
 11  6  2  0
 12  7  1  0
 12  8  2  0
 13  9  1  0
 14 10  1  0
 15 11  1  0
 15 12  1  0
M  END
>  <NAME>  (564) 
4,4-THIODIANILINE

>  <SYNONYMS>  (564) 
4,4-DIAMINODIPHENYL SULFIDE

>  <SPECTRUM TYPE>  (564) 
MS1

>  <INSTRUMENT TYPE>  (564) 
EI-B

>  <INSTRUMENT>  (564) 
HITACHI M-80A

>  <ION MODE>  (564) 
P

>  <INCHIKEY>  (564) 
ICNFHJVPAJKPHW-UHFFFAOYSA-N

>  <FORMULA>  (564) 
C12H12N2S

>  <EXACT MASS>  (564) 
216.072119384

>  <MW>  (564) 
216

>  <ID>  (564) 
JP011285

>  <CONTRIBUTOR>  (564) 
University of Tokyo Team, {Faculty of Engineering, University of Tokyo

>  <COMMENT>  (564) 
SMILES=Nc(c2)ccc(c2)Sc(c1)ccc(N)c1
InChI=InChI=1S/C12H12N2S/c13-9-1-5-11(6-2-9)15-12-7-3-10(14)4-8-12/h1-8H,13-14H2
computed SMILES=S(C1=CC=C(N)C=C1)C2=CC=C(N)C=C2
accession=JP011285
date=2016.01.19 (Created 2008.10.21, modified 2011.05.06)
author=TAJIMA S, GUNMA COLLEGE OF TECHNOLOGY
license=CC BY-NC-SA
exact mass=216.07212
ionization energy=70 eV
ion type=[M]+*
computed spectral entropy=2.325004533579791
computed normalized entropy=0.6649505235460306
SPLASH=splash10-014i-2290000000-d7a0bc204648e8a1a9b9
submitter=submitter = University of Tokyo Team (Faculty of Engineering, University of Tokyo)
MoNA Rating=3.75

>  <NUM PEAKS>  (564) 
33

>  <MASS SPECTRAL PEAKS>  (564) 
28 4.86
39 3.26
52 1.2
53 1.66
54 1.11
63 1.8
65 5.73
66 1.34
80 8.93
91 1.04
92 1.95
93 1.7
97 1.5
108 1.59
117 1.03
124 5.91
125 1.07
130 1.12
156 2.84
171 1.85
182 1.58
183 5.6
184 17.31
185 2.38
188 1.51
199 1.67
200 1.81
201 1
214 1.36
215 9.54
216 99.99
217 17.44
218 5.81

>  <PREDICTED SPECTRUM>  (564) 
17 7
18 7
26 13
27 35
28 37
34 3
36 11
38 13
39 148
40 33
41 127
42 65
43 53
44 31
45 83
46 29
47 71
48 12
49 35
50 89
51 153
52 208
53 170
54 144
55 98
56 45
57 60
58 56
59 25
60 79
61 56
62 88
63 175
64 128
65 327
66 174
67 102
68 64
69 59
70 66
71 42
72 23
73 26
74 92
75 66
76 56
77 101
78 135
79 149
80 263
81 94
82 103
83 77
84 106
85 70
86 29
87 36
88 17
89 62
90 84
91 149
92 215
93 186
94 103
95 101
96 182
97 180
98 144
99 92
102 16
104 15
105 45
106 167
107 88
108 264
109 124
110 30
111 44
112 0
114 52
115 27
116 35
117 84
118 79
119 13
120 66
121 111
122 124
123 110
124 322
125 124
126 94
127 83
128 54
129 33
130 60
131 42
132 46
134 3
137 27
138 51
139 24
140 87
141 56
142 51
143 97
144 58
145 51
146 29
147 80
148 46
149 103
150 216
151 43
152 100
153 68
154 95
155 78
156 28
157 83
158 21
159 17
160 45
161 25
162 76
163 19
164 5
166 124
167 81
168 73
169 93
170 60
171 185
172 116
173 34
175 17
176 17
177 10
180 46
181 100
182 180
183 192
184 215
185 100
186 16
187 0
188 44
189 50
190 6
198 113
199 134
200 165
201 38
202 15
213 33
214 125
215 240
216 999
217 444
218 241
219 64

$$$$

     RDKit          2D

 18 19  0  0  0  0  0  0  0  0999 V2000
    4.8623    1.6474    0.0000 C   0  0  0  0  0  0  0  0  0  0  0  0
    4.8628    3.1482    0.0000 C   0  0  0  0  0  0  0  0  0  0  0  0
    3.5628    0.8966    0.0000 C   0  0  0  0  0  0  0  0  0  0  0  0
    3.5637    3.8982    0.0000 C   0  0  0  0  0  0  0  0  0  0  0  0
    2.2637    1.6466    0.0000 C   0  0  0  0  0  0  0  0  0  0  0  0
   -1.6238    5.3846    0.0000 C   0  0  0  0  0  0  0  0  0  0  0  0
   -2.9313    3.1372    0.0000 C   0  0  0  0  0  0  0  0  0  0  0  0
   -2.9391    6.1266    0.0000 C   0  0  0  0  0  0  0  0  0  0  0  0
   -4.2156    3.8728    0.0000 C   0  0  0  0  0  0  0  0  0  0  0  0
    2.2642    3.1474    0.0000 C   0  0  0  0  0  0  0  0  0  0  0  0
   -1.6329    3.8974    0.0000 C   0  0  0  0  0  0  0  0  0  0  0  0
   -4.2324    5.3750    0.0000 C   0  0  0  0  0  0  0  0  0  0  0  0
    0.9652    3.8974    0.0000 C   0  0  0  0  0  0  0  0  0  0  0  0
   -0.3339    3.1474    0.0000 N   0  0  0  0  0  0  0  0  0  0  0  0
   -5.5367    6.1159    0.0000 N   0  0  0  0  0  0  0  0  0  0  0  0
    0.9652    5.3974    0.0000 O   0  0  0  0  0  0  0  0  0  0  0  0
   -6.8305    5.3568    0.0000 O   0  0  0  0  0  0  0  0  0  0  0  0
   -5.5472    7.6159    0.0000 O   0  0  0  0  0  0  0  0  0  0  0  0
  2  1  2  0
  3  1  1  0
  4  2  1  0
  5  3  2  0
  8  6  2  0
  9  7  1  0
 10  4  2  0
 10  5  1  0
 11  6  1  0
 11  7  2  0
 12  8  1  0
 12  9  2  0
 13 10  1  0
 14 11  1  0
 14 13  1  0
 15 12  1  0
 16 13  2  0
 17 15  1  0
 18 15  2  0
M  CHG  2  15   1  17  -1
M  END
>  <NAME>  (565) 
N-BENZOYL-PARA-NITROANILINE

>  <SYNONYMS>  (565) 


>  <SPECTRUM TYPE>  (565) 
MS1

>  <INSTRUMENT TYPE>  (565) 
EI-B

>  <INSTRUMENT>  (565) 
HITACHI M-80A

>  <ION MODE>  (565) 
P

>  <INCHIKEY>  (565) 
GMGQGZYFQSCZCW-UHFFFAOYSA-N

>  <FORMULA>  (565) 
C13H10N2O3

>  <EXACT MASS>  (565) 
242.06914217999997

>  <MW>  (565) 
242

>  <ID>  (565) 
JP011284

>  <CONTRIBUTOR>  (565) 
University of Tokyo Team, {Faculty of Engineering, University of Tokyo

>  <COMMENT>  (565) 
SMILES=[O-1][N+1](=O)c(c2)ccc(c2)NC(=O)c(c1)cccc1
InChI=InChI=1S/C13H10N2O3/c16-13(10-4-2-1-3-5-10)14-11-6-8-12(9-7-11)15(17)18/h1-9H,(H,14,16)
computed SMILES=O=C(NC1=CC=C(C=C1)N(=O)=O)C=2C=CC=CC2
accession=JP011284
date=2016.01.19 (Created 2008.10.21, modified 2011.05.06)
author=TAJIMA S, GUNMA COLLEGE OF TECHNOLOGY
license=CC BY-NC-SA
exact mass=242.06914
ionization energy=70 eV
ion type=[M]+*
computed spectral entropy=1.6431067318244428
computed normalized entropy=0.6067489927460273
SPLASH=splash10-0a4i-6910000000-db71d6897b54931df0f7
submitter=submitter = University of Tokyo Team (Faculty of Engineering, University of Tokyo)
MoNA Rating=3.75

>  <NUM PEAKS>  (565) 
15

>  <MASS SPECTRAL PEAKS>  (565) 
30 3.56
39 1.55
40 2.1
50 2.82
51 10.73
52 1.61
63 2.45
65 1.47
76 2.25
77 46.66
78 3.37
105 99.99
106 7.87
242 11.12
243 1.94

>  <PREDICTED SPECTRUM>  (565) 
36 2
37 28
38 89
39 95
40 50
41 25
50 192
51 285
52 122
53 70
55 19
57 68
61 16
62 61
63 132
64 103
65 78
66 2
74 62
75 74
76 142
77 578
78 165
79 11
80 39
81 23
83 65
84 8
86 24
87 7
88 16
89 61
90 78
91 41
92 48
104 35
105 999
106 323
107 41
109 35
138 38
242 500
243 193
244 68

$$$$

     RDKit          2D

  5  4  0  0  0  0  0  0  0  0999 V2000
    0.0000    1.5000    0.0000 C   0  0  0  0  0  0  0  0  0  0  0  0
   -1.2990    0.7500    0.0000 Br  0  0  0  0  0  0  0  0  0  0  0  0
    0.7500    0.2010    0.0000 Br  0  0  0  0  0  0  0  0  0  0  0  0
    1.2990    2.2500    0.0000 Br  0  0  0  0  0  0  0  0  0  0  0  0
   -0.7500    2.7990    0.0000 Br  0  0  0  0  0  0  0  0  0  0  0  0
  2  1  1  0
  3  1  1  0
  4  1  1  0
  5  1  1  0
M  END
>  <NAME>  (566) 
CARBON TETRABROMIDE

>  <SYNONYMS>  (566) 
TETRABROMOMETHANE

>  <SPECTRUM TYPE>  (566) 
MS1

>  <INSTRUMENT TYPE>  (566) 
EI-B

>  <INSTRUMENT>  (566) 
HITACHI M-80A

>  <ION MODE>  (566) 
P

>  <INCHIKEY>  (566) 
HJUGFYREWKUQJT-UHFFFAOYSA-N

>  <FORMULA>  (566) 
CBr4

>  <EXACT MASS>  (566) 
327.6733484

>  <MW>  (566) 
327

>  <ID>  (566) 
JP011283

>  <CONTRIBUTOR>  (566) 
University of Tokyo Team, {Faculty of Engineering, University of Tokyo

>  <COMMENT>  (566) 
SMILES=BrC(Br)(Br)Br
computed SMILES=BrC(Br)(Br)Br
InChI=InChI=1S/CBr4/c2-1(3,4)5
accession=JP011283
date=2016.01.19 (Created 2008.10.21, modified 2011.05.06)
author=TAJIMA S, GUNMA COLLEGE OF TECHNOLOGY
license=CC BY-NC-SA
exact mass=327.67335
ionization energy=70 eV
ion type=[M]+*
computed spectral entropy=2.4079311329500834
computed normalized entropy=0.7909060229329897
SPLASH=splash10-0udi-5290000000-7cb0064329bc19e56e21
submitter=submitter = University of Tokyo Team (Faculty of Engineering, University of Tokyo)
MoNA Rating=3.75

>  <NUM PEAKS>  (566) 
21

>  <MASS SPECTRAL PEAKS>  (566) 
12 11.48
79 43.25
80 1.5
81 42.15
82 1.44
91 33.9
93 32.83
125 1.01
126 1.01
158 1.85
160 3.69
162 1.8
170 15.79
172 30.36
174 14.66
249 34.58
251 99.99
252 1.1
253 97.07
254 1.1
255 32.03

>  <PREDICTED SPECTRUM>  (566) 
14 135
35 61
36 19
47 15
50 12
56 10
57 65
58 3
79 368
81 481
89 20
90 184
91 485
92 193
93 436
94 127
95 343
96 35
168 4
170 563
172 999
173 31
174 768
176 252
178 115
249 508
250 174
251 946
252 49
253 918
255 676
257 228
258 297
260 12
288 17
303 75
324 41
330 33
332 104

$$$$

     RDKit          2D

 10 10  0  0  0  0  0  0  0  0999 V2000
   -1.3000    0.7500    0.0000 C   0  0  0  0  0  0  0  0  0  0  0  0
    0.0000    1.5000    0.0000 C   0  0  0  0  0  0  0  0  0  0  0  0
   -1.3000   -0.7500    0.0000 C   0  0  0  0  0  0  0  0  0  0  0  0
    1.3000    0.7500    0.0000 C   0  0  0  0  0  0  0  0  0  0  0  0
    0.0000   -1.5000    0.0000 C   0  0  0  0  0  0  0  0  0  0  0  0
    1.3000   -0.7500    0.0000 C   0  0  0  0  0  0  0  0  0  0  0  0
   -0.0000   -3.0000    0.0000 Cl  0  0  0  0  0  0  0  0  0  0  0  0
    2.5989   -1.5002    0.0000 N   0  0  0  0  0  0  0  0  0  0  0  0
    3.8981   -0.7504    0.0000 O   0  0  0  0  0  0  0  0  0  0  0  0
    2.5987   -3.0002    0.0000 O   0  0  0  0  0  0  0  0  0  0  0  0
  2  1  2  0
  3  1  1  0
  4  2  1  0
  5  3  2  0
  6  4  2  0
  6  5  1  0
  7  5  1  0
  8  6  1  0
  9  8  1  0
 10  8  2  0
M  CHG  2   8   1   9  -1
M  END
>  <NAME>  (567) 
ORTHO-CHLORONITROBENZENE

>  <SYNONYMS>  (567) 


>  <SPECTRUM TYPE>  (567) 
MS1

>  <INSTRUMENT TYPE>  (567) 
EI-B

>  <INSTRUMENT>  (567) 
HITACHI M-80A

>  <ION MODE>  (567) 
P

>  <INCHIKEY>  (567) 
BFCFYVKQTRLZHA-UHFFFAOYSA-N

>  <FORMULA>  (567) 
C6H4ClNO2

>  <EXACT MASS>  (567) 
156.993056048

>  <MW>  (567) 
157

>  <ID>  (567) 
JP011282

>  <CONTRIBUTOR>  (567) 
University of Tokyo Team, {Faculty of Engineering, University of Tokyo

>  <COMMENT>  (567) 
SMILES=[O-1][N+1](=O)c(c1)c(Cl)ccc1
InChI=InChI=1S/C6H4ClNO2/c7-5-3-1-2-4-6(5)8(9)10/h1-4H
computed SMILES=O=N(=O)C=1C=CC=CC1Cl
accession=JP011282
date=2016.01.19 (Created 2008.10.21, modified 2011.05.06)
author=TAJIMA S, GUNMA COLLEGE OF TECHNOLOGY
license=CC BY-NC-SA
exact mass=156.99306
ionization energy=70 eV
ion type=[M]+*
computed spectral entropy=3.0884320896363424
computed normalized entropy=0.8161409412346202
SPLASH=splash10-06vj-9600000000-93355ce0298bbe4b7b67
submitter=submitter = University of Tokyo Team (Faculty of Engineering, University of Tokyo)
MoNA Rating=3.75

>  <NUM PEAKS>  (567) 
44

>  <MASS SPECTRAL PEAKS>  (567) 
27 2.69
28 4.8
30 59.17
37 4.87
38 6.12
39 8.25
46 4.38
49 3.32
50 34.43
51 17.53
52 1.31
53 1.08
61 4.59
62 2.88
63 9.36
64 2.92
72 1.48
73 11.74
74 18.37
75 99.99
76 15.98
77 1.23
84 3.3
85 10.75
86 1.67
87 3.63
99 67.96
100 3.94
101 21.79
111 70.36
112 5.47
113 22.24
114 1.64
125 1.48
127 34.16
128 2.72
129 10.76
141 21.43
142 1.69
143 6.97
157 68.37
158 10.55
159 22.24
160 3.36

>  <PREDICTED SPECTRUM>  (567) 
16 34
25 47
26 94
28 56
29 71
30 641
35 88
36 154
37 286
38 330
39 284
40 21
41 37
44 31
46 266
47 55
48 60
49 389
50 776
51 525
52 188
53 106
57 23
60 246
61 441
62 462
63 853
64 497
65 20
72 187
73 790
74 645
75 970
76 725
77 258
78 15
83 12
84 366
85 350
86 227
87 64
98 43
99 896
100 279
101 512
102 73
111 999
112 331
113 598
114 162
127 502
128 77
129 314
130 45
141 84
143 104
157 921
158 257
159 514
160 129

$$$$

     RDKit          2D

 10 10  0  0  0  0  0  0  0  0999 V2000
    0.3376   -3.5524    0.0000 C   0  0  0  0  0  0  0  0  0  0  0  0
    1.6321   -2.8102    0.0000 C   0  0  0  0  0  0  0  0  0  0  0  0
   -0.9615   -2.8024    0.0000 C   0  0  0  0  0  0  0  0  0  0  0  0
    0.3335   -0.5594    0.0000 C   0  0  0  0  0  0  0  0  0  0  0  0
    1.6326   -1.3094    0.0000 C   0  0  0  0  0  0  0  0  0  0  0  0
   -0.9660   -1.3102    0.0000 C   0  0  0  0  0  0  0  0  0  0  0  0
    2.9317   -0.5596    0.0000 Cl  0  0  0  0  0  0  0  0  0  0  0  0
   -2.2663   -0.5624    0.0000 N   0  0  0  0  0  0  0  0  0  0  0  0
   -3.5641   -1.3146    0.0000 O   0  0  0  0  0  0  0  0  0  0  0  0
   -2.2688    0.9376    0.0000 O   0  0  0  0  0  0  0  0  0  0  0  0
  2  1  2  0
  3  1  1  0
  5  2  1  0
  5  4  2  0
  6  3  2  0
  6  4  1  0
  7  5  1  0
  8  6  1  0
  9  8  1  0
 10  8  2  0
M  CHG  2   8   1   9  -1
M  END
>  <NAME>  (568) 
META-CHLORONITROBENZENE

>  <SYNONYMS>  (568) 


>  <SPECTRUM TYPE>  (568) 
MS1

>  <INSTRUMENT TYPE>  (568) 
EI-B

>  <INSTRUMENT>  (568) 
HITACHI M-80A

>  <ION MODE>  (568) 
P

>  <INCHIKEY>  (568) 
KMAQZIILEGKYQZ-UHFFFAOYSA-N

>  <FORMULA>  (568) 
C6H4ClNO2

>  <EXACT MASS>  (568) 
156.993056048

>  <MW>  (568) 
157

>  <ID>  (568) 
JP011281

>  <CONTRIBUTOR>  (568) 
University of Tokyo Team, {Faculty of Engineering, University of Tokyo

>  <COMMENT>  (568) 
SMILES=[O-1][N+1](=O)c(c1)cc(Cl)cc1
InChI=InChI=1S/C6H4ClNO2/c7-5-2-1-3-6(4-5)8(9)10/h1-4H
computed SMILES=O=N(=O)C=1C=CC=C(Cl)C1
accession=JP011281
date=2016.01.19 (Created 2008.10.21, modified 2011.05.06)
author=TAJIMA S, GUNMA COLLEGE OF TECHNOLOGY
license=CC BY-NC-SA
exact mass=156.99306
ionization energy=70 eV
ion type=[M]+*
computed spectral entropy=3.0708514112053953
computed normalized entropy=0.7932554787397118
SPLASH=splash10-08i0-7900000000-80b39a02069a03495157
submitter=submitter = University of Tokyo Team (Faculty of Engineering, University of Tokyo)
MoNA Rating=3.75

>  <NUM PEAKS>  (568) 
48

>  <MASS SPECTRAL PEAKS>  (568) 
27 1.18
28 1.14
30 51.99
37 3.67
38 5.13
39 5.09
46 5.56
49 2.3
50 26.84
51 12.99
53 1.57
61 3.74
62 2.9
63 9.39
64 2.62
69 4
73 8.47
74 21
75 91.15
76 18.7
77 1.45
84 2.45
85 9.2
86 1.37
87 3.43
90 1.23
91 1.01
92 1.51
99 47.01
100 2.81
101 15.23
110 1.35
111 99.99
112 7.81
113 31.74
114 2.45
125 3.47
127 19.29
128 2.08
129 5.82
141 37.89
142 3.58
143 12.2
144 1.13
157 96.61
158 18.05
159 32.55
160 5.84

>  <PREDICTED SPECTRUM>  (568) 
16 22
25 11
26 27
28 49
30 550
31 21
32 17
35 7
36 40
37 88
38 124
39 75
46 207
49 203
50 548
51 277
52 29
60 35
61 208
62 175
63 480
64 114
72 78
73 340
74 577
75 832
76 549
77 92
84 167
85 202
86 68
92 38
98 70
99 740
100 152
101 299
110 0
111 911
112 269
113 425
114 54
122 17
127 296
128 49
129 146
143 12
157 999
158 290
159 572
160 164

$$$$

     RDKit          2D

 14 14  0  0  0  0  0  0  0  0999 V2000
    7.7951    1.5010    0.0000 C   0  0  0  0  0  0  0  0  0  0  0  0
   -1.3000    0.7500    0.0000 C   0  0  0  0  0  0  0  0  0  0  0  0
   -0.0000   -1.5000    0.0000 C   0  0  0  0  0  0  0  0  0  0  0  0
    0.0000    1.5000    0.0000 C   0  0  0  0  0  0  0  0  0  0  0  0
    1.3000   -0.7500    0.0000 C   0  0  0  0  0  0  0  0  0  0  0  0
    5.1970    1.5006    0.0000 C   0  0  0  0  0  0  0  0  0  0  0  0
    6.4962    0.7508    0.0000 C   0  0  0  0  0  0  0  0  0  0  0  0
   -1.3000   -0.7500    0.0000 C   0  0  0  0  0  0  0  0  0  0  0  0
    1.3000    0.7500    0.0000 C   0  0  0  0  0  0  0  0  0  0  0  0
    3.8981    0.7504    0.0000 C   0  0  0  0  0  0  0  0  0  0  0  0
   -2.5989   -1.5002    0.0000 Cl  0  0  0  0  0  0  0  0  0  0  0  0
    2.5989    1.5002    0.0000 N   0  0  0  0  0  0  0  0  0  0  0  0
    6.4964   -0.7492    0.0000 O   0  0  0  0  0  0  0  0  0  0  0  0
    3.8983   -0.7496    0.0000 O   0  0  0  0  0  0  0  0  0  0  0  0
  4  2  2  0
  5  3  1  0
  7  1  1  0
  7  6  1  0
  8  2  1  0
  8  3  2  0
  9  4  1  0
  9  5  2  0
 10  6  1  0
 11  8  1  0
 12  9  1  0
 12 10  1  0
 13  7  2  0
 14 10  2  0
M  END
>  <NAME>  (569) 
PARA-CHLOROACETOACETANILIDE

>  <SYNONYMS>  (569) 


>  <SPECTRUM TYPE>  (569) 
MS1

>  <INSTRUMENT TYPE>  (569) 
EI-B

>  <INSTRUMENT>  (569) 
HITACHI M-80A

>  <ION MODE>  (569) 
P

>  <INCHIKEY>  (569) 
JMRJWEJJUKUBEA-UHFFFAOYSA-N

>  <FORMULA>  (569) 
C10H10ClNO2

>  <EXACT MASS>  (569) 
211.04000624

>  <MW>  (569) 
211

>  <ID>  (569) 
JP011280

>  <CONTRIBUTOR>  (569) 
University of Tokyo Team, {Faculty of Engineering, University of Tokyo

>  <COMMENT>  (569) 
SMILES=CC(=O)CC(=O)Nc(c1)ccc(Cl)c1
InChI=InChI=1S/C10H10ClNO2/c1-7(13)6-10(14)12-9-4-2-8(11)3-5-9/h2-5H,6H2,1H3,(H,12,14)
computed SMILES=O=C(NC1=CC=C(Cl)C=C1)CC(=O)C
accession=JP011280
date=2016.01.19 (Created 2008.10.21, modified 2011.05.06)
author=TAJIMA S, GUNMA COLLEGE OF TECHNOLOGY
license=CC BY-NC-SA
exact mass=211.04001
ionization energy=70 eV
ion type=[M]+*
computed spectral entropy=2.5131709672257947
computed normalized entropy=0.7126812331530819
SPLASH=splash10-01t9-4970000000-60dce85599c8f50ae7a1
submitter=submitter = University of Tokyo Team (Faculty of Engineering, University of Tokyo)
MoNA Rating=3.75

>  <NUM PEAKS>  (569) 
34

>  <MASS SPECTRAL PEAKS>  (569) 
15 1.64
27 1.07
28 3.28
39 2.77
42 1.75
43 31.53
58 4.25
63 4.84
64 1.69
65 3.12
73 1.97
75 1.8
85 3.59
90 1.8
91 2.27
92 2.68
99 4.08
100 1.08
101 1.36
125 1.28
126 2.32
127 99.99
128 8.85
129 31.66
130 2.72
140 1.14
153 5.21
154 1
155 1.71
211 58.1
212 33.57
213 21.72
214 10.95
215 1.19

>  <PREDICTED SPECTRUM>  (569) 
27 6
29 44
36 39
37 51
38 101
39 195
40 96
41 173
42 199
43 706
44 151
45 61
47 1
49 10
50 107
51 84
52 83
53 59
54 46
55 153
56 47
57 114
58 88
59 54
61 61
62 85
63 231
64 160
65 204
66 29
67 30
68 38
69 221
70 58
71 120
72 98
73 271
74 121
75 225
76 80
77 13
78 11
83 25
84 91
85 288
86 80
87 34
89 62
90 188
91 160
92 147
93 52
97 41
98 82
99 281
100 112
101 128
102 58
111 227
112 45
113 96
122 0
125 185
126 143
127 999
128 268
129 613
130 135
138 39
139 26
140 120
153 245
154 82
155 53
196 45
211 391
212 121
213 223
214 60

$$$$

     RDKit          2D

 18 21  0  0  0  0  0  0  0  0999 V2000
   -1.3000    3.7500    0.0000 C   0  0  0  0  0  0  0  0  0  0  0  0
   -2.6000    3.0000    0.0000 C   0  0  0  0  0  0  0  0  0  0  0  0
    3.9000    0.7500    0.0000 C   0  0  0  0  0  0  0  0  0  0  0  0
    3.9000   -0.7500    0.0000 C   0  0  0  0  0  0  0  0  0  0  0  0
   -2.6000   -3.0000    0.0000 C   0  0  0  0  0  0  0  0  0  0  0  0
   -1.3000   -3.7500    0.0000 C   0  0  0  0  0  0  0  0  0  0  0  0
   -0.0000    3.0000    0.0000 C   0  0  0  0  0  0  0  0  0  0  0  0
   -2.6000    1.5000    0.0000 C   0  0  0  0  0  0  0  0  0  0  0  0
    2.6000    1.5000    0.0000 C   0  0  0  0  0  0  0  0  0  0  0  0
   -2.6000   -1.5000    0.0000 C   0  0  0  0  0  0  0  0  0  0  0  0
    2.6000   -1.5000    0.0000 C   0  0  0  0  0  0  0  0  0  0  0  0
   -0.0000   -3.0000    0.0000 C   0  0  0  0  0  0  0  0  0  0  0  0
   -0.0000    1.5000    0.0000 C   0  0  0  0  0  0  0  0  0  0  0  0
   -1.3000    0.7500    0.0000 C   0  0  0  0  0  0  0  0  0  0  0  0
    1.3000    0.7500    0.0000 C   0  0  0  0  0  0  0  0  0  0  0  0
   -1.3000   -0.7500    0.0000 C   0  0  0  0  0  0  0  0  0  0  0  0
    1.3000   -0.7500    0.0000 C   0  0  0  0  0  0  0  0  0  0  0  0
   -0.0000   -1.5000    0.0000 C   0  0  0  0  0  0  0  0  0  0  0  0
  2  1  2  0
  4  3  2  0
  6  5  2  0
  7  1  1  0
  8  2  1  0
  9  3  1  0
 10  5  1  0
 11  4  1  0
 12  6  1  0
 13  7  2  0
 14  8  2  0
 14 13  1  0
 15  9  2  0
 15 13  1  0
 16 10  2  0
 16 14  1  0
 17 11  2  0
 17 15  1  0
 18 12  2  0
 18 16  1  0
 18 17  1  0
M  END
>  <NAME>  (570) 
TRIPHENYLENE

>  <SYNONYMS>  (570) 
9,10-BENZOPHENANTHRENE

>  <SPECTRUM TYPE>  (570) 
MS1

>  <INSTRUMENT TYPE>  (570) 
EI-B

>  <INSTRUMENT>  (570) 
HITACHI M-80A

>  <ION MODE>  (570) 
P

>  <INCHIKEY>  (570) 
SLGBZMMZGDRARJ-UHFFFAOYSA-N

>  <FORMULA>  (570) 
C18H12

>  <EXACT MASS>  (570) 
228.093900384

>  <MW>  (570) 
228

>  <ID>  (570) 
JP011279

>  <CONTRIBUTOR>  (570) 
University of Tokyo Team, {Faculty of Engineering, University of Tokyo

>  <COMMENT>  (570) 
SMILES=c(c4)cc(c(c4)1)c(c3)c(ccc3)c(c2)c(ccc2)1
InChI=InChI=1S/C18H12/c1-2-8-14-13(7-1)15-9-3-4-11-17(15)18-12-6-5-10-16(14)18/h1-12H
computed SMILES=C=1C=CC=2C(C1)=C3C=CC=CC3=C4C=CC=CC24
accession=JP011279
date=2016.01.19 (Created 2008.10.21, modified 2011.05.06)
author=TAJIMA S, GUNMA COLLEGE OF TECHNOLOGY
license=CC BY-NC-SA
exact mass=228.0939
ionization energy=70 eV
ion type=[M]+*
computed spectral entropy=1.9286883335501939
computed normalized entropy=0.6550274423062414
SPLASH=splash10-004i-0190000000-1333b8e7d67faf2be6d4
submitter=submitter = University of Tokyo Team (Faculty of Engineering, University of Tokyo)
MoNA Rating=3.75

>  <NUM PEAKS>  (570) 
19

>  <MASS SPECTRAL PEAKS>  (570) 
39 1.2
87 1.16
88 1.31
100 2.72
101 3.45
112 3.13
113 8.19
114 7.09
115 1.36
200 3.09
201 1.63
202 3.14
224 4.89
225 4.1
226 22.26
227 11.72
228 99.99
229 19.33
230 1.87

>  <PREDICTED SPECTRUM>  (570) 
26 15
27 18
36 2
38 16
39 82
40 13
41 11
49 2
50 74
51 84
52 31
55 16
57 8
61 37
62 44
63 61
65 12
67 3
70 5
73 0
74 61
75 92
76 103
77 42
78 30
81 29
82 31
83 25
84 25
86 43
87 118
88 98
89 14
91 26
94 32
95 61
96 29
98 78
99 28
100 63
107 12
110 38
111 107
112 105
113 94
115 5
118 26
119 25
121 35
122 29
123 29
124 29
125 39
126 95
135 39
136 45
137 155
138 83
139 118
140 21
148 8
149 132
150 156
151 119
161 118
162 117
163 83
173 18
174 178
175 118
176 92
187 35
188 66
189 78
190 121
194 84
196 66
197 92
198 52
199 203
200 232
201 163
202 222
203 126
213 70
215 6
222 68
223 94
224 222
225 216
226 447
227 445
228 999
229 458
230 152
231 8

$$$$

     RDKit          2D

 18 21  0  0  0  0  0  0  0  0999 V2000
   -5.2000   -0.7500    0.0000 C   0  0  0  0  0  0  0  0  0  0  0  0
   -5.2000    0.7500    0.0000 C   0  0  0  0  0  0  0  0  0  0  0  0
    5.2000   -0.7500    0.0000 C   0  0  0  0  0  0  0  0  0  0  0  0
    5.2000    0.7500    0.0000 C   0  0  0  0  0  0  0  0  0  0  0  0
   -3.9000   -1.5000    0.0000 C   0  0  0  0  0  0  0  0  0  0  0  0
   -3.9000    1.5000    0.0000 C   0  0  0  0  0  0  0  0  0  0  0  0
    3.9000   -1.5000    0.0000 C   0  0  0  0  0  0  0  0  0  0  0  0
    3.9000    1.5000    0.0000 C   0  0  0  0  0  0  0  0  0  0  0  0
   -1.3000   -1.5000    0.0000 C   0  0  0  0  0  0  0  0  0  0  0  0
   -1.3000    1.5000    0.0000 C   0  0  0  0  0  0  0  0  0  0  0  0
    1.3000   -1.5000    0.0000 C   0  0  0  0  0  0  0  0  0  0  0  0
    1.3000    1.5000    0.0000 C   0  0  0  0  0  0  0  0  0  0  0  0
   -2.6000   -0.7500    0.0000 C   0  0  0  0  0  0  0  0  0  0  0  0
   -2.6000    0.7500    0.0000 C   0  0  0  0  0  0  0  0  0  0  0  0
    2.6000   -0.7500    0.0000 C   0  0  0  0  0  0  0  0  0  0  0  0
    2.6000    0.7500    0.0000 C   0  0  0  0  0  0  0  0  0  0  0  0
    0.0000   -0.7500    0.0000 C   0  0  0  0  0  0  0  0  0  0  0  0
    0.0000    0.7500    0.0000 C   0  0  0  0  0  0  0  0  0  0  0  0
  2  1  2  0
  4  3  1  0
  5  1  1  0
  6  2  1  0
  7  3  2  0
  8  4  2  0
 13  5  2  0
 13  9  1  0
 14  6  2  0
 14 10  1  0
 14 13  1  0
 15  7  1  0
 15 11  2  0
 16  8  1  0
 16 12  2  0
 16 15  1  0
 17  9  2  0
 17 11  1  0
 18 10  2  0
 18 12  1  0
 18 17  1  0
M  END
>  <NAME>  (571) 
NAPHTHACENE

>  <SYNONYMS>  (571) 
2,3-BENZANTHRACENE

>  <SPECTRUM TYPE>  (571) 
MS1

>  <INSTRUMENT TYPE>  (571) 
EI-B

>  <INSTRUMENT>  (571) 
HITACHI M-80A

>  <ION MODE>  (571) 
P

>  <INCHIKEY>  (571) 
IFLREYGFSNHWGE-UHFFFAOYSA-N

>  <FORMULA>  (571) 
C18H12

>  <EXACT MASS>  (571) 
228.093900384

>  <MW>  (571) 
228

>  <ID>  (571) 
JP011278

>  <CONTRIBUTOR>  (571) 
University of Tokyo Team, {Faculty of Engineering, University of Tokyo

>  <COMMENT>  (571) 
SMILES=c(c4)cc(c1)c(c4)cc(c2)c(cc(c3)c(ccc3)2)1
InChI=InChI=1S/C18H12/c1-2-6-14-10-18-12-16-8-4-3-7-15(16)11-17(18)9-13(14)5-1/h1-12H
computed SMILES=C=1C=CC2=CC3=CC=4C=CC=CC4C=C3C=C2C1
accession=JP011278
date=2016.01.19 (Created 2008.10.21, modified 2011.05.06)
author=TAJIMA S, GUNMA COLLEGE OF TECHNOLOGY
license=CC BY-NC-SA
exact mass=228.0939
ionization energy=70 eV
ion type=[M]+*
computed spectral entropy=1.780778248138043
computed normalized entropy=0.6047937351522817
SPLASH=splash10-004i-0190000000-b50449b26ea5f819731c
submitter=submitter = University of Tokyo Team (Faculty of Engineering, University of Tokyo)
MoNA Rating=3.75

>  <NUM PEAKS>  (571) 
19

>  <MASS SPECTRAL PEAKS>  (571) 
29 1.05
39 1.09
40 1.91
88 1.19
100 1.86
101 3.03
112 1.49
113 4.09
114 10.23
200 2.49
201 1.33
202 2.66
224 3.34
225 3.03
226 16.84
227 5.46
228 99.99
229 19.42
230 1.97

>  <PREDICTED SPECTRUM>  (571) 
26 17
27 26
28 5
34 0
38 33
39 134
40 45
41 32
43 10
44 1
50 84
51 112
52 58
55 33
61 28
62 67
63 108
64 7
65 59
69 11
70 22
74 87
75 143
76 131
77 86
78 36
82 38
83 59
84 17
85 38
86 59
87 121
88 112
89 90
91 27
92 2
93 18
94 37
95 22
96 56
97 23
98 86
99 61
100 64
101 49
102 86
103 1
105 22
110 114
111 118
112 20
113 86
114 5
115 31
116 9
117 16
120 10
121 42
122 48
123 54
125 4
126 85
127 8
135 18
136 75
137 82
138 41
139 134
149 44
150 127
151 115
152 51
161 72
162 59
163 138
165 55
173 31
174 124
175 113
176 127
177 6
179 3
180 14
186 34
187 37
188 90
189 43
190 79
196 26
198 67
199 85
200 131
201 169
202 170
203 114
213 26
222 32
223 71
224 185
225 208
226 381
227 345
228 999
229 473
230 190
231 24

$$$$

     RDKit          2D

 20 24  0  0  0  0  0  0  0  0999 V2000
   -3.9000    0.7500    0.0000 C   0  0  0  0  0  0  0  0  0  0  0  0
   -1.3000   -3.7500    0.0000 C   0  0  0  0  0  0  0  0  0  0  0  0
    1.3000    3.7500    0.0000 C   0  0  0  0  0  0  0  0  0  0  0  0
    3.9000   -0.7500    0.0000 C   0  0  0  0  0  0  0  0  0  0  0  0
   -3.9000   -0.7500    0.0000 C   0  0  0  0  0  0  0  0  0  0  0  0
   -2.6000   -3.0000    0.0000 C   0  0  0  0  0  0  0  0  0  0  0  0
    2.6000    3.0000    0.0000 C   0  0  0  0  0  0  0  0  0  0  0  0
    3.9000    0.7500    0.0000 C   0  0  0  0  0  0  0  0  0  0  0  0
   -2.6000    1.5000    0.0000 C   0  0  0  0  0  0  0  0  0  0  0  0
   -0.0000    3.0000    0.0000 C   0  0  0  0  0  0  0  0  0  0  0  0
   -0.0000   -3.0000    0.0000 C   0  0  0  0  0  0  0  0  0  0  0  0
    2.6000   -1.5000    0.0000 C   0  0  0  0  0  0  0  0  0  0  0  0
   -2.6000   -1.5000    0.0000 C   0  0  0  0  0  0  0  0  0  0  0  0
    2.6000    1.5000    0.0000 C   0  0  0  0  0  0  0  0  0  0  0  0
   -1.3000    0.7500    0.0000 C   0  0  0  0  0  0  0  0  0  0  0  0
   -0.0000    1.5000    0.0000 C   0  0  0  0  0  0  0  0  0  0  0  0
   -0.0000   -1.5000    0.0000 C   0  0  0  0  0  0  0  0  0  0  0  0
    1.3000   -0.7500    0.0000 C   0  0  0  0  0  0  0  0  0  0  0  0
   -1.3000   -0.7500    0.0000 C   0  0  0  0  0  0  0  0  0  0  0  0
    1.3000    0.7500    0.0000 C   0  0  0  0  0  0  0  0  0  0  0  0
  5  1  2  0
  6  2  1  0
  7  3  2  0
  8  4  2  0
  9  1  1  0
 10  3  1  0
 11  2  2  0
 12  4  1  0
 13  5  1  0
 13  6  2  0
 14  7  1  0
 14  8  1  0
 15  9  2  0
 16 10  2  0
 16 15  1  0
 17 11  1  0
 18 12  2  0
 18 17  1  0
 19 13  1  0
 19 15  1  0
 19 17  2  0
 20 14  2  0
 20 16  1  0
 20 18  1  0
M  END
>  <NAME>  (572) 
PERYLENE

>  <SYNONYMS>  (572) 
DIBENZ(DE,KL)ANTHRACENE

>  <SPECTRUM TYPE>  (572) 
MS1

>  <INSTRUMENT TYPE>  (572) 
EI-B

>  <INSTRUMENT>  (572) 
HITACHI M-80A

>  <ION MODE>  (572) 
P

>  <INCHIKEY>  (572) 
CSHWQDPOILHKBI-UHFFFAOYSA-N

>  <FORMULA>  (572) 
C20H12

>  <EXACT MASS>  (572) 
252.093900384

>  <MW>  (572) 
252

>  <ID>  (572) 
JP011277

>  <CONTRIBUTOR>  (572) 
University of Tokyo Team, {Faculty of Engineering, University of Tokyo

>  <COMMENT>  (572) 
SMILES=c(c5)cc(c21)c(c54)c(ccc4)c(c3)c(c(cc3)ccc2)1
InChI=InChI=1S/C20H12/c1-5-13-6-2-11-17-18-12-4-8-14-7-3-10-16(20(14)18)15(9-1)19(13)17/h1-12H
computed SMILES=C1=CC=2C=CC=C3C4=CC=CC5=CC=CC(C(=C1)C23)=C54
accession=JP011277
date=2016.01.19 (Created 2008.10.21, modified 2011.05.06)
author=TAJIMA S, GUNMA COLLEGE OF TECHNOLOGY
license=CC BY-NC-SA
exact mass=252.0939
ionization energy=70 eV
ion type=[M]+*
computed spectral entropy=1.9886239020566092
computed normalized entropy=0.6880166527450722
SPLASH=splash10-0udi-0190000000-8617dfdf4352ea7fce47
submitter=submitter = University of Tokyo Team (Faculty of Engineering, University of Tokyo)
MoNA Rating=3.75

>  <NUM PEAKS>  (572) 
18

>  <MASS SPECTRAL PEAKS>  (572) 
28 1.02
29 1.09
40 2.02
112 2.72
113 3.73
124 3.63
125 10.79
126 15.15
224 2.06
225 1.15
226 15.1
248 4.24
249 3.6
250 20.09
251 6.69
252 99.99
253 21.61
254 2.31

>  <PREDICTED SPECTRUM>  (572) 
27 36
28 12
29 4
36 2
38 0
39 41
43 3
50 37
51 26
62 10
63 47
74 41
75 61
76 36
77 25
86 33
87 74
97 17
98 40
99 35
100 30
110 55
111 77
112 109
113 77
121 37
122 44
123 8
124 14
125 134
126 79
149 43
150 74
160 7
161 30
162 18
172 0
174 104
175 16
176 27
185 16
197 22
198 76
199 71
200 82
201 18
211 53
213 49
214 5
218 47
219 8
220 53
221 89
222 81
223 181
224 190
225 176
226 155
227 39
237 36
246 104
247 117
248 247
249 295
250 482
251 284
252 999
253 478
254 175
255 24

$$$$

     RDKit          2D

  7  6  0  0  0  0  0  0  0  0999 V2000
    1.2545    2.3272    0.0000 C   0  0  0  0  0  0  0  0  0  0  0  0
   -3.9417    2.3272    0.0000 C   0  0  0  0  0  0  0  0  0  0  0  0
   -2.3078    1.1781    0.0000 C   0  0  0  0  0  0  0  0  0  0  0  0
   -0.3794    1.1781    0.0000 C   0  0  0  0  0  0  0  0  0  0  0  0
   -0.0445    3.0772    0.0000 O   0  0  0  0  0  0  0  0  0  0  0  0
   -2.6426    3.0772    0.0000 O   0  0  0  0  0  0  0  0  0  0  0  0
   -1.3436    2.3272    0.0000 Si  0  0  0  0  0  4  0  0  0  0  0  0
  5  1  1  0
  6  2  1  0
  7  3  1  0
  7  4  1  0
  7  5  1  0
  7  6  1  0
M  END
>  <NAME>  (573) 
DIMETHOXYDIMETHYLSILANE

>  <SYNONYMS>  (573) 


>  <SPECTRUM TYPE>  (573) 
MS1

>  <INSTRUMENT TYPE>  (573) 
EI-B

>  <INSTRUMENT>  (573) 
HITACHI M-80A

>  <ION MODE>  (573) 
P

>  <INCHIKEY>  (573) 
JJQZDUKDJDQPMQ-UHFFFAOYSA-N

>  <FORMULA>  (573) 
C4H12O2Si

>  <EXACT MASS>  (573) 
120.06065615400001

>  <MW>  (573) 
120

>  <ID>  (573) 
JP011276

>  <CONTRIBUTOR>  (573) 
University of Tokyo Team, {Faculty of Engineering, University of Tokyo

>  <COMMENT>  (573) 
SMILES=CO[Si](C)(C)OC
InChI=InChI=1S/C4H12O2Si/c1-5-7(3,4)6-2/h1-4H3
computed SMILES=O(C)[Si](OC)(C)C
accession=JP011276
date=2016.01.19 (Created 2008.10.21, modified 2011.05.06)
author=TAJIMA S, GUNMA COLLEGE OF TECHNOLOGY
license=CC BY-NC-SA
exact mass=120.06066
ionization energy=70 eV
ion type=[M]+*
computed spectral entropy=1.6065390944971676
computed normalized entropy=0.6087549051961599
SPLASH=splash10-0a4i-6900000000-c3104c3bd016363b5b0b
submitter=submitter = University of Tokyo Team (Faculty of Engineering, University of Tokyo)
MoNA Rating=3.75

>  <NUM PEAKS>  (573) 
14

>  <MASS SPECTRAL PEAKS>  (573) 
15 3.46
43 5.56
45 2.6
58 2.44
59 7.17
61 1.75
74 1.03
75 41.11
76 3.08
77 1.58
89 7.07
105 99.99
106 8.46
107 4.02

>  <PREDICTED SPECTRUM>  (573) 
14 13
15 118
25 1
26 28
27 74
28 50
29 248
30 139
31 271
32 14
33 15
38 0
39 65
41 16
42 12
43 203
44 120
45 495
46 204
47 260
49 23
53 49
57 185
58 123
59 572
60 162
61 354
62 79
63 110
73 223
74 175
75 713
76 89
77 286
78 19
79 28
89 375
90 179
91 79
104 6
105 999
106 286
107 252
108 56
119 65
120 271
121 131
122 46

$$$$

     RDKit          2D

 16 19  0  0  0  0  0  0  0  0999 V2000
   -3.9400    0.7500    0.0000 C   0  0  0  0  0  0  0  0  0  0  0  0
   -3.9300   -0.7500    0.0000 C   0  0  0  0  0  0  0  0  0  0  0  0
    2.3300    2.6000    0.0000 C   0  0  0  0  0  0  0  0  0  0  0  0
    2.2500   -2.6300    0.0000 C   0  0  0  0  0  0  0  0  0  0  0  0
    3.1100    1.3100    0.0000 C   0  0  0  0  0  0  0  0  0  0  0  0
    3.0700   -1.3700    0.0000 C   0  0  0  0  0  0  0  0  0  0  0  0
   -2.6500    1.5100    0.0000 C   0  0  0  0  0  0  0  0  0  0  0  0
   -2.6200   -1.4900    0.0000 C   0  0  0  0  0  0  0  0  0  0  0  0
    0.8200    2.5500    0.0000 C   0  0  0  0  0  0  0  0  0  0  0  0
    0.7600   -2.5400    0.0000 C   0  0  0  0  0  0  0  0  0  0  0  0
    2.3900   -0.0100    0.0000 C   0  0  0  0  0  0  0  0  0  0  0  0
   -1.3400    0.7700    0.0000 C   0  0  0  0  0  0  0  0  0  0  0  0
   -1.3400   -0.7300    0.0000 C   0  0  0  0  0  0  0  0  0  0  0  0
    0.1000    1.2300    0.0000 C   0  0  0  0  0  0  0  0  0  0  0  0
    0.0800   -1.2000    0.0000 C   0  0  0  0  0  0  0  0  0  0  0  0
    0.9200    0.0000    0.0000 C   0  0  0  0  0  0  0  0  0  0  0  0
  2  1  2  0
  5  3  2  0
  6  4  2  0
  7  1  1  0
  8  2  1  0
  9  3  1  0
 10  4  1  0
 11  5  1  0
 11  6  1  0
 12  7  2  0
 13  8  2  0
 13 12  1  0
 14  9  2  0
 14 12  1  0
 15 10  2  0
 15 13  1  0
 16 11  2  0
 16 14  1  0
 16 15  1  0
M  END
>  <NAME>  (574) 
FLUORANTHENE

>  <SYNONYMS>  (574) 


>  <SPECTRUM TYPE>  (574) 
MS1

>  <INSTRUMENT TYPE>  (574) 
EI-B

>  <INSTRUMENT>  (574) 
HITACHI M-80A

>  <ION MODE>  (574) 
P

>  <INCHIKEY>  (574) 
GVEPBJHOBDJJJI-UHFFFAOYSA-N

>  <FORMULA>  (574) 
C16H10

>  <EXACT MASS>  (574) 
202.07825032

>  <MW>  (574) 
202

>  <ID>  (574) 
JP011274

>  <CONTRIBUTOR>  (574) 
University of Tokyo Team, {Faculty of Engineering, University of Tokyo

>  <COMMENT>  (574) 
SMILES=c(c4)cc(c(c4)1)c(c3)c(c2cc3)c(ccc2)1
InChI=InChI=1S/C16H10/c1-2-8-13-12(7-1)14-9-3-5-11-6-4-10-15(13)16(11)14/h1-10H
computed SMILES=C1=CC=C2C(=C1)C3=CC=CC4=CC=CC2=C43
accession=JP011274
date=2016.01.19 (Created 2008.10.21, modified 2011.05.06)
author=TAJIMA S, GUNMA COLLEGE OF TECHNOLOGY
license=CC BY-NC-SA
exact mass=202.07825
ionization energy=70 eV
ion type=[M]+*
computed spectral entropy=1.795634060133826
computed normalized entropy=0.5993973747205298
SPLASH=splash10-0udi-0190000000-da5621de3cc73018691e
submitter=submitter = University of Tokyo Team (Faculty of Engineering, University of Tokyo)
MoNA Rating=3.75

>  <NUM PEAKS>  (574) 
20

>  <MASS SPECTRAL PEAKS>  (574) 
63 1.02
74 1.28
75 1.52
87 1.82
88 3.33
99 1.2
100 4.76
101 8.24
102 1.4
150 1.57
174 2
175 1.57
176 1.82
198 1.49
199 2.46
200 14.54
201 11.38
202 99.99
203 18.2
204 2.38

>  <PREDICTED SPECTRUM>  (574) 
39 60
40 25
50 34
51 21
62 74
63 95
68 0
73 27
74 101
75 61
76 27
81 23
84 9
85 52
86 48
87 111
88 67
96 22
98 178
99 150
100 191
101 98
110 76
111 78
112 185
113 193
122 58
123 27
124 56
126 212
136 91
137 43
149 97
150 98
161 7
162 11
163 11
173 96
174 110
175 149
176 150
197 33
198 203
199 374
200 768
201 656
202 999
203 450
204 111

$$$$

     RDKit          2D

 10 10  0  0  0  0  0  0  0  0999 V2000
    0.0005   -3.7506    0.0000 C   0  0  0  0  0  0  0  0  0  0  0  0
   -1.2990   -2.9998    0.0000 C   0  0  0  0  0  0  0  0  0  0  0  0
    1.2995   -3.0006    0.0000 C   0  0  0  0  0  0  0  0  0  0  0  0
   -0.0005   -0.7490    0.0000 C   0  0  0  0  0  0  0  0  0  0  0  0
   -1.2995   -1.4990    0.0000 C   0  0  0  0  0  0  0  0  0  0  0  0
    1.2990   -1.4998    0.0000 C   0  0  0  0  0  0  0  0  0  0  0  0
   -2.5987   -0.7492    0.0000 Br  0  0  0  0  0  0  0  0  0  0  0  0
    2.5981   -0.7498    0.0000 N   0  0  0  0  0  0  0  0  0  0  0  0
    3.8971   -1.4998    0.0000 O   0  0  0  0  0  0  0  0  0  0  0  0
    2.5981    0.7502    0.0000 O   0  0  0  0  0  0  0  0  0  0  0  0
  2  1  2  0
  3  1  1  0
  5  2  1  0
  5  4  2  0
  6  3  2  0
  6  4  1  0
  7  5  1  0
  8  6  1  0
  9  8  1  0
 10  8  2  0
M  CHG  2   8   1   9  -1
M  END
>  <NAME>  (575) 
META-BROMONITROBENZENE

>  <SYNONYMS>  (575) 
3-BROMONITROBENZENE

>  <SPECTRUM TYPE>  (575) 
MS1

>  <INSTRUMENT TYPE>  (575) 
EI-B

>  <INSTRUMENT>  (575) 
HITACHI M-80A

>  <ION MODE>  (575) 
P

>  <INCHIKEY>  (575) 
FWIROFMBWVMWLB-UHFFFAOYSA-N

>  <FORMULA>  (575) 
C6H4BrNO2

>  <EXACT MASS>  (575) 
200.942540468

>  <MW>  (575) 
201

>  <ID>  (575) 
JP011273

>  <CONTRIBUTOR>  (575) 
University of Tokyo Team, {Faculty of Engineering, University of Tokyo

>  <COMMENT>  (575) 
SMILES=[O-1][N+1](=O)c(c1)cc(Br)cc1
InChI=InChI=1S/C6H4BrNO2/c7-5-2-1-3-6(4-5)8(9)10/h1-4H
computed SMILES=O=N(=O)C=1C=CC=C(Br)C1
license=CC BY-NC-SA
exact mass=200.94254
accession=JP011273
date=2016.01.19 (Created 2008.10.21, modified 2011.05.06)
author=TAJIMA S, GUNMA COLLEGE OF TECHNOLOGY
ionization energy=70 eV
ion type=[M]+*
computed spectral entropy=3.011774305468312
computed normalized entropy=0.7738729115859864
SPLASH=splash10-0zi0-9540000000-24e842b46d470da10f15
submitter=submitter = University of Tokyo Team (Faculty of Engineering, University of Tokyo)
MoNA Rating=3.75

>  <NUM PEAKS>  (575) 
49

>  <MASS SPECTRAL PEAKS>  (575) 
26 1.81
27 1.26
30 62.11
37 5.89
38 8.96
39 5.48
40 1.1
46 6.38
49 3.74
50 60
51 9.45
61 2.32
62 3.12
63 11.31
64 7.58
65 1.01
69 3.66
73 4.18
74 26.09
75 83.58
76 86.1
77 7.13
79 1.29
81 1.25
90 2.52
92 8.67
117 1.71
119 1.56
129 1.96
131 1.93
143 24.68
144 1.44
145 23.79
146 1.4
155 67.26
156 5.71
157 64.95
158 5.25
169 1.03
171 10.5
172 1.2
173 9.34
185 13.69
186 1.33
188 1.31
201 99.99
202 9.55
203 98.73
204 9.2

>  <PREDICTED SPECTRUM>  (575) 
16 59
18 56
25 17
26 28
27 27
28 100
30 416
31 101
32 1
36 40
37 228
38 304
39 220
41 58
46 271
49 217
50 823
51 407
52 65
53 50
57 22
61 122
62 153
63 580
64 425
65 13
69 71
72 29
73 215
74 719
75 997
76 999
77 287
79 41
81 49
91 87
92 312
93 80
94 61
106 39
115 73
117 311
119 153
127 61
128 19
129 147
130 15
143 505
144 7
145 642
147 34
154 3
155 501
156 387
157 729
158 177
159 119
171 275
172 20
173 282
174 98
185 14
186 12
187 70
199 68
201 957
202 236
203 937
204 247

$$$$

     RDKit          2D

 10 10  0  0  0  0  0  0  0  0999 V2000
   -1.3000    0.7500    0.0000 C   0  0  0  0  0  0  0  0  0  0  0  0
    0.0000    1.5000    0.0000 C   0  0  0  0  0  0  0  0  0  0  0  0
   -1.3000   -0.7500    0.0000 C   0  0  0  0  0  0  0  0  0  0  0  0
    1.3000    0.7500    0.0000 C   0  0  0  0  0  0  0  0  0  0  0  0
    0.0000   -1.5000    0.0000 C   0  0  0  0  0  0  0  0  0  0  0  0
    1.3000   -0.7500    0.0000 C   0  0  0  0  0  0  0  0  0  0  0  0
   -0.0000   -3.0000    0.0000 Br  0  0  0  0  0  0  0  0  0  0  0  0
    2.5989   -1.5002    0.0000 N   0  0  0  0  0  0  0  0  0  0  0  0
    3.8981   -0.7504    0.0000 O   0  0  0  0  0  0  0  0  0  0  0  0
    2.5987   -3.0002    0.0000 O   0  0  0  0  0  0  0  0  0  0  0  0
  2  1  2  0
  3  1  1  0
  4  2  1  0
  5  3  2  0
  6  4  2  0
  6  5  1  0
  7  5  1  0
  8  6  1  0
  9  8  1  0
 10  8  2  0
M  CHG  2   8   1   9  -1
M  END
>  <NAME>  (576) 
ORTHO-BROMONITROBENZENE

>  <SYNONYMS>  (576) 
2-BROMONITROBENZENE

>  <SPECTRUM TYPE>  (576) 
MS1

>  <INSTRUMENT TYPE>  (576) 
EI-B

>  <INSTRUMENT>  (576) 
HITACHI M-80A

>  <ION MODE>  (576) 
P

>  <INCHIKEY>  (576) 
ORPVVAKYSXQCJI-UHFFFAOYSA-N

>  <FORMULA>  (576) 
C6H4BrNO2

>  <EXACT MASS>  (576) 
200.942540468

>  <MW>  (576) 
201

>  <ID>  (576) 
JP011272

>  <CONTRIBUTOR>  (576) 
University of Tokyo Team, {Faculty of Engineering, University of Tokyo

>  <COMMENT>  (576) 
SMILES=[O-1][N+1](=O)c(c1)c(Br)ccc1
InChI=InChI=1S/C6H4BrNO2/c7-5-3-1-2-4-6(5)8(9)10/h1-4H
computed SMILES=O=N(=O)C=1C=CC=CC1Br
accession=JP011272
date=2016.01.19 (Created 2008.10.21, modified 2011.05.06)
author=TAJIMA S, GUNMA COLLEGE OF TECHNOLOGY
license=CC BY-NC-SA
exact mass=200.94254
ionization energy=70 eV
ion type=[M]+*
computed spectral entropy=3.2038951835908747
computed normalized entropy=0.7995080607216872
SPLASH=splash10-0ufr-9520000000-e4a898e6627dc87eda3d
submitter=submitter = University of Tokyo Team (Faculty of Engineering, University of Tokyo)
MoNA Rating=3.75

>  <NUM PEAKS>  (576) 
55

>  <MASS SPECTRAL PEAKS>  (576) 
26 2.42
27 2.74
28 4.28
29 1.62
30 81.04
37 6.97
38 10.14
39 11.03
40 2.66
46 6.02
49 4.54
50 72.12
51 12.68
52 1.33
53 2.08
61 2.26
62 3.26
63 16.35
64 12.67
65 1.3
73 3.94
74 24.81
75 99.99
76 92.89
77 7.28
78 3.97
79 1.5
81 1.44
90 1.91
92 17.07
93 1.29
94 1.88
117 2.67
119 2.53
122 3.62
129 2.43
131 2.36
143 44.12
144 2.56
145 42.5
146 2.38
155 54.19
156 4.76
157 52.8
158 4.03
171 28.38
172 2.3
173 27.49
174 2.08
185 10.03
187 9.7
201 76.52
202 6.83
203 74.38
204 6.52

>  <PREDICTED SPECTRUM>  (576) 
16 28
26 0
30 196
36 61
37 188
38 235
39 211
40 0
41 91
44 24
46 188
49 221
50 807
51 458
52 177
53 72
55 22
57 57
61 102
62 175
63 677
64 464
65 116
66 61
67 16
72 28
73 146
74 554
75 802
76 999
77 382
78 96
79 137
80 46
81 157
91 44
92 394
93 95
94 184
95 23
106 24
117 282
119 378
122 193
129 336
130 77
143 378
145 513
146 20
147 38
155 583
156 365
157 779
158 186
159 87
171 216
173 230
174 99
183 668
184 63
185 357
186 132
187 120
201 711
202 130
203 701
204 177

$$$$

     RDKit          2D

 13 13  0  0  0  0  0  0  0  0999 V2000
   -1.6700   -0.9600    0.0000 C   0  0  0  0  0  0  0  0  0  0  0  0
   -1.6700    0.5400    0.0000 C   0  0  0  0  0  0  0  0  0  0  0  0
   -0.3700   -1.7100    0.0000 C   0  0  0  0  0  0  0  0  0  0  0  0
   -0.3700    1.2900    0.0000 C   0  0  0  0  0  0  0  0  0  0  0  0
    0.9300   -0.9600    0.0000 C   0  0  0  0  0  0  0  0  0  0  0  0
    0.9300    0.5400    0.0000 C   0  0  0  0  0  0  0  0  0  0  0  0
    3.5281    0.5404    0.0000 C   0  0  0  0  0  0  0  0  0  0  0  0
    4.8270    1.2906    0.0000 C   0  0  0  0  0  0  0  0  0  0  0  0
    5.5772   -0.0083    0.0000 F   0  0  0  0  0  0  0  0  0  0  0  0
    6.1259    2.0408    0.0000 F   0  0  0  0  0  0  0  0  0  0  0  0
    4.0768    2.5895    0.0000 F   0  0  0  0  0  0  0  0  0  0  0  0
    3.5283   -0.9596    0.0000 O   0  0  0  0  0  0  0  0  0  0  0  0
    2.2289    1.2902    0.0000 O   0  0  0  0  0  0  0  0  0  0  0  0
  2  1  2  0
  3  1  1  0
  4  2  1  0
  5  3  2  0
  6  4  2  0
  6  5  1  0
  8  7  1  0
  9  8  1  0
 10  8  1  0
 11  8  1  0
 12  7  2  0
 13  6  1  0
 13  7  1  0
M  END
>  <NAME>  (577) 
PHENYL TRIFLUOROACETATE

>  <SYNONYMS>  (577) 
TRIFLUOROACETIC ACID PHENYL ESTER

>  <SPECTRUM TYPE>  (577) 
MS1

>  <INSTRUMENT TYPE>  (577) 
EI-B

>  <INSTRUMENT>  (577) 
HITACHI M-80A

>  <ION MODE>  (577) 
P

>  <INCHIKEY>  (577) 
DVCMYAIUSOSIQP-UHFFFAOYSA-N

>  <FORMULA>  (577) 
C8H5F3O2

>  <EXACT MASS>  (577) 
190.02416406

>  <MW>  (577) 
190

>  <ID>  (577) 
JP011271

>  <CONTRIBUTOR>  (577) 
University of Tokyo Team, {Faculty of Engineering, University of Tokyo

>  <COMMENT>  (577) 
SMILES=O=C(Oc(c1)cccc1)C(F)(F)F
InChI=InChI=1S/C8H5F3O2/c9-8(10,11)7(12)13-6-4-2-1-3-5-6/h1-5H
computed SMILES=O=C(OC=1C=CC=CC1)C(F)(F)F
accession=JP011271
date=2016.01.19 (Created 2008.10.21, modified 2011.05.06)
author=TAJIMA S, GUNMA COLLEGE OF TECHNOLOGY
license=CC BY-NC-SA
exact mass=190.02416
ionization energy=70 eV
ion type=[M]+*
computed spectral entropy=2.9670125620128904
computed normalized entropy=0.7840549362059211
SPLASH=splash10-014i-9100000000-ae667447b781e5bc4b3a
submitter=submitter = University of Tokyo Team (Faculty of Engineering, University of Tokyo)
MoNA Rating=3.75

>  <NUM PEAKS>  (577) 
44

>  <MASS SPECTRAL PEAKS>  (577) 
26 2.26
27 2.81
29 1.65
31 3.32
37 5.19
38 14.51
39 54.67
40 3.79
45 4.61
49 1.79
50 20.01
51 21.19
52 1.16
53 2.02
55 1.29
61 3.06
62 6.55
63 15.69
64 6.96
65 99.99
66 9.61
69 59.28
70 1.49
73 1.06
74 4.27
75 2.59
76 2.32
77 38.3
78 3.4
84 1.6
92 1.68
93 20.82
94 10.62
95 1.72
96 12.16
97 2.57
114 1.78
115 1.03
121 4.48
143 4.55
162 20.41
163 1.59
190 52.15
191 4.8

>  <PREDICTED SPECTRUM>  (577) 
25 23
26 103
27 125
28 110
29 79
37 156
38 287
39 509
40 145
41 97
49 33
50 454
51 472
52 254
53 124
54 13
57 58
60 6
61 81
62 166
63 321
64 230
65 549
66 270
67 52
69 841
73 11
74 194
75 242
76 245
77 999
78 488
83 79
92 111
93 417
94 183
95 78
96 91
97 229
113 41
115 3
121 309
122 14
143 165
144 51
161 90
162 322
163 113
189 63
190 991
191 295
192 45

$$$$

     RDKit          2D

 11 11  0  0  0  0  0  0  0  0999 V2000
   -1.3000    0.7500    0.0000 C   0  0  0  0  0  0  0  0  0  0  0  0
   -0.0000   -1.5000    0.0000 C   0  0  0  0  0  0  0  0  0  0  0  0
    0.0000    1.5000    0.0000 C   0  0  0  0  0  0  0  0  0  0  0  0
    1.3000   -0.7500    0.0000 C   0  0  0  0  0  0  0  0  0  0  0  0
   -2.5989   -1.5002    0.0000 C   0  0  0  0  0  0  0  0  0  0  0  0
   -1.3000   -0.7500    0.0000 C   0  0  0  0  0  0  0  0  0  0  0  0
    1.3000    0.7500    0.0000 C   0  0  0  0  0  0  0  0  0  0  0  0
    2.5989    1.5002    0.0000 C   0  0  0  0  0  0  0  0  0  0  0  0
   -3.8981   -0.7504    0.0000 O   0  0  0  0  0  0  0  0  0  0  0  0
    3.8981    0.7504    0.0000 O   0  0  0  0  0  0  0  0  0  0  0  0
    2.5987    3.0002    0.0000 O   0  0  0  0  0  0  0  0  0  0  0  0
  3  1  2  0
  4  2  1  0
  6  1  1  0
  6  2  2  0
  6  5  1  0
  7  3  1  0
  7  4  2  0
  8  7  1  0
  9  5  2  0
 10  8  1  0
 11  8  2  0
M  END
>  <NAME>  (578) 
PARA-FORMYLBENZOIC ACID

>  <SYNONYMS>  (578) 


>  <SPECTRUM TYPE>  (578) 
MS1

>  <INSTRUMENT TYPE>  (578) 
EI-B

>  <INSTRUMENT>  (578) 
HITACHI M-80A

>  <ION MODE>  (578) 
P

>  <INCHIKEY>  (578) 
GOUHYARYYWKXHS-UHFFFAOYSA-N

>  <FORMULA>  (578) 
C8H6O3

>  <EXACT MASS>  (578) 
150.03169405199998

>  <MW>  (578) 
150

>  <ID>  (578) 
JP011270

>  <CONTRIBUTOR>  (578) 
University of Tokyo Team, {Faculty of Engineering, University of Tokyo

>  <COMMENT>  (578) 
SMILES=O=Cc(c1)ccc(c1)C(O)=O
InChI=InChI=1S/C8H6O3/c9-5-6-1-3-7(4-2-6)8(10)11/h1-5H,(H,10,11)
computed SMILES=O=CC1=CC=C(C=C1)C(=O)O
accession=JP011270
date=2016.01.19 (Created 2008.10.21, modified 2011.05.06)
author=TAJIMA S, GUNMA COLLEGE OF TECHNOLOGY
license=CC BY-NC-SA
exact mass=150.03169
ionization energy=70 eV
ion type=[M]+*
computed spectral entropy=3.1137304052034933
computed normalized entropy=0.8087301390264928
SPLASH=splash10-0udj-9700000000-7c8f8c2a3566d84216bd
submitter=submitter = University of Tokyo Team (Faculty of Engineering, University of Tokyo)
MoNA Rating=3.75

>  <NUM PEAKS>  (578) 
47

>  <MASS SPECTRAL PEAKS>  (578) 
17 1.07
18 3.84
26 1.9
27 5.55
29 17.52
37 5.99
38 8.33
39 16.01
40 3.65
43 1.28
44 1
45 10.63
49 4.64
50 42.45
51 47.71
52 6.38
53 5.8
61 3.11
62 3.73
63 4.49
64 1.38
65 43.32
66 5.16
73 5.1
74 22.3
75 18.06
76 20.71
77 36.6
78 4
79 1.44
89 1.27
91 1.38
93 4.21
103 4.03
104 7.3
105 23.47
106 2.07
107 1.56
121 29.8
122 4.79
133 14.53
134 1.65
135 1.76
149 99.99
150 85.97
151 10.42
152 1.29

>  <PREDICTED SPECTRUM>  (578) 
14 53
15 102
16 36
17 42
18 70
25 31
26 96
27 204
28 264
29 308
30 72
31 29
36 64
37 174
38 229
39 438
40 85
44 123
45 321
49 169
50 553
51 583
52 133
53 318
54 48
60 6
61 79
62 196
63 370
64 97
65 646
66 203
67 8
73 67
74 311
75 365
76 426
77 563
78 101
79 78
81 68
83 17
92 75
93 229
94 26
103 107
104 222
105 604
106 172
107 42
120 11
121 499
122 299
123 21
133 331
134 93
149 999
150 889
151 283
152 27

$$$$

     RDKit          2D

 13 12  0  0  0  0  0  0  0  0999 V2000
    3.0227    2.4827    0.0000 C   0  0  0  0  0  0  0  0  0  0  0  0
   -4.7716    2.4827    0.0000 C   0  0  0  0  0  0  0  0  0  0  0  0
    0.5409    6.9404    0.0000 C   0  0  0  0  0  0  0  0  0  0  0  0
   -4.2800    5.2704    0.0000 C   0  0  0  0  0  0  0  0  0  0  0  0
    1.7236    3.2327    0.0000 C   0  0  0  0  0  0  0  0  0  0  0  0
   -3.4725    3.2327    0.0000 C   0  0  0  0  0  0  0  0  0  0  0  0
   -0.4233    5.7913    0.0000 C   0  0  0  0  0  0  0  0  0  0  0  0
   -3.3158    4.1213    0.0000 C   0  0  0  0  0  0  0  0  0  0  0  0
   -0.8744    3.2327    0.0000 C   0  0  0  0  0  0  0  0  0  0  0  0
    0.4246    2.4827    0.0000 O   0  0  0  0  0  0  0  0  0  0  0  0
   -2.1735    2.4827    0.0000 O   0  0  0  0  0  0  0  0  0  0  0  0
    0.0897    4.3818    0.0000 O   0  0  0  0  0  0  0  0  0  0  0  0
   -1.8386    4.3818    0.0000 O   0  0  0  0  0  0  0  0  0  0  0  0
  5  1  1  0
  6  2  1  0
  7  3  1  0
  8  4  1  0
 10  5  1  0
 10  9  1  0
 11  6  1  0
 11  9  1  0
 12  7  1  0
 12  9  1  0
 13  8  1  0
 13  9  1  0
M  END
>  <NAME>  (579) 
TETRAETHOXYMETHANE

>  <SYNONYMS>  (579) 


>  <SPECTRUM TYPE>  (579) 
MS1

>  <INSTRUMENT TYPE>  (579) 
EI-B

>  <INSTRUMENT>  (579) 
HITACHI M-80A

>  <ION MODE>  (579) 
P

>  <INCHIKEY>  (579) 
CWLNAJYDRSIKJS-UHFFFAOYSA-N

>  <FORMULA>  (579) 
C9H20O4

>  <EXACT MASS>  (579) 
192.13615912

>  <MW>  (579) 
192

>  <ID>  (579) 
JP011269

>  <CONTRIBUTOR>  (579) 
University of Tokyo Team, {Faculty of Engineering, University of Tokyo

>  <COMMENT>  (579) 
SMILES=CCOC(OCC)(OCC)OCC
InChI=InChI=1S/C9H20O4/c1-5-10-9(11-6-2,12-7-3)13-8-4/h5-8H2,1-4H3
computed SMILES=O(CC)C(OCC)(OCC)OCC
accession=JP011269
date=2016.01.19 (Created 2008.10.21, modified 2011.05.06)
author=TAJIMA S, GUNMA COLLEGE OF TECHNOLOGY
license=CC BY-NC-SA
exact mass=192.13616
ionization energy=70 eV
ion type=[M]+*
computed spectral entropy=2.42509695940986
computed normalized entropy=0.7443293748694534
SPLASH=splash10-01r2-9300000000-aa4708a5b094a593f766
submitter=submitter = University of Tokyo Team (Faculty of Engineering, University of Tokyo)
MoNA Rating=3.75

>  <NUM PEAKS>  (579) 
26

>  <MASS SPECTRAL PEAKS>  (579) 
15 6.34
19 7.52
26 4.38
27 31.79
28 5.67
29 84.77
30 5.35
31 13.83
41 1.44
42 1.02
43 8.5
44 2.89
45 24.22
46 1.05
47 14.45
63 99.99
64 1.26
75 2.72
91 55.79
92 2.06
102 1.68
103 1.37
119 26.04
120 1.58
147 92.08
148 7.58

>  <PREDICTED SPECTRUM>  (579) 
19 11
27 8
29 226
30 91
31 252
33 25
43 364
44 82
45 438
46 184
47 202
57 96
58 111
59 196
61 90
62 74
63 578
64 85
65 110
73 253
74 189
75 405
76 134
77 185
79 16
89 57
91 518
92 147
93 26
102 96
103 114
104 91
105 12
119 726
120 200
121 123
133 39
135 5
147 999
148 466
177 150

$$$$

     RDKit          2D

 11 11  0  0  0  0  0  0  0  0999 V2000
   -1.6700   -0.9600    0.0000 C   0  0  0  0  0  0  0  0  0  0  0  0
   -1.6700    0.5400    0.0000 C   0  0  0  0  0  0  0  0  0  0  0  0
   -0.3700   -1.7100    0.0000 C   0  0  0  0  0  0  0  0  0  0  0  0
   -0.3700    1.2900    0.0000 C   0  0  0  0  0  0  0  0  0  0  0  0
    0.9300   -0.9600    0.0000 C   0  0  0  0  0  0  0  0  0  0  0  0
    0.9300    0.5400    0.0000 C   0  0  0  0  0  0  0  0  0  0  0  0
    3.5281    0.5404    0.0000 C   0  0  0  0  0  0  0  0  0  0  0  0
    2.7783   -0.7587    0.0000 F   0  0  0  0  0  0  0  0  0  0  0  0
    4.8272   -0.2094    0.0000 F   0  0  0  0  0  0  0  0  0  0  0  0
    4.2779    1.8396    0.0000 F   0  0  0  0  0  0  0  0  0  0  0  0
    2.2289    1.2902    0.0000 O   0  0  0  0  0  0  0  0  0  0  0  0
  2  1  2  0
  3  1  1  0
  4  2  1  0
  5  3  2  0
  6  4  2  0
  6  5  1  0
  8  7  1  0
  9  7  1  0
 10  7  1  0
 11  6  1  0
 11  7  1  0
M  END
>  <NAME>  (580) 
TRIFLUOROMETHOXYBENZENE

>  <SYNONYMS>  (580) 


>  <SPECTRUM TYPE>  (580) 
MS1

>  <INSTRUMENT TYPE>  (580) 
EI-B

>  <INSTRUMENT>  (580) 
HITACHI M-80A

>  <ION MODE>  (580) 
P

>  <INCHIKEY>  (580) 
GQHWSLKNULCZGI-UHFFFAOYSA-N

>  <FORMULA>  (580) 
C7H5F3O

>  <EXACT MASS>  (580) 
162.02924944

>  <MW>  (580) 
162

>  <ID>  (580) 
JP011267

>  <CONTRIBUTOR>  (580) 
University of Tokyo Team, {Faculty of Engineering, University of Tokyo

>  <COMMENT>  (580) 
SMILES=FC(F)(F)Oc(c1)cccc1
InChI=InChI=1S/C7H5F3O/c8-7(9,10)11-6-4-2-1-3-5-6/h1-5H
computed SMILES=FC(F)(F)OC=1C=CC=CC1
accession=JP011267
date=2016.01.19 (Created 2008.10.21, modified 2011.05.06)
author=TAJIMA S, GUNMA COLLEGE OF TECHNOLOGY
license=CC BY-NC-SA
exact mass=162.02925
ionization energy=70 eV
ion type=[M]+*
computed spectral entropy=2.7853703885372627
computed normalized entropy=0.7602903015102408
SPLASH=splash10-02ti-9200000000-28162e10b5f8871ad200
submitter=submitter = University of Tokyo Team (Faculty of Engineering, University of Tokyo)
MoNA Rating=3.75

>  <NUM PEAKS>  (580) 
39

>  <MASS SPECTRAL PEAKS>  (580) 
26 3.43
27 2.9
31 2.19
37 6.98
38 17.04
39 54.82
40 2.24
43 1.07
47 1.7
49 2.56
50 16.76
51 15.1
52 1.04
53 2.38
61 3.71
62 6.93
63 16.18
64 8.19
65 99.99
66 6.43
67 1.21
69 34.85
70 2.33
73 1.34
74 4.76
75 4.29
76 3.28
77 24.15
78 1.57
84 1.85
92 1.89
93 16.29
94 1.44
95 2.75
96 17.29
97 1.19
114 1.98
162 84.23
163 6.72

>  <PREDICTED SPECTRUM>  (580) 
25 35
26 151
28 106
29 115
31 161
33 42
37 175
38 340
39 624
40 125
41 7
43 76
44 27
45 3
47 96
49 57
50 412
51 397
52 63
57 118
60 28
61 47
62 111
63 311
64 280
65 605
66 317
67 11
68 74
69 849
73 18
74 201
75 282
76 76
77 999
78 374
83 172
92 357
93 467
94 198
95 514
123 41
133 9
143 110
161 206
162 996
163 253
164 32

$$$$

     RDKit          2D

 10 10  0  0  0  0  0  0  0  0999 V2000
   -1.3000    0.7500    0.0000 C   0  0  0  0  0  0  0  0  0  0  0  0
    0.0000    1.5000    0.0000 C   0  0  0  0  0  0  0  0  0  0  0  0
   -1.3000   -0.7500    0.0000 C   0  0  0  0  0  0  0  0  0  0  0  0
    1.3000    0.7500    0.0000 C   0  0  0  0  0  0  0  0  0  0  0  0
    0.0000   -1.5000    0.0000 C   0  0  0  0  0  0  0  0  0  0  0  0
    1.3000   -0.7500    0.0000 C   0  0  0  0  0  0  0  0  0  0  0  0
   -0.0000   -3.0000    0.0000 I   0  0  0  0  0  0  0  0  0  0  0  0
    2.5989   -1.5002    0.0000 N   0  0  0  0  0  0  0  0  0  0  0  0
    3.8981   -0.7504    0.0000 O   0  0  0  0  0  0  0  0  0  0  0  0
    2.5987   -3.0002    0.0000 O   0  0  0  0  0  0  0  0  0  0  0  0
  2  1  2  0
  3  1  1  0
  4  2  1  0
  5  3  2  0
  6  4  2  0
  6  5  1  0
  7  5  1  0
  8  6  1  0
  9  8  1  0
 10  8  2  0
M  CHG  2   8   1   9  -1
M  END
>  <NAME>  (581) 
ORTHO-IODONITROBENZENE

>  <SYNONYMS>  (581) 


>  <SPECTRUM TYPE>  (581) 
MS1

>  <INSTRUMENT TYPE>  (581) 
EI-B

>  <INSTRUMENT>  (581) 
HITACHI M-80A

>  <ION MODE>  (581) 
P

>  <INCHIKEY>  (581) 
JXMZUNPWVXQADG-UHFFFAOYSA-N

>  <FORMULA>  (581) 
C6H4INO2

>  <EXACT MASS>  (581) 
248.928676368

>  <MW>  (581) 
249

>  <ID>  (581) 
JP011266

>  <CONTRIBUTOR>  (581) 
University of Tokyo Team, {Faculty of Engineering, University of Tokyo

>  <COMMENT>  (581) 
SMILES=[O-1][N+1](=O)c(c1)c(I)ccc1
InChI=InChI=1S/C6H4INO2/c7-5-3-1-2-4-6(5)8(9)10/h1-4H
computed SMILES=O=N(=O)C=1C=CC=CC1I
accession=JP011266
date=2016.01.19 (Created 2008.10.21, modified 2011.05.06)
author=TAJIMA S, GUNMA COLLEGE OF TECHNOLOGY
license=CC BY-NC-SA
exact mass=248.92867
ionization energy=70 eV
ion type=[M]+*
computed spectral entropy=2.1467559136926355
computed normalized entropy=0.6754938803090067
SPLASH=splash10-000t-3090000000-cc1b490beeae79da5a41
submitter=submitter = University of Tokyo Team (Faculty of Engineering, University of Tokyo)
MoNA Rating=3.75

>  <NUM PEAKS>  (581) 
24

>  <MASS SPECTRAL PEAKS>  (581) 
30 4.1
39 2.84
50 3.23
63 6.24
64 1.71
74 1.22
75 1.93
76 10.22
77 1.41
92 35.82
93 2.55
94 1.3
122 2.4
152 1.51
191 3.76
203 2.69
204 2.38
219 11.68
220 2.35
233 54.14
234 4.47
249 99.99
250 13.48
251 1.08

>  <PREDICTED SPECTRUM>  (581) 
25 20
26 24
30 186
36 17
37 179
38 260
39 238
43 0
46 121
49 113
50 535
51 307
52 163
53 48
57 18
61 104
62 325
63 551
64 279
65 26
66 24
72 104
73 180
74 403
75 415
76 732
77 272
78 154
79 5
86 3
91 17
92 433
94 85
95 25
122 157
127 501
148 67
175 103
176 57
191 376
192 106
193 135
203 343
219 340
220 4
233 2
249 999
250 249
251 99

$$$$

     RDKit          2D

 11 11  0  0  0  0  0  0  0  0999 V2000
    3.8980    2.2543    0.0000 C   0  0  0  0  0  0  0  0  0  0  0  0
   -1.3199    2.2329    0.0000 C   0  0  0  0  0  0  0  0  0  0  0  0
   -0.0499   -0.0171    0.0000 C   0  0  0  0  0  0  0  0  0  0  0  0
   -0.0499    2.9829    0.0000 C   0  0  0  0  0  0  0  0  0  0  0  0
    1.3001    0.7329    0.0000 C   0  0  0  0  0  0  0  0  0  0  0  0
   -1.3199    0.7329    0.0000 C   0  0  0  0  0  0  0  0  0  0  0  0
    1.3001    2.2329    0.0000 C   0  0  0  0  0  0  0  0  0  0  0  0
   -2.6227   -0.0107    0.0000 C   0  0  0  0  0  0  0  0  0  0  0  0
   -2.6300   -1.5107    0.0000 O   0  0  0  0  0  0  0  0  0  0  0  0
   -3.9180    0.7457    0.0000 O   0  0  0  0  0  0  0  0  0  0  0  0
    2.5929    2.9936    0.0000 O   0  0  0  0  0  0  0  0  0  0  0  0
  4  2  2  0
  5  3  1  0
  6  2  1  0
  6  3  2  0
  7  4  1  0
  7  5  2  0
  8  6  1  0
  9  8  1  0
 10  8  2  0
 11  1  1  0
 11  7  1  0
M  END
>  <NAME>  (582) 
PARA-ANISIC ACID

>  <SYNONYMS>  (582) 
4-METHOXYBENZOIC ACID

>  <SPECTRUM TYPE>  (582) 
MS1

>  <INSTRUMENT TYPE>  (582) 
EI-B

>  <INSTRUMENT>  (582) 
HITACHI M-80A

>  <ION MODE>  (582) 
P

>  <INCHIKEY>  (582) 
ZEYHEAKUIGZSGI-UHFFFAOYSA-N

>  <FORMULA>  (582) 
C8H8O3

>  <EXACT MASS>  (582) 
152.04734411599998

>  <MW>  (582) 
152

>  <ID>  (582) 
JP011265

>  <CONTRIBUTOR>  (582) 
University of Tokyo Team, {Faculty of Engineering, University of Tokyo

>  <COMMENT>  (582) 
SMILES=COc(c1)ccc(c1)C(O)=O
InChI=InChI=1S/C8H8O3/c1-11-7-4-2-6(3-5-7)8(9)10/h2-5H,1H3,(H,9,10)
computed SMILES=O=C(O)C1=CC=C(OC)C=C1
accession=JP011265
date=2016.01.19 (Created 2008.10.21, modified 2011.05.06)
author=TAJIMA S, GUNMA COLLEGE OF TECHNOLOGY
license=CC BY-NC-SA
exact mass=152.04734
ionization energy=70 eV
ion type=[M]+*
computed spectral entropy=3.046275332744182
computed normalized entropy=0.7956543894493877
SPLASH=splash10-0udr-9700000000-a7c8d60e07932915543c
submitter=submitter = University of Tokyo Team (Faculty of Engineering, University of Tokyo)
MoNA Rating=3.75

>  <NUM PEAKS>  (582) 
46

>  <MASS SPECTRAL PEAKS>  (582) 
15 17.17
27 7.12
29 6.72
30 1.13
31 1.43
37 4.17
38 11.31
39 13.01
45 11.31
49 1.25
50 13.12
51 9.64
52 2.69
53 11.62
55 1.88
61 3.12
62 8.47
63 24.12
64 16.78
65 11.02
66 2.38
73 1.26
74 5.89
75 5.02
76 5.01
77 27.43
78 4.03
79 3.25
81 14.07
92 21.78
93 2.02
104 1.01
105 3.01
106 1.19
107 8.71
108 1.17
109 7.36
119 1.07
120 1.32
121 1.64
135 90.79
136 8.21
137 1.19
152 99.99
153 11.41
154 1.21

>  <PREDICTED SPECTRUM>  (582) 
14 15
15 78
16 11
17 18
18 8
25 8
26 39
27 64
28 23
29 112
31 6
36 1
37 96
38 164
39 218
40 24
41 78
44 81
45 177
46 1
49 82
50 321
51 301
52 163
53 230
54 60
55 75
57 80
59 60
60 27
61 132
62 238
63 435
64 342
65 355
66 132
67 53
68 29
69 115
70 17
73 47
74 218
75 268
76 234
77 599
78 170
79 221
80 99
81 175
82 34
86 13
91 155
92 439
93 197
94 74
95 73
96 57
104 31
105 166
106 106
107 621
108 256
109 220
119 23
120 20
121 164
122 103
123 72
124 37
125 38
134 30
135 999
136 188
137 244
138 26
151 124
152 925
153 293
154 121

$$$$

     RDKit          2D

  7  6  0  0  0  0  0  0  0  0999 V2000
    1.6238    1.6875    0.0000 C   0  0  0  0  0  0  0  0  0  0  0  0
   -3.5724    1.6875    0.0000 C   0  0  0  0  0  0  0  0  0  0  0  0
   -2.2733    3.9375    0.0000 C   0  0  0  0  0  0  0  0  0  0  0  0
   -0.9743    1.6875    0.0000 C   0  0  0  0  0  0  0  0  0  0  0  0
    0.3248    2.4375    0.0000 C   0  0  0  0  0  0  0  0  0  0  0  0
   -2.2733    2.4375    0.0000 N   0  0  0  0  0  0  0  0  0  0  0  0
    0.3248    3.9375    0.0000 O   0  0  0  0  0  0  0  0  0  0  0  0
  5  1  1  0
  5  4  1  0
  6  2  1  0
  6  3  1  0
  6  4  1  0
  7  5  1  0
M  END
>  <NAME>  (583) 
1-DIMETHYLAMINO-2-PROPANOL

>  <SYNONYMS>  (583) 
N,N-DIMETHYL-2-HYDROXYPROPYLAMINE

>  <SPECTRUM TYPE>  (583) 
MS1

>  <INSTRUMENT TYPE>  (583) 
EI-B

>  <INSTRUMENT>  (583) 
HITACHI M-80A

>  <ION MODE>  (583) 
P

>  <INCHIKEY>  (583) 
NCXUNZWLEYGQAH-UHFFFAOYSA-N

>  <FORMULA>  (583) 
C5H13NO

>  <EXACT MASS>  (583) 
103.099714036

>  <MW>  (583) 
103

>  <ID>  (583) 
JP011264

>  <CONTRIBUTOR>  (583) 
University of Tokyo Team, {Faculty of Engineering, University of Tokyo

>  <COMMENT>  (583) 
SMILES=CN(C)CC(C)O
InChI=InChI=1S/C5H13NO/c1-5(7)4-6(2)3/h5,7H,4H2,1-3H3
computed SMILES=OC(C)CN(C)C
accession=JP011264
date=2016.01.19 (Created 2008.10.21, modified 2011.05.06)
author=TAJIMA S, GUNMA COLLEGE OF TECHNOLOGY
license=CC BY-NC-SA
exact mass=103.09971
ionization energy=70 eV
ion type=[M]+*
computed spectral entropy=1.8013255587675299
computed normalized entropy=0.6117720800169133
SPLASH=splash10-0a4i-9000000000-300e4c96d72dcb35c51b
submitter=submitter = University of Tokyo Team (Faculty of Engineering, University of Tokyo)
MoNA Rating=3.75

>  <NUM PEAKS>  (583) 
19

>  <MASS SPECTRAL PEAKS>  (583) 
15 4.83
27 2.22
28 1.67
29 2.99
30 6.1
31 1.49
39 1.37
41 2.92
42 14.73
43 5.19
44 9.58
45 2.48
56 1.26
57 2.72
58 99.99
59 4.62
86 1.35
88 5.1
103 3.35

>  <PREDICTED SPECTRUM>  (583) 
14 19
15 86
16 7
18 26
26 43
27 164
28 173
29 189
30 269
31 93
32 6
39 58
40 92
41 239
42 444
43 212
44 335
45 363
46 38
52 22
56 155
57 149
58 999
59 322
60 78
72 22
84 36
88 94
102 71
103 185
104 49

$$$$

     RDKit          2D

  8  8  0  0  0  0  0  0  0  0999 V2000
   -1.3000    0.7500    0.0000 C   0  0  0  0  0  0  0  0  0  0  0  0
   -0.0000   -1.5000    0.0000 C   0  0  0  0  0  0  0  0  0  0  0  0
    0.0000    1.5000    0.0000 C   0  0  0  0  0  0  0  0  0  0  0  0
    1.3000   -0.7500    0.0000 C   0  0  0  0  0  0  0  0  0  0  0  0
   -1.3000   -0.7500    0.0000 C   0  0  0  0  0  0  0  0  0  0  0  0
    1.3000    0.7500    0.0000 C   0  0  0  0  0  0  0  0  0  0  0  0
   -2.5989   -1.5002    0.0000 N   0  0  0  0  0  0  0  0  0  0  0  0
    2.5989    1.5002    0.0000 O   0  0  0  0  0  0  0  0  0  0  0  0
  3  1  2  0
  4  2  1  0
  5  1  1  0
  5  2  2  0
  6  3  1  0
  6  4  2  0
  7  5  1  0
  8  6  1  0
M  END
>  <NAME>  (584) 
PARA-AMINOPHENOL

>  <SYNONYMS>  (584) 
4-AMINOPHENOL

>  <SPECTRUM TYPE>  (584) 
MS1

>  <INSTRUMENT TYPE>  (584) 
EI-B

>  <INSTRUMENT>  (584) 
HITACHI M-80A

>  <ION MODE>  (584) 
P

>  <INCHIKEY>  (584) 
PLIKAWJENQZMHA-UHFFFAOYSA-N

>  <FORMULA>  (584) 
C6H7NO

>  <EXACT MASS>  (584) 
109.052763844

>  <MW>  (584) 
109

>  <ID>  (584) 
JP011263

>  <CONTRIBUTOR>  (584) 
University of Tokyo Team, {Faculty of Engineering, University of Tokyo

>  <COMMENT>  (584) 
SMILES=Nc(c1)ccc(O)c1
InChI=InChI=1S/C6H7NO/c7-5-1-3-6(8)4-2-5/h1-4,8H,7H2
computed SMILES=OC1=CC=C(N)C=C1
accession=JP011263
date=2016.01.19 (Created 2008.10.21, modified 2011.05.06)
author=TAJIMA S, GUNMA COLLEGE OF TECHNOLOGY
license=CC BY-NC-SA
exact mass=109.05276
ionization energy=70 eV
ion type=[M]+*
computed spectral entropy=2.8909974661554347
computed normalized entropy=0.8006267481274306
SPLASH=splash10-0pe9-9300000000-8ff47e2157f6fbfe6754
submitter=submitter = University of Tokyo Team (Faculty of Engineering, University of Tokyo)
MoNA Rating=3.75

>  <NUM PEAKS>  (584) 
37

>  <MASS SPECTRAL PEAKS>  (584) 
25 1.32
26 8.36
27 18.28
28 17.87
29 18.64
30 2.68
37 2.95
38 5.99
39 14.46
40 4.44
41 9.38
42 4.15
49 1.15
50 4.15
51 7.18
52 22.42
53 28.9
54 16.92
55 8.18
56 1.29
61 1.77
62 2.64
63 5.54
64 3.82
65 4.19
66 1.93
67 1
68 2.51
78 1.35
79 1.4
80 58.4
81 13.95
82 4.25
91 1.04
108 10.78
109 99.99
110 10.61

>  <PREDICTED SPECTRUM>  (584) 
16 23
17 19
18 10
25 3
26 66
27 139
28 122
29 75
34 8
36 34
37 81
38 115
39 332
40 115
41 272
42 96
49 18
50 124
51 202
52 446
53 450
54 309
55 173
56 9
57 48
61 38
62 96
63 164
64 105
65 287
66 109
67 64
69 59
70 0
74 5
78 34
79 73
80 487
81 527
82 180
91 51
92 31
107 29
108 408
109 999
110 309
111 41

$$$$

     RDKit          2D

  8  8  0  0  0  0  0  0  0  0999 V2000
   -0.0000   -1.8800    0.0000 C   0  0  0  0  0  0  0  0  0  0  0  0
    1.3000   -1.1200    0.0000 C   0  0  0  0  0  0  0  0  0  0  0  0
   -1.3000   -1.1200    0.0000 C   0  0  0  0  0  0  0  0  0  0  0  0
   -0.0000    1.1200    0.0000 C   0  0  0  0  0  0  0  0  0  0  0  0
    1.3000    0.3800    0.0000 C   0  0  0  0  0  0  0  0  0  0  0  0
   -1.3000    0.3800    0.0000 C   0  0  0  0  0  0  0  0  0  0  0  0
    2.5967    1.1340    0.0000 N   0  0  0  0  0  0  0  0  0  0  0  0
   -2.5967    1.1340    0.0000 O   0  0  0  0  0  0  0  0  0  0  0  0
  2  1  2  0
  3  1  1  0
  5  2  1  0
  5  4  2  0
  6  3  2  0
  6  4  1  0
  7  5  1  0
  8  6  1  0
M  END
>  <NAME>  (585) 
META-AMINOPHENOL

>  <SYNONYMS>  (585) 
3-AMINOPHENOL

>  <SPECTRUM TYPE>  (585) 
MS1

>  <INSTRUMENT TYPE>  (585) 
EI-B

>  <INSTRUMENT>  (585) 
HITACHI M-80A

>  <ION MODE>  (585) 
P

>  <INCHIKEY>  (585) 
CWLKGDAVCFYWJK-UHFFFAOYSA-N

>  <FORMULA>  (585) 
C6H7NO

>  <EXACT MASS>  (585) 
109.052763844

>  <MW>  (585) 
109

>  <ID>  (585) 
JP011262

>  <CONTRIBUTOR>  (585) 
University of Tokyo Team, {Faculty of Engineering, University of Tokyo

>  <COMMENT>  (585) 
SMILES=Nc(c1)cc(O)cc1
InChI=InChI=1S/C6H7NO/c7-5-2-1-3-6(8)4-5/h1-4,8H,7H2
computed SMILES=OC1=CC=CC(N)=C1
accession=JP011262
date=2016.01.19 (Created 2008.10.21, modified 2011.05.06)
author=TAJIMA S, GUNMA COLLEGE OF TECHNOLOGY
license=CC BY-NC-SA
exact mass=109.05276
ionization energy=70 eV
ion type=[M]+*
computed spectral entropy=3.033585731452415
computed normalized entropy=0.8116249003424963
SPLASH=splash10-0pc0-9200000000-2adddd2c83a52d651775
submitter=submitter = University of Tokyo Team (Faculty of Engineering, University of Tokyo)
MoNA Rating=3.75

>  <NUM PEAKS>  (585) 
42

>  <MASS SPECTRAL PEAKS>  (585) 
26 4.08
27 11.25
28 8.16
29 7.86
30 1.57
37 15.11
38 11.06
39 19.75
40 8.76
41 12.59
42 7.68
43 1.64
44 1.32
49 1.99
50 7.19
51 9.46
52 15.92
53 25.2
54 12.24
55 5.05
61 3
62 4.59
63 8.84
64 6.65
65 6.65
66 4.05
67 1.76
68 7.6
69 1.92
70 2.04
76 1.24
78 2.32
79 2.01
80 70.92
81 25.15
82 7.09
91 2.61
92 1.25
94 1.03
108 4.63
109 99.99
110 7.77

>  <PREDICTED SPECTRUM>  (585) 
16 20
17 10
25 15
26 66
27 140
28 99
29 53
30 28
36 40
37 128
38 182
39 355
40 134
41 195
42 64
49 48
50 154
51 227
52 369
53 384
54 243
55 125
56 1
57 43
61 92
62 125
63 216
64 189
65 314
66 98
67 102
68 33
69 38
70 10
76 18
78 58
79 135
80 506
81 394
82 211
90 38
91 115
92 182
93 47
94 0
107 17
108 440
109 999
110 303
111 60

$$$$

     RDKit          2D

 23 24  0  0  0  0  0  0  0  0999 V2000
   -3.1239    2.0857    0.0000 C   0  0  0  0  0  0  0  0  0  0  0  0
   -6.2899    0.7030    0.0000 C   0  0  0  0  0  0  0  0  0  0  0  0
    1.6322    2.2431    0.0000 C   0  0  0  0  0  0  0  0  0  0  0  0
   -1.6322    2.2431    0.0000 C   0  0  0  0  0  0  0  0  0  0  0  0
   -5.1777   -0.3035    0.0000 C   0  0  0  0  0  0  0  0  0  0  0  0
    5.3275   -7.1757    0.0000 C   0  0  0  0  0  0  0  0  0  0  0  0
    6.4407   -6.1690    0.0000 C   0  0  0  0  0  0  0  0  0  0  0  0
    3.8989   -6.7159    0.0000 C   0  0  0  0  0  0  0  0  0  0  0  0
    6.1252   -4.7026    0.0000 C   0  0  0  0  0  0  0  0  0  0  0  0
    3.5834   -5.2495    0.0000 C   0  0  0  0  0  0  0  0  0  0  0  0
    4.3810   -2.7764    0.0000 C   0  0  0  0  0  0  0  0  0  0  0  0
    0.7500    1.0300    0.0000 C   0  0  0  0  0  0  0  0  0  0  0  0
    4.6965   -4.2428    0.0000 C   0  0  0  0  0  0  0  0  0  0  0  0
   -0.7500    1.0300    0.0000 C   0  0  0  0  0  0  0  0  0  0  0  0
    1.2100   -0.3900    0.0000 C   0  0  0  0  0  0  0  0  0  0  0  0
   -1.2100   -0.3900    0.0000 C   0  0  0  0  0  0  0  0  0  0  0  0
    2.6377   -0.8500    0.0000 C   0  0  0  0  0  0  0  0  0  0  0  0
   -2.6377   -0.8500    0.0000 C   0  0  0  0  0  0  0  0  0  0  0  0
    0.0000   -1.2800    0.0000 N   0  0  0  0  0  0  0  0  0  0  0  0
    3.7499    0.1565    0.0000 O   0  0  0  0  0  0  0  0  0  0  0  0
   -2.9533   -2.3164    0.0000 O   0  0  0  0  0  0  0  0  0  0  0  0
   -3.7499    0.1565    0.0000 O   0  0  0  0  0  0  0  0  0  0  0  0
    2.9533   -2.3164    0.0000 O   0  0  0  0  0  0  0  0  0  0  0  0
  4  1  1  0
  5  2  1  0
  7  6  2  0
  8  6  1  0
  9  7  1  0
 10  8  2  0
 12  3  1  0
 13  9  2  0
 13 10  1  0
 13 11  1  0
 14  4  1  0
 14 12  1  0
 15 12  2  0
 16 14  2  0
 17 15  1  0
 18 16  1  0
 19 15  1  0
 19 16  1  0
 20 17  2  0
 21 18  2  0
 22  5  1  0
 22 18  1  0
 23 11  1  0
 23 17  1  0
M  END
>  <NAME>  (586) 
2-ETHOXYCARBONYL-3-ETHYL-4-METHYL-5-BENZYLOXYCARBONYL-PYRROLE

>  <SYNONYMS>  (586) 


>  <SPECTRUM TYPE>  (586) 
MS1

>  <INSTRUMENT TYPE>  (586) 
EI-B

>  <INSTRUMENT>  (586) 
JEOL JMS-DX-300

>  <ION MODE>  (586) 
P

>  <INCHIKEY>  (586) 
ACIHICHTZKRCGJ-UHFFFAOYSA-N

>  <FORMULA>  (586) 
C18H21NO4

>  <EXACT MASS>  (586) 
315.147058152

>  <MW>  (586) 
315

>  <ID>  (586) 
JP011210

>  <CONTRIBUTOR>  (586) 
University of Tokyo Team, {Faculty of Engineering, University of Tokyo

>  <COMMENT>  (586) 
SMILES=CCC1=C(NC(=C1C)C(=O)OCC2=CC=CC=C2)C(=O)OCC
InChI=InChI=1S/C18H21NO4/c1-4-14-12(3)15(19-16(14)18(21)22-5-2)17(20)23-11-13-9-7-6-8-10-13/h6-10,19H,4-5,11H2,1-3H3
computed SMILES=O=C(OCC=1C=CC=CC1)C=2NC(C(=O)OCC)=C(C2C)CC
accession=JP011210
date=2016.01.19 (Created 2008.10.21, modified 2011.05.06)
author=SAWADA M, THE INST. OF SCIENTIFIC AND INDUSTRIALRESEARCH OSAKA UNIV.
license=CC BY-NC-SA
exact mass=315.14706
ionization energy=70 eV
ion type=[M]+*
computed spectral entropy=3.962913470386099
computed normalized entropy=0.8532687184273698
SPLASH=splash10-01dl-9632000000-988b97d259dc54ba438e
submitter=submitter = University of Tokyo Team (Faculty of Engineering, University of Tokyo)
MoNA Rating=3.75

>  <NUM PEAKS>  (586) 
104

>  <MASS SPECTRAL PEAKS>  (586) 
39 21.6
40 4.4
41 17.8
42 2.7
43 8.9
44 28.2
45 3.6
50 3.3
51 12.9
52 8.7
53 13.3
54 3.6
55 7.6
56 2
57 5.1
63 7.6
64 4.9
65 50
66 9.1
67 8.2
68 3.8
69 10.3
71 1.8
76 1.8
77 34.4
78 12.9
79 37.1
80 8.4
81 8.2
82 1.4
83 1.8
89 9.1
90 8.4
91 93.8
92 39.6
93 4.7
94 2.2
95 4.8
96 1.3
97 3.6
104 8.2
105 10.4
106 15.8
107 10.4
108 4.2
109 1.8
119 4.4
120 2.7
121 1.4
122 1.4
123 1.6
125 6.4
131 1.1
132 1.8
133 7.1
134 8.4
135 6.9
136 3.6
137 3.6
146 1.6
147 1.3
148 1.3
149 3.8
150 1.5
151 3.6
152 12
153 9.3
154 1.9
160 16.9
161 2.7
162 40
163 5.9
164 6.7
165 2
166 2.9
167 2.7
168 1.4
178 55.6
179 10.2
180 12.4
181 28.4
182 15.3
183 3.3
192 1.8
196 6.7
206 5.6
208 31.6
209 7.1
210 2.9
224 93.1
225 17.6
226 4.2
242 2.9
254 8.4
255 1.6
268 7.3
269 4.7
270 13.1
271 3.1
286 8.4
287 1.8
300 8.4
315 99.99
316 29.6

>  <PREDICTED SPECTRUM>  (586) 
27 47
28 13
29 82
38 27
39 206
40 91
41 217
42 96
43 67
44 110
45 71
50 54
51 162
52 113
53 128
54 43
55 113
56 12
57 40
62 1
63 136
64 93
65 378
66 132
67 107
68 58
69 85
70 33
71 12
74 20
75 64
76 68
77 247
78 160
79 240
80 122
81 69
82 33
83 56
84 13
86 7
89 186
90 89
91 848
92 274
93 100
94 102
95 84
97 56
98 18
102 4
103 82
104 98
105 197
106 135
107 172
108 93
109 51
111 36
114 44
115 64
116 3
117 35
118 7
120 58
121 90
122 106
123 95
124 45
125 55
127 61
128 8
131 29
132 124
133 144
134 188
135 164
136 136
137 52
138 11
139 29
142 1
146 69
148 45
149 112
150 215
151 144
152 174
153 109
154 87
162 243
163 155
164 139
165 106
166 98
167 96
168 70
169 25
170 10
176 35
178 537
179 208
180 277
181 223
182 77
183 77
192 42
196 212
197 84
206 220
207 24
208 338
209 133
210 51
222 5
224 999
225 402
226 195
227 54
241 33
242 36
243 20
254 131
255 23
268 212
269 214
270 307
271 111
286 250
287 109
288 0
300 92
301 32
314 69
315 813
316 373
317 83

$$$$

     RDKit          2D

 27 30  0  0  0  0  0  0  0  0999 V2000
    5.1971   -5.2500    0.0000 C   0  0  0  0  0  0  0  0  0  0  0  0
    3.8982    6.0002    0.0000 C   0  0  0  0  0  0  0  0  0  0  0  0
    5.1976   -3.7492    0.0000 C   0  0  0  0  0  0  0  0  0  0  0  0
    3.8976   -6.0008    0.0000 C   0  0  0  0  0  0  0  0  0  0  0  0
    2.5983    5.2500    0.0000 C   0  0  0  0  0  0  0  0  0  0  0  0
    5.1983    5.2504    0.0000 C   0  0  0  0  0  0  0  0  0  0  0  0
    3.8986   -2.9992    0.0000 C   0  0  0  0  0  0  0  0  0  0  0  0
    2.5986   -5.2508    0.0000 C   0  0  0  0  0  0  0  0  0  0  0  0
    2.5986    3.7500    0.0000 C   0  0  0  0  0  0  0  0  0  0  0  0
    5.1986    3.7504    0.0000 C   0  0  0  0  0  0  0  0  0  0  0  0
   -2.6000    0.7500    0.0000 C   0  0  0  0  0  0  0  0  0  0  0  0
   -1.3000    1.5000    0.0000 C   0  0  0  0  0  0  0  0  0  0  0  0
    1.3000   -3.0000    0.0000 C   0  0  0  0  0  0  0  0  0  0  0  0
    3.8989    1.5002    0.0000 C   0  0  0  0  0  0  0  0  0  0  0  0
    2.5990   -3.7500    0.0000 C   0  0  0  0  0  0  0  0  0  0  0  0
    3.8987    3.0002    0.0000 C   0  0  0  0  0  0  0  0  0  0  0  0
   -2.6000   -0.7500    0.0000 C   0  0  0  0  0  0  0  0  0  0  0  0
    0.0000   -0.7500    0.0000 C   0  0  0  0  0  0  0  0  0  0  0  0
    1.3000    1.5000    0.0000 C   0  0  0  0  0  0  0  0  0  0  0  0
    2.6000   -0.7500    0.0000 C   0  0  0  0  0  0  0  0  0  0  0  0
   -1.3000   -1.5000    0.0000 N   0  0  0  0  0  0  0  0  0  0  0  0
    0.0000    0.7500    0.0000 N   0  0  0  0  0  0  0  0  0  0  0  0
    1.3000   -1.5000    0.0000 N   0  0  0  0  0  0  0  0  0  0  0  0
    2.6000    0.7500    0.0000 N   0  0  0  0  0  0  0  0  0  0  0  0
   -3.8989   -1.5002    0.0000 O   0  0  0  0  0  0  0  0  0  0  0  0
    1.3000    3.0000    0.0000 O   0  0  0  0  0  0  0  0  0  0  0  0
    3.8989   -1.5002    0.0000 O   0  0  0  0  0  0  0  0  0  0  0  0
  3  1  2  0
  4  1  1  0
  5  2  2  0
  6  2  1  0
  7  3  1  0
  8  4  2  0
  9  5  1  0
 10  6  2  0
 12 11  2  0
 15  7  2  0
 15  8  1  0
 15 13  1  0
 16  9  2  0
 16 10  1  0
 16 14  1  0
 17 11  1  0
 21 17  1  0
 21 18  2  0
 22 12  1  0
 22 18  1  0
 22 19  1  0
 23 13  1  0
 23 18  1  0
 23 20  1  0
 24 14  1  0
 24 19  1  0
 24 20  1  0
 25 17  2  0
 26 19  2  0
 27 20  2  0
M  END
>  <NAME>  (587) 
1,3-DIBENZYL-2H-PYRIMIDO(1,2-A)(1,3,5)TRIAZINE-2,4,8(1H,3H)-TRIONE

>  <SYNONYMS>  (587) 


>  <SPECTRUM TYPE>  (587) 
MS1

>  <INSTRUMENT TYPE>  (587) 
EI-B

>  <INSTRUMENT>  (587) 
JEOL JMS-DX-300

>  <ION MODE>  (587) 
P

>  <INCHIKEY>  (587) 
MTHWPJNAKAQTFK-UHFFFAOYSA-N

>  <FORMULA>  (587) 
C20H16N4O3

>  <EXACT MASS>  (587) 
360.12224037199996

>  <MW>  (587) 
360

>  <ID>  (587) 
JP011209

>  <CONTRIBUTOR>  (587) 
University of Tokyo Team, {Faculty of Engineering, University of Tokyo

>  <COMMENT>  (587) 
SMILES=c(c4)ccc(c4)CN(C(=O)1)C(=O)N(C([H])=3)C(=NC(=O)C([H])3)N(Cc(c2)cccc2)1
InChI=InChI=1S/C20H16N4O3/c25-17-11-12-22-18(21-17)23(13-15-7-3-1-4-8-15)20(27)24(19(22)26)14-16-9-5-2-6-10-16/h1-12H,13-14H2
computed SMILES=O=C1N=C2N(C=C1)C(=O)N(C(=O)N2CC=3C=CC=CC3)CC=4C=CC=CC4
license=CC BY-NC-SA
exact mass=360.12224
accession=JP011209
date=2016.01.19 (Created 2008.10.21, modified 2011.05.06)
author=SAWADA M, THE INST. OF SCIENTIFIC AND INDUSTRIALRESEARCH OSAKA UNIV.
ionization energy=70 eV
ion type=[M]+*
computed spectral entropy=3.2993871672618056
computed normalized entropy=0.7994377840511626
SPLASH=splash10-03xu-9524000000-ecbb0efd09e12498106f
submitter=submitter = University of Tokyo Team (Faculty of Engineering, University of Tokyo)
MoNA Rating=3.75

>  <NUM PEAKS>  (587) 
62

>  <MASS SPECTRAL PEAKS>  (587) 
39 8.4
40 6.6
41 4.9
43 2.7
44 43.6
45 1.5
50 1.7
51 6.9
52 1.5
53 2.2
55 2
56 1.5
57 1.3
63 4
64 1.3
65 27.7
66 1.8
67 1.8
68 4
69 4.9
70 24.6
71 1.3
77 14.8
78 4
79 1.7
89 6.4
90 4
91 67.5
92 10.6
95 10.8
96 15.5
97 1.4
103 2.2
104 10.2
105 4.6
106 3.5
120 1.5
129 1.8
131 12.6
132 67.7
133 10.8
138 1.8
139 2
158 10.6
159 1.4
163 11.7
164 4
170 1.5
171 2.9
182 1.8
198 17.3
199 4
200 3
226 3.1
227 1.3
255 1.5
256 6
269 52.2
270 11.9
359 2.7
360 99.99
361 39.4

>  <PREDICTED SPECTRUM>  (587) 
37 15
38 74
39 238
40 122
41 199
42 140
43 17
44 222
49 10
50 115
51 238
52 148
53 106
54 152
55 98
56 137
57 20
62 41
63 203
64 89
65 452
66 130
67 99
68 102
69 88
70 200
74 50
75 45
76 109
77 289
78 236
79 114
80 84
81 33
82 106
83 64
84 33
89 239
90 145
91 925
92 311
93 78
94 31
95 42
96 91
97 68
98 13
101 4
102 41
103 160
104 336
105 140
106 263
107 64
108 56
109 32
111 2
115 57
116 105
117 19
118 102
119 66
120 45
121 3
122 51
123 21
127 18
128 33
129 32
130 47
131 237
132 751
133 458
134 45
143 12
144 147
145 34
146 20
150 18
156 63
157 38
158 249
159 78
160 17
162 1
169 23
170 122
171 154
172 31
173 22
182 9
183 8
184 84
185 17
186 9
187 17
198 183
199 233
200 117
201 31
224 36
225 35
226 199
227 133
228 78
241 64
254 17
255 99
256 61
269 700
270 286
271 29
283 89
284 20
332 82
359 172
360 999
361 502
362 100

$$$$

     RDKit          2D

 13 14  0  0  0  0  0  0  0  0999 V2000
   -2.6000    0.7500    0.0000 C   0  0  0  0  0  0  0  0  0  0  0  0
   -1.3000    1.5000    0.0000 C   0  0  0  0  0  0  0  0  0  0  0  0
   -2.6000   -0.7500    0.0000 C   0  0  0  0  0  0  0  0  0  0  0  0
    0.0000   -0.7500    0.0000 C   0  0  0  0  0  0  0  0  0  0  0  0
    2.6000   -0.7500    0.0000 C   0  0  0  0  0  0  0  0  0  0  0  0
    1.3000    1.5000    0.0000 C   0  0  0  0  0  0  0  0  0  0  0  0
   -1.3000   -1.5000    0.0000 N   0  0  0  0  0  0  0  0  0  0  0  0
    1.3000   -1.5000    0.0000 N   0  0  0  0  0  0  0  0  0  0  0  0
    2.6000    0.7500    0.0000 N   0  0  0  0  0  0  0  0  0  0  0  0
    0.0000    0.7500    0.0000 N   0  0  0  0  0  0  0  0  0  0  0  0
   -3.8989   -1.5002    0.0000 O   0  0  0  0  0  0  0  0  0  0  0  0
    3.8989   -1.5002    0.0000 O   0  0  0  0  0  0  0  0  0  0  0  0
    1.3000    3.0000    0.0000 O   0  0  0  0  0  0  0  0  0  0  0  0
  2  1  2  0
  3  1  1  0
  7  3  2  0
  7  4  1  0
  8  4  2  0
  8  5  1  0
  9  5  2  0
  9  6  1  0
 10  2  1  0
 10  4  1  0
 10  6  1  0
 11  3  1  0
 12  5  1  0
 13  6  2  0
M  END
>  <NAME>  (588) 
2H-PYRIMIDO(1,2-A)(1,3,5)TRIAZINE-2,4,8(1H,3H)-TRIONE

>  <SYNONYMS>  (588) 


>  <SPECTRUM TYPE>  (588) 
MS1

>  <INSTRUMENT TYPE>  (588) 
EI-B

>  <INSTRUMENT>  (588) 
JEOL JMS-DX-300

>  <ION MODE>  (588) 
P

>  <INCHIKEY>  (588) 
KRKHYEGWNVQRIP-UHFFFAOYSA-N

>  <FORMULA>  (588) 
C6H4N4O3

>  <EXACT MASS>  (588) 
180.02833998799997

>  <MW>  (588) 
180

>  <ID>  (588) 
JP011208

>  <CONTRIBUTOR>  (588) 
University of Tokyo Team, {Faculty of Engineering, University of Tokyo

>  <COMMENT>  (588) 
SMILES=O=C(C=2)N=C(N1)N(C2)C(=O)NC(=O)1
InChI=InChI=1S/C6H4N4O3/c11-3-1-2-10-4(7-3)8-5(12)9-6(10)13/h1-2H,(H2,7,8,9,11,12,13)
computed SMILES=O=C1N=C(O)N=C2N=C(O)C=CN12
accession=JP011208
date=2016.01.19 (Created 2008.10.21, modified 2011.05.06)
author=SAWADA M, THE INST. OF SCIENTIFIC AND INDUSTRIALRESEARCH OSAKA UNIV.
license=CC BY-NC-SA
exact mass=180.02834
ionization energy=70 eV
ion type=[M]+*
computed spectral entropy=2.854532199428061
computed normalized entropy=0.7847325325327208
SPLASH=splash10-000f-9700000000-c8c4e58e68f85992a425
submitter=submitter = University of Tokyo Team (Faculty of Engineering, University of Tokyo)
MoNA Rating=3.75

>  <NUM PEAKS>  (588) 
38

>  <MASS SPECTRAL PEAKS>  (588) 
38 2.3
39 4.9
40 30.6
41 20.8
42 13.5
43 32.7
44 41.6
52 2
53 6.7
54 8.4
55 1.7
56 1
65 1.4
66 2
67 6.2
68 10
69 63
70 12
81 13.6
82 1.8
83 1
93 1.7
94 4
95 11.7
96 5.7
108 2.4
109 68.6
110 5.7
111 2.9
129 2.5
136 1.1
137 99.99
138 11.9
139 1.7
152 2.9
179 1
180 46.7
181 5

>  <PREDICTED SPECTRUM>  (588) 
14 1
17 2
18 4
25 28
26 94
27 116
28 169
29 45
30 67
33 6
34 33
36 126
37 160
38 381
39 462
40 529
41 570
42 511
43 390
44 487
45 159
49 67
50 73
51 115
52 518
53 626
54 566
55 368
56 296
57 139
58 203
59 13
63 56
64 113
65 228
66 359
67 720
68 801
69 783
70 447
71 242
77 15
80 215
81 294
82 375
83 116
84 183
85 29
92 221
93 251
94 267
95 364
96 235
97 135
98 4
108 162
109 103
110 148
111 217
112 144
122 118
123 374
124 247
125 25
126 14
135 100
136 149
137 163
138 105
139 233
140 44
152 666
153 231
154 154
179 89
180 999
181 301
182 72

$$$$

     RDKit          2D

  9  9  0  0  0  0  0  0  0  0999 V2000
    4.2222   -0.1879    0.0000 C   0  0  0  0  0  0  0  0  0  0  0  0
   -0.9749    1.3133    0.0000 C   0  0  0  0  0  0  0  0  0  0  0  0
    0.3242    2.0633    0.0000 C   0  0  0  0  0  0  0  0  0  0  0  0
   -0.9744   -0.1875    0.0000 C   0  0  0  0  0  0  0  0  0  0  0  0
    1.6242   -0.1883    0.0000 C   0  0  0  0  0  0  0  0  0  0  0  0
    1.6237    1.3125    0.0000 N   0  0  0  0  0  0  0  0  0  0  0  0
    0.3251   -0.9383    0.0000 N   0  0  0  0  0  0  0  0  0  0  0  0
   -2.2734   -0.9375    0.0000 O   0  0  0  0  0  0  0  0  0  0  0  0
    2.9233   -0.9381    0.0000 S   0  0  0  0  0  0  0  0  0  0  0  0
  3  2  2  0
  4  2  1  0
  6  3  1  0
  6  5  2  0
  7  4  2  0
  7  5  1  0
  8  4  1  0
  9  1  1  0
  9  5  1  0
M  END
>  <NAME>  (589) 
2-METHYLTHIO-4-PYRIMIDINONE

>  <SYNONYMS>  (589) 


>  <SPECTRUM TYPE>  (589) 
MS1

>  <INSTRUMENT TYPE>  (589) 
EI-B

>  <INSTRUMENT>  (589) 
JEOL JMS-DX-300

>  <ION MODE>  (589) 
P

>  <INCHIKEY>  (589) 
UYHSQVMHSFXUOA-UHFFFAOYSA-N

>  <FORMULA>  (589) 
C5H6N2OS

>  <EXACT MASS>  (589) 
142.020083812

>  <MW>  (589) 
142

>  <ID>  (589) 
JP011207

>  <CONTRIBUTOR>  (589) 
University of Tokyo Team, {Faculty of Engineering, University of Tokyo

>  <COMMENT>  (589) 
SMILES=O=C(C=1)NC(=NC1)SC
InChI=InChI=1S/C5H6N2OS/c1-9-5-6-3-2-4(8)7-5/h2-3H,1H3,(H,6,7,8)
computed SMILES=OC1=NC(=NC=C1)SC
accession=JP011207
date=2016.01.19 (Created 2008.10.21, modified 2011.05.06)
author=SAWADA M, THE INST. OF SCIENTIFIC AND INDUSTRIALRESEARCH OSAKA UNIV.
license=CC BY-NC-SA
exact mass=142.02008
ionization energy=70 eV
ion type=[M]+*
computed spectral entropy=3.2195146857079204
computed normalized entropy=0.81883455332101
SPLASH=splash10-0007-9300000000-c82c88cd6b113a969baf
submitter=submitter = University of Tokyo Team (Faculty of Engineering, University of Tokyo)
MoNA Rating=3.75

>  <NUM PEAKS>  (589) 
51

>  <MASS SPECTRAL PEAKS>  (589) 
38 1.7
39 4.8
40 45.4
41 12
42 8.3
43 8
44 10
45 20.9
46 11.4
47 11.9
48 1.6
51 1.6
52 3
53 12.4
54 2.2
55 3.5
56 1.2
57 3.9
58 3.2
59 5.1
60 1.7
66 1.3
67 19.2
68 18.6
69 24.7
70 17.1
71 2.6
72 4.4
73 6.6
74 9.2
75 2.2
81 3.7
82 2.4
83 2.3
84 1.4
86 1.4
95 58.1
96 25.4
97 7
98 1.3
99 1.1
100 3.4
101 4.2
109 2.4
113 2.3
114 9.2
115 1.6
141 7.1
142 99.99
143 10.8
144 5.7

>  <PREDICTED SPECTRUM>  (589) 
14 12
15 15
25 3
26 56
27 153
28 154
29 102
30 9
33 41
34 55
35 7
36 5
37 43
38 110
39 234
40 270
41 420
42 456
43 290
44 204
45 436
46 428
47 319
48 154
49 47
50 65
51 166
52 163
53 246
54 241
55 126
56 156
57 215
58 207
59 148
60 66
63 10
65 9
66 131
67 328
68 535
69 585
70 343
71 158
72 289
73 309
74 353
75 42
79 44
80 10
81 203
82 118
83 95
84 125
85 225
86 157
87 31
94 76
95 269
96 606
97 254
98 71
99 109
100 124
101 94
109 260
110 59
112 30
113 119
114 245
115 100
125 14
126 69
127 120
128 58
129 8
141 324
142 999
143 298
144 216
145 20

$$$$

     RDKit          2D

 31 35  0  0  0  0  0  0  0  0999 V2000
   -6.0271   -6.0500    0.0000 C   0  0  0  0  0  0  0  0  0  0  0  0
   -4.7282    5.2002    0.0000 C   0  0  0  0  0  0  0  0  0  0  0  0
   -4.7276   -6.8008    0.0000 C   0  0  0  0  0  0  0  0  0  0  0  0
   -6.0276   -4.5492    0.0000 C   0  0  0  0  0  0  0  0  0  0  0  0
   -6.0283    4.4504    0.0000 C   0  0  0  0  0  0  0  0  0  0  0  0
   -3.4283    4.4500    0.0000 C   0  0  0  0  0  0  0  0  0  0  0  0
    3.0600    2.2000    0.0000 C   0  0  0  0  0  0  0  0  0  0  0  0
    1.7600    2.9500    0.0000 C   0  0  0  0  0  0  0  0  0  0  0  0
   -3.4286   -6.0508    0.0000 C   0  0  0  0  0  0  0  0  0  0  0  0
   -4.7286   -3.7992    0.0000 C   0  0  0  0  0  0  0  0  0  0  0  0
   -6.0286    2.9504    0.0000 C   0  0  0  0  0  0  0  0  0  0  0  0
   -3.4286    2.9500    0.0000 C   0  0  0  0  0  0  0  0  0  0  0  0
    3.0600    0.7000    0.0000 C   0  0  0  0  0  0  0  0  0  0  0  0
    0.4600    2.2000    0.0000 C   0  0  0  0  0  0  0  0  0  0  0  0
    0.4600   -2.3000    0.0000 C   0  0  0  0  0  0  0  0  0  0  0  0
   -2.1300   -3.8000    0.0000 C   0  0  0  0  0  0  0  0  0  0  0  0
   -4.7289    0.7002    0.0000 C   0  0  0  0  0  0  0  0  0  0  0  0
   -3.4290   -4.5500    0.0000 C   0  0  0  0  0  0  0  0  0  0  0  0
   -4.7287    2.2002    0.0000 C   0  0  0  0  0  0  0  0  0  0  0  0
    1.7600   -0.0500    0.0000 C   0  0  0  0  0  0  0  0  0  0  0  0
    0.4600    0.7000    0.0000 C   0  0  0  0  0  0  0  0  0  0  0  0
    1.7600   -1.5500    0.0000 C   0  0  0  0  0  0  0  0  0  0  0  0
   -0.8300   -1.5500    0.0000 C   0  0  0  0  0  0  0  0  0  0  0  0
   -3.4300   -1.5500    0.0000 C   0  0  0  0  0  0  0  0  0  0  0  0
   -2.1300    0.7000    0.0000 C   0  0  0  0  0  0  0  0  0  0  0  0
   -2.1300   -2.3000    0.0000 N   0  0  0  0  0  0  0  0  0  0  0  0
   -3.4300   -0.0500    0.0000 N   0  0  0  0  0  0  0  0  0  0  0  0
   -0.8300   -0.0500    0.0000 N   0  0  0  0  0  0  0  0  0  0  0  0
    3.0589   -2.3002    0.0000 O   0  0  0  0  0  0  0  0  0  0  0  0
   -4.7289   -2.3002    0.0000 O   0  0  0  0  0  0  0  0  0  0  0  0
   -2.1300    2.2000    0.0000 O   0  0  0  0  0  0  0  0  0  0  0  0
  3  1  2  0
  4  1  1  0
  5  2  2  0
  6  2  1  0
  8  7  2  0
  9  3  1  0
 10  4  2  0
 11  5  1  0
 12  6  2  0
 13  7  1  0
 14  8  1  0
 18  9  2  0
 18 10  1  0
 18 16  1  0
 19 11  2  0
 19 12  1  0
 19 17  1  0
 20 13  2  0
 21 14  2  0
 21 20  1  0
 22 15  1  0
 22 20  1  0
 23 15  2  0
 26 16  1  0
 26 23  1  0
 26 24  1  0
 27 17  1  0
 27 24  1  0
 27 25  1  0
 28 21  1  0
 28 23  1  0
 28 25  1  0
 29 22  2  0
 30 24  2  0
 31 25  2  0
M  END
>  <NAME>  (590) 
2,4-DIBENZYL-1H-(1,3,5)TRIAZINO(1,2-A)QUINOLINE-1,3,6(2H,4H)-TRIONE

>  <SYNONYMS>  (590) 


>  <SPECTRUM TYPE>  (590) 
MS1

>  <INSTRUMENT TYPE>  (590) 
EI-B

>  <INSTRUMENT>  (590) 
JEOL JMS-DX-300

>  <ION MODE>  (590) 
P

>  <INCHIKEY>  (590) 
YOQHFMHTERFQNX-UHFFFAOYSA-N

>  <FORMULA>  (590) 
C25H19N3O3

>  <EXACT MASS>  (590) 
409.14264146799997

>  <MW>  (590) 
409

>  <ID>  (590) 
JP011206

>  <CONTRIBUTOR>  (590) 
University of Tokyo Team, {Faculty of Engineering, University of Tokyo

>  <COMMENT>  (590) 
SMILES=c(c5)ccc(c5)CN(C(=O)1)C(=O)N(c43)C(=CC(=O)c(cccc4)3)N(Cc(c2)cccc2)1
InChI=InChI=1S/C25H19N3O3/c29-22-15-23-26(16-18-9-3-1-4-10-18)24(30)27(17-19-11-5-2-6-12-19)25(31)28(23)21-14-8-7-13-20(21)22/h1-15H,16-17H2
computed SMILES=O=C1C=C2N(C(=O)N(C(=O)N2CC=3C=CC=CC3)CC=4C=CC=CC4)C=5C=CC=CC15
accession=JP011206
date=2016.01.19 (Created 2008.10.21, modified 2011.05.06)
author=SAWADA M, THE INST. OF SCIENTIFIC AND INDUSTRIALRESEARCH OSAKA UNIV.
license=CC BY-NC-SA
exact mass=409.14264
ionization energy=70 eV
ion type=[M]+*
computed spectral entropy=3.636462645716146
computed normalized entropy=0.8081369907028194
SPLASH=splash10-0006-9210200000-0e52d526faf4515a7390
submitter=submitter = University of Tokyo Team (Faculty of Engineering, University of Tokyo)
MoNA Rating=3.75

>  <NUM PEAKS>  (590) 
90

>  <MASS SPECTRAL PEAKS>  (590) 
39 11.4
40 10.3
41 12.7
42 2.6
43 12.5
44 63.3
45 7.3
50 2.2
51 6.8
52 1.8
53 1.3
54 1.1
55 8.1
56 3.5
57 7.3
60 1.8
62 1.3
63 6.6
64 2.4
65 46.2
66 3.3
67 2.9
68 1.5
69 7
70 7
71 3.5
73 1.8
75 1.5
76 3.7
77 13.2
78 4.4
79 1.3
81 3.3
82 1.5
83 3.5
84 1.4
85 1.8
88 2.6
89 11.2
90 10.5
91 99.99
92 31.2
93 1.8
95 1.7
96 1.4
97 2.6
98 1.1
102 5.1
103 3.9
104 6.8
105 6.1
111 1.3
114 1.5
115 3.7
116 2.4
129 7.9
130 3.7
132 32.3
133 7.9
143 1.5
144 1.6
146 5.9
157 9
158 2
165 1.5
180 3.1
181 6.2
186 3.3
204 1.3
218 1.3
219 2.9
220 1.5
231 1.1
232 2.6
247 8.1
248 3
275 3.5
276 4.8
277 20.2
278 4.6
304 4
305 2.4
318 11.8
319 3.5
339 3.3
381 1.7
392 3.6
408 4
409 92.1
410 38.7

>  <PREDICTED SPECTRUM>  (590) 
33 1
37 13
38 81
39 239
40 93
41 219
42 99
43 36
44 208
45 25
49 30
50 137
51 260
52 152
53 118
54 83
55 99
56 207
57 104
58 24
60 4
61 67
62 97
63 266
64 166
65 470
66 76
67 52
68 27
69 66
70 140
71 91
73 34
74 51
75 149
76 181
77 335
78 213
79 112
80 27
81 5
82 22
83 48
84 21
85 36
86 27
87 49
88 58
89 280
90 250
91 982
92 435
93 126
94 58
95 24
96 73
97 40
98 10
99 0
100 42
101 66
102 178
103 214
104 346
105 238
106 187
107 58
108 43
109 27
110 23
112 0
114 74
115 186
116 181
117 66
118 64
119 55
120 1
121 9
127 19
128 96
129 191
130 120
131 101
132 675
133 350
141 19
142 69
143 57
144 225
145 84
146 189
148 10
149 35
150 34
155 55
156 34
157 37
158 88
159 28
160 57
163 17
164 4
167 28
169 50
170 30
171 115
172 47
173 21
174 24
175 25
176 36
177 33
178 27
179 19
180 8
183 8
186 33
187 50
193 43
194 14
203 5
204 78
205 66
206 20
207 49
208 26
217 68
218 77
219 123
220 148
221 40
222 29
231 45
232 43
233 84
234 26
235 49
246 3
247 176
248 210
249 138
250 74
259 69
261 2
274 45
275 242
276 268
277 355
278 189
290 86
291 43
303 104
304 140
305 35
318 420
319 170
332 13
337 9
352 3
365 11
381 117
391 41
392 133
393 1
394 3
407 6
408 192
409 999
410 510
411 170
412 10

$$$$

     RDKit          2D

  9  9  0  0  0  0  0  0  0  0999 V2000
    0.9744   -2.8133    0.0000 C   0  0  0  0  0  0  0  0  0  0  0  0
   -0.3254    0.9383    0.0000 C   0  0  0  0  0  0  0  0  0  0  0  0
    0.9737    1.6883    0.0000 C   0  0  0  0  0  0  0  0  0  0  0  0
   -0.3249   -0.5625    0.0000 C   0  0  0  0  0  0  0  0  0  0  0  0
    2.2737   -0.5633    0.0000 C   0  0  0  0  0  0  0  0  0  0  0  0
    2.2732    0.9375    0.0000 N   0  0  0  0  0  0  0  0  0  0  0  0
    0.9746   -1.3133    0.0000 N   0  0  0  0  0  0  0  0  0  0  0  0
   -1.6239   -1.3125    0.0000 O   0  0  0  0  0  0  0  0  0  0  0  0
    3.5728   -1.3131    0.0000 O   0  0  0  0  0  0  0  0  0  0  0  0
  3  2  2  0
  4  2  1  0
  6  3  1  0
  6  5  2  0
  7  1  1  0
  7  4  1  0
  7  5  1  0
  8  4  2  0
  9  5  1  0
M  END
>  <NAME>  (591) 
3-METHYLURACIL

>  <SYNONYMS>  (591) 


>  <SPECTRUM TYPE>  (591) 
MS1

>  <INSTRUMENT TYPE>  (591) 
EI-B

>  <INSTRUMENT>  (591) 
JEOL JMS-DX-300

>  <ION MODE>  (591) 
P

>  <INCHIKEY>  (591) 
VPLZGVOSFFCKFC-UHFFFAOYSA-N

>  <FORMULA>  (591) 
C5H6N2O2

>  <EXACT MASS>  (591) 
126.042927432

>  <MW>  (591) 
126

>  <ID>  (591) 
JP011205

>  <CONTRIBUTOR>  (591) 
University of Tokyo Team, {Faculty of Engineering, University of Tokyo

>  <COMMENT>  (591) 
SMILES=O=C(C=1)N(C)C(=O)NC1
InChI=InChI=1S/C5H6N2O2/c1-7-4(8)2-3-6-5(7)9/h2-3H,1H3,(H,6,9)
computed SMILES=O=C1C=CN=C(O)N1C
accession=JP011205
date=2016.01.19 (Created 2008.10.21, modified 2011.05.06)
author=SAWADA M, THE INST. OF SCIENTIFIC AND INDUSTRIALRESEARCH OSAKA UNIV.
license=CC BY-NC-SA
exact mass=126.04293
ionization energy=70 eV
ion type=[M]+*
computed spectral entropy=2.5127390670048975
computed normalized entropy=0.7540770860047783
SPLASH=splash10-00ou-9300000000-551e0e5d025fd3c413b3
submitter=submitter = University of Tokyo Team (Faculty of Engineering, University of Tokyo)
MoNA Rating=3.75

>  <NUM PEAKS>  (591) 
28

>  <MASS SPECTRAL PEAKS>  (591) 
38 1.6
39 4
40 28.6
41 28.2
42 33.4
43 7.9
44 4.4
52 1
53 3.3
54 2.1
55 7.4
56 8.6
57 3.6
58 4.7
67 1.7
68 13.4
69 74.9
70 12.9
71 1.8
81 3.1
82 3.2
83 1.9
84 1.8
96 5.7
97 7.3
98 5
126 99.99
127 7.3

>  <PREDICTED SPECTRUM>  (591) 
26 3
28 21
37 25
38 125
39 1
40 276
41 403
42 687
43 311
44 180
51 11
52 231
53 97
54 268
55 215
56 308
57 210
58 9
67 85
68 219
69 390
70 305
71 55
81 60
82 62
83 145
84 21
85 57
97 678
98 598
99 127
126 999
127 271

$$$$

     RDKit          2D

 18 20  0  0  0  0  0  0  0  0999 V2000
    4.0657    3.5303    0.0000 C   0  0  0  0  0  0  0  0  0  0  0  0
   -5.5657   -2.0303    0.0000 C   0  0  0  0  0  0  0  0  0  0  0  0
    4.0662    2.0295    0.0000 C   0  0  0  0  0  0  0  0  0  0  0  0
    2.7662    4.2812    0.0000 C   0  0  0  0  0  0  0  0  0  0  0  0
   -5.5662   -0.5295    0.0000 C   0  0  0  0  0  0  0  0  0  0  0  0
   -4.2662   -2.7812    0.0000 C   0  0  0  0  0  0  0  0  0  0  0  0
    2.7671    1.2795    0.0000 C   0  0  0  0  0  0  0  0  0  0  0  0
    1.4671    3.5312    0.0000 C   0  0  0  0  0  0  0  0  0  0  0  0
   -4.2671    0.2205    0.0000 C   0  0  0  0  0  0  0  0  0  0  0  0
   -2.9671   -2.0312    0.0000 C   0  0  0  0  0  0  0  0  0  0  0  0
    1.4676    2.0303    0.0000 C   0  0  0  0  0  0  0  0  0  0  0  0
   -2.9676   -0.5303    0.0000 C   0  0  0  0  0  0  0  0  0  0  0  0
   -1.2803    1.6686    0.0000 C   0  0  0  0  0  0  0  0  0  0  0  0
   -0.2197   -0.1686    0.0000 C   0  0  0  0  0  0  0  0  0  0  0  0
    0.1686    1.2803    0.0000 N   0  0  0  0  0  0  0  0  0  0  0  0
   -1.6686    0.2197    0.0000 N   0  0  0  0  0  0  0  0  0  0  0  0
   -2.0303    2.9676    0.0000 O   0  0  0  0  0  0  0  0  0  0  0  0
    0.5303   -1.4676    0.0000 O   0  0  0  0  0  0  0  0  0  0  0  0
  3  1  2  0
  4  1  1  0
  5  2  2  0
  6  2  1  0
  7  3  1  0
  8  4  2  0
  9  5  1  0
 10  6  2  0
 11  7  2  0
 11  8  1  0
 12  9  2  0
 12 10  1  0
 15 11  1  0
 15 13  1  0
 15 14  1  0
 16 12  1  0
 16 13  1  0
 16 14  1  0
 17 13  2  0
 18 14  2  0
M  END
>  <NAME>  (592) 
PHENYLISOCYANATE-CYCLICDIMER

>  <SYNONYMS>  (592) 


>  <SPECTRUM TYPE>  (592) 
MS1

>  <INSTRUMENT TYPE>  (592) 
EI-B

>  <INSTRUMENT>  (592) 
JEOL JMS-DX-300

>  <ION MODE>  (592) 
P

>  <INCHIKEY>  (592) 
ZDIXQAFFNKGCNG-UHFFFAOYSA-N

>  <FORMULA>  (592) 
C14H10N2O2

>  <EXACT MASS>  (592) 
238.07422756

>  <MW>  (592) 
238

>  <ID>  (592) 
JP011204

>  <CONTRIBUTOR>  (592) 
University of Tokyo Team, {Faculty of Engineering, University of Tokyo

>  <COMMENT>  (592) 
SMILES=c(c3)ccc(c3)n(c(=O)1)c(=O)n(c(c2)cccc2)1
InChI=InChI=1S/C14H10N2O2/c17-13-15(11-7-3-1-4-8-11)14(18)16(13)12-9-5-2-6-10-12/h1-10H
computed SMILES=O=C1N(C=2C=CC=CC2)C(=O)N1C=3C=CC=CC3
accession=JP011204
date=2016.01.19 (Created 2008.10.21, modified 2011.05.06)
author=SAWADA M, THE INST. OF SCIENTIFIC AND INDUSTRIALRESEARCH OSAKA UNIV.
license=CC BY-NC-SA
exact mass=238.07423
ionization energy=70 eV
ion type=[M]+*
computed spectral entropy=2.510036010551083
computed normalized entropy=0.7703995204744094
SPLASH=splash10-02tc-9410000000-612ce45cf16713ce5ef9
submitter=submitter = University of Tokyo Team (Faculty of Engineering, University of Tokyo)
MoNA Rating=3.75

>  <NUM PEAKS>  (592) 
26

>  <MASS SPECTRAL PEAKS>  (592) 
37 2.9
38 9
39 13
40 6.7
41 6.8
44 2.3
50 4.7
51 10.2
52 6.2
61 1.1
62 2.8
63 19.1
64 45.7
65 10.9
66 1.1
76 1.3
77 3.9
90 7.1
91 71.3
92 7.2
93 1
119 99.99
120 26.5
121 1.7
238 28.5
239 5.8

>  <PREDICTED SPECTRUM>  (592) 
26 6
27 11
28 91
37 66
38 150
39 282
40 85
41 52
42 28
50 223
51 450
52 180
53 0
62 93
63 302
64 356
65 305
66 44
74 89
75 120
76 72
77 600
78 118
90 97
91 541
92 150
93 162
104 187
105 11
117 143
118 561
119 722
120 176
152 73
154 14
180 16
209 0
210 75
237 166
238 999
239 406
240 143

$$$$

     RDKit          2D

 27 30  0  0  0  0  0  0  0  0999 V2000
    5.1968   -3.0006    0.0000 C   0  0  0  0  0  0  0  0  0  0  0  0
   -5.1968   -3.0006    0.0000 C   0  0  0  0  0  0  0  0  0  0  0  0
    0.0000    6.0000    0.0000 C   0  0  0  0  0  0  0  0  0  0  0  0
    3.8971   -3.7512    0.0000 C   0  0  0  0  0  0  0  0  0  0  0  0
    5.1975   -1.4998    0.0000 C   0  0  0  0  0  0  0  0  0  0  0  0
   -5.1975   -1.4998    0.0000 C   0  0  0  0  0  0  0  0  0  0  0  0
   -3.8971   -3.7512    0.0000 C   0  0  0  0  0  0  0  0  0  0  0  0
    1.3000    5.2500    0.0000 C   0  0  0  0  0  0  0  0  0  0  0  0
   -1.3000    5.2500    0.0000 C   0  0  0  0  0  0  0  0  0  0  0  0
    2.5982   -3.0010    0.0000 C   0  0  0  0  0  0  0  0  0  0  0  0
    3.8986   -0.7496    0.0000 C   0  0  0  0  0  0  0  0  0  0  0  0
   -3.8986   -0.7496    0.0000 C   0  0  0  0  0  0  0  0  0  0  0  0
   -2.5982   -3.0010    0.0000 C   0  0  0  0  0  0  0  0  0  0  0  0
    1.3000    3.7500    0.0000 C   0  0  0  0  0  0  0  0  0  0  0  0
   -1.3000    3.7500    0.0000 C   0  0  0  0  0  0  0  0  0  0  0  0
    2.5989   -1.5002    0.0000 C   0  0  0  0  0  0  0  0  0  0  0  0
   -2.5989   -1.5002    0.0000 C   0  0  0  0  0  0  0  0  0  0  0  0
    0.0000    3.0000    0.0000 C   0  0  0  0  0  0  0  0  0  0  0  0
   -0.0000   -1.5000    0.0000 C   0  0  0  0  0  0  0  0  0  0  0  0
    1.3000    0.7500    0.0000 C   0  0  0  0  0  0  0  0  0  0  0  0
   -1.3000    0.7500    0.0000 C   0  0  0  0  0  0  0  0  0  0  0  0
    1.3000   -0.7500    0.0000 N   0  0  0  0  0  0  0  0  0  0  0  0
   -1.3000   -0.7500    0.0000 N   0  0  0  0  0  0  0  0  0  0  0  0
    0.0000    1.5000    0.0000 N   0  0  0  0  0  0  0  0  0  0  0  0
   -0.0000   -3.0000    0.0000 O   0  0  0  0  0  0  0  0  0  0  0  0
    2.5989    1.5002    0.0000 O   0  0  0  0  0  0  0  0  0  0  0  0
   -2.5989    1.5002    0.0000 O   0  0  0  0  0  0  0  0  0  0  0  0
  4  1  2  0
  5  1  1  0
  6  2  2  0
  7  2  1  0
  8  3  2  0
  9  3  1  0
 10  4  1  0
 11  5  2  0
 12  6  1  0
 13  7  2  0
 14  8  1  0
 15  9  2  0
 16 10  2  0
 16 11  1  0
 17 12  2  0
 17 13  1  0
 18 14  2  0
 18 15  1  0
 22 16  1  0
 22 19  1  0
 22 20  1  0
 23 17  1  0
 23 19  1  0
 23 21  1  0
 24 18  1  0
 24 20  1  0
 24 21  1  0
 25 19  2  0
 26 20  2  0
 27 21  2  0
M  END
>  <NAME>  (593) 
PHENYLISOCYANATE-CYCLICTRIMER

>  <SYNONYMS>  (593) 


>  <SPECTRUM TYPE>  (593) 
MS1

>  <INSTRUMENT TYPE>  (593) 
EI-B

>  <INSTRUMENT>  (593) 
JEOL JMS-DX-300

>  <ION MODE>  (593) 
P

>  <INCHIKEY>  (593) 
YEACGXMAEGBJSM-UHFFFAOYSA-N

>  <FORMULA>  (593) 
C21H15N3O3

>  <EXACT MASS>  (593) 
357.11134134

>  <MW>  (593) 
357

>  <ID>  (593) 
JP011203

>  <CONTRIBUTOR>  (593) 
University of Tokyo Team, {Faculty of Engineering, University of Tokyo

>  <COMMENT>  (593) 
SMILES=c(c4)ccc(c4)N(C(=O)1)C(=O)N(c(c3)cccc3)C(=O)N(c(c2)cccc2)1
InChI=InChI=1S/C21H15N3O3/c25-19-22(16-10-4-1-5-11-16)20(26)24(18-14-8-3-9-15-18)21(27)23(19)17-12-6-2-7-13-17/h1-15H
computed SMILES=O=C1N(C=2C=CC=CC2)C(=O)N(C=3C=CC=CC3)C(=O)N1C=4C=CC=CC4
accession=JP011203
date=2016.01.19 (Created 2008.10.21, modified 2011.05.06)
author=SAWADA M, THE INST. OF SCIENTIFIC AND INDUSTRIALRESEARCH OSAKA UNIV.
license=CC BY-NC-SA
exact mass=357.11134
ionization energy=70 eV
ion type=[M]+*
computed spectral entropy=2.3621697765795586
computed normalized entropy=0.7088909967459825
SPLASH=splash10-066r-7904000000-0de98e602c0b4482c406
submitter=submitter = University of Tokyo Team (Faculty of Engineering, University of Tokyo)
MoNA Rating=3.75

>  <NUM PEAKS>  (593) 
28

>  <MASS SPECTRAL PEAKS>  (593) 
39 2.4
40 6.8
41 3.7
43 3.5
44 11.6
51 2.6
55 2
57 3.1
63 2.6
64 8.8
65 3.1
69 3.1
70 1.3
71 1.4
77 3.8
81 1.4
90 2.2
91 27.9
92 2.6
93 1.8
119 99.99
120 10.5
145 1.5
149 2
237 2
238 3.8
357 40.2
358 13.8

>  <PREDICTED SPECTRUM>  (593) 
37 67
38 155
39 123
49 5
50 154
51 199
52 118
53 23
54 39
57 36
61 30
62 160
63 310
64 456
65 216
66 135
67 40
69 6
74 33
75 72
76 121
77 337
78 49
79 32
89 92
90 83
91 519
92 167
93 87
94 61
95 77
101 63
103 119
104 161
105 37
111 129
118 6
119 745
120 190
121 39
122 4
123 56
124 5
131 12
138 119
139 41
140 40
141 0
153 36
154 39
155 52
179 179
180 394
181 612
182 616
183 207
184 107
196 93
209 79
210 70
237 75
238 999
239 68
357 671
358 238
359 23

$$$$

     RDKit          2D

 16 17  0  0  0  0  0  0  0  0999 V2000
    3.2481    2.1950    0.0000 C   0  0  0  0  0  0  0  0  0  0  0  0
   -7.1442    2.1950    0.0000 C   0  0  0  0  0  0  0  0  0  0  0  0
    1.9486    1.4442    0.0000 C   0  0  0  0  0  0  0  0  0  0  0  0
    3.2486    3.6958    0.0000 C   0  0  0  0  0  0  0  0  0  0  0  0
   -7.1447    3.6958    0.0000 C   0  0  0  0  0  0  0  0  0  0  0  0
   -5.8447    1.4442    0.0000 C   0  0  0  0  0  0  0  0  0  0  0  0
    0.6495    2.1942    0.0000 C   0  0  0  0  0  0  0  0  0  0  0  0
    1.9495    4.4458    0.0000 C   0  0  0  0  0  0  0  0  0  0  0  0
   -5.8457    4.4458    0.0000 C   0  0  0  0  0  0  0  0  0  0  0  0
   -4.5457    2.1942    0.0000 C   0  0  0  0  0  0  0  0  0  0  0  0
    0.6500    3.6950    0.0000 C   0  0  0  0  0  0  0  0  0  0  0  0
   -4.5462    3.6950    0.0000 C   0  0  0  0  0  0  0  0  0  0  0  0
   -1.9481    3.6950    0.0000 C   0  0  0  0  0  0  0  0  0  0  0  0
   -0.6490    4.4450    0.0000 N   0  0  0  0  0  0  0  0  0  0  0  0
   -3.2471    4.4450    0.0000 N   0  0  0  0  0  0  0  0  0  0  0  0
   -1.9481    2.1950    0.0000 O   0  0  0  0  0  0  0  0  0  0  0  0
  3  1  2  0
  4  1  1  0
  5  2  2  0
  6  2  1  0
  7  3  1  0
  8  4  2  0
  9  5  1  0
 10  6  2  0
 11  7  2  0
 11  8  1  0
 12  9  2  0
 12 10  1  0
 14 11  1  0
 14 13  2  3
 15 12  1  0
 15 13  1  0
 16 13  1  0
M  END
>  <NAME>  (594) 
N,N'-DIPHENYLUREA

>  <SYNONYMS>  (594) 


>  <SPECTRUM TYPE>  (594) 
MS1

>  <INSTRUMENT TYPE>  (594) 
EI-B

>  <INSTRUMENT>  (594) 
JEOL JMS-DX-300

>  <ION MODE>  (594) 
P

>  <INCHIKEY>  (594) 
GWEHVDNNLFDJLR-UHFFFAOYSA-N

>  <FORMULA>  (594) 
C13H12N2O

>  <EXACT MASS>  (594) 
212.094963004

>  <MW>  (594) 
212

>  <ID>  (594) 
JP011202

>  <CONTRIBUTOR>  (594) 
University of Tokyo Team, {Faculty of Engineering, University of Tokyo

>  <COMMENT>  (594) 
SMILES=O=C(Nc(c2)cccc2)Nc(c1)cccc1
InChI=InChI=1S/C13H12N2O/c16-13(14-11-7-3-1-4-8-11)15-12-9-5-2-6-10-12/h1-10H,(H2,14,15,16)
computed SMILES=OC(=NC=1C=CC=CC1)NC=2C=CC=CC2
accession=JP011202
date=2016.01.19 (Created 2008.10.21, modified 2011.05.06)
author=SAWADA M, THE INST. OF SCIENTIFIC AND INDUSTRIALRESEARCH OSAKA UNIV.
license=CC BY-NC-SA
exact mass=212.09496
ionization energy=70 eV
ion type=[M]+*
computed spectral entropy=1.8961767417807582
computed normalized entropy=0.6439857491349876
SPLASH=splash10-01ox-9040000000-aeb7951e27e369a7e434
submitter=submitter = University of Tokyo Team (Faculty of Engineering, University of Tokyo)
MoNA Rating=3.75

>  <NUM PEAKS>  (594) 
19

>  <MASS SPECTRAL PEAKS>  (594) 
39 3.6
40 1.3
41 1.1
44 1.2
51 2.7
63 1.2
64 1.8
65 8.9
66 7.1
69 1.2
77 7.7
91 2.9
92 8.5
93 99.99
94 9.1
119 4.9
120 1.8
212 62.9
213 11.8

>  <PREDICTED SPECTRUM>  (594) 
34 7
37 93
38 151
39 334
40 133
41 87
42 107
44 98
46 7
50 279
51 547
52 244
53 8
62 47
63 214
64 296
65 466
66 233
67 28
69 11
70 11
74 141
75 151
76 190
77 852
78 287
90 28
91 175
92 390
93 578
94 176
103 54
104 245
105 32
107 5
118 43
119 12
120 999
121 290
166 84
167 49
180 36
195 16
211 129
212 584
213 158
214 16

$$$$

     RDKit          2D

 19 21  0  0  0  0  0  0  0  0999 V2000
   -2.1300   -3.8000    0.0000 C   0  0  0  0  0  0  0  0  0  0  0  0
   -4.7289    0.7002    0.0000 C   0  0  0  0  0  0  0  0  0  0  0  0
    3.0600    2.2000    0.0000 C   0  0  0  0  0  0  0  0  0  0  0  0
    1.7600    2.9500    0.0000 C   0  0  0  0  0  0  0  0  0  0  0  0
    3.0600    0.7000    0.0000 C   0  0  0  0  0  0  0  0  0  0  0  0
    0.4600    2.2000    0.0000 C   0  0  0  0  0  0  0  0  0  0  0  0
    1.7600   -0.0500    0.0000 C   0  0  0  0  0  0  0  0  0  0  0  0
    0.4600    0.7000    0.0000 C   0  0  0  0  0  0  0  0  0  0  0  0
    1.7600   -1.5500    0.0000 C   0  0  0  0  0  0  0  0  0  0  0  0
   -0.8300   -1.5500    0.0000 C   0  0  0  0  0  0  0  0  0  0  0  0
   -3.4300   -1.5500    0.0000 C   0  0  0  0  0  0  0  0  0  0  0  0
   -2.1300    0.7000    0.0000 C   0  0  0  0  0  0  0  0  0  0  0  0
    0.4600   -2.3000    0.0000 N   0  0  0  0  0  0  0  0  0  0  0  0
   -2.1300   -2.3000    0.0000 N   0  0  0  0  0  0  0  0  0  0  0  0
   -3.4300   -0.0500    0.0000 N   0  0  0  0  0  0  0  0  0  0  0  0
   -0.8300   -0.0500    0.0000 N   0  0  0  0  0  0  0  0  0  0  0  0
    3.0589   -2.3002    0.0000 O   0  0  0  0  0  0  0  0  0  0  0  0
   -4.7289   -2.3002    0.0000 O   0  0  0  0  0  0  0  0  0  0  0  0
   -2.1300    2.2000    0.0000 O   0  0  0  0  0  0  0  0  0  0  0  0
  4  3  2  0
  5  3  1  0
  6  4  1  0
  7  5  2  0
  8  6  2  0
  8  7  1  0
  9  7  1  0
 13  9  2  0
 13 10  1  0
 14  1  1  0
 14 10  1  0
 14 11  1  0
 15  2  1  0
 15 11  1  0
 15 12  1  0
 16  8  1  0
 16 10  1  0
 16 12  1  0
 17  9  1  0
 18 11  2  0
 19 12  2  0
M  END
>  <NAME>  (595) 
2,4-DIMETHYL-4,4A-DIHYDRO-1H-(1,3,5)TRIAZINO(1,2-A)QUINAZOLINE-1,3,6(2H,5H)-TRIONE

>  <SYNONYMS>  (595) 


>  <SPECTRUM TYPE>  (595) 
MS1

>  <INSTRUMENT TYPE>  (595) 
EI-B

>  <INSTRUMENT>  (595) 
JEOL JMS-DX-300

>  <ION MODE>  (595) 
P

>  <INCHIKEY>  (595) 
CBBILJACUYRJLM-UHFFFAOYSA-N

>  <FORMULA>  (595) 
C12H12N4O3

>  <EXACT MASS>  (595) 
260.09094024399997

>  <MW>  (595) 
260

>  <ID>  (595) 
JP011201

>  <CONTRIBUTOR>  (595) 
University of Tokyo Team, {Faculty of Engineering, University of Tokyo

>  <COMMENT>  (595) 
SMILES=O=C(N1)c(c3)c(ccc3)N(C(=O)2)C1N(C)C(=O)N(C)2
InChI=InChI=1S/C12H12N4O3/c1-14-10-13-9(17)7-5-3-4-6-8(7)16(10)12(19)15(2)11(14)18/h3-6,10H,1-2H3,(H,13,17)
computed SMILES=O=C1N(C(=O)N(C)C2N=C(O)C=3C=CC=CC3N12)C
accession=JP011201
date=2016.01.19 (Created 2008.10.21, modified 2011.05.06)
author=SAWADA M, THE INST. OF SCIENTIFIC AND INDUSTRIALRESEARCH OSAKA UNIV.
license=CC BY-NC-SA
exact mass=260.09094
ionization energy=70 eV
ion type=[M]+*
computed spectral entropy=3.901716769679461
computed normalized entropy=0.8383648497450992
SPLASH=splash10-01ow-9630000000-cd823a7f4b4cad22afde
submitter=submitter = University of Tokyo Team (Faculty of Engineering, University of Tokyo)
MoNA Rating=3.75

>  <NUM PEAKS>  (595) 
105

>  <MASS SPECTRAL PEAKS>  (595) 
34 1.3
38 1.6
39 7.7
40 34.2
41 14.9
42 20.9
43 18.5
44 48.6
45 3.7
50 5.1
51 2.7
52 2
53 1.7
54 2
55 12.5
56 15.2
57 20.4
58 16.9
59 1.3
60 3.2
61 3.7
62 1.7
63 6.8
64 7.8
65 3
67 5.1
68 2.4
69 10.8
70 5.3
71 4.7
73 2.8
74 1.8
75 2
76 8.1
77 4.5
78 2
79 2
80 1
81 4.1
82 3.7
83 6.6
84 3.2
85 2.8
89 1.2
90 24.2
91 11.6
92 7.1
93 1.5
95 3.3
96 4
97 4.3
98 2.2
99 1.2
101 1.6
102 2
103 4.6
104 3
105 1.1
107 1.1
109 1.9
110 1.8
111 2.5
112 1.6
115 1.1
117 4.5
118 16.1
119 12.9
120 1.7
121 1.2
123 1.4
124 1.3
125 1.3
129 2.6
130 2.1
131 3.7
132 12.9
133 2.3
134 1.2
135 1.7
144 1.5
145 20
146 99.99
147 32.5
148 12.9
149 2.7
152 1
159 4
160 8.6
161 3.2
173 1.2
175 1.6
202 12.9
203 23.4
204 3.9
209 1
216 5.3
217 7.7
218 1.6
236 1.9
256 2.1
257 1
258 2.6
259 22
260 70.3
261 13.3

>  <PREDICTED SPECTRUM>  (595) 
30 2
33 35
34 13
37 28
38 81
39 273
40 198
41 211
42 372
43 292
44 278
45 96
49 9
50 212
51 314
52 194
53 169
54 65
55 172
56 249
57 215
58 133
60 5
61 28
62 121
63 267
64 219
65 283
66 159
67 163
68 175
69 167
70 109
71 104
72 73
73 116
74 110
75 196
76 302
77 426
78 225
79 145
80 94
81 109
82 114
83 206
84 104
85 79
86 42
87 5
88 44
89 212
90 443
91 399
92 213
93 106
94 38
95 127
96 30
98 8
99 12
100 16
101 48
102 199
103 173
104 349
105 442
106 137
107 92
108 28
109 7
111 16
112 28
113 6
114 73
115 65
116 204
117 334
118 467
119 368
120 145
121 112
122 32
123 1
127 10
128 69
129 68
130 245
131 166
132 206
133 550
134 38
144 17
145 385
146 668
147 365
148 245
156 20
157 12
158 19
159 36
160 130
161 161
170 0
172 1
173 61
174 259
175 115
176 21
186 91
187 20
188 142
201 12
202 217
203 313
204 45
216 54
217 68
231 182
232 65
243 62
244 56
245 133
246 25
258 44
259 176
260 999
261 390
262 54

$$$$

     RDKit          2D

 11 12  0  0  0  0  0  0  0  0999 V2000
   -2.6000   -0.7500    0.0000 C   0  0  0  0  0  0  0  0  0  0  0  0
   -2.6000    0.7500    0.0000 C   0  0  0  0  0  0  0  0  0  0  0  0
   -1.3000   -1.5000    0.0000 C   0  0  0  0  0  0  0  0  0  0  0  0
   -1.3000    1.5000    0.0000 C   0  0  0  0  0  0  0  0  0  0  0  0
    2.6000    0.7500    0.0000 C   0  0  0  0  0  0  0  0  0  0  0  0
    0.0000   -0.7500    0.0000 C   0  0  0  0  0  0  0  0  0  0  0  0
    0.0000    0.7500    0.0000 C   0  0  0  0  0  0  0  0  0  0  0  0
    1.3000   -1.5000    0.0000 C   0  0  0  0  0  0  0  0  0  0  0  0
    1.3000    1.5000    0.0000 N   0  0  0  0  0  0  0  0  0  0  0  0
    2.6000   -0.7500    0.0000 N   0  0  0  0  0  0  0  0  0  0  0  0
    1.3000   -3.0000    0.0000 O   0  0  0  0  0  0  0  0  0  0  0  0
  2  1  2  0
  3  1  1  0
  4  2  1  0
  6  3  2  0
  7  4  2  0
  7  6  1  0
  8  6  1  0
  9  5  2  0
  9  7  1  0
 10  5  1  0
 10  8  2  0
 11  8  1  0
M  END
>  <NAME>  (596) 
4-QUINAZOLINONE

>  <SYNONYMS>  (596) 


>  <SPECTRUM TYPE>  (596) 
MS1

>  <INSTRUMENT TYPE>  (596) 
EI-B

>  <INSTRUMENT>  (596) 
JEOL JMS-DX-300

>  <ION MODE>  (596) 
P

>  <INCHIKEY>  (596) 
QMNUDYFKZYBWQX-UHFFFAOYSA-N

>  <FORMULA>  (596) 
C8H6N2O

>  <EXACT MASS>  (596) 
146.048012812

>  <MW>  (596) 
146

>  <ID>  (596) 
JP011200

>  <CONTRIBUTOR>  (596) 
University of Tokyo Team, {Faculty of Engineering, University of Tokyo

>  <COMMENT>  (596) 
SMILES=O=C(N=1)c(c2)c(ccc2)NC1
InChI=InChI=1S/C8H6N2O/c11-8-6-3-1-2-4-7(6)9-5-10-8/h1-5H,(H,9,10,11)
computed SMILES=OC1=NC=NC=2C=CC=CC12
accession=JP011200
date=2016.01.19 (Created 2008.10.21, modified 2011.05.06)
author=SAWADA M, THE INST. OF SCIENTIFIC AND INDUSTRIALRESEARCH OSAKA UNIV.
license=CC BY-NC-SA
exact mass=146.04801
ionization energy=70 eV
ion type=[M]+*
computed spectral entropy=2.855367327656259
computed normalized entropy=0.7689004754363952
SPLASH=splash10-0002-6900000000-66f7a9b813d726764f21
submitter=submitter = University of Tokyo Team (Faculty of Engineering, University of Tokyo)
MoNA Rating=3.75

>  <NUM PEAKS>  (596) 
41

>  <MASS SPECTRAL PEAKS>  (596) 
37 1.7
38 3.8
39 7
40 2.4
41 2.2
42 1.6
43 2.1
44 12.2
45 1.3
50 6.2
51 2.7
52 3.8
53 2.1
57 1.1
58 1.7
59 1
61 1.1
62 2.8
63 11.2
64 12.7
65 3.2
73 1.5
74 3
75 2.7
76 5.8
77 1.7
88 1
90 15.8
91 15.1
92 12.2
103 1.5
117 6
118 28.3
119 17.9
120 2.1
131 1
134 1.5
135 1.9
145 31.5
146 99.99
147 13.2

>  <PREDICTED SPECTRUM>  (596) 
28 14
37 74
38 141
39 154
40 89
41 113
44 50
49 37
50 257
51 234
52 185
62 170
63 371
64 395
65 190
66 94
74 107
75 120
76 282
77 288
78 51
89 110
90 395
91 564
92 270
102 10
103 9
104 105
105 73
117 308
118 656
119 316
120 10
129 72
130 110
145 269
146 999
147 336
148 45

$$$$

     RDKit          2D

 15 16  0  0  0  0  0  0  0  0999 V2000
    1.3000   -3.0000    0.0000 C   0  0  0  0  0  0  0  0  0  0  0  0
    3.8989    1.5002    0.0000 C   0  0  0  0  0  0  0  0  0  0  0  0
   -2.6000    0.7500    0.0000 C   0  0  0  0  0  0  0  0  0  0  0  0
   -1.3000    1.5000    0.0000 C   0  0  0  0  0  0  0  0  0  0  0  0
   -2.6000   -0.7500    0.0000 C   0  0  0  0  0  0  0  0  0  0  0  0
    0.0000   -0.7500    0.0000 C   0  0  0  0  0  0  0  0  0  0  0  0
    2.6000   -0.7500    0.0000 C   0  0  0  0  0  0  0  0  0  0  0  0
    1.3000    1.5000    0.0000 C   0  0  0  0  0  0  0  0  0  0  0  0
   -1.3000   -1.5000    0.0000 N   0  0  0  0  0  0  0  0  0  0  0  0
    1.3000   -1.5000    0.0000 N   0  0  0  0  0  0  0  0  0  0  0  0
    2.6000    0.7500    0.0000 N   0  0  0  0  0  0  0  0  0  0  0  0
    0.0000    0.7500    0.0000 N   0  0  0  0  0  0  0  0  0  0  0  0
   -3.8989   -1.5002    0.0000 O   0  0  0  0  0  0  0  0  0  0  0  0
    3.8989   -1.5002    0.0000 O   0  0  0  0  0  0  0  0  0  0  0  0
    1.3000    3.0000    0.0000 O   0  0  0  0  0  0  0  0  0  0  0  0
  4  3  2  0
  5  3  1  0
  9  5  1  0
  9  6  2  0
 10  1  1  0
 10  6  1  0
 10  7  1  0
 11  2  1  0
 11  7  1  0
 11  8  1  0
 12  4  1  0
 12  6  1  0
 12  8  1  0
 13  5  2  0
 14  7  2  0
 15  8  2  0
M  END
>  <NAME>  (597) 
1,3-DIMETHYL-2H-PYRIMIDO(1,2-A)(1,3,5)TRIAZINE-2,4,8-(1H,3H)-TRIONE

>  <SYNONYMS>  (597) 


>  <SPECTRUM TYPE>  (597) 
MS1

>  <INSTRUMENT TYPE>  (597) 
EI-B

>  <INSTRUMENT>  (597) 
JEOL JMS-DX-300

>  <ION MODE>  (597) 
P

>  <INCHIKEY>  (597) 
HCPJFABTTFNIRP-UHFFFAOYSA-N

>  <FORMULA>  (597) 
C8H8N4O3

>  <EXACT MASS>  (597) 
208.05964011599997

>  <MW>  (597) 
208

>  <ID>  (597) 
JP011199

>  <CONTRIBUTOR>  (597) 
University of Tokyo Team, {Faculty of Engineering, University of Tokyo

>  <COMMENT>  (597) 
SMILES=[H]C(C(=O)2)=C([H])N(C(=O)1)C(=N2)N(C)C(=O)N(C)1
InChI=InChI=1S/C8H8N4O3/c1-10-6-9-5(13)3-4-12(6)8(15)11(2)7(10)14/h3-4H,1-2H3
computed SMILES=O=C1N=C2N(C=C1)C(=O)N(C(=O)N2C)C
accession=JP011199
date=2016.01.19 (Created 2008.10.21, modified 2011.05.06)
author=SAWADA M, THE INST. OF SCIENTIFIC AND INDUSTRIALRESEARCH OSAKA UNIV.
license=CC BY-NC-SA
exact mass=208.05964
ionization energy=70 eV
ion type=[M]+*
computed spectral entropy=3.6093518692900526
computed normalized entropy=0.8001472588706461
SPLASH=splash10-0pbc-9630000000-752e5aef0f02acdc22bf
submitter=submitter = University of Tokyo Team (Faculty of Engineering, University of Tokyo)
MoNA Rating=3.75

>  <NUM PEAKS>  (597) 
91

>  <MASS SPECTRAL PEAKS>  (597) 
34 1.2
38 1
39 6.1
40 33.6
41 11.4
42 11.7
43 18
44 56.5
45 2.7
50 1.7
51 2.6
52 1.5
53 6
54 5.8
55 9.2
56 20.4
57 16.4
58 2.7
60 1.3
61 2.1
63 1.5
65 2.1
66 1.7
67 3.8
68 6.6
69 10.2
70 5.3
71 3.8
72 1.7
73 1.1
74 1
75 1
76 1.7
77 4.3
78 2
79 1.7
80 1.8
81 5.2
82 3.6
83 39.7
84 4
85 1.8
91 2.1
93 2.8
94 5
95 10.7
96 7.7
97 2.7
104 1.3
105 3.7
106 1
107 1.9
109 9
110 2.2
111 1.1
112 2.5
113 1.8
118 2
119 1.5
120 5.2
121 7.7
122 4.2
123 51.9
124 5.2
125 2.2
126 1.3
127 3.2
128 4.2
133 1.1
134 7.8
135 12.6
136 3.8
137 2.1
149 6.1
150 1.6
151 79.3
152 9.2
153 2.1
154 1
155 3.9
156 4.7
167 3.7
168 1.9
169 1.4
179 2.1
180 1.7
182 1
183 1.4
208 99.99
209 15.1
210 2

>  <PREDICTED SPECTRUM>  (597) 
25 6
26 36
27 14
28 111
29 6
30 14
33 25
34 18
37 15
38 147
39 271
40 271
41 431
42 430
43 308
44 271
45 90
46 55
50 30
51 111
52 193
53 264
54 245
55 322
56 480
57 466
58 438
65 95
66 141
67 298
68 419
69 424
70 277
71 190
72 163
77 53
78 80
79 29
80 155
81 337
82 284
83 481
84 156
85 20
86 72
92 17
93 229
94 167
95 349
96 414
97 155
98 52
100 105
108 157
109 83
110 40
111 24
121 13
122 186
123 887
124 394
125 246
136 107
137 64
138 22
149 69
150 154
151 881
152 327
153 123
154 4
165 134
166 68
167 117
168 1
177 27
179 133
180 122
181 116
193 35
208 999
209 316
210 119

$$$$

     RDKit          2D

 15 16  0  0  0  0  0  0  0  0999 V2000
    1.0105   -2.6039    0.0000 C   0  0  0  0  0  0  0  0  0  0  0  0
    4.9076    1.1461    0.0000 C   0  0  0  0  0  0  0  0  0  0  0  0
   -0.5286    3.1247    0.0000 C   0  0  0  0  0  0  0  0  0  0  0  0
    3.6081    1.8969    0.0000 C   0  0  0  0  0  0  0  0  0  0  0  0
    4.9081   -0.3547    0.0000 C   0  0  0  0  0  0  0  0  0  0  0  0
   -1.4937    1.9753    0.0000 C   0  0  0  0  0  0  0  0  0  0  0  0
    0.9495    2.8646    0.0000 C   0  0  0  0  0  0  0  0  0  0  0  0
    2.3091    1.1469    0.0000 C   0  0  0  0  0  0  0  0  0  0  0  0
    3.6091   -1.1047    0.0000 C   0  0  0  0  0  0  0  0  0  0  0  0
   -0.9806    0.5658    0.0000 C   0  0  0  0  0  0  0  0  0  0  0  0
    1.4626    1.4551    0.0000 C   0  0  0  0  0  0  0  0  0  0  0  0
    2.3096   -0.3539    0.0000 C   0  0  0  0  0  0  0  0  0  0  0  0
    0.4975    0.3057    0.0000 C   0  0  0  0  0  0  0  0  0  0  0  0
    1.0105   -1.1039    0.0000 C   0  0  0  0  0  0  0  0  0  0  0  0
   -0.4667   -1.3644    0.0000 O   0  0  0  0  0  0  0  0  0  0  0  0
  4  2  2  0
  5  2  1  0
  6  3  2  0
  7  3  1  0
  8  4  1  0
  9  5  2  0
 10  6  1  0
 11  7  2  0
 12  8  2  0
 12  9  1  0
 13 10  2  0
 13 11  1  0
 14  1  1  0
 14 12  1  0
 14 13  1  0
 15 14  1  0
M  END
>  <NAME>  (598) 
1,1-DIPHENYLETHANOL

>  <SYNONYMS>  (598) 


>  <SPECTRUM TYPE>  (598) 
MS1

>  <INSTRUMENT TYPE>  (598) 
EI-B

>  <INSTRUMENT>  (598) 
JEOL JMS-DX-300

>  <ION MODE>  (598) 
P

>  <INCHIKEY>  (598) 
GIMDPFBLSKQRNP-UHFFFAOYSA-N

>  <FORMULA>  (598) 
C14H14O

>  <EXACT MASS>  (598) 
198.104465068

>  <MW>  (598) 
198

>  <ID>  (598) 
JP011198

>  <CONTRIBUTOR>  (598) 
University of Tokyo Team, {Faculty of Engineering, University of Tokyo

>  <COMMENT>  (598) 
SMILES=c(c2)ccc(c2)C(C)(O)c(c1)cccc1
InChI=InChI=1S/C14H14O/c1-14(15,12-8-4-2-5-9-12)13-10-6-3-7-11-13/h2-11,15H,1H3
computed SMILES=OC(C=1C=CC=CC1)(C=2C=CC=CC2)C
accession=JP011198
date=2016.01.19 (Created 2008.10.21, modified 2011.05.06)
author=SAWADA M, THE INST. OF SCIENTIFIC AND INDUSTRIALRESEARCH OSAKA UNIV.
license=CC BY-NC-SA
exact mass=198.10447
ionization energy=70 eV
ion type=[M]+*
computed spectral entropy=2.9898285489915906
computed normalized entropy=0.7566803674831267
SPLASH=splash10-0560-4900000000-d62fc52ab41948ba5a50
submitter=submitter = University of Tokyo Team (Faculty of Engineering, University of Tokyo)
MoNA Rating=3.75

>  <NUM PEAKS>  (598) 
52

>  <MASS SPECTRAL PEAKS>  (598) 
39 4.8
43 48.7
44 1.7
50 5.3
51 25.7
52 4.1
53 1.2
63 3.3
65 2.7
74 1.9
75 2.7
76 5.3
77 59.8
78 19.2
79 1.9
83 1.9
89 2.3
91 5.7
92 1.6
99 1
102 2.1
103 5.3
104 1.2
105 76.5
106 10.8
115 2.6
120 1.4
121 26
122 2.6
126 1
127 1.6
128 1.8
139 1.4
151 1.8
152 5.1
153 3.6
154 3.3
155 10.1
156 1.3
165 7.2
166 2.1
176 1
178 3.6
179 2.6
180 1.9
181 4.3
182 2.6
183 99.99
184 30.6
185 2.9
198 42.4
199 7.9

>  <PREDICTED SPECTRUM>  (598) 
14 25
15 75
16 12
17 43
18 54
19 1
25 11
26 87
27 254
28 152
29 164
31 61
36 7
37 59
38 121
39 398
40 150
41 261
42 64
43 698
44 137
45 70
47 19
49 61
50 361
51 635
52 260
53 203
54 36
55 87
56 51
57 106
60 79
61 78
62 160
63 302
64 128
65 307
66 105
67 39
68 24
69 131
70 153
71 177
72 14
73 1
74 201
75 264
76 304
77 999
78 459
79 245
80 71
81 28
82 137
83 140
84 58
85 15
86 106
87 151
88 162
89 307
90 89
91 398
92 174
93 86
94 121
95 5
96 63
97 57
98 140
99 34
100 40
101 261
102 371
103 393
104 224
105 989
106 370
107 112
108 18
110 37
111 21
112 36
113 154
114 44
115 210
118 16
119 171
120 217
121 481
122 170
123 10
126 177
127 244
128 196
129 29
130 31
131 10
132 4
134 46
135 176
136 114
137 280
138 124
139 195
140 4
141 75
145 62
146 14
147 21
149 87
150 121
151 216
152 227
153 140
154 143
155 223
156 26
161 120
162 78
163 278
164 117
165 647
166 361
167 165
168 47
169 40
176 28
177 141
178 375
179 468
180 539
181 427
182 237
183 805
184 328
185 54
197 7
198 69

$$$$

     RDKit          2D

 18 19  0  0  0  0  0  0  0  0999 V2000
   -5.3467    2.4774    0.0000 C   0  0  0  0  0  0  0  0  0  0  0  0
   -5.3472    0.9766    0.0000 C   0  0  0  0  0  0  0  0  0  0  0  0
   -4.0472    3.2283    0.0000 C   0  0  0  0  0  0  0  0  0  0  0  0
    2.4430    0.9809    0.0000 C   0  0  0  0  0  0  0  0  0  0  0  0
    2.4500    2.4731    0.0000 C   0  0  0  0  0  0  0  0  0  0  0  0
   -4.0482    0.2266    0.0000 C   0  0  0  0  0  0  0  0  0  0  0  0
   -2.7482    2.4783    0.0000 C   0  0  0  0  0  0  0  0  0  0  0  0
    1.1427    0.2331    0.0000 C   0  0  0  0  0  0  0  0  0  0  0  0
    1.1518    3.2261    0.0000 C   0  0  0  0  0  0  0  0  0  0  0  0
   -2.7486    0.9774    0.0000 C   0  0  0  0  0  0  0  0  0  0  0  0
   -0.1506    0.9774    0.0000 C   0  0  0  0  0  0  0  0  0  0  0  0
   -0.1485    2.4783    0.0000 C   0  0  0  0  0  0  0  0  0  0  0  0
   -1.4496    0.2274    0.0000 C   0  0  0  0  0  0  0  0  0  0  0  0
   -1.4464    3.2302    0.0000 C   0  0  0  0  0  0  0  0  0  0  0  0
   -0.6945    4.5281    0.0000 F   0  0  0  0  0  0  0  0  0  0  0  0
   -2.7443    3.9822    0.0000 F   0  0  0  0  0  0  0  0  0  0  0  0
   -2.1984    1.9323    0.0000 F   0  0  0  0  0  0  0  0  0  0  0  0
   -1.4496   -1.2726    0.0000 O   0  0  0  0  0  0  0  0  0  0  0  0
  2  1  2  0
  3  1  1  0
  5  4  2  0
  6  2  1  0
  7  3  2  0
  8  4  1  0
  9  5  1  0
 10  6  2  0
 10  7  1  0
 11  8  2  0
 12  9  2  0
 12 11  1  0
 13 10  1  0
 13 11  1  0
 14 12  1  0
 15 14  1  0
 16 14  1  0
 17 14  1  0
 18 13  2  0
M  END
>  <NAME>  (599) 
2-TRIFLUOROMETHYLBENZOPHENONE

>  <SYNONYMS>  (599) 


>  <SPECTRUM TYPE>  (599) 
MS1

>  <INSTRUMENT TYPE>  (599) 
EI-B

>  <INSTRUMENT>  (599) 
JEOL JMS-DX-300

>  <ION MODE>  (599) 
P

>  <INCHIKEY>  (599) 
JXIWJBWMQXDALU-UHFFFAOYSA-N

>  <FORMULA>  (599) 
C14H9F3O

>  <EXACT MASS>  (599) 
250.060549568

>  <MW>  (599) 
250

>  <ID>  (599) 
JP011197

>  <CONTRIBUTOR>  (599) 
University of Tokyo Team, {Faculty of Engineering, University of Tokyo

>  <COMMENT>  (599) 
SMILES=c(c2)ccc(c2)C(=O)c(c1)c(ccc1)C(F)(F)F
InChI=InChI=1S/C14H9F3O/c15-14(16,17)12-9-5-4-8-11(12)13(18)10-6-2-1-3-7-10/h1-9H
computed SMILES=O=C(C=1C=CC=CC1)C=2C=CC=CC2C(F)(F)F
accession=JP011197
date=2016.01.19 (Created 2008.10.21, modified 2011.05.06)
author=SAWADA M, THE INST. OF SCIENTIFIC AND INDUSTRIALRESEARCH OSAKA UNIV.
license=CC BY-NC-SA
exact mass=250.06055
ionization energy=70 eV
ion type=[M]+*
computed spectral entropy=2.6194876367712774
computed normalized entropy=0.7309819431008319
SPLASH=splash10-0zfr-5940000000-aac8784b27a7b0906160
submitter=submitter = University of Tokyo Team (Faculty of Engineering, University of Tokyo)
MoNA Rating=3.75

>  <NUM PEAKS>  (599) 
36

>  <MASS SPECTRAL PEAKS>  (599) 
39 2.2
50 11.1
51 27.6
52 1.3
57 1
62 1
63 1.2
69 2.2
74 4
75 9.7
76 5.5
77 54.3
78 3.8
95 9.6
99 1.9
105 99.99
106 10.5
107 1.5
119 1.2
125 7.5
126 4
144 1.1
145 36.5
146 3.4
151 1.2
152 1.8
173 34.1
174 3.6
181 1.8
183 2.7
201 2.9
211 1.6
231 5
232 1
250 86
251 17.8

>  <PREDICTED SPECTRUM>  (599) 
25 8
26 32
27 28
28 6
29 8
33 17
36 9
37 69
38 94
39 135
40 49
41 12
43 11
44 14
45 3
47 65
48 5
49 78
50 343
51 454
52 132
53 103
55 28
56 6
57 75
61 42
62 99
63 98
64 16
65 31
66 2
68 12
69 209
73 8
74 201
75 317
76 251
77 719
78 187
79 57
81 91
82 26
85 45
86 53
87 94
88 61
93 59
94 80
95 182
96 81
97 57
98 64
99 121
100 43
101 68
102 122
103 53
104 67
105 999
106 338
107 92
109 54
110 45
111 7
112 64
113 79
114 12
115 58
119 14
123 96
124 46
125 200
126 141
127 128
128 2
129 43
130 30
131 2
132 8
133 66
137 74
143 68
144 74
145 477
146 137
150 112
151 186
152 176
153 78
154 36
173 481
174 138
175 43
180 104
181 410
182 185
183 290
184 1
201 78
202 85
229 63
231 193
249 87
250 478
251 185
252 66

$$$$

     RDKit          2D

 15 16  0  0  0  0  0  0  0  0999 V2000
    4.8791   -2.0600    0.0000 C   0  0  0  0  0  0  0  0  0  0  0  0
   -1.6198    1.6892    0.0000 C   0  0  0  0  0  0  0  0  0  0  0  0
   -1.6200    0.1883    0.0000 C   0  0  0  0  0  0  0  0  0  0  0  0
   -0.3204    2.4402    0.0000 C   0  0  0  0  0  0  0  0  0  0  0  0
    6.1666    1.6900    0.0000 C   0  0  0  0  0  0  0  0  0  0  0  0
    4.8766    2.4400    0.0000 C   0  0  0  0  0  0  0  0  0  0  0  0
    6.1666    0.1900    0.0000 C   0  0  0  0  0  0  0  0  0  0  0  0
   -0.3208   -0.5615    0.0000 C   0  0  0  0  0  0  0  0  0  0  0  0
    0.9788    1.6904    0.0000 C   0  0  0  0  0  0  0  0  0  0  0  0
    3.5766    1.6900    0.0000 C   0  0  0  0  0  0  0  0  0  0  0  0
    4.8766   -0.5600    0.0000 C   0  0  0  0  0  0  0  0  0  0  0  0
    0.9786    0.1896    0.0000 C   0  0  0  0  0  0  0  0  0  0  0  0
    3.5766    0.1900    0.0000 C   0  0  0  0  0  0  0  0  0  0  0  0
    2.2777   -0.5602    0.0000 C   0  0  0  0  0  0  0  0  0  0  0  0
    2.2780   -2.0602    0.0000 O   0  0  0  0  0  0  0  0  0  0  0  0
  3  2  2  0
  4  2  1  0
  6  5  2  0
  7  5  1  0
  8  3  1  0
  9  4  2  0
 10  6  1  0
 11  1  1  0
 11  7  2  0
 12  8  2  0
 12  9  1  0
 13 10  2  0
 13 11  1  0
 14 12  1  0
 14 13  1  0
 15 14  2  0
M  END
>  <NAME>  (600) 
2-METHYLBENZOPHENONE

>  <SYNONYMS>  (600) 


>  <SPECTRUM TYPE>  (600) 
MS1

>  <INSTRUMENT TYPE>  (600) 
EI-B

>  <INSTRUMENT>  (600) 
JEOL JMS-DX-300

>  <ION MODE>  (600) 
P

>  <INCHIKEY>  (600) 
CKGKXGQVRVAKEA-UHFFFAOYSA-N

>  <FORMULA>  (600) 
C14H12O

>  <EXACT MASS>  (600) 
196.088815004

>  <MW>  (600) 
196

>  <ID>  (600) 
JP011196

>  <CONTRIBUTOR>  (600) 
University of Tokyo Team, {Faculty of Engineering, University of Tokyo

>  <COMMENT>  (600) 
SMILES=Cc(c2)c(ccc2)C(=O)c(c1)cccc1
InChI=InChI=1S/C14H12O/c1-11-7-5-6-10-13(11)14(15)12-8-3-2-4-9-12/h2-10H,1H3
computed SMILES=O=C(C=1C=CC=CC1)C=2C=CC=CC2C
accession=JP011196
date=2016.01.19 (Created 2008.10.21, modified 2011.05.06)
author=SAWADA M, THE INST. OF SCIENTIFIC AND INDUSTRIALRESEARCH OSAKA UNIV.
license=CC BY-NC-SA
exact mass=196.08882
ionization energy=70 eV
ion type=[M]+*
computed spectral entropy=3.4416672244742186
computed normalized entropy=0.8156561061026848
SPLASH=splash10-00kb-9700000000-e948b50c570012fbe35d
submitter=submitter = University of Tokyo Team (Faculty of Engineering, University of Tokyo)
MoNA Rating=3.75

>  <NUM PEAKS>  (600) 
68

>  <MASS SPECTRAL PEAKS>  (600) 
37 1
38 4.9
39 40.7
40 4.7
41 9.8
50 24.9
51 56.2
52 7.7
53 2.7
61 1.6
62 9.1
63 31.8
64 9.5
65 61.2
66 4.9
70 1.8
74 8.3
75 8.7
76 15.2
77 75.5
78 12.6
82 5.2
83 5.6
84 2
86 2.7
87 3.8
88 3.5
89 37.8
90 18.8
91 76
92 10.3
97 5.8
98 2.8
102 1.8
105 62.9
106 5.5
113 1.6
115 5.8
118 3.8
119 67.3
120 6.2
126 2
127 1.6
128 2.2
139 4.6
141 1.4
150 1.1
151 2.7
152 10.2
153 3.3
163 2.6
164 2.9
165 18.2
166 4.8
167 5.6
168 1.3
176 1.2
177 6.7
178 19.8
179 12.2
180 1.7
181 9.9
182 1.8
194 5.7
195 99.99
196 98.2
197 20.4
198 1.8

>  <PREDICTED SPECTRUM>  (600) 
37 20
38 57
39 224
40 44
41 30
49 10
50 203
51 391
52 152
53 78
54 19
55 40
57 35
58 57
61 20
62 123
63 275
64 113
65 317
66 80
69 1
74 140
75 173
76 181
77 588
78 220
79 88
81 1
82 53
83 53
86 57
87 24
89 324
90 190
91 427
92 129
96 15
97 59
98 51
99 15
101 56
102 87
103 5
104 58
105 573
106 74
115 208
116 142
117 75
118 102
119 453
120 132
121 12
126 10
139 55
140 20
141 45
151 51
152 159
153 105
154 25
163 73
164 53
165 352
166 231
167 310
168 107
176 91
177 126
178 359
179 272
180 190
181 483
182 179
193 65
194 187
195 999
196 739
197 254
198 14

$$$$

     RDKit          2D

 13 14  0  0  0  0  0  0  0  0999 V2000
    2.4790    4.9800    0.0000 C   0  0  0  0  0  0  0  0  0  0  0  0
   -2.7200   -1.0200    0.0000 C   0  0  0  0  0  0  0  0  0  0  0  0
   -2.7200    0.4800    0.0000 C   0  0  0  0  0  0  0  0  0  0  0  0
    2.4800   -1.0200    0.0000 C   0  0  0  0  0  0  0  0  0  0  0  0
   -1.4200   -1.7700    0.0000 C   0  0  0  0  0  0  0  0  0  0  0  0
    1.1800   -1.7700    0.0000 C   0  0  0  0  0  0  0  0  0  0  0  0
    2.4800    0.4800    0.0000 C   0  0  0  0  0  0  0  0  0  0  0  0
   -1.4200    1.2300    0.0000 C   0  0  0  0  0  0  0  0  0  0  0  0
    1.1800    2.7300    0.0000 C   0  0  0  0  0  0  0  0  0  0  0  0
   -0.1200   -1.0200    0.0000 C   0  0  0  0  0  0  0  0  0  0  0  0
    1.1800    1.2300    0.0000 C   0  0  0  0  0  0  0  0  0  0  0  0
   -0.1200    0.4800    0.0000 C   0  0  0  0  0  0  0  0  0  0  0  0
    2.4790    3.4800    0.0000 N   0  0  0  0  0  0  0  0  0  0  0  0
  3  2  2  0
  5  2  1  0
  6  4  2  0
  7  4  1  0
  8  3  1  0
 10  5  2  0
 10  6  1  0
 11  7  2  0
 11  9  1  0
 12  8  2  0
 12 10  1  0
 12 11  1  0
 13  1  1  0
  9 13  2  0
M  END
>  <NAME>  (601) 
N-(1-NAPHTHYLMETHYLIDENE)METHYLAMINE

>  <SYNONYMS>  (601) 


>  <SPECTRUM TYPE>  (601) 
MS1

>  <INSTRUMENT TYPE>  (601) 
EI-B

>  <INSTRUMENT>  (601) 
JEOL JMS-DX-300

>  <ION MODE>  (601) 
P

>  <INCHIKEY>  (601) 
JPFXXCHVHVZOIN-UKTHLTGXSA-N

>  <FORMULA>  (601) 
C12H11N

>  <EXACT MASS>  (601) 
169.089149352

>  <MW>  (601) 
169

>  <ID>  (601) 
JP011195

>  <CONTRIBUTOR>  (601) 
University of Tokyo Team, {Faculty of Engineering, University of Tokyo

>  <COMMENT>  (601) 
SMILES=CN=Cc(c1)c(c2)c(ccc2)cc1
InChI=InChI=1S/C12H11N/c1-13-9-11-7-4-6-10-5-2-3-8-12(10)11/h2-9H,1H3/b13-9+
computed SMILES=N(=CC1=CC=CC=2C=CC=CC12)C
accession=JP011195
date=2016.01.19 (Created 2008.10.21, modified 2011.05.06)
author=SAWADA M, THE INST. OF SCIENTIFIC AND INDUSTRIALRESEARCH OSAKA UNIV.
license=CC BY-NC-SA
exact mass=169.08915
ionization energy=70 eV
ion type=[M]+*
computed spectral entropy=3.7089621817103327
computed normalized entropy=0.8701010370698273
SPLASH=splash10-004i-9500000000-4bb24581bfb8b8b57aa4
submitter=submitter = University of Tokyo Team (Faculty of Engineering, University of Tokyo)
MoNA Rating=3.75

>  <NUM PEAKS>  (601) 
71

>  <MASS SPECTRAL PEAKS>  (601) 
37 8.4
38 30.4
39 54.5
40 18.4
41 53.7
42 85.4
43 8.7
44 1
49 3.2
50 62
51 63.5
52 24
53 4.6
61 14.6
62 48.8
63 70.8
64 14.9
65 11.4
66 2
73 4.4
74 61.6
75 62
76 39.1
77 54
78 10.9
83 2.2
85 5.3
86 22.4
87 39.8
88 11.3
89 18.6
90 2.7
91 2.2
97 1.6
98 16.9
99 15.1
100 14.3
101 32.4
102 27.9
103 3.3
110 2.8
111 5.6
112 1.8
113 11.8
114 4.8
115 3.7
116 4.4
122 1.8
125 7
126 79.6
127 99.99
128 39.7
129 3.7
137 1.9
138 2.3
139 25.5
140 6.4
141 8
142 1.6
151 1.3
152 4.2
153 19.3
154 19.4
155 3.2
156 2.3
166 5.4
167 11
168 46.6
169 50.5
170 11.2
171 1

>  <PREDICTED SPECTRUM>  (601) 
15 7
17 3
26 41
27 80
28 45
29 20
37 6
38 54
39 144
40 56
41 50
42 74
43 42
44 32
49 8
50 129
51 152
52 62
57 18
61 36
62 137
63 203
64 83
65 55
66 8
69 97
70 67
71 13
74 154
75 178
76 179
77 130
78 30
82 56
83 28
84 46
85 38
86 85
87 142
88 64
89 100
90 32
91 25
92 19
93 2
94 17
96 40
97 43
98 89
99 80
100 100
101 134
102 128
103 69
109 5
110 54
111 4
112 30
113 168
114 145
115 186
116 36
122 23
125 67
126 284
127 301
128 208
129 98
137 35
138 65
139 238
140 258
141 248
142 132
143 29
150 73
151 98
152 174
153 388
154 269
155 77
165 66
166 114
167 197
168 999
169 849
170 308
171 74

$$$$

     RDKit          2D

 10 10  0  0  0  0  0  0  0  0999 V2000
   -4.8712    2.0071    0.0000 C   0  0  0  0  0  0  0  0  0  0  0  0
   -3.5721    2.7571    0.0000 C   0  0  0  0  0  0  0  0  0  0  0  0
    2.9231    0.5071    0.0000 C   0  0  0  0  0  0  0  0  0  0  0  0
    2.9236    2.0079    0.0000 C   0  0  0  0  0  0  0  0  0  0  0  0
    1.6236   -0.2437    0.0000 C   0  0  0  0  0  0  0  0  0  0  0  0
    1.6245    2.7579    0.0000 C   0  0  0  0  0  0  0  0  0  0  0  0
    0.3245    0.5063    0.0000 C   0  0  0  0  0  0  0  0  0  0  0  0
   -0.9740    2.7571    0.0000 C   0  0  0  0  0  0  0  0  0  0  0  0
    0.3250    2.0071    0.0000 C   0  0  0  0  0  0  0  0  0  0  0  0
   -2.2731    2.0071    0.0000 N   0  0  0  0  0  0  0  0  0  0  0  0
  2  1  1  0
  4  3  2  0
  5  3  1  0
  6  4  1  0
  7  5  2  0
  9  6  2  0
  9  7  1  0
  9  8  1  0
 10  2  1  0
  8 10  2  0
M  END
>  <NAME>  (602) 
N-BENZYLIDENEETHYLAMINE

>  <SYNONYMS>  (602) 


>  <SPECTRUM TYPE>  (602) 
MS1

>  <INSTRUMENT TYPE>  (602) 
EI-B

>  <INSTRUMENT>  (602) 
JEOL JMS-DX-300

>  <ION MODE>  (602) 
P

>  <INCHIKEY>  (602) 
IIVYBNBDIDWPQV-CSKARUKUSA-N

>  <FORMULA>  (602) 
C9H11N

>  <EXACT MASS>  (602) 
133.089149352

>  <MW>  (602) 
133

>  <ID>  (602) 
JP011194

>  <CONTRIBUTOR>  (602) 
University of Tokyo Team, {Faculty of Engineering, University of Tokyo

>  <COMMENT>  (602) 
SMILES=CCN=Cc(c1)cccc1
InChI=InChI=1S/C9H11N/c1-2-10-8-9-6-4-3-5-7-9/h3-8H,2H2,1H3/b10-8+
computed SMILES=N(=CC=1C=CC=CC1)CC
accession=JP011194
date=2016.01.19 (Created 2008.10.21, modified 2011.05.06)
author=SAWADA M, THE INST. OF SCIENTIFIC AND INDUSTRIALRESEARCH OSAKA UNIV.
license=CC BY-NC-SA
exact mass=133.08915
ionization energy=70 eV
ion type=[M]+*
computed spectral entropy=3.372176424748165
computed normalized entropy=0.8620032193238858
SPLASH=splash10-0uel-9400000000-056e0a744abe8202f16c
submitter=submitter = University of Tokyo Team (Faculty of Engineering, University of Tokyo)
MoNA Rating=3.75

>  <NUM PEAKS>  (602) 
50

>  <MASS SPECTRAL PEAKS>  (602) 
37 3.8
38 15.6
39 50.4
40 11
41 24.5
42 11.1
49 2
50 45
51 72.3
52 27.2
53 4
54 9.8
55 10.4
56 14.4
59 2
61 2.8
62 13.3
63 44.6
64 12.2
65 35.2
66 3.4
73 1
74 9
75 10.2
76 19.2
77 81.4
78 29.6
79 12
80 1.3
86 1.7
87 2.2
88 1.8
89 49.6
90 25.1
91 99.99
92 21
102 2.1
103 14.9
104 55.9
105 33.4
106 4.8
116 2.7
117 13.8
118 84.7
119 10.2
130 2.8
132 84.6
133 88.2
134 23.3
135 1.8

>  <PREDICTED SPECTRUM>  (602) 
14 8
15 24
25 8
26 88
27 209
28 135
29 115
30 34
36 12
37 136
38 235
39 438
40 189
41 360
42 347
43 154
44 106
45 15
49 72
50 475
51 665
52 382
53 130
54 166
55 231
56 518
57 63
58 11
61 168
62 298
63 531
64 373
65 593
66 264
67 49
68 37
73 24
74 215
75 288
76 390
77 819
78 553
79 310
80 74
81 0
87 36
88 4
89 542
90 572
91 999
92 604
93 161
102 207
103 396
104 854
105 555
106 234
107 15
115 24
116 145
117 322
118 733
119 286
120 14
130 195
131 229
132 914
133 859
134 280
135 17

$$$$

     RDKit          2D

 10 10  0  0  0  0  0  0  0  0999 V2000
   -2.9242    2.0631    0.0000 C   0  0  0  0  0  0  0  0  0  0  0  0
    2.2730   -0.9380    0.0000 C   0  0  0  0  0  0  0  0  0  0  0  0
    3.5721   -0.1880    0.0000 C   0  0  0  0  0  0  0  0  0  0  0  0
    0.9735   -0.1871    0.0000 C   0  0  0  0  0  0  0  0  0  0  0  0
    3.5716    1.3129    0.0000 C   0  0  0  0  0  0  0  0  0  0  0  0
   -0.3261    2.0635    0.0000 C   0  0  0  0  0  0  0  0  0  0  0  0
    0.9730    1.3137    0.0000 C   0  0  0  0  0  0  0  0  0  0  0  0
    2.2721    2.0637    0.0000 C   0  0  0  0  0  0  0  0  0  0  0  0
   -1.6250    1.3133    0.0000 N   0  0  0  0  0  0  0  0  0  0  0  0
    2.2723    3.5637    0.0000 O   0  0  0  0  0  0  0  0  0  0  0  0
  3  2  2  0
  4  2  1  0
  5  3  1  0
  7  4  2  0
  7  6  1  0
  8  5  2  0
  8  7  1  0
  9  1  1  0
  6  9  2  0
 10  8  1  0
M  END
>  <NAME>  (603) 
N-(2-HYDROXYBENZYLIDENE)METHYLAMINE

>  <SYNONYMS>  (603) 


>  <SPECTRUM TYPE>  (603) 
MS1

>  <INSTRUMENT TYPE>  (603) 
EI-B

>  <INSTRUMENT>  (603) 
JEOL JMS-DX-300

>  <ION MODE>  (603) 
P

>  <INCHIKEY>  (603) 
XFDQQADEQRAUEK-RMKNXTFCSA-N

>  <FORMULA>  (603) 
C8H9NO

>  <EXACT MASS>  (603) 
135.068413908

>  <MW>  (603) 
135

>  <ID>  (603) 
JP011193

>  <CONTRIBUTOR>  (603) 
University of Tokyo Team, {Faculty of Engineering, University of Tokyo

>  <COMMENT>  (603) 
SMILES=CN=Cc(c1)c(O)ccc1
InChI=InChI=1S/C8H9NO/c1-9-6-7-4-2-3-5-8(7)10/h2-6,10H,1H3/b9-6+
computed SMILES=OC=1C=CC=CC1C=NC
accession=JP011193
date=2016.01.19 (Created 2008.10.21, modified 2011.05.06)
author=SAWADA M, THE INST. OF SCIENTIFIC AND INDUSTRIALRESEARCH OSAKA UNIV.
license=CC BY-NC-SA
exact mass=135.06841
ionization energy=70 eV
ion type=[M]+*
computed spectral entropy=3.226805126420338
computed normalized entropy=0.8206887659421749
SPLASH=splash10-0080-5900000000-ea3c57b7cddd8acb6e80
submitter=submitter = University of Tokyo Team (Faculty of Engineering, University of Tokyo)
MoNA Rating=3.75

>  <NUM PEAKS>  (603) 
51

>  <MASS SPECTRAL PEAKS>  (603) 
38 3.8
39 18.6
40 2.6
41 6.7
42 35.9
43 1.2
50 5.9
51 15.3
52 6.8
53 5.5
54 1.8
55 1.7
62 2.1
63 7.7
64 6.2
65 20.8
66 7.7
67 2.1
68 2.1
74 1.7
75 2.2
76 3
77 21.7
78 16.3
79 12.2
80 11
81 1.7
89 2.2
90 5
91 13.3
92 8.2
93 2.5
94 7.7
102 9.7
104 2.9
105 5
106 17.6
107 33.2
108 8
116 1.7
117 2.8
118 34.6
119 12.1
120 78.6
121 11.8
122 3
133 3.9
134 92.4
135 99.99
136 36.7
137 2.8

>  <PREDICTED SPECTRUM>  (603) 
15 53
16 2
17 2
26 64
27 150
28 69
29 61
31 21
33 5
34 2
36 14
37 122
38 235
39 481
40 208
41 275
42 366
43 247
44 129
45 51
46 12
49 4
50 310
51 465
52 302
53 263
54 114
55 128
56 60
57 97
58 101
59 16
60 44
61 140
62 194
63 358
64 309
65 507
66 317
67 180
68 95
69 75
73 42
74 154
75 171
76 224
77 523
78 402
79 219
80 129
81 52
84 44
85 13
87 18
88 7
89 169
90 224
91 261
92 489
93 265
94 229
95 151
96 30
102 107
103 74
104 214
105 263
106 446
107 402
108 200
116 46
117 125
118 443
119 280
120 903
121 223
132 94
133 143
134 982
135 999
136 341
137 69

$$$$

     RDKit          2D

 13 13  0  0  0  0  0  0  0  0999 V2000
   -3.8190    0.7931    0.0000 C   0  0  0  0  0  0  0  0  0  0  0  0
    1.3830   -2.1926    0.0000 C   0  0  0  0  0  0  0  0  0  0  0  0
    0.0839   -1.4426    0.0000 C   0  0  0  0  0  0  0  0  0  0  0  0
    2.6775   -1.4504    0.0000 C   0  0  0  0  0  0  0  0  0  0  0  0
    1.3789    0.8004    0.0000 C   0  0  0  0  0  0  0  0  0  0  0  0
   -1.2209    0.7974    0.0000 C   0  0  0  0  0  0  0  0  0  0  0  0
    0.0794    0.0496    0.0000 C   0  0  0  0  0  0  0  0  0  0  0  0
    2.6780    0.0504    0.0000 C   0  0  0  0  0  0  0  0  0  0  0  0
    3.9771    0.8002    0.0000 C   0  0  0  0  0  0  0  0  0  0  0  0
    4.7269   -0.4990    0.0000 F   0  0  0  0  0  0  0  0  0  0  0  0
    5.2763    1.5500    0.0000 F   0  0  0  0  0  0  0  0  0  0  0  0
    3.2273    2.0994    0.0000 F   0  0  0  0  0  0  0  0  0  0  0  0
   -2.5187    0.0452    0.0000 N   0  0  0  0  0  0  0  0  0  0  0  0
  3  2  2  0
  4  2  1  0
  7  3  1  0
  7  5  2  0
  7  6  1  0
  8  4  2  0
  8  5  1  0
  9  8  1  0
 10  9  1  0
 11  9  1  0
 12  9  1  0
 13  1  1  0
  6 13  2  0
M  END
>  <NAME>  (604) 
N-(3-TRIFLUOROMETHYLBENZYLIDENE)METHYLAMINE

>  <SYNONYMS>  (604) 


>  <SPECTRUM TYPE>  (604) 
MS1

>  <INSTRUMENT TYPE>  (604) 
EI-B

>  <INSTRUMENT>  (604) 
JEOL JMS-DX-300

>  <ION MODE>  (604) 
P

>  <INCHIKEY>  (604) 
PYFNALSBVCFOLS-AWNIVKPZSA-N

>  <FORMULA>  (604) 
C9H8F3N

>  <EXACT MASS>  (604) 
187.060883916

>  <MW>  (604) 
187

>  <ID>  (604) 
JP011192

>  <CONTRIBUTOR>  (604) 
University of Tokyo Team, {Faculty of Engineering, University of Tokyo

>  <COMMENT>  (604) 
SMILES=CN=Cc(c1)cc(cc1)C(F)(F)F
InChI=InChI=1S/C9H8F3N/c1-13-6-7-3-2-4-8(5-7)9(10,11)12/h2-6H,1H3/b13-6+
computed SMILES=FC(F)(F)C=1C=CC=C(C=NC)C1
accession=JP011192
date=2016.01.19 (Created 2008.10.21, modified 2011.05.06)
author=SAWADA M, THE INST. OF SCIENTIFIC AND INDUSTRIALRESEARCH OSAKA UNIV.
license=CC BY-NC-SA
exact mass=187.06088
ionization energy=70 eV
ion type=[M]+*
computed spectral entropy=3.651994397519468
computed normalized entropy=0.8198719485997673
SPLASH=splash10-00ku-7900000000-525e555fdbb005f503ab
submitter=submitter = University of Tokyo Team (Faculty of Engineering, University of Tokyo)
MoNA Rating=3.75

>  <NUM PEAKS>  (604) 
86

>  <MASS SPECTRAL PEAKS>  (604) 
33 1.6
37 2
38 8.1
39 16.2
40 6.7
41 29.5
42 70.3
43 5.7
49 1.1
50 22
51 18.5
52 3
57 5.7
61 2.7
62 9.8
63 18
64 3.2
65 2.3
66 1.4
68 1.1
69 56.9
70 1.8
74 8.6
75 23.9
76 10.3
77 6.5
80 1
81 3.3
83 1.9
86 2.9
87 5.2
88 4.2
89 13.9
90 5.8
91 7
93 1.1
94 1.9
95 12.2
96 5.1
99 5.8
100 2.7
101 2.1
102 3.6
107 7.3
108 3
109 12.2
110 1.2
112 1
114 1.3
116 3
117 8.2
118 22.8
119 8.7
120 1.2
121 5
125 12.3
126 7.4
127 4.8
132 1.3
137 1.4
138 3.8
139 1.8
143 1
144 1.3
145 37.8
146 7.9
152 8.9
153 1.2
155 1
157 1.3
158 3
159 21
160 2
166 3.5
167 1.5
168 22
169 2.6
170 3
171 5
172 1.9
173 3.6
174 2.8
185 3.6
186 99.99
187 95.5
188 19.7

>  <PREDICTED SPECTRUM>  (604) 
14 25
15 55
16 13
17 6
25 6
26 57
27 118
28 118
29 75
31 34
33 51
34 25
36 8
37 89
38 161
39 277
40 164
41 158
42 304
43 147
44 71
45 17
47 22
48 7
49 67
50 298
51 290
52 194
53 107
54 42
55 57
56 71
57 244
58 72
59 24
60 6
61 98
62 192
63 300
64 169
65 95
66 79
67 70
68 112
69 298
70 141
71 55
72 6
74 187
75 386
76 230
77 128
78 66
79 75
80 82
81 174
82 114
83 149
84 58
85 39
86 128
87 145
88 142
89 244
90 178
91 151
92 75
93 78
94 127
95 340
96 151
97 56
98 58
99 191
100 138
101 121
102 128
103 56
106 9
107 201
108 97
109 176
110 71
111 54
112 13
113 111
114 134
115 34
116 61
117 92
118 356
119 221
120 163
121 117
123 19
124 5
125 316
126 304
127 186
128 72
129 20
130 17
131 54
132 85
133 38
134 21
137 9
138 153
139 148
140 97
143 59
144 127
145 625
146 204
147 97
148 57
152 254
153 35
154 22
155 28
157 64
158 205
159 397
160 139
166 214
168 275
169 101
170 17
171 84
172 102
173 37
184 41
185 82
186 999
187 867
188 346
189 104

$$$$

     RDKit          2D

 10 10  0  0  0  0  0  0  0  0999 V2000
    4.2171    2.0942    0.0000 C   0  0  0  0  0  0  0  0  0  0  0  0
   -0.9657    2.0581    0.0000 C   0  0  0  0  0  0  0  0  0  0  0  0
    0.3293   -0.1849    0.0000 C   0  0  0  0  0  0  0  0  0  0  0  0
   -2.2648    1.3081    0.0000 C   0  0  0  0  0  0  0  0  0  0  0  0
   -0.9698   -0.9349    0.0000 C   0  0  0  0  0  0  0  0  0  0  0  0
    1.6190    2.0811    0.0000 C   0  0  0  0  0  0  0  0  0  0  0  0
    0.3238    1.3246    0.0000 C   0  0  0  0  0  0  0  0  0  0  0  0
   -2.2830   -0.1804    0.0000 C   0  0  0  0  0  0  0  0  0  0  0  0
   -3.5858   -0.9238    0.0000 Cl  0  0  0  0  0  0  0  0  0  0  0  0
    2.9218    1.3377    0.0000 N   0  0  0  0  0  0  0  0  0  0  0  0
  4  2  2  0
  5  3  1  0
  7  2  1  0
  7  3  2  0
  7  6  1  0
  8  4  1  0
  8  5  2  0
  9  8  1  0
 10  1  1  0
  6 10  2  0
M  END
>  <NAME>  (605) 
N-(4-CHLOROBENZYLIDENE)METHYLAMINE

>  <SYNONYMS>  (605) 


>  <SPECTRUM TYPE>  (605) 
MS1

>  <INSTRUMENT TYPE>  (605) 
EI-B

>  <INSTRUMENT>  (605) 
JEOL JMS-DX-300

>  <ION MODE>  (605) 
P

>  <INCHIKEY>  (605) 
MVKUBKNVOVQEAV-UXBLZVDNSA-N

>  <FORMULA>  (605) 
C8H8ClN

>  <EXACT MASS>  (605) 
153.034526936

>  <MW>  (605) 
153

>  <ID>  (605) 
JP011191

>  <CONTRIBUTOR>  (605) 
University of Tokyo Team, {Faculty of Engineering, University of Tokyo

>  <COMMENT>  (605) 
SMILES=CN=Cc(c1)ccc(Cl)c1
InChI=InChI=1S/C8H8ClN/c1-10-6-7-2-4-8(9)5-3-7/h2-6H,1H3/b10-6+
computed SMILES=ClC1=CC=C(C=NC)C=C1
accession=JP011191
date=2016.01.19 (Created 2008.10.21, modified 2011.05.06)
author=SAWADA M, THE INST. OF SCIENTIFIC AND INDUSTRIALRESEARCH OSAKA UNIV.
license=CC BY-NC-SA
exact mass=153.03453
ionization energy=70 eV
ion type=[M]+*
computed spectral entropy=3.078787167882464
computed normalized entropy=0.7718223818253257
SPLASH=splash10-0udi-3900000000-91cd218cef369d2bc8a9
submitter=submitter = University of Tokyo Team (Faculty of Engineering, University of Tokyo)
MoNA Rating=3.75

>  <NUM PEAKS>  (605) 
54

>  <MASS SPECTRAL PEAKS>  (605) 
36 1.2
38 1.8
39 4
40 1
41 10.5
42 46.9
43 1.7
50 8.8
51 8.1
52 1
59 3.8
61 1.7
62 3.6
63 8
64 1.1
65 1.5
73 2.7
74 3.8
75 16.4
76 6.1
77 8.9
85 2.1
86 1.6
87 1.9
88 1
89 15.8
90 4.8
91 6.1
99 2
102 6.3
111 20.1
112 12.1
113 7.1
114 3.9
116 3
117 9.8
118 13.3
119 1.3
123 1.3
125 20.5
126 1.9
127 6.5
137 7.7
138 1.9
139 7.5
140 5
141 1.9
142 1.4
151 1.9
152 99.99
153 98.3
154 75.4
155 51.4
156 5.6

>  <PREDICTED SPECTRUM>  (605) 
14 12
15 52
16 12
17 15
26 53
27 74
28 84
35 23
36 54
37 50
38 72
39 135
40 107
41 114
42 419
43 147
44 106
49 31
50 264
51 274
52 156
53 30
54 26
60 9
61 122
62 176
63 244
64 134
65 59
66 46
68 43
73 131
74 181
75 481
76 258
77 191
78 38
79 5
83 17
84 55
85 100
86 77
87 144
88 93
89 379
90 221
91 194
92 67
93 34
96 0
97 60
98 67
99 80
100 49
101 126
102 309
103 164
104 8
109 14
110 84
111 454
112 202
113 294
114 60
115 78
116 140
117 279
118 350
119 152
123 39
124 124
125 275
126 224
127 182
128 98
136 69
137 215
138 307
139 94
140 116
141 9
151 90
152 999
153 893
154 704
155 536
156 185

$$$$

     RDKit          2D

  9  9  0  0  0  0  0  0  0  0999 V2000
   -3.5724    2.0075    0.0000 C   0  0  0  0  0  0  0  0  0  0  0  0
    2.9228   -0.2425    0.0000 C   0  0  0  0  0  0  0  0  0  0  0  0
    2.9233    1.2583    0.0000 C   0  0  0  0  0  0  0  0  0  0  0  0
    1.6233   -0.9933    0.0000 C   0  0  0  0  0  0  0  0  0  0  0  0
    1.6243    2.0083    0.0000 C   0  0  0  0  0  0  0  0  0  0  0  0
    0.3243   -0.2433    0.0000 C   0  0  0  0  0  0  0  0  0  0  0  0
   -0.9743    2.0075    0.0000 C   0  0  0  0  0  0  0  0  0  0  0  0
    0.3248    1.2575    0.0000 C   0  0  0  0  0  0  0  0  0  0  0  0
   -2.2733    1.2575    0.0000 N   0  0  0  0  0  0  0  0  0  0  0  0
  3  2  2  0
  4  2  1  0
  5  3  1  0
  6  4  2  0
  8  5  2  0
  8  6  1  0
  8  7  1  0
  9  1  1  0
  7  9  2  0
M  END
>  <NAME>  (606) 
N-BENZYLIDENEMETHYLAMINE

>  <SYNONYMS>  (606) 


>  <SPECTRUM TYPE>  (606) 
MS1

>  <INSTRUMENT TYPE>  (606) 
EI-B

>  <INSTRUMENT>  (606) 
JEOL JMS-DX-300

>  <ION MODE>  (606) 
P

>  <INCHIKEY>  (606) 
HXTGGPKOEKKUQO-VQHVLOKHSA-N

>  <FORMULA>  (606) 
C8H9N

>  <EXACT MASS>  (606) 
119.073499288

>  <MW>  (606) 
119

>  <ID>  (606) 
JP011190

>  <CONTRIBUTOR>  (606) 
University of Tokyo Team, {Faculty of Engineering, University of Tokyo

>  <COMMENT>  (606) 
SMILES=CN=Cc(c1)cccc1
InChI=InChI=1S/C8H9N/c1-9-7-8-5-3-2-4-6-8/h2-7H,1H3/b9-7+
computed SMILES=N(=CC=1C=CC=CC1)C
accession=JP011190
date=2016.01.19 (Created 2008.10.21, modified 2011.05.06)
author=SAWADA M, THE INST. OF SCIENTIFIC AND INDUSTRIALRESEARCH OSAKA UNIV.
license=CC BY-NC-SA
exact mass=119.0735
ionization energy=70 eV
ion type=[M]+*
computed spectral entropy=3.506226955914278
computed normalized entropy=0.8917554549551185
SPLASH=splash10-016u-9300000000-fdd2d6bff044ff6a3506
submitter=submitter = University of Tokyo Team (Faculty of Engineering, University of Tokyo)
MoNA Rating=3.75

>  <NUM PEAKS>  (606) 
51

>  <MASS SPECTRAL PEAKS>  (606) 
37 9.9
38 20.9
39 42.6
40 11.1
41 43.2
42 61.7
43 11.5
44 1.8
45 1
46 1.9
49 5.7
50 47.6
51 57.3
52 35.6
53 3.2
59 14.2
60 5.8
61 11
62 26.8
63 48.9
64 18.4
65 42
66 5
73 3.7
74 18.4
75 20.4
76 42
77 72.8
78 67
79 10.7
85 3.7
86 6.6
87 5.7
88 3.3
89 54
90 31.8
91 72.8
92 16.4
99 1.2
102 7.2
103 30
104 16.5
105 21.1
106 20.6
107 2
116 12.2
117 36.4
118 99.99
119 95.9
120 68.8
121 5.6

>  <PREDICTED SPECTRUM>  (606) 
14 5
15 53
16 21
25 7
26 47
27 78
28 110
29 51
37 71
38 126
39 252
40 118
41 138
42 390
43 231
44 57
49 33
50 303
51 432
52 211
53 55
57 52
58 6
61 78
62 196
63 356
64 240
65 263
66 179
67 79
68 16
74 58
75 164
76 327
77 573
78 277
79 123
87 60
89 326
90 278
91 348
92 344
93 179
94 55
102 8
103 329
104 456
105 180
116 78
117 192
118 999
119 869
120 279

$$$$

     RDKit          2D

 21 23  0  0  0  0  0  0  0  0999 V2000
    3.1142    2.4260    0.0000 C   0  0  0  0  0  0  0  0  0  0  0  0
   -5.9791    6.1760    0.0000 C   0  0  0  0  0  0  0  0  0  0  0  0
   -4.9745    0.4788    0.0000 C   0  0  0  0  0  0  0  0  0  0  0  0
    3.1147    3.9269    0.0000 C   0  0  0  0  0  0  0  0  0  0  0  0
    1.8147    1.6752    0.0000 C   0  0  0  0  0  0  0  0  0  0  0  0
   -5.9795    4.6752    0.0000 C   0  0  0  0  0  0  0  0  0  0  0  0
   -4.6795    6.9269    0.0000 C   0  0  0  0  0  0  0  0  0  0  0  0
   -3.4965    0.2177    0.0000 C   0  0  0  0  0  0  0  0  0  0  0  0
   -5.4883    1.8890    0.0000 C   0  0  0  0  0  0  0  0  0  0  0  0
    1.8156    4.6769    0.0000 C   0  0  0  0  0  0  0  0  0  0  0  0
    0.5156    2.4252    0.0000 C   0  0  0  0  0  0  0  0  0  0  0  0
   -4.6805    3.9252    0.0000 C   0  0  0  0  0  0  0  0  0  0  0  0
   -3.3805    6.1769    0.0000 C   0  0  0  0  0  0  0  0  0  0  0  0
   -2.5324    1.3668    0.0000 C   0  0  0  0  0  0  0  0  0  0  0  0
   -4.5241    3.0381    0.0000 C   0  0  0  0  0  0  0  0  0  0  0  0
   -0.7829    4.6760    0.0000 C   0  0  0  0  0  0  0  0  0  0  0  0
    0.5161    3.9260    0.0000 C   0  0  0  0  0  0  0  0  0  0  0  0
   -3.3810    4.6760    0.0000 C   0  0  0  0  0  0  0  0  0  0  0  0
   -3.0461    2.7770    0.0000 C   0  0  0  0  0  0  0  0  0  0  0  0
   -2.0819    3.9260    0.0000 C   0  0  0  0  0  0  0  0  0  0  0  0
   -1.1178    2.7770    0.0000 O   0  0  0  0  0  0  0  0  0  0  0  0
  4  1  2  0
  5  1  1  0
  6  2  2  0
  7  2  1  0
  8  3  2  0
  9  3  1  0
 10  4  1  0
 11  5  2  0
 12  6  1  0
 13  7  2  0
 14  8  1  0
 15  9  2  0
 17 10  2  0
 17 11  1  0
 17 16  1  0
 18 12  2  0
 18 13  1  0
 19 14  2  0
 19 15  1  0
 20 16  1  0
 20 18  1  0
 20 19  1  0
 21 20  1  0
M  END
>  <NAME>  (607) 
1-BENZYL-1,1-DIPHENYLMETHANOL

>  <SYNONYMS>  (607) 


>  <SPECTRUM TYPE>  (607) 
MS1

>  <INSTRUMENT TYPE>  (607) 
EI-B

>  <INSTRUMENT>  (607) 
JEOL JMS-DX-300

>  <ION MODE>  (607) 
P

>  <INCHIKEY>  (607) 
QMPKJVBRCQVFLL-UHFFFAOYSA-N

>  <FORMULA>  (607) 
C20H18O

>  <EXACT MASS>  (607) 
274.135765196

>  <MW>  (607) 
274

>  <ID>  (607) 
JP011189

>  <CONTRIBUTOR>  (607) 
University of Tokyo Team, {Faculty of Engineering, University of Tokyo

>  <COMMENT>  (607) 
SMILES=c(c3)ccc(c3)CC(O)(c(c2)cccc2)c(c1)cccc1
InChI=InChI=1S/C20H18O/c21-20(18-12-6-2-7-13-18,19-14-8-3-9-15-19)16-17-10-4-1-5-11-17/h1-15,21H,16H2
computed SMILES=OC(C=1C=CC=CC1)(C=2C=CC=CC2)CC=3C=CC=CC3
accession=JP011189
date=2016.01.19 (Created 2008.10.21, modified 2011.05.06)
author=SAWADA M, THE INST. OF SCIENTIFIC AND INDUSTRIALRESEARCH OSAKA UNIV.
license=CC BY-NC-SA
exact mass=274.13577
ionization energy=70 eV
ion type=[M]+*
computed spectral entropy=3.769585214301271
computed normalized entropy=0.8099736419485571
SPLASH=splash10-0560-8900000000-6ea36257e6615de8fca0
submitter=submitter = University of Tokyo Team (Faculty of Engineering, University of Tokyo)
MoNA Rating=3.75

>  <NUM PEAKS>  (607) 
105

>  <MASS SPECTRAL PEAKS>  (607) 
38 2
39 15.3
40 8.7
41 13.6
42 1.9
43 9.8
44 27.6
45 3.3
50 10.2
51 40.2
52 6.6
53 3.4
55 6
56 1.9
57 6
60 2.4
61 1.7
62 1.7
63 7.3
64 2.1
65 26.8
66 2.6
67 2.8
68 2.7
69 15.2
70 2.4
71 2.8
73 2
74 3.5
75 3.7
76 8.7
77 71.7
78 21
79 3.2
81 6.8
82 1.7
83 2.3
84 1.5
85 1.1
87 1.5
89 6
90 3.1
91 47.7
92 8.6
93 2.2
94 1.7
95 2.7
97 1.6
101 1.5
102 2.2
103 1
104 3.7
105 83.9
106 28.1
107 3.8
109 1.3
113 2.2
114 1
115 4.7
118 1
119 1.1
121 1.9
122 9.3
123 2
126 2.8
127 3
128 2.6
129 1.4
135 1
136 1.6
137 2.2
139 3.3
149 6.4
150 2.6
151 5
152 15.3
153 7.6
154 3
155 1.7
163 2.7
164 2.3
165 15.1
166 3.6
167 7
168 1.5
176 2.8
177 2.3
178 8.5
179 4.8
180 1.3
181 11.2
182 8.7
183 99.99
184 53.1
185 5.7
197 1.2
239 1.8
240 1
241 1.3
252 1.8
253 1.7
254 1
255 1.9
256 8.1
257 2.4

>  <PREDICTED SPECTRUM>  (607) 
14 8
15 0
17 6
18 21
25 13
26 43
27 180
28 73
29 73
31 33
33 11
34 5
36 18
37 31
38 79
39 357
40 149
41 328
42 128
43 293
44 91
45 60
47 43
49 44
50 233
51 461
52 223
53 160
54 60
55 194
56 121
57 177
58 60
60 36
61 35
62 115
63 240
64 106
65 366
66 125
67 114
68 52
69 129
70 126
71 117
73 0
74 136
75 200
76 217
77 754
78 385
79 243
80 58
81 79
82 98
83 85
84 55
86 16
87 25
88 56
89 244
90 128
91 591
92 325
93 220
94 143
95 95
96 45
97 50
98 38
99 72
100 12
101 91
102 196
103 85
104 55
105 995
106 436
107 107
108 71
109 138
110 9
114 18
115 292
116 98
117 74
118 28
119 86
120 53
121 72
122 31
125 16
126 226
127 238
128 194
131 1
132 91
133 54
134 48
135 142
136 44
137 104
139 154
140 55
141 59
142 32
143 15
145 37
146 56
147 155
148 134
149 142
150 123
151 170
152 332
153 345
154 195
155 175
156 31
161 11
163 104
164 98
165 431
166 232
167 175
168 82
169 31
170 51
176 168
177 177
178 375
179 284
180 97
181 261
182 228
183 999
184 554
185 162
186 51
189 82
195 7
197 50
202 62
211 10
212 28
213 33
214 46
239 65
241 56
255 140
256 289
257 121
258 28
260 15
274 38
275 1

$$$$

     RDKit          2D

 10 10  0  0  0  0  0  0  0  0999 V2000
    2.0490    0.5210    0.0000 C   0  0  0  0  0  0  0  0  0  0  0  0
    2.5981    2.5700    0.0000 C   0  0  0  0  0  0  0  0  0  0  0  0
   -2.5981   -0.4300    0.0000 C   0  0  0  0  0  0  0  0  0  0  0  0
   -1.2986   -1.1808    0.0000 C   0  0  0  0  0  0  0  0  0  0  0  0
   -2.5986    1.0708    0.0000 C   0  0  0  0  0  0  0  0  0  0  0  0
    0.0005   -0.4308    0.0000 C   0  0  0  0  0  0  0  0  0  0  0  0
   -1.2995    1.8208    0.0000 C   0  0  0  0  0  0  0  0  0  0  0  0
    0.0000    1.0700    0.0000 C   0  0  0  0  0  0  0  0  0  0  0  0
    1.2990    1.8200    0.0000 C   0  0  0  0  0  0  0  0  0  0  0  0
    0.5490    3.1190    0.0000 O   0  0  0  0  0  0  0  0  0  0  0  0
  4  3  2  0
  5  3  1  0
  6  4  1  0
  7  5  2  0
  8  6  2  0
  8  7  1  0
  9  1  1  0
  9  2  1  0
  9  8  1  0
 10  9  1  0
M  END
>  <NAME>  (608) 
1-METHYL-1-PHENYLETHANOL

>  <SYNONYMS>  (608) 


>  <SPECTRUM TYPE>  (608) 
MS1

>  <INSTRUMENT TYPE>  (608) 
EI-B

>  <INSTRUMENT>  (608) 
JEOL JMS-DX-300

>  <ION MODE>  (608) 
P

>  <INCHIKEY>  (608) 
BDCFWIDZNLCTMF-UHFFFAOYSA-N

>  <FORMULA>  (608) 
C9H12O

>  <EXACT MASS>  (608) 
136.088815004

>  <MW>  (608) 
136

>  <ID>  (608) 
JP011188

>  <CONTRIBUTOR>  (608) 
University of Tokyo Team, {Faculty of Engineering, University of Tokyo

>  <COMMENT>  (608) 
SMILES=CC(C)(O)c(c1)cccc1
InChI=InChI=1S/C9H12O/c1-9(2,10)8-6-4-3-5-7-8/h3-7,10H,1-2H3
computed SMILES=OC(C=1C=CC=CC1)(C)C
accession=JP011188
date=2016.01.19 (Created 2008.10.21, modified 2011.05.06)
author=SAWADA M, THE INST. OF SCIENTIFIC AND INDUSTRIALRESEARCH OSAKA UNIV.
license=CC BY-NC-SA
exact mass=136.08882
ionization energy=70 eV
ion type=[M]+*
computed spectral entropy=3.170807025651739
computed normalized entropy=0.7809017433358926
SPLASH=splash10-00dl-9500000000-d2c8039d1de2234ffb7d
submitter=submitter = University of Tokyo Team (Faculty of Engineering, University of Tokyo)
MoNA Rating=3.75

>  <NUM PEAKS>  (608) 
58

>  <MASS SPECTRAL PEAKS>  (608) 
34 1.2
38 1.7
39 10.9
40 17.8
41 7.8
42 4.5
43 74.3
44 17.2
45 2.4
50 6.2
51 18.6
52 4.2
53 1.7
55 3.1
56 1
57 3
58 1.6
59 8.7
60 2.8
61 12.8
62 2
63 3.7
64 1
65 5.1
66 1.2
67 1.2
69 1.8
70 1
74 2.6
75 2.6
76 2.1
77 26.9
78 18
79 3.8
83 1.2
85 1.2
89 1.6
91 12.8
92 2.6
93 4.4
94 1.2
95 1.2
97 1
102 3
103 5.1
104 1.2
105 10
106 1.8
115 3.1
117 4.2
118 7.9
119 3.3
120 1.9
121 99.99
122 17.6
123 1.4
136 34.5
137 3.8

>  <PREDICTED SPECTRUM>  (608) 
14 39
15 131
16 10
17 14
18 21
25 1
26 36
27 94
28 27
29 5
31 107
37 30
38 85
39 299
40 108
41 189
42 143
43 993
44 102
45 119
49 16
50 258
51 447
52 206
53 194
54 43
55 25
58 116
59 330
60 40
61 43
62 113
63 195
64 74
65 288
66 161
67 73
73 1
74 145
75 147
76 111
77 557
78 365
79 229
80 66
87 12
88 13
89 133
90 12
91 457
92 114
93 158
94 92
101 18
102 130
103 426
104 138
105 252
106 172
115 172
116 61
117 215
118 330
119 243
120 14
121 999
122 364
123 68
135 47
136 236
137 62

$$$$

     RDKit          2D

 21 23  0  0  0  0  0  0  0  0999 V2000
    2.5840   -1.5353    0.0000 C   0  0  0  0  0  0  0  0  0  0  0  0
    2.5814    5.9675    0.0000 C   0  0  0  0  0  0  0  0  0  0  0  0
   -1.8496    2.2482    0.0000 C   0  0  0  0  0  0  0  0  0  0  0  0
    1.2815    5.2173    0.0000 C   0  0  0  0  0  0  0  0  0  0  0  0
    3.8815    5.2177    0.0000 C   0  0  0  0  0  0  0  0  0  0  0  0
   -1.3365    0.8378    0.0000 C   0  0  0  0  0  0  0  0  0  0  0  0
   -0.8855    3.3983    0.0000 C   0  0  0  0  0  0  0  0  0  0  0  0
    6.4753   -0.7753    0.0000 C   0  0  0  0  0  0  0  0  0  0  0  0
    6.4798    0.7168    0.0000 C   0  0  0  0  0  0  0  0  0  0  0  0
    5.1763   -1.5253    0.0000 C   0  0  0  0  0  0  0  0  0  0  0  0
    1.2818    3.7173    0.0000 C   0  0  0  0  0  0  0  0  0  0  0  0
    3.8818    3.7177    0.0000 C   0  0  0  0  0  0  0  0  0  0  0  0
    0.1407    0.5775    0.0000 C   0  0  0  0  0  0  0  0  0  0  0  0
    0.5918    3.1381    0.0000 C   0  0  0  0  0  0  0  0  0  0  0  0
    5.1803    1.4677    0.0000 C   0  0  0  0  0  0  0  0  0  0  0  0
    3.8818   -0.7832    0.0000 C   0  0  0  0  0  0  0  0  0  0  0  0
    2.5819    2.9675    0.0000 C   0  0  0  0  0  0  0  0  0  0  0  0
    1.1049    1.7277    0.0000 C   0  0  0  0  0  0  0  0  0  0  0  0
    3.8813    0.7177    0.0000 C   0  0  0  0  0  0  0  0  0  0  0  0
    2.5821    1.4675    0.0000 C   0  0  0  0  0  0  0  0  0  0  0  0
    2.0693    0.0579    0.0000 O   0  0  0  0  0  0  0  0  0  0  0  0
  4  2  2  0
  5  2  1  0
  6  3  2  0
  7  3  1  0
  9  8  2  0
 10  8  1  0
 11  4  1  0
 12  5  2  0
 13  6  1  0
 14  7  2  0
 15  9  1  0
 16  1  1  0
 16 10  2  0
 17 11  2  0
 17 12  1  0
 18 13  2  0
 18 14  1  0
 19 15  2  0
 19 16  1  0
 20 17  1  0
 20 18  1  0
 20 19  1  0
 21 20  1  0
M  END
>  <NAME>  (609) 
1-(2-METHYLPHENYL)-1,1-DIPHENYLMETHANOL

>  <SYNONYMS>  (609) 


>  <SPECTRUM TYPE>  (609) 
MS1

>  <INSTRUMENT TYPE>  (609) 
EI-B

>  <INSTRUMENT>  (609) 
JEOL JMS-DX-300

>  <ION MODE>  (609) 
P

>  <INCHIKEY>  (609) 
RCHCPDVJDGLJNS-UHFFFAOYSA-N

>  <FORMULA>  (609) 
C20H18O

>  <EXACT MASS>  (609) 
274.135765196

>  <MW>  (609) 
274

>  <ID>  (609) 
JP011187

>  <CONTRIBUTOR>  (609) 
University of Tokyo Team, {Faculty of Engineering, University of Tokyo

>  <COMMENT>  (609) 
SMILES=c(c3)ccc(c3)C(O)(c(c2)cccc2)c(c1)c(C)ccc1
InChI=InChI=1S/C20H18O/c1-16-10-8-9-15-19(16)20(21,17-11-4-2-5-12-17)18-13-6-3-7-14-18/h2-15,21H,1H3
computed SMILES=OC(C=1C=CC=CC1)(C=2C=CC=CC2)C=3C=CC=CC3C
ion type=[M]+*
accession=JP011187
date=2016.01.19 (Created 2008.10.21, modified 2011.05.06)
author=SAWADA M, THE INST. OF SCIENTIFIC AND INDUSTRIALRESEARCH OSAKA UNIV.
license=CC BY-NC-SA
exact mass=274.13577
ionization energy=70 eV
computed spectral entropy=3.4397591967007197
computed normalized entropy=0.8069475766236106
SPLASH=splash10-0a6r-3920000000-17bb9c9cd6d4734d03f4
submitter=submitter = University of Tokyo Team (Faculty of Engineering, University of Tokyo)
MoNA Rating=3.75

>  <NUM PEAKS>  (609) 
71

>  <MASS SPECTRAL PEAKS>  (609) 
39 5.1
41 2
50 2.8
51 16.5
52 2.2
63 3.1
65 13.8
75 1.4
76 3.3
77 65
78 8.7
79 1.6
89 3.7
90 1.8
91 32.4
92 8.1
93 2.2
105 99.99
106 8.9
113 1.5
115 3.2
119 37.5
120 5.1
126 1.7
127 1.6
128 2
139 2
151 2.6
152 8.6
153 5
154 24.7
155 8.6
163 1.7
164 1.7
165 11.7
166 2.8
167 2
168 2.6
169 3.4
176 1.8
177 2.2
178 18.9
179 11.4
180 2.1
181 6.7
182 4.2
183 58.6
184 9.7
185 1
189 1
195 7.7
196 5
197 42.5
198 7.7
202 1.4
215 2
226 1.3
239 3.1
240 1.6
241 2.9
252 1.8
253 1.7
254 1.1
255 3.7
256 24.9
257 8.2
258 2.1
259 1.8
273 1.7
274 43.4
275 13

>  <PREDICTED SPECTRUM>  (609) 
15 7
27 28
28 22
29 0
38 17
39 257
40 70
41 169
42 14
43 68
44 19
47 17
50 163
51 364
52 135
53 115
56 29
57 53
60 3
62 53
63 166
64 54
65 266
66 45
69 36
70 25
71 18
73 9
74 34
75 139
76 149
77 720
78 299
79 152
83 7
87 17
88 14
89 168
90 93
91 466
92 214
93 141
94 93
96 2
98 5
99 15
101 63
102 146
103 121
104 58
105 999
106 318
109 7
110 28
111 45
112 8
115 119
116 14
117 69
118 92
119 413
120 157
121 102
125 6
126 129
127 165
128 88
129 46
133 59
134 38
135 40
136 13
137 87
138 31
139 66
145 3
146 13
147 120
148 62
149 44
150 16
151 110
152 250
153 187
154 160
155 229
156 39
161 32
162 43
163 28
164 85
165 395
166 186
167 165
168 113
169 371
170 142
176 172
177 124
178 271
179 338
180 185
181 274
182 215
183 815
184 329
189 7
195 252
196 263
197 604
198 254
199 47
202 50
215 46
227 2
229 3
239 116
240 56
241 212
242 92
243 19
253 111
254 131
255 262
256 485
257 268
258 201
259 218
260 83
273 121
274 596
275 281
276 73

$$$$

     RDKit          2D

 21 23  0  0  0  0  0  0  0  0999 V2000
   -2.5989   -1.5002    0.0000 C   0  0  0  0  0  0  0  0  0  0  0  0
    6.4964   -0.7492    0.0000 C   0  0  0  0  0  0  0  0  0  0  0  0
    5.4909    4.9479    0.0000 C   0  0  0  0  0  0  0  0  0  0  0  0
    6.4966    0.7517    0.0000 C   0  0  0  0  0  0  0  0  0  0  0  0
    5.1970   -1.5002    0.0000 C   0  0  0  0  0  0  0  0  0  0  0  0
    4.0129    5.2087    0.0000 C   0  0  0  0  0  0  0  0  0  0  0  0
    6.0049    3.5378    0.0000 C   0  0  0  0  0  0  0  0  0  0  0  0
    5.1975    1.5015    0.0000 C   0  0  0  0  0  0  0  0  0  0  0  0
    3.8978   -0.7504    0.0000 C   0  0  0  0  0  0  0  0  0  0  0  0
    3.0489    4.0595    0.0000 C   0  0  0  0  0  0  0  0  0  0  0  0
    5.0409    2.3886    0.0000 C   0  0  0  0  0  0  0  0  0  0  0  0
   -1.3000    0.7500    0.0000 C   0  0  0  0  0  0  0  0  0  0  0  0
    0.0000   -1.5000    0.0000 C   0  0  0  0  0  0  0  0  0  0  0  0
    0.0000    1.5000    0.0000 C   0  0  0  0  0  0  0  0  0  0  0  0
    1.3000   -0.7500    0.0000 C   0  0  0  0  0  0  0  0  0  0  0  0
   -1.3000   -0.7500    0.0000 C   0  0  0  0  0  0  0  0  0  0  0  0
    3.8981    0.7504    0.0000 C   0  0  0  0  0  0  0  0  0  0  0  0
    3.5629    2.6494    0.0000 C   0  0  0  0  0  0  0  0  0  0  0  0
    1.3000    0.7500    0.0000 C   0  0  0  0  0  0  0  0  0  0  0  0
    2.5989    1.5002    0.0000 C   0  0  0  0  0  0  0  0  0  0  0  0
    1.6346    2.6491    0.0000 O   0  0  0  0  0  0  0  0  0  0  0  0
  4  2  2  0
  5  2  1  0
  6  3  2  0
  7  3  1  0
  8  4  1  0
  9  5  2  0
 10  6  1  0
 11  7  2  0
 14 12  2  0
 15 13  1  0
 16  1  1  0
 16 12  1  0
 16 13  2  0
 17  8  2  0
 17  9  1  0
 18 10  2  0
 18 11  1  0
 19 14  1  0
 19 15  2  0
 20 17  1  0
 20 18  1  0
 20 19  1  0
 21 20  1  0
M  END
>  <NAME>  (610) 
1-(4-METHYLPHENYL)-1,1-DIPHENYLMETHANOL

>  <SYNONYMS>  (610) 


>  <SPECTRUM TYPE>  (610) 
MS1

>  <INSTRUMENT TYPE>  (610) 
EI-B

>  <INSTRUMENT>  (610) 
JEOL JMS-DX-300

>  <ION MODE>  (610) 
P

>  <INCHIKEY>  (610) 
QUMADPCRQDGMNX-UHFFFAOYSA-N

>  <FORMULA>  (610) 
C20H18O

>  <EXACT MASS>  (610) 
274.13576519599997

>  <MW>  (610) 
274

>  <ID>  (610) 
JP011186

>  <CONTRIBUTOR>  (610) 
University of Tokyo Team, {Faculty of Engineering, University of Tokyo

>  <COMMENT>  (610) 
SMILES=Cc(c3)ccc(c3)C(O)(c(c2)cccc2)c(c1)cccc1
InChI=InChI=1S/C20H18O/c1-16-12-14-19(15-13-16)20(21,17-8-4-2-5-9-17)18-10-6-3-7-11-18/h2-15,21H,1H3
computed SMILES=OC(C=1C=CC=CC1)(C=2C=CC=CC2)C3=CC=C(C=C3)C
accession=JP011186
date=2016.01.19 (Created 2008.10.21, modified 2011.05.06)
author=SAWADA M, THE INST. OF SCIENTIFIC AND INDUSTRIALRESEARCH OSAKA UNIV.
license=CC BY-NC-SA
exact mass=274.13577
ionization energy=70 eV
ion type=[M]+*
computed spectral entropy=3.380198894234683
computed normalized entropy=0.7735986349685346
SPLASH=splash10-05vk-3920000000-d7909b3b0311fdcf0b24
submitter=submitter = University of Tokyo Team (Faculty of Engineering, University of Tokyo)
MoNA Rating=3.75

>  <NUM PEAKS>  (610) 
79

>  <MASS SPECTRAL PEAKS>  (610) 
38 1
39 6.4
40 1.2
41 2.8
43 1.8
44 1.4
50 5.2
51 19.1
52 4
53 1
55 1.2
57 1.6
63 3.2
65 11.6
69 1
74 1.2
75 1.3
76 2.8
77 56.6
78 16.8
79 2.2
89 3
90 2.7
91 23.2
92 4.2
98 1.6
105 80.5
106 7
113 1
115 2.7
119 37.1
120 4.1
126 1
127 1.2
128 1.4
139 1.8
149 1.8
151 1.9
152 7.3
153 4.2
154 8.2
155 3.4
163 1.2
164 1.3
165 11.4
166 2.6
167 4.7
168 20
169 20.9
170 3
176 1.2
178 3.9
179 4.4
180 1.1
181 6.1
182 2.4
183 21.2
184 3.6
195 2.8
196 10.9
197 99.99
198 19.1
199 1.8
202 1.2
215 1.8
226 1.6
239 3.2
240 1.4
241 3.4
242 1.4
252 1
255 1.3
256 1.5
257 4
258 2
259 1.8
273 1.8
274 77.7
275 21.1

>  <PREDICTED SPECTRUM>  (610) 
14 3
15 44
16 1
17 18
18 10
27 37
28 52
29 38
33 1
38 13
39 201
40 53
41 108
43 98
44 33
45 19
47 42
49 28
50 217
51 409
52 151
53 130
56 20
57 26
62 63
63 169
64 26
65 261
66 40
69 1
74 60
75 125
76 192
77 688
78 313
79 142
83 1
84 10
86 25
87 29
88 54
89 162
90 81
91 463
92 215
93 104
94 50
98 1
100 7
101 46
102 119
103 127
104 138
105 999
106 350
107 40
113 23
114 9
115 89
118 67
119 482
120 195
121 94
126 158
127 179
128 91
133 12
134 1
136 14
137 48
138 9
139 140
147 72
148 31
149 16
151 122
152 259
153 165
154 175
155 279
156 79
160 16
163 80
164 91
165 347
166 77
167 144
168 125
169 284
170 90
176 105
177 45
178 239
179 259
180 62
181 208
182 174
183 709
184 280
195 178
196 260
197 894
198 318
199 1
202 49
211 5
215 27
226 39
227 4
239 164
240 8
241 215
242 77
243 43
253 74
254 38
255 188
256 380
257 393
258 246
259 184
260 64
273 151
274 581
275 273
276 72

$$$$

     RDKit          2D

 20 22  0  0  0  0  0  0  0  0999 V2000
    0.5340    5.5708    0.0000 C   0  0  0  0  0  0  0  0  0  0  0  0
    4.4312   -1.1792    0.0000 C   0  0  0  0  0  0  0  0  0  0  0  0
   -3.8976    1.8522    0.0000 C   0  0  0  0  0  0  0  0  0  0  0  0
   -0.7660    4.8208    0.0000 C   0  0  0  0  0  0  0  0  0  0  0  0
    1.8340    4.8208    0.0000 C   0  0  0  0  0  0  0  0  0  0  0  0
    4.4316    0.3217    0.0000 C   0  0  0  0  0  0  0  0  0  0  0  0
    3.1316   -1.9300    0.0000 C   0  0  0  0  0  0  0  0  0  0  0  0
   -3.3847    0.4418    0.0000 C   0  0  0  0  0  0  0  0  0  0  0  0
   -2.9332    3.0023    0.0000 C   0  0  0  0  0  0  0  0  0  0  0  0
   -0.7660    3.3208    0.0000 C   0  0  0  0  0  0  0  0  0  0  0  0
    1.8340    3.3208    0.0000 C   0  0  0  0  0  0  0  0  0  0  0  0
    3.1326    1.0717    0.0000 C   0  0  0  0  0  0  0  0  0  0  0  0
    1.8326   -1.1800    0.0000 C   0  0  0  0  0  0  0  0  0  0  0  0
   -1.9075    0.1813    0.0000 C   0  0  0  0  0  0  0  0  0  0  0  0
   -1.4560    2.7418    0.0000 C   0  0  0  0  0  0  0  0  0  0  0  0
    0.5340    2.5708    0.0000 C   0  0  0  0  0  0  0  0  0  0  0  0
    1.8331    0.3208    0.0000 C   0  0  0  0  0  0  0  0  0  0  0  0
   -0.9432    1.3313    0.0000 C   0  0  0  0  0  0  0  0  0  0  0  0
    0.5340    1.0708    0.0000 C   0  0  0  0  0  0  0  0  0  0  0  0
    0.0210   -0.3387    0.0000 O   0  0  0  0  0  0  0  0  0  0  0  0
  4  1  2  0
  5  1  1  0
  6  2  2  0
  7  2  1  0
  8  3  2  0
  9  3  1  0
 10  4  1  0
 11  5  2  0
 12  6  1  0
 13  7  2  0
 14  8  1  0
 15  9  2  0
 16 10  2  0
 16 11  1  0
 17 12  2  0
 17 13  1  0
 18 14  2  0
 18 15  1  0
 19 16  1  0
 19 17  1  0
 19 18  1  0
 20 19  1  0
M  END
>  <NAME>  (611) 
1,1,1-TRIPHENYLMETHANOL

>  <SYNONYMS>  (611) 


>  <SPECTRUM TYPE>  (611) 
MS1

>  <INSTRUMENT TYPE>  (611) 
EI-B

>  <INSTRUMENT>  (611) 
JEOL JMS-DX-300

>  <ION MODE>  (611) 
P

>  <INCHIKEY>  (611) 
LZTRCELOJRDYMQ-UHFFFAOYSA-N

>  <FORMULA>  (611) 
C19H16O

>  <EXACT MASS>  (611) 
260.120115132

>  <MW>  (611) 
260

>  <ID>  (611) 
JP011185

>  <CONTRIBUTOR>  (611) 
University of Tokyo Team, {Faculty of Engineering, University of Tokyo

>  <COMMENT>  (611) 
SMILES=c(c3)ccc(c3)C(O)(c(c2)cccc2)c(c1)cccc1
InChI=InChI=1S/C19H16O/c20-19(16-10-4-1-5-11-16,17-12-6-2-7-13-17)18-14-8-3-9-15-18/h1-15,20H
computed SMILES=OC(C=1C=CC=CC1)(C=2C=CC=CC2)C=3C=CC=CC3
computed spectral entropy=2.9218266850094947
accession=JP011185
date=2016.01.19 (Created 2008.10.21, modified 2011.05.06)
author=SAWADA M, THE INST. OF SCIENTIFIC AND INDUSTRIALRESEARCH OSAKA UNIV.
license=CC BY-NC-SA
exact mass=260.12012
ionization energy=70 eV
ion type=[M]+*
computed normalized entropy=0.7359223826933694
SPLASH=splash10-06ur-4920000000-5917f68282546c774d9c
submitter=submitter = University of Tokyo Team (Faculty of Engineering, University of Tokyo)
MoNA Rating=3.75

>  <NUM PEAKS>  (611) 
53

>  <MASS SPECTRAL PEAKS>  (611) 
39 5
40 2.1
41 3.1
43 3
44 3.3
50 5.4
51 30.1
52 3.3
53 1.1
55 1.7
57 2.3
63 2.2
65 1.5
69 2.2
74 1.2
75 1.7
76 4
77 82.1
78 10.4
79 2.6
91 3
105 99.99
106 9.2
115 2.3
127 1.2
128 1
139 1.8
149 2.2
151 1.7
152 5.7
153 4.3
154 23.3
155 18.1
156 2.6
163 1.6
164 1.6
165 11
166 2.2
167 1.6
181 6.8
182 17.5
183 86.1
184 14.9
185 1.4
215 1.4
239 2.7
241 2.4
242 1.8
243 2.2
244 1.2
259 1.8
260 61.7
261 16.1

>  <PREDICTED SPECTRUM>  (611) 
15 4
25 2
26 4
27 64
28 53
29 26
32 6
38 11
39 76
40 6
41 4
43 40
44 32
47 26
49 52
50 183
51 389
52 112
53 49
57 44
62 48
63 105
64 32
65 44
69 11
74 27
75 96
76 143
77 696
78 310
79 184
80 8
81 37
82 55
83 11
84 21
86 27
87 30
88 85
89 109
90 49
91 14
94 5
98 19
101 19
102 98
103 68
104 104
105 999
106 407
107 159
112 24
113 34
114 4
115 113
118 38
119 2
121 6
126 97
127 73
128 86
131 26
132 19
133 99
134 24
138 63
139 187
140 9
146 5
149 0
150 40
151 75
152 225
153 209
154 273
155 195
156 90
163 133
164 136
165 487
166 215
167 96
168 89
178 22
179 10
181 283
182 306
183 742
184 324
185 7
197 34
213 50
214 23
215 33
226 78
227 74
228 116
229 45
239 246
240 131
241 310
242 323
243 432
244 214
245 60
246 3
259 149
260 514
261 208
262 29

$$$$

     RDKit          2D

 17 18  0  0  0  0  0  0  0  0999 V2000
   -3.5728    0.1874    0.0000 C   0  0  0  0  0  0  0  0  0  0  0  0
   -0.9750   -4.3134    0.0000 C   0  0  0  0  0  0  0  0  0  0  0  0
    1.6239    0.1881    0.0000 C   0  0  0  0  0  0  0  0  0  0  0  0
    5.5205   -0.5626    0.0000 C   0  0  0  0  0  0  0  0  0  0  0  0
    4.2209    0.1883    0.0000 C   0  0  0  0  0  0  0  0  0  0  0  0
    5.5209   -2.0634    0.0000 C   0  0  0  0  0  0  0  0  0  0  0  0
    2.9219   -0.5617    0.0000 C   0  0  0  0  0  0  0  0  0  0  0  0
    4.2219   -2.8134    0.0000 C   0  0  0  0  0  0  0  0  0  0  0  0
   -2.2742   -2.0634    0.0000 C   0  0  0  0  0  0  0  0  0  0  0  0
   -0.9742    0.1883    0.0000 C   0  0  0  0  0  0  0  0  0  0  0  0
   -2.2738   -0.5626    0.0000 C   0  0  0  0  0  0  0  0  0  0  0  0
   -0.9752   -2.8134    0.0000 C   0  0  0  0  0  0  0  0  0  0  0  0
    0.3248   -0.5617    0.0000 C   0  0  0  0  0  0  0  0  0  0  0  0
    2.9224   -2.0626    0.0000 C   0  0  0  0  0  0  0  0  0  0  0  0
    0.3243   -2.0626    0.0000 C   0  0  0  0  0  0  0  0  0  0  0  0
    1.6233   -2.8126    0.0000 C   0  0  0  0  0  0  0  0  0  0  0  0
    1.6233   -4.3126    0.0000 O   0  0  0  0  0  0  0  0  0  0  0  0
  5  4  2  0
  6  4  1  0
  7  5  1  0
  8  6  2  0
 11  1  1  0
 11  9  2  0
 11 10  1  0
 12  2  1  0
 12  9  1  0
 13  3  1  0
 13 10  2  0
 14  7  2  0
 14  8  1  0
 15 12  2  0
 15 13  1  0
 16 14  1  0
 16 15  1  0
 17 16  2  0
M  END
>  <NAME>  (612) 
2,4,6-TRIMETHYLBENZOPHENONE

>  <SYNONYMS>  (612) 


>  <SPECTRUM TYPE>  (612) 
MS1

>  <INSTRUMENT TYPE>  (612) 
EI-B

>  <INSTRUMENT>  (612) 
JEOL JMS-DX-300

>  <ION MODE>  (612) 
P

>  <INCHIKEY>  (612) 
HPAFOABSQZMTHE-UHFFFAOYSA-N

>  <FORMULA>  (612) 
C16H16O

>  <EXACT MASS>  (612) 
224.120115132

>  <MW>  (612) 
224

>  <ID>  (612) 
JP011184

>  <CONTRIBUTOR>  (612) 
University of Tokyo Team, {Faculty of Engineering, University of Tokyo

>  <COMMENT>  (612) 
SMILES=Cc(c2)cc(C)c(c(C)2)C(=O)c(c1)cccc1
InChI=InChI=1S/C16H16O/c1-11-9-12(2)15(13(3)10-11)16(17)14-7-5-4-6-8-14/h4-10H,1-3H3
computed SMILES=O=C(C=1C=CC=CC1)C=2C(=CC(=CC2C)C)C
accession=JP011184
date=2016.01.19 (Created 2008.10.21, modified 2011.05.06)
author=SAWADA M, THE INST. OF SCIENTIFIC AND INDUSTRIALRESEARCH OSAKA UNIV.
license=CC BY-NC-SA
exact mass=224.12012
ionization energy=70 eV
ion type=[M]+*
computed spectral entropy=3.0966706287098744
computed normalized entropy=0.7659241556856252
SPLASH=splash10-00di-3490000000-a2643cd433d432dba546
submitter=submitter = University of Tokyo Team (Faculty of Engineering, University of Tokyo)
MoNA Rating=3.75

>  <NUM PEAKS>  (612) 
57

>  <MASS SPECTRAL PEAKS>  (612) 
39 4.2
40 1.7
41 5.1
50 2.7
51 12.2
52 1.8
53 2.2
63 1.7
65 3.1
75 1.1
76 2.4
77 38.4
78 7
79 2.8
89 1.7
91 16.1
92 1.4
93 1.6
97 1.2
98 1
102 1.4
103 6.4
104 5
105 18
106 1.4
115 7.1
116 1.6
117 7.9
118 2.8
119 19.4
120 2
146 2.4
147 41.6
148 5.1
152 1.3
165 5.8
166 1.8
178 2.8
179 2.7
180 1.1
181 1
191 1.6
192 3.2
193 1.7
194 2.1
195 1.7
205 1.1
206 8.2
207 14.7
208 15
209 30.4
210 6.3
222 1.9
223 90.6
224 99.99
225 21.7
226 2.3

>  <PREDICTED SPECTRUM>  (612) 
14 9
15 40
16 15
17 19
18 20
26 22
27 138
28 95
29 84
33 0
37 0
38 54
39 307
40 101
41 176
42 94
43 81
44 43
47 18
50 196
51 478
52 196
53 200
54 29
55 43
56 24
57 42
60 1
61 1
62 69
63 208
64 114
65 342
66 138
67 79
68 8
71 4
74 103
75 176
76 156
77 831
78 340
79 219
80 24
82 20
83 97
84 65
85 38
86 49
87 61
88 35
89 209
90 90
91 456
92 163
93 118
94 17
95 32
96 49
97 143
98 63
99 25
101 82
102 193
103 354
104 426
105 747
106 145
107 80
110 17
111 60
112 27
113 44
115 319
116 190
117 278
118 264
119 385
120 158
121 32
122 21
123 56
125 73
126 79
127 5
128 96
129 155
130 119
131 223
132 239
133 218
134 124
135 33
137 29
139 35
145 286
146 192
147 906
148 390
149 150
150 84
151 144
152 232
153 67
160 72
161 118
162 131
163 222
164 97
165 331
166 105
167 33
173 31
174 66
175 82
176 167
177 215
178 373
179 294
180 261
181 277
182 137
189 189
190 154
191 365
192 233
193 169
194 208
195 231
196 19
203 151
204 169
205 325
206 438
207 479
208 402
209 991
210 413
211 43
221 136
222 190
223 981
224 999
225 424
226 128

$$$$

     RDKit          2D

 16 17  0  0  0  0  0  0  0  0999 V2000
    5.5220    1.3116    0.0000 C   0  0  0  0  0  0  0  0  0  0  0  0
    2.9230    5.8131    0.0000 C   0  0  0  0  0  0  0  0  0  0  0  0
   -3.5721    2.0622    0.0000 C   0  0  0  0  0  0  0  0  0  0  0  0
   -2.2725    1.3116    0.0000 C   0  0  0  0  0  0  0  0  0  0  0  0
   -3.5729    3.5631    0.0000 C   0  0  0  0  0  0  0  0  0  0  0  0
   -0.9736    2.0618    0.0000 C   0  0  0  0  0  0  0  0  0  0  0  0
   -2.2739    4.3133    0.0000 C   0  0  0  0  0  0  0  0  0  0  0  0
    2.9238    1.3114    0.0000 C   0  0  0  0  0  0  0  0  0  0  0  0
    1.6242    2.0622    0.0000 C   0  0  0  0  0  0  0  0  0  0  0  0
    4.2223    3.5622    0.0000 C   0  0  0  0  0  0  0  0  0  0  0  0
    4.2228    2.0614    0.0000 C   0  0  0  0  0  0  0  0  0  0  0  0
    2.9228    4.3131    0.0000 C   0  0  0  0  0  0  0  0  0  0  0  0
   -0.9743    3.5627    0.0000 C   0  0  0  0  0  0  0  0  0  0  0  0
    1.6238    3.5631    0.0000 C   0  0  0  0  0  0  0  0  0  0  0  0
    0.3246    4.3129    0.0000 C   0  0  0  0  0  0  0  0  0  0  0  0
    0.3244    5.8129    0.0000 O   0  0  0  0  0  0  0  0  0  0  0  0
  4  3  2  0
  5  3  1  0
  6  4  1  0
  7  5  2  0
  9  8  2  0
 11  1  1  0
 11  8  1  0
 11 10  2  0
 12  2  1  0
 12 10  1  0
 13  6  2  0
 13  7  1  0
 14  9  1  0
 14 12  2  0
 15 13  1  0
 15 14  1  0
 16 15  2  0
M  END
>  <NAME>  (613) 
2,4-DIMETHYLBENZOPHENONE

>  <SYNONYMS>  (613) 


>  <SPECTRUM TYPE>  (613) 
MS1

>  <INSTRUMENT TYPE>  (613) 
EI-B

>  <INSTRUMENT>  (613) 
JEOL JMS-DX-300

>  <ION MODE>  (613) 
P

>  <INCHIKEY>  (613) 
UYSQHMXRROFKRN-UHFFFAOYSA-N

>  <FORMULA>  (613) 
C15H14O

>  <EXACT MASS>  (613) 
210.104465068

>  <MW>  (613) 
210

>  <ID>  (613) 
JP011183

>  <CONTRIBUTOR>  (613) 
University of Tokyo Team, {Faculty of Engineering, University of Tokyo

>  <COMMENT>  (613) 
SMILES=Cc(c2)cc(C)c(c2)C(=O)c(c1)cccc1
InChI=InChI=1S/C15H14O/c1-11-8-9-14(12(2)10-11)15(16)13-6-4-3-5-7-13/h3-10H,1-2H3
computed SMILES=O=C(C=1C=CC=CC1)C2=CC=C(C=C2C)C
accession=JP011183
date=2016.01.19 (Created 2008.10.21, modified 2011.05.06)
author=SAWADA M, THE INST. OF SCIENTIFIC AND INDUSTRIALRESEARCH OSAKA UNIV.
license=CC BY-NC-SA
exact mass=210.10447
ionization energy=70 eV
ion type=[M]+*
computed spectral entropy=3.0692630838487847
computed normalized entropy=0.7730572841186357
SPLASH=splash10-0bt9-5980000000-59a6ad9816235c483d96
submitter=submitter = University of Tokyo Team (Faculty of Engineering, University of Tokyo)
MoNA Rating=3.75

>  <NUM PEAKS>  (613) 
53

>  <MASS SPECTRAL PEAKS>  (613) 
39 6.9
40 1
50 5
51 20.4
52 2.9
53 2.9
62 1.3
63 4.8
64 1.1
65 3.7
74 1.5
75 2.2
76 3.6
77 52.7
78 10.9
79 14.8
89 3.4
90 2.2
91 2.9
102 2.3
103 12.7
104 6
105 36.9
106 3.2
115 2.2
119 3.8
128 1
132 1.2
133 33.8
134 3.8
139 1.7
151 1.2
152 3.6
153 1.5
164 1
165 13.1
166 4.8
167 2.2
177 1.5
178 5.7
179 2.1
181 2.8
191 3
192 6.7
193 8.1
194 16.8
195 34.6
196 8.3
208 2.8
209 99.99
210 98.2
211 20.2
212 2

>  <PREDICTED SPECTRUM>  (613) 
26 10
27 69
28 43
38 36
39 190
40 44
41 97
42 10
43 61
44 14
47 11
49 25
50 202
51 431
52 165
53 164
54 26
55 38
57 32
58 13
61 35
62 106
63 217
64 70
65 241
66 93
67 27
68 0
69 34
71 18
72 20
74 141
75 220
76 182
77 716
78 298
79 204
80 43
81 28
82 53
83 103
84 21
85 40
86 68
87 50
88 37
89 218
90 115
91 266
92 58
93 48
96 56
97 120
98 90
99 56
101 86
102 149
103 201
104 298
105 799
106 202
110 42
111 77
113 40
115 260
116 99
117 105
118 31
119 57
125 41
126 97
127 176
128 63
129 59
130 25
131 132
132 287
133 999
134 322
135 108
139 107
140 19
149 59
150 94
151 146
152 179
153 53
161 1
162 5
163 39
164 40
165 195
166 143
167 206
168 79
176 115
177 201
178 298
179 211
180 199
181 257
182 50
189 42
190 3
191 223
192 226
193 350
194 302
195 591
196 255
207 128
208 171
209 982
210 832
211 325
212 60

$$$$

     RDKit          2D

 15 16  0  0  0  0  0  0  0  0999 V2000
    2.5921    1.0731    0.0000 C   0  0  0  0  0  0  0  0  0  0  0  0
    2.5925    2.5740    0.0000 C   0  0  0  0  0  0  0  0  0  0  0  0
    1.2925    0.3223    0.0000 C   0  0  0  0  0  0  0  0  0  0  0  0
   -5.1990    2.5640    0.0000 C   0  0  0  0  0  0  0  0  0  0  0  0
   -5.2072    1.0617    0.0000 C   0  0  0  0  0  0  0  0  0  0  0  0
    1.2935    3.3240    0.0000 C   0  0  0  0  0  0  0  0  0  0  0  0
   -0.0065    1.0723    0.0000 C   0  0  0  0  0  0  0  0  0  0  0  0
   -3.9069    3.3258    0.0000 C   0  0  0  0  0  0  0  0  0  0  0  0
   -3.8958    0.3141    0.0000 C   0  0  0  0  0  0  0  0  0  0  0  0
   -0.0060    2.5731    0.0000 C   0  0  0  0  0  0  0  0  0  0  0  0
   -2.6041    2.5731    0.0000 C   0  0  0  0  0  0  0  0  0  0  0  0
   -2.6036    1.0759    0.0000 C   0  0  0  0  0  0  0  0  0  0  0  0
   -1.3051    3.3231    0.0000 C   0  0  0  0  0  0  0  0  0  0  0  0
   -1.3011    0.3320    0.0000 Cl  0  0  0  0  0  0  0  0  0  0  0  0
   -1.3051    4.8231    0.0000 O   0  0  0  0  0  0  0  0  0  0  0  0
  2  1  2  0
  3  1  1  0
  5  4  2  0
  6  2  1  0
  7  3  2  0
  8  4  1  0
  9  5  1  0
 10  6  2  0
 10  7  1  0
 11  8  2  0
 12  9  2  0
 12 11  1  0
 13 10  1  0
 13 11  1  0
 14 12  1  0
 15 13  2  0
M  END
>  <NAME>  (614) 
2-CHLOROBENZOPHENONE

>  <SYNONYMS>  (614) 


>  <SPECTRUM TYPE>  (614) 
MS1

>  <INSTRUMENT TYPE>  (614) 
EI-B

>  <INSTRUMENT>  (614) 
JEOL JMS-DX-300

>  <ION MODE>  (614) 
P

>  <INCHIKEY>  (614) 
VMHYWKBKHMYRNF-UHFFFAOYSA-N

>  <FORMULA>  (614) 
C13H9ClO

>  <EXACT MASS>  (614) 
216.034192588

>  <MW>  (614) 
216

>  <ID>  (614) 
JP011182

>  <CONTRIBUTOR>  (614) 
University of Tokyo Team, {Faculty of Engineering, University of Tokyo

>  <COMMENT>  (614) 
SMILES=c(c2)ccc(c2)C(=O)c(c1)c(Cl)ccc1
InChI=InChI=1S/C13H9ClO/c14-12-9-5-4-8-11(12)13(15)10-6-2-1-3-7-10/h1-9H
computed SMILES=O=C(C=1C=CC=CC1)C=2C=CC=CC2Cl
ionization energy=70 eV
accession=JP011182
date=2016.01.19 (Created 2008.10.21, modified 2011.05.06)
author=SAWADA M, THE INST. OF SCIENTIFIC AND INDUSTRIALRESEARCH OSAKA UNIV.
license=CC BY-NC-SA
exact mass=216.03419
ion type=[M]+*
computed spectral entropy=2.8633163092238725
computed normalized entropy=0.7762021895376999
SPLASH=splash10-0699-4940000000-a66bbaef7592513cc5c3
submitter=submitter = University of Tokyo Team (Faculty of Engineering, University of Tokyo)
MoNA Rating=3.75

>  <NUM PEAKS>  (614) 
40

>  <MASS SPECTRAL PEAKS>  (614) 
38 1
39 2.2
50 13.3
51 24.9
52 1.5
62 1
63 2
74 7.1
75 24
76 10.9
77 53.4
78 4.1
85 2.6
86 1.2
87 1.8
94 1.1
105 99.99
106 11
110 1.1
111 27.1
112 2.6
113 9.2
126 1.8
139 65
140 5.8
141 21.4
142 1.8
150 2.2
151 4.7
152 11
153 3.7
180 2
181 10
182 1.7
188 2.2
215 1.3
216 80.5
217 14.9
218 28.1
219 5

>  <PREDICTED SPECTRUM>  (614) 
26 11
33 2
35 20
36 51
37 53
38 108
39 176
40 82
49 87
50 357
51 561
52 124
53 62
57 44
61 78
62 101
63 125
69 51
70 78
71 11
73 38
74 195
75 377
76 290
77 932
78 223
79 75
81 2
82 56
83 113
84 131
85 149
86 121
87 160
88 106
89 23
97 31
98 34
99 13
104 85
105 935
106 256
109 9
110 28
111 538
112 166
113 335
114 72
115 65
126 10
139 542
140 111
141 311
142 19
151 214
152 217
153 232
154 10
181 999
182 399
183 254
184 1
190 1
215 58
216 366
217 138
218 235
219 32

$$$$

     RDKit          2D

 16 17  0  0  0  0  0  0  0  0999 V2000
    3.8969    4.8754    0.0000 C   0  0  0  0  0  0  0  0  0  0  0  0
   -3.8975    0.3748    0.0000 C   0  0  0  0  0  0  0  0  0  0  0  0
   -2.5978   -0.3758    0.0000 C   0  0  0  0  0  0  0  0  0  0  0  0
   -3.8982    1.8756    0.0000 C   0  0  0  0  0  0  0  0  0  0  0  0
    2.5984   -0.3760    0.0000 C   0  0  0  0  0  0  0  0  0  0  0  0
    3.8975    0.3740    0.0000 C   0  0  0  0  0  0  0  0  0  0  0  0
   -1.2989    0.3744    0.0000 C   0  0  0  0  0  0  0  0  0  0  0  0
   -2.5993    2.6258    0.0000 C   0  0  0  0  0  0  0  0  0  0  0  0
    1.2989    0.3748    0.0000 C   0  0  0  0  0  0  0  0  0  0  0  0
    3.8970    1.8748    0.0000 C   0  0  0  0  0  0  0  0  0  0  0  0
   -1.2996    1.8752    0.0000 C   0  0  0  0  0  0  0  0  0  0  0  0
    1.2984    1.8756    0.0000 C   0  0  0  0  0  0  0  0  0  0  0  0
    2.5975    2.6256    0.0000 C   0  0  0  0  0  0  0  0  0  0  0  0
   -0.0007    2.6254    0.0000 C   0  0  0  0  0  0  0  0  0  0  0  0
   -0.0010    4.1254    0.0000 O   0  0  0  0  0  0  0  0  0  0  0  0
    2.5977    4.1256    0.0000 O   0  0  0  0  0  0  0  0  0  0  0  0
  3  2  2  0
  4  2  1  0
  6  5  2  0
  7  3  1  0
  8  4  2  0
  9  5  1  0
 10  6  1  0
 11  7  2  0
 11  8  1  0
 12  9  2  0
 13 10  2  0
 13 12  1  0
 14 11  1  0
 14 12  1  0
 15 14  2  0
 16  1  1  0
 16 13  1  0
M  END
>  <NAME>  (615) 
2-METHOXYBENZOPHENONE

>  <SYNONYMS>  (615) 


>  <SPECTRUM TYPE>  (615) 
MS1

>  <INSTRUMENT TYPE>  (615) 
EI-B

>  <INSTRUMENT>  (615) 
JEOL JMS-DX-300

>  <ION MODE>  (615) 
P

>  <INCHIKEY>  (615) 
CSUUDNFYSFENAE-UHFFFAOYSA-N

>  <FORMULA>  (615) 
C14H12O2

>  <EXACT MASS>  (615) 
212.083729624

>  <MW>  (615) 
212

>  <ID>  (615) 
JP011181

>  <CONTRIBUTOR>  (615) 
University of Tokyo Team, {Faculty of Engineering, University of Tokyo

>  <COMMENT>  (615) 
SMILES=COc(c2)c(ccc2)C(=O)c(c1)cccc1
InChI=InChI=1S/C14H12O2/c1-16-13-10-6-5-9-12(13)14(15)11-7-3-2-4-8-11/h2-10H,1H3
computed SMILES=O=C(C=1C=CC=CC1)C=2C=CC=CC2OC
accession=JP011181
date=2016.01.19 (Created 2008.10.21, modified 2011.05.06)
author=SAWADA M, THE INST. OF SCIENTIFIC AND INDUSTRIALRESEARCH OSAKA UNIV.
license=CC BY-NC-SA
exact mass=212.08373
ionization energy=70 eV
ion type=[M]+*
computed spectral entropy=3.1221148517664856
computed normalized entropy=0.78268421616165
SPLASH=splash10-03g0-6940000000-b4443bb784cbccf5a7ae
submitter=submitter = University of Tokyo Team (Faculty of Engineering, University of Tokyo)
MoNA Rating=3.75

>  <NUM PEAKS>  (615) 
54

>  <MASS SPECTRAL PEAKS>  (615) 
38 1.8
39 4
40 1.4
50 8.3
51 25.7
52 1.9
53 1.7
62 1.9
63 8.7
64 8.5
65 2.2
74 2.7
75 2.8
76 6.8
77 67.3
78 8.7
79 3.8
89 1.1
91 4.5
92 21
93 1.7
105 35.3
106 3.6
107 1.8
115 3.7
120 3.2
121 24.3
122 2
134 4.2
135 86.2
136 9.8
139 2.8
141 2
151 1.7
152 4.7
153 2
165 3.7
166 1.2
167 6.7
168 2.8
169 3.8
181 5.5
182 1.2
183 2
193 1
194 13.7
195 31
196 7.9
197 9.7
198 1.4
211 11.2
212 99.99
213 20.3
214 2.3

>  <PREDICTED SPECTRUM>  (615) 
27 33
38 1
39 84
50 231
51 490
52 86
53 74
55 43
62 89
63 236
64 164
65 165
66 13
69 34
74 117
75 135
76 222
77 989
78 225
79 100
82 12
89 21
91 197
92 286
93 79
95 30
105 982
106 259
107 249
115 199
134 110
135 698
136 124
141 54
151 114
152 220
153 153
154 55
168 109
169 226
181 687
182 372
183 242
184 99
195 155
196 133
197 220
198 38
210 45
211 842
212 999
213 374
214 34

$$$$

     RDKit          2D

 17 18  0  0  0  0  0  0  0  0999 V2000
    1.9462    2.1934    0.0000 C   0  0  0  0  0  0  0  0  0  0  0  0
    1.9467    3.6942    0.0000 C   0  0  0  0  0  0  0  0  0  0  0  0
    0.6467    1.4425    0.0000 C   0  0  0  0  0  0  0  0  0  0  0  0
   -5.8435    3.6899    0.0000 C   0  0  0  0  0  0  0  0  0  0  0  0
    0.6477    4.4442    0.0000 C   0  0  0  0  0  0  0  0  0  0  0  0
   -0.6523    2.1925    0.0000 C   0  0  0  0  0  0  0  0  0  0  0  0
   -4.5432    4.4377    0.0000 C   0  0  0  0  0  0  0  0  0  0  0  0
   -5.8505    2.1977    0.0000 C   0  0  0  0  0  0  0  0  0  0  0  0
   -3.2520    2.1925    0.0000 C   0  0  0  0  0  0  0  0  0  0  0  0
   -0.6518    3.6934    0.0000 C   0  0  0  0  0  0  0  0  0  0  0  0
   -3.2499    3.6934    0.0000 C   0  0  0  0  0  0  0  0  0  0  0  0
   -4.5522    1.4447    0.0000 C   0  0  0  0  0  0  0  0  0  0  0  0
   -1.9509    4.4434    0.0000 C   0  0  0  0  0  0  0  0  0  0  0  0
   -4.5550   -0.0553    0.0000 N   0  0  0  0  0  0  0  0  0  0  0  0
   -1.9509    5.9434    0.0000 O   0  0  0  0  0  0  0  0  0  0  0  0
   -5.8554   -0.8029    0.0000 O   0  0  0  0  0  0  0  0  0  0  0  0
   -3.2573   -0.8077    0.0000 O   0  0  0  0  0  0  0  0  0  0  0  0
  2  1  2  0
  3  1  1  0
  5  2  1  0
  6  3  2  0
  7  4  2  0
  8  4  1  0
 10  5  2  0
 10  6  1  0
 11  7  1  0
 11  9  2  0
 12  8  2  0
 12  9  1  0
 13 10  1  0
 13 11  1  0
 14 12  1  0
 15 13  2  0
 16 14  1  0
 17 14  2  0
M  CHG  2  14   1  16  -1
M  END
>  <NAME>  (616) 
3-NITROBENZOPHENONE

>  <SYNONYMS>  (616) 


>  <SPECTRUM TYPE>  (616) 
MS1

>  <INSTRUMENT TYPE>  (616) 
EI-B

>  <INSTRUMENT>  (616) 
JEOL JMS-DX-300

>  <ION MODE>  (616) 
P

>  <INCHIKEY>  (616) 
MFYLRNKOXORIPK-UHFFFAOYSA-N

>  <FORMULA>  (616) 
C13H9NO3

>  <EXACT MASS>  (616) 
227.05824314799997

>  <MW>  (616) 
227

>  <ID>  (616) 
JP011180

>  <CONTRIBUTOR>  (616) 
University of Tokyo Team, {Faculty of Engineering, University of Tokyo

>  <COMMENT>  (616) 
SMILES=[O-1][N+1](=O)c(c2)cc(cc2)C(=O)c(c1)cccc1
InChI=InChI=1S/C13H9NO3/c15-13(10-5-2-1-3-6-10)11-7-4-8-12(9-11)14(16)17/h1-9H
computed SMILES=O=C(C=1C=CC=CC1)C2=CC=CC(=C2)N(=O)=O
accession=JP011180
date=2016.01.19 (Created 2008.10.21, modified 2011.05.06)
author=SAWADA M, THE INST. OF SCIENTIFIC AND INDUSTRIALRESEARCH OSAKA UNIV.
license=CC BY-NC-SA
exact mass=227.05824
ionization energy=70 eV
ion type=[M]+*
computed spectral entropy=3.2678384596150765
computed normalized entropy=0.7545693079775306
SPLASH=splash10-0kdi-9630000000-3ca6be8c3cf21338b407
submitter=submitter = University of Tokyo Team (Faculty of Engineering, University of Tokyo)
MoNA Rating=3.75

>  <NUM PEAKS>  (616) 
76

>  <MASS SPECTRAL PEAKS>  (616) 
38 1.7
39 5.1
40 2.2
41 4.3
43 4.7
44 12.7
45 1
46 1
50 29.2
51 44.6
52 2.9
53 1.8
55 3.9
56 1.5
57 3.8
60 1.3
62 2.2
63 6.2
64 2.7
65 2.3
67 1
69 2.6
71 1.8
73 1.9
74 10.4
75 15.6
76 41.8
77 81.6
78 10.6
81 1.3
83 1.7
85 1.5
86 1.2
87 1.9
91 2.4
92 4.8
95 1.4
97 1.6
98 1.7
99 1.4
101 1.2
102 1.2
104 19.4
105 99.99
106 21.4
107 1.6
111 1.6
113 1.2
115 2
119 4.4
120 1.9
122 1.8
123 1.2
125 1.2
126 3.4
127 1.7
135 1.2
139 2
141 2.1
145 1.1
149 2
150 29.6
151 9.7
152 13.4
153 5.2
180 5.6
181 7.1
182 1.8
196 1.4
197 2.7
210 4.9
211 1.6
216 1
227 97.7
228 20.9
229 2.6

>  <PREDICTED SPECTRUM>  (616) 
30 50
37 24
38 67
39 117
40 26
41 18
44 18
46 32
49 46
50 310
51 448
52 90
53 67
57 28
62 102
63 176
64 91
65 52
66 6
69 5
74 208
75 242
76 321
77 767
78 188
84 36
85 44
86 29
87 11
89 39
92 73
97 0
98 37
104 67
105 999
106 309
123 4
126 48
141 4
150 313
151 236
152 310
153 81
180 20
181 156
182 7
197 187
227 443
228 170
229 23

$$$$

     RDKit          2D

 18 19  0  0  0  0  0  0  0  0999 V2000
    0.0000   -1.9300    0.0000 C   0  0  0  0  0  0  0  0  0  0  0  0
    1.3000   -1.1800    0.0000 C   0  0  0  0  0  0  0  0  0  0  0  0
   -1.3000   -1.1800    0.0000 C   0  0  0  0  0  0  0  0  0  0  0  0
   -2.5988    5.5644    0.0000 C   0  0  0  0  0  0  0  0  0  0  0  0
    1.3000    0.3200    0.0000 C   0  0  0  0  0  0  0  0  0  0  0  0
   -1.3000    0.3200    0.0000 C   0  0  0  0  0  0  0  0  0  0  0  0
   -1.3011    4.8122    0.0000 C   0  0  0  0  0  0  0  0  0  0  0  0
   -3.8946    4.8243    0.0000 C   0  0  0  0  0  0  0  0  0  0  0  0
   -2.5998    2.5713    0.0000 C   0  0  0  0  0  0  0  0  0  0  0  0
    0.0000    1.0700    0.0000 C   0  0  0  0  0  0  0  0  0  0  0  0
   -1.2990    3.3200    0.0000 C   0  0  0  0  0  0  0  0  0  0  0  0
   -3.8976    3.3235    0.0000 C   0  0  0  0  0  0  0  0  0  0  0  0
    0.0000    2.5700    0.0000 C   0  0  0  0  0  0  0  0  0  0  0  0
   -5.1980    2.5759    0.0000 C   0  0  0  0  0  0  0  0  0  0  0  0
   -5.9456    3.8763    0.0000 F   0  0  0  0  0  0  0  0  0  0  0  0
   -6.4984    1.8283    0.0000 F   0  0  0  0  0  0  0  0  0  0  0  0
   -4.4504    1.2755    0.0000 F   0  0  0  0  0  0  0  0  0  0  0  0
    1.2990    3.3200    0.0000 O   0  0  0  0  0  0  0  0  0  0  0  0
  2  1  2  0
  3  1  1  0
  5  2  1  0
  6  3  2  0
  7  4  2  0
  8  4  1  0
 10  5  2  0
 10  6  1  0
 11  7  1  0
 11  9  2  0
 12  8  2  0
 12  9  1  0
 13 10  1  0
 13 11  1  0
 14 12  1  0
 15 14  1  0
 16 14  1  0
 17 14  1  0
 18 13  2  0
M  END
>  <NAME>  (617) 
3-TRIFLUOROMETHYLBENZOPHENONE

>  <SYNONYMS>  (617) 


>  <SPECTRUM TYPE>  (617) 
MS1

>  <INSTRUMENT TYPE>  (617) 
EI-B

>  <INSTRUMENT>  (617) 
JEOL JMS-DX-300

>  <ION MODE>  (617) 
P

>  <INCHIKEY>  (617) 
IOXDAYKKVHAKSX-UHFFFAOYSA-N

>  <FORMULA>  (617) 
C14H9F3O

>  <EXACT MASS>  (617) 
250.060549568

>  <MW>  (617) 
250

>  <ID>  (617) 
JP011179

>  <CONTRIBUTOR>  (617) 
University of Tokyo Team, {Faculty of Engineering, University of Tokyo

>  <COMMENT>  (617) 
SMILES=c(c2)ccc(c2)C(=O)c(c1)cc(cc1)C(F)(F)F
InChI=InChI=1S/C14H9F3O/c15-14(16,17)12-8-4-7-11(9-12)13(18)10-5-2-1-3-6-10/h1-9H
computed SMILES=O=C(C=1C=CC=CC1)C2=CC=CC(=C2)C(F)(F)F
accession=JP011179
date=2016.01.19 (Created 2008.10.21, modified 2011.05.06)
author=SAWADA M, THE INST. OF SCIENTIFIC AND INDUSTRIALRESEARCH OSAKA UNIV.
license=CC BY-NC-SA
exact mass=250.06055
ionization energy=70 eV
ion type=[M]+*
computed spectral entropy=2.947129864104976
computed normalized entropy=0.7612960049867836
SPLASH=splash10-0zi1-7930000000-96d4de0d5e96cef8c563
submitter=submitter = University of Tokyo Team (Faculty of Engineering, University of Tokyo)
MoNA Rating=3.75

>  <NUM PEAKS>  (617) 
48

>  <MASS SPECTRAL PEAKS>  (617) 
38 1.2
39 3.2
50 18.9
51 43.7
52 2.6
57 2.4
62 1.7
63 2.4
69 3.8
74 7.2
75 16.5
76 10.4
77 76.7
78 7
81 1
87 1
94 1.2
95 13.9
96 1
99 2.6
100 1.4
101 1
105 99.99
106 15.4
107 1.9
110 1.7
111 1.2
125 9.3
126 5.4
144 1.6
145 51.5
146 4.7
150 1
151 2.2
152 5.1
153 2
173 37.7
174 4
181 8.7
182 1.6
183 1.8
201 4.6
222 1.6
231 11.6
232 2.3
249 1.2
250 58
251 11.9

>  <PREDICTED SPECTRUM>  (617) 
25 6
26 21
27 1
36 1
37 46
38 82
39 102
40 23
44 3
47 49
49 78
50 326
51 439
52 120
53 116
55 31
57 85
61 27
62 94
63 149
64 31
65 25
68 16
69 192
71 13
74 208
75 271
76 227
77 647
78 166
79 19
81 53
84 1
85 63
86 73
87 55
93 46
94 58
95 160
96 62
97 42
98 85
99 101
101 8
102 54
104 11
105 999
106 335
107 31
112 28
113 28
114 4
115 16
119 21
123 6
124 46
125 138
126 131
127 45
137 25
143 71
144 44
145 370
146 68
150 62
151 122
152 123
154 12
173 603
174 180
175 38
181 140
182 11
183 217
202 18
231 212
250 492
251 199
252 69

$$$$

     RDKit          2D

 15 16  0  0  0  0  0  0  0  0999 V2000
   -5.8542    3.6957    0.0000 C   0  0  0  0  0  0  0  0  0  0  0  0
   -5.8547    2.1948    0.0000 C   0  0  0  0  0  0  0  0  0  0  0  0
   -4.5547    4.4465    0.0000 C   0  0  0  0  0  0  0  0  0  0  0  0
    0.6488    4.4517    0.0000 C   0  0  0  0  0  0  0  0  0  0  0  0
   -4.5557    1.4448    0.0000 C   0  0  0  0  0  0  0  0  0  0  0  0
   -3.2557    3.6965    0.0000 C   0  0  0  0  0  0  0  0  0  0  0  0
   -0.6535    3.6957    0.0000 C   0  0  0  0  0  0  0  0  0  0  0  0
    1.9465    3.6877    0.0000 C   0  0  0  0  0  0  0  0  0  0  0  0
    0.6397    1.4517    0.0000 C   0  0  0  0  0  0  0  0  0  0  0  0
   -3.2562    2.1957    0.0000 C   0  0  0  0  0  0  0  0  0  0  0  0
   -0.6581    2.1957    0.0000 C   0  0  0  0  0  0  0  0  0  0  0  0
    1.9419    2.1877    0.0000 C   0  0  0  0  0  0  0  0  0  0  0  0
   -1.9571    1.4457    0.0000 C   0  0  0  0  0  0  0  0  0  0  0  0
    3.2363    1.4298    0.0000 Cl  0  0  0  0  0  0  0  0  0  0  0  0
   -1.9571   -0.0543    0.0000 O   0  0  0  0  0  0  0  0  0  0  0  0
  2  1  2  0
  3  1  1  0
  5  2  1  0
  6  3  2  0
  7  4  2  0
  8  4  1  0
 10  5  2  0
 10  6  1  0
 11  7  1  0
 11  9  2  0
 12  8  2  0
 12  9  1  0
 13 10  1  0
 13 11  1  0
 14 12  1  0
 15 13  2  0
M  END
>  <NAME>  (618) 
3-CHLOROBENZOPHENONE

>  <SYNONYMS>  (618) 


>  <SPECTRUM TYPE>  (618) 
MS1

>  <INSTRUMENT TYPE>  (618) 
EI-B

>  <INSTRUMENT>  (618) 
JEOL JMS-DX-300

>  <ION MODE>  (618) 
P

>  <INCHIKEY>  (618) 
CPLWKNRPZVNELG-UHFFFAOYSA-N

>  <FORMULA>  (618) 
C13H9ClO

>  <EXACT MASS>  (618) 
216.034192588

>  <MW>  (618) 
216

>  <ID>  (618) 
JP011178

>  <CONTRIBUTOR>  (618) 
University of Tokyo Team, {Faculty of Engineering, University of Tokyo

>  <COMMENT>  (618) 
SMILES=Clc(c2)cc(cc2)C(=O)c(c1)cccc1
InChI=InChI=1S/C13H9ClO/c14-12-8-4-7-11(9-12)13(15)10-5-2-1-3-6-10/h1-9H
computed SMILES=O=C(C=1C=CC=CC1)C=2C=CC=C(Cl)C2
accession=JP011178
date=2016.01.19 (Created 2008.10.21, modified 2011.05.06)
author=SAWADA M, THE INST. OF SCIENTIFIC AND INDUSTRIALRESEARCH OSAKA UNIV.
license=CC BY-NC-SA
exact mass=216.03419
ionization energy=70 eV
ion type=[M]+*
computed spectral entropy=3.1756982674558105
computed normalized entropy=0.7821063512546265
SPLASH=splash10-0kxr-9820000000-9e9106b4c81e03e7393b
submitter=submitter = University of Tokyo Team (Faculty of Engineering, University of Tokyo)
MoNA Rating=3.75

>  <NUM PEAKS>  (618) 
58

>  <MASS SPECTRAL PEAKS>  (618) 
38 1.8
39 4.6
40 2.5
43 1
44 8.2
49 1
50 27.8
51 50.3
52 3.2
53 1.6
61 1.9
62 2.4
63 4.6
65 1.7
73 2
74 13.8
75 41.3
76 21.5
77 77.1
78 6.9
84 1.3
85 4.6
86 1.9
87 3
90 1.3
91 2.6
94 1.8
95 1.3
98 1.5
99 1.5
104 1.8
105 99.99
106 14.1
110 1.6
111 36.2
112 3.3
113 12.2
114 1.2
119 4.7
123 1.3
125 1
126 2.1
139 36.1
140 3.3
141 11.6
142 1.2
150 3
151 4.8
152 10
153 3.4
181 13.1
182 2.7
188 2.1
196 2.5
216 59.7
217 11
218 20.7
219 3.5

>  <PREDICTED SPECTRUM>  (618) 
33 4
36 17
38 18
39 39
49 76
50 259
51 432
52 65
53 1
61 27
62 30
63 124
64 11
72 1
73 10
74 132
75 270
76 223
77 773
78 153
79 4
84 28
85 74
86 63
87 55
98 2
104 12
105 999
106 326
111 440
112 139
113 313
139 631
140 255
141 365
142 23
151 132
152 135
153 53
181 247
182 52
216 612
217 245
218 381
219 107

$$$$

     RDKit          2D

 15 16  0  0  0  0  0  0  0  0999 V2000
    2.2743    1.6329    0.0000 C   0  0  0  0  0  0  0  0  0  0  0  0
    2.2748    3.1337    0.0000 C   0  0  0  0  0  0  0  0  0  0  0  0
    0.9748    0.8821    0.0000 C   0  0  0  0  0  0  0  0  0  0  0  0
    0.9757    3.8837    0.0000 C   0  0  0  0  0  0  0  0  0  0  0  0
   -0.3243    1.6321    0.0000 C   0  0  0  0  0  0  0  0  0  0  0  0
   -2.9221    1.6329    0.0000 C   0  0  0  0  0  0  0  0  0  0  0  0
   -4.2218    3.8831    0.0000 C   0  0  0  0  0  0  0  0  0  0  0  0
   -4.2222    0.8831    0.0000 C   0  0  0  0  0  0  0  0  0  0  0  0
   -5.5219    3.1333    0.0000 C   0  0  0  0  0  0  0  0  0  0  0  0
   -0.3238    3.1329    0.0000 C   0  0  0  0  0  0  0  0  0  0  0  0
   -2.9219    3.1329    0.0000 C   0  0  0  0  0  0  0  0  0  0  0  0
   -5.5221    1.6333    0.0000 C   0  0  0  0  0  0  0  0  0  0  0  0
   -1.6228    3.8829    0.0000 C   0  0  0  0  0  0  0  0  0  0  0  0
   -6.8212    0.8833    0.0000 F   0  0  0  0  0  0  0  0  0  0  0  0
   -1.6228    5.3829    0.0000 O   0  0  0  0  0  0  0  0  0  0  0  0
  2  1  2  0
  3  1  1  0
  4  2  1  0
  5  3  2  0
  8  6  2  0
  9  7  1  0
 10  4  2  0
 10  5  1  0
 11  6  1  0
 11  7  2  0
 12  8  1  0
 12  9  2  0
 13 10  1  0
 13 11  1  0
 14 12  1  0
 15 13  2  0
M  END
>  <NAME>  (619) 
4-FLUOROBENZOPHENONE

>  <SYNONYMS>  (619) 


>  <SPECTRUM TYPE>  (619) 
MS1

>  <INSTRUMENT TYPE>  (619) 
EI-B

>  <INSTRUMENT>  (619) 
JEOL JMS-DX-300

>  <ION MODE>  (619) 
P

>  <INCHIKEY>  (619) 
OGTSHGYHILFRHD-UHFFFAOYSA-N

>  <FORMULA>  (619) 
C13H9FO

>  <EXACT MASS>  (619) 
200.063743128

>  <MW>  (619) 
200

>  <ID>  (619) 
JP011176

>  <CONTRIBUTOR>  (619) 
University of Tokyo Team, {Faculty of Engineering, University of Tokyo

>  <COMMENT>  (619) 
SMILES=Fc(c2)ccc(c2)C(=O)c(c1)cccc1
InChI=InChI=1S/C13H9FO/c14-12-8-6-11(7-9-12)13(15)10-4-2-1-3-5-10/h1-9H
computed SMILES=O=C(C=1C=CC=CC1)C2=CC=C(F)C=C2
accession=JP011176
date=2016.01.19 (Created 2008.10.21, modified 2011.05.06)
author=SAWADA M, THE INST. OF SCIENTIFIC AND INDUSTRIALRESEARCH OSAKA UNIV.
license=CC BY-NC-SA
exact mass=200.06374
ionization energy=70 eV
ion type=[M]+*
computed spectral entropy=2.9645873536960115
computed normalized entropy=0.7539976668909084
SPLASH=splash10-0ufr-9630000000-7e761e728c37cae11d58
submitter=submitter = University of Tokyo Team (Faculty of Engineering, University of Tokyo)
MoNA Rating=3.75

>  <NUM PEAKS>  (619) 
51

>  <MASS SPECTRAL PEAKS>  (619) 
38 1.7
39 4.8
50 22.4
51 50.5
52 3
53 1.2
57 2.6
61 1
62 2.5
63 3.4
68 3.2
69 6.8
70 1.3
73 2.3
74 11.3
75 42.9
76 11
77 72.7
78 7.5
81 1.1
85 3.8
86 9.5
87 1.4
93 1.8
94 7.7
95 76.8
96 7.8
98 1.2
99 1.3
105 85.7
106 12.8
107 1.6
120 1.2
122 1.1
123 94.3
124 15.3
125 2.1
144 1.8
150 1.5
151 2
152 1.3
168 1.2
169 3
170 11.3
171 5.2
172 4.8
183 1.7
199 19.1
200 99.99
201 22.1
202 2.2

>  <PREDICTED SPECTRUM>  (619) 
25 17
26 28
27 5
28 36
29 37
36 40
37 115
38 204
39 257
40 112
41 48
43 20
44 28
47 34
49 108
50 521
51 680
52 210
53 72
55 15
57 158
61 56
62 212
63 277
64 138
65 111
66 6
68 128
69 266
73 32
74 355
75 622
76 317
77 963
78 236
83 32
85 89
86 88
87 89
92 161
94 109
95 760
96 219
97 36
98 85
99 39
104 31
105 999
106 247
120 11
123 972
124 257
125 142
170 42
171 159
172 76
200 826
201 329
202 46

$$$$

     RDKit          2D

 16 17  0  0  0  0  0  0  0  0999 V2000
    6.1804    0.9239    0.0000 C   0  0  0  0  0  0  0  0  0  0  0  0
   -4.2301    0.9471    0.0000 C   0  0  0  0  0  0  0  0  0  0  0  0
   -2.9343    0.1899    0.0000 C   0  0  0  0  0  0  0  0  0  0  0  0
   -4.2232    2.4479    0.0000 C   0  0  0  0  0  0  0  0  0  0  0  0
   -1.6316    0.9334    0.0000 C   0  0  0  0  0  0  0  0  0  0  0  0
   -2.9205    3.1915    0.0000 C   0  0  0  0  0  0  0  0  0  0  0  0
    2.2724    3.1715    0.0000 C   0  0  0  0  0  0  0  0  0  0  0  0
    0.9589    0.9466    0.0000 C   0  0  0  0  0  0  0  0  0  0  0  0
    3.5569    2.4466    0.0000 C   0  0  0  0  0  0  0  0  0  0  0  0
    2.2834    0.1525    0.0000 C   0  0  0  0  0  0  0  0  0  0  0  0
   -1.6247    2.4343    0.0000 C   0  0  0  0  0  0  0  0  0  0  0  0
    0.9734    2.4215    0.0000 C   0  0  0  0  0  0  0  0  0  0  0  0
    3.5824    0.9025    0.0000 C   0  0  0  0  0  0  0  0  0  0  0  0
   -0.3220    3.1779    0.0000 C   0  0  0  0  0  0  0  0  0  0  0  0
   -0.3146    4.6778    0.0000 O   0  0  0  0  0  0  0  0  0  0  0  0
    4.8876    0.1632    0.0000 O   0  0  0  0  0  0  0  0  0  0  0  0
  3  2  2  0
  4  2  1  0
  5  3  1  0
  6  4  2  0
  9  7  2  0
 10  8  1  0
 11  5  2  0
 11  6  1  0
 12  7  1  0
 12  8  2  0
 13  9  1  0
 13 10  2  0
 14 11  1  0
 14 12  1  0
 15 14  2  0
 16  1  1  0
 16 13  1  0
M  END
>  <NAME>  (620) 
4-METHOXYBENZOPHENONE

>  <SYNONYMS>  (620) 


>  <SPECTRUM TYPE>  (620) 
MS1

>  <INSTRUMENT TYPE>  (620) 
EI-B

>  <INSTRUMENT>  (620) 
JEOL JMS-DX-300

>  <ION MODE>  (620) 
P

>  <INCHIKEY>  (620) 
SWFHGTMLYIBPPA-UHFFFAOYSA-N

>  <FORMULA>  (620) 
C14H12O2

>  <EXACT MASS>  (620) 
212.083729624

>  <MW>  (620) 
212

>  <ID>  (620) 
JP011175

>  <CONTRIBUTOR>  (620) 
University of Tokyo Team, {Faculty of Engineering, University of Tokyo

>  <COMMENT>  (620) 
SMILES=COc(c2)ccc(c2)C(=O)c(c1)cccc1
InChI=InChI=1S/C14H12O2/c1-16-13-9-7-12(8-10-13)14(15)11-5-3-2-4-6-11/h2-10H,1H3
computed SMILES=O=C(C=1C=CC=CC1)C2=CC=C(OC)C=C2
accession=JP011175
license=CC BY-NC-SA
date=2016.01.19 (Created 2008.10.21, modified 2011.05.06)
author=SAWADA M, THE INST. OF SCIENTIFIC AND INDUSTRIALRESEARCH OSAKA UNIV.
exact mass=212.08373
ionization energy=70 eV
ion type=[M]+*
computed spectral entropy=2.8146824751396005
computed normalized entropy=0.7394095175770176
SPLASH=splash10-01p9-7940000000-5c3f9fed027b23e839c5
submitter=submitter = University of Tokyo Team (Faculty of Engineering, University of Tokyo)
MoNA Rating=3.75

>  <NUM PEAKS>  (620) 
45

>  <MASS SPECTRAL PEAKS>  (620) 
38 1.9
39 2.8
40 1.9
44 1.2
50 6.5
51 15.7
52 1
53 1.4
62 1.8
63 8.9
64 11.9
65 2.2
74 2.5
75 2.5
76 5.4
77 55.7
78 4.5
79 1.8
89 1.3
91 1.5
92 23.5
93 1.7
104 1.1
105 18.7
106 1.8
107 11.3
115 4.3
119 2.6
135 99.99
136 14.7
137 1.4
139 3.7
140 1.3
141 3.8
152 2
153 1.1
168 1.3
169 4.6
181 5.7
182 1
196 1.6
211 4.1
212 63.9
213 12
214 1.3

>  <PREDICTED SPECTRUM>  (620) 
15 41
26 32
27 101
28 27
29 42
37 41
38 135
39 165
40 9
41 45
43 8
44 17
49 31
50 320
51 506
52 123
53 112
55 47
61 5
62 140
63 329
64 331
65 183
66 86
69 33
74 159
75 154
76 251
77 999
78 246
79 112
83 12
86 22
87 63
89 26
91 64
92 468
93 111
94 7
95 46
104 41
105 702
106 183
107 308
108 13
113 26
115 248
120 1
135 933
136 311
137 79
140 3
141 118
152 246
153 81
168 61
169 129
181 200
182 63
183 55
184 101
197 30
210 23
211 215
212 656
213 248
214 12

$$$$

     RDKit          2D

 15 16  0  0  0  0  0  0  0  0999 V2000
   -2.5989   -1.5002    0.0000 C   0  0  0  0  0  0  0  0  0  0  0  0
    6.4964   -0.7492    0.0000 C   0  0  0  0  0  0  0  0  0  0  0  0
    6.4966    0.7517    0.0000 C   0  0  0  0  0  0  0  0  0  0  0  0
    5.1970   -1.5002    0.0000 C   0  0  0  0  0  0  0  0  0  0  0  0
    5.1975    1.5015    0.0000 C   0  0  0  0  0  0  0  0  0  0  0  0
    3.8978   -0.7504    0.0000 C   0  0  0  0  0  0  0  0  0  0  0  0
   -1.3000    0.7500    0.0000 C   0  0  0  0  0  0  0  0  0  0  0  0
    0.0000   -1.5000    0.0000 C   0  0  0  0  0  0  0  0  0  0  0  0
    0.0000    1.5000    0.0000 C   0  0  0  0  0  0  0  0  0  0  0  0
    1.3000   -0.7500    0.0000 C   0  0  0  0  0  0  0  0  0  0  0  0
   -1.3000   -0.7500    0.0000 C   0  0  0  0  0  0  0  0  0  0  0  0
    3.8981    0.7504    0.0000 C   0  0  0  0  0  0  0  0  0  0  0  0
    1.3000    0.7500    0.0000 C   0  0  0  0  0  0  0  0  0  0  0  0
    2.5989    1.5002    0.0000 C   0  0  0  0  0  0  0  0  0  0  0  0
    2.5987    3.0002    0.0000 O   0  0  0  0  0  0  0  0  0  0  0  0
  3  2  2  0
  4  2  1  0
  5  3  1  0
  6  4  2  0
  9  7  2  0
 10  8  1  0
 11  1  1  0
 11  7  1  0
 11  8  2  0
 12  5  2  0
 12  6  1  0
 13  9  1  0
 13 10  2  0
 14 12  1  0
 14 13  1  0
 15 14  2  0
M  END
>  <NAME>  (621) 
4-METHYLBENZOPHENONE

>  <SYNONYMS>  (621) 


>  <SPECTRUM TYPE>  (621) 
MS1

>  <INSTRUMENT TYPE>  (621) 
EI-B

>  <INSTRUMENT>  (621) 
JEOL JMS-DX-300

>  <ION MODE>  (621) 
P

>  <INCHIKEY>  (621) 
WXPWZZHELZEVPO-UHFFFAOYSA-N

>  <FORMULA>  (621) 
C14H12O

>  <EXACT MASS>  (621) 
196.088815004

>  <MW>  (621) 
196

>  <ID>  (621) 
JP011174

>  <CONTRIBUTOR>  (621) 
University of Tokyo Team, {Faculty of Engineering, University of Tokyo

>  <COMMENT>  (621) 
SMILES=Cc(c2)ccc(c2)C(=O)c(c1)cccc1
InChI=InChI=1S/C14H12O/c1-11-7-9-13(10-8-11)14(15)12-5-3-2-4-6-12/h2-10H,1H3
computed SMILES=O=C(C=1C=CC=CC1)C2=CC=C(C=C2)C
accession=JP011174
date=2016.01.19 (Created 2008.10.21, modified 2011.05.06)
author=SAWADA M, THE INST. OF SCIENTIFIC AND INDUSTRIALRESEARCH OSAKA UNIV.
license=CC BY-NC-SA
exact mass=196.08882
ionization energy=70 eV
ion type=[M]+*
computed spectral entropy=3.149459172079183
computed normalized entropy=0.7932563248885748
SPLASH=splash10-014j-7900000000-8e2c0d10d0c7e495a81e
submitter=submitter = University of Tokyo Team (Faculty of Engineering, University of Tokyo)
MoNA Rating=3.75

>  <NUM PEAKS>  (621) 
53

>  <MASS SPECTRAL PEAKS>  (621) 
38 2
39 19
40 2.7
41 5.4
50 10.9
51 36.9
52 3.3
53 1.3
62 4.3
63 14.5
64 4.1
65 48.6
66 2.8
74 3.8
75 4.1
76 6.8
77 65.9
78 6.7
82 2.1
83 4.8
84 9.4
86 1.3
87 1.7
89 14.9
90 9.2
91 71.9
92 7.8
105 70.6
106 6.9
115 3.2
118 1.7
119 98.5
120 28.2
121 1.8
126 1.1
128 1.4
139 2.4
151 2.2
152 9.6
153 3.7
163 1.4
164 1.8
165 12.1
166 3.3
167 7.7
168 4.5
181 35.3
182 6.1
194 1
195 6.2
196 99.99
197 27.3
198 2.8

>  <PREDICTED SPECTRUM>  (621) 
18 5
26 10
27 23
28 18
37 28
38 88
39 283
40 77
41 145
44 17
49 27
50 226
51 502
52 186
53 129
55 48
62 129
63 314
64 189
65 485
66 119
67 14
74 121
75 99
76 145
77 765
78 272
79 117
83 48
86 12
89 213
90 135
91 793
92 297
93 109
105 843
106 171
115 98
118 70
119 999
120 455
121 203
122 69
137 10
151 57
152 270
153 133
165 232
166 128
167 67
168 2
179 3
181 157
195 223
196 803
197 288
198 42

$$$$

     RDKit          2D

 15 16  0  0  0  0  0  0  0  0999 V2000
    1.3000   -3.0000    0.0000 C   0  0  0  0  0  0  0  0  0  0  0  0
    3.8989    1.5002    0.0000 C   0  0  0  0  0  0  0  0  0  0  0  0
   -2.6000    0.7500    0.0000 C   0  0  0  0  0  0  0  0  0  0  0  0
   -1.3000    1.5000    0.0000 C   0  0  0  0  0  0  0  0  0  0  0  0
   -2.6000   -0.7500    0.0000 C   0  0  0  0  0  0  0  0  0  0  0  0
    0.0000   -0.7500    0.0000 C   0  0  0  0  0  0  0  0  0  0  0  0
    2.6000   -0.7500    0.0000 C   0  0  0  0  0  0  0  0  0  0  0  0
    1.3000    1.5000    0.0000 C   0  0  0  0  0  0  0  0  0  0  0  0
   -1.3000   -1.5000    0.0000 N   0  0  0  0  0  0  0  0  0  0  0  0
    1.3000   -1.5000    0.0000 N   0  0  0  0  0  0  0  0  0  0  0  0
    2.6000    0.7500    0.0000 N   0  0  0  0  0  0  0  0  0  0  0  0
    0.0000    0.7500    0.0000 N   0  0  0  0  0  0  0  0  0  0  0  0
   -3.8989   -1.5002    0.0000 O   0  0  0  0  0  0  0  0  0  0  0  0
    3.8989   -1.5002    0.0000 O   0  0  0  0  0  0  0  0  0  0  0  0
    1.3000    3.0000    0.0000 O   0  0  0  0  0  0  0  0  0  0  0  0
  4  3  2  0
  5  3  1  0
  9  5  2  0
  9  6  1  0
 10  1  1  0
 10  6  1  0
 10  7  1  0
 11  2  1  0
 11  7  1  0
 11  8  1  0
 12  4  1  0
 12  6  1  0
 12  8  1  0
 13  5  1  0
 14  7  2  0
 15  8  2  0
M  END
>  <NAME>  (622) 
1,3-DIMETHYL-1,9A-DIHYDRO-2H-PYRIMIDO(1,2-A)(1,3,5)TRIAZINE-2,4,8(3H,9H)-TRIONE

>  <SYNONYMS>  (622) 


>  <SPECTRUM TYPE>  (622) 
MS1

>  <INSTRUMENT TYPE>  (622) 
EI-B

>  <INSTRUMENT>  (622) 
JEOL JMS-DX-300

>  <ION MODE>  (622) 
P

>  <INCHIKEY>  (622) 
DKISKIJEFSNOLW-UHFFFAOYSA-N

>  <FORMULA>  (622) 
C8H10N4O3

>  <EXACT MASS>  (622) 
210.07529017999997

>  <MW>  (622) 
210

>  <ID>  (622) 
JP011173

>  <CONTRIBUTOR>  (622) 
University of Tokyo Team, {Faculty of Engineering, University of Tokyo

>  <COMMENT>  (622) 
SMILES=[H]C(C(=O)2)=C([H])N(C(=O)1)C(N2)N(C)C(=O)N(C)1
InChI=InChI=1S/C8H10N4O3/c1-10-6-9-5(13)3-4-12(6)8(15)11(2)7(10)14/h3-4,6H,1-2H3,(H,9,13)
computed SMILES=O=C1N2C=CC(O)=NC2N(C(=O)N1C)C
accession=JP011173
date=2016.01.19 (Created 2008.10.21, modified 2011.05.06)
author=SAWADA M, THE INST. OF SCIENTIFIC AND INDUSTRIALRESEARCH OSAKA UNIV.
license=CC BY-NC-SA
exact mass=210.07529
ionization energy=70 eV
ion type=[M]+*
computed spectral entropy=3.2387566392700733
computed normalized entropy=0.8157477358818278
SPLASH=splash10-0a4m-9120000000-a8b1ee98b62eee93be1c
submitter=submitter = University of Tokyo Team (Faculty of Engineering, University of Tokyo)
MoNA Rating=3.75

>  <NUM PEAKS>  (622) 
53

>  <MASS SPECTRAL PEAKS>  (622) 
38 1
39 3.7
40 42.7
41 22.1
42 41.3
43 7
44 12.3
51 1.2
52 4.2
53 8.9
54 3.9
55 8.7
56 29.4
57 15.9
58 35.5
59 1.3
67 8.3
68 65.9
69 27
70 10.9
71 2
79 2
81 1.7
82 3.3
83 8.8
84 13.1
85 2
87 1.1
91 1.1
95 16
96 83
97 40.2
98 15
99 1.3
109 7.3
110 4.6
111 2.2
113 1
123 2.2
124 3.1
125 5.4
141 2.4
142 1.7
152 48.5
153 18.2
154 1.8
167 1.7
181 2.2
182 2.2
208 3.4
209 99.99
210 57.4
211 8.1

>  <PREDICTED SPECTRUM>  (622) 
15 6
26 0
27 15
28 84
29 78
30 128
38 41
39 213
40 235
41 382
42 738
43 495
44 335
51 59
52 95
53 222
54 238
55 416
56 725
57 419
58 295
66 72
67 336
68 414
69 514
70 293
71 264
72 107
73 98
74 32
80 69
81 128
82 277
83 479
84 110
85 54
86 58
90 33
92 6
95 185
96 397
97 285
98 224
99 161
109 79
110 4
111 65
112 157
113 0
114 37
123 138
124 186
125 156
126 105
127 125
136 18
138 148
139 67
140 14
151 72
152 81
153 355
154 72
166 58
180 23
181 268
182 185
183 37
193 47
194 58
210 999
211 294
212 63

$$$$

     RDKit          2D

  7  7  0  0  0  0  0  0  0  0999 V2000
    1.3000   -0.7500    0.0000 C   0  0  0  0  0  0  0  0  0  0  0  0
    1.3000   -2.2500    0.0000 C   0  0  0  0  0  0  0  0  0  0  0  0
   -1.3000   -2.2500    0.0000 C   0  0  0  0  0  0  0  0  0  0  0  0
    0.0000    0.0000    0.0000 C   0  0  0  0  0  0  0  0  0  0  0  0
   -0.0000   -3.0000    0.0000 N   0  0  0  0  0  0  0  0  0  0  0  0
   -1.3000   -0.7500    0.0000 N   0  0  0  0  0  0  0  0  0  0  0  0
    0.0000    1.5000    0.0000 O   0  0  0  0  0  0  0  0  0  0  0  0
  2  1  2  0
  4  1  1  0
  5  2  1  0
  5  3  2  0
  6  3  1  0
  6  4  2  0
  7  4  1  0
M  END
>  <NAME>  (623) 
4-PYRIMIDINONE

>  <SYNONYMS>  (623) 


>  <SPECTRUM TYPE>  (623) 
MS1

>  <INSTRUMENT TYPE>  (623) 
EI-B

>  <INSTRUMENT>  (623) 
JEOL JMS-DX-300

>  <ION MODE>  (623) 
P

>  <INCHIKEY>  (623) 
DNCYBUMDUBHIJZ-UHFFFAOYSA-N

>  <FORMULA>  (623) 
C4H4N2O

>  <EXACT MASS>  (623) 
96.032362748

>  <MW>  (623) 
96

>  <ID>  (623) 
JP011172

>  <CONTRIBUTOR>  (623) 
University of Tokyo Team, {Faculty of Engineering, University of Tokyo

>  <COMMENT>  (623) 
SMILES=O=C(C=1)NC=NC1
InChI=InChI=1S/C4H4N2O/c7-4-1-2-5-3-6-4/h1-3H,(H,5,6,7)
computed SMILES=OC=1N=CN=CC1
accession=JP011172
date=2016.01.19 (Created 2008.10.21, modified 2011.05.06)
author=SAWADA M, THE INST. OF SCIENTIFIC AND INDUSTRIALRESEARCH OSAKA UNIV.
license=CC BY-NC-SA
exact mass=96.03236
ionization energy=70 eV
ion type=[M]+*
computed spectral entropy=2.771540781086814
computed normalized entropy=0.7734131809223475
SPLASH=splash10-00kg-9000000000-70bc8298a30dcebb8ab7
submitter=submitter = University of Tokyo Team (Faculty of Engineering, University of Tokyo)
MoNA Rating=3.75

>  <NUM PEAKS>  (623) 
36

>  <MASS SPECTRAL PEAKS>  (623) 
37 2
38 16.2
39 23.3
40 58.6
41 63.3
42 60.3
43 13.3
44 17
45 2.1
50 3
51 14.6
52 22.2
53 18.5
54 3.6
55 5
56 1.4
57 3.9
60 1.4
65 1
66 1.1
67 11.8
68 83.4
69 51
70 3.4
71 2
73 1.6
77 1.2
79 3.7
81 1.7
82 1.1
83 1.8
85 1.1
95 6.2
96 99.99
97 16
98 1.7

>  <PREDICTED SPECTRUM>  (623) 
14 27
25 35
26 111
27 151
28 161
36 9
37 103
38 196
39 292
40 255
41 525
42 388
43 137
44 121
48 0
49 67
50 178
51 214
52 110
53 155
54 85
55 157
56 77
57 98
66 26
67 286
68 608
69 384
70 123
78 3
95 217
96 999
97 276
98 1

$$$$

     RDKit          2D

 25 28  0  0  0  0  0  0  0  0999 V2000
   -2.1300   -3.8000    0.0000 C   0  0  0  0  0  0  0  0  0  0  0  0
   -8.6264   -1.5492    0.0000 C   0  0  0  0  0  0  0  0  0  0  0  0
   -7.3270   -2.3002    0.0000 C   0  0  0  0  0  0  0  0  0  0  0  0
   -8.6266   -0.0483    0.0000 C   0  0  0  0  0  0  0  0  0  0  0  0
    3.0600    2.2000    0.0000 C   0  0  0  0  0  0  0  0  0  0  0  0
    1.7600    2.9500    0.0000 C   0  0  0  0  0  0  0  0  0  0  0  0
   -6.0278   -1.5504    0.0000 C   0  0  0  0  0  0  0  0  0  0  0  0
   -7.3275    0.7015    0.0000 C   0  0  0  0  0  0  0  0  0  0  0  0
    3.0600    0.7000    0.0000 C   0  0  0  0  0  0  0  0  0  0  0  0
    0.4600    2.2000    0.0000 C   0  0  0  0  0  0  0  0  0  0  0  0
    0.4600   -2.3000    0.0000 C   0  0  0  0  0  0  0  0  0  0  0  0
   -4.7289    0.7002    0.0000 C   0  0  0  0  0  0  0  0  0  0  0  0
   -6.0281   -0.0496    0.0000 C   0  0  0  0  0  0  0  0  0  0  0  0
    1.7600   -0.0500    0.0000 C   0  0  0  0  0  0  0  0  0  0  0  0
    0.4600    0.7000    0.0000 C   0  0  0  0  0  0  0  0  0  0  0  0
    1.7600   -1.5500    0.0000 C   0  0  0  0  0  0  0  0  0  0  0  0
   -0.8300   -1.5500    0.0000 C   0  0  0  0  0  0  0  0  0  0  0  0
   -3.4300   -1.5500    0.0000 C   0  0  0  0  0  0  0  0  0  0  0  0
   -2.1300    0.7000    0.0000 C   0  0  0  0  0  0  0  0  0  0  0  0
   -2.1300   -2.3000    0.0000 N   0  0  0  0  0  0  0  0  0  0  0  0
   -3.4300   -0.0500    0.0000 N   0  0  0  0  0  0  0  0  0  0  0  0
   -0.8300   -0.0500    0.0000 N   0  0  0  0  0  0  0  0  0  0  0  0
    3.0589   -2.3002    0.0000 O   0  0  0  0  0  0  0  0  0  0  0  0
   -4.7289   -2.3002    0.0000 O   0  0  0  0  0  0  0  0  0  0  0  0
   -2.1300    2.2000    0.0000 O   0  0  0  0  0  0  0  0  0  0  0  0
  3  2  2  0
  4  2  1  0
  6  5  2  0
  7  3  1  0
  8  4  2  0
  9  5  1  0
 10  6  1  0
 13  7  2  0
 13  8  1  0
 13 12  1  0
 14  9  2  0
 15 10  2  0
 15 14  1  0
 16 11  1  0
 16 14  1  0
 17 11  1  0
 20  1  1  0
 20 17  1  0
 20 18  1  0
 21 12  1  0
 21 18  1  0
 21 19  1  0
 22 15  1  0
 22 17  1  0
 22 19  1  0
 23 16  2  0
 24 18  2  0
 25 19  2  0
M  END
>  <NAME>  (624) 
2-BENZYL-4-METHYL-4,4A-DIHYDRO-1H-(1,3,5)TRIAZINO(1,2-A)QUINOLINE-1,3,6(2H,5H)-TRIONE

>  <SYNONYMS>  (624) 


>  <SPECTRUM TYPE>  (624) 
MS1

>  <INSTRUMENT TYPE>  (624) 
EI-B

>  <INSTRUMENT>  (624) 
JEOL JMS-DX-300

>  <ION MODE>  (624) 
P

>  <INCHIKEY>  (624) 
JCTQHUHKWKEIOF-UHFFFAOYSA-N

>  <FORMULA>  (624) 
C19H17N3O3

>  <EXACT MASS>  (624) 
335.126991404

>  <MW>  (624) 
335

>  <ID>  (624) 
JP011171

>  <CONTRIBUTOR>  (624) 
University of Tokyo Team, {Faculty of Engineering, University of Tokyo

>  <COMMENT>  (624) 
SMILES=c(c4)ccc(c4)CN(C(=O)1)C(=O)N(c32)C(CC(=O)c(cccc3)2)N(C)1
InChI=InChI=1S/C19H17N3O3/c1-20-17-11-16(23)14-9-5-6-10-15(14)22(17)19(25)21(18(20)24)12-13-7-3-2-4-8-13/h2-10,17H,11-12H2,1H3
computed SMILES=O=C1C=2C=CC=CC2N3C(=O)N(C(=O)N(C)C3C1)CC=4C=CC=CC4
accession=JP011171
date=2016.01.19 (Created 2008.10.21, modified 2011.05.06)
author=SAWADA M, THE INST. OF SCIENTIFIC AND INDUSTRIALRESEARCH OSAKA UNIV.
license=CC BY-NC-SA
exact mass=335.12699
ionization energy=70 eV
ion type=[M]+*
computed spectral entropy=3.959867008628451
computed normalized entropy=0.8457402871770029
SPLASH=splash10-000f-9522000000-d9ada45f2cb6d0adcfcb
submitter=submitter = University of Tokyo Team (Faculty of Engineering, University of Tokyo)
MoNA Rating=3.75

>  <NUM PEAKS>  (624) 
108

>  <MASS SPECTRAL PEAKS>  (624) 
35 1.8
38 2
39 14.9
40 12.4
41 11.3
42 9.8
43 10.9
44 38.7
45 2.7
47 4.4
48 1.6
49 1.6
50 6.4
51 12.7
52 3.8
53 1.8
54 1.8
55 7.8
56 12.9
57 10.4
58 9.1
60 1.6
62 2.2
63 11.6
64 7.6
65 38.2
66 2.9
67 1.8
68 1.6
69 4.7
70 6.7
71 3.3
73 1.8
74 1.7
75 2.8
76 10.7
77 26.7
78 8.9
79 2.9
81 2.2
82 2.2
83 19.8
84 2.6
85 9.1
86 1.3
87 1.7
89 17.6
90 43.1
91 77.1
92 35.1
93 3.3
95 1.3
96 1.2
97 2.2
102 1.8
103 3.8
104 18.6
105 16
106 12.6
107 2.9
116 9.6
117 17.6
118 10.2
119 3.8
120 3.6
128 1.3
129 3.3
130 2.7
131 2
132 32.9
133 14.9
134 1.8
143 1.3
144 8.9
145 37.3
146 58.2
147 8
149 2.2
157 1.6
158 1.6
159 1.4
161 9.3
162 1.6
171 1.8
172 1.6
173 2.9
174 21.3
175 5.6
187 8.7
188 1.6
189 1.6
190 2
200 1.6
201 2.4
202 1.3
203 1.1
230 24
231 32.9
232 6
235 1.6
244 69.3
245 14.7
246 1.6
257 1.8
292 2
334 2.9
335 99.99
336 36.7

>  <PREDICTED SPECTRUM>  (624) 
26 9
28 21
31 13
33 13
34 31
36 60
37 88
38 163
39 418
40 270
41 356
42 483
43 604
44 532
45 175
46 26
49 60
50 308
51 416
52 310
53 338
54 244
55 442
56 383
57 492
58 247
59 124
60 93
61 137
62 198
63 414
64 287
65 568
66 225
67 179
68 202
69 339
70 419
71 238
72 105
73 143
74 153
75 210
76 223
77 483
78 376
79 293
80 203
81 157
82 204
83 289
84 214
85 258
86 147
87 112
88 99
89 457
90 472
91 975
92 481
93 201
94 82
95 133
96 99
97 128
98 120
99 26
100 6
101 20
102 97
103 282
104 581
105 562
106 329
107 80
108 8
109 39
111 30
112 45
113 15
114 33
115 31
116 242
117 476
118 284
119 254
120 137
121 47
122 19
123 8
125 27
127 37
129 14
130 153
131 295
132 738
133 442
134 137
135 70
136 48
137 64
141 5
143 21
144 444
145 683
146 969
147 320
148 108
149 149
157 42
158 120
159 226
160 163
161 210
162 81
163 1
167 1
171 7
173 76
174 271
175 184
176 24
177 34
187 185
188 131
189 130
190 158
191 97
194 21
199 0
200 90
201 132
202 161
203 110
206 2
208 51
216 36
217 182
220 20
229 16
230 431
231 571
232 260
233 93
244 810
245 389
246 129
247 49
320 73
321 28
334 109
335 999
336 510
337 106
338 10

$$$$

     RDKit          2D

 31 35  0  0  0  0  0  0  0  0999 V2000
   -6.0271   -6.0500    0.0000 C   0  0  0  0  0  0  0  0  0  0  0  0
   -4.7282    5.2002    0.0000 C   0  0  0  0  0  0  0  0  0  0  0  0
   -4.7276   -6.8008    0.0000 C   0  0  0  0  0  0  0  0  0  0  0  0
   -6.0276   -4.5492    0.0000 C   0  0  0  0  0  0  0  0  0  0  0  0
   -6.0283    4.4504    0.0000 C   0  0  0  0  0  0  0  0  0  0  0  0
   -3.4283    4.4500    0.0000 C   0  0  0  0  0  0  0  0  0  0  0  0
    3.0600    2.2000    0.0000 C   0  0  0  0  0  0  0  0  0  0  0  0
    1.7600    2.9500    0.0000 C   0  0  0  0  0  0  0  0  0  0  0  0
   -3.4286   -6.0508    0.0000 C   0  0  0  0  0  0  0  0  0  0  0  0
   -4.7286   -3.7992    0.0000 C   0  0  0  0  0  0  0  0  0  0  0  0
   -6.0286    2.9504    0.0000 C   0  0  0  0  0  0  0  0  0  0  0  0
   -3.4286    2.9500    0.0000 C   0  0  0  0  0  0  0  0  0  0  0  0
    3.0600    0.7000    0.0000 C   0  0  0  0  0  0  0  0  0  0  0  0
    0.4600    2.2000    0.0000 C   0  0  0  0  0  0  0  0  0  0  0  0
    0.4600   -2.3000    0.0000 C   0  0  0  0  0  0  0  0  0  0  0  0
   -2.1300   -3.8000    0.0000 C   0  0  0  0  0  0  0  0  0  0  0  0
   -4.7289    0.7002    0.0000 C   0  0  0  0  0  0  0  0  0  0  0  0
   -3.4290   -4.5500    0.0000 C   0  0  0  0  0  0  0  0  0  0  0  0
   -4.7287    2.2002    0.0000 C   0  0  0  0  0  0  0  0  0  0  0  0
    1.7600   -0.0500    0.0000 C   0  0  0  0  0  0  0  0  0  0  0  0
    0.4600    0.7000    0.0000 C   0  0  0  0  0  0  0  0  0  0  0  0
    1.7600   -1.5500    0.0000 C   0  0  0  0  0  0  0  0  0  0  0  0
   -0.8300   -1.5500    0.0000 C   0  0  0  0  0  0  0  0  0  0  0  0
   -3.4300   -1.5500    0.0000 C   0  0  0  0  0  0  0  0  0  0  0  0
   -2.1300    0.7000    0.0000 C   0  0  0  0  0  0  0  0  0  0  0  0
   -2.1300   -2.3000    0.0000 N   0  0  0  0  0  0  0  0  0  0  0  0
   -3.4300   -0.0500    0.0000 N   0  0  0  0  0  0  0  0  0  0  0  0
   -0.8300   -0.0500    0.0000 N   0  0  0  0  0  0  0  0  0  0  0  0
    3.0589   -2.3002    0.0000 O   0  0  0  0  0  0  0  0  0  0  0  0
   -4.7289   -2.3002    0.0000 O   0  0  0  0  0  0  0  0  0  0  0  0
   -2.1300    2.2000    0.0000 O   0  0  0  0  0  0  0  0  0  0  0  0
  3  1  2  0
  4  1  1  0
  5  2  2  0
  6  2  1  0
  8  7  2  0
  9  3  1  0
 10  4  2  0
 11  5  1  0
 12  6  2  0
 13  7  1  0
 14  8  1  0
 18  9  2  0
 18 10  1  0
 18 16  1  0
 19 11  2  0
 19 12  1  0
 19 17  1  0
 20 13  2  0
 21 14  2  0
 21 20  1  0
 22 15  1  0
 22 20  1  0
 23 15  1  0
 26 16  1  0
 26 23  1  0
 26 24  1  0
 27 17  1  0
 27 24  1  0
 27 25  1  0
 28 21  1  0
 28 23  1  0
 28 25  1  0
 29 22  2  0
 30 24  2  0
 31 25  2  0
M  END
>  <NAME>  (625) 
2,4-DIBENZYL-4,4A-DIHYDRO-1H-(1,3,5)TRIAZINO(1,2-A)QUINOLINE-1,3,6(2H,5H)-TRIONE

>  <SYNONYMS>  (625) 


>  <SPECTRUM TYPE>  (625) 
MS1

>  <INSTRUMENT TYPE>  (625) 
EI-B

>  <INSTRUMENT>  (625) 
JEOL JMS-DX-300

>  <ION MODE>  (625) 
P

>  <INCHIKEY>  (625) 
FCBJZQPHTRBDDA-UHFFFAOYSA-N

>  <FORMULA>  (625) 
C25H21N3O3

>  <EXACT MASS>  (625) 
411.158291532

>  <MW>  (625) 
411

>  <ID>  (625) 
JP011170

>  <CONTRIBUTOR>  (625) 
University of Tokyo Team, {Faculty of Engineering, University of Tokyo

>  <COMMENT>  (625) 
SMILES=c(c5)ccc(c5)CN(C(=O)1)C(=O)N(c43)C(CC(=O)c(cccc4)3)N(Cc(c2)cccc2)1
InChI=InChI=1S/C25H21N3O3/c29-22-15-23-26(16-18-9-3-1-4-10-18)24(30)27(17-19-11-5-2-6-12-19)25(31)28(23)21-14-8-7-13-20(21)22/h1-14,23H,15-17H2
computed SMILES=O=C1C=2C=CC=CC2N3C(=O)N(C(=O)N(CC=4C=CC=CC4)C3C1)CC=5C=CC=CC5
accession=JP011170
date=2016.01.19 (Created 2008.10.21, modified 2011.05.06)
author=SAWADA M, THE INST. OF SCIENTIFIC AND INDUSTRIALRESEARCH OSAKA UNIV.
license=CC BY-NC-SA
exact mass=411.15829
ionization energy=70 eV
ion type=[M]+*
computed spectral entropy=4.442057719395817
computed normalized entropy=0.8720603767912041
SPLASH=splash10-0006-9400000000-14edc046392cf928ef74
submitter=submitter = University of Tokyo Team (Faculty of Engineering, University of Tokyo)
MoNA Rating=3.75

>  <NUM PEAKS>  (625) 
163

>  <MASS SPECTRAL PEAKS>  (625) 
33 1.8
34 7.1
35 1.3
36 6
37 3.6
38 8.2
39 32.2
40 68.9
41 44.4
42 17.1
43 61.3
44 88.4
45 19.3
46 4.9
48 1.8
49 1.6
50 14.7
51 26.9
52 8.4
53 8
54 7.6
55 37.3
56 19.6
57 35.6
58 5.8
59 3.6
60 10.2
61 7.1
62 4.4
63 15.1
64 8.7
65 39.1
66 4.9
67 12
68 7.6
69 27.8
70 17.3
71 16.7
72 3.8
73 8.9
74 6.2
75 5.8
76 10.4
77 4.2
78 21.8
79 10
80 3.8
81 12.9
82 10.7
83 17.8
84 8
85 10.9
86 2.7
87 4.2
88 1.8
89 16.4
90 28.4
91 99.99
92 27.8
93 10.9
94 3.1
95 8.2
96 6.2
97 12.4
98 6
99 4.4
100 1.6
101 3.6
102 2.7
103 4.9
104 31.6
105 31.8
106 21.3
107 8.4
108 1.8
109 6.2
110 4.2
111 7.1
112 4.2
113 4.3
114 1.5
115 3.8
116 8.9
117 24.9
118 8.7
119 7.8
120 2.7
121 3.8
122 2.7
123 4.2
124 3.8
125 4.4
126 2.4
127 2.7
128 2.6
129 5.8
130 3.8
131 3.6
132 46.2
133 50.2
134 6.2
135 4.7
136 1.8
137 3.8
138 1.8
139 3.6
140 1.7
141 1.7
143 2.9
144 4.4
145 32.4
146 56
147 9.6
149 13.3
150 2.2
151 2
152 1.8
153 1.6
157 3.8
158 1.6
159 2.2
160 1.6
161 2
163 1.6
165 2
166 1.6
167 6.2
168 1.6
169 1.6
171 2
172 2.7
174 2.7
175 7.3
176 1.3
179 1.3
180 2.9
181 3.1
185 2
187 5.1
194 1.6
200 2
201 2.9
215 1.6
222 1.8
229 11.6
230 3.6
236 3.8
237 2.4
249 4
250 1.6
256 3.8
257 4.2
266 2.7
277 1.3
278 2
279 4.4
306 11.1
307 25.3
308 6.2
320 37.8
321 11.8
411 79.3
412 32.9

>  <PREDICTED SPECTRUM>  (625) 
25 2
26 48
27 50
28 81
29 63
30 0
31 33
32 1
33 24
34 40
36 74
37 84
38 159
39 464
40 291
41 566
42 464
43 575
44 507
45 233
46 23
49 85
50 297
51 400
52 286
53 345
54 268
55 544
56 558
57 577
58 191
59 145
60 123
61 152
62 193
63 364
64 234
65 560
66 231
67 257
68 210
69 390
70 381
71 237
72 122
73 210
74 167
75 203
76 230
77 511
78 371
79 340
80 217
81 203
82 297
83 354
84 195
85 240
86 164
87 125
88 118
89 394
90 317
91 999
92 479
93 281
94 137
95 192
96 123
97 125
98 142
99 56
100 66
101 159
102 181
103 253
104 622
105 525
106 432
107 192
108 113
109 114
110 104
111 140
112 135
113 50
114 142
115 222
116 325
117 435
118 271
119 386
120 174
121 121
122 149
123 125
124 136
125 106
126 46
127 125
128 142
129 133
130 205
131 245
132 720
133 554
134 261
135 99
136 74
137 91
138 111
139 108
140 94
141 82
142 77
143 116
144 279
145 470
146 754
147 330
148 184
149 431
150 63
151 77
152 73
153 50
154 6
155 15
156 13
157 107
158 133
159 96
160 146
161 118
162 141
163 74
164 98
165 129
166 96
167 127
168 17
169 36
171 93
172 57
173 144
174 122
175 211
176 84
177 56
178 41
179 106
180 80
181 106
185 49
186 59
187 95
188 99
189 54
190 19
192 19
193 91
194 60
195 58
196 42
197 35
199 3
200 28
201 68
202 12
206 28
207 105
208 22
209 54
210 51
211 5
213 50
214 21
215 33
216 11
217 281
221 47
222 76
223 17
225 27
234 19
235 75
236 104
237 98
238 27
243 9
249 1
250 127
251 34
263 108
264 31
265 43
266 33
267 25
276 19
277 121
278 95
279 157
292 34
305 26
306 326
307 480
308 232
309 62
320 563
321 328
322 66
323 1
383 15
396 13
410 35
411 806
412 442
413 40
414 8

$$$$

     RDKit          2D

 25 27  0  0  0  0  0  0  0  0999 V2000
   -4.7281   -6.8000    0.0000 C   0  0  0  0  0  0  0  0  0  0  0  0
   -8.6262   -0.0492    0.0000 C   0  0  0  0  0  0  0  0  0  0  0  0
   -3.4290   -6.0500    0.0000 C   0  0  0  0  0  0  0  0  0  0  0  0
   -7.3270    0.7006    0.0000 C   0  0  0  0  0  0  0  0  0  0  0  0
   -3.4290   -4.5500    0.0000 C   0  0  0  0  0  0  0  0  0  0  0  0
   -6.0281   -0.0496    0.0000 C   0  0  0  0  0  0  0  0  0  0  0  0
    3.0600    2.2000    0.0000 C   0  0  0  0  0  0  0  0  0  0  0  0
    1.7600    2.9500    0.0000 C   0  0  0  0  0  0  0  0  0  0  0  0
    3.0600    0.7000    0.0000 C   0  0  0  0  0  0  0  0  0  0  0  0
    0.4600    2.2000    0.0000 C   0  0  0  0  0  0  0  0  0  0  0  0
   -2.1300   -3.8000    0.0000 C   0  0  0  0  0  0  0  0  0  0  0  0
   -4.7289    0.7002    0.0000 C   0  0  0  0  0  0  0  0  0  0  0  0
    0.4600   -2.3000    0.0000 C   0  0  0  0  0  0  0  0  0  0  0  0
    1.7600   -0.0500    0.0000 C   0  0  0  0  0  0  0  0  0  0  0  0
    0.4600    0.7000    0.0000 C   0  0  0  0  0  0  0  0  0  0  0  0
    1.7600   -1.5500    0.0000 C   0  0  0  0  0  0  0  0  0  0  0  0
   -0.8300   -1.5500    0.0000 C   0  0  0  0  0  0  0  0  0  0  0  0
   -3.4300   -1.5500    0.0000 C   0  0  0  0  0  0  0  0  0  0  0  0
   -2.1300    0.7000    0.0000 C   0  0  0  0  0  0  0  0  0  0  0  0
   -2.1300   -2.3000    0.0000 N   0  0  0  0  0  0  0  0  0  0  0  0
   -3.4300   -0.0500    0.0000 N   0  0  0  0  0  0  0  0  0  0  0  0
   -0.8300   -0.0500    0.0000 N   0  0  0  0  0  0  0  0  0  0  0  0
    3.0589   -2.3002    0.0000 O   0  0  0  0  0  0  0  0  0  0  0  0
   -4.7289   -2.3002    0.0000 O   0  0  0  0  0  0  0  0  0  0  0  0
   -2.1300    2.2000    0.0000 O   0  0  0  0  0  0  0  0  0  0  0  0
  3  1  1  0
  4  2  1  0
  5  3  1  0
  6  4  1  0
  8  7  2  0
  9  7  1  0
 10  8  1  0
 11  5  1  0
 12  6  1  0
 14  9  2  0
 15 10  2  0
 15 14  1  0
 16 13  1  0
 16 14  1  0
 17 13  1  0
 20 11  1  0
 20 17  1  0
 20 18  1  0
 21 12  1  0
 21 18  1  0
 21 19  1  0
 22 15  1  0
 22 17  1  0
 22 19  1  0
 23 16  2  0
 24 18  2  0
 25 19  2  0
M  END
>  <NAME>  (626) 
2,4-DIBUTYL-4,4A-DIHYDRO-1H-(1,3,5)TRIAZINO(1,2-A)QUINOLINE-1,3,6(2H,5H)-TRIONE

>  <SYNONYMS>  (626) 


>  <SPECTRUM TYPE>  (626) 
MS1

>  <INSTRUMENT TYPE>  (626) 
EI-B

>  <INSTRUMENT>  (626) 
JEOL JMS-DX-300

>  <ION MODE>  (626) 
P

>  <INCHIKEY>  (626) 
CIRCGMQRWBBGDH-UHFFFAOYSA-N

>  <FORMULA>  (626) 
C19H25N3O3

>  <EXACT MASS>  (626) 
343.18959166

>  <MW>  (626) 
343

>  <ID>  (626) 
JP011169

>  <CONTRIBUTOR>  (626) 
University of Tokyo Team, {Faculty of Engineering, University of Tokyo

>  <COMMENT>  (626) 
SMILES=CCCCN(C(=O)1)C(=O)N(c32)C(CC(=O)c(cccc3)2)N(CCCC)1
InChI=InChI=1S/C19H25N3O3/c1-3-5-11-20-17-13-16(23)14-9-7-8-10-15(14)22(17)19(25)21(18(20)24)12-6-4-2/h7-10,17H,3-6,11-13H2,1-2H3
computed SMILES=O=C1C=2C=CC=CC2N3C(=O)N(C(=O)N(CCCC)C3C1)CCCC
accession=JP011169
date=2016.01.19 (Created 2008.10.21, modified 2011.05.06)
author=SAWADA M, THE INST. OF SCIENTIFIC AND INDUSTRIALRESEARCH OSAKA UNIV.
license=CC BY-NC-SA
exact mass=343.18959
ionization energy=70 eV
ion type=[M]+*
computed spectral entropy=4.047898483882579
computed normalized entropy=0.8411769344130439
SPLASH=splash10-0006-9636000000-78238559f4fdbf27ab79
submitter=submitter = University of Tokyo Team (Faculty of Engineering, University of Tokyo)
MoNA Rating=3.75

>  <NUM PEAKS>  (626) 
123

>  <MASS SPECTRAL PEAKS>  (626) 
34 1.6
39 8.4
40 22.9
41 30.9
42 7.8
43 17.6
44 49.6
45 2.9
50 1.6
51 2
53 2.2
54 3.3
55 15.1
56 35.1
57 21.6
58 2
60 1.3
63 3.6
64 3.6
65 3.3
67 1.6
68 1.6
69 5.6
70 13.3
71 4.7
72 2.7
73 1.6
76 6
77 8.9
78 1.8
81 1.6
82 2.7
83 3.8
84 4.2
85 2
89 8.2
90 35.6
91 8.7
92 2.7
93 1.8
95 1.6
96 1.6
97 2.7
98 4.4
99 2.7
100 1.8
103 2.5
104 8.4
105 4
111 1.6
112 1.6
113 1.7
116 10.4
117 21.3
118 13.8
119 5.6
120 1.8
126 1.3
128 2.7
129 2.7
130 2.7
131 1.8
132 6
133 4.7
134 1.4
135 1.3
143 3.6
144 10.7
145 6
146 77.8
147 10.3
149 6.7
153 2.2
155 2.9
158 6.2
159 4.7
160 3.1
161 3.8
162 3.8
167 2.7
168 1.8
169 1.1
173 3.1
174 3.1
186 1.8
187 5.8
188 3.8
189 2.7
201 27.1
202 6.7
203 1.3
215 5.1
216 3.1
217 1.6
224 11.6
225 1.8
230 6.2
231 2.9
232 3.8
243 1.4
244 1.5
245 6.2
246 1.3
258 3.6
259 2.7
272 2.2
273 4.4
279 1.8
286 13.1
287 10.2
288 12.9
289 2.9
298 3.6
300 3.8
301 83.8
302 21.6
314 8.4
315 14.9
328 5.6
341 1.6
342 4.4
343 99.99
344 31.6

>  <PREDICTED SPECTRUM>  (626) 
29 62
30 32
33 10
34 18
38 3
39 303
40 175
41 691
42 340
43 497
44 451
45 105
46 32
50 101
51 172
52 76
53 154
54 227
55 546
56 604
57 531
58 239
59 115
60 21
61 43
62 30
63 181
64 181
65 206
66 37
67 151
68 202
69 218
70 212
71 160
72 140
73 136
74 78
75 45
76 175
77 352
78 200
79 62
80 33
81 75
82 221
83 134
84 206
85 118
86 105
87 37
88 57
89 315
90 553
91 457
92 270
93 116
94 65
95 64
96 99
97 63
98 141
99 74
100 113
101 96
102 150
103 215
104 296
105 211
106 70
107 13
110 6
111 92
112 145
113 92
114 104
115 105
116 229
117 387
118 478
119 390
120 106
121 45
126 81
127 46
128 63
129 74
130 146
131 208
132 320
133 239
134 147
135 86
139 48
140 79
141 94
142 23
143 110
144 309
145 400
146 848
147 186
148 51
149 74
153 34
154 54
155 90
156 53
157 55
158 121
159 212
160 180
161 195
162 178
169 64
170 20
171 2
172 40
173 154
174 176
175 53
176 4
182 49
185 25
187 199
188 188
189 167
190 60
191 3
200 53
201 256
202 167
203 21
213 83
214 20
215 248
216 182
217 84
218 22
228 2
229 108
230 122
231 57
232 107
240 5
243 96
244 89
245 250
246 82
247 2
258 177
259 122
272 82
273 83
286 284
287 369
288 242
289 164
300 185
301 777
302 358
303 77
314 336
315 231
316 72
326 140
327 79
328 219
329 79
342 177
343 999
344 485
345 114
346 0

$$$$

     RDKit          2D

 23 25  0  0  0  0  0  0  0  0999 V2000
   -3.4290   -4.5500    0.0000 C   0  0  0  0  0  0  0  0  0  0  0  0
   -0.8310   -4.5500    0.0000 C   0  0  0  0  0  0  0  0  0  0  0  0
   -6.0281   -0.0496    0.0000 C   0  0  0  0  0  0  0  0  0  0  0  0
   -4.7287    2.2002    0.0000 C   0  0  0  0  0  0  0  0  0  0  0  0
    3.0600    2.2000    0.0000 C   0  0  0  0  0  0  0  0  0  0  0  0
    1.7600    2.9500    0.0000 C   0  0  0  0  0  0  0  0  0  0  0  0
    3.0600    0.7000    0.0000 C   0  0  0  0  0  0  0  0  0  0  0  0
    0.4600    2.2000    0.0000 C   0  0  0  0  0  0  0  0  0  0  0  0
    0.4600   -2.3000    0.0000 C   0  0  0  0  0  0  0  0  0  0  0  0
   -2.1300   -3.8000    0.0000 C   0  0  0  0  0  0  0  0  0  0  0  0
   -4.7289    0.7002    0.0000 C   0  0  0  0  0  0  0  0  0  0  0  0
    1.7600   -0.0500    0.0000 C   0  0  0  0  0  0  0  0  0  0  0  0
    0.4600    0.7000    0.0000 C   0  0  0  0  0  0  0  0  0  0  0  0
    1.7600   -1.5500    0.0000 C   0  0  0  0  0  0  0  0  0  0  0  0
   -0.8300   -1.5500    0.0000 C   0  0  0  0  0  0  0  0  0  0  0  0
   -3.4300   -1.5500    0.0000 C   0  0  0  0  0  0  0  0  0  0  0  0
   -2.1300    0.7000    0.0000 C   0  0  0  0  0  0  0  0  0  0  0  0
   -2.1300   -2.3000    0.0000 N   0  0  0  0  0  0  0  0  0  0  0  0
   -3.4300   -0.0500    0.0000 N   0  0  0  0  0  0  0  0  0  0  0  0
   -0.8300   -0.0500    0.0000 N   0  0  0  0  0  0  0  0  0  0  0  0
    3.0589   -2.3002    0.0000 O   0  0  0  0  0  0  0  0  0  0  0  0
   -4.7289   -2.3002    0.0000 O   0  0  0  0  0  0  0  0  0  0  0  0
   -2.1300    2.2000    0.0000 O   0  0  0  0  0  0  0  0  0  0  0  0
  6  5  2  0
  7  5  1  0
  8  6  1  0
 10  1  1  0
 10  2  1  0
 11  3  1  0
 11  4  1  0
 12  7  2  0
 13  8  2  0
 13 12  1  0
 14  9  1  0
 14 12  1  0
 15  9  1  0
 18 10  1  0
 18 15  1  0
 18 16  1  0
 19 11  1  0
 19 16  1  0
 19 17  1  0
 20 13  1  0
 20 15  1  0
 20 17  1  0
 21 14  2  0
 22 16  2  0
 23 17  2  0
M  END
>  <NAME>  (627) 
2,4-DIISOPROPYL-4,4A-DIHYDRO-1H-(1,3,5)TRIAZINO(1,2-A)QUINOLINE-1,3,6(2H,5H)-TRIONE

>  <SYNONYMS>  (627) 


>  <SPECTRUM TYPE>  (627) 
MS1

>  <INSTRUMENT TYPE>  (627) 
EI-B

>  <INSTRUMENT>  (627) 
JEOL JMS-DX-300

>  <ION MODE>  (627) 
P

>  <INCHIKEY>  (627) 
CMEXHSKNMGAZGH-UHFFFAOYSA-N

>  <FORMULA>  (627) 
C17H21N3O3

>  <EXACT MASS>  (627) 
315.158291532

>  <MW>  (627) 
315

>  <ID>  (627) 
JP011168

>  <CONTRIBUTOR>  (627) 
University of Tokyo Team, {Faculty of Engineering, University of Tokyo

>  <COMMENT>  (627) 
SMILES=CC(C)N(C(=O)1)C(=O)N(c32)C(CC(=O)c(cccc3)2)N(C(C)C)1
InChI=InChI=1S/C17H21N3O3/c1-10(2)18-15-9-14(21)12-7-5-6-8-13(12)20(15)17(23)19(11(3)4)16(18)22/h5-8,10-11,15H,9H2,1-4H3
computed SMILES=O=C1C=2C=CC=CC2N3C(=O)N(C(=O)N(C3C1)C(C)C)C(C)C
accession=JP011168
date=2016.01.19 (Created 2008.10.21, modified 2011.05.06)
author=SAWADA M, THE INST. OF SCIENTIFIC AND INDUSTRIALRESEARCH OSAKA UNIV.
license=CC BY-NC-SA
exact mass=315.15829
ionization energy=70 eV
ion type=[M]+*
computed spectral entropy=3.7790932063468645
computed normalized entropy=0.8224145026894513
SPLASH=splash10-00kg-9623000000-40c6002b530b9b3888f3
submitter=submitter = University of Tokyo Team (Faculty of Engineering, University of Tokyo)
MoNA Rating=3.75

>  <NUM PEAKS>  (627) 
99

>  <MASS SPECTRAL PEAKS>  (627) 
34 1.5
36 1.8
38 1.3
39 8
40 21.3
41 25.6
42 13.8
43 31.1
44 66.4
45 6.4
50 1.8
51 2.2
53 1.3
54 2.2
55 6.2
56 8.4
57 7.3
58 6.7
60 2.2
63 3.6
64 4
65 2.9
67 1.3
68 2
69 4.7
70 28.4
71 4.2
72 1.5
73 1.3
75 1.3
76 5.3
77 8.2
78 1.8
81 1.6
82 1.6
83 3.6
84 11.8
85 4
86 1.8
87 1.6
89 6.7
90 28.7
91 7.1
92 2.9
93 1.3
95 1.1
96 1
97 1.6
99 1.1
102 1
103 1.9
104 5.8
105 3.6
111 1.3
113 1.3
116 7.6
117 14.7
118 10.7
119 4.7
120 1.6
128 2.4
129 2.9
130 1.3
131 1.6
132 3.8
133 5.3
134 2.4
141 1.1
144 8.4
145 81.8
146 62
147 9.8
149 4.4
155 4.4
159 1.5
160 7.1
161 3.8
162 4.2
167 1.6
187 6.4
188 3.1
189 2.2
201 1.7
202 2.7
203 2.2
215 15.6
216 4.2
217 2.2
230 17.3
231 18
232 8.4
258 2.2
259 4
272 12.7
273 15.3
274 7.8
279 1.3
315 99.99
316 27.3

>  <PREDICTED SPECTRUM>  (627) 
33 36
34 27
36 4
37 36
38 103
39 362
40 269
41 722
42 453
43 758
44 502
45 177
46 23
48 12
50 156
51 194
52 173
53 157
54 139
55 300
56 330
57 272
58 249
59 110
60 124
61 37
62 113
63 263
64 265
65 250
66 129
67 135
68 218
69 336
70 301
71 133
72 107
73 136
74 79
75 92
76 226
77 296
78 197
79 58
80 32
81 85
82 93
83 177
84 173
85 139
86 109
87 81
88 74
89 286
90 519
91 362
92 229
93 130
96 14
97 5
98 44
99 17
100 17
101 23
102 146
103 167
104 290
105 254
106 92
107 33
111 71
112 63
113 86
114 24
115 106
116 235
117 431
118 236
119 223
120 80
121 2
125 0
127 35
128 45
129 166
130 123
131 209
132 168
133 218
134 132
135 56
137 28
141 104
144 344
145 802
146 878
147 139
148 17
154 26
155 186
157 128
158 69
159 163
160 144
161 117
162 140
163 51
170 15
171 30
172 18
173 80
174 82
175 77
185 53
186 37
187 252
188 282
189 227
190 55
201 16
202 119
203 138
204 83
205 19
215 272
216 74
217 48
229 46
230 460
231 437
232 266
233 7
244 32
245 66
246 63
248 49
256 18
258 202
259 102
272 338
273 458
274 279
275 44
287 21
300 74
314 85
315 999
316 434
317 97
318 10

$$$$

     RDKit          2D

 21 23  0  0  0  0  0  0  0  0999 V2000
   -3.4290   -4.5500    0.0000 C   0  0  0  0  0  0  0  0  0  0  0  0
   -6.0281   -0.0496    0.0000 C   0  0  0  0  0  0  0  0  0  0  0  0
   -2.1300   -3.8000    0.0000 C   0  0  0  0  0  0  0  0  0  0  0  0
   -4.7289    0.7002    0.0000 C   0  0  0  0  0  0  0  0  0  0  0  0
    3.0600    2.2000    0.0000 C   0  0  0  0  0  0  0  0  0  0  0  0
    1.7600    2.9500    0.0000 C   0  0  0  0  0  0  0  0  0  0  0  0
    3.0600    0.7000    0.0000 C   0  0  0  0  0  0  0  0  0  0  0  0
    0.4600    2.2000    0.0000 C   0  0  0  0  0  0  0  0  0  0  0  0
    0.4600   -2.3000    0.0000 C   0  0  0  0  0  0  0  0  0  0  0  0
    1.7600   -0.0500    0.0000 C   0  0  0  0  0  0  0  0  0  0  0  0
    0.4600    0.7000    0.0000 C   0  0  0  0  0  0  0  0  0  0  0  0
    1.7600   -1.5500    0.0000 C   0  0  0  0  0  0  0  0  0  0  0  0
   -0.8300   -1.5500    0.0000 C   0  0  0  0  0  0  0  0  0  0  0  0
   -3.4300   -1.5500    0.0000 C   0  0  0  0  0  0  0  0  0  0  0  0
   -2.1300    0.7000    0.0000 C   0  0  0  0  0  0  0  0  0  0  0  0
   -2.1300   -2.3000    0.0000 N   0  0  0  0  0  0  0  0  0  0  0  0
   -3.4300   -0.0500    0.0000 N   0  0  0  0  0  0  0  0  0  0  0  0
   -0.8300   -0.0500    0.0000 N   0  0  0  0  0  0  0  0  0  0  0  0
    3.0589   -2.3002    0.0000 O   0  0  0  0  0  0  0  0  0  0  0  0
   -4.7289   -2.3002    0.0000 O   0  0  0  0  0  0  0  0  0  0  0  0
   -2.1300    2.2000    0.0000 O   0  0  0  0  0  0  0  0  0  0  0  0
  3  1  1  0
  4  2  1  0
  6  5  2  0
  7  5  1  0
  8  6  1  0
 10  7  2  0
 11  8  2  0
 11 10  1  0
 12  9  1  0
 12 10  1  0
 13  9  1  0
 16  3  1  0
 16 13  1  0
 16 14  1  0
 17  4  1  0
 17 14  1  0
 17 15  1  0
 18 11  1  0
 18 13  1  0
 18 15  1  0
 19 12  2  0
 20 14  2  0
 21 15  2  0
M  END
>  <NAME>  (628) 
2,4-DIETHYL-4,4A-DIHYDRO-1H-(1,3,5)TRIAZINO(1,2-A)QUINOLINE-1,3,6(2H,5H)-TRIONE

>  <SYNONYMS>  (628) 


>  <SPECTRUM TYPE>  (628) 
MS1

>  <INSTRUMENT TYPE>  (628) 
EI-B

>  <INSTRUMENT>  (628) 
JEOL JMS-DX-300

>  <ION MODE>  (628) 
P

>  <INCHIKEY>  (628) 
ZSGVKLDFLDCXII-UHFFFAOYSA-N

>  <FORMULA>  (628) 
C15H17N3O3

>  <EXACT MASS>  (628) 
287.126991404

>  <MW>  (628) 
287

>  <ID>  (628) 
JP011167

>  <CONTRIBUTOR>  (628) 
University of Tokyo Team, {Faculty of Engineering, University of Tokyo

>  <COMMENT>  (628) 
SMILES=CCN(C(=O)1)C(=O)N(c32)C(CC(=O)c(cccc3)2)N(CC)1
InChI=InChI=1S/C15H17N3O3/c1-3-16-13-9-12(19)10-7-5-6-8-11(10)18(13)15(21)17(4-2)14(16)20/h5-8,13H,3-4,9H2,1-2H3
computed SMILES=O=C1C=2C=CC=CC2N3C(=O)N(C(=O)N(CC)C3C1)CC
accession=JP011167
date=2016.01.19 (Created 2008.10.21, modified 2011.05.06)
author=SAWADA M, THE INST. OF SCIENTIFIC AND INDUSTRIALRESEARCH OSAKA UNIV.
license=CC BY-NC-SA
exact mass=287.12699
ionization energy=70 eV
ion type=[M]+*
computed spectral entropy=4.139261168567282
computed normalized entropy=0.8616242789163541
SPLASH=splash10-000b-9740000000-1bee785e235dd8e1e03d
submitter=submitter = University of Tokyo Team (Faculty of Engineering, University of Tokyo)
MoNA Rating=3.75

>  <NUM PEAKS>  (628) 
122

>  <MASS SPECTRAL PEAKS>  (628) 
34 1
38 2.9
39 13.9
40 10.7
41 7.3
42 12.8
43 15.7
44 17.2
45 5.1
46 5.6
47 1.9
50 4.9
51 9
52 3.6
53 2.4
54 2.6
55 12.9
56 31.1
57 8.8
58 2.7
59 1.1
60 3
61 2.6
62 2
63 9.7
64 10.9
65 20.1
66 4.9
67 1.5
68 1.5
69 4.1
70 16.6
71 3.7
72 4.2
73 4.9
74 5.6
75 2.9
76 11.9
77 25.5
78 4.8
79 3.2
80 1.3
83 5.7
84 1
85 1.1
87 5.2
88 1.5
89 14.3
90 47.8
91 15.4
92 10.9
93 29.6
94 3.2
97 2.1
98 1.2
99 1
101 5.8
102 1.9
103 4.7
104 10.2
105 5.1
106 12.6
107 1.6
115 1.9
116 15.3
117 29.9
118 18.7
119 8.7
120 3.6
123 4.5
124 4.9
126 1
127 1.4
128 1.7
129 1.7
130 8.7
131 2.8
132 7.3
133 9.2
134 2.2
135 2.7
136 1.2
143 1.1
144 11
145 84.3
146 61.6
147 10.4
148 1.1
149 1.5
155 2.8
157 18.4
158 3
159 2.8
160 2.6
161 5.4
162 1.8
173 5.7
174 3.3
175 1.2
187 5.1
188 5.1
189 2.7
201 11
202 2
215 6.2
216 7.3
217 4.2
218 1
230 1.7
244 7.2
245 5.8
246 1
249 22.9
250 4.3
251 1.3
258 11.4
259 4.9
260 1.7
272 1.7
286 10.2
287 99.99
288 26.7

>  <PREDICTED SPECTRUM>  (628) 
26 4
28 4
29 10
33 52
34 35
36 34
37 99
38 191
39 407
40 279
41 363
42 272
43 290
44 429
45 130
49 28
50 299
51 364
52 248
53 246
54 171
55 321
56 392
57 237
58 158
59 75
60 33
61 134
62 231
63 427
64 385
65 318
66 187
67 140
68 163
69 239
70 261
71 137
72 118
73 163
74 164
75 226
76 345
77 516
78 319
79 147
80 57
81 39
82 69
83 161
84 117
85 95
86 74
87 116
88 258
89 447
90 620
91 467
92 357
93 223
94 58
95 36
96 34
97 85
98 127
99 120
100 94
101 144
102 225
103 259
104 396
105 357
106 173
107 42
111 58
112 47
113 47
114 79
115 141
116 365
117 448
118 393
119 378
120 135
121 7
125 105
126 88
127 117
128 68
129 181
130 251
131 220
132 472
133 236
134 80
135 31
139 9
140 24
141 10
142 63
143 79
144 418
145 891
146 824
147 252
148 54
149 24
150 15
154 97
155 80
156 37
157 193
158 132
159 220
160 207
161 170
162 150
171 38
172 183
173 173
174 190
175 67
176 24
183 25
185 27
186 54
187 228
188 190
189 114
190 4
199 3
200 64
201 203
202 190
203 65
214 24
215 136
216 252
217 142
218 68
229 52
230 149
231 78
243 121
244 239
245 187
246 62
258 231
259 249
260 103
272 188
273 81
285 71
286 293
287 999
288 459
289 115
290 30

$$$$

     RDKit          2D

 19 21  0  0  0  0  0  0  0  0999 V2000
   -2.1300   -3.8000    0.0000 C   0  0  0  0  0  0  0  0  0  0  0  0
   -4.7289    0.7002    0.0000 C   0  0  0  0  0  0  0  0  0  0  0  0
    3.0600    2.2000    0.0000 C   0  0  0  0  0  0  0  0  0  0  0  0
    1.7600    2.9500    0.0000 C   0  0  0  0  0  0  0  0  0  0  0  0
    3.0600    0.7000    0.0000 C   0  0  0  0  0  0  0  0  0  0  0  0
    0.4600    2.2000    0.0000 C   0  0  0  0  0  0  0  0  0  0  0  0
    0.4600   -2.3000    0.0000 C   0  0  0  0  0  0  0  0  0  0  0  0
    1.7600   -0.0500    0.0000 C   0  0  0  0  0  0  0  0  0  0  0  0
    0.4600    0.7000    0.0000 C   0  0  0  0  0  0  0  0  0  0  0  0
    1.7600   -1.5500    0.0000 C   0  0  0  0  0  0  0  0  0  0  0  0
   -0.8300   -1.5500    0.0000 C   0  0  0  0  0  0  0  0  0  0  0  0
   -3.4300   -1.5500    0.0000 C   0  0  0  0  0  0  0  0  0  0  0  0
   -2.1300    0.7000    0.0000 C   0  0  0  0  0  0  0  0  0  0  0  0
   -2.1300   -2.3000    0.0000 N   0  0  0  0  0  0  0  0  0  0  0  0
   -3.4300   -0.0500    0.0000 N   0  0  0  0  0  0  0  0  0  0  0  0
   -0.8300   -0.0500    0.0000 N   0  0  0  0  0  0  0  0  0  0  0  0
    3.0589   -2.3002    0.0000 O   0  0  0  0  0  0  0  0  0  0  0  0
   -4.7289   -2.3002    0.0000 O   0  0  0  0  0  0  0  0  0  0  0  0
   -2.1300    2.2000    0.0000 O   0  0  0  0  0  0  0  0  0  0  0  0
  4  3  2  0
  5  3  1  0
  6  4  1  0
  8  5  2  0
  9  6  2  0
  9  8  1  0
 10  7  1  0
 10  8  1  0
 11  7  2  0
 14  1  1  0
 14 11  1  0
 14 12  1  0
 15  2  1  0
 15 12  1  0
 15 13  1  0
 16  9  1  0
 16 11  1  0
 16 13  1  0
 17 10  2  0
 18 12  2  0
 19 13  2  0
M  END
>  <NAME>  (629) 
2,4-DIMETHYL-1H-(1,3,5)TRIAZINO(1,2-A)QUINOLINE-1,3,6(2H,4H)-TRIONE

>  <SYNONYMS>  (629) 


>  <SPECTRUM TYPE>  (629) 
MS1

>  <INSTRUMENT TYPE>  (629) 
EI-B

>  <INSTRUMENT>  (629) 
JEOL JMS-DX-300

>  <ION MODE>  (629) 
P

>  <INCHIKEY>  (629) 
SOSVIGDJLBZSBE-UHFFFAOYSA-N

>  <FORMULA>  (629) 
C13H11N3O3

>  <EXACT MASS>  (629) 
257.08004121199997

>  <MW>  (629) 
257

>  <ID>  (629) 
JP011166

>  <CONTRIBUTOR>  (629) 
University of Tokyo Team, {Faculty of Engineering, University of Tokyo

>  <COMMENT>  (629) 
SMILES=O=C(C=1)c(c3)c(ccc3)N(C(=O)2)C1N(C)C(=O)N(C)2
InChI=InChI=1S/C13H11N3O3/c1-14-11-7-10(17)8-5-3-4-6-9(8)16(11)13(19)15(2)12(14)18/h3-7H,1-2H3
computed SMILES=O=C1C=C2N(C(=O)N(C(=O)N2C)C)C=3C=CC=CC13
accession=JP011166
date=2016.01.19 (Created 2008.10.21, modified 2011.05.06)
author=SAWADA M, THE INST. OF SCIENTIFIC AND INDUSTRIALRESEARCH OSAKA UNIV.
license=CC BY-NC-SA
exact mass=257.08004
ionization energy=70 eV
ion type=[M]+*
computed spectral entropy=3.4856756991562117
computed normalized entropy=0.8000708419627788
SPLASH=splash10-0ab9-7960000000-4022e34b421a2c271cdc
submitter=submitter = University of Tokyo Team (Faculty of Engineering, University of Tokyo)
MoNA Rating=3.75

>  <NUM PEAKS>  (629) 
78

>  <MASS SPECTRAL PEAKS>  (629) 
38 1.2
39 3.9
40 6.9
41 3.6
42 2.5
43 5.8
44 27.2
45 1.4
50 3.8
51 2.7
52 1.7
53 1.5
54 1.7
55 4
56 4.6
57 5.8
58 1.2
61 1.7
62 2.5
63 5
64 3.4
65 1.8
67 1.6
68 1.3
69 2.8
70 2.2
71 1.8
74 1.6
75 3.3
76 6.8
77 3
81 1.6
82 12.4
83 2.3
84 1
85 1.1
86 3
87 1.2
88 16.3
89 5.4
90 10
91 1.9
92 1.2
95 1.2
97 1.2
100 1.2
102 3.4
103 3.8
104 1.7
105 1.9
114 6.3
115 27.2
116 4
117 2.5
118 1.5
119 2.4
129 2.7
130 1.2
131 3.9
143 27
144 5.5
145 2.3
146 23.3
147 2.7
149 1.3
157 6
158 1
159 1.3
171 20
172 59.8
173 8.2
199 1.2
200 37.2
201 5.8
229 4.8
257 99.99
258 20.8
259 2.8

>  <PREDICTED SPECTRUM>  (629) 
33 33
37 31
38 87
39 183
40 122
41 134
42 244
43 108
44 182
50 190
51 208
52 169
53 170
54 102
55 150
56 214
57 117
58 261
61 70
62 151
63 270
64 195
65 157
66 125
67 126
68 107
69 97
70 94
71 88
72 38
74 126
75 216
76 181
77 223
78 124
80 80
81 24
82 117
83 86
84 38
85 111
86 152
87 119
88 100
89 245
90 228
91 233
92 148
93 98
98 42
99 37
100 82
101 80
102 224
103 254
104 227
105 123
111 0
112 11
114 128
115 277
116 244
117 213
118 178
119 159
120 13
121 61
122 18
128 47
129 130
130 126
131 142
132 56
140 6
141 14
142 50
143 329
144 365
145 395
146 255
147 103
156 34
157 167
158 16
159 23
171 292
172 999
173 294
174 133
185 54
199 87
200 516
201 181
228 70
229 163
230 25
257 966
258 406
259 102

$$$$

     RDKit          2D

 19 21  0  0  0  0  0  0  0  0999 V2000
   -2.1300   -3.8000    0.0000 C   0  0  0  0  0  0  0  0  0  0  0  0
   -4.7289    0.7002    0.0000 C   0  0  0  0  0  0  0  0  0  0  0  0
    3.0600    2.2000    0.0000 C   0  0  0  0  0  0  0  0  0  0  0  0
    1.7600    2.9500    0.0000 C   0  0  0  0  0  0  0  0  0  0  0  0
    3.0600    0.7000    0.0000 C   0  0  0  0  0  0  0  0  0  0  0  0
    0.4600    2.2000    0.0000 C   0  0  0  0  0  0  0  0  0  0  0  0
    0.4600   -2.3000    0.0000 C   0  0  0  0  0  0  0  0  0  0  0  0
    1.7600   -0.0500    0.0000 C   0  0  0  0  0  0  0  0  0  0  0  0
    0.4600    0.7000    0.0000 C   0  0  0  0  0  0  0  0  0  0  0  0
    1.7600   -1.5500    0.0000 C   0  0  0  0  0  0  0  0  0  0  0  0
   -0.8300   -1.5500    0.0000 C   0  0  0  0  0  0  0  0  0  0  0  0
   -3.4300   -1.5500    0.0000 C   0  0  0  0  0  0  0  0  0  0  0  0
   -2.1300    0.7000    0.0000 C   0  0  0  0  0  0  0  0  0  0  0  0
   -2.1300   -2.3000    0.0000 N   0  0  0  0  0  0  0  0  0  0  0  0
   -3.4300   -0.0500    0.0000 N   0  0  0  0  0  0  0  0  0  0  0  0
   -0.8300   -0.0500    0.0000 N   0  0  0  0  0  0  0  0  0  0  0  0
    3.0589   -2.3002    0.0000 O   0  0  0  0  0  0  0  0  0  0  0  0
   -4.7289   -2.3002    0.0000 O   0  0  0  0  0  0  0  0  0  0  0  0
   -2.1300    2.2000    0.0000 O   0  0  0  0  0  0  0  0  0  0  0  0
  4  3  2  0
  5  3  1  0
  6  4  1  0
  8  5  2  0
  9  6  2  0
  9  8  1  0
 10  7  1  0
 10  8  1  0
 11  7  1  0
 14  1  1  0
 14 11  1  0
 14 12  1  0
 15  2  1  0
 15 12  1  0
 15 13  1  0
 16  9  1  0
 16 11  1  0
 16 13  1  0
 17 10  2  0
 18 12  2  0
 19 13  2  0
M  END
>  <NAME>  (630) 
2,4-DIMETHYL-4,4A-DIHYDRO-1H-(1,3,5)TRIAZINO(1,2-A)QUINOLINE-1,3,6(2H,5H)-TRIONE

>  <SYNONYMS>  (630) 


>  <SPECTRUM TYPE>  (630) 
MS1

>  <INSTRUMENT TYPE>  (630) 
EI-B

>  <INSTRUMENT>  (630) 
JEOL JMS-DX-300

>  <ION MODE>  (630) 
P

>  <INCHIKEY>  (630) 
QZQGHWFEIUGPCM-UHFFFAOYSA-N

>  <FORMULA>  (630) 
C13H13N3O3

>  <EXACT MASS>  (630) 
259.095691276

>  <MW>  (630) 
259

>  <ID>  (630) 
JP011165

>  <CONTRIBUTOR>  (630) 
University of Tokyo Team, {Faculty of Engineering, University of Tokyo

>  <COMMENT>  (630) 
SMILES=O=C(C1)c(c3)c(ccc3)N(C(=O)2)C1N(C)C(=O)N(C)2
InChI=InChI=1S/C13H13N3O3/c1-14-11-7-10(17)8-5-3-4-6-9(8)16(11)13(19)15(2)12(14)18/h3-6,11H,7H2,1-2H3
computed SMILES=O=C1C=2C=CC=CC2N3C(=O)N(C(=O)N(C)C3C1)C
accession=JP011165
date=2016.01.19 (Created 2008.10.21, modified 2011.05.06)
author=SAWADA M, THE INST. OF SCIENTIFIC AND INDUSTRIALRESEARCH OSAKA UNIV.
license=CC BY-NC-SA
exact mass=259.09569
ionization energy=70 eV
ion type=[M]+*
computed spectral entropy=3.592961111946416
computed normalized entropy=0.8222917936685763
SPLASH=splash10-0a4m-9760000000-1550e28a7295750addd4
submitter=submitter = University of Tokyo Team (Faculty of Engineering, University of Tokyo)
MoNA Rating=3.75

>  <NUM PEAKS>  (630) 
79

>  <MASS SPECTRAL PEAKS>  (630) 
38 1.3
39 4.8
40 17.2
41 5
42 22.1
43 7.9
44 34.4
45 1.7
50 3.8
51 3.7
52 1.8
53 1
54 1.8
55 4.7
56 8.4
57 8.3
58 6
59 2
61 3.1
62 1.7
63 5.9
64 5.9
65 2.1
67 1.3
69 2.8
70 2.2
71 1.7
72 1
74 1.1
75 2.5
76 9.3
77 7.9
78 2.1
81 1.3
82 1.3
83 1.7
84 1.5
88 1.1
89 10.4
90 30.3
91 7.5
92 3.1
95 1.4
102 1
103 3.2
104 4.1
105 3.8
113 1.2
116 8.1
117 18.8
118 10.8
119 5.8
120 1
127 2.2
131 2.6
132 8.6
133 4
144 6.2
145 69.8
146 30.8
147 3.9
148 6.7
149 2.5
159 7.1
160 2.5
161 4
173 1.6
174 2.8
175 1.2
201 4.6
202 3.8
216 5.9
217 3.4
230 7.3
231 1.8
244 3
258 16.3
259 99.99
260 20.3

>  <PREDICTED SPECTRUM>  (630) 
33 46
34 17
37 35
38 88
39 244
40 221
41 157
42 332
43 146
44 379
45 137
48 17
50 173
51 199
52 63
53 64
54 109
55 187
56 238
57 183
58 132
59 13
61 63
62 143
63 296
64 256
65 186
66 103
67 91
68 162
69 196
70 221
71 85
72 97
73 98
74 97
75 178
76 255
77 292
78 183
79 106
80 46
81 60
82 94
83 218
84 69
85 46
86 26
87 44
88 91
89 385
90 563
91 360
92 214
93 53
97 72
98 98
99 58
100 30
101 23
102 109
103 183
104 293
105 240
106 104
107 70
114 10
115 13
116 258
117 412
118 546
119 250
120 100
121 13
122 12
126 33
127 0
129 53
130 63
131 250
132 240
133 258
144 343
145 769
146 560
147 245
148 87
158 29
159 219
160 196
161 139
172 85
173 171
174 182
175 129
186 5
187 89
188 33
189 21
200 1
201 107
202 253
203 80
215 56
216 168
217 176
218 99
219 13
230 305
231 173
232 43
243 13
244 145
245 73
257 63
258 417
259 999
260 464
261 57
262 23

$$$$

     RDKit          2D

 11 12  0  0  0  0  0  0  0  0999 V2000
   -2.6000    0.7500    0.0000 C   0  0  0  0  0  0  0  0  0  0  0  0
   -2.6000   -0.7500    0.0000 C   0  0  0  0  0  0  0  0  0  0  0  0
   -1.3000    1.5000    0.0000 C   0  0  0  0  0  0  0  0  0  0  0  0
   -1.3000   -1.5000    0.0000 C   0  0  0  0  0  0  0  0  0  0  0  0
    2.6000    0.7500    0.0000 C   0  0  0  0  0  0  0  0  0  0  0  0
    2.6000   -0.7500    0.0000 C   0  0  0  0  0  0  0  0  0  0  0  0
   -0.0000    0.7500    0.0000 C   0  0  0  0  0  0  0  0  0  0  0  0
   -0.0000   -0.7500    0.0000 C   0  0  0  0  0  0  0  0  0  0  0  0
    1.3000    1.5000    0.0000 C   0  0  0  0  0  0  0  0  0  0  0  0
    1.3000   -1.5000    0.0000 N   0  0  0  0  0  0  0  0  0  0  0  0
    1.3000    3.0000    0.0000 O   0  0  0  0  0  0  0  0  0  0  0  0
  2  1  2  0
  3  1  1  0
  4  2  1  0
  6  5  2  0
  7  3  2  0
  8  4  2  0
  8  7  1  0
  9  5  1  0
  9  7  1  0
 10  6  1  0
 10  8  1  0
 11  9  2  0
M  END
>  <NAME>  (631) 
4-QUINOLINONE

>  <SYNONYMS>  (631) 


>  <SPECTRUM TYPE>  (631) 
MS1

>  <INSTRUMENT TYPE>  (631) 
EI-B

>  <INSTRUMENT>  (631) 
JEOL JMS-DX-300

>  <ION MODE>  (631) 
P

>  <INCHIKEY>  (631) 
PMZDQRJGMBOQBF-UHFFFAOYSA-N

>  <FORMULA>  (631) 
C9H7NO

>  <EXACT MASS>  (631) 
145.052763844

>  <MW>  (631) 
145

>  <ID>  (631) 
JP011164

>  <CONTRIBUTOR>  (631) 
University of Tokyo Team, {Faculty of Engineering, University of Tokyo

>  <COMMENT>  (631) 
SMILES=O=C(C=1)c(c2)c(ccc2)NC1
InChI=InChI=1S/C9H7NO/c11-9-5-6-10-8-4-2-1-3-7(8)9/h1-6H,(H,10,11)
computed SMILES=O=C1C=CNC=2C=CC=CC12
accession=JP011164
date=2016.01.19 (Created 2008.10.21, modified 2011.05.06)
author=SAWADA M, THE INST. OF SCIENTIFIC AND INDUSTRIALRESEARCH OSAKA UNIV.
license=CC BY-NC-SA
exact mass=145.05276
ionization energy=70 eV
ion type=[M]+*
computed spectral entropy=3.4409356696247233
computed normalized entropy=0.7994618099660551
SPLASH=splash10-00ke-9500000000-7eaa976076b44037ed38
submitter=submitter = University of Tokyo Team (Faculty of Engineering, University of Tokyo)
MoNA Rating=3.75

>  <NUM PEAKS>  (631) 
74

>  <MASS SPECTRAL PEAKS>  (631) 
37 4.4
38 7.8
39 15
40 9.8
41 6.8
42 2.2
43 4.4
44 58.4
45 3
46 1.6
49 1.2
50 12.9
51 9.9
52 7.2
53 5.2
54 1.8
55 4
56 1.6
57 3.8
58 2.2
59 20.6
60 1.1
61 4.7
62 10.9
63 29.2
64 17.6
65 6.2
66 1.7
67 2.1
68 2.4
69 4.9
70 1.7
71 2
73 4.1
74 7.8
75 6.6
76 7
77 10.3
78 4.5
81 2.6
82 1.4
83 2
84 1.2
85 1.9
86 1.8
87 3
88 4.4
89 51
90 60.1
91 10.2
92 10.4
93 2
95 1.7
96 1.1
97 1.7
98 1.4
99 1
101 1.2
102 1.2
103 1
104 6.1
105 4.6
111 1
114 1.2
115 2
116 24.1
117 85.7
118 16.3
119 3.1
121 1.1
144 11
145 99.99
146 27.1
147 2.2

>  <PREDICTED SPECTRUM>  (631) 
25 5
26 18
27 5
28 82
36 5
37 125
38 193
39 201
40 86
41 54
49 96
50 251
51 276
52 227
57 23
61 140
62 244
63 372
64 227
65 128
66 72
67 14
68 83
70 7
74 106
75 111
76 188
77 128
78 99
79 3
85 3
86 94
87 86
88 159
89 517
90 489
91 141
115 111
116 268
117 999
118 399
119 72
144 162
145 995
146 353
147 67

$$$$

     RDKit          2D

  7  7  0  0  0  0  0  0  0  0999 V2000
    1.3000    0.7500    0.0000 C   0  0  0  0  0  0  0  0  0  0  0  0
   -1.3000    0.7500    0.0000 C   0  0  0  0  0  0  0  0  0  0  0  0
    1.3000    2.2500    0.0000 C   0  0  0  0  0  0  0  0  0  0  0  0
   -1.3000    2.2500    0.0000 C   0  0  0  0  0  0  0  0  0  0  0  0
   -0.0000    0.0000    0.0000 C   0  0  0  0  0  0  0  0  0  0  0  0
    0.0000    3.0000    0.0000 N   0  0  0  0  0  0  0  0  0  0  0  0
   -0.0000   -1.5000    0.0000 O   0  0  0  0  0  0  0  0  0  0  0  0
  3  1  2  0
  4  2  1  0
  5  1  1  0
  5  2  1  0
  6  3  1  0
  6  4  2  0
  7  5  2  0
M  END
>  <NAME>  (632) 
4-PYRIDINONE

>  <SYNONYMS>  (632) 


>  <SPECTRUM TYPE>  (632) 
MS1

>  <INSTRUMENT TYPE>  (632) 
EI-B

>  <INSTRUMENT>  (632) 
JEOL JMS-DX-300

>  <ION MODE>  (632) 
P

>  <INCHIKEY>  (632) 
MPOYBFYHRQBZPM-UHFFFAOYSA-N

>  <FORMULA>  (632) 
C5H5NO

>  <EXACT MASS>  (632) 
95.03711378

>  <MW>  (632) 
95

>  <ID>  (632) 
JP011162

>  <CONTRIBUTOR>  (632) 
University of Tokyo Team, {Faculty of Engineering, University of Tokyo

>  <COMMENT>  (632) 
SMILES=O=C(C1)C=CN=C1
InChI=InChI=1S/C5H5NO/c7-5-1-3-6-4-2-5/h1,3-4H,2H2
computed SMILES=O=C1C=CN=CC1
accession=JP011162
date=2016.01.19 (Created 2008.10.21, modified 2011.05.06)
author=SAWADA M, THE INST. OF SCIENTIFIC AND INDUSTRIALRESEARCH OSAKA UNIV.
license=CC BY-NC-SA
exact mass=95.03711
ionization energy=70 eV
ion type=[M]+*
computed spectral entropy=2.7157053674631038
computed normalized entropy=0.7908315336516423
SPLASH=splash10-0002-9000000000-a5770552d65d4a5284ef
submitter=submitter = University of Tokyo Team (Faculty of Engineering, University of Tokyo)
MoNA Rating=3.75

>  <NUM PEAKS>  (632) 
31

>  <MASS SPECTRAL PEAKS>  (632) 
25 1.3
26 7.5
27 5.2
29 6.8
37 5.2
38 9.5
39 27.2
40 21
41 24.5
42 7.4
43 2.7
44 7.9
48 1.1
49 2.2
50 7
51 6.8
52 4.3
53 7
54 1.6
55 7.1
64 1
65 1
66 6
67 24.5
68 23.7
69 3
76 1.8
78 1
94 4.7
95 99.99
96 6.8

>  <PREDICTED SPECTRUM>  (632) 
14 29
25 79
26 213
27 312
28 255
29 112
36 70
37 238
38 365
39 647
40 471
41 468
42 277
43 7
44 112
47 21
48 29
49 124
50 284
51 241
52 294
53 175
54 210
55 154
56 85
64 123
65 78
66 398
67 797
68 400
69 83
76 86
77 11
78 14
79 5
94 245
95 999
96 259

$$$$

     RDKit          2D

 19 20  0  0  0  0  0  0  0  0999 V2000
    3.8884    2.5492    0.0000 C   0  0  0  0  0  0  0  0  0  0  0  0
    3.8888    4.0501    0.0000 C   0  0  0  0  0  0  0  0  0  0  0  0
    2.5888    1.7984    0.0000 C   0  0  0  0  0  0  0  0  0  0  0  0
   -5.1900    1.8241    0.0000 C   0  0  0  0  0  0  0  0  0  0  0  0
   -6.4686    2.5592    0.0000 C   0  0  0  0  0  0  0  0  0  0  0  0
    2.5898    4.8001    0.0000 C   0  0  0  0  0  0  0  0  0  0  0  0
    1.2898    2.5484    0.0000 C   0  0  0  0  0  0  0  0  0  0  0  0
   -3.9086    2.5691    0.0000 C   0  0  0  0  0  0  0  0  0  0  0  0
   -6.4962    4.0590    0.0000 C   0  0  0  0  0  0  0  0  0  0  0  0
   -2.6068    4.7992    0.0000 C   0  0  0  0  0  0  0  0  0  0  0  0
    1.2903    4.0492    0.0000 C   0  0  0  0  0  0  0  0  0  0  0  0
   -3.9059    4.0492    0.0000 C   0  0  0  0  0  0  0  0  0  0  0  0
   -5.1845    4.7843    0.0000 C   0  0  0  0  0  0  0  0  0  0  0  0
   -0.0087    4.7992    0.0000 C   0  0  0  0  0  0  0  0  0  0  0  0
   -5.1721    6.2843    0.0000 N   0  0  0  0  0  0  0  0  0  0  0  0
   -0.0087    6.2992    0.0000 O   0  0  0  0  0  0  0  0  0  0  0  0
   -6.4649    7.0450    0.0000 O   0  0  0  0  0  0  0  0  0  0  0  0
   -3.8669    7.0235    0.0000 O   0  0  0  0  0  0  0  0  0  0  0  0
   -1.3078    4.0492    0.0000 O   0  0  0  0  0  0  0  0  0  0  0  0
  2  1  2  0
  3  1  1  0
  5  4  2  0
  6  2  1  0
  7  3  2  0
  8  4  1  0
  9  5  1  0
 11  6  2  0
 11  7  1  0
 12  8  2  0
 12 10  1  0
 13  9  2  0
 13 12  1  0
 14 11  1  0
 15 13  1  0
 16 14  2  0
 17 15  1  0
 18 15  2  0
 19 10  1  0
 19 14  1  0
M  CHG  2  15   1  17  -1
M  END
>  <NAME>  (633) 
2-NITROBENZYL BENZOATE

>  <SYNONYMS>  (633) 


>  <SPECTRUM TYPE>  (633) 
MS1

>  <INSTRUMENT TYPE>  (633) 
EI-B

>  <INSTRUMENT>  (633) 
JEOL JMS-DX-300

>  <ION MODE>  (633) 
P

>  <INCHIKEY>  (633) 
IFNWVKHDWYPTRH-UHFFFAOYSA-N

>  <FORMULA>  (633) 
C14H11NO4

>  <EXACT MASS>  (633) 
257.068807832

>  <MW>  (633) 
257

>  <ID>  (633) 
JP011161

>  <CONTRIBUTOR>  (633) 
University of Tokyo Team, {Faculty of Engineering, University of Tokyo

>  <COMMENT>  (633) 
SMILES=[O-1][N+1](=O)c(c2)c(ccc2)COC(=O)c(c1)cccc1
InChI=InChI=1S/C14H11NO4/c16-14(11-6-2-1-3-7-11)19-10-12-8-4-5-9-13(12)15(17)18/h1-9H,10H2
computed SMILES=O=C(OCC=1C=CC=CC1N(=O)=O)C=2C=CC=CC2
accession=JP011161
date=2016.01.19 (Created 2008.10.21, modified 2011.05.06)
author=SAWADA M, THE INST. OF SCIENTIFIC AND INDUSTRIALRESEARCH OSAKA UNIV.
license=CC BY-NC-SA
exact mass=257.06881
ionization energy=70 eV
ion type=[M]+*
computed spectral entropy=3.708155220589881
computed normalized entropy=0.8220507012538741
SPLASH=splash10-06vi-9420000000-d15f9a1e25d0dbab3c05
submitter=submitter = University of Tokyo Team (Faculty of Engineering, University of Tokyo)
MoNA Rating=3.75

>  <NUM PEAKS>  (633) 
91

>  <MASS SPECTRAL PEAKS>  (633) 
37 1.8
38 6.2
39 28.8
40 11.6
41 8.6
42 2.8
43 7.9
44 27
45 2.4
49 1.2
50 37.2
51 55.4
52 32.9
53 6.8
54 1.7
55 9.9
56 9.1
57 10.9
60 2
61 2.1
62 7.1
63 27.5
64 22.8
65 22.1
66 4.7
67 1.7
68 1.6
69 5.8
70 6.9
71 5.6
73 2.4
74 9.4
75 11.2
76 35.1
77 77.1
78 63.3
79 53.9
80 5.5
81 1.9
82 1.2
83 3.9
84 2.6
85 2.2
86 1.6
87 1.8
89 31.4
90 11
91 54.8
92 17.7
93 6.9
94 2
95 1
97 1.7
98 2.7
103 1.6
104 14
105 91.8
106 69.1
107 15.1
108 1.8
111 1.2
112 1.3
113 1.1
115 1
116 1.1
119 4.6
120 1.7
121 6.7
122 22.9
123 3.3
134 1.4
135 84.9
136 38.4
137 5.1
139 1.6
149 3.6
151 1.1
152 3.5
153 1.3
165 3.1
166 1.7
167 4
181 1.2
211 99.99
212 51.8
213 6.5
227 2
249 1.1
256 1.1
257 14.1
258 3

>  <PREDICTED SPECTRUM>  (633) 
16 7
26 58
27 96
28 46
29 46
30 112
36 25
37 112
38 212
39 403
40 148
41 125
42 34
43 4
44 213
45 122
46 138
49 81
50 473
51 692
52 380
53 268
54 55
55 15
57 3
58 8
61 94
62 271
63 504
64 350
65 495
66 239
67 117
68 40
69 38
70 33
74 245
75 227
76 399
77 999
78 683
79 493
80 157
81 158
82 71
83 47
86 78
87 16
89 527
90 439
91 470
92 342
93 73
94 210
95 75
96 51
97 9
99 26
102 87
103 94
104 239
105 885
106 432
107 275
108 131
109 34
115 15
117 10
119 93
120 240
121 186
122 296
123 214
127 115
128 85
132 23
133 29
134 110
135 834
136 694
137 249
147 5
152 221
153 192
154 43
164 1
165 124
166 126
167 168
169 13
179 14
181 19
182 65
183 65
184 65
195 7
210 62
211 979
212 545
213 244
257 162
258 52

$$$$

     RDKit          2D

 11 11  0  0  1  0  0  0  0  0999 V2000
   -3.5021   -0.3312    0.0000 C   0  0  0  0  0  0  0  0  0  0  0  0
    2.7765    1.2491    0.0000 C   0  0  0  0  0  0  0  0  0  0  0  0
    1.2824    1.1160    0.0000 C   0  0  0  0  0  0  0  0  0  0  0  0
    0.2927    2.2417    0.0000 C   0  0  0  0  0  0  0  0  0  0  0  0
   -1.0818    1.6612    0.0000 C   0  0  0  0  0  0  0  0  0  0  0  0
   -0.9520    0.1660    0.0000 C   0  0  0  0  0  0  0  0  0  0  0  0
    3.6388    0.0217    0.0000 O   0  0  0  0  0  0  0  0  0  0  0  0
    0.6272    3.7039    0.0000 O   0  0  0  0  0  0  0  0  0  0  0  0
   -2.3666    2.4353    0.0000 O   0  0  0  0  0  0  0  0  0  0  0  0
   -2.0835   -0.8188    0.0000 O   0  0  0  0  0  0  0  0  0  0  0  0
    0.5064   -0.1680    0.0000 O   0  0  0  0  0  0  0  0  0  0  0  0
  3  2  1  1
  4  3  1  0
  5  4  1  0
  6  5  1  0
  7  2  1  0
  4  8  1  6
  5  9  1  6
 10  1  1  0
  6 10  1  1
 11  3  1  0
 11  6  1  0
M  END
>  <NAME>  (634) 
METHYL BETA-D-RIBOFURANOSIDE

>  <SYNONYMS>  (634) 


>  <SPECTRUM TYPE>  (634) 
MS1

>  <INSTRUMENT TYPE>  (634) 
EI-B

>  <INSTRUMENT>  (634) 
JEOL JMS-DX-300

>  <ION MODE>  (634) 
P

>  <INCHIKEY>  (634) 
NALRCAPFICWVAQ-KVTDHHQDSA-N

>  <FORMULA>  (634) 
C6H12O5

>  <EXACT MASS>  (634) 
164.06847348399998

>  <MW>  (634) 
164

>  <ID>  (634) 
JP011153

>  <CONTRIBUTOR>  (634) 
University of Tokyo Team, {Faculty of Engineering, University of Tokyo

>  <COMMENT>  (634) 
SMILES=OCC(O1)C(O)C(O)C(OC)1
InChI=InChI=1S/C6H12O5/c1-10-6-5(9)4(8)3(2-7)11-6/h3-9H,2H2,1H3/t3-,4-,5-,6-/m1/s1
computed SMILES=OCC1OC(OC)C(O)C1O
accession=JP011153
date=2016.01.19 (Created 2008.10.21, modified 2011.05.06)
author=SAWADA M, THE INST. OF SCIENTIFIC AND INDUSTRIALRESEARCH OSAKA UNIV.
license=CC BY-NC-SA
exact mass=164.06847
ionization energy=70 eV
ion type=[M]+*
computed spectral entropy=3.071708985151734
computed normalized entropy=0.821824639108286
SPLASH=splash10-00di-9100000000-6d33226606549e07d13e
submitter=submitter = University of Tokyo Team (Faculty of Engineering, University of Tokyo)
MoNA Rating=3.75

>  <NUM PEAKS>  (634) 
42

>  <MASS SPECTRAL PEAKS>  (634) 
27 7.7
30 2.6
33 10.4
39 2.3
40 2.9
41 5.2
42 5.7
43 16.8
44 6.1
45 49.9
46 1.2
47 1.4
54 2.2
55 9
56 4
57 43.8
58 11.9
59 7
60 11.5
61 24.3
68 8.9
69 4.1
71 8.4
72 3.3
73 99.99
74 13.6
75 24
76 1
83 1.6
85 9.5
86 17.7
87 15.1
88 1.2
101 1.8
103 2.6
104 7.6
105 4.3
115 4.8
116 1.4
117 2.6
133 34.7
134 2

>  <PREDICTED SPECTRUM>  (634) 
15 17
18 9
19 8
26 9
27 69
28 6
29 88
30 16
31 174
32 59
33 71
39 42
40 2
41 301
42 267
43 495
44 361
45 631
46 106
47 133
52 0
53 80
54 57
55 302
56 217
57 658
58 271
59 292
60 621
61 518
62 24
68 113
69 183
70 62
71 375
72 169
73 999
74 483
75 199
83 49
85 215
86 276
87 246
89 22
90 12
91 49
97 2
101 104
102 32
103 170
104 179
105 57
114 8
115 264
116 128
132 41
133 299
146 15
164 56
165 11

$$$$

     RDKit          2D

 13 13  0  0  1  0  0  0  0  0999 V2000
   -2.6111   -0.4888    0.0000 C   0  0  0  0  0  0  0  0  0  0  0  0
    3.9059   -1.2300    0.0000 C   0  0  0  0  0  0  0  0  0  0  0  0
    2.6070   -0.4798    0.0000 C   0  0  0  0  0  0  0  0  0  0  0  0
    2.6070    1.0102    0.0000 C   0  0  0  0  0  0  0  0  0  0  0  0
    1.3070    1.7702    0.0000 C   0  0  0  0  0  0  0  0  0  0  0  0
   -0.0130    1.0102    0.0000 C   0  0  0  0  0  0  0  0  0  0  0  0
   -0.0130   -0.4798    0.0000 C   0  0  0  0  0  0  0  0  0  0  0  0
    3.9057   -2.7300    0.0000 O   0  0  0  0  0  0  0  0  0  0  0  0
    3.9081    1.7567    0.0000 O   0  0  0  0  0  0  0  0  0  0  0  0
    1.3120    3.2702    0.0000 O   0  0  0  0  0  0  0  0  0  0  0  0
   -1.3116    1.7610    0.0000 O   0  0  0  0  0  0  0  0  0  0  0  0
   -1.3095   -1.2343    0.0000 O   0  0  0  0  0  0  0  0  0  0  0  0
    1.3070   -1.2298    0.0000 O   0  0  0  0  0  0  0  0  0  0  0  0
  3  2  1  1
  4  3  1  0
  5  4  1  0
  6  5  1  0
  7  6  1  0
  8  2  1  0
  9  4  1  0
  5 10  1  6
  6 11  1  1
 12  1  1  0
 12  7  1  0
 13  3  1  0
 13  7  1  0
M  END
>  <NAME>  (635) 
METHYL BETA-D-TALOPYRANOSIDE

>  <SYNONYMS>  (635) 


>  <SPECTRUM TYPE>  (635) 
MS1

>  <INSTRUMENT TYPE>  (635) 
EI-B

>  <INSTRUMENT>  (635) 
JEOL JMS-DX-300

>  <ION MODE>  (635) 
P

>  <INCHIKEY>  (635) 
HOVAGTYPODGVJG-WMYZWQRYSA-N

>  <FORMULA>  (635) 
C7H14O6

>  <EXACT MASS>  (635) 
194.07903816799998

>  <MW>  (635) 
194

>  <ID>  (635) 
JP011151

>  <CONTRIBUTOR>  (635) 
University of Tokyo Team, {Faculty of Engineering, University of Tokyo

>  <COMMENT>  (635) 
SMILES=OCC([H])(O1)C([H])(O)C([H])(O)C([H])(O)C([H])(OC)1
InChI=InChI=1S/C7H14O6/c1-12-7-6(11)5(10)4(9)3(2-8)13-7/h3-11H,2H2,1H3/t3-,4?,5-,6+,7?/m1/s1
computed SMILES=OCC1OC(OC)C(O)C(O)C1O
accession=JP011151
date=2016.01.19 (Created 2008.10.21, modified 2011.05.06)
author=SAWADA M, THE INST. OF SCIENTIFIC AND INDUSTRIALRESEARCH OSAKA UNIV.
license=CC BY-NC-SA
exact mass=194.07904
ionization energy=70 eV
ion type=[M]+*
computed spectral entropy=3.4705309194909084
computed normalized entropy=0.8224966422584269
SPLASH=splash10-03k9-9000000000-669479bc1c5777c47bc4
submitter=submitter = University of Tokyo Team (Faculty of Engineering, University of Tokyo)
MoNA Rating=3.75

>  <NUM PEAKS>  (635) 
68

>  <MASS SPECTRAL PEAKS>  (635) 
26 1.3
27 8.2
30 4.6
33 8.1
34 5.1
39 3.3
40 7
41 6.9
42 12.2
43 20
44 14.7
45 21.8
46 8.9
47 2.8
48 1
53 1
54 2.1
55 10.5
56 19
57 50.1
58 39.6
59 11
60 65.7
61 99.99
62 67
63 4.8
68 1.4
69 8.2
70 9.9
71 34.7
72 22.3
73 36.3
74 92.4
75 78.8
76 19.2
77 4.1
81 1
85 6.7
86 4.7
87 20.3
88 18.4
89 3.7
90 1.7
91 1.6
92 1.1
97 5.7
98 10.4
99 4.9
100 1
101 1.7
102 1.6
103 10
104 7.9
105 4.1
116 5.1
117 8.1
118 3.6
121 2.4
122 3
123 1.3
131 1.1
132 1.8
133 3.9
134 5.4
135 2.8
144 4.8
145 5.7
146 1.7

>  <PREDICTED SPECTRUM>  (635) 
14 3
15 26
18 22
19 11
26 17
27 80
28 28
29 148
30 16
31 191
32 70
33 71
39 58
41 261
42 321
43 411
44 244
45 542
46 73
47 109
49 21
53 101
54 74
55 320
56 284
57 655
58 220
59 234
60 812
61 543
62 76
63 7
67 22
68 92
69 193
70 117
71 454
72 64
73 999
74 572
75 350
76 97
77 77
81 19
82 11
84 50
85 301
86 272
87 323
88 52
89 19
90 42
91 217
97 152
98 230
99 58
101 46
102 85
103 330
104 188
109 1
113 6
115 179
116 243
117 85
121 45
127 127
131 4
133 147
144 80
145 237
146 152
162 23
163 148
194 45
195 15

$$$$

     RDKit          2D

 18 19  0  0  0  0  0  0  0  0999 V2000
   -0.6493    5.9469    0.0000 C   0  0  0  0  0  0  0  0  0  0  0  0
   -7.1454    3.6965    0.0000 C   0  0  0  0  0  0  0  0  0  0  0  0
   -7.1459    2.1956    0.0000 C   0  0  0  0  0  0  0  0  0  0  0  0
   -5.8459    4.4473    0.0000 C   0  0  0  0  0  0  0  0  0  0  0  0
    3.2488    2.1960    0.0000 C   0  0  0  0  0  0  0  0  0  0  0  0
    3.2490    3.6960    0.0000 C   0  0  0  0  0  0  0  0  0  0  0  0
   -5.8469    1.4456    0.0000 C   0  0  0  0  0  0  0  0  0  0  0  0
   -4.5469    3.6973    0.0000 C   0  0  0  0  0  0  0  0  0  0  0  0
    1.9487    1.4462    0.0000 C   0  0  0  0  0  0  0  0  0  0  0  0
    1.9492    4.4462    0.0000 C   0  0  0  0  0  0  0  0  0  0  0  0
   -0.6502    1.4465    0.0000 C   0  0  0  0  0  0  0  0  0  0  0  0
   -4.5474    2.1965    0.0000 C   0  0  0  0  0  0  0  0  0  0  0  0
    0.6488    2.1965    0.0000 C   0  0  0  0  0  0  0  0  0  0  0  0
    0.6490    3.6965    0.0000 C   0  0  0  0  0  0  0  0  0  0  0  0
   -3.2483    1.4465    0.0000 C   0  0  0  0  0  0  0  0  0  0  0  0
   -3.2483   -0.0535    0.0000 O   0  0  0  0  0  0  0  0  0  0  0  0
   -0.6498    4.4469    0.0000 O   0  0  0  0  0  0  0  0  0  0  0  0
   -1.9493    2.1965    0.0000 O   0  0  0  0  0  0  0  0  0  0  0  0
  3  2  2  0
  4  2  1  0
  6  5  2  0
  7  3  1  0
  8  4  2  0
  9  5  1  0
 10  6  1  0
 12  7  2  0
 12  8  1  0
 13  9  2  0
 13 11  1  0
 14 10  2  0
 14 13  1  0
 15 12  1  0
 16 15  2  0
 17  1  1  0
 17 14  1  0
 18 11  1  0
 18 15  1  0
M  END
>  <NAME>  (636) 
2-METHOXYBENZYL BENZOATE

>  <SYNONYMS>  (636) 


>  <SPECTRUM TYPE>  (636) 
MS1

>  <INSTRUMENT TYPE>  (636) 
EI-B

>  <INSTRUMENT>  (636) 
JEOL JMS-DX-300

>  <ION MODE>  (636) 
P

>  <INCHIKEY>  (636) 
BZUHSQFJABFAHL-UHFFFAOYSA-N

>  <FORMULA>  (636) 
C15H14O3

>  <EXACT MASS>  (636) 
242.094294308

>  <MW>  (636) 
242

>  <ID>  (636) 
JP011143

>  <CONTRIBUTOR>  (636) 
University of Tokyo Team, {Faculty of Engineering, University of Tokyo

>  <COMMENT>  (636) 
SMILES=COc(c2)c(ccc2)COC(=O)c(c1)cccc1
InChI=InChI=1S/C15H14O3/c1-17-14-10-6-5-9-13(14)11-18-15(16)12-7-3-2-4-8-12/h2-10H,11H2,1H3
computed SMILES=O=C(OCC=1C=CC=CC1OC)C=2C=CC=CC2
accession=JP011143
date=2016.01.19 (Created 2008.10.21, modified 2011.05.06)
author=SAWADA M, THE INST. OF SCIENTIFIC AND INDUSTRIALRESEARCH OSAKA UNIV.
license=CC BY-NC-SA
exact mass=242.09429
ionization energy=70 eV
ion type=[M]+*
computed spectral entropy=2.6563309720968116
computed normalized entropy=0.7597097747967438
SPLASH=splash10-000l-6910000000-123e5ef62134fa916b02
submitter=submitter = University of Tokyo Team (Faculty of Engineering, University of Tokyo)
MoNA Rating=3.75

>  <NUM PEAKS>  (636) 
33

>  <MASS SPECTRAL PEAKS>  (636) 
27 1.4
39 3.7
40 1.5
41 1.7
42 1.2
43 1.7
50 3
51 11
52 2.7
63 1.7
65 7.9
76 1.8
77 27.4
78 7.4
79 1.2
89 2.1
90 2.6
91 46.4
92 7.2
93 3.7
94 1.7
105 34.2
106 3.2
107 7.1
109 3.2
119 4.8
120 3.4
121 27.2
122 4.1
137 99.99
138 9.2
242 31
243 5.1

>  <PREDICTED SPECTRUM>  (636) 
15 0
27 40
29 22
37 7
38 68
39 204
40 92
41 99
42 34
43 105
44 71
45 71
50 160
51 312
52 175
53 97
55 10
62 62
63 167
64 126
65 310
66 161
74 16
75 38
76 100
77 495
78 302
79 191
89 194
90 139
91 617
92 238
93 216
94 137
103 0
104 79
105 602
106 224
107 166
108 56
109 109
110 12
119 194
120 195
121 543
122 339
123 143
124 2
134 1
135 10
136 44
137 999
138 289
197 37
242 465
243 181
244 38

$$$$

     RDKit          2D

 20 21  0  0  0  0  0  0  0  0999 V2000
    3.3491    0.2013    0.0000 C   0  0  0  0  0  0  0  0  0  0  0  0
    3.8978    2.2504    0.0000 C   0  0  0  0  0  0  0  0  0  0  0  0
    1.8487    2.7991    0.0000 C   0  0  0  0  0  0  0  0  0  0  0  0
   -9.0945    0.7488    0.0000 C   0  0  0  0  0  0  0  0  0  0  0  0
   -9.0947   -0.7521    0.0000 C   0  0  0  0  0  0  0  0  0  0  0  0
   -7.7951    1.4998    0.0000 C   0  0  0  0  0  0  0  0  0  0  0  0
   -7.7956   -1.5019    0.0000 C   0  0  0  0  0  0  0  0  0  0  0  0
   -6.4959    0.7500    0.0000 C   0  0  0  0  0  0  0  0  0  0  0  0
   -1.3000    0.7500    0.0000 C   0  0  0  0  0  0  0  0  0  0  0  0
    0.0000   -1.5000    0.0000 C   0  0  0  0  0  0  0  0  0  0  0  0
    0.0000    1.5000    0.0000 C   0  0  0  0  0  0  0  0  0  0  0  0
    1.3000   -0.7500    0.0000 C   0  0  0  0  0  0  0  0  0  0  0  0
   -2.5989   -1.5002    0.0000 C   0  0  0  0  0  0  0  0  0  0  0  0
   -1.3000   -0.7500    0.0000 C   0  0  0  0  0  0  0  0  0  0  0  0
   -6.4962   -0.7508    0.0000 C   0  0  0  0  0  0  0  0  0  0  0  0
    1.3000    0.7500    0.0000 C   0  0  0  0  0  0  0  0  0  0  0  0
   -5.1970   -1.5006    0.0000 C   0  0  0  0  0  0  0  0  0  0  0  0
    2.5989    1.5002    0.0000 C   0  0  0  0  0  0  0  0  0  0  0  0
   -5.1968   -3.0006    0.0000 O   0  0  0  0  0  0  0  0  0  0  0  0
   -3.8981   -0.7504    0.0000 O   0  0  0  0  0  0  0  0  0  0  0  0
  5  4  2  0
  6  4  1  0
  7  5  1  0
  8  6  2  0
 11  9  2  0
 12 10  1  0
 14  9  1  0
 14 10  2  0
 14 13  1  0
 15  7  2  0
 15  8  1  0
 16 11  1  0
 16 12  2  0
 17 15  1  0
 18  1  1  0
 18  2  1  0
 18  3  1  0
 18 16  1  0
 19 17  2  0
 20 13  1  0
 20 17  1  0
M  END
>  <NAME>  (637) 
4-TERT-BUTYLBENZYL BENZOATE

>  <SYNONYMS>  (637) 


>  <SPECTRUM TYPE>  (637) 
MS1

>  <INSTRUMENT TYPE>  (637) 
EI-B

>  <INSTRUMENT>  (637) 
JEOL JMS-DX-300

>  <ION MODE>  (637) 
P

>  <INCHIKEY>  (637) 
GPHOLSWHPRJMDQ-UHFFFAOYSA-N

>  <FORMULA>  (637) 
C18H20O2

>  <EXACT MASS>  (637) 
268.14632988

>  <MW>  (637) 
268

>  <ID>  (637) 
JP011141

>  <CONTRIBUTOR>  (637) 
University of Tokyo Team, {Faculty of Engineering, University of Tokyo

>  <COMMENT>  (637) 
SMILES=O=C(OCc(c2)ccc(c2)C(C)(C)C)c(c1)cccc1
InChI=InChI=1S/C18H20O2/c1-18(2,3)16-11-9-14(10-12-16)13-20-17(19)15-7-5-4-6-8-15/h4-12H,13H2,1-3H3
computed SMILES=O=C(OCC1=CC=C(C=C1)C(C)(C)C)C=2C=CC=CC2
accession=JP011141
date=2016.01.19 (Created 2008.10.21, modified 2011.05.06)
author=SAWADA M, THE INST. OF SCIENTIFIC AND INDUSTRIALRESEARCH OSAKA UNIV.
license=CC BY-NC-SA
exact mass=268.14633
ionization energy=70 eV
ion type=[M]+*
computed spectral entropy=2.707468485864139
computed normalized entropy=0.724373409736418
SPLASH=splash10-0pb9-3960000000-c1b20467c415ef8fd320
submitter=submitter = University of Tokyo Team (Faculty of Engineering, University of Tokyo)
MoNA Rating=3.75

>  <NUM PEAKS>  (637) 
42

>  <MASS SPECTRAL PEAKS>  (637) 
27 1.2
29 2
39 2.3
40 2.7
41 4.7
50 1.3
51 5.4
53 1.1
55 1.2
57 3.7
65 1.7
77 22.1
78 2.7
79 1.4
89 1.8
91 10.1
103 1.5
104 1.8
105 99.99
106 8.2
107 1.2
115 5
116 2.9
117 10.9
118 1.8
119 2.7
127 1.6
128 1.4
129 1.6
131 10.9
132 7.7
133 1.7
145 1.2
147 13
148 2
163 1.7
211 1.7
253 70.6
254 13.6
255 1.6
268 36.2
269 7.3

>  <PREDICTED SPECTRUM>  (637) 
26 9
27 93
29 37
38 21
39 190
40 73
41 248
42 6
43 86
44 20
45 109
50 111
51 285
52 116
53 124
55 108
56 0
57 159
59 17
61 14
62 44
63 131
64 59
65 167
66 45
67 25
69 9
73 3
74 48
75 83
76 52
77 565
78 235
79 184
80 48
89 204
90 127
91 348
92 87
93 67
94 11
102 83
103 268
104 153
105 999
106 316
107 76
115 328
116 88
117 308
118 36
119 154
121 15
127 13
128 32
129 14
130 103
131 181
132 207
133 116
135 34
136 6
145 33
146 101
147 380
148 165
149 91
150 38
151 8
162 2
163 111
164 79
223 64
224 15
225 85
253 747
254 346
255 106
268 554
269 261
270 44

$$$$

     RDKit          2D

 18 19  0  0  0  0  0  0  0  0999 V2000
   -9.4187    3.1342    0.0000 C   0  0  0  0  0  0  0  0  0  0  0  0
   -9.4192    1.6333    0.0000 C   0  0  0  0  0  0  0  0  0  0  0  0
   -8.1192    3.8850    0.0000 C   0  0  0  0  0  0  0  0  0  0  0  0
   -8.1202    0.8833    0.0000 C   0  0  0  0  0  0  0  0  0  0  0  0
   -6.8202    3.1350    0.0000 C   0  0  0  0  0  0  0  0  0  0  0  0
    0.9755    1.6337    0.0000 C   0  0  0  0  0  0  0  0  0  0  0  0
   -0.3242    3.8840    0.0000 C   0  0  0  0  0  0  0  0  0  0  0  0
   -0.3246    0.8840    0.0000 C   0  0  0  0  0  0  0  0  0  0  0  0
   -1.6243    3.1342    0.0000 C   0  0  0  0  0  0  0  0  0  0  0  0
    2.2748    3.8837    0.0000 C   0  0  0  0  0  0  0  0  0  0  0  0
   -2.9236    0.8842    0.0000 C   0  0  0  0  0  0  0  0  0  0  0  0
    0.9757    3.1337    0.0000 C   0  0  0  0  0  0  0  0  0  0  0  0
   -1.6245    1.6342    0.0000 C   0  0  0  0  0  0  0  0  0  0  0  0
   -6.8207    1.6342    0.0000 C   0  0  0  0  0  0  0  0  0  0  0  0
   -5.5216    0.8842    0.0000 C   0  0  0  0  0  0  0  0  0  0  0  0
    3.5738    4.6337    0.0000 N   0  0  0  0  0  0  0  0  0  0  0  0
   -5.5216   -0.6158    0.0000 O   0  0  0  0  0  0  0  0  0  0  0  0
   -4.2226    1.6342    0.0000 O   0  0  0  0  0  0  0  0  0  0  0  0
  2  1  2  0
  3  1  1  0
  4  2  1  0
  5  3  2  0
  8  6  2  0
  9  7  1  0
 12  6  1  0
 12  7  2  0
 12 10  1  0
 13  8  1  0
 13  9  2  0
 13 11  1  0
 14  4  2  0
 14  5  1  0
 15 14  1  0
 16 10  3  0
 17 15  2  0
 18 11  1  0
 18 15  1  0
M  END
>  <NAME>  (638) 
4-CYANOBENZYL BENZOATE

>  <SYNONYMS>  (638) 


>  <SPECTRUM TYPE>  (638) 
MS1

>  <INSTRUMENT TYPE>  (638) 
EI-B

>  <INSTRUMENT>  (638) 
JEOL JMS-DX-300

>  <ION MODE>  (638) 
P

>  <INCHIKEY>  (638) 
NLLRGSOJQLUKFM-UHFFFAOYSA-N

>  <FORMULA>  (638) 
C15H11NO2

>  <EXACT MASS>  (638) 
237.078978592

>  <MW>  (638) 
237

>  <ID>  (638) 
JP011140

>  <CONTRIBUTOR>  (638) 
University of Tokyo Team, {Faculty of Engineering, University of Tokyo

>  <COMMENT>  (638) 
SMILES=N#Cc(c2)ccc(c2)COC(=O)c(c1)cccc1
InChI=InChI=1S/C15H11NO2/c16-10-12-6-8-13(9-7-12)11-18-15(17)14-4-2-1-3-5-14/h1-9H,11H2
computed SMILES=N#CC1=CC=C(C=C1)COC(=O)C=2C=CC=CC2
accession=JP011140
date=2016.01.19 (Created 2008.10.21, modified 2011.05.06)
author=SAWADA M, THE INST. OF SCIENTIFIC AND INDUSTRIALRESEARCH OSAKA UNIV.
license=CC BY-NC-SA
exact mass=237.07898
ionization energy=70 eV
ion type=[M]+*
computed spectral entropy=2.6483245762934287
computed normalized entropy=0.7390290442930959
SPLASH=splash10-0a4i-6910000000-f542880d0e88fd3726ad
submitter=submitter = University of Tokyo Team (Faculty of Engineering, University of Tokyo)
MoNA Rating=3.75

>  <NUM PEAKS>  (638) 
36

>  <MASS SPECTRAL PEAKS>  (638) 
27 1.8
29 1.7
38 1.3
39 4.8
40 1.6
44 1.2
50 7.8
51 22.2
52 1.8
62 1.7
63 4.6
64 1.8
65 1.1
74 1.7
75 2.9
76 4.4
77 38.4
78 3.8
88 1.7
89 12.3
90 3.8
102 2.8
104 2.3
105 99.99
106 9.6
114 1.3
115 2.6
116 22.3
117 2.3
130 1
132 3.1
192 7.8
193 3.7
219 4.1
237 25.1
238 4.3

>  <PREDICTED SPECTRUM>  (638) 
14 4
26 27
27 96
28 14
29 44
36 18
37 55
38 127
39 194
40 101
41 63
43 99
44 114
49 14
50 223
51 393
52 141
53 27
61 40
62 136
63 213
64 83
65 119
66 11
74 73
75 150
76 161
77 622
78 231
79 0
86 13
87 63
88 179
89 384
90 208
91 19
101 13
102 163
103 39
104 114
105 999
106 330
114 110
115 287
116 587
117 187
122 43
130 114
131 124
132 172
192 294
193 152
219 94
237 574
238 237
239 43

$$$$

     RDKit          2D

 19 20  0  0  0  0  0  0  0  0999 V2000
    9.0947    0.7508    0.0000 C   0  0  0  0  0  0  0  0  0  0  0  0
   -3.8978    0.7492    0.0000 C   0  0  0  0  0  0  0  0  0  0  0  0
   -3.8981   -0.7517    0.0000 C   0  0  0  0  0  0  0  0  0  0  0  0
   -2.5984    1.5002    0.0000 C   0  0  0  0  0  0  0  0  0  0  0  0
   -2.5989   -1.5015    0.0000 C   0  0  0  0  0  0  0  0  0  0  0  0
   -1.2993    0.7504    0.0000 C   0  0  0  0  0  0  0  0  0  0  0  0
    5.1966   -1.4996    0.0000 C   0  0  0  0  0  0  0  0  0  0  0  0
    3.8966    0.7504    0.0000 C   0  0  0  0  0  0  0  0  0  0  0  0
    6.4966   -0.7496    0.0000 C   0  0  0  0  0  0  0  0  0  0  0  0
    5.1966    1.5004    0.0000 C   0  0  0  0  0  0  0  0  0  0  0  0
    2.5977   -1.4998    0.0000 C   0  0  0  0  0  0  0  0  0  0  0  0
    3.8966   -0.7496    0.0000 C   0  0  0  0  0  0  0  0  0  0  0  0
   -1.2995   -0.7504    0.0000 C   0  0  0  0  0  0  0  0  0  0  0  0
    6.4966    0.7504    0.0000 C   0  0  0  0  0  0  0  0  0  0  0  0
   -0.0004   -1.5002    0.0000 C   0  0  0  0  0  0  0  0  0  0  0  0
   -0.0001   -3.0002    0.0000 O   0  0  0  0  0  0  0  0  0  0  0  0
    7.7953    3.0006    0.0000 O   0  0  0  0  0  0  0  0  0  0  0  0
    1.2986   -0.7500    0.0000 O   0  0  0  0  0  0  0  0  0  0  0  0
    7.7956    1.5006    0.0000 S   0  0  0  0  0  0  0  0  0  0  0  0
  3  2  2  0
  4  2  1  0
  5  3  1  0
  6  4  2  0
  9  7  2  0
 10  8  1  0
 12  7  1  0
 12  8  2  0
 12 11  1  0
 13  5  2  0
 13  6  1  0
 14  9  1  0
 14 10  2  0
 15 13  1  0
 16 15  2  0
 18 11  1  0
 18 15  1  0
 19  1  1  0
 19 14  1  0
 19 17  2  0
M  END
>  <NAME>  (639) 
4-METHYLSULFINYLBENZYL BENZOATE

>  <SYNONYMS>  (639) 


>  <SPECTRUM TYPE>  (639) 
MS1

>  <INSTRUMENT TYPE>  (639) 
EI-B

>  <INSTRUMENT>  (639) 
JEOL JMS-DX-300

>  <ION MODE>  (639) 
P

>  <INCHIKEY>  (639) 
HKUADHPETBQPPU-UHFFFAOYSA-N

>  <FORMULA>  (639) 
C15H14O3S

>  <EXACT MASS>  (639) 
274.066365308

>  <MW>  (639) 
274

>  <ID>  (639) 
JP011139

>  <CONTRIBUTOR>  (639) 
University of Tokyo Team, {Faculty of Engineering, University of Tokyo

>  <COMMENT>  (639) 
SMILES=CS(=O)c(c1)ccc(COC(=O)c(c2)cccc2)c1
InChI=InChI=1S/C15H14O3S/c1-19(17)14-9-7-12(8-10-14)11-18-15(16)13-5-3-2-4-6-13/h2-10H,11H2,1H3
computed SMILES=O=C(OCC1=CC=C(C=C1)S(=O)C)C=2C=CC=CC2
accession=JP011139
date=2016.01.19 (Created 2008.10.21, modified 2011.05.06)
author=SAWADA M, THE INST. OF SCIENTIFIC AND INDUSTRIALRESEARCH OSAKA UNIV.
license=CC BY-NC-SA
exact mass=274.06637
ionization energy=70 eV
ion type=[M]+*
computed spectral entropy=2.975808962268754
computed normalized entropy=0.768704325578499
SPLASH=splash10-0a4i-5940000000-5df4604bef638982102c
submitter=submitter = University of Tokyo Team (Faculty of Engineering, University of Tokyo)
MoNA Rating=3.75

>  <NUM PEAKS>  (639) 
48

>  <MASS SPECTRAL PEAKS>  (639) 
29 4.3
39 2.5
40 7.9
43 1.4
44 11.7
45 1.9
50 2.6
51 8
52 1.1
57 1.4
60 2.2
61 1
63 2.9
65 1.7
73 1.5
74 1.7
76 1.5
77 28.8
78 5.8
79 1
89 8.2
90 4.7
91 2.6
105 99.99
106 8.8
107 7.1
109 17.4
110 2.1
111 1
121 2.5
122 5.1
123 1.3
135 2.5
136 1.3
137 9.2
138 4.5
139 1.5
152 1.9
153 5
154 1.1
227 2.8
258 6.1
259 20.2
260 3.5
261 1.1
274 39.9
275 6.8
276 2.5

>  <PREDICTED SPECTRUM>  (639) 
14 0
15 14
16 7
17 9
18 14
26 13
27 85
28 33
29 63
31 24
32 23
33 4
34 5
38 67
39 137
40 44
41 34
43 60
44 83
45 144
46 35
47 44
49 8
50 187
51 319
52 118
53 78
59 124
60 63
61 84
62 69
63 168
64 99
65 123
66 51
67 0
69 19
70 3
71 6
73 85
74 86
75 122
76 146
77 595
78 256
79 162
80 38
81 14
82 59
83 34
84 0
87 1
89 279
90 108
91 78
95 27
96 45
97 95
98 1
99 33
102 28
103 58
104 5
105 999
106 322
107 181
108 123
109 277
110 132
111 63
120 46
121 92
122 231
123 198
124 65
125 110
126 46
136 94
137 447
138 172
139 141
151 40
152 162
153 246
154 92
155 40
166 12
168 1
169 104
170 53
181 63
182 32
197 10
229 21
230 12
258 117
259 475
260 215
261 63
274 657
275 278
276 142
277 11

$$$$

     RDKit          2D

 20 21  0  0  0  0  0  0  0  0999 V2000
    8.5460    0.4028    0.0000 C   0  0  0  0  0  0  0  0  0  0  0  0
   -3.8976    0.9502    0.0000 C   0  0  0  0  0  0  0  0  0  0  0  0
   -3.8978   -0.5506    0.0000 C   0  0  0  0  0  0  0  0  0  0  0  0
   -2.5982    1.7013    0.0000 C   0  0  0  0  0  0  0  0  0  0  0  0
   -2.5987   -1.3004    0.0000 C   0  0  0  0  0  0  0  0  0  0  0  0
   -1.2990    0.9515    0.0000 C   0  0  0  0  0  0  0  0  0  0  0  0
    5.1969   -1.2985    0.0000 C   0  0  0  0  0  0  0  0  0  0  0  0
    3.8969    0.9515    0.0000 C   0  0  0  0  0  0  0  0  0  0  0  0
    6.4969   -0.5485    0.0000 C   0  0  0  0  0  0  0  0  0  0  0  0
    5.1969    1.7015    0.0000 C   0  0  0  0  0  0  0  0  0  0  0  0
    2.5980   -1.2987    0.0000 C   0  0  0  0  0  0  0  0  0  0  0  0
    3.8969   -0.5485    0.0000 C   0  0  0  0  0  0  0  0  0  0  0  0
   -1.2993   -0.5493    0.0000 C   0  0  0  0  0  0  0  0  0  0  0  0
    6.4969    0.9515    0.0000 C   0  0  0  0  0  0  0  0  0  0  0  0
   -0.0001   -1.2991    0.0000 C   0  0  0  0  0  0  0  0  0  0  0  0
    0.0001   -2.7991    0.0000 O   0  0  0  0  0  0  0  0  0  0  0  0
    9.0947    2.4519    0.0000 O   0  0  0  0  0  0  0  0  0  0  0  0
    7.0456    3.0006    0.0000 O   0  0  0  0  0  0  0  0  0  0  0  0
    1.2988   -0.5489    0.0000 O   0  0  0  0  0  0  0  0  0  0  0  0
    7.7958    1.7017    0.0000 S   0  0  0  0  0  0  0  0  0  0  0  0
  3  2  2  0
  4  2  1  0
  5  3  1  0
  6  4  2  0
  9  7  2  0
 10  8  1  0
 12  7  1  0
 12  8  2  0
 12 11  1  0
 13  5  2  0
 13  6  1  0
 14  9  1  0
 14 10  2  0
 15 13  1  0
 16 15  2  0
 19 11  1  0
 19 15  1  0
 20  1  1  0
 20 14  1  0
 20 17  2  0
 20 18  2  0
M  END
>  <NAME>  (640) 
4-MESYLBENZYL BENZOATE

>  <SYNONYMS>  (640) 
4-METHYLSULFONYLBENZYL BENZOATE

>  <SPECTRUM TYPE>  (640) 
MS1

>  <INSTRUMENT TYPE>  (640) 
EI-B

>  <INSTRUMENT>  (640) 
JEOL JMS-DX-300

>  <ION MODE>  (640) 
P

>  <INCHIKEY>  (640) 
MGLQGYMIDWSOTL-UHFFFAOYSA-N

>  <FORMULA>  (640) 
C15H14O4S

>  <EXACT MASS>  (640) 
290.061279928

>  <MW>  (640) 
290

>  <ID>  (640) 
JP011138

>  <CONTRIBUTOR>  (640) 
University of Tokyo Team, {Faculty of Engineering, University of Tokyo

>  <COMMENT>  (640) 
SMILES=O=C(OCc(c2)ccc(c2)S(C)(=O)=O)c(c1)cccc1
InChI=InChI=1S/C15H14O4S/c1-20(17,18)14-9-7-12(8-10-14)11-19-15(16)13-5-3-2-4-6-13/h2-10H,11H2,1H3
computed SMILES=O=C(OCC1=CC=C(C=C1)S(=O)(=O)C)C=2C=CC=CC2
accession=JP011138
date=2016.01.19 (Created 2008.10.21, modified 2011.05.06)
author=SAWADA M, THE INST. OF SCIENTIFIC AND INDUSTRIALRESEARCH OSAKA UNIV.
license=CC BY-NC-SA
exact mass=290.06128
ionization energy=70 eV
ion type=[M]+*
computed spectral entropy=2.8254035452202126
computed normalized entropy=0.7466337098690022
SPLASH=splash10-0a4i-8910000000-209f67b697e8bff2cb1c
submitter=submitter = University of Tokyo Team (Faculty of Engineering, University of Tokyo)
MoNA Rating=3.75

>  <NUM PEAKS>  (640) 
44

>  <MASS SPECTRAL PEAKS>  (640) 
27 1.5
29 7
39 2.6
40 13.6
41 1.2
43 2.2
44 22.3
45 1.5
50 3.2
51 8.9
52 1.3
55 1
57 2.1
60 3
61 1.6
63 3.6
64 1.1
65 1.8
71 1.1
73 2.2
74 2.7
75 1.2
76 1.9
77 26.6
78 4.9
79 1.7
89 10.9
90 3.8
91 3.8
105 99.99
106 10.3
107 15.4
108 1.3
122 8.6
123 1.1
155 1.2
167 1.4
170 1.3
185 6.2
193 1.8
245 1.5
290 17.2
291 2.9
292 1.1

>  <PREDICTED SPECTRUM>  (640) 
15 17
26 16
27 78
28 23
29 17
32 12
33 6
34 14
37 2
38 70
39 175
40 58
41 72
42 66
43 185
44 115
45 99
46 12
47 70
48 48
49 40
50 265
51 425
52 182
53 106
54 36
55 26
56 15
57 31
59 15
61 38
62 116
63 269
64 163
65 183
66 38
68 29
69 75
70 50
74 110
75 117
76 166
77 648
78 281
79 284
80 54
81 37
82 51
83 52
85 6
87 18
88 37
89 371
90 295
91 183
92 38
93 47
94 34
95 31
96 63
98 10
102 0
103 33
104 46
105 999
106 384
107 287
108 139
109 86
110 3
115 55
116 28
117 20
118 67
119 39
121 80
122 177
123 149
124 54
125 45
127 13
136 0
137 37
138 26
141 12
153 20
155 90
156 32
157 12
165 30
167 67
168 51
169 182
170 30
171 2
183 0
184 75
185 126
186 42
187 27
211 68
245 176
290 361
291 112
292 57

$$$$

     RDKit          2D

 19 20  0  0  0  0  0  0  0  0999 V2000
    3.2471    3.6954    0.0000 C   0  0  0  0  0  0  0  0  0  0  0  0
    3.2476    5.1962    0.0000 C   0  0  0  0  0  0  0  0  0  0  0  0
    1.9476    2.9446    0.0000 C   0  0  0  0  0  0  0  0  0  0  0  0
    1.9486    5.9462    0.0000 C   0  0  0  0  0  0  0  0  0  0  0  0
    0.6486    3.6946    0.0000 C   0  0  0  0  0  0  0  0  0  0  0  0
   -5.8463    5.9452    0.0000 C   0  0  0  0  0  0  0  0  0  0  0  0
   -4.5474    3.6946    0.0000 C   0  0  0  0  0  0  0  0  0  0  0  0
   -7.1457    5.1942    0.0000 C   0  0  0  0  0  0  0  0  0  0  0  0
   -5.8468    2.9435    0.0000 C   0  0  0  0  0  0  0  0  0  0  0  0
   -3.2481    5.9454    0.0000 C   0  0  0  0  0  0  0  0  0  0  0  0
   -4.5471    5.1954    0.0000 C   0  0  0  0  0  0  0  0  0  0  0  0
    0.6490    5.1954    0.0000 C   0  0  0  0  0  0  0  0  0  0  0  0
   -7.1459    3.6933    0.0000 C   0  0  0  0  0  0  0  0  0  0  0  0
   -0.6500    5.9454    0.0000 C   0  0  0  0  0  0  0  0  0  0  0  0
   -8.4450    2.9433    0.0000 N   0  0  0  0  0  0  0  0  0  0  0  0
   -0.6500    7.4454    0.0000 O   0  0  0  0  0  0  0  0  0  0  0  0
   -9.7440    3.6933    0.0000 O   0  0  0  0  0  0  0  0  0  0  0  0
   -8.4450    1.4433    0.0000 O   0  0  0  0  0  0  0  0  0  0  0  0
   -1.9490    5.1954    0.0000 O   0  0  0  0  0  0  0  0  0  0  0  0
  2  1  2  0
  3  1  1  0
  4  2  1  0
  5  3  2  0
  8  6  2  0
  9  7  1  0
 11  6  1  0
 11  7  2  0
 11 10  1  0
 12  4  2  0
 12  5  1  0
 13  8  1  0
 13  9  2  0
 14 12  1  0
 15 13  1  0
 16 14  2  0
 17 15  1  0
 18 15  2  0
 19 10  1  0
 19 14  1  0
M  CHG  2  15   1  17  -1
M  END
>  <NAME>  (641) 
4-NITROBENZYL BENZOATE

>  <SYNONYMS>  (641) 


>  <SPECTRUM TYPE>  (641) 
MS1

>  <INSTRUMENT TYPE>  (641) 
EI-B

>  <INSTRUMENT>  (641) 
JEOL JMS-DX-300

>  <ION MODE>  (641) 
P

>  <INCHIKEY>  (641) 
CRTADXBPEXSZLH-UHFFFAOYSA-N

>  <FORMULA>  (641) 
C14H11NO4

>  <EXACT MASS>  (641) 
257.068807832

>  <MW>  (641) 
257

>  <ID>  (641) 
JP011137

>  <CONTRIBUTOR>  (641) 
University of Tokyo Team, {Faculty of Engineering, University of Tokyo

>  <COMMENT>  (641) 
SMILES=[O-1][N+1](=O)c(c1)ccc(COC(=O)c(c2)cccc2)c1
InChI=InChI=1S/C14H11NO4/c16-14(12-4-2-1-3-5-12)19-10-11-6-8-13(9-7-11)15(17)18/h1-9H,10H2
computed SMILES=O=C(OCC1=CC=C(C=C1)N(=O)=O)C=2C=CC=CC2
accession=JP011137
date=2016.01.19 (Created 2008.10.21, modified 2011.05.06)
author=SAWADA M, THE INST. OF SCIENTIFIC AND INDUSTRIALRESEARCH OSAKA UNIV.
license=CC BY-NC-SA
exact mass=257.06881
ionization energy=70 eV
ion type=[M]+*
computed spectral entropy=2.456922020475011
computed normalized entropy=0.7296424622379792
SPLASH=splash10-0a4i-9820000000-47add01200d5e4660f0f
submitter=submitter = University of Tokyo Team (Faculty of Engineering, University of Tokyo)
MoNA Rating=3.75

>  <NUM PEAKS>  (641) 
29

>  <MASS SPECTRAL PEAKS>  (641) 
27 1.2
30 7.4
39 3.6
50 5.8
51 17.1
52 2.6
62 1.1
63 5.4
64 2.2
74 1.4
75 1.8
76 4.6
77 36.7
78 13.5
79 1
89 14.3
90 6.3
105 99.99
106 13.5
107 1.6
136 2.3
152 1.3
165 1.2
166 1.2
210 1.7
212 4.3
240 4.7
257 20.9
258 3.4

>  <PREDICTED SPECTRUM>  (641) 
27 19
30 23
36 17
37 27
38 89
39 151
40 68
41 27
43 14
44 63
45 28
46 21
49 0
50 224
51 362
52 97
53 41
55 31
56 11
57 38
61 2
62 108
63 215
64 140
65 104
66 17
74 95
75 148
76 148
77 647
78 301
79 86
81 1
83 39
89 375
90 257
91 98
92 51
93 0
94 39
96 8
97 29
103 22
105 999
106 409
107 132
108 36
117 5
119 21
121 74
122 102
134 37
135 273
136 260
137 110
151 75
152 153
153 44
164 1
165 105
210 43
212 182
240 32
257 459
258 186
259 32

$$$$

     RDKit          2D

 18 19  0  0  0  0  0  0  0  0999 V2000
    4.5487    2.9411    0.0000 C   0  0  0  0  0  0  0  0  0  0  0  0
    4.5492    4.4420    0.0000 C   0  0  0  0  0  0  0  0  0  0  0  0
    3.2492    2.1903    0.0000 C   0  0  0  0  0  0  0  0  0  0  0  0
   -4.5401    2.1979    0.0000 C   0  0  0  0  0  0  0  0  0  0  0  0
   -5.8393    2.9477    0.0000 C   0  0  0  0  0  0  0  0  0  0  0  0
   -3.2457    2.9403    0.0000 C   0  0  0  0  0  0  0  0  0  0  0  0
    3.2502    5.1920    0.0000 C   0  0  0  0  0  0  0  0  0  0  0  0
    1.9502    2.9403    0.0000 C   0  0  0  0  0  0  0  0  0  0  0  0
   -4.5446    5.1909    0.0000 C   0  0  0  0  0  0  0  0  0  0  0  0
   -7.1445    5.1875    0.0000 C   0  0  0  0  0  0  0  0  0  0  0  0
   -1.9465    5.1911    0.0000 C   0  0  0  0  0  0  0  0  0  0  0  0
   -5.8440    4.4399    0.0000 C   0  0  0  0  0  0  0  0  0  0  0  0
   -3.2455    4.4411    0.0000 C   0  0  0  0  0  0  0  0  0  0  0  0
    1.9507    4.4411    0.0000 C   0  0  0  0  0  0  0  0  0  0  0  0
    0.6516    5.1911    0.0000 C   0  0  0  0  0  0  0  0  0  0  0  0
   -8.4449    5.9351    0.0000 N   0  0  0  0  0  0  0  0  0  0  0  0
    0.6516    6.6911    0.0000 O   0  0  0  0  0  0  0  0  0  0  0  0
   -0.6474    4.4411    0.0000 O   0  0  0  0  0  0  0  0  0  0  0  0
  2  1  2  0
  3  1  1  0
  5  4  2  0
  6  4  1  0
  7  2  1  0
  8  3  2  0
 12  5  1  0
 12  9  2  0
 12 10  1  0
 13  6  2  0
 13  9  1  0
 13 11  1  0
 14  7  2  0
 14  8  1  0
 15 14  1  0
 16 10  3  0
 17 15  2  0
 18 11  1  0
 18 15  1  0
M  END
>  <NAME>  (642) 
3-CYANOBENZYL BENZOATE

>  <SYNONYMS>  (642) 


>  <SPECTRUM TYPE>  (642) 
MS1

>  <INSTRUMENT TYPE>  (642) 
EI-B

>  <INSTRUMENT>  (642) 
JEOL JMS-DX-300

>  <ION MODE>  (642) 
P

>  <INCHIKEY>  (642) 
MBZWZTKBDXXWON-UHFFFAOYSA-N

>  <FORMULA>  (642) 
C15H11NO2

>  <EXACT MASS>  (642) 
237.078978592

>  <MW>  (642) 
237

>  <ID>  (642) 
JP011136

>  <CONTRIBUTOR>  (642) 
University of Tokyo Team, {Faculty of Engineering, University of Tokyo

>  <COMMENT>  (642) 
SMILES=N#Cc(c2)cc(cc2)COC(=O)c(c1)cccc1
InChI=InChI=1S/C15H11NO2/c16-10-12-5-4-6-13(9-12)11-18-15(17)14-7-2-1-3-8-14/h1-9H,11H2
computed SMILES=N#CC1=CC=CC(=C1)COC(=O)C=2C=CC=CC2
accession=JP011136
date=2016.01.19 (Created 2008.10.21, modified 2011.05.06)
author=SAWADA M, THE INST. OF SCIENTIFIC AND INDUSTRIALRESEARCH OSAKA UNIV.
license=CC BY-NC-SA
exact mass=237.07898
ionization energy=70 eV
ion type=[M]+*
computed spectral entropy=2.5178424236290518
computed normalized entropy=0.7081845096691524
SPLASH=splash10-0a4i-4920000000-ed5bdac65ec39b618c12
submitter=submitter = University of Tokyo Team (Faculty of Engineering, University of Tokyo)
MoNA Rating=3.75

>  <NUM PEAKS>  (642) 
35

>  <MASS SPECTRAL PEAKS>  (642) 
27 1
29 1.3
39 3
40 2.4
44 2.4
50 3.5
51 11.1
52 0.8
62 1
63 2.7
64 1
74 1.1
75 1.5
76 2.4
77 27.4
78 2.7
88 1
89 8.3
90 2.2
102 1.2
104 1.2
105 99.99
106 9.8
114 1
115 1.7
116 19.1
117 1.9
132 5.6
191 3
192 8
193 2.9
219 7.5
220 1.4
237 25
238 4.5

>  <PREDICTED SPECTRUM>  (642) 
26 32
27 71
29 18
36 3
37 43
38 111
39 176
40 84
41 43
43 17
44 61
49 29
50 220
51 378
52 138
53 12
61 47
62 137
63 205
64 109
65 131
66 14
74 83
75 154
76 176
77 616
78 223
79 31
86 15
87 73
88 131
89 335
90 193
91 38
102 77
104 120
105 999
106 309
114 49
115 298
116 445
117 141
122 7
130 12
131 37
132 224
133 43
165 73
191 101
192 292
193 195
219 117
237 518
238 201
239 17

$$$$

     RDKit          2D

 20 21  0  0  0  0  0  0  0  0999 V2000
   -4.0477    2.3376    0.0000 C   0  0  0  0  0  0  0  0  0  0  0  0
    8.3938    3.2890    0.0000 C   0  0  0  0  0  0  0  0  0  0  0  0
    7.0942    4.0396    0.0000 C   0  0  0  0  0  0  0  0  0  0  0  0
    8.3946    1.7881    0.0000 C   0  0  0  0  0  0  0  0  0  0  0  0
   -0.7002    4.0394    0.0000 C   0  0  0  0  0  0  0  0  0  0  0  0
    0.5994    3.2886    0.0000 C   0  0  0  0  0  0  0  0  0  0  0  0
    5.7953    3.2894    0.0000 C   0  0  0  0  0  0  0  0  0  0  0  0
    7.0956    1.0379    0.0000 C   0  0  0  0  0  0  0  0  0  0  0  0
   -1.9992    3.2894    0.0000 C   0  0  0  0  0  0  0  0  0  0  0  0
   -0.6992    1.0377    0.0000 C   0  0  0  0  0  0  0  0  0  0  0  0
    1.8990    1.0379    0.0000 C   0  0  0  0  0  0  0  0  0  0  0  0
    0.5998    1.7877    0.0000 C   0  0  0  0  0  0  0  0  0  0  0  0
    5.7960    1.7886    0.0000 C   0  0  0  0  0  0  0  0  0  0  0  0
   -1.9987    1.7886    0.0000 C   0  0  0  0  0  0  0  0  0  0  0  0
    4.4971    1.0383    0.0000 C   0  0  0  0  0  0  0  0  0  0  0  0
    4.4973   -0.4617    0.0000 O   0  0  0  0  0  0  0  0  0  0  0  0
   -4.5968    0.2886    0.0000 O   0  0  0  0  0  0  0  0  0  0  0  0
   -2.5477   -0.2605    0.0000 O   0  0  0  0  0  0  0  0  0  0  0  0
    3.1979    1.7881    0.0000 O   0  0  0  0  0  0  0  0  0  0  0  0
   -3.2977    1.0386    0.0000 S   0  0  0  0  0  0  0  0  0  0  0  0
  3  2  2  0
  4  2  1  0
  6  5  2  0
  7  3  1  0
  8  4  2  0
  9  5  1  0
 12  6  1  0
 12 10  2  0
 12 11  1  0
 13  7  2  0
 13  8  1  0
 14  9  2  0
 14 10  1  0
 15 13  1  0
 16 15  2  0
 19 11  1  0
 19 15  1  0
 20  1  1  0
 20 14  1  0
 20 17  2  0
 20 18  2  0
M  END
>  <NAME>  (643) 
3-MESYLBENZYL BENZOATE

>  <SYNONYMS>  (643) 
3-METHYLSULFONYLBENZYL BENZOATE

>  <SPECTRUM TYPE>  (643) 
MS1

>  <INSTRUMENT TYPE>  (643) 
EI-B

>  <INSTRUMENT>  (643) 
JEOL JMS-DX-300

>  <ION MODE>  (643) 
P

>  <INCHIKEY>  (643) 
JXJFREBCZWEBPA-UHFFFAOYSA-N

>  <FORMULA>  (643) 
C15H14O4S

>  <EXACT MASS>  (643) 
290.061279928

>  <MW>  (643) 
290

>  <ID>  (643) 
JP011135

>  <CONTRIBUTOR>  (643) 
University of Tokyo Team, {Faculty of Engineering, University of Tokyo

>  <COMMENT>  (643) 
SMILES=O=C(OCc(c2)cc(cc2)S(C)(=O)=O)c(c1)cccc1
InChI=InChI=1S/C15H14O4S/c1-20(17,18)14-9-5-6-12(10-14)11-19-15(16)13-7-3-2-4-8-13/h2-10H,11H2,1H3
computed SMILES=O=C(OCC1=CC=CC(=C1)S(=O)(=O)C)C=2C=CC=CC2
accession=JP011135
date=2016.01.19 (Created 2008.10.21, modified 2011.05.06)
author=SAWADA M, THE INST. OF SCIENTIFIC AND INDUSTRIALRESEARCH OSAKA UNIV.
license=CC BY-NC-SA
exact mass=290.06128
ionization energy=70 eV
ion type=[M]+*
computed spectral entropy=3.303865927427184
computed normalized entropy=0.8244550115279526
SPLASH=splash10-0a73-9610000000-27a4e7d1e93c4a0f5c6b
submitter=submitter = University of Tokyo Team (Faculty of Engineering, University of Tokyo)
MoNA Rating=3.75

>  <NUM PEAKS>  (643) 
55

>  <MASS SPECTRAL PEAKS>  (643) 
27 3.1
38 2.2
39 7.3
40 27
41 6
42 1.5
43 13.9
44 27.2
45 2.4
50 8.4
51 22.6
52 4
55 3.8
57 3.6
60 2
62 1.5
63 8.6
64 3.5
65 4.4
69 3.5
71 1.8
73 2
74 2.7
75 3.1
76 6.9
77 45.8
78 15.9
79 6.6
81 2
89 21.2
90 14.4
91 4.9
92 1.3
94 1.5
105 99.99
106 13.3
107 5.8
121 2.2
122 7.7
135 2.2
149 2.4
165 1.8
166 1.5
167 2
169 13.5
170 1.5
184 2.9
185 37.2
186 8.8
187 2.4
211 1.5
228 6
272 3.5
290 19.5
291 3.5

>  <PREDICTED SPECTRUM>  (643) 
15 23
26 24
27 88
28 28
29 9
33 0
34 16
36 1
37 40
38 128
39 259
40 120
41 92
42 51
43 118
44 113
45 112
47 45
48 7
49 31
50 251
51 436
52 206
53 114
54 18
55 28
56 21
57 45
59 29
61 30
62 148
63 288
64 168
65 237
66 79
67 7
69 83
74 143
75 125
76 173
77 660
78 282
79 300
80 60
81 66
82 35
83 4
87 0
88 61
89 391
90 318
91 273
92 75
93 99
94 41
95 4
96 32
97 22
98 3
100 1
102 12
103 66
104 61
105 999
106 330
107 151
108 45
115 31
116 49
117 13
118 75
119 61
120 63
121 209
122 178
123 126
147 25
149 74
155 6
165 146
166 2
167 102
168 65
169 331
170 85
171 8
183 9
184 125
185 537
186 204
187 64
211 9
245 57
290 458
291 101
292 58

$$$$

     RDKit          2D

 19 20  0  0  0  0  0  0  0  0999 V2000
    0.0000   -1.9300    0.0000 C   0  0  0  0  0  0  0  0  0  0  0  0
    1.3000   -1.1800    0.0000 C   0  0  0  0  0  0  0  0  0  0  0  0
   -1.3000   -1.1800    0.0000 C   0  0  0  0  0  0  0  0  0  0  0  0
   -3.8979    7.8144    0.0000 C   0  0  0  0  0  0  0  0  0  0  0  0
   -2.6001    7.0622    0.0000 C   0  0  0  0  0  0  0  0  0  0  0  0
    1.3000    0.3200    0.0000 C   0  0  0  0  0  0  0  0  0  0  0  0
   -1.3000    0.3200    0.0000 C   0  0  0  0  0  0  0  0  0  0  0  0
   -5.1936    7.0743    0.0000 C   0  0  0  0  0  0  0  0  0  0  0  0
   -3.8989    4.8213    0.0000 C   0  0  0  0  0  0  0  0  0  0  0  0
   -1.2990    4.8200    0.0000 C   0  0  0  0  0  0  0  0  0  0  0  0
   -2.5981    5.5700    0.0000 C   0  0  0  0  0  0  0  0  0  0  0  0
    0.0000    1.0700    0.0000 C   0  0  0  0  0  0  0  0  0  0  0  0
   -5.1966    5.5735    0.0000 C   0  0  0  0  0  0  0  0  0  0  0  0
    0.0000    2.5700    0.0000 C   0  0  0  0  0  0  0  0  0  0  0  0
   -6.4970    4.8259    0.0000 N   0  0  0  0  0  0  0  0  0  0  0  0
    1.2990    3.3200    0.0000 O   0  0  0  0  0  0  0  0  0  0  0  0
   -7.7947    5.5783    0.0000 O   0  0  0  0  0  0  0  0  0  0  0  0
   -6.4998    3.3259    0.0000 O   0  0  0  0  0  0  0  0  0  0  0  0
   -1.2990    3.3200    0.0000 O   0  0  0  0  0  0  0  0  0  0  0  0
  2  1  2  0
  3  1  1  0
  5  4  2  0
  6  2  1  0
  7  3  2  0
  8  4  1  0
 11  5  1  0
 11  9  2  0
 11 10  1  0
 12  6  2  0
 12  7  1  0
 13  8  2  0
 13  9  1  0
 14 12  1  0
 15 13  1  0
 16 14  2  0
 17 15  1  0
 18 15  2  0
 19 10  1  0
 19 14  1  0
M  CHG  2  15   1  17  -1
M  END
>  <NAME>  (644) 
3-NITROBENZYL BENZOATE

>  <SYNONYMS>  (644) 


>  <SPECTRUM TYPE>  (644) 
MS1

>  <INSTRUMENT TYPE>  (644) 
EI-B

>  <INSTRUMENT>  (644) 
JEOL JMS-DX-300

>  <ION MODE>  (644) 
P

>  <INCHIKEY>  (644) 
XYHCAQKUZAEVJN-UHFFFAOYSA-N

>  <FORMULA>  (644) 
C14H11NO4

>  <EXACT MASS>  (644) 
257.068807832

>  <MW>  (644) 
257

>  <ID>  (644) 
JP011134

>  <CONTRIBUTOR>  (644) 
University of Tokyo Team, {Faculty of Engineering, University of Tokyo

>  <COMMENT>  (644) 
SMILES=[O-1][N+1](=O)c(c2)cc(cc2)COC(=O)c(c1)cccc1
InChI=InChI=1S/C14H11NO4/c16-14(12-6-2-1-3-7-12)19-10-11-5-4-8-13(9-11)15(17)18/h1-9H,10H2
computed SMILES=O=C(OCC=1C=CC=C(C1)N(=O)=O)C=2C=CC=CC2
accession=JP011134
date=2016.01.19 (Created 2008.10.21, modified 2011.05.06)
author=SAWADA M, THE INST. OF SCIENTIFIC AND INDUSTRIALRESEARCH OSAKA UNIV.
license=CC BY-NC-SA
exact mass=257.06881
ionization energy=70 eV
ion type=[M]+*
computed spectral entropy=2.4479651658743284
computed normalized entropy=0.7197362843664236
SPLASH=splash10-0a4r-7900000000-29c8cdfa27bf932c5090
submitter=submitter = University of Tokyo Team (Faculty of Engineering, University of Tokyo)
MoNA Rating=3.75

>  <NUM PEAKS>  (644) 
30

>  <MASS SPECTRAL PEAKS>  (644) 
27 1.2
30 1.7
38 1
39 3.9
44 1.6
50 6.2
51 17.8
52 2.1
62 1.2
63 5.8
64 2.3
74 1.6
75 1.8
76 5.1
77 39.7
78 7.3
89 14.9
90 12.8
91 1.2
105 99.99
106 9.6
135 30.8
136 11.2
152 1.4
165 1.7
166 1.2
210 1.2
212 2.1
240 2.9
257 2.8

>  <PREDICTED SPECTRUM>  (644) 
30 23
37 19
38 66
39 127
40 36
44 1
46 32
50 226
51 363
52 82
53 17
55 11
57 9
61 10
62 93
63 191
64 96
65 64
66 7
74 123
75 112
76 143
77 632
78 288
79 47
83 20
89 427
90 317
91 87
92 26
94 1
102 40
103 117
104 34
105 999
106 361
107 64
117 15
121 51
122 104
123 42
134 58
135 442
136 388
137 108
151 34
152 102
153 16
165 63
210 101
211 9
212 226
240 27
257 262
258 92

$$$$

     RDKit          2D

 17 18  0  0  0  0  0  0  0  0999 V2000
    3.2481    2.1950    0.0000 C   0  0  0  0  0  0  0  0  0  0  0  0
    3.2486    3.6958    0.0000 C   0  0  0  0  0  0  0  0  0  0  0  0
    1.9486    1.4442    0.0000 C   0  0  0  0  0  0  0  0  0  0  0  0
   -5.8447    1.4442    0.0000 C   0  0  0  0  0  0  0  0  0  0  0  0
   -7.1442    2.1950    0.0000 C   0  0  0  0  0  0  0  0  0  0  0  0
    1.9495    4.4458    0.0000 C   0  0  0  0  0  0  0  0  0  0  0  0
    0.6495    2.1942    0.0000 C   0  0  0  0  0  0  0  0  0  0  0  0
   -4.5457    2.1942    0.0000 C   0  0  0  0  0  0  0  0  0  0  0  0
   -7.1447    3.6958    0.0000 C   0  0  0  0  0  0  0  0  0  0  0  0
   -3.2471    4.4450    0.0000 C   0  0  0  0  0  0  0  0  0  0  0  0
    0.6500    3.6950    0.0000 C   0  0  0  0  0  0  0  0  0  0  0  0
   -4.5462    3.6950    0.0000 C   0  0  0  0  0  0  0  0  0  0  0  0
   -5.8457    4.4458    0.0000 C   0  0  0  0  0  0  0  0  0  0  0  0
   -0.6490    4.4450    0.0000 C   0  0  0  0  0  0  0  0  0  0  0  0
   -5.8454    5.9458    0.0000 Br  0  0  0  0  0  0  0  0  0  0  0  0
   -0.6490    5.9450    0.0000 O   0  0  0  0  0  0  0  0  0  0  0  0
   -1.9481    3.6950    0.0000 O   0  0  0  0  0  0  0  0  0  0  0  0
  2  1  2  0
  3  1  1  0
  5  4  2  0
  6  2  1  0
  7  3  2  0
  8  4  1  0
  9  5  1  0
 11  6  2  0
 11  7  1  0
 12  8  2  0
 12 10  1  0
 13  9  2  0
 13 12  1  0
 14 11  1  0
 15 13  1  0
 16 14  2  0
 17 10  1  0
 17 14  1  0
M  END
>  <NAME>  (645) 
2-BROMOBENZYL BENZOATE

>  <SYNONYMS>  (645) 


>  <SPECTRUM TYPE>  (645) 
MS1

>  <INSTRUMENT TYPE>  (645) 
EI-B

>  <INSTRUMENT>  (645) 
JEOL JMS-DX-300

>  <ION MODE>  (645) 
P

>  <INCHIKEY>  (645) 
DETHHGJSHHWELU-UHFFFAOYSA-N

>  <FORMULA>  (645) 
C14H11BrO2

>  <EXACT MASS>  (645) 
289.994241692

>  <MW>  (645) 
290

>  <ID>  (645) 
JP011133

>  <CONTRIBUTOR>  (645) 
University of Tokyo Team, {Faculty of Engineering, University of Tokyo

>  <COMMENT>  (645) 
SMILES=O=C(OCc(c2)c(Br)ccc2)c(c1)cccc1
InChI=InChI=1S/C14H11BrO2/c15-13-9-5-4-8-12(13)10-17-14(16)11-6-2-1-3-7-11/h1-9H,10H2
computed SMILES=O=C(OCC=1C=CC=CC1Br)C=2C=CC=CC2
accession=JP011133
date=2016.01.19 (Created 2008.10.21, modified 2011.05.06)
author=SAWADA M, THE INST. OF SCIENTIFIC AND INDUSTRIALRESEARCH OSAKA UNIV.
license=CC BY-NC-SA
exact mass=289.99424
ionization energy=70 eV
ion type=[M]+*
computed spectral entropy=2.641518147670602
computed normalized entropy=0.7371296742214649
SPLASH=splash10-0bt9-9840000000-f1d85ca205bbce5ea5c0
submitter=submitter = University of Tokyo Team (Faculty of Engineering, University of Tokyo)
MoNA Rating=3.75

>  <NUM PEAKS>  (645) 
36

>  <MASS SPECTRAL PEAKS>  (645) 
27 1.5
29 1.8
38 1.4
39 5.3
40 2.7
44 1.7
50 9.4
51 23.9
52 2.1
62 2.2
63 7.2
64 2.2
74 2.4
75 3.7
76 5.3
77 44.8
78 7.6
89 17.4
90 15.6
91 2.2
105 99.99
106 8.6
122 1
155 1.3
157 2.2
165 1.4
166 1.2
167 1.5
169 13.4
170 1
171 13.1
172 1
185 2.2
187 1
211 63.7
212 10.4

>  <PREDICTED SPECTRUM>  (645) 
26 25
27 62
29 49
30 2
36 4
37 52
38 139
39 204
40 76
41 50
43 32
44 55
45 24
49 18
50 294
51 448
52 137
53 48
54 15
61 46
62 124
63 228
64 128
65 100
66 25
69 31
74 164
75 217
76 222
77 718
78 271
79 95
80 15
81 36
82 40
85 12
86 1
87 18
88 35
89 388
90 349
91 51
93 10
104 46
105 999
106 332
107 71
114 17
115 28
116 56
122 13
130 0
155 44
157 142
165 224
166 161
167 147
168 106
169 378
170 108
171 435
183 92
184 5
185 182
186 76
187 35
194 26
211 682
212 251
213 51
245 43
290 47
292 54
293 7

$$$$

     RDKit          2D

 21 22  0  0  0  0  0  0  0  0999 V2000
   -5.1966   -3.0004    0.0000 C   0  0  0  0  0  0  0  0  0  0  0  0
   -7.7956    1.4998    0.0000 C   0  0  0  0  0  0  0  0  0  0  0  0
    3.8978   -0.7492    0.0000 C   0  0  0  0  0  0  0  0  0  0  0  0
    3.8981    0.7517    0.0000 C   0  0  0  0  0  0  0  0  0  0  0  0
    2.5984   -1.5002    0.0000 C   0  0  0  0  0  0  0  0  0  0  0  0
    2.5989    1.5015    0.0000 C   0  0  0  0  0  0  0  0  0  0  0  0
    1.2993   -0.7504    0.0000 C   0  0  0  0  0  0  0  0  0  0  0  0
   -3.8966   -0.7504    0.0000 C   0  0  0  0  0  0  0  0  0  0  0  0
   -5.1966    1.4996    0.0000 C   0  0  0  0  0  0  0  0  0  0  0  0
   -2.5977    1.4998    0.0000 C   0  0  0  0  0  0  0  0  0  0  0  0
   -5.1966   -1.5004    0.0000 C   0  0  0  0  0  0  0  0  0  0  0  0
   -6.4966    0.7496    0.0000 C   0  0  0  0  0  0  0  0  0  0  0  0
   -3.8966    0.7496    0.0000 C   0  0  0  0  0  0  0  0  0  0  0  0
    1.2995    0.7504    0.0000 C   0  0  0  0  0  0  0  0  0  0  0  0
   -6.4966   -0.7504    0.0000 C   0  0  0  0  0  0  0  0  0  0  0  0
    0.0004    1.5002    0.0000 C   0  0  0  0  0  0  0  0  0  0  0  0
   -7.7956   -1.5006    0.0000 N   0  0  0  0  0  0  0  0  0  0  0  0
    0.0001    3.0002    0.0000 O   0  0  0  0  0  0  0  0  0  0  0  0
   -9.0947   -0.7508    0.0000 O   0  0  0  0  0  0  0  0  0  0  0  0
   -7.7953   -3.0006    0.0000 O   0  0  0  0  0  0  0  0  0  0  0  0
   -1.2986    0.7500    0.0000 O   0  0  0  0  0  0  0  0  0  0  0  0
  4  3  2  0
  5  3  1  0
  6  4  1  0
  7  5  2  0
 11  1  1  0
 11  8  2  0
 12  2  1  0
 12  9  1  0
 13  8  1  0
 13  9  2  0
 13 10  1  0
 14  6  2  0
 14  7  1  0
 15 11  1  0
 15 12  2  0
 16 14  1  0
 17 15  1  0
 18 16  2  0
 19 17  1  0
 20 17  2  0
 21 10  1  0
 21 16  1  0
M  CHG  2  17   1  19  -1
M  END
>  <NAME>  (646) 
3,5-DIMETHYL-4-NITROBENZYL BENZOATE

>  <SYNONYMS>  (646) 


>  <SPECTRUM TYPE>  (646) 
MS1

>  <INSTRUMENT TYPE>  (646) 
EI-B

>  <INSTRUMENT>  (646) 
JEOL JMS-DX-300

>  <ION MODE>  (646) 
P

>  <INCHIKEY>  (646) 
KCQCEOIBHFFCEK-UHFFFAOYSA-N

>  <FORMULA>  (646) 
C16H15NO4

>  <EXACT MASS>  (646) 
285.10010796

>  <MW>  (646) 
285

>  <ID>  (646) 
JP011132

>  <CONTRIBUTOR>  (646) 
University of Tokyo Team, {Faculty of Engineering, University of Tokyo

>  <COMMENT>  (646) 
SMILES=[O-1][N+1](=O)c(c(C)1)c(C)cc(COC(=O)c(c2)cccc2)c1
InChI=InChI=1S/C16H15NO4/c1-11-8-13(9-12(2)15(11)17(19)20)10-21-16(18)14-6-4-3-5-7-14/h3-9H,10H2,1-2H3
computed SMILES=O=C(OCC=1C=C(C(=C(C1)C)N(=O)=O)C)C=2C=CC=CC2
accession=JP011132
date=2016.01.19 (Created 2008.10.21, modified 2011.05.06)
author=SAWADA M, THE INST. OF SCIENTIFIC AND INDUSTRIALRESEARCH OSAKA UNIV.
license=CC BY-NC-SA
exact mass=285.10011
ionization energy=70 eV
ion type=[M]+*
computed spectral entropy=2.550090694782
computed normalized entropy=0.7010392559261921
SPLASH=splash10-0a4i-5900000000-f7c8c3731cba6e201434
submitter=submitter = University of Tokyo Team (Faculty of Engineering, University of Tokyo)
MoNA Rating=3.75

>  <NUM PEAKS>  (646) 
38

>  <MASS SPECTRAL PEAKS>  (646) 
27 1.8
30 1.9
32 1.8
39 4.7
41 1.2
50 2.7
51 11.1
52 1.9
53 1.8
63 1.8
65 3.7
76 1.7
77 36.2
78 5.8
79 2.8
89 1.2
91 11.9
92 1.3
102 1
103 2.8
104 1.9
105 99.99
106 12.4
107 1.2
115 4.7
116 1.5
117 7.7
118 2.1
119 1
133 1.3
134 6.2
135 1.7
146 2.8
148 1
163 2.2
164 1.8
285 11.6
286 2

>  <PREDICTED SPECTRUM>  (646) 
33 2
34 4
38 26
39 132
40 61
41 95
42 38
43 74
44 95
45 32
46 17
50 134
51 346
52 100
53 99
62 58
63 163
64 63
65 193
66 48
69 9
74 66
75 91
76 90
77 660
78 228
79 121
88 2
89 169
90 94
91 322
92 100
93 39
94 0
102 109
103 183
104 135
105 999
106 268
107 93
115 54
116 82
117 127
118 87
119 105
120 47
121 23
122 25
131 19
132 45
133 76
134 88
135 57
136 11
147 18
148 66
149 89
163 267
164 175
165 47
180 9
181 10
240 35
269 1
285 230
286 86

$$$$

     RDKit          2D

 22 24  0  0  0  0  0  0  0  0999 V2000
   -5.1970    3.3210    0.0000 C   0  0  0  0  0  0  0  0  0  0  0  0
    9.0946    5.5706    0.0000 C   0  0  0  0  0  0  0  0  0  0  0  0
   -3.8975    2.5702    0.0000 C   0  0  0  0  0  0  0  0  0  0  0  0
   -5.1975    4.8219    0.0000 C   0  0  0  0  0  0  0  0  0  0  0  0
    9.0951    7.0715    0.0000 C   0  0  0  0  0  0  0  0  0  0  0  0
    7.7951    4.8198    0.0000 C   0  0  0  0  0  0  0  0  0  0  0  0
   -2.5984    3.3202    0.0000 C   0  0  0  0  0  0  0  0  0  0  0  0
   -3.8984    5.5719    0.0000 C   0  0  0  0  0  0  0  0  0  0  0  0
    7.7960    7.8215    0.0000 C   0  0  0  0  0  0  0  0  0  0  0  0
    6.4960    5.5698    0.0000 C   0  0  0  0  0  0  0  0  0  0  0  0
    1.3001    5.5706    0.0000 C   0  0  0  0  0  0  0  0  0  0  0  0
    0.0005    7.8208    0.0000 C   0  0  0  0  0  0  0  0  0  0  0  0
    0.0000    4.8208    0.0000 C   0  0  0  0  0  0  0  0  0  0  0  0
   -1.2996    7.0710    0.0000 C   0  0  0  0  0  0  0  0  0  0  0  0
    2.5994    7.8206    0.0000 C   0  0  0  0  0  0  0  0  0  0  0  0
    1.3004    7.0706    0.0000 C   0  0  0  0  0  0  0  0  0  0  0  0
   -2.5989    4.8210    0.0000 C   0  0  0  0  0  0  0  0  0  0  0  0
   -1.2999    5.5710    0.0000 C   0  0  0  0  0  0  0  0  0  0  0  0
    6.4965    7.0706    0.0000 C   0  0  0  0  0  0  0  0  0  0  0  0
    5.1975    7.8206    0.0000 C   0  0  0  0  0  0  0  0  0  0  0  0
    5.1975    9.3206    0.0000 O   0  0  0  0  0  0  0  0  0  0  0  0
    3.8984    7.0706    0.0000 O   0  0  0  0  0  0  0  0  0  0  0  0
  3  1  2  0
  4  1  1  0
  5  2  2  0
  6  2  1  0
  7  3  1  0
  8  4  2  0
  9  5  1  0
 10  6  2  0
 13 11  2  0
 14 12  1  0
 16 11  1  0
 16 12  2  0
 16 15  1  0
 17  7  2  0
 17  8  1  0
 18 13  1  0
 18 14  2  0
 18 17  1  0
 19  9  2  0
 19 10  1  0
 20 19  1  0
 21 20  2  0
 22 15  1  0
 22 20  1  0
M  END
>  <NAME>  (647) 
4-BIPHENYLYLMETHYL BENZOATE

>  <SYNONYMS>  (647) 


>  <SPECTRUM TYPE>  (647) 
MS1

>  <INSTRUMENT TYPE>  (647) 
EI-B

>  <INSTRUMENT>  (647) 
JEOL JMS-DX-300

>  <ION MODE>  (647) 
P

>  <INCHIKEY>  (647) 
OANDQJPNJDEYHN-UHFFFAOYSA-N

>  <FORMULA>  (647) 
C20H16O2

>  <EXACT MASS>  (647) 
288.115029752

>  <MW>  (647) 
288

>  <ID>  (647) 
JP011131

>  <CONTRIBUTOR>  (647) 
University of Tokyo Team, {Faculty of Engineering, University of Tokyo

>  <COMMENT>  (647) 
SMILES=O=C(OCc(c3)ccc(c3)c(c2)cccc2)c(c1)cccc1
InChI=InChI=1S/C20H16O2/c21-20(19-9-5-2-6-10-19)22-15-16-11-13-18(14-12-16)17-7-3-1-4-8-17/h1-14H,15H2
computed SMILES=O=C(OCC=1C=CC(=CC1)C=2C=CC=CC2)C=3C=CC=CC3
accession=JP011131
date=2016.01.19 (Created 2008.10.21, modified 2011.05.06)
author=SAWADA M, THE INST. OF SCIENTIFIC AND INDUSTRIALRESEARCH OSAKA UNIV.
license=CC BY-NC-SA
exact mass=288.11503
ionization energy=70 eV
ion type=[M]+*
computed spectral entropy=3.3121660010626077
computed normalized entropy=0.7994347806177527
SPLASH=splash10-066r-5910000000-7e0d21d6a5ad8f8a7c2d
submitter=submitter = University of Tokyo Team (Faculty of Engineering, University of Tokyo)
MoNA Rating=3.75

>  <NUM PEAKS>  (647) 
63

>  <MASS SPECTRAL PEAKS>  (647) 
27 3.6
29 10.7
34 1.6
39 6.7
40 25.6
41 4.9
42 1.6
43 5.1
44 15.1
45 1.6
50 6.2
51 20
52 2.2
55 4
57 3.8
60 1.6
63 3.8
65 2.7
69 3.3
71 1.6
73 1.3
74 2.2
75 2
76 4
77 49.3
78 6.4
81 1.6
83 1.3
89 2.4
91 1.5
102 2.7
105 99.99
106 10
115 6.9
122 3.3
126 1.8
127 3.3
128 4
129 1.8
139 4.2
141 2.4
144 1.1
149 2
150 1.3
151 5.6
152 24
153 10.4
154 3.8
155 7.1
163 2.2
164 2.7
165 45.8
166 16.4
167 60
168 9.8
178 1.8
179 1.6
181 4.4
182 6.7
183 4.2
288 52.7
289 11.3
290 1.6

>  <PREDICTED SPECTRUM>  (647) 
27 40
29 16
33 6
34 0
37 16
38 68
39 211
40 129
41 105
42 56
43 137
44 139
45 45
50 174
51 387
52 142
53 71
54 14
55 48
57 72
61 11
62 62
63 161
64 77
65 142
66 39
67 38
69 19
70 9
74 96
75 130
76 134
77 646
78 225
79 67
82 11
83 43
87 20
88 24
89 199
90 64
91 152
92 36
93 16
94 67
95 28
102 33
105 999
106 318
108 25
110 36
113 63
114 36
115 191
116 18
121 4
122 153
123 59
126 104
127 103
128 141
137 59
139 247
140 119
141 136
151 245
152 427
153 290
154 114
155 181
163 38
164 88
165 543
166 420
167 605
168 205
169 2
178 146
181 188
182 230
183 200
184 23
243 25
288 596
289 269
290 103

$$$$

     RDKit          2D

 22 24  0  0  0  0  0  0  0  0999 V2000
    9.0913    7.0769    0.0000 C   0  0  0  0  0  0  0  0  0  0  0  0
   -5.1958    3.3114    0.0000 C   0  0  0  0  0  0  0  0  0  0  0  0
    7.7918    7.8278    0.0000 C   0  0  0  0  0  0  0  0  0  0  0  0
    9.0918    5.5761    0.0000 C   0  0  0  0  0  0  0  0  0  0  0  0
   -3.8949    2.5629    0.0000 C   0  0  0  0  0  0  0  0  0  0  0  0
   -5.1990    4.8122    0.0000 C   0  0  0  0  0  0  0  0  0  0  0  0
    3.8996    2.5837    0.0000 C   0  0  0  0  0  0  0  0  0  0  0  0
    2.6004    3.3335    0.0000 C   0  0  0  0  0  0  0  0  0  0  0  0
    6.4928    7.0778    0.0000 C   0  0  0  0  0  0  0  0  0  0  0  0
    7.7928    4.8261    0.0000 C   0  0  0  0  0  0  0  0  0  0  0  0
   -2.5973    3.3153    0.0000 C   0  0  0  0  0  0  0  0  0  0  0  0
   -3.9014    5.5646    0.0000 C   0  0  0  0  0  0  0  0  0  0  0  0
    5.1940    3.3261    0.0000 C   0  0  0  0  0  0  0  0  0  0  0  0
    3.8950    5.5767    0.0000 C   0  0  0  0  0  0  0  0  0  0  0  0
    1.2952    5.5733    0.0000 C   0  0  0  0  0  0  0  0  0  0  0  0
    2.5957    4.8257    0.0000 C   0  0  0  0  0  0  0  0  0  0  0  0
    6.4932    5.5769    0.0000 C   0  0  0  0  0  0  0  0  0  0  0  0
   -2.6005    4.8161    0.0000 C   0  0  0  0  0  0  0  0  0  0  0  0
    5.1942    4.8269    0.0000 C   0  0  0  0  0  0  0  0  0  0  0  0
   -1.3028    5.5685    0.0000 C   0  0  0  0  0  0  0  0  0  0  0  0
   -1.3056    7.0685    0.0000 O   0  0  0  0  0  0  0  0  0  0  0  0
   -0.0024    4.8209    0.0000 O   0  0  0  0  0  0  0  0  0  0  0  0
  3  1  2  0
  4  1  1  0
  5  2  2  0
  6  2  1  0
  8  7  2  0
  9  3  1  0
 10  4  2  0
 11  5  1  0
 12  6  2  0
 13  7  1  0
 16  8  1  0
 16 14  2  0
 16 15  1  0
 17  9  2  0
 17 10  1  0
 18 11  2  0
 18 12  1  0
 19 13  2  0
 19 14  1  0
 19 17  1  0
 20 18  1  0
 21 20  2  0
 22 15  1  0
 22 20  1  0
M  END
>  <NAME>  (648) 
3-BIPHENYLYLMETHYL BENZOATE

>  <SYNONYMS>  (648) 


>  <SPECTRUM TYPE>  (648) 
MS1

>  <INSTRUMENT TYPE>  (648) 
EI-B

>  <INSTRUMENT>  (648) 
JEOL JMS-DX-300

>  <ION MODE>  (648) 
P

>  <INCHIKEY>  (648) 
FDPBBCMRELYSTJ-UHFFFAOYSA-N

>  <FORMULA>  (648) 
C20H16O2

>  <EXACT MASS>  (648) 
288.115029752

>  <MW>  (648) 
288

>  <ID>  (648) 
JP011130

>  <CONTRIBUTOR>  (648) 
University of Tokyo Team, {Faculty of Engineering, University of Tokyo

>  <COMMENT>  (648) 
SMILES=O=C(OCc(c3)cc(cc3)c(c2)cccc2)c(c1)cccc1
InChI=InChI=1S/C20H16O2/c21-20(18-11-5-2-6-12-18)22-15-16-8-7-13-19(14-16)17-9-3-1-4-10-17/h1-14H,15H2
computed SMILES=O=C(OCC1=CC=CC(=C1)C=2C=CC=CC2)C=3C=CC=CC3
accession=JP011130
date=2016.01.19 (Created 2008.10.21, modified 2011.05.06)
author=SAWADA M, THE INST. OF SCIENTIFIC AND INDUSTRIALRESEARCH OSAKA UNIV.
license=CC BY-NC-SA
exact mass=288.11503
ionization energy=70 eV
ion type=[M]+*
computed spectral entropy=3.0492567086572566
computed normalized entropy=0.7919843663403754
SPLASH=splash10-0a4i-4910000000-acc85d5e4cf2694b0686
submitter=submitter = University of Tokyo Team (Faculty of Engineering, University of Tokyo)
MoNA Rating=3.75

>  <NUM PEAKS>  (648) 
47

>  <MASS SPECTRAL PEAKS>  (648) 
27 3.6
29 6.2
39 3.8
40 11.3
41 3.8
43 3.6
44 7.1
50 4
51 14.2
55 2.2
57 2.3
63 2.8
69 2.2
74 1.6
75 1.6
76 2.8
77 37.3
78 4
89 1.8
105 99.99
106 8
115 4.7
122 1.6
126 1.6
127 2.4
128 2.7
139 2.7
141 1.8
149 1.6
151 3.8
152 18.4
153 8.4
154 1.8
155 6.9
163 1.6
164 1.6
165 26
166 6.4
167 17.6
168 3.6
178 1.6
179 1.6
181 2.2
182 7.8
183 2.7
288 30.7
289 7.1

>  <PREDICTED SPECTRUM>  (648) 
27 31
29 8
33 6
34 0
38 31
39 173
40 104
41 77
42 1
43 112
44 91
45 44
50 148
51 342
52 116
53 53
54 9
55 28
57 49
61 31
62 57
63 146
64 45
65 93
66 19
70 6
74 55
75 88
76 117
77 596
78 196
79 56
82 7
83 31
87 23
88 27
89 163
90 38
91 90
92 31
94 14
96 2
102 17
105 999
106 296
110 13
112 11
113 53
114 58
115 192
116 18
122 91
123 52
124 23
125 44
126 107
127 96
128 109
137 28
138 51
139 236
140 169
141 93
150 39
151 229
152 333
153 251
154 117
155 134
164 91
165 446
166 370
167 527
168 251
169 48
176 8
178 144
181 90
182 157
183 258
184 86
189 32
288 523
289 246
290 81
291 12

$$$$

     RDKit          2D

 23 26  0  0  0  0  0  0  0  0999 V2000
  -10.6354   -3.6640    0.0000 C   0  0  0  0  0  0  0  0  0  0  0  0
   -9.1679   -3.9788    0.0000 C   0  0  0  0  0  0  0  0  0  0  0  0
  -11.0973   -2.2360    0.0000 C   0  0  0  0  0  0  0  0  0  0  0  0
    3.6900    0.1600    0.0000 C   0  0  0  0  0  0  0  0  0  0  0  0
    3.2200   -1.2700    0.0000 C   0  0  0  0  0  0  0  0  0  0  0  0
   -8.1625   -2.8657    0.0000 C   0  0  0  0  0  0  0  0  0  0  0  0
  -10.0918   -1.1229    0.0000 C   0  0  0  0  0  0  0  0  0  0  0  0
    2.6800    1.2700    0.0000 C   0  0  0  0  0  0  0  0  0  0  0  0
    1.7500   -1.5800    0.0000 C   0  0  0  0  0  0  0  0  0  0  0  0
   -3.2200   -1.2700    0.0000 C   0  0  0  0  0  0  0  0  0  0  0  0
   -1.7500   -1.5800    0.0000 C   0  0  0  0  0  0  0  0  0  0  0  0
   -2.6800    1.2700    0.0000 C   0  0  0  0  0  0  0  0  0  0  0  0
   -0.0000    1.8400    0.0000 C   0  0  0  0  0  0  0  0  0  0  0  0
   -5.1467    0.4742    0.0000 C   0  0  0  0  0  0  0  0  0  0  0  0
   -3.6800    0.1600    0.0000 C   0  0  0  0  0  0  0  0  0  0  0  0
   -8.6244   -1.4378    0.0000 C   0  0  0  0  0  0  0  0  0  0  0  0
    1.2100    0.9600    0.0000 C   0  0  0  0  0  0  0  0  0  0  0  0
   -1.2100    0.9600    0.0000 C   0  0  0  0  0  0  0  0  0  0  0  0
    0.7500   -0.4700    0.0000 C   0  0  0  0  0  0  0  0  0  0  0  0
   -0.7500   -0.4700    0.0000 C   0  0  0  0  0  0  0  0  0  0  0  0
   -7.6189   -0.3247    0.0000 C   0  0  0  0  0  0  0  0  0  0  0  0
   -8.0802    1.1027    0.0000 O   0  0  0  0  0  0  0  0  0  0  0  0
   -6.1522   -0.6389    0.0000 O   0  0  0  0  0  0  0  0  0  0  0  0
  2  1  2  0
  3  1  1  0
  5  4  2  0
  6  2  1  0
  7  3  2  0
  8  4  1  0
  9  5  1  0
 11 10  1  0
 15 10  2  0
 15 12  1  0
 15 14  1  0
 16  6  2  0
 16  7  1  0
 17  8  2  0
 17 13  1  0
 18 12  2  0
 18 13  1  0
 19  9  2  0
 19 17  1  0
 20 11  2  0
 20 18  1  0
 20 19  1  0
 21 16  1  0
 22 21  2  0
 23 14  1  0
 23 21  1  0
M  END
>  <NAME>  (649) 
2-FLUORENYLMETHYL BENZOATE

>  <SYNONYMS>  (649) 


>  <SPECTRUM TYPE>  (649) 
MS1

>  <INSTRUMENT TYPE>  (649) 
EI-B

>  <INSTRUMENT>  (649) 
JEOL JMS-DX-300

>  <ION MODE>  (649) 
P

>  <INCHIKEY>  (649) 
LQPJXAWZOHNCKS-UHFFFAOYSA-N

>  <FORMULA>  (649) 
C21H16O2

>  <EXACT MASS>  (649) 
300.115029752

>  <MW>  (649) 
300

>  <ID>  (649) 
JP011129

>  <CONTRIBUTOR>  (649) 
University of Tokyo Team, {Faculty of Engineering, University of Tokyo

>  <COMMENT>  (649) 
SMILES=O=C(OCc(c4)cc(C2)c(c4)c(c3)c(ccc3)2)c(c1)cccc1
InChI=InChI=1S/C21H16O2/c22-21(16-6-2-1-3-7-16)23-14-15-10-11-20-18(12-15)13-17-8-4-5-9-19(17)20/h1-12H,13-14H2
computed SMILES=O=C(OCC1=CC=C2C=3C=CC=CC3CC2=C1)C=4C=CC=CC4
accession=JP011129
date=2016.01.19 (Created 2008.10.21, modified 2011.05.06)
author=SAWADA M, THE INST. OF SCIENTIFIC AND INDUSTRIALRESEARCH OSAKA UNIV.
license=CC BY-NC-SA
exact mass=300.11503
ionization energy=70 eV
ion type=[M]+*
computed spectral entropy=3.1110624492625525
computed normalized entropy=0.7728672395068117
SPLASH=splash10-004i-3901000000-2c91236c03c94768682c
submitter=submitter = University of Tokyo Team (Faculty of Engineering, University of Tokyo)
MoNA Rating=3.75

>  <NUM PEAKS>  (649) 
56

>  <MASS SPECTRAL PEAKS>  (649) 
27 2.9
29 5.8
39 4.2
40 8.9
41 3.6
43 3.8
44 19.3
45 1.6
50 6.9
51 21.8
52 2.2
55 2.4
57 2.7
63 3.3
65 1.6
69 2.2
71 1.3
74 2.7
75 2.9
76 4.9
77 50.4
78 6.2
87 1.5
88 1.6
89 3.3
105 77.6
106 8.4
113 1.5
115 4.4
122 4.4
126 1.3
127 1.4
128 2.2
139 5.3
141 2.2
149 1.8
150 4.2
151 6.4
152 16.9
153 2.4
163 7.1
164 6.4
165 37.8
166 12.9
167 13.6
168 1.6
176 11.3
177 11.3
178 98.9
179 99.99
180 17.1
181 1.3
194 6
195 3.3
300 76.2
301 2.2

>  <PREDICTED SPECTRUM>  (649) 
27 9
33 1
34 16
38 48
39 208
40 136
41 131
42 35
43 193
44 129
45 26
50 194
51 412
52 156
53 42
55 94
56 100
57 154
62 51
63 189
64 95
65 136
66 36
69 38
70 53
71 1
74 92
75 147
76 162
77 658
78 250
79 90
83 67
88 56
89 199
90 22
91 79
92 5
93 0
94 54
101 20
103 27
105 999
106 335
107 135
108 6
113 28
114 8
115 149
120 6
121 34
122 168
125 31
126 70
127 69
128 127
135 55
139 308
140 68
149 124
150 199
151 297
152 333
153 163
163 279
164 337
165 657
166 314
167 209
168 61
176 273
177 281
178 923
179 967
180 567
181 167
182 10
187 56
189 111
193 35
194 209
195 220
196 9
238 23
300 793
301 315
302 114
303 17

$$$$

     RDKit          2D

 20 22  0  0  0  0  0  0  0  0999 V2000
    6.3762    7.2300    0.0000 C   0  0  0  0  0  0  0  0  0  0  0  0
    5.0766    7.9808    0.0000 C   0  0  0  0  0  0  0  0  0  0  0  0
    6.3766    5.7292    0.0000 C   0  0  0  0  0  0  0  0  0  0  0  0
   -2.7200   -1.0200    0.0000 C   0  0  0  0  0  0  0  0  0  0  0  0
   -2.7200    0.4800    0.0000 C   0  0  0  0  0  0  0  0  0  0  0  0
    2.4800   -1.0200    0.0000 C   0  0  0  0  0  0  0  0  0  0  0  0
   -1.4200   -1.7700    0.0000 C   0  0  0  0  0  0  0  0  0  0  0  0
    3.7776    7.2308    0.0000 C   0  0  0  0  0  0  0  0  0  0  0  0
    5.0776    4.9792    0.0000 C   0  0  0  0  0  0  0  0  0  0  0  0
    1.1800   -1.7700    0.0000 C   0  0  0  0  0  0  0  0  0  0  0  0
    2.4800    0.4800    0.0000 C   0  0  0  0  0  0  0  0  0  0  0  0
   -1.4200    1.2300    0.0000 C   0  0  0  0  0  0  0  0  0  0  0  0
    1.1800    2.7300    0.0000 C   0  0  0  0  0  0  0  0  0  0  0  0
   -0.1200   -1.0200    0.0000 C   0  0  0  0  0  0  0  0  0  0  0  0
    3.7781    5.7300    0.0000 C   0  0  0  0  0  0  0  0  0  0  0  0
    1.1800    1.2300    0.0000 C   0  0  0  0  0  0  0  0  0  0  0  0
   -0.1200    0.4800    0.0000 C   0  0  0  0  0  0  0  0  0  0  0  0
    2.4790    4.9800    0.0000 C   0  0  0  0  0  0  0  0  0  0  0  0
    1.1800    5.7300    0.0000 O   0  0  0  0  0  0  0  0  0  0  0  0
    2.4790    3.4800    0.0000 O   0  0  0  0  0  0  0  0  0  0  0  0
  2  1  2  0
  3  1  1  0
  5  4  2  0
  7  4  1  0
  8  2  1  0
  9  3  2  0
 10  6  2  0
 11  6  1  0
 12  5  1  0
 14  7  2  0
 14 10  1  0
 15  8  2  0
 15  9  1  0
 16 11  2  0
 16 13  1  0
 17 12  2  0
 17 14  1  0
 17 16  1  0
 18 15  1  0
 19 18  2  0
 20 13  1  0
 20 18  1  0
M  END
>  <NAME>  (650) 
1-NAPHTHYLMETHYL BENZOATE

>  <SYNONYMS>  (650) 


>  <SPECTRUM TYPE>  (650) 
MS1

>  <INSTRUMENT TYPE>  (650) 
EI-B

>  <INSTRUMENT>  (650) 
JEOL JMS-DX-300

>  <ION MODE>  (650) 
P

>  <INCHIKEY>  (650) 
GTIYNZXGIAGLFB-UHFFFAOYSA-N

>  <FORMULA>  (650) 
C18H14O2

>  <EXACT MASS>  (650) 
262.099379688

>  <MW>  (650) 
262

>  <ID>  (650) 
JP011128

>  <CONTRIBUTOR>  (650) 
University of Tokyo Team, {Faculty of Engineering, University of Tokyo

>  <COMMENT>  (650) 
SMILES=O=C(OCc(c2)c(c3)c(ccc3)cc2)c(c1)cccc1
InChI=InChI=1S/C18H14O2/c19-18(15-8-2-1-3-9-15)20-13-16-11-6-10-14-7-4-5-12-17(14)16/h1-12H,13H2
computed SMILES=O=C(OCC1=CC=CC=2C=CC=CC21)C=3C=CC=CC3
accession=JP011128
date=2016.01.19 (Created 2008.10.21, modified 2011.05.06)
author=SAWADA M, THE INST. OF SCIENTIFIC AND INDUSTRIALRESEARCH OSAKA UNIV.
license=CC BY-NC-SA
exact mass=262.09938
ionization energy=70 eV
ion type=[M]+*
computed spectral entropy=2.8804642533913167
computed normalized entropy=0.7658364789931316
SPLASH=splash10-0a6u-2910000000-ee96218db4dd3b39d8c9
submitter=submitter = University of Tokyo Team (Faculty of Engineering, University of Tokyo)
MoNA Rating=3.75

>  <NUM PEAKS>  (650) 
43

>  <MASS SPECTRAL PEAKS>  (650) 
27 1.7
29 2.4
39 3.7
40 4.8
44 3.2
50 6
51 18.3
52 1.7
62 1
63 4.2
65 1.8
74 2.2
75 3.2
76 3.3
77 38.2
78 4
87 1.2
89 3
91 1.1
101 1.7
102 2
105 99.99
106 8.4
113 1.7
114 1.3
115 31.5
116 3
122 1.1
126 3.1
127 12.3
128 11.5
129 8.4
139 17.2
140 25.4
141 69.4
142 9.2
155 2
156 3.7
157 4.4
217 1.3
262 49
263 9.4
264 1

>  <PREDICTED SPECTRUM>  (650) 
33 1
38 40
39 187
40 104
41 55
43 43
44 104
45 2
50 137
51 306
52 107
53 8
55 16
57 19
62 64
63 134
64 36
65 127
66 8
69 11
74 61
75 99
76 91
77 545
78 202
86 1
87 42
88 34
89 130
91 20
98 11
100 9
101 118
102 111
103 0
105 999
106 263
113 109
114 110
115 489
116 134
122 72
126 95
127 241
128 259
129 288
130 33
139 319
140 325
141 835
142 249
143 53
152 18
155 80
156 145
157 361
158 55
217 73
262 607
263 253
264 77

$$$$

     RDKit          2D

 20 22  0  0  0  0  0  0  0  0999 V2000
   10.0345   -0.8888    0.0000 C   0  0  0  0  0  0  0  0  0  0  0  0
   10.0347    0.6121    0.0000 C   0  0  0  0  0  0  0  0  0  0  0  0
    8.7351   -1.6398    0.0000 C   0  0  0  0  0  0  0  0  0  0  0  0
   -2.9500   -0.8900    0.0000 C   0  0  0  0  0  0  0  0  0  0  0  0
   -2.9500    0.6100    0.0000 C   0  0  0  0  0  0  0  0  0  0  0  0
   -1.6500   -1.6400    0.0000 C   0  0  0  0  0  0  0  0  0  0  0  0
    8.7356    1.3619    0.0000 C   0  0  0  0  0  0  0  0  0  0  0  0
    7.4359   -0.8900    0.0000 C   0  0  0  0  0  0  0  0  0  0  0  0
   -1.6500    1.3600    0.0000 C   0  0  0  0  0  0  0  0  0  0  0  0
    2.2400   -0.8900    0.0000 C   0  0  0  0  0  0  0  0  0  0  0  0
    0.9400   -1.6400    0.0000 C   0  0  0  0  0  0  0  0  0  0  0  0
    0.9400    1.3600    0.0000 C   0  0  0  0  0  0  0  0  0  0  0  0
    3.5389    1.3602    0.0000 C   0  0  0  0  0  0  0  0  0  0  0  0
    2.2400    0.6100    0.0000 C   0  0  0  0  0  0  0  0  0  0  0  0
   -0.3500   -0.8900    0.0000 C   0  0  0  0  0  0  0  0  0  0  0  0
    7.4362    0.6108    0.0000 C   0  0  0  0  0  0  0  0  0  0  0  0
   -0.3500    0.6100    0.0000 C   0  0  0  0  0  0  0  0  0  0  0  0
    6.1370    1.3606    0.0000 C   0  0  0  0  0  0  0  0  0  0  0  0
    6.1368    2.8606    0.0000 O   0  0  0  0  0  0  0  0  0  0  0  0
    4.8381    0.6104    0.0000 O   0  0  0  0  0  0  0  0  0  0  0  0
  2  1  2  0
  3  1  1  0
  5  4  2  0
  6  4  1  0
  7  2  1  0
  8  3  2  0
  9  5  1  0
 11 10  2  0
 14 10  1  0
 14 12  2  0
 14 13  1  0
 15  6  2  0
 15 11  1  0
 16  7  2  0
 16  8  1  0
 17  9  2  0
 17 12  1  0
 17 15  1  0
 18 16  1  0
 19 18  2  0
 20 13  1  0
 20 18  1  0
M  END
>  <NAME>  (651) 
2-NAPHTHYLMETHYL BENZOATE

>  <SYNONYMS>  (651) 


>  <SPECTRUM TYPE>  (651) 
MS1

>  <INSTRUMENT TYPE>  (651) 
EI-B

>  <INSTRUMENT>  (651) 
JEOL JMS-DX-300

>  <ION MODE>  (651) 
P

>  <INCHIKEY>  (651) 
PLGZVZHAMUXIRR-UHFFFAOYSA-N

>  <FORMULA>  (651) 
C18H14O2

>  <EXACT MASS>  (651) 
262.099379688

>  <MW>  (651) 
262

>  <ID>  (651) 
JP011127

>  <CONTRIBUTOR>  (651) 
University of Tokyo Team, {Faculty of Engineering, University of Tokyo

>  <COMMENT>  (651) 
SMILES=O=C(OCc(c2)cc(c3)c(ccc3)c2)c(c1)cccc1
InChI=InChI=1S/C18H14O2/c19-18(16-7-2-1-3-8-16)20-13-14-10-11-15-6-4-5-9-17(15)12-14/h1-12H,13H2
computed SMILES=O=C(OCC=1C=CC=2C=CC=CC2C1)C=3C=CC=CC3
accession=JP011127
date=2016.01.19 (Created 2008.10.21, modified 2011.05.06)
author=SAWADA M, THE INST. OF SCIENTIFIC AND INDUSTRIALRESEARCH OSAKA UNIV.
license=CC BY-NC-SA
exact mass=262.09938
ionization energy=70 eV
ion type=[M]+*
computed spectral entropy=2.8621985755557673
computed normalized entropy=0.7758991886719875
SPLASH=splash10-0a4l-3910000000-86ac1d13d4b520d823b3
submitter=submitter = University of Tokyo Team (Faculty of Engineering, University of Tokyo)
MoNA Rating=3.75

>  <NUM PEAKS>  (651) 
40

>  <MASS SPECTRAL PEAKS>  (651) 
27 1.4
29 3.7
39 3.1
40 5.6
44 4.8
50 5.5
51 16.4
52 1.5
62 1
63 3.4
65 1.6
74 1.8
75 2.8
76 2.7
77 33.4
78 4.2
89 2.5
91 1.2
101 1.2
102 1.5
105 99.99
106 8.4
113 1.3
114 1
115 24.6
116 2.5
122 1.7
126 2.8
127 13.3
128 7.6
129 7.5
139 12.3
140 12.9
141 42.9
142 6.2
155 3
156 3
157 3
262 29.9
263 5.9

>  <PREDICTED SPECTRUM>  (651) 
37 8
38 48
39 150
40 81
41 55
43 51
44 87
50 160
51 342
52 114
53 14
55 3
56 4
57 33
61 9
62 81
63 163
64 45
65 122
74 72
75 95
76 67
77 592
78 205
79 27
83 4
87 11
88 22
89 128
91 60
98 8
101 64
102 76
103 12
105 999
106 260
113 61
114 84
115 380
116 118
122 108
123 0
126 82
127 234
128 208
129 212
130 37
139 316
140 285
141 704
142 312
143 98
155 50
156 147
157 279
158 66
189 48
217 14
262 641
263 287
264 98

$$$$

     RDKit          2D

 19 20  0  0  0  0  0  0  0  0999 V2000
   -4.8717   -0.2422    0.0000 C   0  0  0  0  0  0  0  0  0  0  0  0
   -3.5724    0.5074    0.0000 C   0  0  0  0  0  0  0  0  0  0  0  0
    2.9237    2.7578    0.0000 C   0  0  0  0  0  0  0  0  0  0  0  0
    2.9242    4.2586    0.0000 C   0  0  0  0  0  0  0  0  0  0  0  0
    1.6242    2.0070    0.0000 C   0  0  0  0  0  0  0  0  0  0  0  0
   -7.4705    4.2582    0.0000 C   0  0  0  0  0  0  0  0  0  0  0  0
   -7.4707    2.7582    0.0000 C   0  0  0  0  0  0  0  0  0  0  0  0
    1.6252    5.0086    0.0000 C   0  0  0  0  0  0  0  0  0  0  0  0
    0.3252    2.7570    0.0000 C   0  0  0  0  0  0  0  0  0  0  0  0
   -6.1704    5.0080    0.0000 C   0  0  0  0  0  0  0  0  0  0  0  0
   -6.1709    2.0080    0.0000 C   0  0  0  0  0  0  0  0  0  0  0  0
   -3.5715    5.0078    0.0000 C   0  0  0  0  0  0  0  0  0  0  0  0
    0.3257    4.2578    0.0000 C   0  0  0  0  0  0  0  0  0  0  0  0
   -4.8705    4.2578    0.0000 C   0  0  0  0  0  0  0  0  0  0  0  0
   -4.8707    2.7578    0.0000 C   0  0  0  0  0  0  0  0  0  0  0  0
   -0.9734    5.0078    0.0000 C   0  0  0  0  0  0  0  0  0  0  0  0
   -0.9734    6.5078    0.0000 O   0  0  0  0  0  0  0  0  0  0  0  0
   -3.5719    2.0074    0.0000 O   0  0  0  0  0  0  0  0  0  0  0  0
   -2.2724    4.2578    0.0000 O   0  0  0  0  0  0  0  0  0  0  0  0
  2  1  1  0
  4  3  2  0
  5  3  1  0
  7  6  2  0
  8  4  1  0
  9  5  2  0
 10  6  1  0
 11  7  1  0
 13  8  2  0
 13  9  1  0
 14 10  2  0
 14 12  1  0
 15 11  2  0
 15 14  1  0
 16 13  1  0
 17 16  2  0
 18  2  1  0
 18 15  1  0
 19 12  1  0
 19 16  1  0
M  END
>  <NAME>  (652) 
2-ETHOXYBENZYL BENZOATE

>  <SYNONYMS>  (652) 


>  <SPECTRUM TYPE>  (652) 
MS1

>  <INSTRUMENT TYPE>  (652) 
EI-B

>  <INSTRUMENT>  (652) 
JEOL JMS-DX-300

>  <ION MODE>  (652) 
P

>  <INCHIKEY>  (652) 
KSHGBOHKBAUECJ-UHFFFAOYSA-N

>  <FORMULA>  (652) 
C16H16O3

>  <EXACT MASS>  (652) 
256.109944372

>  <MW>  (652) 
256

>  <ID>  (652) 
JP011126

>  <CONTRIBUTOR>  (652) 
University of Tokyo Team, {Faculty of Engineering, University of Tokyo

>  <COMMENT>  (652) 
SMILES=CCOc(c2)c(ccc2)COC(=O)c(c1)cccc1
InChI=InChI=1S/C16H16O3/c1-2-18-15-11-7-6-10-14(15)12-19-16(17)13-8-4-3-5-9-13/h3-11H,2,12H2,1H3
computed SMILES=O=C(OCC=1C=CC=CC1OCC)C=2C=CC=CC2
accession=JP011126
date=2016.01.19 (Created 2008.10.21, modified 2011.05.06)
author=SAWADA M, THE INST. OF SCIENTIFIC AND INDUSTRIALRESEARCH OSAKA UNIV.
license=CC BY-NC-SA
exact mass=256.10994
ionization energy=70 eV
ion type=[M]+*
computed spectral entropy=3.189271753565688
computed normalized entropy=0.8032839456160605
SPLASH=splash10-056r-9500000000-ab664e4ca3f985dc9a12
submitter=submitter = University of Tokyo Team (Faculty of Engineering, University of Tokyo)
MoNA Rating=3.75

>  <NUM PEAKS>  (652) 
53

>  <MASS SPECTRAL PEAKS>  (652) 
26 2
27 11.1
29 25.5
38 1
39 7
40 1.9
41 2
43 3.8
44 7.4
45 2.7
50 7.6
51 30.8
52 7.8
53 4.1
55 2.2
57 1.7
63 3.8
64 1.9
65 9.3
66 2.8
67 1.2
74 1.8
75 2
76 5.8
77 99.99
78 56.5
79 16.8
80 1
89 3.9
90 2.8
91 25.5
92 3
93 1.9
94 2
95 6.2
104 1.5
105 57.8
106 13.9
107 26
108 3
117 1.2
119 3.2
121 5.2
122 6.5
123 12
133 2.8
134 3.1
135 13.4
136 1.6
151 59.2
152 6.5
256 22
257 3.7

>  <PREDICTED SPECTRUM>  (652) 
26 23
27 158
28 41
29 169
37 32
38 114
39 274
40 129
41 139
42 69
43 206
44 105
45 174
49 15
50 263
51 494
52 221
53 154
54 18
55 125
56 9
57 52
59 6
62 98
63 235
64 164
65 316
66 121
67 52
69 29
74 59
75 132
76 196
77 870
78 378
79 315
80 51
81 137
82 14
83 5
89 227
90 183
91 487
92 162
93 163
94 146
95 107
96 32
102 10
103 117
104 92
105 999
106 342
107 493
108 278
109 276
110 14
115 64
116 58
117 108
118 15
119 140
120 16
121 300
122 326
123 266
124 0
127 0
131 4
133 191
134 311
135 500
136 153
137 78
138 73
139 2
149 60
150 187
151 606
152 271
153 41
165 45
166 10
211 184
256 534
257 222
258 16

$$$$

     RDKit          2D

 17 18  0  0  0  0  0  0  0  0999 V2000
   -7.1501    3.6846    0.0000 C   0  0  0  0  0  0  0  0  0  0  0  0
   -7.1506    2.1837    0.0000 C   0  0  0  0  0  0  0  0  0  0  0  0
   -5.8506    4.4354    0.0000 C   0  0  0  0  0  0  0  0  0  0  0  0
    3.2390    2.1937    0.0000 C   0  0  0  0  0  0  0  0  0  0  0  0
    3.2472    3.6960    0.0000 C   0  0  0  0  0  0  0  0  0  0  0  0
   -5.8516    1.4337    0.0000 C   0  0  0  0  0  0  0  0  0  0  0  0
   -4.5516    3.6854    0.0000 C   0  0  0  0  0  0  0  0  0  0  0  0
    1.9469    1.4319    0.0000 C   0  0  0  0  0  0  0  0  0  0  0  0
    1.9358    4.4436    0.0000 C   0  0  0  0  0  0  0  0  0  0  0  0
   -0.6549    1.4346    0.0000 C   0  0  0  0  0  0  0  0  0  0  0  0
   -4.5521    2.1846    0.0000 C   0  0  0  0  0  0  0  0  0  0  0  0
    0.6441    2.1846    0.0000 C   0  0  0  0  0  0  0  0  0  0  0  0
    0.6436    3.6818    0.0000 C   0  0  0  0  0  0  0  0  0  0  0  0
   -3.2530    1.4346    0.0000 C   0  0  0  0  0  0  0  0  0  0  0  0
   -0.6589    4.4257    0.0000 Cl  0  0  0  0  0  0  0  0  0  0  0  0
   -3.2530   -0.0654    0.0000 O   0  0  0  0  0  0  0  0  0  0  0  0
   -1.9540    2.1846    0.0000 O   0  0  0  0  0  0  0  0  0  0  0  0
  2  1  2  0
  3  1  1  0
  5  4  2  0
  6  2  1  0
  7  3  2  0
  8  4  1  0
  9  5  1  0
 11  6  2  0
 11  7  1  0
 12  8  2  0
 12 10  1  0
 13  9  2  0
 13 12  1  0
 14 11  1  0
 15 13  1  0
 16 14  2  0
 17 10  1  0
 17 14  1  0
M  END
>  <NAME>  (653) 
2-CHLOROBENZYL BENZOATE

>  <SYNONYMS>  (653) 


>  <SPECTRUM TYPE>  (653) 
MS1

>  <INSTRUMENT TYPE>  (653) 
EI-B

>  <INSTRUMENT>  (653) 
JEOL JMS-DX-300

>  <ION MODE>  (653) 
P

>  <INCHIKEY>  (653) 
GTNDJMMELYTFKN-UHFFFAOYSA-N

>  <FORMULA>  (653) 
C14H11ClO2

>  <EXACT MASS>  (653) 
246.044757272

>  <MW>  (653) 
246

>  <ID>  (653) 
JP011125

>  <CONTRIBUTOR>  (653) 
University of Tokyo Team, {Faculty of Engineering, University of Tokyo

>  <COMMENT>  (653) 
SMILES=O=C(OCc(c2)c(Cl)ccc2)c(c1)cccc1
InChI=InChI=1S/C14H11ClO2/c15-13-9-5-4-8-12(13)10-17-14(16)11-6-2-1-3-7-11/h1-9H,10H2
computed SMILES=O=C(OCC=1C=CC=CC1Cl)C=2C=CC=CC2
accession=JP011125
date=2016.01.19 (Created 2008.10.21, modified 2011.05.06)
author=SAWADA M, THE INST. OF SCIENTIFIC AND INDUSTRIALRESEARCH OSAKA UNIV.
license=CC BY-NC-SA
exact mass=246.04476
ionization energy=70 eV
ion type=[M]+*
computed spectral entropy=2.9268780205310185
computed normalized entropy=0.7481750532831262
SPLASH=splash10-06vi-9720000000-3ae566990eb18f8021f6
submitter=submitter = University of Tokyo Team (Faculty of Engineering, University of Tokyo)
MoNA Rating=3.75

>  <NUM PEAKS>  (653) 
50

>  <MASS SPECTRAL PEAKS>  (653) 
27 2.9
29 2.3
36 1.8
38 1.8
39 6.8
40 1
41 1
43 1.1
44 4.8
45 1.7
50 12.3
51 37.5
52 3.1
57 1
62 2.4
63 9.8
64 2.2
65 2.2
73 1.9
74 3.2
75 7.2
76 5.9
77 74.9
78 8.8
89 22.8
90 5.8
91 2.8
99 5
101 1.5
105 99.99
106 9.3
111 4.3
112 1.1
113 3.8
124 1.4
125 38.1
126 3.4
127 11.9
139 3.2
141 5.8
143 1.5
165 1.5
166 1.1
167 2.5
193 1.7
201 2.2
211 62.6
212 9.9
213 1
246 2.2

>  <PREDICTED SPECTRUM>  (653) 
17 9
26 41
27 86
28 8
29 51
31 0
33 3
35 40
36 76
37 57
38 142
39 255
40 102
41 92
43 105
44 100
45 75
47 42
49 39
50 291
51 475
52 158
53 70
54 5
61 79
62 149
63 272
64 97
65 138
66 22
73 156
74 155
75 218
76 187
77 760
78 223
79 25
86 9
89 463
90 256
91 123
92 7
97 41
99 179
100 44
105 999
106 264
111 56
112 36
113 107
114 60
123 21
124 57
125 682
126 203
127 369
128 71
137 10
139 49
140 37
141 238
142 33
143 7
165 155
166 168
167 145
168 13
193 167
200 30
201 218
202 57
203 60
211 964
212 454
213 128
228 34
246 151
247 22
248 44
249 8

$$$$

     RDKit          2D

 24 27  0  0  0  0  0  0  0  0999 V2000
  -11.2245   -0.0512    0.0000 C   0  0  0  0  0  0  0  0  0  0  0  0
  -11.2247   -1.5521    0.0000 C   0  0  0  0  0  0  0  0  0  0  0  0
   -9.9251    0.6998    0.0000 C   0  0  0  0  0  0  0  0  0  0  0  0
    3.0600    2.2000    0.0000 C   0  0  0  0  0  0  0  0  0  0  0  0
    1.7600    2.9500    0.0000 C   0  0  0  0  0  0  0  0  0  0  0  0
    3.0600    0.7000    0.0000 C   0  0  0  0  0  0  0  0  0  0  0  0
   -9.9256   -2.3019    0.0000 C   0  0  0  0  0  0  0  0  0  0  0  0
   -8.6259   -0.0500    0.0000 C   0  0  0  0  0  0  0  0  0  0  0  0
    0.4600    2.2000    0.0000 C   0  0  0  0  0  0  0  0  0  0  0  0
   -3.4300   -0.0500    0.0000 C   0  0  0  0  0  0  0  0  0  0  0  0
    1.7600   -1.5500    0.0000 C   0  0  0  0  0  0  0  0  0  0  0  0
    0.4600   -2.3000    0.0000 C   0  0  0  0  0  0  0  0  0  0  0  0
   -2.1300    0.7000    0.0000 C   0  0  0  0  0  0  0  0  0  0  0  0
   -2.1300   -2.3000    0.0000 C   0  0  0  0  0  0  0  0  0  0  0  0
   -4.7289   -2.3002    0.0000 C   0  0  0  0  0  0  0  0  0  0  0  0
   -3.4300   -1.5500    0.0000 C   0  0  0  0  0  0  0  0  0  0  0  0
    1.7600   -0.0500    0.0000 C   0  0  0  0  0  0  0  0  0  0  0  0
   -8.6262   -1.5508    0.0000 C   0  0  0  0  0  0  0  0  0  0  0  0
   -0.8300   -1.5500    0.0000 C   0  0  0  0  0  0  0  0  0  0  0  0
    0.4600    0.7000    0.0000 C   0  0  0  0  0  0  0  0  0  0  0  0
   -0.8300   -0.0500    0.0000 C   0  0  0  0  0  0  0  0  0  0  0  0
   -7.3270   -2.3006    0.0000 C   0  0  0  0  0  0  0  0  0  0  0  0
   -7.3268   -3.8006    0.0000 O   0  0  0  0  0  0  0  0  0  0  0  0
   -6.0281   -1.5504    0.0000 O   0  0  0  0  0  0  0  0  0  0  0  0
  2  1  2  0
  3  1  1  0
  5  4  2  0
  6  4  1  0
  7  2  1  0
  8  3  2  0
  9  5  1  0
 12 11  2  0
 13 10  1  0
 16 10  2  0
 16 14  1  0
 16 15  1  0
 17  6  2  0
 17 11  1  0
 18  7  2  0
 18  8  1  0
 19 12  1  0
 19 14  2  0
 20  9  2  0
 20 17  1  0
 21 13  2  0
 21 19  1  0
 21 20  1  0
 22 18  1  0
 23 22  2  0
 24 15  1  0
 24 22  1  0
M  END
>  <NAME>  (654) 
2-PHENANTHRYLMETHYL BENZOATE

>  <SYNONYMS>  (654) 


>  <SPECTRUM TYPE>  (654) 
MS1

>  <INSTRUMENT TYPE>  (654) 
EI-B

>  <INSTRUMENT>  (654) 
JEOL JMS-DX-300

>  <ION MODE>  (654) 
P

>  <INCHIKEY>  (654) 
TZUZYSURWJLIHM-UHFFFAOYSA-N

>  <FORMULA>  (654) 
C22H16O2

>  <EXACT MASS>  (654) 
312.115029752

>  <MW>  (654) 
312

>  <ID>  (654) 
JP011124

>  <CONTRIBUTOR>  (654) 
University of Tokyo Team, {Faculty of Engineering, University of Tokyo

>  <COMMENT>  (654) 
SMILES=O=C(OCc(c4)cc(c2)c(c4)c(c3)c(ccc3)c2)c(c1)cccc1
InChI=InChI=1S/C22H16O2/c23-22(18-7-2-1-3-8-18)24-15-16-10-13-21-19(14-16)12-11-17-6-4-5-9-20(17)21/h1-14H,15H2
computed SMILES=O=C(OCC=1C=CC2=C(C=CC=3C=CC=CC32)C1)C=4C=CC=CC4
accession=JP011124
date=2016.01.19 (Created 2008.10.21, modified 2011.05.06)
author=SAWADA M, THE INST. OF SCIENTIFIC AND INDUSTRIALRESEARCH OSAKA UNIV.
license=CC BY-NC-SA
exact mass=312.11503
ionization energy=70 eV
ion type=[M]+*
computed spectral entropy=2.99256508583455
computed normalized entropy=0.8006499748388599
SPLASH=splash10-0a4l-3901000000-990199b33eebe4cc6ba1
submitter=submitter = University of Tokyo Team (Faculty of Engineering, University of Tokyo)
MoNA Rating=3.75

>  <NUM PEAKS>  (654) 
42

>  <MASS SPECTRAL PEAKS>  (654) 
27 1.8
29 7.3
39 2
40 15.2
41 4.2
43 4.4
44 8.6
50 2.2
51 8.2
55 3.3
57 3.1
69 2.9
71 1.8
77 24.7
78 2.6
105 99.99
106 8.4
122 1.8
139 1.3
149 1.5
150 1.8
151 3.8
152 2.6
163 2.2
164 1.3
165 6.6
176 7.7
177 7.7
178 7.8
179 12.8
180 1.5
187 2.2
188 2.2
189 34.9
190 17.7
191 40.4
192 9.3
205 2.2
206 8.4
207 4.2
312 40.9
313 9.9

>  <PREDICTED SPECTRUM>  (654) 
33 8
34 2
39 121
40 79
41 122
42 4
43 167
44 126
50 104
51 289
52 91
55 77
56 16
57 84
62 13
63 72
64 14
65 72
69 76
70 18
71 6
74 11
75 60
76 34
77 491
78 182
83 67
85 7
88 30
91 10
94 10
95 3
103 1
105 999
106 278
107 11
108 25
121 26
122 95
126 17
137 30
138 8
139 86
149 10
150 120
151 231
152 141
163 135
164 124
165 288
166 13
174 11
176 292
177 267
178 343
179 323
187 204
188 177
189 553
190 458
191 726
192 318
193 43
205 96
206 265
207 252
208 5
312 668
313 320
314 98

$$$$

     RDKit          2D

 24 27  0  0  0  0  0  0  0  0999 V2000
  -11.2245   -1.5488    0.0000 C   0  0  0  0  0  0  0  0  0  0  0  0
   -9.9251   -2.2998    0.0000 C   0  0  0  0  0  0  0  0  0  0  0  0
  -11.2247   -0.0479    0.0000 C   0  0  0  0  0  0  0  0  0  0  0  0
    3.0600    2.2000    0.0000 C   0  0  0  0  0  0  0  0  0  0  0  0
    1.7600    2.9500    0.0000 C   0  0  0  0  0  0  0  0  0  0  0  0
    3.0600    0.7000    0.0000 C   0  0  0  0  0  0  0  0  0  0  0  0
   -8.6259   -1.5500    0.0000 C   0  0  0  0  0  0  0  0  0  0  0  0
   -9.9256    0.7019    0.0000 C   0  0  0  0  0  0  0  0  0  0  0  0
    0.4600    2.2000    0.0000 C   0  0  0  0  0  0  0  0  0  0  0  0
   -3.4300   -1.5500    0.0000 C   0  0  0  0  0  0  0  0  0  0  0  0
   -2.1300   -2.3000    0.0000 C   0  0  0  0  0  0  0  0  0  0  0  0
    1.7600   -1.5500    0.0000 C   0  0  0  0  0  0  0  0  0  0  0  0
    0.4600   -2.3000    0.0000 C   0  0  0  0  0  0  0  0  0  0  0  0
   -2.1300    0.7000    0.0000 C   0  0  0  0  0  0  0  0  0  0  0  0
   -4.7289    0.7002    0.0000 C   0  0  0  0  0  0  0  0  0  0  0  0
   -3.4300   -0.0500    0.0000 C   0  0  0  0  0  0  0  0  0  0  0  0
    1.7600   -0.0500    0.0000 C   0  0  0  0  0  0  0  0  0  0  0  0
   -0.8300   -1.5500    0.0000 C   0  0  0  0  0  0  0  0  0  0  0  0
   -8.6262   -0.0492    0.0000 C   0  0  0  0  0  0  0  0  0  0  0  0
    0.4600    0.7000    0.0000 C   0  0  0  0  0  0  0  0  0  0  0  0
   -0.8300   -0.0500    0.0000 C   0  0  0  0  0  0  0  0  0  0  0  0
   -7.3270    0.7006    0.0000 C   0  0  0  0  0  0  0  0  0  0  0  0
   -7.3268    2.2006    0.0000 O   0  0  0  0  0  0  0  0  0  0  0  0
   -6.0281   -0.0496    0.0000 O   0  0  0  0  0  0  0  0  0  0  0  0
  2  1  2  0
  3  1  1  0
  5  4  2  0
  6  4  1  0
  7  2  1  0
  8  3  2  0
  9  5  1  0
 11 10  1  0
 13 12  2  0
 16 10  2  0
 16 14  1  0
 16 15  1  0
 17  6  2  0
 17 12  1  0
 18 11  2  0
 18 13  1  0
 19  7  2  0
 19  8  1  0
 20  9  2  0
 20 17  1  0
 21 14  2  0
 21 18  1  0
 21 20  1  0
 22 19  1  0
 23 22  2  0
 24 15  1  0
 24 22  1  0
M  END
>  <NAME>  (655) 
3-PHENANTHRYLMETHYL BENZOATE

>  <SYNONYMS>  (655) 


>  <SPECTRUM TYPE>  (655) 
MS1

>  <INSTRUMENT TYPE>  (655) 
EI-B

>  <INSTRUMENT>  (655) 
JEOL JMS-DX-300

>  <ION MODE>  (655) 
P

>  <INCHIKEY>  (655) 
XAFQMORPGNCYES-UHFFFAOYSA-N

>  <FORMULA>  (655) 
C22H16O2

>  <EXACT MASS>  (655) 
312.115029752

>  <MW>  (655) 
312

>  <ID>  (655) 
JP011123

>  <CONTRIBUTOR>  (655) 
University of Tokyo Team, {Faculty of Engineering, University of Tokyo

>  <COMMENT>  (655) 
SMILES=O=C(OCc(c4)cc(c(c4)2)c(c3)c(ccc3)cc2)c(c1)cccc1
InChI=InChI=1S/C22H16O2/c23-22(19-7-2-1-3-8-19)24-15-16-10-11-18-13-12-17-6-4-5-9-20(17)21(18)14-16/h1-14H,15H2
computed SMILES=O=C(OCC=1C=CC=2C=CC=3C=CC=CC3C2C1)C=4C=CC=CC4
accession=JP011123
date=2016.01.19 (Created 2008.10.21, modified 2011.05.06)
author=SAWADA M, THE INST. OF SCIENTIFIC AND INDUSTRIALRESEARCH OSAKA UNIV.
license=CC BY-NC-SA
exact mass=312.11503
ionization energy=70 eV
ion type=[M]+*
computed spectral entropy=2.9212546207551413
computed normalized entropy=0.7973810468949767
SPLASH=splash10-0btc-2901000000-0012264e52b2513ee153
submitter=submitter = University of Tokyo Team (Faculty of Engineering, University of Tokyo)
MoNA Rating=3.75

>  <NUM PEAKS>  (655) 
39

>  <MASS SPECTRAL PEAKS>  (655) 
27 1.5
29 6.2
39 1.5
40 13
41 3.3
43 3.7
44 7.9
50 2.6
51 8.6
55 2.6
57 2.6
69 2.6
77 24.4
78 2.6
105 99.99
106 9
122 2.2
149 1.8
150 2
151 3.7
152 2.9
163 2.6
165 5.9
176 7.5
177 7.7
178 8.6
179 12.1
180 1.8
187 2.4
188 2.4
189 40
190 21.8
191 47.7
192 11
205 2.2
206 9
207 3.5
312 50.1
313 12.1

>  <PREDICTED SPECTRUM>  (655) 
38 5
39 140
40 82
41 182
42 11
43 205
44 124
50 113
51 302
52 91
53 12
55 94
56 19
57 85
62 13
63 70
64 0
65 66
69 87
70 24
74 24
75 46
76 32
77 529
78 197
79 18
83 49
88 44
91 34
94 6
103 36
105 999
106 300
107 37
108 4
113 27
115 25
121 19
122 145
125 8
126 46
127 6
135 11
137 39
139 27
149 14
150 148
151 230
152 153
153 33
163 140
164 137
165 271
166 5
176 238
177 260
178 324
179 361
180 9
187 200
188 141
189 509
190 449
191 731
192 335
193 69
205 103
206 270
207 255
208 30
267 60
312 670
313 309
314 95

$$$$

     RDKit          2D

 24 27  0  0  0  0  0  0  0  0999 V2000
    5.6461   -8.3087    0.0000 C   0  0  0  0  0  0  0  0  0  0  0  0
    5.6491   -6.8079    0.0000 C   0  0  0  0  0  0  0  0  0  0  0  0
    4.3453   -9.0573    0.0000 C   0  0  0  0  0  0  0  0  0  0  0  0
    3.0600    2.2000    0.0000 C   0  0  0  0  0  0  0  0  0  0  0  0
    1.7600    2.9500    0.0000 C   0  0  0  0  0  0  0  0  0  0  0  0
   -3.4300   -1.5500    0.0000 C   0  0  0  0  0  0  0  0  0  0  0  0
   -3.4300   -0.0500    0.0000 C   0  0  0  0  0  0  0  0  0  0  0  0
    4.3513   -6.0557    0.0000 C   0  0  0  0  0  0  0  0  0  0  0  0
    3.0475   -8.3052    0.0000 C   0  0  0  0  0  0  0  0  0  0  0  0
    3.0600    0.7000    0.0000 C   0  0  0  0  0  0  0  0  0  0  0  0
    0.4600    2.2000    0.0000 C   0  0  0  0  0  0  0  0  0  0  0  0
   -2.1300   -2.3000    0.0000 C   0  0  0  0  0  0  0  0  0  0  0  0
   -2.1300    0.7000    0.0000 C   0  0  0  0  0  0  0  0  0  0  0  0
    1.7600   -1.5500    0.0000 C   0  0  0  0  0  0  0  0  0  0  0  0
    0.4575   -3.8000    0.0000 C   0  0  0  0  0  0  0  0  0  0  0  0
    3.0505   -6.8043    0.0000 C   0  0  0  0  0  0  0  0  0  0  0  0
    1.7600   -0.0500    0.0000 C   0  0  0  0  0  0  0  0  0  0  0  0
    0.4600   -2.3000    0.0000 C   0  0  0  0  0  0  0  0  0  0  0  0
    0.4600    0.7000    0.0000 C   0  0  0  0  0  0  0  0  0  0  0  0
   -0.8300   -1.5500    0.0000 C   0  0  0  0  0  0  0  0  0  0  0  0
   -0.8300   -0.0500    0.0000 C   0  0  0  0  0  0  0  0  0  0  0  0
    1.7528   -6.0522    0.0000 C   0  0  0  0  0  0  0  0  0  0  0  0
    0.4525   -6.8000    0.0000 O   0  0  0  0  0  0  0  0  0  0  0  0
    1.7553   -4.5522    0.0000 O   0  0  0  0  0  0  0  0  0  0  0  0
  2  1  2  0
  3  1  1  0
  5  4  2  0
  7  6  2  0
  8  2  1  0
  9  3  2  0
 10  4  1  0
 11  5  1  0
 12  6  1  0
 13  7  1  0
 16  8  2  0
 16  9  1  0
 17 10  2  0
 17 14  1  0
 18 14  2  0
 18 15  1  0
 19 11  2  0
 19 17  1  0
 20 12  2  0
 20 18  1  0
 21 13  2  0
 21 19  1  0
 21 20  1  0
 22 16  1  0
 23 22  2  0
 24 15  1  0
 24 22  1  0
M  END
>  <NAME>  (656) 
9-PHENANTHRYLMETHYL BENZOATE

>  <SYNONYMS>  (656) 


>  <SPECTRUM TYPE>  (656) 
MS1

>  <INSTRUMENT TYPE>  (656) 
EI-B

>  <INSTRUMENT>  (656) 
JEOL JMS-DX-300

>  <ION MODE>  (656) 
P

>  <INCHIKEY>  (656) 
FWBGAUWDNWOMIK-UHFFFAOYSA-N

>  <FORMULA>  (656) 
C22H16O2

>  <EXACT MASS>  (656) 
312.115029752

>  <MW>  (656) 
312

>  <ID>  (656) 
JP011122

>  <CONTRIBUTOR>  (656) 
University of Tokyo Team, {Faculty of Engineering, University of Tokyo

>  <COMMENT>  (656) 
SMILES=c(c4)ccc(c4)C(=O)OCc(c1)c(c3)c(ccc3)c(c2)c(ccc2)1
InChI=InChI=1S/C22H16O2/c23-22(16-8-2-1-3-9-16)24-15-18-14-17-10-4-5-11-19(17)21-13-7-6-12-20(18)21/h1-14H,15H2
computed SMILES=O=C(OCC1=CC=2C=CC=CC2C=3C=CC=CC31)C=4C=CC=CC4
accession=JP011122
date=2016.01.19 (Created 2008.10.21, modified 2011.05.06)
author=SAWADA M, THE INST. OF SCIENTIFIC AND INDUSTRIALRESEARCH OSAKA UNIV.
license=CC BY-NC-SA
exact mass=312.11503
ionization energy=70 eV
ion type=[M]+*
computed spectral entropy=2.8616979958659288
computed normalized entropy=0.7757634890114089
SPLASH=splash10-0a4l-2901000000-6ae6b1319df50e0a5eba
submitter=submitter = University of Tokyo Team (Faculty of Engineering, University of Tokyo)
MoNA Rating=3.75

>  <NUM PEAKS>  (656) 
40

>  <MASS SPECTRAL PEAKS>  (656) 
27 1.5
29 3.8
39 1.6
40 6.5
41 2.5
43 2.5
44 8.8
50 2.5
51 8.1
55 1.8
57 1.8
76 1.6
77 24
78 2.2
105 99.99
106 8.5
122 2.2
139 1.3
149 1.3
150 1.6
151 2.7
152 2.2
163 2.9
164 1.6
165 14.2
166 1.8
176 5.8
177 4.9
178 8.5
179 8.3
187 2.2
188 2
189 29.7
190 16.4
191 46.7
192 10.8
206 2.7
207 4
312 37.1
313 9

>  <PREDICTED SPECTRUM>  (656) 
34 0
39 124
40 58
41 132
43 143
44 118
50 76
51 256
52 42
55 76
56 13
57 78
62 0
63 36
65 63
69 57
70 18
71 2
75 19
76 57
77 469
78 144
83 41
84 11
85 21
88 25
94 15
105 999
106 274
122 74
137 16
149 20
150 88
151 180
152 62
163 140
164 100
165 366
166 21
174 5
176 274
177 250
178 372
179 397
187 172
188 160
189 546
190 373
191 767
192 353
206 192
207 188
312 561
313 244
314 110

$$$$

     RDKit          2D

 24 27  0  0  0  0  0  0  0  0999 V2000
   -7.7962    7.5000    0.0000 C   0  0  0  0  0  0  0  0  0  0  0  0
   -7.7966    5.9992    0.0000 C   0  0  0  0  0  0  0  0  0  0  0  0
   -6.4966    8.2508    0.0000 C   0  0  0  0  0  0  0  0  0  0  0  0
    3.9000   -0.7500    0.0000 C   0  0  0  0  0  0  0  0  0  0  0  0
    3.9000    0.7500    0.0000 C   0  0  0  0  0  0  0  0  0  0  0  0
   -3.9000   -0.7500    0.0000 C   0  0  0  0  0  0  0  0  0  0  0  0
   -6.4976    5.2492    0.0000 C   0  0  0  0  0  0  0  0  0  0  0  0
   -5.1976    7.5008    0.0000 C   0  0  0  0  0  0  0  0  0  0  0  0
    2.6000   -1.5000    0.0000 C   0  0  0  0  0  0  0  0  0  0  0  0
    2.6000    1.5000    0.0000 C   0  0  0  0  0  0  0  0  0  0  0  0
   -2.6000   -1.5000    0.0000 C   0  0  0  0  0  0  0  0  0  0  0  0
   -3.9000    0.7500    0.0000 C   0  0  0  0  0  0  0  0  0  0  0  0
   -0.0000   -1.5000    0.0000 C   0  0  0  0  0  0  0  0  0  0  0  0
   -0.0000    1.5000    0.0000 C   0  0  0  0  0  0  0  0  0  0  0  0
   -2.6000    3.0000    0.0000 C   0  0  0  0  0  0  0  0  0  0  0  0
   -5.1981    6.0000    0.0000 C   0  0  0  0  0  0  0  0  0  0  0  0
    1.3000   -0.7500    0.0000 C   0  0  0  0  0  0  0  0  0  0  0  0
    1.3000    0.7500    0.0000 C   0  0  0  0  0  0  0  0  0  0  0  0
   -1.3000   -0.7500    0.0000 C   0  0  0  0  0  0  0  0  0  0  0  0
   -2.6000    1.5000    0.0000 C   0  0  0  0  0  0  0  0  0  0  0  0
   -1.3000    0.7500    0.0000 C   0  0  0  0  0  0  0  0  0  0  0  0
   -3.8990    5.2500    0.0000 C   0  0  0  0  0  0  0  0  0  0  0  0
   -2.6000    6.0000    0.0000 O   0  0  0  0  0  0  0  0  0  0  0  0
   -3.8990    3.7500    0.0000 O   0  0  0  0  0  0  0  0  0  0  0  0
  2  1  2  0
  3  1  1  0
  5  4  2  0
  7  2  1  0
  8  3  2  0
  9  4  1  0
 10  5  1  0
 11  6  2  0
 12  6  1  0
 16  7  2  0
 16  8  1  0
 17  9  2  0
 17 13  1  0
 18 10  2  0
 18 14  1  0
 18 17  1  0
 19 11  1  0
 19 13  2  0
 20 12  2  0
 20 15  1  0
 21 14  2  0
 21 19  1  0
 21 20  1  0
 22 16  1  0
 23 22  2  0
 24 15  1  0
 24 22  1  0
M  END
>  <NAME>  (657) 
1-ANTHRYLMETHYL BENZOATE

>  <SYNONYMS>  (657) 


>  <SPECTRUM TYPE>  (657) 
MS1

>  <INSTRUMENT TYPE>  (657) 
EI-B

>  <INSTRUMENT>  (657) 
JEOL JMS-DX-300

>  <ION MODE>  (657) 
P

>  <INCHIKEY>  (657) 
YAIFFFPHLGMLMV-UHFFFAOYSA-N

>  <FORMULA>  (657) 
C22H16O2

>  <EXACT MASS>  (657) 
312.115029752

>  <MW>  (657) 
312

>  <ID>  (657) 
JP011121

>  <CONTRIBUTOR>  (657) 
University of Tokyo Team, {Faculty of Engineering, University of Tokyo

>  <COMMENT>  (657) 
SMILES=c(c4)ccc(c4)C(=O)OCc(c3)c(c1)c(cc3)cc(c2)c(ccc2)1
InChI=InChI=1S/C22H16O2/c23-22(16-7-2-1-3-8-16)24-15-20-12-6-11-19-13-17-9-4-5-10-18(17)14-21(19)20/h1-14H,15H2
computed SMILES=O=C(OCC1=CC=CC2=CC=3C=CC=CC3C=C21)C=4C=CC=CC4
accession=JP011121
date=2016.01.19 (Created 2008.10.21, modified 2011.05.06)
author=SAWADA M, THE INST. OF SCIENTIFIC AND INDUSTRIALRESEARCH OSAKA UNIV.
license=CC BY-NC-SA
exact mass=312.11503
ionization energy=70 eV
ion type=[M]+*
computed spectral entropy=2.933097860977211
computed normalized entropy=0.7497649826975397
SPLASH=splash10-06r6-2903000000-3c192aad622caac01e6b
submitter=submitter = University of Tokyo Team (Faculty of Engineering, University of Tokyo)
MoNA Rating=3.75

>  <NUM PEAKS>  (657) 
50

>  <MASS SPECTRAL PEAKS>  (657) 
27 1.3
29 2
39 2
40 2
41 1.6
43 1.8
44 14.4
50 3.1
51 9.6
55 1.3
57 1.5
63 1.5
74 1.1
75 1.5
76 1.5
77 26.4
78 4.9
82 3.3
94 1.6
95 1.3
105 80
106 6.7
122 1.8
139 1.8
150 2.2
151 3.6
152 3.6
156 1.8
163 3.6
164 1.8
165 11.1
166 1.6
176 7.8
177 6
178 14.7
179 10.4
180 1.1
187 2.7
188 2.7
189 36.2
190 26.4
191 81.6
192 16.4
193 1.6
206 3.8
207 8
208 1.3
312 99.99
313 24.4
314 3.6

>  <PREDICTED SPECTRUM>  (657) 
39 192
40 77
41 160
42 9
43 192
44 111
50 76
51 302
52 90
55 95
57 46
62 43
63 120
64 44
65 96
69 82
70 27
75 64
76 18
77 537
78 196
79 29
83 78
88 51
89 60
94 17
95 17
103 11
105 999
106 277
113 1
119 24
120 5
121 17
122 67
126 31
127 4
137 18
139 114
150 142
151 224
152 164
153 44
161 64
162 32
163 240
164 165
165 486
166 76
174 108
176 344
177 263
178 412
179 434
187 260
188 243
189 695
190 474
191 972
192 459
193 40
205 24
206 219
207 367
208 60
312 967
313 464
314 209
315 19

$$$$

     RDKit          2D

 24 27  0  0  0  0  0  0  0  0999 V2000
  -11.6945   -0.7488    0.0000 C   0  0  0  0  0  0  0  0  0  0  0  0
  -10.3951   -1.4998    0.0000 C   0  0  0  0  0  0  0  0  0  0  0  0
  -11.6947    0.7521    0.0000 C   0  0  0  0  0  0  0  0  0  0  0  0
    3.9000   -0.7500    0.0000 C   0  0  0  0  0  0  0  0  0  0  0  0
    3.9000    0.7500    0.0000 C   0  0  0  0  0  0  0  0  0  0  0  0
   -9.0959   -0.7500    0.0000 C   0  0  0  0  0  0  0  0  0  0  0  0
  -10.3956    1.5019    0.0000 C   0  0  0  0  0  0  0  0  0  0  0  0
    2.6000   -1.5000    0.0000 C   0  0  0  0  0  0  0  0  0  0  0  0
    2.6000    1.5000    0.0000 C   0  0  0  0  0  0  0  0  0  0  0  0
   -3.9000   -0.7500    0.0000 C   0  0  0  0  0  0  0  0  0  0  0  0
   -2.6000   -1.5000    0.0000 C   0  0  0  0  0  0  0  0  0  0  0  0
   -2.6000    1.5000    0.0000 C   0  0  0  0  0  0  0  0  0  0  0  0
   -0.0000   -1.5000    0.0000 C   0  0  0  0  0  0  0  0  0  0  0  0
   -0.0000    1.5000    0.0000 C   0  0  0  0  0  0  0  0  0  0  0  0
   -5.1989    1.5002    0.0000 C   0  0  0  0  0  0  0  0  0  0  0  0
   -3.9000    0.7500    0.0000 C   0  0  0  0  0  0  0  0  0  0  0  0
   -9.0962    0.7508    0.0000 C   0  0  0  0  0  0  0  0  0  0  0  0
    1.3000   -0.7500    0.0000 C   0  0  0  0  0  0  0  0  0  0  0  0
    1.3000    0.7500    0.0000 C   0  0  0  0  0  0  0  0  0  0  0  0
   -1.3000   -0.7500    0.0000 C   0  0  0  0  0  0  0  0  0  0  0  0
   -1.3000    0.7500    0.0000 C   0  0  0  0  0  0  0  0  0  0  0  0
   -7.7970    1.5006    0.0000 C   0  0  0  0  0  0  0  0  0  0  0  0
   -7.7968    3.0006    0.0000 O   0  0  0  0  0  0  0  0  0  0  0  0
   -6.4981    0.7504    0.0000 O   0  0  0  0  0  0  0  0  0  0  0  0
  2  1  2  0
  3  1  1  0
  5  4  2  0
  6  2  1  0
  7  3  2  0
  8  4  1  0
  9  5  1  0
 11 10  2  0
 16 10  1  0
 16 12  2  0
 16 15  1  0
 17  6  2  0
 17  7  1  0
 18  8  2  0
 18 13  1  0
 19  9  2  0
 19 14  1  0
 19 18  1  0
 20 11  1  0
 20 13  2  0
 21 12  1  0
 21 14  2  0
 21 20  1  0
 22 17  1  0
 23 22  2  0
 24 15  1  0
 24 22  1  0
M  END
>  <NAME>  (658) 
2-ANTHRYLMETHYL BENZOATE

>  <SYNONYMS>  (658) 


>  <SPECTRUM TYPE>  (658) 
MS1

>  <INSTRUMENT TYPE>  (658) 
EI-B

>  <INSTRUMENT>  (658) 
JEOL JMS-DX-300

>  <ION MODE>  (658) 
P

>  <INCHIKEY>  (658) 
UODPUBSZQFTKCR-UHFFFAOYSA-N

>  <FORMULA>  (658) 
C22H16O2

>  <EXACT MASS>  (658) 
312.115029752

>  <MW>  (658) 
312

>  <ID>  (658) 
JP011120

>  <CONTRIBUTOR>  (658) 
University of Tokyo Team, {Faculty of Engineering, University of Tokyo

>  <COMMENT>  (658) 
SMILES=O=C(OCc(c4)cc(c2)c(c4)cc(c3)c(ccc3)2)c(c1)cccc1
InChI=InChI=1S/C22H16O2/c23-22(17-6-2-1-3-7-17)24-15-16-10-11-20-13-18-8-4-5-9-19(18)14-21(20)12-16/h1-14H,15H2
computed SMILES=O=C(OCC=1C=CC2=CC=3C=CC=CC3C=C2C1)C=4C=CC=CC4
accession=JP011120
date=2016.01.19 (Created 2008.10.21, modified 2011.05.06)
author=SAWADA M, THE INST. OF SCIENTIFIC AND INDUSTRIALRESEARCH OSAKA UNIV.
license=CC BY-NC-SA
exact mass=312.11503
ionization energy=70 eV
ion type=[M]+*
computed spectral entropy=2.907937392304454
computed normalized entropy=0.7595220056313091
SPLASH=splash10-06r6-3902000000-0849693fdb4e8789a86a
submitter=submitter = University of Tokyo Team (Faculty of Engineering, University of Tokyo)
MoNA Rating=3.75

>  <NUM PEAKS>  (658) 
46

>  <MASS SPECTRAL PEAKS>  (658) 
27 1.5
29 4.9
39 2
40 6.6
41 2.6
43 3.1
44 51.4
45 1.5
50 2.6
51 7.5
55 2.2
57 2.2
69 2
73 1.5
74 1.8
75 1.8
76 1.5
77 23.2
78 3.8
82 1.8
83 1.1
105 99.99
106 8.6
122 3.3
139 1.3
150 1.5
151 2.4
152 2.2
163 2.4
164 1.5
165 8.8
176 6
177 7.1
178 8.4
179 8.2
187 1.8
188 1.8
189 30.2
190 20.5
191 57.2
192 12.1
206 4.4
207 3.5
312 69.8
313 17.2
314 2.2

>  <PREDICTED SPECTRUM>  (658) 
33 5
34 5
38 13
39 183
40 92
41 143
42 28
43 156
44 100
50 122
51 330
52 118
53 22
55 103
56 24
57 72
62 71
63 144
64 70
65 112
69 73
70 34
74 44
75 100
76 49
77 520
78 216
79 23
82 1
83 74
88 97
89 59
94 45
95 56
96 33
105 999
106 282
107 35
108 36
109 5
110 2
113 46
115 9
118 2
119 63
120 72
121 76
122 142
123 54
126 66
137 57
138 29
139 180
149 31
150 147
151 213
152 168
161 24
162 56
163 248
164 170
165 406
166 108
174 99
175 19
176 342
177 213
178 302
179 302
180 22
187 221
188 202
189 688
190 473
191 904
192 366
193 77
200 3
205 27
206 214
207 255
208 34
312 881
313 437
314 196
315 35

$$$$

     RDKit          2D

 16 17  0  0  0  0  0  0  0  0999 V2000
    3.2481    2.1950    0.0000 C   0  0  0  0  0  0  0  0  0  0  0  0
   -7.1442    2.1950    0.0000 C   0  0  0  0  0  0  0  0  0  0  0  0
    3.2486    3.6958    0.0000 C   0  0  0  0  0  0  0  0  0  0  0  0
    1.9486    1.4442    0.0000 C   0  0  0  0  0  0  0  0  0  0  0  0
   -5.8447    1.4442    0.0000 C   0  0  0  0  0  0  0  0  0  0  0  0
   -7.1447    3.6958    0.0000 C   0  0  0  0  0  0  0  0  0  0  0  0
    1.9495    4.4458    0.0000 C   0  0  0  0  0  0  0  0  0  0  0  0
    0.6495    2.1942    0.0000 C   0  0  0  0  0  0  0  0  0  0  0  0
   -4.5457    2.1942    0.0000 C   0  0  0  0  0  0  0  0  0  0  0  0
   -5.8457    4.4458    0.0000 C   0  0  0  0  0  0  0  0  0  0  0  0
   -0.6490    4.4450    0.0000 C   0  0  0  0  0  0  0  0  0  0  0  0
    0.6500    3.6950    0.0000 C   0  0  0  0  0  0  0  0  0  0  0  0
   -4.5462    3.6950    0.0000 C   0  0  0  0  0  0  0  0  0  0  0  0
   -3.2471    4.4450    0.0000 C   0  0  0  0  0  0  0  0  0  0  0  0
   -3.2471    5.9450    0.0000 O   0  0  0  0  0  0  0  0  0  0  0  0
   -1.9481    3.6950    0.0000 O   0  0  0  0  0  0  0  0  0  0  0  0
  3  1  2  0
  4  1  1  0
  5  2  2  0
  6  2  1  0
  7  3  1  0
  8  4  2  0
  9  5  1  0
 10  6  2  0
 12  7  2  0
 12  8  1  0
 12 11  1  0
 13  9  2  0
 13 10  1  0
 14 13  1  0
 15 14  2  0
 16 11  1  0
 16 14  1  0
M  END
>  <NAME>  (659) 
BENZYL BENZOATE

>  <SYNONYMS>  (659) 


>  <SPECTRUM TYPE>  (659) 
MS1

>  <INSTRUMENT TYPE>  (659) 
EI-B

>  <INSTRUMENT>  (659) 
JEOL JMS-DX-300

>  <ION MODE>  (659) 
P

>  <INCHIKEY>  (659) 
SESFRYSPDFLNCH-UHFFFAOYSA-N

>  <FORMULA>  (659) 
C14H12O2

>  <EXACT MASS>  (659) 
212.083729624

>  <MW>  (659) 
212

>  <ID>  (659) 
JP011119

>  <CONTRIBUTOR>  (659) 
University of Tokyo Team, {Faculty of Engineering, University of Tokyo

>  <COMMENT>  (659) 
SMILES=O=C(OCc(c2)cccc2)c(c1)cccc1
InChI=InChI=1S/C14H12O2/c15-14(13-9-5-2-6-10-13)16-11-12-7-3-1-4-8-12/h1-10H,11H2
computed SMILES=O=C(OCC=1C=CC=CC1)C=2C=CC=CC2
accession=JP011119
date=2016.01.19 (Created 2008.10.21, modified 2011.05.06)
author=SAWADA M, THE INST. OF SCIENTIFIC AND INDUSTRIALRESEARCH OSAKA UNIV.
license=CC BY-NC-SA
exact mass=212.08373
ionization energy=70 eV
ion type=[M]+*
computed spectral entropy=2.5870562682107816
computed normalized entropy=0.7533680570596815
SPLASH=splash10-0a4i-9720000000-f05c57dce7b414894a2e
submitter=submitter = University of Tokyo Team (Faculty of Engineering, University of Tokyo)
MoNA Rating=3.75

>  <NUM PEAKS>  (659) 
31

>  <MASS SPECTRAL PEAKS>  (659) 
27 1.8
29 1.3
38 1.2
39 6
40 2.1
41 1.4
50 6.2
51 17.1
52 2.3
63 2.8
65 10
74 1.7
75 1.3
76 2
77 36.5
78 4.2
79 7.5
89 4.4
90 6.2
91 43.1
92 3.2
105 99.99
106 9.7
107 7.2
108 2.2
122 8.7
165 1
167 5
194 4.8
212 35.8
213 5.3

>  <PREDICTED SPECTRUM>  (659) 
18 10
26 44
27 131
28 58
29 85
33 3
36 24
37 64
38 124
39 312
40 161
41 223
43 131
44 161
45 51
47 0
49 49
50 251
51 462
52 196
53 141
54 25
55 23
61 31
62 125
63 214
64 108
65 377
66 95
69 7
70 7
74 104
75 100
76 115
77 675
78 291
79 273
80 55
81 4
83 7
89 264
90 196
91 793
92 228
105 999
106 350
107 276
108 111
109 17
121 15
122 51
152 65
153 14
165 58
166 21
167 224
168 134
194 126
195 23
211 91
212 433
213 169
214 21

$$$$

     RDKit          2D

 18 19  0  0  0  0  0  0  0  0999 V2000
   -3.8981   -0.7504    0.0000 C   0  0  0  0  0  0  0  0  0  0  0  0
   -2.5989   -1.5002    0.0000 C   0  0  0  0  0  0  0  0  0  0  0  0
    9.0945   -0.7488    0.0000 C   0  0  0  0  0  0  0  0  0  0  0  0
    9.0947    0.7521    0.0000 C   0  0  0  0  0  0  0  0  0  0  0  0
    7.7951   -1.4998    0.0000 C   0  0  0  0  0  0  0  0  0  0  0  0
    7.7956    1.5019    0.0000 C   0  0  0  0  0  0  0  0  0  0  0  0
    6.4959   -0.7500    0.0000 C   0  0  0  0  0  0  0  0  0  0  0  0
   -1.3000    0.7500    0.0000 C   0  0  0  0  0  0  0  0  0  0  0  0
   -0.0000   -1.5000    0.0000 C   0  0  0  0  0  0  0  0  0  0  0  0
    0.0000    1.5000    0.0000 C   0  0  0  0  0  0  0  0  0  0  0  0
    1.3000   -0.7500    0.0000 C   0  0  0  0  0  0  0  0  0  0  0  0
    2.5989    1.5002    0.0000 C   0  0  0  0  0  0  0  0  0  0  0  0
   -1.3000   -0.7500    0.0000 C   0  0  0  0  0  0  0  0  0  0  0  0
    1.3000    0.7500    0.0000 C   0  0  0  0  0  0  0  0  0  0  0  0
    6.4962    0.7508    0.0000 C   0  0  0  0  0  0  0  0  0  0  0  0
    5.1970    1.5006    0.0000 C   0  0  0  0  0  0  0  0  0  0  0  0
    5.1968    3.0006    0.0000 O   0  0  0  0  0  0  0  0  0  0  0  0
    3.8981    0.7504    0.0000 O   0  0  0  0  0  0  0  0  0  0  0  0
  2  1  1  0
  4  3  2  0
  5  3  1  0
  6  4  1  0
  7  5  2  0
 10  8  2  0
 11  9  1  0
 13  2  1  0
 13  8  1  0
 13  9  2  0
 14 10  1  0
 14 11  2  0
 14 12  1  0
 15  6  2  0
 15  7  1  0
 16 15  1  0
 17 16  2  0
 18 12  1  0
 18 16  1  0
M  END
>  <NAME>  (660) 
4-ETHYLBENZYL BENZOATE

>  <SYNONYMS>  (660) 


>  <SPECTRUM TYPE>  (660) 
MS1

>  <INSTRUMENT TYPE>  (660) 
EI-B

>  <INSTRUMENT>  (660) 
JEOL JMS-DX-300

>  <ION MODE>  (660) 
P

>  <INCHIKEY>  (660) 
FUFNEZBKELYSFQ-UHFFFAOYSA-N

>  <FORMULA>  (660) 
C16H16O2

>  <EXACT MASS>  (660) 
240.115029752

>  <MW>  (660) 
240

>  <ID>  (660) 
JP011118

>  <CONTRIBUTOR>  (660) 
University of Tokyo Team, {Faculty of Engineering, University of Tokyo

>  <COMMENT>  (660) 
SMILES=CCc(c2)ccc(c2)COC(=O)c(c1)cccc1
InChI=InChI=1S/C16H16O2/c1-2-13-8-10-14(11-9-13)12-18-16(17)15-6-4-3-5-7-15/h3-11H,2,12H2,1H3
computed SMILES=O=C(OCC1=CC=C(C=C1)CC)C=2C=CC=CC2
accession=JP011118
date=2016.01.19 (Created 2008.10.21, modified 2011.05.06)
author=SAWADA M, THE INST. OF SCIENTIFIC AND INDUSTRIALRESEARCH OSAKA UNIV.
license=CC BY-NC-SA
exact mass=240.11503
ionization energy=70 eV
ion type=[M]+*
computed spectral entropy=3.0587121145610636
computed normalized entropy=0.7989027432461905
SPLASH=splash10-0a4i-5910000000-b4a37fa46003e9ce6e60
submitter=submitter = University of Tokyo Team (Faculty of Engineering, University of Tokyo)
MoNA Rating=3.75

>  <NUM PEAKS>  (660) 
46

>  <MASS SPECTRAL PEAKS>  (660) 
27 3
29 2.8
38 1.2
39 4.3
40 2.1
41 3.2
44 1.8
50 6.2
51 14.9
52 2.3
53 1.7
57 1
63 2.7
65 3.9
74 2.2
75 1.8
76 2.3
77 36.1
78 6.6
79 11.6
89 2.2
90 1.7
91 15.3
92 1.6
93 1.1
103 5.4
104 6.2
105 99.99
106 8.8
107 9
115 2.7
117 13.5
118 3.7
119 32.2
120 3.8
122 14.8
133 9.7
134 8
135 7.6
136 3.3
150 2.1
195 1.3
211 2.7
222 2
240 28.9
241 5.1

>  <PREDICTED SPECTRUM>  (660) 
14 20
15 36
17 2
18 7
26 36
27 170
28 58
29 117
37 41
38 106
39 273
40 126
41 141
43 57
44 16
45 21
50 207
51 360
52 173
53 136
55 45
62 87
63 196
64 114
65 246
66 68
74 93
75 118
76 122
77 645
78 331
79 329
80 74
81 30
89 245
90 149
91 413
92 139
93 113
94 45
101 14
102 117
103 311
104 322
105 999
106 309
107 193
108 86
115 215
116 67
117 252
118 262
119 532
120 214
121 173
122 261
127 10
128 26
133 169
134 159
135 298
136 110
195 107
211 108
225 9
240 585
241 237
242 67

$$$$

     RDKit          2D

 19 20  0  0  0  0  0  0  0  0999 V2000
   -9.0947   -0.7508    0.0000 C   0  0  0  0  0  0  0  0  0  0  0  0
   -7.7953   -3.0006    0.0000 C   0  0  0  0  0  0  0  0  0  0  0  0
    3.8978   -0.7492    0.0000 C   0  0  0  0  0  0  0  0  0  0  0  0
    3.8981    0.7517    0.0000 C   0  0  0  0  0  0  0  0  0  0  0  0
    2.5984   -1.5002    0.0000 C   0  0  0  0  0  0  0  0  0  0  0  0
    2.5989    1.5015    0.0000 C   0  0  0  0  0  0  0  0  0  0  0  0
    1.2993   -0.7504    0.0000 C   0  0  0  0  0  0  0  0  0  0  0  0
   -3.8966   -0.7504    0.0000 C   0  0  0  0  0  0  0  0  0  0  0  0
   -5.1966    1.4996    0.0000 C   0  0  0  0  0  0  0  0  0  0  0  0
   -5.1966   -1.5004    0.0000 C   0  0  0  0  0  0  0  0  0  0  0  0
   -6.4966    0.7496    0.0000 C   0  0  0  0  0  0  0  0  0  0  0  0
   -2.5977    1.4998    0.0000 C   0  0  0  0  0  0  0  0  0  0  0  0
   -7.7956   -1.5006    0.0000 C   0  0  0  0  0  0  0  0  0  0  0  0
   -3.8966    0.7496    0.0000 C   0  0  0  0  0  0  0  0  0  0  0  0
   -6.4966   -0.7504    0.0000 C   0  0  0  0  0  0  0  0  0  0  0  0
    1.2995    0.7504    0.0000 C   0  0  0  0  0  0  0  0  0  0  0  0
    0.0004    1.5002    0.0000 C   0  0  0  0  0  0  0  0  0  0  0  0
    0.0001    3.0002    0.0000 O   0  0  0  0  0  0  0  0  0  0  0  0
   -1.2986    0.7500    0.0000 O   0  0  0  0  0  0  0  0  0  0  0  0
  4  3  2  0
  5  3  1  0
  6  4  1  0
  7  5  2  0
 10  8  2  0
 11  9  1  0
 13  1  1  0
 13  2  1  0
 14  8  1  0
 14  9  2  0
 14 12  1  0
 15 10  1  0
 15 11  2  0
 15 13  1  0
 16  6  2  0
 16  7  1  0
 17 16  1  0
 18 17  2  0
 19 12  1  0
 19 17  1  0
M  END
>  <NAME>  (661) 
4-ISOPROPYLBENZYL BENZOATE

>  <SYNONYMS>  (661) 


>  <SPECTRUM TYPE>  (661) 
MS1

>  <INSTRUMENT TYPE>  (661) 
EI-B

>  <INSTRUMENT>  (661) 
JEOL JMS-DX-300

>  <ION MODE>  (661) 
P

>  <INCHIKEY>  (661) 
OQURVZTUQABOQM-UHFFFAOYSA-N

>  <FORMULA>  (661) 
C17H18O2

>  <EXACT MASS>  (661) 
254.130679816

>  <MW>  (661) 
254

>  <ID>  (661) 
JP011117

>  <CONTRIBUTOR>  (661) 
University of Tokyo Team, {Faculty of Engineering, University of Tokyo

>  <COMMENT>  (661) 
SMILES=CC(C)c(c2)ccc(c2)COC(=O)c(c1)cccc1
InChI=InChI=1S/C17H18O2/c1-13(2)15-10-8-14(9-11-15)12-19-17(18)16-6-4-3-5-7-16/h3-11,13H,12H2,1-2H3
computed SMILES=O=C(OCC1=CC=C(C=C1)C(C)C)C=2C=CC=CC2
accession=JP011117
date=2016.01.19 (Created 2008.10.21, modified 2011.05.06)
author=SAWADA M, THE INST. OF SCIENTIFIC AND INDUSTRIALRESEARCH OSAKA UNIV.
license=CC BY-NC-SA
exact mass=254.13068
ionization energy=70 eV
ion type=[M]+*
computed spectral entropy=3.3353561238596163
computed normalized entropy=0.8146251672696148
SPLASH=splash10-0a4i-5900000000-7740c61eefea87045780
submitter=submitter = University of Tokyo Team (Faculty of Engineering, University of Tokyo)
MoNA Rating=3.75

>  <NUM PEAKS>  (661) 
60

>  <MASS SPECTRAL PEAKS>  (661) 
27 4
29 4.8
38 1.2
39 5.9
40 6.8
41 5.8
43 4.8
44 4.5
45 1.8
50 6.1
51 14.4
52 2.3
53 1.6
55 1.8
57 1.8
63 2.2
65 3.7
73 1
74 2.4
75 3
76 2.7
77 36.9
78 5.8
79 9.2
88 2.3
89 1.7
91 14
92 1.6
93 1.2
101 1.2
102 1.1
103 4.6
104 2.3
105 99.99
106 8.6
107 5.8
115 5
116 1.3
117 13.5
118 4.8
119 9.9
120 1.3
121 3.4
122 14.9
123 1.1
131 2.2
132 3
133 27.2
134 3.2
135 9.2
136 1.6
147 2
148 8.3
149 5.7
150 4.9
194 1
211 2.5
239 3.5
254 17.6
255 3.1

>  <PREDICTED SPECTRUM>  (661) 
14 2
15 2
17 4
18 3
26 14
27 95
28 14
29 23
37 16
38 72
39 213
40 99
41 165
42 5
43 221
44 43
45 28
50 148
51 328
52 141
53 124
55 55
57 41
59 11
62 47
63 133
64 90
65 189
66 60
69 28
74 49
75 48
76 92
77 571
78 238
79 244
80 43
89 168
90 99
91 404
92 178
93 80
94 43
102 98
103 224
104 125
105 999
106 308
107 138
108 48
115 275
116 155
117 313
118 218
119 241
120 97
121 124
122 91
128 56
131 132
132 197
133 451
134 148
135 134
136 72
137 7
147 0
148 109
149 232
150 58
167 1
209 66
210 22
211 104
239 180
240 70
253 9
254 438
255 169
256 6

$$$$

     RDKit          2D

 18 19  0  0  0  0  0  0  0  0999 V2000
   -3.9180   -0.7714    0.0000 C   0  0  0  0  0  0  0  0  0  0  0  0
    9.0868   -0.7883    0.0000 C   0  0  0  0  0  0  0  0  0  0  0  0
    9.0946    0.7125    0.0000 C   0  0  0  0  0  0  0  0  0  0  0  0
    7.7836   -1.5328    0.0000 C   0  0  0  0  0  0  0  0  0  0  0  0
    7.7993    1.4689    0.0000 C   0  0  0  0  0  0  0  0  0  0  0  0
    6.4882   -0.7764    0.0000 C   0  0  0  0  0  0  0  0  0  0  0  0
    1.3000   -0.7500    0.0000 C   0  0  0  0  0  0  0  0  0  0  0  0
    0.0300    1.5000    0.0000 C   0  0  0  0  0  0  0  0  0  0  0  0
    0.0300   -1.5000    0.0000 C   0  0  0  0  0  0  0  0  0  0  0  0
   -1.3200    0.7500    0.0000 C   0  0  0  0  0  0  0  0  0  0  0  0
    2.6027    1.4936    0.0000 C   0  0  0  0  0  0  0  0  0  0  0  0
    1.3000    0.7500    0.0000 C   0  0  0  0  0  0  0  0  0  0  0  0
    6.4961    0.7244    0.0000 C   0  0  0  0  0  0  0  0  0  0  0  0
   -1.3200   -0.7500    0.0000 C   0  0  0  0  0  0  0  0  0  0  0  0
    5.2008    1.4808    0.0000 C   0  0  0  0  0  0  0  0  0  0  0  0
    5.2081    2.9808    0.0000 O   0  0  0  0  0  0  0  0  0  0  0  0
   -2.6128   -1.5107    0.0000 O   0  0  0  0  0  0  0  0  0  0  0  0
    3.8980    0.7372    0.0000 O   0  0  0  0  0  0  0  0  0  0  0  0
  3  2  2  0
  4  2  1  0
  5  3  1  0
  6  4  2  0
  9  7  2  0
 10  8  1  0
 12  7  1  0
 12  8  2  0
 12 11  1  0
 13  5  2  0
 13  6  1  0
 14  9  1  0
 14 10  2  0
 15 13  1  0
 16 15  2  0
 17  1  1  0
 17 14  1  0
 18 11  1  0
 18 15  1  0
M  END
>  <NAME>  (662) 
4-METHOXYBENZYL BENZOATE

>  <SYNONYMS>  (662) 


>  <SPECTRUM TYPE>  (662) 
MS1

>  <INSTRUMENT TYPE>  (662) 
EI-B

>  <INSTRUMENT>  (662) 
JEOL JMS-DX-300

>  <ION MODE>  (662) 
P

>  <INCHIKEY>  (662) 
CSEIPVUFFJWROQ-UHFFFAOYSA-N

>  <FORMULA>  (662) 
C15H14O3

>  <EXACT MASS>  (662) 
242.09429430799997

>  <MW>  (662) 
242

>  <ID>  (662) 
JP011116

>  <CONTRIBUTOR>  (662) 
University of Tokyo Team, {Faculty of Engineering, University of Tokyo

>  <COMMENT>  (662) 
SMILES=COc(c2)ccc(c2)COC(=O)c(c1)cccc1
InChI=InChI=1S/C15H14O3/c1-17-14-9-7-12(8-10-14)11-18-15(16)13-5-3-2-4-6-13/h2-10H,11H2,1H3
computed SMILES=O=C(OCC1=CC=C(OC)C=C1)C=2C=CC=CC2
accession=JP011116
date=2016.01.19 (Created 2008.10.21, modified 2011.05.06)
author=SAWADA M, THE INST. OF SCIENTIFIC AND INDUSTRIALRESEARCH OSAKA UNIV.
license=CC BY-NC-SA
exact mass=242.09429
ionization energy=70 eV
ion type=[M]+*
computed spectral entropy=3.222857978702668
computed normalized entropy=0.807939550793272
SPLASH=splash10-00dl-7910000000-6aa8840715537cb1698b
submitter=submitter = University of Tokyo Team (Faculty of Engineering, University of Tokyo)
MoNA Rating=3.75

>  <NUM PEAKS>  (662) 
54

>  <MASS SPECTRAL PEAKS>  (662) 
27 3
34 1
38 1.4
39 5.8
40 18.6
41 3.6
43 2.8
44 9.2
45 3.9
50 6.2
51 17.6
52 4.5
53 1.9
55 2.5
57 2.8
63 3.2
64 2.2
65 5.8
66 1.7
69 1.1
71 2.2
73 2
74 1.8
75 5.6
76 3
77 46.1
78 15.4
79 2.9
85 1
88 7.9
89 5.4
90 3.6
91 25.3
92 6.9
93 1.9
94 2.5
101 3.6
105 52.5
106 5.8
107 4.8
109 5.7
119 4
120 24
121 99.99
122 16.9
123 1.4
135 7
136 6.1
137 26.6
138 2.7
149 2.2
197 1.3
242 46.6
243 7.8

>  <PREDICTED SPECTRUM>  (662) 
14 13
15 31
16 1
26 27
27 69
28 49
29 33
36 36
37 29
38 108
39 219
40 114
41 89
42 12
43 110
44 117
45 25
49 11
50 191
51 349
52 190
53 92
54 7
55 29
62 49
63 149
64 161
65 227
66 121
67 33
74 78
75 70
76 122
77 652
78 341
79 170
80 32
81 33
89 184
90 128
91 367
92 214
93 115
94 160
95 72
104 61
105 707
106 276
107 144
108 61
109 146
119 154
120 355
121 999
122 427
123 117
134 2
135 42
136 159
137 501
138 154
165 29
242 638
243 266
244 73

$$$$

     RDKit          2D

 23 25  0  0  0  0  0  0  0  0999 V2000
  -11.0943    5.9049    0.0000 C   0  0  0  0  0  0  0  0  0  0  0  0
    4.5287    4.4843    0.0000 C   0  0  0  0  0  0  0  0  0  0  0  0
  -11.0948    4.4041    0.0000 C   0  0  0  0  0  0  0  0  0  0  0  0
   -9.7948    6.6558    0.0000 C   0  0  0  0  0  0  0  0  0  0  0  0
    3.2395    3.7175    0.0000 C   0  0  0  0  0  0  0  0  0  0  0  0
    4.5087    5.9850    0.0000 C   0  0  0  0  0  0  0  0  0  0  0  0
   -9.7958    3.6541    0.0000 C   0  0  0  0  0  0  0  0  0  0  0  0
   -8.4958    5.9058    0.0000 C   0  0  0  0  0  0  0  0  0  0  0  0
    1.9303    4.4513    0.0000 C   0  0  0  0  0  0  0  0  0  0  0  0
    3.1995    6.7189    0.0000 C   0  0  0  0  0  0  0  0  0  0  0  0
   -3.3075    5.9049    0.0000 C   0  0  0  0  0  0  0  0  0  0  0  0
   -2.0264    3.6612    0.0000 C   0  0  0  0  0  0  0  0  0  0  0  0
   -2.0412    6.6611    0.0000 C   0  0  0  0  0  0  0  0  0  0  0  0
   -0.6802    4.4178    0.0000 C   0  0  0  0  0  0  0  0  0  0  0  0
   -4.5992    3.6549    0.0000 C   0  0  0  0  0  0  0  0  0  0  0  0
   -3.3001    4.4049    0.0000 C   0  0  0  0  0  0  0  0  0  0  0  0
   -8.4963    4.4049    0.0000 C   0  0  0  0  0  0  0  0  0  0  0  0
    1.9103    5.9520    0.0000 C   0  0  0  0  0  0  0  0  0  0  0  0
   -0.6875    5.9178    0.0000 C   0  0  0  0  0  0  0  0  0  0  0  0
   -7.1972    3.6549    0.0000 C   0  0  0  0  0  0  0  0  0  0  0  0
   -7.1972    2.1549    0.0000 O   0  0  0  0  0  0  0  0  0  0  0  0
   -5.8982    4.4049    0.0000 O   0  0  0  0  0  0  0  0  0  0  0  0
    0.6015    6.6848    0.0000 O   0  0  0  0  0  0  0  0  0  0  0  0
  3  1  2  0
  4  1  1  0
  5  2  2  0
  6  2  1  0
  7  3  1  0
  8  4  2  0
  9  5  1  0
 10  6  2  0
 13 11  2  0
 14 12  1  0
 16 11  1  0
 16 12  2  0
 16 15  1  0
 17  7  2  0
 17  8  1  0
 18  9  2  0
 18 10  1  0
 19 13  1  0
 19 14  2  0
 20 17  1  0
 21 20  2  0
 22 15  1  0
 22 20  1  0
 23 18  1  0
 23 19  1  0
M  END
>  <NAME>  (663) 
4-PHENOXYBENZYL BENZOATE

>  <SYNONYMS>  (663) 


>  <SPECTRUM TYPE>  (663) 
MS1

>  <INSTRUMENT TYPE>  (663) 
EI-B

>  <INSTRUMENT>  (663) 
JEOL JMS-DX-300

>  <ION MODE>  (663) 
P

>  <INCHIKEY>  (663) 
HFCGLKMZOCCWJM-UHFFFAOYSA-N

>  <FORMULA>  (663) 
C20H16O3

>  <EXACT MASS>  (663) 
304.109944372

>  <MW>  (663) 
304

>  <ID>  (663) 
JP011115

>  <CONTRIBUTOR>  (663) 
University of Tokyo Team, {Faculty of Engineering, University of Tokyo

>  <COMMENT>  (663) 
SMILES=O=C(OCc(c3)ccc(c3)Oc(c2)cccc2)c(c1)cccc1
InChI=InChI=1S/C20H16O3/c21-20(17-7-3-1-4-8-17)22-15-16-11-13-19(14-12-16)23-18-9-5-2-6-10-18/h1-14H,15H2
computed SMILES=O=C(OCC1=CC=C(OC=2C=CC=CC2)C=C1)C=3C=CC=CC3
accession=JP011115
date=2016.01.19 (Created 2008.10.21, modified 2011.05.06)
author=SAWADA M, THE INST. OF SCIENTIFIC AND INDUSTRIALRESEARCH OSAKA UNIV.
license=CC BY-NC-SA
exact mass=304.10994
ionization energy=70 eV
ion type=[M]+*
computed spectral entropy=3.0973245039747934
computed normalized entropy=0.7729141453445462
SPLASH=splash10-0ke9-9803000000-ebb4f83a7d85836b7bee
submitter=submitter = University of Tokyo Team (Faculty of Engineering, University of Tokyo)
MoNA Rating=3.75

>  <NUM PEAKS>  (663) 
55

>  <MASS SPECTRAL PEAKS>  (663) 
27 3.1
29 3.1
38 1.3
39 8.4
41 1.8
43 1.5
44 3.5
45 2.4
50 8.8
51 38.5
52 4.4
55 1.8
63 4.4
64 2
65 10.3
66 1.5
69 1.5
74 1.8
75 2
76 4.8
77 99.99
78 15.4
79 1.3
89 32.1
90 5.9
91 2.6
92 1.1
93 3.1
94 2.2
105 79.3
106 10.1
107 7.9
115 9.2
122 4
127 1.5
128 2.2
129 2.2
139 1.5
141 8.4
152 3.3
153 5.5
154 2.2
155 5.5
171 2
181 4
182 11.6
183 62.9
184 11
197 8.8
198 8.4
199 4.4
200 1.3
304 73.4
305 16.7
306 2

>  <PREDICTED SPECTRUM>  (663) 
33 9
37 8
38 88
39 224
40 86
41 49
43 49
44 133
45 39
50 250
51 502
52 156
53 56
55 4
57 5
62 76
63 223
64 131
65 246
66 28
74 87
75 163
76 191
77 843
78 342
79 144
89 352
90 186
91 159
92 64
93 107
94 80
102 87
103 84
104 43
105 999
106 344
107 171
108 40
113 1
114 24
115 224
116 86
117 9
118 36
121 12
122 223
123 10
126 80
127 176
128 312
129 225
130 61
139 177
140 89
141 125
142 5
151 75
152 240
153 298
154 149
155 249
156 108
157 18
165 71
168 89
169 134
170 38
171 251
172 70
181 323
182 354
183 874
184 414
185 110
197 159
198 241
199 284
200 140
259 88
304 944
305 391
306 101

$$$$

     RDKit          2D

 17 18  0  0  0  0  0  0  0  0999 V2000
    2.9237    2.7578    0.0000 C   0  0  0  0  0  0  0  0  0  0  0  0
    2.9242    4.2586    0.0000 C   0  0  0  0  0  0  0  0  0  0  0  0
    1.6242    2.0070    0.0000 C   0  0  0  0  0  0  0  0  0  0  0  0
   -7.4705    4.2582    0.0000 C   0  0  0  0  0  0  0  0  0  0  0  0
   -6.1704    5.0080    0.0000 C   0  0  0  0  0  0  0  0  0  0  0  0
    1.6252    5.0086    0.0000 C   0  0  0  0  0  0  0  0  0  0  0  0
    0.3252    2.7570    0.0000 C   0  0  0  0  0  0  0  0  0  0  0  0
   -7.4707    2.7582    0.0000 C   0  0  0  0  0  0  0  0  0  0  0  0
   -4.8707    2.7578    0.0000 C   0  0  0  0  0  0  0  0  0  0  0  0
   -3.5715    5.0078    0.0000 C   0  0  0  0  0  0  0  0  0  0  0  0
   -4.8705    4.2578    0.0000 C   0  0  0  0  0  0  0  0  0  0  0  0
    0.3257    4.2578    0.0000 C   0  0  0  0  0  0  0  0  0  0  0  0
   -6.1709    2.0080    0.0000 C   0  0  0  0  0  0  0  0  0  0  0  0
   -0.9734    5.0078    0.0000 C   0  0  0  0  0  0  0  0  0  0  0  0
   -6.1711    0.5080    0.0000 Br  0  0  0  0  0  0  0  0  0  0  0  0
   -0.9734    6.5078    0.0000 O   0  0  0  0  0  0  0  0  0  0  0  0
   -2.2724    4.2578    0.0000 O   0  0  0  0  0  0  0  0  0  0  0  0
  2  1  2  0
  3  1  1  0
  5  4  2  0
  6  2  1  0
  7  3  2  0
  8  4  1  0
 11  5  1  0
 11  9  2  0
 11 10  1  0
 12  6  2  0
 12  7  1  0
 13  8  2  0
 13  9  1  0
 14 12  1  0
 15 13  1  0
 16 14  2  0
 17 10  1  0
 17 14  1  0
M  END
>  <NAME>  (664) 
3-BROMOBENZYL BENZOATE

>  <SYNONYMS>  (664) 


>  <SPECTRUM TYPE>  (664) 
MS1

>  <INSTRUMENT TYPE>  (664) 
EI-B

>  <INSTRUMENT>  (664) 
JEOL JMS-DX-300

>  <ION MODE>  (664) 
P

>  <INCHIKEY>  (664) 
WXYMOFXETVOVOQ-UHFFFAOYSA-N

>  <FORMULA>  (664) 
C14H11BrO2

>  <EXACT MASS>  (664) 
289.994241692

>  <MW>  (664) 
290

>  <ID>  (664) 
JP011114

>  <CONTRIBUTOR>  (664) 
University of Tokyo Team, {Faculty of Engineering, University of Tokyo

>  <COMMENT>  (664) 
SMILES=O=C(OCc(c2)cc(Br)cc2)c(c1)cccc1
InChI=InChI=1S/C14H11BrO2/c15-13-8-4-5-11(9-13)10-17-14(16)12-6-2-1-3-7-12/h1-9H,10H2
computed SMILES=O=C(OCC=1C=CC=C(Br)C1)C=2C=CC=CC2
accession=JP011114
date=2016.01.19 (Created 2008.10.21, modified 2011.05.06)
author=SAWADA M, THE INST. OF SCIENTIFIC AND INDUSTRIALRESEARCH OSAKA UNIV.
license=CC BY-NC-SA
exact mass=289.99424
ionization energy=70 eV
ion type=[M]+*
computed spectral entropy=2.8466460901205775
computed normalized entropy=0.7240011017854224
SPLASH=splash10-0kk9-9500000000-52cb4a658b7fcc830873
submitter=submitter = University of Tokyo Team (Faculty of Engineering, University of Tokyo)
MoNA Rating=3.75

>  <NUM PEAKS>  (664) 
51

>  <MASS SPECTRAL PEAKS>  (664) 
26 1.8
27 4.6
29 2.7
37 2.2
38 5.3
39 10.8
40 1.4
43 1.1
44 2.3
45 10.8
49 2.5
50 30.2
51 53.3
52 7.9
53 2.4
55 1.2
61 1.4
62 1.8
63 3.8
64 1
65 5
66 3.2
73 2.3
74 10.9
75 8
76 11
77 83.3
78 11.9
79 4.2
89 3.7
90 2.9
91 1.3
94 3.7
104 1.4
105 99.99
106 8
107 3.3
122 67.9
123 5.6
155 1.3
157 1.5
169 1.3
171 1.2
183 1.7
184 1
185 1.9
186 1.8
200 1.6
202 1.6
290 1.7
292 1.6

>  <PREDICTED SPECTRUM>  (664) 
16 0
26 17
27 45
37 44
38 119
39 165
40 82
41 5
43 14
44 52
50 244
51 367
52 106
53 1
61 19
62 121
63 214
64 101
65 85
69 19
74 160
75 169
76 208
77 618
78 255
79 86
82 24
87 16
88 55
89 432
90 378
91 107
92 12
93 11
103 39
104 120
105 999
106 303
107 49
114 31
115 97
116 94
129 10
130 58
134 8
140 28
141 37
142 10
143 32
153 5
155 150
156 29
157 196
158 44
165 268
166 167
167 225
168 181
169 444
170 194
171 472
172 24
183 85
184 82
185 247
186 69
187 64
211 88
245 32
273 32
274 31
290 343
291 117
292 294
293 120

$$$$

     RDKit          2D

 13 14  0  0  0  0  0  0  0  0999 V2000
    6.1370    1.3606    0.0000 C   0  0  0  0  0  0  0  0  0  0  0  0
   -2.9500   -0.8900    0.0000 C   0  0  0  0  0  0  0  0  0  0  0  0
   -2.9500    0.6100    0.0000 C   0  0  0  0  0  0  0  0  0  0  0  0
   -1.6500   -1.6400    0.0000 C   0  0  0  0  0  0  0  0  0  0  0  0
   -1.6500    1.3600    0.0000 C   0  0  0  0  0  0  0  0  0  0  0  0
    2.2400   -0.8900    0.0000 C   0  0  0  0  0  0  0  0  0  0  0  0
    0.9400   -1.6400    0.0000 C   0  0  0  0  0  0  0  0  0  0  0  0
    0.9400    1.3600    0.0000 C   0  0  0  0  0  0  0  0  0  0  0  0
    3.5389    1.3602    0.0000 C   0  0  0  0  0  0  0  0  0  0  0  0
    2.2400    0.6100    0.0000 C   0  0  0  0  0  0  0  0  0  0  0  0
   -0.3500   -0.8900    0.0000 C   0  0  0  0  0  0  0  0  0  0  0  0
   -0.3500    0.6100    0.0000 C   0  0  0  0  0  0  0  0  0  0  0  0
    4.8381    0.6104    0.0000 N   0  0  0  0  0  0  0  0  0  0  0  0
  3  2  2  0
  4  2  1  0
  5  3  1  0
  7  6  2  0
 10  6  1  0
 10  8  2  0
 10  9  1  0
 11  4  2  0
 11  7  1  0
 12  5  2  0
 12  8  1  0
 12 11  1  0
 13  1  1  0
  9 13  2  0
M  END
>  <NAME>  (665) 
N-(2-NAPHTHYLMETHYLENE)-METHYLAMINE

>  <SYNONYMS>  (665) 


>  <SPECTRUM TYPE>  (665) 
MS1

>  <INSTRUMENT TYPE>  (665) 
EI-B

>  <INSTRUMENT>  (665) 
JEOL JMS-DX-300

>  <ION MODE>  (665) 
P

>  <INCHIKEY>  (665) 
AGGXQDCVTKTEKZ-UKTHLTGXSA-N

>  <FORMULA>  (665) 
C12H11N

>  <EXACT MASS>  (665) 
169.089149352

>  <MW>  (665) 
169

>  <ID>  (665) 
JP011113

>  <CONTRIBUTOR>  (665) 
University of Tokyo Team, {Faculty of Engineering, University of Tokyo

>  <COMMENT>  (665) 
SMILES=CN=Cc(c1)cc(c2)c(ccc2)c1
InChI=InChI=1S/C12H11N/c1-13-9-10-6-7-11-4-2-3-5-12(11)8-10/h2-9H,1H3/b13-9+
computed SMILES=N(=CC=1C=CC=2C=CC=CC2C1)C
accession=JP011113
date=2016.01.19 (Created 2008.10.21, modified 2011.05.06)
author=SAWADA M, THE INST. OF SCIENTIFIC AND INDUSTRIALRESEARCH OSAKA UNIV.
license=CC BY-NC-SA
exact mass=169.08915
ionization energy=70 eV
ion type=[M]+*
computed spectral entropy=2.4575756747340556
computed normalized entropy=0.6912334973202379
SPLASH=splash10-014i-1900000000-365bed40776114d07e39
submitter=submitter = University of Tokyo Team (Faculty of Engineering, University of Tokyo)
MoNA Rating=3.75

>  <NUM PEAKS>  (665) 
35

>  <MASS SPECTRAL PEAKS>  (665) 
39 1.7
41 6.7
42 17.3
50 1.6
51 2.6
62 1.2
63 2.7
74 1.6
75 2.3
76 1.6
77 3.2
84 1
85 1.6
87 1.2
89 1.2
101 2.1
102 2.1
113 1
115 4.3
126 6.8
127 14.5
128 12.6
129 3.3
139 5.6
140 2.3
141 12.3
142 4.8
152 1.2
153 15.6
154 3
167 5.7
168 97.4
169 99.99
170 16.5
171 1.3

>  <PREDICTED SPECTRUM>  (665) 
15 34
16 9
17 11
18 6
26 47
27 110
28 99
29 10
30 3
37 13
38 60
39 156
40 60
41 95
42 136
43 95
44 51
49 7
50 151
51 219
52 118
53 20
54 10
56 32
57 49
58 21
61 27
62 144
63 241
64 112
65 102
66 47
67 18
69 16
70 52
71 23
74 110
75 152
76 174
77 189
78 93
82 18
83 66
84 70
85 66
86 93
87 121
88 61
89 146
90 46
91 50
92 63
93 31
97 42
98 66
99 45
100 50
101 124
102 175
103 104
104 8
110 22
111 18
112 26
113 142
114 154
115 282
116 96
125 29
126 216
127 344
128 332
129 231
130 63
138 44
139 233
140 216
141 319
142 211
143 86
151 64
152 192
153 394
154 285
155 145
165 39
166 161
167 223
168 999
169 918
170 351
171 78

$$$$

     RDKit          2D

  8  8  0  0  0  0  0  0  0  0999 V2000
    1.3000   -0.7500    0.0000 C   0  0  0  0  0  0  0  0  0  0  0  0
   -1.3000    0.7500    0.0000 C   0  0  0  0  0  0  0  0  0  0  0  0
    1.3000    0.7500    0.0000 C   0  0  0  0  0  0  0  0  0  0  0  0
   -1.3000   -0.7500    0.0000 C   0  0  0  0  0  0  0  0  0  0  0  0
   -0.0000   -1.5000    0.0000 N   0  0  0  0  0  0  0  0  0  0  0  0
    0.0000    1.5000    0.0000 N   0  0  0  0  0  0  0  0  0  0  0  0
    2.5989    1.5002    0.0000 O   0  0  0  0  0  0  0  0  0  0  0  0
   -2.5989   -1.5002    0.0000 O   0  0  0  0  0  0  0  0  0  0  0  0
  3  1  1  0
  4  2  1  0
  5  1  1  0
  5  4  2  0
  6  2  1  0
  6  3  2  0
  7  3  1  0
  8  4  1  0
M  END
>  <NAME>  (666) 
GLYCINE ANHYDRIDE

>  <SYNONYMS>  (666) 
2,5-PIPERAZINEDIONE

>  <SPECTRUM TYPE>  (666) 
MS1

>  <INSTRUMENT TYPE>  (666) 
EI-B

>  <INSTRUMENT>  (666) 
HITACHI M-80

>  <ION MODE>  (666) 
P

>  <INCHIKEY>  (666) 
BXRNXXXXHLBUKK-UHFFFAOYSA-N

>  <FORMULA>  (666) 
C4H6N2O2

>  <EXACT MASS>  (666) 
114.042927432

>  <MW>  (666) 
114

>  <ID>  (666) 
JP011111

>  <CONTRIBUTOR>  (666) 
University of Tokyo Team, {Faculty of Engineering, University of Tokyo

>  <COMMENT>  (666) 
SMILES=O=C(C1)NCC(=O)N1
cas=106-57-0
InChI=InChI=1S/C4H6N2O2/c7-3-1-5-4(8)2-6-3/h1-2H2,(H,5,8)(H,6,7)
computed SMILES=OC1=NCC(O)=NC1
accession=JP011111
date=2016.01.19 (Created 2008.10.21, modified 2011.05.06)
author=YAMAMOTO M, DEP. CHEMISTRY, FAC. SCIENCE, NARA WOMEN'S UNIV.
license=CC BY-NC-SA
exact mass=114.04293
ionization energy=70 eV
ion type=[M]+*
computed spectral entropy=2.3639230196437415
computed normalized entropy=0.7343939773571521
SPLASH=splash10-01u3-9200000000-8826cd1586bbe0ecaf7b
submitter=submitter = University of Tokyo Team (Faculty of Engineering, University of Tokyo)
MoNA Rating=3.75

>  <NUM PEAKS>  (666) 
25

>  <MASS SPECTRAL PEAKS>  (666) 
14 3.72
15 2.9
26 1.11
27 10.67
28 91.29
29 46.44
30 99.99
31 2.07
40 2.22
41 3.08
42 38.46
43 40.21
44 3.01
54 1.73
55 2.05
56 7.07
57 2.28
58 3.96
59 2.27
71 43.73
72 2.4
85 1.92
86 8.12
114 87.9
115 6.97

>  <PREDICTED SPECTRUM>  (666) 
14 17
16 0
25 1
26 71
28 145
29 29
30 82
31 59
33 58
34 30
38 152
39 151
40 360
41 574
42 980
43 804
44 491
45 198
46 2
49 46
51 182
52 94
53 306
54 253
55 471
56 540
57 661
58 294
59 198
60 162
67 88
68 163
69 299
70 164
71 182
72 68
73 5
84 275
85 295
86 253
87 219
97 282
98 147
112 12
114 999
115 204

$$$$

     RDKit          2D

 16 17  0  0  0  0  0  0  0  0999 V2000
    4.1973   -0.9121    0.0000 C   0  0  0  0  0  0  0  0  0  0  0  0
    2.9023    1.3309    0.0000 C   0  0  0  0  0  0  0  0  0  0  0  0
    0.3002    1.2919    0.0000 C   0  0  0  0  0  0  0  0  0  0  0  0
   -0.9948   -0.9511    0.0000 C   0  0  0  0  0  0  0  0  0  0  0  0
    5.4964   -0.1621    0.0000 C   0  0  0  0  0  0  0  0  0  0  0  0
    4.2014    2.0809    0.0000 C   0  0  0  0  0  0  0  0  0  0  0  0
   -0.9988    2.0419    0.0000 C   0  0  0  0  0  0  0  0  0  0  0  0
   -2.2938   -0.2011    0.0000 C   0  0  0  0  0  0  0  0  0  0  0  0
    2.9078   -0.1786    0.0000 C   0  0  0  0  0  0  0  0  0  0  0  0
    0.3098   -0.1916    0.0000 C   0  0  0  0  0  0  0  0  0  0  0  0
    5.5145    1.3264    0.0000 C   0  0  0  0  0  0  0  0  0  0  0  0
   -2.2970    1.3134    0.0000 C   0  0  0  0  0  0  0  0  0  0  0  0
    1.6126   -0.9351    0.0000 C   0  0  0  0  0  0  0  0  0  0  0  0
    6.8174    2.0698    0.0000 Cl  0  0  0  0  0  0  0  0  0  0  0  0
   -3.5922    2.0699    0.0000 Cl  0  0  0  0  0  0  0  0  0  0  0  0
    1.6201   -2.4351    0.0000 O   0  0  0  0  0  0  0  0  0  0  0  0
  5  1  2  0
  6  2  1  0
  7  3  2  0
  8  4  1  0
  9  1  1  0
  9  2  2  0
 10  3  1  0
 10  4  2  0
 11  5  1  0
 11  6  2  0
 12  7  1  0
 12  8  2  0
 13  9  1  0
 13 10  1  0
 14 11  1  0
 15 12  1  0
 16 13  2  0
M  END
>  <NAME>  (667) 
4,4'-DICHLOROBENZOPHENONE

>  <SYNONYMS>  (667) 


>  <SPECTRUM TYPE>  (667) 
MS1

>  <INSTRUMENT TYPE>  (667) 
EI-B

>  <INSTRUMENT>  (667) 
HITACHI M-80

>  <ION MODE>  (667) 
P

>  <INCHIKEY>  (667) 
OKISUZLXOYGIFP-UHFFFAOYSA-N

>  <FORMULA>  (667) 
C13H8Cl2O

>  <EXACT MASS>  (667) 
249.995220236

>  <MW>  (667) 
250

>  <ID>  (667) 
JP011110

>  <CONTRIBUTOR>  (667) 
University of Tokyo Team, {Faculty of Engineering, University of Tokyo

>  <COMMENT>  (667) 
cas=90-98-2
SMILES=Clc(c2)ccc(c2)C(=O)c(c1)ccc(Cl)c1
InChI=InChI=1S/C13H8Cl2O/c14-11-5-1-9(2-6-11)13(16)10-3-7-12(15)8-4-10/h1-8H
computed SMILES=O=C(C1=CC=C(Cl)C=C1)C2=CC=C(Cl)C=C2
accession=JP011110
date=2016.01.19 (Created 2008.10.21, modified 2011.05.06)
author=YAMAMOTO M, DEP. CHEMISTRY, FAC. SCIENCE, NARA WOMEN'S UNIV.
license=CC BY-NC-SA
exact mass=249.99522
ionization energy=70 eV
ion type=[M]+*
computed spectral entropy=2.640550112966851
computed normalized entropy=0.7426980614271185
SPLASH=splash10-0gw0-3920000000-326f472a1b8765742345
submitter=submitter = University of Tokyo Team (Faculty of Engineering, University of Tokyo)
MoNA Rating=3.75

>  <NUM PEAKS>  (667) 
35

>  <MASS SPECTRAL PEAKS>  (667) 
27 1.13
50 11.81
51 5.26
61 1.15
63 1.14
73 1.63
74 8.76
75 32.64
76 8.85
77 1.29
84 1.17
85 4.33
87 1.62
93 1.15
104 1.46
110 1.5
111 44.46
112 5.26
113 14.09
114 1
139 99.99
140 7.87
141 32.59
142 2.49
150 1.46
151 1.5
152 2.85
215 6.71
216 1.24
217 2.25
250 24.12
251 3.52
252 15.51
253 2.26
254 2.7

>  <PREDICTED SPECTRUM>  (667) 
35 22
36 51
37 3
38 17
47 19
49 34
50 313
51 187
57 48
61 113
62 88
63 114
64 2
69 43
73 37
74 211
75 510
76 255
77 101
79 1
83 29
84 108
85 154
86 65
87 113
88 33
97 40
98 53
99 42
100 33
102 11
104 91
105 10
106 23
109 52
110 102
111 667
112 174
113 376
114 59
125 5
137 51
138 12
139 999
140 212
141 623
142 161
143 47
150 146
151 56
152 78
215 243
216 144
217 144
218 27
250 456
251 208
252 390
253 177
254 208
255 56

$$$$

     RDKit          2D

 10  9  0  0  0  0  0  0  0  0999 V2000
    2.2733    2.8125    0.0000 C   0  0  0  0  0  0  0  0  0  0  0  0
    0.9743    5.0625    0.0000 C   0  0  0  0  0  0  0  0  0  0  0  0
   -5.5209    2.8125    0.0000 C   0  0  0  0  0  0  0  0  0  0  0  0
   -4.2219    5.0625    0.0000 C   0  0  0  0  0  0  0  0  0  0  0  0
    0.9743    3.5625    0.0000 C   0  0  0  0  0  0  0  0  0  0  0  0
   -4.2219    3.5625    0.0000 C   0  0  0  0  0  0  0  0  0  0  0  0
   -1.6238    3.5625    0.0000 C   0  0  0  0  0  0  0  0  0  0  0  0
   -0.3248    2.8125    0.0000 N   0  0  0  0  0  0  0  0  0  0  0  0
   -2.9228    2.8125    0.0000 N   0  0  0  0  0  0  0  0  0  0  0  0
   -1.6238    5.0625    0.0000 S   0  0  0  0  0  0  0  0  0  0  0  0
  5  1  1  0
  5  2  1  0
  6  3  1  0
  6  4  1  0
  8  5  1  0
  8  7  2  3
  9  6  1  0
  9  7  1  0
 10  7  1  0
M  END
>  <NAME>  (668) 
N,N'-DIISOPROPYLTHIOUREA

>  <SYNONYMS>  (668) 


>  <SPECTRUM TYPE>  (668) 
MS1

>  <INSTRUMENT TYPE>  (668) 
EI-B

>  <INSTRUMENT>  (668) 
HITACHI M-80

>  <ION MODE>  (668) 
P

>  <INCHIKEY>  (668) 
KREOCUNMMFZOOS-UHFFFAOYSA-N

>  <FORMULA>  (668) 
C7H16N2S

>  <EXACT MASS>  (668) 
160.103419512

>  <MW>  (668) 
160

>  <ID>  (668) 
JP011109

>  <CONTRIBUTOR>  (668) 
University of Tokyo Team, {Faculty of Engineering, University of Tokyo

>  <COMMENT>  (668) 
SMILES=CC(C)NC(=S)NC(C)C
cas=2986-17-6
InChI=InChI=1S/C7H16N2S/c1-5(2)8-7(10)9-6(3)4/h5-6H,1-4H3,(H2,8,9,10)
computed SMILES=SC(=NC(C)C)NC(C)C
accession=JP011109
date=2016.01.19 (Created 2008.10.21, modified 2011.05.06)
author=YAMAMOTO M, DEP. CHEMISTRY, FAC. SCIENCE, NARA WOMEN'S UNIV.
license=CC BY-NC-SA
exact mass=160.10342
ionization energy=70 eV
ion type=[M]+*
computed spectral entropy=2.4452967153470873
computed normalized entropy=0.7055634889466628
SPLASH=splash10-0btc-9200000000-bc2741c2cd26287b89d9
submitter=submitter = University of Tokyo Team (Faculty of Engineering, University of Tokyo)
MoNA Rating=3.75

>  <NUM PEAKS>  (668) 
32

>  <MASS SPECTRAL PEAKS>  (668) 
14 1.38
17 2.32
26 5.21
27 4.17
29 1.68
32 1.26
39 3.61
40 1.08
41 14.49
42 8.98
43 26.65
44 12.61
57 1.52
58 99.99
59 4.6
60 12.91
61 1.04
62 1.4
64 3.3
69 1.57
70 3.91
75 2.21
85 6.24
90 1.39
102 1.1
103 1.1
117 3.88
128 1.09
159 2.9
160 49.22
161 5.29
162 2.44

>  <PREDICTED SPECTRUM>  (668) 
26 29
27 171
28 130
29 45
30 164
32 23
33 20
34 35
38 35
39 230
40 184
41 755
42 700
43 999
44 512
45 243
46 69
47 67
48 27
51 23
52 30
53 99
54 178
55 134
56 150
57 81
58 869
59 297
60 462
61 180
62 44
64 5
65 5
66 14
67 149
68 151
69 187
70 243
71 62
74 60
75 181
76 177
77 26
78 1
79 2
80 40
83 63
84 153
85 392
86 409
87 119
88 64
100 252
101 115
102 228
103 249
104 67
117 149
118 118
126 85
127 67
128 49
145 220
159 165
160 594
161 167
162 54

$$$$

     RDKit          2D

 11 11  0  0  0  0  0  0  0  0999 V2000
    2.5989   -0.7496    0.0000 C   0  0  0  0  0  0  0  0  0  0  0  0
    0.0008   -2.2500    0.0000 C   0  0  0  0  0  0  0  0  0  0  0  0
   -1.2992   -3.0000    0.0000 C   0  0  0  0  0  0  0  0  0  0  0  0
   -1.2992    0.0000    0.0000 C   0  0  0  0  0  0  0  0  0  0  0  0
    1.2998    0.0002    0.0000 C   0  0  0  0  0  0  0  0  0  0  0  0
    0.0008   -0.7500    0.0000 C   0  0  0  0  0  0  0  0  0  0  0  0
   -2.5992   -2.2500    0.0000 C   0  0  0  0  0  0  0  0  0  0  0  0
   -2.5992   -0.7500    0.0000 C   0  0  0  0  0  0  0  0  0  0  0  0
   -3.8981   -3.0002    0.0000 Cl  0  0  0  0  0  0  0  0  0  0  0  0
   -3.8981    0.0002    0.0000 Cl  0  0  0  0  0  0  0  0  0  0  0  0
    1.2995    1.5002    0.0000 O   0  0  0  0  0  0  0  0  0  0  0  0
  3  2  2  0
  5  1  1  0
  6  2  1  0
  6  4  2  0
  6  5  1  0
  7  3  1  0
  8  4  1  0
  8  7  2  0
  9  7  1  0
 10  8  1  0
 11  5  2  0
M  END
>  <NAME>  (669) 
3',4'-DICHLOROACETOPHENONE

>  <SYNONYMS>  (669) 


>  <SPECTRUM TYPE>  (669) 
MS1

>  <INSTRUMENT TYPE>  (669) 
EI-B

>  <INSTRUMENT>  (669) 
HITACHI M-80

>  <ION MODE>  (669) 
P

>  <INCHIKEY>  (669) 
WBPAOUHWPONFEQ-UHFFFAOYSA-N

>  <FORMULA>  (669) 
C8H6Cl2O

>  <EXACT MASS>  (669) 
187.979570172

>  <MW>  (669) 
188

>  <ID>  (669) 
JP011108

>  <CONTRIBUTOR>  (669) 
University of Tokyo Team, {Faculty of Engineering, University of Tokyo

>  <COMMENT>  (669) 
SMILES=CC(=O)c(c1)cc(Cl)c(Cl)c1
cas=2642-63-9
InChI=InChI=1S/C8H6Cl2O/c1-5(11)6-2-3-7(9)8(10)4-6/h2-4H,1H3
computed SMILES=O=C(C1=CC=C(Cl)C(Cl)=C1)C
accession=JP011108
date=2016.01.19 (Created 2008.10.21, modified 2011.05.06)
author=YAMAMOTO M, DEP. CHEMISTRY, FAC. SCIENCE, NARA WOMEN'S UNIV.
license=CC BY-NC-SA
exact mass=187.97957
ionization energy=70 eV
ion type=[M]+*
computed spectral entropy=2.6794005555297846
computed normalized entropy=0.747700961414244
SPLASH=splash10-00fu-1900000000-5c0bfb3015cd866ea815
submitter=submitter = University of Tokyo Team (Faculty of Engineering, University of Tokyo)
MoNA Rating=3.75

>  <NUM PEAKS>  (669) 
36

>  <MASS SPECTRAL PEAKS>  (669) 
15 2.19
37 1.21
42 1.09
43 28.72
49 1.01
50 3.53
51 1.12
61 1.35
62 1.47
63 1.83
73 2.93
74 9.9
75 10.27
84 2.98
85 2.08
86 1.36
87 1.1
89 1.25
109 11.26
110 4.77
111 4.94
112 1.58
145 28.9
146 2.94
147 18.01
148 1.75
149 2.97
173 99.99
174 7.81
175 64.7
176 10.49
188 42.25
189 4.1
190 27.86
191 2.51
192 4.44

>  <PREDICTED SPECTRUM>  (669) 
14 37
15 145
16 0
25 13
26 13
27 51
29 7
33 6
35 70
36 67
37 170
38 166
39 154
40 58
41 140
42 118
43 795
44 152
45 20
47 111
48 33
49 192
50 463
51 321
52 92
53 104
54 15
55 30
56 30
58 73
60 146
61 272
62 314
63 288
64 97
65 50
66 1
68 72
69 126
70 25
71 66
72 169
73 371
74 571
75 650
76 137
77 46
81 45
84 270
85 279
86 208
87 179
89 77
90 27
91 57
95 35
97 160
98 123
99 274
100 100
101 22
102 127
103 22
108 87
109 582
110 389
111 368
112 210
113 100
114 21
115 30
117 30
118 24
119 37
123 28
124 40
125 199
126 110
134 6
135 99
136 14
137 84
138 125
139 66
145 669
146 202
147 443
148 86
149 110
153 76
155 115
171 140
172 5
173 999
174 264
175 829
176 255
177 391
187 15
188 621
189 189
190 500
191 152
192 226
193 28

$$$$

     RDKit          2D

 11 11  0  0  0  0  0  0  0  0999 V2000
   -1.3000    0.7500    0.0000 C   0  0  0  0  0  0  0  0  0  0  0  0
    0.0000    1.5000    0.0000 C   0  0  0  0  0  0  0  0  0  0  0  0
   -0.0000   -1.5000    0.0000 C   0  0  0  0  0  0  0  0  0  0  0  0
   -1.3000   -0.7500    0.0000 C   0  0  0  0  0  0  0  0  0  0  0  0
    1.3000   -0.7500    0.0000 C   0  0  0  0  0  0  0  0  0  0  0  0
    1.3000    0.7500    0.0000 C   0  0  0  0  0  0  0  0  0  0  0  0
    2.5989   -1.5002    0.0000 Cl  0  0  0  0  0  0  0  0  0  0  0  0
   -2.5989   -1.5002    0.0000 N   0  0  0  0  0  0  0  0  0  0  0  0
    2.5989    1.5002    0.0000 N   0  0  0  0  0  0  0  0  0  0  0  0
    2.5987    3.0002    0.0000 O   0  0  0  0  0  0  0  0  0  0  0  0
    3.8981    0.7504    0.0000 O   0  0  0  0  0  0  0  0  0  0  0  0
  2  1  2  0
  4  1  1  0
  4  3  2  0
  5  3  1  0
  6  2  1  0
  6  5  2  0
  7  5  1  0
  8  4  1  0
  9  6  1  0
 10  9  1  0
 11  9  2  0
M  CHG  2   9   1  10  -1
M  END
>  <NAME>  (670) 
3-CHLORO-4-NITROANILINE

>  <SYNONYMS>  (670) 


>  <SPECTRUM TYPE>  (670) 
MS1

>  <INSTRUMENT TYPE>  (670) 
EI-B

>  <INSTRUMENT>  (670) 
HITACHI M-80

>  <ION MODE>  (670) 
P

>  <INCHIKEY>  (670) 
LDSIOPGMLLPSSR-UHFFFAOYSA-N

>  <FORMULA>  (670) 
C6H5ClN2O2

>  <EXACT MASS>  (670) 
172.00395508

>  <MW>  (670) 
172

>  <ID>  (670) 
JP011107

>  <CONTRIBUTOR>  (670) 
University of Tokyo Team, {Faculty of Engineering, University of Tokyo

>  <COMMENT>  (670) 
SMILES=Nc(c1)cc(Cl)c(c1)[N+1]([O-1])=O
cas=825-41-2
InChI=InChI=1S/C6H5ClN2O2/c7-5-3-4(8)1-2-6(5)9(10)11/h1-3H,8H2
computed SMILES=O=N(=O)C1=CC=C(N)C=C1Cl
accession=JP011107
date=2016.01.19 (Created 2008.10.21, modified 2011.05.06)
author=YAMAMOTO M, DEP. CHEMISTRY, FAC. SCIENCE, NARA WOMEN'S UNIV.
license=CC BY-NC-SA
exact mass=172.00396
ionization energy=70 eV
ion type=[M]+*
computed spectral entropy=3.1241622816755688
computed normalized entropy=0.7906782026589854
SPLASH=splash10-006x-4900000000-cd2a3dd041365be8da8f
submitter=submitter = University of Tokyo Team (Faculty of Engineering, University of Tokyo)
MoNA Rating=3.75

>  <NUM PEAKS>  (670) 
52

>  <MASS SPECTRAL PEAKS>  (670) 
18 2.6
27 1
28 1.49
30 12.05
37 2.26
38 3.56
39 5.03
40 1.55
41 8.5
46 2.16
50 1.89
51 3.85
52 6.76
53 1.75
61 3.65
62 6.53
63 21.14
64 6.67
65 4.74
66 1.28
72 1.05
73 5.18
74 1.71
75 2.46
76 1.3
78 4.33
79 1.58
87 2.57
88 1.31
89 2.71
90 20.56
91 9.75
99 29.04
100 2.55
101 9.47
114 21.5
115 1.69
116 7.43
125 1.42
126 21.33
127 2.01
128 7.17
142 99.99
143 7.75
144 32.74
145 2.59
156 3.73
158 1.33
172 73.75
173 5.74
174 23.82
175 1.93

>  <PREDICTED SPECTRUM>  (670) 
25 8
26 55
27 48
30 172
35 60
36 114
37 222
38 285
39 324
40 166
41 302
42 131
43 76
44 153
46 219
47 62
48 54
49 214
50 384
51 453
52 462
53 317
54 137
55 0
60 154
61 337
62 523
63 694
64 439
65 314
66 142
67 88
70 38
72 182
73 455
74 270
75 333
76 281
77 75
78 247
79 177
80 80
84 15
85 128
86 192
87 201
88 203
89 135
90 486
91 496
92 169
97 147
98 331
99 699
100 379
101 335
102 106
106 67
107 118
113 52
114 480
115 205
116 353
117 80
125 146
126 689
127 220
128 397
129 83
142 879
143 231
144 496
145 149
156 179
158 23
172 999
173 282
174 610
175 175

$$$$

     RDKit          2D

 11 11  0  0  0  0  0  0  0  0999 V2000
   -1.3000    0.7500    0.0000 C   0  0  0  0  0  0  0  0  0  0  0  0
    0.0000    1.5000    0.0000 C   0  0  0  0  0  0  0  0  0  0  0  0
   -0.0000   -1.5000    0.0000 C   0  0  0  0  0  0  0  0  0  0  0  0
   -1.3000   -0.7500    0.0000 C   0  0  0  0  0  0  0  0  0  0  0  0
    1.3000    0.7500    0.0000 C   0  0  0  0  0  0  0  0  0  0  0  0
    1.3000   -0.7500    0.0000 C   0  0  0  0  0  0  0  0  0  0  0  0
    2.5989    1.5002    0.0000 C   0  0  0  0  0  0  0  0  0  0  0  0
   -2.5989   -1.5002    0.0000 F   0  0  0  0  0  0  0  0  0  0  0  0
    2.5989   -1.5002    0.0000 F   0  0  0  0  0  0  0  0  0  0  0  0
    3.8981    0.7504    0.0000 O   0  0  0  0  0  0  0  0  0  0  0  0
    2.5987    3.0002    0.0000 O   0  0  0  0  0  0  0  0  0  0  0  0
  2  1  2  0
  4  1  1  0
  4  3  2  0
  5  2  1  0
  6  3  1  0
  6  5  2  0
  7  5  1  0
  8  4  1  0
  9  6  1  0
 10  7  2  0
 11  7  1  0
M  END
>  <NAME>  (671) 
2,4-DIFLUOROBENZOIC ACID

>  <SYNONYMS>  (671) 


>  <SPECTRUM TYPE>  (671) 
MS1

>  <INSTRUMENT TYPE>  (671) 
EI-B

>  <INSTRUMENT>  (671) 
HITACHI M-80

>  <ION MODE>  (671) 
P

>  <INCHIKEY>  (671) 
NJYBIFYEWYWYAN-UHFFFAOYSA-N

>  <FORMULA>  (671) 
C7H4F2O2

>  <EXACT MASS>  (671) 
158.017935808

>  <MW>  (671) 
158

>  <ID>  (671) 
JP011106

>  <CONTRIBUTOR>  (671) 
University of Tokyo Team, {Faculty of Engineering, University of Tokyo

>  <COMMENT>  (671) 
SMILES=OC(=O)c(c1)c(F)cc(F)c1
cas=1583-58-0
InChI=InChI=1S/C7H4F2O2/c8-4-1-2-5(7(10)11)6(9)3-4/h1-3H,(H,10,11)
computed SMILES=O=C(O)C1=CC=C(F)C=C1F
exact mass=158.01794
accession=JP011106
date=2016.01.19 (Created 2008.10.21, modified 2011.05.06)
author=YAMAMOTO M, DEP. CHEMISTRY, FAC. SCIENCE, NARA WOMEN'S UNIV.
license=CC BY-NC-SA
ionization energy=70 eV
ion type=[M]+*
computed spectral entropy=2.3829152878433493
computed normalized entropy=0.675743524012686
SPLASH=splash10-06r6-3900000000-f25584dfe844346e5278
submitter=submitter = University of Tokyo Team (Faculty of Engineering, University of Tokyo)
MoNA Rating=3.75

>  <NUM PEAKS>  (671) 
34

>  <MASS SPECTRAL PEAKS>  (671) 
31 3.41
37 1.99
38 1.32
45 5
50 4.4
51 1.1
56 1.38
57 3.12
61 3.18
62 5.24
63 24.25
64 1.6
68 4.26
69 2.01
73 1.06
74 3.9
75 2.88
81 3.21
82 2.23
87 1.19
88 1.62
92 1.7
93 4
94 5.55
101 1.26
110 1.48
112 2.68
113 32.8
114 5
130 1.31
141 99.99
142 7.62
158 80.95
159 6.44

>  <PREDICTED SPECTRUM>  (671) 
17 30
19 3
25 15
26 26
28 0
29 0
31 213
33 23
36 82
37 153
38 132
39 75
43 58
44 77
45 278
46 8
48 38
49 135
50 254
51 191
52 74
53 84
54 16
55 72
56 227
57 341
60 105
61 269
62 271
63 410
64 158
67 28
68 275
69 208
70 98
73 86
74 201
75 374
76 38
79 13
80 160
81 452
82 248
83 168
84 9
85 1
86 97
87 115
88 99
92 177
93 257
94 319
95 164
99 203
100 7
101 128
102 20
110 208
111 101
112 209
113 807
114 303
129 75
130 92
132 17
138 155
140 93
141 999
142 238
143 8
158 837
159 229
160 24

$$$$

     RDKit          2D

 12 12  0  0  0  0  0  0  0  0999 V2000
   -0.3250    3.1883    0.0000 C   0  0  0  0  0  0  0  0  0  0  0  0
    2.2739   -1.3131    0.0000 C   0  0  0  0  0  0  0  0  0  0  0  0
   -1.6243    0.9383    0.0000 C   0  0  0  0  0  0  0  0  0  0  0  0
   -0.3243   -1.3133    0.0000 C   0  0  0  0  0  0  0  0  0  0  0  0
   -0.3252    1.6883    0.0000 C   0  0  0  0  0  0  0  0  0  0  0  0
    0.9748   -0.5633    0.0000 C   0  0  0  0  0  0  0  0  0  0  0  0
    0.9743    0.9375    0.0000 C   0  0  0  0  0  0  0  0  0  0  0  0
   -1.6238   -0.5625    0.0000 N   0  0  0  0  0  0  0  0  0  0  0  0
    2.2733    1.6875    0.0000 N   0  0  0  0  0  0  0  0  0  0  0  0
   -2.9228   -1.3125    0.0000 O   0  0  0  0  0  0  0  0  0  0  0  0
    2.2733    3.1875    0.0000 O   0  0  0  0  0  0  0  0  0  0  0  0
    3.5724    0.9375    0.0000 O   0  0  0  0  0  0  0  0  0  0  0  0
  5  1  1  0
  5  3  2  0
  6  2  1  0
  6  4  1  0
  7  5  1  0
  7  6  2  0
  8  3  1  0
  8  4  2  0
  9  7  1  0
 10  8  1  0
 11  9  1  0
 12  9  2  0
M  CHG  4   8   1   9   1  10  -1  11  -1
M  END
>  <NAME>  (672) 
3,5-DIMETHYL-4-NITROPYRIDINE N-OXIDE

>  <SYNONYMS>  (672) 


>  <SPECTRUM TYPE>  (672) 
MS1

>  <INSTRUMENT TYPE>  (672) 
EI-B

>  <INSTRUMENT>  (672) 
HITACHI M-80

>  <ION MODE>  (672) 
P

>  <INCHIKEY>  (672) 
VLKVMXPKEDVNBO-UHFFFAOYSA-N

>  <FORMULA>  (672) 
C7H8N2O3

>  <EXACT MASS>  (672) 
168.05349211599997

>  <MW>  (672) 
168

>  <ID>  (672) 
JP011105

>  <CONTRIBUTOR>  (672) 
University of Tokyo Team, {Faculty of Engineering, University of Tokyo

>  <COMMENT>  (672) 
SMILES=[O-1][n+1](c1)cc(C)c([N+1]([O-1])=O)c(C)1
InChI=InChI=1S/C7H8N2O3/c1-5-3-8(10)4-6(2)7(5)9(11)12/h3-4H,1-2H3
computed SMILES=O=N(=O)C1=C(C=N(=O)C=C1C)C
accession=JP011105
date=2016.01.19 (Created 2008.10.21, modified 2011.05.06)
author=YAMAMOTO M, DEP. CHEMISTRY, FAC. SCIENCE, NARA WOMEN'S UNIV.
license=CC BY-NC-SA
exact mass=168.05349
ionization energy=70 eV
ion type=[M]+*
computed spectral entropy=2.80110219685361
computed normalized entropy=0.7402118994637344
SPLASH=splash10-014i-6900000000-b428a53b1b804a007bef
submitter=submitter = University of Tokyo Team (Faculty of Engineering, University of Tokyo)
MoNA Rating=3.75

>  <NUM PEAKS>  (672) 
44

>  <MASS SPECTRAL PEAKS>  (672) 
27 2.47
29 1.05
30 3.9
38 1.22
39 8.04
40 1.63
41 9.54
42 2.09
52 4.28
53 4.62
54 2.9
55 6.21
63 2.51
64 1.05
65 8.28
66 3.56
67 14.56
68 2.95
69 1.57
77 5.2
78 1.87
79 2.06
80 1.64
82 6.52
83 12.87
84 1.71
91 3.94
92 1.41
93 1.71
95 1.07
96 1.27
105 1.03
106 1.47
107 2
108 2.05
123 1.45
135 1.05
138 19.23
139 1.74
151 4.29
152 2.5
168 99.99
169 30.06
170 2.68

>  <PREDICTED SPECTRUM>  (672) 
26 7
27 109
28 34
29 39
30 85
37 35
38 91
39 307
40 129
41 346
42 108
43 132
46 7
48 1
49 46
50 132
51 322
52 258
53 231
54 175
55 231
56 142
57 78
62 39
63 181
64 167
65 289
66 239
67 394
68 196
69 150
74 28
75 53
76 97
77 433
78 236
79 246
80 148
81 148
82 155
83 165
84 29
89 36
90 41
91 266
92 202
93 231
94 232
95 131
96 74
104 156
105 253
106 168
107 163
108 96
109 24
120 83
121 144
122 111
123 145
124 2
136 10
138 117
151 92
152 120
153 3
168 999
169 312
170 103

$$$$

     RDKit          2D

 11 11  0  0  0  0  0  0  0  0999 V2000
   -1.3000    0.7500    0.0000 C   0  0  0  0  0  0  0  0  0  0  0  0
    1.3000    0.7500    0.0000 C   0  0  0  0  0  0  0  0  0  0  0  0
   -0.0000   -1.5000    0.0000 C   0  0  0  0  0  0  0  0  0  0  0  0
    0.0000    1.5000    0.0000 C   0  0  0  0  0  0  0  0  0  0  0  0
   -1.3000   -0.7500    0.0000 C   0  0  0  0  0  0  0  0  0  0  0  0
    1.3000   -0.7500    0.0000 C   0  0  0  0  0  0  0  0  0  0  0  0
    0.0000    3.0000    0.0000 C   0  0  0  0  0  0  0  0  0  0  0  0
   -2.5989   -1.5002    0.0000 Cl  0  0  0  0  0  0  0  0  0  0  0  0
    2.5989   -1.5002    0.0000 Cl  0  0  0  0  0  0  0  0  0  0  0  0
    1.2990    3.7500    0.0000 O   0  0  0  0  0  0  0  0  0  0  0  0
   -1.2990    3.7500    0.0000 O   0  0  0  0  0  0  0  0  0  0  0  0
  4  1  2  0
  4  2  1  0
  5  1  1  0
  5  3  2  0
  6  2  2  0
  6  3  1  0
  7  4  1  0
  8  5  1  0
  9  6  1  0
 10  7  2  0
 11  7  1  0
M  END
>  <NAME>  (673) 
3,5-DICHLOROBENZOIC ACID

>  <SYNONYMS>  (673) 


>  <SPECTRUM TYPE>  (673) 
MS1

>  <INSTRUMENT TYPE>  (673) 
EI-B

>  <INSTRUMENT>  (673) 
HITACHI M-80

>  <ION MODE>  (673) 
P

>  <INCHIKEY>  (673) 
CXKCZFDUOYMOOP-UHFFFAOYSA-N

>  <FORMULA>  (673) 
C7H4Cl2O2

>  <EXACT MASS>  (673) 
189.958834728

>  <MW>  (673) 
190

>  <ID>  (673) 
JP011104

>  <CONTRIBUTOR>  (673) 
University of Tokyo Team, {Faculty of Engineering, University of Tokyo

>  <COMMENT>  (673) 
SMILES=OC(=O)c(c1)cc(Cl)cc(Cl)1
cas=51-36-5
InChI=InChI=1S/C7H4Cl2O2/c8-5-1-4(7(10)11)2-6(9)3-5/h1-3H,(H,10,11)
computed SMILES=O=C(O)C=1C=C(Cl)C=C(Cl)C1
accession=JP011104
date=2016.01.19 (Created 2008.10.21, modified 2011.05.06)
author=YAMAMOTO M, DEP. CHEMISTRY, FAC. SCIENCE, NARA WOMEN'S UNIV.
license=CC BY-NC-SA
exact mass=189.95883
ionization energy=70 eV
ion type=[M]+*
computed spectral entropy=3.2502192188576964
computed normalized entropy=0.7875244456868311
SPLASH=splash10-006x-3900000000-b4d591f9711f3bcf67a7
submitter=submitter = University of Tokyo Team (Faculty of Engineering, University of Tokyo)
MoNA Rating=3.75

>  <NUM PEAKS>  (673) 
62

>  <MASS SPECTRAL PEAKS>  (673) 
17 1.18
18 2.48
28 8.39
32 1.86
35 1.07
36 1.33
37 4.1
38 3.02
39 1.46
45 11.12
47 1
49 2.85
50 11.48
51 2.85
53 1.66
54 1.23
55 1.31
60 1.36
61 2.59
62 2.57
63 8.39
64 1.07
72 1.57
73 10.62
74 32.09
75 34.17
76 2.47
77 1.16
84 6.7
85 5.41
86 2.42
87 2.08
97 1.4
98 1.15
99 10.49
101 3.49
108 2.1
109 25.17
110 10.55
111 16.14
112 3.53
113 2.75
144 1.97
145 37.3
146 4.87
147 24.21
148 2.58
149 4
155 2.33
162 1.63
164 1.03
172 1.03
173 69.47
174 6.03
175 44.02
176 3.66
177 7.3
190 99.99
191 8.15
192 65.07
193 5.17
194 10.38

>  <PREDICTED SPECTRUM>  (673) 
14 10
17 12
18 19
25 24
33 4
35 156
36 191
37 258
38 244
39 138
40 22
41 35
42 27
43 110
44 134
45 446
47 179
48 120
49 228
50 433
51 286
52 98
53 228
54 69
55 143
56 87
57 206
58 64
60 256
61 315
62 252
63 401
64 131
65 160
66 20
67 2
68 114
69 104
71 73
72 198
73 626
74 732
75 626
76 144
77 138
80 61
81 98
82 122
83 127
84 359
85 292
86 273
87 153
89 48
91 99
92 81
94 98
97 92
98 93
99 310
100 83
101 137
103 25
107 89
108 231
109 667
110 462
111 419
112 227
113 177
114 54
117 15
118 64
119 129
120 42
127 122
128 11
133 12
135 125
137 43
138 70
139 14
144 93
145 725
146 273
147 529
148 78
149 179
155 338
156 123
157 143
158 40
162 78
163 7
164 99
171 58
173 999
174 251
175 705
176 155
177 281
178 2
190 953
191 292
192 727
193 231
194 282
195 84

$$$$

     RDKit          2D

 16 17  0  0  0  0  0  0  0  0999 V2000
    6.4970    3.7506    0.0000 C   0  0  0  0  0  0  0  0  0  0  0  0
    7.7970    1.5006    0.0000 C   0  0  0  0  0  0  0  0  0  0  0  0
    0.0000   -1.5000    0.0000 C   0  0  0  0  0  0  0  0  0  0  0  0
   -1.3000    0.7500    0.0000 C   0  0  0  0  0  0  0  0  0  0  0  0
    5.1970    3.0006    0.0000 C   0  0  0  0  0  0  0  0  0  0  0  0
    6.4970    0.7506    0.0000 C   0  0  0  0  0  0  0  0  0  0  0  0
    1.3000   -0.7500    0.0000 C   0  0  0  0  0  0  0  0  0  0  0  0
    0.0000    1.5000    0.0000 C   0  0  0  0  0  0  0  0  0  0  0  0
    7.7970    3.0006    0.0000 C   0  0  0  0  0  0  0  0  0  0  0  0
   -1.3000   -0.7500    0.0000 C   0  0  0  0  0  0  0  0  0  0  0  0
    5.1970    1.5006    0.0000 C   0  0  0  0  0  0  0  0  0  0  0  0
    1.3000    0.7500    0.0000 C   0  0  0  0  0  0  0  0  0  0  0  0
    9.0959    3.7508    0.0000 N   0  0  0  0  0  0  0  0  0  0  0  0
   -2.5989   -1.5002    0.0000 N   0  0  0  0  0  0  0  0  0  0  0  0
    3.8981    0.7504    0.0000 S   0  0  0  0  0  0  0  0  0  0  0  0
    2.5989    1.5002    0.0000 S   0  0  0  0  0  0  0  0  0  0  0  0
  5  1  2  0
  6  2  1  0
  7  3  2  0
  8  4  1  0
  9  1  1  0
  9  2  2  0
 10  3  1  0
 10  4  2  0
 11  5  1  0
 11  6  2  0
 12  7  1  0
 12  8  2  0
 13  9  1  0
 14 10  1  0
 15 11  1  0
 16 12  1  0
 16 15  1  0
M  END
>  <NAME>  (674) 
4-AMINOPHENYL DISULFIDE

>  <SYNONYMS>  (674) 
4,4'-DITHIODIANILINE

>  <SPECTRUM TYPE>  (674) 
MS1

>  <INSTRUMENT TYPE>  (674) 
EI-B

>  <INSTRUMENT>  (674) 
HITACHI M-80

>  <ION MODE>  (674) 
P

>  <INCHIKEY>  (674) 
MERLDGDYUMSLAY-UHFFFAOYSA-N

>  <FORMULA>  (674) 
C12H12N2S2

>  <EXACT MASS>  (674) 
248.044190384

>  <MW>  (674) 
248

>  <ID>  (674) 
JP011103

>  <CONTRIBUTOR>  (674) 
University of Tokyo Team, {Faculty of Engineering, University of Tokyo

>  <COMMENT>  (674) 
SMILES=Nc(c2)ccc(c2)SSc(c1)ccc(N)c1
cas=722-27-0
InChI=InChI=1S/C12H12N2S2/c13-9-1-5-11(6-2-9)15-16-12-7-3-10(14)4-8-12/h1-8H,13-14H2
computed SMILES=S(SC1=CC=C(N)C=C1)C2=CC=C(N)C=C2
accession=JP011103
date=2016.01.19 (Created 2008.10.21, modified 2011.05.06)
author=YAMAMOTO M, DEP. CHEMISTRY, FAC. SCIENCE, NARA WOMEN'S UNIV.
license=CC BY-NC-SA
exact mass=248.04419
ionization energy=70 eV
ion type=[M]+*
computed spectral entropy=2.11205848400298
computed normalized entropy=0.6645760571562577
SPLASH=splash10-00di-3930000000-fac3f5e4dede9965f49c
submitter=submitter = University of Tokyo Team (Faculty of Engineering, University of Tokyo)
MoNA Rating=3.75

>  <NUM PEAKS>  (674) 
24

>  <MASS SPECTRAL PEAKS>  (674) 
28 2.97
39 1.76
45 1.8
52 1.46
53 3.87
54 1.69
63 1.62
65 2.05
69 1.67
70 1.37
80 27.14
81 2.92
91 1.54
93 2.35
96 1.58
97 5.67
123 3.04
124 99.99
125 30.99
126 6.38
127 1.58
248 42.41
249 6.6
250 4.15

>  <PREDICTED SPECTRUM>  (674) 
34 19
38 22
39 131
40 16
41 179
42 77
43 127
44 64
45 239
46 15
47 85
48 40
49 15
50 94
51 161
52 231
53 203
54 214
55 159
56 33
57 180
58 60
59 88
60 101
61 127
62 76
63 170
64 197
65 374
66 202
67 164
68 84
69 93
70 138
71 88
74 63
76 12
78 145
79 102
80 361
81 104
82 166
83 151
84 119
85 73
86 9
87 57
90 82
91 61
92 296
93 278
94 183
95 227
96 329
97 162
98 91
99 129
100 18
108 35
111 36
112 85
123 13
124 999
125 569
126 311
127 150
155 2
156 56
184 70
248 554
249 282
250 175
251 68
252 20

$$$$

     RDKit          2D

  8  8  0  0  0  0  0  0  0  0999 V2000
   -1.3000    0.7500    0.0000 C   0  0  0  0  0  0  0  0  0  0  0  0
   -1.3000   -0.7500    0.0000 C   0  0  0  0  0  0  0  0  0  0  0  0
    1.3000   -0.7500    0.0000 C   0  0  0  0  0  0  0  0  0  0  0  0
    0.0000    1.5000    0.0000 C   0  0  0  0  0  0  0  0  0  0  0  0
    1.3000    0.7500    0.0000 C   0  0  0  0  0  0  0  0  0  0  0  0
    0.0000    3.0000    0.0000 N   0  0  0  0  0  0  0  0  0  0  0  0
    2.5989    1.5002    0.0000 N   0  0  0  0  0  0  0  0  0  0  0  0
   -0.0000   -1.5000    0.0000 N   0  0  0  0  0  0  0  0  0  0  0  0
  2  1  2  0
  4  1  1  0
  5  3  2  0
  5  4  1  0
  6  4  2  0
  7  5  1  0
  8  2  1  0
  8  3  1  0
M  END
>  <NAME>  (675) 
3,4-DIAMINOPYRIDINE

>  <SYNONYMS>  (675) 


>  <SPECTRUM TYPE>  (675) 
MS1

>  <INSTRUMENT TYPE>  (675) 
EI-B

>  <INSTRUMENT>  (675) 
HITACHI M-80

>  <ION MODE>  (675) 
P

>  <INCHIKEY>  (675) 
OYTKINVCDFNREN-UHFFFAOYSA-N

>  <FORMULA>  (675) 
C5H7N3

>  <EXACT MASS>  (675) 
109.06399722399999

>  <MW>  (675) 
109

>  <ID>  (675) 
JP011102

>  <CONTRIBUTOR>  (675) 
University of Tokyo Team, {Faculty of Engineering, University of Tokyo

>  <COMMENT>  (675) 
SMILES=Nc(c1)c(N)cnc1
cas=54-96-6
InChI=InChI=1S/C5H7N3/c6-4-1-2-8-3-5(4)7/h1-3H,7H2,(H2,6,8)
computed SMILES=N=C1C=CNC=C1N
accession=JP011102
date=2016.01.19 (Created 2008.10.21, modified 2011.05.06)
author=YAMAMOTO M, DEP. CHEMISTRY, FAC. SCIENCE, NARA WOMEN'S UNIV.
license=CC BY-NC-SA
exact mass=109.064
ionization energy=70 eV
ion type=[M]+*
computed spectral entropy=2.6918352912006203
computed normalized entropy=0.7698639982553419
SPLASH=splash10-0a4i-9500000000-a63c0bd9a1bb53b616fd
submitter=submitter = University of Tokyo Team (Faculty of Engineering, University of Tokyo)
MoNA Rating=3.75

>  <NUM PEAKS>  (675) 
33

>  <MASS SPECTRAL PEAKS>  (675) 
18 2.05
26 2.71
27 3.79
28 22.55
29 3.05
30 1.92
37 1.19
38 4.79
39 4.18
40 5.81
41 10.31
42 5.02
43 1.65
51 1.94
52 12.06
53 7.56
54 21.19
55 13.46
56 4.72
64 2.65
65 6.85
66 3.05
67 2.27
68 1.45
69 3.55
80 1.05
81 15.24
82 14.17
92 1.39
93 1.25
108 4.8
109 99.99
110 6.99

>  <PREDICTED SPECTRUM>  (675) 
25 11
26 26
27 64
28 121
29 89
36 15
37 107
38 200
39 324
40 257
41 379
42 264
43 189
44 93
49 64
50 189
51 233
52 458
53 361
54 485
55 324
56 107
57 71
61 32
62 58
63 141
64 173
65 224
66 245
67 190
68 28
69 58
76 16
79 143
80 195
81 429
82 542
83 135
84 0
91 118
92 163
93 64
107 45
108 348
109 999
110 260
111 32

$$$$

     RDKit          2D

 16 17  0  0  0  0  0  0  0  0999 V2000
    2.6000   -0.7500    0.0000 C   0  0  0  0  0  0  0  0  0  0  0  0
   -2.6000    0.7500    0.0000 C   0  0  0  0  0  0  0  0  0  0  0  0
    1.3000   -1.5000    0.0000 C   0  0  0  0  0  0  0  0  0  0  0  0
   -1.3000    1.5000    0.0000 C   0  0  0  0  0  0  0  0  0  0  0  0
    2.6000    0.7500    0.0000 C   0  0  0  0  0  0  0  0  0  0  0  0
   -2.6000   -0.7500    0.0000 C   0  0  0  0  0  0  0  0  0  0  0  0
    0.0000   -0.7500    0.0000 C   0  0  0  0  0  0  0  0  0  0  0  0
    0.0000    0.7500    0.0000 C   0  0  0  0  0  0  0  0  0  0  0  0
    1.3000    1.5000    0.0000 C   0  0  0  0  0  0  0  0  0  0  0  0
   -1.3000   -1.5000    0.0000 C   0  0  0  0  0  0  0  0  0  0  0  0
    1.3000    3.0000    0.0000 N   0  0  0  0  0  0  0  0  0  0  0  0
   -1.3000   -3.0000    0.0000 N   0  0  0  0  0  0  0  0  0  0  0  0
    2.5990    3.7500    0.0000 O   0  0  0  0  0  0  0  0  0  0  0  0
    0.0010    3.7500    0.0000 O   0  0  0  0  0  0  0  0  0  0  0  0
   -2.5990   -3.7500    0.0000 O   0  0  0  0  0  0  0  0  0  0  0  0
   -0.0010   -3.7500    0.0000 O   0  0  0  0  0  0  0  0  0  0  0  0
  3  1  2  0
  4  2  2  0
  5  1  1  0
  6  2  1  0
  7  3  1  0
  8  4  1  0
  8  7  2  0
  9  5  2  0
  9  8  1  0
 10  6  2  0
 10  7  1  0
 11  9  1  0
 12 10  1  0
 13 11  1  0
 14 11  2  0
 15 12  1  0
 16 12  2  0
M  CHG  4  11   1  12   1  13  -1  15  -1
M  END
>  <NAME>  (676) 
1,5-DINITRONAPHTHALENE

>  <SYNONYMS>  (676) 


>  <SPECTRUM TYPE>  (676) 
MS1

>  <INSTRUMENT TYPE>  (676) 
EI-B

>  <INSTRUMENT>  (676) 
HITACHI M-80

>  <ION MODE>  (676) 
P

>  <INCHIKEY>  (676) 
ZUTCJXFCHHDFJS-UHFFFAOYSA-N

>  <FORMULA>  (676) 
C10H6N2O4

>  <EXACT MASS>  (676) 
218.032756672

>  <MW>  (676) 
218

>  <ID>  (676) 
JP011101

>  <CONTRIBUTOR>  (676) 
University of Tokyo Team, {Faculty of Engineering, University of Tokyo

>  <COMMENT>  (676) 
SMILES=[O-1][N+1](=O)c(c2)c(c1)c(cc2)c(cc1)[N+1]([O-1])=O
cas=605-71-0
InChI=InChI=1S/C10H6N2O4/c13-11(14)9-5-1-3-7-8(9)4-2-6-10(7)12(15)16/h1-6H
computed SMILES=O=N(=O)C=1C=CC=C2C1C=CC=C2N(=O)=O
accession=JP011101
date=2016.01.19 (Created 2008.10.21, modified 2011.05.06)
author=YAMAMOTO M, DEP. CHEMISTRY, FAC. SCIENCE, NARA WOMEN'S UNIV.
license=CC BY-NC-SA
exact mass=218.03276
ionization energy=70 eV
ion type=[M]+*
computed spectral entropy=3.7558220822060906
computed normalized entropy=0.8522943876076862
SPLASH=splash10-02di-6910000000-3a146f55260c313530fd
submitter=submitter = University of Tokyo Team (Faculty of Engineering, University of Tokyo)
MoNA Rating=3.75

>  <NUM PEAKS>  (676) 
82

>  <MASS SPECTRAL PEAKS>  (676) 
17 1.27
18 6.8
27 2.24
28 15.59
30 28.8
32 4.03
37 1.12
38 1.77
39 7.64
41 1.01
46 6.1
50 12.27
51 10.44
52 3.77
53 1
55 1.34
61 2.52
62 10.72
63 24.76
64 5.24
65 1.98
73 1.16
74 26.28
75 32.57
76 28.87
77 11.39
78 1.88
85 1.63
86 7.83
87 15.15
88 19.14
89 26.89
90 10.16
91 5.54
92 1.43
98 8.9
99 12.77
100 12.38
101 11.53
102 32.26
103 4.3
104 14.68
105 7.05
106 1.19
111 1.55
112 1.19
113 27.16
114 99.99
115 15.36
116 17.97
117 4.02
118 4.8
119 21.79
120 4.63
122 1.8
125 8.89
126 79.41
127 14.88
128 4.73
129 4.54
130 16.13
131 1.99
132 9.88
133 1.59
141 6.19
142 10.47
143 2.31
144 2.94
145 1.6
146 2.2
149 2.01
156 2.59
157 1.32
158 14.42
159 2.86
160 1.89
172 5.19
173 2.51
188 2.42
202 1.06
218 71.72
219 8.54

>  <PREDICTED SPECTRUM>  (676) 
27 7
28 71
29 43
30 321
37 50
38 84
39 154
40 18
41 59
43 252
44 274
46 141
49 21
50 294
51 264
52 162
53 161
55 170
56 116
57 176
60 42
61 201
62 318
63 448
64 210
65 160
66 43
67 56
68 55
69 97
71 41
73 104
74 424
75 411
76 370
77 311
78 166
79 143
80 75
81 39
85 18
86 235
87 245
88 364
89 358
90 294
91 301
92 137
93 52
97 26
98 224
99 286
100 210
101 302
102 476
103 300
104 202
105 95
106 9
107 25
110 53
111 5
112 86
113 403
114 639
115 350
116 373
117 229
118 239
119 123
120 97
125 262
126 659
127 208
128 227
129 87
130 350
131 105
132 14
133 74
135 26
142 237
143 105
144 150
145 29
146 1
148 120
149 20
155 15
156 97
158 64
160 129
172 205
173 123
174 26
188 105
218 999
219 317
220 76

$$$$

     RDKit          2D

 12 12  0  0  0  0  0  0  0  0999 V2000
    0.7500    1.3100    0.0000 C   0  0  0  0  0  0  0  0  0  0  0  0
   -0.7600    1.2900    0.0000 C   0  0  0  0  0  0  0  0  0  0  0  0
    0.7500   -1.2900    0.0000 C   0  0  0  0  0  0  0  0  0  0  0  0
   -0.7300   -1.3000    0.0000 C   0  0  0  0  0  0  0  0  0  0  0  0
    1.4900    0.0200    0.0000 C   0  0  0  0  0  0  0  0  0  0  0  0
   -1.5000   -0.0100    0.0000 C   0  0  0  0  0  0  0  0  0  0  0  0
    2.9900    0.0250    0.0000 N   0  0  0  0  0  0  0  0  0  0  0  0
   -2.9999   -0.0255    0.0000 N   0  0  0  0  0  0  0  0  0  0  0  0
    3.7357    1.3265    0.0000 O   0  0  0  0  0  0  0  0  0  0  0  0
    3.7443   -1.2716    0.0000 O   0  0  0  0  0  0  0  0  0  0  0  0
   -3.7633    1.2657    0.0000 O   0  0  0  0  0  0  0  0  0  0  0  0
   -3.7365   -1.3322    0.0000 O   0  0  0  0  0  0  0  0  0  0  0  0
  2  1  2  0
  4  3  1  0
  5  1  1  0
  5  3  2  0
  6  2  1  0
  6  4  2  0
  7  5  1  0
  8  6  1  0
  9  7  1  0
 10  7  2  0
 11  8  1  0
 12  8  2  0
M  CHG  4   7   1   8   1   9  -1  11  -1
M  END
>  <NAME>  (677) 
1,4-DINITROBENZENE

>  <SYNONYMS>  (677) 


>  <SPECTRUM TYPE>  (677) 
MS1

>  <INSTRUMENT TYPE>  (677) 
EI-B

>  <INSTRUMENT>  (677) 
HITACHI M-80

>  <ION MODE>  (677) 
P

>  <INCHIKEY>  (677) 
FYFDQJRXFWGIBS-UHFFFAOYSA-N

>  <FORMULA>  (677) 
C6H4N2O4

>  <EXACT MASS>  (677) 
168.017106608

>  <MW>  (677) 
168

>  <ID>  (677) 
JP011100

>  <CONTRIBUTOR>  (677) 
University of Tokyo Team, {Faculty of Engineering, University of Tokyo

>  <COMMENT>  (677) 
SMILES=[O-1][N+1](=O)c(c1)ccc(c1)[N+1]([O-1])=O
cas=100-25-4
InChI=InChI=1S/C6H4N2O4/c9-7(10)5-1-2-6(4-3-5)8(11)12/h1-4H
computed SMILES=O=N(=O)C1=CC=C(C=C1)N(=O)=O
accession=JP011100
date=2016.01.19 (Created 2008.10.21, modified 2011.05.06)
author=YAMAMOTO M, DEP. CHEMISTRY, FAC. SCIENCE, NARA WOMEN'S UNIV.
license=CC BY-NC-SA
exact mass=168.01711
ionization energy=70 eV
ion type=[M]+*
computed spectral entropy=2.655933472826608
computed normalized entropy=0.7734255588831785
SPLASH=splash10-00pi-9200000000-cc46688f3d179b59528b
submitter=submitter = University of Tokyo Team (Faculty of Engineering, University of Tokyo)
MoNA Rating=3.75

>  <NUM PEAKS>  (677) 
31

>  <MASS SPECTRAL PEAKS>  (677) 
18 2.17
26 1.68
28 3.49
30 99.99
37 4.98
38 8.68
39 5.34
46 7.85
49 2.08
50 60.95
51 7.1
52 2.77
53 3.26
54 1.23
61 3.39
62 6.59
63 19.06
64 20.58
65 1.42
73 4.28
74 28.86
75 74.2
76 60.61
77 5.04
92 21
93 1.6
122 23.01
123 1.67
152 1.86
168 78.87
169 6.08

>  <PREDICTED SPECTRUM>  (677) 
14 48
15 53
16 44
25 24
26 89
28 30
30 863
31 191
32 73
36 34
37 227
38 316
39 36
40 43
46 284
49 12
50 624
51 237
52 213
62 383
63 563
64 449
65 12
68 9
74 705
75 805
76 791
77 18
80 145
81 31
91 340
92 480
93 179
94 52
108 139
109 344
122 654
123 161
137 0
138 337
139 222
152 11
168 999
169 259
170 24

$$$$

     RDKit          2D

 14 16  0  0  0  0  0  0  0  0999 V2000
    3.9000   -0.7500    0.0000 C   0  0  0  0  0  0  0  0  0  0  0  0
    3.9000    0.7500    0.0000 C   0  0  0  0  0  0  0  0  0  0  0  0
   -3.9000   -0.7500    0.0000 C   0  0  0  0  0  0  0  0  0  0  0  0
   -3.9000    0.7500    0.0000 C   0  0  0  0  0  0  0  0  0  0  0  0
    2.6000   -1.5000    0.0000 C   0  0  0  0  0  0  0  0  0  0  0  0
    2.6000    1.5000    0.0000 C   0  0  0  0  0  0  0  0  0  0  0  0
   -2.6000   -1.5000    0.0000 C   0  0  0  0  0  0  0  0  0  0  0  0
   -2.6000    1.5000    0.0000 C   0  0  0  0  0  0  0  0  0  0  0  0
   -0.0000   -1.5000    0.0000 C   0  0  0  0  0  0  0  0  0  0  0  0
   -0.0000    1.5000    0.0000 C   0  0  0  0  0  0  0  0  0  0  0  0
    1.3000   -0.7500    0.0000 C   0  0  0  0  0  0  0  0  0  0  0  0
    1.3000    0.7500    0.0000 C   0  0  0  0  0  0  0  0  0  0  0  0
   -1.3000   -0.7500    0.0000 C   0  0  0  0  0  0  0  0  0  0  0  0
   -1.3000    0.7500    0.0000 C   0  0  0  0  0  0  0  0  0  0  0  0
  2  1  2  0
  4  3  2  0
  5  1  1  0
  6  2  1  0
  7  3  1  0
  8  4  1  0
 11  5  2  0
 11  9  1  0
 12  6  2  0
 12 10  1  0
 12 11  1  0
 13  7  2  0
 13  9  1  0
 14  8  2  0
 14 10  1  0
 14 13  1  0
M  END
>  <NAME>  (678) 
9,10-DIHYDROANTHRACENE

>  <SYNONYMS>  (678) 


>  <SPECTRUM TYPE>  (678) 
MS1

>  <INSTRUMENT TYPE>  (678) 
EI-B

>  <INSTRUMENT>  (678) 
HITACHI M-80

>  <ION MODE>  (678) 
P

>  <INCHIKEY>  (678) 
WPDAVTSOEQEGMS-UHFFFAOYSA-N

>  <FORMULA>  (678) 
C14H12

>  <EXACT MASS>  (678) 
180.093900384

>  <MW>  (678) 
180

>  <ID>  (678) 
JP011098

>  <CONTRIBUTOR>  (678) 
University of Tokyo Team, {Faculty of Engineering, University of Tokyo

>  <COMMENT>  (678) 
SMILES=c(c3)cc(C1)c(c3)Cc(c2)c(ccc2)1
cas=613-31-0
InChI=InChI=1S/C14H12/c1-2-6-12-10-14-8-4-3-7-13(14)9-11(12)5-1/h1-8H,9-10H2
computed SMILES=C=1C=CC2=C(C1)CC=3C=CC=CC3C2
accession=JP011098
date=2016.01.19 (Created 2008.10.21, modified 2011.05.06)
author=YAMAMOTO M, DEP. CHEMISTRY, FAC. SCIENCE, NARA WOMEN'S UNIV.
license=CC BY-NC-SA
exact mass=180.0939
ionization energy=70 eV
ion type=[M]+*
computed spectral entropy=2.5408297120825476
computed normalized entropy=0.7036520279747743
SPLASH=splash10-0059-1900000000-e39849b0a6157bad92a4
submitter=submitter = University of Tokyo Team (Faculty of Engineering, University of Tokyo)
MoNA Rating=3.75

>  <NUM PEAKS>  (678) 
37

>  <MASS SPECTRAL PEAKS>  (678) 
27 1.82
39 2.78
50 2.37
51 3.79
62 1.73
63 5.46
74 2.3
75 3.41
76 7.83
77 2.01
83 2.28
86 1.07
87 2.09
88 5.01
89 13.22
90 3.47
102 1.2
115 1.91
126 1.93
127 1.25
128 1.4
139 2.31
150 3.27
151 6.03
152 9.44
153 1.91
163 1.01
165 18.62
166 2.82
175 1.33
176 10.5
177 7.22
178 47.86
179 86.03
180 99.99
181 14.43
182 1.15

>  <PREDICTED SPECTRUM>  (678) 
26 54
27 167
28 81
29 50
36 5
37 38
38 103
39 266
40 55
41 40
43 64
44 29
50 183
51 283
52 154
53 32
54 15
61 10
62 135
63 265
64 147
65 166
69 65
74 98
75 158
76 208
77 196
78 112
79 40
80 7
81 68
82 89
83 68
86 32
87 145
88 159
89 272
90 136
91 77
92 47
94 52
95 190
96 100
97 30
98 11
99 52
100 162
101 317
102 214
103 128
104 46
108 26
111 15
112 26
113 199
114 53
115 314
116 38
119 17
123 16
125 29
126 180
127 150
128 87
137 12
138 51
139 168
141 33
149 5
150 131
151 215
152 211
153 82
154 8
161 19
162 86
163 244
164 170
165 874
166 368
167 96
174 21
175 64
176 262
177 242
178 713
179 891
180 999
181 426
182 112

$$$$

     RDKit          2D

 13 13  0  0  0  0  0  0  0  0999 V2000
    3.9321   -0.3929    0.0000 C   0  0  0  0  0  0  0  0  0  0  0  0
    3.9326    1.1076    0.0000 C   0  0  0  0  0  0  0  0  0  0  0  0
   -1.2645   -0.3937    0.0000 C   0  0  0  0  0  0  0  0  0  0  0  0
    0.0345   -1.1437    0.0000 C   0  0  0  0  0  0  0  0  0  0  0  0
   -2.5631    1.8571    0.0000 C   0  0  0  0  0  0  0  0  0  0  0  0
   -3.8621    1.1071    0.0000 C   0  0  0  0  0  0  0  0  0  0  0  0
    0.0355    1.8580    0.0000 C   0  0  0  0  0  0  0  0  0  0  0  0
   -1.2641    1.1071    0.0000 C   0  0  0  0  0  0  0  0  0  0  0  0
    1.3340   -0.3929    0.0000 C   0  0  0  0  0  0  0  0  0  0  0  0
    1.3345    1.1080    0.0000 C   0  0  0  0  0  0  0  0  0  0  0  0
   -5.1612    0.3571    0.0000 N   0  0  0  0  0  0  0  0  0  0  0  0
    2.6330   -1.1429    0.0000 O   0  0  0  0  0  0  0  0  0  0  0  0
    2.6336    1.8578    0.0000 O   0  0  0  0  0  0  0  0  0  0  0  0
  4  3  2  0
  6  5  1  0
  8  3  1  0
  8  5  1  0
  8  7  2  0
  9  4  1  0
 10  7  1  0
 10  9  2  0
 11  6  3  0
 12  1  1  0
 12  9  1  0
 13  2  1  0
 13 10  1  0
M  END
>  <NAME>  (679) 
(3,4-DIMETHOXYPHENYL)ACETONITRILE

>  <SYNONYMS>  (679) 
HOMOVERATRONITRILE

>  <SPECTRUM TYPE>  (679) 
MS1

>  <INSTRUMENT TYPE>  (679) 
EI-B

>  <INSTRUMENT>  (679) 
HITACHI M-80

>  <ION MODE>  (679) 
P

>  <INCHIKEY>  (679) 
ASLSUMISAQDOOB-UHFFFAOYSA-N

>  <FORMULA>  (679) 
C10H11NO2

>  <EXACT MASS>  (679) 
177.078978592

>  <MW>  (679) 
177

>  <ID>  (679) 
JP011097

>  <CONTRIBUTOR>  (679) 
University of Tokyo Team, {Faculty of Engineering, University of Tokyo

>  <COMMENT>  (679) 
SMILES=N#CCc(c1)cc(OC)c(OC)c1
cas=93-17-4
InChI=InChI=1S/C10H11NO2/c1-12-9-4-3-8(5-6-11)7-10(9)13-2/h3-4,7H,5H2,1-2H3
computed SMILES=N#CCC1=CC=C(OC)C(OC)=C1
accession=JP011097
date=2016.01.19 (Created 2008.10.21, modified 2011.05.06)
author=YAMAMOTO M, DEP. CHEMISTRY, FAC. SCIENCE, NARA WOMEN'S UNIV.
license=CC BY-NC-SA
exact mass=177.07898
ionization energy=70 eV
ion type=[M]+*
computed spectral entropy=2.973107856776215
computed normalized entropy=0.7680065820397554
SPLASH=splash10-004i-4900000000-bb83e5e2e813f65acdd4
submitter=submitter = University of Tokyo Team (Faculty of Engineering, University of Tokyo)
MoNA Rating=3.75

>  <NUM PEAKS>  (679) 
48

>  <MASS SPECTRAL PEAKS>  (679) 
15 5.65
29 1.37
31 1.14
38 1.58
39 3.78
50 2.55
51 6.05
52 1.3
53 1.67
62 1.71
63 6.59
64 6.51
65 7.58
66 1.44
75 1.53
76 3.64
77 8.43
78 2.73
79 6.48
89 3.04
90 2.89
91 7.46
92 1.41
94 14.32
95 1.01
102 1.26
103 2.58
104 2.18
105 4.9
106 4.84
107 22.97
108 2.16
116 6.86
119 4.26
130 1.58
131 1.24
132 1.06
134 10
135 1.71
146 4.98
151 1.54
160 1.06
161 1.64
162 30.61
163 3.31
176 1.38
177 99.99
178 11.66

>  <PREDICTED SPECTRUM>  (679) 
14 47
15 176
16 23
17 18
18 44
25 21
26 109
27 177
28 111
29 137
30 61
31 53
32 28
36 43
37 165
38 259
39 403
40 182
41 182
42 173
43 101
44 109
45 78
46 21
49 97
50 410
51 534
52 385
53 348
54 143
55 175
57 8
58 4
59 44
61 168
62 311
63 469
64 374
65 454
66 273
67 147
68 84
69 104
70 43
72 33
73 30
74 215
75 265
76 333
77 500
78 353
79 402
80 205
81 83
82 14
85 22
86 84
87 104
88 112
89 216
90 317
91 444
92 327
93 256
94 195
95 112
101 145
102 284
103 244
104 304
105 256
106 298
107 374
108 205
109 41
110 27
114 41
115 110
116 234
117 186
118 181
119 313
120 128
121 145
122 93
130 143
131 179
132 181
133 123
134 542
135 308
136 88
137 141
144 69
145 39
146 209
147 115
148 61
149 12
150 142
151 80
152 1
160 79
161 60
162 891
163 270
164 30
176 62
177 999
178 341
179 89
180 4

$$$$

     RDKit          2D

  9  9  0  0  0  0  0  0  0  0999 V2000
    2.2733   -0.6175    0.0000 C   0  0  0  0  0  0  0  0  0  0  0  0
    2.2738    0.8833    0.0000 C   0  0  0  0  0  0  0  0  0  0  0  0
    0.9738   -1.3683    0.0000 C   0  0  0  0  0  0  0  0  0  0  0  0
    0.9748    1.6333    0.0000 C   0  0  0  0  0  0  0  0  0  0  0  0
   -0.3252   -0.6183    0.0000 C   0  0  0  0  0  0  0  0  0  0  0  0
   -0.3248    0.8825    0.0000 C   0  0  0  0  0  0  0  0  0  0  0  0
   -1.6238    1.6325    0.0000 C   0  0  0  0  0  0  0  0  0  0  0  0
   -2.9228    0.8825    0.0000 N   0  0  0  0  0  0  0  0  0  0  0  0
   -1.6238    3.1325    0.0000 O   0  0  0  0  0  0  0  0  0  0  0  0
  2  1  2  0
  3  1  1  0
  4  2  1  0
  5  3  2  0
  6  4  2  0
  6  5  1  0
  7  6  1  0
  8  7  2  0
  9  7  1  0
M  END
>  <NAME>  (680) 
BENZAMIDE

>  <SYNONYMS>  (680) 


>  <SPECTRUM TYPE>  (680) 
MS1

>  <INSTRUMENT TYPE>  (680) 
EI-B

>  <INSTRUMENT>  (680) 
HITACHI M-80

>  <ION MODE>  (680) 
P

>  <INCHIKEY>  (680) 
KXDAEFPNCMNJSK-UHFFFAOYSA-N

>  <FORMULA>  (680) 
C7H7NO

>  <EXACT MASS>  (680) 
121.052763844

>  <MW>  (680) 
121

>  <ID>  (680) 
JP011096

>  <CONTRIBUTOR>  (680) 
University of Tokyo Team, {Faculty of Engineering, University of Tokyo

>  <COMMENT>  (680) 
SMILES=NC(=O)c(c1)cccc1
cas=55-21-0
InChI=InChI=1S/C7H7NO/c8-7(9)6-4-2-1-3-5-6/h1-5H,(H2,8,9)
computed SMILES=N=C(O)C=1C=CC=CC1
accession=JP011096
date=2016.01.19 (Created 2008.10.21, modified 2011.05.06)
author=YAMAMOTO M, DEP. CHEMISTRY, FAC. SCIENCE, NARA WOMEN'S UNIV.
license=CC BY-NC-SA
exact mass=121.05276
ionization energy=70 eV
ion type=[M]+*
computed spectral entropy=2.1599868292066726
computed normalized entropy=0.6796570934640804
SPLASH=splash10-0adi-7900000000-c79bab8ceedf3b276ae1
submitter=submitter = University of Tokyo Team (Faculty of Engineering, University of Tokyo)
MoNA Rating=3.75

>  <NUM PEAKS>  (680) 
24

>  <MASS SPECTRAL PEAKS>  (680) 
16 1.2
27 2.32
28 1.18
37 1.62
38 2.6
39 3.53
44 8.91
49 1.38
50 13.43
51 29.62
52 4.66
63 1.17
65 1.42
73 1.27
74 5.67
75 3.21
76 4.99
77 71.31
78 9.87
104 1.34
105 99.99
106 7.83
121 91.29
122 8.97

>  <PREDICTED SPECTRUM>  (680) 
14 9
16 17
17 16
18 5
25 41
26 83
27 88
28 76
36 46
37 179
38 261
39 387
40 170
41 154
42 119
43 229
44 277
45 144
46 70
47 33
48 75
49 168
50 608
51 778
52 328
53 189
54 25
55 115
56 2
57 53
58 46
61 131
62 187
63 265
64 254
65 318
66 213
67 133
68 65
69 13
73 83
74 373
75 287
76 489
77 999
78 399
79 76
89 14
90 60
91 185
92 210
93 155
94 135
95 10
100 7
101 7
102 143
103 257
104 476
105 594
106 115
118 67
119 294
120 886
121 966
122 253
123 26

$$$$

     RDKit          2D

 18 19  0  0  0  0  0  0  0  0999 V2000
   10.3943   -1.5002    0.0000 C   0  0  0  0  0  0  0  0  0  0  0  0
   -2.5989   -1.5006    0.0000 C   0  0  0  0  0  0  0  0  0  0  0  0
    9.0954    0.7500    0.0000 C   0  0  0  0  0  0  0  0  0  0  0  0
    7.7954   -1.5000    0.0000 C   0  0  0  0  0  0  0  0  0  0  0  0
   -0.0007   -1.5008    0.0000 C   0  0  0  0  0  0  0  0  0  0  0  0
   -1.2993    0.7500    0.0000 C   0  0  0  0  0  0  0  0  0  0  0  0
    7.7954    1.5000    0.0000 C   0  0  0  0  0  0  0  0  0  0  0  0
    6.4954   -0.7500    0.0000 C   0  0  0  0  0  0  0  0  0  0  0  0
    1.2988   -0.7500    0.0000 C   0  0  0  0  0  0  0  0  0  0  0  0
    0.0002    1.5008    0.0000 C   0  0  0  0  0  0  0  0  0  0  0  0
    9.0954   -0.7500    0.0000 C   0  0  0  0  0  0  0  0  0  0  0  0
   -1.2998   -0.7508    0.0000 C   0  0  0  0  0  0  0  0  0  0  0  0
    6.4954    0.7500    0.0000 C   0  0  0  0  0  0  0  0  0  0  0  0
    1.2993    0.7508    0.0000 C   0  0  0  0  0  0  0  0  0  0  0  0
    3.8974    0.7504    0.0000 C   0  0  0  0  0  0  0  0  0  0  0  0
    5.1965    1.5002    0.0000 N   0  0  0  0  0  0  0  0  0  0  0  0
    2.5984    1.5006    0.0000 N   0  0  0  0  0  0  0  0  0  0  0  0
    3.8971   -0.7496    0.0000 S   0  0  0  0  0  0  0  0  0  0  0  0
  7  3  2  0
  8  4  1  0
  9  5  2  0
 10  6  1  0
 11  1  1  0
 11  3  1  0
 11  4  2  0
 12  2  1  0
 12  5  1  0
 12  6  2  0
 13  7  1  0
 13  8  2  0
 14  9  1  0
 14 10  2  0
 16 13  1  0
 16 15  1  0
 17 14  1  0
 17 15  1  0
 18 15  2  0
M  END
>  <NAME>  (681) 
4,4'-DITOLYLTHIOUREA

>  <SYNONYMS>  (681) 


>  <SPECTRUM TYPE>  (681) 
MS1

>  <INSTRUMENT TYPE>  (681) 
EI-B

>  <INSTRUMENT>  (681) 
HITACHI M-80

>  <ION MODE>  (681) 
P

>  <INCHIKEY>  (681) 
ULNVBRUIKLYGDF-UHFFFAOYSA-N

>  <FORMULA>  (681) 
C15H16N2S

>  <EXACT MASS>  (681) 
256.103419512

>  <MW>  (681) 
256

>  <ID>  (681) 
JP011095

>  <CONTRIBUTOR>  (681) 
University of Tokyo Team, {Faculty of Engineering, University of Tokyo

>  <COMMENT>  (681) 
cas=621-01-2
SMILES=Cc(c2)ccc(c2)NC(=S)Nc(c1)ccc(C)c1
InChI=InChI=1S/C15H16N2S/c1-11-3-7-13(8-4-11)16-15(18)17-14-9-5-12(2)6-10-14/h3-10H,1-2H3,(H2,16,17,18)
computed SMILES=S=C(NC1=CC=C(C=C1)C)NC2=CC=C(C=C2)C
accession=JP011095
date=2016.01.19 (Created 2008.10.21, modified 2011.05.06)
author=YAMAMOTO M, DEP. CHEMISTRY, FAC. SCIENCE, NARA WOMEN'S UNIV.
license=CC BY-NC-SA
exact mass=256.10342
ionization energy=70 eV
ion type=[M]+*
computed spectral entropy=3.1075127223967978
computed normalized entropy=0.7864644511253926
SPLASH=splash10-0bt9-8930000000-298e9968fa5e0e783c65
submitter=submitter = University of Tokyo Team (Faculty of Engineering, University of Tokyo)
MoNA Rating=3.75

>  <NUM PEAKS>  (681) 
52

>  <MASS SPECTRAL PEAKS>  (681) 
28 2.5
32 18.38
34 1.05
39 3.82
41 1.27
44 1.02
51 2.99
52 1.75
53 1.33
63 2.74
64 99.99
65 8.55
66 9.16
77 6.46
78 2.27
79 4.06
80 1
89 2.7
90 1.6
91 16.93
92 2.09
96 22.62
98 3.21
104 1.49
105 1.04
106 29.13
107 59.57
108 4.87
123 2.36
124 5.03
127 1.21
128 39.57
129 1.27
130 7.34
132 3.04
133 3.01
148 3.02
149 7.06
150 5.27
160 26.89
161 1.08
162 5.88
192 14.03
194 3.69
222 2.68
223 3.32
224 1.64
255 2.57
256 44.57
257 4.94
258 15.8
260 2.54

>  <PREDICTED SPECTRUM>  (681) 
32 12
33 42
34 50
36 25
37 34
38 96
39 296
40 109
41 146
42 85
43 92
44 35
45 156
46 70
47 68
48 13
49 77
50 194
51 337
52 210
53 193
54 74
55 94
56 28
57 35
58 5
59 64
60 37
61 69
62 119
63 279
64 140
65 456
66 129
67 102
68 2
69 56
70 41
71 5
74 101
75 112
76 96
77 481
78 287
79 393
80 173
81 76
82 19
83 100
84 15
86 4
87 3
89 245
90 162
91 661
92 232
93 37
94 93
95 58
97 8
102 15
103 17
104 178
105 92
106 828
107 999
108 382
109 84
110 40
111 64
112 7
116 26
117 57
118 158
119 129
121 75
122 17
123 150
124 236
125 58
126 52
127 25
128 84
129 12
130 20
131 55
132 106
133 129
134 145
135 18
138 11
140 15
147 46
148 175
149 418
150 317
151 152
152 34
163 129
165 24
166 14
169 8
174 21
180 29
181 47
182 65
183 19
193 10
194 15
207 30
208 86
221 54
222 231
223 169
224 12
225 140
226 57
240 49
241 66
253 11
254 73
255 211
256 544
257 193
258 102
259 35

$$$$

     RDKit          2D

 17 18  0  0  0  0  0  0  0  0999 V2000
    3.2481    2.1950    0.0000 C   0  0  0  0  0  0  0  0  0  0  0  0
   -7.1442    2.1950    0.0000 C   0  0  0  0  0  0  0  0  0  0  0  0
    3.2486    3.6958    0.0000 C   0  0  0  0  0  0  0  0  0  0  0  0
    1.9486    1.4442    0.0000 C   0  0  0  0  0  0  0  0  0  0  0  0
   -5.8447    1.4442    0.0000 C   0  0  0  0  0  0  0  0  0  0  0  0
   -7.1447    3.6958    0.0000 C   0  0  0  0  0  0  0  0  0  0  0  0
    1.9495    4.4458    0.0000 C   0  0  0  0  0  0  0  0  0  0  0  0
    0.6495    2.1942    0.0000 C   0  0  0  0  0  0  0  0  0  0  0  0
   -4.5457    2.1942    0.0000 C   0  0  0  0  0  0  0  0  0  0  0  0
   -5.8457    4.4458    0.0000 C   0  0  0  0  0  0  0  0  0  0  0  0
   -1.9481    3.6950    0.0000 C   0  0  0  0  0  0  0  0  0  0  0  0
    0.6500    3.6950    0.0000 C   0  0  0  0  0  0  0  0  0  0  0  0
   -4.5462    3.6950    0.0000 C   0  0  0  0  0  0  0  0  0  0  0  0
   -0.6490    4.4450    0.0000 C   0  0  0  0  0  0  0  0  0  0  0  0
   -3.2471    4.4450    0.0000 C   0  0  0  0  0  0  0  0  0  0  0  0
   -0.6490    5.9450    0.0000 O   0  0  0  0  0  0  0  0  0  0  0  0
   -3.2471    5.9450    0.0000 O   0  0  0  0  0  0  0  0  0  0  0  0
  3  1  2  0
  4  1  1  0
  5  2  2  0
  6  2  1  0
  7  3  1  0
  8  4  2  0
  9  5  1  0
 10  6  2  0
 12  7  2  0
 12  8  1  0
 13  9  2  0
 13 10  1  0
 14 11  1  0
 14 12  1  0
 15 11  1  0
 15 13  1  0
 16 14  2  0
 17 15  2  0
M  END
>  <NAME>  (682) 
1,3-DIPHENYL-1,3-PROPANEDIONE

>  <SYNONYMS>  (682) 
DIBENZOYLMETHANE

>  <SPECTRUM TYPE>  (682) 
MS1

>  <INSTRUMENT TYPE>  (682) 
EI-B

>  <INSTRUMENT>  (682) 
HITACHI M-80

>  <ION MODE>  (682) 
P

>  <INCHIKEY>  (682) 
NZZIMKJIVMHWJC-UHFFFAOYSA-N

>  <FORMULA>  (682) 
C15H12O2

>  <EXACT MASS>  (682) 
224.083729624

>  <MW>  (682) 
224

>  <ID>  (682) 
JP011094

>  <CONTRIBUTOR>  (682) 
University of Tokyo Team, {Faculty of Engineering, University of Tokyo

>  <COMMENT>  (682) 
SMILES=O=C(CC(=O)c(c2)cccc2)c(c1)cccc1
cas=120-46-7
InChI=InChI=1S/C15H12O2/c16-14(12-7-3-1-4-8-12)11-15(17)13-9-5-2-6-10-13/h1-10H,11H2
computed SMILES=O=C(C=1C=CC=CC1)CC(=O)C=2C=CC=CC2
accession=JP011094
date=2016.01.19 (Created 2008.10.21, modified 2011.05.06)
author=YAMAMOTO M, DEP. CHEMISTRY, FAC. SCIENCE, NARA WOMEN'S UNIV.
license=CC BY-NC-SA
exact mass=224.08373
ionization energy=70 eV
ion type=[M]+*
computed spectral entropy=2.7399815296035714
computed normalized entropy=0.7378290983417561
SPLASH=splash10-00di-9580000000-1f78aae39096171fa750
submitter=submitter = University of Tokyo Team (Faculty of Engineering, University of Tokyo)
MoNA Rating=3.75

>  <NUM PEAKS>  (682) 
41

>  <MASS SPECTRAL PEAKS>  (682) 
27 1.75
39 5.83
41 1.04
50 8.35
51 25.95
52 2.54
62 1.51
63 4.92
64 1.44
65 8.15
69 55.77
70 1.8
74 3.01
75 3.64
76 5.47
77 62.72
78 11.04
79 1.5
89 6.44
90 4.38
91 7.75
98 1.68
102 4.08
103 3.02
105 60.65
106 4.8
118 3.6
146 1.33
147 52.93
148 5.16
152 1.24
165 2.05
167 1.47
178 1.86
195 1.27
196 1.9
207 1.09
223 82.93
224 99.99
225 16.52
226 1.66

>  <PREDICTED SPECTRUM>  (682) 
26 12
27 54
28 2
29 28
31 28
33 13
36 10
37 61
38 117
39 259
40 138
41 173
42 146
43 290
44 201
45 114
46 47
47 78
49 62
50 316
51 537
52 239
53 197
54 48
55 66
56 14
57 76
58 10
59 44
60 35
61 47
62 127
63 219
64 124
65 202
66 113
67 71
68 91
69 625
70 150
71 135
72 14
73 100
74 166
75 176
76 226
77 845
78 365
79 164
80 60
81 59
82 79
83 93
84 73
85 66
86 115
87 67
88 68
89 199
90 130
91 309
92 110
93 53
94 30
95 59
96 79
97 108
98 27
99 63
100 73
101 121
102 150
103 132
104 150
105 999
106 342
107 117
109 55
110 9
112 33
113 1
115 69
116 37
117 115
118 116
119 250
120 89
123 12
126 8
127 72
128 109
129 52
130 42
131 80
132 58
133 52
134 16
138 2
139 11
145 57
146 53
147 500
148 138
149 80
151 5
152 18
153 41
154 47
155 69
156 23
165 63
168 7
177 82
178 67
179 13
180 31
181 113
195 98
196 96
197 28
203 14
205 86
206 105
207 166
208 92
209 119
210 38
222 36
223 553
224 776
225 282
226 90

$$$$

     RDKit          2D

 10 10  0  0  0  0  0  0  0  0999 V2000
    0.0000   -2.1700    0.0000 C   0  0  0  0  0  0  0  0  0  0  0  0
    1.3000   -1.4200    0.0000 C   0  0  0  0  0  0  0  0  0  0  0  0
   -1.3000   -1.4200    0.0000 C   0  0  0  0  0  0  0  0  0  0  0  0
    0.0000    2.3300    0.0000 C   0  0  0  0  0  0  0  0  0  0  0  0
    0.0000    0.8300    0.0000 C   0  0  0  0  0  0  0  0  0  0  0  0
    1.3000    0.0800    0.0000 C   0  0  0  0  0  0  0  0  0  0  0  0
   -1.3000    0.0800    0.0000 C   0  0  0  0  0  0  0  0  0  0  0  0
    2.5989    0.8302    0.0000 Cl  0  0  0  0  0  0  0  0  0  0  0  0
   -2.5989    0.8302    0.0000 Cl  0  0  0  0  0  0  0  0  0  0  0  0
   -1.2990    3.0800    0.0000 O   0  0  0  0  0  0  0  0  0  0  0  0
  2  1  2  0
  3  1  1  0
  5  4  1  0
  6  2  1  0
  6  5  2  0
  7  3  2  0
  7  5  1  0
  8  6  1  0
  9  7  1  0
 10  4  2  0
M  END
>  <NAME>  (683) 
2,6-DICHLOROBENZALDEHYDE

>  <SYNONYMS>  (683) 


>  <SPECTRUM TYPE>  (683) 
MS1

>  <INSTRUMENT TYPE>  (683) 
EI-B

>  <INSTRUMENT>  (683) 
HITACHI M-80

>  <ION MODE>  (683) 
P

>  <INCHIKEY>  (683) 
DMIYKWPEFRFTPY-UHFFFAOYSA-N

>  <FORMULA>  (683) 
C7H4Cl2O

>  <EXACT MASS>  (683) 
173.963920108

>  <MW>  (683) 
174

>  <ID>  (683) 
JP011093

>  <CONTRIBUTOR>  (683) 
University of Tokyo Team, {Faculty of Engineering, University of Tokyo

>  <COMMENT>  (683) 
computed SMILES=O=CC=1C(Cl)=CC=CC1Cl
SMILES=O=Cc(c(Cl)1)c(Cl)ccc1
cas=83-38-5
InChI=InChI=1S/C7H4Cl2O/c8-6-2-1-3-7(9)5(6)4-10/h1-4H
accession=JP011093
date=2016.01.19 (Created 2008.10.21, modified 2011.05.06)
author=YAMAMOTO M, DEP. CHEMISTRY, FAC. SCIENCE, NARA WOMEN'S UNIV.
license=CC BY-NC-SA
exact mass=173.96392
ionization energy=70 eV
ion type=[M]+*
computed spectral entropy=2.967607017866997
computed normalized entropy=0.79397253394214
SPLASH=splash10-00fr-2900000000-de14046156dd8a716c38
submitter=submitter = University of Tokyo Team (Faculty of Engineering, University of Tokyo)
MoNA Rating=3.75

>  <NUM PEAKS>  (683) 
42

>  <MASS SPECTRAL PEAKS>  (683) 
28 1.04
29 7.95
35 1.15
36 1.71
37 5.47
38 2.89
49 4.06
50 11.23
51 3.96
60 1.31
61 3.36
62 2.15
63 1.4
72 1.48
73 6.98
74 21.7
75 36.17
76 3.14
84 8.86
85 4.94
86 3.46
87 1.76
108 1.44
109 11.87
110 17.84
111 17.39
112 6.56
113 4.7
138 5.6
140 1.93
145 16.16
146 11.55
147 11.15
148 7.51
149 2.14
150 1.17
173 99.99
174 71.19
175 69.84
176 46.19
177 13.81
178 7.53

>  <PREDICTED SPECTRUM>  (683) 
14 2
25 43
26 44
28 63
29 165
30 70
34 3
35 221
36 213
37 351
38 342
39 234
40 152
41 4
42 5
43 184
44 142
47 113
48 130
49 325
50 585
51 432
52 181
53 155
54 0
55 119
56 152
57 70
60 303
61 529
62 497
63 358
64 69
65 9
68 57
69 213
70 30
71 135
72 214
73 579
74 771
75 807
76 414
77 193
78 7
79 36
80 24
81 103
82 28
83 131
84 525
85 451
86 415
87 322
88 101
92 1
93 1
94 28
96 102
97 251
98 179
103 14
105 37
107 93
108 70
109 781
110 516
111 708
112 308
113 304
114 148
118 66
119 215
120 90
121 199
123 138
134 30
138 4
139 999
140 360
141 642
142 170
143 67
144 58
145 636
146 478
147 443
148 393
149 167
150 162
173 960
174 930
175 806
176 821
177 406
178 355
179 79

$$$$

     RDKit          2D

  9  9  0  0  0  0  0  0  0  0999 V2000
   -1.3000    0.7500    0.0000 C   0  0  0  0  0  0  0  0  0  0  0  0
    0.0000    1.5000    0.0000 C   0  0  0  0  0  0  0  0  0  0  0  0
   -0.0000   -1.5000    0.0000 C   0  0  0  0  0  0  0  0  0  0  0  0
   -1.3000   -0.7500    0.0000 C   0  0  0  0  0  0  0  0  0  0  0  0
    1.3000    0.7500    0.0000 C   0  0  0  0  0  0  0  0  0  0  0  0
    1.3000   -0.7500    0.0000 C   0  0  0  0  0  0  0  0  0  0  0  0
    2.5989    1.5002    0.0000 Cl  0  0  0  0  0  0  0  0  0  0  0  0
    2.5989   -1.5002    0.0000 Cl  0  0  0  0  0  0  0  0  0  0  0  0
   -2.5989   -1.5002    0.0000 O   0  0  0  0  0  0  0  0  0  0  0  0
  2  1  2  0
  4  1  1  0
  4  3  2  0
  5  2  1  0
  6  3  1  0
  6  5  2  0
  7  5  1  0
  8  6  1  0
  9  4  1  0
M  END
>  <NAME>  (684) 
3,4-DICHLOROPHENOL

>  <SYNONYMS>  (684) 


>  <SPECTRUM TYPE>  (684) 
MS1

>  <INSTRUMENT TYPE>  (684) 
EI-B

>  <INSTRUMENT>  (684) 
HITACHI M-80

>  <ION MODE>  (684) 
P

>  <INCHIKEY>  (684) 
WDNBURPWRNALGP-UHFFFAOYSA-N

>  <FORMULA>  (684) 
C6H4Cl2O

>  <EXACT MASS>  (684) 
161.963920108

>  <MW>  (684) 
162

>  <ID>  (684) 
JP011092

>  <CONTRIBUTOR>  (684) 
University of Tokyo Team, {Faculty of Engineering, University of Tokyo

>  <COMMENT>  (684) 
SMILES=Oc(c1)cc(Cl)c(Cl)c1
cas=95-77-2
InChI=InChI=1S/C6H4Cl2O/c7-5-2-1-4(9)3-6(5)8/h1-3,9H
computed SMILES=ClC1=CC=C(O)C=C1Cl
accession=JP011092
date=2016.01.19 (Created 2008.10.21, modified 2011.05.06)
author=YAMAMOTO M, DEP. CHEMISTRY, FAC. SCIENCE, NARA WOMEN'S UNIV.
license=CC BY-NC-SA
exact mass=161.96392
ionization energy=70 eV
ion type=[M]+*
computed spectral entropy=2.6597651185750073
computed normalized entropy=0.7311895861114315
SPLASH=splash10-03di-4900000000-2b1f5001662fc482f6fc
submitter=submitter = University of Tokyo Team (Faculty of Engineering, University of Tokyo)
MoNA Rating=3.75

>  <NUM PEAKS>  (684) 
38

>  <MASS SPECTRAL PEAKS>  (684) 
29 2.64
35 1.51
36 1.2
37 3.96
38 2.98
39 2.42
49 2.93
50 2.42
53 2.6
60 1.56
61 5.33
62 8.23
63 22.89
64 2.55
72 3.13
73 9.8
74 2.68
75 3.2
81 1.35
97 2.51
98 6.69
99 30.38
100 3.94
101 9.95
107 1.27
109 1.13
126 3.96
127 2.63
128 1.59
133 4.34
134 2.72
135 2.82
136 1.67
162 99.99
163 7.21
164 65.87
165 4.45
166 10.36

>  <PREDICTED SPECTRUM>  (684) 
18 4
25 32
26 21
27 12
28 62
29 82
31 3
35 139
36 135
37 231
38 224
39 197
40 64
43 166
44 93
47 91
49 168
50 222
51 236
52 121
53 186
54 55
55 103
56 15
57 54
60 132
61 246
62 321
63 484
64 194
65 186
66 15
69 225
70 21
71 229
72 278
73 353
74 301
75 271
76 28
77 36
79 27
80 40
81 78
83 66
84 52
87 58
88 19
89 16
90 24
91 60
92 282
93 7
94 11
96 27
97 244
98 282
99 391
100 217
101 166
102 41
106 27
107 66
108 14
109 276
110 39
111 70
112 36
116 78
118 19
126 207
127 352
128 140
129 170
130 13
131 15
133 203
134 225
135 290
136 198
137 200
138 72
145 87
146 1
161 184
162 999
163 357
164 808
165 240
166 301
167 52

$$$$

     RDKit          2D

 10 10  0  0  0  0  0  0  0  0999 V2000
    2.5992   -0.7500    0.0000 C   0  0  0  0  0  0  0  0  0  0  0  0
    1.2992   -1.5000    0.0000 C   0  0  0  0  0  0  0  0  0  0  0  0
    1.2992    1.5000    0.0000 C   0  0  0  0  0  0  0  0  0  0  0  0
   -1.2998    1.5002    0.0000 C   0  0  0  0  0  0  0  0  0  0  0  0
   -0.0008    0.7500    0.0000 C   0  0  0  0  0  0  0  0  0  0  0  0
    2.5992    0.7500    0.0000 C   0  0  0  0  0  0  0  0  0  0  0  0
   -0.0008   -0.7500    0.0000 C   0  0  0  0  0  0  0  0  0  0  0  0
    3.8981    1.5002    0.0000 Cl  0  0  0  0  0  0  0  0  0  0  0  0
   -1.2998   -1.5002    0.0000 Cl  0  0  0  0  0  0  0  0  0  0  0  0
   -2.5989    0.7504    0.0000 O   0  0  0  0  0  0  0  0  0  0  0  0
  2  1  2  0
  5  3  1  0
  5  4  1  0
  6  1  1  0
  6  3  2  0
  7  2  1  0
  7  5  2  0
  8  6  1  0
  9  7  1  0
 10  4  1  0
M  END
>  <NAME>  (685) 
2,5-DICHLOROBENZYL ALCOHOL

>  <SYNONYMS>  (685) 


>  <SPECTRUM TYPE>  (685) 
MS1

>  <INSTRUMENT TYPE>  (685) 
EI-B

>  <INSTRUMENT>  (685) 
HITACHI M-80

>  <ION MODE>  (685) 
P

>  <INCHIKEY>  (685) 
LCEIGNVIDJNUGF-UHFFFAOYSA-N

>  <FORMULA>  (685) 
C7H6Cl2O

>  <EXACT MASS>  (685) 
175.979570172

>  <MW>  (685) 
176

>  <ID>  (685) 
JP011091

>  <CONTRIBUTOR>  (685) 
University of Tokyo Team, {Faculty of Engineering, University of Tokyo

>  <COMMENT>  (685) 
SMILES=OCc(c1)c(Cl)ccc(Cl)1
cas=34145-05-6
InChI=InChI=1S/C7H6Cl2O/c8-6-1-2-7(9)5(3-6)4-10/h1-3,10H,4H2
computed SMILES=ClC1=CC=C(Cl)C(=C1)CO
accession=JP011091
date=2016.01.19 (Created 2008.10.21, modified 2011.05.06)
author=YAMAMOTO M, DEP. CHEMISTRY, FAC. SCIENCE, NARA WOMEN'S UNIV.
license=CC BY-NC-SA
exact mass=175.97957
ionization energy=70 eV
ion type=[M]+*
computed spectral entropy=3.4012187381085397
computed normalized entropy=0.8178202344079681
SPLASH=splash10-004l-4900000000-4b093ab030e939ae4cb3
submitter=submitter = University of Tokyo Team (Faculty of Engineering, University of Tokyo)
MoNA Rating=3.75

>  <NUM PEAKS>  (685) 
64

>  <MASS SPECTRAL PEAKS>  (685) 
27 1.82
28 1.5
29 9.49
30 1.08
31 7.86
36 1.3
37 3.79
38 4.42
39 3.49
49 2.27
50 11.45
51 14.36
52 4.6
60 1.49
61 3.87
62 4.9
63 6.12
72 1.17
73 6.39
74 13.79
75 23.93
76 4.1
77 71.63
78 7.42
84 3.55
85 4.57
86 2.67
87 2.77
88 1.12
89 3.51
97 1.48
99 1.06
105 1.88
109 5.48
110 3.43
111 34.17
112 7.65
113 35.14
114 3.94
115 7.92
123 7.2
124 1.4
125 2.4
139 21.58
140 8.24
141 99.99
142 9.7
143 29.33
144 2.47
145 3.36
146 3.35
147 13
148 2.86
149 7.38
151 1.13
159 6.76
161 4.31
173 1.79
175 5.77
176 66.14
177 7.81
178 41.45
179 3.8
180 6.79

>  <PREDICTED SPECTRUM>  (685) 
17 17
18 22
25 4
26 34
28 20
29 76
30 69
31 35
35 74
36 60
37 129
38 139
39 153
40 10
43 114
44 77
47 51
48 57
49 205
50 382
51 444
52 154
53 128
54 17
55 88
56 47
57 64
58 6
60 97
61 301
62 328
63 385
64 90
65 174
66 18
67 23
68 26
69 194
70 56
71 169
72 203
73 455
74 433
75 571
76 269
77 661
78 296
79 181
81 35
82 10
83 121
84 265
85 387
86 321
87 306
88 116
89 272
90 78
91 68
95 36
96 123
97 200
98 118
99 305
100 13
101 116
105 179
106 59
107 84
108 63
109 283
110 189
111 645
112 379
113 599
114 274
115 306
116 80
119 12
120 25
121 177
122 47
123 478
124 211
125 363
126 89
127 64
129 42
132 67
133 195
134 12
135 1
137 7
139 269
140 213
141 999
142 405
143 606
144 137
145 140
146 197
147 507
148 186
149 409
150 29
151 83
157 42
158 122
159 331
160 211
161 193
162 132
163 45
164 39
173 219
174 117
175 420
176 597
177 386
178 518
179 214
180 205
181 13

$$$$

     RDKit          2D

 33 36  0  0  1  0  0  0  0  0999 V2000
    9.5655    7.2342    0.0000 C   0  0  0  0  0  0  0  0  0  0  0  0
   10.0746    4.6865    0.0000 C   0  0  0  0  0  0  0  0  0  0  0  0
    8.1228    2.9718    0.0000 C   0  0  0  0  0  0  0  0  0  0  0  0
    3.2009    4.6377    0.0000 C   0  0  0  0  0  0  0  0  0  0  0  0
   -8.0957   -2.8471    0.0000 C   0  0  0  0  0  0  0  0  0  0  0  0
   -1.6125    0.9400    0.0000 C   0  0  0  0  0  0  0  0  0  0  0  0
    2.4507    3.1203    0.0000 C   0  0  0  0  0  0  0  0  0  0  0  0
    8.0946    6.9403    0.0000 C   0  0  0  0  0  0  0  0  0  0  0  0
    5.6618    3.8047    0.0000 C   0  0  0  0  0  0  0  0  0  0  0  0
    6.1427    5.2256    0.0000 C   0  0  0  0  0  0  0  0  0  0  0  0
   -0.3200   -2.8400    0.0000 C   0  0  0  0  0  0  0  0  0  0  0  0
    1.0100   -2.0900    0.0000 C   0  0  0  0  0  0  0  0  0  0  0  0
    4.5500    0.8800    0.0000 C   0  0  0  0  0  0  0  0  0  0  0  0
    3.7100   -0.3100    0.0000 C   0  0  0  0  0  0  0  0  0  0  0  0
   -4.2000   -0.5600    0.0000 C   0  0  0  0  0  0  0  0  0  0  0  0
   -0.3200    1.6300    0.0000 C   0  0  0  0  0  0  0  0  0  0  0  0
   -2.8900    0.1600    0.0000 C   0  0  0  0  0  0  0  0  0  0  0  0
    1.0100    2.3900    0.0000 C   0  0  0  0  0  0  0  0  0  0  0  0
   -2.8900   -2.8400    0.0000 C   0  0  0  0  0  0  0  0  0  0  0  0
    8.6037    4.3926    0.0000 C   0  0  0  0  0  0  0  0  0  0  0  0
    4.1909    3.5108    0.0000 C   0  0  0  0  0  0  0  0  0  0  0  0
   -6.7981   -2.0947    0.0000 C   0  0  0  0  0  0  0  0  0  0  0  0
    7.6137    5.5195    0.0000 C   0  0  0  0  0  0  0  0  0  0  0  0
   -1.6200   -2.0900    0.0000 C   0  0  0  0  0  0  0  0  0  0  0  0
   -4.2000   -2.0900    0.0000 C   0  0  0  0  0  0  0  0  0  0  0  0
    1.0100   -0.5600    0.0000 C   0  0  0  0  0  0  0  0  0  0  0  0
    3.7100    2.0900    0.0000 C   0  0  0  0  0  0  0  0  0  0  0  0
    2.2800    0.1600    0.0000 C   0  0  0  0  0  0  0  0  0  0  0  0
   -0.3200    0.1600    0.0000 C   0  0  0  0  0  0  0  0  0  0  0  0
   -1.6200   -0.5600    0.0000 C   0  0  0  0  0  0  0  0  0  0  0  0
    2.2800    1.6300    0.0000 C   0  0  0  0  0  0  0  0  0  0  0  0
   -6.8008   -0.5947    0.0000 O   0  0  0  0  0  0  0  0  0  0  0  0
   -5.4977   -2.8424    0.0000 O   0  0  0  0  0  0  0  0  0  0  0  0
  8  1  1  0
 10  9  1  0
 12 11  1  0
 14 13  1  0
 17 15  1  0
 18 16  1  0
 20  2  1  0
 20  3  1  0
 21  4  1  6
 21  9  1  0
 22  5  1  0
 23  8  1  1
 23 10  1  0
 23 20  1  0
 24 11  1  1
 24 19  1  0
 25 15  1  0
 25 19  1  0
 26 12  1  6
 27 13  1  1
 27 21  1  0
 28 14  1  1
 28 26  1  0
 29 16  1  1
 29 26  1  0
 30  6  1  1
 30 17  1  0
 30 24  1  0
 30 29  1  0
 31  7  1  1
 31 18  1  0
 31 27  1  0
 31 28  1  0
 32 22  2  0
 33 22  1  0
 25 33  1  1
M  END
>  <NAME>  (686) 
BETA-SITOSTANYL ACETATE

>  <SYNONYMS>  (686) 


>  <SPECTRUM TYPE>  (686) 
MS1

>  <INSTRUMENT TYPE>  (686) 
EI-B

>  <INSTRUMENT>  (686) 
HITACHI M-80

>  <ION MODE>  (686) 
P

>  <INCHIKEY>  (686) 
UOLJGJFAVGOXAH-FATFFRGYSA-N

>  <FORMULA>  (686) 
C31H54O2

>  <EXACT MASS>  (686) 
458.412380968

>  <MW>  (686) 
458

>  <ID>  (686) 
JP011090

>  <CONTRIBUTOR>  (686) 
University of Tokyo Team, {Faculty of Engineering, University of Tokyo

>  <COMMENT>  (686) 
SMILES=C(C4)(C([H])(C(C(C)3C4)(CCC3(C(CCC([H])(C(C)C)CC)([H])C)[H])[H])2)([H])C(C([H])1CC2)(C)CCC(OC(C)=O)([H])C1
InChI=InChI=1S/C31H54O2/c1-8-23(20(2)3)10-9-21(4)27-13-14-28-26-12-11-24-19-25(33-22(5)32)15-17-30(24,6)29(26)16-18-31(27,28)7/h20-21,23-29H,8-19H2,1-7H3/t21-,23-,24+,25+,26+,27-,28+,29+,30+,31-/m1/s1
computed SMILES=O=C(OC1CCC2(C)C(CCC3C4CCC(C(C)CCC(CC)C(C)C)C4(C)CCC32)C1)C
accession=JP011090
date=2016.01.19 (Created 2008.10.21, modified 2011.05.06)
author=YAMAMOTO M, DEP. CHEMISTRY, FAC. SCIENCE, NARA WOMEN'S UNIV.
license=CC BY-NC-SA
exact mass=458.41238
ionization energy=70 eV
ion type=[M]+*
computed spectral entropy=4.24136238290606
computed normalized entropy=0.8784355395421787
SPLASH=splash10-0aou-9530000000-b5c33d893655b5e09c7b
submitter=submitter = University of Tokyo Team (Faculty of Engineering, University of Tokyo)
MoNA Rating=3.75

>  <NUM PEAKS>  (686) 
125

>  <MASS SPECTRAL PEAKS>  (686) 
40 2.93
41 43.7
42 9.51
43 99.99
44 5.71
45 2.9
47 3.03
48 1.48
53 5.4
54 3.69
55 62.8
56 8.09
57 56.81
58 2.6
61 6.84
65 1.6
66 1.29
67 30.8
68 10.48
69 41.01
70 5.19
71 17.69
73 5
75 8.38
77 7.09
78 2.39
79 28.14
80 6.2
81 53.91
82 9.2
83 17.53
84 4.44
85 17.6
86 1.21
91 18.72
92 5.84
93 37.51
94 13.33
95 41.7
96 5
97 12.41
98 6.83
99 2.54
104 2
105 20.53
106 14.21
107 47.63
108 21
109 22.91
110 3.74
111 8.29
117 5.09
118 2.43
119 16.83
120 10.1
121 23.42
122 10.64
123 16.22
124 2.3
125 2.54
129 2.09
131 5.43
132 2.81
133 14.4
134 6.71
135 16.7
136 5.83
137 4.91
138 1.5
145 12.94
146 4.29
147 36.08
149 13.21
150 2
151 2.09
159 6.1
160 4.84
161 11.09
162 5.8
163 5.31
173 5.3
174 3.23
175 4.6
176 3.41
177 2.1
187 4.13
188 3.68
189 3.52
191 1.81
197 1.19
199 1.3
201 15.82
202 4.92
203 3.88
215 79.61
216 41.11
217 23.7
218 4.09
229 2.58
230 23.33
231 7
236 1.29
244 1.6
248 1.41
256 1.71
257 6.2
258 1.41
261 2.69
275 19.63
276 22.3
277 4.09
285 2.4
290 8.71
291 2.52
344 3
356 1.71
383 16.03
384 4.71
398 25.32
399 8.19
400 1.3
443 2.34
458 25.81
459 9.21
460 1.33

>  <PREDICTED SPECTRUM>  (686) 
29 16
39 6
41 463
42 172
43 742
44 181
45 84
49 72
51 44
52 5
53 165
54 69
55 586
56 87
57 473
58 74
59 11
60 104
61 151
65 107
66 12
67 460
68 241
69 503
70 135
71 285
73 97
77 210
78 89
79 461
80 141
81 593
82 217
83 301
84 138
85 244
86 54
87 23
91 450
92 169
93 476
94 193
95 511
96 128
97 249
98 137
99 101
101 48
103 75
104 71
105 404
106 351
107 590
108 442
109 460
110 94
111 259
114 25
115 110
116 3
117 171
118 152
119 353
120 285
121 408
122 254
123 359
124 172
125 115
127 42
128 47
129 69
130 21
131 143
132 14
133 332
134 204
135 358
136 225
137 181
138 55
139 65
142 46
143 60
144 18
145 236
146 122
147 484
148 238
149 335
150 85
151 142
152 22
153 24
154 7
155 13
156 0
157 46
158 30
159 231
160 244
161 303
162 238
163 229
164 25
165 41
167 8
173 235
174 182
175 206
176 166
177 122
178 2
179 23
185 37
186 39
187 208
188 245
189 209
190 111
191 27
193 37
199 83
200 8
201 425
202 236
203 145
204 73
205 25
207 7
208 27
214 38
215 999
216 670
217 471
218 206
219 51
221 4
227 0
229 96
230 429
231 207
233 37
234 65
235 39
236 81
241 41
243 109
244 101
245 71
246 63
247 141
248 132
249 47
256 78
257 248
258 103
259 58
260 25
261 174
262 149
263 18
271 8
273 26
274 46
275 509
276 535
277 203
278 34
285 153
286 6
288 53
289 80
290 384
291 176
301 10
302 52
303 83
304 67
315 49
316 53
329 49
341 1
342 12
343 28
344 245
345 43
355 136
356 82
357 86
358 46
359 18
360 16
369 18
370 182
383 543
384 254
385 86
390 12
398 500
399 405
400 119
405 0
430 57
443 157
444 100
458 631
459 386
460 175
461 15

$$$$

     RDKit          2D

 44 49  0  0  1  0  0  0  0  0999 V2000
    7.2094   -4.8715    0.0000 C   0  0  0  0  0  0  0  0  0  0  0  0
    3.7903   -0.4593    0.0000 C   0  0  0  0  0  0  0  0  0  0  0  0
    1.5504    0.1966    0.0000 C   0  0  0  0  0  0  0  0  0  0  0  0
   -2.4180    2.5865    0.0000 C   0  0  0  0  0  0  0  0  0  0  0  0
   -4.4670    7.6355    0.0000 C   0  0  0  0  0  0  0  0  0  0  0  0
   -2.4180    7.0865    0.0000 C   0  0  0  0  0  0  0  0  0  0  0  0
   -2.9670    5.0375    0.0000 C   0  0  0  0  0  0  0  0  0  0  0  0
   -8.1632    3.1355    0.0000 C   0  0  0  0  0  0  0  0  0  0  0  0
  -10.2122    2.5865    0.0000 C   0  0  0  0  0  0  0  0  0  0  0  0
   -9.6632    0.5375    0.0000 C   0  0  0  0  0  0  0  0  0  0  0  0
   -6.1142    5.5865    0.0000 C   0  0  0  0  0  0  0  0  0  0  0  0
   -7.6142    7.0865    0.0000 C   0  0  0  0  0  0  0  0  0  0  0  0
   -9.1142    5.5865    0.0000 C   0  0  0  0  0  0  0  0  0  0  0  0
   -3.7170   -1.1635    0.0000 C   0  0  0  0  0  0  0  0  0  0  0  0
   -5.0161   -0.4135    0.0000 C   0  0  0  0  0  0  0  0  0  0  0  0
    5.6823   -2.7696    0.0000 C   0  0  0  0  0  0  0  0  0  0  0  0
   -1.1190    1.8365    0.0000 C   0  0  0  0  0  0  0  0  0  0  0  0
    0.1801    1.0865    0.0000 C   0  0  0  0  0  0  0  0  0  0  0  0
    4.3120   -2.1595    0.0000 C   0  0  0  0  0  0  0  0  0  0  0  0
   -0.8071   -2.6307    0.0000 C   0  0  0  0  0  0  0  0  0  0  0  0
   -3.7170    3.3365    0.0000 C   0  0  0  0  0  0  0  0  0  0  0  0
    4.6256   -5.1431    0.0000 C   0  0  0  0  0  0  0  0  0  0  0  0
    5.8391   -4.2614    0.0000 C   0  0  0  0  0  0  0  0  0  0  0  0
    2.7866   -1.5740    0.0000 C   0  0  0  0  0  0  0  0  0  0  0  0
   -2.4180   -0.4135    0.0000 C   0  0  0  0  0  0  0  0  0  0  0  0
   -2.4180    1.0865    0.0000 C   0  0  0  0  0  0  0  0  0  0  0  0
   -5.0161    1.0865    0.0000 C   0  0  0  0  0  0  0  0  0  0  0  0
   -1.1190   -1.1635    0.0000 C   0  0  0  0  0  0  0  0  0  0  0  0
    0.6847   -2.7875    0.0000 C   0  0  0  0  0  0  0  0  0  0  0  0
   -5.0161    4.0865    0.0000 C   0  0  0  0  0  0  0  0  0  0  0  0
    1.2948   -1.4172    0.0000 C   0  0  0  0  0  0  0  0  0  0  0  0
   -6.3151    1.8365    0.0000 C   0  0  0  0  0  0  0  0  0  0  0  0
   -6.3151    3.3365    0.0000 C   0  0  0  0  0  0  0  0  0  0  0  0
    0.1801   -0.4135    0.0000 C   0  0  0  0  0  0  0  0  0  0  0  0
   -3.7170    1.8365    0.0000 C   0  0  0  0  0  0  0  0  0  0  0  0
    3.0984   -3.0412    0.0000 C   0  0  0  0  0  0  0  0  0  0  0  0
    3.2552   -4.5330    0.0000 O   0  0  0  0  0  0  0  0  0  0  0  0
    1.7994   -3.7912    0.0000 O   0  0  0  0  0  0  0  0  0  0  0  0
   -5.0161    5.5865    0.0000 O   0  0  0  0  0  0  0  0  0  0  0  0
   -7.6142    1.0865    0.0000 O   0  0  0  0  0  0  0  0  0  0  0  0
   -7.6142    4.0865    0.0000 O   0  0  0  0  0  0  0  0  0  0  0  0
   -3.7170    6.3365    0.0000 Si  0  0  0  0  0  4  0  0  0  0  0  0
   -8.9132    1.8365    0.0000 Si  0  0  0  0  0  4  0  0  0  0  0  0
   -7.6142    5.5865    0.0000 Si  0  0  0  0  0  4  0  0  0  0  0  0
 15 14  1  0
 18 17  1  0
 19 16  1  0
 23  1  1  1
 23 16  1  0
 23 22  1  0
 24  2  1  6
 25 14  1  6
 26 17  1  1
 26 25  1  0
 27 15  1  6
 28 20  1  1
 28 25  1  0
 29 20  1  1
 30 21  1  0
 31 24  1  0
 31 29  1  1
 32 27  1  0
 33 30  1  0
 33 32  1  0
 34  3  1  1
 34 18  1  0
 34 28  1  0
 34 31  1  0
 35  4  1  1
 35 21  1  0
 35 26  1  0
 35 27  1  0
 36 19  1  1
 36 24  1  0
 37 22  1  0
 36 37  1  0
 29 38  1  0
 36 38  1  0
 30 39  1  1
 32 40  1  1
 33 41  1  6
 42  5  1  0
 42  6  1  0
 42  7  1  0
 42 39  1  0
 43  8  1  0
 43  9  1  0
 43 10  1  0
 43 40  1  0
 44 11  1  0
 44 12  1  0
 44 13  1  0
 44 41  1  0
M  END
>  <NAME>  (687) 
ISODIOTIGENIN-TRI-TRIMETHYLSILYL ETHER

>  <SYNONYMS>  (687) 


>  <SPECTRUM TYPE>  (687) 
MS1

>  <INSTRUMENT TYPE>  (687) 
EI-B

>  <INSTRUMENT>  (687) 
HITACHI M-80

>  <ION MODE>  (687) 
P

>  <INCHIKEY>  (687) 
KHMJYEMFAXORTC-QJGHFXDPSA-N

>  <FORMULA>  (687) 
C36H68O5Si3

>  <EXACT MASS>  (687) 
664.437454866

>  <MW>  (687) 
664

>  <ID>  (687) 
JP011089

>  <CONTRIBUTOR>  (687) 
University of Tokyo Team, {Faculty of Engineering, University of Tokyo

>  <COMMENT>  (687) 
SMILES=O(C15[H])C(C6)(OCC(C6)C)C(C(C(C2([H])C5)(C)CCC(C3(C)4)(C(CCC3(C(C(C(O[Si](C)(C)C)C4)O[Si](C)(C)C)O[Si](C)(C)C)[H])2[H])[H])1[H])C
InChI=InChI=1S/C36H68O5Si3/c1-23-16-19-36(37-22-23)24(2)31-29(38-36)20-28-25-14-15-27-32(40-43(8,9)10)33(41-44(11,12)13)30(39-42(5,6)7)21-35(27,4)26(25)17-18-34(28,31)3/h23-33H,14-22H2,1-13H3/t23-,24+,25-,26+,27-,28+,29+,30+,31+,32-,33-,34+,35-,36-/m1/s1
computed SMILES=O1CC(C)CCC12OC3CC4C5CCC6C(O[Si](C)(C)C)C(O[Si](C)(C)C)C(O[Si](C)(C)C)CC6(C)C5CCC4(C)C3C2C
accession=JP011089
date=2016.01.19 (Created 2008.10.21, modified 2011.05.06)
author=YAMAMOTO M, DEP. CHEMISTRY, FAC. SCIENCE, NARA WOMEN'S UNIV.
license=CC BY-NC-SA
exact mass=664.43745
ionization energy=70 eV
ion type=[M]+*
computed spectral entropy=4.550307520351282
computed normalized entropy=0.8734657098319376
SPLASH=splash10-05as-4941200000-fb61b1d58bff9ce5dd5b
submitter=submitter = University of Tokyo Team (Faculty of Engineering, University of Tokyo)
MoNA Rating=3.75

>  <NUM PEAKS>  (687) 
183

>  <MASS SPECTRAL PEAKS>  (687) 
40 9.48
41 6.91
42 7.32
44 13.79
45 1.9
51 1.93
53 2.08
55 18.31
68 2.8
69 28.29
70 4.93
71 3.47
72 2.12
73 99.99
74 11.54
75 13.46
79 6.2
81 13.21
82 2.8
83 3.72
85 4.27
87 2.43
89 2.3
91 4.89
93 12.81
95 11.73
96 2.58
97 6.52
99 4.09
101 4.7
103 9.82
105 12.94
106 2.7
107 11.31
108 3.52
109 8.61
111 3.09
113 1.92
115 8.78
116 2.4
117 6.07
119 7
120 2.41
121 9.4
122 3.39
123 3.33
125 4.49
126 5.53
127 2.2
129 14.81
130 3.7
131 11.82
132 2.09
133 13.92
134 2.59
135 3.81
139 92.54
140 14.09
141 3.1
142 4.31
143 16.09
144 2.83
145 8.18
146 2.47
147 80.1
148 12.17
149 10.61
151 2.43
155 3.29
157 6.3
158 2
159 7.82
160 14.21
161 8.03
162 2.11
163 2.64
165 2.4
167 4.06
168 2.62
169 6.8
170 2.49
171 3.6
172 2.42
173 4.91
174 2
175 2.5
177 4.53
179 2.23
180 2.57
181 5.6
182 2.27
183 2.21
184 1.69
185 3.03
187 10.5
188 2.17
189 2
191 20.41
192 4.91
193 5.16
194 2.28
195 5.87
197 3.23
199 3.5
201 4.81
202 2.47
203 2.63
204 8.03
205 6.41
207 19.09
208 4.71
209 4.68
211 2.7
213 5.18
215 11.78
217 17.22
218 9.07
220 5.79
225 4
227 2.53
228 2.1
229 4.42
230 96.93
231 27.78
232 12.21
233 2.69
239 2.08
241 3.4
243 4.9
244 2.82
251 5.63
252 2.49
253 2
257 3.49
265 6
266 2.19
267 4.13
269 6.9
270 2.01
280 2.19
281 10.51
282 2.22
305 5.3
319 2.31
325 2.09
341 3.5
342 2.09
343 2.5
344 20.1
345 6.91
346 2.03
355 3.41
357 4.59
370 7.1
371 3.91
386 4.53
388 2.42
395 8.7
396 2.78
415 3.8
429 3.39
445 2.84
458 66.82
459 25.2
460 11.27
461 5.2
471 7.06
472 2.63
484 12.7
485 9.74
486 4.61
533 3.9
550 2.21
559 2.83
560 2.21
561 3.3
574 9.09
575 4.63
637 4.7
638 2.81
664 11.8
665 6.63
666 2.51

>  <PREDICTED SPECTRUM>  (687) 
28 9
41 212
42 79
43 106
44 140
45 136
46 31
47 61
49 17
50 8
53 79
55 267
56 65
57 124
59 40
60 45
61 115
65 88
67 112
68 89
69 438
70 210
71 242
72 139
73 999
74 263
75 643
76 205
77 108
79 173
80 90
81 346
82 132
83 207
84 43
85 179
86 66
87 146
89 55
91 172
93 265
94 113
95 411
96 89
97 159
98 33
99 115
101 394
103 232
104 96
105 406
106 165
107 408
108 248
109 379
110 126
111 197
112 46
113 140
115 255
116 165
117 436
119 247
120 288
121 316
122 295
123 292
124 35
125 190
126 133
127 242
128 119
129 517
130 163
131 392
132 187
133 474
134 128
135 245
136 36
137 91
139 860
140 267
141 207
142 290
143 697
144 148
145 399
146 216
147 932
148 431
149 402
150 70
151 93
152 5
153 105
154 12
155 219
156 40
157 258
158 132
159 459
160 298
161 394
162 186
163 172
164 58
165 101
166 23
167 221
168 156
169 401
170 127
171 229
172 170
173 330
174 109
175 160
176 81
177 111
179 91
180 65
181 351
182 202
183 193
184 114
185 182
186 10
187 187
188 108
189 227
190 107
191 589
192 260
193 282
194 97
195 310
196 77
197 240
198 38
199 206
200 3
201 210
202 110
203 133
204 331
205 271
206 17
207 294
208 134
209 143
211 235
212 72
213 133
215 279
216 182
217 606
218 319
219 83
220 100
221 79
222 42
223 73
224 107
225 190
226 37
227 187
228 155
229 316
230 518
231 693
232 407
233 96
234 68
235 61
237 78
238 0
239 106
240 24
241 223
242 89
243 256
244 208
245 85
246 31
247 35
250 12
251 220
252 145
253 164
254 29
255 28
256 90
257 130
258 82
259 51
260 58
263 17
264 36
265 157
266 64
267 190
268 75
269 369
270 134
271 25
272 14
273 43
275 12
276 5
277 22
279 82
280 137
281 280
282 134
283 81
284 14
285 52
286 58
287 76
288 2
291 1
292 1
294 0
295 60
297 49
299 36
301 23
305 194
306 65
307 137
308 19
313 92
314 63
315 45
319 131
321 2
323 37
325 74
327 76
328 5
329 30
331 85
332 28
333 71
335 13
339 14
340 46
341 279
342 166
343 252
344 408
345 349
346 129
347 75
349 0
353 34
355 169
356 15
357 173
358 10
359 27
361 36
363 54
367 84
368 62
369 141
370 167
371 234
372 31
373 35
374 0
375 72
383 23
385 17
386 119
389 21
395 262
396 147
397 6
399 44
401 14
402 11
413 17
415 166
416 24
417 33
425 11
428 21
429 206
430 102
431 42
432 76
443 27
444 79
445 207
447 23
449 61
451 10
456 96
457 46
458 591
459 497
460 254
461 172
462 7
463 18
471 201
472 50
474 20
477 3
478 9
484 508
485 352
486 150
491 9
492 78
509 0
515 14
518 24
520 1
522 34
530 2
532 45
533 212
534 11
537 27
546 51
547 32
550 176
551 62
559 166
560 180
561 133
571 6
574 491
575 239
576 0
577 1
606 36
607 24
630 11
631 13
637 237
638 37
664 514
665 294
666 189

$$$$

     RDKit          2D

 33 36  0  0  1  0  0  0  0  0999 V2000
    9.5655    7.2342    0.0000 C   0  0  0  0  0  0  0  0  0  0  0  0
   10.0746    4.6865    0.0000 C   0  0  0  0  0  0  0  0  0  0  0  0
    8.1228    2.9718    0.0000 C   0  0  0  0  0  0  0  0  0  0  0  0
    3.2009    4.6377    0.0000 C   0  0  0  0  0  0  0  0  0  0  0  0
   -8.0957   -2.8471    0.0000 C   0  0  0  0  0  0  0  0  0  0  0  0
   -1.6125    0.9400    0.0000 C   0  0  0  0  0  0  0  0  0  0  0  0
    2.4507    3.1203    0.0000 C   0  0  0  0  0  0  0  0  0  0  0  0
    8.0946    6.9403    0.0000 C   0  0  0  0  0  0  0  0  0  0  0  0
    5.6618    3.8047    0.0000 C   0  0  0  0  0  0  0  0  0  0  0  0
    6.1427    5.2256    0.0000 C   0  0  0  0  0  0  0  0  0  0  0  0
   -0.3200   -2.8400    0.0000 C   0  0  0  0  0  0  0  0  0  0  0  0
    1.0100   -2.0900    0.0000 C   0  0  0  0  0  0  0  0  0  0  0  0
    4.5500    0.8800    0.0000 C   0  0  0  0  0  0  0  0  0  0  0  0
    3.7100   -0.3100    0.0000 C   0  0  0  0  0  0  0  0  0  0  0  0
   -4.2000   -0.5600    0.0000 C   0  0  0  0  0  0  0  0  0  0  0  0
   -0.3200    1.6300    0.0000 C   0  0  0  0  0  0  0  0  0  0  0  0
   -2.8900    0.1600    0.0000 C   0  0  0  0  0  0  0  0  0  0  0  0
    1.0100    2.3900    0.0000 C   0  0  0  0  0  0  0  0  0  0  0  0
   -2.8900   -2.8400    0.0000 C   0  0  0  0  0  0  0  0  0  0  0  0
    8.6037    4.3926    0.0000 C   0  0  0  0  0  0  0  0  0  0  0  0
    4.1909    3.5108    0.0000 C   0  0  0  0  0  0  0  0  0  0  0  0
   -6.7981   -2.0947    0.0000 C   0  0  0  0  0  0  0  0  0  0  0  0
    7.6137    5.5195    0.0000 C   0  0  0  0  0  0  0  0  0  0  0  0
   -1.6200   -2.0900    0.0000 C   0  0  0  0  0  0  0  0  0  0  0  0
   -4.2000   -2.0900    0.0000 C   0  0  0  0  0  0  0  0  0  0  0  0
    1.0100   -0.5600    0.0000 C   0  0  0  0  0  0  0  0  0  0  0  0
    3.7100    2.0900    0.0000 C   0  0  0  0  0  0  0  0  0  0  0  0
    2.2800    0.1600    0.0000 C   0  0  0  0  0  0  0  0  0  0  0  0
   -0.3200    0.1600    0.0000 C   0  0  0  0  0  0  0  0  0  0  0  0
   -1.6200   -0.5600    0.0000 C   0  0  0  0  0  0  0  0  0  0  0  0
    2.2800    1.6300    0.0000 C   0  0  0  0  0  0  0  0  0  0  0  0
   -6.8008   -0.5947    0.0000 O   0  0  0  0  0  0  0  0  0  0  0  0
   -5.4977   -2.8424    0.0000 O   0  0  0  0  0  0  0  0  0  0  0  0
  8  1  1  0
  9 10  2  0
 12 11  1  0
 14 13  1  0
 17 15  1  0
 18 16  1  0
 20  2  1  0
 20  3  1  0
 21  4  1  6
 21  9  1  0
 22  5  1  0
 23  8  1  1
 23 10  1  0
 23 20  1  0
 24 11  1  1
 24 19  1  0
 25 15  1  0
 25 19  1  0
 26 12  2  0
 27 13  1  1
 27 21  1  0
 28 14  1  1
 28 26  1  0
 29 16  1  1
 29 26  1  0
 30  6  1  1
 30 17  1  0
 30 24  1  0
 30 29  1  0
 31  7  1  1
 31 18  1  0
 31 27  1  0
 31 28  1  0
 32 22  2  0
 33 22  1  0
 25 33  1  1
M  END
>  <NAME>  (688) 
ALPHA-SPINASTEROL ACETATE

>  <SYNONYMS>  (688) 


>  <SPECTRUM TYPE>  (688) 
MS1

>  <INSTRUMENT TYPE>  (688) 
EI-B

>  <INSTRUMENT>  (688) 
HITACHI M-80

>  <ION MODE>  (688) 
P

>  <INCHIKEY>  (688) 
VQLULFBGTFJDEB-LSEHKVPYSA-N

>  <FORMULA>  (688) 
C31H50O2

>  <EXACT MASS>  (688) 
454.38108084

>  <MW>  (688) 
454

>  <ID>  (688) 
JP011088

>  <CONTRIBUTOR>  (688) 
University of Tokyo Team, {Faculty of Engineering, University of Tokyo

>  <COMMENT>  (688) 
SMILES=[H]C(C(C)C)(CC)C=CC([H])(C)C(C1)([H])C(C)(C4)C(C(=C2[H])C([H])(C4)C(C)(C3)C([H])(CC(OC(C)=O)(C3)[H])C2)([H])C1
InChI=InChI=1S/C31H50O2/c1-8-23(20(2)3)10-9-21(4)27-13-14-28-26-12-11-24-19-25(33-22(5)32)15-17-30(24,6)29(26)16-18-31(27,28)7/h9-10,12,20-21,23-25,27-29H,8,11,13-19H2,1-7H3/b10-9+/t21-,23-,24+,25+,27-,28+,29+,30+,31-/m1/s1
computed SMILES=O=C(OC1CCC2(C)C3C(=CCC2C1)C4CCC(C(C=CC(CC)C(C)C)C)C4(C)CC3)C
accession=JP011088
date=2016.01.19 (Created 2008.10.21, modified 2011.05.06)
author=YAMAMOTO M, DEP. CHEMISTRY, FAC. SCIENCE, NARA WOMEN'S UNIV.
license=CC BY-NC-SA
exact mass=454.38108
ionization energy=70 eV
ion type=[M]+*
computed spectral entropy=4.444813841702977
computed normalized entropy=0.8736569391171939
SPLASH=splash10-0a59-9621000000-9b7089e39707fe881c00
submitter=submitter = University of Tokyo Team (Faculty of Engineering, University of Tokyo)
MoNA Rating=3.75

>  <NUM PEAKS>  (688) 
162

>  <MASS SPECTRAL PEAKS>  (688) 
15 1.76
27 4.4
31 1.74
41 34.97
42 2.25
43 46.47
52 2.75
53 4.97
54 1.79
55 85.63
56 5.69
57 19.63
65 3.36
67 29.69
68 4.75
69 49.34
70 4.67
71 10.42
77 8.31
78 2.43
79 29.15
80 4.84
81 99.99
82 9.94
83 59.22
85 11.68
91 28.75
92 5.64
93 34.72
94 11.96
95 41.94
96 8.53
97 17.54
98 2.42
103 2.68
104 1.91
105 39.64
106 6.5
107 38.31
108 6.52
109 24.05
110 4.48
111 4.5
116 1.34
117 12.08
118 3.86
119 20.47
120 7.39
121 18.28
122 6.05
123 14.35
125 1.88
128 2.58
129 6.15
130 3.63
131 14.31
132 4.77
133 20.26
134 5.83
134.5 2.68
135 14.52
136 2.68
137 8.58
138 3.15
139 4.94
141 2.43
142 2.08
143 7.42
144 4.16
145 17.27
146 6.42
147 22.63
148 4.87
149 9.14
150 9.14
151 4.6
155 2.58
156 1.74
157 6.18
158 3.02
159 14.42
160 4.95
161 14.1
162 2.8
163 4.28
164 3.1
165 1.71
166 2.08
169 1.73
170 1.31
171 5.02
172 2.25
173 7.69
174 3.09
175 6.85
176 1.94
177 1.26
178 3.49
179 1.47
184 2.53
185 4.52
187 6.95
188 2.42
189 2.75
197 2.38
198 2.01
199 6.57
200 2.57
201 7.63
203 2.05
211 4.06
213 14.33
214 4
215 4.7
227 4.78
228 7.39
229 13.71
230 2.31
240 2.78
241 6.03
242 1.88
243 1.74
253 10.08
254 3.89
255 32.75
256 6.94
262 2.01
264 2.15
266 1.74
267 1.88
273 5.1
274 2.8
283 2.75
287 2.01
288 9.07
289 2.25
299 2.82
300 2.52
301 1.78
311 1.73
312 3.31
313 42.62
314 12.85
315 11.89
316 2.62
327 3.64
329 2.48
339 1.74
341 4.68
342 6.9
343 2.28
351 5
379 2.31
384 1.74
392 1.74
394 2.67
411 4.95
412 2.16
422 1.74
454 10
455 3.36
456 2.68

>  <PREDICTED SPECTRUM>  (688) 
41 386
42 42
43 831
44 48
47 40
49 55
51 17
53 188
54 50
55 834
56 160
57 509
58 14
59 48
60 14
61 67
65 59
66 28
67 536
68 207
69 802
70 219
71 478
75 120
77 278
78 54
79 496
80 162
81 789
82 313
83 743
84 154
85 239
86 21
91 495
92 134
93 563
94 302
95 644
96 351
97 547
98 124
99 117
100 21
103 76
104 3
105 508
106 286
107 617
108 228
109 444
110 243
111 333
112 38
113 85
115 64
116 53
117 260
118 105
119 391
120 252
121 495
122 285
123 384
124 124
125 181
126 10
127 111
128 80
129 143
130 49
131 367
132 188
133 413
134 253
135 430
136 71
137 369
138 171
139 271
140 33
141 69
142 99
143 221
144 63
145 407
146 312
147 470
148 192
149 361
150 78
151 188
153 33
154 41
155 153
156 65
157 203
158 118
159 388
160 216
161 401
162 92
163 178
164 29
165 61
166 82
167 44
169 154
170 2
171 252
172 84
173 238
174 125
175 261
176 58
177 30
178 84
179 25
181 62
183 63
184 20
185 220
187 308
189 176
191 43
195 38
197 6
199 297
200 67
201 234
211 41
212 33
213 390
214 111
215 174
227 317
228 250
229 359
230 78
233 38
239 76
240 57
241 201
243 34
245 1
253 276
254 62
255 817
256 347
273 120
274 99
283 88
287 54
288 374
289 10
299 131
300 181
301 107
309 23
312 26
313 999
314 482
315 481
316 155
317 1
318 22
327 117
328 101
338 25
339 70
341 252
342 485
343 312
344 94
345 22
351 238
356 153
357 106
358 19
379 113
383 8
394 72
399 21
411 271
412 70
439 201
440 43
454 531
455 383
456 48
457 36

$$$$

     RDKit          2D

 19 19  0  0  0  0  0  0  0  0999 V2000
   -3.8983    0.7496    0.0000 C   0  0  0  0  0  0  0  0  0  0  0  0
    2.5987    3.0002    0.0000 C   0  0  0  0  0  0  0  0  0  0  0  0
   -7.7951   -1.5010    0.0000 C   0  0  0  0  0  0  0  0  0  0  0  0
    6.4962    0.7508    0.0000 C   0  0  0  0  0  0  0  0  0  0  0  0
   -1.3000    0.7500    0.0000 C   0  0  0  0  0  0  0  0  0  0  0  0
   -0.0000   -1.5000    0.0000 C   0  0  0  0  0  0  0  0  0  0  0  0
    0.0000    1.5000    0.0000 C   0  0  0  0  0  0  0  0  0  0  0  0
    1.3000   -0.7500    0.0000 C   0  0  0  0  0  0  0  0  0  0  0  0
   -2.5989   -1.5002    0.0000 C   0  0  0  0  0  0  0  0  0  0  0  0
   -3.8981   -0.7504    0.0000 C   0  0  0  0  0  0  0  0  0  0  0  0
    2.5989    1.5002    0.0000 C   0  0  0  0  0  0  0  0  0  0  0  0
   -1.3000   -0.7500    0.0000 C   0  0  0  0  0  0  0  0  0  0  0  0
    1.3000    0.7500    0.0000 C   0  0  0  0  0  0  0  0  0  0  0  0
   -5.1970   -1.5006    0.0000 C   0  0  0  0  0  0  0  0  0  0  0  0
    3.8981    0.7504    0.0000 C   0  0  0  0  0  0  0  0  0  0  0  0
   -5.1968   -3.0006    0.0000 O   0  0  0  0  0  0  0  0  0  0  0  0
    3.8983   -0.7496    0.0000 O   0  0  0  0  0  0  0  0  0  0  0  0
   -6.4962   -0.7508    0.0000 O   0  0  0  0  0  0  0  0  0  0  0  0
    5.1970    1.5006    0.0000 O   0  0  0  0  0  0  0  0  0  0  0  0
  7  5  2  0
  8  6  1  0
 10  1  1  0
 10  9  1  0
 11  2  1  0
 12  5  1  0
 12  6  2  0
 12  9  1  0
 13  7  1  0
 13  8  2  0
 13 11  1  0
 14 10  1  0
 15 11  1  0
 16 14  2  0
 17 15  2  0
 18  3  1  0
 18 14  1  0
 19  4  1  0
 19 15  1  0
M  END
>  <NAME>  (689) 
2-(4-(2-CARBOXYLPROPYL)PHENYL)PROPIONIC ACID DIMETHYL ESTER

>  <SYNONYMS>  (689) 


>  <SPECTRUM TYPE>  (689) 
MS1

>  <INSTRUMENT TYPE>  (689) 
EI-B

>  <INSTRUMENT>  (689) 
HITACHI M-80

>  <ION MODE>  (689) 
P

>  <INCHIKEY>  (689) 
HWGFJGIDJHBXPQ-UHFFFAOYSA-N

>  <FORMULA>  (689) 
C15H20O4

>  <EXACT MASS>  (689) 
264.13615912

>  <MW>  (689) 
264

>  <ID>  (689) 
JP011086

>  <CONTRIBUTOR>  (689) 
University of Tokyo Team, {Faculty of Engineering, University of Tokyo

>  <COMMENT>  (689) 
SMILES=COC(=O)C(C)Cc(c1)ccc(c1)C(C)C(=O)OC
InChI=InChI=1S/C15H20O4/c1-10(14(16)18-3)9-12-5-7-13(8-6-12)11(2)15(17)19-4/h5-8,10-11H,9H2,1-4H3
computed SMILES=O=C(OC)C(C1=CC=C(C=C1)CC(C(=O)OC)C)C
accession=JP011086
date=2016.01.19 (Created 2008.10.21, modified 2011.05.06)
author=YAMAMOTO M, DEP. CHEMISTRY, FAC. SCIENCE, NARA WOMEN'S UNIV.
license=CC BY-NC-SA
exact mass=264.13616
ionization energy=70 eV
ion type=[M]+*
computed spectral entropy=3.1918675281493116
computed normalized entropy=0.800170542396247
SPLASH=splash10-0ar1-2940000000-048bcd4f9dc69018e6eb
submitter=submitter = University of Tokyo Team (Faculty of Engineering, University of Tokyo)
MoNA Rating=3.75

>  <NUM PEAKS>  (689) 
54

>  <MASS SPECTRAL PEAKS>  (689) 
15 10.91
27 2.78
29 2.5
39 6.03
41 9.19
43 1.72
51 3.52
53 2.41
55 1.9
59 11.29
63 2.83
64 1.4
65 4.87
72 1.84
73 2.69
77 8.48
78 3.72
79 3.3
89 2.82
90 1.49
91 26.72
92 2.63
101 1.49
102 2.68
103 6.81
104 2.67
105 11.7
115 15.03
116 7.82
117 49.03
118 26.19
119 4.21
121 19.83
122 1.93
127 2
128 5.81
129 5.09
130 3.12
131 13.62
132 1.79
133 1.09
143 2.19
144 1.31
145 83.9
146 13.03
147 1.42
177 63.39
178 7.91
204 26.38
205 99.99
206 14.51
207 2.09
264 26.43
265 4.31

>  <PREDICTED SPECTRUM>  (689) 
15 111
16 0
17 1
27 61
28 27
29 75
31 18
32 17
33 22
39 120
40 19
41 227
42 3
43 93
44 28
50 38
51 129
52 39
53 96
55 108
57 80
59 279
63 76
64 9
65 164
67 48
69 89
70 5
77 195
78 79
79 103
85 14
86 0
87 25
89 121
90 67
91 467
92 52
101 19
102 71
103 177
104 51
105 179
107 15
115 358
116 187
117 467
118 362
119 159
120 30
121 302
122 19
127 94
128 367
129 286
130 69
131 344
132 179
133 100
143 204
144 230
145 999
146 405
147 169
148 13
149 89
160 7
161 74
162 40
163 17
172 8
176 109
177 485
178 138
189 103
190 33
203 13
204 357
205 535
206 243
232 65
233 19
264 381
265 147
266 37

$$$$

     RDKit          2D

 41 46  0  0  1  0  0  0  0  0999 V2000
    7.2964   -4.7208    0.0000 C   0  0  0  0  0  0  0  0  0  0  0  0
    3.8773   -0.3085    0.0000 C   0  0  0  0  0  0  0  0  0  0  0  0
   -3.6300    7.9872    0.0000 C   0  0  0  0  0  0  0  0  0  0  0  0
  -10.1252    1.2372    0.0000 C   0  0  0  0  0  0  0  0  0  0  0  0
   -8.8262    6.4872    0.0000 C   0  0  0  0  0  0  0  0  0  0  0  0
    1.6374    0.3473    0.0000 C   0  0  0  0  0  0  0  0  0  0  0  0
   -2.3310    2.7372    0.0000 C   0  0  0  0  0  0  0  0  0  0  0  0
   -3.6300   -1.0128    0.0000 C   0  0  0  0  0  0  0  0  0  0  0  0
   -4.9291   -0.2628    0.0000 C   0  0  0  0  0  0  0  0  0  0  0  0
    5.7693   -2.6189    0.0000 C   0  0  0  0  0  0  0  0  0  0  0  0
   -1.0319    1.9872    0.0000 C   0  0  0  0  0  0  0  0  0  0  0  0
    0.2671    1.2372    0.0000 C   0  0  0  0  0  0  0  0  0  0  0  0
    4.3990   -2.0088    0.0000 C   0  0  0  0  0  0  0  0  0  0  0  0
   -0.7201   -2.4800    0.0000 C   0  0  0  0  0  0  0  0  0  0  0  0
   -3.6300    3.4872    0.0000 C   0  0  0  0  0  0  0  0  0  0  0  0
    4.7126   -4.9924    0.0000 C   0  0  0  0  0  0  0  0  0  0  0  0
    5.9261   -4.1107    0.0000 C   0  0  0  0  0  0  0  0  0  0  0  0
    2.8736   -1.4233    0.0000 C   0  0  0  0  0  0  0  0  0  0  0  0
   -3.6300    6.4872    0.0000 C   0  0  0  0  0  0  0  0  0  0  0  0
   -8.8262    1.9872    0.0000 C   0  0  0  0  0  0  0  0  0  0  0  0
   -7.5271    5.7372    0.0000 C   0  0  0  0  0  0  0  0  0  0  0  0
   -2.3310   -0.2628    0.0000 C   0  0  0  0  0  0  0  0  0  0  0  0
   -2.3310    1.2372    0.0000 C   0  0  0  0  0  0  0  0  0  0  0  0
   -4.9291    1.2372    0.0000 C   0  0  0  0  0  0  0  0  0  0  0  0
   -1.0319   -1.0128    0.0000 C   0  0  0  0  0  0  0  0  0  0  0  0
    0.7717   -2.6368    0.0000 C   0  0  0  0  0  0  0  0  0  0  0  0
   -4.9291    4.2372    0.0000 C   0  0  0  0  0  0  0  0  0  0  0  0
    1.3818   -1.2665    0.0000 C   0  0  0  0  0  0  0  0  0  0  0  0
   -6.2281    1.9872    0.0000 C   0  0  0  0  0  0  0  0  0  0  0  0
   -6.2281    3.4872    0.0000 C   0  0  0  0  0  0  0  0  0  0  0  0
    0.2671   -0.2628    0.0000 C   0  0  0  0  0  0  0  0  0  0  0  0
   -3.6300    1.9872    0.0000 C   0  0  0  0  0  0  0  0  0  0  0  0
    3.1855   -2.8905    0.0000 C   0  0  0  0  0  0  0  0  0  0  0  0
   -2.3310    5.7372    0.0000 O   0  0  0  0  0  0  0  0  0  0  0  0
   -8.8262    3.4872    0.0000 O   0  0  0  0  0  0  0  0  0  0  0  0
   -6.2281    6.4872    0.0000 O   0  0  0  0  0  0  0  0  0  0  0  0
    3.3423   -4.3823    0.0000 O   0  0  0  0  0  0  0  0  0  0  0  0
   -4.9291    5.7372    0.0000 O   0  0  0  0  0  0  0  0  0  0  0  0
   -7.5271    1.2372    0.0000 O   0  0  0  0  0  0  0  0  0  0  0  0
   -7.5271    4.2372    0.0000 O   0  0  0  0  0  0  0  0  0  0  0  0
    1.8864   -3.6405    0.0000 O   0  0  0  0  0  0  0  0  0  0  0  0
  9  8  1  0
 12 11  1  0
 13 10  1  0
 17  1  1  1
 17 10  1  0
 17 16  1  0
 18  2  1  6
 19  3  1  0
 20  4  1  0
 21  5  1  0
 22  8  1  6
 23 11  1  1
 23 22  1  0
 24  9  1  6
 25 14  1  1
 25 22  1  0
 26 14  1  1
 27 15  1  0
 28 18  1  0
 28 26  1  1
 29 24  1  0
 30 27  1  0
 30 29  1  0
 31  6  1  1
 31 12  1  0
 31 25  1  0
 31 28  1  0
 32  7  1  1
 32 15  1  0
 32 23  1  0
 32 24  1  0
 33 13  1  1
 33 18  1  0
 34 19  2  0
 35 20  2  0
 36 21  2  0
 37 16  1  0
 33 37  1  0
 38 19  1  0
 27 38  1  1
 39 20  1  0
 29 39  1  1
 40 21  1  0
 30 40  1  6
 26 41  1  0
 33 41  1  0
M  END
>  <NAME>  (690) 
ISODIOTIGENIN TRIACETATE

>  <SYNONYMS>  (690) 


>  <SPECTRUM TYPE>  (690) 
MS1

>  <INSTRUMENT TYPE>  (690) 
EI-B

>  <INSTRUMENT>  (690) 
HITACHI M-80

>  <ION MODE>  (690) 
P

>  <INCHIKEY>  (690) 
NDAJYCUWBPMDDU-DSEUKREJSA-N

>  <FORMULA>  (690) 
C33H50O8

>  <EXACT MASS>  (690) 
574.35056856

>  <MW>  (690) 
574

>  <ID>  (690) 
JP011082

>  <CONTRIBUTOR>  (690) 
University of Tokyo Team, {Faculty of Engineering, University of Tokyo

>  <COMMENT>  (690) 
SMILES=[H]C(C1)(O5)C(C(C)C5(C6)OCC(C6)C)([H])C(C4)(C1(C([H])(C3)C(C4)([H])C(C)(C2)C(C3)([H])C(OC(C)=O)C(C2OC(C)=O)OC(C)=O)[H])C
InChI=InChI=1S/C33H50O8/c1-17-10-13-33(37-16-17)18(2)28-26(41-33)14-25-22-8-9-24-29(39-20(4)35)30(40-21(5)36)27(38-19(3)34)15-32(24,7)23(22)11-12-31(25,28)6/h17-18,22-30H,8-16H2,1-7H3/t17-,18+,22-,23+,24-,25+,26+,27+,28+,29-,30-,31+,32-,33-/m1/s1
computed SMILES=O=C(OC1CC2(C)C(CCC3C2CCC4(C)C3CC5OC6(OCC(C)CC6)C(C)C54)C(OC(=O)C)C1OC(=O)C)C
accession=JP011082
date=2016.01.19 (Created 2008.10.21, modified 2011.05.06)
author=YAMAMOTO M, DEP. CHEMISTRY, FAC. SCIENCE, NARA WOMEN'S UNIV.
license=CC BY-NC-SA
exact mass=574.35057
ionization energy=70 eV
ion type=[M]+*
computed spectral entropy=3.7670722977141393
computed normalized entropy=0.8094336896502856
SPLASH=splash10-000l-4910210000-490fd0cf80d5b7a0ff1a
submitter=submitter = University of Tokyo Team (Faculty of Engineering, University of Tokyo)
MoNA Rating=3.75

>  <NUM PEAKS>  (690) 
105

>  <MASS SPECTRAL PEAKS>  (690) 
18 1.34
28 9.32
29 1.34
41 4.26
42 2.15
43 43
44 1.29
55 5.39
56 1.24
57 1.94
67 2.96
68 11.2
70 1.62
71 1.46
79 2.85
81 4.9
83 2.1
85 1.29
91 2.75
93 5.12
94 1.12
95 5.39
96 1.12
99 1.01
103 1.13
105 4.58
106 1.18
107 5.19
108 2.05
109 4.85
110 1.08
111 1.13
115 6.2
117 1.12
119 3.18
120 1.24
121 5.39
122 2.59
123 1.94
125 2.86
126 3.35
131 2.37
133 2.81
135 1.94
138 3.88
139 99.99
140 17.1
141 2.37
143 1.94
145 2.69
147 3.02
149 1.56
155 1.19
157 2.21
159 2.49
161 2.27
163 1.24
167 2.11
168 3.39
169 1.62
170 1.02
171 1.35
172 1.46
173 1.73
175 1.4
185 1.08
189 1.02
197 1.08
199 1.29
201 1.35
211 1.19
212 1.02
213 1.3
227 1.02
229 1.56
251 2.54
265 1.73
269 3.18
280 5.29
281 1.99
283 1.08
297 1.13
298 2.16
311 1.08
325 1.51
329 1.02
340 6.49
341 2.8
342 1.67
343 1.62
400 11.83
401 3.58
431 14.8
432 4.06
445 6.05
446 1.68
460 4.26
461 1.51
475 1.13
502 6.7
503 2.21
505 1.24
515 1.62
574 9.27
575 3.24

>  <PREDICTED SPECTRUM>  (690) 
26 17
27 25
28 16
40 47
41 252
42 99
43 799
44 69
45 70
49 7
53 49
54 21
55 317
56 78
57 125
59 0
61 75
65 33
67 177
68 70
69 290
70 85
71 77
73 79
77 104
79 140
80 14
81 212
82 7
83 83
84 23
85 91
87 45
91 153
93 203
95 152
96 40
97 171
98 22
99 85
101 17
103 42
105 227
106 19
107 173
108 82
109 210
110 90
111 140
112 7
113 50
114 6
115 347
116 58
117 97
119 132
120 56
121 184
122 85
123 129
124 67
125 147
126 268
127 103
128 149
129 73
130 29
131 141
132 46
133 140
134 40
135 95
137 52
138 85
139 999
140 246
141 170
142 56
143 73
145 128
146 33
147 206
149 26
151 0
153 110
154 42
155 83
156 16
157 187
158 10
159 184
160 59
161 115
162 12
163 61
164 33
165 41
166 5
167 86
168 93
169 120
170 49
171 120
172 44
173 172
174 5
175 84
176 33
177 58
179 13
181 21
183 36
185 94
187 84
189 36
191 47
195 28
197 120
198 13
199 44
201 8
207 7
209 31
211 52
212 55
213 91
217 27
219 41
221 6
223 48
225 25
227 52
229 61
230 7
231 27
233 71
235 52
237 54
239 10
240 11
241 32
243 24
245 2
247 41
249 3
251 122
252 17
253 102
255 12
257 25
258 18
259 37
264 5
265 44
267 149
268 33
269 96
270 20
271 58
273 34
275 34
280 94
281 93
282 132
283 127
284 14
285 86
286 12
287 42
296 9
297 38
299 113
301 15
311 108
312 43
313 72
318 27
326 105
327 139
328 25
329 64
340 108
341 68
342 55
343 77
344 19
358 40
359 3
361 29
372 18
373 23
374 10
382 24
385 0
387 4
396 1
397 22
399 9
400 271
401 108
402 47
413 38
415 1
417 58
431 200
432 92
434 2
442 75
443 7
444 108
445 160
446 64
457 27
458 17
459 9
460 146
461 143
475 2
484 2
502 190
503 125
504 35
505 104
515 145
516 98
541 34
550 19
559 7
571 2
574 265
575 155
576 7

$$$$

     RDKit          2D

 14 14  0  0  0  0  0  0  0  0999 V2000
    3.2823   -3.0174    0.0000 C   0  0  0  0  0  0  0  0  0  0  0  0
    4.5818    0.7330    0.0000 C   0  0  0  0  0  0  0  0  0  0  0  0
   -4.5119    1.4826    0.0000 C   0  0  0  0  0  0  0  0  0  0  0  0
   -0.6153   -0.7683    0.0000 C   0  0  0  0  0  0  0  0  0  0  0  0
    0.6838   -1.5183    0.0000 C   0  0  0  0  0  0  0  0  0  0  0  0
    0.6847    1.4834    0.0000 C   0  0  0  0  0  0  0  0  0  0  0  0
   -0.6148    0.7326    0.0000 C   0  0  0  0  0  0  0  0  0  0  0  0
    1.9833   -0.7674    0.0000 C   0  0  0  0  0  0  0  0  0  0  0  0
    1.9838    0.7334    0.0000 C   0  0  0  0  0  0  0  0  0  0  0  0
   -1.9138    1.4826    0.0000 C   0  0  0  0  0  0  0  0  0  0  0  0
   -1.9138    2.9826    0.0000 O   0  0  0  0  0  0  0  0  0  0  0  0
    3.2823   -1.5174    0.0000 O   0  0  0  0  0  0  0  0  0  0  0  0
    3.2829    1.4832    0.0000 O   0  0  0  0  0  0  0  0  0  0  0  0
   -3.2129    0.7326    0.0000 O   0  0  0  0  0  0  0  0  0  0  0  0
  5  4  2  0
  7  4  1  0
  7  6  2  0
  8  5  1  0
  9  6  1  0
  9  8  2  0
 10  7  1  0
 11 10  2  0
 12  1  1  0
 12  8  1  0
 13  2  1  0
 13  9  1  0
 14  3  1  0
 14 10  1  0
M  END
>  <NAME>  (691) 
METHYL 3,4-DIMETHOXYBENZOATE

>  <SYNONYMS>  (691) 
METHYL VERTRATE

>  <SPECTRUM TYPE>  (691) 
MS1

>  <INSTRUMENT TYPE>  (691) 
EI-B

>  <INSTRUMENT>  (691) 
HITACHI M-80

>  <ION MODE>  (691) 
P

>  <INCHIKEY>  (691) 
BIGQPYZPEWAPBG-UHFFFAOYSA-N

>  <FORMULA>  (691) 
C10H12O4

>  <EXACT MASS>  (691) 
196.073558864

>  <MW>  (691) 
196

>  <ID>  (691) 
JP011080

>  <CONTRIBUTOR>  (691) 
University of Tokyo Team, {Faculty of Engineering, University of Tokyo

>  <COMMENT>  (691) 
SMILES=COC(=O)c(c1)cc(OC)c(OC)c1
cas=2150-38-1
InChI=InChI=1S/C10H12O4/c1-12-8-5-4-7(10(11)14-3)6-9(8)13-2/h4-6H,1-3H3
computed SMILES=O=C(OC)C1=CC=C(OC)C(OC)=C1
accession=JP011080
date=2016.01.19 (Created 2008.10.21, modified 2011.05.06)
author=YAMAMOTO M, DEP. CHEMISTRY, FAC. SCIENCE, NARA WOMEN'S UNIV.
license=CC BY-NC-SA
exact mass=196.07356
ionization energy=70 eV
ion type=[M]+*
computed spectral entropy=2.8678201647165027
computed normalized entropy=0.7293864053501825
SPLASH=splash10-00kb-2900000000-de6ba98d0e6b9f366bb2
submitter=submitter = University of Tokyo Team (Faculty of Engineering, University of Tokyo)
MoNA Rating=3.75

>  <NUM PEAKS>  (691) 
51

>  <MASS SPECTRAL PEAKS>  (691) 
15 6
18 1.71
29 1.47
31 1.03
39 1.53
50 3.24
51 8.02
52 1.59
53 2.2
59 5.91
62 1.83
63 3.62
64 1.34
65 2.43
66 2.1
75 1.09
76 2.73
77 7.81
78 1.42
79 13.29
80 1.72
91 2.41
93 3.63
94 5.65
95 2.65
104 1.25
105 1.15
107 5.18
108 1.04
109 1.63
110 1.41
119 4.03
120 2.38
121 6.53
122 6.09
123 2.79
125 9.22
135 2.07
136 2.45
137 5.73
138 1.63
149 3.14
151 2.7
153 3.77
165 76.81
166 7.86
181 8.86
182 1.03
196 99.99
197 11.25
198 1.35

>  <PREDICTED SPECTRUM>  (691) 
14 29
15 168
16 18
17 7
18 17
25 0
26 27
27 19
28 17
29 101
30 51
31 40
37 78
38 158
39 223
40 92
41 88
43 55
44 93
45 68
49 69
50 380
51 471
52 214
53 328
54 100
55 173
56 40
57 53
59 368
61 121
62 276
63 442
64 279
65 335
66 260
67 180
68 86
69 196
70 81
71 12
74 175
75 219
76 311
77 567
78 250
79 522
80 183
81 124
82 81
83 78
84 4
86 5
89 48
90 71
91 253
92 336
93 246
94 248
95 273
96 31
97 56
103 49
104 65
105 124
106 159
107 419
108 165
109 214
110 150
111 23
117 25
119 217
120 170
121 273
122 395
123 290
124 119
125 200
126 48
127 17
128 63
133 40
134 71
135 197
136 112
137 278
138 190
139 0
149 157
150 250
151 370
152 87
153 193
165 999
166 358
167 150
179 24
181 280
182 64
196 968
197 334
198 97

$$$$

     RDKit          2D

 17 19  0  0  0  0  0  0  0  0999 V2000
    3.9000   -0.7500    0.0000 C   0  0  0  0  0  0  0  0  0  0  0  0
    3.9000    0.7500    0.0000 C   0  0  0  0  0  0  0  0  0  0  0  0
   -3.9000   -0.7500    0.0000 C   0  0  0  0  0  0  0  0  0  0  0  0
    2.6000   -1.5000    0.0000 C   0  0  0  0  0  0  0  0  0  0  0  0
    2.6000    1.5000    0.0000 C   0  0  0  0  0  0  0  0  0  0  0  0
   -2.6000   -1.5000    0.0000 C   0  0  0  0  0  0  0  0  0  0  0  0
   -3.9000    0.7500    0.0000 C   0  0  0  0  0  0  0  0  0  0  0  0
    1.3000   -0.7500    0.0000 C   0  0  0  0  0  0  0  0  0  0  0  0
    1.3000    0.7500    0.0000 C   0  0  0  0  0  0  0  0  0  0  0  0
   -1.3000   -0.7500    0.0000 C   0  0  0  0  0  0  0  0  0  0  0  0
   -2.6000    1.5000    0.0000 C   0  0  0  0  0  0  0  0  0  0  0  0
   -1.3000    0.7500    0.0000 C   0  0  0  0  0  0  0  0  0  0  0  0
   -0.0000   -1.5000    0.0000 C   0  0  0  0  0  0  0  0  0  0  0  0
   -0.0000    1.5000    0.0000 C   0  0  0  0  0  0  0  0  0  0  0  0
   -2.6000    3.0000    0.0000 Cl  0  0  0  0  0  0  0  0  0  0  0  0
   -0.0000   -3.0000    0.0000 O   0  0  0  0  0  0  0  0  0  0  0  0
    0.0000    3.0000    0.0000 O   0  0  0  0  0  0  0  0  0  0  0  0
  2  1  2  0
  4  1  1  0
  5  2  1  0
  6  3  1  0
  7  3  2  0
  8  4  2  0
  9  5  2  0
  9  8  1  0
 10  6  2  0
 11  7  1  0
 12 10  1  0
 12 11  2  0
 13  8  1  0
 13 10  1  0
 14  9  1  0
 14 12  1  0
 15 11  1  0
 16 13  2  0
 17 14  2  0
M  END
>  <NAME>  (692) 
1-CHLOROANTHRAQUINONE

>  <SYNONYMS>  (692) 


>  <SPECTRUM TYPE>  (692) 
MS1

>  <INSTRUMENT TYPE>  (692) 
EI-B

>  <INSTRUMENT>  (692) 
HITACHI M-80

>  <ION MODE>  (692) 
P

>  <INCHIKEY>  (692) 
BOCJQSFSGAZAPQ-UHFFFAOYSA-N

>  <FORMULA>  (692) 
C14H7ClO2

>  <EXACT MASS>  (692) 
242.013457144

>  <MW>  (692) 
242

>  <ID>  (692) 
JP011079

>  <CONTRIBUTOR>  (692) 
University of Tokyo Team, {Faculty of Engineering, University of Tokyo

>  <COMMENT>  (692) 
SMILES=Clc(c3)c(c(=O)1)c(cc3)c(=O)c(c2)c(ccc2)1
cas=82-44-0
InChI=InChI=1S/C14H7ClO2/c15-11-7-3-6-10-12(11)14(17)9-5-2-1-4-8(9)13(10)16/h1-7H
computed SMILES=O=C1C=2C=CC=CC2C(=O)C=3C(Cl)=CC=CC13
accession=JP011079
date=2016.01.19 (Created 2008.10.21, modified 2011.05.06)
author=YAMAMOTO M, DEP. CHEMISTRY, FAC. SCIENCE, NARA WOMEN'S UNIV.
license=CC BY-NC-SA
exact mass=242.01346
ionization energy=70 eV
ion type=[M]+*
computed spectral entropy=3.2827985466529155
computed normalized entropy=0.7864144686161302
SPLASH=splash10-0006-3690000000-477a06b886a46f13ed97
submitter=submitter = University of Tokyo Team (Faculty of Engineering, University of Tokyo)
MoNA Rating=3.75

>  <NUM PEAKS>  (692) 
65

>  <MASS SPECTRAL PEAKS>  (692) 
27 1.01
37 1.07
38 1.6
39 2.14
49 1.28
50 10.14
51 2.41
53 1.11
61 1.31
62 2.05
63 2.03
73 3.61
74 16.38
75 21.57
76 10.56
77 3.6
84 2.43
85 1.34
86 2.77
87 2.35
93 3.22
94 1.03
98 3.52
99 3.58
100 1.27
101 1.7
104 1.16
107 1.61
108 1.02
109 1.42
110 5.88
111 3.52
112 1.7
122 1.84
123 1.96
124 1.12
125 4.02
149 5.51
150 44.51
151 40.04
152 5.7
160 1.44
179 6.41
180 1.68
185 4.51
186 44.98
187 7.54
188 15.04
189 2.19
207 12.21
208 2.64
213 2.4
214 59.35
215 9.36
216 19.51
217 2.75
220 1.58
222 1.05
241 16.53
242 99.99
243 21.01
244 33.17
245 5.16
248 1.77
250 1.11

>  <PREDICTED SPECTRUM>  (692) 
37 34
38 33
39 22
44 25
47 0
49 30
50 342
51 134
53 23
55 5
56 83
61 122
62 181
63 274
64 47
65 27
68 20
69 147
73 182
74 408
75 466
76 357
77 78
82 12
83 49
84 147
85 89
86 220
87 172
88 96
89 10
92 41
96 45
97 141
98 264
99 201
100 34
101 5
103 28
104 215
105 22
109 83
110 230
111 196
112 105
113 210
114 13
115 29
122 85
123 251
124 190
125 212
136 64
137 78
138 70
139 71
149 186
150 348
151 464
152 215
157 79
158 163
159 119
179 287
184 99
185 173
186 502
187 335
188 218
189 66
196 3
207 654
208 258
209 54
213 71
214 498
215 202
216 298
217 129
241 304
242 999
243 445
244 508
245 198
246 64

$$$$

     RDKit          2D

  7  6  0  0  0  0  0  0  0  0999 V2000
    0.6495    3.3750    0.0000 C   0  0  0  0  0  0  0  0  0  0  0  0
   -1.9486    0.3750    0.0000 C   0  0  0  0  0  0  0  0  0  0  0  0
   -0.6495    2.6250    0.0000 C   0  0  0  0  0  0  0  0  0  0  0  0
   -0.6495    1.1250    0.0000 C   0  0  0  0  0  0  0  0  0  0  0  0
   -1.9486    3.3750    0.0000 N   0  0  0  0  0  0  0  0  0  0  0  0
    0.6495    0.3750    0.0000 O   0  0  0  0  0  0  0  0  0  0  0  0
   -3.2476    2.6250    0.0000 O   0  0  0  0  0  0  0  0  0  0  0  0
  3  1  1  0
  4  2  1  0
  4  3  1  0
  3  5  2  0
  6  4  2  0
  7  5  1  0
M  END
>  <NAME>  (693) 
2,3-BUTANEDIONE MONOXIME

>  <SYNONYMS>  (693) 


>  <SPECTRUM TYPE>  (693) 
MS1

>  <INSTRUMENT TYPE>  (693) 
EI-B

>  <INSTRUMENT>  (693) 
HITACHI M-80

>  <ION MODE>  (693) 
P

>  <INCHIKEY>  (693) 
FSEUPUDHEBLWJY-HYXAFXHYSA-N

>  <FORMULA>  (693) 
C4H7NO2

>  <EXACT MASS>  (693) 
101.047678464

>  <MW>  (693) 
101

>  <ID>  (693) 
JP011078

>  <CONTRIBUTOR>  (693) 
University of Tokyo Team, {Faculty of Engineering, University of Tokyo

>  <COMMENT>  (693) 
SMILES=ON=C(C)C(C)=O
cas=57-71-6
InChI=InChI=1S/C4H7NO2/c1-3(5-7)4(2)6/h7H,1-2H3/b5-3-
computed SMILES=O=C(C(=NO)C)C
accession=JP011078
date=2016.01.19 (Created 2008.10.21, modified 2011.05.06)
author=YAMAMOTO M, DEP. CHEMISTRY, FAC. SCIENCE, NARA WOMEN'S UNIV.
license=CC BY-NC-SA
exact mass=101.04768
ionization energy=70 eV
ion type=[M]+*
computed spectral entropy=1.7432947159356753
computed normalized entropy=0.6153065456905759
SPLASH=splash10-0006-9000000000-f725656a4f18fa50ddf9
submitter=submitter = University of Tokyo Team (Faculty of Engineering, University of Tokyo)
MoNA Rating=3.75

>  <NUM PEAKS>  (693) 
17

>  <MASS SPECTRAL PEAKS>  (693) 
14 2.11
15 13.34
26 1.65
27 2.89
28 3.71
29 1.27
30 1.62
31 2.78
38 1.04
39 1.91
40 4.28
41 4.59
42 15.14
43 99.99
44 2.44
58 5.66
101 13.92

>  <PREDICTED SPECTRUM>  (693) 
14 65
15 174
16 36
17 10
18 10
25 4
26 59
27 102
28 128
29 66
30 45
31 85
37 26
38 89
39 172
40 140
41 395
42 676
43 999
44 243
45 5
50 3
51 35
52 55
53 110
54 110
55 23
56 92
57 39
58 447
59 119
60 74
66 2
69 47
70 84
84 103
85 50
86 121
101 315
102 78

$$$$

     RDKit          2D

  9  9  0  0  0  0  0  0  0  0999 V2000
   -1.3000    0.7500    0.0000 C   0  0  0  0  0  0  0  0  0  0  0  0
    0.0000    1.5000    0.0000 C   0  0  0  0  0  0  0  0  0  0  0  0
   -0.0000   -1.5000    0.0000 C   0  0  0  0  0  0  0  0  0  0  0  0
   -1.3000   -0.7500    0.0000 C   0  0  0  0  0  0  0  0  0  0  0  0
    1.3000   -0.7500    0.0000 C   0  0  0  0  0  0  0  0  0  0  0  0
    1.3000    0.7500    0.0000 C   0  0  0  0  0  0  0  0  0  0  0  0
    2.5989   -1.5002    0.0000 Cl  0  0  0  0  0  0  0  0  0  0  0  0
   -2.5989   -1.5002    0.0000 O   0  0  0  0  0  0  0  0  0  0  0  0
    2.5989    1.5002    0.0000 O   0  0  0  0  0  0  0  0  0  0  0  0
  2  1  2  0
  4  1  1  0
  4  3  2  0
  5  3  1  0
  6  2  1  0
  6  5  2  0
  7  5  1  0
  8  4  1  0
  9  6  1  0
M  END
>  <NAME>  (694) 
CHLOROHYDROQUINONE

>  <SYNONYMS>  (694) 


>  <SPECTRUM TYPE>  (694) 
MS1

>  <INSTRUMENT TYPE>  (694) 
EI-B

>  <INSTRUMENT>  (694) 
HITACHI M-80

>  <ION MODE>  (694) 
P

>  <INCHIKEY>  (694) 
AJPXTSMULZANCB-UHFFFAOYSA-N

>  <FORMULA>  (694) 
C6H5ClO2

>  <EXACT MASS>  (694) 
143.99780708

>  <MW>  (694) 
144

>  <ID>  (694) 
JP011077

>  <CONTRIBUTOR>  (694) 
University of Tokyo Team, {Faculty of Engineering, University of Tokyo

>  <COMMENT>  (694) 
SMILES=Oc(c1)cc(Cl)c(O)c1
cas=615-67-8
InChI=InChI=1S/C6H5ClO2/c7-5-3-4(8)1-2-6(5)9/h1-3,8-9H
computed SMILES=ClC1=CC(O)=CC=C1O
accession=JP011077
date=2016.01.19 (Created 2008.10.21, modified 2011.05.06)
author=YAMAMOTO M, DEP. CHEMISTRY, FAC. SCIENCE, NARA WOMEN'S UNIV.
license=CC BY-NC-SA
exact mass=143.99781
ionization energy=70 eV
ion type=[M]+*
computed spectral entropy=2.7195015023409805
computed normalized entropy=0.7323141852352586
SPLASH=splash10-0f6x-9800000000-69fa8db44eeaa8c39603
submitter=submitter = University of Tokyo Team (Faculty of Engineering, University of Tokyo)
MoNA Rating=3.75

>  <NUM PEAKS>  (694) 
41

>  <MASS SPECTRAL PEAKS>  (694) 
25 1.01
26 3.77
27 4.04
28 1
29 3.54
37 1.56
38 1.43
39 1.97
49 1.36
50 4.82
51 13.79
52 40.8
53 14.81
54 4.05
55 4.34
60 1.89
61 2.99
62 3.14
63 3.82
69 1.88
72 2.19
73 1.56
79 4.94
80 25.75
81 10.63
82 1.47
86 1.25
87 1.78
89 1.47
107 1.45
108 3.1
109 1.26
110 5.97
114 1.16
115 3.46
117 1.11
143 2.59
144 99.99
145 7.67
146 32.98
147 2.18

>  <PREDICTED SPECTRUM>  (694) 
17 16
18 2
25 3
26 15
27 41
28 54
29 61
35 28
36 64
37 57
38 38
40 16
41 55
42 85
43 69
44 118
45 11
47 2
49 56
50 141
51 313
52 362
53 356
54 212
55 170
56 32
60 3
61 64
62 84
63 166
64 6
65 20
69 3
70 27
73 18
75 8
79 240
80 524
81 343
82 167
87 69
88 85
89 23
91 37
98 103
107 27
108 252
109 187
110 76
115 197
117 89
126 37
143 223
144 999
145 276
146 556
147 114

$$$$

     RDKit          2D

 12 12  0  0  0  0  0  0  0  0999 V2000
   -1.3000   -0.7500    0.0000 C   0  0  0  0  0  0  0  0  0  0  0  0
   -1.3000    0.7500    0.0000 C   0  0  0  0  0  0  0  0  0  0  0  0
   -0.0000   -1.5000    0.0000 C   0  0  0  0  0  0  0  0  0  0  0  0
    0.0000    1.5000    0.0000 C   0  0  0  0  0  0  0  0  0  0  0  0
    1.3000   -0.7500    0.0000 C   0  0  0  0  0  0  0  0  0  0  0  0
    1.3000    0.7500    0.0000 C   0  0  0  0  0  0  0  0  0  0  0  0
   -2.5989   -1.5002    0.0000 Cl  0  0  0  0  0  0  0  0  0  0  0  0
   -2.5989    1.5002    0.0000 Cl  0  0  0  0  0  0  0  0  0  0  0  0
   -0.0000   -3.0000    0.0000 Cl  0  0  0  0  0  0  0  0  0  0  0  0
    0.0000    3.0000    0.0000 Cl  0  0  0  0  0  0  0  0  0  0  0  0
    2.5989   -1.5002    0.0000 O   0  0  0  0  0  0  0  0  0  0  0  0
    2.5989    1.5002    0.0000 O   0  0  0  0  0  0  0  0  0  0  0  0
  2  1  1  0
  3  1  2  0
  4  2  2  0
  5  3  1  0
  6  4  1  0
  6  5  1  0
  7  1  1  0
  8  2  1  0
  9  3  1  0
 10  4  1  0
 11  5  2  0
 12  6  2  0
M  END
>  <NAME>  (695) 
TETRACHLORO-1,2-BENZOQUINONE

>  <SYNONYMS>  (695) 
ORTHO-CHLORANIL

>  <SPECTRUM TYPE>  (695) 
MS1

>  <INSTRUMENT TYPE>  (695) 
EI-B

>  <INSTRUMENT>  (695) 
HITACHI M-80

>  <ION MODE>  (695) 
P

>  <INCHIKEY>  (695) 
VRGCYEIGVVTZCC-UHFFFAOYSA-N

>  <FORMULA>  (695) 
C6Cl4O2

>  <EXACT MASS>  (695) 
243.86523996

>  <MW>  (695) 
244

>  <ID>  (695) 
JP011076

>  <CONTRIBUTOR>  (695) 
University of Tokyo Team, {Faculty of Engineering, University of Tokyo

>  <COMMENT>  (695) 
SMILES=O=c(c(=O)1)c(Cl)c(Cl)c(Cl)c(Cl)1
cas=2435-53-2
InChI=InChI=1S/C6Cl4O2/c7-1-2(8)4(10)6(12)5(11)3(1)9
computed SMILES=O=C1C(=O)C(Cl)=C(Cl)C(Cl)=C1Cl
accession=JP011076
date=2016.01.19 (Created 2008.10.21, modified 2011.05.06)
author=YAMAMOTO M, DEP. CHEMISTRY, FAC. SCIENCE, NARA WOMEN'S UNIV.
license=CC BY-NC-SA
exact mass=243.86524
ionization energy=70 eV
ion type=[M]+*
computed spectral entropy=3.5417784032883346
computed normalized entropy=0.8203330988182808
SPLASH=splash10-000m-5490000000-5561c32427fd0bdfbbea
submitter=submitter = University of Tokyo Team (Faculty of Engineering, University of Tokyo)
MoNA Rating=3.75

>  <NUM PEAKS>  (695) 
75

>  <MASS SPECTRAL PEAKS>  (695) 
24 1.75
35 6.48
36 3.27
37 1.99
47 12.53
48 3.14
49 4.05
52 4.5
59 8.02
60 2.17
61 2.9
63 4.34
65 1.43
71 4.68
73 1.45
83 8.59
85 2.71
87 99.99
88 3.33
89 32.04
90 1.04
95 3.62
96 16.19
97 1.22
98 2.56
106 1.79
108 1.12
111 3.88
113 1.26
118 19.93
120 13.36
122 9.62
124 4.77
130 1.39
153 12.69
155 12.29
157 4.75
159 1.13
165 1.72
167 1.6
181 19.52
182 1.13
183 18.8
184 1.08
185 6.15
188 23.7
189 1.07
190 30.73
191 1.4
192 15.02
194 3.13
209 42.53
210 2.87
211 40.74
212 3.01
213 13.29
214 1.24
215 1.54
216 24.98
217 1.4
218 31.3
219 1.7
220 15.16
222 3.27
235 1.72
237 2.76
238 1.11
239 1.82
244 60.34
245 4.23
246 78.9
247 5.41
248 38.46
249 2.71
250 8.46

>  <PREDICTED SPECTRUM>  (695) 
25 33
32 39
33 88
34 53
35 377
36 247
37 215
38 93
39 21
40 50
43 152
44 116
45 51
46 11
47 522
48 219
49 379
50 199
51 237
52 98
53 171
54 31
55 103
57 25
59 237
60 198
61 147
62 197
63 153
64 210
65 100
66 28
67 6
68 106
69 149
70 44
71 396
72 103
73 323
74 37
75 120
76 161
77 182
78 91
79 158
80 108
82 182
83 350
84 309
85 336
86 317
87 674
89 191
91 13
92 48
94 432
95 149
96 459
97 99
98 38
99 78
101 103
103 39
104 20
105 19
106 337
107 147
108 294
109 130
110 108
111 465
112 26
113 221
115 146
117 214
118 415
119 142
120 465
121 198
122 513
123 83
124 181
125 139
126 44
127 101
130 62
134 61
139 160
141 37
146 217
147 50
148 363
149 211
150 159
152 87
153 390
154 112
155 393
156 176
157 306
159 18
162 64
181 908
182 154
183 999
184 205
185 535
186 187
187 189
188 215
190 231
192 70
209 661
210 229
211 711
212 292
213 431
215 163
216 284
217 69
218 429
220 243
244 816
245 158
246 918
247 184
248 653
249 186

$$$$

     RDKit          2D

  9  9  0  0  0  0  0  0  0  0999 V2000
   -0.6468   -0.3740    0.0000 C   0  0  0  0  0  0  0  0  0  0  0  0
    0.6482    1.8690    0.0000 C   0  0  0  0  0  0  0  0  0  0  0  0
    0.6522   -1.1240    0.0000 C   0  0  0  0  0  0  0  0  0  0  0  0
    1.9472    1.1190    0.0000 C   0  0  0  0  0  0  0  0  0  0  0  0
   -1.9591    1.8530    0.0000 C   0  0  0  0  0  0  0  0  0  0  0  0
   -0.6564    1.1095    0.0000 C   0  0  0  0  0  0  0  0  0  0  0  0
    1.9504   -0.3955    0.0000 C   0  0  0  0  0  0  0  0  0  0  0  0
    3.2456   -1.1521    0.0000 Cl  0  0  0  0  0  0  0  0  0  0  0  0
   -3.2619    2.5964    0.0000 N   0  0  0  0  0  0  0  0  0  0  0  0
  3  1  2  0
  4  2  1  0
  6  1  1  0
  6  2  2  0
  6  5  1  0
  7  3  1  0
  7  4  2  0
  8  7  1  0
  9  5  3  0
M  END
>  <NAME>  (696) 
4-CHLOROBENZONITRILE

>  <SYNONYMS>  (696) 


>  <SPECTRUM TYPE>  (696) 
MS1

>  <INSTRUMENT TYPE>  (696) 
EI-B

>  <INSTRUMENT>  (696) 
HITACHI M-80

>  <ION MODE>  (696) 
P

>  <INCHIKEY>  (696) 
GJNGXPDXRVXSEH-UHFFFAOYSA-N

>  <FORMULA>  (696) 
C7H4ClN

>  <EXACT MASS>  (696) 
137.003226808

>  <MW>  (696) 
137

>  <ID>  (696) 
JP011075

>  <CONTRIBUTOR>  (696) 
University of Tokyo Team, {Faculty of Engineering, University of Tokyo

>  <COMMENT>  (696) 
SMILES=N#Cc(c1)ccc(Cl)c1
cas=623-03-0
InChI=InChI=1S/C7H4ClN/c8-7-3-1-6(5-9)2-4-7/h1-4H
computed SMILES=N#CC1=CC=C(Cl)C=C1
accession=JP011075
date=2016.01.19 (Created 2008.10.21, modified 2011.05.06)
author=YAMAMOTO M, DEP. CHEMISTRY, FAC. SCIENCE, NARA WOMEN'S UNIV.
license=CC BY-NC-SA
exact mass=137.00323
ionization energy=70 eV
ion type=[M]+*
computed spectral entropy=2.6920983548378272
computed normalized entropy=0.7348309145232708
SPLASH=splash10-000i-5900000000-11bee0359d06b983c5e2
submitter=submitter = University of Tokyo Team (Faculty of Engineering, University of Tokyo)
MoNA Rating=3.75

>  <NUM PEAKS>  (696) 
39

>  <MASS SPECTRAL PEAKS>  (696) 
18 3.01
26 1.69
27 1.89
28 3.12
35 1.03
36 1.21
37 5.03
38 3.94
39 1.93
49 3.73
50 16.93
51 12.5
52 2.63
60 1.83
61 2.25
62 2.74
63 2.49
64 1.73
68 1.55
72 1.21
73 4.63
74 7.72
75 19.45
76 10.81
77 1.02
84 1.24
85 1.33
86 1.53
99 2.77
100 3.3
101 3.61
102 34.08
103 2.97
110 2.39
111 1.09
137 99.99
138 8.03
139 32.08
140 2.67

>  <PREDICTED SPECTRUM>  (696) 
25 32
26 50
31 40
35 101
36 83
37 202
38 196
39 87
40 4
47 98
48 55
49 277
50 528
51 383
52 170
55 14
56 134
57 60
60 189
61 319
62 350
63 301
64 131
68 51
69 189
70 12
72 106
73 271
74 406
75 740
76 406
82 54
83 55
84 165
85 203
86 194
87 130
88 55
96 29
98 148
99 199
100 145
101 325
102 834
103 266
110 144
111 262
112 54
113 67
137 999
138 352
139 613
140 173

$$$$

     RDKit          2D

 16 17  0  0  0  0  0  0  0  0999 V2000
   -2.5989   -1.5002    0.0000 C   0  0  0  0  0  0  0  0  0  0  0  0
    7.7963   -1.5010    0.0000 C   0  0  0  0  0  0  0  0  0  0  0  0
   -1.3000    0.7500    0.0000 C   0  0  0  0  0  0  0  0  0  0  0  0
    0.0000   -1.5000    0.0000 C   0  0  0  0  0  0  0  0  0  0  0  0
    5.1981   -1.5012    0.0000 C   0  0  0  0  0  0  0  0  0  0  0  0
    6.4966    0.7496    0.0000 C   0  0  0  0  0  0  0  0  0  0  0  0
    0.0000    1.5000    0.0000 C   0  0  0  0  0  0  0  0  0  0  0  0
    1.3000   -0.7500    0.0000 C   0  0  0  0  0  0  0  0  0  0  0  0
    3.8986   -0.7504    0.0000 C   0  0  0  0  0  0  0  0  0  0  0  0
    5.1971    1.5004    0.0000 C   0  0  0  0  0  0  0  0  0  0  0  0
   -1.3000   -0.7500    0.0000 C   0  0  0  0  0  0  0  0  0  0  0  0
    6.4971   -0.7512    0.0000 C   0  0  0  0  0  0  0  0  0  0  0  0
    1.3000    0.7500    0.0000 C   0  0  0  0  0  0  0  0  0  0  0  0
    3.8981    0.7504    0.0000 C   0  0  0  0  0  0  0  0  0  0  0  0
    2.5989    1.5002    0.0000 C   0  0  0  0  0  0  0  0  0  0  0  0
    2.5987    3.0002    0.0000 O   0  0  0  0  0  0  0  0  0  0  0  0
  7  3  2  0
  8  4  1  0
  9  5  2  0
 10  6  1  0
 11  1  1  0
 11  3  1  0
 11  4  2  0
 12  2  1  0
 12  5  1  0
 12  6  2  0
 13  7  1  0
 13  8  2  0
 14  9  1  0
 14 10  2  0
 15 13  1  0
 15 14  1  0
 16 15  2  0
M  END
>  <NAME>  (697) 
4,4'-DIMETHYLBENZOPHENONE

>  <SYNONYMS>  (697) 


>  <SPECTRUM TYPE>  (697) 
MS1

>  <INSTRUMENT TYPE>  (697) 
EI-B

>  <INSTRUMENT>  (697) 
HITACHI M-80

>  <ION MODE>  (697) 
P

>  <INCHIKEY>  (697) 
ZWPWLKXZYNXATK-UHFFFAOYSA-N

>  <FORMULA>  (697) 
C15H14O

>  <EXACT MASS>  (697) 
210.104465068

>  <MW>  (697) 
210

>  <ID>  (697) 
JP011074

>  <CONTRIBUTOR>  (697) 
University of Tokyo Team, {Faculty of Engineering, University of Tokyo

>  <COMMENT>  (697) 
SMILES=Cc(c2)ccc(c2)C(=O)c(c1)ccc(C)c1
InChI=InChI=1S/C15H14O/c1-11-3-7-13(8-4-11)15(16)14-9-5-12(2)6-10-14/h3-10H,1-2H3
computed SMILES=O=C(C1=CC=C(C=C1)C)C2=CC=C(C=C2)C
accession=JP011074
date=2016.01.19 (Created 2008.10.21, modified 2011.05.06)
author=YAMAMOTO M, DEP. CHEMISTRY, FAC. SCIENCE, NARA WOMEN'S UNIV.
license=CC BY-NC-SA
exact mass=210.10447
ionization energy=70 eV
ion type=[M]+*
computed spectral entropy=2.2689503855589384
computed normalized entropy=0.6964036697748636
SPLASH=splash10-014i-4930000000-73b3a1d43392ea031cda
submitter=submitter = University of Tokyo Team (Faculty of Engineering, University of Tokyo)
MoNA Rating=3.75

>  <NUM PEAKS>  (697) 
26

>  <MASS SPECTRAL PEAKS>  (697) 
18 1.09
28 1.65
39 4.71
41 1.48
51 2.18
62 1.05
63 4.22
64 1.3
65 14.79
89 5.11
90 4.49
91 36.07
92 2.96
119 99.99
120 8.83
152 1.04
165 4.02
166 1.42
167 1.02
181 1.75
182 1.4
195 28.28
196 4.46
209 3.66
210 44.5
211 7.45

>  <PREDICTED SPECTRUM>  (697) 
15 6
37 20
38 58
39 221
40 79
41 125
43 2
44 38
45 11
50 118
51 193
52 90
53 122
62 114
63 243
64 100
65 444
66 82
67 4
69 24
74 64
75 124
76 86
77 167
78 66
79 50
81 27
82 55
83 11
86 6
87 39
88 9
89 262
90 188
91 728
92 236
93 113
96 12
107 5
113 63
115 128
117 36
118 132
119 999
120 342
121 128
122 0
126 17
129 1
135 11
138 4
139 65
151 12
152 116
153 44
165 59
166 77
167 143
168 31
179 6
180 76
181 25
182 82
195 404
196 156
209 113
210 695
211 260
212 96

$$$$

     RDKit          2D

  9  8  0  0  0  0  0  0  0  0999 V2000
   -0.3248    5.4375    0.0000 C   0  0  0  0  0  0  0  0  0  0  0  0
   -1.6238    3.1875    0.0000 C   0  0  0  0  0  0  0  0  0  0  0  0
   -0.3248    3.9375    0.0000 C   0  0  0  0  0  0  0  0  0  0  0  0
   -1.6238    1.6875    0.0000 C   0  0  0  0  0  0  0  0  0  0  0  0
    0.9743    3.1875    0.0000 C   0  0  0  0  0  0  0  0  0  0  0  0
   -2.9228    0.9375    0.0000 O   0  0  0  0  0  0  0  0  0  0  0  0
   -0.3248    0.9375    0.0000 O   0  0  0  0  0  0  0  0  0  0  0  0
    0.9743    1.6875    0.0000 O   0  0  0  0  0  0  0  0  0  0  0  0
    2.2733    3.9375    0.0000 O   0  0  0  0  0  0  0  0  0  0  0  0
  3  1  1  0
  2  3  2  0
  4  2  1  0
  5  3  1  0
  6  4  2  0
  7  4  1  0
  8  5  2  0
  9  5  1  0
M  END
>  <NAME>  (698) 
CITRACONIC ACID

>  <SYNONYMS>  (698) 


>  <SPECTRUM TYPE>  (698) 
MS1

>  <INSTRUMENT TYPE>  (698) 
EI-B

>  <INSTRUMENT>  (698) 
HITACHI M-80

>  <ION MODE>  (698) 
P

>  <INCHIKEY>  (698) 
HNEGQIOMVPPMNR-IHWYPQMZSA-N

>  <FORMULA>  (698) 
C5H6O4

>  <EXACT MASS>  (698) 
130.026608672

>  <MW>  (698) 
130

>  <ID>  (698) 
JP011072

>  <CONTRIBUTOR>  (698) 
University of Tokyo Team, {Faculty of Engineering, University of Tokyo

>  <COMMENT>  (698) 
SMILES=OC(=O)C=C(C)C(O)=O
cas=498-23-7
InChI=InChI=1S/C5H6O4/c1-3(5(8)9)2-4(6)7/h2H,1H3,(H,6,7)(H,8,9)/b3-2-
computed SMILES=O=C(O)C=C(C(=O)O)C
accession=JP011072
date=2016.01.19 (Created 2008.10.21, modified 2011.05.06)
author=YAMAMOTO M, DEP. CHEMISTRY, FAC. SCIENCE, NARA WOMEN'S UNIV.
license=CC BY-NC-SA
exact mass=130.02661
ionization energy=70 eV
ion type=[M]+*
computed spectral entropy=2.791258700267129
computed normalized entropy=0.773005304411124
SPLASH=splash10-000i-9300000000-e6df22429c37d2a7f548
submitter=submitter = University of Tokyo Team (Faculty of Engineering, University of Tokyo)
MoNA Rating=3.75

>  <NUM PEAKS>  (698) 
37

>  <MASS SPECTRAL PEAKS>  (698) 
15 1.49
18 1.11
26 1.8
27 4.1
28 1.23
29 6.38
31 1.86
37 9.13
38 17.95
39 89.81
40 31.44
41 33.79
42 6.82
43 12.37
44 2.08
45 25.71
46 1.38
53 7.32
55 3.45
56 2.08
57 2.79
58 2.13
66 2.35
67 7.46
68 55.32
69 13.96
71 9.21
83 1.37
84 14.16
85 16.97
86 99.99
87 5.49
96 1.11
112 2.8
113 91.47
131 73.58
132 4.1

>  <PREDICTED SPECTRUM>  (698) 
14 17
15 4
16 20
17 44
18 83
25 38
26 102
27 194
28 135
29 232
30 23
31 24
34 16
35 33
36 170
37 257
38 355
39 861
40 400
41 614
42 504
43 585
44 571
45 672
46 204
47 158
48 5
49 184
50 225
51 227
52 123
53 479
54 119
55 370
56 316
57 320
58 244
60 85
63 14
65 10
66 189
67 564
68 566
69 509
70 184
71 168
72 33
73 249
74 76
83 261
84 674
85 999
86 411
87 80
95 143
96 55
97 33
111 71
112 481
113 288
130 289
131 84

$$$$

     RDKit          2D

 13 15  0  0  0  0  0  0  0  0999 V2000
   -3.2200   -1.2700    0.0000 C   0  0  0  0  0  0  0  0  0  0  0  0
    3.2200   -1.2700    0.0000 C   0  0  0  0  0  0  0  0  0  0  0  0
   -3.6800    0.1600    0.0000 C   0  0  0  0  0  0  0  0  0  0  0  0
    3.6800    0.1600    0.0000 C   0  0  0  0  0  0  0  0  0  0  0  0
   -1.7500   -1.5800    0.0000 C   0  0  0  0  0  0  0  0  0  0  0  0
    1.7500   -1.5800    0.0000 C   0  0  0  0  0  0  0  0  0  0  0  0
   -2.6800    1.2700    0.0000 C   0  0  0  0  0  0  0  0  0  0  0  0
    2.6800    1.2700    0.0000 C   0  0  0  0  0  0  0  0  0  0  0  0
   -0.7500   -0.4700    0.0000 C   0  0  0  0  0  0  0  0  0  0  0  0
    0.7500   -0.4700    0.0000 C   0  0  0  0  0  0  0  0  0  0  0  0
   -1.2100    0.9600    0.0000 C   0  0  0  0  0  0  0  0  0  0  0  0
    1.2100    0.9600    0.0000 C   0  0  0  0  0  0  0  0  0  0  0  0
   -0.0000    1.8400    0.0000 N   0  0  0  0  0  0  0  0  0  0  0  0
  3  1  2  0
  4  2  2  0
  5  1  1  0
  6  2  1  0
  7  3  1  0
  8  4  1  0
  9  5  2  0
 10  6  2  0
 10  9  1  0
 11  7  2  0
 11  9  1  0
 12  8  2  0
 12 10  1  0
 13 11  1  0
 13 12  1  0
M  END
>  <NAME>  (699) 
CARBAZOLE

>  <SYNONYMS>  (699) 


>  <SPECTRUM TYPE>  (699) 
MS1

>  <INSTRUMENT TYPE>  (699) 
EI-B

>  <INSTRUMENT>  (699) 
HITACHI M-80

>  <ION MODE>  (699) 
P

>  <INCHIKEY>  (699) 
UJOBWOGCFQCDNV-UHFFFAOYSA-N

>  <FORMULA>  (699) 
C12H9N

>  <EXACT MASS>  (699) 
167.073499288

>  <MW>  (699) 
167

>  <ID>  (699) 
JP011071

>  <CONTRIBUTOR>  (699) 
University of Tokyo Team, {Faculty of Engineering, University of Tokyo

>  <COMMENT>  (699) 
SMILES=C1=CC=C2C(=C1)C3=CC=CC=C3N2
cas=86-74-8
InChI=InChI=1S/C12H9N/c1-3-7-11-9(5-1)10-6-2-4-8-12(10)13-11/h1-8,13H
computed SMILES=C=1C=CC2=C(C1)NC=3C=CC=CC32
accession=JP011071
date=2016.01.19 (Created 2008.10.21, modified 2011.05.06)
author=YAMAMOTO M, DEP. CHEMISTRY, FAC. SCIENCE, NARA WOMEN'S UNIV.
license=CC BY-NC-SA
exact mass=167.0735
ionization energy=70 eV
ion type=[M]+*
computed spectral entropy=2.1592440473040053
computed normalized entropy=0.6287862821631388
SPLASH=splash10-014i-2900000000-b78b8a115b67c322c356
submitter=submitter = University of Tokyo Team (Faculty of Engineering, University of Tokyo)
MoNA Rating=3.75

>  <NUM PEAKS>  (699) 
31

>  <MASS SPECTRAL PEAKS>  (699) 
17 1.13
18 3.6
39 1.97
50 1.47
51 1.6
62 1.82
63 3.16
69 1.77
70 1.44
74 1.91
75 1.74
76 1.12
77 1.14
83 1.32
84 7.39
86 1.22
87 1.63
88 1.51
89 1.75
113 2.36
114 1.54
115 1.78
138 1.42
139 11.22
140 7.89
141 1.24
164 1.91
165 1.52
166 15.32
167 99.99
168 13.5

>  <PREDICTED SPECTRUM>  (699) 
17 5
18 2
26 8
27 14
28 6
29 34
36 18
37 42
38 88
39 141
40 81
41 46
44 58
45 7
49 30
50 162
51 185
52 134
53 22
54 20
55 40
57 81
58 4
61 62
62 123
63 196
64 119
65 92
69 52
71 14
74 147
75 185
76 155
77 109
78 78
81 19
82 26
83 48
84 53
85 45
86 70
87 111
88 57
89 78
90 57
91 20
95 8
96 26
99 49
100 16
101 31
102 12
109 15
110 76
111 60
112 29
113 118
114 127
115 81
116 52
122 22
126 2
127 130
128 105
129 8
137 73
138 115
139 298
140 275
141 173
142 50
163 67
164 187
165 389
166 470
167 999
168 387
169 92

$$$$

     RDKit          2D

 12 12  0  0  0  0  0  0  0  0999 V2000
   -3.8981   -0.7504    0.0000 C   0  0  0  0  0  0  0  0  0  0  0  0
    3.8981    0.7504    0.0000 C   0  0  0  0  0  0  0  0  0  0  0  0
   -1.3000    0.7500    0.0000 C   0  0  0  0  0  0  0  0  0  0  0  0
    0.0000   -1.5000    0.0000 C   0  0  0  0  0  0  0  0  0  0  0  0
    0.0000    1.5000    0.0000 C   0  0  0  0  0  0  0  0  0  0  0  0
    1.3000   -0.7500    0.0000 C   0  0  0  0  0  0  0  0  0  0  0  0
   -2.5989   -1.5002    0.0000 C   0  0  0  0  0  0  0  0  0  0  0  0
    2.5989    1.5002    0.0000 C   0  0  0  0  0  0  0  0  0  0  0  0
   -1.3000   -0.7500    0.0000 C   0  0  0  0  0  0  0  0  0  0  0  0
    1.3000    0.7500    0.0000 C   0  0  0  0  0  0  0  0  0  0  0  0
   -2.5987   -3.0002    0.0000 O   0  0  0  0  0  0  0  0  0  0  0  0
    2.5987    3.0002    0.0000 O   0  0  0  0  0  0  0  0  0  0  0  0
  5  3  2  0
  6  4  1  0
  7  1  1  0
  8  2  1  0
  9  3  1  0
  9  4  2  0
  9  7  1  0
 10  5  1  0
 10  6  2  0
 10  8  1  0
 11  7  2  0
 12  8  2  0
M  END
>  <NAME>  (700) 
1,4-DIACETYLBENZENE

>  <SYNONYMS>  (700) 


>  <SPECTRUM TYPE>  (700) 
MS1

>  <INSTRUMENT TYPE>  (700) 
EI-B

>  <INSTRUMENT>  (700) 
HITACHI M-80

>  <ION MODE>  (700) 
P

>  <INCHIKEY>  (700) 
SKBBQSLSGRSQAJ-UHFFFAOYSA-N

>  <FORMULA>  (700) 
C10H10O2

>  <EXACT MASS>  (700) 
162.06807956

>  <MW>  (700) 
162

>  <ID>  (700) 
JP011068

>  <CONTRIBUTOR>  (700) 
University of Tokyo Team, {Faculty of Engineering, University of Tokyo

>  <COMMENT>  (700) 
SMILES=CC(=O)c(c1)ccc(C(C)=O)c1
cas=1009-61-6
InChI=InChI=1S/C10H10O2/c1-7(11)9-3-5-10(6-4-9)8(2)12/h3-6H,1-2H3
computed SMILES=O=C(C1=CC=C(C=C1)C(=O)C)C
accession=JP011068
license=CC BY-NC-SA
date=2016.01.19 (Created 2008.10.21, modified 2011.05.06)
author=YAMAMOTO M, DEP. CHEMISTRY, FAC. SCIENCE, NARA WOMEN'S UNIV.
exact mass=162.06808
ionization energy=70 eV
ion type=[M]+*
computed spectral entropy=2.357148497797019
computed normalized entropy=0.7234741114296219
SPLASH=splash10-0002-4900000000-6894aa06f3fff0b35d51
submitter=submitter = University of Tokyo Team (Faculty of Engineering, University of Tokyo)
MoNA Rating=3.75

>  <NUM PEAKS>  (700) 
26

>  <MASS SPECTRAL PEAKS>  (700) 
15 2.33
39 1.38
42 1.31
43 26.09
50 5.43
51 3.32
62 1.64
63 2.64
65 2.02
74 3.14
75 3.3
76 9.08
77 6.85
89 2.95
90 2.51
91 19.2
92 1.43
104 6.7
105 1.94
119 14.72
120 1.83
147 99.99
148 9.93
149 1.43
162 32.31
163 4.69

>  <PREDICTED SPECTRUM>  (700) 
14 42
15 111
26 31
27 113
28 78
29 95
34 14
37 71
38 127
39 214
40 106
41 69
42 101
43 911
44 157
45 38
49 79
50 291
51 277
52 123
53 151
54 2
60 16
61 108
62 175
63 282
64 217
65 254
66 120
72 19
73 43
74 171
75 277
76 316
77 282
78 150
79 136
86 4
87 17
88 22
89 252
90 203
91 339
92 181
93 0
102 17
103 94
104 181
105 211
106 113
117 95
118 91
119 271
120 233
121 127
133 61
147 999
148 331
149 140
162 445
163 171
164 28

$$$$

     RDKit          2D

  9  9  0  0  0  0  0  0  0  0999 V2000
   -3.2575    1.8770    0.0000 C   0  0  0  0  0  0  0  0  0  0  0  0
   -1.9548    2.6206    0.0000 C   0  0  0  0  0  0  0  0  0  0  0  0
    0.6396    2.6142    0.0000 C   0  0  0  0  0  0  0  0  0  0  0  0
   -0.6740    0.3893    0.0000 C   0  0  0  0  0  0  0  0  0  0  0  0
    1.9241    1.8893    0.0000 C   0  0  0  0  0  0  0  0  0  0  0  0
    0.6506   -0.4048    0.0000 C   0  0  0  0  0  0  0  0  0  0  0  0
   -0.6594    1.8642    0.0000 C   0  0  0  0  0  0  0  0  0  0  0  0
    1.9496    0.3452    0.0000 C   0  0  0  0  0  0  0  0  0  0  0  0
    3.2548   -0.3941    0.0000 O   0  0  0  0  0  0  0  0  0  0  0  0
  2  1  1  0
  5  3  2  0
  6  4  1  0
  7  2  1  0
  7  3  1  0
  7  4  2  0
  8  5  1  0
  8  6  2  0
  9  8  1  0
M  END
>  <NAME>  (701) 
4-ETHYLPHENOL

>  <SYNONYMS>  (701) 


>  <SPECTRUM TYPE>  (701) 
MS1

>  <INSTRUMENT TYPE>  (701) 
EI-B

>  <INSTRUMENT>  (701) 
HITACHI M-80

>  <ION MODE>  (701) 
P

>  <INCHIKEY>  (701) 
HXDOZKJGKXYMEW-UHFFFAOYSA-N

>  <FORMULA>  (701) 
C8H10O

>  <EXACT MASS>  (701) 
122.07316494

>  <MW>  (701) 
122

>  <ID>  (701) 
JP011067

>  <CONTRIBUTOR>  (701) 
University of Tokyo Team, {Faculty of Engineering, University of Tokyo

>  <COMMENT>  (701) 
SMILES=CCc(c1)ccc(O)c1
cas=123-07-9
InChI=InChI=1S/C8H10O/c1-2-7-3-5-8(9)6-4-7/h3-6,9H,2H2,1H3
computed SMILES=OC1=CC=C(C=C1)CC
accession=JP011067
date=2016.01.19 (Created 2008.10.21, modified 2011.05.06)
author=YAMAMOTO M, DEP. CHEMISTRY, FAC. SCIENCE, NARA WOMEN'S UNIV.
license=CC BY-NC-SA
exact mass=122.07316
ionization energy=70 eV
ion type=[M]+*
computed spectral entropy=1.987252962245614
computed normalized entropy=0.6337925779450772
SPLASH=splash10-0a4i-3900000000-8b361994c5f7ad64360e
submitter=submitter = University of Tokyo Team (Faculty of Engineering, University of Tokyo)
MoNA Rating=3.75

>  <NUM PEAKS>  (701) 
23

>  <MASS SPECTRAL PEAKS>  (701) 
27 3.38
39 5.16
50 2.01
51 3.17
52 1.83
53 2.99
55 1.38
62 1.37
63 3.65
65 3.52
66 1.2
77 13.13
78 3.27
79 1.81
91 4.43
93 1
94 1.54
103 1.63
107 99.99
108 7.78
121 3.33
122 33.18
123 3.27

>  <PREDICTED SPECTRUM>  (701) 
15 4
26 32
27 92
28 9
29 10
37 51
38 108
39 302
40 105
41 151
42 60
50 175
51 302
52 229
53 283
54 123
55 95
56 20
61 61
62 81
63 123
64 75
65 143
66 91
67 12
74 27
75 49
76 36
77 505
78 260
79 373
80 145
81 20
89 83
90 0
91 243
92 40
93 112
94 51
95 74
102 20
103 81
104 5
105 207
106 65
107 999
108 350
119 42
120 17
121 198
122 702
123 214

$$$$

     RDKit          2D

 14 16  0  0  0  0  0  0  0  0999 V2000
    1.7600    2.9500    0.0000 C   0  0  0  0  0  0  0  0  0  0  0  0
   -3.4300   -0.0500    0.0000 C   0  0  0  0  0  0  0  0  0  0  0  0
    3.0600    2.2000    0.0000 C   0  0  0  0  0  0  0  0  0  0  0  0
   -3.4300   -1.5500    0.0000 C   0  0  0  0  0  0  0  0  0  0  0  0
    0.4600    2.2000    0.0000 C   0  0  0  0  0  0  0  0  0  0  0  0
   -2.1300    0.7000    0.0000 C   0  0  0  0  0  0  0  0  0  0  0  0
    3.0600    0.7000    0.0000 C   0  0  0  0  0  0  0  0  0  0  0  0
   -2.1300   -2.3000    0.0000 C   0  0  0  0  0  0  0  0  0  0  0  0
    0.4600    0.7000    0.0000 C   0  0  0  0  0  0  0  0  0  0  0  0
   -0.8300   -0.0500    0.0000 C   0  0  0  0  0  0  0  0  0  0  0  0
    1.7600   -0.0500    0.0000 C   0  0  0  0  0  0  0  0  0  0  0  0
   -0.8300   -1.5500    0.0000 C   0  0  0  0  0  0  0  0  0  0  0  0
    1.7600   -1.5500    0.0000 N   0  0  0  0  0  0  0  0  0  0  0  0
    0.4600   -2.3000    0.0000 N   0  0  0  0  0  0  0  0  0  0  0  0
  3  1  2  0
  4  2  2  0
  5  1  1  0
  6  2  1  0
  7  3  1  0
  8  4  1  0
  9  5  2  0
 10  6  2  0
 10  9  1  0
 11  7  2  0
 11  9  1  0
 12  8  2  0
 12 10  1  0
 13 11  1  0
 14 12  1  0
 14 13  2  0
M  END
>  <NAME>  (702) 
BENZO(C)CINNOLINE

>  <SYNONYMS>  (702) 


>  <SPECTRUM TYPE>  (702) 
MS1

>  <INSTRUMENT TYPE>  (702) 
EI-B

>  <INSTRUMENT>  (702) 
HITACHI M-80

>  <ION MODE>  (702) 
P

>  <INCHIKEY>  (702) 
SWJXWSAKHXBQSY-UHFFFAOYSA-N

>  <FORMULA>  (702) 
C12H8N2

>  <EXACT MASS>  (702) 
180.068748256

>  <MW>  (702) 
180

>  <ID>  (702) 
JP011065

>  <CONTRIBUTOR>  (702) 
University of Tokyo Team, {Faculty of Engineering, University of Tokyo

>  <COMMENT>  (702) 
SMILES=c(c3)cc(n1)c(c3)c(c2)c(ccc2)n1
cas=230-17-1
InChI=InChI=1S/C12H8N2/c1-3-7-11-9(5-1)10-6-2-4-8-12(10)14-13-11/h1-8H
computed SMILES=N1=NC2=CC=CC=C2C3=CC=CC=C13
accession=JP011065
date=2016.01.19 (Created 2008.10.21, modified 2011.05.06)
author=YAMAMOTO M, DEP. CHEMISTRY, FAC. SCIENCE, NARA WOMEN'S UNIV.
license=CC BY-NC-SA
exact mass=180.06875
ionization energy=70 eV
ion type=[M]+*
computed spectral entropy=2.591831335433242
computed normalized entropy=0.7289951055727205
SPLASH=splash10-0ue9-2900000000-d416d08b10179a8ca33e
submitter=submitter = University of Tokyo Team (Faculty of Engineering, University of Tokyo)
MoNA Rating=3.75

>  <NUM PEAKS>  (702) 
35

>  <MASS SPECTRAL PEAKS>  (702) 
27 1.15
38 1.95
39 4.97
50 5.59
51 4.63
52 1.44
61 1.89
62 4.69
63 12.47
64 1.04
74 8.74
75 9.58
76 13.28
77 1.76
85 1.03
86 3.69
87 6.13
88 1.15
98 4.25
99 3.8
100 2.61
101 1.4
102 3.98
111 1.39
113 1.51
125 2.85
126 15.5
127 1.69
149 1.34
150 18.21
151 34.54
152 99.99
153 13.12
180 90.88
181 12.84

>  <PREDICTED SPECTRUM>  (702) 
38 7
39 79
40 5
50 110
51 108
52 0
57 0
62 90
63 162
64 75
74 121
75 203
76 92
77 55
81 3
86 38
87 41
88 136
89 14
96 3
98 49
99 61
100 66
125 118
126 174
149 87
150 241
151 449
152 609
153 248
179 58
180 999
181 394
182 94

$$$$

     RDKit          2D

  9 10  0  0  0  0  0  0  0  0999 V2000
   -2.3100   -0.7500    0.0000 C   0  0  0  0  0  0  0  0  0  0  0  0
   -2.3100    0.7500    0.0000 C   0  0  0  0  0  0  0  0  0  0  0  0
   -1.0100   -1.5000    0.0000 C   0  0  0  0  0  0  0  0  0  0  0  0
   -1.0100    1.5000    0.0000 C   0  0  0  0  0  0  0  0  0  0  0  0
    0.2900   -0.7500    0.0000 C   0  0  0  0  0  0  0  0  0  0  0  0
    0.2900    0.7500    0.0000 C   0  0  0  0  0  0  0  0  0  0  0  0
    1.7200   -1.2100    0.0000 N   0  0  0  0  0  0  0  0  0  0  0  0
    1.7200    1.2100    0.0000 N   0  0  0  0  0  0  0  0  0  0  0  0
    2.6000    0.0000    0.0000 N   0  0  0  0  0  0  0  0  0  0  0  0
  2  1  2  0
  3  1  1  0
  4  2  1  0
  5  3  2  0
  6  4  2  0
  6  5  1  0
  7  5  1  0
  8  6  1  0
  9  7  2  0
  9  8  1  0
M  END
>  <NAME>  (703) 
BENZOTRIAZOLE

>  <SYNONYMS>  (703) 
1,2,3-BENZOTRIAZOLE

>  <SPECTRUM TYPE>  (703) 
MS1

>  <INSTRUMENT TYPE>  (703) 
EI-B

>  <INSTRUMENT>  (703) 
HITACHI M-80

>  <ION MODE>  (703) 
P

>  <INCHIKEY>  (703) 
QRUDEWIWKLJBPS-UHFFFAOYSA-N

>  <FORMULA>  (703) 
C6H5N3

>  <EXACT MASS>  (703) 
119.04834715999999

>  <MW>  (703) 
119

>  <ID>  (703) 
JP011064

>  <CONTRIBUTOR>  (703) 
University of Tokyo Team, {Faculty of Engineering, University of Tokyo

>  <COMMENT>  (703) 
SMILES=C1=CC2=NNN=C2C=C1
cas=95-14-7
InChI=InChI=1S/C6H5N3/c1-2-4-6-5(3-1)7-9-8-6/h1-4H,(H,7,8,9)
computed SMILES=N1=NC=2C=CC=CC2N1
accession=JP011064
date=2016.01.19 (Created 2008.10.21, modified 2011.05.06)
author=YAMAMOTO M, DEP. CHEMISTRY, FAC. SCIENCE, NARA WOMEN'S UNIV.
license=CC BY-NC-SA
exact mass=119.04835
ionization energy=70 eV
ion type=[M]+*
computed spectral entropy=2.6071453424054645
computed normalized entropy=0.7592181295842513
SPLASH=splash10-03xu-9200000000-14c60454b23abfdc1f33
submitter=submitter = University of Tokyo Team (Faculty of Engineering, University of Tokyo)
MoNA Rating=3.75

>  <NUM PEAKS>  (703) 
31

>  <MASS SPECTRAL PEAKS>  (703) 
26 3.1
27 3.14
28 3.23
29 3.39
37 9.29
38 20.98
39 14.82
40 3.67
41 8.28
44 1.45
46 1.25
49 1.9
50 4.65
51 5.62
52 21.71
53 1.4
60 1.18
61 8.25
62 12.59
63 48
64 62.29
65 19.19
75 1.04
76 2.06
87 1.38
88 1.47
90 5.09
91 77.86
92 5.81
119 99.99
120 11.21

>  <PREDICTED SPECTRUM>  (703) 
25 13
26 21
28 23
36 132
37 347
38 443
39 489
40 216
41 146
43 31
44 144
48 4
49 132
50 346
51 362
52 491
53 98
61 233
62 376
63 634
64 604
65 374
66 100
74 95
75 88
76 87
88 36
90 600
91 991
92 248
119 999
120 291

$$$$

     RDKit          2D

 22 24  0  0  1  0  0  0  0  0999 V2000
    4.4724    4.5780    0.0000 C   0  0  0  0  0  0  0  0  0  0  0  0
    5.7681    2.3261    0.0000 C   0  0  0  0  0  0  0  0  0  0  0  0
   -0.7200    1.5800    0.0000 C   0  0  0  0  0  0  0  0  0  0  0  0
   -2.9841   -3.3192    0.0000 C   0  0  0  0  0  0  0  0  0  0  0  0
   -3.3200    0.0800    0.0000 C   0  0  0  0  0  0  0  0  0  0  0  0
    1.8800    3.0800    0.0000 C   0  0  0  0  0  0  0  0  0  0  0  0
    1.8800   -1.4200    0.0000 C   0  0  0  0  0  0  0  0  0  0  0  0
    0.5800    2.3300    0.0000 C   0  0  0  0  0  0  0  0  0  0  0  0
    0.5800   -2.1700    0.0000 C   0  0  0  0  0  0  0  0  0  0  0  0
   -2.0200    0.8300    0.0000 C   0  0  0  0  0  0  0  0  0  0  0  0
   -3.3200   -1.4200    0.0000 C   0  0  0  0  0  0  0  0  0  0  0  0
    3.1700    0.8300    0.0000 C   0  0  0  0  0  0  0  0  0  0  0  0
    4.4702    3.0780    0.0000 C   0  0  0  0  0  0  0  0  0  0  0  0
    3.1700    2.3300    0.0000 C   0  0  0  0  0  0  0  0  0  0  0  0
    1.8800    0.0800    0.0000 C   0  0  0  0  0  0  0  0  0  0  0  0
    0.5800    0.8300    0.0000 C   0  0  0  0  0  0  0  0  0  0  0  0
   -0.7200   -1.4200    0.0000 C   0  0  0  0  0  0  0  0  0  0  0  0
   -1.0559   -3.3192    0.0000 C   0  0  0  0  0  0  0  0  0  0  0  0
   -0.7200    0.0800    0.0000 C   0  0  0  0  0  0  0  0  0  0  0  0
   -2.0200   -2.1700    0.0000 C   0  0  0  0  0  0  0  0  0  0  0  0
    0.4213   -3.0589    0.0000 O   0  0  0  0  0  0  0  0  0  0  0  0
   -1.5691   -4.7287    0.0000 O   0  0  0  0  0  0  0  0  0  0  0  0
  8  6  1  0
  9  7  1  0
 10  5  1  0
 11  5  1  0
 13  1  1  0
 13  2  1  0
 14  6  1  0
 14 12  2  0
 14 13  1  0
 15  7  2  0
 15 12  1  0
 16  8  1  1
 16 15  1  0
 17  9  1  1
 19  3  1  1
 19 10  1  0
 19 16  1  0
 19 17  1  0
 20  4  1  1
 20 11  1  0
 20 17  1  0
 20 18  1  0
 21 18  2  0
 22 18  1  0
M  END
>  <NAME>  (704) 
ABIETIC ACID

>  <SYNONYMS>  (704) 


>  <SPECTRUM TYPE>  (704) 
MS1

>  <INSTRUMENT TYPE>  (704) 
EI-B

>  <INSTRUMENT>  (704) 
HITACHI M-80

>  <ION MODE>  (704) 
P

>  <INCHIKEY>  (704) 
RSWGJHLUYNHPMX-ONCXSQPRSA-N

>  <FORMULA>  (704) 
C20H30O2

>  <EXACT MASS>  (704) 
302.2245802

>  <MW>  (704) 
302

>  <ID>  (704) 
JP011063

>  <CONTRIBUTOR>  (704) 
University of Tokyo Team, {Faculty of Engineering, University of Tokyo

>  <COMMENT>  (704) 
SMILES=CC(C)C(C3)=CC(=C2)C([H])(C3)C(C)(C1)C([H])(C2)C(C)(C(O)=O)CC1
cas=514-10-3
InChI=InChI=1S/C20H30O2/c1-13(2)14-6-8-16-15(12-14)7-9-17-19(16,3)10-5-11-20(17,4)18(21)22/h7,12-13,16-17H,5-6,8-11H2,1-4H3,(H,21,22)/t16-,17+,19+,20+/m0/s1
computed SMILES=O=C(O)C1(C)CCCC2(C)C3C(C=C(CC3)C(C)C)=CCC12
accession=JP011063
date=2016.01.19 (Created 2008.10.21, modified 2011.05.06)
author=YAMAMOTO M, DEP. CHEMISTRY, FAC. SCIENCE, NARA WOMEN'S UNIV.
license=CC BY-NC-SA
exact mass=302.22458
ionization energy=70 eV
ion type=[M]+*
computed spectral entropy=4.977882369845604
computed normalized entropy=0.9028650952110531
SPLASH=splash10-0006-7941000000-fe7ac54ea33edec7d742
submitter=submitter = University of Tokyo Team (Faculty of Engineering, University of Tokyo)
MoNA Rating=3.75

>  <NUM PEAKS>  (704) 
248

>  <MASS SPECTRAL PEAKS>  (704) 
14 3.08
15 12.39
16 3
17 18.91
19 1.35
26 3.35
27 13.25
28 9.49
29 21.91
31 2.54
32 1.43
38 1.75
39 13.76
40 2.43
41 43.96
42 10.68
43 99.99
44 10.61
45 17.71
46 2.49
51 2.29
52 1.16
53 9.51
54 1.7
55 20.21
56 3.25
57 3.93
58 10.22
59 6.87
60 8.83
61 1.03
63 1.22
65 6.13
66 2.07
67 12.94
68 3.14
69 8.95
70 1.52
71 4.8
73 3.39
74 2.31
76 1.07
77 15.43
78 4.95
79 20.44
80 4.8
81 19.31
82 4.38
83 4.35
84 1.97
85 2.58
86 1.12
87 4.38
88 1.12
89 1.55
91 32.45
92 8.59
93 19.19
94 4.2
95 11.44
96 2.35
97 3.63
98 1.15
99 1.78
100 1.35
101 1.53
102 1.47
103 4.82
104 3.49
105 29.16
106 6.61
107 17.62
108 7.35
109 21.19
110 7.64
111 4.97
112 2.14
113 1.98
114 1.43
115 14.06
116 5.17
117 15.1
118 3.83
119 15.91
120 5.37
121 27.27
122 6.18
123 11.74
124 2.3
125 2.72
126 1.9
127 4.65
128 12.88
129 14.61
130 4.24
131 20.1
132 4.34
133 16.13
134 8.79
135 13.01
136 19.22
137 5.23
138 2.01
139 9.25
140 2.04
141 14.35
142 7.28
143 14.54
144 4.1
145 13.1
146 7.41
147 11.63
148 13.44
149 9.51
150 3.31
151 4.07
152 5.67
153 7.2
154 4.55
155 10.55
156 4
157 12.17
158 3.49
159 10.8
161 5.32
162 4.04
163 3.44
164 1.62
165 6.92
166 5.28
167 10.31
168 3.31
169 6.12
170 2.28
171 7.11
172 2.65
173 6.46
174 2.07
175 3.3
176 1.34
177 1.61
178 3.03
179 3.22
180 1.87
181 4.09
182 1.75
183 5.57
184 2.1
185 7.94
186 2.91
187 7.1
188 2.41
189 2.98
190 1.23
191 1.73
192 1.07
193 2.24
194 1.11
195 7.41
196 2.15
197 11.95
198 2.9
199 6.51
200 2.82
201 5.51
202 2.41
203 3.06
204 2.07
205 1.96
206 1.3
207 1.87
208 1.19
209 3.12
210 1.65
211 6.16
212 2.51
213 11.57
214 3.47
215 2.65
216 1.75
217 1.93
219 1.46
220 1.23
221 1.36
223 2.13
224 1.06
225 3.24
226 1.26
227 4.03
228 1.89
229 2.29
230 1.12
231 1.86
232 1.45
233 1.42
234 1.08
235 3.28
236 1.59
237 10.14
238 2.74
239 26.22
240 5.79
241 11.75
242 2.87
243 2.13
244 1.17
245 2.61
246 1.59
251 2.02
252 1.25
253 7.36
254 3.23
255 5
256 5.43
257 8.35
258 2.15
259 16.07
260 3.93
261 1.49
266 1
267 1.27
268 1.8
269 2.92
270 2.04
271 2
272 1.82
273 4.41
274 2.44
275 3.3
276 2.08
283 4.54
284 2.15
285 38.34
286 8.73
287 18.77
288 4.47
289 1.51
290 1.14
291 1.68
292 1.25
296 1.55
298 8
299 4.06
300 17.73
301 7.4
302 61.9
303 14.31
304 2.46

>  <PREDICTED SPECTRUM>  (704) 
27 89
28 35
29 161
39 159
40 58
41 536
42 89
43 657
44 163
45 220
46 15
47 37
50 18
51 142
52 78
53 368
54 138
55 510
56 177
57 226
58 106
59 87
60 51
63 89
64 56
65 307
66 117
67 439
68 125
69 310
70 53
71 169
73 114
74 10
75 39
76 19
77 432
78 241
79 543
80 225
81 590
82 237
83 279
84 107
85 157
86 4
87 107
88 29
89 81
90 18
91 696
92 327
93 506
94 198
95 333
96 142
97 182
98 55
99 77
100 55
101 78
102 98
103 288
104 244
105 675
106 359
107 528
108 280
109 508
110 115
111 153
112 1
113 7
114 14
115 430
116 204
117 427
118 209
119 525
120 215
121 530
122 230
123 400
124 112
125 128
126 15
127 187
128 317
129 430
130 221
131 616
132 345
133 498
134 322
135 314
136 307
137 206
138 22
139 226
141 346
142 227
143 427
144 251
145 485
146 300
147 378
148 251
149 285
150 183
151 167
152 160
153 118
154 70
155 169
156 108
157 350
158 160
159 410
160 242
161 305
162 227
163 246
164 82
165 156
166 80
167 170
168 28
169 232
170 59
171 396
172 184
173 280
174 162
175 221
176 70
177 113
178 93
179 104
180 35
181 94
182 77
183 285
184 169
185 523
186 213
187 512
188 279
189 244
190 88
191 113
192 1
193 97
194 48
195 48
196 74
197 157
198 101
199 366
200 187
201 287
202 195
203 157
204 58
205 60
206 68
207 72
210 42
211 130
212 129
213 407
214 232
215 238
216 38
217 81
219 46
221 111
222 15
223 66
225 62
226 75
227 254
228 165
229 113
230 8
231 156
232 52
235 5
237 43
238 54
239 272
240 78
241 756
242 349
243 226
244 103
245 52
246 3
254 146
255 249
256 537
257 424
258 171
259 489
260 172
269 140
274 19
284 117
285 97
287 441
288 182
289 62
300 68
302 999
303 495
304 199
305 36

$$$$

     RDKit          2D

 18 21  0  0  0  0  0  0  0  0999 V2000
   -4.8300   -1.3800    0.0000 C   0  0  0  0  0  0  0  0  0  0  0  0
   -4.8300    0.1200    0.0000 C   0  0  0  0  0  0  0  0  0  0  0  0
    4.2600    2.3800    0.0000 C   0  0  0  0  0  0  0  0  0  0  0  0
    2.9600    3.1200    0.0000 C   0  0  0  0  0  0  0  0  0  0  0  0
    4.2600    0.8800    0.0000 C   0  0  0  0  0  0  0  0  0  0  0  0
   -3.5400   -2.1200    0.0000 C   0  0  0  0  0  0  0  0  0  0  0  0
   -3.5400    0.8800    0.0000 C   0  0  0  0  0  0  0  0  0  0  0  0
    1.6600    2.3800    0.0000 C   0  0  0  0  0  0  0  0  0  0  0  0
    2.9600   -1.3800    0.0000 C   0  0  0  0  0  0  0  0  0  0  0  0
    1.6600   -2.1200    0.0000 C   0  0  0  0  0  0  0  0  0  0  0  0
   -0.9400   -2.1200    0.0000 C   0  0  0  0  0  0  0  0  0  0  0  0
   -0.9400    0.8800    0.0000 C   0  0  0  0  0  0  0  0  0  0  0  0
    2.9600    0.1200    0.0000 C   0  0  0  0  0  0  0  0  0  0  0  0
   -2.2400   -1.3800    0.0000 C   0  0  0  0  0  0  0  0  0  0  0  0
   -2.2400    0.1200    0.0000 C   0  0  0  0  0  0  0  0  0  0  0  0
    0.3600   -1.3800    0.0000 C   0  0  0  0  0  0  0  0  0  0  0  0
    1.6600    0.8800    0.0000 C   0  0  0  0  0  0  0  0  0  0  0  0
    0.3600    0.1200    0.0000 C   0  0  0  0  0  0  0  0  0  0  0  0
  2  1  2  0
  4  3  2  0
  5  3  1  0
  6  1  1  0
  7  2  1  0
  8  4  1  0
 10  9  2  0
 13  5  2  0
 13  9  1  0
 14  6  2  0
 14 11  1  0
 15  7  2  0
 15 12  1  0
 15 14  1  0
 16 10  1  0
 16 11  2  0
 17  8  2  0
 17 13  1  0
 18 12  2  0
 18 16  1  0
 18 17  1  0
M  END
>  <NAME>  (705) 
1,2-BENZANTHRACENE

>  <SYNONYMS>  (705) 
TETRAPHENE

>  <SPECTRUM TYPE>  (705) 
MS1

>  <INSTRUMENT TYPE>  (705) 
EI-B

>  <INSTRUMENT>  (705) 
HITACHI M-80

>  <ION MODE>  (705) 
P

>  <INCHIKEY>  (705) 
DXBHBZVCASKNBY-UHFFFAOYSA-N

>  <FORMULA>  (705) 
C18H12

>  <EXACT MASS>  (705) 
228.093900384

>  <MW>  (705) 
228

>  <ID>  (705) 
JP011062

>  <CONTRIBUTOR>  (705) 
University of Tokyo Team, {Faculty of Engineering, University of Tokyo

>  <COMMENT>  (705) 
SMILES=c(c4)cc(c3)c(c4)cc(c13)c(c2)c(ccc2)cc1
cas=56-55-3
InChI=InChI=1S/C18H12/c1-2-7-15-12-18-16(11-14(15)6-1)10-9-13-5-3-4-8-17(13)18/h1-12H
computed SMILES=C=1C=CC=2C=C3C(C=CC=4C=CC=CC43)=CC2C1
accession=JP011062
date=2016.01.19 (Created 2008.10.21, modified 2011.05.06)
author=YAMAMOTO M, DEP. CHEMISTRY, FAC. SCIENCE, NARA WOMEN'S UNIV.
license=CC BY-NC-SA
exact mass=228.0939
ionization energy=70 eV
ion type=[M]+*
computed spectral entropy=1.772602811455415
computed normalized entropy=0.6132784845454109
SPLASH=splash10-004i-0190000000-6b696edb9e86ed9a2dc9
submitter=submitter = University of Tokyo Team (Faculty of Engineering, University of Tokyo)
MoNA Rating=3.75

>  <NUM PEAKS>  (705) 
18

>  <MASS SPECTRAL PEAKS>  (705) 
87 1.04
88 1.09
100 2.27
101 3.16
112 2.27
113 5.4
114 7.43
115 1.38
200 2.6
201 1.23
202 2.39
224 4.15
225 3.06
226 18.79
227 5.54
228 99.99
229 19.7
230 2.05

>  <PREDICTED SPECTRUM>  (705) 
26 17
27 42
29 7
34 0
36 8
37 2
38 42
39 140
40 55
41 58
42 7
43 15
44 21
50 89
51 97
52 43
54 3
55 35
57 10
62 68
63 112
64 17
65 45
68 2
70 15
73 28
74 92
75 110
76 102
77 59
78 49
79 20
80 11
81 47
82 25
83 41
84 28
85 13
86 74
87 122
88 93
89 34
91 29
92 9
93 19
94 75
95 7
96 27
97 8
98 94
99 65
100 78
101 61
102 40
106 29
107 17
108 22
109 5
110 61
111 104
112 93
113 138
115 20
119 24
120 49
121 127
122 104
123 62
126 76
134 12
135 7
136 28
137 48
138 31
139 154
140 5
149 60
150 97
151 82
161 42
162 37
163 32
173 4
174 119
175 82
176 92
187 19
188 20
189 41
196 7
197 19
198 113
199 106
200 159
201 152
202 162
203 60
206 16
211 52
213 20
222 34
223 104
224 226
225 238
226 497
227 369
228 999
229 483
230 151
231 6

$$$$

     RDKit          2D

 10 10  0  0  0  0  0  0  0  0999 V2000
    2.5989   -0.7496    0.0000 C   0  0  0  0  0  0  0  0  0  0  0  0
    0.0008   -2.2500    0.0000 C   0  0  0  0  0  0  0  0  0  0  0  0
   -1.2992    0.0000    0.0000 C   0  0  0  0  0  0  0  0  0  0  0  0
   -1.2992   -3.0000    0.0000 C   0  0  0  0  0  0  0  0  0  0  0  0
   -2.5992   -0.7500    0.0000 C   0  0  0  0  0  0  0  0  0  0  0  0
    1.2998    0.0002    0.0000 C   0  0  0  0  0  0  0  0  0  0  0  0
    0.0008   -0.7500    0.0000 C   0  0  0  0  0  0  0  0  0  0  0  0
   -2.5992   -2.2500    0.0000 C   0  0  0  0  0  0  0  0  0  0  0  0
   -3.8981   -3.0002    0.0000 Br  0  0  0  0  0  0  0  0  0  0  0  0
    1.2995    1.5002    0.0000 O   0  0  0  0  0  0  0  0  0  0  0  0
  4  2  2  0
  5  3  1  0
  6  1  1  0
  7  2  1  0
  7  3  2  0
  7  6  1  0
  8  4  1  0
  8  5  2  0
  9  8  1  0
 10  6  2  0
M  END
>  <NAME>  (706) 
4'-BROMOACETOPHENONE

>  <SYNONYMS>  (706) 


>  <SPECTRUM TYPE>  (706) 
MS1

>  <INSTRUMENT TYPE>  (706) 
EI-B

>  <INSTRUMENT>  (706) 
HITACHI M-80

>  <ION MODE>  (706) 
P

>  <INCHIKEY>  (706) 
WYECURVXVYPVAT-UHFFFAOYSA-N

>  <FORMULA>  (706) 
C8H7BrO

>  <EXACT MASS>  (706) 
197.968026944

>  <MW>  (706) 
198

>  <ID>  (706) 
JP011061

>  <CONTRIBUTOR>  (706) 
University of Tokyo Team, {Faculty of Engineering, University of Tokyo

>  <COMMENT>  (706) 
SMILES=CC(=O)c(c1)ccc(Br)c1
cas=99-90-1
InChI=InChI=1S/C8H7BrO/c1-6(10)7-2-4-8(9)5-3-7/h2-5H,1H3
computed SMILES=O=C(C1=CC=C(Br)C=C1)C
accession=JP011061
date=2016.01.19 (Created 2008.10.21, modified 2011.05.06)
author=YAMAMOTO M, DEP. CHEMISTRY, FAC. SCIENCE, NARA WOMEN'S UNIV.
license=CC BY-NC-SA
exact mass=197.96803
ionization energy=70 eV
ion type=[M]+*
computed spectral entropy=3.186937932807373
computed normalized entropy=0.8232426897563654
SPLASH=splash10-0006-9300000000-574dfeb62900fd4b2d6d
submitter=submitter = University of Tokyo Team (Faculty of Engineering, University of Tokyo)
MoNA Rating=3.75

>  <NUM PEAKS>  (706) 
48

>  <MASS SPECTRAL PEAKS>  (706) 
13 8.34
14 38.6
25 3.4
26 4.12
28 5.34
37 4.57
38 9.25
39 4.76
41 3.13
42 20.91
43 99.99
44 1.78
49 3.25
50 34.8
51 9.3
52 9.3
53 1.33
61 3.41
63 8.86
64 1.36
65 1.09
73 3.75
74 18.72
75 26.06
76 27.59
77 5.61
79 6.73
80 1.51
81 6.91
82 1.57
86 1.37
87 1
89 5.7
90 2.92
91 2.94
104 7.55
155 20.64
156 1.62
157 19.93
158 1.27
183 49.53
184 4.01
185 48.75
186 4.02
198 11.9
199 2.02
200 12.36
201 1.85

>  <PREDICTED SPECTRUM>  (706) 
14 49
15 178
16 32
17 1
18 21
26 36
27 76
28 69
29 60
31 1
36 12
37 175
38 262
39 263
40 124
41 126
42 222
43 852
44 190
45 50
49 134
50 671
51 483
52 164
53 201
57 79
59 44
61 149
62 161
63 354
64 218
65 47
66 30
73 168
74 509
75 706
76 695
77 387
78 110
79 107
80 0
81 6
85 107
86 154
87 30
89 355
90 185
91 166
92 63
99 7
101 74
102 153
103 157
104 347
105 83
106 4
118 22
119 306
120 121
127 17
129 55
130 30
131 78
154 31
155 704
156 166
157 505
158 49
183 978
184 295
185 999
186 344
187 29
198 553
199 191
200 572
201 164

$$$$

     RDKit          2D

 20 23  0  0  0  0  0  0  0  0999 V2000
   -2.9500   -0.8900    0.0000 C   0  0  0  0  0  0  0  0  0  0  0  0
    8.7289    2.8602    0.0000 C   0  0  0  0  0  0  0  0  0  0  0  0
   -2.9500    0.6100    0.0000 C   0  0  0  0  0  0  0  0  0  0  0  0
    8.7289    1.3602    0.0000 C   0  0  0  0  0  0  0  0  0  0  0  0
   -1.6500   -1.6400    0.0000 C   0  0  0  0  0  0  0  0  0  0  0  0
    7.4289    3.6102    0.0000 C   0  0  0  0  0  0  0  0  0  0  0  0
   -1.6500    1.3600    0.0000 C   0  0  0  0  0  0  0  0  0  0  0  0
    7.4289    0.6102    0.0000 C   0  0  0  0  0  0  0  0  0  0  0  0
    0.9400   -1.6400    0.0000 C   0  0  0  0  0  0  0  0  0  0  0  0
    4.8389    3.6102    0.0000 C   0  0  0  0  0  0  0  0  0  0  0  0
    2.2400   -0.8900    0.0000 C   0  0  0  0  0  0  0  0  0  0  0  0
    3.5389    2.8602    0.0000 C   0  0  0  0  0  0  0  0  0  0  0  0
    0.9400    1.3600    0.0000 C   0  0  0  0  0  0  0  0  0  0  0  0
    4.8389    0.6102    0.0000 C   0  0  0  0  0  0  0  0  0  0  0  0
   -0.3500   -0.8900    0.0000 C   0  0  0  0  0  0  0  0  0  0  0  0
    6.1289    2.8602    0.0000 C   0  0  0  0  0  0  0  0  0  0  0  0
   -0.3500    0.6100    0.0000 C   0  0  0  0  0  0  0  0  0  0  0  0
    6.1289    1.3602    0.0000 C   0  0  0  0  0  0  0  0  0  0  0  0
    2.2400    0.6100    0.0000 C   0  0  0  0  0  0  0  0  0  0  0  0
    3.5389    1.3602    0.0000 C   0  0  0  0  0  0  0  0  0  0  0  0
  3  1  2  0
  4  2  2  0
  5  1  1  0
  6  2  1  0
  7  3  1  0
  8  4  1  0
 11  9  2  0
 12 10  2  0
 15  5  2  0
 15  9  1  0
 16  6  2  0
 16 10  1  0
 17  7  2  0
 17 13  1  0
 17 15  1  0
 18  8  2  0
 18 14  1  0
 18 16  1  0
 19 11  1  0
 19 13  2  0
 20 12  1  0
 20 14  2  0
 20 19  1  0
M  END
>  <NAME>  (707) 
2,2'-BINAPHTHYL

>  <SYNONYMS>  (707) 
2,2'-BINAPHTHALENE

>  <SPECTRUM TYPE>  (707) 
MS1

>  <INSTRUMENT TYPE>  (707) 
EI-B

>  <INSTRUMENT>  (707) 
HITACHI M-80

>  <ION MODE>  (707) 
P

>  <INCHIKEY>  (707) 
MSBVBOUOMVTWKE-UHFFFAOYSA-N

>  <FORMULA>  (707) 
C20H14

>  <EXACT MASS>  (707) 
254.109550448

>  <MW>  (707) 
254

>  <ID>  (707) 
JP011060

>  <CONTRIBUTOR>  (707) 
University of Tokyo Team, {Faculty of Engineering, University of Tokyo

>  <COMMENT>  (707) 
SMILES=c(c4)cc(c3)c(c4)cc(c3)c(c1)cc(c2)c(ccc2)c1
cas=612-78-2
InChI=InChI=1S/C20H14/c1-3-7-17-13-19(11-9-15(17)5-1)20-12-10-16-6-2-4-8-18(16)14-20/h1-14H
computed SMILES=C=1C=CC=2C=C(C=CC2C1)C=3C=CC=4C=CC=CC4C3
accession=JP011060
date=2016.01.19 (Created 2008.10.21, modified 2011.05.06)
author=YAMAMOTO M, DEP. CHEMISTRY, FAC. SCIENCE, NARA WOMEN'S UNIV.
license=CC BY-NC-SA
exact mass=254.10955
ionization energy=70 eV
ion type=[M]+*
computed spectral entropy=1.5237582563821783
computed normalized entropy=0.5773873266346674
SPLASH=splash10-0udi-0090000000-e70022443d21148df66a
submitter=submitter = University of Tokyo Team (Faculty of Engineering, University of Tokyo)
MoNA Rating=3.75

>  <NUM PEAKS>  (707) 
14

>  <MASS SPECTRAL PEAKS>  (707) 
17 1.07
27 1
113 1.47
125 1.12
126 3.85
127 4.48
226 1.12
250 3.7
251 1.73
252 19.32
253 10.55
254 99.99
255 21.84
256 2.29

>  <PREDICTED SPECTRUM>  (707) 
26 29
27 62
28 12
29 7
36 19
37 2
38 36
39 125
40 29
41 17
43 0
44 4
50 94
51 125
52 44
54 2
55 8
62 83
63 137
64 4
65 24
73 31
74 103
75 119
76 106
77 114
78 50
80 4
81 4
86 72
87 98
88 94
89 110
90 18
91 61
93 18
94 52
95 4
96 3
98 99
99 94
100 155
101 189
102 116
103 8
104 23
106 59
107 83
108 61
109 15
110 61
111 80
112 127
113 224
114 129
115 133
116 29
117 11
118 41
119 44
120 70
121 27
122 31
123 27
124 62
125 140
126 274
127 188
128 85
136 5
137 71
138 50
139 66
149 16
150 81
151 80
161 7
162 18
163 60
165 22
174 26
175 7
176 40
178 4
187 93
198 11
199 54
200 112
201 63
202 126
213 46
222 39
223 33
224 147
225 122
226 208
227 116
228 72
236 1
237 97
238 73
239 169
240 33
248 103
249 94
250 278
251 219
252 499
253 465
254 999
255 458
256 161
257 36

$$$$

     RDKit          2D

 10 10  0  0  0  0  0  0  0  0999 V2000
    0.0000    1.5000    0.0000 C   0  0  0  0  0  0  0  0  0  0  0  0
   -1.3000    0.7500    0.0000 C   0  0  0  0  0  0  0  0  0  0  0  0
    1.3000   -0.7500    0.0000 C   0  0  0  0  0  0  0  0  0  0  0  0
    1.3000    0.7500    0.0000 C   0  0  0  0  0  0  0  0  0  0  0  0
   -1.3000   -0.7500    0.0000 C   0  0  0  0  0  0  0  0  0  0  0  0
   -2.5989   -1.5002    0.0000 Cl  0  0  0  0  0  0  0  0  0  0  0  0
   -0.0000   -1.5000    0.0000 N   0  0  0  0  0  0  0  0  0  0  0  0
    2.5989    1.5002    0.0000 N   0  0  0  0  0  0  0  0  0  0  0  0
    3.8981    0.7504    0.0000 O   0  0  0  0  0  0  0  0  0  0  0  0
    2.5987    3.0002    0.0000 O   0  0  0  0  0  0  0  0  0  0  0  0
  2  1  2  0
  4  1  1  0
  4  3  2  0
  5  2  1  0
  6  5  1  0
  7  3  1  0
  7  5  2  0
  8  4  1  0
  9  8  1  0
 10  8  2  0
M  CHG  2   8   1   9  -1
M  END
>  <NAME>  (708) 
2-CHLORO-5-NITROPYRIDINE

>  <SYNONYMS>  (708) 


>  <SPECTRUM TYPE>  (708) 
MS1

>  <INSTRUMENT TYPE>  (708) 
EI-B

>  <INSTRUMENT>  (708) 
HITACHI M-80

>  <ION MODE>  (708) 
P

>  <INCHIKEY>  (708) 
BAZVFQBTJPBRTJ-UHFFFAOYSA-N

>  <FORMULA>  (708) 
C5H3ClN2O2

>  <EXACT MASS>  (708) 
157.988305016

>  <MW>  (708) 
158

>  <ID>  (708) 
JP011059

>  <CONTRIBUTOR>  (708) 
University of Tokyo Team, {Faculty of Engineering, University of Tokyo

>  <COMMENT>  (708) 
SMILES=[O-1][N+1](=O)c(c1)cnc(Cl)c1
cas=4548-45-2
InChI=InChI=1S/C5H3ClN2O2/c6-5-2-1-4(3-7-5)8(9)10/h1-3H
computed SMILES=O=N(=O)C1=CN=C(Cl)C=C1
accession=JP011059
date=2016.01.19 (Created 2008.10.21, modified 2011.05.06)
author=YAMAMOTO M, DEP. CHEMISTRY, FAC. SCIENCE, NARA WOMEN'S UNIV.
license=CC BY-NC-SA
exact mass=157.98831
ionization energy=70 eV
ion type=[M]+*
computed spectral entropy=3.1791999889210403
computed normalized entropy=0.8126741546534175
SPLASH=splash10-0imi-9500000000-94ecb4b90c55d3ba6b1c
submitter=submitter = University of Tokyo Team (Faculty of Engineering, University of Tokyo)
MoNA Rating=3.75

>  <NUM PEAKS>  (708) 
50

>  <MASS SPECTRAL PEAKS>  (708) 
15 1.51
24 1.27
25 4.65
26 1.5
27 6.08
29 53.7
35 3.36
36 2.82
37 11.62
38 11.72
39 4.53
46 24.72
47 5.15
48 2.35
49 14.93
50 71.17
51 27.44
52 8.14
60 4.35
61 4.52
62 8.48
63 5.38
64 6.89
65 1.07
72 1.6
73 10.57
74 3.05
75 16.5
76 66.52
77 11.19
84 4.32
85 62.13
86 6.39
87 19.46
88 1.35
100 26.51
101 1.55
102 9.01
111 1.03
112 99.99
113 6.39
114 31.68
115 1.9
128 1.96
141 1.29
142 2.45
158 78.08
159 7.42
160 26.27
161 2.38

>  <PREDICTED SPECTRUM>  (708) 
16 15
25 19
26 29
30 354
35 6
36 23
37 96
38 48
46 163
47 112
49 218
50 422
51 362
52 256
53 45
57 43
60 106
61 220
62 156
63 190
64 260
72 84
73 332
74 64
75 334
76 537
77 558
78 22
84 69
85 415
86 187
87 218
88 17
100 428
101 109
102 241
112 999
113 307
114 545
115 132
128 213
129 42
130 132
142 124
144 61
158 917
159 211
160 540
161 98

$$$$

     RDKit          2D

  9  9  0  0  0  0  0  0  0  0999 V2000
   -1.3000    0.7500    0.0000 C   0  0  0  0  0  0  0  0  0  0  0  0
   -0.0000   -1.5000    0.0000 C   0  0  0  0  0  0  0  0  0  0  0  0
    0.0000    1.5000    0.0000 C   0  0  0  0  0  0  0  0  0  0  0  0
    1.3000   -0.7500    0.0000 C   0  0  0  0  0  0  0  0  0  0  0  0
   -2.5989   -1.5002    0.0000 C   0  0  0  0  0  0  0  0  0  0  0  0
   -1.3000   -0.7500    0.0000 C   0  0  0  0  0  0  0  0  0  0  0  0
    1.3000    0.7500    0.0000 C   0  0  0  0  0  0  0  0  0  0  0  0
    2.5989    1.5002    0.0000 Br  0  0  0  0  0  0  0  0  0  0  0  0
   -3.8978   -2.2504    0.0000 N   0  0  0  0  0  0  0  0  0  0  0  0
  3  1  2  0
  4  2  1  0
  6  1  1  0
  6  2  2  0
  6  5  1  0
  7  3  1  0
  7  4  2  0
  8  7  1  0
  9  5  3  0
M  END
>  <NAME>  (709) 
4-BROMOBENZONITRILE

>  <SYNONYMS>  (709) 


>  <SPECTRUM TYPE>  (709) 
MS1

>  <INSTRUMENT TYPE>  (709) 
EI-B

>  <INSTRUMENT>  (709) 
HITACHI M-80

>  <ION MODE>  (709) 
P

>  <INCHIKEY>  (709) 
HQSCPPCMBMFJJN-UHFFFAOYSA-N

>  <FORMULA>  (709) 
C7H4BrN

>  <EXACT MASS>  (709) 
180.952711228

>  <MW>  (709) 
181

>  <ID>  (709) 
JP011058

>  <CONTRIBUTOR>  (709) 
University of Tokyo Team, {Faculty of Engineering, University of Tokyo

>  <COMMENT>  (709) 
SMILES=N#Cc(c1)ccc(Br)c1
cas=623-00-7
InChI=InChI=1S/C7H4BrN/c8-7-3-1-6(5-9)2-4-7/h1-4H
computed SMILES=N#CC1=CC=C(Br)C=C1
accession=JP011058
date=2016.01.19 (Created 2008.10.21, modified 2011.05.06)
author=YAMAMOTO M, DEP. CHEMISTRY, FAC. SCIENCE, NARA WOMEN'S UNIV.
license=CC BY-NC-SA
exact mass=180.95271
ionization energy=70 eV
ion type=[M]+*
computed spectral entropy=3.388951029615572
computed normalized entropy=0.8211390067393082
SPLASH=splash10-0ue9-9300000000-19ac731cb7f5d7982d47
submitter=submitter = University of Tokyo Team (Faculty of Engineering, University of Tokyo)
MoNA Rating=3.75

>  <NUM PEAKS>  (709) 
62

>  <MASS SPECTRAL PEAKS>  (709) 
12 2.3
14 2.47
24 1.57
25 6.67
26 23.55
27 16.99
28 11.01
36 8.27
37 49.19
38 41.86
39 14.64
40 4.51
41 1.77
48 4.59
49 27.41
50 95.4
51 65.57
52 14.59
60 4.14
61 14.91
62 16.24
63 16.4
64 12.44
65 1.61
72 2.56
73 14.77
74 40.89
75 76.94
76 41.86
77 2.91
79 39.04
80 8.13
81 40.41
82 8.23
83 1.21
84 1.15
85 2.08
86 2.81
87 2.2
88 1.65
90 1.75
91 2.18
93 2.68
98 1.68
99 13.39
100 10.25
101 5.86
102 99.99
103 8.44
104 3.24
105 1.23
106 4.05
107 1
116 2.18
117 3.55
118 2.48
119 3.2
130 1.17
181 81.42
182 8.44
183 78.88
184 7.9

>  <PREDICTED SPECTRUM>  (709) 
25 36
26 63
27 28
31 2
35 0
36 62
37 177
38 236
39 184
40 52
41 32
44 12
47 33
48 148
49 207
50 479
51 347
52 210
53 63
55 34
56 19
57 52
60 48
61 206
62 206
63 211
64 138
65 116
69 70
70 96
71 3
72 28
73 147
74 372
75 582
76 443
77 74
78 33
79 90
81 98
82 1
84 4
85 56
86 70
87 39
99 30
100 181
101 198
102 999
103 328
157 80
181 694
182 184
183 632
184 182

$$$$

     RDKit          2D

  6  6  0  0  0  0  0  0  0  0999 V2000
   -1.1900    1.1700    0.0000 C   0  0  0  0  0  0  0  0  0  0  0  0
   -1.6500   -0.2500    0.0000 C   0  0  0  0  0  0  0  0  0  0  0  0
    0.7700   -0.2500    0.0000 C   0  0  0  0  0  0  0  0  0  0  0  0
    2.1960   -0.7153    0.0000 N   0  0  0  0  0  0  0  0  0  0  0  0
    0.3100    1.1800    0.0000 N   0  0  0  0  0  0  0  0  0  0  0  0
   -0.4400   -1.1300    0.0000 S   0  0  0  0  0  0  0  0  0  0  0  0
  2  1  2  0
  4  3  2  0
  5  1  1  0
  5  3  1  0
  6  2  1  0
  6  3  1  0
M  END
>  <NAME>  (710) 
2-AMINOTHIAZOLE

>  <SYNONYMS>  (710) 


>  <SPECTRUM TYPE>  (710) 
MS1

>  <INSTRUMENT TYPE>  (710) 
EI-B

>  <INSTRUMENT>  (710) 
HITACHI M-80

>  <ION MODE>  (710) 
P

>  <INCHIKEY>  (710) 
RAIPHJJURHTUIC-UHFFFAOYSA-N

>  <FORMULA>  (710) 
C3H4N2S

>  <EXACT MASS>  (710) 
100.009519128

>  <MW>  (710) 
100

>  <ID>  (710) 
JP011057

>  <CONTRIBUTOR>  (710) 
University of Tokyo Team, {Faculty of Engineering, University of Tokyo

>  <COMMENT>  (710) 
SMILES=Nc(n1)scc1
cas=96-50-4
InChI=InChI=1S/C3H4N2S/c4-3-5-1-2-6-3/h1-2H,(H2,4,5)
computed SMILES=N=C1SC=CN1
accession=JP011057
date=2016.01.19 (Created 2008.10.21, modified 2011.05.06)
author=YAMAMOTO M, DEP. CHEMISTRY, FAC. SCIENCE, NARA WOMEN'S UNIV.
license=CC BY-NC-SA
exact mass=100.00952
ionization energy=70 eV
ion type=[M]+*
computed spectral entropy=2.505495747549682
computed normalized entropy=0.7366510867785195
SPLASH=splash10-0zfr-9400000000-e3242ff5e4e20606e66d
submitter=submitter = University of Tokyo Team (Faculty of Engineering, University of Tokyo)
MoNA Rating=3.75

>  <NUM PEAKS>  (710) 
30

>  <MASS SPECTRAL PEAKS>  (710) 
18 2.17
26 3.16
27 4.37
28 27.07
29 1.56
32 4.06
38 1.69
39 2.48
40 4.63
41 3.21
42 6.07
43 7.82
44 3.38
45 19.5
46 6.82
47 2.33
53 1.95
55 5.93
57 13.63
58 74.13
59 4.75
60 10.5
70 2.05
71 1.29
72 1.2
73 17.31
74 1.77
100 99.99
101 6.7
102 4.83

>  <PREDICTED SPECTRUM>  (710) 
25 6
28 72
32 8
33 48
34 8
38 43
39 169
40 151
41 195
42 132
43 205
44 223
45 381
46 250
47 65
52 85
54 65
55 26
56 112
57 190
58 258
59 35
60 44
67 58
70 90
71 64
72 133
73 474
74 122
75 53
84 208
99 121
100 999
101 182
102 153

$$$$

     RDKit          2D

 14 15  0  0  0  0  0  0  0  0999 V2000
    2.5986    1.0700    0.0000 C   0  0  0  0  0  0  0  0  0  0  0  0
   -5.1957    1.0700    0.0000 C   0  0  0  0  0  0  0  0  0  0  0  0
    2.5990    2.5708    0.0000 C   0  0  0  0  0  0  0  0  0  0  0  0
    1.2990    0.3192    0.0000 C   0  0  0  0  0  0  0  0  0  0  0  0
   -3.8962    0.3192    0.0000 C   0  0  0  0  0  0  0  0  0  0  0  0
   -5.1962    2.5708    0.0000 C   0  0  0  0  0  0  0  0  0  0  0  0
    1.3000    3.3208    0.0000 C   0  0  0  0  0  0  0  0  0  0  0  0
    0.0000    1.0692    0.0000 C   0  0  0  0  0  0  0  0  0  0  0  0
   -2.5971    1.0692    0.0000 C   0  0  0  0  0  0  0  0  0  0  0  0
   -3.8971    3.3208    0.0000 C   0  0  0  0  0  0  0  0  0  0  0  0
    0.0005    2.5700    0.0000 C   0  0  0  0  0  0  0  0  0  0  0  0
   -2.5976    2.5700    0.0000 C   0  0  0  0  0  0  0  0  0  0  0  0
   -1.2986    3.3200    0.0000 C   0  0  0  0  0  0  0  0  0  0  0  0
   -1.2986    4.8200    0.0000 O   0  0  0  0  0  0  0  0  0  0  0  0
  3  1  2  0
  4  1  1  0
  5  2  2  0
  6  2  1  0
  7  3  1  0
  8  4  2  0
  9  5  1  0
 10  6  2  0
 11  7  2  0
 11  8  1  0
 12  9  2  0
 12 10  1  0
 13 11  1  0
 13 12  1  0
 14 13  1  0
M  END
>  <NAME>  (711) 
BENZHYDROL

>  <SYNONYMS>  (711) 


>  <SPECTRUM TYPE>  (711) 
MS1

>  <INSTRUMENT TYPE>  (711) 
EI-B

>  <INSTRUMENT>  (711) 
HITACHI M-80

>  <ION MODE>  (711) 
P

>  <INCHIKEY>  (711) 
QILSFLSDHQAZET-UHFFFAOYSA-N

>  <FORMULA>  (711) 
C13H12O

>  <EXACT MASS>  (711) 
184.088815004

>  <MW>  (711) 
184

>  <ID>  (711) 
JP011056

>  <CONTRIBUTOR>  (711) 
University of Tokyo Team, {Faculty of Engineering, University of Tokyo

>  <COMMENT>  (711) 
SMILES=c(c2)ccc(c2)C(O)c(c1)cccc1
cas=91-01-0
InChI=InChI=1S/C13H12O/c14-13(11-7-3-1-4-8-11)12-9-5-2-6-10-12/h1-10,13-14H
computed SMILES=OC(C=1C=CC=CC1)C=2C=CC=CC2
accession=JP011056
date=2016.01.19 (Created 2008.10.21, modified 2011.05.06)
author=YAMAMOTO M, DEP. CHEMISTRY, FAC. SCIENCE, NARA WOMEN'S UNIV.
license=CC BY-NC-SA
exact mass=184.08882
ionization energy=70 eV
ion type=[M]+*
computed spectral entropy=2.7676466637250976
computed normalized entropy=0.7608470403717602
SPLASH=splash10-057i-8900000000-1e9a474626dc4828f2e1
submitter=submitter = University of Tokyo Team (Faculty of Engineering, University of Tokyo)
MoNA Rating=3.75

>  <NUM PEAKS>  (711) 
38

>  <MASS SPECTRAL PEAKS>  (711) 
18 1.05
26 1.04
27 5.55
29 3.42
38 2.03
39 8.33
50 11.27
51 29.18
52 5.97
53 2.59
62 1.96
63 1.05
74 3.8
75 2.99
76 3.42
77 55.18
78 40.54
79 35.69
80 2.34
87 1.04
89 1.53
105 99.99
106 11.24
107 14.64
108 1.08
115 2.4
128 1.35
139 1.37
152 3.09
153 1.51
155 2.8
165 8.67
166 3.8
167 5.57
168 1.42
183 16.1
184 50.54
185 7.03

>  <PREDICTED SPECTRUM>  (711) 
17 13
18 5
26 10
27 34
28 59
29 58
37 13
38 75
39 252
40 49
41 145
42 24
47 50
49 20
50 266
51 472
52 240
53 168
54 37
55 70
56 57
57 84
60 6
61 4
62 106
63 212
64 109
65 210
66 58
70 63
71 71
74 134
75 204
76 201
77 774
78 464
79 597
80 175
81 48
83 120
84 115
85 50
86 5
88 23
89 188
90 162
91 197
92 54
94 19
97 40
98 17
99 42
102 65
103 72
104 18
105 999
106 453
107 780
108 226
109 38
111 20
112 31
113 35
115 85
116 58
123 67
124 21
128 100
137 30
139 115
150 33
151 149
152 339
153 245
154 216
155 83
163 128
164 114
165 334
166 280
167 290
168 192
169 68
170 10
181 14
182 13
183 396
184 567
185 227

$$$$

     RDKit          2D

  5  4  0  0  0  0  0  0  0  0999 V2000
   -1.2990    0.7500    0.0000 C   0  0  0  0  0  0  0  0  0  0  0  0
    0.7500    0.2010    0.0000 C   0  0  0  0  0  0  0  0  0  0  0  0
    1.2990    2.2500    0.0000 C   0  0  0  0  0  0  0  0  0  0  0  0
    0.0000    1.5000    0.0000 C   0  0  0  0  0  0  0  0  0  0  0  0
   -0.7500    2.7990    0.0000 N   0  0  0  0  0  0  0  0  0  0  0  0
  4  1  1  0
  4  2  1  0
  4  3  1  0
  5  4  1  0
M  END
>  <NAME>  (712) 
TERT-BUTYLAMINE

>  <SYNONYMS>  (712) 


>  <SPECTRUM TYPE>  (712) 
MS1

>  <INSTRUMENT TYPE>  (712) 
EI-B

>  <INSTRUMENT>  (712) 
HITACHI M-80

>  <ION MODE>  (712) 
P

>  <INCHIKEY>  (712) 
YBRBMKDOPFTVDT-UHFFFAOYSA-N

>  <FORMULA>  (712) 
C4H11N

>  <EXACT MASS>  (712) 
73.08914935199999

>  <MW>  (712) 
73

>  <ID>  (712) 
JP011054

>  <CONTRIBUTOR>  (712) 
University of Tokyo Team, {Faculty of Engineering, University of Tokyo

>  <COMMENT>  (712) 
SMILES=CC(C)(C)N
cas=75-64-9
InChI=InChI=1S/C4H11N/c1-4(2,3)5/h5H2,1-3H3
computed SMILES=NC(C)(C)C
accession=JP011054
date=2016.01.19 (Created 2008.10.21, modified 2011.05.06)
author=YAMAMOTO M, DEP. CHEMISTRY, FAC. SCIENCE, NARA WOMEN'S UNIV.
license=CC BY-NC-SA
exact mass=73.08915
ionization energy=70 eV
ion type=[M]+*
computed spectral entropy=1.6966435893865497
computed normalized entropy=0.598840744889872
SPLASH=splash10-0a4i-9000000000-95c6e9f87d3e0e977232
submitter=submitter = University of Tokyo Team (Faculty of Engineering, University of Tokyo)
MoNA Rating=3.75

>  <NUM PEAKS>  (712) 
17

>  <MASS SPECTRAL PEAKS>  (712) 
15 3.89
18 6.11
27 2.03
28 3.61
29 2.62
30 9.77
39 3.39
41 14.26
42 10.88
43 2.43
55 1.01
56 1.95
57 5.35
58 99.99
59 4.32
73 0.22
74 0.22

>  <PREDICTED SPECTRUM>  (712) 
14 67
15 178
26 47
27 147
28 174
29 79
30 102
31 47
32 54
38 47
39 368
40 190
41 638
42 605
43 180
45 57
53 85
54 152
55 241
56 539
57 691
58 999
59 416
60 77
72 52
73 430
74 67
75 17

$$$$

     RDKit          2D

 10 10  0  0  0  0  0  0  0  0999 V2000
   -2.5981   -0.4300    0.0000 C   0  0  0  0  0  0  0  0  0  0  0  0
   -1.2986   -1.1808    0.0000 C   0  0  0  0  0  0  0  0  0  0  0  0
   -2.5986    1.0708    0.0000 C   0  0  0  0  0  0  0  0  0  0  0  0
    0.0005   -0.4308    0.0000 C   0  0  0  0  0  0  0  0  0  0  0  0
   -1.2995    1.8208    0.0000 C   0  0  0  0  0  0  0  0  0  0  0  0
    0.0000    1.0700    0.0000 C   0  0  0  0  0  0  0  0  0  0  0  0
    1.2990    1.8200    0.0000 C   0  0  0  0  0  0  0  0  0  0  0  0
    2.0490    0.5210    0.0000 Cl  0  0  0  0  0  0  0  0  0  0  0  0
    2.5981    2.5700    0.0000 Cl  0  0  0  0  0  0  0  0  0  0  0  0
    0.5490    3.1190    0.0000 Cl  0  0  0  0  0  0  0  0  0  0  0  0
  2  1  2  0
  3  1  1  0
  4  2  1  0
  5  3  2  0
  6  4  2  0
  6  5  1  0
  7  6  1  0
  8  7  1  0
  9  7  1  0
 10  7  1  0
M  END
>  <NAME>  (713) 
ALPHA,ALPHA,ALPHA-TRICHLOROTOLUENE

>  <SYNONYMS>  (713) 
BENZOTRICHLORIDE

>  <SPECTRUM TYPE>  (713) 
MS1

>  <INSTRUMENT TYPE>  (713) 
EI-B

>  <INSTRUMENT>  (713) 
HITACHI M-80

>  <ION MODE>  (713) 
P

>  <INCHIKEY>  (713) 
XEMRAKSQROQPBR-UHFFFAOYSA-N

>  <FORMULA>  (713) 
C7H5Cl3

>  <EXACT MASS>  (713) 
193.9456832

>  <MW>  (713) 
194

>  <ID>  (713) 
JP011053

>  <CONTRIBUTOR>  (713) 
University of Tokyo Team, {Faculty of Engineering, University of Tokyo

>  <COMMENT>  (713) 
SMILES=c(c1)ccc(c1)C(Cl)(Cl)Cl
cas=98-07-7
InChI=InChI=1S/C7H5Cl3/c8-7(9,10)6-4-2-1-3-5-6/h1-5H
computed SMILES=ClC(Cl)(Cl)C=1C=CC=CC1
accession=JP011053
date=2016.01.19 (Created 2008.10.21, modified 2011.05.06)
author=YAMAMOTO M, DEP. CHEMISTRY, FAC. SCIENCE, NARA WOMEN'S UNIV.
license=CC BY-NC-SA
exact mass=193.94568
ionization energy=70 eV
ion type=[M]+*
computed spectral entropy=3.0322569782989253
computed normalized entropy=0.7566770313666892
SPLASH=splash10-0bt9-5900000000-2577ce9240d2f069ac70
submitter=submitter = University of Tokyo Team (Faculty of Engineering, University of Tokyo)
MoNA Rating=3.75

>  <NUM PEAKS>  (713) 
55

>  <MASS SPECTRAL PEAKS>  (713) 
26 1.97
27 2.11
28 1.88
31 1
32 1.06
35 3.25
36 1.77
37 3.14
38 3.47
39 8.32
44 1.16
49 1.93
50 7.11
51 8.41
61 4.01
62 9.01
63 16.09
64 1.03
72 1.74
73 4.79
74 2.29
75 2.53
76 1.02
77 6.8
79 2.1
80 1.26
84 1.74
85 1.88
86 2.27
87 3.32
88 1.71
89 31.15
90 2.33
97 3.76
99 3.26
105 9.32
106 1.01
107 1.02
123 9.49
124 7.23
125 4.13
126 2.49
133 2.27
135 1.36
159 99.99
160 7.96
161 65.59
162 5
163 10.7
176 1.63
177 1.16
178 5.75
194 3.74
196 3.53
198 1.14

>  <PREDICTED SPECTRUM>  (713) 
25 7
26 23
28 4
35 82
36 85
37 103
38 101
39 129
40 4
43 90
44 49
45 4
47 62
48 0
49 149
50 233
51 279
52 105
53 9
55 12
57 29
60 82
61 124
62 199
63 229
64 65
65 2
69 44
71 13
72 46
73 105
74 166
75 180
76 45
77 120
78 58
79 44
80 19
81 43
82 89
83 10
84 77
85 68
86 121
87 156
88 119
89 306
90 85
91 150
93 4
95 15
96 79
97 134
98 85
99 100
107 104
114 3
123 235
124 344
125 197
126 263
127 91
128 5
131 42
133 60
134 3
158 16
159 999
160 180
161 826
162 181
163 326
164 33
194 258
195 79
196 238
197 38
198 123

$$$$

     RDKit          2D

 10 10  0  0  0  0  0  0  0  0999 V2000
   -0.9743    3.5075    0.0000 C   0  0  0  0  0  0  0  0  0  0  0  0
    2.9228   -0.2425    0.0000 C   0  0  0  0  0  0  0  0  0  0  0  0
    2.9233    1.2583    0.0000 C   0  0  0  0  0  0  0  0  0  0  0  0
    1.6233   -0.9933    0.0000 C   0  0  0  0  0  0  0  0  0  0  0  0
    1.6243    2.0083    0.0000 C   0  0  0  0  0  0  0  0  0  0  0  0
    0.3243   -0.2433    0.0000 C   0  0  0  0  0  0  0  0  0  0  0  0
   -2.2733    1.2575    0.0000 C   0  0  0  0  0  0  0  0  0  0  0  0
   -0.9743    2.0075    0.0000 C   0  0  0  0  0  0  0  0  0  0  0  0
    0.3248    1.2575    0.0000 C   0  0  0  0  0  0  0  0  0  0  0  0
   -3.5724    2.0075    0.0000 Br  0  0  0  0  0  0  0  0  0  0  0  0
  3  2  2  0
  4  2  1  0
  5  3  1  0
  6  4  2  0
  8  1  1  0
  8  7  1  0
  9  5  2  0
  9  6  1  0
  9  8  1  0
 10  7  1  0
M  END
>  <NAME>  (714) 
BETA-BROMOISOPROPYLBENZENE

>  <SYNONYMS>  (714) 


>  <SPECTRUM TYPE>  (714) 
MS1

>  <INSTRUMENT TYPE>  (714) 
EI-B

>  <INSTRUMENT>  (714) 
HITACHI M-80

>  <ION MODE>  (714) 
P

>  <INCHIKEY>  (714) 
XJWVCWQKZQENDS-UHFFFAOYSA-N

>  <FORMULA>  (714) 
C9H11Br

>  <EXACT MASS>  (714) 
198.004412452

>  <MW>  (714) 
198

>  <ID>  (714) 
JP011052

>  <CONTRIBUTOR>  (714) 
University of Tokyo Team, {Faculty of Engineering, University of Tokyo

>  <COMMENT>  (714) 
SMILES=BrCC(C)c(c1)cccc1
cas=1459-00-3
InChI=InChI=1S/C9H11Br/c1-8(7-10)9-5-3-2-4-6-9/h2-6,8H,7H2,1H3
computed SMILES=BrCC(C=1C=CC=CC1)C
accession=JP011052
date=2016.01.19 (Created 2008.10.21, modified 2011.05.06)
author=YAMAMOTO M, DEP. CHEMISTRY, FAC. SCIENCE, NARA WOMEN'S UNIV.
license=CC BY-NC-SA
exact mass=198.00441
ionization energy=70 eV
ion type=[M]+*
computed spectral entropy=2.710400887738934
computed normalized entropy=0.7623447383667655
SPLASH=splash10-0a4i-5900000000-2f4b9c6f5326346a6080
submitter=submitter = University of Tokyo Team (Faculty of Engineering, University of Tokyo)
MoNA Rating=3.75

>  <NUM PEAKS>  (714) 
35

>  <MASS SPECTRAL PEAKS>  (714) 
15 1.13
27 3.4
28 1.24
39 6.49
41 5.27
50 3.36
51 7.58
52 1.78
63 3.14
65 3.46
74 1.12
75 1.19
76 1.42
77 11.54
78 7.97
79 7.83
89 1.73
91 28.14
92 2.47
93 2.01
95 1.93
102 2.21
103 12.14
104 15.48
105 99.99
106 9.03
115 4.14
116 1.08
117 6.33
118 4.51
119 8.95
198 11.03
199 1.15
200 10.59
201 1.09

>  <PREDICTED SPECTRUM>  (714) 
15 9
26 56
27 189
28 12
29 53
32 21
37 67
38 147
39 329
40 94
41 236
42 104
43 93
49 5
50 245
51 403
52 211
53 118
61 59
62 114
63 165
64 121
65 219
66 55
74 188
75 94
76 103
77 511
78 344
79 331
80 116
81 44
82 90
86 26
87 13
89 82
90 18
91 564
92 102
93 22
102 124
103 497
104 182
105 999
106 403
107 129
115 146
117 26
118 201
119 320
120 230
121 6
128 98
185 17
198 218
199 57
200 258
201 65

$$$$

     RDKit          2D

  4  3  0  0  0  0  0  0  0  0999 V2000
   -2.5981    2.2500    0.0000 C   0  0  0  0  0  0  0  0  0  0  0  0
   -1.2990    1.5000    0.0000 C   0  0  0  0  0  0  0  0  0  0  0  0
    0.0000    2.2500    0.0000 C   0  0  0  0  0  0  0  0  0  0  0  0
    1.2990    1.5000    0.0000 O   0  0  0  0  0  0  0  0  0  0  0  0
  2  1  2  0
  3  2  1  0
  4  3  2  0
M  END
>  <NAME>  (715) 
ACROLEIN

>  <SYNONYMS>  (715) 


>  <SPECTRUM TYPE>  (715) 
MS1

>  <INSTRUMENT TYPE>  (715) 
EI-B

>  <INSTRUMENT>  (715) 
HITACHI M-80

>  <ION MODE>  (715) 
P

>  <INCHIKEY>  (715) 
HGINCPLSRVDWNT-UHFFFAOYSA-N

>  <FORMULA>  (715) 
C3H4O

>  <EXACT MASS>  (715) 
56.026214748

>  <MW>  (715) 
56

>  <ID>  (715) 
JP011051

>  <CONTRIBUTOR>  (715) 
University of Tokyo Team, {Faculty of Engineering, University of Tokyo

>  <COMMENT>  (715) 
SMILES=C=CC=O
cas=107-02-8
InChI=InChI=1S/C3H4O/c1-2-3-4/h2-3H,1H2
computed SMILES=O=CC=C
ionization energy=70 eV
accession=JP011051
date=2016.01.19 (Created 2008.10.21, modified 2011.05.06)
author=YAMAMOTO M, DEP. CHEMISTRY, FAC. SCIENCE, NARA WOMEN'S UNIV.
license=CC BY-NC-SA
exact mass=56.02621
ion type=[M]+*
computed spectral entropy=2.0838347429554833
computed normalized entropy=0.7355022336482883
SPLASH=splash10-004i-9000000000-a667e77a9d666459b411
submitter=submitter = University of Tokyo Team (Faculty of Engineering, University of Tokyo)
MoNA Rating=3.75

>  <NUM PEAKS>  (715) 
17

>  <MASS SPECTRAL PEAKS>  (715) 
13 1.25
14 1.34
24 1.24
25 7.4
26 62.29
27 99.99
28 36.07
29 42.18
30 1.07
36 1.03
37 4.33
38 4.85
39 6.19
53 3.2
55 31.55
56 38.69
57 4.29

>  <PREDICTED SPECTRUM>  (715) 
14 52
15 72
16 61
17 7
18 86
19 14
25 145
26 421
27 999
28 761
29 723
30 51
31 87
35 59
36 102
37 263
38 359
39 228
40 151
41 75
42 302
50 259
51 319
52 219
53 405
54 318
55 633
56 812
57 355
58 21
61 31

$$$$

     RDKit          2D

 16 15  0  0  0  0  0  0  0  0999 V2000
    2.5111    3.6998    0.0000 C   0  0  0  0  0  0  0  0  0  0  0  0
    1.2120    5.9498    0.0000 C   0  0  0  0  0  0  0  0  0  0  0  0
   -1.3861    1.4498    0.0000 C   0  0  0  0  0  0  0  0  0  0  0  0
   -3.9841    1.4498    0.0000 C   0  0  0  0  0  0  0  0  0  0  0  0
   -0.0870    6.6998    0.0000 C   0  0  0  0  0  0  0  0  0  0  0  0
   -6.0332    4.9988    0.0000 C   0  0  0  0  0  0  0  0  0  0  0  0
   -6.5822    2.9498    0.0000 C   0  0  0  0  0  0  0  0  0  0  0  0
   -4.5332    2.4007    0.0000 C   0  0  0  0  0  0  0  0  0  0  0  0
   -0.0870    3.6998    0.0000 C   0  0  0  0  0  0  0  0  0  0  0  0
   -3.9841    4.4498    0.0000 C   0  0  0  0  0  0  0  0  0  0  0  0
    1.2120    4.4498    0.0000 C   0  0  0  0  0  0  0  0  0  0  0  0
   -2.6851    2.1998    0.0000 C   0  0  0  0  0  0  0  0  0  0  0  0
   -2.6851    3.6998    0.0000 C   0  0  0  0  0  0  0  0  0  0  0  0
   -1.3861    4.4498    0.0000 C   0  0  0  0  0  0  0  0  0  0  0  0
   -1.3861    5.9498    0.0000 O   0  0  0  0  0  0  0  0  0  0  0  0
   -5.2832    3.6998    0.0000 Si  0  0  0  0  0  4  0  0  0  0  0  0
 11  1  1  0
 11  2  1  0
 11  9  1  0
 12  3  2  0
 12  4  1  0
 13 10  1  0
 13 12  1  0
 14  9  1  0
 14 13  1  0
 15  5  1  0
 15 14  1  0
 16  6  1  0
 16  7  1  0
 16  8  1  0
 16 10  1  0
M  END
>  <NAME>  (716) 
4-METHOXY-2,6-DIMETHYL-3-TRIMETHYLSILYLMETHYL-1-HEPTENE

>  <SYNONYMS>  (716) 


>  <SPECTRUM TYPE>  (716) 
MS1

>  <INSTRUMENT TYPE>  (716) 
EI-B

>  <INSTRUMENT>  (716) 
JEOL JMS-DX-300

>  <ION MODE>  (716) 
P

>  <INCHIKEY>  (716) 
DJNCIINENXRGIP-UHFFFAOYSA-N

>  <FORMULA>  (716) 
C14H30OSi

>  <EXACT MASS>  (716) 
242.20659210999997

>  <MW>  (716) 
242

>  <ID>  (716) 
JP010952

>  <CONTRIBUTOR>  (716) 
University of Tokyo Team, {Faculty of Engineering, University of Tokyo

>  <COMMENT>  (716) 
SMILES=CC(C)CC(OC)C(C(C)=C)C[Si](C)(C)C
InChI=InChI=1S/C14H30OSi/c1-11(2)9-14(15-5)13(12(3)4)10-16(6,7)8/h11,13-14H,3,9-10H2,1-2,4-8H3
computed SMILES=O(C)C(CC(C)C)C(C(=C)C)C[Si](C)(C)C
accession=JP010952
date=2016.01.19 (Created 2008.10.21, modified 2011.05.06)
author=HISAHIRO HAGIWARA, INSTITUTE FOR CHEMICAL REACTION SCIENCE TOHOKU UNIV.
license=CC BY-NC-SA
exact mass=242.20659
ionization energy=70 eV
ion type=[M]+*
computed spectral entropy=2.6536414654398923
computed normalized entropy=0.6854827372597603
SPLASH=splash10-106r-9300000000-b7048e54bd6798d6c71b
submitter=submitter = University of Tokyo Team (Faculty of Engineering, University of Tokyo)
MoNA Rating=3.75

>  <NUM PEAKS>  (716) 
48

>  <MASS SPECTRAL PEAKS>  (716) 
52 6.03
53 0.73
55 5.8
56 0.7
57 2.24
58 6.23
59 52.37
60 2.92
61 1.03
65 0.91
67 3.71
68 2.22
69 64.21
70 5.51
71 15.07
72 2.75
73 68.16
74 7.11
75 5
77 1.52
79 2.53
80 0.65
81 8.46
82 1.98
83 2.14
85 4.73
89 20.1
90 1.83
91 1.16
95 2.54
96 0.64
97 1.12
99 0.78
101 99.99
102 8.82
103 1.2
109 1.25
111 4.31
112 0.51
123 0.66
126 0.93
137 1.16
141 1.71
142 3.27
155 0.7
195 0.54
211 1.3
242 0.63

>  <PREDICTED SPECTRUM>  (716) 
32 0
39 101
40 23
41 209
42 38
43 109
45 240
46 24
51 68
52 14
53 86
55 240
56 4
57 67
58 89
59 471
60 1
61 70
62 17
65 54
67 142
68 25
69 596
70 148
71 220
72 59
73 699
74 126
75 64
76 28
77 112
79 46
81 176
82 122
83 88
85 36
86 10
88 36
89 458
90 84
91 102
93 20
95 142
96 39
97 120
99 41
100 88
101 999
102 304
103 60
107 5
109 178
110 92
111 0
123 64
125 21
141 201
142 173
143 89
242 1

$$$$

     RDKit          2D

 19 18  0  0  0  0  0  0  0  0999 V2000
    3.4853    6.5123    0.0000 C   0  0  0  0  0  0  0  0  0  0  0  0
   -5.6079    4.2623    0.0000 C   0  0  0  0  0  0  0  0  0  0  0  0
   -8.2060    4.2623    0.0000 C   0  0  0  0  0  0  0  0  0  0  0  0
   -6.9070    9.5123    0.0000 C   0  0  0  0  0  0  0  0  0  0  0  0
  -10.2550    7.8113    0.0000 C   0  0  0  0  0  0  0  0  0  0  0  0
  -10.8041    5.7623    0.0000 C   0  0  0  0  0  0  0  0  0  0  0  0
   -8.7550    5.2132    0.0000 C   0  0  0  0  0  0  0  0  0  0  0  0
    2.1863    7.2623    0.0000 C   0  0  0  0  0  0  0  0  0  0  0  0
    0.8873    6.5123    0.0000 C   0  0  0  0  0  0  0  0  0  0  0  0
   -0.4118    7.2623    0.0000 C   0  0  0  0  0  0  0  0  0  0  0  0
   -1.7108    6.5123    0.0000 C   0  0  0  0  0  0  0  0  0  0  0  0
   -3.0099    7.2623    0.0000 C   0  0  0  0  0  0  0  0  0  0  0  0
   -4.3089    6.5123    0.0000 C   0  0  0  0  0  0  0  0  0  0  0  0
   -8.2060    7.2623    0.0000 C   0  0  0  0  0  0  0  0  0  0  0  0
   -6.9070    5.0123    0.0000 C   0  0  0  0  0  0  0  0  0  0  0  0
   -6.9070    6.5123    0.0000 C   0  0  0  0  0  0  0  0  0  0  0  0
   -5.6079    7.2623    0.0000 C   0  0  0  0  0  0  0  0  0  0  0  0
   -5.6079    8.7623    0.0000 O   0  0  0  0  0  0  0  0  0  0  0  0
   -9.5050    6.5123    0.0000 Si  0  0  0  0  0  4  0  0  0  0  0  0
  8  1  1  0
  9  8  1  0
 10  9  1  0
 11 10  1  0
 12 11  1  0
 13 12  1  0
 15  2  2  0
 15  3  1  0
 16 14  1  0
 16 15  1  0
 17 13  1  0
 17 16  1  0
 18  4  1  0
 18 17  1  0
 19  5  1  0
 19  6  1  0
 19  7  1  0
 19 14  1  0
M  END
>  <NAME>  (717) 
4-METHOXY-2-METHYL-3-TRIMETHYLSILYLMETHYL-1-UNDECENE

>  <SYNONYMS>  (717) 


>  <SPECTRUM TYPE>  (717) 
MS1

>  <INSTRUMENT TYPE>  (717) 
EI-B

>  <INSTRUMENT>  (717) 
JEOL JMS-DX-300

>  <ION MODE>  (717) 
P

>  <INCHIKEY>  (717) 
PPIZSCBITAXNHZ-UHFFFAOYSA-N

>  <FORMULA>  (717) 
C17H36OSi

>  <EXACT MASS>  (717) 
284.25354230199997

>  <MW>  (717) 
284

>  <ID>  (717) 
JP010951

>  <CONTRIBUTOR>  (717) 
University of Tokyo Team, {Faculty of Engineering, University of Tokyo

>  <COMMENT>  (717) 
SMILES=CCCCCCCC(OC)C(C(C)=C)C[Si](C)(C)C
InChI=InChI=1S/C17H36OSi/c1-8-9-10-11-12-13-17(18-4)16(15(2)3)14-19(5,6)7/h16-17H,2,8-14H2,1,3-7H3
computed SMILES=O(C)C(CCCCCCC)C(C(=C)C)C[Si](C)(C)C
accession=JP010951
date=2016.01.19 (Created 2008.10.21, modified 2011.05.06)
author=HISAHIRO HAGIWARA, INSTITUTE FOR CHEMICAL REACTION SCIENCE TOHOKU UNIV.
license=CC BY-NC-SA
exact mass=284.25354
ionization energy=70 eV
ion type=[M]+*
computed spectral entropy=2.9044213620708703
computed normalized entropy=0.7281105484922804
SPLASH=splash10-06dl-9200000000-c1cdcb1ea9fdd07e9cf9
submitter=submitter = University of Tokyo Team (Faculty of Engineering, University of Tokyo)
MoNA Rating=3.75

>  <NUM PEAKS>  (717) 
54

>  <MASS SPECTRAL PEAKS>  (717) 
52 5.86
53 1.73
55 42.85
56 3.36
57 11.25
58 11.6
59 19.87
60 1.57
61 0.94
65 0.88
66 0.72
67 6.67
68 3.89
69 99.99
70 7.99
71 14.69
72 3.6
73 70.9
74 7.53
75 5.23
77 1.38
79 2.98
80 0.59
81 9.7
82 2.09
83 5.89
84 0.72
85 2.25
89 24.19
90 2.28
91 1.52
93 0.52
95 2.39
96 0.66
97 1.22
99 0.78
101 0.94
103 0.58
105 0.79
109 1.62
110 1.39
111 32.17
112 3.34
126 0.89
141 1.95
142 5.47
143 62.63
144 7.81
145 0.57
179 1.15
180 0.6
237 0.59
253 2.44
254 0.57

>  <PREDICTED SPECTRUM>  (717) 
29 29
39 103
40 18
41 301
42 77
43 228
44 71
45 180
51 19
52 5
53 90
54 46
55 536
56 164
57 256
58 247
59 510
61 124
62 6
65 50
67 237
68 83
69 784
70 221
71 309
72 64
73 893
74 269
75 230
77 136
78 18
79 72
81 185
82 130
83 196
84 45
85 136
89 582
90 95
91 173
92 2
93 191
95 231
96 53
97 236
99 22
101 109
104 6
105 56
107 53
109 198
110 86
111 330
113 40
115 33
125 32
141 51
142 220
143 999
144 393
145 5
151 6
157 22
185 29

$$$$

     RDKit          2D

 18 18  0  0  0  0  0  0  0  0999 V2000
    1.9902    4.2400    0.0000 C   0  0  0  0  0  0  0  0  0  0  0  0
   -0.4512    5.1286    0.0000 C   0  0  0  0  0  0  0  0  0  0  0  0
    3.9186    3.1981    0.0000 C   0  0  0  0  0  0  0  0  0  0  0  0
   -1.8481    1.2710    0.0000 C   0  0  0  0  0  0  0  0  0  0  0  0
   -3.8971    1.8200    0.0000 C   0  0  0  0  0  0  0  0  0  0  0  0
   -3.3481    3.8690    0.0000 C   0  0  0  0  0  0  0  0  0  0  0  0
    0.0000   -1.9300    0.0000 C   0  0  0  0  0  0  0  0  0  0  0  0
    1.3000   -1.1800    0.0000 C   0  0  0  0  0  0  0  0  0  0  0  0
   -1.3000   -1.1800    0.0000 C   0  0  0  0  0  0  0  0  0  0  0  0
    1.3000    0.3200    0.0000 C   0  0  0  0  0  0  0  0  0  0  0  0
   -1.3000    0.3200    0.0000 C   0  0  0  0  0  0  0  0  0  0  0  0
    1.4772    2.3095    0.0000 C   0  0  0  0  0  0  0  0  0  0  0  0
   -1.2990    3.3200    0.0000 C   0  0  0  0  0  0  0  0  0  0  0  0
    0.5130    3.9795    0.0000 C   0  0  0  0  0  0  0  0  0  0  0  0
    0.0000    1.0700    0.0000 C   0  0  0  0  0  0  0  0  0  0  0  0
    0.0000    2.5700    0.0000 C   0  0  0  0  0  0  0  0  0  0  0  0
    2.4414    3.4586    0.0000 O   0  0  0  0  0  0  0  0  0  0  0  0
   -2.5981    2.5700    0.0000 Si  0  0  0  0  0  4  0  0  0  0  0  0
  8  7  2  0
  9  7  1  0
 10  8  1  0
 11  9  2  0
 14  1  2  0
 14  2  1  0
 15 10  2  0
 15 11  1  0
 16 12  1  0
 16 13  1  0
 16 14  1  0
 16 15  1  0
 17  3  1  0
 17 12  1  0
 18  4  1  0
 18  5  1  0
 18  6  1  0
 18 13  1  0
M  END
>  <NAME>  (718) 
4-METHOXY-2-METHYL-3-TRIMETHYLSILYLMETHYL-3-PHENYL-1-BUTENE

>  <SYNONYMS>  (718) 


>  <SPECTRUM TYPE>  (718) 
MS1

>  <INSTRUMENT TYPE>  (718) 
EI-B

>  <INSTRUMENT>  (718) 
JEOL JMS-DX-300

>  <ION MODE>  (718) 
P

>  <INCHIKEY>  (718) 
HREYNLWFBUBNSR-UHFFFAOYSA-N

>  <FORMULA>  (718) 
C16H26OSi

>  <EXACT MASS>  (718) 
262.175291982

>  <MW>  (718) 
262

>  <ID>  (718) 
JP010950

>  <CONTRIBUTOR>  (718) 
University of Tokyo Team, {Faculty of Engineering, University of Tokyo

>  <COMMENT>  (718) 
SMILES=COCC(C(C)=C)(C[Si](C)(C)C)c(c1)cccc1
InChI=InChI=1S/C16H26OSi/c1-14(2)16(12-17-3,13-18(4,5)6)15-10-8-7-9-11-15/h7-11H,1,12-13H2,2-6H3
computed SMILES=O(C)CC(C=1C=CC=CC1)(C(=C)C)C[Si](C)(C)C
accession=JP010950
date=2016.01.19 (Created 2008.10.21, modified 2011.05.06)
author=HISAHIRO HAGIWARA, INSTITUTE FOR CHEMICAL REACTION SCIENCE TOHOKU UNIV.
license=CC BY-NC-SA
exact mass=262.17529
ionization energy=70 eV
ion type=[M]+*
computed spectral entropy=2.5465614123216507
computed normalized entropy=0.6509576781087835
SPLASH=splash10-00di-9700000000-9b8aded51f70bd06d80c
submitter=submitter = University of Tokyo Team (Faculty of Engineering, University of Tokyo)
MoNA Rating=3.75

>  <NUM PEAKS>  (718) 
50

>  <MASS SPECTRAL PEAKS>  (718) 
52 2.43
55 1.69
57 1.53
58 3.74
59 14.82
60 1.26
61 0.75
63 1.03
65 2.33
67 1.26
68 0.66
71 1.25
72 1.71
73 64.13
74 6.92
75 4.18
76 0.56
77 18.98
78 3.25
79 0.86
81 0.57
83 1.34
85 1.02
89 17.51
90 2.11
91 13.06
92 1.22
93 1.28
95 0.54
103 0.66
105 5.18
106 0.74
109 0.87
111 2.9
115 2.25
116 0.57
117 0.81
121 99.99
122 12.52
123 0.97
126 0.5
127 0.53
128 1.57
129 1.47
141 2.53
142 0.83
143 0.54
157 0.63
179 1.13
215 0.98

>  <PREDICTED SPECTRUM>  (718) 
27 10
31 3
39 132
40 22
41 151
42 103
43 196
44 137
45 543
46 80
47 73
49 8
50 45
51 114
52 57
53 115
54 4
55 107
57 45
58 85
59 310
60 35
61 100
62 27
63 93
64 26
65 114
66 55
67 132
68 55
69 52
70 51
71 96
72 46
73 999
74 338
75 292
76 50
77 191
78 116
79 137
80 93
81 128
82 73
83 50
85 24
87 69
88 1
89 285
90 70
91 323
92 108
93 169
95 75
97 127
98 5
99 76
102 50
103 26
104 7
105 281
106 40
111 16
113 15
115 182
116 41
117 159
118 106
119 269
120 91
121 366
122 150
128 22
129 200
130 2
133 13
134 11
135 180
139 48
141 118
142 134
143 97
157 42
158 51
159 62
172 25
173 12
188 21
195 32
247 7

$$$$

     RDKit          2D

 16 15  0  0  0  0  0  0  0  0999 V2000
   -8.2697    4.9755    0.0000 C   0  0  0  0  0  0  0  0  0  0  0  0
   -3.0736    1.9755    0.0000 C   0  0  0  0  0  0  0  0  0  0  0  0
   -0.4755    1.9755    0.0000 C   0  0  0  0  0  0  0  0  0  0  0  0
   -4.3726    7.2255    0.0000 C   0  0  0  0  0  0  0  0  0  0  0  0
    0.0736    2.9264    0.0000 C   0  0  0  0  0  0  0  0  0  0  0  0
    2.1226    3.4755    0.0000 C   0  0  0  0  0  0  0  0  0  0  0  0
    1.5736    5.5245    0.0000 C   0  0  0  0  0  0  0  0  0  0  0  0
   -6.9707    4.2255    0.0000 C   0  0  0  0  0  0  0  0  0  0  0  0
   -5.6716    4.9755    0.0000 C   0  0  0  0  0  0  0  0  0  0  0  0
   -4.3726    4.2255    0.0000 C   0  0  0  0  0  0  0  0  0  0  0  0
   -0.4755    4.9755    0.0000 C   0  0  0  0  0  0  0  0  0  0  0  0
   -1.7745    2.7255    0.0000 C   0  0  0  0  0  0  0  0  0  0  0  0
   -1.7745    4.2255    0.0000 C   0  0  0  0  0  0  0  0  0  0  0  0
   -3.0736    4.9755    0.0000 C   0  0  0  0  0  0  0  0  0  0  0  0
   -3.0736    6.4755    0.0000 O   0  0  0  0  0  0  0  0  0  0  0  0
    0.8236    4.2255    0.0000 Si  0  0  0  0  0  4  0  0  0  0  0  0
  8  1  1  0
  9  8  1  0
 10  9  1  0
 12  2  2  0
 12  3  1  0
 13 11  1  0
 13 12  1  0
 14 10  1  0
 14 13  1  0
 15  4  1  0
 15 14  1  0
 16  5  1  0
 16  6  1  0
 16  7  1  0
 16 11  1  0
M  END
>  <NAME>  (719) 
4-METHOXY-2-METHYL-3-TRIMETHYLSILYLMETHYL-1-OCTENE

>  <SYNONYMS>  (719) 


>  <SPECTRUM TYPE>  (719) 
MS1

>  <INSTRUMENT TYPE>  (719) 
EI-B

>  <INSTRUMENT>  (719) 
JEOL JMS-DX-300

>  <ION MODE>  (719) 
P

>  <INCHIKEY>  (719) 
YKJNQDLGBOSJKB-UHFFFAOYSA-N

>  <FORMULA>  (719) 
C14H30OSi

>  <EXACT MASS>  (719) 
242.20659211

>  <MW>  (719) 
242

>  <ID>  (719) 
JP010949

>  <CONTRIBUTOR>  (719) 
University of Tokyo Team, {Faculty of Engineering, University of Tokyo

>  <COMMENT>  (719) 
SMILES=CCCCC(OC)C(C(C)=C)C[Si](C)(C)C
InChI=InChI=1S/C14H30OSi/c1-8-9-10-14(15-4)13(12(2)3)11-16(5,6)7/h13-14H,2,8-11H2,1,3-7H3
computed SMILES=O(C)C(CCCC)C(C(=C)C)C[Si](C)(C)C
accession=JP010949
date=2016.01.19 (Created 2008.10.21, modified 2011.05.06)
author=HISAHIRO HAGIWARA, INSTITUTE FOR CHEMICAL REACTION SCIENCE TOHOKU UNIV.
license=CC BY-NC-SA
exact mass=242.20659
ionization energy=70 eV
ion type=[M]+*
computed spectral entropy=2.6692579940303043
computed normalized entropy=0.6755488104865927
SPLASH=splash10-0v4i-9400000000-ce922d89fffe94475ce5
submitter=submitter = University of Tokyo Team (Faculty of Engineering, University of Tokyo)
MoNA Rating=3.75

>  <NUM PEAKS>  (719) 
52

>  <MASS SPECTRAL PEAKS>  (719) 
52 5
54 0.72
55 5.54
56 0.74
57 2.37
58 5.5
59 22.06
60 1.68
61 0.98
65 0.88
66 0.48
67 4.04
68 3.34
69 71.72
70 5.99
71 7.82
72 2.54
73 66.05
74 7.02
75 5.05
77 1.24
79 2.43
80 0.51
81 8.19
82 1.37
83 1.87
85 1.71
89 21.89
90 2.09
91 1.28
95 1.97
96 0.83
97 1.07
99 7.1
100 0.71
101 99.99
102 9.04
103 1.05
105 0.42
109 1.43
111 3.73
112 0.5
125 0.5
126 0.75
137 0.86
138 1.32
141 1.57
142 4.59
143 0.57
195 0.61
211 1.13
242 0.47

>  <PREDICTED SPECTRUM>  (719) 
39 62
40 4
41 232
42 10
43 68
45 175
51 33
53 43
55 228
56 28
57 88
58 94
59 382
61 59
65 35
67 155
68 75
69 676
70 161
71 242
72 74
73 777
74 85
75 37
76 22
77 115
79 57
81 189
82 104
83 54
87 16
89 525
90 102
91 161
93 51
95 136
97 129
99 48
100 39
101 999
102 263
103 20
109 151
110 65
111 63
113 4
115 62
123 23
135 24
137 66
141 134
142 175
143 94
153 0
185 28

$$$$

     RDKit          2D

 28 27  0  0  0  0  0  0  0  0999 V2000
  -15.1767    6.0368    0.0000 C   0  0  0  0  0  0  0  0  0  0  0  0
  -13.8776    3.7868    0.0000 C   0  0  0  0  0  0  0  0  0  0  0  0
    0.4118   12.0368    0.0000 C   0  0  0  0  0  0  0  0  0  0  0  0
    1.7108    9.7868    0.0000 C   0  0  0  0  0  0  0  0  0  0  0  0
  -10.7305    4.3358    0.0000 C   0  0  0  0  0  0  0  0  0  0  0  0
  -11.2796    2.2868    0.0000 C   0  0  0  0  0  0  0  0  0  0  0  0
   -9.2305    1.7377    0.0000 C   0  0  0  0  0  0  0  0  0  0  0  0
   -0.3382    7.3358    0.0000 C   0  0  0  0  0  0  0  0  0  0  0  0
    1.7108    6.7868    0.0000 C   0  0  0  0  0  0  0  0  0  0  0  0
    1.1618    4.7377    0.0000 C   0  0  0  0  0  0  0  0  0  0  0  0
   -6.0834    5.2868    0.0000 C   0  0  0  0  0  0  0  0  0  0  0  0
   -4.7844    6.0368    0.0000 C   0  0  0  0  0  0  0  0  0  0  0  0
  -11.2796    5.2868    0.0000 C   0  0  0  0  0  0  0  0  0  0  0  0
   -0.8873    8.2868    0.0000 C   0  0  0  0  0  0  0  0  0  0  0  0
  -12.5786    6.0368    0.0000 C   0  0  0  0  0  0  0  0  0  0  0  0
   -0.8873    9.7868    0.0000 C   0  0  0  0  0  0  0  0  0  0  0  0
   -7.3825    6.0368    0.0000 C   0  0  0  0  0  0  0  0  0  0  0  0
   -3.4853    5.2868    0.0000 C   0  0  0  0  0  0  0  0  0  0  0  0
   -9.9805    6.0368    0.0000 C   0  0  0  0  0  0  0  0  0  0  0  0
   -2.1863    7.5368    0.0000 C   0  0  0  0  0  0  0  0  0  0  0  0
   -8.6815    3.7868    0.0000 C   0  0  0  0  0  0  0  0  0  0  0  0
   -0.8873    5.2868    0.0000 C   0  0  0  0  0  0  0  0  0  0  0  0
  -13.8776    5.2868    0.0000 C   0  0  0  0  0  0  0  0  0  0  0  0
    0.4118   10.5368    0.0000 C   0  0  0  0  0  0  0  0  0  0  0  0
   -8.6815    5.2868    0.0000 C   0  0  0  0  0  0  0  0  0  0  0  0
   -2.1863    6.0368    0.0000 C   0  0  0  0  0  0  0  0  0  0  0  0
   -9.9805    3.0368    0.0000 Si  0  0  0  0  0  4  0  0  0  0  0  0
    0.4118    6.0368    0.0000 Si  0  0  0  0  0  4  0  0  0  0  0  0
 12 11  1  0
 15 13  1  0
 16 14  1  0
 17 11  1  0
 18 12  1  0
 19 13  1  0
 20 14  1  0
 23  1  1  0
 23  2  1  0
 23 15  2  0
 24  3  1  0
 24  4  1  0
 24 16  2  0
 17 25  2  0
 25 19  1  0
 25 21  1  0
 18 26  2  0
 26 20  1  0
 26 22  1  0
 27  5  1  0
 27  6  1  0
 27  7  1  0
 27 21  1  0
 28  8  1  0
 28  9  1  0
 28 10  1  0
 28 22  1  0
M  END
>  <NAME>  (720) 
(2E,6E,10E,15E)-6,10-BIS(TRIMETHYLSILYLMETHYL)-2,6,10,14-HEXADECATETRAENE

>  <SYNONYMS>  (720) 


>  <SPECTRUM TYPE>  (720) 
MS1

>  <INSTRUMENT TYPE>  (720) 
EI-B

>  <INSTRUMENT>  (720) 
JEOL JMS-DX-300

>  <ION MODE>  (720) 
P

>  <INCHIKEY>  (720) 
BWUTUMBXRSCEQW-WTHRLWDASA-N

>  <FORMULA>  (720) 
C26H50Si2

>  <EXACT MASS>  (720) 
418.34510465999995

>  <MW>  (720) 
418

>  <ID>  (720) 
JP010948

>  <CONTRIBUTOR>  (720) 
University of Tokyo Team, {Faculty of Engineering, University of Tokyo

>  <COMMENT>  (720) 
SMILES=CC(C)=CCCC(C[Si](C)(C)C)=C([H])CCC([H])=C(CCC=C(C)C)C[Si](C)(C)C
InChI=InChI=1S/C26H50Si2/c1-23(2)15-13-19-25(21-27(5,6)7)17-11-12-18-26(22-28(8,9)10)20-14-16-24(3)4/h15-18H,11-14,19-22H2,1-10H3/b25-17-,26-18+
computed SMILES=C(=C(C)C)CCC(=CCCC=C(CCC=C(C)C)C[Si](C)(C)C)C[Si](C)(C)C
accession=JP010948
date=2016.01.19 (Created 2008.10.21, modified 2011.05.06)
author=HISAHIRO HAGIWARA, INSTITUTE FOR CHEMICAL REACTION SCIENCE TOHOKU UNIV.
license=CC BY-NC-SA
exact mass=418.3451
ionization energy=70 eV
ion type=[M]+*
computed spectral entropy=1.9766839587914538
computed normalized entropy=0.6219793824496166
SPLASH=splash10-00di-9120000000-39c72b12b63d186488b2
submitter=submitter = University of Tokyo Team (Faculty of Engineering, University of Tokyo)
MoNA Rating=3.75

>  <NUM PEAKS>  (720) 
24

>  <MASS SPECTRAL PEAKS>  (720) 
41 2.84
45 2.78
59 2.92
69 5.87
73 99.99
74 9.81
75 4.33
93 1.46
97 1
109 1.5
125 1.06
135 11.19
136 1.36
153 1.91
179 4.21
180 1
181 1.19
209 20.61
210 4.19
211 1.18
222 3.74
349 1.94
418 3.14
419 1.24

>  <PREDICTED SPECTRUM>  (720) 
41 122
45 38
53 9
59 230
67 52
69 411
70 36
73 999
74 227
75 218
81 122
82 4
83 31
85 31
93 8
107 71
109 137
110 40
111 34
113 17
115 41
121 67
122 6
125 63
129 11
135 249
139 27
140 17
141 58
151 13
153 64
161 45
163 3
165 45
167 60
168 24
169 61
170 31
179 35
181 57
182 14
189 11
195 7
196 36
197 16
198 20
199 17
209 447
210 76
211 5
261 26
262 5
295 13
307 2
349 65
400 18
418 172
419 78
420 4

$$$$

     RDKit          2D

 12 11  0  0  0  0  0  0  0  0999 V2000
    1.1519   -1.2990    0.0000 C   0  0  0  0  0  0  0  0  0  0  0  0
   -0.3481    1.2990    0.0000 C   0  0  0  0  0  0  0  0  0  0  0  0
   -0.8971   -0.7500    0.0000 C   0  0  0  0  0  0  0  0  0  0  0  0
    4.8481    4.2990    0.0000 C   0  0  0  0  0  0  0  0  0  0  0  0
    6.8971    3.7500    0.0000 C   0  0  0  0  0  0  0  0  0  0  0  0
    6.3481    1.7010    0.0000 C   0  0  0  0  0  0  0  0  0  0  0  0
    1.7010    2.2500    0.0000 C   0  0  0  0  0  0  0  0  0  0  0  0
    3.0000    3.0000    0.0000 C   0  0  0  0  0  0  0  0  0  0  0  0
    1.7010    0.7500    0.0000 C   0  0  0  0  0  0  0  0  0  0  0  0
    4.2990    2.2500    0.0000 C   0  0  0  0  0  0  0  0  0  0  0  0
    0.4019   -0.0000    0.0000 Si  0  0  0  0  0  4  0  0  0  0  0  0
    5.5981    3.0000    0.0000 Si  0  0  0  0  0  4  0  0  0  0  0  0
  7  8  2  0
  9  7  1  0
 10  8  1  0
 11  1  1  0
 11  2  1  0
 11  3  1  0
 11  9  1  0
 12  4  1  0
 12  5  1  0
 12  6  1  0
 12 10  1  0
M  END
>  <NAME>  (721) 
(Z)-1,4-BISTRIMETHYLSILYL-2-BUTENE

>  <SYNONYMS>  (721) 


>  <SPECTRUM TYPE>  (721) 
MS1

>  <INSTRUMENT TYPE>  (721) 
EI-B

>  <INSTRUMENT>  (721) 
JEOL JMS-DX-300

>  <ION MODE>  (721) 
P

>  <INCHIKEY>  (721) 
DHTZZPHEAHKIBY-FPLPWBNLSA-N

>  <FORMULA>  (721) 
C10H24Si2

>  <EXACT MASS>  (721) 
200.14165382800002

>  <MW>  (721) 
200

>  <ID>  (721) 
JP010947

>  <CONTRIBUTOR>  (721) 
University of Tokyo Team, {Faculty of Engineering, University of Tokyo

>  <COMMENT>  (721) 
SMILES=[H]C(C[Si](C)(C)C)=C([H])C[Si](C)(C)C
InChI=InChI=1S/C10H24Si2/c1-11(2,3)9-7-8-10-12(4,5)6/h7-8H,9-10H2,1-6H3/b8-7-
computed SMILES=C(=CC[Si](C)(C)C)C[Si](C)(C)C
accession=JP010947
date=2016.01.19 (Created 2008.10.21, modified 2011.05.06)
author=HISAHIRO HAGIWARA, INSTITUTE FOR CHEMICAL REACTION SCIENCE TOHOKU UNIV.
license=CC BY-NC-SA
exact mass=200.14165
ionization energy=70 eV
ion type=[M]+*
computed spectral entropy=2.0020439771795906
computed normalized entropy=0.6476921645008258
SPLASH=splash10-00di-9200000000-630eb77eac7979faee3f
submitter=submitter = University of Tokyo Team (Faculty of Engineering, University of Tokyo)
MoNA Rating=3.75

>  <NUM PEAKS>  (721) 
22

>  <MASS SPECTRAL PEAKS>  (721) 
43 2.48
44 1.48
45 12.22
46 1.01
58 1.33
59 3.07
71 1.24
72 1.4
73 99.99
74 10.02
75 3.92
85 1.02
95 1.4
97 28.72
98 3.33
99 1.23
112 34.83
113 4.65
114 1.54
200 11.11
201 2.62
202 1.08

>  <PREDICTED SPECTRUM>  (721) 
39 45
40 4
43 55
44 94
45 308
46 44
51 17
53 51
57 10
58 75
59 202
66 33
69 45
71 12
72 110
73 999
74 299
75 130
77 28
81 30
83 51
84 23
85 66
95 39
97 211
98 80
99 56
111 28
112 180
113 7
126 152
127 21
133 26
185 5
200 158
201 30

$$$$

     RDKit          2D

 18 17  0  0  0  0  0  0  0  0999 V2000
    3.8971    6.7500    0.0000 C   0  0  0  0  0  0  0  0  0  0  0  0
    2.5981    4.5000    0.0000 C   0  0  0  0  0  0  0  0  0  0  0  0
   -4.4462   10.2990    0.0000 C   0  0  0  0  0  0  0  0  0  0  0  0
   -6.4952    9.7500    0.0000 C   0  0  0  0  0  0  0  0  0  0  0  0
   -5.9462    7.7010    0.0000 C   0  0  0  0  0  0  0  0  0  0  0  0
   -3.1471    2.4510    0.0000 C   0  0  0  0  0  0  0  0  0  0  0  0
   -5.1962    3.0000    0.0000 C   0  0  0  0  0  0  0  0  0  0  0  0
   -4.6471    5.0490    0.0000 C   0  0  0  0  0  0  0  0  0  0  0  0
    0.0000    6.0000    0.0000 C   0  0  0  0  0  0  0  0  0  0  0  0
    1.2990    6.7500    0.0000 C   0  0  0  0  0  0  0  0  0  0  0  0
   -1.2990    6.7500    0.0000 C   0  0  0  0  0  0  0  0  0  0  0  0
   -3.8971    6.7500    0.0000 C   0  0  0  0  0  0  0  0  0  0  0  0
   -3.8971    8.2500    0.0000 C   0  0  0  0  0  0  0  0  0  0  0  0
   -2.5981    4.5000    0.0000 C   0  0  0  0  0  0  0  0  0  0  0  0
    2.5981    6.0000    0.0000 C   0  0  0  0  0  0  0  0  0  0  0  0
   -2.5981    6.0000    0.0000 C   0  0  0  0  0  0  0  0  0  0  0  0
   -5.1962    9.0000    0.0000 Si  0  0  0  0  0  4  0  0  0  0  0  0
   -3.8971    3.7500    0.0000 Si  0  0  0  0  0  4  0  0  0  0  0  0
 10  9  1  0
 11  9  1  0
 13 12  1  0
 15  1  1  0
 15  2  1  0
 15 10  2  0
 16 11  1  0
 12 16  2  0
 16 14  1  0
 17  3  1  0
 17  4  1  0
 17  5  1  0
 17 13  1  0
 18  6  1  0
 18  7  1  0
 18  8  1  0
 18 14  1  0
M  END
>  <NAME>  (722) 
(2Z,6E)-7-METHYL-1-TRIMETHYLSILYL-3-TRIMETHYLSILYLMETHYL-2,6-OCTADIENE

>  <SYNONYMS>  (722) 


>  <SPECTRUM TYPE>  (722) 
MS1

>  <INSTRUMENT TYPE>  (722) 
EI-B

>  <INSTRUMENT>  (722) 
JEOL JMS-DX-300

>  <ION MODE>  (722) 
P

>  <INCHIKEY>  (722) 
OCLVQVMSRGFTAZ-FOWTUZBSSA-N

>  <FORMULA>  (722) 
C16H34Si2

>  <EXACT MASS>  (722) 
282.219904148

>  <MW>  (722) 
282

>  <ID>  (722) 
JP010946

>  <CONTRIBUTOR>  (722) 
University of Tokyo Team, {Faculty of Engineering, University of Tokyo

>  <COMMENT>  (722) 
SMILES=CC(C)=CCCC(C[Si](C)(C)C)=C([H])C[Si](C)(C)C
InChI=InChI=1S/C16H34Si2/c1-15(2)10-9-11-16(14-18(6,7)8)12-13-17(3,4)5/h10,12H,9,11,13-14H2,1-8H3/b16-12+
computed SMILES=C(=C(C)C)CCC(=CC[Si](C)(C)C)C[Si](C)(C)C
accession=JP010946
date=2016.01.19 (Created 2008.10.21, modified 2011.05.06)
author=HISAHIRO HAGIWARA, INSTITUTE FOR CHEMICAL REACTION SCIENCE TOHOKU UNIV.
license=CC BY-NC-SA
exact mass=282.2199
ionization energy=70 eV
ion type=[M]+*
computed spectral entropy=2.40600066324308
computed normalized entropy=0.7220447172123223
SPLASH=splash10-00di-9440000000-f771f6f70c8cdcd06d43
submitter=submitter = University of Tokyo Team (Faculty of Engineering, University of Tokyo)
MoNA Rating=3.75

>  <NUM PEAKS>  (722) 
28

>  <MASS SPECTRAL PEAKS>  (722) 
41 4.43
43 1.48
45 10.06
59 9.27
69 2.7
72 1.71
73 99.99
74 11.33
75 4.37
85 1.71
97 5.6
109 1.21
125 48.51
126 8.01
127 2.52
137 1.1
151 1.41
179 3.96
193 2.73
195 1.71
213 36.46
214 9.1
215 3.63
239 2.4
267 1.35
282 17.41
283 5.15
284 1.94

>  <PREDICTED SPECTRUM>  (722) 
45 211
46 2
55 48
59 247
67 32
69 98
71 15
73 999
74 276
75 198
77 8
79 16
81 39
85 74
97 131
109 35
111 60
117 8
123 74
124 69
125 351
126 171
127 34
143 48
145 37
167 24
177 18
179 100
193 36
194 94
208 59
213 907
214 390
215 187
267 39
282 482
283 164
284 54

$$$$

     RDKit          2D

 10  9  0  0  0  0  0  0  0  0999 V2000
   -6.4952    4.5000    0.0000 C   0  0  0  0  0  0  0  0  0  0  0  0
    2.5981    3.7500    0.0000 C   0  0  0  0  0  0  0  0  0  0  0  0
   -2.5981    3.7500    0.0000 C   0  0  0  0  0  0  0  0  0  0  0  0
   -1.2990    4.5000    0.0000 C   0  0  0  0  0  0  0  0  0  0  0  0
   -3.8971    4.5000    0.0000 C   0  0  0  0  0  0  0  0  0  0  0  0
    0.0000    3.7500    0.0000 C   0  0  0  0  0  0  0  0  0  0  0  0
   -3.8971    6.0000    0.0000 O   0  0  0  0  0  0  0  0  0  0  0  0
   -0.0000    2.2500    0.0000 O   0  0  0  0  0  0  0  0  0  0  0  0
   -5.1962    3.7500    0.0000 O   0  0  0  0  0  0  0  0  0  0  0  0
    1.2990    4.5000    0.0000 O   0  0  0  0  0  0  0  0  0  0  0  0
  3  4  2  0
  5  3  1  0
  6  4  1  0
  7  5  2  0
  8  6  2  0
  9  1  1  0
  9  5  1  0
 10  2  1  0
 10  6  1  0
M  END
>  <NAME>  (723) 
DIMETHYL FUMARATE

>  <SYNONYMS>  (723) 


>  <SPECTRUM TYPE>  (723) 
MS1

>  <INSTRUMENT TYPE>  (723) 
EI-B

>  <INSTRUMENT>  (723) 
JEOL JMS-DX-300

>  <ION MODE>  (723) 
P

>  <INCHIKEY>  (723) 
LDCRTTXIJACKKU-ONEGZZNKSA-N

>  <FORMULA>  (723) 
C6H8O4

>  <EXACT MASS>  (723) 
144.042258736

>  <MW>  (723) 
144

>  <ID>  (723) 
JP010945

>  <CONTRIBUTOR>  (723) 
University of Tokyo Team, {Faculty of Engineering, University of Tokyo

>  <COMMENT>  (723) 
SMILES=COC(=O)C=CC(=O)OC
InChI=InChI=1S/C6H8O4/c1-9-5(7)3-4-6(8)10-2/h3-4H,1-2H3/b4-3+
computed SMILES=O=C(OC)C=CC(=O)OC
accession=JP010945
date=2016.01.19 (Created 2008.10.21, modified 2011.05.06)
author=HISAHIRO HAGIWARA, INSTITUTE FOR CHEMICAL REACTION SCIENCE TOHOKU UNIV.
license=CC BY-NC-SA
exact mass=144.04226
ionization energy=70 eV
ion type=[M]+*
computed spectral entropy=2.1057093669130578
computed normalized entropy=0.7151479048511904
SPLASH=splash10-03di-9800000000-d3ec2acefa5532f1d130
submitter=submitter = University of Tokyo Team (Faculty of Engineering, University of Tokyo)
MoNA Rating=3.75

>  <NUM PEAKS>  (723) 
19

>  <MASS SPECTRAL PEAKS>  (723) 
30 1.83
31 2.35
39 4.72
41 3.88
42 1.59
53 14.52
54 10.85
55 3.48
59 27.83
81 4.43
82 6.36
85 49.56
86 2.9
99 2.34
100 2.01
113 99.99
114 25.04
115 2.17
144 5.17

>  <PREDICTED SPECTRUM>  (723) 
14 37
15 158
16 16
25 33
26 199
27 227
28 169
29 235
31 204
32 9
33 46
37 1
38 38
39 119
40 73
41 123
42 0
43 127
44 65
45 197
52 131
53 471
54 278
55 300
56 89
57 232
58 87
59 627
69 71
70 49
81 187
82 168
83 166
84 110
85 837
86 90
87 42
99 42
100 24
112 187
113 999
114 276
115 41
144 117

$$$$

     RDKit          2D

 30 33  0  0  1  0  0  0  0  0999 V2000
    9.5655    7.2342    0.0000 C   0  0  0  0  0  0  0  0  0  0  0  0
   10.0746    4.6865    0.0000 C   0  0  0  0  0  0  0  0  0  0  0  0
    8.1228    2.9718    0.0000 C   0  0  0  0  0  0  0  0  0  0  0  0
    3.2009    4.6377    0.0000 C   0  0  0  0  0  0  0  0  0  0  0  0
   -1.6125    0.9400    0.0000 C   0  0  0  0  0  0  0  0  0  0  0  0
    2.4507    3.1203    0.0000 C   0  0  0  0  0  0  0  0  0  0  0  0
    8.0946    6.9403    0.0000 C   0  0  0  0  0  0  0  0  0  0  0  0
    5.6618    3.8047    0.0000 C   0  0  0  0  0  0  0  0  0  0  0  0
    6.1427    5.2256    0.0000 C   0  0  0  0  0  0  0  0  0  0  0  0
   -0.3200   -2.8400    0.0000 C   0  0  0  0  0  0  0  0  0  0  0  0
    1.0100   -2.0900    0.0000 C   0  0  0  0  0  0  0  0  0  0  0  0
    4.5500    0.8800    0.0000 C   0  0  0  0  0  0  0  0  0  0  0  0
    3.7100   -0.3100    0.0000 C   0  0  0  0  0  0  0  0  0  0  0  0
   -4.2000   -0.5600    0.0000 C   0  0  0  0  0  0  0  0  0  0  0  0
   -0.3200    1.6300    0.0000 C   0  0  0  0  0  0  0  0  0  0  0  0
   -2.8900    0.1600    0.0000 C   0  0  0  0  0  0  0  0  0  0  0  0
    1.0100    2.3900    0.0000 C   0  0  0  0  0  0  0  0  0  0  0  0
   -2.8900   -2.8400    0.0000 C   0  0  0  0  0  0  0  0  0  0  0  0
    8.6037    4.3926    0.0000 C   0  0  0  0  0  0  0  0  0  0  0  0
    4.1909    3.5108    0.0000 C   0  0  0  0  0  0  0  0  0  0  0  0
    7.6137    5.5195    0.0000 C   0  0  0  0  0  0  0  0  0  0  0  0
   -1.6200   -2.0900    0.0000 C   0  0  0  0  0  0  0  0  0  0  0  0
   -4.2000   -2.0900    0.0000 C   0  0  0  0  0  0  0  0  0  0  0  0
    1.0100   -0.5600    0.0000 C   0  0  0  0  0  0  0  0  0  0  0  0
    3.7100    2.0900    0.0000 C   0  0  0  0  0  0  0  0  0  0  0  0
    2.2800    0.1600    0.0000 C   0  0  0  0  0  0  0  0  0  0  0  0
   -0.3200    0.1600    0.0000 C   0  0  0  0  0  0  0  0  0  0  0  0
   -1.6200   -0.5600    0.0000 C   0  0  0  0  0  0  0  0  0  0  0  0
    2.2800    1.6300    0.0000 C   0  0  0  0  0  0  0  0  0  0  0  0
   -5.4977   -2.8424    0.0000 O   0  0  0  0  0  0  0  0  0  0  0  0
  7  1  1  0
  9  8  1  0
 11 10  1  0
 13 12  1  0
 16 14  1  0
 17 15  1  0
 19  2  1  0
 19  3  1  0
 20  4  1  6
 20  8  1  0
 21  7  1  1
 21  9  1  0
 21 19  1  0
 22 10  2  0
 22 18  1  0
 23 14  1  0
 23 18  1  0
 24 11  1  6
 25 12  1  1
 25 20  1  0
 26 13  1  1
 26 24  1  0
 27 15  1  1
 27 24  1  0
 28  5  1  1
 28 16  1  0
 28 22  1  0
 28 27  1  0
 29  6  1  1
 29 17  1  0
 29 25  1  0
 29 26  1  0
 23 30  1  1
M  END
>  <NAME>  (724) 
BETA-SITOSTEROL

>  <SYNONYMS>  (724) 
STIGMAST-5-EN-3BETA-OL

>  <SPECTRUM TYPE>  (724) 
MS1

>  <INSTRUMENT TYPE>  (724) 
EI-B

>  <INSTRUMENT>  (724) 
JEOL JMS-DX-300

>  <ION MODE>  (724) 
P

>  <INCHIKEY>  (724) 
KZJWDPNRJALLNS-VJSFXXLFSA-N

>  <FORMULA>  (724) 
C29H50O

>  <EXACT MASS>  (724) 
414.38616621999995

>  <MW>  (724) 
414

>  <ID>  (724) 
JP010944

>  <CONTRIBUTOR>  (724) 
University of Tokyo Team, {Faculty of Engineering, University of Tokyo

>  <COMMENT>  (724) 
SMILES=CC(C4([H])C(CCC([H])(CC)C(C)C)([H])C)(C([H])3CC4)CCC(C([H])23)([H])C(C)(C1=CC2)CCC(C1)O
cas=83-46-5
InChI=InChI=1S/C29H50O/c1-7-21(19(2)3)9-8-20(4)25-12-13-26-24-11-10-22-18-23(30)14-16-28(22,5)27(24)15-17-29(25,26)6/h10,19-21,23-27,30H,7-9,11-18H2,1-6H3/t20-,21-,23+,24+,25-,26+,27+,28+,29-/m1/s1
computed SMILES=OC1CC2=CCC3C(CCC4(C)C(CCC34)C(C)CCC(CC)C(C)C)C2(C)CC1
accession=JP010944
date=2016.01.19 (Created 2008.10.21, modified 2011.05.06)
author=HISAHIRO HAGIWARA, INSTITUTE FOR CHEMICAL REACTION SCIENCE TOHOKU UNIV.
license=CC BY-NC-SA
exact mass=414.38617
ionization energy=70 eV
ion type=[M]+*
computed spectral entropy=3.8358191558131822
computed normalized entropy=0.9446799637010522
SPLASH=splash10-0a4l-9601000000-edade780f6cfb8ddc7d1
submitter=submitter = University of Tokyo Team (Faculty of Engineering, University of Tokyo)
MoNA Rating=3.75

>  <NUM PEAKS>  (724) 
58

>  <MASS SPECTRAL PEAKS>  (724) 
41 50.64
42 7.48
43 99.99
53 8.05
55 62.84
57 55.46
67 29.1
69 36.07
71 28.4
77 9.42
79 29.29
81 43.16
83 17.77
85 22.37
91 27.33
92 7.6
93 30.63
94 10.84
95 39.88
97 13.75
105 31.71
106 9.9
107 39.86
108 11.42
109 20.68
111 10.34
117 10.04
119 13.19
120 18.76
121 21.01
123 11.21
125 8.53
131 15.55
133 21.37
134 9.17
135 17.65
143 10.62
145 27.92
146 7.84
147 17.06
149 11.05
157 7.74
158 9.58
159 20.59
160 13.19
161 20.49
163 17.51
173 10.6
178 12.16
199 7.4
213 19.88
231 13.81
255 16.54
273 16.6
302 9.51
303 29.58
304 7.86
329 23.08

>  <PREDICTED SPECTRUM>  (724) 
29 49
39 51
40 25
41 649
42 137
43 999
44 170
45 112
49 10
50 32
51 88
52 11
53 321
54 111
55 995
56 209
57 891
58 152
59 82
60 48
65 197
66 45
67 719
68 292
69 902
70 314
71 654
72 36
73 23
75 4
77 424
78 157
79 633
80 209
81 831
82 364
83 638
84 250
85 451
86 112
91 706
92 314
93 697
94 328
95 866
96 318
97 546
98 181
99 178
100 17
103 104
104 111
105 715
106 423
107 842
108 402
109 620
110 295
111 401
112 85
113 81
115 167
116 29
117 358
118 221
119 662
120 388
121 614
122 356
123 500
124 358
125 290
126 64
127 67
128 94
129 261
130 180
131 466
132 251
133 652
134 365
135 545
136 262
137 250
138 143
139 99
140 0
141 154
142 162
143 423
144 208
145 663
146 334
147 598
148 288
149 526
150 169
151 345
152 128
155 62
156 40
157 281
158 282
159 572
160 346
161 547
162 268
163 415
164 115
165 119
166 31
167 12
168 11
169 106
171 261
172 140
173 384
174 167
175 277
176 186
177 292
178 192
179 95
183 116
184 43
185 242
186 181
187 353
188 129
189 346
190 205
191 214
192 152
193 19
197 132
198 67
199 288
200 91
201 336
202 193
203 256
204 108
205 130
211 53
212 67
213 621
214 351
215 506
216 224
217 382
218 130
219 182
220 50
227 188
228 207
229 465
230 305
231 539
232 315
233 351
234 100
239 19
241 85
242 66
243 156
244 132
245 224
246 307
247 225
248 53
255 371
256 213
257 221
258 139
259 173
260 125
261 30
269 70
270 33
271 263
272 236
273 434
274 305
275 192
281 163
282 30
283 59
285 291
286 72
287 124
288 151
289 98
290 23
297 48
299 158
300 228
301 295
302 169
303 234
304 30
310 11
311 12
314 96
315 221
316 83
327 14
329 251
330 97
341 69
342 45
353 85
354 116
355 24
357 88
371 115
372 10
381 305
382 64
383 29
384 53
385 73
396 470
397 223
398 48
399 648
400 335
401 115
412 174
413 66
414 791
415 521
416 165

$$$$

     RDKit          2D

  7  6  0  0  0  0  0  0  0  0999 V2000
   -0.6495    4.8750    0.0000 C   0  0  0  0  0  0  0  0  0  0  0  0
   -1.9486    2.6250    0.0000 C   0  0  0  0  0  0  0  0  0  0  0  0
   -1.9486    1.1250    0.0000 C   0  0  0  0  0  0  0  0  0  0  0  0
    0.6495    2.6250    0.0000 C   0  0  0  0  0  0  0  0  0  0  0  0
   -0.6495    3.3750    0.0000 C   0  0  0  0  0  0  0  0  0  0  0  0
   -3.2476    0.3750    0.0000 Br  0  0  0  0  0  0  0  0  0  0  0  0
    1.9486    3.3750    0.0000 O   0  0  0  0  0  0  0  0  0  0  0  0
  3  2  1  0
  5  1  1  0
  5  2  1  0
  5  4  1  0
  6  3  1  0
  7  4  2  0
M  END
>  <NAME>  (725) 
4-BROMO-2-METHYLBUTENAL

>  <SYNONYMS>  (725) 


>  <SPECTRUM TYPE>  (725) 
MS1

>  <INSTRUMENT TYPE>  (725) 
EI-B

>  <INSTRUMENT>  (725) 
JEOL JMS-D-300

>  <ION MODE>  (725) 
P

>  <INCHIKEY>  (725) 
HUEISMLONAXRSB-UHFFFAOYSA-N

>  <FORMULA>  (725) 
C5H9BrO

>  <EXACT MASS>  (725) 
163.983677008

>  <MW>  (725) 
164

>  <ID>  (725) 
JP010942

>  <CONTRIBUTOR>  (725) 
University of Tokyo Team, {Faculty of Engineering, University of Tokyo

>  <COMMENT>  (725) 
SMILES=O=CC(C)CCBr
InChI=InChI=1S/C5H9BrO/c1-5(4-7)2-3-6/h4-5H,2-3H2,1H3
computed SMILES=O=CC(C)CCBr
accession=JP010942
date=2016.01.19 (Created 2008.10.21, modified 2011.05.06)
author=KURARAY CO., LTD.
license=CC BY-NC-SA
exact mass=163.98368
ionization energy=70 eV
ion type=[M]+*
computed spectral entropy=2.8054680115317834
computed normalized entropy=0.7171399574182061
SPLASH=splash10-0a4i-9000000000-545124a2bd31e26dea7c
submitter=submitter = University of Tokyo Team (Faculty of Engineering, University of Tokyo)
MoNA Rating=3.75

>  <NUM PEAKS>  (725) 
50

>  <MASS SPECTRAL PEAKS>  (725) 
26 2.1
27 14.3
28 14.3
29 19.5
30 0.6
31 0.5
32 2.3
37 0.9
38 1.4
39 15.6
40 2
41 26.6
42 2
43 7.1
44 0.7
50 2.3
51 2.4
52 0.9
53 8.1
54 3
55 59.7
56 21.4
57 16.2
58 99.99
59 3.9
67 0.6
69 3.6
71 0.8
80 1.3
82 1.3
83 12.3
84 24.7
85 12.5
86 0.4
93 1.4
95 1.3
107 6
109 5.6
110 0.1
111 0.3
119 0.2
121 0.1
122 0.3
124 0.3
135 1.3
136 0.1
137 1.2
164 0.4
165 0.2
166 0.4

>  <PREDICTED SPECTRUM>  (725) 
14 17
15 53
18 26
25 32
26 228
27 626
28 304
29 535
30 561
31 88
36 44
37 96
38 215
39 552
40 291
41 944
42 686
43 623
44 122
45 60
50 124
51 202
52 69
53 317
54 188
55 892
56 679
57 999
58 879
59 471
60 191
62 3
65 39
67 220
68 135
69 54
71 293
72 182
79 54
80 40
81 253
82 266
83 280
84 292
85 504
86 59
93 188
94 97
95 334
96 86
97 64
107 471
108 55
109 296
111 52
121 133
123 8
136 40
137 180
138 47
164 47
166 33

$$$$

     RDKit          2D

 10  9  0  0  0  0  0  0  0  0999 V2000
   -3.5724    5.4375    0.0000 C   0  0  0  0  0  0  0  0  0  0  0  0
    2.9228    3.1875    0.0000 C   0  0  0  0  0  0  0  0  0  0  0  0
   -2.2733    3.1875    0.0000 C   0  0  0  0  0  0  0  0  0  0  0  0
   -0.9743    3.9375    0.0000 C   0  0  0  0  0  0  0  0  0  0  0  0
   -4.8714    3.1875    0.0000 C   0  0  0  0  0  0  0  0  0  0  0  0
   -3.5724    3.9375    0.0000 C   0  0  0  0  0  0  0  0  0  0  0  0
    1.6238    3.9375    0.0000 C   0  0  0  0  0  0  0  0  0  0  0  0
   -6.1704    3.9375    0.0000 Cl  0  0  0  0  0  0  0  0  0  0  0  0
    1.6238    5.4375    0.0000 O   0  0  0  0  0  0  0  0  0  0  0  0
    0.3248    3.1875    0.0000 O   0  0  0  0  0  0  0  0  0  0  0  0
  4  3  1  0
  6  1  1  0
  3  6  2  0
  6  5  1  0
  7  2  1  0
  8  5  1  0
  9  7  2  0
 10  4  1  0
 10  7  1  0
M  END
>  <NAME>  (726) 
4-CHLORO-3-METHYL-2-BUTENYL ACETATE

>  <SYNONYMS>  (726) 


>  <SPECTRUM TYPE>  (726) 
MS1

>  <INSTRUMENT TYPE>  (726) 
EI-B

>  <INSTRUMENT>  (726) 
JEOL JMS-D-300

>  <ION MODE>  (726) 
P

>  <INCHIKEY>  (726) 
URVYVINLDPIJEH-ZZXKWVIFSA-N

>  <FORMULA>  (726) 
C7H11ClO2

>  <EXACT MASS>  (726) 
162.044757272

>  <MW>  (726) 
162

>  <ID>  (726) 
JP010941

>  <CONTRIBUTOR>  (726) 
University of Tokyo Team, {Faculty of Engineering, University of Tokyo

>  <COMMENT>  (726) 
SMILES=ClCC(C)=CCOC(C)=O
InChI=InChI=1S/C7H11ClO2/c1-6(5-8)3-4-10-7(2)9/h3H,4-5H2,1-2H3/b6-3+
computed SMILES=O=C(OCC=C(C)CCl)C
accession=JP010941
date=2016.01.19 (Created 2008.10.21, modified 2011.05.06)
author=KURARAY CO., LTD.
license=CC BY-NC-SA
exact mass=162.04476
ionization energy=70 eV
ion type=[M]+*
computed spectral entropy=2.155297469388988
computed normalized entropy=0.6062127904535137
SPLASH=splash10-0f6x-9300000000-ab8a86f5449a87560d04
submitter=submitter = University of Tokyo Team (Faculty of Engineering, University of Tokyo)
MoNA Rating=3.75

>  <NUM PEAKS>  (726) 
35

>  <MASS SPECTRAL PEAKS>  (726) 
26 0.3
27 2.9
29 1
36 0.4
38 0.4
39 4.9
40 1.9
41 4.5
42 1.3
43 99.99
44 2.2
45 1.9
49 0.4
51 1
53 3.6
54 0.7
55 1.2
59 0.8
61 1
65 1
66 1
67 18.4
68 1.2
69 1.1
73 11
83 0.4
84 0.6
85 1
97 2.8
100 1.2
102 39.3
103 2.6
104 13.3
105 1.1
127 3.2

>  <PREDICTED SPECTRUM>  (726) 
14 39
15 75
16 6
25 22
26 53
27 125
28 32
29 41
31 26
35 0
36 35
37 54
38 78
39 253
40 117
41 244
42 228
43 999
44 188
45 92
49 180
50 112
51 189
52 50
53 85
54 76
55 150
56 62
57 124
61 151
62 69
63 58
64 50
65 57
66 54
67 306
68 280
69 142
70 72
71 66
72 8
73 199
74 6
75 14
76 27
81 22
82 14
83 167
84 82
85 148
86 10
87 85
95 18
97 9
99 54
100 104
101 96
102 618
103 243
104 312
105 174
106 4
120 17
127 321
128 7
164 10

$$$$

     RDKit          2D

 10  9  0  0  0  0  0  0  0  0999 V2000
    2.2733    2.8125    0.0000 C   0  0  0  0  0  0  0  0  0  0  0  0
    0.9743    5.0625    0.0000 C   0  0  0  0  0  0  0  0  0  0  0  0
   -5.5209    2.8125    0.0000 C   0  0  0  0  0  0  0  0  0  0  0  0
   -1.6238    3.5625    0.0000 C   0  0  0  0  0  0  0  0  0  0  0  0
    0.9743    3.5625    0.0000 C   0  0  0  0  0  0  0  0  0  0  0  0
   -4.2219    3.5625    0.0000 C   0  0  0  0  0  0  0  0  0  0  0  0
   -0.3248    2.8125    0.0000 C   0  0  0  0  0  0  0  0  0  0  0  0
   -0.3248    1.3125    0.0000 Cl  0  0  0  0  0  0  0  0  0  0  0  0
   -4.2219    5.0625    0.0000 O   0  0  0  0  0  0  0  0  0  0  0  0
   -2.9228    2.8125    0.0000 O   0  0  0  0  0  0  0  0  0  0  0  0
  5  1  2  0
  5  2  1  0
  6  3  1  0
  7  4  1  0
  7  5  1  0
  8  7  1  0
  9  6  2  0
 10  4  1  0
 10  6  1  0
M  END
>  <NAME>  (727) 
2-CHLORO-3-METHYL-3-BUTENYL ACETATE

>  <SYNONYMS>  (727) 


>  <SPECTRUM TYPE>  (727) 
MS1

>  <INSTRUMENT TYPE>  (727) 
EI-B

>  <INSTRUMENT>  (727) 
JEOL JMS-D-300

>  <ION MODE>  (727) 
P

>  <INCHIKEY>  (727) 
XBHOPQWQWYJXRY-UHFFFAOYSA-N

>  <FORMULA>  (727) 
C7H11ClO2

>  <EXACT MASS>  (727) 
162.044757272

>  <MW>  (727) 
162

>  <ID>  (727) 
JP010940

>  <CONTRIBUTOR>  (727) 
University of Tokyo Team, {Faculty of Engineering, University of Tokyo

>  <COMMENT>  (727) 
SMILES=CC(=O)OCC(Cl)C(C)=C
InChI=InChI=1S/C7H11ClO2/c1-5(2)7(8)4-10-6(3)9/h7H,1,4H2,2-3H3
computed SMILES=O=C(OCC(Cl)C(=C)C)C
accession=JP010940
date=2016.01.19 (Created 2008.10.21, modified 2011.05.06)
author=KURARAY CO., LTD.
license=CC BY-NC-SA
exact mass=162.04476
ionization energy=70 eV
ion type=[M]+*
computed spectral entropy=3.1029820743816243
computed normalized entropy=0.7518490518809996
SPLASH=splash10-0uxu-9400000000-8a79c58e56f27bb1769b
submitter=submitter = University of Tokyo Team (Faculty of Engineering, University of Tokyo)
MoNA Rating=3.75

>  <NUM PEAKS>  (727) 
62

>  <MASS SPECTRAL PEAKS>  (727) 
27 7.1
28 5.5
29 3.6
31 0.6
32 1.4
36 1.3
37 0.4
38 1.5
39 12.3
40 3.7
41 22.7
42 3.7
43 68.8
44 2.6
45 1
49 1.2
50 1.7
51 5.4
52 1.6
53 9.1
54 1.2
55 6.5
56 3.2
57 1.4
59 1.3
61 7.8
62 0.7
63 3.1
64 1.2
65 8.4
66 12.7
67 99.99
68 7.1
69 2.5
71 0.7
73 1.5
74 0.7
75 7.8
76 0.7
77 2.8
83 6.7
84 3.9
85 49
86 3.6
87 3.5
89 1.7
90 1.6
101 1
102 80.5
103 20.1
104 26.6
105 8.4
107 0.7
117 0.6
119 3.2
120 4.9
121 1.7
122 1.6
127 36.3
128 4.5
162 3.6
163 1.2

>  <PREDICTED SPECTRUM>  (727) 
14 43
15 109
16 8
25 35
26 143
27 297
28 157
29 171
30 22
31 48
32 26
33 9
34 0
35 71
36 109
37 118
38 194
39 486
40 250
41 524
42 282
43 999
44 217
45 101
47 26
48 35
49 176
50 159
51 282
52 163
53 284
54 176
55 280
56 119
57 170
58 110
59 92
60 76
61 172
62 115
63 161
64 96
65 133
66 130
67 480
68 347
69 295
70 86
71 93
72 66
73 130
74 84
75 136
76 112
77 98
78 24
79 13
81 73
83 244
84 224
85 598
86 198
87 234
88 6
89 167
90 120
91 47
93 57
95 91
96 14
99 122
100 153
101 157
102 758
103 428
104 357
105 277
106 76
107 104
111 28
117 20
119 114
120 254
121 92
122 136
127 735
128 221
129 35
132 3
147 14
162 168
163 37
164 83
165 9

$$$$

     RDKit          2D

 12 12  0  0  0  0  0  0  0  0999 V2000
   -3.8981   -0.7504    0.0000 C   0  0  0  0  0  0  0  0  0  0  0  0
    3.3491    0.2013    0.0000 C   0  0  0  0  0  0  0  0  0  0  0  0
    3.8978    2.2504    0.0000 C   0  0  0  0  0  0  0  0  0  0  0  0
    1.8487    2.7991    0.0000 C   0  0  0  0  0  0  0  0  0  0  0  0
   -2.5989   -1.5002    0.0000 C   0  0  0  0  0  0  0  0  0  0  0  0
   -1.3000    0.7500    0.0000 C   0  0  0  0  0  0  0  0  0  0  0  0
   -0.0000   -1.5000    0.0000 C   0  0  0  0  0  0  0  0  0  0  0  0
    0.0000    1.5000    0.0000 C   0  0  0  0  0  0  0  0  0  0  0  0
    1.3000   -0.7500    0.0000 C   0  0  0  0  0  0  0  0  0  0  0  0
   -1.3000   -0.7500    0.0000 C   0  0  0  0  0  0  0  0  0  0  0  0
    1.3000    0.7500    0.0000 C   0  0  0  0  0  0  0  0  0  0  0  0
    2.5989    1.5002    0.0000 C   0  0  0  0  0  0  0  0  0  0  0  0
  5  1  2  0
  8  6  2  0
  9  7  1  0
 10  5  1  0
 10  6  1  0
 10  7  2  0
 11  8  1  0
 11  9  2  0
 12  2  1  0
 12  3  1  0
 12  4  1  0
 12 11  1  0
M  END
>  <NAME>  (728) 
4-TERT-BUTYLSTYLENE

>  <SYNONYMS>  (728) 


>  <SPECTRUM TYPE>  (728) 
MS1

>  <INSTRUMENT TYPE>  (728) 
EI-B

>  <INSTRUMENT>  (728) 
JEOL JMS-D-300

>  <ION MODE>  (728) 
P

>  <INCHIKEY>  (728) 
QEDJMOONZLUIMC-UHFFFAOYSA-N

>  <FORMULA>  (728) 
C12H16

>  <EXACT MASS>  (728) 
160.125200512

>  <MW>  (728) 
160

>  <ID>  (728) 
JP010939

>  <CONTRIBUTOR>  (728) 
University of Tokyo Team, {Faculty of Engineering, University of Tokyo

>  <COMMENT>  (728) 
SMILES=C=Cc(c1)ccc(c1)C(C)(C)C
InChI=InChI=1S/C12H16/c1-5-10-6-8-11(9-7-10)12(2,3)4/h5-9H,1H2,2-4H3
computed SMILES=C=CC1=CC=C(C=C1)C(C)(C)C
accession=JP010939
date=2016.01.19 (Created 2008.10.21, modified 2011.05.06)
author=KURARAY CO., LTD.
license=CC BY-NC-SA
exact mass=160.1252
ionization energy=70 eV
ion type=[M]+*
computed spectral entropy=1.9732934072502835
computed normalized entropy=0.7693303579308093
SPLASH=splash10-0002-1900000000-9dfb58f4828557e5d0ae
submitter=submitter = University of Tokyo Team (Faculty of Engineering, University of Tokyo)
MoNA Rating=3.75

>  <NUM PEAKS>  (728) 
13

>  <MASS SPECTRAL PEAKS>  (728) 
41 8.4
77 5.9
91 11.1
105 12.4
115 6.5
117 22.9
128 7.2
129 3.9
130 4.1
145 99.99
146 12.7
160 32.5
161 5.5

>  <PREDICTED SPECTRUM>  (728) 
15 14
26 7
27 90
28 9
29 79
38 33
39 235
40 60
41 307
42 43
43 79
44 31
50 104
51 181
52 105
53 131
54 31
55 84
56 13
57 251
58 76
61 15
62 54
63 159
64 118
65 206
66 84
67 99
69 39
70 3
71 51
72 26
73 31
74 56
75 98
76 87
77 261
78 157
79 129
80 7
81 1
82 26
83 41
84 63
85 60
86 50
87 98
88 42
89 175
90 56
91 280
92 63
96 0
97 39
98 50
99 18
101 29
102 125
103 199
104 130
105 216
106 59
113 2
115 331
116 159
117 337
118 136
119 52
127 93
128 208
129 250
130 195
131 111
132 52
141 30
142 37
143 131
144 61
145 999
146 362
147 78
159 28
160 447
161 151
162 5

$$$$

     RDKit          2D

 12 13  0  0  0  0  0  0  0  0999 V2000
    3.2476   -0.0550    0.0000 C   0  0  0  0  0  0  0  0  0  0  0  0
   -3.2476    3.6950    0.0000 C   0  0  0  0  0  0  0  0  0  0  0  0
    3.2481    1.4458    0.0000 C   0  0  0  0  0  0  0  0  0  0  0  0
    1.9481   -0.8058    0.0000 C   0  0  0  0  0  0  0  0  0  0  0  0
   -3.2481    2.1942    0.0000 C   0  0  0  0  0  0  0  0  0  0  0  0
   -1.9481    4.4458    0.0000 C   0  0  0  0  0  0  0  0  0  0  0  0
    1.9490    2.1958    0.0000 C   0  0  0  0  0  0  0  0  0  0  0  0
    0.6490   -0.0558    0.0000 C   0  0  0  0  0  0  0  0  0  0  0  0
   -1.9490    1.4442    0.0000 C   0  0  0  0  0  0  0  0  0  0  0  0
   -0.6490    3.6958    0.0000 C   0  0  0  0  0  0  0  0  0  0  0  0
    0.6495    1.4450    0.0000 C   0  0  0  0  0  0  0  0  0  0  0  0
   -0.6495    2.1950    0.0000 C   0  0  0  0  0  0  0  0  0  0  0  0
  3  1  2  0
  4  1  1  0
  5  2  1  0
  6  2  1  0
  7  3  1  0
  8  4  2  0
  9  5  1  0
 10  6  1  0
 11  7  2  0
 11  8  1  0
 12  9  1  0
 12 10  1  0
 12 11  1  0
M  END
>  <NAME>  (729) 
CYCLOHEXYLBENZENE

>  <SYNONYMS>  (729) 


>  <SPECTRUM TYPE>  (729) 
MS1

>  <INSTRUMENT TYPE>  (729) 
EI-B

>  <INSTRUMENT>  (729) 
JEOL JMS-D-300

>  <ION MODE>  (729) 
P

>  <INCHIKEY>  (729) 
IGARGHRYKHJQSM-UHFFFAOYSA-N

>  <FORMULA>  (729) 
C12H16

>  <EXACT MASS>  (729) 
160.125200512

>  <MW>  (729) 
160

>  <ID>  (729) 
JP010938

>  <CONTRIBUTOR>  (729) 
University of Tokyo Team, {Faculty of Engineering, University of Tokyo

>  <COMMENT>  (729) 
SMILES=C(C2)CCC(C2)c(c1)cccc1
InChI=InChI=1S/C12H16/c1-3-7-11(8-4-1)12-9-5-2-6-10-12/h1,3-4,7-8,12H,2,5-6,9-10H2
computed SMILES=C=1C=CC(=CC1)C2CCCCC2
accession=JP010938
date=2016.01.19 (Created 2008.10.21, modified 2011.05.06)
author=KURARAY CO., LTD.
license=CC BY-NC-SA
exact mass=160.1252
ionization energy=70 eV
ion type=[M]+*
computed spectral entropy=2.4062318427544587
computed normalized entropy=0.8172123313744658
SPLASH=splash10-0i03-3900000000-7ee94bc25e5f347e612d
submitter=submitter = University of Tokyo Team (Faculty of Engineering, University of Tokyo)
MoNA Rating=3.75

>  <NUM PEAKS>  (729) 
19

>  <MASS SPECTRAL PEAKS>  (729) 
41 10.4
57 8.5
65 5.6
67 7.9
69 5.9
77 7.2
78 7.8
82 4.5
91 51.8
92 20.9
103 7.3
104 99.99
105 15
115 12.4
117 80.4
118 15.3
131 10
160 74.2
161 10.4

>  <PREDICTED SPECTRUM>  (729) 
15 13
18 1
26 27
27 167
28 81
29 140
31 3
32 11
38 37
39 235
40 84
41 283
42 58
43 144
44 7
50 117
51 215
52 101
53 110
54 179
55 133
56 131
57 74
58 29
61 3
62 67
63 147
64 102
65 211
66 71
67 275
68 171
69 140
70 40
71 19
74 58
75 75
76 100
77 259
78 270
79 192
80 63
81 86
82 129
83 0
88 6
89 126
90 96
91 604
92 356
93 116
94 16
102 97
103 233
104 999
105 392
106 101
115 194
116 116
117 541
118 319
119 103
127 66
128 70
129 119
130 45
131 143
132 64
142 46
143 24
145 43
146 0
158 25
160 426
161 136
162 32

$$$$

     RDKit          2D

 11 10  0  0  0  0  0  0  0  0999 V2000
    0.6495    3.3750    0.0000 C   0  0  0  0  0  0  0  0  0  0  0  0
   -3.2476    5.6250    0.0000 C   0  0  0  0  0  0  0  0  0  0  0  0
   -4.5466    4.8750    0.0000 C   0  0  0  0  0  0  0  0  0  0  0  0
   -1.9486    4.8750    0.0000 C   0  0  0  0  0  0  0  0  0  0  0  0
   -5.8457    5.6250    0.0000 C   0  0  0  0  0  0  0  0  0  0  0  0
   -0.6495    5.6250    0.0000 C   0  0  0  0  0  0  0  0  0  0  0  0
   -7.1447    4.8750    0.0000 C   0  0  0  0  0  0  0  0  0  0  0  0
    1.9486    5.6250    0.0000 C   0  0  0  0  0  0  0  0  0  0  0  0
    0.6495    4.8750    0.0000 C   0  0  0  0  0  0  0  0  0  0  0  0
   -8.4437    5.6250    0.0000 O   0  0  0  0  0  0  0  0  0  0  0  0
    3.2476    4.8750    0.0000 O   0  0  0  0  0  0  0  0  0  0  0  0
  3  2  1  0
  4  2  1  0
  5  3  1  0
  6  4  1  0
  7  5  1  0
  9  1  1  0
  9  6  1  0
  9  8  1  0
 10  7  1  0
 11  8  1  0
M  END
>  <NAME>  (730) 
2-METHYL-1,8-OCTANEDIOL

>  <SYNONYMS>  (730) 


>  <SPECTRUM TYPE>  (730) 
MS1

>  <INSTRUMENT TYPE>  (730) 
EI-B

>  <INSTRUMENT>  (730) 
JEOL JMS-D-300

>  <ION MODE>  (730) 
P

>  <INCHIKEY>  (730) 
SDQROPCSKIYYAV-UHFFFAOYSA-N

>  <FORMULA>  (730) 
C9H20O2

>  <EXACT MASS>  (730) 
160.14632988

>  <MW>  (730) 
160

>  <ID>  (730) 
JP010937

>  <CONTRIBUTOR>  (730) 
University of Tokyo Team, {Faculty of Engineering, University of Tokyo

>  <COMMENT>  (730) 
SMILES=OCCCCCCC(C)CO
InChI=InChI=1S/C9H20O2/c1-9(8-11)6-4-2-3-5-7-10/h9-11H,2-8H2,1H3
computed SMILES=OCCCCCCC(C)CO
accession=JP010937
date=2016.01.19 (Created 2008.10.21, modified 2011.05.06)
author=KURARAY CO., LTD.
license=CC BY-NC-SA
exact mass=160.14633
ionization energy=70 eV
ion type=[M]+*
computed spectral entropy=3.013935089337534
computed normalized entropy=0.914467314940695
SPLASH=splash10-067l-9000000000-961e6d2963b17608493c
submitter=submitter = University of Tokyo Team (Faculty of Engineering, University of Tokyo)
MoNA Rating=3.75

>  <NUM PEAKS>  (730) 
27

>  <MASS SPECTRAL PEAKS>  (730) 
27 9.4
29 17.5
31 25.9
39 8.4
41 51.3
42 18.2
43 26
44 0.5
45 6.8
54 13.6
55 82.5
56 36.7
57 24
67 23.7
68 29.2
69 99.99
70 42.9
71 13.3
81 22.1
82 34.1
83 35.7
84 18.8
85 9.4
95 13
96 11.7
97 11.5
112 24.1

>  <PREDICTED SPECTRUM>  (730) 
25 5
26 73
27 284
28 96
29 381
30 43
31 360
32 58
33 30
37 0
38 38
39 348
40 139
41 930
42 416
43 632
44 221
45 212
46 67
47 40
49 21
51 77
52 32
53 263
54 367
55 999
56 628
57 605
58 166
59 205
60 59
61 69
63 5
65 67
66 102
67 589
68 590
69 970
70 532
71 500
72 157
73 126
74 57
75 9
77 88
79 148
80 92
81 570
82 580
83 515
84 320
85 181
86 69
87 60
93 87
94 48
95 541
96 400
97 350
98 104
99 121
100 10
101 113
102 3
107 42
109 244
110 88
111 72
112 135
113 83
114 114
115 51
123 47
124 47
142 0

$$$$

     RDKit          2D

 11 10  0  0  0  0  0  0  0  0999 V2000
   -3.2476    6.3750    0.0000 C   0  0  0  0  0  0  0  0  0  0  0  0
   -1.9486    5.6250    0.0000 C   0  0  0  0  0  0  0  0  0  0  0  0
   -4.5466    5.6250    0.0000 C   0  0  0  0  0  0  0  0  0  0  0  0
   -0.6495    6.3750    0.0000 C   0  0  0  0  0  0  0  0  0  0  0  0
   -5.8457    6.3750    0.0000 C   0  0  0  0  0  0  0  0  0  0  0  0
    0.6495    5.6250    0.0000 C   0  0  0  0  0  0  0  0  0  0  0  0
   -7.1447    5.6250    0.0000 C   0  0  0  0  0  0  0  0  0  0  0  0
    1.9486    6.3750    0.0000 C   0  0  0  0  0  0  0  0  0  0  0  0
   -8.4437    6.3750    0.0000 C   0  0  0  0  0  0  0  0  0  0  0  0
    3.2476    5.6250    0.0000 O   0  0  0  0  0  0  0  0  0  0  0  0
   -9.7428    5.6250    0.0000 O   0  0  0  0  0  0  0  0  0  0  0  0
  2  1  1  0
  3  1  1  0
  4  2  1  0
  5  3  1  0
  6  4  1  0
  7  5  1  0
  8  6  1  0
  9  7  1  0
 10  8  1  0
 11  9  1  0
M  END
>  <NAME>  (731) 
1,9-NONANDIOL

>  <SYNONYMS>  (731) 


>  <SPECTRUM TYPE>  (731) 
MS1

>  <INSTRUMENT TYPE>  (731) 
EI-B

>  <INSTRUMENT>  (731) 
JEOL JMS-D-300

>  <ION MODE>  (731) 
P

>  <INCHIKEY>  (731) 
ALVZNPYWJMLXKV-UHFFFAOYSA-N

>  <FORMULA>  (731) 
C9H20O2

>  <EXACT MASS>  (731) 
160.14632988

>  <MW>  (731) 
160

>  <ID>  (731) 
JP010936

>  <CONTRIBUTOR>  (731) 
University of Tokyo Team, {Faculty of Engineering, University of Tokyo

>  <COMMENT>  (731) 
SMILES=OCCCCCCCCCO
InChI=InChI=1S/C9H20O2/c10-8-6-4-2-1-3-5-7-9-11/h10-11H,1-9H2
computed SMILES=OCCCCCCCCCO
accession=JP010936
date=2016.01.19 (Created 2008.10.21, modified 2011.05.06)
author=KURARAY CO., LTD.
license=CC BY-NC-SA
exact mass=160.14633
ionization energy=70 eV
ion type=[M]+*
computed spectral entropy=3.2552578171829722
computed normalized entropy=0.8654838128927116
SPLASH=splash10-0159-9000000000-e729c569a5dcccd61bcb
submitter=submitter = University of Tokyo Team (Faculty of Engineering, University of Tokyo)
MoNA Rating=3.75

>  <NUM PEAKS>  (731) 
43

>  <MASS SPECTRAL PEAKS>  (731) 
27 13.9
29 23.1
31 44.9
39 15
40 3.6
41 76.8
42 31.9
43 40.3
44 12
45 8.7
53 8.4
54 65.7
55 91.7
56 41.6
57 41.1
58 4.5
66 7.8
67 95.4
68 99.99
69 66.9
70 28.6
71 19.8
72 4.9
73 7.8
79 3.6
80 1.3
81 81.8
82 89
83 41.6
84 20.8
85 17.5
86 3.9
94 1.4
95 56.5
96 56.4
97 8.1
98 2.6
99 9.7
109 4.7
110 1.3
111 0.5
112 10.7
113 1.4

>  <PREDICTED SPECTRUM>  (731) 
19 2
26 56
27 261
28 82
29 314
30 37
31 322
32 46
38 22
39 378
40 145
41 935
42 399
43 532
44 215
45 108
46 24
47 42
51 37
52 4
53 295
54 622
55 999
56 448
57 457
58 61
59 67
60 21
63 3
65 109
66 175
67 919
68 881
69 770
70 337
71 316
72 83
73 115
74 36
77 34
79 243
80 139
81 861
82 796
83 474
84 182
85 135
86 41
87 46
91 1
93 85
94 11
95 655
96 585
97 243
98 135
99 92
101 104
102 15
105 12
107 35
109 375
110 143
112 57
113 61
114 85
115 40
123 115
124 91
142 37
143 5

$$$$

     RDKit          2D

 10  9  0  0  0  0  0  0  0  0999 V2000
    2.5981    4.5000    0.0000 C   0  0  0  0  0  0  0  0  0  0  0  0
   -3.8971    6.7500    0.0000 C   0  0  0  0  0  0  0  0  0  0  0  0
    1.2990    5.2500    0.0000 C   0  0  0  0  0  0  0  0  0  0  0  0
   -5.1962    4.5000    0.0000 C   0  0  0  0  0  0  0  0  0  0  0  0
   -2.5981    4.5000    0.0000 C   0  0  0  0  0  0  0  0  0  0  0  0
   -6.4952    5.2500    0.0000 C   0  0  0  0  0  0  0  0  0  0  0  0
   -1.2990    5.2500    0.0000 C   0  0  0  0  0  0  0  0  0  0  0  0
   -3.8971    5.2500    0.0000 C   0  0  0  0  0  0  0  0  0  0  0  0
   -7.7942    4.5000    0.0000 Cl  0  0  0  0  0  0  0  0  0  0  0  0
    0.0000    4.5000    0.0000 O   0  0  0  0  0  0  0  0  0  0  0  0
  3  1  1  0
  4  6  2  0
  7  5  1  0
  8  2  1  0
  8  4  1  0
  5  8  2  0
  9  6  1  0
 10  3  1  0
 10  7  1  0
M  END
>  <NAME>  (732) 
1-CHLORO-5-ETHOXY-3-METHYL-1,3-PENTADIENE

>  <SYNONYMS>  (732) 


>  <SPECTRUM TYPE>  (732) 
MS1

>  <INSTRUMENT TYPE>  (732) 
EI-B

>  <INSTRUMENT>  (732) 
JEOL JMS-D-300

>  <ION MODE>  (732) 
P

>  <INCHIKEY>  (732) 
DFOBSVPZOINBQL-HLQBBKRNSA-N

>  <FORMULA>  (732) 
C8H13ClO

>  <EXACT MASS>  (732) 
160.065492716

>  <MW>  (732) 
160

>  <ID>  (732) 
JP010935

>  <CONTRIBUTOR>  (732) 
University of Tokyo Team, {Faculty of Engineering, University of Tokyo

>  <COMMENT>  (732) 
SMILES=CCOCC=C(C)C=CCl
InChI=InChI=1S/C8H13ClO/c1-3-10-7-5-8(2)4-6-9/h4-6H,3,7H2,1-2H3/b6-4+,8-5+
computed SMILES=ClC=CC(=CCOCC)C
accession=JP010935
date=2016.01.19 (Created 2008.10.21, modified 2011.05.06)
author=KURARAY CO., LTD.
license=CC BY-NC-SA
exact mass=160.06549
ionization energy=70 eV
ion type=[M]+*
computed spectral entropy=2.392256081513569
computed normalized entropy=0.7527424673142353
SPLASH=splash10-00l2-9200000000-255d68167ede7f6572ac
submitter=submitter = University of Tokyo Team (Faculty of Engineering, University of Tokyo)
MoNA Rating=3.75

>  <NUM PEAKS>  (732) 
24

>  <MASS SPECTRAL PEAKS>  (732) 
27 9.3
28 0.9
29 4.5
39 5.5
41 2.9
43 12.7
45 99.99
51 5.5
53 8.7
55 0.8
65 5.9
73 7.7
75 3
77 9.6
79 12.7
80 4
81 69.4
82 3
89 5
91 3.4
115 4.4
116 45.3
117 4.9
118 15.6

>  <PREDICTED SPECTRUM>  (732) 
14 20
15 36
19 5
25 8
26 95
27 329
28 25
29 350
31 124
35 11
36 108
37 9
38 81
39 343
40 85
41 197
42 51
43 685
44 390
45 901
49 74
50 28
51 177
52 155
53 435
54 290
55 82
57 145
63 173
65 119
66 31
70 15
71 3
72 15
73 236
75 60
77 54
79 217
80 323
81 852
82 208
83 65
89 81
91 97
101 63
115 437
116 999
117 526
118 344

$$$$

     RDKit          2D

 11 10  0  0  0  0  0  0  0  0999 V2000
   -7.4695    3.9375    0.0000 C   0  0  0  0  0  0  0  0  0  0  0  0
   -6.1704    6.1875    0.0000 C   0  0  0  0  0  0  0  0  0  0  0  0
    1.6238    3.1875    0.0000 C   0  0  0  0  0  0  0  0  0  0  0  0
   -6.1704    3.1875    0.0000 C   0  0  0  0  0  0  0  0  0  0  0  0
   -4.8714    5.4375    0.0000 C   0  0  0  0  0  0  0  0  0  0  0  0
   -3.5724    3.1875    0.0000 C   0  0  0  0  0  0  0  0  0  0  0  0
   -2.2733    3.9375    0.0000 C   0  0  0  0  0  0  0  0  0  0  0  0
    0.3248    3.9375    0.0000 C   0  0  0  0  0  0  0  0  0  0  0  0
   -4.8714    3.9375    0.0000 N   0  0  0  0  0  0  0  0  0  0  0  0
    0.3248    5.4375    0.0000 O   0  0  0  0  0  0  0  0  0  0  0  0
   -0.9743    3.1875    0.0000 O   0  0  0  0  0  0  0  0  0  0  0  0
  4  1  1  0
  5  2  1  0
  7  6  1  0
  8  3  1  0
  9  4  1  0
  9  5  1  0
  9  6  1  0
 10  8  2  0
 11  7  1  0
 11  8  1  0
M  END
>  <NAME>  (733) 
2-DIETHYLAMINOETHYL ACETATE

>  <SYNONYMS>  (733) 


>  <SPECTRUM TYPE>  (733) 
MS1

>  <INSTRUMENT TYPE>  (733) 
EI-B

>  <INSTRUMENT>  (733) 
JEOL JMS-D-300

>  <ION MODE>  (733) 
P

>  <INCHIKEY>  (733) 
IDIFJUBLWASPDU-UHFFFAOYSA-N

>  <FORMULA>  (733) 
C8H17NO2

>  <EXACT MASS>  (733) 
159.125928784

>  <MW>  (733) 
159

>  <ID>  (733) 
JP010934

>  <CONTRIBUTOR>  (733) 
University of Tokyo Team, {Faculty of Engineering, University of Tokyo

>  <COMMENT>  (733) 
SMILES=CCN(CC)CCOC(C)=O
InChI=InChI=1S/C8H17NO2/c1-4-9(5-2)6-7-11-8(3)10/h4-7H2,1-3H3
computed SMILES=O=C(OCCN(CC)CC)C
accession=JP010934
date=2016.01.19 (Created 2008.10.21, modified 2011.05.06)
author=KURARAY CO., LTD.
license=CC BY-NC-SA
exact mass=159.12593
ionization energy=70 eV
ion type=[M]+*
computed spectral entropy=2.263060991729761
computed normalized entropy=0.7433221590647862
SPLASH=splash10-000i-9000000000-07fce86928ac913f7f53
submitter=submitter = University of Tokyo Team (Faculty of Engineering, University of Tokyo)
MoNA Rating=3.75

>  <NUM PEAKS>  (733) 
21

>  <MASS SPECTRAL PEAKS>  (733) 
27 3.3
29 5.8
30 9.3
42 9.2
43 18.4
44 5.3
56 9.6
57 1.8
58 21.5
70 2.8
71 2.6
72 3.5
84 5.4
86 99.99
87 36.3
88 1.9
99 6
100 6
116 1.9
144 2.9
159 5.2

>  <PREDICTED SPECTRUM>  (733) 
14 8
15 53
26 10
27 99
28 51
29 104
30 193
31 29
39 51
40 46
41 158
42 266
43 304
44 186
45 80
46 17
51 15
52 35
53 14
54 96
55 98
56 221
57 142
58 316
59 45
61 12
62 1
69 16
70 121
71 133
72 121
73 81
74 19
76 4
82 14
84 135
85 42
86 999
87 506
88 82
89 12
99 206
100 171
102 29
114 16
116 13
128 10
130 13
144 116
145 5
158 23
159 150
160 29

$$$$

     RDKit          2D

 11 10  0  0  0  0  0  0  0  0999 V2000
   -3.2476    6.3750    0.0000 C   0  0  0  0  0  0  0  0  0  0  0  0
   -1.9486    5.6250    0.0000 C   0  0  0  0  0  0  0  0  0  0  0  0
   -4.5466    5.6250    0.0000 C   0  0  0  0  0  0  0  0  0  0  0  0
   -0.6495    6.3750    0.0000 C   0  0  0  0  0  0  0  0  0  0  0  0
   -5.8457    6.3750    0.0000 C   0  0  0  0  0  0  0  0  0  0  0  0
    0.6495    5.6250    0.0000 C   0  0  0  0  0  0  0  0  0  0  0  0
   -7.1447    5.6250    0.0000 C   0  0  0  0  0  0  0  0  0  0  0  0
    1.9486    6.3750    0.0000 C   0  0  0  0  0  0  0  0  0  0  0  0
   -8.4437    6.3750    0.0000 C   0  0  0  0  0  0  0  0  0  0  0  0
    3.2476    5.6250    0.0000 O   0  0  0  0  0  0  0  0  0  0  0  0
   -9.7428    5.6250    0.0000 O   0  0  0  0  0  0  0  0  0  0  0  0
  2  1  1  0
  3  1  1  0
  4  2  1  0
  5  3  1  0
  4  6  2  0
  7  5  1  0
  8  6  1  0
  9  7  1  0
 10  8  1  0
 11  9  2  0
M  END
>  <NAME>  (734) 
9-HYDROXY-7-NONANAL

>  <SYNONYMS>  (734) 


>  <SPECTRUM TYPE>  (734) 
MS1

>  <INSTRUMENT TYPE>  (734) 
EI-B

>  <INSTRUMENT>  (734) 
JEOL JMS-D-300

>  <ION MODE>  (734) 
P

>  <INCHIKEY>  (734) 
FWMKRIYREKTLSC-GQCTYLIASA-N

>  <FORMULA>  (734) 
C9H16O2

>  <EXACT MASS>  (734) 
156.115029752

>  <MW>  (734) 
156

>  <ID>  (734) 
JP010933

>  <CONTRIBUTOR>  (734) 
University of Tokyo Team, {Faculty of Engineering, University of Tokyo

>  <COMMENT>  (734) 
SMILES=OCC=CCCCCCC=O
InChI=InChI=1S/C9H16O2/c10-8-6-4-2-1-3-5-7-9-11/h4,6,9-10H,1-3,5,7-8H2/b6-4+
computed SMILES=O=CCCCCCC=CCO
accession=JP010933
date=2016.01.19 (Created 2008.10.21, modified 2011.05.06)
author=KURARAY CO., LTD.
license=CC BY-NC-SA
exact mass=156.11503
ionization energy=70 eV
ion type=[M]+*
computed spectral entropy=3.4482640648499694
computed normalized entropy=0.8860285934897889
SPLASH=splash10-0a6u-9000000000-c5edda4f4220a2ad764d
submitter=submitter = University of Tokyo Team (Faculty of Engineering, University of Tokyo)
MoNA Rating=3.75

>  <NUM PEAKS>  (734) 
49

>  <MASS SPECTRAL PEAKS>  (734) 
27 25.2
29 38.9
31 13.8
39 22.3
41 56
42 13.4
43 33.5
44 20.2
45 5.5
51 2.3
53 12
54 33.4
55 43.3
56 6.5
57 99.99
58 8.1
65 2.9
66 5.9
67 45.6
68 19.1
69 18.6
70 20.1
71 14.1
72 2.3
77 3.6
78 3
79 39.3
80 9.6
81 26.2
82 17.8
83 21.2
84 49.5
85 4.7
91 7.8
92 6.5
93 6.5
94 29
95 35.5
96 9.3
97 9.8
98 1.9
105 4.7
107 2
109 9.8
110 4.8
111 1.9
112 2
123 3.1
138 1.9

>  <PREDICTED SPECTRUM>  (734) 
14 6
15 35
16 4
18 5
19 11
25 6
26 116
27 437
28 177
29 476
30 135
31 351
32 23
37 53
38 113
39 569
40 251
41 999
42 464
43 597
44 418
45 246
46 41
47 36
49 42
50 124
51 216
52 193
53 471
54 797
55 722
56 385
57 632
58 241
59 126
60 91
62 21
63 123
64 42
65 243
66 322
67 995
68 708
69 544
70 507
71 321
72 109
73 50
74 70
75 3
76 8
77 302
78 193
79 650
80 502
81 817
82 443
83 427
84 384
85 171
86 77
91 327
92 258
93 415
94 447
95 519
96 367
97 331
98 404
99 129
105 209
106 0
107 178
108 90
109 369
110 274
111 148
112 218
113 80
119 50
120 155
121 78
123 171
127 12
137 24
138 343
139 32

$$$$

     RDKit          2D

 11 10  0  0  0  0  0  0  0  0999 V2000
   -5.5209    2.8125    0.0000 C   0  0  0  0  0  0  0  0  0  0  0  0
   -0.3248    4.3125    0.0000 C   0  0  0  0  0  0  0  0  0  0  0  0
    0.9743    2.0625    0.0000 C   0  0  0  0  0  0  0  0  0  0  0  0
   -1.9587    3.9616    0.0000 C   0  0  0  0  0  0  0  0  0  0  0  0
   -4.2219    2.0625    0.0000 C   0  0  0  0  0  0  0  0  0  0  0  0
   -1.6238    0.5625    0.0000 C   0  0  0  0  0  0  0  0  0  0  0  0
   -0.3248    2.8125    0.0000 C   0  0  0  0  0  0  0  0  0  0  0  0
   -1.6238    2.0625    0.0000 C   0  0  0  0  0  0  0  0  0  0  0  0
   -2.9228    2.8125    0.0000 C   0  0  0  0  0  0  0  0  0  0  0  0
   -0.3248   -0.1875    0.0000 O   0  0  0  0  0  0  0  0  0  0  0  0
   -3.8870    3.9616    0.0000 O   0  0  0  0  0  0  0  0  0  0  0  0
  5  1  2  0
  7  2  2  0
  7  3  1  0
  8  6  1  0
  8  7  1  0
  9  4  1  0
  9  5  1  0
  9  8  1  0
 10  6  1  0
 11  9  1  0
M  END
>  <NAME>  (735) 
3-HYDROXY-4-HYDROXYMETHYL-3,5-DIMETHYL-1,5-HEXADIENE

>  <SYNONYMS>  (735) 


>  <SPECTRUM TYPE>  (735) 
MS1

>  <INSTRUMENT TYPE>  (735) 
EI-B

>  <INSTRUMENT>  (735) 
JEOL JMS-D-300

>  <ION MODE>  (735) 
P

>  <INCHIKEY>  (735) 
VELVMAHUONHCSK-UHFFFAOYSA-N

>  <FORMULA>  (735) 
C9H16O2

>  <EXACT MASS>  (735) 
156.115029752

>  <MW>  (735) 
156

>  <ID>  (735) 
JP010932

>  <CONTRIBUTOR>  (735) 
University of Tokyo Team, {Faculty of Engineering, University of Tokyo

>  <COMMENT>  (735) 
SMILES=OCC(C(C)=C)C(C)(O)C=C
InChI=InChI=1S/C9H16O2/c1-5-9(4,11)8(6-10)7(2)3/h5,8,10-11H,1-2,6H2,3-4H3
computed SMILES=OCC(C(=C)C)C(O)(C=C)C
accession=JP010932
date=2016.01.19 (Created 2008.10.21, modified 2011.05.06)
author=KURARAY CO., LTD.
license=CC BY-NC-SA
exact mass=156.11503
ionization energy=70 eV
ion type=[M]+*
computed spectral entropy=2.3524907899229306
computed normalized entropy=0.6254628090930847
SPLASH=splash10-01b9-9000000000-cd7787c5c0af6c275f31
submitter=submitter = University of Tokyo Team (Faculty of Engineering, University of Tokyo)
MoNA Rating=3.75

>  <NUM PEAKS>  (735) 
43

>  <MASS SPECTRAL PEAKS>  (735) 
27 5.1
28 1.6
29 3.1
31 1.7
39 5.9
40 2.2
41 11.1
42 1.9
43 24
53 9.1
55 9.2
67 22
68 99.99
69 13.4
70 1.7
71 85.9
72 4.5
77 1.9
79 1
83 1.8
85 2.6
91 2.5
93 2.4
95 5.8
102 0.1
103 0.3
105 1.2
106 0.3
107 1.5
108 0.8
109 0.8
110 0.1
111 0.5
119 0.3
120 0.4
121 0.3
123 2.1
124 0.3
125 0.5
127 0.1
129 0.1
133 0.1
137 0.6

>  <PREDICTED SPECTRUM>  (735) 
26 35
27 193
28 64
29 130
31 197
32 12
38 30
39 239
40 109
41 488
42 145
43 688
44 160
45 17
50 4
51 60
52 57
53 305
54 141
55 298
56 24
57 30
65 84
66 82
67 509
68 732
69 430
70 189
71 999
72 117
77 27
79 64
80 3
81 74
82 51
83 16
86 33
89 19
91 104
93 181
95 137
97 55
105 148
107 71
108 21
111 17
121 74
123 125
125 26
126 31

$$$$

     RDKit          2D

 11 11  0  0  0  0  0  0  0  0999 V2000
    1.8127   -2.1596    0.0000 C   0  0  0  0  0  0  0  0  0  0  0  0
    2.7772   -0.4897    0.0000 C   0  0  0  0  0  0  0  0  0  0  0  0
   -2.7772   -0.4897    0.0000 C   0  0  0  0  0  0  0  0  0  0  0  0
   -1.8127   -2.1596    0.0000 C   0  0  0  0  0  0  0  0  0  0  0  0
    1.3000    0.7500    0.0000 C   0  0  0  0  0  0  0  0  0  0  0  0
   -1.3000    0.7500    0.0000 C   0  0  0  0  0  0  0  0  0  0  0  0
   -0.0000    1.5000    0.0000 C   0  0  0  0  0  0  0  0  0  0  0  0
    1.3000   -0.7500    0.0000 C   0  0  0  0  0  0  0  0  0  0  0  0
   -1.3000   -0.7500    0.0000 C   0  0  0  0  0  0  0  0  0  0  0  0
   -0.0000   -1.5000    0.0000 N   0  0  0  0  0  0  0  0  0  0  0  0
    0.0000    3.0000    0.0000 O   0  0  0  0  0  0  0  0  0  0  0  0
  7  5  1  0
  7  6  1  0
  8  1  1  0
  8  2  1  0
  8  5  1  0
  9  3  1  0
  9  4  1  0
  9  6  1  0
 10  8  1  0
 10  9  1  0
 11  7  2  0
M  END
>  <NAME>  (736) 
2,2,6,6-TETRAMETHYL-4-PIPERIDONE

>  <SYNONYMS>  (736) 


>  <SPECTRUM TYPE>  (736) 
MS1

>  <INSTRUMENT TYPE>  (736) 
EI-B

>  <INSTRUMENT>  (736) 
JEOL JMS-D-300

>  <ION MODE>  (736) 
P

>  <INCHIKEY>  (736) 
JWUXJYZVKZKLTJ-UHFFFAOYSA-N

>  <FORMULA>  (736) 
C9H17NO

>  <EXACT MASS>  (736) 
155.131014164

>  <MW>  (736) 
155

>  <ID>  (736) 
JP010931

>  <CONTRIBUTOR>  (736) 
University of Tokyo Team, {Faculty of Engineering, University of Tokyo

>  <COMMENT>  (736) 
SMILES=O=C(C1)CC(C)(C)NC(C)(C)1
InChI=InChI=1S/C9H17NO/c1-8(2)5-7(11)6-9(3,4)10-8/h10H,5-6H2,1-4H3
computed SMILES=O=C1CC(NC(C)(C)C1)(C)C
accession=JP010931
date=2016.01.19 (Created 2008.10.21, modified 2011.05.06)
author=KURARAY CO., LTD.
license=CC BY-NC-SA
exact mass=155.13101
ionization energy=70 eV
ion type=[M]+*
computed spectral entropy=2.575760495677266
computed normalized entropy=0.6982501129996833
SPLASH=splash10-0536-9300000000-7e39d8f6bb4027145493
submitter=submitter = University of Tokyo Team (Faculty of Engineering, University of Tokyo)
MoNA Rating=3.75

>  <NUM PEAKS>  (736) 
40

>  <MASS SPECTRAL PEAKS>  (736) 
27 3.2
29 4.5
30 1.5
39 5.8
40 1.2
41 12.3
42 46.1
43 15.3
51 0.4
53 1.5
54 1
55 18.8
56 12
57 6.7
58 62.6
59 2.1
62 0.9
67 0.4
68 0.5
70 2.5
71 0.2
81 0.4
82 1
83 84.2
84 30
85 1.2
86 0.9
95 0.3
96 1.2
97 0.9
98 19.4
99 2.5
112 7.1
122 0.6
123 0.5
124 1.1
140 99.99
141 9.4
155 8.4
156 0.6

>  <PREDICTED SPECTRUM>  (736) 
14 18
15 75
27 33
28 50
29 14
30 58
32 10
33 4
34 14
37 20
38 75
39 354
40 195
41 540
42 771
43 299
44 61
50 17
51 50
52 60
53 176
54 157
55 438
56 615
57 279
58 999
59 91
65 49
66 21
67 105
68 46
69 23
70 169
77 41
79 44
80 50
81 55
82 173
83 433
84 157
96 152
97 187
98 567
99 119
112 37
122 104
123 57
140 574
141 135
155 223
156 18

$$$$

     RDKit          2D

 11 10  0  0  0  0  0  0  0  0999 V2000
   -6.8200    5.0625    0.0000 C   0  0  0  0  0  0  0  0  0  0  0  0
   -5.5209    2.8125    0.0000 C   0  0  0  0  0  0  0  0  0  0  0  0
    3.5724    5.0625    0.0000 C   0  0  0  0  0  0  0  0  0  0  0  0
    2.2733    2.8125    0.0000 C   0  0  0  0  0  0  0  0  0  0  0  0
   -4.2219    5.0625    0.0000 C   0  0  0  0  0  0  0  0  0  0  0  0
    0.9743    5.0625    0.0000 C   0  0  0  0  0  0  0  0  0  0  0  0
   -2.9228    4.3125    0.0000 C   0  0  0  0  0  0  0  0  0  0  0  0
   -0.3248    4.3125    0.0000 C   0  0  0  0  0  0  0  0  0  0  0  0
   -5.5209    4.3125    0.0000 C   0  0  0  0  0  0  0  0  0  0  0  0
    2.2733    4.3125    0.0000 C   0  0  0  0  0  0  0  0  0  0  0  0
   -1.6238    5.0625    0.0000 O   0  0  0  0  0  0  0  0  0  0  0  0
  7  5  1  0
  8  6  1  0
  9  1  1  0
  9  2  1  0
  9  5  2  0
 10  3  1  0
 10  4  1  0
 10  6  2  0
 11  7  1  0
 11  8  1  0
M  END
>  <NAME>  (737) 
BIS(3-METHYL-2-BUTENYL) ETHER

>  <SYNONYMS>  (737) 


>  <SPECTRUM TYPE>  (737) 
MS1

>  <INSTRUMENT TYPE>  (737) 
EI-B

>  <INSTRUMENT>  (737) 
JEOL JMS-D-300

>  <ION MODE>  (737) 
P

>  <INCHIKEY>  (737) 
UATRONWBYDQKSQ-UHFFFAOYSA-N

>  <FORMULA>  (737) 
C10H18O

>  <EXACT MASS>  (737) 
154.135765196

>  <MW>  (737) 
154

>  <ID>  (737) 
JP010930

>  <CONTRIBUTOR>  (737) 
University of Tokyo Team, {Faculty of Engineering, University of Tokyo

>  <COMMENT>  (737) 
SMILES=CC(C)=CCOCC=C(C)C
InChI=InChI=1S/C10H18O/c1-9(2)5-7-11-8-6-10(3)4/h5-6H,7-8H2,1-4H3
computed SMILES=O(CC=C(C)C)CC=C(C)C
accession=JP010930
date=2016.01.19 (Created 2008.10.21, modified 2011.05.06)
author=KURARAY CO., LTD.
license=CC BY-NC-SA
exact mass=154.13577
ionization energy=70 eV
ion type=[M]+*
computed spectral entropy=2.515867087502758
computed normalized entropy=0.8139218808752856
SPLASH=splash10-014u-9000000000-a9b9dbe695752cd395c4
submitter=submitter = University of Tokyo Team (Faculty of Engineering, University of Tokyo)
MoNA Rating=3.75

>  <NUM PEAKS>  (737) 
22

>  <MASS SPECTRAL PEAKS>  (737) 
27 9.1
29 16.3
39 11.2
40 1.5
41 88.1
42 10.8
43 6.3
53 8.3
55 23.1
56 2
57 17
67 11.6
68 9.2
69 99.99
70 32.8
71 12.7
83 4.5
85 38.6
86 3.1
110 3.3
139 30.5
140 2.5

>  <PREDICTED SPECTRUM>  (737) 
26 47
27 240
28 102
29 225
30 40
31 60
37 41
38 46
39 340
40 195
41 828
42 267
43 316
44 127
45 121
50 60
51 95
52 75
53 322
54 160
55 341
56 147
57 268
58 127
59 101
63 1
65 77
66 90
67 497
68 570
69 999
70 376
71 260
72 82
77 26
79 2
82 11
83 122
84 151
85 519
86 195
87 70
92 0
97 23
98 25
99 5
109 23
111 70
139 204
140 108
141 60
154 129
155 32

$$$$

     RDKit          2D

 11 10  0  0  0  0  0  0  0  0999 V2000
    1.8149    3.2978    0.0000 C   0  0  0  0  0  0  0  0  0  0  0  0
   -5.9793    3.2978    0.0000 C   0  0  0  0  0  0  0  0  0  0  0  0
   -4.6803    5.5478    0.0000 C   0  0  0  0  0  0  0  0  0  0  0  0
   -1.7473    2.1488    0.0000 C   0  0  0  0  0  0  0  0  0  0  0  0
    0.5159    4.0478    0.0000 C   0  0  0  0  0  0  0  0  0  0  0  0
   -3.3812    3.2978    0.0000 C   0  0  0  0  0  0  0  0  0  0  0  0
   -2.0822    4.0478    0.0000 C   0  0  0  0  0  0  0  0  0  0  0  0
    0.1810    2.1488    0.0000 C   0  0  0  0  0  0  0  0  0  0  0  0
   -4.6803    4.0478    0.0000 C   0  0  0  0  0  0  0  0  0  0  0  0
   -0.7831    3.2978    0.0000 C   0  0  0  0  0  0  0  0  0  0  0  0
    1.6582    2.4093    0.0000 O   0  0  0  0  0  0  0  0  0  0  0  0
  5  1  1  0
  7  6  1  0
  9  2  1  0
  9  3  1  0
  9  6  2  0
 10  4  1  0
 10  5  1  0
 10  7  1  0
 10  8  1  0
 11  8  2  0
M  END
>  <NAME>  (738) 
2-ETHYL-2,5-DIMETHYL-4-HEXENAL

>  <SYNONYMS>  (738) 


>  <SPECTRUM TYPE>  (738) 
MS1

>  <INSTRUMENT TYPE>  (738) 
EI-B

>  <INSTRUMENT>  (738) 
JEOL JMS-D-300

>  <ION MODE>  (738) 
P

>  <INCHIKEY>  (738) 
LOQNRQKPDZGEBZ-UHFFFAOYSA-N

>  <FORMULA>  (738) 
C10H18O

>  <EXACT MASS>  (738) 
154.135765196

>  <MW>  (738) 
154

>  <ID>  (738) 
JP010929

>  <CONTRIBUTOR>  (738) 
University of Tokyo Team, {Faculty of Engineering, University of Tokyo

>  <COMMENT>  (738) 
SMILES=CC(C)=CCC(C)(CC)C=O
InChI=InChI=1S/C10H18O/c1-5-10(4,8-11)7-6-9(2)3/h6,8H,5,7H2,1-4H3
computed SMILES=O=CC(C)(CC=C(C)C)CC
ion type=[M]+*
accession=JP010929
date=2016.01.19 (Created 2008.10.21, modified 2011.05.06)
author=KURARAY CO., LTD.
license=CC BY-NC-SA
exact mass=154.13577
ionization energy=70 eV
computed spectral entropy=2.7295176702127897
computed normalized entropy=0.7948537684263222
SPLASH=splash10-01dl-9000000000-b5e3f6cbd7da272c394f
submitter=submitter = University of Tokyo Team (Faculty of Engineering, University of Tokyo)
MoNA Rating=3.75

>  <NUM PEAKS>  (738) 
31

>  <MASS SPECTRAL PEAKS>  (738) 
27 13.3
28 4.2
29 15.2
39 13.1
40 1.9
41 83.4
42 8.8
43 10.8
51 1
53 8.1
55 30.2
56 14.5
57 11.6
67 6.1
68 4.8
69 99.99
70 42.1
71 32.5
72 4.1
81 1.2
83 9.8
84 0.9
86 24.7
95 0.8
97 3.3
99 0.9
107 2
125 11.6
126 23.4
127 1.1
154 1.1

>  <PREDICTED SPECTRUM>  (738) 
26 41
27 253
28 112
29 244
31 29
37 40
38 85
39 371
40 174
41 725
42 226
43 344
44 66
50 66
51 120
52 70
53 231
54 72
55 397
56 220
57 244
58 15
65 81
66 40
67 221
68 160
69 999
70 498
71 308
72 91
77 24
79 72
80 15
81 138
82 60
83 166
84 103
85 141
86 146
87 38
92 1
93 66
95 120
96 70
97 131
98 61
99 50
107 107
108 18
110 33
111 78
121 19
125 354
126 200
127 27
136 23
139 32
154 73
155 19

$$$$

     RDKit          2D

 11 10  0  0  0  0  0  0  0  0999 V2000
   -6.8200    5.0625    0.0000 C   0  0  0  0  0  0  0  0  0  0  0  0
   -5.5209    2.8125    0.0000 C   0  0  0  0  0  0  0  0  0  0  0  0
   -2.9228    2.8125    0.0000 C   0  0  0  0  0  0  0  0  0  0  0  0
   -0.3248    4.3125    0.0000 C   0  0  0  0  0  0  0  0  0  0  0  0
    0.9743    5.0625    0.0000 C   0  0  0  0  0  0  0  0  0  0  0  0
   -1.6238    5.0625    0.0000 C   0  0  0  0  0  0  0  0  0  0  0  0
    2.2733    4.3125    0.0000 C   0  0  0  0  0  0  0  0  0  0  0  0
   -4.2219    5.0625    0.0000 C   0  0  0  0  0  0  0  0  0  0  0  0
   -5.5209    4.3125    0.0000 C   0  0  0  0  0  0  0  0  0  0  0  0
   -2.9228    4.3125    0.0000 C   0  0  0  0  0  0  0  0  0  0  0  0
    3.5724    5.0625    0.0000 O   0  0  0  0  0  0  0  0  0  0  0  0
  4  5  2  0
  6  4  1  0
  7  5  1  0
  9  1  1  0
  9  2  1  0
  9  8  1  0
 10  3  1  0
 10  6  1  0
 10  8  1  0
 11  7  2  0
M  END
>  <NAME>  (739) 
5-METHYL-6-ISOPROPYL-2-HEXENAL

>  <SYNONYMS>  (739) 


>  <SPECTRUM TYPE>  (739) 
MS1

>  <INSTRUMENT TYPE>  (739) 
EI-B

>  <INSTRUMENT>  (739) 
JEOL JMS-D-300

>  <ION MODE>  (739) 
P

>  <INCHIKEY>  (739) 
LALGZGJSCVIMDQ-SNAWJCMRSA-N

>  <FORMULA>  (739) 
C10H18O

>  <EXACT MASS>  (739) 
154.135765196

>  <MW>  (739) 
154

>  <ID>  (739) 
JP010928

>  <CONTRIBUTOR>  (739) 
University of Tokyo Team, {Faculty of Engineering, University of Tokyo

>  <COMMENT>  (739) 
SMILES=O=CC=CCC(C)CC(C)C
InChI=InChI=1S/C10H18O/c1-9(2)8-10(3)6-4-5-7-11/h4-5,7,9-10H,6,8H2,1-3H3/b5-4+
computed SMILES=O=CC=CCC(C)CC(C)C
accession=JP010928
date=2016.01.19 (Created 2008.10.21, modified 2011.05.06)
author=KURARAY CO., LTD.
license=CC BY-NC-SA
exact mass=154.13577
ionization energy=70 eV
ion type=[M]+*
computed spectral entropy=3.3157986706747233
computed normalized entropy=0.8312388898949425
SPLASH=splash10-01oy-9300000000-2eeca73257c76be9bc4f
submitter=submitter = University of Tokyo Team (Faculty of Engineering, University of Tokyo)
MoNA Rating=3.75

>  <NUM PEAKS>  (739) 
54

>  <MASS SPECTRAL PEAKS>  (739) 
27 18.8
29 10.8
38 1.4
39 28.1
40 3.9
41 75.9
42 6.1
43 82.9
44 1.1
51 4.5
52 0.4
53 14
54 2.2
55 47.2
56 33.4
57 12.3
58 0.1
59 2.9
65 5.8
66 2.2
67 18.1
68 4.6
69 79.2
70 12
71 4.3
77 8.6
78 1
79 20.2
80 2
81 19.4
82 2.8
83 38.1
84 5.6
85 9.2
91 4.5
92 1
93 17
94 2.3
95 15.6
96 1.9
97 99.99
98 14.7
99 18.8
111 90.6
112 29.8
113 2
121 34.5
122 2.8
123 8.9
125 1
139 66.9
140 6.2
154 37.5
155 4.4

>  <PREDICTED SPECTRUM>  (739) 
15 29
25 27
26 93
27 401
28 150
29 333
31 8
34 9
35 20
36 44
37 49
38 97
39 423
40 177
41 783
42 404
43 999
44 143
45 14
49 11
50 89
51 121
52 102
53 315
54 197
55 596
56 658
57 371
58 136
59 12
60 22
61 7
62 36
63 118
65 128
66 52
67 292
68 164
69 807
70 375
71 470
72 169
77 120
78 30
79 116
80 43
81 127
82 113
83 283
84 643
85 570
86 93
89 10
91 128
92 21
93 44
94 15
95 183
96 117
97 266
98 147
99 127
100 60
101 12
110 46
111 192
112 6
113 17
121 0
125 80
126 23
127 7

$$$$

     RDKit          2D

 11 10  0  0  0  0  0  0  0  0999 V2000
   -7.4695    3.9375    0.0000 C   0  0  0  0  0  0  0  0  0  0  0  0
    0.3248    5.4375    0.0000 C   0  0  0  0  0  0  0  0  0  0  0  0
    1.6238    3.1875    0.0000 C   0  0  0  0  0  0  0  0  0  0  0  0
   -0.9743    6.1875    0.0000 C   0  0  0  0  0  0  0  0  0  0  0  0
   -6.1704    3.1875    0.0000 C   0  0  0  0  0  0  0  0  0  0  0  0
   -4.8714    3.9375    0.0000 C   0  0  0  0  0  0  0  0  0  0  0  0
   -3.5724    3.1875    0.0000 C   0  0  0  0  0  0  0  0  0  0  0  0
   -0.9743    3.1875    0.0000 C   0  0  0  0  0  0  0  0  0  0  0  0
    0.3248    3.9375    0.0000 C   0  0  0  0  0  0  0  0  0  0  0  0
   -2.2733    3.9375    0.0000 C   0  0  0  0  0  0  0  0  0  0  0  0
   -2.2733    5.4375    0.0000 O   0  0  0  0  0  0  0  0  0  0  0  0
  5  1  1  0
  6  5  1  0
  7  6  1  0
  9  2  2  0
  9  3  1  0
  9  8  1  0
 10  7  1  0
  8 10  2  0
 11  4  1  0
 11 10  1  0
M  END
>  <NAME>  (740) 
4-METHOXY-2-METHYL-1,3-OCTADIENE

>  <SYNONYMS>  (740) 


>  <SPECTRUM TYPE>  (740) 
MS1

>  <INSTRUMENT TYPE>  (740) 
EI-B

>  <INSTRUMENT>  (740) 
JEOL JMS-D-300

>  <ION MODE>  (740) 
P

>  <INCHIKEY>  (740) 
LRUTXLRHMKGBCN-NTMALXAHSA-N

>  <FORMULA>  (740) 
C10H18O

>  <EXACT MASS>  (740) 
154.135765196

>  <MW>  (740) 
154

>  <ID>  (740) 
JP010927

>  <CONTRIBUTOR>  (740) 
University of Tokyo Team, {Faculty of Engineering, University of Tokyo

>  <COMMENT>  (740) 
SMILES=CCCCC(OC)=CC(C)=C
InChI=InChI=1S/C10H18O/c1-5-6-7-10(11-4)8-9(2)3/h8H,2,5-7H2,1,3-4H3/b10-8-
computed SMILES=O(C(=CC(=C)C)CCCC)C
accession=JP010927
date=2016.01.19 (Created 2008.10.21, modified 2011.05.06)
author=KURARAY CO., LTD.
license=CC BY-NC-SA
exact mass=154.13577
ionization energy=70 eV
ion type=[M]+*
computed spectral entropy=3.7720504930240115
computed normalized entropy=0.830245597918115
SPLASH=splash10-004i-9500000000-db784a277187d5eaf6da
submitter=submitter = University of Tokyo Team (Faculty of Engineering, University of Tokyo)
MoNA Rating=3.75

>  <NUM PEAKS>  (740) 
94

>  <MASS SPECTRAL PEAKS>  (740) 
26 0.8
27 16.6
28 93.4
29 16.3
30 0.4
31 2.9
32 26.8
38 1
39 18.1
40 4.2
41 36.6
42 4.3
43 17.6
44 1
45 26.3
50 1.7
51 3.7
52 2.2
53 14.8
54 3.3
55 30.2
56 2.5
57 11.7
58 3.3
59 10.4
63 0.6
65 5.4
66 2
67 20.9
68 3.9
69 13.3
70 1
71 5.7
72 5.2
73 2.3
74 1.3
75 2.1
77 30
78 3.8
79 25.5
80 3.8
81 16.5
82 5.2
83 15.7
84 1.3
85 12.3
86 1.2
87 0.8
91 19.9
92 2
93 41.4
94 4.4
95 14.2
96 3.9
97 28.1
98 5.5
99 4
101 3.9
102 1
103 1
105 2.6
106 0.4
107 13.1
108 1.3
109 4.4
110 5.8
111 32.3
112 10.4
113 1
119 2
120 0.8
121 2
122 2.1
123 5.2
124 1.4
125 99.99
126 9.7
127 0.7
129 7.8
133 32.3
134 2.1
135 10.5
136 0.8
137 1
139 66.6
140 7.2
141 1
153 2.8
154 34.9
155 5.5
162 0.4
163 1.2
177 0.8
178 0.7

>  <PREDICTED SPECTRUM>  (740) 
26 31
27 304
28 108
29 382
31 28
32 5
33 20
37 10
38 77
39 574
40 178
41 919
42 391
43 572
44 88
45 240
50 61
51 216
52 145
53 457
54 178
55 618
56 113
57 231
58 50
59 387
63 6
64 1
65 294
66 188
67 513
68 92
69 322
70 24
71 204
72 38
77 257
78 116
79 485
80 204
81 689
82 287
83 493
84 118
85 49
91 55
93 271
94 37
95 418
96 45
97 757
98 181
99 180
107 186
108 65
109 279
110 97
111 462
112 384
113 207
114 44
122 51
123 439
124 48
125 999
126 268
127 175
137 28
139 630
140 144
154 884
155 283
156 6

$$$$

     RDKit          2D

 11 11  0  0  0  0  0  0  0  0999 V2000
    2.5987    3.0002    0.0000 C   0  0  0  0  0  0  0  0  0  0  0  0
    3.8981    0.7504    0.0000 C   0  0  0  0  0  0  0  0  0  0  0  0
   -1.3000    0.7500    0.0000 C   0  0  0  0  0  0  0  0  0  0  0  0
   -0.0000   -1.5000    0.0000 C   0  0  0  0  0  0  0  0  0  0  0  0
    0.0000    1.5000    0.0000 C   0  0  0  0  0  0  0  0  0  0  0  0
    1.3000   -0.7500    0.0000 C   0  0  0  0  0  0  0  0  0  0  0  0
   -2.5989   -1.5002    0.0000 C   0  0  0  0  0  0  0  0  0  0  0  0
    2.5989    1.5002    0.0000 C   0  0  0  0  0  0  0  0  0  0  0  0
   -1.3000   -0.7500    0.0000 C   0  0  0  0  0  0  0  0  0  0  0  0
    1.3000    0.7500    0.0000 C   0  0  0  0  0  0  0  0  0  0  0  0
   -3.8981   -0.7504    0.0000 O   0  0  0  0  0  0  0  0  0  0  0  0
  5  3  1  0
  6  4  1  0
  8  1  2  0
  8  2  1  0
  9  3  2  0
  9  4  1  0
  9  7  1  0
 10  5  1  0
 10  6  1  0
 10  8  1  0
 11  7  1  0
M  END
>  <NAME>  (741) 
4-(1-METHYLETHENYL)CYCLOHEXENE-1-METHANOL

>  <SYNONYMS>  (741) 


>  <SPECTRUM TYPE>  (741) 
MS1

>  <INSTRUMENT TYPE>  (741) 
EI-B

>  <INSTRUMENT>  (741) 
JEOL JMS-D-300

>  <ION MODE>  (741) 
P

>  <INCHIKEY>  (741) 
NDTYTMIUWGWIMO-UHFFFAOYSA-N

>  <FORMULA>  (741) 
C10H16O

>  <EXACT MASS>  (741) 
152.120115132

>  <MW>  (741) 
152

>  <ID>  (741) 
JP010926

>  <CONTRIBUTOR>  (741) 
University of Tokyo Team, {Faculty of Engineering, University of Tokyo

>  <COMMENT>  (741) 
SMILES=OCC(C1)=CCC(C(C)=C)C1
InChI=InChI=1S/C10H16O/c1-8(2)10-5-3-9(7-11)4-6-10/h3,10-11H,1,4-7H2,2H3
computed SMILES=OCC1=CCC(C(=C)C)CC1
accession=JP010926
date=2016.01.19 (Created 2008.10.21, modified 2011.05.06)
author=KURARAY CO., LTD.
license=CC BY-NC-SA
exact mass=152.12012
ionization energy=70 eV
ion type=[M]+*
computed spectral entropy=3.5147257013533078
computed normalized entropy=0.9128807684651435
SPLASH=splash10-014l-9300000000-f32f7e87d33288c8045d
submitter=submitter = University of Tokyo Team (Faculty of Engineering, University of Tokyo)
MoNA Rating=3.75

>  <NUM PEAKS>  (741) 
47

>  <MASS SPECTRAL PEAKS>  (741) 
27 15.3
28 15.2
29 12.2
30 6.3
31 4.7
39 23.5
40 9.2
41 39.2
42 6.7
43 11.6
51 7.5
53 27.8
55 43.8
56 13.4
57 6
65 10.5
66 7.2
67 65.1
68 99.99
69 15.7
77 26.5
78 8.8
79 68.3
80 11.3
81 17.6
83 19.1
84 30.7
91 46.4
92 35.3
93 61.2
94 31.4
95 16.3
96 5.6
105 30.2
106 52.5
107 9.8
108 6.5
109 9.1
117 4.9
119 64.1
120 7.8
121 28.1
123 7.8
124 6.1
134 43.1
135 6.9
152 19.6

>  <PREDICTED SPECTRUM>  (741) 
26 59
27 358
28 95
29 323
31 265
37 10
38 76
39 561
40 240
41 825
42 309
43 535
44 168
45 83
49 9
50 148
51 293
52 241
53 580
54 313
55 619
56 359
57 325
58 25
59 90
60 48
61 62
62 95
63 207
64 120
65 382
66 334
67 949
68 806
69 544
70 384
71 258
72 54
74 26
75 100
76 51
77 614
78 366
79 983
80 482
81 734
82 379
83 384
84 339
85 148
86 19
89 72
90 73
91 771
92 519
93 999
94 534
95 467
96 393
97 369
98 191
99 23
102 22
103 155
104 165
105 553
106 424
107 533
108 502
109 599
110 298
111 139
115 135
116 69
117 122
118 28
119 757
120 227
121 732
122 241
123 245
124 169
125 52
133 107
134 654
135 222
136 19
137 244
138 64
151 1
152 555
153 173

$$$$

     RDKit          2D

 11 11  0  0  0  0  0  0  0  0999 V2000
    2.1818    1.5459    0.0000 C   0  0  0  0  0  0  0  0  0  0  0  0
   -0.5243   -1.3369    0.0000 C   0  0  0  0  0  0  0  0  0  0  0  0
    1.3102   -0.5211    0.0000 C   0  0  0  0  0  0  0  0  0  0  0  0
   -0.3097    2.4968    0.0000 C   0  0  0  0  0  0  0  0  0  0  0  0
   -1.6855    1.8939    0.0000 C   0  0  0  0  0  0  0  0  0  0  0  0
   -2.6319   -0.6055    0.0000 C   0  0  0  0  0  0  0  0  0  0  0  0
   -4.0597   -0.1455    0.0000 C   0  0  0  0  0  0  0  0  0  0  0  0
    0.6900    1.3884    0.0000 C   0  0  0  0  0  0  0  0  0  0  0  0
   -1.5197    0.4010    0.0000 C   0  0  0  0  0  0  0  0  0  0  0  0
   -0.0600    0.0894    0.0000 C   0  0  0  0  0  0  0  0  0  0  0  0
   -5.1719   -1.1520    0.0000 O   0  0  0  0  0  0  0  0  0  0  0  0
  5  4  1  0
  7  6  1  0
  8  1  1  0
  8  4  2  0
  9  5  1  0
  9  6  1  0
 10  2  1  0
 10  3  1  0
 10  8  1  0
 10  9  1  0
 11  7  2  0
M  END
>  <NAME>  (742) 
2,3,3-TRIMETHYLCYCLOPENTENE-4-ACETALDEHYDE

>  <SYNONYMS>  (742) 


>  <SPECTRUM TYPE>  (742) 
MS1

>  <INSTRUMENT TYPE>  (742) 
EI-B

>  <INSTRUMENT>  (742) 
JEOL JMS-D-300

>  <ION MODE>  (742) 
P

>  <INCHIKEY>  (742) 
OGCGGWYLHSJRFY-UHFFFAOYSA-N

>  <FORMULA>  (742) 
C10H16O

>  <EXACT MASS>  (742) 
152.120115132

>  <MW>  (742) 
152

>  <ID>  (742) 
JP010925

>  <CONTRIBUTOR>  (742) 
University of Tokyo Team, {Faculty of Engineering, University of Tokyo

>  <COMMENT>  (742) 
SMILES=O=CCC(C1)C(C)(C)C(C)=C1
InChI=InChI=1S/C10H16O/c1-8-4-5-9(6-7-11)10(8,2)3/h4,7,9H,5-6H2,1-3H3
computed SMILES=O=CCC1CC=C(C)C1(C)C
accession=JP010925
date=2016.01.19 (Created 2008.10.21, modified 2011.05.06)
author=KURARAY CO., LTD.
license=CC BY-NC-SA
exact mass=152.12012
ionization energy=70 eV
ion type=[M]+*
computed spectral entropy=3.0873975294087908
computed normalized entropy=0.785232565684649
SPLASH=splash10-0a4m-9400000000-ce66a68f177fa4f618cc
submitter=submitter = University of Tokyo Team (Faculty of Engineering, University of Tokyo)
MoNA Rating=3.75

>  <NUM PEAKS>  (742) 
51

>  <MASS SPECTRAL PEAKS>  (742) 
27 8.6
28 2.8
29 7.6
49 31.1
51 5.2
52 2.3
53 13.6
54 2.1
55 22.1
56 1.4
57 2.9
62 0.4
63 1.6
65 8.1
66 2
67 42.9
68 4.9
69 11.3
70 1.4
77 21.9
78 4.1
79 17.9
80 4.5
81 29.3
82 3.6
83 3.7
89 0.3
91 30.9
92 5.6
93 81.4
94 15
95 69.1
96 7.7
97 1
103 1
104 0.6
105 4.5
106 1.4
107 17.2
108 99.99
109 64.3
110 6.3
117 0.6
119 11.4
120 0.9
121 1.3
122 0.2
123 2.1
137 5.1
138 0.9
152 3.7

>  <PREDICTED SPECTRUM>  (742) 
26 38
27 252
28 68
29 198
38 50
39 406
40 135
41 709
42 179
43 690
44 160
45 150
46 0
50 195
51 344
52 205
53 526
54 254
55 600
56 261
57 184
58 27
62 53
63 149
64 47
65 308
66 211
67 765
68 221
69 506
70 200
71 195
72 70
73 3
75 31
76 15
77 555
78 239
79 679
80 360
81 999
82 322
83 332
84 199
85 8
89 33
90 40
91 651
92 224
93 549
94 547
95 815
96 365
97 239
98 135
103 46
104 0
105 280
106 139
107 760
108 661
109 808
110 340
111 169
112 29
117 3
119 413
120 142
121 85
122 52
123 714
124 257
125 22
133 12
134 232
135 130
136 12
137 619
138 172
151 111
152 313
153 53

$$$$

     RDKit          2D

 11 12  0  0  0  0  0  0  0  0999 V2000
   -2.6602    1.4980    0.0000 C   0  0  0  0  0  0  0  0  0  0  0  0
   -2.8369   -0.4880    0.0000 C   0  0  0  0  0  0  0  0  0  0  0  0
   -1.8759   -2.1585    0.0000 C   0  0  0  0  0  0  0  0  0  0  0  0
    0.3900   -0.0000    0.0000 C   0  0  0  0  0  0  0  0  0  0  0  0
    1.2300   -0.7500    0.0000 C   0  0  0  0  0  0  0  0  0  0  0  0
   -1.3600    0.7500    0.0000 C   0  0  0  0  0  0  0  0  0  0  0  0
   -0.0700   -1.5000    0.0000 C   0  0  0  0  0  0  0  0  0  0  0  0
   -0.0700    1.5000    0.0000 C   0  0  0  0  0  0  0  0  0  0  0  0
    1.2300    0.7500    0.0000 C   0  0  0  0  0  0  0  0  0  0  0  0
   -1.3600   -0.7500    0.0000 C   0  0  0  0  0  0  0  0  0  0  0  0
    2.5289    1.5002    0.0000 O   0  0  0  0  0  0  0  0  0  0  0  0
  6  1  2  0
  7  4  1  0
  7  5  1  0
  8  4  1  0
  8  6  1  0
  9  5  1  0
  9  8  1  0
 10  2  1  0
 10  3  1  0
 10  6  1  0
 10  7  1  0
 11  9  1  0
M  END
>  <NAME>  (743) 
5,5-DIMETHYL-6-METHYLENEBICYCLO(2.2.1)HEPTAN-2-OL

>  <SYNONYMS>  (743) 


>  <SPECTRUM TYPE>  (743) 
MS1

>  <INSTRUMENT TYPE>  (743) 
EI-B

>  <INSTRUMENT>  (743) 
JEOL JMS-D-300

>  <ION MODE>  (743) 
P

>  <INCHIKEY>  (743) 
CFXJOMGPUADAJE-UHFFFAOYSA-N

>  <FORMULA>  (743) 
C10H16O

>  <EXACT MASS>  (743) 
152.120115132

>  <MW>  (743) 
152

>  <ID>  (743) 
JP010924

>  <CONTRIBUTOR>  (743) 
University of Tokyo Team, {Faculty of Engineering, University of Tokyo

>  <COMMENT>  (743) 
SMILES=OC(C1)C(C2)C(=C)C(C)(C)C12
InChI=InChI=1S/C10H16O/c1-6-8-4-7(5-9(8)11)10(6,2)3/h7-9,11H,1,4-5H2,2-3H3
computed SMILES=OC1CC2CC1C(=C)C2(C)C
accession=JP010924
date=2016.01.19 (Created 2008.10.21, modified 2011.05.06)
author=KURARAY CO., LTD.
license=CC BY-NC-SA
exact mass=152.12012
ionization energy=70 eV
ion type=[M]+*
computed spectral entropy=2.8579616529769973
computed normalized entropy=0.8038486256616277
SPLASH=splash10-0a4l-9800000000-0ac5c85882ed34b01c48
submitter=submitter = University of Tokyo Team (Faculty of Engineering, University of Tokyo)
MoNA Rating=3.75

>  <NUM PEAKS>  (743) 
35

>  <MASS SPECTRAL PEAKS>  (743) 
27 4.6
29 3.5
49 11.5
51 2.3
53 5.6
55 6.3
65 4
66 3.3
67 11.1
68 3
69 5
77 11.7
78 2.1
79 9.6
80 2.1
81 8.2
82 5.1
83 2.9
91 20.3
92 4.6
93 53.2
94 5.3
95 11.7
96 1.7
105 4.7
106 3.5
107 18.9
108 99.99
109 18.2
110 2
119 14.5
121 8.5
123 1.4
134 2.1
137 4

>  <PREDICTED SPECTRUM>  (743) 
26 7
27 190
28 27
29 117
31 15
38 22
39 343
40 120
41 438
42 104
43 406
44 146
45 146
50 115
51 265
52 173
53 416
54 169
55 232
56 48
57 173
58 74
59 223
60 48
62 5
63 119
64 57
65 323
66 236
67 458
68 175
69 184
70 16
71 116
75 72
77 431
78 187
79 579
80 270
81 381
82 62
83 100
84 94
85 14
91 519
92 287
93 999
94 433
95 299
96 12
97 8
103 55
105 229
106 117
107 437
108 973
109 494
110 196
111 19
119 231
123 52
124 8
134 64
137 176
138 8
152 26

$$$$

     RDKit          2D

 11 12  0  0  0  0  0  0  0  0999 V2000
    1.9500   -0.9000    0.0000 C   0  0  0  0  0  0  0  0  0  0  0  0
    0.6300   -1.6600    0.0000 C   0  0  0  0  0  0  0  0  0  0  0  0
    0.6300    1.3800    0.0000 C   0  0  0  0  0  0  0  0  0  0  0  0
    3.2486    1.3708    0.0000 C   0  0  0  0  0  0  0  0  0  0  0  0
   -2.9400   -0.2300    0.0000 C   0  0  0  0  0  0  0  0  0  0  0  0
    1.9500    0.6200    0.0000 C   0  0  0  0  0  0  0  0  0  0  0  0
   -0.6600   -0.9000    0.0000 C   0  0  0  0  0  0  0  0  0  0  0  0
   -0.6600    0.6200    0.0000 C   0  0  0  0  0  0  0  0  0  0  0  0
    4.5481    0.6216    0.0000 O   0  0  0  0  0  0  0  0  0  0  0  0
   -2.0600   -1.3400    0.0000 O   0  0  0  0  0  0  0  0  0  0  0  0
   -2.0900    1.0600    0.0000 O   0  0  0  0  0  0  0  0  0  0  0  0
  2  1  2  0
  6  1  1  0
  6  3  2  0
  6  4  1  0
  7  2  1  0
  8  3  1  0
  8  7  2  0
  9  4  1  0
 10  5  1  0
 10  7  1  0
 11  5  1  0
 11  8  1  0
M  END
>  <NAME>  (744) 
1,3-BENZODIOXOLE-5-METHANOL

>  <SYNONYMS>  (744) 


>  <SPECTRUM TYPE>  (744) 
MS1

>  <INSTRUMENT TYPE>  (744) 
EI-B

>  <INSTRUMENT>  (744) 
JEOL JMS-D-300

>  <ION MODE>  (744) 
P

>  <INCHIKEY>  (744) 
BHUIUXNAPJIDOG-UHFFFAOYSA-N

>  <FORMULA>  (744) 
C8H8O3

>  <EXACT MASS>  (744) 
152.04734411599998

>  <MW>  (744) 
152

>  <ID>  (744) 
JP010923

>  <CONTRIBUTOR>  (744) 
University of Tokyo Team, {Faculty of Engineering, University of Tokyo

>  <COMMENT>  (744) 
SMILES=OCc(c1)cc(O2)c(OC2)c1
InChI=InChI=1S/C8H8O3/c9-4-6-1-2-7-8(3-6)11-5-10-7/h1-3,9H,4-5H2
computed SMILES=OCC1=CC=C2OCOC2=C1
accession=JP010923
date=2016.01.19 (Created 2008.10.21, modified 2011.05.06)
author=KURARAY CO., LTD.
license=CC BY-NC-SA
exact mass=152.04734
ionization energy=70 eV
ion type=[M]+*
computed spectral entropy=3.0548289179497354
computed normalized entropy=0.8338412760645084
SPLASH=splash10-0udi-6900000000-383ea5b0110656e05ef3
submitter=submitter = University of Tokyo Team (Faculty of Engineering, University of Tokyo)
MoNA Rating=3.75

>  <NUM PEAKS>  (744) 
39

>  <MASS SPECTRAL PEAKS>  (744) 
29 4
31 2.5
38 3.5
39 13.4
40 4.1
50 5
51 10.3
53 5.5
55 2.8
61 2.7
62 5.7
63 10.3
64 3.3
65 27.7
66 10.1
67 2.5
74 2.4
75 7.5
76 2.3
77 15.5
78 1.9
79 2
91 3.9
93 45.3
94 15.8
95 2.3
105 6.8
119 2.3
121 13.3
122 20.6
123 21.8
124 1.9
135 50.9
136 5.7
149 16.1
150 11.7
151 39.1
152 99.99
153 11.9

>  <PREDICTED SPECTRUM>  (744) 
14 12
15 55
16 15
17 19
18 23
26 49
27 115
28 46
29 77
30 23
31 115
32 11
37 90
38 146
39 294
40 57
41 178
42 48
43 9
44 94
49 103
50 351
51 585
52 307
53 359
54 86
55 224
56 7
57 3
61 122
62 249
63 347
64 155
65 404
66 244
67 147
68 25
69 83
70 22
74 122
75 177
76 172
77 679
78 222
79 270
80 32
81 156
84 41
86 25
91 196
92 75
93 322
94 185
95 112
103 32
104 38
105 317
106 235
107 154
108 44
109 45
119 33
120 35
121 470
122 246
123 383
124 27
134 31
135 999
136 205
137 44
149 100
150 181
151 707
152 996
153 323
154 99

$$$$

     RDKit          2D

 11 12  0  0  0  0  0  0  0  0999 V2000
   -4.5973    4.6952    0.0000 C   0  0  0  0  0  0  0  0  0  0  0  0
   -3.2981    5.4450    0.0000 C   0  0  0  0  0  0  0  0  0  0  0  0
   -4.5970    3.1944    0.0000 C   0  0  0  0  0  0  0  0  0  0  0  0
   -1.9987    4.6939    0.0000 C   0  0  0  0  0  0  0  0  0  0  0  0
   -3.2976    2.4433    0.0000 C   0  0  0  0  0  0  0  0  0  0  0  0
    0.5996    3.1931    0.0000 C   0  0  0  0  0  0  0  0  0  0  0  0
    3.3995    2.4426    0.0000 C   0  0  0  0  0  0  0  0  0  0  0  0
   -1.9985    3.1931    0.0000 C   0  0  0  0  0  0  0  0  0  0  0  0
    1.8987    2.4431    0.0000 C   0  0  0  0  0  0  0  0  0  0  0  0
   -0.6994    2.4431    0.0000 O   0  0  0  0  0  0  0  0  0  0  0  0
    2.6495    1.1436    0.0000 O   0  0  0  0  0  0  0  0  0  0  0  0
  2  1  2  0
  3  1  1  0
  4  2  1  0
  5  3  2  0
  8  4  2  0
  8  5  1  0
  9  6  1  0
  9  7  1  0
 10  6  1  0
 10  8  1  0
 11  7  1  0
 11  9  1  0
M  END
>  <NAME>  (745) 
3-PHENOXY-1,2-EPOXYPROPANE

>  <SYNONYMS>  (745) 


>  <SPECTRUM TYPE>  (745) 
MS1

>  <INSTRUMENT TYPE>  (745) 
EI-B

>  <INSTRUMENT>  (745) 
JEOL JMS-D-300

>  <ION MODE>  (745) 
P

>  <INCHIKEY>  (745) 
FQYUMYWMJTYZTK-UHFFFAOYSA-N

>  <FORMULA>  (745) 
C9H10O2

>  <EXACT MASS>  (745) 
150.06807956

>  <MW>  (745) 
150

>  <ID>  (745) 
JP010922

>  <CONTRIBUTOR>  (745) 
University of Tokyo Team, {Faculty of Engineering, University of Tokyo

>  <COMMENT>  (745) 
SMILES=c(c2)ccc(c2)OCC(C1)O1
InChI=InChI=1S/C9H10O2/c1-2-4-8(5-3-1)10-6-9-7-11-9/h1-5,9H,6-7H2
computed SMILES=O(C=1C=CC=CC1)CC2OC2
accession=JP010922
date=2016.01.19 (Created 2008.10.21, modified 2011.05.06)
author=KURARAY CO., LTD.
license=CC BY-NC-SA
exact mass=150.06808
ionization energy=70 eV
ion type=[M]+*
computed spectral entropy=2.4867791946610067
computed normalized entropy=0.860366555917041
SPLASH=splash10-0k96-9300000000-7406f98f1d8ddcf30107
submitter=submitter = University of Tokyo Team (Faculty of Engineering, University of Tokyo)
MoNA Rating=3.75

>  <NUM PEAKS>  (745) 
18

>  <MASS SPECTRAL PEAKS>  (745) 
31 36
39 18.9
51 15.9
55 3.1
57 32
65 16.4
66 17.4
77 47.9
78 4.2
79 14.2
91 13.8
94 99.99
95 9.7
107 24.9
119 4.1
120 13.3
150 83.9
151 8.8

>  <PREDICTED SPECTRUM>  (745) 
14 31
15 64
16 1
18 15
19 17
25 20
26 130
27 361
28 189
29 485
30 76
31 206
33 37
34 27
36 25
37 126
38 227
39 619
40 244
41 502
42 143
43 425
44 177
45 270
46 100
47 92
48 4
49 105
50 303
51 576
52 226
53 200
54 46
55 233
56 229
57 921
58 313
59 126
60 21
61 111
62 160
63 336
64 252
65 524
66 333
67 89
73 59
74 170
75 172
76 186
77 971
78 386
79 307
89 7
90 30
91 253
92 321
93 365
94 999
95 402
104 146
105 186
106 62
107 478
108 104
115 258
117 4
119 133
120 153
121 163
122 14
131 99
150 841
151 285
152 73

$$$$

     RDKit          2D

 11 12  0  0  0  0  0  0  0  0999 V2000
    1.9500   -0.9000    0.0000 C   0  0  0  0  0  0  0  0  0  0  0  0
    0.6300   -1.6600    0.0000 C   0  0  0  0  0  0  0  0  0  0  0  0
    0.6300    1.3800    0.0000 C   0  0  0  0  0  0  0  0  0  0  0  0
    3.2486    1.3708    0.0000 C   0  0  0  0  0  0  0  0  0  0  0  0
   -2.9400   -0.2300    0.0000 C   0  0  0  0  0  0  0  0  0  0  0  0
    1.9500    0.6200    0.0000 C   0  0  0  0  0  0  0  0  0  0  0  0
   -0.6600   -0.9000    0.0000 C   0  0  0  0  0  0  0  0  0  0  0  0
   -0.6600    0.6200    0.0000 C   0  0  0  0  0  0  0  0  0  0  0  0
    4.5481    0.6216    0.0000 O   0  0  0  0  0  0  0  0  0  0  0  0
   -2.0600   -1.3400    0.0000 O   0  0  0  0  0  0  0  0  0  0  0  0
   -2.0900    1.0600    0.0000 O   0  0  0  0  0  0  0  0  0  0  0  0
  2  1  2  0
  6  1  1  0
  6  3  2  0
  6  4  1  0
  7  2  1  0
  8  3  1  0
  8  7  2  0
  9  4  2  0
 10  5  1  0
 10  7  1  0
 11  5  1  0
 11  8  1  0
M  END
>  <NAME>  (746) 
1,3-BENZODIOXOLE-5-CARBOXALDEHYDE

>  <SYNONYMS>  (746) 
HELIOTROPIN

>  <SPECTRUM TYPE>  (746) 
MS1

>  <INSTRUMENT TYPE>  (746) 
EI-B

>  <INSTRUMENT>  (746) 
JEOL JMS-D-300

>  <ION MODE>  (746) 
P

>  <INCHIKEY>  (746) 
SATCULPHIDQDRE-UHFFFAOYSA-N

>  <FORMULA>  (746) 
C8H6O3

>  <EXACT MASS>  (746) 
150.03169405199998

>  <MW>  (746) 
150

>  <ID>  (746) 
JP010921

>  <CONTRIBUTOR>  (746) 
University of Tokyo Team, {Faculty of Engineering, University of Tokyo

>  <COMMENT>  (746) 
SMILES=O=Cc(c1)cc(O2)c(OC2)c1
InChI=InChI=1S/C8H6O3/c9-4-6-1-2-7-8(3-6)11-5-10-7/h1-4H,5H2
computed SMILES=O=CC1=CC=C2OCOC2=C1
accession=JP010921
date=2016.01.19 (Created 2008.10.21, modified 2011.05.06)
author=KURARAY CO., LTD.
license=CC BY-NC-SA
exact mass=150.03169
ionization energy=70 eV
ion type=[M]+*
computed spectral entropy=2.454567713345766
computed normalized entropy=0.7723493195447323
SPLASH=splash10-0gvk-5900000000-8a0279ec82445d96e75a
submitter=submitter = University of Tokyo Team (Faculty of Engineering, University of Tokyo)
MoNA Rating=3.75

>  <NUM PEAKS>  (746) 
24

>  <MASS SPECTRAL PEAKS>  (746) 
29 6.1
37 3.6
38 5.9
39 4.6
50 6.5
51 5.6
53 6.5
61 8.2
62 17.7
63 39.1
64 8.4
65 24.5
66 4.2
74 2.1
79 2.1
91 10.9
92 2.6
119 8.5
120 2.1
121 30.1
122 4.6
149 99.99
150 90.4
151 8.6

>  <PREDICTED SPECTRUM>  (746) 
14 2
15 46
25 10
26 30
27 45
28 44
29 99
31 17
36 23
37 143
38 176
39 244
40 49
49 140
50 261
51 321
52 33
53 262
61 173
62 298
63 450
64 272
65 374
66 136
67 51
68 8
74 33
75 96
76 115
77 155
79 156
81 28
86 45
91 350
92 211
93 264
94 74
95 6
104 13
106 36
119 54
120 157
121 330
122 252
123 9
149 999
150 909
151 329
152 94

$$$$

     RDKit          2D

 10 11  0  0  0  0  0  0  0  0999 V2000
   -2.3100   -0.7500    0.0000 C   0  0  0  0  0  0  0  0  0  0  0  0
   -2.3100    0.7500    0.0000 C   0  0  0  0  0  0  0  0  0  0  0  0
   -1.0100   -1.5000    0.0000 C   0  0  0  0  0  0  0  0  0  0  0  0
   -1.0100    1.5000    0.0000 C   0  0  0  0  0  0  0  0  0  0  0  0
    0.2900   -0.7500    0.0000 C   0  0  0  0  0  0  0  0  0  0  0  0
    0.2900    0.7500    0.0000 C   0  0  0  0  0  0  0  0  0  0  0  0
    2.6000    0.0000    0.0000 C   0  0  0  0  0  0  0  0  0  0  0  0
    1.7200   -1.2100    0.0000 N   0  0  0  0  0  0  0  0  0  0  0  0
    1.7200    1.2100    0.0000 N   0  0  0  0  0  0  0  0  0  0  0  0
    4.1000   -0.0000    0.0000 S   0  0  0  0  0  0  0  0  0  0  0  0
  2  1  2  0
  3  1  1  0
  4  2  1  0
  5  3  2  0
  6  4  2  0
  6  5  1  0
  8  5  1  0
  8  7  2  0
  9  6  1  0
  9  7  1  0
 10  7  1  0
M  END
>  <NAME>  (747) 
2-MERCAPTOBENZIMIDAZOLE

>  <SYNONYMS>  (747) 


>  <SPECTRUM TYPE>  (747) 
MS1

>  <INSTRUMENT TYPE>  (747) 
EI-B

>  <INSTRUMENT>  (747) 
JEOL JMS-D-300

>  <ION MODE>  (747) 
P

>  <INCHIKEY>  (747) 
YHMYGUUIMTVXNW-UHFFFAOYSA-N

>  <FORMULA>  (747) 
C7H6N2S

>  <EXACT MASS>  (747) 
150.025169192

>  <MW>  (747) 
150

>  <ID>  (747) 
JP010920

>  <CONTRIBUTOR>  (747) 
University of Tokyo Team, {Faculty of Engineering, University of Tokyo

>  <COMMENT>  (747) 
SMILES=C1=CC=C2C(=C1)NC(=S)N2
InChI=InChI=1S/C7H6N2S/c10-7-8-5-3-1-2-4-6(5)9-7/h1-4H,(H2,8,9,10)
computed SMILES=SC1=NC=2C=CC=CC2N1
accession=JP010920
date=2016.01.19 (Created 2008.10.21, modified 2011.05.06)
author=KURARAY CO., LTD.
license=CC BY-NC-SA
exact mass=150.02517
ionization energy=70 eV
ion type=[M]+*
computed spectral entropy=2.274397113031848
computed normalized entropy=0.7470456071700213
SPLASH=splash10-0udi-3900000000-f30a83e28ad63dfdd14c
submitter=submitter = University of Tokyo Team (Faculty of Engineering, University of Tokyo)
MoNA Rating=3.75

>  <NUM PEAKS>  (747) 
21

>  <MASS SPECTRAL PEAKS>  (747) 
39 3.9
51 2.3
52 3.4
63 6.8
64 5.2
65 7.8
75 10.4
78 2.9
90 4.2
91 4.6
92 5.2
96 5.7
105 3.4
106 7.4
118 8.9
122 8.7
123 5.8
149 6.5
150 99.99
151 9.4
152 5.9

>  <PREDICTED SPECTRUM>  (747) 
25 10
26 19
32 31
33 84
34 57
35 19
36 30
37 160
38 218
39 286
40 136
41 162
42 27
43 62
44 130
45 306
46 84
47 78
48 23
49 80
50 295
51 312
52 312
53 176
54 109
55 34
57 164
58 187
59 126
60 160
61 136
62 199
63 353
64 362
65 265
66 139
67 95
68 76
69 287
70 203
71 109
72 27
73 49
74 97
75 156
76 230
77 151
78 237
79 97
80 78
81 81
82 90
83 104
84 144
85 14
86 31
87 45
88 72
89 170
90 296
91 302
92 262
93 136
94 94
95 195
96 199
97 101
99 33
105 167
106 190
107 77
108 31
109 77
115 13
116 156
117 336
118 273
119 121
120 15
121 71
122 315
123 390
124 196
125 97
126 17
134 51
148 27
149 398
150 999
151 314
152 217
153 51

$$$$

     RDKit          2D

  9  8  0  0  0  0  0  0  0  0999 V2000
   -5.3298    4.4228    0.0000 C   0  0  0  0  0  0  0  0  0  0  0  0
   -0.1336    4.4228    0.0000 C   0  0  0  0  0  0  0  0  0  0  0  0
    1.1654    3.6728    0.0000 C   0  0  0  0  0  0  0  0  0  0  0  0
   -1.4327    3.6728    0.0000 C   0  0  0  0  0  0  0  0  0  0  0  0
    2.4644    2.9228    0.0000 N   0  0  0  0  0  0  0  0  0  0  0  0
   -1.7675    5.5719    0.0000 O   0  0  0  0  0  0  0  0  0  0  0  0
   -3.6959    5.5719    0.0000 O   0  0  0  0  0  0  0  0  0  0  0  0
   -4.0307    3.6728    0.0000 O   0  0  0  0  0  0  0  0  0  0  0  0
   -2.7317    4.4228    0.0000 S   0  0  0  0  0  0  0  0  0  0  0  0
  3  2  1  0
  4  2  1  0
  5  3  3  0
  8  1  1  0
  9  4  1  0
  9  6  2  0
  9  7  2  0
  9  8  1  0
M  END
>  <NAME>  (748) 
METHYL 2-CYANOETHANESULFONATE

>  <SYNONYMS>  (748) 


>  <SPECTRUM TYPE>  (748) 
MS1

>  <INSTRUMENT TYPE>  (748) 
EI-B

>  <INSTRUMENT>  (748) 
JEOL JMS-D-300

>  <ION MODE>  (748) 
P

>  <INCHIKEY>  (748) 
VYWNBUBFYLAECR-UHFFFAOYSA-N

>  <FORMULA>  (748) 
C4H7NO3S

>  <EXACT MASS>  (748) 
149.01466408399997

>  <MW>  (748) 
149

>  <ID>  (748) 
JP010919

>  <CONTRIBUTOR>  (748) 
University of Tokyo Team, {Faculty of Engineering, University of Tokyo

>  <COMMENT>  (748) 
SMILES=N#CCCS(=O)(=O)OC
InChI=InChI=1S/C4H7NO3S/c1-8-9(6,7)4-2-3-5/h2,4H2,1H3
computed SMILES=N#CCCS(=O)(=O)OC
accession=JP010919
ionization energy=70 eV
date=2016.01.19 (Created 2008.10.21, modified 2011.05.06)
author=KURARAY CO., LTD.
license=CC BY-NC-SA
exact mass=149.01466
ion type=[M]+*
computed spectral entropy=2.334561672902654
computed normalized entropy=0.6566337901456136
SPLASH=splash10-004i-9000000000-7cc7a4ce2c9b8cf3d977
submitter=submitter = University of Tokyo Team (Faculty of Engineering, University of Tokyo)
MoNA Rating=3.75

>  <NUM PEAKS>  (748) 
35

>  <MASS SPECTRAL PEAKS>  (748) 
26 2.7
27 4.3
28 9.6
29 2.8
31 1
32 0.9
39 0.4
41 0.5
42 6.3
43 19.9
44 0.9
45 0.2
48 1.4
51 1.1
52 3.5
53 7.5
54 27.2
55 1.1
63 0.9
64 1.1
65 3.8
68 0.4
70 8.4
78 0.3
79 99.99
80 4.5
81 5.6
94 1.7
96 1
97 2.5
106 3.4
123 0.4
134 14.7
135 0.4
136 0.4

>  <PREDICTED SPECTRUM>  (748) 
14 78
15 223
16 16
25 35
26 207
27 393
28 215
29 336
30 105
31 220
32 60
33 85
34 10
37 20
38 115
40 242
41 211
42 344
43 295
44 69
45 143
48 189
49 43
50 26
51 188
52 178
53 160
54 519
55 174
56 34
57 104
58 47
63 206
64 228
65 142
69 8
70 255
71 54
79 999
80 153
96 69
97 45
109 5
149 6

$$$$

     RDKit          2D

 10  9  0  0  0  0  0  0  0  0999 V2000
   -0.8062    4.5241    0.0000 C   0  0  0  0  0  0  0  0  0  0  0  0
    2.1267    2.6250    0.0000 C   0  0  0  0  0  0  0  0  0  0  0  0
   -4.3685    3.3750    0.0000 C   0  0  0  0  0  0  0  0  0  0  0  0
   -4.2118    4.2636    0.0000 C   0  0  0  0  0  0  0  0  0  0  0  0
   -0.4713    2.6250    0.0000 C   0  0  0  0  0  0  0  0  0  0  0  0
   -1.7704    3.3750    0.0000 C   0  0  0  0  0  0  0  0  0  0  0  0
   -0.4713    1.1250    0.0000 O   0  0  0  0  0  0  0  0  0  0  0  0
    0.8277    3.3750    0.0000 O   0  0  0  0  0  0  0  0  0  0  0  0
   -3.0694    2.6250    0.0000 O   0  0  0  0  0  0  0  0  0  0  0  0
   -2.7346    4.5241    0.0000 O   0  0  0  0  0  0  0  0  0  0  0  0
  6  1  1  0
  6  5  1  0
  7  5  2  0
  8  2  1  0
  8  5  1  0
  9  3  1  0
  9  6  1  0
 10  4  1  0
 10  6  1  0
M  END
>  <NAME>  (749) 
METHYL 2,2-DIMETHOXYPROPIONATE

>  <SYNONYMS>  (749) 


>  <SPECTRUM TYPE>  (749) 
MS1

>  <INSTRUMENT TYPE>  (749) 
EI-B

>  <INSTRUMENT>  (749) 
JEOL JMS-D-300

>  <ION MODE>  (749) 
P

>  <INCHIKEY>  (749) 
KHQQDBIXHUJARJ-UHFFFAOYSA-N

>  <FORMULA>  (749) 
C6H12O4

>  <EXACT MASS>  (749) 
148.073558864

>  <MW>  (749) 
148

>  <ID>  (749) 
JP010918

>  <CONTRIBUTOR>  (749) 
University of Tokyo Team, {Faculty of Engineering, University of Tokyo

>  <COMMENT>  (749) 
SMILES=COC(=O)C(C)(OC)OC
InChI=InChI=1S/C6H12O4/c1-6(9-3,10-4)5(7)8-2/h1-4H3
computed SMILES=O=C(OC)C(OC)(OC)C
accession=JP010918
date=2016.01.19 (Created 2008.10.21, modified 2011.05.06)
author=KURARAY CO., LTD.
license=CC BY-NC-SA
exact mass=148.07356
ionization energy=70 eV
ion type=[M]+*
computed spectral entropy=2.0328249949860444
computed normalized entropy=0.6483268202692735
SPLASH=splash10-000l-9100000000-bc1e1cfadd1d90a5554f
submitter=submitter = University of Tokyo Team (Faculty of Engineering, University of Tokyo)
MoNA Rating=3.75

>  <NUM PEAKS>  (749) 
23

>  <MASS SPECTRAL PEAKS>  (749) 
27 1.1
28 1.4
29 2.4
31 1.4
42 1.7
43 73.2
44 1.6
45 0.4
47 11.7
55 0.4
57 18.9
58 2.3
59 3.6
75 10.6
85 15.5
86 0.5
87 2.4
89 99.99
90 4.9
91 0.3
117 44.6
118 2.5
133 2.8

>  <PREDICTED SPECTRUM>  (749) 
14 13
15 190
25 3
26 63
27 267
28 134
29 488
30 160
31 308
32 101
33 110
38 34
39 349
40 166
41 513
42 368
43 648
44 130
45 210
47 0
55 450
56 129
57 999
58 427
59 461
67 21
69 392
71 408
72 36
73 435
75 18
85 315
86 119
87 47
89 329
90 223
99 0
100 6
101 326
102 1
103 115
116 134
117 453
118 35
133 132

$$$$

     RDKit          2D

  9  8  0  0  0  0  0  0  0  0999 V2000
    2.2733    2.0625    0.0000 C   0  0  0  0  0  0  0  0  0  0  0  0
    0.9743    4.3125    0.0000 C   0  0  0  0  0  0  0  0  0  0  0  0
   -4.2219    2.8125    0.0000 C   0  0  0  0  0  0  0  0  0  0  0  0
    0.9743    2.8125    0.0000 C   0  0  0  0  0  0  0  0  0  0  0  0
   -0.3248    2.0625    0.0000 C   0  0  0  0  0  0  0  0  0  0  0  0
   -1.6238    2.8125    0.0000 C   0  0  0  0  0  0  0  0  0  0  0  0
   -0.3248    0.5625    0.0000 Cl  0  0  0  0  0  0  0  0  0  0  0  0
   -1.6238    4.3125    0.0000 O   0  0  0  0  0  0  0  0  0  0  0  0
   -2.9228    2.0625    0.0000 O   0  0  0  0  0  0  0  0  0  0  0  0
  4  1  2  0
  4  2  1  0
  5  4  1  0
  6  5  1  0
  7  5  1  0
  8  6  2  0
  9  3  1  0
  9  6  1  0
M  END
>  <NAME>  (750) 
METHYL 2-CHLORO-3-METHYL-3-BUTENOATE

>  <SYNONYMS>  (750) 


>  <SPECTRUM TYPE>  (750) 
MS1

>  <INSTRUMENT TYPE>  (750) 
EI-B

>  <INSTRUMENT>  (750) 
JEOL JMS-D-300

>  <ION MODE>  (750) 
P

>  <INCHIKEY>  (750) 
FZUVHZZZCYKCFI-UHFFFAOYSA-N

>  <FORMULA>  (750) 
C6H9ClO2

>  <EXACT MASS>  (750) 
148.029107208

>  <MW>  (750) 
148

>  <ID>  (750) 
JP010917

>  <CONTRIBUTOR>  (750) 
University of Tokyo Team, {Faculty of Engineering, University of Tokyo

>  <COMMENT>  (750) 
SMILES=COC(=O)C(Cl)C(C)=C
InChI=InChI=1S/C6H9ClO2/c1-4(2)5(7)6(8)9-3/h5H,1H2,2-3H3
computed SMILES=O=C(OC)C(Cl)C(=C)C
accession=JP010917
date=2016.01.19 (Created 2008.10.21, modified 2011.05.06)
author=KURARAY CO., LTD.
license=CC BY-NC-SA
exact mass=148.02911
ionization energy=70 eV
ion type=[M]+*
computed spectral entropy=3.2083371163135532
computed normalized entropy=0.7714420078675935
SPLASH=splash10-0i00-7900000000-71574d9f6da44138fb70
submitter=submitter = University of Tokyo Team (Faculty of Engineering, University of Tokyo)
MoNA Rating=3.75

>  <NUM PEAKS>  (750) 
64

>  <MASS SPECTRAL PEAKS>  (750) 
26 0.8
27 7.7
29 2.6
30 0.4
31 0.7
36 0.6
37 0.7
38 1.4
39 11.7
40 0.5
41 6.4
42 2.6
43 5.3
44 0.2
45 1.3
49 1.7
50 4
51 7.9
52 3.3
53 54.7
54 5.3
55 5.2
56 0.6
57 0.9
58 2.7
59 23.9
60 0.6
61 1.4
62 0.5
63 2.6
65 0.5
66 0.4
67 5.5
69 3.9
71 1.2
72 0.5
73 12.4
74 1.1
75 1.2
76 1.5
81 7.3
82 5.1
83 4.6
85 4.1
87 2.9
88 10.3
89 36.8
90 5.4
91 11.9
97 2.8
105 1.7
108 1.1
112 0.7
113 99.99
114 11.7
115 2.7
116 43.8
117 53
118 20.1
119 18.3
133 3.5
135 1.1
148 44.8
150 15.7

>  <PREDICTED SPECTRUM>  (750) 
14 53
15 213
25 22
26 178
27 394
28 165
29 245
31 113
32 17
33 43
35 66
36 106
37 130
38 231
39 452
40 206
41 453
42 242
43 54
44 49
45 189
47 65
48 10
49 226
50 105
51 398
52 236
53 795
54 407
55 376
56 144
57 151
59 583
60 30
61 177
62 126
63 105
64 105
67 93
69 92
71 45
72 31
73 208
74 105
75 141
80 64
81 536
82 304
83 214
85 195
87 184
88 488
89 768
90 409
91 547
92 62
93 12
97 205
98 18
103 96
105 95
112 116
113 999
114 298
115 170
116 578
117 828
118 387
119 538
120 172
121 44
133 170
148 619
149 169
150 355
151 66

$$$$

     RDKit          2D

  6  5  0  0  0  0  0  0  0  0999 V2000
    0.0000    0.0000    0.0000 C   0  0  0  0  0  0  0  0  0  0  0  0
    1.2990    2.2500    0.0000 C   0  0  0  0  0  0  0  0  0  0  0  0
   -1.2990    2.2500    0.0000 C   0  0  0  0  0  0  0  0  0  0  0  0
   -1.2990    3.7500    0.0000 C   0  0  0  0  0  0  0  0  0  0  0  0
    0.0000    1.5000    0.0000 C   0  0  0  0  0  0  0  0  0  0  0  0
   -2.5981    4.5000    0.0000 Br  0  0  0  0  0  0  0  0  0  0  0  0
  4  3  1  0
  5  1  2  0
  5  2  1  0
  5  3  1  0
  6  4  1  0
M  END
>  <NAME>  (751) 
4-BROMO-2-METHYL-1-BUTENE

>  <SYNONYMS>  (751) 


>  <SPECTRUM TYPE>  (751) 
MS1

>  <INSTRUMENT TYPE>  (751) 
EI-B

>  <INSTRUMENT>  (751) 
JEOL JMS-D-300

>  <ION MODE>  (751) 
P

>  <INCHIKEY>  (751) 
IZMWJUPSQXIVDN-UHFFFAOYSA-N

>  <FORMULA>  (751) 
C5H9Br

>  <EXACT MASS>  (751) 
147.988762388

>  <MW>  (751) 
148

>  <ID>  (751) 
JP010916

>  <CONTRIBUTOR>  (751) 
University of Tokyo Team, {Faculty of Engineering, University of Tokyo

>  <COMMENT>  (751) 
SMILES=CC(=C)CCBr
InChI=InChI=1S/C5H9Br/c1-5(2)3-4-6/h1,3-4H2,2H3
computed SMILES=BrCCC(=C)C
accession=JP010916
date=2016.01.19 (Created 2008.10.21, modified 2011.05.06)
author=KURARAY CO., LTD.
license=CC BY-NC-SA
exact mass=147.98876
ionization energy=70 eV
ion type=[M]+*
computed spectral entropy=2.348797164909992
computed normalized entropy=0.6717552081954818
SPLASH=splash10-014l-9000000000-b1b07a55f5c8f5e2b345
submitter=submitter = University of Tokyo Team (Faculty of Engineering, University of Tokyo)
MoNA Rating=3.75

>  <NUM PEAKS>  (751) 
33

>  <MASS SPECTRAL PEAKS>  (751) 
26 1.9
27 12.8
28 1.7
29 10.5
32 1.1
37 1.7
38 2.6
39 21.6
40 9.2
41 88.9
42 2.7
50 2
51 3.2
52 0.9
53 14.7
54 2.3
55 31.9
65 1.1
67 8.6
68 3
69 99.99
70 2.9
79 0.7
80 0.6
81 0.5
82 0.7
93 0.7
95 0.9
107 0.5
148 12.1
149 0.6
150 12
151 0.5

>  <PREDICTED SPECTRUM>  (751) 
14 32
15 72
25 33
26 174
27 444
28 208
29 223
36 26
37 137
38 206
39 585
40 194
41 686
42 265
43 231
49 65
50 212
51 260
52 87
53 340
54 183
55 389
56 140
62 68
63 36
64 14
65 184
66 39
67 164
68 241
69 999
70 262
79 137
81 2
93 74
106 39
108 42
120 35
122 39
135 134
148 163
149 3
150 225
151 16

$$$$

     RDKit          2D

 16 16  0  0  0  0  0  0  0  0999 V2000
    5.5216    4.2579    0.0000 C   0  0  0  0  0  0  0  0  0  0  0  0
    4.2226    5.0079    0.0000 C   0  0  0  0  0  0  0  0  0  0  0  0
    2.9236    4.2579    0.0000 C   0  0  0  0  0  0  0  0  0  0  0  0
    1.6245    5.0079    0.0000 C   0  0  0  0  0  0  0  0  0  0  0  0
   -8.7678    6.5079    0.0000 C   0  0  0  0  0  0  0  0  0  0  0  0
   -8.7683    5.0071    0.0000 C   0  0  0  0  0  0  0  0  0  0  0  0
   -7.4683    7.2587    0.0000 C   0  0  0  0  0  0  0  0  0  0  0  0
    0.3255    4.2579    0.0000 C   0  0  0  0  0  0  0  0  0  0  0  0
   -7.4692    4.2571    0.0000 C   0  0  0  0  0  0  0  0  0  0  0  0
   -6.1692    6.5087    0.0000 C   0  0  0  0  0  0  0  0  0  0  0  0
   -0.9736    5.0079    0.0000 C   0  0  0  0  0  0  0  0  0  0  0  0
   -4.8707    4.2579    0.0000 C   0  0  0  0  0  0  0  0  0  0  0  0
   -6.1697    5.0079    0.0000 C   0  0  0  0  0  0  0  0  0  0  0  0
   -3.5716    5.0079    0.0000 C   0  0  0  0  0  0  0  0  0  0  0  0
   -3.5716    6.5079    0.0000 O   0  0  0  0  0  0  0  0  0  0  0  0
   -2.2726    4.2579    0.0000 O   0  0  0  0  0  0  0  0  0  0  0  0
  2  1  1  0
  3  2  1  0
  4  3  1  0
  6  5  2  0
  7  5  1  0
  4  8  2  0
  9  6  1  0
 10  7  2  0
 11  8  1  0
 13  9  2  0
 13 10  1  0
 13 12  1  0
 14 12  1  0
 15 14  2  0
 16 11  1  0
 16 14  1  0
M  END
>  <NAME>  (752) 
TRANS-2-HEXENYL PHENYLACETATE

>  <SYNONYMS>  (752) 


>  <SPECTRUM TYPE>  (752) 
MS1

>  <INSTRUMENT TYPE>  (752) 
EI-B

>  <INSTRUMENT>  (752) 
HITACHI M-80B

>  <ION MODE>  (752) 
P

>  <INCHIKEY>  (752) 
BYGAPGDXGHDYGP-XBXARRHUSA-N

>  <FORMULA>  (752) 
C14H18O2

>  <EXACT MASS>  (752) 
218.130679816

>  <MW>  (752) 
218

>  <ID>  (752) 
JP010914

>  <CONTRIBUTOR>  (752) 
University of Tokyo Team, {Faculty of Engineering, University of Tokyo

>  <COMMENT>  (752) 
SMILES=CCCC=CCOC(=O)Cc(c1)cccc1
InChI=InChI=1S/C14H18O2/c1-2-3-4-8-11-16-14(15)12-13-9-6-5-7-10-13/h4-10H,2-3,11-12H2,1H3/b8-4+
computed SMILES=O=C(OCC=CCCC)CC=1C=CC=CC1
accession=JP010914
date=2016.01.19 (Created 2008.10.21, modified 2011.05.06)
author=SODA AROMATIC CO., LTD.
license=CC BY-NC-SA
exact mass=218.13068
ionization energy=70 eV
ion type=[M]+*
computed spectral entropy=2.5291838474683352
computed normalized entropy=0.7297681988478072
SPLASH=splash10-0006-9000000000-791ebfdd24937a736821
submitter=submitter = University of Tokyo Team (Faculty of Engineering, University of Tokyo)
MoNA Rating=3.75

>  <NUM PEAKS>  (752) 
32

>  <MASS SPECTRAL PEAKS>  (752) 
27 9
29 4.5
39 14.4
41 38.4
42 3.1
43 1.8
50 1.4
51 2.9
52 1.4
53 3.4
54 6.1
55 49.8
56 2.5
57 1.3
63 2.5
65 13.8
66 1.2
67 10.3
77 1.2
79 1
81 1.7
82 6.7
83 31.9
84 1.8
89 3
90 2.1
91 99.99
92 12.1
99 1.3
118 3.5
119 1.1
218 4.9

>  <PREDICTED SPECTRUM>  (752) 
26 44
27 183
28 49
29 254
36 1
38 10
39 255
40 97
41 480
42 146
43 330
44 145
45 52
49 2
50 83
51 147
52 100
53 198
54 224
55 603
56 156
57 193
58 12
62 59
63 168
64 89
65 311
66 90
67 214
68 38
69 88
71 115
72 59
73 25
77 119
78 59
79 126
80 14
81 157
82 300
83 746
84 291
85 11
89 203
90 198
91 999
92 331
99 168
100 133
105 58
108 4
109 2
117 12
118 203
119 103
136 82
137 58
218 253
219 87
220 5

$$$$

     RDKit          2D

 15 14  0  0  0  0  0  0  0  0999 V2000
    4.5466    7.1250    0.0000 C   0  0  0  0  0  0  0  0  0  0  0  0
  -12.3409    7.8750    0.0000 C   0  0  0  0  0  0  0  0  0  0  0  0
    3.2476    7.8750    0.0000 C   0  0  0  0  0  0  0  0  0  0  0  0
  -11.0418    7.1250    0.0000 C   0  0  0  0  0  0  0  0  0  0  0  0
    1.9486    7.1250    0.0000 C   0  0  0  0  0  0  0  0  0  0  0  0
    0.6495    7.8750    0.0000 C   0  0  0  0  0  0  0  0  0  0  0  0
   -0.6495    7.1250    0.0000 C   0  0  0  0  0  0  0  0  0  0  0  0
   -1.9486    7.8750    0.0000 C   0  0  0  0  0  0  0  0  0  0  0  0
   -3.2476    7.1250    0.0000 C   0  0  0  0  0  0  0  0  0  0  0  0
   -4.5466    7.8750    0.0000 C   0  0  0  0  0  0  0  0  0  0  0  0
   -5.8457    7.1250    0.0000 C   0  0  0  0  0  0  0  0  0  0  0  0
   -7.1447    7.8750    0.0000 C   0  0  0  0  0  0  0  0  0  0  0  0
   -8.4437    7.1250    0.0000 C   0  0  0  0  0  0  0  0  0  0  0  0
   -8.4437    5.6250    0.0000 O   0  0  0  0  0  0  0  0  0  0  0  0
   -9.7428    7.8750    0.0000 O   0  0  0  0  0  0  0  0  0  0  0  0
  3  1  1  0
  4  2  1  0
  5  3  1  0
  6  5  1  0
  7  6  1  0
  8  7  1  0
  9  8  1  0
 10  9  1  0
 11 10  1  0
 12 11  1  0
 13 12  1  0
 14 13  2  0
 15  4  1  0
 15 13  1  0
M  END
>  <NAME>  (753) 
ETHYL UNDECANOATE

>  <SYNONYMS>  (753) 


>  <SPECTRUM TYPE>  (753) 
MS1

>  <INSTRUMENT TYPE>  (753) 
EI-B

>  <INSTRUMENT>  (753) 
HITACHI M-80B

>  <ION MODE>  (753) 
P

>  <INCHIKEY>  (753) 
IAFQYUQIAOWKSB-UHFFFAOYSA-N

>  <FORMULA>  (753) 
C13H26O2

>  <EXACT MASS>  (753) 
214.193280072

>  <MW>  (753) 
214

>  <ID>  (753) 
JP010913

>  <CONTRIBUTOR>  (753) 
University of Tokyo Team, {Faculty of Engineering, University of Tokyo

>  <COMMENT>  (753) 
SMILES=CCCCCCCCCCC(=O)OCC
InChI=InChI=1S/C13H26O2/c1-3-5-6-7-8-9-10-11-12-13(14)15-4-2/h3-12H2,1-2H3
computed SMILES=O=C(OCC)CCCCCCCCCC
accession=JP010913
date=2016.01.19 (Created 2008.10.21, modified 2011.05.06)
author=SODA AROMATIC CO., LTD.
license=CC BY-NC-SA
exact mass=214.19328
ionization energy=70 eV
ion type=[M]+*
computed spectral entropy=3.1629529527728257
computed normalized entropy=0.8127181397117318
SPLASH=splash10-000l-9100000000-0c6e446855e040b6121c
submitter=submitter = University of Tokyo Team (Faculty of Engineering, University of Tokyo)
MoNA Rating=3.75

>  <NUM PEAKS>  (753) 
49

>  <MASS SPECTRAL PEAKS>  (753) 
16 1.2
26 1.1
27 12.2
29 28.3
30 1.1
31 1.6
39 5.7
41 32.4
42 8.9
43 31.4
45 7.6
53 1.9
54 1.8
55 23.3
56 5.3
57 14.2
59 1.3
60 17.9
61 14.9
67 2.5
68 1.6
69 10.2
70 13.2
71 4.7
73 19.6
74 2.2
81 1.8
82 1.2
83 5.7
84 3.8
85 3.7
87 2.6
88 99.99
89 8.6
95 2.1
97 3.1
98 3.2
101 43
102 3.4
111 1.1
115 4.9
129 2.2
143 3.7
157 5.5
169 10.6
170 1.3
171 4.4
185 1.4
214 3.2

>  <PREDICTED SPECTRUM>  (753) 
15 6
17 1
18 6
26 11
27 182
28 39
29 322
31 1
39 155
40 69
41 424
42 223
43 500
44 120
45 182
46 32
51 29
52 30
53 118
54 115
55 500
56 244
57 391
58 122
59 145
60 424
61 370
62 33
65 11
67 166
68 83
69 336
70 302
71 229
72 45
73 339
74 112
75 68
77 40
78 2
79 88
80 39
81 158
82 81
83 309
84 237
85 136
86 6
87 286
88 999
89 349
90 106
91 40
93 40
95 157
96 86
97 228
98 160
101 726
102 125
107 26
108 27
109 125
110 54
111 147
115 339
116 93
121 60
123 37
124 35
125 155
126 76
127 97
128 48
129 191
130 118
131 11
139 3
143 196
144 68
149 96
151 42
157 299
158 122
167 78
168 33
169 445
170 68
171 305
172 55
185 128
186 67
187 3
199 51
213 55
214 246
215 111
216 16

$$$$

     RDKit          2D

 15 15  0  0  0  0  0  0  0  0999 V2000
   -7.7940    4.8196    0.0000 C   0  0  0  0  0  0  0  0  0  0  0  0
   -6.4949    2.5696    0.0000 C   0  0  0  0  0  0  0  0  0  0  0  0
    3.8974    2.5696    0.0000 C   0  0  0  0  0  0  0  0  0  0  0  0
    3.8978    4.0704    0.0000 C   0  0  0  0  0  0  0  0  0  0  0  0
    2.5978    1.8188    0.0000 C   0  0  0  0  0  0  0  0  0  0  0  0
   -3.8969    4.0696    0.0000 C   0  0  0  0  0  0  0  0  0  0  0  0
   -5.1959    4.8196    0.0000 C   0  0  0  0  0  0  0  0  0  0  0  0
    2.5988    4.8204    0.0000 C   0  0  0  0  0  0  0  0  0  0  0  0
    1.2988    2.5688    0.0000 C   0  0  0  0  0  0  0  0  0  0  0  0
   -2.5978    4.8196    0.0000 C   0  0  0  0  0  0  0  0  0  0  0  0
   -6.4949    4.0696    0.0000 C   0  0  0  0  0  0  0  0  0  0  0  0
    1.2993    4.0696    0.0000 C   0  0  0  0  0  0  0  0  0  0  0  0
    0.0002    4.8196    0.0000 C   0  0  0  0  0  0  0  0  0  0  0  0
    0.0002    6.3196    0.0000 O   0  0  0  0  0  0  0  0  0  0  0  0
   -1.2988    4.0696    0.0000 O   0  0  0  0  0  0  0  0  0  0  0  0
  4  3  2  0
  5  3  1  0
  7  6  1  0
  8  4  1  0
  9  5  2  0
 10  6  1  0
 11  1  1  0
 11  2  1  0
 11  7  1  0
 12  8  2  0
 12  9  1  0
 13 12  1  0
 14 13  2  0
 15 10  1  0
 15 13  1  0
M  END
>  <NAME>  (754) 
4-METHYLPENTYL BENZOATE

>  <SYNONYMS>  (754) 


>  <SPECTRUM TYPE>  (754) 
MS1

>  <INSTRUMENT TYPE>  (754) 
EI-B

>  <INSTRUMENT>  (754) 
HITACHI M-80B

>  <ION MODE>  (754) 
P

>  <INCHIKEY>  (754) 
UUNAMHRNRUJYDO-UHFFFAOYSA-N

>  <FORMULA>  (754) 
C13H18O2

>  <EXACT MASS>  (754) 
206.130679816

>  <MW>  (754) 
206

>  <ID>  (754) 
JP010912

>  <CONTRIBUTOR>  (754) 
University of Tokyo Team, {Faculty of Engineering, University of Tokyo

>  <COMMENT>  (754) 
SMILES=CC(C)CCCOC(=O)c(c1)cccc1
InChI=InChI=1S/C13H18O2/c1-11(2)7-6-10-15-13(14)12-8-4-3-5-9-12/h3-5,8-9,11H,6-7,10H2,1-2H3
computed SMILES=O=C(OCCCC(C)C)C=1C=CC=CC1
accession=JP010912
date=2016.01.19 (Created 2008.10.21, modified 2011.05.06)
author=SODA AROMATIC CO., LTD.
license=CC BY-NC-SA
exact mass=206.13068
ionization energy=70 eV
ion type=[M]+*
computed spectral entropy=2.6449554474727672
computed normalized entropy=0.7937554370976163
SPLASH=splash10-0ab9-9600000000-4d53cb4ee000f7a933ba
submitter=submitter = University of Tokyo Team (Faculty of Engineering, University of Tokyo)
MoNA Rating=3.75

>  <NUM PEAKS>  (754) 
28

>  <MASS SPECTRAL PEAKS>  (754) 
27 9.1
29 5.3
39 7.7
41 23.7
42 6.2
43 24.6
50 5.1
51 18.3
52 1.2
53 1.2
55 7.4
56 42.3
57 2.8
69 16
75 1.1
76 2.7
77 54.8
78 4.8
79 7.7
83 2.7
84 31.1
85 1.9
105 99.99
106 8.4
122 11.1
123 79.9
124 6.3
163 1.4

>  <PREDICTED SPECTRUM>  (754) 
25 0
26 54
27 210
28 83
29 206
31 32
37 4
38 43
39 191
40 75
41 273
42 189
43 352
44 104
45 55
50 193
51 365
52 101
53 139
54 56
55 237
56 370
57 107
59 7
63 56
65 75
66 8
67 58
69 390
74 68
75 57
76 108
77 649
78 190
79 139
83 86
84 680
85 259
86 82
92 6
102 11
104 4
105 999
106 283
107 91
122 307
123 642
124 162
125 11
163 3

$$$$

     RDKit          2D

 16 16  0  0  0  0  0  0  0  0999 V2000
   -7.4692    4.2571    0.0000 C   0  0  0  0  0  0  0  0  0  0  0  0
   -1.9382    2.3580    0.0000 C   0  0  0  0  0  0  0  0  0  0  0  0
   -0.0099    2.3580    0.0000 C   0  0  0  0  0  0  0  0  0  0  0  0
   -6.1702    3.5071    0.0000 C   0  0  0  0  0  0  0  0  0  0  0  0
    4.2221    2.0071    0.0000 C   0  0  0  0  0  0  0  0  0  0  0  0
    4.2226    3.5079    0.0000 C   0  0  0  0  0  0  0  0  0  0  0  0
    2.9226    1.2563    0.0000 C   0  0  0  0  0  0  0  0  0  0  0  0
   -4.8712    4.2571    0.0000 C   0  0  0  0  0  0  0  0  0  0  0  0
    2.9236    4.2579    0.0000 C   0  0  0  0  0  0  0  0  0  0  0  0
    1.6236    2.0063    0.0000 C   0  0  0  0  0  0  0  0  0  0  0  0
    0.3250    4.2571    0.0000 C   0  0  0  0  0  0  0  0  0  0  0  0
    1.6240    3.5071    0.0000 C   0  0  0  0  0  0  0  0  0  0  0  0
   -3.5721    3.5071    0.0000 C   0  0  0  0  0  0  0  0  0  0  0  0
   -0.9740    3.5071    0.0000 C   0  0  0  0  0  0  0  0  0  0  0  0
   -3.5721    2.0071    0.0000 O   0  0  0  0  0  0  0  0  0  0  0  0
   -2.2731    4.2571    0.0000 O   0  0  0  0  0  0  0  0  0  0  0  0
  4  1  1  0
  6  5  2  0
  7  5  1  0
  4  8  2  0
  9  6  1  0
 10  7  2  0
 12  9  2  0
 12 10  1  0
 12 11  1  0
 13  8  1  0
 14  2  1  0
 14  3  1  0
 14 11  1  0
 15 13  2  0
 16 13  1  0
 16 14  1  0
M  END
>  <NAME>  (755) 
1,1-DIMETHYLPHENETYL CROTONATE

>  <SYNONYMS>  (755) 


>  <SPECTRUM TYPE>  (755) 
MS1

>  <INSTRUMENT TYPE>  (755) 
EI-B

>  <INSTRUMENT>  (755) 
HITACHI M-80B

>  <ION MODE>  (755) 
P

>  <INCHIKEY>  (755) 
OKLPIYCKVVLHCP-XBXARRHUSA-N

>  <FORMULA>  (755) 
C14H18O2

>  <EXACT MASS>  (755) 
218.130679816

>  <MW>  (755) 
218

>  <ID>  (755) 
JP010911

>  <CONTRIBUTOR>  (755) 
University of Tokyo Team, {Faculty of Engineering, University of Tokyo

>  <COMMENT>  (755) 
SMILES=[H]C(C)=C([H])C(=O)OC(C)(C)Cc(c1)cccc1
InChI=InChI=1S/C14H18O2/c1-4-8-13(15)16-14(2,3)11-12-9-6-5-7-10-12/h4-10H,11H2,1-3H3/b8-4+
computed SMILES=O=C(OC(C)(C)CC=1C=CC=CC1)C=CC
accession=JP010911
date=2016.01.19 (Created 2008.10.21, modified 2011.05.06)
author=SODA AROMATIC CO., LTD.
license=CC BY-NC-SA
exact mass=218.13068
ionization energy=70 eV
ion type=[M]+*
computed spectral entropy=2.9665541179120303
computed normalized entropy=0.7544978834314512
SPLASH=splash10-014i-9500000000-276e651c597005001d85
submitter=submitter = University of Tokyo Team (Faculty of Engineering, University of Tokyo)
MoNA Rating=3.75

>  <NUM PEAKS>  (755) 
51

>  <MASS SPECTRAL PEAKS>  (755) 
15 1.5
26 1.2
27 5.5
29 1.5
38 2.4
39 25.7
41 21.6
42 1.7
43 5.2
45 1.9
50 3.3
51 9.2
52 2
53 2.2
54 1.3
55 2.4
57 1
62 1.7
63 6.5
64 2.1
65 14.5
66 1.1
68 2.4
69 99.99
70 4.6
74 1.3
75 1.1
76 1.1
77 5.9
78 5.2
79 1.3
86 4.3
89 4.6
90 1.4
91 47.4
92 5.4
102 1.3
103 2.3
104 2.3
105 2.2
115 19.6
116 6.5
117 62.4
118 6.6
127 4.8
128 2
129 1.9
131 9.1
132 58.4
133 8.3
160 1.6

>  <PREDICTED SPECTRUM>  (755) 
26 45
27 209
28 7
29 177
37 50
38 110
39 444
40 183
41 665
42 163
43 64
44 55
45 0
50 157
51 258
52 169
53 256
54 33
55 87
56 1
57 4
58 95
59 9
61 18
62 99
63 211
64 119
65 356
66 85
67 105
68 117
69 999
70 168
71 78
75 29
76 17
77 290
78 219
79 163
84 7
86 6
87 62
89 161
90 109
91 856
92 356
102 142
103 120
104 252
105 302
106 101
107 13
115 452
116 266
117 774
118 313
119 54
127 229
128 116
129 71
130 20
131 342
132 831
133 216
134 2
218 58
219 8

$$$$

     RDKit          2D

 16 15  0  0  0  0  0  0  0  0999 V2000
   -9.2440    6.6630    0.0000 C   0  0  0  0  0  0  0  0  0  0  0  0
   -7.9450    4.4130    0.0000 C   0  0  0  0  0  0  0  0  0  0  0  0
   -0.1507    4.4130    0.0000 C   0  0  0  0  0  0  0  0  0  0  0  0
    1.6974    4.6139    0.0000 C   0  0  0  0  0  0  0  0  0  0  0  0
    3.7464    5.1630    0.0000 C   0  0  0  0  0  0  0  0  0  0  0  0
    3.1974    7.2120    0.0000 C   0  0  0  0  0  0  0  0  0  0  0  0
   -6.6459    6.6630    0.0000 C   0  0  0  0  0  0  0  0  0  0  0  0
   -5.3469    5.9130    0.0000 C   0  0  0  0  0  0  0  0  0  0  0  0
   -1.4498    6.6630    0.0000 C   0  0  0  0  0  0  0  0  0  0  0  0
    1.1483    6.6630    0.0000 C   0  0  0  0  0  0  0  0  0  0  0  0
   -7.9450    5.9130    0.0000 C   0  0  0  0  0  0  0  0  0  0  0  0
   -0.1507    5.9130    0.0000 C   0  0  0  0  0  0  0  0  0  0  0  0
   -2.7488    5.9130    0.0000 C   0  0  0  0  0  0  0  0  0  0  0  0
    2.4474    5.9130    0.0000 C   0  0  0  0  0  0  0  0  0  0  0  0
   -2.7488    4.4130    0.0000 O   0  0  0  0  0  0  0  0  0  0  0  0
   -4.0478    6.6630    0.0000 O   0  0  0  0  0  0  0  0  0  0  0  0
  8  7  1  0
 11  1  1  0
 11  2  1  0
 11  7  1  0
 12  3  1  0
 12  9  1  0
 12 10  1  0
 13  9  1  0
 14  4  1  0
 14  5  1  0
 14  6  1  0
 14 10  1  0
 15 13  2  0
 16  8  1  0
 16 13  1  0
M  END
>  <NAME>  (756) 
ISOPENTYL 3,5,5-TRIMETHYLHEXANOATE

>  <SYNONYMS>  (756) 


>  <SPECTRUM TYPE>  (756) 
MS1

>  <INSTRUMENT TYPE>  (756) 
EI-B

>  <INSTRUMENT>  (756) 
HITACHI M-80B

>  <ION MODE>  (756) 
P

>  <INCHIKEY>  (756) 
IXHGVSKMQLKBKI-UHFFFAOYSA-N

>  <FORMULA>  (756) 
C14H28O2

>  <EXACT MASS>  (756) 
228.208930136

>  <MW>  (756) 
228

>  <ID>  (756) 
JP010910

>  <CONTRIBUTOR>  (756) 
University of Tokyo Team, {Faculty of Engineering, University of Tokyo

>  <COMMENT>  (756) 
SMILES=CC(C)CCOC(=O)CC(C)CC(C)(C)C
InChI=InChI=1S/C14H28O2/c1-11(2)7-8-16-13(15)9-12(3)10-14(4,5)6/h11-12H,7-10H2,1-6H3
computed SMILES=O=C(OCCC(C)C)CC(C)CC(C)(C)C
accession=JP010910
date=2016.01.19 (Created 2008.10.21, modified 2011.05.06)
author=SODA AROMATIC CO., LTD.
license=CC BY-NC-SA
exact mass=228.20893
ionization energy=70 eV
ion type=[M]+*
computed spectral entropy=2.8146155722406627
computed normalized entropy=0.7682730206585034
SPLASH=splash10-05fu-9100000000-26fa6477270de9b9e9c9
submitter=submitter = University of Tokyo Team (Faculty of Engineering, University of Tokyo)
MoNA Rating=3.75

>  <NUM PEAKS>  (756) 
39

>  <MASS SPECTRAL PEAKS>  (756) 
27 7.1
29 12.3
39 6.3
41 31.8
42 7.4
43 39.4
44 1.1
45 1
53 1.6
55 19.7
56 10.9
57 53.6
58 2.1
59 2
60 4.8
61 1.7
67 1.1
69 5.8
70 99.99
71 42.5
72 2
83 19.4
84 1.4
85 1.1
87 1.3
97 2.2
101 8.3
102 1.1
103 2
115 1.2
125 4.8
130 6.4
141 16.1
142 1.4
143 10.4
159 3
171 2.4
172 2.4
213 2.3

>  <PREDICTED SPECTRUM>  (756) 
26 45
27 243
28 78
29 380
30 55
31 25
37 1
38 6
39 262
40 117
41 568
42 334
43 652
44 144
45 70
51 2
52 12
53 127
54 99
55 621
56 485
57 999
58 182
59 103
60 236
61 315
62 45
67 87
68 95
69 367
70 937
71 720
72 210
73 66
79 32
81 13
82 44
83 579
84 120
86 40
87 156
88 123
89 35
96 0
97 199
101 235
102 176
103 231
104 87
111 11
112 2
114 2
115 150
116 92
125 273
129 25
130 290
131 25
140 8
141 568
142 147
143 421
144 172
157 68
158 183
159 421
160 185
171 248
172 225
173 147
213 73

$$$$

     RDKit          2D

 16 16  0  0  0  0  0  0  0  0999 V2000
    9.0941    0.7116    0.0000 C   0  0  0  0  0  0  0  0  0  0  0  0
    7.8062    2.9680    0.0000 C   0  0  0  0  0  0  0  0  0  0  0  0
   -3.9180   -0.7714    0.0000 C   0  0  0  0  0  0  0  0  0  0  0  0
    1.3000   -0.7500    0.0000 C   0  0  0  0  0  0  0  0  0  0  0  0
    0.0300    1.5000    0.0000 C   0  0  0  0  0  0  0  0  0  0  0  0
    0.0300   -1.5000    0.0000 C   0  0  0  0  0  0  0  0  0  0  0  0
   -1.3200    0.7500    0.0000 C   0  0  0  0  0  0  0  0  0  0  0  0
    6.4961    0.7244    0.0000 C   0  0  0  0  0  0  0  0  0  0  0  0
    2.6027    1.4936    0.0000 C   0  0  0  0  0  0  0  0  0  0  0  0
    7.7988    1.4680    0.0000 C   0  0  0  0  0  0  0  0  0  0  0  0
    1.3000    0.7500    0.0000 C   0  0  0  0  0  0  0  0  0  0  0  0
   -1.3200   -0.7500    0.0000 C   0  0  0  0  0  0  0  0  0  0  0  0
    5.2008    1.4808    0.0000 C   0  0  0  0  0  0  0  0  0  0  0  0
    5.2081    2.9808    0.0000 O   0  0  0  0  0  0  0  0  0  0  0  0
   -2.6128   -1.5107    0.0000 O   0  0  0  0  0  0  0  0  0  0  0  0
    3.8980    0.7372    0.0000 O   0  0  0  0  0  0  0  0  0  0  0  0
  6  4  2  0
  7  5  1  0
 10  1  1  0
 10  2  1  0
 10  8  1  0
 11  4  1  0
 11  5  2  0
 11  9  1  0
 12  6  1  0
 12  7  2  0
 13  8  1  0
 14 13  2  0
 15  3  1  0
 15 12  1  0
 16  9  1  0
 16 13  1  0
M  END
>  <NAME>  (757) 
ANISYL ISOVALERATE

>  <SYNONYMS>  (757) 


>  <SPECTRUM TYPE>  (757) 
MS1

>  <INSTRUMENT TYPE>  (757) 
EI-B

>  <INSTRUMENT>  (757) 
HITACHI M-80B

>  <ION MODE>  (757) 
P

>  <INCHIKEY>  (757) 
LOGIKTHBNCEEST-UHFFFAOYSA-N

>  <FORMULA>  (757) 
C13H18O3

>  <EXACT MASS>  (757) 
222.125594436

>  <MW>  (757) 
222

>  <ID>  (757) 
JP010909

>  <CONTRIBUTOR>  (757) 
University of Tokyo Team, {Faculty of Engineering, University of Tokyo

>  <COMMENT>  (757) 
SMILES=COc(c1)ccc(COC(=O)CC(C)C)c1
InChI=InChI=1S/C13H18O3/c1-10(2)8-13(14)16-9-11-4-6-12(15-3)7-5-11/h4-7,10H,8-9H2,1-3H3
computed SMILES=O=C(OCC1=CC=C(OC)C=C1)CC(C)C
accession=JP010909
date=2016.01.19 (Created 2008.10.21, modified 2011.05.06)
author=SODA AROMATIC CO., LTD.
license=CC BY-NC-SA
exact mass=222.12559
ionization energy=70 eV
ion type=[M]+*
computed spectral entropy=2.514080594555704
computed normalized entropy=0.707126433495375
SPLASH=splash10-00di-4900000000-2f55157928b4d914fd00
submitter=submitter = University of Tokyo Team (Faculty of Engineering, University of Tokyo)
MoNA Rating=3.75

>  <NUM PEAKS>  (757) 
35

>  <MASS SPECTRAL PEAKS>  (757) 
27 2.4
29 2.9
39 5
41 8.6
42 1.5
43 3.5
51 2.5
52 2
53 1
57 7.5
63 1.4
64 1.1
65 1.7
77 8.6
78 8.8
85 2.2
89 2.4
90 2.1
91 6.7
92 2.3
94 1.1
105 1.6
106 1
107 1.2
109 2.7
119 1.2
120 14.3
121 99.99
122 9.1
135 1.7
137 1.9
138 12.3
139 1
222 13.7
223 1.8

>  <PREDICTED SPECTRUM>  (757) 
14 4
15 42
26 42
27 135
28 63
29 187
30 33
31 8
36 11
37 28
38 78
39 221
40 83
41 248
42 137
43 227
44 85
45 35
50 103
51 177
52 153
53 115
54 21
55 97
56 37
57 174
58 71
62 49
63 147
64 111
65 172
66 101
67 31
68 5
69 41
71 21
75 29
76 74
77 264
78 255
79 96
80 29
81 30
85 34
86 21
89 139
90 129
91 213
92 123
93 69
94 92
95 17
102 52
105 67
106 155
107 137
108 63
109 222
110 18
118 13
119 68
120 219
121 999
122 339
123 30
134 72
135 128
136 68
137 218
138 234
139 54
149 33
150 27
151 11
152 44
165 14
166 34
180 4
222 264
223 92
224 5

$$$$

     RDKit          2D

 14 13  0  0  0  0  0  0  0  0999 V2000
  -10.3923    6.7500    0.0000 C   0  0  0  0  0  0  0  0  0  0  0  0
    3.8971    6.0000    0.0000 C   0  0  0  0  0  0  0  0  0  0  0  0
    1.2990    4.5000    0.0000 C   0  0  0  0  0  0  0  0  0  0  0  0
   -9.0933    6.0000    0.0000 C   0  0  0  0  0  0  0  0  0  0  0  0
    2.5981    6.7500    0.0000 C   0  0  0  0  0  0  0  0  0  0  0  0
   -7.7942    6.7500    0.0000 C   0  0  0  0  0  0  0  0  0  0  0  0
   -6.4952    6.0000    0.0000 C   0  0  0  0  0  0  0  0  0  0  0  0
   -5.1962    6.7500    0.0000 C   0  0  0  0  0  0  0  0  0  0  0  0
   -3.8971    6.0000    0.0000 C   0  0  0  0  0  0  0  0  0  0  0  0
   -2.5981    6.7500    0.0000 C   0  0  0  0  0  0  0  0  0  0  0  0
    1.2990    6.0000    0.0000 C   0  0  0  0  0  0  0  0  0  0  0  0
    0.0000    6.7500    0.0000 C   0  0  0  0  0  0  0  0  0  0  0  0
    0.0000    8.2500    0.0000 O   0  0  0  0  0  0  0  0  0  0  0  0
   -1.2990    6.0000    0.0000 O   0  0  0  0  0  0  0  0  0  0  0  0
  4  1  1  0
  5  2  1  0
  6  4  1  0
  7  6  1  0
  8  7  1  0
  9  8  1  0
 10  9  1  0
 11  3  1  0
 11  5  1  0
 12 11  1  0
 13 12  2  0
 14 10  1  0
 14 12  1  0
M  END
>  <NAME>  (758) 
HEPTYL 2-METHYLBUTYRATE

>  <SYNONYMS>  (758) 


>  <SPECTRUM TYPE>  (758) 
MS1

>  <INSTRUMENT TYPE>  (758) 
EI-B

>  <INSTRUMENT>  (758) 
HITACHI M-80B

>  <ION MODE>  (758) 
P

>  <INCHIKEY>  (758) 
CSFWIAGTSVOEOD-UHFFFAOYSA-N

>  <FORMULA>  (758) 
C12H24O2

>  <EXACT MASS>  (758) 
200.177630008

>  <MW>  (758) 
200

>  <ID>  (758) 
JP010908

>  <CONTRIBUTOR>  (758) 
University of Tokyo Team, {Faculty of Engineering, University of Tokyo

>  <COMMENT>  (758) 
SMILES=CCCCCCCOC(=O)C(C)CC
InChI=InChI=1S/C12H24O2/c1-4-6-7-8-9-10-14-12(13)11(3)5-2/h11H,4-10H2,1-3H3
computed SMILES=O=C(OCCCCCCC)C(C)CC
accession=JP010908
date=2016.01.19 (Created 2008.10.21, modified 2011.05.06)
author=SODA AROMATIC CO., LTD.
license=CC BY-NC-SA
exact mass=200.17763
ionization energy=70 eV
ion type=[M]+*
computed spectral entropy=2.72744422925171
computed normalized entropy=0.8019070707148479
SPLASH=splash10-0a4i-9100000000-c1f8ec216d0214ccdb0b
submitter=submitter = University of Tokyo Team (Faculty of Engineering, University of Tokyo)
MoNA Rating=3.75

>  <NUM PEAKS>  (758) 
30

>  <MASS SPECTRAL PEAKS>  (758) 
27 12.1
29 30.1
39 8.1
41 40.6
42 11
43 21.9
53 1.4
54 2
55 18.9
56 33.8
57 99.99
58 4.8
68 2.6
69 13.4
70 22.6
71 1.7
74 13.4
75 2.2
83 2.3
85 31.4
86 1.5
87 4.2
97 1.2
98 21.6
99 1.5
102 2.4
103 65.5
104 4.1
143 1.5
172 1.3

>  <PREDICTED SPECTRUM>  (758) 
26 36
27 203
28 67
29 406
30 15
36 21
38 12
39 202
40 76
41 606
42 289
43 472
44 107
45 96
51 19
52 30
53 135
54 184
55 486
56 562
57 978
58 180
59 57
60 49
66 31
67 165
68 268
69 435
70 578
71 314
72 44
73 127
74 316
75 252
79 27
81 69
82 181
83 318
84 68
85 560
86 115
87 124
88 51
96 27
97 143
98 591
99 244
100 3
101 83
102 111
103 999
104 118
115 85
143 263
172 143

$$$$

     RDKit          2D

 16 17  0  0  0  0  0  0  0  0999 V2000
   -4.2222   -0.6170    0.0000 C   0  0  0  0  0  0  0  0  0  0  0  0
    2.2743    1.6324    0.0000 C   0  0  0  0  0  0  0  0  0  0  0  0
    2.2748    3.1332    0.0000 C   0  0  0  0  0  0  0  0  0  0  0  0
    0.9748    0.8816    0.0000 C   0  0  0  0  0  0  0  0  0  0  0  0
   -2.9224    6.1343    0.0000 C   0  0  0  0  0  0  0  0  0  0  0  0
   -4.2216    5.3845    0.0000 C   0  0  0  0  0  0  0  0  0  0  0  0
    0.9758    3.8832    0.0000 C   0  0  0  0  0  0  0  0  0  0  0  0
   -0.3242    1.6316    0.0000 C   0  0  0  0  0  0  0  0  0  0  0  0
   -1.6230    5.3832    0.0000 C   0  0  0  0  0  0  0  0  0  0  0  0
   -4.2213    3.8836    0.0000 C   0  0  0  0  0  0  0  0  0  0  0  0
   -4.2217    0.8830    0.0000 C   0  0  0  0  0  0  0  0  0  0  0  0
   -0.3237    3.1324    0.0000 C   0  0  0  0  0  0  0  0  0  0  0  0
   -1.6228    3.8824    0.0000 C   0  0  0  0  0  0  0  0  0  0  0  0
   -2.9219    3.1326    0.0000 C   0  0  0  0  0  0  0  0  0  0  0  0
   -5.5205    1.6334    0.0000 O   0  0  0  0  0  0  0  0  0  0  0  0
   -2.9224    1.6326    0.0000 O   0  0  0  0  0  0  0  0  0  0  0  0
  3  2  2  0
  4  2  1  0
  6  5  2  0
  7  3  1  0
  8  4  2  0
  9  5  1  0
 10  6  1  0
 11  1  1  0
 12  7  2  0
 12  8  1  0
 13  9  2  0
 13 12  1  0
 14 10  2  0
 14 13  1  0
 15 11  2  0
 16 11  1  0
 16 14  1  0
M  END
>  <NAME>  (759) 
2-PHENYLPHENYL ACETATE

>  <SYNONYMS>  (759) 


>  <SPECTRUM TYPE>  (759) 
MS1

>  <INSTRUMENT TYPE>  (759) 
EI-B

>  <INSTRUMENT>  (759) 
HITACHI M-80B

>  <ION MODE>  (759) 
P

>  <INCHIKEY>  (759) 
UZUGIHHGLRFGMJ-UHFFFAOYSA-N

>  <FORMULA>  (759) 
C14H12O2

>  <EXACT MASS>  (759) 
212.083729624

>  <MW>  (759) 
212

>  <ID>  (759) 
JP010907

>  <CONTRIBUTOR>  (759) 
University of Tokyo Team, {Faculty of Engineering, University of Tokyo

>  <COMMENT>  (759) 
SMILES=CC(=O)Oc(c2)c(ccc2)c(c1)cccc1
InChI=InChI=1S/C14H12O2/c1-11(15)16-14-10-6-5-9-13(14)12-7-3-2-4-8-12/h2-10H,1H3
computed SMILES=O=C(OC=1C=CC=CC1C=2C=CC=CC2)C
accession=JP010907
date=2016.01.19 (Created 2008.10.21, modified 2011.05.06)
author=SODA AROMATIC CO., LTD.
license=CC BY-NC-SA
exact mass=212.08373
ionization energy=70 eV
ion type=[M]+*
computed spectral entropy=2.173562225453338
computed normalized entropy=0.6752550715566471
SPLASH=splash10-00di-1900000000-0bc21af6402139c31139
submitter=submitter = University of Tokyo Team (Faculty of Engineering, University of Tokyo)
MoNA Rating=3.75

>  <NUM PEAKS>  (759) 
25

>  <MASS SPECTRAL PEAKS>  (759) 
15 1.6
39 2.3
43 15.4
51 1.6
62 1.1
63 2.8
65 1
75 1.3
76 1.2
87 1.1
89 1.8
102 1.4
113 1.1
115 16.1
116 1.7
139 7.4
140 1.5
141 15
142 5.3
152 1.7
168 3.9
169 33.4
170 99.99
171 13.9
212 6.4

>  <PREDICTED SPECTRUM>  (759) 
14 19
15 99
18 1
26 32
27 40
28 26
37 24
38 78
39 162
40 38
41 75
42 83
43 326
44 105
50 110
51 162
52 60
53 31
55 67
61 45
62 120
63 208
64 114
65 129
66 32
69 25
73 57
74 119
75 145
76 158
77 125
78 18
83 6
85 9
86 77
87 93
88 81
89 147
90 28
91 38
92 5
94 68
98 40
99 8
100 8
101 105
102 222
103 51
113 102
114 146
115 465
116 194
126 42
127 76
128 66
138 26
139 283
140 144
141 362
142 145
143 52
149 58
150 66
151 167
152 168
153 126
154 6
155 55
168 202
169 497
170 999
171 349
172 76
183 2
212 222
213 71

$$$$

     RDKit          2D

 13 14  0  0  0  0  0  0  0  0999 V2000
   -3.5728   -0.6166    0.0000 C   0  0  0  0  0  0  0  0  0  0  0  0
   -2.2733   -1.3674    0.0000 C   0  0  0  0  0  0  0  0  0  0  0  0
   -3.5733    0.8843    0.0000 C   0  0  0  0  0  0  0  0  0  0  0  0
    2.9243    1.6330    0.0000 C   0  0  0  0  0  0  0  0  0  0  0  0
    2.9246    3.1330    0.0000 C   0  0  0  0  0  0  0  0  0  0  0  0
   -0.9742   -0.6174    0.0000 C   0  0  0  0  0  0  0  0  0  0  0  0
   -2.2742    1.6343    0.0000 C   0  0  0  0  0  0  0  0  0  0  0  0
    1.6242    0.8832    0.0000 C   0  0  0  0  0  0  0  0  0  0  0  0
    1.6247    3.8832    0.0000 C   0  0  0  0  0  0  0  0  0  0  0  0
   -0.9747    0.8834    0.0000 C   0  0  0  0  0  0  0  0  0  0  0  0
    0.3243    1.6334    0.0000 C   0  0  0  0  0  0  0  0  0  0  0  0
    0.3246    3.1334    0.0000 C   0  0  0  0  0  0  0  0  0  0  0  0
   -0.9742    3.8839    0.0000 O   0  0  0  0  0  0  0  0  0  0  0  0
  2  1  2  0
  3  1  1  0
  5  4  2  0
  6  2  1  0
  7  3  2  0
  8  4  1  0
  9  5  1  0
 10  6  2  0
 10  7  1  0
 11  8  2  0
 11 10  1  0
 12  9  2  0
 12 11  1  0
 13 12  1  0
M  END
>  <NAME>  (760) 
O-PHENYLPHENOL

>  <SYNONYMS>  (760) 


>  <SPECTRUM TYPE>  (760) 
MS1

>  <INSTRUMENT TYPE>  (760) 
EI-B

>  <INSTRUMENT>  (760) 
HITACHI M-80B

>  <ION MODE>  (760) 
P

>  <INCHIKEY>  (760) 
LLEMOWNGBBNAJR-UHFFFAOYSA-N

>  <FORMULA>  (760) 
C12H10O

>  <EXACT MASS>  (760) 
170.07316494

>  <MW>  (760) 
170

>  <ID>  (760) 
JP010906

>  <CONTRIBUTOR>  (760) 
University of Tokyo Team, {Faculty of Engineering, University of Tokyo

>  <COMMENT>  (760) 
SMILES=Oc(c2)c(ccc2)c(c1)cccc1
InChI=InChI=1S/C12H10O/c13-12-9-5-4-8-11(12)10-6-2-1-3-7-10/h1-9,13H
computed SMILES=OC=1C=CC=CC1C=2C=CC=CC2
accession=JP010906
date=2016.01.19 (Created 2008.10.21, modified 2011.05.06)
author=SODA AROMATIC CO., LTD.
license=CC BY-NC-SA
exact mass=170.07316
ionization energy=70 eV
ion type=[M]+*
computed spectral entropy=2.7854537368269146
computed normalized entropy=0.7317312066179471
SPLASH=splash10-00xr-2900000000-0395543c94def63fbf1c
submitter=submitter = University of Tokyo Team (Faculty of Engineering, University of Tokyo)
MoNA Rating=3.75

>  <NUM PEAKS>  (760) 
45

>  <MASS SPECTRAL PEAKS>  (760) 
27 2.7
38 1.4
39 9.5
50 4.7
51 7.8
52 1.6
53 1
57 2
62 3.9
63 10.1
64 2
65 3
69 1.4
70 2.2
71 1.8
74 3.6
75 4
76 3
77 4.8
78 1.1
84 1.3
85 2.1
86 1.5
87 2.4
88 1.4
89 5.5
91 1.3
102 3.6
113 1.8
114 1.7
115 29.8
116 3.8
126 1
139 9.2
140 2
141 33.1
142 10.6
144 1.1
151 1.1
152 1.2
155 1.4
168 5.1
169 56.3
170 99.99
171 12.6

>  <PREDICTED SPECTRUM>  (760) 
17 15
18 13
26 43
27 96
28 43
29 66
31 14
37 26
38 91
39 249
40 75
41 79
42 15
44 18
49 17
50 208
51 287
52 85
53 66
54 21
55 123
56 22
57 69
58 33
61 24
62 148
63 268
64 121
65 173
66 77
67 29
68 37
69 59
70 128
71 56
72 15
73 4
74 170
75 233
76 229
77 222
78 68
81 48
82 84
83 83
84 89
85 68
86 128
87 133
88 84
89 229
90 74
91 61
92 38
93 38
94 96
95 5
96 62
97 59
98 132
99 34
101 58
102 202
110 55
113 94
114 150
115 475
116 173
117 32
121 37
122 90
126 77
127 140
129 41
130 5
139 363
140 138
141 515
142 98
143 99
144 19
151 223
152 273
153 216
155 45
168 203
169 486
170 999
171 336
172 76

$$$$

     RDKit          2D

 24 25  0  0  0  0  0  0  0  0999 V2000
  -12.9904    9.3200    0.0000 C   0  0  0  0  0  0  0  0  0  0  0  0
    6.4952    5.5700    0.0000 C   0  0  0  0  0  0  0  0  0  0  0  0
  -12.9909    7.8192    0.0000 C   0  0  0  0  0  0  0  0  0  0  0  0
  -11.6909   10.0708    0.0000 C   0  0  0  0  0  0  0  0  0  0  0  0
    6.4957    7.0708    0.0000 C   0  0  0  0  0  0  0  0  0  0  0  0
    5.1957    4.8192    0.0000 C   0  0  0  0  0  0  0  0  0  0  0  0
  -11.6918    7.0692    0.0000 C   0  0  0  0  0  0  0  0  0  0  0  0
  -10.3918    9.3208    0.0000 C   0  0  0  0  0  0  0  0  0  0  0  0
    5.1966    7.8208    0.0000 C   0  0  0  0  0  0  0  0  0  0  0  0
    3.8966    5.5692    0.0000 C   0  0  0  0  0  0  0  0  0  0  0  0
   -3.8971    7.0700    0.0000 C   0  0  0  0  0  0  0  0  0  0  0  0
   -2.5981    7.8200    0.0000 C   0  0  0  0  0  0  0  0  0  0  0  0
   -9.0933    7.0700    0.0000 C   0  0  0  0  0  0  0  0  0  0  0  0
    2.5981    7.8200    0.0000 C   0  0  0  0  0  0  0  0  0  0  0  0
   -7.7942    7.8200    0.0000 C   0  0  0  0  0  0  0  0  0  0  0  0
    1.2990    7.0700    0.0000 C   0  0  0  0  0  0  0  0  0  0  0  0
  -10.3923    7.8200    0.0000 C   0  0  0  0  0  0  0  0  0  0  0  0
    3.8971    7.0700    0.0000 C   0  0  0  0  0  0  0  0  0  0  0  0
   -5.1962    7.8200    0.0000 C   0  0  0  0  0  0  0  0  0  0  0  0
   -1.2990    7.0700    0.0000 C   0  0  0  0  0  0  0  0  0  0  0  0
   -5.1962    9.3200    0.0000 O   0  0  0  0  0  0  0  0  0  0  0  0
   -1.2990    5.5700    0.0000 O   0  0  0  0  0  0  0  0  0  0  0  0
   -6.4952    7.0700    0.0000 O   0  0  0  0  0  0  0  0  0  0  0  0
    0.0000    7.8200    0.0000 O   0  0  0  0  0  0  0  0  0  0  0  0
  3  1  2  0
  4  1  1  0
  5  2  2  0
  6  2  1  0
  7  3  1  0
  8  4  2  0
  9  5  1  0
 10  6  2  0
 12 11  1  0
 15 13  1  0
 16 14  1  0
 17  7  2  0
 17  8  1  0
 17 13  1  0
 18  9  2  0
 18 10  1  0
 18 14  1  0
 19 11  1  0
 20 12  1  0
 21 19  2  0
 22 20  2  0
 23 15  1  0
 23 19  1  0
 24 16  1  0
 24 20  1  0
M  END
>  <NAME>  (761) 
DIPHENETHYL SUCCINATE

>  <SYNONYMS>  (761) 


>  <SPECTRUM TYPE>  (761) 
MS1

>  <INSTRUMENT TYPE>  (761) 
EI-B

>  <INSTRUMENT>  (761) 
HITACHI M-80B

>  <ION MODE>  (761) 
P

>  <INCHIKEY>  (761) 
SIOVMRDTCNJTPS-UHFFFAOYSA-N

>  <FORMULA>  (761) 
C20H22O4

>  <EXACT MASS>  (761) 
326.151809184

>  <MW>  (761) 
326

>  <ID>  (761) 
JP010905

>  <CONTRIBUTOR>  (761) 
University of Tokyo Team, {Faculty of Engineering, University of Tokyo

>  <COMMENT>  (761) 
SMILES=O=C(OCCc(c2)cccc2)CCC(=O)OCCc(c1)cccc1
InChI=InChI=1S/C20H22O4/c21-19(23-15-13-17-7-3-1-4-8-17)11-12-20(22)24-16-14-18-9-5-2-6-10-18/h1-10H,11-16H2
computed SMILES=O=C(OCCC=1C=CC=CC1)CCC(=O)OCCC=2C=CC=CC2
accession=JP010905
date=2016.01.19 (Created 2008.10.21, modified 2011.05.06)
author=SODA AROMATIC CO., LTD.
license=CC BY-NC-SA
exact mass=326.15181
ionization energy=70 eV
ion type=[M]+*
computed spectral entropy=1.5555809191783816
computed normalized entropy=0.5744283907828742
SPLASH=splash10-0udi-2900000000-cb19a8d1074cc9209b8e
submitter=submitter = University of Tokyo Team (Faculty of Engineering, University of Tokyo)
MoNA Rating=3.75

>  <NUM PEAKS>  (761) 
15

>  <MASS SPECTRAL PEAKS>  (761) 
27 1.8
39 1.5
51 1.8
55 1.5
56 1.9
65 2.8
77 6.5
78 2.6
79 5.9
91 8.2
101 1
103 4.9
104 99.99
105 38.8
106 2.4

>  <PREDICTED SPECTRUM>  (761) 
27 43
39 51
41 103
42 28
50 16
51 95
52 49
53 38
54 21
55 169
56 92
57 15
63 33
65 132
77 178
78 164
79 205
80 11
89 31
91 227
92 92
93 27
101 87
102 14
103 202
104 999
105 622
106 161
205 20

$$$$

     RDKit          2D

 14 13  0  0  0  0  0  0  0  0999 V2000
   -3.8971    4.5000    0.0000 C   0  0  0  0  0  0  0  0  0  0  0  0
    7.7942    6.7500    0.0000 C   0  0  0  0  0  0  0  0  0  0  0  0
    6.4952    4.5000    0.0000 C   0  0  0  0  0  0  0  0  0  0  0  0
   -2.5981    5.2500    0.0000 C   0  0  0  0  0  0  0  0  0  0  0  0
    6.4952    7.5000    0.0000 C   0  0  0  0  0  0  0  0  0  0  0  0
    5.1962    5.2500    0.0000 C   0  0  0  0  0  0  0  0  0  0  0  0
   -2.5981    6.7500    0.0000 C   0  0  0  0  0  0  0  0  0  0  0  0
   -1.2990    7.5000    0.0000 C   0  0  0  0  0  0  0  0  0  0  0  0
   -0.0000    6.7500    0.0000 C   0  0  0  0  0  0  0  0  0  0  0  0
    1.2990    7.5000    0.0000 C   0  0  0  0  0  0  0  0  0  0  0  0
    5.1962    6.7500    0.0000 C   0  0  0  0  0  0  0  0  0  0  0  0
    3.8971    7.5000    0.0000 C   0  0  0  0  0  0  0  0  0  0  0  0
    3.8971    9.0000    0.0000 O   0  0  0  0  0  0  0  0  0  0  0  0
    2.5981    6.7500    0.0000 O   0  0  0  0  0  0  0  0  0  0  0  0
  4  1  1  0
  5  2  1  0
  6  3  1  0
  7  4  1  0
  7  8  2  0
  9  8  1  0
 10  9  1  0
 11  5  1  0
 11  6  1  0
 12 11  1  0
 13 12  2  0
 14 10  1  0
 14 12  1  0
M  END
>  <NAME>  (762) 
CIS-3-HEXENYL 2-ETHYLBUTYRATE

>  <SYNONYMS>  (762) 


>  <SPECTRUM TYPE>  (762) 
MS1

>  <INSTRUMENT TYPE>  (762) 
EI-B

>  <INSTRUMENT>  (762) 
HITACHI M-80B

>  <ION MODE>  (762) 
P

>  <INCHIKEY>  (762) 
LFDWLVXNYKQQBT-FPLPWBNLSA-N

>  <FORMULA>  (762) 
C12H22O2

>  <EXACT MASS>  (762) 
198.161979944

>  <MW>  (762) 
198

>  <ID>  (762) 
JP010904

>  <CONTRIBUTOR>  (762) 
University of Tokyo Team, {Faculty of Engineering, University of Tokyo

>  <COMMENT>  (762) 
SMILES=CCC=CCCOC(=O)C(CC)CC
InChI=InChI=1S/C12H22O2/c1-4-7-8-9-10-14-12(13)11(5-2)6-3/h7-8,11H,4-6,9-10H2,1-3H3/b8-7-
computed SMILES=O=C(OCCC=CCC)C(CC)CC
accession=JP010904
date=2016.01.19 (Created 2008.10.21, modified 2011.05.06)
author=SODA AROMATIC CO., LTD.
license=CC BY-NC-SA
exact mass=198.16198
ionization energy=70 eV
ion type=[M]+*
computed spectral entropy=2.3878194349407478
computed normalized entropy=0.784300159970661
SPLASH=splash10-00sl-9000000000-827b7089dc1adc1ba117
submitter=submitter = University of Tokyo Team (Faculty of Engineering, University of Tokyo)
MoNA Rating=3.75

>  <NUM PEAKS>  (762) 
21

>  <MASS SPECTRAL PEAKS>  (762) 
27 11.3
29 12.7
39 10.4
41 27.2
42 4.1
43 41.5
53 4.6
54 5.1
55 21.7
56 1.3
67 58.4
68 2.9
69 1.8
70 1.9
71 54
72 2.4
81 4.1
82 99.99
83 9.5
99 17.5
117 2.2

>  <PREDICTED SPECTRUM>  (762) 
25 1
26 79
27 269
28 118
29 269
38 13
39 300
40 102
41 530
42 271
43 616
44 96
50 43
51 55
52 6
53 199
54 320
55 514
56 174
57 91
65 115
66 61
67 718
68 134
69 167
70 229
71 648
72 139
81 175
82 999
83 360
84 34
87 47
88 57
97 38
98 29
99 313
100 28
117 188

$$$$

     RDKit          2D

 12 11  0  0  0  0  0  0  0  0999 V2000
    2.2733    5.0625    0.0000 C   0  0  0  0  0  0  0  0  0  0  0  0
   -8.1190    5.0625    0.0000 C   0  0  0  0  0  0  0  0  0  0  0  0
   -6.8200    2.8125    0.0000 C   0  0  0  0  0  0  0  0  0  0  0  0
    0.9743    5.8125    0.0000 C   0  0  0  0  0  0  0  0  0  0  0  0
   -6.8200    5.8125    0.0000 C   0  0  0  0  0  0  0  0  0  0  0  0
   -5.5209    3.5625    0.0000 C   0  0  0  0  0  0  0  0  0  0  0  0
   -0.3248    5.0625    0.0000 C   0  0  0  0  0  0  0  0  0  0  0  0
   -1.6238    5.8125    0.0000 C   0  0  0  0  0  0  0  0  0  0  0  0
   -5.5209    5.0625    0.0000 C   0  0  0  0  0  0  0  0  0  0  0  0
   -4.2219    5.8125    0.0000 C   0  0  0  0  0  0  0  0  0  0  0  0
   -4.2219    7.3125    0.0000 O   0  0  0  0  0  0  0  0  0  0  0  0
   -2.9228    5.0625    0.0000 O   0  0  0  0  0  0  0  0  0  0  0  0
  4  1  1  0
  5  2  1  0
  6  3  1  0
  7  4  1  0
  8  7  1  0
  9  5  1  0
  9  6  1  0
 10  9  1  0
 11 10  2  0
 12  8  1  0
 12 10  1  0
M  END
>  <NAME>  (763) 
BUTYL 2-ETHYLBUTYRATE

>  <SYNONYMS>  (763) 


>  <SPECTRUM TYPE>  (763) 
MS1

>  <INSTRUMENT TYPE>  (763) 
EI-B

>  <INSTRUMENT>  (763) 
HITACHI M-80B

>  <ION MODE>  (763) 
P

>  <INCHIKEY>  (763) 
YARHPYLJZOUSGU-UHFFFAOYSA-N

>  <FORMULA>  (763) 
C10H20O2

>  <EXACT MASS>  (763) 
172.14632988

>  <MW>  (763) 
172

>  <ID>  (763) 
JP010903

>  <CONTRIBUTOR>  (763) 
University of Tokyo Team, {Faculty of Engineering, University of Tokyo

>  <COMMENT>  (763) 
computed SMILES=O=C(OCCCC)C(CC)CC
SMILES=CCCCOC(=O)C(CC)CC
InChI=InChI=1S/C10H20O2/c1-4-7-8-12-10(11)9(5-2)6-3/h9H,4-8H2,1-3H3
accession=JP010903
date=2016.01.19 (Created 2008.10.21, modified 2011.05.06)
author=SODA AROMATIC CO., LTD.
license=CC BY-NC-SA
exact mass=172.14633
ionization energy=70 eV
ion type=[M]+*
computed spectral entropy=2.8665280781925953
computed normalized entropy=0.8128857098366629
SPLASH=splash10-05vo-9100000000-bc3d3697dbf2b8578b08
submitter=submitter = University of Tokyo Team (Faculty of Engineering, University of Tokyo)
MoNA Rating=3.75

>  <NUM PEAKS>  (763) 
34

>  <MASS SPECTRAL PEAKS>  (763) 
26 1.7
27 29.4
29 56.6
30 1.2
31 1.5
39 18
41 59.3
42 9.8
43 88.6
44 3.1
45 3.8
53 3.4
54 1.1
55 27.7
56 45.2
57 37.5
58 1.3
59 1
69 3.8
70 8.5
71 89.6
72 5.3
73 14.1
87 23.8
88 36
89 8.2
99 62.2
100 4.2
101 6.3
116 1.5
117 99.99
118 7
143 1.7
144 11.3

>  <PREDICTED SPECTRUM>  (763) 
25 12
26 103
27 317
28 138
29 440
31 79
37 4
38 29
39 266
40 119
41 534
42 310
43 719
44 187
45 230
50 2
51 12
52 33
53 148
54 145
55 463
56 580
57 581
58 26
59 57
60 90
67 73
69 266
70 176
71 680
72 238
73 369
75 8
86 10
87 444
88 597
89 301
90 55
99 664
100 210
101 214
115 57
116 152
117 999
118 256
129 31
143 95
144 248
145 8

$$$$

     RDKit          2D

 15 14  0  0  0  0  0  0  0  0999 V2000
  -10.3923    6.7500    0.0000 C   0  0  0  0  0  0  0  0  0  0  0  0
    3.8971    6.0000    0.0000 C   0  0  0  0  0  0  0  0  0  0  0  0
    2.5981    3.7500    0.0000 C   0  0  0  0  0  0  0  0  0  0  0  0
   -9.0933    6.0000    0.0000 C   0  0  0  0  0  0  0  0  0  0  0  0
    2.5981    6.7500    0.0000 C   0  0  0  0  0  0  0  0  0  0  0  0
    1.2990    4.5000    0.0000 C   0  0  0  0  0  0  0  0  0  0  0  0
   -7.7942    6.7500    0.0000 C   0  0  0  0  0  0  0  0  0  0  0  0
   -6.4952    6.0000    0.0000 C   0  0  0  0  0  0  0  0  0  0  0  0
   -5.1962    6.7500    0.0000 C   0  0  0  0  0  0  0  0  0  0  0  0
   -3.8971    6.0000    0.0000 C   0  0  0  0  0  0  0  0  0  0  0  0
   -2.5981    6.7500    0.0000 C   0  0  0  0  0  0  0  0  0  0  0  0
    1.2990    6.0000    0.0000 C   0  0  0  0  0  0  0  0  0  0  0  0
    0.0000    6.7500    0.0000 C   0  0  0  0  0  0  0  0  0  0  0  0
    0.0000    8.2500    0.0000 O   0  0  0  0  0  0  0  0  0  0  0  0
   -1.2990    6.0000    0.0000 O   0  0  0  0  0  0  0  0  0  0  0  0
  4  1  1  0
  5  2  1  0
  6  3  1  0
  7  4  1  0
  8  7  1  0
  9  8  1  0
 10  9  1  0
 11 10  1  0
 12  5  1  0
 12  6  1  0
 13 12  1  0
 14 13  2  0
 15 11  1  0
 15 13  1  0
M  END
>  <NAME>  (764) 
HEPTYL 2-ETHYLBUTYRATE

>  <SYNONYMS>  (764) 


>  <SPECTRUM TYPE>  (764) 
MS1

>  <INSTRUMENT TYPE>  (764) 
EI-B

>  <INSTRUMENT>  (764) 
HITACHI M-80B

>  <ION MODE>  (764) 
P

>  <INCHIKEY>  (764) 
ZAQPYAQFZYEMDO-UHFFFAOYSA-N

>  <FORMULA>  (764) 
C13H26O2

>  <EXACT MASS>  (764) 
214.193280072

>  <MW>  (764) 
214

>  <ID>  (764) 
JP010902

>  <CONTRIBUTOR>  (764) 
University of Tokyo Team, {Faculty of Engineering, University of Tokyo

>  <COMMENT>  (764) 
SMILES=CCCCCCCOC(=O)C(CC)CC
InChI=InChI=1S/C13H26O2/c1-4-7-8-9-10-11-15-13(14)12(5-2)6-3/h12H,4-11H2,1-3H3
computed SMILES=O=C(OCCCCCCC)C(CC)CC
accession=JP010902
date=2016.01.19 (Created 2008.10.21, modified 2011.05.06)
author=SODA AROMATIC CO., LTD.
license=CC BY-NC-SA
exact mass=214.19328
ionization energy=70 eV
ion type=[M]+*
computed spectral entropy=2.9278055331952846
computed normalized entropy=0.8170196902759145
SPLASH=splash10-05mp-9100000000-c0f05f7d1ddd25a4e4b4
submitter=submitter = University of Tokyo Team (Faculty of Engineering, University of Tokyo)
MoNA Rating=3.75

>  <NUM PEAKS>  (764) 
36

>  <MASS SPECTRAL PEAKS>  (764) 
27 16.5
29 28.1
31 1
39 10.6
41 44.2
42 15.7
43 79.1
44 2.1
45 1.6
53 2.2
54 2.5
55 30.2
56 31.8
57 48.3
58 1.7
67 1.2
68 2.7
69 15.1
70 26.8
71 60.1
72 2.7
73 6
83 2.7
87 13.1
88 25.1
89 8.2
97 1.1
98 27.5
99 36.4
100 1.9
101 2
116 1.7
117 99.99
118 6.9
143 1.8
186 2.6

>  <PREDICTED SPECTRUM>  (764) 
25 0
26 60
27 192
28 117
29 290
31 38
36 0
39 196
40 71
41 420
42 259
43 661
44 169
45 83
53 97
54 130
55 415
56 412
57 494
58 30
59 9
60 30
67 77
68 78
69 291
70 389
71 663
72 154
73 235
74 3
81 40
82 91
83 150
84 16
85 69
86 48
87 276
88 488
89 323
90 49
96 75
97 152
98 351
99 551
100 157
101 154
115 38
116 135
117 999
118 270
131 13
143 148
145 0
186 146
187 1

$$$$

     RDKit          2D

 14 13  0  0  0  0  0  0  0  0999 V2000
    2.9228    6.1875    0.0000 C   0  0  0  0  0  0  0  0  0  0  0  0
  -10.0675    6.1875    0.0000 C   0  0  0  0  0  0  0  0  0  0  0  0
   -8.7685    3.9375    0.0000 C   0  0  0  0  0  0  0  0  0  0  0  0
    1.6238    6.9375    0.0000 C   0  0  0  0  0  0  0  0  0  0  0  0
   -8.7685    6.9375    0.0000 C   0  0  0  0  0  0  0  0  0  0  0  0
   -7.4695    4.6875    0.0000 C   0  0  0  0  0  0  0  0  0  0  0  0
    0.3248    6.1875    0.0000 C   0  0  0  0  0  0  0  0  0  0  0  0
   -0.9743    6.9375    0.0000 C   0  0  0  0  0  0  0  0  0  0  0  0
   -2.2733    6.1875    0.0000 C   0  0  0  0  0  0  0  0  0  0  0  0
   -3.5724    6.9375    0.0000 C   0  0  0  0  0  0  0  0  0  0  0  0
   -7.4695    6.1875    0.0000 C   0  0  0  0  0  0  0  0  0  0  0  0
   -6.1704    6.9375    0.0000 C   0  0  0  0  0  0  0  0  0  0  0  0
   -6.1704    8.4375    0.0000 O   0  0  0  0  0  0  0  0  0  0  0  0
   -4.8714    6.1875    0.0000 O   0  0  0  0  0  0  0  0  0  0  0  0
  4  1  1  0
  5  2  1  0
  6  3  1  0
  7  4  1  0
  8  7  1  0
  8  9  2  0
 10  9  1  0
 11  5  1  0
 11  6  1  0
 12 11  1  0
 13 12  2  0
 14 10  1  0
 14 12  1  0
M  END
>  <NAME>  (765) 
TRANS-2-HEXENYL 2-ETHYLBUTYRATE

>  <SYNONYMS>  (765) 


>  <SPECTRUM TYPE>  (765) 
MS1

>  <INSTRUMENT TYPE>  (765) 
EI-B

>  <INSTRUMENT>  (765) 
HITACHI M-80B

>  <ION MODE>  (765) 
P

>  <INCHIKEY>  (765) 
GWLMOEWFTARWTG-CMDGGOBGSA-N

>  <FORMULA>  (765) 
C12H22O2

>  <EXACT MASS>  (765) 
198.161979944

>  <MW>  (765) 
198

>  <ID>  (765) 
JP010901

>  <CONTRIBUTOR>  (765) 
University of Tokyo Team, {Faculty of Engineering, University of Tokyo

>  <COMMENT>  (765) 
SMILES=CCCC=CCOC(=O)C(CC)CC
InChI=InChI=1S/C12H22O2/c1-4-7-8-9-10-14-12(13)11(5-2)6-3/h8-9,11H,4-7,10H2,1-3H3/b9-8+
computed SMILES=O=C(OCC=CCCC)C(CC)CC
accession=JP010901
date=2016.01.19 (Created 2008.10.21, modified 2011.05.06)
author=SODA AROMATIC CO., LTD.
license=CC BY-NC-SA
exact mass=198.16198
ionization energy=70 eV
ion type=[M]+*
computed spectral entropy=2.6263128966776415
computed normalized entropy=0.7799471829263634
SPLASH=splash10-0596-9000000000-c847e2996f9f2ff9ba29
submitter=submitter = University of Tokyo Team (Faculty of Engineering, University of Tokyo)
MoNA Rating=3.75

>  <NUM PEAKS>  (765) 
29

>  <MASS SPECTRAL PEAKS>  (765) 
27 16.2
29 18.4
39 14.1
41 43.3
42 5.5
43 62.7
44 1.6
53 5.3
54 9.8
55 53
56 4
57 6.6
67 16.2
68 1.1
69 2.2
70 1.9
71 99.99
72 6.2
81 1.9
82 14.4
83 30.8
84 2.1
87 1.3
88 1.5
99 35.4
100 2.3
117 1.6
169 1.7
198 2.4

>  <PREDICTED SPECTRUM>  (765) 
25 1
26 92
27 291
28 118
29 285
38 14
39 332
40 87
41 600
42 284
43 830
44 160
45 71
50 20
51 28
52 11
53 240
54 408
55 835
56 242
57 199
58 49
59 6
65 80
66 34
67 505
68 109
69 80
70 279
71 999
72 259
73 107
81 176
82 545
83 594
84 119
85 7
88 97
97 30
98 8
99 507
100 158
110 127
116 31
117 164
127 12
128 41

$$$$

     RDKit          2D

  9  8  0  0  0  0  0  0  0  0999 V2000
    1.9486    2.6250    0.0000 C   0  0  0  0  0  0  0  0  0  0  0  0
    0.6495    0.3750    0.0000 C   0  0  0  0  0  0  0  0  0  0  0  0
   -4.5466    3.3750    0.0000 C   0  0  0  0  0  0  0  0  0  0  0  0
    0.6495    3.3750    0.0000 C   0  0  0  0  0  0  0  0  0  0  0  0
   -0.6495    1.1250    0.0000 C   0  0  0  0  0  0  0  0  0  0  0  0
   -0.6495    2.6250    0.0000 C   0  0  0  0  0  0  0  0  0  0  0  0
   -1.9486    3.3750    0.0000 C   0  0  0  0  0  0  0  0  0  0  0  0
   -1.9486    4.8750    0.0000 O   0  0  0  0  0  0  0  0  0  0  0  0
   -3.2476    2.6250    0.0000 O   0  0  0  0  0  0  0  0  0  0  0  0
  4  1  1  0
  5  2  1  0
  6  4  1  0
  6  5  1  0
  7  6  1  0
  8  7  2  0
  9  3  1  0
  9  7  1  0
M  END
>  <NAME>  (766) 
METHYL 2-ETHYLBUTYRATE

>  <SYNONYMS>  (766) 


>  <SPECTRUM TYPE>  (766) 
MS1

>  <INSTRUMENT TYPE>  (766) 
EI-B

>  <INSTRUMENT>  (766) 
HITACHI M-80B

>  <ION MODE>  (766) 
P

>  <INCHIKEY>  (766) 
UNEAEGWIVFZPFI-UHFFFAOYSA-N

>  <FORMULA>  (766) 
C7H14O2

>  <EXACT MASS>  (766) 
130.099379688

>  <MW>  (766) 
130

>  <ID>  (766) 
JP010900

>  <CONTRIBUTOR>  (766) 
University of Tokyo Team, {Faculty of Engineering, University of Tokyo

>  <COMMENT>  (766) 
SMILES=CCC(CC)C(=O)OC
InChI=InChI=1S/C7H14O2/c1-4-6(5-2)7(8)9-3/h6H,4-5H2,1-3H3
computed SMILES=O=C(OC)C(CC)CC
accession=JP010900
date=2016.01.19 (Created 2008.10.21, modified 2011.05.06)
author=SODA AROMATIC CO., LTD.
license=CC BY-NC-SA
exact mass=130.09938
ionization energy=70 eV
ion type=[M]+*
computed spectral entropy=2.6497045388248845
computed normalized entropy=0.7716116517161431
SPLASH=splash10-0udl-9400000000-f222a9f3db4bb91e9b87
submitter=submitter = University of Tokyo Team (Faculty of Engineering, University of Tokyo)
MoNA Rating=3.75

>  <NUM PEAKS>  (766) 
31

>  <MASS SPECTRAL PEAKS>  (766) 
15 5.4
16 1.5
26 2.1
27 10.5
38 1.2
39 10.4
41 14.9
42 5.8
43 53.5
45 1.6
53 2.3
54 1.1
55 17.6
56 2.4
59 13.4
69 9.2
70 6.4
71 31.6
72 2.4
73 2.3
74 2.3
87 63.7
88 5.2
99 16.5
100 2.4
101 29.8
102 99.99
103 4.9
104 1.3
115 6.3
116 1.2

>  <PREDICTED SPECTRUM>  (766) 
14 32
15 167
26 97
27 347
28 182
29 415
30 4
31 195
32 42
33 77
37 38
38 97
39 440
40 187
41 721
42 371
43 999
44 139
45 154
50 76
51 75
53 190
54 144
55 637
56 213
57 332
58 69
59 667
60 268
61 43
68 19
69 421
70 667
71 803
72 330
73 167
74 79
83 8
85 60
87 392
88 183
98 206
99 385
100 33
101 200
102 690
103 149
115 34
130 13

$$$$

     RDKit          2D

 10  9  0  0  0  0  0  0  0  0999 V2000
   -6.4952    4.5000    0.0000 C   0  0  0  0  0  0  0  0  0  0  0  0
    2.5981    3.7500    0.0000 C   0  0  0  0  0  0  0  0  0  0  0  0
   -0.0000    2.2500    0.0000 C   0  0  0  0  0  0  0  0  0  0  0  0
   -5.1962    3.7500    0.0000 C   0  0  0  0  0  0  0  0  0  0  0  0
    1.2990    4.5000    0.0000 C   0  0  0  0  0  0  0  0  0  0  0  0
   -3.8971    4.5000    0.0000 C   0  0  0  0  0  0  0  0  0  0  0  0
   -0.0000    3.7500    0.0000 C   0  0  0  0  0  0  0  0  0  0  0  0
   -1.2990    4.5000    0.0000 C   0  0  0  0  0  0  0  0  0  0  0  0
   -1.2990    6.0000    0.0000 O   0  0  0  0  0  0  0  0  0  0  0  0
   -2.5981    3.7500    0.0000 O   0  0  0  0  0  0  0  0  0  0  0  0
  4  1  2  0
  5  2  1  0
  6  4  1  0
  7  3  1  0
  7  5  1  0
  8  7  1  0
  9  8  2  0
 10  6  1  0
 10  8  1  0
M  END
>  <NAME>  (767) 
ALLYL 2-METHYLBUTYRATE

>  <SYNONYMS>  (767) 


>  <SPECTRUM TYPE>  (767) 
MS1

>  <INSTRUMENT TYPE>  (767) 
EI-B

>  <INSTRUMENT>  (767) 
HITACHI M-80B

>  <ION MODE>  (767) 
P

>  <INCHIKEY>  (767) 
ZSPLJXGRHFJQKO-UHFFFAOYSA-N

>  <FORMULA>  (767) 
C8H14O2

>  <EXACT MASS>  (767) 
142.099379688

>  <MW>  (767) 
142

>  <ID>  (767) 
JP010899

>  <CONTRIBUTOR>  (767) 
University of Tokyo Team, {Faculty of Engineering, University of Tokyo

>  <COMMENT>  (767) 
SMILES=C=CCOC(=O)C(C)CC
InChI=InChI=1S/C8H14O2/c1-4-6-10-8(9)7(3)5-2/h4,7H,1,5-6H2,2-3H3
computed SMILES=O=C(OCC=C)C(C)CC
accession=JP010899
date=2016.01.19 (Created 2008.10.21, modified 2011.05.06)
author=SODA AROMATIC CO., LTD.
license=CC BY-NC-SA
exact mass=142.09938
ionization energy=70 eV
ion type=[M]+*
computed spectral entropy=2.0303578222291376
computed normalized entropy=0.7024555982054671
SPLASH=splash10-0a4u-9000000000-bfebaad07a4111b37762
submitter=submitter = University of Tokyo Team (Faculty of Engineering, University of Tokyo)
MoNA Rating=3.75

>  <NUM PEAKS>  (767) 
18

>  <MASS SPECTRAL PEAKS>  (767) 
26 1.5
27 10.7
29 25.4
38 1
39 17.5
41 53.3
42 2.2
43 1.4
45 1.3
55 6.1
56 5.5
57 99.99
58 6.3
69 4.2
73 1
85 33.6
86 1.7
114 4.8

>  <PREDICTED SPECTRUM>  (767) 
25 6
26 78
27 255
28 104
29 351
30 28
31 23
36 2
37 44
38 100
39 374
40 174
41 776
42 182
43 169
44 90
45 56
50 47
51 8
52 36
53 113
54 78
55 278
56 211
57 999
58 317
59 50
60 26
67 57
68 90
69 139
70 48
73 13
74 71
83 18
85 608
86 93
87 2
97 31
99 40
113 2
114 54
142 37

$$$$

     RDKit          2D

 15 14  0  0  0  0  0  0  0  0999 V2000
    3.2476    5.6250    0.0000 C   0  0  0  0  0  0  0  0  0  0  0  0
   -1.9486    8.6250    0.0000 C   0  0  0  0  0  0  0  0  0  0  0  0
   -9.7428    5.6250    0.0000 C   0  0  0  0  0  0  0  0  0  0  0  0
   -8.4437    7.8750    0.0000 C   0  0  0  0  0  0  0  0  0  0  0  0
    1.9486    6.3750    0.0000 C   0  0  0  0  0  0  0  0  0  0  0  0
   -3.2476    7.8750    0.0000 C   0  0  0  0  0  0  0  0  0  0  0  0
    0.6495    5.6250    0.0000 C   0  0  0  0  0  0  0  0  0  0  0  0
   -0.6495    6.3750    0.0000 C   0  0  0  0  0  0  0  0  0  0  0  0
   -1.9486    5.6250    0.0000 C   0  0  0  0  0  0  0  0  0  0  0  0
   -7.1447    5.6250    0.0000 C   0  0  0  0  0  0  0  0  0  0  0  0
   -8.4437    6.3750    0.0000 C   0  0  0  0  0  0  0  0  0  0  0  0
   -3.2476    6.3750    0.0000 C   0  0  0  0  0  0  0  0  0  0  0  0
   -5.8457    6.3750    0.0000 C   0  0  0  0  0  0  0  0  0  0  0  0
   -5.8457    7.8750    0.0000 O   0  0  0  0  0  0  0  0  0  0  0  0
   -4.5466    5.6250    0.0000 O   0  0  0  0  0  0  0  0  0  0  0  0
  5  1  1  0
  6  2  1  0
  7  5  1  0
  8  7  1  0
  9  8  1  0
 11  3  1  0
 11  4  1  0
 11 10  1  0
 12  6  1  0
 12  9  1  0
 13 10  1  0
 14 13  2  0
 15 12  1  0
 15 13  1  0
M  END
>  <NAME>  (768) 
3-OCTYL ISOVALERATE

>  <SYNONYMS>  (768) 


>  <SPECTRUM TYPE>  (768) 
MS1

>  <INSTRUMENT TYPE>  (768) 
EI-B

>  <INSTRUMENT>  (768) 
HITACHI M-80B

>  <ION MODE>  (768) 
P

>  <INCHIKEY>  (768) 
NRBJSRMBRQHOPL-UHFFFAOYSA-N

>  <FORMULA>  (768) 
C13H26O2

>  <EXACT MASS>  (768) 
214.193280072

>  <MW>  (768) 
214

>  <ID>  (768) 
JP010898

>  <CONTRIBUTOR>  (768) 
University of Tokyo Team, {Faculty of Engineering, University of Tokyo

>  <COMMENT>  (768) 
SMILES=CCCCCC(CC)OC(=O)CC(C)C
InChI=InChI=1S/C13H26O2/c1-5-7-8-9-12(6-2)15-13(14)10-11(3)4/h11-12H,5-10H2,1-4H3
computed SMILES=O=C(OC(CC)CCCCC)CC(C)C
accession=JP010898
date=2016.01.19 (Created 2008.10.21, modified 2011.05.06)
author=SODA AROMATIC CO., LTD.
license=CC BY-NC-SA
exact mass=214.19328
ionization energy=70 eV
ion type=[M]+*
computed spectral entropy=2.8127021886262282
computed normalized entropy=0.7677507464894702
SPLASH=splash10-052r-9000000000-440323eeec59d69b9584
submitter=submitter = University of Tokyo Team (Faculty of Engineering, University of Tokyo)
MoNA Rating=3.75

>  <NUM PEAKS>  (768) 
39

>  <MASS SPECTRAL PEAKS>  (768) 
15 1.3
20 1.7
27 7.2
29 8.9
31 1.2
32 8
39 5.3
40 6.2
41 25
42 6.5
43 15.4
45 1.3
53 1.6
54 1.5
55 11.4
56 10.3
57 52.1
58 3.1
59 2.3
60 5.9
61 1.4
69 5.2
70 9.7
72 1.1
82 1.9
83 6.3
84 4.2
85 99.99
86 5
87 3.4
97 1.1
100 1.3
102 5.2
103 7.2
112 10
113 2.1
129 1.2
143 4.1
185 1.9

>  <PREDICTED SPECTRUM>  (768) 
25 0
26 68
27 313
28 151
29 444
30 21
31 53
37 4
38 24
39 313
40 128
41 574
42 297
43 569
44 115
45 75
51 2
52 11
53 133
54 141
55 394
56 477
57 970
58 267
59 203
60 263
61 110
65 20
66 28
67 104
68 148
69 309
70 266
71 293
72 99
73 118
74 23
81 2
82 74
83 249
84 293
85 999
86 280
87 217
97 137
98 2
99 90
101 73
102 258
103 429
111 68
112 546
113 220
114 77
115 46
116 66
129 47
157 162

$$$$

     RDKit          2D

 15 14  0  0  0  0  0  0  0  0999 V2000
    3.2476    5.6250    0.0000 C   0  0  0  0  0  0  0  0  0  0  0  0
   -9.7428    5.6250    0.0000 C   0  0  0  0  0  0  0  0  0  0  0  0
   -1.9486    8.6250    0.0000 C   0  0  0  0  0  0  0  0  0  0  0  0
   -7.1447    4.1250    0.0000 C   0  0  0  0  0  0  0  0  0  0  0  0
    1.9486    6.3750    0.0000 C   0  0  0  0  0  0  0  0  0  0  0  0
   -8.4437    6.3750    0.0000 C   0  0  0  0  0  0  0  0  0  0  0  0
   -3.2476    7.8750    0.0000 C   0  0  0  0  0  0  0  0  0  0  0  0
    0.6495    5.6250    0.0000 C   0  0  0  0  0  0  0  0  0  0  0  0
   -0.6495    6.3750    0.0000 C   0  0  0  0  0  0  0  0  0  0  0  0
   -1.9486    5.6250    0.0000 C   0  0  0  0  0  0  0  0  0  0  0  0
   -7.1447    5.6250    0.0000 C   0  0  0  0  0  0  0  0  0  0  0  0
   -3.2476    6.3750    0.0000 C   0  0  0  0  0  0  0  0  0  0  0  0
   -5.8457    6.3750    0.0000 C   0  0  0  0  0  0  0  0  0  0  0  0
   -5.8457    7.8750    0.0000 O   0  0  0  0  0  0  0  0  0  0  0  0
   -4.5466    5.6250    0.0000 O   0  0  0  0  0  0  0  0  0  0  0  0
  5  1  1  0
  6  2  1  0
  7  3  1  0
  8  5  1  0
  9  8  1  0
 10  9  1  0
 11  4  1  0
 11  6  1  0
 12  7  1  0
 12 10  1  0
 13 11  1  0
 14 13  2  0
 15 12  1  0
 15 13  1  0
M  END
>  <NAME>  (769) 
3-OCTYL 2-METHYLBUTYRATE

>  <SYNONYMS>  (769) 


>  <SPECTRUM TYPE>  (769) 
MS1

>  <INSTRUMENT TYPE>  (769) 
EI-B

>  <INSTRUMENT>  (769) 
HITACHI M-80B

>  <ION MODE>  (769) 
P

>  <INCHIKEY>  (769) 
STGKDMMHQYQHRE-UHFFFAOYSA-N

>  <FORMULA>  (769) 
C13H26O2

>  <EXACT MASS>  (769) 
214.193280072

>  <MW>  (769) 
214

>  <ID>  (769) 
JP010897

>  <CONTRIBUTOR>  (769) 
University of Tokyo Team, {Faculty of Engineering, University of Tokyo

>  <COMMENT>  (769) 
SMILES=CCCCCC(CC)OC(=O)C(C)CC
InChI=InChI=1S/C13H26O2/c1-5-8-9-10-12(7-3)15-13(14)11(4)6-2/h11-12H,5-10H2,1-4H3
computed SMILES=O=C(OC(CC)CCCCC)C(C)CC
accession=JP010897
date=2016.01.19 (Created 2008.10.21, modified 2011.05.06)
author=SODA AROMATIC CO., LTD.
license=CC BY-NC-SA
exact mass=214.19328
ionization energy=70 eV
ion type=[M]+*
computed spectral entropy=2.692152350368967
computed normalized entropy=0.7699546770720678
SPLASH=splash10-0a4r-9000000000-9301ace41ac37ced6561
submitter=submitter = University of Tokyo Team (Faculty of Engineering, University of Tokyo)
MoNA Rating=3.75

>  <NUM PEAKS>  (769) 
33

>  <MASS SPECTRAL PEAKS>  (769) 
27 10.3
29 26.6
31 1.1
39 6.4
41 32.9
42 5.9
43 19.6
44 1.2
53 1.3
54 1.2
55 15.2
56 13.4
57 99.99
58 5.2
59 2.6
69 6.3
70 11.6
71 25.1
72 1.4
74 4.1
82 1.3
83 8.5
84 4.8
85 86.4
86 5.3
87 1.6
99 1.2
102 2.3
103 12.6
112 14.7
113 2.4
143 4.6
185 1.3

>  <PREDICTED SPECTRUM>  (769) 
26 70
27 321
28 161
29 493
30 3
31 27
36 0
37 5
38 48
39 278
40 116
41 549
42 234
43 659
44 132
45 72
51 6
52 22
53 113
54 116
55 429
56 393
57 999
58 305
59 116
60 101
67 45
68 94
69 269
70 381
71 740
72 163
73 47
74 17
82 76
83 247
84 257
85 949
86 263
87 134
88 23
90 7
97 154
98 20
99 110
100 16
101 37
102 39
103 161
111 44
112 333
113 229
114 60
115 49
127 42
129 72
157 46

$$$$

     RDKit          2D

 13 12  0  0  0  0  0  0  0  0999 V2000
   -9.7428    5.6250    0.0000 C   0  0  0  0  0  0  0  0  0  0  0  0
    3.2476    5.6250    0.0000 C   0  0  0  0  0  0  0  0  0  0  0  0
    0.6495    7.1250    0.0000 C   0  0  0  0  0  0  0  0  0  0  0  0
   -8.4437    4.8750    0.0000 C   0  0  0  0  0  0  0  0  0  0  0  0
    1.9486    4.8750    0.0000 C   0  0  0  0  0  0  0  0  0  0  0  0
   -7.1447    5.6250    0.0000 C   0  0  0  0  0  0  0  0  0  0  0  0
   -5.8457    4.8750    0.0000 C   0  0  0  0  0  0  0  0  0  0  0  0
   -4.5466    5.6250    0.0000 C   0  0  0  0  0  0  0  0  0  0  0  0
   -3.2476    4.8750    0.0000 C   0  0  0  0  0  0  0  0  0  0  0  0
    0.6495    5.6250    0.0000 C   0  0  0  0  0  0  0  0  0  0  0  0
   -0.6495    4.8750    0.0000 C   0  0  0  0  0  0  0  0  0  0  0  0
   -0.6495    3.3750    0.0000 O   0  0  0  0  0  0  0  0  0  0  0  0
   -1.9486    5.6250    0.0000 O   0  0  0  0  0  0  0  0  0  0  0  0
  4  1  1  0
  5  2  1  0
  6  4  1  0
  7  6  1  0
  7  8  2  0
  9  8  1  0
 10  3  1  0
 10  5  1  0
 11 10  1  0
 12 11  2  0
 13  9  1  0
 13 11  1  0
M  END
>  <NAME>  (770) 
TRANS-2-HEXENYL 2-METHYLBUTYRATE

>  <SYNONYMS>  (770) 


>  <SPECTRUM TYPE>  (770) 
MS1

>  <INSTRUMENT TYPE>  (770) 
EI-B

>  <INSTRUMENT>  (770) 
HITACHI M-80B

>  <ION MODE>  (770) 
P

>  <INCHIKEY>  (770) 
SXJKRFLZGRFPBD-BQYQJAHWSA-N

>  <FORMULA>  (770) 
C11H20O2

>  <EXACT MASS>  (770) 
184.14632988

>  <MW>  (770) 
184

>  <ID>  (770) 
JP010896

>  <CONTRIBUTOR>  (770) 
University of Tokyo Team, {Faculty of Engineering, University of Tokyo

>  <COMMENT>  (770) 
SMILES=CCCC=CCOC(=O)C(C)CC
InChI=InChI=1S/C11H20O2/c1-4-6-7-8-9-13-11(12)10(3)5-2/h7-8,10H,4-6,9H2,1-3H3/b8-7+
computed SMILES=O=C(OCC=CCCC)C(C)CC
accession=JP010896
date=2016.01.19 (Created 2008.10.21, modified 2011.05.06)
author=SODA AROMATIC CO., LTD.
license=CC BY-NC-SA
exact mass=184.14633
ionization energy=70 eV
ion type=[M]+*
computed spectral entropy=2.442009561976219
computed normalized entropy=0.7900278300361278
SPLASH=splash10-0a4i-9000000000-1fc04ce24b13844e373a
submitter=submitter = University of Tokyo Team (Faculty of Engineering, University of Tokyo)
MoNA Rating=3.75

>  <NUM PEAKS>  (770) 
22

>  <MASS SPECTRAL PEAKS>  (770) 
27 14.6
29 26.9
39 14.9
41 48.5
42 4
43 2.9
53 4.9
54 9
55 46.8
56 5.7
57 99.99
58 4.3
67 16.7
69 1.1
81 2.1
82 12.5
83 25.5
84 2.2
85 40.1
86 1.6
103 1.4
184 2.1

>  <PREDICTED SPECTRUM>  (770) 
25 4
26 76
27 267
28 116
29 412
37 7
38 28
39 315
40 105
41 646
42 179
43 274
44 98
45 109
50 107
51 140
52 111
53 261
54 348
55 694
56 285
57 999
58 145
63 10
64 18
65 141
66 109
67 463
68 126
69 123
70 42
71 15
72 24
73 114
74 25
79 2
81 73
82 482
83 742
84 154
85 771
86 141
88 11
99 21
100 34
102 161
103 88
139 45
184 90
185 24

$$$$

     RDKit          2D

 18 17  0  0  0  0  0  0  0  0999 V2000
  -15.5885    9.0000    0.0000 C   0  0  0  0  0  0  0  0  0  0  0  0
    5.1962    9.0000    0.0000 C   0  0  0  0  0  0  0  0  0  0  0  0
  -14.2894    8.2500    0.0000 C   0  0  0  0  0  0  0  0  0  0  0  0
    3.8971    8.2500    0.0000 C   0  0  0  0  0  0  0  0  0  0  0  0
  -12.9904    9.0000    0.0000 C   0  0  0  0  0  0  0  0  0  0  0  0
    2.5981    9.0000    0.0000 C   0  0  0  0  0  0  0  0  0  0  0  0
  -11.6913    8.2500    0.0000 C   0  0  0  0  0  0  0  0  0  0  0  0
    1.2990    8.2500    0.0000 C   0  0  0  0  0  0  0  0  0  0  0  0
  -10.3923    9.0000    0.0000 C   0  0  0  0  0  0  0  0  0  0  0  0
   -9.0933    8.2500    0.0000 C   0  0  0  0  0  0  0  0  0  0  0  0
   -7.7942    9.0000    0.0000 C   0  0  0  0  0  0  0  0  0  0  0  0
   -6.4952    8.2500    0.0000 C   0  0  0  0  0  0  0  0  0  0  0  0
    0.0000    9.0000    0.0000 C   0  0  0  0  0  0  0  0  0  0  0  0
   -5.1962    9.0000    0.0000 C   0  0  0  0  0  0  0  0  0  0  0  0
   -1.2990    8.2500    0.0000 C   0  0  0  0  0  0  0  0  0  0  0  0
   -3.8971    8.2500    0.0000 C   0  0  0  0  0  0  0  0  0  0  0  0
   -3.8971    6.7500    0.0000 O   0  0  0  0  0  0  0  0  0  0  0  0
   -2.5981    9.0000    0.0000 O   0  0  0  0  0  0  0  0  0  0  0  0
  3  1  1  0
  4  2  1  0
  5  3  1  0
  6  4  1  0
  7  5  1  0
  8  6  1  0
  9  7  1  0
 10  9  1  0
 11 10  1  0
 12 11  1  0
  8 13  2  0
 14 12  1  0
 15 13  1  0
 16 14  1  0
 17 16  2  0
 18 15  1  0
 18 16  1  0
M  END
>  <NAME>  (771) 
TRANS-2-HEXENYL DECANOATE

>  <SYNONYMS>  (771) 


>  <SPECTRUM TYPE>  (771) 
MS1

>  <INSTRUMENT TYPE>  (771) 
EI-B

>  <INSTRUMENT>  (771) 
HITACHI M-80B

>  <ION MODE>  (771) 
P

>  <INCHIKEY>  (771) 
IRAVWWBOSKWULT-MDWZMJQESA-N

>  <FORMULA>  (771) 
C16H30O2

>  <EXACT MASS>  (771) 
254.2245802

>  <MW>  (771) 
254

>  <ID>  (771) 
JP010895

>  <CONTRIBUTOR>  (771) 
University of Tokyo Team, {Faculty of Engineering, University of Tokyo

>  <COMMENT>  (771) 
SMILES=CCCCCCCCCC(=O)OCC=CCCC
InChI=InChI=1S/C16H30O2/c1-3-5-7-9-10-11-12-14-16(17)18-15-13-8-6-4-2/h8,13H,3-7,9-12,14-15H2,1-2H3/b13-8+
computed SMILES=O=C(OCC=CCCC)CCCCCCCCC
accession=JP010895
date=2016.01.19 (Created 2008.10.21, modified 2011.05.06)
author=SODA AROMATIC CO., LTD.
license=CC BY-NC-SA
exact mass=254.22458
ionization energy=70 eV
ion type=[M]+*
computed spectral entropy=3.3608804862384645
computed normalized entropy=0.7910754972664784
SPLASH=splash10-0a4l-9100000000-5e86fbc682ddd0e1332f
submitter=submitter = University of Tokyo Team (Faculty of Engineering, University of Tokyo)
MoNA Rating=3.75

>  <NUM PEAKS>  (771) 
70

>  <MASS SPECTRAL PEAKS>  (771) 
15 1.3
16 1.2
26 1.3
27 15.7
29 9.3
32 3.32
38 2.4
39 16.9
40 3.9
41 71.9
42 13
43 50.6
45 1.8
50 2.3
51 2
52 1.5
53 8.1
54 12.7
55 70.6
56 10
57 47.3
58 1.8
59 1.2
60 3.7
65 3.6
66 1.9
67 58.5
68 5.6
69 16.6
70 4.2
71 46.9
72 3.2
73 4.1
77 1.3
79 3.4
80 1.2
81 14.4
82 60.5
83 32.4
84 6.3
85 25.3
86 2.3
87 2.5
95 10.2
96 2.3
97 5
98 4
99 7.6
100 6.6
101 1.9
109 1.7
110 1.8
111 4
112 1.3
114 1.1
115 1.7
127 1.7
129 2.1
135 3
137 1.8
142 1.1
153 4.3
155 99.99
156 10.6
171 1.1
172 2.8
173 1.4
211 1.6
225 3.5
254 4.5

>  <PREDICTED SPECTRUM>  (771) 
25 20
26 140
27 416
28 220
29 532
31 25
36 9
37 23
38 68
39 444
40 175
41 972
42 394
43 802
44 206
45 107
50 72
51 144
52 111
53 259
54 507
55 957
56 396
57 999
58 171
59 53
60 249
61 85
64 2
65 152
66 161
67 792
68 292
69 489
70 198
71 343
72 149
73 241
74 38
77 131
78 27
79 133
80 79
81 368
82 992
83 736
84 209
85 469
86 142
87 131
95 261
96 194
97 161
98 181
99 176
100 257
101 137
102 77
109 255
110 109
111 150
112 75
113 73
114 108
115 99
116 66
124 8
125 54
126 7
127 319
128 153
129 137
153 12
155 858
156 295
173 144
183 41
211 70
225 87
254 185
255 10

$$$$

     RDKit          2D

 19 18  0  0  0  0  0  0  0  0999 V2000
  -16.2380   10.1250    0.0000 C   0  0  0  0  0  0  0  0  0  0  0  0
    5.8457    9.3750    0.0000 C   0  0  0  0  0  0  0  0  0  0  0  0
  -14.9389    9.3750    0.0000 C   0  0  0  0  0  0  0  0  0  0  0  0
    4.5466   10.1250    0.0000 C   0  0  0  0  0  0  0  0  0  0  0  0
  -13.6399   10.1250    0.0000 C   0  0  0  0  0  0  0  0  0  0  0  0
    3.2476    9.3750    0.0000 C   0  0  0  0  0  0  0  0  0  0  0  0
  -12.3409    9.3750    0.0000 C   0  0  0  0  0  0  0  0  0  0  0  0
    1.9486   10.1250    0.0000 C   0  0  0  0  0  0  0  0  0  0  0  0
  -11.0418   10.1250    0.0000 C   0  0  0  0  0  0  0  0  0  0  0  0
   -9.7428    9.3750    0.0000 C   0  0  0  0  0  0  0  0  0  0  0  0
    0.6495    9.3750    0.0000 C   0  0  0  0  0  0  0  0  0  0  0  0
   -8.4437   10.1250    0.0000 C   0  0  0  0  0  0  0  0  0  0  0  0
   -0.6495   10.1250    0.0000 C   0  0  0  0  0  0  0  0  0  0  0  0
   -7.1447    9.3750    0.0000 C   0  0  0  0  0  0  0  0  0  0  0  0
   -1.9486    9.3750    0.0000 C   0  0  0  0  0  0  0  0  0  0  0  0
   -5.8457   10.1250    0.0000 C   0  0  0  0  0  0  0  0  0  0  0  0
   -3.2476   10.1250    0.0000 C   0  0  0  0  0  0  0  0  0  0  0  0
   -3.2476   11.6250    0.0000 O   0  0  0  0  0  0  0  0  0  0  0  0
   -4.5466    9.3750    0.0000 O   0  0  0  0  0  0  0  0  0  0  0  0
  3  1  1  0
  4  2  1  0
  5  3  1  0
  6  4  1  0
  7  5  1  0
  8  6  1  0
  9  7  1  0
 10  9  1  0
 11  8  1  0
 12 10  1  0
 13 11  1  0
 14 12  1  0
 15 13  1  0
 16 14  1  0
 17 15  1  0
 18 17  2  0
 19 16  1  0
 19 17  1  0
M  END
>  <NAME>  (772) 
NONYL OCTANOATE

>  <SYNONYMS>  (772) 


>  <SPECTRUM TYPE>  (772) 
MS1

>  <INSTRUMENT TYPE>  (772) 
EI-B

>  <INSTRUMENT>  (772) 
HITACHI M-80B

>  <ION MODE>  (772) 
P

>  <INCHIKEY>  (772) 
HSGQXSBXGSRINJ-UHFFFAOYSA-N

>  <FORMULA>  (772) 
C17H34O2

>  <EXACT MASS>  (772) 
270.255880328

>  <MW>  (772) 
270

>  <ID>  (772) 
JP010894

>  <CONTRIBUTOR>  (772) 
University of Tokyo Team, {Faculty of Engineering, University of Tokyo

>  <COMMENT>  (772) 
SMILES=CCCCCCCCCOC(=O)CCCCCCC
InChI=InChI=1S/C17H34O2/c1-3-5-7-9-10-12-14-16-19-17(18)15-13-11-8-6-4-2/h3-16H2,1-2H3
computed SMILES=O=C(OCCCCCCCCC)CCCCCCC
accession=JP010894
date=2016.01.19 (Created 2008.10.21, modified 2011.05.06)
author=SODA AROMATIC CO., LTD.
license=CC BY-NC-SA
exact mass=270.25588
ionization energy=70 eV
ion type=[M]+*
computed spectral entropy=3.329638042577529
computed normalized entropy=0.8235458375379139
SPLASH=splash10-0a6u-9200000000-51eca3edc1355a2cb56a
submitter=submitter = University of Tokyo Team (Faculty of Engineering, University of Tokyo)
MoNA Rating=3.75

>  <NUM PEAKS>  (772) 
57

>  <MASS SPECTRAL PEAKS>  (772) 
26 1
27 18.3
29 36.5
30 1.1
31 1
39 8.4
41 74.3
42 25.5
43 99.99
44 2.1
45 1.8
53 2.9
54 5.2
55 64.9
56 48.2
57 91
58 3.6
59 1.6
60 11.8
61 24.4
67 6.6
68 8.3
69 33.5
70 39.4
71 28.4
72 1.5
73 14.7
74 1.2
81 2.5
82 15.8
83 34.3
84 35.3
85 18.5
86 1
87 4.9
89 3.6
95 1
96 4.4
97 33.5
98 29.8
99 1.9
101 7.5
103 1.9
109 2.1
111 1.8
115 3.3
116 2.2
125 1.5
126 51
127 42.2
128 3.1
129 1.1
143 1.1
144 7.5
145 89.6
146 6.8
171 2.1

>  <PREDICTED SPECTRUM>  (772) 
15 2
17 4
18 19
25 17
26 78
27 323
28 176
29 511
30 93
31 107
32 1
35 11
36 39
37 41
38 67
39 330
40 154
41 805
42 478
43 999
44 200
45 146
46 20
47 4
50 15
51 32
52 34
53 169
54 277
55 862
56 761
57 920
58 202
59 118
60 464
61 633
62 95
65 62
66 74
67 297
68 358
69 725
70 767
71 670
72 181
73 549
74 110
75 71
76 12
77 41
78 12
79 117
80 71
81 260
82 367
83 658
84 624
85 419
86 131
87 306
88 134
89 184
90 11
91 45
93 93
94 64
95 206
96 243
97 533
98 553
99 348
100 88
101 211
102 145
103 133
104 17
105 32
106 23
107 45
109 110
110 155
111 352
112 364
113 126
114 73
115 236
116 264
117 261
118 33
121 35
123 67
124 40
125 206
126 218
127 157
128 37
129 345
130 99
131 79
134 5
135 63
137 23
138 78
139 112
140 102
141 161
143 171
144 78
145 71
146 19
152 36
153 82
154 161
155 228
156 75
157 134
158 95
159 243
160 50
167 35
168 39
169 101
170 37
171 113
172 96
173 169
174 70
179 4
180 12
181 21
182 26
183 72
184 11
185 16
186 38
187 221
188 78
199 38
200 20
201 108
202 30
211 6
213 45
227 43
270 76
271 48

$$$$

     RDKit          2D

 14 13  0  0  0  0  0  0  0  0999 V2000
   -8.7685    6.1875    0.0000 C   0  0  0  0  0  0  0  0  0  0  0  0
   -7.4695    3.9375    0.0000 C   0  0  0  0  0  0  0  0  0  0  0  0
    4.2219    6.1875    0.0000 C   0  0  0  0  0  0  0  0  0  0  0  0
    2.9228    3.9375    0.0000 C   0  0  0  0  0  0  0  0  0  0  0  0
   -4.8714    5.4375    0.0000 C   0  0  0  0  0  0  0  0  0  0  0  0
   -6.1704    6.1875    0.0000 C   0  0  0  0  0  0  0  0  0  0  0  0
    1.6238    6.1875    0.0000 C   0  0  0  0  0  0  0  0  0  0  0  0
    0.3248    5.4375    0.0000 C   0  0  0  0  0  0  0  0  0  0  0  0
   -3.5724    6.1875    0.0000 C   0  0  0  0  0  0  0  0  0  0  0  0
   -7.4695    5.4375    0.0000 C   0  0  0  0  0  0  0  0  0  0  0  0
    2.9228    5.4375    0.0000 C   0  0  0  0  0  0  0  0  0  0  0  0
   -0.9743    6.1875    0.0000 C   0  0  0  0  0  0  0  0  0  0  0  0
   -0.9743    7.6875    0.0000 O   0  0  0  0  0  0  0  0  0  0  0  0
   -2.2733    5.4375    0.0000 O   0  0  0  0  0  0  0  0  0  0  0  0
  6  5  1  0
  8  7  1  0
  9  5  1  0
 10  1  1  0
 10  2  1  0
 10  6  1  0
 11  3  1  0
 11  4  1  0
 11  7  1  0
 12  8  1  0
 13 12  2  0
 14  9  1  0
 14 12  1  0
M  END
>  <NAME>  (773) 
4-METHYLPENTYL 4-METHYLPENTANOATE

>  <SYNONYMS>  (773) 


>  <SPECTRUM TYPE>  (773) 
MS1

>  <INSTRUMENT TYPE>  (773) 
EI-B

>  <INSTRUMENT>  (773) 
HITACHI M-80B

>  <ION MODE>  (773) 
P

>  <INCHIKEY>  (773) 
BQOKYGYERMXUDU-UHFFFAOYSA-N

>  <FORMULA>  (773) 
C12H24O2

>  <EXACT MASS>  (773) 
200.177630008

>  <MW>  (773) 
200

>  <ID>  (773) 
JP010893

>  <CONTRIBUTOR>  (773) 
University of Tokyo Team, {Faculty of Engineering, University of Tokyo

>  <COMMENT>  (773) 
SMILES=CC(C)CCCOC(=O)CCC(C)C
InChI=InChI=1S/C12H24O2/c1-10(2)6-5-9-14-12(13)8-7-11(3)4/h10-11H,5-9H2,1-4H3
computed SMILES=O=C(OCCCC(C)C)CCC(C)C
accession=JP010893
date=2016.01.19 (Created 2008.10.21, modified 2011.05.06)
author=SODA AROMATIC CO., LTD.
license=CC BY-NC-SA
exact mass=200.17763
ionization energy=70 eV
ion type=[M]+*
computed spectral entropy=2.9208533181593173
computed normalized entropy=0.7972715079723143
SPLASH=splash10-05mo-9100000000-e06c8ca810a82b2ecfeb
submitter=submitter = University of Tokyo Team (Faculty of Engineering, University of Tokyo)
MoNA Rating=3.75

>  <NUM PEAKS>  (773) 
39

>  <MASS SPECTRAL PEAKS>  (773) 
27 15.8
29 14.2
39 10.8
41 45.2
42 13
43 99.99
44 2.9
53 2.8
55 20.3
56 65.7
57 14.8
58 1.1
59 1.7
60 1.4
61 1.1
67 1.5
68 1.1
69 27.2
70 4
71 9.9
73 6.1
74 1.4
75 1
81 17.7
82 1.3
83 7.3
84 48.5
85 24.6
86 1.2
87 1.1
97 1.5
99 34.7
100 2.8
101 7.8
115 2
116 3.5
117 48.3
118 3.1
157 5

>  <PREDICTED SPECTRUM>  (773) 
26 45
27 297
28 86
29 369
30 18
31 30
36 37
38 18
39 309
40 129
41 629
42 416
43 958
44 175
45 144
51 17
52 33
53 200
54 125
55 559
56 727
57 562
58 91
59 103
60 251
61 119
67 129
68 87
69 673
70 267
71 405
72 161
73 291
74 115
75 3
80 13
81 132
82 127
83 205
84 999
85 644
86 177
87 165
97 164
98 179
99 653
100 212
101 186
102 44
115 20
116 141
117 386
118 122
129 79
130 120
131 24
143 110
144 17
157 68

$$$$

     RDKit          2D

 17 16  0  0  0  0  0  0  0  0999 V2000
    4.5466    7.8750    0.0000 C   0  0  0  0  0  0  0  0  0  0  0  0
  -13.6399    7.8750    0.0000 C   0  0  0  0  0  0  0  0  0  0  0  0
  -12.3409   10.1250    0.0000 C   0  0  0  0  0  0  0  0  0  0  0  0
    3.2476    8.6250    0.0000 C   0  0  0  0  0  0  0  0  0  0  0  0
    1.9486    7.8750    0.0000 C   0  0  0  0  0  0  0  0  0  0  0  0
    0.6495    8.6250    0.0000 C   0  0  0  0  0  0  0  0  0  0  0  0
   -0.6495    7.8750    0.0000 C   0  0  0  0  0  0  0  0  0  0  0  0
   -1.9486    8.6250    0.0000 C   0  0  0  0  0  0  0  0  0  0  0  0
   -3.2476    7.8750    0.0000 C   0  0  0  0  0  0  0  0  0  0  0  0
   -4.5466    8.6250    0.0000 C   0  0  0  0  0  0  0  0  0  0  0  0
   -5.8457    7.8750    0.0000 C   0  0  0  0  0  0  0  0  0  0  0  0
   -7.1447    8.6250    0.0000 C   0  0  0  0  0  0  0  0  0  0  0  0
  -11.0418    7.8750    0.0000 C   0  0  0  0  0  0  0  0  0  0  0  0
  -12.3409    8.6250    0.0000 C   0  0  0  0  0  0  0  0  0  0  0  0
   -9.7428    8.6250    0.0000 C   0  0  0  0  0  0  0  0  0  0  0  0
   -9.7428   10.1250    0.0000 O   0  0  0  0  0  0  0  0  0  0  0  0
   -8.4437    7.8750    0.0000 O   0  0  0  0  0  0  0  0  0  0  0  0
  4  1  1  0
  5  4  1  0
  6  5  1  0
  7  6  1  0
  8  7  1  0
  9  8  1  0
 10  9  1  0
 11 10  1  0
 12 11  1  0
 14  2  1  0
 14  3  1  0
 14 13  1  0
 15 13  1  0
 16 15  2  0
 17 12  1  0
 17 15  1  0
M  END
>  <NAME>  (774) 
DECYL ISOVALERATE

>  <SYNONYMS>  (774) 


>  <SPECTRUM TYPE>  (774) 
MS1

>  <INSTRUMENT TYPE>  (774) 
EI-B

>  <INSTRUMENT>  (774) 
HITACHI M-80B

>  <ION MODE>  (774) 
P

>  <INCHIKEY>  (774) 
VKGHOXUAAAZEBE-UHFFFAOYSA-N

>  <FORMULA>  (774) 
C15H30O2

>  <EXACT MASS>  (774) 
242.2245802

>  <MW>  (774) 
242

>  <ID>  (774) 
JP010892

>  <CONTRIBUTOR>  (774) 
University of Tokyo Team, {Faculty of Engineering, University of Tokyo

>  <COMMENT>  (774) 
SMILES=CCCCCCCCCCOC(=O)CC(C)C
InChI=InChI=1S/C15H30O2/c1-4-5-6-7-8-9-10-11-12-17-15(16)13-14(2)3/h14H,4-13H2,1-3H3
computed SMILES=O=C(OCCCCCCCCCC)CC(C)C
accession=JP010892
date=2016.01.19 (Created 2008.10.21, modified 2011.05.06)
author=SODA AROMATIC CO., LTD.
license=CC BY-NC-SA
exact mass=242.22458
ionization energy=70 eV
ion type=[M]+*
computed spectral entropy=3.1414254375546804
computed normalized entropy=0.8114860036208607
SPLASH=splash10-0pbc-9200000000-6302b1c7fb49f5df5b2e
submitter=submitter = University of Tokyo Team (Faculty of Engineering, University of Tokyo)
MoNA Rating=3.75

>  <NUM PEAKS>  (774) 
48

>  <MASS SPECTRAL PEAKS>  (774) 
27 15.5
28 2.8
29 35.9
31 1.6
39 10.6
40 3.1
41 75
42 21.2
43 73.2
44 2.5
45 2
53 3.3
54 4.3
55 46.9
56 40.3
57 96.4
58 3.7
59 3.8
60 6.2
61 11.6
67 4.5
68 8
69 27.6
70 37.1
71 16.9
72 1.4
81 1.9
82 10.4
83 29.3
84 22
85 73.9
86 3.4
99 1.6
100 1.2
101 1.4
102 7.1
103 99.99
104 5.4
110 2.1
111 10.5
112 17.1
113 1.6
115 1.1
116 1
140 34.7
141 3.2
158 2.4
185 2

>  <PREDICTED SPECTRUM>  (774) 
25 0
26 60
27 308
28 114
29 469
30 28
31 92
36 38
37 26
38 63
39 324
40 150
41 654
42 358
43 661
44 163
45 129
51 18
52 42
53 177
54 222
55 578
56 608
57 837
58 195
59 187
60 224
61 293
62 3
65 10
66 90
67 224
68 286
69 527
70 548
71 434
72 88
73 68
79 59
80 14
81 162
82 319
83 501
84 395
85 679
86 149
87 197
95 101
96 216
97 427
98 303
99 114
100 20
101 86
102 254
103 999
104 252
110 91
111 311
112 396
113 170
115 111
116 8
125 77
138 43
139 76
140 479
141 165
142 22
143 31
185 136

$$$$

     RDKit          2D

 15 14  0  0  0  0  0  0  0  0999 V2000
    4.5466    7.1250    0.0000 C   0  0  0  0  0  0  0  0  0  0  0  0
  -12.3409    7.8750    0.0000 C   0  0  0  0  0  0  0  0  0  0  0  0
    3.2476    7.8750    0.0000 C   0  0  0  0  0  0  0  0  0  0  0  0
  -11.0418    7.1250    0.0000 C   0  0  0  0  0  0  0  0  0  0  0  0
    1.9486    7.1250    0.0000 C   0  0  0  0  0  0  0  0  0  0  0  0
   -9.7428    7.8750    0.0000 C   0  0  0  0  0  0  0  0  0  0  0  0
    0.6495    7.8750    0.0000 C   0  0  0  0  0  0  0  0  0  0  0  0
   -8.4437    7.1250    0.0000 C   0  0  0  0  0  0  0  0  0  0  0  0
   -0.6495    7.1250    0.0000 C   0  0  0  0  0  0  0  0  0  0  0  0
   -7.1447    7.8750    0.0000 C   0  0  0  0  0  0  0  0  0  0  0  0
   -1.9486    7.8750    0.0000 C   0  0  0  0  0  0  0  0  0  0  0  0
   -5.8457    7.1250    0.0000 C   0  0  0  0  0  0  0  0  0  0  0  0
   -3.2476    7.1250    0.0000 C   0  0  0  0  0  0  0  0  0  0  0  0
   -3.2476    5.6250    0.0000 O   0  0  0  0  0  0  0  0  0  0  0  0
   -4.5466    7.8750    0.0000 O   0  0  0  0  0  0  0  0  0  0  0  0
  3  1  1  0
  4  2  1  0
  5  3  1  0
  6  4  1  0
  7  5  1  0
  8  6  1  0
  9  7  1  0
  8 10  2  0
 11  9  1  0
 12 10  1  0
 13 11  1  0
 14 13  2  0
 15 12  1  0
 15 13  1  0
M  END
>  <NAME>  (775) 
TRANS-2-HEXENYL HEPTANOATE

>  <SYNONYMS>  (775) 


>  <SPECTRUM TYPE>  (775) 
MS1

>  <INSTRUMENT TYPE>  (775) 
EI-B

>  <INSTRUMENT>  (775) 
HITACHI M-80B

>  <ION MODE>  (775) 
P

>  <INCHIKEY>  (775) 
QZZLOJKCWGHIFS-CSKARUKUSA-N

>  <FORMULA>  (775) 
C13H24O2

>  <EXACT MASS>  (775) 
212.177630008

>  <MW>  (775) 
212

>  <ID>  (775) 
JP010891

>  <CONTRIBUTOR>  (775) 
University of Tokyo Team, {Faculty of Engineering, University of Tokyo

>  <COMMENT>  (775) 
SMILES=CCCCCCC(=O)OCC=CCCC
InChI=InChI=1S/C13H24O2/c1-3-5-7-9-11-13(14)15-12-10-8-6-4-2/h8,10H,3-7,9,11-12H2,1-2H3/b10-8+
computed SMILES=O=C(OCC=CCCC)CCCCCC
accession=JP010891
date=2016.01.19 (Created 2008.10.21, modified 2011.05.06)
author=SODA AROMATIC CO., LTD.
license=CC BY-NC-SA
exact mass=212.17763
ionization energy=70 eV
ion type=[M]+*
computed spectral entropy=2.9865810773420476
computed normalized entropy=0.7714869542880237
SPLASH=splash10-01ox-9200000000-47bfa7c8aa95974b8393
submitter=submitter = University of Tokyo Team (Faculty of Engineering, University of Tokyo)
MoNA Rating=3.75

>  <NUM PEAKS>  (775) 
48

>  <MASS SPECTRAL PEAKS>  (775) 
26 1.3
27 19.7
29 20.7
38 1
39 20.1
41 58.8
42 10
43 77.3
44 2
45 1.5
50 1.3
51 1.9
52 1.4
53 6.8
54 13.4
55 51.3
56 6.1
57 18.2
58 1.1
60 3.3
65 2.4
66 1.2
67 42.8
68 3.3
69 6.8
70 2.8
71 1.8
73 1.7
77 1
79 1.8
81 4.6
82 37.6
83 27.4
84 3.1
85 30.3
86 1.8
87 1.7
95 3
99 3.7
100 4
111 2.6
113 99.99
114 6
130 1.2
131 1.7
155 1.6
183 2.1
212 2.5

>  <PREDICTED SPECTRUM>  (775) 
25 21
26 116
27 341
28 148
29 424
31 45
37 22
38 59
39 374
40 127
41 711
42 266
43 576
44 140
45 114
50 39
51 103
52 83
53 197
54 396
55 698
56 249
57 643
58 80
59 28
60 150
61 39
63 3
64 7
65 106
66 92
67 625
68 159
69 190
70 79
71 152
72 113
73 183
74 8
77 47
81 190
82 793
83 595
84 118
85 314
86 111
87 87
95 113
96 10
97 5
100 175
111 83
113 999
114 334
115 47
116 15
130 47
131 181
141 90
183 77
212 129

$$$$

     RDKit          2D

 15 14  0  0  0  0  0  0  0  0999 V2000
    3.8971    6.0000    0.0000 C   0  0  0  0  0  0  0  0  0  0  0  0
  -10.3923    6.7500    0.0000 C   0  0  0  0  0  0  0  0  0  0  0  0
   -6.4952    9.0000    0.0000 C   0  0  0  0  0  0  0  0  0  0  0  0
    2.5981    6.7500    0.0000 C   0  0  0  0  0  0  0  0  0  0  0  0
   -9.0933    6.0000    0.0000 C   0  0  0  0  0  0  0  0  0  0  0  0
   -5.1962    8.2500    0.0000 C   0  0  0  0  0  0  0  0  0  0  0  0
    1.2990    6.0000    0.0000 C   0  0  0  0  0  0  0  0  0  0  0  0
   -7.7942    6.7500    0.0000 C   0  0  0  0  0  0  0  0  0  0  0  0
    0.0000    6.7500    0.0000 C   0  0  0  0  0  0  0  0  0  0  0  0
   -6.4952    6.0000    0.0000 C   0  0  0  0  0  0  0  0  0  0  0  0
   -1.2990    6.0000    0.0000 C   0  0  0  0  0  0  0  0  0  0  0  0
   -5.1962    6.7500    0.0000 C   0  0  0  0  0  0  0  0  0  0  0  0
   -2.5981    6.7500    0.0000 C   0  0  0  0  0  0  0  0  0  0  0  0
   -2.5981    8.2500    0.0000 O   0  0  0  0  0  0  0  0  0  0  0  0
   -3.8971    6.0000    0.0000 O   0  0  0  0  0  0  0  0  0  0  0  0
  4  1  1  0
  5  2  1  0
  6  3  1  0
  7  4  1  0
  8  5  1  0
  9  7  1  0
 10  8  1  0
 11  9  1  0
 12  6  1  0
 12 10  1  0
 13 11  1  0
 14 13  2  0
 15 12  1  0
 15 13  1  0
M  END
>  <NAME>  (776) 
3-HEPTYL HEXANOATE

>  <SYNONYMS>  (776) 


>  <SPECTRUM TYPE>  (776) 
MS1

>  <INSTRUMENT TYPE>  (776) 
EI-B

>  <INSTRUMENT>  (776) 
HITACHI M-80B

>  <ION MODE>  (776) 
P

>  <INCHIKEY>  (776) 
KDHWURFMXQEFPK-UHFFFAOYSA-N

>  <FORMULA>  (776) 
C13H26O2

>  <EXACT MASS>  (776) 
214.193280072

>  <MW>  (776) 
214

>  <ID>  (776) 
JP010890

>  <CONTRIBUTOR>  (776) 
University of Tokyo Team, {Faculty of Engineering, University of Tokyo

>  <COMMENT>  (776) 
SMILES=CCCCCC(=O)OC(CC)CCCC
InChI=InChI=1S/C13H26O2/c1-4-7-9-11-13(14)15-12(6-3)10-8-5-2/h12H,4-11H2,1-3H3
computed SMILES=O=C(OC(CC)CCCC)CCCCC
accession=JP010890
date=2016.01.19 (Created 2008.10.21, modified 2011.05.06)
author=SODA AROMATIC CO., LTD.
license=CC BY-NC-SA
exact mass=214.19328
ionization energy=70 eV
ion type=[M]+*
computed spectral entropy=2.808226943634585
computed normalized entropy=0.8031519721515427
SPLASH=splash10-052e-9000000000-02033563ae86ce8791cb
submitter=submitter = University of Tokyo Team (Faculty of Engineering, University of Tokyo)
MoNA Rating=3.75

>  <NUM PEAKS>  (776) 
33

>  <MASS SPECTRAL PEAKS>  (776) 
27 11.6
29 20.3
31 1.1
39 6.7
41 29.2
42 10
43 41.6
44 1.7
45 1
53 1.6
54 1.6
55 16.7
56 23.2
57 29.1
58 1.7
59 1.7
60 9
61 1.8
69 12.5
70 11.5
71 23.2
72 1.7
73 2.9
83 1.6
87 1.9
98 20.5
99 99.99
100 6.4
115 1.7
116 7.7
117 11.1
157 2.5
185 1.3

>  <PREDICTED SPECTRUM>  (776) 
25 17
26 111
27 379
28 183
29 527
30 21
31 89
37 29
38 67
39 376
40 147
41 606
42 333
43 642
44 184
45 120
50 46
51 101
52 42
53 252
54 212
55 553
56 491
57 734
58 116
59 94
60 280
61 174
63 37
65 35
67 103
68 181
69 495
70 395
71 397
72 181
73 284
74 43
80 20
81 87
82 108
83 216
86 25
87 235
88 21
89 79
97 80
98 517
99 999
100 361
101 41
115 246
116 280
117 315
118 15
185 65
214 68

$$$$

     RDKit          2D

 13 12  0  0  0  0  0  0  0  0999 V2000
    2.9228    5.4375    0.0000 C   0  0  0  0  0  0  0  0  0  0  0  0
   -8.7685    6.1875    0.0000 C   0  0  0  0  0  0  0  0  0  0  0  0
   -7.4695    3.9375    0.0000 C   0  0  0  0  0  0  0  0  0  0  0  0
    0.3248    3.9375    0.0000 C   0  0  0  0  0  0  0  0  0  0  0  0
    1.6238    6.1875    0.0000 C   0  0  0  0  0  0  0  0  0  0  0  0
   -6.1704    6.1875    0.0000 C   0  0  0  0  0  0  0  0  0  0  0  0
   -4.8714    5.4375    0.0000 C   0  0  0  0  0  0  0  0  0  0  0  0
   -0.9743    6.1875    0.0000 C   0  0  0  0  0  0  0  0  0  0  0  0
   -7.4695    5.4375    0.0000 C   0  0  0  0  0  0  0  0  0  0  0  0
    0.3248    5.4375    0.0000 C   0  0  0  0  0  0  0  0  0  0  0  0
   -2.2733    5.4375    0.0000 C   0  0  0  0  0  0  0  0  0  0  0  0
   -2.2733    3.9375    0.0000 O   0  0  0  0  0  0  0  0  0  0  0  0
   -3.5724    6.1875    0.0000 O   0  0  0  0  0  0  0  0  0  0  0  0
  5  1  1  0
  7  6  1  0
  9  2  1  0
  9  3  1  0
  9  6  1  0
 10  4  1  0
 10  5  1  0
 10  8  1  0
 11  8  1  0
 12 11  2  0
 13  7  1  0
 13 11  1  0
M  END
>  <NAME>  (777) 
ISOPENTYL 3-METHYLPENTANOATE

>  <SYNONYMS>  (777) 


>  <SPECTRUM TYPE>  (777) 
MS1

>  <INSTRUMENT TYPE>  (777) 
EI-B

>  <INSTRUMENT>  (777) 
HITACHI M-80B

>  <ION MODE>  (777) 
P

>  <INCHIKEY>  (777) 
JLJJAUHWSQZOJP-UHFFFAOYSA-N

>  <FORMULA>  (777) 
C11H22O2

>  <EXACT MASS>  (777) 
186.161979944

>  <MW>  (777) 
186

>  <ID>  (777) 
JP010889

>  <CONTRIBUTOR>  (777) 
University of Tokyo Team, {Faculty of Engineering, University of Tokyo

>  <COMMENT>  (777) 
SMILES=CCC(C)CC(=O)OCCC(C)C
InChI=InChI=1S/C11H22O2/c1-5-10(4)8-11(12)13-7-6-9(2)3/h9-10H,5-8H2,1-4H3
computed SMILES=O=C(OCCC(C)C)CC(C)CC
accession=JP010889
date=2016.01.19 (Created 2008.10.21, modified 2011.05.06)
author=SODA AROMATIC CO., LTD.
license=CC BY-NC-SA
exact mass=186.16198
ionization energy=70 eV
ion type=[M]+*
computed spectral entropy=2.5364603210369405
computed normalized entropy=0.7611958729698665
SPLASH=splash10-00dl-9000000000-7e07b3ad8b98eb390408
submitter=submitter = University of Tokyo Team (Faculty of Engineering, University of Tokyo)
MoNA Rating=3.75

>  <NUM PEAKS>  (777) 
28

>  <MASS SPECTRAL PEAKS>  (777) 
27 10.6
29 15.9
39 8.7
41 26.8
42 11.8
43 55.9
44 1.8
45 1.5
53 1.9
55 24.9
56 4.6
57 6.6
60 4.8
61 3
69 6
70 99.99
71 52
72 2.8
73 1.7
87 4.6
99 36.6
100 2.6
101 1.3
115 1.6
116 1.1
117 10.3
130 1.2
143 1.4

>  <PREDICTED SPECTRUM>  (777) 
26 39
27 202
28 71
29 258
31 11
39 187
40 84
41 423
42 320
43 644
44 112
45 92
52 1
53 117
54 96
55 459
57 217
58 60
59 53
60 96
61 52
67 8
68 45
69 247
70 999
71 584
72 195
73 173
81 11
83 28
87 145
88 140
97 19
99 654
100 112
101 107
115 68
116 142
117 373
118 121
129 155
130 175
131 128
143 41
171 3

$$$$

     RDKit          2D

 14 13  0  0  0  0  0  0  0  0999 V2000
    2.9228    5.4375    0.0000 C   0  0  0  0  0  0  0  0  0  0  0  0
   -0.9743    3.1875    0.0000 C   0  0  0  0  0  0  0  0  0  0  0  0
   -8.7685    6.1875    0.0000 C   0  0  0  0  0  0  0  0  0  0  0  0
   -7.4695    3.9375    0.0000 C   0  0  0  0  0  0  0  0  0  0  0  0
    1.6238    6.1875    0.0000 C   0  0  0  0  0  0  0  0  0  0  0  0
   -2.2733    3.9375    0.0000 C   0  0  0  0  0  0  0  0  0  0  0  0
    0.3248    5.4375    0.0000 C   0  0  0  0  0  0  0  0  0  0  0  0
   -0.9743    6.1875    0.0000 C   0  0  0  0  0  0  0  0  0  0  0  0
   -6.1704    6.1875    0.0000 C   0  0  0  0  0  0  0  0  0  0  0  0
   -7.4695    5.4375    0.0000 C   0  0  0  0  0  0  0  0  0  0  0  0
   -2.2733    5.4375    0.0000 C   0  0  0  0  0  0  0  0  0  0  0  0
   -4.8714    5.4375    0.0000 C   0  0  0  0  0  0  0  0  0  0  0  0
   -4.8714    3.9375    0.0000 O   0  0  0  0  0  0  0  0  0  0  0  0
   -3.5724    6.1875    0.0000 O   0  0  0  0  0  0  0  0  0  0  0  0
  5  1  1  0
  6  2  1  0
  7  5  1  0
  8  7  1  0
 10  3  1  0
 10  4  1  0
 10  9  1  0
 11  6  1  0
 11  8  1  0
 12  9  1  0
 13 12  2  0
 14 11  1  0
 14 12  1  0
M  END
>  <NAME>  (778) 
3-HEPTYL ISOVALERATE

>  <SYNONYMS>  (778) 


>  <SPECTRUM TYPE>  (778) 
MS1

>  <INSTRUMENT TYPE>  (778) 
EI-B

>  <INSTRUMENT>  (778) 
HITACHI M-80B

>  <ION MODE>  (778) 
P

>  <INCHIKEY>  (778) 
XYLAGPURFZASEK-UHFFFAOYSA-N

>  <FORMULA>  (778) 
C12H24O2

>  <EXACT MASS>  (778) 
200.177630008

>  <MW>  (778) 
200

>  <ID>  (778) 
JP010888

>  <CONTRIBUTOR>  (778) 
University of Tokyo Team, {Faculty of Engineering, University of Tokyo

>  <COMMENT>  (778) 
SMILES=CCCCC(CC)OC(=O)CC(C)C
InChI=InChI=1S/C12H24O2/c1-5-7-8-11(6-2)14-12(13)9-10(3)4/h10-11H,5-9H2,1-4H3
computed SMILES=O=C(OC(CC)CCCC)CC(C)C
accession=JP010888
date=2016.01.19 (Created 2008.10.21, modified 2011.05.06)
author=SODA AROMATIC CO., LTD.
license=CC BY-NC-SA
exact mass=200.17763
ionization energy=70 eV
ion type=[M]+*
computed spectral entropy=2.5875811607147527
computed normalized entropy=0.7684448564547851
SPLASH=splash10-052r-9000000000-6249779dddc6def952c3
submitter=submitter = University of Tokyo Team (Faculty of Engineering, University of Tokyo)
MoNA Rating=3.75

>  <NUM PEAKS>  (778) 
29

>  <MASS SPECTRAL PEAKS>  (778) 
27 8.1
29 16.1
39 6.7
41 26.5
42 6.5
43 14.6
44 1.1
53 1.1
54 1.1
55 10.4
56 15.1
57 62.9
58 3
59 2.5
60 6.9
61 1.2
69 8.7
70 7.2
83 1.2
85 99.99
86 5.8
87 4.5
98 14.9
99 1.7
102 7.3
103 9.3
115 1.3
143 4.5
171 1.8

>  <PREDICTED SPECTRUM>  (778) 
26 60
27 272
28 118
29 366
30 12
31 33
38 2
39 254
40 74
41 475
42 212
43 333
44 67
45 97
52 9
53 131
54 140
55 329
56 369
57 866
58 231
59 176
60 172
61 46
66 1
67 100
68 124
69 296
70 245
71 144
73 160
74 4
75 1
81 64
83 159
85 999
86 224
87 227
97 82
98 499
99 195
100 79
101 83
102 173
103 429
113 3
115 80
143 220

$$$$

     RDKit          2D

 12 11  0  0  0  0  0  0  0  0999 V2000
    0.9510    3.3481    0.0000 C   0  0  0  0  0  0  0  0  0  0  0  0
    1.7010   -0.9510    0.0000 C   0  0  0  0  0  0  0  0  0  0  0  0
    0.2010    1.6471    0.0000 C   0  0  0  0  0  0  0  0  0  0  0  0
   -0.3481   -0.4019    0.0000 C   0  0  0  0  0  0  0  0  0  0  0  0
    4.8481    7.0981    0.0000 C   0  0  0  0  0  0  0  0  0  0  0  0
    3.5490    3.3481    0.0000 C   0  0  0  0  0  0  0  0  0  0  0  0
    2.2500    1.0981    0.0000 C   0  0  0  0  0  0  0  0  0  0  0  0
    2.2500    2.5981    0.0000 C   0  0  0  0  0  0  0  0  0  0  0  0
    3.5490    4.8481    0.0000 C   0  0  0  0  0  0  0  0  0  0  0  0
    0.9510    0.3481    0.0000 C   0  0  0  0  0  0  0  0  0  0  0  0
    2.2500    5.5981    0.0000 O   0  0  0  0  0  0  0  0  0  0  0  0
    4.8481    5.5981    0.0000 O   0  0  0  0  0  0  0  0  0  0  0  0
  8  1  1  0
  8  6  1  0
  8  7  1  0
  9  6  1  0
 10  2  1  0
 10  3  1  0
 10  4  1  0
 10  7  1  0
 11  9  2  0
 12  5  1  0
 12  9  1  0
M  END
>  <NAME>  (779) 
METHYL 3,5,5-TRIMETHYLHEXANOATE

>  <SYNONYMS>  (779) 


>  <SPECTRUM TYPE>  (779) 
MS1

>  <INSTRUMENT TYPE>  (779) 
EI-B

>  <INSTRUMENT>  (779) 
HITACHI M-80B

>  <ION MODE>  (779) 
P

>  <INCHIKEY>  (779) 
DCPCIGBOUDWJEZ-UHFFFAOYSA-N

>  <FORMULA>  (779) 
C10H20O2

>  <EXACT MASS>  (779) 
172.14632988

>  <MW>  (779) 
172

>  <ID>  (779) 
JP010887

>  <CONTRIBUTOR>  (779) 
University of Tokyo Team, {Faculty of Engineering, University of Tokyo

>  <COMMENT>  (779) 
SMILES=COC(=O)CC(C)CC(C)(C)C
InChI=InChI=1S/C10H20O2/c1-8(6-9(11)12-5)7-10(2,3)4/h8H,6-7H2,1-5H3
computed SMILES=O=C(OC)CC(C)CC(C)(C)C
accession=JP010887
date=2016.01.19 (Created 2008.10.21, modified 2011.05.06)
author=SODA AROMATIC CO., LTD.
license=CC BY-NC-SA
exact mass=172.14633
ionization energy=70 eV
ion type=[M]+*
computed spectral entropy=2.8950599637831473
computed normalized entropy=0.8142831345098581
SPLASH=splash10-0abc-9100000000-8a0d2c080c1632620530
submitter=submitter = University of Tokyo Team (Faculty of Engineering, University of Tokyo)
MoNA Rating=3.75

>  <NUM PEAKS>  (779) 
35

>  <MASS SPECTRAL PEAKS>  (779) 
15 6.6
27 7.6
29 16.1
31 1.5
39 11.7
41 40.5
42 6.6
43 17.4
45 1.1
53 2.8
55 20.6
56 16.1
57 79.1
58 3.2
59 14.9
67 1.7
69 7.8
71 3
73 10.1
74 99.99
75 4.6
81 1.1
83 52.4
84 3.1
97 8.2
98 1.6
99 2.7
101 2.5
115 10.8
116 26.2
117 15.7
118 1.1
125 10.6
141 10.1
157 8.8

>  <PREDICTED SPECTRUM>  (779) 
15 67
27 123
29 261
30 101
31 37
38 2
39 240
40 121
41 536
42 224
43 320
44 22
45 79
46 30
47 30
48 32
51 6
52 50
53 135
54 62
55 469
56 506
57 999
58 194
59 382
60 51
65 71
67 92
68 37
69 214
70 50
71 191
73 179
74 865
75 372
76 179
77 26
81 91
82 92
83 717
84 150
87 33
96 34
97 332
98 131
99 117
100 12
101 228
115 483
116 523
117 430
118 58
123 109
125 232
141 350
157 255
158 28
172 151
173 16

$$$$

     RDKit          2D

 13 12  0  0  0  0  0  0  0  0999 V2000
    2.8358    5.3873    0.0000 C   0  0  0  0  0  0  0  0  0  0  0  0
   -8.3065    6.6863    0.0000 C   0  0  0  0  0  0  0  0  0  0  0  0
   -8.8555    4.6373    0.0000 C   0  0  0  0  0  0  0  0  0  0  0  0
   -6.8065    4.0882    0.0000 C   0  0  0  0  0  0  0  0  0  0  0  0
    1.5368    6.1373    0.0000 C   0  0  0  0  0  0  0  0  0  0  0  0
    0.2377    5.3873    0.0000 C   0  0  0  0  0  0  0  0  0  0  0  0
   -1.0613    6.1373    0.0000 C   0  0  0  0  0  0  0  0  0  0  0  0
   -2.3603    5.3873    0.0000 C   0  0  0  0  0  0  0  0  0  0  0  0
   -3.6594    6.1373    0.0000 C   0  0  0  0  0  0  0  0  0  0  0  0
   -6.2575    6.1373    0.0000 C   0  0  0  0  0  0  0  0  0  0  0  0
   -7.5565    5.3873    0.0000 C   0  0  0  0  0  0  0  0  0  0  0  0
   -6.2575    7.6373    0.0000 O   0  0  0  0  0  0  0  0  0  0  0  0
   -4.9584    5.3873    0.0000 O   0  0  0  0  0  0  0  0  0  0  0  0
  5  1  1  0
  6  5  1  0
  7  6  1  0
  8  7  1  0
  9  8  1  0
 11  2  1  0
 11  3  1  0
 11  4  1  0
 11 10  1  0
 12 10  2  0
 13  9  1  0
 13 10  1  0
M  END
>  <NAME>  (780) 
HEXYL PIVALATE

>  <SYNONYMS>  (780) 


>  <SPECTRUM TYPE>  (780) 
MS1

>  <INSTRUMENT TYPE>  (780) 
EI-B

>  <INSTRUMENT>  (780) 
HITACHI M-80B

>  <ION MODE>  (780) 
P

>  <INCHIKEY>  (780) 
RQSINLZXJXXKOH-UHFFFAOYSA-N

>  <FORMULA>  (780) 
C11H22O2

>  <EXACT MASS>  (780) 
186.161979944

>  <MW>  (780) 
186

>  <ID>  (780) 
JP010886

>  <CONTRIBUTOR>  (780) 
University of Tokyo Team, {Faculty of Engineering, University of Tokyo

>  <COMMENT>  (780) 
SMILES=CCCCCCOC(=O)C(C)(C)C
InChI=InChI=1S/C11H22O2/c1-5-6-7-8-9-13-10(12)11(2,3)4/h5-9H2,1-4H3
computed SMILES=O=C(OCCCCCC)C(C)(C)C
accession=JP010886
date=2016.01.19 (Created 2008.10.21, modified 2011.05.06)
author=SODA AROMATIC CO., LTD.
license=CC BY-NC-SA
exact mass=186.16198
ionization energy=70 eV
ion type=[M]+*
computed spectral entropy=2.385832056727897
computed normalized entropy=0.7836473882294429
SPLASH=splash10-0a4l-9100000000-1bf7cda0d10a9e22fa0d
submitter=submitter = University of Tokyo Team (Faculty of Engineering, University of Tokyo)
MoNA Rating=3.75

>  <NUM PEAKS>  (780) 
21

>  <MASS SPECTRAL PEAKS>  (780) 
27 7.5
29 16.6
39 7.5
41 32.9
42 9.1
43 32.1
55 8.5
56 20.9
57 99.99
58 4.7
59 3.5
69 4.5
70 1.5
71 1.2
83 1.3
84 15.5
85 19.7
86 1.1
87 2.4
103 41
104 2.1

>  <PREDICTED SPECTRUM>  (780) 
26 44
27 268
28 79
29 429
31 49
38 31
39 321
40 130
41 622
42 291
43 513
44 140
45 71
51 55
52 40
53 149
54 116
55 447
56 569
57 999
58 176
59 217
60 68
61 41
66 10
67 135
68 143
69 299
70 309
71 171
73 18
82 66
83 149
84 577
85 447
86 110
87 136
88 33
101 5
102 23
103 727
104 75
129 136

$$$$

     RDKit          2D

 16 16  0  0  0  0  0  0  0  0999 V2000
    0.1000   -0.7200    0.0000 C   0  0  0  0  0  0  0  0  0  0  0  0
   -1.4000   -0.7200    0.0000 C   0  0  0  0  0  0  0  0  0  0  0  0
    0.8500    0.5800    0.0000 C   0  0  0  0  0  0  0  0  0  0  0  0
   -2.1500    0.5800    0.0000 C   0  0  0  0  0  0  0  0  0  0  0  0
    2.3500    0.5800    0.0000 C   0  0  0  0  0  0  0  0  0  0  0  0
   -3.6500    0.5800    0.0000 C   0  0  0  0  0  0  0  0  0  0  0  0
    3.1000    1.8700    0.0000 C   0  0  0  0  0  0  0  0  0  0  0  0
   -4.4000    1.8800    0.0000 C   0  0  0  0  0  0  0  0  0  0  0  0
    0.1000    4.4700    0.0000 C   0  0  0  0  0  0  0  0  0  0  0  0
   -1.4000    4.4700    0.0000 C   0  0  0  0  0  0  0  0  0  0  0  0
    2.3500    3.1700    0.0000 C   0  0  0  0  0  0  0  0  0  0  0  0
   -3.6500    3.1700    0.0000 C   0  0  0  0  0  0  0  0  0  0  0  0
    3.1002    4.4689    0.0000 O   0  0  0  0  0  0  0  0  0  0  0  0
   -4.3980    4.4702    0.0000 O   0  0  0  0  0  0  0  0  0  0  0  0
    0.8500    3.1700    0.0000 O   0  0  0  0  0  0  0  0  0  0  0  0
   -2.1500    3.1700    0.0000 O   0  0  0  0  0  0  0  0  0  0  0  0
  2  1  1  0
  3  1  1  0
  4  2  1  0
  5  3  1  0
  6  4  1  0
  7  5  1  0
  8  6  1  0
 10  9  1  0
 11  7  1  0
 12  8  1  0
 13 11  2  0
 14 12  2  0
 15  9  1  0
 15 11  1  0
 16 10  1  0
 16 12  1  0
M  END
>  <NAME>  (781) 
ETHYLENE SEBACATE

>  <SYNONYMS>  (781) 


>  <SPECTRUM TYPE>  (781) 
MS1

>  <INSTRUMENT TYPE>  (781) 
EI-B

>  <INSTRUMENT>  (781) 
HITACHI M-80B

>  <ION MODE>  (781) 
P

>  <INCHIKEY>  (781) 
XFQHIELVPOKJIM-UHFFFAOYSA-N

>  <FORMULA>  (781) 
C12H20O4

>  <EXACT MASS>  (781) 
228.13615912

>  <MW>  (781) 
228

>  <ID>  (781) 
JP010885

>  <CONTRIBUTOR>  (781) 
University of Tokyo Team, {Faculty of Engineering, University of Tokyo

>  <COMMENT>  (781) 
SMILES=O=C(C1)OCCOC(=O)CCCCCCC1
InChI=InChI=1S/C12H20O4/c13-11-7-5-3-1-2-4-6-8-12(14)16-10-9-15-11/h1-10H2
computed SMILES=O=C1OCCOC(=O)CCCCCCCC1
accession=JP010885
date=2016.01.19 (Created 2008.10.21, modified 2011.05.06)
author=SODA AROMATIC CO., LTD.
license=CC BY-NC-SA
exact mass=228.13616
ionization energy=70 eV
ion type=[M]+*
computed spectral entropy=3.795268948442321
computed normalized entropy=0.8434287728804686
SPLASH=splash10-052p-9300000000-c896368a6b987859316c
submitter=submitter = University of Tokyo Team (Faculty of Engineering, University of Tokyo)
MoNA Rating=3.75

>  <NUM PEAKS>  (781) 
90

>  <MASS SPECTRAL PEAKS>  (781) 
14 1.5
15 3.6
26 2.1
27 26.3
29 22.4
30 1.3
31 3.2
39 22.9
41 79.6
42 36.9
43 30.6
44 4.5
45 14
51 1.2
53 6.9
54 10.4
55 95.6
56 20.3
57 6.8
58 2.4
59 2.4
60 4.7
61 3.8
65 1.2
66 1.1
67 15
68 13.2
69 28.8
70 7.6
71 4.4
73 3.9
74 1.8
77 1.2
79 6.6
80 7.3
81 15.8
82 7.8
83 21.3
84 39.2
85 3.5
86 35.5
87 5.8
91 1.3
93 3.8
94 5.3
95 10.3
96 11.7
97 26.1
98 99.99
99 28.2
100 3.4
101 5.1
104 5.6
105 1.2
106 1.4
107 4.3
109 3.5
110 9.4
111 14.7
112 14.9
113 3.4
117 2.1
119 1.3
120 2.8
121 8.8
122 3.1
123 2.3
124 5.7
125 8
126 1.1
127 1.8
131 3.3
137 2.5
138 34.7
139 14.4
140 2.7
141 1.5
145 14
146 1.2
148 4.5
149 1.2
155 1.5
166 45.9
167 6.4
168 5.5
169 7.6
170 1.1
185 68.4
186 6.9
210 4.5

>  <PREDICTED SPECTRUM>  (781) 
15 37
16 0
17 6
26 131
27 398
28 207
29 422
30 58
31 147
36 43
37 23
38 68
39 417
40 237
41 873
42 661
43 646
44 295
45 308
50 35
51 73
52 87
53 278
54 494
55 999
56 594
57 376
58 182
59 133
60 207
61 97
62 9
63 37
65 114
66 177
67 472
68 443
69 569
70 381
71 234
72 114
73 333
74 109
75 71
76 17
77 103
78 33
79 187
80 211
81 421
82 416
83 496
84 565
85 259
86 279
87 161
88 79
91 52
92 6
93 135
94 187
95 253
96 355
97 417
98 841
99 664
100 303
101 258
102 76
103 90
104 79
105 102
106 16
107 130
108 88
109 254
110 188
111 293
112 229
113 246
114 121
115 113
116 42
117 49
119 107
120 88
121 154
122 166
123 151
124 218
125 306
126 262
127 255
128 228
129 298
130 130
131 95
132 28
133 84
136 34
137 130
138 382
139 219
140 166
141 140
142 140
143 137
144 56
145 76
146 47
147 62
148 70
149 124
150 121
151 83
152 29
153 114
154 74
155 175
156 142
157 148
158 74
159 11
160 51
165 63
166 537
167 241
168 249
169 277
170 113
171 78
172 6
173 50
174 42
181 24
182 29
183 60
184 86
185 845
186 298
187 100
188 13
192 17
198 22
199 148
200 70
210 151
211 58
228 127
229 21

$$$$

     RDKit          2D

 14 14  0  0  0  0  0  0  0  0999 V2000
   -4.5454    4.1333    0.0000 C   0  0  0  0  0  0  0  0  0  0  0  0
   -3.2427    4.8769    0.0000 C   0  0  0  0  0  0  0  0  0  0  0  0
   -1.9474    4.1205    0.0000 C   0  0  0  0  0  0  0  0  0  0  0  0
    4.5477    4.8450    0.0000 C   0  0  0  0  0  0  0  0  0  0  0  0
    3.2342    2.6201    0.0000 C   0  0  0  0  0  0  0  0  0  0  0  0
    5.8323    4.1201    0.0000 C   0  0  0  0  0  0  0  0  0  0  0  0
    4.5587    1.8260    0.0000 C   0  0  0  0  0  0  0  0  0  0  0  0
   -0.6447    4.8641    0.0000 C   0  0  0  0  0  0  0  0  0  0  0  0
    3.2487    4.0950    0.0000 C   0  0  0  0  0  0  0  0  0  0  0  0
    5.8577    2.5760    0.0000 C   0  0  0  0  0  0  0  0  0  0  0  0
    1.9534    4.8513    0.0000 C   0  0  0  0  0  0  0  0  0  0  0  0
    7.1629    1.8367    0.0000 O   0  0  0  0  0  0  0  0  0  0  0  0
    1.9608    6.3513    0.0000 O   0  0  0  0  0  0  0  0  0  0  0  0
    0.6507    4.1078    0.0000 O   0  0  0  0  0  0  0  0  0  0  0  0
  2  1  1  0
  3  2  1  0
  6  4  2  0
  7  5  1  0
  8  3  1  0
  9  4  1  0
  9  5  2  0
 10  6  1  0
 10  7  2  0
 11  9  1  0
 12 10  1  0
 13 11  2  0
 14  8  1  0
 14 11  1  0
M  END
>  <NAME>  (782) 
BUTYL 4-HYDROXYBENZOATE

>  <SYNONYMS>  (782) 


>  <SPECTRUM TYPE>  (782) 
MS1

>  <INSTRUMENT TYPE>  (782) 
EI-B

>  <INSTRUMENT>  (782) 
HITACHI M-80B

>  <ION MODE>  (782) 
P

>  <INCHIKEY>  (782) 
QFOHBWFCKVYLES-UHFFFAOYSA-N

>  <FORMULA>  (782) 
C11H14O3

>  <EXACT MASS>  (782) 
194.09429430799997

>  <MW>  (782) 
194

>  <ID>  (782) 
JP010884

>  <CONTRIBUTOR>  (782) 
University of Tokyo Team, {Faculty of Engineering, University of Tokyo

>  <COMMENT>  (782) 
SMILES=CCCCOC(=O)c(c1)ccc(O)c1
InChI=InChI=1S/C11H14O3/c1-2-3-8-14-11(13)9-4-6-10(12)7-5-9/h4-7,12H,2-3,8H2,1H3
computed SMILES=O=C(OCCCC)C1=CC=C(O)C=C1
accession=JP010884
date=2016.01.19 (Created 2008.10.21, modified 2011.05.06)
author=SODA AROMATIC CO., LTD.
license=CC BY-NC-SA
exact mass=194.09429
ionization energy=70 eV
ion type=[M]+*
computed spectral entropy=2.105482771898993
computed normalized entropy=0.6541050001471255
SPLASH=splash10-0079-3900000000-3c58d2a06f7053d6232c
submitter=submitter = University of Tokyo Team (Faculty of Engineering, University of Tokyo)
MoNA Rating=3.75

>  <NUM PEAKS>  (782) 
25

>  <MASS SPECTRAL PEAKS>  (782) 
27 4.5
29 4
38 1.1
39 10.1
41 5.3
43 1.1
53 2
55 1.6
56 3.2
63 3.1
64 2.5
65 19.1
66 1.7
92 2.8
93 11.1
94 1.6
95 1.3
120 1.5
121 99.99
122 8.3
138 84
139 12.6
140 1.3
151 1
194 6.5

>  <PREDICTED SPECTRUM>  (782) 
26 41
27 173
28 53
29 276
37 39
38 92
39 260
40 75
41 303
42 48
49 28
50 113
51 94
52 34
53 150
54 4
55 137
56 332
57 47
60 2
61 3
62 98
63 199
64 170
65 489
66 146
67 21
73 83
74 50
75 68
76 94
77 64
78 5
79 48
81 92
82 66
91 88
92 117
93 504
94 163
95 131
104 43
105 29
109 37
110 72
111 84
120 12
121 999
122 396
123 70
137 58
138 884
139 486
140 63
151 99
152 122
165 20
194 242
195 104

$$$$

     RDKit          2D

 23 22  0  0  1  0  0  0  0  0999 V2000
    0.0000    4.5000    0.0000 C   0  0  0  0  0  0  0  0  0  0  0  0
  -20.7846   13.5000    0.0000 C   0  0  0  0  0  0  0  0  0  0  0  0
   -1.2990    5.2500    0.0000 C   0  0  0  0  0  0  0  0  0  0  0  0
  -19.4856   14.2500    0.0000 C   0  0  0  0  0  0  0  0  0  0  0  0
   -1.2990    6.7500    0.0000 C   0  0  0  0  0  0  0  0  0  0  0  0
   -2.5981    7.5000    0.0000 C   0  0  0  0  0  0  0  0  0  0  0  0
   -9.0933   14.2500    0.0000 C   0  0  0  0  0  0  0  0  0  0  0  0
  -10.3923   13.5000    0.0000 C   0  0  0  0  0  0  0  0  0  0  0  0
   -7.7942   13.5000    0.0000 C   0  0  0  0  0  0  0  0  0  0  0  0
  -11.6913   14.2500    0.0000 C   0  0  0  0  0  0  0  0  0  0  0  0
   -6.4952   14.2500    0.0000 C   0  0  0  0  0  0  0  0  0  0  0  0
  -12.9904   13.5000    0.0000 C   0  0  0  0  0  0  0  0  0  0  0  0
   -2.5981    9.0000    0.0000 C   0  0  0  0  0  0  0  0  0  0  0  0
   -5.1962   13.5000    0.0000 C   0  0  0  0  0  0  0  0  0  0  0  0
  -14.2894   14.2500    0.0000 C   0  0  0  0  0  0  0  0  0  0  0  0
   -3.8971    9.7500    0.0000 C   0  0  0  0  0  0  0  0  0  0  0  0
   -5.1962   12.0000    0.0000 C   0  0  0  0  0  0  0  0  0  0  0  0
  -15.5885   13.5000    0.0000 C   0  0  0  0  0  0  0  0  0  0  0  0
   -3.8971   11.2500    0.0000 C   0  0  0  0  0  0  0  0  0  0  0  0
  -16.8875   14.2500    0.0000 C   0  0  0  0  0  0  0  0  0  0  0  0
   -2.5981   12.0000    0.0000 O   0  0  0  0  0  0  0  0  0  0  0  0
  -16.8875   15.7500    0.0000 O   0  0  0  0  0  0  0  0  0  0  0  0
  -18.1865   13.5000    0.0000 O   0  0  0  0  0  0  0  0  0  0  0  0
  3  1  1  0
  4  2  1  0
  5  3  1  0
  6  5  1  0
  8  7  1  0
  9  7  1  0
 10  8  1  0
 11  9  1  0
 12 10  1  0
 13  6  1  0
 11 14  2  0
 15 12  1  0
 16 13  1  0
 17 14  1  0
 18 15  1  0
 19 16  1  0
 19 17  1  0
 20 18  1  0
 19 21  1  6
 22 20  2  0
 23  4  1  0
 23 20  1  0
M  END
>  <NAME>  (783) 
ETHYL RICINOLEATE

>  <SYNONYMS>  (783) 


>  <SPECTRUM TYPE>  (783) 
MS1

>  <INSTRUMENT TYPE>  (783) 
EI-B

>  <INSTRUMENT>  (783) 
HITACHI M-80B

>  <ION MODE>  (783) 
P

>  <INCHIKEY>  (783) 
AZXVZUBIFYQWJK-KWRJMZDGSA-N

>  <FORMULA>  (783) 
C20H38O3

>  <EXACT MASS>  (783) 
326.28209507599996

>  <MW>  (783) 
326

>  <ID>  (783) 
JP010883

>  <CONTRIBUTOR>  (783) 
University of Tokyo Team, {Faculty of Engineering, University of Tokyo

>  <COMMENT>  (783) 
SMILES=CCCCCCC(O)CC=CCCCCCCCC(=O)OCC
InChI=InChI=1S/C20H38O3/c1-3-5-6-13-16-19(21)17-14-11-9-7-8-10-12-15-18-20(22)23-4-2/h11,14,19,21H,3-10,12-13,15-18H2,1-2H3/b14-11-/t19-/m1/s1
computed SMILES=O=C(OCC)CCCCCCCC=CCC(O)CCCCCC
accession=JP010883
date=2016.01.19 (Created 2008.10.21, modified 2011.05.06)
author=SODA AROMATIC CO., LTD.
license=CC BY-NC-SA
exact mass=326.2821
ionization energy=70 eV
ion type=[M]+*
computed spectral entropy=3.7602431768491384
computed normalized entropy=0.8398392465560715
SPLASH=splash10-0aov-9200000000-7ce562b708e994be2a83
submitter=submitter = University of Tokyo Team (Faculty of Engineering, University of Tokyo)
MoNA Rating=3.75

>  <NUM PEAKS>  (783) 
88

>  <MASS SPECTRAL PEAKS>  (783) 
27 9.7
29 29.1
31 3.1
39 5.4
41 38.4
42 5.4
43 35.6
44 3
45 5.3
53 4.1
54 17.3
55 99.99
56 7.6
57 12
58 1.1
59 1.6
60 5.3
61 4.1
65 1.2
66 1.2
67 21.7
68 13.7
69 34.9
70 7.8
71 5.2
73 6.8
77 1.3
79 4.9
80 3
81 19.9
82 19.3
83 21.4
84 32.4
85 4.6
87 2
88 35
89 2.9
91 1.4
93 3
94 3.7
95 11.7
96 29.5
97 31.9
98 24.6
99 2.3
101 20.5
102 1.9
107 1.6
108 1.7
109 5.1
110 6.5
111 5.7
112 1.6
113 2.3
114 1
115 5.9
116 1.1
119 2.4
121 1.9
122 4.9
123 11.7
124 27.8
125 6
127 1.5
128 2.1
129 2.5
130 1
133 1.2
139 1
141 1.5
142 2
143 1.4
147 1.5
148 3.8
149 1.3
150 1.1
151 1.7
155 2.8
157 1.1
165 1.5
166 30.2
167 3.7
169 1.5
183 1.1
195 2.2
212 6.9
213 1.3
263 1.1

>  <PREDICTED SPECTRUM>  (783) 
26 60
27 246
28 94
29 396
30 90
31 150
39 190
40 61
41 663
42 329
43 610
44 206
45 253
46 19
47 20
51 29
52 36
53 244
54 409
55 999
56 355
57 337
58 114
59 160
60 360
61 305
62 32
63 4
64 16
65 125
66 109
67 606
68 459
69 705
70 457
71 334
72 68
73 438
74 68
75 35
77 138
78 73
79 286
80 189
81 468
82 473
83 628
84 559
85 219
86 131
87 213
88 723
89 181
90 34
91 108
92 36
93 176
94 230
95 515
96 565
97 637
98 621
99 202
100 96
101 574
102 229
103 44
104 4
105 100
106 53
107 193
108 192
109 358
110 313
111 312
112 152
113 137
114 180
115 261
116 112
117 13
119 92
120 97
121 277
122 301
123 367
124 514
125 355
126 167
127 141
128 93
129 113
130 143
131 91
132 23
133 105
134 99
135 159
136 88
137 272
138 177
139 180
140 119
141 167
142 139
143 35
144 38
147 53
148 237
149 175
150 106
151 197
152 138
153 81
155 168
156 110
157 71
159 12
163 62
164 127
165 244
166 816
167 253
169 72
170 1
171 81
175 4
176 8
177 2
179 17
183 141
184 54
187 3
193 86
194 52
195 201
196 27
197 7
198 66
199 12
211 30
212 202
213 213
214 2
221 85
222 30
227 16
238 63
239 70
262 92
263 114
264 66
265 24
290 6
308 40

$$$$

     RDKit          2D

 22 21  0  0  1  0  0  0  0  0999 V2000
    0.0000    3.7500    0.0000 C   0  0  0  0  0  0  0  0  0  0  0  0
  -19.4856   13.5000    0.0000 C   0  0  0  0  0  0  0  0  0  0  0  0
   -1.2990    4.5000    0.0000 C   0  0  0  0  0  0  0  0  0  0  0  0
   -1.2990    6.0000    0.0000 C   0  0  0  0  0  0  0  0  0  0  0  0
   -2.5981    6.7500    0.0000 C   0  0  0  0  0  0  0  0  0  0  0  0
   -9.0933   13.5000    0.0000 C   0  0  0  0  0  0  0  0  0  0  0  0
  -10.3923   12.7500    0.0000 C   0  0  0  0  0  0  0  0  0  0  0  0
   -7.7942   12.7500    0.0000 C   0  0  0  0  0  0  0  0  0  0  0  0
  -11.6913   13.5000    0.0000 C   0  0  0  0  0  0  0  0  0  0  0  0
   -6.4952   13.5000    0.0000 C   0  0  0  0  0  0  0  0  0  0  0  0
  -12.9904   12.7500    0.0000 C   0  0  0  0  0  0  0  0  0  0  0  0
   -2.5981    8.2500    0.0000 C   0  0  0  0  0  0  0  0  0  0  0  0
   -5.1962   12.7500    0.0000 C   0  0  0  0  0  0  0  0  0  0  0  0
  -14.2894   13.5000    0.0000 C   0  0  0  0  0  0  0  0  0  0  0  0
   -3.8971    9.0000    0.0000 C   0  0  0  0  0  0  0  0  0  0  0  0
   -5.1962   11.2500    0.0000 C   0  0  0  0  0  0  0  0  0  0  0  0
  -15.5885   12.7500    0.0000 C   0  0  0  0  0  0  0  0  0  0  0  0
   -3.8971   10.5000    0.0000 C   0  0  0  0  0  0  0  0  0  0  0  0
  -16.8875   13.5000    0.0000 C   0  0  0  0  0  0  0  0  0  0  0  0
   -2.5981   11.2500    0.0000 O   0  0  0  0  0  0  0  0  0  0  0  0
  -16.8875   15.0000    0.0000 O   0  0  0  0  0  0  0  0  0  0  0  0
  -18.1865   12.7500    0.0000 O   0  0  0  0  0  0  0  0  0  0  0  0
  3  1  1  0
  4  3  1  0
  5  4  1  0
  7  6  1  0
  8  6  1  0
  9  7  1  0
 10  8  1  0
 11  9  1  0
 12  5  1  0
 10 13  2  0
 14 11  1  0
 15 12  1  0
 16 13  1  0
 17 14  1  0
 18 15  1  0
 18 16  1  0
 19 17  1  0
 18 20  1  6
 21 19  2  0
 22  2  1  0
 22 19  1  0
M  END
>  <NAME>  (784) 
METHYL RICINOLEATE

>  <SYNONYMS>  (784) 


>  <SPECTRUM TYPE>  (784) 
MS1

>  <INSTRUMENT TYPE>  (784) 
EI-B

>  <INSTRUMENT>  (784) 
HITACHI M-80B

>  <ION MODE>  (784) 
P

>  <INCHIKEY>  (784) 
XKGDWZQXVZSXAO-ADYSOMBNSA-N

>  <FORMULA>  (784) 
C19H36O3

>  <EXACT MASS>  (784) 
312.26644501199996

>  <MW>  (784) 
312

>  <ID>  (784) 
JP010882

>  <CONTRIBUTOR>  (784) 
University of Tokyo Team, {Faculty of Engineering, University of Tokyo

>  <COMMENT>  (784) 
SMILES=CCCCCCC(O)CC=CCCCCCCCC(=O)OC
InChI=InChI=1S/C19H36O3/c1-3-4-5-12-15-18(20)16-13-10-8-6-7-9-11-14-17-19(21)22-2/h10,13,18,20H,3-9,11-12,14-17H2,1-2H3/b13-10-/t18-/m1/s1
computed SMILES=O=C(OC)CCCCCCCC=CCC(O)CCCCCC
accession=JP010882
date=2016.01.19 (Created 2008.10.21, modified 2011.05.06)
author=SODA AROMATIC CO., LTD.
license=CC BY-NC-SA
exact mass=312.26645
ionization energy=70 eV
ion type=[M]+*
computed spectral entropy=3.704135445882636
computed normalized entropy=0.8553136743436005
SPLASH=splash10-0aov-9200000000-8e63ce35708c1571309d
submitter=submitter = University of Tokyo Team (Faculty of Engineering, University of Tokyo)
MoNA Rating=3.75

>  <NUM PEAKS>  (784) 
76

>  <MASS SPECTRAL PEAKS>  (784) 
15 3.1
27 8.1
29 15.4
31 3.2
39 7.4
41 41.1
42 6.7
43 36.2
44 4
45 2.8
53 4.1
54 15.3
55 99.99
56 8.5
57 11.4
59 12.2
65 1.1
66 1.1
67 20.8
68 14.5
69 32.5
70 4.1
71 5.2
73 2.4
74 40.6
75 3
77 1.4
79 4.7
80 2.7
81 17.4
82 20.6
83 20.2
84 34.6
85 5.2
87 23.7
88 2.1
91 1.4
93 2.7
94 3.3
95 10.2
96 30.9
97 30.9
98 29.3
99 2.5
101 3.7
107 1.6
108 1.8
109 4.5
110 9.3
111 6.3
112 1.6
113 2.9
114 2.9
115 7.6
116 1.3
119 2.3
121 1.1
122 6.8
123 11.5
124 28.3
125 7.5
127 1.3
128 2.9
129 1.3
137 7.7
138 3.4
141 2.2
148 4.1
149 1.3
151 1
155 1.5
166 33.3
167 3.8
195 2.2
198 8.1
199 1.2

>  <PREDICTED SPECTRUM>  (784) 
17 6
26 49
27 227
28 133
29 324
30 78
31 135
32 7
38 4
39 246
40 87
41 702
42 313
43 705
44 160
45 214
46 17
50 21
51 68
52 55
53 268
54 508
55 999
56 466
57 425
58 110
59 254
60 111
61 100
62 17
63 9
65 160
66 164
67 673
68 523
69 786
70 406
71 270
72 75
73 211
74 539
75 132
76 31
77 167
78 95
79 380
80 310
81 604
82 583
83 645
84 569
85 325
86 83
87 586
88 296
89 25
91 185
92 83
93 298
94 333
95 580
96 604
97 574
98 690
99 217
100 135
101 202
102 103
103 2
105 86
106 63
107 221
108 210
109 413
110 445
111 361
112 262
113 262
114 220
115 305
116 127
117 44
118 56
119 160
120 90
121 246
122 244
123 387
124 534
125 295
126 209
127 250
128 160
129 148
130 15
131 16
132 1
133 98
134 75
135 165
136 202
137 279
138 316
139 191
140 158
141 175
142 139
143 139
144 116
145 136
146 10
147 134
148 210
149 268
150 203
151 282
152 227
153 178
154 133
155 242
156 78
157 81
158 49
159 58
160 49
161 119
162 55
163 199
164 196
165 238
166 662
167 236
168 138
169 182
170 123
171 158
172 9
173 59
175 25
176 25
177 30
178 64
179 114
180 140
181 156
182 121
183 108
184 70
185 56
187 31
189 56
191 53
192 4
193 43
194 51
195 202
196 128
197 71
198 195
199 172
200 45
201 14
202 46
207 8
208 14
209 118
210 65
211 26
212 1
213 14
214 20
219 21
220 174
221 66
227 159
228 91
234 28
235 30
236 64
237 3
238 23
241 24
245 29
262 186
263 120
264 49
265 19
277 20
280 84
281 43
294 276
295 187
296 32
308 28
312 74
313 22

$$$$

     RDKit          2D

 19 20  0  0  0  0  0  0  0  0999 V2000
   -9.0939    4.8215    0.0000 C   0  0  0  0  0  0  0  0  0  0  0  0
   -9.0944    3.3207    0.0000 C   0  0  0  0  0  0  0  0  0  0  0  0
   -7.7944    5.5723    0.0000 C   0  0  0  0  0  0  0  0  0  0  0  0
    3.8984    3.3211    0.0000 C   0  0  0  0  0  0  0  0  0  0  0  0
    3.8986    4.8211    0.0000 C   0  0  0  0  0  0  0  0  0  0  0  0
   -3.8977    3.3215    0.0000 C   0  0  0  0  0  0  0  0  0  0  0  0
   -7.7953    2.5707    0.0000 C   0  0  0  0  0  0  0  0  0  0  0  0
   -6.4953    4.8223    0.0000 C   0  0  0  0  0  0  0  0  0  0  0  0
   -5.1968    2.5715    0.0000 C   0  0  0  0  0  0  0  0  0  0  0  0
    2.5983    2.5713    0.0000 C   0  0  0  0  0  0  0  0  0  0  0  0
    2.5988    5.5713    0.0000 C   0  0  0  0  0  0  0  0  0  0  0  0
   -2.5987    2.5715    0.0000 C   0  0  0  0  0  0  0  0  0  0  0  0
   -6.4958    3.3215    0.0000 C   0  0  0  0  0  0  0  0  0  0  0  0
    1.2984    3.3215    0.0000 C   0  0  0  0  0  0  0  0  0  0  0  0
    1.2986    4.8215    0.0000 C   0  0  0  0  0  0  0  0  0  0  0  0
   -0.0006    2.5715    0.0000 C   0  0  0  0  0  0  0  0  0  0  0  0
   -0.0002    5.5719    0.0000 O   0  0  0  0  0  0  0  0  0  0  0  0
   -0.0006    1.0715    0.0000 O   0  0  0  0  0  0  0  0  0  0  0  0
   -1.2997    3.3215    0.0000 O   0  0  0  0  0  0  0  0  0  0  0  0
  2  1  2  0
  3  1  1  0
  5  4  2  0
  7  2  1  0
  8  3  2  0
  9  6  1  0
 10  4  1  0
 11  5  1  0
 12  6  1  0
 13  7  2  0
 13  8  1  0
 13  9  1  0
 14 10  2  0
 15 11  2  0
 15 14  1  0
 16 14  1  0
 17 15  1  0
 18 16  2  0
 19 12  1  0
 19 16  1  0
M  END
>  <NAME>  (785) 
3-PHENYLPROPYL SALICYLATE

>  <SYNONYMS>  (785) 


>  <SPECTRUM TYPE>  (785) 
MS1

>  <INSTRUMENT TYPE>  (785) 
EI-B

>  <INSTRUMENT>  (785) 
HITACHI M-80B

>  <ION MODE>  (785) 
P

>  <INCHIKEY>  (785) 
GMHNYYKDPGWAJR-UHFFFAOYSA-N

>  <FORMULA>  (785) 
C16H16O3

>  <EXACT MASS>  (785) 
256.109944372

>  <MW>  (785) 
256

>  <ID>  (785) 
JP010881

>  <CONTRIBUTOR>  (785) 
University of Tokyo Team, {Faculty of Engineering, University of Tokyo

>  <COMMENT>  (785) 
SMILES=c(c2)ccc(c2)CCCOC(=O)c(c1)c(O)ccc1
InChI=InChI=1S/C16H16O3/c17-15-11-5-4-10-14(15)16(18)19-12-6-9-13-7-2-1-3-8-13/h1-5,7-8,10-11,17H,6,9,12H2
computed SMILES=O=C(OCCCC=1C=CC=CC1)C=2C=CC=CC2O
accession=JP010881
date=2016.01.19 (Created 2008.10.21, modified 2011.05.06)
author=SODA AROMATIC CO., LTD.
license=CC BY-NC-SA
exact mass=256.10994
ionization energy=70 eV
ion type=[M]+*
computed spectral entropy=2.477601825196985
computed normalized entropy=0.7214941925121264
SPLASH=splash10-014l-7900000000-ada06cf19c77914ebaab
submitter=submitter = University of Tokyo Team (Faculty of Engineering, University of Tokyo)
MoNA Rating=3.75

>  <NUM PEAKS>  (785) 
31

>  <MASS SPECTRAL PEAKS>  (785) 
27 1.3
38 1.1
39 12.2
41 7
50 1
51 3.7
53 1.8
63 4.8
64 4
65 20.6
66 1.2
77 5.2
78 3
79 2
89 1.3
91 70.2
92 15.4
93 5.5
103 2.2
104 1.1
105 1.2
115 2.9
116 1.5
117 29.1
118 99.99
119 11.3
120 17.1
121 17.8
122 1.2
138 1.3
256 2

>  <PREDICTED SPECTRUM>  (785) 
25 0
26 44
27 102
28 25
29 62
31 14
36 15
37 19
38 66
39 272
40 79
41 190
42 68
43 84
44 107
45 18
50 142
51 215
52 124
53 127
54 59
55 58
56 4
57 41
60 25
61 31
62 78
63 190
64 121
65 358
66 91
67 2
68 31
69 46
70 9
74 10
75 59
76 85
77 275
78 175
79 154
80 18
81 45
89 134
90 88
91 687
92 318
93 152
94 57
102 71
103 211
104 109
105 193
106 7
107 22
115 207
116 130
117 509
118 999
119 446
120 356
121 273
122 60
137 115
138 41
139 81
196 49
256 117
257 32

$$$$

     RDKit          2D

 18 19  0  0  0  0  0  0  0  0999 V2000
   -2.5989   -1.5002    0.0000 C   0  0  0  0  0  0  0  0  0  0  0  0
    7.7962   -1.5008    0.0000 C   0  0  0  0  0  0  0  0  0  0  0  0
    9.0952   -0.7508    0.0000 C   0  0  0  0  0  0  0  0  0  0  0  0
    6.4966   -0.7500    0.0000 C   0  0  0  0  0  0  0  0  0  0  0  0
    9.0947    0.7500    0.0000 C   0  0  0  0  0  0  0  0  0  0  0  0
   -1.3000    0.7500    0.0000 C   0  0  0  0  0  0  0  0  0  0  0  0
    0.0000   -1.5000    0.0000 C   0  0  0  0  0  0  0  0  0  0  0  0
    0.0000    1.5000    0.0000 C   0  0  0  0  0  0  0  0  0  0  0  0
    1.3000   -0.7500    0.0000 C   0  0  0  0  0  0  0  0  0  0  0  0
    2.5989    1.5002    0.0000 C   0  0  0  0  0  0  0  0  0  0  0  0
   -1.3000   -0.7500    0.0000 C   0  0  0  0  0  0  0  0  0  0  0  0
    1.3000    0.7500    0.0000 C   0  0  0  0  0  0  0  0  0  0  0  0
    6.4962    0.7508    0.0000 C   0  0  0  0  0  0  0  0  0  0  0  0
    7.7952    1.5008    0.0000 C   0  0  0  0  0  0  0  0  0  0  0  0
    5.1970    1.5006    0.0000 C   0  0  0  0  0  0  0  0  0  0  0  0
    7.7954    3.0008    0.0000 O   0  0  0  0  0  0  0  0  0  0  0  0
    5.1968    3.0006    0.0000 O   0  0  0  0  0  0  0  0  0  0  0  0
    3.8981    0.7504    0.0000 O   0  0  0  0  0  0  0  0  0  0  0  0
  3  2  2  0
  4  2  1  0
  5  3  1  0
  8  6  2  0
  9  7  1  0
 11  1  1  0
 11  6  1  0
 11  7  2  0
 12  8  1  0
 12  9  2  0
 12 10  1  0
 13  4  2  0
 14  5  2  0
 14 13  1  0
 15 13  1  0
 16 14  1  0
 17 15  2  0
 18 10  1  0
 18 15  1  0
M  END
>  <NAME>  (786) 
4-METHYLBENZYL SALICYLATE

>  <SYNONYMS>  (786) 


>  <SPECTRUM TYPE>  (786) 
MS1

>  <INSTRUMENT TYPE>  (786) 
EI-B

>  <INSTRUMENT>  (786) 
HITACHI M-80B

>  <ION MODE>  (786) 
P

>  <INCHIKEY>  (786) 
CAKKYSSTIPDPQG-UHFFFAOYSA-N

>  <FORMULA>  (786) 
C15H14O3

>  <EXACT MASS>  (786) 
242.09429430799997

>  <MW>  (786) 
242

>  <ID>  (786) 
JP010880

>  <CONTRIBUTOR>  (786) 
University of Tokyo Team, {Faculty of Engineering, University of Tokyo

>  <COMMENT>  (786) 
SMILES=Cc(c2)ccc(c2)COC(=O)c(c1)c(O)ccc1
InChI=InChI=1S/C15H14O3/c1-11-6-8-12(9-7-11)10-18-15(17)13-4-2-3-5-14(13)16/h2-9,16H,10H2,1H3
computed SMILES=O=C(OCC1=CC=C(C=C1)C)C=2C=CC=CC2O
accession=JP010880
date=2016.01.19 (Created 2008.10.21, modified 2011.05.06)
author=SODA AROMATIC CO., LTD.
license=CC BY-NC-SA
exact mass=242.09429
ionization energy=70 eV
ion type=[M]+*
computed spectral entropy=1.7105139506765168
computed normalized entropy=0.580930344550987
SPLASH=splash10-0a4i-3900000000-711dce4c13237f213661
submitter=submitter = University of Tokyo Team (Faculty of Engineering, University of Tokyo)
MoNA Rating=3.75

>  <NUM PEAKS>  (786) 
19

>  <MASS SPECTRAL PEAKS>  (786) 
27 1.5
39 5.3
51 1.5
53 1.3
63 2.2
64 1.3
65 5.9
77 7.5
78 2.8
79 5.6
91 1.7
92 1.9
93 1.5
103 3.9
104 2.8
105 99.99
106 9.3
121 2.8
242 4.3

>  <PREDICTED SPECTRUM>  (786) 
27 98
28 29
29 46
37 1
38 56
39 183
40 66
41 54
42 19
44 44
45 19
50 92
51 171
52 101
53 128
54 21
62 45
63 112
64 91
65 168
66 98
67 37
68 28
69 14
74 34
75 51
76 64
77 337
78 205
79 288
80 74
81 31
89 58
90 7
91 142
92 101
93 197
94 65
97 16
102 71
103 230
104 166
105 999
106 302
107 72
108 24
109 30
110 27
119 70
120 106
121 131
122 122
123 26
137 56
138 59
196 11
197 17
242 227
243 61

$$$$

     RDKit          2D

 26 25  0  0  0  0  0  0  0  0999 V2000
  -22.0836   13.5000    0.0000 C   0  0  0  0  0  0  0  0  0  0  0  0
    7.7942   12.7500    0.0000 C   0  0  0  0  0  0  0  0  0  0  0  0
  -20.7846   12.7500    0.0000 C   0  0  0  0  0  0  0  0  0  0  0  0
    6.4952   13.5000    0.0000 C   0  0  0  0  0  0  0  0  0  0  0  0
  -19.4856   13.5000    0.0000 C   0  0  0  0  0  0  0  0  0  0  0  0
    5.1962   12.7500    0.0000 C   0  0  0  0  0  0  0  0  0  0  0  0
  -18.1865   12.7500    0.0000 C   0  0  0  0  0  0  0  0  0  0  0  0
    3.8971   13.5000    0.0000 C   0  0  0  0  0  0  0  0  0  0  0  0
  -16.8875   13.5000    0.0000 C   0  0  0  0  0  0  0  0  0  0  0  0
    2.5981   12.7500    0.0000 C   0  0  0  0  0  0  0  0  0  0  0  0
  -15.5885   12.7500    0.0000 C   0  0  0  0  0  0  0  0  0  0  0  0
    1.2990   13.5000    0.0000 C   0  0  0  0  0  0  0  0  0  0  0  0
   -7.7942   12.7500    0.0000 C   0  0  0  0  0  0  0  0  0  0  0  0
   -6.4952   13.5000    0.0000 C   0  0  0  0  0  0  0  0  0  0  0  0
  -14.2894   13.5000    0.0000 C   0  0  0  0  0  0  0  0  0  0  0  0
    0.0000   12.7500    0.0000 C   0  0  0  0  0  0  0  0  0  0  0  0
   -9.0933   13.5000    0.0000 C   0  0  0  0  0  0  0  0  0  0  0  0
   -5.1962   12.7500    0.0000 C   0  0  0  0  0  0  0  0  0  0  0  0
  -12.9904   12.7500    0.0000 C   0  0  0  0  0  0  0  0  0  0  0  0
   -1.2990   13.5000    0.0000 C   0  0  0  0  0  0  0  0  0  0  0  0
  -10.3923   12.7500    0.0000 C   0  0  0  0  0  0  0  0  0  0  0  0
   -3.8971   13.5000    0.0000 C   0  0  0  0  0  0  0  0  0  0  0  0
  -10.3923   11.2500    0.0000 O   0  0  0  0  0  0  0  0  0  0  0  0
   -3.8971   15.0000    0.0000 O   0  0  0  0  0  0  0  0  0  0  0  0
  -11.6913   13.5000    0.0000 O   0  0  0  0  0  0  0  0  0  0  0  0
   -2.5981   12.7500    0.0000 O   0  0  0  0  0  0  0  0  0  0  0  0
  3  1  1  0
  4  2  1  0
  5  3  1  0
  6  4  1  0
  7  5  1  0
  8  6  1  0
  9  7  1  0
 10  8  1  0
 11  9  1  0
 12 10  1  0
 14 13  1  0
 15 11  1  0
 16 12  1  0
 17 13  1  0
 18 14  1  0
 19 15  1  0
 20 16  1  0
 21 17  1  0
 22 18  1  0
 23 21  2  0
 24 22  2  0
 25 19  1  0
 25 21  1  0
 26 20  1  0
 26 22  1  0
M  END
>  <NAME>  (787) 
DIOCTYL ADIPATE

>  <SYNONYMS>  (787) 


>  <SPECTRUM TYPE>  (787) 
MS1

>  <INSTRUMENT TYPE>  (787) 
EI-B

>  <INSTRUMENT>  (787) 
HITACHI M-80B

>  <ION MODE>  (787) 
P

>  <INCHIKEY>  (787) 
NEHDRDVHPTWWFG-UHFFFAOYSA-N

>  <FORMULA>  (787) 
C22H42O4

>  <EXACT MASS>  (787) 
370.308309824

>  <MW>  (787) 
370

>  <ID>  (787) 
JP010879

>  <CONTRIBUTOR>  (787) 
University of Tokyo Team, {Faculty of Engineering, University of Tokyo

>  <COMMENT>  (787) 
SMILES=CCCCCCCCOC(=O)CCCCC(=O)OCCCCCCCC
InChI=InChI=1S/C22H42O4/c1-3-5-7-9-11-15-19-25-21(23)17-13-14-18-22(24)26-20-16-12-10-8-6-4-2/h3-20H2,1-2H3
computed SMILES=O=C(OCCCCCCCC)CCCCC(=O)OCCCCCCCC
accession=JP010879
date=2016.01.19 (Created 2008.10.21, modified 2011.05.06)
author=SODA AROMATIC CO., LTD.
license=CC BY-NC-SA
exact mass=370.30831
ionization energy=70 eV
ion type=[M]+*
computed spectral entropy=3.0161155717936134
computed normalized entropy=0.8019024457669528
SPLASH=splash10-05dl-9500000000-e865ecdd92cd0e7f08ed
submitter=submitter = University of Tokyo Team (Faculty of Engineering, University of Tokyo)
MoNA Rating=3.75

>  <NUM PEAKS>  (787) 
43

>  <MASS SPECTRAL PEAKS>  (787) 
27 4.7
29 14.4
39 3
41 29.1
42 5.9
43 32.9
53 1.4
54 1.7
55 35.2
56 14.4
57 60.9
58 2.4
59 2.4
67 1.5
68 1.9
70 40.5
71 34.6
72 1.8
73 1.5
82 2.2
83 16
84 11.3
85 1.5
87 5.5
97 1.2
100 4.5
101 10.5
102 2.7
111 12.3
112 31.2
113 15.7
114 1.2
128 3.9
129 99.99
130 6.2
142 1.8
146 2.1
147 17.3
148 1.1
199 1.1
212 1.3
241 5.9
259 3.3

>  <PREDICTED SPECTRUM>  (787) 
3 1
9 4
12 2
17 2
18 14
26 29
27 175
28 107
29 367
30 3
31 50
39 214
40 127
41 643
42 436
43 873
44 185
45 121
48 17
49 0
53 173
54 249
55 850
56 584
57 773
58 198
59 125
60 205
61 296
63 5
65 41
66 46
67 283
68 326
69 751
70 540
71 546
72 156
73 434
74 100
75 32
77 24
79 157
80 153
81 244
82 292
83 547
84 417
85 352
86 167
87 439
88 97
89 56
91 52
93 46
94 60
95 213
96 231
97 597
98 494
99 283
100 318
101 781
102 220
103 89
108 27
109 121
110 164
111 436
112 285
113 221
114 304
115 434
116 251
117 147
118 39
119 6
121 130
122 130
123 141
124 291
125 888
126 380
127 239
128 135
129 552
130 179
131 81
137 10
138 160
139 233
140 190
141 141
142 192
143 999
144 275
145 70
147 78
148 53
151 28
152 20
153 63
154 78
155 124
156 65
157 249
158 122
159 84
161 67
165 8
166 179
167 116
168 87
169 68
170 133
171 248
172 61
173 9
180 64
182 51
183 43
184 133
185 469
186 174
187 65
197 52
198 172
199 410
200 164
201 46
211 2
212 133
213 518
214 206
215 23
217 44
225 0
226 108
227 431
228 217
229 59
231 89
240 71
241 397
242 169
243 73
245 61
254 113
255 379
256 179
257 57
259 89
268 25
269 312
270 123
271 61
273 46
282 39
283 258
284 161
285 41
287 21
298 28
312 29
327 36

$$$$

     RDKit          2D

 18 19  0  0  0  0  0  0  0  0999 V2000
    3.8976    3.3200    0.0000 C   0  0  0  0  0  0  0  0  0  0  0  0
   -9.0928    3.3200    0.0000 C   0  0  0  0  0  0  0  0  0  0  0  0
    3.8981    4.8208    0.0000 C   0  0  0  0  0  0  0  0  0  0  0  0
    2.5981    2.5692    0.0000 C   0  0  0  0  0  0  0  0  0  0  0  0
   -7.7933    2.5692    0.0000 C   0  0  0  0  0  0  0  0  0  0  0  0
   -9.0933    4.8208    0.0000 C   0  0  0  0  0  0  0  0  0  0  0  0
   -1.2986    4.8200    0.0000 C   0  0  0  0  0  0  0  0  0  0  0  0
    2.5990    5.5708    0.0000 C   0  0  0  0  0  0  0  0  0  0  0  0
    1.2990    3.3192    0.0000 C   0  0  0  0  0  0  0  0  0  0  0  0
    0.0005    5.5700    0.0000 C   0  0  0  0  0  0  0  0  0  0  0  0
   -6.4942    3.3192    0.0000 C   0  0  0  0  0  0  0  0  0  0  0  0
   -7.7942    5.5708    0.0000 C   0  0  0  0  0  0  0  0  0  0  0  0
   -2.5976    5.5700    0.0000 C   0  0  0  0  0  0  0  0  0  0  0  0
    1.2995    4.8200    0.0000 C   0  0  0  0  0  0  0  0  0  0  0  0
   -6.4947    4.8200    0.0000 C   0  0  0  0  0  0  0  0  0  0  0  0
   -5.1957    5.5700    0.0000 C   0  0  0  0  0  0  0  0  0  0  0  0
   -5.1957    7.0700    0.0000 O   0  0  0  0  0  0  0  0  0  0  0  0
   -3.8966    4.8200    0.0000 O   0  0  0  0  0  0  0  0  0  0  0  0
  3  1  2  0
  4  1  1  0
  5  2  2  0
  6  2  1  0
  8  3  1  0
  9  4  2  0
 10  7  1  0
 11  5  1  0
 12  6  2  0
 13  7  1  0
 14  8  2  0
 14  9  1  0
 14 10  1  0
 15 11  2  0
 15 12  1  0
 16 15  1  0
 17 16  2  0
 18 13  1  0
 18 16  1  0
M  END
>  <NAME>  (788) 
3-PHENYLPROPYL BENZOATE

>  <SYNONYMS>  (788) 


>  <SPECTRUM TYPE>  (788) 
MS1

>  <INSTRUMENT TYPE>  (788) 
EI-B

>  <INSTRUMENT>  (788) 
HITACHI M-80B

>  <ION MODE>  (788) 
P

>  <INCHIKEY>  (788) 
ONPVMQLRVWKFFL-UHFFFAOYSA-N

>  <FORMULA>  (788) 
C16H16O2

>  <EXACT MASS>  (788) 
240.115029752

>  <MW>  (788) 
240

>  <ID>  (788) 
JP010878

>  <CONTRIBUTOR>  (788) 
University of Tokyo Team, {Faculty of Engineering, University of Tokyo

>  <COMMENT>  (788) 
SMILES=O=C(OCCCc(c2)cccc2)c(c1)cccc1
InChI=InChI=1S/C16H16O2/c17-16(15-11-5-2-6-12-15)18-13-7-10-14-8-3-1-4-9-14/h1-6,8-9,11-12H,7,10,13H2
computed SMILES=O=C(OCCCC=1C=CC=CC1)C=2C=CC=CC2
accession=JP010878
date=2016.01.19 (Created 2008.10.21, modified 2011.05.06)
author=SODA AROMATIC CO., LTD.
license=CC BY-NC-SA
exact mass=240.11503
ionization energy=70 eV
ion type=[M]+*
computed spectral entropy=2.087668436646066
computed normalized entropy=0.6857129416353207
SPLASH=splash10-014i-2900000000-c7340eb18e68a9232451
submitter=submitter = University of Tokyo Team (Faculty of Engineering, University of Tokyo)
MoNA Rating=3.75

>  <NUM PEAKS>  (788) 
21

>  <MASS SPECTRAL PEAKS>  (788) 
27 1.7
39 4
41 1.8
50 2.7
51 12.8
52 1.1
63 1.4
65 6.3
78 6.1
79 2.7
91 21.6
92 2.1
103 3.3
104 1.7
105 29.6
106 1.9
115 2.4
116 2
117 50.8
118 99.99
119 9.7

>  <PREDICTED SPECTRUM>  (788) 
25 1
26 25
27 57
36 17
37 11
38 48
39 193
40 76
41 141
42 27
43 54
44 52
50 150
51 225
52 114
53 75
54 1
55 5
57 0
61 9
62 50
63 133
64 65
65 223
66 45
69 17
70 13
74 47
75 100
76 106
77 325
78 201
79 173
80 8
81 10
89 81
90 59
91 457
92 174
93 12
95 45
102 60
103 182
104 259
105 449
106 125
107 99
115 217
116 210
117 743
118 999
119 330
120 42
123 74

$$$$

     RDKit          2D

 16 15  0  0  0  0  0  0  0  0999 V2000
  -11.6913    6.7500    0.0000 C   0  0  0  0  0  0  0  0  0  0  0  0
    3.8971    6.7500    0.0000 C   0  0  0  0  0  0  0  0  0  0  0  0
   -6.4952    3.7500    0.0000 C   0  0  0  0  0  0  0  0  0  0  0  0
  -10.3923    6.0000    0.0000 C   0  0  0  0  0  0  0  0  0  0  0  0
    2.5981    6.0000    0.0000 C   0  0  0  0  0  0  0  0  0  0  0  0
   -5.1962    4.5000    0.0000 C   0  0  0  0  0  0  0  0  0  0  0  0
   -9.0933    6.7500    0.0000 C   0  0  0  0  0  0  0  0  0  0  0  0
    1.2990    6.7500    0.0000 C   0  0  0  0  0  0  0  0  0  0  0  0
   -7.7942    6.0000    0.0000 C   0  0  0  0  0  0  0  0  0  0  0  0
    0.0000    6.0000    0.0000 C   0  0  0  0  0  0  0  0  0  0  0  0
   -6.4952    6.7500    0.0000 C   0  0  0  0  0  0  0  0  0  0  0  0
   -1.2990    6.7500    0.0000 C   0  0  0  0  0  0  0  0  0  0  0  0
   -5.1962    6.0000    0.0000 C   0  0  0  0  0  0  0  0  0  0  0  0
   -2.5981    6.0000    0.0000 C   0  0  0  0  0  0  0  0  0  0  0  0
   -2.5981    4.5000    0.0000 O   0  0  0  0  0  0  0  0  0  0  0  0
   -3.8971    6.7500    0.0000 O   0  0  0  0  0  0  0  0  0  0  0  0
  4  1  1  0
  5  2  1  0
  6  3  1  0
  7  4  1  0
  8  5  1  0
  9  7  1  0
 10  8  1  0
 11  9  1  0
 12 10  1  0
 13  6  1  0
 13 11  1  0
 14 12  1  0
 15 14  2  0
 16 13  1  0
 16 14  1  0
M  END
>  <NAME>  (789) 
3-OCTYL HEXANOATE

>  <SYNONYMS>  (789) 


>  <SPECTRUM TYPE>  (789) 
MS1

>  <INSTRUMENT TYPE>  (789) 
EI-B

>  <INSTRUMENT>  (789) 
HITACHI M-80B

>  <ION MODE>  (789) 
P

>  <INCHIKEY>  (789) 
IMKAZTAYLVONBX-UHFFFAOYSA-N

>  <FORMULA>  (789) 
C14H28O2

>  <EXACT MASS>  (789) 
228.208930136

>  <MW>  (789) 
228

>  <ID>  (789) 
JP010877

>  <CONTRIBUTOR>  (789) 
University of Tokyo Team, {Faculty of Engineering, University of Tokyo

>  <COMMENT>  (789) 
SMILES=CCCCCC(CC)OC(=O)CCCCC
InChI=InChI=1S/C14H28O2/c1-4-7-9-11-13(6-3)16-14(15)12-10-8-5-2/h13H,4-12H2,1-3H3
computed SMILES=O=C(OC(CC)CCCCC)CCCCC
accession=JP010877
date=2016.01.19 (Created 2008.10.21, modified 2011.05.06)
author=SODA AROMATIC CO., LTD.
license=CC BY-NC-SA
exact mass=228.20893
ionization energy=70 eV
ion type=[M]+*
computed spectral entropy=2.8677982216741675
computed normalized entropy=0.7883794625746761
SPLASH=splash10-0005-9100000000-05da452bf484bf58bc30
submitter=submitter = University of Tokyo Team (Faculty of Engineering, University of Tokyo)
MoNA Rating=3.75

>  <NUM PEAKS>  (789) 
38

>  <MASS SPECTRAL PEAKS>  (789) 
27 8.9
29 16.8
39 4.7
41 23.3
42 8.8
43 42.4
44 1.2
53 1.3
54 1
55 16.6
56 13.9
57 16.1
58 1
59 1.5
60 7.6
61 1.5
67 1
68 1.2
69 8.3
70 14.3
71 29.4
72 2
73 3.4
82 1.5
83 8.5
84 5.1
87 1.7
97 1.2
99 99.99
100 6.1
112 15.3
113 1.5
114 1.5
116 7.1
117 10.2
129 1.2
157 3.8
199 1.3

>  <PREDICTED SPECTRUM>  (789) 
25 14
26 100
27 343
28 126
29 501
31 73
37 22
38 35
39 326
40 159
41 553
42 366
43 671
44 180
50 8
51 44
52 6
53 198
54 213
55 488
56 369
57 580
58 138
59 113
60 276
61 82
63 0
65 27
67 136
68 126
69 341
70 370
71 615
72 87
73 119
74 53
75 29
81 78
82 168
83 242
84 219
85 115
86 87
87 141
97 3
98 63
99 999
100 306
101 156
111 102
112 256
113 240
114 50
115 28
116 207
117 255
118 4
129 66
130 103
131 18
157 62

$$$$

     RDKit          2D

 19 18  0  0  0  0  0  0  0  0999 V2000
    4.5466    7.1250    0.0000 C   0  0  0  0  0  0  0  0  0  0  0  0
  -12.3409    7.8750    0.0000 C   0  0  0  0  0  0  0  0  0  0  0  0
   -7.1447   12.3750    0.0000 C   0  0  0  0  0  0  0  0  0  0  0  0
    3.2476    7.8750    0.0000 C   0  0  0  0  0  0  0  0  0  0  0  0
  -11.0418    7.1250    0.0000 C   0  0  0  0  0  0  0  0  0  0  0  0
   -5.8457   11.6250    0.0000 C   0  0  0  0  0  0  0  0  0  0  0  0
    1.9486    7.1250    0.0000 C   0  0  0  0  0  0  0  0  0  0  0  0
   -9.7428    7.8750    0.0000 C   0  0  0  0  0  0  0  0  0  0  0  0
    0.6495    7.8750    0.0000 C   0  0  0  0  0  0  0  0  0  0  0  0
   -8.4437    7.1250    0.0000 C   0  0  0  0  0  0  0  0  0  0  0  0
   -0.6495    7.1250    0.0000 C   0  0  0  0  0  0  0  0  0  0  0  0
   -7.1447    7.8750    0.0000 C   0  0  0  0  0  0  0  0  0  0  0  0
   -1.9486    7.8750    0.0000 C   0  0  0  0  0  0  0  0  0  0  0  0
   -5.8457    7.1250    0.0000 C   0  0  0  0  0  0  0  0  0  0  0  0
   -3.2476    7.1250    0.0000 C   0  0  0  0  0  0  0  0  0  0  0  0
   -4.5466    7.8750    0.0000 C   0  0  0  0  0  0  0  0  0  0  0  0
   -4.5466    9.3750    0.0000 C   0  0  0  0  0  0  0  0  0  0  0  0
   -3.2476   10.1250    0.0000 O   0  0  0  0  0  0  0  0  0  0  0  0
   -5.8457   10.1250    0.0000 O   0  0  0  0  0  0  0  0  0  0  0  0
  4  1  1  0
  5  2  1  0
  6  3  1  0
  7  4  1  0
  8  5  1  0
  9  7  1  0
 10  8  1  0
 11  9  1  0
 12 10  1  0
 13 11  1  0
 14 12  1  0
 15 13  1  0
 16 14  1  0
 16 15  1  0
 17 16  1  0
 18 17  2  0
 19  6  1  0
 19 17  1  0
M  END
>  <NAME>  (790) 
ETHYL 2-HEXYLNONANOATE

>  <SYNONYMS>  (790) 


>  <SPECTRUM TYPE>  (790) 
MS1

>  <INSTRUMENT TYPE>  (790) 
EI-B

>  <INSTRUMENT>  (790) 
HITACHI M-80B

>  <ION MODE>  (790) 
P

>  <INCHIKEY>  (790) 
OOCDGNOKAHNFJG-UHFFFAOYSA-N

>  <FORMULA>  (790) 
C17H34O2

>  <EXACT MASS>  (790) 
270.255880328

>  <MW>  (790) 
270

>  <ID>  (790) 
JP010876

>  <CONTRIBUTOR>  (790) 
University of Tokyo Team, {Faculty of Engineering, University of Tokyo

>  <COMMENT>  (790) 
SMILES=CCCCCCCC(CCCCCC)C(=O)OCC
InChI=InChI=1S/C17H34O2/c1-4-7-9-11-13-15-16(17(18)19-6-3)14-12-10-8-5-2/h16H,4-15H2,1-3H3
computed SMILES=O=C(OCC)C(CCCCCC)CCCCCCC
accession=JP010876
date=2016.01.19 (Created 2008.10.21, modified 2011.05.06)
author=SODA AROMATIC CO., LTD.
license=CC BY-NC-SA
exact mass=270.25588
ionization energy=70 eV
ion type=[M]+*
computed spectral entropy=3.094051612885433
computed normalized entropy=0.7869249305294327
SPLASH=splash10-0596-9200000000-04bbb8a3a0b35614ccf2
submitter=submitter = University of Tokyo Team (Faculty of Engineering, University of Tokyo)
MoNA Rating=3.75

>  <NUM PEAKS>  (790) 
51

>  <MASS SPECTRAL PEAKS>  (790) 
27 12.7
29 29.6
31 2
39 8.6
41 56.6
42 15
43 63.1
44 1.6
45 1
53 2.8
54 2.9
56 24.4
57 99.99
58 4
59 1.5
60 9.1
61 5
67 4.3
68 3.4
69 18.2
70 98.9
71 66.1
72 3.8
73 7.5
74 3.1
81 4.2
83 28.2
84 17.8
85 2.1
86 1.4
87 5.1
96 1.2
97 4.1
98 7
99 2
101 1.9
111 2
112 69.8
113 13.1
115 3.5
123 1.4
129 3.6
139 1
141 64.6
142 7.1
143 1.3
157 1.8
158 10
159 19.4
160 1.7
184 1.1

>  <PREDICTED SPECTRUM>  (790) 
25 17
26 101
27 419
28 160
29 758
30 68
31 132
37 16
38 43
39 342
40 161
41 877
42 459
43 999
44 290
45 245
46 60
47 4
51 18
52 25
53 207
54 202
55 807
56 600
57 924
58 265
59 115
60 339
61 311
65 31
67 260
68 268
69 600
70 498
71 571
72 73
73 684
74 21
79 34
81 174
82 205
83 492
84 456
85 285
86 182
87 162
88 253
89 80
90 56
95 120
96 115
97 351
98 320
99 194
101 181
102 175
109 66
110 137
111 287
112 473
113 200
114 138
115 124
116 88
125 58
126 122
127 95
129 88
130 115
140 181
141 399
142 121
143 196
144 37
145 23
154 27
156 22
157 278
158 544
159 308
160 149
171 113
185 67
198 39
225 73
270 46

$$$$

     RDKit          2D

  8  7  0  0  0  0  0  0  0  0999 V2000
    0.9007   -0.3615    0.0000 C   0  0  0  0  0  0  0  0  0  0  0  0
   -0.5993    2.2365    0.0000 C   0  0  0  0  0  0  0  0  0  0  0  0
   -1.1483    0.1875    0.0000 C   0  0  0  0  0  0  0  0  0  0  0  0
    2.7488    3.9375    0.0000 C   0  0  0  0  0  0  0  0  0  0  0  0
    1.4498    1.6875    0.0000 C   0  0  0  0  0  0  0  0  0  0  0  0
    0.1507    0.9375    0.0000 C   0  0  0  0  0  0  0  0  0  0  0  0
    2.7488    0.9375    0.0000 O   0  0  0  0  0  0  0  0  0  0  0  0
    1.4498    3.1875    0.0000 O   0  0  0  0  0  0  0  0  0  0  0  0
  6  1  1  0
  6  2  1  0
  6  3  1  0
  6  5  1  0
  7  5  2  0
  8  4  1  0
  8  5  1  0
M  END
>  <NAME>  (791) 
METHYL PIVALATE

>  <SYNONYMS>  (791) 


>  <SPECTRUM TYPE>  (791) 
MS1

>  <INSTRUMENT TYPE>  (791) 
EI-B

>  <INSTRUMENT>  (791) 
HITACHI M-80B

>  <ION MODE>  (791) 
P

>  <INCHIKEY>  (791) 
CNMFHDIDIMZHKY-UHFFFAOYSA-N

>  <FORMULA>  (791) 
C6H12O2

>  <EXACT MASS>  (791) 
116.083729624

>  <MW>  (791) 
116

>  <ID>  (791) 
JP010875

>  <CONTRIBUTOR>  (791) 
University of Tokyo Team, {Faculty of Engineering, University of Tokyo

>  <COMMENT>  (791) 
SMILES=COC(=O)C(C)(C)C
InChI=InChI=1S/C6H12O2/c1-6(2,3)5(7)8-4/h1-4H3
computed SMILES=O=C(OC)C(C)(C)C
accession=JP010875
date=2016.01.19 (Created 2008.10.21, modified 2011.05.06)
author=SODA AROMATIC CO., LTD.
license=CC BY-NC-SA
exact mass=116.08373
ionization energy=70 eV
ion type=[M]+*
computed spectral entropy=2.2413690773565875
computed normalized entropy=0.7481873788065635
SPLASH=splash10-0a4i-9000000000-030072575a6a9ee832fb
submitter=submitter = University of Tokyo Team (Faculty of Engineering, University of Tokyo)
MoNA Rating=3.75

>  <NUM PEAKS>  (791) 
20

>  <MASS SPECTRAL PEAKS>  (791) 
15 11
27 8.8
29 25.9
38 1.2
39 17.2
40 2.4
41 47.8
42 4.9
43 2
53 1
55 3.7
56 23.6
57 99.99
58 4.2
59 7.3
69 3
73 13.6
85 5.8
101 3
116 2.8

>  <PREDICTED SPECTRUM>  (791) 
14 26
15 202
16 19
26 57
27 271
28 118
29 419
30 89
31 189
32 28
33 82
37 12
38 61
39 343
40 148
41 761
42 285
43 128
44 32
45 28
50 20
53 80
54 102
55 451
56 368
57 999
58 186
59 526
60 40
69 201
70 114
71 20
73 62
74 10
85 169
88 104
101 136
116 100

$$$$

     RDKit          2D

  9  8  0  0  0  0  0  0  0  0999 V2000
    1.5368    3.1373    0.0000 C   0  0  0  0  0  0  0  0  0  0  0  0
   -4.4094    4.4363    0.0000 C   0  0  0  0  0  0  0  0  0  0  0  0
   -4.9584    2.3873    0.0000 C   0  0  0  0  0  0  0  0  0  0  0  0
   -2.9094    1.8382    0.0000 C   0  0  0  0  0  0  0  0  0  0  0  0
    0.2377    3.8873    0.0000 C   0  0  0  0  0  0  0  0  0  0  0  0
   -2.3603    3.8873    0.0000 C   0  0  0  0  0  0  0  0  0  0  0  0
   -3.6594    3.1373    0.0000 C   0  0  0  0  0  0  0  0  0  0  0  0
   -2.3603    5.3873    0.0000 O   0  0  0  0  0  0  0  0  0  0  0  0
   -1.0613    3.1373    0.0000 O   0  0  0  0  0  0  0  0  0  0  0  0
  5  1  1  0
  7  2  1  0
  7  3  1  0
  7  4  1  0
  7  6  1  0
  8  6  2  0
  9  5  1  0
  9  6  1  0
M  END
>  <NAME>  (792) 
ETHYL PIVALATE

>  <SYNONYMS>  (792) 


>  <SPECTRUM TYPE>  (792) 
MS1

>  <INSTRUMENT TYPE>  (792) 
EI-B

>  <INSTRUMENT>  (792) 
HITACHI M-80B

>  <ION MODE>  (792) 
P

>  <INCHIKEY>  (792) 
HHEIMYAXCOIQCJ-UHFFFAOYSA-N

>  <FORMULA>  (792) 
C7H14O2

>  <EXACT MASS>  (792) 
130.099379688

>  <MW>  (792) 
130

>  <ID>  (792) 
JP010874

>  <CONTRIBUTOR>  (792) 
University of Tokyo Team, {Faculty of Engineering, University of Tokyo

>  <COMMENT>  (792) 
SMILES=CCOC(=O)C(C)(C)C
InChI=InChI=1S/C7H14O2/c1-5-9-6(8)7(2,3)4/h5H2,1-4H3
computed SMILES=O=C(OCC)C(C)(C)C
accession=JP010874
date=2016.01.19 (Created 2008.10.21, modified 2011.05.06)
author=SODA AROMATIC CO., LTD.
license=CC BY-NC-SA
exact mass=130.09938
ionization energy=70 eV
ion type=[M]+*
computed spectral entropy=2.0801316730856536
computed normalized entropy=0.7341952124606328
SPLASH=splash10-0a4i-9000000000-4a85592819143172b1ea
submitter=submitter = University of Tokyo Team (Faculty of Engineering, University of Tokyo)
MoNA Rating=3.75

>  <NUM PEAKS>  (792) 
17

>  <MASS SPECTRAL PEAKS>  (792) 
15 1.3
27 8.7
29 22.5
39 8.7
41 29.2
42 3.2
43 2.1
45 1.6
55 2
56 18.5
57 99.99
58 5
59 8
75 5.1
85 8.3
87 7.4
130 5.4

>  <PREDICTED SPECTRUM>  (792) 
14 0
15 26
26 86
27 281
28 119
29 566
30 94
31 91
39 256
40 100
41 637
42 184
43 202
44 55
45 177
46 17
47 41
50 30
51 43
52 47
53 101
54 84
55 188
56 374
57 999
58 192
59 245
60 104
69 64
71 18
73 135
74 208
75 84
84 23
85 389
86 26
87 121
101 1
102 208
103 57
130 156
131 7

$$$$

     RDKit          2D

 18 18  0  0  0  0  0  0  0  0999 V2000
  -11.3663    6.5071    0.0000 C   0  0  0  0  0  0  0  0  0  0  0  0
  -10.0673    5.7571    0.0000 C   0  0  0  0  0  0  0  0  0  0  0  0
   -8.7683    6.5071    0.0000 C   0  0  0  0  0  0  0  0  0  0  0  0
   -7.4692    5.7571    0.0000 C   0  0  0  0  0  0  0  0  0  0  0  0
   -6.1702    6.5071    0.0000 C   0  0  0  0  0  0  0  0  0  0  0  0
    5.5212    4.2571    0.0000 C   0  0  0  0  0  0  0  0  0  0  0  0
    5.5216    5.7579    0.0000 C   0  0  0  0  0  0  0  0  0  0  0  0
    4.2216    3.5063    0.0000 C   0  0  0  0  0  0  0  0  0  0  0  0
   -4.8712    5.7571    0.0000 C   0  0  0  0  0  0  0  0  0  0  0  0
    4.2226    6.5079    0.0000 C   0  0  0  0  0  0  0  0  0  0  0  0
    2.9226    4.2563    0.0000 C   0  0  0  0  0  0  0  0  0  0  0  0
   -3.5721    6.5071    0.0000 C   0  0  0  0  0  0  0  0  0  0  0  0
    1.6240    6.5071    0.0000 C   0  0  0  0  0  0  0  0  0  0  0  0
    0.3250    5.7571    0.0000 C   0  0  0  0  0  0  0  0  0  0  0  0
    2.9231    5.7571    0.0000 C   0  0  0  0  0  0  0  0  0  0  0  0
   -2.2731    5.7571    0.0000 C   0  0  0  0  0  0  0  0  0  0  0  0
   -2.2731    4.2571    0.0000 O   0  0  0  0  0  0  0  0  0  0  0  0
   -0.9740    6.5071    0.0000 O   0  0  0  0  0  0  0  0  0  0  0  0
  2  1  1  0
  3  2  1  0
  4  3  1  0
  5  4  1  0
  7  6  2  0
  8  6  1  0
  9  5  1  0
 10  7  1  0
 11  8  2  0
 12  9  1  0
 14 13  1  0
 15 10  2  0
 15 11  1  0
 15 13  1  0
 16 12  1  0
 17 16  2  0
 18 14  1  0
 18 16  1  0
M  END
>  <NAME>  (793) 
PHENETHYL OCTANOATE

>  <SYNONYMS>  (793) 


>  <SPECTRUM TYPE>  (793) 
MS1

>  <INSTRUMENT TYPE>  (793) 
EI-B

>  <INSTRUMENT>  (793) 
HITACHI M-80B

>  <ION MODE>  (793) 
P

>  <INCHIKEY>  (793) 
ASETYIALRXDVDF-UHFFFAOYSA-N

>  <FORMULA>  (793) 
C16H24O2

>  <EXACT MASS>  (793) 
248.177630008

>  <MW>  (793) 
248

>  <ID>  (793) 
JP010873

>  <CONTRIBUTOR>  (793) 
University of Tokyo Team, {Faculty of Engineering, University of Tokyo

>  <COMMENT>  (793) 
SMILES=CCCCCCCC(=O)OCCc(c1)cccc1
InChI=InChI=1S/C16H24O2/c1-2-3-4-5-9-12-16(17)18-14-13-15-10-7-6-8-11-15/h6-8,10-11H,2-5,9,12-14H2,1H3
computed SMILES=O=C(OCCC=1C=CC=CC1)CCCCCCC
accession=JP010873
date=2016.01.19 (Created 2008.10.21, modified 2011.05.06)
author=SODA AROMATIC CO., LTD.
license=CC BY-NC-SA
exact mass=248.17763
ionization energy=70 eV
ion type=[M]+*
computed spectral entropy=1.8616518118617207
computed normalized entropy=0.644087324329786
SPLASH=splash10-0udi-4900000000-96f6348b4b447ff46b28
submitter=submitter = University of Tokyo Team (Faculty of Engineering, University of Tokyo)
MoNA Rating=3.75

>  <NUM PEAKS>  (793) 
18

>  <MASS SPECTRAL PEAKS>  (793) 
27 3
29 3.6
39 2.2
41 9.4
42 2.1
43 8
51 1.4
55 3.9
57 16.6
65 1.8
77 3.5
78 1.9
91 4.6
103 2.9
104 99.99
105 24.7
106 1.5
127 3.2

>  <PREDICTED SPECTRUM>  (793) 
26 30
27 128
28 26
29 132
39 154
40 25
41 186
42 124
43 237
44 50
50 56
51 114
52 58
53 71
54 92
55 179
56 108
57 196
58 32
59 6
60 36
61 30
62 9
63 50
64 30
65 147
66 36
69 106
70 98
71 95
72 2
73 70
74 29
75 11
76 34
77 147
78 152
79 125
80 58
81 30
82 4
83 23
84 1
86 56
89 54
90 19
91 228
92 119
93 7
98 30
99 24
100 1
101 13
102 34
103 126
104 999
105 445
106 105
109 29
121 6
123 8
125 12
127 74

$$$$

     RDKit          2D

 15 15  0  0  0  0  0  0  0  0999 V2000
  -10.4068   -1.5750    0.0000 C   0  0  0  0  0  0  0  0  0  0  0  0
    2.6027    1.4936    0.0000 C   0  0  0  0  0  0  0  0  0  0  0  0
   -9.1140   -0.8143    0.0000 C   0  0  0  0  0  0  0  0  0  0  0  0
   -7.8088   -1.5536    0.0000 C   0  0  0  0  0  0  0  0  0  0  0  0
   -6.5160   -0.7929    0.0000 C   0  0  0  0  0  0  0  0  0  0  0  0
   -5.2108   -1.5321    0.0000 C   0  0  0  0  0  0  0  0  0  0  0  0
    1.3000   -0.7500    0.0000 C   0  0  0  0  0  0  0  0  0  0  0  0
    0.0300    1.5000    0.0000 C   0  0  0  0  0  0  0  0  0  0  0  0
    0.0300   -1.5000    0.0000 C   0  0  0  0  0  0  0  0  0  0  0  0
   -1.3200    0.7500    0.0000 C   0  0  0  0  0  0  0  0  0  0  0  0
    1.3000    0.7500    0.0000 C   0  0  0  0  0  0  0  0  0  0  0  0
   -1.3200   -0.7500    0.0000 C   0  0  0  0  0  0  0  0  0  0  0  0
   -3.9180   -0.7714    0.0000 C   0  0  0  0  0  0  0  0  0  0  0  0
   -3.9304    0.7285    0.0000 O   0  0  0  0  0  0  0  0  0  0  0  0
   -2.6128   -1.5107    0.0000 O   0  0  0  0  0  0  0  0  0  0  0  0
  3  1  1  0
  4  3  1  0
  5  4  1  0
  6  5  1  0
  9  7  2  0
 10  8  1  0
 11  2  1  0
 11  7  1  0
 11  8  2  0
 12  9  1  0
 12 10  2  0
 13  6  1  0
 14 13  2  0
 15 12  1  0
 15 13  1  0
M  END
>  <NAME>  (794) 
4-METHYLPHENYL HEXANOATE

>  <SYNONYMS>  (794) 


>  <SPECTRUM TYPE>  (794) 
MS1

>  <INSTRUMENT TYPE>  (794) 
EI-B

>  <INSTRUMENT>  (794) 
HITACHI M-80B

>  <ION MODE>  (794) 
P

>  <INCHIKEY>  (794) 
CUKVJQWRXQTFRF-UHFFFAOYSA-N

>  <FORMULA>  (794) 
C13H18O2

>  <EXACT MASS>  (794) 
206.130679816

>  <MW>  (794) 
206

>  <ID>  (794) 
JP010872

>  <CONTRIBUTOR>  (794) 
University of Tokyo Team, {Faculty of Engineering, University of Tokyo

>  <COMMENT>  (794) 
SMILES=CCCCCC(=O)Oc(c1)ccc(C)c1
InChI=InChI=1S/C13H18O2/c1-3-4-5-6-13(14)15-12-9-7-11(2)8-10-12/h7-10H,3-6H2,1-2H3
computed SMILES=O=C(OC1=CC=C(C=C1)C)CCCCC
accession=JP010872
date=2016.01.19 (Created 2008.10.21, modified 2011.05.06)
author=SODA AROMATIC CO., LTD.
license=CC BY-NC-SA
exact mass=206.13068
ionization energy=70 eV
ion type=[M]+*
computed spectral entropy=2.2661544279849553
computed normalized entropy=0.7227423404171133
SPLASH=splash10-0a4i-8900000000-11bfd53cea4319d35b7e
submitter=submitter = University of Tokyo Team (Faculty of Engineering, University of Tokyo)
MoNA Rating=3.75

>  <NUM PEAKS>  (794) 
23

>  <MASS SPECTRAL PEAKS>  (794) 
27 6.9
29 6.8
39 5.1
41 8.7
42 2.2
43 27.7
51 2.1
52 1.6
53 1.9
55 5.1
65 2.1
71 9.8
77 8.6
78 2.8
79 4.2
80 1.4
90 1
91 3.6
99 6.2
107 11.6
108 99.99
109 9.3
206 4.7

>  <PREDICTED SPECTRUM>  (794) 
25 5
26 93
27 323
28 112
29 244
38 44
39 289
40 83
41 322
42 165
43 530
44 57
50 71
51 149
52 156
53 169
54 77
55 304
56 64
58 44
60 34
61 10
62 18
63 85
64 58
65 150
66 53
67 15
68 43
69 69
71 355
72 24
77 260
78 168
79 175
80 134
81 54
82 1
89 31
90 134
91 163
92 32
94 68
95 13
98 106
99 473
100 40
107 238
108 999
109 232
206 257
207 98

$$$$

     RDKit          2D

 19 18  0  0  0  0  0  0  0  0999 V2000
  -16.2380   10.1250    0.0000 C   0  0  0  0  0  0  0  0  0  0  0  0
    5.8457    9.3750    0.0000 C   0  0  0  0  0  0  0  0  0  0  0  0
  -14.9389    9.3750    0.0000 C   0  0  0  0  0  0  0  0  0  0  0  0
    4.5466   10.1250    0.0000 C   0  0  0  0  0  0  0  0  0  0  0  0
  -13.6399   10.1250    0.0000 C   0  0  0  0  0  0  0  0  0  0  0  0
    3.2476    9.3750    0.0000 C   0  0  0  0  0  0  0  0  0  0  0  0
  -12.3409    9.3750    0.0000 C   0  0  0  0  0  0  0  0  0  0  0  0
    1.9486   10.1250    0.0000 C   0  0  0  0  0  0  0  0  0  0  0  0
  -11.0418   10.1250    0.0000 C   0  0  0  0  0  0  0  0  0  0  0  0
   -9.7428    9.3750    0.0000 C   0  0  0  0  0  0  0  0  0  0  0  0
   -8.4437   10.1250    0.0000 C   0  0  0  0  0  0  0  0  0  0  0  0
   -7.1447    9.3750    0.0000 C   0  0  0  0  0  0  0  0  0  0  0  0
   -5.8457   10.1250    0.0000 C   0  0  0  0  0  0  0  0  0  0  0  0
    0.6495    9.3750    0.0000 C   0  0  0  0  0  0  0  0  0  0  0  0
   -4.5466    9.3750    0.0000 C   0  0  0  0  0  0  0  0  0  0  0  0
   -0.6495   10.1250    0.0000 C   0  0  0  0  0  0  0  0  0  0  0  0
   -3.2476   10.1250    0.0000 C   0  0  0  0  0  0  0  0  0  0  0  0
   -3.2476   11.6250    0.0000 O   0  0  0  0  0  0  0  0  0  0  0  0
   -1.9486    9.3750    0.0000 O   0  0  0  0  0  0  0  0  0  0  0  0
  3  1  2  0
  4  2  1  0
  5  3  1  0
  6  4  1  0
  7  5  1  0
  8  6  1  0
  9  7  1  0
 10  9  1  0
 11 10  1  0
 12 11  1  0
 13 12  1  0
 14  8  1  0
 15 13  1  0
 16 14  1  0
 17 15  1  0
 18 17  2  0
 19 16  1  0
 19 17  1  0
M  END
>  <NAME>  (795) 
HEXYL 10-UNDECENOATE

>  <SYNONYMS>  (795) 


>  <SPECTRUM TYPE>  (795) 
MS1

>  <INSTRUMENT TYPE>  (795) 
EI-B

>  <INSTRUMENT>  (795) 
HITACHI M-80B

>  <ION MODE>  (795) 
P

>  <INCHIKEY>  (795) 
LIZMMPXSSWQZSY-UHFFFAOYSA-N

>  <FORMULA>  (795) 
C17H32O2

>  <EXACT MASS>  (795) 
268.240230264

>  <MW>  (795) 
268

>  <ID>  (795) 
JP010871

>  <CONTRIBUTOR>  (795) 
University of Tokyo Team, {Faculty of Engineering, University of Tokyo

>  <COMMENT>  (795) 
SMILES=C=CCCCCCCCCC(=O)OCCCCCC
InChI=InChI=1S/C17H32O2/c1-3-5-7-9-10-11-12-13-15-17(18)19-16-14-8-6-4-2/h3H,1,4-16H2,2H3
computed SMILES=O=C(OCCCCCC)CCCCCCCCC=C
accession=JP010871
date=2016.01.19 (Created 2008.10.21, modified 2011.05.06)
author=SODA AROMATIC CO., LTD.
license=CC BY-NC-SA
exact mass=268.24023
ionization energy=70 eV
ion type=[M]+*
computed spectral entropy=3.519065676817808
computed normalized entropy=0.8311235612512149
SPLASH=splash10-052f-9100000000-79b03a5cb55725c803bf
submitter=submitter = University of Tokyo Team (Faculty of Engineering, University of Tokyo)
MoNA Rating=3.75

>  <NUM PEAKS>  (795) 
69

>  <MASS SPECTRAL PEAKS>  (795) 
27 13.5
29 22.7
39 14.5
41 66.8
42 22.6
43 99.99
44 2.2
45 1.6
53 5
54 9.6
55 71.4
56 36.3
57 16.5
59 1.3
60 8.6
61 14.5
67 15.7
68 10.7
69 33
70 7.1
71 3.4
73 11.1
74 1.2
79 2.3
80 1.6
81 12.5
82 15
83 24.9
84 43.2
85 17.9
86 1.2
87 3.3
93 1.7
94 1.8
95 5.3
96 15.6
97 13.8
98 14.2
99 2.6
100 3
101 4.6
102 1.2
107 2
109 2.1
110 4.1
111 3.8
112 1.8
113 1.3
114 3.8
115 1.8
119 1.1
121 1.3
122 5.4
123 6.9
124 14.6
125 6
127 1.7
129 1.4
137 2.8
138 2.2
141 1.3
147 1.7
148 3
149 9.3
157 1.1
165 1.8
166 10.7
167 7.3
185 2.1

>  <PREDICTED SPECTRUM>  (795) 
15 6
17 6
18 19
25 15
26 123
27 443
28 228
29 557
30 63
31 144
32 5
34 1
35 11
36 71
37 51
38 89
39 499
40 228
41 956
42 500
43 830
44 177
45 126
50 59
51 110
52 92
53 267
54 640
55 999
56 547
57 643
58 116
59 105
60 366
61 291
62 64
63 40
64 6
65 140
66 214
67 692
68 720
69 720
70 407
71 438
72 120
73 443
74 83
75 35
76 1
77 115
78 45
79 266
80 215
81 556
82 732
83 583
84 353
85 284
86 116
87 261
88 22
89 79
91 87
92 40
93 171
94 157
95 479
96 641
97 421
98 259
99 244
100 190
101 202
102 3
103 31
105 31
107 35
108 3
109 391
110 389
111 253
112 107
113 213
114 150
115 155
116 129
117 184
119 115
121 72
122 64
123 295
124 254
125 128
126 87
127 13
128 7
129 23
131 79
132 36
133 30
137 130
138 107
139 30
141 54
147 19
149 58
151 23
152 205
153 25
166 42

$$$$

     RDKit          2D

 15 15  0  0  0  0  0  0  0  0999 V2000
   -4.2233    3.5628    0.0000 C   0  0  0  0  0  0  0  0  0  0  0  0
   -1.6250    2.0632    0.0000 C   0  0  0  0  0  0  0  0  0  0  0  0
   -2.9244    4.3130    0.0000 C   0  0  0  0  0  0  0  0  0  0  0  0
    4.8709    1.3123    0.0000 C   0  0  0  0  0  0  0  0  0  0  0  0
    6.1700    2.0623    0.0000 C   0  0  0  0  0  0  0  0  0  0  0  0
    3.5714    2.0632    0.0000 C   0  0  0  0  0  0  0  0  0  0  0  0
    6.1695    3.5632    0.0000 C   0  0  0  0  0  0  0  0  0  0  0  0
   -0.3263    4.3134    0.0000 C   0  0  0  0  0  0  0  0  0  0  0  0
   -1.6252    3.5632    0.0000 C   0  0  0  0  0  0  0  0  0  0  0  0
    3.5709    3.5640    0.0000 C   0  0  0  0  0  0  0  0  0  0  0  0
    4.8700    4.3140    0.0000 C   0  0  0  0  0  0  0  0  0  0  0  0
    2.2718    4.3138    0.0000 C   0  0  0  0  0  0  0  0  0  0  0  0
    4.8702    5.8140    0.0000 O   0  0  0  0  0  0  0  0  0  0  0  0
    2.2715    5.8138    0.0000 O   0  0  0  0  0  0  0  0  0  0  0  0
    0.9729    3.5636    0.0000 O   0  0  0  0  0  0  0  0  0  0  0  0
  3  1  1  0
  5  4  2  0
  6  4  1  0
  7  5  1  0
  9  2  1  0
  9  3  1  0
  9  8  1  0
 10  6  2  0
 11  7  2  0
 11 10  1  0
 12 10  1  0
 13 11  1  0
 14 12  2  0
 15  8  1  0
 15 12  1  0
M  END
>  <NAME>  (796) 
2-METHYLBUTYL SALICYLATE

>  <SYNONYMS>  (796) 


>  <SPECTRUM TYPE>  (796) 
MS1

>  <INSTRUMENT TYPE>  (796) 
EI-B

>  <INSTRUMENT>  (796) 
HITACHI M-80B

>  <ION MODE>  (796) 
P

>  <INCHIKEY>  (796) 
LCMNCRZMVCRJNZ-UHFFFAOYSA-N

>  <FORMULA>  (796) 
C12H16O3

>  <EXACT MASS>  (796) 
208.109944372

>  <MW>  (796) 
208

>  <ID>  (796) 
JP010870

>  <CONTRIBUTOR>  (796) 
University of Tokyo Team, {Faculty of Engineering, University of Tokyo

>  <COMMENT>  (796) 
SMILES=CCC(C)COC(=O)c(c1)c(O)ccc1
InChI=InChI=1S/C12H16O3/c1-3-9(2)8-15-12(14)10-6-4-5-7-11(10)13/h4-7,9,13H,3,8H2,1-2H3
computed SMILES=O=C(OCC(C)CC)C=1C=CC=CC1O
accession=JP010870
date=2016.01.19 (Created 2008.10.21, modified 2011.05.06)
author=SODA AROMATIC CO., LTD.
license=CC BY-NC-SA
exact mass=208.10994
ionization energy=70 eV
ion type=[M]+*
computed spectral entropy=2.6628551697345397
computed normalized entropy=0.8272624713143671
SPLASH=splash10-00di-9700000000-570811aea3ab8c74ff00
submitter=submitter = University of Tokyo Team (Faculty of Engineering, University of Tokyo)
MoNA Rating=3.75

>  <NUM PEAKS>  (796) 
25

>  <MASS SPECTRAL PEAKS>  (796) 
27 10.6
29 15.5
38 1.6
39 20
41 15.4
42 4.1
43 36.1
53 3.2
55 12.5
57 1.8
63 4.3
64 6
65 21.5
66 1.6
70 16.1
71 7.8
92 19.6
93 8.9
120 99.99
121 37.3
122 2.5
138 38.9
139 4.2
208 9.5
209 1.1

>  <PREDICTED SPECTRUM>  (796) 
16 2
17 0
27 89
29 114
38 31
39 223
40 57
41 335
42 199
43 300
44 29
50 33
51 31
52 19
53 127
54 70
55 226
56 21
57 87
59 23
62 25
63 149
64 163
65 309
66 55
68 20
69 58
70 289
71 107
76 34
77 47
81 1
91 18
92 418
93 172
94 57
119 23
120 999
121 595
122 201
138 586
139 175
140 19
151 49
208 229
209 52

$$$$

     RDKit          2D

 14 13  0  0  0  0  0  0  0  0999 V2000
    2.8358    5.3873    0.0000 C   0  0  0  0  0  0  0  0  0  0  0  0
   -4.9584    3.8873    0.0000 C   0  0  0  0  0  0  0  0  0  0  0  0
   -8.3065    6.6863    0.0000 C   0  0  0  0  0  0  0  0  0  0  0  0
   -8.8555    4.6373    0.0000 C   0  0  0  0  0  0  0  0  0  0  0  0
   -6.8065    4.0882    0.0000 C   0  0  0  0  0  0  0  0  0  0  0  0
    1.5368    6.1373    0.0000 C   0  0  0  0  0  0  0  0  0  0  0  0
    0.2377    5.3873    0.0000 C   0  0  0  0  0  0  0  0  0  0  0  0
   -3.6594    6.1373    0.0000 C   0  0  0  0  0  0  0  0  0  0  0  0
   -6.2575    6.1373    0.0000 C   0  0  0  0  0  0  0  0  0  0  0  0
   -4.9584    5.3873    0.0000 C   0  0  0  0  0  0  0  0  0  0  0  0
   -2.3603    5.3873    0.0000 C   0  0  0  0  0  0  0  0  0  0  0  0
   -7.5565    5.3873    0.0000 C   0  0  0  0  0  0  0  0  0  0  0  0
   -2.3603    3.8873    0.0000 O   0  0  0  0  0  0  0  0  0  0  0  0
   -1.0613    6.1373    0.0000 O   0  0  0  0  0  0  0  0  0  0  0  0
  6  1  1  0
  7  6  1  0
 10  2  1  0
 10  8  1  0
 10  9  1  0
 11  8  1  0
 12  3  1  0
 12  4  1  0
 12  5  1  0
 12  9  1  0
 13 11  2  0
 14  7  1  0
 14 11  1  0
M  END
>  <NAME>  (797) 
PROPYL 3,5,5-TRIMETHYLHEXANOATE

>  <SYNONYMS>  (797) 


>  <SPECTRUM TYPE>  (797) 
MS1

>  <INSTRUMENT TYPE>  (797) 
EI-B

>  <INSTRUMENT>  (797) 
HITACHI M-80B

>  <ION MODE>  (797) 
P

>  <INCHIKEY>  (797) 
TXDNNEFZLUFLRT-UHFFFAOYSA-N

>  <FORMULA>  (797) 
C12H24O2

>  <EXACT MASS>  (797) 
200.177630008

>  <MW>  (797) 
200

>  <ID>  (797) 
JP010869

>  <CONTRIBUTOR>  (797) 
University of Tokyo Team, {Faculty of Engineering, University of Tokyo

>  <COMMENT>  (797) 
SMILES=CCCOC(=O)CC(C)CC(C)(C)C
InChI=InChI=1S/C12H24O2/c1-6-7-14-11(13)8-10(2)9-12(3,4)5/h10H,6-9H2,1-5H3
computed SMILES=O=C(OCCC)CC(C)CC(C)(C)C
accession=JP010869
date=2016.01.19 (Created 2008.10.21, modified 2011.05.06)
author=SODA AROMATIC CO., LTD.
license=CC BY-NC-SA
exact mass=200.17763
ionization energy=70 eV
ion type=[M]+*
computed spectral entropy=3.0442712279693285
computed normalized entropy=0.8252563592378375
SPLASH=splash10-06r6-9200000000-fe22d1a78cbb44eddd8e
submitter=submitter = University of Tokyo Team (Faculty of Engineering, University of Tokyo)
MoNA Rating=3.75

>  <NUM PEAKS>  (797) 
40

>  <MASS SPECTRAL PEAKS>  (797) 
15 1.6
27 18.3
29 21.5
31 3.1
39 12.4
41 60
42 14.6
43 41.7
45 2.2
53 2.7
55 21
56 20.4
57 99.99
58 3.7
59 7.3
60 39.4
61 72.5
62 1.5
67 2
69 7.8
71 7
73 1.3
81 1
83 50
84 3.4
87 5
97 5.4
98 1.5
101 11.3
102 52.4
103 16.8
125 7.6
129 1.2
141 28.2
142 2.7
143 14.1
144 8.1
145 3
159 3.7
185 4.5

>  <PREDICTED SPECTRUM>  (797) 
15 34
26 51
27 277
28 54
29 401
30 8
31 87
37 0
38 13
39 294
40 109
41 577
42 328
43 508
44 125
45 108
50 16
51 38
52 30
53 129
54 110
55 419
56 540
57 999
58 205
59 267
60 564
61 601
62 107
65 57
66 20
67 144
68 94
69 225
70 21
71 260
73 33
81 18
83 734
84 116
85 83
86 12
87 219
96 7
97 204
98 45
101 415
102 667
103 402
104 95
109 29
125 370
129 83
141 602
142 220
143 433
144 233
145 228
146 23
159 327
160 176
185 237
186 57

$$$$

     RDKit          2D

 10 10  0  0  0  0  0  0  0  0999 V2000
    3.5637    0.9495    0.0000 C   0  0  0  0  0  0  0  0  0  0  0  0
   -0.3238    1.6700    0.0000 C   0  0  0  0  0  0  0  0  0  0  0  0
    0.9712   -0.5730    0.0000 C   0  0  0  0  0  0  0  0  0  0  0  0
   -1.6229    0.9200    0.0000 C   0  0  0  0  0  0  0  0  0  0  0  0
   -0.3279   -1.3230    0.0000 C   0  0  0  0  0  0  0  0  0  0  0  0
    2.2610    1.6930    0.0000 C   0  0  0  0  0  0  0  0  0  0  0  0
    0.9657    0.9365    0.0000 C   0  0  0  0  0  0  0  0  0  0  0  0
   -1.6410   -0.5685    0.0000 C   0  0  0  0  0  0  0  0  0  0  0  0
   -2.9438   -1.3119    0.0000 Cl  0  0  0  0  0  0  0  0  0  0  0  0
    2.2534    3.1930    0.0000 O   0  0  0  0  0  0  0  0  0  0  0  0
  4  2  2  0
  5  3  1  0
  6  1  1  0
  7  2  1  0
  7  3  2  0
  7  6  1  0
  8  4  1  0
  8  5  2  0
  9  8  1  0
 10  6  2  0
M  END
>  <NAME>  (798) 
4-CHLOROACETOPHENONE

>  <SYNONYMS>  (798) 


>  <SPECTRUM TYPE>  (798) 
MS1

>  <INSTRUMENT TYPE>  (798) 
EI-B

>  <INSTRUMENT>  (798) 
HITACHI M-80B

>  <ION MODE>  (798) 
P

>  <INCHIKEY>  (798) 
BUZYGTVTZYSBCU-UHFFFAOYSA-N

>  <FORMULA>  (798) 
C8H7ClO

>  <EXACT MASS>  (798) 
154.018542524

>  <MW>  (798) 
154

>  <ID>  (798) 
JP010868

>  <CONTRIBUTOR>  (798) 
University of Tokyo Team, {Faculty of Engineering, University of Tokyo

>  <COMMENT>  (798) 
SMILES=CC(=O)c(c1)ccc(Cl)c1
InChI=InChI=1S/C8H7ClO/c1-6(10)7-2-4-8(9)5-3-7/h2-5H,1H3
computed SMILES=O=C(C1=CC=C(Cl)C=C1)C
license=CC BY-NC-SA
exact mass=154.01854
computed spectral entropy=2.7867931829788346
computed normalized entropy=0.777669444710531
accession=JP010868
date=2016.01.19 (Created 2008.10.21, modified 2011.05.06)
author=SODA AROMATIC CO., LTD.
ionization energy=70 eV
ion type=[M]+*
SPLASH=splash10-0gw3-5900000000-c2ec333c63739290965c
submitter=submitter = University of Tokyo Team (Faculty of Engineering, University of Tokyo)
MoNA Rating=3.75

>  <NUM PEAKS>  (798) 
36

>  <MASS SPECTRAL PEAKS>  (798) 
15 6.7
27 1.1
37 1.9
38 4.7
39 2.7
42 2.2
43 29.2
49 1.9
50 22.5
51 10.7
61 2.5
62 2.4
63 5.5
69 1.2
73 4.3
74 12
75 34.9
76 10
77 2.5
84 1.3
85 4.6
86 1.2
87 1.5
89 2.1
104 1.8
111 52.8
112 4.8
113 17.6
114 1.1
139 99.99
140 7.5
141 31.5
142 2
154 26.4
155 2
156 8.5

>  <PREDICTED SPECTRUM>  (798) 
14 53
15 167
16 19
17 4
18 31
25 13
26 51
27 83
28 77
29 79
34 7
35 52
36 70
37 129
38 186
39 244
40 99
41 63
42 115
43 794
44 137
45 74
47 39
48 11
49 129
50 469
51 381
52 102
53 104
55 51
57 27
61 163
62 209
63 379
64 151
65 148
66 23
68 2
69 34
72 73
73 211
74 362
75 666
76 367
77 233
78 32
82 4
83 2
84 138
85 269
86 125
87 70
89 126
91 92
92 8
97 23
98 54
99 42
102 17
104 22
110 95
111 583
112 152
113 261
114 50
125 43
126 4
139 999
140 253
141 637
142 136
154 493
155 136
156 265
157 67

$$$$

     RDKit          2D

 14 14  0  0  0  0  0  0  0  0999 V2000
   -6.8197    3.1321    0.0000 C   0  0  0  0  0  0  0  0  0  0  0  0
    3.5726    1.6321    0.0000 C   0  0  0  0  0  0  0  0  0  0  0  0
    3.5731    3.1329    0.0000 C   0  0  0  0  0  0  0  0  0  0  0  0
    2.2731    0.8813    0.0000 C   0  0  0  0  0  0  0  0  0  0  0  0
    2.2740    3.8829    0.0000 C   0  0  0  0  0  0  0  0  0  0  0  0
    0.9740    1.6313    0.0000 C   0  0  0  0  0  0  0  0  0  0  0  0
   -0.3245    3.8821    0.0000 C   0  0  0  0  0  0  0  0  0  0  0  0
   -4.2216    3.1321    0.0000 C   0  0  0  0  0  0  0  0  0  0  0  0
   -5.5207    3.8821    0.0000 C   0  0  0  0  0  0  0  0  0  0  0  0
    0.9745    3.1321    0.0000 C   0  0  0  0  0  0  0  0  0  0  0  0
   -1.6236    3.1321    0.0000 C   0  0  0  0  0  0  0  0  0  0  0  0
   -5.5207    5.3821    0.0000 O   0  0  0  0  0  0  0  0  0  0  0  0
   -1.6236    1.6321    0.0000 O   0  0  0  0  0  0  0  0  0  0  0  0
   -2.9226    3.8821    0.0000 O   0  0  0  0  0  0  0  0  0  0  0  0
  3  2  2  0
  4  2  1  0
  5  3  1  0
  6  4  2  0
  9  1  1  0
  9  8  1  0
 10  5  2  0
 10  6  1  0
 10  7  1  0
 11  7  1  0
 12  9  1  0
 13 11  2  0
 14  8  1  0
 14 11  1  0
M  END
>  <NAME>  (799) 
2-HYDROXYPROPYL PHENYLACETATE

>  <SYNONYMS>  (799) 


>  <SPECTRUM TYPE>  (799) 
MS1

>  <INSTRUMENT TYPE>  (799) 
EI-B

>  <INSTRUMENT>  (799) 
HITACHI M-80B

>  <ION MODE>  (799) 
P

>  <INCHIKEY>  (799) 
DMVWKGDEFQXZJS-UHFFFAOYSA-N

>  <FORMULA>  (799) 
C11H14O3

>  <EXACT MASS>  (799) 
194.094294308

>  <MW>  (799) 
194

>  <ID>  (799) 
JP010867

>  <CONTRIBUTOR>  (799) 
University of Tokyo Team, {Faculty of Engineering, University of Tokyo

>  <COMMENT>  (799) 
SMILES=CC(O)COC(=O)Cc(c1)cccc1
InChI=InChI=1S/C11H14O3/c1-9(12)8-14-11(13)7-10-5-3-2-4-6-10/h2-6,9,12H,7-8H2,1H3
computed SMILES=O=C(OCC(O)C)CC=1C=CC=CC1
accession=JP010867
date=2016.01.19 (Created 2008.10.21, modified 2011.05.06)
author=SODA AROMATIC CO., LTD.
license=CC BY-NC-SA
exact mass=194.09429
ionization energy=70 eV
ion type=[M]+*
computed spectral entropy=2.436582458560787
computed normalized entropy=0.7478545924364878
SPLASH=splash10-0006-9100000000-cc4f0872bf530f7658de
submitter=submitter = University of Tokyo Team (Faculty of Engineering, University of Tokyo)
MoNA Rating=3.75

>  <NUM PEAKS>  (799) 
26

>  <MASS SPECTRAL PEAKS>  (799) 
15 1.2
27 2.4
29 3.4
31 20.7
39 7.6
41 9
43 4.5
50 1.1
51 2.6
58 13.4
59 11.2
62 1
63 3.7
64 1.1
65 14.2
89 4.6
90 3
91 99.99
92 21.3
104 4.4
105 4.1
118 6.3
119 7.6
136 1.4
137 6.7
150 2.9

>  <PREDICTED SPECTRUM>  (799) 
15 12
16 5
17 8
18 11
19 21
26 41
27 170
28 49
29 184
30 43
31 129
38 40
39 232
40 83
41 258
42 128
43 240
44 81
45 239
46 39
50 63
51 130
52 70
53 66
54 16
55 113
57 113
58 165
59 214
60 41
61 6
62 46
63 181
64 57
65 392
66 62
70 3
71 28
72 60
73 56
74 24
75 84
76 27
77 92
78 41
79 37
83 31
85 18
89 134
90 96
91 999
92 490
93 44
103 159
104 75
105 35
117 10
118 225
119 162
121 3
136 128
149 3
150 128
194 96
195 14

$$$$

     RDKit          2D

 13 12  0  0  0  0  0  0  0  0999 V2000
    3.2476    4.8750    0.0000 C   0  0  0  0  0  0  0  0  0  0  0  0
   -8.4437    5.6250    0.0000 C   0  0  0  0  0  0  0  0  0  0  0  0
    1.9486    5.6250    0.0000 C   0  0  0  0  0  0  0  0  0  0  0  0
   -7.1447    4.8750    0.0000 C   0  0  0  0  0  0  0  0  0  0  0  0
   -1.9486    4.8750    0.0000 C   0  0  0  0  0  0  0  0  0  0  0  0
   -3.2476    5.6250    0.0000 C   0  0  0  0  0  0  0  0  0  0  0  0
   -0.6495    5.6250    0.0000 C   0  0  0  0  0  0  0  0  0  0  0  0
   -4.5466    4.8750    0.0000 C   0  0  0  0  0  0  0  0  0  0  0  0
   -3.2476    7.1250    0.0000 O   0  0  0  0  0  0  0  0  0  0  0  0
   -0.6495    7.1250    0.0000 O   0  0  0  0  0  0  0  0  0  0  0  0
   -4.5466    3.3750    0.0000 O   0  0  0  0  0  0  0  0  0  0  0  0
    0.6495    4.8750    0.0000 O   0  0  0  0  0  0  0  0  0  0  0  0
   -5.8457    5.6250    0.0000 O   0  0  0  0  0  0  0  0  0  0  0  0
  3  1  1  0
  4  2  1  0
  6  5  1  0
  7  5  1  0
  8  6  1  0
  9  6  1  0
 10  7  2  0
 11  8  2  0
 12  3  1  0
 12  7  1  0
 13  4  1  0
 13  8  1  0
M  END
>  <NAME>  (800) 
DIETHYL HYDROXYBUTANEDIOATE

>  <SYNONYMS>  (800) 


>  <SPECTRUM TYPE>  (800) 
MS1

>  <INSTRUMENT TYPE>  (800) 
EI-B

>  <INSTRUMENT>  (800) 
HITACHI M-80B

>  <ION MODE>  (800) 
P

>  <INCHIKEY>  (800) 
VKNUORWMCINMRB-UHFFFAOYSA-N

>  <FORMULA>  (800) 
C8H14O5

>  <EXACT MASS>  (800) 
190.08412354799998

>  <MW>  (800) 
190

>  <ID>  (800) 
JP010866

>  <CONTRIBUTOR>  (800) 
University of Tokyo Team, {Faculty of Engineering, University of Tokyo

>  <COMMENT>  (800) 
SMILES=CCOC(=O)CC(O)C(=O)OCC
InChI=InChI=1S/C8H14O5/c1-3-12-7(10)5-6(9)8(11)13-4-2/h6,9H,3-5H2,1-2H3
computed SMILES=O=C(OCC)CC(O)C(=O)OCC
accession=JP010866
date=2016.01.19 (Created 2008.10.21, modified 2011.05.06)
author=SODA AROMATIC CO., LTD.
license=CC BY-NC-SA
exact mass=190.08412
ionization energy=70 eV
ion type=[M]+*
computed spectral entropy=2.65825712984579
computed normalized entropy=0.7741022233204097
SPLASH=splash10-00vl-9200000000-0e2b63fa1358ecc4727d
submitter=submitter = University of Tokyo Team (Faculty of Engineering, University of Tokyo)
MoNA Rating=3.75

>  <NUM PEAKS>  (800) 
31

>  <MASS SPECTRAL PEAKS>  (800) 
15 4.9
19 4.7
26 3.2
27 26.3
29 61.1
30 1.8
31 5.4
42 8.2
43 47
44 19.6
45 14.9
47 10.9
55 3.9
60 5.2
61 1.4
69 1
71 99.99
72 7.1
73 2.3
75 17.9
87 1
88 5.7
89 37.8
90 2
100 1.3
116 3.8
117 86.5
118 8.4
127 3.8
144 2.2
145 8.7

>  <PREDICTED SPECTRUM>  (800) 
25 0
26 86
27 313
28 81
29 652
30 135
31 330
33 32
39 15
40 42
41 223
42 445
43 737
44 363
45 462
46 225
47 325
49 1
53 72
54 42
55 91
56 10
57 163
59 135
60 350
61 328
68 58
70 454
71 705
72 496
73 333
74 250
75 305
76 77
77 200
87 296
88 508
89 401
90 36
91 57
98 437
99 999
100 404
101 110
103 245
104 62
115 328
116 698
117 915
118 494
119 23
127 210
144 293
145 698
146 286
190 71
191 14

$$$$

     RDKit          2D

 16 16  0  0  0  0  0  0  0  0999 V2000
    5.5216    4.2579    0.0000 C   0  0  0  0  0  0  0  0  0  0  0  0
    4.2226    5.0079    0.0000 C   0  0  0  0  0  0  0  0  0  0  0  0
    2.9236    4.2579    0.0000 C   0  0  0  0  0  0  0  0  0  0  0  0
    1.6245    5.0079    0.0000 C   0  0  0  0  0  0  0  0  0  0  0  0
   -8.7678    6.5079    0.0000 C   0  0  0  0  0  0  0  0  0  0  0  0
   -8.7683    5.0071    0.0000 C   0  0  0  0  0  0  0  0  0  0  0  0
   -7.4683    7.2587    0.0000 C   0  0  0  0  0  0  0  0  0  0  0  0
    0.3255    4.2579    0.0000 C   0  0  0  0  0  0  0  0  0  0  0  0
   -7.4692    4.2571    0.0000 C   0  0  0  0  0  0  0  0  0  0  0  0
   -6.1692    6.5087    0.0000 C   0  0  0  0  0  0  0  0  0  0  0  0
   -0.9736    5.0079    0.0000 C   0  0  0  0  0  0  0  0  0  0  0  0
   -4.8707    4.2579    0.0000 C   0  0  0  0  0  0  0  0  0  0  0  0
   -3.5716    5.0079    0.0000 C   0  0  0  0  0  0  0  0  0  0  0  0
   -6.1697    5.0079    0.0000 C   0  0  0  0  0  0  0  0  0  0  0  0
   -2.2726    4.2579    0.0000 C   0  0  0  0  0  0  0  0  0  0  0  0
   -2.2726    2.7579    0.0000 O   0  0  0  0  0  0  0  0  0  0  0  0
  2  1  1  0
  3  2  1  0
  4  3  1  0
  6  5  2  0
  7  5  1  0
  8  4  1  0
  9  6  1  0
 10  7  2  0
 11  8  1  0
 13 12  1  0
 14  9  2  0
 14 10  1  0
 14 12  1  0
 15 11  1  0
 15 13  1  0
 16 15  2  0
M  END
>  <NAME>  (801) 
1-PHENYL-3-HEXANONE

>  <SYNONYMS>  (801) 


>  <SPECTRUM TYPE>  (801) 
MS1

>  <INSTRUMENT TYPE>  (801) 
EI-B

>  <INSTRUMENT>  (801) 
HITACHI M-80B

>  <ION MODE>  (801) 
P

>  <INCHIKEY>  (801) 
QQSUQZXKESWTCP-UHFFFAOYSA-N

>  <FORMULA>  (801) 
C15H22O

>  <EXACT MASS>  (801) 
218.167065324

>  <MW>  (801) 
218

>  <ID>  (801) 
JP010865

>  <CONTRIBUTOR>  (801) 
University of Tokyo Team, {Faculty of Engineering, University of Tokyo

>  <COMMENT>  (801) 
SMILES=CCCCCCC(=O)CCc(c1)cccc1
InChI=InChI=1S/C15H22O/c1-2-3-4-8-11-15(16)13-12-14-9-6-5-7-10-14/h5-7,9-10H,2-4,8,11-13H2,1H3
computed SMILES=O=C(CCC=1C=CC=CC1)CCCCCC
accession=JP010865
date=2016.01.19 (Created 2008.10.21, modified 2011.05.06)
author=SODA AROMATIC CO., LTD.
license=CC BY-NC-SA
exact mass=218.16707
ionization energy=70 eV
ion type=[M]+*
computed spectral entropy=3.096370043013431
computed normalized entropy=0.8134080842035079
SPLASH=splash10-0006-9500000000-1ddc24e2e190690adc84
submitter=submitter = University of Tokyo Team (Faculty of Engineering, University of Tokyo)
MoNA Rating=3.75

>  <NUM PEAKS>  (801) 
45

>  <MASS SPECTRAL PEAKS>  (801) 
27 14.8
29 15.7
39 9.4
41 24.5
42 4.6
43 66.8
44 1.5
50 1.2
51 6.7
52 1.4
53 1.9
55 9.2
56 1.3
57 9.5
63 1.8
65 10.7
69 1.8
70 1.2
77 14.9
78 7.3
79 9.4
85 13.3
89 1.6
91 99.99
92 9
94 2.2
95 6.4
96 8.3
103 7.4
104 17.4
105 67.3
106 7
113 28.1
114 2
115 1.6
129 1
130 26.2
131 3.1
133 26.2
134 2.4
148 20.1
149 2.3
161 3.2
218 5.6
219 1

>  <PREDICTED SPECTRUM>  (801) 
26 19
27 166
28 65
29 167
30 27
31 8
38 18
39 212
40 63
41 427
42 163
43 680
44 234
45 42
49 16
50 134
51 247
52 140
53 131
55 327
56 78
57 370
58 33
62 41
63 199
64 39
65 327
66 78
67 76
68 54
69 239
70 45
71 241
72 78
75 63
76 93
77 391
78 299
79 312
80 36
81 74
83 70
85 243
86 150
87 37
89 107
90 1
91 999
92 349
93 33
95 40
96 64
97 71
98 3
99 79
100 55
102 66
103 239
104 430
105 808
106 368
107 77
113 382
114 96
115 70
117 38
119 62
120 116
126 65
127 92
128 126
129 95
130 263
131 220
132 63
133 574
134 153
145 33
147 60
148 394
149 222
161 4
162 29
176 2
189 34
218 317
219 139
220 9

$$$$

     RDKit          2D

 22 21  0  0  0  0  0  0  0  0999 V2000
  -19.4856   11.2500    0.0000 C   0  0  0  0  0  0  0  0  0  0  0  0
  -18.1865   10.5000    0.0000 C   0  0  0  0  0  0  0  0  0  0  0  0
  -16.8875   11.2500    0.0000 C   0  0  0  0  0  0  0  0  0  0  0  0
  -15.5885   10.5000    0.0000 C   0  0  0  0  0  0  0  0  0  0  0  0
  -14.2894   11.2500    0.0000 C   0  0  0  0  0  0  0  0  0  0  0  0
  -12.9904   10.5000    0.0000 C   0  0  0  0  0  0  0  0  0  0  0  0
  -11.6913   11.2500    0.0000 C   0  0  0  0  0  0  0  0  0  0  0  0
  -10.3923   10.5000    0.0000 C   0  0  0  0  0  0  0  0  0  0  0  0
   -9.0933   11.2500    0.0000 C   0  0  0  0  0  0  0  0  0  0  0  0
   -7.7942   10.5000    0.0000 C   0  0  0  0  0  0  0  0  0  0  0  0
   -6.4952   11.2500    0.0000 C   0  0  0  0  0  0  0  0  0  0  0  0
   -5.1962   10.5000    0.0000 C   0  0  0  0  0  0  0  0  0  0  0  0
   -3.8971   11.2500    0.0000 C   0  0  0  0  0  0  0  0  0  0  0  0
   -2.5981   10.5000    0.0000 C   0  0  0  0  0  0  0  0  0  0  0  0
   -1.2990   11.2500    0.0000 C   0  0  0  0  0  0  0  0  0  0  0  0
    0.0000   10.5000    0.0000 C   0  0  0  0  0  0  0  0  0  0  0  0
    1.2990   11.2500    0.0000 C   0  0  0  0  0  0  0  0  0  0  0  0
    2.5981   10.5000    0.0000 C   0  0  0  0  0  0  0  0  0  0  0  0
    3.8971   11.2500    0.0000 C   0  0  0  0  0  0  0  0  0  0  0  0
    5.1962   10.5000    0.0000 C   0  0  0  0  0  0  0  0  0  0  0  0
    5.1962    9.0000    0.0000 O   0  0  0  0  0  0  0  0  0  0  0  0
    6.4952   11.2500    0.0000 O   0  0  0  0  0  0  0  0  0  0  0  0
  2  1  1  0
  3  2  1  0
  4  3  1  0
  5  4  1  0
  6  5  1  0
  7  6  1  0
  8  7  1  0
  9  8  1  0
 10  9  1  0
 11 10  1  0
 12 11  1  0
 13 12  1  0
 14 13  1  0
 15 14  1  0
 16 15  1  0
 17 16  1  0
 18 17  1  0
 19 18  1  0
 20 19  1  0
 21 20  2  0
 22 20  1  0
M  END
>  <NAME>  (802) 
EICOSANO1C ACID

>  <SYNONYMS>  (802) 


>  <SPECTRUM TYPE>  (802) 
MS1

>  <INSTRUMENT TYPE>  (802) 
EI-B

>  <INSTRUMENT>  (802) 
HITACHI M-80B

>  <ION MODE>  (802) 
P

>  <INCHIKEY>  (802) 
VKOBVWXKNCXXDE-UHFFFAOYSA-N

>  <FORMULA>  (802) 
C20H40O2

>  <EXACT MASS>  (802) 
312.30283052

>  <MW>  (802) 
312

>  <ID>  (802) 
JP010864

>  <CONTRIBUTOR>  (802) 
University of Tokyo Team, {Faculty of Engineering, University of Tokyo

>  <COMMENT>  (802) 
SMILES=CCCCCCCCCCCCCCCCCCCC(O)=O
InChI=InChI=1S/C20H40O2/c1-2-3-4-5-6-7-8-9-10-11-12-13-14-15-16-17-18-19-20(21)22/h2-19H2,1H3,(H,21,22)
computed SMILES=O=C(O)CCCCCCCCCCCCCCCCCCC
accession=JP010864
date=2016.01.19 (Created 2008.10.21, modified 2011.05.06)
author=SODA AROMATIC CO., LTD.
license=CC BY-NC-SA
exact mass=312.30283
ionization energy=70 eV
ion type=[M]+*
computed spectral entropy=3.346324726251209
computed normalized entropy=0.8076794377299176
SPLASH=splash10-0596-9100000000-53a544b7fbf2ee3b176a
submitter=submitter = University of Tokyo Team (Faculty of Engineering, University of Tokyo)
MoNA Rating=3.75

>  <NUM PEAKS>  (802) 
63

>  <MASS SPECTRAL PEAKS>  (802) 
27 9.3
39 7.1
41 67.7
42 12.5
43 99.99
45 6.6
53 4
54 5.5
55 66.5
56 12.4
57 81
58 1.2
59 2.2
60 79.8
61 21.5
67 7.8
68 6.3
69 28.6
70 8.6
71 29
72 2.9
73 87
74 6.7
79 1.9
81 6.2
82 5.8
83 22.3
84 9.8
85 19.5
87 14.3
88 2.1
95 4.3
96 4.3
97 17.3
98 10.7
99 6.3
101 6.6
102 2.4
109 1.7
110 1.8
112 3.4
113 3.9
115 9.1
116 5.1
125 4.6
126 1.2
127 2.1
129 24.5
130 2.7
139 1.8
141 1.2
143 2.8
157 3.3
171 5.1
185 6.6
199 1.3
213 5.7
227 4.1
241 1.8
255 1.2
269 9.4
270 1.7
283 1.5

>  <PREDICTED SPECTRUM>  (802) 
15 34
16 7
17 35
18 80
25 3
26 59
27 243
28 181
29 397
30 49
31 103
32 15
34 5
38 6
39 177
40 91
41 692
42 328
43 999
44 181
45 257
46 59
47 34
49 12
51 68
52 19
53 210
54 283
55 893
56 507
57 928
58 218
59 246
60 665
61 494
62 59
63 4
65 96
66 88
67 381
68 330
69 675
70 462
71 616
72 177
73 798
74 258
75 126
76 47
77 100
78 33
79 149
80 99
81 330
82 320
83 681
84 470
85 478
86 189
87 403
88 227
89 112
91 38
92 28
93 121
94 124
95 363
96 334
97 571
98 538
99 298
100 144
101 351
102 189
103 176
104 22
105 2
106 11
107 139
108 67
109 263
110 258
111 423
112 305
113 216
114 64
115 326
116 199
117 117
118 30
119 24
120 27
121 148
122 49
123 150
124 187
125 327
126 204
127 180
128 105
129 529
130 173
131 88
132 45
133 55
135 192
136 119
137 164
138 164
139 190
140 177
141 161
142 69
143 217
144 154
145 79
146 1
147 17
149 104
150 58
151 79
152 78
153 182
154 173
155 152
156 33
157 200
158 121
159 87
160 8
163 115
164 69
165 98
166 91
167 151
168 122
169 104
170 48
171 264
172 142
173 62
177 60
179 23
180 88
181 133
182 100
183 84
185 241
186 111
187 25
191 116
193 103
194 127
195 107
196 116
197 87
198 47
199 163
200 94
201 30
205 6
206 37
207 23
208 108
209 125
210 104
211 60
213 231
214 123
215 128
216 40
219 72
220 18
221 38
222 14
223 53
224 34
227 134
228 28
229 16
233 129
234 47
235 68
236 58
237 141
238 60
240 8
241 86
242 43
243 64
244 25
247 22
250 144
251 166
252 187
253 223
254 67
255 169
256 90
264 7
265 127
266 83
267 73
268 20
269 165
270 145
271 98
272 46
276 81
282 17
283 171
284 100
285 12
293 34
294 172
295 113
296 15
297 13
311 12
312 754
313 390
314 158
315 43

$$$$

     RDKit          2D

 14 13  0  0  0  0  0  0  0  0999 V2000
    2.2733    5.0625    0.0000 C   0  0  0  0  0  0  0  0  0  0  0  0
   -4.2219    2.8125    0.0000 C   0  0  0  0  0  0  0  0  0  0  0  0
   -8.1190    5.0625    0.0000 C   0  0  0  0  0  0  0  0  0  0  0  0
   -6.8200    2.8125    0.0000 C   0  0  0  0  0  0  0  0  0  0  0  0
    0.9743    5.8125    0.0000 C   0  0  0  0  0  0  0  0  0  0  0  0
   -2.9228    3.5625    0.0000 C   0  0  0  0  0  0  0  0  0  0  0  0
   -6.8200    5.8125    0.0000 C   0  0  0  0  0  0  0  0  0  0  0  0
   -5.5209    3.5625    0.0000 C   0  0  0  0  0  0  0  0  0  0  0  0
   -0.3248    5.0625    0.0000 C   0  0  0  0  0  0  0  0  0  0  0  0
   -1.6238    5.8125    0.0000 C   0  0  0  0  0  0  0  0  0  0  0  0
   -2.9228    5.0625    0.0000 C   0  0  0  0  0  0  0  0  0  0  0  0
   -4.2219    5.8125    0.0000 C   0  0  0  0  0  0  0  0  0  0  0  0
   -5.5209    5.0625    0.0000 N   0  0  0  0  0  0  0  0  0  0  0  0
   -4.2219    7.3125    0.0000 O   0  0  0  0  0  0  0  0  0  0  0  0
  5  1  1  0
  6  2  1  0
  7  3  1  0
  8  4  1  0
  9  5  1  0
 10  9  1  0
 11  6  1  0
 11 10  1  0
 12 11  1  0
 13  7  1  0
 13  8  1  0
 13 12  1  0
 14 12  2  0
M  END
>  <NAME>  (803) 
N,N-DIETHYL-2-ETHYLHEXANAMIDE

>  <SYNONYMS>  (803) 


>  <SPECTRUM TYPE>  (803) 
MS1

>  <INSTRUMENT TYPE>  (803) 
EI-B

>  <INSTRUMENT>  (803) 
HITACHI M-80B

>  <ION MODE>  (803) 
P

>  <INCHIKEY>  (803) 
LYGCLXFQIQORSE-UHFFFAOYSA-N

>  <FORMULA>  (803) 
C12H25NO

>  <EXACT MASS>  (803) 
199.19361442

>  <MW>  (803) 
199

>  <ID>  (803) 
JP010863

>  <CONTRIBUTOR>  (803) 
University of Tokyo Team, {Faculty of Engineering, University of Tokyo

>  <COMMENT>  (803) 
SMILES=CCCCC(CC)C(=O)N(CC)CC
InChI=InChI=1S/C12H25NO/c1-5-9-10-11(6-2)12(14)13(7-3)8-4/h11H,5-10H2,1-4H3
computed SMILES=O=C(N(CC)CC)C(CC)CCCC
accession=JP010863
date=2016.01.19 (Created 2008.10.21, modified 2011.05.06)
author=SODA AROMATIC CO., LTD.
license=CC BY-NC-SA
exact mass=199.19361
ionization energy=70 eV
ion type=[M]+*
computed spectral entropy=3.3185338338826913
computed normalized entropy=0.8319245690493438
SPLASH=splash10-054o-9500000000-349a5b1b26e0197831cb
submitter=submitter = University of Tokyo Team (Faculty of Engineering, University of Tokyo)
MoNA Rating=3.75

>  <NUM PEAKS>  (803) 
54

>  <MASS SPECTRAL PEAKS>  (803) 
15 2
18 1.7
26 1.2
27 22
28 22.7
29 60
30 6
39 8.2
41 35.7
42 16.2
43 28.6
44 27
53 2.9
54 2.7
55 23.7
56 11.5
57 99.99
58 65
59 2.3
67 1.7
68 1.8
69 8.7
70 8.3
71 2
72 57.6
73 20.6
74 8.9
81 1.1
83 5.8
84 2
86 2.2
87 2.8
97 2.1
98 6
99 4.6
100 59.4
101 3.6
112 2.2
114 4.8
115 24.3
116 1.4
126 1.9
127 2
128 46.8
129 8.4
142 22.8
143 79.7
144 5.9
156 23.8
157 3
170 19.6
171 5
184 4.3
199 3.9

>  <PREDICTED SPECTRUM>  (803) 
15 14
26 24
27 279
28 170
29 507
30 306
31 18
39 99
40 86
41 506
42 373
43 470
44 553
45 122
46 20
49 12
51 17
53 187
54 122
55 385
56 374
57 781
58 999
59 204
60 18
67 125
68 73
69 365
70 208
71 316
72 963
73 331
74 289
81 92
82 119
83 168
84 94
85 45
86 38
87 255
88 126
89 35
95 5
96 49
97 122
98 224
99 253
100 820
101 323
102 107
109 24
112 13
114 184
115 261
126 306
127 330
128 621
129 214
140 15
142 248
143 589
144 497
145 118
156 487
157 271
158 0
170 301
171 132
172 67
184 86
185 15
198 82
199 208
200 64

$$$$

     RDKit          2D

 15 15  0  0  0  0  0  0  0  0999 V2000
    4.8721    3.8829    0.0000 C   0  0  0  0  0  0  0  0  0  0  0  0
    3.5731    3.1329    0.0000 C   0  0  0  0  0  0  0  0  0  0  0  0
    2.2740    3.8829    0.0000 C   0  0  0  0  0  0  0  0  0  0  0  0
   -8.1183    5.3829    0.0000 C   0  0  0  0  0  0  0  0  0  0  0  0
   -8.1187    3.8821    0.0000 C   0  0  0  0  0  0  0  0  0  0  0  0
   -6.8187    6.1337    0.0000 C   0  0  0  0  0  0  0  0  0  0  0  0
   -6.8197    3.1321    0.0000 C   0  0  0  0  0  0  0  0  0  0  0  0
   -5.5197    5.3837    0.0000 C   0  0  0  0  0  0  0  0  0  0  0  0
    0.9750    3.1329    0.0000 C   0  0  0  0  0  0  0  0  0  0  0  0
   -4.2212    3.1329    0.0000 C   0  0  0  0  0  0  0  0  0  0  0  0
   -2.9221    3.8829    0.0000 C   0  0  0  0  0  0  0  0  0  0  0  0
   -5.5202    3.8829    0.0000 C   0  0  0  0  0  0  0  0  0  0  0  0
   -0.3240    3.8829    0.0000 C   0  0  0  0  0  0  0  0  0  0  0  0
   -0.3240    5.3829    0.0000 O   0  0  0  0  0  0  0  0  0  0  0  0
   -1.6231    3.1329    0.0000 O   0  0  0  0  0  0  0  0  0  0  0  0
  2  1  1  0
  3  2  1  0
  5  4  2  0
  6  4  1  0
  7  5  1  0
  8  6  2  0
  9  3  1  0
 11 10  1  0
 12  7  2  0
 12  8  1  0
 12 10  1  0
 13  9  1  0
 14 13  2  0
 15 11  1  0
 15 13  1  0
M  END
>  <NAME>  (804) 
PHENETHYL VALERATE

>  <SYNONYMS>  (804) 


>  <SPECTRUM TYPE>  (804) 
MS1

>  <INSTRUMENT TYPE>  (804) 
EI-B

>  <INSTRUMENT>  (804) 
HITACHI M-80B

>  <ION MODE>  (804) 
P

>  <INCHIKEY>  (804) 
PDGPIBIURNPBSE-UHFFFAOYSA-N

>  <FORMULA>  (804) 
C13H18O2

>  <EXACT MASS>  (804) 
206.130679816

>  <MW>  (804) 
206

>  <ID>  (804) 
JP010862

>  <CONTRIBUTOR>  (804) 
University of Tokyo Team, {Faculty of Engineering, University of Tokyo

>  <COMMENT>  (804) 
SMILES=CCCCC(=O)OCCc(c1)cccc1
InChI=InChI=1S/C13H18O2/c1-2-3-9-13(14)15-11-10-12-7-5-4-6-8-12/h4-8H,2-3,9-11H2,1H3
computed SMILES=O=C(OCCC=1C=CC=CC1)CCCC
license=CC BY-NC-SA
accession=JP010862
date=2016.01.19 (Created 2008.10.21, modified 2011.05.06)
author=SODA AROMATIC CO., LTD.
exact mass=206.13068
ionization energy=70 eV
ion type=[M]+*
computed spectral entropy=2.1585348938175204
computed normalized entropy=0.6884193511987953
SPLASH=splash10-0udi-7900000000-a77ae227e5011e89cd18
submitter=submitter = University of Tokyo Team (Faculty of Engineering, University of Tokyo)
MoNA Rating=3.75

>  <NUM PEAKS>  (804) 
23

>  <MASS SPECTRAL PEAKS>  (804) 
14 1.3
27 5.4
29 10.6
39 4.3
41 9.1
42 1.6
43 1.3
50 1
51 2.9
55 2.4
57 22.1
63 1.1
65 3.4
77 5.3
78 2.9
79 3.4
85 14.1
91 6
92 1.1
103 3.5
104 99.99
105 20.3
106 1.3

>  <PREDICTED SPECTRUM>  (804) 
26 15
27 130
28 20
29 117
38 14
39 172
40 40
41 183
42 101
43 116
44 49
49 5
50 75
51 142
52 89
53 109
54 90
55 196
56 142
57 220
61 20
62 5
63 82
64 29
65 169
66 48
67 46
69 45
74 26
75 52
76 42
77 154
78 168
79 160
80 69
81 66
83 47
84 67
85 233
86 137
89 48
91 286
92 119
102 28
103 139
104 999
105 475
106 112
107 30
122 6

$$$$

     RDKit          2D

 12 12  0  0  0  0  0  0  0  0999 V2000
   -3.9015    3.0051    0.0000 C   0  0  0  0  0  0  0  0  0  0  0  0
   -2.5987    3.7487    0.0000 C   0  0  0  0  0  0  0  0  0  0  0  0
    2.5937    3.7296    0.0000 C   0  0  0  0  0  0  0  0  0  0  0  0
    1.2801    1.5047    0.0000 C   0  0  0  0  0  0  0  0  0  0  0  0
    3.8782    3.0047    0.0000 C   0  0  0  0  0  0  0  0  0  0  0  0
    2.6046    0.7106    0.0000 C   0  0  0  0  0  0  0  0  0  0  0  0
    1.2946    2.9796    0.0000 C   0  0  0  0  0  0  0  0  0  0  0  0
    3.9037    1.4606    0.0000 C   0  0  0  0  0  0  0  0  0  0  0  0
   -0.0007    3.7360    0.0000 C   0  0  0  0  0  0  0  0  0  0  0  0
    5.2088    0.7213    0.0000 O   0  0  0  0  0  0  0  0  0  0  0  0
    0.0067    5.2359    0.0000 O   0  0  0  0  0  0  0  0  0  0  0  0
   -1.3034    2.9924    0.0000 O   0  0  0  0  0  0  0  0  0  0  0  0
  2  1  1  0
  5  3  2  0
  6  4  1  0
  7  3  1  0
  7  4  2  0
  8  5  1  0
  8  6  2  0
  9  7  1  0
 10  8  1  0
 11  9  2  0
 12  2  1  0
 12  9  1  0
M  END
>  <NAME>  (805) 
ETHYL 4-HYDROXYBEZOATE

>  <SYNONYMS>  (805) 


>  <SPECTRUM TYPE>  (805) 
MS1

>  <INSTRUMENT TYPE>  (805) 
EI-B

>  <INSTRUMENT>  (805) 
HITACHI M-80B

>  <ION MODE>  (805) 
P

>  <INCHIKEY>  (805) 
NUVBSKCKDOMJSU-UHFFFAOYSA-N

>  <FORMULA>  (805) 
C9H10O3

>  <EXACT MASS>  (805) 
166.06299417999998

>  <MW>  (805) 
166

>  <ID>  (805) 
JP010861

>  <CONTRIBUTOR>  (805) 
University of Tokyo Team, {Faculty of Engineering, University of Tokyo

>  <COMMENT>  (805) 
SMILES=CCOC(=O)c(c1)ccc(O)c1
InChI=InChI=1S/C9H10O3/c1-2-12-9(11)7-3-5-8(10)6-4-7/h3-6,10H,2H2,1H3
computed SMILES=O=C(OCC)C1=CC=C(O)C=C1
accession=JP010861
date=2016.01.19 (Created 2008.10.21, modified 2011.05.06)
author=SODA AROMATIC CO., LTD.
license=CC BY-NC-SA
exact mass=166.06299
ionization energy=70 eV
ion type=[M]+*
computed spectral entropy=2.2923390924722336
computed normalized entropy=0.7121551800048376
SPLASH=splash10-00di-6900000000-6a0e4e400b0c9ced0ae9
submitter=submitter = University of Tokyo Team (Faculty of Engineering, University of Tokyo)
MoNA Rating=3.75

>  <NUM PEAKS>  (805) 
25

>  <MASS SPECTRAL PEAKS>  (805) 
15 1.4
26 1.8
27 7.9
29 6
38 3
39 17
50 1.9
51 1.5
53 3.1
62 1.8
63 7
64 3.4
65 21.6
66 1.8
75 1.1
81 1.2
92 2.6
93 15.3
94 1.4
121 99.99
122 10.4
138 18
139 1.1
166 18.5
167 1.4

>  <PREDICTED SPECTRUM>  (805) 
14 28
15 65
18 5
25 9
26 122
27 347
28 122
29 482
30 0
36 24
37 125
38 211
39 427
40 126
41 128
42 14
43 124
44 21
45 222
49 0
50 215
51 215
52 107
53 237
54 66
55 105
61 44
62 170
63 356
64 242
65 606
66 235
67 49
68 11
74 95
75 151
76 163
77 92
78 61
80 6
81 123
82 44
83 7
91 38
92 231
93 448
94 205
95 91
105 16
109 66
110 120
120 52
121 999
122 321
123 152
124 13
137 34
138 593
139 248
140 20
149 13
151 185
152 65
165 2
166 603
167 188
168 22

$$$$

     RDKit          2D

  8  8  0  0  0  0  0  0  0  0999 V2000
   -2.6070    1.5036    0.0000 C   0  0  0  0  0  0  0  0  0  0  0  0
   -0.0127    1.4972    0.0000 C   0  0  0  0  0  0  0  0  0  0  0  0
   -1.3262   -0.7277    0.0000 C   0  0  0  0  0  0  0  0  0  0  0  0
    1.2718    0.7723    0.0000 C   0  0  0  0  0  0  0  0  0  0  0  0
   -0.0017   -1.5218    0.0000 C   0  0  0  0  0  0  0  0  0  0  0  0
   -1.3117    0.7472    0.0000 C   0  0  0  0  0  0  0  0  0  0  0  0
    1.2973   -0.7718    0.0000 C   0  0  0  0  0  0  0  0  0  0  0  0
    2.6025   -1.5111    0.0000 O   0  0  0  0  0  0  0  0  0  0  0  0
  4  2  1  0
  5  3  1  0
  6  1  1  0
  6  2  1  0
  6  3  1  0
  7  4  1  0
  7  5  1  0
  8  7  2  0
M  END
>  <NAME>  (806) 
4-METHYLCYCLOHEXANONE

>  <SYNONYMS>  (806) 


>  <SPECTRUM TYPE>  (806) 
MS1

>  <INSTRUMENT TYPE>  (806) 
EI-B

>  <INSTRUMENT>  (806) 
HITACHI M-80B

>  <ION MODE>  (806) 
P

>  <INCHIKEY>  (806) 
VGVHNLRUAMRIEW-UHFFFAOYSA-N

>  <FORMULA>  (806) 
C7H12O

>  <EXACT MASS>  (806) 
112.088815004

>  <MW>  (806) 
112

>  <ID>  (806) 
JP010860

>  <CONTRIBUTOR>  (806) 
University of Tokyo Team, {Faculty of Engineering, University of Tokyo

>  <COMMENT>  (806) 
SMILES=CC(C1)CCC(=O)C1
InChI=InChI=1S/C7H12O/c1-6-2-4-7(8)5-3-6/h6H,2-5H2,1H3
computed SMILES=O=C1CCC(C)CC1
ionization energy=70 eV
accession=JP010860
date=2016.01.19 (Created 2008.10.21, modified 2011.05.06)
author=SODA AROMATIC CO., LTD.
license=CC BY-NC-SA
exact mass=112.08882
ion type=[M]+*
computed spectral entropy=2.8401290607715066
computed normalized entropy=0.8350380004654548
SPLASH=splash10-0a4i-9000000000-66232bcf6ffeb21e358d
submitter=submitter = University of Tokyo Team (Faculty of Engineering, University of Tokyo)
MoNA Rating=3.75

>  <NUM PEAKS>  (806) 
30

>  <MASS SPECTRAL PEAKS>  (806) 
15 1.5
26 4.2
27 26.1
28 5.2
29 14.5
38 1.6
39 23.6
40 3.7
41 47.9
42 20
43 7.8
50 2.3
51 3.9
52 1.4
53 6.8
54 3.2
55 99.99
56 39.8
57 17.6
67 3.3
68 5.9
69 12.1
70 15.4
79 4.4
83 24.3
84 16.3
94 6.9
97 5.8
112 33.6
113 3.4

>  <PREDICTED SPECTRUM>  (806) 
26 83
27 258
28 157
29 121
37 19
38 64
39 312
40 166
41 656
42 493
43 199
44 36
49 2
50 105
51 179
52 138
53 349
54 346
55 999
56 738
57 289
58 104
63 100
65 119
66 94
67 302
68 376
69 522
70 431
71 78
77 117
78 4
79 238
81 162
82 162
83 422
84 345
85 36
94 54
95 82
97 135
112 501
113 98

$$$$

     RDKit          2D

 10 10  0  0  0  0  0  0  0  0999 V2000
   -6.0284    0.0637    0.0000 C   0  0  0  0  0  0  0  0  0  0  0  0
   -4.6006   -0.3962    0.0000 C   0  0  0  0  0  0  0  0  0  0  0  0
   -3.4884    0.6102    0.0000 C   0  0  0  0  0  0  0  0  0  0  0  0
    0.2615    3.2525    0.0000 C   0  0  0  0  0  0  0  0  0  0  0  0
   -2.0607    0.1503    0.0000 C   0  0  0  0  0  0  0  0  0  0  0  0
   -1.1142    2.6496    0.0000 C   0  0  0  0  0  0  0  0  0  0  0  0
    1.2613    2.1441    0.0000 C   0  0  0  0  0  0  0  0  0  0  0  0
   -0.9485    1.1567    0.0000 C   0  0  0  0  0  0  0  0  0  0  0  0
    0.5113    0.8451    0.0000 C   0  0  0  0  0  0  0  0  0  0  0  0
    1.1208   -0.5255    0.0000 O   0  0  0  0  0  0  0  0  0  0  0  0
  2  1  1  0
  3  2  1  0
  5  3  1  0
  6  4  1  0
  7  4  1  0
  8  5  1  0
  8  6  1  0
  9  7  1  0
  9  8  1  0
 10  9  2  0
M  END
>  <NAME>  (807) 
2-BUTYLCYCLOPENANONE

>  <SYNONYMS>  (807) 


>  <SPECTRUM TYPE>  (807) 
MS1

>  <INSTRUMENT TYPE>  (807) 
EI-B

>  <INSTRUMENT>  (807) 
HITACHI M-80B

>  <ION MODE>  (807) 
P

>  <INCHIKEY>  (807) 
ZAQYRXDJFINJJE-UHFFFAOYSA-N

>  <FORMULA>  (807) 
C9H16O

>  <EXACT MASS>  (807) 
140.120115132

>  <MW>  (807) 
140

>  <ID>  (807) 
JP010859

>  <CONTRIBUTOR>  (807) 
University of Tokyo Team, {Faculty of Engineering, University of Tokyo

>  <COMMENT>  (807) 
SMILES=CCCCC(C1)C(=O)CC1
InChI=InChI=1S/C9H16O/c1-2-3-5-8-6-4-7-9(8)10/h8H,2-7H2,1H3
computed SMILES=O=C1CCCC1CCCC
accession=JP010859
date=2016.01.19 (Created 2008.10.21, modified 2011.05.06)
author=SODA AROMATIC CO., LTD.
license=CC BY-NC-SA
exact mass=140.12012
ionization energy=70 eV
ion type=[M]+*
computed spectral entropy=2.6055687542571495
computed normalized entropy=0.7819354263223632
SPLASH=splash10-001i-9000000000-b6d0f3b52bbfdb43b0e2
submitter=submitter = University of Tokyo Team (Faculty of Engineering, University of Tokyo)
MoNA Rating=3.75

>  <NUM PEAKS>  (807) 
28

>  <MASS SPECTRAL PEAKS>  (807) 
26 1.1
27 15.4
28 2.6
29 11.2
39 14.2
40 1.4
41 29
42 11.8
43 9.2
51 1.1
53 4.4
54 5.7
55 23.1
56 14.5
57 1.5
67 3.7
68 1.3
69 8.1
70 3.1
79 1.1
81 1.6
83 18.8
84 99.99
85 6.1
97 12
98 3.3
111 1.6
140 7.1

>  <PREDICTED SPECTRUM>  (807) 
27 7
29 0
39 186
40 98
41 419
42 254
43 284
44 67
50 0
51 81
52 13
53 157
54 135
55 501
56 359
57 151
65 23
66 14
67 184
68 197
69 454
70 313
71 75
81 105
82 69
83 571
84 999
85 189
95 106
96 16
97 444
98 131
111 120
112 123
125 69
140 292
141 66

$$$$

     RDKit          2D

 12 12  0  0  0  0  0  0  0  0999 V2000
   -8.1700    0.7537    0.0000 C   0  0  0  0  0  0  0  0  0  0  0  0
   -6.7423    0.2937    0.0000 C   0  0  0  0  0  0  0  0  0  0  0  0
   -5.6300    1.3002    0.0000 C   0  0  0  0  0  0  0  0  0  0  0  0
   -4.2023    0.8402    0.0000 C   0  0  0  0  0  0  0  0  0  0  0  0
   -3.0901    1.8467    0.0000 C   0  0  0  0  0  0  0  0  0  0  0  0
    0.6599    4.4890    0.0000 C   0  0  0  0  0  0  0  0  0  0  0  0
   -1.6624    1.3867    0.0000 C   0  0  0  0  0  0  0  0  0  0  0  0
   -0.7159    3.8861    0.0000 C   0  0  0  0  0  0  0  0  0  0  0  0
    1.6596    3.3806    0.0000 C   0  0  0  0  0  0  0  0  0  0  0  0
   -0.5501    2.3932    0.0000 C   0  0  0  0  0  0  0  0  0  0  0  0
    0.9096    2.0816    0.0000 C   0  0  0  0  0  0  0  0  0  0  0  0
    1.5191    0.7110    0.0000 O   0  0  0  0  0  0  0  0  0  0  0  0
  2  1  1  0
  3  2  1  0
  4  3  1  0
  5  4  1  0
  7  5  1  0
  8  6  1  0
  9  6  1  0
 10  7  1  0
 10  8  1  0
 11  9  1  0
 11 10  1  0
 12 11  2  0
M  END
>  <NAME>  (808) 
2-HEXYLCYCLOPENTANONE

>  <SYNONYMS>  (808) 


>  <SPECTRUM TYPE>  (808) 
MS1

>  <INSTRUMENT TYPE>  (808) 
EI-B

>  <INSTRUMENT>  (808) 
HITACHI M-80B

>  <ION MODE>  (808) 
P

>  <INCHIKEY>  (808) 
JTHVYOIHZNYRCC-UHFFFAOYSA-N

>  <FORMULA>  (808) 
C11H20O

>  <EXACT MASS>  (808) 
168.15141526

>  <MW>  (808) 
168

>  <ID>  (808) 
JP010858

>  <CONTRIBUTOR>  (808) 
University of Tokyo Team, {Faculty of Engineering, University of Tokyo

>  <COMMENT>  (808) 
SMILES=CCCCCCC(C1)C(=O)CC1
InChI=InChI=1S/C11H20O/c1-2-3-4-5-7-10-8-6-9-11(10)12/h10H,2-9H2,1H3
computed SMILES=O=C1CCCC1CCCCCC
accession=JP010858
date=2016.01.19 (Created 2008.10.21, modified 2011.05.06)
author=SODA AROMATIC CO., LTD.
license=CC BY-NC-SA
exact mass=168.15142
ionization energy=70 eV
ion type=[M]+*
computed spectral entropy=2.3779096199114327
computed normalized entropy=0.758384310782975
SPLASH=splash10-001i-9000000000-34710dae7a298d97e762
submitter=submitter = University of Tokyo Team (Faculty of Engineering, University of Tokyo)
MoNA Rating=3.75

>  <NUM PEAKS>  (808) 
23

>  <MASS SPECTRAL PEAKS>  (808) 
27 10.1
29 10.5
39 9.4
41 26.1
42 6.5
43 9.9
53 3.5
54 4.2
55 17.1
56 6.7
57 1.7
67 3.6
68 1.3
69 5.8
70 3.4
79 1
82 1.1
83 13.4
84 99.99
85 5.3
97 14.3
98 1.4
168 4.3

>  <PREDICTED SPECTRUM>  (808) 
26 6
27 107
28 22
29 93
38 9
39 209
40 81
41 401
42 226
43 268
51 63
52 21
53 163
54 116
55 522
56 278
57 200
65 32
66 62
67 183
68 101
69 382
70 158
77 6
79 49
80 5
81 175
82 76
83 404
84 999
85 196
95 0
96 23
97 469
98 51
111 91
121 14
125 47
168 251
169 60

$$$$

     RDKit          2D

 15 15  0  0  0  0  0  0  0  0999 V2000
    3.4324    3.5640    0.0000 C   0  0  0  0  0  0  0  0  0  0  0  0
    2.1352    2.8108    0.0000 C   0  0  0  0  0  0  0  0  0  0  0  0
    0.8343    3.5576    0.0000 C   0  0  0  0  0  0  0  0  0  0  0  0
   -0.4628    2.8043    0.0000 C   0  0  0  0  0  0  0  0  0  0  0  0
   -1.7637    3.5511    0.0000 C   0  0  0  0  0  0  0  0  0  0  0  0
   -3.0609    2.7979    0.0000 C   0  0  0  0  0  0  0  0  0  0  0  0
   -4.3618    3.5446    0.0000 C   0  0  0  0  0  0  0  0  0  0  0  0
   -5.6590    2.7914    0.0000 C   0  0  0  0  0  0  0  0  0  0  0  0
   -9.8763    0.9865    0.0000 C   0  0  0  0  0  0  0  0  0  0  0  0
   -6.9599    3.5382    0.0000 C   0  0  0  0  0  0  0  0  0  0  0  0
   -8.4053    1.2902    0.0000 C   0  0  0  0  0  0  0  0  0  0  0  0
  -10.6238    2.2785    0.0000 C   0  0  0  0  0  0  0  0  0  0  0  0
   -8.2570    2.7849    0.0000 C   0  0  0  0  0  0  0  0  0  0  0  0
   -9.6201    3.3933    0.0000 C   0  0  0  0  0  0  0  0  0  0  0  0
   -9.9313    4.8606    0.0000 O   0  0  0  0  0  0  0  0  0  0  0  0
  2  1  1  0
  3  2  1  0
  4  3  1  0
  5  4  1  0
  6  5  1  0
  7  6  1  0
  8  7  1  0
 10  8  1  0
 11  9  1  0
 12  9  1  0
 13 10  1  0
 13 11  1  0
 14 12  1  0
 14 13  1  0
 15 14  2  0
M  END
>  <NAME>  (809) 
2-NONYLCYCLOPENTANONE

>  <SYNONYMS>  (809) 


>  <SPECTRUM TYPE>  (809) 
MS1

>  <INSTRUMENT TYPE>  (809) 
EI-B

>  <INSTRUMENT>  (809) 
HITACHI M-80B

>  <ION MODE>  (809) 
P

>  <INCHIKEY>  (809) 
XEOVFHLZQOKWSG-UHFFFAOYSA-N

>  <FORMULA>  (809) 
C14H26O

>  <EXACT MASS>  (809) 
210.198365452

>  <MW>  (809) 
210

>  <ID>  (809) 
JP010857

>  <CONTRIBUTOR>  (809) 
University of Tokyo Team, {Faculty of Engineering, University of Tokyo

>  <COMMENT>  (809) 
SMILES=CCCCCCCCCC(C1)C(=O)CC1
InChI=InChI=1S/C14H26O/c1-2-3-4-5-6-7-8-10-13-11-9-12-14(13)15/h13H,2-12H2,1H3
computed SMILES=O=C1CCCC1CCCCCCCCC
accession=JP010857
date=2016.01.19 (Created 2008.10.21, modified 2011.05.06)
author=SODA AROMATIC CO., LTD.
license=CC BY-NC-SA
exact mass=210.19837
ionization energy=70 eV
ion type=[M]+*
computed spectral entropy=2.220127406725243
computed normalized entropy=0.7080629890644995
SPLASH=splash10-001i-9000000000-21053d779ed3d13ea6bb
submitter=submitter = University of Tokyo Team (Faculty of Engineering, University of Tokyo)
MoNA Rating=3.75

>  <NUM PEAKS>  (809) 
23

>  <MASS SPECTRAL PEAKS>  (809) 
27 5
29 8
39 4.6
41 20
42 3.5
43 9.7
53 1.8
54 3.1
55 13.5
56 3.6
57 3
67 3.4
68 1.1
69 5.2
70 1.5
79 1.1
81 1.2
83 9.5
84 99.99
85 5.9
97 14
98 1.6
210 3.4

>  <PREDICTED SPECTRUM>  (809) 
27 116
28 40
29 141
39 176
40 67
41 511
42 255
43 354
51 33
53 119
54 162
55 552
56 274
57 222
65 18
67 208
68 163
69 291
70 238
71 72
79 23
80 6
81 183
82 204
83 385
84 999
85 50
97 325
98 157
99 2
110 124
111 198
122 16
139 29
210 298
211 80

$$$$

     RDKit          2D

 11 11  0  0  0  0  0  0  0  0999 V2000
   -3.5736    2.4379    0.0000 C   0  0  0  0  0  0  0  0  0  0  0  0
   -2.2747    3.1881    0.0000 C   0  0  0  0  0  0  0  0  0  0  0  0
   -0.9755    2.4383    0.0000 C   0  0  0  0  0  0  0  0  0  0  0  0
    2.9226    0.1870    0.0000 C   0  0  0  0  0  0  0  0  0  0  0  0
    4.2216    0.9370    0.0000 C   0  0  0  0  0  0  0  0  0  0  0  0
    0.3234    3.1885    0.0000 C   0  0  0  0  0  0  0  0  0  0  0  0
    1.6230    0.9379    0.0000 C   0  0  0  0  0  0  0  0  0  0  0  0
    4.2211    2.4379    0.0000 C   0  0  0  0  0  0  0  0  0  0  0  0
    1.6226    2.4387    0.0000 C   0  0  0  0  0  0  0  0  0  0  0  0
    2.9216    3.1887    0.0000 C   0  0  0  0  0  0  0  0  0  0  0  0
    2.9218    4.6887    0.0000 O   0  0  0  0  0  0  0  0  0  0  0  0
  2  1  1  0
  3  2  1  0
  5  4  1  0
  6  3  1  0
  7  4  1  0
  8  5  1  0
  9  6  1  0
  9  7  1  0
 10  8  1  0
 10  9  1  0
 11 10  2  0
M  END
>  <NAME>  (810) 
2-BUTYLCYCLOHEXANONE

>  <SYNONYMS>  (810) 


>  <SPECTRUM TYPE>  (810) 
MS1

>  <INSTRUMENT TYPE>  (810) 
EI-B

>  <INSTRUMENT>  (810) 
HITACHI M-80B

>  <ION MODE>  (810) 
P

>  <INCHIKEY>  (810) 
POYYYXPQBFPUKS-UHFFFAOYSA-N

>  <FORMULA>  (810) 
C10H18O

>  <EXACT MASS>  (810) 
154.135765196

>  <MW>  (810) 
154

>  <ID>  (810) 
JP010856

>  <CONTRIBUTOR>  (810) 
University of Tokyo Team, {Faculty of Engineering, University of Tokyo

>  <COMMENT>  (810) 
SMILES=CCCCC(C1)C(=O)CCC1
InChI=InChI=1S/C10H18O/c1-2-3-6-9-7-4-5-8-10(9)11/h9H,2-8H2,1H3
computed SMILES=O=C1CCCCC1CCCC
accession=JP010856
date=2016.01.19 (Created 2008.10.21, modified 2011.05.06)
author=SODA AROMATIC CO., LTD.
license=CC BY-NC-SA
exact mass=154.13577
ionization energy=70 eV
ion type=[M]+*
computed spectral entropy=2.5804727033163006
computed normalized entropy=0.8016689191239492
SPLASH=splash10-0002-9000000000-2f5e4556ecdc280fd25a
submitter=submitter = University of Tokyo Team (Faculty of Engineering, University of Tokyo)
MoNA Rating=3.75

>  <NUM PEAKS>  (810) 
25

>  <MASS SPECTRAL PEAKS>  (810) 
27 13.3
28 1.3
29 11.7
39 13.1
41 30.3
42 8.9
43 7.1
53 4.6
54 6
55 28.3
56 8.2
57 2.3
67 5
68 2.5
69 7.2
70 17.7
79 1.4
81 2.4
83 14.2
84 2.1
97 9.7
98 99.99
99 6.3
111 9
154 2.2

>  <PREDICTED SPECTRUM>  (810) 
26 28
27 196
28 90
29 120
38 40
39 344
40 178
41 675
42 437
43 407
44 119
50 39
51 139
52 53
53 270
54 261
55 778
56 474
57 177
65 85
66 90
67 341
68 331
69 494
70 519
71 93
77 63
78 9
79 113
80 45
81 247
82 246
83 564
84 618
85 150
91 55
93 88
95 95
96 82
97 999
98 915
99 232
107 61
109 64
110 15
111 382
112 159
121 33
125 136
126 123
135 35
136 16
137 6
139 82
154 329
155 93

$$$$

     RDKit          2D

  8  8  0  0  0  0  0  0  0  0999 V2000
   -1.9467    1.4939    0.0000 C   0  0  0  0  0  0  0  0  0  0  0  0
   -0.6477    2.2439    0.0000 C   0  0  0  0  0  0  0  0  0  0  0  0
   -1.9512    0.0017    0.0000 C   0  0  0  0  0  0  0  0  0  0  0  0
    0.6473    0.0009    0.0000 C   0  0  0  0  0  0  0  0  0  0  0  0
    0.6468    1.5017    0.0000 C   0  0  0  0  0  0  0  0  0  0  0  0
   -0.6517   -0.7491    0.0000 C   0  0  0  0  0  0  0  0  0  0  0  0
    1.9446    2.2539    0.0000 O   0  0  0  0  0  0  0  0  0  0  0  0
   -0.6520   -2.2491    0.0000 O   0  0  0  0  0  0  0  0  0  0  0  0
  2  1  1  0
  3  1  1  0
  5  2  1  0
  5  4  1  0
  6  3  1  0
  6  4  1  0
  7  5  2  0
  8  6  2  0
M  END
>  <NAME>  (811) 
1,3-CYCLOHEXANEDIONE

>  <SYNONYMS>  (811) 


>  <SPECTRUM TYPE>  (811) 
MS1

>  <INSTRUMENT TYPE>  (811) 
EI-B

>  <INSTRUMENT>  (811) 
HITACHI M-80B

>  <ION MODE>  (811) 
P

>  <INCHIKEY>  (811) 
HJSLFCCWAKVHIW-UHFFFAOYSA-N

>  <FORMULA>  (811) 
C6H8O2

>  <EXACT MASS>  (811) 
112.052429496

>  <MW>  (811) 
112

>  <ID>  (811) 
JP010855

>  <CONTRIBUTOR>  (811) 
University of Tokyo Team, {Faculty of Engineering, University of Tokyo

>  <COMMENT>  (811) 
SMILES=O=C(C1)CC(=O)CC1
InChI=InChI=1S/C6H8O2/c7-5-2-1-3-6(8)4-5/h1-4H2
computed SMILES=O=C1CC(=O)CCC1
accession=JP010855
date=2016.01.19 (Created 2008.10.21, modified 2011.05.06)
author=SODA AROMATIC CO., LTD.
license=CC BY-NC-SA
exact mass=112.05243
ionization energy=70 eV
ion type=[M]+*
computed spectral entropy=2.4080918720937428
computed normalized entropy=0.7577253251969289
SPLASH=splash10-0006-9000000000-5c731a79afa8bc756e52
submitter=submitter = University of Tokyo Team (Faculty of Engineering, University of Tokyo)
MoNA Rating=3.75

>  <NUM PEAKS>  (811) 
24

>  <MASS SPECTRAL PEAKS>  (811) 
14 6.5
15 3
18 1.3
26 5.7
27 16.4
29 3
32 4.1
37 1.4
38 4.5
39 19.2
41 17
42 99.99
43 9.8
50 1.3
51 1.1
53 1.1
55 25.2
56 5.1
69 3.6
70 5.6
83 9.5
84 25.1
85 1.1
112 9.5

>  <PREDICTED SPECTRUM>  (811) 
14 21
15 25
25 20
26 202
27 515
28 435
29 335
30 169
37 97
38 197
39 604
40 364
41 831
42 955
43 353
44 63
49 40
50 165
51 229
52 117
53 381
54 420
55 999
56 960
57 396
58 186
63 25
65 137
66 199
67 234
68 276
69 471
70 453
71 134
79 22
83 402
84 681
85 175
86 53
94 24
97 34
112 859
113 250
114 44

$$$$

     RDKit          2D

 10 10  0  0  0  0  0  0  0  0999 V2000
   -2.5989   -1.5002    0.0000 C   0  0  0  0  0  0  0  0  0  0  0  0
    3.8981    0.7504    0.0000 C   0  0  0  0  0  0  0  0  0  0  0  0
   -1.3000    0.7500    0.0000 C   0  0  0  0  0  0  0  0  0  0  0  0
   -0.0000   -1.5000    0.0000 C   0  0  0  0  0  0  0  0  0  0  0  0
    0.0000    1.5000    0.0000 C   0  0  0  0  0  0  0  0  0  0  0  0
    1.3000   -0.7500    0.0000 C   0  0  0  0  0  0  0  0  0  0  0  0
   -1.3000   -0.7500    0.0000 C   0  0  0  0  0  0  0  0  0  0  0  0
    2.5989    1.5002    0.0000 C   0  0  0  0  0  0  0  0  0  0  0  0
    1.3000    0.7500    0.0000 C   0  0  0  0  0  0  0  0  0  0  0  0
    2.5987    3.0002    0.0000 O   0  0  0  0  0  0  0  0  0  0  0  0
  5  3  2  0
  6  4  1  0
  7  1  1  0
  7  3  1  0
  7  4  2  0
  8  2  1  0
  9  5  1  0
  9  6  2  0
  9  8  1  0
 10  8  1  0
M  END
>  <NAME>  (812) 
1-PARA-TOLYLETHANOL

>  <SYNONYMS>  (812) 


>  <SPECTRUM TYPE>  (812) 
MS1

>  <INSTRUMENT TYPE>  (812) 
EI-B

>  <INSTRUMENT>  (812) 
HITACHI M-80B

>  <ION MODE>  (812) 
P

>  <INCHIKEY>  (812) 
JESIHYIJKKUWIS-UHFFFAOYSA-N

>  <FORMULA>  (812) 
C9H12O

>  <EXACT MASS>  (812) 
136.088815004

>  <MW>  (812) 
136

>  <ID>  (812) 
JP010854

>  <CONTRIBUTOR>  (812) 
University of Tokyo Team, {Faculty of Engineering, University of Tokyo

>  <COMMENT>  (812) 
SMILES=Cc(c1)ccc(c1)C(C)O
InChI=InChI=1S/C9H12O/c1-7-3-5-9(6-4-7)8(2)10/h3-6,8,10H,1-2H3
computed SMILES=OC(C1=CC=C(C=C1)C)C
accession=JP010854
date=2016.01.19 (Created 2008.10.21, modified 2011.05.06)
author=SODA AROMATIC CO., LTD.
license=CC BY-NC-SA
exact mass=136.08882
ionization energy=70 eV
ion type=[M]+*
computed spectral entropy=3.1164649625237186
computed normalized entropy=0.7887301276476536
SPLASH=splash10-014l-8900000000-e614cc10eda87347ce30
submitter=submitter = University of Tokyo Team (Faculty of Engineering, University of Tokyo)
MoNA Rating=3.75

>  <NUM PEAKS>  (812) 
52

>  <MASS SPECTRAL PEAKS>  (812) 
15 1.7
18 7.1
26 1.3
27 8.5
38 2.6
39 23.2
41 3.7
43 26.6
45 1.8
50 7.6
51 16.9
52 3.9
53 2.7
57 1.3
58 3.5
59 1.9
60 2.1
61 1.4
62 4.1
63 17.2
64 2.7
65 24.6
66 1.9
67 1.2
74 2.3
75 2.4
76 2.1
77 28.3
79 1.6
86 1.2
87 1.6
89 10.2
90 3.1
91 74.6
92 15.7
93 47.5
94 2.9
102 3.3
103 11.8
104 1.2
115 29.4
116 7.8
117 92.3
118 99.99
119 27
120 2.4
121 58.1
122 3.8
134 3.9
135 1.4
136 21.2
137 1.5

>  <PREDICTED SPECTRUM>  (812) 
14 32
15 89
16 7
17 7
18 14
19 27
26 70
27 204
28 66
29 42
31 32
37 80
38 143
39 421
40 157
41 230
42 72
43 604
44 131
45 190
46 28
49 14
50 257
51 397
52 226
53 227
54 35
55 65
58 104
59 7
60 17
61 71
62 149
63 290
64 154
65 462
66 165
67 105
74 139
75 134
76 39
77 436
78 302
79 287
80 87
87 20
89 217
90 106
91 846
92 342
93 627
94 222
95 32
101 29
102 141
103 326
104 122
105 152
106 76
107 45
115 324
116 198
117 373
118 366
119 385
120 17
121 999
122 286
123 43
133 14
134 57
135 298
136 653
137 192
138 10

$$$$

     RDKit          2D

 11 11  0  0  0  0  0  0  0  0999 V2000
    3.2476    3.7504    0.0000 C   0  0  0  0  0  0  0  0  0  0  0  0
    3.2481    0.7504    0.0000 C   0  0  0  0  0  0  0  0  0  0  0  0
    1.9487    3.0002    0.0000 C   0  0  0  0  0  0  0  0  0  0  0  0
   -1.9500    0.7500    0.0000 C   0  0  0  0  0  0  0  0  0  0  0  0
   -1.9500   -0.7500    0.0000 C   0  0  0  0  0  0  0  0  0  0  0  0
   -0.6500    1.5000    0.0000 C   0  0  0  0  0  0  0  0  0  0  0  0
   -0.6500   -1.5000    0.0000 C   0  0  0  0  0  0  0  0  0  0  0  0
    1.9489    1.5002    0.0000 C   0  0  0  0  0  0  0  0  0  0  0  0
    0.6500    0.7500    0.0000 C   0  0  0  0  0  0  0  0  0  0  0  0
    0.6500   -0.7500    0.0000 C   0  0  0  0  0  0  0  0  0  0  0  0
    1.9489   -1.5002    0.0000 O   0  0  0  0  0  0  0  0  0  0  0  0
  3  1  1  0
  5  4  1  0
  6  4  1  0
  7  5  1  0
  8  2  1  0
  8  3  1  0
  9  6  1  0
  9  8  1  0
 10  7  1  0
 10  9  1  0
 11 10  2  0
M  END
>  <NAME>  (813) 
2-SEC-BUTYLCYCLOHEXANONE

>  <SYNONYMS>  (813) 


>  <SPECTRUM TYPE>  (813) 
MS1

>  <INSTRUMENT TYPE>  (813) 
EI-B

>  <INSTRUMENT>  (813) 
HITACHI M-80B

>  <ION MODE>  (813) 
P

>  <INCHIKEY>  (813) 
RQXTZKGDMNIWJF-UHFFFAOYSA-N

>  <FORMULA>  (813) 
C10H18O

>  <EXACT MASS>  (813) 
154.135765196

>  <MW>  (813) 
154

>  <ID>  (813) 
JP010853

>  <CONTRIBUTOR>  (813) 
University of Tokyo Team, {Faculty of Engineering, University of Tokyo

>  <COMMENT>  (813) 
SMILES=CCC(C)C(C1)C(=O)CCC1
InChI=InChI=1S/C10H18O/c1-3-8(2)9-6-4-5-7-10(9)11/h8-9H,3-7H2,1-2H3
computed SMILES=O=C1CCCCC1C(C)CC
accession=JP010853
date=2016.01.19 (Created 2008.10.21, modified 2011.05.06)
author=SODA AROMATIC CO., LTD.
license=CC BY-NC-SA
exact mass=154.13577
ionization energy=70 eV
ion type=[M]+*
computed spectral entropy=2.5980279662685817
computed normalized entropy=0.788275655590403
SPLASH=splash10-0002-9000000000-8b1cb6eba8248c0a5993
submitter=submitter = University of Tokyo Team (Faculty of Engineering, University of Tokyo)
MoNA Rating=3.75

>  <NUM PEAKS>  (813) 
27

>  <MASS SPECTRAL PEAKS>  (813) 
27 11
29 14.5
39 11.9
41 27.4
42 5.7
43 4.8
53 5.1
54 2.1
55 38.6
56 6.1
57 5.9
67 4.5
68 2
69 9
70 19.5
71 1.3
77 1
79 2.2
81 5
83 16.2
84 1.4
95 1.6
97 13.7
98 99.99
99 6.5
107 1
125 11.3

>  <PREDICTED SPECTRUM>  (813) 
26 20
27 196
28 55
29 100
38 5
39 262
40 121
41 566
42 212
43 281
50 73
51 174
52 103
53 321
54 195
55 750
56 456
57 486
58 57
65 122
66 99
67 466
68 274
69 587
70 696
71 169
77 166
78 80
79 253
80 127
81 360
82 150
83 643
84 77
91 199
93 194
94 54
95 163
96 228
97 742
98 999
99 312
107 146
109 26
110 23
111 148
125 128
126 335
127 102
139 78
154 224
155 62

$$$$

     RDKit          2D

 11 11  0  0  0  0  0  0  0  0999 V2000
   -0.9740    4.2571    0.0000 C   0  0  0  0  0  0  0  0  0  0  0  0
    2.9231    0.5071    0.0000 C   0  0  0  0  0  0  0  0  0  0  0  0
    2.9236    2.0079    0.0000 C   0  0  0  0  0  0  0  0  0  0  0  0
    1.6236   -0.2437    0.0000 C   0  0  0  0  0  0  0  0  0  0  0  0
    1.6245    2.7579    0.0000 C   0  0  0  0  0  0  0  0  0  0  0  0
    0.3245    0.5063    0.0000 C   0  0  0  0  0  0  0  0  0  0  0  0
   -2.2731    2.0071    0.0000 C   0  0  0  0  0  0  0  0  0  0  0  0
   -3.5721    2.7571    0.0000 C   0  0  0  0  0  0  0  0  0  0  0  0
   -0.9740    2.7571    0.0000 C   0  0  0  0  0  0  0  0  0  0  0  0
    0.3250    2.0071    0.0000 C   0  0  0  0  0  0  0  0  0  0  0  0
   -4.8712    2.0071    0.0000 O   0  0  0  0  0  0  0  0  0  0  0  0
  3  2  2  0
  4  2  1  0
  5  3  1  0
  6  4  2  0
  8  7  1  0
  9  1  1  0
  9  7  1  0
 10  5  2  0
 10  6  1  0
 10  9  1  0
 11  8  2  0
M  END
>  <NAME>  (814) 
3-PHENYLBUTANAL

>  <SYNONYMS>  (814) 


>  <SPECTRUM TYPE>  (814) 
MS1

>  <INSTRUMENT TYPE>  (814) 
EI-B

>  <INSTRUMENT>  (814) 
HITACHI M-80B

>  <ION MODE>  (814) 
P

>  <INCHIKEY>  (814) 
MYHGOWDLVRDUFA-UHFFFAOYSA-N

>  <FORMULA>  (814) 
C10H12O

>  <EXACT MASS>  (814) 
148.088815004

>  <MW>  (814) 
148

>  <ID>  (814) 
JP010852

>  <CONTRIBUTOR>  (814) 
University of Tokyo Team, {Faculty of Engineering, University of Tokyo

>  <COMMENT>  (814) 
SMILES=O=CCC(C)c(c1)cccc1
InChI=InChI=1S/C10H12O/c1-9(7-8-11)10-5-3-2-4-6-10/h2-6,8-9H,7H2,1H3
computed SMILES=O=CCC(C=1C=CC=CC1)C
accession=JP010852
date=2016.01.19 (Created 2008.10.21, modified 2011.05.06)
author=SODA AROMATIC CO., LTD.
license=CC BY-NC-SA
exact mass=148.08882
ionization energy=70 eV
ion type=[M]+*
computed spectral entropy=3.0319494990596167
computed normalized entropy=0.8061122529505527
SPLASH=splash10-0a4i-6900000000-78b2f9f0d4322cb35b73
submitter=submitter = University of Tokyo Team (Faculty of Engineering, University of Tokyo)
MoNA Rating=3.75

>  <NUM PEAKS>  (814) 
43

>  <MASS SPECTRAL PEAKS>  (814) 
15 1.5
27 8.6
29 9
38 1.1
39 15
41 12.4
42 3.1
50 5.5
51 21.3
52 4.1
53 2.5
55 3.9
62 1.5
63 5.1
64 1.1
65 5.2
74 2.3
75 2.2
76 2.6
78 24.8
79 24
80 1.3
89 2.3
91 46.4
92 3.4
102 2.8
103 18.1
104 11.1
105 99.99
106 29.7
107 2.7
115 8.3
116 1.3
117 1.7
119 3.1
129 1.7
130 11.2
131 1.7
133 28.6
134 2.6
147 4.5
148 40.1
149 4

>  <PREDICTED SPECTRUM>  (814) 
14 5
15 9
25 3
26 75
27 220
28 94
29 103
31 16
32 8
37 19
38 65
39 240
40 41
41 162
42 52
43 367
44 31
49 16
50 212
51 359
52 197
53 124
57 79
59 22
62 111
63 188
64 51
65 174
66 55
74 136
75 131
76 120
77 579
78 416
79 663
80 164
85 3
86 42
87 34
89 133
90 112
91 468
92 134
94 40
102 118
103 365
104 27
105 999
106 338
107 598
108 94
115 313
116 160
117 93
118 22
119 663
120 218
121 47
127 97
128 145
129 79
130 78
133 36
147 88
148 411
149 110

$$$$

     RDKit          2D

  9  9  0  0  0  0  0  0  0  0999 V2000
    2.6052   -0.7613    0.0000 C   0  0  0  0  0  0  0  0  0  0  0  0
   -2.6041   -0.8953    0.0000 C   0  0  0  0  0  0  0  0  0  0  0  0
   -0.0300    2.1400    0.0000 C   0  0  0  0  0  0  0  0  0  0  0  0
    1.2600    1.4400    0.0000 C   0  0  0  0  0  0  0  0  0  0  0  0
   -1.3200    1.4000    0.0000 C   0  0  0  0  0  0  0  0  0  0  0  0
    1.2900   -0.0400    0.0000 C   0  0  0  0  0  0  0  0  0  0  0  0
   -1.3200   -0.1200    0.0000 C   0  0  0  0  0  0  0  0  0  0  0  0
    0.0100   -0.8200    0.0000 C   0  0  0  0  0  0  0  0  0  0  0  0
    0.0571   -2.3193    0.0000 O   0  0  0  0  0  0  0  0  0  0  0  0
  4  3  1  0
  5  3  1  0
  6  1  1  0
  6  4  1  0
  7  2  1  0
  7  5  1  0
  8  6  1  0
  8  7  1  0
  9  8  2  0
M  END
>  <NAME>  (815) 
2,6-DIMETHYLCYCLOHEXANONE

>  <SYNONYMS>  (815) 


>  <SPECTRUM TYPE>  (815) 
MS1

>  <INSTRUMENT TYPE>  (815) 
EI-B

>  <INSTRUMENT>  (815) 
HITACHI M-80B

>  <ION MODE>  (815) 
P

>  <INCHIKEY>  (815) 
AILVYPLQKCQNJC-UHFFFAOYSA-N

>  <FORMULA>  (815) 
C8H14O

>  <EXACT MASS>  (815) 
126.104465068

>  <MW>  (815) 
126

>  <ID>  (815) 
JP010851

>  <CONTRIBUTOR>  (815) 
University of Tokyo Team, {Faculty of Engineering, University of Tokyo

>  <COMMENT>  (815) 
SMILES=CC(C1)C(=O)C(C)CC1
InChI=InChI=1S/C8H14O/c1-6-4-3-5-7(2)8(6)9/h6-7H,3-5H2,1-2H3
computed SMILES=O=C1C(C)CCCC1C
accession=JP010851
date=2016.01.19 (Created 2008.10.21, modified 2011.05.06)
author=SODA AROMATIC CO., LTD.
license=CC BY-NC-SA
exact mass=126.10447
ionization energy=70 eV
ion type=[M]+*
computed spectral entropy=2.9334366390319007
computed normalized entropy=0.7848303725622398
SPLASH=splash10-066u-9000000000-cc1f341e0e8997c9b0b3
submitter=submitter = University of Tokyo Team (Faculty of Engineering, University of Tokyo)
MoNA Rating=3.75

>  <NUM PEAKS>  (815) 
42

>  <MASS SPECTRAL PEAKS>  (815) 
15 1.8
26 3.3
27 36.2
28 1
31 21.6
38 1.7
39 42.2
40 0.8
41 99.99
42 31.7
43 12.3
50 1.5
51 3.1
52 1.5
53 11
54 7.1
55 60.1
56 97.5
57 11.8
58 19.6
65 1.8
67 7.5
68 85.6
69 95.7
70 18.1
71 2.3
77 1.2
79 1.5
81 1.1
82 2.8
83 11.2
84 10.5
85 1.3
93 2.5
95 1.2
97 9.5
98 50.3
99 2.9
108 1.5
111 5.2
126 50.9
127 5.6

>  <PREDICTED SPECTRUM>  (815) 
26 62
27 327
28 189
29 237
37 16
38 58
39 423
40 193
41 796
42 507
43 350
44 89
50 127
51 221
52 96
53 257
54 267
55 799
56 999
57 391
58 14
63 56
65 113
66 68
67 326
68 322
69 712
70 477
71 241
72 14
77 138
78 27
79 123
81 222
82 437
83 434
84 422
85 117
93 137
97 284
98 329
99 50
111 209
126 461
127 99

$$$$

     RDKit          2D

 10 10  0  0  0  0  0  0  0  0999 V2000
   -3.8981   -0.7504    0.0000 C   0  0  0  0  0  0  0  0  0  0  0  0
   -2.5989   -1.5002    0.0000 C   0  0  0  0  0  0  0  0  0  0  0  0
   -1.3000    0.7500    0.0000 C   0  0  0  0  0  0  0  0  0  0  0  0
    0.0000   -1.5000    0.0000 C   0  0  0  0  0  0  0  0  0  0  0  0
    0.0000    1.5000    0.0000 C   0  0  0  0  0  0  0  0  0  0  0  0
    1.3000   -0.7500    0.0000 C   0  0  0  0  0  0  0  0  0  0  0  0
    2.5989    1.5002    0.0000 C   0  0  0  0  0  0  0  0  0  0  0  0
   -1.3000   -0.7500    0.0000 C   0  0  0  0  0  0  0  0  0  0  0  0
    1.3000    0.7500    0.0000 C   0  0  0  0  0  0  0  0  0  0  0  0
    3.8981    0.7504    0.0000 O   0  0  0  0  0  0  0  0  0  0  0  0
  2  1  1  0
  5  3  2  0
  6  4  1  0
  8  2  1  0
  8  3  1  0
  8  4  2  0
  9  5  1  0
  9  6  2  0
  9  7  1  0
 10  7  2  0
M  END
>  <NAME>  (816) 
4-ETHYLBENZALDEHYDE

>  <SYNONYMS>  (816) 


>  <SPECTRUM TYPE>  (816) 
MS1

>  <INSTRUMENT TYPE>  (816) 
EI-B

>  <INSTRUMENT>  (816) 
HITACHI M-80B

>  <ION MODE>  (816) 
P

>  <INCHIKEY>  (816) 
QNGNSVIICDLXHT-UHFFFAOYSA-N

>  <FORMULA>  (816) 
C9H10O

>  <EXACT MASS>  (816) 
134.07316494

>  <MW>  (816) 
134

>  <ID>  (816) 
JP010850

>  <CONTRIBUTOR>  (816) 
University of Tokyo Team, {Faculty of Engineering, University of Tokyo

>  <COMMENT>  (816) 
SMILES=CCc(c1)ccc(C=O)c1
InChI=InChI=1S/C9H10O/c1-2-8-3-5-9(7-10)6-4-8/h3-7H,2H2,1H3
computed SMILES=O=CC1=CC=C(C=C1)CC
accession=JP010850
date=2016.01.19 (Created 2008.10.21, modified 2011.05.06)
author=SODA AROMATIC CO., LTD.
license=CC BY-NC-SA
exact mass=134.07316
ionization energy=70 eV
ion type=[M]+*
computed spectral entropy=2.842931075779735
computed normalized entropy=0.7815432957314684
SPLASH=splash10-001i-8900000000-e4325102edf543b7262f
submitter=submitter = University of Tokyo Team (Faculty of Engineering, University of Tokyo)
MoNA Rating=3.75

>  <NUM PEAKS>  (816) 
38

>  <MASS SPECTRAL PEAKS>  (816) 
15 1.1
26 1.1
27 10.9
29 8.3
38 2.7
39 15.2
41 1.8
50 12.8
51 24.1
52 4.1
53 3.6
61 1.2
62 3.9
63 14.3
64 2.6
65 15.5
66 1.5
74 4.3
75 3.6
77 36
78 10.7
79 23.9
80 1.4
87 1
89 10.9
91 72.3
92 4
102 2.9
103 14.7
104 3.5
105 55.3
106 4.8
118 1
119 17.4
120 1.2
133 99.99
134 96.5
135 8.8

>  <PREDICTED SPECTRUM>  (816) 
14 31
15 61
16 9
17 29
18 70
25 22
26 132
27 398
28 194
29 339
31 2
37 66
38 141
39 362
40 89
41 134
43 46
44 0
49 8
50 270
51 435
52 195
53 200
55 56
61 3
62 145
63 267
64 122
65 251
66 83
74 139
75 139
76 166
77 649
78 361
79 488
80 61
82 8
86 4
89 265
90 166
91 407
92 114
93 5
101 14
102 268
103 399
104 127
105 852
106 343
107 121
115 81
116 50
119 292
120 58
133 999
134 593
135 213

$$$$

     RDKit          2D

  9  9  0  0  0  0  0  0  0  0999 V2000
  -10.4600    6.3600    0.0000 C   0  0  0  0  0  0  0  0  0  0  0  0
  -11.3400    5.1500    0.0000 C   0  0  0  0  0  0  0  0  0  0  0  0
   -9.0300    5.9000    0.0000 C   0  0  0  0  0  0  0  0  0  0  0  0
  -10.4600    3.9300    0.0000 C   0  0  0  0  0  0  0  0  0  0  0  0
   -7.6000    6.3600    0.0000 C   0  0  0  0  0  0  0  0  0  0  0  0
   -9.0300    4.4000    0.0000 C   0  0  0  0  0  0  0  0  0  0  0  0
   -6.7200    5.1500    0.0000 C   0  0  0  0  0  0  0  0  0  0  0  0
   -7.6000    3.9300    0.0000 C   0  0  0  0  0  0  0  0  0  0  0  0
   -7.1364    2.5034    0.0000 O   0  0  0  0  0  0  0  0  0  0  0  0
  2  1  1  0
  3  1  1  0
  4  2  1  0
  5  3  1  0
  6  4  1  0
  7  5  1  0
  8  6  1  0
  8  7  1  0
  9  8  2  0
M  END
>  <NAME>  (817) 
CYCLOOCTANONE

>  <SYNONYMS>  (817) 


>  <SPECTRUM TYPE>  (817) 
MS1

>  <INSTRUMENT TYPE>  (817) 
EI-B

>  <INSTRUMENT>  (817) 
HITACHI M-80B

>  <ION MODE>  (817) 
P

>  <INCHIKEY>  (817) 
IIRFCWANHMSDCG-UHFFFAOYSA-N

>  <FORMULA>  (817) 
C8H14O

>  <EXACT MASS>  (817) 
126.104465068

>  <MW>  (817) 
126

>  <ID>  (817) 
JP010849

>  <CONTRIBUTOR>  (817) 
University of Tokyo Team, {Faculty of Engineering, University of Tokyo

>  <COMMENT>  (817) 
SMILES=O=C(C1)CCCCCC1
InChI=InChI=1S/C8H14O/c9-8-6-4-2-1-3-5-7-8/h1-7H2
computed SMILES=O=C1CCCCCCC1
accession=JP010849
date=2016.01.19 (Created 2008.10.21, modified 2011.05.06)
author=SODA AROMATIC CO., LTD.
license=CC BY-NC-SA
exact mass=126.10447
ionization energy=70 eV
ion type=[M]+*
computed spectral entropy=3.0891862811821924
computed normalized entropy=0.7979917014068207
SPLASH=splash10-0537-9000000000-46440683af775da5a37c
submitter=submitter = University of Tokyo Team (Faculty of Engineering, University of Tokyo)
MoNA Rating=3.75

>  <NUM PEAKS>  (817) 
48

>  <MASS SPECTRAL PEAKS>  (817) 
14 1.9
15 2.8
26 4.1
27 35.7
29 17.3
30 1.1
37 1.1
38 2.4
39 44.2
40 1.5
41 84.6
42 72.6
43 14.1
50 1.5
51 3.6
52 1.9
53 7.4
54 8.1
55 99.99
56 31.8
57 6.8
58 4.5
59 1.2
63 1.2
65 1.8
66 1.4
67 15.9
68 11
69 26.3
70 23.7
71 5.1
72 1.5
77 1
79 3.6
80 2.9
81 2.2
82 34.1
83 37.7
84 40.5
85 3
93 5
97 16.2
98 91
99 5.5
108 1.3
111 6.4
126 13.1
127 1.7

>  <PREDICTED SPECTRUM>  (817) 
14 20
15 32
16 17
17 15
18 38
25 18
26 221
27 638
28 348
29 541
30 141
31 151
36 23
37 82
38 172
39 659
40 327
41 980
42 669
43 717
44 340
45 160
50 151
51 245
52 175
53 413
54 502
55 999
56 544
57 447
58 441
59 182
60 77
61 42
62 41
63 80
64 8
65 156
66 203
67 571
68 551
69 649
70 507
71 470
72 232
73 80
74 59
77 179
78 112
79 339
80 262
81 425
82 550
83 645
84 433
85 235
92 0
93 280
94 145
95 216
96 153
97 432
98 689
99 178
108 234
109 103
110 75
111 323
112 26
125 20
126 444
127 118

$$$$

     RDKit          2D

 20 20  0  0  0  0  0  0  0  0999 V2000
   -2.6011    1.4998    0.0000 C   0  0  0  0  0  0  0  0  0  0  0  0
   -1.3000   -2.2500    0.0000 C   0  0  0  0  0  0  0  0  0  0  0  0
    0.0000    6.0000    0.0000 C   0  0  0  0  0  0  0  0  0  0  0  0
    4.0772    1.2397    0.0000 C   0  0  0  0  0  0  0  0  0  0  0  0
    3.1127    2.9096    0.0000 C   0  0  0  0  0  0  0  0  0  0  0  0
   -5.2000    0.0000    0.0000 C   0  0  0  0  0  0  0  0  0  0  0  0
   -2.6000    4.5000    0.0000 C   0  0  0  0  0  0  0  0  0  0  0  0
    1.3000   -0.7500    0.0000 C   0  0  0  0  0  0  0  0  0  0  0  0
   -5.2000    1.5000    0.0000 C   0  0  0  0  0  0  0  0  0  0  0  0
   -3.9000    3.7500    0.0000 C   0  0  0  0  0  0  0  0  0  0  0  0
   -2.6000    0.0000    0.0000 C   0  0  0  0  0  0  0  0  0  0  0  0
   -1.3000    3.7500    0.0000 C   0  0  0  0  0  0  0  0  0  0  0  0
    0.0000    0.0000    0.0000 C   0  0  0  0  0  0  0  0  0  0  0  0
    1.3000    3.7500    0.0000 C   0  0  0  0  0  0  0  0  0  0  0  0
    2.6000   -0.0000    0.0000 C   0  0  0  0  0  0  0  0  0  0  0  0
    1.3000    2.2500    0.0000 C   0  0  0  0  0  0  0  0  0  0  0  0
   -3.9000    2.2500    0.0000 C   0  0  0  0  0  0  0  0  0  0  0  0
   -1.3000   -0.7500    0.0000 C   0  0  0  0  0  0  0  0  0  0  0  0
    0.0000    4.5000    0.0000 C   0  0  0  0  0  0  0  0  0  0  0  0
    2.6000    1.5000    0.0000 C   0  0  0  0  0  0  0  0  0  0  0  0
  9  6  1  0
 10  7  1  0
 11  6  1  0
 12  7  1  0
 13  8  1  0
  8 15  2  0
 16 14  1  0
 17  1  1  0
 17  9  1  0
 10 17  2  0
 18  2  1  0
 11 18  2  0
 18 13  1  0
 19  3  1  0
 19 12  1  0
 14 19  2  0
 20  4  1  0
 20  5  1  0
 20 15  1  0
 20 16  1  0
M  END
>  <NAME>  (818) 
FLEXIBILENE

>  <SYNONYMS>  (818) 


>  <SPECTRUM TYPE>  (818) 
MS1

>  <INSTRUMENT TYPE>  (818) 
EI-B

>  <INSTRUMENT>  (818) 
HITACHI RMU-6L

>  <ION MODE>  (818) 
P

>  <INCHIKEY>  (818) 
SPMBDLTUBLYRCT-PWOPFSNCSA-N

>  <FORMULA>  (818) 
C20H32

>  <EXACT MASS>  (818) 
272.250401024

>  <MW>  (818) 
272

>  <ID>  (818) 
JP010843

>  <CONTRIBUTOR>  (818) 
University of Tokyo Team, {Faculty of Engineering, University of Tokyo

>  <COMMENT>  (818) 
SMILES=CC(C1)=CCCC(C)=CCC(C)(C)C=CCC(C)=CC1
InChI=InChI=1S/C20H32/c1-17-9-6-11-18(2)13-8-15-20(4,5)16-14-19(3)12-7-10-17/h8,10-11,14-15H,6-7,9,12-13,16H2,1-5H3/b15-8-,17-10+,18-11+,19-14-
computed SMILES=C1=CC(C)(C)CC=C(C)CCC=C(C)CCC=C(C)C1
accession=JP010843
date=2016.01.19 (Created 2008.10.21, modified 2011.05.06)
author=HAMAMATSU UNIV. SCHOOL OF MEDICINE
license=CC BY-NC-SA
exact mass=272.2504
ionization energy=70 eV
ion type=[M]+*
computed spectral entropy=3.2969352852157026
computed normalized entropy=0.7660049775783694
SPLASH=splash10-000f-8900000000-512fa945eb79e6105f69
submitter=submitter = University of Tokyo Team (Faculty of Engineering, University of Tokyo)
MoNA Rating=3.75

>  <NUM PEAKS>  (818) 
74

>  <MASS SPECTRAL PEAKS>  (818) 
65 4.5
66 26.5
68 20
69 1.25
70 1
77 18
78 3.5
79 2.4
80 26
81 21
82 5.5
83 0.2
91 22.5
92 15
93 99.99
94 1.45
95 14
96 2.5
97 1
103 0.15
105 18.5
106 5
107 30.5
108 0.7
109 23.5
110 2
115 1.5
117 0.15
119 13.5
120 4.5
121 35
122 1.1
123 6
124 1
131 2
132 0.1
133 9
134 9.5
135 88
136 1.7
137 2.5
145 2.5
146 1.5
147 1.05
148 5
149 3
159 4
160 0.1
161 10
162 3
163 4
164 0.1
173 1
175 3
176 2
177 0.1
187 3.5
188 1.5
189 6
190 0.2
191 1
201 1
202 4
203 0.3
204 1
215 1.5
216 1.5
229 0.25
230 1
257 2
258 1
272 2.45
273 4.5
274 1

>  <PREDICTED SPECTRUM>  (818) 
27 15
29 37
39 89
40 86
41 538
42 108
43 125
51 67
52 84
53 399
54 158
55 557
56 58
57 86
64 0
65 179
66 160
67 582
68 388
69 503
70 134
71 108
77 430
78 187
79 622
80 371
81 999
82 414
83 373
84 38
85 30
91 586
92 321
93 921
94 353
95 720
96 232
97 212
104 34
105 586
106 433
107 865
108 559
109 629
110 132
111 128
117 83
118 46
119 652
120 547
121 856
122 396
123 437
125 69
131 208
132 184
133 616
134 472
135 966
136 420
137 223
145 148
146 211
147 534
148 357
149 391
150 118
151 3
159 512
160 230
161 463
162 320
163 242
164 107
173 193
174 76
175 262
176 110
177 88
187 150
188 174
189 485
190 217
191 123
201 158
202 54
203 109
204 34
215 170
216 139
217 126
229 126
230 102
243 83
244 14
255 5
257 373
258 75
272 465
273 254

$$$$

     RDKit          2D

 23 24  0  0  1  0  0  0  0  0999 V2000
   -4.3980    4.4702    0.0000 C   0  0  0  0  0  0  0  0  0  0  0  0
    0.0998    1.8711    0.0000 C   0  0  0  0  0  0  0  0  0  0  0  0
   -2.1502   -2.0189    0.0000 C   0  0  0  0  0  0  0  0  0  0  0  0
    3.0278   -2.0065    0.0000 C   0  0  0  0  0  0  0  0  0  0  0  0
   -1.4000    4.4700    0.0000 C   0  0  0  0  0  0  0  0  0  0  0  0
   -3.6500    0.5800    0.0000 C   0  0  0  0  0  0  0  0  0  0  0  0
   -2.1500    3.1700    0.0000 C   0  0  0  0  0  0  0  0  0  0  0  0
   -4.4000    1.8800    0.0000 C   0  0  0  0  0  0  0  0  0  0  0  0
    0.1000    4.4700    0.0000 C   0  0  0  0  0  0  0  0  0  0  0  0
   -2.1500    0.5800    0.0000 C   0  0  0  0  0  0  0  0  0  0  0  0
    2.3500    3.1700    0.0000 C   0  0  0  0  0  0  0  0  0  0  0  0
    0.8500    0.5800    0.0000 C   0  0  0  0  0  0  0  0  0  0  0  0
   -3.6500    3.1700    0.0000 C   0  0  0  0  0  0  0  0  0  0  0  0
    0.8500    3.1700    0.0000 C   0  0  0  0  0  0  0  0  0  0  0  0
   -1.4000   -0.7200    0.0000 C   0  0  0  0  0  0  0  0  0  0  0  0
    3.3468   -0.5408    0.0000 C   0  0  0  0  0  0  0  0  0  0  0  0
    2.3500    0.5800    0.0000 C   0  0  0  0  0  0  0  0  0  0  0  0
    0.1000   -0.7200    0.0000 C   0  0  0  0  0  0  0  0  0  0  0  0
    3.1000    1.8700    0.0000 C   0  0  0  0  0  0  0  0  0  0  0  0
    4.7205    0.0648    0.0000 C   0  0  0  0  0  0  0  0  0  0  0  0
    0.8502   -2.0189    0.0000 O   0  0  0  0  0  0  0  0  0  0  0  0
    6.0173   -0.6891    0.0000 O   0  0  0  0  0  0  0  0  0  0  0  0
    4.5672    1.5583    0.0000 O   0  0  0  0  0  0  0  0  0  0  0  0
  7  5  1  0
  8  6  1  0
  9  5  1  0
 10  6  1  0
 13  1  1  0
  7 13  2  0
 13  8  1  0
 14  2  1  0
 14  9  1  0
 11 14  2  0
 15  3  1  0
 10 15  2  0
 16  4  2  0
 17 12  1  6
 17 16  1  0
 18 12  1  0
 18 15  1  0
 19 11  1  6
 19 17  1  0
 20 16  1  0
 21 18  2  0
 22 20  2  0
 19 23  1  0
 23 20  1  0
M  END
>  <NAME>  (819) 
(1S,2S,3E,7E,11E)-13-OXOCEMBRA-3,7,11,15-TETRAEN-17,2-OLIDE

>  <SYNONYMS>  (819) 


>  <SPECTRUM TYPE>  (819) 
MS1

>  <INSTRUMENT TYPE>  (819) 
EI-B

>  <INSTRUMENT>  (819) 
HITACHI RMU-6L

>  <ION MODE>  (819) 
P

>  <INCHIKEY>  (819) 
ROQQHOAGXJBFJT-FYGDRCKBSA-N

>  <FORMULA>  (819) 
C20H26O3

>  <EXACT MASS>  (819) 
314.18819469199997

>  <MW>  (819) 
314

>  <ID>  (819) 
JP010842

>  <CONTRIBUTOR>  (819) 
University of Tokyo Team, {Faculty of Engineering, University of Tokyo

>  <COMMENT>  (819) 
SMILES=CC(C2)=C([H])CCC(C)=C([H])C([H])(O1)C([H])(CC(=O)C(C)=C([H])C2)C(=C)C(=O)1
InChI=InChI=1S/C20H26O3/c1-13-7-5-9-14(2)11-19-17(16(4)20(22)23-19)12-18(21)15(3)10-6-8-13/h7,10-11,17,19H,4-6,8-9,12H2,1-3H3/b13-7+,14-11+,15-10+/t17-,19-/m0/s1
computed SMILES=O=C1OC2C=C(C)CCC=C(C)CCC=C(C(=O)CC2C1=C)C
accession=JP010842
date=2016.01.19 (Created 2008.10.21, modified 2011.05.06)
author=HAMAMATSU UNIV. SCHOOL OF MEDICINE
license=CC BY-NC-SA
exact mass=314.18819
ionization energy=70 eV
ion type=[M]+*
computed spectral entropy=4.6343011936363565
computed normalized entropy=0.8417842165161282
SPLASH=splash10-06rx-9810000000-73c7249d6d55e1fe27bf
submitter=submitter = University of Tokyo Team (Faculty of Engineering, University of Tokyo)
MoNA Rating=3.75

>  <NUM PEAKS>  (819) 
246

>  <MASS SPECTRAL PEAKS>  (819) 
40 10.4
41 86.4
42 9.7
43 7.95
44 66.2
45 22.7
46 11.7
47 0.13
50 2.6
51 9.1
52 6.5
53 7.05
54 48.1
55 79.5
56 10.7
57 3.25
58 3.6
59 4.9
60 21.8
61 0.84
62 1.3
63 2.9
64 1.6
65 1.76
66 5.5
67 46.1
68 16.8
69 3.51
70 9.7
71 16.9
72 3.9
73 1.88
74 4.5
75 1.9
76 1.3
77 2.99
78 8.4
79 51.3
80 12.3
81 4.94
82 63.6
83 37.7
84 11.4
85 0.94
86 2.6
87 5.6
88 1.6
89 0.19
90 1.3
91 42.2
92 9.7
93 4.87
94 14.9
95 33.8
96 12.3
97 2.53
98 8.4
99 5.8
100 2.3
101 0.45
102 1.9
103 5.5
104 3.2
105 3.73
106 12
107 34.7
108 15.3
109 4.12
110 10.1
111 9.7
112 3.9
113 0.36
114 1.9
115 7.8
116 4.2
117 0.84
118 5.2
119 24
120 11.7
121 4.22
122 21.8
123 13
124 6.4
125 0.52
126 2.6
127 4.6
128 3.2
129 1.1
130 3.2
131 11
132 4.5
133 2.08
134 44.2
135 36
136 13.6
137 1.23
138 11
139 4.5
140 1.9
141 0.32
142 2.6
143 6.2
144 3.6
145 1.23
146 9.1
147 27.3
148 12.3
149 2.66
150 10.7
151 13.6
152 5.2
153 0.32
154 1.3
155 2.6
156 2.3
157 0.84
158 4.2
159 11.4
160 8.8
161 1.3
162 99.99
163 46.1
164 29.2
165 0.84
166 3.2
167 5.8
168 1.9
169 0.39
170 3.9
171 8.1
172 3.2
173 0.84
174 5.2
175 10.1
176 5.8
177 0.78
178 5.5
179 3.2
180 2.3
181 0.26
182 1.9
183 3.2
184 1.9
185 0.78
186 4.2
187 9.1
188 5.8
189 0.78
190 4.5
191 4.5
192 4.5
193 0.36
194 1.9
195 2.3
196 2.6
197 0.32
198 2.6
199 6.8
200 4.5
201 0.58
202 3.9
203 7.8
204 4.5
205 0.68
206 5.8
207 3.6
208 3.6
209 0.26
210 1.3
211 2.9
212 3.2
213 0.58
214 3.2
215 6.8
216 4.5
217 0.78
218 5.8
219 2.9
220 2.6
221 0.19
222 1.9
223 1.9
224 1.3
225 0.32
226 1.9
227 3.9
228 3.9
229 0.42
230 3.2
231 5.8
232 2.6
233 0.29
234 1.3
235 1.6
236 1.6
237 0.13
238 1
239 2.3
240 1.9
241 0.39
242 2.6
243 3.6
245 2.6
246 0.65
247 2.3
248 1
249 1
250 0.1
251 1.9
252 1.3
253 3.9
254 0.26
255 1.9
256 7.8
257 3.6
258 0.19
259 1.9
260 1.3
261 1
266 0.1
267 1.9
268 3.6
269 3.2
270 0.26
271 5.5
272 2.3
273 1.3
278 0.13
279 1.3
280 1
281 1
282 0.39
283 1.6
284 1.3
285 2.9
286 1
287 2.6
288 1
296 5.8
297 0.23
298 1
299 3.9
300 1.3
314 1.27
315 3.9
316 1.3

>  <PREDICTED SPECTRUM>  (819) 
0 2
1 5
16 11
17 14
18 69
25 34
26 97
27 273
28 189
29 240
30 78
31 90
32 54
33 4
34 23
36 52
37 61
38 107
39 511
40 294
41 920
42 411
43 705
44 358
45 297
46 127
47 112
48 48
49 46
50 177
51 392
52 406
53 843
54 646
55 979
56 425
57 333
58 232
59 247
60 152
61 85
62 104
63 268
64 218
65 602
66 425
67 769
68 631
69 545
70 337
71 398
72 185
73 159
74 92
75 78
76 109
77 682
78 465
79 884
80 702
81 823
82 747
83 639
84 473
85 297
86 143
87 152
88 22
89 163
90 101
91 815
92 554
93 662
94 786
95 821
96 808
97 489
98 283
99 259
100 121
101 24
102 56
103 342
104 253
105 549
106 503
107 840
108 584
109 661
110 520
111 486
112 247
113 136
114 14
115 242
116 226
117 361
118 348
119 683
120 614
121 738
122 869
123 541
124 336
125 282
126 164
127 284
128 194
129 287
130 267
131 461
132 491
133 551
134 897
135 954
136 549
137 336
138 334
139 289
140 101
141 147
142 172
143 224
144 305
145 312
146 375
147 630
148 495
149 383
150 411
151 381
152 219
153 201
154 107
155 202
156 167
157 285
158 361
159 431
160 519
161 613
162 999
163 689
164 629
165 617
166 303
167 244
168 268
169 191
170 189
171 169
172 296
173 315
174 523
175 480
176 441
177 358
178 462
179 398
180 209
181 172
182 262
183 231
184 203
185 211
186 220
187 422
188 364
189 395
190 280
191 474
192 408
193 350
194 226
195 213
196 244
197 209
198 232
199 266
200 264
201 169
202 343
203 397
204 398
205 351
206 277
207 212
208 162
209 157
210 225
211 259
212 218
213 269
214 306
215 387
216 219
217 180
218 243
219 160
220 121
221 184
222 117
223 103
224 181
225 224
226 207
227 212
228 335
229 186
230 250
231 302
232 311
233 171
234 121
235 84
236 18
237 50
238 111
239 196
240 125
241 233
242 129
243 137
244 138
245 190
246 195
247 89
249 65
250 73
251 104
252 160
253 173
254 181
255 217
256 418
257 255
258 102
259 148
260 117
261 19
263 36
266 42
267 181
268 310
269 243
270 126
271 271
272 310
273 139
274 8
279 67
280 50
281 111
285 132
286 132
287 117
296 367
297 141
298 44
299 161
300 31
312 4
313 39
314 217
315 321
316 90

$$$$

     RDKit          2D

 23 24  0  0  1  0  0  0  0  0999 V2000
    4.6002    2.6987    0.0000 C   0  0  0  0  0  0  0  0  0  0  0  0
    2.3504    3.9981    0.0000 C   0  0  0  0  0  0  0  0  0  0  0  0
   -2.1502    3.9989    0.0000 C   0  0  0  0  0  0  0  0  0  0  0  0
   -3.1346   -2.3316    0.0000 C   0  0  0  0  0  0  0  0  0  0  0  0
   -0.6500   -3.1563    0.0000 C   0  0  0  0  0  0  0  0  0  0  0  0
    0.6608   -2.5546    0.0000 C   0  0  0  0  0  0  0  0  0  0  0  0
    0.1000    2.7000    0.0000 C   0  0  0  0  0  0  0  0  0  0  0  0
   -2.1500    1.4000    0.0000 C   0  0  0  0  0  0  0  0  0  0  0  0
    0.8500    1.4000    0.0000 C   0  0  0  0  0  0  0  0  0  0  0  0
    3.1000    0.1000    0.0000 C   0  0  0  0  0  0  0  0  0  0  0  0
    2.3500   -1.2000    0.0000 C   0  0  0  0  0  0  0  0  0  0  0  0
   -4.4000    0.1000    0.0000 C   0  0  0  0  0  0  0  0  0  0  0  0
   -1.9608   -2.5546    0.0000 C   0  0  0  0  0  0  0  0  0  0  0  0
    3.1002    2.6989    0.0000 C   0  0  0  0  0  0  0  0  0  0  0  0
   -1.4000    2.7000    0.0000 C   0  0  0  0  0  0  0  0  0  0  0  0
    2.3500    1.4000    0.0000 C   0  0  0  0  0  0  0  0  0  0  0  0
    0.8500   -1.2000    0.0000 C   0  0  0  0  0  0  0  0  0  0  0  0
   -3.6500   -1.2000    0.0000 C   0  0  0  0  0  0  0  0  0  0  0  0
    0.1000    0.1000    0.0000 C   0  0  0  0  0  0  0  0  0  0  0  0
   -2.1500   -1.2000    0.0000 C   0  0  0  0  0  0  0  0  0  0  0  0
   -4.4002   -2.4989    0.0000 O   0  0  0  0  0  0  0  0  0  0  0  0
   -0.6502   -1.1989    0.0000 O   0  0  0  0  0  0  0  0  0  0  0  0
   -1.4000    0.1000    0.0000 O   0  0  0  0  0  0  0  0  0  0  0  0
  6  5  1  0
  9  7  1  0
 11 10  1  0
 12  8  1  0
 13  5  1  0
 14  1  1  0
 14  2  1  0
 15  3  1  0
  7 15  2  0
 15  8  1  0
  9 16  2  3
 16 10  1  0
 16 14  1  0
 17  6  2  0
 17 11  1  0
 18 12  1  0
 19 17  1  0
 20  4  1  6
 20 13  1  0
 20 18  1  0
 18 21  1  6
 22 19  2  0
 23 19  1  0
 23 20  1  0
M  END
>  <NAME>  (820) 
7ALPHA-HYDROXYSARCOPHYTOLIDE

>  <SYNONYMS>  (820) 
(1Z,5S,6R,9E,11E)-5,9-DIMETHYL-6-HYDROXY-12-ISOPROPYLCYCLOTETRADECA-1,9,11-TRIENE-1,5-CARBOLACTONE

>  <SPECTRUM TYPE>  (820) 
MS1

>  <INSTRUMENT TYPE>  (820) 
EI-B

>  <INSTRUMENT>  (820) 
HITACHI RMU-6L

>  <ION MODE>  (820) 
P

>  <INCHIKEY>  (820) 
UPVZGDDJVFXWOG-MKSSYNOGSA-N

>  <FORMULA>  (820) 
C20H30O3

>  <EXACT MASS>  (820) 
318.21949481999997

>  <MW>  (820) 
318

>  <ID>  (820) 
JP010841

>  <CONTRIBUTOR>  (820) 
University of Tokyo Team, {Faculty of Engineering, University of Tokyo

>  <COMMENT>  (820) 
SMILES=CC(C)C(C2)=C([H])C([H])=C(C)CCC([H])(O)C(C)(C1)OC(=O)C(C2)=C([H])C1
InChI=InChI=1S/C20H30O3/c1-14(2)16-9-7-15(3)8-12-18(21)20(4)13-5-6-17(11-10-16)19(22)23-20/h6-7,9,14,18,21H,5,8,10-13H2,1-4H3/b15-7+,16-9+/t18-,20+/m1/s1
computed SMILES=O=C1OC2(C)CCC=C1CCC(=CC=C(C)CCC2O)C(C)C
computed InChI=InChI=1S/C20H30O3/c1-14(2)16-9-7-15(3)8-12-18(21)20(4)13-5-6-17(11-10-16)19(22)23-20/h6-7,9,14,18,21H,5,8,10-13H2,1-4H3/b15-7-,16-9?/t18-,20+/m1/s1
accession=JP010841
date=2016.01.19 (Created 2008.10.21, modified 2011.05.06)
author=HAMAMATSU UNIV. SCHOOL OF MEDICINE
license=CC BY-NC-SA
exact mass=318.21949
ionization energy=70 eV
ion type=[M]+*
computed spectral entropy=4.436388313380506
computed normalized entropy=0.8357506754138362
SPLASH=splash10-0006-9610000000-64cd9c37ae1130731449
submitter=submitter = University of Tokyo Team (Faculty of Engineering, University of Tokyo)
MoNA Rating=3.75

>  <NUM PEAKS>  (820) 
202

>  <MASS SPECTRAL PEAKS>  (820) 
41 56
42 6.9
43 99.99
44 0.61
45 11.2
46 1
47 7.6
48 0.28
49 2.8
50 1.9
51 3.3
52 0.22
53 24.2
54 3.3
55 39.4
56 0.52
57 24
58 5.3
59 4.1
60 0.22
63 1.8
65 7.8
66 4.7
67 2.57
68 5.7
69 22.1
70 4.7
71 1.51
72 3
73 3
74 1.4
75 0.18
77 20.9
78 5.5
79 23.7
80 0.71
81 27.4
82 7
83 23.1
84 0.38
85 19.1
86 1.6
87 4.2
89 0.11
91 22.3
92 6.2
93 44.7
94 0.94
95 20.6
96 5.5
97 11.6
98 0.41
99 5.6
100 1.2
101 1.9
103 0.32
104 1.9
105 17
106 5.8
107 2.4
108 8.6
109 16.7
110 5.9
111 1.06
112 2.8
113 3
115 4.1
116 0.17
117 6.7
118 1.8
119 16.6
120 0.47
121 38.3
122 8.5
123 14.2
124 0.38
125 6.3
126 3.2
127 3.5
128 0.32
129 3.5
130 2.1
131 6.7
132 0.28
133 14.6
134 6.8
135 27.4
136 1.76
137 10.4
138 4.6
139 5.5
140 0.17
141 4.6
142 1.9
143 3.3
144 0.19
145 8.8
146 2.5
147 12.1
148 0.71
149 21.9
150 5.3
151 11.1
152 1.61
153 4.9
154 1.7
155 2.5
156 0.12
157 4.1
158 1.5
159 5.1
160 0.29
161 7.7
162 3.8
163 5.3
164 0.34
165 7.1
166 3.4
167 3.6
168 0.13
169 2.2
171 3.6
172 1.5
173 0.62
174 2.9
175 5.5
176 2.2
177 0.42
178 2.7
179 2.8
180 1.7
181 0.18
182 1.6
183 2.1
185 3.1
186 0.13
187 3.7
188 2.2
189 5.4
190 0.27
191 3.6
192 2.3
193 2
194 0.1
195 1.6
197 1.8
199 2.5
200 0.11
201 3.4
202 1.7
203 3.2
204 0.16
205 2.9
206 1.4
207 1.6
211 0.16
213 2.2
214 1.3
215 2.1
216 0.14
217 4.1
218 1.7
219 2.4
220 0.14
221 1.7
227 1.3
229 3.1
230 0.14
231 4.5
232 2.3
233 1.3
239 0.16
241 1.2
243 1.5
245 1.7
247 0.12
253 0.8
254 0.9
255 3.6
256 0.18
257 4.2
258 1.2
259 0.9
265 0.14
269 0.9
270 0.8
271 1.2
272 0.34
273 3.3
274 1.2
275 3
276 0.09
285 1.9
289 1.6
291 1.2
293 0.11
300 2.2
301 0.8
303 1
318 1.06
319 3
320 0.8

>  <PREDICTED SPECTRUM>  (820) 
0 8
1 3
18 5
26 9
27 79
28 3
29 72
31 64
38 1
39 186
40 104
41 675
42 185
43 999
44 208
45 274
46 38
47 70
48 14
49 71
50 62
51 181
52 147
53 432
54 171
55 622
56 176
57 341
58 122
59 190
60 92
61 79
62 10
63 87
64 36
65 294
66 182
67 452
68 222
69 465
70 121
71 414
72 77
73 191
74 88
75 42
76 35
77 427
78 220
79 499
80 240
81 571
82 249
83 405
84 212
85 270
86 79
87 154
88 10
89 69
91 594
92 206
93 478
94 248
95 509
96 273
97 275
98 144
99 210
100 77
101 80
102 29
103 153
104 133
105 493
106 228
107 429
108 216
109 480
110 215
111 304
112 136
113 131
114 28
115 216
116 141
117 275
118 148
119 440
120 186
121 501
122 282
123 403
124 227
125 240
126 149
127 158
128 153
129 212
130 98
131 327
132 156
133 393
134 263
135 406
136 299
137 385
138 232
139 223
140 94
141 169
142 104
143 205
144 104
145 290
146 131
147 318
148 177
149 350
150 247
151 245
152 153
153 166
154 84
155 157
156 87
157 194
158 68
159 226
160 130
161 306
162 223
163 286
164 217
165 242
166 173
167 184
168 102
169 128
170 57
171 175
172 54
173 179
174 96
175 172
176 164
177 209
178 135
179 132
180 67
181 72
182 43
183 106
184 42
185 228
186 66
187 176
188 120
189 198
190 117
191 229
192 139
193 180
194 79
195 117
196 54
197 70
199 151
200 79
201 210
202 150
203 231
204 130
205 182
206 103
207 94
208 12
209 27
211 39
213 118
214 80
215 170
216 58
217 178
218 136
219 137
220 63
221 57
223 55
224 19
225 57
227 48
228 28
229 135
230 73
231 121
232 142
233 104
235 9
237 29
239 109
241 96
242 51
243 69
244 38
245 100
247 62
248 7
249 40
250 15
251 33
252 9
253 42
254 43
255 190
256 100
257 322
258 97
259 116
260 29
265 26
267 75
271 50
272 70
273 64
274 62
275 167
276 58
285 128
286 20
287 17
290 26
291 7
300 151
301 94
302 33
303 74
304 29
316 51
318 181
319 124
320 58

$$$$

     RDKit          2D

 26 27  0  0  0  0  0  0  0  0999 V2000
    4.6002    2.6987    0.0000 C   0  0  0  0  0  0  0  0  0  0  0  0
    2.3504    3.9981    0.0000 C   0  0  0  0  0  0  0  0  0  0  0  0
   -3.1346   -2.3316    0.0000 C   0  0  0  0  0  0  0  0  0  0  0  0
   -2.1506    6.5970    0.0000 C   0  0  0  0  0  0  0  0  0  0  0  0
   -0.6500   -3.1563    0.0000 C   0  0  0  0  0  0  0  0  0  0  0  0
    0.6608   -2.5546    0.0000 C   0  0  0  0  0  0  0  0  0  0  0  0
    3.1000    0.1000    0.0000 C   0  0  0  0  0  0  0  0  0  0  0  0
    0.8500    1.4000    0.0000 C   0  0  0  0  0  0  0  0  0  0  0  0
    2.3500   -1.2000    0.0000 C   0  0  0  0  0  0  0  0  0  0  0  0
    0.1000    2.7000    0.0000 C   0  0  0  0  0  0  0  0  0  0  0  0
   -2.1500    1.4000    0.0000 C   0  0  0  0  0  0  0  0  0  0  0  0
   -4.4000    0.1000    0.0000 C   0  0  0  0  0  0  0  0  0  0  0  0
   -1.9608   -2.5546    0.0000 C   0  0  0  0  0  0  0  0  0  0  0  0
    3.1002    2.6989    0.0000 C   0  0  0  0  0  0  0  0  0  0  0  0
    2.3500    1.4000    0.0000 C   0  0  0  0  0  0  0  0  0  0  0  0
    0.8500   -1.2000    0.0000 C   0  0  0  0  0  0  0  0  0  0  0  0
   -1.4000    2.7000    0.0000 C   0  0  0  0  0  0  0  0  0  0  0  0
   -3.6500   -1.2000    0.0000 C   0  0  0  0  0  0  0  0  0  0  0  0
   -2.1502    3.9989    0.0000 C   0  0  0  0  0  0  0  0  0  0  0  0
    0.1000    0.1000    0.0000 C   0  0  0  0  0  0  0  0  0  0  0  0
   -2.1500   -1.2000    0.0000 C   0  0  0  0  0  0  0  0  0  0  0  0
   -4.4002   -2.4989    0.0000 O   0  0  0  0  0  0  0  0  0  0  0  0
   -3.6502    3.9987    0.0000 O   0  0  0  0  0  0  0  0  0  0  0  0
   -0.6502   -1.1989    0.0000 O   0  0  0  0  0  0  0  0  0  0  0  0
   -1.4004    5.2981    0.0000 O   0  0  0  0  0  0  0  0  0  0  0  0
   -1.4000    0.1000    0.0000 O   0  0  0  0  0  0  0  0  0  0  0  0
  6  5  1  0
  9  7  1  0
 10  8  1  0
 12 11  1  0
 13  5  1  0
 14  1  1  0
 14  2  1  0
 15  7  1  0
  8 15  2  0
 15 14  1  0
 16  6  2  0
 16  9  1  0
 10 17  2  0
 17 11  1  0
 18 12  1  0
 19 17  1  0
 20 16  1  0
 21  3  1  0
 21 13  1  0
 21 18  1  0
 22 18  2  0
 23 19  2  0
 24 20  2  0
 25  4  1  0
 25 19  1  0
 26 20  1  0
 26 21  1  0
M  END
>  <NAME>  (821) 
KETOEMBLIDE

>  <SYNONYMS>  (821) 


>  <SPECTRUM TYPE>  (821) 
MS1

>  <INSTRUMENT TYPE>  (821) 
EI-B

>  <INSTRUMENT>  (821) 
HITACHI RMU-6L

>  <ION MODE>  (821) 
P

>  <INCHIKEY>  (821) 
SSRWHVBVQPAITB-DLGMIZISSA-N

>  <FORMULA>  (821) 
C21H28O5

>  <EXACT MASS>  (821) 
360.19367399600003

>  <MW>  (821) 
360

>  <ID>  (821) 
JP010840

>  <CONTRIBUTOR>  (821) 
University of Tokyo Team, {Faculty of Engineering, University of Tokyo

>  <COMMENT>  (821) 
SMILES=COC(=O)C(=C2)CCC(=O)C(C)(C1)OC(=O)C(CCC(C(C)C)=C2)=CC1
InChI=InChI=1S/C21H28O5/c1-14(2)15-7-9-16-6-5-13-21(3,26-20(16)24)18(22)12-11-17(10-8-15)19(23)25-4/h6,8,10,14H,5,7,9,11-13H2,1-4H3/b15-8-,17-10+
computed SMILES=O=C(OC)C1=CC=C(CCC2=CCCC(OC2=O)(C(=O)CC1)C)C(C)C
accession=JP010840
date=2016.01.19 (Created 2008.10.21, modified 2011.05.06)
author=HAMAMATSU UNIV. SCHOOL OF MEDICINE
license=CC BY-NC-SA
exact mass=360.19367
ionization energy=70 eV
ion type=[M]+*
computed spectral entropy=3.8969039661667733
computed normalized entropy=0.7668950719647537
SPLASH=splash10-001u-9210000000-32f91c6148b0e34effc4
submitter=submitter = University of Tokyo Team (Faculty of Engineering, University of Tokyo)
MoNA Rating=3.75

>  <NUM PEAKS>  (821) 
161

>  <MASS SPECTRAL PEAKS>  (821) 
41 25.3
42 3.4
43 38.9
44 0.13
45 2.4
47 36.5
48 17.3
49 1.62
50 5
51 2.4
52 1.6
53 0.78
54 1.5
55 9.8
57 2.5
58 0.17
59 5.6
65 4.9
66 2.4
67 0.88
68 1.9
69 10.5
70 1.7
71 0.28
72 1.2
77 10.7
78 2.9
79 1.01
80 1.6
81 5.5
82 4.3
83 99.99
84 11.5
85 66.6
86 6.5
87 0.89
91 15.1
92 2.9
93 5.7
94 0.16
95 5.8
96 1.2
97 1.9
103 0.22
104 1.3
105 7.2
106 2.3
107 0.43
108 1.7
109 3
110 2.7
111 0.22
115 2.8
116 1.2
117 3.3
118 0.26
119 6.6
120 2.4
121 4.2
122 0.16
123 2
124 1.3
125 1.2
127 0.13
128 2
129 2.9
130 1.1
131 0.31
132 1.2
133 3.3
134 2.4
135 0.31
136 1.3
137 3.4
138 1.5
141 0.2
143 2.3
145 2.9
146 1.2
147 0.38
148 3.3
149 4
150 1.2
151 0.23
152 5.8
153 1.2
155 1.5
157 0.19
159 2.6
160 1.6
161 2.8
162 0.15
163 1.6
165 1.8
166 1.3
169 0.13
171 2.5
172 1.3
173 2.3
175 0.16
177 1.3
179 1.7
185 1.7
186 0.12
187 2.8
188 1.4
189 3.5
190 0.17
191 1.2
192 1.6
197 1.5
199 0.29
200 1.5
201 2.5
202 1.5
203 0.14
207 1.1
211 1.3
213 1.6
214 0.13
215 3
216 1.3
217 1.5
219 0.11
227 1.3
228 1
229 2.4
230 0.2
231 2
239 1.7
241 1.5
242 0.22
243 3
244 1.6
249 1.2
255 0.11
257 2.1
258 1.2
267 1.8
268 0.07
275 1.7
282 1.3
283 1.3
284 0.13
285 1.8
289 3.2
290 0.7
300 0.14
301 0.9
313 0.9
314 0.6
315 0.04
317 3.5
318 0.7
319 0.2
328 1.21
329 3.9
330 0.9
332 0.3
360 0.31
361 0.5

>  <PREDICTED SPECTRUM>  (821) 
19 0
26 40
27 145
28 31
29 164
31 72
33 37
34 1
36 3
37 18
38 56
39 298
40 150
41 704
42 220
43 999
44 206
45 254
46 24
47 57
48 21
49 53
50 109
51 200
52 142
53 392
54 138
55 574
56 209
57 303
58 129
59 273
60 110
61 91
62 57
63 175
64 85
65 331
66 183
67 352
68 176
69 401
70 143
71 299
72 90
73 121
74 58
75 54
76 57
77 419
78 232
79 457
80 183
81 384
82 203
83 285
84 174
85 223
86 107
87 116
88 58
89 133
90 73
91 564
92 220
93 419
94 196
95 323
96 195
97 223
98 156
99 201
100 97
101 86
102 88
103 185
104 116
105 414
106 190
107 322
108 219
109 346
110 235
111 219
112 141
113 122
114 36
115 285
116 195
117 240
118 195
119 286
120 159
121 522
122 332
123 302
124 194
125 190
126 79
127 158
128 233
129 231
130 130
131 254
132 133
133 305
134 253
135 263
136 247
137 222
138 146
139 143
140 81
141 201
142 103
143 200
144 145
145 241
146 140
147 248
148 145
149 216
150 136
151 195
152 209
153 179
154 164
155 218
156 149
157 237
158 106
159 250
160 179
161 251
162 185
163 256
164 118
165 238
166 151
167 181
168 124
169 173
170 79
171 239
172 164
173 241
174 184
175 175
176 142
177 185
178 157
179 211
180 130
181 162
182 109
183 189
184 99
185 261
186 159
187 202
188 166
189 243
190 128
191 182
192 108
193 174
194 75
195 170
196 130
197 220
198 174
199 223
200 159
201 210
202 114
203 214
204 155
205 205
206 115
207 134
208 120
209 207
210 123
211 200
212 126
213 174
214 100
215 198
216 96
217 157
218 157
219 140
220 18
221 27
222 27
223 145
224 124
225 208
226 103
227 215
228 133
229 195
230 186
231 241
232 134
233 120
234 29
235 44
236 69
237 124
238 115
239 158
240 69
241 119
242 120
243 204
244 187
245 228
246 81
247 85
249 75
250 86
251 87
252 57
253 153
254 198
255 261
256 202
257 243
258 131
259 201
260 74
261 136
262 47
263 28
264 8
265 39
266 122
267 142
268 68
269 8
271 228
272 259
273 213
274 133
275 73
276 18
279 4
280 39
281 37
282 165
283 153
284 149
285 157
286 81
287 39
288 15
289 78
290 33
291 11
294 31
295 65
296 6
297 138
298 74
299 131
300 234
301 150
302 32
310 83
311 58
312 62
313 91
314 0
316 33
317 81
318 15
327 33
328 156
329 182
330 37
332 52
333 21
342 125
343 21
345 41
360 352
361 150
362 33

$$$$

     RDKit          2D

 24 24  0  0  1  0  0  0  0  0999 V2000
   -5.9002   -0.7187    0.0000 C   0  0  0  0  0  0  0  0  0  0  0  0
   -3.6504   -2.0181    0.0000 C   0  0  0  0  0  0  0  0  0  0  0  0
    0.8502   -2.0189    0.0000 C   0  0  0  0  0  0  0  0  0  0  0  0
    3.1002    4.4689    0.0000 C   0  0  0  0  0  0  0  0  0  0  0  0
   -1.3998    1.8711    0.0000 C   0  0  0  0  0  0  0  0  0  0  0  0
    0.8506    8.3670    0.0000 C   0  0  0  0  0  0  0  0  0  0  0  0
    2.3500    0.5800    0.0000 C   0  0  0  0  0  0  0  0  0  0  0  0
    0.8500    0.5800    0.0000 C   0  0  0  0  0  0  0  0  0  0  0  0
    3.1000    1.8700    0.0000 C   0  0  0  0  0  0  0  0  0  0  0  0
   -1.4000   -0.7200    0.0000 C   0  0  0  0  0  0  0  0  0  0  0  0
   -3.6500    3.1700    0.0000 C   0  0  0  0  0  0  0  0  0  0  0  0
   -2.1500    0.5800    0.0000 C   0  0  0  0  0  0  0  0  0  0  0  0
   -4.4000    1.8800    0.0000 C   0  0  0  0  0  0  0  0  0  0  0  0
    0.8500    3.1700    0.0000 C   0  0  0  0  0  0  0  0  0  0  0  0
   -1.4000    4.4700    0.0000 C   0  0  0  0  0  0  0  0  0  0  0  0
   -4.4002   -0.7189    0.0000 C   0  0  0  0  0  0  0  0  0  0  0  0
    0.1000   -0.7200    0.0000 C   0  0  0  0  0  0  0  0  0  0  0  0
    2.3500    3.1700    0.0000 C   0  0  0  0  0  0  0  0  0  0  0  0
   -2.1500    3.1700    0.0000 C   0  0  0  0  0  0  0  0  0  0  0  0
    0.1004    7.0681    0.0000 C   0  0  0  0  0  0  0  0  0  0  0  0
   -3.6500    0.5800    0.0000 C   0  0  0  0  0  0  0  0  0  0  0  0
    0.1000    4.4700    0.0000 C   0  0  0  0  0  0  0  0  0  0  0  0
   -1.3996    7.0683    0.0000 O   0  0  0  0  0  0  0  0  0  0  0  0
    0.8502    5.7689    0.0000 O   0  0  0  0  0  0  0  0  0  0  0  0
  8  7  1  0
  9  7  1  0
 10 12  2  3
 13 11  1  0
 16  1  1  0
 16  2  1  0
 17  3  1  0
  8 17  2  0
 17 10  1  0
 18  4  1  0
  9 18  2  0
 18 14  1  0
 19  5  1  0
 19 11  1  0
 15 19  2  0
 20  6  1  0
 21 12  1  0
 21 13  1  0
 21 16  1  6
 22 14  1  0
 22 15  1  0
 23 20  2  0
 24 20  1  0
 22 24  1  6
M  END
>  <NAME>  (822) 
(1S,2E,4E,7E,10R,11E)-10-ACETOXYCEMBRA-2,4,7,11-TETRAENE

>  <SYNONYMS>  (822) 


>  <SPECTRUM TYPE>  (822) 
MS1

>  <INSTRUMENT TYPE>  (822) 
EI-B

>  <INSTRUMENT>  (822) 
HITACHI RMU-6L

>  <ION MODE>  (822) 
P

>  <INCHIKEY>  (822) 
AVHLQLZONYQCES-VWRYFPDESA-N

>  <FORMULA>  (822) 
C22H34O2

>  <EXACT MASS>  (822) 
330.255880328

>  <MW>  (822) 
330

>  <ID>  (822) 
JP010839

>  <CONTRIBUTOR>  (822) 
University of Tokyo Team, {Faculty of Engineering, University of Tokyo

>  <COMMENT>  (822) 
SMILES=CC(=O)OC([H])(C1)C([H])=C(C)CCC([H])(C(C)C)C([H])=C([H])C(C)=C([H])CC([H])=C(C)1
InChI=InChI=1S/C22H34O2/c1-16(2)21-12-10-17(3)8-7-9-18(4)14-22(24-20(6)23)15-19(5)11-13-21/h8-10,12,15-16,21-22H,7,11,13-14H2,1-6H3/b12-10+,17-8+,18-9+,19-15+/t21-,22+/m0/s1
computed SMILES=O=C(OC1C=C(C)CCC(C=CC(=CCC=C(C)C1)C)C(C)C)C
computed InChI=InChI=1S/C22H34O2/c1-16(2)21-12-10-17(3)8-7-9-18(4)14-22(24-20(6)23)15-19(5)11-13-21/h8-10,12,15-16,21-22H,7,11,13-14H2,1-6H3/b12-10?,17-8+,18-9-,19-15+/t21-,22+/m0/s1
accession=JP010839
date=2016.01.19 (Created 2008.10.21, modified 2011.05.06)
author=HAMAMATSU UNIV. SCHOOL OF MEDICINE
license=CC BY-NC-SA
exact mass=330.25588
ionization energy=70 eV
ion type=[M]+*
computed spectral entropy=4.137579671318403
computed normalized entropy=0.8785546528962583
SPLASH=splash10-0006-9810000000-c887e5184111ec9dcfd0
submitter=submitter = University of Tokyo Team (Faculty of Engineering, University of Tokyo)
MoNA Rating=3.75

>  <NUM PEAKS>  (822) 
111

>  <MASS SPECTRAL PEAKS>  (822) 
41 53.3
42 4.1
43 99.99
44 0.3
45 6.8
53 16.1
55 46.3
56 0.51
57 9.9
60 5.8
65 8.2
66 0.3
67 19.6
68 4.4
69 35.8
70 0.45
71 10.9
77 23.6
78 5.9
79 3.45
80 17.2
81 55.2
82 10.2
83 1.8
84 16.4
85 4.5
91 38.8
92 1.14
93 57.7
94 13.1
95 28.3
96 0.6
97 20.6
98 4.8
103 4.1
105 4.33
106 15.3
107 47.8
108 14.9
109 2.75
110 6.7
111 6.3
115 5.2
117 1.01
119 42.1
120 21.5
121 32.3
122 1.13
123 21.8
124 5.1
126 5
129 0.65
131 16.3
132 16.3
133 36.5
134 1.75
135 25.9
136 13.9
137 13.3
143 0.79
145 29.1
146 12.7
147 24.4
148 0.92
149 13.2
150 5
151 5.1
157 1.34
158 5.4
159 23.8
160 8.5
161 2.38
162 8.1
163 7.8
164 12.1
165 0.59
171 11.8
173 7.1
175 10.5
177 0.68
179 5
185 9.7
186 4.8
187 0.94
188 6.1
189 17.4
190 14.3
191 0.81
199 5.5
201 7.4
202 6
203 0.66
205 3.7
206 3
215 7.5
217 0.33
227 31.1
228 8.2
229 2.6
243 0.47
244 1.7
245 3
255 11.6
256 0.27
270 26.9
271 8.7
272 1.6
287 0.33
288 2.6
330 12.1
331 3.1

>  <PREDICTED SPECTRUM>  (822) 
27 33
28 12
29 74
31 6
39 110
40 91
41 641
42 152
43 999
44 178
45 135
51 49
52 58
53 367
54 172
55 617
56 171
57 305
58 60
59 121
60 145
61 6
65 209
66 148
67 523
68 263
69 605
70 167
71 273
73 10
77 413
78 178
79 550
80 303
81 754
82 372
83 381
84 254
85 248
86 38
91 617
92 334
93 789
94 357
95 620
96 295
97 305
98 133
99 125
100 5
103 100
104 99
105 576
106 339
107 729
108 418
109 547
110 255
111 224
112 45
113 55
114 21
115 177
116 71
117 239
118 175
119 688
120 510
121 623
122 387
123 477
124 135
125 137
126 45
127 128
128 131
129 199
130 73
131 504
132 419
133 618
134 299
135 648
136 319
137 547
138 67
139 75
141 151
142 58
143 199
144 212
145 531
146 410
147 524
148 331
149 441
150 289
151 239
152 33
155 60
157 258
158 152
159 579
160 335
161 344
162 244
163 319
164 193
165 156
167 125
168 7
169 48
171 308
172 71
173 337
174 86
175 287
176 102
177 152
178 65
179 76
181 36
183 65
184 5
185 250
186 62
187 353
188 243
189 472
190 230
191 152
192 41
193 14
195 131
197 1
199 177
200 133
201 327
202 198
203 148
204 25
205 131
206 40
210 30
211 84
212 1
213 97
214 91
215 275
216 2
217 69
218 20
225 8
227 618
228 384
229 124
231 62
242 9
245 29
253 38
255 474
256 159
262 11
269 11
270 748
271 352
272 43
287 144
288 149
330 399
331 95

$$$$

     RDKit          2D

 21 21  0  0  1  0  0  0  0  0999 V2000
   -5.9002   -0.7187    0.0000 C   0  0  0  0  0  0  0  0  0  0  0  0
   -3.6504   -2.0181    0.0000 C   0  0  0  0  0  0  0  0  0  0  0  0
    0.8502   -2.0189    0.0000 C   0  0  0  0  0  0  0  0  0  0  0  0
    3.1002    4.4689    0.0000 C   0  0  0  0  0  0  0  0  0  0  0  0
   -1.3998    1.8711    0.0000 C   0  0  0  0  0  0  0  0  0  0  0  0
    2.3500    0.5800    0.0000 C   0  0  0  0  0  0  0  0  0  0  0  0
    0.8500    0.5800    0.0000 C   0  0  0  0  0  0  0  0  0  0  0  0
    3.1000    1.8700    0.0000 C   0  0  0  0  0  0  0  0  0  0  0  0
   -1.4000   -0.7200    0.0000 C   0  0  0  0  0  0  0  0  0  0  0  0
   -3.6500    3.1700    0.0000 C   0  0  0  0  0  0  0  0  0  0  0  0
   -2.1500    0.5800    0.0000 C   0  0  0  0  0  0  0  0  0  0  0  0
   -4.4000    1.8800    0.0000 C   0  0  0  0  0  0  0  0  0  0  0  0
    0.8500    3.1700    0.0000 C   0  0  0  0  0  0  0  0  0  0  0  0
   -1.4000    4.4700    0.0000 C   0  0  0  0  0  0  0  0  0  0  0  0
   -4.4002   -0.7189    0.0000 C   0  0  0  0  0  0  0  0  0  0  0  0
    0.1000   -0.7200    0.0000 C   0  0  0  0  0  0  0  0  0  0  0  0
    2.3500    3.1700    0.0000 C   0  0  0  0  0  0  0  0  0  0  0  0
   -2.1500    3.1700    0.0000 C   0  0  0  0  0  0  0  0  0  0  0  0
   -3.6500    0.5800    0.0000 C   0  0  0  0  0  0  0  0  0  0  0  0
    0.1000    4.4700    0.0000 C   0  0  0  0  0  0  0  0  0  0  0  0
    0.8502    5.7689    0.0000 O   0  0  0  0  0  0  0  0  0  0  0  0
  7  6  1  0
  8  6  1  0
  9 11  2  3
 12 10  1  0
 15  1  1  0
 15  2  1  0
 16  3  1  0
  7 16  2  0
 16  9  1  0
 17  4  1  0
  8 17  2  0
 17 13  1  0
 18  5  1  0
 18 10  1  0
 14 18  2  0
 19 11  1  0
 19 12  1  0
 19 15  1  6
 20 13  1  0
 20 14  1  0
 21 20  2  0
M  END
>  <NAME>  (823) 
(1S,2E,4E,7E,11E)-10-OXOCEMBRA-2,4,7,11-TETRAENE

>  <SYNONYMS>  (823) 


>  <SPECTRUM TYPE>  (823) 
MS1

>  <INSTRUMENT TYPE>  (823) 
EI-B

>  <INSTRUMENT>  (823) 
HITACHI RMU-6L

>  <ION MODE>  (823) 
P

>  <INCHIKEY>  (823) 
MZTPSSNCTBEIEA-PHZHXBCNSA-N

>  <FORMULA>  (823) 
C20H30O

>  <EXACT MASS>  (823) 
286.22966557999996

>  <MW>  (823) 
286

>  <ID>  (823) 
JP010838

>  <CONTRIBUTOR>  (823) 
University of Tokyo Team, {Faculty of Engineering, University of Tokyo

>  <COMMENT>  (823) 
SMILES=[H]C(C1)=C(C)CC(=O)C([H])=C(C)CCC([H])(C(C)C)C([H])=C([H])C(C)=C([H])1
InChI=InChI=1S/C20H30O/c1-15(2)19-11-9-16(3)7-6-8-17(4)13-20(21)14-18(5)10-12-19/h7-9,11,14-15,19H,6,10,12-13H2,1-5H3/b11-9+,16-7+,17-8+,18-14+/t19-/m0/s1
computed SMILES=O=C1C=C(C)CCC(C=CC(=CCC=C(C)C1)C)C(C)C
computed InChI=InChI=1S/C20H30O/c1-15(2)19-11-9-16(3)7-6-8-17(4)13-20(21)14-18(5)10-12-19/h7-9,11,14-15,19H,6,10,12-13H2,1-5H3/b11-9?,16-7+,17-8-,18-14+/t19-/m0/s1
accession=JP010838
date=2016.01.19 (Created 2008.10.21, modified 2011.05.06)
author=HAMAMATSU UNIV. SCHOOL OF MEDICINE
license=CC BY-NC-SA
exact mass=286.22967
ionization energy=70 eV
ion type=[M]+*
computed spectral entropy=4.092799513847437
computed normalized entropy=0.8609912401588128
SPLASH=splash10-0536-9500000000-53687885f39ce19ab86e
submitter=submitter = University of Tokyo Team (Faculty of Engineering, University of Tokyo)
MoNA Rating=3.75

>  <NUM PEAKS>  (823) 
116

>  <MASS SPECTRAL PEAKS>  (823) 
40 7.4
41 99.99
42 8.6
43 4.88
47 22
48 11.8
49 29.4
50 0.4
51 11.5
52 3.3
53 37.9
54 1.31
55 63.6
56 4.3
57 9.9
65 1.59
66 5.2
67 45.7
68 13
69 4.66
70 5.5
71 7.4
77 37
78 0.99
79 42.3
80 16.2
81 66.5
82 3.02
83 76.7
84 18
85 46.3
86 1.13
87 7.8
88 12.2
91 50.4
92 1.32
93 48.7
94 8.5
95 50.4
96 2.55
97 10.1
103 5
104 3.4
105 4.63
106 13
107 51.8
108 14.7
109 2.29
110 4.9
111 5.5
115 6.2
116 0.35
117 10.1
118 3.4
119 32.9
120 1.99
121 29.8
122 14.9
123 40.4
124 0.57
128 3.6
129 5.3
131 12.1
132 0.56
133 23.3
134 11.5
135 26.4
136 1.26
137 12.2
143 4.6
145 16.2
146 0.52
147 23.6
148 20.1
149 15.5
150 1.19
151 5.6
157 4.7
159 14.4
160 0.46
161 17.4
162 10
163 13
164 0.46
173 6.6
175 12.4
176 4.1
177 0.59
178 3.2
183 2.6
187 7.2
188 0.29
189 8.3
190 4.9
191 7
201 0.53
202 2.9
203 6.3
204 3.1
205 0.49
206 2.4
215 4.9
216 2.3
217 0.81
218 4.6
219 1
225 4.1
231 0.27
233 1.7
243 13.5
244 3
271 0.4
272 1
286 15.2
287 4.5
288 1

>  <PREDICTED SPECTRUM>  (823) 
27 1
29 60
37 36
38 12
39 263
40 175
41 999
42 232
43 700
44 163
45 153
47 52
49 155
50 73
51 231
52 185
53 615
54 235
55 947
56 250
57 418
58 94
59 88
60 45
63 113
64 59
65 401
66 277
67 807
68 387
69 716
70 237
71 445
72 42
73 51
74 15
75 54
76 20
77 718
78 335
79 802
80 412
81 955
82 514
83 605
84 359
85 406
86 56
87 12
89 60
90 36
91 827
92 420
93 902
94 408
95 769
96 326
97 422
98 136
99 81
103 216
104 137
105 735
106 326
107 824
108 555
109 527
110 278
111 307
112 39
113 2
115 232
116 110
117 280
118 164
119 823
120 473
121 719
122 456
123 663
124 180
125 157
126 18
127 27
128 181
129 172
131 458
132 307
133 689
134 412
135 680
136 371
137 458
138 111
139 131
141 37
143 130
144 70
145 362
146 288
147 609
148 450
149 521
150 265
151 209
152 20
157 57
158 23
159 487
160 215
161 425
162 301
163 412
164 197
165 170
169 29
171 128
172 13
173 292
174 198
175 368
176 227
177 147
178 85
179 62
183 79
184 13
185 82
187 264
188 153
189 433
190 252
191 225
192 41
199 6
201 339
202 211
203 327
204 189
205 159
206 19
215 250
216 148
217 90
218 126
219 181
225 94
227 45
228 21
229 54
230 4
231 31
243 326
244 168
246 33
253 51
257 5
258 20
271 179
272 81
286 577
287 277
288 120

$$$$

     RDKit          2D

 21 21  0  0  1  0  0  0  0  0999 V2000
    2.3461   -2.0181    0.0000 C   0  0  0  0  0  0  0  0  0  0  0  0
    4.5980   -0.7224    0.0000 C   0  0  0  0  0  0  0  0  0  0  0  0
   -4.3980    4.4702    0.0000 C   0  0  0  0  0  0  0  0  0  0  0  0
   -2.1502   -2.0189    0.0000 C   0  0  0  0  0  0  0  0  0  0  0  0
    0.0998    1.8711    0.0000 C   0  0  0  0  0  0  0  0  0  0  0  0
   -3.6500    0.5800    0.0000 C   0  0  0  0  0  0  0  0  0  0  0  0
   -1.4000    4.4700    0.0000 C   0  0  0  0  0  0  0  0  0  0  0  0
   -4.4000    1.8800    0.0000 C   0  0  0  0  0  0  0  0  0  0  0  0
   -2.1500    3.1700    0.0000 C   0  0  0  0  0  0  0  0  0  0  0  0
   -2.1500    0.5800    0.0000 C   0  0  0  0  0  0  0  0  0  0  0  0
    0.1000    4.4700    0.0000 C   0  0  0  0  0  0  0  0  0  0  0  0
    0.1000   -0.7200    0.0000 C   0  0  0  0  0  0  0  0  0  0  0  0
    0.8500    0.5800    0.0000 C   0  0  0  0  0  0  0  0  0  0  0  0
    2.3500    3.1700    0.0000 C   0  0  0  0  0  0  0  0  0  0  0  0
    3.0980   -0.7202    0.0000 C   0  0  0  0  0  0  0  0  0  0  0  0
   -3.6500    3.1700    0.0000 C   0  0  0  0  0  0  0  0  0  0  0  0
   -1.4000   -0.7200    0.0000 C   0  0  0  0  0  0  0  0  0  0  0  0
    0.8500    3.1700    0.0000 C   0  0  0  0  0  0  0  0  0  0  0  0
    2.3500    0.5800    0.0000 C   0  0  0  0  0  0  0  0  0  0  0  0
    3.1000    1.8700    0.0000 C   0  0  0  0  0  0  0  0  0  0  0  0
    4.6000    1.8675    0.0000 O   0  0  0  0  0  0  0  0  0  0  0  0
  8  6  1  0
  9  7  1  0
 10  6  1  0
 11  7  1  0
 13 12  1  0
 15  1  2  0
 15  2  1  0
 16  3  1  0
  8 16  2  0
 16  9  1  0
 17  4  1  0
 17 10  1  0
 12 17  2  0
 18  5  1  0
 11 18  2  0
 18 14  1  0
 19 13  1  0
 19 15  1  1
 20 14  1  0
 20 19  1  0
 21 20  2  0
M  END
>  <NAME>  (824) 
13-OXONEOCEMBRENE

>  <SYNONYMS>  (824) 


>  <SPECTRUM TYPE>  (824) 
MS1

>  <INSTRUMENT TYPE>  (824) 
EI-B

>  <INSTRUMENT>  (824) 
HITACHI RMU-6L

>  <ION MODE>  (824) 
P

>  <INCHIKEY>  (824) 
FHFFESCITRPPTG-ZSAANFQCSA-N

>  <FORMULA>  (824) 
C20H30O

>  <EXACT MASS>  (824) 
286.22966558

>  <MW>  (824) 
286

>  <ID>  (824) 
JP010836

>  <CONTRIBUTOR>  (824) 
University of Tokyo Team, {Faculty of Engineering, University of Tokyo

>  <COMMENT>  (824) 
SMILES=[H]C(C1)=C(C)CCC([H])=C(C)CC(=O)C([H])(C(C)=C)CC([H])=C(C)C1
InChI=InChI=1S/C20H30O/c1-15(2)19-13-12-17(4)10-6-8-16(3)9-7-11-18(5)14-20(19)21/h8,11-12,19H,1,6-7,9-10,13-14H2,2-5H3/b16-8+,17-12+,18-11+/t19-/m1/s1
computed SMILES=O=C1CC(=CCCC(=CCCC(=CCC1C(=C)C)C)C)C
computed InChI=InChI=1S/C20H30O/c1-15(2)19-13-12-17(4)10-6-8-16(3)9-7-11-18(5)14-20(19)21/h8,11-12,19H,1,6-7,9-10,13-14H2,2-5H3/b16-8-,17-12-,18-11+/t19-/m1/s1
accession=JP010836
date=2016.01.19 (Created 2008.10.21, modified 2011.05.06)
author=HAMAMATSU UNIV. SCHOOL OF MEDICINE
license=CC BY-NC-SA
exact mass=286.22967
ionization energy=70 eV
ion type=[M]+*
computed spectral entropy=3.5853918289027114
computed normalized entropy=0.8254034149100247
SPLASH=splash10-0awc-9400000000-7cc26d5a35334f881eb5
submitter=submitter = University of Tokyo Team (Faculty of Engineering, University of Tokyo)
MoNA Rating=3.75

>  <NUM PEAKS>  (824) 
77

>  <MASS SPECTRAL PEAKS>  (824) 
41 81.4
42 6.8
43 25.4
51 0.34
53 44.1
54 16.9
55 47.5
56 0.51
57 11.9
65 11.9
66 5.1
67 6.1
68 79.7
69 25.4
70 1.7
71 0.68
77 25.4
78 5.1
79 47.5
80 2.81
81 49.1
82 84.7
83 18.6
84 0.34
85 1.5
91 37.3
92 10.2
93 8.64
94 33.9
95 32.2
96 6.8
97 0.51
105 20.3
106 6.8
107 99.99
108 3.73
109 25.4
110 5.1
111 1.7
119 1.53
120 13.6
121 50.8
122 39.8
123 2.88
124 0.8
131 0.8
133 10.2
134 1.53
135 22
136 8.5
137 5.1
138 0.08
145 3.4
146 0.8
147 15.3
148 0.76
149 11.9
150 8.5
151 5.1
161 0.68
162 5.1
163 3.4
164 1.7
173 0.25
175 10.2
176 4.2
177 3.4
189 0.68
190 1.7
203 5.1
227 4.2
228 0.17
243 1.7
258 7
271 1.7
286 2.2
287 5.1

>  <PREDICTED SPECTRUM>  (824) 
27 31
28 12
29 69
39 178
40 130
41 761
42 224
43 394
44 137
45 24
49 23
50 31
51 156
52 160
53 547
54 262
55 741
56 236
57 171
63 11
64 25
65 244
66 231
67 828
68 770
69 685
70 143
71 195
77 326
78 142
79 570
80 289
81 999
82 550
83 351
84 135
85 67
91 402
92 223
93 692
94 429
95 715
96 379
97 179
104 12
105 340
106 217
107 706
108 434
109 592
110 171
111 132
118 11
119 385
120 303
121 665
122 538
123 361
124 125
125 12
131 49
132 74
133 258
134 321
135 545
136 345
137 310
138 99
139 31
145 118
146 83
147 321
148 192
149 307
150 172
151 92
155 32
159 162
160 126
161 199
162 223
163 265
164 96
165 144
173 27
174 73
175 286
176 169
177 192
179 10
183 40
184 16
185 13
187 79
188 18
189 189
190 66
191 114
200 6
201 107
202 41
203 172
204 42
205 36
206 13
215 46
217 32
218 93
228 8
229 75
230 32
231 51
243 168
244 53
257 44
258 46
268 10
269 11
271 290
272 64
286 288
287 248

$$$$

     RDKit          2D

 13 12  0  0  0  0  0  0  0  0999 V2000
   -6.8200    5.0625    0.0000 C   0  0  0  0  0  0  0  0  0  0  0  0
   -5.5209    2.8125    0.0000 C   0  0  0  0  0  0  0  0  0  0  0  0
    3.5724    5.0625    0.0000 C   0  0  0  0  0  0  0  0  0  0  0  0
    2.2733    2.8125    0.0000 C   0  0  0  0  0  0  0  0  0  0  0  0
   -1.6238    5.0625    0.0000 C   0  0  0  0  0  0  0  0  0  0  0  0
   -5.5209    4.3125    0.0000 C   0  0  0  0  0  0  0  0  0  0  0  0
    2.2733    4.3125    0.0000 C   0  0  0  0  0  0  0  0  0  0  0  0
   -2.9228    4.3125    0.0000 C   0  0  0  0  0  0  0  0  0  0  0  0
   -0.3248    4.3125    0.0000 C   0  0  0  0  0  0  0  0  0  0  0  0
   -2.9228    2.8125    0.0000 O   0  0  0  0  0  0  0  0  0  0  0  0
   -0.3248    2.8125    0.0000 O   0  0  0  0  0  0  0  0  0  0  0  0
   -4.2219    5.0625    0.0000 O   0  0  0  0  0  0  0  0  0  0  0  0
    0.9743    5.0625    0.0000 O   0  0  0  0  0  0  0  0  0  0  0  0
  6  1  1  0
  6  2  1  0
  7  3  1  0
  7  4  1  0
  8  5  1  0
  9  5  1  0
 10  8  2  0
 11  9  2  0
 12  6  1  0
 12  8  1  0
 13  7  1  0
 13  9  1  0
M  END
>  <NAME>  (825) 
DIISOPROPYL MALONATE

>  <SYNONYMS>  (825) 


>  <SPECTRUM TYPE>  (825) 
MS1

>  <INSTRUMENT TYPE>  (825) 
EI-B

>  <INSTRUMENT>  (825) 
HITACHI RMU-6M

>  <ION MODE>  (825) 
P

>  <INCHIKEY>  (825) 
QRVSDVDFJFKYKA-UHFFFAOYSA-N

>  <FORMULA>  (825) 
C9H16O4

>  <EXACT MASS>  (825) 
188.104858992

>  <MW>  (825) 
188

>  <ID>  (825) 
JP010834

>  <CONTRIBUTOR>  (825) 
University of Tokyo Team, {Faculty of Engineering, University of Tokyo

>  <COMMENT>  (825) 
SMILES=CC(C)OC(=O)CC(=O)OC(C)C
InChI=InChI=1S/C9H16O4/c1-6(2)12-8(10)5-9(11)13-7(3)4/h6-7H,5H2,1-4H3
computed SMILES=O=C(OC(C)C)CC(=O)OC(C)C
accession=JP010834
date=2016.01.19 (Created 2008.10.21, modified 2011.05.06)
license=CC BY-NC-SA
author=HAMAMATSU UNIV. SCHOOL OF MEDICINE
exact mass=188.10486
ionization energy=70 eV
ion type=[M]+*
computed spectral entropy=2.3781792844399403
computed normalized entropy=0.7062579008537818
SPLASH=splash10-052f-9300000000-a9a97bb2b4a68d7c233b
submitter=submitter = University of Tokyo Team (Faculty of Engineering, University of Tokyo)
MoNA Rating=3.75

>  <NUM PEAKS>  (825) 
29

>  <MASS SPECTRAL PEAKS>  (825) 
15 2.5
27 12.6
28 1.7
29 0.17
31 1.7
39 5.9
40 1.3
41 1.76
42 11.8
43 99.99
44 3.4
45 1.18
57 1.7
59 25.6
60 14.3
61 0.17
69 2.1
87 37
88 1.7
102 0.97
105 32.4
106 1.3
111 14.7
118 0.21
129 29.4
130 2.1
131 3.8
147 0.46
172 2.1

>  <PREDICTED SPECTRUM>  (825) 
14 27
15 147
16 2
26 55
27 240
28 121
29 40
31 101
37 4
39 245
40 151
41 451
42 419
43 999
44 232
45 184
53 22
55 34
57 2
59 414
60 285
61 142
62 125
63 73
69 396
70 124
79 5
85 1
86 204
87 699
88 232
89 29
101 213
102 107
103 13
104 234
105 385
118 83
128 69
129 685
130 117
131 251
146 135
147 126
148 17
173 1

$$$$

     RDKit          2D

 20 21  0  0  1  0  0  0  0  0999 V2000
   10.0231    1.2915    0.0000 C   0  0  0  0  0  0  0  0  0  0  0  0
    8.7242    0.5412    0.0000 C   0  0  0  0  0  0  0  0  0  0  0  0
    4.8263    5.7906    0.0000 C   0  0  0  0  0  0  0  0  0  0  0  0
    3.5264    5.0404    0.0000 C   0  0  0  0  0  0  0  0  0  0  0  0
    6.1264    5.0408    0.0000 C   0  0  0  0  0  0  0  0  0  0  0  0
   -0.3700   -1.7100    0.0000 C   0  0  0  0  0  0  0  0  0  0  0  0
   -1.6700   -0.9600    0.0000 C   0  0  0  0  0  0  0  0  0  0  0  0
    3.5266    3.5404    0.0000 C   0  0  0  0  0  0  0  0  0  0  0  0
    6.1266    3.5408    0.0000 C   0  0  0  0  0  0  0  0  0  0  0  0
    0.9300   -0.9600    0.0000 C   0  0  0  0  0  0  0  0  0  0  0  0
   -1.6700    0.5400    0.0000 C   0  0  0  0  0  0  0  0  0  0  0  0
    3.5281    0.5404    0.0000 C   0  0  0  0  0  0  0  0  0  0  0  0
    4.8268    2.7906    0.0000 C   0  0  0  0  0  0  0  0  0  0  0  0
    4.8270    1.2906    0.0000 C   0  0  0  0  0  0  0  0  0  0  0  0
    7.4251    1.2910    0.0000 C   0  0  0  0  0  0  0  0  0  0  0  0
    0.9300    0.5400    0.0000 C   0  0  0  0  0  0  0  0  0  0  0  0
    6.1262    0.5408    0.0000 N   0  0  0  0  0  0  0  0  0  0  0  0
    7.4248    2.7910    0.0000 O   0  0  0  0  0  0  0  0  0  0  0  0
   -0.3700    1.2900    0.0000 O   0  0  0  0  0  0  0  0  0  0  0  0
    2.2289    1.2902    0.0000 O   0  0  0  0  0  0  0  0  0  0  0  0
  2  1  1  0
  4  3  2  0
  5  3  1  0
  7  6  1  0
  8  4  1  0
  9  5  2  0
 10  6  1  0
 11  7  1  0
 13  8  2  0
 13  9  1  0
 14 12  1  1
 14 13  1  0
 15  2  1  0
 16 10  1  0
 14 17  1  0
 17 15  2  3
 18 15  1  0
 19 11  1  0
 19 16  1  0
 20 12  1  0
 20 16  1  0
M  END
>  <NAME>  (826) 
(1R)-2-(2-TETRAHYDROPYRANYLOXY)-1-PROPIONYLAMINOETHYLBENZENE

>  <SYNONYMS>  (826) 


>  <SPECTRUM TYPE>  (826) 
MS1

>  <INSTRUMENT TYPE>  (826) 
EI-B

>  <INSTRUMENT>  (826) 
SHIMADZU LKB-9000B

>  <ION MODE>  (826) 
P

>  <INCHIKEY>  (826) 
FVMZMHCLDKHCNA-LBAUFKAWSA-N

>  <FORMULA>  (826) 
C16H23NO3

>  <EXACT MASS>  (826) 
277.167793596

>  <MW>  (826) 
277

>  <ID>  (826) 
JP010833

>  <CONTRIBUTOR>  (826) 
University of Tokyo Team, {Faculty of Engineering, University of Tokyo

>  <COMMENT>  (826) 
SMILES=CCC(=O)NC([H])(COC(C2)OCCC2)c(c1)cccc1
InChI=InChI=1S/C16H23NO3/c1-2-15(18)17-14(13-8-4-3-5-9-13)12-20-16-10-6-7-11-19-16/h3-5,8-9,14,16H,2,6-7,10-12H2,1H3,(H,17,18)/t14-,16?/m0/s1
computed SMILES=OC(=NC(C=1C=CC=CC1)COC2OCCCC2)CC
accession=JP010833
date=2016.01.19 (Created 2008.10.21, modified 2011.05.06)
author=HAMAMATSU UNIV. SCHOOL OF MEDICINE
license=CC BY-NC-SA
exact mass=277.16779
ionization energy=70 eV
ion type=[M]+*
computed spectral entropy=2.788562676080321
computed normalized entropy=0.8460863778919384
SPLASH=splash10-06rf-5900000000-bf46a00a577b9ec52968
submitter=submitter = University of Tokyo Team (Faculty of Engineering, University of Tokyo)
MoNA Rating=3.75

>  <NUM PEAKS>  (826) 
27

>  <MASS SPECTRAL PEAKS>  (826) 
29 18.7
41 14.1
43 8.7
55 7.8
57 28.9
67 9.1
74 9.1
77 7.2
78 7.2
79 5.2
85 88.2
86 5.2
91 8.4
103 5.7
104 12.3
106 72.9
107 8.7
119 8
120 25.1
162 13.5
163 78.3
164 9.3
175 7.6
176 18
194 99.99
195 13.8
278 17.5

>  <PREDICTED SPECTRUM>  (826) 
26 68
27 167
28 124
29 260
30 68
31 171
33 3
38 24
39 291
40 94
41 536
42 154
43 316
44 201
45 165
46 78
47 62
50 176
51 286
52 152
53 194
54 178
55 383
56 369
57 611
58 111
59 109
60 108
61 43
62 15
63 111
64 56
65 258
66 97
67 322
68 130
69 200
70 143
71 156
72 97
73 190
74 188
75 73
76 160
77 559
78 287
79 438
80 58
81 98
82 68
83 118
84 217
85 999
86 335
87 134
89 147
90 126
91 388
92 185
93 145
95 75
96 48
97 168
98 118
99 126
100 111
101 235
102 187
103 249
104 499
105 335
106 685
107 321
108 49
110 37
111 37
112 48
114 51
115 92
116 78
117 67
118 207
119 122
120 106
122 12
126 56
127 102
128 164
129 145
130 151
131 318
132 103
133 76
138 8
139 3
143 40
144 110
145 234
146 230
147 193
148 121
158 42
159 36
160 74
161 62
162 63
163 58
173 61
174 111
175 187
176 308
177 165
192 226
193 174
194 36
205 32
231 4
232 47
260 0
277 191
278 28

$$$$

     RDKit          2D

 14 14  0  0  0  0  0  0  0  0999 V2000
   -3.8981   -0.7504    0.0000 C   0  0  0  0  0  0  0  0  0  0  0  0
    3.8981    0.7504    0.0000 C   0  0  0  0  0  0  0  0  0  0  0  0
   -1.3000    0.7500    0.0000 C   0  0  0  0  0  0  0  0  0  0  0  0
   -0.0000   -1.5000    0.0000 C   0  0  0  0  0  0  0  0  0  0  0  0
    0.0000    3.0000    0.0000 C   0  0  0  0  0  0  0  0  0  0  0  0
    2.5989   -1.5002    0.0000 C   0  0  0  0  0  0  0  0  0  0  0  0
    0.0000    1.5000    0.0000 C   0  0  0  0  0  0  0  0  0  0  0  0
    1.3000   -0.7500    0.0000 C   0  0  0  0  0  0  0  0  0  0  0  0
   -1.3000   -0.7500    0.0000 C   0  0  0  0  0  0  0  0  0  0  0  0
    1.3000    0.7500    0.0000 C   0  0  0  0  0  0  0  0  0  0  0  0
   -1.2990    3.7500    0.0000 Br  0  0  0  0  0  0  0  0  0  0  0  0
    2.5987   -3.0002    0.0000 Br  0  0  0  0  0  0  0  0  0  0  0  0
   -2.5989   -1.5002    0.0000 O   0  0  0  0  0  0  0  0  0  0  0  0
    2.5989    1.5002    0.0000 O   0  0  0  0  0  0  0  0  0  0  0  0
  7  3  2  0
  7  5  1  0
  8  4  1  0
  8  6  1  0
  9  3  1  0
  9  4  2  0
 10  7  1  0
 10  8  2  0
 11  5  1  0
 12  6  1  0
 13  1  1  0
 13  9  1  0
 14  2  1  0
 14 10  1  0
M  END
>  <NAME>  (827) 
1,3-DI(BROMOMETYL)-2,5-DIMETHOXYBENZENE

>  <SYNONYMS>  (827) 


>  <SPECTRUM TYPE>  (827) 
MS1

>  <INSTRUMENT TYPE>  (827) 
EI-B

>  <INSTRUMENT>  (827) 
SHIMADZU LKB-9000B

>  <ION MODE>  (827) 
P

>  <INCHIKEY>  (827) 
NMKXDEJEXSASNP-UHFFFAOYSA-N

>  <FORMULA>  (827) 
C10H12Br2O2

>  <EXACT MASS>  (827) 
321.920403824

>  <MW>  (827) 
322

>  <ID>  (827) 
JP010832

>  <CONTRIBUTOR>  (827) 
University of Tokyo Team, {Faculty of Engineering, University of Tokyo

>  <COMMENT>  (827) 
SMILES=COc(c1)cc(CBr)c(OC)c(CBr)1
InChI=InChI=1S/C10H12Br2O2/c1-13-9-3-7(5-11)10(14-2)8(4-9)6-12/h3-4H,5-6H2,1-2H3
computed SMILES=BrCC1=CC(OC)=CC(=C1OC)CBr
accession=JP010832
date=2016.01.19 (Created 2008.10.21, modified 2011.05.06)
author=HAMAMATSU UNIV. SCHOOL OF MEDICINE
license=CC BY-NC-SA
exact mass=321.9204
ionization energy=70 eV
ion type=[M]+*
computed spectral entropy=3.619171112774203
computed normalized entropy=0.8190318307450467
SPLASH=splash10-000m-4951000000-33758c070fd29b08a1b1
submitter=submitter = University of Tokyo Team (Faculty of Engineering, University of Tokyo)
MoNA Rating=3.75

>  <NUM PEAKS>  (827) 
83

>  <MASS SPECTRAL PEAKS>  (827) 
38 2.3
39 7.5
50 4.1
51 8.3
52 4.6
53 4.7
55 1.2
61 1.5
62 4.8
63 11.2
64 3.6
65 11
66 3.9
67 7.3
74 3.2
75 3.3
76 3.8
77 23.3
78 19.2
79 7.7
80 1
81 2.6
82 1.5
86 1.8
87 1.6
88 1.3
89 10.8
90 7.5
91 2.7
92 4.4
93 4.8
94 1.4
95 2
96 1
98 1.2
102 1.9
103 7.3
104 8.2
105 9.3
106 3.3
107 2
117 1
118 1.9
119 5.3
120 4.1
121 33.2
122 7.9
133 3.7
134 21.2
135 99.99
136 27.8
137 2.8
148 1.4
149 34.9
150 21.3
151 2.1
163 1.4
164 2.4
165 13.7
166 1.6
183 3.2
184 1.4
185 3.2
199 1.5
201 1.3
213 11.9
214 1.9
215 12.4
216 1.4
227 1.6
228 1.3
229 1.8
230 1.3
243 72.7
244 11.8
245 70.3
246 10.4
247 1
309 1.2
322 12.2
324 22
326 11.8
327 1.3

>  <PREDICTED SPECTRUM>  (827) 
15 50
17 10
18 7
26 15
27 53
29 68
34 1
37 38
38 119
39 303
40 62
41 163
42 111
43 141
44 57
49 53
50 327
51 484
52 207
53 214
54 13
55 74
56 106
57 103
58 43
61 25
62 204
63 377
64 203
65 361
66 166
67 45
68 4
69 30
74 155
75 282
76 286
77 627
78 284
79 202
80 205
81 86
82 72
86 28
89 250
90 189
91 309
92 227
93 139
94 14
95 10
96 20
102 231
103 233
104 255
105 314
106 246
107 269
108 41
109 55
117 63
118 187
119 270
120 255
121 613
122 264
123 173
124 84
130 1
132 93
133 368
134 343
135 823
136 542
137 224
138 86
139 6
147 91
148 216
149 661
150 355
151 221
163 228
164 435
165 307
166 46
173 14
185 168
199 199
200 116
201 138
202 9
213 299
214 131
215 354
217 53
227 45
228 99
229 80
230 103
242 127
243 880
244 389
245 999
246 346
247 59
291 14
295 40
321 4
322 314
323 91
324 486
325 148
326 317
327 84

$$$$

     RDKit          2D

 13 13  0  0  0  0  0  0  0  0999 V2000
   -5.8454    3.6946    0.0000 C   0  0  0  0  0  0  0  0  0  0  0  0
    3.2478    1.4446    0.0000 C   0  0  0  0  0  0  0  0  0  0  0  0
    1.9483    0.6938    0.0000 C   0  0  0  0  0  0  0  0  0  0  0  0
    3.2483    2.9454    0.0000 C   0  0  0  0  0  0  0  0  0  0  0  0
    0.6493    1.4438    0.0000 C   0  0  0  0  0  0  0  0  0  0  0  0
    1.9493    3.6954    0.0000 C   0  0  0  0  0  0  0  0  0  0  0  0
   -3.2474    3.6946    0.0000 C   0  0  0  0  0  0  0  0  0  0  0  0
   -4.5464    2.9446    0.0000 C   0  0  0  0  0  0  0  0  0  0  0  0
    0.6498    2.9446    0.0000 C   0  0  0  0  0  0  0  0  0  0  0  0
   -1.9483    2.9446    0.0000 C   0  0  0  0  0  0  0  0  0  0  0  0
   -0.6493    3.6946    0.0000 N   0  0  0  0  0  0  0  0  0  0  0  0
   -4.5464    1.4446    0.0000 O   0  0  0  0  0  0  0  0  0  0  0  0
   -1.9483    1.4446    0.0000 O   0  0  0  0  0  0  0  0  0  0  0  0
  3  2  2  0
  4  2  1  0
  5  3  1  0
  6  4  2  0
  8  1  1  0
  8  7  1  0
  9  5  2  0
  9  6  1  0
 10  7  1  0
 11  9  1  0
 11 10  2  3
 12  8  2  0
 13 10  1  0
M  END
>  <NAME>  (828) 
ACETOACETANILIDE

>  <SYNONYMS>  (828) 
N-PHENYLACETOACETAMIDE

>  <SPECTRUM TYPE>  (828) 
MS1

>  <INSTRUMENT TYPE>  (828) 
EI-B

>  <INSTRUMENT>  (828) 
HITACHI M-80A

>  <ION MODE>  (828) 
P

>  <INCHIKEY>  (828) 
DYRDKSSFIWVSNM-UHFFFAOYSA-N

>  <FORMULA>  (828) 
C10H11NO2

>  <EXACT MASS>  (828) 
177.078978592

>  <MW>  (828) 
177

>  <ID>  (828) 
JP010831

>  <CONTRIBUTOR>  (828) 
University of Tokyo Team, {Faculty of Engineering, University of Tokyo

>  <COMMENT>  (828) 
SMILES=CC(=O)CC(=O)Nc(c1)cccc1
InChI=InChI=1S/C10H11NO2/c1-8(12)7-10(13)11-9-5-3-2-4-6-9/h2-6H,7H2,1H3,(H,11,13)
computed SMILES=O=C(C)CC(O)=NC=1C=CC=CC1
accession=JP010831
date=2016.01.19 (Created 2008.10.21, modified 2011.05.06)
author=HAMAMATSU UNIV. SCHOOL OF MEDICINE
license=CC BY-NC-SA
exact mass=177.07898
ionization energy=70 eV
ion type=[M]+*
computed spectral entropy=2.6981203143360832
computed normalized entropy=0.7529248095723798
SPLASH=splash10-0006-9000000000-410c72c2eb11b5c733be
submitter=submitter = University of Tokyo Team (Faculty of Engineering, University of Tokyo)
MoNA Rating=3.75

>  <NUM PEAKS>  (828) 
36

>  <MASS SPECTRAL PEAKS>  (828) 
15 4.34
26 2.1
27 4.09
29 1.4
37 1.31
38 3.05
39 11.54
40 2.21
41 2.28
42 6.76
43 33.23
50 2.4
51 4.59
52 2.63
54 1.25
58 7.23
62 1.27
63 3.83
64 3.94
65 14.37
66 11.78
67 1.66
69 3.63
77 5.99
78 1.25
84 2.57
85 2.96
91 3.5
92 6.86
94 99.99
95 7.83
106 1.89
119 6.44
120 1.2
177 14.55
178 2.03

>  <PREDICTED SPECTRUM>  (828) 
14 41
15 95
17 28
18 51
26 14
27 101
28 78
29 60
31 68
33 15
37 51
38 115
39 374
40 159
41 264
42 278
43 858
44 201
45 304
46 1
49 21
50 351
51 723
52 241
53 104
54 112
55 79
56 54
58 80
59 97
60 29
62 62
63 223
64 196
65 485
66 208
67 74
68 10
69 65
73 131
74 199
75 157
76 120
77 999
78 348
79 39
81 51
82 12
85 88
90 116
91 490
92 299
93 526
94 56
96 27
98 55
103 142
104 239
105 74
115 27
116 87
117 257
118 959
119 742
120 104
130 114
131 120
132 399
133 299
134 258
135 136
136 9
144 330
145 55
158 111
159 235
160 220
162 184
163 2
176 193
177 818
178 309
179 124

$$$$

     RDKit          2D

 10 11  0  0  0  0  0  0  0  0999 V2000
   -2.6000    0.7500    0.0000 C   0  0  0  0  0  0  0  0  0  0  0  0
   -2.6000   -0.7500    0.0000 C   0  0  0  0  0  0  0  0  0  0  0  0
    2.6000    0.7500    0.0000 C   0  0  0  0  0  0  0  0  0  0  0  0
   -1.3000    1.5000    0.0000 C   0  0  0  0  0  0  0  0  0  0  0  0
    1.3000    1.5000    0.0000 C   0  0  0  0  0  0  0  0  0  0  0  0
   -1.3000   -1.5000    0.0000 C   0  0  0  0  0  0  0  0  0  0  0  0
    2.6000   -0.7500    0.0000 C   0  0  0  0  0  0  0  0  0  0  0  0
   -0.0000    0.7500    0.0000 C   0  0  0  0  0  0  0  0  0  0  0  0
   -0.0000   -0.7500    0.0000 C   0  0  0  0  0  0  0  0  0  0  0  0
    1.3000   -1.5000    0.0000 N   0  0  0  0  0  0  0  0  0  0  0  0
  2  1  2  0
  4  1  1  0
  5  3  2  0
  6  2  1  0
  7  3  1  0
  8  4  2  0
  8  5  1  0
  9  6  2  0
  9  8  1  0
 10  7  2  0
 10  9  1  0
M  END
>  <NAME>  (829) 
QUINOLINE

>  <SYNONYMS>  (829) 


>  <SPECTRUM TYPE>  (829) 
MS1

>  <INSTRUMENT TYPE>  (829) 
EI-B

>  <INSTRUMENT>  (829) 
JEOL JMS-AX-505-H

>  <ION MODE>  (829) 
P

>  <INCHIKEY>  (829) 
SMWDFEZZVXVKRB-UHFFFAOYSA-N

>  <FORMULA>  (829) 
C9H7N

>  <EXACT MASS>  (829) 
129.057849224

>  <MW>  (829) 
129

>  <ID>  (829) 
JP010830

>  <CONTRIBUTOR>  (829) 
University of Tokyo Team, {Faculty of Engineering, University of Tokyo

>  <COMMENT>  (829) 
SMILES=c(c2)cc(c1)c(c2)ncc1
InChI=InChI=1S/C9H7N/c1-2-6-9-8(4-1)5-3-7-10-9/h1-7H
computed SMILES=N=1C=CC=C2C=CC=CC12
accession=JP010830
date=2016.01.19 (Created 2008.10.21, modified 2011.05.06)
author=HAMAMATSU UNIV. SCHOOL OF MEDICINE
license=CC BY-NC-SA
exact mass=129.05785
ionization energy=70 eV
ion type=[M]+*
computed spectral entropy=2.1926795477676473
computed normalized entropy=0.6811942016612053
SPLASH=splash10-004i-2900000000-5f026eea98547624a47f
submitter=submitter = University of Tokyo Team (Faculty of Engineering, University of Tokyo)
MoNA Rating=3.75

>  <NUM PEAKS>  (829) 
25

>  <MASS SPECTRAL PEAKS>  (829) 
51 10
52 2.09
55 1.41
62 1.17
63 2.96
64 1.42
65 2.07
71 1.48
73 1.34
74 4.37
75 6.4
76 8.58
77 3.12
78 2.54
85 1.48
91 1.15
100 1.14
101 6
102 22.9
103 6.86
105 3.55
127 1.58
128 17.98
129 99.99
130 10.53

>  <PREDICTED SPECTRUM>  (829) 
50 145
51 180
52 41
63 122
64 11
74 121
75 249
76 139
77 170
89 38
99 6
101 296
102 395
103 224
126 7
127 225
128 693
129 999
130 305

$$$$

     RDKit          2D

 11 12  0  0  0  0  0  0  0  0999 V2000
   -2.6000   -0.7500    0.0000 C   0  0  0  0  0  0  0  0  0  0  0  0
    2.6000    0.7500    0.0000 C   0  0  0  0  0  0  0  0  0  0  0  0
    1.3000    1.5000    0.0000 C   0  0  0  0  0  0  0  0  0  0  0  0
   -2.6000    0.7500    0.0000 C   0  0  0  0  0  0  0  0  0  0  0  0
   -1.3000   -1.5000    0.0000 C   0  0  0  0  0  0  0  0  0  0  0  0
    2.6000   -0.7500    0.0000 C   0  0  0  0  0  0  0  0  0  0  0  0
   -0.0000    0.7500    0.0000 C   0  0  0  0  0  0  0  0  0  0  0  0
   -1.3000    1.5000    0.0000 C   0  0  0  0  0  0  0  0  0  0  0  0
   -0.0000   -0.7500    0.0000 C   0  0  0  0  0  0  0  0  0  0  0  0
   -1.3000    3.0000    0.0000 N   0  0  0  0  0  0  0  0  0  0  0  0
    1.3000   -1.5000    0.0000 N   0  0  0  0  0  0  0  0  0  0  0  0
  3  2  2  0
  4  1  2  0
  5  1  1  0
  6  2  1  0
  7  3  1  0
  8  4  1  0
  8  7  2  0
  9  5  2  0
  9  7  1  0
 10  8  1  0
 11  6  2  0
 11  9  1  0
M  END
>  <NAME>  (830) 
5-AMINOQUINOLINE

>  <SYNONYMS>  (830) 


>  <SPECTRUM TYPE>  (830) 
MS1

>  <INSTRUMENT TYPE>  (830) 
EI-B

>  <INSTRUMENT>  (830) 
JEOL JMS-AX-505-H

>  <ION MODE>  (830) 
P

>  <INCHIKEY>  (830) 
XMIAFAKRAAMSGX-UHFFFAOYSA-N

>  <FORMULA>  (830) 
C9H8N2

>  <EXACT MASS>  (830) 
144.068748256

>  <MW>  (830) 
144

>  <ID>  (830) 
JP010828

>  <CONTRIBUTOR>  (830) 
University of Tokyo Team, {Faculty of Engineering, University of Tokyo

>  <COMMENT>  (830) 
SMILES=Nc(c1)c(c2)c(ncc2)cc1
InChI=InChI=1S/C9H8N2/c10-8-4-1-5-9-7(8)3-2-6-11-9/h1-6H,10H2
computed SMILES=N=1C=CC=C2C1C=CC=C2N
accession=JP010828
date=2016.01.19 (Created 2008.10.21, modified 2011.05.06)
author=HAMAMATSU UNIV. SCHOOL OF MEDICINE
license=CC BY-NC-SA
exact mass=144.06875
ionization energy=70 eV
ion type=[M]+*
computed spectral entropy=2.5117207640516446
computed normalized entropy=0.7064626924317023
SPLASH=splash10-0006-3900000000-bcb18a2e0047e208d2bd
submitter=submitter = University of Tokyo Team (Faculty of Engineering, University of Tokyo)
MoNA Rating=3.75

>  <NUM PEAKS>  (830) 
35

>  <MASS SPECTRAL PEAKS>  (830) 
51 4.05
55 1.7
60 1.23
62 3.38
63 4.78
67 1.17
70 1.96
71 2.59
72 2.37
73 3.33
74 1.96
75 1.33
76 1.32
84 1.45
85 3.37
87 1.72
88 1.27
89 10.61
90 7.98
91 8.73
97 1.03
98 1.03
106 5.2
114 2
115 2.67
116 13.6
117 22.81
118 3.31
127 1.54
142 2.31
143 9.6
144 99.99
145 10.97
149 1.35
153 1.18

>  <PREDICTED SPECTRUM>  (830) 
37 53
38 96
39 169
40 75
41 146
49 25
50 162
51 217
52 276
53 66
54 39
61 64
62 159
63 249
64 192
65 224
66 89
67 34
68 4
74 51
75 158
76 135
77 109
78 104
79 111
80 24
87 44
88 101
89 365
90 279
91 132
92 6
93 17
100 22
101 31
102 38
103 46
104 167
105 31
114 37
115 120
116 395
117 450
118 217
127 37
128 59
141 2
142 70
143 365
144 999
145 358
146 53

$$$$

     RDKit          2D

 13 14  0  0  1  0  0  0  0  0999 V2000
    0.9309    3.5428    0.0000 C   0  0  0  0  0  0  0  0  0  0  0  0
    4.8275    1.2919    0.0000 C   0  0  0  0  0  0  0  0  0  0  0  0
    4.8225    2.7840    0.0000 C   0  0  0  0  0  0  0  0  0  0  0  0
   -1.6700    0.5400    0.0000 C   0  0  0  0  0  0  0  0  0  0  0  0
   -0.3700    1.2900    0.0000 C   0  0  0  0  0  0  0  0  0  0  0  0
    3.5282    0.5406    0.0000 C   0  0  0  0  0  0  0  0  0  0  0  0
   -1.6700   -0.9600    0.0000 C   0  0  0  0  0  0  0  0  0  0  0  0
    3.5232    3.5336    0.0000 C   0  0  0  0  0  0  0  0  0  0  0  0
    0.9300   -0.9600    0.0000 C   0  0  0  0  0  0  0  0  0  0  0  0
    0.9300    0.5400    0.0000 C   0  0  0  0  0  0  0  0  0  0  0  0
    2.2289    1.2902    0.0000 C   0  0  0  0  0  0  0  0  0  0  0  0
   -0.3700   -1.7100    0.0000 N   0  0  0  0  0  0  0  0  0  0  0  0
    2.2289    2.7910    0.0000 N   0  0  0  0  0  0  0  0  0  0  0  0
  3  2  1  0
  5  4  2  0
  6  2  1  0
  7  4  1  0
  8  3  1  0
 10  5  1  0
 10  9  2  0
 11  6  1  0
 11 10  1  1
 12  7  2  0
 12  9  1  0
 13  1  1  0
 13  8  1  0
 13 11  1  0
M  END
>  <NAME>  (831) 
METHYLANABASINE

>  <SYNONYMS>  (831) 
3-(1-METHYL-2-PIPERIDYL)PYRIDINE

>  <SPECTRUM TYPE>  (831) 
MS1

>  <INSTRUMENT TYPE>  (831) 
EI-B

>  <INSTRUMENT>  (831) 
JEOL JMS-AX-505-H

>  <ION MODE>  (831) 
P

>  <INCHIKEY>  (831) 
WHAIHNKQZOMXJJ-NSHDSACASA-N

>  <FORMULA>  (831) 
C11H16N2

>  <EXACT MASS>  (831) 
176.131348512

>  <MW>  (831) 
176

>  <ID>  (831) 
JP010827

>  <CONTRIBUTOR>  (831) 
University of Tokyo Team, {Faculty of Engineering, University of Tokyo

>  <COMMENT>  (831) 
SMILES=CN(C2)C([H])(CCC2)c(c1)cncc1
InChI=InChI=1S/C11H16N2/c1-13-8-3-2-6-11(13)10-5-4-7-12-9-10/h4-5,7,9,11H,2-3,6,8H2,1H3/t11-/m0/s1
computed SMILES=N=1C=CC=C(C1)C2N(C)CCCC2
accession=JP010827
date=2016.01.19 (Created 2008.10.21, modified 2011.05.06)
author=HAMAMATSU UNIV. SCHOOL OF MEDICINE
license=CC BY-NC-SA
exact mass=176.13135
ionization energy=70 eV
ion type=[M]+*
computed spectral entropy=2.439876811933406
computed normalized entropy=0.686255401647311
SPLASH=splash10-0002-9500000000-04ae7dcf9b67bfd07386
submitter=submitter = University of Tokyo Team (Faculty of Engineering, University of Tokyo)
MoNA Rating=3.75

>  <NUM PEAKS>  (831) 
35

>  <MASS SPECTRAL PEAKS>  (831) 
51 1.06
52 1.97
58 1.21
65 1.93
70 3.34
73 1
77 1.91
78 4.03
79 1.99
81 1.32
83 1.12
90 2.03
91 1.16
92 5.4
93 1.68
95 1.24
97 1.03
98 99.99
99 3.83
104 5.08
105 3.66
106 2.64
118 4.37
119 12.06
120 5.61
132 2.97
133 5.74
134 1.69
147 5.7
161 2.94
175 8.42
176 21.03
177 1.92
191 1.22
354 2.06

>  <PREDICTED SPECTRUM>  (831) 
41 59
42 171
43 85
44 79
51 61
52 24
54 32
55 60
56 30
57 55
58 10
60 11
65 45
67 1
69 13
70 62
71 1
78 108
79 0
80 42
91 48
92 148
93 83
94 69
96 50
97 23
98 999
99 319
100 10
104 148
105 133
106 240
107 59
117 97
118 279
119 336
120 165
121 69
122 10
130 76
132 68
133 275
134 100
135 32
146 13
147 423
148 117
161 100
173 19
175 372
176 493
177 179

$$$$

     RDKit          2D

 12 13  0  0  1  0  0  0  0  0999 V2000
    1.2781    3.7914    0.0000 C   0  0  0  0  0  0  0  0  0  0  0  0
   -1.6700    0.5400    0.0000 C   0  0  0  0  0  0  0  0  0  0  0  0
    4.6097    1.7978    0.0000 C   0  0  0  0  0  0  0  0  0  0  0  0
   -0.3700    1.2900    0.0000 C   0  0  0  0  0  0  0  0  0  0  0  0
    3.6062    0.6829    0.0000 C   0  0  0  0  0  0  0  0  0  0  0  0
   -1.6700   -0.9600    0.0000 C   0  0  0  0  0  0  0  0  0  0  0  0
    3.8546    3.0963    0.0000 C   0  0  0  0  0  0  0  0  0  0  0  0
    0.9300   -0.9600    0.0000 C   0  0  0  0  0  0  0  0  0  0  0  0
    0.9300    0.5400    0.0000 C   0  0  0  0  0  0  0  0  0  0  0  0
    2.2289    1.2902    0.0000 C   0  0  0  0  0  0  0  0  0  0  0  0
   -0.3700   -1.7100    0.0000 N   0  0  0  0  0  0  0  0  0  0  0  0
    2.3910    2.7857    0.0000 N   0  0  0  0  0  0  0  0  0  0  0  0
  4  2  2  0
  5  3  1  0
  6  2  1  0
  7  3  1  0
  9  4  1  0
  9  8  2  0
 10  5  1  0
 10  9  1  1
 11  6  2  0
 11  8  1  0
 12  1  1  0
 12  7  1  0
 12 10  1  0
M  END
>  <NAME>  (832) 
NICOTINE

>  <SYNONYMS>  (832) 
3-(1-METHYL-2-PYRROLIDINYL)PYRIDINE

>  <SPECTRUM TYPE>  (832) 
MS1

>  <INSTRUMENT TYPE>  (832) 
EI-B

>  <INSTRUMENT>  (832) 
JEOL JMS-AX-505-H

>  <ION MODE>  (832) 
P

>  <INCHIKEY>  (832) 
SNICXCGAKADSCV-JTQLQIEISA-N

>  <FORMULA>  (832) 
C10H14N2

>  <EXACT MASS>  (832) 
162.115698448

>  <MW>  (832) 
162

>  <ID>  (832) 
JP010826

>  <CONTRIBUTOR>  (832) 
University of Tokyo Team, {Faculty of Engineering, University of Tokyo

>  <COMMENT>  (832) 
SMILES=CN(C2)C([H])(CC2)c(c1)cncc1
InChI=InChI=1S/C10H14N2/c1-12-7-3-5-10(12)9-4-2-6-11-8-9/h2,4,6,8,10H,3,5,7H2,1H3/t10-/m0/s1
computed SMILES=N=1C=CC=C(C1)C2N(C)CCC2
accession=JP010826
date=2016.01.19 (Created 2008.10.21, modified 2011.05.06)
author=HAMAMATSU UNIV. SCHOOL OF MEDICINE
license=CC BY-NC-SA
exact mass=162.1157
ionization energy=70 eV
ion type=[M]+*
computed spectral entropy=2.6716433328279403
computed normalized entropy=0.7018335195220151
SPLASH=splash10-001i-9800000000-fe889308f7088d47c31d
submitter=submitter = University of Tokyo Team (Faculty of Engineering, University of Tokyo)
MoNA Rating=3.75

>  <NUM PEAKS>  (832) 
45

>  <MASS SPECTRAL PEAKS>  (832) 
51 2.82
52 1.11
54 2.13
55 1.96
63 2.22
64 1.19
65 5.31
66 1.18
67 2.97
69 1.29
73 1.86
77 1.74
78 3.55
79 1.02
81 1.34
82 3.24
83 1.14
84 99.99
85 6
92 3.78
93 1.13
104 3.06
105 1.27
117 3.85
118 4.51
119 6.32
120 2.76
130 4.8
132 1.84
133 26.27
134 4.04
144 1.01
145 1.49
146 1.64
147 1.49
159 2.16
160 1.23
161 26.04
162 33.56
163 4.21
171 1.14
207 3.49
281 1.18
355 1.01
401 1.3

>  <PREDICTED SPECTRUM>  (832) 
30 18
41 37
42 178
43 87
44 77
50 16
51 102
52 60
53 39
54 36
55 52
56 96
57 54
58 31
60 22
63 44
64 14
65 74
66 24
67 0
69 31
70 0
77 68
78 129
79 97
80 105
82 88
83 57
84 999
85 278
86 23
89 8
90 7
91 122
92 178
93 100
104 165
105 151
106 139
107 59
108 33
117 165
118 216
119 329
120 142
121 54
122 12
130 133
131 59
132 116
133 666
134 258
135 30
147 92
148 0
159 57
161 394
162 513
163 202

$$$$

     RDKit          2D

 10 10  0  0  0  0  0  0  0  0999 V2000
    1.6056    2.0565    0.0000 C   0  0  0  0  0  0  0  0  0  0  0  0
    0.2920   -0.1684    0.0000 C   0  0  0  0  0  0  0  0  0  0  0  0
    2.8901    1.3316    0.0000 C   0  0  0  0  0  0  0  0  0  0  0  0
    1.6165   -0.9625    0.0000 C   0  0  0  0  0  0  0  0  0  0  0  0
    0.3065    1.3065    0.0000 C   0  0  0  0  0  0  0  0  0  0  0  0
    2.9156   -0.2125    0.0000 C   0  0  0  0  0  0  0  0  0  0  0  0
   -0.9888    2.0629    0.0000 C   0  0  0  0  0  0  0  0  0  0  0  0
    4.2207   -0.9518    0.0000 O   0  0  0  0  0  0  0  0  0  0  0  0
   -2.2915    1.3193    0.0000 O   0  0  0  0  0  0  0  0  0  0  0  0
   -0.9814    3.5628    0.0000 O   0  0  0  0  0  0  0  0  0  0  0  0
  3  1  2  0
  4  2  1  0
  5  1  1  0
  5  2  2  0
  6  3  1  0
  6  4  2  0
  7  5  1  0
  8  6  1  0
  9  7  1  0
 10  7  2  0
M  END
>  <NAME>  (833) 
4-HYDROXYBENZOIC ACID

>  <SYNONYMS>  (833) 


>  <SPECTRUM TYPE>  (833) 
MS1

>  <INSTRUMENT TYPE>  (833) 
EI-B

>  <INSTRUMENT>  (833) 
JEOL JMS-D-3000

>  <ION MODE>  (833) 
P

>  <INCHIKEY>  (833) 
FJKROLUGYXJWQN-UHFFFAOYSA-N

>  <FORMULA>  (833) 
C7H6O3

>  <EXACT MASS>  (833) 
138.03169405199998

>  <MW>  (833) 
138

>  <ID>  (833) 
JP010824

>  <CONTRIBUTOR>  (833) 
University of Tokyo Team, {Faculty of Engineering, University of Tokyo

>  <COMMENT>  (833) 
SMILES=Oc(c1)ccc(c1)C(O)=O
InChI=InChI=1S/C7H6O3/c8-6-3-1-5(2-4-6)7(9)10/h1-4,8H,(H,9,10)
computed SMILES=O=C(O)C1=CC=C(O)C=C1
accession=JP010824
date=2016.01.19 (Created 2008.10.21, modified 2011.05.06)
author=FUJISE Y, HAMAMATSU UNIV. SCHOOL OF MEDICINE
license=CC BY-NC-SA
exact mass=138.03169
ionization energy=70 eV
ion type=[M]+*
computed spectral entropy=2.659760568093428
computed normalized entropy=0.7311883351495629
SPLASH=splash10-00dr-7900000000-290af590b1fc44a86969
submitter=submitter = University of Tokyo Team (Faculty of Engineering, University of Tokyo)
MoNA Rating=3.75

>  <NUM PEAKS>  (833) 
38

>  <MASS SPECTRAL PEAKS>  (833) 
27 1.15
41 4.72
42 1.11
43 5.32
44 33.11
45 4.67
46 2.77
50 3.65
51 3.42
53 4.16
55 6.99
56 1.2
57 3.75
60 5.18
61 3.19
62 3.93
63 10.05
64 2.73
65 18.71
66 2.03
69 2.5
71 1.85
73 4.21
74 1.99
77 5.28
78 5.28
81 2.4
83 1.29
85 1.01
92 1.85
93 23.85
94 2.31
105 8.52
121 99.99
122 13.94
123 1.01
138 86.15
139 6.34

>  <PREDICTED SPECTRUM>  (833) 
14 2
16 8
17 30
18 29
25 8
26 90
27 175
28 88
29 180
36 31
37 166
38 260
39 483
40 136
41 169
44 37
45 195
46 37
49 67
50 259
51 261
52 113
53 335
54 126
55 93
61 61
62 194
63 360
64 222
65 681
66 233
67 26
68 13
69 51
70 17
71 38
73 13
74 105
75 98
76 69
80 24
81 254
82 79
83 9
92 249
93 427
94 144
95 19
109 68
110 165
111 98
121 999
122 248
123 26
137 64
138 727
139 298
140 58

$$$$

     RDKit          2D

 12 12  0  0  0  0  0  0  0  0999 V2000
   -1.2138    2.8682    0.0000 C   0  0  0  0  0  0  0  0  0  0  0  0
   -3.2629    2.3192    0.0000 C   0  0  0  0  0  0  0  0  0  0  0  0
   -2.7138    0.2701    0.0000 C   0  0  0  0  0  0  0  0  0  0  0  0
   -0.6653   -0.6817    0.0000 C   0  0  0  0  0  0  0  0  0  0  0  0
    0.6338   -1.4317    0.0000 C   0  0  0  0  0  0  0  0  0  0  0  0
    0.6347    1.5700    0.0000 C   0  0  0  0  0  0  0  0  0  0  0  0
   -0.6648    0.8192    0.0000 C   0  0  0  0  0  0  0  0  0  0  0  0
    1.9333   -0.6808    0.0000 C   0  0  0  0  0  0  0  0  0  0  0  0
    1.9338    0.8200    0.0000 C   0  0  0  0  0  0  0  0  0  0  0  0
   -1.9638    1.5692    0.0000 C   0  0  0  0  0  0  0  0  0  0  0  0
    3.2323   -1.4308    0.0000 O   0  0  0  0  0  0  0  0  0  0  0  0
    3.2329    1.5698    0.0000 O   0  0  0  0  0  0  0  0  0  0  0  0
  5  4  2  0
  7  4  1  0
  7  6  2  0
  8  5  1  0
  9  6  1  0
  9  8  2  0
 10  1  1  0
 10  2  1  0
 10  3  1  0
 10  7  1  0
 11  8  1  0
 12  9  1  0
M  END
>  <NAME>  (834) 
4-TERT-BUTYLPYROCATECHOL

>  <SYNONYMS>  (834) 


>  <SPECTRUM TYPE>  (834) 
MS1

>  <INSTRUMENT TYPE>  (834) 
EI-B

>  <INSTRUMENT>  (834) 
JEOL JMS-D-3000

>  <ION MODE>  (834) 
P

>  <INCHIKEY>  (834) 
XESZUVZBAMCAEJ-UHFFFAOYSA-N

>  <FORMULA>  (834) 
C10H14O2

>  <EXACT MASS>  (834) 
166.099379688

>  <MW>  (834) 
166

>  <ID>  (834) 
JP010823

>  <CONTRIBUTOR>  (834) 
University of Tokyo Team, {Faculty of Engineering, University of Tokyo

>  <COMMENT>  (834) 
SMILES=Oc(c1)c(O)cc(c1)C(C)(C)C
InChI=InChI=1S/C10H14O2/c1-10(2,3)7-4-5-8(11)9(12)6-7/h4-6,11-12H,1-3H3
computed SMILES=OC1=CC=C(C=C1O)C(C)(C)C
accession=JP010823
date=2016.01.19 (Created 2008.10.21, modified 2011.05.06)
author=FUJISE Y, HAMAMATSU UNIV. SCHOOL OF MEDICINE
license=CC BY-NC-SA
exact mass=166.09938
ionization energy=70 eV
ion type=[M]+*
computed spectral entropy=2.459209363592546
computed normalized entropy=0.6916929991271596
SPLASH=splash10-0udi-2900000000-a3ac4989ca5b94fafdcb
submitter=submitter = University of Tokyo Team (Faculty of Engineering, University of Tokyo)
MoNA Rating=3.75

>  <NUM PEAKS>  (834) 
35

>  <MASS SPECTRAL PEAKS>  (834) 
42 7.97
43 1.5
44 9.27
50 1.04
51 3.88
52 1.58
53 1.96
55 2.38
63 1.93
64 1.12
65 2.92
67 1.02
75 1.65
76 2.23
77 5.35
78 1.31
79 2.66
89 1.78
91 1.75
93 4.46
103 1.39
105 6.12
107 1.89
110 2.33
111 6.04
123 13.38
124 1.31
133 2.46
135 1.79
136 1.47
150 2.25
151 99.99
152 10.32
166 33.34
167 3.74

>  <PREDICTED SPECTRUM>  (834) 
14 12
15 53
16 5
17 8
18 25
26 29
27 139
28 65
29 148
31 27
33 16
37 23
38 76
39 253
40 105
41 279
42 71
43 165
44 52
45 55
47 8
50 137
51 215
52 168
53 215
54 101
55 193
56 32
57 127
58 9
59 33
60 0
61 44
62 73
63 174
64 120
65 221
66 153
67 141
68 69
69 91
70 30
71 16
72 22
73 30
74 52
75 92
76 83
77 283
78 170
79 190
80 110
81 112
82 46
83 30
86 2
87 19
88 6
89 76
90 46
91 234
92 82
93 124
94 78
95 134
96 48
97 37
101 3
102 34
103 150
104 85
105 182
106 82
107 154
108 165
109 102
110 60
111 64
115 94
116 24
117 111
118 68
119 132
120 54
121 131
122 91
123 401
124 148
125 45
133 130
134 78
135 119
136 81
137 38
147 28
148 8
149 73
150 47
151 999
152 298
153 100
163 7
164 10
165 11
166 434
167 121
168 17

$$$$

     RDKit          2D

 12 12  0  0  0  0  0  0  0  0999 V2000
    2.2420    3.2180    0.0000 C   0  0  0  0  0  0  0  0  0  0  0  0
    3.5249    2.4903    0.0000 C   0  0  0  0  0  0  0  0  0  0  0  0
    0.9649    2.4656    0.0000 C   0  0  0  0  0  0  0  0  0  0  0  0
    3.5611    0.9907    0.0000 C   0  0  0  0  0  0  0  0  0  0  0  0
    0.9708    0.9855    0.0000 C   0  0  0  0  0  0  0  0  0  0  0  0
    2.2537    0.2578    0.0000 C   0  0  0  0  0  0  0  0  0  0  0  0
   -0.3239    0.2280    0.0000 C   0  0  0  0  0  0  0  0  0  0  0  0
    2.2499   -1.2422    0.0000 N   0  0  0  0  0  0  0  0  0  0  0  0
   -0.3152   -1.2720    0.0000 O   0  0  0  0  0  0  0  0  0  0  0  0
   -1.6273    0.9705    0.0000 O   0  0  0  0  0  0  0  0  0  0  0  0
    3.5470   -1.9955    0.0000 O   0  0  0  0  0  0  0  0  0  0  0  0
    0.9490   -1.9889    0.0000 O   0  0  0  0  0  0  0  0  0  0  0  0
  2  1  2  0
  3  1  1  0
  4  2  1  0
  5  3  2  0
  6  4  2  0
  6  5  1  0
  7  5  1  0
  8  6  1  0
  9  7  2  0
 10  7  1  0
 11  8  1  0
 12  8  2  0
M  CHG  2   8   1  11  -1
M  END
>  <NAME>  (835) 
2-NITROBENZOIC ACID

>  <SYNONYMS>  (835) 


>  <SPECTRUM TYPE>  (835) 
MS1

>  <INSTRUMENT TYPE>  (835) 
EI-B

>  <INSTRUMENT>  (835) 
JEOL JMS-D-3000

>  <ION MODE>  (835) 
P

>  <INCHIKEY>  (835) 
SLAMLWHELXOEJZ-UHFFFAOYSA-N

>  <FORMULA>  (835) 
C7H5NO4

>  <EXACT MASS>  (835) 
167.02185764

>  <MW>  (835) 
167

>  <ID>  (835) 
JP010822

>  <CONTRIBUTOR>  (835) 
University of Tokyo Team, {Faculty of Engineering, University of Tokyo

>  <COMMENT>  (835) 
SMILES=OC(=O)c(c1)c(ccc1)[N+1]([O-1])=O
InChI=InChI=1S/C7H5NO4/c9-7(10)5-3-1-2-4-6(5)8(11)12/h1-4H,(H,9,10)
computed SMILES=O=C(O)C=1C=CC=CC1N(=O)=O
accession=JP010822
date=2016.01.19 (Created 2008.10.21, modified 2011.05.06)
author=FUJISE Y, HAMAMATSU UNIV. SCHOOL OF MEDICINE
license=CC BY-NC-SA
exact mass=167.02186
ionization energy=70 eV
ion type=[M]+*
computed spectral entropy=1.9968541489182379
computed normalized entropy=0.6283260937400845
SPLASH=splash10-0006-9200000000-0ecb8ef88b11c6577bdc
submitter=submitter = University of Tokyo Team (Faculty of Engineering, University of Tokyo)
MoNA Rating=3.75

>  <NUM PEAKS>  (835) 
24

>  <MASS SPECTRAL PEAKS>  (835) 
42 2.18
43 1.81
44 99.99
45 1.47
50 4.62
51 12.27
52 1.39
63 1.22
74 1.47
75 1.04
76 1.41
77 28.47
78 2.47
86 1.18
91 1.7
98 1.09
105 6.71
122 6.5
123 15.02
124 1.36
135 1.9
146 1.44
147 1.55
163 7.99

>  <PREDICTED SPECTRUM>  (835) 
14 17
15 2
16 46
17 22
18 53
25 47
26 79
27 144
28 124
29 230
30 638
31 53
32 53
34 2
36 101
37 314
38 400
39 507
40 158
44 144
45 349
46 230
48 49
49 188
50 933
51 699
52 304
53 488
54 116
55 136
56 19
57 62
58 33
61 222
62 348
63 682
64 290
65 808
66 381
67 112
68 120
69 89
70 48
71 1
73 151
74 695
75 870
76 999
77 533
78 120
79 14
80 30
81 227
83 93
89 87
91 42
92 662
93 482
94 122
95 23
103 95
104 587
105 324
106 111
107 33
109 178
119 133
120 72
121 563
122 185
123 243
137 616
138 83
150 483
151 269
167 745
168 207
169 91

$$$$

     RDKit          2D

 10 10  0  0  0  0  0  0  0  0999 V2000
    1.3000   -0.7500    0.0000 C   0  0  0  0  0  0  0  0  0  0  0  0
   -1.3000   -0.7500    0.0000 C   0  0  0  0  0  0  0  0  0  0  0  0
   -0.0000   -1.5000    0.0000 C   0  0  0  0  0  0  0  0  0  0  0  0
    1.3000    0.7500    0.0000 C   0  0  0  0  0  0  0  0  0  0  0  0
   -1.3000    0.7500    0.0000 C   0  0  0  0  0  0  0  0  0  0  0  0
   -0.0000    1.5000    0.0000 C   0  0  0  0  0  0  0  0  0  0  0  0
   -0.0000   -3.0000    0.0000 Br  0  0  0  0  0  0  0  0  0  0  0  0
    2.5989    1.5002    0.0000 Br  0  0  0  0  0  0  0  0  0  0  0  0
   -2.5989    1.5002    0.0000 Br  0  0  0  0  0  0  0  0  0  0  0  0
    0.0000    3.0000    0.0000 O   0  0  0  0  0  0  0  0  0  0  0  0
  3  1  2  0
  3  2  1  0
  4  1  1  0
  5  2  2  0
  6  4  2  0
  6  5  1  0
  7  3  1  0
  8  4  1  0
  9  5  1  0
 10  6  1  0
M  END
>  <NAME>  (836) 
2,4,6-TRIBROMOPHENOL

>  <SYNONYMS>  (836) 


>  <SPECTRUM TYPE>  (836) 
MS1

>  <INSTRUMENT TYPE>  (836) 
EI-B

>  <INSTRUMENT>  (836) 
JEOL JMS-D-3000

>  <ION MODE>  (836) 
P

>  <INCHIKEY>  (836) 
BSWWXRFVMJHFBN-UHFFFAOYSA-N

>  <FORMULA>  (836) 
C6H3Br3O

>  <EXACT MASS>  (836) 
327.773401016

>  <MW>  (836) 
327

>  <ID>  (836) 
JP010821

>  <CONTRIBUTOR>  (836) 
University of Tokyo Team, {Faculty of Engineering, University of Tokyo

>  <COMMENT>  (836) 
SMILES=Oc(c(Br)1)c(Br)cc(Br)c1
InChI=InChI=1S/C6H3Br3O/c7-3-1-4(8)6(10)5(9)2-3/h1-2,10H
computed SMILES=BrC=1C=C(Br)C(O)=C(Br)C1
accession=JP010821
date=2016.01.19 (Created 2008.10.21, modified 2011.05.06)
author=FUJISE Y, HAMAMATSU UNIV. SCHOOL OF MEDICINE
license=CC BY-NC-SA
exact mass=327.7734
ionization energy=70 eV
ion type=[M]+*
computed spectral entropy=3.3763944008760536
computed normalized entropy=0.7974278391934806
SPLASH=splash10-0059-3329000000-8507237252f6c68a3e56
submitter=submitter = University of Tokyo Team (Faculty of Engineering, University of Tokyo)
MoNA Rating=3.75

>  <NUM PEAKS>  (836) 
69

>  <MASS SPECTRAL PEAKS>  (836) 
41 1.63
43 1.22
45 1.79
46 2.69
53 7.83
57 2.28
60 3.91
61 17.3
62 30.69
63 13.71
70 5.14
71 5.95
73 2.53
74 3.75
79 3.26
80 2.28
81 3.02
82 2.36
85 2.12
90 5.46
91 6.12
110 5.46
111 8.48
112 5.3
116 1.55
117 2.2
118 1.3
119 1.79
124 1.3
125 3.51
126 1.63
141 19.02
142 3.83
143 17.38
144 2.28
164 2.28
165 6.04
166 6.2
167 2.44
169 2.2
170 6.12
171 2.69
172 5.95
219 6.77
220 4.57
221 10.85
222 7.51
223 6.69
224 4.08
233 1.3
235 2.61
247 5.87
248 1.3
249 9.71
250 3.18
251 5.38
252 1.3
300 1.55
302 1.55
313 1.63
315 1.79
327 35.34
328 3.02
329 99.99
330 7.51
331 97.3
332 7.26
333 33.38
334 2.36

>  <PREDICTED SPECTRUM>  (836) 
15 0
18 6
25 49
26 31
33 5
36 128
37 196
38 191
39 122
40 23
41 63
42 0
43 89
44 3
47 32
48 74
49 163
50 117
51 70
52 46
53 250
55 82
56 0
57 24
60 189
61 386
62 434
63 461
64 334
65 342
66 172
67 0
69 11
71 93
72 109
73 152
74 151
75 74
76 53
77 56
78 73
79 207
80 76
81 149
82 93
83 93
84 146
85 100
86 85
87 14
88 30
89 142
90 242
91 332
92 132
93 85
104 1
105 81
106 114
107 46
108 14
109 71
110 34
111 106
112 48
113 104
114 127
115 155
116 132
117 223
118 182
119 192
125 35
126 53
127 35
128 38
130 89
133 10
140 47
141 471
142 314
143 505
144 300
145 243
146 98
167 22
168 34
169 255
170 317
171 368
172 328
173 121
174 24
194 5
195 11
196 55
197 193
198 33
220 156
221 145
222 239
223 381
224 281
225 193
226 84
227 29
247 71
248 289
249 290
250 406
251 379
252 401
253 336
254 178
300 9
301 114
302 16
303 138
304 104
328 500
329 149
330 925
331 192
332 999
333 308

$$$$

     RDKit          2D

 13 14  0  0  0  0  0  0  0  0999 V2000
    3.8992    0.3353    0.0000 C   0  0  0  0  0  0  0  0  0  0  0  0
    3.8996    1.8362    0.0000 C   0  0  0  0  0  0  0  0  0  0  0  0
    2.5996   -0.4155    0.0000 C   0  0  0  0  0  0  0  0  0  0  0  0
    2.6006    2.5862    0.0000 C   0  0  0  0  0  0  0  0  0  0  0  0
    1.3006    0.3345    0.0000 C   0  0  0  0  0  0  0  0  0  0  0  0
   -1.2933    1.8289    0.0000 C   0  0  0  0  0  0  0  0  0  0  0  0
    0.0093    4.0602    0.0000 C   0  0  0  0  0  0  0  0  0  0  0  0
   -2.5814    2.5475    0.0000 C   0  0  0  0  0  0  0  0  0  0  0  0
   -1.3191    4.8478    0.0000 C   0  0  0  0  0  0  0  0  0  0  0  0
    1.3011    1.8353    0.0000 C   0  0  0  0  0  0  0  0  0  0  0  0
    0.0020    2.5853    0.0000 C   0  0  0  0  0  0  0  0  0  0  0  0
   -2.6144    4.0915    0.0000 C   0  0  0  0  0  0  0  0  0  0  0  0
   -3.9232    4.8243    0.0000 O   0  0  0  0  0  0  0  0  0  0  0  0
  2  1  2  0
  3  1  1  0
  4  2  1  0
  5  3  2  0
  8  6  2  0
  9  7  1  0
 10  4  2  0
 10  5  1  0
 11  6  1  0
 11  7  2  0
 11 10  1  0
 12  8  1  0
 12  9  2  0
 13 12  1  0
M  END
>  <NAME>  (837) 
4-PHENYLPHENOL

>  <SYNONYMS>  (837) 


>  <SPECTRUM TYPE>  (837) 
MS1

>  <INSTRUMENT TYPE>  (837) 
EI-B

>  <INSTRUMENT>  (837) 
JEOL JMS-D-3000

>  <ION MODE>  (837) 
P

>  <INCHIKEY>  (837) 
YXVFYQXJAXKLAK-UHFFFAOYSA-N

>  <FORMULA>  (837) 
C12H10O

>  <EXACT MASS>  (837) 
170.07316494

>  <MW>  (837) 
170

>  <ID>  (837) 
JP010820

>  <CONTRIBUTOR>  (837) 
University of Tokyo Team, {Faculty of Engineering, University of Tokyo

>  <COMMENT>  (837) 
SMILES=Oc(c2)ccc(c2)c(c1)cccc1
InChI=InChI=1S/C12H10O/c13-12-8-6-11(7-9-12)10-4-2-1-3-5-10/h1-9,13H
computed SMILES=OC=1C=CC(=CC1)C=2C=CC=CC2
accession=JP010820
date=2016.01.19 (Created 2008.10.21, modified 2011.05.06)
author=FUJISE Y, HAMAMATSU UNIV. SCHOOL OF MEDICINE
license=CC BY-NC-SA
exact mass=170.07316
ionization energy=70 eV
ion type=[M]+*
computed spectral entropy=2.380251463476436
computed normalized entropy=0.6694847936995784
SPLASH=splash10-00di-2900000000-9ec8cd015770dba15957
submitter=submitter = University of Tokyo Team (Faculty of Engineering, University of Tokyo)
MoNA Rating=3.75

>  <NUM PEAKS>  (837) 
35

>  <MASS SPECTRAL PEAKS>  (837) 
44 1.63
50 1.53
51 2.94
55 3.53
57 2.09
58 1.21
62 1.46
63 3.83
65 1.54
70 1.97
71 1.08
72 3.46
74 1.01
75 1.54
76 3.26
77 2.12
84 4.5
85 10.36
86 1.4
89 1.98
102 1.24
115 10.24
116 1.44
139 4.23
140 1.19
141 13.7
142 2.08
151 1.48
152 1.88
153 1.36
168 2
169 7.78
170 99.99
171 13.29
172 1.08

>  <PREDICTED SPECTRUM>  (837) 
17 13
18 0
26 10
27 51
28 4
29 26
38 33
39 142
40 22
41 28
49 6
50 88
51 155
52 12
53 20
54 10
55 120
56 13
57 28
62 72
63 181
64 52
65 116
66 50
67 27
68 24
69 28
70 35
74 117
75 131
76 133
77 100
78 10
81 48
82 59
83 72
84 34
86 26
87 65
88 48
89 113
93 9
94 105
95 18
96 29
97 59
98 33
102 106
103 17
113 45
114 99
115 384
116 57
122 76
126 63
127 77
139 236
140 141
141 357
142 82
143 33
144 22
150 0
151 178
152 311
153 242
155 49
168 153
169 407
170 999
171 364
172 91

$$$$

     RDKit          2D

 11 11  0  0  0  0  0  0  0  0999 V2000
    2.5989    1.5002    0.0000 C   0  0  0  0  0  0  0  0  0  0  0  0
    0.0000    1.5000    0.0000 C   0  0  0  0  0  0  0  0  0  0  0  0
    1.3000   -0.7500    0.0000 C   0  0  0  0  0  0  0  0  0  0  0  0
   -1.3000    0.7500    0.0000 C   0  0  0  0  0  0  0  0  0  0  0  0
   -0.0000   -1.5000    0.0000 C   0  0  0  0  0  0  0  0  0  0  0  0
    1.3000    0.7500    0.0000 C   0  0  0  0  0  0  0  0  0  0  0  0
   -1.3000   -0.7500    0.0000 C   0  0  0  0  0  0  0  0  0  0  0  0
   -3.3491   -0.2013    0.0000 N   0  0  0  0  0  0  0  0  0  0  0  0
   -3.8978   -2.2504    0.0000 O   0  0  0  0  0  0  0  0  0  0  0  0
   -1.8487   -2.7991    0.0000 O   0  0  0  0  0  0  0  0  0  0  0  0
   -2.5989   -1.5002    0.0000 S   0  0  0  0  0  0  0  0  0  0  0  0
  4  2  2  0
  5  3  1  0
  6  1  1  0
  6  2  1  0
  6  3  2  0
  7  4  1  0
  7  5  2  0
 11  7  1  0
 11  8  1  0
 11  9  2  0
 11 10  2  0
M  END
>  <NAME>  (838) 
PATA-TOLUENESULFONAMIDE

>  <SYNONYMS>  (838) 


>  <SPECTRUM TYPE>  (838) 
MS1

>  <INSTRUMENT TYPE>  (838) 
EI-B

>  <INSTRUMENT>  (838) 
JEOL JMS-D-3000

>  <ION MODE>  (838) 
P

>  <INCHIKEY>  (838) 
LMYRWZFENFIFIT-UHFFFAOYSA-N

>  <FORMULA>  (838) 
C7H9NO2S

>  <EXACT MASS>  (838) 
171.035399528

>  <MW>  (838) 
171

>  <ID>  (838) 
JP010819

>  <CONTRIBUTOR>  (838) 
University of Tokyo Team, {Faculty of Engineering, University of Tokyo

>  <COMMENT>  (838) 
SMILES=Cc(c1)ccc(c1)S(N)(=O)=O
InChI=InChI=1S/C7H9NO2S/c1-6-2-4-7(5-3-6)11(8,9)10/h2-5H,1H3,(H2,8,9,10)
computed SMILES=O=S(=O)(N)C1=CC=C(C=C1)C
accession=JP010819
date=2016.01.19 (Created 2008.10.21, modified 2011.05.06)
author=FUJISE Y, HAMAMATSU UNIV. SCHOOL OF MEDICINE
license=CC BY-NC-SA
exact mass=171.0354
ionization energy=70 eV
ion type=[M]+*
computed spectral entropy=2.4039059816956483
computed normalized entropy=0.7214160998687483
SPLASH=splash10-052f-9600000000-fdb31afc4222913bb280
submitter=submitter = University of Tokyo Team (Faculty of Engineering, University of Tokyo)
MoNA Rating=3.75

>  <NUM PEAKS>  (838) 
28

>  <MASS SPECTRAL PEAKS>  (838) 
41 2.81
44 4.66
50 2.91
51 4.31
52 1.41
53 1.03
62 2.12
63 6.56
64 3.09
65 21.56
66 1.28
77 3.31
78 1.24
79 1.9
89 5.69
90 3.2
91 99.99
92 8.31
106 3.71
107 15.03
108 12.86
109 1.07
155 39.15
156 3.43
157 2.05
171 45.54
172 4.28
173 2.4

>  <PREDICTED SPECTRUM>  (838) 
15 5
16 66
17 26
25 10
26 30
27 67
28 90
31 24
32 9
34 7
36 5
37 74
38 79
39 305
40 17
41 89
44 52
45 57
46 64
48 82
49 37
50 257
51 317
52 193
53 187
54 17
61 124
62 234
63 433
64 291
65 669
66 150
74 119
75 57
76 1
77 122
78 120
79 246
80 191
81 94
87 2
89 392
90 307
91 999
92 415
93 159
94 3
106 159
107 549
108 416
109 98
139 515
155 647
156 187
157 86
171 667
172 240
173 144
174 16

$$$$

     RDKit          2D

 12 12  0  0  0  0  0  0  0  0999 V2000
    4.8670    0.9406    0.0000 C   0  0  0  0  0  0  0  0  0  0  0  0
   -1.6328    3.1878    0.0000 C   0  0  0  0  0  0  0  0  0  0  0  0
   -0.3300   -2.0600    0.0000 C   0  0  0  0  0  0  0  0  0  0  0  0
   -1.6200   -1.3100    0.0000 C   0  0  0  0  0  0  0  0  0  0  0  0
    0.9700   -1.3100    0.0000 C   0  0  0  0  0  0  0  0  0  0  0  0
   -1.6200    0.1900    0.0000 C   0  0  0  0  0  0  0  0  0  0  0  0
    3.5681    0.1904    0.0000 C   0  0  0  0  0  0  0  0  0  0  0  0
    0.9700    0.1900    0.0000 C   0  0  0  0  0  0  0  0  0  0  0  0
   -0.3300    0.9400    0.0000 C   0  0  0  0  0  0  0  0  0  0  0  0
    2.2689    0.9402    0.0000 N   0  0  0  0  0  0  0  0  0  0  0  0
    3.5683   -1.3096    0.0000 O   0  0  0  0  0  0  0  0  0  0  0  0
   -0.3325    2.4400    0.0000 O   0  0  0  0  0  0  0  0  0  0  0  0
  4  3  2  0
  5  3  1  0
  6  4  1  0
  7  1  1  0
  8  5  2  0
  9  6  2  0
  9  8  1  0
 10  7  2  3
 10  8  1  0
 11  7  1  0
 12  2  1  0
 12  9  1  0
M  END
>  <NAME>  (839) 
N-ACETYL-ORTHO-ANISIDINE

>  <SYNONYMS>  (839) 


>  <SPECTRUM TYPE>  (839) 
MS1

>  <INSTRUMENT TYPE>  (839) 
EI-B

>  <INSTRUMENT>  (839) 
JEOL JMS-D-3000

>  <ION MODE>  (839) 
P

>  <INCHIKEY>  (839) 
FGOFNVXHDGQVBG-UHFFFAOYSA-N

>  <FORMULA>  (839) 
C9H11NO2

>  <EXACT MASS>  (839) 
165.078978592

>  <MW>  (839) 
165

>  <ID>  (839) 
JP010818

>  <CONTRIBUTOR>  (839) 
University of Tokyo Team, {Faculty of Engineering, University of Tokyo

>  <COMMENT>  (839) 
SMILES=COc(c1)c(ccc1)NC(C)=O
InChI=InChI=1S/C9H11NO2/c1-7(11)10-8-5-3-4-6-9(8)12-2/h3-6H,1-2H3,(H,10,11)
computed SMILES=OC(=NC=1C=CC=CC1OC)C
accession=JP010818
date=2016.01.19 (Created 2008.10.21, modified 2011.05.06)
author=FUJISE Y, HAMAMATSU UNIV. SCHOOL OF MEDICINE
license=CC BY-NC-SA
exact mass=165.07898
ionization energy=70 eV
ion type=[M]+*
computed spectral entropy=2.473122097373733
computed normalized entropy=0.6956061838676036
SPLASH=splash10-0avi-4900000000-1590231552aa3f983e0c
submitter=submitter = University of Tokyo Team (Faculty of Engineering, University of Tokyo)
MoNA Rating=3.75

>  <NUM PEAKS>  (839) 
35

>  <MASS SPECTRAL PEAKS>  (839) 
42 2.62
43 33.72
50 2.62
51 6.78
52 11.69
53 5.65
57 1.03
62 1.06
63 3.57
64 2.74
65 10.78
66 1.58
77 3.63
78 3.57
79 2.53
80 22.84
81 1.67
91 1.4
92 6.1
93 2.56
94 1.95
95 1.95
105 1.19
106 1.06
108 99.99
109 7.26
120 1.34
122 1.28
123 89.18
124 7.45
133 1.86
134 1.25
149 1.89
165 63.5
166 6.5

>  <PREDICTED SPECTRUM>  (839) 
14 33
15 120
16 6
17 2
18 9
25 1
26 36
27 82
28 72
29 58
31 55
33 22
37 53
38 154
39 367
40 131
41 158
42 242
43 303
44 191
45 201
46 40
49 18
50 280
51 449
52 366
53 304
54 108
56 7
58 32
59 44
61 43
62 113
63 275
64 290
65 440
66 242
67 99
74 86
75 49
76 167
77 580
78 364
79 283
80 223
81 38
88 11
89 117
90 219
91 265
92 501
93 278
94 237
95 131
103 20
104 190
105 229
106 336
107 374
108 378
109 147
116 52
117 60
118 237
119 110
120 398
121 159
122 444
123 202
132 337
133 164
134 228
135 183
136 81
146 97
147 143
148 247
149 35
150 999
151 297
152 44
164 178
165 991
166 322
167 44

$$$$

     RDKit          2D

 10 10  0  0  0  0  0  0  0  0999 V2000
    2.2395    2.4655    0.0000 C   0  0  0  0  0  0  0  0  0  0  0  0
    0.9362    3.2129    0.0000 C   0  0  0  0  0  0  0  0  0  0  0  0
    2.2656    0.9657    0.0000 C   0  0  0  0  0  0  0  0  0  0  0  0
   -0.3605    2.4401    0.0000 C   0  0  0  0  0  0  0  0  0  0  0  0
    0.9688    0.2030    0.0000 C   0  0  0  0  0  0  0  0  0  0  0  0
   -0.3343    0.9403    0.0000 C   0  0  0  0  0  0  0  0  0  0  0  0
    0.9813   -1.2970    0.0000 C   0  0  0  0  0  0  0  0  0  0  0  0
   -1.6234    0.1735    0.0000 Cl  0  0  0  0  0  0  0  0  0  0  0  0
   -0.3114   -2.0578    0.0000 O   0  0  0  0  0  0  0  0  0  0  0  0
    2.2865   -2.0361    0.0000 O   0  0  0  0  0  0  0  0  0  0  0  0
  2  1  2  0
  3  1  1  0
  4  2  1  0
  5  3  2  0
  6  4  2  0
  6  5  1  0
  7  5  1  0
  8  6  1  0
  9  7  2  0
 10  7  1  0
M  END
>  <NAME>  (840) 
2-CHLOROBENZOIC ACID

>  <SYNONYMS>  (840) 


>  <SPECTRUM TYPE>  (840) 
MS1

>  <INSTRUMENT TYPE>  (840) 
EI-B

>  <INSTRUMENT>  (840) 
JEOL JMS-D-3000

>  <ION MODE>  (840) 
P

>  <INCHIKEY>  (840) 
IKCLCGXPQILATA-UHFFFAOYSA-N

>  <FORMULA>  (840) 
C7H5ClO2

>  <EXACT MASS>  (840) 
155.99780708

>  <MW>  (840) 
156

>  <ID>  (840) 
JP010817

>  <CONTRIBUTOR>  (840) 
University of Tokyo Team, {Faculty of Engineering, University of Tokyo

>  <COMMENT>  (840) 
SMILES=OC(=O)c(c1)c(Cl)ccc1
InChI=InChI=1S/C7H5ClO2/c8-6-4-2-1-3-5(6)7(9)10/h1-4H,(H,9,10)
computed SMILES=O=C(O)C=1C=CC=CC1Cl
accession=JP010817
date=2016.01.19 (Created 2008.10.21, modified 2011.05.06)
author=FUJISE Y, HAMAMATSU UNIV. SCHOOL OF MEDICINE
license=CC BY-NC-SA
exact mass=155.99781
ionization energy=70 eV
ion type=[M]+*
computed spectral entropy=2.7253563488790427
computed normalized entropy=0.7492211123554638
SPLASH=splash10-052r-3900000000-12f9ddf1961e6ff14876
submitter=submitter = University of Tokyo Team (Faculty of Engineering, University of Tokyo)
MoNA Rating=3.75

>  <NUM PEAKS>  (840) 
38

>  <MASS SPECTRAL PEAKS>  (840) 
44 1.85
45 2.74
46 1.12
49 2.65
50 16.81
51 9.2
53 1.12
55 1.91
61 1.85
62 1.21
63 2.74
64 2.8
65 3.53
70 3.99
73 2.62
74 8.37
75 21.26
76 14.16
77 8.28
78 2.19
84 1.64
85 3.04
87 1.06
110 1.21
111 34.97
112 3.44
113 11.51
114 1.09
121 1.24
128 2.58
139 99.99
140 7.67
141 31.96
142 2.77
156 73.06
157 5.66
158 23.94
159 2.1

>  <PREDICTED SPECTRUM>  (840) 
16 3
17 9
25 13
26 22
35 84
36 136
37 183
38 215
39 198
40 22
41 24
44 91
45 311
46 12
47 92
48 94
49 209
50 541
51 364
52 111
53 166
56 36
57 123
59 20
60 115
61 247
62 152
63 293
64 86
65 202
66 14
68 30
69 71
73 316
74 478
75 722
76 379
77 389
78 101
79 0
83 45
84 174
85 267
86 185
87 109
92 136
93 35
94 19
96 23
98 5
99 98
101 67
103 61
104 41
105 7
109 29
110 174
111 547
112 264
113 352
114 47
121 522
122 76
127 26
128 50
129 27
138 67
139 999
140 238
141 457
142 51
155 8
156 620
157 217
158 243
159 119

$$$$

     RDKit          2D

 11 11  0  0  0  0  0  0  0  0999 V2000
   -2.6024   -0.0089    0.0000 C   0  0  0  0  0  0  0  0  0  0  0  0
    5.1937   -0.0065    0.0000 C   0  0  0  0  0  0  0  0  0  0  0  0
    0.0015   -2.9989    0.0000 C   0  0  0  0  0  0  0  0  0  0  0  0
   -1.2976   -2.2489    0.0000 C   0  0  0  0  0  0  0  0  0  0  0  0
    1.2960   -2.2567    0.0000 C   0  0  0  0  0  0  0  0  0  0  0  0
   -0.0026   -0.0059    0.0000 C   0  0  0  0  0  0  0  0  0  0  0  0
   -1.3021   -0.7567    0.0000 C   0  0  0  0  0  0  0  0  0  0  0  0
    3.8946   -0.7563    0.0000 C   0  0  0  0  0  0  0  0  0  0  0  0
    1.2965   -0.7559    0.0000 C   0  0  0  0  0  0  0  0  0  0  0  0
    2.5956   -0.0061    0.0000 N   0  0  0  0  0  0  0  0  0  0  0  0
    3.8943   -2.2563    0.0000 O   0  0  0  0  0  0  0  0  0  0  0  0
  4  3  2  0
  5  3  1  0
  7  1  1  0
  7  4  1  0
  7  6  2  0
  8  2  1  0
  9  5  2  0
  9  6  1  0
 10  8  2  3
 10  9  1  0
 11  8  1  0
M  END
>  <NAME>  (841) 
N-ACETYL-META-TOLUIDINE

>  <SYNONYMS>  (841) 


>  <SPECTRUM TYPE>  (841) 
MS1

>  <INSTRUMENT TYPE>  (841) 
EI-B

>  <INSTRUMENT>  (841) 
JEOL JMS-D-3000

>  <ION MODE>  (841) 
P

>  <INCHIKEY>  (841) 
ALMHSXDYCFOZQD-UHFFFAOYSA-N

>  <FORMULA>  (841) 
C9H11NO

>  <EXACT MASS>  (841) 
149.084063972

>  <MW>  (841) 
149

>  <ID>  (841) 
JP010816

>  <CONTRIBUTOR>  (841) 
University of Tokyo Team, {Faculty of Engineering, University of Tokyo

>  <COMMENT>  (841) 
computed SMILES=OC(=NC1=CC=CC(=C1)C)C
SMILES=CC(=O)Nc(c1)cc(C)cc1
InChI=InChI=1S/C9H11NO/c1-7-4-3-5-9(6-7)10-8(2)11/h3-6H,1-2H3,(H,10,11)
accession=JP010816
date=2016.01.19 (Created 2008.10.21, modified 2011.05.06)
author=FUJISE Y, HAMAMATSU UNIV. SCHOOL OF MEDICINE
license=CC BY-NC-SA
exact mass=149.08406
ionization energy=70 eV
ion type=[M]+*
computed spectral entropy=2.033124579608014
computed normalized entropy=0.6677975351458755
SPLASH=splash10-0a4i-2900000000-cee4cfdfa2d602953d16
submitter=submitter = University of Tokyo Team (Faculty of Engineering, University of Tokyo)
MoNA Rating=3.75

>  <NUM PEAKS>  (841) 
21

>  <MASS SPECTRAL PEAKS>  (841) 
42 1.24
43 19.81
50 1.41
51 3.25
52 2.33
53 1.77
63 1.82
65 3.2
77 8.75
78 3.06
79 5.42
80 1.64
89 1
90 1.25
91 3.67
104 1.42
106 36.83
107 99.99
108 8.68
149 35.84
150 3.74

>  <PREDICTED SPECTRUM>  (841) 
14 20
15 44
16 3
17 8
18 9
26 17
27 105
28 44
32 3
37 32
38 99
39 344
40 81
41 197
42 98
43 252
44 87
45 208
46 66
47 32
49 11
50 227
51 351
52 183
53 169
54 76
57 44
58 74
59 12
60 49
61 91
62 129
63 266
64 161
65 533
66 180
67 75
68 11
73 25
74 150
75 102
76 88
77 502
78 257
79 202
80 113
87 33
89 198
90 174
91 862
92 440
93 126
94 56
95 0
102 32
103 129
104 352
105 180
106 269
107 277
108 176
115 9
116 123
117 91
119 3
120 36
121 7
130 96
131 160
132 220
133 23
134 907
135 259
136 28
146 99
147 64
148 290
149 999
150 326
151 85

$$$$

     RDKit          2D

  8  8  0  0  0  0  0  0  0  0999 V2000
   -1.3000    0.7500    0.0000 C   0  0  0  0  0  0  0  0  0  0  0  0
   -0.0000   -1.5000    0.0000 C   0  0  0  0  0  0  0  0  0  0  0  0
    0.0000    1.5000    0.0000 C   0  0  0  0  0  0  0  0  0  0  0  0
    1.3000   -0.7500    0.0000 C   0  0  0  0  0  0  0  0  0  0  0  0
   -1.3000   -0.7500    0.0000 C   0  0  0  0  0  0  0  0  0  0  0  0
    1.3000    0.7500    0.0000 C   0  0  0  0  0  0  0  0  0  0  0  0
   -2.5989   -1.5002    0.0000 Cl  0  0  0  0  0  0  0  0  0  0  0  0
    2.5989    1.5002    0.0000 N   0  0  0  0  0  0  0  0  0  0  0  0
  3  1  2  0
  4  2  1  0
  5  1  1  0
  5  2  2  0
  6  3  1  0
  6  4  2  0
  7  5  1  0
  8  6  1  0
M  END
>  <NAME>  (842) 
4-CHLOROANILINE

>  <SYNONYMS>  (842) 


>  <SPECTRUM TYPE>  (842) 
MS1

>  <INSTRUMENT TYPE>  (842) 
EI-B

>  <INSTRUMENT>  (842) 
JEOL JMS-D-3000

>  <ION MODE>  (842) 
P

>  <INCHIKEY>  (842) 
QSNSCYSYFYORTR-UHFFFAOYSA-N

>  <FORMULA>  (842) 
C6H6ClN

>  <EXACT MASS>  (842) 
127.01887687199999

>  <MW>  (842) 
127

>  <ID>  (842) 
JP010815

>  <CONTRIBUTOR>  (842) 
University of Tokyo Team, {Faculty of Engineering, University of Tokyo

>  <COMMENT>  (842) 
SMILES=Nc(c1)ccc(Cl)c1
InChI=InChI=1S/C6H6ClN/c7-5-1-3-6(8)4-2-5/h1-4H,8H2
computed SMILES=ClC1=CC=C(N)C=C1
accession=JP010815
date=2016.01.19 (Created 2008.10.21, modified 2011.05.06)
author=FUJISE Y, HAMAMATSU UNIV. SCHOOL OF MEDICINE
license=CC BY-NC-SA
exact mass=127.01888
ionization energy=70 eV
ion type=[M]+*
computed spectral entropy=2.611743508414563
computed normalized entropy=0.7345957310633734
SPLASH=splash10-004i-7900000000-01a4e06910b90b1459ba
submitter=submitter = University of Tokyo Team (Faculty of Engineering, University of Tokyo)
MoNA Rating=3.75

>  <NUM PEAKS>  (842) 
35

>  <MASS SPECTRAL PEAKS>  (842) 
42 4.77
43 1.15
46 9.19
47 1.73
50 2.31
51 1.89
52 2.78
55 1.15
57 1.57
61 3.36
62 4.46
63 10.45
64 6.03
65 23.1
66 2.83
67 1.68
71 1.78
73 3.67
74 1.36
75 2.25
78 5.98
83 1.31
90 1.41
91 4.98
92 16.64
93 1.26
99 6.77
100 8.5
101 2.46
102 2.67
126 1.83
127 99.99
128 7.72
129 33.14
130 2.15

>  <PREDICTED SPECTRUM>  (842) 
14 2
16 6
25 7
26 54
27 60
28 69
35 34
36 87
37 105
38 202
39 163
40 33
41 82
42 44
47 10
49 75
50 155
51 207
52 257
53 133
54 134
60 68
61 93
62 166
63 324
64 327
65 460
66 117
67 32
73 219
74 58
75 162
76 1
77 52
80 112
86 18
89 85
90 284
91 378
92 623
93 237
98 7
99 261
100 219
101 189
102 102
113 91
125 15
126 223
127 999
128 323
129 564
130 137

$$$$

     RDKit          2D

 13 14  0  0  0  0  0  0  0  0999 V2000
    4.8381    0.6104    0.0000 C   0  0  0  0  0  0  0  0  0  0  0  0
   -2.9500   -0.8900    0.0000 C   0  0  0  0  0  0  0  0  0  0  0  0
   -2.9500    0.6100    0.0000 C   0  0  0  0  0  0  0  0  0  0  0  0
   -1.6500   -1.6400    0.0000 C   0  0  0  0  0  0  0  0  0  0  0  0
   -1.6500    1.3600    0.0000 C   0  0  0  0  0  0  0  0  0  0  0  0
    0.9400   -1.6400    0.0000 C   0  0  0  0  0  0  0  0  0  0  0  0
    2.2400   -0.8900    0.0000 C   0  0  0  0  0  0  0  0  0  0  0  0
    0.9400    1.3600    0.0000 C   0  0  0  0  0  0  0  0  0  0  0  0
    3.5389    1.3602    0.0000 C   0  0  0  0  0  0  0  0  0  0  0  0
   -0.3500   -0.8900    0.0000 C   0  0  0  0  0  0  0  0  0  0  0  0
    2.2400    0.6100    0.0000 C   0  0  0  0  0  0  0  0  0  0  0  0
   -0.3500    0.6100    0.0000 C   0  0  0  0  0  0  0  0  0  0  0  0
    3.5387    2.8602    0.0000 O   0  0  0  0  0  0  0  0  0  0  0  0
  3  2  2  0
  4  2  1  0
  5  3  1  0
  7  6  2  0
  9  1  1  0
 10  4  2  0
 10  6  1  0
 11  7  1  0
 11  8  2  0
 11  9  1  0
 12  5  2  0
 12  8  1  0
 12 10  1  0
 13  9  2  0
M  END
>  <NAME>  (843) 
2'-ACETONAPHTHONE

>  <SYNONYMS>  (843) 


>  <SPECTRUM TYPE>  (843) 
MS1

>  <INSTRUMENT TYPE>  (843) 
EI-B

>  <INSTRUMENT>  (843) 
JEOL JMS-D-3000

>  <ION MODE>  (843) 
P

>  <INCHIKEY>  (843) 
XSAYZAUNJMRRIR-UHFFFAOYSA-N

>  <FORMULA>  (843) 
C12H10O

>  <EXACT MASS>  (843) 
170.07316494

>  <MW>  (843) 
170

>  <ID>  (843) 
JP010814

>  <CONTRIBUTOR>  (843) 
University of Tokyo Team, {Faculty of Engineering, University of Tokyo

>  <COMMENT>  (843) 
SMILES=CC(=O)c(c1)cc(c2)c(ccc2)c1
InChI=InChI=1S/C12H10O/c1-9(13)11-7-6-10-4-2-3-5-12(10)8-11/h2-8H,1H3
computed SMILES=O=C(C=1C=CC=2C=CC=CC2C1)C
accession=JP010814
date=2016.01.19 (Created 2008.10.21, modified 2011.05.06)
author=FUJISE Y, HAMAMATSU UNIV. SCHOOL OF MEDICINE
license=CC BY-NC-SA
exact mass=170.07316
ionization energy=70 eV
ion type=[M]+*
computed spectral entropy=2.3251309985700828
computed normalized entropy=0.6977755991476735
SPLASH=splash10-0adi-2900000000-c2013c45db067d46a2ed
submitter=submitter = University of Tokyo Team (Faculty of Engineering, University of Tokyo)
MoNA Rating=3.75

>  <NUM PEAKS>  (843) 
28

>  <MASS SPECTRAL PEAKS>  (843) 
43 8.42
50 3.4
51 5.23
57 1.37
62 1.97
63 11.29
64 1.68
71 1.3
74 3.83
75 5.98
76 3.36
77 9.84
78 5.27
87 1.68
98 1.14
99 1.03
101 5.57
102 1.11
115 1.87
126 11.6
127 84.22
128 11.26
139 1.36
141 1.2
155 99.99
156 12.28
170 56.17
171 7.75

>  <PREDICTED SPECTRUM>  (843) 
28 8
37 1
38 36
39 91
40 22
41 51
42 60
43 457
44 140
49 30
50 236
51 325
52 123
53 43
61 69
62 176
63 319
64 172
65 95
70 67
71 20
74 237
75 324
76 248
77 317
78 118
84 2
85 80
86 147
87 103
89 35
97 33
98 162
99 114
100 154
101 305
102 86
110 13
113 100
115 183
125 121
126 486
127 812
128 547
129 90
139 66
140 22
141 154
142 19
153 6
155 999
156 354
157 102
169 80
170 754
171 266
172 78

$$$$

     RDKit          2D

 14 16  0  0  0  0  0  0  0  0999 V2000
    3.0600    2.2000    0.0000 C   0  0  0  0  0  0  0  0  0  0  0  0
   -3.4300   -1.5500    0.0000 C   0  0  0  0  0  0  0  0  0  0  0  0
    1.7600    2.9500    0.0000 C   0  0  0  0  0  0  0  0  0  0  0  0
   -3.4300   -0.0500    0.0000 C   0  0  0  0  0  0  0  0  0  0  0  0
    3.0600    0.7000    0.0000 C   0  0  0  0  0  0  0  0  0  0  0  0
   -2.1300   -2.3000    0.0000 C   0  0  0  0  0  0  0  0  0  0  0  0
    0.4600    2.2000    0.0000 C   0  0  0  0  0  0  0  0  0  0  0  0
   -2.1300    0.7000    0.0000 C   0  0  0  0  0  0  0  0  0  0  0  0
    1.7600   -1.5500    0.0000 C   0  0  0  0  0  0  0  0  0  0  0  0
    0.4600   -2.3000    0.0000 C   0  0  0  0  0  0  0  0  0  0  0  0
    1.7600   -0.0500    0.0000 C   0  0  0  0  0  0  0  0  0  0  0  0
   -0.8300   -1.5500    0.0000 C   0  0  0  0  0  0  0  0  0  0  0  0
    0.4600    0.7000    0.0000 C   0  0  0  0  0  0  0  0  0  0  0  0
   -0.8300   -0.0500    0.0000 C   0  0  0  0  0  0  0  0  0  0  0  0
  3  1  2  0
  4  2  2  0
  5  1  1  0
  6  2  1  0
  7  3  1  0
  8  4  1  0
 10  9  2  0
 11  5  2  0
 11  9  1  0
 12  6  2  0
 12 10  1  0
 13  7  2  0
 13 11  1  0
 14  8  2  0
 14 12  1  0
 14 13  1  0
M  END
>  <NAME>  (844) 
PHENANTHRENE

>  <SYNONYMS>  (844) 


>  <SPECTRUM TYPE>  (844) 
MS1

>  <INSTRUMENT TYPE>  (844) 
EI-B

>  <INSTRUMENT>  (844) 
JEOL JMS-D-3000

>  <ION MODE>  (844) 
P

>  <INCHIKEY>  (844) 
YNPNZTXNASCQKK-UHFFFAOYSA-N

>  <FORMULA>  (844) 
C14H10

>  <EXACT MASS>  (844) 
178.07825032

>  <MW>  (844) 
178

>  <ID>  (844) 
JP010813

>  <CONTRIBUTOR>  (844) 
University of Tokyo Team, {Faculty of Engineering, University of Tokyo

>  <COMMENT>  (844) 
SMILES=c(c3)cc(c1)c(c3)c(c2)c(ccc2)c1
InChI=InChI=1S/C14H10/c1-3-7-13-11(5-1)9-10-12-6-2-4-8-14(12)13/h1-10H
computed SMILES=C=1C=CC2=C(C1)C=CC=3C=CC=CC32
accession=JP010813
date=2016.01.19 (Created 2008.10.21, modified 2011.05.06)
author=FUJISE Y, HAMAMATSU UNIV. SCHOOL OF MEDICINE
license=CC BY-NC-SA
exact mass=178.07825
ionization energy=70 eV
ion type=[M]+*
computed spectral entropy=2.146678968898407
computed normalized entropy=0.6944838193878932
SPLASH=splash10-004i-3900000000-2f361f4cb19325d97e63
submitter=submitter = University of Tokyo Team (Faculty of Engineering, University of Tokyo)
MoNA Rating=3.75

>  <NUM PEAKS>  (844) 
22

>  <MASS SPECTRAL PEAKS>  (844) 
51 1.15
62 1.12
63 3.67
74 1.57
75 4.75
76 16.54
87 2.17
88 12.31
89 16.44
126 1.12
139 1.05
150 3.73
151 6.6
152 6.45
174 1.62
175 2.22
176 15.32
177 9.08
178 99.99
179 15.92
180 1.34
184 1.24

>  <PREDICTED SPECTRUM>  (844) 
27 9
38 22
39 119
40 3
41 25
43 13
49 3
50 121
51 118
52 11
57 8
61 2
62 94
63 159
64 22
65 53
74 177
75 209
76 201
77 20
81 73
82 36
84 16
85 16
86 74
87 126
88 195
89 61
94 46
95 39
96 40
97 4
98 101
99 67
100 131
101 190
102 164
107 15
108 3
110 72
111 76
112 21
113 34
121 24
122 56
123 35
125 41
126 153
137 6
138 16
139 98
149 119
150 156
151 220
152 166
153 22
163 48
174 114
175 193
176 556
177 460
178 999
179 402
180 114

$$$$

     RDKit          2D

  9  9  0  0  0  0  0  0  0  0999 V2000
    3.5281    0.5402    0.0000 C   0  0  0  0  0  0  0  0  0  0  0  0
    2.2281   -0.2098    0.0000 C   0  0  0  0  0  0  0  0  0  0  0  0
    3.5281    2.0402    0.0000 C   0  0  0  0  0  0  0  0  0  0  0  0
    0.9281    2.0402    0.0000 C   0  0  0  0  0  0  0  0  0  0  0  0
    0.9281    0.5402    0.0000 C   0  0  0  0  0  0  0  0  0  0  0  0
   -0.3708   -0.2100    0.0000 C   0  0  0  0  0  0  0  0  0  0  0  0
   -1.6700    0.5398    0.0000 N   0  0  0  0  0  0  0  0  0  0  0  0
    2.2281    2.7902    0.0000 N   0  0  0  0  0  0  0  0  0  0  0  0
   -0.3706   -1.7100    0.0000 O   0  0  0  0  0  0  0  0  0  0  0  0
  2  1  2  0
  3  1  1  0
  5  2  1  0
  5  4  2  0
  6  5  1  0
  7  6  2  0
  8  3  2  0
  8  4  1  0
  9  6  1  0
M  END
>  <NAME>  (845) 
NICOTINAMIDE

>  <SYNONYMS>  (845) 


>  <SPECTRUM TYPE>  (845) 
MS1

>  <INSTRUMENT TYPE>  (845) 
EI-B

>  <INSTRUMENT>  (845) 
JEOL JMS-D-3000

>  <ION MODE>  (845) 
P

>  <INCHIKEY>  (845) 
DFPAKSUCGFBDDF-UHFFFAOYSA-N

>  <FORMULA>  (845) 
C6H6N2O

>  <EXACT MASS>  (845) 
122.048012812

>  <MW>  (845) 
122

>  <ID>  (845) 
JP010812

>  <CONTRIBUTOR>  (845) 
University of Tokyo Team, {Faculty of Engineering, University of Tokyo

>  <COMMENT>  (845) 
SMILES=NC(=O)c(c1)cncc1
InChI=InChI=1S/C6H6N2O/c7-6(9)5-2-1-3-8-4-5/h1-4H,(H2,7,9)
computed SMILES=N=C(O)C=1C=NC=CC1
accession=JP010812
date=2016.01.19 (Created 2008.10.21, modified 2011.05.06)
author=FUJISE Y, HAMAMATSU UNIV. SCHOOL OF MEDICINE
license=CC BY-NC-SA
exact mass=122.04801
ionization energy=70 eV
ion type=[M]+*
computed spectral entropy=2.235790494748603
computed normalized entropy=0.7735304251574835
SPLASH=splash10-0kor-9800000000-c4a5ff5285417499eff8
submitter=submitter = University of Tokyo Team (Faculty of Engineering, University of Tokyo)
MoNA Rating=3.75

>  <NUM PEAKS>  (845) 
18

>  <MASS SPECTRAL PEAKS>  (845) 
44 11.88
49 2.97
50 17.02
51 39.81
52 16.8
53 3.77
75 2.15
76 3.61
77 10.48
78 79.94
79 9.07
94 3.16
104 7.86
105 7.93
106 66.13
107 4.6
122 99.99
123 7.6

>  <PREDICTED SPECTRUM>  (845) 
25 12
26 43
27 9
36 23
37 150
38 186
39 300
40 131
41 235
42 63
43 125
44 180
45 59
48 72
49 183
50 451
51 642
52 291
53 175
56 9
57 80
63 74
64 175
65 220
66 232
67 270
68 208
69 62
74 53
75 154
76 296
77 813
78 870
79 256
80 39
92 223
93 152
94 184
95 178
104 50
105 300
106 284
120 54
121 540
122 999
123 238
124 4

$$$$

     RDKit          2D

 10 10  0  0  0  0  0  0  0  0999 V2000
    0.0005   -3.7506    0.0000 C   0  0  0  0  0  0  0  0  0  0  0  0
   -1.2990   -2.9998    0.0000 C   0  0  0  0  0  0  0  0  0  0  0  0
    1.2995   -3.0006    0.0000 C   0  0  0  0  0  0  0  0  0  0  0  0
   -0.0005   -0.7490    0.0000 C   0  0  0  0  0  0  0  0  0  0  0  0
   -1.2995   -1.4990    0.0000 C   0  0  0  0  0  0  0  0  0  0  0  0
    1.2990   -1.4998    0.0000 C   0  0  0  0  0  0  0  0  0  0  0  0
   -2.5987   -0.7492    0.0000 N   0  0  0  0  0  0  0  0  0  0  0  0
    2.5981   -0.7498    0.0000 N   0  0  0  0  0  0  0  0  0  0  0  0
    3.8971   -1.4998    0.0000 O   0  0  0  0  0  0  0  0  0  0  0  0
    2.5981    0.7502    0.0000 O   0  0  0  0  0  0  0  0  0  0  0  0
  2  1  2  0
  3  1  1  0
  5  2  1  0
  5  4  2  0
  6  3  2  0
  6  4  1  0
  7  5  1  0
  8  6  1  0
  9  8  1  0
 10  8  2  0
M  CHG  2   8   1   9  -1
M  END
>  <NAME>  (846) 
3-NITROANILINE

>  <SYNONYMS>  (846) 


>  <SPECTRUM TYPE>  (846) 
MS1

>  <INSTRUMENT TYPE>  (846) 
EI-B

>  <INSTRUMENT>  (846) 
JEOL JMS-D-3000

>  <ION MODE>  (846) 
P

>  <INCHIKEY>  (846) 
XJCVRTZCHMZPBD-UHFFFAOYSA-N

>  <FORMULA>  (846) 
C6H6N2O2

>  <EXACT MASS>  (846) 
138.042927432

>  <MW>  (846) 
138

>  <ID>  (846) 
JP010811

>  <CONTRIBUTOR>  (846) 
University of Tokyo Team, {Faculty of Engineering, University of Tokyo

>  <COMMENT>  (846) 
InChI=InChI=1S/C6H6N2O2/c7-5-2-1-3-6(4-5)8(9)10/h1-4H,7H2
SMILES=Nc(c1)cc(cc1)[N+1]([O-1])=O
computed SMILES=O=N(=O)C=1C=CC=C(N)C1
accession=JP010811
date=2016.01.19 (Created 2008.10.21, modified 2011.05.06)
author=FUJISE Y, HAMAMATSU UNIV. SCHOOL OF MEDICINE
license=CC BY-NC-SA
exact mass=138.04293
ionization energy=70 eV
ion type=[M]+*
computed spectral entropy=2.239569949282928
computed normalized entropy=0.6720985889203943
SPLASH=splash10-014u-9300000000-ac1a367b8b61543933d6
submitter=submitter = University of Tokyo Team (Faculty of Engineering, University of Tokyo)
MoNA Rating=3.75

>  <NUM PEAKS>  (846) 
28

>  <MASS SPECTRAL PEAKS>  (846) 
42 6.75
43 2.22
44 1.62
50 2.63
51 3.03
52 8.71
53 4.15
54 2.22
61 1.93
62 3.86
63 9.88
64 8.5
65 91.16
66 11.42
74 1.21
75 1.04
78 1.41
79 1.35
80 10.28
81 1.02
90 1.45
91 4.91
92 99.99
93 7.92
108 7.91
122 2.03
138 88.47
139 7.04

>  <PREDICTED SPECTRUM>  (846) 
15 0
16 18
18 16
25 31
26 116
27 178
28 182
29 88
30 274
36 57
37 238
38 343
39 515
40 212
41 334
42 163
43 10
44 72
46 68
49 61
50 234
51 386
52 430
53 272
54 148
56 18
57 55
61 140
62 313
63 596
64 469
65 936
66 334
75 57
77 48
79 138
80 420
81 117
90 158
91 211
92 883
93 314
107 6
108 445
109 82
121 94
122 85
138 999
139 305
140 30

$$$$

     RDKit          2D

 14 15  0  0  0  0  0  0  0  0999 V2000
   -2.7200   -1.0200    0.0000 C   0  0  0  0  0  0  0  0  0  0  0  0
   -2.7200    0.4800    0.0000 C   0  0  0  0  0  0  0  0  0  0  0  0
    2.4800   -1.0200    0.0000 C   0  0  0  0  0  0  0  0  0  0  0  0
   -1.4200   -1.7700    0.0000 C   0  0  0  0  0  0  0  0  0  0  0  0
    1.1800   -1.7700    0.0000 C   0  0  0  0  0  0  0  0  0  0  0  0
    2.4800    0.4800    0.0000 C   0  0  0  0  0  0  0  0  0  0  0  0
   -1.4200    1.2300    0.0000 C   0  0  0  0  0  0  0  0  0  0  0  0
    1.1800    2.7300    0.0000 C   0  0  0  0  0  0  0  0  0  0  0  0
   -0.1200   -1.0200    0.0000 C   0  0  0  0  0  0  0  0  0  0  0  0
    1.1800    1.2300    0.0000 C   0  0  0  0  0  0  0  0  0  0  0  0
   -0.1200    0.4800    0.0000 C   0  0  0  0  0  0  0  0  0  0  0  0
    2.4790    3.4800    0.0000 C   0  0  0  0  0  0  0  0  0  0  0  0
    3.7781    2.7300    0.0000 O   0  0  0  0  0  0  0  0  0  0  0  0
    2.4790    4.9800    0.0000 O   0  0  0  0  0  0  0  0  0  0  0  0
  2  1  2  0
  4  1  1  0
  5  3  2  0
  6  3  1  0
  7  2  1  0
  9  4  2  0
  9  5  1  0
 10  6  2  0
 10  8  1  0
 11  7  2  0
 11  9  1  0
 11 10  1  0
 12  8  1  0
 13 12  2  0
 14 12  1  0
M  END
>  <NAME>  (847) 
1-NAPHTHALENEACETIC ACID

>  <SYNONYMS>  (847) 


>  <SPECTRUM TYPE>  (847) 
MS1

>  <INSTRUMENT TYPE>  (847) 
EI-B

>  <INSTRUMENT>  (847) 
JEOL JMS-D-3000

>  <ION MODE>  (847) 
P

>  <INCHIKEY>  (847) 
PRPINYUDVPFIRX-UHFFFAOYSA-N

>  <FORMULA>  (847) 
C12H10O2

>  <EXACT MASS>  (847) 
186.06807956

>  <MW>  (847) 
186

>  <ID>  (847) 
JP010810

>  <CONTRIBUTOR>  (847) 
University of Tokyo Team, {Faculty of Engineering, University of Tokyo

>  <COMMENT>  (847) 
SMILES=OC(=O)Cc(c1)c(c2)c(ccc2)cc1
InChI=InChI=1S/C12H10O2/c13-12(14)8-10-6-3-5-9-4-1-2-7-11(9)10/h1-7H,8H2,(H,13,14)
computed SMILES=O=C(O)CC1=CC=CC=2C=CC=CC21
accession=JP010810
date=2016.01.19 (Created 2008.10.21, modified 2011.05.06)
author=FUJISE Y, HAMAMATSU UNIV. SCHOOL OF MEDICINE
license=CC BY-NC-SA
exact mass=186.06808
ionization energy=70 eV
ion type=[M]+*
computed spectral entropy=2.2360617007586963
computed normalized entropy=0.6451910253612625
SPLASH=splash10-0006-1900000000-782f3a027c45e64394b3
submitter=submitter = University of Tokyo Team (Faculty of Engineering, University of Tokyo)
MoNA Rating=3.75

>  <NUM PEAKS>  (847) 
32

>  <MASS SPECTRAL PEAKS>  (847) 
44 7.8
45 1.06
50 1.52
51 2.07
57 3.77
62 1.33
63 3.77
64 1.12
65 1.42
70 1.88
71 2.25
74 1.38
75 1.58
77 1.41
87 1.4
89 2.22
91 1.14
113 1.35
114 1.13
115 17.29
116 1.8
127 1.66
128 2.13
129 1.02
139 8.3
140 3.29
141 99.99
142 14.56
143 1.14
156 1.13
186 39.58
187 5.43

>  <PREDICTED SPECTRUM>  (847) 
14 2
17 6
26 15
27 63
28 7
38 29
39 112
41 74
44 52
45 168
49 29
50 133
51 214
52 66
53 0
55 35
57 184
61 16
62 128
63 242
64 84
65 161
66 11
69 37
70 18
73 7
74 183
75 178
76 122
77 193
78 61
81 12
82 87
83 80
84 19
85 7
86 87
87 123
88 69
89 116
91 111
92 3
94 5
96 5
102 80
109 61
113 95
114 73
115 520
116 139
126 96
127 70
128 170
129 121
137 1
138 56
139 285
140 192
141 999
142 444
143 74
168 47
169 38
186 822
187 299
188 85

$$$$

     RDKit          2D

 14 15  0  0  0  0  0  0  0  0999 V2000
   -2.9500   -0.8900    0.0000 C   0  0  0  0  0  0  0  0  0  0  0  0
   -2.9500    0.6100    0.0000 C   0  0  0  0  0  0  0  0  0  0  0  0
   -1.6500   -1.6400    0.0000 C   0  0  0  0  0  0  0  0  0  0  0  0
   -1.6500    1.3600    0.0000 C   0  0  0  0  0  0  0  0  0  0  0  0
    2.2400   -0.8900    0.0000 C   0  0  0  0  0  0  0  0  0  0  0  0
    0.9400   -1.6400    0.0000 C   0  0  0  0  0  0  0  0  0  0  0  0
    0.9400    1.3600    0.0000 C   0  0  0  0  0  0  0  0  0  0  0  0
    3.5389    1.3602    0.0000 C   0  0  0  0  0  0  0  0  0  0  0  0
    2.2400    0.6100    0.0000 C   0  0  0  0  0  0  0  0  0  0  0  0
   -0.3500   -0.8900    0.0000 C   0  0  0  0  0  0  0  0  0  0  0  0
   -0.3500    0.6100    0.0000 C   0  0  0  0  0  0  0  0  0  0  0  0
    4.8381    0.6104    0.0000 C   0  0  0  0  0  0  0  0  0  0  0  0
    4.8383   -0.8896    0.0000 O   0  0  0  0  0  0  0  0  0  0  0  0
    6.1370    1.3606    0.0000 O   0  0  0  0  0  0  0  0  0  0  0  0
  2  1  2  0
  3  1  1  0
  4  2  1  0
  6  5  2  0
  9  5  1  0
  9  7  2  0
  9  8  1  0
 10  3  2  0
 10  6  1  0
 11  4  2  0
 11  7  1  0
 11 10  1  0
 12  8  1  0
 13 12  2  0
 14 12  1  0
M  END
>  <NAME>  (848) 
2-NATHTHALENEACETIC ACID

>  <SYNONYMS>  (848) 


>  <SPECTRUM TYPE>  (848) 
MS1

>  <INSTRUMENT TYPE>  (848) 
EI-B

>  <INSTRUMENT>  (848) 
JEOL JMS-D-3000

>  <ION MODE>  (848) 
P

>  <INCHIKEY>  (848) 
VIBOGIYPPWLDTI-UHFFFAOYSA-N

>  <FORMULA>  (848) 
C12H10O2

>  <EXACT MASS>  (848) 
186.06807956

>  <MW>  (848) 
186

>  <ID>  (848) 
JP010809

>  <CONTRIBUTOR>  (848) 
University of Tokyo Team, {Faculty of Engineering, University of Tokyo

>  <COMMENT>  (848) 
SMILES=OC(=O)Cc(c1)cc(c2)c(ccc2)c1
InChI=InChI=1S/C12H10O2/c13-12(14)8-9-5-6-10-3-1-2-4-11(10)7-9/h1-7H,8H2,(H,13,14)
computed SMILES=O=C(O)CC=1C=CC=2C=CC=CC2C1
accession=JP010809
date=2016.01.19 (Created 2008.10.21, modified 2011.05.06)
author=FUJISE Y, HAMAMATSU UNIV. SCHOOL OF MEDICINE
license=CC BY-NC-SA
exact mass=186.06808
ionization energy=70 eV
ion type=[M]+*
computed spectral entropy=1.5737171823968863
computed normalized entropy=0.5554531167581783
SPLASH=splash10-0006-0900000000-f70a7bef841d7a245559
submitter=submitter = University of Tokyo Team (Faculty of Engineering, University of Tokyo)
MoNA Rating=3.75

>  <NUM PEAKS>  (848) 
17

>  <MASS SPECTRAL PEAKS>  (848) 
51 1.22
62 1.68
63 4.09
65 1.73
78 1.22
89 2.57
109 1.2
114 1.09
115 17.51
116 4.29
124 2.19
127 1.24
143 1.09
144 99.99
145 11.29
186 12.23
187 1.62

>  <PREDICTED SPECTRUM>  (848) 
17 10
26 12
27 41
29 13
31 24
38 30
39 84
41 80
43 18
44 98
45 218
49 47
50 139
51 201
52 65
53 7
55 78
56 28
57 133
61 33
62 129
63 223
64 88
65 106
67 0
69 33
70 27
71 52
73 21
74 152
75 171
76 155
77 175
78 59
81 8
82 86
83 73
84 57
85 66
86 134
87 130
88 95
89 138
90 26
91 48
94 43
96 37
97 24
98 34
99 32
100 26
101 23
102 42
109 26
111 3
113 160
114 96
115 261
116 90
126 121
127 44
128 164
129 80
137 46
138 73
139 311
140 102
141 999
142 332
143 59
157 35
167 0
169 48
184 28
185 19
186 772
187 277
188 74

$$$$

     RDKit          2D

  7  6  0  0  0  0  0  0  0  0999 V2000
    1.6238    1.6875    0.0000 C   0  0  0  0  0  0  0  0  0  0  0  0
    0.3248    2.4375    0.0000 C   0  0  0  0  0  0  0  0  0  0  0  0
   -2.2733    2.4375    0.0000 C   0  0  0  0  0  0  0  0  0  0  0  0
   -3.5724    1.6875    0.0000 N   0  0  0  0  0  0  0  0  0  0  0  0
   -0.9743    1.6875    0.0000 N   0  0  0  0  0  0  0  0  0  0  0  0
    0.3248    3.9375    0.0000 O   0  0  0  0  0  0  0  0  0  0  0  0
   -2.2733    3.9375    0.0000 S   0  0  0  0  0  0  0  0  0  0  0  0
  2  1  1  0
  4  3  2  0
  5  2  2  3
  5  3  1  0
  6  2  1  0
  7  3  1  0
M  END
>  <NAME>  (849) 
1-ACETYLTHIOUREA

>  <SYNONYMS>  (849) 


>  <SPECTRUM TYPE>  (849) 
MS1

>  <INSTRUMENT TYPE>  (849) 
EI-B

>  <INSTRUMENT>  (849) 
JEOL JMS-D-3000

>  <ION MODE>  (849) 
P

>  <INCHIKEY>  (849) 
IPCRBOOJBPETMF-UHFFFAOYSA-N

>  <FORMULA>  (849) 
C3H6N2OS

>  <EXACT MASS>  (849) 
118.020083812

>  <MW>  (849) 
118

>  <ID>  (849) 
JP010808

>  <CONTRIBUTOR>  (849) 
University of Tokyo Team, {Faculty of Engineering, University of Tokyo

>  <COMMENT>  (849) 
SMILES=CC(=O)NC(N)=S
InChI=InChI=1S/C3H6N2OS/c1-2(6)5-3(4)7/h1H3,(H3,4,5,6,7)
computed SMILES=N=C(S)N=C(O)C
accession=JP010808
computed normalized entropy=0.6499099431616533
date=2016.01.19 (Created 2008.10.21, modified 2011.05.06)
author=FUJISE Y, HAMAMATSU UNIV. SCHOOL OF MEDICINE
license=CC BY-NC-SA
exact mass=118.02008
ionization energy=70 eV
ion type=[M]+*
computed spectral entropy=1.9136201695930177
SPLASH=splash10-00kf-9400000000-c684d4a569af16b008ee
submitter=submitter = University of Tokyo Team (Faculty of Engineering, University of Tokyo)
MoNA Rating=3.75

>  <NUM PEAKS>  (849) 
19

>  <MASS SPECTRAL PEAKS>  (849) 
41 2.4
42 10.11
43 99.99
44 7.2
47 1.77
48 2.47
58 1.33
59 7.15
60 14.66
63 1.19
64 1.51
75 3.03
76 53.72
77 1.95
78 3.44
90 2.64
118 90.97
119 4.68
120 4.49

>  <PREDICTED SPECTRUM>  (849) 
14 24
15 30
16 22
17 46
18 13
25 21
26 78
27 179
28 164
29 82
30 23
31 56
32 39
33 167
34 119
35 71
36 34
37 25
38 127
39 360
40 312
41 807
42 907
43 999
44 501
45 604
46 392
47 370
48 146
49 79
50 99
51 163
52 141
53 286
54 94
55 207
56 237
57 160
58 320
59 571
60 652
61 363
62 114
63 31
65 90
66 70
67 91
68 166
69 864
70 465
71 407
72 291
73 316
74 436
75 124
76 293
77 186
78 109
83 281
84 396
85 790
86 378
87 430
88 207
89 77
90 122
91 203
99 252
100 289
101 394
102 214
103 546
104 119
105 90
106 13
115 39
116 158
117 181
118 992
119 311
120 271
121 38

$$$$

     RDKit          2D

  7  7  0  0  0  0  0  0  0  0999 V2000
   -0.0000    1.5000    0.0000 C   0  0  0  0  0  0  0  0  0  0  0  0
   -1.3000    0.7500    0.0000 C   0  0  0  0  0  0  0  0  0  0  0  0
    1.3000    0.7500    0.0000 C   0  0  0  0  0  0  0  0  0  0  0  0
   -1.3000   -0.7500    0.0000 C   0  0  0  0  0  0  0  0  0  0  0  0
    1.3000   -0.7500    0.0000 C   0  0  0  0  0  0  0  0  0  0  0  0
    2.5989   -1.5002    0.0000 N   0  0  0  0  0  0  0  0  0  0  0  0
   -0.0000   -1.5000    0.0000 N   0  0  0  0  0  0  0  0  0  0  0  0
  2  1  2  0
  3  1  1  0
  4  2  1  0
  5  3  2  0
  6  5  1  0
  7  4  2  0
  7  5  1  0
M  END
>  <NAME>  (850) 
2-AMINOPYRIDINE

>  <SYNONYMS>  (850) 


>  <SPECTRUM TYPE>  (850) 
MS1

>  <INSTRUMENT TYPE>  (850) 
EI-B

>  <INSTRUMENT>  (850) 
JEOL JMS-D-3000

>  <ION MODE>  (850) 
P

>  <INCHIKEY>  (850) 
ICSNLGPSRYBMBD-UHFFFAOYSA-N

>  <FORMULA>  (850) 
C5H6N2

>  <EXACT MASS>  (850) 
94.053098192

>  <MW>  (850) 
94

>  <ID>  (850) 
JP010806

>  <CONTRIBUTOR>  (850) 
University of Tokyo Team, {Faculty of Engineering, University of Tokyo

>  <COMMENT>  (850) 
SMILES=Nc(c1)nccc1
InChI=InChI=1S/C5H6N2/c6-5-3-1-2-4-7-5/h1-4H,(H2,6,7)
computed SMILES=N=1C=CC=CC1N
accession=JP010806
date=2016.01.19 (Created 2008.10.21, modified 2011.05.06)
author=FUJISE Y, HAMAMATSU UNIV. SCHOOL OF MEDICINE
license=CC BY-NC-SA
exact mass=94.0531
ionization energy=70 eV
ion type=[M]+*
computed spectral entropy=2.006813987221148
computed normalized entropy=0.6400311558624462
SPLASH=splash10-00kf-9000000000-89dd08c73f6505375d7a
submitter=submitter = University of Tokyo Team (Faculty of Engineering, University of Tokyo)
MoNA Rating=3.75

>  <NUM PEAKS>  (850) 
23

>  <MASS SPECTRAL PEAKS>  (850) 
41 14.35
42 1.78
43 1.88
44 1.09
47 5.13
50 3.41
51 5.6
52 3.57
53 1.02
54 1.35
57 1.02
62 1.32
63 3.44
64 1.52
65 2.12
66 10.77
67 49.02
68 3.28
78 3.84
92 1.12
93 4.97
94 99.99
95 6.52

>  <PREDICTED SPECTRUM>  (850) 
25 14
26 64
27 18
28 100
36 9
37 140
38 214
39 343
40 203
41 349
42 90
44 13
49 87
50 276
51 369
52 359
53 169
54 162
55 79
61 61
62 105
63 128
64 125
65 250
66 532
67 563
68 274
69 73
75 119
76 80
78 196
93 357
94 999
95 308
96 17

$$$$

     RDKit          2D

 11 11  0  0  0  0  0  0  0  0999 V2000
   -4.8712    2.0071    0.0000 C   0  0  0  0  0  0  0  0  0  0  0  0
    2.9231    0.5071    0.0000 C   0  0  0  0  0  0  0  0  0  0  0  0
    1.6236   -0.2437    0.0000 C   0  0  0  0  0  0  0  0  0  0  0  0
    2.9236    2.0079    0.0000 C   0  0  0  0  0  0  0  0  0  0  0  0
    0.3245    0.5063    0.0000 C   0  0  0  0  0  0  0  0  0  0  0  0
    1.6245    2.7579    0.0000 C   0  0  0  0  0  0  0  0  0  0  0  0
   -3.5721    2.7571    0.0000 C   0  0  0  0  0  0  0  0  0  0  0  0
    0.3250    2.0071    0.0000 C   0  0  0  0  0  0  0  0  0  0  0  0
   -2.2731    2.0071    0.0000 N   0  0  0  0  0  0  0  0  0  0  0  0
   -0.9740    2.7571    0.0000 N   0  0  0  0  0  0  0  0  0  0  0  0
   -3.5721    4.2571    0.0000 O   0  0  0  0  0  0  0  0  0  0  0  0
  3  2  2  0
  4  2  1  0
  5  3  1  0
  6  4  2  0
  7  1  1  0
  8  5  2  0
  8  6  1  0
  9  7  2  3
 10  8  1  0
 10  9  1  0
 11  7  1  0
M  END
>  <NAME>  (851) 
BETA-ACETYLPHENYLHYDRAZINE

>  <SYNONYMS>  (851) 


>  <SPECTRUM TYPE>  (851) 
MS1

>  <INSTRUMENT TYPE>  (851) 
EI-B

>  <INSTRUMENT>  (851) 
JEOL JMS-D-3000

>  <ION MODE>  (851) 
P

>  <INCHIKEY>  (851) 
UICBCXONCUFSOI-UHFFFAOYSA-N

>  <FORMULA>  (851) 
C8H10N2O

>  <EXACT MASS>  (851) 
150.07931294

>  <MW>  (851) 
150

>  <ID>  (851) 
JP010804

>  <CONTRIBUTOR>  (851) 
University of Tokyo Team, {Faculty of Engineering, University of Tokyo

>  <COMMENT>  (851) 
SMILES=CC(=O)NNc(c1)cccc1
InChI=InChI=1S/C8H10N2O/c1-7(11)9-10-8-5-3-2-4-6-8/h2-6,10H,1H3,(H,9,11)
computed SMILES=OC(=NNC=1C=CC=CC1)C
accession=JP010804
date=2016.01.19 (Created 2008.10.21, modified 2011.05.06)
author=FUJISE Y, HAMAMATSU UNIV. SCHOOL OF MEDICINE
license=CC BY-NC-SA
exact mass=150.07931
ionization energy=70 eV
ion type=[M]+*
computed spectral entropy=2.654595376649186
computed normalized entropy=0.7659543170917101
SPLASH=splash10-0a4i-7900000000-be62587c5ccb35a1d16d
submitter=submitter = University of Tokyo Team (Faculty of Engineering, University of Tokyo)
MoNA Rating=3.75

>  <NUM PEAKS>  (851) 
32

>  <MASS SPECTRAL PEAKS>  (851) 
41 3.28
42 2.18
43 33.4
50 3.74
51 11.92
52 3.4
53 1.95
55 1.61
57 1.22
59 4.27
62 1.13
63 3.4
64 3
65 9.5
66 2.06
72 1.57
77 32.81
78 9.71
79 4.35
80 3.93
81 1.13
91 9.48
92 19.14
93 7.53
94 1.3
105 9.23
106 1.13
107 38.55
108 99.99
109 7.48
150 51.19
151 4.85

>  <PREDICTED SPECTRUM>  (851) 
14 22
15 35
16 23
17 37
18 49
25 9
26 37
27 128
28 112
29 95
30 41
31 31
32 34
33 48
34 24
36 34
37 104
38 201
39 494
40 196
41 274
42 262
43 256
44 202
45 224
46 117
47 31
48 13
49 20
50 253
51 435
52 248
53 131
54 92
55 99
56 44
57 58
58 136
59 45
60 28
61 55
62 150
63 329
64 371
65 865
66 356
67 126
68 73
69 59
70 108
71 103
73 71
74 54
75 92
76 171
77 641
78 254
79 60
80 51
81 11
89 127
90 119
91 716
92 999
93 633
94 176
97 1
102 22
103 85
104 208
105 316
106 268
107 68
108 79
116 31
117 138
118 230
119 104
120 8
121 19
122 41
130 63
131 106
132 279
133 254
134 106
135 74
147 45
148 44
149 139
150 972
151 319
152 72

$$$$

     RDKit          2D

 17 18  0  0  0  0  0  0  0  0999 V2000
    2.6101    2.9936    0.0000 C   0  0  0  0  0  0  0  0  0  0  0  0
    3.1088    0.0816    0.0000 C   0  0  0  0  0  0  0  0  0  0  0  0
    1.3000   -0.7500    0.0000 C   0  0  0  0  0  0  0  0  0  0  0  0
    0.0300    1.5000    0.0000 C   0  0  0  0  0  0  0  0  0  0  0  0
    4.5942    3.1563    0.0000 C   0  0  0  0  0  0  0  0  0  0  0  0
    5.0181    0.6077    0.0000 C   0  0  0  0  0  0  0  0  0  0  0  0
    0.0300   -1.5000    0.0000 C   0  0  0  0  0  0  0  0  0  0  0  0
   -1.3200    0.7500    0.0000 C   0  0  0  0  0  0  0  0  0  0  0  0
    6.0441    3.4267    0.0000 C   0  0  0  0  0  0  0  0  0  0  0  0
    6.5432    0.8507    0.0000 C   0  0  0  0  0  0  0  0  0  0  0  0
    1.3000    0.7500    0.0000 C   0  0  0  0  0  0  0  0  0  0  0  0
    4.0812    1.7468    0.0000 C   0  0  0  0  0  0  0  0  0  0  0  0
   -1.3200   -0.7500    0.0000 C   0  0  0  0  0  0  0  0  0  0  0  0
    7.0562    2.2602    0.0000 C   0  0  0  0  0  0  0  0  0  0  0  0
    2.6027    1.4936    0.0000 C   0  0  0  0  0  0  0  0  0  0  0  0
   -2.6128   -1.5107    0.0000 O   0  0  0  0  0  0  0  0  0  0  0  0
    8.5312    2.5329    0.0000 O   0  0  0  0  0  0  0  0  0  0  0  0
  7  3  2  0
  8  4  1  0
  9  5  2  0
 10  6  1  0
 11  3  1  0
 11  4  2  0
 12  5  1  0
 12  6  2  0
 13  7  1  0
 13  8  2  0
 14  9  1  0
 14 10  2  0
 15  1  1  0
 15  2  1  0
 15 11  1  0
 15 12  1  0
 16 13  1  0
 17 14  1  0
M  END
>  <NAME>  (852) 
4,4'-ISOPROPYLIDENEDIPHENOL

>  <SYNONYMS>  (852) 


>  <SPECTRUM TYPE>  (852) 
MS1

>  <INSTRUMENT TYPE>  (852) 
EI-B

>  <INSTRUMENT>  (852) 
JEOL JMS-D-3000

>  <ION MODE>  (852) 
P

>  <INCHIKEY>  (852) 
IISBACLAFKSPIT-UHFFFAOYSA-N

>  <FORMULA>  (852) 
C15H16O2

>  <EXACT MASS>  (852) 
228.115029752

>  <MW>  (852) 
228

>  <ID>  (852) 
JP010801

>  <CONTRIBUTOR>  (852) 
University of Tokyo Team, {Faculty of Engineering, University of Tokyo

>  <COMMENT>  (852) 
SMILES=Oc(c2)ccc(c2)C(C)(C)c(c1)ccc(O)c1
InChI=InChI=1S/C15H16O2/c1-15(2,11-3-7-13(16)8-4-11)12-5-9-14(17)10-6-12/h3-10,16-17H,1-2H3
computed SMILES=OC1=CC=C(C=C1)C(C2=CC=C(O)C=C2)(C)C
accession=JP010801
date=2016.01.19 (Created 2008.10.21, modified 2011.05.06)
author=FUJISE Y, HAMAMATSU UNIV. SCHOOL OF MEDICINE
license=CC BY-NC-SA
exact mass=228.11503
ionization energy=70 eV
ion type=[M]+*
computed spectral entropy=2.361905941838745
computed normalized entropy=0.6697857253537156
SPLASH=splash10-03di-2290000000-5a53b16778a578ff5d0d
submitter=submitter = University of Tokyo Team (Faculty of Engineering, University of Tokyo)
MoNA Rating=3.75

>  <NUM PEAKS>  (852) 
34

>  <MASS SPECTRAL PEAKS>  (852) 
41 2.69
51 1.49
55 1.72
63 1.58
65 3.99
76 1.38
77 2.73
82 1.07
84 1.02
90 2.01
91 6.74
94 1.13
95 1.32
97 1.29
99 7.58
100 1.04
106 3.78
107 3.86
114 2.38
115 1.51
119 17.06
120 2.58
135 4.77
152 1.15
165 1.67
169 1.52
197 1.84
198 1.38
212 1.96
213 99.99
214 15.85
215 1.61
228 28.87
229 4.91

>  <PREDICTED SPECTRUM>  (852) 
1 0
27 47
29 22
38 54
39 266
40 114
41 247
42 51
43 126
44 29
45 9
50 135
51 242
52 159
53 211
54 17
55 204
56 3
57 110
58 1
62 83
63 217
64 170
65 327
66 133
67 78
69 79
70 15
71 8
74 73
75 174
76 192
77 381
78 221
79 274
80 89
81 145
82 86
83 87
84 8
87 61
88 2
89 237
90 122
91 605
92 241
93 171
94 171
95 152
96 76
97 25
98 22
99 15
101 114
102 135
103 213
104 136
105 280
106 148
107 546
108 208
109 163
110 77
111 7
112 4
113 70
114 51
115 333
116 174
117 131
118 152
119 613
120 341
121 238
122 132
123 3
124 28
126 77
127 132
128 141
129 40
130 25
131 88
132 146
133 131
134 454
135 610
136 171
137 52
139 123
140 1
141 77
142 10
144 89
145 52
146 22
147 52
148 3
150 4
151 148
152 272
153 160
154 32
155 68
156 63
157 130
158 49
160 12
165 320
166 123
168 97
169 117
170 106
171 128
172 33
176 40
178 26
181 31
182 62
183 112
184 13
185 111
186 52
189 39
194 22
195 64
196 71
197 147
198 187
199 142
209 5
211 179
212 46
213 999
214 407
215 178
216 54
227 27
228 586
229 262
230 85

$$$$

     RDKit          2D

  9  9  0  0  0  0  0  0  0  0999 V2000
   -2.5633    1.1076    0.0000 C   0  0  0  0  0  0  0  0  0  0  0  0
    2.6328   -1.8924    0.0000 C   0  0  0  0  0  0  0  0  0  0  0  0
   -1.2648   -1.1433    0.0000 C   0  0  0  0  0  0  0  0  0  0  0  0
    0.0342   -1.8933    0.0000 C   0  0  0  0  0  0  0  0  0  0  0  0
    0.0352    1.1084    0.0000 C   0  0  0  0  0  0  0  0  0  0  0  0
   -1.2643    0.3576    0.0000 C   0  0  0  0  0  0  0  0  0  0  0  0
    1.3338   -1.1424    0.0000 C   0  0  0  0  0  0  0  0  0  0  0  0
    1.3342    0.3584    0.0000 C   0  0  0  0  0  0  0  0  0  0  0  0
    2.6334    1.1082    0.0000 O   0  0  0  0  0  0  0  0  0  0  0  0
  4  3  2  0
  6  1  1  0
  6  3  1  0
  6  5  2  0
  7  2  1  0
  7  4  1  0
  8  5  1  0
  8  7  2  0
  9  8  1  0
M  END
>  <NAME>  (853) 
2,5-DIMETHYLPHENOL

>  <SYNONYMS>  (853) 


>  <SPECTRUM TYPE>  (853) 
MS1

>  <INSTRUMENT TYPE>  (853) 
EI-B

>  <INSTRUMENT>  (853) 
JEOL JMS-D-3000

>  <ION MODE>  (853) 
P

>  <INCHIKEY>  (853) 
NKTOLZVEWDHZMU-UHFFFAOYSA-N

>  <FORMULA>  (853) 
C8H10O

>  <EXACT MASS>  (853) 
122.07316494

>  <MW>  (853) 
122

>  <ID>  (853) 
JP010800

>  <CONTRIBUTOR>  (853) 
University of Tokyo Team, {Faculty of Engineering, University of Tokyo

>  <COMMENT>  (853) 
SMILES=Cc(c1)cc(O)c(C)c1
InChI=InChI=1S/C8H10O/c1-6-3-4-7(2)8(9)5-6/h3-5,9H,1-2H3
computed SMILES=OC1=CC(=CC=C1C)C
accession=JP010800
date=2016.01.19 (Created 2008.10.21, modified 2011.05.06)
author=FUJISE Y, HAMAMATSU UNIV. SCHOOL OF MEDICINE
license=CC BY-NC-SA
exact mass=122.07316
ionization energy=70 eV
ion type=[M]+*
computed spectral entropy=2.4843387573619564
computed normalized entropy=0.7105200585695267
SPLASH=splash10-00di-3900000000-2d64127f5ece7e1ccc6f
submitter=submitter = University of Tokyo Team (Faculty of Engineering, University of Tokyo)
MoNA Rating=3.75

>  <NUM PEAKS>  (853) 
33

>  <MASS SPECTRAL PEAKS>  (853) 
41 2.77
43 1.97
44 4.81
45 1.19
46 1.22
50 3
51 7.95
52 2.79
53 4.41
55 1.56
59 1.25
60 3.77
61 3
62 1.16
63 2.37
65 4.35
66 1.13
77 16.97
78 5.88
79 9.1
80 1.08
91 9.85
92 1.53
93 2.71
94 1.56
103 5.3
104 6.1
105 3.26
107 68.14
108 5.41
121 40.51
122 99.99
123 8.5

>  <PREDICTED SPECTRUM>  (853) 
14 24
15 110
16 10
18 11
25 4
26 106
27 289
28 119
29 128
34 2
37 91
38 175
39 464
40 164
41 277
42 34
43 57
44 70
45 38
46 5
49 41
50 270
51 445
52 284
53 332
54 99
55 229
56 70
57 91
58 38
59 67
60 31
61 161
62 143
63 234
64 132
65 325
66 195
67 165
68 47
69 96
70 40
73 95
74 191
75 195
76 101
77 587
78 411
79 432
80 142
81 82
82 36
83 42
86 53
87 68
89 123
90 4
91 420
92 132
93 377
94 229
95 210
96 32
102 109
103 197
104 182
105 149
106 45
107 532
108 209
109 9
119 52
120 55
121 509
122 999
123 331
124 50

$$$$

     RDKit          2D

 11 11  0  0  0  0  0  0  0  0999 V2000
    2.8443    1.6288    0.0000 C   0  0  0  0  0  0  0  0  0  0  0  0
   -2.3064   -1.3657    0.0000 C   0  0  0  0  0  0  0  0  0  0  0  0
    0.2692   -2.8359    0.0000 C   0  0  0  0  0  0  0  0  0  0  0  0
    0.2500    1.6224    0.0000 C   0  0  0  0  0  0  0  0  0  0  0  0
    1.5490    0.8724    0.0000 C   0  0  0  0  0  0  0  0  0  0  0  0
   -1.0250   -0.5859    0.0000 C   0  0  0  0  0  0  0  0  0  0  0  0
    0.2740   -1.3359    0.0000 C   0  0  0  0  0  0  0  0  0  0  0  0
   -1.0952    0.9326    0.0000 C   0  0  0  0  0  0  0  0  0  0  0  0
    1.5635   -0.6024    0.0000 C   0  0  0  0  0  0  0  0  0  0  0  0
   -2.3929    1.6849    0.0000 O   0  0  0  0  0  0  0  0  0  0  0  0
    2.8638   -1.3502    0.0000 O   0  0  0  0  0  0  0  0  0  0  0  0
  5  1  1  0
  5  4  2  0
  6  2  1  0
  7  3  1  0
  7  6  1  0
  8  4  1  0
  8  6  2  0
  9  5  1  0
  9  7  2  0
 10  8  1  0
 11  9  1  0
M  END
>  <NAME>  (854) 
TRIMETHYLHYDROQUINONE

>  <SYNONYMS>  (854) 


>  <SPECTRUM TYPE>  (854) 
MS1

>  <INSTRUMENT TYPE>  (854) 
EI-B

>  <INSTRUMENT>  (854) 
JEOL JMS-D-300

>  <ION MODE>  (854) 
P

>  <INCHIKEY>  (854) 
AUFZRCJENRSRLY-UHFFFAOYSA-N

>  <FORMULA>  (854) 
C9H12O2

>  <EXACT MASS>  (854) 
152.083729624

>  <MW>  (854) 
152

>  <ID>  (854) 
JP010799

>  <CONTRIBUTOR>  (854) 
University of Tokyo Team, {Faculty of Engineering, University of Tokyo

>  <COMMENT>  (854) 
SMILES=Cc(c1)c(O)c(C)c(C)c(O)1
InChI=InChI=1S/C9H12O2/c1-5-4-8(10)6(2)7(3)9(5)11/h4,10-11H,1-3H3
computed SMILES=OC=1C=C(C(O)=C(C1C)C)C
accession=JP010799
date=2016.01.19 (Created 2008.10.21, modified 2011.05.06)
author=FUJISE Y, HAMAMATSU UNIV. SCHOOL OF MEDICINE
license=CC BY-NC-SA
exact mass=152.08373
ionization energy=70 eV
ion type=[M]+*
computed spectral entropy=3.1210436280153995
computed normalized entropy=0.8019495734503933
SPLASH=splash10-0udi-4900000000-53197de66212fda82cde
submitter=submitter = University of Tokyo Team (Faculty of Engineering, University of Tokyo)
MoNA Rating=3.75

>  <NUM PEAKS>  (854) 
49

>  <MASS SPECTRAL PEAKS>  (854) 
41 5.11
43 6.08
50 2.91
51 6.68
52 3.69
53 9.17
54 10.75
55 3.77
62 1.15
63 1.89
65 3.2
66 2.35
67 5.31
68 17.33
69 5.94
75 1.25
76 5.1
77 8.18
78 2.27
79 16.38
80 1.88
81 2.69
82 3.38
83 1.43
91 6.42
93 3.89
94 3.93
95 1.98
96 8.37
103 1.01
105 1.85
107 19.27
108 3.52
109 8.56
110 2.06
119 2.28
121 6.97
122 11.59
123 5.32
124 1.19
133 2.74
134 1.62
135 6.9
137 50.64
138 4.75
150 56.87
151 29.63
152 99.99
153 10.34

>  <PREDICTED SPECTRUM>  (854) 
18 9
26 29
27 176
28 47
29 79
38 38
39 279
40 100
41 223
42 22
43 106
50 119
51 267
52 136
53 295
54 93
55 229
56 14
62 36
63 136
64 51
65 243
66 137
67 229
68 32
69 204
74 12
75 15
77 381
78 125
79 256
80 57
81 179
82 56
83 52
89 23
91 402
92 55
93 151
94 85
95 136
96 53
97 55
103 53
105 132
106 63
107 281
108 192
109 304
110 22
115 117
116 5
117 0
118 8
119 51
121 94
122 115
123 221
124 134
125 79
133 28
134 76
135 221
136 157
137 893
138 282
139 54
150 100
151 588
152 999
153 328
154 57

$$$$

     RDKit          2D

 17 19  0  0  0  0  0  0  0  0999 V2000
    5.0771    4.9800    0.0000 C   0  0  0  0  0  0  0  0  0  0  0  0
    5.0776    3.4792    0.0000 C   0  0  0  0  0  0  0  0  0  0  0  0
    3.7776    5.7308    0.0000 C   0  0  0  0  0  0  0  0  0  0  0  0
   -2.7200   -1.0200    0.0000 C   0  0  0  0  0  0  0  0  0  0  0  0
   -2.7200    0.4800    0.0000 C   0  0  0  0  0  0  0  0  0  0  0  0
    2.4800   -1.0200    0.0000 C   0  0  0  0  0  0  0  0  0  0  0  0
   -1.4200   -1.7700    0.0000 C   0  0  0  0  0  0  0  0  0  0  0  0
    1.1800   -1.7700    0.0000 C   0  0  0  0  0  0  0  0  0  0  0  0
    3.7786    2.7292    0.0000 C   0  0  0  0  0  0  0  0  0  0  0  0
    2.4786    4.9808    0.0000 C   0  0  0  0  0  0  0  0  0  0  0  0
   -1.4200    1.2300    0.0000 C   0  0  0  0  0  0  0  0  0  0  0  0
    2.4800    0.4800    0.0000 C   0  0  0  0  0  0  0  0  0  0  0  0
   -0.1200   -1.0200    0.0000 C   0  0  0  0  0  0  0  0  0  0  0  0
    2.4790    3.4800    0.0000 C   0  0  0  0  0  0  0  0  0  0  0  0
   -0.1200    0.4800    0.0000 C   0  0  0  0  0  0  0  0  0  0  0  0
    1.1800    1.2300    0.0000 C   0  0  0  0  0  0  0  0  0  0  0  0
    1.1800    2.7300    0.0000 N   0  0  0  0  0  0  0  0  0  0  0  0
  2  1  2  0
  3  1  1  0
  5  4  2  0
  7  4  1  0
  8  6  2  0
  9  2  1  0
 10  3  2  0
 11  5  1  0
 12  6  1  0
 13  7  2  0
 13  8  1  0
 14  9  2  0
 14 10  1  0
 15 11  2  0
 15 13  1  0
 16 12  2  0
 16 15  1  0
 17 14  1  0
 17 16  1  0
M  END
>  <NAME>  (855) 
N-PHENYL-1-NAPHTHYLAMINE

>  <SYNONYMS>  (855) 


>  <SPECTRUM TYPE>  (855) 
MS1

>  <INSTRUMENT TYPE>  (855) 
EI-B

>  <INSTRUMENT>  (855) 
JEOL JMS-D-300

>  <ION MODE>  (855) 
P

>  <INCHIKEY>  (855) 
XQVWYOYUZDUNRW-UHFFFAOYSA-N

>  <FORMULA>  (855) 
C16H13N

>  <EXACT MASS>  (855) 
219.104799416

>  <MW>  (855) 
219

>  <ID>  (855) 
JP010798

>  <CONTRIBUTOR>  (855) 
University of Tokyo Team, {Faculty of Engineering, University of Tokyo

>  <COMMENT>  (855) 
SMILES=c(c3)ccc(c3)Nc(c1)c(c2)c(ccc2)cc1
InChI=InChI=1S/C16H13N/c1-2-9-14(10-3-1)17-16-12-6-8-13-7-4-5-11-15(13)16/h1-12,17H
computed SMILES=C=1C=CC(=CC1)NC2=CC=CC=3C=CC=CC32
accession=JP010798
date=2016.01.19 (Created 2008.10.21, modified 2011.05.06)
author=FUJISE Y, HAMAMATSU UNIV. SCHOOL OF MEDICINE
license=CC BY-NC-SA
exact mass=219.1048
ionization energy=70 eV
ion type=[M]+*
computed spectral entropy=2.609734352567045
computed normalized entropy=0.7027558118410535
SPLASH=splash10-014i-1290000000-300b902435855ba1e24f
submitter=submitter = University of Tokyo Team (Faculty of Engineering, University of Tokyo)
MoNA Rating=3.75

>  <NUM PEAKS>  (855) 
41

>  <MASS SPECTRAL PEAKS>  (855) 
51 3.43
63 2.09
65 1.28
75 1.82
77 3.8
82 1.66
88 1.04
89 1.73
94 2.16
95 4.51
96 4.72
97 1.97
101 1.54
102 3.75
108 6.39
109 31.71
110 8.64
114 1.02
115 8.75
116 3.05
126 2.06
127 3.36
128 1.31
140 1.57
153 2.13
163 1.04
165 1.37
188 1.09
189 4.03
190 2.41
191 1.69
203 1.04
204 3.12
214 3.06
215 3.7
216 16.68
217 72.66
218 49.51
219 99.99
220 17.4
221 1.59

>  <PREDICTED SPECTRUM>  (855) 
27 27
38 22
39 148
40 18
41 40
44 84
50 69
51 209
52 52
55 55
56 10
57 62
62 31
63 115
64 56
65 113
66 16
69 66
70 21
71 16
74 55
75 93
76 59
77 227
78 64
81 32
82 62
83 89
84 59
85 4
87 41
88 25
89 116
90 47
91 11
92 3
93 53
94 43
95 74
96 68
97 16
99 8
101 78
102 44
108 77
109 99
110 59
111 8
113 52
114 49
115 264
116 104
117 13
126 15
127 109
128 79
139 38
140 41
141 56
142 69
163 9
189 76
190 91
191 117
192 37
203 49
204 63
215 76
216 307
217 522
218 784
219 999
220 406
221 103

$$$$

     RDKit          2D

 10 10  0  0  0  0  0  0  0  0999 V2000
    2.9118   -0.1743    0.0000 C   0  0  0  0  0  0  0  0  0  0  0  0
    2.9163    1.3179    0.0000 C   0  0  0  0  0  0  0  0  0  0  0  0
    1.6128   -0.9243    0.0000 C   0  0  0  0  0  0  0  0  0  0  0  0
    1.6168    2.0687    0.0000 C   0  0  0  0  0  0  0  0  0  0  0  0
    0.3183   -0.1821    0.0000 C   0  0  0  0  0  0  0  0  0  0  0  0
    0.3178    1.3187    0.0000 C   0  0  0  0  0  0  0  0  0  0  0  0
   -0.9795   -0.9343    0.0000 C   0  0  0  0  0  0  0  0  0  0  0  0
   -2.2798   -0.1865    0.0000 O   0  0  0  0  0  0  0  0  0  0  0  0
   -0.9770   -2.4343    0.0000 O   0  0  0  0  0  0  0  0  0  0  0  0
   -0.9814    2.0685    0.0000 S   0  0  0  0  0  0  0  0  0  0  0  0
  2  1  2  0
  3  1  1  0
  4  2  1  0
  5  3  2  0
  6  4  2  0
  6  5  1  0
  7  5  1  0
  8  7  2  0
  9  7  1  0
 10  6  1  0
M  END
>  <NAME>  (856) 
2-MERCAPTOBENZOIC ACID

>  <SYNONYMS>  (856) 


>  <SPECTRUM TYPE>  (856) 
MS1

>  <INSTRUMENT TYPE>  (856) 
EI-B

>  <INSTRUMENT>  (856) 
JEOL JMS-D-300

>  <ION MODE>  (856) 
P

>  <INCHIKEY>  (856) 
NBOMNTLFRHMDEZ-UHFFFAOYSA-N

>  <FORMULA>  (856) 
C7H6O2S

>  <EXACT MASS>  (856) 
154.008850432

>  <MW>  (856) 
154

>  <ID>  (856) 
JP010797

>  <CONTRIBUTOR>  (856) 
University of Tokyo Team, {Faculty of Engineering, University of Tokyo

>  <COMMENT>  (856) 
SMILES=OC(=O)c(c1)c(S)ccc1
InChI=InChI=1S/C7H6O2S/c8-7(9)5-3-1-2-4-6(5)10/h1-4,10H,(H,8,9)
computed SMILES=O=C(O)C=1C=CC=CC1S
accession=JP010797
date=2016.01.19 (Created 2008.10.21, modified 2011.05.06)
author=FUJISE Y, HAMAMATSU UNIV. SCHOOL OF MEDICINE
license=CC BY-NC-SA
exact mass=154.00885
ionization energy=70 eV
ion type=[M]+*
computed spectral entropy=2.7875025329732344
computed normalized entropy=0.7608722882875683
SPLASH=splash10-0f79-3900000000-c33ea8ac6d06dc88ef5c
submitter=submitter = University of Tokyo Team (Faculty of Engineering, University of Tokyo)
MoNA Rating=3.75

>  <NUM PEAKS>  (856) 
39

>  <MASS SPECTRAL PEAKS>  (856) 
44 2.32
45 4.39
50 5.4
51 2.41
53 1.5
54 7.17
58 3.44
61 1.25
62 1.78
63 4.11
64 1.58
65 4.71
68 5.08
69 12.37
70 3.71
71 1.35
74 2.68
75 2.29
76 6
77 2.46
81 1.78
82 4.49
92 3.04
95 1.66
96 9.13
97 2.1
104 5.2
105 1.48
108 36.64
109 6.95
110 2.2
136 99.99
137 9.32
138 5.23
152 30.83
153 5.27
154 25.45
155 2.15
156 1.32

>  <PREDICTED SPECTRUM>  (856) 
18 0
25 31
26 64
27 117
32 21
34 8
36 1
37 167
38 210
39 297
40 22
44 173
45 581
46 21
47 43
48 5
49 130
50 450
51 404
52 221
53 283
54 106
55 11
57 269
58 430
59 41
60 59
61 189
62 199
63 402
64 204
65 243
67 41
68 128
69 463
70 201
73 38
74 311
75 250
76 332
77 400
78 110
79 94
80 69
81 297
82 316
83 78
84 69
90 56
91 24
92 126
93 139
96 64
97 217
105 186
106 111
107 135
108 810
109 485
110 276
111 55
134 62
135 4
136 999
137 498
138 230
139 2
154 693
155 164
156 109

$$$$

     RDKit          2D

  4  3  0  0  0  0  0  0  0  0999 V2000
    0.9743    0.5625    0.0000 C   0  0  0  0  0  0  0  0  0  0  0  0
   -0.3248    1.3125    0.0000 C   0  0  0  0  0  0  0  0  0  0  0  0
   -1.6238    0.5625    0.0000 N   0  0  0  0  0  0  0  0  0  0  0  0
   -0.3248    2.8125    0.0000 S   0  0  0  0  0  0  0  0  0  0  0  0
  2  1  1  0
  3  2  2  0
  4  2  1  0
M  END
>  <NAME>  (857) 
THIOACETAMIDE

>  <SYNONYMS>  (857) 
ETHANETHIOAMIDE

>  <SPECTRUM TYPE>  (857) 
MS1

>  <INSTRUMENT TYPE>  (857) 
EI-B

>  <INSTRUMENT>  (857) 
JEOL JMS-D-300

>  <ION MODE>  (857) 
P

>  <INCHIKEY>  (857) 
YUKQRDCYNOVPGJ-UHFFFAOYSA-N

>  <FORMULA>  (857) 
C2H5NS

>  <EXACT MASS>  (857) 
75.01427016

>  <MW>  (857) 
75

>  <ID>  (857) 
JP010796

>  <CONTRIBUTOR>  (857) 
University of Tokyo Team, {Faculty of Engineering, University of Tokyo

>  <COMMENT>  (857) 
SMILES=CC(N)=S
InChI=InChI=1S/C2H5NS/c1-2(3)4/h1H3,(H2,3,4)
computed SMILES=N=C(S)C
accession=JP010796
date=2016.01.19 (Created 2008.10.21, modified 2011.05.06)
author=FUJISE Y, HAMAMATSU UNIV. SCHOOL OF MEDICINE
license=CC BY-NC-SA
exact mass=75.01427
ionization energy=70 eV
ion type=[M]+*
computed spectral entropy=1.9927264923258978
computed normalized entropy=0.6894360515674143
SPLASH=splash10-004l-9000000000-609a2df4de711d8cf906
submitter=submitter = University of Tokyo Team (Faculty of Engineering, University of Tokyo)
MoNA Rating=3.75

>  <NUM PEAKS>  (857) 
18

>  <MASS SPECTRAL PEAKS>  (857) 
41 36.17
42 24.3
43 1.51
45 4
46 1.39
47 1.34
48 1.07
57 2.14
58 6.92
59 14.74
60 34.43
61 1.43
62 1.54
64 13.74
66 1.18
75 99.99
76 3.5
77 4.54

>  <PREDICTED SPECTRUM>  (857) 
14 99
15 204
16 42
17 25
18 20
25 46
26 186
27 429
28 284
29 197
30 67
31 96
32 90
33 463
34 120
35 85
37 59
38 29
39 117
40 290
41 661
42 727
43 999
44 227
45 396
46 201
47 178
48 137
49 16
51 25
56 0
58 145
59 159
60 362
61 138
74 156
75 774
76 217
77 160

$$$$

     RDKit          2D

 11 11  0  0  0  0  0  0  0  0999 V2000
   -0.3325    2.4400    0.0000 C   0  0  0  0  0  0  0  0  0  0  0  0
   -1.6200   -1.3100    0.0000 C   0  0  0  0  0  0  0  0  0  0  0  0
   -0.3300   -2.0600    0.0000 C   0  0  0  0  0  0  0  0  0  0  0  0
   -1.6200    0.1900    0.0000 C   0  0  0  0  0  0  0  0  0  0  0  0
    0.9700   -1.3100    0.0000 C   0  0  0  0  0  0  0  0  0  0  0  0
   -0.3300    0.9400    0.0000 C   0  0  0  0  0  0  0  0  0  0  0  0
    0.9700    0.1900    0.0000 C   0  0  0  0  0  0  0  0  0  0  0  0
    3.0191   -0.3587    0.0000 N   0  0  0  0  0  0  0  0  0  0  0  0
    3.5678    1.6904    0.0000 O   0  0  0  0  0  0  0  0  0  0  0  0
    1.5187    2.2391    0.0000 O   0  0  0  0  0  0  0  0  0  0  0  0
    2.2689    0.9402    0.0000 S   0  0  0  0  0  0  0  0  0  0  0  0
  3  2  2  0
  4  2  1  0
  5  3  1  0
  6  1  1  0
  6  4  2  0
  7  5  2  0
  7  6  1  0
 11  7  1  0
 11  8  1  0
 11  9  2  0
 11 10  2  0
M  END
>  <NAME>  (858) 
ORTHO-TOLUENESULFONAMIDE

>  <SYNONYMS>  (858) 


>  <SPECTRUM TYPE>  (858) 
MS1

>  <INSTRUMENT TYPE>  (858) 
EI-B

>  <INSTRUMENT>  (858) 
JEOL JMS-D-300

>  <ION MODE>  (858) 
P

>  <INCHIKEY>  (858) 
YCMLQMDWSXFTIF-UHFFFAOYSA-N

>  <FORMULA>  (858) 
C7H9NO2S

>  <EXACT MASS>  (858) 
171.035399528

>  <MW>  (858) 
171

>  <ID>  (858) 
JP010795

>  <CONTRIBUTOR>  (858) 
University of Tokyo Team, {Faculty of Engineering, University of Tokyo

>  <COMMENT>  (858) 
SMILES=Cc(c1)c(ccc1)S(N)(=O)=O
InChI=InChI=1S/C7H9NO2S/c1-6-4-2-3-5-7(6)11(8,9)10/h2-5H,1H3,(H2,8,9,10)
computed SMILES=O=S(=O)(N)C=1C=CC=CC1C
accession=JP010795
date=2016.01.19 (Created 2008.10.21, modified 2011.05.06)
author=FUJISE Y, HAMAMATSU UNIV. SCHOOL OF MEDICINE
license=CC BY-NC-SA
exact mass=171.0354
ionization energy=70 eV
ion type=[M]+*
computed spectral entropy=2.6615134354412664
computed normalized entropy=0.7370739240904752
SPLASH=splash10-0006-9400000000-d46a6ace1b3589e48012
submitter=submitter = University of Tokyo Team (Faculty of Engineering, University of Tokyo)
MoNA Rating=3.75

>  <NUM PEAKS>  (858) 
37

>  <MASS SPECTRAL PEAKS>  (858) 
41 2.81
48 1.2
50 4.31
51 7.36
52 1.98
53 1.18
62 3.17
63 10.66
64 3.46
65 26.32
66 1.75
69 1.04
74 1.26
75 1.4
76 3.59
77 6.84
78 4.11
79 2.72
89 19.78
90 99.99
91 75.17
92 6.09
103 1.68
106 61.59
107 15.46
108 3.39
109 1.85
119 1.87
136 2.02
137 15.21
138 1.59
154 10.96
155 2.65
167 1.97
171 31.65
172 2.84
173 1.64

>  <PREDICTED SPECTRUM>  (858) 
15 29
16 32
17 30
18 11
26 54
27 160
28 94
31 55
32 130
33 23
34 31
37 85
38 187
39 565
40 97
41 123
43 4
44 104
45 148
48 175
49 51
50 388
51 589
52 424
53 339
54 69
61 76
62 238
63 514
64 370
65 765
66 311
67 69
74 153
75 218
76 166
77 792
78 662
79 450
80 312
81 79
87 27
89 592
90 524
91 999
92 486
93 190
94 27
97 106
104 225
105 325
106 660
107 488
108 365
122 167
123 112
136 48
137 42
138 18
139 220
140 14
153 198
154 779
155 438
156 308
157 48
170 73
171 952
172 351
173 187

$$$$

     RDKit          2D

 10 10  0  0  0  0  0  0  0  0999 V2000
    0.0008   -2.2500    0.0000 C   0  0  0  0  0  0  0  0  0  0  0  0
   -1.2992    0.0000    0.0000 C   0  0  0  0  0  0  0  0  0  0  0  0
   -1.2992   -3.0000    0.0000 C   0  0  0  0  0  0  0  0  0  0  0  0
   -2.5992   -0.7500    0.0000 C   0  0  0  0  0  0  0  0  0  0  0  0
    0.0008   -0.7500    0.0000 C   0  0  0  0  0  0  0  0  0  0  0  0
   -2.5992   -2.2500    0.0000 C   0  0  0  0  0  0  0  0  0  0  0  0
    1.2998    0.0002    0.0000 N   0  0  0  0  0  0  0  0  0  0  0  0
   -3.8981   -3.0002    0.0000 O   0  0  0  0  0  0  0  0  0  0  0  0
    2.5989   -0.7496    0.0000 O   0  0  0  0  0  0  0  0  0  0  0  0
    1.2995    1.5002    0.0000 O   0  0  0  0  0  0  0  0  0  0  0  0
  3  1  2  0
  4  2  1  0
  5  1  1  0
  5  2  2  0
  6  3  1  0
  6  4  2  0
  7  5  1  0
  8  6  1  0
  9  7  1  0
 10  7  2  0
M  CHG  2   7   1   9  -1
M  END
>  <NAME>  (859) 
4-NITROPHENOL

>  <SYNONYMS>  (859) 


>  <SPECTRUM TYPE>  (859) 
MS1

>  <INSTRUMENT TYPE>  (859) 
EI-B

>  <INSTRUMENT>  (859) 
JEOL JMS-D-300

>  <ION MODE>  (859) 
P

>  <INCHIKEY>  (859) 
BTJIUGUIPKRLHP-UHFFFAOYSA-N

>  <FORMULA>  (859) 
C6H5NO3

>  <EXACT MASS>  (859) 
139.02694302

>  <MW>  (859) 
139

>  <ID>  (859) 
JP010794

>  <CONTRIBUTOR>  (859) 
University of Tokyo Team, {Faculty of Engineering, University of Tokyo

>  <COMMENT>  (859) 
SMILES=Oc(c1)ccc(c1)[N+1]([O-1])=O
InChI=InChI=1S/C6H5NO3/c8-6-3-1-5(2-4-6)7(9)10/h1-4,8H
computed SMILES=O=N(=O)C1=CC=C(O)C=C1
accession=JP010794
date=2016.01.19 (Created 2008.10.21, modified 2011.05.06)
author=FUJISE Y, HAMAMATSU UNIV. SCHOOL OF MEDICINE
license=CC BY-NC-SA
exact mass=139.02694
ionization energy=70 eV
ion type=[M]+*
computed spectral entropy=2.564252611946927
computed normalized entropy=0.7398869053684807
SPLASH=splash10-00kr-9800000000-922ed2e0967364251838
submitter=submitter = University of Tokyo Team (Faculty of Engineering, University of Tokyo)
MoNA Rating=3.75

>  <NUM PEAKS>  (859) 
32

>  <MASS SPECTRAL PEAKS>  (859) 
40 4.66
43 1.31
50 4.3
51 5.1
52 6.82
53 10.96
54 2.19
55 1.47
57 1.83
61 2.55
62 5.34
63 11.36
64 6.3
65 53.53
66 4.38
74 2.59
75 1.99
79 1.75
80 1.39
81 10.25
92 1.59
93 19.9
94 1.47
105 1.75
107 9.25
108 1.79
109 15.47
110 1.83
123 4.82
135 3.51
139 99.99
140 7.06

>  <PREDICTED SPECTRUM>  (859) 
14 12
15 24
16 20
17 20
18 53
25 52
26 131
27 182
28 105
29 237
30 296
31 173
36 37
37 253
38 351
39 475
40 112
41 129
42 14
44 40
46 50
49 60
50 376
51 212
52 207
53 377
54 179
55 143
61 151
62 291
63 668
64 400
65 722
66 287
67 42
69 6
73 68
74 65
75 188
76 44
80 190
81 421
82 107
83 27
92 369
93 498
94 94
109 686
110 127
123 150
139 999
140 277
141 98

$$$$

     RDKit          2D

 11 11  0  0  0  0  0  0  0  0999 V2000
   -3.5376   -0.2051    0.0000 C   0  0  0  0  0  0  0  0  0  0  0  0
   -2.2386   -2.4551    0.0000 C   0  0  0  0  0  0  0  0  0  0  0  0
    2.9576    2.0449    0.0000 C   0  0  0  0  0  0  0  0  0  0  0  0
    0.3590    2.0458    0.0000 C   0  0  0  0  0  0  0  0  0  0  0  0
   -0.9400    1.2958    0.0000 C   0  0  0  0  0  0  0  0  0  0  0  0
    1.6590   -0.2059    0.0000 C   0  0  0  0  0  0  0  0  0  0  0  0
   -2.2386   -0.9551    0.0000 C   0  0  0  0  0  0  0  0  0  0  0  0
    1.6585    1.2949    0.0000 C   0  0  0  0  0  0  0  0  0  0  0  0
   -0.9395   -0.2051    0.0000 C   0  0  0  0  0  0  0  0  0  0  0  0
    0.3600   -0.9559    0.0000 C   0  0  0  0  0  0  0  0  0  0  0  0
    0.3597   -2.4559    0.0000 O   0  0  0  0  0  0  0  0  0  0  0  0
  5  4  2  0
  7  1  1  0
  7  2  1  0
  8  3  1  0
  8  4  1  0
  8  6  2  0
  9  5  1  0
  9  7  1  0
 10  6  1  0
 10  9  2  0
 11 10  1  0
M  END
>  <NAME>  (860) 
THYMOL

>  <SYNONYMS>  (860) 
5-METHYL-2-(1-METHYLETHYL)PHENOL

>  <SPECTRUM TYPE>  (860) 
MS1

>  <INSTRUMENT TYPE>  (860) 
EI-B

>  <INSTRUMENT>  (860) 
JEOL JMS-D-300

>  <ION MODE>  (860) 
P

>  <INCHIKEY>  (860) 
MGSRCZKZVOBKFT-UHFFFAOYSA-N

>  <FORMULA>  (860) 
C10H14O

>  <EXACT MASS>  (860) 
150.104465068

>  <MW>  (860) 
150

>  <ID>  (860) 
JP010793

>  <CONTRIBUTOR>  (860) 
University of Tokyo Team, {Faculty of Engineering, University of Tokyo

>  <COMMENT>  (860) 
SMILES=CC(C)c(c1)c(O)cc(C)c1
InChI=InChI=1S/C10H14O/c1-7(2)9-5-4-8(3)6-10(9)11/h4-7,11H,1-3H3
computed SMILES=OC1=CC(=CC=C1C(C)C)C
accession=JP010793
date=2016.01.19 (Created 2008.10.21, modified 2011.05.06)
author=FUJISE Y, HAMAMATSU UNIV. SCHOOL OF MEDICINE
license=CC BY-NC-SA
exact mass=150.10447
ionization energy=70 eV
ion type=[M]+*
computed spectral entropy=2.2643777885842584
computed normalized entropy=0.6533613212579255
SPLASH=splash10-000i-2900000000-0bfe5d4a8168912cbcc8
submitter=submitter = University of Tokyo Team (Faculty of Engineering, University of Tokyo)
MoNA Rating=3.75

>  <NUM PEAKS>  (860) 
32

>  <MASS SPECTRAL PEAKS>  (860) 
42 2.63
51 3.31
52 1.16
53 1.89
63 1.55
65 2.95
66 1.68
67 1.7
68 2.63
74 1.05
77 4.4
78 1.61
79 2.45
91 10.65
92 1.19
102 1.21
103 1.19
105 2.9
107 2.95
115 7.07
116 2.54
117 8.02
121 1.7
133 1.57
134 2
135 99.99
136 9.65
145 1.27
146 1.37
148 1.07
150 30.55
151 3.31

>  <PREDICTED SPECTRUM>  (860) 
14 23
15 76
16 20
17 16
18 36
26 63
27 214
28 117
29 107
31 12
32 6
33 3
34 6
36 0
37 57
38 120
39 344
40 160
41 302
42 90
43 124
44 58
45 34
50 143
51 266
52 180
53 234
54 76
55 117
56 19
57 27
58 80
59 49
60 54
61 19
62 93
63 182
64 135
65 255
66 141
67 157
68 27
69 52
70 11
72 42
73 56
74 113
75 106
76 52
77 336
78 199
79 264
80 101
81 85
82 33
86 9
87 20
88 18
89 99
90 50
91 411
92 147
93 165
94 73
95 67
97 8
101 15
102 112
103 163
104 74
105 290
106 101
107 413
108 209
109 100
110 4
115 259
116 152
117 216
118 82
119 162
120 103
121 140
122 41
123 59
128 52
129 5
131 89
132 7
133 186
134 119
135 999
136 339
137 89
147 31
148 51
149 151
150 631
151 209
152 49

$$$$

     RDKit          2D

  8  8  0  0  0  0  0  0  0  0999 V2000
    0.6513   -2.2440    0.0000 C   0  0  0  0  0  0  0  0  0  0  0  0
    1.9458   -1.5018    0.0000 C   0  0  0  0  0  0  0  0  0  0  0  0
   -0.6478   -1.4940    0.0000 C   0  0  0  0  0  0  0  0  0  0  0  0
    1.9463   -0.0009    0.0000 C   0  0  0  0  0  0  0  0  0  0  0  0
   -0.6523   -0.0018    0.0000 C   0  0  0  0  0  0  0  0  0  0  0  0
    0.6472    0.7491    0.0000 C   0  0  0  0  0  0  0  0  0  0  0  0
   -1.9526    0.7460    0.0000 N   0  0  0  0  0  0  0  0  0  0  0  0
    0.6470    2.2491    0.0000 N   0  0  0  0  0  0  0  0  0  0  0  0
  2  1  2  0
  3  1  1  0
  4  2  1  0
  5  3  2  0
  6  4  2  0
  6  5  1  0
  7  5  1  0
  8  6  1  0
M  END
>  <NAME>  (861) 
ORTHO-PHENYLENEDIAMINE

>  <SYNONYMS>  (861) 


>  <SPECTRUM TYPE>  (861) 
MS1

>  <INSTRUMENT TYPE>  (861) 
EI-B

>  <INSTRUMENT>  (861) 
JEOL JMS-D-300

>  <ION MODE>  (861) 
P

>  <INCHIKEY>  (861) 
GEYOCULIXLDCMW-UHFFFAOYSA-N

>  <FORMULA>  (861) 
C6H8N2

>  <EXACT MASS>  (861) 
108.06874825599999

>  <MW>  (861) 
108

>  <ID>  (861) 
JP010792

>  <CONTRIBUTOR>  (861) 
University of Tokyo Team, {Faculty of Engineering, University of Tokyo

>  <COMMENT>  (861) 
SMILES=Nc(c1)c(N)ccc1
InChI=InChI=1S/C6H8N2/c7-5-3-1-2-4-6(5)8/h1-4H,7-8H2
computed SMILES=NC=1C=CC=CC1N
accession=JP010792
date=2016.01.19 (Created 2008.10.21, modified 2011.05.06)
author=FUJISE Y, HAMAMATSU UNIV. SCHOOL OF MEDICINE
license=CC BY-NC-SA
exact mass=108.06875
ionization energy=70 eV
ion type=[M]+*
computed spectral entropy=2.418701038782297
computed normalized entropy=0.7338655209942421
SPLASH=splash10-0a4i-7900000000-b90823665900ff559f6d
submitter=submitter = University of Tokyo Team (Faculty of Engineering, University of Tokyo)
MoNA Rating=3.75

>  <NUM PEAKS>  (861) 
27

>  <MASS SPECTRAL PEAKS>  (861) 
40 2.08
42 2.62
50 3.34
51 4.88
52 8.74
53 9.93
54 10.77
63 2.47
64 4.28
65 2.5
66 1.16
67 1.93
75 1.16
76 2.22
77 10.13
78 3.19
79 3.27
80 30.72
81 9.71
90 1.36
91 2.92
104 4.58
105 3.54
106 3.56
107 19.22
108 99.99
109 7.33

>  <PREDICTED SPECTRUM>  (861) 
15 10
16 25
17 13
18 10
25 12
26 59
27 171
28 111
29 98
30 58
31 6
36 25
37 75
38 125
39 309
40 119
41 315
42 137
43 55
45 8
46 16
48 8
49 40
50 133
51 177
52 387
53 339
54 271
55 118
56 55
57 30
60 15
61 74
62 93
63 179
64 184
65 373
66 179
67 141
68 69
69 10
73 2
74 40
75 32
76 39
77 115
78 136
79 300
80 588
81 336
82 11
89 8
90 162
91 407
92 369
93 256
94 15
105 43
106 108
107 254
108 999
109 308
110 80

$$$$

     RDKit          2D

 13 15  0  0  0  0  0  0  0  0999 V2000
   -3.4600    0.2100    0.0000 C   0  0  0  0  0  0  0  0  0  0  0  0
    2.6700    2.2000    0.0000 C   0  0  0  0  0  0  0  0  0  0  0  0
   -3.4600   -1.2900    0.0000 C   0  0  0  0  0  0  0  0  0  0  0  0
    3.5500    0.9900    0.0000 C   0  0  0  0  0  0  0  0  0  0  0  0
   -2.1600    0.9600    0.0000 C   0  0  0  0  0  0  0  0  0  0  0  0
    1.1800    2.0400    0.0000 C   0  0  0  0  0  0  0  0  0  0  0  0
   -2.1600   -2.0400    0.0000 C   0  0  0  0  0  0  0  0  0  0  0  0
    2.9400   -0.3800    0.0000 C   0  0  0  0  0  0  0  0  0  0  0  0
   -0.8600    0.2100    0.0000 C   0  0  0  0  0  0  0  0  0  0  0  0
    0.5700    0.6700    0.0000 C   0  0  0  0  0  0  0  0  0  0  0  0
   -0.8600   -1.2900    0.0000 C   0  0  0  0  0  0  0  0  0  0  0  0
    1.4500   -0.5400    0.0000 C   0  0  0  0  0  0  0  0  0  0  0  0
    0.5700   -1.7500    0.0000 O   0  0  0  0  0  0  0  0  0  0  0  0
  3  1  2  0
  4  2  2  0
  5  1  1  0
  6  2  1  0
  7  3  1  0
  8  4  1  0
  9  5  2  0
 10  6  2  0
 10  9  1  0
 11  7  2  0
 11  9  1  0
 12  8  2  0
 12 10  1  0
 13 11  1  0
 13 12  1  0
M  END
>  <NAME>  (862) 
DIBENZOFURAN

>  <SYNONYMS>  (862) 


>  <SPECTRUM TYPE>  (862) 
MS1

>  <INSTRUMENT TYPE>  (862) 
EI-B

>  <INSTRUMENT>  (862) 
JEOL JMS-D-300

>  <ION MODE>  (862) 
P

>  <INCHIKEY>  (862) 
TXCDCPKCNAJMEE-UHFFFAOYSA-N

>  <FORMULA>  (862) 
C12H8O

>  <EXACT MASS>  (862) 
168.057514876

>  <MW>  (862) 
168

>  <ID>  (862) 
JP010791

>  <CONTRIBUTOR>  (862) 
University of Tokyo Team, {Faculty of Engineering, University of Tokyo

>  <COMMENT>  (862) 
SMILES=c(c3)cc(o1)c(c3)c(c2)c(ccc2)1
InChI=InChI=1S/C12H8O/c1-3-7-11-9(5-1)10-6-2-4-8-12(10)13-11/h1-8H
computed SMILES=O1C=2C=CC=CC2C=3C=CC=CC13
accession=JP010791
date=2016.01.19 (Created 2008.10.21, modified 2011.05.06)
exact mass=168.05751
author=FUJISE Y, HAMAMATSU UNIV. SCHOOL OF MEDICINE
license=CC BY-NC-SA
ionization energy=70 eV
ion type=[M]+*
computed spectral entropy=1.713663223975207
computed normalized entropy=0.5928867867234294
SPLASH=splash10-014i-2900000000-47fc32972159b3a0a9a2
submitter=submitter = University of Tokyo Team (Faculty of Engineering, University of Tokyo)
MoNA Rating=3.75

>  <NUM PEAKS>  (862) 
18

>  <MASS SPECTRAL PEAKS>  (862) 
50 1.23
51 1.62
62 1.65
63 3.54
69 5.44
70 2.9
74 1.48
75 1.46
84 12.87
87 1.67
88 1.28
89 1.75
113 2.17
114 2.29
139 21.01
140 3.05
168 99.99
169 13.51

>  <PREDICTED SPECTRUM>  (862) 
37 19
38 47
39 137
40 39
41 61
44 12
50 108
51 100
52 41
61 39
62 106
63 205
64 89
65 35
69 29
70 1
74 122
75 129
76 81
77 12
82 10
83 30
84 29
85 23
86 74
87 69
88 43
89 50
90 2
98 39
110 33
111 25
112 22
113 195
114 127
115 104
128 12
137 41
138 53
139 417
140 263
141 147
167 69
168 999
169 367
170 96

$$$$

     RDKit          2D

 10 10  0  0  0  0  0  0  0  0999 V2000
    4.2219   -2.0625    0.0000 C   0  0  0  0  0  0  0  0  0  0  0  0
    2.9228   -1.3125    0.0000 C   0  0  0  0  0  0  0  0  0  0  0  0
   -2.2738   -1.3133    0.0000 C   0  0  0  0  0  0  0  0  0  0  0  0
   -0.9738    0.9383    0.0000 C   0  0  0  0  0  0  0  0  0  0  0  0
   -0.9748   -2.0633    0.0000 C   0  0  0  0  0  0  0  0  0  0  0  0
    0.3252    0.1883    0.0000 C   0  0  0  0  0  0  0  0  0  0  0  0
   -2.2733    0.1875    0.0000 C   0  0  0  0  0  0  0  0  0  0  0  0
    0.3248   -1.3125    0.0000 C   0  0  0  0  0  0  0  0  0  0  0  0
   -3.5724    0.9375    0.0000 O   0  0  0  0  0  0  0  0  0  0  0  0
    1.6238   -2.0625    0.0000 O   0  0  0  0  0  0  0  0  0  0  0  0
  2  1  1  0
  5  3  2  0
  6  4  1  0
  7  3  1  0
  7  4  2  0
  8  5  1  0
  8  6  2  0
  9  7  1  0
 10  2  1  0
 10  8  1  0
M  END
>  <NAME>  (863) 
4-ETHOXYPHENOL

>  <SYNONYMS>  (863) 


>  <SPECTRUM TYPE>  (863) 
MS1

>  <INSTRUMENT TYPE>  (863) 
EI-B

>  <INSTRUMENT>  (863) 
JEOL JMS-D-300

>  <ION MODE>  (863) 
P

>  <INCHIKEY>  (863) 
LKVFCSWBKOVHAH-UHFFFAOYSA-N

>  <FORMULA>  (863) 
C8H10O2

>  <EXACT MASS>  (863) 
138.06807956

>  <MW>  (863) 
138

>  <ID>  (863) 
JP010790

>  <CONTRIBUTOR>  (863) 
University of Tokyo Team, {Faculty of Engineering, University of Tokyo

>  <COMMENT>  (863) 
SMILES=CCOc(c1)ccc(O)c1
InChI=InChI=1S/C8H10O2/c1-2-10-8-5-3-7(9)4-6-8/h3-6,9H,2H2,1H3
computed SMILES=OC1=CC=C(OCC)C=C1
accession=JP010790
date=2016.01.19 (Created 2008.10.21, modified 2011.05.06)
author=FUJISE Y, HAMAMATSU UNIV. SCHOOL OF MEDICINE
license=CC BY-NC-SA
exact mass=138.06808
ionization energy=70 eV
ion type=[M]+*
computed spectral entropy=1.9413088708460202
computed normalized entropy=0.6593136704757242
SPLASH=splash10-03di-2900000000-7423a2f75c2261875b5e
submitter=submitter = University of Tokyo Team (Faculty of Engineering, University of Tokyo)
MoNA Rating=3.75

>  <NUM PEAKS>  (863) 
19

>  <MASS SPECTRAL PEAKS>  (863) 
43 1.03
44 2.22
50 1.21
51 1.91
52 1.98
53 6.52
54 4.36
55 5.45
63 2.13
64 1.57
65 3.68
81 12.86
82 6.63
108 1.27
109 15.08
110 99.99
111 7.01
138 45.52
139 4.22

>  <PREDICTED SPECTRUM>  (863) 
14 29
15 65
17 11
18 15
25 17
26 146
27 334
28 170
29 333
30 15
31 16
36 12
37 86
38 183
39 433
40 164
41 228
42 27
43 37
44 15
50 177
51 334
52 291
53 415
54 253
55 266
56 85
61 49
62 142
63 269
64 193
65 507
66 229
67 90
68 71
74 87
75 52
76 23
77 56
79 120
80 119
81 605
82 283
83 66
91 52
92 114
93 276
94 48
95 18
109 687
110 999
111 298
112 86
123 52
137 46
138 912
139 297
140 74

$$$$

     RDKit          2D

  9  9  0  0  0  0  0  0  0  0999 V2000
    2.5989    0.0004    0.0000 C   0  0  0  0  0  0  0  0  0  0  0  0
    0.0000    1.5002    0.0000 C   0  0  0  0  0  0  0  0  0  0  0  0
    1.3000   -2.2498    0.0000 C   0  0  0  0  0  0  0  0  0  0  0  0
   -0.0000   -2.9998    0.0000 C   0  0  0  0  0  0  0  0  0  0  0  0
   -1.3000   -0.7498    0.0000 C   0  0  0  0  0  0  0  0  0  0  0  0
    1.3000   -0.7498    0.0000 C   0  0  0  0  0  0  0  0  0  0  0  0
    0.0000    0.0002    0.0000 C   0  0  0  0  0  0  0  0  0  0  0  0
   -1.3000   -2.2498    0.0000 C   0  0  0  0  0  0  0  0  0  0  0  0
   -2.5989   -3.0000    0.0000 N   0  0  0  0  0  0  0  0  0  0  0  0
  4  3  2  0
  6  1  1  0
  6  3  1  0
  7  2  1  0
  7  5  1  0
  7  6  2  0
  8  4  1  0
  8  5  2  0
  9  8  1  0
M  END
>  <NAME>  (864) 
3,4-XYLIDINE

>  <SYNONYMS>  (864) 


>  <SPECTRUM TYPE>  (864) 
MS1

>  <INSTRUMENT TYPE>  (864) 
EI-B

>  <INSTRUMENT>  (864) 
JEOL JMS-D-300

>  <ION MODE>  (864) 
P

>  <INCHIKEY>  (864) 
DOLQYFPDPKPQSS-UHFFFAOYSA-N

>  <FORMULA>  (864) 
C8H11N

>  <EXACT MASS>  (864) 
121.08914935199999

>  <MW>  (864) 
121

>  <ID>  (864) 
JP010789

>  <CONTRIBUTOR>  (864) 
University of Tokyo Team, {Faculty of Engineering, University of Tokyo

>  <COMMENT>  (864) 
SMILES=Nc(c1)cc(C)c(C)c1
InChI=InChI=1S/C8H11N/c1-6-3-4-8(9)5-7(6)2/h3-5H,9H2,1-2H3
computed SMILES=NC1=CC=C(C(=C1)C)C
accession=JP010789
date=2016.01.19 (Created 2008.10.21, modified 2011.05.06)
author=FUJISE Y, HAMAMATSU UNIV. SCHOOL OF MEDICINE
license=CC BY-NC-SA
exact mass=121.08915
ionization energy=70 eV
ion type=[M]+*
computed spectral entropy=2.4484854133707756
computed normalized entropy=0.6943378013333702
SPLASH=splash10-00di-3900000000-cdf20b1f3701fa29813f
submitter=submitter = University of Tokyo Team (Faculty of Engineering, University of Tokyo)
MoNA Rating=3.75

>  <NUM PEAKS>  (864) 
34

>  <MASS SPECTRAL PEAKS>  (864) 
42 3.68
43 2.51
47 1.7
50 2.17
51 5.35
52 4.13
53 6.56
54 2.08
58 4.91
59 4.47
60 3.52
63 2.27
65 4.78
66 2.04
67 1.11
77 14.27
78 4.15
79 3.84
80 2.62
91 8.92
92 2.11
93 5.08
94 1.74
103 3.32
104 2.98
105 1.89
106 59.05
107 4.8
117 1.41
118 4.23
119 3.86
120 88.67
121 99.99
122 9.14

>  <PREDICTED SPECTRUM>  (864) 
14 0
15 23
26 44
27 222
28 112
29 19
36 2
37 51
38 105
39 333
40 121
41 246
42 85
43 33
44 8
49 24
50 186
51 308
52 239
53 262
54 139
55 49
58 20
61 78
62 100
63 199
64 109
65 246
66 153
67 135
68 42
74 116
75 123
76 86
77 441
78 288
79 387
80 189
81 128
86 50
87 30
89 41
91 300
92 190
93 247
94 195
95 37
99 13
102 48
103 140
104 202
105 194
106 803
107 284
116 33
117 19
118 162
119 135
120 676
121 999
122 307
123 18

$$$$

     RDKit          2D

 10 10  0  0  0  0  0  0  0  0999 V2000
    2.2730   -0.9380    0.0000 C   0  0  0  0  0  0  0  0  0  0  0  0
    3.5721   -0.1880    0.0000 C   0  0  0  0  0  0  0  0  0  0  0  0
    0.9735   -0.1871    0.0000 C   0  0  0  0  0  0  0  0  0  0  0  0
    3.5716    1.3129    0.0000 C   0  0  0  0  0  0  0  0  0  0  0  0
   -0.3261    2.0635    0.0000 C   0  0  0  0  0  0  0  0  0  0  0  0
    0.9730    1.3137    0.0000 C   0  0  0  0  0  0  0  0  0  0  0  0
    2.2721    2.0637    0.0000 C   0  0  0  0  0  0  0  0  0  0  0  0
   -1.6250    1.3133    0.0000 N   0  0  0  0  0  0  0  0  0  0  0  0
    2.2723    3.5637    0.0000 O   0  0  0  0  0  0  0  0  0  0  0  0
   -2.9242    2.0631    0.0000 O   0  0  0  0  0  0  0  0  0  0  0  0
  2  1  2  0
  3  1  1  0
  4  2  1  0
  6  3  2  0
  6  5  1  0
  7  4  2  0
  7  6  1  0
  5  8  2  0
  9  7  1  0
 10  8  1  0
M  END
>  <NAME>  (865) 
SALICYLALDEHYDE OXIME

>  <SYNONYMS>  (865) 


>  <SPECTRUM TYPE>  (865) 
MS1

>  <INSTRUMENT TYPE>  (865) 
EI-B

>  <INSTRUMENT>  (865) 
JEOL JMS-D-300

>  <ION MODE>  (865) 
P

>  <INCHIKEY>  (865) 
ORIHZIZPTZTNCU-VMPITWQZSA-N

>  <FORMULA>  (865) 
C7H7NO2

>  <EXACT MASS>  (865) 
137.047678464

>  <MW>  (865) 
137

>  <ID>  (865) 
JP010788

>  <CONTRIBUTOR>  (865) 
University of Tokyo Team, {Faculty of Engineering, University of Tokyo

>  <COMMENT>  (865) 
SMILES=ON=Cc(c1)c(O)ccc1
InChI=InChI=1S/C7H7NO2/c9-7-4-2-1-3-6(7)5-8-10/h1-5,9-10H/b8-5+
computed SMILES=ON=CC=1C=CC=CC1O
accession=JP010788
date=2016.01.19 (Created 2008.10.21, modified 2011.05.06)
author=FUJISE Y, HAMAMATSU UNIV. SCHOOL OF MEDICINE
license=CC BY-NC-SA
exact mass=137.04768
ionization energy=70 eV
ion type=[M]+*
computed spectral entropy=2.82043473117555
computed normalized entropy=0.7753588801282715
SPLASH=splash10-00ku-9700000000-5a3ed0bd70199d0e7771
submitter=submitter = University of Tokyo Team (Faculty of Engineering, University of Tokyo)
MoNA Rating=3.75

>  <NUM PEAKS>  (865) 
38

>  <MASS SPECTRAL PEAKS>  (865) 
42 5.13
46 3.02
50 5.99
51 10.61
52 8.17
53 5.86
54 1.46
55 1.35
60 1.46
61 2.42
62 4.55
63 16.44
64 29.46
65 23.91
66 4.53
68 1.71
69 4.01
74 1.65
75 2.84
76 2.74
77 7.32
78 2.93
80 1.7
81 1.59
90 2.64
91 67.17
92 13.63
93 4.51
94 2.43
102 9.96
103 1.05
105 2.81
118 1.09
119 46.94
120 22.91
121 9.87
137 99.99
138 8.46

>  <PREDICTED SPECTRUM>  (865) 
15 8
16 3
17 52
18 53
25 6
26 73
27 133
28 87
29 58
30 19
31 79
33 0
36 7
37 121
38 203
39 433
40 181
41 143
42 106
43 102
44 223
45 49
49 37
50 296
51 436
52 237
53 230
54 80
55 48
58 3
61 130
62 172
63 324
64 312
65 460
66 232
67 65
68 24
74 135
75 123
76 186
77 493
78 304
79 157
80 78
81 67
82 12
86 9
89 34
90 217
91 386
92 349
93 277
94 269
95 72
97 16
102 203
103 52
104 113
105 178
106 31
107 116
108 124
109 167
110 103
118 250
119 610
120 755
121 259
122 141
136 212
137 999
138 286
139 43

$$$$

     RDKit          2D

  9  9  0  0  0  0  0  0  0  0999 V2000
   -1.3000    0.7500    0.0000 C   0  0  0  0  0  0  0  0  0  0  0  0
    0.0000    1.5000    0.0000 C   0  0  0  0  0  0  0  0  0  0  0  0
   -0.0000   -1.5000    0.0000 C   0  0  0  0  0  0  0  0  0  0  0  0
   -1.3000   -0.7500    0.0000 C   0  0  0  0  0  0  0  0  0  0  0  0
    1.3000   -0.7500    0.0000 C   0  0  0  0  0  0  0  0  0  0  0  0
    1.3000    0.7500    0.0000 C   0  0  0  0  0  0  0  0  0  0  0  0
   -2.5989   -1.5002    0.0000 Cl  0  0  0  0  0  0  0  0  0  0  0  0
    2.5989   -1.5002    0.0000 Cl  0  0  0  0  0  0  0  0  0  0  0  0
    2.5989    1.5002    0.0000 N   0  0  0  0  0  0  0  0  0  0  0  0
  2  1  2  0
  4  1  1  0
  4  3  2  0
  5  3  1  0
  6  2  1  0
  6  5  2  0
  7  4  1  0
  8  5  1  0
  9  6  1  0
M  END
>  <NAME>  (866) 
2,4-DICHLOROANILINE

>  <SYNONYMS>  (866) 


>  <SPECTRUM TYPE>  (866) 
MS1

>  <INSTRUMENT TYPE>  (866) 
EI-B

>  <INSTRUMENT>  (866) 
JEOL JMS-D-300

>  <ION MODE>  (866) 
P

>  <INCHIKEY>  (866) 
KQCMTOWTPBNWDB-UHFFFAOYSA-N

>  <FORMULA>  (866) 
C6H5Cl2N

>  <EXACT MASS>  (866) 
160.97990452

>  <MW>  (866) 
161

>  <ID>  (866) 
JP010787

>  <CONTRIBUTOR>  (866) 
University of Tokyo Team, {Faculty of Engineering, University of Tokyo

>  <COMMENT>  (866) 
SMILES=Nc(c1)c(Cl)cc(Cl)c1
InChI=InChI=1S/C6H5Cl2N/c7-4-1-2-6(9)5(8)3-4/h1-3H,9H2
computed SMILES=ClC1=CC=C(N)C(Cl)=C1
accession=JP010787
date=2016.01.19 (Created 2008.10.21, modified 2011.05.06)
author=FUJISE Y, HAMAMATSU UNIV. SCHOOL OF MEDICINE
license=CC BY-NC-SA
exact mass=160.9799
ionization energy=70 eV
ion type=[M]+*
computed spectral entropy=2.7142424401606204
computed normalized entropy=0.7357904951688311
SPLASH=splash10-03di-4900000000-8687f2415b8e8f7ba643
submitter=submitter = University of Tokyo Team (Faculty of Engineering, University of Tokyo)
MoNA Rating=3.75

>  <NUM PEAKS>  (866) 
40

>  <MASS SPECTRAL PEAKS>  (866) 
42 1.93
45 4.51
46 1.49
49 1.11
50 1.43
52 4.41
61 2.91
62 7.14
63 11.69
64 2.79
65 2.45
72 1.16
73 4.7
74 1.55
75 1.91
80 8.25
81 5.41
89 2.38
90 14.86
91 3.27
97 1.44
98 4.44
99 10.7
100 2.31
101 3.89
124 1.07
125 6.64
126 8.07
127 2.61
128 2.58
133 3.73
134 2.09
135 2.65
136 1.33
160 1.54
161 99.99
162 7.99
163 63.93
164 4.53
165 10.58

>  <PREDICTED SPECTRUM>  (866) 
25 12
26 10
28 29
35 51
36 75
37 149
38 147
39 121
40 24
41 15
42 47
43 13
44 75
47 57
48 20
49 161
50 233
51 203
52 188
53 91
54 31
55 10
56 38
57 38
60 86
61 220
62 316
63 384
64 199
65 137
66 83
67 11
68 25
69 39
70 5
72 161
73 214
74 209
75 235
76 114
77 17
78 3
79 17
80 60
81 35
82 72
83 53
84 159
85 98
86 134
87 31
88 170
89 167
90 328
91 448
92 168
93 68
95 8
96 66
97 96
98 151
99 243
100 133
101 179
102 103
103 17
105 1
107 69
109 156
110 90
111 107
112 21
114 33
117 63
124 132
125 210
126 515
127 212
128 353
129 122
130 36
131 24
133 200
134 106
135 144
136 84
137 22
145 50
147 15
148 11
160 25
161 999
162 296
163 826
164 272
165 350
166 96

$$$$

     RDKit          2D

  5  4  0  0  0  0  0  0  0  0999 V2000
   -0.0000   -0.0000    0.0000 C   0  0  0  0  0  0  0  0  0  0  0  0
    0.0000    1.5000    0.0000 C   0  0  0  0  0  0  0  0  0  0  0  0
   -1.2990    2.2500    0.0000 C   0  0  0  0  0  0  0  0  0  0  0  0
   -1.2990    3.7500    0.0000 N   0  0  0  0  0  0  0  0  0  0  0  0
   -2.5981    1.5000    0.0000 O   0  0  0  0  0  0  0  0  0  0  0  0
  2  1  1  0
  3  2  1  0
  4  3  2  0
  5  3  1  0
M  END
>  <NAME>  (867) 
PROPIONAMIDE

>  <SYNONYMS>  (867) 


>  <SPECTRUM TYPE>  (867) 
MS1

>  <INSTRUMENT TYPE>  (867) 
EI-B

>  <INSTRUMENT>  (867) 
JEOL JMS-D-300

>  <ION MODE>  (867) 
P

>  <INCHIKEY>  (867) 
QLNJFJADRCOGBJ-UHFFFAOYSA-N

>  <FORMULA>  (867) 
C3H7NO

>  <EXACT MASS>  (867) 
73.052763844

>  <MW>  (867) 
73

>  <ID>  (867) 
JP010786

>  <CONTRIBUTOR>  (867) 
University of Tokyo Team, {Faculty of Engineering, University of Tokyo

>  <COMMENT>  (867) 
SMILES=CCC(N)=O
InChI=InChI=1S/C3H7NO/c1-2-3(4)5/h2H2,1H3,(H2,4,5)
computed SMILES=N=C(O)CC
accession=JP010786
date=2016.01.19 (Created 2008.10.21, modified 2011.05.06)
author=FUJISE Y, HAMAMATSU UNIV. SCHOOL OF MEDICINE
license=CC BY-NC-SA
exact mass=73.05276
ionization energy=70 eV
ion type=[M]+*
computed spectral entropy=1.4507063287616944
computed normalized entropy=0.6049915295377782
SPLASH=splash10-0006-9000000000-267e4a1338b305b8087d
submitter=submitter = University of Tokyo Team (Faculty of Engineering, University of Tokyo)
MoNA Rating=3.75

>  <NUM PEAKS>  (867) 
11

>  <MASS SPECTRAL PEAKS>  (867) 
43 2.06
44 99.99
45 4.79
54 1.47
55 5.32
56 2.68
57 17.07
72 8.32
73 46.79
74 1.93
191 1.19

>  <PREDICTED SPECTRUM>  (867) 
14 60
15 63
16 41
17 45
18 64
19 6
25 31
26 165
27 469
28 382
29 464
30 139
31 222
32 2
38 8
40 219
41 596
42 529
43 519
44 999
45 612
46 197
52 6
53 41
54 234
55 493
56 445
57 648
58 60
69 13
71 252
72 209
73 819
74 238
75 62

$$$$

     RDKit          2D

 11 11  0  0  0  0  0  0  0  0999 V2000
   -0.9401    1.7059    0.0000 C   0  0  0  0  0  0  0  0  0  0  0  0
    0.3589    2.4559    0.0000 C   0  0  0  0  0  0  0  0  0  0  0  0
    0.3599   -0.5458    0.0000 C   0  0  0  0  0  0  0  0  0  0  0  0
   -0.9396    0.2051    0.0000 C   0  0  0  0  0  0  0  0  0  0  0  0
    1.6589    0.2042    0.0000 C   0  0  0  0  0  0  0  0  0  0  0  0
    1.6585    1.7051    0.0000 C   0  0  0  0  0  0  0  0  0  0  0  0
    2.9581   -0.5456    0.0000 C   0  0  0  0  0  0  0  0  0  0  0  0
   -2.2386   -0.5449    0.0000 O   0  0  0  0  0  0  0  0  0  0  0  0
    2.9575    2.4551    0.0000 O   0  0  0  0  0  0  0  0  0  0  0  0
    4.2570    0.2046    0.0000 O   0  0  0  0  0  0  0  0  0  0  0  0
    2.9583   -2.0456    0.0000 O   0  0  0  0  0  0  0  0  0  0  0  0
  2  1  2  0
  4  1  1  0
  4  3  2  0
  5  3  1  0
  6  2  1  0
  6  5  2  0
  7  5  1  0
  8  4  1  0
  9  6  1  0
 10  7  2  0
 11  7  1  0
M  END
>  <NAME>  (868) 
2,5-DIHYDROXYBENZOIC ACID

>  <SYNONYMS>  (868) 


>  <SPECTRUM TYPE>  (868) 
MS1

>  <INSTRUMENT TYPE>  (868) 
EI-B

>  <INSTRUMENT>  (868) 
JEOL JMS-D-300

>  <ION MODE>  (868) 
P

>  <INCHIKEY>  (868) 
WXTMDXOMEHJXQO-UHFFFAOYSA-N

>  <FORMULA>  (868) 
C7H6O4

>  <EXACT MASS>  (868) 
154.026608672

>  <MW>  (868) 
154

>  <ID>  (868) 
JP010785

>  <CONTRIBUTOR>  (868) 
University of Tokyo Team, {Faculty of Engineering, University of Tokyo

>  <COMMENT>  (868) 
SMILES=Oc(c1)cc(C(O)=O)c(O)c1
InChI=InChI=1S/C7H6O4/c8-4-1-2-6(9)5(3-4)7(10)11/h1-3,8-9H,(H,10,11)
computed SMILES=O=C(O)C1=CC(O)=CC=C1O
accession=JP010785
date=2016.01.19 (Created 2008.10.21, modified 2011.05.06)
author=FUJISE Y, HAMAMATSU UNIV. SCHOOL OF MEDICINE
license=CC BY-NC-SA
exact mass=154.02661
ionization energy=70 eV
ion type=[M]+*
computed spectral entropy=2.5324809676302174
computed normalized entropy=0.7683878391409713
SPLASH=splash10-0f79-7900000000-20ee71dd59e0987ea16e
submitter=submitter = University of Tokyo Team (Faculty of Engineering, University of Tokyo)
MoNA Rating=3.75

>  <NUM PEAKS>  (868) 
27

>  <MASS SPECTRAL PEAKS>  (868) 
42 1.24
45 2.65
50 4.55
51 9.42
52 30.23
53 18.76
54 10.36
55 4.77
61 1.52
62 2.32
63 3.04
68 1.22
69 3.27
79 5.12
80 32.68
81 5.81
82 11.68
107 3.28
108 28.87
109 3.43
110 1.73
135 3.5
136 99.99
137 9.63
138 1.05
154 32.4
155 2.64

>  <PREDICTED SPECTRUM>  (868) 
17 13
18 13
25 4
26 56
27 147
28 76
29 145
31 16
36 23
37 66
38 117
39 262
40 119
41 212
42 186
43 221
44 126
45 193
46 47
49 49
50 145
51 330
52 388
53 357
54 205
55 281
56 74
57 186
58 67
60 43
61 95
62 122
63 204
64 67
65 90
66 158
67 132
68 114
69 202
70 67
71 132
73 10
76 93
77 22
78 105
79 341
80 414
81 317
82 160
83 131
90 43
91 48
92 45
93 91
94 31
95 85
96 13
97 80
105 103
107 244
108 568
109 243
110 59
135 177
136 999
137 300
138 76
153 38
154 757
155 223
156 53

$$$$

     RDKit          2D

 15 15  0  0  0  0  0  0  0  0999 V2000
    3.1108   -1.3066    0.0000 C   0  0  0  0  0  0  0  0  0  0  0  0
    3.6601    0.7423    0.0000 C   0  0  0  0  0  0  0  0  0  0  0  0
    1.6112    1.2917    0.0000 C   0  0  0  0  0  0  0  0  0  0  0  0
   -2.0858    1.2909    0.0000 C   0  0  0  0  0  0  0  0  0  0  0  0
   -4.1348    0.7419    0.0000 C   0  0  0  0  0  0  0  0  0  0  0  0
   -3.5858   -1.3071    0.0000 C   0  0  0  0  0  0  0  0  0  0  0  0
    1.0613   -2.2581    0.0000 C   0  0  0  0  0  0  0  0  0  0  0  0
   -0.2382   -3.0089    0.0000 C   0  0  0  0  0  0  0  0  0  0  0  0
   -0.2372   -0.0073    0.0000 C   0  0  0  0  0  0  0  0  0  0  0  0
    1.0618   -0.7573    0.0000 C   0  0  0  0  0  0  0  0  0  0  0  0
   -1.5367   -0.7581    0.0000 C   0  0  0  0  0  0  0  0  0  0  0  0
   -1.5372   -2.2589    0.0000 C   0  0  0  0  0  0  0  0  0  0  0  0
    2.3610   -0.0075    0.0000 C   0  0  0  0  0  0  0  0  0  0  0  0
   -2.8358   -0.0081    0.0000 C   0  0  0  0  0  0  0  0  0  0  0  0
   -2.8364   -3.0087    0.0000 O   0  0  0  0  0  0  0  0  0  0  0  0
  8  7  2  0
 10  7  1  0
 10  9  2  0
 11  9  1  0
 12  8  1  0
 12 11  2  0
 13  1  1  0
 13  2  1  0
 13  3  1  0
 13 10  1  0
 14  4  1  0
 14  5  1  0
 14  6  1  0
 14 11  1  0
 15 12  1  0
M  END
>  <NAME>  (869) 
2,4-DI-TERT-BUTYLPHENOL

>  <SYNONYMS>  (869) 


>  <SPECTRUM TYPE>  (869) 
MS1

>  <INSTRUMENT TYPE>  (869) 
EI-B

>  <INSTRUMENT>  (869) 
JEOL JMS-D-300

>  <ION MODE>  (869) 
P

>  <INCHIKEY>  (869) 
ICKWICRCANNIBI-UHFFFAOYSA-N

>  <FORMULA>  (869) 
C14H22O

>  <EXACT MASS>  (869) 
206.167065324

>  <MW>  (869) 
206

>  <ID>  (869) 
JP010784

>  <CONTRIBUTOR>  (869) 
University of Tokyo Team, {Faculty of Engineering, University of Tokyo

>  <COMMENT>  (869) 
SMILES=Oc(c1)c(cc(c1)C(C)(C)C)C(C)(C)C
InChI=InChI=1S/C14H22O/c1-13(2,3)10-7-8-12(15)11(9-10)14(4,5)6/h7-9,15H,1-6H3
computed SMILES=OC1=CC=C(C=C1C(C)(C)C)C(C)(C)C
accession=JP010784
date=2016.01.19 (Created 2008.10.21, modified 2011.05.06)
author=FUJISE Y, HAMAMATSU UNIV. SCHOOL OF MEDICINE
license=CC BY-NC-SA
exact mass=206.16707
ionization energy=70 eV
ion type=[M]+*
computed spectral entropy=2.61917844761176
computed normalized entropy=0.7007517290451938
SPLASH=splash10-0006-6910000000-1628f01584925f62f46b
submitter=submitter = University of Tokyo Team (Faculty of Engineering, University of Tokyo)
MoNA Rating=3.75

>  <NUM PEAKS>  (869) 
42

>  <MASS SPECTRAL PEAKS>  (869) 
42 16.22
43 1.35
51 2.45
52 1.13
53 1.84
55 2.99
57 43.11
58 2.11
60 4.11
64 1.36
65 2.13
66 2.53
67 1.13
72 1.13
73 4.62
74 11.23
77 3.49
79 1.69
87 1.11
88 4.72
91 4.65
105 2.26
107 3.6
115 3.11
116 1.16
117 1.64
119 1.21
121 1.22
128 1.74
129 1.11
133 1.5
135 1.95
147 1.83
149 0.99
161 1.74
163 4.8
175 3.72
191 99.99
192 15.09
193 1.14
206 15.76
207 2.42

>  <PREDICTED SPECTRUM>  (869) 
1 5
2 5
11 2
14 10
15 64
16 8
26 14
27 136
28 47
29 217
30 19
33 11
34 8
37 8
38 28
39 192
40 65
41 339
42 56
43 168
44 43
45 66
47 15
50 51
51 121
52 87
53 135
54 46
55 153
56 35
57 422
58 66
59 17
61 36
62 39
63 108
64 92
65 165
66 100
67 94
68 17
69 56
70 23
71 72
72 45
73 45
74 67
75 90
76 70
77 212
78 139
79 147
80 86
81 76
82 38
83 84
84 48
85 57
86 24
87 57
88 56
89 121
90 54
91 246
92 105
93 113
94 64
95 72
96 48
97 46
99 5
100 32
101 29
102 110
103 122
104 88
105 204
106 87
107 156
108 78
109 55
110 31
111 8
112 11
113 47
114 33
115 203
116 145
117 182
118 93
119 165
120 131
121 120
122 30
123 16
126 15
127 89
128 174
129 130
130 97
131 156
132 75
133 173
134 70
135 228
136 42
137 14
141 58
142 36
143 80
144 90
145 137
146 52
147 139
148 97
149 127
150 63
151 83
152 23
153 11
157 33
158 37
159 90
160 50
161 123
162 16
163 369
164 140
165 57
175 135
176 102
177 55
189 75
190 16
191 999
192 378
193 128
194 15
205 11
206 520
207 192
208 44

$$$$

     RDKit          2D

  9  9  0  0  0  0  0  0  0  0999 V2000
   -0.0000   -1.5002    0.0000 C   0  0  0  0  0  0  0  0  0  0  0  0
   -2.5989    3.0000    0.0000 C   0  0  0  0  0  0  0  0  0  0  0  0
   -1.3000    0.7498    0.0000 C   0  0  0  0  0  0  0  0  0  0  0  0
    1.3000    0.7498    0.0000 C   0  0  0  0  0  0  0  0  0  0  0  0
   -0.0000    2.9998    0.0000 C   0  0  0  0  0  0  0  0  0  0  0  0
   -0.0000   -0.0002    0.0000 C   0  0  0  0  0  0  0  0  0  0  0  0
   -1.3000    2.2498    0.0000 C   0  0  0  0  0  0  0  0  0  0  0  0
    1.3000    2.2498    0.0000 C   0  0  0  0  0  0  0  0  0  0  0  0
    2.5989    3.0000    0.0000 O   0  0  0  0  0  0  0  0  0  0  0  0
  6  1  1  0
  6  3  2  0
  6  4  1  0
  7  2  1  0
  7  3  1  0
  7  5  2  0
  8  4  2  0
  8  5  1  0
  9  8  1  0
M  END
>  <NAME>  (870) 
3,5-DIMETHYLPHENOL

>  <SYNONYMS>  (870) 


>  <SPECTRUM TYPE>  (870) 
MS1

>  <INSTRUMENT TYPE>  (870) 
EI-B

>  <INSTRUMENT>  (870) 
JEOL JMS-D-300

>  <ION MODE>  (870) 
P

>  <INCHIKEY>  (870) 
TUAMRELNJMMDMT-UHFFFAOYSA-N

>  <FORMULA>  (870) 
C8H10O

>  <EXACT MASS>  (870) 
122.07316494

>  <MW>  (870) 
122

>  <ID>  (870) 
JP010783

>  <CONTRIBUTOR>  (870) 
University of Tokyo Team, {Faculty of Engineering, University of Tokyo

>  <COMMENT>  (870) 
SMILES=Cc(c1)cc(O)cc(C)1
InChI=InChI=1S/C8H10O/c1-6-3-7(2)5-8(9)4-6/h3-5,9H,1-2H3
computed SMILES=OC=1C=C(C=C(C1)C)C
accession=JP010783
date=2016.01.19 (Created 2008.10.21, modified 2011.05.06)
author=FUJISE Y, HAMAMATSU UNIV. SCHOOL OF MEDICINE
license=CC BY-NC-SA
exact mass=122.07316
ionization energy=70 eV
ion type=[M]+*
computed spectral entropy=2.550841077720063
computed normalized entropy=0.7233636662824535
SPLASH=splash10-05fr-4900000000-0a386de737f1bed610ab
submitter=submitter = University of Tokyo Team (Faculty of Engineering, University of Tokyo)
MoNA Rating=3.75

>  <NUM PEAKS>  (870) 
34

>  <MASS SPECTRAL PEAKS>  (870) 
42 4.68
43 3.12
45 1.29
46 1.1
50 4.46
51 10.58
52 4.32
53 8
55 2.79
60 3.66
61 2.27
62 1.68
63 4.02
65 6.24
66 1.8
67 1.81
74 1.16
77 23.47
78 6.14
79 13.62
80 1.29
81 1.03
91 12.3
92 1.54
93 4.25
94 1.72
103 2.77
104 2.36
105 3.6
107 81.31
108 6.53
121 36.2
122 99.99
123 9.07

>  <PREDICTED SPECTRUM>  (870) 
14 25
15 71
18 8
25 3
26 94
27 314
28 149
29 156
36 10
37 85
38 168
39 477
40 170
41 334
42 74
43 170
44 84
46 32
47 56
48 1
49 31
50 249
51 395
52 244
53 357
54 122
55 218
56 58
57 68
58 5
60 32
61 149
62 135
63 212
64 122
65 330
66 159
67 225
68 37
69 64
70 12
73 9
74 127
75 143
76 80
77 600
78 348
79 502
80 134
81 110
82 49
86 64
87 14
89 70
91 559
92 172
93 323
94 196
95 184
102 14
103 249
104 179
105 279
106 31
107 931
108 284
109 45
119 27
120 75
121 567
122 999
123 348
124 27

$$$$

     RDKit          2D

 12 13  0  0  0  0  0  0  0  0999 V2000
    4.8268    2.7906    0.0000 C   0  0  0  0  0  0  0  0  0  0  0  0
    4.8275    1.2898    0.0000 C   0  0  0  0  0  0  0  0  0  0  0  0
    3.5271    3.5412    0.0000 C   0  0  0  0  0  0  0  0  0  0  0  0
    3.5286    0.5396    0.0000 C   0  0  0  0  0  0  0  0  0  0  0  0
    2.2282    2.7910    0.0000 C   0  0  0  0  0  0  0  0  0  0  0  0
    0.9300   -0.9600    0.0000 C   0  0  0  0  0  0  0  0  0  0  0  0
   -0.3700    1.2900    0.0000 C   0  0  0  0  0  0  0  0  0  0  0  0
   -0.3700   -1.7100    0.0000 C   0  0  0  0  0  0  0  0  0  0  0  0
   -1.6700    0.5400    0.0000 C   0  0  0  0  0  0  0  0  0  0  0  0
    2.2289    1.2902    0.0000 C   0  0  0  0  0  0  0  0  0  0  0  0
    0.9300    0.5400    0.0000 N   0  0  0  0  0  0  0  0  0  0  0  0
   -1.6700   -0.9600    0.0000 O   0  0  0  0  0  0  0  0  0  0  0  0
  2  1  2  0
  3  1  1  0
  4  2  1  0
  5  3  2  0
  8  6  1  0
  9  7  1  0
 10  4  2  0
 10  5  1  0
 11  6  1  0
 11  7  1  0
 11 10  1  0
 12  8  1  0
 12  9  1  0
M  END
>  <NAME>  (871) 
N-PHENYLMORPHOLINE

>  <SYNONYMS>  (871) 


>  <SPECTRUM TYPE>  (871) 
MS1

>  <INSTRUMENT TYPE>  (871) 
EI-B

>  <INSTRUMENT>  (871) 
JEOL JMS-D-300

>  <ION MODE>  (871) 
P

>  <INCHIKEY>  (871) 
FHQRDEDZJIFJAL-UHFFFAOYSA-N

>  <FORMULA>  (871) 
C10H13NO

>  <EXACT MASS>  (871) 
163.099714036

>  <MW>  (871) 
163

>  <ID>  (871) 
JP010782

>  <CONTRIBUTOR>  (871) 
University of Tokyo Team, {Faculty of Engineering, University of Tokyo

>  <COMMENT>  (871) 
SMILES=O(C2)CCN(C2)c(c1)cccc1
InChI=InChI=1S/C10H13NO/c1-2-4-10(5-3-1)11-6-8-12-9-7-11/h1-5H,6-9H2
computed SMILES=O1CCN(C=2C=CC=CC2)CC1
accession=JP010782
date=2016.01.19 (Created 2008.10.21, modified 2011.05.06)
author=FUJISE Y, HAMAMATSU UNIV. SCHOOL OF MEDICINE
license=CC BY-NC-SA
exact mass=163.09971
ionization energy=70 eV
ion type=[M]+*
computed spectral entropy=2.161805567987799
computed normalized entropy=0.6802293741359051
SPLASH=splash10-0bt9-2900000000-92054ab7453b9f90aba1
submitter=submitter = University of Tokyo Team (Faculty of Engineering, University of Tokyo)
MoNA Rating=3.75

>  <NUM PEAKS>  (871) 
24

>  <MASS SPECTRAL PEAKS>  (871) 
42 1.19
43 2.48
50 3.28
51 13.63
52 2.57
57 1.69
63 1.67
64 1
65 2.59
76 1.41
77 28.51
78 4.4
79 1.18
91 4.81
104 30.6
105 99.99
106 9.94
117 1.23
118 1.1
132 4.75
133 1.13
162 4.78
163 59.99
164 6.97

>  <PREDICTED SPECTRUM>  (871) 
14 18
15 67
18 0
26 51
27 138
28 116
29 59
30 22
38 32
39 219
40 69
41 194
42 189
50 234
51 520
52 166
53 3
54 48
55 7
57 92
58 17
62 21
63 137
64 150
65 240
66 24
74 39
75 23
76 109
77 983
78 438
79 115
86 5
89 19
90 105
91 541
92 228
93 11
103 29
104 679
105 871
106 360
107 74
117 85
118 187
119 182
120 137
132 281
133 199
134 119
148 36
161 37
162 279
163 999
164 311

$$$$

     RDKit          2D

 10 11  0  0  0  0  0  0  0  0999 V2000
   -2.3100    0.7500    0.0000 C   0  0  0  0  0  0  0  0  0  0  0  0
   -2.3100   -0.7500    0.0000 C   0  0  0  0  0  0  0  0  0  0  0  0
   -1.0100    1.5000    0.0000 C   0  0  0  0  0  0  0  0  0  0  0  0
   -1.0100   -1.5000    0.0000 C   0  0  0  0  0  0  0  0  0  0  0  0
    1.7200    1.2100    0.0000 C   0  0  0  0  0  0  0  0  0  0  0  0
    0.2900    0.7500    0.0000 C   0  0  0  0  0  0  0  0  0  0  0  0
    0.2900   -0.7500    0.0000 C   0  0  0  0  0  0  0  0  0  0  0  0
    1.7200   -1.2100    0.0000 C   0  0  0  0  0  0  0  0  0  0  0  0
    2.1853   -2.6360    0.0000 O   0  0  0  0  0  0  0  0  0  0  0  0
    2.6000    0.0000    0.0000 O   0  0  0  0  0  0  0  0  0  0  0  0
  2  1  2  0
  3  1  1  0
  4  2  1  0
  6  3  2  0
  6  5  1  0
  7  4  2  0
  7  6  1  0
  8  7  1  0
  9  8  2  0
 10  5  1  0
 10  8  1  0
M  END
>  <NAME>  (872) 
PHTHALIDE

>  <SYNONYMS>  (872) 


>  <SPECTRUM TYPE>  (872) 
MS1

>  <INSTRUMENT TYPE>  (872) 
EI-B

>  <INSTRUMENT>  (872) 
JEOL JMS-D-300

>  <ION MODE>  (872) 
P

>  <INCHIKEY>  (872) 
WNZQDUSMALZDQF-UHFFFAOYSA-N

>  <FORMULA>  (872) 
C8H6O2

>  <EXACT MASS>  (872) 
134.036779432

>  <MW>  (872) 
134

>  <ID>  (872) 
JP010781

>  <CONTRIBUTOR>  (872) 
University of Tokyo Team, {Faculty of Engineering, University of Tokyo

>  <COMMENT>  (872) 
SMILES=O=C(O1)c(c2)c(ccc2)C1
InChI=InChI=1S/C8H6O2/c9-8-7-4-2-1-3-6(7)5-10-8/h1-4H,5H2
computed SMILES=O=C1OCC=2C=CC=CC12
accession=JP010781
date=2016.01.19 (Created 2008.10.21, modified 2011.05.06)
license=CC BY-NC-SA
author=FUJISE Y, HAMAMATSU UNIV. SCHOOL OF MEDICINE
exact mass=134.03678
ionization energy=70 eV
ion type=[M]+*
computed spectral entropy=2.145456266927877
computed normalized entropy=0.7046938594849598
SPLASH=splash10-0a59-5900000000-cb40a9fce63b687c154c
submitter=submitter = University of Tokyo Team (Faculty of Engineering, University of Tokyo)
MoNA Rating=3.75

>  <NUM PEAKS>  (872) 
21

>  <MASS SPECTRAL PEAKS>  (872) 
44 1.23
49 1.11
50 9.63
51 12.1
52 2.98
61 1.08
62 1.89
63 3.17
66 3.22
74 3.5
75 2.99
76 9.66
77 40.66
78 3.7
89 1.6
104 2.85
105 99.99
106 8.03
133 15.05
134 44.25
135 4.03

>  <PREDICTED SPECTRUM>  (872) 
25 39
26 74
27 11
28 52
29 97
37 86
38 153
39 237
49 100
50 375
51 461
52 170
60 12
61 78
62 230
63 465
64 286
65 83
73 90
74 193
75 188
76 506
77 820
78 416
79 26
89 118
90 144
91 152
92 221
104 287
105 941
106 146
133 211
134 999
135 318

$$$$

     RDKit          2D

 22 24  0  0  0  0  0  0  0  0999 V2000
   12.6347   -0.8879    0.0000 C   0  0  0  0  0  0  0  0  0  0  0  0
   11.3360   -3.1381    0.0000 C   0  0  0  0  0  0  0  0  0  0  0  0
   -2.9500   -0.8900    0.0000 C   0  0  0  0  0  0  0  0  0  0  0  0
   -2.9500    0.6100    0.0000 C   0  0  0  0  0  0  0  0  0  0  0  0
    4.8381    0.6104    0.0000 C   0  0  0  0  0  0  0  0  0  0  0  0
    6.1370    1.3606    0.0000 C   0  0  0  0  0  0  0  0  0  0  0  0
    3.5389    1.3602    0.0000 C   0  0  0  0  0  0  0  0  0  0  0  0
   -1.6500   -1.6400    0.0000 C   0  0  0  0  0  0  0  0  0  0  0  0
   -1.6500    1.3600    0.0000 C   0  0  0  0  0  0  0  0  0  0  0  0
    2.2400   -0.8900    0.0000 C   0  0  0  0  0  0  0  0  0  0  0  0
    7.4366   -0.8892    0.0000 C   0  0  0  0  0  0  0  0  0  0  0  0
    8.7359    1.3612    0.0000 C   0  0  0  0  0  0  0  0  0  0  0  0
    0.9400   -1.6400    0.0000 C   0  0  0  0  0  0  0  0  0  0  0  0
    8.7369   -1.6388    0.0000 C   0  0  0  0  0  0  0  0  0  0  0  0
   10.0362    0.6117    0.0000 C   0  0  0  0  0  0  0  0  0  0  0  0
    0.9400    1.3600    0.0000 C   0  0  0  0  0  0  0  0  0  0  0  0
    7.4362    0.6108    0.0000 C   0  0  0  0  0  0  0  0  0  0  0  0
    2.2400    0.6100    0.0000 C   0  0  0  0  0  0  0  0  0  0  0  0
   -0.3500   -0.8900    0.0000 C   0  0  0  0  0  0  0  0  0  0  0  0
   -0.3500    0.6100    0.0000 C   0  0  0  0  0  0  0  0  0  0  0  0
   10.0366   -0.8883    0.0000 C   0  0  0  0  0  0  0  0  0  0  0  0
   11.3358   -1.6381    0.0000 N   0  0  0  0  0  0  0  0  0  0  0  0
  4  3  2  0
  6  5  1  0
  7  5  1  0
  8  3  1  0
  9  4  1  0
 13 10  2  0
 14 11  2  0
 15 12  1  0
 17  6  1  0
 17 11  1  0
 17 12  2  0
 18  7  1  0
 18 10  1  0
 18 16  2  0
 19  8  2  0
 19 13  1  0
 20  9  2  0
 20 16  1  0
 20 19  1  0
 21 14  1  0
 21 15  2  0
 22  1  1  0
 22  2  1  0
 22 21  1  0
M  END
>  <NAME>  (873) 
2-(3-(4'-N,N-DIMETHYLAMINOPHENYL)PROPYL)NAPHTHALENE

>  <SYNONYMS>  (873) 


>  <SPECTRUM TYPE>  (873) 
MS1

>  <INSTRUMENT TYPE>  (873) 
EI-B

>  <INSTRUMENT>  (873) 
HITACHI RMU-6M

>  <ION MODE>  (873) 
P

>  <INCHIKEY>  (873) 
CYZHCTJNNRPWQW-UHFFFAOYSA-N

>  <FORMULA>  (873) 
C21H23N

>  <EXACT MASS>  (873) 
289.18304973600004

>  <MW>  (873) 
289

>  <ID>  (873) 
JP010765

>  <CONTRIBUTOR>  (873) 
University of Tokyo Team, {Faculty of Engineering, University of Tokyo

>  <COMMENT>  (873) 
SMILES=CN(C)c(c1)ccc(CCCc(c2)cc(c3)c(ccc3)c2)c1
InChI=InChI=1S/C21H23N/c1-22(2)21-14-11-17(12-15-21)6-5-7-18-10-13-19-8-3-4-9-20(19)16-18/h3-4,8-16H,5-7H2,1-2H3
computed SMILES=C=1C=CC=2C=C(C=CC2C1)CCCC3=CC=C(C=C3)N(C)C
accession=JP010765
date=2016.01.19 (Created 2008.10.21, modified 2011.05.06)
author=YAMAMOTO M, DEP. CHEMISTRY, FAC. SCIENCE, NARA WOMEN'S UNIV.
license=CC BY-NC-SA
exact mass=289.18305
ionization energy=70 eV
ion type=[M]+*
computed spectral entropy=2.7152448637211113
computed normalized entropy=0.6715830900594517
SPLASH=splash10-001r-1920000000-5fe085436e3e4c0a6cde
submitter=submitter = University of Tokyo Team (Faculty of Engineering, University of Tokyo)
MoNA Rating=3.75

>  <NUM PEAKS>  (873) 
57

>  <MASS SPECTRAL PEAKS>  (873) 
39 1.8
41 2.2
42 3.5
43 0.18
51 2
55 1.8
57 1.6
63 0.18
65 3.5
70 1
71 1.4
76 0.12
77 5.3
78 2.2
79 1.6
89 0.22
90 2.7
91 9
92 1.8
102 0.12
103 2.2
104 2.4
105 1.4
115 0.71
116 1.4
117 1.6
118 13.3
119 0.51
120 2.9
121 2
127 2.2
128 0.24
129 1.2
130 1.4
131 1.8
132 0.25
133 3.5
134 99.99
135 14.5
139 0.18
141 6.7
142 3.1
142.5 2.4
146 0.59
147 36.5
148 6.7
149 3.1
152 0.18
153 2
154 2.4
155 1.4
165 0.1
167 1.2
288 2.2
289 49
290 1.14
291 1.4

>  <PREDICTED SPECTRUM>  (873) 
27 41
29 41
38 8
39 194
40 64
41 106
42 154
43 109
44 167
45 39
50 16
51 96
52 40
53 59
55 86
56 22
57 1
58 61
63 97
65 152
66 30
67 42
68 41
69 32
72 54
75 33
77 192
78 105
79 118
81 21
87 0
89 65
90 59
91 284
92 43
95 28
102 72
103 74
104 63
105 58
108 14
109 42
111 21
112 27
113 57
114 17
115 163
116 43
117 64
118 289
119 194
120 49
121 107
126 21
127 54
128 150
129 72
130 103
131 213
132 82
133 77
134 999
135 447
136 8
141 215
142 143
143 106
144 68
145 56
147 723
148 369
149 45
151 83
152 102
153 169
154 176
155 227
156 65
167 0
168 20
171 68
172 36
288 152
289 679
290 222
291 122
292 10

$$$$

     RDKit          2D

 20 22  0  0  0  0  0  0  0  0999 V2000
    3.8989    1.5002    0.0000 C   0  0  0  0  0  0  0  0  0  0  0  0
    2.5976    8.2517    0.0000 C   0  0  0  0  0  0  0  0  0  0  0  0
   -0.0005    8.2517    0.0000 C   0  0  0  0  0  0  0  0  0  0  0  0
   -2.6000   -0.7500    0.0000 C   0  0  0  0  0  0  0  0  0  0  0  0
   -2.6000    0.7500    0.0000 C   0  0  0  0  0  0  0  0  0  0  0  0
   -1.3000   -1.5000    0.0000 C   0  0  0  0  0  0  0  0  0  0  0  0
   -1.3000    1.5000    0.0000 C   0  0  0  0  0  0  0  0  0  0  0  0
    2.6000   -0.7500    0.0000 C   0  0  0  0  0  0  0  0  0  0  0  0
    1.3000   -1.5000    0.0000 C   0  0  0  0  0  0  0  0  0  0  0  0
    2.5989    3.7502    0.0000 C   0  0  0  0  0  0  0  0  0  0  0  0
    0.0004    3.7506    0.0000 C   0  0  0  0  0  0  0  0  0  0  0  0
    2.5982    5.2510    0.0000 C   0  0  0  0  0  0  0  0  0  0  0  0
   -0.0004    5.2515    0.0000 C   0  0  0  0  0  0  0  0  0  0  0  0
    2.6000    0.7500    0.0000 C   0  0  0  0  0  0  0  0  0  0  0  0
    0.0000   -0.7500    0.0000 C   0  0  0  0  0  0  0  0  0  0  0  0
    1.3000    3.0000    0.0000 C   0  0  0  0  0  0  0  0  0  0  0  0
    1.2986    6.0017    0.0000 C   0  0  0  0  0  0  0  0  0  0  0  0
    0.0000    0.7500    0.0000 C   0  0  0  0  0  0  0  0  0  0  0  0
    1.3000    1.5000    0.0000 C   0  0  0  0  0  0  0  0  0  0  0  0
    1.2986    7.5017    0.0000 N   0  0  0  0  0  0  0  0  0  0  0  0
  5  4  2  0
  6  4  1  0
  7  5  1  0
  9  8  2  0
 12 10  2  0
 13 11  1  0
 14  1  1  0
 14  8  1  0
 15  6  2  0
 15  9  1  0
 16 10  1  0
 16 11  2  0
 17 12  1  0
 17 13  2  0
 18  7  2  0
 18 15  1  0
 19 14  2  0
 19 16  1  0
 19 18  1  0
 20  2  1  0
 20  3  1  0
 20 17  1  0
M  END
>  <NAME>  (874) 
2-METHYL-1-(4'-N,N-DIMETHYLAMINOPHENYL)NAPHTHALENE

>  <SYNONYMS>  (874) 


>  <SPECTRUM TYPE>  (874) 
MS1

>  <INSTRUMENT TYPE>  (874) 
EI-B

>  <INSTRUMENT>  (874) 
HITACHI RMU-6M

>  <ION MODE>  (874) 
P

>  <INCHIKEY>  (874) 
CRFQMFFPQGYKHR-UHFFFAOYSA-N

>  <FORMULA>  (874) 
C19H19N

>  <EXACT MASS>  (874) 
261.151749608

>  <MW>  (874) 
261

>  <ID>  (874) 
JP010764

>  <CONTRIBUTOR>  (874) 
University of Tokyo Team, {Faculty of Engineering, University of Tokyo

>  <COMMENT>  (874) 
SMILES=CN(C)c(c3)ccc(c3)c(c(C)1)c(c2)c(ccc2)cc1
InChI=InChI=1S/C19H19N/c1-14-8-9-15-6-4-5-7-18(15)19(14)16-10-12-17(13-11-16)20(2)3/h4-13H,1-3H3
computed SMILES=C=1C=CC2=C(C1)C=CC(=C2C3=CC=C(C=C3)N(C)C)C
accession=JP010764
date=2016.01.19 (Created 2008.10.21, modified 2011.05.06)
author=YAMAMOTO M, DEP. CHEMISTRY, FAC. SCIENCE, NARA WOMEN'S UNIV.
license=CC BY-NC-SA
exact mass=261.15175
ionization energy=70 eV
ion type=[M]+*
computed spectral entropy=2.6215755908217484
computed normalized entropy=0.6771995521376776
SPLASH=splash10-03di-0290000000-875f1082c236b34224cd
submitter=submitter = University of Tokyo Team (Faculty of Engineering, University of Tokyo)
MoNA Rating=3.75

>  <NUM PEAKS>  (874) 
48

>  <MASS SPECTRAL PEAKS>  (874) 
56 1.3
57 1.4
94.5 2
95 0.12
101 3.3
106.5 1.4
107 2
107.5 0.35
108 2.4
114.5 1.3
115 1.8
115.5 0.12
121.5 2
122 2.6
122.5 4.5
123 0.29
128.5 2.6
129 1.8
129.5 6
130 0.76
130.5 9.1
131 2
165 1.4
178 0.13
188 3
189 1.2
190 1.3
200 0.1
201 1.3
202 10.8
203 4.3
204 0.16
213 1.8
214 1.3
215 9.3
216 0.64
217 7.5
218 2.1
230 1.6
231 0.14
245 3
246 5.4
247 4.2
259 0.3
260 29.3
261 99.99
262 23.5
263 2.4

>  <PREDICTED SPECTRUM>  (874) 
17 4
27 37
28 7
29 9
31 3
34 1
38 7
39 80
40 56
41 58
42 119
43 73
44 82
45 10
50 9
51 49
52 11
53 7
55 18
56 6
57 50
58 17
63 65
64 11
65 50
68 5
69 5
74 7
75 55
76 60
77 98
78 20
81 15
82 6
83 21
87 10
88 46
89 63
90 32
91 87
92 13
94 9
95 17
97 9
98 2
100 16
101 65
102 65
103 42
104 62
105 51
106 42
107 49
108 46
109 0
110 29
111 28
112 41
113 67
114 93
115 93
116 25
117 48
118 62
119 45
120 36
121 1
122 9
125 40
126 94
127 91
128 72
129 28
130 53
131 33
132 3
134 20
138 13
139 58
140 24
141 51
142 5
145 10
146 5
148 8
149 62
150 43
151 66
152 61
157 4
158 45
162 21
163 63
164 40
165 67
166 19
174 69
175 19
176 45
177 18
178 42
186 25
187 71
188 48
189 116
190 67
191 19
199 24
200 61
201 76
202 190
203 190
204 97
205 27
213 77
214 84
215 249
216 263
217 316
218 240
219 73
226 35
227 32
228 126
229 116
230 180
231 132
232 68
242 35
243 24
244 181
245 253
246 388
247 183
248 17
259 5
260 509
261 999
262 456
263 136
264 44

$$$$

     RDKit          2D

 13 14  0  0  0  0  0  0  0  0999 V2000
    0.4487    2.2416    0.0000 C   0  0  0  0  0  0  0  0  0  0  0  0
   -2.3100   -0.7500    0.0000 C   0  0  0  0  0  0  0  0  0  0  0  0
   -2.3100    0.7500    0.0000 C   0  0  0  0  0  0  0  0  0  0  0  0
    2.6000    0.0000    0.0000 C   0  0  0  0  0  0  0  0  0  0  0  0
    1.7200    1.2100    0.0000 C   0  0  0  0  0  0  0  0  0  0  0  0
   -1.0100   -1.5000    0.0000 C   0  0  0  0  0  0  0  0  0  0  0  0
    1.7200   -1.2100    0.0000 C   0  0  0  0  0  0  0  0  0  0  0  0
   -1.0100    1.5000    0.0000 C   0  0  0  0  0  0  0  0  0  0  0  0
    0.2900   -0.7500    0.0000 C   0  0  0  0  0  0  0  0  0  0  0  0
    0.2900    0.7500    0.0000 C   0  0  0  0  0  0  0  0  0  0  0  0
   -1.0100   -3.0000    0.0000 O   0  0  0  0  0  0  0  0  0  0  0  0
    2.1853   -2.6360    0.0000 O   0  0  0  0  0  0  0  0  0  0  0  0
   -1.0100    3.0000    0.0000 O   0  0  0  0  0  0  0  0  0  0  0  0
  3  2  1  0
  5  4  1  0
  6  2  1  0
  7  4  1  0
  8  3  1  0
  9  6  1  0
  9  7  1  0
 10  1  1  0
 10  5  1  0
 10  8  1  0
 10  9  1  0
 11  6  1  0
 12  7  2  0
 13  8  2  0
M  END
>  <NAME>  (875) 
5-HYDROXY-1-METHYLBICYCLO(4.3.0)NONANE-2,7-DIONE

>  <SYNONYMS>  (875) 


>  <SPECTRUM TYPE>  (875) 
MS1

>  <INSTRUMENT TYPE>  (875) 
EI-B

>  <INSTRUMENT>  (875) 
HITACHI RMU-6M

>  <ION MODE>  (875) 
P

>  <INCHIKEY>  (875) 
GKIBMSXDKANYOB-UHFFFAOYSA-N

>  <FORMULA>  (875) 
C10H14O3

>  <EXACT MASS>  (875) 
182.09429430799997

>  <MW>  (875) 
182

>  <ID>  (875) 
JP010763

>  <CONTRIBUTOR>  (875) 
University of Tokyo Team, {Faculty of Engineering, University of Tokyo

>  <COMMENT>  (875) 
SMILES=OC(C1)C(C(=O)2)C(C)(CC2)C(=O)C1
InChI=InChI=1S/C10H14O3/c1-10-5-4-7(12)9(10)6(11)2-3-8(10)13/h6,9,11H,2-5H2,1H3
computed SMILES=O=C1CCC2(C(=O)CCC(O)C12)C
accession=JP010763
date=2016.01.19 (Created 2008.10.21, modified 2011.05.06)
author=YAMAMOTO M, DEP. CHEMISTRY, FAC. SCIENCE, NARA WOMEN'S UNIV.
license=CC BY-NC-SA
exact mass=182.09429
ionization energy=70 eV
ion type=[M]+*
computed spectral entropy=3.4894535051084974
computed normalized entropy=0.8107343707738319
SPLASH=splash10-057m-9500000000-aefebd9cffc6a6d3de5d
submitter=submitter = University of Tokyo Team (Faculty of Engineering, University of Tokyo)
MoNA Rating=3.75

>  <NUM PEAKS>  (875) 
74

>  <MASS SPECTRAL PEAKS>  (875) 
26 4
27 34.9
28 25.1
29 1.74
31 4.3
38 1.7
39 25.3
40 0.58
41 47.3
42 9.8
43 52.2
44 0.2
45 2.1
50 1.8
51 5.6
52 0.34
53 14.5
54 5.1
55 28.4
56 1.7
57 7.8
58 2.6
59 1
63 0.15
65 3.9
66 2.4
67 8.9
68 0.28
69 44.3
70 11
71 17.1
72 0.1
77 6.2
78 1.5
79 20.1
80 0.47
81 12.3
82 4.3
83 14.6
84 2.9
85 5.1
91 2.9
93 6.3
94 1.02
95 37.8
96 7.9
97 50.6
98 1.08
99 3.5
104 1.2
107 4.8
108 0.3
109 39.6
110 8.2
111 10.9
112 1.16
113 21.9
114 1.5
121 5.4
122 2.16
123 19.3
124 6.7
125 99.99
126 1.63
136 4.6
137 2.3
139 3.7
140 0.5
154 1.7
164 3.9
165 1.8
167 0.36
182 84.2
183 10.8

>  <PREDICTED SPECTRUM>  (875) 
26 70
27 288
28 165
29 237
31 75
38 45
39 434
40 222
41 768
42 361
43 607
44 32
45 75
50 65
51 185
52 127
53 434
54 217
55 765
56 153
57 518
58 64
60 106
61 18
63 8
65 199
66 114
67 425
68 387
69 828
70 464
71 336
72 25
77 124
78 65
79 309
80 72
81 474
82 297
83 436
84 231
85 295
86 39
87 26
91 134
93 188
94 84
95 619
96 360
97 641
98 231
99 92
105 22
107 225
108 323
109 450
110 248
111 462
112 235
113 280
121 205
122 76
123 566
124 188
125 883
126 400
127 108
135 53
136 153
138 168
139 193
140 67
153 33
154 151
155 8
164 272
165 79
167 64
182 999
183 316

$$$$

     RDKit          2D

 15 14  0  0  0  0  0  0  0  0999 V2000
    4.5466    7.1250    0.0000 C   0  0  0  0  0  0  0  0  0  0  0  0
  -12.3409    7.8750    0.0000 C   0  0  0  0  0  0  0  0  0  0  0  0
    3.2476    7.8750    0.0000 C   0  0  0  0  0  0  0  0  0  0  0  0
    1.9486    7.1250    0.0000 C   0  0  0  0  0  0  0  0  0  0  0  0
    0.6495    7.8750    0.0000 C   0  0  0  0  0  0  0  0  0  0  0  0
   -0.6495    7.1250    0.0000 C   0  0  0  0  0  0  0  0  0  0  0  0
   -1.9486    7.8750    0.0000 C   0  0  0  0  0  0  0  0  0  0  0  0
   -3.2476    7.1250    0.0000 C   0  0  0  0  0  0  0  0  0  0  0  0
   -4.5466    7.8750    0.0000 C   0  0  0  0  0  0  0  0  0  0  0  0
   -5.8457    7.1250    0.0000 C   0  0  0  0  0  0  0  0  0  0  0  0
   -7.1447    7.8750    0.0000 C   0  0  0  0  0  0  0  0  0  0  0  0
   -8.4437    7.1250    0.0000 C   0  0  0  0  0  0  0  0  0  0  0  0
   -9.7428    7.8750    0.0000 C   0  0  0  0  0  0  0  0  0  0  0  0
   -9.7428    9.3750    0.0000 O   0  0  0  0  0  0  0  0  0  0  0  0
  -11.0418    7.1250    0.0000 O   0  0  0  0  0  0  0  0  0  0  0  0
  3  1  1  0
  4  3  1  0
  5  4  1  0
  6  5  1  0
  7  6  1  0
  8  7  1  0
  9  8  1  0
 10  9  1  0
 11 10  1  0
 12 11  1  0
 13 12  1  0
 14 13  2  0
 15  2  1  0
 15 13  1  0
M  END
>  <NAME>  (876) 
METHYL LAURATE

>  <SYNONYMS>  (876) 


>  <SPECTRUM TYPE>  (876) 
MS1

>  <INSTRUMENT TYPE>  (876) 
EI-B

>  <INSTRUMENT>  (876) 
HITACHI RMU-6M

>  <ION MODE>  (876) 
P

>  <INCHIKEY>  (876) 
UQDUPQYQJKYHQI-UHFFFAOYSA-N

>  <FORMULA>  (876) 
C13H26O2

>  <EXACT MASS>  (876) 
214.193280072

>  <MW>  (876) 
214

>  <ID>  (876) 
JP010762

>  <CONTRIBUTOR>  (876) 
University of Tokyo Team, {Faculty of Engineering, University of Tokyo

>  <COMMENT>  (876) 
SMILES=CCCCCCCCCCCC(=O)OC
InChI=InChI=1S/C13H26O2/c1-3-4-5-6-7-8-9-10-11-12-13(14)15-2/h3-12H2,1-2H3
computed SMILES=O=C(OC)CCCCCCCCCCC
accession=JP010762
date=2016.01.19 (Created 2008.10.21, modified 2011.05.06)
author=YAMAMOTO M, DEP. CHEMISTRY, FAC. SCIENCE, NARA WOMEN'S UNIV.
license=CC BY-NC-SA
exact mass=214.19328
ionization energy=70 eV
ion type=[M]+*
computed spectral entropy=2.8545561364953675
computed normalized entropy=0.7373825664056397
SPLASH=splash10-00di-9100000000-a72fa480b862482b6e87
submitter=submitter = University of Tokyo Team (Faculty of Engineering, University of Tokyo)
MoNA Rating=3.75

>  <NUM PEAKS>  (876) 
48

>  <MASS SPECTRAL PEAKS>  (876) 
27 5.7
28 1.8
29 13.9
39 0.39
41 22.5
42 4.7
43 21.2
45 0.16
53 1.4
54 1.6
55 17.6
56 0.37
57 10.4
59 5.9
67 2
68 0.1
69 8.2
70 1.8
71 3.5
73 0.2
74 99.99
75 14.5
76 1
81 0.14
83 4.5
84 2.7
85 2.2
87 5.02
89 6.1
95 1.4
97 3.5
98 0.25
101 4.7
111 1.2
115 3.1
116 0.1
129 4.9
140 1.4
143 8.6
144 0.1
157 1.8
171 6.1
172 1.2
183 0.67
184 1
185 1.4
214 12.5
215 2.2

>  <PREDICTED SPECTRUM>  (876) 
14 6
15 106
16 16
17 35
18 65
26 34
27 234
28 160
29 298
30 25
31 52
32 54
33 27
34 6
37 5
38 30
39 253
40 128
41 577
42 304
43 619
44 141
45 119
50 8
51 77
52 45
53 203
54 213
55 687
56 380
57 516
58 98
59 338
60 108
61 109
62 25
65 51
66 21
67 246
68 191
69 488
70 256
71 306
72 69
73 197
74 999
75 468
76 94
77 81
78 4
79 129
80 62
81 271
82 218
83 435
84 338
85 273
86 29
87 803
88 211
91 14
93 42
94 61
95 234
96 257
97 379
98 293
99 145
100 14
101 167
102 80
103 58
107 62
108 42
109 121
110 86
111 235
112 165
113 137
114 40
115 259
116 110
117 81
118 14
120 4
121 80
122 22
123 105
124 30
125 108
126 30
128 71
129 281
130 73
131 77
138 136
139 185
140 139
141 157
142 27
143 158
144 117
146 23
149 45
153 13
154 48
155 14
157 183
158 66
159 10
164 37
165 127
166 0
171 326
172 122
173 7
182 113
183 328
184 131
185 112
186 5
199 58
214 211
215 74

$$$$

     RDKit          2D

 16 15  0  0  0  0  0  0  0  0999 V2000
    4.5466    7.8750    0.0000 C   0  0  0  0  0  0  0  0  0  0  0  0
  -13.6399    7.8750    0.0000 C   0  0  0  0  0  0  0  0  0  0  0  0
    3.2476    8.6250    0.0000 C   0  0  0  0  0  0  0  0  0  0  0  0
  -12.3409    8.6250    0.0000 C   0  0  0  0  0  0  0  0  0  0  0  0
    1.9486    7.8750    0.0000 C   0  0  0  0  0  0  0  0  0  0  0  0
    0.6495    8.6250    0.0000 C   0  0  0  0  0  0  0  0  0  0  0  0
   -0.6495    7.8750    0.0000 C   0  0  0  0  0  0  0  0  0  0  0  0
   -1.9486    8.6250    0.0000 C   0  0  0  0  0  0  0  0  0  0  0  0
   -3.2476    7.8750    0.0000 C   0  0  0  0  0  0  0  0  0  0  0  0
   -4.5466    8.6250    0.0000 C   0  0  0  0  0  0  0  0  0  0  0  0
   -5.8457    7.8750    0.0000 C   0  0  0  0  0  0  0  0  0  0  0  0
   -7.1447    8.6250    0.0000 C   0  0  0  0  0  0  0  0  0  0  0  0
   -8.4437    7.8750    0.0000 C   0  0  0  0  0  0  0  0  0  0  0  0
   -9.7428    8.6250    0.0000 C   0  0  0  0  0  0  0  0  0  0  0  0
   -9.7428   10.1250    0.0000 O   0  0  0  0  0  0  0  0  0  0  0  0
  -11.0418    7.8750    0.0000 O   0  0  0  0  0  0  0  0  0  0  0  0
  3  1  1  0
  4  2  1  0
  5  3  1  0
  6  5  1  0
  7  6  1  0
  8  7  1  0
  9  8  1  0
 10  9  1  0
 11 10  1  0
 12 11  1  0
 13 12  1  0
 14 13  1  0
 15 14  2  0
 16  4  1  0
 16 14  1  0
M  END
>  <NAME>  (877) 
ETHYL LAURATE

>  <SYNONYMS>  (877) 


>  <SPECTRUM TYPE>  (877) 
MS1

>  <INSTRUMENT TYPE>  (877) 
EI-B

>  <INSTRUMENT>  (877) 
HITACHI RMU-6M

>  <ION MODE>  (877) 
P

>  <INCHIKEY>  (877) 
MMXKVMNBHPAILY-UHFFFAOYSA-N

>  <FORMULA>  (877) 
C14H28O2

>  <EXACT MASS>  (877) 
228.208930136

>  <MW>  (877) 
228

>  <ID>  (877) 
JP010761

>  <CONTRIBUTOR>  (877) 
University of Tokyo Team, {Faculty of Engineering, University of Tokyo

>  <COMMENT>  (877) 
SMILES=CCCCCCCCCCCC(=O)OCC
InChI=InChI=1S/C14H28O2/c1-3-5-6-7-8-9-10-11-12-13-14(15)16-4-2/h3-13H2,1-2H3
computed SMILES=O=C(OCC)CCCCCCCCCCC
accession=JP010761
date=2016.01.19 (Created 2008.10.21, modified 2011.05.06)
author=YAMAMOTO M, DEP. CHEMISTRY, FAC. SCIENCE, NARA WOMEN'S UNIV.
license=CC BY-NC-SA
exact mass=228.20893
ionization energy=70 eV
ion type=[M]+*
computed spectral entropy=3.065805347044045
computed normalized entropy=0.758290000286364
SPLASH=splash10-000i-9200000000-9c0b8381b214359f116b
submitter=submitter = University of Tokyo Team (Faculty of Engineering, University of Tokyo)
MoNA Rating=3.75

>  <NUM PEAKS>  (877) 
57

>  <MASS SPECTRAL PEAKS>  (877) 
27 7.3
28 2.6
29 22.7
39 0.33
40 1.1
41 24.9
42 7
43 2.67
44 1.1
45 7.3
53 1.8
54 0.18
55 17.6
56 4.4
57 14.7
59 0.11
60 12.1
61 14.7
67 2.2
68 0.15
69 8.8
70 13.2
71 5.1
73 1.47
74 2.2
81 1.8
82 1.1
83 0.59
84 3.7
85 3.3
87 2.2
88 99.99
89 12.8
90 1.1
95 2.2
97 0.44
98 2.9
101 38.8
102 3.7
109 0.15
111 1.5
115 4.8
125 1.1
129 0.33
130 1.1
143 4.8
144 1.1
157 0.84
158 1.1
171 1.5
183 9.9
184 0.15
185 5.9
186 1.5
199 2.2
228 1.5
229 2.6

>  <PREDICTED SPECTRUM>  (877) 
17 5
18 14
26 7
27 172
28 42
29 307
30 7
39 140
40 54
41 410
42 203
43 498
44 63
45 184
46 21
51 16
52 27
53 117
54 119
55 506
56 256
57 407
58 133
59 109
60 391
61 354
62 18
65 26
66 17
67 169
68 90
69 348
70 304
71 248
72 35
73 356
74 111
75 91
76 8
77 57
79 94
80 34
81 161
82 71
83 323
84 244
85 132
86 45
87 160
88 999
89 373
90 107
93 59
94 9
95 163
96 93
97 244
98 177
99 59
101 751
102 156
103 67
105 7
107 23
109 114
110 44
111 163
115 282
116 56
121 67
122 30
123 89
124 34
125 115
126 5
129 285
130 161
135 24
137 4
138 29
139 97
140 44
141 72
142 29
143 229
144 81
149 76
157 272
165 28
171 251
172 123
181 81
182 3
183 490
184 107
185 287
186 81
199 177
200 64
201 2
213 62
227 30
228 272
229 140
230 45

$$$$

     RDKit          2D

 18 17  0  0  0  0  0  0  0  0999 V2000
  -15.5885    9.0000    0.0000 C   0  0  0  0  0  0  0  0  0  0  0  0
    5.1962    9.0000    0.0000 C   0  0  0  0  0  0  0  0  0  0  0  0
  -14.2894    8.2500    0.0000 C   0  0  0  0  0  0  0  0  0  0  0  0
    3.8971    8.2500    0.0000 C   0  0  0  0  0  0  0  0  0  0  0  0
  -12.9904    9.0000    0.0000 C   0  0  0  0  0  0  0  0  0  0  0  0
    2.5981    9.0000    0.0000 C   0  0  0  0  0  0  0  0  0  0  0  0
  -11.6913    8.2500    0.0000 C   0  0  0  0  0  0  0  0  0  0  0  0
  -10.3923    9.0000    0.0000 C   0  0  0  0  0  0  0  0  0  0  0  0
   -9.0933    8.2500    0.0000 C   0  0  0  0  0  0  0  0  0  0  0  0
   -7.7942    9.0000    0.0000 C   0  0  0  0  0  0  0  0  0  0  0  0
   -6.4952    8.2500    0.0000 C   0  0  0  0  0  0  0  0  0  0  0  0
   -5.1962    9.0000    0.0000 C   0  0  0  0  0  0  0  0  0  0  0  0
   -3.8971    8.2500    0.0000 C   0  0  0  0  0  0  0  0  0  0  0  0
   -2.5981    9.0000    0.0000 C   0  0  0  0  0  0  0  0  0  0  0  0
    1.2990    8.2500    0.0000 C   0  0  0  0  0  0  0  0  0  0  0  0
   -1.2990    8.2500    0.0000 C   0  0  0  0  0  0  0  0  0  0  0  0
   -1.2990    6.7500    0.0000 O   0  0  0  0  0  0  0  0  0  0  0  0
    0.0000    9.0000    0.0000 O   0  0  0  0  0  0  0  0  0  0  0  0
  3  1  1  0
  4  2  1  0
  5  3  1  0
  6  4  1  0
  7  5  1  0
  8  7  1  0
  9  8  1  0
 10  9  1  0
 11 10  1  0
 12 11  1  0
 13 12  1  0
 14 13  1  0
 15  6  1  0
 16 14  1  0
 17 16  2  0
 18 15  1  0
 18 16  1  0
M  END
>  <NAME>  (878) 
BUTYL LAURATE

>  <SYNONYMS>  (878) 


>  <SPECTRUM TYPE>  (878) 
MS1

>  <INSTRUMENT TYPE>  (878) 
EI-B

>  <INSTRUMENT>  (878) 
HITACHI RMU-6M

>  <ION MODE>  (878) 
P

>  <INCHIKEY>  (878) 
NDKYEUQMPZIGFN-UHFFFAOYSA-N

>  <FORMULA>  (878) 
C16H32O2

>  <EXACT MASS>  (878) 
256.240230264

>  <MW>  (878) 
256

>  <ID>  (878) 
JP010760

>  <CONTRIBUTOR>  (878) 
University of Tokyo Team, {Faculty of Engineering, University of Tokyo

>  <COMMENT>  (878) 
SMILES=CCCCCCCCCCCC(=O)OCCCC
InChI=InChI=1S/C16H32O2/c1-3-5-7-8-9-10-11-12-13-14-16(17)18-15-6-4-2/h3-15H2,1-2H3
computed SMILES=O=C(OCCCC)CCCCCCCCCCC
accession=JP010760
date=2016.01.19 (Created 2008.10.21, modified 2011.05.06)
author=YAMAMOTO M, DEP. CHEMISTRY, FAC. SCIENCE, NARA WOMEN'S UNIV.
license=CC BY-NC-SA
exact mass=256.24023
ionization energy=70 eV
ion type=[M]+*
computed spectral entropy=3.0276831503051325
computed normalized entropy=0.7488609344117353
SPLASH=splash10-0a4i-9110000000-fddb478401344cb3bb38
submitter=submitter = University of Tokyo Team (Faculty of Engineering, University of Tokyo)
MoNA Rating=3.75

>  <NUM PEAKS>  (878) 
57

>  <MASS SPECTRAL PEAKS>  (878) 
27 7.6
28 2.2
29 24.9
39 0.44
40 1.3
41 33.3
42 6.2
43 3.02
44 1.3
53 1.3
54 2.2
55 1.91
56 99.99
57 41.8
58 1.8
60 2.09
61 12.9
67 2.7
68 1.8
69 0.8
70 4.4
71 10.2
73 19.1
74 0.22
81 2.2
83 6.2
84 3.6
85 0.58
87 4
89 1.3
95 3.1
96 0.13
97 4.4
98 4
99 1.3
101 0.62
103 1.3
109 1.8
111 1.8
112 0.13
115 3.1
116 12
117 4
129 0.93
130 1.3
139 1.3
143 1.8
157 0.4
171 2.2
183 18.2
184 2.7
185 0.18
200 5.8
201 31.6
202 4
213 0.13
256 5.8

>  <PREDICTED SPECTRUM>  (878) 
18 12
25 1
26 29
27 192
28 174
29 471
30 33
31 60
36 21
37 26
38 25
39 236
40 102
41 621
42 266
43 439
44 120
45 116
46 27
49 13
50 9
51 75
52 45
53 148
54 220
55 587
56 999
57 805
58 176
59 129
60 530
61 514
62 74
63 3
65 90
66 66
67 226
68 176
69 413
70 218
71 330
72 75
73 487
74 91
75 41
77 73
79 160
80 61
81 246
82 139
83 438
84 241
85 270
86 83
87 249
88 143
89 57
90 43
93 156
94 69
95 246
96 172
97 364
98 221
99 112
100 87
101 351
102 135
107 42
108 21
109 142
110 33
111 251
112 81
113 93
115 298
116 269
117 378
121 48
123 89
124 38
125 72
126 13
127 45
129 463
130 118
135 44
136 33
137 40
138 115
139 150
140 98
141 93
143 152
144 24
153 33
156 10
157 290
158 87
163 141
164 153
165 136
166 10
171 151
172 124
181 103
182 59
183 663
184 263
185 74
199 164
200 245
201 752
202 237
203 61
213 65
227 4
256 155
257 65

$$$$

     RDKit          2D

 18 17  0  0  0  0  0  0  0  0999 V2000
    4.8714    8.8125    0.0000 C   0  0  0  0  0  0  0  0  0  0  0  0
  -14.6142    9.5625    0.0000 C   0  0  0  0  0  0  0  0  0  0  0  0
  -13.3151    7.3125    0.0000 C   0  0  0  0  0  0  0  0  0  0  0  0
    3.5724    9.5625    0.0000 C   0  0  0  0  0  0  0  0  0  0  0  0
    2.2733    8.8125    0.0000 C   0  0  0  0  0  0  0  0  0  0  0  0
    0.9743    9.5625    0.0000 C   0  0  0  0  0  0  0  0  0  0  0  0
   -0.3248    8.8125    0.0000 C   0  0  0  0  0  0  0  0  0  0  0  0
   -1.6238    9.5625    0.0000 C   0  0  0  0  0  0  0  0  0  0  0  0
   -2.9228    8.8125    0.0000 C   0  0  0  0  0  0  0  0  0  0  0  0
   -4.2219    9.5625    0.0000 C   0  0  0  0  0  0  0  0  0  0  0  0
   -5.5209    8.8125    0.0000 C   0  0  0  0  0  0  0  0  0  0  0  0
   -6.8200    9.5625    0.0000 C   0  0  0  0  0  0  0  0  0  0  0  0
   -8.1190    8.8125    0.0000 C   0  0  0  0  0  0  0  0  0  0  0  0
  -12.0161    9.5625    0.0000 C   0  0  0  0  0  0  0  0  0  0  0  0
  -13.3151    8.8125    0.0000 C   0  0  0  0  0  0  0  0  0  0  0  0
   -9.4180    9.5625    0.0000 C   0  0  0  0  0  0  0  0  0  0  0  0
   -9.4180   11.0625    0.0000 O   0  0  0  0  0  0  0  0  0  0  0  0
  -10.7171    8.8125    0.0000 O   0  0  0  0  0  0  0  0  0  0  0  0
  4  1  1  0
  5  4  1  0
  6  5  1  0
  7  6  1  0
  8  7  1  0
  9  8  1  0
 10  9  1  0
 11 10  1  0
 12 11  1  0
 13 12  1  0
 15  2  1  0
 15  3  1  0
 15 14  1  0
 16 13  1  0
 17 16  2  0
 18 14  1  0
 18 16  1  0
M  END
>  <NAME>  (879) 
ISOBUTYL LAURATE

>  <SYNONYMS>  (879) 


>  <SPECTRUM TYPE>  (879) 
MS1

>  <INSTRUMENT TYPE>  (879) 
EI-B

>  <INSTRUMENT>  (879) 
HITACHI RMU-6M

>  <ION MODE>  (879) 
P

>  <INCHIKEY>  (879) 
SZFOMJOELAAHAF-UHFFFAOYSA-N

>  <FORMULA>  (879) 
C16H32O2

>  <EXACT MASS>  (879) 
256.240230264

>  <MW>  (879) 
256

>  <ID>  (879) 
JP010759

>  <CONTRIBUTOR>  (879) 
University of Tokyo Team, {Faculty of Engineering, University of Tokyo

>  <COMMENT>  (879) 
SMILES=CCCCCCCCCCCC(=O)OCC(C)C
InChI=InChI=1S/C16H32O2/c1-4-5-6-7-8-9-10-11-12-13-16(17)18-14-15(2)3/h15H,4-14H2,1-3H3
computed SMILES=O=C(OCC(C)C)CCCCCCCCCCC
accession=JP010759
date=2016.01.19 (Created 2008.10.21, modified 2011.05.06)
author=YAMAMOTO M, DEP. CHEMISTRY, FAC. SCIENCE, NARA WOMEN'S UNIV.
license=CC BY-NC-SA
exact mass=256.24023
ionization energy=70 eV
ion type=[M]+*
computed spectral entropy=3.0386130623712937
computed normalized entropy=0.7548689644596872
SPLASH=splash10-0a4l-9110000000-b7596fdd8c457d218a04
submitter=submitter = University of Tokyo Team (Faculty of Engineering, University of Tokyo)
MoNA Rating=3.75

>  <NUM PEAKS>  (879) 
56

>  <MASS SPECTRAL PEAKS>  (879) 
27 7.2
28 2.5
29 23.8
31 0.1
39 4.4
40 1.1
41 37.9
42 0.7
43 32.4
44 1.3
45 1.1
53 0.11
54 1.9
55 18.1
56 99.99
57 8.04
58 3.4
60 19.2
61 7.2
67 0.25
68 1.7
69 7.6
70 5.1
71 1.03
72 1
73 11.2
74 1.9
81 0.23
82 1.1
83 6.1
84 3.6
85 0.72
86 1.1
87 3.4
95 3.2
96 0.1
97 4.6
98 4.4
99 1.7
101 0.29
109 1.7
111 1.7
112 1
115 0.3
116 8.4
117 2.7
125 1
129 0.61
143 1.7
157 4.2
183 29.9
184 0.42
200 13.7
201 24.2
202 3.2
256 2.7

>  <PREDICTED SPECTRUM>  (879) 
17 4
18 22
25 17
26 59
27 267
28 214
29 547
30 69
31 103
36 20
37 48
38 60
39 297
40 130
41 690
42 302
43 658
44 127
45 100
46 15
50 7
51 60
52 45
53 157
54 231
55 577
56 961
57 999
58 265
59 133
60 481
61 426
62 45
63 12
64 15
65 91
66 90
67 215
68 188
69 396
70 241
71 390
72 104
73 452
74 79
75 32
77 55
79 122
80 55
81 228
82 133
83 362
84 198
85 274
86 84
87 254
88 105
89 70
90 10
92 5
93 135
94 70
95 243
96 185
97 315
98 223
99 79
100 99
101 312
102 146
107 69
109 162
110 53
111 203
112 83
113 106
115 252
116 255
117 305
121 25
123 91
124 59
125 78
126 34
127 46
129 361
130 107
137 12
138 98
139 123
140 112
141 96
143 116
153 44
155 17
156 22
157 244
158 44
163 55
164 55
165 143
166 27
171 93
172 88
181 48
182 37
183 662
184 275
185 37
199 105
200 336
201 708
202 276
203 100
241 4
256 100
257 15

$$$$

     RDKit          2D

 19 18  0  0  0  0  0  0  0  0999 V2000
  -16.2380   10.1250    0.0000 C   0  0  0  0  0  0  0  0  0  0  0  0
    5.8457    9.3750    0.0000 C   0  0  0  0  0  0  0  0  0  0  0  0
  -14.9389    9.3750    0.0000 C   0  0  0  0  0  0  0  0  0  0  0  0
    4.5466   10.1250    0.0000 C   0  0  0  0  0  0  0  0  0  0  0  0
  -13.6399   10.1250    0.0000 C   0  0  0  0  0  0  0  0  0  0  0  0
    3.2476    9.3750    0.0000 C   0  0  0  0  0  0  0  0  0  0  0  0
  -12.3409    9.3750    0.0000 C   0  0  0  0  0  0  0  0  0  0  0  0
  -11.0418   10.1250    0.0000 C   0  0  0  0  0  0  0  0  0  0  0  0
   -9.7428    9.3750    0.0000 C   0  0  0  0  0  0  0  0  0  0  0  0
   -8.4437   10.1250    0.0000 C   0  0  0  0  0  0  0  0  0  0  0  0
   -7.1447    9.3750    0.0000 C   0  0  0  0  0  0  0  0  0  0  0  0
   -5.8457   10.1250    0.0000 C   0  0  0  0  0  0  0  0  0  0  0  0
   -4.5466    9.3750    0.0000 C   0  0  0  0  0  0  0  0  0  0  0  0
    1.9486   10.1250    0.0000 C   0  0  0  0  0  0  0  0  0  0  0  0
   -3.2476   10.1250    0.0000 C   0  0  0  0  0  0  0  0  0  0  0  0
    0.6495    9.3750    0.0000 C   0  0  0  0  0  0  0  0  0  0  0  0
   -1.9486    9.3750    0.0000 C   0  0  0  0  0  0  0  0  0  0  0  0
   -1.9486    7.8750    0.0000 O   0  0  0  0  0  0  0  0  0  0  0  0
   -0.6495   10.1250    0.0000 O   0  0  0  0  0  0  0  0  0  0  0  0
  3  1  1  0
  4  2  1  0
  5  3  1  0
  6  4  1  0
  7  5  1  0
  8  7  1  0
  9  8  1  0
 10  9  1  0
 11 10  1  0
 12 11  1  0
 13 12  1  0
 14  6  1  0
 15 13  1  0
 16 14  1  0
 17 15  1  0
 18 17  2  0
 19 16  1  0
 19 17  1  0
M  END
>  <NAME>  (880) 
PENTYL LAURATE

>  <SYNONYMS>  (880) 


>  <SPECTRUM TYPE>  (880) 
MS1

>  <INSTRUMENT TYPE>  (880) 
EI-B

>  <INSTRUMENT>  (880) 
HITACHI RMU-6M

>  <ION MODE>  (880) 
P

>  <INCHIKEY>  (880) 
PQWBDPUBNMEITD-UHFFFAOYSA-N

>  <FORMULA>  (880) 
C17H34O2

>  <EXACT MASS>  (880) 
270.255880328

>  <MW>  (880) 
270

>  <ID>  (880) 
JP010758

>  <CONTRIBUTOR>  (880) 
University of Tokyo Team, {Faculty of Engineering, University of Tokyo

>  <COMMENT>  (880) 
SMILES=CCCCCCCCCCCC(=O)OCCCCC
InChI=InChI=1S/C17H34O2/c1-3-5-7-8-9-10-11-12-13-15-17(18)19-16-14-6-4-2/h3-16H2,1-2H3
computed SMILES=O=C(OCCCCC)CCCCCCCCCCC
accession=JP010758
date=2016.01.19 (Created 2008.10.21, modified 2011.05.06)
author=YAMAMOTO M, DEP. CHEMISTRY, FAC. SCIENCE, NARA WOMEN'S UNIV.
license=CC BY-NC-SA
exact mass=270.25588
ionization energy=70 eV
ion type=[M]+*
computed spectral entropy=3.109381177617397
computed normalized entropy=0.7594331962940267
SPLASH=splash10-00dl-9110000000-f4d172de1bd8c7dcffa2
submitter=submitter = University of Tokyo Team (Faculty of Engineering, University of Tokyo)
MoNA Rating=3.75

>  <NUM PEAKS>  (880) 
60

>  <MASS SPECTRAL PEAKS>  (880) 
27 6.9
28 2.4
29 18.6
39 0.37
41 29.2
42 16.6
43 66.5
44 0.22
45 1.1
53 1.7
54 2.2
55 2.42
56 5.2
57 24
58 1.3
59 0.11
60 16.2
61 17.7
67 2.6
68 0.19
69 11
70 99.99
71 26.6
72 0.17
73 17.3
74 1.7
81 1.9
82 0.11
83 6
84 4.1
85 6.9
87 0.37
89 1.1
95 2.8
96 1.1
97 0.48
98 4.1
99 1.5
101 3.2
102 0.3
103 1.3
109 1.7
111 2.2
112 0.11
115 6.3
129 5
130 9.3
131 0.3
138 1.1
143 4.3
157 3.9
171 0.19
183 17.7
184 2.6
199 1.7
200 0.78
201 41.7
202 5.8
270 5.8
271 1.5

>  <PREDICTED SPECTRUM>  (880) 
15 2
17 4
18 19
25 17
26 78
27 323
28 176
29 511
30 93
31 107
32 1
35 11
36 39
37 41
38 67
39 330
40 154
41 805
42 478
43 999
44 200
45 146
46 20
47 4
50 15
51 32
52 34
53 169
54 277
55 862
56 761
57 920
58 202
59 118
60 464
61 633
62 95
65 62
66 74
67 297
68 358
69 725
70 767
71 670
72 181
73 549
74 110
75 71
76 12
77 41
78 12
79 117
80 71
81 260
82 367
83 658
84 624
85 419
86 131
87 306
88 134
89 184
90 11
91 45
93 93
94 64
95 206
96 243
97 533
98 553
99 348
100 88
101 211
102 145
103 133
104 17
105 32
106 23
107 45
109 110
110 155
111 352
112 364
113 126
114 73
115 236
116 264
117 261
118 33
121 35
123 67
124 40
125 206
126 218
127 157
128 37
129 345
130 99
131 79
134 5
135 63
137 23
138 78
139 112
140 102
141 161
143 171
144 78
145 71
146 19
152 36
153 82
154 161
155 228
156 75
157 134
158 95
159 243
160 50
167 35
168 39
169 101
170 37
171 113
172 96
173 169
174 70
179 4
180 12
181 21
182 26
183 72
184 11
185 16
186 38
187 221
188 78
199 38
200 20
201 108
202 30
211 6
213 45
227 43
270 76
271 48

$$$$

     RDKit          2D

 19 18  0  0  0  0  0  0  0  0999 V2000
  -15.5885    9.0000    0.0000 C   0  0  0  0  0  0  0  0  0  0  0  0
    5.1962    9.0000    0.0000 C   0  0  0  0  0  0  0  0  0  0  0  0
    3.8971    6.7500    0.0000 C   0  0  0  0  0  0  0  0  0  0  0  0
  -14.2894    8.2500    0.0000 C   0  0  0  0  0  0  0  0  0  0  0  0
  -12.9904    9.0000    0.0000 C   0  0  0  0  0  0  0  0  0  0  0  0
  -11.6913    8.2500    0.0000 C   0  0  0  0  0  0  0  0  0  0  0  0
  -10.3923    9.0000    0.0000 C   0  0  0  0  0  0  0  0  0  0  0  0
   -9.0933    8.2500    0.0000 C   0  0  0  0  0  0  0  0  0  0  0  0
   -7.7942    9.0000    0.0000 C   0  0  0  0  0  0  0  0  0  0  0  0
   -6.4952    8.2500    0.0000 C   0  0  0  0  0  0  0  0  0  0  0  0
   -5.1962    9.0000    0.0000 C   0  0  0  0  0  0  0  0  0  0  0  0
   -3.8971    8.2500    0.0000 C   0  0  0  0  0  0  0  0  0  0  0  0
   -2.5981    9.0000    0.0000 C   0  0  0  0  0  0  0  0  0  0  0  0
    2.5981    9.0000    0.0000 C   0  0  0  0  0  0  0  0  0  0  0  0
    1.2990    8.2500    0.0000 C   0  0  0  0  0  0  0  0  0  0  0  0
    3.8971    8.2500    0.0000 C   0  0  0  0  0  0  0  0  0  0  0  0
   -1.2990    8.2500    0.0000 C   0  0  0  0  0  0  0  0  0  0  0  0
   -1.2990    6.7500    0.0000 O   0  0  0  0  0  0  0  0  0  0  0  0
    0.0000    9.0000    0.0000 O   0  0  0  0  0  0  0  0  0  0  0  0
  4  1  1  0
  5  4  1  0
  6  5  1  0
  7  6  1  0
  8  7  1  0
  9  8  1  0
 10  9  1  0
 11 10  1  0
 12 11  1  0
 13 12  1  0
 15 14  1  0
 16  2  1  0
 16  3  1  0
 16 14  1  0
 17 13  1  0
 18 17  2  0
 19 15  1  0
 19 17  1  0
M  END
>  <NAME>  (881) 
ISOPENTYL LAURATE

>  <SYNONYMS>  (881) 


>  <SPECTRUM TYPE>  (881) 
MS1

>  <INSTRUMENT TYPE>  (881) 
EI-B

>  <INSTRUMENT>  (881) 
HITACHI RMU-6M

>  <ION MODE>  (881) 
P

>  <INCHIKEY>  (881) 
FVKRIDSRWFEQME-UHFFFAOYSA-N

>  <FORMULA>  (881) 
C17H34O2

>  <EXACT MASS>  (881) 
270.255880328

>  <MW>  (881) 
270

>  <ID>  (881) 
JP010757

>  <CONTRIBUTOR>  (881) 
University of Tokyo Team, {Faculty of Engineering, University of Tokyo

>  <COMMENT>  (881) 
SMILES=CCCCCCCCCCCC(=O)OCCC(C)C
InChI=InChI=1S/C17H34O2/c1-4-5-6-7-8-9-10-11-12-13-17(18)19-15-14-16(2)3/h16H,4-15H2,1-3H3
computed SMILES=O=C(OCCC(C)C)CCCCCCCCCCC
ion type=[M]+*
accession=JP010757
date=2016.01.19 (Created 2008.10.21, modified 2011.05.06)
author=YAMAMOTO M, DEP. CHEMISTRY, FAC. SCIENCE, NARA WOMEN'S UNIV.
license=CC BY-NC-SA
exact mass=270.25588
ionization energy=70 eV
computed spectral entropy=2.2922479418704955
computed normalized entropy=0.634810316192404
SPLASH=splash10-00di-9000000000-14f4e120c1f43ffbf557
submitter=submitter = University of Tokyo Team (Faculty of Engineering, University of Tokyo)
MoNA Rating=3.75

>  <NUM PEAKS>  (881) 
37

>  <MASS SPECTRAL PEAKS>  (881) 
27 3.7
28 1.4
29 8.4
39 0.21
41 13.3
42 5.8
43 36.6
44 0.14
54 1.2
55 14.9
56 2.6
57 1
60 2.8
61 1.6
67 1.2
69 0.47
70 99.99
71 35
72 1.6
73 0.35
83 2.1
84 1.6
85 2.8
87 0.12
95 1.4
97 1.6
98 1.4
101 0.12
115 1.9
129 1.4
130 1.4
143 0.14
157 1.2
183 7
200 2.8
201 0.44
270 1.9

>  <PREDICTED SPECTRUM>  (881) 
25 0
26 31
27 175
28 20
29 246
30 10
31 17
36 4
38 4
39 149
40 52
41 388
42 275
43 651
44 109
45 113
52 0
53 94
54 114
55 484
56 141
57 411
58 70
59 35
60 189
61 172
62 29
66 2
67 133
68 130
69 315
70 999
71 727
72 157
73 244
74 1
76 1
77 14
79 41
80 13
81 114
82 94
83 250
84 144
85 171
86 62
87 137
88 61
93 5
95 113
96 80
97 191
98 140
99 79
101 120
102 57
107 55
109 143
110 38
111 121
112 75
113 68
114 1
115 153
116 21
121 68
123 3
125 92
126 35
129 136
130 122
131 76
136 15
137 33
138 47
139 70
143 87
144 23
153 15
154 12
155 3
157 155
158 58
165 41
166 10
171 138
181 85
182 30
183 505
184 222
185 36
200 188
201 261
202 143
211 1
214 25
227 168
228 30
255 28
270 121
271 56

$$$$

     RDKit          2D

 21 21  0  0  0  0  0  0  0  0999 V2000
  -14.6139    7.6321    0.0000 C   0  0  0  0  0  0  0  0  0  0  0  0
  -13.3149    8.3821    0.0000 C   0  0  0  0  0  0  0  0  0  0  0  0
  -12.0159    7.6321    0.0000 C   0  0  0  0  0  0  0  0  0  0  0  0
  -10.7168    8.3821    0.0000 C   0  0  0  0  0  0  0  0  0  0  0  0
   -9.4178    7.6321    0.0000 C   0  0  0  0  0  0  0  0  0  0  0  0
   -8.1187    8.3821    0.0000 C   0  0  0  0  0  0  0  0  0  0  0  0
   -6.8197    7.6321    0.0000 C   0  0  0  0  0  0  0  0  0  0  0  0
   -5.5207    8.3821    0.0000 C   0  0  0  0  0  0  0  0  0  0  0  0
   -4.2216    7.6321    0.0000 C   0  0  0  0  0  0  0  0  0  0  0  0
    6.1707    6.1321    0.0000 C   0  0  0  0  0  0  0  0  0  0  0  0
    6.1712    7.6329    0.0000 C   0  0  0  0  0  0  0  0  0  0  0  0
    4.8712    5.3813    0.0000 C   0  0  0  0  0  0  0  0  0  0  0  0
   -2.9226    8.3821    0.0000 C   0  0  0  0  0  0  0  0  0  0  0  0
    4.8721    8.3829    0.0000 C   0  0  0  0  0  0  0  0  0  0  0  0
    3.5721    6.1313    0.0000 C   0  0  0  0  0  0  0  0  0  0  0  0
   -1.6236    7.6321    0.0000 C   0  0  0  0  0  0  0  0  0  0  0  0
    2.2736    8.3821    0.0000 C   0  0  0  0  0  0  0  0  0  0  0  0
    3.5726    7.6321    0.0000 C   0  0  0  0  0  0  0  0  0  0  0  0
   -0.3245    8.3821    0.0000 C   0  0  0  0  0  0  0  0  0  0  0  0
   -0.3245    9.8821    0.0000 O   0  0  0  0  0  0  0  0  0  0  0  0
    0.9745    7.6321    0.0000 O   0  0  0  0  0  0  0  0  0  0  0  0
  2  1  1  0
  3  2  1  0
  4  3  1  0
  5  4  1  0
  6  5  1  0
  7  6  1  0
  8  7  1  0
  9  8  1  0
 11 10  2  0
 12 10  1  0
 13  9  1  0
 14 11  1  0
 15 12  2  0
 16 13  1  0
 18 14  2  0
 18 15  1  0
 18 17  1  0
 19 16  1  0
 20 19  2  0
 21 17  1  0
 21 19  1  0
M  END
>  <NAME>  (882) 
BENZYL LAURATE

>  <SYNONYMS>  (882) 


>  <SPECTRUM TYPE>  (882) 
MS1

>  <INSTRUMENT TYPE>  (882) 
EI-B

>  <INSTRUMENT>  (882) 
HITACHI RMU-6M

>  <ION MODE>  (882) 
P

>  <INCHIKEY>  (882) 
QNRYOQRUGRVBRL-UHFFFAOYSA-N

>  <FORMULA>  (882) 
C19H30O2

>  <EXACT MASS>  (882) 
290.2245802

>  <MW>  (882) 
290

>  <ID>  (882) 
JP010756

>  <CONTRIBUTOR>  (882) 
University of Tokyo Team, {Faculty of Engineering, University of Tokyo

>  <COMMENT>  (882) 
SMILES=CCCCCCCCCCCC(=O)OCc(c1)cccc1
InChI=InChI=1S/C19H30O2/c1-2-3-4-5-6-7-8-9-13-16-19(20)21-17-18-14-11-10-12-15-18/h10-12,14-15H,2-9,13,16-17H2,1H3
computed SMILES=O=C(OCC=1C=CC=CC1)CCCCCCCCCCC
accession=JP010756
date=2016.01.19 (Created 2008.10.21, modified 2011.05.06)
author=YAMAMOTO M, DEP. CHEMISTRY, FAC. SCIENCE, NARA WOMEN'S UNIV.
license=CC BY-NC-SA
exact mass=290.22458
ionization energy=70 eV
ion type=[M]+*
computed spectral entropy=3.075513702103094
computed normalized entropy=0.7542576234829557
SPLASH=splash10-052f-9300000000-f8e0800257ea849fcdd2
submitter=submitter = University of Tokyo Team (Faculty of Engineering, University of Tokyo)
MoNA Rating=3.75

>  <NUM PEAKS>  (882) 
59

>  <MASS SPECTRAL PEAKS>  (882) 
27 7
29 15
39 7
41 2.15
42 6.1
43 37.9
50 2.7
51 0.46
52 1.3
54 1.8
55 15.4
56 0.32
57 22.9
60 2.7
65 8.4
67 0.27
69 11.2
70 1.4
71 11.2
73 0.6
74 6
77 8.4
78 1.3
79 1.21
81 3.7
83 10.7
84 2.7
85 0.7
87 4.1
88 3.7
89 3.7
90 0.75
91 99.99
92 38.8
93 2.3
95 0.32
97 8.4
98 3.2
101 2.7
105 0.32
106 1.3
107 11.2
108 85.5
109 0.75
111 3.2
115 2.3
125 2.3
129 0.32
139 1.8
150 1.3
157 1.3
163 0.61
180 1.8
181 10.7
183 8.4
199 1.31
200 2.7
290 8.9
291 3.3

>  <PREDICTED SPECTRUM>  (882) 
18 0
25 3
26 41
27 145
28 64
29 172
32 28
36 29
38 42
39 202
40 87
41 409
42 201
43 510
44 136
45 35
50 67
51 143
52 116
53 108
54 93
55 365
56 226
57 459
58 117
59 44
60 35
61 46
62 34
63 121
64 101
65 329
66 91
67 140
68 93
69 279
70 182
71 306
72 9
73 81
74 95
75 43
76 27
77 214
78 161
79 264
80 105
81 158
82 82
83 224
84 139
85 226
86 43
87 57
88 3
89 172
90 237
91 999
92 473
93 221
94 51
95 183
96 59
97 251
98 254
99 118
100 18
101 66
102 43
103 5
104 18
105 197
106 36
107 238
108 859
109 224
110 19
111 186
112 92
113 67
115 149
116 17
117 50
119 60
120 70
121 77
122 43
123 58
125 39
128 28
129 31
136 57
139 25
149 39
152 20
153 59
154 14
155 33
156 35
157 53
160 4
162 49
163 208
164 80
165 56
166 40
180 90
181 194
182 186
183 255
184 175
185 78
198 92
199 258
200 98
290 149
291 46

$$$$

     RDKit          2D

  5  4  0  0  0  0  0  0  0  0999 V2000
   -0.0000   -0.0000    0.0000 C   0  0  0  0  0  0  0  0  0  0  0  0
   -1.2990    3.7500    0.0000 C   0  0  0  0  0  0  0  0  0  0  0  0
   -2.5981    1.5000    0.0000 C   0  0  0  0  0  0  0  0  0  0  0  0
    0.0000    1.5000    0.0000 C   0  0  0  0  0  0  0  0  0  0  0  0
   -1.2990    2.2500    0.0000 C   0  0  0  0  0  0  0  0  0  0  0  0
  4  1  1  0
  5  2  1  0
  5  3  1  0
  5  4  1  0
M  END
>  <NAME>  (883) 
ISOPENTANE

>  <SYNONYMS>  (883) 


>  <SPECTRUM TYPE>  (883) 
MS1

>  <INSTRUMENT TYPE>  (883) 
EI-B

>  <INSTRUMENT>  (883) 
HITACHI RMU-6M

>  <ION MODE>  (883) 
P

>  <INCHIKEY>  (883) 
QWTDNUCVQCZILF-UHFFFAOYSA-N

>  <FORMULA>  (883) 
C5H12

>  <EXACT MASS>  (883) 
72.093900384

>  <MW>  (883) 
72

>  <ID>  (883) 
JP010755

>  <CONTRIBUTOR>  (883) 
University of Tokyo Team, {Faculty of Engineering, University of Tokyo

>  <COMMENT>  (883) 
SMILES=CCC(C)C
InChI=InChI=1S/C5H12/c1-4-5(2)3/h5H,4H2,1-3H3
computed SMILES=CCC(C)C
accession=JP010755
date=2016.01.19 (Created 2008.10.21, modified 2011.05.06)
author=YAMAMOTO M, DEP. CHEMISTRY, FAC. SCIENCE, NARA WOMEN'S UNIV.
license=CC BY-NC-SA
exact mass=72.0939
ionization energy=70 eV
ion type=[M]+*
computed spectral entropy=2.135683459942085
computed normalized entropy=0.6909266023252884
SPLASH=splash10-0006-9000000000-959204d9c92e9a8c6294
submitter=submitter = University of Tokyo Team (Faculty of Engineering, University of Tokyo)
MoNA Rating=3.75

>  <NUM PEAKS>  (883) 
22

>  <MASS SPECTRAL PEAKS>  (883) 
15 1.8
26 2.4
27 26.5
28 0.41
29 36.5
30 1.2
38 1.8
39 1.71
40 2.4
41 70.6
42 88.2
43 99.99
44 3.5
50 1.2
51 1.2
53 0.24
55 5.3
56 20
57 58.2
58 0.29
71 2.4
72 8.8

>  <PREDICTED SPECTRUM>  (883) 
14 51
15 193
25 5
26 173
27 655
28 274
29 707
30 229
31 49
37 76
38 141
39 611
40 236
41 999
42 340
43 845
44 360
50 81
51 96
53 247
54 42
55 377
56 597
57 991
70 191
71 35
72 466
73 123

$$$$

     RDKit          2D

  7  7  0  0  0  0  0  0  0  0999 V2000
   -0.0000   -1.9300    0.0000 C   0  0  0  0  0  0  0  0  0  0  0  0
    0.0000    2.5700    0.0000 C   0  0  0  0  0  0  0  0  0  0  0  0
   -1.3000    1.8200    0.0000 C   0  0  0  0  0  0  0  0  0  0  0  0
    1.3000    1.8200    0.0000 C   0  0  0  0  0  0  0  0  0  0  0  0
   -1.3000    0.3200    0.0000 C   0  0  0  0  0  0  0  0  0  0  0  0
    1.3000    0.3200    0.0000 C   0  0  0  0  0  0  0  0  0  0  0  0
   -0.0000   -0.4300    0.0000 C   0  0  0  0  0  0  0  0  0  0  0  0
  3  2  1  0
  4  2  1  0
  5  3  1  0
  6  4  1  0
  7  1  1  0
  7  5  1  0
  7  6  1  0
M  END
>  <NAME>  (884) 
METHYLCYCLOHEXANE

>  <SYNONYMS>  (884) 


>  <SPECTRUM TYPE>  (884) 
MS1

>  <INSTRUMENT TYPE>  (884) 
EI-B

>  <INSTRUMENT>  (884) 
HITACHI RMU-6M

>  <ION MODE>  (884) 
P

>  <INCHIKEY>  (884) 
UAEPNZWRGJTJPN-UHFFFAOYSA-N

>  <FORMULA>  (884) 
C7H14

>  <EXACT MASS>  (884) 
98.109550448

>  <MW>  (884) 
98

>  <ID>  (884) 
JP010754

>  <CONTRIBUTOR>  (884) 
University of Tokyo Team, {Faculty of Engineering, University of Tokyo

>  <COMMENT>  (884) 
SMILES=CC(C1)CCCC1
InChI=InChI=1S/C7H14/c1-7-5-3-2-4-6-7/h7H,2-6H2,1H3
computed SMILES=CC1CCCCC1
accession=JP010754
date=2016.01.19 (Created 2008.10.21, modified 2011.05.06)
author=YAMAMOTO M, DEP. CHEMISTRY, FAC. SCIENCE, NARA WOMEN'S UNIV.
license=CC BY-NC-SA
exact mass=98.10955
ionization energy=70 eV
ion type=[M]+*
computed spectral entropy=2.5902906504891643
computed normalized entropy=0.7345507166403846
SPLASH=splash10-0a5c-9000000000-0697900a2fd1ebf8a9aa
submitter=submitter = University of Tokyo Team (Faculty of Engineering, University of Tokyo)
MoNA Rating=3.75

>  <NUM PEAKS>  (884) 
34

>  <MASS SPECTRAL PEAKS>  (884) 
15 1
26 1.6
27 17.1
28 0.47
29 14.5
38 1.6
39 21.8
40 0.41
41 49.7
42 32.1
43 7.8
50 0.1
51 2.1
52 1
53 5.7
54 0.47
55 88.6
56 30.1
57 5.2
65 0.1
67 4.7
68 9.3
69 22.3
70 2.38
71 1.6
77 1
79 1
81 0.1
82 14.5
83 99.99
84 6.7
97 0.26
98 48.2
99 3.6

>  <PREDICTED SPECTRUM>  (884) 
14 11
15 43
25 18
26 138
27 507
28 289
29 486
30 95
32 30
33 2
34 20
35 15
36 6
37 57
38 85
39 498
40 230
41 809
42 562
43 498
44 71
50 116
51 180
52 103
53 254
54 296
55 863
56 999
57 451
58 32
65 104
66 84
67 267
68 299
69 831
70 803
71 204
77 147
78 98
79 116
80 51
81 157
82 209
83 463
84 170
97 73
98 306
99 24

$$$$

     RDKit          2D

 11 12  0  0  0  0  0  0  0  0999 V2000
    1.1800    2.7300    0.0000 C   0  0  0  0  0  0  0  0  0  0  0  0
   -2.7200   -1.0200    0.0000 C   0  0  0  0  0  0  0  0  0  0  0  0
   -2.7200    0.4800    0.0000 C   0  0  0  0  0  0  0  0  0  0  0  0
    2.4800   -1.0200    0.0000 C   0  0  0  0  0  0  0  0  0  0  0  0
    2.4800    0.4800    0.0000 C   0  0  0  0  0  0  0  0  0  0  0  0
   -1.4200   -1.7700    0.0000 C   0  0  0  0  0  0  0  0  0  0  0  0
    1.1800   -1.7700    0.0000 C   0  0  0  0  0  0  0  0  0  0  0  0
   -1.4200    1.2300    0.0000 C   0  0  0  0  0  0  0  0  0  0  0  0
    1.1800    1.2300    0.0000 C   0  0  0  0  0  0  0  0  0  0  0  0
   -0.1200   -1.0200    0.0000 C   0  0  0  0  0  0  0  0  0  0  0  0
   -0.1200    0.4800    0.0000 C   0  0  0  0  0  0  0  0  0  0  0  0
  3  2  2  0
  5  4  1  0
  6  2  1  0
  7  4  2  0
  8  3  1  0
  9  1  1  0
  9  5  2  0
 10  6  2  0
 10  7  1  0
 11  8  2  0
 11  9  1  0
 11 10  1  0
M  END
>  <NAME>  (885) 
ALPHA-METHYLNAPHTHALENE

>  <SYNONYMS>  (885) 


>  <SPECTRUM TYPE>  (885) 
MS1

>  <INSTRUMENT TYPE>  (885) 
EI-B

>  <INSTRUMENT>  (885) 
HITACHI RMU-6M

>  <ION MODE>  (885) 
P

>  <INCHIKEY>  (885) 
QPUYECUOLPXSFR-UHFFFAOYSA-N

>  <FORMULA>  (885) 
C11H10

>  <EXACT MASS>  (885) 
142.07825032

>  <MW>  (885) 
142

>  <ID>  (885) 
JP010753

>  <CONTRIBUTOR>  (885) 
University of Tokyo Team, {Faculty of Engineering, University of Tokyo

>  <COMMENT>  (885) 
SMILES=Cc(c1)c(c2)c(ccc2)cc1
InChI=InChI=1S/C11H10/c1-9-5-4-7-10-6-2-3-8-11(9)10/h2-8H,1H3
computed SMILES=C=1C=CC2=C(C1)C=CC=C2C
accession=JP010753
date=2016.01.19 (Created 2008.10.21, modified 2011.05.06)
author=YAMAMOTO M, DEP. CHEMISTRY, FAC. SCIENCE, NARA WOMEN'S UNIV.
license=CC BY-NC-SA
exact mass=142.07825
ionization energy=70 eV
ion type=[M]+*
computed spectral entropy=2.416360202621653
computed normalized entropy=0.6595658640477379
SPLASH=splash10-0006-3900000000-5b7a1e8903022a3f5a57
submitter=submitter = University of Tokyo Team (Faculty of Engineering, University of Tokyo)
MoNA Rating=3.75

>  <NUM PEAKS>  (885) 
39

>  <MASS SPECTRAL PEAKS>  (885) 
27 1.3
38 1.3
39 4.4
50 0.25
51 4.1
52 1
57.5 7
58 0.13
62 3.2
63 7
64 1.3
65 0.22
69 2.2
69.5 3.8
70 4.8
70.5 0.54
71 9.5
72 1.3
74 2.5
75 0.25
76 1.6
77 2.2
86 1.6
87 0.22
88 1.3
89 4.1
91 1.9
102 0.13
113 1.6
114 1.3
115 24.8
116 0.25
126 1.3
139 9.5
140 3.8
141 7.11
142 99.99
143 12.4
144 1

>  <PREDICTED SPECTRUM>  (885) 
26 31
27 86
36 24
37 35
38 89
39 207
40 53
41 35
43 24
44 37
49 22
50 198
51 262
52 105
53 12
57 108
58 41
61 137
62 217
63 298
64 152
65 172
67 16
68 47
69 43
70 60
71 74
73 34
74 250
75 250
76 213
77 155
78 66
79 30
81 5
82 149
83 97
84 71
85 83
86 140
87 168
88 170
89 199
90 90
94 64
95 122
96 39
97 20
98 101
99 39
100 78
101 139
102 211
110 54
111 15
113 120
114 110
115 583
116 203
126 201
127 561
128 350
129 135
137 85
138 93
139 265
140 283
141 999
142 938
143 346
144 71

$$$$

     RDKit          2D

 13 13  0  0  0  0  0  0  0  0999 V2000
   -5.5207    3.1321    0.0000 C   0  0  0  0  0  0  0  0  0  0  0  0
   -4.2216    2.3821    0.0000 C   0  0  0  0  0  0  0  0  0  0  0  0
    3.5726    0.8821    0.0000 C   0  0  0  0  0  0  0  0  0  0  0  0
    3.5731    2.3829    0.0000 C   0  0  0  0  0  0  0  0  0  0  0  0
    2.2731    0.1313    0.0000 C   0  0  0  0  0  0  0  0  0  0  0  0
    2.2740    3.1329    0.0000 C   0  0  0  0  0  0  0  0  0  0  0  0
    0.9740    0.8813    0.0000 C   0  0  0  0  0  0  0  0  0  0  0  0
    0.9745    2.3821    0.0000 C   0  0  0  0  0  0  0  0  0  0  0  0
   -0.3245    3.1321    0.0000 C   0  0  0  0  0  0  0  0  0  0  0  0
   -1.6236    2.3821    0.0000 C   0  0  0  0  0  0  0  0  0  0  0  0
   -0.3245    4.6321    0.0000 O   0  0  0  0  0  0  0  0  0  0  0  0
   -1.6236    0.8821    0.0000 O   0  0  0  0  0  0  0  0  0  0  0  0
   -2.9226    3.1321    0.0000 O   0  0  0  0  0  0  0  0  0  0  0  0
  2  1  1  0
  4  3  2  0
  5  3  1  0
  6  4  1  0
  7  5  2  0
  8  6  2  0
  8  7  1  0
  9  8  1  0
 10  9  1  0
 11  9  1  0
 12 10  2  0
 13  2  1  0
 13 10  1  0
M  END
>  <NAME>  (886) 
ETHYL MANDELATE

>  <SYNONYMS>  (886) 


>  <SPECTRUM TYPE>  (886) 
MS1

>  <INSTRUMENT TYPE>  (886) 
EI-B

>  <INSTRUMENT>  (886) 
HITACHI RMU-6M

>  <ION MODE>  (886) 
P

>  <INCHIKEY>  (886) 
SAXHIDRUJXPDOD-UHFFFAOYSA-N

>  <FORMULA>  (886) 
C10H12O3

>  <EXACT MASS>  (886) 
180.07864424399997

>  <MW>  (886) 
180

>  <ID>  (886) 
JP010752

>  <CONTRIBUTOR>  (886) 
University of Tokyo Team, {Faculty of Engineering, University of Tokyo

>  <COMMENT>  (886) 
SMILES=CCOC(=O)C(O)c(c1)cccc1
InChI=InChI=1S/C10H12O3/c1-2-13-10(12)9(11)8-6-4-3-5-7-8/h3-7,9,11H,2H2,1H3
computed SMILES=O=C(OCC)C(O)C=1C=CC=CC1
accession=JP010752
date=2016.01.19 (Created 2008.10.21, modified 2011.05.06)
author=YAMAMOTO M, DEP. CHEMISTRY, FAC. SCIENCE, NARA WOMEN'S UNIV.
license=CC BY-NC-SA
exact mass=180.07864
ionization energy=70 eV
ion type=[M]+*
computed spectral entropy=1.989275996670734
computed normalized entropy=0.610563859436389
SPLASH=splash10-0a6r-8900000000-68d023b77541f70740df
submitter=submitter = University of Tokyo Team (Faculty of Engineering, University of Tokyo)
MoNA Rating=3.75

>  <NUM PEAKS>  (886) 
26

>  <MASS SPECTRAL PEAKS>  (886) 
27 6.4
28 1.1
29 10.4
31 0.25
38 1.1
39 3.2
45 1.4
50 0.25
51 8.6
52 2.5
53 2.1
56 0.14
57 1.1
63 1.4
77 23.9
78 0.43
79 43.9
80 2.9
89 1.1
90 0.11
105 7.5
106 1.8
107 99.99
108 0.86
180 8.2
181 1.1

>  <PREDICTED SPECTRUM>  (886) 
14 0
15 0
26 48
27 174
28 94
29 282
31 57
37 21
38 56
39 120
40 52
43 4
45 34
46 12
49 35
50 152
51 247
52 155
53 98
61 6
62 73
63 134
64 44
66 17
74 45
76 60
77 488
78 200
79 546
80 120
89 83
90 101
92 18
104 23
105 207
106 5
107 999
108 272
109 13
135 8
180 163
181 64

$$$$

     RDKit          2D

 10 10  0  0  0  0  0  0  0  0999 V2000
   -2.5989    1.5002    0.0000 C   0  0  0  0  0  0  0  0  0  0  0  0
    3.8981   -0.7504    0.0000 C   0  0  0  0  0  0  0  0  0  0  0  0
    2.5987   -3.0002    0.0000 C   0  0  0  0  0  0  0  0  0  0  0  0
   -1.3000   -0.7500    0.0000 C   0  0  0  0  0  0  0  0  0  0  0  0
    0.0000    1.5000    0.0000 C   0  0  0  0  0  0  0  0  0  0  0  0
    0.0000   -1.5000    0.0000 C   0  0  0  0  0  0  0  0  0  0  0  0
    1.3000    0.7500    0.0000 C   0  0  0  0  0  0  0  0  0  0  0  0
   -1.3000    0.7500    0.0000 C   0  0  0  0  0  0  0  0  0  0  0  0
    1.3000   -0.7500    0.0000 C   0  0  0  0  0  0  0  0  0  0  0  0
    2.5989   -1.5002    0.0000 N   0  0  0  0  0  0  0  0  0  0  0  0
  6  4  2  0
  7  5  1  0
  8  1  1  0
  8  4  1  0
  8  5  2  0
  9  6  1  0
  9  7  2  0
 10  2  1  0
 10  3  1  0
 10  9  1  0
M  END
>  <NAME>  (887) 
N,N-DIMETHYL-PARA-TOLUIDINE

>  <SYNONYMS>  (887) 


>  <SPECTRUM TYPE>  (887) 
MS1

>  <INSTRUMENT TYPE>  (887) 
EI-B

>  <INSTRUMENT>  (887) 
HITACHI RMU-6M

>  <ION MODE>  (887) 
P

>  <INCHIKEY>  (887) 
GYVGXEWAOAAJEU-UHFFFAOYSA-N

>  <FORMULA>  (887) 
C9H13N

>  <EXACT MASS>  (887) 
135.104799416

>  <MW>  (887) 
135

>  <ID>  (887) 
JP010751

>  <CONTRIBUTOR>  (887) 
University of Tokyo Team, {Faculty of Engineering, University of Tokyo

>  <COMMENT>  (887) 
SMILES=Cc(c1)ccc(c1)N(C)C
InChI=InChI=1S/C9H13N/c1-8-4-6-9(7-5-8)10(2)3/h4-7H,1-3H3
computed SMILES=C=1C=C(C=CC1N(C)C)C
accession=JP010751
date=2016.01.19 (Created 2008.10.21, modified 2011.05.06)
author=YAMAMOTO M, DEP. CHEMISTRY, FAC. SCIENCE, NARA WOMEN'S UNIV.
license=CC BY-NC-SA
exact mass=135.1048
ionization energy=70 eV
ion type=[M]+*
computed spectral entropy=2.616644738718464
computed normalized entropy=0.6873855367399129
SPLASH=splash10-001i-5900000000-93a9f72d75f5fa56dff2
submitter=submitter = University of Tokyo Team (Faculty of Engineering, University of Tokyo)
MoNA Rating=3.75

>  <NUM PEAKS>  (887) 
45

>  <MASS SPECTRAL PEAKS>  (887) 
15 2.4
27 2
28 1.3
38 0.1
39 6.7
40 1
41 2.4
42 0.61
44 2.4
50 2.2
51 5.1
52 0.24
53 1.3
55 1
58.5 1.7
62 0.13
63 4.4
64 1.3
65 10.1
66 0.17
66.5 6.7
67 2
67.5 4.7
76 0.1
77 5.7
78 2.7
79 1.7
89 0.34
90 2
91 19.2
92 3.7
93 0.2
104 1
105 1.7
106 1
117 0.13
118 12.1
119 13.5
120 6.1
121 0.1
132 1.7
133 2.7
134 99.99
135 7.54
136 7.7

>  <PREDICTED SPECTRUM>  (887) 
15 50
26 19
27 78
28 57
29 33
30 42
38 34
39 158
40 29
41 42
42 181
43 75
44 95
46 7
50 78
51 160
52 84
53 80
54 26
55 45
58 15
61 25
62 43
63 132
64 58
65 183
66 81
67 40
74 56
75 70
76 34
77 277
78 186
79 130
80 58
82 7
88 5
89 130
90 138
91 335
92 138
93 104
94 16
102 46
103 94
104 144
105 142
106 175
107 103
108 6
116 9
117 104
118 362
119 341
120 372
121 159
132 204
133 193
134 967
135 999
136 311
137 71

$$$$

     RDKit          2D

 16 17  0  0  0  0  0  0  0  0999 V2000
  -13.1165   -0.6149    0.0000 C   0  0  0  0  0  0  0  0  0  0  0  0
  -12.2348    0.5986    0.0000 C   0  0  0  0  0  0  0  0  0  0  0  0
  -11.3532    1.8122    0.0000 C   0  0  0  0  0  0  0  0  0  0  0  0
  -10.4715    3.0257    0.0000 C   0  0  0  0  0  0  0  0  0  0  0  0
   -9.5898    4.2392    0.0000 C   0  0  0  0  0  0  0  0  0  0  0  0
   -4.1963    1.8379    0.0000 C   0  0  0  0  0  0  0  0  0  0  0  0
   -2.7697    2.3014    0.0000 C   0  0  0  0  0  0  0  0  0  0  0  0
   -8.7081    5.4527    0.0000 C   0  0  0  0  0  0  0  0  0  0  0  0
   -6.2127    6.4107    0.0000 C   0  0  0  0  0  0  0  0  0  0  0  0
   -5.3110    2.8415    0.0000 C   0  0  0  0  0  0  0  0  0  0  0  0
   -4.8423    5.8006    0.0000 C   0  0  0  0  0  0  0  0  0  0  0  0
   -2.4578    3.7686    0.0000 C   0  0  0  0  0  0  0  0  0  0  0  0
   -7.2163    5.2959    0.0000 C   0  0  0  0  0  0  0  0  0  0  0  0
   -4.9991    4.3088    0.0000 C   0  0  0  0  0  0  0  0  0  0  0  0
   -3.5725    4.7723    0.0000 O   0  0  0  0  0  0  0  0  0  0  0  0
   -6.4663    3.9969    0.0000 O   0  0  0  0  0  0  0  0  0  0  0  0
  2  1  1  0
  3  2  3  0
  4  3  1  0
  5  4  3  0
  7  6  1  0
  8  5  1  0
 10  6  1  0
 11  9  2  0
 12  7  1  0
  8 13  2  0
 13  9  1  0
 14 10  1  0
 14 11  1  0
 15 12  1  0
 15 14  1  0
 16 13  1  0
 16 14  1  0
M  END
>  <NAME>  (888) 
(2Z)-2-(2,4-HEXADIYNYIDENE)-1,6-DIOXASPIRO(4,5)DEC-3-ENE

>  <SYNONYMS>  (888) 


>  <SPECTRUM TYPE>  (888) 
MS1

>  <INSTRUMENT TYPE>  (888) 
EI-B

>  <INSTRUMENT>  (888) 
HITACHI RMU-6L

>  <ION MODE>  (888) 
P

>  <INCHIKEY>  (888) 
RNEORCMLRJNFGE-JYRVWZFOSA-N

>  <FORMULA>  (888) 
C14H14O2

>  <EXACT MASS>  (888) 
214.099379688

>  <MW>  (888) 
214

>  <ID>  (888) 
JP010712

>  <CONTRIBUTOR>  (888) 
University of Tokyo Team, {Faculty of Engineering, University of Tokyo

>  <COMMENT>  (888) 
SMILES=CC#CC#CC([H])=C(O1)C([H])=C([H])C(C2)(OCCC2)1
InChI=InChI=1S/C14H14O2/c1-2-3-4-5-8-13-9-11-14(16-13)10-6-7-12-15-14/h8-9,11H,6-7,10,12H2,1H3/b13-8-
computed SMILES=C(C#CC)#CC=C1OC2(OCCCC2)C=C1
accession=JP010712
date=2016.01.19 (Created 2008.10.21, modified 2011.05.06)
author=EGUCHI S, FAC. OF SCIENCE, HIROSHIMA UNIV.
license=CC BY-NC-SA
exact mass=214.09938
ionization energy=70 eV
ion type=[M]+*
computed spectral entropy=4.201007911989912
computed normalized entropy=0.8644382874160977
SPLASH=splash10-06vi-9820000000-6ad47b6595f8b86cbf80
submitter=submitter = University of Tokyo Team (Faculty of Engineering, University of Tokyo)
MoNA Rating=3.75

>  <NUM PEAKS>  (888) 
129

>  <MASS SPECTRAL PEAKS>  (888) 
41 48
42 12
43 19
50 6.1
51 38
52 22.5
53 25.5
54 2.8
55 56
56 6
57 6
61 0.4
62 11.5
63 21
64 6.5
65 1.15
66 6
67 12
68 7
69 0.8
70 2
71 5
73 3
74 2.3
75 30
76 65
77 38.5
78 1.2
79 14
80 7
81 18
82 1.8
83 6
84 2
85 3
86 0.6
87 11
88 7.5
89 10.5
90 0.3
91 18
92 4.5
93 5
94 0.5
95 7
96 4
97 3.5
98 0.35
99 3.5
100 3
101 7
102 3.8
103 13
104 7.5
105 6
106 0.2
107 6
108 2
109 2
110 0.45
111 2
113 5
114 4
115 5.15
116 12
117 8
118 3
119 0.4
120 2
121 3
122 4
124 0.3
126 7
127 19.5
128 29
129 2.8
130 24
131 11
132 6
133 0.4
134 2
135 2
137 3
138 0.45
139 5.5
140 3
141 14
142 0.95
143 16
144 10
145 13
146 0.3
147 5
148 3
149 9
150 0.4
151 2.5
152 6
153 7
154 0.3
155 8
156 56
157 29
158 4
159 14
160 4
161 2.5
165 0.3
167 3
168 2
169 21
170 0.8
171 21
172 6
173 5
181 0.4
182 2
183 4
184 5
185 2.7
186 18
187 4
197 5
198 0.3
199 8
200 6.5
213 14
214 99.99
215 16

>  <PREDICTED SPECTRUM>  (888) 
19 2
25 3
26 116
27 255
28 63
29 199
31 80
32 31
37 54
38 108
39 142
40 179
41 657
42 286
43 677
44 129
45 96
46 16
47 28
49 153
50 394
51 541
52 364
53 528
54 345
55 689
56 204
57 291
58 92
59 143
61 125
62 281
63 450
64 270
65 309
66 241
67 409
68 305
69 290
70 202
71 284
72 8
73 125
74 239
75 492
76 533
77 578
78 280
79 348
80 193
81 318
82 307
83 351
84 191
85 229
86 219
87 224
88 195
89 273
90 154
91 326
92 194
93 228
94 139
95 264
96 180
97 213
98 153
99 200
100 232
101 306
102 369
103 324
104 242
105 265
106 118
107 279
108 188
109 183
110 100
111 147
112 48
113 226
114 220
115 420
116 245
117 256
118 158
119 237
120 120
121 189
122 153
123 116
124 34
125 92
126 295
127 436
128 462
129 293
130 468
131 346
132 143
133 127
134 66
135 116
136 78
137 229
138 155
139 214
140 223
141 385
142 257
143 363
144 344
145 386
146 246
147 158
148 198
149 214
150 111
151 102
152 194
153 261
154 113
155 308
156 999
157 599
158 399
159 415
160 225
161 142
162 95
163 42
166 26
167 185
168 134
169 371
170 251
171 525
172 235
173 220
174 128
179 12
180 13
181 141
182 108
183 171
184 248
185 399
186 463
187 268
188 123
195 102
196 58
197 261
198 133
199 351
200 114
212 0
213 481
214 944
215 357
216 91

$$$$

     RDKit          2D

 18 19  0  0  0  0  0  0  0  0999 V2000
  -12.2911    5.4579    0.0000 C   0  0  0  0  0  0  0  0  0  0  0  0
  -10.7993    5.3011    0.0000 C   0  0  0  0  0  0  0  0  0  0  0  0
   -9.3075    5.1443    0.0000 C   0  0  0  0  0  0  0  0  0  0  0  0
   -7.8158    4.9876    0.0000 C   0  0  0  0  0  0  0  0  0  0  0  0
   -6.3240    4.8308    0.0000 C   0  0  0  0  0  0  0  0  0  0  0  0
   -5.7068   -1.0409    0.0000 C   0  0  0  0  0  0  0  0  0  0  0  0
   -4.5921   -2.0445    0.0000 C   0  0  0  0  0  0  0  0  0  0  0  0
   -4.8322    4.6740    0.0000 C   0  0  0  0  0  0  0  0  0  0  0  0
   -5.3950    0.4264    0.0000 C   0  0  0  0  0  0  0  0  0  0  0  0
   -3.1655   -1.5810    0.0000 C   0  0  0  0  0  0  0  0  0  0  0  0
   -4.2221    3.3037    0.0000 C   0  0  0  0  0  0  0  0  0  0  0  0
   -2.7549    2.9918    0.0000 C   0  0  0  0  0  0  0  0  0  0  0  0
   -2.5981    1.5000    0.0000 C   0  0  0  0  0  0  0  0  0  0  0  0
   -3.9684    0.8899    0.0000 C   0  0  0  0  0  0  0  0  0  0  0  0
   -1.6402    3.9955    0.0000 O   0  0  0  0  0  0  0  0  0  0  0  0
   -1.2990    0.7500    0.0000 O   0  0  0  0  0  0  0  0  0  0  0  0
   -2.8537   -0.1138    0.0000 O   0  0  0  0  0  0  0  0  0  0  0  0
   -4.9721    2.0046    0.0000 O   0  0  0  0  0  0  0  0  0  0  0  0
  2  1  1  0
  3  2  3  0
  4  3  1  0
  5  4  3  0
  7  6  1  0
  8  5  1  0
  9  6  1  0
 10  7  1  0
  8 11  2  0
 12 11  1  0
 13 12  1  0
 14  9  1  0
 14 13  1  0
 15 12  1  0
 16 13  1  0
 17 10  1  0
 17 14  1  0
 18 11  1  0
 18 14  1  0
M  END
>  <NAME>  (889) 
(2Z)-2-(2,4-HEXADIYNYLIDENE)-3,4-DIHYDROXY-1,6-DIOXASPIRO(4,5)DECANE

>  <SYNONYMS>  (889) 


>  <SPECTRUM TYPE>  (889) 
MS1

>  <INSTRUMENT TYPE>  (889) 
EI-B

>  <INSTRUMENT>  (889) 
HITACHI RMU-6L

>  <ION MODE>  (889) 
P

>  <INCHIKEY>  (889) 
YCXFYWBMQJMDBX-FLIBITNWSA-N

>  <FORMULA>  (889) 
C14H16O4

>  <EXACT MASS>  (889) 
248.104858992

>  <MW>  (889) 
248

>  <ID>  (889) 
JP010711

>  <CONTRIBUTOR>  (889) 
University of Tokyo Team, {Faculty of Engineering, University of Tokyo

>  <COMMENT>  (889) 
SMILES=CC#CC#CC([H])=C(O1)C(O)C(O)C(C2)(OCCC2)1
InChI=InChI=1S/C14H16O4/c1-2-3-4-5-8-11-12(15)13(16)14(18-11)9-6-7-10-17-14/h8,12-13,15-16H,6-7,9-10H2,1H3/b11-8-
computed SMILES=OC1C(OC2(OCCCC2)C1O)=CC#CC#CC
accession=JP010711
date=2016.01.19 (Created 2008.10.21, modified 2011.05.06)
author=EGUCHI S, FAC. OF SCIENCE, HIROSHIMA UNIV.
license=CC BY-NC-SA
exact mass=248.10486
ionization energy=70 eV
ion type=[M]+*
computed spectral entropy=3.952247815762239
computed normalized entropy=0.8457934060444471
SPLASH=splash10-0lxx-9400000000-f96c5862138c3408e052
submitter=submitter = University of Tokyo Team (Faculty of Engineering, University of Tokyo)
MoNA Rating=3.75

>  <NUM PEAKS>  (889) 
107

>  <MASS SPECTRAL PEAKS>  (889) 
41 65
42 16.5
43 43
44 0.75
45 13
50 32
51 32
52 1.15
53 13.5
54 4
55 37
56 0.7
57 24
58 33
59 7
60 0.7
61 2
62 4.5
63 12
64 0.6
65 9.5
66 4.5
67 30
68 1
69 10.5
70 7.5
71 29
72 0.55
73 30.5
74 7.5
75 10.5
76 3
77 28
78 9.5
79 18.5
80 0.8
81 8
82 3
83 13.5
84 0.45
85 30
86 4.5
87 9
88 0.45
89 10
90 15.5
91 10.5
92 0.2
93 3
94 2
95 14
96 0.45
97 7
98 4
99 3
101 0.6
102 3.5
103 4.5
104 11
105 0.5
106 4.5
107 13
108 5
109 0.25
111 3
112 2
113 99.99
114 5.9
115 9.5
116 2.5
117 4
118 0.9
119 5
121 9
122 2.5
125 0.5
126 18
127 5
128 3
129 0.3
131 5
132 3
133 4.5
134 0.2
135 10
136 50
137 5
141 0.35
143 7
144 2.5
145 5
146 0.4
147 2
148 2
149 2
159 0.3
160 2
161 3
173 4.5
174 0.3
175 2
202 2
203 2
230 0.2
231 4
248 21
249 4

>  <PREDICTED SPECTRUM>  (889) 
26 10
27 57
29 90
31 65
33 45
34 13
36 4
37 99
38 159
39 320
40 245
41 866
42 389
43 999
44 231
45 649
46 150
47 127
48 30
49 116
50 383
51 534
52 282
53 554
54 239
55 927
56 140
57 501
58 187
59 365
60 228
61 196
62 250
63 417
64 229
65 341
66 190
67 389
68 187
69 580
70 298
71 495
72 105
73 472
74 314
75 418
76 355
77 582
78 268
79 414
80 149
81 356
82 164
83 471
84 191
85 596
86 314
87 279
88 262
89 330
90 322
91 385
92 193
93 319
94 210
95 302
96 147
97 371
98 223
99 314
100 135
101 245
102 285
103 369
104 247
105 390
106 373
107 397
108 267
109 114
110 56
111 96
112 272
113 978
114 278
115 406
116 286
117 337
118 231
119 318
120 179
121 412
122 125
123 212
124 115
125 177
126 659
127 341
128 174
129 210
130 144
131 263
132 217
133 271
134 321
135 515
136 627
137 377
138 120
141 41
142 124
143 249
144 254
145 260
146 179
147 324
148 101
149 175
155 17
157 49
159 97
160 169
161 229
162 119
164 0
171 100
172 148
173 241
174 108
175 208
176 38
187 68
189 41
190 66
201 43
202 175
203 170
215 20
218 20
230 0
231 278
248 702
249 298
250 64

$$$$

     RDKit          2D

 24 25  0  0  0  0  0  0  0  0999 V2000
    2.4054    4.3611    0.0000 C   0  0  0  0  0  0  0  0  0  0  0  0
   -5.1265    6.4441    0.0000 C   0  0  0  0  0  0  0  0  0  0  0  0
  -10.9449    4.0431    0.0000 C   0  0  0  0  0  0  0  0  0  0  0  0
    1.5237    3.1476    0.0000 C   0  0  0  0  0  0  0  0  0  0  0  0
    0.0319    3.3044    0.0000 C   0  0  0  0  0  0  0  0  0  0  0  0
   -0.8497    2.0908    0.0000 C   0  0  0  0  0  0  0  0  0  0  0  0
   -2.3415    2.2476    0.0000 C   0  0  0  0  0  0  0  0  0  0  0  0
   -8.3880   -1.5637    0.0000 C   0  0  0  0  0  0  0  0  0  0  0  0
   -9.6871   -0.8137    0.0000 C   0  0  0  0  0  0  0  0  0  0  0  0
   -3.2232    1.0341    0.0000 C   0  0  0  0  0  0  0  0  0  0  0  0
   -7.0890   -0.8137    0.0000 C   0  0  0  0  0  0  0  0  0  0  0  0
   -9.6871    0.6863    0.0000 C   0  0  0  0  0  0  0  0  0  0  0  0
   -5.7366    5.0738    0.0000 C   0  0  0  0  0  0  0  0  0  0  0  0
   -9.8302    3.0394    0.0000 C   0  0  0  0  0  0  0  0  0  0  0  0
   -4.7150    1.1909    0.0000 C   0  0  0  0  0  0  0  0  0  0  0  0
   -5.4650    2.4899    0.0000 C   0  0  0  0  0  0  0  0  0  0  0  0
   -6.9322    2.1781    0.0000 C   0  0  0  0  0  0  0  0  0  0  0  0
   -7.0890    0.6863    0.0000 C   0  0  0  0  0  0  0  0  0  0  0  0
   -7.2283    4.9170    0.0000 O   0  0  0  0  0  0  0  0  0  0  0  0
  -10.1421    1.5722    0.0000 O   0  0  0  0  0  0  0  0  0  0  0  0
   -8.3880    1.4363    0.0000 O   0  0  0  0  0  0  0  0  0  0  0  0
   -4.8549    3.8602    0.0000 O   0  0  0  0  0  0  0  0  0  0  0  0
   -8.4036    3.5029    0.0000 O   0  0  0  0  0  0  0  0  0  0  0  0
   -5.7187    0.0762    0.0000 O   0  0  0  0  0  0  0  0  0  0  0  0
  4  1  1  0
  5  4  1  0
  6  5  1  0
  7  6  1  0
  9  8  1  0
 10  7  1  0
 11  8  1  0
 12  9  1  0
 13  2  1  0
 14  3  1  0
 15 10  1  0
 16 15  1  0
 17 16  1  0
 18 11  1  0
 18 17  1  0
 19 13  2  0
 20 14  2  0
 21 12  1  0
 21 18  1  0
 22 13  1  0
 22 16  1  0
 23 14  1  0
 23 17  1  0
 24 15  1  0
 24 18  1  0
M  END
>  <NAME>  (890) 
2-HEXYL-3,4-DIACETOXY-1,6-DIOXASPIRO(4,5)DECANE

>  <SYNONYMS>  (890) 


>  <SPECTRUM TYPE>  (890) 
MS1

>  <INSTRUMENT TYPE>  (890) 
EI-B

>  <INSTRUMENT>  (890) 
HITACHI RMU-6L

>  <ION MODE>  (890) 
P

>  <INCHIKEY>  (890) 
CCGIUVLTJQXRSI-UHFFFAOYSA-N

>  <FORMULA>  (890) 
C18H30O6

>  <EXACT MASS>  (890) 
342.20423868

>  <MW>  (890) 
342

>  <ID>  (890) 
JP010710

>  <CONTRIBUTOR>  (890) 
University of Tokyo Team, {Faculty of Engineering, University of Tokyo

>  <COMMENT>  (890) 
SMILES=CCCCCCC(O1)C(OC(C)=O)C(OC(C)=O)C(C2)(OCCC2)1
InChI=InChI=1S/C18H30O6/c1-4-5-6-7-10-15-16(22-13(2)19)17(23-14(3)20)18(24-15)11-8-9-12-21-18/h15-17H,4-12H2,1-3H3
computed SMILES=O=C(OC1C(OC2(OCCCC2)C1OC(=O)C)CCCCCC)C
accession=JP010710
date=2016.01.19 (Created 2008.10.21, modified 2011.05.06)
author=EGUCHI S, FAC. OF SCIENCE, HIROSHIMA UNIV.
license=CC BY-NC-SA
exact mass=342.20424
ionization energy=70 eV
ion type=[M]+*
computed spectral entropy=3.4999256064951307
computed normalized entropy=0.7964423943268981
SPLASH=splash10-0006-9600000000-cf02aa2ca1a5d7d14cd6
submitter=submitter = University of Tokyo Team (Faculty of Engineering, University of Tokyo)
MoNA Rating=3.75

>  <NUM PEAKS>  (890) 
81

>  <MASS SPECTRAL PEAKS>  (890) 
41 22
42 6
43 99.99
44 0.5
45 2.5
53 2
54 2.5
55 2.7
56 5
57 12
58 2
59 0.4
60 1
61 3
66 1
67 0.65
68 3
69 8
70 6
71 1.5
72 1.5
73 3
79 3
80 0.15
81 7
82 3.5
83 16
84 0.35
85 8
86 2
87 2
91 0.15
93 2
94 1.5
95 3.5
96 0.8
97 1.5
98 8
99 3.5
101 3.8
107 1
109 2.5
110 1.5
111 0.5
112 5
113 4.5
114 3.5
115 0.25
121 2
122 4
123 2
124 0.15
125 14
126 8
127 28
128 0.4
130 5
137 4.5
139 14.5
140 2.2
143 14
155 8.5
157 4.5
158 0.2
165 2
168 7
169 29
182 0.95
197 3.5
199 3
200 8
212 0.15
223 2
228 2
240 1.5
242 0.15
257 1.5
282 5
283 1
342 0.55
343 1.5

>  <PREDICTED SPECTRUM>  (890) 
26 47
27 170
28 121
29 188
31 55
35 1
36 12
38 28
39 173
40 123
41 437
42 249
43 999
44 157
45 213
46 19
47 3
49 7
50 4
51 48
52 57
53 148
54 116
55 437
56 197
57 318
58 113
59 68
60 156
61 131
63 5
65 49
66 57
67 161
68 148
69 334
70 211
71 167
72 80
73 229
74 89
75 81
77 117
78 47
79 107
80 91
81 258
82 182
83 341
84 163
85 296
86 186
87 140
88 7
89 35
91 23
93 71
94 51
95 169
96 114
97 201
98 342
99 224
100 48
101 118
102 83
103 136
104 8
105 11
106 11
107 25
108 30
109 265
110 154
111 150
112 174
113 259
114 117
115 246
116 73
117 38
118 14
119 10
120 27
121 125
122 48
123 116
124 120
125 199
126 337
127 489
128 118
129 101
130 28
131 16
133 6
134 38
135 74
136 25
137 151
138 122
139 179
140 115
141 201
142 23
143 49
144 19
145 31
151 57
152 84
153 61
154 65
155 241
156 34
157 228
158 78
159 46
163 66
164 16
165 68
166 53
167 105
168 188
169 370
170 65
171 101
173 50
179 63
180 115
181 78
182 13
184 26
186 23
187 7
188 0
193 51
194 43
197 72
198 82
199 33
200 63
201 19
207 23
208 37
209 43
211 43
212 27
215 25
216 1
221 5
223 115
224 21
225 66
226 13
228 12
229 67
230 8
239 46
240 96
241 30
243 7
254 2
255 2
256 25
257 32
282 152
283 119
284 24
301 13
342 71
343 14

$$$$

     RDKit          2D

 21 22  0  0  0  0  0  0  0  0999 V2000
  -12.2911    5.4579    0.0000 C   0  0  0  0  0  0  0  0  0  0  0  0
    0.9012    4.5356    0.0000 C   0  0  0  0  0  0  0  0  0  0  0  0
  -10.7993    5.3011    0.0000 C   0  0  0  0  0  0  0  0  0  0  0  0
   -9.3075    5.1443    0.0000 C   0  0  0  0  0  0  0  0  0  0  0  0
   -7.8158    4.9876    0.0000 C   0  0  0  0  0  0  0  0  0  0  0  0
   -6.3240    4.8308    0.0000 C   0  0  0  0  0  0  0  0  0  0  0  0
   -5.7068   -1.0409    0.0000 C   0  0  0  0  0  0  0  0  0  0  0  0
   -4.5921   -2.0445    0.0000 C   0  0  0  0  0  0  0  0  0  0  0  0
   -4.8322    4.6740    0.0000 C   0  0  0  0  0  0  0  0  0  0  0  0
   -5.3950    0.4264    0.0000 C   0  0  0  0  0  0  0  0  0  0  0  0
   -3.1655   -1.5810    0.0000 C   0  0  0  0  0  0  0  0  0  0  0  0
   -0.2136    3.5320    0.0000 C   0  0  0  0  0  0  0  0  0  0  0  0
   -4.2221    3.3037    0.0000 C   0  0  0  0  0  0  0  0  0  0  0  0
   -2.7549    2.9918    0.0000 C   0  0  0  0  0  0  0  0  0  0  0  0
   -2.5981    1.5000    0.0000 C   0  0  0  0  0  0  0  0  0  0  0  0
   -3.9684    0.8899    0.0000 C   0  0  0  0  0  0  0  0  0  0  0  0
    0.0983    2.0647    0.0000 O   0  0  0  0  0  0  0  0  0  0  0  0
   -1.2990    0.7500    0.0000 O   0  0  0  0  0  0  0  0  0  0  0  0
   -2.8537   -0.1138    0.0000 O   0  0  0  0  0  0  0  0  0  0  0  0
   -1.6402    3.9955    0.0000 O   0  0  0  0  0  0  0  0  0  0  0  0
   -4.9721    2.0046    0.0000 O   0  0  0  0  0  0  0  0  0  0  0  0
  3  1  1  0
  4  3  3  0
  5  4  1  0
  6  5  3  0
  8  7  1  0
  9  6  1  0
 10  7  1  0
 11  8  1  0
 12  2  1  0
  9 13  2  0
 14 13  1  0
 15 14  1  0
 16 10  1  0
 16 15  1  0
 17 12  2  0
 18 15  1  0
 19 11  1  0
 19 16  1  0
 20 12  1  0
 20 14  1  0
 21 13  1  0
 21 16  1  0
M  END
>  <NAME>  (891) 
(2Z)-2-(2,4-HEXADIYNYLIDENE)-3-ACETOXY-4-HYDROXY-1,6-DIOXASPIRO(4,5)DECANE

>  <SYNONYMS>  (891) 


>  <SPECTRUM TYPE>  (891) 
MS1

>  <INSTRUMENT TYPE>  (891) 
EI-B

>  <INSTRUMENT>  (891) 
HITACHI RMU-6L

>  <ION MODE>  (891) 
P

>  <INCHIKEY>  (891) 
GSEJYTXIPBKHKH-LCYFTJDESA-N

>  <FORMULA>  (891) 
C16H18O5

>  <EXACT MASS>  (891) 
290.115423676

>  <MW>  (891) 
290

>  <ID>  (891) 
JP010709

>  <CONTRIBUTOR>  (891) 
University of Tokyo Team, {Faculty of Engineering, University of Tokyo

>  <COMMENT>  (891) 
computed SMILES=O=C(OC1C(OC2(OCCCC2)C1O)=CC#CC#CC)C
SMILES=CC#CC#CC([H])=C(O1)C(OC(C)=O)C(O)C(C2)(OCCC2)1
InChI=InChI=1S/C16H18O5/c1-3-4-5-6-9-13-14(20-12(2)17)15(18)16(21-13)10-7-8-11-19-16/h9,14-15,18H,7-8,10-11H2,1-2H3/b13-9-
accession=JP010709
date=2016.01.19 (Created 2008.10.21, modified 2011.05.06)
author=EGUCHI S, FAC. OF SCIENCE, HIROSHIMA UNIV.
license=CC BY-NC-SA
exact mass=290.11542
ionization energy=70 eV
ion type=[M]+*
computed spectral entropy=4.406247810291359
computed normalized entropy=0.8782144814726018
SPLASH=splash10-0006-9620000000-e932e61cc1630e80b6b0
submitter=submitter = University of Tokyo Team (Faculty of Engineering, University of Tokyo)
MoNA Rating=3.75

>  <NUM PEAKS>  (891) 
151

>  <MASS SPECTRAL PEAKS>  (891) 
41 33
42 8
43 99.99
44 0.7
45 11
46 5
47 18
48 1.6
49 21
50 13
51 12
52 0.5
53 7
54 5
55 28
56 0.9
57 21
58 9
59 6
60 1.3
61 5
62 6
63 11
64 0.6
65 7
66 7
67 17
68 0.6
69 11
70 5
71 26
72 0.5
73 16
74 6
75 10
76 2.4
77 18
78 9
79 9
80 0.5
81 9
82 7
83 55
84 1.6
85 31
86 12
87 7
88 0.4
89 7
90 9
91 9
92 0.6
93 5
94 4
95 10
96 0.4
97 9
98 6
99 4
100 0.4
101 17
102 6
103 6
104 1
105 7
106 5
107 6
108 0.5
109 5
110 3
111 6
112 0.3
113 64
114 14
115 7
116 0.4
117 13
118 8
119 11
121 0.5
125 9
126 31
127 16
128 0.7
129 6
130 4
131 7
132 0.5
133 5
134 3
135 3
136 6
137 7
141 5
143 9
144 0.6
145 9
146 7
147 5
148 0.5
149 10
153 5
155 4
156 0.4
157 5
158 4
159 7
160 0.7
161 7
162 3
163 3
164 0.3
165 3
166 3
167 3
168 0.7
169 5
171 5
172 7
173 0.9
174 7
175 4
177 3.3
178 4.2
179 7
183 4
184 5
185 0.9
186 5
187 9
188 4
201 0.9
202 9
203 4
211 3
212 0.6
213 5
214 3
215 3
220 0.4
229 5
230 28
231 9
232 0.3
247 3
248 5
272 3
273 0.2
290 57
291 14
292 3

>  <PREDICTED SPECTRUM>  (891) 
29 12
32 3
33 34
34 9
36 8
37 49
38 76
39 264
40 175
41 559
42 209
43 999
44 194
45 443
46 47
47 137
48 57
49 137
50 246
51 397
52 238
53 442
54 228
55 675
56 150
57 356
58 203
59 310
60 280
61 204
62 167
63 312
64 169
65 314
66 179
67 385
68 217
69 451
70 239
71 379
72 128
73 369
74 216
75 336
76 260
77 578
78 267
79 440
80 261
81 372
82 244
83 491
84 225
85 515
86 244
87 303
88 155
89 314
90 185
91 310
92 146
93 253
94 170
95 365
96 194
97 414
98 178
99 412
100 112
101 264
102 279
103 364
104 239
105 399
106 234
107 312
108 150
109 213
110 192
111 284
112 220
113 845
114 343
115 481
116 173
117 378
118 267
119 313
120 199
121 324
122 157
123 195
124 148
125 337
126 883
127 507
128 293
129 246
130 232
131 312
132 289
133 238
134 254
135 299
136 190
137 122
138 33
139 161
140 74
141 331
142 236
143 285
144 217
145 350
146 275
147 278
148 297
149 352
150 163
151 81
152 84
153 237
154 152
155 196
156 85
157 345
158 296
159 332
160 281
161 225
162 200
163 297
164 185
165 57
166 108
167 97
168 8
169 210
170 96
171 310
172 207
173 325
174 315
175 315
176 222
177 223
178 352
179 253
180 159
181 130
182 124
183 130
184 230
185 209
186 284
187 308
188 310
189 222
190 59
191 113
192 38
193 73
197 59
201 275
202 365
203 240
204 16
211 34
212 149
213 213
214 162
215 253
217 21
219 15
220 21
229 212
230 697
231 423
232 149
245 12
247 147
248 223
249 80
290 952
291 434
292 171
293 18

$$$$

     RDKit          2D

 24 25  0  0  0  0  0  0  0  0999 V2000
  -12.2911    5.4579    0.0000 C   0  0  0  0  0  0  0  0  0  0  0  0
    3.4425    5.0758    0.0000 C   0  0  0  0  0  0  0  0  0  0  0  0
    2.6396    2.6049    0.0000 C   0  0  0  0  0  0  0  0  0  0  0  0
  -10.7993    5.3011    0.0000 C   0  0  0  0  0  0  0  0  0  0  0  0
   -9.3075    5.1443    0.0000 C   0  0  0  0  0  0  0  0  0  0  0  0
   -7.8158    4.9876    0.0000 C   0  0  0  0  0  0  0  0  0  0  0  0
   -6.3240    4.8308    0.0000 C   0  0  0  0  0  0  0  0  0  0  0  0
   -5.7068   -1.0409    0.0000 C   0  0  0  0  0  0  0  0  0  0  0  0
   -4.5921   -2.0445    0.0000 C   0  0  0  0  0  0  0  0  0  0  0  0
   -4.8322    4.6740    0.0000 C   0  0  0  0  0  0  0  0  0  0  0  0
   -5.3950    0.4264    0.0000 C   0  0  0  0  0  0  0  0  0  0  0  0
   -3.1655   -1.5810    0.0000 C   0  0  0  0  0  0  0  0  0  0  0  0
    0.9012    4.5356    0.0000 C   0  0  0  0  0  0  0  0  0  0  0  0
    2.3277    4.0721    0.0000 C   0  0  0  0  0  0  0  0  0  0  0  0
   -4.2221    3.3037    0.0000 C   0  0  0  0  0  0  0  0  0  0  0  0
   -0.2136    3.5320    0.0000 C   0  0  0  0  0  0  0  0  0  0  0  0
   -2.7549    2.9918    0.0000 C   0  0  0  0  0  0  0  0  0  0  0  0
   -2.5981    1.5000    0.0000 C   0  0  0  0  0  0  0  0  0  0  0  0
   -3.9684    0.8899    0.0000 C   0  0  0  0  0  0  0  0  0  0  0  0
    0.0983    2.0647    0.0000 O   0  0  0  0  0  0  0  0  0  0  0  0
   -1.2990    0.7500    0.0000 O   0  0  0  0  0  0  0  0  0  0  0  0
   -2.8537   -0.1138    0.0000 O   0  0  0  0  0  0  0  0  0  0  0  0
   -1.6402    3.9955    0.0000 O   0  0  0  0  0  0  0  0  0  0  0  0
   -4.9721    2.0046    0.0000 O   0  0  0  0  0  0  0  0  0  0  0  0
  4  1  1  0
  5  4  3  0
  6  5  1  0
  7  6  3  0
  9  8  1  0
 10  7  1  0
 11  8  1  0
 12  9  1  0
 14  2  1  0
 14  3  1  0
 14 13  1  0
 10 15  2  0
 16 13  1  0
 17 15  1  0
 18 17  1  0
 19 11  1  0
 19 18  1  0
 20 16  2  0
 21 18  1  0
 22 12  1  0
 22 19  1  0
 23 16  1  0
 23 17  1  0
 24 15  1  0
 24 19  1  0
M  END
>  <NAME>  (892) 
(2Z)-2-(2,4-HEXADIYNYLIDENE)-3-ISOVALERYLOXY-4-HYDROXY-1,6-DIOXASPIRO(4,5)DECANE

>  <SYNONYMS>  (892) 


>  <SPECTRUM TYPE>  (892) 
MS1

>  <INSTRUMENT TYPE>  (892) 
EI-B

>  <INSTRUMENT>  (892) 
HITACHI RMU-6L

>  <ION MODE>  (892) 
P

>  <INCHIKEY>  (892) 
LEOZNWWIPMVKHH-GDNBJRDFSA-N

>  <FORMULA>  (892) 
C19H24O5

>  <EXACT MASS>  (892) 
332.162373868

>  <MW>  (892) 
332

>  <ID>  (892) 
JP010708

>  <CONTRIBUTOR>  (892) 
University of Tokyo Team, {Faculty of Engineering, University of Tokyo

>  <COMMENT>  (892) 
SMILES=CC#CC#CC([H])=C(O1)C(OC(=O)CC(C)C)C(O)C(C2)(OCCC2)1
InChI=InChI=1S/C19H24O5/c1-4-5-6-7-10-15-17(23-16(20)13-14(2)3)18(21)19(24-15)11-8-9-12-22-19/h10,14,17-18,21H,8-9,11-13H2,1-3H3/b15-10-
computed SMILES=O=C(OC1C(OC2(OCCCC2)C1O)=CC#CC#CC)CC(C)C
ion type=[M]+*
accession=JP010708
date=2016.01.19 (Created 2008.10.21, modified 2011.05.06)
author=EGUCHI S, FAC. OF SCIENCE, HIROSHIMA UNIV.
license=CC BY-NC-SA
exact mass=332.16237
ionization energy=70 eV
computed spectral entropy=3.84291341276971
computed normalized entropy=0.8041042292187591
SPLASH=splash10-0a4i-9410000000-21c9743e6efc2a570521
submitter=submitter = University of Tokyo Team (Faculty of Engineering, University of Tokyo)
MoNA Rating=3.75

>  <NUM PEAKS>  (892) 
119

>  <MASS SPECTRAL PEAKS>  (892) 
41 30
42 6
43 30.5
44 0.2
45 4
50 5
51 6
52 0.2
53 4
54 2
55 26.5
56 0.4
57 99.99
58 8
59 4
60 0.3
62 1.5
63 4
64 1.5
65 0.4
67 10
68 2
69 9
70 0.15
71 15
73 8.5
74 2
75 0.35
76 11
77 11.5
78 3
79 0.4
80 1.5
81 3
83 8.5
85 9.35
86 6
87 2
89 2
90 0.3
91 4.5
93 2
97 3.5
98 0.15
101 12
102 3
103 3.5
104 0.45
105 3
111 3.5
113 35.5
114 0.8
115 3.5
117 2.5
118 4
119 0.45
121 2
125 3.5
126 21
127 0.7
128 2.5
129 2
130 1.5
131 0.35
132 2
133 2
135 2
136 3.45
137 4.5
141 2
143 3
144 0.15
145 2.5
146 3
147 2
148 0.2
149 1.5
153 1.5
155 1.5
157 0.2
158 2
159 3.5
160 2.5
161 0.4
162 1
163 2
164 2.5
169 0.15
171 1.5
172 2.5
173 4
174 0.4
177 2
183 1.5
184 2
185 0.45
186 2
187 4.5
188 2
191 0.15
197 1.5
199 1
201 4
202 0.5
203 1.5
210 1
211 1.5
212 0.2
213 1.5
220 16.5
221 3.5
230 1.5
231 6.5
248 1.5
249 1.5
314 0.1
315 1
332 3.5
333 3.5

>  <PREDICTED SPECTRUM>  (892) 
26 4
27 96
28 13
29 153
33 26
34 13
36 1
37 69
38 93
39 282
40 129
41 925
42 205
43 962
44 195
45 317
46 78
47 34
49 49
50 231
51 318
52 165
53 399
54 166
55 788
56 137
57 999
58 132
59 191
60 100
61 57
62 116
63 251
64 114
65 285
66 187
67 365
68 113
69 391
70 134
71 264
72 123
73 328
74 213
75 280
76 262
77 388
78 164
79 312
80 96
81 139
82 127
83 519
84 145
85 988
86 391
87 231
88 163
89 206
90 103
91 223
92 64
93 173
94 37
95 148
96 59
97 261
98 47
99 207
100 184
101 308
102 310
103 293
104 160
105 262
106 154
107 159
108 81
109 61
110 30
111 253
112 103
113 678
114 232
115 293
116 153
117 261
118 171
119 251
120 174
121 310
122 103
123 99
124 39
125 251
126 609
127 309
128 267
129 317
130 198
131 316
132 227
133 237
134 88
135 258
136 166
137 117
138 53
139 8
141 135
142 159
143 282
144 271
145 370
146 267
147 255
148 206
149 247
150 113
151 77
152 143
153 219
154 124
155 201
156 29
157 153
158 137
159 230
160 185
161 219
162 147
163 213
164 131
165 46
169 64
170 39
171 201
172 190
173 293
174 211
175 91
176 113
177 134
178 59
179 69
183 78
184 48
185 186
186 120
187 315
188 207
189 130
190 75
191 122
192 72
193 2
199 108
200 64
201 166
202 147
203 95
204 35
205 100
206 83
211 56
213 127
214 31
215 135
216 29
217 52
218 29
219 157
220 480
221 339
222 150
228 79
229 55
230 285
231 270
232 115
233 109
247 19
248 221
249 94
250 34
287 38
289 4
295 71
315 15
317 18
332 452
333 206
334 32

$$$$

     RDKit          2D

 24 25  0  0  0  0  0  0  0  0999 V2000
  -12.7068    5.6979    0.0000 C   0  0  0  0  0  0  0  0  0  0  0  0
    0.4855    4.7756    0.0000 C   0  0  0  0  0  0  0  0  0  0  0  0
    0.0000   -1.5000    0.0000 C   0  0  0  0  0  0  0  0  0  0  0  0
  -11.2150    5.5411    0.0000 C   0  0  0  0  0  0  0  0  0  0  0  0
   -9.7232    5.3843    0.0000 C   0  0  0  0  0  0  0  0  0  0  0  0
   -8.2315    5.2276    0.0000 C   0  0  0  0  0  0  0  0  0  0  0  0
   -6.7397    5.0708    0.0000 C   0  0  0  0  0  0  0  0  0  0  0  0
   -6.1225   -0.8009    0.0000 C   0  0  0  0  0  0  0  0  0  0  0  0
   -5.0078   -1.8045    0.0000 C   0  0  0  0  0  0  0  0  0  0  0  0
   -5.2479    4.9140    0.0000 C   0  0  0  0  0  0  0  0  0  0  0  0
   -5.8107    0.6664    0.0000 C   0  0  0  0  0  0  0  0  0  0  0  0
   -3.5812   -1.3410    0.0000 C   0  0  0  0  0  0  0  0  0  0  0  0
   -0.6293    3.7720    0.0000 C   0  0  0  0  0  0  0  0  0  0  0  0
   -1.2990   -0.7500    0.0000 C   0  0  0  0  0  0  0  0  0  0  0  0
   -4.6378    3.5437    0.0000 C   0  0  0  0  0  0  0  0  0  0  0  0
   -3.1706    3.2318    0.0000 C   0  0  0  0  0  0  0  0  0  0  0  0
   -3.0138    1.7400    0.0000 C   0  0  0  0  0  0  0  0  0  0  0  0
   -4.3841    1.1299    0.0000 C   0  0  0  0  0  0  0  0  0  0  0  0
   -0.3174    2.3047    0.0000 O   0  0  0  0  0  0  0  0  0  0  0  0
   -2.5981   -1.5000    0.0000 O   0  0  0  0  0  0  0  0  0  0  0  0
   -3.2694    0.1262    0.0000 O   0  0  0  0  0  0  0  0  0  0  0  0
   -2.0558    4.2355    0.0000 O   0  0  0  0  0  0  0  0  0  0  0  0
   -1.2990    0.7500    0.0000 O   0  0  0  0  0  0  0  0  0  0  0  0
   -5.3878    2.2446    0.0000 O   0  0  0  0  0  0  0  0  0  0  0  0
  4  1  1  0
  5  4  3  0
  6  5  1  0
  7  6  3  0
  9  8  1  0
 10  7  1  0
 11  8  1  0
 12  9  1  0
 13  2  1  0
 14  3  1  0
 10 15  2  0
 16 15  1  0
 17 16  1  0
 18 11  1  0
 18 17  1  0
 19 13  2  0
 20 14  2  0
 21 12  1  0
 21 18  1  0
 22 13  1  0
 22 16  1  0
 23 14  1  0
 23 17  1  0
 24 15  1  0
 24 18  1  0
M  END
>  <NAME>  (893) 
(2Z)-2-(2,4-HEXADIYNYLIDENE)-3,4-DIACETOXY-1,6-DIOXASPIRO(4,5)DECANE

>  <SYNONYMS>  (893) 


>  <SPECTRUM TYPE>  (893) 
MS1

>  <INSTRUMENT TYPE>  (893) 
EI-B

>  <INSTRUMENT>  (893) 
HITACHI RMU-6L

>  <ION MODE>  (893) 
P

>  <INCHIKEY>  (893) 
ZUVKMJVHYBUAHI-GDNBJRDFSA-N

>  <FORMULA>  (893) 
C18H20O6

>  <EXACT MASS>  (893) 
332.12598835999995

>  <MW>  (893) 
332

>  <ID>  (893) 
JP010707

>  <CONTRIBUTOR>  (893) 
University of Tokyo Team, {Faculty of Engineering, University of Tokyo

>  <COMMENT>  (893) 
SMILES=CC#CC#CC([H])=C(O1)C(OC(C)=O)C(OC(C)=O)C(C2)(OCCC2)1
InChI=InChI=1S/C18H20O6/c1-4-5-6-7-10-15-16(22-13(2)19)17(23-14(3)20)18(24-15)11-8-9-12-21-18/h10,16-17H,8-9,11-12H2,1-3H3/b15-10-
computed SMILES=O=C(OC1C(OC2(OCCCC2)C1OC(=O)C)=CC#CC#CC)C
accession=JP010707
date=2016.01.19 (Created 2008.10.21, modified 2011.05.06)
author=EGUCHI S, FAC. OF SCIENCE, HIROSHIMA UNIV.
license=CC BY-NC-SA
exact mass=332.12599
ionization energy=70 eV
ion type=[M]+*
computed spectral entropy=4.1171834397227425
computed normalized entropy=0.847189787825468
SPLASH=splash10-0059-3930000000-61cc052e917f4ceb1d0b
submitter=submitter = University of Tokyo Team (Faculty of Engineering, University of Tokyo)
MoNA Rating=3.75

>  <NUM PEAKS>  (893) 
129

>  <MASS SPECTRAL PEAKS>  (893) 
40 3
41 15.5
42 3
43 9.1
44 3.5
45 5.5
50 5
51 0.65
52 2.5
53 3.5
55 12.5
56 0.4
57 10
58 3.5
59 4.5
63 0.3
64 2
65 4
66 2
67 0.55
69 6
70 2
71 24
72 0.25
73 4.5
74 2.5
75 4.5
76 1
77 7
78 3.5
79 4
81 0.35
83 6.5
84 2
85 9
87 0.4
89 3.5
90 3
91 4
95 0.45
97 5.5
101 10
102 3.5
103 0.35
104 8
105 4.5
106 4
107 0.35
109 3.5
111 3.5
113 19
114 0.8
115 4
116 2
117 3
118 0.3
119 4.5
121 2
125 10
126 99.99
127 32.5
128 7
129 3.5
130 0.25
131 5
132 4
133 2
135 0.8
136 9.5
137 3
141 4
142 0.3
143 9
144 4
145 6
146 0.7
147 3.5
148 2.5
149 7
150 0.35
153 3.5
155 3.5
156 5.5
157 0.35
158 3.5
159 7
160 6
161 0.75
162 2
163 4
166 4
168 3.3
169 12
170 4
171 3.5
172 0.4
173 8
174 10
175 4
177 0.35
178 6
183 4
184 12
185 1.1
186 4
187 12.5
188 4
189 0.25
197 3.5
199 4
200 2
201 1
202 17
203 4.5
211 3
212 1.9
213 7
214 3.5
215 5
216 0.2
229 10
230 72
231 13
232 0.2
272 22
273 7
332 43
333 0.8
334 3

>  <PREDICTED SPECTRUM>  (893) 
29 28
32 26
38 20
39 136
40 68
41 133
42 103
43 658
44 165
45 180
49 34
50 118
51 199
52 111
53 210
54 70
55 280
56 26
57 161
58 54
59 82
60 160
61 76
62 61
63 168
64 83
65 146
66 59
67 127
68 76
69 172
70 116
71 152
72 89
73 150
74 109
75 140
76 118
77 275
78 95
79 162
80 50
81 96
82 78
83 148
84 77
85 206
86 126
87 119
88 61
89 106
90 1
91 179
92 65
93 111
94 36
95 39
96 22
97 184
98 100
99 187
100 204
101 248
102 222
103 207
104 137
105 212
106 144
107 73
108 34
109 83
110 43
111 115
112 49
113 358
114 162
115 357
116 126
117 159
118 131
119 197
120 133
121 203
122 55
123 99
124 73
125 242
126 557
127 477
128 357
129 243
130 182
131 264
132 175
133 126
134 85
135 187
136 74
137 115
138 29
139 101
140 51
141 132
142 154
143 146
144 153
145 235
146 197
147 190
148 157
149 220
150 44
151 80
152 101
153 209
154 7
155 155
156 103
157 237
158 143
159 191
160 126
161 88
162 140
163 118
165 27
167 30
168 104
169 177
170 289
171 295
172 139
173 258
174 245
175 104
176 93
177 186
178 163
181 7
183 262
184 235
185 227
186 143
187 245
188 197
189 145
190 51
191 23
197 166
198 55
199 152
200 128
201 246
202 282
203 99
205 26
206 16
207 30
208 10
211 171
212 315
213 471
214 181
215 276
216 60
228 12
229 393
230 999
231 339
232 16
272 441
273 259
274 93
289 60
290 4
332 612
333 178
334 79

$$$$

     RDKit          2D

 15 16  0  0  0  0  0  0  0  0999 V2000
   -6.4908    2.6631    0.0000 C   0  0  0  0  0  0  0  0  0  0  0  0
   -5.0236    2.3512    0.0000 C   0  0  0  0  0  0  0  0  0  0  0  0
   -3.5564    2.0393    0.0000 C   0  0  0  0  0  0  0  0  0  0  0  0
   -2.0892    1.7275    0.0000 C   0  0  0  0  0  0  0  0  0  0  0  0
   -0.6219    1.4156    0.0000 C   0  0  0  0  0  0  0  0  0  0  0  0
    6.0527    4.6455    0.0000 C   0  0  0  0  0  0  0  0  0  0  0  0
    0.8453    1.1037    0.0000 C   0  0  0  0  0  0  0  0  0  0  0  0
    1.5371    3.6857    0.0000 C   0  0  0  0  0  0  0  0  0  0  0  0
    4.5610    4.8023    0.0000 C   0  0  0  0  0  0  0  0  0  0  0  0
    2.8361    4.4357    0.0000 C   0  0  0  0  0  0  0  0  0  0  0  0
    6.3646    3.1783    0.0000 C   0  0  0  0  0  0  0  0  0  0  0  0
    1.8490    2.2185    0.0000 C   0  0  0  0  0  0  0  0  0  0  0  0
    3.9509    3.4320    0.0000 C   0  0  0  0  0  0  0  0  0  0  0  0
    5.0656    2.4283    0.0000 O   0  0  0  0  0  0  0  0  0  0  0  0
    3.3408    2.0617    0.0000 O   0  0  0  0  0  0  0  0  0  0  0  0
  2  1  1  0
  3  2  3  0
  4  3  1  0
  5  4  3  0
  7  5  1  0
  9  6  1  0
 10  8  2  0
 11  6  1  0
  7 12  2  0
 12  8  1  0
 13  9  1  0
 13 10  1  0
 14 11  1  0
 14 13  1  0
 15 12  1  0
 15 13  1  0
M  END
>  <NAME>  (894) 
(2E)-2-(2,4-HEXADIYNYLIDENE)-1,6-DIOXASPIRO(4,4)NON-3-ENE

>  <SYNONYMS>  (894) 


>  <SPECTRUM TYPE>  (894) 
MS1

>  <INSTRUMENT TYPE>  (894) 
EI-B

>  <INSTRUMENT>  (894) 
HITACHI RMU-6L

>  <ION MODE>  (894) 
P

>  <INCHIKEY>  (894) 
WTRXKCNFPMTAJV-KPKJPENVSA-N

>  <FORMULA>  (894) 
C13H12O2

>  <EXACT MASS>  (894) 
200.083729624

>  <MW>  (894) 
200

>  <ID>  (894) 
JP010706

>  <CONTRIBUTOR>  (894) 
University of Tokyo Team, {Faculty of Engineering, University of Tokyo

>  <COMMENT>  (894) 
SMILES=CC#CC#CC([H])=C(O1)C([H])=C([H])C(C2)(OCC2)1
InChI=InChI=1S/C13H12O2/c1-2-3-4-5-7-12-8-10-13(15-12)9-6-11-14-13/h7-8,10H,6,9,11H2,1H3/b12-7+
computed SMILES=C(C#CC)#CC=C1OC2(OCCC2)C=C1
accession=JP010706
date=2016.01.19 (Created 2008.10.21, modified 2011.05.06)
author=EGUCHI S, FAC. OF SCIENCE, HIROSHIMA UNIV.
license=CC BY-NC-SA
exact mass=200.08373
ionization energy=70 eV
ion type=[M]+*
computed spectral entropy=3.917896661235318
computed normalized entropy=0.8772900286214662
SPLASH=splash10-0udi-8930000000-54da540e8a73fc9bf120
submitter=submitter = University of Tokyo Team (Faculty of Engineering, University of Tokyo)
MoNA Rating=3.75

>  <NUM PEAKS>  (894) 
87

>  <MASS SPECTRAL PEAKS>  (894) 
41 16
42 13
43 6
47 0.8
50 25
51 16
52 7
53 0.9
54 13
55 14
62 6
63 1.1
64 4
65 8
66 6
67 1.15
68 5.5
69 6.5
74 12
75 1.4
76 25
77 16
78 10.5
79 1.5
82 9
83 23
85 32
86 0.4
87 7
88 6
89 6
91 1.1
92 3
93 3
94 3
95 0.6
96 5.5
100 3
101 3
102 1.9
103 7
104 5.5
105 6
106 0.6
107 11.5
108 7
109 3
113 0.3
114 4
115 32
116 14
117 0.6
118 3
119 2
127 12
128 2
129 22
130 15.5
131 7
132 0.4
133 3
139 4
141 13
142 0.4
143 10
144 13
145 4.5
152 0.45
153 5.5
155 6
156 6
157 1.95
158 17
159 8
169 16.5
170 2.6
171 18
172 14
173 3
183 0.3
184 4.5
185 16.5
186 3
199 1.9
200 99.99
201 15
202 3

>  <PREDICTED SPECTRUM>  (894) 
26 108
27 216
28 60
29 158
31 48
32 25
37 61
38 125
39 175
40 160
41 505
42 273
43 558
44 114
45 87
47 16
49 135
50 402
51 540
52 366
53 474
54 313
55 565
56 223
57 311
58 129
59 137
61 123
62 301
63 443
64 255
65 232
66 227
67 353
68 288
69 257
70 207
71 246
72 34
73 160
74 300
75 504
76 533
77 523
78 286
79 309
80 199
81 271
82 294
83 295
84 142
85 190
86 229
87 300
88 251
89 276
90 153
91 164
92 90
93 163
94 213
95 206
96 137
97 131
98 133
99 173
100 181
101 331
102 413
103 298
104 197
105 273
106 118
107 176
108 26
109 71
110 20
111 72
112 58
113 219
114 292
115 427
116 419
117 324
118 184
119 76
120 22
121 78
122 107
123 247
124 131
125 79
126 277
127 397
128 487
129 367
130 392
131 340
132 142
133 136
134 170
135 135
136 15
137 88
138 85
139 203
140 135
141 310
142 999
143 640
144 418
145 368
146 178
147 101
148 73
149 122
150 12
152 70
153 185
154 146
155 365
156 255
157 433
158 193
159 161
160 66
165 26
166 24
167 78
168 69
169 151
170 253
171 442
172 407
173 237
174 101
181 128
182 73
183 235
184 106
185 302
186 90
197 0
199 524
200 921
201 334
202 105

$$$$

     RDKit          2D

 21 21  0  0  1  0  0  0  0  0999 V2000
   -2.6089    1.7702    0.0000 C   0  0  0  0  0  0  0  0  0  0  0  0
   -5.2091   -1.2094    0.0000 C   0  0  0  0  0  0  0  0  0  0  0  0
    1.2766   -4.9843    0.0000 C   0  0  0  0  0  0  0  0  0  0  0  0
    5.2067   -1.2223    0.0000 C   0  0  0  0  0  0  0  0  0  0  0  0
    2.6013    3.2745    0.0000 C   0  0  0  0  0  0  0  0  0  0  0  0
   -1.3100    1.0200    0.0000 C   0  0  0  0  0  0  0  0  0  0  0  0
   -3.9081   -0.4629    0.0000 C   0  0  0  0  0  0  0  0  0  0  0  0
    1.2816   -3.4843    0.0000 C   0  0  0  0  0  0  0  0  0  0  0  0
    3.9081   -0.4716    0.0000 C   0  0  0  0  0  0  0  0  0  0  0  0
   -1.3100   -0.4700    0.0000 C   0  0  0  0  0  0  0  0  0  0  0  0
   -0.0100   -1.2300    0.0000 C   0  0  0  0  0  0  0  0  0  0  0  0
    1.3100   -0.4700    0.0000 C   0  0  0  0  0  0  0  0  0  0  0  0
    1.3100    1.0200    0.0000 C   0  0  0  0  0  0  0  0  0  0  0  0
   -3.9040    1.0371    0.0000 O   0  0  0  0  0  0  0  0  0  0  0  0
    2.5831   -2.7386    0.0000 O   0  0  0  0  0  0  0  0  0  0  0  0
    3.9090    1.0284    0.0000 O   0  0  0  0  0  0  0  0  0  0  0  0
    2.6064    1.7745    0.0000 O   0  0  0  0  0  0  0  0  0  0  0  0
   -0.0100    1.7700    0.0000 O   0  0  0  0  0  0  0  0  0  0  0  0
   -2.6111   -1.2165    0.0000 O   0  0  0  0  0  0  0  0  0  0  0  0
   -0.0150   -2.7300    0.0000 O   0  0  0  0  0  0  0  0  0  0  0  0
    2.6086   -1.2208    0.0000 O   0  0  0  0  0  0  0  0  0  0  0  0
  6  1  1  6
  7  2  1  0
  8  3  1  0
  9  4  1  0
 10  6  1  0
 11 10  1  0
 12 11  1  0
 13 12  1  0
 14  7  2  0
 15  8  2  0
 16  9  2  0
 17  5  1  0
 17 13  1  0
 18  6  1  0
 18 13  1  0
 19  7  1  0
 19 10  1  0
 20  8  1  0
 11 20  1  1
 21  9  1  0
 12 21  1  6
M  END
>  <NAME>  (895) 
METHYL TRIACETYL-ALPHA-L-RHAMNOPYRANOSIDE

>  <SYNONYMS>  (895) 


>  <SPECTRUM TYPE>  (895) 
MS1

>  <INSTRUMENT TYPE>  (895) 
EI-B

>  <INSTRUMENT>  (895) 
HITACHI RMU-6L

>  <ION MODE>  (895) 
P

>  <INCHIKEY>  (895) 
RTVWBDNQHISFHI-WBLBWYBMSA-N

>  <FORMULA>  (895) 
C13H20O8

>  <EXACT MASS>  (895) 
304.1158176

>  <MW>  (895) 
304

>  <ID>  (895) 
JP010703

>  <CONTRIBUTOR>  (895) 
University of Tokyo Team, {Faculty of Engineering, University of Tokyo

>  <COMMENT>  (895) 
SMILES=CC(=O)OC([H])(C([H])(C)1)C([H])(OC(C)=O)C([H])(OC(C)=O)C([H])(OC)O1
InChI=InChI=1S/C13H20O8/c1-6-10(19-7(2)14)11(20-8(3)15)12(21-9(4)16)13(17-5)18-6/h6,10-13H,1-5H3/t6-,10?,11-,12+,13?/m0/s1
computed SMILES=O=C(OC1C(OC)OC(C)C(OC(=O)C)C1OC(=O)C)C
accession=JP010703
date=2016.01.19 (Created 2008.10.21, modified 2011.05.06)
author=EGUCHI S, FAC. OF SCIENCE, HIROSHIMA UNIV.
license=CC BY-NC-SA
exact mass=304.11582
ionization energy=70 eV
ion type=[M]+*
computed spectral entropy=3.586826756102555
computed normalized entropy=0.7971063264636477
SPLASH=splash10-0ktf-6900000000-5ddff878a628c25be041
submitter=submitter = University of Tokyo Team (Faculty of Engineering, University of Tokyo)
MoNA Rating=3.75

>  <NUM PEAKS>  (895) 
90

>  <MASS SPECTRAL PEAKS>  (895) 
41 6
42 5
43 99.99
44 1.2
45 13
47 6
48 3
49 0.2
50 1
53 2.3
54 1.5
55 0.6
56 2
57 7
58 8
59 0.4
60 5
61 8
69 5
70 0.3
71 31
72 4
73 10
74 4.6
75 3
81 2
82 13
83 3.5
84 9
85 19
86 2
87 3.4
88 3
89 1.5
95 1
96 1.3
97 3
98 5
99 26
100 2.8
101 10
102 43
103 28
104 0.2
110 2
111 18
112 2.5
113 2.8
114 4
115 61
116 21
117 0.5
118 1
120 1
125 3.5
126 0.8
127 4.3
128 1.8
129 12
130 0.12
131 1
140 16
141 3
142 2.5
143 7
144 26
145 12
146 0.13
153 15
156 1.8
157 84
158 1.2
159 2.5
171 4
172 0.8
184 3.7
185 19
186 2.3
187 2.5
188 0.1
200 3
201 2.5
202 0.8
212 0.1
213 1.5
217 2.5
244 2.7
245 0.08
273 10
274 1.5

>  <PREDICTED SPECTRUM>  (895) 
28 23
39 29
40 40
41 211
42 151
43 999
44 229
45 286
51 6
53 102
54 64
55 232
56 86
57 234
58 100
59 209
60 199
61 172
65 48
67 27
68 85
69 250
70 134
71 345
72 160
73 252
74 389
75 84
77 31
80 19
81 250
82 281
83 459
84 109
85 194
86 154
87 450
88 142
89 52
95 30
96 44
97 149
98 178
99 400
100 397
101 245
102 384
103 407
109 95
110 82
111 218
112 88
113 363
114 213
115 734
116 330
117 141
118 48
124 96
125 260
126 143
127 154
128 63
129 161
130 71
131 59
139 64
140 237
141 145
142 496
143 296
144 448
145 301
153 176
156 134
157 727
158 267
159 122
171 37
172 15
183 3
184 395
185 351
186 107
200 128
201 124
213 31
216 37
217 189
244 36
245 88
256 12
273 100

$$$$

     RDKit          2D

 12 12  0  0  1  0  0  0  0  0999 V2000
    3.7413   -1.6389    0.0000 C   0  0  0  0  0  0  0  0  0  0  0  0
   -2.7772   -0.4897    0.0000 C   0  0  0  0  0  0  0  0  0  0  0  0
   -1.8127   -2.1596    0.0000 C   0  0  0  0  0  0  0  0  0  0  0  0
    1.8127   -2.1596    0.0000 C   0  0  0  0  0  0  0  0  0  0  0  0
    2.7772   -0.4897    0.0000 C   0  0  0  0  0  0  0  0  0  0  0  0
    0.0000    1.5000    0.0000 C   0  0  0  0  0  0  0  0  0  0  0  0
    1.3000    0.7500    0.0000 C   0  0  0  0  0  0  0  0  0  0  0  0
   -1.3000    0.7500    0.0000 C   0  0  0  0  0  0  0  0  0  0  0  0
   -1.3000   -0.7500    0.0000 C   0  0  0  0  0  0  0  0  0  0  0  0
    1.3000   -0.7500    0.0000 C   0  0  0  0  0  0  0  0  0  0  0  0
   -2.5989    1.5002    0.0000 O   0  0  0  0  0  0  0  0  0  0  0  0
   -0.0000   -1.5000    0.0000 O   0  0  0  0  0  0  0  0  0  0  0  0
  5  1  2  0
  7  6  1  0
  8  6  1  0
  9  2  1  0
  9  3  1  0
  9  8  1  0
 10  4  1  1
 10  5  1  0
 10  7  1  0
 11  8  2  0
 12  9  1  0
 12 10  1  0
M  END
>  <NAME>  (896) 
(-)-2,6,6-TRIMETHYL-2(R)-VINYLTETRAHYDROPYRAN-5-ONE

>  <SYNONYMS>  (896) 


>  <SPECTRUM TYPE>  (896) 
MS1

>  <INSTRUMENT TYPE>  (896) 
EI-B

>  <INSTRUMENT>  (896) 
HITACHI RMU-6L

>  <ION MODE>  (896) 
P

>  <INCHIKEY>  (896) 
ATQPZCOAQSYTPR-JTQLQIEISA-N

>  <FORMULA>  (896) 
C10H16O2

>  <EXACT MASS>  (896) 
168.115029752

>  <MW>  (896) 
168

>  <ID>  (896) 
JP010698

>  <CONTRIBUTOR>  (896) 
University of Tokyo Team, {Faculty of Engineering, University of Tokyo

>  <COMMENT>  (896) 
SMILES=C=CC(C)(C1)OC(C)(C)C(=O)C1
InChI=InChI=1S/C10H16O2/c1-5-10(4)7-6-8(11)9(2,3)12-10/h5H,1,6-7H2,2-4H3/t10-/m0/s1
computed SMILES=O=C1CCC(OC1(C)C)(C=C)C
accession=JP010698
date=2016.01.19 (Created 2008.10.21, modified 2011.05.06)
author=EGUCHI S, FAC. OF SCIENCE, HIROSHIMA UNIV.
license=CC BY-NC-SA
exact mass=168.11503
ionization energy=70 eV
ion type=[M]+*
computed spectral entropy=2.8556042772128216
computed normalized entropy=0.7299559008856835
SPLASH=splash10-014i-9200000000-cdfb8c54f2a6bffa2c8f
submitter=submitter = University of Tokyo Team (Faculty of Engineering, University of Tokyo)
MoNA Rating=3.75

>  <NUM PEAKS>  (896) 
50

>  <MASS SPECTRAL PEAKS>  (896) 
41 26.5
42 9.5
43 34
44 0.15
51 3
52 4
53 14
54 0.8
55 13
56 3
57 2
58 0.15
59 14
65 43
66 4.5
67 8.9
68 99.99
69 11
70 10.5
71 0.3
77 2
79 4
80 2
81 1
82 28
83 4
84 1.5
92 0.25
93 2.5
94 1.5
95 9
96 0.15
97 3.5
107 2
108 1.5
109 0.2
110 76
111 9
112 1
123 0.2
124 1
125 2
126 1
135 0.15
141 4
142 1
153 4
154 0.15
168 4
169 1

>  <PREDICTED SPECTRUM>  (896) 
26 7
27 73
29 19
37 20
38 74
39 396
40 214
41 673
42 241
43 999
44 120
45 19
50 86
51 186
52 139
53 412
54 253
55 729
56 279
57 388
58 240
59 89
65 196
66 123
67 605
68 550
69 582
70 220
71 260
72 78
77 205
79 146
81 264
82 323
83 301
84 44
85 185
86 23
91 236
92 16
93 391
94 86
95 323
96 148
97 247
98 155
99 221
100 175
101 74
107 68
108 1
109 60
110 190
111 849
112 151
113 93
124 8
125 236
126 110
135 38
140 143
141 115
150 30
153 525
154 140
168 161
169 16

$$$$

     RDKit          2D

 15 15  0  0  1  0  0  0  0  0999 V2000
    3.9397    2.8860    0.0000 C   0  0  0  0  0  0  0  0  0  0  0  0
   -4.5470   -1.0348    0.0000 C   0  0  0  0  0  0  0  0  0  0  0  0
   -0.3148   -2.1846    0.0000 C   0  0  0  0  0  0  0  0  0  0  0  0
    1.6137   -2.1843    0.0000 C   0  0  0  0  0  0  0  0  0  0  0  0
    3.4264    0.9554    0.0000 C   0  0  0  0  0  0  0  0  0  0  0  0
    2.4624    2.6257    0.0000 C   0  0  0  0  0  0  0  0  0  0  0  0
   -0.6493    1.2154    0.0000 C   0  0  0  0  0  0  0  0  0  0  0  0
    0.6502    1.9662    0.0000 C   0  0  0  0  0  0  0  0  0  0  0  0
   -3.2478   -0.2850    0.0000 C   0  0  0  0  0  0  0  0  0  0  0  0
   -0.6498   -0.2855    0.0000 C   0  0  0  0  0  0  0  0  0  0  0  0
    0.6493   -1.0355    0.0000 C   0  0  0  0  0  0  0  0  0  0  0  0
    1.9493    1.2162    0.0000 C   0  0  0  0  0  0  0  0  0  0  0  0
   -3.2476    1.2150    0.0000 O   0  0  0  0  0  0  0  0  0  0  0  0
   -1.9489   -1.0353    0.0000 O   0  0  0  0  0  0  0  0  0  0  0  0
    1.9488   -0.2846    0.0000 O   0  0  0  0  0  0  0  0  0  0  0  0
  6  1  2  0
  8  7  1  0
  9  2  1  0
 10  7  1  0
 11  3  1  0
 11  4  1  0
 11 10  1  0
 12  5  1  1
 12  6  1  0
 12  8  1  0
 13  9  2  0
 14  9  1  0
 10 14  1  6
 15 11  1  0
 15 12  1  0
M  END
>  <NAME>  (897) 
(-)-2,6,6-TRIMETHYL-2(R)-VINYL-5(R)-ACETOXYTETRAHYDROPYRAN

>  <SYNONYMS>  (897) 


>  <SPECTRUM TYPE>  (897) 
MS1

>  <INSTRUMENT TYPE>  (897) 
EI-B

>  <INSTRUMENT>  (897) 
HITACHI RMU-6L

>  <ION MODE>  (897) 
P

>  <INCHIKEY>  (897) 
IRWLDXUJBJPFNV-PWSUYJOCSA-N

>  <FORMULA>  (897) 
C12H20O3

>  <EXACT MASS>  (897) 
212.14124449999997

>  <MW>  (897) 
212

>  <ID>  (897) 
JP010697

>  <CONTRIBUTOR>  (897) 
University of Tokyo Team, {Faculty of Engineering, University of Tokyo

>  <COMMENT>  (897) 
SMILES=C=CC(C)(C1)OC(C)(C)C([H])(OC(C)=O)C1
InChI=InChI=1S/C12H20O3/c1-6-12(5)8-7-10(14-9(2)13)11(3,4)15-12/h6,10H,1,7-8H2,2-5H3/t10-,12+/m1/s1
computed SMILES=O=C(OC1CCC(OC1(C)C)(C=C)C)C
accession=JP010697
date=2016.01.19 (Created 2008.10.21, modified 2011.05.06)
author=EGUCHI S, FAC. OF SCIENCE, HIROSHIMA UNIV.
license=CC BY-NC-SA
exact mass=212.14124
ionization energy=70 eV
ion type=[M]+*
computed spectral entropy=3.134266631086431
computed normalized entropy=0.7564964303770598
SPLASH=splash10-0006-9200000000-e7e749a1f8bdb6b67e2d
submitter=submitter = University of Tokyo Team (Faculty of Engineering, University of Tokyo)
MoNA Rating=3.75

>  <NUM PEAKS>  (897) 
63

>  <MASS SPECTRAL PEAKS>  (897) 
41 14
42 2.5
43 99.99
44 0.45
45 2.5
53 5
54 2
55 1.35
56 1.5
57 2.5
59 20
60 0.2
65 2
67 8.5
68 31
69 0.55
70 2.5
71 6.5
72 11
75 0.2
77 3.5
78 1.5
79 11
80 0.2
81 8
82 4.5
83 5
84 0.25
85 3.5
86 2
91 2
93 1.4
94 51
95 8
96 2.5
97 0.4
98 2
99 2.5
100 2.5
101 1
102 2
107 2.5
108 2
109 0.2
111 4.5
112 2
113 2
114 0.3
119 3
121 2
125 5.5
126 0.3
136 14
137 11.5
138 2.5
143 0.45
154 9
155 7
156 2.5
170 0.1
197 6.5
198 2
212 0.3

>  <PREDICTED SPECTRUM>  (897) 
25 5
26 46
27 204
28 94
29 169
30 31
31 62
37 5
38 37
39 270
40 148
41 494
42 216
43 999
44 201
45 133
46 1
50 47
51 115
52 91
53 265
54 206
55 393
56 163
57 261
58 216
59 318
60 75
61 52
63 23
65 151
66 125
67 405
68 348
69 284
70 191
71 316
72 160
73 62
77 173
78 88
79 320
80 66
81 311
82 144
83 238
84 158
85 214
86 81
87 63
91 176
92 74
93 359
94 385
95 293
96 129
97 123
98 89
99 149
100 112
101 100
102 33
103 15
105 51
107 57
108 94
109 253
110 154
111 282
112 136
113 137
114 48
115 41
116 32
119 82
121 61
123 54
124 91
125 140
126 190
127 120
128 19
129 13
135 42
136 57
137 302
138 124
139 31
141 54
142 48
144 16
152 222
153 119
154 64
155 110
168 25
169 55
170 84
185 67
197 97

$$$$

     RDKit          2D

 12 12  0  0  1  0  0  0  0  0999 V2000
    3.7413   -1.6389    0.0000 C   0  0  0  0  0  0  0  0  0  0  0  0
   -2.7772   -0.4897    0.0000 C   0  0  0  0  0  0  0  0  0  0  0  0
   -1.8127   -2.1596    0.0000 C   0  0  0  0  0  0  0  0  0  0  0  0
    1.8127   -2.1596    0.0000 C   0  0  0  0  0  0  0  0  0  0  0  0
    2.7772   -0.4897    0.0000 C   0  0  0  0  0  0  0  0  0  0  0  0
    0.0000    1.5000    0.0000 C   0  0  0  0  0  0  0  0  0  0  0  0
    1.3000    0.7500    0.0000 C   0  0  0  0  0  0  0  0  0  0  0  0
   -1.3000    0.7500    0.0000 C   0  0  0  0  0  0  0  0  0  0  0  0
   -1.3000   -0.7500    0.0000 C   0  0  0  0  0  0  0  0  0  0  0  0
    1.3000   -0.7500    0.0000 C   0  0  0  0  0  0  0  0  0  0  0  0
   -2.5989    1.5002    0.0000 O   0  0  0  0  0  0  0  0  0  0  0  0
   -0.0000   -1.5000    0.0000 O   0  0  0  0  0  0  0  0  0  0  0  0
  5  1  2  0
  7  6  1  0
  8  6  1  0
  9  2  1  0
  9  3  1  0
  9  8  1  0
 10  4  1  1
 10  5  1  0
 10  7  1  0
  8 11  1  6
 12  9  1  0
 12 10  1  0
M  END
>  <NAME>  (898) 
(-)-2,6,6-TRIMETHYL-2(R)-VINYL-5(R)-HYDROXYTETRAHYDROPYRAN

>  <SYNONYMS>  (898) 


>  <SPECTRUM TYPE>  (898) 
MS1

>  <INSTRUMENT TYPE>  (898) 
EI-B

>  <INSTRUMENT>  (898) 
HITACHI RMU-6L

>  <ION MODE>  (898) 
P

>  <INCHIKEY>  (898) 
BCTBAGTXFYWYMW-SCZZXKLOSA-N

>  <FORMULA>  (898) 
C10H18O2

>  <EXACT MASS>  (898) 
170.130679816

>  <MW>  (898) 
170

>  <ID>  (898) 
JP010696

>  <CONTRIBUTOR>  (898) 
University of Tokyo Team, {Faculty of Engineering, University of Tokyo

>  <COMMENT>  (898) 
SMILES=C=CC(C)(C1)OC(C)(C)C([H])(O)C1
InChI=InChI=1S/C10H18O2/c1-5-10(4)7-6-8(11)9(2,3)12-10/h5,8,11H,1,6-7H2,2-4H3/t8-,10+/m1/s1
computed SMILES=OC1CCC(OC1(C)C)(C=C)C
accession=JP010696
date=2016.01.19 (Created 2008.10.21, modified 2011.05.06)
author=EGUCHI S, FAC. OF SCIENCE, HIROSHIMA UNIV.
license=CC BY-NC-SA
exact mass=170.13068
ionization energy=70 eV
ion type=[M]+*
computed spectral entropy=2.9304472350075517
computed normalized entropy=0.7380936462139766
SPLASH=splash10-05mo-9000000000-3a05e06520c8a15bdc8e
submitter=submitter = University of Tokyo Team (Faculty of Engineering, University of Tokyo)
MoNA Rating=3.75

>  <NUM PEAKS>  (898) 
53

>  <MASS SPECTRAL PEAKS>  (898) 
41 27.5
42 5.5
43 46.5
44 0.5
45 4.5
51 4.5
52 3
53 1.6
54 4.5
55 13.5
56 6
57 0.95
58 2.5
59 79.5
60 5
65 0.35
66 4.5
67 32
68 99.99
69 1.35
70 8
71 10
72 6.5
77 0.45
78 2
79 17.5
80 3
81 1.15
82 2
83 9.5
84 6
85 0.5
92 2
93 4.5
94 71.5
95 0.95
96 2
97 6
99 3
102 0.45
107 2
108 1.5
109 4
111 0.3
112 8.5
119 1.5
125 3.5
135 0.3
137 5
143 3.5
153 4.5
155 0.35
170 1.5

>  <PREDICTED SPECTRUM>  (898) 
26 37
27 194
28 31
29 168
30 23
31 166
37 6
38 27
39 385
40 215
41 676
42 224
43 907
44 157
45 165
50 47
51 168
52 162
53 480
54 249
55 543
56 250
57 282
58 215
59 999
60 88
63 15
65 242
66 240
67 843
68 950
69 500
70 253
71 424
72 193
73 125
77 216
78 86
79 499
80 72
81 542
82 158
83 325
84 392
85 228
87 8
91 165
92 98
93 351
94 797
95 250
96 164
97 311
98 70
99 87
100 33
107 53
108 45
109 147
110 152
111 263
112 358
113 178
119 64
123 17
125 58
127 17
128 50
137 245
138 22
141 22
142 27
143 158
152 51
155 229
156 19

$$$$

     RDKit          2D

 11 12  0  0  1  0  0  0  0  0999 V2000
   -2.6602    1.4980    0.0000 C   0  0  0  0  0  0  0  0  0  0  0  0
   -2.8369   -0.4880    0.0000 C   0  0  0  0  0  0  0  0  0  0  0  0
   -1.8759   -2.1585    0.0000 C   0  0  0  0  0  0  0  0  0  0  0  0
    0.3900   -0.0000    0.0000 C   0  0  0  0  0  0  0  0  0  0  0  0
    1.2300   -0.7500    0.0000 C   0  0  0  0  0  0  0  0  0  0  0  0
   -1.3600    0.7500    0.0000 C   0  0  0  0  0  0  0  0  0  0  0  0
   -0.0700   -1.5000    0.0000 C   0  0  0  0  0  0  0  0  0  0  0  0
   -0.0700    1.5000    0.0000 C   0  0  0  0  0  0  0  0  0  0  0  0
    1.2300    0.7500    0.0000 C   0  0  0  0  0  0  0  0  0  0  0  0
   -1.3600   -0.7500    0.0000 C   0  0  0  0  0  0  0  0  0  0  0  0
    2.5289    1.5002    0.0000 Cl  0  0  0  0  0  0  0  0  0  0  0  0
  6  1  2  0
  7  4  1  0
  7  5  1  1
  8  4  1  0
  8  6  1  1
  9  5  1  0
  9  8  1  0
 10  2  1  0
 10  3  1  0
 10  6  1  0
 10  7  1  0
  9 11  1  6
M  END
>  <NAME>  (899) 
EXO-6-CHLOROCAMPHENE

>  <SYNONYMS>  (899) 


>  <SPECTRUM TYPE>  (899) 
MS1

>  <INSTRUMENT TYPE>  (899) 
EI-B

>  <INSTRUMENT>  (899) 
HITACHI RMU-6L

>  <ION MODE>  (899) 
P

>  <INCHIKEY>  (899) 
RYBMATYKJPKXJO-XHNCKOQMSA-N

>  <FORMULA>  (899) 
C10H15Cl

>  <EXACT MASS>  (899) 
170.08622816

>  <MW>  (899) 
170

>  <ID>  (899) 
JP010695

>  <CONTRIBUTOR>  (899) 
University of Tokyo Team, {Faculty of Engineering, University of Tokyo

>  <COMMENT>  (899) 
SMILES=ClC(C1)C(C2)C(=C)C(C)(C)C12
InChI=InChI=1S/C10H15Cl/c1-6-8-4-7(5-9(8)11)10(6,2)3/h7-9H,1,4-5H2,2-3H3/t7-,8-,9+/m0/s1
computed SMILES=ClC1CC2CC1C(=C)C2(C)C
license=CC BY-NC-SA
accession=JP010695
date=2016.01.19 (Created 2008.10.21, modified 2011.05.06)
author=EGUCHI S, FAC. OF SCIENCE, HIROSHIMA UNIV.
exact mass=170.08623
ionization energy=70 eV
ion type=[M]+*
computed spectral entropy=3.5387807766353645
computed normalized entropy=0.8357798210302617
SPLASH=splash10-002f-9400000000-1ab99dda158f85697b87
submitter=submitter = University of Tokyo Team (Faculty of Engineering, University of Tokyo)
MoNA Rating=3.75

>  <NUM PEAKS>  (899) 
69

>  <MASS SPECTRAL PEAKS>  (899) 
41 45
42 5
43 11
44 0.4
50 5
51 19
52 8
53 1.9
54 3
55 12
56 3
57 0.3
61 1.5
62 3
63 8
64 0.3
65 20
66 12
67 27
68 0.95
69 12
70 2
75 5
76 0.25
77 47
78 10
79 39
80 0.9
81 6
82 4
89 3
91 5
92 16.5
93 99.99
94 15
95 0.9
100 3
101 2
102 5.5
103 0.5
104 4
105 17
106 6
107 4.9
108 17
109 3
113 4
114 0.2
115 4.5
116 2.5
117 5
119 2.7
121 30
122 4
125 3
126 0.3
127 12
128 5
129 6
133 0.45
134 10
135 37
136 7
155 2.4
156 4
157 9
170 9
171 0.4
172 8

>  <PREDICTED SPECTRUM>  (899) 
27 153
28 63
29 98
35 5
36 87
37 28
38 97
39 478
40 171
41 626
42 156
43 395
44 70
45 84
49 78
50 125
51 299
52 128
53 342
54 57
55 221
56 18
57 90
59 73
61 25
62 69
63 221
64 110
65 394
66 216
67 504
68 88
69 246
70 67
73 89
74 27
75 182
76 69
77 474
78 231
79 590
80 214
81 327
82 102
85 60
88 29
89 144
90 92
91 552
92 328
93 999
94 306
95 156
96 52
99 103
100 63
101 145
102 119
103 129
104 70
105 388
106 193
107 359
108 344
109 183
113 134
114 54
115 74
116 17
117 53
119 431
120 153
121 607
122 107
126 27
127 313
128 208
129 230
130 95
133 11
134 388
135 541
136 231
142 66
155 257
156 48
157 158
170 323
171 88
172 210
173 35

$$$$

     RDKit          2D

 15 16  0  0  1  0  0  0  0  0999 V2000
    2.6990   -3.6400    0.0000 C   0  0  0  0  0  0  0  0  0  0  0  0
    0.1010   -3.6400    0.0000 C   0  0  0  0  0  0  0  0  0  0  0  0
   -3.7989   -1.3902    0.0000 C   0  0  0  0  0  0  0  0  0  0  0  0
    1.4000    3.1100    0.0000 C   0  0  0  0  0  0  0  0  0  0  0  0
   -2.5000    0.8600    0.0000 C   0  0  0  0  0  0  0  0  0  0  0  0
    2.7000    0.8600    0.0000 C   0  0  0  0  0  0  0  0  0  0  0  0
   -1.2000    1.6100    0.0000 C   0  0  0  0  0  0  0  0  0  0  0  0
    2.7000   -0.6400    0.0000 C   0  0  0  0  0  0  0  0  0  0  0  0
   -1.2000   -1.3900    0.0000 C   0  0  0  0  0  0  0  0  0  0  0  0
    1.4000   -2.8900    0.0000 C   0  0  0  0  0  0  0  0  0  0  0  0
   -2.5000   -0.6400    0.0000 C   0  0  0  0  0  0  0  0  0  0  0  0
    1.4000    1.6100    0.0000 C   0  0  0  0  0  0  0  0  0  0  0  0
    1.4000   -1.3900    0.0000 C   0  0  0  0  0  0  0  0  0  0  0  0
    0.1000    0.8600    0.0000 C   0  0  0  0  0  0  0  0  0  0  0  0
    0.1000   -0.6400    0.0000 C   0  0  0  0  0  0  0  0  0  0  0  0
  7  5  1  0
  8  6  1  0
 10  1  1  0
 10  2  1  0
 11  3  1  0
 11  5  1  0
 11  9  2  0
 12  4  1  0
 12  6  2  0
 13  8  1  0
 13 10  1  6
 14  7  1  1
 14 12  1  0
 15  9  1  1
 15 13  1  0
 15 14  1  0
M  END
>  <NAME>  (900) 
(+)-ALPHA-MUUROLENE

>  <SYNONYMS>  (900) 


>  <SPECTRUM TYPE>  (900) 
MS1

>  <INSTRUMENT TYPE>  (900) 
EI-B

>  <INSTRUMENT>  (900) 
HITACHI RMU-6L

>  <ION MODE>  (900) 
P

>  <INCHIKEY>  (900) 
QMAYBMKBYCGXDH-QLFBSQMISA-N

>  <FORMULA>  (900) 
C15H24

>  <EXACT MASS>  (900) 
204.187800768

>  <MW>  (900) 
204

>  <ID>  (900) 
JP010693

>  <CONTRIBUTOR>  (900) 
University of Tokyo Team, {Faculty of Engineering, University of Tokyo

>  <COMMENT>  (900) 
SMILES=CC(C2)=C([H])C([H])(C([H])(C(C)C)1)C([H])(C2)C(C)=C([H])C1
InChI=InChI=1S/C15H24/c1-10(2)13-8-6-12(4)14-7-5-11(3)9-15(13)14/h6,9-10,13-15H,5,7-8H2,1-4H3/t13-,14+,15-/m1/s1
computed SMILES=C1=C(C)C2CCC(=CC2C(C1)C(C)C)C
accession=JP010693
date=2016.01.19 (Created 2008.10.21, modified 2011.05.06)
author=EGUCHI S, FAC. OF SCIENCE, HIROSHIMA UNIV.
license=CC BY-NC-SA
exact mass=204.1878
ionization energy=70 eV
ion type=[M]+*
computed spectral entropy=3.621793719287932
computed normalized entropy=0.8218798421379776
SPLASH=splash10-052f-6900000000-e29d06058de77b5a076d
submitter=submitter = University of Tokyo Team (Faculty of Engineering, University of Tokyo)
MoNA Rating=3.75

>  <NUM PEAKS>  (900) 
82

>  <MASS SPECTRAL PEAKS>  (900) 
41 40.3
42 3.2
43 20.9
44 0.16
51 4.8
52 1.6
53 12.9
54 0.16
55 19.4
56 3.2
57 8.1
63 0.24
64 1.6
65 8.1
66 1.6
67 0.89
68 1.6
69 11.3
70 1.6
73 0.16
77 19.4
78 4.8
79 19.4
80 0.48
81 29
82 3.2
83 1.6
89 0.16
91 27.4
92 11.3
93 37.1
94 3.55
95 9.7
103 4
104 2.4
105 99.99
106 17.7
107 11.3
108 9.7
109 0.32
110 1.6
115 6.5
116 2.4
117 0.81
118 3.2
119 29
120 6.5
121 1.13
122 4.8
123 9.7
127 1.6
128 0.48
129 4.8
130 3.2
131 5.6
132 0.16
133 14.5
134 8.1
135 4.8
136 0.32
141 2.4
142 1.6
143 2.4
144 0.16
145 8.1
146 2.4
147 22.6
148 0.97
149 6.5
150 1.6
159 2.4
160 0.48
161 56.5
162 19.4
163 2.4
175 0.48
176 2.4
189 12.9
190 4
204 3.55
205 6.5
206 1.6

>  <PREDICTED SPECTRUM>  (900) 
27 230
28 49
29 212
39 341
40 124
41 733
42 146
43 491
50 72
51 239
52 138
53 437
54 76
55 535
56 175
57 295
58 10
63 150
64 84
65 352
66 189
67 548
68 162
69 444
70 174
71 76
76 1
77 689
78 276
79 637
80 445
81 682
82 344
83 286
84 74
89 63
90 49
91 917
92 542
93 890
94 405
95 368
96 217
97 120
102 71
103 225
104 156
105 946
106 500
107 529
108 294
109 345
110 114
111 27
115 324
116 167
117 402
118 212
119 765
120 322
121 335
122 219
123 163
128 258
129 151
130 64
131 287
132 143
133 833
134 418
135 379
136 133
137 39
142 130
143 305
144 148
145 177
146 57
147 330
148 311
149 166
159 26
160 81
161 999
162 361
175 79
187 1
189 270
190 11
202 30
204 516
205 210

$$$$

     RDKit          2D

 16 17  0  0  1  0  0  0  0  0999 V2000
   -3.8987   -3.0002    0.0000 C   0  0  0  0  0  0  0  0  0  0  0  0
   -5.1981   -0.7504    0.0000 C   0  0  0  0  0  0  0  0  0  0  0  0
    1.3000   -3.0000    0.0000 C   0  0  0  0  0  0  0  0  0  0  0  0
    0.0000    2.2500    0.0000 C   0  0  0  0  0  0  0  0  0  0  0  0
   -2.6000    0.7500    0.0000 C   0  0  0  0  0  0  0  0  0  0  0  0
    2.6000    0.7500    0.0000 C   0  0  0  0  0  0  0  0  0  0  0  0
   -1.3000    1.5000    0.0000 C   0  0  0  0  0  0  0  0  0  0  0  0
    1.3000    1.5000    0.0000 C   0  0  0  0  0  0  0  0  0  0  0  0
   -1.3000   -1.5000    0.0000 C   0  0  0  0  0  0  0  0  0  0  0  0
   -3.8989   -1.5002    0.0000 C   0  0  0  0  0  0  0  0  0  0  0  0
    1.3000   -1.5000    0.0000 C   0  0  0  0  0  0  0  0  0  0  0  0
   -2.6000   -0.7500    0.0000 C   0  0  0  0  0  0  0  0  0  0  0  0
    0.0000   -0.7500    0.0000 C   0  0  0  0  0  0  0  0  0  0  0  0
    2.6000   -0.7500    0.0000 C   0  0  0  0  0  0  0  0  0  0  0  0
    0.0000    0.7500    0.0000 C   0  0  0  0  0  0  0  0  0  0  0  0
    3.8989   -1.5002    0.0000 O   0  0  0  0  0  0  0  0  0  0  0  0
  7  5  1  0
  8  6  1  0
 10  1  2  0
 10  2  1  0
 11  3  1  0
 12  5  1  0
 12  9  1  0
 12 10  1  6
 13  9  1  0
 13 11  2  0
 14  6  1  0
 14 11  1  0
 15  4  1  0
 15  7  1  0
 15  8  1  0
 15 13  1  0
 16 14  2  0
M  END
>  <NAME>  (901) 
(+)-ALPHA-CYPERONE

>  <SYNONYMS>  (901) 


>  <SPECTRUM TYPE>  (901) 
MS1

>  <INSTRUMENT TYPE>  (901) 
EI-B

>  <INSTRUMENT>  (901) 
HITACHI RMU-6L

>  <ION MODE>  (901) 
P

>  <INCHIKEY>  (901) 
KUFXJZXMWHNCEH-KEKZHRQWSA-N

>  <FORMULA>  (901) 
C15H22O

>  <EXACT MASS>  (901) 
218.167065324

>  <MW>  (901) 
218

>  <ID>  (901) 
JP010692

>  <CONTRIBUTOR>  (901) 
University of Tokyo Team, {Faculty of Engineering, University of Tokyo

>  <COMMENT>  (901) 
InChI=InChI=1S/C15H22O/c1-10(2)12-5-7-15(4)8-6-14(16)11(3)13(15)9-12/h12H,1,5-9H2,2-4H3/t12-,15?/m1/s1
SMILES=CC(=C)C([H])(C1)CC(=C(C)2)C(C)(CCC(=O)2)C1
computed SMILES=O=C1C(=C2CC(C(=C)C)CCC2(C)CC1)C
accession=JP010692
date=2016.01.19 (Created 2008.10.21, modified 2011.05.06)
author=EGUCHI S, FAC. OF SCIENCE, HIROSHIMA UNIV.
license=CC BY-NC-SA
exact mass=218.16707
ionization energy=70 eV
ion type=[M]+*
computed spectral entropy=3.938326668148
computed normalized entropy=0.8608908161967478
SPLASH=splash10-0006-9700000000-a4f6ddf93d1ac3db8abd
submitter=submitter = University of Tokyo Team (Faculty of Engineering, University of Tokyo)
MoNA Rating=3.75

>  <NUM PEAKS>  (901) 
97

>  <MASS SPECTRAL PEAKS>  (901) 
41 99.99
42 7.5
43 49
45 0.2
51 10
52 7
53 39
54 0.8
55 52
56 5
57 8
58 0.2
59 4
63 3
64 2
65 4
66 7
67 40
68 9
69 3.1
70 4
71 10
77 36
78 0.9
79 43
80 13
81 32
82 1.4
83 8
84 2.5
85 3
91 4.7
92 10
93 47
94 13
95 2.9
96 8
97 8
103 5
104 0.2
105 33.5
106 11
107 32
108 2.2
109 32
110 12
111 10
112 0.5
115 5
116 2
117 8
118 0.4
119 34
120 14.5
121 30
122 1.7
123 10.5
124 11
125 3
127 0.3
128 3
131 6.5
132 7
133 2.3
134 14
135 16
136 32.5
137 1.8
138 5
143 3
145 6
146 0.4
147 28
148 11
149 7
150 0.8
151 2
157 5
159 5
160 0.3
161 26.5
162 14
163 5
175 1.9
176 9
177 4
179 1.5
185 0.4
189 4
190 5
200 1.5
201 0.1
203 12
204 5
218 29
219 1.45
220 3

>  <PREDICTED SPECTRUM>  (901) 
26 79
27 403
28 151
29 409
30 6
37 7
38 90
39 632
40 283
41 999
42 300
43 626
44 158
45 66
50 179
51 415
52 275
53 591
54 240
55 768
56 181
57 257
58 92
59 106
60 70
62 33
63 183
64 134
65 488
66 285
67 703
68 303
69 608
70 103
71 151
72 39
74 38
75 37
76 69
77 715
78 371
79 847
80 383
81 708
82 321
83 332
84 160
85 68
89 94
90 1
91 880
92 388
93 857
94 482
95 672
96 298
97 194
98 65
99 11
102 78
103 223
104 158
105 729
106 365
107 812
108 547
109 604
110 265
111 222
112 43
114 32
115 305
116 182
117 351
118 198
119 715
120 413
121 761
122 516
123 396
124 172
125 104
126 36
127 136
128 238
129 294
130 179
131 353
132 170
133 587
134 474
135 572
136 633
137 314
138 91
139 49
141 99
142 99
143 229
144 214
145 413
146 273
147 820
148 500
149 453
150 351
151 187
152 121
156 74
157 223
158 59
159 242
160 247
161 672
162 572
163 346
164 156
165 45
171 60
172 50
173 202
174 165
175 908
176 443
177 277
178 153
185 269
186 36
187 83
188 67
189 573
190 579
191 209
199 60
200 74
201 111
202 24
203 951
204 356
205 104
217 164
218 934
219 395
220 104

$$$$

     RDKit          2D

 15 17  0  0  1  0  0  0  0  0999 V2000
   -1.2048    0.5599    0.0000 C   0  0  0  0  0  0  0  0  0  0  0  0
    0.5698    2.6589    0.0000 C   0  0  0  0  0  0  0  0  0  0  0  0
   -1.2515    3.0711    0.0000 C   0  0  0  0  0  0  0  0  0  0  0  0
   -0.2698   -3.1132    0.0000 C   0  0  0  0  0  0  0  0  0  0  0  0
   -2.7100    0.0400    0.0000 C   0  0  0  0  0  0  0  0  0  0  0  0
    2.8800    0.0400    0.0000 C   0  0  0  0  0  0  0  0  0  0  0  0
    2.0000   -1.1800    0.0000 C   0  0  0  0  0  0  0  0  0  0  0  0
   -2.0600    1.3900    0.0000 C   0  0  0  0  0  0  0  0  0  0  0  0
   -2.0600   -1.3100    0.0000 C   0  0  0  0  0  0  0  0  0  0  0  0
   -0.0200   -0.3600    0.0000 C   0  0  0  0  0  0  0  0  0  0  0  0
    2.0000    1.2500    0.0000 C   0  0  0  0  0  0  0  0  0  0  0  0
    0.5800   -0.7100    0.0000 C   0  0  0  0  0  0  0  0  0  0  0  0
    0.5800    0.7900    0.0000 C   0  0  0  0  0  0  0  0  0  0  0  0
   -0.6000    1.7200    0.0000 C   0  0  0  0  0  0  0  0  0  0  0  0
   -0.6000   -1.6500    0.0000 C   0  0  0  0  0  0  0  0  0  0  0  0
  7  6  1  0
  8  5  1  0
  9  5  1  0
 10  1  2  0
 11  6  1  0
 11 10  1  0
 12  7  1  0
 13 11  1  0
 13 12  1  0
 14  2  1  0
 14  3  1  0
 14  8  1  0
 13 14  1  1
 15  4  1  1
 15  9  1  0
 15 10  1  0
 15 12  1  0
M  END
>  <NAME>  (902) 
LONGIFOLENE

>  <SYNONYMS>  (902) 


>  <SPECTRUM TYPE>  (902) 
MS1

>  <INSTRUMENT TYPE>  (902) 
EI-B

>  <INSTRUMENT>  (902) 
HITACHI RMU-6L

>  <ION MODE>  (902) 
P

>  <INCHIKEY>  (902) 
PDSNLYSELAIEBU-NSOJWWLLSA-N

>  <FORMULA>  (902) 
C15H24

>  <EXACT MASS>  (902) 
204.187800768

>  <MW>  (902) 
204

>  <ID>  (902) 
JP010690

>  <CONTRIBUTOR>  (902) 
University of Tokyo Team, {Faculty of Engineering, University of Tokyo

>  <COMMENT>  (902) 
SMILES=CC(C)(C2)C(C31)C(CC3)C(C)(CC2)C(=C)1
InChI=InChI=1S/C15H24/c1-10-11-6-7-12-13(11)14(2,3)8-5-9-15(10,12)4/h11-13H,1,5-9H2,2-4H3/t11?,12?,13-,15+/m0/s1
computed SMILES=C=C1C2CCC3C2C(C)(C)CCCC13C
accession=JP010690
date=2016.01.19 (Created 2008.10.21, modified 2011.05.06)
author=EGUCHI S, FAC. OF SCIENCE, HIROSHIMA UNIV.
license=CC BY-NC-SA
exact mass=204.1878
ionization energy=70 eV
ion type=[M]+*
computed spectral entropy=3.781727255898618
computed normalized entropy=0.8581729499210465
SPLASH=splash10-052f-9800000000-2f8ccf21ddc4f6f3e965
submitter=submitter = University of Tokyo Team (Faculty of Engineering, University of Tokyo)
MoNA Rating=3.75

>  <NUM PEAKS>  (902) 
82

>  <MASS SPECTRAL PEAKS>  (902) 
41 99.99
42 7.5
43 26.5
44 0.75
51 12.9
52 6.8
53 34.7
54 0.61
55 65.3
56 8.2
57 10.2
63 0.54
64 4.1
65 23.8
66 9.5
67 4.76
68 6.8
69 40.1
70 4.8
71 0.34
77 43.5
78 12.9
79 68.7
80 1.7
81 41.5
82 20.4
83 12.9
91 8.57
92 31.9
93 73.5
94 79.6
95 5.99
96 12.2
97 4.8
103 9.5
104 0.54
105 74.8
106 34
107 71.4
108 4.63
109 51
110 10.2
111 6.1
115 0.88
116 5.4
117 12.9
118 4.8
119 5.65
120 33.3
121 36.7
122 23.8
123 1.02
124 1.4
128 3.4
129 4.1
130 0.27
131 7.5
132 3.4
133 53.7
134 2.65
135 42.8
136 16.3
137 11.6
138 0.41
145 6.1
146 2.7
147 24.7
148 1.77
149 8.8
150 4.1
161 87.8
162 1.97
163 11
164 2
175 17.7
176 1.1
177 2.7
189 53.1
190 8.2
191 0.14
204 50.3
205 8.8

>  <PREDICTED SPECTRUM>  (902) 
25 3
26 73
27 413
28 146
29 419
30 37
31 16
38 51
39 454
40 204
41 851
42 191
43 381
44 37
50 92
51 263
52 196
53 498
54 190
55 607
56 227
57 234
58 105
59 19
62 36
63 147
64 126
65 407
66 249
67 706
68 290
69 683
70 195
71 212
72 92
73 157
74 19
75 54
76 87
77 643
78 332
79 831
80 482
81 812
82 426
83 258
84 102
85 116
86 62
87 31
89 111
90 59
91 888
92 502
93 999
94 634
95 812
96 414
97 298
98 64
99 67
100 35
101 4
102 65
103 218
104 254
105 902
106 533
107 943
108 638
109 869
110 304
111 217
112 65
113 33
114 49
115 306
116 183
117 369
118 215
119 795
120 577
121 614
122 503
123 453
124 128
125 131
127 127
128 230
129 275
130 180
131 374
132 193
133 777
134 519
135 614
136 335
137 185
138 77
141 84
142 46
143 314
144 126
145 342
146 227
147 615
148 480
149 323
150 169
156 46
157 155
158 75
159 179
160 229
161 632
162 333
163 199
164 25
171 309
172 170
173 130
174 46
175 554
176 325
177 112
186 89
187 121
188 48
189 897
190 372
191 101
202 44
203 77
204 830
205 332
206 49

$$$$

     RDKit          2D

 15 16  0  0  1  0  0  0  0  0999 V2000
    2.6990   -3.6400    0.0000 C   0  0  0  0  0  0  0  0  0  0  0  0
    0.1010   -3.6400    0.0000 C   0  0  0  0  0  0  0  0  0  0  0  0
   -3.7989   -1.3902    0.0000 C   0  0  0  0  0  0  0  0  0  0  0  0
    1.4000    3.1100    0.0000 C   0  0  0  0  0  0  0  0  0  0  0  0
   -2.5000    0.8600    0.0000 C   0  0  0  0  0  0  0  0  0  0  0  0
    2.7000    0.8600    0.0000 C   0  0  0  0  0  0  0  0  0  0  0  0
   -1.2000    1.6100    0.0000 C   0  0  0  0  0  0  0  0  0  0  0  0
    2.7000   -0.6400    0.0000 C   0  0  0  0  0  0  0  0  0  0  0  0
   -1.2000   -1.3900    0.0000 C   0  0  0  0  0  0  0  0  0  0  0  0
    1.4000   -2.8900    0.0000 C   0  0  0  0  0  0  0  0  0  0  0  0
   -2.5000   -0.6400    0.0000 C   0  0  0  0  0  0  0  0  0  0  0  0
    1.4000    1.6100    0.0000 C   0  0  0  0  0  0  0  0  0  0  0  0
    1.4000   -1.3900    0.0000 C   0  0  0  0  0  0  0  0  0  0  0  0
    0.1000    0.8600    0.0000 C   0  0  0  0  0  0  0  0  0  0  0  0
    0.1000   -0.6400    0.0000 C   0  0  0  0  0  0  0  0  0  0  0  0
  7  5  2  0
  8  6  1  0
 10  1  1  0
 10  2  1  0
 11  3  1  0
 11  5  1  0
 11  9  2  0
 12  4  1  1
 12  6  1  0
 13  8  1  0
 13 10  1  1
 14  7  1  0
 14 12  1  0
 15  9  1  0
 15 13  1  0
 15 14  2  0
M  END
>  <NAME>  (903) 
CALAMENENE

>  <SYNONYMS>  (903) 


>  <SPECTRUM TYPE>  (903) 
MS1

>  <INSTRUMENT TYPE>  (903) 
EI-B

>  <INSTRUMENT>  (903) 
HITACHI RMU-6L

>  <ION MODE>  (903) 
P

>  <INCHIKEY>  (903) 
PGTJIOWQJWHTJJ-STQMWFEESA-N

>  <FORMULA>  (903) 
C15H22

>  <EXACT MASS>  (903) 
202.172150704

>  <MW>  (903) 
202

>  <ID>  (903) 
JP010688

>  <CONTRIBUTOR>  (903) 
University of Tokyo Team, {Faculty of Engineering, University of Tokyo

>  <COMMENT>  (903) 
SMILES=Cc(c2)cc(c(c2)1)C([H])(C(C)C)CCC([H])(C)1
InChI=InChI=1S/C15H22/c1-10(2)13-8-6-12(4)14-7-5-11(3)9-15(13)14/h5,7,9-10,12-13H,6,8H2,1-4H3/t12-,13-/m0/s1
computed SMILES=C=1C=C2C(=CC1C)C(CCC2C)C(C)C
accession=JP010688
date=2016.01.19 (Created 2008.10.21, modified 2011.05.06)
author=EGUCHI S, FAC. OF SCIENCE, HIROSHIMA UNIV.
license=CC BY-NC-SA
exact mass=202.17215
ionization energy=70 eV
ion type=[M]+*
computed spectral entropy=3.3378249090855134
computed normalized entropy=0.8087512054805662
SPLASH=splash10-053r-2900000000-04f69771dc2275c05168
submitter=submitter = University of Tokyo Team (Faculty of Engineering, University of Tokyo)
MoNA Rating=3.75

>  <NUM PEAKS>  (903) 
62

>  <MASS SPECTRAL PEAKS>  (903) 
41 23
42 2
43 11
44 1
51 4
53 7
55 12
56 0.3
57 4
63 3
65 8
68 0.7
69 8
71 2
77 11
78 0.4
79 7
81 5
82 1
83 0.7
91 22
92 6
93 7
95 0.5
103 4
104 4
105 30
106 0.5
107 4
109 3
115 22
116 0.8
117 19
118 6
119 33
120 1.1
121 3
127 7
128 24
129 2.3
130 9
131 51
132 99.99
133 1.8
141 10
142 7
143 14
144 1.4
145 36
146 10
147 3
149 0.3
157 4
158 5
159 98
160 2.9
161 7
187 7
188 1
202 5.7
203 10
204 3

>  <PREDICTED SPECTRUM>  (903) 
14 13
15 23
26 10
27 85
28 33
29 51
38 10
39 140
40 27
41 164
43 98
44 44
45 11
50 64
51 149
52 70
53 114
55 78
62 28
63 119
64 61
65 123
67 43
69 57
71 8
74 3
75 50
76 63
77 247
78 111
79 112
81 33
89 107
90 19
91 226
92 44
102 99
103 165
104 53
105 222
106 29
115 245
116 174
117 191
118 42
119 50
126 11
127 149
128 289
129 332
130 190
131 252
132 80
139 6
141 167
142 151
143 221
144 184
145 124
155 59
157 197
158 117
159 999
160 332
161 83
187 17
202 257
203 70

$$$$

     RDKit          2D

 15 15  0  0  1  0  0  0  0  0999 V2000
    3.2899    2.4204    0.0000 C   0  0  0  0  0  0  0  0  0  0  0  0
   -2.5987   -3.0002    0.0000 C   0  0  0  0  0  0  0  0  0  0  0  0
   -3.8981   -0.7504    0.0000 C   0  0  0  0  0  0  0  0  0  0  0  0
    2.5987   -3.0002    0.0000 C   0  0  0  0  0  0  0  0  0  0  0  0
    3.8981   -0.7504    0.0000 C   0  0  0  0  0  0  0  0  0  0  0  0
    2.7772    0.4897    0.0000 C   0  0  0  0  0  0  0  0  0  0  0  0
    1.8127    2.1596    0.0000 C   0  0  0  0  0  0  0  0  0  0  0  0
   -1.3000    0.7500    0.0000 C   0  0  0  0  0  0  0  0  0  0  0  0
    0.0000    1.5000    0.0000 C   0  0  0  0  0  0  0  0  0  0  0  0
   -0.0000   -1.5000    0.0000 C   0  0  0  0  0  0  0  0  0  0  0  0
   -2.5989   -1.5002    0.0000 C   0  0  0  0  0  0  0  0  0  0  0  0
    2.5989   -1.5002    0.0000 C   0  0  0  0  0  0  0  0  0  0  0  0
   -1.3000   -0.7500    0.0000 C   0  0  0  0  0  0  0  0  0  0  0  0
    1.3000   -0.7500    0.0000 C   0  0  0  0  0  0  0  0  0  0  0  0
    1.3000    0.7500    0.0000 C   0  0  0  0  0  0  0  0  0  0  0  0
  7  1  2  0
  9  8  1  0
 11  2  2  0
 11  3  1  0
 12  4  2  0
 12  5  1  0
 13  8  1  0
 13 10  1  0
 13 11  1  6
 14 10  1  0
 14 12  1  6
 15  6  1  6
 15  7  1  0
 15  9  1  0
 15 14  1  0
M  END
>  <NAME>  (904) 
BETA-ELEMENE

>  <SYNONYMS>  (904) 


>  <SPECTRUM TYPE>  (904) 
MS1

>  <INSTRUMENT TYPE>  (904) 
EI-B

>  <INSTRUMENT>  (904) 
HITACHI RMU-6L

>  <ION MODE>  (904) 
P

>  <INCHIKEY>  (904) 
OPFTUNCRGUEPRZ-QLFBSQMISA-N

>  <FORMULA>  (904) 
C15H24

>  <EXACT MASS>  (904) 
204.187800768

>  <MW>  (904) 
204

>  <ID>  (904) 
JP010686

>  <CONTRIBUTOR>  (904) 
University of Tokyo Team, {Faculty of Engineering, University of Tokyo

>  <COMMENT>  (904) 
SMILES=C=CC(C)(C1)C([H])(C(C)=C)CC([H])(C(C)=C)C1
InChI=InChI=1S/C15H24/c1-7-15(6)9-8-13(11(2)3)10-14(15)12(4)5/h7,13-14H,1-2,4,8-10H2,3,5-6H3/t13-,14+,15-/m1/s1
computed SMILES=C=CC1(C)CCC(C(=C)C)CC1C(=C)C
accession=JP010686
date=2016.01.19 (Created 2008.10.21, modified 2011.05.06)
author=EGUCHI S, FAC. OF SCIENCE, HIROSHIMA UNIV.
license=CC BY-NC-SA
exact mass=204.1878
ionization energy=70 eV
ion type=[M]+*
computed spectral entropy=3.454017002720101
computed normalized entropy=0.8506502846484452
SPLASH=splash10-0a5c-9300000000-5b0ee4d8b7869c2f1150
submitter=submitter = University of Tokyo Team (Faculty of Engineering, University of Tokyo)
MoNA Rating=3.75

>  <NUM PEAKS>  (904) 
58

>  <MASS SPECTRAL PEAKS>  (904) 
41 74
42 11
43 25
44 0.2
51 7
52 5
53 56.5
54 0.55
55 71.5
56 4.5
57 7.5
63 0.2
65 15
66 7.5
67 63.5
68 7.8
69 28
70 2.5
77 28
78 0.7
79 51.5
80 17.5
81 99.99
82 1.1
83 4.5
91 33
92 14.5
93 8.3
94 29
95 18.5
96 4
97 0.25
106 13
107 51.5
108 33
109 1.35
110 2.5
119 23.5
120 11.5
121 3.4
122 10.5
123 11
133 21
134 1.25
135 16.5
136 5.5
147 30.5
148 1.5
149 6
161 21
162 7
163 0.5
175 5
176 3
189 17.5
190 0.3
204 6.5
205 2

>  <PREDICTED SPECTRUM>  (904) 
26 53
27 336
28 135
29 305
30 47
37 18
38 59
39 465
40 219
41 846
42 211
43 349
44 59
50 56
51 231
52 192
53 549
54 273
55 672
56 161
57 226
58 85
59 10
62 22
63 104
64 42
65 359
66 227
67 823
68 583
69 604
70 146
71 83
73 16
74 18
75 23
76 4
77 473
78 238
79 698
80 497
81 911
82 446
83 242
84 41
85 11
89 53
90 1
91 564
92 341
93 999
94 560
95 615
96 202
97 96
98 17
99 19
103 118
104 73
105 423
106 297
107 881
108 661
109 474
110 125
111 32
115 105
116 57
117 169
118 76
119 449
120 273
121 684
122 411
123 252
124 73
127 10
128 10
129 79
130 15
131 101
132 45
133 439
134 356
135 359
136 289
137 41
143 41
145 94
146 104
147 456
148 351
149 280
150 56
159 91
160 70
161 556
162 298
163 135
164 34
171 78
173 36
174 33
175 314
176 284
177 152
187 57
188 6
189 479
190 187
191 77
204 159
205 63

$$$$

     RDKit          2D

 16 18  0  0  1  0  0  0  0  0999 V2000
    3.5700   -0.1915    0.0000 C   0  0  0  0  0  0  0  0  0  0  0  0
   -0.8206    4.4634    0.0000 C   0  0  0  0  0  0  0  0  0  0  0  0
   -4.1824    2.3978    0.0000 C   0  0  0  0  0  0  0  0  0  0  0  0
   -3.9838    0.3509    0.0000 C   0  0  0  0  0  0  0  0  0  0  0  0
    1.2418   -1.2073    0.0000 C   0  0  0  0  0  0  0  0  0  0  0  0
    1.7898    3.8881    0.0000 C   0  0  0  0  0  0  0  0  0  0  0  0
   -0.2540   -1.3194    0.0000 C   0  0  0  0  0  0  0  0  0  0  0  0
    2.5973    2.6240    0.0000 C   0  0  0  0  0  0  0  0  0  0  0  0
   -1.0507    1.2634    0.0000 C   0  0  0  0  0  0  0  0  0  0  0  0
    2.0867    0.0321    0.0000 C   0  0  0  0  0  0  0  0  0  0  0  0
    0.3380    3.5107    0.0000 C   0  0  0  0  0  0  0  0  0  0  0  0
   -1.2743   -0.2198    0.0000 C   0  0  0  0  0  0  0  0  0  0  0  0
    1.6446    1.4654    0.0000 C   0  0  0  0  0  0  0  0  0  0  0  0
   -2.9961    1.4798    0.0000 C   0  0  0  0  0  0  0  0  0  0  0  0
    0.2483    2.0134    0.0000 C   0  0  0  0  0  0  0  0  0  0  0  0
   -1.9629    2.9953    0.0000 O   0  0  0  0  0  0  0  0  0  0  0  0
  7  5  1  0
  8  6  1  0
 10  1  1  1
 10  5  1  0
 11  2  1  6
 11  6  1  0
 12  7  1  1
 12  9  1  0
 13  8  1  6
 13 10  1  0
 14  3  1  0
 14  4  1  0
 14 12  1  0
 15  9  1  0
 15 11  1  0
 15 13  1  0
 16 14  1  0
 15 16  1  1
M  END
>  <NAME>  (905) 
LIGULOXIDE

>  <SYNONYMS>  (905) 


>  <SPECTRUM TYPE>  (905) 
MS1

>  <INSTRUMENT TYPE>  (905) 
EI-B

>  <INSTRUMENT>  (905) 
HITACHI RMU-6L

>  <ION MODE>  (905) 
P

>  <INCHIKEY>  (905) 
GXMJXGUEPXEOGR-BGPZULBFSA-N

>  <FORMULA>  (905) 
C15H26O

>  <EXACT MASS>  (905) 
222.198365452

>  <MW>  (905) 
222

>  <ID>  (905) 
JP010685

>  <CONTRIBUTOR>  (905) 
University of Tokyo Team, {Faculty of Engineering, University of Tokyo

>  <COMMENT>  (905) 
SMILES=CC(C2)C([H])(C3)C(C(C)C3)(C1)OC(C)(C)C(C2)1
InChI=InChI=1S/C15H26O/c1-10-5-7-12-9-15(16-14(12,3)4)11(2)6-8-13(10)15/h10-13H,5-9H2,1-4H3/t10-,11+,12+,13+,15-/m0/s1
computed SMILES=O1C(C)(C)C2CCC(C)C3CCC(C)C13C2
accession=JP010685
ionization energy=70 eV
ion type=[M]+*
computed spectral entropy=3.681453886711529
date=2016.01.19 (Created 2008.10.21, modified 2011.05.06)
author=EGUCHI S, FAC. OF SCIENCE, HIROSHIMA UNIV.
license=CC BY-NC-SA
exact mass=222.19837
computed normalized entropy=0.8724842194731526
SPLASH=splash10-0a4i-9830000000-c450c7e8908125813282
submitter=submitter = University of Tokyo Team (Faculty of Engineering, University of Tokyo)
MoNA Rating=3.75

>  <NUM PEAKS>  (905) 
68

>  <MASS SPECTRAL PEAKS>  (905) 
41 35
42 9
43 26
53 1.2
54 4
55 39
56 6
57 0.7
59 4
65 4.5
67 21
68 1
69 27
70 5
71 9
77 0.8
79 15
80 7
81 40
82 1.3
83 12
84 4
91 11
92 0.4
93 18
94 11.5
95 32
96 0.8
97 9.5
98 4
105 10
106 0.4
107 23
108 18
109 30
110 1.2
111 7
119 12
120 4
121 1.3
122 12
123 13
124 12
125 1.3
126 12.5
133 9
135 11
136 0.5
137 32
138 6
139 4
147 0.6
149 28
150 6
151 9
161 0.9
163 8
164 20
165 6
173 0.4
179 5
189 37
190 7
204 0.5
207 99.99
208 16
221 3
222 14

>  <PREDICTED SPECTRUM>  (905) 
27 137
28 41
29 186
31 10
39 173
40 58
41 486
42 107
43 569
44 59
45 90
51 104
52 56
53 261
54 90
55 506
56 104
57 111
58 69
59 92
63 16
64 11
65 191
66 95
67 453
68 238
69 457
70 139
71 220
72 1
77 215
78 87
79 351
80 167
81 553
82 231
83 318
84 94
85 34
91 354
92 76
93 408
94 173
95 511
96 242
97 132
98 40
99 49
105 249
106 118
107 454
108 240
109 527
110 206
111 239
112 54
119 224
120 96
121 310
122 274
123 474
124 143
125 141
126 84
131 13
132 14
133 200
134 38
135 202
136 156
137 355
138 99
139 103
147 65
148 101
149 412
150 228
151 275
152 50
161 121
162 35
163 154
164 395
165 243
166 49
177 52
178 102
179 118
189 430
190 184
193 15
204 86
205 49
207 999
208 376
209 74
222 402
223 134

$$$$

     RDKit          2D

 16 17  0  0  1  0  0  0  0  0999 V2000
   -0.3225   -3.0000    0.0000 C   0  0  0  0  0  0  0  0  0  0  0  0
    2.8753    2.6360    0.0000 C   0  0  0  0  0  0  0  0  0  0  0  0
   -3.1100    2.2500    0.0000 C   0  0  0  0  0  0  0  0  0  0  0  0
   -4.6100    0.7500    0.0000 C   0  0  0  0  0  0  0  0  0  0  0  0
    0.9800    0.7500    0.0000 C   0  0  0  0  0  0  0  0  0  0  0  0
    0.9800   -0.7500    0.0000 C   0  0  0  0  0  0  0  0  0  0  0  0
   -0.3200    1.5000    0.0000 C   0  0  0  0  0  0  0  0  0  0  0  0
    2.4100   -1.2100    0.0000 C   0  0  0  0  0  0  0  0  0  0  0  0
   -3.1100   -0.7500    0.0000 C   0  0  0  0  0  0  0  0  0  0  0  0
   -0.3200   -1.5000    0.0000 C   0  0  0  0  0  0  0  0  0  0  0  0
    2.4100    1.2100    0.0000 C   0  0  0  0  0  0  0  0  0  0  0  0
   -1.6100   -0.7500    0.0000 C   0  0  0  0  0  0  0  0  0  0  0  0
   -1.6100    0.7500    0.0000 C   0  0  0  0  0  0  0  0  0  0  0  0
    3.2900    0.0000    0.0000 C   0  0  0  0  0  0  0  0  0  0  0  0
   -3.1100    0.7500    0.0000 C   0  0  0  0  0  0  0  0  0  0  0  0
    4.7900   -0.0000    0.0000 O   0  0  0  0  0  0  0  0  0  0  0  0
  7  5  1  0
  8  6  1  0
 10  1  2  0
 10  6  1  0
 11  2  2  0
 11  5  1  0
 12  9  1  1
 12 10  1  0
 13  7  1  1
 13 12  1  0
 14  8  1  0
 14 11  1  0
 15  3  1  0
 15  4  1  0
 15  9  1  0
 15 13  1  0
 14 16  1  1
M  END
>  <NAME>  (906) 
CARYOPHYLLA-3(12),7(13)-DIEN-6-OL

>  <SYNONYMS>  (906) 


>  <SPECTRUM TYPE>  (906) 
MS1

>  <INSTRUMENT TYPE>  (906) 
EI-B

>  <INSTRUMENT>  (906) 
HITACHI RMU-6L

>  <ION MODE>  (906) 
P

>  <INCHIKEY>  (906) 
CIIYOYPOMGIECX-RDBSUJKOSA-N

>  <FORMULA>  (906) 
C15H24O

>  <EXACT MASS>  (906) 
220.182715388

>  <MW>  (906) 
220

>  <ID>  (906) 
JP010684

>  <CONTRIBUTOR>  (906) 
University of Tokyo Team, {Faculty of Engineering, University of Tokyo

>  <COMMENT>  (906) 
SMILES=C=C(C2)C([H])(O)CCC(=C)C([H])(C1)C([H])(C2)C(C)(C)1
InChI=InChI=1S/C15H24O/c1-10-6-8-14(16)11(2)5-7-13-12(10)9-15(13,3)4/h12-14,16H,1-2,5-9H2,3-4H3/t12-,13+,14+/m1/s1
computed SMILES=OC1C(=C)CCC2C(C(=C)CC1)CC2(C)C
accession=JP010684
date=2016.01.19 (Created 2008.10.21, modified 2011.05.06)
author=EGUCHI S, FAC. OF SCIENCE, HIROSHIMA UNIV.
license=CC BY-NC-SA
exact mass=220.18272
ionization energy=70 eV
ion type=[M]+*
computed spectral entropy=3.8749524828156785
computed normalized entropy=0.8632805519612445
SPLASH=splash10-00ko-9600000000-2670d9c064fa7b2dd6b0
submitter=submitter = University of Tokyo Team (Faculty of Engineering, University of Tokyo)
MoNA Rating=3.75

>  <NUM PEAKS>  (906) 
89

>  <MASS SPECTRAL PEAKS>  (906) 
41 73
42 13
43 27
44 0.3
45 5
50 3
51 11
52 0.8
53 40
54 8
55 46
56 1.05
57 8
58 10
59 4
63 0.45
65 19.5
66 9
67 44.5
68 1
69 63
70 9
71 11
77 3.5
78 13
79 58
80 14
81 3.75
82 19
83 11.5
84 4
85 0.4
91 53
92 17
93 43.5
94 1.45
95 28
96 10
97 6
103 0.4
104 6.5
105 34
106 12
107 3
108 12
109 27
110 8
111 0.45
115 4
116 4
117 21.5
118 3.1
119 26
120 15
121 19.5
122 1
123 13
124 5.5
125 3.5
131 2.25
132 8
133 20.5
134 10.5
135 1.95
136 99.99
137 17.5
138 4.5
145 1
146 13
147 12
148 4
149 1
150 5
151 5
159 15
160 0.5
161 8
162 4
163 6
164 1
165 5
174 4
175 4
176 0.3
177 6
187 8
202 6
203 0.5
220 3

>  <PREDICTED SPECTRUM>  (906) 
18 8
26 78
27 439
28 154
29 456
31 108
32 1
38 69
39 539
40 231
41 999
42 258
43 749
44 170
45 121
50 130
51 285
52 204
53 586
54 244
55 775
56 306
57 347
58 133
59 73
62 40
63 171
64 102
65 418
66 275
67 711
68 371
69 872
70 387
71 362
72 112
74 0
76 54
77 584
78 304
79 737
80 398
81 899
82 517
83 511
84 246
85 183
86 73
89 80
90 34
91 814
92 408
93 762
94 411
95 829
96 478
97 387
98 161
99 33
102 56
103 230
104 207
105 674
106 355
107 750
108 416
109 801
110 374
111 286
112 109
113 27
115 263
116 223
117 443
118 308
119 549
120 389
121 488
122 384
123 601
124 285
125 188
126 65
127 126
128 199
129 194
130 129
131 550
132 319
133 472
134 278
135 529
136 455
137 378
138 321
139 104
140 29
141 91
142 66
143 182
144 199
145 415
146 244
147 328
148 185
149 422
150 328
151 284
152 185
153 50
154 0
157 123
158 158
159 559
160 267
161 272
162 183
163 311
164 282
165 163
173 136
174 133
175 191
176 223
177 295
178 224
179 55
180 13
187 485
188 118
189 77
191 184
192 202
193 82
201 20
202 369
203 91
205 385
206 157
220 328
221 119

$$$$

     RDKit          2D

 15 16  0  0  1  0  0  0  0  0999 V2000
   -0.3702    3.9989    0.0000 C   0  0  0  0  0  0  0  0  0  0  0  0
    0.7585   -1.3488    0.0000 C   0  0  0  0  0  0  0  0  0  0  0  0
   -4.6790    0.6491    0.0000 C   0  0  0  0  0  0  0  0  0  0  0  0
   -5.2283   -1.3998    0.0000 C   0  0  0  0  0  0  0  0  0  0  0  0
    2.6300    1.4000    0.0000 C   0  0  0  0  0  0  0  0  0  0  0  0
    1.8800    2.7000    0.0000 C   0  0  0  0  0  0  0  0  0  0  0  0
    1.8800    0.1000    0.0000 C   0  0  0  0  0  0  0  0  0  0  0  0
   -0.3700    1.4000    0.0000 C   0  0  0  0  0  0  0  0  0  0  0  0
   -1.8800    1.4000    0.0000 C   0  0  0  0  0  0  0  0  0  0  0  0
   -3.1796   -1.9492    0.0000 C   0  0  0  0  0  0  0  0  0  0  0  0
    0.3800    2.7000    0.0000 C   0  0  0  0  0  0  0  0  0  0  0  0
    0.3700    0.1000    0.0000 C   0  0  0  0  0  0  0  0  0  0  0  0
   -1.8800   -1.2000    0.0000 C   0  0  0  0  0  0  0  0  0  0  0  0
   -2.6300    0.1000    0.0000 C   0  0  0  0  0  0  0  0  0  0  0  0
   -3.9291   -0.6500    0.0000 C   0  0  0  0  0  0  0  0  0  0  0  0
  6  5  1  0
  7  5  1  0
  9  8  1  0
 11  1  1  0
  6 11  2  0
 11  8  1  0
 12  2  2  0
 12  7  1  0
 13 10  1  1
 13 12  1  0
 14  9  1  6
 14 13  1  0
 15  3  1  0
 15  4  1  0
 15 10  1  0
 15 14  1  0
M  END
>  <NAME>  (907) 
BETA-CARYOPHYLLENE

>  <SYNONYMS>  (907) 


>  <SPECTRUM TYPE>  (907) 
MS1

>  <INSTRUMENT TYPE>  (907) 
EI-B

>  <INSTRUMENT>  (907) 
HITACHI RMU-6L

>  <ION MODE>  (907) 
P

>  <INCHIKEY>  (907) 
NPNUFJAVOOONJE-FLFDDASRSA-N

>  <FORMULA>  (907) 
C15H24

>  <EXACT MASS>  (907) 
204.187800768

>  <MW>  (907) 
204

>  <ID>  (907) 
JP010683

>  <CONTRIBUTOR>  (907) 
University of Tokyo Team, {Faculty of Engineering, University of Tokyo

>  <COMMENT>  (907) 
SMILES=[H]C(C2)=C(C)CCC([H])(C(C)(C)1)C([H])(C(=C)C2)C1
InChI=InChI=1S/C15H24/c1-11-6-5-7-12(2)13-10-15(3,4)14(13)9-8-11/h6,13-14H,2,5,7-10H2,1,3-4H3/b11-6-/t13-,14-/m1/s1
computed SMILES=C=C1CCC=C(C)CCC2C1CC2(C)C
accession=JP010683
date=2016.01.19 (Created 2008.10.21, modified 2011.05.06)
author=EGUCHI S, FAC. OF SCIENCE, HIROSHIMA UNIV.
license=CC BY-NC-SA
exact mass=204.1878
ionization energy=70 eV
ion type=[M]+*
computed spectral entropy=3.735222018548675
computed normalized entropy=0.8678358569544731
SPLASH=splash10-0006-9400000000-cc1cb468f4f5a1307735
submitter=submitter = University of Tokyo Team (Faculty of Engineering, University of Tokyo)
MoNA Rating=3.75

>  <NUM PEAKS>  (907) 
74

>  <MASS SPECTRAL PEAKS>  (907) 
41 99.99
42 10
43 30
44 0.8
45 4.5
50 4
51 11.5
52 0.9
53 34
54 7.5
55 48
56 0.95
57 11
63 6
65 16
66 0.8
67 35
68 18.5
69 63
70 0.75
77 32.5
78 13
79 49
80 1.7
81 41
82 16
83 9
91 4.4
92 20.5
93 69.5
94 52
95 2.45
96 8
97 5.5
103 5
104 0.5
105 35.5
106 22
107 34
108 1.4
109 19
110 8
111 6
115 0.5
117 8
118 5
119 24
120 2.9
121 24
122 11
123 12.5
131 0.7
132 5
133 40
134 14
135 1.3
136 9
137 6
138 6
147 1.7
148 16.5
149 9
150 4
161 2.7
162 9
163 6
164 4
175 0.7
176 6
177 5
189 11
190 0.3
204 14
205 5

>  <PREDICTED SPECTRUM>  (907) 
26 22
27 281
28 62
29 287
38 47
39 441
40 195
41 835
42 177
43 358
44 65
50 100
51 269
52 194
53 506
54 179
55 574
56 161
57 192
58 31
62 24
63 149
64 106
65 392
66 235
67 693
68 297
69 666
70 179
71 85
74 5
75 53
76 48
77 613
78 291
79 768
80 436
81 752
82 369
83 214
84 55
85 21
89 38
90 2
91 817
92 505
93 999
94 515
95 588
96 207
97 75
98 7
102 40
103 164
104 136
105 825
106 483
107 953
108 469
109 413
110 170
111 34
115 229
116 113
117 281
118 168
119 791
120 573
121 606
122 428
123 289
124 66
127 64
128 166
129 102
130 45
131 134
132 84
133 789
134 469
135 505
136 278
137 35
141 24
143 3
145 141
146 95
147 538
148 496
149 316
150 62
159 13
160 50
161 733
162 356
163 194
164 45
175 288
176 229
177 74
189 512
190 177
191 23
204 425
205 142

$$$$

     RDKit          2D

 16 17  0  0  1  0  0  0  0  0999 V2000
    2.5990   -3.7500    0.0000 C   0  0  0  0  0  0  0  0  0  0  0  0
    0.0010   -3.7500    0.0000 C   0  0  0  0  0  0  0  0  0  0  0  0
   -3.8989   -1.5002    0.0000 C   0  0  0  0  0  0  0  0  0  0  0  0
    2.2641    2.6492    0.0000 C   0  0  0  0  0  0  0  0  0  0  0  0
   -2.6000    0.7500    0.0000 C   0  0  0  0  0  0  0  0  0  0  0  0
   -1.3000    1.5000    0.0000 C   0  0  0  0  0  0  0  0  0  0  0  0
    2.6000   -0.7500    0.0000 C   0  0  0  0  0  0  0  0  0  0  0  0
    2.6000    0.7500    0.0000 C   0  0  0  0  0  0  0  0  0  0  0  0
   -1.3000   -1.5000    0.0000 C   0  0  0  0  0  0  0  0  0  0  0  0
    1.3000   -3.0000    0.0000 C   0  0  0  0  0  0  0  0  0  0  0  0
   -2.6000   -0.7500    0.0000 C   0  0  0  0  0  0  0  0  0  0  0  0
    1.3000   -1.5000    0.0000 C   0  0  0  0  0  0  0  0  0  0  0  0
    0.0000   -0.7500    0.0000 C   0  0  0  0  0  0  0  0  0  0  0  0
    0.0000    0.7500    0.0000 C   0  0  0  0  0  0  0  0  0  0  0  0
    1.3000    1.5000    0.0000 C   0  0  0  0  0  0  0  0  0  0  0  0
    0.3359    2.6492    0.0000 O   0  0  0  0  0  0  0  0  0  0  0  0
  6  5  1  0
  8  7  1  0
 10  1  1  0
 10  2  1  0
 11  3  1  0
 11  5  1  0
 11  9  2  0
 12  7  1  0
 12 10  1  1
 13  9  1  6
 13 12  1  0
 14  6  1  6
 14 13  1  0
 15  4  1  6
 15  8  1  0
 15 14  1  0
 15 16  1  0
M  END
>  <NAME>  (908) 
T-MUUROLOL

>  <SYNONYMS>  (908) 


>  <SPECTRUM TYPE>  (908) 
MS1

>  <INSTRUMENT TYPE>  (908) 
EI-B

>  <INSTRUMENT>  (908) 
HITACHI RMU-6L

>  <ION MODE>  (908) 
P

>  <INCHIKEY>  (908) 
LHYHMMRYTDARSZ-AJNGGQMLSA-N

>  <FORMULA>  (908) 
C15H26O

>  <EXACT MASS>  (908) 
222.198365452

>  <MW>  (908) 
222

>  <ID>  (908) 
JP010682

>  <CONTRIBUTOR>  (908) 
University of Tokyo Team, {Faculty of Engineering, University of Tokyo

>  <COMMENT>  (908) 
SMILES=CC(C2)=CC([H])(C([H])(C(C)C)1)C([H])(C2)C(C)(O)CC1
InChI=InChI=1S/C15H26O/c1-10(2)12-7-8-15(4,16)14-6-5-11(3)9-13(12)14/h9-10,12-14,16H,5-8H2,1-4H3/t12-,13-,14-,15-/m0/s1
computed SMILES=OC1(C)CCC(C(C)C)C2C=C(C)CCC21
accession=JP010682
date=2016.01.19 (Created 2008.10.21, modified 2011.05.06)
author=EGUCHI S, FAC. OF SCIENCE, HIROSHIMA UNIV.
license=CC BY-NC-SA
exact mass=222.19837
ionization energy=70 eV
ion type=[M]+*
computed spectral entropy=3.631985614504204
computed normalized entropy=0.8637933716615613
SPLASH=splash10-0nmm-9720000000-d61b008e19718e3ffe74
submitter=submitter = University of Tokyo Team (Faculty of Engineering, University of Tokyo)
MoNA Rating=3.75

>  <NUM PEAKS>  (908) 
67

>  <MASS SPECTRAL PEAKS>  (908) 
41 30
42 3
43 80
44 0.3
53 20
54 1.5
55 23
56 0.3
57 6.5
58 21
59 5
65 0.5
67 15
68 4
69 28
70 0.5
71 38
77 16
78 4
79 3.1
80 11
82 35
83 12
91 2.1
92 13
93 29
94 37
95 99.99
96 16
97 5
105 37
106 0.8
107 14
108 19
109 37
110 0.7
111 4
119 25
120 8
121 7.7
122 15
123 12
127 12
133 0.9
134 10
135 11
136 5
137 1.3
138 5
145 5
147 8
148 0.8
149 11
150 6
151 11
152 1.3
161 72
162 14
164 52
165 0.9
179 14
189 14
204 82
205 1.8
207 8
222 31.5
223 7

>  <PREDICTED SPECTRUM>  (908) 
27 119
29 115
31 23
39 287
40 111
41 815
42 167
43 999
44 137
45 170
46 1
50 58
51 198
52 116
53 415
54 121
55 457
56 82
57 143
58 97
59 215
60 29
63 52
64 13
65 258
66 123
67 518
68 313
69 564
70 126
71 566
72 100
73 4
77 503
78 195
79 586
80 327
81 671
82 250
83 178
84 141
85 9
86 13
87 76
89 81
91 629
92 389
93 780
94 293
95 549
96 264
97 258
103 125
104 74
105 509
106 283
107 415
108 332
109 437
110 266
111 158
115 119
116 18
117 233
118 171
119 752
120 437
121 484
122 315
123 28
129 89
131 187
132 14
133 353
134 255
135 226
136 194
137 353
145 21
146 163
147 192
148 56
149 53
160 39
161 885
162 239
163 0
164 119
175 33
179 162
189 281
190 27
204 474
205 265

$$$$

     RDKit          2D

 17 18  0  0  1  0  0  0  0  0999 V2000
    2.6202   -1.1987    0.0000 C   0  0  0  0  0  0  0  0  0  0  0  0
    0.3704   -2.4981    0.0000 C   0  0  0  0  0  0  0  0  0  0  0  0
    2.6302    3.9989    0.0000 C   0  0  0  0  0  0  0  0  0  0  0  0
   -3.9291    0.8498    0.0000 C   0  0  0  0  0  0  0  0  0  0  0  0
   -0.3700    1.4000    0.0000 C   0  0  0  0  0  0  0  0  0  0  0  0
    0.3800    2.7000    0.0000 C   0  0  0  0  0  0  0  0  0  0  0  0
   -1.8800    1.4000    0.0000 C   0  0  0  0  0  0  0  0  0  0  0  0
    2.6300    1.4000    0.0000 C   0  0  0  0  0  0  0  0  0  0  0  0
   -0.3800   -1.2000    0.0000 C   0  0  0  0  0  0  0  0  0  0  0  0
    1.1202   -1.1989    0.0000 C   0  0  0  0  0  0  0  0  0  0  0  0
    1.8800    2.7000    0.0000 C   0  0  0  0  0  0  0  0  0  0  0  0
    0.3700    0.1000    0.0000 C   0  0  0  0  0  0  0  0  0  0  0  0
    1.8800    0.1000    0.0000 C   0  0  0  0  0  0  0  0  0  0  0  0
   -1.8800   -1.2000    0.0000 C   0  0  0  0  0  0  0  0  0  0  0  0
   -2.6300    0.1000    0.0000 C   0  0  0  0  0  0  0  0  0  0  0  0
    1.1298    1.3989    0.0000 O   0  0  0  0  0  0  0  0  0  0  0  0
   -3.3802   -1.1992    0.0000 O   0  0  0  0  0  0  0  0  0  0  0  0
  6  5  1  0
  7  5  1  0
 10  1  1  0
 10  2  1  0
 11  3  1  0
  6 11  2  0
 11  8  1  0
 12  9  1  0
 12 10  2  0
 13  8  1  0
 13 12  1  0
 14  9  1  1
 15  4  1  1
 15  7  1  0
 15 14  1  0
 16 13  2  0
 14 17  1  0
 17 15  1  0
M  END
>  <NAME>  (909) 
4,5-EPOXYGERMACRONE

>  <SYNONYMS>  (909) 


>  <SPECTRUM TYPE>  (909) 
MS1

>  <INSTRUMENT TYPE>  (909) 
EI-B

>  <INSTRUMENT>  (909) 
HITACHI RMU-6L

>  <ION MODE>  (909) 
P

>  <INCHIKEY>  (909) 
DWGVRYKQVZGSIB-JDBPXVJJSA-N

>  <FORMULA>  (909) 
C15H22O2

>  <EXACT MASS>  (909) 
234.161979944

>  <MW>  (909) 
234

>  <ID>  (909) 
JP010681

>  <CONTRIBUTOR>  (909) 
University of Tokyo Team, {Faculty of Engineering, University of Tokyo

>  <COMMENT>  (909) 
SMILES=CC(=C2)CC(=O)C(=C(C)C)CC([H])(O1)C(C)(CC2)1
InChI=InChI=1S/C15H22O2/c1-10(2)12-9-14-15(4,17-14)7-5-6-11(3)8-13(12)16/h6,14H,5,7-9H2,1-4H3/b11-6-/t14-,15-/m1/s1
computed SMILES=O=C1C(=C(C)C)CC2OC2(C)CCC=C(C)C1
accession=JP010681
date=2016.01.19 (Created 2008.10.21, modified 2011.05.06)
author=EGUCHI S, FAC. OF SCIENCE, HIROSHIMA UNIV.
license=CC BY-NC-SA
exact mass=234.16198
ionization energy=70 eV
ion type=[M]+*
computed spectral entropy=3.6365178198024974
computed normalized entropy=0.8163974602656431
SPLASH=splash10-014l-9400000000-62c77a0b99ae96a6f09f
submitter=submitter = University of Tokyo Team (Faculty of Engineering, University of Tokyo)
MoNA Rating=3.75

>  <NUM PEAKS>  (909) 
86

>  <MASS SPECTRAL PEAKS>  (909) 
41 67.5
42 9
43 48
44 0.6
45 3.5
50 3.5
51 8
52 0.5
53 28
54 5
55 16
56 0.35
57 4
58 2
59 3
63 0.4
65 8
66 6.5
67 44
68 99.99
69 22.5
70 4.5
71 5
77 0.95
78 3.5
79 3
80 5.5
81 1.35
82 7
83 4.5
84 3.5
85 0.3
91 10
92 4
93 9.5
94 0.25
95 8.5
96 12.5
97 10
98 0.3
103 3
105 8.5
106 3.5
107 1.4
108 5
109 9.5
110 3
111 0.35
115 3
117 3
119 5
120 0.3
121 25
122 6
123 9
124 0.45
125 8
131 3
133 5.5
134 0.35
135 4
136 3.5
137 4.5
138 0.3
139 8
145 3
147 3.5
148 0.3
149 6.5
150 3
151 8
152 0.5
153 8
161 4
163 4
164 0.6
165 6.5
166 3.5
167 38.5
168 0.6
176 4
178 5
191 3
216 0.3
219 3
234 3.5

>  <PREDICTED SPECTRUM>  (909) 
15 2
18 3
19 5
25 5
26 66
27 252
28 115
29 193
31 77
32 1
33 7
36 6
37 24
38 83
39 437
40 223
41 768
42 228
43 999
44 170
45 153
47 24
49 28
50 83
51 225
52 197
53 439
54 230
55 510
56 129
57 131
58 72
59 137
60 6
61 44
62 5
63 133
64 83
65 305
66 190
67 622
68 487
69 466
70 126
71 176
72 24
73 96
74 1
75 57
76 16
77 336
78 133
79 351
80 226
81 407
82 301
83 318
84 201
85 170
86 27
87 33
91 330
92 251
93 458
94 276
95 402
96 204
97 271
98 185
99 79
103 73
104 32
105 210
106 114
107 373
108 245
109 399
110 203
111 335
112 109
113 7
115 64
117 118
118 48
119 253
120 169
121 355
122 188
123 313
124 250
125 258
126 96
127 2
128 16
129 63
131 113
133 178
134 192
135 263
136 157
137 206
138 139
139 146
140 19
141 4
143 105
144 4
145 119
146 22
147 141
148 82
149 271
150 140
151 229
152 238
153 200
154 45
155 40
158 45
159 111
160 94
161 216
162 104
163 140
164 88
165 159
166 167
167 218
168 98
169 49
171 6
173 155
174 37
175 70
176 132
177 151
178 75
191 208
192 63
199 15
201 88
202 7
205 20
206 68
207 4
216 83
219 80
234 180
235 46

$$$$

     RDKit          2D

 16 16  0  0  0  0  0  0  0  0999 V2000
    4.1302   -1.1987    0.0000 C   0  0  0  0  0  0  0  0  0  0  0  0
    1.8804   -2.4981    0.0000 C   0  0  0  0  0  0  0  0  0  0  0  0
   -0.3702    3.9989    0.0000 C   0  0  0  0  0  0  0  0  0  0  0  0
   -2.6302   -2.4989    0.0000 C   0  0  0  0  0  0  0  0  0  0  0  0
   -1.8800    1.4000    0.0000 C   0  0  0  0  0  0  0  0  0  0  0  0
   -0.3700    1.4000    0.0000 C   0  0  0  0  0  0  0  0  0  0  0  0
   -2.6300    0.1000    0.0000 C   0  0  0  0  0  0  0  0  0  0  0  0
    1.8800    2.7000    0.0000 C   0  0  0  0  0  0  0  0  0  0  0  0
    2.6300    1.4000    0.0000 C   0  0  0  0  0  0  0  0  0  0  0  0
   -0.3800   -1.2000    0.0000 C   0  0  0  0  0  0  0  0  0  0  0  0
    2.6302   -1.1989    0.0000 C   0  0  0  0  0  0  0  0  0  0  0  0
    0.3800    2.7000    0.0000 C   0  0  0  0  0  0  0  0  0  0  0  0
   -1.8800   -1.2000    0.0000 C   0  0  0  0  0  0  0  0  0  0  0  0
    1.8800    0.1000    0.0000 C   0  0  0  0  0  0  0  0  0  0  0  0
    0.3700    0.1000    0.0000 C   0  0  0  0  0  0  0  0  0  0  0  0
    1.1202   -1.1989    0.0000 O   0  0  0  0  0  0  0  0  0  0  0  0
  6  5  1  0
  7  5  1  0
  9  8  1  0
 11  1  1  0
 11  2  1  0
 12  3  1  0
 12  6  1  0
  8 12  2  0
 13  4  1  0
  7 13  2  0
 13 10  1  0
 14  9  1  0
 14 11  2  0
 15 10  1  0
 15 14  1  0
 16 15  2  0
M  END
>  <NAME>  (910) 
GERMACRONE

>  <SYNONYMS>  (910) 


>  <SPECTRUM TYPE>  (910) 
MS1

>  <INSTRUMENT TYPE>  (910) 
EI-B

>  <INSTRUMENT>  (910) 
HITACHI RMU-6L

>  <ION MODE>  (910) 
P

>  <INCHIKEY>  (910) 
CAULGCQHVOVVRN-SVGXSMIJSA-N

>  <FORMULA>  (910) 
C15H22O

>  <EXACT MASS>  (910) 
218.167065324

>  <MW>  (910) 
218

>  <ID>  (910) 
JP010680

>  <CONTRIBUTOR>  (910) 
University of Tokyo Team, {Faculty of Engineering, University of Tokyo

>  <COMMENT>  (910) 
SMILES=CC(C1)=CCC(=C(C)C)C(=O)CC(C)=CC1
InChI=InChI=1S/C15H22O/c1-11(2)14-9-8-12(3)6-5-7-13(4)10-15(14)16/h7-8H,5-6,9-10H2,1-4H3/b12-8-,13-7-
computed SMILES=O=C1C(=C(C)C)CC=C(C)CCC=C(C)C1
accession=JP010680
date=2016.01.19 (Created 2008.10.21, modified 2011.05.06)
author=EGUCHI S, FAC. OF SCIENCE, HIROSHIMA UNIV.
license=CC BY-NC-SA
exact mass=218.16707
ionization energy=70 eV
ion type=[M]+*
computed spectral entropy=3.9346611146795976
computed normalized entropy=0.8544008051323235
SPLASH=splash10-00kf-9400000000-448d355b877379056c92
submitter=submitter = University of Tokyo Team (Faculty of Engineering, University of Tokyo)
MoNA Rating=3.75

>  <NUM PEAKS>  (910) 
100

>  <MASS SPECTRAL PEAKS>  (910) 
41 99.99
42 11
43 36.5
44 0.25
45 3
51 16
52 9.5
53 5
54 10
55 32
56 7.5
57 1.6
63 6
64 3
65 24
66 0.9
67 57
68 23.5
69 21
70 0.5
71 8
76 4.5
77 31
78 0.9
79 31
80 8
81 18
82 1.4
83 8
84 3
85 4.5
91 4.1
92 8.5
93 29
94 6
95 1.5
96 8
97 6
98 2.5
99 0.3
103 6
104 5
105 23
107 7.1
108 16
109 12
110 4.5
111 0.4
115 6
116 2.5
117 8
118 0.2
119 15
120 5
121 23
122 1.4
123 8
124 2
125 4
127 0.2
128 4.5
129 3
130 2
131 0.6
132 5
133 9.5
134 4
135 3.9
136 18
137 6
143 3.5
144 0.2
145 5
146 3
147 9
148 0.55
149 15
150 10
151 4
157 0.35
158 2
159 3
160 2
161 0.65
162 4
163 2
175 8
176 0.4
177 2
185 3
187 2
189 0.2
190 3
191 2
200 3
201 0.15
203 6.5
204 1.5
218 11
219 3.5

>  <PREDICTED SPECTRUM>  (910) 
26 16
27 244
28 81
29 172
38 54
39 517
40 260
41 892
42 275
43 337
44 22
45 8
50 98
51 313
52 254
53 667
54 252
55 496
56 142
57 140
62 23
63 140
64 111
65 414
66 262
67 860
68 535
69 531
70 145
71 111
75 34
77 682
78 285
79 746
80 336
81 456
82 408
83 430
84 132
85 85
91 691
92 379
93 851
94 343
95 633
96 256
97 202
103 134
104 98
105 869
106 481
107 999
108 491
109 396
110 231
111 203
112 13
115 175
117 179
118 121
119 451
120 349
121 653
122 440
123 422
124 135
125 64
126 27
127 7
128 71
129 126
130 55
131 129
132 61
133 337
134 327
135 986
136 699
137 418
138 178
139 84
145 205
146 109
147 421
148 273
149 425
150 382
151 226
152 29
155 42
157 254
158 78
159 66
160 151
161 321
162 238
163 109
170 100
173 52
174 44
175 553
176 244
177 73
185 90
188 46
189 227
190 142
191 79
199 8
200 107
201 44
203 425
204 103
217 58
218 645
219 251

$$$$

     RDKit          2D

 15 15  0  0  1  0  0  0  0  0999 V2000
    4.8800    2.6990    0.0000 C   0  0  0  0  0  0  0  0  0  0  0  0
    4.8800    0.1010    0.0000 C   0  0  0  0  0  0  0  0  0  0  0  0
   -1.1202    2.6989    0.0000 C   0  0  0  0  0  0  0  0  0  0  0  0
    0.3702   -2.4989    0.0000 C   0  0  0  0  0  0  0  0  0  0  0  0
   -2.6300    0.1000    0.0000 C   0  0  0  0  0  0  0  0  0  0  0  0
   -1.8800    1.4000    0.0000 C   0  0  0  0  0  0  0  0  0  0  0  0
   -1.8800   -1.2000    0.0000 C   0  0  0  0  0  0  0  0  0  0  0  0
    0.3800    2.7000    0.0000 C   0  0  0  0  0  0  0  0  0  0  0  0
    0.3700    0.1000    0.0000 C   0  0  0  0  0  0  0  0  0  0  0  0
    1.8800    2.7000    0.0000 C   0  0  0  0  0  0  0  0  0  0  0  0
    1.8800    0.1000    0.0000 C   0  0  0  0  0  0  0  0  0  0  0  0
    4.1300    1.4000    0.0000 C   0  0  0  0  0  0  0  0  0  0  0  0
   -0.3700    1.4000    0.0000 C   0  0  0  0  0  0  0  0  0  0  0  0
   -0.3800   -1.2000    0.0000 C   0  0  0  0  0  0  0  0  0  0  0  0
    2.6300    1.4000    0.0000 C   0  0  0  0  0  0  0  0  0  0  0  0
  6  5  1  0
  7  5  1  0
  8 10  2  0
 11  9  1  0
 12  1  1  0
 12  2  1  0
 13  3  2  0
 13  6  1  0
 13  8  1  0
 14  4  1  0
  7 14  2  0
 14  9  1  0
 15 10  1  0
 15 11  1  0
 15 12  1  6
M  END
>  <NAME>  (911) 
GERMACRENE-D

>  <SYNONYMS>  (911) 


>  <SPECTRUM TYPE>  (911) 
MS1

>  <INSTRUMENT TYPE>  (911) 
EI-B

>  <INSTRUMENT>  (911) 
HITACHI RMU-6L

>  <ION MODE>  (911) 
P

>  <INCHIKEY>  (911) 
GAIBLDCXCZKKJE-ACWLMNNXSA-N

>  <FORMULA>  (911) 
C15H24

>  <EXACT MASS>  (911) 
204.187800768

>  <MW>  (911) 
204

>  <ID>  (911) 
JP010679

>  <CONTRIBUTOR>  (911) 
University of Tokyo Team, {Faculty of Engineering, University of Tokyo

>  <COMMENT>  (911) 
SMILES=CC(=C1)CCC(C=CC(=C)CC1)C(C)C
InChI=InChI=1S/C15H24/c1-12(2)15-10-8-13(3)6-5-7-14(4)9-11-15/h7-8,10,12,15H,3,5-6,9,11H2,1-2,4H3/b10-8-,14-7-/t15-/m0/s1
computed SMILES=C=C1C=CC(CCC(=CCC1)C)C(C)C
accession=JP010679
date=2016.01.19 (Created 2008.10.21, modified 2011.05.06)
author=EGUCHI S, FAC. OF SCIENCE, HIROSHIMA UNIV.
license=CC BY-NC-SA
exact mass=204.1878
ionization energy=70 eV
ion type=[M]+*
computed spectral entropy=3.647201007391525
computed normalized entropy=0.8737093066793269
SPLASH=splash10-01po-7900000000-43e575b47c041c6e0df9
submitter=submitter = University of Tokyo Team (Faculty of Engineering, University of Tokyo)
MoNA Rating=3.75

>  <NUM PEAKS>  (911) 
65

>  <MASS SPECTRAL PEAKS>  (911) 
41 39
42 4
43 20
51 0.4
53 11.5
55 21.5
56 4.5
57 2.8
65 8
67 12.5
69 15.5
70 0.5
71 11.5
77 25
78 8
79 3.45
80 9
81 37
82 5
83 0.7
85 9.5
91 55
92 18
93 5.55
94 18
95 17
96 5
97 0.5
99 4
103 5
104 4
105 9.6
106 18
107 25
108 8
109 0.9
115 9
116 4
117 10.5
118 0.4
119 46
120 19
121 20
122 0.7
123 10
128 6
129 6
131 0.7
133 25.5
134 11.5
135 10
136 0.8
141 4
145 7
147 12.5
148 0.9
149 5
157 6
159 8
160 0.5
161 99.99
162 15.5
189 11
204 3.7
205 7

>  <PREDICTED SPECTRUM>  (911) 
26 5
27 186
28 15
29 202
38 23
39 299
40 131
41 652
42 154
43 339
44 37
50 39
51 214
52 149
53 419
54 185
55 517
56 143
57 156
63 103
64 49
65 339
66 231
67 616
68 278
69 532
70 163
71 104
77 632
78 284
79 686
80 401
81 716
82 334
83 185
84 34
85 49
89 26
91 793
92 442
93 870
94 420
95 393
96 129
97 115
102 17
103 176
104 169
105 791
106 388
107 700
108 312
109 255
110 61
111 38
115 213
116 71
117 227
118 86
119 726
120 588
121 533
122 311
123 154
128 86
129 28
131 135
132 21
133 557
134 312
135 307
136 202
137 21
143 88
145 74
146 76
147 327
148 235
149 101
159 13
160 82
161 999
162 382
163 93
164 3
175 151
176 89
189 285
190 70
204 459
205 157

$$$$

     RDKit          2D

 15 15  0  0  0  0  0  0  0  0999 V2000
    4.1302   -1.1987    0.0000 C   0  0  0  0  0  0  0  0  0  0  0  0
    1.8804   -2.4981    0.0000 C   0  0  0  0  0  0  0  0  0  0  0  0
   -0.3702    3.9989    0.0000 C   0  0  0  0  0  0  0  0  0  0  0  0
   -2.6302   -2.4989    0.0000 C   0  0  0  0  0  0  0  0  0  0  0  0
   -1.8800    1.4000    0.0000 C   0  0  0  0  0  0  0  0  0  0  0  0
   -0.3700    1.4000    0.0000 C   0  0  0  0  0  0  0  0  0  0  0  0
   -2.6300    0.1000    0.0000 C   0  0  0  0  0  0  0  0  0  0  0  0
    1.8800    2.7000    0.0000 C   0  0  0  0  0  0  0  0  0  0  0  0
   -0.3800   -1.2000    0.0000 C   0  0  0  0  0  0  0  0  0  0  0  0
    2.6300    1.4000    0.0000 C   0  0  0  0  0  0  0  0  0  0  0  0
    0.3700    0.1000    0.0000 C   0  0  0  0  0  0  0  0  0  0  0  0
    2.6302   -1.1989    0.0000 C   0  0  0  0  0  0  0  0  0  0  0  0
    0.3800    2.7000    0.0000 C   0  0  0  0  0  0  0  0  0  0  0  0
   -1.8800   -1.2000    0.0000 C   0  0  0  0  0  0  0  0  0  0  0  0
    1.8800    0.1000    0.0000 C   0  0  0  0  0  0  0  0  0  0  0  0
  6  5  1  0
  7  5  1  0
 10  8  1  0
 11  9  1  0
 12  1  1  0
 12  2  1  0
 13  3  1  0
  6 13  2  0
 13  8  1  0
 14  4  1  0
 14  7  1  0
  9 14  2  0
 15 10  1  0
 15 11  1  0
 15 12  2  0
M  END
>  <NAME>  (912) 
GERMACRENE-B

>  <SYNONYMS>  (912) 


>  <SPECTRUM TYPE>  (912) 
MS1

>  <INSTRUMENT TYPE>  (912) 
EI-B

>  <INSTRUMENT>  (912) 
HITACHI RMU-6L

>  <ION MODE>  (912) 
P

>  <INCHIKEY>  (912) 
GXEGJTGWYVZSNR-JEKCHIPQSA-N

>  <FORMULA>  (912) 
C15H24

>  <EXACT MASS>  (912) 
204.187800768

>  <MW>  (912) 
204

>  <ID>  (912) 
JP010678

>  <CONTRIBUTOR>  (912) 
University of Tokyo Team, {Faculty of Engineering, University of Tokyo

>  <COMMENT>  (912) 
SMILES=CC(=C1)CCC(CC=C(C)CC1)=C(C)C
InChI=InChI=1S/C15H24/c1-12(2)15-10-8-13(3)6-5-7-14(4)9-11-15/h6,9H,5,7-8,10-11H2,1-4H3/b13-6+,14-9-
computed SMILES=C1=C(C)CCC=C(C)CCC(=C(C)C)C1
accession=JP010678
date=2016.01.19 (Created 2008.10.21, modified 2011.05.06)
author=EGUCHI S, FAC. OF SCIENCE, HIROSHIMA UNIV.
license=CC BY-NC-SA
exact mass=204.1878
ionization energy=70 eV
ion type=[M]+*
computed spectral entropy=3.5393507914248383
computed normalized entropy=0.8716661660394892
SPLASH=splash10-0006-9500000000-e387782d579e0e7098eb
submitter=submitter = University of Tokyo Team (Faculty of Engineering, University of Tokyo)
MoNA Rating=3.75

>  <NUM PEAKS>  (912) 
58

>  <MASS SPECTRAL PEAKS>  (912) 
41 99.99
42 17.3
43 28.2
51 1.64
52 13.2
53 71.4
54 7.7
55 4.73
56 8.6
57 9.6
63 9.1
65 2.82
66 12.7
67 68.3
68 24.6
69 1.96
77 51
78 14.6
79 54.6
80 1.73
81 43.7
82 9.6
83 10
85 0.77
91 61
92 16.4
93 82.8
94 1.55
95 15.9
103 10
105 57.3
106 1.73
107 46.9
108 20.9
109 13.7
115 1.09
117 11.8
119 35.5
120 95.6
121 6.96
122 28.7
123 10
128 7.3
129 0.73
131 8.6
133 28.7
134 11.8
135 1.09
136 9.6
140 8.6
147 20.9
148 1.23
149 9.1
161 30
162 10
189 1.64
204 27.3
205 7.7

>  <PREDICTED SPECTRUM>  (912) 
27 148
28 22
29 176
38 11
39 323
40 163
41 750
42 185
43 457
44 9
50 57
51 225
52 147
53 464
54 162
55 522
56 145
57 222
63 87
64 58
65 329
66 204
67 660
68 365
69 479
70 148
71 47
77 607
78 278
79 752
80 391
81 663
82 232
83 174
84 74
85 14
89 26
90 9
91 732
92 394
93 999
94 424
95 347
96 95
97 63
98 4
102 28
103 196
104 152
105 776
106 335
107 934
108 448
109 334
110 43
115 153
116 77
117 149
118 68
119 673
120 508
121 621
122 389
123 235
124 19
127 5
128 51
129 142
131 193
132 93
133 521
134 321
135 244
136 276
141 13
143 96
144 12
145 85
146 69
147 402
148 250
149 83
160 21
161 503
162 226
163 44
171 13
175 130
176 55
189 283
190 47
204 584
205 223
206 10

$$$$

     RDKit          2D

 16 17  0  0  1  0  0  0  0  0999 V2000
    3.8987   -3.0002    0.0000 C   0  0  0  0  0  0  0  0  0  0  0  0
    5.1981   -0.7504    0.0000 C   0  0  0  0  0  0  0  0  0  0  0  0
    0.0000    2.2500    0.0000 C   0  0  0  0  0  0  0  0  0  0  0  0
   -2.2641   -2.6492    0.0000 C   0  0  0  0  0  0  0  0  0  0  0  0
   -2.6000    0.7500    0.0000 C   0  0  0  0  0  0  0  0  0  0  0  0
    2.6000    0.7500    0.0000 C   0  0  0  0  0  0  0  0  0  0  0  0
   -1.3000    1.5000    0.0000 C   0  0  0  0  0  0  0  0  0  0  0  0
   -2.6000   -0.7500    0.0000 C   0  0  0  0  0  0  0  0  0  0  0  0
    1.3000    1.5000    0.0000 C   0  0  0  0  0  0  0  0  0  0  0  0
    1.3000   -1.5000    0.0000 C   0  0  0  0  0  0  0  0  0  0  0  0
    3.8989   -1.5002    0.0000 C   0  0  0  0  0  0  0  0  0  0  0  0
    2.6000   -0.7500    0.0000 C   0  0  0  0  0  0  0  0  0  0  0  0
    0.0000   -0.7500    0.0000 C   0  0  0  0  0  0  0  0  0  0  0  0
    0.0000    0.7500    0.0000 C   0  0  0  0  0  0  0  0  0  0  0  0
   -1.3000   -1.5000    0.0000 C   0  0  0  0  0  0  0  0  0  0  0  0
   -0.3359   -2.6492    0.0000 O   0  0  0  0  0  0  0  0  0  0  0  0
  7  5  1  0
  8  5  1  0
  9  6  1  0
 11  1  2  0
 11  2  1  0
 12  6  1  0
 12 10  1  0
 12 11  1  1
 13 10  1  1
 14  3  1  1
 14  7  1  0
 14  9  1  0
 14 13  1  0
 15  4  1  1
 15  8  1  0
 15 13  1  0
 15 16  1  0
M  END
>  <NAME>  (913) 
SELIN-11-EN-4ALPHA-OL

>  <SYNONYMS>  (913) 


>  <SPECTRUM TYPE>  (913) 
MS1

>  <INSTRUMENT TYPE>  (913) 
EI-B

>  <INSTRUMENT>  (913) 
HITACHI RMU-6L

>  <ION MODE>  (913) 
P

>  <INCHIKEY>  (913) 
DPQYOKVMVCQHMY-KBUPBQIOSA-N

>  <FORMULA>  (913) 
C15H26O

>  <EXACT MASS>  (913) 
222.198365452

>  <MW>  (913) 
222

>  <ID>  (913) 
JP010677

>  <CONTRIBUTOR>  (913) 
University of Tokyo Team, {Faculty of Engineering, University of Tokyo

>  <COMMENT>  (913) 
SMILES=CC(=C)C([H])(C1)CC([H])(C(C)(O)2)C(C)(CCC2)C1
InChI=InChI=1S/C15H26O/c1-11(2)12-6-9-14(3)7-5-8-15(4,16)13(14)10-12/h12-13,16H,1,5-10H2,2-4H3/t12-,13-,14-,15-/m1/s1
computed SMILES=OC1(C)CCCC2(C)CCC(C(=C)C)CC12
computed normalized entropy=0.8711974677264127
accession=JP010677
date=2016.01.19 (Created 2008.10.21, modified 2011.05.06)
author=EGUCHI S, FAC. OF SCIENCE, HIROSHIMA UNIV.
license=CC BY-NC-SA
exact mass=222.19837
ionization energy=70 eV
ion type=[M]+*
computed spectral entropy=3.9764485862284102
SPLASH=splash10-0l7r-9720000000-b3242e1d8c98c39523ab
submitter=submitter = University of Tokyo Team (Faculty of Engineering, University of Tokyo)
MoNA Rating=3.75

>  <NUM PEAKS>  (913) 
96

>  <MASS SPECTRAL PEAKS>  (913) 
41 20
42 8
43 36
44 0.6
45 8
51 6
52 4
53 3.7
54 7
55 13
56 6
57 0.9
58 18
59 35
65 15
66 0.7
67 61
68 28
69 41
70 0.6
71 83
72 6
77 26
78 0.8
79 16
80 13
81 99.99
82 2.9
83 17
84 7
85 17
86 0.25
91 35
92 10
93 20
94 2.1
95 23
96 29
97 13
98 0.45
99 3
103 4
104 3
105 3.2
106 11
107 42
108 26
109 2.1
110 10
111 8
113 5
115 0.3
117 5
118 7
119 18
120 0.8
121 38
122 25
123 36
124 0.6
125 10
126 4
131 5
133 2.44
134 20
135 78
136 20
137 4.5
138 7
139 3
142 21.5
145 4
146 0.3
148 16
149 24
150 0.5
151 5
152 3
161 41
162 1.9
163 6
164 23
165 6
175 0.95
176 4
179 13
180 3
189 4
190 7
204 82.5
205 37
206 0.6
207 12
208 3
222 29.9
223 7

>  <PREDICTED SPECTRUM>  (913) 
26 3
27 205
28 84
29 213
31 43
38 16
39 344
40 180
41 812
42 253
43 999
44 172
45 43
50 59
51 207
52 159
53 511
54 254
55 704
56 258
57 255
58 220
59 160
60 25
62 9
63 100
64 60
65 306
66 184
67 699
68 564
69 718
70 222
71 545
72 247
73 43
76 2
77 457
78 180
79 601
80 374
81 733
82 499
83 379
84 266
85 204
86 62
91 530
92 287
93 818
94 529
95 798
96 393
97 347
98 152
99 168
103 57
104 72
105 483
106 331
107 781
108 675
109 863
110 344
111 280
112 148
113 40
115 145
116 54
117 121
118 57
119 504
120 343
121 693
122 554
123 579
124 199
125 320
126 146
127 27
128 8
131 209
132 112
133 500
134 334
135 484
136 409
137 390
138 131
139 127
140 58
146 104
147 399
148 305
149 544
150 179
151 191
152 185
153 42
160 103
161 536
162 322
163 201
164 557
165 237
166 62
175 274
176 179
177 67
178 14
179 140
180 36
189 715
190 279
191 55
194 6
204 708
205 302
206 36
207 187
208 29
222 131
223 21

$$$$

     RDKit          2D

 15 14  0  0  0  0  0  0  0  0999 V2000
    3.5724    6.5625    0.0000 C   0  0  0  0  0  0  0  0  0  0  0  0
  -10.7171    7.3125    0.0000 C   0  0  0  0  0  0  0  0  0  0  0  0
   -9.4180    5.0625    0.0000 C   0  0  0  0  0  0  0  0  0  0  0  0
    0.9743    5.0625    0.0000 C   0  0  0  0  0  0  0  0  0  0  0  0
   -4.2219    5.0625    0.0000 C   0  0  0  0  0  0  0  0  0  0  0  0
    2.2733    7.3125    0.0000 C   0  0  0  0  0  0  0  0  0  0  0  0
   -6.8200    6.5625    0.0000 C   0  0  0  0  0  0  0  0  0  0  0  0
   -1.6238    6.5625    0.0000 C   0  0  0  0  0  0  0  0  0  0  0  0
   -8.1190    7.3125    0.0000 C   0  0  0  0  0  0  0  0  0  0  0  0
   -0.3248    7.3125    0.0000 C   0  0  0  0  0  0  0  0  0  0  0  0
   -5.5209    7.3125    0.0000 C   0  0  0  0  0  0  0  0  0  0  0  0
   -2.9228    7.3125    0.0000 C   0  0  0  0  0  0  0  0  0  0  0  0
   -9.4180    6.5625    0.0000 C   0  0  0  0  0  0  0  0  0  0  0  0
    0.9743    6.5625    0.0000 C   0  0  0  0  0  0  0  0  0  0  0  0
   -4.2219    6.5625    0.0000 C   0  0  0  0  0  0  0  0  0  0  0  0
  6  1  2  0
  9  7  1  0
 10  8  1  0
 11  7  1  0
 12  8  1  0
 13  2  1  0
 13  3  1  0
 13  9  2  0
 14  4  2  0
 14  6  1  0
 14 10  1  0
 15  5  1  0
 15 11  1  0
 12 15  2  0
M  END
>  <NAME>  (914) 
BETA-FARNESENE

>  <SYNONYMS>  (914) 


>  <SPECTRUM TYPE>  (914) 
MS1

>  <INSTRUMENT TYPE>  (914) 
EI-B

>  <INSTRUMENT>  (914) 
HITACHI RMU-6L

>  <ION MODE>  (914) 
P

>  <INCHIKEY>  (914) 
JSNRRGGBADWTMC-NTCAYCPXSA-N

>  <FORMULA>  (914) 
C15H24

>  <EXACT MASS>  (914) 
204.187800768

>  <MW>  (914) 
204

>  <ID>  (914) 
JP010676

>  <CONTRIBUTOR>  (914) 
University of Tokyo Team, {Faculty of Engineering, University of Tokyo

>  <COMMENT>  (914) 
SMILES=C=CC(=C)CCC([H])=C(C)CCC=C(C)C
InChI=InChI=1S/C15H24/c1-6-14(4)10-8-12-15(5)11-7-9-13(2)3/h6,9,12H,1,4,7-8,10-11H2,2-3,5H3/b15-12+
computed SMILES=C=CC(=C)CCC=C(C)CCC=C(C)C
accession=JP010676
date=2016.01.19 (Created 2008.10.21, modified 2011.05.06)
author=EGUCHI S, FAC. OF SCIENCE, HIROSHIMA UNIV.
license=CC BY-NC-SA
exact mass=204.1878
ionization energy=70 eV
ion type=[M]+*
computed spectral entropy=3.4685996798420073
computed normalized entropy=0.8655630863498536
SPLASH=splash10-00kf-9300000000-b9d4d3c4eb1b8ad6bb3d
submitter=submitter = University of Tokyo Team (Faculty of Engineering, University of Tokyo)
MoNA Rating=3.75

>  <NUM PEAKS>  (914) 
55

>  <MASS SPECTRAL PEAKS>  (914) 
41 99.99
42 13
43 28.5
51 1.1
52 9
53 28
54 8
55 4.1
56 9
57 16
65 6.5
66 0.8
67 29
68 16.5
69 98
70 1.4
71 11
77 20.5
78 8.5
79 3.4
80 16.5
81 37
82 16
83 0.9
91 26.5
92 16
93 67
94 1.6
95 16
96 7
105 23
106 1.1
107 21
108 10
109 16.5
110 0.6
119 18
120 20.5
121 17
122 0.8
123 8
131 6
133 26
134 1
135 10
136 6
147 11
148 0.8
161 23
162 8
175 6
189 0.9
190 3
204 17
205 4

>  <PREDICTED SPECTRUM>  (914) 
11 3
26 34
27 208
28 55
29 237
30 16
38 18
39 288
40 112
41 780
42 147
43 278
50 61
51 134
52 94
53 346
54 124
55 432
56 94
57 110
63 16
65 144
66 115
67 467
68 296
69 999
70 205
71 114
77 325
78 172
79 399
80 306
81 653
82 257
83 99
84 5
89 24
91 298
92 175
93 480
94 210
95 264
96 66
97 35
103 89
104 64
105 289
106 138
107 317
108 179
109 319
110 69
111 46
115 73
116 38
117 109
118 38
119 305
120 156
121 313
122 190
123 299
124 120
130 10
131 21
132 27
133 218
134 107
135 175
136 239
137 244
138 38
143 2
145 0
146 6
147 126
148 102
149 64
159 25
160 29
161 291
162 122
163 3
175 84
176 29
189 161
190 23
204 188
205 90

$$$$

     RDKit          2D

 15 16  0  0  1  0  0  0  0  0999 V2000
    3.6987   -2.8302    0.0000 C   0  0  0  0  0  0  0  0  0  0  0  0
    4.9981   -0.5804    0.0000 C   0  0  0  0  0  0  0  0  0  0  0  0
   -1.5000   -2.8300    0.0000 C   0  0  0  0  0  0  0  0  0  0  0  0
   -0.2000    2.4200    0.0000 C   0  0  0  0  0  0  0  0  0  0  0  0
   -2.8000    0.9200    0.0000 C   0  0  0  0  0  0  0  0  0  0  0  0
   -2.8000   -0.5800    0.0000 C   0  0  0  0  0  0  0  0  0  0  0  0
    2.4000    0.9200    0.0000 C   0  0  0  0  0  0  0  0  0  0  0  0
   -1.5000    1.6700    0.0000 C   0  0  0  0  0  0  0  0  0  0  0  0
    1.1000    1.6700    0.0000 C   0  0  0  0  0  0  0  0  0  0  0  0
    1.1000   -1.3300    0.0000 C   0  0  0  0  0  0  0  0  0  0  0  0
    3.6989   -1.3302    0.0000 C   0  0  0  0  0  0  0  0  0  0  0  0
   -1.5000   -1.3300    0.0000 C   0  0  0  0  0  0  0  0  0  0  0  0
    2.4000   -0.5800    0.0000 C   0  0  0  0  0  0  0  0  0  0  0  0
   -0.2000   -0.5800    0.0000 C   0  0  0  0  0  0  0  0  0  0  0  0
   -0.2000    0.9200    0.0000 C   0  0  0  0  0  0  0  0  0  0  0  0
  6  5  1  0
  8  5  1  0
  9  7  1  0
 11  1  2  0
 11  2  1  0
 12  3  2  0
 12  6  1  0
 13  7  1  0
 13 10  1  0
 13 11  1  1
 14 10  1  1
 14 12  1  0
 15  4  1  1
 15  8  1  0
 15  9  1  0
 15 14  1  0
M  END
>  <NAME>  (915) 
BETA-SELINENE

>  <SYNONYMS>  (915) 


>  <SPECTRUM TYPE>  (915) 
MS1

>  <INSTRUMENT TYPE>  (915) 
EI-B

>  <INSTRUMENT>  (915) 
HITACHI RMU-6L

>  <ION MODE>  (915) 
P

>  <INCHIKEY>  (915) 
YOVSPTNQHMDJAG-QLFBSQMISA-N

>  <FORMULA>  (915) 
C15H24

>  <EXACT MASS>  (915) 
204.187800768

>  <MW>  (915) 
204

>  <ID>  (915) 
JP010675

>  <CONTRIBUTOR>  (915) 
University of Tokyo Team, {Faculty of Engineering, University of Tokyo

>  <COMMENT>  (915) 
SMILES=CC(=C)C([H])(C1)CC([H])(C(=C)2)C(C)(CCC2)C1
InChI=InChI=1S/C15H24/c1-11(2)13-7-9-15(4)8-5-6-12(3)14(15)10-13/h13-14H,1,3,5-10H2,2,4H3/t13-,14+,15-/m1/s1
computed SMILES=C=C(C)C1CCC2(C)CCCC(=C)C2C1
accession=JP010675
date=2016.01.19 (Created 2008.10.21, modified 2011.05.06)
author=EGUCHI S, FAC. OF SCIENCE, HIROSHIMA UNIV.
license=CC BY-NC-SA
exact mass=204.1878
ionization energy=70 eV
ion type=[M]+*
computed spectral entropy=3.7953089234256328
computed normalized entropy=0.8817963579171167
SPLASH=splash10-052f-9700000000-0433b7021e9426df6c0a
submitter=submitter = University of Tokyo Team (Faculty of Engineering, University of Tokyo)
MoNA Rating=3.75

>  <NUM PEAKS>  (915) 
74

>  <MASS SPECTRAL PEAKS>  (915) 
41 99.99
42 9.5
43 23.5
44 0.55
51 11.5
52 7.5
53 40.5
54 0.8
55 59
56 8
57 10
63 0.55
64 4
65 21
66 9.5
67 4.8
68 19
69 27.5
70 5.5
77 3.95
78 12
79 52.5
80 21
81 6.4
82 20
83 9.5
91 61
92 1.65
93 76
94 24
95 38
96 0.8
97 8.5
103 7.5
104 5.5
105 6.45
106 19
107 65
108 31
109 2.8
110 7
115 8.5
116 5.5
117 1.1
118 7
119 36
120 16
121 4.1
122 22
123 18
124 6
128 0.6
129 6
130 4.5
131 9.5
132 0.6
133 43
134 17
135 18
145 0.85
146 8
147 30
148 16
149 1.2
150 6
161 41
162 17
163 0.7
175 18.5
176 8
189 46
190 0.9
204 48
205 9.5

>  <PREDICTED SPECTRUM>  (915) 
26 62
27 345
28 115
29 340
30 10
31 12
37 10
38 72
39 481
40 244
41 891
42 221
43 411
44 70
50 113
51 285
52 237
53 560
54 256
55 692
56 277
57 259
58 47
59 24
62 55
63 181
64 110
65 406
66 222
67 768
68 523
69 647
70 248
71 153
74 10
75 12
76 35
77 563
78 308
79 814
80 489
81 896
82 429
83 275
84 152
85 36
88 9
89 97
90 68
91 730
92 425
93 999
94 608
95 732
96 395
97 297
98 82
102 35
103 198
104 139
105 612
106 392
107 872
108 672
109 644
110 194
111 229
112 143
114 41
115 213
116 158
117 268
118 197
119 595
120 431
121 780
122 563
123 333
124 100
125 53
126 13
127 71
128 135
129 188
130 105
131 251
132 145
133 575
134 482
135 438
136 366
137 71
138 18
141 20
142 55
143 268
144 88
145 241
146 184
147 470
148 407
149 323
150 107
157 101
158 105
159 107
160 131
161 591
162 335
163 176
164 44
171 222
172 21
173 129
175 334
176 292
177 122
186 93
187 66
188 8
189 506
190 190
191 32
202 20
204 381
205 131

$$$$

     RDKit          2D

 22 23  0  0  1  0  0  0  0  0999 V2000
    3.8081    7.4000    0.0000 C   0  0  0  0  0  0  0  0  0  0  0  0
    3.8089    1.4002    0.0000 C   0  0  0  0  0  0  0  0  0  0  0  0
   -2.3541   -2.7492    0.0000 C   0  0  0  0  0  0  0  0  0  0  0  0
   -0.4259   -2.7492    0.0000 C   0  0  0  0  0  0  0  0  0  0  0  0
    1.9960    6.5595    0.0000 C   0  0  0  0  0  0  0  0  0  0  0  0
   -0.0900    2.1500    0.0000 C   0  0  0  0  0  0  0  0  0  0  0  0
    0.0676    6.0386    0.0000 C   0  0  0  0  0  0  0  0  0  0  0  0
    3.8081    5.9000    0.0000 C   0  0  0  0  0  0  0  0  0  0  0  0
   -2.6900    0.6500    0.0000 C   0  0  0  0  0  0  0  0  0  0  0  0
    2.5100   -0.8500    0.0000 C   0  0  0  0  0  0  0  0  0  0  0  0
    1.2100   -1.6000    0.0000 C   0  0  0  0  0  0  0  0  0  0  0  0
    1.2100    2.9000    0.0000 C   0  0  0  0  0  0  0  0  0  0  0  0
   -2.6900   -0.8500    0.0000 C   0  0  0  0  0  0  0  0  0  0  0  0
   -1.3900    1.4000    0.0000 C   0  0  0  0  0  0  0  0  0  0  0  0
    2.5090    3.6500    0.0000 C   0  0  0  0  0  0  0  0  0  0  0  0
    2.5100    0.6500    0.0000 C   0  0  0  0  0  0  0  0  0  0  0  0
    1.2100    1.4000    0.0000 C   0  0  0  0  0  0  0  0  0  0  0  0
   -0.0900   -0.8500    0.0000 C   0  0  0  0  0  0  0  0  0  0  0  0
   -1.3900   -1.6000    0.0000 C   0  0  0  0  0  0  0  0  0  0  0  0
    2.5090    5.1500    0.0000 C   0  0  0  0  0  0  0  0  0  0  0  0
   -0.0900    0.6500    0.0000 C   0  0  0  0  0  0  0  0  0  0  0  0
    1.0318    4.8895    0.0000 O   0  0  0  0  0  0  0  0  0  0  0  0
  8  1  2  0
 11 10  1  0
 13  9  1  0
 14  9  1  0
 15 12  1  0
 16  2  1  0
 16 10  2  0
 17 12  1  6
 17 16  1  0
 18 11  1  1
 19  3  1  0
 19  4  1  0
 19 13  1  0
 19 18  1  0
 20  5  1  1
 20  8  1  0
 20 15  1  0
 21  6  1  1
 21 14  1  0
 21 17  1  0
 21 18  1  0
 22  7  1  0
 20 22  1  0
M  END
>  <NAME>  (916) 
(13R)-13-METHOXYLABDA-7,14-DIENE

>  <SYNONYMS>  (916) 


>  <SPECTRUM TYPE>  (916) 
MS1

>  <INSTRUMENT TYPE>  (916) 
EI-B

>  <INSTRUMENT>  (916) 
HITACHI RMU-6L

>  <ION MODE>  (916) 
P

>  <INCHIKEY>  (916) 
ZWCHJTGMHXJGEA-KOUHRCEDSA-N

>  <FORMULA>  (916) 
C21H36O

>  <EXACT MASS>  (916) 
304.27661577199996

>  <MW>  (916) 
304

>  <ID>  (916) 
JP010673

>  <CONTRIBUTOR>  (916) 
University of Tokyo Team, {Faculty of Engineering, University of Tokyo

>  <COMMENT>  (916) 
SMILES=C=CC(C)(OC)CCC([H])(C(C)=2)C(C)(C1)C([H])(CC([H])2)C(C)(C)CC1
InChI=InChI=1S/C21H36O/c1-8-20(5,22-7)15-12-17-16(2)10-11-18-19(3,4)13-9-14-21(17,18)6/h8,10,17-18H,1,9,11-15H2,2-7H3/t17-,18+,20-,21-/m1/s1
computed SMILES=O(C)C(C=C)(C)CCC1C(=CCC2C(C)(C)CCCC12C)C
accession=JP010673
date=2016.01.19 (Created 2008.10.21, modified 2011.05.06)
author=EGUCHI S, FAC. OF SCIENCE, HIROSHIMA UNIV.
license=CC BY-NC-SA
exact mass=304.27662
ionization energy=70 eV
ion type=[M]+*
computed spectral entropy=3.7371269222697845
computed normalized entropy=0.8206473322023216
SPLASH=splash10-0udi-7940000000-fdb467e7a5122a4abffa
submitter=submitter = University of Tokyo Team (Faculty of Engineering, University of Tokyo)
MoNA Rating=3.75

>  <NUM PEAKS>  (916) 
95

>  <MASS SPECTRAL PEAKS>  (916) 
40 1
41 26.9
42 2.2
43 1.36
45 2.7
53 7
54 1.3
55 3.75
56 2.7
57 3.2
59 1.8
65 0.23
66 1.1
67 13.6
68 3.8
69 2.06
70 1.6
71 1.7
72 1.3
77 0.49
78 1.6
79 12
80 22.5
81 2.44
82 3.7
83 4.9
84 1.1
85 5.13
86 3.7
87 1.8
91 12
92 0.39
93 21.3
94 5.7
95 20.3
96 0.31
97 3.7
98 3
99 3.2
103 0.1
105 12.7
106 5.6
107 15.8
108 1.52
109 28.2
110 2.7
111 2.3
115 0.1
117 2.2
119 16.4
120 8.4
121 1.44
122 11.3
123 6.9
124 3.6
125 0.1
131 2.2
132 1.1
133 13.1
134 0.7
135 13.4
136 5.1
137 4.4
145 0.21
147 6.5
148 11.5
149 5.3
151 0.1
159 1.4
161 16
162 3.9
163 0.42
164 1.1
173 1.3
175 3.4
176 0.2
177 2.7
187 20.3
188 1
189 1.34
190 3.5
191 9.8
192 3.3
201 0.13
203 1.6
204 99.99
205 18.8
206 0.14
220 1
257 6.5
258 1.4
272 0.34
273 1.2
275 1.5
304 1.1

>  <PREDICTED SPECTRUM>  (916) 
26 13
27 89
28 38
29 163
30 3
31 9
32 22
39 183
40 75
41 514
42 108
43 340
44 85
45 246
46 29
50 21
51 83
52 53
53 221
54 115
55 492
56 161
57 260
58 8
59 131
60 33
61 22
62 0
63 50
64 40
65 180
66 80
67 358
68 178
69 470
70 112
71 250
72 63
73 62
74 2
75 43
76 7
77 292
78 136
79 341
80 272
81 472
82 178
83 235
84 125
85 138
86 44
87 74
88 22
89 75
91 349
92 251
93 410
94 243
95 400
96 127
97 193
98 87
99 148
100 124
101 92
102 30
103 138
104 77
105 354
106 185
107 439
108 281
109 544
110 96
111 104
112 58
113 67
115 38
116 73
117 154
118 65
119 318
120 268
121 311
122 169
123 252
124 68
125 59
127 122
128 67
129 95
130 39
131 127
132 96
133 423
134 157
135 393
136 203
137 105
138 38
139 29
141 0
142 5
143 163
144 87
145 171
146 85
147 375
148 387
149 220
150 58
152 8
159 144
160 114
161 368
162 187
163 104
166 28
173 35
175 184
176 101
177 279
178 140
179 28
180 117
181 26
182 7
187 248
188 58
189 268
190 153
191 416
192 229
201 27
202 57
203 165
204 999
205 508
206 74
215 100
216 91
217 90
218 68
219 30
233 7
243 13
257 243
258 127
259 77
272 77
287 3
289 17

$$$$

     RDKit          2D

 27 29  0  0  1  0  0  0  0  0999 V2000
   -7.0350    0.1854    0.0000 C   0  0  0  0  0  0  0  0  0  0  0  0
   -4.4937    0.7256    0.0000 C   0  0  0  0  0  0  0  0  0  0  0  0
   -4.3610   -6.1470    0.0000 C   0  0  0  0  0  0  0  0  0  0  0  0
    6.1919   -1.8813    0.0000 C   0  0  0  0  0  0  0  0  0  0  0  0
   -0.7702    1.2051    0.0000 C   0  0  0  0  0  0  0  0  0  0  0  0
    1.3681   -5.4024    0.0000 C   0  0  0  0  0  0  0  0  0  0  0  0
   -6.0994   -4.2162    0.0000 C   0  0  0  0  0  0  0  0  0  0  0  0
   -6.4113   -2.7490    0.0000 C   0  0  0  0  0  0  0  0  0  0  0  0
    1.9318   -0.9026    0.0000 C   0  0  0  0  0  0  0  0  0  0  0  0
    0.5699    0.0161    0.0000 C   0  0  0  0  0  0  0  0  0  0  0  0
   -0.1911   -4.3004    0.0000 C   0  0  0  0  0  0  0  0  0  0  0  0
   -5.6084   -0.2781    0.0000 C   0  0  0  0  0  0  0  0  0  0  0  0
   -4.6728   -4.6798    0.0000 C   0  0  0  0  0  0  0  0  0  0  0  0
    4.7147   -1.6209    0.0000 C   0  0  0  0  0  0  0  0  0  0  0  0
   -5.2966   -1.7453    0.0000 C   0  0  0  0  0  0  0  0  0  0  0  0
   -2.0663   -3.8328    0.0000 C   0  0  0  0  0  0  0  0  0  0  0  0
    2.2733   -2.5095    0.0000 C   0  0  0  0  0  0  0  0  0  0  0  0
   -3.5581   -3.6761    0.0000 C   0  0  0  0  0  0  0  0  0  0  0  0
   -3.8700   -2.2088    0.0000 C   0  0  0  0  0  0  0  0  0  0  0  0
   -2.5710   -1.4588    0.0000 C   0  0  0  0  0  0  0  0  0  0  0  0
   -1.0480   -0.2690    0.0000 C   0  0  0  0  0  0  0  0  0  0  0  0
    1.4028   -3.9028    0.0000 C   0  0  0  0  0  0  0  0  0  0  0  0
    4.2016   -0.2113    0.0000 O   0  0  0  0  0  0  0  0  0  0  0  0
   -2.3292    0.5111    0.0000 O   0  0  0  0  0  0  0  0  0  0  0  0
    2.8399   -4.3328    0.0000 O   0  0  0  0  0  0  0  0  0  0  0  0
    3.7505   -2.7700    0.0000 O   0  0  0  0  0  0  0  0  0  0  0  0
   -1.4562   -2.4625    0.0000 O   0  0  0  0  0  0  0  0  0  0  0  0
  8  7  1  0
 10  9  1  0
 12  1  1  0
 12  2  1  0
 13  3  1  0
 13  7  2  0
 14  4  1  0
 15  8  1  0
 15 12  1  6
 16 11  1  6
 17  9  1  0
 18 13  1  6
 18 16  1  0
 19 15  1  1
 19 18  1  0
 20 19  1  0
 21  5  1  1
 21 10  1  0
 21 20  1  0
 22  6  1  6
 22 11  1  0
 22 17  1  0
 23 14  2  0
 21 24  1  0
 22 25  1  0
 26 14  1  0
 17 26  1  6
 16 27  1  0
 20 27  1  6
M  END
>  <NAME>  (917) 
(1R(*),2R(*),3R(*),6S(*),7R(*),9R(*),10S(*),11Z,14R(*))-6-ACETOXYEUNICELLA-11-ENE-3,7-DIOL

>  <SYNONYMS>  (917) 


>  <SPECTRUM TYPE>  (917) 
MS1

>  <INSTRUMENT TYPE>  (917) 
EI-B

>  <INSTRUMENT>  (917) 
HITACHI RMU-6L

>  <ION MODE>  (917) 
P

>  <INCHIKEY>  (917) 
QTCWWOOKJDGITI-ZHPQPJTISA-N

>  <FORMULA>  (917) 
C22H36O5

>  <EXACT MASS>  (917) 
380.25627425199997

>  <MW>  (917) 
380

>  <ID>  (917) 
JP010671

>  <CONTRIBUTOR>  (917) 
University of Tokyo Team, {Faculty of Engineering, University of Tokyo

>  <COMMENT>  (917) 
SMILES=CC(=O)OC([H])(C2)C(C)(O)CC([H])(O1)C([H])(C(C)=3)C([H])(C([H])(C(C)C)CC([H])3)C([H])(C(C)(O)C2)1
InChI=InChI=1S/C22H36O5/c1-12(2)15-8-7-13(3)18-16-11-22(6,25)17(26-14(4)23)9-10-21(5,24)20(27-16)19(15)18/h7,12,15-20,24-25H,8-11H2,1-6H3/t15-,16-,17+,18+,19-,20-,21-,22+/m1/s1
computed SMILES=O=C(OC1CCC(O)(C)C2OC(CC1(O)C)C3C(=CCC(C(C)C)C23)C)C
accession=JP010671
date=2016.01.19 (Created 2008.10.21, modified 2011.05.06)
author=EGUCHI S, FAC. OF SCIENCE, HIROSHIMA UNIV.
license=CC BY-NC-SA
exact mass=380.25627
ionization energy=70 eV
ion type=[M]+*
computed spectral entropy=4.404284324111135
computed normalized entropy=0.8536997703400643
SPLASH=splash10-0006-7910000000-6cb7eda0d980866cd14d
submitter=submitter = University of Tokyo Team (Faculty of Engineering, University of Tokyo)
MoNA Rating=3.75

>  <NUM PEAKS>  (917) 
174

>  <MASS SPECTRAL PEAKS>  (917) 
41 35
42 4.1
43 99.99
44 0.82
45 12.3
53 8.2
54 1.6
55 3.36
56 4.1
57 15.6
58 13.9
59 0.41
60 3.3
61 2.4
65 4.1
66 0.16
67 11.5
68 3.3
69 22.1
70 0.33
71 40.1
72 3.3
73 1.6
74 0.16
77 12.3
78 3.3
79 20.5
80 0.74
81 24.5
82 4.9
83 19.7
84 0.49
85 20.5
86 3.3
87 3.3
91 2.21
92 27.9
93 80.3
94 22.1
95 3.69
96 5.7
97 11.5
98 4.1
99 1.64
100 3.3
101 9
105 36.9
106 1.48
107 38.5
108 14.8
109 18.9
110 0.74
111 9
112 2.5
113 5.7
114 0.16
115 3.3
116 1.6
117 4.1
118 0.16
119 16.4
120 4.9
121 19.7
122 1.07
123 13.1
124 4.9
125 8.2
126 0.49
127 37.7
128 30.3
129 5.7
130 0.25
131 11.5
132 3.3
133 13.9
134 0.82
135 16.4
136 24.6
137 13.1
138 0.41
139 4.9
140 3.3
141 4.9
142 0.16
143 4.1
144 3.3
145 9.8
146 2.46
147 21.3
148 11.5
149 18
150 3
151 5.7
152 1.6
153 4.1
154 0.16
155 5.7
156 1.5
157 8.2
158 0.25
159 5.5
160 3.3
161 8.2
162 0.49
163 8.2
164 4.1
165 5.7
166 0.5
167 7.5
168 1.5
169 1.5
171 0.41
172 1.6
173 3.3
174 1.6
175 0.49
176 6.5
177 27
178 14.8
179 0.98
180 1.6
183 4.9
184 1.6
185 0.24
186 2.4
187 9
188 2.5
189 0.57
190 3.3
191 3.3
192 3.3
193 0.33
194 5.7
195 11.5
196 1.6
197 0.16
198 1.6
201 4.1
202 1.6
203 0.33
204 26
205 5.7
206 1.6
213 0.25
214 1.6
215 2.5
218 6.6
219 0.33
220 1.6
221 3.3
222 2.4
223 0.16
225 4.1
226 1
241 3.3
242 0.16
259 4.9
260 1.6
264 17.2
265 0.49
266 1.6
282 12.3
283 3.3
284 0.16
302 9.8
303 4.1
304 3.3
305 0.16
320 1.9
321 1.2
362 1.9
363 0.08
380 1.2
381 0.4

>  <PREDICTED SPECTRUM>  (917) 
0 6
25 5
26 25
27 109
28 49
29 104
31 34
33 3
37 8
38 31
39 157
40 78
41 460
42 178
43 999
44 183
45 176
46 8
47 43
49 28
50 66
51 149
52 93
53 286
54 112
55 517
56 171
57 383
58 201
59 188
60 139
61 122
62 4
63 53
64 45
65 223
66 141
67 344
68 194
69 448
70 170
71 414
72 161
73 106
74 32
76 25
77 392
78 196
79 421
80 235
81 400
82 202
83 354
84 287
85 323
86 135
87 84
88 23
89 15
91 403
92 219
93 479
94 249
95 370
96 196
97 301
98 201
99 163
100 124
101 107
102 59
103 111
104 89
105 487
106 296
107 483
108 324
109 444
110 211
111 271
112 131
113 220
114 141
115 210
116 87
117 233
118 126
119 331
120 242
121 423
122 243
123 336
124 159
125 187
126 205
127 311
128 259
129 141
130 110
131 283
132 177
133 413
134 266
135 404
136 281
137 341
138 230
139 218
140 101
141 156
142 126
143 224
144 153
145 360
146 211
147 381
148 285
149 345
150 264
151 280
152 150
153 144
154 45
155 153
156 137
157 244
158 93
159 268
160 192
161 295
162 223
163 320
164 203
165 167
166 80
167 121
168 59
169 129
170 105
171 163
172 90
173 243
174 156
175 220
176 221
177 281
178 178
179 127
180 149
181 68
182 69
183 123
184 103
185 146
186 85
187 221
188 119
189 192
190 101
191 128
192 110
193 146
194 118
195 165
196 62
197 87
198 69
199 61
200 88
201 185
202 141
203 137
204 143
205 176
206 93
207 95
208 17
209 54
210 20
211 12
213 77
214 29
215 77
216 24
217 124
218 158
219 113
220 133
221 143
222 117
223 61
225 73
226 10
227 40
229 53
231 97
232 52
233 49
234 13
235 59
238 11
239 19
241 15
242 36
243 30
244 32
245 65
246 49
247 29
248 18
249 44
250 0
253 20
254 7
256 7
259 144
260 58
261 41
262 96
263 82
264 74
265 44
266 23
269 33
273 8
274 90
276 40
282 26
283 92
284 48
287 33
292 25
294 13
302 253
303 153
304 111
305 28
319 13
320 116
321 93
322 1
337 4
338 20
344 7
362 74
363 20
364 23
380 121
381 21

$$$$

     RDKit          2D

 24 26  0  0  1  0  0  0  0  0999 V2000
   -5.9271    2.1044    0.0000 C   0  0  0  0  0  0  0  0  0  0  0  0
   -3.3858    2.6446    0.0000 C   0  0  0  0  0  0  0  0  0  0  0  0
   -3.2531   -4.2280    0.0000 C   0  0  0  0  0  0  0  0  0  0  0  0
    0.3377    3.1240    0.0000 C   0  0  0  0  0  0  0  0  0  0  0  0
    2.4760   -3.4834    0.0000 C   0  0  0  0  0  0  0  0  0  0  0  0
   -4.9915   -2.2973    0.0000 C   0  0  0  0  0  0  0  0  0  0  0  0
   -5.3034   -0.8300    0.0000 C   0  0  0  0  0  0  0  0  0  0  0  0
    3.0397    1.0163    0.0000 C   0  0  0  0  0  0  0  0  0  0  0  0
    1.6778    1.9350    0.0000 C   0  0  0  0  0  0  0  0  0  0  0  0
    0.9168   -2.3814    0.0000 C   0  0  0  0  0  0  0  0  0  0  0  0
   -4.5005    1.6409    0.0000 C   0  0  0  0  0  0  0  0  0  0  0  0
   -3.5649   -2.7608    0.0000 C   0  0  0  0  0  0  0  0  0  0  0  0
   -4.1887    0.1737    0.0000 C   0  0  0  0  0  0  0  0  0  0  0  0
   -0.9584   -1.9139    0.0000 C   0  0  0  0  0  0  0  0  0  0  0  0
    3.3812   -0.5906    0.0000 C   0  0  0  0  0  0  0  0  0  0  0  0
   -2.4502   -1.7571    0.0000 C   0  0  0  0  0  0  0  0  0  0  0  0
   -2.7621   -0.2899    0.0000 C   0  0  0  0  0  0  0  0  0  0  0  0
   -1.4630    0.4601    0.0000 C   0  0  0  0  0  0  0  0  0  0  0  0
    0.0599    1.6500    0.0000 C   0  0  0  0  0  0  0  0  0  0  0  0
    2.5108   -1.9838    0.0000 C   0  0  0  0  0  0  0  0  0  0  0  0
    4.8584   -0.8510    0.0000 O   0  0  0  0  0  0  0  0  0  0  0  0
   -1.2213    2.4301    0.0000 O   0  0  0  0  0  0  0  0  0  0  0  0
    3.9478   -2.4139    0.0000 O   0  0  0  0  0  0  0  0  0  0  0  0
   -0.3483   -0.5436    0.0000 O   0  0  0  0  0  0  0  0  0  0  0  0
  7  6  1  0
  9  8  1  0
 11  1  1  0
 11  2  1  0
 12  3  1  0
 12  6  2  0
 13  7  1  0
 13 11  1  6
 14 10  1  6
 15  8  1  0
 16 12  1  6
 16 14  1  0
 17 13  1  1
 17 16  1  0
 18 17  1  0
 19  4  1  1
 19  9  1  0
 19 18  1  0
 20  5  1  6
 20 10  1  0
 20 15  1  0
 15 21  1  6
 19 22  1  0
 20 23  1  0
 14 24  1  0
 18 24  1  6
M  END
>  <NAME>  (918) 
(1R(*),2R(*),3R(*),6S(*),7R(*),9R(*),10S(*),11Z,14R(*))-EUNICELLA-11-ENE-3,6,7-TRIOL

>  <SYNONYMS>  (918) 


>  <SPECTRUM TYPE>  (918) 
MS1

>  <INSTRUMENT TYPE>  (918) 
EI-B

>  <INSTRUMENT>  (918) 
HITACHI RMU-6L

>  <ION MODE>  (918) 
P

>  <INCHIKEY>  (918) 
DTXAQQMHPCOLBL-IIYNAOSSSA-N

>  <FORMULA>  (918) 
C20H34O4

>  <EXACT MASS>  (918) 
338.245709568

>  <MW>  (918) 
338

>  <ID>  (918) 
JP010670

>  <CONTRIBUTOR>  (918) 
University of Tokyo Team, {Faculty of Engineering, University of Tokyo

>  <COMMENT>  (918) 
SMILES=CC(C)C([H])(C3)C([H])(C([H])21)C([H])(C(C)=C([H])3)C([H])(CC(C)(O)C([H])(O)CCC(C)(O)2)O1
InChI=InChI=1S/C20H34O4/c1-11(2)13-7-6-12(3)16-14-10-20(5,23)15(21)8-9-19(4,22)18(24-14)17(13)16/h6,11,13-18,21-23H,7-10H2,1-5H3/t13-,14-,15+,16+,17-,18-,19-,20+/m1/s1
computed SMILES=OC1CCC(O)(C)C2OC(CC1(O)C)C3C(=CCC(C(C)C)C23)C
accession=JP010670
date=2016.01.19 (Created 2008.10.21, modified 2011.05.06)
author=EGUCHI S, FAC. OF SCIENCE, HIROSHIMA UNIV.
license=CC BY-NC-SA
exact mass=338.24571
ionization energy=70 eV
ion type=[M]+*
computed spectral entropy=4.341441752063339
computed normalized entropy=0.8472818641025941
SPLASH=splash10-0006-9810000000-ef69ee60cb543aafe142
submitter=submitter = University of Tokyo Team (Faculty of Engineering, University of Tokyo)
MoNA Rating=3.75

>  <NUM PEAKS>  (918) 
168

>  <MASS SPECTRAL PEAKS>  (918) 
41 27
42 2.3
43 99.99
44 0.46
45 9.7
47 4.6
48 1.5
49 0.21
53 6.2
54 1.3
55 25
56 0.28
57 13
58 9.7
59 4.6
60 0.18
61 1.3
65 3.1
66 1.3
67 0.87
68 2.4
69 17
70 2.7
71 2.5
72 2.8
73 2.6
74 2
77 1
78 2.3
79 14
80 4.9
81 1.9
82 4
83 15
84 17
85 3.7
86 3
87 3.6
88 0.8
91 1.83
92 18
93 58
94 13
95 2.4
96 4.7
97 8.5
98 3.9
99 1.3
100 2
101 22
102 1.8
103 0.18
104 1.4
105 25
106 7
107 2.8
108 12
109 13.5
110 3.5
111 0.59
112 1.5
113 2.8
115 2.5
116 0.13
117 3.5
118 1.5
119 10
120 0.38
121 12
122 14
123 9
124 0.28
125 6.7
126 4.6
127 27.7
128 2.9
129 5.4
130 1.5
131 6.4
132 0.21
133 8.2
134 4.6
135 11
136 1.65
137 10
138 2.9
139 2.7
140 0.15
141 7.1
142 1.7
143 2.8
144 0.14
145 5.1
146 3.8
147 11.4
148 0.46
149 15.6
150 13.2
151 4.2
152 0.13
153 7.6
154 1.4
155 3.5
156 0.9
157 3.3
159 4
160 2.1
161 0.47
162 2.6
163 5
164 2.5
165 0.31
166 4.4
167 5.3
168 0.12
171 3.6
173 2.6
174 1.1
175 0.33
176 2.9
177 6.2
178 9.4
179 1.44
180 2.3
183 3.1
184 1.4
185 0.21
187 1.1
188 1.4
189 3.1
190 0.16
191 2.1
192 2.9
193 3.1
194 0.18
195 9.8
196 1.8
201 2.1
203 0.16
204 2.1
205 2.2
206 1.4
217 0.14
218 3.1
219 3.5
221 2.6
222 0.13
223 3.2
232 4.2
233 1.5
234 0.26
235 7.3
236 2.1
237 7.4
238 0.16
241 1
244 0.8
259 1.8
260 0.06
262 2.6
263 1
277 2.1
278 0.06
302 3.6
303 1.2
320 5.7
321 0.22
323 0.6

>  <PREDICTED SPECTRUM>  (918) 
26 5
27 117
28 26
29 104
31 59
38 16
39 181
40 96
41 585
42 188
43 999
44 207
45 168
46 5
47 71
49 36
50 68
51 143
52 82
53 313
54 122
55 525
56 129
57 265
58 206
59 256
60 112
61 88
62 31
63 56
64 42
65 243
66 142
67 372
68 172
69 490
70 148
71 443
72 189
73 152
74 96
75 37
76 60
77 372
78 140
79 427
80 219
81 443
82 216
83 267
84 250
85 334
86 164
87 130
88 32
91 407
92 189
93 518
94 220
95 354
96 157
97 266
98 153
99 266
100 141
101 136
102 43
103 116
104 85
105 437
106 242
107 500
108 284
109 445
110 210
111 220
112 132
113 270
114 122
115 214
116 101
117 203
118 96
119 302
120 175
121 457
122 266
123 334
124 166
125 236
126 312
127 323
128 219
129 160
130 83
131 198
132 113
133 326
134 217
135 329
136 212
137 259
138 167
139 209
140 122
141 197
142 146
143 169
144 118
145 329
146 114
147 276
148 167
149 299
150 247
151 243
152 170
153 218
154 104
155 152
156 85
157 142
158 104
159 205
160 144
161 189
162 171
163 273
164 154
165 175
166 113
167 130
168 36
169 93
170 69
171 157
172 41
173 139
174 53
175 176
176 147
177 246
178 159
179 154
180 90
181 174
182 68
183 157
184 90
185 75
186 26
187 150
188 80
189 152
190 99
191 156
192 91
193 156
194 95
195 230
196 82
197 62
198 41
201 23
202 62
203 164
204 117
205 146
206 60
207 85
208 48
209 62
211 103
213 31
214 0
215 11
217 84
218 42
219 118
220 67
221 203
222 70
223 69
224 13
230 9
231 87
232 126
233 192
234 63
235 146
236 69
238 54
239 54
240 78
241 112
242 13
245 63
246 47
247 5
248 14
250 33
253 0
254 17
258 2
259 137
260 67
261 34
262 120
276 11
277 159
280 10
287 69
288 67
295 5
302 176
303 55
304 11
305 62
306 57
320 106
321 94
338 63
339 7

$$$$

     RDKit          2D

 24 26  0  0  1  0  0  0  0  0999 V2000
   -4.0556    0.1406    0.0000 C   0  0  0  0  0  0  0  0  0  0  0  0
    0.6709   -0.0242    0.0000 C   0  0  0  0  0  0  0  0  0  0  0  0
   -4.0556    5.3284    0.0000 C   0  0  0  0  0  0  0  0  0  0  0  0
    0.2916    2.6372    0.0000 C   0  0  0  0  0  0  0  0  0  0  0  0
   -1.0554    0.1395    0.0000 C   0  0  0  0  0  0  0  0  0  0  0  0
   -2.5554    0.1395    0.0000 C   0  0  0  0  0  0  0  0  0  0  0  0
   -4.8054    1.4395    0.0000 C   0  0  0  0  0  0  0  0  0  0  0  0
   -5.5554    2.7395    0.0000 C   0  0  0  0  0  0  0  0  0  0  0  0
   -1.0554    5.3295    0.0000 C   0  0  0  0  0  0  0  0  0  0  0  0
   -0.3054    1.4395    0.0000 C   0  0  0  0  0  0  0  0  0  0  0  0
   -2.5554    5.3295    0.0000 C   0  0  0  0  0  0  0  0  0  0  0  0
    1.1946    4.0295    0.0000 C   0  0  0  0  0  0  0  0  0  0  0  0
   -3.3054    1.4395    0.0000 C   0  0  0  0  0  0  0  0  0  0  0  0
   -0.4945    2.6749    0.0000 C   0  0  0  0  0  0  0  0  0  0  0  0
   -0.3054    4.0295    0.0000 C   0  0  0  0  0  0  0  0  0  0  0  0
   -4.8054    4.0295    0.0000 C   0  0  0  0  0  0  0  0  0  0  0  0
    1.9446    2.7295    0.0000 C   0  0  0  0  0  0  0  0  0  0  0  0
   -1.8054    2.0732    0.0000 C   0  0  0  0  0  0  0  0  0  0  0  0
   -3.3054    4.0295    0.0000 C   0  0  0  0  0  0  0  0  0  0  0  0
    1.1946    1.4395    0.0000 C   0  0  0  0  0  0  0  0  0  0  0  0
   -5.5534    5.3297    0.0000 O   0  0  0  0  0  0  0  0  0  0  0  0
   -1.8054    0.5732    0.0000 O   0  0  0  0  0  0  0  0  0  0  0  0
    2.6927    1.4316    0.0000 O   0  0  0  0  0  0  0  0  0  0  0  0
   -3.1162    2.6749    0.0000 O   0  0  0  0  0  0  0  0  0  0  0  0
  6  5  1  0
  8  7  1  0
 10  5  1  0
 11  9  1  0
 13  1  1  0
  6 13  2  3
 13  7  1  0
 14  2  2  0
 15  9  1  0
 15 12  1  6
 15 14  1  0
 16  8  1  0
 17 12  1  6
 18 14  1  0
 19  3  1  6
 19 11  1  0
 19 16  1  0
 20  4  1  6
 20 10  1  0
 20 17  1  0
 21 16  2  0
 22 18  2  0
 17 23  1  0
 23 20  1  0
 24 18  1  0
 24 19  1  0
M  END
>  <NAME>  (919) 
11-DEHYDROSINULARIOLIDE

>  <SYNONYMS>  (919) 


>  <SPECTRUM TYPE>  (919) 
MS1

>  <INSTRUMENT TYPE>  (919) 
EI-B

>  <INSTRUMENT>  (919) 
HITACHI RMU-6L

>  <ION MODE>  (919) 
P

>  <INCHIKEY>  (919) 
BCEKDLJRXSZZRB-RWQKAGTCSA-N

>  <FORMULA>  (919) 
C20H28O4

>  <EXACT MASS>  (919) 
332.198759376

>  <MW>  (919) 
332

>  <ID>  (919) 
JP010668

>  <CONTRIBUTOR>  (919) 
University of Tokyo Team, {Faculty of Engineering, University of Tokyo

>  <COMMENT>  (919) 
SMILES=CC(C2)=C([H])CCC(C)(O1)C([H])(CC([H])(C3)C(=C)C(=O)OC(C)(C3)C(=O)C2)1
InChI=InChI=1S/C20H28O4/c1-13-6-5-10-20(4)17(23-20)12-15-9-11-19(3,16(21)8-7-13)24-18(22)14(15)2/h6,15,17H,2,5,7-12H2,1,3-4H3/b13-6+/t15-,17+,19-,20+/m1/s1
computed SMILES=O=C1OC2(C(=O)CCC(=CCCC3(OC3CC(C1=C)CC2)C)C)C
computed InChI=InChI=1S/C20H28O4/c1-13-6-5-10-20(4)17(23-20)12-15-9-11-19(3,16(21)8-7-13)24-18(22)14(15)2/h6,15,17H,2,5,7-12H2,1,3-4H3/t15-,17+,19-,20+/m1/s1
accession=JP010668
date=2016.01.19 (Created 2008.10.21, modified 2011.05.06)
author=EGUCHI S, FAC. OF SCIENCE, HIROSHIMA UNIV.
license=CC BY-NC-SA
exact mass=332.19876
ionization energy=70 eV
ion type=[M]+*
computed spectral entropy=4.017529724539903
computed normalized entropy=0.8202656453933364
SPLASH=splash10-0006-9510000000-2ac984f5ce237924b642
submitter=submitter = University of Tokyo Team (Faculty of Engineering, University of Tokyo)
MoNA Rating=3.75

>  <NUM PEAKS>  (919) 
134

>  <MASS SPECTRAL PEAKS>  (919) 
41 41.7
42 4.2
43 99.99
44 0.46
45 2.9
51 1.7
52 1.7
53 1.58
54 4.6
55 22.1
56 2.5
57 0.46
58 3.3
65 5
66 3.3
67 4
68 17.1
69 18.8
70 2.1
71 0.54
77 7.5
78 2.1
79 17.9
80 0.42
81 29.2
82 11.3
83 5
84 0.21
85 2.9
91 7.1
92 2.1
93 1.29
94 7.1
95 13.8
96 7.1
97 0.54
98 2.1
99 1.7
105 6.7
106 0.38
107 13.8
108 7.5
109 11.7
110 1.33
111 4.2
117 1.7
119 9.2
120 0.33
121 7.5
122 5
123 7.5
124 0.29
125 2.5
131 2.5
133 5
134 0.33
135 13.8
136 4.2
137 7.1
138 0.38
139 2.9
140 1.7
145 5
146 0.21
147 9.6
148 5.4
149 7.5
150 0.38
151 4.6
152 2.1
159 4.2
160 0.21
161 5
162 3.3
163 7.1
164 0.33
165 4.2
166 2.1
167 2.1
171 0.1
173 2.5
174 1.7
175 3.3
176 0.25
177 5.4
178 2.1
179 2.1
180 0.21
185 1.7
187 3.8
188 1.7
189 0.25
190 2.1
191 2.9
192 2.1
193 0.21
200 1.3
201 2.1
203 3.3
204 0.17
205 3.8
206 2.5
207 1.3
208 0.13
213 1.3
215 1.7
217 1.3
218 0.13
219 2.5
220 2.1
221 3.8
228 0.13
229 1.3
231 1.7
232 2.1
233 0.17
234 1
235 1
243 1.7
249 0.13
261 1.7
271 1.3
274 1.7
275 0.1
276 4.6
277 1.7
286 1.7
289 0.13
304 1.3
314 1.3
315 1
317 0.1
332 2.1
333 0.8

>  <PREDICTED SPECTRUM>  (919) 
4 1
18 1
27 8
28 15
29 2
39 169
40 92
41 651
42 104
43 999
44 134
45 92
47 15
49 24
50 21
51 120
52 94
53 363
54 166
55 554
56 121
57 211
58 86
59 58
60 9
61 13
63 27
64 9
65 167
66 102
67 431
68 288
69 354
70 90
71 267
72 42
73 4
77 269
78 68
79 355
80 145
81 462
82 230
83 215
84 95
85 142
86 44
87 14
91 383
92 133
93 387
94 221
95 453
96 179
97 159
98 137
99 91
100 20
103 42
105 283
106 83
107 302
108 200
109 377
110 164
111 247
112 55
113 40
115 56
116 37
117 135
118 33
119 234
120 116
121 291
122 214
123 273
124 138
125 134
126 84
127 69
128 90
129 80
130 27
131 110
132 32
133 230
134 175
135 336
136 106
137 179
138 104
139 102
140 38
141 57
143 37
144 29
145 221
146 98
147 209
148 133
149 247
150 161
151 142
152 130
153 105
154 49
155 38
157 122
158 38
159 181
160 59
161 249
162 170
163 198
164 115
165 213
166 82
167 30
168 45
169 36
170 15
171 102
172 31
173 124
174 119
175 195
176 115
177 157
178 113
179 125
180 64
181 92
182 20
183 44
185 131
186 11
187 135
188 145
189 107
190 111
191 196
192 116
193 101
194 48
195 36
199 65
201 103
202 31
203 118
204 50
205 124
206 38
207 79
208 25
209 35
210 28
211 55
214 13
215 110
216 52
217 132
218 98
219 103
220 45
221 84
227 1
229 14
230 9
231 71
232 14
233 80
234 69
235 22
237 19
243 59
244 16
245 27
246 43
247 53
248 31
256 9
257 91
258 20
259 47
260 24
261 12
271 105
272 45
273 41
274 68
275 54
276 12
286 32
289 66
297 9
299 20
300 14
304 66
314 86
315 24
317 8
332 154
333 68

$$$$

     RDKit          2D

 24 26  0  0  1  0  0  0  0  0999 V2000
   -4.0556    0.1406    0.0000 C   0  0  0  0  0  0  0  0  0  0  0  0
    0.6709   -0.0242    0.0000 C   0  0  0  0  0  0  0  0  0  0  0  0
   -4.0556    5.3284    0.0000 C   0  0  0  0  0  0  0  0  0  0  0  0
    0.2916    2.6372    0.0000 C   0  0  0  0  0  0  0  0  0  0  0  0
   -1.0554    0.1395    0.0000 C   0  0  0  0  0  0  0  0  0  0  0  0
   -2.5554    0.1395    0.0000 C   0  0  0  0  0  0  0  0  0  0  0  0
   -4.8054    1.4395    0.0000 C   0  0  0  0  0  0  0  0  0  0  0  0
   -5.5554    2.7395    0.0000 C   0  0  0  0  0  0  0  0  0  0  0  0
   -1.0554    5.3295    0.0000 C   0  0  0  0  0  0  0  0  0  0  0  0
   -0.3054    1.4395    0.0000 C   0  0  0  0  0  0  0  0  0  0  0  0
   -2.5554    5.3295    0.0000 C   0  0  0  0  0  0  0  0  0  0  0  0
    1.1946    4.0295    0.0000 C   0  0  0  0  0  0  0  0  0  0  0  0
   -3.3054    1.4395    0.0000 C   0  0  0  0  0  0  0  0  0  0  0  0
   -0.4945    2.6749    0.0000 C   0  0  0  0  0  0  0  0  0  0  0  0
   -0.3054    4.0295    0.0000 C   0  0  0  0  0  0  0  0  0  0  0  0
   -4.8054    4.0295    0.0000 C   0  0  0  0  0  0  0  0  0  0  0  0
    1.9446    2.7295    0.0000 C   0  0  0  0  0  0  0  0  0  0  0  0
   -1.8054    2.0732    0.0000 C   0  0  0  0  0  0  0  0  0  0  0  0
   -3.3054    4.0295    0.0000 C   0  0  0  0  0  0  0  0  0  0  0  0
    1.1946    1.4395    0.0000 C   0  0  0  0  0  0  0  0  0  0  0  0
   -5.5534    5.3297    0.0000 O   0  0  0  0  0  0  0  0  0  0  0  0
   -1.8054    0.5732    0.0000 O   0  0  0  0  0  0  0  0  0  0  0  0
    2.6927    1.4316    0.0000 O   0  0  0  0  0  0  0  0  0  0  0  0
   -3.1162    2.6749    0.0000 O   0  0  0  0  0  0  0  0  0  0  0  0
  6  5  1  0
  8  7  1  0
 10  5  1  0
 11  9  1  0
 13  1  1  0
  6 13  2  3
 13  7  1  0
 14  2  2  0
 15  9  1  0
 15 12  1  6
 15 14  1  0
 16  8  1  0
 17 12  1  1
 18 14  1  0
 19  3  1  6
 19 11  1  0
 19 16  1  0
 20  4  1  6
 20 10  1  0
 20 17  1  0
 16 21  1  6
 22 18  2  0
 17 23  1  0
 23 20  1  0
 24 18  1  0
 24 19  1  0
M  END
>  <NAME>  (920) 
11-EPI-SINULARIOLIDE

>  <SYNONYMS>  (920) 


>  <SPECTRUM TYPE>  (920) 
MS1

>  <INSTRUMENT TYPE>  (920) 
EI-B

>  <INSTRUMENT>  (920) 
HITACHI RMU-6L

>  <ION MODE>  (920) 
P

>  <INCHIKEY>  (920) 
FONRUOAYELOHDC-PVYSAULZSA-N

>  <FORMULA>  (920) 
C20H30O4

>  <EXACT MASS>  (920) 
334.21440944

>  <MW>  (920) 
334

>  <ID>  (920) 
JP010667

>  <CONTRIBUTOR>  (920) 
University of Tokyo Team, {Faculty of Engineering, University of Tokyo

>  <COMMENT>  (920) 
SMILES=CC(C2)=C([H])CCC(C)(O1)C([H])(CC([H])(C3)C(=C)C(=O)OC(C)(C3)C([H])(O)C2)1
InChI=InChI=1S/C20H30O4/c1-13-6-5-10-20(4)17(23-20)12-15-9-11-19(3,16(21)8-7-13)24-18(22)14(15)2/h6,15-17,21H,2,5,7-12H2,1,3-4H3/b13-6-/t15-,16+,17-,19-,20+/m1/s1
computed SMILES=O=C1OC2(C)CCC(C1=C)CC3OC3(C)CCC=C(C)CCC2O
computed InChI=InChI=1S/C20H30O4/c1-13-6-5-10-20(4)17(23-20)12-15-9-11-19(3,16(21)8-7-13)24-18(22)14(15)2/h6,15-17,21H,2,5,7-12H2,1,3-4H3/t15-,16+,17-,19-,20+/m1/s1
accession=JP010667
date=2016.01.19 (Created 2008.10.21, modified 2011.05.06)
author=EGUCHI S, FAC. OF SCIENCE, HIROSHIMA UNIV.
license=CC BY-NC-SA
exact mass=334.21441
ionization energy=70 eV
ion type=[M]+*
computed spectral entropy=4.062541684184456
computed normalized entropy=0.8372869630253732
SPLASH=splash10-052f-9600000000-99397dbedc8a110cbb2d
submitter=submitter = University of Tokyo Team (Faculty of Engineering, University of Tokyo)
MoNA Rating=3.75

>  <NUM PEAKS>  (920) 
128

>  <MASS SPECTRAL PEAKS>  (920) 
41 44
42 4
43 99.99
44 1.05
45 6
51 2
52 2
53 2.1
54 5
55 37.5
56 4
57 0.9
58 5
59 2
60 1
65 0.6
66 4
67 28
68 16
69 2.1
70 3
71 14
72 3
73 0.2
77 12
78 2
79 22
80 0.8
81 39
83 12
84 11
85 0.7
87 1.5
91 16
92 4
93 3.5
94 12.5
95 26
96 7
97 1
98 3
99 3
105 14
106 0.6
107 21
108 15
109 20
110 0.7
111 12
112 2
113 2
117 0.3
118 2
119 15
120 6
121 1.7
122 8
123 12
124 7
125 0.55
127 2
129 2
131 5
132 0.2
133 11
134 7
135 15
136 0.7
137 11
139 8
141 2
143 0.2
145 6.5
146 3
147 11
148 0.5
149 9
151 9
152 5
153 0.3
154 1
155 2
157 2
159 0.5
160 2
161 9
162 3
163 0.8
165 24
166 5
167 3
171 0.2
173 3
174 4
177 6
178 0.3
179 3
181 2
185 2
187 0.3
189 3
190 1.5
191 4
192 0.25
193 4
195 1
200 1
201 0.2
203 3
205 6
207 2
208 0.1
209 2
217 3
218 2
219 0.4
237 2
255 1.1
259 1
270 0.1
273 1.4
283 1
288 1
298 0.14
301 1
316 2.4
334 14.6
335 3.6

>  <PREDICTED SPECTRUM>  (920) 
39 113
40 85
41 559
42 106
43 999
44 144
45 105
47 54
48 22
49 49
50 30
51 120
52 75
53 323
54 128
55 542
56 149
57 259
58 78
59 111
60 36
61 82
62 8
63 35
64 2
65 175
66 89
67 411
68 251
69 377
70 107
71 398
72 89
73 94
74 27
75 7
77 295
78 72
79 372
80 106
81 482
82 200
83 250
84 143
85 198
86 32
87 64
91 365
92 107
93 432
94 214
95 429
96 166
97 173
98 90
99 117
100 5
101 7
103 45
105 288
106 113
107 368
108 208
109 437
110 121
111 176
112 65
113 73
115 39
116 11
117 120
118 72
119 251
120 144
121 348
122 192
123 230
124 115
125 161
126 75
127 69
128 55
129 97
130 36
131 183
132 49
133 262
134 179
135 309
136 111
137 190
138 72
139 122
140 12
141 91
142 26
143 93
144 15
145 211
146 43
147 249
148 130
149 250
150 178
151 146
152 99
153 89
154 77
155 107
157 110
158 25
159 183
160 37
161 225
162 140
163 152
164 111
165 236
166 66
167 98
168 62
169 81
171 86
173 95
174 67
175 156
176 110
177 189
178 81
179 117
180 68
181 106
182 46
183 61
184 9
185 99
187 106
188 51
189 105
190 23
191 154
192 103
193 144
194 49
195 42
197 12
201 60
202 5
203 117
204 76
205 122
206 23
207 63
209 80
211 56
215 26
217 100
218 83
219 104
220 16
221 50
223 11
225 4
227 38
229 31
230 15
231 53
232 2
233 66
235 8
237 62
241 20
243 10
245 33
255 89
257 3
259 48
270 2
273 110
274 9
283 50
288 33
291 13
298 34
301 48
306 3
316 85
317 6
334 193
335 71

$$$$

     RDKit          2D

 24 26  0  0  1  0  0  0  0  0999 V2000
   -1.3000   -2.2500    0.0000 C   0  0  0  0  0  0  0  0  0  0  0  0
   -0.0023    4.5007    0.0000 C   0  0  0  0  0  0  0  0  0  0  0  0
   -5.7127    2.9096    0.0000 C   0  0  0  0  0  0  0  0  0  0  0  0
    3.4944    2.7042    0.0000 C   0  0  0  0  0  0  0  0  0  0  0  0
   -3.9000   -0.7500    0.0000 C   0  0  0  0  0  0  0  0  0  0  0  0
   -2.6000   -0.0000    0.0000 C   0  0  0  0  0  0  0  0  0  0  0  0
    0.0000    0.0000    0.0000 C   0  0  0  0  0  0  0  0  0  0  0  0
    1.3000   -0.7500    0.0000 C   0  0  0  0  0  0  0  0  0  0  0  0
    0.0000    1.5000    0.0000 C   0  0  0  0  0  0  0  0  0  0  0  0
   -5.2000   -0.0000    0.0000 C   0  0  0  0  0  0  0  0  0  0  0  0
    1.3000    2.2500    0.0000 C   0  0  0  0  0  0  0  0  0  0  0  0
   -2.6000    1.5000    0.0000 C   0  0  0  0  0  0  0  0  0  0  0  0
   -1.3000   -0.7500    0.0000 C   0  0  0  0  0  0  0  0  0  0  0  0
   -1.3011    3.7502    0.0000 C   0  0  0  0  0  0  0  0  0  0  0  0
   -1.3000    2.2500    0.0000 C   0  0  0  0  0  0  0  0  0  0  0  0
    2.6000   -0.0000    0.0000 C   0  0  0  0  0  0  0  0  0  0  0  0
   -3.9000    2.2500    0.0000 C   0  0  0  0  0  0  0  0  0  0  0  0
   -2.6000    4.5000    0.0000 C   0  0  0  0  0  0  0  0  0  0  0  0
   -5.2000    1.5000    0.0000 C   0  0  0  0  0  0  0  0  0  0  0  0
    2.6000    1.5000    0.0000 C   0  0  0  0  0  0  0  0  0  0  0  0
   -2.6000    6.0000    0.0000 O   0  0  0  0  0  0  0  0  0  0  0  0
   -6.6772    1.2397    0.0000 O   0  0  0  0  0  0  0  0  0  0  0  0
   -3.8989    3.7502    0.0000 O   0  0  0  0  0  0  0  0  0  0  0  0
    3.8990    0.7500    0.0000 O   0  0  0  0  0  0  0  0  0  0  0  0
  6  5  1  0
  8  7  1  0
 10  5  1  0
 11  9  1  0
 13  1  1  0
  6 13  2  0
 13  7  1  0
 14  2  1  1
 15  9  1  6
 15 12  1  0
 15 14  1  0
 16  8  1  1
 17 12  1  0
 18 14  1  0
 19  3  1  1
 19 10  1  0
 19 17  1  0
 20  4  1  1
 20 11  1  0
 20 16  1  0
 21 18  2  0
 19 22  1  0
 17 23  1  6
 23 18  1  0
 16 24  1  0
 24 20  1  0
M  END
>  <NAME>  (921) 
DIHYDROFLEXIBILIDE

>  <SYNONYMS>  (921) 


>  <SPECTRUM TYPE>  (921) 
MS1

>  <INSTRUMENT TYPE>  (921) 
EI-B

>  <INSTRUMENT>  (921) 
HITACHI RMU-6L

>  <ION MODE>  (921) 
P

>  <INCHIKEY>  (921) 
WDEIQHZSEQJHHX-DLJWBEQKSA-N

>  <FORMULA>  (921) 
C20H32O4

>  <EXACT MASS>  (921) 
336.230059504

>  <MW>  (921) 
336

>  <ID>  (921) 
JP010665

>  <CONTRIBUTOR>  (921) 
University of Tokyo Team, {Faculty of Engineering, University of Tokyo

>  <COMMENT>  (921) 
SMILES=CC(=C2)CCC([H])(O1)C(C)(CCC([H])(C(C)3)CC([H])(OC(=O)3)C(C)(O)CC2)1
InChI=InChI=1S/C20H32O4/c1-13-6-5-10-19(3,22)17-12-15(14(2)18(21)23-17)9-11-20(4)16(24-20)8-7-13/h6,14-17,22H,5,7-12H2,1-4H3/b13-6+/t14-,15+,16-,17+,19-,20-/m0/s1
computed SMILES=O=C1OC2CC(CCC3(OC3CCC(=CCCC2(O)C)C)C)C1C
accession=JP010665
date=2016.01.19 (Created 2008.10.21, modified 2011.05.06)
author=EGUCHI S, FAC. OF SCIENCE, HIROSHIMA UNIV.
license=CC BY-NC-SA
exact mass=336.23006
ionization energy=70 eV
ion type=[M]+*
computed spectral entropy=4.161917438208341
computed normalized entropy=0.8284268347821422
SPLASH=splash10-0006-9510000000-eb79b5114a3d08fc889b
submitter=submitter = University of Tokyo Team (Faculty of Engineering, University of Tokyo)
MoNA Rating=3.75

>  <NUM PEAKS>  (921) 
152

>  <MASS SPECTRAL PEAKS>  (921) 
41 45.5
42 5.5
43 99.99
44 0.55
45 9.1
53 12.7
54 5.5
55 4.36
56 4.5
57 8.2
58 6.4
59 0.27
65 3.6
66 1.8
67 20.9
68 1
69 19.1
70 3.6
71 14.5
72 0.27
77 6.4
78 1.8
79 12.7
80 0.45
81 30
82 10
83 7.3
84 0.36
85 5.5
91 6.4
92 3.6
93 2.36
94 14.5
95 27.3
96 7.3
97 1.27
98 4.5
99 2.7
105 5.5
106 0.27
107 16.4
108 10.9
109 20
110 0.73
111 10.9
112 2.7
113 9.1
119 0.91
120 5.5
121 12.7
122 5.5
123 1.27
124 9.1
125 8.2
126 3.6
131 0.27
132 1.4
133 7.3
134 3.6
135 0.91
136 4.5
137 7.3
138 5.5
139 0.73
140 1.8
141 1
145 3.6
146 0.18
147 5.5
148 1.8
149 5
150 0.36
151 8.2
152 3.6
153 3.2
159 0.36
160 1.8
161 5.5
162 1.8
163 0.36
164 4.5
165 7.3
166 3.6
167 0.55
168 1.8
169 2.7
173 2.7
174 0.1
175 2.7
176 1
177 5.5
178 0.36
179 4.5
180 1.8
187 1.8
188 0.1
189 1.8
190 1
191 2.7
192 0.18
193 2.7
194 1.8
195 4.5
196 0.18
197 1.8
201 1.8
203 1.6
204 0.11
205 2.5
206 1.4
207 2.7
208 0.14
209 3.6
210 2.1
211 1.6
215 0.11
217 1.6
219 2.3
220 1.1
221 0.18
223 1.8
227 1.4
229 1.4
231 0.14
233 1.6
234 1.1
235 2.3
236 0.11
237 1.8
244 1.1
245 2.3
247 0.18
257 1.4
260 1.4
261 1.8
262 0.11
263 1.1
272 1
275 1.8
276 0.1
279 1
285 1.1
290 1.6
293 0.1
300 1.4
303 1.6
308 1
318 0.36
319 1.4
321 1
336 1.6
337 0.7

>  <PREDICTED SPECTRUM>  (921) 
0 5
39 96
40 72
41 568
42 206
43 999
44 229
45 130
46 0
47 38
48 13
49 41
50 7
51 105
52 78
53 320
54 150
55 535
56 241
57 341
58 170
59 133
60 41
61 45
63 22
64 20
65 212
66 94
67 437
68 264
69 349
70 160
71 446
72 109
73 119
74 39
76 11
77 318
78 92
79 377
80 147
81 489
82 253
83 282
84 166
85 284
86 119
87 98
88 5
91 295
92 152
93 444
94 208
95 455
96 241
97 228
98 127
99 254
100 83
101 59
103 69
104 38
105 270
106 109
107 424
108 337
109 526
110 153
111 182
112 126
113 148
114 71
115 50
116 48
117 98
118 84
119 193
120 191
121 369
122 226
123 228
124 254
125 241
126 102
127 144
128 94
129 109
130 71
131 142
132 106
133 265
134 198
135 302
136 168
137 254
138 144
139 146
140 41
141 113
142 36
143 94
144 67
145 205
146 18
147 151
148 81
149 260
150 219
151 282
152 144
153 138
154 94
155 114
156 63
157 142
158 46
159 135
160 55
161 244
162 106
163 214
164 149
165 229
166 112
167 118
168 77
169 113
170 30
171 78
172 34
173 103
174 79
175 132
176 153
177 265
178 158
179 193
180 55
181 117
182 94
183 123
184 40
185 41
186 1
187 79
188 49
189 119
190 41
191 139
192 33
193 140
194 110
195 134
196 35
197 52
201 74
202 20
203 93
204 67
205 193
206 126
207 136
208 45
209 138
210 10
211 64
213 76
217 29
218 8
219 129
220 97
221 135
223 100
224 21
225 22
227 43
231 53
232 48
233 126
234 25
235 87
237 1
238 30
239 37
241 39
243 60
245 49
247 28
250 59
251 50
253 19
255 22
257 111
259 50
260 48
261 60
263 48
264 20
273 13
274 0
275 112
277 6
285 85
290 3
300 49
301 28
303 52
307 7
308 24
318 119
319 22
321 48
336 157
337 93
338 10

$$$$

     RDKit          2D

 24 26  0  0  1  0  0  0  0  0999 V2000
   -1.3000   -2.2500    0.0000 C   0  0  0  0  0  0  0  0  0  0  0  0
   -0.0023    4.5007    0.0000 C   0  0  0  0  0  0  0  0  0  0  0  0
   -5.7127    2.9096    0.0000 C   0  0  0  0  0  0  0  0  0  0  0  0
    3.4944    2.7042    0.0000 C   0  0  0  0  0  0  0  0  0  0  0  0
   -3.9000   -0.7500    0.0000 C   0  0  0  0  0  0  0  0  0  0  0  0
   -2.6000   -0.0000    0.0000 C   0  0  0  0  0  0  0  0  0  0  0  0
    0.0000    0.0000    0.0000 C   0  0  0  0  0  0  0  0  0  0  0  0
    1.3000   -0.7500    0.0000 C   0  0  0  0  0  0  0  0  0  0  0  0
    0.0000    1.5000    0.0000 C   0  0  0  0  0  0  0  0  0  0  0  0
   -5.2000   -0.0000    0.0000 C   0  0  0  0  0  0  0  0  0  0  0  0
    1.3000    2.2500    0.0000 C   0  0  0  0  0  0  0  0  0  0  0  0
   -2.6000    1.5000    0.0000 C   0  0  0  0  0  0  0  0  0  0  0  0
   -1.3000   -0.7500    0.0000 C   0  0  0  0  0  0  0  0  0  0  0  0
   -1.3011    3.7502    0.0000 C   0  0  0  0  0  0  0  0  0  0  0  0
   -1.3000    2.2500    0.0000 C   0  0  0  0  0  0  0  0  0  0  0  0
    2.6000   -0.0000    0.0000 C   0  0  0  0  0  0  0  0  0  0  0  0
   -3.9000    2.2500    0.0000 C   0  0  0  0  0  0  0  0  0  0  0  0
   -2.6000    4.5000    0.0000 C   0  0  0  0  0  0  0  0  0  0  0  0
   -5.2000    1.5000    0.0000 C   0  0  0  0  0  0  0  0  0  0  0  0
    2.6000    1.5000    0.0000 C   0  0  0  0  0  0  0  0  0  0  0  0
   -2.6000    6.0000    0.0000 O   0  0  0  0  0  0  0  0  0  0  0  0
   -6.6772    1.2397    0.0000 O   0  0  0  0  0  0  0  0  0  0  0  0
   -3.8989    3.7502    0.0000 O   0  0  0  0  0  0  0  0  0  0  0  0
    3.8990    0.7500    0.0000 O   0  0  0  0  0  0  0  0  0  0  0  0
  6  5  1  0
  8  7  1  0
 10  5  1  0
 11  9  1  0
 13  1  1  0
  6 13  2  0
 13  7  1  0
 14  2  2  0
 15  9  1  6
 15 12  1  0
 15 14  1  0
 16  8  1  1
 17 12  1  0
 18 14  1  0
 19  3  1  1
 19 10  1  0
 19 17  1  0
 20  4  1  1
 20 11  1  0
 20 16  1  0
 21 18  2  0
 19 22  1  0
 17 23  1  6
 23 18  1  0
 16 24  1  0
 24 20  1  0
M  END
>  <NAME>  (922) 
FLEXIBILIDE

>  <SYNONYMS>  (922) 


>  <SPECTRUM TYPE>  (922) 
MS1

>  <INSTRUMENT TYPE>  (922) 
EI-B

>  <INSTRUMENT>  (922) 
HITACHI RMU-6L

>  <ION MODE>  (922) 
P

>  <INCHIKEY>  (922) 
YKKJETNBRNDYKN-JZZWRREUSA-N

>  <FORMULA>  (922) 
C20H30O4

>  <EXACT MASS>  (922) 
334.21440944

>  <MW>  (922) 
334

>  <ID>  (922) 
JP010663

>  <CONTRIBUTOR>  (922) 
University of Tokyo Team, {Faculty of Engineering, University of Tokyo

>  <COMMENT>  (922) 
SMILES=CC(=C2)CCC([H])(O1)C(C)(CCC([H])(C(=C)3)CC([H])(OC(=O)3)C(C)(O)CC2)1
InChI=InChI=1S/C20H30O4/c1-13-6-5-10-19(3,22)17-12-15(14(2)18(21)23-17)9-11-20(4)16(24-20)8-7-13/h6,15-17,22H,2,5,7-12H2,1,3-4H3/b13-6+/t15-,16+,17-,19+,20+/m1/s1
computed SMILES=O=C1OC2CC(C1=C)CCC3(OC3CCC(=CCCC2(O)C)C)C
accession=JP010663
date=2016.01.19 (Created 2008.10.21, modified 2011.05.06)
author=EGUCHI S, FAC. OF SCIENCE, HIROSHIMA UNIV.
license=CC BY-NC-SA
exact mass=334.21441
ionization energy=70 eV
ion type=[M]+*
computed spectral entropy=4.081077936330559
computed normalized entropy=0.8223263552211649
SPLASH=splash10-052f-9500000000-9078b8432f9898718620
submitter=submitter = University of Tokyo Team (Faculty of Engineering, University of Tokyo)
MoNA Rating=3.75

>  <NUM PEAKS>  (922) 
143

>  <MASS SPECTRAL PEAKS>  (922) 
41 57.5
42 5.8
43 99.99
44 0.75
45 10.6
51 2.2
52 2.2
53 3.76
54 6.6
55 55.7
56 3.1
57 0.88
58 9.7
59 2.7
65 8.4
66 0.44
67 39.8
68 15
69 27
70 0.31
71 23.9
72 3.1
73 1.3
74 0.1
77 15
78 3.1
79 31.8
80 0.75
81 46.9
82 16.8
83 11.9
84 0.44
85 4.9
91 17.3
92 5.3
93 3.98
94 16.8
95 37.2
96 8
97 1.77
98 2.7
99 2.2
105 13.3
106 0.53
107 23.9
108 14.6
109 23
110 0.71
111 12.8
112 4
113 2.7
117 0.27
118 1.8
119 12.8
120 5.3
121 1.9
122 9.7
123 18.6
124 9.7
125 1.02
126 1.8
127 1.3
131 4.4
132 0.18
133 11.9
134 6.2
135 12.4
136 0.58
137 10.2
138 8.4
139 6.6
140 0.22
141 1.3
143 1.3
145 5.3
146 0.27
147 10.6
148 5.8
149 12.8
150 0.53
151 10.2
152 4
153 2.2
157 0.18
159 3.5
160 1.8
161 7.1
162 0.49
163 8
164 6.2
165 12.4
166 0.62
167 6.6
168 1.3
169 1.3
171 0.13
173 2.7
174 1.3
175 4.9
176 0.22
177 5.3
178 2.6
179 2.6
180 0.18
181 1.8
185 1.3
187 2.2
189 0.31
190 2.6
191 4
192 3.1
193 0.62
194 1.3
195 2.6
201 1.4
203 0.29
204 1.5
205 3.9
206 1.4
207 0.19
208 1.4
209 2.8
215 1.2
217 0.2
218 1.2
219 1.3
221 1.8
227 0.11
231 1.7
233 1.7
235 2
245 0.15
255 1
259 1.2
273 1.9
288 0.1
291 1
298 0.7
299 1
301 0.1
316 1.4
319 0.8
334 0.8

>  <PREDICTED SPECTRUM>  (922) 
39 170
40 98
41 617
42 152
43 999
44 165
45 85
46 6
47 19
48 8
49 31
50 32
51 127
52 97
53 351
54 154
55 585
56 241
57 276
58 77
59 114
60 27
61 24
63 33
64 11
65 212
66 118
67 486
68 303
69 407
70 150
71 398
72 86
73 82
74 25
76 13
77 328
78 92
79 420
80 149
81 540
82 280
83 305
84 183
85 196
86 57
87 63
91 357
92 164
93 453
94 289
95 516
96 252
97 221
98 121
99 112
100 2
103 51
104 18
105 300
106 119
107 408
108 261
109 568
110 168
111 202
112 100
113 77
116 4
117 101
118 80
119 272
120 199
121 321
122 251
123 334
124 185
125 162
126 113
127 78
128 55
129 84
130 41
131 125
132 76
133 255
134 199
135 318
136 183
137 257
138 182
139 185
140 25
141 63
142 20
143 69
145 179
146 47
147 255
148 184
149 291
150 192
151 260
152 198
153 145
154 105
155 109
157 85
158 8
159 173
160 54
161 233
162 169
163 246
164 166
165 278
166 115
167 140
168 95
169 77
171 69
173 88
174 72
175 182
176 150
177 230
178 123
179 187
180 136
181 144
182 68
183 42
184 18
185 80
186 9
187 98
188 51
189 72
190 8
191 196
192 142
193 174
194 71
195 106
199 6
201 96
202 32
203 113
204 88
205 117
206 23
207 73
208 16
209 83
210 26
211 62
215 31
217 82
218 68
219 119
220 94
221 66
223 33
229 56
230 65
231 52
233 98
235 11
237 29
239 21
245 29
247 6
248 22
255 57
259 63
260 5
273 121
275 28
276 28
288 16
298 30
301 16
316 97
317 8
334 157
335 63

$$$$

     RDKit          2D

 28 29  0  0  1  0  0  0  0  0999 V2000
    1.6002    4.4689    0.0000 C   0  0  0  0  0  0  0  0  0  0  0  0
   -4.4002   -0.7189    0.0000 C   0  0  0  0  0  0  0  0  0  0  0  0
   -2.1504    5.7681    0.0000 C   0  0  0  0  0  0  0  0  0  0  0  0
    5.3461   -2.0226    0.0000 C   0  0  0  0  0  0  0  0  0  0  0  0
    1.6002   -0.7189    0.0000 C   0  0  0  0  0  0  0  0  0  0  0  0
    2.3500    3.1700    0.0000 C   0  0  0  0  0  0  0  0  0  0  0  0
   -4.4000    1.8800    0.0000 C   0  0  0  0  0  0  0  0  0  0  0  0
   -3.6500    3.1700    0.0000 C   0  0  0  0  0  0  0  0  0  0  0  0
    3.1000    1.8700    0.0000 C   0  0  0  0  0  0  0  0  0  0  0  0
   -1.4000   -0.7200    0.0000 C   0  0  0  0  0  0  0  0  0  0  0  0
    0.1000   -0.7200    0.0000 C   0  0  0  0  0  0  0  0  0  0  0  0
    0.1000    4.4700    0.0000 C   0  0  0  0  0  0  0  0  0  0  0  0
   -4.4002    4.4687    0.0000 C   0  0  0  0  0  0  0  0  0  0  0  0
    0.8500    3.1700    0.0000 C   0  0  0  0  0  0  0  0  0  0  0  0
   -3.6500    0.5800    0.0000 C   0  0  0  0  0  0  0  0  0  0  0  0
   -2.9002    4.4689    0.0000 C   0  0  0  0  0  0  0  0  0  0  0  0
    4.5980   -0.7224    0.0000 C   0  0  0  0  0  0  0  0  0  0  0  0
   -2.1500    3.1700    0.0000 C   0  0  0  0  0  0  0  0  0  0  0  0
   -1.4000    4.4700    0.0000 C   0  0  0  0  0  0  0  0  0  0  0  0
   -2.1500    0.5800    0.0000 C   0  0  0  0  0  0  0  0  0  0  0  0
    2.3500    0.5800    0.0000 C   0  0  0  0  0  0  0  0  0  0  0  0
    0.8500    0.5800    0.0000 C   0  0  0  0  0  0  0  0  0  0  0  0
   -5.1504    5.7676    0.0000 O   0  0  0  0  0  0  0  0  0  0  0  0
    5.3500    0.5755    0.0000 O   0  0  0  0  0  0  0  0  0  0  0  0
   -0.6498    3.1711    0.0000 O   0  0  0  0  0  0  0  0  0  0  0  0
    3.0980   -0.7202    0.0000 O   0  0  0  0  0  0  0  0  0  0  0  0
   -1.3998    1.8783    0.0000 O   0  0  0  0  0  0  0  0  0  0  0  0
    0.0998    1.8783    0.0000 O   0  0  0  0  0  0  0  0  0  0  0  0
  8  7  1  0
  9  6  1  0
 11 10  1  0
 14  1  1  0
 14  6  1  0
 12 14  2  3
 15  2  1  0
  7 15  2  0
 16  3  2  0
 16 13  1  0
 17  4  1  0
 18  8  1  0
 18 16  1  6
 19 12  1  0
 19 18  1  0
 20 10  1  0
 20 15  1  0
 21  9  1  0
 22  5  1  6
 22 11  1  0
 22 21  1  0
 23 13  1  0
 24 17  2  0
 19 25  1  1
 26 17  1  0
 21 26  1  6
 27 20  1  0
 28 22  1  0
 28 27  1  0
M  END
>  <NAME>  (923) 
(1S,2S,3E,7S,8R,11S,12Z)-7-ACETOXY-2,17-DIHYDROXY-8,11-EPIDIOXYCEMBRA-3,12,15-TRIENE

>  <SYNONYMS>  (923) 


>  <SPECTRUM TYPE>  (923) 
MS1

>  <INSTRUMENT TYPE>  (923) 
EI-B

>  <INSTRUMENT>  (923) 
HITACHI RMU-6L

>  <ION MODE>  (923) 
P

>  <INCHIKEY>  (923) 
PAOCQIUKPAMWJR-GPLAYYROSA-N

>  <FORMULA>  (923) 
C22H34O6

>  <EXACT MASS>  (923) 
394.235538808

>  <MW>  (923) 
394

>  <ID>  (923) 
JP010662

>  <CONTRIBUTOR>  (923) 
University of Tokyo Team, {Faculty of Engineering, University of Tokyo

>  <COMMENT>  (923) 
SMILES=OCC(=C)C([H])(C1)C([H])(O)C([H])=C(C)CCC([H])(OC(C)=O)C(C)(C2)OOC([H])(C2)C(C)=C([H])1
InChI=InChI=1S/C22H34O6/c1-14-6-9-21(26-17(4)24)22(5)11-10-20(27-28-22)15(2)7-8-18(16(3)13-23)19(25)12-14/h7,12,18-21,23,25H,3,6,8-11,13H2,1-2,4-5H3/b14-12+,15-7-/t18-,19-,20?,21-,22+/m0/s1
computed SMILES=O=C(OC1CCC(=CC(O)C(C(=C)CO)CC=C(C)C2OOC1(C)CC2)C)C
computed InChI=InChI=1S/C22H34O6/c1-14-6-9-21(26-17(4)24)22(5)11-10-20(27-28-22)15(2)7-8-18(16(3)13-23)19(25)12-14/h7,12,18-21,23,25H,3,6,8-11,13H2,1-2,4-5H3/b14-12?,15-7-/t18-,19-,20?,21-,22+/m0/s1
accession=JP010662
date=2016.01.19 (Created 2008.10.21, modified 2011.05.06)
author=EGUCHI S, FAC. OF SCIENCE, HIROSHIMA UNIV.
license=CC BY-NC-SA
exact mass=394.23554
ionization energy=70 eV
ion type=[M]+*
computed spectral entropy=3.8639778022198956
computed normalized entropy=0.8029571431331542
SPLASH=splash10-0006-9400000000-2a0ef2b7141814349ed0
submitter=submitter = University of Tokyo Team (Faculty of Engineering, University of Tokyo)
MoNA Rating=3.75

>  <NUM PEAKS>  (923) 
123

>  <MASS SPECTRAL PEAKS>  (923) 
40 2.4
41 23.2
42 3.2
43 99.99
44 4
45 3.6
47 2
50 0.12
51 2.4
52 1.6
53 9.6
54 0.32
55 20.8
56 4
57 6.4
58 0.16
59 1.2
60 1.6
61 1.2
65 0.4
66 2.4
67 9.6
68 3.2
69 0.88
70 1.6
71 9.6
72 1.2
77 0.88
78 3.2
79 15.5
80 4.8
81 2.48
82 7.2
83 12.8
84 16
85 0.56
86 1.6
87 1.6
91 14
92 0.36
93 13.6
94 3.2
95 16.8
96 0.44
97 11.2
98 2
99 20.8
100 0.24
101 2.8
103 1.6
105 8.4
106 0.4
107 12.4
108 5.6
109 10.4
110 0.32
111 4.8
112 1.2
113 2.4
115 0.16
117 2.8
118 2
119 4.8
120 0.28
121 6.4
122 2.8
123 4
124 0.24
125 2.8
126 1.6
127 5.6
128 0.2
130 1.2
131 4
132 2.4
133 0.48
134 2.8
135 6.8
136 5.6
137 0.32
138 1.6
139 2
141 1.2
142 0.12
143 1.6
144 1.2
145 3.2
146 0.16
147 4.4
148 2.8
149 5.2
150 0.2
151 2
152 1.6
153 8.8
154 0.2
155 2
157 1.2
159 1.6
161 0.16
162 1.6
163 1.6
164 1.2
165 0.16
167 1.2
169 3.2
175 1.6
189 0.16
190 1.2
191 1.2
193 1.2
207 0.17
208 0.8
209 0.5
213 1.1
214 0.03
215 0.5
225 0.5
253 0.6
316 0.05
358 0.2
376 0.5
394 0.3

>  <PREDICTED SPECTRUM>  (923) 
26 9
27 32
28 14
29 64
31 36
39 95
40 55
41 430
42 93
43 999
44 168
45 117
47 83
48 26
49 16
50 40
51 106
52 47
53 258
54 88
55 419
56 121
57 187
58 58
59 92
60 76
61 114
62 10
63 37
64 21
65 121
66 60
67 317
68 169
69 344
70 63
71 265
72 57
74 31
77 184
78 78
79 300
80 90
81 316
82 178
83 207
84 329
85 139
86 46
87 12
91 397
92 79
93 433
94 239
95 352
96 173
97 290
98 127
99 97
100 3
103 42
105 256
106 131
107 277
108 145
109 231
110 41
111 157
112 110
113 61
114 8
115 74
116 4
117 104
118 52
119 279
120 84
121 276
122 192
123 165
124 33
125 72
126 115
127 41
128 50
129 31
131 170
132 64
133 251
134 109
135 258
136 160
137 51
138 132
139 80
140 7
141 40
142 20
143 78
144 30
145 197
146 51
147 163
148 43
149 79
150 82
151 94
152 103
153 121
154 22
155 63
156 26
157 132
158 17
159 92
160 60
161 113
162 41
163 45
164 31
165 41
167 1
168 14
169 24
170 6
171 61
173 57
174 35
175 91
176 32
177 51
178 39
179 32
180 30
181 17
182 44
185 13
186 2
187 63
191 44
193 0
195 26
197 1
199 9
201 8
205 7
207 6
209 70
214 9
215 4
217 16
219 16
221 4
223 28
237 49
238 16
241 3
245 6
251 1
262 9
264 11
265 39
301 30
334 61
376 22
394 33

$$$$

     RDKit          2D

 27 29  0  0  1  0  0  0  0  0999 V2000
    3.0980   -0.7202    0.0000 C   0  0  0  0  0  0  0  0  0  0  0  0
   -5.9000    1.8825    0.0000 C   0  0  0  0  0  0  0  0  0  0  0  0
   -3.2901   -2.6101    0.0000 C   0  0  0  0  0  0  0  0  0  0  0  0
    0.8506    8.3670    0.0000 C   0  0  0  0  0  0  0  0  0  0  0  0
   -0.8729    5.8743    0.0000 C   0  0  0  0  0  0  0  0  0  0  0  0
    3.1000    1.8700    0.0000 C   0  0  0  0  0  0  0  0  0  0  0  0
   -3.6500    0.5800    0.0000 C   0  0  0  0  0  0  0  0  0  0  0  0
   -2.1500    0.5800    0.0000 C   0  0  0  0  0  0  0  0  0  0  0  0
    0.8500    3.1700    0.0000 C   0  0  0  0  0  0  0  0  0  0  0  0
   -3.9656    4.7662    0.0000 C   0  0  0  0  0  0  0  0  0  0  0  0
   -2.6253    5.5406    0.0000 C   0  0  0  0  0  0  0  0  0  0  0  0
    0.8500    0.5800    0.0000 C   0  0  0  0  0  0  0  0  0  0  0  0
    2.3500    0.5800    0.0000 C   0  0  0  0  0  0  0  0  0  0  0  0
   -4.4000    1.8800    0.0000 C   0  0  0  0  0  0  0  0  0  0  0  0
   -1.8635   -2.1466    0.0000 C   0  0  0  0  0  0  0  0  0  0  0  0
    0.1004    7.0681    0.0000 C   0  0  0  0  0  0  0  0  0  0  0  0
   -1.4000   -0.7200    0.0000 C   0  0  0  0  0  0  0  0  0  0  0  0
   -3.6500    3.1700    0.0000 C   0  0  0  0  0  0  0  0  0  0  0  0
    0.1000   -0.7200    0.0000 C   0  0  0  0  0  0  0  0  0  0  0  0
    0.1000    4.4700    0.0000 C   0  0  0  0  0  0  0  0  0  0  0  0
   -0.6500   -3.0283    0.0000 C   0  0  0  0  0  0  0  0  0  0  0  0
   -1.4000    4.4700    0.0000 C   0  0  0  0  0  0  0  0  0  0  0  0
   -1.3996    7.0683    0.0000 O   0  0  0  0  0  0  0  0  0  0  0  0
   -0.6500   -4.5283    0.0000 O   0  0  0  0  0  0  0  0  0  0  0  0
    0.8502    5.7689    0.0000 O   0  0  0  0  0  0  0  0  0  0  0  0
    0.5635   -2.1466    0.0000 O   0  0  0  0  0  0  0  0  0  0  0  0
   -2.1500    3.1700    0.0000 O   0  0  0  0  0  0  0  0  0  0  0  0
  8  7  1  0
  9  6  1  0
 11 10  1  0
 13  1  1  0
 13  6  1  0
 12 13  2  0
 14  2  1  0
  7 14  2  0
 15  3  2  0
 16  4  1  0
 17  8  1  6
 17 15  1  0
 18 10  2  0
 18 14  1  0
 19 12  1  6
 19 17  1  0
 20  9  1  0
 21 15  1  0
 22  5  1  0
 22 11  1  0
 22 20  1  0
 23 16  2  0
 24 21  2  0
 25 16  1  0
 20 25  1  1
 19 26  1  0
 26 21  1  0
 27 18  1  0
 27 22  1  0
M  END
>  <NAME>  (924) 
(1S,2S,3E,7S,8R,10E,12Z)-7-ACETOXY-8,11-EPOXYCEMBRA-3,10,12,15-TETRAEN-17,2-OLIDE

>  <SYNONYMS>  (924) 


>  <SPECTRUM TYPE>  (924) 
MS1

>  <INSTRUMENT TYPE>  (924) 
EI-B

>  <INSTRUMENT>  (924) 
HITACHI RMU-6L

>  <ION MODE>  (924) 
P

>  <INCHIKEY>  (924) 
XVOSSVQHIXQCPL-AHLZJXBASA-N

>  <FORMULA>  (924) 
C22H28O5

>  <EXACT MASS>  (924) 
372.193673996

>  <MW>  (924) 
372

>  <ID>  (924) 
JP010661

>  <CONTRIBUTOR>  (924) 
University of Tokyo Team, {Faculty of Engineering, University of Tokyo

>  <COMMENT>  (924) 
SMILES=CC(=O)OC([H])(C2)C(C)(C1)OC(C(C)=C([H])CC([H])(C(=C)3)C([H])(OC(=O)3)C([H])=C(C)C2)=C([H])1
InChI=InChI=1S/C22H28O5/c1-13-6-9-20(25-16(4)23)22(5)11-10-18(27-22)14(2)7-8-17-15(3)21(24)26-19(17)12-13/h7,10,12,17,19-20H,3,6,8-9,11H2,1-2,4-5H3/b13-12+,14-7-/t17-,19-,20-,22?/m0/s1
computed SMILES=O=C1OC2C=C(C)CCC(OC(=O)C)C3(OC(=CC3)C(=CCC2C1=C)C)C
accession=JP010661
date=2016.01.19 (Created 2008.10.21, modified 2011.05.06)
author=EGUCHI S, FAC. OF SCIENCE, HIROSHIMA UNIV.
license=CC BY-NC-SA
exact mass=372.19367
ionization energy=70 eV
ion type=[M]+*
computed spectral entropy=4.4173842716219
computed normalized entropy=0.844445144455446
SPLASH=splash10-0006-9821000000-39135b76e29dd9e03493
submitter=submitter = University of Tokyo Team (Faculty of Engineering, University of Tokyo)
MoNA Rating=3.75

>  <NUM PEAKS>  (924) 
187

>  <MASS SPECTRAL PEAKS>  (924) 
40 3
41 32
42 3.3
43 99.99
44 4.7
45 2.7
47 2
51 0.4
52 2.3
53 16
54 4.7
55 2.23
56 3.3
57 6.7
59 1.7
61 0.17
63 2
65 8.7
66 3.3
67 1.1
68 2.7
69 8.7
70 2
71 0.47
77 20.7
78 5.3
79 16.7
80 0.53
81 13.3
82 6
83 6
84 0.43
85 3.3
86 2
91 30.7
92 0.93
93 16.7
94 5.7
95 10.7
96 0.43
97 4.7
99 3
103 3.3
104 0.27
105 15
106 4.7
107 10
108 0.5
109 12
110 3.3
111 3.3
115 0.63
116 3.3
117 8
118 3
119 1.1
120 6
121 15
122 13.3
123 0.57
125 2
127 2.7
128 4
129 0.5
130 2.7
131 7.3
132 3.7
133 0.73
134 4.3
135 55.7
136 15.3
137 0.57
138 1.7
141 3
142 2.7
143 0.53
144 3
145 6.7
146 3.3
147 0.77
148 14
149 7
150 2
151 0.2
155 2.7
156 2
157 4.3
158 0.27
159 6.3
160 3.3
161 6.7
162 0.3
163 3.3
164 2.7
165 3
166 0.2
167 2
169 3
170 2
171 0.53
172 2.7
173 6
174 2.7
175 0.5
176 3
177 6.3
178 2.7
181 0.2
183 4
184 2
185 4
186 0.33
187 3.7
188 2
189 2
190 0.23
191 2.7
192 1.7
193 1.7
195 0.2
197 2.3
199 3.3
200 3
201 0.43
202 2.7
203 3.3
204 2
205 0.2
207 1.7
209 2.3
211 2.7
213 0.27
214 2
215 3.7
216 2.3
217 0.27
218 2
219 2.3
220 1.7
223 0.2
225 2.3
227 2.7
228 2.8
229 0.33
230 2.3
231 3
232 2.3
233 0.23
239 2
241 2.3
242 1.7
243 0.33
244 2
245 4.7
246 2.3
247 0.17
251 2.7
253 2.7
254 2
255 0.27
256 1.7
257 2
262 1.7
266 0.17
267 1.7
269 7.3
270 2.7
271 0.5
272 1.7
273 2
279 2
283 0.2
284 3.3
287 2
288 1
297 0.5
298 1.3
311 1.3
312 20
313 0.56
314 1.3
315 1
329 3
330 0.37
331 1.3
372 13.3
373 3.3

>  <PREDICTED SPECTRUM>  (924) 
0 4
1 11
4 6
5 3
8 0
13 3
14 5
15 10
16 15
17 7
18 18
19 1
20 0
25 13
26 43
27 126
28 73
29 118
31 69
32 12
37 16
38 30
39 199
40 107
41 443
42 126
43 999
44 140
45 118
47 1
48 21
49 21
50 60
51 148
52 123
53 306
54 153
55 418
56 101
57 184
58 90
59 65
60 64
61 63
62 16
63 77
64 68
65 231
66 126
67 285
68 158
69 245
70 86
71 181
72 62
73 13
74 17
75 30
76 12
77 356
78 190
79 378
80 207
81 303
82 160
83 209
84 117
85 106
86 64
87 29
89 48
90 22
91 475
92 183
93 414
94 260
95 374
96 178
97 190
98 77
99 106
100 28
101 43
102 45
103 127
104 112
105 347
106 200
107 384
108 267
109 336
110 158
111 146
112 50
113 46
115 145
116 95
117 196
118 126
119 298
120 243
121 399
122 362
123 277
124 123
125 69
126 21
127 115
128 182
129 176
130 109
131 234
132 166
133 288
134 284
135 404
136 284
137 245
138 94
139 66
140 23
141 129
142 81
143 167
144 106
145 251
146 131
147 222
148 176
149 234
150 162
151 148
152 91
153 95
154 35
155 103
156 84
157 213
158 110
159 289
160 171
161 237
162 127
163 195
164 144
165 158
166 79
167 76
168 63
169 102
170 92
171 159
172 103
173 197
174 116
175 163
176 100
177 145
178 115
179 62
180 61
181 77
182 47
183 105
184 48
185 176
186 114
187 275
188 149
189 158
190 124
191 127
192 142
193 92
194 53
195 66
196 76
197 158
198 90
199 149
200 73
201 124
202 129
203 147
204 91
205 105
206 78
207 42
208 1
209 94
210 57
211 138
212 46
213 153
214 77
215 157
216 76
217 106
218 104
219 119
220 50
221 62
222 10
223 33
224 26
225 121
226 54
227 137
228 93
229 73
230 98
231 90
232 102
233 117
234 10
235 1
237 15
238 46
239 86
240 56
241 142
242 95
243 113
244 73
245 91
246 27
247 38
249 31
250 19
251 131
252 27
253 140
254 94
255 113
256 98
257 86
258 21
259 39
260 59
261 26
262 54
263 57
264 14
265 62
266 36
267 98
268 21
269 265
270 132
271 118
272 50
273 32
279 91
283 59
284 114
285 22
286 69
287 60
288 35
294 59
295 19
296 16
297 138
298 52
299 46
311 32
312 254
313 167
314 124
315 108
327 1
328 33
329 135
330 124
331 31
339 7
344 30
354 29
357 13
372 313
373 148
374 44

$$$$

     RDKit          2D

 28 29  0  0  1  0  0  0  0  0999 V2000
    0.0160    1.3985    0.0000 C   0  0  0  0  0  0  0  0  0  0  0  0
   -2.2340   -2.4915    0.0000 C   0  0  0  0  0  0  0  0  0  0  0  0
    2.9439   -2.4791    0.0000 C   0  0  0  0  0  0  0  0  0  0  0  0
   -2.9845    6.5944    0.0000 C   0  0  0  0  0  0  0  0  0  0  0  0
   -3.3880    4.6469    0.0000 C   0  0  0  0  0  0  0  0  0  0  0  0
    0.0162    3.9974    0.0000 C   0  0  0  0  0  0  0  0  0  0  0  0
    0.0162   -1.1926    0.0000 C   0  0  0  0  0  0  0  0  0  0  0  0
    0.7662    0.1074    0.0000 C   0  0  0  0  0  0  0  0  0  0  0  0
   -1.4838    3.9974    0.0000 C   0  0  0  0  0  0  0  0  0  0  0  0
   -3.7338    0.1074    0.0000 C   0  0  0  0  0  0  0  0  0  0  0  0
   -4.4838    1.4074    0.0000 C   0  0  0  0  0  0  0  0  0  0  0  0
    2.2662    2.6974    0.0000 C   0  0  0  0  0  0  0  0  0  0  0  0
    0.7662    2.6974    0.0000 C   0  0  0  0  0  0  0  0  0  0  0  0
   -1.4838   -1.1926    0.0000 C   0  0  0  0  0  0  0  0  0  0  0  0
    3.2630   -1.0134    0.0000 C   0  0  0  0  0  0  0  0  0  0  0  0
   -2.2342    5.2955    0.0000 C   0  0  0  0  0  0  0  0  0  0  0  0
    2.2662    0.1074    0.0000 C   0  0  0  0  0  0  0  0  0  0  0  0
   -2.2338    0.1074    0.0000 C   0  0  0  0  0  0  0  0  0  0  0  0
    3.0162    1.3974    0.0000 C   0  0  0  0  0  0  0  0  0  0  0  0
   -2.2338    2.6974    0.0000 C   0  0  0  0  0  0  0  0  0  0  0  0
    4.6367   -0.4078    0.0000 C   0  0  0  0  0  0  0  0  0  0  0  0
   -3.7338    2.6974    0.0000 C   0  0  0  0  0  0  0  0  0  0  0  0
   -0.7342    5.2957    0.0000 O   0  0  0  0  0  0  0  0  0  0  0  0
   -1.4836    1.4063    0.0000 O   0  0  0  0  0  0  0  0  0  0  0  0
    5.9334   -1.1617    0.0000 O   0  0  0  0  0  0  0  0  0  0  0  0
   -5.1423    3.2133    0.0000 O   0  0  0  0  0  0  0  0  0  0  0  0
   -2.9840    3.9963    0.0000 O   0  0  0  0  0  0  0  0  0  0  0  0
    4.4833    1.0856    0.0000 O   0  0  0  0  0  0  0  0  0  0  0  0
  8  7  1  0
  9  6  1  0
 11 10  1  0
 13  1  1  0
 13  6  1  0
 12 13  2  0
 14  2  1  0
  7 14  2  0
 15  3  2  0
 16  4  1  0
 17  8  1  6
 17 15  1  0
 18 10  1  0
 18 14  1  0
 19 12  1  6
 19 17  1  0
 20  9  1  0
 21 15  1  0
 22  5  1  6
 22 11  1  0
 22 20  1  0
 23 16  2  0
 18 24  1  6
 25 21  2  0
 22 26  1  0
 27 16  1  0
 20 27  1  6
 19 28  1  0
 28 21  1  0
M  END
>  <NAME>  (925) 
(1S,2S,3E,7S,8R,11S,12Z)-7-ACETOXY-8,11-DIHYDROXYCEMBRA-3,12,15-TRIEN-17,2-OLIDE

>  <SYNONYMS>  (925) 


>  <SPECTRUM TYPE>  (925) 
MS1

>  <INSTRUMENT TYPE>  (925) 
EI-B

>  <INSTRUMENT>  (925) 
HITACHI RMU-6L

>  <ION MODE>  (925) 
P

>  <INCHIKEY>  (925) 
XRJDKHSLEVYNJE-SNTVFBAHSA-N

>  <FORMULA>  (925) 
C22H32O6

>  <EXACT MASS>  (925) 
392.21988874399995

>  <MW>  (925) 
392

>  <ID>  (925) 
JP010659

>  <CONTRIBUTOR>  (925) 
University of Tokyo Team, {Faculty of Engineering, University of Tokyo

>  <COMMENT>  (925) 
SMILES=CC(=O)OC([H])(C1)C(C)(O)CCC([H])(O)C(C)=C([H])CC([H])(C(=C)2)C([H])(OC(=O)2)C([H])=C(C)C1
InChI=InChI=1S/C22H32O6/c1-13-6-9-20(27-16(4)23)22(5,26)11-10-18(24)14(2)7-8-17-15(3)21(25)28-19(17)12-13/h7,12,17-20,24,26H,3,6,8-11H2,1-2,4-5H3/b13-12+,14-7-/t17-,18-,19-,20-,22+/m0/s1
computed SMILES=O=C1OC2C=C(C)CCC(OC(=O)C)C(O)(C)CCC(O)C(=CCC2C1=C)C
accession=JP010659
date=2016.01.19 (Created 2008.10.21, modified 2011.05.06)
author=EGUCHI S, FAC. OF SCIENCE, HIROSHIMA UNIV.
license=CC BY-NC-SA
exact mass=392.21989
ionization energy=70 eV
ion type=[M]+*
computed spectral entropy=4.5134426594571435
computed normalized entropy=0.8433412371724497
SPLASH=splash10-0006-9620000000-66762f541a6d54ace060
submitter=submitter = University of Tokyo Team (Faculty of Engineering, University of Tokyo)
MoNA Rating=3.75

>  <NUM PEAKS>  (925) 
211

>  <MASS SPECTRAL PEAKS>  (925) 
40 1.6
41 18.5
42 2
43 99.99
44 4
45 4
47 4
48 0.16
49 1.5
51 1.5
53 8.9
54 0.2
55 25
56 2.8
57 6.5
58 0.16
59 1.2
61 1.6
65 4
66 0.2
67 8.1
68 2.4
69 7.7
70 0.16
71 8.9
72 1.6
73 1.5
77 0.97
78 2.8
79 13.3
80 4.4
81 1.53
82 4
83 10.9
84 5.6
85 0.73
86 1.5
87 1.6
91 14.5
92 0.36
93 11.7
94 6.5
95 15.3
96 0.4
97 5.6
98 2
99 12.1
100 0.12
103 2.4
104 1.6
105 12.1
106 0.4
107 8.1
108 4
109 7.3
110 0.24
111 4.4
112 1.6
113 2.8
115 0.16
116 1.2
117 4.8
118 3.2
119 0.89
120 4
121 7.3
122 5.6
123 0.52
124 2
125 2.4
127 1.6
128 0.16
129 2.4
130 1.6
131 6.5
132 0.28
133 7.3
134 3.2
135 4.8
136 0.24
137 4
138 3.2
139 2.4
141 0.16
143 2.4
144 1.6
145 5.6
146 0.44
147 6.5
148 3.2
149 4.8
150 0.65
151 4
152 2
153 2
154 0.16
155 2.4
156 1.2
157 2.8
158 0.24
159 4.4
160 2.4
161 4
162 0.24
163 4.8
164 6.5
165 2.4
166 0.12
167 2
168 1.2
169 1.6
171 0.28
172 1.6
173 2.8
174 1.6
175 0.36
176 4
177 3.2
178 2.4
179 0.12
181 1.2
183 1.6
184 1.2
185 0.32
186 1.6
187 2.4
188 1.6
189 0.28
190 2.4
191 2
192 1.6
193 0.16
194 2.8
195 1.6
197 1.6
198 0.12
199 2.4
200 1.6
201 2.9
202 0.22
203 4.6
204 1.9
205 2.7
206 0.16
207 1.1
209 1.1
211 1.6
212 0.22
213 2.4
214 1.3
215 2.9
216 0.28
217 3.1
218 1.9
219 2.4
220 0.12
221 1.5
225 1.6
227 1.6
228 0.16
229 2.4
230 2.9
231 4.3
232 0.16
233 1.9
234 1.2
235 1.2
236 0.12
241 1.6
242 1.1
243 1.7
244 0.13
245 1.3
246 1.3
247 1.3
248 0.13
249 2.3
253 1.6
254 1
255 0.11
256 1.6
257 1.7
259 1.3
261 0.11
268 1.3
269 1.3
270 1.3
271 0.19
272 1.1
273 1
281 1.6
285 0.13
286 1.7
288 1.1
289 1.2
296 0.32
297 1.6
298 0.8
299 1.6
314 0.65
315 1.9
316 0.8
317 0.6
332 0.39
333 1.3
334 0.6
356 1.6
357 0.08
374 3.2
375 1.3
392 1

>  <PREDICTED SPECTRUM>  (925) 
8 5
18 13
22 1
25 6
26 21
27 76
28 38
29 77
31 53
38 25
39 120
40 67
41 446
42 127
43 999
44 230
45 185
46 32
47 44
48 38
49 54
50 32
51 102
52 63
53 257
54 147
55 440
56 162
57 177
58 124
59 190
60 105
61 86
62 19
63 64
64 39
65 198
66 90
67 301
68 184
69 315
70 119
71 289
72 93
73 85
74 21
76 20
77 280
78 155
79 318
80 158
81 290
82 195
83 266
84 229
85 172
86 53
87 70
88 45
89 45
90 7
91 399
92 161
93 312
94 199
95 327
96 213
97 277
98 121
99 120
100 57
101 73
102 47
103 81
104 52
105 212
106 166
107 349
108 243
109 322
110 148
111 241
112 116
113 103
114 26
115 114
116 50
117 169
118 129
119 233
120 184
121 299
122 194
123 232
124 158
125 170
126 101
127 127
128 169
129 155
130 100
131 210
132 104
133 264
134 143
135 268
136 167
137 243
138 149
139 169
140 66
141 113
142 77
143 138
144 117
145 255
146 97
147 268
148 186
149 235
150 190
151 194
152 142
153 136
154 79
155 123
156 58
157 153
158 68
159 229
160 157
161 250
162 153
163 202
164 143
165 169
166 107
167 141
168 105
169 132
170 90
171 143
172 116
173 134
174 139
175 155
176 133
177 180
178 81
179 103
180 72
181 141
182 76
183 135
184 77
185 125
186 78
187 126
188 102
189 136
190 91
191 122
192 144
193 94
194 76
195 94
196 42
197 111
198 37
199 143
200 108
201 155
202 96
203 133
204 79
205 136
206 84
207 130
208 53
209 155
210 88
211 135
212 86
213 141
214 90
215 87
216 61
217 152
218 99
219 107
220 69
221 53
222 8
223 67
224 29
225 121
226 73
227 115
228 90
229 132
230 88
231 87
232 72
233 107
234 14
235 78
236 36
237 59
238 68
239 107
240 52
241 110
242 73
243 85
244 79
245 91
246 53
247 61
248 28
249 64
250 31
251 70
252 3
253 102
254 99
255 54
256 50
257 60
258 31
259 118
260 46
261 58
262 13
263 46
264 7
265 67
266 4
267 5
268 40
269 123
270 58
271 124
272 70
273 98
274 26
275 24
276 9
277 13
278 14
280 20
281 111
282 8
283 35
284 17
285 47
286 95
287 102
288 53
289 48
290 0
291 19
295 6
296 80
297 78
298 49
299 147
300 27
301 22
304 10
306 12
312 2
313 95
314 179
315 105
316 55
317 46
328 5
331 38
332 73
333 55
334 27
338 34
341 12
349 34
350 7
356 93
358 10
374 136
375 47
392 115
393 24

$$$$

     RDKit          2D

 26 27  0  0  1  0  0  0  0  0999 V2000
   -4.3980    4.4702    0.0000 C   0  0  0  0  0  0  0  0  0  0  0  0
    0.0998    1.8711    0.0000 C   0  0  0  0  0  0  0  0  0  0  0  0
   -2.1502   -2.0189    0.0000 C   0  0  0  0  0  0  0  0  0  0  0  0
    3.0278   -2.0065    0.0000 C   0  0  0  0  0  0  0  0  0  0  0  0
    0.8506   -4.6170    0.0000 C   0  0  0  0  0  0  0  0  0  0  0  0
   -1.4000    4.4700    0.0000 C   0  0  0  0  0  0  0  0  0  0  0  0
   -3.6500    0.5800    0.0000 C   0  0  0  0  0  0  0  0  0  0  0  0
   -2.1500    3.1700    0.0000 C   0  0  0  0  0  0  0  0  0  0  0  0
   -4.4000    1.8800    0.0000 C   0  0  0  0  0  0  0  0  0  0  0  0
    0.1000    4.4700    0.0000 C   0  0  0  0  0  0  0  0  0  0  0  0
   -2.1500    0.5800    0.0000 C   0  0  0  0  0  0  0  0  0  0  0  0
    2.3500    3.1700    0.0000 C   0  0  0  0  0  0  0  0  0  0  0  0
    0.8500    0.5800    0.0000 C   0  0  0  0  0  0  0  0  0  0  0  0
   -3.6500    3.1700    0.0000 C   0  0  0  0  0  0  0  0  0  0  0  0
    0.8500    3.1700    0.0000 C   0  0  0  0  0  0  0  0  0  0  0  0
   -1.4000   -0.7200    0.0000 C   0  0  0  0  0  0  0  0  0  0  0  0
    3.3468   -0.5408    0.0000 C   0  0  0  0  0  0  0  0  0  0  0  0
    0.1004   -3.3181    0.0000 C   0  0  0  0  0  0  0  0  0  0  0  0
    2.3500    0.5800    0.0000 C   0  0  0  0  0  0  0  0  0  0  0  0
    0.1000   -0.7200    0.0000 C   0  0  0  0  0  0  0  0  0  0  0  0
    3.1000    1.8700    0.0000 C   0  0  0  0  0  0  0  0  0  0  0  0
    4.7205    0.0648    0.0000 C   0  0  0  0  0  0  0  0  0  0  0  0
   -1.3996   -3.3183    0.0000 O   0  0  0  0  0  0  0  0  0  0  0  0
    6.0173   -0.6891    0.0000 O   0  0  0  0  0  0  0  0  0  0  0  0
    0.8502   -2.0189    0.0000 O   0  0  0  0  0  0  0  0  0  0  0  0
    4.5672    1.5583    0.0000 O   0  0  0  0  0  0  0  0  0  0  0  0
  8  6  1  0
  9  7  1  0
 10  6  1  0
 11  7  1  0
 14  1  1  0
  8 14  2  0
 14  9  1  0
 15  2  1  0
 15 10  1  0
 12 15  2  0
 16  3  1  0
 11 16  2  0
 17  4  2  0
 18  5  1  0
 19 13  1  6
 19 17  1  0
 20 13  1  0
 20 16  1  0
 21 12  1  6
 21 19  1  0
 22 17  1  0
 23 18  2  0
 24 22  2  0
 25 18  1  0
 20 25  1  6
 21 26  1  0
 26 22  1  0
M  END
>  <NAME>  (926) 
(1S,2S,3E,7E,11E,13S)-13-ACETOXYCEMBRA-3,7,11,15-TETRAEN-17,2-OLIDE

>  <SYNONYMS>  (926) 


>  <SPECTRUM TYPE>  (926) 
MS1

>  <INSTRUMENT TYPE>  (926) 
EI-B

>  <INSTRUMENT>  (926) 
HITACHI RMU-6L

>  <ION MODE>  (926) 
P

>  <INCHIKEY>  (926) 
XCKMFLVWQFOPHR-BDSHZVJHSA-N

>  <FORMULA>  (926) 
C22H30O4

>  <EXACT MASS>  (926) 
358.21440944

>  <MW>  (926) 
358

>  <ID>  (926) 
JP010658

>  <CONTRIBUTOR>  (926) 
University of Tokyo Team, {Faculty of Engineering, University of Tokyo

>  <COMMENT>  (926) 
SMILES=CC(C2)=C([H])CCC(C)=C([H])C([H])(O1)C([H])(CC([H])(OC(C)=O)C(C)=C([H])C2)C(=C)C(=O)1
InChI=InChI=1S/C22H30O4/c1-14-8-6-10-15(2)12-21-19(17(4)22(24)26-21)13-20(25-18(5)23)16(3)11-7-9-14/h8,11-12,19-21H,4,6-7,9-10,13H2,1-3,5H3/b14-8+,15-12+,16-11+/t19-,20-,21-/m0/s1
computed SMILES=O=C1OC2C=C(C)CCC=C(C)CCC=C(C)C(OC(=O)C)CC2C1=C
accession=JP010658
date=2016.01.19 (Created 2008.10.21, modified 2011.05.06)
author=EGUCHI S, FAC. OF SCIENCE, HIROSHIMA UNIV.
license=CC BY-NC-SA
exact mass=358.21441
ionization energy=70 eV
ion type=[M]+*
computed spectral entropy=4.503986423515434
computed normalized entropy=0.8549938680042749
SPLASH=splash10-052f-8920000000-0a932812fee13e16c1bb
submitter=submitter = University of Tokyo Team (Faculty of Engineering, University of Tokyo)
MoNA Rating=3.75

>  <NUM PEAKS>  (926) 
194

>  <MASS SPECTRAL PEAKS>  (926) 
40 3.5
41 25
42 2.6
43 99.99
44 3
45 3
51 2.6
52 0.22
53 32.8
54 5.2
56 53.4
57 0.43
59 1.3
60 2.2
65 8.2
66 0.35
67 12.5
68 9.5
69 12.5
70 0.17
71 5.2
72 1.7
77 18.5
78 0.52
79 31
80 11.2
81 51.7
82 1.47
83 11.2
84 18.1
85 3.5
91 3.28
92 9.5
93 34.4
94 16.4
95 1.98
96 5.2
97 11.2
98 2.6
99 0.17
102 1.9
103 5.2
104 4.3
105 3.23
106 11.2
107 27.6
108 17.2
109 1.81
110 3.9
111 4.3
112 1.7
113 0.22
115 3.9
116 2.2
117 9.5
118 0.6
119 39.7
120 13.8
121 25
122 1.03
123 9.5
124 3.5
125 2.2
126 0.22
127 1.7
128 2.6
129 4.3
130 0.26
131 11.2
132 11.2
133 26.7
134 1.81
135 17.2
136 8.6
137 7.8
138 0.35
139 2.2
141 5.6
142 2.2
143 0.56
144 3.5
145 13.8
146 12.1
147 4.14
148 11.2
149 10.3
150 5.2
151 0.86
152 3
153 1.7
155 2.6
156 0.22
157 6.9
158 3.9
159 11.6
160 0.6
161 10.3
162 11.2
163 7.8
164 0.73
165 6.9
166 2.6
167 2.6
169 0.35
170 2.2
171 6.9
172 3
173 0.78
174 4.3
175 7.8
176 5.2
177 0.6
178 3.5
179 4.7
180 2.6
181 0.26
183 3
184 2.2
185 6
186 0.35
187 9.5
188 5.2
189 6.2
190 0.43
191 3.9
192 3.9
193 3.5
194 0.13
195 1.7
197 3.9
198 1.7
199 0.6
200 4.7
201 6.5
202 5.2
203 0.52
204 3.9
205 4.3
206 1.7
207 0.22
209 1.7
211 2.6
212 1.7
213 0.39
214 2.6
215 6
216 3.5
217 0.56
218 2.6
219 3.5
220 1.3
223 0.13
225 1.7
227 3
228 2.2
229 0.3
230 5.2
231 3.5
232 1.3
233 0.22
235 1.3
237 1.7
241 3.5
242 0.26
243 3
244 1.3
245 1.3
248 1.38
249 3
253 2.6
255 3.5
256 0.22
265 1.7
269 4.3
270 6
271 0.17
272 0.9
273 1.3
283 8.2
284 0.22
290 2.2
291 0.4
298 1.3
299 3.27
300 10.3
301 2.2
302 1.3
315 0.09
316 5.6
317 1.3
330 0.9
358 0.6
359 1.7
360 0.9

>  <PREDICTED SPECTRUM>  (926) 
1 4
4 0
6 2
13 1
16 3
18 6
25 17
26 25
27 72
28 60
29 80
30 5
31 30
32 11
37 22
38 78
39 201
40 137
41 503
42 183
43 999
44 188
45 144
46 33
47 24
48 11
49 44
50 77
51 166
52 156
53 408
54 251
55 508
56 166
57 168
58 121
59 133
60 118
61 85
62 33
63 98
64 95
65 279
66 190
67 460
68 286
69 323
70 121
71 304
72 131
73 75
74 0
75 19
76 55
77 382
78 233
79 466
80 327
81 447
82 230
83 335
84 329
85 221
86 111
87 74
88 22
89 56
90 55
91 492
92 280
93 468
94 349
95 468
96 284
97 288
98 110
99 125
100 88
101 41
102 32
103 162
104 125
105 381
106 303
107 525
108 402
109 377
110 183
111 222
112 93
113 117
114 49
115 166
116 108
117 221
118 195
119 424
120 363
121 444
122 343
123 389
124 204
125 147
126 93
127 151
128 169
129 202
130 112
131 318
132 223
133 376
134 339
135 431
136 356
137 245
138 157
139 125
140 45
141 147
142 133
143 202
144 196
145 298
146 232
147 318
148 305
149 325
150 304
151 221
152 135
153 103
154 52
155 140
156 113
157 213
158 173
159 366
160 229
161 308
162 366
163 244
164 173
165 247
166 116
167 114
168 90
169 136
170 84
171 200
172 161
173 266
174 211
175 268
176 228
177 224
178 197
179 134
180 64
181 114
182 73
183 212
184 80
185 205
186 128
187 295
188 248
189 246
190 145
191 152
192 152
193 110
194 43
195 117
196 42
197 110
198 100
199 206
200 131
201 205
202 157
203 165
204 169
205 150
206 67
207 112
209 134
210 65
211 90
212 38
213 134
214 132
215 153
216 96
217 111
218 170
219 185
220 69
221 25
223 15
224 7
225 89
226 42
227 143
228 121
229 129
230 129
231 177
232 58
233 61
234 0
235 116
236 28
237 77
238 33
239 91
240 59
241 161
242 85
243 88
244 125
245 52
246 82
247 86
248 25
249 56
250 5
251 82
252 68
253 128
254 44
255 232
256 137
257 99
258 38
259 47
261 16
262 13
265 159
266 43
269 164
270 175
271 24
272 76
273 88
274 16
275 17
279 0
280 42
281 71
282 69
283 198
284 51
285 48
287 1
288 46
290 47
297 53
298 197
299 144
300 164
301 68
304 37
312 22
313 3
315 106
316 198
317 34
325 4
340 13
341 5
343 5
344 19
358 95
359 39

$$$$

     RDKit          2D

 27 29  0  0  0  0  0  0  0  0999 V2000
   -5.9000    1.8825    0.0000 C   0  0  0  0  0  0  0  0  0  0  0  0
    0.8502    5.7689    0.0000 C   0  0  0  0  0  0  0  0  0  0  0  0
    5.6818    1.1781    0.0000 C   0  0  0  0  0  0  0  0  0  0  0  0
    3.8504   -2.0176    0.0000 C   0  0  0  0  0  0  0  0  0  0  0  0
    1.3992   -1.4698    0.0000 C   0  0  0  0  0  0  0  0  0  0  0  0
   -2.1500    3.1700    0.0000 C   0  0  0  0  0  0  0  0  0  0  0  0
   -3.6500    3.1700    0.0000 C   0  0  0  0  0  0  0  0  0  0  0  0
   -1.4000    4.4700    0.0000 C   0  0  0  0  0  0  0  0  0  0  0  0
   -3.6500    0.5800    0.0000 C   0  0  0  0  0  0  0  0  0  0  0  0
   -2.1500    0.5800    0.0000 C   0  0  0  0  0  0  0  0  0  0  0  0
    0.8500    3.1700    0.0000 C   0  0  0  0  0  0  0  0  0  0  0  0
    2.3500    0.5800    0.0000 C   0  0  0  0  0  0  0  0  0  0  0  0
   -4.4000    1.8800    0.0000 C   0  0  0  0  0  0  0  0  0  0  0  0
    0.1000    4.4700    0.0000 C   0  0  0  0  0  0  0  0  0  0  0  0
    4.5672    2.1819    0.0000 C   0  0  0  0  0  0  0  0  0  0  0  0
    3.1002   -0.7187    0.0000 C   0  0  0  0  0  0  0  0  0  0  0  0
    3.1000    1.8700    0.0000 C   0  0  0  0  0  0  0  0  0  0  0  0
    2.3500    3.1700    0.0000 C   0  0  0  0  0  0  0  0  0  0  0  0
   -1.4000   -0.7200    0.0000 C   0  0  0  0  0  0  0  0  0  0  0  0
    0.8500    0.5800    0.0000 C   0  0  0  0  0  0  0  0  0  0  0  0
    4.7244    3.6735    0.0000 C   0  0  0  0  0  0  0  0  0  0  0  0
    0.1000   -0.7200    0.0000 C   0  0  0  0  0  0  0  0  0  0  0  0
    3.8500    0.5805    0.0000 O   0  0  0  0  0  0  0  0  0  0  0  0
    6.0237    4.4231    0.0000 O   0  0  0  0  0  0  0  0  0  0  0  0
    1.6002   -0.7189    0.0000 O   0  0  0  0  0  0  0  0  0  0  0  0
    3.3544    4.2841    0.0000 O   0  0  0  0  0  0  0  0  0  0  0  0
   -0.6500   -2.0190    0.0000 O   0  0  0  0  0  0  0  0  0  0  0  0
  7  6  1  0
  8  6  1  0
 10  9  1  0
 13  1  1  0
  7 13  2  0
 13  9  1  0
 14  2  1  0
 14  8  1  0
 11 14  2  3
 15  3  2  0
 16  4  1  0
 17 12  1  0
 17 15  1  0
 18 11  1  0
 18 17  1  0
 19 10  1  0
 20 12  1  0
 21 15  1  0
 22  5  1  0
 22 19  1  0
 22 20  1  0
 23 16  2  0
 24 21  2  0
 25 16  1  0
 25 20  1  0
 26 18  1  0
 26 21  1  0
 27 19  1  0
 27 22  1  0
M  END
>  <NAME>  (927) 
(10E,14E)-5-ACETOXY-6,7-EPOXY-6,10,14-TRIMETHYL-3-METHYLENE-3A,6,7,8,9,12,13,15A-OCTAHYDROCYCLOTETRADECA(B)FURAN-2(3H),5(4H)-DIONE

>  <SYNONYMS>  (927) 


>  <SPECTRUM TYPE>  (927) 
MS1

>  <INSTRUMENT TYPE>  (927) 
EI-B

>  <INSTRUMENT>  (927) 
HITACHI RMU-6L

>  <ION MODE>  (927) 
P

>  <INCHIKEY>  (927) 
VAIRPKPEPRJXML-NHBSDZJZSA-N

>  <FORMULA>  (927) 
C22H30O5

>  <EXACT MASS>  (927) 
374.20932406

>  <MW>  (927) 
374

>  <ID>  (927) 
JP010655

>  <CONTRIBUTOR>  (927) 
University of Tokyo Team, {Faculty of Engineering, University of Tokyo

>  <COMMENT>  (927) 
SMILES=CC(=O)OC(C2)C(C)(O1)C(CCC(C)=C([H])CCC(C)=C([H])C(O3)C(C(=C)C(=O)3)2)1
InChI=InChI=1S/C22H30O5/c1-13-7-6-8-14(2)11-18-17(15(3)21(24)26-18)12-20(25-16(4)23)22(5)19(27-22)10-9-13/h7,11,17-20H,3,6,8-10,12H2,1-2,4-5H3/b13-7-,14-11-
computed SMILES=O=C1OC2C=C(C)CCC=C(C)CCC3OC3(C)C(OC(=O)C)CC2C1=C
computed InChI=InChI=1S/C22H30O5/c1-13-7-6-8-14(2)11-18-17(15(3)21(24)26-18)12-20(25-16(4)23)22(5)19(27-22)10-9-13/h7,11,17-20H,3,6,8-10,12H2,1-2,4-5H3/b13-7-,14-11?
accession=JP010655
date=2016.01.19 (Created 2008.10.21, modified 2011.05.06)
author=EGUCHI S, FAC. OF SCIENCE, HIROSHIMA UNIV.
license=CC BY-NC-SA
exact mass=374.20932
ionization energy=70 eV
ion type=[M]+*
computed spectral entropy=4.652226686392807
computed normalized entropy=0.8596694317800194
SPLASH=splash10-0006-9820000000-1c3fe8be223558e4f976
submitter=submitter = University of Tokyo Team (Faculty of Engineering, University of Tokyo)
MoNA Rating=3.75

>  <NUM PEAKS>  (927) 
224

>  <MASS SPECTRAL PEAKS>  (927) 
41 35
42 4.5
43 99.99
44 0.7
45 9
46 1
51 4
52 0.55
53 26
54 5
55 42
56 0.4
57 11
58 1.5
59 1
60 0.7
62 1.5
64 2
65 9
66 0.35
67 24.5
68 12
69 16.5
70 0.3
71 12.5
72 1
73 3
74 0.2
75 1
76 2
77 23
78 0.5
79 28
80 7
81 68
82 1.2
83 13
84 9
85 6
86 0.2
87 3
89 2
90 1
91 3.1
92 8
93 37
94 11
95 2.4
96 6
97 10
98 4
99 0.3
103 4
104 2
105 24
106 0.8
107 19.5
108 10.1
109 18
110 0.75
111 15
112 3
113 4
114 0.2
115 11
116 3.5
117 11
118 0.51
119 19
120 7.5
121 17.5
122 0.8
123 10
124 4
125 5
126 0.3
127 4
128 7.5
129 9.5
130 0.5
131 15
132 6
133 18
134 0.8
135 11.5
136 6.5
137 8
138 0.45
139 3.5
140 2
141 10
142 0.5
143 9
144 4
145 12
146 0.6
147 11.5
148 5.5
149 11
150 0.7
151 10
152 5
153 4
155 0.6
156 3.5
157 9
158 5
159 1.5
160 5
161 9
162 6
163 0.7
164 5.5
165 6
166 3
167 0.7
168 4
169 7.5
170 5.5
171 0.8
172 3
173 7
174 4
175 0.8
176 4
177 5.1
178 4.5
179 0.4
181 5
183 5
185 6
186 0.5
187 13.5
188 5
189 6.5
190 0.4
191 5
195 5
197 4.5
198 0.3
199 4
200 2.9
201 4.6
202 0.39
203 9.4
204 4.6
205 4.7
206 0.25
207 2.1
208 3
209 3.6
210 0.21
211 3.5
212 2.1
213 3.8
214 0.2
215 7.1
216 3.1
217 3.1
218 0.21
219 3.6
220 1.8
221 3.1
222 0.14
223 1.8
224 1.4
225 2.8
226 0.18
227 2.5
228 2.5
229 4.6
230 0.29
231 4.4
232 2.1
233 4.4
234 0.14
235 2.1
236 1.1
237 1.1
238 0.1
239 1.4
240 1.5
241 2.4
242 0.18
243 2.4
244 1.4
245 1.4
246 0.38
247 9.9
248 2.4
249 1.4
250 0.14
251 1.8
252 1.4
253 2.1
254 0.11
255 1.1
256 1.4
257 2.1
258 0.14
259 1.3
260 1
262 7.9
263 0.24
264 1.1
267 1.1
268 2.1
269 0.18
270 1.4
271 2.5
272 1.4
281 0.21
285 1.1
286 1.4
296 28
297 0.13
299 1.8
314 3.5
315 4.2
316 0.14
331 0.8
332 1.4
374 3.6
375 1.1

>  <PREDICTED SPECTRUM>  (927) 
0 10
1 3
2 2
5 0
6 7
13 11
14 2
15 10
18 2
19 0
25 8
26 26
27 101
28 66
29 105
31 61
32 14
37 25
38 26
39 142
40 87
41 454
42 102
43 999
44 206
45 158
46 16
47 22
48 21
49 41
50 33
51 130
52 94
53 300
54 162
55 497
56 137
57 165
58 101
59 136
60 95
61 93
62 18
63 57
64 24
65 195
66 141
67 377
68 198
69 288
70 125
71 270
72 111
73 74
74 8
75 14
76 23
77 315
78 159
79 386
80 205
81 354
82 154
83 258
84 177
85 146
86 88
87 55
88 11
89 22
91 417
92 159
93 349
94 264
95 405
96 234
97 255
98 88
99 91
100 41
101 55
102 11
103 99
104 63
105 322
106 185
107 362
108 223
109 331
110 148
111 227
112 85
113 77
115 96
116 62
117 147
118 96
119 271
120 206
121 347
122 234
123 300
124 163
125 144
126 49
127 66
128 112
129 137
130 80
131 226
132 132
133 269
134 204
135 281
136 216
137 222
138 130
139 120
140 27
141 91
142 63
143 139
144 99
145 194
146 97
147 228
148 174
149 239
150 185
151 174
152 131
153 125
154 33
155 97
156 63
157 168
158 106
159 206
160 122
161 226
162 229
163 222
164 143
165 190
166 125
167 111
168 115
169 90
170 55
171 125
172 75
173 149
174 145
175 197
176 153
177 149
178 127
179 131
180 59
181 93
182 57
183 103
184 25
185 97
186 87
187 171
188 130
189 147
190 120
191 207
192 146
193 129
194 123
195 94
196 47
197 63
198 26
199 126
200 57
201 42
202 64
203 126
204 101
205 114
206 67
207 78
209 93
210 89
211 96
212 49
213 71
214 95
215 129
216 90
217 149
218 132
219 155
220 123
221 92
222 35
223 42
224 21
225 84
226 42
227 69
228 41
229 55
230 52
231 60
232 115
233 129
234 97
235 98
237 33
238 16
239 3
241 92
242 75
243 98
244 111
245 79
246 50
247 65
248 13
249 30
250 27
251 93
252 29
253 130
254 36
255 88
256 70
257 91
258 71
259 134
260 75
261 14
262 26
263 92
264 49
265 10
267 21
268 90
269 95
270 52
271 141
272 93
273 97
274 39
275 33
278 36
279 1
281 87
284 39
285 70
286 96
287 26
288 77
289 56
290 23
291 4
295 4
296 110
297 64
298 55
299 117
300 41
301 35
302 0
303 6
304 24
312 76
313 60
314 133
315 132
316 112
317 65
329 3
330 25
331 112
332 123
333 17
341 12
346 3
356 21
357 6
359 12
374 233
375 95
376 17

$$$$

     RDKit          2D

 24 26  0  0  0  0  0  0  0  0999 V2000
   -5.9000    1.8825    0.0000 C   0  0  0  0  0  0  0  0  0  0  0  0
    0.8502    5.7689    0.0000 C   0  0  0  0  0  0  0  0  0  0  0  0
    5.6818    1.1781    0.0000 C   0  0  0  0  0  0  0  0  0  0  0  0
    1.3992   -1.4698    0.0000 C   0  0  0  0  0  0  0  0  0  0  0  0
   -2.1500    3.1700    0.0000 C   0  0  0  0  0  0  0  0  0  0  0  0
   -3.6500    3.1700    0.0000 C   0  0  0  0  0  0  0  0  0  0  0  0
   -1.4000    4.4700    0.0000 C   0  0  0  0  0  0  0  0  0  0  0  0
   -3.6500    0.5800    0.0000 C   0  0  0  0  0  0  0  0  0  0  0  0
   -2.1500    0.5800    0.0000 C   0  0  0  0  0  0  0  0  0  0  0  0
    0.8500    3.1700    0.0000 C   0  0  0  0  0  0  0  0  0  0  0  0
    2.3500    0.5800    0.0000 C   0  0  0  0  0  0  0  0  0  0  0  0
   -4.4000    1.8800    0.0000 C   0  0  0  0  0  0  0  0  0  0  0  0
    0.1000    4.4700    0.0000 C   0  0  0  0  0  0  0  0  0  0  0  0
    4.5672    2.1819    0.0000 C   0  0  0  0  0  0  0  0  0  0  0  0
    3.1000    1.8700    0.0000 C   0  0  0  0  0  0  0  0  0  0  0  0
    2.3500    3.1700    0.0000 C   0  0  0  0  0  0  0  0  0  0  0  0
    0.8500    0.5800    0.0000 C   0  0  0  0  0  0  0  0  0  0  0  0
   -1.4000   -0.7200    0.0000 C   0  0  0  0  0  0  0  0  0  0  0  0
    4.7244    3.6735    0.0000 C   0  0  0  0  0  0  0  0  0  0  0  0
    0.1000   -0.7200    0.0000 C   0  0  0  0  0  0  0  0  0  0  0  0
    0.0998    1.8789    0.0000 O   0  0  0  0  0  0  0  0  0  0  0  0
    6.0237    4.4231    0.0000 O   0  0  0  0  0  0  0  0  0  0  0  0
    3.3544    4.2841    0.0000 O   0  0  0  0  0  0  0  0  0  0  0  0
   -0.6500   -2.0190    0.0000 O   0  0  0  0  0  0  0  0  0  0  0  0
  6  5  1  0
  7  5  1  0
  9  8  1  0
 12  1  1  0
  6 12  2  0
 12  8  1  0
 13  2  1  0
 13  7  1  0
 10 13  2  3
 14  3  2  0
 15 11  1  0
 15 14  1  0
 16 10  1  0
 16 15  1  0
 17 11  1  0
 18  9  1  0
 19 14  1  0
 20  4  1  0
 20 17  1  0
 20 18  1  0
 21 17  2  0
 22 19  2  0
 23 16  1  0
 23 19  1  0
 24 18  1  0
 24 20  1  0
M  END
>  <NAME>  (928) 
(10E,14E)-6,7-EPOXY-6,10,14-TRIMETHYL-3-METHYLENE-3A,6,7,8,9,12,13,15A-OCTAHYDROCYCLOTETRADECA(B)FURAN-2(3H),5(4H)-DIONE

>  <SYNONYMS>  (928) 


>  <SPECTRUM TYPE>  (928) 
MS1

>  <INSTRUMENT TYPE>  (928) 
EI-B

>  <INSTRUMENT>  (928) 
HITACHI

>  <ION MODE>  (928) 
P

>  <INCHIKEY>  (928) 
JIXLTZWMNACINB-HVZNDUSUSA-N

>  <FORMULA>  (928) 
C20H26O4

>  <EXACT MASS>  (928) 
330.183109312

>  <MW>  (928) 
330

>  <ID>  (928) 
JP010654

>  <CONTRIBUTOR>  (928) 
University of Tokyo Team, {Faculty of Engineering, University of Tokyo

>  <COMMENT>  (928) 
SMILES=[H]C(C2)=C(C)CCC(O1)C(C)(C(=O)CC(C(=C)3)C(OC(=O)3)C([H])=C(C)C2)1
InChI=InChI=1S/C20H26O4/c1-12-6-5-7-13(2)10-16-15(14(3)19(22)23-16)11-17(21)20(4)18(24-20)9-8-12/h6,10,15-16,18H,3,5,7-9,11H2,1-2,4H3/b12-6-,13-10-
computed SMILES=O=C1OC2C=C(C)CCC=C(C)CCC3OC3(C(=O)CC2C1=C)C
computed InChI=InChI=1S/C20H26O4/c1-12-6-5-7-13(2)10-16-15(14(3)19(22)23-16)11-17(21)20(4)18(24-20)9-8-12/h6,10,15-16,18H,3,5,7-9,11H2,1-2,4H3/b12-6-,13-10?
accession=JP010654
date=2016.01.19 (Created 2008.10.21, modified 2011.05.06)
author=EGUCHI S, FAC. OF SCIENCE, HIROSHIMA UNIV.
license=CC BY-NC-SA
exact mass=330.18311
ionization energy=70 eV
ion type=[M]+*
computed spectral entropy=4.27907806822459
computed normalized entropy=0.8484468330598403
SPLASH=splash10-0006-9610000000-3f80c2baba93f73d50cb
submitter=submitter = University of Tokyo Team (Faculty of Engineering, University of Tokyo)
MoNA Rating=3.75

>  <NUM PEAKS>  (928) 
155

>  <MASS SPECTRAL PEAKS>  (928) 
40 6
41 51
42 5
43 99.99
44 4
51 5.5
52 6.5
53 7.61
54 9
55 53.5
56 4
57 0.6
65 6
66 5
67 39
68 4.1
69 19.5
70 3
71 12.5
72 0.3
77 20
78 6
79 31.5
80 1.25
81 56
82 18
83 21
84 1.3
85 17
91 23
92 8.3
93 3.9
94 14
95 42
96 11.5
97 0.95
98 4
99 5
103 4
105 2.65
106 7
107 22
108 18
109 2.6
110 12
111 14
112 4
113 0.6
117 5
118 4
119 17
120 0.9
121 19
122 9
123 15
124 0.5
125 4
131 6
132 4
133 1.6
134 12
135 15
136 23.5
137 3.1
138 21
139 4
145 7
146 0.5
147 14
148 9
149 14
150 1.5
151 13
152 5
153 4.5
159 0.7
160 5
161 8
162 12
163 1
164 13
165 38
166 6
173 0.4
175 9
176 7
177 8
178 1.5
179 5.5
187 3
189 4
190 0.3
191 7
192 4
193 4
200 0.11
201 3.5
202 3
203 5
204 0.31
205 4.1
206 2
207 1.9
208 0.1
209 1.3
211 1
213 2.6
214 0.19
215 3.1
216 3.3
217 3.9
218 0.34
219 5.1
220 3
221 2.3
222 0.11
223 1.3
227 1.7
228 2.1
229 0.26
230 2
231 3
232 2.3
233 0.16
234 1.2
236 1.4
241 2.3
242 0.14
243 1.3
244 1.6
245 2.3
246 0.14
247 2
248 1.1
249 1.7
251 0.1
255 1
256 1.2
257 1
258 0.1
259 7.2
260 2.8
262 2.1
269 0.29
270 1.3
284 1.6
285 1.1
287 0.22
294 0.8
297 1.1
312 2.9
313 0.16
315 1
330 4
331 1.6

>  <PREDICTED SPECTRUM>  (928) 
0 5
1 3
27 68
28 40
29 49
31 10
32 4
36 3
39 294
40 178
41 911
42 275
43 999
44 247
45 144
47 36
49 37
50 89
51 271
52 242
53 661
54 416
55 878
56 342
57 307
58 139
59 120
60 77
61 49
62 30
63 153
64 92
65 433
66 283
67 805
68 662
69 662
70 256
71 395
72 95
73 53
74 4
76 14
77 544
78 297
79 692
80 418
81 875
82 568
83 472
84 377
85 241
86 107
87 95
88 37
89 25
90 7
91 675
92 412
93 559
94 576
95 726
96 548
97 487
98 210
99 131
103 139
104 120
105 449
106 268
107 615
108 386
109 605
110 331
111 380
112 157
113 96
115 186
116 112
117 262
118 202
119 504
120 293
121 584
122 434
123 519
124 258
125 205
126 90
127 68
128 114
129 97
130 118
131 339
132 235
133 401
134 448
135 556
136 383
137 349
138 243
139 242
141 99
142 71
143 145
144 128
145 269
146 215
147 412
148 360
149 428
150 383
151 429
152 254
153 148
154 9
155 131
156 38
157 122
158 96
159 288
160 230
161 410
162 476
163 400
164 394
165 478
166 217
167 102
168 44
169 37
170 7
171 162
172 115
173 271
174 239
175 343
176 331
177 366
178 315
179 326
180 126
181 97
182 8
183 70
184 45
185 113
186 92
187 164
188 199
189 200
190 212
191 266
192 181
193 146
194 112
195 50
196 13
197 90
198 86
199 147
200 85
201 211
202 148
203 275
204 164
205 193
206 162
207 225
208 89
209 96
211 2
213 131
214 162
215 221
216 218
217 179
218 260
219 269
220 202
221 85
224 5
225 8
227 123
228 96
229 167
230 136
231 213
232 171
233 85
234 89
235 64
237 21
241 115
242 104
243 101
244 129
245 115
246 83
247 111
248 122
249 28
251 39
254 6
255 157
256 126
257 101
258 121
259 152
260 172
261 61
262 145
263 16
268 31
269 137
270 110
271 28
272 149
273 175
274 70
275 17
276 50
277 29
283 70
284 152
285 77
287 111
288 109
297 61
301 48
302 75
303 5
312 238
313 68
315 87
330 303
331 141

$$$$

     RDKit          2D

 24 25  0  0  0  0  0  0  0  0999 V2000
   -2.1502    5.7689    0.0000 C   0  0  0  0  0  0  0  0  0  0  0  0
   -4.4002   -0.7189    0.0000 C   0  0  0  0  0  0  0  0  0  0  0  0
    1.9901   -2.6101    0.0000 C   0  0  0  0  0  0  0  0  0  0  0  0
    4.9402    3.7040    0.0000 C   0  0  0  0  0  0  0  0  0  0  0  0
   -3.6500    3.1700    0.0000 C   0  0  0  0  0  0  0  0  0  0  0  0
   -2.1500    3.1700    0.0000 C   0  0  0  0  0  0  0  0  0  0  0  0
   -4.4000    1.8800    0.0000 C   0  0  0  0  0  0  0  0  0  0  0  0
    0.1000    4.4700    0.0000 C   0  0  0  0  0  0  0  0  0  0  0  0
    0.8500    3.1700    0.0000 C   0  0  0  0  0  0  0  0  0  0  0  0
   -2.1500    0.5800    0.0000 C   0  0  0  0  0  0  0  0  0  0  0  0
    0.8500    0.5800    0.0000 C   0  0  0  0  0  0  0  0  0  0  0  0
   -1.4000    4.4700    0.0000 C   0  0  0  0  0  0  0  0  0  0  0  0
   -3.6500    0.5800    0.0000 C   0  0  0  0  0  0  0  0  0  0  0  0
    0.5635   -2.1466    0.0000 C   0  0  0  0  0  0  0  0  0  0  0  0
    4.5495    2.2558    0.0000 C   0  0  0  0  0  0  0  0  0  0  0  0
    3.1000    1.8700    0.0000 C   0  0  0  0  0  0  0  0  0  0  0  0
    0.1000   -0.7200    0.0000 C   0  0  0  0  0  0  0  0  0  0  0  0
    2.3500    0.5800    0.0000 C   0  0  0  0  0  0  0  0  0  0  0  0
   -1.4000   -0.7200    0.0000 C   0  0  0  0  0  0  0  0  0  0  0  0
   -0.6500   -3.0283    0.0000 C   0  0  0  0  0  0  0  0  0  0  0  0
    5.6084    1.1934    0.0000 O   0  0  0  0  0  0  0  0  0  0  0  0
    3.0980   -0.7202    0.0000 O   0  0  0  0  0  0  0  0  0  0  0  0
   -0.6500   -4.5283    0.0000 O   0  0  0  0  0  0  0  0  0  0  0  0
   -1.8635   -2.1466    0.0000 O   0  0  0  0  0  0  0  0  0  0  0  0
  6  5  1  0
  7  5  1  0
  9  8  1  0
 12  1  1  0
  6 12  2  0
 12  8  1  0
 13  2  1  0
 13  7  1  0
 10 13  2  0
 14  3  2  0
 15  4  1  0
 16  9  1  0
 16 15  1  0
 17 11  1  0
 17 14  1  0
 18 11  1  0
 18 16  1  0
 19 10  1  0
 19 17  1  0
 20 14  1  0
 21 15  2  0
 22 18  1  0
 23 20  2  0
 24 19  1  0
 24 20  1  0
M  END
>  <NAME>  (929) 
(9E,13E)-6-ACETYL-5-HYDROXY-9,13-DIMETHYL-3-METHYLENE-3,3A,4,5,6,7,8,11,12,14A-DECAHYDRO-2H-CYCLOTRIDECA(B)FURAN-2-ONE

>  <SYNONYMS>  (929) 


>  <SPECTRUM TYPE>  (929) 
MS1

>  <INSTRUMENT TYPE>  (929) 
EI-B

>  <INSTRUMENT>  (929) 
HITACHI RMU-6L

>  <ION MODE>  (929) 
P

>  <INCHIKEY>  (929) 
ZKOWAHHRXXUZGA-WAAHFECUSA-N

>  <FORMULA>  (929) 
C20H28O4

>  <EXACT MASS>  (929) 
332.198759376

>  <MW>  (929) 
332

>  <ID>  (929) 
JP010653

>  <CONTRIBUTOR>  (929) 
University of Tokyo Team, {Faculty of Engineering, University of Tokyo

>  <COMMENT>  (929) 
SMILES=[H]C(C1)=C(C)CCC(C(C)=O)C(O)CC(C(=C)2)C(OC(=O)2)C([H])=C(C)C1
InChI=InChI=1S/C20H28O4/c1-12-6-5-7-13(2)10-19-17(14(3)20(23)24-19)11-18(22)16(9-8-12)15(4)21/h6,10,16-19,22H,3,5,7-9,11H2,1-2,4H3/b12-6+,13-10+
computed SMILES=O=C1OC2C=C(C)CCC=C(C)CCC(C(=O)C)C(O)CC2C1=C
accession=JP010653
date=2016.01.19 (Created 2008.10.21, modified 2011.05.06)
author=EGUCHI S, FAC. OF SCIENCE, HIROSHIMA UNIV.
license=CC BY-NC-SA
exact mass=332.19876
ionization energy=70 eV
ion type=[M]+*
computed spectral entropy=4.447672110359326
computed normalized entropy=0.8340346233850249
SPLASH=splash10-0006-9810000000-cb63209e784be9ab94e5
submitter=submitter = University of Tokyo Team (Faculty of Engineering, University of Tokyo)
MoNA Rating=3.75

>  <NUM PEAKS>  (929) 
207

>  <MASS SPECTRAL PEAKS>  (929) 
40 2.3
41 16.9
42 1.9
43 99.99
44 3.1
45 5.4
47 1.5
51 0.23
52 1.5
53 22.3
54 4.6
55 2.77
56 2.7
57 8.1
58 1.1
59 0.15
60 1.2
65 5.6
66 3.1
67 1.54
68 8.5
69 10.8
70 3.1
71 1.23
72 1.5
73 1.2
77 10.8
78 0.51
79 20.8
80 6.9
81 43.8
82 1
83 7.7
84 6.5
85 8.5
87 0.31
88 10.4
91 18.5
92 4.6
93 2.15
94 9.2
95 28.5
96 3.1
97 1
98 2.3
99 1.9
100 2.3
101 0.15
103 2.3
104 1.5
105 18.5
106 0.54
107 15.4
108 6.2
109 12.3
110 0.31
111 5.8
112 1.5
113 2.3
115 0.23
116 1.2
117 4.6
118 2.7
119 1.39
120 6.2
121 19.2
122 7.7
123 1.23
124 3.8
125 3.5
126 1.2
127 0.12
128 1.5
129 2.3
130 1.9
131 0.81
132 2.3
133 10
134 5.8
135 0.77
136 5.4
137 19.2
138 15.4
139 0.62
140 33.4
141 3.8
142 1.5
143 0.38
144 1.5
145 7.7
146 3.8
147 1.08
148 4.6
149 9.2
150 6.2
151 0.73
152 2.3
153 1.9
154 1.5
155 0.23
156 1.2
157 3.1
158 2.3
159 0.62
160 3.1
161 7.3
162 3.5
163 0.46
164 5
165 11.9
166 3.8
167 0.31
169 1.9
170 1.2
171 3.1
172 0.15
173 5.4
174 3.1
175 6.2
176 0.5
177 3.8
178 2.3
179 2.3
180 0.12
181 1.5
183 2.3
184 1.5
185 0.31
186 1.9
187 4.6
188 1.9
189 0.31
190 1.9
191 3.1
192 4.6
193 0.23
194 1.5
195 1.5
197 1.5
199 0.23
200 1.2
201 3.1
202 1.5
203 0.35
204 2.3
205 2.3
206 1.2
207 0.15
211 1.5
213 1.2
215 3.1
216 0.15
217 1.9
218 1.2
219 2.3
220 0.12
221 1.9
223 1.2
225 2.7
226 0.12
227 1.5
228 1.2
229 1.5
230 0.15
231 1.9
232 1.9
233 2.3
234 0.12
235 1.2
243 2.3
244 1.5
245 0.15
251 1.2
252 0.8
253 3.1
254 0.15
255 0.8
256 1.2
257 1.2
258 0.08
259 0.8
261 1.9
262 1.2
263 0.08
268 1.2
269 1.5
270 1.5
271 0.62
272 2.3
273 1.2
274 0.8
275 0.08
285 0.8
286 1.5
287 0.8
288 0.08
289 2.3
290 1.2
296 1.9
297 0.12
298 0.5
299 0.5
314 4.6
315 0.15
316 0.8
332 4.5
333 1

>  <PREDICTED SPECTRUM>  (929) 
1 4
3 2
5 0
12 0
13 7
18 11
25 0
26 3
27 28
28 41
29 21
38 12
39 104
40 78
41 467
42 91
43 999
44 182
45 145
46 4
47 37
49 76
50 34
51 132
52 125
53 411
54 258
55 503
56 138
57 171
58 145
59 112
60 88
61 80
62 6
63 61
64 54
65 230
66 168
67 481
68 311
69 357
70 150
71 408
72 121
73 101
74 24
77 351
78 164
79 490
80 282
81 488
82 293
83 314
84 332
85 240
86 54
87 86
88 41
89 26
90 4
91 447
92 210
93 448
94 274
95 464
96 237
97 258
98 129
99 143
100 55
101 28
103 103
104 60
105 381
106 234
107 441
108 311
109 390
110 208
111 217
112 108
113 99
114 6
115 94
116 79
117 177
118 151
119 355
120 250
121 422
122 330
123 366
124 243
125 162
126 83
127 78
128 99
129 113
130 73
131 192
132 153
133 331
134 249
135 349
136 213
137 304
138 178
139 145
140 76
141 127
142 62
143 156
144 107
145 206
146 134
147 253
148 201
149 240
150 218
151 172
152 168
153 164
154 82
155 125
156 66
157 164
158 116
159 228
160 129
161 215
162 204
163 176
164 133
165 229
166 118
167 112
168 111
169 131
170 74
171 137
172 111
173 204
174 180
175 217
176 147
177 214
178 177
179 139
180 69
181 136
182 64
183 133
184 49
185 114
186 81
187 149
188 138
189 107
190 111
191 160
192 224
193 180
194 79
195 103
196 36
197 97
198 11
199 92
200 65
201 145
202 108
203 144
204 122
205 171
206 68
207 96
209 133
210 48
211 139
212 6
213 90
214 79
215 126
216 83
217 105
218 111
219 90
220 44
221 62
222 8
223 59
225 82
226 67
227 127
228 42
229 129
230 61
231 111
232 61
233 140
235 31
237 31
239 64
240 11
241 79
242 43
243 91
244 107
245 38
246 55
247 49
253 81
254 33
255 61
256 98
257 68
258 17
259 76
260 20
261 53
262 10
263 5
268 62
269 50
270 86
271 183
272 96
273 102
274 101
275 39
281 78
284 15
285 29
286 73
287 55
288 21
289 149
290 60
296 70
297 103
298 72
299 57
304 6
314 201
315 95
317 31
318 4
332 216
333 105
334 2

$$$$

     RDKit          2D

 23 24  0  0  0  0  0  0  0  0999 V2000
   -2.1502    5.7689    0.0000 C   0  0  0  0  0  0  0  0  0  0  0  0
   -4.4002   -0.7189    0.0000 C   0  0  0  0  0  0  0  0  0  0  0  0
    1.9901   -2.6101    0.0000 C   0  0  0  0  0  0  0  0  0  0  0  0
    4.9402    3.7040    0.0000 C   0  0  0  0  0  0  0  0  0  0  0  0
   -3.6500    3.1700    0.0000 C   0  0  0  0  0  0  0  0  0  0  0  0
   -2.1500    3.1700    0.0000 C   0  0  0  0  0  0  0  0  0  0  0  0
   -4.4000    1.8800    0.0000 C   0  0  0  0  0  0  0  0  0  0  0  0
    0.1000    4.4700    0.0000 C   0  0  0  0  0  0  0  0  0  0  0  0
    0.8500    3.1700    0.0000 C   0  0  0  0  0  0  0  0  0  0  0  0
    2.3500    0.5800    0.0000 C   0  0  0  0  0  0  0  0  0  0  0  0
    0.8500    0.5800    0.0000 C   0  0  0  0  0  0  0  0  0  0  0  0
   -2.1500    0.5800    0.0000 C   0  0  0  0  0  0  0  0  0  0  0  0
   -1.4000    4.4700    0.0000 C   0  0  0  0  0  0  0  0  0  0  0  0
   -3.6500    0.5800    0.0000 C   0  0  0  0  0  0  0  0  0  0  0  0
    0.5635   -2.1466    0.0000 C   0  0  0  0  0  0  0  0  0  0  0  0
    4.5495    2.2558    0.0000 C   0  0  0  0  0  0  0  0  0  0  0  0
    3.1000    1.8700    0.0000 C   0  0  0  0  0  0  0  0  0  0  0  0
    0.1000   -0.7200    0.0000 C   0  0  0  0  0  0  0  0  0  0  0  0
   -1.4000   -0.7200    0.0000 C   0  0  0  0  0  0  0  0  0  0  0  0
   -0.6500   -3.0283    0.0000 C   0  0  0  0  0  0  0  0  0  0  0  0
    5.6084    1.1934    0.0000 O   0  0  0  0  0  0  0  0  0  0  0  0
   -0.6500   -4.5283    0.0000 O   0  0  0  0  0  0  0  0  0  0  0  0
   -1.8635   -2.1466    0.0000 O   0  0  0  0  0  0  0  0  0  0  0  0
  6  5  1  0
  7  5  1  0
  9  8  1  0
 11 10  1  0
 13  1  1  0
  6 13  2  0
 13  8  1  0
 14  2  1  0
 14  7  1  0
 12 14  2  0
 15  3  2  0
 16  4  1  0
 17  9  1  0
 10 17  2  0
 17 16  1  0
 18 11  1  0
 18 15  1  0
 19 12  1  0
 19 18  1  0
 20 15  1  0
 21 16  2  0
 22 20  2  0
 23 19  1  0
 23 20  1  0
M  END
>  <NAME>  (930) 
(5E,9E,13E)-6-ACETYL-9,13-DIMETHYL-3-METHYLENE-3,3A,4,7,8,11,14A-OCTAHYDRO-2H-CYCLOTRIDECA(B)FURAN-2-ONE

>  <SYNONYMS>  (930) 


>  <SPECTRUM TYPE>  (930) 
MS1

>  <INSTRUMENT TYPE>  (930) 
EI-B

>  <INSTRUMENT>  (930) 
HITACHI RMU-6L

>  <ION MODE>  (930) 
P

>  <INCHIKEY>  (930) 
JDQTWBYKDQDUAX-UXXKIGRPSA-N

>  <FORMULA>  (930) 
C20H26O3

>  <EXACT MASS>  (930) 
314.188194692

>  <MW>  (930) 
314

>  <ID>  (930) 
JP010652

>  <CONTRIBUTOR>  (930) 
University of Tokyo Team, {Faculty of Engineering, University of Tokyo

>  <COMMENT>  (930) 
SMILES=[H]C(C1)=C(C)CCC(C(C)=O)=C([H])CC(C(=C)2)C(OC(=O)2)C([H])=C(C)C1
InChI=InChI=1S/C20H26O3/c1-13-6-5-7-14(2)12-19-18(15(3)20(22)23-19)11-10-17(9-8-13)16(4)21/h6,10,12,18-19H,3,5,7-9,11H2,1-2,4H3/b13-6+,14-12+,17-10+
computed SMILES=O=C1OC2C=C(C)CCC=C(C)CCC(=CCC2C1=C)C(=O)C
license=CC BY-NC-SA
accession=JP010652
date=2016.01.19 (Created 2008.10.21, modified 2011.05.06)
author=EGUCHI S, FAC. OF SCIENCE, HIROSHIMA UNIV.
exact mass=314.18819
ionization energy=70 eV
ion type=[M]+*
computed spectral entropy=4.090034252264939
computed normalized entropy=0.8130572956425252
SPLASH=splash10-0006-9620000000-61dc0f5a58b7c01bf756
submitter=submitter = University of Tokyo Team (Faculty of Engineering, University of Tokyo)
MoNA Rating=3.75

>  <NUM PEAKS>  (930) 
153

>  <MASS SPECTRAL PEAKS>  (930) 
40 3
41 18
42 2
43 99.99
44 3.5
45 2
46 1.5
50 0.25
51 3
52 1.5
53 9
54 0.1
55 15
56 1
57 1.5
65 0.55
66 1
67 11
68 9
69 0.45
70 1
71 2
77 11.5
78 0.2
79 12
80 3
81 11
82 0.2
83 2.5
84 2
85 1
91 1.5
92 2.5
93 8
94 3
95 0.7
96 1.5
97 2
103 2
104 0.15
105 12.5
106 2.5
107 11
108 0.65
109 5.5
110 1
111 1
115 0.25
116 1
117 3.5
118 1
119 0.8
120 3
121 9.5
122 3.5
123 0.25
128 2
129 2.5
130 1.5
131 0.45
132 2.5
133 8.5
134 5.5
135 0.55
136 3.5
137 4
138 1.5
141 0.15
142 1.5
143 3.5
144 1.5
145 0.45
146 2
147 7.5
148 2
149 0.45
150 2
151 2.5
152 2
153 0.1
155 1
156 1
157 3
158 0.15
159 5.5
160 2
161 3
162 0.6
163 11.5
164 2
165 1
168 0.25
170 1
171 3.5
172 2
173 0.55
174 2
175 4
176 2
177 0.25
183 2.5
184 1
185 5
186 0.15
187 3
188 1
189 2.5
190 0.1
191 1
197 3
198 1
199 0.25
200 1.4
201 3
202 1
203 0.5
204 0.8
205 1.4
206 1.4
207 0.1
211 1
213 1.8
215 3.4
216 0.16
217 2.2
218 1.2
221 1.2
225 0.36
226 1.2
227 2.2
228 2
229 0.38
230 2
231 4.2
232 1.2
233 0.12
243 0.8
247 1.4
248 1.2
253 0.44
254 2
255 1
268 1.8
269 0.2
270 1.6
271 13
272 3.2
281 0.14
296 3.4
297 1
299 1.8
314 0.52
315 1

>  <PREDICTED SPECTRUM>  (930) 
0 4
1 3
2 5
10 0
18 3
23 1
25 4
26 15
27 66
28 35
29 36
31 24
37 5
38 19
39 170
40 102
41 461
42 99
43 999
44 135
45 109
46 2
47 42
48 9
49 76
50 73
51 169
52 127
53 349
54 148
55 363
56 88
57 100
58 55
59 77
60 29
61 50
62 28
63 69
64 56
65 220
66 122
67 313
68 202
69 274
70 101
71 240
72 49
73 33
74 24
75 3
76 25
77 311
78 146
79 343
80 150
81 331
82 160
83 202
84 204
85 163
86 50
87 43
88 34
89 41
90 17
91 377
92 164
93 318
94 173
95 254
96 149
97 147
98 90
99 86
100 14
101 16
102 12
103 119
104 68
105 303
106 145
107 304
108 169
109 222
110 132
111 173
112 73
113 56
114 17
115 124
116 76
117 144
118 86
119 274
120 139
121 283
122 230
123 221
124 123
125 84
126 53
127 61
128 107
129 125
130 71
131 161
132 120
133 216
134 172
135 243
136 153
137 134
138 78
139 105
140 49
141 70
142 48
143 101
144 86
145 182
146 128
147 204
148 145
149 152
150 122
151 121
152 74
153 81
154 24
155 103
156 44
157 157
158 97
159 197
160 130
161 229
162 183
163 156
164 99
165 179
166 32
167 43
168 21
169 75
170 39
171 91
172 105
173 111
174 139
175 129
176 90
177 110
178 101
179 63
181 29
182 41
183 91
184 56
185 120
186 72
187 167
188 113
189 124
190 98
191 113
192 75
193 83
194 6
195 40
197 100
198 48
199 123
200 93
201 99
202 110
203 159
204 132
205 85
206 37
207 46
209 23
210 20
211 87
212 22
213 96
214 48
215 112
216 63
217 78
218 67
219 84
221 42
225 64
226 39
227 56
228 76
229 109
230 69
231 79
232 50
233 36
235 19
237 17
238 14
239 45
240 29
241 71
242 23
243 86
244 25
245 43
246 29
247 14
249 2
253 102
254 46
255 105
256 106
257 74
258 21
259 11
263 33
267 9
268 42
269 64
270 11
271 142
272 108
273 12
281 39
286 44
287 37
296 106
297 77
298 24
299 100
300 28
312 29
314 192
315 113
316 20

$$$$

     RDKit          2D

 26 27  0  0  1  0  0  0  0  0999 V2000
    4.6002    2.6987    0.0000 C   0  0  0  0  0  0  0  0  0  0  0  0
    2.3504    3.9981    0.0000 C   0  0  0  0  0  0  0  0  0  0  0  0
   -2.1502    3.9989    0.0000 C   0  0  0  0  0  0  0  0  0  0  0  0
   -6.6504   -3.7976    0.0000 C   0  0  0  0  0  0  0  0  0  0  0  0
   -3.1346   -2.3316    0.0000 C   0  0  0  0  0  0  0  0  0  0  0  0
   -0.6500   -3.1563    0.0000 C   0  0  0  0  0  0  0  0  0  0  0  0
    0.6608   -2.5546    0.0000 C   0  0  0  0  0  0  0  0  0  0  0  0
    0.1000    2.7000    0.0000 C   0  0  0  0  0  0  0  0  0  0  0  0
   -2.1500    1.4000    0.0000 C   0  0  0  0  0  0  0  0  0  0  0  0
    0.8500    1.4000    0.0000 C   0  0  0  0  0  0  0  0  0  0  0  0
    3.1000    0.1000    0.0000 C   0  0  0  0  0  0  0  0  0  0  0  0
    2.3500   -1.2000    0.0000 C   0  0  0  0  0  0  0  0  0  0  0  0
   -4.4000    0.1000    0.0000 C   0  0  0  0  0  0  0  0  0  0  0  0
   -1.9608   -2.5546    0.0000 C   0  0  0  0  0  0  0  0  0  0  0  0
    3.1002    2.6989    0.0000 C   0  0  0  0  0  0  0  0  0  0  0  0
   -1.4000    2.7000    0.0000 C   0  0  0  0  0  0  0  0  0  0  0  0
   -5.9002   -2.4987    0.0000 C   0  0  0  0  0  0  0  0  0  0  0  0
    2.3500    1.4000    0.0000 C   0  0  0  0  0  0  0  0  0  0  0  0
    0.8500   -1.2000    0.0000 C   0  0  0  0  0  0  0  0  0  0  0  0
   -3.6500   -1.2000    0.0000 C   0  0  0  0  0  0  0  0  0  0  0  0
    0.1000    0.1000    0.0000 C   0  0  0  0  0  0  0  0  0  0  0  0
   -2.1500   -1.2000    0.0000 C   0  0  0  0  0  0  0  0  0  0  0  0
   -6.6500   -1.1995    0.0000 O   0  0  0  0  0  0  0  0  0  0  0  0
   -0.6502   -1.1989    0.0000 O   0  0  0  0  0  0  0  0  0  0  0  0
   -4.4002   -2.4989    0.0000 O   0  0  0  0  0  0  0  0  0  0  0  0
   -1.4000    0.1000    0.0000 O   0  0  0  0  0  0  0  0  0  0  0  0
  7  6  1  0
 10  8  1  0
 12 11  1  0
 13  9  1  0
 14  6  1  0
 15  1  1  0
 15  2  1  0
 16  3  1  0
  8 16  2  0
 16  9  1  0
 17  4  1  0
 10 18  2  3
 18 11  1  0
 18 15  1  0
 19  7  2  0
 19 12  1  0
 20 13  1  0
 21 19  1  0
 22  5  1  0
 22 14  1  0
 22 20  1  0
 23 17  2  0
 24 21  2  0
 25 17  1  0
 20 25  1  6
 26 21  1  0
 26 22  1  0
M  END
>  <NAME>  (931) 
7ALPHA-ACETOXYSARCOPHYTOLIDE

>  <SYNONYMS>  (931) 
(1Z,5S,6R,9E,11E)-5,9-DIMETHYL-6-ACETOXY-12-ISOPROPYLCYCLOTETRADECA-1,9,11-TRIENE-1,5-CARBOLACTONE

>  <SPECTRUM TYPE>  (931) 
MS1

>  <INSTRUMENT TYPE>  (931) 
EI-B

>  <INSTRUMENT>  (931) 
HITACHI RMU-6L

>  <ION MODE>  (931) 
P

>  <INCHIKEY>  (931) 
PSJHYYPVPGHZAJ-FPJKZIJLSA-N

>  <FORMULA>  (931) 
C22H32O4

>  <EXACT MASS>  (931) 
360.230059504

>  <MW>  (931) 
360

>  <ID>  (931) 
JP010651

>  <CONTRIBUTOR>  (931) 
University of Tokyo Team, {Faculty of Engineering, University of Tokyo

>  <COMMENT>  (931) 
SMILES=CC(=O)OC([H])(C2)C(C)(C1)OC(=O)C(CCC(C(C)C)=C([H])C([H])=C(C)C2)=C([H])C1
InChI=InChI=1S/C22H32O4/c1-15(2)18-10-8-16(3)9-13-20(25-17(4)23)22(5)14-6-7-19(12-11-18)21(24)26-22/h7-8,10,15,20H,6,9,11-14H2,1-5H3/b16-8+,18-10+/t20-,22?/m1/s1
computed SMILES=O=C1OC2(C)CCC=C1CCC(=CC=C(C)CCC2OC(=O)C)C(C)C
computed InChI=InChI=1S/C22H32O4/c1-15(2)18-10-8-16(3)9-13-20(25-17(4)23)22(5)14-6-7-19(12-11-18)21(24)26-22/h7-8,10,15,20H,6,9,11-14H2,1-5H3/b16-8-,18-10?/t20-,22?/m1/s1
accession=JP010651
date=2016.01.19 (Created 2008.10.21, modified 2011.05.06)
author=EGUCHI S, FAC. OF SCIENCE, HIROSHIMA UNIV.
license=CC BY-NC-SA
exact mass=360.23006
ionization energy=70 eV
ion type=[M]+*
computed spectral entropy=4.277863363589088
computed normalized entropy=0.8291950978390165
SPLASH=splash10-0006-7910000000-8f678fc5f26455ecb4c1
submitter=submitter = University of Tokyo Team (Faculty of Engineering, University of Tokyo)
MoNA Rating=3.75

>  <NUM PEAKS>  (931) 
174

>  <MASS SPECTRAL PEAKS>  (931) 
41 35.3
42 2.5
43 99.99
44 0.29
45 2
51 1.6
52 1.2
53 1.43
54 1.8
55 24.8
56 2
57 0.78
58 1.9
59 1.1
60 1.4
61 0.1
65 6.1
66 2.8
67 15.1
68 0.39
69 20.6
70 2.3
71 5.3
72 0.12
73 1.3
77 14.7
78 3.4
79 1.98
80 5.3
81 20.9
82 3.3
83 0.59
84 1.6
85 2.5
91 23.6
92 0.63
93 39.2
94 7.3
95 19.6
96 0.29
97 4.1
98 1.7
99 1.9
103 0.22
104 1.5
105 21
106 6
107 2.98
108 7.1
109 10.1
110 2.9
111 0.37
112 1.1
113 1.3
115 2.9
116 0.16
117 6.4
118 2.9
119 19.7
120 0.7
121 27.6
122 6.8
123 8.2
124 0.24
125 2.4
127 1.3
128 2.3
129 0.37
130 1.9
131 9.9
132 2.9
133 1.78
134 10.1
135 20.6
136 10.2
137 0.58
138 2
139 2
141 2
142 0.14
143 5
144 2
145 10.4
146 0.65
147 19.2
148 12.5
149 15.7
150 0.41
151 5.2
152 51.2
153 8.7
154 0.23
155 2.3
156 1.3
157 2.9
158 0.18
159 11
160 3.7
161 6.6
162 0.29
163 4
164 8.1
165 4.2
166 0.29
167 1.6
169 2.1
171 4.2
172 0.17
173 6.2
174 2.6
175 4.7
176 0.2
177 3.5
178 2.5
179 1.6
183 0.21
185 3.9
186 1.8
187 7.3
188 0.25
189 5.2
190 2.4
191 2.9
192 0.23
193 1.5
197 1.8
199 3.5
200 0.13
201 3.7
202 2.2
203 3.1
204 0.17
205 2.1
206 1.3
207 1.1
211 0.32
212 1.1
213 2.9
214 1.5
215 0.26
216 1.9
217 4.1
218 2.1
219 0.16
225 1.1
227 1.4
229 2.5
230 0.13
231 4.7
232 2.5
239 2.9
240 0.1
241 1.1
242 2
243 1.8
244 0.13
245 1.3
255 10.4
256 3.1
257 0.78
258 2.1
271 1.4
272 3.5
273 0.17
274 1.1
275 2.3
285 3.5
286 0.1
300 4.2
301 1.7
317 1.4
318 0.12
360 13.4
367 3.6

>  <PREDICTED SPECTRUM>  (931) 
0 0
3 0
10 0
19 1
23 0
25 0
26 19
27 65
28 20
29 69
31 22
38 2
39 65
40 47
41 417
42 121
43 999
44 130
45 160
46 18
47 31
48 18
49 36
50 35
51 111
52 63
53 244
54 96
55 417
56 136
57 190
58 58
59 51
60 54
61 71
63 41
64 10
65 170
66 90
67 264
68 89
69 262
70 61
71 236
72 37
73 29
74 3
77 260
78 124
79 287
80 116
81 372
82 149
83 276
84 89
85 185
86 68
87 70
91 410
92 139
93 321
94 133
95 328
96 160
97 194
98 95
99 141
100 55
101 28
102 3
103 67
104 73
105 335
106 142
107 303
108 137
109 359
110 137
111 174
112 44
113 32
115 124
116 79
117 195
118 115
119 283
120 140
121 336
122 232
123 247
124 106
125 98
126 41
127 54
128 93
129 135
130 61
131 228
132 127
133 257
134 202
135 225
136 199
137 280
138 140
139 90
140 3
141 104
142 58
143 176
144 96
145 236
146 95
147 235
148 111
149 230
150 143
151 168
152 128
153 114
154 27
155 74
156 85
157 205
158 80
159 211
160 144
161 206
162 153
163 157
164 118
165 166
166 81
167 77
168 28
169 82
171 139
172 28
173 151
174 86
175 96
176 92
177 157
178 130
179 109
180 85
181 113
182 40
183 97
184 45
185 180
186 40
187 119
188 41
189 106
190 87
191 141
192 84
193 106
194 52
195 93
196 2
197 68
198 38
199 111
200 38
201 183
202 87
203 154
204 88
205 110
206 82
207 86
208 17
209 82
210 13
211 73
212 10
213 38
214 22
215 153
216 49
217 128
218 132
219 115
220 19
223 7
225 21
227 75
228 42
229 65
230 38
231 95
232 73
233 182
235 33
237 34
238 42
239 49
242 29
243 95
244 33
245 67
247 6
249 15
250 28
251 67
252 0
253 10
255 117
256 25
257 174
258 74
259 114
260 38
262 0
265 11
267 49
271 66
272 104
273 5
274 40
275 8
279 14
282 25
283 26
284 13
285 107
286 54
288 20
299 62
300 248
301 86
302 14
316 10
317 74
318 27
360 186
361 61
362 22

$$$$

     RDKit          2D

 23 24  0  0  0  0  0  0  0  0999 V2000
    4.6002    2.6987    0.0000 C   0  0  0  0  0  0  0  0  0  0  0  0
    2.3504    3.9981    0.0000 C   0  0  0  0  0  0  0  0  0  0  0  0
   -2.1502    3.9989    0.0000 C   0  0  0  0  0  0  0  0  0  0  0  0
   -3.1346   -2.3316    0.0000 C   0  0  0  0  0  0  0  0  0  0  0  0
   -0.6500   -3.1563    0.0000 C   0  0  0  0  0  0  0  0  0  0  0  0
    0.6608   -2.5546    0.0000 C   0  0  0  0  0  0  0  0  0  0  0  0
    0.1000    2.7000    0.0000 C   0  0  0  0  0  0  0  0  0  0  0  0
   -2.1500    1.4000    0.0000 C   0  0  0  0  0  0  0  0  0  0  0  0
    0.8500    1.4000    0.0000 C   0  0  0  0  0  0  0  0  0  0  0  0
    3.1000    0.1000    0.0000 C   0  0  0  0  0  0  0  0  0  0  0  0
    2.3500   -1.2000    0.0000 C   0  0  0  0  0  0  0  0  0  0  0  0
   -4.4000    0.1000    0.0000 C   0  0  0  0  0  0  0  0  0  0  0  0
   -1.9608   -2.5546    0.0000 C   0  0  0  0  0  0  0  0  0  0  0  0
    3.1002    2.6989    0.0000 C   0  0  0  0  0  0  0  0  0  0  0  0
   -1.4000    2.7000    0.0000 C   0  0  0  0  0  0  0  0  0  0  0  0
    2.3500    1.4000    0.0000 C   0  0  0  0  0  0  0  0  0  0  0  0
    0.8500   -1.2000    0.0000 C   0  0  0  0  0  0  0  0  0  0  0  0
   -3.6500   -1.2000    0.0000 C   0  0  0  0  0  0  0  0  0  0  0  0
    0.1000    0.1000    0.0000 C   0  0  0  0  0  0  0  0  0  0  0  0
   -2.1500   -1.2000    0.0000 C   0  0  0  0  0  0  0  0  0  0  0  0
   -4.4002   -2.4989    0.0000 O   0  0  0  0  0  0  0  0  0  0  0  0
   -0.6502   -1.1989    0.0000 O   0  0  0  0  0  0  0  0  0  0  0  0
   -1.4000    0.1000    0.0000 O   0  0  0  0  0  0  0  0  0  0  0  0
  6  5  1  0
  9  7  1  0
 11 10  1  0
 12  8  1  0
 13  5  1  0
 14  1  1  0
 14  2  1  0
 15  3  1  0
  7 15  2  0
 15  8  1  0
  9 16  2  3
 16 10  1  0
 16 14  1  0
 17  6  2  0
 17 11  1  0
 18 12  1  0
 19 17  1  0
 20  4  1  0
 20 13  1  0
 20 18  1  0
 21 18  2  0
 22 19  2  0
 23 19  1  0
 23 20  1  0
M  END
>  <NAME>  (932) 
SARCOPHYTOLIDE

>  <SYNONYMS>  (932) 
(1Z,5S,9E,11E)-5,9-DIMETHYL-12-ISOPROPYL-6-OXOCYCLOTETRADECA-1,9,11-TRIENE-1,5-CARBOLACTONE

>  <SPECTRUM TYPE>  (932) 
MS1

>  <INSTRUMENT TYPE>  (932) 
EI-B

>  <INSTRUMENT>  (932) 
HITACHI RMU-6L

>  <ION MODE>  (932) 
P

>  <INCHIKEY>  (932) 
PSZUHEPXMXTNIL-CZCKSJKESA-N

>  <FORMULA>  (932) 
C20H28O3

>  <EXACT MASS>  (932) 
316.20384475599997

>  <MW>  (932) 
316

>  <ID>  (932) 
JP010650

>  <CONTRIBUTOR>  (932) 
University of Tokyo Team, {Faculty of Engineering, University of Tokyo

>  <COMMENT>  (932) 
SMILES=CC(C)C(C2)=C([H])C([H])=C(C)CCC(=O)C(C)(C1)OC(=O)C(C2)=C([H])C1
InChI=InChI=1S/C20H28O3/c1-14(2)16-9-7-15(3)8-12-18(21)20(4)13-5-6-17(11-10-16)19(22)23-20/h6-7,9,14H,5,8,10-13H2,1-4H3/b15-7-,16-9+
computed SMILES=O=C1OC2(C(=O)CCC(=CC=C(CCC1=CCC2)C(C)C)C)C
computed InChI=InChI=1S/C20H28O3/c1-14(2)16-9-7-15(3)8-12-18(21)20(4)13-5-6-17(11-10-16)19(22)23-20/h6-7,9,14H,5,8,10-13H2,1-4H3/b15-7-,16-9?
accession=JP010650
date=2016.01.19 (Created 2008.10.21, modified 2011.05.06)
author=EGUCHI S, FAC. OF SCIENCE, HIROSHIMA UNIV.
license=CC BY-NC-SA
exact mass=316.20384
ionization energy=70 eV
ion type=[M]+*
computed spectral entropy=4.142462373977501
computed normalized entropy=0.8152199818071685
SPLASH=splash10-053u-9500000000-df0166861c14d165db17
submitter=submitter = University of Tokyo Team (Faculty of Engineering, University of Tokyo)
MoNA Rating=3.75

>  <NUM PEAKS>  (932) 
161

>  <MASS SPECTRAL PEAKS>  (932) 
40 4.1
41 54.6
42 5.2
43 7.24
45 1.9
47 18.7
48 12.8
49 0.8
50 4.5
51 5
52 2.9
53 1.88
54 4.7
55 49.1
56 3.8
57 0.57
58 2
59 1.7
63 1.1
65 0.89
66 3.9
67 14.5
68 2.8
69 1.74
70 2.1
71 6.7
74 1.1
77 1.59
78 3.9
79 17.1
80 4.8
81 1.87
82 4.7
83 99.99
84 7.3
85 4.1
87 8.7
91 24.4
92 4.9
93 1.94
94 5.1
95 12
96 2.6
97 0.36
98 1.8
99 3.4
103 1.8
104 0.13
105 14.4
106 3.1
107 17.9
108 0.38
109 8.3
110 2.6
111 23.4
112 1.26
113 1.5
115 2.3
116 1.4
117 0.33
118 1.5
119 9.9
120 4.3
121 1.61
122 6.3
123 6
124 3.7
125 0.5
126 2.5
127 1.4
128 1.6
129 0.25
131 4.8
132 1.8
133 10.5
134 1.57
135 9.1
136 8.3
137 4.7
138 0.13
139 2.4
141 1.5
143 3.5
144 0.14
145 5.1
146 2.4
147 6.7
148 0.25
149 6
150 2.2
151 2.6
152 0.7
153 4.4
154 1.2
157 2.3
158 0.11
159 4.6
160 1.7
161 4.8
162 0.21
163 2.8
164 1.4
165 1.8
167 0.19
171 4.2
173 3.9
174 1.6
175 0.45
176 2.8
177 2.1
178 1.2
179 0.14
182 8.3
183 2
185 2.3
186 0.21
187 6.4
188 2.5
189 4.1
190 0.12
191 2.3
199 2.1
201 2.2
202 0.14
203 2.7
204 1.6
205 1.1
207 0.17
213 1.1
214 1.1
215 1.4
217 0.37
218 1.4
219 1.1
227 3.4
228 0.08
229 1
231 2.3
232 3.9
233 0.11
245 1.9
255 1.8
256 0.6
257 0.06
258 0.3
259 0.7
260 0.4
270 0.25
271 1.4
272 0.9
273 1.5
274 0.05
283 0.5
288 1
289 0.3
298 0.1
299 0.3
301 0.7
316 13
317 0.29
318 0.4

>  <PREDICTED SPECTRUM>  (932) 
0 0
1 12
2 7
3 2
27 20
29 22
38 1
39 219
40 125
41 862
42 273
43 999
44 200
45 177
47 63
49 63
50 67
51 204
52 167
53 519
54 236
55 887
56 273
57 309
58 122
59 123
60 56
61 47
62 0
63 105
64 35
65 314
66 194
67 528
68 297
69 616
70 161
71 342
72 83
73 94
74 18
76 13
77 478
78 237
79 550
80 249
81 489
82 289
83 745
84 395
85 337
86 87
87 64
89 58
91 654
92 259
93 525
94 251
95 522
96 260
97 208
98 205
99 151
100 108
101 0
102 12
103 120
104 130
105 472
106 213
107 390
108 204
109 468
110 265
111 357
112 192
113 131
114 27
115 225
116 105
117 216
118 150
119 500
120 182
121 450
122 340
123 360
124 236
125 131
126 71
127 115
128 159
129 191
130 103
131 274
132 229
133 429
134 334
135 390
136 278
137 351
138 189
139 154
140 115
141 155
142 58
143 171
144 91
145 305
146 200
147 352
148 181
149 335
150 110
151 185
152 101
153 147
154 114
155 165
156 19
157 177
158 93
159 284
160 202
161 346
162 257
163 276
164 175
165 187
166 134
167 97
168 23
169 75
170 10
171 193
172 85
173 180
174 168
175 252
176 144
177 170
178 111
179 31
181 45
182 66
183 144
184 74
185 194
186 58
187 209
188 188
189 246
190 145
191 133
192 71
193 58
194 16
195 52
199 195
200 38
201 202
202 78
203 163
204 130
205 239
206 152
211 19
213 69
214 70
215 184
216 89
217 182
218 150
219 190
220 13
227 135
228 55
229 92
230 133
231 246
232 181
233 124
234 2
235 16
237 17
242 1
243 29
244 26
245 115
246 81
247 37
255 267
256 90
257 7
258 28
259 28
269 5
270 70
273 221
274 78
283 48
284 1
285 47
287 5
288 102
289 26
298 65
299 17
301 112
302 8
316 381
317 163
318 16

$$$$

     RDKit          2D

 22 22  0  0  1  0  0  0  0  0999 V2000
    0.1004    7.0681    0.0000 C   0  0  0  0  0  0  0  0  0  0  0  0
    2.3502    5.7687    0.0000 C   0  0  0  0  0  0  0  0  0  0  0  0
   -4.3980    4.4702    0.0000 C   0  0  0  0  0  0  0  0  0  0  0  0
   -2.1502   -2.0189    0.0000 C   0  0  0  0  0  0  0  0  0  0  0  0
    4.6000    1.8675    0.0000 C   0  0  0  0  0  0  0  0  0  0  0  0
    3.1002   -0.7187    0.0000 C   0  0  0  0  0  0  0  0  0  0  0  0
   -3.6500    0.5800    0.0000 C   0  0  0  0  0  0  0  0  0  0  0  0
   -4.4000    1.8800    0.0000 C   0  0  0  0  0  0  0  0  0  0  0  0
   -2.1500    0.5800    0.0000 C   0  0  0  0  0  0  0  0  0  0  0  0
   -2.1500    3.1700    0.0000 C   0  0  0  0  0  0  0  0  0  0  0  0
    2.3500    3.1700    0.0000 C   0  0  0  0  0  0  0  0  0  0  0  0
   -1.4000    4.4700    0.0000 C   0  0  0  0  0  0  0  0  0  0  0  0
    0.8500    3.1700    0.0000 C   0  0  0  0  0  0  0  0  0  0  0  0
    0.1000   -0.7200    0.0000 C   0  0  0  0  0  0  0  0  0  0  0  0
    2.3500    0.5800    0.0000 C   0  0  0  0  0  0  0  0  0  0  0  0
    0.8502    5.7689    0.0000 C   0  0  0  0  0  0  0  0  0  0  0  0
   -3.6500    3.1700    0.0000 C   0  0  0  0  0  0  0  0  0  0  0  0
   -1.4000   -0.7200    0.0000 C   0  0  0  0  0  0  0  0  0  0  0  0
    3.1000    1.8700    0.0000 C   0  0  0  0  0  0  0  0  0  0  0  0
    0.1000    4.4700    0.0000 C   0  0  0  0  0  0  0  0  0  0  0  0
    0.8500    0.5800    0.0000 C   0  0  0  0  0  0  0  0  0  0  0  0
    1.6002   -0.7189    0.0000 O   0  0  0  0  0  0  0  0  0  0  0  0
  8  7  1  0
  9  7  1  0
 10 12  2  0
 13 11  1  0
 16  1  1  0
 16  2  1  0
 17  3  1  0
  8 17  2  0
 17 10  1  0
 18  4  1  0
  9 18  2  0
 18 14  1  0
 19  5  1  0
 19 11  1  0
 15 19  2  3
 20 12  1  0
 20 13  1  0
 20 16  1  6
 21 14  1  0
 21 15  1  0
 22  6  1  0
 21 22  1  1
M  END
>  <NAME>  (933) 
(1S,2E,7E,10R,11E)-10-METHOXYCEMBRA-2,4,7,11-TETRAENE

>  <SYNONYMS>  (933) 


>  <SPECTRUM TYPE>  (933) 
MS1

>  <INSTRUMENT TYPE>  (933) 
EI-B

>  <INSTRUMENT>  (933) 
HITACHI RMU-6L

>  <ION MODE>  (933) 
P

>  <INCHIKEY>  (933) 
SBUSWOSYOAFPAG-LVRFIZCKSA-N

>  <FORMULA>  (933) 
C21H34O

>  <EXACT MASS>  (933) 
302.26096570799996

>  <MW>  (933) 
302

>  <ID>  (933) 
JP010648

>  <CONTRIBUTOR>  (933) 
University of Tokyo Team, {Faculty of Engineering, University of Tokyo

>  <COMMENT>  (933) 
SMILES=COC([H])(C1)C([H])=C(C)CCC([H])(C(C)C)C([H])=C([H])C(C)=C([H])CC([H])=C(C)1
InChI=InChI=1S/C21H34O/c1-16(2)20-12-10-17(3)8-7-9-18(4)14-21(22-6)15-19(5)11-13-20/h8-10,12,15-16,20-21H,7,11,13-14H2,1-6H3/b12-10+,17-8-,18-9+,19-15+/t20-,21+/m0/s1
computed SMILES=O(C)C1C=C(C)CCC(C=CC(=CCC=C(C)C1)C)C(C)C
computed InChI=InChI=1S/C21H34O/c1-16(2)20-12-10-17(3)8-7-9-18(4)14-21(22-6)15-19(5)11-13-20/h8-10,12,15-16,20-21H,7,11,13-14H2,1-6H3/b12-10+,17-8-,18-9+,19-15?/t20-,21+/m0/s1
accession=JP010648
date=2016.01.19 (Created 2008.10.21, modified 2011.05.06)
author=EGUCHI S, FAC. OF SCIENCE, HIROSHIMA UNIV.
license=CC BY-NC-SA
exact mass=302.26097
ionization energy=70 eV
ion type=[M]+*
computed spectral entropy=4.173325296697655
computed normalized entropy=0.8717143591922951
SPLASH=splash10-06r6-8910000000-200ff46d3c2fe15f0a79
submitter=submitter = University of Tokyo Team (Faculty of Engineering, University of Tokyo)
MoNA Rating=3.75

>  <NUM PEAKS>  (933) 
120

>  <MASS SPECTRAL PEAKS>  (933) 
41 58.2
42 3.2
43 25.3
45 1.38
51 2.4
53 19.1
54 2.3
55 4.67
56 3.2
57 5.3
59 5.2
65 0.91
66 3.1
67 20.9
68 4.5
69 2.76
71 8.1
73 7
77 25
78 0.59
79 32.8
80 11.5
81 43.7
82 0.48
83 26.5
84 2.6
85 45.9
86 0.55
91 36.5
92 9
93 37.2
94 0.75
95 15.4
96 3.8
97 12.8
98 5.77
99 13.3
103 4
105 36.6
106 1.18
107 34.2
108 9.3
109 13.2
110 0.65
111 99.99
112 11.3
115 4.6
117 0.8
118 3.8
119 30.4
120 20.8
121 1.79
122 8.2
123 24.2
124 7
125 0.34
129 4.6
131 14.2
132 10.3
133 2.88
134 10.4
135 13.9
136 6.7
137 1.42
143 4
145 16.1
146 9.4
147 1.4
148 3.9
149 9.3
150 3.7
151 0.59
157 6.7
159 16.1
160 4.3
161 1.23
162 3.4
163 7.9
164 5.7
165 0.49
166 3.6
171 6.2
173 4.7
175 0.66
177 4.9
178 7.1
179 5.7
180 0.21
185 5.4
186 3.7
187 8.2
188 0.36
189 14.3
190 9.7
191 8.8
193 1.11
199 3.6
201 12.4
202 7.1
203 0.45
215 8
217 2.8
219 6.7
227 2
228 4.8
229 2.2
231 2.5
233 0.71
234 7.1
244 1.2
255 7.5
256 0.19
259 7.5
260 1.8
270 17.2
271 0.59
287 4.1
288 1.1
302 19.6
303 5.1

>  <PREDICTED SPECTRUM>  (933) 
26 3
27 67
28 17
29 199
31 35
33 31
38 18
39 192
40 150
41 907
42 304
43 999
44 134
45 189
47 1
49 183
50 22
51 154
52 112
53 481
54 194
55 814
56 218
57 387
58 133
59 240
60 48
63 9
64 25
65 324
66 246
67 629
68 311
69 678
70 279
71 562
72 111
73 195
75 2
77 575
78 288
79 697
80 345
81 784
82 354
83 445
84 345
85 534
86 73
87 15
90 0
91 795
92 430
93 867
94 415
95 502
96 320
97 458
98 274
99 198
100 11
103 152
104 138
105 754
106 367
107 791
108 530
109 549
110 305
111 533
112 122
113 78
114 3
115 218
116 124
117 293
118 207
119 778
120 476
121 513
122 371
123 567
124 163
125 288
126 47
127 103
128 170
129 152
130 89
131 469
132 293
133 552
134 399
135 576
136 312
137 310
138 108
139 250
140 44
141 129
142 83
143 140
144 183
145 625
146 355
147 461
148 343
149 433
150 195
151 289
152 131
153 68
155 18
156 33
157 407
158 159
159 648
160 272
161 333
162 291
163 332
164 221
165 161
166 91
167 51
168 76
169 11
171 284
172 189
173 347
174 154
175 345
176 159
177 289
178 258
179 250
185 260
186 176
187 351
188 265
189 478
190 216
191 217
192 67
195 62
199 335
200 221
201 349
202 114
203 212
204 80
211 24
213 123
214 49
215 293
216 201
217 146
218 151
219 178
220 12
227 354
228 318
229 110
231 149
232 53
233 45
234 24
237 3
241 38
242 101
243 91
244 21
245 25
247 10
255 379
256 45
259 324
260 101
270 645
271 217
287 219
288 151
302 589
303 216

$$$$

     RDKit          2D

 21 21  0  0  1  0  0  0  0  0999 V2000
   -5.9002   -0.7187    0.0000 C   0  0  0  0  0  0  0  0  0  0  0  0
   -3.6504   -2.0181    0.0000 C   0  0  0  0  0  0  0  0  0  0  0  0
    0.8502   -2.0189    0.0000 C   0  0  0  0  0  0  0  0  0  0  0  0
    3.1002    4.4689    0.0000 C   0  0  0  0  0  0  0  0  0  0  0  0
   -1.3998    1.8711    0.0000 C   0  0  0  0  0  0  0  0  0  0  0  0
    2.3500    0.5800    0.0000 C   0  0  0  0  0  0  0  0  0  0  0  0
    0.8500    0.5800    0.0000 C   0  0  0  0  0  0  0  0  0  0  0  0
    3.1000    1.8700    0.0000 C   0  0  0  0  0  0  0  0  0  0  0  0
   -1.4000   -0.7200    0.0000 C   0  0  0  0  0  0  0  0  0  0  0  0
   -3.6500    3.1700    0.0000 C   0  0  0  0  0  0  0  0  0  0  0  0
   -2.1500    0.5800    0.0000 C   0  0  0  0  0  0  0  0  0  0  0  0
   -4.4000    1.8800    0.0000 C   0  0  0  0  0  0  0  0  0  0  0  0
    0.8500    3.1700    0.0000 C   0  0  0  0  0  0  0  0  0  0  0  0
   -1.4000    4.4700    0.0000 C   0  0  0  0  0  0  0  0  0  0  0  0
   -4.4002   -0.7189    0.0000 C   0  0  0  0  0  0  0  0  0  0  0  0
    0.1000   -0.7200    0.0000 C   0  0  0  0  0  0  0  0  0  0  0  0
    2.3500    3.1700    0.0000 C   0  0  0  0  0  0  0  0  0  0  0  0
   -2.1500    3.1700    0.0000 C   0  0  0  0  0  0  0  0  0  0  0  0
   -3.6500    0.5800    0.0000 C   0  0  0  0  0  0  0  0  0  0  0  0
    0.1000    4.4700    0.0000 C   0  0  0  0  0  0  0  0  0  0  0  0
    0.8502    5.7689    0.0000 O   0  0  0  0  0  0  0  0  0  0  0  0
  7  6  1  0
  8  6  1  0
  9 11  2  3
 12 10  1  0
 15  1  1  0
 15  2  1  0
 16  3  1  0
  7 16  2  0
 16  9  1  0
 17  4  1  0
  8 17  2  0
 17 13  1  0
 18  5  1  0
 18 10  1  0
 14 18  2  0
 19 11  1  0
 19 12  1  0
 19 15  1  6
 20 13  1  0
 20 14  1  0
 20 21  1  6
M  END
>  <NAME>  (934) 
(1S,2E,4E,7E,10R,11E)-10HYDROXYCEMBRA-2,4,7,11-TETRAENE

>  <SYNONYMS>  (934) 
10-HYDROXYCEMBRENE

>  <SPECTRUM TYPE>  (934) 
MS1

>  <INSTRUMENT TYPE>  (934) 
EI-B

>  <INSTRUMENT>  (934) 
HITACHI RMU-6L

>  <ION MODE>  (934) 
P

>  <INCHIKEY>  (934) 
UISPGBUXWMMCCP-HLWKUWEHSA-N

>  <FORMULA>  (934) 
C20H32O

>  <EXACT MASS>  (934) 
288.24531564399996

>  <MW>  (934) 
288

>  <ID>  (934) 
JP010647

>  <CONTRIBUTOR>  (934) 
University of Tokyo Team, {Faculty of Engineering, University of Tokyo

>  <COMMENT>  (934) 
SMILES=[H]C(C1)=C(C)CC([H])(O)C([H])=C(C)CCC([H])(C(C)C)C([H])=C([H])C(C)=C([H])1
InChI=InChI=1S/C20H32O/c1-15(2)19-11-9-16(3)7-6-8-17(4)13-20(21)14-18(5)10-12-19/h7-9,11,14-15,19-21H,6,10,12-13H2,1-5H3/b11-9+,16-7+,17-8+,18-14+/t19-,20+/m0/s1
computed SMILES=OC1C=C(C)CCC(C=CC(=CCC=C(C)C1)C)C(C)C
computed InChI=InChI=1S/C20H32O/c1-15(2)19-11-9-16(3)7-6-8-17(4)13-20(21)14-18(5)10-12-19/h7-9,11,14-15,19-21H,6,10,12-13H2,1-5H3/b11-9?,16-7+,17-8-,18-14+/t19-,20+/m0/s1
accession=JP010647
date=2016.01.19 (Created 2008.10.21, modified 2011.05.06)
author=EGUCHI S, FAC. OF SCIENCE, HIROSHIMA UNIV.
license=CC BY-NC-SA
exact mass=288.24532
ionization energy=70 eV
ion type=[M]+*
computed spectral entropy=4.040364380173819
computed normalized entropy=0.8439417960908971
SPLASH=splash10-052f-9400000000-c63e41eb491441509d82
submitter=submitter = University of Tokyo Team (Faculty of Engineering, University of Tokyo)
MoNA Rating=3.75

>  <NUM PEAKS>  (934) 
120

>  <MASS SPECTRAL PEAKS>  (934) 
40 4.5
41 94.3
42 13.4
43 99.99
44 10.9
45 17.8
46 6.8
51 0.53
53 30.2
54 7.2
55 98.3
56 1.93
57 40.8
58 7.5
59 5.4
60 0.85
65 9.4
66 4.9
67 29.8
68 1.66
69 59.2
70 14.5
71 22.6
72 0.35
73 6.4
77 29.1
78 7.2
79 3.42
80 12.2
81 48.9
82 20.9
83 3.38
84 17.5
85 10.5
87 3.8
91 3
92 9
93 52.6
94 10.2
95 2.36
96 12.4
97 39.4
98 11.3
99 0.53
103 4.5
105 30.2
106 8
107 2.89
108 10.6
109 22.8
110 6.1
111 1.39
112 4.1
113 3.6
115 6.2
117 0.79
119 24.3
120 7.5
121 23.4
122 1.38
123 20.8
124 5.4
125 8
126 0.45
127 3.5
128 3.9
129 3.6
131 0.75
133 14.6
134 5.6
135 30.9
136 1.56
137 7.3
138 3.8
139 4.5
141 0.31
145 9
147 11.3
148 4.5
149 0.95
150 3.5
151 4.5
152 3.8
153 0.33
157 3.1
159 5.9
161 25.3
162 0.48
163 3.8
164 7.9
165 5.2
171 0.32
175 7.3
176 2.5
177 6.7
179 0.57
187 3
188 3.4
189 11.9
190 1.41
191 8.6
192 2.5
203 4.8
204 0.72
205 3.8
206 2
217 5.7
218 0.19
219 2.3
227 5
228 1
245 0.74
246 1.8
270 2
271 1
273 0.31
274 1.1
288 19.6
289 4.4
290 0.8

>  <PREDICTED SPECTRUM>  (934) 
26 18
27 121
28 37
29 152
31 30
37 25
38 51
39 248
40 152
41 899
42 254
43 999
44 209
45 139
46 7
47 15
48 6
49 168
50 57
51 139
52 111
53 478
54 223
55 834
56 308
57 552
58 150
59 156
60 80
61 48
63 54
64 48
65 282
66 216
67 607
68 356
69 704
70 339
71 569
72 95
73 71
76 16
77 489
78 235
79 549
80 313
81 712
82 457
83 592
84 498
85 385
86 66
87 52
89 30
91 524
92 342
93 711
94 350
95 568
96 361
97 452
98 191
99 96
102 5
103 104
104 44
105 491
106 261
107 600
108 399
109 555
110 331
111 354
112 192
113 126
115 126
116 54
117 140
118 79
119 579
120 379
121 502
122 268
123 495
124 230
125 238
126 52
127 94
128 136
129 133
130 50
131 283
132 171
133 493
134 267
135 491
136 271
137 417
138 225
139 238
140 11
141 85
143 58
144 7
145 281
146 157
147 336
148 250
149 387
150 245
151 274
152 161
153 69
155 56
157 64
158 63
159 381
160 119
161 303
162 149
163 294
164 212
165 198
166 33
167 63
171 67
172 21
173 120
174 86
175 319
176 181
177 309
178 184
179 37
181 47
183 6
185 96
186 16
187 134
188 109
189 325
190 119
191 236
192 161
193 45
195 32
199 22
201 104
202 79
203 217
204 111
205 186
206 105
207 1
213 11
215 34
217 101
218 114
219 230
220 64
227 181
228 60
241 2
245 148
246 100
247 74
248 19
255 122
256 19
270 183
271 80
272 0
273 94
274 17
288 434
289 243
290 45

$$$$

     RDKit          2D

 28 28  0  0  1  0  0  0  0  0999 V2000
   -3.9000   -0.8100    0.0000 C   0  0  0  0  0  0  0  0  0  0  0  0
    1.3000   -0.8100    0.0000 C   0  0  0  0  0  0  0  0  0  0  0  0
   -2.6000    0.0000    0.0000 C   0  0  0  0  0  0  0  0  0  0  0  0
    0.0010    5.9400    0.0000 C   0  0  0  0  0  0  0  0  0  0  0  0
    3.8981    9.6900    0.0000 C   0  0  0  0  0  0  0  0  0  0  0  0
   -1.2990    6.6900    0.0000 C   0  0  0  0  0  0  0  0  0  0  0  0
   -1.3000    0.6900    0.0000 C   0  0  0  0  0  0  0  0  0  0  0  0
   -5.2000    2.9400    0.0000 C   0  0  0  0  0  0  0  0  0  0  0  0
   -2.6000    1.4400    0.0000 C   0  0  0  0  0  0  0  0  0  0  0  0
   -5.2000    1.4400    0.0000 C   0  0  0  0  0  0  0  0  0  0  0  0
    0.0000    1.4400    0.0000 C   0  0  0  0  0  0  0  0  0  0  0  0
   -3.9000    3.6900    0.0000 C   0  0  0  0  0  0  0  0  0  0  0  0
    2.6000    1.4400    0.0000 C   0  0  0  0  0  0  0  0  0  0  0  0
    2.6000    2.9400    0.0000 C   0  0  0  0  0  0  0  0  0  0  0  0
   -1.3000    3.6900    0.0000 C   0  0  0  0  0  0  0  0  0  0  0  0
    2.5990    5.9400    0.0000 C   0  0  0  0  0  0  0  0  0  0  0  0
   -3.9000    0.6900    0.0000 C   0  0  0  0  0  0  0  0  0  0  0  0
    1.3000    0.6900    0.0000 C   0  0  0  0  0  0  0  0  0  0  0  0
   -2.6000    2.9400    0.0000 C   0  0  0  0  0  0  0  0  0  0  0  0
    1.3000    5.1900    0.0000 C   0  0  0  0  0  0  0  0  0  0  0  0
    3.8981    8.1900    0.0000 C   0  0  0  0  0  0  0  0  0  0  0  0
   -1.2990    5.1900    0.0000 C   0  0  0  0  0  0  0  0  0  0  0  0
    1.3000    3.6900    0.0000 C   0  0  0  0  0  0  0  0  0  0  0  0
    0.0000    2.9400    0.0000 C   0  0  0  0  0  0  0  0  0  0  0  0
    5.1971    7.4400    0.0000 O   0  0  0  0  0  0  0  0  0  0  0  0
   -2.5981    4.4400    0.0000 O   0  0  0  0  0  0  0  0  0  0  0  0
    2.5990    7.4400    0.0000 O   0  0  0  0  0  0  0  0  0  0  0  0
   -0.0000    4.4400    0.0000 O   0  0  0  0  0  0  0  0  0  0  0  0
  9  7  1  0
 10  8  1  0
 11  7  1  0
 12  8  1  0
 14 13  1  0
 17  1  1  0
 17  9  1  0
 10 17  2  0
 18  2  1  0
 11 18  2  0
 18 13  1  0
 19  3  1  0
 19 12  1  0
 15 19  2  0
 20  4  2  0
 20 16  1  0
 21  5  1  0
 22  6  1  0
 23 14  1  0
 23 20  1  6
 24 15  1  0
 24 23  1  0
 25 21  2  0
 26 22  2  0
 27 16  1  0
 27 21  1  0
 28 22  1  0
 24 28  1  1
M  END
>  <NAME>  (935) 
(1S,2S,3E,7E,11E)-2,17-DIACETOXYCEMBRA-3,7,11,15-TETRAENE

>  <SYNONYMS>  (935) 


>  <SPECTRUM TYPE>  (935) 
MS1

>  <INSTRUMENT TYPE>  (935) 
EI-B

>  <INSTRUMENT>  (935) 
HITACHI RMU-6L

>  <ION MODE>  (935) 
P

>  <INCHIKEY>  (935) 
YBPOQSGQBJVMKO-QWTXQITRSA-N

>  <FORMULA>  (935) 
C24H36O4

>  <EXACT MASS>  (935) 
388.261359632

>  <MW>  (935) 
388

>  <ID>  (935) 
JP010646

>  <CONTRIBUTOR>  (935) 
University of Tokyo Team, {Faculty of Engineering, University of Tokyo

>  <COMMENT>  (935) 
SMILES=CC(=O)OCC(=C)C([H])(C1)C([H])(OC(C)=O)C([H])=C(C)CCC([H])=C(C)CCC([H])=C(C)C1
InChI=InChI=1S/C24H36O4/c1-17-9-7-11-18(2)13-14-23(20(4)16-27-21(5)25)24(28-22(6)26)15-19(3)12-8-10-17/h10-11,15,23-24H,4,7-9,12-14,16H2,1-3,5-6H3/b17-10+,18-11+,19-15+/t23-,24-/m0/s1
computed SMILES=O=C(OCC(=C)C1CCC(=CCCC(=CCCC(=CC1OC(=O)C)C)C)C)C
computed InChI=InChI=1S/C24H36O4/c1-17-9-7-11-18(2)13-14-23(20(4)16-27-21(5)25)24(28-22(6)26)15-19(3)12-8-10-17/h10-11,15,23-24H,4,7-9,12-14,16H2,1-3,5-6H3/b17-10-,18-11+,19-15+/t23-,24-/m0/s1
accession=JP010646
date=2016.01.19 (Created 2008.10.21, modified 2011.05.06)
author=EGUCHI S, FAC. OF SCIENCE, HIROSHIMA UNIV.
license=CC BY-NC-SA
exact mass=388.26136
ionization energy=70 eV
ion type=[M]+*
computed spectral entropy=4.0156215889179725
computed normalized entropy=0.8276167646312312
SPLASH=splash10-0006-9610000000-3e81f5677e08974f7948
submitter=submitter = University of Tokyo Team (Faculty of Engineering, University of Tokyo)
MoNA Rating=3.75

>  <NUM PEAKS>  (935) 
128

>  <MASS SPECTRAL PEAKS>  (935) 
41 26.8
42 3.1
43 99.99
44 0.24
45 5.5
53 12.5
54 1.6
55 2.36
56 3.2
57 3.2
60 2.4
65 0.47
66 2.4
67 17.3
68 16.9
69 0.87
70 1.6
71 2.4
77 9.4
78 0.31
79 18.9
80 4.7
81 28.3
82 0.47
83 5.5
84 18.9
85 3.9
91 1.97
92 7.9
93 19.7
94 6.3
95 1.1
96 3.9
97 3.1
103 2.4
104 0.16
105 16.5
106 7.1
107 14.2
108 0.63
109 9.4
110 2.4
111 1.6
115 0.24
116 1.6
117 7.9
118 3.1
119 2.36
120 7.9
121 11
122 3.9
123 0.31
126 2.4
127 1.6
128 1.6
129 0.39
130 1.6
131 7.9
132 10.2
133 1.73
134 12.6
135 14.2
136 3.9
137 0.24
143 3.9
144 3.1
145 9.4
146 0.39
147 6.3
148 3.1
149 3.9
150 0.16
157 7.1
158 3.9
159 7.9
160 0.31
161 3.9
162 1.6
163 1.6
171 0.31
172 1.6
173 3.9
174 2.4
175 0.31
176 1.6
177 3.1
183 1.6
184 0.12
185 5.5
186 2.4
187 6.3
188 0.16
189 2.4
199 2.4
200 0.8
201 0.24
202 2.4
203 1.6
204 3.1
205 0.16
211 1.6
212 1.6
213 3.1
214 0.1
215 1
217 2.4
225 2.4
226 0.16
227 1
239 1.6
240 1.2
241 0.1
253 4.7
254 1.6
255 2.4
268 0.94
269 3.9
270 0.8
285 1.6
286 0.24
287 1
313 1.2
314 1
328 0.39
329 1.6
330 1
388 2.4
389 1

>  <PREDICTED SPECTRUM>  (935) 
18 24
25 2
26 9
27 64
28 27
29 94
31 3
32 3
39 109
40 49
41 519
42 191
43 999
44 164
45 157
46 34
47 18
48 12
49 40
50 32
51 88
52 72
53 335
54 200
55 574
56 178
57 175
58 13
59 81
60 88
61 88
63 38
65 163
66 126
67 548
68 373
69 387
70 109
71 202
72 30
73 35
77 247
78 122
79 465
80 208
81 573
82 251
83 265
84 328
85 154
86 40
87 51
88 5
91 480
92 203
93 564
94 306
95 539
96 181
97 210
98 12
99 42
100 17
101 18
103 52
104 30
105 434
106 277
107 498
108 348
109 466
110 213
111 144
112 16
113 21
115 113
116 48
117 216
118 216
119 491
120 267
121 430
122 303
123 269
124 125
125 90
126 86
127 149
128 77
129 123
130 23
131 381
132 320
133 393
134 373
135 461
136 282
137 196
138 76
139 44
140 31
141 60
142 6
143 188
144 143
145 422
146 310
147 415
148 216
149 260
150 134
151 134
152 30
153 17
155 41
156 30
157 246
158 159
159 424
160 258
161 211
162 155
163 93
164 42
165 67
166 34
167 36
168 20
169 78
170 3
171 180
172 143
173 238
174 144
175 196
176 155
177 142
178 89
179 31
181 12
183 23
184 18
185 203
186 140
187 281
188 158
189 247
190 81
191 41
195 52
196 3
197 112
198 32
199 239
200 127
201 152
202 179
203 151
204 96
206 0
211 132
212 101
213 204
214 84
215 91
217 11
218 4
220 1
221 34
225 60
226 64
227 119
228 59
229 50
231 38
232 9
234 4
235 35
238 25
239 38
240 46
241 27
246 0
251 50
252 19
253 196
254 73
255 204
259 53
260 48
267 29
268 175
269 243
270 330
271 124
281 33
285 122
286 119
287 66
297 50
313 89
314 55
315 42
328 354
329 198
330 66
388 138
389 100

$$$$

     RDKit          2D

 22 22  0  0  1  0  0  0  0  0999 V2000
   -2.1502   -2.0189    0.0000 C   0  0  0  0  0  0  0  0  0  0  0  0
    4.6000    1.8675    0.0000 C   0  0  0  0  0  0  0  0  0  0  0  0
   -4.3980    4.4702    0.0000 C   0  0  0  0  0  0  0  0  0  0  0  0
    2.3502    5.7687    0.0000 C   0  0  0  0  0  0  0  0  0  0  0  0
    0.8500    0.5800    0.0000 C   0  0  0  0  0  0  0  0  0  0  0  0
   -3.6500    0.5800    0.0000 C   0  0  0  0  0  0  0  0  0  0  0  0
    0.1000   -0.7200    0.0000 C   0  0  0  0  0  0  0  0  0  0  0  0
   -2.1500    0.5800    0.0000 C   0  0  0  0  0  0  0  0  0  0  0  0
    2.3500    0.5800    0.0000 C   0  0  0  0  0  0  0  0  0  0  0  0
   -4.4000    1.8800    0.0000 C   0  0  0  0  0  0  0  0  0  0  0  0
    2.3500    3.1700    0.0000 C   0  0  0  0  0  0  0  0  0  0  0  0
    0.8500    3.1700    0.0000 C   0  0  0  0  0  0  0  0  0  0  0  0
   -2.1500    3.1700    0.0000 C   0  0  0  0  0  0  0  0  0  0  0  0
    0.1004    7.0681    0.0000 C   0  0  0  0  0  0  0  0  0  0  0  0
   -1.4000   -0.7200    0.0000 C   0  0  0  0  0  0  0  0  0  0  0  0
    3.1000    1.8700    0.0000 C   0  0  0  0  0  0  0  0  0  0  0  0
   -3.6500    3.1700    0.0000 C   0  0  0  0  0  0  0  0  0  0  0  0
    0.8502    5.7689    0.0000 C   0  0  0  0  0  0  0  0  0  0  0  0
    0.1000    4.4700    0.0000 C   0  0  0  0  0  0  0  0  0  0  0  0
   -1.4000    4.4700    0.0000 C   0  0  0  0  0  0  0  0  0  0  0  0
    0.8506    8.3670    0.0000 O   0  0  0  0  0  0  0  0  0  0  0  0
   -2.1502    5.7689    0.0000 O   0  0  0  0  0  0  0  0  0  0  0  0
  7  5  1  0
  8  6  1  0
  9  5  1  0
 10  6  1  0
 12 11  1  0
 15  1  1  0
 15  7  1  0
  8 15  2  0
 16  2  1  0
  9 16  2  0
 16 11  1  0
 17  3  1  0
 17 10  1  0
 13 17  2  0
 18  4  2  0
 18 14  1  0
 19 12  1  0
 19 18  1  6
 20 13  1  0
 20 19  1  0
 21 14  1  0
 20 22  1  6
M  END
>  <NAME>  (936) 
(1S,2S,3E,7E)-2,17-DIHYDROXYCEMBRA-3,7,11,15-TETRAENE

>  <SYNONYMS>  (936) 


>  <SPECTRUM TYPE>  (936) 
MS1

>  <INSTRUMENT TYPE>  (936) 
EI-B

>  <INSTRUMENT>  (936) 
HITACHI RMU-6L

>  <ION MODE>  (936) 
P

>  <INCHIKEY>  (936) 
VUIHPHBVTNHHIN-WUTWRXGKSA-N

>  <FORMULA>  (936) 
C20H32O2

>  <EXACT MASS>  (936) 
304.240230264

>  <MW>  (936) 
304

>  <ID>  (936) 
JP010644

>  <CONTRIBUTOR>  (936) 
University of Tokyo Team, {Faculty of Engineering, University of Tokyo

>  <COMMENT>  (936) 
SMILES=OCC(=C)C([H])(C1)C([H])(O)C([H])=C(C)CCC([H])=C(C)CCC([H])=C(C)C1
InChI=InChI=1S/C20H32O2/c1-15-7-5-9-16(2)11-12-19(18(4)14-21)20(22)13-17(3)10-6-8-15/h8-9,13,19-22H,4-7,10-12,14H2,1-3H3/b15-8+,16-9-,17-13+/t19-,20-/m0/s1
computed SMILES=OCC(=C)C1CCC(=CCCC(=CCCC(=CC1O)C)C)C
accession=JP010644
date=2016.01.19 (Created 2008.10.21, modified 2011.05.06)
author=EGUCHI S, FAC. OF SCIENCE, HIROSHIMA UNIV.
license=CC BY-NC-SA
exact mass=304.24023
ionization energy=70 eV
ion type=[M]+*
computed spectral entropy=3.9977950494862893
computed normalized entropy=0.8174866343213377
SPLASH=splash10-00l6-9400000000-abf09f1483920574c7f3
submitter=submitter = University of Tokyo Team (Faculty of Engineering, University of Tokyo)
MoNA Rating=3.75

>  <NUM PEAKS>  (936) 
133

>  <MASS SPECTRAL PEAKS>  (936) 
40 10.4
41 82
42 10.4
43 3.9
44 14.9
45 8.9
51 5.9
52 0.45
53 40.3
54 7.5
55 70.1
56 2.09
57 11.9
58 2.9
59 2.9
65 1.19
66 8.9
67 52.2
68 71.6
69 3.88
70 5.9
71 13.4
72 2.9
77 2.09
78 7.5
79 41.8
80 14.9
81 7.61
82 17.9
83 38.8
84 99.99
85 1.19
91 26.9
92 11.9
93 62.7
94 1.79
95 40.3
96 10.5
97 13.4
98 0.29
99 1.5
103 2.9
104 1.5
105 2.08
106 11.9
107 40.3
108 16.4
109 2.69
110 7.5
111 5.9
113 0.7
114 0.07
115 2.9
116 2.2
117 5.9
118 0.29
119 25.3
120 10.4
121 28.4
122 1.79
123 16.4
124 5.9
125 5.9
126 0.2
131 7.5
132 5.9
133 16.4
134 2.84
135 62.7
136 14.9
137 13.4
138 0.59
139 4.5
140 1.5
145 7.5
146 0.59
147 13.4
148 5.9
149 10.5
150 0.67
151 5.2
152 4.5
153 2.9
159 0.75
160 2.9
161 6.7
162 4.5
163 0.45
164 2.9
165 2.2
173 5.9
174 0.29
175 7.5
176 3.7
177 4.5
178 0.22
179 1.5
185 2.9
186 1.5
187 0.45
188 2.9
189 5.9
190 2.9
191 0.29
192 1.5
193 1.5
201 2.2
202 0.75
203 6.7
204 1.5
205 1.5
213 0.07
215 0.7
217 0.7
218 0.7
221 0.29
222 0.7
223 0.7
243 4.5
244 0.22
253 0.7
255 0.7
256 0.7
257 0.07
271 5.9
272 0.7
273 5.9
274 0.15
286 12.7
287 3.7
288 0.7
304 0.37
305 0.7

>  <PREDICTED SPECTRUM>  (936) 
17 2
18 29
26 6
27 58
28 49
29 75
31 52
37 17
38 7
39 186
40 108
41 910
42 313
43 519
44 192
45 107
49 39
50 50
51 196
52 186
53 667
54 333
55 999
56 353
57 487
58 116
59 147
60 52
61 40
63 72
64 77
65 311
66 264
67 896
68 808
69 948
70 340
71 448
72 115
73 7
77 480
78 227
79 836
80 464
81 995
82 584
83 639
84 703
85 322
86 64
87 75
88 40
91 645
92 358
93 957
94 600
95 796
96 392
97 487
98 195
99 59
100 26
101 29
103 60
104 119
105 683
106 460
107 771
108 601
109 771
110 294
111 385
112 73
113 55
115 136
116 30
117 287
118 241
119 751
120 412
121 678
122 490
123 557
124 265
125 221
126 120
127 138
128 129
129 151
131 358
132 273
133 525
134 516
135 773
136 507
137 513
138 226
139 203
140 5
141 79
142 0
143 102
144 134
145 329
146 227
147 482
148 260
149 513
150 380
151 302
152 225
153 228
154 111
155 155
156 15
157 153
158 113
159 414
160 209
161 445
162 345
163 315
164 200
165 212
166 103
167 51
168 35
169 96
170 55
171 123
172 95
173 284
174 204
175 439
176 293
177 346
178 190
179 138
181 106
182 1
183 69
185 182
186 104
187 365
188 215
189 376
190 128
191 156
192 87
193 123
197 27
198 35
199 118
200 73
201 199
202 264
203 388
204 216
205 114
206 6
207 99
211 71
212 49
213 33
214 76
215 111
216 71
217 189
218 161
219 73
220 29
221 192
222 28
223 21
225 96
227 61
228 4
229 63
230 52
231 104
232 90
233 31
235 69
241 25
242 53
243 313
244 90
245 36
246 10
247 1
253 139
255 114
256 57
257 169
258 60
260 12
261 48
268 242
269 62
270 79
271 358
272 173
273 99
276 47
277 1
285 35
286 668
287 297
288 128
289 67
304 119
305 20

$$$$

     RDKit          2D

 28 30  0  0  1  0  0  0  0  0999 V2000
    3.2860    5.6205    0.0000 C   0  0  0  0  0  0  0  0  0  0  0  0
    1.1727   -3.6381    0.0000 C   0  0  0  0  0  0  0  0  0  0  0  0
    9.9388   -2.1009    0.0000 C   0  0  0  0  0  0  0  0  0  0  0  0
    5.9211    2.8515    0.0000 C   0  0  0  0  0  0  0  0  0  0  0  0
    4.7484   -2.2867    0.0000 C   0  0  0  0  0  0  0  0  0  0  0  0
    4.7484    3.7867    0.0000 C   0  0  0  0  0  0  0  0  0  0  0  0
    3.2860   -2.6205    0.0000 C   0  0  0  0  0  0  0  0  0  0  0  0
    6.5719    1.5000    0.0000 C   0  0  0  0  0  0  0  0  0  0  0  0
    5.9211   -1.3515    0.0000 C   0  0  0  0  0  0  0  0  0  0  0  0
    1.8236    3.7867    0.0000 C   0  0  0  0  0  0  0  0  0  0  0  0
    0.6508    2.8515    0.0000 C   0  0  0  0  0  0  0  0  0  0  0  0
   -0.5449    3.1771    0.0000 C   0  0  0  0  0  0  0  0  0  0  0  0
   -1.4266    4.3906    0.0000 C   0  0  0  0  0  0  0  0  0  0  0  0
    0.6508   -1.3515    0.0000 C   0  0  0  0  0  0  0  0  0  0  0  0
    3.2860    4.1205    0.0000 C   0  0  0  0  0  0  0  0  0  0  0  0
    1.8236   -2.2867    0.0000 C   0  0  0  0  0  0  0  0  0  0  0  0
    6.5719    0.0000    0.0000 C   0  0  0  0  0  0  0  0  0  0  0  0
    0.0000    1.5000    0.0000 C   0  0  0  0  0  0  0  0  0  0  0  0
    0.0000    0.0000    0.0000 C   0  0  0  0  0  0  0  0  0  0  0  0
    8.0343   -0.3338    0.0000 C   0  0  0  0  0  0  0  0  0  0  0  0
   -2.3083    0.7500    0.0000 C   0  0  0  0  0  0  0  0  0  0  0  0
   -1.4266    1.9635    0.0000 C   0  0  0  0  0  0  0  0  0  0  0  0
   -2.8532    3.9271    0.0000 N   0  0  0  0  0  0  0  0  0  0  0  0
   -2.8532    2.4271    0.0000 N   0  0  0  0  0  0  0  0  0  0  0  0
    9.0546    0.7658    0.0000 O   0  0  0  0  0  0  0  0  0  0  0  0
   -3.8083    0.7500    0.0000 O   0  0  0  0  0  0  0  0  0  0  0  0
    8.4765   -1.7671    0.0000 O   0  0  0  0  0  0  0  0  0  0  0  0
   -1.4266   -0.4635    0.0000 O   0  0  0  0  0  0  0  0  0  0  0  0
  6  4  1  0
  7  5  1  0
  8  4  1  0
  9  5  1  0
 11 10  1  0
 13 12  1  0
 15  1  1  0
  6 15  2  3
 15 10  1  0
 16  2  1  0
 16  7  1  0
 14 16  2  3
 17  8  1  0
  9 17  2  0
 18 11  1  6
 19 14  1  6
 19 18  1  0
 20 17  1  0
 22 12  1  0
 22 18  1  0
 22 21  1  0
 23 13  1  0
 24 22  1  0
 24 23  2  0
 25 20  2  0
 26 21  2  0
 27  3  1  0
 27 20  1  0
 19 28  1  0
 28 21  1  0
M  END
>  <NAME>  (937) 
LOBOHEDLEOLIDE PRYAZOLINE METHYL ESTER

>  <SYNONYMS>  (937) 


>  <SPECTRUM TYPE>  (937) 
MS1

>  <INSTRUMENT TYPE>  (937) 
EI-B

>  <INSTRUMENT>  (937) 
HITACHI RMU-6L

>  <ION MODE>  (937) 
P

>  <INCHIKEY>  (937) 
JLXRCOCRQNIQSO-AZZZFUBASA-N

>  <FORMULA>  (937) 
C22H30N2O4

>  <EXACT MASS>  (937) 
386.22055744

>  <MW>  (937) 
386

>  <ID>  (937) 
JP010640

>  <CONTRIBUTOR>  (937) 
University of Tokyo Team, {Faculty of Engineering, University of Tokyo

>  <COMMENT>  (937) 
SMILES=COC(=O)C(C3)=CCCC(C)=CC([H])(O1)C([H])(CCC(C)=CC3)C(C2)(N=NC2)C(=O)1
InChI=InChI=1S/C22H30N2O4/c1-15-6-4-8-17(20(25)27-3)9-5-7-16(2)14-19-18(11-10-15)22(21(26)28-19)12-13-23-24-22/h6,9,14,18-19H,4-5,7-8,10-13H2,1-3H3/b15-6+,16-14+,17-9+/t18-,19+,22?/m1/s1
computed SMILES=O=C(OC)C1=CCCC(=CC2OC(=O)C3(N=NCC3)C2CCC(=CCC1)C)C
computed InChI=InChI=1S/C22H30N2O4/c1-15-6-4-8-17(20(25)27-3)9-5-7-16(2)14-19-18(11-10-15)22(21(26)28-19)12-13-23-24-22/h6,9,14,18-19H,4-5,7-8,10-13H2,1-3H3/b15-6?,16-14?,17-9+/t18-,19+,22?/m1/s1
accession=JP010640
date=2016.01.19 (Created 2008.10.21, modified 2011.05.06)
author=EGUCHI S, FAC. OF SCIENCE, HIROSHIMA UNIV.
license=CC BY-NC-SA
exact mass=386.22056
ionization energy=70 eV
ion type=[M]+*
computed spectral entropy=4.5793006118075
computed normalized entropy=0.8790311515291775
SPLASH=splash10-052f-9820000000-36ddde12cc74885c8636
submitter=submitter = University of Tokyo Team (Faculty of Engineering, University of Tokyo)
MoNA Rating=3.75

>  <NUM PEAKS>  (937) 
183

>  <MASS SPECTRAL PEAKS>  (937) 
40 10.3
41 99.99
42 7.5
43 1.96
45 6.5
51 6.5
52 4.7
53 6.45
54 9.3
55 62.6
56 4.7
57 0.65
59 18.7
65 25.2
66 13.1
67 6.26
68 13.6
69 14
71 6.5
77 3.36
78 10.3
79 51.4
80 14
81 7.66
82 15
83 12.1
84 6.5
85 0.47
91 60.7
92 12.1
93 32.7
94 1.21
95 28
96 7.5
97 5.6
103 0.65
104 5.6
105 42.1
106 9.3
107 2.99
108 7.5
109 13.1
110 4.7
111 0.75
112 5.6
113 3.7
115 6.5
116 0.47
117 15
118 9.3
119 32.7
120 1.21
121 16.8
122 7.5
123 6.5
124 0.47
125 3.7
128 4.7
129 8.4
130 0.37
131 16.8
132 9.3
133 14
134 1.21
135 13.1
136 7.5
137 9.3
138 0.37
139 3.3
143 7.5
144 3.7
145 1.68
146 8.4
147 25.2
148 6.5
149 1.12
150 5.6
151 6.5
152 3.7
153 0.33
157 7.5
158 4.2
159 12.1
160 0.65
161 12.1
162 8.4
163 14.9
164 0.65
165 12.1
166 4.2
169 3.7
171 0.65
172 3.7
173 11.2
174 5.6
175 0.84
176 5.6
177 11.2
178 9.3
179 0.75
180 3.7
181 2.8
183 3.7
185 0.84
186 5.4
187 9.3
188 4.7
189 0.56
190 4.7
191 8.4
192 6.5
193 0.37
197 4.7
198 3.7
199 8.4
200 0.47
201 7.5
202 4.7
203 7.5
204 0.47
205 5.6
206 3.7
207 3.3
211 0.47
212 3.7
213 8.4
214 4.7
215 0.65
216 3.7
217 6.5
218 4.7
219 0.37
225 3.7
226 2.8
227 4.7
229 0.37
230 3.7
231 6.5
241 3.7
243 0.56
244 3.3
245 3.7
246 5.6
247 0.28
253 5.6
254 2.3
255 3.7
257 0.38
265 3.7
269 3.5
270 3.3
279 0.28
280 5.6
281 6.5
282 2.8
283 0.42
284 2.8
285 1.9
291 1.9
293 0.28
297 3.7
298 10.2
299 5.6
300 0.19
308 5.6
309 3.7
310 1.4
311 0.42
312 3.7
313 1.9
326 15.9
327 0.84
328 2.8
329 1
341 4.5
342 0.28
343 2
344 1
358 10.2
359 0.37
360 1
386 2.8
387 1

>  <PREDICTED SPECTRUM>  (937) 
1 4
13 6
18 16
27 2
29 69
31 26
33 14
38 33
39 298
40 163
41 789
42 271
43 731
44 325
45 287
46 79
48 0
49 42
50 86
51 265
52 220
53 591
54 259
55 934
56 245
57 235
58 92
59 374
60 127
61 107
62 20
63 167
64 116
65 466
66 290
67 674
68 321
69 464
70 172
71 268
72 115
73 116
74 34
75 28
76 42
77 669
78 406
79 848
80 401
81 588
82 306
83 428
84 253
85 156
86 69
87 102
88 43
89 54
90 58
91 999
92 493
93 773
94 469
95 524
96 315
97 367
98 155
99 150
100 35
101 55
103 224
104 238
105 753
106 437
107 520
108 395
109 496
110 329
111 325
112 121
113 111
115 249
116 149
117 498
118 409
119 708
120 319
121 602
122 367
123 346
124 227
125 195
126 40
127 116
128 246
129 318
130 143
131 577
132 345
133 523
134 413
135 401
136 283
137 261
138 173
139 132
140 27
141 162
142 169
143 362
144 270
145 363
146 323
147 454
148 362
149 304
150 330
151 284
152 258
153 186
154 103
155 186
156 168
157 334
158 255
159 434
160 329
161 362
162 332
163 347
164 223
165 252
166 147
167 105
168 62
169 162
170 125
171 292
172 183
173 338
174 246
175 279
176 334
177 287
178 325
179 127
180 145
181 181
182 144
183 191
184 117
185 214
186 131
187 297
188 249
189 321
190 189
191 208
192 169
193 106
194 46
195 41
196 31
197 168
198 157
199 295
200 171
201 257
202 166
203 240
204 189
205 133
206 181
207 127
209 39
210 30
211 85
212 100
213 307
214 257
215 166
216 190
217 199
218 195
219 147
220 117
221 103
222 46
223 72
224 80
225 115
226 67
227 196
228 146
229 150
230 146
231 191
232 156
233 117
234 16
235 50
236 22
237 35
238 69
239 147
240 120
241 63
242 120
243 116
244 188
245 161
246 174
247 29
249 16
250 0
251 124
252 56
253 184
254 167
255 293
256 153
257 102
258 32
259 118
260 33
262 19
263 45
264 42
265 160
266 64
267 59
268 87
269 203
270 158
271 97
272 65
273 39
274 12
275 23
276 53
277 59
278 49
279 110
280 103
281 188
282 190
283 236
284 204
285 98
286 77
287 26
290 63
291 16
292 20
293 163
294 8
296 31
297 241
298 292
299 191
300 133
301 68
302 10
303 6
308 133
309 157
310 119
311 141
312 194
313 91
325 77
326 501
327 248
328 207
329 5
340 7
341 123
342 46
343 57
344 45
357 26
358 151
386 191
387 80

$$$$

     RDKit          2D

 24 25  0  0  1  0  0  0  0  0999 V2000
   -2.1502    5.7689    0.0000 C   0  0  0  0  0  0  0  0  0  0  0  0
   -2.1502   -2.0189    0.0000 C   0  0  0  0  0  0  0  0  0  0  0  0
   -6.9818    2.5719    0.0000 C   0  0  0  0  0  0  0  0  0  0  0  0
    0.8500    3.1700    0.0000 C   0  0  0  0  0  0  0  0  0  0  0  0
    0.8500    0.5800    0.0000 C   0  0  0  0  0  0  0  0  0  0  0  0
    0.1000    4.4700    0.0000 C   0  0  0  0  0  0  0  0  0  0  0  0
    0.1000   -0.7200    0.0000 C   0  0  0  0  0  0  0  0  0  0  0  0
    2.3500    3.1700    0.0000 C   0  0  0  0  0  0  0  0  0  0  0  0
    2.3500    0.5800    0.0000 C   0  0  0  0  0  0  0  0  0  0  0  0
   -2.1500    3.1700    0.0000 C   0  0  0  0  0  0  0  0  0  0  0  0
   -3.6500    3.1700    0.0000 C   0  0  0  0  0  0  0  0  0  0  0  0
   -2.1500    0.5800    0.0000 C   0  0  0  0  0  0  0  0  0  0  0  0
   -1.4000    4.4700    0.0000 C   0  0  0  0  0  0  0  0  0  0  0  0
   -1.4000   -0.7200    0.0000 C   0  0  0  0  0  0  0  0  0  0  0  0
   -5.8672    1.5681    0.0000 C   0  0  0  0  0  0  0  0  0  0  0  0
    3.1000    1.8700    0.0000 C   0  0  0  0  0  0  0  0  0  0  0  0
   -4.4000    1.8800    0.0000 C   0  0  0  0  0  0  0  0  0  0  0  0
   -3.6500    0.5800    0.0000 C   0  0  0  0  0  0  0  0  0  0  0  0
    4.6000    1.8675    0.0000 C   0  0  0  0  0  0  0  0  0  0  0  0
   -6.0244    0.0765    0.0000 C   0  0  0  0  0  0  0  0  0  0  0  0
    5.3478    0.5672    0.0000 O   0  0  0  0  0  0  0  0  0  0  0  0
    5.3522    3.1653    0.0000 O   0  0  0  0  0  0  0  0  0  0  0  0
   -7.3237   -0.6731    0.0000 O   0  0  0  0  0  0  0  0  0  0  0  0
   -4.6544   -0.5341    0.0000 O   0  0  0  0  0  0  0  0  0  0  0  0
  6  4  1  0
  7  5  1  0
  8  4  1  0
  9  5  1  0
 11 10  1  0
 13  1  1  0
  6 13  2  0
 13 10  1  0
 14  2  1  0
 14  7  1  0
 12 14  2  0
 15  3  2  0
 16  8  1  0
  9 16  2  0
 17 11  1  6
 17 15  1  0
 18 12  1  6
 18 17  1  0
 19 16  1  0
 20 15  1  0
 21 19  2  0
 22 19  1  0
 23 20  2  0
 18 24  1  0
 24 20  1  0
M  END
>  <NAME>  (938) 
(7Z)-LOBOHEDLEOLIDE

>  <SYNONYMS>  (938) 


>  <SPECTRUM TYPE>  (938) 
MS1

>  <INSTRUMENT TYPE>  (938) 
EI-B

>  <INSTRUMENT>  (938) 
HITACHI RMU-6L

>  <ION MODE>  (938) 
P

>  <INCHIKEY>  (938) 
SORYERHBQFTRIK-JAQFIYPLSA-N

>  <FORMULA>  (938) 
C20H26O4

>  <EXACT MASS>  (938) 
330.183109312

>  <MW>  (938) 
330

>  <ID>  (938) 
JP010639

>  <CONTRIBUTOR>  (938) 
University of Tokyo Team, {Faculty of Engineering, University of Tokyo

>  <COMMENT>  (938) 
SMILES=OC(=O)C(C2)=C([H])CCC(C)=C([H])C([H])(O1)C([H])(CCC(C)=C([H])C2)C(=C)C(=O)1
InChI=InChI=1S/C20H26O4/c1-13-6-4-8-16(19(21)22)9-5-7-14(2)12-18-17(11-10-13)15(3)20(23)24-18/h6,9,12,17-18H,3-5,7-8,10-11H2,1-2H3,(H,21,22)/b13-6-,14-12+,16-9+/t17-,18-/m0/s1
computed SMILES=O=C(O)C1=CCCC(=CC2OC(=O)C(=C)C2CCC(=CCC1)C)C
accession=JP010639
date=2016.01.19 (Created 2008.10.21, modified 2011.05.06)
author=EGUCHI S, FAC. OF SCIENCE, HIROSHIMA UNIV.
license=CC BY-NC-SA
exact mass=330.18311
ionization energy=70 eV
ion type=[M]+*
computed spectral entropy=4.404895836162966
computed normalized entropy=0.8538183021286118
SPLASH=splash10-0k96-9510000000-a3be6b8c82eaba12dbad
submitter=submitter = University of Tokyo Team (Faculty of Engineering, University of Tokyo)
MoNA Rating=3.75

>  <NUM PEAKS>  (938) 
174

>  <MASS SPECTRAL PEAKS>  (938) 
40 8.5
41 65.5
42 7.5
43 3
44 3.5
45 6
51 8.5
52 0.5
53 99.99
54 10
55 67
56 0.65
57 18
58 2
59 4
60 0.7
61 1
65 18.5
66 9.5
67 3.1
68 17
69 27
70 6
71 1
72 3.5
73 8
74 1.5
77 2.65
78 8.5
79 39
80 12.5
81 8.15
82 18
83 18
84 10.5
85 0.6
91 49
92 12
93 30
94 0.3
95 20
96 3
97 8
98 0.45
99 3
103 7
104 2
105 0.4
106 10
107 24
108 9
109 1.1
110 6
111 4.5
112 5
113 0.25
114 1.5
115 6.1
116 2
117 1.2
118 7.5
119 29
120 9
121 2.45
122 7
123 11.5
124 6
125 0.2
126 1.5
127 2
128 4
129 0.55
130 3
131 14
132 5
133 2
134 8.5
135 15
136 8
137 0.7
138 3.5
139 2.5
140 1.5
141 0.3
142 2.5
143 5
144 3.5
145 1.4
146 5
147 16
148 8
149 1.8
150 6
151 10
152 6
153 0.3
155 3
157 5.5
158 2.5
159 0.99
160 5.5
161 9.9
162 6.5
163 1.05
164 11.5
165 9.5
166 3.5
171 0.7
172 3
173 7
174 3
175 0.65
176 7
177 9
178 5.5
179 0.45
187 6.5
188 4.5
189 7
190 0.4
191 3.5
192 2
193 1.5
197 0.3
198 2
199 7
200 3.5
201 0.55
202 3
203 6
204 3
205 0.2
211 2.5
213 4.5
214 2.5
215 0.35
216 2
217 7.5
218 3
219 0.25
227 3
228 2
229 4
230 0.25
231 3.5
232 5.5
233 2.5
239 0.35
240 1.5
241 2
242 1
243 0.2
256 3.5
257 2
258 2
259 0.2
267 2.5
268 1.5
269 5
270 0.15
284 11.5
285 5
286 1.5
295 0.35
296 2
297 3
298 1
312 1.15
313 3
314 1
315 2
316 0.1
330 4.5
331 1.5

>  <PREDICTED SPECTRUM>  (938) 
0 18
1 8
13 5
18 14
26 14
27 76
28 40
29 72
31 9
32 0
34 3
36 21
37 4
38 23
39 297
40 194
41 922
42 255
43 724
44 281
45 247
46 65
47 59
49 59
50 117
51 293
52 262
53 697
54 384
55 999
56 316
57 315
58 110
59 174
60 145
61 68
62 63
63 172
64 122
65 485
66 320
67 682
68 571
69 588
70 222
71 280
72 82
73 106
74 73
75 24
76 33
77 596
78 329
79 716
80 467
81 830
82 519
83 507
84 444
85 208
86 85
87 78
88 87
89 141
90 91
91 844
92 503
93 727
94 544
95 594
96 440
97 403
98 195
99 115
100 38
102 41
103 262
104 253
105 581
106 310
107 614
108 394
109 441
110 305
111 344
112 116
113 73
115 301
116 198
117 357
118 365
119 655
120 299
121 569
122 367
123 443
124 312
125 147
126 95
127 101
128 198
129 200
130 172
131 516
132 396
133 515
134 480
135 543
136 375
137 296
138 205
139 131
141 103
142 131
143 254
144 289
145 377
146 320
147 577
148 377
149 289
150 352
151 267
152 159
153 127
154 99
155 175
156 24
157 222
158 194
159 452
160 298
161 411
162 403
163 347
164 350
165 386
166 150
167 124
168 94
169 29
170 46
171 222
172 187
173 360
174 287
175 332
176 293
177 285
178 315
179 225
180 147
181 144
182 101
183 117
184 124
185 224
186 160
187 259
188 235
189 337
190 253
191 206
192 160
193 77
194 70
195 159
196 114
197 126
198 178
199 316
200 167
201 249
202 194
203 282
204 178
205 159
206 83
207 193
208 21
209 83
210 30
211 66
212 106
213 237
214 246
215 241
216 219
217 180
218 243
219 187
220 73
221 64
223 112
224 104
225 104
226 74
227 186
228 195
229 174
230 247
231 276
232 208
233 147
234 53
235 14
237 62
238 94
239 42
240 135
241 252
242 163
243 109
244 130
245 53
246 88
247 47
248 39
250 33
251 48
252 63
253 49
254 44
255 195
256 286
257 224
258 135
259 43
260 50
262 118
266 109
267 178
268 186
269 184
270 47
271 22
272 70
273 23
275 23
276 52
279 16
283 57
284 381
285 215
286 118
287 81
288 76
295 32
296 9
297 66
301 11
302 96
303 8
312 341
313 162
314 40
315 79
330 380
331 132
332 5

$$$$

     RDKit          2D

 23 23  0  0  1  0  0  0  0  0999 V2000
   -4.3980    4.4702    0.0000 C   0  0  0  0  0  0  0  0  0  0  0  0
    4.6000    1.8675    0.0000 C   0  0  0  0  0  0  0  0  0  0  0  0
    2.3502    5.7687    0.0000 C   0  0  0  0  0  0  0  0  0  0  0  0
   -3.6500    0.5800    0.0000 C   0  0  0  0  0  0  0  0  0  0  0  0
    0.8500    0.5800    0.0000 C   0  0  0  0  0  0  0  0  0  0  0  0
   -4.4000    1.8800    0.0000 C   0  0  0  0  0  0  0  0  0  0  0  0
    2.3500    0.5800    0.0000 C   0  0  0  0  0  0  0  0  0  0  0  0
   -2.1500    0.5800    0.0000 C   0  0  0  0  0  0  0  0  0  0  0  0
    0.1000   -0.7200    0.0000 C   0  0  0  0  0  0  0  0  0  0  0  0
   -2.1500    3.1700    0.0000 C   0  0  0  0  0  0  0  0  0  0  0  0
   -1.4000    4.4700    0.0000 C   0  0  0  0  0  0  0  0  0  0  0  0
    2.3500    3.1700    0.0000 C   0  0  0  0  0  0  0  0  0  0  0  0
    0.1004    7.0681    0.0000 C   0  0  0  0  0  0  0  0  0  0  0  0
   -2.1502   -2.0189    0.0000 C   0  0  0  0  0  0  0  0  0  0  0  0
   -3.6500    3.1700    0.0000 C   0  0  0  0  0  0  0  0  0  0  0  0
    3.1000    1.8700    0.0000 C   0  0  0  0  0  0  0  0  0  0  0  0
    0.8502    5.7689    0.0000 C   0  0  0  0  0  0  0  0  0  0  0  0
   -1.4000   -0.7200    0.0000 C   0  0  0  0  0  0  0  0  0  0  0  0
    0.1000    4.4700    0.0000 C   0  0  0  0  0  0  0  0  0  0  0  0
    0.8500    3.1700    0.0000 C   0  0  0  0  0  0  0  0  0  0  0  0
    0.8506    8.3670    0.0000 O   0  0  0  0  0  0  0  0  0  0  0  0
   -1.4004   -3.3181    0.0000 O   0  0  0  0  0  0  0  0  0  0  0  0
    0.0998    1.8711    0.0000 O   0  0  0  0  0  0  0  0  0  0  0  0
  6  4  1  0
  7  5  1  0
  8  4  1  0
  9  5  1  0
 11 10  1  0
 15  1  1  0
  6 15  2  0
 15 10  1  0
 16  2  1  0
 16  7  1  0
 12 16  2  0
 17  3  1  0
 13 17  2  0
 18  8  1  0
  9 18  2  0
 18 14  1  0
 19 11  1  0
 19 17  1  1
 20 12  1  0
 20 19  1  0
 21 13  1  0
 22 14  1  0
 20 23  1  1
M  END
>  <NAME>  (939) 
(1S,2R,3E,7E,11E)-2,16,19-TRIHYDROXYCEMBRA-3,7,11,15-TETRAENE

>  <SYNONYMS>  (939) 


>  <SPECTRUM TYPE>  (939) 
MS1

>  <INSTRUMENT TYPE>  (939) 
EI-B

>  <INSTRUMENT>  (939) 
HITACHI RMU-6L

>  <ION MODE>  (939) 
P

>  <INCHIKEY>  (939) 
NOLQVIDYFVOCMG-BAOFUKJUSA-N

>  <FORMULA>  (939) 
C20H32O3

>  <EXACT MASS>  (939) 
320.23514488399996

>  <MW>  (939) 
320

>  <ID>  (939) 
JP010638

>  <CONTRIBUTOR>  (939) 
University of Tokyo Team, {Faculty of Engineering, University of Tokyo

>  <COMMENT>  (939) 
SMILES=OCC(C1)=C([H])CCC(C)=C([H])C([H])(O)C([H])(CCC(C)=C([H])C1)C(C)=CO
InChI=InChI=1S/C20H32O3/c1-15-6-4-8-18(14-22)9-5-7-16(2)12-20(23)19(11-10-15)17(3)13-21/h6,9,12-13,19-23H,4-5,7-8,10-11,14H2,1-3H3/b15-6+,16-12+,17-13+,18-9+/t19-,20+/m0/s1
computed SMILES=OC=C(C)C1CCC(=CCCC(=CCCC(=CC1O)C)CO)C
computed InChI=InChI=1S/C20H32O3/c1-15-6-4-8-18(14-22)9-5-7-16(2)12-20(23)19(11-10-15)17(3)13-21/h6,9,12-13,19-23H,4-5,7-8,10-11,14H2,1-3H3/b15-6-,16-12-,17-13+,18-9+/t19-,20+/m0/s1
license=CC BY-NC-SA
accession=JP010638
date=2016.01.19 (Created 2008.10.21, modified 2011.05.06)
author=EGUCHI S, FAC. OF SCIENCE, HIROSHIMA UNIV.
exact mass=320.23514
ionization energy=70 eV
ion type=[M]+*
computed spectral entropy=4.430399540028234
computed normalized entropy=0.8346224781009531
SPLASH=splash10-053u-9610000000-72a77984e941c764c873
submitter=submitter = University of Tokyo Team (Faculty of Engineering, University of Tokyo)
MoNA Rating=3.75

>  <NUM PEAKS>  (939) 
202

>  <MASS SPECTRAL PEAKS>  (939) 
41 89
42 9.9
43 30.9
44 0.43
45 3.7
47 28.4
48 9.9
49 1.48
50 4.9
51 3.7
52 3.7
53 4.81
54 7.4
55 99.99
56 24.7
57 1.73
65 13.6
66 11.1
67 69.1
68 4.07
69 35.8
70 6.2
71 12.3
77 3.33
78 8.6
79 66.7
80 16
81 7.16
82 17.3
83 82.7
84 80
85 5.67
86 32
87 11
88 3.7
91 4.07
92 16
93 84
94 19
95 3.5
96 11
97 20
98 7.4
99 0.49
103 6.2
104 3.7
105 43
106 1.73
107 40.7
108 19.8
109 26
110 0.99
111 7.4
112 3.7
113 2.5
115 0.62
116 3.7
117 13.6
118 6.2
119 4.07
120 14.8
121 34.8
122 15.4
123 1.48
124 7.4
125 6.2
126 2.5
127 0.25
128 3.1
129 6.2
130 3.7
131 1.73
132 11.1
133 37
134 26
135 4.69
136 17.3
137 12.3
138 4.9
139 0.37
141 2.5
142 2.5
143 7.4
144 0.49
145 21
146 8.6
147 16
148 0.99
149 16
150 13.6
151 6.2
152 0.43
153 3.7
154 2.5
155 2.5
156 0.25
157 8.6
158 4.9
159 11.1
160 0.62
161 12.3
162 8.6
163 8.6
164 0.25
165 3.1
166 2.1
167 3.7
168 0.19
169 2.5
170 1.2
171 6.2
172 0.49
173 11
174 6.2
175 14.8
176 0.49
177 3.7
178 2.5
179 1.9
181 0.19
182 1.2
183 3.1
184 2.5
185 0.86
186 3.7
187 8.6
188 4.9
189 0.74
190 5
191 5
192 5
193 0.25
197 2.5
198 2.5
199 4.9
200 0.62
201 10
202 4.5
203 6.8
204 0.31
205 3.1
211 1.9
212 1.2
213 0.31
214 2
215 2.5
216 2.5
217 0.25
218 7.4
219 6.2
220 5
221 0.37
227 3.1
228 2.5
229 2.5
230 0.25
231 1.9
232 1.9
233 2.5
234 0.31
235 1.9
236 2.5
237 1.9
238 0.12
239 1.2
240 1.2
241 3.7
242 0.2
243 2
244 1.2
245 1.2
246 0.12
247 1.2
251 2.5
252 1.2
253 0.25
254 1.9
255 3.7
256 3.7
257 0.25
258 1.2
259 2.5
269 3.7
271 0.37
272 1.9
273 3.7
274 1.9
275 0.49
276 3.7
284 6.2
285 3.7
286 0.12
287 3.7
288 1.2
289 2.5
302 0.99
303 3.7
304 3.7
305 1.2
320 0.49
321 1.9
322 1.2

>  <PREDICTED SPECTRUM>  (939) 
1 3
4 4
16 8
17 23
18 56
19 0
25 17
26 60
27 198
28 105
29 229
30 35
31 176
32 12
37 51
38 39
39 206
40 123
41 790
42 330
43 999
44 263
45 257
46 39
47 33
48 30
49 64
50 75
51 171
52 156
53 518
54 322
55 837
56 359
57 550
58 228
59 217
60 186
61 161
62 32
63 105
64 84
65 331
66 261
67 764
68 505
69 671
70 299
71 548
72 152
73 163
74 89
75 26
76 19
77 440
78 276
79 744
80 434
81 768
82 435
83 598
84 617
85 417
86 182
87 186
88 124
89 43
90 36
91 695
92 311
93 795
94 517
95 691
96 402
97 501
98 302
99 212
100 132
101 100
102 40
103 156
104 181
105 586
106 422
107 628
108 445
109 565
110 296
111 389
112 193
113 151
114 65
115 202
116 187
117 353
118 254
119 588
120 390
121 479
122 403
123 388
124 274
125 296
126 156
127 182
128 151
129 183
130 143
131 398
132 281
133 523
134 418
135 525
136 363
137 411
138 255
139 170
140 172
141 195
142 161
143 278
144 229
145 396
146 275
147 425
148 293
149 420
150 321
151 294
152 177
153 200
154 153
155 177
156 86
157 325
158 194
159 358
160 253
161 364
162 285
163 247
164 165
165 211
166 165
167 170
168 166
169 173
170 149
171 251
172 140
173 277
174 239
175 272
176 186
177 229
178 224
179 134
180 40
181 186
182 138
183 162
184 81
185 204
186 174
187 303
188 165
189 267
190 136
191 147
192 147
193 105
194 1
195 166
196 32
197 181
198 85
199 264
200 157
201 215
202 172
203 220
204 130
205 93
206 60
207 57
209 94
210 45
211 106
212 64
213 165
214 195
215 216
216 150
217 170
218 137
219 151
220 104
221 98
222 35
223 62
224 64
225 39
226 26
227 175
228 136
229 112
230 69
231 150
232 130
233 152
234 51
235 62
236 4
237 78
238 41
239 92
240 31
241 206
242 112
243 158
244 79
245 85
246 66
247 8
250 36
251 75
252 92
253 97
254 88
255 185
256 158
257 117
258 125
259 197
260 78
261 79
262 25
263 13
264 5
266 51
267 36
269 139
270 20
271 82
272 67
273 175
274 124
275 53
276 66
277 81
278 30
279 48
284 228
285 156
286 49
287 203
288 106
289 36
290 20
291 15
300 21
301 75
302 183
303 158
304 92
305 59
307 12
318 31
320 73
321 115

$$$$

     RDKit          2D

 24 25  0  0  1  0  0  0  0  0999 V2000
   -2.1502    5.7689    0.0000 C   0  0  0  0  0  0  0  0  0  0  0  0
   -2.1502   -2.0189    0.0000 C   0  0  0  0  0  0  0  0  0  0  0  0
   -6.9818    2.5719    0.0000 C   0  0  0  0  0  0  0  0  0  0  0  0
    0.8500    3.1700    0.0000 C   0  0  0  0  0  0  0  0  0  0  0  0
    0.8500    0.5800    0.0000 C   0  0  0  0  0  0  0  0  0  0  0  0
    0.1000    4.4700    0.0000 C   0  0  0  0  0  0  0  0  0  0  0  0
    0.1000   -0.7200    0.0000 C   0  0  0  0  0  0  0  0  0  0  0  0
    2.3500    3.1700    0.0000 C   0  0  0  0  0  0  0  0  0  0  0  0
    2.3500    0.5800    0.0000 C   0  0  0  0  0  0  0  0  0  0  0  0
   -2.1500    3.1700    0.0000 C   0  0  0  0  0  0  0  0  0  0  0  0
   -3.6500    3.1700    0.0000 C   0  0  0  0  0  0  0  0  0  0  0  0
   -2.1500    0.5800    0.0000 C   0  0  0  0  0  0  0  0  0  0  0  0
   -1.4000    4.4700    0.0000 C   0  0  0  0  0  0  0  0  0  0  0  0
   -1.4000   -0.7200    0.0000 C   0  0  0  0  0  0  0  0  0  0  0  0
   -5.8672    1.5681    0.0000 C   0  0  0  0  0  0  0  0  0  0  0  0
    3.1000    1.8700    0.0000 C   0  0  0  0  0  0  0  0  0  0  0  0
   -4.4000    1.8800    0.0000 C   0  0  0  0  0  0  0  0  0  0  0  0
   -3.6500    0.5800    0.0000 C   0  0  0  0  0  0  0  0  0  0  0  0
    4.6000    1.8675    0.0000 C   0  0  0  0  0  0  0  0  0  0  0  0
   -6.0244    0.0765    0.0000 C   0  0  0  0  0  0  0  0  0  0  0  0
    5.3478    0.5672    0.0000 O   0  0  0  0  0  0  0  0  0  0  0  0
    5.3522    3.1653    0.0000 O   0  0  0  0  0  0  0  0  0  0  0  0
   -7.3237   -0.6731    0.0000 O   0  0  0  0  0  0  0  0  0  0  0  0
   -4.6544   -0.5341    0.0000 O   0  0  0  0  0  0  0  0  0  0  0  0
  6  4  1  0
  7  5  1  0
  8  4  1  0
  9  5  1  0
 11 10  1  0
 13  1  1  0
  6 13  2  0
 13 10  1  0
 14  2  1  0
 14  7  1  0
 12 14  2  0
 15  3  2  0
 16  8  1  0
  9 16  2  0
 17 11  1  6
 17 15  1  0
 18 12  1  6
 18 17  1  0
 19 16  1  0
 20 15  1  0
 21 19  2  0
 22 19  1  0
 23 20  2  0
 18 24  1  0
 24 20  1  0
M  END
>  <NAME>  (940) 
LOBOHEDLEOLIDE

>  <SYNONYMS>  (940) 


>  <SPECTRUM TYPE>  (940) 
MS1

>  <INSTRUMENT TYPE>  (940) 
EI-B

>  <INSTRUMENT>  (940) 
HITACHI RMU-6L

>  <ION MODE>  (940) 
P

>  <INCHIKEY>  (940) 
SORYERHBQFTRIK-AQJYKDKHSA-N

>  <FORMULA>  (940) 
C20H26O4

>  <EXACT MASS>  (940) 
330.183109312

>  <MW>  (940) 
330

>  <ID>  (940) 
JP010637

>  <CONTRIBUTOR>  (940) 
University of Tokyo Team, {Faculty of Engineering, University of Tokyo

>  <COMMENT>  (940) 
SMILES=OC(=O)C(C2)=CCCC(C)=CC([H])(O1)C([H])(CCC(C)=CC2)C(=C)C(=O)1
InChI=InChI=1S/C20H26O4/c1-13-6-4-8-16(19(21)22)9-5-7-14(2)12-18-17(11-10-13)15(3)20(23)24-18/h6,9,12,17-18H,3-5,7-8,10-11H2,1-2H3,(H,21,22)/b13-6+,14-12+,16-9+/t17-,18-/m0/s1
computed SMILES=O=C(O)C1=CCCC(=CC2OC(=O)C(=C)C2CCC(=CCC1)C)C
computed InChI=InChI=1S/C20H26O4/c1-13-6-4-8-16(19(21)22)9-5-7-14(2)12-18-17(11-10-13)15(3)20(23)24-18/h6,9,12,17-18H,3-5,7-8,10-11H2,1-2H3,(H,21,22)/b13-6-,14-12+,16-9+/t17-,18-/m0/s1
license=CC BY-NC-SA
accession=JP010637
date=2016.01.19 (Created 2008.10.21, modified 2011.05.06)
author=EGUCHI S, FAC. OF SCIENCE, HIROSHIMA UNIV.
exact mass=330.18311
ionization energy=70 eV
ion type=[M]+*
computed spectral entropy=4.82592358374732
computed normalized entropy=0.8925042125014937
SPLASH=splash10-0006-9720000000-36b48a0f1282284dc92c
submitter=submitter = University of Tokyo Team (Faculty of Engineering, University of Tokyo)
MoNA Rating=3.75

>  <NUM PEAKS>  (940) 
223

>  <MASS SPECTRAL PEAKS>  (940) 
41 99.99
42 16
43 57
44 0.9
45 29.5
46 6.8
50 4.5
51 1.14
52 6.8
53 95.5
54 15.9
55 7.95
56 15.9
57 36.4
58 4.5
59 0.68
60 20.5
61 6.8
63 4.5
65 2.05
66 11.4
67 36.4
68 18.2
69 3.64
70 11.4
71 22.7
72 4.5
73 2.5
74 6.8
75 6.8
76 4.5
77 3.4
78 9.1
79 45
80 15.9
81 9.5
82 25
83 31.8
84 15.9
85 1.36
86 4.5
87 6.8
91 50
92 1.14
93 31.8
94 15.9
95 25
96 1.14
97 16
98 11.4
99 6.8
101 0.68
102 4.5
103 6.8
104 3.8
105 4.32
106 11.4
107 31.8
108 11.2
109 1.82
110 6.8
111 11.5
112 4
113 0.45
114 4
115 11.5
116 6.8
117 1.36
118 11.5
119 29.5
120 16
121 2.3
122 11
123 11.5
124 9
125 0.68
126 4.5
127 7
128 6.5
129 1.82
130 4.5
131 20.5
132 6.8
133 2.05
134 13.6
135 13.6
136 11
137 1.16
139 4.5
140 4.5
141 6.8
142 0.6
143 11.4
144 5.7
145 15.9
146 0.7
147 20.5
148 7
149 22.7
150 1.14
151 13.6
152 7
153 6.8
154 0.45
155 6.8
156 4.5
157 11.4
158 0.68
159 14
160 7
161 11.4
162 0.7
163 18.2
164 16
165 9.1
166 0.45
167 7
168 4.5
169 9.1
170 0.45
171 9.1
172 4.5
173 11.4
174 0.7
175 11.5
176 9
177 11.4
178 0.91
179 6.8
181 4.5
182 3
183 0.7
184 3
185 13.6
186 9.1
187 0.9
188 7
189 9
190 7
191 0.7
192 7
193 9.1
194 4.5
195 0.45
196 4.5
197 6.8
198 4.5
199 0.91
200 6.9
201 8
202 5
203 0.9
204 5
205 7
206 4
207 0.5
208 3.5
209 5
210 4
211 0.7
212 4
213 10
214 5
215 0.7
216 6.8
217 9.1
218 6
219 0.7
220 3
221 3
222 3
223 0.3
224 2.5
225 3
226 2.5
227 0.7
228 7
229 7
230 4.5
231 0.7
232 4.5
233 4
236 2
237 0.2
238 4.5
239 7
240 4.5
241 0.7
242 5
243 4.5
244 3
246 0.2
247 2
248 2
249 2
251 0.5
252 4
253 4.5
254 4
255 0.4
256 11.4
257 4.5
262 9.1
265 0.23
266 6.8
267 4.5
268 2.3
270 0.45
284 15.9
285 6.8
286 2.3
294 0.64
295 2.3
296 2.3
297 4.5
298 0.23
312 25
313 6.8
314 2.3
315 0.23
330 6.8
331 2
332 1.5

>  <PREDICTED SPECTRUM>  (940) 
0 18
1 8
13 5
18 14
26 14
27 76
28 40
29 72
31 9
32 0
34 3
36 21
37 4
38 23
39 297
40 194
41 922
42 255
43 724
44 281
45 247
46 65
47 59
49 59
50 117
51 293
52 262
53 697
54 384
55 999
56 316
57 315
58 110
59 174
60 145
61 68
62 63
63 172
64 122
65 485
66 320
67 682
68 571
69 588
70 222
71 280
72 82
73 106
74 73
75 24
76 33
77 596
78 329
79 716
80 467
81 830
82 519
83 507
84 444
85 208
86 85
87 78
88 87
89 141
90 91
91 844
92 503
93 727
94 544
95 594
96 440
97 403
98 195
99 115
100 38
102 41
103 262
104 253
105 581
106 310
107 614
108 394
109 441
110 305
111 344
112 116
113 73
115 301
116 198
117 357
118 365
119 655
120 299
121 569
122 367
123 443
124 312
125 147
126 95
127 101
128 198
129 200
130 172
131 516
132 396
133 515
134 480
135 543
136 375
137 296
138 205
139 131
141 103
142 131
143 254
144 289
145 377
146 320
147 577
148 377
149 289
150 352
151 267
152 159
153 127
154 99
155 175
156 24
157 222
158 194
159 452
160 298
161 411
162 403
163 347
164 350
165 386
166 150
167 124
168 94
169 29
170 46
171 222
172 187
173 360
174 287
175 332
176 293
177 285
178 315
179 225
180 147
181 144
182 101
183 117
184 124
185 224
186 160
187 259
188 235
189 337
190 253
191 206
192 160
193 77
194 70
195 159
196 114
197 126
198 178
199 316
200 167
201 249
202 194
203 282
204 178
205 159
206 83
207 193
208 21
209 83
210 30
211 66
212 106
213 237
214 246
215 241
216 219
217 180
218 243
219 187
220 73
221 64
223 112
224 104
225 104
226 74
227 186
228 195
229 174
230 247
231 276
232 208
233 147
234 53
235 14
237 62
238 94
239 42
240 135
241 252
242 163
243 109
244 130
245 53
246 88
247 47
248 39
250 33
251 48
252 63
253 49
254 44
255 195
256 286
257 224
258 135
259 43
260 50
262 118
266 109
267 178
268 186
269 184
270 47
271 22
272 70
273 23
275 23
276 52
279 16
283 57
284 381
285 215
286 118
287 81
288 76
295 32
296 9
297 66
301 11
302 96
303 8
312 341
313 162
314 40
315 79
330 380
331 132
332 5

$$$$

     RDKit          2D

 21 21  0  0  1  0  0  0  0  0999 V2000
    2.3461   -2.0181    0.0000 C   0  0  0  0  0  0  0  0  0  0  0  0
    4.5980   -0.7224    0.0000 C   0  0  0  0  0  0  0  0  0  0  0  0
   -4.3980    4.4702    0.0000 C   0  0  0  0  0  0  0  0  0  0  0  0
   -2.1502   -2.0189    0.0000 C   0  0  0  0  0  0  0  0  0  0  0  0
    0.0998    1.8711    0.0000 C   0  0  0  0  0  0  0  0  0  0  0  0
   -3.6500    0.5800    0.0000 C   0  0  0  0  0  0  0  0  0  0  0  0
   -1.4000    4.4700    0.0000 C   0  0  0  0  0  0  0  0  0  0  0  0
   -4.4000    1.8800    0.0000 C   0  0  0  0  0  0  0  0  0  0  0  0
   -2.1500    3.1700    0.0000 C   0  0  0  0  0  0  0  0  0  0  0  0
   -2.1500    0.5800    0.0000 C   0  0  0  0  0  0  0  0  0  0  0  0
    0.1000    4.4700    0.0000 C   0  0  0  0  0  0  0  0  0  0  0  0
    0.1000   -0.7200    0.0000 C   0  0  0  0  0  0  0  0  0  0  0  0
    0.8500    0.5800    0.0000 C   0  0  0  0  0  0  0  0  0  0  0  0
    2.3500    3.1700    0.0000 C   0  0  0  0  0  0  0  0  0  0  0  0
    3.0980   -0.7202    0.0000 C   0  0  0  0  0  0  0  0  0  0  0  0
   -3.6500    3.1700    0.0000 C   0  0  0  0  0  0  0  0  0  0  0  0
   -1.4000   -0.7200    0.0000 C   0  0  0  0  0  0  0  0  0  0  0  0
    0.8500    3.1700    0.0000 C   0  0  0  0  0  0  0  0  0  0  0  0
    2.3500    0.5800    0.0000 C   0  0  0  0  0  0  0  0  0  0  0  0
    3.1000    1.8700    0.0000 C   0  0  0  0  0  0  0  0  0  0  0  0
    4.6000    1.8675    0.0000 O   0  0  0  0  0  0  0  0  0  0  0  0
  8  6  1  0
  9  7  1  0
 10  6  1  0
 11  7  1  0
 13 12  1  0
 15  1  2  0
 15  2  1  0
 16  3  1  0
  8 16  2  0
 16  9  1  0
 17  4  1  0
 17 10  1  0
 12 17  2  0
 18  5  1  0
 11 18  2  0
 18 14  1  0
 19 13  1  0
 19 15  1  1
 20 14  1  0
 20 19  1  0
 21 20  1  0
M  END
>  <NAME>  (941) 
13-HYDROXYNEOCEMBRENE

>  <SYNONYMS>  (941) 


>  <SPECTRUM TYPE>  (941) 
MS1

>  <INSTRUMENT TYPE>  (941) 
EI-B

>  <INSTRUMENT>  (941) 
HITACHI RMU-6L

>  <ION MODE>  (941) 
P

>  <INCHIKEY>  (941) 
HTWXQGABXITTNW-QZNKQHNXSA-N

>  <FORMULA>  (941) 
C20H32O

>  <EXACT MASS>  (941) 
288.245315644

>  <MW>  (941) 
288

>  <ID>  (941) 
JP010636

>  <CONTRIBUTOR>  (941) 
University of Tokyo Team, {Faculty of Engineering, University of Tokyo

>  <COMMENT>  (941) 
SMILES=[H]C(C1)=C(C)CCC([H])=C(C)CC(O)C([H])(C(C)=C)CC([H])=C(C)C1
InChI=InChI=1S/C20H32O/c1-15(2)19-13-12-17(4)10-6-8-16(3)9-7-11-18(5)14-20(19)21/h8,11-12,19-21H,1,6-7,9-10,13-14H2,2-5H3/b16-8+,17-12+,18-11+/t19-,20?/m1/s1
computed SMILES=OC1CC(=CCCC(=CCCC(=CCC1C(=C)C)C)C)C
computed InChI=InChI=1S/C20H32O/c1-15(2)19-13-12-17(4)10-6-8-16(3)9-7-11-18(5)14-20(19)21/h8,11-12,19-21H,1,6-7,9-10,13-14H2,2-5H3/b16-8-,17-12-,18-11+/t19-,20?/m1/s1
accession=JP010636
date=2016.01.19 (Created 2008.10.21, modified 2011.05.06)
author=EGUCHI S, FAC. OF SCIENCE, HIROSHIMA UNIV.
ion type=[M]+*
license=CC BY-NC-SA
exact mass=288.24532
ionization energy=70 eV
computed spectral entropy=4.00003822319336
computed normalized entropy=0.8142314728452664
SPLASH=splash10-066u-9510000000-3d8c7876403ae3a1faac
submitter=submitter = University of Tokyo Team (Faculty of Engineering, University of Tokyo)
MoNA Rating=3.75

>  <NUM PEAKS>  (941) 
136

>  <MASS SPECTRAL PEAKS>  (941) 
41 99.99
42 10.5
43 27.6
44 0.39
45 1.3
51 3.9
52 2.6
53 3.42
54 7.9
55 46.1
56 13.2
57 1.32
58 1.3
59 1.3
65 10.5
66 0.66
67 46.1
68 69.7
69 81.6
70 0.39
71 9.2
75 2.6
77 18.4
78 0.39
79 35.5
80 17.1
81 92.1
82 1.58
83 22.4
84 42.1
85 7.9
91 2.63
92 13.2
93 63.2
94 22.4
95 4.21
96 10.5
97 13.2
105 21.1
106 0.79
107 48.7
108 21.1
109 47.4
110 0.92
111 5.3
119 15.8
120 10.5
121 5.13
122 17.1
123 51.3
124 7.9
125 0.53
129 1.3
131 5.3
132 3.9
133 1.45
134 14.5
135 15.8
136 22.4
137 1.32
138 9.2
139 5.3
143 1.3
144 0.19
145 1.3
146 5.3
147 13.2
148 1.05
149 14.5
150 7.9
151 7.9
152 0.39
153 1.2
159 7.9
160 2.6
161 1.05
162 8
163 6.6
164 5.4
165 0.4
166 1
171 2.6
173 4
174 0.15
175 11.9
176 9.2
177 9
178 0.4
179 1.3
185 1.3
186 1.3
187 0.4
188 2
189 7
190 4
191 0.8
192 4
193 1.3
199 1.3
201 0.46
202 2.6
203 3.3
204 2.5
205 0.4
206 2
207 5.3
209 1.4
213 0.2
214 1.5
215 2.7
217 5.3
218 0.2
219 5.3
220 4
221 1.3
228 0.33
229 2
230 1.3
231 1.3
232 0.19
233 1.3
245 5.3
246 1.4
255 0.4
256 1.5
259 1.5
260 3.3
261 0.07
262 1.3
270 4
271 1.3
273 0.79
274 1.4
288 17.1
289 5.3
290 1.3

>  <PREDICTED SPECTRUM>  (941) 
27 32
28 19
29 79
39 190
40 108
41 832
42 271
43 520
44 151
45 96
49 28
50 35
51 160
52 138
53 592
54 356
55 890
56 280
57 316
58 108
59 111
60 10
61 5
63 36
64 41
65 279
66 224
67 883
68 754
69 791
70 253
71 390
72 55
77 405
78 190
79 685
80 387
81 999
82 622
83 530
84 511
85 300
86 6
91 451
92 316
93 808
94 533
95 803
96 456
97 400
98 73
99 29
103 96
104 82
105 453
106 318
107 785
108 520
109 814
110 296
111 329
112 60
113 53
115 7
116 9
117 92
118 79
119 529
120 370
121 598
122 426
123 483
124 190
125 190
126 13
127 53
129 54
130 19
131 239
132 191
133 390
134 439
135 614
136 437
137 428
138 234
139 162
141 13
142 18
143 81
144 70
145 245
146 149
147 378
148 284
149 470
150 293
151 269
152 57
153 60
155 3
157 74
158 79
159 316
160 161
161 322
162 256
163 294
164 155
165 172
166 85
167 38
169 4
171 83
172 38
173 181
174 128
175 304
176 245
177 343
178 150
179 91
185 87
186 73
187 198
188 141
189 239
190 139
191 235
192 128
193 54
199 110
200 68
201 161
202 176
203 220
204 136
205 185
206 106
207 73
213 14
214 76
215 124
216 34
217 126
218 134
219 140
220 95
227 178
228 62
229 78
230 78
231 137
232 129
233 26
242 4
244 13
245 165
246 106
247 28
248 7
255 206
256 98
259 59
260 51
270 291
271 153
272 46
273 178
274 47
288 361
289 171
290 4

$$$$

     RDKit          2D

 20 20  0  0  1  0  0  0  0  0999 V2000
   -3.6502    5.7687    0.0000 C   0  0  0  0  0  0  0  0  0  0  0  0
   -1.4004    7.0681    0.0000 C   0  0  0  0  0  0  0  0  0  0  0  0
    0.8502   -2.0189    0.0000 C   0  0  0  0  0  0  0  0  0  0  0  0
    3.1002    4.4689    0.0000 C   0  0  0  0  0  0  0  0  0  0  0  0
   -5.9000    1.8825    0.0000 C   0  0  0  0  0  0  0  0  0  0  0  0
    2.3500    0.5800    0.0000 C   0  0  0  0  0  0  0  0  0  0  0  0
   -2.1500    0.5800    0.0000 C   0  0  0  0  0  0  0  0  0  0  0  0
    0.8500    0.5800    0.0000 C   0  0  0  0  0  0  0  0  0  0  0  0
   -1.4000   -0.7200    0.0000 C   0  0  0  0  0  0  0  0  0  0  0  0
    3.1000    1.8700    0.0000 C   0  0  0  0  0  0  0  0  0  0  0  0
   -3.6500    0.5800    0.0000 C   0  0  0  0  0  0  0  0  0  0  0  0
    0.8500    3.1700    0.0000 C   0  0  0  0  0  0  0  0  0  0  0  0
   -3.6500    3.1700    0.0000 C   0  0  0  0  0  0  0  0  0  0  0  0
    0.1000    4.4700    0.0000 C   0  0  0  0  0  0  0  0  0  0  0  0
   -2.1500    3.1700    0.0000 C   0  0  0  0  0  0  0  0  0  0  0  0
   -2.1502    5.7689    0.0000 C   0  0  0  0  0  0  0  0  0  0  0  0
    0.1000   -0.7200    0.0000 C   0  0  0  0  0  0  0  0  0  0  0  0
    2.3500    3.1700    0.0000 C   0  0  0  0  0  0  0  0  0  0  0  0
   -4.4000    1.8800    0.0000 C   0  0  0  0  0  0  0  0  0  0  0  0
   -1.4000    4.4700    0.0000 C   0  0  0  0  0  0  0  0  0  0  0  0
  8  6  1  0
  9  7  1  0
 10  6  1  0
 11  7  1  0
 12 14  2  0
 15 13  1  0
 16  1  2  0
 16  2  1  0
 17  3  1  0
  8 17  2  0
 17  9  1  0
 18  4  1  0
 10 18  2  0
 18 12  1  0
 19  5  1  0
 11 19  2  3
 19 13  1  0
 20 14  1  0
 20 15  1  0
 20 16  1  6
M  END
>  <NAME>  (942) 
(1R,2E,4Z,7E,11E)-CEMBRA-2,4,7,11,15-PENTAENE

>  <SYNONYMS>  (942) 
CEMBRENENE

>  <SPECTRUM TYPE>  (942) 
MS1

>  <INSTRUMENT TYPE>  (942) 
EI-B

>  <INSTRUMENT>  (942) 
HITACHI RMU-6L

>  <ION MODE>  (942) 
P

>  <INCHIKEY>  (942) 
RLAFZRBJBUMWGN-JJDAXJIHSA-N

>  <FORMULA>  (942) 
C20H30

>  <EXACT MASS>  (942) 
270.23475096

>  <MW>  (942) 
270

>  <ID>  (942) 
JP010635

>  <CONTRIBUTOR>  (942) 
University of Tokyo Team, {Faculty of Engineering, University of Tokyo

>  <COMMENT>  (942) 
SMILES=[H]C(C1)=C(C)CCC([H])(C(C)=C)C([H])=C([H])C(C)=C([H])CC([H])=C(C)C1
InChI=InChI=1S/C20H30/c1-16(2)20-14-12-18(4)10-6-8-17(3)9-7-11-19(5)13-15-20/h8,10-12,14,20H,1,6-7,9,13,15H2,2-5H3/b14-12+,17-8+,18-10-,19-11+/t20-/m1/s1
computed SMILES=C=C(C)C1C=CC(=CCC=C(C)CCC=C(C)CC1)C
computed InChI=InChI=1S/C20H30/c1-16(2)20-14-12-18(4)10-6-8-17(3)9-7-11-19(5)13-15-20/h8,10-12,14,20H,1,6-7,9,13,15H2,2-5H3/b14-12+,17-8+,18-10-,19-11?/t20-/m1/s1
accession=JP010635
date=2016.01.19 (Created 2008.10.21, modified 2011.05.06)
author=EGUCHI S, FAC. OF SCIENCE, HIROSHIMA UNIV.
license=CC BY-NC-SA
exact mass=270.23475
ionization energy=70 eV
ion type=[M]+*
computed spectral entropy=4.035543270586824
computed normalized entropy=0.8602097674046916
SPLASH=splash10-0536-7900000000-7edad3cecc6336de55c5
submitter=submitter = University of Tokyo Team (Faculty of Engineering, University of Tokyo)
MoNA Rating=3.75

>  <NUM PEAKS>  (942) 
109

>  <MASS SPECTRAL PEAKS>  (942) 
40 8
41 99.99
42 7
43 2.45
51 9.5
52 6.5
53 39.5
54 0.75
55 72
56 6
57 9
60 0.65
63 5.5
65 19.5
66 8
67 4.35
68 16.5
69 27.5
70 5.5
71 0.65
73 6.5
77 47
78 15
79 5.7
80 24
81 60.5
82 10.5
83 1
91 70
92 21.5
93 81.5
94 2.1
95 30
96 5.5
97 5
103 0.95
104 7.5
105 73.5
106 25.5
107 5.95
108 19.5
109 21
110 5.5
111 0.5
115 11.5
116 8.5
117 19.5
118 0.95
119 74.5
120 41
121 42.5
122 1.1
123 9.5
128 7
129 11.5
130 0.8
131 31
132 18.5
133 85.5
134 4.3
135 17
136 4.5
141 4.5
142 0.45
143 11.5
144 7.5
145 34.5
146 2.3
147 29
148 12.5
149 8
157 1.25
158 9.5
159 59.5
160 17
161 1.4
162 6.5
163 4.5
171 11.5
172 0.55
173 16.5
174 8.5
175 7
176 0.45
185 16.5
186 7
187 23
188 0.8
189 6
190 2
199 11.5
200 0.45
201 7.5
202 7
203 2
213 0.6
214 4.5
215 5.5
216 2
227 0.95
228 4.5
229 2
241 4.5
242 0.2
255 15
256 5.5
270 31.5
271 0.95
272 1.5

>  <PREDICTED SPECTRUM>  (942) 
27 66
29 154
37 30
38 41
39 299
40 159
41 943
42 222
43 236
44 100
45 43
49 10
50 89
51 268
52 183
53 574
54 159
55 878
56 158
57 232
58 11
59 21
62 32
63 168
64 133
65 445
66 266
67 724
68 391
69 673
70 85
71 100
75 52
76 43
77 712
78 342
79 797
80 411
81 858
82 337
83 277
84 72
85 75
89 143
90 65
91 920
92 532
93 989
94 420
95 653
96 236
97 239
102 74
103 255
104 189
105 813
106 467
107 848
108 613
109 535
110 144
111 103
113 28
115 329
116 171
117 452
118 322
119 999
120 608
121 703
122 148
123 256
125 15
127 72
128 202
129 320
130 189
131 643
132 481
133 863
134 480
135 674
136 233
137 165
141 30
143 246
144 167
145 684
146 407
147 696
148 404
149 220
156 17
157 216
158 279
159 734
160 457
161 385
162 235
163 123
169 3
171 318
172 182
173 364
174 325
175 373
176 121
185 321
186 259
187 472
188 253
189 294
190 37
199 298
200 173
201 350
202 204
203 17
213 206
214 180
215 179
227 255
228 133
229 81
241 155
242 68
255 460
256 153
268 12
270 545
271 249
272 95

$$$$

     RDKit          2D

 20 20  0  0  1  0  0  0  0  0999 V2000
   -1.4004    7.0681    0.0000 C   0  0  0  0  0  0  0  0  0  0  0  0
   -3.6502    5.7687    0.0000 C   0  0  0  0  0  0  0  0  0  0  0  0
    0.8502   -2.0189    0.0000 C   0  0  0  0  0  0  0  0  0  0  0  0
    3.1002    4.4689    0.0000 C   0  0  0  0  0  0  0  0  0  0  0  0
   -5.9000    1.8825    0.0000 C   0  0  0  0  0  0  0  0  0  0  0  0
    2.3500    0.5800    0.0000 C   0  0  0  0  0  0  0  0  0  0  0  0
   -2.1500    0.5800    0.0000 C   0  0  0  0  0  0  0  0  0  0  0  0
    0.8500    0.5800    0.0000 C   0  0  0  0  0  0  0  0  0  0  0  0
   -1.4000   -0.7200    0.0000 C   0  0  0  0  0  0  0  0  0  0  0  0
    3.1000    1.8700    0.0000 C   0  0  0  0  0  0  0  0  0  0  0  0
   -3.6500    0.5800    0.0000 C   0  0  0  0  0  0  0  0  0  0  0  0
    0.8500    3.1700    0.0000 C   0  0  0  0  0  0  0  0  0  0  0  0
   -3.6500    3.1700    0.0000 C   0  0  0  0  0  0  0  0  0  0  0  0
    0.1000    4.4700    0.0000 C   0  0  0  0  0  0  0  0  0  0  0  0
   -2.1500    3.1700    0.0000 C   0  0  0  0  0  0  0  0  0  0  0  0
   -2.1502    5.7689    0.0000 C   0  0  0  0  0  0  0  0  0  0  0  0
    0.1000   -0.7200    0.0000 C   0  0  0  0  0  0  0  0  0  0  0  0
    2.3500    3.1700    0.0000 C   0  0  0  0  0  0  0  0  0  0  0  0
   -4.4000    1.8800    0.0000 C   0  0  0  0  0  0  0  0  0  0  0  0
   -1.4000    4.4700    0.0000 C   0  0  0  0  0  0  0  0  0  0  0  0
  8  6  1  0
  9  7  1  0
 10  6  1  0
 11  7  1  0
 12 14  2  0
 15 13  1  0
 16  1  1  0
 16  2  1  0
 17  3  1  0
  8 17  2  0
 17  9  1  0
 18  4  1  0
 10 18  2  0
 18 12  1  0
 19  5  1  0
 11 19  2  3
 19 13  1  0
 20 14  1  0
 20 15  1  0
 20 16  1  6
M  END
>  <NAME>  (943) 
(1R,2E,4Z,7E,11E)-CEMBRA-2,4,7,11-TETRAENE

>  <SYNONYMS>  (943) 


>  <SPECTRUM TYPE>  (943) 
MS1

>  <INSTRUMENT TYPE>  (943) 
EI-B

>  <INSTRUMENT>  (943) 
HITACHI RMU-6L

>  <ION MODE>  (943) 
P

>  <INCHIKEY>  (943) 
DMHADBQKVWXPPM-JJDAXJIHSA-N

>  <FORMULA>  (943) 
C20H32

>  <EXACT MASS>  (943) 
272.250401024

>  <MW>  (943) 
272

>  <ID>  (943) 
JP010634

>  <CONTRIBUTOR>  (943) 
University of Tokyo Team, {Faculty of Engineering, University of Tokyo

>  <COMMENT>  (943) 
SMILES=[H]C(C1)=C(C)CCC([H])(C(C)C)C([H])=C([H])C(C)=C([H])CC([H])=C(C)C1
InChI=InChI=1S/C20H32/c1-16(2)20-14-12-18(4)10-6-8-17(3)9-7-11-19(5)13-15-20/h8,10-12,14,16,20H,6-7,9,13,15H2,1-5H3/b14-12+,17-8+,18-10-,19-11+/t20-/m1/s1
computed SMILES=C1=CC(CCC(=CCCC(=CCC=C1C)C)C)C(C)C
computed InChI=InChI=1S/C20H32/c1-16(2)20-14-12-18(4)10-6-8-17(3)9-7-11-19(5)13-15-20/h8,10-12,14,16,20H,6-7,9,13,15H2,1-5H3/b14-12+,17-8+,18-10-,19-11?/t20-/m1/s1
accession=JP010634
date=2016.01.19 (Created 2008.10.21, modified 2011.05.06)
author=EGUCHI S, FAC. OF SCIENCE, HIROSHIMA UNIV.
license=CC BY-NC-SA
exact mass=272.2504
ionization energy=70 eV
ion type=[M]+*
computed spectral entropy=4.364035751307963
computed normalized entropy=0.8546968967089554
SPLASH=splash10-052f-8910000000-7059b2c790944066d725
submitter=submitter = University of Tokyo Team (Faculty of Engineering, University of Tokyo)
MoNA Rating=3.75

>  <NUM PEAKS>  (943) 
165

>  <MASS SPECTRAL PEAKS>  (943) 
40 7.6
41 91.9
42 7.6
43 4.3
44 3.5
50 2.3
51 8.1
52 0.58
53 29.1
54 4.7
55 63.4
56 0.58
57 11.6
58 1.7
62 1.2
63 0.29
64 2.3
65 12.8
66 5.8
67 4.77
68 36
69 48.3
70 4.7
71 0.52
76 2.3
77 34.9
78 9.9
79 4.94
80 20.9
81 99.99
82 14.9
83 1.51
84 2.9
85 5.8
89 2.3
90 0.17
91 53.5
92 18
93 95.9
94 2.21
95 43
96 7.6
97 8.7
102 0.17
103 5.8
104 4.1
105 58.7
106 2.03
107 65.7
108 25
109 38.4
110 0.58
111 6.4
115 9.3
116 6.4
117 1.05
118 7
119 50
120 25.6
121 5.23
122 18.6
123 23.3
124 5.2
125 0.23
126 1.7
127 2.9
128 5.8
129 0.75
130 7
131 18.5
132 8.1
133 4.48
134 25.6
135 32
136 24.4
137 0.99
138 2.3
139 3.5
140 1.2
141 0.7
142 5.8
143 7
144 5.8
145 2.09
146 7.6
147 28.5
148 18.6
149 2.15
150 11.6
151 7
152 4.7
153 0.47
154 3.5
155 4.7
156 3.5
157 0.81
158 7
159 30.2
160 10.5
161 2.91
162 12.8
163 9.3
164 7
165 0.58
166 4.7
167 5.2
168 5.2
169 0.52
170 2.9
171 6.4
172 4.7
173 1.63
174 7
175 11.6
176 7
178 0.93
179 5.8
180 3.5
181 4.7
182 0.41
183 4.7
184 4.7
185 9.3
186 0.81
187 15.1
188 8.1
189 18.6
190 0.87
191 8.1
192 5.8
193 5.2
194 0.47
195 4.7
196 4.7
197 12.8
198 0.52
199 4.7
200 6.4
201 10.5
202 0.93
203 8.1
204 7.5
205 5.2
206 0.47
213 1.7
214 2.3
215 7.5
216 0.7
217 6.4
218 1.7
219 1.2
228 0.35
229 30.2
230 9.3
231 4.7
242 0.17
243 5.8
244 4.7
245 4.7
257 1.28
258 5.8
259 3.5
272 39.5
273 1.16
274 1.7

>  <PREDICTED SPECTRUM>  (943) 
27 12
29 83
37 50
38 37
39 199
40 132
41 776
42 178
43 325
44 47
49 13
50 40
51 149
52 119
53 453
54 211
55 752
56 197
57 339
58 32
59 23
61 2
63 90
64 69
65 292
66 255
67 724
68 412
69 694
70 161
71 277
75 90
76 19
77 576
78 278
79 663
80 467
81 999
82 514
83 515
84 223
85 229
89 42
91 636
92 501
93 977
94 417
95 789
96 316
97 348
102 4
103 151
104 108
105 575
106 386
107 846
108 609
109 572
110 182
111 173
115 138
116 1
117 232
118 135
119 703
120 505
121 756
122 367
123 460
125 71
129 39
131 352
132 288
133 667
134 356
135 671
136 436
137 406
138 43
139 39
145 288
146 151
147 560
148 359
149 374
150 124
151 57
159 481
160 250
161 508
162 341
163 229
164 121
165 32
173 208
174 167
175 300
176 137
177 163
187 292
188 215
189 337
190 177
191 104
201 256
202 179
203 192
204 158
215 188
216 59
217 36
229 362
230 185
231 23
243 59
257 270
258 91
270 21
272 520
273 248
274 32

$$$$

     RDKit          2D

 20 20  0  0  1  0  0  0  0  0999 V2000
    4.5980   -0.7224    0.0000 C   0  0  0  0  0  0  0  0  0  0  0  0
    2.3461   -2.0181    0.0000 C   0  0  0  0  0  0  0  0  0  0  0  0
   -4.3980    4.4702    0.0000 C   0  0  0  0  0  0  0  0  0  0  0  0
   -2.1502   -2.0189    0.0000 C   0  0  0  0  0  0  0  0  0  0  0  0
    0.0998    1.8711    0.0000 C   0  0  0  0  0  0  0  0  0  0  0  0
   -3.6500    0.5800    0.0000 C   0  0  0  0  0  0  0  0  0  0  0  0
   -1.4000    4.4700    0.0000 C   0  0  0  0  0  0  0  0  0  0  0  0
   -4.4000    1.8800    0.0000 C   0  0  0  0  0  0  0  0  0  0  0  0
   -2.1500    3.1700    0.0000 C   0  0  0  0  0  0  0  0  0  0  0  0
   -2.1500    0.5800    0.0000 C   0  0  0  0  0  0  0  0  0  0  0  0
    0.1000    4.4700    0.0000 C   0  0  0  0  0  0  0  0  0  0  0  0
    0.1000   -0.7200    0.0000 C   0  0  0  0  0  0  0  0  0  0  0  0
    2.3500    3.1700    0.0000 C   0  0  0  0  0  0  0  0  0  0  0  0
    0.8500    0.5800    0.0000 C   0  0  0  0  0  0  0  0  0  0  0  0
    3.1000    1.8700    0.0000 C   0  0  0  0  0  0  0  0  0  0  0  0
    3.0980   -0.7202    0.0000 C   0  0  0  0  0  0  0  0  0  0  0  0
   -3.6500    3.1700    0.0000 C   0  0  0  0  0  0  0  0  0  0  0  0
   -1.4000   -0.7200    0.0000 C   0  0  0  0  0  0  0  0  0  0  0  0
    0.8500    3.1700    0.0000 C   0  0  0  0  0  0  0  0  0  0  0  0
    2.3500    0.5800    0.0000 C   0  0  0  0  0  0  0  0  0  0  0  0
  8  6  1  0
  9  7  1  0
 10  6  1  0
 11  7  1  0
 14 12  1  0
 15 13  1  0
 16  1  1  0
 16  2  1  0
 17  3  1  0
  8 17  2  0
 17  9  1  0
 18  4  1  0
 18 10  1  0
 12 18  2  0
 19  5  1  0
 11 19  2  0
 19 13  1  0
 20 14  1  0
 20 15  1  0
 20 16  1  6
M  END
>  <NAME>  (944) 
(1S,3E,7E,11E)-CEMBRA-3,7,11-TRIENE

>  <SYNONYMS>  (944) 


>  <SPECTRUM TYPE>  (944) 
MS1

>  <INSTRUMENT TYPE>  (944) 
EI-B

>  <INSTRUMENT>  (944) 
HITACHI RMU-6L

>  <ION MODE>  (944) 
P

>  <INCHIKEY>  (944) 
OKMQTAYLLFRHKE-UYSOGGTPSA-N

>  <FORMULA>  (944) 
C20H34

>  <EXACT MASS>  (944) 
274.266051088

>  <MW>  (944) 
274

>  <ID>  (944) 
JP010633

>  <CONTRIBUTOR>  (944) 
University of Tokyo Team, {Faculty of Engineering, University of Tokyo

>  <COMMENT>  (944) 
SMILES=CC(C1)=C([H])CCC(C)=C([H])CC([H])(CCC(C)=C([H])C1)C(C)C
InChI=InChI=1S/C20H34/c1-16(2)20-14-12-18(4)10-6-8-17(3)9-7-11-19(5)13-15-20/h8,11-12,16,20H,6-7,9-10,13-15H2,1-5H3/b17-8+,18-12+,19-11+/t20-/m1/s1
computed SMILES=C1=C(C)CCC=C(C)CCC(CC=C(C)CC1)C(C)C
computed InChI=InChI=1S/C20H34/c1-16(2)20-14-12-18(4)10-6-8-17(3)9-7-11-19(5)13-15-20/h8,11-12,16,20H,6-7,9-10,13-15H2,1-5H3/b17-8-,18-12-,19-11+/t20-/m1/s1
accession=JP010633
date=2016.01.19 (Created 2008.10.21, modified 2011.05.06)
author=EGUCHI S, FAC. OF SCIENCE, HIROSHIMA UNIV.
license=CC BY-NC-SA
exact mass=274.26605
ionization energy=70 eV
ion type=[M]+*
computed spectral entropy=3.7903777286532905
computed normalized entropy=0.8266967533109578
SPLASH=splash10-0apl-9400000000-92fffa826cf87cdec1e1
submitter=submitter = University of Tokyo Team (Faculty of Engineering, University of Tokyo)
MoNA Rating=3.75

>  <NUM PEAKS>  (944) 
98

>  <MASS SPECTRAL PEAKS>  (944) 
41 91
42 10.9
43 41.8
44 0.18
51 2.7
52 1.8
53 32.7
54 0.55
55 78.2
56 7.3
57 23.6
58 0.18
65 7.3
66 5.5
67 69
68 6.7
69 94.5
70 9.1
71 12.7
77 1.64
78 3.6
79 34.5
80 12.7
81 99.99
82 28.2
83 27.3
84 3.6
85 0.55
91 16.4
92 7.3
93 52.7
94 2.36
95 76.4
96 20
97 10.9
98 0.18
105 14.5
106 5.5
107 60
108 4.55
109 47.3
110 9.1
111 5.5
119 1.09
120 5.5
121 43.6
122 29.1
123 7.45
124 10.9
125 3.6
133 7.3
134 0.55
135 29.1
136 30.9
137 20
138 0.55
147 9.1
148 3.6
149 20
150 1.82
151 7.3
152 1.8
161 9.1
162 0.36
163 25.5
164 9.1
165 5.5
166 0.2
175 8.2
176 3.6
177 10.9
178 0.73
179 3.6
180 1.8
189 7.3
190 0.36
191 10.9
192 3.6
193 0.9
203 0.55
204 3.6
205 2.7
206 1.8
217 0.27
218 1.8
219 1.8
231 16.3
232 0.55
233 0.9
245 1.8
246 0.9
247 0.09
259 12.7
260 3.6
261 0.9
274 2.36
275 6.3
276 0.9

>  <PREDICTED SPECTRUM>  (944) 
27 78
28 33
29 113
39 152
40 109
41 636
42 203
43 412
44 38
51 101
52 93
53 426
54 212
55 722
56 230
57 251
64 6
65 162
66 199
67 790
68 582
69 739
70 170
71 230
77 308
78 176
79 496
80 339
81 999
82 648
83 540
84 140
85 67
91 340
92 225
93 675
94 347
95 884
96 415
97 320
98 9
99 31
105 246
106 261
107 719
108 460
109 698
110 232
111 175
112 38
113 23
115 35
119 205
120 271
121 642
122 448
123 470
124 234
125 186
133 263
134 210
135 657
136 502
137 416
138 137
139 53
146 5
147 259
148 138
149 383
150 261
151 280
152 111
160 25
161 234
162 168
163 511
164 244
165 119
174 6
175 274
176 168
177 267
178 95
179 108
180 12
189 272
190 160
191 310
192 132
193 97
203 221
204 108
205 155
206 131
207 0
217 111
218 105
219 89
231 375
232 163
245 128
246 89
257 1
259 334
260 96
274 411
275 177
276 12

$$$$

     RDKit          2D

 20 20  0  0  1  0  0  0  0  0999 V2000
    2.3461   -2.0181    0.0000 C   0  0  0  0  0  0  0  0  0  0  0  0
    4.5980   -0.7224    0.0000 C   0  0  0  0  0  0  0  0  0  0  0  0
   -4.3980    4.4702    0.0000 C   0  0  0  0  0  0  0  0  0  0  0  0
   -2.1502   -2.0189    0.0000 C   0  0  0  0  0  0  0  0  0  0  0  0
    0.0998    1.8711    0.0000 C   0  0  0  0  0  0  0  0  0  0  0  0
   -3.6500    0.5800    0.0000 C   0  0  0  0  0  0  0  0  0  0  0  0
   -1.4000    4.4700    0.0000 C   0  0  0  0  0  0  0  0  0  0  0  0
   -4.4000    1.8800    0.0000 C   0  0  0  0  0  0  0  0  0  0  0  0
   -2.1500    3.1700    0.0000 C   0  0  0  0  0  0  0  0  0  0  0  0
   -2.1500    0.5800    0.0000 C   0  0  0  0  0  0  0  0  0  0  0  0
    0.1000    4.4700    0.0000 C   0  0  0  0  0  0  0  0  0  0  0  0
    0.1000   -0.7200    0.0000 C   0  0  0  0  0  0  0  0  0  0  0  0
    2.3500    3.1700    0.0000 C   0  0  0  0  0  0  0  0  0  0  0  0
    0.8500    0.5800    0.0000 C   0  0  0  0  0  0  0  0  0  0  0  0
    3.1000    1.8700    0.0000 C   0  0  0  0  0  0  0  0  0  0  0  0
    3.0980   -0.7202    0.0000 C   0  0  0  0  0  0  0  0  0  0  0  0
   -3.6500    3.1700    0.0000 C   0  0  0  0  0  0  0  0  0  0  0  0
   -1.4000   -0.7200    0.0000 C   0  0  0  0  0  0  0  0  0  0  0  0
    0.8500    3.1700    0.0000 C   0  0  0  0  0  0  0  0  0  0  0  0
    2.3500    0.5800    0.0000 C   0  0  0  0  0  0  0  0  0  0  0  0
  8  6  1  0
  9  7  1  0
 10  6  1  0
 11  7  1  0
 14 12  1  0
 15 13  1  0
 16  1  2  0
 16  2  1  0
 17  3  1  0
  8 17  2  0
 17  9  1  0
 18  4  1  0
 18 10  1  0
 12 18  2  0
 19  5  1  0
 11 19  2  0
 19 13  1  0
 20 14  1  0
 20 15  1  0
 20 16  1  1
M  END
>  <NAME>  (945) 
(3E,7E,11E)-CEMBRA-3,7,11,15-TETRAENE

>  <SYNONYMS>  (945) 
CEMBRENE-A

>  <SPECTRUM TYPE>  (945) 
MS1

>  <INSTRUMENT TYPE>  (945) 
EI-B

>  <INSTRUMENT>  (945) 
HITACHI RMU-6L

>  <ION MODE>  (945) 
P

>  <INCHIKEY>  (945) 
VWSPQDDPRITBAM-KPGNMOGWSA-N

>  <FORMULA>  (945) 
C20H32

>  <EXACT MASS>  (945) 
272.250401024

>  <MW>  (945) 
272

>  <ID>  (945) 
JP010632

>  <CONTRIBUTOR>  (945) 
University of Tokyo Team, {Faculty of Engineering, University of Tokyo

>  <COMMENT>  (945) 
SMILES=CC(C1)=C([H])CCC(C)=C([H])CC([H])(CCC(C)=C([H])C1)C(C)=C
InChI=InChI=1S/C20H32/c1-16(2)20-14-12-18(4)10-6-8-17(3)9-7-11-19(5)13-15-20/h8,11-12,20H,1,6-7,9-10,13-15H2,2-5H3/b17-8+,18-12+,19-11+/t20-/m0/s1
computed SMILES=C=C(C)C1CC=C(C)CCC=C(C)CCC=C(C)CC1
computed InChI=InChI=1S/C20H32/c1-16(2)20-14-12-18(4)10-6-8-17(3)9-7-11-19(5)13-15-20/h8,11-12,20H,1,6-7,9-10,13-15H2,2-5H3/b17-8-,18-12-,19-11+/t20-/m0/s1
accession=JP010632
date=2016.01.19 (Created 2008.10.21, modified 2011.05.06)
author=EGUCHI S, FAC. OF SCIENCE, HIROSHIMA UNIV.
license=CC BY-NC-SA
exact mass=272.2504
ionization energy=70 eV
ion type=[M]+*
computed spectral entropy=4.0254722655544795
computed normalized entropy=0.8423034624145331
SPLASH=splash10-05nf-9710000000-4ced383c59d14b049fd3
submitter=submitter = University of Tokyo Team (Faculty of Engineering, University of Tokyo)
MoNA Rating=3.75

>  <NUM PEAKS>  (945) 
119

>  <MASS SPECTRAL PEAKS>  (945) 
41 79
42 9
43 20
44 0.4
45 2
51 6
52 4
53 3.9
54 6
55 60
56 6
57 0.7
63 4
64 2
65 13
66 0.8
67 57
68 64
69 43
70 0.6
71 4
77 29
78 8
79 5.1
80 23
81 99
82 14
83 1.1
84 4
85 3
91 35
92 1.5
93 99.99
94 32
95 42
96 0.9
97 7.5
103 4.5
104 3.8
105 3.4
106 15
107 76
108 38
109 5.4
110 7.6
111 4.5
115 5
116 0.3
117 5
118 4
119 34
120 2.27
121 57
122 26
123 23
124 0.45
131 7.6
132 6.9
133 30
134 2.27
135 34
136 15
137 6.9
141 0.4
142 1.5
143 4
145 11
146 0.76
147 25
148 19
149 17
150 0.45
155 4.5
156 1.5
159 13
160 0.69
161 24
162 11
163 9
164 0.3
165 4
169 6
170 4.5
171 0.15
173 10
174 5
175 15
176 0.8
177 6
178 2
183 5
184 0.3
185 1.5
187 10
188 5
189 1.7
190 7
191 5
192 1.5
201 0.9
202 5
203 6.9
204 5
205 0.15
215 7.6
216 6.8
217 4.5
218 0.2
229 8
230 4.5
231 2.3
232 0.15
243 5
244 4
257 17
258 0.5
272 24
273 7.5
274 2.3

>  <PREDICTED SPECTRUM>  (945) 
27 56
29 68
39 188
40 94
41 695
42 197
43 236
44 42
51 127
52 145
53 515
54 104
55 704
56 70
57 54
63 23
64 34
65 267
66 221
67 919
68 724
69 557
70 66
71 43
77 392
78 187
79 693
80 480
81 999
82 359
83 239
91 557
92 326
93 924
94 527
95 756
96 146
97 121
103 21
104 24
105 482
106 354
107 833
108 625
109 550
110 63
111 23
113 16
117 100
118 32
119 566
120 362
121 734
122 489
123 347
125 2
131 166
132 132
133 495
134 361
135 611
136 308
137 94
145 198
146 143
147 545
148 335
149 462
150 180
159 372
160 154
161 415
162 276
163 211
164 23
173 198
174 141
175 311
176 157
177 173
187 224
188 142
189 302
190 160
191 134
201 211
202 178
203 198
204 128
215 215
216 227
217 185
229 188
230 217
231 86
243 169
244 67
257 510
258 171
259 6
272 418
273 205

$$$$

     RDKit          2D

 21 21  0  0  1  0  0  0  0  0999 V2000
   -1.4004    7.0681    0.0000 C   0  0  0  0  0  0  0  0  0  0  0  0
   -3.6502    5.7687    0.0000 C   0  0  0  0  0  0  0  0  0  0  0  0
    0.8502   -2.0189    0.0000 C   0  0  0  0  0  0  0  0  0  0  0  0
    3.1002    4.4689    0.0000 C   0  0  0  0  0  0  0  0  0  0  0  0
   -5.9000    1.8825    0.0000 C   0  0  0  0  0  0  0  0  0  0  0  0
    2.3500    0.5800    0.0000 C   0  0  0  0  0  0  0  0  0  0  0  0
   -2.1500    0.5800    0.0000 C   0  0  0  0  0  0  0  0  0  0  0  0
    0.8500    0.5800    0.0000 C   0  0  0  0  0  0  0  0  0  0  0  0
   -1.4000   -0.7200    0.0000 C   0  0  0  0  0  0  0  0  0  0  0  0
    3.1000    1.8700    0.0000 C   0  0  0  0  0  0  0  0  0  0  0  0
   -3.6500    0.5800    0.0000 C   0  0  0  0  0  0  0  0  0  0  0  0
    0.8500    3.1700    0.0000 C   0  0  0  0  0  0  0  0  0  0  0  0
    0.1000    4.4700    0.0000 C   0  0  0  0  0  0  0  0  0  0  0  0
   -3.6500    3.1700    0.0000 C   0  0  0  0  0  0  0  0  0  0  0  0
   -2.1502    5.7689    0.0000 C   0  0  0  0  0  0  0  0  0  0  0  0
    0.1000   -0.7200    0.0000 C   0  0  0  0  0  0  0  0  0  0  0  0
    2.3500    3.1700    0.0000 C   0  0  0  0  0  0  0  0  0  0  0  0
   -4.4000    1.8800    0.0000 C   0  0  0  0  0  0  0  0  0  0  0  0
   -1.4000    4.4700    0.0000 C   0  0  0  0  0  0  0  0  0  0  0  0
   -2.1500    3.1700    0.0000 C   0  0  0  0  0  0  0  0  0  0  0  0
   -1.3998    1.8711    0.0000 O   0  0  0  0  0  0  0  0  0  0  0  0
  8  6  1  0
  9  7  1  0
 10  6  1  0
 11  7  1  0
 13 12  1  0
 15  1  1  0
 15  2  1  0
 16  3  1  0
 16  8  1  0
  9 16  2  0
 17  4  1  0
 10 17  2  0
 17 12  1  0
 18  5  1  0
 18 11  1  0
 14 18  2  0
 19 13  1  0
 19 15  1  6
 20 14  1  0
 20 19  1  0
 20 21  1  6
M  END
>  <NAME>  (946) 
(1S,2R,3E,7E,11E)-2-HYDROXYCEMBRA-3,7,11-TRIENE

>  <SYNONYMS>  (946) 
MUKULOL

>  <SPECTRUM TYPE>  (946) 
MS1

>  <INSTRUMENT TYPE>  (946) 
EI-B

>  <INSTRUMENT>  (946) 
HITACHI RMU-6L

>  <ION MODE>  (946) 
P

>  <INCHIKEY>  (946) 
HVZNIISBCURSMR-ALFIBICVSA-N

>  <FORMULA>  (946) 
C20H34O

>  <EXACT MASS>  (946) 
290.260965708

>  <MW>  (946) 
290

>  <ID>  (946) 
JP010631

>  <CONTRIBUTOR>  (946) 
University of Tokyo Team, {Faculty of Engineering, University of Tokyo

>  <COMMENT>  (946) 
SMILES=CC(C1)=C([H])CCC(C)=C([H])C([H])(O)C([H])(CCC(C)=C([H])C1)C(C)C
InChI=InChI=1S/C20H34O/c1-15(2)19-13-12-17(4)10-6-8-16(3)9-7-11-18(5)14-20(19)21/h9-10,14-15,19-21H,6-8,11-13H2,1-5H3/b16-9+,17-10+,18-14+/t19-,20+/m0/s1
computed SMILES=OC1C=C(C)CCC=C(C)CCC=C(C)CCC1C(C)C
computed InChI=InChI=1S/C20H34O/c1-15(2)19-13-12-17(4)10-6-8-16(3)9-7-11-18(5)14-20(19)21/h9-10,14-15,19-21H,6-8,11-13H2,1-5H3/b16-9-,17-10-,18-14-/t19-,20+/m0/s1
accession=JP010631
date=2016.01.19 (Created 2008.10.21, modified 2011.05.06)
author=EGUCHI S, FAC. OF SCIENCE, HIROSHIMA UNIV.
license=CC BY-NC-SA
exact mass=290.26097
ionization energy=70 eV
ion type=[M]+*
computed spectral entropy=3.8940548684321494
computed normalized entropy=0.8177053005094669
SPLASH=splash10-00lr-9400000000-d9ba94f93c3f9d5f5851
submitter=submitter = University of Tokyo Team (Faculty of Engineering, University of Tokyo)
MoNA Rating=3.75

>  <NUM PEAKS>  (946) 
117

>  <MASS SPECTRAL PEAKS>  (946) 
41 68.3
42 9.8
43 36.6
44 0.12
45 1.2
53 26
54 4.9
55 5.61
56 14.6
57 28
58 2.4
59 0.24
65 6.1
66 4.9
67 42.7
68 5.98
69 73.2
70 9.8
71 15.9
72 0.12
77 12.2
78 3.7
79 23.2
80 1.09
81 93.9
82 24.4
83 36.6
84 99.99
85 13.4
91 14.6
92 7.3
93 3.54
94 17.1
95 47.6
96 15.9
97 1.59
98 3
99 2.4
105 10.9
106 0.49
107 25.6
108 12.2
109 31.7
110 0.73
111 6.1
119 8.5
120 4.9
121 2.56
122 19.5
123 48.8
124 8.5
125 0.37
126 1.2
127 1.2
131 3.7
132 0.12
133 7.3
134 6.1
135 17.1
136 2.8
137 19.5
138 6.1
139 3.7
140 0.5
141 1.2
145 2.4
146 3.7
147 0.73
148 8.5
149 17.1
150 6.1
151 0.61
152 1.8
153 2.4
159 4.9
160 0.24
161 9.8
162 4.9
163 8.5
164 0.55
165 2.4
166 2.4
167 1.2
173 0.24
175 2.4
176 2.4
177 6.1
178 0.18
179 2.4
187 3.7
188 1.2
189 0.61
190 2.4
191 4.9
192 2.4
193 0.12
215 1.2
216 1.2
217 3.7
218 0.06
219 0.6
220 1.2
229 9.8
230 0.24
231 1.2
247 4.9
248 1.2
257 0.49
258 0.6
272 12.2
273 3.7
274 0.06
275 3.7
276 1.2
290 11
291 0.35
292 1.2

>  <PREDICTED SPECTRUM>  (946) 
28 17
29 26
39 27
40 27
41 661
42 167
43 749
44 106
45 45
51 47
52 40
53 432
54 251
55 763
56 307
57 526
58 109
59 51
60 11
65 143
66 147
67 705
68 509
69 855
70 209
71 543
72 33
77 319
78 125
79 465
80 286
81 999
82 635
83 605
84 466
85 318
87 2
91 349
92 209
93 542
94 296
95 747
96 448
97 398
98 88
99 66
103 11
105 339
106 216
107 553
108 227
109 620
110 250
111 296
112 82
113 67
117 7
119 368
120 226
121 439
122 365
123 523
124 258
125 218
126 57
127 57
131 148
132 115
133 295
134 238
135 406
136 272
137 459
138 243
139 298
140 154
141 31
145 52
146 54
147 241
148 169
149 429
150 281
151 262
152 236
153 122
159 140
160 50
161 232
162 162
163 300
164 98
165 155
166 60
167 4
171 19
173 74
174 36
175 135
176 118
177 292
178 149
179 174
180 41
187 83
188 57
189 198
190 103
191 233
192 176
193 32
194 9
195 8
201 33
202 44
203 83
204 127
205 148
206 61
207 58
215 80
216 15
217 71
219 67
220 81
221 34
229 360
230 78
231 45
232 62
246 41
247 283
248 29
257 109
272 335
273 140
275 114
290 241
291 72

$$$$

     RDKit          2D

 21 21  0  0  1  0  0  0  0  0999 V2000
    4.6002    4.4687    0.0000 C   0  0  0  0  0  0  0  0  0  0  0  0
    2.3504    5.7681    0.0000 C   0  0  0  0  0  0  0  0  0  0  0  0
   -4.4002   -0.7189    0.0000 C   0  0  0  0  0  0  0  0  0  0  0  0
    0.0998    1.8789    0.0000 C   0  0  0  0  0  0  0  0  0  0  0  0
   -1.1397    5.9472    0.0000 C   0  0  0  0  0  0  0  0  0  0  0  0
   -1.4000   -0.7200    0.0000 C   0  0  0  0  0  0  0  0  0  0  0  0
   -3.6500    3.1700    0.0000 C   0  0  0  0  0  0  0  0  0  0  0  0
   -2.1500    0.5800    0.0000 C   0  0  0  0  0  0  0  0  0  0  0  0
    0.1000   -0.7200    0.0000 C   0  0  0  0  0  0  0  0  0  0  0  0
   -4.4000    1.8800    0.0000 C   0  0  0  0  0  0  0  0  0  0  0  0
    2.3500    0.5800    0.0000 C   0  0  0  0  0  0  0  0  0  0  0  0
    3.1000    1.8700    0.0000 C   0  0  0  0  0  0  0  0  0  0  0  0
    0.8500    3.1700    0.0000 C   0  0  0  0  0  0  0  0  0  0  0  0
   -2.1500    3.1700    0.0000 C   0  0  0  0  0  0  0  0  0  0  0  0
    0.1000    4.4700    0.0000 C   0  0  0  0  0  0  0  0  0  0  0  0
    3.1002    4.4689    0.0000 C   0  0  0  0  0  0  0  0  0  0  0  0
   -3.6500    0.5800    0.0000 C   0  0  0  0  0  0  0  0  0  0  0  0
    0.8500    0.5800    0.0000 C   0  0  0  0  0  0  0  0  0  0  0  0
    2.3500    3.1700    0.0000 C   0  0  0  0  0  0  0  0  0  0  0  0
   -1.4000    4.4700    0.0000 C   0  0  0  0  0  0  0  0  0  0  0  0
   -2.8096    4.9827    0.0000 O   0  0  0  0  0  0  0  0  0  0  0  0
  8  6  1  0
  9  6  1  0
 10  7  1  0
 12 11  1  0
 14  7  1  0
 13 15  2  3
 16  1  1  0
 16  2  1  0
 17  3  1  0
 17  8  1  0
 10 17  2  0
 18  4  1  0
  9 18  2  0
 18 11  1  0
 19 12  1  0
 19 13  1  0
 19 16  1  6
 20  5  1  6
 20 14  1  0
 20 15  1  0
 20 21  1  0
M  END
>  <NAME>  (947) 
(1R,2E,4R,7E,11E)-4-HYDROXYCEMBRA-2,7,11-TRIENE

>  <SYNONYMS>  (947) 
THUMBERGOL

>  <SPECTRUM TYPE>  (947) 
MS1

>  <INSTRUMENT TYPE>  (947) 
EI-B

>  <INSTRUMENT>  (947) 
HITACHI RMU-6L

>  <ION MODE>  (947) 
P

>  <INCHIKEY>  (947) 
YAPXSYXFLHDPCK-NANKYBSHSA-N

>  <FORMULA>  (947) 
C20H34O

>  <EXACT MASS>  (947) 
290.260965708

>  <MW>  (947) 
290

>  <ID>  (947) 
JP010630

>  <CONTRIBUTOR>  (947) 
University of Tokyo Team, {Faculty of Engineering, University of Tokyo

>  <COMMENT>  (947) 
SMILES=CC(C1)=C([H])CCC(C)(O)C([H])=C([H])C([H])(CCC(C)=C([H])C1)C(C)C
InChI=InChI=1S/C20H34O/c1-16(2)19-12-11-18(4)9-6-8-17(3)10-7-14-20(5,21)15-13-19/h9-10,13,15-16,19,21H,6-8,11-12,14H2,1-5H3/b15-13+,17-10+,18-9+/t19-,20-/m1/s1
computed SMILES=OC1(C=CC(CCC(=CCCC(=CCC1)C)C)C(C)C)C
computed InChI=InChI=1S/C20H34O/c1-16(2)19-12-11-18(4)9-6-8-17(3)10-7-14-20(5,21)15-13-19/h9-10,13,15-16,19,21H,6-8,11-12,14H2,1-5H3/b15-13?,17-10-,18-9+/t19-,20-/m1/s1
accession=JP010630
date=2016.01.19 (Created 2008.10.21, modified 2011.05.06)
author=EGUCHI S, FAC. OF SCIENCE, HIROSHIMA UNIV.
license=CC BY-NC-SA
exact mass=290.26097
ionization energy=70 eV
ion type=[M]+*
computed spectral entropy=4.18341746613697
computed normalized entropy=0.8708158076708122
SPLASH=splash10-05nf-8910000000-e35700664c11c3200a43
submitter=submitter = University of Tokyo Team (Faculty of Engineering, University of Tokyo)
MoNA Rating=3.75

>  <NUM PEAKS>  (947) 
122

>  <MASS SPECTRAL PEAKS>  (947) 
41 79.2
42 5.6
43 86.1
45 0.42
47 4.2
53 22.2
54 5.6
55 6.39
56 5.6
57 19.4
58 2.8
59 0.42
65 9.7
66 2.8
67 51.4
68 1.94
69 58.3
70 8.3
71 36.1
72 0.28
77 18.1
78 5.6
79 41.7
80 1.67
81 99.99
82 20.8
83 19.4
84 0.83
85 11.1
91 23.6
92 8.3
93 5.83
94 19.4
95 55.6
96 13.9
97 3.33
98 6.9
99 2.8
105 34.7
106 0.97
107 55.6
108 27.8
109 61.1
110 1.11
111 12.5
119 31.9
120 13.9
121 6.11
122 18.1
123 37.5
124 11.1
125 1.25
126 9.7
127 2.8
131 8.3
132 0.45
133 33.3
134 23.6
135 43
136 3.19
137 27.8
138 8.3
139 19.4
140 0.47
145 11.1
146 6.9
147 41.7
148 2.08
149 33.3
150 13.9
151 12.5
152 0.56
153 2.8
159 13.9
160 6.9
161 2.78
162 12.5
163 19.4
164 13.9
165 0.97
166 2.8
173 13.9
174 2.8
175 0.97
176 5.6
177 12.5
178 2.8
179 0.42
187 14
188 6.9
189 29.2
190 1.25
191 11.1
192 1.4
201 9.7
202 0.68
203 6.9
204 5.6
205 8.3
206 0.28
207 9.6
208 2.1
215 6.9
216 0.14
217 5.5
218 1.4
219 5.6
229 2.78
230 9.7
231 1.4
232 6.9
233 0.13
247 12.5
248 2
257 11.1
258 0.15
272 26.4
273 8.3
275 4.2
276 0.14
289 9.7
290 1.5

>  <PREDICTED SPECTRUM>  (947) 
26 3
27 60
28 53
29 106
38 48
39 110
40 84
41 699
42 197
43 570
44 73
45 58
51 70
52 70
53 449
54 238
55 750
56 292
57 458
58 126
59 117
60 0
65 205
66 164
67 622
68 470
69 957
70 265
71 514
72 57
77 385
78 150
79 577
80 428
81 999
82 576
83 573
84 360
85 333
86 64
87 41
91 517
92 398
93 865
94 462
95 758
96 350
97 371
98 128
99 97
103 7
105 479
106 258
107 728
108 382
109 713
110 276
111 337
112 147
113 112
115 135
117 105
118 27
119 671
120 457
121 732
122 419
123 614
124 305
125 306
126 106
127 155
128 38
131 186
132 104
133 469
134 400
135 675
136 530
137 666
138 365
139 356
140 179
141 22
143 38
145 186
146 74
147 400
148 392
149 438
150 236
151 268
152 192
153 89
154 63
157 17
159 132
160 100
161 319
162 38
163 361
164 94
165 281
166 167
167 116
173 120
174 8
175 220
176 55
177 334
178 153
179 234
180 118
187 158
188 109
189 330
190 163
191 249
192 153
193 40
201 70
202 88
203 92
204 175
205 241
206 123
207 105
215 63
217 49
218 0
219 141
220 88
221 5
229 257
232 47
246 2
247 333
248 49
257 166
258 29
272 197
273 119
275 83
276 23
290 346
291 145
292 17

$$$$

     RDKit          2D

 24 24  0  0  0  0  0  0  0  0999 V2000
    0.0010    5.9400    0.0000 C   0  0  0  0  0  0  0  0  0  0  0  0
    2.5990    5.9400    0.0000 C   0  0  0  0  0  0  0  0  0  0  0  0
   -3.9000   -0.8100    0.0000 C   0  0  0  0  0  0  0  0  0  0  0  0
    1.3000   -0.8100    0.0000 C   0  0  0  0  0  0  0  0  0  0  0  0
   -2.6000    0.0000    0.0000 C   0  0  0  0  0  0  0  0  0  0  0  0
   -1.2990    6.6900    0.0000 C   0  0  0  0  0  0  0  0  0  0  0  0
   -1.3000    0.6900    0.0000 C   0  0  0  0  0  0  0  0  0  0  0  0
   -5.2000    2.9400    0.0000 C   0  0  0  0  0  0  0  0  0  0  0  0
   -2.6000    1.4400    0.0000 C   0  0  0  0  0  0  0  0  0  0  0  0
   -5.2000    1.4400    0.0000 C   0  0  0  0  0  0  0  0  0  0  0  0
    0.0000    1.4400    0.0000 C   0  0  0  0  0  0  0  0  0  0  0  0
   -3.9000    3.6900    0.0000 C   0  0  0  0  0  0  0  0  0  0  0  0
    2.6000    1.4400    0.0000 C   0  0  0  0  0  0  0  0  0  0  0  0
    2.6000    2.9400    0.0000 C   0  0  0  0  0  0  0  0  0  0  0  0
   -1.3000    3.6900    0.0000 C   0  0  0  0  0  0  0  0  0  0  0  0
    1.3000    5.1900    0.0000 C   0  0  0  0  0  0  0  0  0  0  0  0
   -3.9000    0.6900    0.0000 C   0  0  0  0  0  0  0  0  0  0  0  0
    1.3000    0.6900    0.0000 C   0  0  0  0  0  0  0  0  0  0  0  0
   -2.6000    2.9400    0.0000 C   0  0  0  0  0  0  0  0  0  0  0  0
   -1.2990    5.1900    0.0000 C   0  0  0  0  0  0  0  0  0  0  0  0
    1.3000    3.6900    0.0000 C   0  0  0  0  0  0  0  0  0  0  0  0
    0.0000    2.9400    0.0000 C   0  0  0  0  0  0  0  0  0  0  0  0
   -2.5981    4.4400    0.0000 O   0  0  0  0  0  0  0  0  0  0  0  0
   -0.0000    4.4400    0.0000 O   0  0  0  0  0  0  0  0  0  0  0  0
  9  7  1  0
 10  8  1  0
 11  7  1  0
 12  8  1  0
 14 13  1  0
 16  1  2  0
 16  2  1  0
 17  3  1  0
 17  9  1  0
 10 17  2  0
 18  4  1  0
 11 18  2  0
 18 13  1  0
 19  5  1  0
 19 12  1  0
 15 19  2  0
 20  6  1  0
 21 14  1  0
 21 16  1  0
 22 15  1  0
 22 21  1  0
 23 20  2  0
 24 20  1  0
 24 22  1  0
M  END
>  <NAME>  (948) 
(3E,7E,11E)-2-ACETOXYCEMBRA-3,7,11,15-TETRAENE

>  <SYNONYMS>  (948) 


>  <SPECTRUM TYPE>  (948) 
MS1

>  <INSTRUMENT TYPE>  (948) 
EI-B

>  <INSTRUMENT>  (948) 
HITACHI RMU-6L

>  <ION MODE>  (948) 
P

>  <INCHIKEY>  (948) 
UQRKPAHSYAVOHS-BBCCYVLPSA-N

>  <FORMULA>  (948) 
C22H34O2

>  <EXACT MASS>  (948) 
330.255880328

>  <MW>  (948) 
330

>  <ID>  (948) 
JP010629

>  <CONTRIBUTOR>  (948) 
University of Tokyo Team, {Faculty of Engineering, University of Tokyo

>  <COMMENT>  (948) 
SMILES=CC(=O)OC(C([H])=1)C(CCC(C)=C([H])CCC(C)=C([H])CCC(C)1)C(C)=C
InChI=InChI=1S/C22H34O2/c1-16(2)21-14-13-18(4)11-7-9-17(3)10-8-12-19(5)15-22(21)24-20(6)23/h10-11,15,21-22H,1,7-9,12-14H2,2-6H3/b17-10+,18-11+,19-15+
computed SMILES=O=C(OC1C=C(C)CCC=C(C)CCC=C(C)CCC1C(=C)C)C
computed InChI=InChI=1S/C22H34O2/c1-16(2)21-14-13-18(4)11-7-9-17(3)10-8-12-19(5)15-22(21)24-20(6)23/h10-11,15,21-22H,1,7-9,12-14H2,2-6H3/b17-10-,18-11+,19-15+
accession=JP010629
date=2016.01.19 (Created 2008.10.21, modified 2011.05.06)
author=EGUCHI S, FAC. OF SCIENCE, HIROSHIMA UNIV.
license=CC BY-NC-SA
exact mass=330.25588
ionization energy=70 eV
ion type=[M]+*
computed spectral entropy=4.255671709715964
computed normalized entropy=0.8516091525786654
SPLASH=splash10-05nf-9710000000-017c4f42d552588535f4
submitter=submitter = University of Tokyo Team (Faculty of Engineering, University of Tokyo)
MoNA Rating=3.75

>  <NUM PEAKS>  (948) 
148

>  <MASS SPECTRAL PEAKS>  (948) 
41 44.2
42 8.4
43 99.99
44 0.45
45 5.7
50 1
51 3.3
52 0.24
53 34.4
54 4.9
55 57.8
56 0.92
57 16.9
58 1.2
59 1.6
60 0.47
65 10.6
66 6.5
67 36.8
68 5.96
69 44
70 10.2
71 14.9
72 0.14
77 23.5
78 6.1
79 33.2
80 1.91
81 78.2
82 17.9
83 22.2
84 8.01
85 10.2
91 34.8
92 15
93 6.5
94 25.5
95 39.5
96 7.5
97 1.06
98 10.2
99 3.1
103 3.1
104 0.33
105 30.2
106 12.2
107 41.8
108 2.32
109 34.9
110 6.1
111 16.2
112 0.45
113 4.9
115 2.9
116 1.6
117 0.57
118 3.3
119 35.8
120 19.9
121 6.67
122 16.5
123 26.2
124 4.9
125 0.29
126 10.2
127 2
128 2
129 0.22
130 1.4
131 8.9
132 17.5
133 4.6
134 39.3
135 34.7
136 18.5
137 1.79
138 4.1
139 2.6
143 2.6
144 0.2
145 16.2
146 10.2
147 18.3
148 1.26
149 30.7
150 6.1
151 5.5
152 0.22
153 1.4
157 4.5
158 3.3
159 2.49
160 11.8
161 18.1
162 8.6
163 1.02
164 2.6
165 2.9
166 0.8
167 1.04
168 1.2
171 3.3
172 2
173 1.18
174 6.7
175 10.2
176 5.9
177 0.57
178 2.2
179 2
185 6.1
186 0.31
187 11
188 6.1
189 11.6
190 0.32
191 3.3
192 1.2
199 5.7
200 0.37
201 7.3
202 9.6
203 3.3
204 0.18
205 1.6
213 4.1
214 3.1
215 0.59
216 1.4
217 1
219 1.2
220 0.08
227 3.7
228 2.2
229 1.2
241 0.2
242 1.4
255 12.4
256 2.9
257 0.12
270 23.4
271 8.1
272 1.4
273 0.08
288 2.6
289 0.8
330 2.9
331 0.8

>  <PREDICTED SPECTRUM>  (948) 
1 0
26 4
27 47
28 18
29 75
39 126
40 58
41 727
42 300
43 999
44 203
45 103
46 1
49 46
50 28
51 112
52 132
53 506
54 291
55 795
56 272
57 244
58 50
59 129
60 77
61 58
63 19
64 9
65 244
66 204
67 762
68 634
69 653
70 191
71 297
72 24
77 347
78 181
79 671
80 422
81 862
82 418
83 374
84 434
85 208
86 34
87 1
88 19
91 582
92 360
93 783
94 468
95 716
96 299
97 276
98 96
99 91
100 4
103 88
104 88
105 519
106 375
107 687
108 510
109 609
110 264
111 198
112 42
113 21
115 78
116 61
117 238
118 243
119 651
120 409
121 576
122 419
123 436
124 201
125 60
126 72
127 129
128 95
129 97
130 77
131 439
132 383
133 487
134 460
135 665
136 471
137 333
138 82
139 53
140 2
141 96
142 40
143 181
144 184
145 457
146 357
147 471
148 268
149 329
150 191
151 112
152 54
153 72
155 79
157 230
158 171
159 484
160 312
161 331
162 290
163 201
164 81
165 106
167 75
168 70
169 39
171 221
172 140
173 315
174 185
175 273
176 180
177 149
178 94
179 11
180 26
181 70
183 40
185 262
186 155
187 369
188 284
189 382
190 175
191 126
192 10
195 98
199 224
200 132
201 259
202 242
203 160
204 26
205 2
209 23
211 85
212 50
213 243
214 231
215 179
218 6
219 33
227 266
228 227
229 126
230 26
231 62
233 4
239 14
241 92
242 103
245 31
253 41
254 1
255 406
256 207
257 50
269 169
270 544
271 295
272 95
287 66
288 110
297 23
315 39
330 265
331 86
332 5

$$$$

     RDKit          2D

 21 21  0  0  1  0  0  0  0  0999 V2000
   -3.6502    5.7687    0.0000 C   0  0  0  0  0  0  0  0  0  0  0  0
   -1.4004    7.0681    0.0000 C   0  0  0  0  0  0  0  0  0  0  0  0
    0.8502   -2.0189    0.0000 C   0  0  0  0  0  0  0  0  0  0  0  0
    3.1002    4.4689    0.0000 C   0  0  0  0  0  0  0  0  0  0  0  0
   -5.9000    1.8825    0.0000 C   0  0  0  0  0  0  0  0  0  0  0  0
    2.3500    0.5800    0.0000 C   0  0  0  0  0  0  0  0  0  0  0  0
   -2.1500    0.5800    0.0000 C   0  0  0  0  0  0  0  0  0  0  0  0
    0.8500    0.5800    0.0000 C   0  0  0  0  0  0  0  0  0  0  0  0
   -1.4000   -0.7200    0.0000 C   0  0  0  0  0  0  0  0  0  0  0  0
    3.1000    1.8700    0.0000 C   0  0  0  0  0  0  0  0  0  0  0  0
   -3.6500    0.5800    0.0000 C   0  0  0  0  0  0  0  0  0  0  0  0
    0.8500    3.1700    0.0000 C   0  0  0  0  0  0  0  0  0  0  0  0
    0.1000    4.4700    0.0000 C   0  0  0  0  0  0  0  0  0  0  0  0
   -3.6500    3.1700    0.0000 C   0  0  0  0  0  0  0  0  0  0  0  0
   -2.1502    5.7689    0.0000 C   0  0  0  0  0  0  0  0  0  0  0  0
    0.1000   -0.7200    0.0000 C   0  0  0  0  0  0  0  0  0  0  0  0
    2.3500    3.1700    0.0000 C   0  0  0  0  0  0  0  0  0  0  0  0
   -4.4000    1.8800    0.0000 C   0  0  0  0  0  0  0  0  0  0  0  0
   -1.4000    4.4700    0.0000 C   0  0  0  0  0  0  0  0  0  0  0  0
   -2.1500    3.1700    0.0000 C   0  0  0  0  0  0  0  0  0  0  0  0
   -1.3998    1.8711    0.0000 O   0  0  0  0  0  0  0  0  0  0  0  0
  8  6  1  0
  9  7  1  0
 10  6  1  0
 11  7  1  0
 13 12  1  0
 15  1  2  0
 15  2  1  0
 16  3  1  0
 16  8  1  0
  9 16  2  0
 17  4  1  0
 10 17  2  0
 17 12  1  0
 18  5  1  0
 18 11  1  0
 14 18  2  0
 19 13  1  0
 19 15  1  1
 20 14  1  0
 20 19  1  0
 20 21  1  6
M  END
>  <NAME>  (949) 
(3E,7E,11E)-2-HYDROXYCEMBRA-3,7,11,15-TETRAENE

>  <SYNONYMS>  (949) 
MAYOL

>  <SPECTRUM TYPE>  (949) 
MS1

>  <INSTRUMENT TYPE>  (949) 
EI-B

>  <INSTRUMENT>  (949) 
HITACHI RMU-6L

>  <ION MODE>  (949) 
P

>  <INCHIKEY>  (949) 
AZUVBPVDRHGGEP-CHHSKAHISA-N

>  <FORMULA>  (949) 
C20H32O

>  <EXACT MASS>  (949) 
288.24531564399996

>  <MW>  (949) 
288

>  <ID>  (949) 
JP010628

>  <CONTRIBUTOR>  (949) 
University of Tokyo Team, {Faculty of Engineering, University of Tokyo

>  <COMMENT>  (949) 
SMILES=CC(C1)=C([H])CCC(C)=C([H])C([H])(O)C([H])(CCC(C)=C([H])C1)C(C)=C
InChI=InChI=1S/C20H32O/c1-15(2)19-13-12-17(4)10-6-8-16(3)9-7-11-18(5)14-20(19)21/h9-10,14,19-21H,1,6-8,11-13H2,2-5H3/b16-9+,17-10+,18-14+/t19-,20-/m1/s1
computed SMILES=OC1C=C(C)CCC=C(C)CCC=C(C)CCC1C(=C)C
computed InChI=InChI=1S/C20H32O/c1-15(2)19-13-12-17(4)10-6-8-16(3)9-7-11-18(5)14-20(19)21/h9-10,14,19-21H,1,6-8,11-13H2,2-5H3/b16-9-,17-10-,18-14-/t19-,20-/m1/s1
accession=JP010628
date=2016.01.19 (Created 2008.10.21, modified 2011.05.06)
author=EGUCHI S, FAC. OF SCIENCE, HIROSHIMA UNIV.
license=CC BY-NC-SA
exact mass=288.24532
ionization energy=70 eV
ion type=[M]+*
computed spectral entropy=4.0694984192638035
computed normalized entropy=0.819993113314668
SPLASH=splash10-0159-9410000000-1e03be2bafac804e0444
submitter=submitter = University of Tokyo Team (Faculty of Engineering, University of Tokyo)
MoNA Rating=3.75

>  <NUM PEAKS>  (949) 
143

>  <MASS SPECTRAL PEAKS>  (949) 
41 38.8
42 4.7
43 12.9
44 0.12
53 18
54 47
55 35.3
56 0.94
57 17.6
59 2.4
65 8.2
66 0.59
67 35.3
68 85.9
69 99.99
70 0.82
71 12.9
72 1.2
77 14.1
78 0.47
79 24.7
80 12.9
81 82.4
82 1.41
83 21.2
84 94.1
85 11.8
86 0.12
91 14.1
92 9.4
93 51.8
94 2
95 36.5
96 8.2
97 11.8
98 0.06
99 1.2
105 15.3
106 7.1
107 3.18
108 12.9
109 30.6
110 7.1
111 0.47
113 2.4
115 2.4
116 1.2
117 0.24
118 1.2
119 16.5
120 7.1
121 4.24
122 12.9
123 38.8
124 11.8
125 0.35
126 2.4
127 1.2
131 5.9
132 0.24
133 11.8
134 14.1
135 23.5
136 5.65
137 31.8
138 8.2
139 2.4
145 0.76
146 3.5
147 14.1
148 11.8
149 1.65
150 9.4
151 7.1
152 3.6
153 0.12
157 2.4
158 1.2
159 9.4
160 0.35
161 14.1
162 5.9
163 7.1
164 0.47
165 3.5
166 2.4
167 1.2
173 0.35
174 2.4
175 10.6
176 3.5
177 0.82
178 3.5
179 1.2
185 3.5
186 0.12
187 4.7
188 2.4
189 8.2
190 0.24
191 9.4
192 3.6
193 1.2
199 0.36
201 7.1
202 4.7
203 3.5
204 1.53
205 8.2
206 4.7
207 2.4
208 0.12
213 2.4
214 1.2
215 2.4
216 0.06
217 5.9
218 2.4
219 2.4
220 0.12
227 3.5
228 1.2
229 0.6
230 0.12
231 3.6
232 2.4
245 7.1
246 0.18
253 2.4
254 1.2
255 2.9
257 0.12
259 1.2
260 2.4
261 1.2
270 0.59
271 2.4
272 1.2
273 3.5
274 0.12
288 22.4
289 7.1
290 1.2

>  <PREDICTED SPECTRUM>  (949) 
1 2
27 35
28 33
29 92
39 112
40 79
41 817
42 258
43 454
44 129
45 48
49 45
50 10
51 116
52 120
53 584
54 299
55 885
56 297
57 332
58 82
59 49
63 25
64 28
65 266
66 207
67 856
68 761
69 903
70 319
71 376
72 31
77 407
78 188
79 658
80 439
81 999
82 613
83 559
84 525
85 291
86 3
91 503
92 337
93 789
94 483
95 757
96 402
97 386
98 71
99 75
103 86
104 71
105 477
106 305
107 655
108 482
109 721
110 301
111 290
112 57
113 84
115 40
117 151
118 117
119 568
120 346
121 549
122 396
123 568
124 253
125 210
126 59
127 81
128 50
129 83
130 60
131 254
132 183
133 438
134 424
135 663
136 402
137 548
138 254
139 167
141 55
143 71
144 59
145 263
146 185
147 365
148 284
149 467
150 293
151 260
152 129
153 89
154 16
155 19
157 78
158 105
159 344
160 167
161 330
162 218
163 282
164 163
165 167
166 106
167 47
169 42
171 91
172 33
173 207
174 148
175 346
176 229
177 320
178 168
179 70
185 156
186 78
187 214
188 150
189 286
190 108
191 251
192 150
193 96
194 28
195 35
199 90
200 71
201 137
202 139
203 229
204 159
205 189
206 133
207 86
209 0
213 34
214 46
215 61
217 137
218 122
219 193
220 110
221 15
227 135
228 71
229 55
230 46
231 130
232 112
233 72
242 11
245 194
246 96
247 12
255 169
256 72
259 112
260 72
270 259
271 175
272 112
273 215
274 56
288 379
289 202

$$$$

     RDKit          2D

  7  6  0  0  0  0  0  0  0  0999 V2000
   -4.2219    2.8125    0.0000 C   0  0  0  0  0  0  0  0  0  0  0  0
   -1.0748    0.7635    0.0000 C   0  0  0  0  0  0  0  0  0  0  0  0
    0.9743    1.3125    0.0000 C   0  0  0  0  0  0  0  0  0  0  0  0
    0.4252    3.3615    0.0000 C   0  0  0  0  0  0  0  0  0  0  0  0
   -2.9228    2.0625    0.0000 C   0  0  0  0  0  0  0  0  0  0  0  0
   -1.6238    2.8125    0.0000 C   0  0  0  0  0  0  0  0  0  0  0  0
   -0.3248    2.0625    0.0000 Si  0  0  0  0  0  4  0  0  0  0  0  0
  5  1  1  0
  6  5  1  0
  7  2  1  0
  7  3  1  0
  7  4  1  0
  7  6  1  0
M  END
>  <NAME>  (950) 
TRIMETHYLPROPYLSILANE

>  <SYNONYMS>  (950) 


>  <SPECTRUM TYPE>  (950) 
MS1

>  <INSTRUMENT TYPE>  (950) 
EI-B

>  <INSTRUMENT>  (950) 
HITACHI RMU-6M

>  <ION MODE>  (950) 
P

>  <INCHIKEY>  (950) 
WNWMJFBAIXMNOF-UHFFFAOYSA-N

>  <FORMULA>  (950) 
C6H16Si

>  <EXACT MASS>  (950) 
116.102127042

>  <MW>  (950) 
116

>  <ID>  (950) 
JP010614

>  <CONTRIBUTOR>  (950) 
University of Tokyo Team, {Faculty of Engineering, University of Tokyo

>  <COMMENT>  (950) 
SMILES=CCC[Si](C)(C)C
InChI=InChI=1S/C6H16Si/c1-5-6-7(2,3)4/h5-6H2,1-4H3
computed SMILES=CCC[Si](C)(C)C
accession=JP010614
date=2016.01.19 (Created 2008.10.21, modified 2011.05.06)
author=YAMAMOTO M, DEP. CHEMISTRY, FAC. SCIENCE, NARA WOMEN'S UNIV.
license=CC BY-NC-SA
exact mass=116.10213
ionization energy=70 eV
ion type=[M]+*
computed spectral entropy=2.218115551590935
computed normalized entropy=0.6189769301307412
SPLASH=splash10-00di-9000000000-692992efbbcd0d4aa936
submitter=submitter = University of Tokyo Team (Faculty of Engineering, University of Tokyo)
MoNA Rating=3.75

>  <NUM PEAKS>  (950) 
36

>  <MASS SPECTRAL PEAKS>  (950) 
15 1.2
27 2.7
28 2
29 0.46
30 1.2
31 4.2
32 1.2
39 0.2
41 1.4
42 2.8
43 15.5
44 0.44
45 12.2
46 1.3
47 1
53 0.21
54 1
55 3.2
56 1.2
58 0.42
59 46
60 4
61 2.1
67 0.14
69 1
71 1.3
72 2.9
73 99.99
74 9.1
75 4.2
85 1.6
101 1.63
102 2.4
103 1.2
116 5.9
117 1.4

>  <PREDICTED SPECTRUM>  (950) 
41 9
42 15
43 217
44 105
45 288
46 6
47 12
53 55
57 53
58 141
59 472
60 58
61 73
71 43
72 11
73 999
74 297
75 407
76 42
101 253
102 32
103 3
116 173
117 41

$$$$

     RDKit          2D

  7  6  0  0  0  0  0  0  0  0999 V2000
    0.3248    3.9375    0.0000 C   0  0  0  0  0  0  0  0  0  0  0  0
    1.6238    3.1875    0.0000 H   0  0  0  0  0  0  0  0  0  0  0  0
   -4.8714    3.9375    0.0000 C   0  0  0  0  0  0  0  0  0  0  0  0
   -3.5724    1.6875    0.0000 C   0  0  0  0  0  0  0  0  0  0  0  0
   -0.9743    3.1875    0.0000 C   0  0  0  0  0  0  0  0  0  0  0  0
   -2.2733    3.9375    0.0000 C   0  0  0  0  0  0  0  0  0  0  0  0
   -3.5724    3.1875    0.0000 Si  0  0  0  0  0  4  0  0  0  0  0  0
  1  2  1  0
  5  1  1  0
  6  5  1  0
  7  3  1  0
  7  4  1  0
  7  6  1  0
M  ISO  1   2   2
M  END
>  <NAME>  (951) 
DIMETHYLPROPYLSILANE (2-D)

>  <SYNONYMS>  (951) 


>  <SPECTRUM TYPE>  (951) 
MS1

>  <INSTRUMENT TYPE>  (951) 
EI-B

>  <INSTRUMENT>  (951) 
HITACHI RMU-6M

>  <ION MODE>  (951) 
P

>  <INCHIKEY>  (951) 
AOJUJJFLGKIMAZ-MICDWDOJSA-N

>  <FORMULA>  (951) 
C5H14Si

>  <EXACT MASS>  (951) 
103.092753724

>  <MW>  (951) 
103

>  <ID>  (951) 
JP010613

>  <CONTRIBUTOR>  (951) 
University of Tokyo Team, {Faculty of Engineering, University of Tokyo

>  <COMMENT>  (951) 
SMILES=[2H]CCC[SiH](C)C
InChI=InChI=1S/C5H14Si/c1-4-5-6(2)3/h6H,4-5H2,1-3H3/i1D
computed SMILES=[H]CCC[SiH](C)C
accession=JP010613
date=2016.01.19 (Created 2008.10.21, modified 2011.05.06)
author=YAMAMOTO M, DEP. CHEMISTRY, FAC. SCIENCE, NARA WOMEN'S UNIV.
license=CC BY-NC-SA
exact mass=102.08648
ionization energy=70 eV
ion type=[M]+*
computed spectral entropy=2.2613101857608284
computed normalized entropy=0.6585086230977567
SPLASH=splash10-08fr-9000000000-ac63f48394fdcda11d35
submitter=submitter = University of Tokyo Team (Faculty of Engineering, University of Tokyo)
MoNA Rating=3.75

>  <NUM PEAKS>  (951) 
31

>  <MASS SPECTRAL PEAKS>  (951) 
27 3
28 2.3
29 3.5
31 0.47
32 2.9
39 2.2
41 2.4
42 0.2
43 12.1
44 6.5
45 7.4
46 1.36
47 1.2
53 1.3
55 1.6
57 0.12
58 37.5
59 41.6
60 99.99
61 0.91
62 3.6
72 1.9
73 2.9
85 0.13
86 2.2
88 14.7
89 1.6
100 0.48
101 6.9
102 1.1
103 5.4

>  <PREDICTED SPECTRUM>  (951) 
14 14
15 37
25 5
26 54
27 151
28 114
29 86
30 16
31 116
33 30
34 3
37 3
39 187
40 84
41 215
42 204
43 305
44 256
45 215
46 97
47 10
49 38
50 6
51 88
53 130
54 103
57 49
58 283
59 999
60 295
61 151
63 18
69 33
70 67
71 78
86 145
87 58
88 249
89 55
101 106
102 233
103 92

$$$$

     RDKit          2D

  6  5  0  0  0  0  0  0  0  0999 V2000
    1.2990    2.2500    0.0000 C   0  0  0  0  0  0  0  0  0  0  0  0
   -3.8971    2.2500    0.0000 C   0  0  0  0  0  0  0  0  0  0  0  0
   -2.5981    4.5000    0.0000 C   0  0  0  0  0  0  0  0  0  0  0  0
    0.0000    3.0000    0.0000 C   0  0  0  0  0  0  0  0  0  0  0  0
   -1.2990    2.2500    0.0000 C   0  0  0  0  0  0  0  0  0  0  0  0
   -2.5981    3.0000    0.0000 Si  0  0  0  0  0  4  0  0  0  0  0  0
  4  1  1  0
  5  4  1  0
  6  2  1  0
  6  3  1  0
  6  5  1  0
M  END
>  <NAME>  (952) 
DIMETHYLPROPYLSILANE

>  <SYNONYMS>  (952) 


>  <SPECTRUM TYPE>  (952) 
MS1

>  <INSTRUMENT TYPE>  (952) 
EI-B

>  <INSTRUMENT>  (952) 
HITACHI RMU-6M

>  <ION MODE>  (952) 
P

>  <INCHIKEY>  (952) 
AOJUJJFLGKIMAZ-UHFFFAOYSA-N

>  <FORMULA>  (952) 
C5H14Si

>  <EXACT MASS>  (952) 
102.08647697800001

>  <MW>  (952) 
102

>  <ID>  (952) 
JP010612

>  <CONTRIBUTOR>  (952) 
University of Tokyo Team, {Faculty of Engineering, University of Tokyo

>  <COMMENT>  (952) 
SMILES=CCC[SiH](C)C
InChI=InChI=1S/C5H14Si/c1-4-5-6(2)3/h6H,4-5H2,1-3H3
computed SMILES=CCC[SiH](C)C
accession=JP010612
date=2016.01.19 (Created 2008.10.21, modified 2011.05.06)
author=YAMAMOTO M, DEP. CHEMISTRY, FAC. SCIENCE, NARA WOMEN'S UNIV.
license=CC BY-NC-SA
exact mass=102.08648
ionization energy=70 eV
ion type=[M]+*
computed spectral entropy=2.1046722406586724
computed normalized entropy=0.6250333641363274
SPLASH=splash10-0a4i-9000000000-5b6f027520e66121b197
submitter=submitter = University of Tokyo Team (Faculty of Engineering, University of Tokyo)
MoNA Rating=3.75

>  <NUM PEAKS>  (952) 
29

>  <MASS SPECTRAL PEAKS>  (952) 
15 1
27 3.5
28 2
29 0.44
31 6.6
39 2.6
41 2
42 0.34
43 18
44 3.3
45 15.7
46 0.1
53 1.9
55 2.3
57 2
58 3.2
59 99.99
60 8.4
61 3.3
71 0.14
72 1.2
73 2.9
85 1.2
86 0.18
87 9.9
88 1.2
100 3.4
101 0.74
102 4.6

>  <PREDICTED SPECTRUM>  (952) 
26 15
27 87
28 35
31 233
33 12
39 90
40 12
41 162
42 151
43 468
44 215
45 335
46 42
47 23
51 9
53 75
55 69
57 130
58 229
59 999
60 260
61 102
69 38
71 53
72 29
73 150
74 41
85 106
86 62
87 211
88 32
100 108
101 105
102 191
103 57

$$$$

     RDKit          2D

  9  8  0  0  0  0  0  0  0  0999 V2000
    1.9931    3.2978    0.0000 C   0  0  0  0  0  0  0  0  0  0  0  0
   -5.8011    3.2978    0.0000 C   0  0  0  0  0  0  0  0  0  0  0  0
    0.6941    4.0478    0.0000 C   0  0  0  0  0  0  0  0  0  0  0  0
   -0.6050    3.2978    0.0000 C   0  0  0  0  0  0  0  0  0  0  0  0
   -1.9040    4.0478    0.0000 C   0  0  0  0  0  0  0  0  0  0  0  0
   -0.9398    5.1969    0.0000 H   0  0  0  0  0  0  0  0  0  0  0  0
   -2.8682    5.1969    0.0000 H   0  0  0  0  0  0  0  0  0  0  0  0
   -3.2031    3.2978    0.0000 C   0  0  0  0  0  0  0  0  0  0  0  0
   -4.5021    4.0478    0.0000 Si  0  0  0  0  0  4  0  0  0  0  0  0
  5  6  1  0
  5  7  1  0
  3  1  1  0
  4  3  1  0
  5  4  1  0
  8  5  1  0
  9  2  1  0
  9  8  1  0
M  ISO  2   6   2   7   2
M  END
>  <NAME>  (953) 
METHYLPENTYLSILANE (2,2-D2)

>  <SYNONYMS>  (953) 


>  <SPECTRUM TYPE>  (953) 
MS1

>  <INSTRUMENT TYPE>  (953) 
EI-B

>  <INSTRUMENT>  (953) 
HITACHI RMU-6M

>  <ION MODE>  (953) 
P

>  <INCHIKEY>  (953) 
SCTSYHSKWVXLNV-BFWBPSQCSA-N

>  <FORMULA>  (953) 
C6H16Si

>  <EXACT MASS>  (953) 
118.114680534

>  <MW>  (953) 
118

>  <ID>  (953) 
JP010611

>  <CONTRIBUTOR>  (953) 
University of Tokyo Team, {Faculty of Engineering, University of Tokyo

>  <COMMENT>  (953) 
SMILES=CCCC([2H])([2H])C[SiH2]C
InChI=InChI=1S/C6H16Si/c1-3-4-5-6-7-2/h3-7H2,1-2H3/i5D2
computed SMILES=[H]C([H])(CCC)C[SiH2]C
accession=JP010611
date=2016.01.19 (Created 2008.10.21, modified 2011.05.06)
author=YAMAMOTO M, DEP. CHEMISTRY, FAC. SCIENCE, NARA WOMEN'S UNIV.
license=CC BY-NC-SA
exact mass=116.10213
ionization energy=70 eV
ion type=[M]+*
computed spectral entropy=2.796478385737102
computed normalized entropy=0.7435069391997595
SPLASH=splash10-004j-9000000000-80ce5be81271c1f660b5
submitter=submitter = University of Tokyo Team (Faculty of Engineering, University of Tokyo)
MoNA Rating=3.75

>  <NUM PEAKS>  (953) 
43

>  <MASS SPECTRAL PEAKS>  (953) 
15 1
27 8.1
28 2.8
29 0.49
31 1.2
32 1.7
39 4.7
41 0.91
42 8.1
43 7.9
44 8.5
45 3.02
46 41.7
47 32.1
48 3.5
55 0.47
56 1.5
57 1.2
58 5.2
59 1.23
60 12.2
61 6.2
69 1.4
70 0.52
71 4.8
72 5.4
73 7.3
74 0.68
75 99.99
76 8.7
77 3.9
85 0.16
86 10.7
87 15.2
88 3.7
89 0.33
90 5.6
100 1
103 2.5
115 1.07
116 4.6
117 1.2
118 3.7

>  <PREDICTED SPECTRUM>  (953) 
14 12
15 55
26 56
27 282
28 171
29 264
30 163
31 218
32 13
38 27
39 226
40 73
41 524
42 188
43 548
44 112
45 454
46 130
47 356
48 0
52 29
53 51
55 35
56 364
57 497
58 152
59 286
60 226
61 261
62 65
63 15
71 111
72 17
73 383
74 322
75 999
76 238
89 100
90 72
103 263
117 129
118 117

$$$$

     RDKit          2D

 10  9  0  0  0  0  0  0  0  0999 V2000
    5.4976    2.4240    0.0000 C   0  0  0  0  0  0  0  0  0  0  0  0
    6.2476    3.7231    0.0000 H   0  0  0  0  0  0  0  0  0  0  0  0
    4.7476    1.1250    0.0000 H   0  0  0  0  0  0  0  0  0  0  0  0
    6.7966    1.6740    0.0000 H   0  0  0  0  0  0  0  0  0  0  0  0
   -2.2966    2.4240    0.0000 C   0  0  0  0  0  0  0  0  0  0  0  0
    4.1986    3.1740    0.0000 C   0  0  0  0  0  0  0  0  0  0  0  0
    2.8995    2.4240    0.0000 C   0  0  0  0  0  0  0  0  0  0  0  0
    1.6005    3.1740    0.0000 C   0  0  0  0  0  0  0  0  0  0  0  0
    0.3014    2.4240    0.0000 C   0  0  0  0  0  0  0  0  0  0  0  0
   -0.9976    3.1740    0.0000 Si  0  0  0  0  0  4  0  0  0  0  0  0
  1  2  1  0
  1  3  1  0
  1  4  1  0
  6  1  1  0
  7  6  1  0
  8  7  1  0
  9  8  1  0
 10  5  1  0
 10  9  1  0
M  ISO  3   2   2   3   2   4   2
M  END
>  <NAME>  (954) 
METHYLPENTYLSILANE (1,1-1-D3)

>  <SYNONYMS>  (954) 


>  <SPECTRUM TYPE>  (954) 
MS1

>  <INSTRUMENT TYPE>  (954) 
EI-B

>  <INSTRUMENT>  (954) 
HITACHI RMU-6M

>  <ION MODE>  (954) 
P

>  <INCHIKEY>  (954) 
SCTSYHSKWVXLNV-FIBGUPNXSA-N

>  <FORMULA>  (954) 
C6H16Si

>  <EXACT MASS>  (954) 
119.12095728

>  <MW>  (954) 
119

>  <ID>  (954) 
JP010610

>  <CONTRIBUTOR>  (954) 
University of Tokyo Team, {Faculty of Engineering, University of Tokyo

>  <COMMENT>  (954) 
SMILES=[2H]C([2H])([2H])CCCC[Si]([H])([H])C
InChI=InChI=1S/C6H16Si/c1-3-4-5-6-7-2/h3-7H2,1-2H3/i1D3
computed SMILES=[H]C([H])([H])CCCC[SiH2]C
accession=JP010610
date=2016.01.19 (Created 2008.10.21, modified 2011.05.06)
author=YAMAMOTO M, DEP. CHEMISTRY, FAC. SCIENCE, NARA WOMEN'S UNIV.
license=CC BY-NC-SA
exact mass=116.10213
ionization energy=70 eV
ion type=[M]+*
computed spectral entropy=2.7615115636466547
computed normalized entropy=0.7254416621036646
SPLASH=splash10-004j-9000000000-690e457746cc5bdfd7f7
submitter=submitter = University of Tokyo Team (Faculty of Engineering, University of Tokyo)
MoNA Rating=3.75

>  <NUM PEAKS>  (954) 
45

>  <MASS SPECTRAL PEAKS>  (954) 
27 7.3
28 1.2
29 5.1
31 0.18
32 1.2
39 4.7
41 9.3
42 0.69
43 7.5
44 3.8
45 8.5
46 1.2
47 9.1
48 77
49 5.2
50 0.3
55 5.3
57 1.8
58 1.2
59 0.64
60 1.6
61 8.4
62 20.7
63 0.2
69 2.6
70 11
71 2.1
72 0.36
73 3.1
74 2.7
75 8.5
76 99.99
77 9
78 4
88 3.7
89 2.79
90 7.9
91 6.2
92 1
101 0.21
102 1.2
117 12.8
118 6.4
119 0.45
120 1

>  <PREDICTED SPECTRUM>  (954) 
14 45
15 60
25 3
26 213
27 612
28 428
29 464
30 395
31 308
32 88
33 29
39 4
40 121
41 642
42 541
43 600
44 473
45 999
46 366
47 61
48 8
49 10
52 25
53 320
54 399
55 484
56 683
57 155
58 157
60 28
70 431
71 547
72 849
73 344
74 238
86 65
89 289
90 164
91 201
100 82
101 221
102 244
104 219
118 105
119 394

$$$$

     RDKit          2D

  7  6  0  0  0  0  0  0  0  0999 V2000
    1.9486    3.3750    0.0000 C   0  0  0  0  0  0  0  0  0  0  0  0
   -5.8457    3.3750    0.0000 C   0  0  0  0  0  0  0  0  0  0  0  0
    0.6495    4.1250    0.0000 C   0  0  0  0  0  0  0  0  0  0  0  0
   -0.6495    3.3750    0.0000 C   0  0  0  0  0  0  0  0  0  0  0  0
   -1.9486    4.1250    0.0000 C   0  0  0  0  0  0  0  0  0  0  0  0
   -3.2476    3.3750    0.0000 C   0  0  0  0  0  0  0  0  0  0  0  0
   -4.5466    4.1250    0.0000 Si  0  0  0  0  0  4  0  0  0  0  0  0
  3  1  1  0
  4  3  1  0
  5  4  1  0
  6  5  1  0
  7  2  1  0
  7  6  1  0
M  END
>  <NAME>  (955) 
METHYLPENTYLSILANE

>  <SYNONYMS>  (955) 


>  <SPECTRUM TYPE>  (955) 
MS1

>  <INSTRUMENT TYPE>  (955) 
EI-B

>  <INSTRUMENT>  (955) 
HITACHI RMU-6M

>  <ION MODE>  (955) 
P

>  <INCHIKEY>  (955) 
SCTSYHSKWVXLNV-UHFFFAOYSA-N

>  <FORMULA>  (955) 
C6H16Si

>  <EXACT MASS>  (955) 
116.102127042

>  <MW>  (955) 
116

>  <ID>  (955) 
JP010609

>  <CONTRIBUTOR>  (955) 
University of Tokyo Team, {Faculty of Engineering, University of Tokyo

>  <COMMENT>  (955) 
SMILES=CCCCC[SiH2]C
InChI=InChI=1S/C6H16Si/c1-3-4-5-6-7-2/h3-7H2,1-2H3
computed SMILES=CCCCC[SiH2]C
accession=JP010609
date=2016.01.19 (Created 2008.10.21, modified 2011.05.06)
author=YAMAMOTO M, DEP. CHEMISTRY, FAC. SCIENCE, NARA WOMEN'S UNIV.
license=CC BY-NC-SA
exact mass=116.10213
ionization energy=70 eV
ion type=[M]+*
computed spectral entropy=2.549788731384105
computed normalized entropy=0.7171699330939605
SPLASH=splash10-00dj-9000000000-5036d272e76fbcc78cff
submitter=submitter = University of Tokyo Team (Faculty of Engineering, University of Tokyo)
MoNA Rating=3.75

>  <NUM PEAKS>  (955) 
35

>  <MASS SPECTRAL PEAKS>  (955) 
27 7
28 2.9
29 4.9
31 0.3
39 4.6
41 9.1
42 6.7
43 1.59
44 8.4
45 78
46 4.8
47 0.24
53 1.3
55 5.3
57 2.2
58 0.76
59 26.9
60 2.5
61 1.2
69 0.24
70 9.4
71 3.5
72 9.8
73 99.99
74 8.5
75 3.6
85 3
86 2.54
87 7.1
88 5.5
99 1.3
101 0.25
114 11.6
115 5.5
116 4.1

>  <PREDICTED SPECTRUM>  (955) 
14 6
25 7
26 57
27 190
28 8
29 146
31 27
32 19
33 1
38 5
39 204
40 89
41 386
42 224
43 321
44 238
45 999
46 159
47 50
53 93
54 52
55 360
56 351
57 352
58 173
59 399
60 220
61 92
69 64
70 91
71 267
72 239
73 995
74 280
83 32
85 77
86 194
87 392
88 227
101 132
114 158
115 197
116 268
117 45

$$$$

     RDKit          2D

 10  9  0  0  0  0  0  0  0  0999 V2000
    2.2733    4.3125    0.0000 C   0  0  0  0  0  0  0  0  0  0  0  0
   -6.8200    5.0625    0.0000 C   0  0  0  0  0  0  0  0  0  0  0  0
    0.9743    5.0625    0.0000 C   0  0  0  0  0  0  0  0  0  0  0  0
   -4.2219    5.0625    0.0000 C   0  0  0  0  0  0  0  0  0  0  0  0
   -2.9228    4.3125    0.0000 C   0  0  0  0  0  0  0  0  0  0  0  0
   -5.5209    4.3125    0.0000 C   0  0  0  0  0  0  0  0  0  0  0  0
   -1.6238    5.0625    0.0000 C   0  0  0  0  0  0  0  0  0  0  0  0
   -5.5209    2.8125    0.0000 O   0  0  0  0  0  0  0  0  0  0  0  0
   -1.6238    6.5625    0.0000 O   0  0  0  0  0  0  0  0  0  0  0  0
   -0.3248    4.3125    0.0000 O   0  0  0  0  0  0  0  0  0  0  0  0
  3  1  1  0
  5  4  1  0
  6  2  1  0
  6  4  1  0
  7  5  1  0
  8  6  2  0
  9  7  2  0
 10  3  1  0
 10  7  1  0
M  END
>  <NAME>  (956) 
ETHYL LEVULINATE

>  <SYNONYMS>  (956) 
BETA-ACETYLPROPIONIC ACID ETHYL ESTER

>  <SPECTRUM TYPE>  (956) 
MS1

>  <INSTRUMENT TYPE>  (956) 
EI-B

>  <INSTRUMENT>  (956) 
HITACHI RMU-6M

>  <ION MODE>  (956) 
P

>  <INCHIKEY>  (956) 
GMEONFUTDYJSNV-UHFFFAOYSA-N

>  <FORMULA>  (956) 
C7H12O3

>  <EXACT MASS>  (956) 
144.07864424399997

>  <MW>  (956) 
144

>  <ID>  (956) 
JP010608

>  <CONTRIBUTOR>  (956) 
University of Tokyo Team, {Faculty of Engineering, University of Tokyo

>  <COMMENT>  (956) 
SMILES=CCOC(=O)CCC(C)=O
InChI=InChI=1S/C7H12O3/c1-3-10-7(9)5-4-6(2)8/h3-5H2,1-2H3
computed SMILES=O=C(OCC)CCC(=O)C
accession=JP010608
date=2016.01.19 (Created 2008.10.21, modified 2011.05.06)
author=YAMAMOTO M, DEP. CHEMISTRY, FAC. SCIENCE, NARA WOMEN'S UNIV.
license=CC BY-NC-SA
exact mass=144.07864
ionization energy=70 eV
ion type=[M]+*
computed spectral entropy=2.6453239294700994
computed normalized entropy=0.7381916978537824
SPLASH=splash10-002g-9100000000-58314b79e586dde6ec61
submitter=submitter = University of Tokyo Team (Faculty of Engineering, University of Tokyo)
MoNA Rating=3.75

>  <NUM PEAKS>  (956) 
36

>  <MASS SPECTRAL PEAKS>  (956) 
15 6.1
26 2.7
27 14.6
28 0.92
29 21.1
30 1.7
31 1.7
39 0.17
41 1.4
42 5.4
43 99.99
44 0.24
45 9.2
55 9.5
56 7.5
57 0.75
58 1.7
61 1.4
71 8.8
72 0.14
73 12.2
74 19.4
75 5.8
81 0.1
89 1
98 8.2
99 55.3
100 0.37
101 15.6
102 13.6
103 1
116 0.1
129 14.9
130 1.4
144 8.5
145 1

>  <PREDICTED SPECTRUM>  (956) 
14 38
15 73
18 0
19 0
26 98
27 305
28 227
29 415
30 68
31 169
38 11
39 162
40 97
41 192
42 319
43 999
44 176
45 351
46 8
51 50
52 31
53 93
54 102
55 412
56 436
57 300
58 199
59 117
60 182
61 180
69 71
70 179
71 355
72 103
73 308
74 220
75 2
83 109
84 0
86 13
87 385
88 329
89 35
98 168
99 601
100 135
101 532
102 320
103 11
115 25
116 173
117 132
126 38
129 142
130 53
144 195
145 25

$$$$

     RDKit          2D

  9  8  0  0  0  0  0  0  0  0999 V2000
    2.2733    2.8125    0.0000 C   0  0  0  0  0  0  0  0  0  0  0  0
   -5.5209    2.8125    0.0000 C   0  0  0  0  0  0  0  0  0  0  0  0
   -0.3248    2.8125    0.0000 C   0  0  0  0  0  0  0  0  0  0  0  0
   -1.6238    3.5625    0.0000 C   0  0  0  0  0  0  0  0  0  0  0  0
    0.9743    3.5625    0.0000 C   0  0  0  0  0  0  0  0  0  0  0  0
   -2.9228    2.8125    0.0000 C   0  0  0  0  0  0  0  0  0  0  0  0
    0.9743    5.0625    0.0000 O   0  0  0  0  0  0  0  0  0  0  0  0
   -2.9228    1.3125    0.0000 O   0  0  0  0  0  0  0  0  0  0  0  0
   -4.2219    3.5625    0.0000 O   0  0  0  0  0  0  0  0  0  0  0  0
  4  3  1  0
  5  1  1  0
  5  3  1  0
  6  4  1  0
  7  5  2  0
  8  6  2  0
  9  2  1  0
  9  6  1  0
M  END
>  <NAME>  (957) 
METHYL LEVULINATE

>  <SYNONYMS>  (957) 
BETA-ACETYLPROPIONIC ACID METHYL ESTER

>  <SPECTRUM TYPE>  (957) 
MS1

>  <INSTRUMENT TYPE>  (957) 
EI-B

>  <INSTRUMENT>  (957) 
HITACHI RMU-6M

>  <ION MODE>  (957) 
P

>  <INCHIKEY>  (957) 
UAGJVSRUFNSIHR-UHFFFAOYSA-N

>  <FORMULA>  (957) 
C6H10O3

>  <EXACT MASS>  (957) 
130.06299417999998

>  <MW>  (957) 
130

>  <ID>  (957) 
JP010607

>  <CONTRIBUTOR>  (957) 
University of Tokyo Team, {Faculty of Engineering, University of Tokyo

>  <COMMENT>  (957) 
SMILES=COC(=O)CCC(C)=O
InChI=InChI=1S/C6H10O3/c1-5(7)3-4-6(8)9-2/h3-4H2,1-2H3
computed SMILES=O=C(OC)CCC(=O)C
accession=JP010607
date=2016.01.19 (Created 2008.10.21, modified 2011.05.06)
author=YAMAMOTO M, DEP. CHEMISTRY, FAC. SCIENCE, NARA WOMEN'S UNIV.
license=CC BY-NC-SA
exact mass=130.06299
ionization energy=70 eV
ion type=[M]+*
computed spectral entropy=2.3115026171789714
computed normalized entropy=0.7013401182022991
SPLASH=splash10-0006-9100000000-820d538b4336c074ba52
submitter=submitter = University of Tokyo Team (Faculty of Engineering, University of Tokyo)
MoNA Rating=3.75

>  <NUM PEAKS>  (957) 
27

>  <MASS SPECTRAL PEAKS>  (957) 
15 13
26 2.1
27 8.8
28 0.71
29 2.7
31 1.5
39 2.1
41 0.24
42 5.9
43 99.99
44 2.7
45 0.24
55 17.1
56 4.4
57 12.4
59 1.18
71 6.5
75 1.2
87 6.2
88 1.18
89 1.2
98 6.2
99 28.9
100 0.21
115 19.8
116 1.2
130 8

>  <PREDICTED SPECTRUM>  (957) 
14 54
15 158
16 14
18 26
25 17
26 101
27 282
28 162
29 273
30 67
31 235
32 51
33 53
37 36
38 77
39 299
40 138
41 444
42 305
43 999
44 96
45 168
53 106
54 85
55 402
56 236
57 231
58 166
59 294
60 194
69 121
70 217
71 306
72 176
73 492
74 208
75 23
83 137
85 43
87 317
88 186
97 68
98 255
99 347
100 95
102 85
115 168
130 116
131 6

$$$$

     RDKit          2D

  8  7  0  0  0  0  0  0  0  0999 V2000
    0.0000    0.0000    0.0000 C   0  0  0  0  0  0  0  0  0  0  0  0
   -1.2990    2.2500    0.0000 C   0  0  0  0  0  0  0  0  0  0  0  0
   -1.2990    3.7500    0.0000 C   0  0  0  0  0  0  0  0  0  0  0  0
    0.0000    1.5000    0.0000 C   0  0  0  0  0  0  0  0  0  0  0  0
   -2.5981    4.5000    0.0000 C   0  0  0  0  0  0  0  0  0  0  0  0
    1.2990    2.2500    0.0000 O   0  0  0  0  0  0  0  0  0  0  0  0
   -3.8971    3.7500    0.0000 O   0  0  0  0  0  0  0  0  0  0  0  0
   -2.5981    6.0000    0.0000 O   0  0  0  0  0  0  0  0  0  0  0  0
  3  2  1  0
  4  1  1  0
  4  2  1  0
  5  3  1  0
  6  4  2  0
  7  5  2  0
  8  5  1  0
M  END
>  <NAME>  (958) 
LEVULINIC ACID

>  <SYNONYMS>  (958) 
BETA-ACETYLPROPIONIC ACID

>  <SPECTRUM TYPE>  (958) 
MS1

>  <INSTRUMENT TYPE>  (958) 
EI-B

>  <INSTRUMENT>  (958) 
HITACHI RMU-6M

>  <ION MODE>  (958) 
P

>  <INCHIKEY>  (958) 
JOOXCMJARBKPKM-UHFFFAOYSA-N

>  <FORMULA>  (958) 
C5H8O3

>  <EXACT MASS>  (958) 
116.04734411599999

>  <MW>  (958) 
116

>  <ID>  (958) 
JP010606

>  <CONTRIBUTOR>  (958) 
University of Tokyo Team, {Faculty of Engineering, University of Tokyo

>  <COMMENT>  (958) 
SMILES=CC(=O)CCC(O)=O
InChI=InChI=1S/C5H8O3/c1-4(6)2-3-5(7)8/h2-3H2,1H3,(H,7,8)
computed SMILES=O=C(O)CCC(=O)C
accession=JP010606
date=2016.01.19 (Created 2008.10.21, modified 2011.05.06)
author=YAMAMOTO M, DEP. CHEMISTRY, FAC. SCIENCE, NARA WOMEN'S UNIV.
license=CC BY-NC-SA
exact mass=116.04734
ionization energy=70 eV
ion type=[M]+*
computed spectral entropy=1.9309232725886807
computed normalized entropy=0.6158274069775265
SPLASH=splash10-0006-9000000000-0b0447e3daa65b1cd932
submitter=submitter = University of Tokyo Team (Faculty of Engineering, University of Tokyo)
MoNA Rating=3.75

>  <NUM PEAKS>  (958) 
23

>  <MASS SPECTRAL PEAKS>  (958) 
14 1.1
15 4.9
26 2.3
27 0.91
28 5.7
29 8.3
31 1.1
39 0.15
41 1.1
42 4.9
43 99.99
44 0.27
45 7.6
55 8
56 29.9
57 0.19
61 1.9
71 2.3
73 6.8
74 0.19
99 2.3
101 3.4
116 6.4

>  <PREDICTED SPECTRUM>  (958) 
14 50
15 94
16 21
17 27
18 55
19 12
25 25
26 58
27 147
28 81
29 66
31 73
32 3
36 21
37 36
38 61
39 193
40 81
41 252
42 270
43 999
44 193
45 347
46 61
50 64
51 43
52 10
53 93
54 82
55 300
56 279
57 190
58 210
59 149
60 88
61 105
62 40
69 65
70 193
71 290
72 92
73 156
74 117
81 10
83 190
88 20
89 10
97 112
98 249
99 171
100 37
101 280
116 166
117 48

$$$$

     RDKit          2D

 11 10  0  0  0  0  0  0  0  0999 V2000
    2.5981    4.5000    0.0000 C   0  0  0  0  0  0  0  0  0  0  0  0
   -7.7942    4.5000    0.0000 C   0  0  0  0  0  0  0  0  0  0  0  0
    1.2990    5.2500    0.0000 C   0  0  0  0  0  0  0  0  0  0  0  0
   -6.4952    5.2500    0.0000 C   0  0  0  0  0  0  0  0  0  0  0  0
   -2.5981    4.5000    0.0000 C   0  0  0  0  0  0  0  0  0  0  0  0
   -1.2990    5.2500    0.0000 C   0  0  0  0  0  0  0  0  0  0  0  0
   -3.8971    5.2500    0.0000 C   0  0  0  0  0  0  0  0  0  0  0  0
   -1.2990    6.7500    0.0000 O   0  0  0  0  0  0  0  0  0  0  0  0
   -3.8971    6.7500    0.0000 O   0  0  0  0  0  0  0  0  0  0  0  0
    0.0000    4.5000    0.0000 O   0  0  0  0  0  0  0  0  0  0  0  0
   -5.1962    4.5000    0.0000 O   0  0  0  0  0  0  0  0  0  0  0  0
  3  1  1  0
  4  2  1  0
  6  5  1  0
  7  5  1  0
  8  6  2  0
  9  7  2  0
 10  3  1  0
 10  6  1  0
 11  4  1  0
 11  7  1  0
M  END
>  <NAME>  (959) 
DIETHYL MALONATE

>  <SYNONYMS>  (959) 


>  <SPECTRUM TYPE>  (959) 
MS1

>  <INSTRUMENT TYPE>  (959) 
EI-B

>  <INSTRUMENT>  (959) 
HITACHI RMU-6M

>  <ION MODE>  (959) 
P

>  <INCHIKEY>  (959) 
IYXGSMUGOJNHAZ-UHFFFAOYSA-N

>  <FORMULA>  (959) 
C7H12O4

>  <EXACT MASS>  (959) 
160.073558864

>  <MW>  (959) 
160

>  <ID>  (959) 
JP010605

>  <CONTRIBUTOR>  (959) 
University of Tokyo Team, {Faculty of Engineering, University of Tokyo

>  <COMMENT>  (959) 
SMILES=CCOC(=O)CC(=O)OCC
InChI=InChI=1S/C7H12O4/c1-3-10-6(8)5-7(9)11-4-2/h3-5H2,1-2H3
computed SMILES=O=C(OCC)CC(=O)OCC
accession=JP010605
date=2016.01.19 (Created 2008.10.21, modified 2011.05.06)
author=YAMAMOTO M, DEP. CHEMISTRY, FAC. SCIENCE, NARA WOMEN'S UNIV.
license=CC BY-NC-SA
exact mass=160.07356
ionization energy=70 eV
ion type=[M]+*
computed spectral entropy=2.370092456074032
computed normalized entropy=0.6778456543877699
SPLASH=splash10-00ou-9300000000-ca6a39f537696bdd1204
submitter=submitter = University of Tokyo Team (Faculty of Engineering, University of Tokyo)
MoNA Rating=3.75

>  <NUM PEAKS>  (959) 
33

>  <MASS SPECTRAL PEAKS>  (959) 
14 1.2
15 3.9
26 2.3
27 2.13
28 4.3
29 99.99
30 2.7
31 0.85
41 2.7
42 25.6
43 55.8
44 0.19
45 14.7
47 1.2
55 1.2
59 0.16
60 17.1
61 7.4
69 3.1
70 0.39
73 2.7
86 1.9
87 4.3
88 2.21
89 1.6
105 3.5
115 61.6
116 0.39
132 1.9
135 36.8
136 1.9
160 0.62
161 1.2

>  <PREDICTED SPECTRUM>  (959) 
14 75
15 156
16 37
17 27
18 45
19 33
25 54
26 225
27 665
28 336
29 953
30 200
31 397
32 8
33 26
37 62
39 138
40 147
41 344
42 580
43 623
44 332
45 491
46 169
47 137
55 15
57 32
58 182
59 263
60 482
61 326
62 45
67 32
68 203
69 468
70 351
71 133
72 91
73 330
85 6
86 430
87 657
88 651
89 195
105 7
114 254
115 999
116 456
117 151
132 130
133 257
159 4
160 121
161 69

$$$$

     RDKit          2D

  9  8  0  0  0  0  0  0  0  0999 V2000
    1.9486    3.3750    0.0000 C   0  0  0  0  0  0  0  0  0  0  0  0
   -5.8457    3.3750    0.0000 C   0  0  0  0  0  0  0  0  0  0  0  0
   -1.9486    4.1250    0.0000 C   0  0  0  0  0  0  0  0  0  0  0  0
   -0.6495    3.3750    0.0000 C   0  0  0  0  0  0  0  0  0  0  0  0
   -3.2476    3.3750    0.0000 C   0  0  0  0  0  0  0  0  0  0  0  0
   -0.6495    1.8750    0.0000 O   0  0  0  0  0  0  0  0  0  0  0  0
   -3.2476    1.8750    0.0000 O   0  0  0  0  0  0  0  0  0  0  0  0
    0.6495    4.1250    0.0000 O   0  0  0  0  0  0  0  0  0  0  0  0
   -4.5466    4.1250    0.0000 O   0  0  0  0  0  0  0  0  0  0  0  0
  4  3  1  0
  5  3  1  0
  6  4  2  0
  7  5  2  0
  8  1  1  0
  8  4  1  0
  9  2  1  0
  9  5  1  0
M  END
>  <NAME>  (960) 
DIMETHYL MALONATE

>  <SYNONYMS>  (960) 


>  <SPECTRUM TYPE>  (960) 
MS1

>  <INSTRUMENT TYPE>  (960) 
EI-B

>  <INSTRUMENT>  (960) 
HITACHI RMU-6M

>  <ION MODE>  (960) 
P

>  <INCHIKEY>  (960) 
BEPAFCGSDWSTEL-UHFFFAOYSA-N

>  <FORMULA>  (960) 
C5H8O4

>  <EXACT MASS>  (960) 
132.042258736

>  <MW>  (960) 
132

>  <ID>  (960) 
JP010604

>  <CONTRIBUTOR>  (960) 
University of Tokyo Team, {Faculty of Engineering, University of Tokyo

>  <COMMENT>  (960) 
SMILES=COC(=O)CC(=O)OC
InChI=InChI=1S/C5H8O4/c1-8-4(6)3-5(7)9-2/h3H2,1-2H3
computed SMILES=O=C(OC)CC(=O)OC
accession=JP010604
date=2016.01.19 (Created 2008.10.21, modified 2011.05.06)
author=YAMAMOTO M, DEP. CHEMISTRY, FAC. SCIENCE, NARA WOMEN'S UNIV.
license=CC BY-NC-SA
exact mass=132.04226
ionization energy=70 eV
ion type=[M]+*
computed spectral entropy=2.3371169036276003
computed normalized entropy=0.7173258607760108
SPLASH=splash10-0pb9-9300000000-1b07396aa97f9d4ecb73
submitter=submitter = University of Tokyo Team (Faculty of Engineering, University of Tokyo)
MoNA Rating=3.75

>  <NUM PEAKS>  (960) 
26

>  <MASS SPECTRAL PEAKS>  (960) 
14 3.5
15 38.9
27 5.1
28 0.25
29 18.7
30 2
31 4.5
41 0.35
42 32.3
43 20.2
44 1
45 0.96
57 32.8
58 6.6
59 99.99
60 0.3
69 9.1
70 1
74 53.5
75 0.2
100 5.1
101 98.5
102 5.1
104 0.3
132 7.6
133 1.5

>  <PREDICTED SPECTRUM>  (960) 
14 36
15 163
16 20
25 15
26 59
27 167
28 140
29 252
30 43
31 226
32 74
33 100
38 20
40 102
41 373
42 395
43 529
44 316
45 475
46 14
54 97
55 244
56 137
57 209
58 167
59 999
60 228
61 27
69 543
70 226
71 135
72 205
73 316
74 387
75 181
85 47
86 18
87 64
100 492
101 647
102 250
103 45
104 84
105 76
132 229
133 54

$$$$

     RDKit          2D

 16 15  0  0  0  0  0  0  0  0999 V2000
   -7.4695    2.0625    0.0000 C   0  0  0  0  0  0  0  0  0  0  0  0
    5.5209    9.5625    0.0000 C   0  0  0  0  0  0  0  0  0  0  0  0
   -6.1704    2.8125    0.0000 C   0  0  0  0  0  0  0  0  0  0  0  0
    4.2219    8.8125    0.0000 C   0  0  0  0  0  0  0  0  0  0  0  0
   -6.1704    4.3125    0.0000 C   0  0  0  0  0  0  0  0  0  0  0  0
    2.9228    9.5625    0.0000 C   0  0  0  0  0  0  0  0  0  0  0  0
   -3.5724    8.8125    0.0000 C   0  0  0  0  0  0  0  0  0  0  0  0
   -2.2733    9.5625    0.0000 C   0  0  0  0  0  0  0  0  0  0  0  0
   -4.8714    5.0625    0.0000 C   0  0  0  0  0  0  0  0  0  0  0  0
    1.6238    8.8125    0.0000 C   0  0  0  0  0  0  0  0  0  0  0  0
   -3.5724    7.3125    0.0000 C   0  0  0  0  0  0  0  0  0  0  0  0
   -0.9743    8.8125    0.0000 C   0  0  0  0  0  0  0  0  0  0  0  0
   -2.2733    6.5625    0.0000 O   0  0  0  0  0  0  0  0  0  0  0  0
   -0.9743    7.3125    0.0000 O   0  0  0  0  0  0  0  0  0  0  0  0
   -4.8714    6.5625    0.0000 O   0  0  0  0  0  0  0  0  0  0  0  0
    0.3248    9.5625    0.0000 O   0  0  0  0  0  0  0  0  0  0  0  0
  3  1  1  0
  4  2  1  0
  5  3  1  0
  6  4  1  0
  7  8  2  0
  9  5  1  0
 10  6  1  0
 11  7  1  0
 12  8  1  0
 13 11  2  0
 14 12  2  0
 15  9  1  0
 15 11  1  0
 16 10  1  0
 16 12  1  0
M  END
>  <NAME>  (961) 
DIBUTYL MALEATE

>  <SYNONYMS>  (961) 


>  <SPECTRUM TYPE>  (961) 
MS1

>  <INSTRUMENT TYPE>  (961) 
EI-B

>  <INSTRUMENT>  (961) 
HITACHI RMU-6M

>  <ION MODE>  (961) 
P

>  <INCHIKEY>  (961) 
JBSLOWBPDRZSMB-FPLPWBNLSA-N

>  <FORMULA>  (961) 
C12H20O4

>  <EXACT MASS>  (961) 
228.13615912

>  <MW>  (961) 
228

>  <ID>  (961) 
JP010603

>  <CONTRIBUTOR>  (961) 
University of Tokyo Team, {Faculty of Engineering, University of Tokyo

>  <COMMENT>  (961) 
SMILES=CCCCOC(=O)C=CC(=O)OCCCC
InChI=InChI=1S/C12H20O4/c1-3-5-9-15-11(13)7-8-12(14)16-10-6-4-2/h7-8H,3-6,9-10H2,1-2H3/b8-7-
computed SMILES=O=C(OCCCC)C=CC(=O)OCCCC
accession=JP010603
date=2016.01.19 (Created 2008.10.21, modified 2011.05.06)
author=YAMAMOTO M, DEP. CHEMISTRY, FAC. SCIENCE, NARA WOMEN'S UNIV.
license=CC BY-NC-SA
exact mass=228.13616
ionization energy=70 eV
ion type=[M]+*
computed spectral entropy=2.491721646408277
computed normalized entropy=0.6801364047035064
SPLASH=splash10-052b-9200000000-d3dc4858aa2ffc1fadd1
submitter=submitter = University of Tokyo Team (Faculty of Engineering, University of Tokyo)
MoNA Rating=3.75

>  <NUM PEAKS>  (961) 
39

>  <MASS SPECTRAL PEAKS>  (961) 
26 5
27 15.1
28 5.4
29 3.84
30 1.1
31 1.4
39 5
40 0.11
41 32.6
42 1.8
43 2.9
45 0.18
53 1.4
54 7.9
55 6.8
56 2.01
57 80.3
58 2.9
71 2.2
72 0.18
75 4.7
82 6.5
99 99.99
100 1.94
101 1.8
117 39.1
118 2.2
126 0.14
127 1.8
143 1.1
153 1.1
154 0.5
155 12.5
156 3.2
157 1.4
171 0.18
172 1.1
173 13.6
174 1.4

>  <PREDICTED SPECTRUM>  (961) 
26 84
27 146
29 185
31 6
39 101
40 9
41 341
42 108
43 218
45 2
53 148
54 286
55 306
56 681
57 469
58 113
67 4
70 70
71 137
72 73
73 139
77 11
81 240
82 362
83 111
84 40
85 6
97 60
98 111
99 588
100 437
101 88
109 137
117 934
118 227
119 66
126 116
127 268
128 115
154 170
155 999
156 452
157 146
173 614
174 190
175 45

$$$$

     RDKit          2D

 14 13  0  0  0  0  0  0  0  0999 V2000
    0.3248    6.1875    0.0000 C   0  0  0  0  0  0  0  0  0  0  0  0
  -10.0675    0.1875    0.0000 C   0  0  0  0  0  0  0  0  0  0  0  0
   -0.9743    6.9375    0.0000 C   0  0  0  0  0  0  0  0  0  0  0  0
  -10.0675    1.6875    0.0000 C   0  0  0  0  0  0  0  0  0  0  0  0
   -6.1704    6.9375    0.0000 C   0  0  0  0  0  0  0  0  0  0  0  0
   -7.4695    6.1875    0.0000 C   0  0  0  0  0  0  0  0  0  0  0  0
   -2.2733    6.1875    0.0000 C   0  0  0  0  0  0  0  0  0  0  0  0
   -8.7685    2.4375    0.0000 C   0  0  0  0  0  0  0  0  0  0  0  0
   -4.8714    6.1875    0.0000 C   0  0  0  0  0  0  0  0  0  0  0  0
   -7.4695    4.6875    0.0000 C   0  0  0  0  0  0  0  0  0  0  0  0
   -4.8714    4.6875    0.0000 O   0  0  0  0  0  0  0  0  0  0  0  0
   -6.1704    3.9375    0.0000 O   0  0  0  0  0  0  0  0  0  0  0  0
   -3.5724    6.9375    0.0000 O   0  0  0  0  0  0  0  0  0  0  0  0
   -8.7685    3.9375    0.0000 O   0  0  0  0  0  0  0  0  0  0  0  0
  3  1  2  0
  4  2  2  0
  5  6  2  0
  7  3  1  0
  8  4  1  0
  9  5  1  0
 10  6  1  0
 11  9  2  0
 12 10  2  0
 13  7  1  0
 13  9  1  0
 14  8  1  0
 14 10  1  0
M  END
>  <NAME>  (962) 
DIALLYL MALEATE

>  <SYNONYMS>  (962) 


>  <SPECTRUM TYPE>  (962) 
MS1

>  <INSTRUMENT TYPE>  (962) 
EI-B

>  <INSTRUMENT>  (962) 
HITACHI RMU-6M

>  <ION MODE>  (962) 
P

>  <INCHIKEY>  (962) 
ZPOLOEWJWXZUSP-WAYWQWQTSA-N

>  <FORMULA>  (962) 
C10H12O4

>  <EXACT MASS>  (962) 
196.073558864

>  <MW>  (962) 
196

>  <ID>  (962) 
JP010602

>  <CONTRIBUTOR>  (962) 
University of Tokyo Team, {Faculty of Engineering, University of Tokyo

>  <COMMENT>  (962) 
SMILES=C=CCOC(=O)C=CC(=O)OCC=C
InChI=InChI=1S/C10H12O4/c1-3-7-13-9(11)5-6-10(12)14-8-4-2/h3-6H,1-2,7-8H2/b6-5-
computed SMILES=O=C(OCC=C)C=CC(=O)OCC=C
accession=JP010602
date=2016.01.19 (Created 2008.10.21, modified 2011.05.06)
author=YAMAMOTO M, DEP. CHEMISTRY, FAC. SCIENCE, NARA WOMEN'S UNIV.
license=CC BY-NC-SA
exact mass=196.07356
ionization energy=70 eV
ion type=[M]+*
computed spectral entropy=2.1496114284559344
computed normalized entropy=0.6320160776454042
SPLASH=splash10-0007-9000000000-531654f4fa36b964bf32
submitter=submitter = University of Tokyo Team (Faculty of Engineering, University of Tokyo)
MoNA Rating=3.75

>  <NUM PEAKS>  (962) 
30

>  <MASS SPECTRAL PEAKS>  (962) 
26 6.5
27 8
28 2.2
29 0.28
31 1.9
39 16.7
40 2.2
41 99.99
42 6.2
43 3.1
45 1.5
53 0.15
54 6.8
55 4.3
56 1.2
57 0.77
58 1.2
67 2.2
69 1.5
71 0.19
80 2.5
81 1.2
82 3.7
83 0.15
98 1.5
99 52
100 3.4
122 0.12
139 5.9
140 7.1

>  <PREDICTED SPECTRUM>  (962) 
25 3
26 84
27 154
29 160
37 49
38 62
39 491
40 217
41 927
42 273
43 171
44 32
50 16
53 177
54 232
55 399
56 114
57 289
58 53
65 49
67 156
68 96
69 155
70 110
79 0
81 267
82 361
83 379
84 25
93 165
95 176
96 127
97 104
98 105
99 498
100 240
111 486
112 124
127 24
137 72
138 206
139 999
140 288
141 43
158 254
196 112
197 5

$$$$

     RDKit          2D

 12 11  0  0  0  0  0  0  0  0999 V2000
   -5.1962    1.5000    0.0000 C   0  0  0  0  0  0  0  0  0  0  0  0
    3.8971    6.7500    0.0000 C   0  0  0  0  0  0  0  0  0  0  0  0
   -3.8971    2.2500    0.0000 C   0  0  0  0  0  0  0  0  0  0  0  0
    2.5981    6.0000    0.0000 C   0  0  0  0  0  0  0  0  0  0  0  0
   -2.5981    6.0000    0.0000 C   0  0  0  0  0  0  0  0  0  0  0  0
   -1.2990    6.7500    0.0000 C   0  0  0  0  0  0  0  0  0  0  0  0
   -2.5981    4.5000    0.0000 C   0  0  0  0  0  0  0  0  0  0  0  0
    0.0000    6.0000    0.0000 C   0  0  0  0  0  0  0  0  0  0  0  0
   -1.2990    3.7500    0.0000 O   0  0  0  0  0  0  0  0  0  0  0  0
    0.0000    4.5000    0.0000 O   0  0  0  0  0  0  0  0  0  0  0  0
   -3.8971    3.7500    0.0000 O   0  0  0  0  0  0  0  0  0  0  0  0
    1.2990    6.7500    0.0000 O   0  0  0  0  0  0  0  0  0  0  0  0
  3  1  1  0
  4  2  1  0
  5  6  2  0
  7  5  1  0
  8  6  1  0
  9  7  2  0
 10  8  2  0
 11  3  1  0
 11  7  1  0
 12  4  1  0
 12  8  1  0
M  END
>  <NAME>  (963) 
DIETHYL MALEATE

>  <SYNONYMS>  (963) 


>  <SPECTRUM TYPE>  (963) 
MS1

>  <INSTRUMENT TYPE>  (963) 
EI-B

>  <INSTRUMENT>  (963) 
HITACHI RMU-6M

>  <ION MODE>  (963) 
P

>  <INCHIKEY>  (963) 
IEPRKVQEAMIZSS-WAYWQWQTSA-N

>  <FORMULA>  (963) 
C8H12O4

>  <EXACT MASS>  (963) 
172.073558864

>  <MW>  (963) 
172

>  <ID>  (963) 
JP010601

>  <CONTRIBUTOR>  (963) 
University of Tokyo Team, {Faculty of Engineering, University of Tokyo

>  <COMMENT>  (963) 
SMILES=CCOC(=O)C=CC(=O)OCC
InChI=InChI=1S/C8H12O4/c1-3-11-7(9)5-6-8(10)12-4-2/h5-6H,3-4H2,1-2H3/b6-5-
computed SMILES=O=C(OCC)C=CC(=O)OCC
accession=JP010601
date=2016.01.19 (Created 2008.10.21, modified 2011.05.06)
author=YAMAMOTO M, DEP. CHEMISTRY, FAC. SCIENCE, NARA WOMEN'S UNIV.
license=CC BY-NC-SA
exact mass=172.07356
ionization energy=70 eV
ion type=[M]+*
computed spectral entropy=2.3135085849449806
computed normalized entropy=0.694287693891675
SPLASH=splash10-004j-9300000000-83beca9d9c20ad1ddc25
submitter=submitter = University of Tokyo Team (Faculty of Engineering, University of Tokyo)
MoNA Rating=3.75

>  <NUM PEAKS>  (963) 
28

>  <MASS SPECTRAL PEAKS>  (963) 
15 2.5
26 10.3
27 23.7
28 0.39
29 32.6
30 1.1
31 1.9
43 0.39
44 1.1
45 5.6
47 1.4
53 0.19
54 9.7
55 7
56 1.4
71 0.5
72 2.8
81 1.1
82 7
99 99.99
100 12
101 1.4
125 1.4
126 2.2
127 37.3
128 10.6
143 5
145 1.7

>  <PREDICTED SPECTRUM>  (963) 
16 3
25 13
26 161
27 311
28 133
29 443
30 104
31 39
38 10
41 48
42 117
43 204
44 53
45 188
46 14
47 29
52 11
53 189
54 254
55 251
56 103
67 20
70 101
71 218
72 108
73 73
76 12
80 64
81 277
82 311
91 5
98 126
99 519
100 282
101 79
117 257
119 39
126 189
127 999
128 404
129 93
143 178
144 8
145 62
172 144
173 73

$$$$

     RDKit          2D

 10  9  0  0  0  0  0  0  0  0999 V2000
   -7.4695    3.9375    0.0000 C   0  0  0  0  0  0  0  0  0  0  0  0
    1.6238    3.1875    0.0000 C   0  0  0  0  0  0  0  0  0  0  0  0
   -6.1704    3.1875    0.0000 C   0  0  0  0  0  0  0  0  0  0  0  0
   -4.8714    3.9375    0.0000 C   0  0  0  0  0  0  0  0  0  0  0  0
   -3.5724    3.1875    0.0000 C   0  0  0  0  0  0  0  0  0  0  0  0
    0.3248    3.9375    0.0000 C   0  0  0  0  0  0  0  0  0  0  0  0
   -0.9743    3.1875    0.0000 C   0  0  0  0  0  0  0  0  0  0  0  0
    0.3248    5.4375    0.0000 O   0  0  0  0  0  0  0  0  0  0  0  0
   -0.9743    1.6875    0.0000 O   0  0  0  0  0  0  0  0  0  0  0  0
   -2.2733    3.9375    0.0000 O   0  0  0  0  0  0  0  0  0  0  0  0
  3  1  1  0
  4  3  1  0
  5  4  1  0
  6  2  1  0
  7  6  1  0
  8  6  1  0
  9  7  2  0
 10  5  1  0
 10  7  1  0
M  END
>  <NAME>  (964) 
BUTYL LACTATE

>  <SYNONYMS>  (964) 


>  <SPECTRUM TYPE>  (964) 
MS1

>  <INSTRUMENT TYPE>  (964) 
EI-B

>  <INSTRUMENT>  (964) 
HITACHI RMU-6M

>  <ION MODE>  (964) 
P

>  <INCHIKEY>  (964) 
MRABAEUHTLLEML-UHFFFAOYSA-N

>  <FORMULA>  (964) 
C7H14O3

>  <EXACT MASS>  (964) 
146.094294308

>  <MW>  (964) 
146

>  <ID>  (964) 
JP010599

>  <CONTRIBUTOR>  (964) 
University of Tokyo Team, {Faculty of Engineering, University of Tokyo

>  <COMMENT>  (964) 
SMILES=CCCCOC(=O)C(C)O
InChI=InChI=1S/C7H14O3/c1-3-4-5-10-7(9)6(2)8/h6,8H,3-5H2,1-2H3
computed SMILES=O=C(OCCCC)C(O)C
accession=JP010599
date=2016.01.19 (Created 2008.10.21, modified 2011.05.06)
author=YAMAMOTO M, DEP. CHEMISTRY, FAC. SCIENCE, NARA WOMEN'S UNIV.
license=CC BY-NC-SA
exact mass=146.09429
ionization energy=70 eV
ion type=[M]+*
computed spectral entropy=1.8526570357253256
computed normalized entropy=0.6184321116010222
SPLASH=splash10-0002-9000000000-746a83cab5dda7b0742d
submitter=submitter = University of Tokyo Team (Faculty of Engineering, University of Tokyo)
MoNA Rating=3.75

>  <NUM PEAKS>  (964) 
20

>  <MASS SPECTRAL PEAKS>  (964) 
15 1.3
27 8.9
28 3.1
29 1.94
31 1.8
39 3.1
41 15
42 0.13
43 4.5
44 2.1
45 99.99
46 0.26
55 2.9
56 12.1
57 25.5
58 0.1
75 3.4
85 8.4
91 1.6
102 1

>  <PREDICTED SPECTRUM>  (964) 
14 10
15 22
19 67
26 81
27 341
28 141
29 427
31 171
33 32
36 26
38 14
39 234
40 75
41 637
42 181
43 386
44 246
45 999
46 309
47 92
53 37
54 13
55 351
56 517
57 905
58 61
59 40
71 3
73 348
74 86
75 123
101 123
102 100

$$$$

     RDKit          2D

  9  8  0  0  0  0  0  0  0  0999 V2000
    1.9486    3.3750    0.0000 C   0  0  0  0  0  0  0  0  0  0  0  0
   -5.8457    3.3750    0.0000 C   0  0  0  0  0  0  0  0  0  0  0  0
    0.6495    4.1250    0.0000 C   0  0  0  0  0  0  0  0  0  0  0  0
   -0.6495    3.3750    0.0000 C   0  0  0  0  0  0  0  0  0  0  0  0
   -4.5466    4.1250    0.0000 C   0  0  0  0  0  0  0  0  0  0  0  0
   -3.2476    3.3750    0.0000 C   0  0  0  0  0  0  0  0  0  0  0  0
   -4.5466    5.6250    0.0000 O   0  0  0  0  0  0  0  0  0  0  0  0
   -3.2476    1.8750    0.0000 O   0  0  0  0  0  0  0  0  0  0  0  0
   -1.9486    4.1250    0.0000 O   0  0  0  0  0  0  0  0  0  0  0  0
  3  1  1  0
  4  3  1  0
  5  2  1  0
  6  5  1  0
  7  5  1  0
  8  6  2  0
  9  4  1  0
  9  6  1  0
M  END
>  <NAME>  (965) 
PROPYL LACTATE

>  <SYNONYMS>  (965) 


>  <SPECTRUM TYPE>  (965) 
MS1

>  <INSTRUMENT TYPE>  (965) 
EI-B

>  <INSTRUMENT>  (965) 
HITACHI RMU-6M

>  <ION MODE>  (965) 
P

>  <INCHIKEY>  (965) 
ILVGAIQLOCKNQA-UHFFFAOYSA-N

>  <FORMULA>  (965) 
C6H12O3

>  <EXACT MASS>  (965) 
132.07864424399997

>  <MW>  (965) 
132

>  <ID>  (965) 
JP010598

>  <CONTRIBUTOR>  (965) 
University of Tokyo Team, {Faculty of Engineering, University of Tokyo

>  <COMMENT>  (965) 
SMILES=CCCOC(=O)C(C)O
InChI=InChI=1S/C6H12O3/c1-3-4-9-6(8)5(2)7/h5,7H,3-4H2,1-2H3
computed SMILES=O=C(OCCC)C(O)C
accession=JP010598
date=2016.01.19 (Created 2008.10.21, modified 2011.05.06)
author=YAMAMOTO M, DEP. CHEMISTRY, FAC. SCIENCE, NARA WOMEN'S UNIV.
license=CC BY-NC-SA
exact mass=132.07864
ionization energy=70 eV
ion type=[M]+*
computed spectral entropy=1.509590620618333
computed normalized entropy=0.5222825114085426
SPLASH=splash10-0002-9000000000-bd5a5d7c84430e160127
submitter=submitter = University of Tokyo Team (Faculty of Engineering, University of Tokyo)
MoNA Rating=3.75

>  <NUM PEAKS>  (965) 
18

>  <MASS SPECTRAL PEAKS>  (965) 
15 1.9
26 1.2
27 11.1
28 0.23
29 3.5
31 6.2
39 2.1
41 0.93
42 2.5
43 27.3
44 1.4
45 99.99
46 2.3
56 1.6
59 2.8
75 0.46
89 1.2
132 0.5

>  <PREDICTED SPECTRUM>  (965) 
14 59
15 173
16 24
19 64
25 4
26 99
27 357
28 92
29 239
31 174
32 2
33 78
38 19
39 228
40 92
41 455
42 219
43 958
44 233
45 999
46 197
47 5
57 37
69 19
73 459
74 116
75 152
87 107
88 130
89 57
115 11

$$$$

     RDKit          2D

  8  7  0  0  0  0  0  0  0  0999 V2000
    1.6238    3.1875    0.0000 C   0  0  0  0  0  0  0  0  0  0  0  0
   -4.8714    3.9375    0.0000 C   0  0  0  0  0  0  0  0  0  0  0  0
    0.3248    3.9375    0.0000 C   0  0  0  0  0  0  0  0  0  0  0  0
   -3.5724    3.1875    0.0000 C   0  0  0  0  0  0  0  0  0  0  0  0
   -2.2733    3.9375    0.0000 C   0  0  0  0  0  0  0  0  0  0  0  0
   -3.5724    1.6875    0.0000 O   0  0  0  0  0  0  0  0  0  0  0  0
   -2.2733    5.4375    0.0000 O   0  0  0  0  0  0  0  0  0  0  0  0
   -0.9743    3.1875    0.0000 O   0  0  0  0  0  0  0  0  0  0  0  0
  3  1  1  0
  4  2  1  0
  5  4  1  0
  6  4  1  0
  7  5  2  0
  8  3  1  0
  8  5  1  0
M  END
>  <NAME>  (966) 
ETHYL LACTATE

>  <SYNONYMS>  (966) 


>  <SPECTRUM TYPE>  (966) 
MS1

>  <INSTRUMENT TYPE>  (966) 
EI-B

>  <INSTRUMENT>  (966) 
HITACHI RMU-6M

>  <ION MODE>  (966) 
P

>  <INCHIKEY>  (966) 
LZCLXQDLBQLTDK-UHFFFAOYSA-N

>  <FORMULA>  (966) 
C5H10O3

>  <EXACT MASS>  (966) 
118.06299417999999

>  <MW>  (966) 
118

>  <ID>  (966) 
JP010597

>  <CONTRIBUTOR>  (966) 
University of Tokyo Team, {Faculty of Engineering, University of Tokyo

>  <COMMENT>  (966) 
SMILES=CCOC(=O)C(C)O
InChI=InChI=1S/C5H10O3/c1-3-8-5(7)4(2)6/h4,6H,3H2,1-2H3
computed SMILES=O=C(OCC)C(O)C
accession=JP010597
date=2016.01.19 (Created 2008.10.21, modified 2011.05.06)
author=YAMAMOTO M, DEP. CHEMISTRY, FAC. SCIENCE, NARA WOMEN'S UNIV.
license=CC BY-NC-SA
exact mass=118.06299
ionization energy=70 eV
ion type=[M]+*
computed spectral entropy=1.1171075594717697
computed normalized entropy=0.4355281152908772
SPLASH=splash10-0002-9000000000-c67249e8726ec52e2a65
submitter=submitter = University of Tokyo Team (Faculty of Engineering, University of Tokyo)
MoNA Rating=3.75

>  <NUM PEAKS>  (966) 
13

>  <MASS SPECTRAL PEAKS>  (966) 
15 1.7
26 1.2
27 8.7
28 0.23
29 14.2
31 1.7
43 6.4
44 0.14
45 99.99
46 2.6
47 1.2
75 0.43
103 0.9

>  <PREDICTED SPECTRUM>  (966) 
14 49
15 134
16 1
19 62
25 13
26 148
27 524
28 343
29 736
30 37
31 80
41 41
42 54
43 675
44 207
45 999
46 323
47 312
55 182
56 71
59 77
71 182
72 13
73 363
74 355
75 128
103 89
118 11

$$$$

     RDKit          2D

  7  6  0  0  0  0  0  0  0  0999 V2000
    1.6238    1.6875    0.0000 C   0  0  0  0  0  0  0  0  0  0  0  0
   -3.5724    1.6875    0.0000 C   0  0  0  0  0  0  0  0  0  0  0  0
    0.3248    2.4375    0.0000 C   0  0  0  0  0  0  0  0  0  0  0  0
   -0.9743    1.6875    0.0000 C   0  0  0  0  0  0  0  0  0  0  0  0
    0.3248    3.9375    0.0000 O   0  0  0  0  0  0  0  0  0  0  0  0
   -0.9743    0.1875    0.0000 O   0  0  0  0  0  0  0  0  0  0  0  0
   -2.2733    2.4375    0.0000 O   0  0  0  0  0  0  0  0  0  0  0  0
  3  1  1  0
  4  3  1  0
  5  3  1  0
  6  4  2  0
  7  2  1  0
  7  4  1  0
M  END
>  <NAME>  (967) 
METHYL LACTATE

>  <SYNONYMS>  (967) 


>  <SPECTRUM TYPE>  (967) 
MS1

>  <INSTRUMENT TYPE>  (967) 
EI-B

>  <INSTRUMENT>  (967) 
HITACHI RMU-6M

>  <ION MODE>  (967) 
P

>  <INCHIKEY>  (967) 
LPEKGGXMPWTOCB-UHFFFAOYSA-N

>  <FORMULA>  (967) 
C4H8O3

>  <EXACT MASS>  (967) 
104.04734411599999

>  <MW>  (967) 
104

>  <ID>  (967) 
JP010596

>  <CONTRIBUTOR>  (967) 
University of Tokyo Team, {Faculty of Engineering, University of Tokyo

>  <COMMENT>  (967) 
SMILES=COC(=O)C(C)O
InChI=InChI=1S/C4H8O3/c1-3(5)4(6)7-2/h3,5H,1-2H3
computed SMILES=O=C(OC)C(O)C
accession=JP010596
date=2016.01.19 (Created 2008.10.21, modified 2011.05.06)
author=YAMAMOTO M, DEP. CHEMISTRY, FAC. SCIENCE, NARA WOMEN'S UNIV.
license=CC BY-NC-SA
exact mass=104.04734
ionization energy=70 eV
ion type=[M]+*
computed spectral entropy=1.4118391406284414
computed normalized entropy=0.4983172705967701
SPLASH=splash10-0002-9000000000-4535fd4d0690feab67ad
submitter=submitter = University of Tokyo Team (Faculty of Engineering, University of Tokyo)
MoNA Rating=3.75

>  <NUM PEAKS>  (967) 
17

>  <MASS SPECTRAL PEAKS>  (967) 
15 7.2
26 1.2
27 7
28 0.1
29 7.8
30 1.4
31 2
33 1.72
42 1.2
43 9
44 2
45 99.99
46 2.2
59 2.5
61 3.3
89 0.12
104 0.4

>  <PREDICTED SPECTRUM>  (967) 
14 9
15 85
19 0
27 124
28 63
29 167
31 45
32 37
33 154
39 113
40 10
41 291
42 66
43 278
45 999
46 139
47 110
55 86
56 18
57 74
59 256
60 78
61 51
73 16
85 2
104 184

$$$$

     RDKit          2D

 14 14  0  0  0  0  0  0  0  0999 V2000
    0.0000    3.0000    0.0000 C   0  0  0  0  0  0  0  0  0  0  0  0
    2.5989    1.5002    0.0000 C   0  0  0  0  0  0  0  0  0  0  0  0
    2.5989   -1.5002    0.0000 C   0  0  0  0  0  0  0  0  0  0  0  0
   -0.0000   -3.0000    0.0000 C   0  0  0  0  0  0  0  0  0  0  0  0
   -5.1970   -1.5006    0.0000 C   0  0  0  0  0  0  0  0  0  0  0  0
   -1.3000    0.7500    0.0000 C   0  0  0  0  0  0  0  0  0  0  0  0
    0.0000    1.5000    0.0000 C   0  0  0  0  0  0  0  0  0  0  0  0
    1.3000    0.7500    0.0000 C   0  0  0  0  0  0  0  0  0  0  0  0
    1.3000   -0.7500    0.0000 C   0  0  0  0  0  0  0  0  0  0  0  0
   -0.0000   -1.5000    0.0000 C   0  0  0  0  0  0  0  0  0  0  0  0
   -3.8981   -0.7504    0.0000 C   0  0  0  0  0  0  0  0  0  0  0  0
   -1.3000   -0.7500    0.0000 C   0  0  0  0  0  0  0  0  0  0  0  0
   -2.5989   -1.5002    0.0000 N   0  0  0  0  0  0  0  0  0  0  0  0
   -3.8983    0.7496    0.0000 O   0  0  0  0  0  0  0  0  0  0  0  0
  7  1  1  0
  7  6  2  0
  8  2  1  0
  8  7  1  0
  9  3  1  0
  9  8  2  0
 10  4  1  0
 10  9  1  0
 11  5  1  0
 12  6  1  0
 12 10  2  0
 13 11  2  3
 13 12  1  0
 14 11  1  0
M  END
>  <NAME>  (968) 
2,3,4,5-TETRAMETHYLACETANILIDE

>  <SYNONYMS>  (968) 


>  <SPECTRUM TYPE>  (968) 
MS1

>  <INSTRUMENT TYPE>  (968) 
EI-B

>  <INSTRUMENT>  (968) 
HITACHI M-80

>  <ION MODE>  (968) 
P

>  <INCHIKEY>  (968) 
XVFQGGMVGUEXOX-UHFFFAOYSA-N

>  <FORMULA>  (968) 
C12H17NO

>  <EXACT MASS>  (968) 
191.131014164

>  <MW>  (968) 
191

>  <ID>  (968) 
JP010595

>  <CONTRIBUTOR>  (968) 
University of Tokyo Team, {Faculty of Engineering, University of Tokyo

>  <COMMENT>  (968) 
SMILES=CC(=O)Nc(c1)c(C)c(C)c(C)c(C)1
InChI=InChI=1S/C12H17NO/c1-7-6-12(13-11(5)14)10(4)9(3)8(7)2/h6H,1-5H3,(H,13,14)
computed SMILES=OC(=NC=1C=C(C(=C(C1C)C)C)C)C
accession=JP010595
date=2016.01.19 (Created 2008.10.21, modified 2011.05.06)
author=NARA WOMEN'S UNIVERSITY
license=CC BY-NC-SA
exact mass=191.13101
ionization energy=70 eV
ion type=[M]+*
computed spectral entropy=2.0262635530455473
computed normalized entropy=0.6462341862254397
SPLASH=splash10-0005-0900000000-80c4d9b941a455996923
submitter=submitter = University of Tokyo Team (Faculty of Engineering, University of Tokyo)
MoNA Rating=3.75

>  <NUM PEAKS>  (968) 
23

>  <MASS SPECTRAL PEAKS>  (968) 
43 4.77
79 1.02
91 3.14
105 2.8
117 1.57
119 1.23
120 1.16
121 1.01
132 3
133 2.66
134 45.21
135 6.41
146 1.02
147 1.56
148 29.94
149 94
150 12.91
160 1.09
175 1.02
176 3.34
191 99.99
192 17.32
193 1.7

>  <PREDICTED SPECTRUM>  (968) 
14 13
15 10
16 11
17 22
18 35
26 30
27 157
28 91
29 109
33 3
34 8
36 1
38 43
39 275
40 130
41 329
42 86
43 234
44 29
45 115
46 3
50 129
51 261
52 163
53 258
54 98
55 111
56 38
57 102
58 128
59 123
60 36
62 83
63 188
64 115
65 259
66 101
67 160
68 46
69 70
70 66
71 140
72 80
73 25
74 48
75 83
76 58
77 364
78 168
79 264
80 96
81 115
82 34
83 35
84 16
85 79
86 87
87 116
88 41
89 105
91 406
92 121
93 183
94 117
95 59
96 18
99 11
100 13
101 24
102 115
103 163
104 131
105 263
106 122
107 124
108 53
109 32
110 38
111 54
112 1
113 12
115 307
116 184
117 216
118 184
119 231
120 92
121 70
127 75
128 167
129 216
130 268
131 353
132 377
133 327
134 167
135 33
136 3
141 7
142 110
143 168
144 191
145 207
146 329
147 249
148 217
149 85
150 34
158 332
159 173
160 91
161 76
162 132
163 11
172 38
173 134
174 178
175 93
176 999
177 371
178 156
188 19
189 16
190 90
191 881
192 325
193 113

$$$$

     RDKit          2D

 14 14  0  0  0  0  0  0  0  0999 V2000
    0.0000    3.0000    0.0000 C   0  0  0  0  0  0  0  0  0  0  0  0
   -2.5989   -1.5002    0.0000 C   0  0  0  0  0  0  0  0  0  0  0  0
    2.5989    1.5002    0.0000 C   0  0  0  0  0  0  0  0  0  0  0  0
   -0.0000   -3.0000    0.0000 C   0  0  0  0  0  0  0  0  0  0  0  0
    5.1970   -1.5006    0.0000 C   0  0  0  0  0  0  0  0  0  0  0  0
   -1.3000    0.7500    0.0000 C   0  0  0  0  0  0  0  0  0  0  0  0
    0.0000    1.5000    0.0000 C   0  0  0  0  0  0  0  0  0  0  0  0
   -1.3000   -0.7500    0.0000 C   0  0  0  0  0  0  0  0  0  0  0  0
    1.3000    0.7500    0.0000 C   0  0  0  0  0  0  0  0  0  0  0  0
   -0.0000   -1.5000    0.0000 C   0  0  0  0  0  0  0  0  0  0  0  0
    3.8981   -0.7504    0.0000 C   0  0  0  0  0  0  0  0  0  0  0  0
    1.3000   -0.7500    0.0000 C   0  0  0  0  0  0  0  0  0  0  0  0
    2.5989   -1.5002    0.0000 N   0  0  0  0  0  0  0  0  0  0  0  0
    3.8983    0.7496    0.0000 O   0  0  0  0  0  0  0  0  0  0  0  0
  7  1  1  0
  7  6  2  0
  8  2  1  0
  8  6  1  0
  9  3  1  0
  9  7  1  0
 10  4  1  0
 10  8  2  0
 11  5  1  0
 12  9  2  0
 12 10  1  0
 13 11  2  3
 13 12  1  0
 14 11  1  0
M  END
>  <NAME>  (969) 
2,3,5,6-TETRAMETHYLACETANILIDE

>  <SYNONYMS>  (969) 


>  <SPECTRUM TYPE>  (969) 
MS1

>  <INSTRUMENT TYPE>  (969) 
EI-B

>  <INSTRUMENT>  (969) 
HITACHI M-80

>  <ION MODE>  (969) 
P

>  <INCHIKEY>  (969) 
KXMBEFKNGACUMW-UHFFFAOYSA-N

>  <FORMULA>  (969) 
C12H17NO

>  <EXACT MASS>  (969) 
191.131014164

>  <MW>  (969) 
191

>  <ID>  (969) 
JP010594

>  <CONTRIBUTOR>  (969) 
University of Tokyo Team, {Faculty of Engineering, University of Tokyo

>  <COMMENT>  (969) 
SMILES=CC(=O)Nc(c(C)1)c(C)c(C)cc(C)1
InChI=InChI=1S/C12H17NO/c1-7-6-8(2)10(4)12(9(7)3)13-11(5)14/h6H,1-5H3,(H,13,14)
computed SMILES=OC(=NC=1C(=C(C=C(C1C)C)C)C)C
accession=JP010594
date=2016.01.19 (Created 2008.10.21, modified 2011.05.06)
author=NARA WOMEN'S UNIVERSITY
license=CC BY-NC-SA
exact mass=191.13101
ionization energy=70 eV
ion type=[M]+*
computed spectral entropy=2.962676844755649
computed normalized entropy=0.7694969521271767
SPLASH=splash10-0005-1900000000-0b5e55aa9d6561598abe
submitter=submitter = University of Tokyo Team (Faculty of Engineering, University of Tokyo)
MoNA Rating=3.75

>  <NUM PEAKS>  (969) 
47

>  <MASS SPECTRAL PEAKS>  (969) 
15 4.51
27 2.9
39 5.63
42 3.99
43 23.73
51 3.2
53 3.39
63 1.92
65 4.18
77 7.52
79 4.84
91 13.31
92 1.82
93 3.2
103 3.03
104 1.91
105 10.21
106 3.91
107 2.34
115 5.52
116 3.6
117 7.02
118 3.11
119 3.6
120 2.41
121 2.3
130 3.1
131 4.09
132 11.82
133 7.21
134 48.83
135 6.72
146 3.49
147 4.11
148 71.03
149 99.99
150 14.83
160 1.5
161 1.32
174 3.22
175 1.61
176 16.82
177 2.09
189 2.31
190 1.11
191 76.72
192 11.5

>  <PREDICTED SPECTRUM>  (969) 
14 15
15 51
16 36
17 42
18 56
26 18
27 143
28 116
29 71
30 17
34 14
37 1
38 49
39 313
40 134
41 383
42 182
43 341
44 109
45 131
49 19
50 127
51 301
52 183
53 336
54 133
55 171
56 109
57 132
58 159
59 72
60 70
62 93
63 208
64 141
65 331
66 161
67 232
68 67
69 71
70 80
71 114
72 84
74 79
75 83
76 46
77 486
78 221
79 345
80 145
81 107
82 11
83 19
85 97
86 102
87 54
88 101
89 116
91 550
92 161
93 192
94 49
95 23
97 15
99 2
100 74
101 5
102 148
103 323
104 167
105 505
106 182
107 206
108 55
111 15
115 423
116 266
117 345
118 254
119 389
120 167
121 15
127 130
128 296
129 291
130 321
131 418
132 732
133 559
134 239
135 174
136 29
142 62
143 108
144 162
145 212
146 843
147 590
148 279
149 36
157 8
158 365
159 181
160 41
161 8
162 124
173 207
174 216
175 140
176 535
177 181
178 41
191 999
192 379
193 125

$$$$

     RDKit          2D

 10 10  0  0  0  0  0  0  0  0999 V2000
   -0.7914   -1.9439    0.0000 C   0  0  0  0  0  0  0  0  0  0  0  0
    1.3273   -1.8381    0.0000 C   0  0  0  0  0  0  0  0  0  0  0  0
    1.2215    0.2806    0.0000 C   0  0  0  0  0  0  0  0  0  0  0  0
   -2.3569   -0.1368    0.0000 C   0  0  0  0  0  0  0  0  0  0  0  0
   -0.8972    0.1748    0.0000 C   0  0  0  0  0  0  0  0  0  0  0  0
   -3.1069    1.1622    0.0000 C   0  0  0  0  0  0  0  0  0  0  0  0
    0.2151   -0.8317    0.0000 C   0  0  0  0  0  0  0  0  0  0  0  0
   -4.5986    1.3197    0.0000 N   0  0  0  0  0  0  0  0  0  0  0  0
   -2.1072    2.2706    0.0000 N   0  0  0  0  0  0  0  0  0  0  0  0
   -0.7314    1.6677    0.0000 O   0  0  0  0  0  0  0  0  0  0  0  0
  5  4  2  0
  6  4  1  0
  7  1  1  0
  7  2  1  0
  7  3  1  0
  7  5  1  0
  8  6  2  0
  9  6  1  0
 10  5  1  0
 10  9  1  0
M  END
>  <NAME>  (970) 
3-AMINO-5-TERT-BUTYLISOXAZOLE

>  <SYNONYMS>  (970) 


>  <SPECTRUM TYPE>  (970) 
MS1

>  <INSTRUMENT TYPE>  (970) 
EI-B

>  <INSTRUMENT>  (970) 
HITACHI M-80

>  <ION MODE>  (970) 
P

>  <INCHIKEY>  (970) 
GGXGVZJHUKEJHO-UHFFFAOYSA-N

>  <FORMULA>  (970) 
C7H12N2O

>  <EXACT MASS>  (970) 
140.094963004

>  <MW>  (970) 
140

>  <ID>  (970) 
JP010593

>  <CONTRIBUTOR>  (970) 
University of Tokyo Team, {Faculty of Engineering, University of Tokyo

>  <COMMENT>  (970) 
SMILES=Nc(n1)cc(o1)C(C)(C)C
InChI=InChI=1S/C7H12N2O/c1-7(2,3)5-4-6(8)9-10-5/h4H,1-3H3,(H2,8,9)
computed SMILES=N=C1C=C(ON1)C(C)(C)C
accession=JP010593
date=2016.01.19 (Created 2008.10.21, modified 2011.05.06)
author=NARA WOMEN'S UNIVERSITY
license=CC BY-NC-SA
exact mass=140.09496
ionization energy=70 eV
ion type=[M]+*
computed spectral entropy=3.0288283734938535
computed normalized entropy=0.8103520864117812
SPLASH=splash10-004l-9600000000-d92d35448fe8cbbe6744
submitter=submitter = University of Tokyo Team (Faculty of Engineering, University of Tokyo)
MoNA Rating=3.75

>  <NUM PEAKS>  (970) 
42

>  <MASS SPECTRAL PEAKS>  (970) 
18 8.19
27 7
28 18.11
29 2.73
30 2.71
32 2.2
39 11.29
40 2.51
41 18.58
42 6.63
43 11.57
44 3.4
51 2.23
52 1.68
53 6.8
54 3.29
55 14.03
56 4.19
57 11.11
58 3.09
65 1.7
66 1.69
67 4.9
68 4.49
69 3.81
70 3.9
77 1.71
80 6.77
81 5.1
82 4.09
83 16.4
84 2.91
94 4.63
95 3.32
96 2.71
97 8.89
98 2.82
108 2.78
125 99.99
126 7.2
140 46.53
141 4.7

>  <PREDICTED SPECTRUM>  (970) 
14 1
15 34
26 2
27 16
28 62
29 95
30 114
33 15
37 61
38 126
39 358
40 213
41 476
42 360
43 396
44 186
45 24
46 12
49 27
50 202
51 338
52 307
53 318
54 262
55 244
56 330
57 450
58 172
59 79
60 59
61 41
62 119
63 157
64 186
65 318
66 278
67 313
68 243
69 135
70 130
71 5
73 22
74 44
75 90
76 130
77 267
78 214
79 204
80 178
81 218
82 269
83 338
84 305
85 194
86 11
91 68
92 81
93 165
94 106
95 258
96 139
97 81
98 751
99 87
106 48
107 74
108 129
109 281
110 346
111 171
112 27
121 38
122 73
123 234
124 170
125 999
126 230
127 72
138 58
139 279
140 741
141 266
142 29

$$$$

     RDKit          2D

 11 11  0  0  0  0  0  0  0  0999 V2000
    2.7008   -2.8520    0.0000 C   0  0  0  0  0  0  0  0  0  0  0  0
    1.5886   -1.8455    0.0000 C   0  0  0  0  0  0  0  0  0  0  0  0
    0.1608   -2.3055    0.0000 C   0  0  0  0  0  0  0  0  0  0  0  0
   -0.9514   -1.2990    0.0000 C   0  0  0  0  0  0  0  0  0  0  0  0
   -2.3791   -1.7590    0.0000 C   0  0  0  0  0  0  0  0  0  0  0  0
   -4.9511   -1.0642    0.0000 C   0  0  0  0  0  0  0  0  0  0  0  0
   -3.4913   -0.7525    0.0000 C   0  0  0  0  0  0  0  0  0  0  0  0
   -5.7011    0.2349    0.0000 C   0  0  0  0  0  0  0  0  0  0  0  0
   -7.1928    0.3923    0.0000 N   0  0  0  0  0  0  0  0  0  0  0  0
   -4.7013    1.3432    0.0000 N   0  0  0  0  0  0  0  0  0  0  0  0
   -3.3256    0.7404    0.0000 O   0  0  0  0  0  0  0  0  0  0  0  0
  2  1  1  0
  3  2  1  0
  4  3  1  0
  5  4  1  0
  7  5  1  0
  7  6  2  0
  8  6  1  0
  9  8  2  0
 10  8  1  0
 11  7  1  0
 11 10  1  0
M  END
>  <NAME>  (971) 
3-AMINO-5-PENTYLISOXAZOLE

>  <SYNONYMS>  (971) 


>  <SPECTRUM TYPE>  (971) 
MS1

>  <INSTRUMENT TYPE>  (971) 
EI-B

>  <INSTRUMENT>  (971) 
HITACHI M-80

>  <ION MODE>  (971) 
P

>  <INCHIKEY>  (971) 
OUYAUCZSSFLZIX-UHFFFAOYSA-N

>  <FORMULA>  (971) 
C8H14N2O

>  <EXACT MASS>  (971) 
154.110613068

>  <MW>  (971) 
154

>  <ID>  (971) 
JP010592

>  <CONTRIBUTOR>  (971) 
University of Tokyo Team, {Faculty of Engineering, University of Tokyo

>  <COMMENT>  (971) 
SMILES=CCCCCc(o1)cc(N)n1
InChI=InChI=1S/C8H14N2O/c1-2-3-4-5-7-6-8(9)10-11-7/h6H,2-5H2,1H3,(H2,9,10)
computed SMILES=N=C1C=C(ON1)CCCCC
accession=JP010592
date=2016.01.19 (Created 2008.10.21, modified 2011.05.06)
author=NARA WOMEN'S UNIVERSITY
license=CC BY-NC-SA
exact mass=154.11061
ionization energy=70 eV
ion type=[M]+*
computed spectral entropy=3.3543919627868215
computed normalized entropy=0.8333164951791353
SPLASH=splash10-002e-9200000000-eebb1ff8ee52e403e2b7
submitter=submitter = University of Tokyo Team (Faculty of Engineering, University of Tokyo)
MoNA Rating=3.75

>  <NUM PEAKS>  (971) 
56

>  <MASS SPECTRAL PEAKS>  (971) 
15 1.23
18 2.63
26 3.46
27 33.89
28 30.77
29 34.31
30 6.75
38 2.55
39 23.12
40 5.51
41 42.37
42 19.09
43 27.56
44 8.14
50 1.15
51 2.54
52 3.13
53 7.16
54 12.83
55 30.52
56 11.52
57 5.67
58 7.32
65 2.14
66 6.42
67 13
68 6.01
69 6.58
70 4.52
71 1.97
74 1.23
79 1.98
80 6.09
81 3.21
82 1.32
83 6.42
84 5.76
85 5.1
94 1.73
95 2.88
96 1.49
97 13.82
98 99.99
99 6.01
109 1.4
110 1.07
111 45
112 12.82
113 1.15
120 2.63
122 1.48
125 2.96
137 7.24
153 1.23
154 41.13
155 7.16

>  <PREDICTED SPECTRUM>  (971) 
15 5
17 3
18 2
26 40
27 153
28 92
29 190
30 77
37 30
38 99
39 315
40 216
41 450
42 353
43 547
44 237
50 50
51 188
52 231
53 342
54 309
55 305
56 206
57 173
63 14
64 104
65 110
66 201
67 346
68 325
69 288
70 210
71 94
77 30
78 42
79 143
80 80
81 187
82 156
83 326
84 203
85 60
93 72
95 220
96 59
97 608
98 999
99 245
107 7
108 99
109 221
110 206
111 691
112 373
121 33
122 11
123 4
124 4
125 354
126 168
127 15
137 229
138 60
139 139
140 20
153 159
154 437
155 153

$$$$

     RDKit          2D

 11 11  0  0  0  0  0  0  0  0999 V2000
    6.3801    4.3545    0.0000 C   0  0  0  0  0  0  0  0  0  0  0  0
    5.4979    3.1414    0.0000 C   0  0  0  0  0  0  0  0  0  0  0  0
    4.0061    3.2988    0.0000 C   0  0  0  0  0  0  0  0  0  0  0  0
    3.1239    2.0857    0.0000 C   0  0  0  0  0  0  0  0  0  0  0  0
    1.6322    2.2431    0.0000 C   0  0  0  0  0  0  0  0  0  0  0  0
   -0.7500    1.0300    0.0000 C   0  0  0  0  0  0  0  0  0  0  0  0
    0.7500    1.0300    0.0000 C   0  0  0  0  0  0  0  0  0  0  0  0
   -1.2100   -0.3900    0.0000 C   0  0  0  0  0  0  0  0  0  0  0  0
   -2.6377   -0.8500    0.0000 N   0  0  0  0  0  0  0  0  0  0  0  0
    1.2100   -0.3900    0.0000 N   0  0  0  0  0  0  0  0  0  0  0  0
    0.0000   -1.2800    0.0000 O   0  0  0  0  0  0  0  0  0  0  0  0
  2  1  1  0
  3  2  1  0
  4  3  1  0
  5  4  1  0
  7  5  1  0
  7  6  1  0
  8  6  2  0
  9  8  1  0
 10  7  2  0
 11  8  1  0
 11 10  1  0
M  END
>  <NAME>  (972) 
5-AMINO-3-PENTYLISOXAZOLE

>  <SYNONYMS>  (972) 


>  <SPECTRUM TYPE>  (972) 
MS1

>  <INSTRUMENT TYPE>  (972) 
EI-B

>  <INSTRUMENT>  (972) 
HITACHI M-80

>  <ION MODE>  (972) 
P

>  <INCHIKEY>  (972) 
SWUFZCKNJXQAAH-UHFFFAOYSA-N

>  <FORMULA>  (972) 
C8H14N2O

>  <EXACT MASS>  (972) 
154.110613068

>  <MW>  (972) 
154

>  <ID>  (972) 
JP010591

>  <CONTRIBUTOR>  (972) 
University of Tokyo Team, {Faculty of Engineering, University of Tokyo

>  <COMMENT>  (972) 
SMILES=CCCCCc(n1)cc(N)o1
InChI=InChI=1S/C8H14N2O/c1-2-3-4-5-7-6-8(9)11-10-7/h6H,2-5,9H2,1H3
computed SMILES=N=1OC(N)=CC1CCCCC
accession=JP010591
date=2016.01.19 (Created 2008.10.21, modified 2011.05.06)
author=NARA WOMEN'S UNIVERSITY
license=CC BY-NC-SA
exact mass=154.11061
ionization energy=70 eV
ion type=[M]+*
computed spectral entropy=3.6111879878084094
computed normalized entropy=0.8716076657621938
SPLASH=splash10-002f-9100000000-53cbaf208d79ea7c004a
submitter=submitter = University of Tokyo Team (Faculty of Engineering, University of Tokyo)
MoNA Rating=3.75

>  <NUM PEAKS>  (972) 
63

>  <MASS SPECTRAL PEAKS>  (972) 
15 5.19
16 1.5
17 3.11
18 12.03
26 10.62
27 69.58
28 45.72
29 65.31
30 12.49
38 5.01
39 51.03
40 14.04
41 93.42
42 66.61
43 65.82
44 38
50 2.13
51 5.4
52 11.23
53 25
54 53.69
55 50.53
56 27.47
57 10.61
58 3.92
59 4.1
65 3.01
66 7.22
67 17.3
68 25.53
69 6.59
70 8
71 7.03
79 2.71
80 14.48
81 12.91
82 16.49
83 22.4
84 12.43
85 5.81
86 2.2
93 1.62
94 9.1
95 5.31
96 7.19
97 33.4
98 99.99
99 6.43
100 2.92
108 52.21
109 20.63
110 15.71
111 27.6
112 8.49
122 10.63
125 23.5
126 3.71
136 2.52
137 3.49
138 2.9
139 3.01
154 7.31
155 2.99

>  <PREDICTED SPECTRUM>  (972) 
14 38
15 134
16 45
17 47
18 61
19 3
25 12
26 135
27 421
28 291
29 514
30 253
31 86
32 28
33 13
34 27
36 54
37 117
38 224
39 638
40 376
41 855
42 600
43 669
44 498
45 155
46 42
50 160
51 267
52 351
53 508
54 478
55 532
56 345
57 278
58 62
63 117
64 137
65 231
66 259
67 504
68 517
69 410
70 287
71 195
77 35
78 106
79 177
80 333
81 449
82 445
83 306
84 219
85 141
91 44
92 48
93 181
94 154
95 366
96 376
97 518
98 999
99 259
100 59
105 9
107 22
108 248
109 397
110 296
111 605
112 318
113 86
121 38
122 157
123 83
124 98
125 356
126 178
137 285
138 165
139 140
140 55
153 100
154 386
155 148

$$$$

     RDKit          2D

 10 10  0  0  0  0  0  0  0  0999 V2000
    2.5992   -0.7500    0.0000 C   0  0  0  0  0  0  0  0  0  0  0  0
    1.2992   -1.5000    0.0000 C   0  0  0  0  0  0  0  0  0  0  0  0
    1.2992    1.5000    0.0000 C   0  0  0  0  0  0  0  0  0  0  0  0
   -1.2998    1.5002    0.0000 C   0  0  0  0  0  0  0  0  0  0  0  0
   -0.0008    0.7500    0.0000 C   0  0  0  0  0  0  0  0  0  0  0  0
    2.5992    0.7500    0.0000 C   0  0  0  0  0  0  0  0  0  0  0  0
   -0.0008   -0.7500    0.0000 C   0  0  0  0  0  0  0  0  0  0  0  0
    3.8981    1.5002    0.0000 Cl  0  0  0  0  0  0  0  0  0  0  0  0
   -2.5989    0.7504    0.0000 O   0  0  0  0  0  0  0  0  0  0  0  0
   -1.2998   -1.5002    0.0000 O   0  0  0  0  0  0  0  0  0  0  0  0
  2  1  2  0
  5  3  1  0
  5  4  1  0
  6  1  1  0
  6  3  2  0
  7  2  1  0
  7  5  2  0
  8  6  1  0
  9  4  1  0
 10  7  1  0
M  END
>  <NAME>  (973) 
4-CHLORO-2-HYDROXYMETHYLPHENOL

>  <SYNONYMS>  (973) 


>  <SPECTRUM TYPE>  (973) 
MS1

>  <INSTRUMENT TYPE>  (973) 
EI-B

>  <INSTRUMENT>  (973) 
HITACHI M-80

>  <ION MODE>  (973) 
P

>  <INCHIKEY>  (973) 
AFPSETMCMFRVPG-UHFFFAOYSA-N

>  <FORMULA>  (973) 
C7H7ClO2

>  <EXACT MASS>  (973) 
158.013457144

>  <MW>  (973) 
158

>  <ID>  (973) 
JP010590

>  <CONTRIBUTOR>  (973) 
University of Tokyo Team, {Faculty of Engineering, University of Tokyo

>  <COMMENT>  (973) 
SMILES=OCc(c1)c(O)ccc(Cl)1
InChI=InChI=1S/C7H7ClO2/c8-6-1-2-7(10)5(3-6)4-9/h1-3,9-10H,4H2
computed SMILES=ClC1=CC=C(O)C(=C1)CO
accession=JP010590
date=2016.01.19 (Created 2008.10.21, modified 2011.05.06)
author=NARA WOMEN'S UNIVERSITY
license=CC BY-NC-SA
exact mass=158.01346
ionization energy=70 eV
ion type=[M]+*
computed spectral entropy=2.9411435979289684
computed normalized entropy=0.814514112223396
SPLASH=splash10-0a4i-3900000000-b76af3aef6b7b013be17
submitter=submitter = University of Tokyo Team (Faculty of Engineering, University of Tokyo)
MoNA Rating=3.75

>  <NUM PEAKS>  (973) 
37

>  <MASS SPECTRAL PEAKS>  (973) 
32 2.49
37 4.61
38 6.4
46 1.98
49 2.73
50 5.41
51 3.09
53 6.8
61 5.72
62 9.61
63 19.62
64 9.18
65 19.64
66 3.4
73 11.81
74 4.43
75 8.51
99 17.01
100 4.44
101 5.31
102 1.42
110 20.62
111 1.7
126 1.49
127 11.21
128 7.72
129 4.4
130 2.61
138 15.92
139 1.3
140 5.31
154 1.72
155 61.7
156 99.99
157 37.9
158 36.91
159 5.2

>  <PREDICTED SPECTRUM>  (973) 
14 23
16 21
17 78
18 110
19 5
25 29
26 87
27 130
28 107
29 177
31 175
32 21
35 43
36 84
37 142
38 186
39 258
40 62
41 84
42 65
43 146
44 92
45 200
46 97
47 116
48 51
49 260
50 439
51 595
52 273
53 390
54 70
55 257
56 74
57 192
58 121
60 165
61 283
62 313
63 463
64 273
65 305
66 227
67 141
68 74
69 44
70 30
71 124
72 166
73 517
74 329
75 464
76 237
77 722
78 302
79 259
81 89
83 105
84 93
85 174
86 154
87 156
89 23
93 186
94 232
95 87
99 163
100 65
101 80
102 106
105 361
106 73
109 3
111 416
112 638
113 251
114 246
115 74
121 62
123 149
124 90
127 88
128 126
129 208
130 25
131 200
139 347
140 999
141 368
142 620
143 108
144 86
155 36
156 97
157 121
158 780
159 255
160 449
161 121

$$$$

     RDKit          2D

 13 14  0  0  0  0  0  0  0  0999 V2000
    3.6529    2.9461    0.0000 C   0  0  0  0  0  0  0  0  0  0  0  0
   -2.3100    0.7500    0.0000 C   0  0  0  0  0  0  0  0  0  0  0  0
   -2.3100   -0.7500    0.0000 C   0  0  0  0  0  0  0  0  0  0  0  0
   -1.0100    1.5000    0.0000 C   0  0  0  0  0  0  0  0  0  0  0  0
   -1.0100   -1.5000    0.0000 C   0  0  0  0  0  0  0  0  0  0  0  0
    4.1000   -0.0000    0.0000 C   0  0  0  0  0  0  0  0  0  0  0  0
    0.2900    0.7500    0.0000 C   0  0  0  0  0  0  0  0  0  0  0  0
    0.2900   -0.7500    0.0000 C   0  0  0  0  0  0  0  0  0  0  0  0
    2.6000   -0.0000    0.0000 C   0  0  0  0  0  0  0  0  0  0  0  0
    1.7200    1.2100    0.0000 C   0  0  0  0  0  0  0  0  0  0  0  0
    1.7200   -1.2100    0.0000 N   0  0  0  0  0  0  0  0  0  0  0  0
    4.8500   -1.2990    0.0000 O   0  0  0  0  0  0  0  0  0  0  0  0
    2.1853    2.6360    0.0000 S   0  0  0  0  0  0  0  0  0  0  0  0
  3  2  2  0
  4  2  1  0
  5  3  1  0
  7  4  2  0
  8  5  2  0
  8  7  1  0
  9  6  1  0
 10  7  1  0
 10  9  2  0
 11  8  1  0
 11  9  1  0
 12  6  1  0
 13  1  1  0
 13 10  1  0
M  END
>  <NAME>  (974) 
2-HYDROXYMETHYL-3-(METHYLTHIO)INDOLE

>  <SYNONYMS>  (974) 


>  <SPECTRUM TYPE>  (974) 
MS1

>  <INSTRUMENT TYPE>  (974) 
EI-B

>  <INSTRUMENT>  (974) 
HITACHI M-80

>  <ION MODE>  (974) 
P

>  <INCHIKEY>  (974) 
JRAOFUGUXXJWOW-UHFFFAOYSA-N

>  <FORMULA>  (974) 
C10H11NOS

>  <EXACT MASS>  (974) 
193.056134972

>  <MW>  (974) 
193

>  <ID>  (974) 
JP010589

>  <CONTRIBUTOR>  (974) 
University of Tokyo Team, {Faculty of Engineering, University of Tokyo

>  <COMMENT>  (974) 
SMILES=CSC1=C(NC2=CC=CC=C21)CO
InChI=InChI=1S/C10H11NOS/c1-13-10-7-4-2-3-5-8(7)11-9(10)6-12/h2-5,11-12H,6H2,1H3
computed SMILES=OCC=1NC=2C=CC=CC2C1SC
accession=JP010589
date=2016.01.19 (Created 2008.10.21, modified 2011.05.06)
author=NARA WOMEN'S UNIVERSITY
license=CC BY-NC-SA
exact mass=193.05613
ionization energy=70 eV
ion type=[M]+*
computed spectral entropy=3.4327159220751127
computed normalized entropy=0.8135346969183561
SPLASH=splash10-00mo-2900000000-f503ab4f83083f0521af
submitter=submitter = University of Tokyo Team (Faculty of Engineering, University of Tokyo)
MoNA Rating=3.75

>  <NUM PEAKS>  (974) 
68

>  <MASS SPECTRAL PEAKS>  (974) 
15 5.72
28 8.1
31 5.79
32 1.61
39 6.08
41 2.63
43 1.42
45 9.92
46 1.71
47 1.9
50 3.32
51 5.34
52 2.09
63 5.71
64 1.52
65 2.1
74 2.11
75 3.42
76 3.8
77 9.01
78 2.22
88 1.5
89 10.92
90 8.01
91 4.73
93 2.27
94 2.25
101 1.73
102 3.09
103 1.58
104 2.6
115 1.49
116 10.11
117 68.89
118 11.62
119 1.72
120 6.81
121 6.13
128 2.68
129 1.71
130 4.79
131 4.6
132 5.21
133 3.08
134 3.71
142 2.11
143 1.49
144 3.4
145 1.51
146 4.19
148 7.88
149 5.71
150 5.83
158 1.48
160 20.09
161 4.2
162 3.23
174 3.3
175 24.63
176 10.02
177 4.68
178 39.31
179 4.3
180 1.81
192 2.42
193 99.99
194 12.32
195 5

>  <PREDICTED SPECTRUM>  (974) 
36 7
38 20
39 119
40 26
41 89
42 50
43 61
44 42
45 202
46 55
47 39
48 9
49 19
50 130
51 208
52 132
53 76
54 6
59 28
60 0
61 49
62 99
63 182
64 99
65 157
66 55
67 14
70 11
71 21
74 99
75 167
76 167
77 289
78 140
79 81
80 4
83 5
84 19
85 5
86 57
87 103
88 137
89 241
90 173
91 230
92 78
93 73
94 22
99 17
100 36
101 161
102 254
103 206
104 148
105 88
106 69
111 15
113 51
114 170
115 255
116 242
117 308
118 239
119 164
120 138
121 38
128 140
129 154
130 285
131 196
132 258
133 123
134 160
135 100
136 7
140 109
142 194
143 135
144 345
145 178
146 247
147 87
148 195
149 143
150 155
151 52
158 10
160 318
161 147
162 115
163 112
164 132
172 4
174 160
175 327
176 358
177 112
178 729
179 273
180 121
190 41
191 103
192 186
193 999
194 384
195 170
196 27

$$$$

     RDKit          2D

  9  9  0  0  0  0  0  0  0  0999 V2000
   -1.2100   -0.3900    0.0000 C   0  0  0  0  0  0  0  0  0  0  0  0
   -0.7500    1.0300    0.0000 C   0  0  0  0  0  0  0  0  0  0  0  0
    0.7500    1.0300    0.0000 C   0  0  0  0  0  0  0  0  0  0  0  0
    1.6322    2.2431    0.0000 Cl  0  0  0  0  0  0  0  0  0  0  0  0
    1.2100   -0.3900    0.0000 N   0  0  0  0  0  0  0  0  0  0  0  0
   -1.6322    2.2431    0.0000 N   0  0  0  0  0  0  0  0  0  0  0  0
   -3.1239    2.0857    0.0000 O   0  0  0  0  0  0  0  0  0  0  0  0
   -1.0227    3.6137    0.0000 O   0  0  0  0  0  0  0  0  0  0  0  0
    0.0000   -1.2800    0.0000 O   0  0  0  0  0  0  0  0  0  0  0  0
  2  1  2  0
  3  2  1  0
  4  3  1  0
  5  3  2  0
  6  2  1  0
  7  6  1  0
  8  6  2  0
  9  1  1  0
  9  5  1  0
M  CHG  2   6   1   7  -1
M  END
>  <NAME>  (975) 
3-CHLORO-4-NITROISOXAZOLE

>  <SYNONYMS>  (975) 


>  <SPECTRUM TYPE>  (975) 
MS1

>  <INSTRUMENT TYPE>  (975) 
EI-B

>  <INSTRUMENT>  (975) 
HITACHI M-80

>  <ION MODE>  (975) 
P

>  <INCHIKEY>  (975) 
NQLCWYZQXQDQGZ-UHFFFAOYSA-N

>  <FORMULA>  (975) 
C3HClN2O3

>  <EXACT MASS>  (975) 
147.96756957199997

>  <MW>  (975) 
148

>  <ID>  (975) 
JP010588

>  <CONTRIBUTOR>  (975) 
University of Tokyo Team, {Faculty of Engineering, University of Tokyo

>  <COMMENT>  (975) 
SMILES=[O-1][N+1](=O)c(c1)c(Cl)no1
InChI=InChI=1S/C3HClN2O3/c4-3-2(6(7)8)1-9-5-3/h1H
computed SMILES=O=N(=O)C1=CON=C1Cl
accession=JP010588
date=2016.01.19 (Created 2008.10.21, modified 2011.05.06)
author=NARA WOMEN'S UNIVERSITY
license=CC BY-NC-SA
exact mass=147.96757
ionization energy=70 eV
ion type=[M]+*
computed spectral entropy=2.8155319163878745
computed normalized entropy=0.7440250591967797
SPLASH=splash10-0032-9200000000-ca7f3e9006e7d30aa5c4
submitter=submitter = University of Tokyo Team (Faculty of Engineering, University of Tokyo)
MoNA Rating=3.75

>  <NUM PEAKS>  (975) 
44

>  <MASS SPECTRAL PEAKS>  (975) 
12 2.4
16 1.31
24 1.19
25 1.21
27 2.23
28 10.72
29 88.3
30 99.99
32 1.41
35 4.87
36 2.2
37 5.29
38 13.61
39 11.1
41 2.73
43 5.58
45 1.22
46 12.77
47 25
49 8.48
51 1.68
54 2.08
61 2.47
62 6
63 4.39
64 1.6
66 1.19
67 3.68
68 2.21
69 6.21
70 1.38
72 10.91
73 5.79
74 23.16
76 6.53
87 2.08
101 2.32
102 4.91
103 2.48
104 1.29
148 71.43
149 3.67
150 21.43
151 1.11

>  <PREDICTED SPECTRUM>  (975) 
14 87
15 137
16 69
17 7
18 20
25 58
26 179
27 134
28 297
29 431
30 999
31 121
32 59
34 4
35 232
36 171
37 189
38 423
39 339
40 126
41 22
42 50
43 45
44 92
45 35
46 433
47 270
48 117
49 253
50 81
51 108
53 74
54 95
56 14
57 85
60 38
61 265
62 161
63 221
64 87
66 32
67 42
72 177
73 312
74 456
75 163
76 111
87 78
89 13
90 137
91 10
92 39
102 223
103 79
104 168
118 130
120 120
132 24
148 803
149 199
150 470
151 93

$$$$

     RDKit          2D

 14 14  0  0  0  0  0  0  0  0999 V2000
   -1.3000   -0.7500    0.0000 C   0  0  0  0  0  0  0  0  0  0  0  0
    0.0000    1.5000    0.0000 C   0  0  0  0  0  0  0  0  0  0  0  0
    0.0000   -1.5000    0.0000 C   0  0  0  0  0  0  0  0  0  0  0  0
    1.3000    0.7500    0.0000 C   0  0  0  0  0  0  0  0  0  0  0  0
   -3.8981    0.7504    0.0000 C   0  0  0  0  0  0  0  0  0  0  0  0
   -5.1970    1.5006    0.0000 C   0  0  0  0  0  0  0  0  0  0  0  0
   -1.3000    0.7500    0.0000 C   0  0  0  0  0  0  0  0  0  0  0  0
    1.3000   -0.7500    0.0000 C   0  0  0  0  0  0  0  0  0  0  0  0
   -2.5989    1.5002    0.0000 C   0  0  0  0  0  0  0  0  0  0  0  0
   -6.4959    2.2508    0.0000 N   0  0  0  0  0  0  0  0  0  0  0  0
    2.5989   -1.5002    0.0000 N   0  0  0  0  0  0  0  0  0  0  0  0
   -2.5987    3.0002    0.0000 O   0  0  0  0  0  0  0  0  0  0  0  0
    3.8981   -0.7504    0.0000 O   0  0  0  0  0  0  0  0  0  0  0  0
    2.5987   -3.0002    0.0000 O   0  0  0  0  0  0  0  0  0  0  0  0
  3  1  2  0
  4  2  1  0
  6  5  1  0
  7  1  1  0
  7  2  2  0
  8  3  1  0
  8  4  2  0
  9  5  1  0
  9  7  1  0
 10  6  3  0
 11  8  1  0
 12  9  1  0
 13 11  1  0
 14 11  2  0
M  CHG  2  11   1  13  -1
M  END
>  <NAME>  (976) 
BETA-HYDROXY-4-NITROBENZENEPROPANENITRILE

>  <SYNONYMS>  (976) 


>  <SPECTRUM TYPE>  (976) 
MS1

>  <INSTRUMENT TYPE>  (976) 
EI-B

>  <INSTRUMENT>  (976) 
HITACHI M-80

>  <ION MODE>  (976) 
P

>  <INCHIKEY>  (976) 
HJMGPNYFZRPELU-UHFFFAOYSA-N

>  <FORMULA>  (976) 
C9H8N2O3

>  <EXACT MASS>  (976) 
192.053492116

>  <MW>  (976) 
192

>  <ID>  (976) 
JP010587

>  <CONTRIBUTOR>  (976) 
University of Tokyo Team, {Faculty of Engineering, University of Tokyo

>  <COMMENT>  (976) 
SMILES=N#CCC(O)c(c1)ccc(c1)[N+1]([O-1])=O
cas=71312-64-6
InChI=InChI=1S/C9H8N2O3/c10-6-5-9(12)7-1-3-8(4-2-7)11(13)14/h1-4,9,12H,5H2
computed SMILES=N#CCC(O)C1=CC=C(C=C1)N(=O)=O
accession=JP010587
date=2016.01.19 (Created 2008.10.21, modified 2011.05.06)
author=NARA WOMEN'S UNIVERSITY
license=CC BY-NC-SA
exact mass=192.05349
ionization energy=70 eV
ion type=[M]+*
computed spectral entropy=2.8964581225523034
computed normalized entropy=0.7700888103419083
SPLASH=splash10-0udi-8900000000-6ba05615cd8c9851a2f7
submitter=submitter = University of Tokyo Team (Faculty of Engineering, University of Tokyo)
MoNA Rating=3.75

>  <NUM PEAKS>  (976) 
43

>  <MASS SPECTRAL PEAKS>  (976) 
27 1.99
28 2.95
29 2.82
30 6.17
38 1.99
39 5.83
40 4.33
41 4.57
42 2.54
46 2.09
50 8.67
51 15.33
52 4.57
62 1.62
63 3.71
64 1.13
65 3.65
66 6.68
68 1
74 3.37
75 4.12
76 5.78
77 20
78 14.66
79 1.15
89 1.28
91 2.95
92 1.11
94 13.58
101 1.99
102 1.09
104 2.2
105 11.42
106 13.32
107 1.69
122 5.91
128 1.86
136 1.71
150 2.52
151 1.24
152 99.99
153 7.66
193 0.96

>  <PREDICTED SPECTRUM>  (976) 
14 16
18 5
25 9
26 51
27 112
28 93
29 19
30 94
31 4
36 11
37 78
38 140
39 241
40 158
41 224
42 73
43 23
44 27
46 6
49 50
50 257
51 356
52 194
53 136
54 113
55 24
56 6
61 2
62 103
63 156
64 123
65 195
66 113
67 69
68 11
74 92
75 139
76 200
77 445
78 278
79 131
80 14
89 69
90 10
91 227
92 203
93 68
94 160
95 49
96 25
104 216
105 264
106 369
107 58
108 8
115 32
116 52
118 15
120 63
122 90
123 3
124 36
136 70
151 65
152 999
153 214
154 27
162 26
192 193
193 54

$$$$

     RDKit          2D

 13 13  0  0  0  0  0  0  0  0999 V2000
    6.4961   -0.7711    0.0000 C   0  0  0  0  0  0  0  0  0  0  0  0
    2.5881    1.4764    0.0000 C   0  0  0  0  0  0  0  0  0  0  0  0
    1.2746   -0.7484    0.0000 C   0  0  0  0  0  0  0  0  0  0  0  0
    3.8727    0.7516    0.0000 C   0  0  0  0  0  0  0  0  0  0  0  0
    2.5991   -1.5426    0.0000 C   0  0  0  0  0  0  0  0  0  0  0  0
   -1.3089    0.7392    0.0000 C   0  0  0  0  0  0  0  0  0  0  0  0
   -2.6043    1.4956    0.0000 C   0  0  0  0  0  0  0  0  0  0  0  0
    1.2891    0.7264    0.0000 C   0  0  0  0  0  0  0  0  0  0  0  0
    3.8981   -0.7926    0.0000 C   0  0  0  0  0  0  0  0  0  0  0  0
   -0.0062    1.4828    0.0000 C   0  0  0  0  0  0  0  0  0  0  0  0
   -3.8996    2.2520    0.0000 N   0  0  0  0  0  0  0  0  0  0  0  0
    0.0012    2.9828    0.0000 O   0  0  0  0  0  0  0  0  0  0  0  0
    5.2033   -1.5318    0.0000 O   0  0  0  0  0  0  0  0  0  0  0  0
  4  2  2  0
  5  3  1  0
  7  6  1  0
  8  2  1  0
  8  3  2  0
  9  4  1  0
  9  5  2  0
 10  6  1  0
 10  8  1  0
 11  7  3  0
 12 10  1  0
 13  1  1  0
 13  9  1  0
M  END
>  <NAME>  (977) 
BETA-HYDROXY-4-METHOXYBENZENEPROPANENITRILE

>  <SYNONYMS>  (977) 


>  <SPECTRUM TYPE>  (977) 
MS1

>  <INSTRUMENT TYPE>  (977) 
EI-B

>  <INSTRUMENT>  (977) 
HITACHI M-80

>  <ION MODE>  (977) 
P

>  <INCHIKEY>  (977) 
HQMWYPRJRGJPJV-UHFFFAOYSA-N

>  <FORMULA>  (977) 
C10H11NO2

>  <EXACT MASS>  (977) 
177.078978592

>  <MW>  (977) 
177

>  <ID>  (977) 
JP010586

>  <CONTRIBUTOR>  (977) 
University of Tokyo Team, {Faculty of Engineering, University of Tokyo

>  <COMMENT>  (977) 
SMILES=N#CCC(O)c(c1)ccc(OC)c1
cas=51241-27-1
InChI=InChI=1S/C10H11NO2/c1-13-9-4-2-8(3-5-9)10(12)6-7-11/h2-5,10,12H,6H2,1H3
computed SMILES=N#CCC(O)C1=CC=C(OC)C=C1
accession=JP010586
date=2016.01.19 (Created 2008.10.21, modified 2011.05.06)
author=NARA WOMEN'S UNIVERSITY
license=CC BY-NC-SA
exact mass=177.07898
ionization energy=70 eV
ion type=[M]+*
computed spectral entropy=2.7020799072497024
computed normalized entropy=0.7324934145615063
SPLASH=splash10-000i-7900000000-31f318f8e79b16d99037
submitter=submitter = University of Tokyo Team (Faculty of Engineering, University of Tokyo)
MoNA Rating=3.75

>  <NUM PEAKS>  (977) 
40

>  <MASS SPECTRAL PEAKS>  (977) 
15 4.11
18 2.24
27 1.5
28 5.48
29 2.55
32 1.31
38 1.99
39 7.48
40 3.93
41 4.05
43 1.12
50 2.93
51 5.11
52 1.31
53 1.43
62 1.43
63 4.74
64 3.3
65 6.42
66 7.17
68 1.06
76 1.12
77 20.75
78 3.3
79 2.87
89 1.06
91 1.44
92 3.86
93 1.11
94 17.07
95 1.12
107 1.68
109 20
110 1.25
122 1.24
135 5.48
136 1.37
137 99.99
138 7.35
177 8.91

>  <PREDICTED SPECTRUM>  (977) 
14 36
15 92
16 3
17 1
18 34
25 8
26 57
27 106
28 141
29 59
31 44
32 5
33 13
37 72
38 146
39 247
40 154
41 177
42 101
43 67
50 199
51 287
52 212
53 151
54 24
61 36
62 115
63 208
64 158
65 286
66 178
67 81
68 37
69 52
70 68
74 78
75 57
76 85
77 374
78 194
79 115
80 87
81 37
83 111
89 65
90 6
91 155
92 246
93 79
94 389
95 80
106 144
107 68
109 496
110 120
121 17
122 65
134 22
135 157
136 75
137 999
138 323
139 28
177 294
178 55

$$$$

     RDKit          2D

 12 12  0  0  0  0  0  0  0  0999 V2000
   -2.5989   -1.5002    0.0000 C   0  0  0  0  0  0  0  0  0  0  0  0
   -1.3000    0.7500    0.0000 C   0  0  0  0  0  0  0  0  0  0  0  0
   -0.0000   -1.5000    0.0000 C   0  0  0  0  0  0  0  0  0  0  0  0
    0.0000    1.5000    0.0000 C   0  0  0  0  0  0  0  0  0  0  0  0
    1.3000   -0.7500    0.0000 C   0  0  0  0  0  0  0  0  0  0  0  0
    3.8981    0.7504    0.0000 C   0  0  0  0  0  0  0  0  0  0  0  0
    5.1970    1.5006    0.0000 C   0  0  0  0  0  0  0  0  0  0  0  0
   -1.3000   -0.7500    0.0000 C   0  0  0  0  0  0  0  0  0  0  0  0
    1.3000    0.7500    0.0000 C   0  0  0  0  0  0  0  0  0  0  0  0
    2.5989    1.5002    0.0000 C   0  0  0  0  0  0  0  0  0  0  0  0
    6.4959    2.2508    0.0000 N   0  0  0  0  0  0  0  0  0  0  0  0
    2.5987    3.0002    0.0000 O   0  0  0  0  0  0  0  0  0  0  0  0
  4  2  2  0
  5  3  1  0
  7  6  1  0
  8  1  1  0
  8  2  1  0
  8  3  2  0
  9  4  1  0
  9  5  2  0
 10  6  1  0
 10  9  1  0
 11  7  3  0
 12 10  1  0
M  END
>  <NAME>  (978) 
BETA-HYDROXY-4-METHYLBENZENEPROPANENITRILE

>  <SYNONYMS>  (978) 


>  <SPECTRUM TYPE>  (978) 
MS1

>  <INSTRUMENT TYPE>  (978) 
EI-B

>  <INSTRUMENT>  (978) 
HITACHI M-80

>  <ION MODE>  (978) 
P

>  <INCHIKEY>  (978) 
HTMRHSQTWGSYKW-UHFFFAOYSA-N

>  <FORMULA>  (978) 
C10H11NO

>  <EXACT MASS>  (978) 
161.084063972

>  <MW>  (978) 
161

>  <ID>  (978) 
JP010585

>  <CONTRIBUTOR>  (978) 
University of Tokyo Team, {Faculty of Engineering, University of Tokyo

>  <COMMENT>  (978) 
SMILES=N#CCC(O)c(c1)ccc(C)c1
InChI=InChI=1S/C10H11NO/c1-8-2-4-9(5-3-8)10(12)6-7-11/h2-5,10,12H,6H2,1H3
computed SMILES=N#CCC(O)C1=CC=C(C=C1)C
accession=JP010585
date=2016.01.19 (Created 2008.10.21, modified 2011.05.06)
author=NARA WOMEN'S UNIVERSITY
license=CC BY-NC-SA
exact mass=161.08406
ionization energy=70 eV
ion type=[M]+*
computed spectral entropy=2.4371720847989717
computed normalized entropy=0.7394698778746444
SPLASH=splash10-00dl-9700000000-8359e13b66ca2714cae0
submitter=submitter = University of Tokyo Team (Faculty of Engineering, University of Tokyo)
MoNA Rating=3.75

>  <NUM PEAKS>  (978) 
27

>  <MASS SPECTRAL PEAKS>  (978) 
28 3.7
38 1.64
39 11.01
40 4.93
41 6.74
50 3.2
51 7.07
53 1.65
63 6.33
64 1.56
65 12.82
66 1.15
77 28.18
78 4.52
89 3.62
90 1.64
91 11.74
92 3.7
93 41
94 3.04
105 1.48
115 1.31
119 6.16
120 3.11
121 99.99
122 7.31
161 5.26

>  <PREDICTED SPECTRUM>  (978) 
14 22
15 32
17 4
18 36
26 40
27 95
28 108
32 12
37 45
38 85
39 207
40 106
41 152
42 4
43 55
49 20
50 118
51 257
52 111
53 115
54 21
61 53
62 89
63 157
64 66
65 252
66 62
67 17
74 17
75 47
77 361
78 179
79 143
89 79
91 305
92 148
93 229
94 210
105 175
106 91
115 2
118 17
119 204
120 77
121 999
122 262
123 55
142 12
160 20
161 254
162 63

$$$$

     RDKit          2D

 45 51  0  0  1  0  0  0  0  0999 V2000
    3.2636   -5.1063    0.0000 C   0  0  0  0  0  0  0  0  0  0  0  0
   -5.3995   -0.3726    0.0000 C   0  0  0  0  0  0  0  0  0  0  0  0
   -3.1797   -5.5795    0.0000 C   0  0  0  0  0  0  0  0  0  0  0  0
   -3.5148    2.5114    0.0000 C   0  0  0  0  0  0  0  0  0  0  0  0
    1.0129   -5.4134    0.0000 C   0  0  0  0  0  0  0  0  0  0  0  0
    6.3837    3.1938    0.0000 C   0  0  0  0  0  0  0  0  0  0  0  0
   10.7580    0.8466    0.0000 C   0  0  0  0  0  0  0  0  0  0  0  0
   10.1283   -0.5158    0.0000 C   0  0  0  0  0  0  0  0  0  0  0  0
    9.8938    2.0736    0.0000 C   0  0  0  0  0  0  0  0  0  0  0  0
    8.6345   -0.6511    0.0000 C   0  0  0  0  0  0  0  0  0  0  0  0
    8.3999    1.9383    0.0000 C   0  0  0  0  0  0  0  0  0  0  0  0
   -3.5158   -0.4886    0.0000 C   0  0  0  0  0  0  0  0  0  0  0  0
    0.1242    1.9414    0.0000 C   0  0  0  0  0  0  0  0  0  0  0  0
   -2.6058   -4.1886    0.0000 C   0  0  0  0  0  0  0  0  0  0  0  0
   -1.2266   -3.8662    0.0000 C   0  0  0  0  0  0  0  0  0  0  0  0
    2.4674   -3.8350    0.0000 C   0  0  0  0  0  0  0  0  0  0  0  0
    7.7702    0.5759    0.0000 C   0  0  0  0  0  0  0  0  0  0  0  0
    0.2542    0.4414    0.0000 C   0  0  0  0  0  0  0  0  0  0  0  0
   -3.5158   -1.9886    0.0000 C   0  0  0  0  0  0  0  0  0  0  0  0
   -2.2158    0.2614    0.0000 C   0  0  0  0  0  0  0  0  0  0  0  0
    1.7142    0.1114    0.0000 C   0  0  0  0  0  0  0  0  0  0  0  0
    1.7142   -2.5986    0.0000 C   0  0  0  0  0  0  0  0  0  0  0  0
    0.2542   -2.9286    0.0000 C   0  0  0  0  0  0  0  0  0  0  0  0
   -0.9158   -1.9886    0.0000 C   0  0  0  0  0  0  0  0  0  0  0  0
   -0.9158    1.0114    0.0000 C   0  0  0  0  0  0  0  0  0  0  0  0
    3.8742   -1.2386    0.0000 C   0  0  0  0  0  0  0  0  0  0  0  0
    2.4842    1.4014    0.0000 C   0  0  0  0  0  0  0  0  0  0  0  0
    3.8742    2.5214    0.0000 C   0  0  0  0  0  0  0  0  0  0  0  0
    6.2763    0.4406    0.0000 C   0  0  0  0  0  0  0  0  0  0  0  0
   -2.2158   -2.7386    0.0000 C   0  0  0  0  0  0  0  0  0  0  0  0
    1.5042    2.5214    0.0000 C   0  0  0  0  0  0  0  0  0  0  0  0
   -0.9158   -0.4886    0.0000 C   0  0  0  0  0  0  0  0  0  0  0  0
    2.3742   -1.2386    0.0000 C   0  0  0  0  0  0  0  0  0  0  0  0
   -2.6058   -1.2886    0.0000 N   0  0  0  0  0  0  0  0  0  0  0  0
    0.9684   -3.8888    0.0000 O   0  0  0  0  0  0  0  0  0  0  0  0
   -4.8147   -2.7388    0.0000 O   0  0  0  0  0  0  0  0  0  0  0  0
    4.9349   -2.2992    0.0000 O   0  0  0  0  0  0  0  0  0  0  0  0
    5.6466   -0.9208    0.0000 O   0  0  0  0  0  0  0  0  0  0  0  0
    1.8418    3.9829    0.0000 O   0  0  0  0  0  0  0  0  0  0  0  0
   -1.7086   -5.2867    0.0000 O   0  0  0  0  0  0  0  0  0  0  0  0
   -2.2158    1.7614    0.0000 O   0  0  0  0  0  0  0  0  0  0  0  0
   -0.0838   -4.3900    0.0000 O   0  0  0  0  0  0  0  0  0  0  0  0
    4.9349    3.5821    0.0000 O   0  0  0  0  0  0  0  0  0  0  0  0
    5.4122    1.6667    0.0000 O   0  0  0  0  0  0  0  0  0  0  0  0
    3.1703   -2.5099    0.0000 O   0  0  0  0  0  0  0  0  0  0  0  0
  8  7  2  0
  9  7  1  0
 10  8  1  0
 11  9  2  0
 16  1  1  0
 17 10  2  0
 17 11  1  0
 18 13  1  6
 19 12  1  0
 20 12  1  0
 21 18  1  6
 22 23  1  1
 24 23  1  6
 25 22  1  0
 27 21  1  0
 28 26  1  0
 29 17  1  0
 30 14  1  0
 30 15  1  1
 30 19  1  0
 30 24  1  0
 31 13  1  0
 31 27  1  0
 31 28  1  0
 32 18  1  0
 32 20  1  1
 32 24  1  0
 32 25  1  0
 33 21  1  0
 33 22  1  0
 33 26  1  0
 34  2  1  0
 34 14  1  0
 25 34  1  6
 35 16  2  0
 19 36  1  6
 26 37  1  6
 38 29  2  0
 31 39  1  1
 40  3  1  0
 40 15  1  0
 41  4  1  0
 20 41  1  6
 42  5  1  0
 23 42  1  6
 43  6  1  0
 28 43  1  1
 27 44  1  6
 44 29  1  0
 45 16  1  0
 33 45  1  1
M  END
>  <NAME>  (979) 
MESACONITINE

>  <SYNONYMS>  (979) 


>  <SPECTRUM TYPE>  (979) 
MS1

>  <INSTRUMENT TYPE>  (979) 
EI-B

>  <INSTRUMENT>  (979) 
HITACHI M-80

>  <ION MODE>  (979) 
P

>  <INCHIKEY>  (979) 
XUHJBXVYNBQQBD-GQPWXMLZSA-N

>  <FORMULA>  (979) 
C33H45NO11

>  <EXACT MASS>  (979) 
631.29926126

>  <MW>  (979) 
631

>  <ID>  (979) 
JP010584

>  <CONTRIBUTOR>  (979) 
University of Tokyo Team, {Faculty of Engineering, University of Tokyo

>  <COMMENT>  (979) 
SMILES=COCC(C2)(C([H])71)C(CC(OC)C(C([H])63)(C(C([H])(C7OC)C(C64[H])(OC(C)=O)C(O)C(C(O)(C(OC(=O)c(c5)cccc5)4)C3)OC)N(C)2)1)O
InChI=InChI=1S/C33H45NO11/c1-16(35)45-33-21-18(13-31(39,28(43-6)26(33)37)27(21)44-29(38)17-10-8-7-9-11-17)32-20(41-4)12-19(36)30(15-40-3)14-34(2)25(32)22(33)23(42-5)24(30)32/h7-11,18-28,36-37,39H,12-15H2,1-6H3/t18-,19-,20+,21-,22+,23+,24-,25-,26+,27-,28+,30+,31-,32+,33-/m1/s1
computed SMILES=O=C(OC1C2C3CC1(O)C(OC)C(O)C2(OC(=O)C)C4C(OC)C5C6(COC)CN(C)C4C35C(OC)CC6O)C=7C=CC=CC7
accession=JP010584
date=2016.01.19 (Created 2008.10.21, modified 2011.05.06)
author=NARA WOMEN'S UNIVERSITY
license=CC BY-NC-SA
exact mass=631.29926
ionization energy=70 eV
ion type=[M]+*
computed spectral entropy=2.9651500628514285
computed normalized entropy=0.7399310029369109
SPLASH=splash10-0f6x-9100032000-3e106a067ca792a7a418
submitter=submitter = University of Tokyo Team (Faculty of Engineering, University of Tokyo)
MoNA Rating=3.75

>  <NUM PEAKS>  (979) 
55

>  <MASS SPECTRAL PEAKS>  (979) 
14 6.8
16 4.56
17 1.21
31 14.9
32 1.12
41 3.27
42 13
43 99.99
44 5.34
45 75
46 3.01
60 63.98
61 5.51
71 1.03
77 5.25
87 1.29
105 25.4
106 2.24
111 1.29
122 1.89
134 1.03
141 1.46
164 1.38
252 2.15
494 1.29
508 1.28
510 1.45
512 1.72
522 1.98
524 9.3
525 3.19
526 1.74
540 37.72
541 13.69
542 4.99
543 1.29
554 1.28
556 5.25
557 1.81
570 1.12
571 8.78
572 6.72
573 2.07
582 1.3
584 5.51
585 2.08
586 1.13
599 1.04
600 61.05
601 23.68
602 5.86
603 1.13
616 1.21
631 3.36
632 1.72

>  <PREDICTED SPECTRUM>  (979) 
19 22
31 84
41 30
42 263
43 500
44 490
45 389
47 1
51 102
52 8
53 8
55 14
56 94
57 110
58 205
59 68
60 267
65 59
70 16
72 4
76 24
77 287
78 133
79 49
80 14
86 57
88 40
91 8
97 6
102 28
103 8
105 451
106 91
107 69
108 35
109 16
117 16
119 5
122 31
124 24
126 24
129 2
132 32
134 117
139 28
175 13
181 33
189 62
190 15
191 55
196 21
197 11
203 19
208 3
238 6
249 17
251 17
265 12
269 62
270 7
271 31
322 8
386 63
419 1
434 56
435 3
436 68
442 15
494 16
508 151
509 42
510 127
512 163
522 141
524 345
525 139
526 87
527 0
539 4
540 580
541 385
542 245
543 92
553 0
554 140
556 175
557 161
569 4
570 41
571 149
572 184
573 87
582 134
584 209
585 130
586 173
600 999
601 494
602 321
603 42
616 115
631 114
632 111

$$$$

     RDKit          2D

 11 11  0  0  0  0  0  0  0  0999 V2000
    0.0000    3.0000    0.0000 C   0  0  0  0  0  0  0  0  0  0  0  0
    2.5989    1.5002    0.0000 C   0  0  0  0  0  0  0  0  0  0  0  0
    2.5989   -1.5002    0.0000 C   0  0  0  0  0  0  0  0  0  0  0  0
   -0.0000   -3.0000    0.0000 C   0  0  0  0  0  0  0  0  0  0  0  0
   -1.3000    0.7500    0.0000 C   0  0  0  0  0  0  0  0  0  0  0  0
    0.0000    1.5000    0.0000 C   0  0  0  0  0  0  0  0  0  0  0  0
    1.3000    0.7500    0.0000 C   0  0  0  0  0  0  0  0  0  0  0  0
    1.3000   -0.7500    0.0000 C   0  0  0  0  0  0  0  0  0  0  0  0
   -0.0000   -1.5000    0.0000 C   0  0  0  0  0  0  0  0  0  0  0  0
   -1.3000   -0.7500    0.0000 C   0  0  0  0  0  0  0  0  0  0  0  0
   -2.5989   -1.5002    0.0000 N   0  0  0  0  0  0  0  0  0  0  0  0
  6  1  1  0
  6  5  2  0
  7  2  1  0
  7  6  1  0
  8  3  1  0
  8  7  2  0
  9  4  1  0
  9  8  1  0
 10  5  1  0
 10  9  2  0
 11 10  1  0
M  END
>  <NAME>  (980) 
2,3,4,5-TETRAMETHYLANILINE

>  <SYNONYMS>  (980) 
1-AMINOPREHNITENE

>  <SPECTRUM TYPE>  (980) 
MS1

>  <INSTRUMENT TYPE>  (980) 
EI-B

>  <INSTRUMENT>  (980) 
HITACHI M-80

>  <ION MODE>  (980) 
P

>  <INCHIKEY>  (980) 
JUNBHJRQUYYYBX-UHFFFAOYSA-N

>  <FORMULA>  (980) 
C10H15N

>  <EXACT MASS>  (980) 
149.12044948

>  <MW>  (980) 
149

>  <ID>  (980) 
JP010583

>  <CONTRIBUTOR>  (980) 
University of Tokyo Team, {Faculty of Engineering, University of Tokyo

>  <COMMENT>  (980) 
SMILES=Cc(c1)c(C)c(C)c(C)c(N)1
cas=2217-45-0
InChI=InChI=1S/C10H15N/c1-6-5-10(11)9(4)8(3)7(6)2/h5H,11H2,1-4H3
computed SMILES=NC=1C=C(C(=C(C1C)C)C)C
accession=JP010583
date=2016.01.19 (Created 2008.10.21, modified 2011.05.06)
author=NARA WOMEN'S UNIVERSITY
license=CC BY-NC-SA
exact mass=149.12045
ionization energy=70 eV
ion type=[M]+*
computed spectral entropy=1.5283267026738327
computed normalized entropy=0.5791184168388808
SPLASH=splash10-0002-0900000000-b4f6a3ba374710ce2321
submitter=submitter = University of Tokyo Team (Faculty of Engineering, University of Tokyo)
MoNA Rating=3.75

>  <NUM PEAKS>  (980) 
14

>  <MASS SPECTRAL PEAKS>  (980) 
91 1.01
106 1.49
108 1.03
118 1.09
120 1.34
130 1
132 2.08
133 1.17
134 35.72
135 4
148 19.63
149 99.99
150 24.09
151 1.93

>  <PREDICTED SPECTRUM>  (980) 
27 39
28 30
39 94
40 41
41 51
42 53
50 10
51 90
52 52
53 70
54 31
63 12
64 13
65 92
66 69
67 43
77 149
78 61
79 57
80 44
81 12
89 7
91 179
92 56
93 66
94 42
102 37
103 34
105 83
106 119
107 161
108 50
115 98
116 60
117 90
118 58
119 154
120 132
121 101
122 36
130 57
131 81
132 165
133 210
134 885
135 258
136 8
146 104
147 57
148 464
149 999
150 261
151 27

$$$$

     RDKit          2D

 11 11  0  0  0  0  0  0  0  0999 V2000
    0.0000    3.0000    0.0000 C   0  0  0  0  0  0  0  0  0  0  0  0
   -2.5989   -1.5002    0.0000 C   0  0  0  0  0  0  0  0  0  0  0  0
    2.5989    1.5002    0.0000 C   0  0  0  0  0  0  0  0  0  0  0  0
   -0.0000   -3.0000    0.0000 C   0  0  0  0  0  0  0  0  0  0  0  0
   -1.3000    0.7500    0.0000 C   0  0  0  0  0  0  0  0  0  0  0  0
    0.0000    1.5000    0.0000 C   0  0  0  0  0  0  0  0  0  0  0  0
   -1.3000   -0.7500    0.0000 C   0  0  0  0  0  0  0  0  0  0  0  0
    1.3000    0.7500    0.0000 C   0  0  0  0  0  0  0  0  0  0  0  0
   -0.0000   -1.5000    0.0000 C   0  0  0  0  0  0  0  0  0  0  0  0
    1.3000   -0.7500    0.0000 C   0  0  0  0  0  0  0  0  0  0  0  0
    2.5989   -1.5002    0.0000 N   0  0  0  0  0  0  0  0  0  0  0  0
  6  1  1  0
  6  5  2  0
  7  2  1  0
  7  5  1  0
  8  3  1  0
  8  6  1  0
  9  4  1  0
  9  7  2  0
 10  8  2  0
 10  9  1  0
 11 10  1  0
M  END
>  <NAME>  (981) 
AMINODURENE

>  <SYNONYMS>  (981) 
2,3,5,6-TETRAMETHYLANILINE

>  <SPECTRUM TYPE>  (981) 
MS1

>  <INSTRUMENT TYPE>  (981) 
EI-B

>  <INSTRUMENT>  (981) 
HITACHI M-80

>  <ION MODE>  (981) 
P

>  <INCHIKEY>  (981) 
ZCZPJZYQBNOPLT-UHFFFAOYSA-N

>  <FORMULA>  (981) 
C10H15N

>  <EXACT MASS>  (981) 
149.12044948

>  <MW>  (981) 
149

>  <ID>  (981) 
JP010582

>  <CONTRIBUTOR>  (981) 
University of Tokyo Team, {Faculty of Engineering, University of Tokyo

>  <COMMENT>  (981) 
SMILES=Cc(c1)c(C)c(N)c(C)c(C)1
cas=2217-46-1
InChI=InChI=1S/C10H15N/c1-6-5-7(2)9(4)10(11)8(6)3/h5H,11H2,1-4H3
computed SMILES=NC=1C(=C(C=C(C1C)C)C)C
accession=JP010582
date=2016.01.19 (Created 2008.10.21, modified 2011.05.06)
author=NARA WOMEN'S UNIVERSITY
license=CC BY-NC-SA
exact mass=149.12045
ionization energy=70 eV
ion type=[M]+*
computed spectral entropy=2.615298871064498
computed normalized entropy=0.7042542393382184
SPLASH=splash10-000t-1900000000-ed348e8145edfbd8070d
submitter=submitter = University of Tokyo Team (Faculty of Engineering, University of Tokyo)
MoNA Rating=3.75

>  <NUM PEAKS>  (981) 
41

>  <MASS SPECTRAL PEAKS>  (981) 
28 1.96
29 1.06
39 3.67
41 2.77
42 1.71
51 2.04
53 2.12
63 1.22
65 2.77
74.5 1.14
77 4.41
78 1.63
79 2.53
80 1.06
91 7.91
92 1.39
93 2.94
94 1.47
104 1.22
105 4.57
106 3.43
107 2.86
108 1.55
115 4.57
116 2.37
117 9.55
118 3.75
119 3.02
120 6.28
121 2.04
130 1.88
131 3.26
132 4.81
133 3.67
134 71.5
135 12.16
146 1.47
147 2.2
148 24.15
149 99.99
150 14.6

>  <PREDICTED SPECTRUM>  (981) 
14 8
15 39
16 9
17 3
18 14
26 26
27 135
28 84
29 38
33 15
34 8
36 4
37 4
38 53
39 248
40 113
41 194
42 124
43 57
44 12
50 89
51 185
52 141
53 165
54 88
55 105
56 46
58 10
60 5
61 13
62 38
63 107
64 71
65 197
66 94
67 105
68 36
69 3
71 22
73 44
74 21
75 47
76 22
77 246
78 140
79 143
80 70
81 43
82 8
86 0
89 88
90 30
91 315
92 97
93 91
94 44
96 15
97 6
102 69
103 101
104 56
105 154
106 161
107 142
108 72
115 169
116 115
117 169
118 135
119 189
120 126
121 101
122 78
128 1
130 79
131 98
132 266
133 237
134 999
135 339
136 104
146 120
147 122
148 438
149 962
150 294
151 56

$$$$

     RDKit          2D

 12 13  0  0  0  0  0  0  0  0999 V2000
   -3.6089    1.5002    0.0000 C   0  0  0  0  0  0  0  0  0  0  0  0
   -3.6089   -1.5002    0.0000 C   0  0  0  0  0  0  0  0  0  0  0  0
    4.1000   -0.0000    0.0000 C   0  0  0  0  0  0  0  0  0  0  0  0
   -1.0100    1.5000    0.0000 C   0  0  0  0  0  0  0  0  0  0  0  0
   -1.0100   -1.5000    0.0000 C   0  0  0  0  0  0  0  0  0  0  0  0
   -2.3100    0.7500    0.0000 C   0  0  0  0  0  0  0  0  0  0  0  0
   -2.3100   -0.7500    0.0000 C   0  0  0  0  0  0  0  0  0  0  0  0
    2.6000    0.0000    0.0000 C   0  0  0  0  0  0  0  0  0  0  0  0
    0.2900    0.7500    0.0000 C   0  0  0  0  0  0  0  0  0  0  0  0
    0.2900   -0.7500    0.0000 C   0  0  0  0  0  0  0  0  0  0  0  0
    1.7200    1.2100    0.0000 N   0  0  0  0  0  0  0  0  0  0  0  0
    1.7200   -1.2100    0.0000 O   0  0  0  0  0  0  0  0  0  0  0  0
  6  1  1  0
  6  4  2  0
  7  2  1  0
  7  5  2  0
  7  6  1  0
  8  3  1  0
  9  4  1  0
 10  5  1  0
 10  9  2  0
 11  8  2  0
 11  9  1  0
 12  8  1  0
 12 10  1  0
M  END
>  <NAME>  (982) 
2,5,6-TRIMETHYLBENZOXAZOLE

>  <SYNONYMS>  (982) 


>  <SPECTRUM TYPE>  (982) 
MS1

>  <INSTRUMENT TYPE>  (982) 
EI-B

>  <INSTRUMENT>  (982) 
HITACHI M-80

>  <ION MODE>  (982) 
P

>  <INCHIKEY>  (982) 
PDVDINPEWGXOHX-UHFFFAOYSA-N

>  <FORMULA>  (982) 
C10H11NO

>  <EXACT MASS>  (982) 
161.084063972

>  <MW>  (982) 
161

>  <ID>  (982) 
JP010581

>  <CONTRIBUTOR>  (982) 
University of Tokyo Team, {Faculty of Engineering, University of Tokyo

>  <COMMENT>  (982) 
SMILES=Cc(n1)oc(c2)c1cc(C)c(C)2
InChI=InChI=1S/C10H11NO/c1-6-4-9-10(5-7(6)2)12-8(3)11-9/h4-5H,1-3H3
computed SMILES=N=1C=2C=C(C(=CC2OC1C)C)C
accession=JP010581
date=2016.01.19 (Created 2008.10.21, modified 2011.05.06)
author=NARA WOMEN'S UNIVERSITY
license=CC BY-NC-SA
exact mass=161.08406
ionization energy=70 eV
ion type=[M]+*
computed spectral entropy=2.813252818937254
computed normalized entropy=0.7679010456693973
SPLASH=splash10-03di-6900000000-3d50db2b6305fd414cf3
submitter=submitter = University of Tokyo Team (Faculty of Engineering, University of Tokyo)
MoNA Rating=3.75

>  <NUM PEAKS>  (982) 
39

>  <MASS SPECTRAL PEAKS>  (982) 
15 1.66
27 3.91
38 2.47
39 12.05
40 2.67
41 4.02
42 4.06
43 2.51
50 4.54
51 10.42
52 4.6
53 3.2
62 2.03
63 6.68
64 3.36
65 14.96
66 3.31
74 1.01
75 1.38
76 1.53
77 5.18
78 1.26
81 1.93
89 4.73
90 2.68
91 36.76
92 24.95
93 2.11
105 1.6
118 4.05
119 4.62
120 6.34
132 3.97
146 46.75
147 4.82
159 1.65
160 44.25
161 99.99
162 12.39

>  <PREDICTED SPECTRUM>  (982) 
14 15
15 30
26 60
27 194
28 109
29 17
37 53
38 130
39 314
40 130
41 161
42 219
43 149
44 50
50 235
51 393
52 270
53 223
54 53
57 48
61 51
62 154
63 307
64 175
65 275
66 118
67 33
74 129
75 157
76 148
77 450
78 288
79 196
80 33
86 37
89 211
90 127
91 492
92 281
93 86
99 10
101 20
102 67
103 171
104 175
105 103
106 44
107 25
116 140
117 108
118 278
119 283
120 294
121 153
122 62
131 72
132 309
133 137
134 68
145 8
146 592
147 173
159 149
160 620
161 999
162 318
163 28

$$$$

     RDKit          2D

 15 15  0  0  0  0  0  0  0  0999 V2000
    3.8981    0.7504    0.0000 C   0  0  0  0  0  0  0  0  0  0  0  0
    1.2990   -3.7500    0.0000 C   0  0  0  0  0  0  0  0  0  0  0  0
   -1.3000    0.7500    0.0000 C   0  0  0  0  0  0  0  0  0  0  0  0
   -2.5989   -1.5002    0.0000 C   0  0  0  0  0  0  0  0  0  0  0  0
    0.0000    1.5000    0.0000 C   0  0  0  0  0  0  0  0  0  0  0  0
   -3.8981   -0.7504    0.0000 C   0  0  0  0  0  0  0  0  0  0  0  0
    1.3000   -0.7500    0.0000 C   0  0  0  0  0  0  0  0  0  0  0  0
   -1.3000   -0.7500    0.0000 C   0  0  0  0  0  0  0  0  0  0  0  0
    1.3000    0.7500    0.0000 C   0  0  0  0  0  0  0  0  0  0  0  0
    0.0000   -1.5000    0.0000 C   0  0  0  0  0  0  0  0  0  0  0  0
   -5.1970   -1.5006    0.0000 C   0  0  0  0  0  0  0  0  0  0  0  0
   -5.1968   -3.0006    0.0000 O   0  0  0  0  0  0  0  0  0  0  0  0
   -6.4962   -0.7508    0.0000 O   0  0  0  0  0  0  0  0  0  0  0  0
    2.5989    1.5002    0.0000 O   0  0  0  0  0  0  0  0  0  0  0  0
   -0.0000   -3.0000    0.0000 O   0  0  0  0  0  0  0  0  0  0  0  0
  5  3  2  0
  4  6  2  0
  8  3  1  0
  8  4  1  0
  9  5  1  0
  9  7  2  0
 10  7  1  0
 10  8  2  0
 11  6  1  0
 12 11  2  0
 13 11  1  0
 14  1  1  0
 14  9  1  0
 15  2  1  0
 15 10  1  0
M  END
>  <NAME>  (983) 
2,4-DIMETHOXYCINNAMIC ACID

>  <SYNONYMS>  (983) 


>  <SPECTRUM TYPE>  (983) 
MS1

>  <INSTRUMENT TYPE>  (983) 
EI-B

>  <INSTRUMENT>  (983) 
HITACHI M-80

>  <ION MODE>  (983) 
P

>  <INCHIKEY>  (983) 
YIKHDPHTFYWYJV-GQCTYLIASA-N

>  <FORMULA>  (983) 
C11H12O4

>  <EXACT MASS>  (983) 
208.073558864

>  <MW>  (983) 
208

>  <ID>  (983) 
JP010580

>  <CONTRIBUTOR>  (983) 
University of Tokyo Team, {Faculty of Engineering, University of Tokyo

>  <COMMENT>  (983) 
SMILES=COc(c1)cc(OC)c(C=CC(O)=O)c1
cas=16909-09-4
InChI=InChI=1S/C11H12O4/c1-14-9-5-3-8(4-6-11(12)13)10(7-9)15-2/h3-7H,1-2H3,(H,12,13)/b6-4+
computed SMILES=O=C(O)C=CC1=CC=C(OC)C=C1OC
accession=JP010580
date=2016.01.19 (Created 2008.10.21, modified 2011.05.06)
author=NARA WOMEN'S UNIVERSITY
license=CC BY-NC-SA
exact mass=208.07356
ionization energy=70 eV
ion type=[M]+*
computed spectral entropy=3.6850038634000444
computed normalized entropy=0.8409359802246591
SPLASH=splash10-0a4i-6930000000-8fc9aa7a765e1a95bd58
submitter=submitter = University of Tokyo Team (Faculty of Engineering, University of Tokyo)
MoNA Rating=3.75

>  <NUM PEAKS>  (983) 
80

>  <MASS SPECTRAL PEAKS>  (983) 
15 15.26
27 2.05
28 1.17
29 3.59
31 1.74
38 2.47
39 6.63
41 1.52
43 1.15
45 10.58
50 5.22
51 12.18
52 2.84
53 3.5
55 2.47
59 1.13
61 1.55
62 7.29
63 14.75
64 3.91
65 6.22
66 3.89
69 4.82
74 3.14
75 2.92
76 4.49
77 18.67
78 7.56
79 4.9
85 1.22
86 1.35
87 2.15
88 2.52
89 10.67
90 5.79
91 9.91
92 3.7
94 2.72
95 1.7
102 1.47
103 4.73
104 2.42
105 9.76
106 2.4
107 2.33
108 1.81
109 1.83
116 1.28
117 1.81
118 3.8
119 5.29
120 2.79
121 43.17
122 4.39
124 4.24
131 2.1
132 1.81
133 19.74
134 5.02
135 4.6
137 3.55
147 4.47
148 16.18
149 33.75
150 5.93
151 1.96
161 8.57
162 5.42
163 2.76
165 1.72
176 3.61
177 28.79
178 3.3
191 10.56
192 1.57
193 1.59
207 1.54
208 99.99
209 12.6
210 1.61

>  <PREDICTED SPECTRUM>  (983) 
15 34
17 15
18 7
26 14
27 24
28 21
29 35
33 30
34 4
35 10
36 17
37 60
38 114
39 203
40 104
41 150
42 116
43 200
44 141
45 267
46 37
47 49
49 88
50 251
51 329
52 210
53 246
54 89
55 178
56 52
57 103
58 61
59 126
60 47
61 119
62 214
63 367
64 220
65 277
66 162
67 117
68 75
69 286
70 47
71 105
72 58
73 25
74 133
75 221
76 242
77 409
78 256
79 246
80 128
81 86
82 95
83 40
84 25
85 58
86 74
87 111
88 63
89 284
90 242
91 324
92 210
93 212
94 136
95 135
96 10
97 15
98 39
99 30
100 37
101 70
102 180
103 200
104 193
105 338
106 247
107 276
108 181
109 157
110 54
111 43
112 7
115 76
116 103
117 198
118 254
119 348
120 252
121 328
122 148
123 86
124 31
125 21
129 4
130 64
131 274
132 282
133 440
134 261
135 243
136 194
137 196
138 96
139 27
144 23
145 108
146 98
147 317
148 464
149 542
150 273
151 173
152 16
159 96
160 68
161 359
162 347
163 450
164 266
165 190
166 63
175 217
176 312
177 468
178 150
179 90
180 74
181 15
189 24
190 116
191 259
192 111
193 172
194 79
207 54
208 999
209 354
210 128
211 8

$$$$

     RDKit          2D

 12 12  0  0  0  0  0  0  0  0999 V2000
    3.8981   -0.7504    0.0000 C   0  0  0  0  0  0  0  0  0  0  0  0
    2.5987   -3.0002    0.0000 C   0  0  0  0  0  0  0  0  0  0  0  0
   -1.3000   -0.7500    0.0000 C   0  0  0  0  0  0  0  0  0  0  0  0
    0.0000    1.5000    0.0000 C   0  0  0  0  0  0  0  0  0  0  0  0
    0.0000   -1.5000    0.0000 C   0  0  0  0  0  0  0  0  0  0  0  0
    1.3000    0.7500    0.0000 C   0  0  0  0  0  0  0  0  0  0  0  0
   -1.3000    0.7500    0.0000 C   0  0  0  0  0  0  0  0  0  0  0  0
    1.3000   -0.7500    0.0000 C   0  0  0  0  0  0  0  0  0  0  0  0
   -2.5989    1.5002    0.0000 C   0  0  0  0  0  0  0  0  0  0  0  0
    2.5989   -1.5002    0.0000 N   0  0  0  0  0  0  0  0  0  0  0  0
   -3.8981    0.7504    0.0000 O   0  0  0  0  0  0  0  0  0  0  0  0
   -2.5987    3.0002    0.0000 O   0  0  0  0  0  0  0  0  0  0  0  0
  5  3  2  0
  6  4  1  0
  7  3  1  0
  7  4  2  0
  8  5  1  0
  8  6  2  0
  9  7  1  0
 10  1  1  0
 10  2  1  0
 10  8  1  0
 11  9  1  0
 12  9  2  0
M  END
>  <NAME>  (984) 
4-DIMETHYLAMINOBENZOIC ACID

>  <SYNONYMS>  (984) 


>  <SPECTRUM TYPE>  (984) 
MS1

>  <INSTRUMENT TYPE>  (984) 
EI-B

>  <INSTRUMENT>  (984) 
HITACHI M-80

>  <ION MODE>  (984) 
P

>  <INCHIKEY>  (984) 
YDIYEOMDOWUDTJ-UHFFFAOYSA-N

>  <FORMULA>  (984) 
C9H11NO2

>  <EXACT MASS>  (984) 
165.078978592

>  <MW>  (984) 
165

>  <ID>  (984) 
JP010579

>  <CONTRIBUTOR>  (984) 
University of Tokyo Team, {Faculty of Engineering, University of Tokyo

>  <COMMENT>  (984) 
SMILES=CN(C)c(c1)ccc(c1)C(O)=O
cas=619-84-1
InChI=InChI=1S/C9H11NO2/c1-10(2)8-5-3-7(4-6-8)9(11)12/h3-6H,1-2H3,(H,11,12)
computed SMILES=O=C(O)C1=CC=C(C=C1)N(C)C
accession=JP010579
date=2016.01.19 (Created 2008.10.21, modified 2011.05.06)
author=NARA WOMEN'S UNIVERSITY
license=CC BY-NC-SA
exact mass=165.07898
ionization energy=70 eV
ion type=[M]+*
computed spectral entropy=2.623588377599082
computed normalized entropy=0.6933025644601594
SPLASH=splash10-02t9-3900000000-2c3d138038a38784bb91
submitter=submitter = University of Tokyo Team (Faculty of Engineering, University of Tokyo)
MoNA Rating=3.75

>  <NUM PEAKS>  (984) 
44

>  <MASS SPECTRAL PEAKS>  (984) 
15 3.08
27 1.09
28 1.3
38 1.09
39 3.38
42 7.97
43 1.1
44 1.99
45 4.46
50 4.8
51 5.25
52 1.6
53 1.06
62 1.14
63 4.45
64 1.57
65 6.32
66 1.28
69 2.43
74 3.32
75 2.95
76 3.47
77 9.49
78 4.23
79 2.97
90 2
91 3.05
92 1.85
93 1.15
103 1.37
104 5.78
105 4.54
118 4.52
119 2.91
120 3.29
121 2.22
132 3.89
148 15.21
149 6.49
150 1.64
162 1.07
164 99.99
165 90.6
166 10.34

>  <PREDICTED SPECTRUM>  (984) 
14 21
15 84
16 9
17 32
18 32
26 4
27 14
28 78
29 14
30 24
33 34
34 33
36 37
37 77
38 125
39 285
40 144
41 109
42 388
43 116
44 261
45 198
46 48
49 38
50 255
51 331
52 185
53 133
54 44
55 50
56 21
59 19
60 45
61 67
62 141
63 256
64 145
65 321
66 151
67 87
68 46
69 55
73 21
74 137
75 190
76 214
77 361
78 208
79 204
80 131
81 94
82 38
85 15
86 44
87 29
88 34
89 117
90 125
91 219
92 154
93 152
94 64
95 1
102 76
103 158
104 231
105 205
106 93
107 30
108 45
109 13
116 13
117 131
118 219
119 201
120 306
121 237
122 51
131 24
132 105
133 23
134 42
135 79
136 141
137 41
146 9
147 21
148 532
149 228
150 223
151 57
162 78
163 36
164 980
165 999
166 350
167 143
168 10

$$$$

     RDKit          2D

 12 12  0  0  0  0  0  0  0  0999 V2000
    4.5420   -0.3754    0.0000 C   0  0  0  0  0  0  0  0  0  0  0  0
    3.2433    1.8748    0.0000 C   0  0  0  0  0  0  0  0  0  0  0  0
    0.6489   -2.6180    0.0000 C   0  0  0  0  0  0  0  0  0  0  0  0
   -0.6501   -1.8680    0.0000 C   0  0  0  0  0  0  0  0  0  0  0  0
    1.9435   -1.8758    0.0000 C   0  0  0  0  0  0  0  0  0  0  0  0
    0.6449    0.3750    0.0000 C   0  0  0  0  0  0  0  0  0  0  0  0
   -0.6546   -0.3758    0.0000 C   0  0  0  0  0  0  0  0  0  0  0  0
    1.9439   -0.3750    0.0000 C   0  0  0  0  0  0  0  0  0  0  0  0
   -1.9549    0.3720    0.0000 C   0  0  0  0  0  0  0  0  0  0  0  0
    3.2431    0.3748    0.0000 N   0  0  0  0  0  0  0  0  0  0  0  0
   -1.9574    1.8720    0.0000 O   0  0  0  0  0  0  0  0  0  0  0  0
   -3.2527   -0.3801    0.0000 O   0  0  0  0  0  0  0  0  0  0  0  0
  4  3  2  0
  5  3  1  0
  7  4  1  0
  7  6  2  0
  8  5  2  0
  8  6  1  0
  9  7  1  0
 10  1  1  0
 10  2  1  0
 10  8  1  0
 11  9  2  0
 12  9  1  0
M  END
>  <NAME>  (985) 
3-DIMETHYLAMINOBENZOIC ACID

>  <SYNONYMS>  (985) 


>  <SPECTRUM TYPE>  (985) 
MS1

>  <INSTRUMENT TYPE>  (985) 
EI-B

>  <INSTRUMENT>  (985) 
HITACHI M-80

>  <ION MODE>  (985) 
P

>  <INCHIKEY>  (985) 
NEGFNJRAUMCZMY-UHFFFAOYSA-N

>  <FORMULA>  (985) 
C9H11NO2

>  <EXACT MASS>  (985) 
165.078978592

>  <MW>  (985) 
165

>  <ID>  (985) 
JP010578

>  <CONTRIBUTOR>  (985) 
University of Tokyo Team, {Faculty of Engineering, University of Tokyo

>  <COMMENT>  (985) 
SMILES=CN(C)c(c1)cc(cc1)C(O)=O
cas=99-64-9
InChI=InChI=1S/C9H11NO2/c1-10(2)8-5-3-4-7(6-8)9(11)12/h3-6H,1-2H3,(H,11,12)
computed SMILES=O=C(O)C1=CC=CC(=C1)N(C)C
accession=JP010578
date=2016.01.19 (Created 2008.10.21, modified 2011.05.06)
author=NARA WOMEN'S UNIVERSITY
license=CC BY-NC-SA
exact mass=165.07898
ionization energy=70 eV
ion type=[M]+*
computed spectral entropy=2.5030579299473175
computed normalized entropy=0.6740297172066764
SPLASH=splash10-03xr-2900000000-f28cfaa2edae6f7136b1
submitter=submitter = University of Tokyo Team (Faculty of Engineering, University of Tokyo)
MoNA Rating=3.75

>  <NUM PEAKS>  (985) 
41

>  <MASS SPECTRAL PEAKS>  (985) 
15 2.11
27 1.03
38 1.05
39 3.57
42 5.88
44 1.7
45 3.6
50 3.81
51 4.26
52 1.52
63 4.22
64 1.5
65 5.79
66 1.18
73 2.84
74 2.81
75 2.54
76 2.99
77 8.14
78 3.7
79 2.44
83 2.09
90 1.38
91 2.84
92 1.5
93 1.09
103 1.14
104 5.34
105 3.57
117 1.12
118 5.05
119 1.99
120 3.31
121 2.5
132 1.07
148 6.88
149 4.95
150 1.73
164 99.99
165 79.16
166 9.16

>  <PREDICTED SPECTRUM>  (985) 
15 41
16 0
17 14
28 36
33 11
34 6
36 5
37 36
38 81
39 207
40 104
41 67
42 211
43 99
44 130
45 128
46 38
49 11
50 181
51 274
52 163
53 111
54 43
55 25
59 15
60 13
61 43
62 99
63 207
64 137
65 237
66 125
67 37
68 35
69 14
72 18
73 72
74 135
75 145
76 153
77 342
78 209
79 175
80 88
81 30
82 5
84 10
85 14
86 29
87 10
88 48
89 134
90 127
91 236
92 121
93 100
94 40
95 13
99 0
102 93
103 173
104 224
105 213
106 95
107 40
108 49
109 7
115 68
116 76
117 130
118 251
119 204
120 243
121 146
122 60
128 6
131 52
132 128
133 43
134 39
135 73
136 81
146 148
147 121
148 238
149 165
150 202
151 49
162 63
163 40
164 999
165 978
166 330
167 106

$$$$

     RDKit          2D

  7  7  0  0  0  0  0  0  0  0999 V2000
    1.7179    0.7016    0.0000 C   0  0  0  0  0  0  0  0  0  0  0  0
   -3.0958   -1.4497    0.0000 C   0  0  0  0  0  0  0  0  0  0  0  0
   -0.8541    0.0068    0.0000 C   0  0  0  0  0  0  0  0  0  0  0  0
    0.6057   -0.3049    0.0000 C   0  0  0  0  0  0  0  0  0  0  0  0
   -1.6041   -1.2923    0.0000 C   0  0  0  0  0  0  0  0  0  0  0  0
    0.7714   -1.7978    0.0000 N   0  0  0  0  0  0  0  0  0  0  0  0
   -0.6043   -2.4006    0.0000 N   0  0  0  0  0  0  0  0  0  0  0  0
  4  1  1  0
  4  3  2  0
  5  2  1  0
  5  3  1  0
  6  4  1  0
  7  5  2  0
  7  6  1  0
M  END
>  <NAME>  (986) 
3,5-DIMETHYLPYRAZOLE

>  <SYNONYMS>  (986) 


>  <SPECTRUM TYPE>  (986) 
MS1

>  <INSTRUMENT TYPE>  (986) 
EI-B

>  <INSTRUMENT>  (986) 
HITACHI M-80

>  <ION MODE>  (986) 
P

>  <INCHIKEY>  (986) 
SDXAWLJRERMRKF-UHFFFAOYSA-N

>  <FORMULA>  (986) 
C5H8N2

>  <EXACT MASS>  (986) 
96.06874825599999

>  <MW>  (986) 
96

>  <ID>  (986) 
JP010577

>  <CONTRIBUTOR>  (986) 
University of Tokyo Team, {Faculty of Engineering, University of Tokyo

>  <COMMENT>  (986) 
SMILES=CC1=CC(=NN1)C
cas=67-51-6
InChI=InChI=1S/C5H8N2/c1-4-3-5(2)7-6-4/h3H,1-2H3,(H,6,7)
computed SMILES=N=1NC(=CC1C)C
accession=JP010577
date=2016.01.19 (Created 2008.10.21, modified 2011.05.06)
author=NARA WOMEN'S UNIVERSITY
license=CC BY-NC-SA
exact mass=96.06875
ionization energy=70 eV
ion type=[M]+*
computed spectral entropy=2.5816564209974855
computed normalized entropy=0.7321022348611093
SPLASH=splash10-0002-9000000000-4482e63f4e32822406e2
submitter=submitter = University of Tokyo Team (Faculty of Engineering, University of Tokyo)
MoNA Rating=3.75

>  <NUM PEAKS>  (986) 
34

>  <MASS SPECTRAL PEAKS>  (986) 
15 2.03
26 2.56
27 5.65
28 6.19
29 3.92
30 1.22
37 1.41
38 3.28
39 16.9
40 4.68
41 11.63
42 11.17
43 1.8
50 1.44
51 3.06
52 3.41
53 2.32
54 14.58
55 4.76
56 2.57
61 1.05
62 2.18
63 3.78
65 5.19
66 2.53
67 3.64
68 4.29
69 1.69
81 17.12
94 1.05
95 66.62
96 99.99
97 29.32
98 1.55

>  <PREDICTED SPECTRUM>  (986) 
14 18
15 73
25 5
26 90
27 203
28 104
36 18
37 158
38 236
39 480
40 287
41 359
42 493
43 203
49 68
50 274
51 394
52 342
53 522
54 286
55 244
56 98
57 35
62 117
63 233
64 128
65 233
66 233
67 587
68 317
69 147
75 34
77 115
78 102
79 83
80 4
81 499
82 110
93 145
94 147
95 805
96 999
97 244

$$$$

     RDKit          2D

 11 11  0  0  0  0  0  0  0  0999 V2000
   -2.5989    1.5002    0.0000 C   0  0  0  0  0  0  0  0  0  0  0  0
    2.5989    1.5002    0.0000 C   0  0  0  0  0  0  0  0  0  0  0  0
   -0.0000    1.5000    0.0000 C   0  0  0  0  0  0  0  0  0  0  0  0
   -1.3000   -0.7500    0.0000 C   0  0  0  0  0  0  0  0  0  0  0  0
   -1.3000    0.7500    0.0000 C   0  0  0  0  0  0  0  0  0  0  0  0
    1.3000    0.7500    0.0000 C   0  0  0  0  0  0  0  0  0  0  0  0
    1.3000   -0.7500    0.0000 C   0  0  0  0  0  0  0  0  0  0  0  0
   -0.0000   -1.5000    0.0000 N   0  0  0  0  0  0  0  0  0  0  0  0
    2.5989   -1.5002    0.0000 N   0  0  0  0  0  0  0  0  0  0  0  0
    2.5987   -3.0002    0.0000 O   0  0  0  0  0  0  0  0  0  0  0  0
    3.8981   -0.7504    0.0000 O   0  0  0  0  0  0  0  0  0  0  0  0
  5  1  1  0
  5  3  2  0
  5  4  1  0
  6  2  1  0
  6  3  1  0
  7  6  2  0
  8  4  2  0
  8  7  1  0
  9  7  1  0
 10  9  1  0
 11  9  2  0
M  CHG  2   9   1  10  -1
M  END
>  <NAME>  (987) 
3,5-DIMETHYL-2-NITROPYRIDINE

>  <SYNONYMS>  (987) 


>  <SPECTRUM TYPE>  (987) 
MS1

>  <INSTRUMENT TYPE>  (987) 
EI-B

>  <INSTRUMENT>  (987) 
HITACHI M-80

>  <ION MODE>  (987) 
P

>  <INCHIKEY>  (987) 
AVLLRPYTPHITGW-UHFFFAOYSA-N

>  <FORMULA>  (987) 
C7H8N2O2

>  <EXACT MASS>  (987) 
152.058577496

>  <MW>  (987) 
152

>  <ID>  (987) 
JP010576

>  <CONTRIBUTOR>  (987) 
University of Tokyo Team, {Faculty of Engineering, University of Tokyo

>  <COMMENT>  (987) 
SMILES=Cc(c1)cc(C)c(n1)[N+1]([O-1])=O
InChI=InChI=1S/C7H8N2O2/c1-5-3-6(2)7(8-4-5)9(10)11/h3-4H,1-2H3
computed SMILES=O=N(=O)C1=NC=C(C=C1C)C
accession=JP010576
date=2016.01.19 (Created 2008.10.21, modified 2011.05.06)
author=NARA WOMEN'S UNIVERSITY
license=CC BY-NC-SA
exact mass=152.05858
ionization energy=70 eV
ion type=[M]+*
computed spectral entropy=2.630665105037026
computed normalized entropy=0.7523693453514774
SPLASH=splash10-0a6r-9600000000-64945e95cb40e39e95b8
submitter=submitter = University of Tokyo Team (Faculty of Engineering, University of Tokyo)
MoNA Rating=3.75

>  <NUM PEAKS>  (987) 
33

>  <MASS SPECTRAL PEAKS>  (987) 
27 6.93
28 3.81
30 6.49
37 1.5
38 3.61
39 16.19
40 2.1
41 3.68
46 4.67
50 3.43
51 8.91
52 6
53 8.77
54 1.53
62 1
63 3.41
64 2.9
65 3.42
66 4
67 1.01
76 1.18
77 33.63
78 7.69
79 38.61
80 4.1
94 3.39
104 2.4
105 1.09
106 99.99
107 8.88
122 5.21
152 5.6
153 2.63

>  <PREDICTED SPECTRUM>  (987) 
26 33
27 46
28 2
30 33
37 94
38 163
39 429
40 188
41 232
42 69
44 5
46 72
49 50
50 262
51 456
52 453
53 346
54 174
55 52
62 126
63 296
64 183
65 157
66 238
67 223
68 10
74 27
76 83
77 485
78 412
79 826
80 336
81 15
86 18
94 248
95 77
104 56
106 999
107 314
108 47
122 69
135 25
152 277
153 69

$$$$

     RDKit          2D

 13 13  0  0  0  0  0  0  0  0999 V2000
   -4.2229   -4.0848    0.0000 C   0  0  0  0  0  0  0  0  0  0  0  0
    0.9369    3.4549    0.0000 C   0  0  0  0  0  0  0  0  0  0  0  0
   -2.9255   -3.3321    0.0000 C   0  0  0  0  0  0  0  0  0  0  0  0
   -2.9072    2.6904    0.0000 C   0  0  0  0  0  0  0  0  0  0  0  0
   -1.6427    3.4356    0.0000 C   0  0  0  0  0  0  0  0  0  0  0  0
   -2.9373    1.2035    0.0000 C   0  0  0  0  0  0  0  0  0  0  0  0
   -0.3587    2.6991    0.0000 C   0  0  0  0  0  0  0  0  0  0  0  0
   -1.6344    0.4206    0.0000 C   0  0  0  0  0  0  0  0  0  0  0  0
   -0.3493    1.2002    0.0000 C   0  0  0  0  0  0  0  0  0  0  0  0
   -1.6312   -1.0793    0.0000 C   0  0  0  0  0  0  0  0  0  0  0  0
    0.9600    0.4683    0.0000 O   0  0  0  0  0  0  0  0  0  0  0  0
   -0.3306   -1.8266    0.0000 O   0  0  0  0  0  0  0  0  0  0  0  0
   -2.9287   -1.8321    0.0000 O   0  0  0  0  0  0  0  0  0  0  0  0
  3  1  1  0
  5  4  2  0
  6  4  1  0
  7  2  1  0
  7  5  1  0
  8  6  2  0
  9  7  2  0
  9  8  1  0
 10  8  1  0
 11  9  1  0
 12 10  2  0
 13  3  1  0
 13 10  1  0
M  END
>  <NAME>  (988) 
ETHYL 2-HYDROXY-3-METHYLBEZOATE

>  <SYNONYMS>  (988) 


>  <SPECTRUM TYPE>  (988) 
MS1

>  <INSTRUMENT TYPE>  (988) 
EI-B

>  <INSTRUMENT>  (988) 
HITACHI M-80

>  <ION MODE>  (988) 
P

>  <INCHIKEY>  (988) 
NSRLIMVWJNHWJW-UHFFFAOYSA-N

>  <FORMULA>  (988) 
C10H12O3

>  <EXACT MASS>  (988) 
180.07864424399997

>  <MW>  (988) 
180

>  <ID>  (988) 
JP010575

>  <CONTRIBUTOR>  (988) 
University of Tokyo Team, {Faculty of Engineering, University of Tokyo

>  <COMMENT>  (988) 
SMILES=CCOC(=O)c(c1)c(O)c(C)cc1
InChI=InChI=1S/C10H12O3/c1-3-13-10(12)8-6-4-5-7(2)9(8)11/h4-6,11H,3H2,1-2H3
computed SMILES=O=C(OCC)C1=CC=CC(=C1O)C
accession=JP010575
date=2016.01.19 (Created 2008.10.21, modified 2011.05.06)
author=NARA WOMEN'S UNIVERSITY
license=CC BY-NC-SA
exact mass=180.07864
ionization energy=70 eV
ion type=[M]+*
computed spectral entropy=2.915171843460558
computed normalized entropy=0.795720701612945
SPLASH=splash10-0560-7900000000-57aad0fad918826219d3
submitter=submitter = University of Tokyo Team (Faculty of Engineering, University of Tokyo)
MoNA Rating=3.75

>  <NUM PEAKS>  (988) 
39

>  <MASS SPECTRAL PEAKS>  (988) 
15 2.54
17 3.3
18 15.54
26 3.2
27 20.35
28 22.8
29 15.17
31 1.6
32 4.99
38 2.17
39 12.06
41 2.45
43 2.49
45 1.32
50 5.84
51 18.18
52 9.8
53 9.61
55 2.17
62 1.22
63 4.33
65 1.51
66 1.04
67 1.22
74 1.13
75 1.13
76 1.98
77 33.63
78 22.8
79 6.88
105 19.22
106 78
107 7.82
133 4.71
134 99.99
135 28.17
136 2.26
180 36.74
181 3.77

>  <PREDICTED SPECTRUM>  (988) 
14 16
15 39
17 8
18 15
25 2
26 74
27 138
28 78
29 234
31 43
32 7
37 23
38 72
39 236
40 38
41 58
43 42
44 44
45 119
49 41
50 164
51 285
52 185
53 221
54 8
58 13
62 74
63 162
64 103
65 136
66 87
67 25
69 2
74 76
75 98
76 89
77 427
78 359
79 309
80 38
89 55
90 11
91 159
92 52
93 21
105 317
106 728
107 250
108 76
123 29
133 67
134 999
135 490
136 110
180 514
181 176
182 29

$$$$

     RDKit          2D

 10 10  0  0  0  0  0  0  0  0999 V2000
   -3.8981   -0.7504    0.0000 C   0  0  0  0  0  0  0  0  0  0  0  0
   -1.3000    0.7500    0.0000 C   0  0  0  0  0  0  0  0  0  0  0  0
    0.0000    1.5000    0.0000 C   0  0  0  0  0  0  0  0  0  0  0  0
   -0.0000   -1.5000    0.0000 C   0  0  0  0  0  0  0  0  0  0  0  0
   -1.3000   -0.7500    0.0000 C   0  0  0  0  0  0  0  0  0  0  0  0
    1.3000    0.7500    0.0000 C   0  0  0  0  0  0  0  0  0  0  0  0
    1.3000   -0.7500    0.0000 C   0  0  0  0  0  0  0  0  0  0  0  0
    2.5989    1.5002    0.0000 N   0  0  0  0  0  0  0  0  0  0  0  0
    2.5989   -1.5002    0.0000 N   0  0  0  0  0  0  0  0  0  0  0  0
   -2.5989   -1.5002    0.0000 O   0  0  0  0  0  0  0  0  0  0  0  0
  3  2  2  0
  5  2  1  0
  5  4  2  0
  6  3  1  0
  7  4  1  0
  7  6  2  0
  8  6  1  0
  9  7  1  0
 10  1  1  0
 10  5  1  0
M  END
>  <NAME>  (989) 
4-METHOXY-1,2-PHENYLENEDIAMINE

>  <SYNONYMS>  (989) 
3,4-DIAMINOANISOLE

>  <SPECTRUM TYPE>  (989) 
MS1

>  <INSTRUMENT TYPE>  (989) 
EI-B

>  <INSTRUMENT>  (989) 
HITACHI M-80

>  <ION MODE>  (989) 
P

>  <INCHIKEY>  (989) 
AGAHETWGCFCMDK-UHFFFAOYSA-N

>  <FORMULA>  (989) 
C7H10N2O

>  <EXACT MASS>  (989) 
138.07931294

>  <MW>  (989) 
138

>  <ID>  (989) 
JP010574

>  <CONTRIBUTOR>  (989) 
University of Tokyo Team, {Faculty of Engineering, University of Tokyo

>  <COMMENT>  (989) 
SMILES=COc(c1)cc(N)c(N)c1
InChI=InChI=1S/C7H10N2O/c1-10-5-2-3-6(8)7(9)4-5/h2-4H,8-9H2,1H3
computed SMILES=O(C1=CC=C(N)C(N)=C1)C
accession=JP010574
date=2016.01.19 (Created 2008.10.21, modified 2011.05.06)
author=NARA WOMEN'S UNIVERSITY
license=CC BY-NC-SA
exact mass=138.07931
ionization energy=70 eV
ion type=[M]+*
computed spectral entropy=2.5997502254674267
computed normalized entropy=0.7199693508301511
SPLASH=splash10-007a-7900000000-7ab3b715df656b509f7d
submitter=submitter = University of Tokyo Team (Faculty of Engineering, University of Tokyo)
MoNA Rating=3.75

>  <NUM PEAKS>  (989) 
37

>  <MASS SPECTRAL PEAKS>  (989) 
14 1.12
15 7.7
18 2.03
27 1.89
28 15.12
29 2.01
32 1.3
38 1.44
39 3.68
40 2.61
41 8.18
42 3
43 1.22
50 1.69
52 9.1
53 6.09
54 4.59
66 1.62
67 6.14
68 6.49
69 1.9
76 1.11
78 8.4
79 2.02
80 3.7
81 1.02
94 3.5
95 50.82
96 6.5
106 1.23
107 1.22
110 7.18
123 65.52
124 5.3
137 2.41
138 99.99
139 9.58

>  <PREDICTED SPECTRUM>  (989) 
26 2
28 11
33 9
34 5
36 6
37 48
38 110
39 220
40 176
41 376
42 305
43 140
44 107
46 14
49 66
50 159
51 260
52 427
53 382
54 316
55 188
56 52
57 32
61 70
62 116
63 176
64 96
65 201
66 246
67 298
68 340
69 233
70 58
71 48
72 48
75 78
76 110
77 165
78 227
79 182
80 241
81 110
82 68
83 9
90 38
91 12
92 62
93 208
94 209
95 773
96 260
97 62
104 0
105 101
106 157
107 246
108 104
109 157
110 25
120 59
121 117
122 100
123 878
124 236
125 57
135 30
136 26
137 221
138 999
139 293
140 54

$$$$

     RDKit          2D

 16 17  0  0  0  0  0  0  0  0999 V2000
    3.2481    2.1950    0.0000 C   0  0  0  0  0  0  0  0  0  0  0  0
   -7.1442    2.1950    0.0000 C   0  0  0  0  0  0  0  0  0  0  0  0
    1.9486    1.4442    0.0000 C   0  0  0  0  0  0  0  0  0  0  0  0
    3.2486    3.6958    0.0000 C   0  0  0  0  0  0  0  0  0  0  0  0
   -7.1447    3.6958    0.0000 C   0  0  0  0  0  0  0  0  0  0  0  0
   -5.8447    1.4442    0.0000 C   0  0  0  0  0  0  0  0  0  0  0  0
    0.6495    2.1942    0.0000 C   0  0  0  0  0  0  0  0  0  0  0  0
    1.9495    4.4458    0.0000 C   0  0  0  0  0  0  0  0  0  0  0  0
   -5.8457    4.4458    0.0000 C   0  0  0  0  0  0  0  0  0  0  0  0
   -4.5457    2.1942    0.0000 C   0  0  0  0  0  0  0  0  0  0  0  0
    0.6500    3.6950    0.0000 C   0  0  0  0  0  0  0  0  0  0  0  0
   -4.5462    3.6950    0.0000 C   0  0  0  0  0  0  0  0  0  0  0  0
   -1.9481    3.6950    0.0000 C   0  0  0  0  0  0  0  0  0  0  0  0
   -0.6490    4.4450    0.0000 N   0  0  0  0  0  0  0  0  0  0  0  0
   -3.2471    4.4450    0.0000 N   0  0  0  0  0  0  0  0  0  0  0  0
   -1.9481    2.1950    0.0000 O   0  0  0  0  0  0  0  0  0  0  0  0
  3  1  1  0
  4  1  1  0
  5  2  1  0
  6  2  1  0
  7  3  1  0
  8  4  1  0
  9  5  1  0
 10  6  1  0
 11  7  1  0
 11  8  1  0
 12  9  1  0
 12 10  1  0
 14 11  1  0
 14 13  2  3
 15 12  1  0
 15 13  1  0
 16 13  1  0
M  END
>  <NAME>  (990) 
1,3-DICYCLOHEXYLUREA

>  <SYNONYMS>  (990) 


>  <SPECTRUM TYPE>  (990) 
MS1

>  <INSTRUMENT TYPE>  (990) 
EI-B

>  <INSTRUMENT>  (990) 
HITACHI M-80

>  <ION MODE>  (990) 
P

>  <INCHIKEY>  (990) 
ADFXKUOMJKEIND-UHFFFAOYSA-N

>  <FORMULA>  (990) 
C13H24N2O

>  <EXACT MASS>  (990) 
224.18886338800002

>  <MW>  (990) 
224

>  <ID>  (990) 
JP010572

>  <CONTRIBUTOR>  (990) 
University of Tokyo Team, {Faculty of Engineering, University of Tokyo

>  <COMMENT>  (990) 
SMILES=O=C(NC(C2)CCCC2)NC(C1)CCCC1
cas=2387-23-7
InChI=InChI=1S/C13H24N2O/c16-13(14-11-7-3-1-4-8-11)15-12-9-5-2-6-10-12/h11-12H,1-10H2,(H2,14,15,16)
computed SMILES=OC(=NC1CCCCC1)NC2CCCCC2
accession=JP010572
date=2016.01.19 (Created 2008.10.21, modified 2011.05.06)
author=NARA WOMEN'S UNIVERSITY
license=CC BY-NC-SA
exact mass=224.18886
ionization energy=70 eV
ion type=[M]+*
computed spectral entropy=2.923988105185773
computed normalized entropy=0.815954416706813
SPLASH=splash10-0a4i-9000000000-9d4c20d440ea04067a28
submitter=submitter = University of Tokyo Team (Faculty of Engineering, University of Tokyo)
MoNA Rating=3.75

>  <NUM PEAKS>  (990) 
36

>  <MASS SPECTRAL PEAKS>  (990) 
18 2.93
27 6.18
28 14.13
29 6.77
30 7.61
39 7.02
40 1.17
41 23.49
42 5.18
43 19.06
44 3.68
53 3.34
54 4.76
55 22.9
56 99.99
57 6.35
61 22.82
67 4.43
68 1.25
69 2.42
70 11.12
71 1.09
79 1.34
81 3.68
82 3.84
83 6.94
84 1
85 1.76
98 16.72
99 28
100 5.93
142 2.34
143 17.3
144 1.42
224 19.56
225 3.43

>  <PREDICTED SPECTRUM>  (990) 
14 14
15 54
16 25
17 42
18 51
26 52
27 137
28 221
29 127
30 243
31 90
32 21
33 40
34 61
35 4
37 23
38 64
39 423
40 198
41 762
42 416
43 652
44 424
45 255
46 177
47 67
48 79
49 12
50 93
51 196
52 184
53 389
54 442
55 999
56 859
57 336
58 151
59 174
60 360
61 272
62 102
63 111
64 155
65 205
66 179
67 470
68 246
69 489
70 461
71 263
72 203
73 131
74 0
75 32
76 70
77 271
78 149
79 254
80 171
81 433
82 424
83 774
84 362
85 208
86 148
87 182
88 102
89 124
90 41
91 102
92 106
93 124
94 147
95 98
96 413
97 245
98 965
99 485
100 308
101 160
102 55
103 7
104 44
105 4
106 47
107 85
108 208
109 231
110 228
111 115
112 34
113 139
114 111
115 53
116 19
117 46
118 21
119 20
122 31
123 41
124 139
125 258
126 602
127 411
128 159
129 76
130 13
131 16
132 74
135 2
136 53
138 72
139 127
141 320
142 469
143 704
144 228
145 142
149 14
150 38
152 86
153 184
154 81
155 43
164 24
167 90
168 52
169 64
179 80
180 29
181 259
182 145
183 3
195 109
207 112
208 25
209 111
210 4
223 243
224 682
225 293
226 72
227 4

$$$$

     RDKit          2D

 14 14  0  0  0  0  0  0  0  0999 V2000
    0.0000    3.0000    0.0000 C   0  0  0  0  0  0  0  0  0  0  0  0
   -0.0000   -3.0000    0.0000 C   0  0  0  0  0  0  0  0  0  0  0  0
    3.8976    3.7504    0.0000 C   0  0  0  0  0  0  0  0  0  0  0  0
   -1.3000    0.7500    0.0000 C   0  0  0  0  0  0  0  0  0  0  0  0
    0.0000    1.5000    0.0000 C   0  0  0  0  0  0  0  0  0  0  0  0
   -0.0000   -1.5000    0.0000 C   0  0  0  0  0  0  0  0  0  0  0  0
   -1.3000   -0.7500    0.0000 C   0  0  0  0  0  0  0  0  0  0  0  0
    1.3000    0.7500    0.0000 C   0  0  0  0  0  0  0  0  0  0  0  0
    1.3000   -0.7500    0.0000 C   0  0  0  0  0  0  0  0  0  0  0  0
    2.5989    1.5002    0.0000 C   0  0  0  0  0  0  0  0  0  0  0  0
   -2.5989   -1.5002    0.0000 O   0  0  0  0  0  0  0  0  0  0  0  0
    2.5989   -1.5002    0.0000 O   0  0  0  0  0  0  0  0  0  0  0  0
    3.8981    0.7504    0.0000 O   0  0  0  0  0  0  0  0  0  0  0  0
    2.5987    3.0002    0.0000 O   0  0  0  0  0  0  0  0  0  0  0  0
  5  1  1  0
  5  4  2  0
  6  2  1  0
  7  4  1  0
  7  6  2  0
  8  5  1  0
  9  6  1  0
  9  8  2  0
 10  8  1  0
 11  7  1  0
 12  9  1  0
 13 10  2  0
 14  3  1  0
 14 10  1  0
M  END
>  <NAME>  (991) 
METHYL 2,4-DIHYDROXY-3,6-DIMETHYLBENZOATE

>  <SYNONYMS>  (991) 


>  <SPECTRUM TYPE>  (991) 
MS1

>  <INSTRUMENT TYPE>  (991) 
EI-B

>  <INSTRUMENT>  (991) 
HITACHI M-80

>  <ION MODE>  (991) 
P

>  <INCHIKEY>  (991) 
UUQHKWMIDYRWHH-UHFFFAOYSA-N

>  <FORMULA>  (991) 
C10H12O4

>  <EXACT MASS>  (991) 
196.073558864

>  <MW>  (991) 
196

>  <ID>  (991) 
JP010571

>  <CONTRIBUTOR>  (991) 
University of Tokyo Team, {Faculty of Engineering, University of Tokyo

>  <COMMENT>  (991) 
SMILES=COC(=O)c(c(C)1)c(O)c(C)c(O)c1
cas=4707-47-5
InChI=InChI=1S/C10H12O4/c1-5-4-7(11)6(2)9(12)8(5)10(13)14-3/h4,11-12H,1-3H3
computed SMILES=O=C(OC)C1=C(O)C(=C(O)C=C1C)C
accession=JP010571
date=2016.01.19 (Created 2008.10.21, modified 2011.05.06)
author=NARA WOMEN'S UNIVERSITY
license=CC BY-NC-SA
exact mass=196.07356
ionization energy=70 eV
ion type=[M]+*
computed spectral entropy=3.037576837538599
computed normalized entropy=0.768764736848262
SPLASH=splash10-01p9-4900000000-95a3696628094361840d
submitter=submitter = University of Tokyo Team (Faculty of Engineering, University of Tokyo)
MoNA Rating=3.75

>  <NUM PEAKS>  (991) 
52

>  <MASS SPECTRAL PEAKS>  (991) 
15 5.71
18 1.69
27 5.9
28 1.58
29 3.27
31 2.15
38 1.37
39 9.85
40 1.48
41 4.12
43 4.73
50 2.52
51 6.29
52 4.18
53 10.39
54 1.17
55 7.18
62 1.16
63 3.94
64 1.27
65 5.56
66 2.75
67 6.93
68 1.07
69 2.57
77 13.77
78 4.3
79 14.4
80 5.37
81 2.82
83 5.93
89 1.57
90 2.66
91 3.64
93 1.4
94 1.01
106 1.09
107 16.65
108 10.2
109 5.15
121 2.21
135 14.06
136 99.99
137 9.79
162 1.1
163 8.07
164 94.26
165 26.51
166 2.86
167 1.03
196 43.99
197 5.41

>  <PREDICTED SPECTRUM>  (991) 
14 10
15 57
26 20
27 122
28 66
29 77
31 57
32 36
33 55
34 0
37 71
38 156
39 381
40 179
41 393
42 203
43 301
44 152
45 218
49 57
50 249
51 401
52 315
53 414
54 195
55 294
56 40
57 66
59 170
60 9
61 105
62 145
63 338
64 222
65 488
66 313
67 290
68 136
69 276
70 10
71 58
74 88
75 118
76 96
77 442
78 253
79 332
80 203
81 235
82 177
83 173
84 62
87 24
89 38
90 72
91 312
92 197
93 318
94 121
95 211
96 126
97 41
104 1
105 2
106 17
107 306
108 242
109 139
118 8
119 139
120 97
121 273
122 176
123 74
134 4
135 303
136 857
137 368
138 91
147 24
163 47
164 999
165 425
166 63
196 497
197 142
198 2

$$$$

     RDKit          2D

 17 17  0  0  0  0  0  0  0  0999 V2000
   -3.3491   -0.2013    0.0000 C   0  0  0  0  0  0  0  0  0  0  0  0
   -3.8978   -2.2504    0.0000 C   0  0  0  0  0  0  0  0  0  0  0  0
   -1.8487   -2.7991    0.0000 C   0  0  0  0  0  0  0  0  0  0  0  0
    1.8487   -2.7991    0.0000 C   0  0  0  0  0  0  0  0  0  0  0  0
    3.8978   -2.2504    0.0000 C   0  0  0  0  0  0  0  0  0  0  0  0
    3.3491   -0.2013    0.0000 C   0  0  0  0  0  0  0  0  0  0  0  0
   -1.3000    0.7500    0.0000 C   0  0  0  0  0  0  0  0  0  0  0  0
    1.3000    0.7500    0.0000 C   0  0  0  0  0  0  0  0  0  0  0  0
    0.0000    3.0000    0.0000 C   0  0  0  0  0  0  0  0  0  0  0  0
    0.0000    1.5000    0.0000 C   0  0  0  0  0  0  0  0  0  0  0  0
   -1.3000   -0.7500    0.0000 C   0  0  0  0  0  0  0  0  0  0  0  0
    1.3000   -0.7500    0.0000 C   0  0  0  0  0  0  0  0  0  0  0  0
    0.0000   -1.5000    0.0000 C   0  0  0  0  0  0  0  0  0  0  0  0
   -2.5989   -1.5002    0.0000 C   0  0  0  0  0  0  0  0  0  0  0  0
    2.5989   -1.5002    0.0000 C   0  0  0  0  0  0  0  0  0  0  0  0
    0.0000    4.5000    0.0000 N   0  0  0  0  0  0  0  0  0  0  0  0
   -0.0000   -3.0000    0.0000 O   0  0  0  0  0  0  0  0  0  0  0  0
 10  7  2  0
 10  8  1  0
 10  9  1  0
 11  7  1  0
 12  8  2  0
 13 11  2  0
 13 12  1  0
 14  1  1  0
 14  2  1  0
 14  3  1  0
 14 11  1  0
 15  4  1  0
 15  5  1  0
 15  6  1  0
 15 12  1  0
 16  9  3  0
 17 13  1  0
M  END
>  <NAME>  (992) 
3,5-DI-TERT-BUTYL-4-HYDROXYBENZONITRILE

>  <SYNONYMS>  (992) 


>  <SPECTRUM TYPE>  (992) 
MS1

>  <INSTRUMENT TYPE>  (992) 
EI-B

>  <INSTRUMENT>  (992) 
HITACHI M-80

>  <ION MODE>  (992) 
P

>  <INCHIKEY>  (992) 
AKXIIOLURNATOC-UHFFFAOYSA-N

>  <FORMULA>  (992) 
C15H21NO

>  <EXACT MASS>  (992) 
231.162314292

>  <MW>  (992) 
231

>  <ID>  (992) 
JP010570

>  <CONTRIBUTOR>  (992) 
University of Tokyo Team, {Faculty of Engineering, University of Tokyo

>  <COMMENT>  (992) 
SMILES=N#Cc(c1)cc(C(C)(C)C)c(O)c1C(C)(C)C
InChI=InChI=1S/C15H21NO/c1-14(2,3)11-7-10(9-16)8-12(13(11)17)15(4,5)6/h7-8,17H,1-6H3
computed SMILES=N#CC=1C=C(C(O)=C(C1)C(C)(C)C)C(C)(C)C
accession=JP010570
date=2016.01.19 (Created 2008.10.21, modified 2011.05.06)
author=NARA WOMEN'S UNIVERSITY
license=CC BY-NC-SA
exact mass=231.16231
ionization energy=70 eV
ion type=[M]+*
computed spectral entropy=2.9949822922089386
computed normalized entropy=0.750813304151599
SPLASH=splash10-014i-4590000000-ededd1da082ab842d9ef
submitter=submitter = University of Tokyo Team (Faculty of Engineering, University of Tokyo)
MoNA Rating=3.75

>  <NUM PEAKS>  (992) 
54

>  <MASS SPECTRAL PEAKS>  (992) 
15 2.23
18 2.19
27 3.71
28 2.85
29 7.32
39 5.8
41 13.54
43 1.71
51 2.04
53 1.66
55 3.28
57 11.64
63 1.52
65 1.52
77 3.09
85.5 1.56
86.5 2.52
89 1.66
91 1.95
100.5 1.38
102 1.09
103 1.71
104 1.09
115 3.61
116 4.37
117 1.43
127 1.81
128 2.19
129 1.38
130 2.47
132 1.47
140 2.76
141 1.47
142 1.71
144 3.09
146 1.62
153 1.38
154 1.09
156 5.56
157 1.09
158 2.71
160 4.32
172 7.41
173 1.24
174 1.24
186 1.14
188 20.57
189 2.95
200 3.81
216 99.99
217 15.73
218 1.33
231 22
232 4.13

>  <PREDICTED SPECTRUM>  (992) 
15 28
26 12
27 119
28 28
29 177
30 24
33 18
34 19
36 22
37 7
38 32
39 259
40 120
41 445
42 130
43 227
44 113
45 28
46 2
47 3
50 68
51 185
52 119
53 187
54 74
55 219
56 65
57 537
58 137
59 52
61 14
62 67
63 146
64 126
65 204
66 118
67 148
68 82
69 106
70 104
71 114
72 74
73 44
74 53
75 82
76 107
77 287
78 165
79 170
80 92
81 123
82 66
83 58
84 91
85 74
86 91
87 105
88 81
89 151
90 83
91 230
92 105
93 94
94 73
95 59
96 81
97 71
98 62
99 56
100 69
101 90
102 133
103 159
104 177
105 224
106 96
107 80
108 94
109 78
110 106
111 50
112 38
113 60
114 90
115 214
116 172
117 186
118 138
119 111
120 81
121 57
122 54
123 44
124 34
125 53
126 94
127 163
128 220
129 194
130 195
131 141
132 163
133 136
134 73
135 50
136 16
137 16
138 49
139 67
140 65
141 167
142 171
143 139
144 210
145 165
146 170
147 127
148 74
149 68
150 49
151 40
152 97
153 87
154 135
155 140
156 196
157 141
158 222
159 123
160 187
161 90
162 71
163 28
165 36
166 88
167 54
168 93
169 94
170 124
171 115
172 195
173 152
174 204
175 139
176 91
182 43
183 73
184 107
185 86
186 156
187 107
188 385
189 227
190 81
191 12
198 33
199 47
200 204
201 196
202 82
203 84
204 45
205 26
212 3
213 7
214 112
215 31
216 999
217 435
218 149
219 50
229 30
230 39
231 604
232 248
233 86

$$$$

     RDKit          2D

 17 17  0  0  0  0  0  0  0  0999 V2000
   -3.3491   -0.2013    0.0000 C   0  0  0  0  0  0  0  0  0  0  0  0
   -3.8978   -2.2504    0.0000 C   0  0  0  0  0  0  0  0  0  0  0  0
   -1.8487   -2.7991    0.0000 C   0  0  0  0  0  0  0  0  0  0  0  0
    1.8487   -2.7991    0.0000 C   0  0  0  0  0  0  0  0  0  0  0  0
    3.8978   -2.2504    0.0000 C   0  0  0  0  0  0  0  0  0  0  0  0
    3.3491   -0.2013    0.0000 C   0  0  0  0  0  0  0  0  0  0  0  0
   -1.3000    0.7500    0.0000 C   0  0  0  0  0  0  0  0  0  0  0  0
    1.3000    0.7500    0.0000 C   0  0  0  0  0  0  0  0  0  0  0  0
    0.0000    3.0000    0.0000 C   0  0  0  0  0  0  0  0  0  0  0  0
    0.0000    1.5000    0.0000 C   0  0  0  0  0  0  0  0  0  0  0  0
   -1.3000   -0.7500    0.0000 C   0  0  0  0  0  0  0  0  0  0  0  0
    1.3000   -0.7500    0.0000 C   0  0  0  0  0  0  0  0  0  0  0  0
    0.0000   -1.5000    0.0000 C   0  0  0  0  0  0  0  0  0  0  0  0
   -2.5989   -1.5002    0.0000 C   0  0  0  0  0  0  0  0  0  0  0  0
    2.5989   -1.5002    0.0000 C   0  0  0  0  0  0  0  0  0  0  0  0
   -1.2990    3.7500    0.0000 O   0  0  0  0  0  0  0  0  0  0  0  0
   -0.0000   -3.0000    0.0000 O   0  0  0  0  0  0  0  0  0  0  0  0
 10  7  2  0
 10  8  1  0
 10  9  1  0
 11  7  1  0
 12  8  2  0
 13 11  2  0
 13 12  1  0
 14  1  1  0
 14  2  1  0
 14  3  1  0
 14 11  1  0
 15  4  1  0
 15  5  1  0
 15  6  1  0
 15 12  1  0
 16  9  2  0
 17 13  1  0
M  END
>  <NAME>  (993) 
3,5-DI-TERT-BUTYL-4-HYDROXYBENZALDEHYDE

>  <SYNONYMS>  (993) 


>  <SPECTRUM TYPE>  (993) 
MS1

>  <INSTRUMENT TYPE>  (993) 
EI-B

>  <INSTRUMENT>  (993) 
HITACHI M-80

>  <ION MODE>  (993) 
P

>  <INCHIKEY>  (993) 
DOZRDZLFLOODMB-UHFFFAOYSA-N

>  <FORMULA>  (993) 
C15H22O2

>  <EXACT MASS>  (993) 
234.161979944

>  <MW>  (993) 
234

>  <ID>  (993) 
JP010569

>  <CONTRIBUTOR>  (993) 
University of Tokyo Team, {Faculty of Engineering, University of Tokyo

>  <COMMENT>  (993) 
SMILES=O=Cc(c1)cc(C(C)(C)C)c(O)c1C(C)(C)C
cas=1620-98-0
InChI=InChI=1S/C15H22O2/c1-14(2,3)11-7-10(9-16)8-12(13(11)17)15(4,5)6/h7-9,17H,1-6H3
computed SMILES=O=CC=1C=C(C(O)=C(C1)C(C)(C)C)C(C)(C)C
accession=JP010569
date=2016.01.19 (Created 2008.10.21, modified 2011.05.06)
author=NARA WOMEN'S UNIVERSITY
license=CC BY-NC-SA
exact mass=234.16198
ionization energy=70 eV
ion type=[M]+*
computed spectral entropy=2.9859249428237096
computed normalized entropy=0.7556924238264184
SPLASH=splash10-014i-5390000000-70d0b568a8a86316d7ec
submitter=submitter = University of Tokyo Team (Faculty of Engineering, University of Tokyo)
MoNA Rating=3.75

>  <NUM PEAKS>  (993) 
52

>  <MASS SPECTRAL PEAKS>  (993) 
15 1.95
27 3.89
28 1.01
29 9.37
39 5.72
41 13.03
43 1.79
51 2.76
53 2.57
55 4.9
57 18.67
63 1.75
65 2.53
74 1.01
77 4.82
78 1.75
79 2.33
87 1.44
88 3.31
89 1.01
91 8.83
102 2.1
103 1.79
105 2.88
107 1.87
115 6.07
116 2.41
117 2.88
119 2.14
127 1.13
128 1.38
129 2.37
131 3.7
133 1.24
141 1.63
142 1.13
145 1.28
147 1.95
159 5.02
161 1.52
163 1.05
175 4.75
189 1.09
191 13.73
192 1.79
203 3.85
205 1.01
219 99.99
220 15.48
221 1.52
234 31
235 6.26

>  <PREDICTED SPECTRUM>  (993) 
15 14
27 50
29 138
33 7
34 4
38 7
39 195
40 76
41 405
42 94
43 268
44 81
45 64
47 38
49 8
50 63
51 179
52 98
53 196
54 45
55 267
56 64
57 483
58 122
59 64
60 16
61 7
62 49
63 147
64 87
65 201
66 109
67 189
68 65
69 178
70 72
71 87
72 26
73 35
74 57
75 97
76 63
77 327
78 158
79 219
80 70
81 146
82 59
83 133
84 55
85 52
86 39
87 88
88 25
89 120
90 69
91 347
92 114
93 153
94 61
95 126
96 81
97 79
98 21
99 26
100 2
101 60
102 81
103 174
104 66
105 195
106 75
107 153
108 52
109 107
110 37
111 53
113 40
114 5
115 259
116 155
117 196
118 83
119 136
120 59
121 115
122 69
123 58
124 3
125 13
126 16
127 132
128 219
129 230
130 94
131 222
132 77
133 190
134 60
135 162
136 68
137 55
139 0
141 140
142 83
143 141
144 122
145 157
146 66
147 130
148 78
149 116
150 47
151 40
152 78
153 83
154 39
155 90
156 70
157 98
158 87
159 148
160 103
161 181
162 57
163 203
164 71
165 63
167 0
169 47
170 32
171 57
172 15
173 107
174 77
175 161
176 114
177 214
178 120
179 111
185 39
186 55
187 86
188 49
189 109
190 83
191 400
192 193
193 86
194 18
201 24
202 38
203 130
204 89
205 96
206 36
207 15
215 9
216 2
217 95
218 34
219 999
220 410
221 172
222 50
232 23
233 163
234 802
235 329
236 126
237 20

$$$$

     RDKit          2D

 13 13  0  0  0  0  0  0  0  0999 V2000
    5.1970    3.0000    0.0000 C   0  0  0  0  0  0  0  0  0  0  0  0
   -5.1970    3.0000    0.0000 C   0  0  0  0  0  0  0  0  0  0  0  0
    3.8981    2.2498    0.0000 C   0  0  0  0  0  0  0  0  0  0  0  0
   -3.8981    2.2498    0.0000 C   0  0  0  0  0  0  0  0  0  0  0  0
    1.3000    2.2494    0.0000 C   0  0  0  0  0  0  0  0  0  0  0  0
   -1.3000    2.2494    0.0000 C   0  0  0  0  0  0  0  0  0  0  0  0
   -0.0000   -0.0006    0.0000 C   0  0  0  0  0  0  0  0  0  0  0  0
    2.5989    2.9996    0.0000 N   0  0  0  0  0  0  0  0  0  0  0  0
   -2.5989    2.9996    0.0000 N   0  0  0  0  0  0  0  0  0  0  0  0
   -0.0000    2.9994    0.0000 N   0  0  0  0  0  0  0  0  0  0  0  0
    1.3000    0.7494    0.0000 N   0  0  0  0  0  0  0  0  0  0  0  0
   -1.3000    0.7494    0.0000 N   0  0  0  0  0  0  0  0  0  0  0  0
   -0.0000   -1.5006    0.0000 O   0  0  0  0  0  0  0  0  0  0  0  0
  3  1  1  0
  4  2  1  0
  8  3  1  0
  8  5  2  3
  9  4  1  0
  9  6  2  3
 10  5  1  0
 10  6  1  0
 11  5  1  0
 11  7  2  0
 12  6  1  0
 12  7  1  0
 13  7  1  0
M  END
>  <NAME>  (994) 
4,6-BIS(ETHYLAMINO)-1,3,5-TRIAZIN-2(1H)-ONE

>  <SYNONYMS>  (994) 


>  <SPECTRUM TYPE>  (994) 
MS1

>  <INSTRUMENT TYPE>  (994) 
EI-B

>  <INSTRUMENT>  (994) 
HITACHI M-80

>  <ION MODE>  (994) 
P

>  <INCHIKEY>  (994) 
YQIXRXMOJFQVBV-UHFFFAOYSA-N

>  <FORMULA>  (994) 
C7H13N5O

>  <EXACT MASS>  (994) 
183.11201003600002

>  <MW>  (994) 
183

>  <ID>  (994) 
JP010568

>  <CONTRIBUTOR>  (994) 
University of Tokyo Team, {Faculty of Engineering, University of Tokyo

>  <COMMENT>  (994) 
SMILES=CCNC(N1)=NC(NCC)=NC(=O)1
cas=2599-11-3
InChI=InChI=1S/C7H13N5O/c1-3-8-5-10-6(9-4-2)12-7(13)11-5/h3-4H2,1-2H3,(H3,8,9,10,11,12,13)
computed SMILES=OC1=NC(=NCC)NC(=NCC)N1
accession=JP010568
date=2016.01.19 (Created 2008.10.21, modified 2011.05.06)
author=NARA WOMEN'S UNIVERSITY
license=CC BY-NC-SA
exact mass=183.11201
ionization energy=70 eV
ion type=[M]+*
computed spectral entropy=2.9083944681009837
computed normalized entropy=0.8054446371978606
SPLASH=splash10-053u-4900000000-294eae92d1aa0b55ca45
submitter=submitter = University of Tokyo Team (Faculty of Engineering, University of Tokyo)
MoNA Rating=3.75

>  <NUM PEAKS>  (994) 
37

>  <MASS SPECTRAL PEAKS>  (994) 
15 2.12
18 1.6
27 6.79
28 11.72
29 8.19
30 6.91
44 39.7
45 1.19
50 7.5
56 1.33
58 1.32
59 1.4
67 1.12
69 19.5
70 7.4
71 9.28
83 1
84 4.41
85 5.71
86 6.48
95 1
111 7.69
113 4.31
114 5.82
125 3.6
126 4.38
139 6.71
140 32.4
141 3.88
154 8.41
155 56.12
156 11.6
168 26.68
182 9.8
183 99.99
184 31.5
185 2.69

>  <PREDICTED SPECTRUM>  (994) 
27 89
28 140
29 88
30 108
31 50
33 42
34 12
36 1
37 10
38 57
39 201
40 227
41 427
42 504
43 640
44 608
45 188
46 120
47 3
50 34
51 80
52 177
53 307
54 349
55 309
56 315
57 383
58 282
59 101
60 102
62 37
64 41
65 92
66 82
67 191
68 387
69 315
70 341
71 302
72 218
73 154
76 1
78 19
79 60
80 91
81 117
82 275
83 255
84 334
85 317
86 268
87 42
94 43
95 149
96 90
97 224
98 201
99 189
100 74
101 29
102 75
103 0
105 21
108 36
109 95
110 173
111 269
112 242
113 226
114 191
115 55
116 8
122 13
123 101
124 117
125 166
126 350
127 328
128 197
129 18
136 105
137 128
138 98
139 212
140 190
141 307
142 52
151 56
152 25
153 45
154 924
155 704
156 247
164 79
165 72
166 165
167 87
168 388
169 125
181 71
182 119
183 999
184 310
185 72

$$$$

     RDKit          2D

 23 23  0  0  0  0  0  0  0  0999 V2000
    6.4952   -2.2500    0.0000 C   0  0  0  0  0  0  0  0  0  0  0  0
    2.5981   -4.5000    0.0000 C   0  0  0  0  0  0  0  0  0  0  0  0
    5.1962   -1.5000    0.0000 C   0  0  0  0  0  0  0  0  0  0  0  0
    1.2990   -3.7500    0.0000 C   0  0  0  0  0  0  0  0  0  0  0  0
    3.8971   -2.2500    0.0000 C   0  0  0  0  0  0  0  0  0  0  0  0
    2.5981   -1.5000    0.0000 C   0  0  0  0  0  0  0  0  0  0  0  0
   -2.5986   -1.5008    0.0000 C   0  0  0  0  0  0  0  0  0  0  0  0
   -1.2986    0.7508    0.0000 C   0  0  0  0  0  0  0  0  0  0  0  0
   -2.5981    0.0000    0.0000 C   0  0  0  0  0  0  0  0  0  0  0  0
   -1.2995   -2.2508    0.0000 C   0  0  0  0  0  0  0  0  0  0  0  0
    0.0005    0.0008    0.0000 C   0  0  0  0  0  0  0  0  0  0  0  0
   -0.0000   -1.5000    0.0000 C   0  0  0  0  0  0  0  0  0  0  0  0
   -3.8971    0.7500    0.0000 C   0  0  0  0  0  0  0  0  0  0  0  0
   -3.1471    2.0490    0.0000 F   0  0  0  0  0  0  0  0  0  0  0  0
   -5.1962    1.5000    0.0000 F   0  0  0  0  0  0  0  0  0  0  0  0
   -4.6471   -0.5490    0.0000 F   0  0  0  0  0  0  0  0  0  0  0  0
    1.2990   -2.2500    0.0000 N   0  0  0  0  0  0  0  0  0  0  0  0
   -1.2993   -3.7508    0.0000 N   0  0  0  0  0  0  0  0  0  0  0  0
    1.2996    0.7506    0.0000 N   0  0  0  0  0  0  0  0  0  0  0  0
   -2.5982   -4.5010    0.0000 O   0  0  0  0  0  0  0  0  0  0  0  0
   -0.0001   -4.5006    0.0000 O   0  0  0  0  0  0  0  0  0  0  0  0
    1.2999    2.2506    0.0000 O   0  0  0  0  0  0  0  0  0  0  0  0
    2.5986    0.0004    0.0000 O   0  0  0  0  0  0  0  0  0  0  0  0
  3  1  1  0
  4  2  1  0
  5  3  1  0
  6  5  1  0
  9  7  2  0
  9  8  1  0
 10  7  1  0
 11  8  2  0
 12 10  2  0
 12 11  1  0
 13  9  1  0
 14 13  1  0
 15 13  1  0
 16 13  1  0
 17  4  1  0
 17  6  1  0
 17 12  1  0
 18 10  1  0
 19 11  1  0
 20 18  1  0
 21 18  2  0
 22 19  1  0
 23 19  2  0
M  CHG  4  18   1  19   1  20  -1  22  -1
M  END
>  <NAME>  (995) 
N-BUTYL-N-ETHYL-2,6-DINITRO-4-TRIFLUOROMETHYLANILINE

>  <SYNONYMS>  (995) 


>  <SPECTRUM TYPE>  (995) 
MS1

>  <INSTRUMENT TYPE>  (995) 
EI-B

>  <INSTRUMENT>  (995) 
HITACHI M-80

>  <ION MODE>  (995) 
P

>  <INCHIKEY>  (995) 
SMDHCQAYESWHAE-UHFFFAOYSA-N

>  <FORMULA>  (995) 
C13H16F3N3O4

>  <EXACT MASS>  (995) 
335.109290652

>  <MW>  (995) 
335

>  <ID>  (995) 
JP010567

>  <CONTRIBUTOR>  (995) 
University of Tokyo Team, {Faculty of Engineering, University of Tokyo

>  <COMMENT>  (995) 
SMILES=CCCCN(CC)c(c([N+1]([O-1])=O)1)c([N+1]([O-1])=O)cc(c1)C(F)(F)F
InChI=InChI=1S/C13H16F3N3O4/c1-3-5-6-17(4-2)12-10(18(20)21)7-9(13(14,15)16)8-11(12)19(22)23/h7-8H,3-6H2,1-2H3
computed SMILES=O=N(=O)C=1C=C(C=C(C1N(CC)CCCC)N(=O)=O)C(F)(F)F
accession=JP010567
date=2016.01.19 (Created 2008.10.21, modified 2011.05.06)
author=NARA WOMEN'S UNIVERSITY
license=CC BY-NC-SA
exact mass=335.10929
ionization energy=70 eV
ion type=[M]+*
computed spectral entropy=3.1557493156721965
computed normalized entropy=0.7707581195754308
SPLASH=splash10-002f-7390000000-6fad44e9669f8687c290
submitter=submitter = University of Tokyo Team (Faculty of Engineering, University of Tokyo)
MoNA Rating=3.75

>  <NUM PEAKS>  (995) 
60

>  <MASS SPECTRAL PEAKS>  (995) 
18 6.31
27 13.84
28 13.2
29 37
30 5.18
32 2.51
39 3.97
41 14.82
42 3.16
43 9.47
55 3
56 2.19
57 7.04
75 1.78
105 6.8
125 1.05
126 2.02
127 1.54
131 1.21
133 1.3
140 1.7
143 1.62
144 1.3
145 5.91
146 1.46
147 1.54
153 2.75
158 1.7
159 4.21
160 5.83
161 1.13
166 1.13
171 1.05
172 3.32
173 1.94
174 2.43
185 1.05
186 1.94
187 2.83
188 2.1
189 1.13
198 1.05
199 1.21
200 1.54
201 2.1
202 2.43
206 2.67
218 1.38
248 1.94
264 16.11
265 1.38
276 9.8
277 1.05
292 99.99
293 10.04
294 1.05
316 2.67
318 5.75
320 1.13
335 6.4

>  <PREDICTED SPECTRUM>  (995) 
15 24
27 103
28 28
29 382
30 405
31 0
33 42
34 14
35 26
37 86
38 144
39 512
40 284
41 999
42 792
43 390
44 493
45 170
46 247
47 32
48 5
50 277
51 171
52 216
53 253
54 213
55 497
56 525
57 701
58 257
59 156
61 112
62 259
63 460
64 273
65 178
66 188
67 214
68 145
69 335
70 200
71 142
72 313
73 122
74 274
75 566
76 438
77 301
78 231
79 154
80 127
81 150
82 69
83 138
84 123
85 168
86 87
87 116
88 147
89 177
90 351
91 220
92 208
93 56
94 10
95 104
96 130
97 96
98 114
99 191
100 170
101 131
102 213
103 224
104 156
105 135
106 2
108 27
109 31
111 80
112 35
113 125
114 166
115 217
116 248
117 217
118 181
119 78
120 59
122 80
123 13
124 82
125 95
126 131
127 79
128 152
129 178
130 237
131 195
132 151
133 101
134 9
139 21
140 124
141 164
142 239
143 307
144 181
145 169
146 165
147 3
148 17
149 71
150 21
151 65
154 118
155 4
156 109
157 137
158 226
159 104
160 58
161 96
162 12
163 119
164 56
165 71
167 45
168 79
169 125
170 286
171 244
172 243
173 138
174 82
175 24
176 134
177 167
178 63
179 73
182 53
184 53
185 184
186 162
187 148
188 117
189 101
190 65
195 5
197 89
198 141
199 124
200 199
201 166
202 167
203 158
204 173
205 123
206 202
207 128
212 123
213 256
214 217
215 150
216 187
217 151
218 172
219 94
221 26
222 13
223 13
226 58
227 152
228 261
229 79
230 166
231 164
232 198
233 124
234 90
235 154
240 71
241 110
242 132
243 167
244 238
245 266
246 273
247 131
248 119
249 51
250 81
251 36
255 0
256 222
257 77
258 173
259 291
260 312
261 172
262 104
263 109
264 101
265 0
266 62
270 157
271 58
272 191
273 121
274 239
275 103
276 203
278 306
279 164
280 107
284 2
288 134
289 179
290 193
291 157
292 644
293 256
300 17
304 15
305 18
306 214
316 265
317 218
318 226
319 99
320 151
335 447
336 194

$$$$

     RDKit          2D

 21 22  0  0  0  0  0  0  0  0999 V2000
    7.2886    6.3282    0.0000 C   0  0  0  0  0  0  0  0  0  0  0  0
    5.0602    8.0737    0.0000 C   0  0  0  0  0  0  0  0  0  0  0  0
    5.8210    6.0182    0.0000 C   0  0  0  0  0  0  0  0  0  0  0  0
    5.1107    6.5746    0.0000 C   0  0  0  0  0  0  0  0  0  0  0  0
   -2.5400    0.6600    0.0000 C   0  0  0  0  0  0  0  0  0  0  0  0
   -1.2400    1.4100    0.0000 C   0  0  0  0  0  0  0  0  0  0  0  0
   -1.2400   -1.5900    0.0000 C   0  0  0  0  0  0  0  0  0  0  0  0
    1.9553    2.5460    0.0000 C   0  0  0  0  0  0  0  0  0  0  0  0
   -2.5400   -0.8400    0.0000 C   0  0  0  0  0  0  0  0  0  0  0  0
    0.0600    0.6600    0.0000 C   0  0  0  0  0  0  0  0  0  0  0  0
    0.0600   -0.8400    0.0000 C   0  0  0  0  0  0  0  0  0  0  0  0
    2.3700   -0.0900    0.0000 C   0  0  0  0  0  0  0  0  0  0  0  0
   -3.8389   -1.5902    0.0000 Cl  0  0  0  0  0  0  0  0  0  0  0  0
    1.4900    1.1200    0.0000 N   0  0  0  0  0  0  0  0  0  0  0  0
    3.8700   -0.0900    0.0000 O   0  0  0  0  0  0  0  0  0  0  0  0
    5.3558    4.5922    0.0000 O   0  0  0  0  0  0  0  0  0  0  0  0
    3.8377    5.7812    0.0000 O   0  0  0  0  0  0  0  0  0  0  0  0
    1.4900   -1.3000    0.0000 O   0  0  0  0  0  0  0  0  0  0  0  0
    3.8882    4.2821    0.0000 P   0  0  0  0  0  0  0  0  0  0  0  0
    2.4030    4.4927    0.0000 S   0  0  0  0  0  0  0  0  0  0  0  0
    3.4229    2.8561    0.0000 S   0  0  0  0  0  0  0  0  0  0  0  0
  3  1  1  0
  4  2  1  0
  6  5  2  0
  9  5  1  0
  9  7  2  0
 10  6  1  0
 11  7  1  0
 11 10  2  0
 13  9  1  0
 14  8  1  0
 14 10  1  0
 14 12  1  0
 15 12  2  0
 16  3  1  0
 17  4  1  0
 18 11  1  0
 18 12  1  0
 19 16  1  0
 19 17  1  0
 20 19  2  0
 21  8  1  0
 21 19  1  0
M  END
>  <NAME>  (996) 
O,O-DIETHYL S-(6-CHLOROBENZOXZAOLON-3-YL)METHYL PHOSPHORODITHIOATE

>  <SYNONYMS>  (996) 
PHOSALONE

>  <SPECTRUM TYPE>  (996) 
MS1

>  <INSTRUMENT TYPE>  (996) 
EI-B

>  <INSTRUMENT>  (996) 
HITACHI M-80

>  <ION MODE>  (996) 
P

>  <INCHIKEY>  (996) 
IOUNQDKNJZEDEP-UHFFFAOYSA-N

>  <FORMULA>  (996) 
C12H15ClNO4PS2

>  <EXACT MASS>  (996) 
366.98686427

>  <MW>  (996) 
367

>  <ID>  (996) 
JP010566

>  <CONTRIBUTOR>  (996) 
University of Tokyo Team, {Faculty of Engineering, University of Tokyo

>  <COMMENT>  (996) 
SMILES=CCOP(=S)(OCC)SCN(C(=O)1)c(c2)c(cc(Cl)c2)O1
InChI=InChI=1S/C12H15ClNO4PS2/c1-3-16-19(20,17-4-2)21-8-14-10-6-5-9(13)7-11(10)18-12(14)15/h5-7H,3-4,8H2,1-2H3
computed SMILES=O=C1OC2=CC(Cl)=CC=C2N1CSP(=S)(OCC)OCC
accession=JP010566
date=2016.01.19 (Created 2008.10.21, modified 2011.05.06)
author=NARA WOMEN'S UNIVERSITY
license=CC BY-NC-SA
exact mass=366.98686
ionization energy=70 eV
ion type=[M]+*
computed spectral entropy=3.423495376998897
computed normalized entropy=0.8201192547917308
SPLASH=splash10-001i-3901000000-80a2a63054e8b0fc3477
submitter=submitter = University of Tokyo Team (Faculty of Engineering, University of Tokyo)
MoNA Rating=3.75

>  <NUM PEAKS>  (996) 
65

>  <MASS SPECTRAL PEAKS>  (996) 
39 1.72
41 1.67
45 5.02
46 4.31
47 4.56
50 3.29
51 4.21
61 1.52
62 1.72
63 6.84
64 2.53
65 20.58
74 1.01
75 9.88
76 7.91
77 2.43
78 2.48
80 1.82
85 1.06
90 1.57
91 1.62
93 8.92
95 1.17
97 29.3
99 5.07
101 1.32
102 9.38
103 2.69
108 1.72
109 1.32
111 20.28
112 3.29
113 8.36
114 1.16
121 49.88
122 2.08
125 16.52
126 1.98
127 2.74
129 14.7
131 1.47
138 14.85
139 1.28
140 6.79
141 1.93
142 1.21
143 1.67
153 16.22
154 28.08
155 2.74
156 1.62
157 3.7
169 6.03
170 4.21
171 3.9
172 1.37
182 99.99
183 10.75
184 33.15
185 5.58
199 5.93
367 26.51
368 4.46
369 11.02
370 1.77

>  <PREDICTED SPECTRUM>  (996) 
14 38
15 27
16 12
17 69
18 130
25 18
26 117
27 310
28 184
29 440
31 61
32 78
34 70
35 119
36 84
37 106
38 216
39 280
40 156
41 168
42 178
43 277
44 213
45 283
46 81
47 243
48 144
49 113
50 351
51 368
52 199
53 245
54 120
55 179
56 146
57 182
58 282
59 205
60 211
61 134
62 360
63 589
64 287
65 748
66 208
67 151
68 94
69 343
70 266
71 151
72 147
73 376
74 285
75 904
76 382
77 317
78 167
79 171
80 213
81 432
82 244
83 224
84 160
85 266
86 119
87 88
88 109
89 172
90 251
91 385
92 100
93 486
94 85
95 138
96 120
97 999
98 243
99 731
100 148
101 136
102 289
103 170
104 165
105 179
106 124
107 133
108 357
109 746
110 101
111 678
112 357
113 751
114 223
115 124
116 71
117 87
118 113
119 122
120 105
121 541
122 164
123 145
124 226
125 874
126 398
127 739
128 432
129 857
130 387
131 232
136 121
137 234
138 353
139 260
140 337
141 274
142 289
143 409
144 226
145 120
146 11
147 86
148 59
149 3
150 106
151 107
152 110
153 842
154 381
155 285
156 426
157 372
158 304
159 124
162 52
164 24
166 80
167 201
168 350
169 479
170 564
171 918
172 406
173 106
180 52
181 224
182 611
183 611
184 578
185 577
186 477
187 211
188 67
196 217
197 531
198 766
199 953
200 660
201 425
202 181
204 6
210 66
214 198
215 220
216 46
225 66
233 22
234 128
236 76
262 0
264 19
266 67
278 21
279 97
290 102
294 107
295 42
296 18
306 6
308 6
311 0
319 371
322 141
323 146
324 29
339 59
341 38
367 755
368 333
369 465
370 197
371 156

$$$$

     RDKit          2D

 21 22  0  0  0  0  0  0  0  0999 V2000
    4.2227   -4.6876    0.0000 C   0  0  0  0  0  0  0  0  0  0  0  0
    1.6233   -0.1870    0.0000 C   0  0  0  0  0  0  0  0  0  0  0  0
    4.2219   -3.1872    0.0000 C   0  0  0  0  0  0  0  0  0  0  0  0
   -2.2729   -5.4382    0.0000 C   0  0  0  0  0  0  0  0  0  0  0  0
    0.3257   -5.4386    0.0000 C   0  0  0  0  0  0  0  0  0  0  0  0
   -0.9747   -3.1872    0.0000 C   0  0  0  0  0  0  0  0  0  0  0  0
   -3.5725   -3.1876    0.0000 C   0  0  0  0  0  0  0  0  0  0  0  0
   -0.9740   -4.6880    0.0000 C   0  0  0  0  0  0  0  0  0  0  0  0
   -3.5721   -4.6884    0.0000 C   0  0  0  0  0  0  0  0  0  0  0  0
    1.6246   -4.6884    0.0000 C   0  0  0  0  0  0  0  0  0  0  0  0
    0.3242   -2.4370    0.0000 C   0  0  0  0  0  0  0  0  0  0  0  0
    1.6239   -3.1876    0.0000 C   0  0  0  0  0  0  0  0  0  0  0  0
   -4.8711   -5.4384    0.0000 C   0  0  0  0  0  0  0  0  0  0  0  0
   -6.1711   -3.1868    0.0000 C   0  0  0  0  0  0  0  0  0  0  0  0
   -4.8713   -6.9384    0.0000 N   0  0  0  0  0  0  0  0  0  0  0  0
   -7.4703   -2.4370    0.0000 N   0  0  0  0  0  0  0  0  0  0  0  0
   -4.8721   -2.4368    0.0000 N   0  0  0  0  0  0  0  0  0  0  0  0
   -6.1706   -4.6876    0.0000 N   0  0  0  0  0  0  0  0  0  0  0  0
    2.9239   -5.4380    0.0000 O   0  0  0  0  0  0  0  0  0  0  0  0
    0.3242   -0.9370    0.0000 O   0  0  0  0  0  0  0  0  0  0  0  0
    2.9228   -2.4374    0.0000 O   0  0  0  0  0  0  0  0  0  0  0  0
  8  4  1  0
  8  5  2  0
  8  6  1  0
  9  4  1  0
  9  7  2  0
 10  5  1  0
 11  6  2  0
 12 10  2  0
 12 11  1  0
 13  9  1  0
 15 13  2  0
 16 14  2  0
 17  7  1  0
 17 14  1  0
 18 13  1  0
 18 14  1  0
 19  1  1  0
 19 10  1  0
 20  2  1  0
 20 11  1  0
 21  3  1  0
 21 12  1  0
M  END
>  <NAME>  (997) 
2,4-DIAMINO-5-(3,4,5-TRIMETHOXYBENZYL)PYR-IMIDINE

>  <SYNONYMS>  (997) 


>  <SPECTRUM TYPE>  (997) 
MS1

>  <INSTRUMENT TYPE>  (997) 
EI-B

>  <INSTRUMENT>  (997) 
HITACHI M-80

>  <ION MODE>  (997) 
P

>  <INCHIKEY>  (997) 
IEDVJHCEMCRBQM-UHFFFAOYSA-N

>  <FORMULA>  (997) 
C14H18N4O3

>  <EXACT MASS>  (997) 
290.13789043599996

>  <MW>  (997) 
290

>  <ID>  (997) 
JP010564

>  <CONTRIBUTOR>  (997) 
University of Tokyo Team, {Faculty of Engineering, University of Tokyo

>  <COMMENT>  (997) 
SMILES=COc(c1)c(OC)c(OC)cc(Cc(c2)c(N)nc(N)n2)1
InChI=InChI=1S/C14H18N4O3/c1-19-10-5-8(6-11(20-2)12(10)21-3)4-9-7-17-14(16)18-13(9)15/h5-7H,4H2,1-3H3,(H4,15,16,17,18)
computed SMILES=N=C1NC=C(C(=N)N1)CC2=CC(OC)=C(OC)C(OC)=C2
accession=JP010564
date=2016.01.19 (Created 2008.10.21, modified 2011.05.06)
author=NARA WOMEN'S UNIVERSITY
license=CC BY-NC-SA
exact mass=290.13789
ionization energy=70 eV
ion type=[M]+*
computed spectral entropy=3.8321378786604354
computed normalized entropy=0.8184601611463477
SPLASH=splash10-0006-5390000000-e68103f64cbb997e5776
submitter=submitter = University of Tokyo Team (Faculty of Engineering, University of Tokyo)
MoNA Rating=3.75

>  <NUM PEAKS>  (997) 
108

>  <MASS SPECTRAL PEAKS>  (997) 
15 10.91
27 1.73
28 19.2
29 1.78
32 3.17
39 5.43
41 1.5
42 2.08
43 21.09
50 1.88
51 3.69
52 3.7
53 5.22
54 3.89
55 1.4
63 3.18
64 1.47
65 2.9
66 4.11
67 1.58
68 1.8
69 3.79
75 1.6
76 1.99
77 3.97
78 2.3
79 2.49
80 1.98
81 13
89 1.7
90 1.92
91 2.09
92 2.4
93 1.69
94 1.38
95 3
96 1.28
102 2.1
103 1.51
104 1.5
105 2.29
106 1.72
107 1.3
109 1.59
116 1.3
117 1.57
118 1.91
119 3.33
120 1.61
121 1.4
122 2.19
123 18
124 1.98
129 1.63
130 1.8
131 1.72
132 1.1
133 1.21
134 1.11
137 1.2
144 1.33
145 3.48
146 2.1
147 3.6
148 1.92
159 1.6
160 1.68
161 2.8
171 1.5
172 2.61
173 2.7
174 1.29
175 1.29
183 1.1
184 1.83
185 2
187 1.72
188 1.3
189 6.61
190 1.27
200 7.2
201 3.69
212 1.3
214 1.41
215 4.4
216 2.73
217 3.2
227 1.39
228 2.68
229 1.6
231 2.22
232 1.71
233 1.1
242 1.43
243 13.5
244 3.21
245 1.28
247 1
257 2.19
258 1.8
259 25.91
260 4.63
275 22.41
276 3.49
289 4.1
290 99.99
291 17.32
292 1.69

>  <PREDICTED SPECTRUM>  (997) 
33 44
34 29
36 16
37 51
38 128
39 239
40 156
41 334
42 289
43 573
44 253
45 213
46 15
47 1
48 28
49 79
50 291
51 419
52 323
53 410
54 233
55 376
56 178
57 217
58 72
59 129
60 94
61 105
62 231
63 334
64 305
65 404
66 331
67 289
68 271
69 400
70 203
71 167
72 110
73 100
74 136
75 201
76 307
77 552
78 440
79 382
80 278
81 246
82 222
83 222
84 164
85 148
86 146
87 130
88 144
89 221
90 307
91 278
92 256
93 221
94 127
95 221
96 179
97 205
98 183
99 160
100 131
101 146
102 202
103 257
104 299
105 376
106 247
107 227
108 154
109 135
110 115
111 116
112 125
113 116
114 172
115 197
116 205
117 278
118 330
119 277
120 185
121 195
122 186
123 212
124 130
125 166
126 77
127 145
128 134
129 157
130 177
131 212
132 258
133 396
134 287
135 205
136 185
137 101
138 59
139 103
140 169
141 158
142 187
143 182
144 196
145 214
146 175
147 181
148 183
149 108
150 87
151 100
152 59
153 121
154 73
155 134
156 162
157 221
158 282
159 195
160 259
161 312
162 157
163 91
164 71
165 120
166 101
167 124
168 331
169 147
170 81
171 154
172 229
173 276
174 220
175 252
176 146
177 85
178 73
179 133
181 27
182 96
183 122
184 153
185 264
186 277
187 197
188 244
189 217
190 118
191 63
192 19
193 60
194 110
197 103
198 139
199 164
200 215
201 268
202 221
203 177
204 136
205 42
206 33
213 95
214 173
215 336
216 224
217 190
218 176
219 111
220 74
226 72
227 175
228 183
229 106
230 140
231 187
232 225
233 103
241 62
242 206
243 307
244 157
245 130
246 169
247 305
248 121
257 245
258 256
259 399
260 197
261 158
262 46
263 28
272 68
273 201
274 199
275 335
276 94
287 52
288 137
289 484
290 999
291 397
292 145

$$$$

     RDKit          2D

  6  6  0  0  0  0  0  0  0  0999 V2000
   -0.7500    1.0300    0.0000 C   0  0  0  0  0  0  0  0  0  0  0  0
   -1.2100   -0.3900    0.0000 C   0  0  0  0  0  0  0  0  0  0  0  0
    1.2100   -0.3900    0.0000 C   0  0  0  0  0  0  0  0  0  0  0  0
    0.7500    1.0300    0.0000 N   0  0  0  0  0  0  0  0  0  0  0  0
    2.6377   -0.8500    0.0000 O   0  0  0  0  0  0  0  0  0  0  0  0
    0.0000   -1.2800    0.0000 S   0  0  0  0  0  0  0  0  0  0  0  0
  2  1  2  0
  4  1  1  0
  4  3  2  0
  5  3  1  0
  6  2  1  0
  6  3  1  0
M  END
>  <NAME>  (998) 
2-THIAZOLONE

>  <SYNONYMS>  (998) 


>  <SPECTRUM TYPE>  (998) 
MS1

>  <INSTRUMENT TYPE>  (998) 
EI-B

>  <INSTRUMENT>  (998) 
HITACHI M-80

>  <ION MODE>  (998) 
P

>  <INCHIKEY>  (998) 
CZWWCTHQXBMHDA-UHFFFAOYSA-N

>  <FORMULA>  (998) 
C3H3NOS

>  <EXACT MASS>  (998) 
100.993534716

>  <MW>  (998) 
101

>  <ID>  (998) 
JP010563

>  <CONTRIBUTOR>  (998) 
University of Tokyo Team, {Faculty of Engineering, University of Tokyo

>  <COMMENT>  (998) 
SMILES=O=C(N1)SC=C1
InChI=InChI=1S/C3H3NOS/c5-3-4-1-2-6-3/h1-2H,(H,4,5)
computed SMILES=OC1=NC=CS1
accession=JP010563
date=2016.01.19 (Created 2008.10.21, modified 2011.05.06)
author=NARA WOMEN'S UNIVERSITY
license=CC BY-NC-SA
exact mass=100.99353
ionization energy=70 eV
ion type=[M]+*
computed spectral entropy=2.63317952292359
computed normalized entropy=0.7467130784111211
SPLASH=splash10-0f92-9200000000-07f6ace203045ac88eec
submitter=submitter = University of Tokyo Team (Faculty of Engineering, University of Tokyo)
MoNA Rating=3.75

>  <NUM PEAKS>  (998) 
34

>  <MASS SPECTRAL PEAKS>  (998) 
12 2.09
13 1.9
14 4.61
18 3.48
25 2.22
26 6.59
27 7.53
28 88.9
29 4.01
32 12.52
33 1.8
38 5.01
39 5.7
40 15.31
41 4.09
43 4.72
44 11.2
45 52.01
46 80.5
47 3.68
48 3.3
56 3.01
57 13.02
58 17.69
59 1.98
60 3.2
70 3.21
71 1.2
73 44.4
74 1.49
75 1.6
101 99.99
102 5.18
103 4.48

>  <PREDICTED SPECTRUM>  (998) 
14 85
16 14
17 1
18 22
25 66
26 114
27 188
28 138
29 151
31 26
32 108
33 71
34 48
36 51
37 104
38 144
40 215
41 105
42 176
43 138
44 332
45 638
46 348
47 267
48 110
49 45
50 16
52 30
53 39
54 44
55 82
56 128
57 546
58 765
59 146
68 42
70 89
71 69
72 283
73 347
74 346
75 100
100 165
101 999
102 160
103 188

$$$$

     RDKit          2D

  9  8  0  0  0  0  0  0  0  0999 V2000
    1.6238    3.1875    0.0000 C   0  0  0  0  0  0  0  0  0  0  0  0
   -2.2733    3.9375    0.0000 C   0  0  0  0  0  0  0  0  0  0  0  0
   -3.5724    3.1875    0.0000 C   0  0  0  0  0  0  0  0  0  0  0  0
   -0.9743    3.1875    0.0000 C   0  0  0  0  0  0  0  0  0  0  0  0
   -4.8714    3.9375    0.0000 Br  0  0  0  0  0  0  0  0  0  0  0  0
   -3.5724    1.6875    0.0000 Br  0  0  0  0  0  0  0  0  0  0  0  0
   -2.2733    5.4375    0.0000 O   0  0  0  0  0  0  0  0  0  0  0  0
   -0.9743    1.6875    0.0000 O   0  0  0  0  0  0  0  0  0  0  0  0
    0.3248    3.9375    0.0000 O   0  0  0  0  0  0  0  0  0  0  0  0
  3  2  1  0
  4  2  1  0
  5  3  1  0
  6  3  1  0
  7  2  2  0
  8  4  2  0
  9  1  1  0
  9  4  1  0
M  END
>  <NAME>  (999) 
METHYL DIBROMOPYRUVATE

>  <SYNONYMS>  (999) 


>  <SPECTRUM TYPE>  (999) 
MS1

>  <INSTRUMENT TYPE>  (999) 
EI-B

>  <INSTRUMENT>  (999) 
HITACHI M-80

>  <ION MODE>  (999) 
P

>  <INCHIKEY>  (999) 
BBEUKZFDZWGLQL-UHFFFAOYSA-N

>  <FORMULA>  (999) 
C4H4Br2O3

>  <EXACT MASS>  (999) 
257.852718188

>  <MW>  (999) 
258

>  <ID>  (999) 
JP010562

>  <CONTRIBUTOR>  (999) 
University of Tokyo Team, {Faculty of Engineering, University of Tokyo

>  <COMMENT>  (999) 
SMILES=COC(=O)C(=O)C(Br)Br
InChI=InChI=1S/C4H4Br2O3/c1-9-4(8)2(7)3(5)6/h3H,1H3
computed SMILES=O=C(OC)C(=O)C(Br)Br
accession=JP010562
date=2016.01.19 (Created 2008.10.21, modified 2011.05.06)
author=NARA WOMEN'S UNIVERSITY
license=CC BY-NC-SA
exact mass=257.85272
ionization energy=70 eV
ion type=[M]+*
computed spectral entropy=3.3661061591959567
computed normalized entropy=0.8124539464657163
SPLASH=splash10-06di-9300000000-aa08584b93435fdf9c7e
submitter=submitter = University of Tokyo Team (Faculty of Engineering, University of Tokyo)
MoNA Rating=3.75

>  <NUM PEAKS>  (999) 
63

>  <MASS SPECTRAL PEAKS>  (999) 
12 1.83
13 7.22
14 6.54
15 70
16 3.35
17 19.58
18 76
25 2.93
26 2.72
27 10.63
28 43.02
29 22.87
30 6.39
31 2.83
32 9.05
36 2.31
39 1.94
40 1.62
41 19.1
42 16.23
43 9.05
44 3.93
45 10.78
49 1.94
53 4.92
55 1.73
57 2.2
59 99.99
60 2.3
76 1.05
77 2.51
79 9.11
80 4.08
81 8.37
82 3.51
91 4.92
92 15.02
93 8.37
94 15.49
95 3.87
105 1.36
107 3.87
109 2.46
120 47
121 5.44
122 47.42
123 5.97
135 3.45
137 4.24
171 13.97
173 28.73
175 13.24
180 1.2
182 1.05
199 3.3
200 2.36
201 6.28
202 1.1
203 2.88
230 1.57
232 3.4
234 1.47
260 0.99

>  <PREDICTED SPECTRUM>  (999) 
14 118
15 375
16 83
17 81
18 107
25 77
26 209
27 450
28 382
29 524
30 274
31 223
32 68
33 19
36 49
37 25
38 177
39 115
40 104
41 390
42 380
43 230
44 246
45 348
49 53
50 48
53 201
54 211
55 53
57 78
58 41
59 999
60 56
64 46
65 43
66 87
77 36
79 47
80 8
81 262
82 30
85 63
87 79
90 0
91 185
92 351
93 417
94 241
95 78
105 27
106 72
107 64
109 8
119 91
120 486
121 348
122 503
123 371
135 59
137 96
171 206
172 323
173 454
174 66
175 107
199 121
200 86
201 347
202 19
203 75

$$$$

     RDKit          2D

 15 16  0  0  0  0  0  0  0  0999 V2000
    3.7781    5.7300    0.0000 C   0  0  0  0  0  0  0  0  0  0  0  0
   -2.7200   -1.0200    0.0000 C   0  0  0  0  0  0  0  0  0  0  0  0
   -2.7200    0.4800    0.0000 C   0  0  0  0  0  0  0  0  0  0  0  0
    2.4800   -1.0200    0.0000 C   0  0  0  0  0  0  0  0  0  0  0  0
   -1.4200   -1.7700    0.0000 C   0  0  0  0  0  0  0  0  0  0  0  0
    1.1800   -1.7700    0.0000 C   0  0  0  0  0  0  0  0  0  0  0  0
   -1.4200    1.2300    0.0000 C   0  0  0  0  0  0  0  0  0  0  0  0
    2.4800    0.4800    0.0000 C   0  0  0  0  0  0  0  0  0  0  0  0
   -0.1200   -1.0200    0.0000 C   0  0  0  0  0  0  0  0  0  0  0  0
   -0.1200    0.4800    0.0000 C   0  0  0  0  0  0  0  0  0  0  0  0
    1.1800    1.2300    0.0000 C   0  0  0  0  0  0  0  0  0  0  0  0
    2.4790    3.4800    0.0000 C   0  0  0  0  0  0  0  0  0  0  0  0
    2.4790    4.9800    0.0000 N   0  0  0  0  0  0  0  0  0  0  0  0
    3.7781    2.7300    0.0000 O   0  0  0  0  0  0  0  0  0  0  0  0
    1.1800    2.7300    0.0000 O   0  0  0  0  0  0  0  0  0  0  0  0
  3  2  2  0
  5  2  1  0
  6  4  2  0
  7  3  1  0
  8  4  1  0
  9  5  2  0
  9  6  1  0
 10  7  2  0
 10  9  1  0
 11  8  2  0
 11 10  1  0
 13  1  1  0
 13 12  2  3
 14 12  1  0
 15 11  1  0
 15 12  1  0
M  END
>  <NAME>  (1000) 
1-NAPHTHYL METHYLCARBAMATE

>  <SYNONYMS>  (1000) 


>  <SPECTRUM TYPE>  (1000) 
MS1

>  <INSTRUMENT TYPE>  (1000) 
EI-B

>  <INSTRUMENT>  (1000) 
HITACHI M-80

>  <ION MODE>  (1000) 
P

>  <INCHIKEY>  (1000) 
CVXBEEMKQHEXEN-UHFFFAOYSA-N

>  <FORMULA>  (1000) 
C12H11NO2

>  <EXACT MASS>  (1000) 
201.078978592

>  <MW>  (1000) 
201

>  <ID>  (1000) 
JP010560

>  <CONTRIBUTOR>  (1000) 
University of Tokyo Team, {Faculty of Engineering, University of Tokyo

>  <COMMENT>  (1000) 
SMILES=CNC(=O)Oc(c1)c(c2)c(ccc2)cc1
InChI=InChI=1S/C12H11NO2/c1-13-12(14)15-11-8-4-6-9-5-2-3-7-10(9)11/h2-8H,1H3,(H,13,14)
computed SMILES=OC(=NC)OC1=CC=CC=2C=CC=CC12
accession=JP010560
date=2016.01.19 (Created 2008.10.21, modified 2011.05.06)
author=NARA WOMEN'S UNIVERSITY
license=CC BY-NC-SA
exact mass=201.07898
ionization energy=70 eV
ion type=[M]+*
computed spectral entropy=2.309450930425822
computed normalized entropy=0.6858473526025478
SPLASH=splash10-00kf-3900000000-f8d105dabb5ffb01e936
submitter=submitter = University of Tokyo Team (Faculty of Engineering, University of Tokyo)
MoNA Rating=3.75

>  <NUM PEAKS>  (1000) 
29

>  <MASS SPECTRAL PEAKS>  (1000) 
15 5.75
27 2.37
28 10.93
29 1.37
32 1.08
39 4.31
50 1.94
51 2.44
58 8.84
62 2.73
63 6.83
64 1.01
65 2.95
74 1.65
75 1.87
77 1.22
87 1.51
88 1.65
89 6.47
113 1.65
114 2.44
115 46
116 25.81
117 2.3
127 2.59
143 1.87
144 99.99
145 11
201 3.38

>  <PREDICTED SPECTRUM>  (1000) 
14 6
15 64
17 8
18 5
25 13
26 68
27 116
28 83
29 75
30 10
31 39
33 3
34 2
37 56
38 117
39 217
40 93
41 94
42 86
43 55
44 135
45 139
49 46
50 262
51 336
52 194
53 136
54 98
55 107
56 52
57 97
58 226
59 138
60 24
61 156
62 213
63 347
64 205
65 222
66 67
67 11
69 46
72 71
73 72
74 196
75 265
76 151
77 327
78 127
79 98
80 1
81 84
82 56
83 25
84 44
85 7
86 51
87 221
88 221
89 317
90 82
91 39
92 69
93 76
97 61
98 71
99 27
100 77
101 114
102 119
103 99
104 2
113 173
114 336
115 999
116 439
117 99
125 27
126 267
127 162
128 85
129 91
130 141
131 57
140 153
141 151
142 218
143 726
144 784
145 257
153 55
156 237
157 228
158 119
159 151
170 37
201 569
202 194
203 20

$$$$

     RDKit          2D

 13 13  0  0  0  0  0  0  0  0999 V2000
   -3.0977    0.5778    0.0000 C   0  0  0  0  0  0  0  0  0  0  0  0
   -4.0655   -1.3099    0.0000 C   0  0  0  0  0  0  0  0  0  0  0  0
   -2.1778   -2.2777    0.0000 C   0  0  0  0  0  0  0  0  0  0  0  0
   -0.7500    1.0300    0.0000 C   0  0  0  0  0  0  0  0  0  0  0  0
   -1.2100   -0.3900    0.0000 C   0  0  0  0  0  0  0  0  0  0  0  0
    0.7500    1.0300    0.0000 C   0  0  0  0  0  0  0  0  0  0  0  0
    3.1239    2.0857    0.0000 C   0  0  0  0  0  0  0  0  0  0  0  0
   -2.6377   -0.8500    0.0000 C   0  0  0  0  0  0  0  0  0  0  0  0
    4.0061    3.2988    0.0000 N   0  0  0  0  0  0  0  0  0  0  0  0
    1.6322    2.2431    0.0000 N   0  0  0  0  0  0  0  0  0  0  0  0
    1.2100   -0.3900    0.0000 N   0  0  0  0  0  0  0  0  0  0  0  0
    3.7334    0.7151    0.0000 O   0  0  0  0  0  0  0  0  0  0  0  0
   -0.0000   -1.2800    0.0000 O   0  0  0  0  0  0  0  0  0  0  0  0
  5  4  2  0
  6  4  1  0
  8  1  1  0
  8  2  1  0
  8  3  1  0
  8  5  1  0
  9  7  2  0
 10  6  2  3
 10  7  1  0
 11  6  1  0
 12  7  1  0
 13  5  1  0
 13 11  1  0
M  END
>  <NAME>  (1001) 
3-(5-TERT-BUTYL-3-ISOXAZOLYL)UREA

>  <SYNONYMS>  (1001) 


>  <SPECTRUM TYPE>  (1001) 
MS1

>  <INSTRUMENT TYPE>  (1001) 
EI-B

>  <INSTRUMENT>  (1001) 
HITACHI M-80

>  <ION MODE>  (1001) 
P

>  <INCHIKEY>  (1001) 
PMXLTKAKSSLLDX-UHFFFAOYSA-N

>  <FORMULA>  (1001) 
C8H13N3O2

>  <EXACT MASS>  (1001) 
183.100776656

>  <MW>  (1001) 
183

>  <ID>  (1001) 
JP010559

>  <CONTRIBUTOR>  (1001) 
University of Tokyo Team, {Faculty of Engineering, University of Tokyo

>  <COMMENT>  (1001) 
SMILES=NC(=O)Nc(n1)cc(o1)C(C)(C)C
InChI=InChI=1S/C8H13N3O2/c1-8(2,3)5-4-6(11-13-5)10-7(9)12/h4H,1-3H3,(H3,9,10,11,12)
computed SMILES=N=C(O)N=C1C=C(ON1)C(C)(C)C
accession=JP010559
date=2016.01.19 (Created 2008.10.21, modified 2011.05.06)
author=NARA WOMEN'S UNIVERSITY
license=CC BY-NC-SA
exact mass=183.10078
ionization energy=70 eV
ion type=[M]+*
computed spectral entropy=3.2600250214822766
computed normalized entropy=0.8135148416148377
SPLASH=splash10-002f-9500000000-66cb4064eb4deba5a046
submitter=submitter = University of Tokyo Team (Faculty of Engineering, University of Tokyo)
MoNA Rating=3.75

>  <NUM PEAKS>  (1001) 
55

>  <MASS SPECTRAL PEAKS>  (1001) 
15 3.2
16 1.42
17 1.21
18 4.09
27 11.03
28 22.39
29 16.48
30 2.4
32 2.47
38 1.4
39 20.57
40 4.49
41 33.82
42 6.58
43 17.51
44 30.53
50 1.09
51 3.02
52 2.48
53 7.69
54 3.58
55 16.72
56 3.58
57 19.8
58 3.51
65 2.83
66 2.72
67 11.79
68 10.31
69 3.03
70 3.78
77 1.19
78 1.58
79 1.11
80 4.59
81 4.82
82 4.37
83 13.69
84 1.91
85 3.49
94 5.98
95 1.89
96 1.58
97 4.28
98 3.59
103 4.9
109 1.82
125 65.9
126 11.21
140 99.99
141 8.51
151 1.69
168 3.22
183 6.83
184 1.11

>  <PREDICTED SPECTRUM>  (1001) 
15 6
17 0
18 3
26 12
27 44
28 41
29 64
30 107
31 17
33 33
34 13
37 28
38 69
39 329
40 153
41 405
42 319
43 364
44 188
45 98
46 16
50 131
51 202
52 180
53 211
54 175
55 216
56 205
57 238
58 44
59 82
60 56
62 62
63 151
64 109
65 268
66 157
67 196
68 127
69 126
70 122
71 72
72 85
73 167
74 102
75 44
76 80
77 165
78 144
79 178
80 132
81 147
82 93
83 115
84 72
85 88
86 9
87 2
89 61
90 83
91 305
92 158
93 56
94 54
95 86
96 84
97 82
98 60
99 2
100 18
101 15
102 32
103 65
104 20
105 22
106 98
107 198
108 91
109 136
110 128
111 46
112 17
115 7
117 96
118 70
120 44
121 2
122 93
123 66
125 14
126 20
127 123
128 96
129 11
130 63
136 78
137 50
138 110
139 35
140 28
141 61
148 3
149 53
150 124
151 170
152 207
153 121
154 51
165 21
166 155
167 33
168 999
169 349
170 53
180 5
181 51
182 28
183 456
184 146

$$$$

     RDKit          2D

 13 14  0  0  0  0  0  0  0  0999 V2000
   -5.1968   -3.0006    0.0000 C   0  0  0  0  0  0  0  0  0  0  0  0
   -3.8971   -3.7512    0.0000 C   0  0  0  0  0  0  0  0  0  0  0  0
   -5.1975   -1.4998    0.0000 C   0  0  0  0  0  0  0  0  0  0  0  0
   -2.5982   -3.0010    0.0000 C   0  0  0  0  0  0  0  0  0  0  0  0
   -3.8986   -0.7496    0.0000 C   0  0  0  0  0  0  0  0  0  0  0  0
    1.3000   -0.7500    0.0000 C   0  0  0  0  0  0  0  0  0  0  0  0
    1.3000    0.7500    0.0000 C   0  0  0  0  0  0  0  0  0  0  0  0
   -2.5989   -1.5002    0.0000 C   0  0  0  0  0  0  0  0  0  0  0  0
   -1.3000   -0.7500    0.0000 C   0  0  0  0  0  0  0  0  0  0  0  0
   -1.3000    0.7500    0.0000 C   0  0  0  0  0  0  0  0  0  0  0  0
   -0.0000   -1.5000    0.0000 N   0  0  0  0  0  0  0  0  0  0  0  0
    0.0000    1.5000    0.0000 N   0  0  0  0  0  0  0  0  0  0  0  0
   -2.5989    1.5002    0.0000 O   0  0  0  0  0  0  0  0  0  0  0  0
  2  1  2  0
  3  1  1  0
  4  2  1  0
  5  3  2  0
  7  6  2  0
  8  4  2  0
  8  5  1  0
  9  8  1  0
 10  9  1  0
 11  6  1  0
 11  9  2  0
 12  7  1  0
 12 10  1  0
 13 10  2  0
M  END
>  <NAME>  (1002) 
2-HYDROXY-3-PHENYLPYRADINE

>  <SYNONYMS>  (1002) 


>  <SPECTRUM TYPE>  (1002) 
MS1

>  <INSTRUMENT TYPE>  (1002) 
EI-B

>  <INSTRUMENT>  (1002) 
HITACHI M-80

>  <ION MODE>  (1002) 
P

>  <INCHIKEY>  (1002) 
SYPKOIOSVWYKHO-UHFFFAOYSA-N

>  <FORMULA>  (1002) 
C10H8N2O

>  <EXACT MASS>  (1002) 
172.063662876

>  <MW>  (1002) 
172

>  <ID>  (1002) 
JP010558

>  <CONTRIBUTOR>  (1002) 
University of Tokyo Team, {Faculty of Engineering, University of Tokyo

>  <COMMENT>  (1002) 
SMILES=Oc(n2)c(ncc2)c(c1)cccc1
InChI=InChI=1S/C10H8N2O/c13-10-9(11-6-7-12-10)8-4-2-1-3-5-8/h1-7H,(H,12,13)
computed SMILES=O=C1NC=CN=C1C=2C=CC=CC2
accession=JP010558
date=2016.01.19 (Created 2008.10.21, modified 2011.05.06)
author=NARA WOMEN'S UNIVERSITY
license=CC BY-NC-SA
exact mass=172.06366
ionization energy=70 eV
ion type=[M]+*
computed spectral entropy=2.776738916014255
computed normalized entropy=0.752732354243119
SPLASH=splash10-00dl-3900000000-df4b11b7477e3b5a3896
submitter=submitter = University of Tokyo Team (Faculty of Engineering, University of Tokyo)
MoNA Rating=3.75

>  <NUM PEAKS>  (1002) 
40

>  <MASS SPECTRAL PEAKS>  (1002) 
26 1.35
27 1.76
28 8.45
38 1.19
39 4.87
40 7.2
41 4.35
42 1.14
50 3.47
51 6.53
52 2.22
61 1.14
62 3.27
63 7.05
64 1.76
68 1.14
72 1.66
74 1.14
75 1.97
76 6.22
77 11.61
78 1.92
87 1.04
88 1.87
89 17
90 15.76
91 1.92
103 10.78
104 14.41
105 1.3
116 6.22
117 53
118 6.01
143 7.46
144 70
145 8.4
171 4.72
172 99.99
173 14.1
174 0.98

>  <PREDICTED SPECTRUM>  (1002) 
27 4
37 29
38 73
39 190
40 107
41 116
42 114
43 113
44 25
49 35
50 266
51 338
52 168
55 22
61 76
62 203
63 268
64 141
65 71
66 36
67 64
68 115
69 140
74 159
75 185
76 384
77 408
78 39
84 20
86 28
87 48
88 127
89 446
90 309
91 102
95 21
102 160
103 264
104 355
105 104
115 176
116 408
117 399
118 231
143 217
144 585
145 285
146 38
170 30
171 615
172 999
173 339
174 23

$$$$

     RDKit          2D

 12 12  0  0  0  0  0  0  0  0999 V2000
   -2.5989    1.5002    0.0000 C   0  0  0  0  0  0  0  0  0  0  0  0
   -2.5989   -1.5002    0.0000 C   0  0  0  0  0  0  0  0  0  0  0  0
    2.5989    1.5002    0.0000 C   0  0  0  0  0  0  0  0  0  0  0  0
    2.5989   -1.5002    0.0000 C   0  0  0  0  0  0  0  0  0  0  0  0
   -1.3000    0.7500    0.0000 C   0  0  0  0  0  0  0  0  0  0  0  0
   -1.3000   -0.7500    0.0000 C   0  0  0  0  0  0  0  0  0  0  0  0
    1.3000    0.7500    0.0000 C   0  0  0  0  0  0  0  0  0  0  0  0
    1.3000   -0.7500    0.0000 C   0  0  0  0  0  0  0  0  0  0  0  0
    0.0000    1.5000    0.0000 C   0  0  0  0  0  0  0  0  0  0  0  0
   -0.0000   -1.5000    0.0000 C   0  0  0  0  0  0  0  0  0  0  0  0
    0.0000    3.0000    0.0000 O   0  0  0  0  0  0  0  0  0  0  0  0
   -0.0000   -3.0000    0.0000 O   0  0  0  0  0  0  0  0  0  0  0  0
  5  1  1  0
  6  2  1  0
  6  5  2  0
  7  3  1  0
  8  4  1  0
  8  7  2  0
  9  5  1  0
  9  7  1  0
 10  6  1  0
 10  8  1  0
 11  9  2  0
 12 10  2  0
M  END
>  <NAME>  (1003) 
DUROQUINONE

>  <SYNONYMS>  (1003) 
TETRAMETHYL-1,4-BENZOQUINONE

>  <SPECTRUM TYPE>  (1003) 
MS1

>  <INSTRUMENT TYPE>  (1003) 
EI-B

>  <INSTRUMENT>  (1003) 
HITACHI M-80

>  <ION MODE>  (1003) 
P

>  <INCHIKEY>  (1003) 
WAMKWBHYPYBEJY-UHFFFAOYSA-N

>  <FORMULA>  (1003) 
C10H12O2

>  <EXACT MASS>  (1003) 
164.083729624

>  <MW>  (1003) 
164

>  <ID>  (1003) 
JP010556

>  <CONTRIBUTOR>  (1003) 
University of Tokyo Team, {Faculty of Engineering, University of Tokyo

>  <COMMENT>  (1003) 
cas=527-17-3
SMILES=Cc(c(C)1)c(=O)c(C)c(C)c(=O)1
InChI=InChI=1S/C10H12O2/c1-5-6(2)10(12)8(4)7(3)9(5)11/h1-4H3
computed SMILES=O=C1C(=C(C(=O)C(=C1C)C)C)C
accession=JP010556
date=2016.01.19 (Created 2008.10.21, modified 2011.05.06)
author=NARA WOMEN'S UNIVERSITY
license=CC BY-NC-SA
exact mass=164.08373
ionization energy=70 eV
ion type=[M]+*
computed spectral entropy=3.2696610775252477
computed normalized entropy=0.8235316567944655
SPLASH=splash10-0h2r-9600000000-31ed0fd06f2ea5d82f03
submitter=submitter = University of Tokyo Team (Faculty of Engineering, University of Tokyo)
MoNA Rating=3.75

>  <NUM PEAKS>  (1003) 
53

>  <MASS SPECTRAL PEAKS>  (1003) 
15 2.4
17 1.7
18 7.5
26 4.3
27 40.4
28 16.2
29 5.2
32 2.1
38 3.5
39 42.8
40 3.1
41 6.9
43 5.5
50 11.2
51 21.7
52 15.3
53 42.6
54 53.6
55 9.1
62 1.4
63 3.9
64 1.1
65 6.8
66 3
67 10
77 14.5
78 3.3
79 6.5
80 1.7
81 1.8
82 15.4
83 3.8
91 20.2
92 3.1
93 52
94 4.7
103 1.5
105 2.6
107 9.6
108 17.8
109 2.2
110 4.5
117 1.5
119 1.9
121 99.99
122 9.1
135 22.8
136 62.6
137 6.3
149 2.6
164 85.2
165 10.2
166 1.9

>  <PREDICTED SPECTRUM>  (1003) 
26 150
27 340
28 193
29 162
37 131
38 210
39 800
40 352
41 561
42 144
43 144
44 26
45 17
48 51
49 27
50 373
51 667
52 572
53 713
54 502
55 130
56 70
58 44
59 73
60 29
62 135
63 294
64 174
65 662
66 321
67 762
68 181
69 7
73 4
74 126
75 74
76 24
77 586
78 403
79 476
80 170
81 170
82 175
83 56
89 53
90 96
91 828
92 292
93 681
94 238
96 6
103 41
104 80
105 145
106 131
107 389
108 500
109 231
115 8
119 219
120 54
121 780
122 321
134 58
135 478
136 977
137 385
138 37
149 125
150 39
163 61
164 999
165 320
166 78

$$$$

     RDKit          2D

  7  7  0  0  0  0  0  0  0  0999 V2000
   -0.0000   -1.9300    0.0000 C   0  0  0  0  0  0  0  0  0  0  0  0
    0.0000    2.5700    0.0000 C   0  0  0  0  0  0  0  0  0  0  0  0
   -1.3000    1.8200    0.0000 C   0  0  0  0  0  0  0  0  0  0  0  0
    1.3000    1.8200    0.0000 C   0  0  0  0  0  0  0  0  0  0  0  0
   -1.3000    0.3200    0.0000 C   0  0  0  0  0  0  0  0  0  0  0  0
    1.3000    0.3200    0.0000 C   0  0  0  0  0  0  0  0  0  0  0  0
   -0.0000   -0.4300    0.0000 C   0  0  0  0  0  0  0  0  0  0  0  0
  3  2  1  0
  4  2  1  0
  5  3  1  0
  6  4  1  0
  7  1  2  0
  7  5  1  0
  7  6  1  0
M  END
>  <NAME>  (1004) 
METHYLENECYCLOHEXANE

>  <SYNONYMS>  (1004) 


>  <SPECTRUM TYPE>  (1004) 
MS1

>  <INSTRUMENT TYPE>  (1004) 
EI-B

>  <INSTRUMENT>  (1004) 
HITACHI M-80

>  <ION MODE>  (1004) 
P

>  <INCHIKEY>  (1004) 
YULMNMJFAZWLLN-UHFFFAOYSA-N

>  <FORMULA>  (1004) 
C7H12

>  <EXACT MASS>  (1004) 
96.093900384

>  <MW>  (1004) 
96

>  <ID>  (1004) 
JP010554

>  <CONTRIBUTOR>  (1004) 
University of Tokyo Team, {Faculty of Engineering, University of Tokyo

>  <COMMENT>  (1004) 
SMILES=C=C(C1)CCCC1
cas=1192-37-6
InChI=InChI=1S/C7H12/c1-7-5-3-2-4-6-7/h1-6H2
computed SMILES=C=C1CCCCC1
accession=JP010554
date=2016.01.19 (Created 2008.10.21, modified 2011.05.06)
author=NARA WOMEN'S UNIVERSITY
license=CC BY-NC-SA
exact mass=96.0939
ionization energy=70 eV
ion type=[M]+*
computed spectral entropy=2.9585198775907546
computed normalized entropy=0.8255906912732477
SPLASH=splash10-0159-9000000000-eb9a896d633009d80487
submitter=submitter = University of Tokyo Team (Faculty of Engineering, University of Tokyo)
MoNA Rating=3.75

>  <NUM PEAKS>  (1004) 
36

>  <MASS SPECTRAL PEAKS>  (1004) 
15 3.2
18 1.5
26 4
27 28.6
28 9.7
29 11.2
38 5.2
39 52
40 12.7
41 32.5
42 6.5
50 5.1
51 9.9
52 5
53 25.9
54 37.4
55 35.6
56 3
62 1.7
63 3.5
65 7.6
66 7.4
67 74.4
68 52.4
69 3.8
77 6.5
78 2
79 12.1
80 2.2
81 99.99
82 7.5
83 1.5
91 3.1
95 7.4
96 44.9
97 3.7

>  <PREDICTED SPECTRUM>  (1004) 
15 2
25 10
26 102
27 353
28 137
29 202
37 51
38 109
39 611
40 305
41 699
42 311
43 154
44 42
50 153
51 264
52 201
53 520
54 602
55 518
56 196
57 33
62 44
63 131
64 55
65 289
66 244
67 999
68 674
69 220
70 40
77 348
78 181
79 538
80 84
81 739
82 212
91 211
92 22
93 114
94 4
95 146
96 328
97 70

$$$$

     RDKit          2D

 12 12  0  0  0  0  0  0  0  0999 V2000
   -3.2527   -0.3801    0.0000 C   0  0  0  0  0  0  0  0  0  0  0  0
    0.6489   -2.6180    0.0000 C   0  0  0  0  0  0  0  0  0  0  0  0
   -0.6501   -1.8680    0.0000 C   0  0  0  0  0  0  0  0  0  0  0  0
    1.9435   -1.8758    0.0000 C   0  0  0  0  0  0  0  0  0  0  0  0
    0.6449    0.3750    0.0000 C   0  0  0  0  0  0  0  0  0  0  0  0
   -1.9549    0.3720    0.0000 C   0  0  0  0  0  0  0  0  0  0  0  0
   -0.6546   -0.3758    0.0000 C   0  0  0  0  0  0  0  0  0  0  0  0
    1.9439   -0.3750    0.0000 C   0  0  0  0  0  0  0  0  0  0  0  0
    3.2431    0.3748    0.0000 N   0  0  0  0  0  0  0  0  0  0  0  0
   -1.9574    1.8720    0.0000 O   0  0  0  0  0  0  0  0  0  0  0  0
    4.5420   -0.3754    0.0000 O   0  0  0  0  0  0  0  0  0  0  0  0
    3.2433    1.8748    0.0000 O   0  0  0  0  0  0  0  0  0  0  0  0
  3  2  2  0
  4  2  1  0
  6  1  1  0
  7  3  1  0
  7  5  2  0
  7  6  1  0
  8  4  2  0
  8  5  1  0
  9  8  1  0
 10  6  2  0
 11  9  1  0
 12  9  2  0
M  CHG  2   9   1  11  -1
M  END
>  <NAME>  (1005) 
3'-NITROACETOPHENONE

>  <SYNONYMS>  (1005) 


>  <SPECTRUM TYPE>  (1005) 
MS1

>  <INSTRUMENT TYPE>  (1005) 
EI-B

>  <INSTRUMENT>  (1005) 
HITACHI M-80

>  <ION MODE>  (1005) 
P

>  <INCHIKEY>  (1005) 
ARKIFHPFTHVKDT-UHFFFAOYSA-N

>  <FORMULA>  (1005) 
C8H7NO3

>  <EXACT MASS>  (1005) 
165.04259308399998

>  <MW>  (1005) 
165

>  <ID>  (1005) 
JP010553

>  <CONTRIBUTOR>  (1005) 
University of Tokyo Team, {Faculty of Engineering, University of Tokyo

>  <COMMENT>  (1005) 
SMILES=CC(=O)c(c1)cc(cc1)[N+1]([O-1])=O
cas=121-89-1
InChI=InChI=1S/C8H7NO3/c1-6(10)7-3-2-4-8(5-7)9(11)12/h2-5H,1H3
computed SMILES=O=C(C1=CC=CC(=C1)N(=O)=O)C
accession=JP010553
date=2016.01.19 (Created 2008.10.21, modified 2011.05.06)
author=NARA WOMEN'S UNIVERSITY
license=CC BY-NC-SA
exact mass=165.04259
ionization energy=70 eV
ion type=[M]+*
computed spectral entropy=2.598674765996327
computed normalized entropy=0.7498190395572377
SPLASH=splash10-0udi-7900000000-3c92945b62ca79c2b5e9
submitter=submitter = University of Tokyo Team (Faculty of Engineering, University of Tokyo)
MoNA Rating=3.75

>  <NUM PEAKS>  (1005) 
32

>  <MASS SPECTRAL PEAKS>  (1005) 
15 2.58
30 3.43
37 1.07
38 1.98
39 2.95
42 1.62
43 30.66
46 1.43
50 14.42
51 5.86
61 1.14
62 2.32
63 4.83
64 2.37
65 3.72
73 1.13
74 7.32
75 9.32
76 23.27
77 7.08
89 2.37
90 1.14
91 6.78
92 5.19
104 30.51
105 2.51
119 1.39
122 2.2
150 99.99
151 8.16
165 23.19
166 2.41

>  <PREDICTED SPECTRUM>  (1005) 
14 29
15 101
26 46
27 99
28 23
29 57
30 47
37 94
38 147
39 225
40 89
41 97
42 54
43 699
44 52
46 64
49 57
50 400
51 322
52 140
53 144
54 12
57 35
61 198
62 244
63 350
64 226
65 247
66 111
67 30
73 64
74 231
75 324
76 473
77 310
78 190
79 103
87 51
88 15
89 249
90 176
91 212
92 237
93 103
94 49
103 77
104 592
105 241
106 113
107 91
118 90
119 138
120 223
121 71
122 177
123 45
134 2
135 34
149 46
150 999
151 233
152 39
165 372
166 119

$$$$

     RDKit          2D

 19 18  0  0  0  0  0  0  0  0999 V2000
  -16.2380   10.1250    0.0000 C   0  0  0  0  0  0  0  0  0  0  0  0
    5.8457    9.3750    0.0000 C   0  0  0  0  0  0  0  0  0  0  0  0
  -14.9389    9.3750    0.0000 C   0  0  0  0  0  0  0  0  0  0  0  0
    4.5466   10.1250    0.0000 C   0  0  0  0  0  0  0  0  0  0  0  0
  -13.6399   10.1250    0.0000 C   0  0  0  0  0  0  0  0  0  0  0  0
  -12.3409    9.3750    0.0000 C   0  0  0  0  0  0  0  0  0  0  0  0
  -11.0418   10.1250    0.0000 C   0  0  0  0  0  0  0  0  0  0  0  0
   -9.7428    9.3750    0.0000 C   0  0  0  0  0  0  0  0  0  0  0  0
   -8.4437   10.1250    0.0000 C   0  0  0  0  0  0  0  0  0  0  0  0
   -7.1447    9.3750    0.0000 C   0  0  0  0  0  0  0  0  0  0  0  0
   -5.8457   10.1250    0.0000 C   0  0  0  0  0  0  0  0  0  0  0  0
   -4.5466    9.3750    0.0000 C   0  0  0  0  0  0  0  0  0  0  0  0
   -3.2476   10.1250    0.0000 C   0  0  0  0  0  0  0  0  0  0  0  0
   -1.9486    9.3750    0.0000 C   0  0  0  0  0  0  0  0  0  0  0  0
   -0.6495   10.1250    0.0000 C   0  0  0  0  0  0  0  0  0  0  0  0
    0.6495    9.3750    0.0000 C   0  0  0  0  0  0  0  0  0  0  0  0
    1.9486   10.1250    0.0000 C   0  0  0  0  0  0  0  0  0  0  0  0
    3.2476    9.3750    0.0000 C   0  0  0  0  0  0  0  0  0  0  0  0
    3.2476    7.8750    0.0000 O   0  0  0  0  0  0  0  0  0  0  0  0
  3  1  1  0
  4  2  1  0
  5  3  1  0
  6  5  1  0
  7  6  1  0
  8  7  1  0
  9  8  1  0
 10  9  1  0
 11 10  1  0
 12 11  1  0
 13 12  1  0
 14 13  1  0
 15 14  1  0
 16 15  1  0
 17 16  1  0
 18  4  1  0
 18 17  1  0
 19 18  2  0
M  END
>  <NAME>  (1006) 
3-OCTADECANONE

>  <SYNONYMS>  (1006) 


>  <SPECTRUM TYPE>  (1006) 
MS1

>  <INSTRUMENT TYPE>  (1006) 
EI-B

>  <INSTRUMENT>  (1006) 
HITACHI M-80

>  <ION MODE>  (1006) 
P

>  <INCHIKEY>  (1006) 
LMCGARAPKXJPNG-UHFFFAOYSA-N

>  <FORMULA>  (1006) 
C18H36O

>  <EXACT MASS>  (1006) 
268.276615772

>  <MW>  (1006) 
268

>  <ID>  (1006) 
JP010552

>  <CONTRIBUTOR>  (1006) 
University of Tokyo Team, {Faculty of Engineering, University of Tokyo

>  <COMMENT>  (1006) 
SMILES=CCCCCCCCCCCCCCCC(=O)CC
cas=18261-92-2
InChI=InChI=1S/C18H36O/c1-3-5-6-7-8-9-10-11-12-13-14-15-16-17-18(19)4-2/h3-17H2,1-2H3
computed SMILES=O=C(CC)CCCCCCCCCCCCCCC
accession=JP010552
date=2016.01.19 (Created 2008.10.21, modified 2011.05.06)
author=NARA WOMEN'S UNIVERSITY
license=CC BY-NC-SA
exact mass=268.27662
ionization energy=70 eV
ion type=[M]+*
computed spectral entropy=3.1334644164342897
computed normalized entropy=0.7892277154076706
SPLASH=splash10-05fu-9000000000-3ebafbf15bd2cfe4f9ed
submitter=submitter = University of Tokyo Team (Faculty of Engineering, University of Tokyo)
MoNA Rating=3.75

>  <NUM PEAKS>  (1006) 
53

>  <MASS SPECTRAL PEAKS>  (1006) 
18 3.03
27 10.12
28 4.9
29 41.36
39 5.6
40 1.19
41 37.84
42 8.95
43 49.48
44 1.57
53 2.81
54 2.82
55 28.91
56 7.99
57 84.3
58 3.95
59 1.03
67 5.31
68 2.42
69 12.97
70 4.11
71 20.79
72 99.99
73 52.93
74 2.83
81 5.63
82 2.86
83 9.97
84 3.06
85 32.94
86 2.65
95 7.36
96 4.47
97 5.98
98 2.7
99 6.53
109 4.91
110 2.52
111 2.52
113 1.71
114 3.58
123 2.42
125 1.25
127 1.48
128 1.51
137 1.24
141 1.69
194 2.86
196 1.27
239 44.78
240 8.01
268 4.57
269 2.34

>  <PREDICTED SPECTRUM>  (1006) 
15 35
18 17
26 41
27 229
28 116
29 480
30 146
31 71
32 6
38 3
39 165
40 27
41 581
42 211
43 739
44 265
45 120
51 23
52 17
53 147
54 161
55 445
56 361
57 999
58 489
59 141
65 39
66 42
67 222
68 137
69 295
70 168
71 478
72 709
73 157
75 9
77 40
79 71
80 45
81 273
82 235
83 230
84 96
85 390
86 168
87 12
94 21
95 271
96 218
97 233
98 137
99 234
100 184
101 76
109 153
110 173
111 80
113 140
114 20
122 1
123 129
124 100
125 35
127 41
128 113
136 7
137 101
138 39
139 12
141 20
151 14
152 4
153 49
161 1
165 97
166 63
181 27
183 51
193 7
194 30
196 6
211 101
212 83
213 51
224 2
239 384
240 129
241 46
250 58
268 167
269 58
270 4

$$$$

     RDKit          2D

 14 14  0  0  0  0  0  0  0  0999 V2000
   -4.2308    0.5551    0.0000 C   0  0  0  0  0  0  0  0  0  0  0  0
    6.1633    0.5619    0.0000 C   0  0  0  0  0  0  0  0  0  0  0  0
    0.9711   -2.4305    0.0000 C   0  0  0  0  0  0  0  0  0  0  0  0
   -0.3279   -1.6805    0.0000 C   0  0  0  0  0  0  0  0  0  0  0  0
    2.2656   -1.6883    0.0000 C   0  0  0  0  0  0  0  0  0  0  0  0
    0.9671    0.5625    0.0000 C   0  0  0  0  0  0  0  0  0  0  0  0
   -0.3325   -0.1883    0.0000 C   0  0  0  0  0  0  0  0  0  0  0  0
    2.2661   -0.1875    0.0000 C   0  0  0  0  0  0  0  0  0  0  0  0
   -1.6327    0.5595    0.0000 C   0  0  0  0  0  0  0  0  0  0  0  0
    3.5653    0.5623    0.0000 C   0  0  0  0  0  0  0  0  0  0  0  0
   -1.6353    2.0595    0.0000 O   0  0  0  0  0  0  0  0  0  0  0  0
    3.5655    2.0623    0.0000 O   0  0  0  0  0  0  0  0  0  0  0  0
   -2.9305   -0.1927    0.0000 O   0  0  0  0  0  0  0  0  0  0  0  0
    4.8642   -0.1879    0.0000 O   0  0  0  0  0  0  0  0  0  0  0  0
  4  3  2  0
  5  3  1  0
  7  4  1  0
  7  6  2  0
  8  5  2  0
  8  6  1  0
  9  7  1  0
 10  8  1  0
 11  9  2  0
 12 10  2  0
 13  1  1  0
 13  9  1  0
 14  2  1  0
 14 10  1  0
M  END
>  <NAME>  (1007) 
DIMETHYL ISOPHTHALATE

>  <SYNONYMS>  (1007) 


>  <SPECTRUM TYPE>  (1007) 
MS1

>  <INSTRUMENT TYPE>  (1007) 
EI-B

>  <INSTRUMENT>  (1007) 
HITACHI M-80

>  <ION MODE>  (1007) 
P

>  <INCHIKEY>  (1007) 
VNGOYPQMJFJDLV-UHFFFAOYSA-N

>  <FORMULA>  (1007) 
C10H10O4

>  <EXACT MASS>  (1007) 
194.0579088

>  <MW>  (1007) 
194

>  <ID>  (1007) 
JP010551

>  <CONTRIBUTOR>  (1007) 
University of Tokyo Team, {Faculty of Engineering, University of Tokyo

>  <COMMENT>  (1007) 
SMILES=COC(=O)c(c1)cc(cc1)C(=O)OC
cas=1459-93-4
InChI=InChI=1S/C10H10O4/c1-13-9(11)7-4-3-5-8(6-7)10(12)14-2/h3-6H,1-2H3
computed SMILES=O=C(OC)C1=CC=CC(=C1)C(=O)OC
accession=JP010551
date=2016.01.19 (Created 2008.10.21, modified 2011.05.06)
author=NARA WOMEN'S UNIVERSITY
license=CC BY-NC-SA
exact mass=194.05791
ionization energy=70 eV
ion type=[M]+*
computed spectral entropy=2.612172605148985
computed normalized entropy=0.753713692678889
SPLASH=splash10-03di-3900000000-53f81661bbecf50d929f
submitter=submitter = University of Tokyo Team (Faculty of Engineering, University of Tokyo)
MoNA Rating=3.75

>  <NUM PEAKS>  (1007) 
32

>  <MASS SPECTRAL PEAKS>  (1007) 
15 7.17
29 4.11
30 1.19
38 1.36
39 1.37
50 11.41
51 2.1
52 1.98
59 2.16
63 1.66
64 1.34
66 3.14
74 6.03
75 9.73
76 17.08
77 7.8
92 3.67
103 8.48
104 6.54
105 1.63
107 2.03
119 5.95
120 7.69
135 24.4
136 2.39
149 2
163 99.99
164 10.2
165 1.18
193 2.34
194 28.09
195 3.29

>  <PREDICTED SPECTRUM>  (1007) 
14 15
15 102
16 1
26 13
27 18
28 44
29 104
31 25
37 34
38 81
39 77
40 4
43 116
44 71
45 41
49 45
50 342
51 247
52 155
53 110
59 309
61 38
62 130
63 260
64 193
65 211
66 95
74 227
75 341
76 429
77 360
78 117
79 56
85 7
89 95
90 141
91 168
92 247
93 72
98 34
103 318
104 402
105 134
106 21
107 140
118 36
119 280
120 217
121 135
122 0
133 8
135 546
136 82
149 192
150 10
163 999
164 345
165 17
194 567
195 160

$$$$

     RDKit          2D

 13 13  0  0  0  0  0  0  0  0999 V2000
    2.5987    3.0002    0.0000 C   0  0  0  0  0  0  0  0  0  0  0  0
   -3.8981   -0.7504    0.0000 C   0  0  0  0  0  0  0  0  0  0  0  0
    2.5987   -3.0002    0.0000 C   0  0  0  0  0  0  0  0  0  0  0  0
   -1.3000    0.7500    0.0000 C   0  0  0  0  0  0  0  0  0  0  0  0
    0.0000    1.5000    0.0000 C   0  0  0  0  0  0  0  0  0  0  0  0
   -0.0000   -1.5000    0.0000 C   0  0  0  0  0  0  0  0  0  0  0  0
    2.5989    1.5002    0.0000 C   0  0  0  0  0  0  0  0  0  0  0  0
   -1.3000   -0.7500    0.0000 C   0  0  0  0  0  0  0  0  0  0  0  0
    1.3000    0.7500    0.0000 C   0  0  0  0  0  0  0  0  0  0  0  0
    1.3000   -0.7500    0.0000 C   0  0  0  0  0  0  0  0  0  0  0  0
    3.8981    0.7504    0.0000 O   0  0  0  0  0  0  0  0  0  0  0  0
   -2.5989   -1.5002    0.0000 O   0  0  0  0  0  0  0  0  0  0  0  0
    2.5989   -1.5002    0.0000 O   0  0  0  0  0  0  0  0  0  0  0  0
  5  4  2  0
  7  1  1  0
  8  4  1  0
  8  6  2  0
  9  5  1  0
  9  7  1  0
 10  6  1  0
 10  9  2  0
 11  7  2  0
 12  2  1  0
 12  8  1  0
 13  3  1  0
 13 10  1  0
M  END
>  <NAME>  (1008) 
2',4'-DIMETHOXYACETOPHENONE

>  <SYNONYMS>  (1008) 


>  <SPECTRUM TYPE>  (1008) 
MS1

>  <INSTRUMENT TYPE>  (1008) 
EI-B

>  <INSTRUMENT>  (1008) 
HITACHI M-80

>  <ION MODE>  (1008) 
P

>  <INCHIKEY>  (1008) 
VQTDPCRSXHFMOL-UHFFFAOYSA-N

>  <FORMULA>  (1008) 
C10H12O3

>  <EXACT MASS>  (1008) 
180.07864424399997

>  <MW>  (1008) 
180

>  <ID>  (1008) 
JP010550

>  <CONTRIBUTOR>  (1008) 
University of Tokyo Team, {Faculty of Engineering, University of Tokyo

>  <COMMENT>  (1008) 
SMILES=COc(c1)cc(OC)c(C(C)=O)c1
cas=829-20-9
InChI=InChI=1S/C10H12O3/c1-7(11)9-5-4-8(12-2)6-10(9)13-3/h4-6H,1-3H3
computed SMILES=O=C(C1=CC=C(OC)C=C1OC)C
accession=JP010550
date=2016.01.19 (Created 2008.10.21, modified 2011.05.06)
author=NARA WOMEN'S UNIVERSITY
license=CC BY-NC-SA
exact mass=180.07864
ionization energy=70 eV
ion type=[M]+*
computed spectral entropy=2.5952341723593686
computed normalized entropy=0.708391020279703
SPLASH=splash10-014i-3900000000-ce29bbe2c8331d6b78fd
submitter=submitter = University of Tokyo Team (Faculty of Engineering, University of Tokyo)
MoNA Rating=3.75

>  <NUM PEAKS>  (1008) 
39

>  <MASS SPECTRAL PEAKS>  (1008) 
15 4.48
39 2.21
43 8.89
50 1.9
51 4.98
52 1.19
53 1.69
62 2.26
63 6.37
64 3.08
65 2.61
66 1.4
69 1.27
74 1.09
75 1.07
76 1.14
77 6.9
78 1.97
79 5.43
91 1.53
92 4.47
94 1.64
105 1.01
106 1.23
107 7.49
109 1.73
121 1.21
122 10.81
135 4.36
137 1.92
150 4.41
151 1.03
163 2.93
165 99.99
166 10.03
167 1.07
179 1.94
180 28.18
181 4

>  <PREDICTED SPECTRUM>  (1008) 
14 18
15 109
26 0
27 7
28 8
29 31
37 18
38 60
39 103
40 35
41 32
42 1
43 372
50 97
51 184
52 92
53 152
54 44
55 38
61 26
62 84
63 174
64 109
65 138
66 91
67 52
68 2
69 55
74 20
75 38
76 60
77 283
78 108
79 200
80 72
81 26
89 56
90 15
91 67
92 86
93 61
94 90
95 72
104 20
105 94
106 73
107 245
108 66
109 152
119 105
120 30
121 72
122 224
133 105
134 107
135 167
136 48
137 48
147 18
149 33
150 213
151 279
162 37
163 149
164 49
165 999
166 348
167 105
180 451
181 143
182 23

$$$$

     RDKit          2D

 12 13  0  0  0  0  0  0  0  0999 V2000
    4.1000   -0.0000    0.0000 C   0  0  0  0  0  0  0  0  0  0  0  0
   -4.9081    0.7504    0.0000 C   0  0  0  0  0  0  0  0  0  0  0  0
   -2.3100   -0.7500    0.0000 C   0  0  0  0  0  0  0  0  0  0  0  0
   -1.0100   -1.5000    0.0000 C   0  0  0  0  0  0  0  0  0  0  0  0
    1.7200    1.2100    0.0000 C   0  0  0  0  0  0  0  0  0  0  0  0
   -1.0100    1.5000    0.0000 C   0  0  0  0  0  0  0  0  0  0  0  0
    2.6000   -0.0000    0.0000 C   0  0  0  0  0  0  0  0  0  0  0  0
    0.2900    0.7500    0.0000 C   0  0  0  0  0  0  0  0  0  0  0  0
   -2.3100    0.7500    0.0000 C   0  0  0  0  0  0  0  0  0  0  0  0
    0.2900   -0.7500    0.0000 C   0  0  0  0  0  0  0  0  0  0  0  0
    1.7200   -1.2100    0.0000 N   0  0  0  0  0  0  0  0  0  0  0  0
   -3.6089    1.5002    0.0000 O   0  0  0  0  0  0  0  0  0  0  0  0
  4  3  2  0
  7  1  1  0
  7  5  2  0
  8  5  1  0
  8  6  1  0
  9  3  1  0
  9  6  2  0
 10  4  1  0
 10  8  2  0
 11  7  1  0
 11 10  1  0
 12  2  1  0
 12  9  1  0
M  END
>  <NAME>  (1009) 
5-METHOXY-2-METHYLINDOLE

>  <SYNONYMS>  (1009) 


>  <SPECTRUM TYPE>  (1009) 
MS1

>  <INSTRUMENT TYPE>  (1009) 
EI-B

>  <INSTRUMENT>  (1009) 
HITACHI M-80

>  <ION MODE>  (1009) 
P

>  <INCHIKEY>  (1009) 
VSWGLJOQFUMFOQ-UHFFFAOYSA-N

>  <FORMULA>  (1009) 
C10H11NO

>  <EXACT MASS>  (1009) 
161.084063972

>  <MW>  (1009) 
161

>  <ID>  (1009) 
JP010549

>  <CONTRIBUTOR>  (1009) 
University of Tokyo Team, {Faculty of Engineering, University of Tokyo

>  <COMMENT>  (1009) 
SMILES=CC1=CC2=C(N1)C=CC(=C2)OC
cas=1076-74-0
InChI=InChI=1S/C10H11NO/c1-7-5-8-6-9(12-2)3-4-10(8)11-7/h3-6,11H,1-2H3
computed SMILES=O(C=1C=CC=2NC(=CC2C1)C)C
accession=JP010549
date=2016.01.19 (Created 2008.10.21, modified 2011.05.06)
author=NARA WOMEN'S UNIVERSITY
license=CC BY-NC-SA
exact mass=161.08406
ionization energy=70 eV
ion type=[M]+*
computed spectral entropy=2.4063917403373707
computed normalized entropy=0.6824009410096554
SPLASH=splash10-03xs-1900000000-03650975a10ce75a7f7f
submitter=submitter = University of Tokyo Team (Faculty of Engineering, University of Tokyo)
MoNA Rating=3.75

>  <NUM PEAKS>  (1009) 
34

>  <MASS SPECTRAL PEAKS>  (1009) 
40 1.58
51 1.08
52 1.6
53 1.66
62 1.47
63 2.78
64 1.38
65 2.38
74 1
75 1.25
76 2.39
77 2.88
78 1.25
81 2.49
89 4.39
90 4.12
91 6.57
102 1.92
103 2.87
116 3.48
117 21.85
118 53.71
119 5.02
128 1.51
129 1
130 5.59
131 1.51
132 2.72
145 2.57
146 63.39
147 6.73
160 8.57
161 99.99
162 11.29

>  <PREDICTED SPECTRUM>  (1009) 
15 56
26 21
27 36
37 49
38 108
39 217
40 108
41 157
42 197
43 101
44 85
49 32
50 229
51 330
52 266
53 189
54 98
55 81
57 18
59 9
61 59
62 198
63 291
64 201
65 214
66 132
67 79
68 28
69 21
72 29
73 43
74 141
75 179
76 208
77 342
78 250
79 129
80 116
81 22
86 60
87 68
88 83
89 233
90 247
91 310
92 167
93 74
100 27
101 92
102 145
103 194
104 178
105 123
106 70
107 45
114 1
115 51
116 168
117 255
118 505
119 230
120 64
121 25
128 47
129 67
130 194
131 166
132 181
133 79
134 59
144 95
145 148
146 641
147 228
148 23
158 56
159 48
160 784
161 999
162 333
163 66

$$$$

     RDKit          2D

 11 12  0  0  0  0  0  0  0  0999 V2000
    2.1853    2.6360    0.0000 C   0  0  0  0  0  0  0  0  0  0  0  0
    4.1000   -0.0000    0.0000 C   0  0  0  0  0  0  0  0  0  0  0  0
   -2.3100    0.7500    0.0000 C   0  0  0  0  0  0  0  0  0  0  0  0
   -2.3100   -0.7500    0.0000 C   0  0  0  0  0  0  0  0  0  0  0  0
   -1.0100    1.5000    0.0000 C   0  0  0  0  0  0  0  0  0  0  0  0
   -1.0100   -1.5000    0.0000 C   0  0  0  0  0  0  0  0  0  0  0  0
    1.7200    1.2100    0.0000 C   0  0  0  0  0  0  0  0  0  0  0  0
    2.6000   -0.0000    0.0000 C   0  0  0  0  0  0  0  0  0  0  0  0
    0.2900    0.7500    0.0000 C   0  0  0  0  0  0  0  0  0  0  0  0
    0.2900   -0.7500    0.0000 C   0  0  0  0  0  0  0  0  0  0  0  0
    1.7200   -1.2100    0.0000 N   0  0  0  0  0  0  0  0  0  0  0  0
  4  3  2  0
  5  3  1  0
  6  4  1  0
  7  1  1  0
  8  2  1  0
  8  7  2  0
  9  5  2  0
  9  7  1  0
 10  6  2  0
 10  9  1  0
 11  8  1  0
 11 10  1  0
M  END
>  <NAME>  (1010) 
2,3-DIMETHYLINDOLE

>  <SYNONYMS>  (1010) 


>  <SPECTRUM TYPE>  (1010) 
MS1

>  <INSTRUMENT TYPE>  (1010) 
EI-B

>  <INSTRUMENT>  (1010) 
HITACHI M-80

>  <ION MODE>  (1010) 
P

>  <INCHIKEY>  (1010) 
PYFVEIDRTLBMHG-UHFFFAOYSA-N

>  <FORMULA>  (1010) 
C10H11N

>  <EXACT MASS>  (1010) 
145.089149352

>  <MW>  (1010) 
145

>  <ID>  (1010) 
JP010548

>  <CONTRIBUTOR>  (1010) 
University of Tokyo Team, {Faculty of Engineering, University of Tokyo

>  <COMMENT>  (1010) 
SMILES=CC1=C(NC2=CC=CC=C12)C
cas=91-55-4
InChI=InChI=1S/C10H11N/c1-7-8(2)11-10-6-4-3-5-9(7)10/h3-6,11H,1-2H3
computed SMILES=C=1C=CC2=C(C1)NC(=C2C)C
accession=JP010548
date=2016.01.19 (Created 2008.10.21, modified 2011.05.06)
author=NARA WOMEN'S UNIVERSITY
license=CC BY-NC-SA
exact mass=145.08915
ionization energy=70 eV
ion type=[M]+*
computed spectral entropy=2.444346101722999
computed normalized entropy=0.6769320601733199
SPLASH=splash10-0007-1900000000-022d59f2d66769ee97b5
submitter=submitter = University of Tokyo Team (Faculty of Engineering, University of Tokyo)
MoNA Rating=3.75

>  <NUM PEAKS>  (1010) 
37

>  <MASS SPECTRAL PEAKS>  (1010) 
40 1.74
51 1.75
52 3.18
53 1.48
59 1.83
62 1.16
63 2.79
64 1.2
65 3.69
71 1.21
72 4.78
73 2.74
74 1.87
75 2.69
76 2.74
77 9.39
78 1.77
89 2.11
90 1.23
91 2.22
101 1.69
102 5.34
103 5.44
104 1.63
115 7.65
116 2.62
117 3.59
127 1.09
128 4.38
129 1.76
130 43.6
131 4.85
142 2.94
143 12.77
144 99.99
145 82.78
146 8.47

>  <PREDICTED SPECTRUM>  (1010) 
36 0
37 7
38 31
39 116
40 37
41 20
42 61
50 139
51 210
52 125
53 52
54 7
62 72
63 158
64 104
65 145
66 66
74 87
75 137
76 135
77 280
78 129
85 4
86 25
87 3
89 80
90 72
91 38
92 70
101 42
102 157
103 133
104 83
114 19
115 217
116 102
117 208
118 64
119 0
127 20
128 118
129 229
130 448
131 162
142 160
143 197
144 999
145 891
146 265
147 19

$$$$

     RDKit          2D

 11 12  0  0  0  0  0  0  0  0999 V2000
   -2.5200    0.5000    0.0000 C   0  0  0  0  0  0  0  0  0  0  0  0
   -2.5300   -1.0000    0.0000 C   0  0  0  0  0  0  0  0  0  0  0  0
   -1.2200    1.2400    0.0000 C   0  0  0  0  0  0  0  0  0  0  0  0
   -1.2300   -1.7600    0.0000 C   0  0  0  0  0  0  0  0  0  0  0  0
    2.3800   -0.2700    0.0000 C   0  0  0  0  0  0  0  0  0  0  0  0
    1.9684    2.3650    0.0000 C   0  0  0  0  0  0  0  0  0  0  0  0
    1.5000    0.9400    0.0000 C   0  0  0  0  0  0  0  0  0  0  0  0
    0.0800    0.4900    0.0000 C   0  0  0  0  0  0  0  0  0  0  0  0
    0.0700   -1.0100    0.0000 C   0  0  0  0  0  0  0  0  0  0  0  0
    1.5000   -1.4800    0.0000 N   0  0  0  0  0  0  0  0  0  0  0  0
    3.4366    2.6719    0.0000 O   0  0  0  0  0  0  0  0  0  0  0  0
  2  1  2  0
  3  1  1  0
  4  2  1  0
  7  5  2  0
  7  6  1  0
  8  3  2  0
  8  7  1  0
  9  4  2  0
  9  8  1  0
 10  5  1  0
 10  9  1  0
 11  6  2  0
M  END
>  <NAME>  (1011) 
INDOLE-3-CARBALDEHYDE

>  <SYNONYMS>  (1011) 


>  <SPECTRUM TYPE>  (1011) 
MS1

>  <INSTRUMENT TYPE>  (1011) 
EI-B

>  <INSTRUMENT>  (1011) 
HITACHI M-80

>  <ION MODE>  (1011) 
P

>  <INCHIKEY>  (1011) 
OLNJUISKUQQNIM-UHFFFAOYSA-N

>  <FORMULA>  (1011) 
C9H7NO

>  <EXACT MASS>  (1011) 
145.052763844

>  <MW>  (1011) 
145

>  <ID>  (1011) 
JP010547

>  <CONTRIBUTOR>  (1011) 
University of Tokyo Team, {Faculty of Engineering, University of Tokyo

>  <COMMENT>  (1011) 
SMILES=C1=CC=C2C(=C1)C(=CN2)C=O
cas=487-89-8
InChI=InChI=1S/C9H7NO/c11-6-7-5-10-9-4-2-1-3-8(7)9/h1-6,10H
computed SMILES=O=CC1=CNC=2C=CC=CC12
accession=JP010547
date=2016.01.19 (Created 2008.10.21, modified 2011.05.06)
author=NARA WOMEN'S UNIVERSITY
license=CC BY-NC-SA
exact mass=145.05276
ionization energy=70 eV
ion type=[M]+*
computed spectral entropy=2.1825358948371147
computed normalized entropy=0.6481568608855734
SPLASH=splash10-0007-2900000000-c43b940db5ef735c79d6
submitter=submitter = University of Tokyo Team (Faculty of Engineering, University of Tokyo)
MoNA Rating=3.75

>  <NUM PEAKS>  (1011) 
29

>  <MASS SPECTRAL PEAKS>  (1011) 
28 1.14
29 3.49
39 1.44
40 1.96
51 1.73
52 1.56
53 1.26
61 2.19
62 5.89
63 8.68
64 1.95
65 1.06
74 1.89
75 1.34
76 1.1
85 1.12
86 2.22
87 3.57
88 3.94
89 23.46
90 5.38
114 1.72
115 3.37
116 25.88
117 4.89
143 1.52
144 99.99
145 83.21
146 8.72

>  <PREDICTED SPECTRUM>  (1011) 
25 5
26 34
27 43
28 37
29 78
34 2
36 47
37 123
38 160
39 250
40 93
41 100
44 34
49 97
50 249
51 280
52 204
53 96
54 47
55 19
57 77
58 97
60 19
61 220
62 324
63 424
64 238
65 252
66 75
67 16
68 8
69 5
70 81
71 17
73 52
74 182
75 148
76 110
77 136
78 76
79 12
84 6
85 61
86 170
87 170
88 225
89 537
90 349
91 164
92 16
98 6
99 11
114 209
115 292
116 548
117 359
118 94
143 21
144 999
145 948
146 324
147 67

$$$$

     RDKit          2D

 15 15  0  0  0  0  0  0  0  0999 V2000
   -2.5989    1.5002    0.0000 C   0  0  0  0  0  0  0  0  0  0  0  0
    0.0000    3.0000    0.0000 C   0  0  0  0  0  0  0  0  0  0  0  0
    2.5989   -1.5002    0.0000 C   0  0  0  0  0  0  0  0  0  0  0  0
   -5.1970   -1.5006    0.0000 C   0  0  0  0  0  0  0  0  0  0  0  0
   -1.3000    0.7500    0.0000 C   0  0  0  0  0  0  0  0  0  0  0  0
    0.0000    1.5000    0.0000 C   0  0  0  0  0  0  0  0  0  0  0  0
    1.3000   -0.7500    0.0000 C   0  0  0  0  0  0  0  0  0  0  0  0
   -1.3000   -0.7500    0.0000 C   0  0  0  0  0  0  0  0  0  0  0  0
    1.3000    0.7500    0.0000 C   0  0  0  0  0  0  0  0  0  0  0  0
   -0.0000   -1.5000    0.0000 C   0  0  0  0  0  0  0  0  0  0  0  0
   -2.5989   -1.5002    0.0000 C   0  0  0  0  0  0  0  0  0  0  0  0
    2.5989    1.5002    0.0000 O   0  0  0  0  0  0  0  0  0  0  0  0
   -0.0000   -3.0000    0.0000 O   0  0  0  0  0  0  0  0  0  0  0  0
   -2.5987   -3.0002    0.0000 O   0  0  0  0  0  0  0  0  0  0  0  0
   -3.8981   -0.7504    0.0000 O   0  0  0  0  0  0  0  0  0  0  0  0
  5  1  1  0
  6  2  1  0
  6  5  2  0
  7  3  1  0
  8  5  1  0
  9  6  1  0
  9  7  2  0
 10  7  1  0
 10  8  2  0
 11  8  1  0
 12  9  1  0
 13 10  1  0
 14 11  2  0
 15  4  1  0
 15 11  1  0
M  END
>  <NAME>  (1012) 
METHYL 2,4-DIHYDROXY-3,5,6-TRIMETHYLBENZOATE

>  <SYNONYMS>  (1012) 


>  <SPECTRUM TYPE>  (1012) 
MS1

>  <INSTRUMENT TYPE>  (1012) 
EI-B

>  <INSTRUMENT>  (1012) 
HITACHI M-80

>  <ION MODE>  (1012) 
P

>  <INCHIKEY>  (1012) 
DMSHNIHYQFQGGG-UHFFFAOYSA-N

>  <FORMULA>  (1012) 
C11H14O4

>  <EXACT MASS>  (1012) 
210.089208928

>  <MW>  (1012) 
210

>  <ID>  (1012) 
JP010546

>  <CONTRIBUTOR>  (1012) 
University of Tokyo Team, {Faculty of Engineering, University of Tokyo

>  <COMMENT>  (1012) 
SMILES=COC(=O)c(c(C)1)c(O)c(C)c(O)c(C)1
cas=34874-78-7
InChI=InChI=1S/C11H14O4/c1-5-6(2)9(12)7(3)10(13)8(5)11(14)15-4/h12-13H,1-4H3
computed SMILES=O=C(OC)C=1C(O)=C(C(O)=C(C1C)C)C
accession=JP010546
date=2016.01.19 (Created 2008.10.21, modified 2011.05.06)
author=NARA WOMEN'S UNIVERSITY
license=CC BY-NC-SA
exact mass=210.08921
ionization energy=70 eV
ion type=[M]+*
computed spectral entropy=3.2455022044453625
computed normalized entropy=0.8027358520693819
SPLASH=splash10-0fb9-5910000000-c73bcc67a2822c291493
submitter=submitter = University of Tokyo Team (Faculty of Engineering, University of Tokyo)
MoNA Rating=3.75

>  <NUM PEAKS>  (1012) 
57

>  <MASS SPECTRAL PEAKS>  (1012) 
15 8.05
18 3.37
27 6.46
28 2
29 3.12
31 3.42
33 3.2
39 10.32
40 1.87
41 6.05
43 6.91
50 1.23
51 5.19
52 2.5
53 8.04
54 1.3
55 7.18
59 1.09
63 3.54
64 1.42
65 7.97
66 4.01
67 10.24
69 1.73
77 17.55
78 4.95
79 11.01
80 1.52
81 1.61
83 8.47
89 1.59
91 11.86
92 2.5
93 7.54
94 3.55
95 2.05
103 2.11
104 1.68
105 3.7
107 15.51
108 2.41
120 1.09
121 9.74
122 6.29
123 2.87
135 2.63
149 17.74
150 99.99
151 10.86
152 1.11
176 1.09
177 6.94
178 79.1
179 23.61
180 2.65
210 36.12
211 4.5

>  <PREDICTED SPECTRUM>  (1012) 
27 62
28 9
29 54
32 11
33 22
38 7
39 176
40 84
41 293
42 101
43 189
44 95
50 80
51 224
52 173
53 201
54 121
55 284
56 18
59 94
63 147
64 127
65 308
66 147
67 265
68 66
69 106
77 329
78 185
79 323
80 101
81 68
82 45
83 158
84 5
85 8
90 55
91 383
92 211
93 274
94 90
95 58
103 8
104 48
105 91
106 104
107 253
108 73
117 29
118 204
119 71
120 198
121 322
122 134
123 11
132 0
133 44
134 28
135 204
136 116
146 200
147 257
148 159
149 322
150 705
151 232
152 46
163 58
165 54
178 999
179 465
180 77
210 607
211 218

$$$$

     RDKit          2D

 13 13  0  0  0  0  0  0  0  0999 V2000
   -3.8981   -0.7504    0.0000 C   0  0  0  0  0  0  0  0  0  0  0  0
    2.5987   -3.0002    0.0000 C   0  0  0  0  0  0  0  0  0  0  0  0
   -1.3000    0.7500    0.0000 C   0  0  0  0  0  0  0  0  0  0  0  0
    0.0000    1.5000    0.0000 C   0  0  0  0  0  0  0  0  0  0  0  0
   -0.0000   -1.5000    0.0000 C   0  0  0  0  0  0  0  0  0  0  0  0
   -1.3000   -0.7500    0.0000 C   0  0  0  0  0  0  0  0  0  0  0  0
    1.3000    0.7500    0.0000 C   0  0  0  0  0  0  0  0  0  0  0  0
    1.3000   -0.7500    0.0000 C   0  0  0  0  0  0  0  0  0  0  0  0
    2.5989    1.5002    0.0000 N   0  0  0  0  0  0  0  0  0  0  0  0
    2.5987    3.0002    0.0000 O   0  0  0  0  0  0  0  0  0  0  0  0
    3.8981    0.7504    0.0000 O   0  0  0  0  0  0  0  0  0  0  0  0
   -2.5989   -1.5002    0.0000 O   0  0  0  0  0  0  0  0  0  0  0  0
    2.5989   -1.5002    0.0000 O   0  0  0  0  0  0  0  0  0  0  0  0
  4  3  2  0
  6  3  1  0
  6  5  2  0
  7  4  1  0
  8  5  1  0
  8  7  2  0
  9  7  1  0
 10  9  1  0
 11  9  2  0
 12  1  1  0
 12  6  1  0
 13  2  1  0
 13  8  1  0
M  CHG  2   9   1  10  -1
M  END
>  <NAME>  (1013) 
1,3-DIMETHOXY-4-NITROBENZENE

>  <SYNONYMS>  (1013) 


>  <SPECTRUM TYPE>  (1013) 
MS1

>  <INSTRUMENT TYPE>  (1013) 
EI-B

>  <INSTRUMENT>  (1013) 
HITACHI M-80

>  <ION MODE>  (1013) 
P

>  <INCHIKEY>  (1013) 
XXWIYOBCHKCWNT-UHFFFAOYSA-N

>  <FORMULA>  (1013) 
C8H9NO4

>  <EXACT MASS>  (1013) 
183.053157768

>  <MW>  (1013) 
183

>  <ID>  (1013) 
JP010545

>  <CONTRIBUTOR>  (1013) 
University of Tokyo Team, {Faculty of Engineering, University of Tokyo

>  <COMMENT>  (1013) 
SMILES=COc(c1)cc(OC)c(c1)[N+1]([O-1])=O
InChI=InChI=1S/C8H9NO4/c1-12-6-3-4-7(9(10)11)8(5-6)13-2/h3-5H,1-2H3
computed SMILES=O=N(=O)C1=CC=C(OC)C=C1OC
accession=JP010545
date=2016.01.19 (Created 2008.10.21, modified 2011.05.06)
author=NARA WOMEN'S UNIVERSITY
license=CC BY-NC-SA
exact mass=183.05316
ionization energy=70 eV
ion type=[M]+*
computed spectral entropy=3.5638283173818013
computed normalized entropy=0.8388448413708725
SPLASH=splash10-005i-9800000000-c70b202591e0cac3344e
submitter=submitter = University of Tokyo Team (Faculty of Engineering, University of Tokyo)
MoNA Rating=3.75

>  <NUM PEAKS>  (1013) 
70

>  <MASS SPECTRAL PEAKS>  (1013) 
15 8.5
26 1.31
27 1.75
28 2.42
29 3.83
30 11.99
31 1.36
38 2.01
39 5.1
40 10.3
41 1
42 3.68
44 1.18
47 1.94
51 9.49
52 25.07
53 12.12
54 8.33
55 1.94
59 6.96
61 3.53
62 11.7
63 30.46
64 14.79
65 11.41
66 5.36
67 2.41
68 3.33
69 14.22
74 4.5
75 4.23
76 5.04
77 42.73
78 8.29
79 34.13
80 8.68
81 1.71
82 4.2
91 2.46
92 36.37
93 12.67
94 10.33
95 11.67
96 2.26
97 1.06
106 3.18
107 30.63
108 12.14
109 7.77
110 16.95
111 2.47
122 19.4
123 5.19
124 2.61
125 41.79
126 3.85
135 5.32
136 89.3
137 7.78
138 1.83
139 1.02
140 1.08
153 29.48
154 4.03
166 1.38
167 2.5
183 99.99
184 10.18
185 1.34
187 1.35

>  <PREDICTED SPECTRUM>  (1013) 
14 53
15 220
16 7
25 32
26 98
27 85
28 81
29 124
30 267
31 130
32 4
37 138
38 212
39 273
40 73
41 86
42 23
43 58
46 146
47 31
49 204
50 441
51 537
52 433
53 626
54 283
55 179
56 107
57 65
59 398
60 62
61 289
62 370
63 648
64 404
65 542
66 410
67 229
68 235
69 426
70 75
72 49
74 242
75 404
76 336
77 629
78 413
79 680
80 387
81 393
82 260
83 174
84 89
91 142
92 524
93 544
94 528
95 660
96 226
97 213
105 206
106 260
107 772
108 544
109 341
110 374
111 45
112 39
120 31
121 125
122 646
123 449
124 233
125 552
126 215
136 827
137 343
138 223
153 624
154 172
155 24
166 37
167 95
183 999
184 315
185 72

$$$$

     RDKit          2D

 13 13  0  0  0  0  0  0  0  0999 V2000
    2.5987    3.0002    0.0000 C   0  0  0  0  0  0  0  0  0  0  0  0
    3.8981   -0.7504    0.0000 C   0  0  0  0  0  0  0  0  0  0  0  0
   -1.3000    0.7500    0.0000 C   0  0  0  0  0  0  0  0  0  0  0  0
    0.0000    1.5000    0.0000 C   0  0  0  0  0  0  0  0  0  0  0  0
    0.0000   -1.5000    0.0000 C   0  0  0  0  0  0  0  0  0  0  0  0
   -1.3000   -0.7500    0.0000 C   0  0  0  0  0  0  0  0  0  0  0  0
    1.3000    0.7500    0.0000 C   0  0  0  0  0  0  0  0  0  0  0  0
    1.3000   -0.7500    0.0000 C   0  0  0  0  0  0  0  0  0  0  0  0
   -2.5989   -1.5002    0.0000 N   0  0  0  0  0  0  0  0  0  0  0  0
   -3.8981   -0.7504    0.0000 O   0  0  0  0  0  0  0  0  0  0  0  0
   -2.5987   -3.0002    0.0000 O   0  0  0  0  0  0  0  0  0  0  0  0
    2.5989    1.5002    0.0000 O   0  0  0  0  0  0  0  0  0  0  0  0
    2.5989   -1.5002    0.0000 O   0  0  0  0  0  0  0  0  0  0  0  0
  4  3  2  0
  6  3  1  0
  6  5  2  0
  7  4  1  0
  8  5  1  0
  8  7  2  0
  9  6  1  0
 10  9  1  0
 11  9  2  0
 12  1  1  0
 12  7  1  0
 13  2  1  0
 13  8  1  0
M  CHG  2   9   1  10  -1
M  END
>  <NAME>  (1014) 
1,2-DIMETHOXY-4-NITROBENZENE

>  <SYNONYMS>  (1014) 
4-NITROVERATROLE

>  <SPECTRUM TYPE>  (1014) 
MS1

>  <INSTRUMENT TYPE>  (1014) 
EI-B

>  <INSTRUMENT>  (1014) 
HITACHI M-80

>  <ION MODE>  (1014) 
P

>  <INCHIKEY>  (1014) 
YFWBUVZWCBFSQN-UHFFFAOYSA-N

>  <FORMULA>  (1014) 
C8H9NO4

>  <EXACT MASS>  (1014) 
183.05315776799998

>  <MW>  (1014) 
183

>  <ID>  (1014) 
JP010544

>  <CONTRIBUTOR>  (1014) 
University of Tokyo Team, {Faculty of Engineering, University of Tokyo

>  <COMMENT>  (1014) 
SMILES=COc(c1)c(OC)cc(c1)[N+1]([O-1])=O
cas=709-09-1
InChI=InChI=1S/C8H9NO4/c1-12-7-4-3-6(9(10)11)5-8(7)13-2/h3-5H,1-2H3
computed SMILES=O=N(=O)C1=CC=C(OC)C(OC)=C1
accession=JP010544
date=2016.01.19 (Created 2008.10.21, modified 2011.05.06)
author=NARA WOMEN'S UNIVERSITY
license=CC BY-NC-SA
exact mass=183.05316
ionization energy=70 eV
ion type=[M]+*
computed spectral entropy=3.3047936281307853
computed normalized entropy=0.8246865122943525
SPLASH=splash10-003r-9700000000-2b4079f38b606f07409d
submitter=submitter = University of Tokyo Team (Faculty of Engineering, University of Tokyo)
MoNA Rating=3.75

>  <NUM PEAKS>  (1014) 
55

>  <MASS SPECTRAL PEAKS>  (1014) 
15 5.96
18 1.1
28 1.26
29 1.89
30 14.82
38 1.01
39 2
40 4.48
42 1.79
44 1.14
47 2.04
51 9.41
52 23.68
53 5.03
54 5.22
56 1.67
61 1.91
62 5.73
63 11.09
64 4.36
65 4.16
66 8.17
67 1.21
69 3.92
74 2.84
75 3.21
76 4.96
77 20.24
78 4.09
79 39.55
80 4.08
82 2.08
91 1.99
92 12.41
93 3.39
94 11.17
95 5.28
107 14.72
108 6.78
109 3.05
110 7.08
121 2.3
122 7.13
123 2.37
125 12.78
126 1.03
137 14.74
138 1.9
153 16.75
154 1.53
167 2.75
168 5.02
183 99.99
184 9.64
185 1.22

>  <PREDICTED SPECTRUM>  (1014) 
14 68
15 240
16 30
17 11
18 10
25 25
26 100
27 125
28 79
29 162
30 359
31 99
32 17
33 1
36 53
37 182
38 249
39 282
40 125
41 143
42 109
43 37
44 4
45 52
46 231
47 18
48 14
49 192
50 560
51 670
52 440
53 484
54 208
55 101
56 35
57 24
59 284
60 23
61 284
62 417
63 645
64 349
65 467
66 382
67 239
68 136
69 169
73 32
74 243
75 398
76 383
77 587
78 395
79 779
80 347
81 320
82 200
83 55
86 15
89 2
90 94
91 272
92 413
93 447
94 447
95 335
96 121
97 88
105 235
106 261
107 566
108 345
109 248
110 308
111 102
112 67
121 174
122 503
123 197
124 145
125 352
126 28
136 213
137 338
138 201
139 41
153 499
154 120
166 41
167 174
168 194
169 21
183 999
184 286
185 92

$$$$

     RDKit          2D

  9  9  0  0  0  0  0  0  0  0999 V2000
   -2.5989    3.0000    0.0000 C   0  0  0  0  0  0  0  0  0  0  0  0
   -1.3000    0.7498    0.0000 C   0  0  0  0  0  0  0  0  0  0  0  0
   -0.0000    2.9998    0.0000 C   0  0  0  0  0  0  0  0  0  0  0  0
    1.3000    0.7498    0.0000 C   0  0  0  0  0  0  0  0  0  0  0  0
   -1.3000    2.2498    0.0000 C   0  0  0  0  0  0  0  0  0  0  0  0
   -0.0000   -0.0002    0.0000 C   0  0  0  0  0  0  0  0  0  0  0  0
    1.3000    2.2498    0.0000 C   0  0  0  0  0  0  0  0  0  0  0  0
   -0.0000   -1.5002    0.0000 O   0  0  0  0  0  0  0  0  0  0  0  0
    2.5989    3.0000    0.0000 O   0  0  0  0  0  0  0  0  0  0  0  0
  5  1  1  0
  5  2  2  0
  5  3  1  0
  6  2  1  0
  6  4  2  0
  7  3  2  0
  7  4  1  0
  8  6  1  0
  9  7  1  0
M  END
>  <NAME>  (1015) 
3,5-DIHYDROXYTOLUENE

>  <SYNONYMS>  (1015) 


>  <SPECTRUM TYPE>  (1015) 
MS1

>  <INSTRUMENT TYPE>  (1015) 
EI-B

>  <INSTRUMENT>  (1015) 
HITACHI M-80

>  <ION MODE>  (1015) 
P

>  <INCHIKEY>  (1015) 
OIPPWFOQEKKFEE-UHFFFAOYSA-N

>  <FORMULA>  (1015) 
C7H8O2

>  <EXACT MASS>  (1015) 
124.052429496

>  <MW>  (1015) 
124

>  <ID>  (1015) 
JP010543

>  <CONTRIBUTOR>  (1015) 
University of Tokyo Team, {Faculty of Engineering, University of Tokyo

>  <COMMENT>  (1015) 
SMILES=Cc(c1)cc(O)cc(O)1
cas=504-15-4
InChI=InChI=1S/C7H8O2/c1-5-2-6(8)4-7(9)3-5/h2-4,8-9H,1H3
computed SMILES=OC=1C=C(O)C=C(C1)C
accession=JP010543
date=2016.01.19 (Created 2008.10.21, modified 2011.05.06)
author=NARA WOMEN'S UNIVERSITY
license=CC BY-NC-SA
exact mass=124.05243
ionization energy=70 eV
ion type=[M]+*
computed spectral entropy=2.63159341606982
computed normalized entropy=0.7183155820101882
SPLASH=splash10-00di-6900000000-b7340c393f257aa2fce5
submitter=submitter = University of Tokyo Team (Faculty of Engineering, University of Tokyo)
MoNA Rating=3.75

>  <NUM PEAKS>  (1015) 
39

>  <MASS SPECTRAL PEAKS>  (1015) 
27 2
28 1.97
29 1.63
38 1.06
39 4.84
40 1.45
41 5.63
42 1.29
43 9.58
50 1.5
51 4.82
52 2.14
53 4.16
54 1.02
55 6.07
61 1.19
62 1.97
63 1.6
65 3.22
66 3.36
67 7.79
69 7.08
77 6.78
78 5.76
79 1.76
81 4.21
82 1.12
83 1.22
84 1.22
85 1.92
94 1.54
95 14.16
96 2.71
105 2.42
106 3.32
107 7.14
123 50.01
124 99.99
125 8.29

>  <PREDICTED SPECTRUM>  (1015) 
14 0
15 2
25 1
26 36
27 125
28 64
29 58
37 30
38 58
39 196
40 83
41 136
42 43
43 15
44 39
46 6
47 86
48 1
49 49
50 176
51 302
52 177
53 236
54 86
55 156
61 42
62 60
63 86
65 173
66 131
67 182
68 117
69 110
70 43
73 15
74 109
75 60
76 34
77 423
78 279
79 212
80 88
81 156
82 13
83 0
91 25
93 120
94 172
95 306
96 183
97 89
105 118
106 107
107 133
108 23
109 142
110 9
121 9
122 100
123 593
124 999
125 289
126 74

$$$$

     RDKit          2D

 14 15  0  0  0  0  0  0  0  0999 V2000
    3.8971    1.0700    0.0000 C   0  0  0  0  0  0  0  0  0  0  0  0
   -5.1962    4.8200    0.0000 C   0  0  0  0  0  0  0  0  0  0  0  0
    3.8976    2.5708    0.0000 C   0  0  0  0  0  0  0  0  0  0  0  0
    2.5976    0.3192    0.0000 C   0  0  0  0  0  0  0  0  0  0  0  0
   -5.1966    3.3192    0.0000 C   0  0  0  0  0  0  0  0  0  0  0  0
   -3.8966    5.5708    0.0000 C   0  0  0  0  0  0  0  0  0  0  0  0
    2.5986    3.3208    0.0000 C   0  0  0  0  0  0  0  0  0  0  0  0
    1.2986    1.0692    0.0000 C   0  0  0  0  0  0  0  0  0  0  0  0
   -3.8976    2.5692    0.0000 C   0  0  0  0  0  0  0  0  0  0  0  0
   -2.5976    4.8208    0.0000 C   0  0  0  0  0  0  0  0  0  0  0  0
    0.0000    3.3200    0.0000 C   0  0  0  0  0  0  0  0  0  0  0  0
   -1.2990    2.5700    0.0000 C   0  0  0  0  0  0  0  0  0  0  0  0
    1.2990    2.5700    0.0000 C   0  0  0  0  0  0  0  0  0  0  0  0
   -2.5981    3.3200    0.0000 C   0  0  0  0  0  0  0  0  0  0  0  0
  3  1  2  0
  4  1  1  0
  5  2  2  0
  6  2  1  0
  7  3  1  0
  8  4  2  0
  9  5  1  0
 10  6  2  0
 12 11  1  0
 13  7  2  0
 13  8  1  0
 13 11  1  0
 14  9  2  0
 14 10  1  0
 14 12  1  0
M  END
>  <NAME>  (1016) 
BIBENZYL

>  <SYNONYMS>  (1016) 
1,2-DIPHENYLETHANE

>  <SPECTRUM TYPE>  (1016) 
MS1

>  <INSTRUMENT TYPE>  (1016) 
EI-B

>  <INSTRUMENT>  (1016) 
HITACHI M-80

>  <ION MODE>  (1016) 
P

>  <INCHIKEY>  (1016) 
QWUWMCYKGHVNAV-UHFFFAOYSA-N

>  <FORMULA>  (1016) 
C14H14

>  <EXACT MASS>  (1016) 
182.109550448

>  <MW>  (1016) 
182

>  <ID>  (1016) 
JP010542

>  <CONTRIBUTOR>  (1016) 
University of Tokyo Team, {Faculty of Engineering, University of Tokyo

>  <COMMENT>  (1016) 
SMILES=c(c2)ccc(c2)CCc(c1)cccc1
cas=103-29-7
InChI=InChI=1S/C14H14/c1-3-7-13(8-4-1)11-12-14-9-5-2-6-10-14/h1-10H,11-12H2
computed SMILES=C=1C=CC(=CC1)CCC=2C=CC=CC2
accession=JP010542
date=2016.01.19 (Created 2008.10.21, modified 2011.05.06)
author=NARA WOMEN'S UNIVERSITY
license=CC BY-NC-SA
exact mass=182.10955
ionization energy=70 eV
ion type=[M]+*
computed spectral entropy=2.695854905590453
computed normalized entropy=0.7465843784901541
SPLASH=splash10-0006-9200000000-5d440d73172c74b69ca1
submitter=submitter = University of Tokyo Team (Faculty of Engineering, University of Tokyo)
MoNA Rating=3.75

>  <NUM PEAKS>  (1016) 
37

>  <MASS SPECTRAL PEAKS>  (1016) 
27 4.07
28 5
32 1.82
38 1.37
39 19.59
40 1.66
41 5.95
50 5.2
51 14.67
52 3.64
53 1.22
62 2.36
63 9.36
64 1.81
65 40.95
66 2.4
74 1.66
75 2.42
76 2.61
77 9.99
78 3.92
79 1.08
89 5.55
90 2.06
91 99.99
92 19.67
102 1.92
103 4.16
104 6.66
115 1.91
152 1.72
165 3.28
166 1.24
178 2.37
179 1.79
182 46.48
183 7.56

>  <PREDICTED SPECTRUM>  (1016) 
26 15
27 29
29 24
37 12
38 54
39 178
40 50
41 105
49 3
50 119
51 205
52 113
53 54
62 78
63 144
64 103
65 334
66 77
74 35
75 49
76 57
77 213
78 121
79 69
89 148
90 144
91 999
92 457
93 70
102 85
103 113
104 59
105 162
115 86
162 27
164 29
165 1
166 8
167 51
180 90
181 36
182 360
183 158
184 46

$$$$

     RDKit          2D

  7  7  0  0  0  0  0  0  0  0999 V2000
    0.0000    2.5700    0.0000 C   0  0  0  0  0  0  0  0  0  0  0  0
    1.3000    1.8200    0.0000 C   0  0  0  0  0  0  0  0  0  0  0  0
   -1.3000    1.8200    0.0000 C   0  0  0  0  0  0  0  0  0  0  0  0
    1.3000    0.3200    0.0000 C   0  0  0  0  0  0  0  0  0  0  0  0
   -1.3000    0.3200    0.0000 C   0  0  0  0  0  0  0  0  0  0  0  0
   -0.0000   -0.4300    0.0000 C   0  0  0  0  0  0  0  0  0  0  0  0
   -0.0000   -1.9300    0.0000 N   0  0  0  0  0  0  0  0  0  0  0  0
  2  1  2  0
  3  1  1  0
  4  2  1  0
  5  3  2  0
  6  4  2  0
  6  5  1  0
  7  6  1  0
M  END
>  <NAME>  (1017) 
ANILINE

>  <SYNONYMS>  (1017) 


>  <SPECTRUM TYPE>  (1017) 
MS1

>  <INSTRUMENT TYPE>  (1017) 
EI-B

>  <INSTRUMENT>  (1017) 
HITACHI M-80

>  <ION MODE>  (1017) 
P

>  <INCHIKEY>  (1017) 
PAYRUJLWNCNPSJ-UHFFFAOYSA-N

>  <FORMULA>  (1017) 
C6H7N

>  <EXACT MASS>  (1017) 
93.057849224

>  <MW>  (1017) 
93

>  <ID>  (1017) 
JP010541

>  <CONTRIBUTOR>  (1017) 
University of Tokyo Team, {Faculty of Engineering, University of Tokyo

>  <COMMENT>  (1017) 
SMILES=Nc(c1)cccc1
cas=62-53-3
InChI=InChI=1S/C6H7N/c7-6-4-2-1-3-5-6/h1-5H,7H2
computed SMILES=NC=1C=CC=CC1
accession=JP010541
date=2016.01.19 (Created 2008.10.21, modified 2011.05.06)
author=NARA WOMEN'S UNIVERSITY
license=CC BY-NC-SA
exact mass=93.05785
ionization energy=70 eV
ion type=[M]+*
computed spectral entropy=2.358726852397601
computed normalized entropy=0.7156685686501155
SPLASH=splash10-0006-9000000000-b4213ef5f8ee4a3df612
submitter=submitter = University of Tokyo Team (Faculty of Engineering, University of Tokyo)
MoNA Rating=3.75

>  <NUM PEAKS>  (1017) 
27

>  <MASS SPECTRAL PEAKS>  (1017) 
26 1.1
27 1.78
37 2.13
38 5.5
39 12.98
40 5.25
41 7.29
42 1.47
46 1.41
47 6.02
50 3.65
51 3.52
52 4.54
53 1.09
54 3.57
61 1.9
62 2.4
63 4.82
64 2.47
65 17.88
66 32.71
67 4.62
76 1.16
78 2.03
92 11.66
93 99.99
94 7.72

>  <PREDICTED SPECTRUM>  (1017) 
16 34
17 15
18 42
25 30
26 40
27 48
28 102
37 62
38 121
39 336
40 91
41 278
42 47
50 143
51 255
52 142
53 133
54 90
61 60
62 71
63 246
64 201
65 557
66 353
67 153
74 37
75 35
77 102
78 93
90 49
91 315
92 780
93 999
94 343

$$$$

     RDKit          2D

 12 12  0  0  0  0  0  0  0  0999 V2000
    3.9324   -2.6081    0.0000 C   0  0  0  0  0  0  0  0  0  0  0  0
    2.6333   -3.3581    0.0000 C   0  0  0  0  0  0  0  0  0  0  0  0
    2.6324   -0.3565    0.0000 C   0  0  0  0  0  0  0  0  0  0  0  0
    3.9319   -1.1073    0.0000 C   0  0  0  0  0  0  0  0  0  0  0  0
    1.3333   -1.1065    0.0000 C   0  0  0  0  0  0  0  0  0  0  0  0
    1.3338   -2.6073    0.0000 C   0  0  0  0  0  0  0  0  0  0  0  0
    0.0342   -0.3567    0.0000 C   0  0  0  0  0  0  0  0  0  0  0  0
   -1.2652    1.8931    0.0000 N   0  0  0  0  0  0  0  0  0  0  0  0
    0.0339    1.1433    0.0000 N   0  0  0  0  0  0  0  0  0  0  0  0
    5.2309   -0.3573    0.0000 O   0  0  0  0  0  0  0  0  0  0  0  0
    0.0348   -3.3573    0.0000 O   0  0  0  0  0  0  0  0  0  0  0  0
   -1.2648   -1.1069    0.0000 O   0  0  0  0  0  0  0  0  0  0  0  0
  2  1  2  0
  4  1  1  0
  4  3  2  0
  5  3  1  0
  6  2  1  0
  6  5  2  0
  7  5  1  0
  9  7  2  3
  9  8  1  0
 10  4  1  0
 11  6  1  0
 12  7  1  0
M  END
>  <NAME>  (1018) 
2,5-DIHYDROXYBENZOIC ACID HYDRAZIDE

>  <SYNONYMS>  (1018) 
2,5-DIHYDROXYBENZOYLHYDRAZIDE

>  <SPECTRUM TYPE>  (1018) 
MS1

>  <INSTRUMENT TYPE>  (1018) 
EI-B

>  <INSTRUMENT>  (1018) 
HITACHI M-80

>  <ION MODE>  (1018) 
P

>  <INCHIKEY>  (1018) 
BLXGSJAZCDGAEF-UHFFFAOYSA-N

>  <FORMULA>  (1018) 
C7H8N2O3

>  <EXACT MASS>  (1018) 
168.05349211599997

>  <MW>  (1018) 
168

>  <ID>  (1018) 
JP010540

>  <CONTRIBUTOR>  (1018) 
University of Tokyo Team, {Faculty of Engineering, University of Tokyo

>  <COMMENT>  (1018) 
SMILES=NNC(=O)c(c1)c(O)ccc(O)1
InChI=InChI=1S/C7H8N2O3/c8-9-7(12)5-3-4(10)1-2-6(5)11/h1-3,10-11H,8H2,(H,9,12)
computed SMILES=OC1=CC=C(O)C(=C1)C(O)=NN
accession=JP010540
date=2016.01.19 (Created 2008.10.21, modified 2011.05.06)
author=NARA WOMEN'S UNIVERSITY
license=CC BY-NC-SA
exact mass=168.05349
ionization energy=70 eV
ion type=[M]+*
computed spectral entropy=3.1884906535725053
computed normalized entropy=0.7993239923631089
SPLASH=splash10-0f79-9500000000-4b29aa019629000246f5
submitter=submitter = University of Tokyo Team (Faculty of Engineering, University of Tokyo)
MoNA Rating=3.75

>  <NUM PEAKS>  (1018) 
54

>  <MASS SPECTRAL PEAKS>  (1018) 
14 1.28
15 1.32
25 1.17
26 5.88
27 17.4
28 3.73
29 9.09
30 2.02
31 8.2
32 8.05
37 1.61
38 2.26
39 8.51
40 1.61
41 2.8
42 2.13
43 2.65
44 1.58
50 6.83
51 15.54
52 27.96
53 50
54 10.09
55 10.74
56 1.32
61 2.52
62 4.62
63 9.14
64 1.65
65 1.07
66 1.72
67 1.91
68 2.04
69 19.49
70 1.14
77 1.08
79 5.49
80 7.42
81 50.9
82 5.79
87 1.2
92 1.21
96 1
107 2.77
108 11.11
109 27.68
110 2.57
135 1.82
136 8.7
137 99.99
138 13.51
139 1.38
168 34.48
169 3.79

>  <PREDICTED SPECTRUM>  (1018) 
17 32
18 29
26 56
27 117
28 72
29 144
30 36
31 57
36 13
37 102
38 184
39 426
40 198
41 380
42 347
43 248
44 213
45 199
46 56
49 73
50 288
51 504
52 555
53 555
54 269
55 364
56 87
57 202
61 120
62 182
63 336
64 246
65 428
66 419
67 304
68 298
69 353
70 85
71 44
74 42
75 141
76 159
77 142
78 212
79 404
80 448
81 414
82 190
83 96
84 3
85 9
91 40
92 196
93 481
94 546
95 386
96 190
97 18
105 132
106 85
107 281
108 342
109 261
110 69
115 7
120 74
121 386
122 786
123 403
124 123
125 8
136 198
137 128
149 218
150 970
151 597
152 215
153 86
167 23
168 999
169 286
170 68

$$$$

     RDKit          2D

 10 11  0  0  0  0  0  0  0  0999 V2000
    4.1000   -0.0000    0.0000 C   0  0  0  0  0  0  0  0  0  0  0  0
   -2.3100    0.7500    0.0000 C   0  0  0  0  0  0  0  0  0  0  0  0
   -2.3100   -0.7500    0.0000 C   0  0  0  0  0  0  0  0  0  0  0  0
   -1.0100    1.5000    0.0000 C   0  0  0  0  0  0  0  0  0  0  0  0
   -1.0100   -1.5000    0.0000 C   0  0  0  0  0  0  0  0  0  0  0  0
    2.6000    0.0000    0.0000 C   0  0  0  0  0  0  0  0  0  0  0  0
    0.2900    0.7500    0.0000 C   0  0  0  0  0  0  0  0  0  0  0  0
    0.2900   -0.7500    0.0000 C   0  0  0  0  0  0  0  0  0  0  0  0
    1.7200    1.2100    0.0000 N   0  0  0  0  0  0  0  0  0  0  0  0
    1.7200   -1.2100    0.0000 O   0  0  0  0  0  0  0  0  0  0  0  0
  3  2  2  0
  4  2  1  0
  5  3  1  0
  6  1  1  0
  7  4  2  0
  8  5  2  0
  8  7  1  0
  9  6  2  0
  9  7  1  0
 10  6  1  0
 10  8  1  0
M  END
>  <NAME>  (1019) 
2-METHYLBENZOXAZOLE

>  <SYNONYMS>  (1019) 


>  <SPECTRUM TYPE>  (1019) 
MS1

>  <INSTRUMENT TYPE>  (1019) 
EI-B

>  <INSTRUMENT>  (1019) 
HITACHI M-80

>  <ION MODE>  (1019) 
P

>  <INCHIKEY>  (1019) 
DQSHFKPKFISSNM-UHFFFAOYSA-N

>  <FORMULA>  (1019) 
C8H7NO

>  <EXACT MASS>  (1019) 
133.052763844

>  <MW>  (1019) 
133

>  <ID>  (1019) 
JP010539

>  <CONTRIBUTOR>  (1019) 
University of Tokyo Team, {Faculty of Engineering, University of Tokyo

>  <COMMENT>  (1019) 
SMILES=Cc(n1)oc(c2)c(ccc2)1
cas=95-21-6
InChI=InChI=1S/C8H7NO/c1-6-9-7-4-2-3-5-8(7)10-6/h2-5H,1H3
computed SMILES=N=1C=2C=CC=CC2OC1C
accession=JP010539
date=2016.01.19 (Created 2008.10.21, modified 2011.05.06)
author=NARA WOMEN'S UNIVERSITY
license=CC BY-NC-SA
exact mass=133.05276
ionization energy=70 eV
ion type=[M]+*
computed spectral entropy=2.6444993959789946
computed normalized entropy=0.7499231509423853
SPLASH=splash10-001i-8900000000-b666d088b79a32fd2d96
submitter=submitter = University of Tokyo Team (Faculty of Engineering, University of Tokyo)
MoNA Rating=3.75

>  <NUM PEAKS>  (1019) 
34

>  <MASS SPECTRAL PEAKS>  (1019) 
15 2.1
26 2.99
27 3.51
38 2.67
39 7.91
40 4.89
42 1.4
43 1.78
44 1.75
51 3.27
52 5.38
53 3.89
54 1.84
61 1.82
62 5.26
63 24.4
64 21.44
65 5.73
66 1.2
75 1
76 1.82
77 3.03
78 14.39
79 3.01
90 1.2
91 1.92
92 8.37
93 3.12
104 14.37
105 15.03
106 1.4
132 3.11
133 99.99
134 9.62

>  <PREDICTED SPECTRUM>  (1019) 
14 0
25 22
26 70
27 98
28 84
36 14
37 207
38 291
39 382
40 170
41 179
42 134
43 117
44 56
49 86
50 389
51 481
52 372
53 222
54 5
61 226
62 285
63 463
64 372
65 332
66 130
74 166
75 224
76 312
77 419
78 402
79 223
86 6
88 5
90 203
91 159
92 240
93 120
102 57
103 75
104 524
105 465
106 175
107 10
118 4
131 163
132 410
133 999
134 269

$$$$

     RDKit          2D

  8  8  0  0  0  0  0  0  0  0999 V2000
    2.6377   -0.8500    0.0000 C   0  0  0  0  0  0  0  0  0  0  0  0
   -2.6377   -0.8500    0.0000 C   0  0  0  0  0  0  0  0  0  0  0  0
   -0.0000   -2.7800    0.0000 C   0  0  0  0  0  0  0  0  0  0  0  0
    0.7500    1.0300    0.0000 C   0  0  0  0  0  0  0  0  0  0  0  0
   -0.7500    1.0300    0.0000 C   0  0  0  0  0  0  0  0  0  0  0  0
    1.2100   -0.3900    0.0000 C   0  0  0  0  0  0  0  0  0  0  0  0
   -1.2100   -0.3900    0.0000 C   0  0  0  0  0  0  0  0  0  0  0  0
    0.0000   -1.2800    0.0000 N   0  0  0  0  0  0  0  0  0  0  0  0
  5  4  1  0
  6  1  1  0
  6  4  2  0
  7  2  1  0
  7  5  2  0
  8  3  1  0
  8  6  1  0
  8  7  1  0
M  END
>  <NAME>  (1020) 
1,2,5-TRIMEHYLPYRROLE

>  <SYNONYMS>  (1020) 


>  <SPECTRUM TYPE>  (1020) 
MS1

>  <INSTRUMENT TYPE>  (1020) 
EI-B

>  <INSTRUMENT>  (1020) 
HITACHI M-80

>  <ION MODE>  (1020) 
P

>  <INCHIKEY>  (1020) 
YRABRACUKBOTKB-UHFFFAOYSA-N

>  <FORMULA>  (1020) 
C7H11N

>  <EXACT MASS>  (1020) 
109.08914935199999

>  <MW>  (1020) 
109

>  <ID>  (1020) 
JP010538

>  <CONTRIBUTOR>  (1020) 
University of Tokyo Team, {Faculty of Engineering, University of Tokyo

>  <COMMENT>  (1020) 
SMILES=[H]c(c([H])1)c(C)n(C)c(C)1
cas=930-87-0
InChI=InChI=1S/C7H11N/c1-6-4-5-7(2)8(6)3/h4-5H,1-3H3
computed SMILES=C=1C=C(N(C1C)C)C
accession=JP010538
date=2016.01.19 (Created 2008.10.21, modified 2011.05.06)
author=NARA WOMEN'S UNIVERSITY
license=CC BY-NC-SA
exact mass=109.08915
ionization energy=70 eV
ion type=[M]+*
computed spectral entropy=2.2162192984946745
computed normalized entropy=0.665091020592295
SPLASH=splash10-0a4i-4900000000-7284da94153af861ab23
submitter=submitter = University of Tokyo Team (Faculty of Engineering, University of Tokyo)
MoNA Rating=3.75

>  <NUM PEAKS>  (1020) 
28

>  <MASS SPECTRAL PEAKS>  (1020) 
15 3.69
27 3.99
28 2.39
40 4.66
41 1.1
42 4.36
43 4.53
51 2.24
52 4.11
53 3.15
54 3.89
55 1.91
56 4.52
65 3.12
66 2.08
67 3.61
77 1.85
78 1.13
79 2.01
92 3.03
93 3.4
94 19.15
95 1.44
106 3.46
107 5.67
108 99.99
109 65.93
110 5.1

>  <PREDICTED SPECTRUM>  (1020) 
14 17
15 80
16 1
26 74
27 173
28 127
29 62
30 16
36 36
37 110
38 217
39 569
40 303
41 383
42 582
50 211
51 348
52 388
53 396
54 382
55 232
56 286
57 94
60 2
61 16
62 83
63 178
64 148
65 380
66 337
67 406
68 226
69 7
75 13
76 25
77 224
78 197
79 273
80 358
81 348
82 104
83 36
92 344
93 433
94 705
95 275
106 173
107 251
108 873
109 999
110 297

$$$$

     RDKit          2D

 12 12  0  0  0  0  0  0  0  0999 V2000
    3.2323    1.7708    0.0000 C   0  0  0  0  0  0  0  0  0  0  0  0
   -2.7138    0.0699    0.0000 C   0  0  0  0  0  0  0  0  0  0  0  0
   -3.2629   -1.9792    0.0000 C   0  0  0  0  0  0  0  0  0  0  0  0
   -1.2138   -2.5282    0.0000 C   0  0  0  0  0  0  0  0  0  0  0  0
    0.6338    1.7717    0.0000 C   0  0  0  0  0  0  0  0  0  0  0  0
   -0.6653    1.0217    0.0000 C   0  0  0  0  0  0  0  0  0  0  0  0
    1.9338   -0.4800    0.0000 C   0  0  0  0  0  0  0  0  0  0  0  0
    1.9333    1.0208    0.0000 C   0  0  0  0  0  0  0  0  0  0  0  0
   -0.6648   -0.4792    0.0000 C   0  0  0  0  0  0  0  0  0  0  0  0
    0.6347   -1.2300    0.0000 C   0  0  0  0  0  0  0  0  0  0  0  0
   -1.9638   -1.2292    0.0000 C   0  0  0  0  0  0  0  0  0  0  0  0
    0.6345   -2.7300    0.0000 O   0  0  0  0  0  0  0  0  0  0  0  0
  6  5  2  0
  8  1  1  0
  8  5  1  0
  8  7  2  0
  9  6  1  0
 10  7  1  0
 10  9  2  0
 11  2  1  0
 11  3  1  0
 11  4  1  0
 11  9  1  0
 12 10  1  0
M  END
>  <NAME>  (1021) 
2-TERT-BUTYL-5-METHYLPHENOL

>  <SYNONYMS>  (1021) 
6-TERT-BUTYL-META-CRESOL

>  <SPECTRUM TYPE>  (1021) 
MS1

>  <INSTRUMENT TYPE>  (1021) 
EI-B

>  <INSTRUMENT>  (1021) 
HITACHI M-80

>  <ION MODE>  (1021) 
P

>  <INCHIKEY>  (1021) 
XOUQAVYLRNOXDO-UHFFFAOYSA-N

>  <FORMULA>  (1021) 
C11H16O

>  <EXACT MASS>  (1021) 
164.120115132

>  <MW>  (1021) 
164

>  <ID>  (1021) 
JP010537

>  <CONTRIBUTOR>  (1021) 
University of Tokyo Team, {Faculty of Engineering, University of Tokyo

>  <COMMENT>  (1021) 
SMILES=Cc(c1)cc(O)c(c1)C(C)(C)C
cas=88-60-8
InChI=InChI=1S/C11H16O/c1-8-5-6-9(10(12)7-8)11(2,3)4/h5-7,12H,1-4H3
computed SMILES=OC1=CC(=CC=C1C(C)(C)C)C
accession=JP010537
date=2016.01.19 (Created 2008.10.21, modified 2011.05.06)
author=NARA WOMEN'S UNIVERSITY
license=CC BY-NC-SA
exact mass=164.12012
ionization energy=70 eV
ion type=[M]+*
computed spectral entropy=2.5317171851516993
computed normalized entropy=0.6910535237823338
SPLASH=splash10-006t-1900000000-793bafb5afada9eca2b6
submitter=submitter = University of Tokyo Team (Faculty of Engineering, University of Tokyo)
MoNA Rating=3.75

>  <NUM PEAKS>  (1021) 
39

>  <MASS SPECTRAL PEAKS>  (1021) 
15 1.14
27 3.09
28 1.73
40 4.5
42 5.32
44 1.11
52 2.34
54 2.42
56 1.17
63 1.56
65 2.5
77 7.77
78 2.19
79 2.57
91 11.05
92 1.25
93 1.52
103 1.96
105 5.71
107 3.19
108 1.32
109 4.39
115 5.34
116 4.96
117 1
119 1.21
121 61.28
122 6.35
128 1.53
129 2.08
131 1.53
133 2.23
135 1.22
147 1.44
148 1.84
149 99.99
150 11
164 37.51
165 4.72

>  <PREDICTED SPECTRUM>  (1021) 
14 19
15 67
16 6
17 1
18 16
26 33
27 149
28 66
29 118
32 5
37 15
38 64
39 232
40 75
41 251
42 7
43 61
44 10
45 11
50 90
51 194
52 114
53 184
54 41
55 145
56 16
57 175
58 35
59 21
60 3
61 3
62 62
63 141
64 104
65 212
66 101
67 114
68 0
69 46
71 12
72 48
73 46
74 69
75 80
76 49
77 286
78 162
79 198
80 53
81 55
86 49
87 5
88 18
89 99
90 39
91 390
92 112
93 139
94 53
95 40
101 0
102 104
103 151
104 46
105 262
106 74
107 165
108 120
109 140
110 51
115 277
116 141
117 90
118 37
119 157
120 41
121 538
122 221
123 93
127 49
128 181
129 203
130 50
131 187
132 38
133 93
134 49
135 93
137 9
145 10
147 96
148 15
149 999
150 347
151 64
161 11
162 6
163 19
164 585
165 194
166 36

$$$$

     RDKit          2D

 13 14  0  0  0  0  0  0  0  0999 V2000
    2.6000    0.7500    0.0000 C   0  0  0  0  0  0  0  0  0  0  0  0
    1.3000    1.5000    0.0000 C   0  0  0  0  0  0  0  0  0  0  0  0
   -2.6000   -0.7500    0.0000 C   0  0  0  0  0  0  0  0  0  0  0  0
   -1.3000   -1.5000    0.0000 C   0  0  0  0  0  0  0  0  0  0  0  0
    2.6000   -0.7500    0.0000 C   0  0  0  0  0  0  0  0  0  0  0  0
   -1.3000    1.5000    0.0000 C   0  0  0  0  0  0  0  0  0  0  0  0
   -0.0000    0.7500    0.0000 C   0  0  0  0  0  0  0  0  0  0  0  0
   -2.6000    0.7500    0.0000 C   0  0  0  0  0  0  0  0  0  0  0  0
   -0.0000   -0.7500    0.0000 C   0  0  0  0  0  0  0  0  0  0  0  0
    1.3000   -1.5000    0.0000 N   0  0  0  0  0  0  0  0  0  0  0  0
   -3.8989    1.5002    0.0000 N   0  0  0  0  0  0  0  0  0  0  0  0
   -5.1981    0.7504    0.0000 O   0  0  0  0  0  0  0  0  0  0  0  0
   -3.8987    3.0002    0.0000 O   0  0  0  0  0  0  0  0  0  0  0  0
  2  1  2  0
  4  3  1  0
  5  1  1  0
  7  2  1  0
  7  6  2  0
  8  3  2  0
  8  6  1  0
  9  4  2  0
  9  7  1  0
 10  5  2  0
 10  9  1  0
 11  8  1  0
 12 11  1  0
 13 11  2  0
M  CHG  2  11   1  12  -1
M  END
>  <NAME>  (1022) 
6-NITROQUINOLINE

>  <SYNONYMS>  (1022) 


>  <SPECTRUM TYPE>  (1022) 
MS1

>  <INSTRUMENT TYPE>  (1022) 
EI-B

>  <INSTRUMENT>  (1022) 
HITACHI M-80

>  <ION MODE>  (1022) 
P

>  <INCHIKEY>  (1022) 
SMHPLBXIVNQFBA-UHFFFAOYSA-N

>  <FORMULA>  (1022) 
C9H6N2O2

>  <EXACT MASS>  (1022) 
174.042927432

>  <MW>  (1022) 
174

>  <ID>  (1022) 
JP010536

>  <CONTRIBUTOR>  (1022) 
University of Tokyo Team, {Faculty of Engineering, University of Tokyo

>  <COMMENT>  (1022) 
SMILES=[O-1][N+1](=O)c(c1)cc(c2)c(ncc2)c1
cas=613-50-3
InChI=InChI=1S/C9H6N2O2/c12-11(13)8-3-4-9-7(6-8)2-1-5-10-9/h1-6H
computed SMILES=O=N(=O)C1=CC=C2N=CC=CC2=C1
accession=JP010536
date=2016.01.19 (Created 2008.10.21, modified 2011.05.06)
author=NARA WOMEN'S UNIVERSITY
license=CC BY-NC-SA
exact mass=174.04293
ionization energy=70 eV
ion type=[M]+*
computed spectral entropy=2.5734090788482993
computed normalized entropy=0.7425289032466154
SPLASH=splash10-00fr-2900000000-44843083b8ef7bcd4db1
submitter=submitter = University of Tokyo Team (Faculty of Engineering, University of Tokyo)
MoNA Rating=3.75

>  <NUM PEAKS>  (1022) 
32

>  <MASS SPECTRAL PEAKS>  (1022) 
30 3.43
40 1.02
47 2.09
51 4.06
52 5.54
53 1.33
61 1.42
62 3.03
63 4.92
64 1.19
74 7.86
75 11.59
76 4.36
77 8.39
78 1.49
87 1.47
88 1.28
89 5.87
90 1.2
98 2.58
99 2.68
100 4.45
101 22.29
102 11.84
116 34.89
117 3.52
127 6.43
128 60.77
129 6.78
144 4.41
174 99.99
175 11.32

>  <PREDICTED SPECTRUM>  (1022) 
26 2
29 3
30 219
37 118
38 134
39 237
40 82
41 118
43 3
44 78
46 166
49 93
50 438
51 413
52 240
53 66
55 27
57 112
61 195
62 255
63 488
64 192
65 14
66 4
69 107
70 11
71 20
73 93
74 396
75 491
76 276
77 271
78 70
84 15
85 167
86 61
87 155
88 252
89 372
90 75
98 23
99 152
100 295
101 931
102 377
103 10
115 22
116 590
117 226
118 1
127 255
128 999
129 278
130 32
144 300
145 102
157 41
158 111
174 980
175 329
176 58

$$$$

     RDKit          2D

 21 22  0  0  0  0  0  0  0  0999 V2000
    5.1970    1.5006    0.0000 C   0  0  0  0  0  0  0  0  0  0  0  0
  -11.6940   -3.7512    0.0000 C   0  0  0  0  0  0  0  0  0  0  0  0
    3.8981    0.7504    0.0000 C   0  0  0  0  0  0  0  0  0  0  0  0
  -10.3951   -3.0010    0.0000 C   0  0  0  0  0  0  0  0  0  0  0  0
   -1.3000    0.7500    0.0000 C   0  0  0  0  0  0  0  0  0  0  0  0
   -0.0000   -1.5000    0.0000 C   0  0  0  0  0  0  0  0  0  0  0  0
   -5.1970   -3.0006    0.0000 C   0  0  0  0  0  0  0  0  0  0  0  0
   -6.4970   -0.7506    0.0000 C   0  0  0  0  0  0  0  0  0  0  0  0
    0.0000    1.5000    0.0000 C   0  0  0  0  0  0  0  0  0  0  0  0
    1.3000   -0.7500    0.0000 C   0  0  0  0  0  0  0  0  0  0  0  0
   -6.4970   -3.7506    0.0000 C   0  0  0  0  0  0  0  0  0  0  0  0
   -7.7970   -1.5006    0.0000 C   0  0  0  0  0  0  0  0  0  0  0  0
   -1.3000   -0.7500    0.0000 C   0  0  0  0  0  0  0  0  0  0  0  0
   -5.1970   -1.5006    0.0000 C   0  0  0  0  0  0  0  0  0  0  0  0
    1.3000    0.7500    0.0000 C   0  0  0  0  0  0  0  0  0  0  0  0
   -7.7970   -3.0006    0.0000 C   0  0  0  0  0  0  0  0  0  0  0  0
   -2.5989   -1.5002    0.0000 N   0  0  0  0  0  0  0  0  0  0  0  0
   -3.8981   -0.7504    0.0000 N   0  0  0  0  0  0  0  0  0  0  0  0
   -3.8983    0.7496    0.0000 O   0  0  0  0  0  0  0  0  0  0  0  0
    2.5989    1.5002    0.0000 O   0  0  0  0  0  0  0  0  0  0  0  0
   -9.0959   -3.7508    0.0000 O   0  0  0  0  0  0  0  0  0  0  0  0
  3  1  1  0
  4  2  1  0
  9  5  2  0
 10  6  1  0
 11  7  2  0
 12  8  1  0
 13  5  1  0
 13  6  2  0
 14  7  1  0
 14  8  2  0
 15  9  1  0
 15 10  2  0
 16 11  1  0
 16 12  2  0
 17 13  1  0
 18 14  1  0
 17 18  2  0
 19 18  1  0
 20  3  1  0
 20 15  1  0
 21  4  1  0
 21 16  1  0
M  CHG  2  18   1  19  -1
M  END
>  <NAME>  (1023) 
4,4'-AZOXYPHENETOL

>  <SYNONYMS>  (1023) 


>  <SPECTRUM TYPE>  (1023) 
MS1

>  <INSTRUMENT TYPE>  (1023) 
EI-B

>  <INSTRUMENT>  (1023) 
HITACHI M-80

>  <ION MODE>  (1023) 
P

>  <INCHIKEY>  (1023) 
QUICZVHSJNKDBL-ISLYRVAYSA-N

>  <FORMULA>  (1023) 
C16H18N2O3

>  <EXACT MASS>  (1023) 
286.13174243599997

>  <MW>  (1023) 
286

>  <ID>  (1023) 
JP010534

>  <CONTRIBUTOR>  (1023) 
University of Tokyo Team, {Faculty of Engineering, University of Tokyo

>  <COMMENT>  (1023) 
SMILES=CCOc(c2)ccc(c2)N=[N+1]([O-1])c(c1)ccc(OCC)c1
InChI=InChI=1S/C16H18N2O3/c1-3-20-15-9-5-13(6-10-15)17-18(19)14-7-11-16(12-8-14)21-4-2/h5-12H,3-4H2,1-2H3/b18-17+
computed SMILES=O=N(=NC1=CC=C(OCC)C=C1)C2=CC=C(OCC)C=C2
computed InChI=InChI=1S/C16H18N2O3/c1-3-20-15-9-5-13(6-10-15)17-18(19)14-7-11-16(12-8-14)21-4-2/h5-12H,3-4H2,1-2H3/b18-17-
accession=JP010534
date=2016.01.19 (Created 2008.10.21, modified 2011.05.06)
author=NARA WOMEN'S UNIVERSITY
license=CC BY-NC-SA
exact mass=286.13174
ionization energy=70 eV
ion type=[M]+*
computed spectral entropy=3.6274637841149135
computed normalized entropy=0.8101833599797342
SPLASH=splash10-059i-8940000000-1db400ec0fc14ce1303e
submitter=submitter = University of Tokyo Team (Faculty of Engineering, University of Tokyo)
MoNA Rating=3.75

>  <NUM PEAKS>  (1023) 
88

>  <MASS SPECTRAL PEAKS>  (1023) 
26 2.85
27 16.11
28 4.21
29 45.59
30 1.22
38 1.58
39 11.61
41 3.49
43 4.24
50 3.58
51 4.44
52 19.13
53 7.17
54 1.48
55 4.76
57 3.58
62 1.36
63 8.56
64 10.06
65 36.54
66 3.72
67 2.03
68 1
69 2.7
71 2.21
75 1.34
76 5.78
77 17.94
78 6.9
79 25.41
80 10.38
81 9.06
82 1.42
83 2.12
85 1.5
90 1.51
91 10.15
92 8.03
93 23.64
94 7.19
95 2.88
97 2.06
103 1.61
106 5.14
107 91.35
108 14.87
109 8.35
110 1.72
111 1.31
115 1.27
117 1.04
119 1.31
120 2.01
121 72.94
122 9.19
123 21.56
124 4.49
127 1.71
128 1.48
131 1.5
135 54.17
136 12.62
137 4.96
138 1.2
145 1.7
148 1.21
149 9.32
150 1.63
151 15.13
152 2.25
157 1.29
165 1.11
173 3.1
185 1.01
201 6.19
202 1.31
213 1.91
215 1.99
229 12.53
230 2.43
256 1.22
257 7.66
258 2.66
270 6.39
285 2.4
286 99.99
287 22.1
288 2.97

>  <PREDICTED SPECTRUM>  (1023) 
14 13
15 5
17 0
18 13
26 66
27 227
28 160
29 248
30 81
31 23
32 27
34 3
37 15
38 124
39 404
40 92
41 242
42 70
43 213
44 106
45 65
46 6
50 199
51 352
52 307
53 332
54 142
55 291
56 18
57 154
61 23
62 127
63 432
64 327
65 631
66 191
67 170
68 120
69 143
70 45
71 41
74 22
75 58
76 153
77 602
78 295
79 473
80 329
81 333
82 103
83 45
89 159
90 166
91 303
92 166
93 539
94 236
95 222
96 92
97 65
103 54
104 91
105 196
106 193
107 902
108 541
109 204
110 131
111 31
115 140
116 20
118 26
119 19
120 39
121 999
122 370
123 418
124 100
125 7
126 17
127 108
128 125
129 61
130 9
133 75
134 4
135 603
136 247
137 160
138 142
139 36
145 81
146 44
149 358
150 280
151 416
152 154
153 35
156 60
157 99
158 27
159 59
160 25
163 54
164 2
165 95
166 11
167 18
168 21
171 14
172 45
173 232
174 88
183 55
185 43
187 15
196 58
200 19
201 202
202 89
213 125
214 11
215 135
229 283
230 148
257 321
258 169
259 34
269 63
270 216
271 31
286 892
287 423
288 106

$$$$

     RDKit          2D

 18 20  0  0  0  0  0  0  0  0999 V2000
    3.9000    0.7500    0.0000 C   0  0  0  0  0  0  0  0  0  0  0  0
   -3.9000   -0.7500    0.0000 C   0  0  0  0  0  0  0  0  0  0  0  0
    2.6000    1.5000    0.0000 C   0  0  0  0  0  0  0  0  0  0  0  0
   -2.6000   -1.5000    0.0000 C   0  0  0  0  0  0  0  0  0  0  0  0
    2.6000   -1.5000    0.0000 C   0  0  0  0  0  0  0  0  0  0  0  0
   -2.6000    1.5000    0.0000 C   0  0  0  0  0  0  0  0  0  0  0  0
    3.9000   -0.7500    0.0000 C   0  0  0  0  0  0  0  0  0  0  0  0
   -3.9000    0.7500    0.0000 C   0  0  0  0  0  0  0  0  0  0  0  0
    1.3000    0.7500    0.0000 C   0  0  0  0  0  0  0  0  0  0  0  0
   -1.3000   -0.7500    0.0000 C   0  0  0  0  0  0  0  0  0  0  0  0
    1.3000   -0.7500    0.0000 C   0  0  0  0  0  0  0  0  0  0  0  0
   -1.3000    0.7500    0.0000 C   0  0  0  0  0  0  0  0  0  0  0  0
   -0.0000    1.5000    0.0000 C   0  0  0  0  0  0  0  0  0  0  0  0
   -0.0000   -1.5000    0.0000 C   0  0  0  0  0  0  0  0  0  0  0  0
    5.1989   -1.5002    0.0000 O   0  0  0  0  0  0  0  0  0  0  0  0
   -5.1989    1.5002    0.0000 O   0  0  0  0  0  0  0  0  0  0  0  0
    0.0000    3.0000    0.0000 O   0  0  0  0  0  0  0  0  0  0  0  0
   -0.0000   -3.0000    0.0000 O   0  0  0  0  0  0  0  0  0  0  0  0
  3  1  2  0
  4  2  1  0
  7  1  1  0
  7  5  2  0
  8  2  2  0
  8  6  1  0
  9  3  1  0
 10  4  2  0
 11  5  1  0
 11  9  2  0
 12  6  2  0
 12 10  1  0
 13  9  1  0
 13 12  1  0
 14 10  1  0
 14 11  1  0
 15  7  1  0
 16  8  1  0
 17 13  2  0
 18 14  2  0
M  END
>  <NAME>  (1024) 
ANTHRAFLAVIC ACID

>  <SYNONYMS>  (1024) 
2,6-DIHYDROXYANTHRAQUINONE

>  <SPECTRUM TYPE>  (1024) 
MS1

>  <INSTRUMENT TYPE>  (1024) 
EI-B

>  <INSTRUMENT>  (1024) 
HITACHI M-80

>  <ION MODE>  (1024) 
P

>  <INCHIKEY>  (1024) 
APAJFZPFBHMFQR-UHFFFAOYSA-N

>  <FORMULA>  (1024) 
C14H8O4

>  <EXACT MASS>  (1024) 
240.042258736

>  <MW>  (1024) 
240

>  <ID>  (1024) 
JP010533

>  <CONTRIBUTOR>  (1024) 
University of Tokyo Team, {Faculty of Engineering, University of Tokyo

>  <COMMENT>  (1024) 
SMILES=Oc(c3)cc(c(=O)1)c(c3)c(=O)c(c2)c(ccc(O)2)1
cas=84-60-6
InChI=InChI=1S/C14H8O4/c15-7-1-3-9-11(5-7)14(18)10-4-2-8(16)6-12(10)13(9)17/h1-6,15-16H
computed SMILES=O=C1C2=CC=C(O)C=C2C(=O)C3=CC=C(O)C=C13
accession=JP010533
date=2016.01.19 (Created 2008.10.21, modified 2011.05.06)
author=NARA WOMEN'S UNIVERSITY
license=CC BY-NC-SA
exact mass=240.04226
ionization energy=70 eV
ion type=[M]+*
computed spectral entropy=3.9272461417476525
computed normalized entropy=0.858468690197441
SPLASH=splash10-03di-9410000000-c197fe59d166513e1247
submitter=submitter = University of Tokyo Team (Faculty of Engineering, University of Tokyo)
MoNA Rating=3.75

>  <NUM PEAKS>  (1024) 
97

>  <MASS SPECTRAL PEAKS>  (1024) 
14 2.99
15 1.45
16 2.95
26 3.68
27 14.75
28 1.49
29 31.44
32 1.03
37 5.11
38 14.45
39 20.89
40 1.62
41 1.97
42 6.06
43 3.55
45 2.92
49 1.33
50 14.84
51 12.18
52 3.33
53 22.01
54 2.5
55 5
61 9.75
62 44.54
63 99.99
64 30.06
65 9.14
66 8.15
67 1.95
69 1.99
73 2.61
74 21.45
75 18.43
76 7.65
77 13.25
78 2.62
79 2.2
85 1.95
86 5.54
87 11.01
88 2.86
89 5.82
90 4.6
91 8.59
92 43.34
93 6.2
98 5.53
99 4.7
100 3.16
101 10.5
102 9.3
103 1.88
104 1.1
105 1.96
106 1.27
110 1.77
111 3.25
113 3.55
114 1.5
115 1.24
118 1.29
119 3.28
120 8.98
121 2.76
122 1.14
125 2.09
126 15.83
127 23.64
128 30.57
129 3.42
130 2.53
137 2.33
138 2.26
139 11.33
140 1.98
142 1.23
145 2.34
154 1.99
155 36.78
156 6.62
167 1.9
168 2.38
183 6.81
184 29.87
185 3.13
195 2.46
196 2.96
211 5.82
212 23.36
213 3.56
223 6.23
224 3.97
239 4.9
240 43.72
241 8.24
242 1.23

>  <PREDICTED SPECTRUM>  (1024) 
26 19
27 78
28 41
38 19
39 32
43 48
44 36
45 0
50 100
51 106
52 77
53 110
54 9
55 100
56 38
57 43
58 72
61 36
62 116
63 190
64 102
65 45
66 24
67 32
68 45
69 175
70 92
71 84
72 28
73 30
74 153
75 128
76 125
77 104
78 50
79 91
80 37
81 98
82 71
83 106
84 77
85 106
86 111
87 105
88 54
89 22
91 68
92 33
93 26
94 27
95 15
96 11
97 94
98 101
99 149
100 161
101 112
102 70
103 43
104 39
105 81
108 96
109 19
110 93
111 128
112 116
113 109
114 100
115 5
117 0
123 14
124 22
125 25
126 199
127 203
128 160
129 41
130 55
131 5
135 5
136 78
137 188
138 201
139 231
140 170
141 76
150 51
151 6
154 95
155 299
156 147
157 60
158 70
165 45
166 34
167 72
168 56
182 128
183 290
184 334
185 119
186 81
194 9
195 63
196 108
197 10
211 268
212 461
213 205
214 53
223 36
224 30
225 70
226 9
239 196
240 999
241 392
242 186
243 28

$$$$

     RDKit          2D

 21 22  0  0  0  0  0  0  0  0999 V2000
   -1.3000   -0.7500    0.0000 C   0  0  0  0  0  0  0  0  0  0  0  0
    0.0000    1.5000    0.0000 C   0  0  0  0  0  0  0  0  0  0  0  0
    7.7970   -1.5006    0.0000 C   0  0  0  0  0  0  0  0  0  0  0  0
    6.4970   -3.7506    0.0000 C   0  0  0  0  0  0  0  0  0  0  0  0
    0.0000   -1.5000    0.0000 C   0  0  0  0  0  0  0  0  0  0  0  0
    1.3000    0.7500    0.0000 C   0  0  0  0  0  0  0  0  0  0  0  0
    6.4970   -0.7506    0.0000 C   0  0  0  0  0  0  0  0  0  0  0  0
    5.1970   -3.0006    0.0000 C   0  0  0  0  0  0  0  0  0  0  0  0
   -1.3000    0.7500    0.0000 C   0  0  0  0  0  0  0  0  0  0  0  0
    7.7970   -3.0006    0.0000 C   0  0  0  0  0  0  0  0  0  0  0  0
    1.3000   -0.7500    0.0000 C   0  0  0  0  0  0  0  0  0  0  0  0
    5.1970   -1.5006    0.0000 C   0  0  0  0  0  0  0  0  0  0  0  0
   -2.5989    1.5002    0.0000 C   0  0  0  0  0  0  0  0  0  0  0  0
    9.0959   -3.7508    0.0000 C   0  0  0  0  0  0  0  0  0  0  0  0
    2.5989   -1.5002    0.0000 N   0  0  0  0  0  0  0  0  0  0  0  0
    3.8981   -0.7504    0.0000 N   0  0  0  0  0  0  0  0  0  0  0  0
   -3.8981    0.7504    0.0000 O   0  0  0  0  0  0  0  0  0  0  0  0
   -2.5987    3.0002    0.0000 O   0  0  0  0  0  0  0  0  0  0  0  0
   10.3951   -3.0010    0.0000 O   0  0  0  0  0  0  0  0  0  0  0  0
    9.0957   -5.2508    0.0000 O   0  0  0  0  0  0  0  0  0  0  0  0
    3.8983    0.7496    0.0000 O   0  0  0  0  0  0  0  0  0  0  0  0
  5  1  2  0
  6  2  1  0
  7  3  2  0
  8  4  1  0
  9  1  1  0
  9  2  2  0
 10  3  1  0
 10  4  2  0
 11  5  1  0
 11  6  2  0
 12  7  1  0
 12  8  2  0
 13  9  1  0
 14 10  1  0
 15 11  1  0
 16 12  1  0
 15 16  2  0
 17 13  1  0
 18 13  2  0
 19 14  1  0
 20 14  2  0
 21 16  1  0
M  CHG  2  16   1  21  -1
M  END
>  <NAME>  (1025) 
4,4'-AZOXYDIBENZOIC ACID

>  <SYNONYMS>  (1025) 


>  <SPECTRUM TYPE>  (1025) 
MS1

>  <INSTRUMENT TYPE>  (1025) 
EI-B

>  <INSTRUMENT>  (1025) 
HITACHI M-80

>  <ION MODE>  (1025) 
P

>  <INCHIKEY>  (1025) 
ZYVHVGJGLOEEKD-FOCLMDBBSA-N

>  <FORMULA>  (1025) 
C14H10N2O5

>  <EXACT MASS>  (1025) 
286.05897142

>  <MW>  (1025) 
286

>  <ID>  (1025) 
JP010532

>  <CONTRIBUTOR>  (1025) 
University of Tokyo Team, {Faculty of Engineering, University of Tokyo

>  <COMMENT>  (1025) 
SMILES=OC(=O)c(c2)ccc(c2)N=[N+1]([O-1])c(c1)ccc(C(O)=O)c1
InChI=InChI=1S/C14H10N2O5/c17-13(18)9-1-5-11(6-2-9)15-16(21)12-7-3-10(4-8-12)14(19)20/h1-8H,(H,17,18)(H,19,20)/b16-15+
computed SMILES=O=C(O)C1=CC=C(N=N(=O)C2=CC=C(C=C2)C(=O)O)C=C1
computed InChI=InChI=1S/C14H10N2O5/c17-13(18)9-1-5-11(6-2-9)15-16(21)12-7-3-10(4-8-12)14(19)20/h1-8H,(H,17,18)(H,19,20)/b16-15-
accession=JP010532
date=2016.01.19 (Created 2008.10.21, modified 2011.05.06)
author=NARA WOMEN'S UNIVERSITY
license=CC BY-NC-SA
exact mass=286.05897
ionization energy=70 eV
ion type=[M]+*
computed spectral entropy=3.6572599297895647
computed normalized entropy=0.8276514711430638
SPLASH=splash10-01b9-9410000000-e8209857cadd86e61626
submitter=submitter = University of Tokyo Team (Faculty of Engineering, University of Tokyo)
MoNA Rating=3.75

>  <NUM PEAKS>  (1025) 
83

>  <MASS SPECTRAL PEAKS>  (1025) 
17 3.13
18 9.81
27 3.27
28 9.33
29 1.1
30 2.01
32 2.76
36 2.25
37 1.88
38 4.69
39 21.92
40 1.65
41 2.4
43 1.16
44 1.67
45 10.99
50 17.86
51 19.88
52 7.71
53 6.14
54 1.51
55 1.44
62 5.17
63 16.74
64 15.81
65 99.99
66 6.42
67 1.18
74 7.53
75 15.84
76 20.97
77 5.12
78 3.92
79 6.73
80 2.29
81 13.06
88 1.17
89 5.79
90 5.65
91 3.89
92 7.58
93 10.23
94 1.17
103 5.61
104 8.69
105 2.44
106 2.26
107 5.12
108 2.69
109 8.97
115 2.12
117 5.19
118 1.39
119 2.55
120 2.99
121 85.7
122 7.44
123 1.41
128 1.21
135 4.98
136 1.3
137 5.64
138 1
139 2.19
140 1.14
141 3.64
149 20.27
150 2.19
151 3.36
152 2.05
165 1.6
166 1.24
167 3.83
168 1.71
169 3.17
213 2.4
258 10.58
259 1.52
270 8.21
271 1.4
285 1.71
286 22.12
287 3.75

>  <PREDICTED SPECTRUM>  (1025) 
14 13
16 11
17 30
18 55
26 21
27 50
28 54
29 23
30 24
31 0
33 12
34 27
35 6
36 61
37 117
38 216
39 466
40 167
41 80
42 6
43 59
44 192
45 217
46 40
49 24
50 408
51 415
52 273
53 303
54 65
55 152
56 1
57 65
60 55
61 120
62 231
63 427
64 299
65 742
66 206
67 26
70 2
71 16
73 66
74 213
75 292
76 403
77 207
78 135
79 191
80 145
81 174
82 32
83 40
84 26
85 3
86 19
88 16
89 36
90 79
91 170
92 184
93 382
94 70
95 10
97 5
98 19
101 50
102 47
103 204
104 152
105 189
106 135
107 127
108 107
109 102
110 60
111 14
112 12
114 21
115 127
119 86
120 109
121 999
122 295
123 59
127 2
128 23
133 5
134 50
135 106
136 161
137 301
138 137
139 111
140 69
149 501
150 164
151 121
152 41
154 50
155 10
156 2
164 23
165 209
166 93
167 131
168 55
169 15
183 28
185 3
196 52
240 16
241 9
242 4
253 12
258 109
259 1
269 83
270 82
286 385
287 138

$$$$

     RDKit          2D

 16 17  0  0  0  0  0  0  0  0999 V2000
    3.8971    1.0700    0.0000 C   0  0  0  0  0  0  0  0  0  0  0  0
   -5.1962    4.8200    0.0000 C   0  0  0  0  0  0  0  0  0  0  0  0
    3.8976    2.5708    0.0000 C   0  0  0  0  0  0  0  0  0  0  0  0
    2.5976    0.3192    0.0000 C   0  0  0  0  0  0  0  0  0  0  0  0
   -5.1966    3.3192    0.0000 C   0  0  0  0  0  0  0  0  0  0  0  0
   -3.8966    5.5708    0.0000 C   0  0  0  0  0  0  0  0  0  0  0  0
    2.5986    3.3208    0.0000 C   0  0  0  0  0  0  0  0  0  0  0  0
    1.2986    1.0692    0.0000 C   0  0  0  0  0  0  0  0  0  0  0  0
   -3.8976    2.5692    0.0000 C   0  0  0  0  0  0  0  0  0  0  0  0
   -2.5976    4.8208    0.0000 C   0  0  0  0  0  0  0  0  0  0  0  0
    1.2990    2.5700    0.0000 C   0  0  0  0  0  0  0  0  0  0  0  0
   -2.5981    3.3200    0.0000 C   0  0  0  0  0  0  0  0  0  0  0  0
    0.0000    3.3200    0.0000 C   0  0  0  0  0  0  0  0  0  0  0  0
   -1.2990    2.5700    0.0000 C   0  0  0  0  0  0  0  0  0  0  0  0
    0.0000    4.8200    0.0000 O   0  0  0  0  0  0  0  0  0  0  0  0
   -1.2990    1.0700    0.0000 O   0  0  0  0  0  0  0  0  0  0  0  0
  3  1  2  0
  4  1  1  0
  5  2  2  0
  6  2  1  0
  7  3  1  0
  8  4  2  0
  9  5  1  0
 10  6  2  0
 11  7  2  0
 11  8  1  0
 12  9  2  0
 12 10  1  0
 13 11  1  0
 14 12  1  0
 14 13  1  0
 15 13  2  0
 16 14  2  0
M  END
>  <NAME>  (1026) 
BENZIL

>  <SYNONYMS>  (1026) 


>  <SPECTRUM TYPE>  (1026) 
MS1

>  <INSTRUMENT TYPE>  (1026) 
EI-B

>  <INSTRUMENT>  (1026) 
HITACHI M-80

>  <ION MODE>  (1026) 
P

>  <INCHIKEY>  (1026) 
WURBFLDFSFBTLW-UHFFFAOYSA-N

>  <FORMULA>  (1026) 
C14H10O2

>  <EXACT MASS>  (1026) 
210.06807956

>  <MW>  (1026) 
210

>  <ID>  (1026) 
JP010530

>  <CONTRIBUTOR>  (1026) 
University of Tokyo Team, {Faculty of Engineering, University of Tokyo

>  <COMMENT>  (1026) 
SMILES=c(c2)ccc(c2)C(=O)C(=O)c(c1)cccc1
cas=134-81-6
InChI=InChI=1S/C14H10O2/c15-13(11-7-3-1-4-8-11)14(16)12-9-5-2-6-10-12/h1-10H
computed SMILES=O=C(C=1C=CC=CC1)C(=O)C=2C=CC=CC2
accession=JP010530
date=2016.01.19 (Created 2008.10.21, modified 2011.05.06)
author=NARA WOMEN'S UNIVERSITY
license=CC BY-NC-SA
exact mass=210.06808
ionization energy=70 eV
ion type=[M]+*
computed spectral entropy=1.3872634391637146
computed normalized entropy=0.6313707999960331
SPLASH=splash10-0a4i-6900000000-7dc0962c0e403c531b19
submitter=submitter = University of Tokyo Team (Faculty of Engineering, University of Tokyo)
MoNA Rating=3.75

>  <NUM PEAKS>  (1026) 
9

>  <MASS SPECTRAL PEAKS>  (1026) 
50 6.51
51 20.65
74 1.1
76 1.51
77 41.58
78 3.69
105 99.99
106 7.79
210 3.73

>  <PREDICTED SPECTRUM>  (1026) 
27 21
28 0
37 34
38 88
39 161
40 43
44 13
49 15
50 297
51 532
52 175
53 87
54 7
62 115
63 198
64 103
65 111
74 152
75 176
76 211
77 892
78 235
79 23
80 5
82 10
89 107
105 999
106 333
107 16
181 14
182 211
183 40
210 386
211 136

$$$$

     RDKit          2D

 14 16  0  0  0  0  0  0  0  0999 V2000
    3.9000    0.7500    0.0000 C   0  0  0  0  0  0  0  0  0  0  0  0
   -3.9000    0.7500    0.0000 C   0  0  0  0  0  0  0  0  0  0  0  0
    3.9000   -0.7500    0.0000 C   0  0  0  0  0  0  0  0  0  0  0  0
   -3.9000   -0.7500    0.0000 C   0  0  0  0  0  0  0  0  0  0  0  0
    2.6000    1.5000    0.0000 C   0  0  0  0  0  0  0  0  0  0  0  0
   -2.6000    1.5000    0.0000 C   0  0  0  0  0  0  0  0  0  0  0  0
    2.6000   -1.5000    0.0000 C   0  0  0  0  0  0  0  0  0  0  0  0
   -2.6000   -1.5000    0.0000 C   0  0  0  0  0  0  0  0  0  0  0  0
    0.0000    1.5000    0.0000 C   0  0  0  0  0  0  0  0  0  0  0  0
    1.3000    0.7500    0.0000 C   0  0  0  0  0  0  0  0  0  0  0  0
   -1.3000    0.7500    0.0000 C   0  0  0  0  0  0  0  0  0  0  0  0
    1.3000   -0.7500    0.0000 C   0  0  0  0  0  0  0  0  0  0  0  0
   -1.3000   -0.7500    0.0000 C   0  0  0  0  0  0  0  0  0  0  0  0
    0.0000   -1.5000    0.0000 N   0  0  0  0  0  0  0  0  0  0  0  0
  3  1  2  0
  4  2  1  0
  5  1  1  0
  6  2  2  0
  7  3  1  0
  8  4  2  0
 10  5  2  0
 10  9  1  0
 11  6  1  0
 11  9  2  0
 12  7  2  0
 12 10  1  0
 13  8  1  0
 13 11  1  0
 14 12  1  0
 14 13  2  0
M  END
>  <NAME>  (1027) 
ACRIDINE

>  <SYNONYMS>  (1027) 


>  <SPECTRUM TYPE>  (1027) 
MS1

>  <INSTRUMENT TYPE>  (1027) 
EI-B

>  <INSTRUMENT>  (1027) 
HITACHI M-80

>  <ION MODE>  (1027) 
P

>  <INCHIKEY>  (1027) 
DZBUGLKDJFMEHC-UHFFFAOYSA-N

>  <FORMULA>  (1027) 
C13H9N

>  <EXACT MASS>  (1027) 
179.073499288

>  <MW>  (1027) 
179

>  <ID>  (1027) 
JP010529

>  <CONTRIBUTOR>  (1027) 
University of Tokyo Team, {Faculty of Engineering, University of Tokyo

>  <COMMENT>  (1027) 
SMILES=c(c3)cc(c1)c(c3)nc(c2)c(ccc2)1
cas=260-94-6
InChI=InChI=1S/C13H9N/c1-3-7-12-10(5-1)9-11-6-2-4-8-13(11)14-12/h1-9H
computed SMILES=N=1C=2C=CC=CC2C=C3C=CC=CC13
accession=JP010529
date=2016.01.19 (Created 2008.10.21, modified 2011.05.06)
author=NARA WOMEN'S UNIVERSITY
license=CC BY-NC-SA
exact mass=179.0735
ionization energy=70 eV
ion type=[M]+*
computed spectral entropy=2.3039617471950553
computed normalized entropy=0.6709290425386095
SPLASH=splash10-004i-1900000000-cd23960a93953ee0f1e2
submitter=submitter = University of Tokyo Team (Faculty of Engineering, University of Tokyo)
MoNA Rating=3.75

>  <NUM PEAKS>  (1027) 
31

>  <MASS SPECTRAL PEAKS>  (1027) 
39 1.57
50 2.11
51 2.36
62 1.38
63 3.48
74 2.27
75 3.45
76 3.75
77 1.28
87 1.39
89 5.54
90 5.54
99 1.13
101 1.16
102 1.15
113 1.13
125 1.48
126 3.13
127 2.11
128 1.16
140 1.29
150 3.68
151 8.31
152 8.59
153 4.59
176 1.25
177 7.33
178 19.07
179 99.99
180 15.21
181 1.2

>  <PREDICTED SPECTRUM>  (1027) 
26 5
37 17
38 49
39 144
40 54
41 84
43 14
44 35
49 35
50 172
51 189
52 77
55 24
57 31
61 46
62 131
63 185
64 84
65 42
66 3
69 68
70 50
71 10
74 163
75 232
76 205
77 101
78 36
81 48
82 26
83 24
84 57
85 27
86 90
87 151
88 89
89 112
90 35
94 25
95 39
96 49
97 27
98 56
99 101
100 70
101 128
102 93
108 9
109 34
110 61
111 50
112 40
113 93
114 23
122 6
123 15
124 101
125 131
126 149
127 104
128 32
137 4
138 80
139 152
140 301
149 119
150 177
151 312
152 344
153 215
154 43
176 100
177 283
178 483
179 999
180 387
181 127

$$$$

     RDKit          2D

  9  9  0  0  0  0  0  0  0  0999 V2000
   -1.3000   -0.7500    0.0000 C   0  0  0  0  0  0  0  0  0  0  0  0
    0.0000    1.5000    0.0000 C   0  0  0  0  0  0  0  0  0  0  0  0
    0.0000   -1.5000    0.0000 C   0  0  0  0  0  0  0  0  0  0  0  0
    1.3000    0.7500    0.0000 C   0  0  0  0  0  0  0  0  0  0  0  0
   -2.5989    1.5002    0.0000 C   0  0  0  0  0  0  0  0  0  0  0  0
   -1.3000    0.7500    0.0000 C   0  0  0  0  0  0  0  0  0  0  0  0
    1.3000   -0.7500    0.0000 C   0  0  0  0  0  0  0  0  0  0  0  0
   -3.8978    2.2504    0.0000 N   0  0  0  0  0  0  0  0  0  0  0  0
    2.5989   -1.5002    0.0000 N   0  0  0  0  0  0  0  0  0  0  0  0
  3  1  2  0
  4  2  1  0
  6  1  1  0
  6  2  2  0
  6  5  1  0
  7  3  1  0
  7  4  2  0
  8  5  3  0
  9  7  1  0
M  END
>  <NAME>  (1028) 
4-AMINOBENZONITRILE

>  <SYNONYMS>  (1028) 
4-CYANOANILINE

>  <SPECTRUM TYPE>  (1028) 
MS1

>  <INSTRUMENT TYPE>  (1028) 
EI-B

>  <INSTRUMENT>  (1028) 
HITACHI M-80

>  <ION MODE>  (1028) 
P

>  <INCHIKEY>  (1028) 
YBAZINRZQSAIAY-UHFFFAOYSA-N

>  <FORMULA>  (1028) 
C7H6N2

>  <EXACT MASS>  (1028) 
118.053098192

>  <MW>  (1028) 
118

>  <ID>  (1028) 
JP010528

>  <CONTRIBUTOR>  (1028) 
University of Tokyo Team, {Faculty of Engineering, University of Tokyo

>  <COMMENT>  (1028) 
SMILES=N#Cc(c1)ccc(N)c1
cas=873-74-5
InChI=InChI=1S/C7H6N2/c8-5-6-1-3-7(9)4-2-6/h1-4H,9H2
computed SMILES=N#CC1=CC=C(N)C=C1
accession=JP010528
date=2016.01.19 (Created 2008.10.21, modified 2011.05.06)
author=NARA WOMEN'S UNIVERSITY
license=CC BY-NC-SA
exact mass=118.0531
ionization energy=70 eV
ion type=[M]+*
computed spectral entropy=2.183183762542094
computed normalized entropy=0.6624064998668615
SPLASH=splash10-014i-7900000000-a9299d8a6fc6d1efdef7
submitter=submitter = University of Tokyo Team (Faculty of Engineering, University of Tokyo)
MoNA Rating=3.75

>  <NUM PEAKS>  (1028) 
27

>  <MASS SPECTRAL PEAKS>  (1028) 
28 2.46
37 1.64
38 2.8
39 5.67
40 1.67
41 2.9
50 1.67
51 2.33
52 4.36
61 1.08
62 2.61
63 8.44
64 10.09
65 4.8
66 1.51
67 1.06
75 1.7
76 1.61
77 1.22
78 1.11
89 1.08
90 8.67
91 25.39
92 2.54
117 5.08
118 99.99
119 9.12

>  <PREDICTED SPECTRUM>  (1028) 
25 20
26 65
27 68
28 107
36 41
37 156
38 193
39 272
40 111
41 287
42 121
44 21
48 26
49 93
50 237
51 236
52 305
53 129
54 64
55 9
57 3
60 39
61 182
62 228
63 386
64 416
65 339
66 134
67 64
68 25
73 33
74 109
75 193
76 181
77 41
78 152
79 103
86 15
87 103
88 79
89 152
90 494
91 537
92 270
93 130
100 3
101 21
102 101
103 34
116 72
117 276
118 999
119 337
120 44

$$$$

     RDKit          2D

 11 11  0  0  0  0  0  0  0  0999 V2000
    3.8981    0.7504    0.0000 C   0  0  0  0  0  0  0  0  0  0  0  0
   -1.3000    0.7500    0.0000 C   0  0  0  0  0  0  0  0  0  0  0  0
   -0.0000   -1.5000    0.0000 C   0  0  0  0  0  0  0  0  0  0  0  0
    0.0000    1.5000    0.0000 C   0  0  0  0  0  0  0  0  0  0  0  0
    1.3000   -0.7500    0.0000 C   0  0  0  0  0  0  0  0  0  0  0  0
   -2.5989   -1.5002    0.0000 C   0  0  0  0  0  0  0  0  0  0  0  0
    2.5989    1.5002    0.0000 C   0  0  0  0  0  0  0  0  0  0  0  0
   -1.3000   -0.7500    0.0000 C   0  0  0  0  0  0  0  0  0  0  0  0
    1.3000    0.7500    0.0000 C   0  0  0  0  0  0  0  0  0  0  0  0
   -3.8978   -2.2504    0.0000 N   0  0  0  0  0  0  0  0  0  0  0  0
    2.5987    3.0002    0.0000 O   0  0  0  0  0  0  0  0  0  0  0  0
  4  2  2  0
  5  3  1  0
  7  1  1  0
  8  2  1  0
  8  3  2  0
  8  6  1  0
  9  4  1  0
  9  5  2  0
  9  7  1  0
 10  6  3  0
 11  7  2  0
M  END
>  <NAME>  (1029) 
4-ACETYLBENZONITRILE

>  <SYNONYMS>  (1029) 
4'-CYANOACETOPHENONE

>  <SPECTRUM TYPE>  (1029) 
MS1

>  <INSTRUMENT TYPE>  (1029) 
EI-B

>  <INSTRUMENT>  (1029) 
HITACHI M-80

>  <ION MODE>  (1029) 
P

>  <INCHIKEY>  (1029) 
NLPHXWGWBKZSJC-UHFFFAOYSA-N

>  <FORMULA>  (1029) 
C9H7NO

>  <EXACT MASS>  (1029) 
145.052763844

>  <MW>  (1029) 
145

>  <ID>  (1029) 
JP010527

>  <CONTRIBUTOR>  (1029) 
University of Tokyo Team, {Faculty of Engineering, University of Tokyo

>  <COMMENT>  (1029) 
SMILES=N#Cc(c1)ccc(c1)C(C)=O
cas=1443-80-7
InChI=InChI=1S/C9H7NO/c1-7(11)9-4-2-8(6-10)3-5-9/h2-5H,1H3
computed SMILES=N#CC1=CC=C(C=C1)C(=O)C
accession=JP010527
date=2016.01.19 (Created 2008.10.21, modified 2011.05.06)
author=NARA WOMEN'S UNIVERSITY
license=CC BY-NC-SA
exact mass=145.05276
ionization energy=70 eV
ion type=[M]+*
computed spectral entropy=2.166267324919958
computed normalized entropy=0.6908854476320639
SPLASH=splash10-0f89-3900000000-3bdc0839d463be457290
submitter=submitter = University of Tokyo Team (Faculty of Engineering, University of Tokyo)
MoNA Rating=3.75

>  <NUM PEAKS>  (1029) 
23

>  <MASS SPECTRAL PEAKS>  (1029) 
15 1.7
38 1.21
39 1.76
42 1.51
43 16.21
50 6.88
51 8.51
52 1.45
62 1.64
63 2.48
64 1.24
74 3.09
75 12.74
76 9.35
89 1.51
99 1
101 1.28
102 50.06
103 5.71
130 99.99
131 9.23
145 25.6
146 3.03

>  <PREDICTED SPECTRUM>  (1029) 
14 39
15 114
18 1
25 13
26 91
27 155
28 101
29 90
31 4
36 20
37 156
38 215
39 335
40 203
41 156
42 224
43 752
44 225
45 8
49 103
50 436
51 425
52 242
53 116
54 48
55 17
57 20
59 2
61 190
62 282
63 333
64 231
65 44
66 134
67 4
68 8
72 29
73 56
74 279
75 470
76 459
77 89
84 1
85 158
86 207
87 125
88 74
89 12
90 28
98 21
99 39
100 97
101 182
102 555
103 234
104 95
116 44
117 3
118 26
130 999
131 361
132 93
145 499
146 171
147 0

$$$$

     RDKit          2D

 14 15  0  0  0  0  0  0  0  0999 V2000
   -0.0000    1.5000    0.0000 C   0  0  0  0  0  0  0  0  0  0  0  0
    6.4970   -3.7506    0.0000 C   0  0  0  0  0  0  0  0  0  0  0  0
   -1.3000    0.7500    0.0000 C   0  0  0  0  0  0  0  0  0  0  0  0
    7.7970   -3.0006    0.0000 C   0  0  0  0  0  0  0  0  0  0  0  0
    1.3000    0.7500    0.0000 C   0  0  0  0  0  0  0  0  0  0  0  0
    5.1970   -3.0006    0.0000 C   0  0  0  0  0  0  0  0  0  0  0  0
   -1.3000   -0.7500    0.0000 C   0  0  0  0  0  0  0  0  0  0  0  0
    7.7970   -1.5006    0.0000 C   0  0  0  0  0  0  0  0  0  0  0  0
    1.3000   -0.7500    0.0000 C   0  0  0  0  0  0  0  0  0  0  0  0
    5.1970   -1.5006    0.0000 C   0  0  0  0  0  0  0  0  0  0  0  0
   -0.0000   -1.5000    0.0000 N   0  0  0  0  0  0  0  0  0  0  0  0
    6.4970   -0.7506    0.0000 N   0  0  0  0  0  0  0  0  0  0  0  0
    2.5989   -1.5002    0.0000 S   0  0  0  0  0  0  0  0  0  0  0  0
    3.8981   -0.7504    0.0000 S   0  0  0  0  0  0  0  0  0  0  0  0
  3  1  2  0
  4  2  2  0
  5  1  1  0
  6  2  1  0
  7  3  1  0
  8  4  1  0
  9  5  2  0
 10  6  2  0
 11  7  2  0
 11  9  1  0
 12  8  2  0
 12 10  1  0
 13  9  1  0
 14 10  1  0
 14 13  1  0
M  END
>  <NAME>  (1030) 
ALDRITHIOL-2

>  <SYNONYMS>  (1030) 
2,2'-DIPYRIDYL DISULFIDE

>  <SPECTRUM TYPE>  (1030) 
MS1

>  <INSTRUMENT TYPE>  (1030) 
EI-B

>  <INSTRUMENT>  (1030) 
HITACHI M-80

>  <ION MODE>  (1030) 
P

>  <INCHIKEY>  (1030) 
HAXFWIACAGNFHA-UHFFFAOYSA-N

>  <FORMULA>  (1030) 
C10H8N2S2

>  <EXACT MASS>  (1030) 
220.012890256

>  <MW>  (1030) 
220

>  <ID>  (1030) 
JP010526

>  <CONTRIBUTOR>  (1030) 
University of Tokyo Team, {Faculty of Engineering, University of Tokyo

>  <COMMENT>  (1030) 
SMILES=c(c2)cnc(c2)SSc(c1)nccc1
cas=2127-03-9
InChI=InChI=1S/C10H8N2S2/c1-3-7-11-9(5-1)13-14-10-6-2-4-8-12-10/h1-8H
computed SMILES=N=1C=CC=CC1SSC2=NC=CC=C2
accession=JP010526
date=2016.01.19 (Created 2008.10.21, modified 2011.05.06)
author=NARA WOMEN'S UNIVERSITY
license=CC BY-NC-SA
exact mass=220.01289
ionization energy=70 eV
ion type=[M]+*
computed spectral entropy=2.640119105230603
computed normalized entropy=0.7425768334267107
SPLASH=splash10-00di-4490000000-14ea70bc59e09439fdb0
submitter=submitter = University of Tokyo Team (Faculty of Engineering, University of Tokyo)
MoNA Rating=3.75

>  <NUM PEAKS>  (1030) 
35

>  <MASS SPECTRAL PEAKS>  (1030) 
27 1.69
28 1.1
38 1.39
39 13.01
45 1.65
50 2.45
51 11.87
52 4.23
57 2.97
67 1.89
69 1.75
78 26.07
79 2.5
81 1.01
82 2.74
83 6.96
84 2.13
110 5.17
111 2.2
128 1.19
129 3.71
130 4.05
142 3.12
155 9.6
156 28.6
157 3.56
160 1.94
161 1.81
187 15.28
188 7.03
189 2.15
220 99.99
221 64.75
222 16.42
223 6.13

>  <PREDICTED SPECTRUM>  (1030) 
26 34
27 61
29 17
33 6
34 11
37 48
38 122
39 346
40 41
45 231
46 23
47 23
48 1
49 93
50 204
51 551
52 398
53 150
54 38
55 34
57 257
58 119
59 32
60 55
61 20
62 40
63 125
64 66
65 125
66 160
67 180
68 17
69 218
70 220
71 47
73 11
75 41
76 104
77 39
78 999
79 565
80 91
81 76
82 239
83 373
84 278
88 0
92 79
93 105
94 118
95 28
96 192
97 74
98 64
103 4
104 16
109 285
110 403
111 511
112 381
115 38
116 89
121 19
124 110
127 57
128 77
129 135
130 96
132 42
134 33
136 13
139 39
142 177
146 3
148 3
153 50
154 1
155 178
156 150
161 53
175 50
187 533
188 235
189 42
192 126
193 38
204 100
205 211
206 128
207 36
219 658
220 951
221 411
222 322
223 83

$$$$

     RDKit          2D

 16 18  0  0  0  0  0  0  0  0999 V2000
    3.9000   -0.7500    0.0000 C   0  0  0  0  0  0  0  0  0  0  0  0
    3.9000    0.7500    0.0000 C   0  0  0  0  0  0  0  0  0  0  0  0
   -3.9000   -0.7500    0.0000 C   0  0  0  0  0  0  0  0  0  0  0  0
   -3.9000    0.7500    0.0000 C   0  0  0  0  0  0  0  0  0  0  0  0
    2.6000   -1.5000    0.0000 C   0  0  0  0  0  0  0  0  0  0  0  0
    2.6000    1.5000    0.0000 C   0  0  0  0  0  0  0  0  0  0  0  0
   -2.6000   -1.5000    0.0000 C   0  0  0  0  0  0  0  0  0  0  0  0
   -2.6000    1.5000    0.0000 C   0  0  0  0  0  0  0  0  0  0  0  0
    1.3000   -0.7500    0.0000 C   0  0  0  0  0  0  0  0  0  0  0  0
    1.3000    0.7500    0.0000 C   0  0  0  0  0  0  0  0  0  0  0  0
   -1.3000   -0.7500    0.0000 C   0  0  0  0  0  0  0  0  0  0  0  0
   -1.3000    0.7500    0.0000 C   0  0  0  0  0  0  0  0  0  0  0  0
   -0.0000   -1.5000    0.0000 C   0  0  0  0  0  0  0  0  0  0  0  0
   -0.0000    1.5000    0.0000 C   0  0  0  0  0  0  0  0  0  0  0  0
   -0.0000   -3.0000    0.0000 O   0  0  0  0  0  0  0  0  0  0  0  0
    0.0000    3.0000    0.0000 O   0  0  0  0  0  0  0  0  0  0  0  0
  2  1  2  0
  4  3  2  0
  5  1  1  0
  6  2  1  0
  7  3  1  0
  8  4  1  0
  9  5  2  0
 10  6  2  0
 10  9  1  0
 11  7  2  0
 12  8  2  0
 12 11  1  0
 13  9  1  0
 13 11  1  0
 14 10  1  0
 14 12  1  0
 15 13  2  0
 16 14  2  0
M  END
>  <NAME>  (1031) 
ANTHRAQUINONE

>  <SYNONYMS>  (1031) 


>  <SPECTRUM TYPE>  (1031) 
MS1

>  <INSTRUMENT TYPE>  (1031) 
EI-B

>  <INSTRUMENT>  (1031) 
HITACHI M-80

>  <ION MODE>  (1031) 
P

>  <INCHIKEY>  (1031) 
RZVHIXYEVGDQDX-UHFFFAOYSA-N

>  <FORMULA>  (1031) 
C14H8O2

>  <EXACT MASS>  (1031) 
208.052429496

>  <MW>  (1031) 
208

>  <ID>  (1031) 
JP010524

>  <CONTRIBUTOR>  (1031) 
University of Tokyo Team, {Faculty of Engineering, University of Tokyo

>  <COMMENT>  (1031) 
SMILES=O=c(c21)c(c3)c(ccc3)c(=O)c(cccc2)1
cas=84-65-1
InChI=InChI=1S/C14H8O2/c15-13-9-5-1-2-6-10(9)14(16)12-8-4-3-7-11(12)13/h1-8H
computed SMILES=O=C1C=2C=CC=CC2C(=O)C=3C=CC=CC13
accession=JP010524
date=2016.01.19 (Created 2008.10.21, modified 2011.05.06)
author=NARA WOMEN'S UNIVERSITY
license=CC BY-NC-SA
exact mass=208.05243
ionization energy=70 eV
ion type=[M]+*
computed spectral entropy=3.050076810673995
computed normalized entropy=0.7682248250469741
SPLASH=splash10-0zgi-5930000000-2793068dd8a1a8873de2
submitter=submitter = University of Tokyo Team (Faculty of Engineering, University of Tokyo)
MoNA Rating=3.75

>  <NUM PEAKS>  (1031) 
53

>  <MASS SPECTRAL PEAKS>  (1031) 
18 1.47
27 2.38
28 1.91
38 2.11
39 5.59
49 1.03
50 26.67
51 7.45
52 1.13
53 1.74
61 1.15
62 3.81
63 10.6
73 1.9
74 18.8
75 20.93
76 44.08
77 9.51
78 1.3
85 1.03
86 3.65
87 5.5
88 1.49
89 1.74
90 4.74
98 4.55
99 4.52
100 2.18
101 2.31
102 4.19
104 2.93
110 1.36
111 1.72
113 2.14
122 1.31
125 4.48
126 14.05
127 1.95
149 2.33
150 21.87
151 42.44
152 87.54
153 11.88
176 2
178 12.21
179 5.89
180 99.99
181 14.37
182 1.17
207 13.72
208 94.16
209 14.76
210 1.51

>  <PREDICTED SPECTRUM>  (1031) 
26 25
27 15
28 38
37 48
38 87
39 188
40 67
41 36
49 56
50 400
51 248
52 121
53 99
54 20
55 74
57 4
58 3
61 4
62 135
63 207
64 30
65 10
66 5
67 1
68 26
69 156
70 52
74 294
75 360
76 569
77 271
78 34
82 41
83 65
85 33
86 175
87 134
88 74
89 0
96 11
97 45
98 152
99 63
100 0
102 59
103 77
104 433
105 143
110 37
111 86
112 92
113 202
123 22
124 32
125 115
126 238
127 98
128 1
137 60
139 13
149 122
150 316
151 474
152 592
153 233
154 73
161 75
162 120
163 324
164 73
179 201
180 524
181 257
182 52
207 359
208 999
209 424
210 105

$$$$

     RDKit          2D

 10 10  0  0  0  0  0  0  0  0999 V2000
   -3.8969    2.5696    0.0000 C   0  0  0  0  0  0  0  0  0  0  0  0
    2.5983    0.3196    0.0000 C   0  0  0  0  0  0  0  0  0  0  0  0
    1.2988   -0.4312    0.0000 C   0  0  0  0  0  0  0  0  0  0  0  0
    2.5988    1.8204    0.0000 C   0  0  0  0  0  0  0  0  0  0  0  0
   -0.0002    0.3188    0.0000 C   0  0  0  0  0  0  0  0  0  0  0  0
    1.2998    2.5704    0.0000 C   0  0  0  0  0  0  0  0  0  0  0  0
   -2.5978    1.8196    0.0000 C   0  0  0  0  0  0  0  0  0  0  0  0
    0.0002    1.8196    0.0000 C   0  0  0  0  0  0  0  0  0  0  0  0
   -1.2988    2.5696    0.0000 N   0  0  0  0  0  0  0  0  0  0  0  0
   -2.5978    0.3196    0.0000 O   0  0  0  0  0  0  0  0  0  0  0  0
  3  2  2  0
  4  2  1  0
  5  3  1  0
  6  4  2  0
  7  1  1  0
  8  5  2  0
  8  6  1  0
  9  7  2  3
  9  8  1  0
 10  7  1  0
M  END
>  <NAME>  (1032) 
ACETANILIDE

>  <SYNONYMS>  (1032) 


>  <SPECTRUM TYPE>  (1032) 
MS1

>  <INSTRUMENT TYPE>  (1032) 
EI-B

>  <INSTRUMENT>  (1032) 
HITACHI M-80

>  <ION MODE>  (1032) 
P

>  <INCHIKEY>  (1032) 
FZERHIULMFGESH-UHFFFAOYSA-N

>  <FORMULA>  (1032) 
C8H9NO

>  <EXACT MASS>  (1032) 
135.068413908

>  <MW>  (1032) 
135

>  <ID>  (1032) 
JP010523

>  <CONTRIBUTOR>  (1032) 
University of Tokyo Team, {Faculty of Engineering, University of Tokyo

>  <COMMENT>  (1032) 
SMILES=CC(=O)Nc(c1)cccc1
cas=103-84-4
InChI=InChI=1S/C8H9NO/c1-7(10)9-8-5-3-2-4-6-8/h2-6H,1H3,(H,9,10)
computed SMILES=OC(=NC=1C=CC=CC1)C
accession=JP010523
date=2016.01.19 (Created 2008.10.21, modified 2011.05.06)
author=NARA WOMEN'S UNIVERSITY
license=CC BY-NC-SA
exact mass=135.06841
ionization energy=70 eV
ion type=[M]+*
computed spectral entropy=2.924511260979156
computed normalized entropy=0.7982699742663654
SPLASH=splash10-000f-9000000000-62d570000b48b0837073
submitter=submitter = University of Tokyo Team (Faculty of Engineering, University of Tokyo)
MoNA Rating=3.75

>  <NUM PEAKS>  (1032) 
39

>  <MASS SPECTRAL PEAKS>  (1032) 
14 2.82
15 14.11
26 1.79
27 3.91
28 1.87
29 1.31
37 4.28
38 11.22
39 43.47
40 8.39
41 5.6
42 7.08
43 63.72
44 2.21
47 1.11
50 7.88
51 15.01
52 8.75
53 1.87
54 3.14
61 1.65
62 5.44
63 10.86
64 9.93
65 36.99
66 33.37
67 4.27
74 1.87
75 1.52
76 1.24
77 9.29
78 2.64
91 4.35
92 9.77
93 99.99
94 12.14
106 2.12
135 43.35
136 4.72

>  <PREDICTED SPECTRUM>  (1032) 
14 7
15 13
33 3
37 17
38 64
39 224
40 40
41 81
42 72
43 292
44 78
45 126
46 67
47 62
49 30
50 273
51 530
52 175
53 57
58 44
61 51
62 57
63 176
64 166
65 371
66 185
73 26
74 133
75 150
76 169
77 812
78 345
79 56
81 15
89 150
90 235
91 311
92 375
93 352
94 98
102 67
103 66
104 358
105 69
106 24
107 29
108 12
116 163
117 241
118 226
119 84
120 436
121 100
132 3
133 169
134 336
135 999
136 297
137 69

$$$$

     RDKit          2D

  4  3  0  0  0  0  0  0  0  0999 V2000
   -1.2990    1.5000    0.0000 C   0  0  0  0  0  0  0  0  0  0  0  0
    0.0000    2.2500    0.0000 C   0  0  0  0  0  0  0  0  0  0  0  0
   -2.5981    2.2500    0.0000 Br  0  0  0  0  0  0  0  0  0  0  0  0
    1.2990    1.5000    0.0000 Cl  0  0  0  0  0  0  0  0  0  0  0  0
  2  1  1  0
  3  1  1  0
  4  2  1  0
M  END
>  <NAME>  (1033) 
1-BROMO-2-CHLOROETHANE

>  <SYNONYMS>  (1033) 


>  <SPECTRUM TYPE>  (1033) 
MS1

>  <INSTRUMENT TYPE>  (1033) 
EI-B

>  <INSTRUMENT>  (1033) 
HITACHI M-80

>  <ION MODE>  (1033) 
P

>  <INCHIKEY>  (1033) 
IBYHHJPAARCAIE-UHFFFAOYSA-N

>  <FORMULA>  (1033) 
C2H4BrCl

>  <EXACT MASS>  (1033) 
141.918489908

>  <MW>  (1033) 
142

>  <ID>  (1033) 
JP010522

>  <CONTRIBUTOR>  (1033) 
University of Tokyo Team, {Faculty of Engineering, University of Tokyo

>  <COMMENT>  (1033) 
SMILES=ClCCBr
cas=107-04-0
InChI=InChI=1S/C2H4BrCl/c3-1-2-4/h1-2H2
computed SMILES=ClCCBr
accession=JP010522
date=2016.01.19 (Created 2008.10.21, modified 2011.05.06)
author=NARA WOMEN'S UNIVERSITY
license=CC BY-NC-SA
exact mass=141.91849
ionization energy=70 eV
ion type=[M]+*
computed spectral entropy=2.34469591502179
computed normalized entropy=0.7114113987881797
SPLASH=splash10-03fr-9100000000-68adaa21826a45e4f9fc
submitter=submitter = University of Tokyo Team (Faculty of Engineering, University of Tokyo)
MoNA Rating=3.75

>  <NUM PEAKS>  (1033) 
27

>  <MASS SPECTRAL PEAKS>  (1033) 
25 1.1
26 10.79
27 48.79
28 11.2
31 1.17
35 1.08
49 3.16
51 1.02
61 4.08
62 5.77
63 99.99
64 3.75
65 29.81
79 2.98
80 1.3
81 3.58
82 1.39
93 5.13
95 4.67
105 1.52
106 1.52
107 6.47
108 1.2
109 4.76
142 11.04
144 14.51
146 3.44

>  <PREDICTED SPECTRUM>  (1033) 
14 56
15 63
16 4
17 9
18 28
19 9
25 68
26 172
27 555
28 271
29 128
31 56
32 6
33 15
35 95
36 113
37 157
38 136
39 53
41 29
43 75
44 74
45 108
46 43
47 189
48 65
49 232
50 11
51 108
57 56
59 50
60 79
61 248
62 278
63 999
64 168
65 587
66 145
67 96
79 96
80 119
81 250
82 89
83 39
93 263
95 247
96 23
97 212
106 42
107 296
108 92
109 308
141 20
142 414
143 118
144 408
145 80
146 184
147 4

$$$$

     RDKit          2D

 15 15  0  0  0  0  0  0  0  0999 V2000
    4.5301    1.8139    0.0000 C   0  0  0  0  0  0  0  0  0  0  0  0
    5.4979    3.7016    0.0000 C   0  0  0  0  0  0  0  0  0  0  0  0
    3.6101    4.6694    0.0000 C   0  0  0  0  0  0  0  0  0  0  0  0
   -4.0655   -0.7497    0.0000 C   0  0  0  0  0  0  0  0  0  0  0  0
   -1.9643   -2.2777    0.0000 C   0  0  0  0  0  0  0  0  0  0  0  0
    2.1824    1.3617    0.0000 C   0  0  0  0  0  0  0  0  0  0  0  0
    2.6424    2.7817    0.0000 C   0  0  0  0  0  0  0  0  0  0  0  0
    0.6824    1.3617    0.0000 C   0  0  0  0  0  0  0  0  0  0  0  0
   -1.6915    0.3060    0.0000 C   0  0  0  0  0  0  0  0  0  0  0  0
    4.0701    3.2417    0.0000 C   0  0  0  0  0  0  0  0  0  0  0  0
   -0.1998    0.1486    0.0000 N   0  0  0  0  0  0  0  0  0  0  0  0
    0.2224    2.7817    0.0000 N   0  0  0  0  0  0  0  0  0  0  0  0
   -2.5738   -0.9071    0.0000 N   0  0  0  0  0  0  0  0  0  0  0  0
   -2.3010    1.6766    0.0000 O   0  0  0  0  0  0  0  0  0  0  0  0
    1.4324    3.6717    0.0000 O   0  0  0  0  0  0  0  0  0  0  0  0
  7  6  2  0
  8  6  1  0
 10  1  1  0
 10  2  1  0
 10  3  1  0
 10  7  1  0
 11  8  2  3
 11  9  1  0
 12  8  1  0
 13  4  1  0
 13  5  1  0
 13  9  1  0
 14  9  2  0
 15  7  1  0
 15 12  1  0
M  END
>  <NAME>  (1034) 
3-(5-TERT-BUTYL-3-ISOXAZOLYL)-1,1-DIMETHYLUREA

>  <SYNONYMS>  (1034) 


>  <SPECTRUM TYPE>  (1034) 
MS1

>  <INSTRUMENT TYPE>  (1034) 
EI-B

>  <INSTRUMENT>  (1034) 
HITACHI M-80

>  <ION MODE>  (1034) 
P

>  <INCHIKEY>  (1034) 
JLLJHQLUZAKJFH-UHFFFAOYSA-N

>  <FORMULA>  (1034) 
C10H17N3O2

>  <EXACT MASS>  (1034) 
211.132076784

>  <MW>  (1034) 
211

>  <ID>  (1034) 
JP010521

>  <CONTRIBUTOR>  (1034) 
University of Tokyo Team, {Faculty of Engineering, University of Tokyo

>  <COMMENT>  (1034) 
SMILES=CN(C)C(=O)Nc(n1)cc(o1)C(C)(C)C
InChI=InChI=1S/C10H17N3O2/c1-10(2,3)7-6-8(12-15-7)11-9(14)13(4)5/h6H,1-5H3,(H,11,12,14)
computed SMILES=O=C(N=C1C=C(ON1)C(C)(C)C)N(C)C
accession=JP010521
date=2016.01.19 (Created 2008.10.21, modified 2011.05.06)
author=NARA WOMEN'S UNIVERSITY
license=CC BY-NC-SA
exact mass=211.13208
ionization energy=70 eV
ion type=[M]+*
computed spectral entropy=2.8696255363342886
computed normalized entropy=0.7727399616297205
SPLASH=splash10-00di-9210000000-715ff602c73576be5748
submitter=submitter = University of Tokyo Team (Faculty of Engineering, University of Tokyo)
MoNA Rating=3.75

>  <NUM PEAKS>  (1034) 
41

>  <MASS SPECTRAL PEAKS>  (1034) 
15 4.68
18 2.38
27 2.96
28 3.53
29 4.46
30 4.17
39 5.54
40 1.39
41 9.44
42 8.83
43 4.37
44 21.87
45 12.45
53 1.53
55 1.35
56 2.42
57 5.7
67 4.19
68 3.89
69 1.23
71 1
72 99.99
73 4.06
87 5.38
94 2.63
97 2.87
111 5.75
123 1.44
125 1.66
126 1.88
127 1.26
139 1.7
140 10.67
141 1.22
151 2.91
154 16.29
155 1.23
167 12.52
168 1.37
211 21.35
212 5.94

>  <PREDICTED SPECTRUM>  (1034) 
15 41
26 4
27 67
28 31
29 22
30 43
33 26
37 12
38 81
39 270
40 175
41 230
42 439
43 323
44 292
45 188
46 66
50 103
51 194
52 175
53 233
54 158
55 286
56 260
57 213
58 139
59 74
62 16
63 66
64 80
65 151
66 140
67 192
68 165
69 128
70 86
71 115
72 389
73 337
74 74
75 83
76 93
77 173
78 136
79 169
80 142
81 161
82 248
83 322
84 141
85 148
92 80
93 131
94 121
95 171
96 267
97 235
98 96
99 8
104 110
105 99
106 38
107 189
108 118
109 165
110 233
111 331
112 112
121 86
122 56
123 175
124 113
125 161
126 26
136 30
137 93
138 145
139 999
140 346
141 112
150 122
151 141
152 52
153 62
154 300
155 101
165 23
166 149
167 331
168 85
169 69
179 21
180 58
181 170
182 85
194 5
196 916
197 340
198 96
211 510
212 158
213 32

$$$$

     RDKit          2D

 16 16  0  0  0  0  0  0  0  0999 V2000
   -2.5989    1.5002    0.0000 C   0  0  0  0  0  0  0  0  0  0  0  0
    0.0000    3.0000    0.0000 C   0  0  0  0  0  0  0  0  0  0  0  0
    2.5989   -1.5002    0.0000 C   0  0  0  0  0  0  0  0  0  0  0  0
    1.2990   -3.7500    0.0000 C   0  0  0  0  0  0  0  0  0  0  0  0
   -5.1970   -1.5006    0.0000 C   0  0  0  0  0  0  0  0  0  0  0  0
   -1.3000    0.7500    0.0000 C   0  0  0  0  0  0  0  0  0  0  0  0
    0.0000    1.5000    0.0000 C   0  0  0  0  0  0  0  0  0  0  0  0
    1.3000   -0.7500    0.0000 C   0  0  0  0  0  0  0  0  0  0  0  0
   -1.3000   -0.7500    0.0000 C   0  0  0  0  0  0  0  0  0  0  0  0
    1.3000    0.7500    0.0000 C   0  0  0  0  0  0  0  0  0  0  0  0
   -0.0000   -1.5000    0.0000 C   0  0  0  0  0  0  0  0  0  0  0  0
   -2.5989   -1.5002    0.0000 C   0  0  0  0  0  0  0  0  0  0  0  0
    2.5989    1.5002    0.0000 O   0  0  0  0  0  0  0  0  0  0  0  0
   -2.5987   -3.0002    0.0000 O   0  0  0  0  0  0  0  0  0  0  0  0
   -0.0000   -3.0000    0.0000 O   0  0  0  0  0  0  0  0  0  0  0  0
   -3.8981   -0.7504    0.0000 O   0  0  0  0  0  0  0  0  0  0  0  0
  6  1  1  0
  7  2  1  0
  7  6  2  0
  8  3  1  0
  9  6  1  0
 10  7  1  0
 10  8  2  0
 11  8  1  0
 11  9  2  0
 12  9  1  0
 13 10  1  0
 14 12  2  0
 15  4  1  0
 15 11  1  0
 16  5  1  0
 16 12  1  0
M  END
>  <NAME>  (1035) 
METHYL 4-HYDROXY-2-METHOXY-3,5,6-TRIMETHYLBENZOATE

>  <SYNONYMS>  (1035) 


>  <SPECTRUM TYPE>  (1035) 
MS1

>  <INSTRUMENT TYPE>  (1035) 
EI-B

>  <INSTRUMENT>  (1035) 
HITACHI M-80

>  <ION MODE>  (1035) 
P

>  <INCHIKEY>  (1035) 
UCGSEFPFVKCJLI-UHFFFAOYSA-N

>  <FORMULA>  (1035) 
C12H16O4

>  <EXACT MASS>  (1035) 
224.104858992

>  <MW>  (1035) 
224

>  <ID>  (1035) 
JP010520

>  <CONTRIBUTOR>  (1035) 
University of Tokyo Team, {Faculty of Engineering, University of Tokyo

>  <COMMENT>  (1035) 
SMILES=COC(=O)c(c(C)1)c(OC)c(C)c(O)c(C)1
cas=34874-83-4
InChI=InChI=1S/C12H16O4/c1-6-7(2)10(13)8(3)11(15-4)9(6)12(14)16-5/h13H,1-5H3
computed SMILES=O=C(OC)C=1C(OC)=C(C(O)=C(C1C)C)C
accession=JP010520
date=2016.01.19 (Created 2008.10.21, modified 2011.05.06)
author=NARA WOMEN'S UNIVERSITY
license=CC BY-NC-SA
exact mass=224.10486
ionization energy=70 eV
ion type=[M]+*
computed spectral entropy=3.7067553310085466
computed normalized entropy=0.8365851036712268
SPLASH=splash10-0006-6910000000-b89ee6cbefbb54519e5e
submitter=submitter = University of Tokyo Team (Faculty of Engineering, University of Tokyo)
MoNA Rating=3.75

>  <NUM PEAKS>  (1035) 
84

>  <MASS SPECTRAL PEAKS>  (1035) 
14 1.75
15 15.68
17 1.18
27 5.41
28 20.86
29 4.91
30 1.02
31 2.96
32 5.11
33 1.38
39 8.25
40 1.53
41 4.3
43 5.46
45 2.83
50 1.56
51 5.12
52 2.61
53 6.25
54 1.1
55 4.43
59 2.42
63 3.77
64 1.45
65 7.24
66 2.93
67 8.02
77 13.52
78 4.25
79 8.18
80 1.12
81 1.6
83 4.65
89 1.79
91 18.05
92 3.3
93 5.47
94 1.85
95 1
98 2.11
103 2.47
104 1.22
105 4.51
106 1.12
107 7.64
108 1.12
109 1.1
115 1.07
119 2.41
120 2.05
121 8.55
122 3.44
123 1.2
133 1.93
134 12.06
135 7.93
136 3.09
137 2.35
146 3.66
147 2.26
148 1.99
149 12.37
150 13.36
151 2.65
162 1.05
163 11.54
164 3.63
165 4.78
166 1.96
175 1.79
176 1.42
177 12.58
178 5.67
179 2.15
191 4.08
192 21.47
193 99.99
194 12.39
195 2.13
207 2.98
209 1.73
223 1.96
224 47.9
225 6.55

>  <PREDICTED SPECTRUM>  (1035) 
26 1
27 18
29 47
31 20
32 7
33 32
37 14
38 65
39 152
40 79
41 205
42 58
43 215
44 118
45 105
49 11
50 135
51 235
52 163
53 254
54 80
55 167
56 17
59 55
61 12
62 68
63 193
64 153
65 260
66 183
67 185
68 65
69 85
74 31
75 24
76 69
77 352
78 227
79 312
80 122
81 62
82 7
83 110
89 130
90 150
91 373
92 217
93 191
94 100
95 117
97 33
103 75
104 107
105 273
106 228
107 276
108 48
116 52
117 62
118 74
119 77
120 161
121 337
122 188
123 89
124 12
125 4
130 3
131 25
132 159
133 158
134 264
135 315
136 144
137 128
146 43
147 23
148 94
149 457
150 255
151 183
152 28
160 25
161 133
162 47
163 271
164 411
165 263
166 111
167 29
177 472
178 332
179 241
180 25
181 131
182 32
191 145
192 999
193 720
194 238
195 36
207 73
208 5
209 228
210 96
223 143
224 840
225 321
226 75

$$$$

     RDKit          2D

 14 16  0  0  0  0  0  0  0  0999 V2000
    3.9000    0.7500    0.0000 C   0  0  0  0  0  0  0  0  0  0  0  0
   -3.9000    0.7500    0.0000 C   0  0  0  0  0  0  0  0  0  0  0  0
    3.9000   -0.7500    0.0000 C   0  0  0  0  0  0  0  0  0  0  0  0
   -3.9000   -0.7500    0.0000 C   0  0  0  0  0  0  0  0  0  0  0  0
    2.6000    1.5000    0.0000 C   0  0  0  0  0  0  0  0  0  0  0  0
   -2.6000    1.5000    0.0000 C   0  0  0  0  0  0  0  0  0  0  0  0
    2.6000   -1.5000    0.0000 C   0  0  0  0  0  0  0  0  0  0  0  0
   -2.6000   -1.5000    0.0000 C   0  0  0  0  0  0  0  0  0  0  0  0
    0.0000    1.5000    0.0000 C   0  0  0  0  0  0  0  0  0  0  0  0
    1.3000    0.7500    0.0000 C   0  0  0  0  0  0  0  0  0  0  0  0
   -1.3000    0.7500    0.0000 C   0  0  0  0  0  0  0  0  0  0  0  0
    1.3000   -0.7500    0.0000 C   0  0  0  0  0  0  0  0  0  0  0  0
   -1.3000   -0.7500    0.0000 C   0  0  0  0  0  0  0  0  0  0  0  0
    0.0000   -1.5000    0.0000 O   0  0  0  0  0  0  0  0  0  0  0  0
  3  1  2  0
  4  2  2  0
  5  1  1  0
  6  2  1  0
  7  3  1  0
  8  4  1  0
 10  5  2  0
 10  9  1  0
 11  6  2  0
 11  9  1  0
 12  7  2  0
 12 10  1  0
 13  8  2  0
 13 11  1  0
 14 12  1  0
 14 13  1  0
M  END
>  <NAME>  (1036) 
XANTHENE

>  <SYNONYMS>  (1036) 


>  <SPECTRUM TYPE>  (1036) 
MS1

>  <INSTRUMENT TYPE>  (1036) 
EI-B

>  <INSTRUMENT>  (1036) 
HITACHI M-80

>  <ION MODE>  (1036) 
P

>  <INCHIKEY>  (1036) 
GJCOSYZMQJWQCA-UHFFFAOYSA-N

>  <FORMULA>  (1036) 
C13H10O

>  <EXACT MASS>  (1036) 
182.07316494

>  <MW>  (1036) 
182

>  <ID>  (1036) 
JP010519

>  <CONTRIBUTOR>  (1036) 
University of Tokyo Team, {Faculty of Engineering, University of Tokyo

>  <COMMENT>  (1036) 
SMILES=c(c3)cc(C1)c(c3)Oc(c2)c(ccc2)1
cas=92-83-1
InChI=InChI=1S/C13H10O/c1-3-7-12-10(5-1)9-11-6-2-4-8-13(11)14-12/h1-8H,9H2
computed SMILES=O1C=2C=CC=CC2CC=3C=CC=CC13
accession=JP010519
date=2016.01.19 (Created 2008.10.21, modified 2011.05.06)
author=NARA WOMEN'S UNIVERSITY
license=CC BY-NC-SA
exact mass=182.07316
ionization energy=70 eV
ion type=[M]+*
computed spectral entropy=1.4345353114561883
computed normalized entropy=0.5173992449544869
SPLASH=splash10-001i-0900000000-657d8c5027c1e05a2b14
submitter=submitter = University of Tokyo Team (Faculty of Engineering, University of Tokyo)
MoNA Rating=3.75

>  <NUM PEAKS>  (1036) 
16

>  <MASS SPECTRAL PEAKS>  (1036) 
28 1.59
39 0.9
63 1.47
76 1.84
77 1.01
91 1.25
126 1.03
127 1.53
151 2.52
152 10.02
153 2.8
180 1.04
181 99.99
182 61.3
183 8.25
184 1.27

>  <PREDICTED SPECTRUM>  (1036) 
38 55
39 220
40 61
41 94
43 59
44 22
49 15
50 221
51 331
52 171
53 131
54 2
55 118
57 56
60 15
61 52
62 191
63 347
64 159
65 134
66 12
67 41
68 0
69 150
70 47
73 38
74 202
75 227
76 238
77 283
78 135
79 43
81 121
82 151
83 100
84 49
86 204
87 196
88 124
89 312
90 123
94 22
95 39
96 28
97 76
98 94
99 86
100 62
101 88
102 105
103 41
104 107
105 85
106 53
107 91
111 57
113 93
114 58
115 408
116 66
122 10
123 51
125 156
126 234
127 221
128 163
135 59
137 23
139 241
150 166
151 369
152 658
153 637
154 298
155 102
163 333
164 249
165 161
166 21
167 29
168 43
180 144
181 999
182 867
183 396
184 69

$$$$

     RDKit          2D

  6  5  0  0  0  0  0  0  0  0999 V2000
    1.2990    2.2500    0.0000 C   0  0  0  0  0  0  0  0  0  0  0  0
   -3.8971    2.2500    0.0000 C   0  0  0  0  0  0  0  0  0  0  0  0
    0.0000    3.0000    0.0000 C   0  0  0  0  0  0  0  0  0  0  0  0
   -1.2990    2.2500    0.0000 C   0  0  0  0  0  0  0  0  0  0  0  0
   -2.5981    3.0000    0.0000 C   0  0  0  0  0  0  0  0  0  0  0  0
   -2.5981    4.5000    0.0000 Br  0  0  0  0  0  0  0  0  0  0  0  0
  3  1  1  0
  4  3  1  0
  5  2  1  0
  5  4  1  0
  6  5  1  0
M  END
>  <NAME>  (1037) 
2-BROMOPENTANE

>  <SYNONYMS>  (1037) 


>  <SPECTRUM TYPE>  (1037) 
MS1

>  <INSTRUMENT TYPE>  (1037) 
EI-B

>  <INSTRUMENT>  (1037) 
HITACHI M-80

>  <ION MODE>  (1037) 
P

>  <INCHIKEY>  (1037) 
LGAJYTCRJPCZRJ-UHFFFAOYSA-N

>  <FORMULA>  (1037) 
C5H11Br

>  <EXACT MASS>  (1037) 
150.004412452

>  <MW>  (1037) 
150

>  <ID>  (1037) 
JP010517

>  <CONTRIBUTOR>  (1037) 
University of Tokyo Team, {Faculty of Engineering, University of Tokyo

>  <COMMENT>  (1037) 
SMILES=CCCC(C)Br
cas=107-81-3
InChI=InChI=1S/C5H11Br/c1-3-4-5(2)6/h5H,3-4H2,1-2H3
computed SMILES=BrC(C)CCC
accession=JP010517
date=2016.01.19 (Created 2008.10.21, modified 2011.05.06)
author=NARA WOMEN'S UNIVERSITY
license=CC BY-NC-SA
exact mass=150.00441
ionization energy=70 eV
ion type=[M]+*
computed spectral entropy=1.925746190699794
computed normalized entropy=0.6797039110167284
SPLASH=splash10-006x-9000000000-b5773a9504f086e95ab4
submitter=submitter = University of Tokyo Team (Faculty of Engineering, University of Tokyo)
MoNA Rating=3.75

>  <NUM PEAKS>  (1037) 
17

>  <MASS SPECTRAL PEAKS>  (1037) 
26 1.33
27 9.12
28 4.28
29 13.15
39 9.82
40 2.09
41 20.33
42 10.78
43 96.97
44 2.3
53 2.06
55 20.98
56 1.17
69 1.47
70 4.24
71 99.99
72 4.99

>  <PREDICTED SPECTRUM>  (1037) 
14 20
15 70
25 20
26 156
27 621
28 239
29 520
30 61
31 55
36 11
37 72
38 139
39 641
40 279
41 999
42 549
43 993
44 164
50 119
51 74
52 62
53 318
54 81
55 912
56 322
57 107
65 68
67 94
69 129
70 403
71 781
72 289
73 42
79 98
81 97
106 170
107 535
108 202
109 496
110 110
151 1
152 70

$$$$

     RDKit          2D

 10 11  0  0  0  0  0  0  0  0999 V2000
   -2.3100   -0.7500    0.0000 C   0  0  0  0  0  0  0  0  0  0  0  0
   -2.3100    0.7500    0.0000 C   0  0  0  0  0  0  0  0  0  0  0  0
   -1.0100   -1.5000    0.0000 C   0  0  0  0  0  0  0  0  0  0  0  0
   -1.0100    1.5000    0.0000 C   0  0  0  0  0  0  0  0  0  0  0  0
    0.2900   -0.7500    0.0000 C   0  0  0  0  0  0  0  0  0  0  0  0
    0.2900    0.7500    0.0000 C   0  0  0  0  0  0  0  0  0  0  0  0
    1.7200   -1.2100    0.0000 N   0  0  0  0  0  0  0  0  0  0  0  0
    1.7200    1.2100    0.0000 N   0  0  0  0  0  0  0  0  0  0  0  0
    2.1853    2.6360    0.0000 O   0  0  0  0  0  0  0  0  0  0  0  0
    2.6000    0.0000    0.0000 O   0  0  0  0  0  0  0  0  0  0  0  0
  2  1  1  0
  3  1  2  0
  4  2  2  0
  5  3  1  0
  6  4  1  0
  6  5  1  0
  7  5  2  0
  8  6  2  0
  9  8  1  0
 10  7  1  0
 10  8  1  0
M  CHG  2   8   1   9  -1
M  END
>  <NAME>  (1038) 
BENZOFUROXAN

>  <SYNONYMS>  (1038) 
BENZOFURAN 1-OXIDE

>  <SPECTRUM TYPE>  (1038) 
MS1

>  <INSTRUMENT TYPE>  (1038) 
EI-B

>  <INSTRUMENT>  (1038) 
HITACHI M-80

>  <ION MODE>  (1038) 
P

>  <INCHIKEY>  (1038) 
OKEAMBAZBICIFP-UHFFFAOYSA-N

>  <FORMULA>  (1038) 
C6H4N2O2

>  <EXACT MASS>  (1038) 
136.027277368

>  <MW>  (1038) 
136

>  <ID>  (1038) 
JP010516

>  <CONTRIBUTOR>  (1038) 
University of Tokyo Team, {Faculty of Engineering, University of Tokyo

>  <COMMENT>  (1038) 
SMILES=[O-1][n+1](o1)c(c2)c(ccc2)n1
cas=480-96-6
InChI=InChI=1S/C6H4N2O2/c9-8-6-4-2-1-3-5(6)7-10-8/h1-4H
computed SMILES=O=N=1ON=C2C=CC=CC21
accession=JP010516
date=2016.01.19 (Created 2008.10.21, modified 2011.05.06)
author=NARA WOMEN'S UNIVERSITY
license=CC BY-NC-SA
exact mass=136.02728
ionization energy=70 eV
ion type=[M]+*
computed spectral entropy=2.10611350744224
computed normalized entropy=0.6813602657427162
SPLASH=splash10-000i-5900000000-202be0166d74a0b16576
submitter=submitter = University of Tokyo Team (Faculty of Engineering, University of Tokyo)
MoNA Rating=3.75

>  <NUM PEAKS>  (1038) 
22

>  <MASS SPECTRAL PEAKS>  (1038) 
27 2.2
28 1.08
30 15.09
37 2.15
38 2.31
39 4.8
50 13.35
51 12.65
52 3.9
62 1.31
63 3.24
64 2.15
74 4.26
75 3.7
76 11.47
77 1.24
78 4.61
90 1.06
120 1.4
136 99.99
137 35.07
138 3.26

>  <PREDICTED SPECTRUM>  (1038) 
14 34
15 1
16 13
17 10
18 14
26 66
27 100
28 116
29 19
30 530
36 35
37 329
38 433
39 546
40 91
41 86
42 115
46 31
49 166
50 650
51 639
52 407
53 148
54 16
60 90
61 203
62 524
63 615
64 477
65 244
73 34
74 366
75 747
76 977
77 526
78 172
79 63
88 141
89 9
90 290
106 304
107 23
136 999
137 241

$$$$

     RDKit          2D

 19 20  0  0  0  0  0  0  0  0999 V2000
    3.8981    0.7504    0.0000 C   0  0  0  0  0  0  0  0  0  0  0  0
  -10.3951   -3.0010    0.0000 C   0  0  0  0  0  0  0  0  0  0  0  0
   -1.3000    0.7500    0.0000 C   0  0  0  0  0  0  0  0  0  0  0  0
    0.0000   -1.5000    0.0000 C   0  0  0  0  0  0  0  0  0  0  0  0
   -5.1970   -3.0006    0.0000 C   0  0  0  0  0  0  0  0  0  0  0  0
   -6.4970   -0.7506    0.0000 C   0  0  0  0  0  0  0  0  0  0  0  0
    0.0000    1.5000    0.0000 C   0  0  0  0  0  0  0  0  0  0  0  0
    1.3000   -0.7500    0.0000 C   0  0  0  0  0  0  0  0  0  0  0  0
   -6.4970   -3.7506    0.0000 C   0  0  0  0  0  0  0  0  0  0  0  0
   -7.7970   -1.5006    0.0000 C   0  0  0  0  0  0  0  0  0  0  0  0
   -1.3000   -0.7500    0.0000 C   0  0  0  0  0  0  0  0  0  0  0  0
   -5.1970   -1.5006    0.0000 C   0  0  0  0  0  0  0  0  0  0  0  0
    1.3000    0.7500    0.0000 C   0  0  0  0  0  0  0  0  0  0  0  0
   -7.7970   -3.0006    0.0000 C   0  0  0  0  0  0  0  0  0  0  0  0
   -2.5989   -1.5002    0.0000 N   0  0  0  0  0  0  0  0  0  0  0  0
   -3.8981   -0.7504    0.0000 N   0  0  0  0  0  0  0  0  0  0  0  0
   -3.8983    0.7496    0.0000 O   0  0  0  0  0  0  0  0  0  0  0  0
    2.5989    1.5002    0.0000 O   0  0  0  0  0  0  0  0  0  0  0  0
   -9.0959   -3.7508    0.0000 O   0  0  0  0  0  0  0  0  0  0  0  0
  7  3  2  0
  8  4  1  0
  9  5  2  0
 10  6  1  0
 11  3  1  0
 11  4  2  0
 12  5  1  0
 12  6  2  0
 13  7  1  0
 13  8  2  0
 14  9  1  0
 14 10  2  0
 15 11  1  0
 16 12  1  0
 15 16  2  0
 17 16  1  0
 18  1  1  0
 18 13  1  0
 19  2  1  0
 19 14  1  0
M  CHG  2  16   1  17  -1
M  END
>  <NAME>  (1039) 
4,4'-AZOXYANISOL

>  <SYNONYMS>  (1039) 
4,4'-AZOXYDIANISOL

>  <SPECTRUM TYPE>  (1039) 
MS1

>  <INSTRUMENT TYPE>  (1039) 
EI-B

>  <INSTRUMENT>  (1039) 
HITACHI M-80

>  <ION MODE>  (1039) 
P

>  <INCHIKEY>  (1039) 
KAEZRSFWWCTVNP-FOCLMDBBSA-N

>  <FORMULA>  (1039) 
C14H14N2O3

>  <EXACT MASS>  (1039) 
258.10044230799997

>  <MW>  (1039) 
258

>  <ID>  (1039) 
JP010515

>  <CONTRIBUTOR>  (1039) 
University of Tokyo Team, {Faculty of Engineering, University of Tokyo

>  <COMMENT>  (1039) 
SMILES=COc(c2)ccc(c2)N=[N+1]([O-1])c(c1)ccc(OC)c1
cas=1562-94-3
InChI=InChI=1S/C14H14N2O3/c1-18-13-7-3-11(4-8-13)15-16(17)12-5-9-14(19-2)10-6-12/h3-10H,1-2H3/b16-15+
computed SMILES=O=N(=NC1=CC=C(OC)C=C1)C2=CC=C(OC)C=C2
computed InChI=InChI=1S/C14H14N2O3/c1-18-13-7-3-11(4-8-13)15-16(17)12-5-9-14(19-2)10-6-12/h3-10H,1-2H3/b16-15-
accession=JP010515
date=2016.01.19 (Created 2008.10.21, modified 2011.05.06)
author=NARA WOMEN'S UNIVERSITY
license=CC BY-NC-SA
exact mass=258.10044
ion type=[M]+*
ionization energy=70 eV
computed spectral entropy=3.2117559897307926
computed normalized entropy=0.7812830302874473
SPLASH=splash10-0a4i-8950000000-dd6997a5434a2ba2c27d
submitter=submitter = University of Tokyo Team (Faculty of Engineering, University of Tokyo)
MoNA Rating=3.75

>  <NUM PEAKS>  (1039) 
61

>  <MASS SPECTRAL PEAKS>  (1039) 
15 2.03
18 1.47
27 1.49
28 1.78
38 2.14
39 3.56
41 2.37
50 3.69
51 8.04
52 8.26
53 2.6
55 2.15
62 1.71
63 11.35
64 20.5
65 4.41
66 5.57
67 1.69
75 1.25
76 3.63
77 34.32
78 22.8
79 4.86
80 17.92
81 1.39
90 1.04
91 9.5
92 30.53
93 6.74
94 1.64
95 8.11
106 28.2
107 63.37
108 7.02
120 4.22
121 78.29
122 17.05
123 4.45
128 1.08
129 1.19
134 1.21
135 9.41
136 1.6
137 12.51
138 1.16
149 1.07
151 1.07
187 2.9
198 1.69
199 2.19
201 1.71
215 5.75
227 1.15
229 1.07
230 1.49
242 4.38
243 1.69
257 2.59
258 99.99
259 17.82
260 2.09

>  <PREDICTED SPECTRUM>  (1039) 
14 12
15 62
16 4
18 1
25 2
26 70
27 157
28 106
29 162
30 153
32 7
33 9
34 15
37 43
38 168
39 374
40 79
41 258
42 40
43 104
44 72
50 218
51 393
52 366
53 348
54 150
55 187
56 8
57 125
62 109
63 445
64 513
65 397
66 200
67 190
68 54
69 141
70 44
71 71
74 13
75 45
76 149
77 771
78 442
79 383
80 333
81 163
82 45
83 23
89 4
90 124
91 73
92 618
93 258
94 225
95 385
96 120
105 6
106 223
107 999
108 517
109 209
110 57
118 31
119 19
120 162
121 390
122 643
123 557
124 127
133 165
134 56
135 801
136 202
137 82
138 39
139 87
140 61
144 1
145 2
148 2
149 17
150 78
151 59
152 19
155 29
166 43
167 34
168 77
172 62
183 40
184 5
187 20
200 7
201 34
215 14
228 47
229 108
241 71
242 248
243 150
244 22
257 54
258 920
259 390
260 115
261 16

$$$$

     RDKit          2D

 15 16  0  0  0  0  0  0  0  0999 V2000
    3.8971    1.0700    0.0000 C   0  0  0  0  0  0  0  0  0  0  0  0
   -5.1962    4.8200    0.0000 C   0  0  0  0  0  0  0  0  0  0  0  0
    2.5976    0.3192    0.0000 C   0  0  0  0  0  0  0  0  0  0  0  0
    3.8976    2.5708    0.0000 C   0  0  0  0  0  0  0  0  0  0  0  0
   -3.8966    5.5708    0.0000 C   0  0  0  0  0  0  0  0  0  0  0  0
   -5.1966    3.3192    0.0000 C   0  0  0  0  0  0  0  0  0  0  0  0
    1.2986    1.0692    0.0000 C   0  0  0  0  0  0  0  0  0  0  0  0
    2.5986    3.3208    0.0000 C   0  0  0  0  0  0  0  0  0  0  0  0
   -2.5976    4.8208    0.0000 C   0  0  0  0  0  0  0  0  0  0  0  0
   -3.8976    2.5692    0.0000 C   0  0  0  0  0  0  0  0  0  0  0  0
    1.2990    2.5700    0.0000 C   0  0  0  0  0  0  0  0  0  0  0  0
   -2.5981    3.3200    0.0000 C   0  0  0  0  0  0  0  0  0  0  0  0
    0.0000    3.3200    0.0000 N   0  0  0  0  0  0  0  0  0  0  0  0
   -1.2990    2.5700    0.0000 N   0  0  0  0  0  0  0  0  0  0  0  0
   -1.2990    1.0700    0.0000 O   0  0  0  0  0  0  0  0  0  0  0  0
  3  1  2  0
  4  1  1  0
  5  2  2  0
  6  2  1  0
  7  3  1  0
  8  4  2  0
  9  5  1  0
 10  6  2  0
 11  7  2  0
 11  8  1  0
 12  9  2  0
 12 10  1  0
 13 11  1  0
 14 12  1  0
 13 14  2  0
 15 14  1  0
M  CHG  2  14   1  15  -1
M  END
>  <NAME>  (1040) 
AZOXYBENZENE

>  <SYNONYMS>  (1040) 


>  <SPECTRUM TYPE>  (1040) 
MS1

>  <INSTRUMENT TYPE>  (1040) 
EI-B

>  <INSTRUMENT>  (1040) 
HITACHI M-80

>  <ION MODE>  (1040) 
P

>  <INCHIKEY>  (1040) 
GAUZCKBSTZFWCT-BUHFOSPRSA-N

>  <FORMULA>  (1040) 
C12H10N2O

>  <EXACT MASS>  (1040) 
198.07931294

>  <MW>  (1040) 
198

>  <ID>  (1040) 
JP010514

>  <CONTRIBUTOR>  (1040) 
University of Tokyo Team, {Faculty of Engineering, University of Tokyo

>  <COMMENT>  (1040) 
SMILES=[O-1][N+1](=Nc(c2)cccc2)c(c1)cccc1
InChI=InChI=1S/C12H10N2O/c15-14(12-9-5-2-6-10-12)13-11-7-3-1-4-8-11/h1-10H/b14-13+
computed SMILES=O=N(=NC=1C=CC=CC1)C=2C=CC=CC2
computed InChI=InChI=1S/C12H10N2O/c15-14(12-9-5-2-6-10-12)13-11-7-3-1-4-8-11/h1-10H/b14-13-
accession=JP010514
date=2016.01.19 (Created 2008.10.21, modified 2011.05.06)
author=NARA WOMEN'S UNIVERSITY
license=CC BY-NC-SA
exact mass=198.07931
ionization energy=70 eV
ion type=[M]+*
computed spectral entropy=3.0638056788024777
computed normalized entropy=0.7872423298398111
SPLASH=splash10-004j-9700000000-67e9277e6d81e6efd3dc
submitter=submitter = University of Tokyo Team (Faculty of Engineering, University of Tokyo)
MoNA Rating=3.75

>  <NUM PEAKS>  (1040) 
49

>  <MASS SPECTRAL PEAKS>  (1040) 
27 2.07
38 2.8
39 7.85
41 2.04
50 6.43
51 26.94
52 3.76
62 1.1
63 7.84
64 16.66
65 25.33
66 2.09
74 1.85
75 1.76
76 2.49
77 99.99
78 8.71
81 1.15
90 1.21
91 29.52
92 4.5
93 9.53
94 1.34
104 1.34
105 30.55
106 2.4
107 2.74
115 6.07
116 1
121 2.06
139 1.15
141 14.18
142 7.28
143 1.13
152 2.02
153 2.77
154 1.04
166 1.04
167 2.25
168 6.88
169 18.24
170 12.85
171 1.63
182 13.25
183 2.46
197 4.85
198 70.09
199 26.81
200 3.16

>  <PREDICTED SPECTRUM>  (1040) 
14 16
15 6
16 1
17 19
18 46
26 50
27 163
28 106
29 71
33 15
37 76
38 179
39 359
40 114
41 102
44 17
50 322
51 638
52 242
53 62
57 34
61 43
62 144
63 342
64 380
65 555
66 193
67 31
68 5
74 87
75 69
76 127
77 999
78 365
79 96
80 40
81 16
86 29
88 0
89 61
90 136
91 493
92 269
93 297
94 61
105 157
106 49
107 49
108 12
115 2
121 27
122 10
127 2
128 21
139 0
140 25
141 97
142 24
152 30
153 82
154 100
169 190
170 142
171 1
182 117
183 0
198 404
199 143

$$$$

     RDKit          2D

 14 15  0  0  0  0  0  0  0  0999 V2000
    3.8971    1.0700    0.0000 C   0  0  0  0  0  0  0  0  0  0  0  0
   -5.1962    4.8200    0.0000 C   0  0  0  0  0  0  0  0  0  0  0  0
    2.5976    0.3192    0.0000 C   0  0  0  0  0  0  0  0  0  0  0  0
    3.8976    2.5708    0.0000 C   0  0  0  0  0  0  0  0  0  0  0  0
   -3.8966    5.5708    0.0000 C   0  0  0  0  0  0  0  0  0  0  0  0
   -5.1966    3.3192    0.0000 C   0  0  0  0  0  0  0  0  0  0  0  0
    1.2986    1.0692    0.0000 C   0  0  0  0  0  0  0  0  0  0  0  0
    2.5986    3.3208    0.0000 C   0  0  0  0  0  0  0  0  0  0  0  0
   -2.5976    4.8208    0.0000 C   0  0  0  0  0  0  0  0  0  0  0  0
   -3.8976    2.5692    0.0000 C   0  0  0  0  0  0  0  0  0  0  0  0
    1.2990    2.5700    0.0000 C   0  0  0  0  0  0  0  0  0  0  0  0
   -2.5981    3.3200    0.0000 C   0  0  0  0  0  0  0  0  0  0  0  0
    0.0000    3.3200    0.0000 N   0  0  0  0  0  0  0  0  0  0  0  0
   -1.2990    2.5700    0.0000 N   0  0  0  0  0  0  0  0  0  0  0  0
  3  1  2  0
  4  1  1  0
  5  2  2  0
  6  2  1  0
  7  3  1  0
  8  4  2  0
  9  5  1  0
 10  6  2  0
 11  7  2  0
 11  8  1  0
 12  9  2  0
 12 10  1  0
 13 11  1  0
 14 12  1  0
 13 14  2  0
M  END
>  <NAME>  (1041) 
AZOBENZENE

>  <SYNONYMS>  (1041) 


>  <SPECTRUM TYPE>  (1041) 
MS1

>  <INSTRUMENT TYPE>  (1041) 
EI-B

>  <INSTRUMENT>  (1041) 
HITACHI M-80

>  <ION MODE>  (1041) 
P

>  <INCHIKEY>  (1041) 
DMLAVOWQYNRWNQ-BUHFOSPRSA-N

>  <FORMULA>  (1041) 
C12H10N2

>  <EXACT MASS>  (1041) 
182.08439832

>  <MW>  (1041) 
182

>  <ID>  (1041) 
JP010513

>  <CONTRIBUTOR>  (1041) 
University of Tokyo Team, {Faculty of Engineering, University of Tokyo

>  <COMMENT>  (1041) 
cas=103-33-3
SMILES=c(c2)ccc(c2)N=Nc(c1)cccc1
InChI=InChI=1S/C12H10N2/c1-3-7-11(8-4-1)13-14-12-9-5-2-6-10-12/h1-10H/b14-13+
computed SMILES=N(=NC=1C=CC=CC1)C=2C=CC=CC2
accession=JP010513
date=2016.01.19 (Created 2008.10.21, modified 2011.05.06)
author=NARA WOMEN'S UNIVERSITY
license=CC BY-NC-SA
exact mass=182.0844
ionization energy=70 eV
ion type=[M]+*
computed spectral entropy=2.1842162508278826
computed normalized entropy=0.6703964186875426
SPLASH=splash10-003r-5900000000-b43ffb3f0c623166afc2
submitter=submitter = University of Tokyo Team (Faculty of Engineering, University of Tokyo)
MoNA Rating=3.75

>  <NUM PEAKS>  (1041) 
26

>  <MASS SPECTRAL PEAKS>  (1041) 
38 1.08
39 2.04
50 4.44
51 20.38
52 1.35
63 2.08
64 1.74
74 1.19
75 1.13
76 1.63
77 78.22
78 6.13
105 28.23
106 2.03
115 1.47
128 1.6
152 5.57
153 6.32
154 1.63
156 1.42
166 5.79
167 7
168 1.28
182 99.99
183 30.61
184 4.37

>  <PREDICTED SPECTRUM>  (1041) 
26 16
27 13
28 11
37 0
38 58
39 126
41 6
50 279
51 544
52 106
62 54
63 174
64 137
65 71
74 39
75 116
76 172
77 999
78 272
105 530
106 130
151 25
152 204
153 101
154 36
182 490
183 181

$$$$

     RDKit          2D

 12 11  0  0  1  0  0  0  0  0999 V2000
   -5.1962    3.7500    0.0000 C   0  0  0  0  0  0  0  0  0  0  0  0
    1.2990    4.5000    0.0000 C   0  0  0  0  0  0  0  0  0  0  0  0
   -3.8971    4.5000    0.0000 C   0  0  0  0  0  0  0  0  0  0  0  0
    0.0000    3.7500    0.0000 C   0  0  0  0  0  0  0  0  0  0  0  0
   -2.5981    3.7500    0.0000 C   0  0  0  0  0  0  0  0  0  0  0  0
   -1.2990    4.5000    0.0000 C   0  0  0  0  0  0  0  0  0  0  0  0
   -6.4952    4.5000    0.0000 O   0  0  0  0  0  0  0  0  0  0  0  0
    2.5981    3.7500    0.0000 O   0  0  0  0  0  0  0  0  0  0  0  0
   -3.8971    6.0000    0.0000 O   0  0  0  0  0  0  0  0  0  0  0  0
   -0.0000    2.2500    0.0000 O   0  0  0  0  0  0  0  0  0  0  0  0
   -2.5981    2.2500    0.0000 O   0  0  0  0  0  0  0  0  0  0  0  0
   -1.2990    6.0000    0.0000 O   0  0  0  0  0  0  0  0  0  0  0  0
  3  1  1  0
  4  2  1  0
  5  3  1  0
  6  4  1  0
  6  5  1  0
  7  1  1  0
  8  2  1  0
  3  9  1  1
  4 10  1  1
  5 11  1  6
  6 12  1  6
M  END
>  <NAME>  (1042) 
MANNITOL

>  <SYNONYMS>  (1042) 


>  <SPECTRUM TYPE>  (1042) 
MS1

>  <INSTRUMENT TYPE>  (1042) 
EI-B

>  <INSTRUMENT>  (1042) 
HITACHI M-80

>  <ION MODE>  (1042) 
P

>  <INCHIKEY>  (1042) 
FBPFZTCFMRRESA-KVTDHHQDSA-N

>  <FORMULA>  (1042) 
C6H14O6

>  <EXACT MASS>  (1042) 
182.07903816799998

>  <MW>  (1042) 
182

>  <ID>  (1042) 
JP010511

>  <CONTRIBUTOR>  (1042) 
University of Tokyo Team, {Faculty of Engineering, University of Tokyo

>  <COMMENT>  (1042) 
SMILES=OCC(O)C(O)C(O)C(O)CO
cas=69-65-8
InChI=InChI=1S/C6H14O6/c7-1-3(9)5(11)6(12)4(10)2-8/h3-12H,1-2H2/t3-,4-,5-,6-/m1/s1
computed SMILES=OCC(O)C(O)C(O)C(O)CO
accession=JP010511
date=2016.01.19 (Created 2008.10.21, modified 2011.05.06)
author=NARA WOMEN'S UNIVERSITY
license=CC BY-NC-SA
exact mass=182.07904
ionization energy=70 eV
ion type=[M]+*
computed spectral entropy=2.864281360583638
computed normalized entropy=0.7818297157929895
SPLASH=splash10-0229-9100000000-5655e9df8e0fdcaa72a0
submitter=submitter = University of Tokyo Team (Faculty of Engineering, University of Tokyo)
MoNA Rating=3.75

>  <NUM PEAKS>  (1042) 
39

>  <MASS SPECTRAL PEAKS>  (1042) 
26 2.56
27 7.57
28 8.28
32 2.07
40 3.9
42 4.2
43 28.07
44 22.88
45 26.18
46 1.24
47 1.68
55 7.27
56 22.6
57 22.29
58 1.55
59 1.54
60 19.17
61 76.29
62 2.59
69 4.71
71 7.89
72 1.93
73 99.99
74 42.16
75 3.44
85 11.92
86 2.11
87 1.58
89 1.45
91 7.24
97 1.18
103 60.76
104 5.71
115 2.61
116 1.16
133 18.65
134 1.09
146 2.32
183 2.24

>  <PREDICTED SPECTRUM>  (1042) 
1 8
14 10
15 0
18 20
19 2
27 11
29 40
31 139
32 14
33 23
39 98
40 48
41 272
42 468
43 729
44 511
45 619
46 113
47 199
48 7
49 139
50 69
51 121
52 76
53 104
54 114
55 379
56 364
57 643
58 298
59 187
60 625
61 768
62 170
63 116
65 133
66 56
67 27
68 122
69 281
70 174
71 343
72 97
73 999
74 500
75 274
76 91
77 39
78 112
79 77
80 23
81 42
82 32
83 28
84 44
85 298
86 189
87 195
89 30
90 26
91 435
92 124
93 47
97 211
98 115
99 112
100 54
102 82
103 597
104 261
105 150
106 15
115 261
116 77
121 140
122 45
123 59
124 40
133 319
134 153
135 9
146 96
147 17
151 52
165 53
182 104
183 21

$$$$

     RDKit          2D

 11 11  0  0  0  0  0  0  0  0999 V2000
    3.2476    3.7504    0.0000 C   0  0  0  0  0  0  0  0  0  0  0  0
    3.2481    0.7504    0.0000 C   0  0  0  0  0  0  0  0  0  0  0  0
    1.9487    3.0002    0.0000 C   0  0  0  0  0  0  0  0  0  0  0  0
   -1.9500    0.7500    0.0000 C   0  0  0  0  0  0  0  0  0  0  0  0
   -1.9500   -0.7500    0.0000 C   0  0  0  0  0  0  0  0  0  0  0  0
   -0.6500    1.5000    0.0000 C   0  0  0  0  0  0  0  0  0  0  0  0
   -0.6500   -1.5000    0.0000 C   0  0  0  0  0  0  0  0  0  0  0  0
    1.9489    1.5002    0.0000 C   0  0  0  0  0  0  0  0  0  0  0  0
    0.6500    0.7500    0.0000 C   0  0  0  0  0  0  0  0  0  0  0  0
    0.6500   -0.7500    0.0000 C   0  0  0  0  0  0  0  0  0  0  0  0
    1.9489   -1.5002    0.0000 O   0  0  0  0  0  0  0  0  0  0  0  0
  3  1  2  0
  5  4  2  0
  6  4  1  0
  7  5  1  0
  8  2  1  0
  8  3  1  0
  9  6  2  0
  9  8  1  0
 10  7  2  0
 10  9  1  0
 11 10  1  0
M  END
>  <NAME>  (1043) 
2-(1-METHYL-2-PROPENYL)PHENOL

>  <SYNONYMS>  (1043) 


>  <SPECTRUM TYPE>  (1043) 
MS1

>  <INSTRUMENT TYPE>  (1043) 
EI-B

>  <INSTRUMENT>  (1043) 
SHIMADZU LKB-9000B

>  <ION MODE>  (1043) 
P

>  <INCHIKEY>  (1043) 
KXVJXEPOPKSHOJ-UHFFFAOYSA-N

>  <FORMULA>  (1043) 
C10H12O

>  <EXACT MASS>  (1043) 
148.088815004

>  <MW>  (1043) 
148

>  <ID>  (1043) 
JP010510

>  <CONTRIBUTOR>  (1043) 
University of Tokyo Team, {Faculty of Engineering, University of Tokyo

>  <COMMENT>  (1043) 
SMILES=C=CC(C)c(c1)c(O)ccc1
InChI=InChI=1S/C10H12O/c1-3-8(2)9-6-4-5-7-10(9)11/h3-8,11H,1H2,2H3
computed SMILES=OC=1C=CC=CC1C(C=C)C
accession=JP010510
date=2016.01.19 (Created 2008.10.21, modified 2011.05.06)
author=TSUNODA T, FACULTY OF PHARMACEUTICAL SCIENCES, TOKUSHIMA BUNRI UNIV.
license=CC BY-NC-SA
exact mass=148.08882
ionization energy=70 eV
ion type=[M]+*
computed spectral entropy=3.04869874798708
computed normalized entropy=0.8796685129770705
SPLASH=splash10-053r-4900000000-4a842b011958896ab12c
submitter=submitter = University of Tokyo Team (Faculty of Engineering, University of Tokyo)
MoNA Rating=3.75

>  <NUM PEAKS>  (1043) 
32

>  <MASS SPECTRAL PEAKS>  (1043) 
27 5.8
39 15.6
50 7.5
51 12
53 8.8
55 17.7
63 14
64 5
65 11.2
77 34.9
78 10.7
79 14.9
89 7.8
91 26
92 6.4
94 5
102 5.5
103 18.7
105 69.1
106 6.2
107 10.9
115 13
119 6.4
120 9.5
121 18.3
131 16.3
132 6.4
133 99.99
134 10.5
147 10.2
148 57.3
149 9.4

>  <PREDICTED SPECTRUM>  (1043) 
14 11
15 24
18 12
26 49
27 164
28 39
29 28
32 0
37 32
38 109
39 306
40 103
41 187
42 35
43 32
44 31
50 193
51 337
52 174
53 232
54 78
55 218
56 22
58 28
61 27
62 119
63 245
64 166
65 301
66 107
67 104
72 17
73 29
74 101
75 126
76 87
77 422
78 230
79 302
80 86
81 42
86 26
89 137
90 89
91 595
92 225
93 166
94 104
95 26
101 28
102 165
103 278
104 107
105 634
106 248
107 210
108 75
113 1
115 415
116 135
117 196
118 193
119 392
120 296
121 263
122 54
127 39
128 91
129 42
131 280
132 129
133 999
134 305
135 42
145 78
146 58
147 277
148 688
149 219
150 4

$$$$

     RDKit          2D

 14 14  0  0  1  0  0  0  0  0999 V2000
   -5.5207    3.1321    0.0000 C   0  0  0  0  0  0  0  0  0  0  0  0
   -4.2216    2.3821    0.0000 C   0  0  0  0  0  0  0  0  0  0  0  0
    3.5726    0.8821    0.0000 C   0  0  0  0  0  0  0  0  0  0  0  0
    3.5731    2.3829    0.0000 C   0  0  0  0  0  0  0  0  0  0  0  0
    2.2731    0.1313    0.0000 C   0  0  0  0  0  0  0  0  0  0  0  0
    2.2740    3.1329    0.0000 C   0  0  0  0  0  0  0  0  0  0  0  0
    0.9740    0.8813    0.0000 C   0  0  0  0  0  0  0  0  0  0  0  0
   -0.3245    4.6321    0.0000 C   0  0  0  0  0  0  0  0  0  0  0  0
    0.9745    2.3821    0.0000 C   0  0  0  0  0  0  0  0  0  0  0  0
   -0.3245    3.1321    0.0000 C   0  0  0  0  0  0  0  0  0  0  0  0
   -2.9226    3.1321    0.0000 C   0  0  0  0  0  0  0  0  0  0  0  0
   -1.6236    2.3821    0.0000 N   0  0  0  0  0  0  0  0  0  0  0  0
   -1.6236    5.3821    0.0000 O   0  0  0  0  0  0  0  0  0  0  0  0
   -2.9226    4.6321    0.0000 O   0  0  0  0  0  0  0  0  0  0  0  0
  2  1  1  0
  4  3  2  0
  5  3  1  0
  6  4  1  0
  7  5  2  0
  9  6  2  0
  9  7  1  0
 10  8  1  1
 10  9  1  0
 11  2  1  0
 10 12  1  0
 12 11  2  3
 13  8  1  0
 14 11  1  0
M  END
>  <NAME>  (1044) 
(1R)-N-(2-HYDROXY-1-PHENYLETHYL)PROPANAMIDE

>  <SYNONYMS>  (1044) 


>  <SPECTRUM TYPE>  (1044) 
MS1

>  <INSTRUMENT TYPE>  (1044) 
EI-B

>  <INSTRUMENT>  (1044) 
SHIMADZU LKB-9000B

>  <ION MODE>  (1044) 
P

>  <INCHIKEY>  (1044) 
BJDIBEQXCYQUMH-JTQLQIEISA-N

>  <FORMULA>  (1044) 
C11H15NO2

>  <EXACT MASS>  (1044) 
193.11027872

>  <MW>  (1044) 
193

>  <ID>  (1044) 
JP010508

>  <CONTRIBUTOR>  (1044) 
University of Tokyo Team, {Faculty of Engineering, University of Tokyo

>  <COMMENT>  (1044) 
SMILES=CCC(=O)NC([H])(CO)c(c1)cccc1
InChI=InChI=1S/C11H15NO2/c1-2-11(14)12-10(8-13)9-6-4-3-5-7-9/h3-7,10,13H,2,8H2,1H3,(H,12,14)/t10-/m0/s1
computed SMILES=OC(=NC(C=1C=CC=CC1)CO)CC
accession=JP010508
date=2016.01.19 (Created 2008.10.21, modified 2011.05.06)
author=TSUNODA T, FACULTY OF PHARMACEUTICAL SCIENCES, TOKUSHIMA BUNRI UNIV.
license=CC BY-NC-SA
exact mass=193.11028
ionization energy=70 eV
ion type=[M]+*
computed spectral entropy=2.158873856087875
computed normalized entropy=0.7786491515207028
SPLASH=splash10-0a4i-3900000000-5a549968dfbba6be1e46
submitter=submitter = University of Tokyo Team (Faculty of Engineering, University of Tokyo)
MoNA Rating=3.75

>  <NUM PEAKS>  (1044) 
16

>  <MASS SPECTRAL PEAKS>  (1044) 
28 13.6
29 13.5
57 14.9
77 11.3
79 8.9
91 7.8
103 5.2
104 11
106 99.99
107 8.9
119 7.2
162 30.4
163 13.3
175 5.9
194 0.42
195 0.06

>  <PREDICTED SPECTRUM>  (1044) 
14 4
15 50
16 3
17 6
19 2
25 6
26 64
27 214
28 120
29 288
30 152
31 241
32 36
33 39
34 2
36 5
37 3
38 63
39 283
40 90
41 248
42 315
43 304
44 207
45 217
46 54
50 170
51 307
52 164
53 111
54 98
55 224
56 194
57 236
58 111
59 49
60 24
61 41
62 63
63 194
64 55
65 249
66 40
67 51
68 50
69 13
70 28
71 14
73 80
74 160
75 126
76 83
77 530
78 274
79 359
80 66
84 18
86 76
87 70
88 50
89 254
90 200
91 597
92 178
93 66
102 172
103 237
104 199
105 195
106 35
107 212
115 220
116 257
117 284
118 296
119 183
120 18
121 61
122 18
130 170
131 298
132 287
133 100
134 79
144 24
145 163
146 86
147 81
148 12
160 13
162 999
163 289
164 5
193 213
194 72

$$$$

     RDKit          2D

 13 12  0  0  0  0  0  0  0  0999 V2000
    2.5981    4.5000    0.0000 C   0  0  0  0  0  0  0  0  0  0  0  0
   -7.7942    4.5000    0.0000 C   0  0  0  0  0  0  0  0  0  0  0  0
    1.2990    5.2500    0.0000 C   0  0  0  0  0  0  0  0  0  0  0  0
   -6.4952    5.2500    0.0000 C   0  0  0  0  0  0  0  0  0  0  0  0
    0.0000    4.5000    0.0000 C   0  0  0  0  0  0  0  0  0  0  0  0
   -5.1962    4.5000    0.0000 C   0  0  0  0  0  0  0  0  0  0  0  0
   -1.2990    5.2500    0.0000 C   0  0  0  0  0  0  0  0  0  0  0  0
   -3.8971    5.2500    0.0000 C   0  0  0  0  0  0  0  0  0  0  0  0
   -1.2990    2.2500    0.0000 C   0  0  0  0  0  0  0  0  0  0  0  0
   -2.5981    3.0000    0.0000 C   0  0  0  0  0  0  0  0  0  0  0  0
   -2.5981    4.5000    0.0000 N   0  0  0  0  0  0  0  0  0  0  0  0
   -1.2990    0.7500    0.0000 O   0  0  0  0  0  0  0  0  0  0  0  0
   -3.8971    2.2500    0.0000 O   0  0  0  0  0  0  0  0  0  0  0  0
  3  1  1  0
  4  2  1  0
  3  5  2  0
  6  4  1  0
  7  5  1  0
  8  6  1  0
 10  9  1  0
 11  7  1  0
 11  8  1  0
 11 10  1  0
 12  9  1  0
 13 10  2  0
M  END
>  <NAME>  (1045) 
N-2(E)-BUTENYL-N-BUTYLHYDROXYACETAMIDE

>  <SYNONYMS>  (1045) 


>  <SPECTRUM TYPE>  (1045) 
MS1

>  <INSTRUMENT TYPE>  (1045) 
EI-B

>  <INSTRUMENT>  (1045) 
SHIMADZU LKB-9000B

>  <ION MODE>  (1045) 
P

>  <INCHIKEY>  (1045) 
YFPSYPMBCRPWDE-HWKANZROSA-N

>  <FORMULA>  (1045) 
C10H19NO2

>  <EXACT MASS>  (1045) 
185.141578848

>  <MW>  (1045) 
185

>  <ID>  (1045) 
JP010507

>  <CONTRIBUTOR>  (1045) 
University of Tokyo Team, {Faculty of Engineering, University of Tokyo

>  <COMMENT>  (1045) 
SMILES=CCCCN(CC=CC)C(=O)CO
InChI=InChI=1S/C10H19NO2/c1-3-5-7-11(8-6-4-2)10(13)9-12/h3,5,12H,4,6-9H2,1-2H3/b5-3+
computed SMILES=O=C(N(CC=CC)CCCC)CO
ionization energy=70 eV
accession=JP010507
date=2016.01.19 (Created 2008.10.21, modified 2011.05.06)
author=TSUNODA T, FACULTY OF PHARMACEUTICAL SCIENCES, TOKUSHIMA BUNRI UNIV.
license=CC BY-NC-SA
exact mass=185.14158
ion type=[M]+*
computed spectral entropy=2.8442058222896254
computed normalized entropy=0.8535507990594731
SPLASH=splash10-000i-6900000000-1d3a2bd8a6181b521289
submitter=submitter = University of Tokyo Team (Faculty of Engineering, University of Tokyo)
MoNA Rating=3.75

>  <NUM PEAKS>  (1045) 
28

>  <MASS SPECTRAL PEAKS>  (1045) 
29 6.3
30 5.1
31 8.2
39 7
41 9
42 5.3
53 5.5
55 74
56 8.2
57 5.3
70 19.9
82 6.9
83 20.6
84 14.2
85 14.5
86 7.2
88 9.2
112 5.8
126 12.7
128 11.8
142 9.3
154 36.7
156 14.9
184 8.4
185 39.6
186 99.99
187 61.2
188 6.9

>  <PREDICTED SPECTRUM>  (1045) 
27 53
29 149
30 92
31 61
39 155
40 2
41 384
42 308
43 205
44 128
51 54
52 59
53 190
54 176
55 630
56 365
57 367
58 109
59 75
65 59
66 40
67 72
68 217
69 139
70 404
71 43
72 10
77 19
80 105
81 54
82 348
83 410
84 481
85 137
86 118
94 124
96 262
98 147
100 86
108 89
110 164
112 362
113 52
124 128
125 31
126 182
128 344
129 148
130 224
140 48
142 496
143 177
152 79
154 613
155 93
156 141
167 21
168 14
170 80
171 11
184 261
185 999
186 428
187 161

$$$$

     RDKit          2D

 23 24  0  0  0  0  0  0  0  0999 V2000
   -2.2834    5.5949    0.0000 C   0  0  0  0  0  0  0  0  0  0  0  0
   -4.2118    5.5949    0.0000 C   0  0  0  0  0  0  0  0  0  0  0  0
    4.5466    5.9458    0.0000 C   0  0  0  0  0  0  0  0  0  0  0  0
  -11.0418    5.9458    0.0000 C   0  0  0  0  0  0  0  0  0  0  0  0
    3.2471    6.6967    0.0000 C   0  0  0  0  0  0  0  0  0  0  0  0
    4.5471    4.4450    0.0000 C   0  0  0  0  0  0  0  0  0  0  0  0
  -11.0423    4.4450    0.0000 C   0  0  0  0  0  0  0  0  0  0  0  0
   -9.7423    6.6967    0.0000 C   0  0  0  0  0  0  0  0  0  0  0  0
    1.9481    5.9467    0.0000 C   0  0  0  0  0  0  0  0  0  0  0  0
    3.2481    3.6950    0.0000 C   0  0  0  0  0  0  0  0  0  0  0  0
   -9.7433    3.6950    0.0000 C   0  0  0  0  0  0  0  0  0  0  0  0
   -8.4433    5.9467    0.0000 C   0  0  0  0  0  0  0  0  0  0  0  0
    0.6495    3.6958    0.0000 C   0  0  0  0  0  0  0  0  0  0  0  0
   -4.5466    3.6958    0.0000 C   0  0  0  0  0  0  0  0  0  0  0  0
    1.9486    4.4458    0.0000 C   0  0  0  0  0  0  0  0  0  0  0  0
   -8.4437    4.4458    0.0000 C   0  0  0  0  0  0  0  0  0  0  0  0
   -7.1447    3.6958    0.0000 C   0  0  0  0  0  0  0  0  0  0  0  0
   -1.9486    3.6958    0.0000 C   0  0  0  0  0  0  0  0  0  0  0  0
   -3.2476    4.4458    0.0000 C   0  0  0  0  0  0  0  0  0  0  0  0
   -0.6495    4.4458    0.0000 N   0  0  0  0  0  0  0  0  0  0  0  0
   -7.1447    2.1958    0.0000 O   0  0  0  0  0  0  0  0  0  0  0  0
   -1.9486    2.1958    0.0000 O   0  0  0  0  0  0  0  0  0  0  0  0
   -5.8457    4.4458    0.0000 O   0  0  0  0  0  0  0  0  0  0  0  0
  5  3  2  0
  6  3  1  0
  7  4  1  0
  8  4  1  0
  9  5  1  0
 10  6  2  0
 11  7  1  0
 12  8  1  0
 15  9  2  0
 15 10  1  0
 15 13  1  0
 16 11  1  0
 16 12  1  0
 17 16  1  0
 19  1  1  0
 19  2  1  0
 19 14  1  0
 19 18  1  0
 20 13  1  0
 20 18  2  3
 21 17  2  0
 22 18  1  0
 23 14  1  0
 23 17  1  0
M  END
>  <NAME>  (1046) 
N-BENZYL-3-CYCLOHEXAENCARBONYLOXY-2,2-DIMETHYLPROPANAMIDE

>  <SYNONYMS>  (1046) 


>  <SPECTRUM TYPE>  (1046) 
MS1

>  <INSTRUMENT TYPE>  (1046) 
EI-B

>  <INSTRUMENT>  (1046) 
SHIMADZU LKB-9000B

>  <ION MODE>  (1046) 
P

>  <INCHIKEY>  (1046) 
AVZVCRIZNLQGRH-UHFFFAOYSA-N

>  <FORMULA>  (1046) 
C19H27NO3

>  <EXACT MASS>  (1046) 
317.199093724

>  <MW>  (1046) 
317

>  <ID>  (1046) 
JP010505

>  <CONTRIBUTOR>  (1046) 
University of Tokyo Team, {Faculty of Engineering, University of Tokyo

>  <COMMENT>  (1046) 
SMILES=c(c2)ccc(c2)CNC(=O)C(C)(C)COC(=O)C(C1)CCCC1
InChI=InChI=1S/C19H27NO3/c1-19(2,14-23-17(21)16-11-7-4-8-12-16)18(22)20-13-15-9-5-3-6-10-15/h3,5-6,9-10,16H,4,7-8,11-14H2,1-2H3,(H,20,22)
computed SMILES=O=C(OCC(C(O)=NCC=1C=CC=CC1)(C)C)C2CCCCC2
accession=JP010505
date=2016.01.19 (Created 2008.10.21, modified 2011.05.06)
author=TSUNODA T, FACULTY OF PHARMACEUTICAL SCIENCES, TOKUSHIMA BUNRI UNIV.
license=CC BY-NC-SA
exact mass=317.19909
ionization energy=70 eV
ion type=[M]+*
computed spectral entropy=2.367772609450054
computed normalized entropy=0.8539934504015784
SPLASH=splash10-0a4i-9520000000-3c94c5703d819c242b08
submitter=submitter = University of Tokyo Team (Faculty of Engineering, University of Tokyo)
MoNA Rating=3.75

>  <NUM PEAKS>  (1046) 
16

>  <MASS SPECTRAL PEAKS>  (1046) 
28 19.8
29 5.2
32 7.8
41 18.2
55 26.7
56 18.1
65 5.8
73 9.7
83 35.9
91 52.4
106 99.99
107 10.9
129 10.9
206 49.7
207 12
317 2.7

>  <PREDICTED SPECTRUM>  (1046) 
26 13
27 71
28 10
29 109
38 16
39 289
40 103
41 608
42 120
43 204
44 82
45 124
49 3
50 56
51 138
52 84
53 159
54 71
55 547
56 142
57 47
58 14
62 32
63 122
64 22
65 321
66 92
67 163
68 80
69 72
70 79
72 55
73 259
74 51
77 107
78 77
79 177
81 63
82 43
83 842
84 242
85 44
88 8
89 169
90 65
91 999
92 319
93 39
96 7
97 6
98 89
99 36
100 123
101 17
102 49
104 59
105 46
106 185
107 49
110 17
111 305
112 327
113 93
114 89
115 207
116 173
117 87
123 10
126 6
127 43
128 40
129 61
130 43
132 7
133 57
134 1
146 91
160 194
161 190
162 39
163 23
174 9
178 53
179 35
183 24
188 170
189 206
190 62
191 70
205 113
206 615
207 482
208 189
209 38
218 35
226 264
227 57
234 13
302 36
317 140
318 40

$$$$

     RDKit          2D

 19 19  0  0  1  0  0  0  0  0999 V2000
   -4.2212    1.6329    0.0000 C   0  0  0  0  0  0  0  0  0  0  0  0
    4.8721    3.8829    0.0000 C   0  0  0  0  0  0  0  0  0  0  0  0
    0.6401    5.0320    0.0000 C   0  0  0  0  0  0  0  0  0  0  0  0
   -1.2882    5.0320    0.0000 C   0  0  0  0  0  0  0  0  0  0  0  0
   -8.1183    5.3829    0.0000 C   0  0  0  0  0  0  0  0  0  0  0  0
   -8.1187    3.8821    0.0000 C   0  0  0  0  0  0  0  0  0  0  0  0
   -6.8187    6.1337    0.0000 C   0  0  0  0  0  0  0  0  0  0  0  0
   -6.8197    3.1321    0.0000 C   0  0  0  0  0  0  0  0  0  0  0  0
   -5.5197    5.3837    0.0000 C   0  0  0  0  0  0  0  0  0  0  0  0
    0.9750    3.1329    0.0000 C   0  0  0  0  0  0  0  0  0  0  0  0
   -4.2212    3.1329    0.0000 C   0  0  0  0  0  0  0  0  0  0  0  0
    3.5731    3.1329    0.0000 C   0  0  0  0  0  0  0  0  0  0  0  0
   -5.5202    3.8829    0.0000 C   0  0  0  0  0  0  0  0  0  0  0  0
   -1.6231    3.1329    0.0000 C   0  0  0  0  0  0  0  0  0  0  0  0
   -0.3240    3.8829    0.0000 C   0  0  0  0  0  0  0  0  0  0  0  0
   -2.9221    3.8829    0.0000 N   0  0  0  0  0  0  0  0  0  0  0  0
    3.5731    1.6329    0.0000 O   0  0  0  0  0  0  0  0  0  0  0  0
   -1.6231    1.6329    0.0000 O   0  0  0  0  0  0  0  0  0  0  0  0
    2.2740    3.8829    0.0000 O   0  0  0  0  0  0  0  0  0  0  0  0
  6  5  2  0
  7  5  1  0
  8  6  1  0
  9  7  2  0
 11  1  1  1
 12  2  1  0
 13  8  2  0
 13  9  1  0
 13 11  1  0
 15  3  1  0
 15  4  1  0
 15 10  1  0
 15 14  1  0
 16 11  1  0
 16 14  2  3
 17 12  2  0
 18 14  1  0
 19 10  1  0
 19 12  1  0
M  END
>  <NAME>  (1047) 
(1'S)-N-(1'-PHENYLETHYL)-3-ACETOXY-2,2-DIMETHYLPROPANAMIDE

>  <SYNONYMS>  (1047) 


>  <SPECTRUM TYPE>  (1047) 
MS1

>  <INSTRUMENT TYPE>  (1047) 
EI-B

>  <INSTRUMENT>  (1047) 
SHIMADZU LKB-9000B

>  <ION MODE>  (1047) 
P

>  <INCHIKEY>  (1047) 
IIBGRZRPCJEHAI-NSHDSACASA-N

>  <FORMULA>  (1047) 
C15H21NO3

>  <EXACT MASS>  (1047) 
263.152143532

>  <MW>  (1047) 
263

>  <ID>  (1047) 
JP010504

>  <CONTRIBUTOR>  (1047) 
University of Tokyo Team, {Faculty of Engineering, University of Tokyo

>  <COMMENT>  (1047) 
SMILES=CC(=O)OCC(C)(C)C(=O)NC([H])(C)c(c1)cccc1
InChI=InChI=1S/C15H21NO3/c1-11(13-8-6-5-7-9-13)16-14(18)15(3,4)10-19-12(2)17/h5-9,11H,10H2,1-4H3,(H,16,18)/t11-/m0/s1
computed SMILES=O=C(OCC(C(O)=NC(C=1C=CC=CC1)C)(C)C)C
accession=JP010504
date=2016.01.19 (Created 2008.10.21, modified 2011.05.06)
author=TSUNODA T, FACULTY OF PHARMACEUTICAL SCIENCES, TOKUSHIMA BUNRI UNIV.
license=CC BY-NC-SA
exact mass=263.15214
ionization energy=70 eV
ion type=[M]+*
computed spectral entropy=2.5183157219215
computed normalized entropy=0.8552786251438724
SPLASH=splash10-0a4i-3900000000-7bef18cc0bd8d01ff440
submitter=submitter = University of Tokyo Team (Faculty of Engineering, University of Tokyo)
MoNA Rating=3.75

>  <NUM PEAKS>  (1047) 
19

>  <MASS SPECTRAL PEAKS>  (1047) 
43 38.5
55 7
56 23.1
77 15
78 5.3
79 10.6
103 8.3
104 21
105 99.99
106 16.7
115 16.1
119 6
120 62.9
121 6.9
132 12.7
143 11.8
147 9.2
264 18.1
265 4.2

>  <PREDICTED SPECTRUM>  (1047) 
14 40
15 39
16 16
17 16
18 40
25 0
26 58
27 213
28 164
29 189
30 99
31 71
32 20
37 4
38 48
39 322
40 100
41 482
42 285
43 958
44 118
45 183
50 135
51 341
52 148
53 139
54 88
55 200
56 175
57 144
58 86
59 106
60 96
62 45
63 150
64 44
65 216
67 4
69 57
70 99
71 91
72 56
73 79
74 120
75 76
76 93
77 652
78 343
79 425
80 7
82 12
83 47
84 170
85 127
86 116
87 45
89 1
90 60
91 475
92 144
93 97
98 21
99 91
100 54
101 14
102 77
103 415
104 372
105 999
106 526
107 175
113 2
114 9
115 353
116 332
117 238
118 160
119 87
120 408
121 170
126 10
128 19
131 234
132 184
133 168
134 139
135 121
136 5
143 26
144 118
145 127
146 265
147 281
148 191
149 56
159 70
160 112
161 4
162 199
163 16
164 28
173 54
174 108
175 189
176 165
177 95
178 67
187 8
188 350
189 97
202 86
203 564
204 376
205 0
218 69
263 91
264 2

$$$$

     RDKit          2D

 16 16  0  0  1  0  0  0  0  0999 V2000
   -0.3691    5.4592    0.0000 C   0  0  0  0  0  0  0  0  0  0  0  0
   -5.2304    2.0602    0.0000 C   0  0  0  0  0  0  0  0  0  0  0  0
   -3.3020    2.0602    0.0000 C   0  0  0  0  0  0  0  0  0  0  0  0
    3.5281    1.7092    0.0000 C   0  0  0  0  0  0  0  0  0  0  0  0
    3.5285    3.2101    0.0000 C   0  0  0  0  0  0  0  0  0  0  0  0
    2.2285    0.9584    0.0000 C   0  0  0  0  0  0  0  0  0  0  0  0
    2.2295    3.9601    0.0000 C   0  0  0  0  0  0  0  0  0  0  0  0
    0.9295    1.7084    0.0000 C   0  0  0  0  0  0  0  0  0  0  0  0
   -5.5652    3.9592    0.0000 C   0  0  0  0  0  0  0  0  0  0  0  0
   -0.3691    3.9592    0.0000 C   0  0  0  0  0  0  0  0  0  0  0  0
    0.9300    3.2092    0.0000 C   0  0  0  0  0  0  0  0  0  0  0  0
   -2.9671    3.9592    0.0000 C   0  0  0  0  0  0  0  0  0  0  0  0
   -4.2662    3.2092    0.0000 C   0  0  0  0  0  0  0  0  0  0  0  0
   -1.6681    3.2092    0.0000 N   0  0  0  0  0  0  0  0  0  0  0  0
   -6.8643    3.2092    0.0000 O   0  0  0  0  0  0  0  0  0  0  0  0
   -2.9671    5.4592    0.0000 O   0  0  0  0  0  0  0  0  0  0  0  0
  5  4  2  0
  6  4  1  0
  7  5  1  0
  8  6  2  0
 10  1  1  1
 11  7  2  0
 11  8  1  0
 11 10  1  0
 13  2  1  0
 13  3  1  0
 13  9  1  0
 13 12  1  0
 14 10  1  0
 14 12  2  3
 15  9  1  0
 16 12  1  0
M  END
>  <NAME>  (1048) 
(1'S)-N-(1'-PHENYLETHYL)-3-HYDROXY-2,2-DIMETHYLPROPANAMIDE

>  <SYNONYMS>  (1048) 


>  <SPECTRUM TYPE>  (1048) 
MS1

>  <INSTRUMENT TYPE>  (1048) 
EI-B

>  <INSTRUMENT>  (1048) 
SHIMADZU LKB-9000B

>  <ION MODE>  (1048) 
P

>  <INCHIKEY>  (1048) 
AAQLUNZDLHDEQI-JTQLQIEISA-N

>  <FORMULA>  (1048) 
C13H19NO2

>  <EXACT MASS>  (1048) 
221.141578848

>  <MW>  (1048) 
221

>  <ID>  (1048) 
JP010503

>  <CONTRIBUTOR>  (1048) 
University of Tokyo Team, {Faculty of Engineering, University of Tokyo

>  <COMMENT>  (1048) 
SMILES=OCC(C)(C)C(=O)NC([H])(C)c(c1)cccc1
InChI=InChI=1S/C13H19NO2/c1-10(11-7-5-4-6-8-11)14-12(16)13(2,3)9-15/h4-8,10,15H,9H2,1-3H3,(H,14,16)/t10-/m0/s1
computed SMILES=OC(=NC(C=1C=CC=CC1)C)C(C)(C)CO
accession=JP010503
date=2016.01.19 (Created 2008.10.21, modified 2011.05.06)
author=TSUNODA T, FACULTY OF PHARMACEUTICAL SCIENCES, TOKUSHIMA BUNRI UNIV.
license=CC BY-NC-SA
exact mass=221.14158
ionization energy=70 eV
ion type=[M]+*
computed spectral entropy=2.707907919122744
computed normalized entropy=0.8760500575398734
SPLASH=splash10-0a4i-5920000000-e3ce9509f6d3b7035098
submitter=submitter = University of Tokyo Team (Faculty of Engineering, University of Tokyo)
MoNA Rating=3.75

>  <NUM PEAKS>  (1048) 
22

>  <MASS SPECTRAL PEAKS>  (1048) 
41 6.7
42 6.5
51 5.9
55 11.9
56 27.3
73 20.5
77 23
78 8.3
79 15.4
87 8.3
91 8.3
103 10
104 22.4
105 99.99
106 54.3
120 16.6
132 29.1
147 15.5
192 6.6
207 5.9
222 53.5
223 9

>  <PREDICTED SPECTRUM>  (1048) 
14 15
15 12
16 11
17 21
18 27
25 3
26 54
27 201
28 160
29 256
30 76
31 216
32 48
33 29
36 24
37 41
38 114
39 374
40 150
41 569
42 204
43 510
44 86
45 202
46 52
49 5
50 224
51 367
52 195
53 187
54 42
55 307
56 96
57 218
58 67
59 276
60 64
62 66
63 190
64 77
65 224
66 60
67 101
68 15
69 125
70 120
71 29
72 21
73 156
74 239
75 134
76 145
77 618
78 326
79 421
85 7
86 99
87 42
88 36
89 140
90 97
91 411
92 173
93 110
94 21
99 36
101 61
102 129
103 408
104 460
105 999
106 710
107 177
115 249
116 271
117 350
118 218
119 151
120 182
121 94
128 148
129 133
130 49
131 235
132 87
133 94
134 143
135 14
144 105
145 152
146 124
147 188
148 13
149 23
156 10
158 193
159 187
160 208
171 4
172 27
173 167
174 87
175 168
176 366
188 19
189 159
190 455
191 159
221 110
222 19

$$$$

     RDKit          2D

 23 22  0  0  0  0  0  0  0  0999 V2000
    0.3248   10.6875    0.0000 C   0  0  0  0  0  0  0  0  0  0  0  0
    4.2219    5.4375    0.0000 C   0  0  0  0  0  0  0  0  0  0  0  0
    1.6238    3.9375    0.0000 C   0  0  0  0  0  0  0  0  0  0  0  0
    0.3248    7.6875    0.0000 C   0  0  0  0  0  0  0  0  0  0  0  0
  -10.0675    6.1875    0.0000 C   0  0  0  0  0  0  0  0  0  0  0  0
   -3.9072    7.3366    0.0000 C   0  0  0  0  0  0  0  0  0  0  0  0
   -5.8356    7.3366    0.0000 C   0  0  0  0  0  0  0  0  0  0  0  0
   -0.9743    9.9375    0.0000 C   0  0  0  0  0  0  0  0  0  0  0  0
    2.9228    6.1875    0.0000 C   0  0  0  0  0  0  0  0  0  0  0  0
   -0.9743    8.4375    0.0000 C   0  0  0  0  0  0  0  0  0  0  0  0
   -2.2733    7.6875    0.0000 C   0  0  0  0  0  0  0  0  0  0  0  0
   -6.1704    5.4375    0.0000 C   0  0  0  0  0  0  0  0  0  0  0  0
    1.6238    5.4375    0.0000 C   0  0  0  0  0  0  0  0  0  0  0  0
    0.3248    6.1875    0.0000 C   0  0  0  0  0  0  0  0  0  0  0  0
   -8.7685    5.4375    0.0000 C   0  0  0  0  0  0  0  0  0  0  0  0
   -0.9743    5.4375    0.0000 C   0  0  0  0  0  0  0  0  0  0  0  0
   -3.5724    5.4375    0.0000 C   0  0  0  0  0  0  0  0  0  0  0  0
   -4.8714    6.1875    0.0000 C   0  0  0  0  0  0  0  0  0  0  0  0
   -2.2733    6.1875    0.0000 N   0  0  0  0  0  0  0  0  0  0  0  0
   -8.7685    3.9375    0.0000 O   0  0  0  0  0  0  0  0  0  0  0  0
   -0.9743    3.9375    0.0000 O   0  0  0  0  0  0  0  0  0  0  0  0
   -3.5724    3.9375    0.0000 O   0  0  0  0  0  0  0  0  0  0  0  0
   -7.4695    6.1875    0.0000 O   0  0  0  0  0  0  0  0  0  0  0  0
  8  1  1  0
  9  2  2  0
 10  8  1  0
 11 10  1  0
 13  3  1  0
 13  9  1  0
 14  4  1  0
 14 13  1  0
 15  5  1  0
 16 14  1  0
 18  6  1  0
 18  7  1  0
 18 12  1  0
 18 17  1  0
 19 11  1  0
 19 16  1  0
 19 17  1  0
 20 15  2  0
 21 16  2  0
 22 17  2  0
 23 12  1  0
 23 15  1  0
M  END
>  <NAME>  (1049) 
N-3-ACETOXY-2,2-DIMETHYLPROPIONYL-N-BUTYL-2,3-DIMETHYLPENT-4-ENAMIDE

>  <SYNONYMS>  (1049) 


>  <SPECTRUM TYPE>  (1049) 
MS1

>  <INSTRUMENT TYPE>  (1049) 
EI-B

>  <INSTRUMENT>  (1049) 
SHIMADZU LKB-9000B

>  <ION MODE>  (1049) 
P

>  <INCHIKEY>  (1049) 
QYDLGJPYMBVRDX-UHFFFAOYSA-N

>  <FORMULA>  (1049) 
C18H31NO4

>  <EXACT MASS>  (1049) 
325.225308472

>  <MW>  (1049) 
325

>  <ID>  (1049) 
JP010502

>  <CONTRIBUTOR>  (1049) 
University of Tokyo Team, {Faculty of Engineering, University of Tokyo

>  <COMMENT>  (1049) 
SMILES=CCCCN(C(=O)C(C)C(C)C=C)C(=O)C(C)(C)COC(C)=O
InChI=InChI=1S/C18H31NO4/c1-8-10-11-19(16(21)14(4)13(3)9-2)17(22)18(6,7)12-23-15(5)20/h9,13-14H,2,8,10-12H2,1,3-7H3
computed SMILES=O=C(OCC(C(=O)N(C(=O)C(C)C(C=C)C)CCCC)(C)C)C
accession=JP010502
date=2016.01.19 (Created 2008.10.21, modified 2011.05.06)
author=TSUNODA T, FACULTY OF PHARMACEUTICAL SCIENCES, TOKUSHIMA BUNRI UNIV.
license=CC BY-NC-SA
exact mass=325.22531
ionization energy=70 eV
ion type=[M]+*
computed spectral entropy=3.24631519957953
computed normalized entropy=0.9059015050100844
SPLASH=splash10-0536-9300000000-260f6d34276540dcda8f
submitter=submitter = University of Tokyo Team (Faculty of Engineering, University of Tokyo)
MoNA Rating=3.75

>  <NUM PEAKS>  (1049) 
36

>  <MASS SPECTRAL PEAKS>  (1049) 
27 11.1
29 21.5
30 8.2
39 15.4
41 42.8
42 7.5
43 99.99
44 12.5
53 6.9
55 73.8
56 18.4
57 45.2
67 9
69 19.3
70 33.8
72 9.5
73 13.4
74 6.8
82 6.2
83 44.5
84 19.2
86 8.3
87 16.2
88 6.9
100 18.3
111 12.8
112 5.8
115 27.8
128 22.3
129 17.4
142 5.8
143 19.2
168 35
183 7.2
184 27.8
326 1

>  <PREDICTED SPECTRUM>  (1049) 
14 8
15 73
18 14
25 6
26 79
27 350
28 213
29 412
30 300
31 113
36 15
37 13
38 51
39 361
40 142
41 709
42 281
43 999
44 261
45 122
46 1
49 32
50 38
51 52
53 195
54 265
55 888
56 424
57 768
58 46
59 13
60 52
61 30
62 26
63 68
65 48
66 21
67 279
68 175
69 250
70 493
71 170
72 360
73 432
74 68
75 17
77 42
79 48
80 36
81 121
82 265
83 743
84 406
85 83
86 192
87 127
88 74
89 27
91 46
93 0
94 2
95 26
96 100
97 85
98 205
99 66
100 247
101 52
102 6
104 34
105 63
110 36
111 105
112 173
113 82
114 175
115 222
116 95
117 47
124 52
125 31
126 183
127 179
128 708
129 356
130 125
131 1
132 2
133 0
139 19
140 67
141 34
142 216
143 186
144 112
145 20
154 11
156 47
157 61
158 72
160 22
168 398
169 111
170 178
171 48
172 128
173 24
174 82
175 13
181 36
182 115
183 150
184 221
185 111
186 118
212 53
222 7
224 43
228 6
270 27
284 51

$$$$

     RDKit          2D

 14 14  0  0  0  0  0  0  0  0999 V2000
   -1.6236    5.3821    0.0000 C   0  0  0  0  0  0  0  0  0  0  0  0
   -5.5207    3.1321    0.0000 C   0  0  0  0  0  0  0  0  0  0  0  0
   -0.3245    4.6321    0.0000 C   0  0  0  0  0  0  0  0  0  0  0  0
   -4.2216    2.3821    0.0000 C   0  0  0  0  0  0  0  0  0  0  0  0
    3.5726    0.8821    0.0000 C   0  0  0  0  0  0  0  0  0  0  0  0
    3.5731    2.3829    0.0000 C   0  0  0  0  0  0  0  0  0  0  0  0
    2.2731    0.1313    0.0000 C   0  0  0  0  0  0  0  0  0  0  0  0
    2.2740    3.1329    0.0000 C   0  0  0  0  0  0  0  0  0  0  0  0
    0.9740    0.8813    0.0000 C   0  0  0  0  0  0  0  0  0  0  0  0
    0.9745    2.3821    0.0000 C   0  0  0  0  0  0  0  0  0  0  0  0
   -0.3245    3.1321    0.0000 C   0  0  0  0  0  0  0  0  0  0  0  0
   -2.9226    3.1321    0.0000 C   0  0  0  0  0  0  0  0  0  0  0  0
   -1.6236    2.3821    0.0000 N   0  0  0  0  0  0  0  0  0  0  0  0
   -2.9226    4.6321    0.0000 O   0  0  0  0  0  0  0  0  0  0  0  0
  3  1  1  0
  4  2  1  0
  6  5  2  0
  7  5  1  0
  8  6  1  0
  9  7  2  0
 10  8  2  0
 10  9  1  0
 11  3  1  0
 11 10  1  0
 12  4  1  0
 13 11  1  0
 13 12  2  3
 14 12  1  0
M  END
>  <NAME>  (1050) 
N-1-PHENYLPROPYLPROPANAMIDE

>  <SYNONYMS>  (1050) 


>  <SPECTRUM TYPE>  (1050) 
MS1

>  <INSTRUMENT TYPE>  (1050) 
EI-B

>  <INSTRUMENT>  (1050) 
SHIMADZU LKB-9000B

>  <ION MODE>  (1050) 
P

>  <INCHIKEY>  (1050) 
WOJZOOBUQTUMCT-UHFFFAOYSA-N

>  <FORMULA>  (1050) 
C12H17NO

>  <EXACT MASS>  (1050) 
191.131014164

>  <MW>  (1050) 
191

>  <ID>  (1050) 
JP010501

>  <CONTRIBUTOR>  (1050) 
University of Tokyo Team, {Faculty of Engineering, University of Tokyo

>  <COMMENT>  (1050) 
SMILES=CCC(=O)NC(CC)c(c1)cccc1
InChI=InChI=1S/C12H17NO/c1-3-11(13-12(14)4-2)10-8-6-5-7-9-10/h5-9,11H,3-4H2,1-2H3,(H,13,14)
computed SMILES=OC(=NC(C=1C=CC=CC1)CC)CC
accession=JP010501
date=2016.01.19 (Created 2008.10.21, modified 2011.05.06)
author=TSUNODA T, FACULTY OF PHARMACEUTICAL SCIENCES, TOKUSHIMA BUNRI UNIV.
license=CC BY-NC-SA
exact mass=191.13101
ionization energy=70 eV
ion type=[M]+*
computed spectral entropy=2.3083459878002106
computed normalized entropy=0.8147448523927355
SPLASH=splash10-0a4i-5900000000-976cb00b08d1d5f87734
submitter=submitter = University of Tokyo Team (Faculty of Engineering, University of Tokyo)
MoNA Rating=3.75

>  <NUM PEAKS>  (1050) 
17

>  <MASS SPECTRAL PEAKS>  (1050) 
32 15.5
41 6.5
43 12.6
51 7.1
57 20.6
77 10.2
79 6.2
91 16.7
104 7.8
106 99.99
107 8.9
117 5.1
118 8.3
120 5.7
134 5
162 21.5
191 6

>  <PREDICTED SPECTRUM>  (1050) 
15 42
17 10
18 21
26 61
27 263
28 164
29 468
30 151
31 105
32 17
37 13
38 81
39 326
40 95
41 399
42 123
43 180
44 68
50 182
51 360
52 192
53 107
54 65
55 136
56 150
57 541
58 65
59 14
62 68
63 214
64 100
65 427
66 94
67 44
68 35
69 5
70 8
74 74
75 108
76 102
77 562
78 337
79 412
80 105
89 217
90 162
91 999
92 359
93 34
102 12
103 173
104 291
105 182
106 386
107 79
113 26
115 128
116 141
117 239
118 331
119 287
120 48
128 24
130 161
131 2
132 108
133 24
134 240
135 67
143 29
144 151
145 86
146 217
147 20
160 205
161 23
162 694
163 144
191 238
192 101

$$$$

     RDKit          2D

 18 18  0  0  0  0  0  0  0  0999 V2000
   -6.8200    3.1325    0.0000 C   0  0  0  0  0  0  0  0  0  0  0  0
    0.9743    6.1325    0.0000 C   0  0  0  0  0  0  0  0  0  0  0  0
   -2.9228   -0.6175    0.0000 C   0  0  0  0  0  0  0  0  0  0  0  0
   -5.5209    3.8825    0.0000 C   0  0  0  0  0  0  0  0  0  0  0  0
   -0.3248    5.3825    0.0000 C   0  0  0  0  0  0  0  0  0  0  0  0
   -2.9228    0.8825    0.0000 C   0  0  0  0  0  0  0  0  0  0  0  0
   -4.2219    3.1325    0.0000 C   0  0  0  0  0  0  0  0  0  0  0  0
    3.5724    1.6325    0.0000 C   0  0  0  0  0  0  0  0  0  0  0  0
    3.5728    3.1333    0.0000 C   0  0  0  0  0  0  0  0  0  0  0  0
    2.2728    0.8817    0.0000 C   0  0  0  0  0  0  0  0  0  0  0  0
    2.2738    3.8833    0.0000 C   0  0  0  0  0  0  0  0  0  0  0  0
    0.9738    1.6317    0.0000 C   0  0  0  0  0  0  0  0  0  0  0  0
   -2.9228    3.8825    0.0000 C   0  0  0  0  0  0  0  0  0  0  0  0
    0.9743    3.1325    0.0000 C   0  0  0  0  0  0  0  0  0  0  0  0
   -0.3248    3.8825    0.0000 C   0  0  0  0  0  0  0  0  0  0  0  0
   -1.6238    1.6325    0.0000 C   0  0  0  0  0  0  0  0  0  0  0  0
   -1.6238    3.1325    0.0000 N   0  0  0  0  0  0  0  0  0  0  0  0
   -0.3248    0.8825    0.0000 O   0  0  0  0  0  0  0  0  0  0  0  0
  4  1  1  0
  5  2  1  0
  6  3  1  0
  4  7  2  0
  9  8  2  0
 10  8  1  0
 11  9  1  0
 12 10  2  0
 13  7  1  0
 14 11  2  0
 14 12  1  0
 15  5  1  0
 15 14  1  0
 16  6  1  0
 17 13  1  0
 17 15  1  0
 17 16  1  0
 18 16  2  0
M  END
>  <NAME>  (1051) 
N-2-BUTENYL-N-1-PHENYLPROPYLPROPANAMIDE

>  <SYNONYMS>  (1051) 


>  <SPECTRUM TYPE>  (1051) 
MS1

>  <INSTRUMENT TYPE>  (1051) 
EI-B

>  <INSTRUMENT>  (1051) 
SHIMADZU LKB-9000B

>  <ION MODE>  (1051) 
P

>  <INCHIKEY>  (1051) 
KIROBTRQJHPXKH-QPJJXVBHSA-N

>  <FORMULA>  (1051) 
C16H23NO

>  <EXACT MASS>  (1051) 
245.17796435600002

>  <MW>  (1051) 
245

>  <ID>  (1051) 
JP010500

>  <CONTRIBUTOR>  (1051) 
University of Tokyo Team, {Faculty of Engineering, University of Tokyo

>  <COMMENT>  (1051) 
SMILES=CC=CCN(C(=O)CC)C(CC)c(c1)cccc1
InChI=InChI=1S/C16H23NO/c1-4-7-13-17(16(18)6-3)15(5-2)14-11-9-8-10-12-14/h4,7-12,15H,5-6,13H2,1-3H3/b7-4+
computed SMILES=O=C(N(CC=CC)C(C=1C=CC=CC1)CC)CC
accession=JP010500
date=2016.01.19 (Created 2008.10.21, modified 2011.05.06)
author=TSUNODA T, FACULTY OF PHARMACEUTICAL SCIENCES, TOKUSHIMA BUNRI UNIV.
license=CC BY-NC-SA
exact mass=245.17796
ionization energy=70 eV
ion type=[M]+*
computed spectral entropy=3.155607183744427
computed normalized entropy=0.8805889512346096
SPLASH=splash10-054o-9700000000-7c8d7d17ab73e5a8baf3
submitter=submitter = University of Tokyo Team (Faculty of Engineering, University of Tokyo)
MoNA Rating=3.75

>  <NUM PEAKS>  (1051) 
36

>  <MASS SPECTRAL PEAKS>  (1051) 
27 28.5
29 76
39 22.9
41 22.1
51 11.9
53 8.2
55 59
56 11.7
57 52.5
58 5.4
65 8.1
70 50.3
71 5
77 19.7
78 7.8
79 7.5
91 99.99
92 8.1
103 6.2
104 15.3
105 5
106 46.6
115 8.3
117 13.8
118 17.5
119 18.7
126 24.4
134 67.9
135 7.3
160 72.5
161 9
162 9.9
190 92.1
191 12.4
216 5.6
245 7.2

>  <PREDICTED SPECTRUM>  (1051) 
26 53
27 274
28 149
29 441
30 48
37 2
38 51
39 428
40 136
41 522
42 122
43 190
44 111
50 180
51 393
52 173
53 272
54 109
55 711
56 262
57 709
58 121
62 66
63 207
64 160
65 403
66 65
69 117
70 220
71 117
72 23
76 31
77 454
78 315
79 284
80 107
82 9
84 128
85 73
86 64
89 152
90 171
91 963
92 408
94 6
96 52
98 213
100 23
102 66
103 155
104 468
105 407
106 629
114 33
115 437
116 256
117 509
118 629
119 264
120 48
132 9
133 194
134 971
135 282
144 86
146 77
160 925
161 275
162 230
172 61
173 176
174 39
188 72
189 96
190 999
191 284
216 220
217 52
245 284
246 58

$$$$

     RDKit          2D

 11 11  0  0  0  0  0  0  0  0999 V2000
   -3.8969    2.5696    0.0000 C   0  0  0  0  0  0  0  0  0  0  0  0
   -2.5978    0.3196    0.0000 C   0  0  0  0  0  0  0  0  0  0  0  0
    2.5983    0.3196    0.0000 C   0  0  0  0  0  0  0  0  0  0  0  0
    2.5988    1.8204    0.0000 C   0  0  0  0  0  0  0  0  0  0  0  0
    1.2988   -0.4312    0.0000 C   0  0  0  0  0  0  0  0  0  0  0  0
    1.2998    2.5704    0.0000 C   0  0  0  0  0  0  0  0  0  0  0  0
   -0.0002    0.3188    0.0000 C   0  0  0  0  0  0  0  0  0  0  0  0
   -2.5978    1.8196    0.0000 C   0  0  0  0  0  0  0  0  0  0  0  0
    0.0002    1.8196    0.0000 C   0  0  0  0  0  0  0  0  0  0  0  0
   -1.2988    2.5696    0.0000 C   0  0  0  0  0  0  0  0  0  0  0  0
   -1.2988    4.0696    0.0000 O   0  0  0  0  0  0  0  0  0  0  0  0
  4  3  2  0
  5  3  1  0
  6  4  1  0
  7  5  2  0
  8  1  1  0
  8  2  1  0
  9  6  2  0
  9  7  1  0
 10  8  1  0
 10  9  1  0
 11 10  1  0
M  END
>  <NAME>  (1052) 
2-METHYL-1-PHENYLPROPANOL

>  <SYNONYMS>  (1052) 


>  <SPECTRUM TYPE>  (1052) 
MS1

>  <INSTRUMENT TYPE>  (1052) 
EI-B

>  <INSTRUMENT>  (1052) 
SHIMADZU LKB-9000B

>  <ION MODE>  (1052) 
P

>  <INCHIKEY>  (1052) 
GMDYDZMQHRTHJA-UHFFFAOYSA-N

>  <FORMULA>  (1052) 
C10H14O

>  <EXACT MASS>  (1052) 
150.104465068

>  <MW>  (1052) 
150

>  <ID>  (1052) 
JP010499

>  <CONTRIBUTOR>  (1052) 
University of Tokyo Team, {Faculty of Engineering, University of Tokyo

>  <COMMENT>  (1052) 
SMILES=CC(C)C(O)c(c1)cccc1
InChI=InChI=1S/C10H14O/c1-8(2)10(11)9-6-4-3-5-7-9/h3-8,10-11H,1-2H3
computed SMILES=OC(C=1C=CC=CC1)C(C)C
accession=JP010499
date=2016.01.19 (Created 2008.10.21, modified 2011.05.06)
author=TSUNODA T, FACULTY OF PHARMACEUTICAL SCIENCES, TOKUSHIMA BUNRI UNIV.
license=CC BY-NC-SA
exact mass=150.10447
ionization energy=70 eV
ion type=[M]+*
computed spectral entropy=2.2392657879400777
computed normalized entropy=0.7747327940852798
SPLASH=splash10-0a6r-9600000000-09b77d2ea78082f2be62
submitter=submitter = University of Tokyo Team (Faculty of Engineering, University of Tokyo)
MoNA Rating=3.75

>  <NUM PEAKS>  (1052) 
18

>  <MASS SPECTRAL PEAKS>  (1052) 
29 5
32 11.2
39 9.1
41 6
43 9.7
50 5.1
51 12.6
52 3.6
53 3.3
77 30.8
78 7.3
79 56.4
80 3.7
91 5.3
105 10.4
107 99.99
108 11.1
150 3.9

>  <PREDICTED SPECTRUM>  (1052) 
19 6
26 19
27 128
29 62
31 47
33 7
37 11
38 47
39 229
40 74
41 159
43 403
44 254
45 79
50 140
51 301
52 175
53 171
62 63
63 149
64 46
65 109
74 87
75 87
76 57
77 507
78 243
79 616
80 174
89 97
90 50
91 273
92 78
103 31
105 247
106 25
107 999
108 426
109 10
115 133
117 152
118 42
132 16
150 157
151 35

$$$$

     RDKit          2D

 15 15  0  0  0  0  0  0  0  0999 V2000
   -5.1962    2.5700    0.0000 C   0  0  0  0  0  0  0  0  0  0  0  0
   -1.2990    4.8200    0.0000 C   0  0  0  0  0  0  0  0  0  0  0  0
    1.2990    4.8200    0.0000 C   0  0  0  0  0  0  0  0  0  0  0  0
   -3.8971    1.8200    0.0000 C   0  0  0  0  0  0  0  0  0  0  0  0
    3.8971    0.3200    0.0000 C   0  0  0  0  0  0  0  0  0  0  0  0
    3.8976    1.8208    0.0000 C   0  0  0  0  0  0  0  0  0  0  0  0
    2.5976   -0.4308    0.0000 C   0  0  0  0  0  0  0  0  0  0  0  0
    2.5986    2.5708    0.0000 C   0  0  0  0  0  0  0  0  0  0  0  0
    1.2986    0.3192    0.0000 C   0  0  0  0  0  0  0  0  0  0  0  0
    0.0000    4.0700    0.0000 C   0  0  0  0  0  0  0  0  0  0  0  0
    1.2990    1.8200    0.0000 C   0  0  0  0  0  0  0  0  0  0  0  0
   -2.5981    2.5700    0.0000 C   0  0  0  0  0  0  0  0  0  0  0  0
    0.0000    2.5700    0.0000 C   0  0  0  0  0  0  0  0  0  0  0  0
   -1.2990    1.8200    0.0000 N   0  0  0  0  0  0  0  0  0  0  0  0
   -2.5981    4.0700    0.0000 O   0  0  0  0  0  0  0  0  0  0  0  0
  4  1  1  0
  6  5  2  0
  7  5  1  0
  8  6  1  0
  9  7  2  0
 10  2  1  0
 10  3  1  0
 11  8  2  0
 11  9  1  0
 12  4  1  0
 13 10  1  0
 13 11  1  0
 14 12  2  3
 14 13  1  0
 15 12  1  0
M  END
>  <NAME>  (1053) 
N-(2-METHYL-1-PHENYLPROPYL)PROPANAMIDE

>  <SYNONYMS>  (1053) 


>  <SPECTRUM TYPE>  (1053) 
MS1

>  <INSTRUMENT TYPE>  (1053) 
EI-B

>  <INSTRUMENT>  (1053) 
SHIMADZU LKB-9000B

>  <ION MODE>  (1053) 
P

>  <INCHIKEY>  (1053) 
YKBKVAVBYPIHRS-UHFFFAOYSA-N

>  <FORMULA>  (1053) 
C13H19NO

>  <EXACT MASS>  (1053) 
205.146664228

>  <MW>  (1053) 
205

>  <ID>  (1053) 
JP010498

>  <CONTRIBUTOR>  (1053) 
University of Tokyo Team, {Faculty of Engineering, University of Tokyo

>  <COMMENT>  (1053) 
SMILES=CCC(=O)NC(C(C)C)c(c1)cccc1
InChI=InChI=1S/C13H19NO/c1-4-12(15)14-13(10(2)3)11-8-6-5-7-9-11/h5-10,13H,4H2,1-3H3,(H,14,15)
computed SMILES=OC(=NC(C=1C=CC=CC1)C(C)C)CC
accession=JP010498
date=2016.01.19 (Created 2008.10.21, modified 2011.05.06)
author=TSUNODA T, FACULTY OF PHARMACEUTICAL SCIENCES, TOKUSHIMA BUNRI UNIV.
license=CC BY-NC-SA
exact mass=205.14666
ionization energy=70 eV
ion type=[M]+*
computed spectral entropy=2.8560674476030212
computed normalized entropy=0.8168343403796758
SPLASH=splash10-0a6r-7900000000-05479e756d54397b5374
submitter=submitter = University of Tokyo Team (Faculty of Engineering, University of Tokyo)
MoNA Rating=3.75

>  <NUM PEAKS>  (1053) 
33

>  <MASS SPECTRAL PEAKS>  (1053) 
18 2.2
27 16.4
28 13.2
29 31.2
39 7.7
41 7.5
42 2
43 6.8
50 3.2
51 8.7
52 2.6
55 4.9
57 24.6
63 2.2
65 2.5
72 2
77 13.5
78 5.5
79 9.9
91 15.8
104 14.2
105 5.8
106 99.99
107 14.3
115 3.8
117 4.4
132 4.6
133 2.8
134 7
148 2.4
162 50.3
163 6.6
205 2

>  <PREDICTED SPECTRUM>  (1053) 
14 10
15 27
17 6
18 8
26 52
27 210
28 142
29 244
30 152
31 80
32 11
33 6
36 2
37 16
38 57
39 336
40 108
41 441
42 311
43 320
44 222
45 142
46 47
49 34
50 146
51 253
52 153
53 174
54 83
55 269
56 205
57 211
58 148
59 85
60 50
61 7
62 69
63 180
64 43
65 336
66 59
67 54
68 76
69 51
70 172
71 91
72 161
73 117
74 183
75 137
76 106
77 328
78 239
79 274
80 92
81 24
82 18
84 47
85 68
86 136
87 90
88 46
89 183
90 113
91 999
92 299
93 46
94 4
98 67
100 75
101 53
102 149
103 308
104 298
105 238
106 158
107 90
113 9
114 269
115 346
116 211
117 275
118 200
119 96
120 40
126 26
127 87
128 286
129 227
130 194
131 97
132 299
133 127
134 29
142 4
143 11
144 169
145 31
146 43
147 16
148 32
149 23
150 18
158 24
159 69
160 315
161 41
162 405
163 162
164 34
174 2
176 360
177 119
178 6
190 146
191 49
204 73
205 265
206 100

$$$$

     RDKit          2D

 19 19  0  0  0  0  0  0  0  0999 V2000
   -6.8200    3.1325    0.0000 C   0  0  0  0  0  0  0  0  0  0  0  0
   -2.9228   -0.6175    0.0000 C   0  0  0  0  0  0  0  0  0  0  0  0
    0.9743    6.1325    0.0000 C   0  0  0  0  0  0  0  0  0  0  0  0
   -1.6238    6.1325    0.0000 C   0  0  0  0  0  0  0  0  0  0  0  0
   -5.5209    3.8825    0.0000 C   0  0  0  0  0  0  0  0  0  0  0  0
   -2.9228    0.8825    0.0000 C   0  0  0  0  0  0  0  0  0  0  0  0
   -4.2219    3.1325    0.0000 C   0  0  0  0  0  0  0  0  0  0  0  0
    3.5724    1.6325    0.0000 C   0  0  0  0  0  0  0  0  0  0  0  0
    3.5728    3.1333    0.0000 C   0  0  0  0  0  0  0  0  0  0  0  0
    2.2728    0.8817    0.0000 C   0  0  0  0  0  0  0  0  0  0  0  0
    2.2738    3.8833    0.0000 C   0  0  0  0  0  0  0  0  0  0  0  0
    0.9738    1.6317    0.0000 C   0  0  0  0  0  0  0  0  0  0  0  0
   -2.9228    3.8825    0.0000 C   0  0  0  0  0  0  0  0  0  0  0  0
   -0.3248    5.3825    0.0000 C   0  0  0  0  0  0  0  0  0  0  0  0
    0.9743    3.1325    0.0000 C   0  0  0  0  0  0  0  0  0  0  0  0
   -1.6238    1.6325    0.0000 C   0  0  0  0  0  0  0  0  0  0  0  0
   -0.3248    3.8825    0.0000 C   0  0  0  0  0  0  0  0  0  0  0  0
   -1.6238    3.1325    0.0000 N   0  0  0  0  0  0  0  0  0  0  0  0
   -0.3248    0.8825    0.0000 O   0  0  0  0  0  0  0  0  0  0  0  0
  5  1  1  0
  6  2  1  0
  5  7  2  0
  9  8  2  0
 10  8  1  0
 11  9  1  0
 12 10  2  0
 13  7  1  0
 14  3  1  0
 14  4  1  0
 15 11  2  0
 15 12  1  0
 16  6  1  0
 17 14  1  0
 17 15  1  0
 18 13  1  0
 18 16  1  0
 18 17  1  0
 19 16  2  0
M  END
>  <NAME>  (1054) 
N-2-BUTENYL-N-(2-METHYL-1-PHENYLPROPYL)PROPANAMIDE

>  <SYNONYMS>  (1054) 


>  <SPECTRUM TYPE>  (1054) 
MS1

>  <INSTRUMENT TYPE>  (1054) 
EI-B

>  <INSTRUMENT>  (1054) 
SHIMADZU LKB-9000B

>  <ION MODE>  (1054) 
P

>  <INCHIKEY>  (1054) 
ROGCCZKTCDZFOA-FNORWQNLSA-N

>  <FORMULA>  (1054) 
C17H25NO

>  <EXACT MASS>  (1054) 
259.19361442

>  <MW>  (1054) 
259

>  <ID>  (1054) 
JP010497

>  <CONTRIBUTOR>  (1054) 
University of Tokyo Team, {Faculty of Engineering, University of Tokyo

>  <COMMENT>  (1054) 
SMILES=CC=CCN(C(=O)CC)C(C(C)C)c(c1)cccc1
InChI=InChI=1S/C17H25NO/c1-5-7-13-18(16(19)6-2)17(14(3)4)15-11-9-8-10-12-15/h5,7-12,14,17H,6,13H2,1-4H3/b7-5+
computed SMILES=O=C(N(CC=CC)C(C=1C=CC=CC1)C(C)C)CC
accession=JP010497
date=2016.01.19 (Created 2008.10.21, modified 2011.05.06)
author=TSUNODA T, FACULTY OF PHARMACEUTICAL SCIENCES, TOKUSHIMA BUNRI UNIV.
license=CC BY-NC-SA
exact mass=259.19361
ionization energy=70 eV
ion type=[M]+*
computed spectral entropy=3.085255494562746
computed normalized entropy=0.89021656037622
SPLASH=splash10-0bt9-8930000000-2534c50b354ef620f633
submitter=submitter = University of Tokyo Team (Faculty of Engineering, University of Tokyo)
MoNA Rating=3.75

>  <NUM PEAKS>  (1054) 
32

>  <MASS SPECTRAL PEAKS>  (1054) 
27 19.4
29 16.5
39 13.4
41 11.2
43 13.6
51 5.8
53 6.7
55 55.1
56 6
57 37.2
70 14.8
77 11.6
79 5.9
91 47.1
104 10
105 7.7
106 65.3
107 5.7
115 7.6
117 12.6
126 8.1
132 11.9
133 8.8
148 16.5
160 99.99
161 16.8
162 23.1
204 32.8
216 47.4
217 7.3
259 7.1
260 8.8

>  <PREDICTED SPECTRUM>  (1054) 
18 11
26 11
27 192
28 97
29 337
30 5
32 12
38 11
39 223
40 54
41 337
42 105
43 194
44 18
50 95
51 235
52 72
53 161
54 31
55 635
56 205
57 448
58 139
59 7
63 56
64 48
65 189
66 51
67 65
69 42
70 153
71 61
72 38
76 12
77 407
78 207
79 206
81 3
82 4
83 93
84 90
85 3
86 37
89 118
90 64
91 678
92 121
96 10
97 24
98 93
99 4
103 91
104 286
105 477
106 601
107 131
112 53
114 29
115 261
116 78
117 370
118 143
119 97
130 49
131 27
132 327
133 312
134 47
147 63
148 349
160 999
161 453
162 305
163 37
174 61
176 44
188 24
203 70
204 477
205 80
216 476
217 218
244 8
258 25
259 315
260 152

$$$$

     RDKit          2D

 14 15  0  0  0  0  0  0  0  0999 V2000
    5.5858    4.6822    0.0000 C   0  0  0  0  0  0  0  0  0  0  0  0
    4.1182    4.3721    0.0000 C   0  0  0  0  0  0  0  0  0  0  0  0
   -2.3100   -0.7500    0.0000 C   0  0  0  0  0  0  0  0  0  0  0  0
   -2.3100    0.7500    0.0000 C   0  0  0  0  0  0  0  0  0  0  0  0
   -1.0100   -1.5000    0.0000 C   0  0  0  0  0  0  0  0  0  0  0  0
   -1.0100    1.5000    0.0000 C   0  0  0  0  0  0  0  0  0  0  0  0
    1.7200   -1.2100    0.0000 C   0  0  0  0  0  0  0  0  0  0  0  0
    2.6000    0.0000    0.0000 C   0  0  0  0  0  0  0  0  0  0  0  0
    0.2900   -0.7500    0.0000 C   0  0  0  0  0  0  0  0  0  0  0  0
    0.2900    0.7500    0.0000 C   0  0  0  0  0  0  0  0  0  0  0  0
    1.7200    1.2100    0.0000 C   0  0  0  0  0  0  0  0  0  0  0  0
    3.6529    2.9461    0.0000 C   0  0  0  0  0  0  0  0  0  0  0  0
    2.1853    2.6360    0.0000 N   0  0  0  0  0  0  0  0  0  0  0  0
    4.6552    1.8301    0.0000 O   0  0  0  0  0  0  0  0  0  0  0  0
  2  1  1  0
  4  3  2  0
  5  3  1  0
  6  4  1  0
  8  7  1  0
  9  5  2  0
  9  7  1  0
 10  6  2  0
 10  9  1  0
 11  8  1  0
 11 10  1  0
 12  2  1  0
 13 11  1  0
 13 12  2  3
 14 12  1  0
M  END
>  <NAME>  (1055) 
1-PROPIONYLAMINOINDAN

>  <SYNONYMS>  (1055) 


>  <SPECTRUM TYPE>  (1055) 
MS1

>  <INSTRUMENT TYPE>  (1055) 
EI-B

>  <INSTRUMENT>  (1055) 
JEOL JMS-AX-500

>  <ION MODE>  (1055) 
P

>  <INCHIKEY>  (1055) 
RZBLQFKQMMGHSQ-UHFFFAOYSA-N

>  <FORMULA>  (1055) 
C12H15NO

>  <EXACT MASS>  (1055) 
189.1153641

>  <MW>  (1055) 
189

>  <ID>  (1055) 
JP010496

>  <CONTRIBUTOR>  (1055) 
University of Tokyo Team, {Faculty of Engineering, University of Tokyo

>  <COMMENT>  (1055) 
SMILES=CCC(=O)NC(C1)c(c2)c(ccc2)C1
InChI=InChI=1S/C12H15NO/c1-2-12(14)13-11-8-7-9-5-3-4-6-10(9)11/h3-6,11H,2,7-8H2,1H3,(H,13,14)
computed SMILES=OC(=NC1C=2C=CC=CC2CC1)CC
accession=JP010496
date=2016.01.19 (Created 2008.10.21, modified 2011.05.06)
author=TSUNODA T, FACULTY OF PHARMACEUTICAL SCIENCES, TOKUSHIMA BUNRI UNIV.
license=CC BY-NC-SA
exact mass=189.11536
ionization energy=70 eV
ion type=[M]+*
computed spectral entropy=3.2873647592214392
computed normalized entropy=0.7614067885710677
SPLASH=splash10-00xu-9300000000-5efea26daa5116b61d4c
submitter=submitter = University of Tokyo Team (Faculty of Engineering, University of Tokyo)
MoNA Rating=3.75

>  <NUM PEAKS>  (1055) 
75

>  <MASS SPECTRAL PEAKS>  (1055) 
14 2.25
15 18.92
28 8.74
29 58.7
30 2.07
31 2.82
39 2.8
41 3.22
42 22.15
43 96.37
45 64
46 1.33
50 1.05
51 2.07
54 1.03
55 4.83
56 2.86
57 10.43
58 5.06
60 4.34
61 75.32
62 2.21
63 2.12
65 2.64
67 1.36
69 3.76
70 65.17
71 5.32
73 28.31
74 71.24
75 3.38
76 1.22
77 5.36
78 1.49
79 2
81 1.38
82 1.56
83 2.85
84 1.18
85 1.67
87 2.2
88 27.68
89 5.3
90 1.7
91 9.54
93 1.29
94 1.17
95 2.38
96 1.34
97 2.27
98 1.08
103 2.9
104 2.36
105 3.39
107 1.1
108 1.06
109 1.09
111 1.68
115 23.41
116 99.99
117 36.26
118 4.31
119 1.85
121 1.13
129 1.02
130 6.18
131 4.26
132 47.66
133 8.17
135 1.47
138 1.03
149 6.93
170 1.05
189 11.73
190 1.95

>  <PREDICTED SPECTRUM>  (1055) 
14 21
15 33
16 8
17 22
18 50
26 103
27 347
28 186
29 480
30 159
31 157
32 23
37 31
38 131
39 468
40 190
41 547
42 237
43 187
44 195
45 125
46 129
49 3
50 281
51 457
52 263
53 228
54 115
55 316
56 227
57 617
58 161
59 119
62 183
63 420
64 294
65 394
66 122
67 142
69 88
70 48
71 228
72 71
73 13
74 205
75 261
76 291
77 555
78 382
79 224
80 70
81 70
82 58
83 78
84 21
85 142
86 165
87 172
88 133
89 366
90 221
91 736
92 275
93 50
94 10
95 66
96 42
97 104
98 87
99 60
100 80
101 153
102 317
103 320
104 269
105 227
106 96
107 84
113 216
114 211
115 861
116 688
117 914
118 379
119 150
126 121
127 341
128 757
129 593
130 828
131 437
132 451
133 325
134 146
139 89
140 98
141 259
142 396
143 383
144 303
145 291
146 134
147 44
155 35
156 100
157 44
158 75
159 15
160 226
161 39
170 203
171 157
172 69
174 278
175 74
185 12
187 94
188 64
189 999
190 363
191 102

$$$$

     RDKit          2D

 18 19  0  0  0  0  0  0  0  0999 V2000
    6.0510    6.1082    0.0000 C   0  0  0  0  0  0  0  0  0  0  0  0
    0.6459    6.2939    0.0000 C   0  0  0  0  0  0  0  0  0  0  0  0
    5.5858    4.6822    0.0000 C   0  0  0  0  0  0  0  0  0  0  0  0
    1.6482    5.1780    0.0000 C   0  0  0  0  0  0  0  0  0  0  0  0
    4.1182    4.3721    0.0000 C   0  0  0  0  0  0  0  0  0  0  0  0
   -2.3100   -0.7500    0.0000 C   0  0  0  0  0  0  0  0  0  0  0  0
   -2.3100    0.7500    0.0000 C   0  0  0  0  0  0  0  0  0  0  0  0
   -1.0100   -1.5000    0.0000 C   0  0  0  0  0  0  0  0  0  0  0  0
   -1.0100    1.5000    0.0000 C   0  0  0  0  0  0  0  0  0  0  0  0
    1.7200   -1.2100    0.0000 C   0  0  0  0  0  0  0  0  0  0  0  0
    2.6000    0.0000    0.0000 C   0  0  0  0  0  0  0  0  0  0  0  0
    3.6529    2.9461    0.0000 C   0  0  0  0  0  0  0  0  0  0  0  0
    0.2900   -0.7500    0.0000 C   0  0  0  0  0  0  0  0  0  0  0  0
    0.2900    0.7500    0.0000 C   0  0  0  0  0  0  0  0  0  0  0  0
    1.7200    1.2100    0.0000 C   0  0  0  0  0  0  0  0  0  0  0  0
    1.1830    3.7520    0.0000 C   0  0  0  0  0  0  0  0  0  0  0  0
    2.1853    2.6360    0.0000 N   0  0  0  0  0  0  0  0  0  0  0  0
   -0.2847    3.4419    0.0000 O   0  0  0  0  0  0  0  0  0  0  0  0
  3  1  1  0
  4  2  1  0
  3  5  2  0
  7  6  2  0
  8  6  1  0
  9  7  1  0
 11 10  1  0
 12  5  1  0
 13  8  2  0
 13 10  1  0
 14  9  2  0
 14 13  1  0
 15 11  1  0
 15 14  1  0
 16  4  1  0
 17 12  1  0
 17 15  1  0
 17 16  1  0
 18 16  2  0
M  END
>  <NAME>  (1056) 
1-(N-2-BUTENYLPROPANOYLAMINO)INDANE

>  <SYNONYMS>  (1056) 


>  <SPECTRUM TYPE>  (1056) 
MS1

>  <INSTRUMENT TYPE>  (1056) 
EI-B

>  <INSTRUMENT>  (1056) 
JEOL JMS-AX-500

>  <ION MODE>  (1056) 
P

>  <INCHIKEY>  (1056) 
CVWJSMCYKDJAJB-HWKANZROSA-N

>  <FORMULA>  (1056) 
C16H21NO

>  <EXACT MASS>  (1056) 
243.162314292

>  <MW>  (1056) 
243

>  <ID>  (1056) 
JP010495

>  <CONTRIBUTOR>  (1056) 
University of Tokyo Team, {Faculty of Engineering, University of Tokyo

>  <COMMENT>  (1056) 
SMILES=CC=CCN(C(=O)CC)C(C1)c(c2)c(ccc2)C1
InChI=InChI=1S/C16H21NO/c1-3-5-12-17(16(18)4-2)15-11-10-13-8-6-7-9-14(13)15/h3,5-9,15H,4,10-12H2,1-2H3/b5-3+
computed SMILES=O=C(N(CC=CC)C1C=2C=CC=CC2CC1)CC
accession=JP010495
date=2016.01.19 (Created 2008.10.21, modified 2011.05.06)
author=TSUNODA T, FACULTY OF PHARMACEUTICAL SCIENCES, TOKUSHIMA BUNRI UNIV.
license=CC BY-NC-SA
exact mass=243.16231
ionization energy=70 eV
ion type=[M]+*
computed spectral entropy=3.322491763531609
computed normalized entropy=0.7768882749013907
SPLASH=splash10-00l6-9500000000-fa019fa3fb16a195bad8
submitter=submitter = University of Tokyo Team (Faculty of Engineering, University of Tokyo)
MoNA Rating=3.75

>  <NUM PEAKS>  (1056) 
72

>  <MASS SPECTRAL PEAKS>  (1056) 
14 1.65
15 4.9
29 20.63
30 1.36
31 1.14
39 2.67
40 1.82
41 4.18
42 5.6
43 99.99
44 4.54
45 15.57
51 1.02
53 1.14
55 7.18
56 3.47
57 9.39
58 1.42
60 1.31
61 18.13
65 1.58
67 1.35
69 3.51
70 25.37
71 4.97
72 1.02
73 6.78
74 2.06
77 2.61
79 1.36
81 1.79
82 1.49
83 2.5
84 1.13
85 1.98
86 1.39
88 6.68
89 1.95
91 5.77
95 1.7
96 1.09
97 1.99
98 1.33
103 2.27
104 1.41
105 2.04
111 1.24
115 14.52
116 11.06
117 26.93
118 3.6
119 1.79
125 1.06
126 3.75
127 1.11
128 2.83
129 1.25
130 3.71
131 2.98
132 55.4
133 7.97
135 1.41
138 1.05
145 1.08
146 2.57
147 1.02
149 2.64
186 1.37
188 29.32
189 4.48
202 1.2
243 1.09

>  <PREDICTED SPECTRUM>  (1056) 
14 33
15 80
16 12
17 21
18 56
25 12
26 146
27 463
28 329
29 763
30 159
31 70
32 7
37 13
38 73
39 412
40 160
41 586
42 299
43 235
44 213
49 19
50 178
51 304
52 147
53 350
54 208
55 510
56 335
57 999
58 257
62 77
63 273
64 189
65 341
66 111
67 209
68 94
69 175
70 128
71 143
72 8
74 41
75 55
76 140
77 413
78 342
79 185
80 155
81 163
82 235
83 308
84 130
85 90
89 224
90 147
91 669
92 219
93 77
94 96
95 82
96 134
97 22
98 87
102 283
103 308
104 373
105 231
106 175
107 24
108 131
115 797
116 492
117 732
118 525
119 171
120 70
121 67
126 51
127 286
128 766
129 625
130 874
131 296
132 412
133 121
139 27
141 220
142 328
143 507
144 538
145 319
146 254
147 71
148 30
151 124
152 329
153 90
154 237
155 340
156 349
157 362
158 639
159 255
160 214
165 76
166 106
167 35
168 98
169 183
170 422
171 294
172 403
173 79
183 2
184 41
185 67
186 590
187 666
188 964
189 272
197 77
200 28
214 252
215 23
228 120
229 60
242 92
243 706
244 288
245 40

$$$$

     RDKit          2D

 11 11  0  0  0  0  0  0  0  0999 V2000
    1.9487    3.0002    0.0000 C   0  0  0  0  0  0  0  0  0  0  0  0
    1.9487   -3.0002    0.0000 C   0  0  0  0  0  0  0  0  0  0  0  0
   -1.9500    0.7500    0.0000 C   0  0  0  0  0  0  0  0  0  0  0  0
   -1.9500   -0.7500    0.0000 C   0  0  0  0  0  0  0  0  0  0  0  0
   -0.6500    1.5000    0.0000 C   0  0  0  0  0  0  0  0  0  0  0  0
   -0.6500   -1.5000    0.0000 C   0  0  0  0  0  0  0  0  0  0  0  0
    1.9489    1.5002    0.0000 C   0  0  0  0  0  0  0  0  0  0  0  0
    0.6500    0.7500    0.0000 C   0  0  0  0  0  0  0  0  0  0  0  0
    0.6500   -0.7500    0.0000 C   0  0  0  0  0  0  0  0  0  0  0  0
    3.2481    0.7504    0.0000 O   0  0  0  0  0  0  0  0  0  0  0  0
    1.9489   -1.5002    0.0000 O   0  0  0  0  0  0  0  0  0  0  0  0
  4  3  2  0
  5  3  1  0
  6  4  1  0
  7  1  1  0
  8  5  2  0
  8  7  1  0
  9  6  2  0
  9  8  1  0
 10  7  1  0
 11  2  1  0
 11  9  1  0
M  END
>  <NAME>  (1057) 
1-(2-METHOXYPHENYL)ETHANOL

>  <SYNONYMS>  (1057) 


>  <SPECTRUM TYPE>  (1057) 
MS1

>  <INSTRUMENT TYPE>  (1057) 
EI-B

>  <INSTRUMENT>  (1057) 
JEOL JMS-AX-500

>  <ION MODE>  (1057) 
P

>  <INCHIKEY>  (1057) 
DHHGVIOVURMJEA-UHFFFAOYSA-N

>  <FORMULA>  (1057) 
C9H12O2

>  <EXACT MASS>  (1057) 
152.083729624

>  <MW>  (1057) 
152

>  <ID>  (1057) 
JP010494

>  <CONTRIBUTOR>  (1057) 
University of Tokyo Team, {Faculty of Engineering, University of Tokyo

>  <COMMENT>  (1057) 
SMILES=COc(c1)c(ccc1)C(C)O
InChI=InChI=1S/C9H12O2/c1-7(10)8-5-3-4-6-9(8)11-2/h3-7,10H,1-2H3
computed SMILES=OC(C=1C=CC=CC1OC)C
accession=JP010494
date=2016.01.19 (Created 2008.10.21, modified 2011.05.06)
author=TSUNODA T, FACULTY OF PHARMACEUTICAL SCIENCES, TOKUSHIMA BUNRI UNIV.
license=CC BY-NC-SA
exact mass=152.08373
ionization energy=70 eV
ion type=[M]+*
computed spectral entropy=3.810338054521841
computed normalized entropy=0.8386728656462064
SPLASH=splash10-0a4u-6900000000-7b8aef4bb1d8aaf25bd9
submitter=submitter = University of Tokyo Team (Faculty of Engineering, University of Tokyo)
MoNA Rating=3.75

>  <NUM PEAKS>  (1057) 
94

>  <MASS SPECTRAL PEAKS>  (1057) 
14 2.25
15 1.71
31 1.31
40 3.01
41 8.31
42 2.11
43 33.91
44 3.66
45 5.7
50 3.59
51 9
52 2.05
53 2.6
55 8.68
56 5.45
57 13.75
58 1.17
61 4.11
62 1.47
63 5.12
64 2.59
65 11.4
66 2.43
67 2.89
68 1.67
69 6.62
70 7.46
71 8.4
73 2.39
74 1.62
75 2.03
76 4.02
77 27.63
78 5.91
79 12.19
80 1.44
81 4.99
82 2.87
83 5.29
84 2.36
85 4.38
86 1.02
88 1.53
89 2.81
90 1.63
91 17.47
92 4.95
93 4.28
94 14.57
95 4.89
96 2.42
97 4.76
98 1.86
99 1.66
102 1.11
103 4.35
104 3.28
105 12.66
106 1.78
107 69.46
108 10.08
109 32.75
110 3.93
111 2.82
112 1.42
113 1.31
115 3.49
116 1.87
117 4.71
118 2.44
119 9.86
120 2.74
121 15.19
122 5.75
123 2.32
125 1.69
126 1.21
128 1.26
131 1.56
132 9.02
133 4.13
134 4.91
135 13.31
136 2.56
137 99.99
138 10.82
139 1.63
141 1.32
147 1.26
149 13.41
150 2.66
151 2.47
152 30.1
153 3.82

>  <PREDICTED SPECTRUM>  (1057) 
14 37
15 157
17 13
18 35
19 21
25 13
26 89
27 193
28 121
29 162
30 104
31 161
32 33
33 29
34 11
37 70
38 164
39 382
40 136
41 169
42 15
43 880
44 189
45 279
46 44
47 11
49 55
50 357
51 581
52 283
53 226
54 4
55 60
58 129
59 74
60 77
61 119
62 201
63 415
64 305
65 555
66 263
67 66
74 232
75 181
76 242
77 869
78 401
79 386
80 72
81 50
89 293
90 262
91 985
92 472
93 300
94 286
95 161
102 156
103 307
104 246
105 401
106 62
107 460
108 273
109 656
110 44
115 179
116 96
117 281
118 311
119 793
120 240
121 326
122 132
133 353
134 648
135 710
136 75
137 999
138 295
139 48
149 0
150 25
151 59
152 350
153 70

$$$$

     RDKit          2D

  9  9  0  0  0  0  0  0  0  0999 V2000
    2.3002    1.6680    0.0000 C   0  0  0  0  0  0  0  0  0  0  0  0
    2.3002   -1.3280    0.0000 C   0  0  0  0  0  0  0  0  0  0  0  0
   -0.2900    1.6700    0.0000 C   0  0  0  0  0  0  0  0  0  0  0  0
   -1.5800    0.9200    0.0000 C   0  0  0  0  0  0  0  0  0  0  0  0
   -0.2900   -1.3300    0.0000 C   0  0  0  0  0  0  0  0  0  0  0  0
    1.0000    0.9200    0.0000 C   0  0  0  0  0  0  0  0  0  0  0  0
    1.0000   -0.5800    0.0000 C   0  0  0  0  0  0  0  0  0  0  0  0
   -1.5800   -0.5800    0.0000 C   0  0  0  0  0  0  0  0  0  0  0  0
   -2.8802   -1.3280    0.0000 O   0  0  0  0  0  0  0  0  0  0  0  0
  4  3  2  0
  6  1  1  0
  6  3  1  0
  7  2  1  0
  7  5  1  0
  7  6  2  0
  8  4  1  0
  8  5  2  0
  9  8  1  0
M  END
>  <NAME>  (1058) 
3,4-DIMETHYLPHENOL

>  <SYNONYMS>  (1058) 


>  <SPECTRUM TYPE>  (1058) 
MS1

>  <INSTRUMENT TYPE>  (1058) 
EI-B

>  <INSTRUMENT>  (1058) 
HITACHI M-80A

>  <ION MODE>  (1058) 
P

>  <INCHIKEY>  (1058) 
YCOXTKKNXUZSKD-UHFFFAOYSA-N

>  <FORMULA>  (1058) 
C8H10O

>  <EXACT MASS>  (1058) 
122.07316494

>  <MW>  (1058) 
122

>  <ID>  (1058) 
JP010493

>  <CONTRIBUTOR>  (1058) 
University of Tokyo Team, {Faculty of Engineering, University of Tokyo

>  <COMMENT>  (1058) 
SMILES=Oc(c1)cc(C)c(C)c1
InChI=InChI=1S/C8H10O/c1-6-3-4-8(9)5-7(6)2/h3-5,9H,1-2H3
computed SMILES=OC1=CC=C(C(=C1)C)C
accession=JP010493
date=2016.01.19 (Created 2008.10.21, modified 2011.05.06)
author=TAJIMA S, GUNMA COLLEGE OF TECHNOLOGY
license=CC BY-NC-SA
exact mass=122.07316
ionization energy=70 eV
ion type=[M]+*
computed spectral entropy=2.916064215710612
computed normalized entropy=0.7616446445949924
SPLASH=splash10-05fr-7900000000-7e46063c7d13680bf6ac
submitter=submitter = University of Tokyo Team (Faculty of Engineering, University of Tokyo)
MoNA Rating=3.75

>  <NUM PEAKS>  (1058) 
46

>  <MASS SPECTRAL PEAKS>  (1058) 
15 2.11
26 2.13
27 10.62
29 2.57
37 1.3
38 4.1
39 18.94
40 2.91
41 5.56
42 1.06
43 2.38
50 7.28
51 14.29
52 6.05
53 10.52
54 1.09
55 3.92
60 1.66
61 2.02
62 2.85
63 6.67
64 1.6
65 8.55
66 3.05
67 2.41
74 1.8
75 1.57
77 26.58
78 6.67
79 10.15
81 1.61
89 1.34
91 15.98
92 2.27
93 2.96
94 3.11
95 1.15
103 2.25
104 1.37
105 4.96
107 99.99
108 8.05
120 1.84
121 40.29
122 79.3
123 7.81

>  <PREDICTED SPECTRUM>  (1058) 
15 1
26 56
27 208
28 65
29 47
36 11
37 66
38 141
39 386
40 131
41 208
42 53
43 38
44 32
49 18
50 226
51 371
52 228
53 301
54 80
55 151
61 58
62 93
63 186
64 80
65 276
66 100
67 78
68 3
74 89
75 67
76 34
77 500
78 234
79 385
80 92
81 85
89 53
91 411
92 89
93 192
94 88
95 44
102 43
103 141
105 119
107 861
108 296
109 12
119 38
120 81
121 469
122 999
123 310
124 9

$$$$

     RDKit          2D

  9  9  0  0  0  0  0  0  0  0999 V2000
    2.9928    0.9831    0.0000 C   0  0  0  0  0  0  0  0  0  0  0  0
    0.3944    2.4833    0.0000 C   0  0  0  0  0  0  0  0  0  0  0  0
    0.3937   -2.0183    0.0000 C   0  0  0  0  0  0  0  0  0  0  0  0
    1.6932   -1.2675    0.0000 C   0  0  0  0  0  0  0  0  0  0  0  0
   -0.9054   -1.2683    0.0000 C   0  0  0  0  0  0  0  0  0  0  0  0
    1.6937    0.2333    0.0000 C   0  0  0  0  0  0  0  0  0  0  0  0
    0.3946    0.9833    0.0000 C   0  0  0  0  0  0  0  0  0  0  0  0
   -0.9049    0.2325    0.0000 C   0  0  0  0  0  0  0  0  0  0  0  0
   -2.2039    0.9825    0.0000 O   0  0  0  0  0  0  0  0  0  0  0  0
  4  3  2  0
  5  3  1  0
  6  1  1  0
  6  4  1  0
  7  2  1  0
  7  6  2  0
  8  5  2  0
  8  7  1  0
  9  8  1  0
M  END
>  <NAME>  (1059) 
2,3-DIMETHYLPHENOL

>  <SYNONYMS>  (1059) 


>  <SPECTRUM TYPE>  (1059) 
MS1

>  <INSTRUMENT TYPE>  (1059) 
EI-B

>  <INSTRUMENT>  (1059) 
HITACHI M-80A

>  <ION MODE>  (1059) 
P

>  <INCHIKEY>  (1059) 
QWBBPBRQALCEIZ-UHFFFAOYSA-N

>  <FORMULA>  (1059) 
C8H10O

>  <EXACT MASS>  (1059) 
122.07316494

>  <MW>  (1059) 
122

>  <ID>  (1059) 
JP010492

>  <CONTRIBUTOR>  (1059) 
University of Tokyo Team, {Faculty of Engineering, University of Tokyo

>  <COMMENT>  (1059) 
SMILES=Cc(c1)c(C)c(O)cc1
InChI=InChI=1S/C8H10O/c1-6-4-3-5-8(9)7(6)2/h3-5,9H,1-2H3
computed SMILES=OC1=CC=CC(=C1C)C
accession=JP010492
date=2016.01.19 (Created 2008.10.21, modified 2011.05.06)
author=TAJIMA S, GUNMA COLLEGE OF TECHNOLOGY
license=CC BY-NC-SA
exact mass=122.07316
ionization energy=70 eV
ion type=[M]+*
computed spectral entropy=2.9847905046864405
computed normalized entropy=0.7710244175583211
SPLASH=splash10-05i0-8900000000-51d723e665d09753d245
submitter=submitter = University of Tokyo Team (Faculty of Engineering, University of Tokyo)
MoNA Rating=3.75

>  <NUM PEAKS>  (1059) 
48

>  <MASS SPECTRAL PEAKS>  (1059) 
15 2.24
26 2.34
27 11.29
29 2.81
37 1.41
38 4.51
39 21.61
40 3.27
41 6.16
43 3.61
50 6.99
51 15.24
52 6.05
53 10.53
54 1.1
55 3.78
60 2.41
61 2.49
62 3.28
63 8.28
64 2.04
65 9.91
66 3.37
67 2.48
74 2.05
75 1.79
76 1.29
77 32.95
78 12.28
79 21.14
80 2.09
81 1.28
89 1.75
91 20.42
92 2.96
93 5
94 5.21
95 1.16
102 1.42
103 7.63
104 5.55
105 3.57
107 99.99
108 8
120 1.23
121 30.98
122 98.84
123 1.54

>  <PREDICTED SPECTRUM>  (1059) 
14 32
15 65
16 14
18 27
25 9
26 91
27 237
28 92
29 70
37 109
38 193
39 425
40 160
41 261
42 13
43 40
44 30
45 0
49 62
50 296
51 462
52 276
53 366
54 133
55 204
56 38
58 19
59 15
60 18
61 137
62 135
63 228
64 141
65 338
66 167
67 97
68 4
69 14
74 139
75 157
76 68
77 597
78 329
79 485
80 108
81 39
82 88
83 8
89 93
90 34
91 451
92 138
93 185
94 117
95 101
102 111
103 204
104 65
105 149
106 30
107 999
108 319
109 66
119 8
120 40
121 282
122 909
123 272
124 26

$$$$

     RDKit          2D

  9  9  0  0  0  0  0  0  0  0999 V2000
    2.6052   -0.7613    0.0000 C   0  0  0  0  0  0  0  0  0  0  0  0
   -2.6041   -0.8953    0.0000 C   0  0  0  0  0  0  0  0  0  0  0  0
   -0.0300    2.1400    0.0000 C   0  0  0  0  0  0  0  0  0  0  0  0
    1.2600    1.4400    0.0000 C   0  0  0  0  0  0  0  0  0  0  0  0
   -1.3200    1.4000    0.0000 C   0  0  0  0  0  0  0  0  0  0  0  0
    1.2900   -0.0400    0.0000 C   0  0  0  0  0  0  0  0  0  0  0  0
   -1.3200   -0.1200    0.0000 C   0  0  0  0  0  0  0  0  0  0  0  0
    0.0100   -0.8200    0.0000 C   0  0  0  0  0  0  0  0  0  0  0  0
    0.0571   -2.3193    0.0000 O   0  0  0  0  0  0  0  0  0  0  0  0
  4  3  2  0
  5  3  1  0
  6  1  1  0
  6  4  1  0
  7  2  1  0
  7  5  2  0
  8  6  2  0
  8  7  1  0
  9  8  1  0
M  END
>  <NAME>  (1060) 
2,6-DIMETHYLPHENOL

>  <SYNONYMS>  (1060) 


>  <SPECTRUM TYPE>  (1060) 
MS1

>  <INSTRUMENT TYPE>  (1060) 
EI-B

>  <INSTRUMENT>  (1060) 
HITACHI M-80A

>  <ION MODE>  (1060) 
P

>  <INCHIKEY>  (1060) 
NXXYKOUNUYWIHA-UHFFFAOYSA-N

>  <FORMULA>  (1060) 
C8H10O

>  <EXACT MASS>  (1060) 
122.07316494

>  <MW>  (1060) 
122

>  <ID>  (1060) 
JP010489

>  <CONTRIBUTOR>  (1060) 
University of Tokyo Team, {Faculty of Engineering, University of Tokyo

>  <COMMENT>  (1060) 
SMILES=Cc(c1)c(O)c(C)cc1
InChI=InChI=1S/C8H10O/c1-6-4-3-5-7(2)8(6)9/h3-5,9H,1-2H3
computed SMILES=OC=1C(=CC=CC1C)C
accession=JP010489
date=2016.01.19 (Created 2008.10.21, modified 2011.05.06)
author=TAJIMA S, GUNMA COLLEGE OF TECHNOLOGY
license=CC BY-NC-SA
exact mass=122.07316
ionization energy=70 eV
ion type=[M]+*
computed spectral entropy=3.050271773009786
computed normalized entropy=0.7966982167112641
SPLASH=splash10-05i0-8900000000-8a1b0af5939a912cc32f
submitter=submitter = University of Tokyo Team (Faculty of Engineering, University of Tokyo)
MoNA Rating=3.75

>  <NUM PEAKS>  (1060) 
46

>  <MASS SPECTRAL PEAKS>  (1060) 
15 2.42
26 2.35
27 12.18
29 2.36
37 1.32
38 4.23
39 20.81
40 3.08
41 6.15
43 5.09
45 1.29
50 7.13
51 15.13
52 6.2
53 11.52
54 1.31
55 2.74
60 2.31
61 2.36
62 3.51
63 8.56
64 1.98
65 10.98
66 3.02
67 1.73
74 1.66
75 1.58
76 1.28
77 32.4
78 15.31
79 20.6
80 1.94
89 1.99
91 22.47
92 3.28
93 4.55
94 3.91
102 1.83
103 10.01
104 8.76
105 4.67
107 79.14
108 6.35
121 33.14
122 99.99
123 9.32

>  <PREDICTED SPECTRUM>  (1060) 
26 33
27 125
28 7
37 29
38 89
39 317
40 93
41 163
43 69
44 84
49 27
50 224
51 376
52 240
53 291
54 68
55 114
56 5
58 22
59 11
60 5
61 68
62 94
63 182
64 87
65 321
66 193
67 173
68 67
73 4
74 129
75 118
76 52
77 557
78 330
79 466
80 118
81 54
82 1
83 7
89 86
90 40
91 271
92 189
93 398
94 236
95 168
102 1
103 190
104 213
105 194
107 500
108 132
119 121
120 217
121 702
122 999
123 284
124 48

$$$$

     RDKit          2D

  9  9  0  0  0  0  0  0  0  0999 V2000
   -2.5989    1.8302    0.0000 C   0  0  0  0  0  0  0  0  0  0  0  0
   -0.0000   -2.6700    0.0000 C   0  0  0  0  0  0  0  0  0  0  0  0
    0.0000    1.8300    0.0000 C   0  0  0  0  0  0  0  0  0  0  0  0
    1.3000    1.0800    0.0000 C   0  0  0  0  0  0  0  0  0  0  0  0
   -1.3000   -0.4200    0.0000 C   0  0  0  0  0  0  0  0  0  0  0  0
   -1.3000    1.0800    0.0000 C   0  0  0  0  0  0  0  0  0  0  0  0
    0.0000   -1.1700    0.0000 C   0  0  0  0  0  0  0  0  0  0  0  0
    1.3000   -0.4200    0.0000 C   0  0  0  0  0  0  0  0  0  0  0  0
    2.5989   -1.1702    0.0000 O   0  0  0  0  0  0  0  0  0  0  0  0
  4  3  2  0
  6  1  1  0
  6  3  1  0
  6  5  2  0
  7  2  1  0
  7  5  1  0
  8  4  1  0
  8  7  2  0
  9  8  1  0
M  END
>  <NAME>  (1061) 
2,4-DIMETHYLPHENOL

>  <SYNONYMS>  (1061) 


>  <SPECTRUM TYPE>  (1061) 
MS1

>  <INSTRUMENT TYPE>  (1061) 
EI-B

>  <INSTRUMENT>  (1061) 
HITACHI M-80A

>  <ION MODE>  (1061) 
P

>  <INCHIKEY>  (1061) 
KUFFULVDNCHOFZ-UHFFFAOYSA-N

>  <FORMULA>  (1061) 
C8H10O

>  <EXACT MASS>  (1061) 
122.07316494

>  <MW>  (1061) 
122

>  <ID>  (1061) 
JP010488

>  <CONTRIBUTOR>  (1061) 
University of Tokyo Team, {Faculty of Engineering, University of Tokyo

>  <COMMENT>  (1061) 
SMILES=Cc(c1)cc(C)c(O)c1
InChI=InChI=1S/C8H10O/c1-6-3-4-8(9)7(2)5-6/h3-5,9H,1-2H3
computed SMILES=OC1=CC=C(C=C1C)C
accession=JP010488
date=2016.01.19 (Created 2008.10.21, modified 2011.05.06)
author=TAJIMA S, GUNMA COLLEGE OF TECHNOLOGY
license=CC BY-NC-SA
exact mass=122.07316
ionization energy=70 eV
ion type=[M]+*
computed spectral entropy=3.4372901566341802
computed normalized entropy=0.8465308213183417
SPLASH=splash10-0kor-9300000000-3a05618233448adccb69
submitter=submitter = University of Tokyo Team (Faculty of Engineering, University of Tokyo)
MoNA Rating=3.75

>  <NUM PEAKS>  (1061) 
58

>  <MASS SPECTRAL PEAKS>  (1061) 
15 13.48
26 11.55
27 38.44
29 11.57
31 1.66
37 4.9
38 16.1
39 63.81
40 10.77
41 17.26
42 3.33
43 6.71
49 2.31
50 25.02
51 43.83
52 19.6
53 28.93
54 3.85
55 9.22
60 2.22
61 5.58
62 12.17
63 27.74
64 6.74
65 25.66
66 10.14
67 4.98
68 1.45
73 1.37
74 6.57
75 5.02
76 3.99
77 56.09
78 20.21
79 27.54
80 2.78
81 3.05
82 1.24
86 1.74
87 1.72
89 4.39
90 2
91 38.57
92 6.75
93 6.25
94 10.81
95 3.33
102 3.06
103 6.63
104 4.61
105 4.8
107 99.99
108 8.65
119 1.04
120 1.51
121 45.09
122 91.49
123 8.47

>  <PREDICTED SPECTRUM>  (1061) 
14 14
15 55
16 7
18 5
25 0
26 76
27 223
28 82
29 87
31 0
34 5
36 19
37 70
38 151
39 409
40 151
41 199
42 67
43 145
44 73
46 15
49 9
50 243
51 399
52 239
53 300
54 90
55 198
56 31
57 86
60 13
61 98
62 127
63 209
64 110
65 310
66 137
67 130
68 56
69 54
70 16
73 56
74 170
75 132
76 56
77 525
78 326
79 402
80 152
81 77
82 18
83 31
86 59
87 33
89 88
90 12
91 404
92 171
93 289
94 215
95 174
96 11
101 24
102 82
103 169
104 86
105 225
106 124
107 539
108 161
119 151
120 163
121 769
122 999
123 319
124 54

$$$$

     RDKit          2D

  9  8  0  0  0  0  0  0  0  0999 V2000
    2.0490    4.0981    0.0000 C   0  0  0  0  0  0  0  0  0  0  0  0
    2.0490    1.0981    0.0000 C   0  0  0  0  0  0  0  0  0  0  0  0
    3.5490    2.5981    0.0000 C   0  0  0  0  0  0  0  0  0  0  0  0
   -1.5000    2.0490    0.0000 C   0  0  0  0  0  0  0  0  0  0  0  0
   -0.9510    0.0000    0.0000 C   0  0  0  0  0  0  0  0  0  0  0  0
    0.5490    2.5981    0.0000 C   0  0  0  0  0  0  0  0  0  0  0  0
    2.0490    2.5981    0.0000 C   0  0  0  0  0  0  0  0  0  0  0  0
   -0.2010    1.2990    0.0000 C   0  0  0  0  0  0  0  0  0  0  0  0
    1.0981    0.5490    0.0000 N   0  0  0  0  0  0  0  0  0  0  0  0
  7  1  1  0
  7  2  1  0
  7  3  1  0
  7  6  1  0
  8  4  1  0
  8  5  1  0
  8  6  1  0
  9  8  1  0
M  END
>  <NAME>  (1062) 
1,1,3,3-TETRAMETHYLBUTYLAMINE

>  <SYNONYMS>  (1062) 


>  <SPECTRUM TYPE>  (1062) 
MS1

>  <INSTRUMENT TYPE>  (1062) 
EI-B

>  <INSTRUMENT>  (1062) 
HITACHI M-80A

>  <ION MODE>  (1062) 
P

>  <INCHIKEY>  (1062) 
QIJIUJYANDSEKG-UHFFFAOYSA-N

>  <FORMULA>  (1062) 
C8H19N

>  <EXACT MASS>  (1062) 
129.151749608

>  <MW>  (1062) 
129

>  <ID>  (1062) 
JP010487

>  <CONTRIBUTOR>  (1062) 
University of Tokyo Team, {Faculty of Engineering, University of Tokyo

>  <COMMENT>  (1062) 
SMILES=CC(C)(C)CC(C)(C)N
InChI=InChI=1S/C8H19N/c1-7(2,3)6-8(4,5)9/h6,9H2,1-5H3
computed SMILES=NC(C)(C)CC(C)(C)C
accession=JP010487
date=2016.01.19 (Created 2008.10.21, modified 2011.05.06)
author=TAJIMA S, GUNMA COLLEGE OF TECHNOLOGY
license=CC BY-NC-SA
exact mass=129.15175
ionization energy=70 eV
ion type=[M]+*
computed spectral entropy=1.736032578687433
computed normalized entropy=0.6127433298764624
SPLASH=splash10-0a4i-9000000000-93b97baf6fec7b9896dc
submitter=submitter = University of Tokyo Team (Faculty of Engineering, University of Tokyo)
MoNA Rating=3.75

>  <NUM PEAKS>  (1062) 
17

>  <MASS SPECTRAL PEAKS>  (1062) 
15 1.81
18 3.47
27 3.38
28 1.04
29 4.67
30 2.94
39 4.31
41 10.13
42 8.59
43 4.34
55 2.8
56 3.04
57 9.1
58 99.99
59 3.79
72 1.86
114 3.23

>  <PREDICTED SPECTRUM>  (1062) 
15 43
27 82
28 62
29 147
33 28
34 9
38 97
39 389
40 224
41 756
42 499
43 214
44 28
46 40
50 3
51 82
52 113
53 261
54 212
55 331
56 443
57 821
58 999
59 461
67 107
69 55
70 34
72 241
73 136
114 105
129 85
130 50

$$$$

     RDKit          2D

 10 10  0  0  0  0  0  0  0  0999 V2000
    3.8971   -0.7500    0.0000 C   0  0  0  0  0  0  0  0  0  0  0  0
   -3.8971    0.7500    0.0000 C   0  0  0  0  0  0  0  0  0  0  0  0
    1.2995    0.7508    0.0000 C   0  0  0  0  0  0  0  0  0  0  0  0
   -0.0005   -1.5008    0.0000 C   0  0  0  0  0  0  0  0  0  0  0  0
    0.0005    1.5008    0.0000 C   0  0  0  0  0  0  0  0  0  0  0  0
   -1.2995   -0.7508    0.0000 C   0  0  0  0  0  0  0  0  0  0  0  0
    1.2990   -0.7500    0.0000 C   0  0  0  0  0  0  0  0  0  0  0  0
   -1.2990    0.7500    0.0000 C   0  0  0  0  0  0  0  0  0  0  0  0
    2.5981   -1.5000    0.0000 O   0  0  0  0  0  0  0  0  0  0  0  0
   -2.5981    1.5000    0.0000 O   0  0  0  0  0  0  0  0  0  0  0  0
  5  3  2  0
  6  4  1  0
  7  3  1  0
  7  4  2  0
  8  5  1  0
  8  6  2  0
  9  1  1  0
  9  7  1  0
 10  2  1  0
 10  8  1  0
M  END
>  <NAME>  (1063) 
1,4-DIMETHOXYBENZENE

>  <SYNONYMS>  (1063) 
PARA-DIMETHOXYBENZENE

>  <SPECTRUM TYPE>  (1063) 
MS1

>  <INSTRUMENT TYPE>  (1063) 
EI-B

>  <INSTRUMENT>  (1063) 
HITACHI M-80A

>  <ION MODE>  (1063) 
P

>  <INCHIKEY>  (1063) 
OHBQPCCCRFSCAX-UHFFFAOYSA-N

>  <FORMULA>  (1063) 
C8H10O2

>  <EXACT MASS>  (1063) 
138.06807956

>  <MW>  (1063) 
138

>  <ID>  (1063) 
JP010486

>  <CONTRIBUTOR>  (1063) 
University of Tokyo Team, {Faculty of Engineering, University of Tokyo

>  <COMMENT>  (1063) 
SMILES=COc(c1)ccc(OC)c1
InChI=InChI=1S/C8H10O2/c1-9-7-3-5-8(10-2)6-4-7/h3-6H,1-2H3
computed SMILES=O(C1=CC=C(OC)C=C1)C
accession=JP010486
date=2016.01.19 (Created 2008.10.21, modified 2011.05.06)
author=TAJIMA S, GUNMA COLLEGE OF TECHNOLOGY
license=CC BY-NC-SA
exact mass=138.06808
ionization energy=70 eV
ion type=[M]+*
computed spectral entropy=2.913275732622984
computed normalized entropy=0.883925949937826
SPLASH=splash10-00dr-9400000000-1cbab0524dd620c92335
submitter=submitter = University of Tokyo Team (Faculty of Engineering, University of Tokyo)
MoNA Rating=3.75

>  <NUM PEAKS>  (1063) 
27

>  <MASS SPECTRAL PEAKS>  (1063) 
15 37.78
26 13.46
27 6.18
29 11.85
38 13.2
39 18.64
41 38.35
50 11.57
51 15.61
52 22.91
53 16.21
54 16.61
62 7.24
63 25.98
64 19.56
65 12.51
66 3.69
67 4.09
77 8.96
79 6.15
80 10.48
92 7.84
95 47.14
123 99.99
124 9.93
138 73.58
139 7.47

>  <PREDICTED SPECTRUM>  (1063) 
14 30
15 144
16 4
18 8
25 20
26 94
27 94
28 54
29 52
31 45
32 2
37 20
38 107
39 181
40 23
41 194
49 10
50 174
51 306
52 284
53 264
54 179
55 42
62 95
63 284
64 231
65 210
66 62
67 139
68 49
69 64
76 7
77 422
78 163
79 165
80 251
81 114
82 27
92 225
93 86
94 52
95 478
96 108
107 86
108 192
109 123
122 6
123 633
124 150
138 999
139 271
140 25

$$$$

     RDKit          2D

 10 10  0  0  0  0  0  0  0  0999 V2000
   -3.5794    0.1813    0.0000 C   0  0  0  0  0  0  0  0  0  0  0  0
    4.2153    0.1861    0.0000 C   0  0  0  0  0  0  0  0  0  0  0  0
    0.3223   -2.0565    0.0000 C   0  0  0  0  0  0  0  0  0  0  0  0
   -0.9768   -1.3065    0.0000 C   0  0  0  0  0  0  0  0  0  0  0  0
    1.6168   -1.3143    0.0000 C   0  0  0  0  0  0  0  0  0  0  0  0
    0.3182    0.9365    0.0000 C   0  0  0  0  0  0  0  0  0  0  0  0
   -0.9813    0.1857    0.0000 C   0  0  0  0  0  0  0  0  0  0  0  0
    1.6173    0.1865    0.0000 C   0  0  0  0  0  0  0  0  0  0  0  0
   -2.2816    0.9335    0.0000 O   0  0  0  0  0  0  0  0  0  0  0  0
    2.9164    0.9363    0.0000 O   0  0  0  0  0  0  0  0  0  0  0  0
  4  3  2  0
  5  3  1  0
  7  4  1  0
  7  6  2  0
  8  5  2  0
  8  6  1  0
  9  1  1  0
  9  7  1  0
 10  2  1  0
 10  8  1  0
M  END
>  <NAME>  (1064) 
1,3-DIMETHOXYBENZENE

>  <SYNONYMS>  (1064) 
META-DIMETHOXYBENZENE

>  <SPECTRUM TYPE>  (1064) 
MS1

>  <INSTRUMENT TYPE>  (1064) 
EI-B

>  <INSTRUMENT>  (1064) 
HITACHI M-80A

>  <ION MODE>  (1064) 
P

>  <INCHIKEY>  (1064) 
DPZNOMCNRMUKPS-UHFFFAOYSA-N

>  <FORMULA>  (1064) 
C8H10O2

>  <EXACT MASS>  (1064) 
138.06807956

>  <MW>  (1064) 
138

>  <ID>  (1064) 
JP010485

>  <CONTRIBUTOR>  (1064) 
University of Tokyo Team, {Faculty of Engineering, University of Tokyo

>  <COMMENT>  (1064) 
SMILES=COc(c1)cc(OC)cc1
InChI=InChI=1S/C8H10O2/c1-9-7-4-3-5-8(6-7)10-2/h3-6H,1-2H3
computed SMILES=O(C1=CC=CC(OC)=C1)C
accession=JP010485
date=2016.01.19 (Created 2008.10.21, modified 2011.05.06)
author=TAJIMA S, GUNMA COLLEGE OF TECHNOLOGY
license=CC BY-NC-SA
exact mass=138.06808
ionization energy=70 eV
ion type=[M]+*
computed spectral entropy=3.396022800157927
computed normalized entropy=0.8594819864407566
SPLASH=splash10-00kr-9200000000-f5988efb5ee8f220bd52
submitter=submitter = University of Tokyo Team (Faculty of Engineering, University of Tokyo)
MoNA Rating=3.75

>  <NUM PEAKS>  (1064) 
52

>  <MASS SPECTRAL PEAKS>  (1064) 
15 31.27
26 5.22
27 4.9
29 12.31
30 2.34
31 1.38
37 5.53
38 19.54
39 30.75
40 2.22
41 34.76
42 2.18
43 1.72
49 1.88
50 18.92
51 24.7
52 42.21
53 10.27
54 2.87
55 2.76
61 4.88
62 13.12
63 39.97
64 27.3
65 43.12
66 6.13
67 8.21
69 7.19
73 1.22
74 5.53
75 3.08
76 3.26
77 17.54
78 39.8
79 19.12
80 18.27
81 1.97
92 15.86
93 11.38
94 5.64
95 62.65
96 4.32
105 1.34
107 7.63
108 18.63
109 33.04
110 2.66
122 1.34
123 1.3
137 2.85
138 99.99
139 9.14

>  <PREDICTED SPECTRUM>  (1064) 
14 41
15 149
16 0
25 26
26 101
27 109
28 73
29 100
30 18
31 55
33 11
37 107
38 184
39 255
40 84
41 233
42 35
49 90
50 241
51 320
52 289
53 216
54 127
55 78
56 12
61 43
62 185
63 349
64 283
65 264
66 153
67 237
68 141
69 212
70 37
72 54
74 3
75 55
76 90
77 437
78 138
79 234
80 230
81 98
82 2
91 101
92 354
93 114
94 235
95 553
96 137
107 305
108 222
109 236
110 160
123 184
124 39
137 228
138 999
139 269
140 26

$$$$

     RDKit          2D

 10 10  0  0  0  0  0  0  0  0999 V2000
   -3.8969    2.5696    0.0000 C   0  0  0  0  0  0  0  0  0  0  0  0
   -2.5978    0.3196    0.0000 C   0  0  0  0  0  0  0  0  0  0  0  0
    2.5983    0.3196    0.0000 C   0  0  0  0  0  0  0  0  0  0  0  0
    2.5988    1.8204    0.0000 C   0  0  0  0  0  0  0  0  0  0  0  0
    1.2988   -0.4312    0.0000 C   0  0  0  0  0  0  0  0  0  0  0  0
    1.2998    2.5704    0.0000 C   0  0  0  0  0  0  0  0  0  0  0  0
   -0.0002    0.3188    0.0000 C   0  0  0  0  0  0  0  0  0  0  0  0
   -1.2988    2.5696    0.0000 C   0  0  0  0  0  0  0  0  0  0  0  0
    0.0002    1.8196    0.0000 C   0  0  0  0  0  0  0  0  0  0  0  0
   -2.5978    1.8196    0.0000 N   0  0  0  0  0  0  0  0  0  0  0  0
  4  3  2  0
  5  3  1  0
  6  4  1  0
  7  5  2  0
  9  6  2  0
  9  7  1  0
  9  8  1  0
 10  1  1  0
 10  2  1  0
 10  8  1  0
M  END
>  <NAME>  (1065) 
N,N-DIMETHYLBENZYLAMINE

>  <SYNONYMS>  (1065) 


>  <SPECTRUM TYPE>  (1065) 
MS1

>  <INSTRUMENT TYPE>  (1065) 
EI-B

>  <INSTRUMENT>  (1065) 
HITACHI M-80A

>  <ION MODE>  (1065) 
P

>  <INCHIKEY>  (1065) 
XXBDWLFCJWSEKW-UHFFFAOYSA-N

>  <FORMULA>  (1065) 
C9H13N

>  <EXACT MASS>  (1065) 
135.104799416

>  <MW>  (1065) 
135

>  <ID>  (1065) 
JP010484

>  <CONTRIBUTOR>  (1065) 
University of Tokyo Team, {Faculty of Engineering, University of Tokyo

>  <COMMENT>  (1065) 
SMILES=CN(C)Cc(c1)cccc1
InChI=InChI=1S/C9H13N/c1-10(2)8-9-6-4-3-5-7-9/h3-7H,8H2,1-2H3
computed SMILES=C=1C=CC(=CC1)CN(C)C
accession=JP010484
date=2016.01.19 (Created 2008.10.21, modified 2011.05.06)
author=TAJIMA S, GUNMA COLLEGE OF TECHNOLOGY
license=CC BY-NC-SA
exact mass=135.1048
ionization energy=70 eV
ion type=[M]+*
computed spectral entropy=2.6205846440752243
computed normalized entropy=0.7431414416597323
SPLASH=splash10-0a4l-9200000000-e842688dfbc478ea001b
submitter=submitter = University of Tokyo Team (Faculty of Engineering, University of Tokyo)
MoNA Rating=3.75

>  <NUM PEAKS>  (1065) 
34

>  <MASS SPECTRAL PEAKS>  (1065) 
15 4.47
27 1.85
29 1.33
30 2.78
38 1.52
39 8.38
40 1.38
41 3.78
42 22.65
43 8.09
44 9.58
50 2.89
51 6.81
52 1.76
57 3.66
58 99.99
59 3.84
62 1.65
63 5.49
64 1.61
65 14.16
66 1.16
67 1.01
77 4.01
78 1.58
89 3.73
90 1.66
91 49.12
92 8.65
118 3.21
132 1.58
134 29.27
135 49.2
136 5.31

>  <PREDICTED SPECTRUM>  (1065) 
14 13
15 120
25 1
26 49
27 139
28 117
29 139
30 155
38 26
39 219
40 65
41 147
42 516
43 138
44 459
45 296
46 95
50 104
51 186
52 88
53 15
54 66
56 119
57 96
58 903
59 236
61 14
62 63
63 201
64 58
65 373
66 108
75 53
76 15
77 239
78 172
79 105
89 139
90 125
91 999
92 298
93 67
104 55
105 61
106 75
120 238
121 34
132 41
134 533
135 568
136 203

$$$$

     RDKit          2D

  5  4  0  0  0  0  0  0  0  0999 V2000
   -3.8971    2.2500    0.0000 C   0  0  0  0  0  0  0  0  0  0  0  0
    1.2990    2.2500    0.0000 C   0  0  0  0  0  0  0  0  0  0  0  0
   -1.2990    2.2500    0.0000 C   0  0  0  0  0  0  0  0  0  0  0  0
   -2.5981    1.5000    0.0000 O   0  0  0  0  0  0  0  0  0  0  0  0
    0.0000    1.5000    0.0000 O   0  0  0  0  0  0  0  0  0  0  0  0
  4  1  1  0
  4  3  1  0
  5  2  1  0
  5  3  1  0
M  END
>  <NAME>  (1066) 
DIMETHOXYMETHANE

>  <SYNONYMS>  (1066) 


>  <SPECTRUM TYPE>  (1066) 
MS1

>  <INSTRUMENT TYPE>  (1066) 
EI-B

>  <INSTRUMENT>  (1066) 
HITACHI M-80A

>  <ION MODE>  (1066) 
P

>  <INCHIKEY>  (1066) 
NKDDWNXOKDWJAK-UHFFFAOYSA-N

>  <FORMULA>  (1066) 
C3H8O2

>  <EXACT MASS>  (1066) 
76.052429496

>  <MW>  (1066) 
76

>  <ID>  (1066) 
JP010482

>  <CONTRIBUTOR>  (1066) 
University of Tokyo Team, {Faculty of Engineering, University of Tokyo

>  <COMMENT>  (1066) 
SMILES=COCOC
InChI=InChI=1S/C3H8O2/c1-4-3-5-2/h3H2,1-2H3
computed SMILES=O(C)COC
accession=JP010482
date=2016.01.19 (Created 2008.10.21, modified 2011.05.06)
author=TAJIMA S, GUNMA COLLEGE OF TECHNOLOGY
license=CC BY-NC-SA
exact mass=76.05243
ionization energy=70 eV
ion type=[M]+*
computed spectral entropy=1.756650706512452
computed normalized entropy=0.7069282488588939
SPLASH=splash10-002b-9000000000-adc9b9442351cf5e904f
submitter=submitter = University of Tokyo Team (Faculty of Engineering, University of Tokyo)
MoNA Rating=3.75

>  <NUM PEAKS>  (1066) 
12

>  <MASS SPECTRAL PEAKS>  (1066) 
14 4.7
15 25.4
29 48.68
30 4.24
31 14.21
43 2.98
44 2.64
45 99.99
46 2.34
47 4.38
75 37.54
76 1.3

>  <PREDICTED SPECTRUM>  (1066) 
14 6
15 41
29 101
30 25
31 162
32 9
33 69
39 4
43 45
44 89
45 999
46 220
47 84
48 5
51 51
52 5
61 122
62 9
63 77
75 65
76 102
77 13

$$$$

     RDKit          2D

  5  4  0  0  0  0  0  0  0  0999 V2000
   -0.0000   -0.0000    0.0000 C   0  0  0  0  0  0  0  0  0  0  0  0
   -1.2990    3.7500    0.0000 C   0  0  0  0  0  0  0  0  0  0  0  0
   -2.5981    1.5000    0.0000 C   0  0  0  0  0  0  0  0  0  0  0  0
    0.0000    1.5000    0.0000 C   0  0  0  0  0  0  0  0  0  0  0  0
   -1.2990    2.2500    0.0000 N   0  0  0  0  0  0  0  0  0  0  0  0
  4  1  1  0
  5  2  1  0
  5  3  1  0
  5  4  1  0
M  END
>  <NAME>  (1067) 
N,N-DIMETHYLETHYLAMINE

>  <SYNONYMS>  (1067) 


>  <SPECTRUM TYPE>  (1067) 
MS1

>  <INSTRUMENT TYPE>  (1067) 
EI-B

>  <INSTRUMENT>  (1067) 
HITACHI M-80A

>  <ION MODE>  (1067) 
P

>  <INCHIKEY>  (1067) 
DAZXVJBJRMWXJP-UHFFFAOYSA-N

>  <FORMULA>  (1067) 
C4H11N

>  <EXACT MASS>  (1067) 
73.08914935199999

>  <MW>  (1067) 
73

>  <ID>  (1067) 
JP010481

>  <CONTRIBUTOR>  (1067) 
University of Tokyo Team, {Faculty of Engineering, University of Tokyo

>  <COMMENT>  (1067) 
SMILES=CCN(C)C
InChI=InChI=1S/C4H11N/c1-4-5(2)3/h4H2,1-3H3
computed SMILES=N(C)(C)CC
accession=JP010481
date=2016.01.19 (Created 2008.10.21, modified 2011.05.06)
author=TAJIMA S, GUNMA COLLEGE OF TECHNOLOGY
license=CC BY-NC-SA
exact mass=73.08915
ionization energy=70 eV
ion type=[M]+*
computed spectral entropy=2.482472282463127
computed normalized entropy=0.7811297149083647
SPLASH=splash10-0a4l-9000000000-7063f3d2343b2213443e
submitter=submitter = University of Tokyo Team (Faculty of Engineering, University of Tokyo)
MoNA Rating=3.75

>  <NUM PEAKS>  (1067) 
24

>  <MASS SPECTRAL PEAKS>  (1067) 
14 3
15 14.09
18 1.82
26 3.98
27 12.44
28 10.41
29 8.66
30 12.31
39 1.6
40 3.14
41 6.15
42 36.8
43 11.83
44 19.83
54 2.01
55 1.29
56 8.86
57 5.25
58 99.99
59 3.81
70 1.21
72 14.04
73 18.3
74 1.3

>  <PREDICTED SPECTRUM>  (1067) 
14 13
15 68
26 47
27 171
28 153
29 193
30 250
31 60
32 21
38 21
39 108
40 89
41 148
42 423
43 187
44 380
45 269
46 70
52 12
54 24
55 35
56 190
57 107
58 999
59 294
71 66
72 240
73 374
74 98

$$$$

     RDKit          2D

 10 10  0  0  0  0  0  0  0  0999 V2000
   -1.6328    3.1878    0.0000 C   0  0  0  0  0  0  0  0  0  0  0  0
    3.5681    0.1904    0.0000 C   0  0  0  0  0  0  0  0  0  0  0  0
   -1.6200   -1.3100    0.0000 C   0  0  0  0  0  0  0  0  0  0  0  0
   -0.3300   -2.0600    0.0000 C   0  0  0  0  0  0  0  0  0  0  0  0
   -1.6200    0.1900    0.0000 C   0  0  0  0  0  0  0  0  0  0  0  0
    0.9700   -1.3100    0.0000 C   0  0  0  0  0  0  0  0  0  0  0  0
   -0.3300    0.9400    0.0000 C   0  0  0  0  0  0  0  0  0  0  0  0
    0.9700    0.1900    0.0000 C   0  0  0  0  0  0  0  0  0  0  0  0
   -0.3325    2.4400    0.0000 O   0  0  0  0  0  0  0  0  0  0  0  0
    2.2689    0.9402    0.0000 O   0  0  0  0  0  0  0  0  0  0  0  0
  4  3  2  0
  5  3  1  0
  6  4  1  0
  7  5  2  0
  8  6  2  0
  8  7  1  0
  9  1  1  0
  9  7  1  0
 10  2  1  0
 10  8  1  0
M  END
>  <NAME>  (1068) 
ORTHO-DIMETHOXYBENZENE

>  <SYNONYMS>  (1068) 
1,2-DIMETHOXYBENENE

>  <SPECTRUM TYPE>  (1068) 
MS1

>  <INSTRUMENT TYPE>  (1068) 
EI-B

>  <INSTRUMENT>  (1068) 
HITACHI M-80A

>  <ION MODE>  (1068) 
P

>  <INCHIKEY>  (1068) 
ABDKAPXRBAPSQN-UHFFFAOYSA-N

>  <FORMULA>  (1068) 
C8H10O2

>  <EXACT MASS>  (1068) 
138.06807956

>  <MW>  (1068) 
138

>  <ID>  (1068) 
JP010480

>  <CONTRIBUTOR>  (1068) 
University of Tokyo Team, {Faculty of Engineering, University of Tokyo

>  <COMMENT>  (1068) 
SMILES=COc(c1)c(OC)ccc1
InChI=InChI=1S/C8H10O2/c1-9-7-5-3-4-6-8(7)10-2/h3-6H,1-2H3
computed SMILES=O(C=1C=CC=CC1OC)C
accession=JP010480
date=2016.01.19 (Created 2008.10.21, modified 2011.05.06)
author=TAJIMA S, GUNMA COLLEGE OF TECHNOLOGY
license=CC BY-NC-SA
exact mass=138.06808
ionization energy=70 eV
ion type=[M]+*
computed spectral entropy=3.247253766509957
computed normalized entropy=0.8343791639316982
SPLASH=splash10-0f96-9100000000-82821a5bc5bbc4df87be
submitter=submitter = University of Tokyo Team (Faculty of Engineering, University of Tokyo)
MoNA Rating=3.75

>  <NUM PEAKS>  (1068) 
49

>  <MASS SPECTRAL PEAKS>  (1068) 
26 7.49
27 7.22
29 9.95
30 1.55
31 2.71
37 4.4
38 12.54
39 36.48
40 2.95
41 28.24
49 2.36
50 28.01
51 56.78
52 50.5
53 11.67
54 2.76
55 3.52
61 3.16
62 9.23
63 28.75
64 12.17
65 57.16
66 4.96
67 10.04
73 1.05
74 5.26
75 3.57
76 4.01
77 68.19
78 12.37
79 30.8
80 12.77
81 1.35
89 6.43
90 4.1
91 97.2
92 99.99
93 10.36
95 55.9
96 3.78
105 8.87
106 1.28
107 11.93
108 1.47
121 2.42
123 18.99
124 1.69
138 47.19
139 4.62

>  <PREDICTED SPECTRUM>  (1068) 
14 49
15 199
16 24
18 11
25 29
26 133
27 221
28 63
29 159
30 24
31 111
32 1
36 3
37 98
38 188
39 320
40 96
41 238
42 57
45 18
47 36
49 70
50 275
51 446
52 350
53 268
54 158
56 28
61 56
62 163
63 299
64 253
65 377
66 190
67 204
68 69
69 117
74 34
75 60
76 109
77 517
78 244
79 264
80 313
81 145
82 40
91 155
92 324
93 272
94 201
95 662
96 141
105 117
106 56
107 212
108 304
109 290
110 118
120 29
121 84
122 161
123 686
124 181
137 57
138 999
139 287
140 55

$$$$

     RDKit          2D

 15 16  0  0  0  0  0  0  0  0999 V2000
    3.2481    2.1950    0.0000 C   0  0  0  0  0  0  0  0  0  0  0  0
   -7.1442    2.1950    0.0000 C   0  0  0  0  0  0  0  0  0  0  0  0
    3.2486    3.6958    0.0000 C   0  0  0  0  0  0  0  0  0  0  0  0
    1.9486    1.4442    0.0000 C   0  0  0  0  0  0  0  0  0  0  0  0
   -5.8447    1.4442    0.0000 C   0  0  0  0  0  0  0  0  0  0  0  0
   -7.1447    3.6958    0.0000 C   0  0  0  0  0  0  0  0  0  0  0  0
    1.9495    4.4458    0.0000 C   0  0  0  0  0  0  0  0  0  0  0  0
    0.6495    2.1942    0.0000 C   0  0  0  0  0  0  0  0  0  0  0  0
   -4.5457    2.1942    0.0000 C   0  0  0  0  0  0  0  0  0  0  0  0
   -5.8457    4.4458    0.0000 C   0  0  0  0  0  0  0  0  0  0  0  0
   -0.6490    4.4450    0.0000 C   0  0  0  0  0  0  0  0  0  0  0  0
   -3.2471    4.4450    0.0000 C   0  0  0  0  0  0  0  0  0  0  0  0
    0.6500    3.6950    0.0000 C   0  0  0  0  0  0  0  0  0  0  0  0
   -4.5462    3.6950    0.0000 C   0  0  0  0  0  0  0  0  0  0  0  0
   -1.9481    3.6950    0.0000 O   0  0  0  0  0  0  0  0  0  0  0  0
  3  1  2  0
  4  1  1  0
  5  2  2  0
  6  2  1  0
  7  3  1  0
  8  4  2  0
  9  5  1  0
 10  6  2  0
 13  7  2  0
 13  8  1  0
 13 11  1  0
 14  9  2  0
 14 10  1  0
 14 12  1  0
 15 11  1  0
 15 12  1  0
M  END
>  <NAME>  (1069) 
DIBENZYL ETHER

>  <SYNONYMS>  (1069) 


>  <SPECTRUM TYPE>  (1069) 
MS1

>  <INSTRUMENT TYPE>  (1069) 
EI-B

>  <INSTRUMENT>  (1069) 
HITACHI M-80A

>  <ION MODE>  (1069) 
P

>  <INCHIKEY>  (1069) 
MHDVGSVTJDSBDK-UHFFFAOYSA-N

>  <FORMULA>  (1069) 
C14H14O

>  <EXACT MASS>  (1069) 
198.104465068

>  <MW>  (1069) 
198

>  <ID>  (1069) 
JP010479

>  <CONTRIBUTOR>  (1069) 
University of Tokyo Team, {Faculty of Engineering, University of Tokyo

>  <COMMENT>  (1069) 
SMILES=c(c2)ccc(c2)COCc(c1)cccc1
InChI=InChI=1S/C14H14O/c1-3-7-13(8-4-1)11-15-12-14-9-5-2-6-10-14/h1-10H,11-12H2
computed SMILES=O(CC=1C=CC=CC1)CC=2C=CC=CC2
accession=JP010479
date=2016.01.19 (Created 2008.10.21, modified 2011.05.06)
author=TAJIMA S, GUNMA COLLEGE OF TECHNOLOGY
license=CC BY-NC-SA
exact mass=198.10447
ion type=[M]+*
ionization energy=70 eV
computed spectral entropy=2.8894726721308466
computed normalized entropy=0.8580988478646537
SPLASH=splash10-0f96-9000000000-7849b51aa36a013236eb
submitter=submitter = University of Tokyo Team (Faculty of Engineering, University of Tokyo)
MoNA Rating=3.75

>  <NUM PEAKS>  (1069) 
29

>  <MASS SPECTRAL PEAKS>  (1069) 
26 6.34
27 11.06
29 17.8
30 4.37
31 7.85
39 38.17
40 8.79
41 7.98
43 1.63
46 1.18
49 3.25
50 34.78
51 63.65
52 17.11
53 5.1
63 22.46
64 6.41
65 46.7
66 3.81
75 8.29
77 71.62
78 19.66
79 34.65
89 10.12
91 99.99
92 56.81
93 5.45
105 22.61
107 12.32

>  <PREDICTED SPECTRUM>  (1069) 
26 34
27 106
28 54
29 85
30 10
34 1
37 18
38 71
39 230
40 62
41 165
42 12
44 21
45 26
49 8
50 160
51 283
52 132
53 78
54 6
57 76
61 20
62 92
63 191
64 127
65 384
66 87
67 39
70 39
74 56
75 57
76 53
77 346
78 222
79 339
80 131
81 3
89 177
90 171
91 999
92 440
93 171
95 1
104 17
105 318
106 185
107 565
108 360
109 75
120 85
121 30
167 31
182 25
197 112
198 184
199 56

$$$$

     RDKit          2D

 10  9  0  0  0  0  0  0  0  0999 V2000
   -7.4695    3.9375    0.0000 C   0  0  0  0  0  0  0  0  0  0  0  0
    1.6238    3.1875    0.0000 C   0  0  0  0  0  0  0  0  0  0  0  0
   -6.1704    3.1875    0.0000 C   0  0  0  0  0  0  0  0  0  0  0  0
   -4.8714    3.9375    0.0000 C   0  0  0  0  0  0  0  0  0  0  0  0
   -0.9743    3.1875    0.0000 C   0  0  0  0  0  0  0  0  0  0  0  0
    0.3248    3.9375    0.0000 C   0  0  0  0  0  0  0  0  0  0  0  0
   -2.2733    3.9375    0.0000 C   0  0  0  0  0  0  0  0  0  0  0  0
    0.3248    5.4375    0.0000 O   0  0  0  0  0  0  0  0  0  0  0  0
   -2.2733    5.4375    0.0000 O   0  0  0  0  0  0  0  0  0  0  0  0
   -3.5724    3.1875    0.0000 O   0  0  0  0  0  0  0  0  0  0  0  0
  3  1  1  0
  4  3  1  0
  6  2  1  0
  6  5  1  0
  7  5  1  0
  8  6  2  0
  9  7  2  0
 10  4  1  0
 10  7  1  0
M  END
>  <NAME>  (1070) 
PROPYL ACETOACETATE

>  <SYNONYMS>  (1070) 
ACETOACETIC ACID PROPYL ESTER

>  <SPECTRUM TYPE>  (1070) 
MS1

>  <INSTRUMENT TYPE>  (1070) 
EI-B

>  <INSTRUMENT>  (1070) 
HITACHI M-80A

>  <ION MODE>  (1070) 
P

>  <INCHIKEY>  (1070) 
DHGFMVMDBNLMKT-UHFFFAOYSA-N

>  <FORMULA>  (1070) 
C7H12O3

>  <EXACT MASS>  (1070) 
144.07864424399997

>  <MW>  (1070) 
144

>  <ID>  (1070) 
JP010477

>  <CONTRIBUTOR>  (1070) 
University of Tokyo Team, {Faculty of Engineering, University of Tokyo

>  <COMMENT>  (1070) 
SMILES=CCCOC(=O)CC(C)=O
InChI=InChI=1S/C7H12O3/c1-3-4-10-7(9)5-6(2)8/h3-5H2,1-2H3
computed SMILES=O=C(OCCC)CC(=O)C
accession=JP010477
date=2016.01.19 (Created 2008.10.21, modified 2011.05.06)
author=TAJIMA S, GUNMA COLLEGE OF TECHNOLOGY
license=CC BY-NC-SA
exact mass=144.07864
ionization energy=70 eV
ion type=[M]+*
computed spectral entropy=2.4848193968900776
computed normalized entropy=0.7456983475361266
SPLASH=splash10-0006-9000000000-8f8352e2b9b063221027
submitter=submitter = University of Tokyo Team (Faculty of Engineering, University of Tokyo)
MoNA Rating=3.75

>  <NUM PEAKS>  (1070) 
28

>  <MASS SPECTRAL PEAKS>  (1070) 
26 6.36
27 29.48
28 4.31
29 14.87
30 1.49
31 12.88
37 1.47
38 2.48
39 12.3
40 2.25
41 24.32
43 99.99
44 2.98
45 1.14
55 1.39
57 1.2
58 3.05
59 1.68
60 8.45
61 5.85
69 6.84
73 1.2
84 5.83
85 14.81
87 2.05
102 4.92
103 6.61
144 1.05

>  <PREDICTED SPECTRUM>  (1070) 
14 67
15 142
16 21
25 21
26 100
27 303
28 147
29 207
30 35
31 120
33 3
37 2
38 53
39 257
40 120
41 362
42 459
43 999
44 176
45 207
50 12
51 6
53 51
54 47
56 136
57 112
58 119
59 54
60 276
61 130
69 292
74 119
84 312
85 471
86 168
87 198
101 85
102 198
103 96
144 101
145 12

$$$$

     RDKit          2D

 11 11  0  0  0  0  0  0  0  0999 V2000
    3.5726    0.8821    0.0000 C   0  0  0  0  0  0  0  0  0  0  0  0
    3.5731    2.3829    0.0000 C   0  0  0  0  0  0  0  0  0  0  0  0
    2.2731    0.1313    0.0000 C   0  0  0  0  0  0  0  0  0  0  0  0
    2.2740    3.1329    0.0000 C   0  0  0  0  0  0  0  0  0  0  0  0
    0.9740    0.8813    0.0000 C   0  0  0  0  0  0  0  0  0  0  0  0
   -2.9226    3.1321    0.0000 C   0  0  0  0  0  0  0  0  0  0  0  0
   -4.2216    2.3821    0.0000 C   0  0  0  0  0  0  0  0  0  0  0  0
   -0.3245    3.1321    0.0000 C   0  0  0  0  0  0  0  0  0  0  0  0
    0.9745    2.3821    0.0000 C   0  0  0  0  0  0  0  0  0  0  0  0
   -1.6236    2.3821    0.0000 N   0  0  0  0  0  0  0  0  0  0  0  0
   -5.5207    3.1321    0.0000 O   0  0  0  0  0  0  0  0  0  0  0  0
  2  1  2  0
  3  1  1  0
  4  2  1  0
  5  3  2  0
  7  6  1  0
  9  4  2  0
  9  5  1  0
  9  8  1  0
 10  6  1  0
 10  8  1  0
 11  7  1  0
M  END
>  <NAME>  (1071) 
N-BENZYLETHANOLAMINE

>  <SYNONYMS>  (1071) 


>  <SPECTRUM TYPE>  (1071) 
MS1

>  <INSTRUMENT TYPE>  (1071) 
EI-B

>  <INSTRUMENT>  (1071) 
HITACHI M-80A

>  <ION MODE>  (1071) 
P

>  <INCHIKEY>  (1071) 
XNIOWJUQPMKCIJ-UHFFFAOYSA-N

>  <FORMULA>  (1071) 
C9H13NO

>  <EXACT MASS>  (1071) 
151.099714036

>  <MW>  (1071) 
151

>  <ID>  (1071) 
JP010476

>  <CONTRIBUTOR>  (1071) 
University of Tokyo Team, {Faculty of Engineering, University of Tokyo

>  <COMMENT>  (1071) 
SMILES=OCCNCc(c1)cccc1
InChI=InChI=1S/C9H13NO/c11-7-6-10-8-9-4-2-1-3-5-9/h1-5,10-11H,6-8H2
computed SMILES=OCCNCC=1C=CC=CC1
accession=JP010476
date=2016.01.19 (Created 2008.10.21, modified 2011.05.06)
author=TAJIMA S, GUNMA COLLEGE OF TECHNOLOGY
license=CC BY-NC-SA
exact mass=151.09971
ionization energy=70 eV
ion type=[M]+*
computed spectral entropy=2.9344892429040828
computed normalized entropy=0.8467146156559457
SPLASH=splash10-002f-9000000000-87fa8cd6f4c06539c036
submitter=submitter = University of Tokyo Team (Faculty of Engineering, University of Tokyo)
MoNA Rating=3.75

>  <NUM PEAKS>  (1071) 
32

>  <MASS SPECTRAL PEAKS>  (1071) 
25 8.41
26 23.16
27 42.73
29 52.67
30 30.14
31 44.64
33 21.72
36 1.11
37 7.06
38 12.04
39 20.44
40 31.14
41 12.32
42 27.95
43 99.99
45 14.89
51 14.28
53 2.51
54 2.58
55 7.02
58 14.43
62 2.4
63 6.29
65 14.1
66 1.78
70 1.13
75 2.32
79 2.53
89 4.58
91 36.52
105 1.55
118 1.82

>  <PREDICTED SPECTRUM>  (1071) 
14 16
15 41
16 4
17 12
18 32
19 26
26 35
27 108
28 134
29 91
30 198
31 171
32 2
33 8
37 34
38 76
39 239
40 83
41 72
42 171
43 88
44 100
45 140
46 69
49 18
50 134
51 233
52 128
53 79
54 5
60 48
62 89
63 225
64 68
65 367
66 69
74 154
75 90
76 65
77 196
78 198
79 196
80 29
89 167
90 75
91 999
92 319
93 86
103 79
104 61
106 346
118 36
120 504
121 191
133 31
150 36
151 93
152 26

$$$$

     RDKit          2D

  8  8  0  0  0  0  0  0  0  0999 V2000
   -2.5981   -0.4300    0.0000 C   0  0  0  0  0  0  0  0  0  0  0  0
   -1.2986   -1.1808    0.0000 C   0  0  0  0  0  0  0  0  0  0  0  0
   -2.5986    1.0708    0.0000 C   0  0  0  0  0  0  0  0  0  0  0  0
    0.0005   -0.4308    0.0000 C   0  0  0  0  0  0  0  0  0  0  0  0
   -1.2995    1.8208    0.0000 C   0  0  0  0  0  0  0  0  0  0  0  0
    1.2990    1.8200    0.0000 C   0  0  0  0  0  0  0  0  0  0  0  0
    0.0000    1.0700    0.0000 C   0  0  0  0  0  0  0  0  0  0  0  0
    2.5981    2.5700    0.0000 N   0  0  0  0  0  0  0  0  0  0  0  0
  2  1  2  0
  3  1  1  0
  4  2  1  0
  5  3  2  0
  7  4  2  0
  7  5  1  0
  7  6  1  0
  8  6  3  0
M  END
>  <NAME>  (1072) 
BENZONITRILE

>  <SYNONYMS>  (1072) 
CYANOBENZENE

>  <SPECTRUM TYPE>  (1072) 
MS1

>  <INSTRUMENT TYPE>  (1072) 
EI-B

>  <INSTRUMENT>  (1072) 
HITACHI M-80A

>  <ION MODE>  (1072) 
P

>  <INCHIKEY>  (1072) 
JFDZBHWFFUWGJE-UHFFFAOYSA-N

>  <FORMULA>  (1072) 
C7H5N

>  <EXACT MASS>  (1072) 
103.04219916

>  <MW>  (1072) 
103

>  <ID>  (1072) 
JP010475

>  <CONTRIBUTOR>  (1072) 
University of Tokyo Team, {Faculty of Engineering, University of Tokyo

>  <COMMENT>  (1072) 
SMILES=N#Cc(c1)cccc1
InChI=InChI=1S/C7H5N/c8-6-7-4-2-1-3-5-7/h1-5H
computed SMILES=N#CC=1C=CC=CC1
accession=JP010475
date=2016.01.19 (Created 2008.10.21, modified 2011.05.06)
author=TAJIMA S, GUNMA COLLEGE OF TECHNOLOGY
license=CC BY-NC-SA
exact mass=103.0422
ionization energy=70 eV
ion type=[M]+*
computed spectral entropy=2.810683365967966
computed normalized entropy=0.8038545081221359
SPLASH=splash10-0udi-9300000000-1a24ace18d57f2a6713b
submitter=submitter = University of Tokyo Team (Faculty of Engineering, University of Tokyo)
MoNA Rating=3.75

>  <NUM PEAKS>  (1072) 
33

>  <MASS SPECTRAL PEAKS>  (1072) 
25 1.93
26 13.16
27 9.02
28 2.79
36 2.14
37 15.32
38 14.38
39 17.13
40 2.01
42 1.32
43 13.32
48 1.53
49 8.85
50 41.97
51 27.23
52 12.61
53 1.43
58 2.01
60 1.17
61 4.31
62 4.78
63 8.97
64 4.59
73 3.52
74 10.41
75 18.8
76 44.07
77 8.39
88 1.44
99 1.26
102 1.77
103 99.99
104 8.73

>  <PREDICTED SPECTRUM>  (1072) 
25 41
26 100
27 42
28 34
31 20
36 46
37 161
38 196
39 188
40 58
41 102
42 20
43 31
44 13
49 171
50 443
51 465
52 266
53 55
56 37
57 74
61 121
62 168
63 254
64 176
65 0
68 6
69 165
70 21
73 37
74 275
75 363
76 553
77 408
78 125
84 41
86 20
87 86
88 27
98 16
99 33
100 49
101 260
102 546
103 999
104 310

$$$$

     RDKit          2D

  8  7  0  0  0  0  0  0  0  0999 V2000
   -1.2990    3.7500    0.0000 C   0  0  0  0  0  0  0  0  0  0  0  0
    0.0000    4.5000    0.0000 C   0  0  0  0  0  0  0  0  0  0  0  0
   -1.2990    2.2500    0.0000 C   0  0  0  0  0  0  0  0  0  0  0  0
    1.2990    3.7500    0.0000 C   0  0  0  0  0  0  0  0  0  0  0  0
   -2.5981    1.5000    0.0000 O   0  0  0  0  0  0  0  0  0  0  0  0
   -0.0000    1.5000    0.0000 O   0  0  0  0  0  0  0  0  0  0  0  0
    1.2990    2.2500    0.0000 O   0  0  0  0  0  0  0  0  0  0  0  0
    2.5981    4.5000    0.0000 O   0  0  0  0  0  0  0  0  0  0  0  0
  1  2  2  0
  3  1  1  0
  4  2  1  0
  5  3  2  0
  6  3  1  0
  7  4  2  0
  8  4  1  0
M  END
>  <NAME>  (1073) 
MALEIC ACID

>  <SYNONYMS>  (1073) 
CIS-BUTENEDIOIC ACID

>  <SPECTRUM TYPE>  (1073) 
MS1

>  <INSTRUMENT TYPE>  (1073) 
EI-B

>  <INSTRUMENT>  (1073) 
HITACHI M-80A

>  <ION MODE>  (1073) 
P

>  <INCHIKEY>  (1073) 
VZCYOOQTPOCHFL-UPHRSURJSA-N

>  <FORMULA>  (1073) 
C4H4O4

>  <EXACT MASS>  (1073) 
116.010958608

>  <MW>  (1073) 
116

>  <ID>  (1073) 
JP010474

>  <CONTRIBUTOR>  (1073) 
University of Tokyo Team, {Faculty of Engineering, University of Tokyo

>  <COMMENT>  (1073) 
SMILES=OC(=O)C=CC(O)=O
InChI=InChI=1S/C4H4O4/c5-3(6)1-2-4(7)8/h1-2H,(H,5,6)(H,7,8)/b2-1-
computed SMILES=O=C(O)C=CC(=O)O
accession=JP010474
date=2016.01.19 (Created 2008.10.21, modified 2011.05.06)
author=TAJIMA S, GUNMA COLLEGE OF TECHNOLOGY
license=CC BY-NC-SA
exact mass=116.01096
ionization energy=70 eV
ion type=[M]+*
computed spectral entropy=2.7517518530494853
computed normalized entropy=0.7870001150220208
SPLASH=splash10-004i-9000000000-617284552377852c7c46
submitter=submitter = University of Tokyo Team (Faculty of Engineering, University of Tokyo)
MoNA Rating=3.75

>  <NUM PEAKS>  (1073) 
33

>  <MASS SPECTRAL PEAKS>  (1073) 
24 3.37
25 18.76
26 99.99
27 65.15
28 17.2
29 20.49
36 1.75
37 3.34
40 1.78
41 5.83
42 8.53
43 11.11
44 22.48
45 87.06
46 17.51
52 3.63
53 31.07
54 38.87
55 36.05
56 1.34
69 2.67
70 2.33
71 15.62
72 92.9
73 3.36
81 1.28
82 1.32
88 1.12
98 6.09
99 17.89
100 1.04
116 1.42
117 1.78

>  <PREDICTED SPECTRUM>  (1073) 
14 50
15 13
16 50
17 70
18 107
19 15
25 151
26 382
27 450
28 253
29 278
31 63
32 38
33 20
34 35
35 42
36 124
37 223
38 375
39 38
40 291
41 336
42 444
43 471
44 674
45 999
46 318
47 99
48 4
49 62
51 106
52 332
53 472
54 872
55 606
56 229
57 194
58 132
59 152
60 123
68 212
69 95
70 321
71 628
72 646
73 193
74 147
81 43
82 9
86 28
87 7
88 210
98 428
99 768
100 116
116 267
117 69

$$$$

     RDKit          2D

  8  7  0  0  0  0  0  0  0  0999 V2000
   -2.5981    3.7500    0.0000 C   0  0  0  0  0  0  0  0  0  0  0  0
   -1.2990    4.5000    0.0000 C   0  0  0  0  0  0  0  0  0  0  0  0
   -3.8971    4.5000    0.0000 C   0  0  0  0  0  0  0  0  0  0  0  0
    0.0000    3.7500    0.0000 C   0  0  0  0  0  0  0  0  0  0  0  0
   -5.1962    3.7500    0.0000 C   0  0  0  0  0  0  0  0  0  0  0  0
    1.2990    4.5000    0.0000 C   0  0  0  0  0  0  0  0  0  0  0  0
   -6.4952    4.5000    0.0000 O   0  0  0  0  0  0  0  0  0  0  0  0
    2.5981    3.7500    0.0000 O   0  0  0  0  0  0  0  0  0  0  0  0
  2  1  1  0
  3  1  1  0
  4  2  1  0
  5  3  1  0
  6  4  1  0
  7  5  1  0
  8  6  1  0
M  END
>  <NAME>  (1074) 
1,6-HEXANEDIOL

>  <SYNONYMS>  (1074) 


>  <SPECTRUM TYPE>  (1074) 
MS1

>  <INSTRUMENT TYPE>  (1074) 
EI-B

>  <INSTRUMENT>  (1074) 
HITACHI M-80A

>  <ION MODE>  (1074) 
P

>  <INCHIKEY>  (1074) 
XXMIOPMDWAUFGU-UHFFFAOYSA-N

>  <FORMULA>  (1074) 
C6H14O2

>  <EXACT MASS>  (1074) 
118.099379688

>  <MW>  (1074) 
118

>  <ID>  (1074) 
JP010473

>  <CONTRIBUTOR>  (1074) 
University of Tokyo Team, {Faculty of Engineering, University of Tokyo

>  <COMMENT>  (1074) 
SMILES=OCCCCCCO
InChI=InChI=1S/C6H14O2/c7-5-3-1-2-4-6-8/h7-8H,1-6H2
computed SMILES=OCCCCCCO
accession=JP010473
date=2016.01.19 (Created 2008.10.21, modified 2011.05.06)
author=TAJIMA S, GUNMA COLLEGE OF TECHNOLOGY
license=CC BY-NC-SA
exact mass=118.09938
ionization energy=70 eV
ion type=[M]+*
computed spectral entropy=3.0638115856211616
computed normalized entropy=0.8362931708431635
SPLASH=splash10-000x-9000000000-2e6663efe3969a9014d8
submitter=submitter = University of Tokyo Team (Faculty of Engineering, University of Tokyo)
MoNA Rating=3.75

>  <NUM PEAKS>  (1074) 
39

>  <MASS SPECTRAL PEAKS>  (1074) 
15 4.05
19 3.2
26 2.73
27 29.9
28 3.88
29 38.99
30 2.74
31 99.99
38 1.35
39 22.08
40 4.62
41 78.42
42 72.02
43 31.8
44 18.91
45 11
49 5.86
51 1.34
53 6.01
54 31.1
55 45.65
56 13.5
57 39.19
58 4.2
59 1.47
62 1
67 53.08
68 8.32
69 17.68
70 26.27
71 10.79
72 7.04
81 7.83
82 19.28
83 15.82
84 1.15
88 2.15
101 1.77
119 1.32

>  <PREDICTED SPECTRUM>  (1074) 
15 12
18 10
19 25
25 4
26 112
27 399
28 202
29 442
30 166
31 492
32 73
33 13
37 27
38 68
39 514
40 219
41 959
42 462
43 524
44 308
45 312
46 55
47 62
49 13
50 20
51 121
52 75
53 359
54 659
55 999
56 555
57 499
58 125
59 180
60 74
61 48
62 8
63 81
65 69
66 77
67 959
68 860
69 558
70 417
71 329
72 165
73 121
74 55
75 80
76 14
77 120
79 80
80 27
81 799
82 619
83 203
85 72
95 28
99 0
100 73
101 50

$$$$

     RDKit          2D

 18 20  0  0  0  0  0  0  0  0999 V2000
    2.2728    1.6334    0.0000 C   0  0  0  0  0  0  0  0  0  0  0  0
   -2.9319   -1.3652    0.0000 C   0  0  0  0  0  0  0  0  0  0  0  0
    2.2733    3.1343    0.0000 C   0  0  0  0  0  0  0  0  0  0  0  0
    0.9733    0.8826    0.0000 C   0  0  0  0  0  0  0  0  0  0  0  0
   -1.6308   -0.6172    0.0000 C   0  0  0  0  0  0  0  0  0  0  0  0
   -4.2308   -0.6133    0.0000 C   0  0  0  0  0  0  0  0  0  0  0  0
   -2.9241    6.1278    0.0000 C   0  0  0  0  0  0  0  0  0  0  0  0
   -4.2199    5.3878    0.0000 C   0  0  0  0  0  0  0  0  0  0  0  0
    0.9742    3.8843    0.0000 C   0  0  0  0  0  0  0  0  0  0  0  0
   -0.3258    1.6326    0.0000 C   0  0  0  0  0  0  0  0  0  0  0  0
   -1.6285    0.8828    0.0000 C   0  0  0  0  0  0  0  0  0  0  0  0
   -4.2285    0.8867    0.0000 C   0  0  0  0  0  0  0  0  0  0  0  0
   -1.6264    5.3756    0.0000 C   0  0  0  0  0  0  0  0  0  0  0  0
   -4.2229    3.8869    0.0000 C   0  0  0  0  0  0  0  0  0  0  0  0
   -0.3253    3.1334    0.0000 C   0  0  0  0  0  0  0  0  0  0  0  0
   -2.9274    1.6348    0.0000 C   0  0  0  0  0  0  0  0  0  0  0  0
   -1.6243    3.8834    0.0000 C   0  0  0  0  0  0  0  0  0  0  0  0
   -2.9251    3.1348    0.0000 C   0  0  0  0  0  0  0  0  0  0  0  0
  3  1  2  0
  4  1  1  0
  5  2  2  0
  6  2  1  0
  8  7  2  0
  9  3  1  0
 10  4  2  0
 11  5  1  0
 12  6  2  0
 13  7  1  0
 14  8  1  0
 15  9  2  0
 15 10  1  0
 16 11  2  0
 16 12  1  0
 17 13  2  0
 17 15  1  0
 18 14  2  0
 18 16  1  0
 18 17  1  0
M  END
>  <NAME>  (1075) 
1,2-DIPHENYLBENZENE

>  <SYNONYMS>  (1075) 


>  <SPECTRUM TYPE>  (1075) 
MS1

>  <INSTRUMENT TYPE>  (1075) 
EI-B

>  <INSTRUMENT>  (1075) 
HITACHI M-80A

>  <ION MODE>  (1075) 
P

>  <INCHIKEY>  (1075) 
OIAQMFOKAXHPNH-UHFFFAOYSA-N

>  <FORMULA>  (1075) 
C18H14

>  <EXACT MASS>  (1075) 
230.109550448

>  <MW>  (1075) 
230

>  <ID>  (1075) 
JP010472

>  <CONTRIBUTOR>  (1075) 
University of Tokyo Team, {Faculty of Engineering, University of Tokyo

>  <COMMENT>  (1075) 
SMILES=c(c3)ccc(c3)c(c2)c(ccc2)c(c1)cccc1
InChI=InChI=1S/C18H14/c1-3-9-15(10-4-1)17-13-7-8-14-18(17)16-11-5-2-6-12-16/h1-14H
computed SMILES=C=1C=CC(=CC1)C=2C=CC=CC2C=3C=CC=CC3
accession=JP010472
date=2016.01.19 (Created 2008.10.21, modified 2011.05.06)
author=TAJIMA S, GUNMA COLLEGE OF TECHNOLOGY
license=CC BY-NC-SA
exact mass=230.10955
ionization energy=70 eV
ion type=[M]+*
computed spectral entropy=3.1047028112930213
computed normalized entropy=0.7783191847977212
SPLASH=splash10-003r-1190000000-f4753780c81afbdc349d
submitter=submitter = University of Tokyo Team (Faculty of Engineering, University of Tokyo)
MoNA Rating=3.75

>  <NUM PEAKS>  (1075) 
54

>  <MASS SPECTRAL PEAKS>  (1075) 
39 9.01
51 1.97
62 2.32
63 8.66
75 3.11
76 2.75
77 3.16
86 2.35
87 4.18
88 3.54
89 2.93
95 2.41
98 1.65
99 1.96
100 3.8
101 9.44
102 2.83
108 3.03
112 1.08
113 4.8
114 5.12
115 3.36
150 1.34
151 2.09
152 3.11
163 2.38
164 1.1
165 5.51
174 1.07
175 1.19
176 3.42
177 1.03
178 2.27
187 2.03
188 1.27
189 4.22
200 4.86
201 4.22
202 15.28
203 5.68
204 1.22
213 2.59
214 1.01
215 26.94
216 5.05
224 1.96
225 2.47
226 14.26
227 10.59
228 28.35
229 51.95
230 99.99
231 18.97
232 1.8

>  <PREDICTED SPECTRUM>  (1075) 
25 0
26 20
27 20
36 30
37 8
38 29
39 132
40 15
44 39
49 7
50 110
51 193
52 86
54 18
56 11
57 14
62 50
63 126
65 12
68 15
69 9
74 66
75 102
76 134
77 161
78 91
87 72
88 94
89 134
90 14
91 42
99 57
100 88
101 162
102 157
107 14
108 92
111 34
112 26
113 166
114 62
115 258
125 99
126 168
127 147
128 79
137 61
138 99
139 215
140 0
149 110
150 151
151 257
152 402
153 337
154 130
155 94
163 37
165 79
175 6
176 58
187 35
188 0
189 88
200 41
201 93
202 199
203 61
204 19
213 138
215 375
216 207
224 157
225 57
226 447
227 352
228 633
229 887
230 999
231 462
232 99

$$$$

     RDKit          2D

 11 11  0  0  0  0  0  0  0  0999 V2000
    3.0904    1.9652    0.0000 C   0  0  0  0  0  0  0  0  0  0  0  0
    3.0859    0.4731    0.0000 C   0  0  0  0  0  0  0  0  0  0  0  0
    1.7909    2.7161    0.0000 C   0  0  0  0  0  0  0  0  0  0  0  0
    1.7868   -0.2769    0.0000 C   0  0  0  0  0  0  0  0  0  0  0  0
    0.4918    1.9661    0.0000 C   0  0  0  0  0  0  0  0  0  0  0  0
    0.4923    0.4652    0.0000 C   0  0  0  0  0  0  0  0  0  0  0  0
   -0.8073    2.7159    0.0000 N   0  0  0  0  0  0  0  0  0  0  0  0
   -1.5577    1.0108    0.0000 O   0  0  0  0  0  0  0  0  0  0  0  0
   -2.1033   -1.0391    0.0000 O   0  0  0  0  0  0  0  0  0  0  0  0
   -0.0533   -1.5847    0.0000 O   0  0  0  0  0  0  0  0  0  0  0  0
   -0.8055   -0.2869    0.0000 S   0  0  0  0  0  0  0  0  0  0  0  0
  2  1  2  0
  3  1  1  0
  4  2  1  0
  5  3  2  0
  6  4  2  0
  6  5  1  0
  7  5  1  0
 11  6  1  0
 11  8  1  0
 11  9  2  0
 11 10  2  0
M  END
>  <NAME>  (1076) 
2-ANILINESULFONIC ACID

>  <SYNONYMS>  (1076) 


>  <SPECTRUM TYPE>  (1076) 
MS1

>  <INSTRUMENT TYPE>  (1076) 
EI-B

>  <INSTRUMENT>  (1076) 
HITACHI M-80A

>  <ION MODE>  (1076) 
P

>  <INCHIKEY>  (1076) 
ZMCHBSMFKQYNKA-UHFFFAOYSA-N

>  <FORMULA>  (1076) 
C6H7NO3S

>  <EXACT MASS>  (1076) 
173.01466408399997

>  <MW>  (1076) 
173

>  <ID>  (1076) 
JP010471

>  <CONTRIBUTOR>  (1076) 
University of Tokyo Team, {Faculty of Engineering, University of Tokyo

>  <COMMENT>  (1076) 
SMILES=Nc(c1)c(ccc1)S(O)(=O)=O
InChI=InChI=1S/C6H7NO3S/c7-5-3-1-2-4-6(5)11(8,9)10/h1-4H,7H2,(H,8,9,10)
computed SMILES=O=S(=O)(O)C=1C=CC=CC1N
accession=JP010471
date=2016.01.19 (Created 2008.10.21, modified 2011.05.06)
author=TAJIMA S, GUNMA COLLEGE OF TECHNOLOGY
license=CC BY-NC-SA
exact mass=173.01466
ionization energy=70 eV
ion type=[M]+*
computed spectral entropy=3.3809779746927937
computed normalized entropy=0.8192071445368877
SPLASH=splash10-00kf-9100000000-b4789c287093bcb14173
submitter=submitter = University of Tokyo Team (Faculty of Engineering, University of Tokyo)
MoNA Rating=3.75

>  <NUM PEAKS>  (1076) 
62

>  <MASS SPECTRAL PEAKS>  (1076) 
26 4.91
27 8.78
30 2.1
37 8.36
38 22.77
39 52.52
40 9.9
41 19.03
42 4.99
44 2.2
45 3.42
46 1.89
47 2.64
48 39.32
49 3.11
50 11.48
51 11.65
52 33.42
53 14.4
54 8.7
55 1.16
61 5.37
62 12.3
63 31.95
64 69.58
65 99.99
66 31.62
67 4.16
69 2.87
70 1.26
73 1.16
74 3.82
75 3.11
76 3.23
77 1.56
78 4.38
79 4.25
80 37.37
81 10.76
82 1.98
88 1.05
89 1.48
90 3.7
91 94.78
92 35.51
93 58.09
94 4.92
95 1.43
96 1.13
106 4.89
108 22.15
109 4.67
122 1.25
138 7.31
139 1.22
140 1.64
155 32.35
156 5.21
157 2.18
173 69.76
174 6.3
175 3.91

>  <PREDICTED SPECTRUM>  (1076) 
16 28
17 16
18 1
25 10
26 58
27 151
28 108
29 117
32 42
33 5
34 27
36 43
37 104
38 206
39 450
40 110
41 248
42 91
43 32
44 78
45 95
46 98
47 36
48 246
49 50
50 217
51 241
52 315
53 232
54 126
55 87
56 58
57 58
58 5
60 14
61 27
62 172
63 398
64 522
65 847
66 364
67 75
74 97
75 64
76 117
77 62
78 35
80 356
81 178
82 20
83 71
90 126
91 424
92 972
93 739
94 332
95 50
108 497
109 346
110 181
139 204
140 208
156 418
157 265
158 79
173 999
174 335
175 238
176 61

$$$$

     RDKit          2D

 15 15  0  0  0  0  0  0  0  0999 V2000
    1.3000   -0.0002    0.0000 C   0  0  0  0  0  0  0  0  0  0  0  0
   -1.3000   -0.0002    0.0000 C   0  0  0  0  0  0  0  0  0  0  0  0
    0.0000    2.2498    0.0000 C   0  0  0  0  0  0  0  0  0  0  0  0
    0.0000   -0.7502    0.0000 C   0  0  0  0  0  0  0  0  0  0  0  0
    1.3000    1.4998    0.0000 C   0  0  0  0  0  0  0  0  0  0  0  0
   -1.3000    1.4998    0.0000 C   0  0  0  0  0  0  0  0  0  0  0  0
   -0.0000   -2.2502    0.0000 C   0  0  0  0  0  0  0  0  0  0  0  0
    1.2990   -3.0002    0.0000 Cl  0  0  0  0  0  0  0  0  0  0  0  0
    2.5989    2.2500    0.0000 N   0  0  0  0  0  0  0  0  0  0  0  0
   -2.5989    2.2500    0.0000 N   0  0  0  0  0  0  0  0  0  0  0  0
   -1.2990   -3.0002    0.0000 O   0  0  0  0  0  0  0  0  0  0  0  0
    2.5987    3.7500    0.0000 O   0  0  0  0  0  0  0  0  0  0  0  0
    3.8981    1.5002    0.0000 O   0  0  0  0  0  0  0  0  0  0  0  0
   -3.8981    1.5002    0.0000 O   0  0  0  0  0  0  0  0  0  0  0  0
   -2.5987    3.7500    0.0000 O   0  0  0  0  0  0  0  0  0  0  0  0
  4  1  2  0
  4  2  1  0
  5  1  1  0
  5  3  2  0
  6  2  2  0
  6  3  1  0
  7  4  1  0
  8  7  1  0
  9  5  1  0
 10  6  1  0
 11  7  2  0
 12  9  1  0
 13  9  2  0
 14 10  1  0
 15 10  2  0
M  CHG  4   9   1  10   1  12  -1  14  -1
M  END
>  <NAME>  (1077) 
3,5-DINITROBENZOYL CHLORIDE

>  <SYNONYMS>  (1077) 


>  <SPECTRUM TYPE>  (1077) 
MS1

>  <INSTRUMENT TYPE>  (1077) 
EI-B

>  <INSTRUMENT>  (1077) 
HITACHI M-80A

>  <ION MODE>  (1077) 
P

>  <INCHIKEY>  (1077) 
NNOHXABAQAGKRZ-UHFFFAOYSA-N

>  <FORMULA>  (1077) 
C7H3ClN2O5

>  <EXACT MASS>  (1077) 
229.97304887599998

>  <MW>  (1077) 
230

>  <ID>  (1077) 
JP010470

>  <CONTRIBUTOR>  (1077) 
University of Tokyo Team, {Faculty of Engineering, University of Tokyo

>  <COMMENT>  (1077) 
SMILES=[O-1][N+1](=O)c(c1)cc(cc([N+1]([O-1])=O)1)C(=O)Cl
InChI=InChI=1S/C7H3ClN2O5/c8-7(11)4-1-5(9(12)13)3-6(2-4)10(14)15/h1-3H
computed SMILES=O=C(Cl)C=1C=C(C=C(C1)N(=O)=O)N(=O)=O
accession=JP010470
date=2016.01.19 (Created 2008.10.21, modified 2011.05.06)
author=TAJIMA S, GUNMA COLLEGE OF TECHNOLOGY
license=CC BY-NC-SA
exact mass=229.97305
ionization energy=70 eV
ion type=[M]+*
computed spectral entropy=2.465748553187668
computed normalized entropy=0.7114646419525971
SPLASH=splash10-002b-9700000000-0ce894eb3a3a064eb971
submitter=submitter = University of Tokyo Team (Faculty of Engineering, University of Tokyo)
MoNA Rating=3.75

>  <NUM PEAKS>  (1077) 
32

>  <MASS SPECTRAL PEAKS>  (1077) 
30 22.58
37 3.71
38 4.13
46 6.88
49 1.46
50 3.4
53 2.29
61 3.53
62 5.63
63 12.02
73 6.17
74 38.82
75 84.32
76 6.12
87 1.08
91 3.25
101 2.09
103 12.29
104 1.11
110 1.99
119 2.82
120 2.7
137 3.78
138 1.1
139 1.27
148 1.49
149 22.44
150 1.86
179 1.46
195 99.99
196 8.68
197 1.4

>  <PREDICTED SPECTRUM>  (1077) 
25 15
26 18
27 11
28 10
29 7
30 50
35 65
36 64
37 110
38 159
39 81
40 57
42 77
43 50
44 83
45 63
46 192
47 1
49 67
50 99
52 39
53 100
54 23
55 56
59 20
61 207
62 256
63 417
64 88
65 23
66 11
68 25
69 124
70 154
73 76
74 457
75 774
76 235
77 15
79 110
80 3
81 41
82 27
83 24
84 79
86 148
87 93
90 68
91 173
92 120
93 47
96 9
97 149
98 167
100 99
103 370
104 146
109 17
117 216
118 258
119 241
120 139
121 15
127 26
131 31
148 48
149 773
150 75
151 26
167 224
184 35
186 42
195 999
196 345
197 195
230 141
231 2
232 69

$$$$

     RDKit          2D

  9  8  0  0  0  0  0  0  0  0999 V2000
    0.9926    2.4721    0.0000 C   0  0  0  0  0  0  0  0  0  0  0  0
   -4.2035    2.4721    0.0000 C   0  0  0  0  0  0  0  0  0  0  0  0
   -4.0469    1.5836    0.0000 C   0  0  0  0  0  0  0  0  0  0  0  0
    0.8359    1.5836    0.0000 C   0  0  0  0  0  0  0  0  0  0  0  0
   -1.6055    2.4721    0.0000 C   0  0  0  0  0  0  0  0  0  0  0  0
   -0.3064    3.2221    0.0000 O   0  0  0  0  0  0  0  0  0  0  0  0
   -2.9045    3.2221    0.0000 O   0  0  0  0  0  0  0  0  0  0  0  0
   -2.5697    1.3231    0.0000 O   0  0  0  0  0  0  0  0  0  0  0  0
   -0.6413    1.3231    0.0000 O   0  0  0  0  0  0  0  0  0  0  0  0
  6  1  1  0
  6  5  1  0
  7  2  1  0
  7  5  1  0
  8  3  1  0
  8  5  1  0
  9  4  1  0
  9  5  1  0
M  END
>  <NAME>  (1078) 
TETRAMETHOXYMETHANE

>  <SYNONYMS>  (1078) 


>  <SPECTRUM TYPE>  (1078) 
MS1

>  <INSTRUMENT TYPE>  (1078) 
EI-B

>  <INSTRUMENT>  (1078) 
HITACHI M-80A

>  <ION MODE>  (1078) 
P

>  <INCHIKEY>  (1078) 
AHJWSRRHTXRLAQ-UHFFFAOYSA-N

>  <FORMULA>  (1078) 
C5H12O4

>  <EXACT MASS>  (1078) 
136.073558864

>  <MW>  (1078) 
136

>  <ID>  (1078) 
JP010469

>  <CONTRIBUTOR>  (1078) 
University of Tokyo Team, {Faculty of Engineering, University of Tokyo

>  <COMMENT>  (1078) 
SMILES=COC(OC)(OC)OC
InChI=InChI=1S/C5H12O4/c1-6-5(7-2,8-3)9-4/h1-4H3
computed SMILES=O(C)C(OC)(OC)OC
accession=JP010469
date=2016.01.19 (Created 2008.10.21, modified 2011.05.06)
author=TAJIMA S, GUNMA COLLEGE OF TECHNOLOGY
license=CC BY-NC-SA
exact mass=136.07356
ionization energy=70 eV
ion type=[M]+*
computed spectral entropy=2.0519189551040995
computed normalized entropy=0.757710826139391
SPLASH=splash10-0aor-9300000000-ca1acf85fe99054415c7
submitter=submitter = University of Tokyo Team (Faculty of Engineering, University of Tokyo)
MoNA Rating=3.75

>  <NUM PEAKS>  (1078) 
15

>  <MASS SPECTRAL PEAKS>  (1078) 
14 16.31
15 84.63
16 4.77
29 41.44
30 8.1
31 8.05
45 65.63
46 2.43
47 1.06
59 54.94
60 1.62
61 11.67
74 1.84
105 99.99
106 4.93

>  <PREDICTED SPECTRUM>  (1078) 
14 30
15 247
16 22
18 29
19 19
25 16
27 140
28 124
29 437
30 133
31 359
32 121
33 141
34 12
42 68
43 193
44 150
45 535
46 123
47 170
58 115
59 547
60 54
61 178
63 9
73 230
74 190
75 253
89 8
90 20
91 165
105 999
106 285
107 49
121 57
135 0

$$$$

     RDKit          2D

 15 17  0  0  0  0  0  0  0  0999 V2000
    3.9000   -0.9500    0.0000 C   0  0  0  0  0  0  0  0  0  0  0  0
   -3.9000   -0.9500    0.0000 C   0  0  0  0  0  0  0  0  0  0  0  0
    3.9000    0.5500    0.0000 C   0  0  0  0  0  0  0  0  0  0  0  0
   -3.9000    0.5500    0.0000 C   0  0  0  0  0  0  0  0  0  0  0  0
    2.6000   -1.7000    0.0000 C   0  0  0  0  0  0  0  0  0  0  0  0
   -2.6000   -1.7000    0.0000 C   0  0  0  0  0  0  0  0  0  0  0  0
    2.6000    1.3000    0.0000 C   0  0  0  0  0  0  0  0  0  0  0  0
   -2.6000    1.3000    0.0000 C   0  0  0  0  0  0  0  0  0  0  0  0
    0.0000   -1.7000    0.0000 C   0  0  0  0  0  0  0  0  0  0  0  0
    1.3000   -0.9500    0.0000 C   0  0  0  0  0  0  0  0  0  0  0  0
   -1.3000   -0.9500    0.0000 C   0  0  0  0  0  0  0  0  0  0  0  0
    1.3000    0.5500    0.0000 C   0  0  0  0  0  0  0  0  0  0  0  0
   -1.3000    0.5500    0.0000 C   0  0  0  0  0  0  0  0  0  0  0  0
    0.0000    1.3000    0.0000 C   0  0  0  0  0  0  0  0  0  0  0  0
    0.0000    2.8000    0.0000 O   0  0  0  0  0  0  0  0  0  0  0  0
  3  1  2  0
  4  2  2  0
  5  1  1  0
  6  2  1  0
  7  3  1  0
  8  4  1  0
 10  5  2  0
 10  9  1  0
 11  6  2  0
 11  9  1  0
 12  7  2  0
 12 10  1  0
 13  8  2  0
 13 11  1  0
 14 12  1  0
 14 13  1  0
 15 14  2  0
M  END
>  <NAME>  (1079) 
9(10H)-ANTHRACENONE

>  <SYNONYMS>  (1079) 
ANTHRONE

>  <SPECTRUM TYPE>  (1079) 
MS1

>  <INSTRUMENT TYPE>  (1079) 
EI-B

>  <INSTRUMENT>  (1079) 
HITACHI M-80A

>  <ION MODE>  (1079) 
P

>  <INCHIKEY>  (1079) 
RJGDLRCDCYRQOQ-UHFFFAOYSA-N

>  <FORMULA>  (1079) 
C14H10O

>  <EXACT MASS>  (1079) 
194.07316494

>  <MW>  (1079) 
194

>  <ID>  (1079) 
JP010468

>  <CONTRIBUTOR>  (1079) 
University of Tokyo Team, {Faculty of Engineering, University of Tokyo

>  <COMMENT>  (1079) 
SMILES=O=C(c21)c(c3)c(ccc3)Cc(cccc2)1
InChI=InChI=1S/C14H10O/c15-14-12-7-3-1-5-10(12)9-11-6-2-4-8-13(11)14/h1-8H,9H2
computed SMILES=O=C1C=2C=CC=CC2CC=3C=CC=CC13
accession=JP010468
date=2016.01.19 (Created 2008.10.21, modified 2011.05.06)
author=TAJIMA S, GUNMA COLLEGE OF TECHNOLOGY
license=CC BY-NC-SA
exact mass=194.07316
ionization energy=70 eV
ion type=[M]+*
computed spectral entropy=2.9760299701405426
computed normalized entropy=0.7607393836925648
SPLASH=splash10-00kf-4900000000-3c2f3289701d97cd8233
submitter=submitter = University of Tokyo Team (Faculty of Engineering, University of Tokyo)
MoNA Rating=3.75

>  <NUM PEAKS>  (1079) 
50

>  <MASS SPECTRAL PEAKS>  (1079) 
27 4.07
29 1.41
38 3.1
39 10.32
40 1.93
50 9.23
51 7.95
52 1.37
61 1.41
62 6.31
63 14.11
64 2.49
65 1.67
69 4.96
74 7.17
75 5.93
76 3.76
77 2.48
81 1.64
82 8.06
83 10.76
85 1.01
86 4.12
87 5.79
88 2.24
89 6.43
90 1.47
97 2.1
98 2.24
99 1.58
110 1.27
111 1.68
113 3.02
114 1.26
115 6
126 2.06
137 1.73
138 1.53
139 11.19
140 1.54
162 2.18
163 15.11
164 12.52
165 89.52
166 15.06
167 1.26
193 12.02
194 99.99
195 15.64
196 1.47

>  <PREDICTED SPECTRUM>  (1079) 
38 20
39 113
40 22
41 11
49 12
50 117
51 143
52 53
54 5
55 66
57 17
58 16
61 76
62 147
63 231
64 98
65 86
67 7
68 4
69 134
70 42
74 140
75 154
76 154
77 60
81 173
82 261
83 136
84 11
85 10
86 158
87 189
88 191
89 282
90 106
95 73
96 74
97 63
98 51
99 57
100 62
109 1
110 90
111 115
113 153
114 83
115 268
116 164
117 1
118 23
126 84
127 23
137 127
138 137
139 283
140 114
141 4
161 92
162 150
163 453
164 401
165 999
166 508
167 147
168 68
177 7
181 17
192 53
193 449
194 817
195 364
196 88

$$$$

     RDKit          2D

  8  8  0  0  0  0  0  0  0  0999 V2000
    1.9458   -1.5018    0.0000 C   0  0  0  0  0  0  0  0  0  0  0  0
    0.6513   -2.2440    0.0000 C   0  0  0  0  0  0  0  0  0  0  0  0
    1.9463   -0.0009    0.0000 C   0  0  0  0  0  0  0  0  0  0  0  0
   -0.6478   -1.4940    0.0000 C   0  0  0  0  0  0  0  0  0  0  0  0
    0.6472    0.7491    0.0000 C   0  0  0  0  0  0  0  0  0  0  0  0
   -0.6523   -0.0018    0.0000 C   0  0  0  0  0  0  0  0  0  0  0  0
    0.6470    2.2491    0.0000 N   0  0  0  0  0  0  0  0  0  0  0  0
   -1.9526    0.7460    0.0000 O   0  0  0  0  0  0  0  0  0  0  0  0
  2  1  2  0
  3  1  1  0
  4  2  1  0
  5  3  2  0
  6  4  2  0
  6  5  1  0
  7  5  1  0
  8  6  1  0
M  END
>  <NAME>  (1080) 
ORTHO-AMINOPHENOL

>  <SYNONYMS>  (1080) 
ORTHO-HYDROXYANILINE

>  <SPECTRUM TYPE>  (1080) 
MS1

>  <INSTRUMENT TYPE>  (1080) 
EI-B

>  <INSTRUMENT>  (1080) 
HITACHI M-80A

>  <ION MODE>  (1080) 
P

>  <INCHIKEY>  (1080) 
CDAWCLOXVUBKRW-UHFFFAOYSA-N

>  <FORMULA>  (1080) 
C6H7NO

>  <EXACT MASS>  (1080) 
109.052763844

>  <MW>  (1080) 
109

>  <ID>  (1080) 
JP010467

>  <CONTRIBUTOR>  (1080) 
University of Tokyo Team, {Faculty of Engineering, University of Tokyo

>  <COMMENT>  (1080) 
SMILES=Nc(c1)c(O)ccc1
InChI=InChI=1S/C6H7NO/c7-5-3-1-2-4-6(5)8/h1-4,8H,7H2
computed SMILES=OC=1C=CC=CC1N
accession=JP010467
date=2016.01.19 (Created 2008.10.21, modified 2011.05.06)
author=TAJIMA S, GUNMA COLLEGE OF TECHNOLOGY
license=CC BY-NC-SA
exact mass=109.05276
ionization energy=70 eV
ion type=[M]+*
computed spectral entropy=2.6616779653444707
computed normalized entropy=0.7547946237386461
SPLASH=splash10-0a59-9500000000-64a0083db1618cc2d030
submitter=submitter = University of Tokyo Team (Faculty of Engineering, University of Tokyo)
MoNA Rating=3.75

>  <NUM PEAKS>  (1080) 
34

>  <MASS SPECTRAL PEAKS>  (1080) 
26 3.52
27 8.37
28 9.88
29 3.73
30 1.25
37 2.38
38 5.21
39 9.63
40 3
41 4.83
42 2.69
49 1.37
50 5.5
51 7.13
52 12.47
53 16.25
54 7.98
55 2.66
61 1.01
62 1.86
63 7.97
64 7.65
65 3.17
66 1.33
76 1
78 1.69
79 1.55
80 51.86
81 6.1
91 1.91
92 1.63
108 7.23
109 99.99
110 12.37

>  <PREDICTED SPECTRUM>  (1080) 
16 12
17 18
25 17
26 77
27 156
28 115
29 81
30 26
36 15
37 134
38 195
39 376
40 180
41 335
42 181
43 52
44 76
48 4
49 48
50 231
51 298
52 446
53 428
54 325
55 210
56 60
57 23
60 3
61 115
62 138
63 259
64 235
65 249
66 74
67 126
68 62
69 126
70 73
74 44
75 58
78 62
79 87
80 517
81 402
82 200
90 54
91 239
92 174
93 47
107 52
108 247
109 999
110 287
111 54

$$$$

     RDKit          2D

 11 12  0  0  0  0  0  0  0  0999 V2000
   -2.7000    0.7500    0.0000 C   0  0  0  0  0  0  0  0  0  0  0  0
   -2.7000   -0.7500    0.0000 C   0  0  0  0  0  0  0  0  0  0  0  0
   -1.4000    1.5000    0.0000 C   0  0  0  0  0  0  0  0  0  0  0  0
   -1.4000   -1.5000    0.0000 C   0  0  0  0  0  0  0  0  0  0  0  0
   -0.1000    0.7500    0.0000 C   0  0  0  0  0  0  0  0  0  0  0  0
   -0.1000   -0.7500    0.0000 C   0  0  0  0  0  0  0  0  0  0  0  0
    1.3200    1.2100    0.0000 C   0  0  0  0  0  0  0  0  0  0  0  0
    1.3200   -1.2100    0.0000 C   0  0  0  0  0  0  0  0  0  0  0  0
    1.7838    2.6365    0.0000 O   0  0  0  0  0  0  0  0  0  0  0  0
    1.7838   -2.6365    0.0000 O   0  0  0  0  0  0  0  0  0  0  0  0
    2.2000    0.0000    0.0000 O   0  0  0  0  0  0  0  0  0  0  0  0
  2  1  2  0
  3  1  1  0
  4  2  1  0
  5  3  2  0
  6  4  2  0
  6  5  1  0
  7  5  1  0
  8  6  1  0
  9  7  2  0
 10  8  2  0
 11  7  1  0
 11  8  1  0
M  END
>  <NAME>  (1081) 
PHTHALIC ANHYDRIDE

>  <SYNONYMS>  (1081) 


>  <SPECTRUM TYPE>  (1081) 
MS1

>  <INSTRUMENT TYPE>  (1081) 
EI-B

>  <INSTRUMENT>  (1081) 
HITACHI M-80A

>  <ION MODE>  (1081) 
P

>  <INCHIKEY>  (1081) 
LGRFSURHDFAFJT-UHFFFAOYSA-N

>  <FORMULA>  (1081) 
C8H4O3

>  <EXACT MASS>  (1081) 
148.01604398799998

>  <MW>  (1081) 
148

>  <ID>  (1081) 
JP010466

>  <CONTRIBUTOR>  (1081) 
University of Tokyo Team, {Faculty of Engineering, University of Tokyo

>  <COMMENT>  (1081) 
SMILES=O=c(o1)c(c2)c(ccc2)c(=O)1
InChI=InChI=1S/C8H4O3/c9-7-5-3-1-2-4-6(5)8(10)11-7/h1-4H
computed SMILES=O=C1OC(=O)C=2C=CC=CC12
accession=JP010466
date=2016.01.19 (Created 2008.10.21, modified 2011.05.06)
author=TAJIMA S, GUNMA COLLEGE OF TECHNOLOGY
license=CC BY-NC-SA
exact mass=148.01604
ionization energy=70 eV
ion type=[M]+*
computed spectral entropy=2.50069348804686
computed normalized entropy=0.7282186388990305
SPLASH=splash10-0ufr-9400000000-0d538ca402ab68b3c933
submitter=submitter = University of Tokyo Team (Faculty of Engineering, University of Tokyo)
MoNA Rating=3.75

>  <NUM PEAKS>  (1081) 
31

>  <MASS SPECTRAL PEAKS>  (1081) 
25 1.05
26 3.75
27 2.23
29 1.5
36 1.59
37 14.8
38 17.05
39 4.18
44 1.85
45 1.75
48 1.06
49 8.31
50 59.23
51 4.8
52 4.37
53 3.37
60 1.03
61 3.52
62 2.02
63 1.77
65 1.83
73 6.8
74 25.11
75 14.58
76 89.78
77 11.06
104 99.99
105 10.95
122 2.98
148 15.38
149 2.54

>  <PREDICTED SPECTRUM>  (1081) 
14 12
16 40
17 7
18 4
25 27
26 65
27 75
28 126
29 81
30 151
31 11
36 32
37 213
38 205
39 63
44 66
45 83
46 42
48 72
49 259
50 746
51 137
53 127
61 259
62 102
65 60
68 70
74 498
75 641
76 951
77 417
78 122
104 999
105 354
106 69
132 0
148 863
149 270
150 126

$$$$

     RDKit          2D

 12 12  0  0  0  0  0  0  0  0999 V2000
    0.6489   -2.6180    0.0000 C   0  0  0  0  0  0  0  0  0  0  0  0
   -0.6501   -1.8680    0.0000 C   0  0  0  0  0  0  0  0  0  0  0  0
    1.9435   -1.8758    0.0000 C   0  0  0  0  0  0  0  0  0  0  0  0
    0.6449    0.3750    0.0000 C   0  0  0  0  0  0  0  0  0  0  0  0
   -0.6546   -0.3758    0.0000 C   0  0  0  0  0  0  0  0  0  0  0  0
    1.9439   -0.3750    0.0000 C   0  0  0  0  0  0  0  0  0  0  0  0
   -1.9549    0.3720    0.0000 C   0  0  0  0  0  0  0  0  0  0  0  0
    3.2431    0.3748    0.0000 C   0  0  0  0  0  0  0  0  0  0  0  0
   -1.9574    1.8720    0.0000 O   0  0  0  0  0  0  0  0  0  0  0  0
   -3.2527   -0.3801    0.0000 O   0  0  0  0  0  0  0  0  0  0  0  0
    3.2433    1.8748    0.0000 O   0  0  0  0  0  0  0  0  0  0  0  0
    4.5420   -0.3754    0.0000 O   0  0  0  0  0  0  0  0  0  0  0  0
  2  1  2  0
  3  1  1  0
  5  2  1  0
  5  4  2  0
  6  3  2  0
  6  4  1  0
  7  5  1  0
  8  6  1  0
  9  7  2  0
 10  7  1  0
 11  8  2  0
 12  8  1  0
M  END
>  <NAME>  (1082) 
ISOPHTHALIC ACID

>  <SYNONYMS>  (1082) 
1,3-BENZENEDICABOXYLIC ACID

>  <SPECTRUM TYPE>  (1082) 
MS1

>  <INSTRUMENT TYPE>  (1082) 
EI-B

>  <INSTRUMENT>  (1082) 
HITACHI M-80A

>  <ION MODE>  (1082) 
P

>  <INCHIKEY>  (1082) 
QQVIHTHCMHWDBS-UHFFFAOYSA-N

>  <FORMULA>  (1082) 
C8H6O4

>  <EXACT MASS>  (1082) 
166.026608672

>  <MW>  (1082) 
166

>  <ID>  (1082) 
JP010465

>  <CONTRIBUTOR>  (1082) 
University of Tokyo Team, {Faculty of Engineering, University of Tokyo

>  <COMMENT>  (1082) 
SMILES=OC(=O)c(c1)cc(cc1)C(O)=O
InChI=InChI=1S/C8H6O4/c9-7(10)5-2-1-3-6(4-5)8(11)12/h1-4H,(H,9,10)(H,11,12)
computed SMILES=O=C(O)C1=CC=CC(=C1)C(=O)O
accession=JP010465
date=2016.01.19 (Created 2008.10.21, modified 2011.05.06)
author=TAJIMA S, GUNMA COLLEGE OF TECHNOLOGY
license=CC BY-NC-SA
exact mass=166.02661
ionization energy=70 eV
ion type=[M]+*
computed spectral entropy=2.8837616799706196
computed normalized entropy=0.781744623493883
SPLASH=splash10-014j-9800000000-17177e329f5b005af1b8
submitter=submitter = University of Tokyo Team (Faculty of Engineering, University of Tokyo)
MoNA Rating=3.75

>  <NUM PEAKS>  (1082) 
40

>  <MASS SPECTRAL PEAKS>  (1082) 
26 1.22
27 3.64
29 2.12
37 4.42
38 7.31
39 20.24
40 1.17
45 20.08
49 2.82
50 29.29
51 19.27
52 3.83
53 5.53
61 1.38
62 1.96
63 4
64 2.27
65 52.13
66 5.52
73 3.49
74 18.27
75 16.65
76 20.94
77 12.54
78 1.43
79 1.53
92 2.59
93 5.24
103 2.94
104 3.1
105 3.62
121 28.85
122 2.87
138 1.28
149 99.99
150 9.16
151 1.01
166 85.52
167 10.64
168 1.29

>  <PREDICTED SPECTRUM>  (1082) 
27 21
29 27
30 8
36 55
37 160
38 202
39 320
40 69
44 163
45 489
46 54
47 15
49 121
50 535
51 383
52 138
53 284
54 44
55 71
57 59
62 130
63 182
64 80
65 623
66 228
68 35
70 33
73 20
74 359
75 399
76 467
77 390
78 150
79 32
81 145
83 41
91 122
92 147
93 195
94 73
103 157
104 139
105 244
106 57
108 31
109 19
119 9
120 184
121 676
122 235
136 105
138 100
149 946
150 317
165 204
166 999
167 276
168 85

$$$$

     RDKit          2D

 12 12  0  0  0  0  0  0  0  0999 V2000
   -1.6200   -1.3100    0.0000 C   0  0  0  0  0  0  0  0  0  0  0  0
   -0.3300   -2.0600    0.0000 C   0  0  0  0  0  0  0  0  0  0  0  0
   -1.6200    0.1900    0.0000 C   0  0  0  0  0  0  0  0  0  0  0  0
    0.9700   -1.3100    0.0000 C   0  0  0  0  0  0  0  0  0  0  0  0
   -0.3300    0.9400    0.0000 C   0  0  0  0  0  0  0  0  0  0  0  0
    0.9700    0.1900    0.0000 C   0  0  0  0  0  0  0  0  0  0  0  0
   -0.3325    2.4400    0.0000 C   0  0  0  0  0  0  0  0  0  0  0  0
    2.2689    0.9402    0.0000 C   0  0  0  0  0  0  0  0  0  0  0  0
    0.9653    3.1922    0.0000 O   0  0  0  0  0  0  0  0  0  0  0  0
   -1.6328    3.1878    0.0000 O   0  0  0  0  0  0  0  0  0  0  0  0
    2.2687    2.4402    0.0000 O   0  0  0  0  0  0  0  0  0  0  0  0
    3.5681    0.1904    0.0000 O   0  0  0  0  0  0  0  0  0  0  0  0
  2  1  2  0
  3  1  1  0
  4  2  1  0
  5  3  2  0
  6  4  2  0
  6  5  1  0
  7  5  1  0
  8  6  1  0
  9  7  2  0
 10  7  1  0
 11  8  2  0
 12  8  1  0
M  END
>  <NAME>  (1083) 
PHTHALIC ACID

>  <SYNONYMS>  (1083) 
1,2-BENZENEDICABOXYLIC ACID

>  <SPECTRUM TYPE>  (1083) 
MS1

>  <INSTRUMENT TYPE>  (1083) 
EI-B

>  <INSTRUMENT>  (1083) 
HITACHI M-80A

>  <ION MODE>  (1083) 
P

>  <INCHIKEY>  (1083) 
XNGIFLGASWRNHJ-UHFFFAOYSA-N

>  <FORMULA>  (1083) 
C8H6O4

>  <EXACT MASS>  (1083) 
166.026608672

>  <MW>  (1083) 
166

>  <ID>  (1083) 
JP010464

>  <CONTRIBUTOR>  (1083) 
University of Tokyo Team, {Faculty of Engineering, University of Tokyo

>  <COMMENT>  (1083) 
SMILES=OC(=O)c(c1)c(ccc1)C(O)=O
cas=88-99-3
InChI=InChI=1S/C8H6O4/c9-7(10)5-3-1-2-4-6(5)8(11)12/h1-4H,(H,9,10)(H,11,12)
computed SMILES=O=C(O)C=1C=CC=CC1C(=O)O
accession=JP010464
date=2016.01.19 (Created 2008.10.21, modified 2011.05.06)
author=TAJIMA S, GUNMA COLLEGE OF TECHNOLOGY
license=CC BY-NC-SA
exact mass=166.02661
ionization energy=70 eV
ion type=[M]+*
computed spectral entropy=3.163844355436875
computed normalized entropy=0.8360691882560172
SPLASH=splash10-0zor-9500000000-e5ec33e3312a4a87ea39
submitter=submitter = University of Tokyo Team (Faculty of Engineering, University of Tokyo)
MoNA Rating=3.75

>  <NUM PEAKS>  (1083) 
44

>  <MASS SPECTRAL PEAKS>  (1083) 
17 1.78
18 5.07
26 3.18
27 6.47
28 1.47
29 3.78
37 10.87
38 14.65
39 35.64
44 1.39
45 26.45
47 1.71
49 6.76
50 58.78
51 29.39
52 7.46
53 8.82
55 1.04
61 2.92
62 3.08
63 6.64
64 5.52
65 42.32
66 6.25
73 5.73
74 26.39
75 17.37
76 51.68
77 42.05
78 6.32
92 6.23
93 11.85
94 4.95
104 34.57
105 99.99
106 7.85
121 5.51
122 89.47
123 7.32
148 4.52
149 19.79
150 1.86
166 7.66
167 3.82

>  <PREDICTED SPECTRUM>  (1083) 
14 5
16 23
17 33
18 82
25 39
26 35
28 29
30 76
36 71
37 326
38 320
39 289
40 121
42 50
44 227
45 304
46 84
49 235
50 837
51 459
52 173
53 296
61 120
62 243
63 145
64 58
65 557
66 322
67 32
73 150
74 664
75 694
76 999
77 416
78 166
93 328
94 56
103 363
104 912
105 501
106 5
120 121
121 333
122 352
148 306
149 452
150 89

$$$$

     RDKit          2D

 18 19  0  0  0  0  0  0  0  0999 V2000
   -2.6000   -0.7500    0.0000 C   0  0  0  0  0  0  0  0  0  0  0  0
   -3.8989   -1.5002    0.0000 H   0  0  0  0  0  0  0  0  0  0  0  0
   -2.6000    0.7500    0.0000 C   0  0  0  0  0  0  0  0  0  0  0  0
   -3.8989    1.5002    0.0000 H   0  0  0  0  0  0  0  0  0  0  0  0
    2.6000   -0.7500    0.0000 C   0  0  0  0  0  0  0  0  0  0  0  0
    3.8989   -1.5002    0.0000 H   0  0  0  0  0  0  0  0  0  0  0  0
    2.6000    0.7500    0.0000 C   0  0  0  0  0  0  0  0  0  0  0  0
    3.8989    1.5002    0.0000 H   0  0  0  0  0  0  0  0  0  0  0  0
   -1.3000   -1.5000    0.0000 C   0  0  0  0  0  0  0  0  0  0  0  0
   -1.3000   -3.0000    0.0000 H   0  0  0  0  0  0  0  0  0  0  0  0
   -1.3000    1.5000    0.0000 C   0  0  0  0  0  0  0  0  0  0  0  0
   -1.3000    3.0000    0.0000 H   0  0  0  0  0  0  0  0  0  0  0  0
    1.3000   -1.5000    0.0000 C   0  0  0  0  0  0  0  0  0  0  0  0
    1.3000   -3.0000    0.0000 H   0  0  0  0  0  0  0  0  0  0  0  0
    1.3000    1.5000    0.0000 C   0  0  0  0  0  0  0  0  0  0  0  0
    1.3000    3.0000    0.0000 H   0  0  0  0  0  0  0  0  0  0  0  0
    0.0000   -0.7500    0.0000 C   0  0  0  0  0  0  0  0  0  0  0  0
    0.0000    0.7500    0.0000 C   0  0  0  0  0  0  0  0  0  0  0  0
  1  2  1  0
  3  4  1  0
  5  6  1  0
  7  8  1  0
  9 10  1  0
 11 12  1  0
 13 14  1  0
 15 16  1  0
  3  1  2  0
  7  5  1  0
  9  1  1  0
 11  3  1  0
 13  5  2  0
 15  7  2  0
 17  9  2  0
 17 13  1  0
 18 11  2  0
 18 15  1  0
 18 17  1  0
M  ISO  8   2   2   4   2   6   2   8   2  10   2  12   2  14   2  16   2
M  END
>  <NAME>  (1084) 
NAPHTHALENE (1,2,3,4,5,6,7,8-D8)

>  <SYNONYMS>  (1084) 


>  <SPECTRUM TYPE>  (1084) 
MS1

>  <INSTRUMENT TYPE>  (1084) 
EI-B

>  <INSTRUMENT>  (1084) 
HITACHI M-80A

>  <ION MODE>  (1084) 
P

>  <INCHIKEY>  (1084) 
UFWIBTONFRDIAS-PGRXLJNUSA-N

>  <FORMULA>  (1084) 
C10H8

>  <EXACT MASS>  (1084) 
136.112814224

>  <MW>  (1084) 
136

>  <ID>  (1084) 
JP010463

>  <CONTRIBUTOR>  (1084) 
University of Tokyo Team, {Faculty of Engineering, University of Tokyo

>  <COMMENT>  (1084) 
SMILES=[2H]c(c([2H])1)c([2H])c(c([2H])2)c(c([2H])c([2H])c([2H])2)c([2H])1
InChI=InChI=1S/C10H8/c1-2-6-10-8-4-3-7-9(10)5-1/h1-8H/i1D,2D,3D,4D,5D,6D,7D,8D
computed SMILES=[H]C=1C=2C(C([H])=C([H])C1[H])=C([H])C([H])=C([H])C2[H]
accession=JP010463
date=2016.01.19 (Created 2008.10.21, modified 2011.05.06)
author=TAJIMA S, GUNMA COLLEGE OF TECHNOLOGY
license=CC BY-NC-SA
exact mass=128.0626
ionization energy=70 eV
ion type=[M]+*
computed spectral entropy=1.075631891087733
computed normalized entropy=0.4671409948585619
SPLASH=splash10-000i-0900000000-7a87251d344c519a4335
submitter=submitter = University of Tokyo Team (Faculty of Engineering, University of Tokyo)
MoNA Rating=3.75

>  <NUM PEAKS>  (1084) 
10

>  <MASS SPECTRAL PEAKS>  (1084) 
42 1.53
54 1.18
66 1.48
108 3.96
132 1.88
134 3.53
135 10.78
136 99.99
137 10.94
138 1.45

>  <PREDICTED SPECTRUM>  (1084) 
14 21
15 69
26 125
27 146
28 280
32 36
37 34
38 193
39 464
40 197
41 454
42 379
43 310
44 84
50 203
52 387
53 292
54 305
56 226
57 109
58 33
62 26
64 138
65 115
66 197
67 124
68 26
76 278
78 247
79 203
80 235
82 37
84 143
85 154
91 81
100 41
102 175
103 49
104 330
105 135
106 252
107 164
108 291
118 194
122 24
130 612
131 441
132 999
133 549
134 857
135 568
136 841
137 495
138 36

$$$$

     RDKit          2D

  7  7  0  0  0  0  0  0  0  0999 V2000
   -1.6700   -0.9600    0.0000 C   0  0  0  0  0  0  0  0  0  0  0  0
   -1.6700    0.5400    0.0000 C   0  0  0  0  0  0  0  0  0  0  0  0
   -0.3700   -1.7100    0.0000 C   0  0  0  0  0  0  0  0  0  0  0  0
   -0.3700    1.2900    0.0000 C   0  0  0  0  0  0  0  0  0  0  0  0
    0.9300   -0.9600    0.0000 C   0  0  0  0  0  0  0  0  0  0  0  0
    0.9300    0.5400    0.0000 C   0  0  0  0  0  0  0  0  0  0  0  0
    2.2289    1.2902    0.0000 O   0  0  0  0  0  0  0  0  0  0  0  0
  2  1  1  0
  3  1  1  0
  4  2  2  0
  5  3  1  0
  6  4  1  0
  6  5  1  0
  7  6  1  0
M  END
>  <NAME>  (1085) 
2-CYCLOHEXEN-1-OL

>  <SYNONYMS>  (1085) 


>  <SPECTRUM TYPE>  (1085) 
MS1

>  <INSTRUMENT TYPE>  (1085) 
EI-B

>  <INSTRUMENT>  (1085) 
HITACHI M-80A

>  <ION MODE>  (1085) 
P

>  <INCHIKEY>  (1085) 
PQANGXXSEABURG-UHFFFAOYSA-N

>  <FORMULA>  (1085) 
C6H10O

>  <EXACT MASS>  (1085) 
98.07316494

>  <MW>  (1085) 
98

>  <ID>  (1085) 
JP010462

>  <CONTRIBUTOR>  (1085) 
University of Tokyo Team, {Faculty of Engineering, University of Tokyo

>  <COMMENT>  (1085) 
SMILES=OC(C1)C=CCC1
InChI=InChI=1S/C6H10O/c7-6-4-2-1-3-5-6/h2,4,6-7H,1,3,5H2
computed SMILES=OC1C=CCCC1
accession=JP010462
date=2016.01.19 (Created 2008.10.21, modified 2011.05.06)
author=TAJIMA S, GUNMA COLLEGE OF TECHNOLOGY
license=CC BY-NC-SA
exact mass=98.07316
ionization energy=70 eV
ion type=[M]+*
computed spectral entropy=3.195017593536277
computed normalized entropy=0.8393225304639637
SPLASH=splash10-00ea-9000000000-2e700514c37ba2d1aab9
submitter=submitter = University of Tokyo Team (Faculty of Engineering, University of Tokyo)
MoNA Rating=3.75

>  <NUM PEAKS>  (1085) 
45

>  <MASS SPECTRAL PEAKS>  (1085) 
15 3.63
18 2.2
26 4.27
27 18.66
28 1.7
29 13.11
31 4.15
37 1.64
38 3.92
39 26.06
40 5.05
41 23.59
42 16.66
43 15.07
44 4.09
50 4.33
51 6.57
52 3.96
53 6.77
54 8.43
55 24.96
56 4.78
57 11.83
58 1.16
63 1.36
65 2.81
66 1.49
67 7.07
68 3.17
69 21.69
70 99.99
71 5.44
77 8.77
78 3.01
79 25.42
80 26.39
81 26.76
82 3.52
83 42.62
84 2.4
86 1.18
96 1.02
97 35.12
98 53.81
99 4.82

>  <PREDICTED SPECTRUM>  (1085) 
14 7
15 9
16 6
25 12
26 191
27 522
28 227
29 301
31 53
37 61
38 213
39 786
40 370
41 902
42 607
43 570
44 340
45 9
49 90
50 308
51 409
52 332
53 545
54 991
55 999
56 607
57 608
58 164
61 15
62 90
63 163
64 40
65 348
66 219
67 393
68 160
69 760
70 662
71 174
76 21
77 375
78 249
79 441
80 414
81 416
83 466
84 134
96 44
97 341
98 411
99 76

$$$$

     RDKit          2D

 10 10  0  0  0  0  0  0  0  0999 V2000
   -3.5724    2.0075    0.0000 C   0  0  0  0  0  0  0  0  0  0  0  0
    2.9228   -0.2425    0.0000 C   0  0  0  0  0  0  0  0  0  0  0  0
    2.9233    1.2583    0.0000 C   0  0  0  0  0  0  0  0  0  0  0  0
    1.6233   -0.9933    0.0000 C   0  0  0  0  0  0  0  0  0  0  0  0
    1.6243    2.0083    0.0000 C   0  0  0  0  0  0  0  0  0  0  0  0
    0.3243   -0.2433    0.0000 C   0  0  0  0  0  0  0  0  0  0  0  0
    0.3248    1.2575    0.0000 C   0  0  0  0  0  0  0  0  0  0  0  0
   -0.9743    2.0075    0.0000 C   0  0  0  0  0  0  0  0  0  0  0  0
   -0.9743    3.5075    0.0000 O   0  0  0  0  0  0  0  0  0  0  0  0
   -2.2733    1.2575    0.0000 O   0  0  0  0  0  0  0  0  0  0  0  0
  3  2  2  0
  4  2  1  0
  5  3  1  0
  6  4  1  0
  7  5  1  0
  7  6  1  0
  8  7  1  0
  9  8  2  0
 10  1  1  0
 10  8  1  0
M  END
>  <NAME>  (1086) 
3-CYCLOHEXENE-1-CARBOXYLIC ACID METHYL ESTER

>  <SYNONYMS>  (1086) 


>  <SPECTRUM TYPE>  (1086) 
MS1

>  <INSTRUMENT TYPE>  (1086) 
EI-B

>  <INSTRUMENT>  (1086) 
HITACHI M-80A

>  <ION MODE>  (1086) 
P

>  <INCHIKEY>  (1086) 
IPUNVLFESXFVFH-UHFFFAOYSA-N

>  <FORMULA>  (1086) 
C8H12O2

>  <EXACT MASS>  (1086) 
140.083729624

>  <MW>  (1086) 
140

>  <ID>  (1086) 
JP010461

>  <CONTRIBUTOR>  (1086) 
University of Tokyo Team, {Faculty of Engineering, University of Tokyo

>  <COMMENT>  (1086) 
SMILES=COC(=O)C(C1)CC=CC1
InChI=InChI=1S/C8H12O2/c1-10-8(9)7-5-3-2-4-6-7/h2-3,7H,4-6H2,1H3
computed SMILES=O=C(OC)C1CC=CCC1
accession=JP010461
date=2016.01.19 (Created 2008.10.21, modified 2011.05.06)
author=TAJIMA S, GUNMA COLLEGE OF TECHNOLOGY
license=CC BY-NC-SA
exact mass=140.08373
ionization energy=70 eV
ion type=[M]+*
computed spectral entropy=2.8577741410679263
computed normalized entropy=0.7551878783909947
SPLASH=splash10-001i-9200000000-658c24ea66d321ca4c90
submitter=submitter = University of Tokyo Team (Faculty of Engineering, University of Tokyo)
MoNA Rating=3.75

>  <NUM PEAKS>  (1086) 
44

>  <MASS SPECTRAL PEAKS>  (1086) 
15 10.53
27 11.92
29 5.26
30 1
31 1.75
38 1.37
39 14.35
40 1.82
41 12.73
42 1.01
43 2.72
45 1.07
50 2.44
51 5.06
52 3.21
53 12.71
54 11.58
55 6.67
59 5.69
61 1.07
65 2.78
66 3.72
67 3.99
68 1.31
69 1.16
74 1.58
77 8.36
78 2.74
79 34.53
80 99.99
81 84.93
82 5.8
83 1.43
97 2.29
98 1.32
107 1.41
108 47.93
109 17.61
110 1.38
111 3.74
112 1.07
125 1.99
140 27.21
141 9.32

>  <PREDICTED SPECTRUM>  (1086) 
15 54
26 145
27 476
28 120
29 338
30 103
31 155
32 21
33 47
37 36
38 134
39 573
40 251
41 570
42 39
43 207
44 22
45 78
50 186
51 277
52 276
53 542
54 455
55 468
56 33
57 80
58 70
59 431
60 95
61 112
62 62
63 99
65 287
66 349
67 686
68 217
69 205
70 44
71 213
73 161
74 334
75 149
77 504
78 269
79 928
80 999
81 993
82 223
83 168
84 118
85 79
86 9
87 484
88 58
91 164
92 24
93 81
95 57
96 101
97 175
98 138
100 225
107 151
108 608
109 362
110 150
111 216
112 128
113 97
122 67
125 196
139 41
140 373
141 140

$$$$

     RDKit          2D

 11 11  0  0  0  0  0  0  0  0999 V2000
    3.8980    2.2543    0.0000 C   0  0  0  0  0  0  0  0  0  0  0  0
   -1.3199    2.2329    0.0000 C   0  0  0  0  0  0  0  0  0  0  0  0
   -0.0499   -0.0171    0.0000 C   0  0  0  0  0  0  0  0  0  0  0  0
   -0.0499    2.9829    0.0000 C   0  0  0  0  0  0  0  0  0  0  0  0
    1.3001    0.7329    0.0000 C   0  0  0  0  0  0  0  0  0  0  0  0
   -1.3199    0.7329    0.0000 C   0  0  0  0  0  0  0  0  0  0  0  0
    1.3001    2.2329    0.0000 C   0  0  0  0  0  0  0  0  0  0  0  0
   -2.6227   -0.0107    0.0000 C   0  0  0  0  0  0  0  0  0  0  0  0
   -2.6300   -1.5107    0.0000 F   0  0  0  0  0  0  0  0  0  0  0  0
   -3.9180    0.7457    0.0000 O   0  0  0  0  0  0  0  0  0  0  0  0
    2.5929    2.9936    0.0000 O   0  0  0  0  0  0  0  0  0  0  0  0
  4  2  2  0
  5  3  1  0
  6  2  1  0
  6  3  2  0
  7  4  1  0
  7  5  2  0
  8  6  1  0
  9  8  1  0
 10  8  2  0
 11  1  1  0
 11  7  1  0
M  END
>  <NAME>  (1087) 
PARA-ANISOYL FLUORIDE

>  <SYNONYMS>  (1087) 
4-METHOXYBENZOYL FLUORIDE

>  <SPECTRUM TYPE>  (1087) 
MS1

>  <INSTRUMENT TYPE>  (1087) 
EI-B

>  <INSTRUMENT>  (1087) 
HITACHI M-80A

>  <ION MODE>  (1087) 
P

>  <INCHIKEY>  (1087) 
YVFLMEGQPCRTTO-UHFFFAOYSA-N

>  <FORMULA>  (1087) 
C8H7FO2

>  <EXACT MASS>  (1087) 
154.043007684

>  <MW>  (1087) 
154

>  <ID>  (1087) 
JP010460

>  <CONTRIBUTOR>  (1087) 
University of Tokyo Team, {Faculty of Engineering, University of Tokyo

>  <COMMENT>  (1087) 
SMILES=COc(c1)ccc(c1)C(=O)F
InChI=InChI=1S/C8H7FO2/c1-11-7-4-2-6(3-5-7)8(9)10/h2-5H,1H3
computed SMILES=O=C(F)C1=CC=C(OC)C=C1
accession=JP010460
date=2016.01.19 (Created 2008.10.21, modified 2011.05.06)
author=TAJIMA S, GUNMA COLLEGE OF TECHNOLOGY
license=CC BY-NC-SA
exact mass=154.04301
ionization energy=70 eV
ion type=[M]+*
computed spectral entropy=3.4263806278666435
computed normalized entropy=0.8238703900035367
SPLASH=splash10-0w59-9600000000-ec140d284f8dd3de0450
submitter=submitter = University of Tokyo Team (Faculty of Engineering, University of Tokyo)
MoNA Rating=3.75

>  <NUM PEAKS>  (1087) 
64

>  <MASS SPECTRAL PEAKS>  (1087) 
27 1.39
29 6.8
31 2.86
37 4.85
38 10.55
39 6.04
40 3.88
41 1.14
47 2.89
49 2.21
50 16.75
51 7.78
52 1.52
53 4.8
56 2.19
57 23.38
58 1.14
61 5.9
62 14.61
63 31.28
64 13.44
65 2.3
66 2.08
68 2.2
69 4.47
70 1.89
73 4.53
74 12.89
75 22.02
76 7.17
77 16.69
78 3.37
79 3.57
81 4.44
82 4.82
83 66.96
84 4.6
92 12.78
94 1.99
95 12.46
96 21.18
97 7.37
98 1.43
104 2.1
105 6.07
106 3.48
107 7.17
111 48.3
112 3.85
119 1.19
120 1.19
123 9.73
124 2.17
125 1.26
126 53.09
127 4.42
135 27.38
136 2.6
139 1.09
152 1.24
153 3.2
154 99.99
155 10
156 1.23

>  <PREDICTED SPECTRUM>  (1087) 
14 20
15 93
16 10
25 27
26 75
27 124
28 95
29 173
30 19
31 100
33 16
36 14
37 144
38 235
39 277
40 172
41 201
42 100
44 41
46 39
47 1
49 65
50 391
51 413
52 244
53 240
54 57
55 289
56 129
57 176
61 200
62 316
63 502
64 416
65 184
66 143
67 122
68 135
69 193
70 49
74 233
75 328
76 306
77 405
78 255
79 201
80 93
81 86
82 178
83 764
84 85
85 39
86 6
91 96
92 397
93 111
94 111
95 429
96 305
97 152
98 69
99 46
106 40
107 231
108 7
109 124
110 135
111 883
112 243
113 6
123 252
124 160
125 121
126 759
127 297
128 17
135 286
138 61
139 81
140 4
152 23
153 115
154 999
155 323
156 84

$$$$

     RDKit          2D

  9  9  0  0  0  0  0  0  0  0999 V2000
   -2.5989   -0.7504    0.0000 C   0  0  0  0  0  0  0  0  0  0  0  0
    2.5992   -0.7500    0.0000 C   0  0  0  0  0  0  0  0  0  0  0  0
    1.2992    1.5000    0.0000 C   0  0  0  0  0  0  0  0  0  0  0  0
    1.2992   -1.5000    0.0000 C   0  0  0  0  0  0  0  0  0  0  0  0
   -0.0008    0.7500    0.0000 C   0  0  0  0  0  0  0  0  0  0  0  0
    2.5992    0.7500    0.0000 C   0  0  0  0  0  0  0  0  0  0  0  0
   -0.0008   -0.7500    0.0000 C   0  0  0  0  0  0  0  0  0  0  0  0
    3.8981    1.5002    0.0000 F   0  0  0  0  0  0  0  0  0  0  0  0
   -1.2998   -1.5002    0.0000 O   0  0  0  0  0  0  0  0  0  0  0  0
  4  2  2  0
  5  3  1  0
  6  2  1  0
  6  3  2  0
  7  4  1  0
  7  5  2  0
  8  6  1  0
  9  1  1  0
  9  7  1  0
M  END
>  <NAME>  (1088) 
PARA-FLUOROANISOLE

>  <SYNONYMS>  (1088) 


>  <SPECTRUM TYPE>  (1088) 
MS1

>  <INSTRUMENT TYPE>  (1088) 
EI-B

>  <INSTRUMENT>  (1088) 
HITACHI M-80A

>  <ION MODE>  (1088) 
P

>  <INCHIKEY>  (1088) 
VIPWUFMFHBIKQI-UHFFFAOYSA-N

>  <FORMULA>  (1088) 
C7H7FO

>  <EXACT MASS>  (1088) 
126.048093064

>  <MW>  (1088) 
126

>  <ID>  (1088) 
JP010459

>  <CONTRIBUTOR>  (1088) 
University of Tokyo Team, {Faculty of Engineering, University of Tokyo

>  <COMMENT>  (1088) 
SMILES=COc(c1)ccc(F)c1
InChI=InChI=1S/C7H7FO/c1-9-7-4-2-6(8)3-5-7/h2-5H,1H3
computed SMILES=FC1=CC=C(OC)C=C1
accession=JP010459
date=2016.01.19 (Created 2008.10.21, modified 2011.05.06)
author=TAJIMA S, GUNMA COLLEGE OF TECHNOLOGY
license=CC BY-NC-SA
exact mass=126.04809
ionization energy=70 eV
ion type=[M]+*
computed spectral entropy=2.6360414043181577
computed normalized entropy=0.7145913649681273
SPLASH=splash10-0059-9600000000-8ab968303968b5f29e86
submitter=submitter = University of Tokyo Team (Faculty of Engineering, University of Tokyo)
MoNA Rating=3.75

>  <NUM PEAKS>  (1088) 
40

>  <MASS SPECTRAL PEAKS>  (1088) 
15 4.95
26 1.09
29 3.17
31 4.45
37 2.11
38 3
39 3.91
43 1.98
49 1.07
50 6.39
51 3.63
53 1.11
56 3.38
57 21.84
58 1.28
61 2.58
62 3.56
63 6.85
64 1.35
68 2.09
69 3.34
70 1.51
73 1.15
74 3.69
75 10.81
76 1.05
77 1.35
81 5.08
82 4.06
83 75.89
84 4.4
94 1.42
95 9.56
96 10.13
97 3.96
110 1.41
111 54.3
112 3.96
126 99.99
127 7.79

>  <PREDICTED SPECTRUM>  (1088) 
14 34
15 89
16 9
19 4
25 31
26 69
27 80
28 46
29 37
31 110
33 55
36 13
37 96
38 136
39 119
41 50
49 121
50 263
51 224
52 125
53 40
54 14
55 120
56 211
57 461
58 32
61 112
62 202
63 305
64 162
65 27
68 165
69 212
70 96
71 39
73 49
74 165
75 323
76 99
77 197
78 1
81 202
82 164
83 617
84 224
85 21
86 14
92 81
94 124
95 552
96 349
97 222
98 42
107 48
111 659
112 198
113 8
123 67
124 26
125 139
126 999
127 270
128 83

$$$$

     RDKit          2D

  9  9  0  0  0  0  0  0  0  0999 V2000
    3.8971   -1.4998    0.0000 C   0  0  0  0  0  0  0  0  0  0  0  0
    0.0005   -3.7506    0.0000 C   0  0  0  0  0  0  0  0  0  0  0  0
   -1.2990   -2.9998    0.0000 C   0  0  0  0  0  0  0  0  0  0  0  0
    1.2995   -3.0006    0.0000 C   0  0  0  0  0  0  0  0  0  0  0  0
   -0.0005   -0.7490    0.0000 C   0  0  0  0  0  0  0  0  0  0  0  0
   -1.2995   -1.4990    0.0000 C   0  0  0  0  0  0  0  0  0  0  0  0
    1.2990   -1.4998    0.0000 C   0  0  0  0  0  0  0  0  0  0  0  0
   -2.5987   -0.7492    0.0000 F   0  0  0  0  0  0  0  0  0  0  0  0
    2.5981   -0.7498    0.0000 O   0  0  0  0  0  0  0  0  0  0  0  0
  3  2  2  0
  4  2  1  0
  6  3  1  0
  6  5  2  0
  7  4  2  0
  7  5  1  0
  8  6  1  0
  9  1  1  0
  9  7  1  0
M  END
>  <NAME>  (1089) 
META-FLUOROANISOLE

>  <SYNONYMS>  (1089) 


>  <SPECTRUM TYPE>  (1089) 
MS1

>  <INSTRUMENT TYPE>  (1089) 
EI-B

>  <INSTRUMENT>  (1089) 
HITACHI M-80A

>  <ION MODE>  (1089) 
P

>  <INCHIKEY>  (1089) 
MFJNOXOAIFNSBX-UHFFFAOYSA-N

>  <FORMULA>  (1089) 
C7H7FO

>  <EXACT MASS>  (1089) 
126.048093064

>  <MW>  (1089) 
126

>  <ID>  (1089) 
JP010458

>  <CONTRIBUTOR>  (1089) 
University of Tokyo Team, {Faculty of Engineering, University of Tokyo

>  <COMMENT>  (1089) 
SMILES=COc(c1)cc(F)cc1
InChI=InChI=1S/C7H7FO/c1-9-7-4-2-3-6(8)5-7/h2-5H,1H3
computed SMILES=FC1=CC=CC(OC)=C1
accession=JP010458
date=2016.01.19 (Created 2008.10.21, modified 2011.05.06)
author=TAJIMA S, GUNMA COLLEGE OF TECHNOLOGY
license=CC BY-NC-SA
exact mass=126.04809
ionization energy=70 eV
ion type=[M]+*
computed spectral entropy=2.436152211232567
computed normalized entropy=0.6908403704688527
SPLASH=splash10-004j-9600000000-19f6ca9742420c9f94a3
submitter=submitter = University of Tokyo Team (Faculty of Engineering, University of Tokyo)
MoNA Rating=3.75

>  <NUM PEAKS>  (1089) 
34

>  <MASS SPECTRAL PEAKS>  (1089) 
15 3.72
26 1.41
29 2.81
31 1.91
37 1.27
38 2.07
39 3.06
50 3.54
51 2.1
56 1.06
57 11.32
61 1.16
62 1.67
63 4.15
64 1.22
68 1.1
69 1.66
70 2.33
74 1.76
75 5.93
77 1.8
81 2.54
82 1.86
83 33.28
84 2.69
95 7.35
96 42.35
97 11.9
98 1.28
111 3.32
112 3.3
125 1.89
126 99.99
127 8.9

>  <PREDICTED SPECTRUM>  (1089) 
14 36
15 97
16 15
25 30
26 41
27 34
28 28
29 29
31 107
32 0
33 71
36 11
37 106
38 136
39 118
41 5
43 17
44 5
49 122
50 269
51 230
52 99
53 54
55 94
56 216
57 457
58 60
61 112
62 237
63 362
64 185
65 74
68 190
69 248
70 151
71 14
74 161
75 346
76 97
77 244
78 65
81 230
82 166
83 626
84 229
85 28
86 10
92 147
93 55
94 147
95 528
96 441
97 331
98 57
107 102
109 57
110 12
111 432
112 93
123 100
124 55
125 295
126 999
127 272
128 77

$$$$

     RDKit          2D

  9  9  0  0  0  0  0  0  0  0999 V2000
    3.8981   -0.7504    0.0000 C   0  0  0  0  0  0  0  0  0  0  0  0
   -1.3000    0.7500    0.0000 C   0  0  0  0  0  0  0  0  0  0  0  0
    0.0000    1.5000    0.0000 C   0  0  0  0  0  0  0  0  0  0  0  0
   -1.3000   -0.7500    0.0000 C   0  0  0  0  0  0  0  0  0  0  0  0
    1.3000    0.7500    0.0000 C   0  0  0  0  0  0  0  0  0  0  0  0
    0.0000   -1.5000    0.0000 C   0  0  0  0  0  0  0  0  0  0  0  0
    1.3000   -0.7500    0.0000 C   0  0  0  0  0  0  0  0  0  0  0  0
   -0.0000   -3.0000    0.0000 F   0  0  0  0  0  0  0  0  0  0  0  0
    2.5989   -1.5002    0.0000 O   0  0  0  0  0  0  0  0  0  0  0  0
  3  2  2  0
  4  2  1  0
  5  3  1  0
  6  4  2  0
  7  5  2  0
  7  6  1  0
  8  6  1  0
  9  1  1  0
  9  7  1  0
M  END
>  <NAME>  (1090) 
ORTHO-FLUOROANISOLE

>  <SYNONYMS>  (1090) 


>  <SPECTRUM TYPE>  (1090) 
MS1

>  <INSTRUMENT TYPE>  (1090) 
EI-B

>  <INSTRUMENT>  (1090) 
HITACHI M-80A

>  <ION MODE>  (1090) 
P

>  <INCHIKEY>  (1090) 
JIXDOBAQOWOUPA-UHFFFAOYSA-N

>  <FORMULA>  (1090) 
C7H7FO

>  <EXACT MASS>  (1090) 
126.048093064

>  <MW>  (1090) 
126

>  <ID>  (1090) 
JP010457

>  <CONTRIBUTOR>  (1090) 
University of Tokyo Team, {Faculty of Engineering, University of Tokyo

>  <COMMENT>  (1090) 
SMILES=COc(c1)c(F)ccc1
InChI=InChI=1S/C7H7FO/c1-9-7-5-3-2-4-6(7)8/h2-5H,1H3
computed SMILES=FC=1C=CC=CC1OC
accession=JP010457
date=2016.01.19 (Created 2008.10.21, modified 2011.05.06)
author=TAJIMA S, GUNMA COLLEGE OF TECHNOLOGY
license=CC BY-NC-SA
exact mass=126.04809
ionization energy=70 eV
ion type=[M]+*
computed spectral entropy=2.684665416315382
computed normalized entropy=0.7182725308793856
SPLASH=splash10-0059-9600000000-350136586061a3e0d298
submitter=submitter = University of Tokyo Team (Faculty of Engineering, University of Tokyo)
MoNA Rating=3.75

>  <NUM PEAKS>  (1090) 
42

>  <MASS SPECTRAL PEAKS>  (1090) 
15 5.33
26 1.02
27 1.03
29 3.2
31 3.64
37 2.26
38 3.41
39 5.28
43 2.7
49 1.05
50 5.88
51 4.18
53 1.21
56 2.85
57 21.92
58 1.49
61 2.1
62 2.8
63 6.33
64 2.06
68 2.33
69 3.23
70 1.42
74 3.21
75 9.82
76 1.22
77 2.35
78 1.06
81 5.02
82 3.41
83 72.52
84 4.19
92 1.39
94 1.28
95 7.13
96 8.26
97 6.41
111 45.81
112 3.32
125 1.33
126 99.99
127 7.93

>  <PREDICTED SPECTRUM>  (1090) 
14 60
15 149
16 28
19 25
25 41
26 92
27 101
28 70
29 156
31 149
32 3
33 82
35 2
36 61
37 140
38 167
39 160
43 54
44 34
45 45
47 43
48 45
49 134
50 358
51 365
52 133
53 67
55 124
56 328
57 499
58 84
61 135
62 233
63 385
64 173
65 78
68 186
69 224
70 193
71 16
74 185
75 368
76 176
77 300
78 70
80 37
81 325
82 124
83 658
84 220
86 9
89 20
90 9
91 84
92 139
93 59
94 129
95 545
96 410
97 297
98 75
105 45
107 122
108 11
109 119
110 35
111 622
112 148
123 133
124 63
125 238
126 999
127 290
128 49

$$$$

     RDKit          2D

 11 11  0  0  0  0  0  0  0  0999 V2000
    3.8980    2.2543    0.0000 C   0  0  0  0  0  0  0  0  0  0  0  0
   -1.3199    2.2329    0.0000 C   0  0  0  0  0  0  0  0  0  0  0  0
   -0.0499   -0.0171    0.0000 C   0  0  0  0  0  0  0  0  0  0  0  0
   -0.0499    2.9829    0.0000 C   0  0  0  0  0  0  0  0  0  0  0  0
    1.3001    0.7329    0.0000 C   0  0  0  0  0  0  0  0  0  0  0  0
   -1.3199    0.7329    0.0000 C   0  0  0  0  0  0  0  0  0  0  0  0
    1.3001    2.2329    0.0000 C   0  0  0  0  0  0  0  0  0  0  0  0
   -2.6227   -0.0107    0.0000 C   0  0  0  0  0  0  0  0  0  0  0  0
   -2.6300   -1.5107    0.0000 Cl  0  0  0  0  0  0  0  0  0  0  0  0
   -3.9180    0.7457    0.0000 O   0  0  0  0  0  0  0  0  0  0  0  0
    2.5929    2.9936    0.0000 O   0  0  0  0  0  0  0  0  0  0  0  0
  4  2  2  0
  5  3  1  0
  6  2  1  0
  6  3  2  0
  7  4  1  0
  7  5  2  0
  8  6  1  0
  9  8  1  0
 10  8  2  0
 11  1  1  0
 11  7  1  0
M  END
>  <NAME>  (1091) 
PARA-METHOXYBENZOYL CHLORIDE

>  <SYNONYMS>  (1091) 
PARA-ANISOYL CHLORIDE

>  <SPECTRUM TYPE>  (1091) 
MS1

>  <INSTRUMENT TYPE>  (1091) 
EI-B

>  <INSTRUMENT>  (1091) 
HITACHI M-80A

>  <ION MODE>  (1091) 
P

>  <INCHIKEY>  (1091) 
MXMOTZIXVICDSD-UHFFFAOYSA-N

>  <FORMULA>  (1091) 
C8H7ClO2

>  <EXACT MASS>  (1091) 
170.013457144

>  <MW>  (1091) 
170

>  <ID>  (1091) 
JP010456

>  <CONTRIBUTOR>  (1091) 
University of Tokyo Team, {Faculty of Engineering, University of Tokyo

>  <COMMENT>  (1091) 
SMILES=COc(c1)ccc(c1)C(=O)Cl
InChI=InChI=1S/C8H7ClO2/c1-11-7-4-2-6(3-5-7)8(9)10/h2-5H,1H3
computed SMILES=O=C(Cl)C1=CC=C(OC)C=C1
accession=JP010456
date=2016.01.19 (Created 2008.10.21, modified 2011.05.06)
author=TAJIMA S, GUNMA COLLEGE OF TECHNOLOGY
license=CC BY-NC-SA
exact mass=170.01346
ionization energy=70 eV
ion type=[M]+*
computed spectral entropy=2.882874334149192
computed normalized entropy=0.7763076311341557
SPLASH=splash10-000i-9700000000-96a35c922da44dbb3578
submitter=submitter = University of Tokyo Team (Faculty of Engineering, University of Tokyo)
MoNA Rating=3.75

>  <NUM PEAKS>  (1091) 
41

>  <MASS SPECTRAL PEAKS>  (1091) 
35 3.12
36 15.73
37 2.82
38 8.31
39 2.22
40 2.31
44 2.23
45 1.54
50 8.95
51 4.56
52 1.56
53 3.04
61 3.31
62 5.36
63 15.77
64 14.99
65 2.51
73 2.05
74 5.26
75 4.88
76 4.58
77 26.81
78 3.24
79 2.73
83 1.25
91 2.74
92 24.1
93 2.11
99 1.49
105 1.63
107 10.89
111 1.18
120 2.46
121 1.51
122 3.97
127 1.16
135 99.99
136 9.4
154 2.21
170 9.14
172 3.11

>  <PREDICTED SPECTRUM>  (1091) 
14 5
15 37
25 3
26 18
27 4
28 32
35 29
36 62
37 63
38 149
39 208
40 58
44 39
47 0
49 52
50 212
51 208
52 85
53 119
61 98
62 179
63 406
64 340
65 99
66 87
73 93
74 102
75 144
76 158
77 458
78 144
79 111
91 43
92 442
93 107
107 394
108 33
109 17
135 999
136 222
137 90
170 250
171 72
172 173
173 4

$$$$

     RDKit          2D

 14 16  0  0  0  0  0  0  0  0999 V2000
    3.9000   -0.7500    0.0000 C   0  0  0  0  0  0  0  0  0  0  0  0
    3.9000    0.7500    0.0000 C   0  0  0  0  0  0  0  0  0  0  0  0
   -3.9000   -0.7500    0.0000 C   0  0  0  0  0  0  0  0  0  0  0  0
   -3.9000    0.7500    0.0000 C   0  0  0  0  0  0  0  0  0  0  0  0
    2.6000   -1.5000    0.0000 C   0  0  0  0  0  0  0  0  0  0  0  0
    2.6000    1.5000    0.0000 C   0  0  0  0  0  0  0  0  0  0  0  0
   -2.6000   -1.5000    0.0000 C   0  0  0  0  0  0  0  0  0  0  0  0
   -2.6000    1.5000    0.0000 C   0  0  0  0  0  0  0  0  0  0  0  0
   -0.0000   -1.5000    0.0000 C   0  0  0  0  0  0  0  0  0  0  0  0
   -0.0000    1.5000    0.0000 C   0  0  0  0  0  0  0  0  0  0  0  0
    1.3000   -0.7500    0.0000 C   0  0  0  0  0  0  0  0  0  0  0  0
    1.3000    0.7500    0.0000 C   0  0  0  0  0  0  0  0  0  0  0  0
   -1.3000   -0.7500    0.0000 C   0  0  0  0  0  0  0  0  0  0  0  0
   -1.3000    0.7500    0.0000 C   0  0  0  0  0  0  0  0  0  0  0  0
  2  1  2  0
  4  3  1  0
  5  1  1  0
  6  2  1  0
  7  3  2  0
  8  4  2  0
 11  5  2  0
 11  9  1  0
 12  6  2  0
 12 10  1  0
 12 11  1  0
 13  7  1  0
 13  9  2  0
 14  8  1  0
 14 10  2  0
 14 13  1  0
M  END
>  <NAME>  (1092) 
ANTHRACENE

>  <SYNONYMS>  (1092) 


>  <SPECTRUM TYPE>  (1092) 
MS1

>  <INSTRUMENT TYPE>  (1092) 
EI-B

>  <INSTRUMENT>  (1092) 
HITACHI M-80A

>  <ION MODE>  (1092) 
P

>  <INCHIKEY>  (1092) 
MWPLVEDNUUSJAV-UHFFFAOYSA-N

>  <FORMULA>  (1092) 
C14H10

>  <EXACT MASS>  (1092) 
178.07825032

>  <MW>  (1092) 
178

>  <ID>  (1092) 
JP010455

>  <CONTRIBUTOR>  (1092) 
University of Tokyo Team, {Faculty of Engineering, University of Tokyo

>  <COMMENT>  (1092) 
SMILES=c(c3)cc(c1)c(c3)cc(c2)c(ccc2)1
cas=120-12-7
InChI=InChI=1S/C14H10/c1-2-6-12-10-14-8-4-3-7-13(14)9-11(12)5-1/h1-10H
computed SMILES=C=1C=CC=2C=C3C=CC=CC3=CC2C1
accession=JP010455
date=2016.01.19 (Created 2008.10.21, modified 2011.05.06)
author=TAJIMA S, GUNMA COLLEGE OF TECHNOLOGY
license=CC BY-NC-SA
exact mass=178.07825
ionization energy=70 eV
ion type=[M]+*
computed spectral entropy=0.8616825832226689
computed normalized entropy=0.3742239910457446
SPLASH=splash10-004i-0900000000-2aa9bcc4f0117fe9bd96
submitter=submitter = University of Tokyo Team (Faculty of Engineering, University of Tokyo)
MoNA Rating=3.75

>  <NUM PEAKS>  (1092) 
10

>  <MASS SPECTRAL PEAKS>  (1092) 
63 1
150 1.09
151 1.04
152 1.3
167 1.01
176 2.28
177 2.8
178 99.99
179 16.37
180 1.34

>  <PREDICTED SPECTRUM>  (1092) 
26 13
27 51
28 2
29 30
37 31
38 60
39 154
40 26
41 51
43 1
49 13
50 139
51 154
52 55
61 51
62 118
63 155
64 25
65 60
69 37
74 157
75 205
76 219
77 88
78 37
81 12
82 72
83 32
84 5
85 30
86 94
87 158
88 189
89 137
93 17
94 65
95 23
96 76
98 84
99 68
100 108
101 129
102 184
103 14
106 41
110 113
111 84
112 3
113 95
121 12
122 55
123 38
124 4
125 17
126 110
136 58
137 76
138 93
139 181
140 17
149 95
150 200
151 255
152 217
153 72
163 81
164 40
165 40
173 18
174 158
175 212
176 511
177 428
178 999
179 439
180 182
181 19

$$$$

     RDKit          2D

 15 16  0  0  0  0  0  0  0  0999 V2000
   -4.2225    0.5081    0.0000 C   0  0  0  0  0  0  0  0  0  0  0  0
   -2.9230   -0.2427    0.0000 C   0  0  0  0  0  0  0  0  0  0  0  0
   -4.2230    2.0090    0.0000 C   0  0  0  0  0  0  0  0  0  0  0  0
   -1.6239    0.5073    0.0000 C   0  0  0  0  0  0  0  0  0  0  0  0
   -2.9239    2.7590    0.0000 C   0  0  0  0  0  0  0  0  0  0  0  0
   -0.3251    4.2581    0.0000 C   0  0  0  0  0  0  0  0  0  0  0  0
    0.9745    2.0079    0.0000 C   0  0  0  0  0  0  0  0  0  0  0  0
    0.9750    5.0079    0.0000 C   0  0  0  0  0  0  0  0  0  0  0  0
    2.2746    2.7577    0.0000 C   0  0  0  0  0  0  0  0  0  0  0  0
   -1.6244    2.0081    0.0000 C   0  0  0  0  0  0  0  0  0  0  0  0
   -0.3254    2.7581    0.0000 C   0  0  0  0  0  0  0  0  0  0  0  0
    2.2749    4.2577    0.0000 C   0  0  0  0  0  0  0  0  0  0  0  0
    3.5739    5.0077    0.0000 C   0  0  0  0  0  0  0  0  0  0  0  0
    4.8730    4.2577    0.0000 O   0  0  0  0  0  0  0  0  0  0  0  0
    3.5739    6.5077    0.0000 O   0  0  0  0  0  0  0  0  0  0  0  0
  2  1  2  0
  3  1  1  0
  4  2  1  0
  5  3  2  0
  8  6  2  0
  9  7  1  0
 10  4  2  0
 10  5  1  0
 11  6  1  0
 11  7  2  0
 11 10  1  0
 12  8  1  0
 12  9  2  0
 13 12  1  0
 14 13  1  0
 15 13  2  0
M  END
>  <NAME>  (1093) 
4-PHENYLBENZOIC ACID

>  <SYNONYMS>  (1093) 
4-CARBOXYLICBIPHENYL

>  <SPECTRUM TYPE>  (1093) 
MS1

>  <INSTRUMENT TYPE>  (1093) 
EI-B

>  <INSTRUMENT>  (1093) 
HITACHI M-80A

>  <ION MODE>  (1093) 
P

>  <INCHIKEY>  (1093) 
NNJMFJSKMRYHSR-UHFFFAOYSA-N

>  <FORMULA>  (1093) 
C13H10O2

>  <EXACT MASS>  (1093) 
198.06807956

>  <MW>  (1093) 
198

>  <ID>  (1093) 
JP010451

>  <CONTRIBUTOR>  (1093) 
University of Tokyo Team, {Faculty of Engineering, University of Tokyo

>  <COMMENT>  (1093) 
SMILES=OC(=O)c(c2)ccc(c2)c(c1)cccc1
InChI=InChI=1S/C13H10O2/c14-13(15)12-8-6-11(7-9-12)10-4-2-1-3-5-10/h1-9H,(H,14,15)
computed SMILES=O=C(O)C=1C=CC(=CC1)C=2C=CC=CC2
accession=JP010451
date=2016.01.19 (Created 2008.10.21, modified 2011.05.06)
author=TAJIMA S, GUNMA COLLEGE OF TECHNOLOGY
license=CC BY-NC-SA
exact mass=198.06808
ionization energy=70 eV
ion type=[M]+*
computed spectral entropy=2.642220591136612
computed normalized entropy=0.7431679108316972
SPLASH=splash10-0002-2900000000-8f42f55a8a1368ff9e38
submitter=submitter = University of Tokyo Team (Faculty of Engineering, University of Tokyo)
MoNA Rating=3.75

>  <NUM PEAKS>  (1093) 
35

>  <MASS SPECTRAL PEAKS>  (1093) 
27 2.09
38 1.39
39 4.15
45 6.3
50 5.64
51 7.81
52 1.5
62 2.32
63 5.53
74 3.79
75 4.74
76 9.91
77 4.37
85 3.81
86 1.17
87 1.75
90 1.95
98 1.04
99 1.54
101 1.33
102 2.68
115 2.03
126 3.02
127 3.65
150 2.81
151 8.5
152 30.63
153 16.67
154 2.36
170 2.17
181 37.19
182 5.37
198 99.99
199 14.86
200 1.43

>  <PREDICTED SPECTRUM>  (1093) 
17 1
38 15
39 92
40 3
41 36
42 5
43 77
44 11
45 114
48 0
49 58
50 196
51 233
52 82
53 49
54 10
55 56
62 100
63 202
64 46
65 109
66 12
68 12
69 63
70 24
73 28
74 197
75 205
76 302
77 191
78 54
79 18
82 35
83 35
84 59
85 42
86 96
87 109
88 45
89 50
92 28
97 87
98 100
99 113
101 68
102 169
105 36
110 22
111 24
113 82
114 5
115 295
121 11
122 50
123 10
125 49
126 193
127 101
139 136
140 20
141 132
149 17
150 200
151 422
152 834
153 597
154 137
155 16
168 36
169 57
170 46
181 823
182 245
183 42
197 132
198 999
199 372
200 124
201 5

$$$$

     RDKit          2D

  7  7  0  0  0  0  0  0  0  0999 V2000
    0.0000    2.5700    0.0000 C   0  0  0  0  0  0  0  0  0  0  0  0
    1.3000    1.8200    0.0000 C   0  0  0  0  0  0  0  0  0  0  0  0
   -1.3000    1.8200    0.0000 C   0  0  0  0  0  0  0  0  0  0  0  0
    1.3000    0.3200    0.0000 C   0  0  0  0  0  0  0  0  0  0  0  0
   -1.3000    0.3200    0.0000 C   0  0  0  0  0  0  0  0  0  0  0  0
   -0.0000   -0.4300    0.0000 C   0  0  0  0  0  0  0  0  0  0  0  0
   -0.0000   -1.9300    0.0000 Cl  0  0  0  0  0  0  0  0  0  0  0  0
  2  1  2  0
  3  1  1  0
  4  2  1  0
  5  3  2  0
  6  4  2  0
  6  5  1  0
  7  6  1  0
M  END
>  <NAME>  (1094) 
CHLOROBENZENE

>  <SYNONYMS>  (1094) 


>  <SPECTRUM TYPE>  (1094) 
MS1

>  <INSTRUMENT TYPE>  (1094) 
EI-B

>  <INSTRUMENT>  (1094) 
HITACHI M-80A

>  <ION MODE>  (1094) 
P

>  <INCHIKEY>  (1094) 
MVPPADPHJFYWMZ-UHFFFAOYSA-N

>  <FORMULA>  (1094) 
C6H5Cl

>  <EXACT MASS>  (1094) 
112.00797784

>  <MW>  (1094) 
112

>  <ID>  (1094) 
JP010450

>  <CONTRIBUTOR>  (1094) 
University of Tokyo Team, {Faculty of Engineering, University of Tokyo

>  <COMMENT>  (1094) 
SMILES=Clc(c1)cccc1
InChI=InChI=1S/C6H5Cl/c7-6-4-2-1-3-5-6/h1-5H
computed SMILES=ClC=1C=CC=CC1
accession=JP010450
date=2016.01.19 (Created 2008.10.21, modified 2011.05.06)
author=TAJIMA S, GUNMA COLLEGE OF TECHNOLOGY
license=CC BY-NC-SA
exact mass=112.00798
ionization energy=70 eV
ion type=[M]+*
computed spectral entropy=2.515798844511634
computed normalized entropy=0.7326174195482551
SPLASH=splash10-03di-9500000000-12a9a9ae9833f5dbfa91
submitter=submitter = University of Tokyo Team (Faculty of Engineering, University of Tokyo)
MoNA Rating=3.75

>  <NUM PEAKS>  (1094) 
31

>  <MASS SPECTRAL PEAKS>  (1094) 
26 3.19
27 3.08
35 1.67
36 1.43
37 7.3
38 11.66
39 4.92
49 5.45
50 28.58
51 31.65
52 2.45
56 3.47
57 1.11
60 1.58
61 2.16
62 1.92
63 1.92
72 1.05
73 5.19
74 10.75
75 9.3
76 6.5
77 63.88
78 4.38
84 1.23
85 1.5
86 1.37
112 99.99
113 6.89
114 32.11
115 2.16

>  <PREDICTED SPECTRUM>  (1094) 
14 3
25 24
26 70
31 31
35 27
36 13
37 101
49 122
50 629
51 695
52 248
57 26
60 55
61 84
62 133
73 253
74 452
75 782
76 310
77 999
78 328
84 24
85 191
86 130
87 10
99 54
111 762
112 907
113 497
114 644
115 158

$$$$

     RDKit          2D

  8  8  0  0  0  0  0  0  0  0999 V2000
    0.7500    1.0300    0.0000 C   0  0  0  0  0  0  0  0  0  0  0  0
   -0.7500    1.0300    0.0000 C   0  0  0  0  0  0  0  0  0  0  0  0
    1.2100   -0.3900    0.0000 C   0  0  0  0  0  0  0  0  0  0  0  0
   -1.2100   -0.3900    0.0000 C   0  0  0  0  0  0  0  0  0  0  0  0
   -0.0000   -2.7800    0.0000 Br  0  0  0  0  0  0  0  0  0  0  0  0
    0.0000   -1.2800    0.0000 N   0  0  0  0  0  0  0  0  0  0  0  0
    2.6377   -0.8500    0.0000 O   0  0  0  0  0  0  0  0  0  0  0  0
   -2.6377   -0.8500    0.0000 O   0  0  0  0  0  0  0  0  0  0  0  0
  2  1  1  0
  3  1  1  0
  4  2  1  0
  6  3  1  0
  6  4  1  0
  6  5  1  0
  7  3  2  0
  8  4  2  0
M  END
>  <NAME>  (1095) 
N-BROMOSUCCINIMIDE

>  <SYNONYMS>  (1095) 


>  <SPECTRUM TYPE>  (1095) 
MS1

>  <INSTRUMENT TYPE>  (1095) 
EI-B

>  <INSTRUMENT>  (1095) 
HITACHI M-80A

>  <ION MODE>  (1095) 
P

>  <INCHIKEY>  (1095) 
PCLIMKBDDGJMGD-UHFFFAOYSA-N

>  <FORMULA>  (1095) 
C4H4BrNO2

>  <EXACT MASS>  (1095) 
176.942540468

>  <MW>  (1095) 
177

>  <ID>  (1095) 
JP010448

>  <CONTRIBUTOR>  (1095) 
University of Tokyo Team, {Faculty of Engineering, University of Tokyo

>  <COMMENT>  (1095) 
SMILES=O=C(C1)N(Br)C(=O)C1
InChI=InChI=1S/C4H4BrNO2/c5-6-3(7)1-2-4(6)8/h1-2H2
computed SMILES=O=C1N(Br)C(=O)CC1
accession=JP010448
date=2016.01.19 (Created 2008.10.21, modified 2011.05.06)
author=TAJIMA S, GUNMA COLLEGE OF TECHNOLOGY
license=CC BY-NC-SA
exact mass=176.94254
ionization energy=70 eV
ion type=[M]+*
computed spectral entropy=2.9566512527402815
computed normalized entropy=0.7557857529564029
SPLASH=splash10-056r-9600000000-6d3b9078ad41c0069cf9
submitter=submitter = University of Tokyo Team (Faculty of Engineering, University of Tokyo)
MoNA Rating=3.75

>  <NUM PEAKS>  (1095) 
50

>  <MASS SPECTRAL PEAKS>  (1095) 
25 1.44
26 13.79
27 25.83
28 76.67
29 4.13
30 1.12
38 1
39 1.31
40 1.63
41 1.9
42 16.17
43 4.02
44 2.05
45 1.12
52 1.15
53 2.06
54 3.91
55 92.1
56 99.99
57 3.97
70 36.44
71 1.54
72 1.62
73 1.08
74 1.96
79 4.82
80 7.82
81 4.62
82 1.27
98 20.31
99 14.28
100 39.94
101 5.94
107 1.07
109 1.01
112 2.61
119 16.75
126 2.84
149 1.58
150 1.1
151 1.69
152 1.02
154 5.11
160 2.69
162 1.4
177 67
178 55.13
179 70.68
180 55.84
181 2.8

>  <PREDICTED SPECTRUM>  (1095) 
14 43
15 52
16 15
17 4
25 50
26 186
27 371
28 376
29 135
30 40
37 1
38 125
39 17
40 260
41 615
42 685
43 487
44 239
50 65
51 239
52 125
53 64
54 435
55 748
56 999
57 163
67 41
68 266
69 121
70 559
71 13
79 204
80 338
81 238
82 183
97 71
98 580
99 208
121 204
122 56
123 276
135 141
149 2
177 548
178 30
179 494
180 69

$$$$

     RDKit          2D

 13 13  0  0  0  0  0  0  0  0999 V2000
    4.5465    0.7504    0.0000 C   0  0  0  0  0  0  0  0  0  0  0  0
   -0.6506   -0.7508    0.0000 C   0  0  0  0  0  0  0  0  0  0  0  0
    0.6484   -1.5008    0.0000 C   0  0  0  0  0  0  0  0  0  0  0  0
   -0.6501    0.7500    0.0000 C   0  0  0  0  0  0  0  0  0  0  0  0
    1.9480   -0.7500    0.0000 C   0  0  0  0  0  0  0  0  0  0  0  0
    0.6492    3.0008    0.0000 C   0  0  0  0  0  0  0  0  0  0  0  0
   -0.6500    3.7506    0.0000 C   0  0  0  0  0  0  0  0  0  0  0  0
    0.6494    1.5008    0.0000 C   0  0  0  0  0  0  0  0  0  0  0  0
    1.9484    0.7508    0.0000 C   0  0  0  0  0  0  0  0  0  0  0  0
   -1.9489    3.0004    0.0000 C   0  0  0  0  0  0  0  0  0  0  0  0
   -1.9487    1.5004    0.0000 O   0  0  0  0  0  0  0  0  0  0  0  0
   -3.2481    3.7502    0.0000 O   0  0  0  0  0  0  0  0  0  0  0  0
    3.2476    1.5006    0.0000 O   0  0  0  0  0  0  0  0  0  0  0  0
  3  2  2  0
  4  2  1  0
  5  3  1  0
  6  7  2  0
  8  4  2  0
  8  6  1  0
  9  5  2  0
  9  8  1  0
 10  7  1  0
 11 10  2  0
 12 10  1  0
 13  1  1  0
 13  9  1  0
M  END
>  <NAME>  (1096) 
CIS-ORTHO-METHOXYCINNAMIC ACID

>  <SYNONYMS>  (1096) 


>  <SPECTRUM TYPE>  (1096) 
MS1

>  <INSTRUMENT TYPE>  (1096) 
EI-B

>  <INSTRUMENT>  (1096) 
HITACHI M-80A

>  <ION MODE>  (1096) 
P

>  <INCHIKEY>  (1096) 
FEGVSPGUHMGGBO-SREVYHEPSA-N

>  <FORMULA>  (1096) 
C10H10O3

>  <EXACT MASS>  (1096) 
178.06299417999998

>  <MW>  (1096) 
178

>  <ID>  (1096) 
JP010447

>  <CONTRIBUTOR>  (1096) 
University of Tokyo Team, {Faculty of Engineering, University of Tokyo

>  <COMMENT>  (1096) 
SMILES=COc(c1)c(ccc1)C=CC(O)=O
InChI=InChI=1S/C10H10O3/c1-13-9-5-3-2-4-8(9)6-7-10(11)12/h2-7H,1H3,(H,11,12)/b7-6-
computed SMILES=O=C(O)C=CC=1C=CC=CC1OC
accession=JP010447
date=2016.01.19 (Created 2008.10.21, modified 2011.05.06)
license=CC BY-NC-SA
author=TAJIMA S, GUNMA COLLEGE OF TECHNOLOGY
exact mass=178.06299
ionization energy=70 eV
ion type=[M]+*
computed spectral entropy=3.418857492393795
computed normalized entropy=0.82838530889186
SPLASH=splash10-004i-7900000000-fc18bd92c2e522313389
submitter=submitter = University of Tokyo Team (Faculty of Engineering, University of Tokyo)
MoNA Rating=3.75

>  <NUM PEAKS>  (1096) 
62

>  <MASS SPECTRAL PEAKS>  (1096) 
15 8.77
26 1.38
27 24.09
29 3.24
37 1.17
38 3.18
39 11.01
40 1.02
41 1.75
43 11.19
44 1.06
45 7.13
50 4.86
51 15.11
52 31.08
53 9.7
55 1.89
61 1.53
62 4.92
63 14.51
64 4.25
65 8.74
66 1.13
74 2.9
75 3.84
76 2.11
77 14.43
78 6.34
79 6.69
85 1.37
89 12.54
90 8.63
91 40.14
92 3.98
94 4.79
101 1.41
102 2.85
103 11.41
104 2.8
105 8.89
106 1.3
107 2.7
115 1.34
118 26.05
119 16.86
120 2.82
121 1.52
131 14.62
132 7.05
133 3.52
135 1.17
146 6.65
147 62.29
148 6.32
160 1.03
161 13.83
162 1.88
163 1.69
177 1.69
178 99.99
179 14.72
180 1.6

>  <PREDICTED SPECTRUM>  (1096) 
14 6
15 79
17 20
18 31
26 50
27 142
28 45
29 132
30 22
31 55
32 17
33 43
37 57
38 144
39 349
40 140
41 270
42 151
43 226
44 141
45 316
46 84
49 37
50 304
51 477
52 252
53 215
54 32
55 218
59 81
61 93
62 235
63 458
64 287
65 421
66 155
67 45
68 36
69 103
71 31
73 54
74 179
75 258
76 235
77 621
78 348
79 389
80 137
81 88
86 89
87 84
88 46
89 462
90 384
91 615
92 266
93 151
94 22
98 32
101 202
102 346
103 398
104 256
105 386
106 169
107 173
108 164
115 275
116 148
117 282
118 856
119 556
120 215
121 38
129 51
130 60
131 369
132 383
133 583
134 252
135 152
136 22
145 90
146 321
147 747
148 177
149 63
159 48
160 128
161 361
162 51
163 114
177 119
178 999
179 342
180 113

$$$$

     RDKit          2D

 13 13  0  0  0  0  0  0  0  0999 V2000
    3.8981   -0.7504    0.0000 C   0  0  0  0  0  0  0  0  0  0  0  0
    2.5987   -3.0002    0.0000 C   0  0  0  0  0  0  0  0  0  0  0  0
   -3.8981    0.7504    0.0000 C   0  0  0  0  0  0  0  0  0  0  0  0
   -2.5989    1.5002    0.0000 C   0  0  0  0  0  0  0  0  0  0  0  0
   -1.3000   -0.7500    0.0000 C   0  0  0  0  0  0  0  0  0  0  0  0
    0.0000    1.5000    0.0000 C   0  0  0  0  0  0  0  0  0  0  0  0
    0.0000   -1.5000    0.0000 C   0  0  0  0  0  0  0  0  0  0  0  0
    1.3000    0.7500    0.0000 C   0  0  0  0  0  0  0  0  0  0  0  0
   -5.1970    1.5006    0.0000 C   0  0  0  0  0  0  0  0  0  0  0  0
   -1.3000    0.7500    0.0000 C   0  0  0  0  0  0  0  0  0  0  0  0
    1.3000   -0.7500    0.0000 C   0  0  0  0  0  0  0  0  0  0  0  0
    2.5989   -1.5002    0.0000 N   0  0  0  0  0  0  0  0  0  0  0  0
   -6.4962    0.7508    0.0000 O   0  0  0  0  0  0  0  0  0  0  0  0
  3  4  2  0
  7  5  2  0
  8  6  1  0
  9  3  1  0
 10  4  1  0
 10  5  1  0
 10  6  2  0
 11  7  1  0
 11  8  2  0
 12  1  1  0
 12  2  1  0
 12 11  1  0
 13  9  2  0
M  END
>  <NAME>  (1097) 
(PARA-DIMETHYLAMINO)CINNAMALDEHYDE

>  <SYNONYMS>  (1097) 


>  <SPECTRUM TYPE>  (1097) 
MS1

>  <INSTRUMENT TYPE>  (1097) 
EI-B

>  <INSTRUMENT>  (1097) 
HITACHI M-80A

>  <ION MODE>  (1097) 
P

>  <INCHIKEY>  (1097) 
RUKJCCIJLIMGEP-ONEGZZNKSA-N

>  <FORMULA>  (1097) 
C11H13NO

>  <EXACT MASS>  (1097) 
175.099714036

>  <MW>  (1097) 
175

>  <ID>  (1097) 
JP010445

>  <CONTRIBUTOR>  (1097) 
University of Tokyo Team, {Faculty of Engineering, University of Tokyo

>  <COMMENT>  (1097) 
computed SMILES=O=CC=CC1=CC=C(C=C1)N(C)C
SMILES=O=CC([H])=C([H])c(c1)ccc(N(C)C)c1
InChI=InChI=1S/C11H13NO/c1-12(2)11-7-5-10(6-8-11)4-3-9-13/h3-9H,1-2H3/b4-3+
accession=JP010445
date=2016.01.19 (Created 2008.10.21, modified 2011.05.06)
author=TAJIMA S, GUNMA COLLEGE OF TECHNOLOGY
license=CC BY-NC-SA
exact mass=175.09971
ionization energy=70 eV
ion type=[M]+*
computed spectral entropy=3.032585983625353
computed normalized entropy=0.760240188535557
SPLASH=splash10-00b9-2900000000-f859df078ddde6541a64
submitter=submitter = University of Tokyo Team (Faculty of Engineering, University of Tokyo)
MoNA Rating=3.75

>  <NUM PEAKS>  (1097) 
54

>  <MASS SPECTRAL PEAKS>  (1097) 
15 5.51
27 2.24
28 1.43
29 6.14
39 3.2
41 1.03
42 5.07
44 1.45
50 2.71
51 4.83
52 1.38
62 1.15
63 3.32
64 1.15
65 1.63
72 2.21
73 2.68
74 1.73
75 2.07
76 1.87
77 6.86
78 1.86
79 1.08
86 1.04
89 1.58
91 2.09
101 1.46
102 3.69
103 5.29
104 2.51
105 1.77
116 1.02
117 1.13
118 1.32
119 1.47
120 10.02
121 28.31
122 2.61
128 1.06
129 1.17
130 4.74
131 8.91
132 4.25
134 6.48
144 3.28
145 2.37
146 17.83
147 11.18
148 1.58
158 1.56
174 20.62
175 99.99
176 14.45
177 1.2

>  <PREDICTED SPECTRUM>  (1097) 
14 7
15 74
16 7
17 17
18 15
26 45
27 144
28 97
29 101
30 96
31 21
34 1
36 17
37 50
38 107
39 265
40 117
41 188
42 403
43 189
44 283
45 45
46 1
49 19
50 229
51 344
52 193
53 182
54 74
55 161
56 100
57 72
58 109
61 48
62 146
63 267
64 162
65 233
66 109
67 103
68 45
69 43
70 20
71 76
72 72
73 68
74 154
75 173
76 195
77 416
78 250
79 186
80 66
81 31
82 14
83 27
84 59
85 74
86 75
87 125
88 70
89 223
90 111
91 308
92 139
93 101
94 56
97 9
98 89
99 84
100 14
101 100
102 232
103 218
104 251
105 241
106 147
107 58
113 39
114 54
115 364
116 220
117 251
118 206
119 143
120 135
121 70
122 28
127 8
128 186
129 282
130 364
131 421
132 402
133 180
134 157
135 37
141 12
142 123
143 207
144 247
145 206
146 298
147 183
148 128
156 43
157 111
158 413
159 366
160 479
161 147
162 18
172 134
173 109
174 993
175 999
176 328
177 80

$$$$

     RDKit          2D

 14 14  0  0  0  0  0  0  0  0999 V2000
   -0.9400    1.7058    0.0000 C   0  0  0  0  0  0  0  0  0  0  0  0
    0.3590    2.4558    0.0000 C   0  0  0  0  0  0  0  0  0  0  0  0
    0.3600   -0.5458    0.0000 C   0  0  0  0  0  0  0  0  0  0  0  0
   -0.9395    0.2050    0.0000 C   0  0  0  0  0  0  0  0  0  0  0  0
    1.6586    1.7050    0.0000 C   0  0  0  0  0  0  0  0  0  0  0  0
    1.6590    0.2042    0.0000 C   0  0  0  0  0  0  0  0  0  0  0  0
    2.9576    3.9550    0.0000 N   0  0  0  0  0  0  0  0  0  0  0  0
    2.9576    2.4550    0.0000 N   0  0  0  0  0  0  0  0  0  0  0  0
   -2.2386   -0.5450    0.0000 N   0  0  0  0  0  0  0  0  0  0  0  0
    2.9582   -0.5456    0.0000 N   0  0  0  0  0  0  0  0  0  0  0  0
   -3.5376    0.2050    0.0000 O   0  0  0  0  0  0  0  0  0  0  0  0
   -2.2386   -2.0450    0.0000 O   0  0  0  0  0  0  0  0  0  0  0  0
    4.2571    0.2046    0.0000 O   0  0  0  0  0  0  0  0  0  0  0  0
    2.9584   -2.0456    0.0000 O   0  0  0  0  0  0  0  0  0  0  0  0
  2  1  2  0
  4  1  1  0
  4  3  2  0
  5  2  1  0
  6  3  1  0
  6  5  2  0
  8  5  1  0
  8  7  1  0
  9  4  1  0
 10  6  1  0
 11  9  1  0
 12  9  2  0
 13 10  1  0
 14 10  2  0
M  CHG  4   9   1  10   1  11  -1  13  -1
M  END
>  <NAME>  (1098) 
2,4-DINITROPHENYLHYDRAZINE

>  <SYNONYMS>  (1098) 


>  <SPECTRUM TYPE>  (1098) 
MS1

>  <INSTRUMENT TYPE>  (1098) 
EI-B

>  <INSTRUMENT>  (1098) 
HITACHI M-80A

>  <ION MODE>  (1098) 
P

>  <INCHIKEY>  (1098) 
HORQAOAYAYGIBM-UHFFFAOYSA-N

>  <FORMULA>  (1098) 
C6H6N4O4

>  <EXACT MASS>  (1098) 
198.038904672

>  <MW>  (1098) 
198

>  <ID>  (1098) 
JP010444

>  <CONTRIBUTOR>  (1098) 
University of Tokyo Team, {Faculty of Engineering, University of Tokyo

>  <COMMENT>  (1098) 
SMILES=NNc(c1)c([N+1]([O-1])=O)cc(c1)[N+1]([O-1])=O
InChI=InChI=1S/C6H6N4O4/c7-8-5-2-1-4(9(11)12)3-6(5)10(13)14/h1-3,8H,7H2
computed SMILES=O=N(=O)C1=CC=C(NN)C(=C1)N(=O)=O
accession=JP010444
date=2016.01.19 (Created 2008.10.21, modified 2011.05.06)
author=TAJIMA S, GUNMA COLLEGE OF TECHNOLOGY
license=CC BY-NC-SA
exact mass=198.0389
ionization energy=70 eV
ion type=[M]+*
computed spectral entropy=3.429159177148161
computed normalized entropy=0.8214760527558558
SPLASH=splash10-0fb9-9100000000-7e4892ecdd7649e90ab2
submitter=submitter = University of Tokyo Team (Faculty of Engineering, University of Tokyo)
MoNA Rating=3.75

>  <NUM PEAKS>  (1098) 
65

>  <MASS SPECTRAL PEAKS>  (1098) 
17 3.02
26 3.33
27 9.05
28 16.75
29 18.21
30 71.75
31 5.56
37 6.35
38 11.85
39 24.11
40 4.92
41 3.29
42 1.99
43 2.18
44 1.97
46 9.66
48 1.04
49 1.94
50 31.61
51 90.45
52 45.87
53 11.78
54 3.91
55 2.27
61 7.14
62 16.38
63 30.84
64 13.41
65 5.91
66 7.91
67 3.25
68 4.86
73 2.7
74 17.99
75 39.72
76 40.42
77 25.59
78 88.46
79 99.99
80 9.03
87 1.74
88 3.64
89 2.73
90 4.27
91 3.76
92 12.85
93 3.17
94 1.71
95 1.6
104 2.01
105 6.67
106 9.25
107 3.27
122 19.55
123 1.6
135 2.32
136 1.26
137 1.15
152 1.61
180 4.97
181 1.62
182 3.23
198 39.27
199 10.76
200 1.1

>  <PREDICTED SPECTRUM>  (1098) 
14 25
15 66
16 9
17 12
18 9
26 16
28 52
29 9
30 370
31 0
32 10
33 3
36 7
37 155
38 241
39 267
40 169
41 192
42 159
43 117
44 235
45 103
46 300
48 24
49 112
50 500
51 590
52 546
53 420
54 213
55 114
56 51
57 77
59 15
60 31
61 315
62 509
63 669
64 487
65 384
66 339
67 229
68 193
69 231
70 16
74 410
75 579
76 507
77 552
78 513
79 537
80 308
81 156
82 99
83 9
86 76
87 124
88 252
89 221
90 242
91 360
92 382
93 308
94 166
95 78
96 26
98 10
100 30
101 2
103 135
104 242
105 411
106 461
107 399
108 179
109 15
110 8
111 13
117 58
118 87
119 92
120 98
121 202
122 241
123 51
134 88
135 269
136 156
137 66
138 69
151 67
152 130
153 136
154 33
164 66
166 28
167 197
168 252
169 35
181 59
182 220
183 35
198 999
199 304
200 76

$$$$

     RDKit          2D

  6  5  0  0  0  0  0  0  0  0999 V2000
    1.2990    2.2500    0.0000 C   0  0  0  0  0  0  0  0  0  0  0  0
   -2.5981    3.0000    0.0000 C   0  0  0  0  0  0  0  0  0  0  0  0
   -1.2990    2.2500    0.0000 C   0  0  0  0  0  0  0  0  0  0  0  0
   -3.8971    2.2500    0.0000 I   0  0  0  0  0  0  0  0  0  0  0  0
   -1.2990    0.7500    0.0000 O   0  0  0  0  0  0  0  0  0  0  0  0
    0.0000    3.0000    0.0000 O   0  0  0  0  0  0  0  0  0  0  0  0
  3  2  1  0
  4  2  1  0
  5  3  2  0
  6  1  1  0
  6  3  1  0
M  END
>  <NAME>  (1099) 
IODOACETIC ACID METHYL ESTER

>  <SYNONYMS>  (1099) 


>  <SPECTRUM TYPE>  (1099) 
MS1

>  <INSTRUMENT TYPE>  (1099) 
EI-B

>  <INSTRUMENT>  (1099) 
JEOL JMS-DX-303

>  <ION MODE>  (1099) 
P

>  <INCHIKEY>  (1099) 
YDGMIJCIBXSCQR-UHFFFAOYSA-N

>  <FORMULA>  (1099) 
C3H5IO2

>  <EXACT MASS>  (1099) 
199.9334274

>  <MW>  (1099) 
200

>  <ID>  (1099) 
JP010443

>  <CONTRIBUTOR>  (1099) 
University of Tokyo Team, {Faculty of Engineering, University of Tokyo

>  <COMMENT>  (1099) 
SMILES=COC(=O)CI
InChI=InChI=1S/C3H5IO2/c1-6-3(5)2-4/h2H2,1H3
computed SMILES=O=C(OC)CI
accession=JP010443
date=2016.01.19 (Created 2008.10.21, modified 2011.05.06)
author=UOEH
license=CC BY-NC-SA
exact mass=199.93342
ionization energy=70 eV
ion type=[M]+*
computed spectral entropy=1.8620934738209838
computed normalized entropy=0.6876140896734811
SPLASH=splash10-0uk9-7690000000-11c4a47c80e5297e59da
submitter=submitter = University of Tokyo Team (Faculty of Engineering, University of Tokyo)
MoNA Rating=3.75

>  <NUM PEAKS>  (1099) 
15

>  <MASS SPECTRAL PEAKS>  (1099) 
41 1.06
42 10.9
45 1.79
59 5.75
73 59.41
74 3.43
127 8.35
128 1.44
139 1.05
140 3.09
141 31.7
168 3.91
169 29.85
200 99.99
201 3.82

>  <PREDICTED SPECTRUM>  (1099) 
14 17
15 12
25 6
26 20
27 42
28 11
29 36
31 42
32 25
33 30
37 16
38 85
40 22
41 261
42 263
43 160
44 85
45 248
46 81
52 15
53 85
57 57
58 50
59 264
60 65
71 55
72 32
73 999
74 195
75 23
113 29
127 269
141 386
168 112
169 439
200 710
201 138
202 12

$$$$

     RDKit          2D

  8  7  0  0  0  0  0  0  0  0999 V2000
   -4.2219    2.8125    0.0000 C   0  0  0  0  0  0  0  0  0  0  0  0
   -1.6238    2.8125    0.0000 C   0  0  0  0  0  0  0  0  0  0  0  0
   -0.3248    2.0625    0.0000 C   0  0  0  0  0  0  0  0  0  0  0  0
   -1.0748    0.7635    0.0000 Cl  0  0  0  0  0  0  0  0  0  0  0  0
    0.9743    1.3125    0.0000 Cl  0  0  0  0  0  0  0  0  0  0  0  0
    0.4252    3.3615    0.0000 Cl  0  0  0  0  0  0  0  0  0  0  0  0
   -1.6238    4.3125    0.0000 O   0  0  0  0  0  0  0  0  0  0  0  0
   -2.9228    2.0625    0.0000 O   0  0  0  0  0  0  0  0  0  0  0  0
  3  2  1  0
  4  3  1  0
  5  3  1  0
  6  3  1  0
  7  2  2  0
  8  1  1  0
  8  2  1  0
M  END
>  <NAME>  (1100) 
TRICHLOROACETIC ACID METHYL ESTER

>  <SYNONYMS>  (1100) 


>  <SPECTRUM TYPE>  (1100) 
MS1

>  <INSTRUMENT TYPE>  (1100) 
EI-B

>  <INSTRUMENT>  (1100) 
JEOL JMS-DX-303

>  <ION MODE>  (1100) 
P

>  <INCHIKEY>  (1100) 
VHFUHRXYRYWELT-UHFFFAOYSA-N

>  <FORMULA>  (1100) 
C3H3Cl3O2

>  <EXACT MASS>  (1100) 
175.919862376

>  <MW>  (1100) 
176

>  <ID>  (1100) 
JP010442

>  <CONTRIBUTOR>  (1100) 
University of Tokyo Team, {Faculty of Engineering, University of Tokyo

>  <COMMENT>  (1100) 
SMILES=COC(=O)C(Cl)(Cl)Cl
InChI=InChI=1S/C3H3Cl3O2/c1-8-2(7)3(4,5)6/h1H3
computed SMILES=O=C(OC)C(Cl)(Cl)Cl
accession=JP010442
date=2016.01.19 (Created 2008.10.21, modified 2011.05.06)
author=UOEH
license=CC BY-NC-SA
exact mass=175.91986
ionization energy=70 eV
ion type=[M]+*
computed spectral entropy=2.058839053707166
computed normalized entropy=0.6872573600392734
SPLASH=splash10-0aor-9600000000-2f0ebcd417ccb1fe7efe
submitter=submitter = University of Tokyo Team (Faculty of Engineering, University of Tokyo)
MoNA Rating=3.75

>  <NUM PEAKS>  (1100) 
20

>  <MASS SPECTRAL PEAKS>  (1100) 
47 5.71
49 2.64
59 99.99
60 3.53
61 1.27
63 3.85
65 1.28
82 11.16
84 7.17
86 1.33
110 1.83
112 1.42
113 4.46
115 2.72
117 31.9
119 29.64
121 10
123 1.03
141 6.73
143 5.95

>  <PREDICTED SPECTRUM>  (1100) 
14 25
15 243
25 20
26 8
27 7
28 76
29 106
31 198
32 20
33 59
35 118
36 79
37 98
38 209
39 125
40 99
41 74
42 16
43 5
45 127
47 196
48 14
49 314
50 82
51 139
52 84
53 160
54 18
55 2
59 999
60 113
61 69
62 23
63 415
64 53
65 107
69 126
71 33
73 20
75 119
76 27
77 132
78 67
81 255
82 470
83 137
84 331
85 79
86 170
97 185
98 28
99 78
109 65
112 201
113 139
117 860
119 765
120 4
121 491
127 6
141 261
143 175
145 11

$$$$

     RDKit          2D

  7  6  0  0  0  0  0  0  0  0999 V2000
   -3.8971    2.2500    0.0000 C   0  0  0  0  0  0  0  0  0  0  0  0
    0.0000    1.5000    0.0000 C   0  0  0  0  0  0  0  0  0  0  0  0
   -1.2990    2.2500    0.0000 C   0  0  0  0  0  0  0  0  0  0  0  0
    1.2990    2.2500    0.0000 Cl  0  0  0  0  0  0  0  0  0  0  0  0
   -0.0000    0.0000    0.0000 Cl  0  0  0  0  0  0  0  0  0  0  0  0
   -1.2990    3.7500    0.0000 O   0  0  0  0  0  0  0  0  0  0  0  0
   -2.5981    1.5000    0.0000 O   0  0  0  0  0  0  0  0  0  0  0  0
  3  2  1  0
  4  2  1  0
  5  2  1  0
  6  3  2  0
  7  1  1  0
  7  3  1  0
M  END
>  <NAME>  (1101) 
DICHLOROACETIC ACID METHYL ESTER

>  <SYNONYMS>  (1101) 


>  <SPECTRUM TYPE>  (1101) 
MS1

>  <INSTRUMENT TYPE>  (1101) 
EI-B

>  <INSTRUMENT>  (1101) 
JEOL JMS-DX-303

>  <ION MODE>  (1101) 
P

>  <INCHIKEY>  (1101) 
HKMLRUAPIDAGIE-UHFFFAOYSA-N

>  <FORMULA>  (1101) 
C3H4Cl2O2

>  <EXACT MASS>  (1101) 
141.958834728

>  <MW>  (1101) 
142

>  <ID>  (1101) 
JP010441

>  <CONTRIBUTOR>  (1101) 
University of Tokyo Team, {Faculty of Engineering, University of Tokyo

>  <COMMENT>  (1101) 
SMILES=COC(=O)C(Cl)Cl
InChI=InChI=1S/C3H4Cl2O2/c1-7-3(6)2(4)5/h2H,1H3
computed SMILES=O=C(OC)C(Cl)Cl
accession=JP010441
date=2016.01.19 (Created 2008.10.21, modified 2011.05.06)
author=UOEH
license=CC BY-NC-SA
exact mass=141.95883
ionization energy=70 eV
ion type=[M]+*
computed spectral entropy=1.8696196779170653
computed normalized entropy=0.6240943806700856
SPLASH=splash10-0a4i-9000000000-c085f021834768233f00
submitter=submitter = University of Tokyo Team (Faculty of Engineering, University of Tokyo)
MoNA Rating=3.75

>  <NUM PEAKS>  (1101) 
20

>  <MASS SPECTRAL PEAKS>  (1101) 
40 1.11
44 1.23
47 2.7
48 6.77
49 1.77
50 2.38
59 99.99
60 3.25
63 8.77
65 3.85
76 4.3
78 1.56
83 49.35
84 1.22
85 32.02
87 5.69
98 1.4
100 1.17
111 1.65
113 2.09

>  <PREDICTED SPECTRUM>  (1101) 
14 28
15 360
16 6
25 13
28 29
29 125
31 62
33 67
35 44
41 108
43 111
45 100
47 273
48 176
49 400
50 672
51 261
52 60
53 51
59 999
60 12
63 105
65 25
75 196
76 95
79 26
81 137
83 630
85 429
87 164
107 450
108 4
109 215
111 254
113 99
115 33
142 12

$$$$

     RDKit          2D

  8  7  0  0  0  0  0  0  0  0999 V2000
    0.0000    0.0000    0.0000 C   0  0  0  0  0  0  0  0  0  0  0  0
   -2.5981    6.0000    0.0000 C   0  0  0  0  0  0  0  0  0  0  0  0
   -1.2990    2.2500    0.0000 C   0  0  0  0  0  0  0  0  0  0  0  0
   -1.2990    3.7500    0.0000 C   0  0  0  0  0  0  0  0  0  0  0  0
    0.0000    1.5000    0.0000 C   0  0  0  0  0  0  0  0  0  0  0  0
   -2.5981    4.5000    0.0000 C   0  0  0  0  0  0  0  0  0  0  0  0
    1.2990    2.2500    0.0000 O   0  0  0  0  0  0  0  0  0  0  0  0
   -3.8971    3.7500    0.0000 O   0  0  0  0  0  0  0  0  0  0  0  0
  4  3  1  0
  5  1  1  0
  5  3  1  0
  6  2  1  0
  6  4  1  0
  7  5  2  0
  8  6  2  0
M  END
>  <NAME>  (1102) 
2,5-HEXADIONE

>  <SYNONYMS>  (1102) 


>  <SPECTRUM TYPE>  (1102) 
MS1

>  <INSTRUMENT TYPE>  (1102) 
EI-B

>  <INSTRUMENT>  (1102) 
JEOL JMS-DX-303

>  <ION MODE>  (1102) 
P

>  <INCHIKEY>  (1102) 
OJVAMHKKJGICOG-UHFFFAOYSA-N

>  <FORMULA>  (1102) 
C6H10O2

>  <EXACT MASS>  (1102) 
114.06807956

>  <MW>  (1102) 
114

>  <ID>  (1102) 
JP010439

>  <CONTRIBUTOR>  (1102) 
University of Tokyo Team, {Faculty of Engineering, University of Tokyo

>  <COMMENT>  (1102) 
SMILES=CC(=O)CCC(C)=O
InChI=InChI=1S/C6H10O2/c1-5(7)3-4-6(2)8/h3-4H2,1-2H3
computed SMILES=O=C(C)CCC(=O)C
accession=JP010439
date=2016.01.19 (Created 2008.10.21, modified 2011.05.06)
author=UOEH
license=CC BY-NC-SA
exact mass=114.06808
ionization energy=70 eV
ion type=[M]+*
computed spectral entropy=1.652301193182656
computed normalized entropy=0.6260952252308747
SPLASH=splash10-0006-9000000000-61efac74c40d64ce7b37
submitter=submitter = University of Tokyo Team (Faculty of Engineering, University of Tokyo)
MoNA Rating=3.75

>  <NUM PEAKS>  (1102) 
14

>  <MASS SPECTRAL PEAKS>  (1102) 
39 1.72
41 1.44
42 3.49
43 99.99
44 2.66
53 1.29
55 1.54
57 8.07
71 18.56
72 3.99
99 42.15
100 2.52
114 16.35
115 1.21

>  <PREDICTED SPECTRUM>  (1102) 
14 36
15 109
16 11
17 0
25 9
26 41
27 115
28 76
29 57
30 4
37 15
38 52
39 197
40 69
41 171
42 124
43 999
44 149
45 83
50 3
51 20
52 15
53 93
54 69
55 143
56 121
57 247
58 255
68 11
69 44
71 222
72 133
81 61
82 5
86 31
96 36
97 1
99 124
100 8
114 73

$$$$

     RDKit          2D

  6  5  0  0  0  0  0  0  0  0999 V2000
    1.3493    2.0625    0.0000 C   0  0  0  0  0  0  0  0  0  0  0  0
    0.0502    1.3125    0.0000 C   0  0  0  0  0  0  0  0  0  0  0  0
    0.8002    0.0135    0.0000 Cl  0  0  0  0  0  0  0  0  0  0  0  0
   -0.6998    2.6115    0.0000 Cl  0  0  0  0  0  0  0  0  0  0  0  0
   -1.2488    0.5625    0.0000 Cl  0  0  0  0  0  0  0  0  0  0  0  0
    1.3493    3.5625    0.0000 O   0  0  0  0  0  0  0  0  0  0  0  0
  2  1  1  0
  3  2  1  0
  4  2  1  0
  5  2  1  0
  6  1  2  0
M  END
>  <NAME>  (1103) 
TRICHLOROACETALDEHYDE

>  <SYNONYMS>  (1103) 
CHLORAL

>  <SPECTRUM TYPE>  (1103) 
MS1

>  <INSTRUMENT TYPE>  (1103) 
EI-B

>  <INSTRUMENT>  (1103) 
JEOL JMS-DX-303

>  <ION MODE>  (1103) 
P

>  <INCHIKEY>  (1103) 
HFFLGKNGCAIQMO-UHFFFAOYSA-N

>  <FORMULA>  (1103) 
C2HCl3O

>  <EXACT MASS>  (1103) 
145.909297692

>  <MW>  (1103) 
146

>  <ID>  (1103) 
JP010438

>  <CONTRIBUTOR>  (1103) 
University of Tokyo Team, {Faculty of Engineering, University of Tokyo

>  <COMMENT>  (1103) 
SMILES=O=CC(Cl)(Cl)Cl
InChI=InChI=1S/C2HCl3O/c3-2(4,5)1-6/h1H
computed SMILES=O=CC(Cl)(Cl)Cl
accession=JP010438
date=2016.01.19 (Created 2008.10.21, modified 2011.05.06)
author=UOEH
license=CC BY-NC-SA
exact mass=145.9093
ionization energy=70 eV
ion type=[M]+*
computed spectral entropy=2.9840540893389793
computed normalized entropy=0.8534384773609437
SPLASH=splash10-01q9-9500000000-eedc44e9ee3b1422c7a1
submitter=submitter = University of Tokyo Team (Faculty of Engineering, University of Tokyo)
MoNA Rating=3.75

>  <NUM PEAKS>  (1103) 
33

>  <MASS SPECTRAL PEAKS>  (1103) 
35 3.07
37 1.27
40 9.25
44 6.74
47 24.91
48 10.96
49 12.28
50 2.75
60 1.79
61 34.59
62 1.51
82 99.99
83 32.93
84 66.29
85 19.68
86 11.7
87 3.39
107 3.51
110 14.86
111 42.98
112 12.76
113 28.17
114 3.92
115 5.46
117 13.19
118 18.02
119 14.28
120 17.09
121 4.29
122 5.32
146 10.5
148 10.7
150 3.29

>  <PREDICTED SPECTRUM>  (1103) 
14 32
15 82
25 56
26 136
28 71
29 161
31 155
32 86
33 38
35 349
36 253
37 211
38 268
39 196
40 197
41 295
43 76
45 84
47 602
48 310
49 470
50 404
51 246
52 124
53 54
55 69
56 139
57 72
63 308
64 43
66 3
67 88
69 65
75 185
76 3
79 74
81 172
82 411
83 977
84 455
85 999
86 15
87 505
89 156
99 25
110 32
111 962
112 250
113 742
115 323
117 660
118 518
119 582
120 556
121 362
122 332
145 30
146 282
147 91
148 203
150 43

$$$$

     RDKit          2D

 21 22  0  0  0  0  0  0  0  0999 V2000
   -5.7606    0.7205    0.0000 C   0  0  0  0  0  0  0  0  0  0  0  0
   -4.4615   -1.5295    0.0000 C   0  0  0  0  0  0  0  0  0  0  0  0
    6.2862    0.7536    0.0000 C   0  0  0  0  0  0  0  0  0  0  0  0
    4.1851    2.2826    0.0000 C   0  0  0  0  0  0  0  0  0  0  0  0
    3.9122   -0.3030    0.0000 C   0  0  0  0  0  0  0  0  0  0  0  0
   -0.3987    2.2134    0.0000 C   0  0  0  0  0  0  0  0  0  0  0  0
   -4.4615   -0.0295    0.0000 C   0  0  0  0  0  0  0  0  0  0  0  0
    5.6768    2.1252    0.0000 C   0  0  0  0  0  0  0  0  0  0  0  0
    5.4039   -0.4604    0.0000 C   0  0  0  0  0  0  0  0  0  0  0  0
    3.3028    1.0685    0.0000 C   0  0  0  0  0  0  0  0  0  0  0  0
    1.0611    2.5250    0.0000 C   0  0  0  0  0  0  0  0  0  0  0  0
   -1.8635   -0.0295    0.0000 C   0  0  0  0  0  0  0  0  0  0  0  0
    0.8113    0.1176    0.0000 C   0  0  0  0  0  0  0  0  0  0  0  0
    6.5593    3.3382    0.0000 Cl  0  0  0  0  0  0  0  0  0  0  0  0
    6.0136   -1.8309    0.0000 Cl  0  0  0  0  0  0  0  0  0  0  0  0
   -3.1625    0.7205    0.0000 N   0  0  0  0  0  0  0  0  0  0  0  0
   -0.5644    0.7205    0.0000 N   0  0  0  0  0  0  0  0  0  0  0  0
    1.8111    1.2260    0.0000 N   0  0  0  0  0  0  0  0  0  0  0  0
    1.6706    3.8956    0.0000 O   0  0  0  0  0  0  0  0  0  0  0  0
   -1.8635   -1.5295    0.0000 O   0  0  0  0  0  0  0  0  0  0  0  0
    1.1269   -1.3488    0.0000 O   0  0  0  0  0  0  0  0  0  0  0  0
  7  1  1  0
  7  2  1  0
  8  3  2  0
  8  4  1  0
  9  3  1  0
  9  5  2  0
 10  4  2  0
 10  5  1  0
 11  6  1  0
 14  8  1  0
 15  9  1  0
 16  7  1  0
 16 12  2  3
 17  6  1  0
 17 12  1  0
 17 13  1  0
 18 10  1  0
 18 11  1  0
 18 13  1  0
 19 11  2  0
 20 12  1  0
 21 13  2  0
M  END
>  <NAME>  (1104) 
3-(3,5-DICHLOROPHENYL)-N-ISOPROPYL-2,4-DIOXOIMIDAZOLIDINE-1-CARBOXAMIDE

>  <SYNONYMS>  (1104) 


>  <SPECTRUM TYPE>  (1104) 
MS1

>  <INSTRUMENT TYPE>  (1104) 
EI-B

>  <INSTRUMENT>  (1104) 
JEOL JMS-DX-303

>  <ION MODE>  (1104) 
P

>  <INCHIKEY>  (1104) 
ONUFESLQCSAYKA-UHFFFAOYSA-N

>  <FORMULA>  (1104) 
C13H13Cl2N3O3

>  <EXACT MASS>  (1104) 
329.033396636

>  <MW>  (1104) 
329

>  <ID>  (1104) 
JP010437

>  <CONTRIBUTOR>  (1104) 
University of Tokyo Team, {Faculty of Engineering, University of Tokyo

>  <COMMENT>  (1104) 
SMILES=CC(C)NC(=O)N(C2)C(=O)N(C(=O)2)c(c1)cc(Cl)cc(Cl)1
InChI=InChI=1S/C13H13Cl2N3O3/c1-7(2)16-12(20)17-6-11(19)18(13(17)21)10-4-8(14)3-9(15)5-10/h3-5,7H,6H2,1-2H3,(H,16,20)
computed SMILES=O=C1N(C(=O)CN1C(O)=NC(C)C)C=2C=C(Cl)C=C(Cl)C2
accession=JP010437
date=2016.01.19 (Created 2008.10.21, modified 2011.05.06)
author=UOEH
license=CC BY-NC-SA
exact mass=329.0334
ionization energy=70 eV
ion type=[M]+*
computed spectral entropy=3.288126805897908
computed normalized entropy=0.799860787399553
SPLASH=splash10-03xr-3449000000-5aaa9c29bcdf12721b52
submitter=submitter = University of Tokyo Team (Faculty of Engineering, University of Tokyo)
MoNA Rating=3.75

>  <NUM PEAKS>  (1104) 
61

>  <MASS SPECTRAL PEAKS>  (1104) 
39 1.47
41 5.1
42 4.39
43 13.85
56 14.51
58 15.07
62 1.05
70 14.02
84 3.22
99 1.68
109 1.07
124 4.77
126 1.63
145 2.51
147 1.98
149 2.53
153 1.18
157 3.21
158 2.66
159 3.14
160 1.22
161 2.61
162 1.28
163 1.24
166 1.1
172 1.01
174 1.81
181 1.48
187 21.97
188 12.95
189 16.53
190 5.43
191 3.49
192 1.42
195 1.32
216 11.19
217 1.18
218 7.61
219 1.24
243 1.17
244 12.32
245 21.15
246 11.24
247 12.2
248 3.13
249 2.46
271 8.32
272 1.34
273 6.5
275 2.11
287 1.11
314 99.99
315 15.01
316 65.23
317 10.32
318 10.54
319 1.57
329 7.07
330 1.8
331 3.52
333 1.19

>  <PREDICTED SPECTRUM>  (1104) 
15 13
16 1
17 2
26 11
27 153
28 117
29 169
30 39
31 47
33 21
34 17
35 64
36 171
37 108
38 151
39 351
40 232
41 658
42 707
43 951
44 514
45 255
46 68
47 102
48 73
49 127
50 124
51 106
52 148
53 149
54 212
55 313
56 613
57 301
58 197
59 118
60 109
61 211
62 293
63 389
64 154
65 116
66 68
67 145
68 297
69 307
70 523
71 305
72 237
73 401
74 379
75 454
76 94
77 36
79 16
80 86
81 138
82 145
83 216
84 351
85 177
86 294
87 136
88 299
89 158
90 116
91 79
95 59
96 94
97 430
98 325
99 530
100 241
101 159
102 60
107 37
108 4
109 302
110 163
111 217
112 143
113 134
114 46
116 19
117 8
123 17
124 638
125 456
126 576
127 276
128 40
129 67
130 54
133 232
135 141
139 15
140 27
141 40
142 100
143 22
145 344
146 16
147 513
150 51
151 111
152 82
153 118
156 21
158 30
159 203
160 147
161 999
162 430
163 668
164 217
165 113
166 34
167 56
168 121
169 238
170 82
171 94
172 109
173 147
174 64
175 153
176 107
177 108
179 49
180 73
181 92
182 108
183 65
185 29
187 749
188 238
189 436
190 117
191 347
192 31
193 32
195 29
197 193
199 2
200 54
201 101
202 70
203 158
205 73
206 20
207 100
208 30
209 14
210 23
211 15
212 10
214 110
215 25
217 86
218 43
219 102
220 20
221 99
222 27
223 19
226 29
231 60
232 114
233 113
234 108
235 11
237 33
242 126
243 135
244 132
245 107
246 51
247 24
249 12
250 94
251 35
255 84
257 135
258 56
262 0
288 62
294 0
296 14
301 21
302 10
329 256
330 84
331 220
332 78
333 51

$$$$

     RDKit          2D

 19 21  0  0  0  0  0  0  0  0999 V2000
   -0.0690    2.7743    0.0000 C   0  0  0  0  0  0  0  0  0  0  0  0
   -0.0690   -0.5957    0.0000 C   0  0  0  0  0  0  0  0  0  0  0  0
   -1.2390    1.8443    0.0000 C   0  0  0  0  0  0  0  0  0  0  0  0
   -1.2390    0.3443    0.0000 C   0  0  0  0  0  0  0  0  0  0  0  0
   -3.8390    1.8443    0.0000 C   0  0  0  0  0  0  0  0  0  0  0  0
   -3.8390    0.3443    0.0000 C   0  0  0  0  0  0  0  0  0  0  0  0
   -2.5390    2.5843    0.0000 C   0  0  0  0  0  0  0  0  0  0  0  0
   -2.5390   -0.4157    0.0000 C   0  0  0  0  0  0  0  0  0  0  0  0
   -1.9290    1.0243    0.0000 C   0  0  0  0  0  0  0  0  0  0  0  0
   -5.1357    2.5983    0.0000 Cl  0  0  0  0  0  0  0  0  0  0  0  0
   -5.1401   -0.4021    0.0000 Cl  0  0  0  0  0  0  0  0  0  0  0  0
   -2.5390    4.0843    0.0000 Cl  0  0  0  0  0  0  0  0  0  0  0  0
   -2.5390   -1.9157    0.0000 Cl  0  0  0  0  0  0  0  0  0  0  0  0
   -0.8365   -1.7052    0.0000 Cl  0  0  0  0  0  0  0  0  0  0  0  0
   -0.0314    1.5895    0.0000 Cl  0  0  0  0  0  0  0  0  0  0  0  0
    3.5410    1.0965    0.0000 O   0  0  0  0  0  0  0  0  0  0  0  0
    1.3910    2.4443    0.0000 O   0  0  0  0  0  0  0  0  0  0  0  0
    1.3910   -0.2657    0.0000 O   0  0  0  0  0  0  0  0  0  0  0  0
    2.0410    1.0943    0.0000 S   0  0  0  0  0  0  0  0  0  0  0  0
  3  1  1  0
  4  2  1  0
  4  3  1  0
  6  5  2  0
  7  3  1  0
  7  5  1  0
  8  4  1  0
  8  6  1  0
  9  7  1  0
  9  8  1  0
 10  5  1  0
 11  6  1  0
 12  7  1  0
 13  8  1  0
 14  9  1  0
 15  9  1  0
 17  1  1  0
 18  2  1  0
 19 16  2  0
 19 17  1  0
 19 18  1  0
M  END
>  <NAME>  (1105) 
6,7,8,9,10,10-HEXACHLORO-1,5,5A,6,9,9A-HEXAHYDRO-6,9-METHANO-2,4,3-BENZODIOXATHIEPIN3-OXIDE

>  <SYNONYMS>  (1105) 
ENDOSULFAN

>  <SPECTRUM TYPE>  (1105) 
MS1

>  <INSTRUMENT TYPE>  (1105) 
EI-B

>  <INSTRUMENT>  (1105) 
JEOL JMS-DX-303

>  <ION MODE>  (1105) 
P

>  <INCHIKEY>  (1105) 
RDYMFSUJUZBWLH-UHFFFAOYSA-N

>  <FORMULA>  (1105) 
C9H6Cl6O3S

>  <EXACT MASS>  (1105) 
403.81688113199993

>  <MW>  (1105) 
404

>  <ID>  (1105) 
JP010436

>  <CONTRIBUTOR>  (1105) 
University of Tokyo Team, {Faculty of Engineering, University of Tokyo

>  <COMMENT>  (1105) 
SMILES=[O-1][S+1](O3)OCC(C(C3)1)C(Cl)(C(Cl)=2)C(Cl)(Cl)C(Cl)(C(Cl)2)1
InChI=InChI=1S/C9H6Cl6O3S/c10-5-6(11)8(13)4-2-18-19(16)17-1-3(4)7(5,12)9(8,14)15/h3-4H,1-2H2
computed SMILES=O=S1OCC2C(CO1)C3(Cl)C(Cl)=C(Cl)C2(Cl)C3(Cl)Cl
accession=JP010436
date=2016.01.19 (Created 2008.10.21, modified 2011.05.06)
author=UOEH
license=CC BY-NC-SA
exact mass=403.81688
ionization energy=70 eV
ion type=[M]+*
computed spectral entropy=5.058969012943784
computed normalized entropy=0.8949984425628467
SPLASH=splash10-00kn-1591000000-c20a5584287e084876cd
submitter=submitter = University of Tokyo Team (Faculty of Engineering, University of Tokyo)
MoNA Rating=3.75

>  <NUM PEAKS>  (1105) 
285

>  <MASS SPECTRAL PEAKS>  (1105) 
36 4.41
37 1.29
38 1.67
39 13.02
41 12.1
42 2.16
43 5.41
44 2.33
47 1.04
48 5.3
49 5.3
50 5.44
51 3.99
52 1.35
53 5.31
54 1.48
55 1.04
60 1.88
61 4.53
62 3.62
63 10.24
64 2.36
65 7.26
67 1.37
68 2.15
69 19.71
70 2.04
72 2.38
73 9.98
74 7.05
75 23.18
76 1.67
77 6.01
78 15.26
79 5.04
81 1.27
83 7.4
84 7.86
85 19.07
86 8.35
87 5.78
89 22.41
90 1.48
91 8.34
95 1.12
96 3.71
97 8.73
98 3.98
99 11.92
100 2.69
101 3.03
102 29.4
103 22.89
104 13.74
105 1.59
106 2.12
107 11.19
108 8.46
109 17.62
110 2.98
111 5.85
112 1.98
113 1.76
114 1.27
117 9
118 2.17
119 16.42
120 24.21
121 26.26
122 6.33
123 6.81
124 2.2
125 3.26
126 1.44
129 1.21
130 3.66
131 5.02
132 3.58
133 13.59
134 6.34
135 13.94
136 9.97
137 11.52
138 7.14
139 6.21
140 1.38
141 13.29
142 1.56
143 18.06
144 5.4
145 15.54
146 5.84
147 7.17
148 4.59
149 2.79
150 4.91
151 1.27
152 1.65
153 1.67
154 1.08
155 3.31
156 1.5
157 15.2
158 4.69
159 42.24
160 43.06
161 31.24
162 32.65
163 5.99
164 6.08
165 8.42
167 11.08
168 3.83
169 17.13
170 50.9
171 20.1
172 32.98
173 7.89
174 6.98
175 1.57
177 1.89
178 2.15
179 5.24
180 8.75
181 11.3
182 8.98
183 12.82
184 4
185 4.99
186 2.63
187 2.7
188 1.06
189 1.62
190 1.51
191 15.43
192 7.28
193 45.81
194 15.88
195 99.99
196 18.29
197 83.68
198 7.89
199 24.59
200 3.01
201 11.27
202 1.57
203 10.02
204 38.25
205 45.71
206 47.91
207 67.4
208 21.38
209 41.84
210 7.41
211 11.5
212 1.91
213 3.49
214 6.75
215 6.04
216 14.67
217 8.53
218 9.61
219 4.83
220 4.48
221 6.55
222 4.23
223 9.04
224 2.06
225 8.18
226 5.14
227 27.01
228 16.58
229 49.84
230 18.09
231 39.09
232 10.9
233 20.66
234 7.68
235 47.34
236 9.78
237 69.89
238 10.63
239 70.49
240 34.88
241 86.61
242 43.35
243 69.08
244 26.58
245 28.51
246 8.48
247 7.56
248 6.24
249 1.94
250 10.23
251 5.96
252 9.99
253 6.52
254 8.44
255 4.77
256 5.74
257 6.42
258 5.97
259 5.3
260 9.59
261 36.38
262 7.47
263 53.28
264 6.86
265 62.62
266 7.61
267 54.07
268 6.32
269 48.2
270 26.07
271 41.77
272 46.18
273 18.55
274 39.71
275 41.34
276 21.86
277 72.55
278 10.94
279 50.82
280 6.8
281 21.99
283 4.06
285 1.59
286 4.17
287 2.54
288 3.85
289 2.76
290 1.98
291 2.98
293 14.72
294 1.58
295 20.81
296 3.29
297 14.87
298 3.53
299 6.71
300 1.84
301 2.92
303 1.58
305 21.17
306 2.97
307 33.97
308 4.67
309 22.67
310 3.19
311 11.33
312 1.63
313 3.86
314 1.2
315 1.49
321 14.84
322 1.68
323 21.2
324 2.81
325 13.72
326 1.58
327 4.8
329 2.26
337 35.2
338 4.02
339 53.61
340 4.87
341 37.23
342 5.18
343 12.98
344 1.26
345 2.39
355 1.93
357 4.05
358 1.64
359 3.01
362 1.78
368 2.03
369 1.93
370 3.36
371 1.56
373 1.87
404 2.11
406 3.72
408 2.55
410 1.13

>  <PREDICTED SPECTRUM>  (1105) 
14 24
15 31
16 17
18 12
19 1
25 25
26 107
27 153
28 107
29 327
31 58
32 16
35 143
36 305
37 136
38 187
39 192
40 108
41 253
42 141
43 159
44 143
45 83
47 260
48 103
49 320
50 226
51 331
52 155
53 306
54 237
55 309
56 128
57 288
59 57
60 189
61 364
62 308
63 334
64 120
65 209
66 187
67 357
68 291
69 358
70 164
71 233
72 210
73 567
74 287
75 392
76 142
77 349
78 195
79 291
80 225
81 377
82 290
83 268
84 294
85 505
86 339
87 358
88 120
89 219
90 106
91 237
92 63
93 183
94 197
95 312
96 337
97 393
98 188
99 279
100 156
101 180
102 165
103 201
104 161
105 212
106 311
107 610
108 345
109 460
110 235
111 262
112 79
113 239
114 121
115 170
116 94
117 424
118 284
119 443
120 366
121 332
122 249
123 214
124 137
125 177
126 112
127 103
128 97
129 176
130 387
131 373
132 395
133 342
134 218
135 251
136 142
137 133
138 69
139 157
140 15
141 537
142 228
143 515
144 229
145 359
146 188
147 304
148 175
149 170
150 3
151 68
152 72
153 99
154 35
155 117
156 107
157 142
158 160
159 162
160 137
161 65
162 81
163 83
164 80
165 207
166 45
167 374
168 118
169 354
170 409
171 230
172 239
173 211
174 46
177 126
178 68
179 101
180 206
181 159
182 207
183 118
184 182
185 198
186 149
187 153
188 48
189 62
190 95
191 252
192 147
193 441
194 328
195 344
196 223
197 138
198 118
199 132
200 107
201 232
202 90
203 312
204 358
205 337
206 300
207 385
208 235
209 69
210 60
211 69
212 55
213 87
214 167
215 117
216 251
217 228
218 75
219 200
220 203
221 140
222 197
223 70
224 52
225 54
226 177
227 216
228 200
229 395
230 368
231 433
232 315
233 63
234 43
235 707
236 332
237 881
238 453
239 772
240 600
241 555
242 417
243 437
244 278
245 379
246 155
247 127
249 122
250 181
251 207
252 324
253 351
254 230
255 288
256 338
257 223
258 48
259 99
260 94
261 425
262 241
263 555
264 306
265 527
266 487
267 443
268 356
269 216
270 748
271 468
272 999
273 375
274 866
275 448
276 595
277 671
278 415
279 387
280 245
281 406
282 161
283 57
285 109
286 68
287 154
288 28
289 183
290 79
291 176
292 37
293 156
294 100
295 121
296 83
297 139
298 173
299 254
300 238
301 222
302 103
303 140
304 25
305 216
306 72
307 299
308 131
309 261
310 41
311 124
312 109
313 61
314 107
315 134
316 107
317 125
318 58
319 28
323 178
324 84
325 172
326 20
327 32
328 34
329 69
331 44
332 4
333 75
335 70
336 23
337 56
338 2
339 55
340 36
341 56
342 87
343 204
344 135
345 245
346 21
347 217
348 33
349 115
354 23
355 63
357 28
359 1
369 537
370 111
371 494
372 82
373 555
374 99
375 416
376 41
377 125
379 51
386 26
388 79
390 12
392 46
403 27
404 122
405 65
406 216
407 92
408 292
409 51

$$$$

     RDKit          2D

 20 21  0  0  0  0  0  0  0  0999 V2000
    6.5095    4.1724    0.0000 C   0  0  0  0  0  0  0  0  0  0  0  0
    5.3504   -0.2591    0.0000 C   0  0  0  0  0  0  0  0  0  0  0  0
    5.6311    2.9565    0.0000 C   0  0  0  0  0  0  0  0  0  0  0  0
    3.8960   -0.6259    0.0000 C   0  0  0  0  0  0  0  0  0  0  0  0
   -5.3495   -1.9814    0.0000 C   0  0  0  0  0  0  0  0  0  0  0  0
   -4.2343   -2.9858    0.0000 C   0  0  0  0  0  0  0  0  0  0  0  0
   -5.0382   -0.5132    0.0000 C   0  0  0  0  0  0  0  0  0  0  0  0
   -2.8078   -2.5220    0.0000 C   0  0  0  0  0  0  0  0  0  0  0  0
   -3.6117   -0.0494    0.0000 C   0  0  0  0  0  0  0  0  0  0  0  0
   -0.6100    0.8300    0.0000 C   0  0  0  0  0  0  0  0  0  0  0  0
   -2.4965   -1.0538    0.0000 C   0  0  0  0  0  0  0  0  0  0  0  0
   -1.0700   -0.5900    0.0000 C   0  0  0  0  0  0  0  0  0  0  0  0
    0.8900    0.8300    0.0000 C   0  0  0  0  0  0  0  0  0  0  0  0
    1.3600   -0.5900    0.0000 N   0  0  0  0  0  0  0  0  0  0  0  0
    4.1389    3.1092    0.0000 O   0  0  0  0  0  0  0  0  0  0  0  0
    2.8511    0.4502    0.0000 O   0  0  0  0  0  0  0  0  0  0  0  0
    0.1400   -1.4700    0.0000 O   0  0  0  0  0  0  0  0  0  0  0  0
    1.7684    2.0459    0.0000 O   0  0  0  0  0  0  0  0  0  0  0  0
    3.2606    1.8932    0.0000 P   0  0  0  0  0  0  0  0  0  0  0  0
    4.6105    1.2394    0.0000 S   0  0  0  0  0  0  0  0  0  0  0  0
  3  1  1  0
  4  2  1  0
  6  5  2  0
  7  5  1  0
  8  6  1  0
  9  7  2  0
 11  8  2  0
 11  9  1  0
 12 10  2  0
 12 11  1  0
 13 10  1  0
 14 13  2  0
 15  3  1  0
 16  4  1  0
 17 12  1  0
 17 14  1  0
 18 13  1  0
 19 15  1  0
 19 16  1  0
 19 18  1  0
 20 19  2  0
M  END
>  <NAME>  (1106) 
PHOSPHOROTHIOIC ACID O,O-DIETHYL O-(5-PHENYL-3-ISOXAZOLYL) ESTER

>  <SYNONYMS>  (1106) 


>  <SPECTRUM TYPE>  (1106) 
MS1

>  <INSTRUMENT TYPE>  (1106) 
EI-B

>  <INSTRUMENT>  (1106) 
JEOL JMS-DX-303

>  <ION MODE>  (1106) 
P

>  <INCHIKEY>  (1106) 
SDMSCIWHRZJSRN-UHFFFAOYSA-N

>  <FORMULA>  (1106) 
C13H16NO4PS

>  <EXACT MASS>  (1106) 
313.053765622

>  <MW>  (1106) 
313

>  <ID>  (1106) 
JP010435

>  <CONTRIBUTOR>  (1106) 
University of Tokyo Team, {Faculty of Engineering, University of Tokyo

>  <COMMENT>  (1106) 
SMILES=CCOP(=S)(OCC)Oc(n2)cc(o2)c(c1)cccc1
InChI=InChI=1S/C13H16NO4PS/c1-3-15-19(20,16-4-2)18-13-10-12(17-14-13)11-8-6-5-7-9-11/h5-10H,3-4H2,1-2H3
computed SMILES=S=P(OC1=NOC(=C1)C=2C=CC=CC2)(OCC)OCC
accession=JP010435
date=2016.01.19 (Created 2008.10.21, modified 2011.05.06)
author=UOEH
license=CC BY-NC-SA
exact mass=313.05377
ionization energy=70 eV
ion type=[M]+*
computed spectral entropy=3.5301270973026515
computed normalized entropy=0.7884434974575518
SPLASH=splash10-0a6r-2901000000-ea7345f297a256740dfa
submitter=submitter = University of Tokyo Team (Faculty of Engineering, University of Tokyo)
MoNA Rating=3.75

>  <NUM PEAKS>  (1106) 
88

>  <MASS SPECTRAL PEAKS>  (1106) 
36 1.39
39 1.69
45 4.02
47 1.11
50 3.03
51 9.74
61 1.73
63 2.01
65 5.1
69 1.08
74 1.63
75 1.87
76 3.37
77 34
78 4.89
81 4.21
89 3.46
90 1.44
91 3.23
93 3.65
97 13.29
99 2.97
102 6
103 2.32
104 1.61
105 99.99
106 7.94
109 9.48
111 1.19
113 6.76
114 1.69
115 1.86
116 6.41
117 1.44
121 2.75
125 4.98
127 3.41
128 1.75
129 4.09
130 17.48
131 3.28
132 1.66
136 4.04
137 1.76
141 7.91
142 1.27
143 1.16
144 1.04
145 5.59
146 2.37
147 2.2
148 1.61
149 3.91
150 1.29
153 2.39
158 1.13
159 18.06
160 3
161 9.59
162 7.17
163 1.01
164 3.14
169 4.09
170 1.81
171 1.3
172 3.65
174 3.1
177 76.85
178 10.11
179 4.69
180 1.24
186 1.24
188 2.47
192 1.91
205 1.09
208 10.36
209 1.35
224 1
236 1.35
240 2.65
257 1.57
284 1.12
285 6.88
286 1.17
312 1.64
313 55.06
314 9.04
315 3.52

>  <PREDICTED SPECTRUM>  (1106) 
14 3
15 86
17 6
18 13
26 92
27 320
28 180
29 499
30 22
31 55
39 122
40 57
41 50
42 86
43 62
44 67
45 109
46 34
47 277
48 60
49 22
50 153
51 286
52 138
53 147
54 75
55 106
57 94
58 18
59 60
60 6
61 68
62 127
63 278
64 95
65 430
66 182
67 40
68 60
69 65
70 13
71 8
74 42
75 182
76 119
77 589
78 209
79 96
80 122
81 165
82 97
83 52
84 95
85 10
86 69
87 69
88 209
89 210
90 134
91 170
92 176
93 277
94 102
95 32
96 23
97 821
98 96
99 148
100 26
101 40
102 160
103 218
104 215
105 178
106 146
107 43
108 124
109 231
110 192
111 46
112 67
113 116
114 75
115 125
116 189
117 96
118 230
119 103
120 84
121 71
122 57
124 57
125 418
126 167
127 58
128 75
129 40
132 95
133 114
134 75
135 24
136 21
137 11
140 36
141 179
142 52
143 156
144 354
145 222
146 260
147 158
148 165
149 48
150 85
152 42
155 6
156 40
160 85
161 999
162 530
163 244
164 115
165 18
170 67
171 505
172 596
173 294
174 140
175 84
176 281
177 566
178 187
179 217
180 28
186 2
188 406
189 301
190 151
191 56
192 202
193 19
194 42
195 29
204 120
205 119
206 13
207 4
208 377
209 162
210 47
212 75
213 28
221 134
222 186
223 12
224 118
225 92
236 198
237 8
238 13
240 284
241 217
242 135
252 52
256 141
257 307
258 117
259 49
268 7
285 274
286 81
287 57
288 67
299 24
313 683
314 296
315 238
316 103

$$$$

     RDKit          2D

 18 18  0  0  0  0  0  0  0  0999 V2000
   -2.5981    7.2800    0.0000 C   0  0  0  0  0  0  0  0  0  0  0  0
   -3.8971    5.0300    0.0000 C   0  0  0  0  0  0  0  0  0  0  0  0
    5.1962    2.7800    0.0000 C   0  0  0  0  0  0  0  0  0  0  0  0
    3.8971    5.0300    0.0000 C   0  0  0  0  0  0  0  0  0  0  0  0
   -0.7500   -1.0300    0.0000 C   0  0  0  0  0  0  0  0  0  0  0  0
    0.7500   -1.0300    0.0000 C   0  0  0  0  0  0  0  0  0  0  0  0
   -2.5981    5.7800    0.0000 C   0  0  0  0  0  0  0  0  0  0  0  0
    3.8971    3.5300    0.0000 C   0  0  0  0  0  0  0  0  0  0  0  0
    0.0000    2.7800    0.0000 C   0  0  0  0  0  0  0  0  0  0  0  0
   -1.2990    3.5300    0.0000 C   0  0  0  0  0  0  0  0  0  0  0  0
    1.2990    3.5300    0.0000 C   0  0  0  0  0  0  0  0  0  0  0  0
   -0.0000    1.2800    0.0000 C   0  0  0  0  0  0  0  0  0  0  0  0
   -2.5981    2.7800    0.0000 O   0  0  0  0  0  0  0  0  0  0  0  0
    1.2990    5.0300    0.0000 O   0  0  0  0  0  0  0  0  0  0  0  0
   -1.2990    5.0300    0.0000 O   0  0  0  0  0  0  0  0  0  0  0  0
    2.5981    2.7800    0.0000 O   0  0  0  0  0  0  0  0  0  0  0  0
   -1.2100    0.3900    0.0000 S   0  0  0  0  0  0  0  0  0  0  0  0
    1.2100    0.3900    0.0000 S   0  0  0  0  0  0  0  0  0  0  0  0
  6  5  1  0
  7  1  1  0
  7  2  1  0
  8  3  1  0
  8  4  1  0
 10  9  1  0
 11  9  1  0
 12  9  2  3
 13 10  2  0
 14 11  2  0
 15  7  1  0
 15 10  1  0
 16  8  1  0
 16 11  1  0
 17  5  1  0
 17 12  1  0
 18  6  1  0
 18 12  1  0
M  END
>  <NAME>  (1107) 
DIISOPROPYL 1,3-DITHIOLAN-2-YLIDENEMALONATE

>  <SYNONYMS>  (1107) 


>  <SPECTRUM TYPE>  (1107) 
MS1

>  <INSTRUMENT TYPE>  (1107) 
EI-B

>  <INSTRUMENT>  (1107) 
JEOL JMS-DX-303

>  <ION MODE>  (1107) 
P

>  <INCHIKEY>  (1107) 
UFHLMYOGRXOCSL-UHFFFAOYSA-N

>  <FORMULA>  (1107) 
C12H18O4S2

>  <EXACT MASS>  (1107) 
290.064651056

>  <MW>  (1107) 
290

>  <ID>  (1107) 
JP010434

>  <CONTRIBUTOR>  (1107) 
University of Tokyo Team, {Faculty of Engineering, University of Tokyo

>  <COMMENT>  (1107) 
SMILES=CC(C)OC(=O)C(C(=O)OC(C)C)=C(S1)SCC1
InChI=InChI=1S/C12H18O4S2/c1-7(2)15-10(13)9(11(14)16-8(3)4)12-17-5-6-18-12/h7-8H,5-6H2,1-4H3
computed SMILES=O=C(OC(C)C)C(C(=O)OC(C)C)=C1SCCS1
accession=JP010434
date=2016.01.19 (Created 2008.10.21, modified 2011.05.06)
author=UOEH
license=CC BY-NC-SA
exact mass=290.06465
ionization energy=70 eV
ion type=[M]+*
computed spectral entropy=3.353488268222933
computed normalized entropy=0.7920179297761691
SPLASH=splash10-0j4u-2940000000-f1f31a9094505265794f
submitter=submitter = University of Tokyo Team (Faculty of Engineering, University of Tokyo)
MoNA Rating=3.75

>  <NUM PEAKS>  (1107) 
69

>  <MASS SPECTRAL PEAKS>  (1107) 
39 3.63
41 16.57
42 2.39
43 35.06
44 1.51
45 5.31
58 1.62
59 4.59
60 8.32
61 8.64
71 1
72 2.19
74 1.41
76 1.91
84 2.05
85 8.06
86 3.57
87 1.32
88 3.67
89 8.39
90 1.05
93 2.1
102 2.3
103 1.54
105 3.52
116 10.62
117 1.88
118 99.99
119 6.21
120 9.93
128 1.83
129 5.04
133 3.05
134 13.44
136 1.53
144 8.75
145 24.25
146 6.09
147 3.81
159 2.5
160 17.96
161 5.01
162 97.31
163 8.9
164 9.08
172 1.07
173 5.31
176 5.96
178 27.35
179 1.72
180 2.25
187 2.42
189 86.3
190 8
191 8.78
192 1.01
204 62.37
205 8.33
206 13.43
220 1.57
231 49.23
232 6.41
233 4.56
248 1.81
271 1.1
290 75.75
291 11.74
292 9.2
293 1.63

>  <PREDICTED SPECTRUM>  (1107) 
15 23
26 26
27 203
28 113
29 132
32 2
33 50
34 3
36 14
37 24
38 78
39 334
40 123
41 588
42 323
43 999
44 221
45 426
46 88
47 69
51 18
53 53
54 40
55 163
56 24
57 186
58 142
59 315
60 207
61 149
62 22
63 26
64 42
65 4
66 39
67 54
68 20
69 148
70 19
71 87
72 126
73 160
74 98
75 191
76 132
77 126
78 39
79 4
84 24
85 162
86 108
87 193
88 219
89 229
90 115
91 117
100 69
101 129
102 223
103 291
104 172
105 179
106 66
111 79
112 32
114 3
115 178
116 113
117 286
118 163
119 189
120 63
121 53
128 23
129 129
130 2
131 206
132 134
133 200
134 98
135 75
144 105
145 273
146 139
147 90
148 18
149 7
159 58
160 124
161 302
162 200
163 184
164 21
171 141
172 71
173 28
176 56
177 9
178 126
188 37
189 105
190 23
191 0
192 47
193 30
199 0
203 334
204 415
205 95
206 81
215 15
219 41
220 113
231 85
232 80
233 26
247 64
248 201
249 62
250 92
262 84
290 339
291 143
292 69
293 6

$$$$

     RDKit          2D

 19 19  0  0  0  0  0  0  0  0999 V2000
   -2.4644   -1.6985    0.0000 C   0  0  0  0  0  0  0  0  0  0  0  0
   -5.0625    2.8015    0.0000 C   0  0  0  0  0  0  0  0  0  0  0  0
   -4.9058    1.9129    0.0000 C   0  0  0  0  0  0  0  0  0  0  0  0
   -1.1654   -0.9485    0.0000 C   0  0  0  0  0  0  0  0  0  0  0  0
    4.0307    5.0515    0.0000 C   0  0  0  0  0  0  0  0  0  0  0  0
    2.7312    5.8023    0.0000 C   0  0  0  0  0  0  0  0  0  0  0  0
    4.0312    3.5506    0.0000 C   0  0  0  0  0  0  0  0  0  0  0  0
    1.4322    5.0523    0.0000 C   0  0  0  0  0  0  0  0  0  0  0  0
    2.7322    2.8006    0.0000 C   0  0  0  0  0  0  0  0  0  0  0  0
    1.4327    3.5515    0.0000 C   0  0  0  0  0  0  0  0  0  0  0  0
    0.1336    2.8015    0.0000 C   0  0  0  0  0  0  0  0  0  0  0  0
    0.1336    1.3015    0.0000 C   0  0  0  0  0  0  0  0  0  0  0  0
    1.4327    0.5515    0.0000 O   0  0  0  0  0  0  0  0  0  0  0  0
   -3.7635    3.5515    0.0000 O   0  0  0  0  0  0  0  0  0  0  0  0
   -3.4286    1.6524    0.0000 O   0  0  0  0  0  0  0  0  0  0  0  0
   -1.1654    0.5515    0.0000 O   0  0  0  0  0  0  0  0  0  0  0  0
   -2.4644    2.8015    0.0000 P   0  0  0  0  0  0  0  0  0  0  0  0
   -1.5003    1.6524    0.0000 S   0  0  0  0  0  0  0  0  0  0  0  0
   -1.1654    3.5515    0.0000 S   0  0  0  0  0  0  0  0  0  0  0  0
  4  1  1  0
  6  5  2  0
  7  5  1  0
  8  6  1  0
  9  7  2  0
 10  8  2  0
 10  9  1  0
 11 10  1  0
 12 11  1  0
 13 12  2  0
 14  2  1  0
 15  3  1  0
 16  4  1  0
 16 12  1  0
 17 14  1  0
 17 15  1  0
 18 17  2  0
 19 11  1  0
 19 17  1  0
M  END
>  <NAME>  (1108) 
PHOSPHORODITHIOIC ACID O,O-DIMETHYL S-(ALPHA-(ETHOXYCARBONYL)BENZYL) ESTER

>  <SYNONYMS>  (1108) 


>  <SPECTRUM TYPE>  (1108) 
MS1

>  <INSTRUMENT TYPE>  (1108) 
EI-B

>  <INSTRUMENT>  (1108) 
JEOL JMS-DX-303

>  <ION MODE>  (1108) 
P

>  <INCHIKEY>  (1108) 
XAMUDJHXFNRLCY-UHFFFAOYSA-N

>  <FORMULA>  (1108) 
C12H17O4PS2

>  <EXACT MASS>  (1108) 
320.030587654

>  <MW>  (1108) 
320

>  <ID>  (1108) 
JP010433

>  <CONTRIBUTOR>  (1108) 
University of Tokyo Team, {Faculty of Engineering, University of Tokyo

>  <COMMENT>  (1108) 
SMILES=CCOC(=O)C(c(c1)cccc1)SP(=S)(OC)OC
InChI=InChI=1S/C12H17O4PS2/c1-4-16-12(13)11(10-8-6-5-7-9-10)19-17(18,14-2)15-3/h5-9,11H,4H2,1-3H3
computed SMILES=O=C(OCC)C(SP(=S)(OC)OC)C=1C=CC=CC1
accession=JP010433
date=2016.01.19 (Created 2008.10.21, modified 2011.05.06)
author=UOEH
license=CC BY-NC-SA
exact mass=320.03059
ionization energy=70 eV
ion type=[M]+*
computed spectral entropy=3.1186234803295934
computed normalized entropy=0.7971894531300896
SPLASH=splash10-00di-5980000000-a41c1b6686eaa93e88cb
submitter=submitter = University of Tokyo Team (Faculty of Engineering, University of Tokyo)
MoNA Rating=3.75

>  <NUM PEAKS>  (1108) 
50

>  <MASS SPECTRAL PEAKS>  (1108) 
39 1.19
45 1.29
47 3.42
51 1.55
62 1.86
63 6.02
64 1.12
65 1.13
77 6.56
78 2.15
79 12.92
89 5.9
90 8.99
91 19.53
92 1.84
93 34.14
105 1.16
107 19.58
108 1.71
118 9.96
119 1.34
121 38.67
122 5.33
123 3.11
125 42.11
126 2.24
127 2.96
135 20.9
136 2.77
137 1.22
143 2.21
157 13.99
159 1.34
163 13.74
164 3.44
178 1.02
231 1.14
246 24.95
247 15.66
248 3.93
249 1.57
258 1.49
261 1.01
274 99.99
275 14.79
276 12.08
277 1.4
320 10.55
321 1.61
322 1.24

>  <PREDICTED SPECTRUM>  (1108) 
15 28
27 62
29 267
30 72
31 148
32 43
33 45
34 17
39 203
40 48
41 207
42 34
43 76
44 73
45 320
46 73
47 238
48 101
49 134
50 79
51 237
52 71
53 78
55 162
57 203
58 109
59 180
60 23
61 77
62 167
63 326
64 114
65 316
66 111
67 79
68 22
69 146
71 70
73 57
74 31
75 129
76 38
77 548
78 178
79 659
80 214
81 129
82 107
83 176
84 65
85 17
86 65
87 113
88 71
89 240
90 174
91 245
92 69
93 610
94 178
95 120
96 10
97 303
98 10
99 8
100 17
102 14
103 66
104 43
105 34
106 90
107 273
108 38
109 315
110 91
111 206
112 71
113 40
115 29
118 36
119 59
121 421
123 99
124 61
125 999
126 11
131 101
132 16
133 104
134 66
135 145
136 95
137 109
138 34
139 139
143 96
147 3
157 10
159 73
161 57
162 105
163 327
164 38
165 83
167 4
168 80
178 42
179 91
180 87
211 164
212 136
213 29
219 144
220 8
232 19
246 228
247 222
248 144
275 50
320 234
321 55

$$$$

     RDKit          2D

 20 20  0  0  0  0  0  0  0  0999 V2000
   -5.6118   -1.2600    0.0000 C   0  0  0  0  0  0  0  0  0  0  0  0
   -4.3128    0.9900    0.0000 C   0  0  0  0  0  0  0  0  0  0  0  0
    4.3128    1.4700    0.0000 C   0  0  0  0  0  0  0  0  0  0  0  0
    4.3134   -1.5306    0.0000 C   0  0  0  0  0  0  0  0  0  0  0  0
   -4.3128   -2.0100    0.0000 C   0  0  0  0  0  0  0  0  0  0  0  0
   -3.0138    0.2400    0.0000 C   0  0  0  0  0  0  0  0  0  0  0  0
    1.7142    1.4708    0.0000 C   0  0  0  0  0  0  0  0  0  0  0  0
    3.0138    0.7200    0.0000 C   0  0  0  0  0  0  0  0  0  0  0  0
    3.0142   -0.7808    0.0000 C   0  0  0  0  0  0  0  0  0  0  0  0
   -3.0138   -1.2600    0.0000 C   0  0  0  0  0  0  0  0  0  0  0  0
    0.4152    0.7208    0.0000 C   0  0  0  0  0  0  0  0  0  0  0  0
    0.4157   -0.7800    0.0000 C   0  0  0  0  0  0  0  0  0  0  0  0
    1.7152   -1.5308    0.0000 C   0  0  0  0  0  0  0  0  0  0  0  0
   -1.7147   -2.0100    0.0000 N   0  0  0  0  0  0  0  0  0  0  0  0
   -0.8839    1.4706    0.0000 N   0  0  0  0  0  0  0  0  0  0  0  0
    1.7150   -3.0308    0.0000 N   0  0  0  0  0  0  0  0  0  0  0  0
   -0.8842    2.9706    0.0000 O   0  0  0  0  0  0  0  0  0  0  0  0
   -2.1829    0.7204    0.0000 O   0  0  0  0  0  0  0  0  0  0  0  0
    3.0139   -3.7810    0.0000 O   0  0  0  0  0  0  0  0  0  0  0  0
    0.4158   -3.7806    0.0000 O   0  0  0  0  0  0  0  0  0  0  0  0
  5  1  1  0
  6  2  1  0
  8  3  1  0
  8  7  2  0
  9  4  1  0
  9  8  1  0
 10  5  1  0
 10  6  1  0
 11  7  1  0
 12 11  2  0
 13  9  2  0
 13 12  1  0
 14 10  1  0
 14 12  1  0
 15 11  1  0
 16 13  1  0
 17 15  1  0
 18 15  2  0
 19 16  1  0
 20 16  2  0
M  CHG  4  15   1  16   1  17  -1  19  -1
M  END
>  <NAME>  (1109) 
N-(1-ETHYLPROPYL)-3,4-DIMETHYL-2,6-DINITROANILINE

>  <SYNONYMS>  (1109) 


>  <SPECTRUM TYPE>  (1109) 
MS1

>  <INSTRUMENT TYPE>  (1109) 
EI-B

>  <INSTRUMENT>  (1109) 
JEOL JMS-DX-303

>  <ION MODE>  (1109) 
P

>  <INCHIKEY>  (1109) 
CHIFOSRWCNZCFN-UHFFFAOYSA-N

>  <FORMULA>  (1109) 
C13H19N3O4

>  <EXACT MASS>  (1109) 
281.137556088

>  <MW>  (1109) 
281

>  <ID>  (1109) 
JP010432

>  <CONTRIBUTOR>  (1109) 
University of Tokyo Team, {Faculty of Engineering, University of Tokyo

>  <COMMENT>  (1109) 
SMILES=CCC(CC)Nc(c([N+1]([O-1])=O)1)c([N+1]([O-1])=O)c(C)c(C)c1
InChI=InChI=1S/C13H19N3O4/c1-5-10(6-2)14-12-11(15(17)18)7-8(3)9(4)13(12)16(19)20/h7,10,14H,5-6H2,1-4H3
computed SMILES=O=N(=O)C=1C=C(C(=C(C1NC(CC)CC)N(=O)=O)C)C
accession=JP010432
date=2016.01.19 (Created 2008.10.21, modified 2011.05.06)
author=UOEH
license=CC BY-NC-SA
exact mass=281.13756
ionization energy=70 eV
ion type=[M]+*
computed spectral entropy=3.498282423536308
computed normalized entropy=0.7938518946284326
SPLASH=splash10-0udi-2790000000-9af68c7a73a4585c8e62
submitter=submitter = University of Tokyo Team (Faculty of Engineering, University of Tokyo)
MoNA Rating=3.75

>  <NUM PEAKS>  (1109) 
82

>  <MASS SPECTRAL PEAKS>  (1109) 
39 1.65
41 2.74
43 3.71
44 1.1
53 1.83
55 1.54
57 6.02
65 2.25
66 1.58
77 3.14
78 1.56
79 2.05
90 1.26
91 3.65
92 1.96
93 1.36
103 1.55
104 2.31
105 1.83
106 2.45
107 1.35
116 1.45
117 1.69
118 4.2
119 4.06
120 3.19
121 1.25
130 1.86
131 2.33
132 2.34
133 2.63
134 2.32
135 1.37
143 1.22
144 2.96
145 3.02
146 3.2
147 3.29
148 1.98
149 1.03
150 1.22
158 2.11
159 2.67
160 2.41
161 6.03
162 8.96
163 2.14
164 2.23
171 1.29
172 1.51
173 2.18
174 3.74
175 1.8
176 1.66
177 1.13
178 1.17
180 1.3
186 1.02
187 1.37
188 3.45
189 1.48
190 1.91
191 6.35
192 8.33
193 1.98
194 4.14
202 2.72
203 1.06
204 1.31
208 5.68
211 1.32
216 1.94
217 3.4
218 1.55
220 5.45
222 1.14
236 3.81
252 99.99
253 14.73
254 1.83
281 12.75
282 2.27

>  <PREDICTED SPECTRUM>  (1109) 
17 5
18 1
26 17
27 131
28 43
29 272
30 121
31 44
34 2
36 4
37 20
38 66
39 351
40 144
41 440
42 253
43 396
44 203
45 118
46 103
47 9
48 45
49 10
50 218
51 356
52 254
53 303
54 146
55 267
56 262
57 544
58 179
59 85
60 9
61 71
62 180
63 391
64 254
65 413
66 243
67 237
68 142
69 205
70 140
71 163
72 50
73 109
74 166
75 308
76 274
77 609
78 399
79 324
80 174
81 126
82 88
83 113
84 76
85 122
86 78
87 110
88 120
89 406
90 291
91 592
92 373
93 239
94 144
95 81
96 30
97 53
98 44
99 50
100 1
101 132
102 219
103 377
104 394
105 322
106 302
107 131
108 100
113 8
114 12
115 400
116 321
117 496
118 501
119 396
120 326
121 261
122 137
123 16
127 108
128 240
129 216
130 321
131 375
132 322
133 323
134 172
135 94
136 84
141 105
142 171
143 289
144 337
145 382
146 379
147 312
148 243
149 249
150 184
151 21
152 12
154 19
155 32
156 118
157 140
158 222
159 231
160 297
161 290
162 195
163 160
164 149
165 96
166 34
167 3
171 15
172 177
173 210
174 245
175 181
176 198
177 113
178 192
179 92
180 54
181 9
182 13
187 37
188 117
189 249
190 210
191 180
192 185
193 50
194 116
195 127
196 69
200 59
201 44
202 104
203 63
204 16
206 221
207 187
208 121
209 45
217 29
218 105
219 122
220 21
222 4
224 92
234 150
235 110
236 154
237 50
250 85
252 999
253 315
254 93
281 243
282 79

$$$$

     RDKit          2D

 18 18  0  0  0  0  0  0  0  0999 V2000
    7.7951   -1.5010    0.0000 C   0  0  0  0  0  0  0  0  0  0  0  0
    7.3040    1.2867    0.0000 C   0  0  0  0  0  0  0  0  0  0  0  0
    6.4962   -0.7508    0.0000 C   0  0  0  0  0  0  0  0  0  0  0  0
    6.3396    0.1378    0.0000 C   0  0  0  0  0  0  0  0  0  0  0  0
   -0.0000    1.5000    0.0000 C   0  0  0  0  0  0  0  0  0  0  0  0
   -1.3000    0.7500    0.0000 C   0  0  0  0  0  0  0  0  0  0  0  0
    1.3000    0.7500    0.0000 C   0  0  0  0  0  0  0  0  0  0  0  0
   -1.3000   -0.7500    0.0000 C   0  0  0  0  0  0  0  0  0  0  0  0
    1.3000   -0.7500    0.0000 C   0  0  0  0  0  0  0  0  0  0  0  0
   -2.5989    1.5002    0.0000 Cl  0  0  0  0  0  0  0  0  0  0  0  0
    2.5989    1.5002    0.0000 Cl  0  0  0  0  0  0  0  0  0  0  0  0
   -2.5989   -1.5002    0.0000 Cl  0  0  0  0  0  0  0  0  0  0  0  0
   -0.0000   -1.5000    0.0000 N   0  0  0  0  0  0  0  0  0  0  0  0
    5.1970   -1.5006    0.0000 O   0  0  0  0  0  0  0  0  0  0  0  0
    4.8624    0.3985    0.0000 O   0  0  0  0  0  0  0  0  0  0  0  0
    2.5989   -1.5002    0.0000 O   0  0  0  0  0  0  0  0  0  0  0  0
    3.8981   -0.7504    0.0000 P   0  0  0  0  0  0  0  0  0  0  0  0
    2.9341    0.3988    0.0000 S   0  0  0  0  0  0  0  0  0  0  0  0
  3  1  1  0
  4  2  1  0
  6  5  2  0
  7  5  1  0
  8  6  1  0
  9  7  2  0
 10  6  1  0
 11  7  1  0
 12  8  1  0
 13  8  2  0
 13  9  1  0
 14  3  1  0
 15  4  1  0
 16  9  1  0
 17 14  1  0
 17 15  1  0
 17 16  1  0
 18 17  2  0
M  END
>  <NAME>  (1110) 
PHOSPHOROTHIOIC ACID O,O-DIETHYL O-(3,5,6-TRICHLORO-2-PYRIDINYL) ESTER

>  <SYNONYMS>  (1110) 
CHLOROPYRIFOS

>  <SPECTRUM TYPE>  (1110) 
MS1

>  <INSTRUMENT TYPE>  (1110) 
EI-B

>  <INSTRUMENT>  (1110) 
JEOL JMS-DX-303

>  <ION MODE>  (1110) 
P

>  <INCHIKEY>  (1110) 
SBPBAQFWLVIOKP-UHFFFAOYSA-N

>  <FORMULA>  (1110) 
C9H11Cl3NO3PS

>  <EXACT MASS>  (1110) 
348.926283882

>  <MW>  (1110) 
349

>  <ID>  (1110) 
JP010431

>  <CONTRIBUTOR>  (1110) 
University of Tokyo Team, {Faculty of Engineering, University of Tokyo

>  <COMMENT>  (1110) 
SMILES=CCOP(=S)(OCC)Oc(n1)c(Cl)cc(Cl)c(Cl)1
InChI=InChI=1S/C9H11Cl3NO3PS/c1-3-14-17(18,15-4-2)16-9-7(11)5-6(10)8(12)13-9/h5H,3-4H2,1-2H3
computed SMILES=S=P(OC1=NC(Cl)=C(Cl)C=C1Cl)(OCC)OCC
accession=JP010431
date=2016.01.19 (Created 2008.10.21, modified 2011.05.06)
author=UOEH
license=CC BY-NC-SA
exact mass=348.92628
ionization energy=70 eV
ion type=[M]+*
computed spectral entropy=4.077161600777238
computed normalized entropy=0.8274714194357856
SPLASH=splash10-0002-2793000000-24fe8c73aae05cb109a6
submitter=submitter = University of Tokyo Team (Faculty of Engineering, University of Tokyo)
MoNA Rating=3.75

>  <NUM PEAKS>  (1110) 
138

>  <MASS SPECTRAL PEAKS>  (1110) 
43 2.19
44 1.11
45 3.05
47 5.29
60 1.15
63 4.19
65 14.19
72 1.99
75 1.08
79 1.76
80 2.43
81 4.77
91 1.73
93 8.03
96 2.03
97 75.85
98 10.34
99 3.84
100 3.96
107 8.18
108 1.86
109 13.29
110 2.83
111 1.37
114 3.4
115 1.26
121 5.66
125 28.25
126 1.04
127 1.68
130 1.19
133 4.83
134 4.87
135 3.47
136 3.49
137 1.65
141 1.14
142 3.88
144 4.32
145 1.63
146 2.51
153 5.54
161 5.34
162 3.69
163 3.86
164 2.57
165 1.26
166 1.34
168 7.08
169 10.62
170 6.43
171 10.48
172 3.58
173 3.04
178 2.07
180 7.94
181 1.51
182 7.51
184 2.29
190 1.12
194 1.76
196 1.54
197 99.99
198 12.19
199 96.16
200 10.79
201 32.69
202 5.73
203 3.91
207 5.12
208 28.39
209 9.4
210 28.59
211 4.34
212 12.06
213 20.57
214 5.74
215 19.51
216 2.26
217 6.94
219 1.07
224 1.96
225 1.42
226 1.69
228 1.87
230 1.25
240 1.29
241 1.74
242 1.73
243 2.15
244 11.16
245 2.09
246 9.37
248 3.12
257 4.97
258 41.03
259 5.69
260 31
261 2.99
262 7.28
263 1.07
264 1.34
270 1.27
272 1.6
274 1.49
276 8.58
277 1.65
278 10.86
279 1.51
280 3.58
285 1.64
286 35.97
287 4.49
288 29.7
289 3.01
290 9.11
291 1.1
292 5.29
294 4.71
296 2.53
298 1.28
300 1.51
304 4.61
306 4.42
308 2.32
313 1.47
314 77.14
315 9.62
316 58.45
317 6.73
318 14.9
319 1.51
320 1.71
349 7.87
350 1.15
351 7.28
352 1.07
353 3.39

>  <PREDICTED SPECTRUM>  (1110) 
14 46
15 202
16 14
17 18
18 29
19 52
25 24
26 192
27 444
28 287
29 680
30 101
31 78
32 40
35 41
36 59
38 35
40 73
41 110
42 147
43 211
44 109
45 309
46 58
47 456
48 10
49 39
50 34
51 48
57 80
58 51
59 83
60 134
61 115
62 169
63 428
64 89
65 462
66 25
67 9
68 25
69 66
70 50
71 12
72 90
73 31
75 134
76 104
77 14
78 61
79 272
80 157
81 354
82 102
83 98
84 119
85 102
86 374
87 148
88 111
89 20
90 12
91 30
93 399
94 49
96 326
97 999
98 227
99 334
100 181
101 78
102 58
103 113
105 37
106 139
107 76
108 269
109 684
110 174
111 32
112 35
113 180
114 121
115 30
117 45
118 93
119 109
120 126
121 244
122 220
124 21
125 304
126 118
127 64
128 94
129 66
130 5
131 73
132 109
133 132
134 166
135 79
136 18
137 5
139 101
140 153
141 32
142 16
143 161
144 267
145 290
146 277
147 245
148 268
149 321
150 261
151 184
152 106
153 68
154 191
155 46
160 41
162 285
163 170
164 212
165 50
167 23
168 138
169 132
170 251
171 159
172 349
173 116
174 49
175 58
176 60
177 274
178 324
179 403
180 344
181 308
182 333
183 189
184 166
185 163
186 151
196 290
197 729
198 600
199 398
200 287
201 10
206 14
207 324
208 460
209 348
210 362
211 358
212 305
213 517
214 270
215 206
216 48
217 128
219 82
221 62
224 267
225 432
226 345
227 354
228 119
229 103
230 148
231 34
235 32
236 1
237 3
240 102
241 70
242 289
243 88
244 481
245 155
246 249
247 29
248 119
249 24
250 2
253 13
257 185
258 545
259 337
260 342
261 228
262 94
263 114
272 232
274 72
275 75
276 415
277 186
278 172
282 60
286 857
287 304
288 664
289 188
290 293
292 209
293 26
294 163
296 18
304 139
306 150
314 733
315 235
316 306
317 143
318 173
319 117
320 114
321 200
322 127
324 102
349 452
350 203
351 423
352 195
353 165
354 81

$$$$

     RDKit          2D

 14 13  0  0  0  0  0  0  0  0999 V2000
    3.7897    3.9360    0.0000 C   0  0  0  0  0  0  0  0  0  0  0  0
    3.2982    6.7237    0.0000 C   0  0  0  0  0  0  0  0  0  0  0  0
   -7.9016    4.6860    0.0000 C   0  0  0  0  0  0  0  0  0  0  0  0
    2.4907    4.6860    0.0000 C   0  0  0  0  0  0  0  0  0  0  0  0
    2.3340    5.5746    0.0000 C   0  0  0  0  0  0  0  0  0  0  0  0
   -6.6026    3.9360    0.0000 C   0  0  0  0  0  0  0  0  0  0  0  0
   -4.0045    3.9360    0.0000 C   0  0  0  0  0  0  0  0  0  0  0  0
   -2.7055    4.6860    0.0000 C   0  0  0  0  0  0  0  0  0  0  0  0
    1.1916    3.9360    0.0000 O   0  0  0  0  0  0  0  0  0  0  0  0
    0.8568    5.8351    0.0000 O   0  0  0  0  0  0  0  0  0  0  0  0
   -0.1074    4.6860    0.0000 P   0  0  0  0  0  0  0  0  0  0  0  0
   -1.0716    5.8351    0.0000 S   0  0  0  0  0  0  0  0  0  0  0  0
   -5.3036    4.6860    0.0000 S   0  0  0  0  0  0  0  0  0  0  0  0
   -1.4065    3.9360    0.0000 S   0  0  0  0  0  0  0  0  0  0  0  0
  4  1  1  0
  5  2  1  0
  6  3  1  0
  8  7  1  0
  9  4  1  0
 10  5  1  0
 11  9  1  0
 11 10  1  0
 12 11  2  0
 13  6  1  0
 13  7  1  0
 14  8  1  0
 14 11  1  0
M  END
>  <NAME>  (1111) 
PHOSPHORODITHIOIC ACID O,O-DIETHYL S-(2-(ETHYLTHIO)ETHYL) ESTER

>  <SYNONYMS>  (1111) 
DISULFOTON

>  <SPECTRUM TYPE>  (1111) 
MS1

>  <INSTRUMENT TYPE>  (1111) 
EI-B

>  <INSTRUMENT>  (1111) 
JEOL JMS-DX-303

>  <ION MODE>  (1111) 
P

>  <INCHIKEY>  (1111) 
DOFZAZXDOSGAJZ-UHFFFAOYSA-N

>  <FORMULA>  (1111) 
C8H19O2PS3

>  <EXACT MASS>  (1111) 
274.028479478

>  <MW>  (1111) 
274

>  <ID>  (1111) 
JP010430

>  <CONTRIBUTOR>  (1111) 
University of Tokyo Team, {Faculty of Engineering, University of Tokyo

>  <COMMENT>  (1111) 
SMILES=CCSCCSP(=S)(OCC)OCC
InChI=InChI=1S/C8H19O2PS3/c1-4-9-11(12,10-5-2)14-8-7-13-6-3/h4-8H2,1-3H3
computed SMILES=S=P(OCC)(OCC)SCCSCC
accession=JP010430
date=2016.01.19 (Created 2008.10.21, modified 2011.05.06)
author=UOEH
license=CC BY-NC-SA
exact mass=274.02848
ionization energy=70 eV
ion type=[M]+*
computed spectral entropy=2.997062224280697
computed normalized entropy=0.7741944207587951
SPLASH=splash10-000i-9300000000-b8f166d101cbcb075e78
submitter=submitter = University of Tokyo Team (Faculty of Engineering, University of Tokyo)
MoNA Rating=3.75

>  <NUM PEAKS>  (1111) 
48

>  <MASS SPECTRAL PEAKS>  (1111) 
45 2.8
46 1.14
47 4.55
55 1.09
59 5.26
60 20.85
61 20
62 1.74
63 1.23
64 1.16
65 10.6
73 1.18
75 4.83
88 99.99
89 39.52
90 6.19
91 2.06
93 8.91
97 19.87
99 1.11
109 4.27
112 1.39
114 3.24
121 3.48
124 1.04
125 13.31
129 6.14
130 1.55
131 1.79
142 16.15
144 1.5
153 14.75
155 1.08
157 3.31
158 5.09
159 2.05
161 1.06
185 1.36
186 15.44
187 4.3
188 1.65
189 2.84
212 1.13
213 1.52
245 1.54
274 12.83
275 1.7
276 1.81

>  <PREDICTED SPECTRUM>  (1111) 
26 38
27 254
28 62
29 207
32 7
34 59
35 130
41 52
43 98
44 45
45 298
46 223
47 376
48 96
49 97
53 3
55 103
57 9
58 148
59 249
60 451
61 500
62 261
63 415
64 183
65 437
66 19
69 44
73 189
74 111
75 415
76 81
77 97
78 37
79 173
80 206
81 288
82 1
86 9
87 232
88 272
89 617
90 266
91 363
92 121
93 425
94 106
95 88
96 10
97 700
98 5
99 89
103 29
104 147
105 256
106 150
107 356
108 132
109 378
113 160
114 64
115 211
116 8
121 999
122 393
123 234
124 103
125 568
126 225
127 241
128 83
129 178
130 57
131 118
132 52
136 17
137 98
139 30
141 161
142 308
143 359
151 58
153 687
154 178
155 410
156 76
157 249
158 119
159 238
160 25
169 212
170 88
171 199
172 264
173 96
175 69
185 516
186 480
187 179
188 93
197 176
199 45
201 56
202 18
203 16
217 36
218 83
219 87
274 568
275 210
276 202
277 26

$$$$

     RDKit          2D

 19 19  0  0  0  0  0  0  0  0999 V2000
   -3.8981    1.5008    0.0000 C   0  0  0  0  0  0  0  0  0  0  0  0
   -3.4070   -1.2869    0.0000 C   0  0  0  0  0  0  0  0  0  0  0  0
    7.7951    0.7502    0.0000 C   0  0  0  0  0  0  0  0  0  0  0  0
    6.4957    3.0000    0.0000 C   0  0  0  0  0  0  0  0  0  0  0  0
    3.8970   -3.0002    0.0000 C   0  0  0  0  0  0  0  0  0  0  0  0
   -2.5992    0.7506    0.0000 C   0  0  0  0  0  0  0  0  0  0  0  0
   -2.4426   -0.1380    0.0000 C   0  0  0  0  0  0  0  0  0  0  0  0
    2.5970   -0.7502    0.0000 C   0  0  0  0  0  0  0  0  0  0  0  0
    6.4959    1.5000    0.0000 C   0  0  0  0  0  0  0  0  0  0  0  0
    3.8970   -1.5002    0.0000 C   0  0  0  0  0  0  0  0  0  0  0  0
    2.5970    0.7498    0.0000 C   0  0  0  0  0  0  0  0  0  0  0  0
    5.1970    0.7498    0.0000 C   0  0  0  0  0  0  0  0  0  0  0  0
    5.1970   -0.7502    0.0000 N   0  0  0  0  0  0  0  0  0  0  0  0
    3.8970    1.4998    0.0000 N   0  0  0  0  0  0  0  0  0  0  0  0
   -1.3000    1.5004    0.0000 O   0  0  0  0  0  0  0  0  0  0  0  0
   -0.9654   -0.3987    0.0000 O   0  0  0  0  0  0  0  0  0  0  0  0
    1.2981    1.5000    0.0000 O   0  0  0  0  0  0  0  0  0  0  0  0
   -0.0011    0.7502    0.0000 P   0  0  0  0  0  0  0  0  0  0  0  0
    0.9629   -0.3990    0.0000 S   0  0  0  0  0  0  0  0  0  0  0  0
  6  1  1  0
  7  2  1  0
  9  3  1  0
  9  4  1  0
 10  5  1  0
 10  8  2  0
 11  8  1  0
 12  9  1  0
 13 10  1  0
 13 12  2  0
 14 11  2  0
 14 12  1  0
 15  6  1  0
 16  7  1  0
 17 11  1  0
 18 15  1  0
 18 16  1  0
 18 17  1  0
 19 18  2  0
M  END
>  <NAME>  (1112) 
PHOSPHOROTHIOIC ACID O,O-DIETHYL O-(6-METHYL-2-(1-METHYLETHYL)-4-PYRIMIDINYL) ESTER

>  <SYNONYMS>  (1112) 
DIAZINON

>  <SPECTRUM TYPE>  (1112) 
MS1

>  <INSTRUMENT TYPE>  (1112) 
EI-B

>  <INSTRUMENT>  (1112) 
JEOL JMS-DX-303

>  <ION MODE>  (1112) 
P

>  <INCHIKEY>  (1112) 
FHIVAFMUCKRCQO-UHFFFAOYSA-N

>  <FORMULA>  (1112) 
C12H21N2O3PS

>  <EXACT MASS>  (1112) 
304.101050162

>  <MW>  (1112) 
304

>  <ID>  (1112) 
JP010429

>  <CONTRIBUTOR>  (1112) 
University of Tokyo Team, {Faculty of Engineering, University of Tokyo

>  <COMMENT>  (1112) 
SMILES=CCOP(=S)(OCC)Oc(c1)nc(C(C)C)nc(C)1
InChI=InChI=1S/C12H21N2O3PS/c1-6-15-18(19,16-7-2)17-11-8-10(5)13-12(14-11)9(3)4/h8-9H,6-7H2,1-5H3
computed SMILES=S=P(OC=1N=C(N=C(C1)C)C(C)C)(OCC)OCC
accession=JP010429
date=2016.01.19 (Created 2008.10.21, modified 2011.05.06)
author=UOEH
license=CC BY-NC-SA
exact mass=304.10105
ionization energy=70 eV
ion type=[M]+*
computed spectral entropy=3.811382528856439
computed normalized entropy=0.8276312003524064
SPLASH=splash10-0ufr-3931000000-a70584cb463b92093849
submitter=submitter = University of Tokyo Team (Faculty of Engineering, University of Tokyo)
MoNA Rating=3.75

>  <NUM PEAKS>  (1112) 
100

>  <MASS SPECTRAL PEAKS>  (1112) 
39 6.7
41 11.23
42 9.91
43 13.67
45 1.87
47 2.12
52 2.98
53 1.3
54 8.58
55 2.72
65 10.74
66 19.17
67 6.21
68 8.33
69 1.77
70 2.75
80 1.1
81 2.36
82 2.1
83 2.53
84 14.88
93 34.58
94 3.35
96 1.06
97 22.36
98 2.27
99 1.82
100 1.57
108 1.29
109 4.16
110 3.86
111 1.2
114 1.54
115 1.15
119 4.71
121 3.55
124 21.21
125 7.6
126 1.76
133 3.3
134 8.44
135 25.89
136 3.69
137 89.55
138 7.86
140 1.58
147 2.77
149 1.53
150 1.16
151 23.29
152 84.47
153 41.09
154 3.86
155 1.02
161 1.45
162 15.44
163 17.85
164 5.64
165 2.27
167 8.53
168 4.24
179 99.99
180 14.16
181 1.57
183 3.16
195 4.95
196 1.03
197 1.51
199 49.78
200 5.08
215 12.46
216 16.17
217 2.3
220 1.54
227 26.48
228 3.37
231 10.28
232 2.97
233 5.66
243 3.72
247 4.76
248 26.56
249 2.97
250 1.71
259 5.23
260 12.93
261 5.26
262 1.25
272 1.12
273 2.95
276 28.22
277 3.9
278 1.77
288 1.38
289 11
290 2.11
303 1.8
304 68.48
305 10.85
306 4.18

>  <PREDICTED SPECTRUM>  (1112) 
14 23
15 93
16 10
17 17
18 16
26 90
27 307
28 180
29 457
30 72
31 28
38 12
39 202
40 124
41 426
42 276
43 200
44 76
45 217
46 69
47 257
48 19
50 22
51 108
52 125
53 220
54 174
55 192
56 88
57 235
58 122
59 113
60 58
61 30
62 78
63 190
64 88
65 456
66 171
67 236
68 176
69 225
70 125
71 135
73 40
75 147
76 32
77 174
78 129
79 270
80 260
81 275
82 163
83 152
84 100
85 8
86 27
87 5
89 58
91 154
92 126
93 411
94 179
95 180
96 169
97 833
98 57
99 187
101 51
102 6
103 54
104 42
105 119
106 135
107 297
108 211
109 342
110 222
111 172
112 148
113 115
119 97
120 53
121 86
122 67
123 160
124 127
125 252
126 106
127 85
133 136
134 218
135 378
136 304
137 441
138 271
139 134
140 85
141 154
142 16
143 102
146 16
147 131
149 107
150 87
151 485
152 999
153 518
154 212
155 46
161 167
162 441
163 592
164 288
165 199
166 66
167 192
168 399
169 186
170 11
179 556
180 294
181 277
182 66
183 234
184 26
185 71
186 20
187 1
193 1
195 106
196 196
197 242
198 108
199 385
200 133
201 60
213 112
214 46
215 124
216 68
219 75
221 83
227 141
228 8
229 102
230 47
231 267
232 149
233 163
243 151
247 133
248 269
249 92
250 13
259 102
260 16
261 162
275 155
276 316
277 104
278 54
289 189
290 56
304 585
305 371
306 254
307 102

$$$$

     RDKit          2D

 16 16  0  0  0  0  0  0  0  0999 V2000
   -5.8456    1.8746    0.0000 C   0  0  0  0  0  0  0  0  0  0  0  0
   -2.2833    4.5237    0.0000 C   0  0  0  0  0  0  0  0  0  0  0  0
   -4.2117    4.5237    0.0000 C   0  0  0  0  0  0  0  0  0  0  0  0
   -4.5465    2.6246    0.0000 C   0  0  0  0  0  0  0  0  0  0  0  0
    0.6492    1.1238    0.0000 C   0  0  0  0  0  0  0  0  0  0  0  0
    1.9492    3.3754    0.0000 C   0  0  0  0  0  0  0  0  0  0  0  0
    3.2477    1.1246    0.0000 C   0  0  0  0  0  0  0  0  0  0  0  0
    0.6496    2.6246    0.0000 C   0  0  0  0  0  0  0  0  0  0  0  0
    1.9482    0.3738    0.0000 C   0  0  0  0  0  0  0  0  0  0  0  0
    3.2482    2.6254    0.0000 C   0  0  0  0  0  0  0  0  0  0  0  0
   -0.6494    3.3746    0.0000 C   0  0  0  0  0  0  0  0  0  0  0  0
   -3.2475    3.3746    0.0000 C   0  0  0  0  0  0  0  0  0  0  0  0
    1.9484   -1.1262    0.0000 Cl  0  0  0  0  0  0  0  0  0  0  0  0
    4.5474    3.3752    0.0000 Cl  0  0  0  0  0  0  0  0  0  0  0  0
   -1.9484    2.6246    0.0000 N   0  0  0  0  0  0  0  0  0  0  0  0
   -0.6494    4.8746    0.0000 O   0  0  0  0  0  0  0  0  0  0  0  0
  4  1  3  0
  8  5  2  0
  8  6  1  0
  9  5  1  0
  9  7  2  0
 10  6  2  0
 10  7  1  0
 11  8  1  0
 12  2  1  0
 12  3  1  0
 12  4  1  0
 13  9  1  0
 14 10  1  0
 15 11  2  3
 15 12  1  0
 16 11  1  0
M  END
>  <NAME>  (1113) 
3,5-DICHLORO-N-(1,1-DIMETHYL-2-PROPYNYL)BENZAMIDE

>  <SYNONYMS>  (1113) 


>  <SPECTRUM TYPE>  (1113) 
MS1

>  <INSTRUMENT TYPE>  (1113) 
EI-B

>  <INSTRUMENT>  (1113) 
JEOL JMS-DX-303

>  <ION MODE>  (1113) 
P

>  <INCHIKEY>  (1113) 
PHNUZKMIPFFYSO-UHFFFAOYSA-N

>  <FORMULA>  (1113) 
C12H11Cl2NO

>  <EXACT MASS>  (1113) 
255.021769332

>  <MW>  (1113) 
255

>  <ID>  (1113) 
JP010428

>  <CONTRIBUTOR>  (1113) 
University of Tokyo Team, {Faculty of Engineering, University of Tokyo

>  <COMMENT>  (1113) 
SMILES=C#CC(C)(C)NC(=O)c(c1)cc(Cl)cc(Cl)1
cas=23950-58-5
InChI=InChI=1S/C12H11Cl2NO/c1-4-12(2,3)15-11(16)8-5-9(13)7-10(14)6-8/h1,5-7H,2-3H3,(H,15,16)
computed SMILES=ClC=1C=C(Cl)C=C(C1)C(O)=NC(C#C)(C)C
accession=JP010428
date=2016.01.19 (Created 2008.10.21, modified 2011.05.06)
author=UOEH
license=CC BY-NC-SA
exact mass=255.02177
ionization energy=70 eV
ion type=[M]+*
computed spectral entropy=3.136467877649966
computed normalized entropy=0.7692063949866912
SPLASH=splash10-05i0-1940000000-d07e0a1b0c1d454fe3ff
submitter=submitter = University of Tokyo Team (Faculty of Engineering, University of Tokyo)
MoNA Rating=3.75

>  <NUM PEAKS>  (1113) 
59

>  <MASS SPECTRAL PEAKS>  (1113) 
39 3.04
41 4.8
42 2.1
44 1.55
50 1.48
51 1.59
52 1.73
57 1.13
65 2.43
66 4.17
67 3.87
69 1.26
74 4.19
75 4.32
82 2.47
83 1.85
84 8.55
85 1.69
102 2.14
109 9.31
110 4.35
111 3.81
112 1.72
120 1.06
121 1.3
138 1.28
145 25.42
146 2.75
147 17.02
148 1.46
149 2.48
171 1.74
172 2.8
173 99.99
174 9.36
175 65.83
176 5.53
177 11.57
179 1.9
189 1.52
190 1.43
191 1.26
192 1.93
202 1.28
212 1.51
214 1.02
226 2.58
228 2.05
240 13.02
241 1.72
242 8.47
243 1.08
244 1.41
254 23.82
255 36.45
256 20.73
257 25.65
258 5.6
259 3.89

>  <PREDICTED SPECTRUM>  (1113) 
32 18
33 12
34 5
35 34
36 72
37 48
38 76
39 168
40 78
41 264
42 126
43 147
44 162
45 57
49 77
50 219
51 222
52 104
53 155
54 101
55 159
56 83
57 179
58 71
59 100
60 70
61 118
62 178
63 220
64 95
65 60
66 44
67 132
68 111
69 186
70 59
71 124
72 112
73 145
74 272
75 403
76 71
77 80
79 22
80 64
81 71
82 37
83 65
84 128
85 258
86 219
87 210
88 114
89 32
91 63
92 33
93 25
94 75
95 58
96 52
97 103
98 99
99 294
100 23
101 129
102 81
103 10
105 8
106 22
107 70
108 93
109 333
110 210
111 308
112 191
113 195
114 81
115 107
116 0
117 41
118 13
119 45
121 32
122 48
123 85
124 66
125 94
126 90
127 121
128 60
129 137
130 83
131 103
133 82
135 107
136 134
137 53
138 20
139 140
140 9
141 29
142 68
143 50
144 27
145 365
146 115
147 428
148 230
149 172
150 139
151 93
152 37
153 69
154 29
155 54
156 39
157 167
158 92
159 186
160 108
161 152
162 137
163 185
164 116
165 118
167 31
168 69
169 47
170 100
171 29
172 232
173 397
174 153
175 317
176 221
177 150
178 102
179 66
180 17
181 17
183 0
185 29
186 31
187 77
188 97
189 56
190 90
191 84
192 171
193 55
194 95
196 80
197 130
198 0
199 117
200 76
201 118
202 111
203 149
204 197
205 261
206 118
207 129
210 16
211 119
212 44
213 40
214 47
220 254
221 52
222 344
223 78
224 107
225 76
226 129
227 73
228 88
229 11
238 209
239 174
240 999
241 473
242 746
243 316
244 275
254 109
255 371
256 203
257 355
258 141
259 122

$$$$

     RDKit          2D

 13 13  0  0  0  0  0  0  0  0999 V2000
    5.1970    3.0000    0.0000 C   0  0  0  0  0  0  0  0  0  0  0  0
   -5.1970    3.0000    0.0000 C   0  0  0  0  0  0  0  0  0  0  0  0
    3.8981    2.2498    0.0000 C   0  0  0  0  0  0  0  0  0  0  0  0
   -3.8981    2.2498    0.0000 C   0  0  0  0  0  0  0  0  0  0  0  0
   -0.0000   -0.0006    0.0000 C   0  0  0  0  0  0  0  0  0  0  0  0
    1.3000    2.2494    0.0000 C   0  0  0  0  0  0  0  0  0  0  0  0
   -1.3000    2.2494    0.0000 C   0  0  0  0  0  0  0  0  0  0  0  0
   -0.0000   -1.5006    0.0000 Cl  0  0  0  0  0  0  0  0  0  0  0  0
    2.5989    2.9996    0.0000 N   0  0  0  0  0  0  0  0  0  0  0  0
   -2.5989    2.9996    0.0000 N   0  0  0  0  0  0  0  0  0  0  0  0
    1.3000    0.7494    0.0000 N   0  0  0  0  0  0  0  0  0  0  0  0
   -1.3000    0.7494    0.0000 N   0  0  0  0  0  0  0  0  0  0  0  0
   -0.0000    2.9994    0.0000 N   0  0  0  0  0  0  0  0  0  0  0  0
  3  1  1  0
  4  2  1  0
  8  5  1  0
  9  3  1  0
  9  6  2  3
 10  4  1  0
 10  7  2  3
 11  5  2  0
 11  6  1  0
 12  5  1  0
 12  7  1  0
 13  6  1  0
 13  7  1  0
M  END
>  <NAME>  (1114) 
2-CHLORO-4,6-BIS(ETHYLAMINO)-1,3,5-TRIAZINE

>  <SYNONYMS>  (1114) 
SIMAZINE

>  <SPECTRUM TYPE>  (1114) 
MS1

>  <INSTRUMENT TYPE>  (1114) 
EI-B

>  <INSTRUMENT>  (1114) 
JEOL JMS-DX-303

>  <ION MODE>  (1114) 
P

>  <INCHIKEY>  (1114) 
ODCWYMIRDDJXKW-UHFFFAOYSA-N

>  <FORMULA>  (1114) 
C7H12ClN5

>  <EXACT MASS>  (1114) 
201.078123064

>  <MW>  (1114) 
201

>  <ID>  (1114) 
JP010427

>  <CONTRIBUTOR>  (1114) 
University of Tokyo Team, {Faculty of Engineering, University of Tokyo

>  <COMMENT>  (1114) 
SMILES=CCNc(n1)nc(Cl)nc(NCC)1
InChI=InChI=1S/C7H12ClN5/c1-3-9-6-11-5(8)12-7(13-6)10-4-2/h3-4H2,1-2H3,(H2,9,10,11,12,13)
computed SMILES=ClC1=NC(=NCC)NC(=NCC)N1
accession=JP010427
date=2016.01.19 (Created 2008.10.21, modified 2011.05.06)
author=UOEH
license=CC BY-NC-SA
exact mass=201.07812
ionization energy=70 eV
ion type=[M]+*
computed spectral entropy=3.665977024795492
computed normalized entropy=0.8296241820370813
SPLASH=splash10-0udr-6940000000-1564d55a36848813fb2f
submitter=submitter = University of Tokyo Team (Faculty of Engineering, University of Tokyo)
MoNA Rating=3.75

>  <NUM PEAKS>  (1114) 
83

>  <MASS SPECTRAL PEAKS>  (1114) 
40 1.87
41 1.62
42 6.21
43 19.57
44 29.66
45 1.49
53 2.18
54 1.48
55 9.73
62 4.28
64 1.39
67 1.57
68 22.96
69 9.03
70 2.71
71 18.12
72 1.04
78 1.06
79 1.95
80 1.78
81 1.97
83 1.7
85 18.89
86 1.71
87 5.92
89 1.54
90 1.26
91 10.03
92 1.1
93 11.83
94 3.99
95 3.02
96 19.54
97 1.82
104 7.5
105 2.29
106 2.73
109 1.11
110 4.11
116 1.21
117 3.94
119 1.49
121 1.05
122 4.79
123 10.33
129 4.18
130 3.57
131 2.57
132 10.16
133 1.12
134 3.13
136 1.27
137 1.37
138 16.98
139 1.45
143 4.7
144 1.45
145 12.59
146 1.51
147 3.72
157 2.26
158 25.43
159 4.02
160 7.79
161 2.04
166 3.75
170 1.43
172 13.5
173 42.63
174 7.11
175 15.27
176 1.39
184 1.4
186 61.77
187 6.05
188 20.73
189 1.49
198 1.97
200 14.78
201 99.99
202 14.25
203 35.97
204 3.57

>  <PREDICTED SPECTRUM>  (1114) 
26 12
27 84
28 57
29 85
33 18
34 4
35 22
36 84
38 57
39 199
40 193
41 364
42 324
43 436
44 346
45 44
47 23
48 17
49 46
50 41
51 97
52 88
53 146
54 213
55 349
56 243
57 171
61 4
62 10
63 98
64 104
65 63
66 58
67 183
68 261
69 213
70 170
71 176
72 159
73 134
74 130
75 88
76 120
77 27
78 13
80 119
81 8
82 133
83 167
84 2
88 34
89 61
90 159
91 83
93 1
94 12
95 88
96 82
97 117
102 74
103 9
104 185
105 126
106 18
108 23
110 90
111 53
117 6
119 88
123 79
124 108
125 5
126 1
129 74
130 93
131 113
132 101
133 80
138 49
144 250
145 307
146 343
147 246
148 52
158 122
159 235
160 115
161 175
166 184
167 57
170 5
172 999
173 525
174 593
175 286
176 154
185 19
186 311
187 73
188 185
189 43
200 18
201 430
202 122
203 268
204 55

$$$$

     RDKit          2D

 14 13  0  0  0  0  0  0  0  0999 V2000
   -2.7709    3.2993    0.0000 C   0  0  0  0  0  0  0  0  0  0  0  0
    2.4253    4.7993    0.0000 C   0  0  0  0  0  0  0  0  0  0  0  0
   -7.9670    4.7993    0.0000 C   0  0  0  0  0  0  0  0  0  0  0  0
   -4.9178    2.2407    0.0000 C   0  0  0  0  0  0  0  0  0  0  0  0
   -1.4718    5.5493    0.0000 C   0  0  0  0  0  0  0  0  0  0  0  0
   -2.7709    4.7993    0.0000 C   0  0  0  0  0  0  0  0  0  0  0  0
   -0.1728    4.7993    0.0000 C   0  0  0  0  0  0  0  0  0  0  0  0
    1.1262    5.5493    0.0000 N   0  0  0  0  0  0  0  0  0  0  0  0
   -0.1728    3.2993    0.0000 O   0  0  0  0  0  0  0  0  0  0  0  0
   -6.3331    3.6502    0.0000 O   0  0  0  0  0  0  0  0  0  0  0  0
   -6.6680    5.5493    0.0000 O   0  0  0  0  0  0  0  0  0  0  0  0
   -4.4048    3.6502    0.0000 O   0  0  0  0  0  0  0  0  0  0  0  0
   -4.0699    5.5493    0.0000 O   0  0  0  0  0  0  0  0  0  0  0  0
   -5.3690    4.7993    0.0000 P   0  0  0  0  0  0  0  0  0  0  0  0
  6  1  1  0
  5  6  2  0
  7  5  1  0
  8  2  1  0
  8  7  2  3
  9  7  1  0
 11  3  1  0
 12  4  1  0
 13  6  1  0
 14 10  2  0
 14 11  1  0
 14 12  1  0
 14 13  1  0
M  END
>  <NAME>  (1115) 
(E)-1-METHYL-2-(METHYLCARBAMOYL)VINYL DIMETHYL PHOSPHATE

>  <SYNONYMS>  (1115) 


>  <SPECTRUM TYPE>  (1115) 
MS1

>  <INSTRUMENT TYPE>  (1115) 
EI-B

>  <INSTRUMENT>  (1115) 
JEOL JMS-DX-303

>  <ION MODE>  (1115) 
P

>  <INCHIKEY>  (1115) 
KRTSDMXIXPKRQR-AATRIKPKSA-N

>  <FORMULA>  (1115) 
C7H14NO5P

>  <EXACT MASS>  (1115) 
223.060959178

>  <MW>  (1115) 
223

>  <ID>  (1115) 
JP010426

>  <CONTRIBUTOR>  (1115) 
University of Tokyo Team, {Faculty of Engineering, University of Tokyo

>  <COMMENT>  (1115) 
SMILES=CNC(=O)C([H])=C(C)OP(=O)(OC)OC
InChI=InChI=1S/C7H14NO5P/c1-6(5-7(9)8-2)13-14(10,11-3)12-4/h5H,1-4H3,(H,8,9)/b6-5+
computed SMILES=O=P(OC(=CC(O)=NC)C)(OC)OC
author=UOEH
accession=JP010426
date=2016.01.19 (Created 2008.10.21, modified 2011.05.06)
license=CC BY-NC-SA
exact mass=223.06096
ionization energy=70 eV
ion type=[M]+*
computed spectral entropy=2.2706975573079053
computed normalized entropy=0.6889593294891322
SPLASH=splash10-004i-4900000000-e97ee38f28a0c37d737a
submitter=submitter = University of Tokyo Team (Faculty of Engineering, University of Tokyo)
MoNA Rating=3.75

>  <NUM PEAKS>  (1115) 
27

>  <MASS SPECTRAL PEAKS>  (1115) 
39 2.64
43 2.82
44 2.18
50 1.19
58 8.29
66 1.91
67 19.76
68 1.77
69 2.19
79 2.58
82 1.92
93 1.04
95 2.05
96 2.86
97 18.44
98 1.96
109 10.46
113 1.14
127 99.99
128 2.99
129 1.02
164 3.97
165 1.08
166 1.2
192 19.51
193 11.82
223 8.64

>  <PREDICTED SPECTRUM>  (1115) 
31 40
33 10
39 105
40 24
41 112
42 5
43 154
47 157
48 46
50 129
51 59
52 50
53 121
55 11
57 166
58 69
63 28
64 127
65 151
66 235
67 97
68 3
77 110
78 117
79 352
80 190
81 226
82 112
83 90
93 102
95 400
96 312
97 407
98 180
104 126
105 159
109 745
110 272
111 15
113 70
127 999
128 245
177 46
192 113
205 85
206 46
222 43
223 468
224 165

$$$$

     RDKit          2D

 16 17  0  0  0  0  0  0  0  0999 V2000
    5.1981   -0.7504    0.0000 C   0  0  0  0  0  0  0  0  0  0  0  0
    3.8987   -3.0002    0.0000 C   0  0  0  0  0  0  0  0  0  0  0  0
   -2.6000   -0.7500    0.0000 C   0  0  0  0  0  0  0  0  0  0  0  0
   -2.6000    0.7500    0.0000 C   0  0  0  0  0  0  0  0  0  0  0  0
   -1.3000   -1.5000    0.0000 C   0  0  0  0  0  0  0  0  0  0  0  0
   -1.3000    1.5000    0.0000 C   0  0  0  0  0  0  0  0  0  0  0  0
    3.8989   -1.5002    0.0000 C   0  0  0  0  0  0  0  0  0  0  0  0
    0.0000   -0.7500    0.0000 C   0  0  0  0  0  0  0  0  0  0  0  0
    0.0000    0.7500    0.0000 C   0  0  0  0  0  0  0  0  0  0  0  0
    1.3000   -1.5000    0.0000 C   0  0  0  0  0  0  0  0  0  0  0  0
    1.3000    1.5000    0.0000 N   0  0  0  0  0  0  0  0  0  0  0  0
    2.6000   -0.7500    0.0000 N   0  0  0  0  0  0  0  0  0  0  0  0
    1.3000   -3.0000    0.0000 O   0  0  0  0  0  0  0  0  0  0  0  0
    4.0772    0.4897    0.0000 O   0  0  0  0  0  0  0  0  0  0  0  0
    3.1127    2.1596    0.0000 O   0  0  0  0  0  0  0  0  0  0  0  0
    2.6000    0.7500    0.0000 S   0  0  0  0  0  0  0  0  0  0  0  0
  4  3  2  0
  5  3  1  0
  6  4  1  0
  7  1  1  0
  7  2  1  0
  8  5  2  0
  9  6  2  0
  9  8  1  0
 10  8  1  0
 11  9  1  0
 12  7  1  0
 12 10  1  0
 13 10  2  0
 16 11  1  0
 16 12  1  0
 16 14  2  0
 16 15  2  0
M  END
>  <NAME>  (1116) 
3-(1-METHYLETHYL)-1H-2,1,3-BENZOTHIADIAZIN-4(3H)-ONE

>  <SYNONYMS>  (1116) 
BENTAZON

>  <SPECTRUM TYPE>  (1116) 
MS1

>  <INSTRUMENT TYPE>  (1116) 
EI-B

>  <INSTRUMENT>  (1116) 
JEOL JMS-DX-303

>  <ION MODE>  (1116) 
P

>  <INCHIKEY>  (1116) 
ZOMSMJKLGFBRBS-UHFFFAOYSA-N

>  <FORMULA>  (1116) 
C10H12N2O3S

>  <EXACT MASS>  (1116) 
240.056863244

>  <MW>  (1116) 
240

>  <ID>  (1116) 
JP010425

>  <CONTRIBUTOR>  (1116) 
University of Tokyo Team, {Faculty of Engineering, University of Tokyo

>  <COMMENT>  (1116) 
SMILES=CC(C)N1C(=O)C2=CC=CC=C2NS1(=O)=O
InChI=InChI=1S/C10H12N2O3S/c1-7(2)12-10(13)8-5-3-4-6-9(8)11-16(12,14)15/h3-7,11H,1-2H3
computed SMILES=O=C1C=2C=CC=CC2NS(=O)(=O)N1C(C)C
accession=JP010425
date=2016.01.19 (Created 2008.10.21, modified 2011.05.06)
author=UOEH
license=CC BY-NC-SA
exact mass=240.05686
ionization energy=70 eV
ion type=[M]+*
computed spectral entropy=2.835042793221383
computed normalized entropy=0.7447581183884887
SPLASH=splash10-00kb-2910000000-678111d259a160fc4775
submitter=submitter = University of Tokyo Team (Faculty of Engineering, University of Tokyo)
MoNA Rating=3.75

>  <NUM PEAKS>  (1116) 
45

>  <MASS SPECTRAL PEAKS>  (1116) 
36 2.7
39 3.81
41 3.21
42 2.03
43 1.7
51 1.93
52 2.42
62 1.03
63 5.78
64 7.41
65 4.2
76 1.49
77 1.86
78 1.59
79 1.73
90 6.19
91 5.96
92 20.36
93 1.83
105 2.78
106 2.06
118 9.44
119 79.3
120 19.78
121 1.25
133 1.38
134 1.52
138 1.34
154 1.73
161 34.27
162 3.8
181 1.71
182 24.14
183 2.94
184 1.66
198 99.99
199 14.95
200 6.38
201 1.05
225 26.33
226 3.11
227 1.67
240 18.56
241 2.14
242 1.03

>  <PREDICTED SPECTRUM>  (1116) 
14 9
15 128
16 22
26 23
27 176
28 128
29 121
33 48
34 71
36 34
37 144
38 292
39 655
40 385
41 785
42 550
43 767
44 394
45 33
46 69
47 189
48 317
49 141
50 509
51 639
52 520
53 295
54 147
55 66
56 141
57 75
58 28
61 141
62 303
63 544
64 609
65 565
66 337
67 233
68 134
74 207
75 349
76 455
77 999
78 595
79 501
80 126
81 2
82 17
83 89
89 281
90 640
91 742
92 516
93 214
94 88
101 132
102 65
103 270
104 683
105 761
106 455
107 169
108 35
116 142
117 475
118 445
119 954
120 469
121 309
122 22
131 540
132 666
133 947
134 712
135 242
147 192
161 676
162 376
163 121
176 146
198 932
199 267
200 225
225 466
226 151
227 24
240 490
241 172
242 80

$$$$

     RDKit          2D

 12 12  0  0  0  0  0  0  0  0999 V2000
   -5.2732   -1.9109    0.0000 C   0  0  0  0  0  0  0  0  0  0  0  0
   -4.1610   -0.9044    0.0000 C   0  0  0  0  0  0  0  0  0  0  0  0
    0.5887    0.6295    0.0000 C   0  0  0  0  0  0  0  0  0  0  0  0
   -1.6211   -0.3579    0.0000 C   0  0  0  0  0  0  0  0  0  0  0  0
    2.0804    0.7869    0.0000 C   0  0  0  0  0  0  0  0  0  0  0  0
    2.2379   -0.7048    0.0000 Cl  0  0  0  0  0  0  0  0  0  0  0  0
    3.5721    0.9444    0.0000 Cl  0  0  0  0  0  0  0  0  0  0  0  0
    1.9230    2.2787    0.0000 Cl  0  0  0  0  0  0  0  0  0  0  0  0
   -0.1613   -0.6695    0.0000 N   0  0  0  0  0  0  0  0  0  0  0  0
   -0.4111    1.7379    0.0000 N   0  0  0  0  0  0  0  0  0  0  0  0
   -2.7333   -1.3644    0.0000 O   0  0  0  0  0  0  0  0  0  0  0  0
   -1.7868    1.1350    0.0000 S   0  0  0  0  0  0  0  0  0  0  0  0
  2  1  1  0
  5  3  1  0
  6  5  1  0
  7  5  1  0
  8  5  1  0
  9  3  1  0
  9  4  2  0
 10  3  2  0
 11  2  1  0
 11  4  1  0
 12  4  1  0
 12 10  1  0
M  END
>  <NAME>  (1117) 
5-ETHOXY-3-TRICHLOROMETHYL-1,2,4-THIADIAZOLE

>  <SYNONYMS>  (1117) 
ECHLOMEZOL

>  <SPECTRUM TYPE>  (1117) 
MS1

>  <INSTRUMENT TYPE>  (1117) 
EI-B

>  <INSTRUMENT>  (1117) 
JEOL JMS-DX-303

>  <ION MODE>  (1117) 
P

>  <INCHIKEY>  (1117) 
KQTVWCSONPJJPE-UHFFFAOYSA-N

>  <FORMULA>  (1117) 
C5H5Cl3N2OS

>  <EXACT MASS>  (1117) 
245.91881682

>  <MW>  (1117) 
246

>  <ID>  (1117) 
JP010423

>  <CONTRIBUTOR>  (1117) 
University of Tokyo Team, {Faculty of Engineering, University of Tokyo

>  <COMMENT>  (1117) 
SMILES=CCOc(s1)nc(n1)C(Cl)(Cl)Cl
InChI=InChI=1S/C5H5Cl3N2OS/c1-2-11-4-9-3(10-12-4)5(6,7)8/h2H2,1H3
computed SMILES=ClC(Cl)(Cl)C1=NSC(=N1)OCC
accession=JP010423
date=2016.01.19 (Created 2008.10.21, modified 2011.05.06)
author=UOEH
license=CC BY-NC-SA
exact mass=245.91882
ionization energy=70 eV
ion type=[M]+*
computed spectral entropy=3.3574520274501225
computed normalized entropy=0.7850629284622717
SPLASH=splash10-03e9-1960000000-1b26dd358c07ae51106e
submitter=submitter = University of Tokyo Team (Faculty of Engineering, University of Tokyo)
MoNA Rating=3.75

>  <NUM PEAKS>  (1117) 
72

>  <MASS SPECTRAL PEAKS>  (1117) 
36 1.83
38 2.1
44 1.26
46 4.98
47 2.96
59 1.21
61 3.76
63 1.19
70 1.86
72 1.07
73 2.79
74 1.28
75 3.65
79 4.35
81 1.27
82 2.55
84 1.56
100 1.3
101 5.41
103 2.93
105 1.84
106 1.65
108 10.54
110 7
112 1.19
114 7.55
116 4.13
117 3.87
118 1.54
119 4.25
121 1.42
124 2.74
126 1.57
129 1.34
138 1.27
140 23.41
141 3.21
142 15.51
143 2.73
144 5.33
146 2.34
148 1.22
149 3.07
151 1.24
174 1.03
175 21.6
176 1.73
177 22.46
178 1.11
179 6.86
181 1.41
182 12.88
183 75.9
184 15.22
185 55.14
186 6.77
187 11.55
211 99.99
212 7.07
213 68.65
214 5.48
215 12.6
216 1.2
217 1.33
218 11.22
220 12
222 4.59
233 1.01
246 14.66
247 1.06
248 14.25
250 4.41

>  <PREDICTED SPECTRUM>  (1117) 
14 15
25 25
26 129
27 265
28 148
29 280
31 35
32 81
33 12
34 46
35 154
36 228
37 100
38 170
39 163
40 154
41 123
42 329
43 387
44 593
45 462
46 334
47 603
48 212
49 204
50 98
51 211
52 115
53 194
54 87
55 144
56 186
57 300
58 30
59 161
60 184
61 243
62 215
63 174
64 191
65 239
66 107
67 168
68 119
69 104
70 281
71 62
72 171
73 372
74 241
75 352
76 301
77 108
78 0
79 59
81 86
82 596
83 294
84 255
85 242
86 59
87 122
88 67
89 82
90 73
91 133
92 45
93 390
94 102
95 39
96 64
100 29
101 206
102 70
103 342
104 79
105 159
106 197
107 123
108 532
109 397
110 682
111 294
112 567
113 195
114 77
119 382
120 99
121 296
129 164
131 62
133 13
136 10
137 118
138 331
139 253
140 168
141 113
147 11
148 160
149 58
150 91
156 97
157 12
158 21
166 5
167 155
168 202
169 383
170 213
171 166
172 219
173 136
174 124
175 28
182 70
183 999
184 395
185 726
186 295
187 261
188 44
201 99
202 218
203 251
204 196
206 73
211 625
212 63
213 506
214 8
215 168
217 162
218 872
219 362
220 791
221 195
222 431
231 499
232 15
233 350
234 0
246 780
247 200
248 661
249 143
250 228
251 26

$$$$

     RDKit          2D

 11 10  0  0  0  0  0  0  0  0999 V2000
    1.8149    3.2978    0.0000 C   0  0  0  0  0  0  0  0  0  0  0  0
    1.6582    2.4093    0.0000 C   0  0  0  0  0  0  0  0  0  0  0  0
   -3.3812    3.2978    0.0000 C   0  0  0  0  0  0  0  0  0  0  0  0
   -4.6803    4.0478    0.0000 C   0  0  0  0  0  0  0  0  0  0  0  0
   -5.9793    3.2978    0.0000 Cl  0  0  0  0  0  0  0  0  0  0  0  0
   -4.6803    5.5478    0.0000 Cl  0  0  0  0  0  0  0  0  0  0  0  0
   -1.7473    2.1488    0.0000 O   0  0  0  0  0  0  0  0  0  0  0  0
    0.5159    4.0478    0.0000 O   0  0  0  0  0  0  0  0  0  0  0  0
    0.1810    2.1488    0.0000 O   0  0  0  0  0  0  0  0  0  0  0  0
   -2.0822    4.0478    0.0000 O   0  0  0  0  0  0  0  0  0  0  0  0
   -0.7831    3.2978    0.0000 P   0  0  0  0  0  0  0  0  0  0  0  0
  4  3  2  0
  5  4  1  0
  6  4  1  0
  8  1  1  0
  9  2  1  0
 10  3  1  0
 11  7  2  0
 11  8  1  0
 11  9  1  0
 11 10  1  0
M  END
>  <NAME>  (1118) 
PHOSPHORIC ACID 2,2-DICHLOROETHENYL DIMETHYL ESTER

>  <SYNONYMS>  (1118) 
DICHLORVOS

>  <SPECTRUM TYPE>  (1118) 
MS1

>  <INSTRUMENT TYPE>  (1118) 
EI-B

>  <INSTRUMENT>  (1118) 
JEOL JMS-DX-303

>  <ION MODE>  (1118) 
P

>  <INCHIKEY>  (1118) 
OEBRKCOSUFCWJD-UHFFFAOYSA-N

>  <FORMULA>  (1118) 
C4H7Cl2O4P

>  <EXACT MASS>  (1118) 
219.945900694

>  <MW>  (1118) 
220

>  <ID>  (1118) 
JP010422

>  <CONTRIBUTOR>  (1118) 
University of Tokyo Team, {Faculty of Engineering, University of Tokyo

>  <COMMENT>  (1118) 
SMILES=COP(=O)(OC)OC=C(Cl)Cl
InChI=InChI=1S/C4H7Cl2O4P/c1-8-11(7,9-2)10-3-4(5)6/h3H,1-2H3
computed SMILES=O=P(OC=C(Cl)Cl)(OC)OC
accession=JP010422
date=2016.01.19 (Created 2008.10.21, modified 2011.05.06)
author=UOEH
license=CC BY-NC-SA
exact mass=219.9459
ionization energy=70 eV
ion type=[M]+*
computed spectral entropy=2.1193347245205647
computed normalized entropy=0.658408351184949
SPLASH=splash10-0a4i-1900000000-09877a8cb478a3cc6839
submitter=submitter = University of Tokyo Team (Faculty of Engineering, University of Tokyo)
MoNA Rating=3.75

>  <NUM PEAKS>  (1118) 
25

>  <MASS SPECTRAL PEAKS>  (1118) 
38 2.22
47 3.33
48 1.09
55 1.44
68 1.18
76 2.41
79 14.18
80 1.09
83 1.26
93 1.88
109 99.99
110 4.52
111 1.75
113 3.28
128 1.3
145 10.37
147 4.52
174 1.48
185 39.38
186 4.18
187 9.85
194 1.15
220 12.15
222 5.2
224 1.03

>  <PREDICTED SPECTRUM>  (1118) 
14 2
15 48
26 5
27 15
28 28
29 38
31 44
32 4
33 4
35 25
36 21
37 16
38 8
44 29
45 35
47 184
48 52
49 110
50 26
51 55
52 57
53 1
58 38
59 175
61 55
62 55
63 167
64 13
65 69
67 67
75 128
76 3
77 82
78 67
79 420
80 152
81 153
82 19
83 111
85 63
86 48
87 96
88 14
89 8
91 4
93 170
94 80
95 152
96 108
97 56
98 29
107 206
109 562
110 148
111 178
112 44
113 71
115 20
119 13
125 29
126 37
127 207
149 21
151 0
157 28
161 45
165 47
167 20
168 9
169 56
170 101
185 999
186 201
187 392
188 53
189 115
220 123
221 33
222 69

$$$$

     RDKit          2D

 21 21  0  0  0  0  0  0  0  0999 V2000
   -2.5989    1.5002    0.0000 C   0  0  0  0  0  0  0  0  0  0  0  0
    2.5989    1.5002    0.0000 C   0  0  0  0  0  0  0  0  0  0  0  0
   -1.2990    3.7500    0.0000 C   0  0  0  0  0  0  0  0  0  0  0  0
   -1.5000   -3.0000    0.0000 C   0  0  0  0  0  0  0  0  0  0  0  0
   -0.0000   -4.5000    0.0000 C   0  0  0  0  0  0  0  0  0  0  0  0
    1.5000   -3.0000    0.0000 C   0  0  0  0  0  0  0  0  0  0  0  0
   -1.3000    0.7500    0.0000 C   0  0  0  0  0  0  0  0  0  0  0  0
    1.3000    0.7500    0.0000 C   0  0  0  0  0  0  0  0  0  0  0  0
    0.0000    3.0000    0.0000 C   0  0  0  0  0  0  0  0  0  0  0  0
    0.0000    1.5000    0.0000 C   0  0  0  0  0  0  0  0  0  0  0  0
   -0.0000   -1.5000    0.0000 C   0  0  0  0  0  0  0  0  0  0  0  0
   -1.3000   -0.7500    0.0000 C   0  0  0  0  0  0  0  0  0  0  0  0
    1.3000   -0.7500    0.0000 C   0  0  0  0  0  0  0  0  0  0  0  0
   -0.0000   -3.0000    0.0000 C   0  0  0  0  0  0  0  0  0  0  0  0
   -2.5989   -1.5002    0.0000 N   0  0  0  0  0  0  0  0  0  0  0  0
    2.5989   -1.5002    0.0000 N   0  0  0  0  0  0  0  0  0  0  0  0
    1.2990    3.7500    0.0000 O   0  0  0  0  0  0  0  0  0  0  0  0
   -3.8981   -0.7504    0.0000 O   0  0  0  0  0  0  0  0  0  0  0  0
   -2.5987   -3.0002    0.0000 O   0  0  0  0  0  0  0  0  0  0  0  0
    3.8981   -0.7504    0.0000 O   0  0  0  0  0  0  0  0  0  0  0  0
    2.5987   -3.0002    0.0000 O   0  0  0  0  0  0  0  0  0  0  0  0
  7  1  1  0
  8  2  1  0
  9  3  1  0
 10  7  2  0
 10  8  1  0
 10  9  1  0
 12  7  1  0
 12 11  2  0
 13  8  2  0
 13 11  1  0
 14  4  1  0
 14  5  1  0
 14  6  1  0
 14 11  1  0
 15 12  1  0
 16 13  1  0
 17  9  2  0
 18 15  1  0
 19 15  2  0
 20 16  1  0
 21 16  2  0
M  CHG  4  15   1  16   1  18  -1  20  -1
M  END
>  <NAME>  (1119) 
4'-TERT-BUTYL-2',6'-DIMETHYL-3',5'-DINITROACETOPHENONE

>  <SYNONYMS>  (1119) 


>  <SPECTRUM TYPE>  (1119) 
MS1

>  <INSTRUMENT TYPE>  (1119) 
EI-B

>  <INSTRUMENT>  (1119) 
JEOL JMS-DX-303

>  <ION MODE>  (1119) 
P

>  <INCHIKEY>  (1119) 
WXCMHFPAUCOJIG-UHFFFAOYSA-N

>  <FORMULA>  (1119) 
C14H18N2O5

>  <EXACT MASS>  (1119) 
294.121571676

>  <MW>  (1119) 
294

>  <ID>  (1119) 
JP010421

>  <CONTRIBUTOR>  (1119) 
University of Tokyo Team, {Faculty of Engineering, University of Tokyo

>  <COMMENT>  (1119) 
SMILES=CC(=O)c(c(C)1)c(C)c([N+1]([O-1])=O)c(C(C)(C)C)c([N+1]([O-1])=O)1
InChI=InChI=1S/C14H18N2O5/c1-7-10(9(3)17)8(2)13(16(20)21)11(14(4,5)6)12(7)15(18)19/h1-6H3
computed SMILES=O=C(C=1C(=C(C(=C(C1C)N(=O)=O)C(C)(C)C)N(=O)=O)C)C
accession=JP010421
date=2016.01.19 (Created 2008.10.21, modified 2011.05.06)
author=UOEH
license=CC BY-NC-SA
exact mass=294.12157
ionization energy=70 eV
ion type=[M]+*
computed spectral entropy=2.8708872080999934
computed normalized entropy=0.7164084131261097
SPLASH=splash10-004i-1390000000-d4f2203212989523e372
submitter=submitter = University of Tokyo Team (Faculty of Engineering, University of Tokyo)
MoNA Rating=3.75

>  <NUM PEAKS>  (1119) 
55

>  <MASS SPECTRAL PEAKS>  (1119) 
40 8.25
43 5.26
44 5.76
55 1.17
115 1.5
116 1.57
118 1.44
119 1.89
128 3.36
129 2.52
130 2.28
133 2.17
141 1.34
142 1.06
143 3.02
144 1.38
145 2.29
146 2.23
147 2.68
148 1.28
157 1.72
158 1.22
159 2.65
160 4.3
161 2.04
162 2.16
172 1.54
175 2.57
176 2.07
177 1.28
186 2.25
187 2.77
188 1.78
189 2.91
190 2.75
191 2.43
192 1.27
198 1.19
201 1.62
202 2.57
203 1.2
204 1.22
214 1.39
215 1.75
217 1.29
230 1.14
247 3.17
248 1.56
277 4.46
279 99.99
280 14.55
281 2.51
294 33.67
295 6.32
296 1.7

>  <PREDICTED SPECTRUM>  (1119) 
14 25
15 63
16 14
26 12
27 147
28 57
29 308
30 120
33 11
38 14
39 359
40 116
41 612
42 164
43 999
44 232
45 91
46 42
49 3
50 173
51 340
52 165
53 353
54 84
55 337
56 176
57 843
58 173
59 100
62 94
63 280
64 139
65 328
66 219
67 308
68 100
69 152
70 60
71 131
73 48
74 135
75 229
76 176
77 541
78 321
79 317
80 138
81 200
82 81
83 163
84 29
85 81
86 13
87 87
88 40
89 286
90 166
91 473
92 197
93 211
94 124
95 120
97 94
101 98
102 181
103 324
104 215
105 292
106 239
107 213
108 138
109 13
115 482
116 306
117 375
118 272
119 293
120 172
121 125
122 73
127 98
128 232
129 249
130 290
131 437
132 296
133 316
134 323
135 216
136 108
141 124
142 122
143 144
144 279
145 343
146 343
147 339
148 251
149 246
150 173
151 72
152 15
155 30
156 94
157 178
158 228
159 379
160 324
161 360
162 252
163 222
164 204
165 82
169 35
170 30
171 103
172 155
173 275
174 370
175 249
176 315
177 252
178 149
179 10
180 81
181 51
183 56
184 32
185 179
186 227
187 384
188 360
189 354
190 306
191 272
192 192
193 14
194 53
199 54
200 188
201 202
202 287
203 365
204 238
205 219
206 159
207 63
213 21
215 195
216 214
217 191
218 236
219 138
220 148
221 72
229 24
230 64
231 153
232 253
233 247
234 156
235 259
236 74
237 138
245 29
248 209
249 199
250 16
260 24
261 270
262 120
263 80
264 7
276 9
277 386
278 51
279 769
280 266
294 565
295 200

$$$$

     RDKit          2D

 16 16  0  0  0  0  0  0  0  0999 V2000
   -3.7245    0.4511    0.0000 C   0  0  0  0  0  0  0  0  0  0  0  0
    5.3687   -1.7989    0.0000 C   0  0  0  0  0  0  0  0  0  0  0  0
    5.2121   -0.9103    0.0000 C   0  0  0  0  0  0  0  0  0  0  0  0
   -2.4260   -1.7998    0.0000 C   0  0  0  0  0  0  0  0  0  0  0  0
   -1.1260    0.4519    0.0000 C   0  0  0  0  0  0  0  0  0  0  0  0
   -2.4255   -0.2989    0.0000 C   0  0  0  0  0  0  0  0  0  0  0  0
   -1.1269   -2.5498    0.0000 C   0  0  0  0  0  0  0  0  0  0  0  0
    0.1731   -0.2981    0.0000 C   0  0  0  0  0  0  0  0  0  0  0  0
    0.1726   -1.7989    0.0000 C   0  0  0  0  0  0  0  0  0  0  0  0
   -1.1267   -4.0498    0.0000 Cl  0  0  0  0  0  0  0  0  0  0  0  0
    1.4722    0.4517    0.0000 Cl  0  0  0  0  0  0  0  0  0  0  0  0
    4.0697   -2.5489    0.0000 O   0  0  0  0  0  0  0  0  0  0  0  0
    3.7348   -0.6499    0.0000 O   0  0  0  0  0  0  0  0  0  0  0  0
    1.4716   -2.5489    0.0000 O   0  0  0  0  0  0  0  0  0  0  0  0
    2.7707   -1.7989    0.0000 P   0  0  0  0  0  0  0  0  0  0  0  0
    1.8065   -0.6499    0.0000 S   0  0  0  0  0  0  0  0  0  0  0  0
  6  1  1  0
  6  4  2  0
  6  5  1  0
  7  4  1  0
  8  5  2  0
  9  7  2  0
  9  8  1  0
 10  7  1  0
 11  8  1  0
 12  2  1  0
 13  3  1  0
 14  9  1  0
 15 12  1  0
 15 13  1  0
 15 14  1  0
 16 15  2  0
M  END
>  <NAME>  (1120) 
PHOSPHOROTHIOIC ACID O-(2,6-DICHLORO-PARA-TOLYL) O,O-DIMETHYL ESTER

>  <SYNONYMS>  (1120) 


>  <SPECTRUM TYPE>  (1120) 
MS1

>  <INSTRUMENT TYPE>  (1120) 
EI-B

>  <INSTRUMENT>  (1120) 
JEOL JMS-DX-303

>  <ION MODE>  (1120) 
P

>  <INCHIKEY>  (1120) 
OBZIQQJJIKNWNO-UHFFFAOYSA-N

>  <FORMULA>  (1120) 
C9H11Cl2O3PS

>  <EXACT MASS>  (1120) 
299.95435720200004

>  <MW>  (1120) 
300

>  <ID>  (1120) 
JP010420

>  <CONTRIBUTOR>  (1120) 
University of Tokyo Team, {Faculty of Engineering, University of Tokyo

>  <COMMENT>  (1120) 
SMILES=Cc(c1)cc(Cl)c(c(Cl)1)OP(=S)(OC)OC
InChI=InChI=1S/C9H11Cl2O3PS/c1-6-4-7(10)9(8(11)5-6)14-15(16,12-2)13-3/h4-5H,1-3H3
computed SMILES=S=P(OC1=C(Cl)C=C(C=C1Cl)C)(OC)OC
accession=JP010420
author=UOEH
date=2016.01.19 (Created 2008.10.21, modified 2011.05.06)
license=CC BY-NC-SA
exact mass=299.95436
ionization energy=70 eV
ion type=[M]+*
computed spectral entropy=2.3101962944291934
computed normalized entropy=0.6932936701138207
SPLASH=splash10-014i-1290000000-427d0f0a69ae45c67115
submitter=submitter = University of Tokyo Team (Faculty of Engineering, University of Tokyo)
MoNA Rating=3.75

>  <NUM PEAKS>  (1120) 
28

>  <MASS SPECTRAL PEAKS>  (1120) 
47 2.96
51 1.49
62 1.54
63 3.25
75 2.07
77 1.63
79 5.15
93 11.7
109 4.96
111 4.15
112 1.94
113 1.41
125 19.27
127 1.08
141 1.39
175 3.22
176 1.32
177 2.07
187 1.47
249 3.81
250 10.08
251 2.46
252 3.83
265 99.99
266 11.84
267 40.53
268 4.91
269 3.18

>  <PREDICTED SPECTRUM>  (1120) 
14 44
15 251
16 13
17 12
18 26
25 9
26 66
27 211
28 96
29 142
30 21
31 93
32 68
33 88
34 35
35 70
36 131
37 82
38 165
39 335
40 53
41 80
43 78
44 112
45 363
46 83
47 549
48 91
49 162
50 213
51 359
52 96
53 122
55 10
56 2
57 13
59 191
60 112
61 189
62 321
63 682
64 185
65 501
66 72
67 125
69 116
71 46
72 4
73 243
74 125
75 338
76 193
77 563
78 175
79 605
80 97
81 108
82 41
83 85
84 25
85 142
86 38
87 38
88 165
89 147
90 43
91 75
92 14
93 999
94 229
95 308
96 143
97 569
98 179
99 304
100 116
101 229
102 39
103 172
104 52
105 66
106 51
107 86
108 96
109 843
110 306
111 116
112 222
113 132
114 118
115 41
116 8
117 24
118 67
119 50
120 85
121 94
122 55
123 208
124 60
125 991
126 108
127 68
128 54
129 56
131 8
133 32
134 1
135 96
136 114
137 126
138 103
139 228
140 110
141 58
142 145
143 143
144 137
145 89
146 127
147 156
148 189
149 78
150 48
155 87
156 37
157 168
158 149
159 462
160 256
161 429
162 224
163 153
172 66
173 233
174 308
175 467
176 559
177 339
178 230
179 179
180 7
189 453
190 372
191 564
192 366
193 333
194 104
203 34
204 48
205 392
206 302
207 220
208 123
209 236
213 26
221 120
222 78
223 34
224 31
226 90
233 148
235 73
237 311
238 148
239 162
240 2
249 88
250 55
252 92
253 121
265 700
266 158
267 468
268 214
269 313
270 161
271 90
287 67
300 416
301 149
302 324
303 99
304 63

$$$$

     RDKit          2D

 14 14  0  0  0  0  0  0  0  0999 V2000
    2.5989   -1.5002    0.0000 C   0  0  0  0  0  0  0  0  0  0  0  0
   -2.5989   -1.5002    0.0000 C   0  0  0  0  0  0  0  0  0  0  0  0
    1.3000   -0.7500    0.0000 C   0  0  0  0  0  0  0  0  0  0  0  0
   -1.3000   -0.7500    0.0000 C   0  0  0  0  0  0  0  0  0  0  0  0
   -0.0000   -1.5000    0.0000 C   0  0  0  0  0  0  0  0  0  0  0  0
    1.3000    0.7500    0.0000 C   0  0  0  0  0  0  0  0  0  0  0  0
   -1.3000    0.7500    0.0000 C   0  0  0  0  0  0  0  0  0  0  0  0
    0.0000    1.5000    0.0000 C   0  0  0  0  0  0  0  0  0  0  0  0
   -0.0000   -3.0000    0.0000 Cl  0  0  0  0  0  0  0  0  0  0  0  0
    2.5989    1.5002    0.0000 Cl  0  0  0  0  0  0  0  0  0  0  0  0
   -2.5989    1.5002    0.0000 Cl  0  0  0  0  0  0  0  0  0  0  0  0
    0.0000    3.0000    0.0000 Cl  0  0  0  0  0  0  0  0  0  0  0  0
    3.8978   -2.2504    0.0000 N   0  0  0  0  0  0  0  0  0  0  0  0
   -3.8978   -2.2504    0.0000 N   0  0  0  0  0  0  0  0  0  0  0  0
  3  1  1  0
  4  2  1  0
  5  3  2  0
  5  4  1  0
  6  3  1  0
  7  4  2  0
  8  6  2  0
  8  7  1  0
  9  5  1  0
 10  6  1  0
 11  7  1  0
 12  8  1  0
 13  1  3  0
 14  2  3  0
M  END
>  <NAME>  (1121) 
1,3,4,5-TETRACHLORO-2,6-DICYANOBENZENE

>  <SYNONYMS>  (1121) 
TPN

>  <SPECTRUM TYPE>  (1121) 
MS1

>  <INSTRUMENT TYPE>  (1121) 
EI-B

>  <INSTRUMENT>  (1121) 
JEOL JMS-DX-303

>  <ION MODE>  (1121) 
P

>  <INCHIKEY>  (1121) 
CRQQGFGUEAVUIL-UHFFFAOYSA-N

>  <FORMULA>  (1121) 
C8Cl4N2

>  <EXACT MASS>  (1121) 
263.88155872

>  <MW>  (1121) 
264

>  <ID>  (1121) 
JP010418

>  <CONTRIBUTOR>  (1121) 
University of Tokyo Team, {Faculty of Engineering, University of Tokyo

>  <COMMENT>  (1121) 
SMILES=N#Cc(c(Cl)1)c(Cl)c(Cl)c(Cl)c(C#N)1
InChI=InChI=1S/C8Cl4N2/c9-5-3(1-13)6(10)8(12)7(11)4(5)2-14
computed SMILES=N#CC1=C(Cl)C(Cl)=C(Cl)C(C#N)=C1Cl
accession=JP010418
date=2016.01.19 (Created 2008.10.21, modified 2011.05.06)
author=UOEH
license=CC BY-NC-SA
exact mass=263.88156
ionization energy=70 eV
ion type=[M]+*
computed spectral entropy=2.7105668459949794
computed normalized entropy=0.704016345968417
SPLASH=splash10-014i-0290000000-e11ada8b10c53d73e910
submitter=submitter = University of Tokyo Team (Faculty of Engineering, University of Tokyo)
MoNA Rating=3.75

>  <NUM PEAKS>  (1121) 
47

>  <MASS SPECTRAL PEAKS>  (1121) 
47 1.38
62 1.99
71 1.03
74 1.96
85 1.14
86 1.7
94 1.89
96 1.12
97 1.41
98 4.08
101 1.57
102 1.79
106 1.09
109 9.57
111 3.42
118 1.42
120 1.25
124 9.63
125 1.05
132 4.48
133 7.33
134 3.32
135 1.86
144 1.71
146 1.14
159 3.12
161 1.03
168 6.32
170 4.27
179 1.21
181 1.05
194 5.93
196 3.98
203 2.28
205 1.99
229 11.01
230 1.54
231 11.52
232 1.6
233 3.2
264 77.32
266 99.99
267 10.35
268 48.96
269 4.37
270 11.39
272 1.36

>  <PREDICTED SPECTRUM>  (1121) 
25 6
31 37
32 21
33 23
34 8
35 107
36 176
37 128
38 185
39 143
40 41
43 135
44 73
47 233
48 82
49 163
50 91
51 51
52 54
53 62
55 33
60 94
61 115
62 269
63 25
64 82
65 23
67 22
68 30
69 13
70 68
71 197
72 191
73 148
74 217
75 64
76 95
77 33
78 17
79 95
80 47
81 5
82 126
83 122
84 170
85 293
86 297
87 158
88 125
89 75
90 16
91 5
93 22
94 121
95 99
96 187
97 310
98 165
99 167
100 222
101 66
102 130
106 145
107 226
108 277
109 378
110 174
111 243
112 90
114 196
115 3
118 52
119 48
120 160
121 76
122 176
123 151
124 209
125 147
126 116
128 6
131 73
132 199
133 162
134 149
135 174
136 74
137 37
138 2
139 71
140 101
141 86
142 164
143 56
144 135
145 111
146 181
147 5
149 70
153 19
158 58
159 159
160 45
161 81
163 10
166 14
167 111
168 165
169 94
170 134
177 57
194 195
195 5
196 110
197 4
198 1
203 61
204 33
205 25
229 311
230 152
231 260
232 56
233 62
234 65
236 140
237 143
238 98
239 53
240 6
264 941
265 249
266 999
267 285
268 661
269 198

$$$$

     RDKit          2D

 14 14  0  0  0  0  0  0  0  0999 V2000
    5.1970    3.0000    0.0000 C   0  0  0  0  0  0  0  0  0  0  0  0
   -5.1970    3.0000    0.0000 C   0  0  0  0  0  0  0  0  0  0  0  0
   -3.8983    0.7498    0.0000 C   0  0  0  0  0  0  0  0  0  0  0  0
    3.8981    2.2498    0.0000 C   0  0  0  0  0  0  0  0  0  0  0  0
   -3.8981    2.2498    0.0000 C   0  0  0  0  0  0  0  0  0  0  0  0
   -0.0000   -0.0006    0.0000 C   0  0  0  0  0  0  0  0  0  0  0  0
    1.3000    2.2494    0.0000 C   0  0  0  0  0  0  0  0  0  0  0  0
   -1.3000    2.2494    0.0000 C   0  0  0  0  0  0  0  0  0  0  0  0
   -0.0000   -1.5006    0.0000 Cl  0  0  0  0  0  0  0  0  0  0  0  0
    2.5989    2.9996    0.0000 N   0  0  0  0  0  0  0  0  0  0  0  0
   -2.5989    2.9996    0.0000 N   0  0  0  0  0  0  0  0  0  0  0  0
    1.3000    0.7494    0.0000 N   0  0  0  0  0  0  0  0  0  0  0  0
   -1.3000    0.7494    0.0000 N   0  0  0  0  0  0  0  0  0  0  0  0
   -0.0000    2.9994    0.0000 N   0  0  0  0  0  0  0  0  0  0  0  0
  4  1  1  0
  5  2  1  0
  5  3  1  0
  9  6  1  0
 10  4  1  0
 10  7  2  3
 11  5  1  0
 11  8  2  3
 12  6  2  0
 12  7  1  0
 13  6  1  0
 13  8  1  0
 14  7  1  0
 14  8  1  0
M  END
>  <NAME>  (1122) 
6-CHLORO-N-ETHYL-N'-(1-METHYLETHYL)-1,3,5-TRIAZINE-2,4-DIAMINE

>  <SYNONYMS>  (1122) 
ATRAZINE

>  <SPECTRUM TYPE>  (1122) 
MS1

>  <INSTRUMENT TYPE>  (1122) 
EI-B

>  <INSTRUMENT>  (1122) 
JEOL JMS-DX-303

>  <ION MODE>  (1122) 
P

>  <INCHIKEY>  (1122) 
MXWJVTOOROXGIU-UHFFFAOYSA-N

>  <FORMULA>  (1122) 
C8H14ClN5

>  <EXACT MASS>  (1122) 
215.093773128

>  <MW>  (1122) 
215

>  <ID>  (1122) 
JP010417

>  <CONTRIBUTOR>  (1122) 
University of Tokyo Team, {Faculty of Engineering, University of Tokyo

>  <COMMENT>  (1122) 
SMILES=CCNc(n1)nc(NC(C)C)nc(Cl)1
InChI=InChI=1S/C8H14ClN5/c1-4-10-7-12-6(9)13-8(14-7)11-5(2)3/h5H,4H2,1-3H3,(H2,10,11,12,13,14)
computed SMILES=ClC1=NC(=NCC)NC(=NC(C)C)N1
accession=JP010417
date=2016.01.19 (Created 2008.10.21, modified 2011.05.06)
author=UOEH
license=CC BY-NC-SA
exact mass=215.09377
ionization energy=70 eV
ion type=[M]+*
computed spectral entropy=3.5352471047529854
computed normalized entropy=0.8213739867305686
SPLASH=splash10-0uxr-6690000000-583f3e9640ef44c789ce
submitter=submitter = University of Tokyo Team (Faculty of Engineering, University of Tokyo)
MoNA Rating=3.75

>  <NUM PEAKS>  (1122) 
74

>  <MASS SPECTRAL PEAKS>  (1122) 
39 1.55
41 5.41
42 7.02
43 18.39
53 1.64
55 3.56
57 1.49
58 37.89
59 1.27
62 3.42
64 1.18
67 1.24
68 17.19
69 12.04
70 1.32
71 12.42
79 1.66
81 1.04
83 2.5
87 2.58
90 1.04
91 3.1
92 20.6
93 7.88
94 5.69
95 2.06
96 7.62
97 1.74
99 1.23
100 3.21
101 1.39
104 7.72
105 5.3
106 2.42
107 2.2
110 3.65
121 1.09
122 10.48
123 3.07
129 1.88
130 4.36
131 2.18
132 12.24
133 1.28
134 3.75
136 2.05
137 1.83
138 9.5
145 6.96
147 2.53
152 1.68
157 1.85
158 11.09
159 2.17
160 3.6
164 1.63
172 14.36
173 29.49
174 6.7
175 9.53
180 1.82
184 1.18
186 2.37
187 3.89
198 2.13
200 99.99
201 10.19
202 31.05
203 3.09
214 6.21
215 62.68
216 8.32
217 19.41
218 2.89

>  <PREDICTED SPECTRUM>  (1122) 
27 47
28 37
30 12
33 22
34 7
36 28
38 29
39 217
40 200
41 549
42 522
43 582
44 490
45 114
46 45
47 27
48 20
49 46
50 10
51 52
52 107
53 184
54 185
55 361
56 238
57 281
60 29
62 86
63 90
64 80
65 70
67 79
68 319
69 249
70 144
71 41
74 32
75 24
76 153
77 71
78 145
79 81
80 48
81 28
82 64
83 215
84 99
85 111
86 26
87 39
88 18
89 74
90 43
91 139
92 30
93 2
96 67
97 155
98 1
102 38
104 201
105 72
106 72
109 13
110 121
111 203
115 37
116 176
117 342
118 157
119 169
120 24
124 76
125 62
129 19
130 54
131 75
132 49
133 52
137 88
138 103
142 10
143 126
144 181
145 281
146 259
147 91
148 21
157 53
158 395
159 354
160 348
161 146
162 72
170 5
172 473
173 521
174 286
175 272
180 4
184 118
186 999
187 525
188 526
189 208
190 63
198 48
200 855
201 251
202 451
203 127
204 22
214 64
215 557
216 145
217 270
218 21

$$$$

     RDKit          2D

 23 23  0  0  0  0  0  0  0  0999 V2000
   -3.2476   -5.6250    0.0000 C   0  0  0  0  0  0  0  0  0  0  0  0
   -5.8457   -1.1250    0.0000 C   0  0  0  0  0  0  0  0  0  0  0  0
   -3.2476   -4.1250    0.0000 C   0  0  0  0  0  0  0  0  0  0  0  0
   -4.5466   -1.8750    0.0000 C   0  0  0  0  0  0  0  0  0  0  0  0
   -1.9486   -3.3750    0.0000 C   0  0  0  0  0  0  0  0  0  0  0  0
   -3.2476   -1.1250    0.0000 C   0  0  0  0  0  0  0  0  0  0  0  0
    0.6490    1.1258    0.0000 C   0  0  0  0  0  0  0  0  0  0  0  0
    1.9490   -1.1258    0.0000 C   0  0  0  0  0  0  0  0  0  0  0  0
    1.9486    0.3750    0.0000 C   0  0  0  0  0  0  0  0  0  0  0  0
   -0.6500    0.3758    0.0000 C   0  0  0  0  0  0  0  0  0  0  0  0
    0.6500   -1.8758    0.0000 C   0  0  0  0  0  0  0  0  0  0  0  0
   -0.6495   -1.1250    0.0000 C   0  0  0  0  0  0  0  0  0  0  0  0
    3.2476    1.1250    0.0000 C   0  0  0  0  0  0  0  0  0  0  0  0
    3.9976   -0.1740    0.0000 F   0  0  0  0  0  0  0  0  0  0  0  0
    4.5466    1.8750    0.0000 F   0  0  0  0  0  0  0  0  0  0  0  0
    2.4976    2.4240    0.0000 F   0  0  0  0  0  0  0  0  0  0  0  0
   -1.9486   -1.8750    0.0000 N   0  0  0  0  0  0  0  0  0  0  0  0
   -1.9492    1.1256    0.0000 N   0  0  0  0  0  0  0  0  0  0  0  0
    0.6498   -3.3758    0.0000 N   0  0  0  0  0  0  0  0  0  0  0  0
   -1.9494    2.6256    0.0000 O   0  0  0  0  0  0  0  0  0  0  0  0
   -3.2481    0.3754    0.0000 O   0  0  0  0  0  0  0  0  0  0  0  0
    1.9487   -4.1260    0.0000 O   0  0  0  0  0  0  0  0  0  0  0  0
   -0.6494   -4.1256    0.0000 O   0  0  0  0  0  0  0  0  0  0  0  0
  3  1  1  0
  4  2  1  0
  5  3  1  0
  6  4  1  0
  9  7  2  0
  9  8  1  0
 10  7  1  0
 11  8  2  0
 12 10  2  0
 12 11  1  0
 13  9  1  0
 14 13  1  0
 15 13  1  0
 16 13  1  0
 17  5  1  0
 17  6  1  0
 17 12  1  0
 18 10  1  0
 19 11  1  0
 20 18  1  0
 21 18  2  0
 22 19  1  0
 23 19  2  0
M  CHG  4  18   1  19   1  20  -1  22  -1
M  END
>  <NAME>  (1123) 
2,6-DINITRO-N,N-DIPROPYL-4-(TRIFLUOROMETHYL)BENZENAMINE

>  <SYNONYMS>  (1123) 
TRIFLURALIN

>  <SPECTRUM TYPE>  (1123) 
MS1

>  <INSTRUMENT TYPE>  (1123) 
EI-B

>  <INSTRUMENT>  (1123) 
JEOL JMS-DX-303

>  <ION MODE>  (1123) 
P

>  <INCHIKEY>  (1123) 
ZSDSQXJSNMTJDA-UHFFFAOYSA-N

>  <FORMULA>  (1123) 
C13H16F3N3O4

>  <EXACT MASS>  (1123) 
335.109290652

>  <MW>  (1123) 
335

>  <ID>  (1123) 
JP010415

>  <CONTRIBUTOR>  (1123) 
University of Tokyo Team, {Faculty of Engineering, University of Tokyo

>  <COMMENT>  (1123) 
SMILES=CCCN(CCC)c(c([N+1]([O-1])=O)1)c([N+1]([O-1])=O)cc(c1)C(F)(F)F
InChI=InChI=1S/C13H16F3N3O4/c1-3-5-17(6-4-2)12-10(18(20)21)7-9(13(14,15)16)8-11(12)19(22)23/h7-8H,3-6H2,1-2H3
computed SMILES=O=N(=O)C=1C=C(C=C(C1N(CCC)CCC)N(=O)=O)C(F)(F)F
accession=JP010415
author=UOEH
license=CC BY-NC-SA
exact mass=335.10929
date=2016.01.19 (Created 2008.10.21, modified 2011.05.06)
ionization energy=70 eV
ion type=[M]+*
computed spectral entropy=3.8606151274319886
computed normalized entropy=0.8022583596827337
SPLASH=splash10-0btc-4495000000-1a82dafa24cf4fa1ee6a
submitter=submitter = University of Tokyo Team (Faculty of Engineering, University of Tokyo)
MoNA Rating=3.75

>  <NUM PEAKS>  (1123) 
123

>  <MASS SPECTRAL PEAKS>  (1123) 
36 1.92
38 1.14
39 3.62
40 1.84
41 21.62
42 2.67
43 53.63
44 3.39
51 1.3
56 2.28
57 6.82
58 2.98
65 1.13
70 3.55
72 1.41
75 2.35
76 1.4
78 1.16
91 1.1
99 1.06
102 1.06
105 3.45
106 1.16
117 1.31
118 1.01
125 2.6
126 3.27
127 1.43
130 1.64
131 1.83
132 1.5
133 1.93
138 1.1
139 1.35
140 2.33
141 1.55
143 2.05
144 2.32
145 6.88
146 1.85
147 1.63
148 1.24
151 1.3
153 4.78
158 2.95
159 6.35
160 6.47
161 3.52
162 1.24
166 1.4
167 1.14
171 2.19
172 5.37
173 3.03
174 3.27
176 1.09
185 2.44
186 5.84
187 5.46
188 3
189 2.61
190 2.44
198 3.21
199 2
200 2.98
201 4.1
202 5.88
206 6.34
211 1.43
212 2.35
213 5.01
214 5.05
215 2.52
217 1.84
218 2.53
219 1.14
225 1.06
226 1.1
227 3.48
228 4.01
229 3.74
230 1.39
231 1.47
232 5.97
233 1.11
234 1.67
240 1.99
241 1.03
242 7.72
243 2.88
244 2.95
245 1.01
248 11.42
249 1.59
252 1.35
253 1.07
254 2.83
258 1.28
259 1.38
260 2.74
264 68.77
265 6.32
266 1.39
268 1.34
269 1.77
270 1.05
271 5.94
272 1.85
274 4
275 1.22
276 1.19
290 12.24
291 2.15
301 2.04
302 1.03
303 1.14
306 99.99
307 12.2
308 1.36
316 6.75
318 4.16
335 10.72
336 2.18

>  <PREDICTED SPECTRUM>  (1123) 
15 4
27 102
28 53
29 224
30 238
31 2
33 8
34 1
36 1
37 53
38 103
39 310
40 206
41 667
42 527
43 765
44 255
45 131
46 163
47 106
48 33
50 226
51 221
52 158
53 181
54 141
55 254
56 352
57 160
58 162
59 232
60 46
61 55
62 210
63 358
64 213
65 149
66 107
67 81
68 134
69 356
70 328
71 175
72 286
73 97
74 186
75 431
76 398
77 279
78 187
79 65
80 58
81 58
82 40
83 138
84 133
85 119
86 169
87 126
88 114
89 130
90 187
91 128
92 140
93 97
94 33
95 118
96 82
97 73
98 97
99 128
100 201
101 110
102 202
103 219
104 199
105 115
106 77
108 53
109 112
110 42
111 127
112 66
113 141
114 215
115 202
116 227
117 208
118 192
119 126
120 85
121 92
122 177
123 54
124 22
125 98
126 104
127 33
128 153
129 114
130 186
131 240
132 177
133 85
134 41
136 77
137 127
138 66
139 79
140 85
141 112
142 139
143 194
144 176
145 185
146 225
147 76
148 83
149 58
150 71
151 44
158 106
164 111
165 13
168 25
169 110
170 162
171 127
172 259
173 167
174 150
175 25
176 72
177 115
178 43
179 37
184 63
185 136
186 133
187 86
188 64
189 76
190 87
192 5
197 83
198 112
199 73
200 141
201 152
202 178
203 142
204 144
205 83
206 44
212 94
213 94
214 148
215 23
216 89
217 135
218 230
219 112
228 156
230 118
231 124
232 177
233 59
234 97
235 129
242 14
243 83
244 14
245 79
246 105
247 17
248 62
250 0
258 6
259 155
260 422
261 114
262 55
266 63
272 22
274 80
275 32
276 117
277 56
278 168
279 7
282 10
288 6
289 69
290 158
291 75
292 33
293 39
302 46
306 999
307 409
308 204
309 72
316 114
317 58
318 118
319 19
320 16
335 279
336 105

$$$$

     RDKit          2D

 15 15  0  0  0  0  0  0  0  0999 V2000
   -1.6353    4.6878    0.0000 C   0  0  0  0  0  0  0  0  0  0  0  0
   -2.9306    2.4356    0.0000 C   0  0  0  0  0  0  0  0  0  0  0  0
    6.1662    0.1908    0.0000 C   0  0  0  0  0  0  0  0  0  0  0  0
   -1.6200   -1.3100    0.0000 C   0  0  0  0  0  0  0  0  0  0  0  0
   -0.3300   -2.0600    0.0000 C   0  0  0  0  0  0  0  0  0  0  0  0
   -1.6200    0.1900    0.0000 C   0  0  0  0  0  0  0  0  0  0  0  0
    0.9700   -1.3100    0.0000 C   0  0  0  0  0  0  0  0  0  0  0  0
   -1.6328    3.1878    0.0000 C   0  0  0  0  0  0  0  0  0  0  0  0
   -0.3300    0.9400    0.0000 C   0  0  0  0  0  0  0  0  0  0  0  0
    0.9700    0.1900    0.0000 C   0  0  0  0  0  0  0  0  0  0  0  0
    3.5681    0.1904    0.0000 C   0  0  0  0  0  0  0  0  0  0  0  0
    4.8670    0.9406    0.0000 N   0  0  0  0  0  0  0  0  0  0  0  0
    3.5683   -1.3096    0.0000 O   0  0  0  0  0  0  0  0  0  0  0  0
   -0.3325    2.4400    0.0000 O   0  0  0  0  0  0  0  0  0  0  0  0
    2.2689    0.9402    0.0000 O   0  0  0  0  0  0  0  0  0  0  0  0
  5  4  2  0
  6  4  1  0
  7  5  1  0
  8  1  1  0
  8  2  1  0
  9  6  2  0
 10  7  2  0
 10  9  1  0
 12  3  1  0
 12 11  2  3
 13 11  1  0
 14  8  1  0
 14  9  1  0
 15 10  1  0
 15 11  1  0
M  END
>  <NAME>  (1124) 
2-(1-METHYLETHOXY)PHENOL METHYLCARBAMATE

>  <SYNONYMS>  (1124) 
PROPOXUR

>  <SPECTRUM TYPE>  (1124) 
MS1

>  <INSTRUMENT TYPE>  (1124) 
EI-B

>  <INSTRUMENT>  (1124) 
JEOL JMS-DX-303

>  <ION MODE>  (1124) 
P

>  <INCHIKEY>  (1124) 
ISRUGXGCCGIOQO-UHFFFAOYSA-N

>  <FORMULA>  (1124) 
C11H15NO3

>  <EXACT MASS>  (1124) 
209.10519333999997

>  <MW>  (1124) 
209

>  <ID>  (1124) 
JP010414

>  <CONTRIBUTOR>  (1124) 
University of Tokyo Team, {Faculty of Engineering, University of Tokyo

>  <COMMENT>  (1124) 
SMILES=CNC(=O)Oc(c1)c(ccc1)OC(C)C
InChI=InChI=1S/C11H15NO3/c1-8(2)14-9-6-4-5-7-10(9)15-11(13)12-3/h4-8H,1-3H3,(H,12,13)
computed SMILES=OC(=NC)OC=1C=CC=CC1OC(C)C
accession=JP010414
date=2016.01.19 (Created 2008.10.21, modified 2011.05.06)
author=UOEH
license=CC BY-NC-SA
exact mass=209.10519
ionization energy=70 eV
ion type=[M]+*
computed spectral entropy=1.720624169520946
computed normalized entropy=0.5651540445888659
SPLASH=splash10-03di-2900000000-3850ae269b8607d7091b
submitter=submitter = University of Tokyo Team (Faculty of Engineering, University of Tokyo)
MoNA Rating=3.75

>  <NUM PEAKS>  (1124) 
21

>  <MASS SPECTRAL PEAKS>  (1124) 
39 1.55
41 2.45
43 3.61
44 1.43
52 1.83
53 1.43
56 1.63
57 4.22
58 3.25
63 1.5
64 2.53
81 3.9
82 1.01
92 1.44
109 3.54
110 99.99
111 6.84
137 1.55
152 22
153 2.11
209 1.69

>  <PREDICTED SPECTRUM>  (1124) 
14 9
15 39
17 2
26 82
27 219
28 66
29 131
30 44
31 39
33 16
34 7
37 44
38 119
39 366
40 177
41 443
42 248
43 437
44 101
45 221
46 31
50 159
51 234
52 289
53 226
54 148
55 144
56 29
57 129
58 356
59 229
60 31
61 9
62 83
63 217
64 196
65 308
66 107
67 101
68 81
69 74
72 2
76 7
77 203
78 103
79 98
80 179
81 313
82 151
90 12
91 139
92 166
93 112
94 120
95 71
96 116
97 34
99 53
105 13
107 112
108 107
109 426
110 999
111 263
112 0
121 215
122 149
123 115
124 154
134 73
135 39
137 66
147 51
152 190
167 271
168 17
209 284
210 77

$$$$

     RDKit          2D

 12 12  0  0  0  0  0  0  0  0999 V2000
   -3.8981   -0.7504    0.0000 C   0  0  0  0  0  0  0  0  0  0  0  0
    3.8981    0.7504    0.0000 C   0  0  0  0  0  0  0  0  0  0  0  0
   -1.3000    0.7500    0.0000 C   0  0  0  0  0  0  0  0  0  0  0  0
    1.3000   -0.7500    0.0000 C   0  0  0  0  0  0  0  0  0  0  0  0
    0.0000   -1.5000    0.0000 C   0  0  0  0  0  0  0  0  0  0  0  0
    0.0000    1.5000    0.0000 C   0  0  0  0  0  0  0  0  0  0  0  0
   -1.3000   -0.7500    0.0000 C   0  0  0  0  0  0  0  0  0  0  0  0
    1.3000    0.7500    0.0000 C   0  0  0  0  0  0  0  0  0  0  0  0
   -0.0000   -3.0000    0.0000 Cl  0  0  0  0  0  0  0  0  0  0  0  0
    0.0000    3.0000    0.0000 Cl  0  0  0  0  0  0  0  0  0  0  0  0
   -2.5989   -1.5002    0.0000 O   0  0  0  0  0  0  0  0  0  0  0  0
    2.5989    1.5002    0.0000 O   0  0  0  0  0  0  0  0  0  0  0  0
  5  4  1  0
  6  3  2  0
  7  3  1  0
  7  5  2  0
  8  4  2  0
  8  6  1  0
  9  5  1  0
 10  6  1  0
 11  1  1  0
 11  7  1  0
 12  2  1  0
 12  8  1  0
M  END
>  <NAME>  (1125) 
1,4-DICHLORO-2,5-DIMETHOXYBENZENE

>  <SYNONYMS>  (1125) 


>  <SPECTRUM TYPE>  (1125) 
MS1

>  <INSTRUMENT TYPE>  (1125) 
EI-B

>  <INSTRUMENT>  (1125) 
JEOL JMS-DX-303

>  <ION MODE>  (1125) 
P

>  <INCHIKEY>  (1125) 
PFIADAMVCJPXSF-UHFFFAOYSA-N

>  <FORMULA>  (1125) 
C8H8Cl2O2

>  <EXACT MASS>  (1125) 
205.990134856

>  <MW>  (1125) 
206

>  <ID>  (1125) 
JP010413

>  <CONTRIBUTOR>  (1125) 
University of Tokyo Team, {Faculty of Engineering, University of Tokyo

>  <COMMENT>  (1125) 
SMILES=COc(c1)c(Cl)cc(OC)c(Cl)1
InChI=InChI=1S/C8H8Cl2O2/c1-11-7-3-6(10)8(12-2)4-5(7)9/h3-4H,1-2H3
computed SMILES=ClC=1C=C(OC)C(Cl)=CC1OC
accession=JP010413
date=2016.01.19 (Created 2008.10.21, modified 2011.05.06)
author=UOEH
license=CC BY-NC-SA
exact mass=205.99013
ionization energy=70 eV
ion type=[M]+*
computed spectral entropy=2.876796836461073
computed normalized entropy=0.7391905627959441
SPLASH=splash10-052f-1940000000-72f4358b88641eca0381
submitter=submitter = University of Tokyo Team (Faculty of Engineering, University of Tokyo)
MoNA Rating=3.75

>  <NUM PEAKS>  (1125) 
49

>  <MASS SPECTRAL PEAKS>  (1125) 
50 1.98
53 10.94
60 1.72
61 2.09
62 3.6
63 3.16
73 1.39
74 1.76
75 2.21
77 1.83
85 4.48
87 2.81
88 1.85
97 7.77
98 1.8
99 4.18
100 1.41
103 1.41
109 1.28
111 2.35
113 13.47
114 1.21
115 4.45
120 2.32
122 1.46
126 2.17
132 1.75
133 1.21
134 1.2
141 29.61
142 2.5
143 9.24
144 1.18
148 3.79
150 2.23
160 1.41
163 10.05
165 6.4
167 1.14
191 99.99
192 8.07
193 65.59
194 5.51
195 11.04
206 71.12
207 6.59
208 48.49
209 4.3
210 9

>  <PREDICTED SPECTRUM>  (1125) 
14 14
15 119
25 0
35 3
36 37
37 71
38 50
39 39
41 5
43 67
44 28
49 96
50 285
51 311
52 56
53 233
54 3
55 2
60 81
61 270
62 287
63 448
64 70
65 190
66 30
69 135
71 19
73 37
75 303
76 16
77 204
78 38
79 13
83 129
84 193
85 305
86 193
87 200
89 20
90 29
91 3
92 7
93 0
95 54
96 105
97 535
98 124
99 421
100 204
101 137
102 36
109 137
110 43
111 362
112 115
113 498
114 66
120 198
126 100
127 483
128 546
129 260
130 301
131 152
132 83
133 243
135 206
137 23
141 108
145 124
147 29
148 437
150 237
152 26
160 105
161 58
162 100
163 624
165 316
191 936
192 102
193 768
194 56
195 230
205 2
206 999
207 172
208 786
209 125
210 234

$$$$

     RDKit          2D

 10 11  0  0  0  0  0  0  0  0999 V2000
   -2.6000   -0.7500    0.0000 C   0  0  0  0  0  0  0  0  0  0  0  0
   -2.6000    0.7500    0.0000 C   0  0  0  0  0  0  0  0  0  0  0  0
    2.6000   -0.7500    0.0000 C   0  0  0  0  0  0  0  0  0  0  0  0
    2.6000    0.7500    0.0000 C   0  0  0  0  0  0  0  0  0  0  0  0
   -1.3000   -1.5000    0.0000 C   0  0  0  0  0  0  0  0  0  0  0  0
   -1.3000    1.5000    0.0000 C   0  0  0  0  0  0  0  0  0  0  0  0
    1.3000   -1.5000    0.0000 C   0  0  0  0  0  0  0  0  0  0  0  0
    1.3000    1.5000    0.0000 C   0  0  0  0  0  0  0  0  0  0  0  0
    0.0000   -0.7500    0.0000 C   0  0  0  0  0  0  0  0  0  0  0  0
    0.0000    0.7500    0.0000 C   0  0  0  0  0  0  0  0  0  0  0  0
  2  1  2  0
  4  3  1  0
  5  1  1  0
  6  2  1  0
  7  3  2  0
  8  4  2  0
  9  5  2  0
  9  7  1  0
 10  6  2  0
 10  8  1  0
 10  9  1  0
M  END
>  <NAME>  (1126) 
NAPHTHALENE

>  <SYNONYMS>  (1126) 


>  <SPECTRUM TYPE>  (1126) 
MS1

>  <INSTRUMENT TYPE>  (1126) 
EI-B

>  <INSTRUMENT>  (1126) 
JEOL JMS-DX-300

>  <ION MODE>  (1126) 
P

>  <INCHIKEY>  (1126) 
UFWIBTONFRDIAS-UHFFFAOYSA-N

>  <FORMULA>  (1126) 
C10H8

>  <EXACT MASS>  (1126) 
128.062600256

>  <MW>  (1126) 
128

>  <ID>  (1126) 
JP010372

>  <CONTRIBUTOR>  (1126) 
University of Tokyo Team, {Faculty of Engineering, University of Tokyo

>  <COMMENT>  (1126) 
SMILES=c(c2)cc(c1)c(c2)ccc1
cas=91-20-3
InChI=InChI=1S/C10H8/c1-2-6-10-8-4-3-7-9(10)5-1/h1-8H
computed SMILES=C=1C=CC=2C=CC=CC2C1
accession=JP010372
date=2016.01.19 (Created 2008.10.21, modified 2011.05.06)
author=HISAHIRO HAGIWARA, CHEMICAL RESEARCH INSTITUTE OF NON-AQUEOUSSOLUTIONS TOHOKU UNIV.
license=CC BY-NC-SA
exact mass=128.0626
ionization energy=70 eV
ion type=[M]+*
computed spectral entropy=2.365678917138918
computed normalized entropy=0.8184687352677573
SPLASH=splash10-004i-7900000000-43781a61560faeff786d
submitter=submitter = University of Tokyo Team (Faculty of Engineering, University of Tokyo)
MoNA Rating=3.75

>  <NUM PEAKS>  (1126) 
18

>  <MASS SPECTRAL PEAKS>  (1126) 
40 24.29
41 6.45
43 6.88
44 8.67
51 13.66
55 9.91
57 5.3
63 8.17
64 13.51
75 5.03
77 6.82
78 7.38
83 5.55
102 7.64
126 8.1
127 15.02
128 99.99
129 13.47

>  <PREDICTED SPECTRUM>  (1126) 
26 22
50 140
51 221
52 70
61 3
62 69
63 176
64 4
73 54
74 204
75 269
76 119
77 273
78 74
84 11
86 78
87 49
96 39
97 28
98 96
99 77
100 137
101 291
102 277
115 236
123 29
125 94
126 389
127 741
128 999
129 483
130 155

$$$$

     RDKit          2D

 21 22  0  0  0  0  0  0  0  0999 V2000
  -11.0418    5.9458    0.0000 C   0  0  0  0  0  0  0  0  0  0  0  0
    4.5466    5.9458    0.0000 C   0  0  0  0  0  0  0  0  0  0  0  0
  -11.0423    4.4450    0.0000 C   0  0  0  0  0  0  0  0  0  0  0  0
   -9.7423    6.6967    0.0000 C   0  0  0  0  0  0  0  0  0  0  0  0
    3.2471    6.6967    0.0000 C   0  0  0  0  0  0  0  0  0  0  0  0
    4.5471    4.4450    0.0000 C   0  0  0  0  0  0  0  0  0  0  0  0
   -9.7433    3.6950    0.0000 C   0  0  0  0  0  0  0  0  0  0  0  0
   -8.4433    5.9467    0.0000 C   0  0  0  0  0  0  0  0  0  0  0  0
    1.9481    5.9467    0.0000 C   0  0  0  0  0  0  0  0  0  0  0  0
    3.2481    3.6950    0.0000 C   0  0  0  0  0  0  0  0  0  0  0  0
   -7.1447    3.6958    0.0000 C   0  0  0  0  0  0  0  0  0  0  0  0
    0.6495    3.6958    0.0000 C   0  0  0  0  0  0  0  0  0  0  0  0
   -5.8457    4.4458    0.0000 C   0  0  0  0  0  0  0  0  0  0  0  0
   -0.6495    4.4458    0.0000 C   0  0  0  0  0  0  0  0  0  0  0  0
   -3.2476    4.4458    0.0000 C   0  0  0  0  0  0  0  0  0  0  0  0
   -8.4437    4.4458    0.0000 C   0  0  0  0  0  0  0  0  0  0  0  0
    1.9486    4.4458    0.0000 C   0  0  0  0  0  0  0  0  0  0  0  0
   -4.5466    3.6958    0.0000 C   0  0  0  0  0  0  0  0  0  0  0  0
   -1.9486    3.6958    0.0000 C   0  0  0  0  0  0  0  0  0  0  0  0
   -4.5466    2.1958    0.0000 O   0  0  0  0  0  0  0  0  0  0  0  0
   -1.9486    2.1958    0.0000 O   0  0  0  0  0  0  0  0  0  0  0  0
  3  1  2  0
  4  1  1  0
  5  2  2  0
  6  2  1  0
  7  3  1  0
  8  4  2  0
  9  5  1  0
 10  6  2  0
 11 13  2  0
 14 12  1  0
 16  7  2  0
 16  8  1  0
 16 11  1  0
 17  9  2  0
 17 10  1  0
 17 12  1  0
 18 13  1  0
 18 15  1  0
 19 14  1  0
 19 15  1  0
 20 18  2  0
 21 19  1  0
M  END
>  <NAME>  (1127) 
YASHABUSHIKETOL

>  <SYNONYMS>  (1127) 
5-HYDROXY-3-OXO-1,7-DIPHENYL-1-HEPTENE

>  <SPECTRUM TYPE>  (1127) 
MS1

>  <INSTRUMENT TYPE>  (1127) 
EI-B

>  <INSTRUMENT>  (1127) 
JEOL JMS-D-300

>  <ION MODE>  (1127) 
P

>  <INCHIKEY>  (1127) 
OUAINJWTDRNZIJ-ACCUITESSA-N

>  <FORMULA>  (1127) 
C19H20O2

>  <EXACT MASS>  (1127) 
280.14632988

>  <MW>  (1127) 
280

>  <ID>  (1127) 
JP010370

>  <CONTRIBUTOR>  (1127) 
University of Tokyo Team, {Faculty of Engineering, University of Tokyo

>  <COMMENT>  (1127) 
SMILES=OC(CCc(c2)cccc2)CC(=O)C=Cc(c1)cccc1
InChI=InChI=1S/C19H20O2/c20-18(13-11-16-7-3-1-4-8-16)15-19(21)14-12-17-9-5-2-6-10-17/h1-11,13,19,21H,12,14-15H2/b13-11+
computed SMILES=O=C(C=CC=1C=CC=CC1)CC(O)CCC=2C=CC=CC2
accession=JP010370
date=2016.01.19 (Created 2008.10.21, modified 2011.05.06)
author=HISAHIRO HAGIWARA, CHEMICAL RESEARCH INSTITUTE OF NON-AQUEOUSSOLUTIONS TOHOKU UNIV.
license=CC BY-NC-SA
exact mass=280.14633
ionization energy=70 eV
ion type=[M]+*
computed spectral entropy=3.286952187182286
computed normalized entropy=0.8240073534546595
SPLASH=splash10-001m-2900000000-0c66bb6c24063783837c
submitter=submitter = University of Tokyo Team (Faculty of Engineering, University of Tokyo)
MoNA Rating=3.75

>  <NUM PEAKS>  (1127) 
54

>  <MASS SPECTRAL PEAKS>  (1127) 
32 3.03
43 4.69
44 1.17
55 2.24
56 1.63
65 3.03
77 12.1
78 13.86
79 6.09
91 50.35
92 43.3
93 3.38
102 2.09
103 33.94
104 16.04
105 23.06
106 2.99
107 1.99
115 4.97
116 8.14
117 13.82
118 2.42
127 5.9
128 3.92
129 5.5
130 10.78
131 99.99
132 15.25
133 13.48
134 31.54
135 3.31
143 2.55
144 1.83
145 32.41
146 41.93
147 8.92
148 3.73
149 1.18
157 3.65
158 5.44
159 1
170 1.2
171 8.63
172 1.17
175 21.85
176 4.54
189 3.23
193 1.14
234 1.06
261 1.79
262 8.68
263 1.93
280 7.39
281 1.78

>  <PREDICTED SPECTRUM>  (1127) 
14 9
15 2
16 10
17 12
18 14
26 34
27 111
28 70
29 130
30 41
31 102
37 11
38 42
39 195
40 84
41 173
42 107
43 340
44 117
45 93
50 106
51 251
52 142
53 134
54 17
55 167
56 76
57 134
58 53
59 19
62 27
63 137
64 39
65 247
66 31
67 17
69 81
70 16
71 57
74 51
75 61
76 84
77 438
78 299
79 217
80 35
83 25
84 13
85 31
86 15
87 45
89 121
90 54
91 802
92 372
93 55
95 9
97 7
101 65
102 205
103 520
104 463
105 481
106 192
107 160
108 58
109 55
115 268
116 139
117 386
118 239
119 102
120 24
127 68
128 215
129 263
130 318
131 999
132 421
133 473
134 356
135 157
136 16
142 9
143 176
144 161
145 656
146 674
147 232
148 89
149 14
152 11
157 131
158 206
159 111
160 71
161 145
162 68
163 77
164 22
171 250
172 129
173 90
174 103
175 238
176 181
177 6
185 36
186 26
188 44
189 173
190 93
192 8
201 33
202 22
205 42
234 19
262 282
263 138
264 13
280 211
281 107
282 12

$$$$

     RDKit          2D

 27 31  0  0  1  0  0  0  0  0999 V2000
    3.5700    6.8310    0.0000 C   0  0  0  0  0  0  0  0  0  0  0  0
   -1.6264    5.5188    0.0000 C   0  0  0  0  0  0  0  0  0  0  0  0
    4.5100   -0.1600    0.0000 C   0  0  0  0  0  0  0  0  0  0  0  0
    3.8000   -1.6500    0.0000 C   0  0  0  0  0  0  0  0  0  0  0  0
    3.4500    2.4000    0.0000 C   0  0  0  0  0  0  0  0  0  0  0  0
   -1.7100   -2.0300    0.0000 C   0  0  0  0  0  0  0  0  0  0  0  0
   -1.7100    0.9700    0.0000 C   0  0  0  0  0  0  0  0  0  0  0  0
    0.8400   -2.0700    0.0000 C   0  0  0  0  0  0  0  0  0  0  0  0
   -5.3000   -0.4800    0.0000 C   0  0  0  0  0  0  0  0  0  0  0  0
    3.5375    5.3313    0.0000 C   0  0  0  0  0  0  0  0  0  0  0  0
   -0.3480    4.7341    0.0000 C   0  0  0  0  0  0  0  0  0  0  0  0
    3.4500    0.9100    0.0000 C   0  0  0  0  0  0  0  0  0  0  0  0
   -0.4200   -1.2700    0.0000 C   0  0  0  0  0  0  0  0  0  0  0  0
   -0.4200    0.1300    0.0000 C   0  0  0  0  0  0  0  0  0  0  0  0
   -2.9800   -1.2200    0.0000 C   0  0  0  0  0  0  0  0  0  0  0  0
   -2.9700    0.1700    0.0000 C   0  0  0  0  0  0  0  0  0  0  0  0
    2.1900    3.1100    0.0000 C   0  0  0  0  0  0  0  0  0  0  0  0
    0.8900    0.9500    0.0000 C   0  0  0  0  0  0  0  0  0  0  0  0
    2.1400    0.0900    0.0000 C   0  0  0  0  0  0  0  0  0  0  0  0
    0.8900    2.4500    0.0000 C   0  0  0  0  0  0  0  0  0  0  0  0
    2.1100   -1.2700    0.0000 N   0  0  0  0  0  0  0  0  0  0  0  0
    4.8200    4.5533    0.0000 O   0  0  0  0  0  0  0  0  0  0  0  0
    0.9707    5.4489    0.0000 O   0  0  0  0  0  0  0  0  0  0  0  0
   -4.3800   -1.6800    0.0000 O   0  0  0  0  0  0  0  0  0  0  0  0
   -4.3700    0.6500    0.0000 O   0  0  0  0  0  0  0  0  0  0  0  0
    2.2225    4.6096    0.0000 O   0  0  0  0  0  0  0  0  0  0  0  0
   -0.3884    3.2347    0.0000 O   0  0  0  0  0  0  0  0  0  0  0  0
  4  3  1  0
 10  1  1  0
 11  2  1  0
 12  3  1  0
 12  5  2  0
 13  6  2  0
 13  8  1  0
 14  7  2  0
 14 13  1  0
 15  6  1  0
 16  7  1  0
 16 15  2  0
 17  5  1  0
 18 14  1  6
 19 12  1  1
 19 18  1  0
 20 17  1  0
 20 18  1  0
 21  4  1  0
 21  8  1  0
 19 21  1  0
 22 10  2  0
 23 11  2  0
 24  9  1  0
 24 15  1  0
 25  9  1  0
 25 16  1  0
 26 10  1  0
 17 26  1  1
 27 11  1  0
 20 27  1  6
M  END
>  <NAME>  (1128) 
LYCORINE DIACETATE

>  <SYNONYMS>  (1128) 


>  <SPECTRUM TYPE>  (1128) 
MS1

>  <INSTRUMENT TYPE>  (1128) 
EI-B

>  <INSTRUMENT>  (1128) 
JEOL JMS-DX-300

>  <ION MODE>  (1128) 
P

>  <INCHIKEY>  (1128) 
LMZHAKUXAHOCST-VNTMZGSJSA-N

>  <FORMULA>  (1128) 
C20H21NO6

>  <EXACT MASS>  (1128) 
371.13688739199995

>  <MW>  (1128) 
371

>  <ID>  (1128) 
JP010369

>  <CONTRIBUTOR>  (1128) 
University of Tokyo Team, {Faculty of Engineering, University of Tokyo

>  <COMMENT>  (1128) 
SMILES=CC(=O)OC(C=5)C(OC(C)=O)C([H])(c21)C([H])(C45)N(CC4)Cc(cc(O3)c(OC3)c2)1
InChI=InChI=1S/C20H21NO6/c1-10(22)26-17-5-12-3-4-21-8-13-6-15-16(25-9-24-15)7-14(13)18(19(12)21)20(17)27-11(2)23/h5-7,17-20H,3-4,8-9H2,1-2H3/t17-,18-,19+,20+/m0/s1
computed SMILES=O=C(OC1C=C2CCN3CC4=CC=5OCOC5C=C4C(C1OC(=O)C)C23)C
accession=JP010369
date=2016.01.19 (Created 2008.10.21, modified 2011.05.06)
author=HISAHIRO HAGIWARA, CHEMICAL RESEARCH INSTITUTE OF NON-AQUEOUSSOLUTIONS TOHOKU UNIV.
license=CC BY-NC-SA
exact mass=371.13689
ionization energy=70 eV
ion type=[M]+*
computed spectral entropy=3.104444448449606
computed normalized entropy=0.8415684185579573
SPLASH=splash10-0udi-1192000000-b29bd9463a42dc4ba223
submitter=submitter = University of Tokyo Team (Faculty of Engineering, University of Tokyo)
MoNA Rating=3.75

>  <NUM PEAKS>  (1128) 
40

>  <MASS SPECTRAL PEAKS>  (1128) 
43 42.35
77 3.43
89 3.82
91 3.08
96 7.14
115 3.07
147 5.11
154 3.45
166 3.06
167 3.89
191 3.52
192 6.61
193 4.82
194 10.75
210 3.41
211 4.38
212 3.54
222 16.25
223 3.77
224 3.61
226 29.18
227 16.93
228 3.2
238 5.98
240 3.74
250 48.66
251 15.76
252 99.99
253 22.55
254 4.02
266 5.34
268 15.94
269 6.92
270 3.38
310 6.59
311 27.55
312 12.45
370 3.56
371 20.25
372 9.59

>  <PREDICTED SPECTRUM>  (1128) 
33 13
38 12
39 38
40 35
41 147
42 107
43 999
44 238
45 260
47 8
49 95
50 104
51 206
52 108
53 171
54 76
55 147
56 87
57 118
58 67
59 15
60 83
61 35
62 75
63 198
64 90
65 203
66 84
67 140
68 78
69 86
70 66
71 87
72 8
74 55
75 87
76 130
77 268
78 160
79 125
80 72
81 66
82 88
83 27
84 106
85 55
86 94
87 92
88 68
89 179
90 78
91 181
92 109
93 111
94 104
95 52
96 54
97 86
98 67
99 65
100 23
101 44
102 109
103 139
104 100
105 151
106 103
107 152
108 45
109 63
110 83
111 66
112 84
113 103
114 95
115 229
116 97
117 136
118 155
119 201
120 93
121 124
122 106
123 42
124 74
125 1
126 81
127 103
128 138
129 98
130 93
131 164
132 119
133 145
134 172
135 208
136 91
137 42
138 65
139 92
140 5
141 98
142 48
143 45
144 71
145 148
146 168
147 267
148 174
149 103
150 136
151 109
152 169
153 175
154 97
155 64
156 55
157 86
158 13
159 130
160 102
161 70
162 73
163 93
164 135
165 172
166 155
167 89
169 23
171 82
172 81
173 93
174 149
175 121
176 165
177 120
178 82
179 15
180 66
181 46
182 56
183 35
184 9
185 41
186 31
187 85
188 87
189 122
190 73
191 73
192 78
193 122
194 132
195 79
196 44
197 51
198 49
199 66
200 15
201 69
202 43
203 22
206 17
207 43
208 80
209 117
210 84
211 30
212 122
213 94
214 45
215 45
216 47
217 47
218 90
219 15
220 40
221 39
222 110
223 85
224 140
226 681
227 557
228 276
232 48
233 36
234 46
235 48
236 74
237 144
238 144
239 54
240 158
241 40
246 7
248 28
249 54
250 375
251 265
252 485
253 218
254 116
264 89
265 8
266 109
267 30
268 235
269 187
270 106
274 17
278 87
280 96
281 59
282 90
283 55
284 119
285 66
286 86
289 4
292 61
293 56
294 64
295 18
296 103
298 121
299 33
300 15
301 0
304 2
308 2
309 8
310 295
311 222
312 351
313 129
328 50
354 5
368 3
370 158
371 412
372 189
373 79
374 5

$$$$

     RDKit          2D

 21 25  0  0  1  0  0  0  0  0999 V2000
    4.5100   -0.1600    0.0000 C   0  0  0  0  0  0  0  0  0  0  0  0
    3.8000   -1.6500    0.0000 C   0  0  0  0  0  0  0  0  0  0  0  0
    3.4500    2.4000    0.0000 C   0  0  0  0  0  0  0  0  0  0  0  0
   -1.7100   -2.0300    0.0000 C   0  0  0  0  0  0  0  0  0  0  0  0
   -1.7100    0.9700    0.0000 C   0  0  0  0  0  0  0  0  0  0  0  0
    0.8400   -2.0700    0.0000 C   0  0  0  0  0  0  0  0  0  0  0  0
   -5.3000   -0.4800    0.0000 C   0  0  0  0  0  0  0  0  0  0  0  0
    3.4500    0.9100    0.0000 C   0  0  0  0  0  0  0  0  0  0  0  0
   -0.4200   -1.2700    0.0000 C   0  0  0  0  0  0  0  0  0  0  0  0
   -0.4200    0.1300    0.0000 C   0  0  0  0  0  0  0  0  0  0  0  0
    2.1900    3.1100    0.0000 C   0  0  0  0  0  0  0  0  0  0  0  0
   -2.9800   -1.2200    0.0000 C   0  0  0  0  0  0  0  0  0  0  0  0
   -2.9700    0.1700    0.0000 C   0  0  0  0  0  0  0  0  0  0  0  0
    0.8900    0.9500    0.0000 C   0  0  0  0  0  0  0  0  0  0  0  0
    2.1400    0.0900    0.0000 C   0  0  0  0  0  0  0  0  0  0  0  0
    0.8900    2.4500    0.0000 C   0  0  0  0  0  0  0  0  0  0  0  0
    2.1100   -1.2700    0.0000 N   0  0  0  0  0  0  0  0  0  0  0  0
    2.2225    4.6096    0.0000 O   0  0  0  0  0  0  0  0  0  0  0  0
   -0.3884    3.2347    0.0000 O   0  0  0  0  0  0  0  0  0  0  0  0
   -4.3800   -1.6800    0.0000 O   0  0  0  0  0  0  0  0  0  0  0  0
   -4.3700    0.6500    0.0000 O   0  0  0  0  0  0  0  0  0  0  0  0
  2  1  1  0
  8  1  1  0
  8  3  2  0
  9  4  2  0
  9  6  1  0
 10  5  2  0
 10  9  1  0
 11  3  1  0
 12  4  1  0
 13  5  1  0
 13 12  2  0
 14 10  1  6
 15  8  1  1
 15 14  1  0
 16 11  1  0
 16 14  1  0
 17  2  1  0
 17  6  1  0
 15 17  1  0
 11 18  1  1
 16 19  1  6
 20  7  1  0
 20 12  1  0
 21  7  1  0
 21 13  1  0
M  END
>  <NAME>  (1129) 
LYCORINE

>  <SYNONYMS>  (1129) 
3,12-DIDEHYDRO-9,10-(METHYLENEBIS(OXY))GALANTHAN-1,2-DIOL

>  <SPECTRUM TYPE>  (1129) 
MS1

>  <INSTRUMENT TYPE>  (1129) 
EI-B

>  <INSTRUMENT>  (1129) 
JEOL JMS-DX-300

>  <ION MODE>  (1129) 
P

>  <INCHIKEY>  (1129) 
XGVJWXAYKUHDOO-DANNLKNASA-N

>  <FORMULA>  (1129) 
C16H17NO4

>  <EXACT MASS>  (1129) 
287.115758024

>  <MW>  (1129) 
287

>  <ID>  (1129) 
JP010368

>  <CONTRIBUTOR>  (1129) 
University of Tokyo Team, {Faculty of Engineering, University of Tokyo

>  <COMMENT>  (1129) 
SMILES=[H]C(C([H])(O)1)=C(C5)C([H])(N(C5)2)C([H])(c(c3)c(cc(O4)c(OC4)3)C2)C([H])(O)1
InChI=InChI=1S/C16H17NO4/c18-11-3-8-1-2-17-6-9-4-12-13(21-7-20-12)5-10(9)14(15(8)17)16(11)19/h3-5,11,14-16,18-19H,1-2,6-7H2/t11-,14-,15+,16+/m0/s1
computed SMILES=OC1C=C2CCN3CC4=CC=5OCOC5C=C4C(C1O)C23
accession=JP010368
date=2016.01.19 (Created 2008.10.21, modified 2011.05.06)
author=HISAHIRO HAGIWARA, CHEMICAL RESEARCH INSTITUTE OF NON-AQUEOUSSOLUTIONS TOHOKU UNIV.
license=CC BY-NC-SA
exact mass=287.11576
ionization energy=70 eV
ion type=[M]+*
computed spectral entropy=2.500909325561475
computed normalized entropy=0.8090828137427616
SPLASH=splash10-004i-0090000000-274d3c11040a07d7fbe3
submitter=submitter = University of Tokyo Team (Faculty of Engineering, University of Tokyo)
MoNA Rating=3.75

>  <NUM PEAKS>  (1129) 
22

>  <MASS SPECTRAL PEAKS>  (1129) 
65 5.58
82 5.81
89 5.2
91 0.63
96 6.84
111 13.18
119 8.25
135 5.14
147 13.09
226 99.99
227 92.11
228 16.05
240 5.65
250 14.73
252 6.74
256 7.05
268 28.23
269 8.58
270 9.28
286 29.07
287 46.51
288 8.58

>  <PREDICTED SPECTRUM>  (1129) 
31 20
33 4
34 0
38 10
39 56
41 193
42 335
43 364
44 332
45 256
46 50
47 41
48 23
49 110
50 210
51 362
52 233
53 264
54 146
55 248
56 154
57 215
58 97
59 52
60 143
61 99
62 187
63 354
64 214
65 327
66 140
67 176
68 120
69 146
70 150
71 119
72 83
73 94
74 145
75 223
76 273
77 451
78 229
79 214
80 175
81 168
82 169
83 32
84 168
85 103
86 161
87 155
88 129
89 309
90 183
91 311
92 204
93 155
94 123
95 137
96 121
97 105
98 114
99 124
100 48
101 198
102 234
103 162
104 130
105 174
106 130
107 136
108 62
109 120
110 131
111 121
112 157
113 150
114 85
115 225
116 125
117 139
118 129
119 333
120 105
121 69
122 100
123 43
124 45
125 84
126 169
127 179
128 149
129 89
130 52
131 10
132 47
133 49
134 99
135 211
136 54
137 63
138 78
139 134
140 116
141 93
142 103
143 93
144 6
145 38
146 81
147 348
148 253
149 152
150 79
151 105
152 216
153 206
154 195
155 116
156 58
157 33
159 43
160 22
161 69
162 64
163 32
164 54
165 138
166 115
167 93
168 116
169 144
170 92
171 74
172 40
173 6
174 189
175 97
176 146
178 34
179 102
180 207
181 188
182 177
183 131
184 142
185 151
186 92
187 4
188 83
192 91
193 139
194 123
195 139
196 59
197 150
198 175
199 167
200 136
201 39
206 20
207 102
208 189
209 211
210 225
211 224
212 235
213 185
214 182
215 56
220 35
222 115
223 152
224 236
225 84
226 999
227 769
228 320
229 136
230 14
235 36
236 89
237 160
238 268
239 122
240 207
241 86
242 186
243 80
244 9
250 336
251 188
252 278
253 200
254 188
255 84
256 179
257 36
258 41
259 19
266 227
267 88
268 543
269 500
270 345
271 99
272 69
273 11
275 77
284 154
285 89
286 573
287 646
288 214
289 58

$$$$

     RDKit          2D

 17 17  0  0  0  0  0  0  0  0999 V2000
   -0.7363    0.6443    0.0000 C   0  0  0  0  0  0  0  0  0  0  0  0
   -3.3344    0.6443    0.0000 C   0  0  0  0  0  0  0  0  0  0  0  0
   -5.3834    4.1934    0.0000 C   0  0  0  0  0  0  0  0  0  0  0  0
   -5.9324    2.1443    0.0000 C   0  0  0  0  0  0  0  0  0  0  0  0
   -3.8834    1.5953    0.0000 C   0  0  0  0  0  0  0  0  0  0  0  0
    3.1608    1.3943    0.0000 C   0  0  0  0  0  0  0  0  0  0  0  0
    3.1613    2.8952    0.0000 C   0  0  0  0  0  0  0  0  0  0  0  0
    1.8613    0.6435    0.0000 C   0  0  0  0  0  0  0  0  0  0  0  0
    1.8623    3.6452    0.0000 C   0  0  0  0  0  0  0  0  0  0  0  0
    0.5623    1.3935    0.0000 C   0  0  0  0  0  0  0  0  0  0  0  0
   -3.3344    3.6443    0.0000 C   0  0  0  0  0  0  0  0  0  0  0  0
   -2.0353    1.3943    0.0000 C   0  0  0  0  0  0  0  0  0  0  0  0
    0.5627    2.8943    0.0000 C   0  0  0  0  0  0  0  0  0  0  0  0
   -2.0353    2.8943    0.0000 C   0  0  0  0  0  0  0  0  0  0  0  0
   -0.7363    3.6443    0.0000 C   0  0  0  0  0  0  0  0  0  0  0  0
   -0.7363    5.1443    0.0000 O   0  0  0  0  0  0  0  0  0  0  0  0
   -4.6334    2.8943    0.0000 Si  0  0  0  0  0  4  0  0  0  0  0  0
  7  6  2  0
  8  6  1  0
  9  7  1  0
 10  8  2  0
 12  1  2  0
 12  2  1  0
 13  9  2  0
 13 10  1  0
 14 11  1  0
 14 12  1  0
 15 13  1  0
 15 14  1  0
 16 15  1  0
 17  3  1  0
 17  4  1  0
 17  5  1  0
 17 11  1  0
M  END
>  <NAME>  (1130) 
3-HYDROXY-2-ISOPROPENYL-3-PHENYLPROPYLTRIMETHYLSILANE

>  <SYNONYMS>  (1130) 


>  <SPECTRUM TYPE>  (1130) 
MS1

>  <INSTRUMENT TYPE>  (1130) 
EI-B

>  <INSTRUMENT>  (1130) 
JEOL JMS-DX-300

>  <ION MODE>  (1130) 
P

>  <INCHIKEY>  (1130) 
BHBGGKYGAFELRK-UHFFFAOYSA-N

>  <FORMULA>  (1130) 
C15H24OSi

>  <EXACT MASS>  (1130) 
248.15964191799998

>  <MW>  (1130) 
248

>  <ID>  (1130) 
JP010367

>  <CONTRIBUTOR>  (1130) 
University of Tokyo Team, {Faculty of Engineering, University of Tokyo

>  <COMMENT>  (1130) 
SMILES=CC(=C)C(C[Si](C)(C)C)C(O)c(c1)cccc1
InChI=InChI=1S/C15H24OSi/c1-12(2)14(11-17(3,4)5)15(16)13-9-7-6-8-10-13/h6-10,14-16H,1,11H2,2-5H3
computed SMILES=OC(C=1C=CC=CC1)C(C(=C)C)C[Si](C)(C)C
accession=JP010367
date=2016.01.19 (Created 2008.10.21, modified 2011.05.06)
author=HISAHIRO HAGIWARA, CHEMICAL RESEARCH INSTITUTE OF NON-AQUEOUSSOLUTIONS TOHOKU UNIV.
license=CC BY-NC-SA
exact mass=248.15964
ionization energy=70 eV
ion type=[M]+*
computed spectral entropy=2.135233064745726
computed normalized entropy=0.6341091405545746
SPLASH=splash10-00di-9300000000-66d23b27defa94334934
submitter=submitter = University of Tokyo Team (Faculty of Engineering, University of Tokyo)
MoNA Rating=3.75

>  <NUM PEAKS>  (1130) 
29

>  <MASS SPECTRAL PEAKS>  (1130) 
39 1.09
43 2.75
44 1.5
45 8.37
47 1.27
51 1.19
58 1.02
59 0.38
72 1.31
73 99.99
74 11.24
75 1.76
76 1.3
77 4.93
79 6.3
85 1.11
91 1.17
99 1.14
105 1.44
107 15.32
108 1.29
111 1.81
127 2.01
129 1.24
141 6.72
142 16.39
143 3.19
179 5.13
180 1.06

>  <PREDICTED SPECTRUM>  (1130) 
27 20
39 18
41 36
43 69
44 52
45 199
47 6
50 25
51 102
52 52
53 60
57 53
58 61
59 179
60 68
61 39
67 13
69 95
70 36
71 74
72 26
73 999
74 309
75 335
76 77
77 286
78 43
79 227
81 16
83 51
85 84
86 5
91 131
92 15
99 157
101 14
102 67
105 161
106 16
107 599
108 124
111 7
113 22
115 82
127 94
128 44
129 75
141 202
142 381
143 144
144 57
156 66
158 78
174 7
179 523
180 102
237 15
248 39

$$$$

     RDKit          2D

 15 14  0  0  0  0  0  0  0  0999 V2000
   -5.6890    6.5136    0.0000 C   0  0  0  0  0  0  0  0  0  0  0  0
    3.2476    4.8750    0.0000 C   0  0  0  0  0  0  0  0  0  0  0  0
   -8.4437    5.6250    0.0000 C   0  0  0  0  0  0  0  0  0  0  0  0
   -0.6495    7.1250    0.0000 C   0  0  0  0  0  0  0  0  0  0  0  0
   -4.5466    3.3750    0.0000 C   0  0  0  0  0  0  0  0  0  0  0  0
   -2.2834    6.7741    0.0000 C   0  0  0  0  0  0  0  0  0  0  0  0
   -4.2118    6.7741    0.0000 C   0  0  0  0  0  0  0  0  0  0  0  0
    1.9486    5.6250    0.0000 C   0  0  0  0  0  0  0  0  0  0  0  0
   -7.1447    4.8750    0.0000 C   0  0  0  0  0  0  0  0  0  0  0  0
   -1.9486    4.8750    0.0000 C   0  0  0  0  0  0  0  0  0  0  0  0
   -0.6495    5.6250    0.0000 C   0  0  0  0  0  0  0  0  0  0  0  0
   -4.5466    4.8750    0.0000 C   0  0  0  0  0  0  0  0  0  0  0  0
   -3.2476    5.6250    0.0000 C   0  0  0  0  0  0  0  0  0  0  0  0
    0.6495    4.8750    0.0000 O   0  0  0  0  0  0  0  0  0  0  0  0
   -5.8457    5.6250    0.0000 O   0  0  0  0  0  0  0  0  0  0  0  0
  7  1  2  0
  8  2  1  0
  9  3  1  0
 11  4  1  0
 11 10  1  0
 12  5  1  0
 13  6  1  0
 13  7  1  0
 13 10  1  0
 13 12  1  0
 14  8  1  0
 14 11  1  0
 15  9  1  0
 15 12  1  0
M  END
>  <NAME>  (1131) 
2,5-DIETHOXY-3-METHYL-3-VINYLHEXANE

>  <SYNONYMS>  (1131) 


>  <SPECTRUM TYPE>  (1131) 
MS1

>  <INSTRUMENT TYPE>  (1131) 
EI-B

>  <INSTRUMENT>  (1131) 
JEOL JMS-DX-300

>  <ION MODE>  (1131) 
P

>  <INCHIKEY>  (1131) 
HSXIKBZFYMJFEI-UHFFFAOYSA-N

>  <FORMULA>  (1131) 
C13H26O2

>  <EXACT MASS>  (1131) 
214.193280072

>  <MW>  (1131) 
214

>  <ID>  (1131) 
JP010366

>  <CONTRIBUTOR>  (1131) 
University of Tokyo Team, {Faculty of Engineering, University of Tokyo

>  <COMMENT>  (1131) 
SMILES=CCOC(C)CC(C)(C=C)C(C)OCC
InChI=InChI=1S/C13H26O2/c1-7-13(6,12(5)15-9-3)10-11(4)14-8-2/h7,11-12H,1,8-10H2,2-6H3
computed SMILES=O(CC)C(C)CC(C=C)(C)C(OCC)C
accession=JP010366
date=2016.01.19 (Created 2008.10.21, modified 2011.05.06)
author=HISAHIRO HAGIWARA, CHEMICAL RESEARCH INSTITUTE OF NON-AQUEOUSSOLUTIONS TOHOKU UNIV.
license=CC BY-NC-SA
exact mass=214.19328
ionization energy=70 eV
ion type=[M]+*
computed spectral entropy=1.642981449861597
computed normalized entropy=0.5396516148161994
SPLASH=splash10-00dj-9000000000-46179292909c0769dd4e
submitter=submitter = University of Tokyo Team (Faculty of Engineering, University of Tokyo)
MoNA Rating=3.75

>  <NUM PEAKS>  (1131) 
21

>  <MASS SPECTRAL PEAKS>  (1131) 
41 2.32
43 5.55
45 54.51
46 1.56
55 1.94
58 1.1
59 2.28
67 1.65
69 1.31
70 1.21
73 99.99
74 6.32
75 4.08
81 5.08
82 1.33
86 1.03
95 1.04
96 2.56
103 3.56
139 0.17
214 0.69

>  <PREDICTED SPECTRUM>  (1131) 
27 51
28 4
29 68
31 43
39 69
40 12
41 233
42 104
43 245
44 82
45 541
47 156
53 47
54 85
55 92
57 4
66 8
67 67
68 148
69 255
70 85
71 29
73 999
74 139
75 50
81 44
82 13
83 35
95 38
111 94
112 8
113 97
125 44
141 48
142 16
170 3

$$$$

     RDKit          2D

 15 15  0  0  0  0  0  0  0  0999 V2000
    0.9240    4.7195    0.0000 C   0  0  0  0  0  0  0  0  0  0  0  0
   -1.6740    4.7195    0.0000 C   0  0  0  0  0  0  0  0  0  0  0  0
   -2.2231    3.7686    0.0000 C   0  0  0  0  0  0  0  0  0  0  0  0
   -4.2721    3.2195    0.0000 C   0  0  0  0  0  0  0  0  0  0  0  0
   -3.7231    1.1705    0.0000 C   0  0  0  0  0  0  0  0  0  0  0  0
    3.5221    0.2195    0.0000 C   0  0  0  0  0  0  0  0  0  0  0  0
    3.5226    1.7204    0.0000 C   0  0  0  0  0  0  0  0  0  0  0  0
    2.2226   -0.5313    0.0000 C   0  0  0  0  0  0  0  0  0  0  0  0
    2.2236    2.4704    0.0000 C   0  0  0  0  0  0  0  0  0  0  0  0
    0.9236    0.2187    0.0000 C   0  0  0  0  0  0  0  0  0  0  0  0
   -1.6740    1.7195    0.0000 C   0  0  0  0  0  0  0  0  0  0  0  0
   -0.3750    3.9695    0.0000 C   0  0  0  0  0  0  0  0  0  0  0  0
    0.9240    1.7195    0.0000 C   0  0  0  0  0  0  0  0  0  0  0  0
   -0.3750    2.4695    0.0000 C   0  0  0  0  0  0  0  0  0  0  0  0
   -2.9731    2.4695    0.0000 Si  0  0  0  0  0  4  0  0  0  0  0  0
  7  6  1  0
  8  6  1  0
  9  7  1  0
 10  8  1  0
 12  1  2  0
 12  2  1  0
 13  9  2  0
 13 10  1  0
 14 11  1  0
 14 12  1  0
 14 13  1  0
 15  3  1  0
 15  4  1  0
 15  5  1  0
 15 11  1  0
M  END
>  <NAME>  (1132) 
2-(1-CYCLOHEXENYL)-3-METHYL-3-BUTENYLTRIMETHYLSILANE

>  <SYNONYMS>  (1132) 


>  <SPECTRUM TYPE>  (1132) 
MS1

>  <INSTRUMENT TYPE>  (1132) 
EI-B

>  <INSTRUMENT>  (1132) 
JEOL JMS-DX-300

>  <ION MODE>  (1132) 
P

>  <INCHIKEY>  (1132) 
CNSGVONQPNRERJ-UHFFFAOYSA-N

>  <FORMULA>  (1132) 
C14H26Si

>  <EXACT MASS>  (1132) 
222.180377362

>  <MW>  (1132) 
222

>  <ID>  (1132) 
JP010365

>  <CONTRIBUTOR>  (1132) 
University of Tokyo Team, {Faculty of Engineering, University of Tokyo

>  <COMMENT>  (1132) 
SMILES=CC(=C)C(C[Si](C)(C)C)C(C1)=CCCC1
InChI=InChI=1S/C14H26Si/c1-12(2)14(11-15(3,4)5)13-9-7-6-8-10-13/h9,14H,1,6-8,10-11H2,2-5H3
computed SMILES=C=C(C)C(C1=CCCCC1)C[Si](C)(C)C
accession=JP010365
date=2016.01.19 (Created 2008.10.21, modified 2011.05.06)
author=HISAHIRO HAGIWARA, CHEMICAL RESEARCH INSTITUTE OF NON-AQUEOUSSOLUTIONS TOHOKU UNIV.
license=CC BY-NC-SA
exact mass=222.18038
ionization energy=70 eV
ion type=[M]+*
computed spectral entropy=3.164190849751055
computed normalized entropy=0.7792723211562192
SPLASH=splash10-00di-9620000000-3d7e6a5e5c6b564095c4
submitter=submitter = University of Tokyo Team (Faculty of Engineering, University of Tokyo)
MoNA Rating=3.75

>  <NUM PEAKS>  (1132) 
58

>  <MASS SPECTRAL PEAKS>  (1132) 
31 1.1
41 3.05
43 1.46
45 6.38
53 1.38
55 1.95
59 11.5
60 0.18
67 2.73
69 1.7
72 1.14
73 99.99
74 9.36
75 4.53
77 2.18
79 4.62
80 1.1
81 3.56
82 1.82
83 1.42
85 2.48
91 4
92 1.38
93 4.75
94 1.63
99 3.28
105 6.46
106 7.78
107 5.72
108 1.57
109 2.1
111 0.11
113 1.04
119 4.28
120 1.76
122 1.46
123 1.89
125 2.12
131 1.93
133 13.48
134 2.29
135 16.06
136 2.56
137 1.72
139 7.27
140 1.55
147 2.97
148 27.39
149 6.29
151 1.59
165 2.67
179 2.42
181 2.82
207 11.97
208 2.84
222 23.01
223 5.38
224 1.65

>  <PREDICTED SPECTRUM>  (1132) 
26 18
27 136
28 51
29 113
31 79
39 90
40 13
41 121
42 41
43 160
44 38
45 267
46 38
47 36
51 27
52 2
53 97
54 5
55 97
57 61
58 55
59 343
60 45
61 54
65 81
66 86
67 99
68 6
69 59
71 21
72 41
73 999
74 242
75 232
76 57
77 132
78 90
79 184
80 48
81 71
82 9
83 40
85 94
86 28
87 1
89 38
90 5
91 271
92 124
93 169
94 22
95 68
97 61
99 92
103 95
104 51
105 216
106 162
107 232
108 61
109 124
110 1
111 13
117 86
118 81
119 208
120 151
121 214
122 90
123 83
127 12
131 139
132 50
133 215
134 187
135 311
136 119
137 104
139 80
146 27
147 113
148 278
149 181
150 70
151 103
152 24
153 59
154 67
155 36
165 108
166 112
167 54
179 107
180 0
181 78
194 59
195 8
207 191
208 78
209 6
222 371
223 159
224 75

$$$$

     RDKit          2D

 11 11  0  0  0  0  0  0  0  0999 V2000
   -4.8712    2.0071    0.0000 C   0  0  0  0  0  0  0  0  0  0  0  0
   -2.2731    0.5071    0.0000 C   0  0  0  0  0  0  0  0  0  0  0  0
   -3.5721    2.7571    0.0000 C   0  0  0  0  0  0  0  0  0  0  0  0
    2.9231    0.5071    0.0000 C   0  0  0  0  0  0  0  0  0  0  0  0
    2.9236    2.0079    0.0000 C   0  0  0  0  0  0  0  0  0  0  0  0
    1.6236   -0.2437    0.0000 C   0  0  0  0  0  0  0  0  0  0  0  0
    1.6245    2.7579    0.0000 C   0  0  0  0  0  0  0  0  0  0  0  0
    0.3245    0.5063    0.0000 C   0  0  0  0  0  0  0  0  0  0  0  0
   -0.9740    2.7571    0.0000 C   0  0  0  0  0  0  0  0  0  0  0  0
   -2.2731    2.0071    0.0000 C   0  0  0  0  0  0  0  0  0  0  0  0
    0.3250    2.0071    0.0000 C   0  0  0  0  0  0  0  0  0  0  0  0
  3  1  2  0
  5  4  1  0
  6  4  1  0
  7  5  1  0
  8  6  1  0
 10  2  1  0
 10  3  1  0
 10  9  1  0
 11  7  2  0
 11  8  1  0
 11  9  1  0
M  END
>  <NAME>  (1133) 
4-CYCLOHEXENYL-3-METHYLBUTENE

>  <SYNONYMS>  (1133) 


>  <SPECTRUM TYPE>  (1133) 
MS1

>  <INSTRUMENT TYPE>  (1133) 
EI-B

>  <INSTRUMENT>  (1133) 
JEOL JMS-DX-300

>  <ION MODE>  (1133) 
P

>  <INCHIKEY>  (1133) 
QCKZPSCCDVQVIX-UHFFFAOYSA-N

>  <FORMULA>  (1133) 
C11H18

>  <EXACT MASS>  (1133) 
150.140850576

>  <MW>  (1133) 
150

>  <ID>  (1133) 
JP010364

>  <CONTRIBUTOR>  (1133) 
University of Tokyo Team, {Faculty of Engineering, University of Tokyo

>  <COMMENT>  (1133) 
SMILES=C=CC(C)CC(C1)=CCCC1
InChI=InChI=1S/C11H18/c1-3-10(2)9-11-7-5-4-6-8-11/h3,7,10H,1,4-6,8-9H2,2H3
computed SMILES=C=CC(C)CC1=CCCCC1
accession=JP010364
date=2016.01.19 (Created 2008.10.21, modified 2011.05.06)
author=HISAHIRO HAGIWARA, CHEMICAL RESEARCH INSTITUTE OF NON-AQUEOUSSOLUTIONS TOHOKU UNIV.
license=CC BY-NC-SA
exact mass=150.14085
ionization energy=70 eV
ion type=[M]+*
computed spectral entropy=2.9944677966004263
computed normalized entropy=0.8356221490740984
SPLASH=splash10-0005-9200000000-828cc3341ece47c37618
submitter=submitter = University of Tokyo Team (Faculty of Engineering, University of Tokyo)
MoNA Rating=3.75

>  <NUM PEAKS>  (1133) 
36

>  <MASS SPECTRAL PEAKS>  (1133) 
39 10.74
40 1.58
41 19.27
51 2.92
52 1.77
53 11.73
54 3.17
55 27.81
56 1.39
65 4.48
66 2.43
67 39.23
68 8.8
69 1.9
77 8.76
78 0.25
79 23.43
80 7.34
81 13.66
82 3.09
91 7.12
92 1.55
93 19.18
94 22.39
95 99.99
96 11.32
105 1.14
107 8.79
108 13.53
109 3.92
121 17.67
122 3.92
135 28.28
136 3.48
150 22.74
151 3.09

>  <PREDICTED SPECTRUM>  (1133) 
27 103
28 22
29 87
39 248
40 95
41 405
42 60
43 112
50 8
51 141
52 56
53 261
54 244
55 506
56 48
63 30
65 166
66 163
67 708
68 363
69 169
77 325
78 125
79 481
80 267
81 518
82 234
83 56
90 11
91 304
92 65
93 499
94 381
95 999
96 444
103 24
105 78
107 322
108 326
109 153
110 91
121 319
122 138
135 342
136 145
150 395
151 93

$$$$

     RDKit          2D

 15 15  0  0  0  0  0  0  0  0999 V2000
   -1.6740    1.1705    0.0000 C   0  0  0  0  0  0  0  0  0  0  0  0
    1.6740    4.3714    0.0000 C   0  0  0  0  0  0  0  0  0  0  0  0
    2.2231    6.4205    0.0000 C   0  0  0  0  0  0  0  0  0  0  0  0
    0.1740    6.9695    0.0000 C   0  0  0  0  0  0  0  0  0  0  0  0
   -6.8702    1.1705    0.0000 C   0  0  0  0  0  0  0  0  0  0  0  0
   -6.8707    2.6713    0.0000 C   0  0  0  0  0  0  0  0  0  0  0  0
   -5.5707    0.4196    0.0000 C   0  0  0  0  0  0  0  0  0  0  0  0
   -5.5716    3.4213    0.0000 C   0  0  0  0  0  0  0  0  0  0  0  0
   -4.2716    1.1696    0.0000 C   0  0  0  0  0  0  0  0  0  0  0  0
   -0.3750    3.4205    0.0000 C   0  0  0  0  0  0  0  0  0  0  0  0
   -0.3750    4.9205    0.0000 C   0  0  0  0  0  0  0  0  0  0  0  0
   -2.9731    3.4205    0.0000 C   0  0  0  0  0  0  0  0  0  0  0  0
   -1.6740    2.6705    0.0000 C   0  0  0  0  0  0  0  0  0  0  0  0
   -4.2721    2.6705    0.0000 C   0  0  0  0  0  0  0  0  0  0  0  0
    0.9240    5.6705    0.0000 Si  0  0  0  0  0  4  0  0  0  0  0  0
  6  5  1  0
  7  5  1  0
  8  6  1  0
  9  7  1  0
 11 10  1  0
 13  1  1  0
 10 13  2  0
 13 12  1  0
 14  8  2  0
 14  9  1  0
 14 12  1  0
 15  2  1  0
 15  3  1  0
 15  4  1  0
 15 11  1  0
M  END
>  <NAME>  (1134) 
(Z)-4-(1-CYCLOHEXENYL)-3-METHYL-2-BUTENYLTRIMETHYLSILANE

>  <SYNONYMS>  (1134) 


>  <SPECTRUM TYPE>  (1134) 
MS1

>  <INSTRUMENT TYPE>  (1134) 
EI-B

>  <INSTRUMENT>  (1134) 
JEOL JMS-DX-300

>  <ION MODE>  (1134) 
P

>  <INCHIKEY>  (1134) 
HJNBOBDRSLDSEF-RAXLEYEMSA-N

>  <FORMULA>  (1134) 
C14H26Si

>  <EXACT MASS>  (1134) 
222.180377362

>  <MW>  (1134) 
222

>  <ID>  (1134) 
JP010363

>  <CONTRIBUTOR>  (1134) 
University of Tokyo Team, {Faculty of Engineering, University of Tokyo

>  <COMMENT>  (1134) 
SMILES=[H]C(C1)=C(CCC1)CC(C)=C([H])C[Si](C)(C)C
InChI=InChI=1S/C14H26Si/c1-13(10-11-15(2,3)4)12-14-8-6-5-7-9-14/h8,10H,5-7,9,11-12H2,1-4H3/b13-10-
computed SMILES=C(=C(C)CC1=CCCCC1)C[Si](C)(C)C
accession=JP010363
date=2016.01.19 (Created 2008.10.21, modified 2011.05.06)
author=HISAHIRO HAGIWARA, CHEMICAL RESEARCH INSTITUTE OF NON-AQUEOUSSOLUTIONS TOHOKU UNIV.
license=CC BY-NC-SA
exact mass=222.18038
ionization energy=70 eV
ion type=[M]+*
computed spectral entropy=2.3786153851403427
computed normalized entropy=0.6745241640881999
SPLASH=splash10-00di-9100000000-4988ea11c8311ad58c3f
submitter=submitter = University of Tokyo Team (Faculty of Engineering, University of Tokyo)
MoNA Rating=3.75

>  <NUM PEAKS>  (1134) 
34

>  <MASS SPECTRAL PEAKS>  (1134) 
39 1.52
41 4.09
43 1.69
44 1.14
45 9.59
53 2.2
55 2.05
59 7.11
67 1.92
72 1.54
73 99.99
74 11.24
75 4.86
77 1.74
79 2.72
80 1.59
81 1.64
85 1.15
91 3.34
92 1.17
93 1.26
105 5.11
106 6.15
107 1.43
119 2.09
120 1.05
133 4.04
135 1.02
139 3.23
148 9.72
149 1.6
207 1.49
222 8.9
223 1.96

>  <PREDICTED SPECTRUM>  (1134) 
31 60
39 53
41 96
43 74
45 278
51 12
53 91
55 93
57 64
59 289
60 6
65 1
66 14
67 84
69 62
71 4
72 43
73 999
74 246
75 150
77 131
78 24
79 152
81 89
82 23
91 143
92 3
93 96
95 28
105 41
106 26
107 133
109 87
119 20
127 19
133 13
134 50
135 16
148 152
149 130
150 11
151 5
153 17
154 10
155 42
207 75
222 198
223 69

$$$$

     RDKit          2D

  9  8  0  0  0  0  0  0  0  0999 V2000
    0.0000    0.0000    0.0000 C   0  0  0  0  0  0  0  0  0  0  0  0
    1.2990    2.2500    0.0000 C   0  0  0  0  0  0  0  0  0  0  0  0
   -1.8481    5.7990    0.0000 C   0  0  0  0  0  0  0  0  0  0  0  0
   -3.8971    5.2500    0.0000 C   0  0  0  0  0  0  0  0  0  0  0  0
   -3.3481    3.2010    0.0000 C   0  0  0  0  0  0  0  0  0  0  0  0
   -1.2990    2.2500    0.0000 C   0  0  0  0  0  0  0  0  0  0  0  0
   -1.2990    3.7500    0.0000 C   0  0  0  0  0  0  0  0  0  0  0  0
    0.0000    1.5000    0.0000 C   0  0  0  0  0  0  0  0  0  0  0  0
   -2.5981    4.5000    0.0000 Si  0  0  0  0  0  4  0  0  0  0  0  0
  7  6  1  0
  8  1  2  0
  8  2  1  0
  8  6  1  0
  9  3  1  0
  9  4  1  0
  9  5  1  0
  9  7  1  0
M  END
>  <NAME>  (1135) 
3-METHYL-3-BUTENYLTRIMETHYLSILANE

>  <SYNONYMS>  (1135) 


>  <SPECTRUM TYPE>  (1135) 
MS1

>  <INSTRUMENT TYPE>  (1135) 
EI-B

>  <INSTRUMENT>  (1135) 
JEOL JMS-DX-300

>  <ION MODE>  (1135) 
P

>  <INCHIKEY>  (1135) 
IBBBOJLWSCGXAH-UHFFFAOYSA-N

>  <FORMULA>  (1135) 
C8H18Si

>  <EXACT MASS>  (1135) 
142.117777106

>  <MW>  (1135) 
142

>  <ID>  (1135) 
JP010362

>  <CONTRIBUTOR>  (1135) 
University of Tokyo Team, {Faculty of Engineering, University of Tokyo

>  <COMMENT>  (1135) 
SMILES=CC(=C)CC[Si](C)(C)C
InChI=InChI=1S/C8H18Si/c1-8(2)6-7-9(3,4)5/h1,6-7H2,2-5H3
computed SMILES=C=C(C)CC[Si](C)(C)C
accession=JP010362
date=2016.01.19 (Created 2008.10.21, modified 2011.05.06)
author=HISAHIRO HAGIWARA, CHEMICAL RESEARCH INSTITUTE OF NON-AQUEOUSSOLUTIONS TOHOKU UNIV.
license=CC BY-NC-SA
exact mass=142.11778
ionization energy=70 eV
ion type=[M]+*
computed spectral entropy=2.3579848389957174
computed normalized entropy=0.6932807992000091
SPLASH=splash10-00di-9100000000-0ecb3cf7699341e44970
submitter=submitter = University of Tokyo Team (Faculty of Engineering, University of Tokyo)
MoNA Rating=3.75

>  <NUM PEAKS>  (1135) 
30

>  <MASS SPECTRAL PEAKS>  (1135) 
31 2.26
39 1.71
41 1.69
43 6.83
44 1.83
45 9.72
55 1.56
57 1.49
58 1.99
59 27.14
60 2.38
61 0.11
68 1.83
71 1.43
72 2.51
73 99.99
74 11.4
75 4.99
83 1.18
85 15.09
86 1.73
99 22.92
100 2.87
101 1.04
111 1.74
127 21.12
128 3.1
129 0.01
142 8.32
143 1.26

>  <PREDICTED SPECTRUM>  (1135) 
27 36
29 78
31 20
41 24
43 104
44 53
45 222
46 49
53 40
55 44
57 26
58 80
59 345
60 46
67 74
68 55
69 14
71 56
72 100
73 999
74 249
75 286
83 45
85 243
86 98
97 5
98 0
99 388
100 126
101 92
114 19
127 345
128 72
129 4
142 163
143 53

$$$$

     RDKit          2D

 17 16  0  0  0  0  0  0  0  0999 V2000
   -8.2697    4.9755    0.0000 C   0  0  0  0  0  0  0  0  0  0  0  0
   -0.4755    0.4755    0.0000 C   0  0  0  0  0  0  0  0  0  0  0  0
   -3.0736    6.4755    0.0000 C   0  0  0  0  0  0  0  0  0  0  0  0
    0.0736    2.9264    0.0000 C   0  0  0  0  0  0  0  0  0  0  0  0
    2.1226    3.4755    0.0000 C   0  0  0  0  0  0  0  0  0  0  0  0
    1.5736    5.5245    0.0000 C   0  0  0  0  0  0  0  0  0  0  0  0
   -6.9707    4.2255    0.0000 C   0  0  0  0  0  0  0  0  0  0  0  0
   -0.4755    1.9755    0.0000 C   0  0  0  0  0  0  0  0  0  0  0  0
   -4.3726    4.2255    0.0000 C   0  0  0  0  0  0  0  0  0  0  0  0
   -0.4755    4.9755    0.0000 C   0  0  0  0  0  0  0  0  0  0  0  0
   -3.0736    4.9755    0.0000 C   0  0  0  0  0  0  0  0  0  0  0  0
   -5.6716    4.9755    0.0000 C   0  0  0  0  0  0  0  0  0  0  0  0
   -1.7745    4.2255    0.0000 C   0  0  0  0  0  0  0  0  0  0  0  0
   -1.7745    2.7255    0.0000 C   0  0  0  0  0  0  0  0  0  0  0  0
   -5.6716    6.4755    0.0000 O   0  0  0  0  0  0  0  0  0  0  0  0
   -3.0736    1.9755    0.0000 O   0  0  0  0  0  0  0  0  0  0  0  0
    0.8236    4.2255    0.0000 Si  0  0  0  0  0  4  0  0  0  0  0  0
  7  1  1  0
  8  2  1  0
 11  3  2  0
 11  9  1  0
 12  7  1  0
 12  9  1  0
 13 10  1  0
 13 11  1  0
 14  8  1  0
 14 13  1  0
 15 12  2  0
 16 14  2  0
 17  4  1  0
 17  5  1  0
 17  6  1  0
 17 10  1  0
M  END
>  <NAME>  (1136) 
3-METHYLENE-5-OXO-2-PROPIONYLHEPTYLTRIMEHYLSILANE

>  <SYNONYMS>  (1136) 


>  <SPECTRUM TYPE>  (1136) 
MS1

>  <INSTRUMENT TYPE>  (1136) 
EI-B

>  <INSTRUMENT>  (1136) 
JEOL JMS-DX-300

>  <ION MODE>  (1136) 
P

>  <INCHIKEY>  (1136) 
USAZPJUUKKCIBZ-UHFFFAOYSA-N

>  <FORMULA>  (1136) 
C14H26O2Si

>  <EXACT MASS>  (1136) 
254.170206602

>  <MW>  (1136) 
254

>  <ID>  (1136) 
JP010361

>  <CONTRIBUTOR>  (1136) 
University of Tokyo Team, {Faculty of Engineering, University of Tokyo

>  <COMMENT>  (1136) 
SMILES=CCC(=O)CC(=C)C(C(=O)CC)C[Si](C)(C)C
InChI=InChI=1S/C14H26O2Si/c1-7-12(15)9-11(3)13(14(16)8-2)10-17(4,5)6/h13H,3,7-10H2,1-2,4-6H3
computed SMILES=O=C(CC(=C)C(C(=O)CC)C[Si](C)(C)C)CC
accession=JP010361
date=2016.01.19 (Created 2008.10.21, modified 2011.05.06)
author=HISAHIRO HAGIWARA, CHEMICAL RESEARCH INSTITUTE OF NON-AQUEOUSSOLUTIONS TOHOKU UNIV.
license=CC BY-NC-SA
exact mass=254.17021
ionization energy=70 eV
ion type=[M]+*
computed spectral entropy=2.587291251349852
computed normalized entropy=0.6878898148903086
SPLASH=splash10-05fr-9200000000-01b19d2a4f9f86771f29
submitter=submitter = University of Tokyo Team (Faculty of Engineering, University of Tokyo)
MoNA Rating=3.75

>  <NUM PEAKS>  (1136) 
43

>  <MASS SPECTRAL PEAKS>  (1136) 
31 1.06
39 1.22
41 1.56
43 3.51
44 1.74
45 12.51
47 1.6
55 0.14
57 50.96
58 2.87
59 4.96
61 2.15
72 1.09
73 99.99
74 10.93
75 22.12
76 1.65
77 1.8
79 3.6
85 1.16
91 2.27
93 2.12
103 1.27
105 1.28
107 14.01
108 1.8
129 1.17
131 1.65
135 5
147 1.02
164 2.49
167 1.28
169 2.46
181 2.04
182 1.17
183 6.08
184 1.17
197 13.53
198 2.51
225 0.83
226 1.58
239 3.44
254 0.57

>  <PREDICTED SPECTRUM>  (1136) 
27 58
29 157
31 18
39 136
40 27
41 91
43 66
44 20
45 227
46 11
47 118
51 40
53 58
55 109
56 21
57 634
58 163
59 192
60 32
61 95
65 69
66 37
67 88
69 20
72 16
73 999
74 304
75 489
76 59
77 115
78 1
79 91
80 32
81 45
85 6
91 180
92 37
93 191
94 11
95 139
103 36
105 73
106 44
107 207
108 105
109 91
115 45
119 56
121 15
122 2
123 167
124 21
125 32
127 43
129 62
131 99
132 31
135 56
136 17
137 48
141 110
164 34
165 67
167 19
168 38
169 214
170 28
171 58
181 76
182 70
183 205
184 87
185 61
197 347
198 185
199 83
225 157
227 0
239 62
240 30
254 62

$$$$

     RDKit          2D

 17 17  0  0  0  0  0  0  0  0999 V2000
   -1.2990    3.3200    0.0000 C   0  0  0  0  0  0  0  0  0  0  0  0
   -3.1471    9.1190    0.0000 C   0  0  0  0  0  0  0  0  0  0  0  0
   -5.1962    8.5700    0.0000 C   0  0  0  0  0  0  0  0  0  0  0  0
   -4.6471    6.5210    0.0000 C   0  0  0  0  0  0  0  0  0  0  0  0
    5.1962    7.0700    0.0000 C   0  0  0  0  0  0  0  0  0  0  0  0
    5.1966    5.5692    0.0000 C   0  0  0  0  0  0  0  0  0  0  0  0
    3.8966    7.8208    0.0000 C   0  0  0  0  0  0  0  0  0  0  0  0
    3.8976    4.8192    0.0000 C   0  0  0  0  0  0  0  0  0  0  0  0
    2.5976    7.0708    0.0000 C   0  0  0  0  0  0  0  0  0  0  0  0
   -2.5981    5.5700    0.0000 C   0  0  0  0  0  0  0  0  0  0  0  0
   -2.5981    7.0700    0.0000 C   0  0  0  0  0  0  0  0  0  0  0  0
    0.0000    5.5700    0.0000 C   0  0  0  0  0  0  0  0  0  0  0  0
   -1.2990    4.8200    0.0000 C   0  0  0  0  0  0  0  0  0  0  0  0
    2.5981    5.5700    0.0000 C   0  0  0  0  0  0  0  0  0  0  0  0
    1.2990    4.8200    0.0000 C   0  0  0  0  0  0  0  0  0  0  0  0
    1.2990    3.3200    0.0000 O   0  0  0  0  0  0  0  0  0  0  0  0
   -3.8971    7.8200    0.0000 Si  0  0  0  0  0  4  0  0  0  0  0  0
  6  5  2  0
  7  5  1  0
  8  6  1  0
  9  7  2  0
 11 10  1  0
 13  1  1  0
 10 13  2  0
 13 12  1  0
 14  8  2  0
 14  9  1  0
 15 12  1  0
 15 14  1  0
 16 15  2  0
 17  2  1  0
 17  3  1  0
 17  4  1  0
 17 11  1  0
M  END
>  <NAME>  (1137) 
(Z)-3-METHYL-5-OXO-5-PHENYL-2-PENTENYLTRIMETHYLSILANE

>  <SYNONYMS>  (1137) 


>  <SPECTRUM TYPE>  (1137) 
MS1

>  <INSTRUMENT TYPE>  (1137) 
EI-B

>  <INSTRUMENT>  (1137) 
JEOL JMS-DX-300

>  <ION MODE>  (1137) 
P

>  <INCHIKEY>  (1137) 
OISQXWPBMRUWCV-RAXLEYEMSA-N

>  <FORMULA>  (1137) 
C15H22OSi

>  <EXACT MASS>  (1137) 
246.14399185399998

>  <MW>  (1137) 
246

>  <ID>  (1137) 
JP010360

>  <CONTRIBUTOR>  (1137) 
University of Tokyo Team, {Faculty of Engineering, University of Tokyo

>  <COMMENT>  (1137) 
SMILES=CC(CC(=O)c(c1)cccc1)=C([H])C[Si](C)(C)C
InChI=InChI=1S/C15H22OSi/c1-13(10-11-17(2,3)4)12-15(16)14-8-6-5-7-9-14/h5-10H,11-12H2,1-4H3/b13-10-
computed SMILES=O=C(C=1C=CC=CC1)CC(=CC[Si](C)(C)C)C
accession=JP010360
date=2016.01.19 (Created 2008.10.21, modified 2011.05.06)
author=HISAHIRO HAGIWARA, CHEMICAL RESEARCH INSTITUTE OF NON-AQUEOUSSOLUTIONS TOHOKU UNIV.
license=CC BY-NC-SA
exact mass=246.14399
ionization energy=70 eV
ion type=[M]+*
computed spectral entropy=2.6153703098311696
computed normalized entropy=0.7416627686177517
SPLASH=splash10-00di-9410000000-ad8d7978c04b98009692
submitter=submitter = University of Tokyo Team (Faculty of Engineering, University of Tokyo)
MoNA Rating=3.75

>  <NUM PEAKS>  (1137) 
34

>  <MASS SPECTRAL PEAKS>  (1137) 
39 1.71
41 1.66
43 2.31
44 1.34
45 10.92
51 3.4
59 4.74
73 99.99
74 9.28
75 19.78
76 2.01
77 12.86
78 1.64
83 1.79
91 2.45
104 2.09
105 32.66
106 3.03
115 3.08
127 1.34
128 1.84
129 4.54
135 2.81
141 9.63
142 4.12
156 4.74
157 6.06
163 1.74
177 2.28
178 2.18
231 16.61
232 0.35
245 5.16
246 5.63

>  <PREDICTED SPECTRUM>  (1137) 
14 6
15 40
26 41
27 81
28 55
29 110
31 71
39 121
40 26
41 121
42 48
43 191
44 91
45 285
46 73
47 68
49 1
50 38
51 150
52 22
53 60
54 4
55 95
56 27
57 83
58 55
59 248
60 56
61 55
63 21
66 4
69 147
70 57
71 90
72 105
73 999
74 268
75 252
76 80
77 344
78 122
81 22
82 48
83 49
84 31
85 119
86 30
87 38
89 81
90 31
91 106
95 12
96 13
97 62
98 22
99 152
100 57
101 30
104 54
105 626
106 221
109 28
110 21
111 40
112 16
113 14
115 126
116 29
117 37
119 3
120 55
121 71
126 3
127 196
128 132
129 141
130 19
131 54
140 44
141 279
142 136
143 50
144 8
145 27
155 101
156 121
157 150
158 44
163 90
169 77
171 28
172 31
173 30
177 96
178 125
179 81
180 52
187 20
189 25
190 78
191 25
203 91
217 27
218 39
219 1
229 90
230 65
231 268
232 90
233 38
245 219
246 277
247 117
248 32

$$$$

     RDKit          2D

 18 17  0  0  0  0  0  0  0  0999 V2000
    3.4853    6.5123    0.0000 C   0  0  0  0  0  0  0  0  0  0  0  0
   -5.6079    4.2623    0.0000 C   0  0  0  0  0  0  0  0  0  0  0  0
   -8.2060    4.2623    0.0000 C   0  0  0  0  0  0  0  0  0  0  0  0
  -10.2550    7.8113    0.0000 C   0  0  0  0  0  0  0  0  0  0  0  0
  -10.8041    5.7623    0.0000 C   0  0  0  0  0  0  0  0  0  0  0  0
   -8.7550    5.2132    0.0000 C   0  0  0  0  0  0  0  0  0  0  0  0
    2.1863    7.2623    0.0000 C   0  0  0  0  0  0  0  0  0  0  0  0
    0.8873    6.5123    0.0000 C   0  0  0  0  0  0  0  0  0  0  0  0
   -0.4118    7.2623    0.0000 C   0  0  0  0  0  0  0  0  0  0  0  0
   -1.7108    6.5123    0.0000 C   0  0  0  0  0  0  0  0  0  0  0  0
   -3.0099    7.2623    0.0000 C   0  0  0  0  0  0  0  0  0  0  0  0
   -4.3089    6.5123    0.0000 C   0  0  0  0  0  0  0  0  0  0  0  0
   -8.2060    7.2623    0.0000 C   0  0  0  0  0  0  0  0  0  0  0  0
   -6.9070    5.0123    0.0000 C   0  0  0  0  0  0  0  0  0  0  0  0
   -6.9070    6.5123    0.0000 C   0  0  0  0  0  0  0  0  0  0  0  0
   -5.6079    7.2623    0.0000 C   0  0  0  0  0  0  0  0  0  0  0  0
   -5.6079    8.7623    0.0000 O   0  0  0  0  0  0  0  0  0  0  0  0
   -9.5050    6.5123    0.0000 Si  0  0  0  0  0  4  0  0  0  0  0  0
  7  1  1  0
  8  7  1  0
  9  8  1  0
 10  9  1  0
 11 10  1  0
 12 11  1  0
 14  2  2  0
 14  3  1  0
 15 13  1  0
 15 14  1  0
 16 12  1  0
 16 15  1  0
 17 16  1  0
 18  4  1  0
 18  5  1  0
 18  6  1  0
 18 13  1  0
M  END
>  <NAME>  (1138) 
3-HYDROXY-2-ISOPROPENYLDECYLTRIMETHYLSILANE

>  <SYNONYMS>  (1138) 


>  <SPECTRUM TYPE>  (1138) 
MS1

>  <INSTRUMENT TYPE>  (1138) 
EI-B

>  <INSTRUMENT>  (1138) 
JEOL JMS-DX-300

>  <ION MODE>  (1138) 
P

>  <INCHIKEY>  (1138) 
LHGICPWDLVAOSU-UHFFFAOYSA-N

>  <FORMULA>  (1138) 
C16H34OSi

>  <EXACT MASS>  (1138) 
270.237892238

>  <MW>  (1138) 
270

>  <ID>  (1138) 
JP010359

>  <CONTRIBUTOR>  (1138) 
University of Tokyo Team, {Faculty of Engineering, University of Tokyo

>  <COMMENT>  (1138) 
SMILES=CCCCCCCC(O)C(C(C)=C)C[Si](C)(C)C
InChI=InChI=1S/C16H34OSi/c1-7-8-9-10-11-12-16(17)15(14(2)3)13-18(4,5)6/h15-17H,2,7-13H2,1,3-6H3
computed SMILES=OC(CCCCCCC)C(C(=C)C)C[Si](C)(C)C
accession=JP010359
date=2016.01.19 (Created 2008.10.21, modified 2011.05.06)
author=HISAHIRO HAGIWARA, CHEMICAL RESEARCH INSTITUTE OF NON-AQUEOUSSOLUTIONS TOHOKU UNIV.
license=CC BY-NC-SA
exact mass=270.23789
ionization energy=70 eV
ion type=[M]+*
computed spectral entropy=2.2629777495991923
computed normalized entropy=0.6589942288205113
SPLASH=splash10-00di-9000000000-98888dd3de2e863450b1
submitter=submitter = University of Tokyo Team (Faculty of Engineering, University of Tokyo)
MoNA Rating=3.75

>  <NUM PEAKS>  (1138) 
31

>  <MASS SPECTRAL PEAKS>  (1138) 
41 4.43
43 3.26
44 1.38
45 4.32
55 4.69
57 2.41
59 3.22
67 1.67
68 5.7
69 7.77
72 1.29
73 99.99
74 10.76
75 17.42
76 1.24
81 3.74
82 1.53
83 1.24
85 1.34
95 1.87
99 1.87
103 1.27
109 1.14
110 1.15
111 2.49
127 3.07
141 3.75
142 2.27
143 3.59
144 1.05
201 3.1

>  <PREDICTED SPECTRUM>  (1138) 
39 92
40 29
41 260
42 46
43 176
44 84
45 201
53 69
55 307
56 34
57 145
58 80
59 306
61 105
67 103
68 57
69 339
70 151
71 92
73 999
74 306
75 437
76 51
77 20
79 8
81 115
82 108
83 236
84 13
85 100
89 44
91 19
93 36
95 33
96 22
97 185
98 2
99 10
101 5
109 60
110 67
111 163
127 75
129 3
142 36
143 342
144 235
180 7
270 20

$$$$

     RDKit          2D

 14 13  0  0  0  0  0  0  0  0999 V2000
   -3.3983    7.2120    0.0000 C   0  0  0  0  0  0  0  0  0  0  0  0
   -1.7644    6.8611    0.0000 C   0  0  0  0  0  0  0  0  0  0  0  0
    0.1639    6.8611    0.0000 C   0  0  0  0  0  0  0  0  0  0  0  0
    1.7978    5.7120    0.0000 C   0  0  0  0  0  0  0  0  0  0  0  0
   -6.7464    4.0111    0.0000 C   0  0  0  0  0  0  0  0  0  0  0  0
   -7.2954    1.9620    0.0000 C   0  0  0  0  0  0  0  0  0  0  0  0
   -5.2464    1.4130    0.0000 C   0  0  0  0  0  0  0  0  0  0  0  0
   -4.6974    4.9620    0.0000 C   0  0  0  0  0  0  0  0  0  0  0  0
   -4.6974    3.4620    0.0000 C   0  0  0  0  0  0  0  0  0  0  0  0
   -2.0993    4.9620    0.0000 C   0  0  0  0  0  0  0  0  0  0  0  0
   -3.3983    5.7120    0.0000 C   0  0  0  0  0  0  0  0  0  0  0  0
   -0.8002    5.7120    0.0000 C   0  0  0  0  0  0  0  0  0  0  0  0
    0.4988    4.9620    0.0000 O   0  0  0  0  0  0  0  0  0  0  0  0
   -5.9964    2.7120    0.0000 Si  0  0  0  0  0  4  0  0  0  0  0  0
  9  8  1  0
 11  1  1  0
  8 11  2  0
 11 10  1  0
 12  2  1  0
 12  3  1  0
 12 10  1  0
 13  4  1  0
 13 12  1  0
 14  5  1  0
 14  6  1  0
 14  7  1  0
 14  9  1  0
M  END
>  <NAME>  (1139) 
(Z)-5-METHOXY-3,5-DIMETHYL-2-HEXENYLTRIMETHYLSILANE

>  <SYNONYMS>  (1139) 


>  <SPECTRUM TYPE>  (1139) 
MS1

>  <INSTRUMENT TYPE>  (1139) 
EI-B

>  <INSTRUMENT>  (1139) 
JEOL JMS-DX-300

>  <ION MODE>  (1139) 
P

>  <INCHIKEY>  (1139) 
PQFNAFJLRXIJPE-FLIBITNWSA-N

>  <FORMULA>  (1139) 
C12H26OSi

>  <EXACT MASS>  (1139) 
214.17529198199998

>  <MW>  (1139) 
214

>  <ID>  (1139) 
JP010358

>  <CONTRIBUTOR>  (1139) 
University of Tokyo Team, {Faculty of Engineering, University of Tokyo

>  <COMMENT>  (1139) 
SMILES=COC(C)(C)CC(C)=C([H])C[Si](C)(C)C
InChI=InChI=1S/C12H26OSi/c1-11(8-9-14(5,6)7)10-12(2,3)13-4/h8H,9-10H2,1-7H3/b11-8-
computed SMILES=O(C)C(C)(C)CC(=CC[Si](C)(C)C)C
accession=JP010358
date=2016.01.19 (Created 2008.10.21, modified 2011.05.06)
author=HISAHIRO HAGIWARA, CHEMICAL RESEARCH INSTITUTE OF NON-AQUEOUSSOLUTIONS TOHOKU UNIV.
license=CC BY-NC-SA
exact mass=214.17529
ionization energy=70 eV
ion type=[M]+*
computed spectral entropy=1.39017522697123
computed normalized entropy=0.44336717953704646
SPLASH=splash10-00di-9000000000-930731fa226b0adc4b79
submitter=submitter = University of Tokyo Team (Faculty of Engineering, University of Tokyo)
MoNA Rating=3.75

>  <NUM PEAKS>  (1139) 
23

>  <MASS SPECTRAL PEAKS>  (1139) 
31 0.66
39 0.74
41 2.05
42 0.07
43 3.21
44 0.85
45 5.21
53 0.62
55 1.18
57 0.59
59 2.91
67 0.93
72 0.86
73 99.99
74 7.29
75 1.47
89 8.5
90 0.73
91 0.51
95 3.08
111 0.53
142 0.55
214 0.51

>  <PREDICTED SPECTRUM>  (1139) 
27 0
29 41
39 15
40 5
41 63
43 61
44 32
45 197
53 64
54 27
55 107
57 50
58 9
59 136
60 15
61 10
67 105
68 29
69 75
73 999
74 252
75 83
77 0
81 121
82 82
83 96
85 18
89 244
91 2
95 87
109 26
110 62
111 109
125 2
199 2
214 33

$$$$

     RDKit          2D

 14 13  0  0  0  0  0  0  0  0999 V2000
    2.1863    4.2623    0.0000 C   0  0  0  0  0  0  0  0  0  0  0  0
   -1.7108    2.0123    0.0000 C   0  0  0  0  0  0  0  0  0  0  0  0
   -4.3089    2.0123    0.0000 C   0  0  0  0  0  0  0  0  0  0  0  0
   -1.7108    6.5123    0.0000 C   0  0  0  0  0  0  0  0  0  0  0  0
   -6.3579    5.5613    0.0000 C   0  0  0  0  0  0  0  0  0  0  0  0
   -6.9070    3.5123    0.0000 C   0  0  0  0  0  0  0  0  0  0  0  0
   -4.8579    2.9632    0.0000 C   0  0  0  0  0  0  0  0  0  0  0  0
    0.8873    5.0123    0.0000 C   0  0  0  0  0  0  0  0  0  0  0  0
   -4.3089    5.0123    0.0000 C   0  0  0  0  0  0  0  0  0  0  0  0
   -3.0099    2.7623    0.0000 C   0  0  0  0  0  0  0  0  0  0  0  0
   -1.7108    5.0123    0.0000 C   0  0  0  0  0  0  0  0  0  0  0  0
   -3.0099    4.2623    0.0000 C   0  0  0  0  0  0  0  0  0  0  0  0
   -0.4118    4.2623    0.0000 O   0  0  0  0  0  0  0  0  0  0  0  0
   -5.6079    4.2623    0.0000 Si  0  0  0  0  0  4  0  0  0  0  0  0
  8  1  1  0
 10  2  2  0
 10  3  1  0
 11  4  1  0
 12  9  1  0
 12 10  1  0
 12 11  1  0
 13  8  1  0
 13 11  1  0
 14  5  1  0
 14  6  1  0
 14  7  1  0
 14  9  1  0
M  END
>  <NAME>  (1140) 
3-ETHOXY-2-ISOPROPENYLBUTYLTRIMETHYLSILANE

>  <SYNONYMS>  (1140) 


>  <SPECTRUM TYPE>  (1140) 
MS1

>  <INSTRUMENT TYPE>  (1140) 
EI-B

>  <INSTRUMENT>  (1140) 
Unknown

>  <ION MODE>  (1140) 
P

>  <INCHIKEY>  (1140) 
NDKXMSYUHKEGHT-UHFFFAOYSA-N

>  <FORMULA>  (1140) 
C12H26OSi

>  <EXACT MASS>  (1140) 
214.17529198199998

>  <MW>  (1140) 
214

>  <ID>  (1140) 
JP010357

>  <CONTRIBUTOR>  (1140) 
University of Tokyo Team, {Faculty of Engineering, University of Tokyo

>  <COMMENT>  (1140) 
SMILES=CCOC(C)C(C(C)=C)C[Si](C)(C)C
InChI=InChI=1S/C12H26OSi/c1-8-13-11(4)12(10(2)3)9-14(5,6)7/h11-12H,2,8-9H2,1,3-7H3
computed SMILES=O(CC)C(C)C(C(=C)C)C[Si](C)(C)C
accession=JP010357
date=2016.01.19 (Created 2008.10.21, modified 2011.05.06)
author=HISAHIRO HAGIWARA, CHEMICAL RESEARCH INSTITUTE OF NON-AQUEOUSSOLUTIONS TOHOKU UNIV.
license=CC BY-NC-SA
exact mass=214.17529
ionization energy=70 eV
ion type=[M]+*
computed spectral entropy=1.7726512012997242
computed normalized entropy=0.7133673216460497
SPLASH=splash10-0229-9720000000-18de60ea449ff0ae1d50
submitter=submitter = University of Tokyo Team (Faculty of Engineering, University of Tokyo)
MoNA Rating=3.75

>  <NUM PEAKS>  (1140) 
12

>  <MASS SPECTRAL PEAKS>  (1140) 
43 1.6
45 3.26
58 1.12
59 2.09
73 99.99
74 9.04
111 46.2
112 8.13
126 33
127 6.42
214 23.64
215 6.74

>  <PREDICTED SPECTRUM>  (1140) 
41 40
43 235
44 3
45 264
53 35
54 25
55 160
57 25
59 282
67 182
68 138
69 91
71 4
73 991
74 249
75 169
77 62
81 41
95 37
109 14
111 999
112 334
113 66
125 248
126 406
127 141
128 21
129 134
140 78
199 61
214 532
215 190
216 64

$$$$

     RDKit          2D

 16 18  0  0  0  0  0  0  0  0999 V2000
    1.1954   -0.9598    0.0000 C   0  0  0  0  0  0  0  0  0  0  0  0
   -6.4116    1.0081    0.0000 C   0  0  0  0  0  0  0  0  0  0  0  0
   -1.8503    0.2055    0.0000 C   0  0  0  0  0  0  0  0  0  0  0  0
    0.0189    0.0091    0.0000 C   0  0  0  0  0  0  0  0  0  0  0  0
    2.7491    1.4190    0.0000 C   0  0  0  0  0  0  0  0  0  0  0  0
   -1.2582    4.0242    0.0000 C   0  0  0  0  0  0  0  0  0  0  0  0
    1.1970    0.5402    0.0000 C   0  0  0  0  0  0  0  0  0  0  0  0
   -1.8683    2.6538    0.0000 C   0  0  0  0  0  0  0  0  0  0  0  0
    0.2336    3.8674    0.0000 C   0  0  0  0  0  0  0  0  0  0  0  0
    0.5455    2.4001    0.0000 C   0  0  0  0  0  0  0  0  0  0  0  0
    2.3637    3.1605    0.0000 C   0  0  0  0  0  0  0  0  0  0  0  0
   -3.4394    0.4543    0.0000 C   0  0  0  0  0  0  0  0  0  0  0  0
   -0.7536    1.6501    0.0000 C   0  0  0  0  0  0  0  0  0  0  0  0
    3.4773    4.1654    0.0000 O   0  0  0  0  0  0  0  0  0  0  0  0
   -3.8528   -0.9876    0.0000 O   0  0  0  0  0  0  0  0  0  0  0  0
   -5.0412    1.6182    0.0000 O   0  0  0  0  0  0  0  0  0  0  0  0
  4  3  1  0
  7  1  1  0
  7  5  1  0
  8  3  1  0
  8  6  1  0
  9  6  1  0
 10  4  1  0
 10  9  1  0
 11  5  1  0
 11  9  1  0
 13  7  1  0
 13  8  1  0
 13 10  1  0
 13 12  1  0
 14 11  2  0
 15 12  2  0
 16  2  1  0
 16 12  1  0
M  END
>  <NAME>  (1141) 
METHYL 2-METHYL-4-OXO-TRICYCLO(5,3,0,0(5,10))DECANE-1-CARBOXYLATE

>  <SYNONYMS>  (1141) 


>  <SPECTRUM TYPE>  (1141) 
MS1

>  <INSTRUMENT TYPE>  (1141) 
EI-B

>  <INSTRUMENT>  (1141) 
JEOL JMS-DX-300

>  <ION MODE>  (1141) 
P

>  <INCHIKEY>  (1141) 
JSOADSOCTCJGRD-UHFFFAOYSA-N

>  <FORMULA>  (1141) 
C13H18O3

>  <EXACT MASS>  (1141) 
222.12559443599997

>  <MW>  (1141) 
222

>  <ID>  (1141) 
JP010356

>  <CONTRIBUTOR>  (1141) 
University of Tokyo Team, {Faculty of Engineering, University of Tokyo

>  <COMMENT>  (1141) 
SMILES=COC(=O)C(C(C)2)(C31)C(CC3)C(C(=O)C2)C1
InChI=InChI=1S/C13H18O3/c1-7-5-11(14)9-6-8-3-4-10(9)13(7,8)12(15)16-2/h7-10H,3-6H2,1-2H3
computed SMILES=O=C(OC)C12C(C)CC(=O)C3CC2CCC31
accession=JP010356
date=2016.01.19 (Created 2008.10.21, modified 2011.05.06)
author=HISAHIRO HAGIWARA, CHEMICAL RESEARCH INSTITUTE OF NON-AQUEOUSSOLUTIONS TOHOKU UNIV.
license=CC BY-NC-SA
exact mass=222.12559
ionization energy=70 eV
ion type=[M]+*
computed spectral entropy=3.7087644157841853
computed normalized entropy=0.9254943984821253
SPLASH=splash10-0006-5900000000-7e6ad9fbdc684d9c5e28
submitter=submitter = University of Tokyo Team (Faculty of Engineering, University of Tokyo)
MoNA Rating=3.75

>  <NUM PEAKS>  (1141) 
55

>  <MASS SPECTRAL PEAKS>  (1141) 
39 26.4
41 36.89
43 10.38
51 10.27
52 6.32
53 17.99
55 22.06
59 17.59
65 16.41
66 7.65
67 17.16
69 9.61
77 28.74
78 11.55
79 37.8
80 8.82
81 17.65
91 44.14
92 20.62
93 36.66
94 7.04
105 36.92
106 9.93
107 11.57
108 6.29
109 10.95
119 25.34
120 4.14
121 49.93
122 7.47
133 19.34
134 12.79
135 20.14
137 6.49
145 7.31
147 15.39
148 63.09
149 17.26
151 6.36
152 0.74
161 5.55
162 21.48
163 35.63
164 5.01
165 15.46
166 6.67
179 15.41
180 61.44
181 8.76
190 14.82
191 22.09
194 99.99
195 15.51
222 27.83
223 6.58

>  <PREDICTED SPECTRUM>  (1141) 
27 6
39 248
40 104
41 402
42 109
43 117
45 10
50 55
51 270
52 203
53 415
54 178
55 427
56 7
57 25
59 465
63 93
65 376
66 322
67 504
68 124
69 247
74 18
77 554
78 317
79 721
80 352
81 431
82 39
85 60
91 653
92 330
93 537
94 327
95 158
96 23
103 160
104 162
105 549
106 396
107 405
108 148
109 268
110 34
113 23
117 57
118 103
119 506
120 538
121 727
122 279
129 28
130 22
131 108
133 338
134 411
135 384
136 84
137 96
144 53
145 104
146 124
147 562
148 999
149 435
150 100
151 122
152 140
153 6
161 260
162 458
163 431
164 168
165 374
166 113
167 25
175 38
179 309
180 885
181 365
182 10
189 13
190 399
191 443
192 80
193 177
194 789
195 343
207 71
221 7
222 660
223 275
224 19

$$$$

     RDKit          2D

 18 19  0  0  0  0  0  0  0  0999 V2000
   -9.1185    3.7354    0.0000 C   0  0  0  0  0  0  0  0  0  0  0  0
   -5.2214    4.4854    0.0000 C   0  0  0  0  0  0  0  0  0  0  0  0
   -6.5204    3.7354    0.0000 C   0  0  0  0  0  0  0  0  0  0  0  0
   -3.9223    3.7354    0.0000 C   0  0  0  0  0  0  0  0  0  0  0  0
   -0.0252    4.4854    0.0000 C   0  0  0  0  0  0  0  0  0  0  0  0
   -1.3243    2.2354    0.0000 C   0  0  0  0  0  0  0  0  0  0  0  0
    1.2738    3.7354    0.0000 C   0  0  0  0  0  0  0  0  0  0  0  0
   -0.0252    1.4854    0.0000 C   0  0  0  0  0  0  0  0  0  0  0  0
    2.8978    0.4318    0.0000 C   0  0  0  0  0  0  0  0  0  0  0  0
    3.6478    1.7308    0.0000 C   0  0  0  0  0  0  0  0  0  0  0  0
   -7.8195    4.4854    0.0000 C   0  0  0  0  0  0  0  0  0  0  0  0
   -1.3243    3.7354    0.0000 C   0  0  0  0  0  0  0  0  0  0  0  0
   -2.6233    4.4854    0.0000 C   0  0  0  0  0  0  0  0  0  0  0  0
    1.2738    2.2354    0.0000 C   0  0  0  0  0  0  0  0  0  0  0  0
   -7.8195    5.9854    0.0000 O   0  0  0  0  0  0  0  0  0  0  0  0
   -2.6233    5.9854    0.0000 O   0  0  0  0  0  0  0  0  0  0  0  0
    1.4306    0.7437    0.0000 O   0  0  0  0  0  0  0  0  0  0  0  0
    2.6441    2.8455    0.0000 O   0  0  0  0  0  0  0  0  0  0  0  0
  3  2  1  0
  4  2  1  0
  7  5  1  0
  8  6  1  0
 10  9  1  0
 11  1  1  0
 11  3  1  0
 12  5  2  0
 12  6  1  0
 13  4  1  0
 13 12  1  0
 14  7  1  0
 14  8  1  0
 15 11  2  0
 16 13  2  0
 17  9  1  0
 17 14  1  0
 18 10  1  0
 18 14  1  0
M  END
>  <NAME>  (1142) 
4,4-ETHYLENDIOXY-1-(5-OXOHEXANOYL)CYCLOHEXENE

>  <SYNONYMS>  (1142) 


>  <SPECTRUM TYPE>  (1142) 
MS1

>  <INSTRUMENT TYPE>  (1142) 
EI-B

>  <INSTRUMENT>  (1142) 
JEOL JMS-DX-300

>  <ION MODE>  (1142) 
P

>  <INCHIKEY>  (1142) 
WVSAPRNKVNYSSY-UHFFFAOYSA-N

>  <FORMULA>  (1142) 
C14H20O4

>  <EXACT MASS>  (1142) 
252.13615912

>  <MW>  (1142) 
252

>  <ID>  (1142) 
JP010355

>  <CONTRIBUTOR>  (1142) 
University of Tokyo Team, {Faculty of Engineering, University of Tokyo

>  <COMMENT>  (1142) 
SMILES=CC(=O)CCCC(=O)C(C1)=CCC(O2)(OCC2)C1
InChI=InChI=1S/C14H20O4/c1-11(15)3-2-4-13(16)12-5-7-14(8-6-12)17-9-10-18-14/h5H,2-4,6-10H2,1H3
computed SMILES=O=C(C1=CCC2(OCCO2)CC1)CCCC(=O)C
accession=JP010355
date=2016.01.19 (Created 2008.10.21, modified 2011.05.06)
author=HISAHIRO HAGIWARA, CHEMICAL RESEARCH INSTITUTE OF NON-AQUEOUSSOLUTIONS TOHOKU UNIV.
license=CC BY-NC-SA
exact mass=252.13616
ionization energy=70 eV
ion type=[M]+*
computed spectral entropy=2.868781764551528
computed normalized entropy=0.8005487940263231
SPLASH=splash10-000l-9100000000-0fa03aa92f9107c09b2e
submitter=submitter = University of Tokyo Team (Faculty of Engineering, University of Tokyo)
MoNA Rating=3.75

>  <NUM PEAKS>  (1142) 
36

>  <MASS SPECTRAL PEAKS>  (1142) 
39 6.98
41 9.7
42 19.66
43 32.07
45 3.71
51 2.5
53 16.81
55 15.74
65 4.46
66 2.23
67 6.86
71 3.83
73 2.5
77 6.42
78 2.22
79 3.83
81 10.28
85 6.28
86 99.99
91 3.66
93 2.15
95 5.21
99 2.59
107 2.57
109 3.62
113 4.13
115 2.31
121 5.49
122 5.9
123 7.44
137 3.25
139 2.33
165 2.46
167 7.68
180 3.92
252 5.79

>  <PREDICTED SPECTRUM>  (1142) 
14 3
26 27
27 147
28 60
29 105
30 23
31 2
38 21
39 272
40 143
41 391
42 402
43 534
44 212
45 227
50 32
51 162
52 60
53 238
54 101
55 416
56 143
57 202
58 54
65 167
66 91
67 131
68 71
69 84
70 73
71 113
77 162
78 61
79 176
80 31
81 130
82 46
83 75
84 56
85 140
86 999
87 507
91 156
92 61
93 271
94 107
95 222
96 38
97 138
98 93
99 387
100 21
101 22
107 61
108 17
109 203
110 157
111 32
112 43
113 16
115 41
121 229
122 72
123 179
124 94
125 142
131 33
133 42
134 0
135 60
137 157
138 22
139 65
141 5
149 46
165 130
166 77
167 185
180 2
190 13
191 75
224 1
252 227
253 69

$$$$

     RDKit          2D

 19 20  0  0  0  0  0  0  0  0999 V2000
    3.3319    4.4724    0.0000 C   0  0  0  0  0  0  0  0  0  0  0  0
    1.1766    3.2455    0.0000 C   0  0  0  0  0  0  0  0  0  0  0  0
   -0.9366    3.4306    0.0000 C   0  0  0  0  0  0  0  0  0  0  0  0
   -1.1217    1.3174    0.0000 C   0  0  0  0  0  0  0  0  0  0  0  0
   -2.2915   -1.8532    0.0000 C   0  0  0  0  0  0  0  0  0  0  0  0
   -2.2915   -0.3532    0.0000 C   0  0  0  0  0  0  0  0  0  0  0  0
   -0.9915   -2.6032    0.0000 C   0  0  0  0  0  0  0  0  0  0  0  0
   -0.9915    0.3968    0.0000 C   0  0  0  0  0  0  0  0  0  0  0  0
    2.9085   -1.8532    0.0000 C   0  0  0  0  0  0  0  0  0  0  0  0
    2.9085   -0.3532    0.0000 C   0  0  0  0  0  0  0  0  0  0  0  0
    0.3085   -1.8532    0.0000 C   0  0  0  0  0  0  0  0  0  0  0  0
    0.3085   -0.3532    0.0000 C   0  0  0  0  0  0  0  0  0  0  0  0
    1.6085   -2.6032    0.0000 C   0  0  0  0  0  0  0  0  0  0  0  0
    2.8811    1.9137    0.0000 C   0  0  0  0  0  0  0  0  0  0  0  0
    1.6085    0.3968    0.0000 C   0  0  0  0  0  0  0  0  0  0  0  0
    1.6085   -4.1032    0.0000 O   0  0  0  0  0  0  0  0  0  0  0  0
    4.3583    1.6534    0.0000 O   0  0  0  0  0  0  0  0  0  0  0  0
    2.3679    3.3232    0.0000 O   0  0  0  0  0  0  0  0  0  0  0  0
    0.0274    2.2814    0.0000 Si  0  0  0  0  0  4  0  0  0  0  0  0
  6  5  1  0
  7  5  1  0
  8  6  1  0
 10  9  1  0
 11  7  1  0
 12  8  1  0
 12 11  1  0
 13  9  1  0
 13 11  1  0
 15 10  1  0
 15 12  1  0
 15 14  1  0
 16 13  2  0
 17 14  2  0
 18  1  1  0
 18 14  1  0
 19  2  1  0
 19  3  1  0
 19  4  1  0
 19 15  1  0
M  END
>  <NAME>  (1143) 
METHYL 3,4,4A,5,6,7,8,8A-OCTAHYDRO-4-TRIMETHYLSILYLNAPHTHALEN-1(2H)-ONE-4-CARBOXYLATE

>  <SYNONYMS>  (1143) 


>  <SPECTRUM TYPE>  (1143) 
MS1

>  <INSTRUMENT TYPE>  (1143) 
EI-B

>  <INSTRUMENT>  (1143) 
JEOL JMS-DX-300

>  <ION MODE>  (1143) 
P

>  <INCHIKEY>  (1143) 
COQGSBQFSUFWIR-UHFFFAOYSA-N

>  <FORMULA>  (1143) 
C15H26O3Si

>  <EXACT MASS>  (1143) 
282.165121222

>  <MW>  (1143) 
282

>  <ID>  (1143) 
JP010354

>  <CONTRIBUTOR>  (1143) 
University of Tokyo Team, {Faculty of Engineering, University of Tokyo

>  <COMMENT>  (1143) 
SMILES=COC(=O)C(C1)([Si](C)(C)C)C(C2)C(CCC2)C(=O)C1
InChI=InChI=1S/C15H26O3Si/c1-18-14(17)15(19(2,3)4)10-9-13(16)11-7-5-6-8-12(11)15/h11-12H,5-10H2,1-4H3
computed SMILES=O=C(OC)C1(CCC(=O)C2CCCCC21)[Si](C)(C)C
accession=JP010354
date=2016.01.19 (Created 2008.10.21, modified 2011.05.06)
author=HISAHIRO HAGIWARA, CHEMICAL RESEARCH INSTITUTE OF NON-AQUEOUSSOLUTIONS TOHOKU UNIV.
license=CC BY-NC-SA
exact mass=282.16512
ionization energy=70 eV
ion type=[M]+*
computed spectral entropy=3.356753977089995
computed normalized entropy=0.8870469775095053
SPLASH=splash10-0079-8930000000-6d80489d2dfad59bbdb0
submitter=submitter = University of Tokyo Team (Faculty of Engineering, University of Tokyo)
MoNA Rating=3.75

>  <NUM PEAKS>  (1143) 
44

>  <MASS SPECTRAL PEAKS>  (1143) 
39 5.14
41 9.44
43 7.96
45 24.07
53 6
55 11.71
59 32.17
67 8.07
68 6.46
73 99.99
74 11.51
75 16.68
77 7.24
79 16.32
80 5.82
81 6.36
89 49.94
91 16.24
93 8.96
94 5.24
105 7.42
107 20.62
108 17.48
121 8.59
122 21.95
123 5.07
133 13.11
135 88.81
136 26.65
149 21.66
150 18.49
159 11.05
161 11.09
172 5.66
177 8.03
178 82.97
179 11.56
226 6.82
239 28.92
240 6.58
251 7.7
267 10.57
282 55.64
283 14.41

>  <PREDICTED SPECTRUM>  (1143) 
28 5
29 28
41 68
43 106
44 14
45 172
47 1
51 4
52 2
53 120
54 50
55 197
56 7
57 18
58 18
59 454
60 56
61 65
65 85
66 98
67 201
68 57
69 126
73 999
74 227
75 363
76 37
77 136
78 97
79 306
80 125
81 338
82 59
83 134
84 52
85 112
87 0
89 530
90 57
91 386
92 57
93 220
94 132
95 176
96 28
97 219
98 4
101 54
105 113
106 27
107 277
108 187
109 126
110 41
111 31
115 26
117 94
118 63
119 136
120 98
121 399
122 306
123 126
125 35
132 6
133 204
134 79
135 559
136 277
137 233
139 19
145 36
147 54
148 15
149 332
150 508
151 201
153 26
159 101
160 36
161 109
163 203
164 48
176 11
177 389
178 642
179 181
180 25
191 36
192 82
193 25
207 30
209 18
223 52
225 70
226 13
227 68
239 286
240 119
251 138
267 262
268 55
282 428
283 157
284 26

$$$$

     RDKit          2D

 17 16  0  0  0  0  0  0  0  0999 V2000
    4.5466    7.8750    0.0000 C   0  0  0  0  0  0  0  0  0  0  0  0
  -13.6399    7.8750    0.0000 C   0  0  0  0  0  0  0  0  0  0  0  0
    3.2476    8.6250    0.0000 C   0  0  0  0  0  0  0  0  0  0  0  0
  -12.3409    8.6250    0.0000 C   0  0  0  0  0  0  0  0  0  0  0  0
   -4.5466    8.6250    0.0000 C   0  0  0  0  0  0  0  0  0  0  0  0
   -3.2476    7.8750    0.0000 C   0  0  0  0  0  0  0  0  0  0  0  0
   -5.8457    7.8750    0.0000 C   0  0  0  0  0  0  0  0  0  0  0  0
   -1.9486    8.6250    0.0000 C   0  0  0  0  0  0  0  0  0  0  0  0
   -7.1447    8.6250    0.0000 C   0  0  0  0  0  0  0  0  0  0  0  0
   -0.6495    7.8750    0.0000 C   0  0  0  0  0  0  0  0  0  0  0  0
   -8.4437    7.8750    0.0000 C   0  0  0  0  0  0  0  0  0  0  0  0
    0.6495    8.6250    0.0000 C   0  0  0  0  0  0  0  0  0  0  0  0
   -9.7428    8.6250    0.0000 C   0  0  0  0  0  0  0  0  0  0  0  0
    0.6495   10.1250    0.0000 O   0  0  0  0  0  0  0  0  0  0  0  0
   -9.7428   10.1250    0.0000 O   0  0  0  0  0  0  0  0  0  0  0  0
    1.9486    7.8750    0.0000 O   0  0  0  0  0  0  0  0  0  0  0  0
  -11.0418    7.8750    0.0000 O   0  0  0  0  0  0  0  0  0  0  0  0
  3  1  1  0
  4  2  1  0
  6  5  1  0
  7  5  1  0
  8  6  1  0
  9  7  1  0
  8 10  2  0
  9 11  2  0
 12 10  1  0
 13 11  1  0
 14 12  2  0
 15 13  2  0
 16  3  1  0
 16 12  1  0
 17  4  1  0
 17 13  1  0
M  END
>  <NAME>  (1144) 
DIETHYL (E,E)-2,7-NONADIENOATE

>  <SYNONYMS>  (1144) 


>  <SPECTRUM TYPE>  (1144) 
MS1

>  <INSTRUMENT TYPE>  (1144) 
EI-B

>  <INSTRUMENT>  (1144) 
JEOL JMS-DX-300

>  <ION MODE>  (1144) 
P

>  <INCHIKEY>  (1144) 
DGDKCADOPSQFGL-GFULKKFKSA-N

>  <FORMULA>  (1144) 
C13H20O4

>  <EXACT MASS>  (1144) 
240.13615912

>  <MW>  (1144) 
240

>  <ID>  (1144) 
JP010353

>  <CONTRIBUTOR>  (1144) 
University of Tokyo Team, {Faculty of Engineering, University of Tokyo

>  <COMMENT>  (1144) 
SMILES=CCOC(=O)C=CCCCC=CC(=O)OCC
InChI=InChI=1S/C13H20O4/c1-3-16-12(14)10-8-6-5-7-9-11-13(15)17-4-2/h8-11H,3-7H2,1-2H3/b10-8+,11-9+
computed SMILES=O=C(OCC)C=CCCCC=CC(=O)OCC
accession=JP010353
date=2016.01.19 (Created 2008.10.21, modified 2011.05.06)
author=HISAHIRO HAGIWARA, CHEMICAL RESEARCH INSTITUTE OF NON-AQUEOUSSOLUTIONS TOHOKU UNIV.
license=CC BY-NC-SA
exact mass=240.13616
ionization energy=70 eV
ion type=[M]+*
computed spectral entropy=3.992212496526691
computed normalized entropy=0.9084671038421127
SPLASH=splash10-00pm-9400000000-6441e63dd92a6c87eb0d
submitter=submitter = University of Tokyo Team (Faculty of Engineering, University of Tokyo)
MoNA Rating=3.75

>  <NUM PEAKS>  (1144) 
81

>  <MASS SPECTRAL PEAKS>  (1144) 
26 6.28
27 43.31
29 99.99
30 3.45
31 3.83
39 35.39
40 11.16
41 28.97
42 9.06
43 21.89
45 10.13
51 3.85
52 3.33
53 41.33
54 13.13
55 40.48
57 15.41
60 9.19
61 11.26
65 9.43
66 13.77
67 27.87
68 47.44
69 8.09
70 8.47
71 9.76
73 9.53
75 21.25
77 9.85
78 6.26
79 30.41
80 12.47
81 88.63
82 16
83 4.17
84 5.52
85 13.35
86 22.12
88 20.45
91 1.26
92 25.33
93 73.38
94 22.85
95 9.75
97 17.17
98 34.96
99 32.09
101 4.35
107 18.1
108 4.84
111 8.18
112 0.74
114 10.67
115 4.15
119 3.65
120 19.48
121 37.7
122 10.05
123 4.26
126 1.29
127 14.28
137 8.14
138 25.3
139 20.88
140 11.03
148 26.03
149 24.51
150 4.68
152 7.37
153 4.08
165 4.16
166 58.54
167 34
168 6.52
194 20.5
195 87.55
196 13.31
197 8.18
240 14.08
241 22.46
242 3.56

>  <PREDICTED SPECTRUM>  (1144) 
14 0
17 1
18 2
19 5
25 28
26 273
27 764
28 289
29 999
30 306
31 182
34 4
37 55
38 139
39 659
40 325
41 865
42 347
43 491
44 276
45 398
46 102
47 198
50 101
51 238
52 198
53 597
54 585
55 885
56 122
57 286
59 101
60 286
61 236
62 32
63 135
64 58
65 371
66 407
67 841
68 724
69 431
70 226
71 226
72 103
73 282
74 160
75 374
76 7
77 454
78 286
79 699
80 367
81 979
82 495
83 242
84 200
85 322
86 442
88 240
89 87
91 296
92 516
93 972
94 622
95 412
96 184
97 406
98 342
99 454
100 130
101 282
102 36
103 101
104 109
105 208
106 229
107 529
108 102
109 98
110 126
111 334
112 229
113 221
114 272
115 15
119 191
120 922
121 933
122 504
123 270
124 78
125 201
126 126
127 226
128 40
135 31
137 220
138 391
139 455
140 317
141 103
148 788
149 606
150 370
151 164
152 285
153 250
154 111
158 11
165 182
166 568
167 591
168 356
169 127
170 76
172 20
193 45
194 376
195 970
196 372
197 247
198 27
211 41
212 110
213 71
240 306
241 146
242 23

$$$$

     RDKit          2D

 30 32  0  0  0  0  0  0  0  0999 V2000
   -4.9721   -0.7500    0.0000 C   0  0  0  0  0  0  0  0  0  0  0  0
   10.6164    3.7500    0.0000 C   0  0  0  0  0  0  0  0  0  0  0  0
   -3.6731   -1.5000    0.0000 C   0  0  0  0  0  0  0  0  0  0  0  0
    9.3173    3.0000    0.0000 C   0  0  0  0  0  0  0  0  0  0  0  0
    2.8221   -0.7500    0.0000 C   0  0  0  0  0  0  0  0  0  0  0  0
    4.1212   -1.5000    0.0000 C   0  0  0  0  0  0  0  0  0  0  0  0
    1.5231   -1.5000    0.0000 C   0  0  0  0  0  0  0  0  0  0  0  0
    5.4202   -0.7500    0.0000 C   0  0  0  0  0  0  0  0  0  0  0  0
    0.2241   -0.7500    0.0000 C   0  0  0  0  0  0  0  0  0  0  0  0
   10.6164   -3.7500    0.0000 C   0  0  0  0  0  0  0  0  0  0  0  0
   11.9154   -3.0000    0.0000 C   0  0  0  0  0  0  0  0  0  0  0  0
   14.2894   -0.9954    0.0000 C   0  0  0  0  0  0  0  0  0  0  0  0
   13.5394    0.3037    0.0000 C   0  0  0  0  0  0  0  0  0  0  0  0
    6.7193   -3.0000    0.0000 C   0  0  0  0  0  0  0  0  0  0  0  0
   10.6164   -0.7500    0.0000 C   0  0  0  0  0  0  0  0  0  0  0  0
    6.7193   -1.5000    0.0000 C   0  0  0  0  0  0  0  0  0  0  0  0
    9.3173   -3.0000    0.0000 C   0  0  0  0  0  0  0  0  0  0  0  0
    9.3173   -1.5000    0.0000 C   0  0  0  0  0  0  0  0  0  0  0  0
    8.0183   -3.7500    0.0000 C   0  0  0  0  0  0  0  0  0  0  0  0
   -1.0750   -1.5000    0.0000 C   0  0  0  0  0  0  0  0  0  0  0  0
    8.0183   -0.7500    0.0000 C   0  0  0  0  0  0  0  0  0  0  0  0
    8.0183    0.7500    0.0000 C   0  0  0  0  0  0  0  0  0  0  0  0
   11.9154   -1.5000    0.0000 C   0  0  0  0  0  0  0  0  0  0  0  0
    8.0183   -5.2500    0.0000 O   0  0  0  0  0  0  0  0  0  0  0  0
   -1.0750   -3.0000    0.0000 O   0  0  0  0  0  0  0  0  0  0  0  0
    6.7193    1.5000    0.0000 O   0  0  0  0  0  0  0  0  0  0  0  0
   -2.3740   -0.7500    0.0000 O   0  0  0  0  0  0  0  0  0  0  0  0
    9.3173    1.5000    0.0000 O   0  0  0  0  0  0  0  0  0  0  0  0
   13.2857   -2.1101    0.0000 O   0  0  0  0  0  0  0  0  0  0  0  0
   12.0722   -0.0082    0.0000 O   0  0  0  0  0  0  0  0  0  0  0  0
  3  1  1  0
  4  2  1  0
  6  5  1  0
  7  5  1  0
  8  6  1  0
  7  9  2  0
 11 10  1  0
 13 12  1  0
 16  8  1  0
 16 14  1  0
 17 10  1  0
 18 15  1  0
 18 17  1  0
 19 14  1  0
 19 17  1  0
 20  9  1  0
 21 16  1  0
 21 18  1  0
 22 21  1  0
 23 11  1  0
 23 15  1  0
 24 19  2  0
 25 20  2  0
 26 22  2  0
 27  3  1  0
 27 20  1  0
 28  4  1  0
 28 22  1  0
 29 12  1  0
 29 23  1  0
 30 13  1  0
 30 23  1  0
M  END
>  <NAME>  (1145) 
ETHYL 3-((E)-5-ETHOXYCARBONYL-4-PENTENYL)-6,6-ETHYLENDIOXY-3,4,4A,5,6,7,8,8A-OCTAHYDRONAPHTHALEN-1(2H)-ONE-4-CARBOXYLATE

>  <SYNONYMS>  (1145) 


>  <SPECTRUM TYPE>  (1145) 
MS1

>  <INSTRUMENT TYPE>  (1145) 
EI-B

>  <INSTRUMENT>  (1145) 
JEOL JMS-DX-300

>  <ION MODE>  (1145) 
P

>  <INCHIKEY>  (1145) 
OUIQUNJXRQNGLD-VQHVLOKHSA-N

>  <FORMULA>  (1145) 
C23H34O7

>  <EXACT MASS>  (1145) 
422.230453428

>  <MW>  (1145) 
422

>  <ID>  (1145) 
JP010352

>  <CONTRIBUTOR>  (1145) 
University of Tokyo Team, {Faculty of Engineering, University of Tokyo

>  <COMMENT>  (1145) 
SMILES=CCOC(=O)C=CCCCC(C1)C(C(=O)OCC)C(C2)C(CCC(O3)(OCC3)2)C(=O)1
InChI=InChI=1S/C23H34O7/c1-3-27-20(25)9-7-5-6-8-16-14-19(24)17-10-11-23(29-12-13-30-23)15-18(17)21(16)22(26)28-4-2/h7,9,16-18,21H,3-6,8,10-15H2,1-2H3/b9-7+
computed SMILES=O=C(OCC)C=CCCCC1CC(=O)C2CCC3(OCCO3)CC2C1C(=O)OCC
accession=JP010352
date=2016.01.19 (Created 2008.10.21, modified 2011.05.06)
author=HISAHIRO HAGIWARA, CHEMICAL RESEARCH INSTITUTE OF NON-AQUEOUSSOLUTIONS TOHOKU UNIV.
license=CC BY-NC-SA
exact mass=422.23045
ionization energy=70 eV
ion type=[M]+*
computed spectral entropy=3.142971444256488
computed normalized entropy=0.8118853646195408
SPLASH=splash10-0002-9100000000-604aee24da5b7e2b0511
submitter=submitter = University of Tokyo Team (Faculty of Engineering, University of Tokyo)
MoNA Rating=3.75

>  <NUM PEAKS>  (1145) 
48

>  <MASS SPECTRAL PEAKS>  (1145) 
39 2
40 2.42
41 5.91
42 6.33
43 23.36
44 10.23
45 4.54
53 2.65
55 12.52
57 4.5
61 3.42
67 4.27
69 2.33
70 2.95
71 2.43
73 4.73
77 2.94
79 3.94
81 5.28
86 30.84
87 18.61
88 2.34
91 3.09
93 3.37
95 3.65
99 99.99
100 9.66
107 2.44
112 4.21
113 2.24
121 2.62
123 2.04
125 4.69
139 3.88
140 9.98
141 3.19
163 2.03
167 4.72
181 2.04
182 2.93
209 3.25
283 2.52
291 5.56
331 4.24
337 8.69
338 2.1
377 6.39
422 4.86

>  <PREDICTED SPECTRUM>  (1145) 
26 43
27 148
28 56
29 220
31 11
39 112
40 30
41 328
42 145
43 289
44 102
45 179
47 5
51 66
53 191
54 47
55 343
57 53
59 2
65 93
66 64
67 232
68 90
69 122
71 36
72 22
73 73
77 210
79 249
80 38
81 239
82 23
86 654
87 440
89 9
91 266
92 27
93 200
94 4
95 148
98 12
99 999
100 138
101 89
105 96
107 116
108 122
109 99
110 12
111 20
112 51
113 69
117 21
121 74
122 51
123 99
124 14
125 133
126 54
127 84
128 4
134 3
135 59
136 26
137 88
138 12
139 73
140 37
141 34
143 14
145 40
149 41
150 10
151 86
153 51
154 27
157 18
159 6
161 10
163 26
165 19
167 61
169 2
179 26
181 22
193 7
203 52
205 0
207 61
209 53
213 76
219 121
221 44
222 0
223 22
225 12
229 13
243 3
249 32
255 40
256 7
257 26
269 58
283 83
284 1
294 9
301 19
303 16
331 41
337 157
347 16
350 26
376 52
377 212
422 149
423 25

$$$$

     RDKit          2D

 18 19  0  0  0  0  0  0  0  0999 V2000
    3.8976    3.3200    0.0000 C   0  0  0  0  0  0  0  0  0  0  0  0
   -9.0928    3.3200    0.0000 C   0  0  0  0  0  0  0  0  0  0  0  0
    2.5981    2.5692    0.0000 C   0  0  0  0  0  0  0  0  0  0  0  0
    3.8981    4.8208    0.0000 C   0  0  0  0  0  0  0  0  0  0  0  0
   -9.0933    4.8208    0.0000 C   0  0  0  0  0  0  0  0  0  0  0  0
   -7.7933    2.5692    0.0000 C   0  0  0  0  0  0  0  0  0  0  0  0
    1.2990    3.3192    0.0000 C   0  0  0  0  0  0  0  0  0  0  0  0
    2.5990    5.5708    0.0000 C   0  0  0  0  0  0  0  0  0  0  0  0
   -7.7942    5.5708    0.0000 C   0  0  0  0  0  0  0  0  0  0  0  0
   -6.4942    3.3192    0.0000 C   0  0  0  0  0  0  0  0  0  0  0  0
    1.2995    4.8200    0.0000 C   0  0  0  0  0  0  0  0  0  0  0  0
   -6.4947    4.8200    0.0000 C   0  0  0  0  0  0  0  0  0  0  0  0
   -2.5976    5.5700    0.0000 C   0  0  0  0  0  0  0  0  0  0  0  0
    0.0005    5.5700    0.0000 N   0  0  0  0  0  0  0  0  0  0  0  0
   -5.1957    5.5700    0.0000 N   0  0  0  0  0  0  0  0  0  0  0  0
   -1.2986    4.8200    0.0000 N   0  0  0  0  0  0  0  0  0  0  0  0
   -3.8966    4.8200    0.0000 N   0  0  0  0  0  0  0  0  0  0  0  0
   -2.5976    7.0700    0.0000 O   0  0  0  0  0  0  0  0  0  0  0  0
  3  1  2  0
  4  1  1  0
  5  2  2  0
  6  2  1  0
  7  3  1  0
  8  4  2  0
  9  5  1  0
 10  6  2  0
 11  7  2  0
 11  8  1  0
 12  9  2  0
 12 10  1  0
 14 11  1  0
 15 12  1  0
 16 13  2  3
 16 14  1  0
 17 13  1  0
 17 15  1  0
 18 13  1  0
M  END
>  <NAME>  (1146) 
DIPHENYLCARBAZIDE

>  <SYNONYMS>  (1146) 


>  <SPECTRUM TYPE>  (1146) 
MS1

>  <INSTRUMENT TYPE>  (1146) 
EI-B

>  <INSTRUMENT>  (1146) 
HITACHI M-80A

>  <ION MODE>  (1146) 
P

>  <INCHIKEY>  (1146) 
KSPIHGBHKVISFI-UHFFFAOYSA-N

>  <FORMULA>  (1146) 
C13H14N4O

>  <EXACT MASS>  (1146) 
242.116761068

>  <MW>  (1146) 
242

>  <ID>  (1146) 
JP010351

>  <CONTRIBUTOR>  (1146) 
University of Tokyo Team, {Faculty of Engineering, University of Tokyo

>  <COMMENT>  (1146) 
SMILES=O=C(NNc(c2)cccc2)NNc(c1)cccc1
InChI=InChI=1S/C13H14N4O/c18-13(16-14-11-7-3-1-4-8-11)17-15-12-9-5-2-6-10-12/h1-10,14-15H,(H2,16,17,18)
computed SMILES=OC(=NNC=1C=CC=CC1)NNC=2C=CC=CC2
accession=JP010351
date=2016.01.19 (Created 2008.10.21, modified 2011.05.06)
author=TAJIMA S, GUNMA COLLEGE OF TECHNOLOGY
license=CC BY-NC-SA
exact mass=242.11676
ionization energy=70 eV
ion type=[M]+*
computed spectral entropy=3.0990221266050413
computed normalized entropy=0.809431285324052
SPLASH=splash10-0pbc-9500000000-8f61f60f3768ad7fb183
submitter=submitter = University of Tokyo Team (Faculty of Engineering, University of Tokyo)
MoNA Rating=3.75

>  <NUM PEAKS>  (1146) 
46

>  <MASS SPECTRAL PEAKS>  (1146) 
26 1.3
27 4.05
28 2.58
29 9.89
30 1.81
31 1.97
37 1.93
38 4.93
39 17.23
40 2.27
41 1.76
42 1.06
43 4.24
44 21.33
50 8.35
51 23.58
52 8.02
53 3.69
62 1.62
63 5.65
64 6.35
65 25.28
66 3.93
74 1.96
75 1.35
76 1.91
77 49.77
78 15.81
79 7.59
80 5.31
81 1.27
91 12.82
92 32.86
93 65.53
94 7.94
105 4.32
106 3.39
107 30.09
108 99.99
109 7.87
134 3.11
150 2.13
151 61.18
152 11
242 10.7
243 2.75

>  <PREDICTED SPECTRUM>  (1146) 
16 13
17 36
18 56
26 12
27 84
28 117
29 41
31 72
32 28
33 13
34 2
36 25
37 33
38 126
39 381
40 93
41 167
42 74
43 79
44 151
45 138
46 40
50 171
51 399
52 201
53 157
54 77
55 88
56 28
57 39
60 48
62 60
63 255
64 314
65 828
66 420
67 156
68 23
69 49
70 50
72 22
74 32
75 25
76 122
77 788
78 299
79 165
80 129
81 113
82 4
83 38
86 3
89 69
90 145
91 538
92 999
93 804
94 259
102 12
103 24
104 264
105 376
106 306
107 367
108 398
109 75
110 11
115 6
117 74
118 234
119 160
120 117
121 52
132 30
133 127
134 239
135 313
136 122
137 56
138 56
139 2
147 2
149 13
150 143
151 18
160 9
163 50
167 24
172 106
181 37
195 44
196 271
197 199
198 230
199 30
223 82
224 394
225 186
226 100
227 18
241 48
242 788
243 324
244 88

$$$$

     RDKit          2D

 13 13  0  0  0  0  0  0  0  0999 V2000
    2.6334   -2.6082    0.0000 C   0  0  0  0  0  0  0  0  0  0  0  0
    1.3344   -3.3582    0.0000 C   0  0  0  0  0  0  0  0  0  0  0  0
    1.3334   -0.3565    0.0000 C   0  0  0  0  0  0  0  0  0  0  0  0
    2.6329   -1.1073    0.0000 C   0  0  0  0  0  0  0  0  0  0  0  0
    0.0348   -2.6073    0.0000 C   0  0  0  0  0  0  0  0  0  0  0  0
    0.0344   -1.1065    0.0000 C   0  0  0  0  0  0  0  0  0  0  0  0
   -1.2642   -3.3573    0.0000 N   0  0  0  0  0  0  0  0  0  0  0  0
    3.9320   -0.3573    0.0000 N   0  0  0  0  0  0  0  0  0  0  0  0
   -1.2648   -0.3567    0.0000 N   0  0  0  0  0  0  0  0  0  0  0  0
    5.2310   -1.1073    0.0000 O   0  0  0  0  0  0  0  0  0  0  0  0
    3.9320    1.1427    0.0000 O   0  0  0  0  0  0  0  0  0  0  0  0
   -2.5637   -1.1069    0.0000 O   0  0  0  0  0  0  0  0  0  0  0  0
   -1.2650    1.1433    0.0000 O   0  0  0  0  0  0  0  0  0  0  0  0
  2  1  2  0
  4  1  1  0
  4  3  2  0
  5  2  1  0
  6  3  1  0
  6  5  2  0
  7  5  1  0
  8  4  1  0
  9  6  1  0
 10  8  1  0
 11  8  2  0
 12  9  1  0
 13  9  2  0
M  CHG  4   8   1   9   1  10  -1  12  -1
M  END
>  <NAME>  (1147) 
2,4-DINITROANILINE

>  <SYNONYMS>  (1147) 


>  <SPECTRUM TYPE>  (1147) 
MS1

>  <INSTRUMENT TYPE>  (1147) 
EI-B

>  <INSTRUMENT>  (1147) 
HITACHI M-80A

>  <ION MODE>  (1147) 
P

>  <INCHIKEY>  (1147) 
LXQOQPGNCGEELI-UHFFFAOYSA-N

>  <FORMULA>  (1147) 
C6H5N3O4

>  <EXACT MASS>  (1147) 
183.02800564

>  <MW>  (1147) 
183

>  <ID>  (1147) 
JP010350

>  <CONTRIBUTOR>  (1147) 
University of Tokyo Team, {Faculty of Engineering, University of Tokyo

>  <COMMENT>  (1147) 
SMILES=[O-1][N+1](=O)c(c1)cc([N+1]([O-1])=O)c(N)c1
InChI=InChI=1S/C6H5N3O4/c7-5-2-1-4(8(10)11)3-6(5)9(12)13/h1-3H,7H2
computed SMILES=O=N(=O)C1=CC=C(N)C(=C1)N(=O)=O
accession=JP010350
date=2016.01.19 (Created 2008.10.21, modified 2011.05.06)
author=TAJIMA S, GUNMA COLLEGE OF TECHNOLOGY
license=CC BY-NC-SA
exact mass=183.02801
ionization energy=70 eV
ion type=[M]+*
computed spectral entropy=3.2147708895783564
computed normalized entropy=0.8176280409848367
SPLASH=splash10-001i-9500000000-d22dbee69568016b5f9b
submitter=submitter = University of Tokyo Team (Faculty of Engineering, University of Tokyo)
MoNA Rating=3.75

>  <NUM PEAKS>  (1147) 
51

>  <MASS SPECTRAL PEAKS>  (1147) 
14 1.3
26 1.39
27 1.57
28 5.87
29 1.13
30 21.14
37 3.22
38 6.58
39 11.22
40 4.56
41 11.01
42 1.53
44 2.13
46 4.85
50 3.82
51 7.7
52 40.38
53 6.95
54 2.5
61 3.71
62 9.75
63 22.77
64 22.73
65 8.84
66 5.47
67 2.92
74 1.38
75 1.61
76 2.74
77 2.12
78 5.84
79 14.42
80 3.34
88 1.14
89 3.22
90 6.7
91 50.35
92 7.95
93 2.78
95 2.79
106 2.3
107 18.76
108 1.62
137 6.36
153 24.51
154 2.08
167 7.94
168 1.06
183 99.99
184 19.22
185 2.02

>  <PREDICTED SPECTRUM>  (1147) 
14 24
15 52
16 38
17 35
18 35
25 13
26 70
27 115
28 156
29 114
30 424
31 45
32 12
35 0
36 66
37 224
38 333
39 358
40 271
41 305
42 158
43 95
44 183
45 105
46 272
48 19
49 130
50 440
51 573
52 661
53 491
54 300
55 210
56 85
57 71
60 41
61 245
62 443
63 652
64 472
65 418
66 305
67 227
68 170
69 188
70 51
71 40
72 3
73 53
74 173
75 256
76 245
77 209
78 432
79 489
80 333
81 100
82 108
83 80
86 22
87 114
88 145
89 197
90 516
91 706
92 345
93 188
94 60
95 228
96 107
97 44
98 86
99 16
102 17
103 25
104 53
105 124
106 265
107 326
108 205
109 64
110 51
119 116
120 258
121 155
123 65
125 23
135 32
136 72
137 314
138 99
153 371
154 113
166 186
167 206
183 999
184 308
185 63

$$$$

     RDKit          2D

 11 12  0  0  0  0  0  0  0  0999 V2000
   -2.9500   -0.8900    0.0000 C   0  0  0  0  0  0  0  0  0  0  0  0
   -2.9500    0.6100    0.0000 C   0  0  0  0  0  0  0  0  0  0  0  0
   -1.6500   -1.6400    0.0000 C   0  0  0  0  0  0  0  0  0  0  0  0
   -1.6500    1.3600    0.0000 C   0  0  0  0  0  0  0  0  0  0  0  0
    0.9400   -1.6400    0.0000 C   0  0  0  0  0  0  0  0  0  0  0  0
    2.2400   -0.8900    0.0000 C   0  0  0  0  0  0  0  0  0  0  0  0
    0.9400    1.3600    0.0000 C   0  0  0  0  0  0  0  0  0  0  0  0
   -0.3500   -0.8900    0.0000 C   0  0  0  0  0  0  0  0  0  0  0  0
   -0.3500    0.6100    0.0000 C   0  0  0  0  0  0  0  0  0  0  0  0
    2.2400    0.6100    0.0000 C   0  0  0  0  0  0  0  0  0  0  0  0
    3.5389    1.3602    0.0000 O   0  0  0  0  0  0  0  0  0  0  0  0
  2  1  2  0
  3  1  1  0
  4  2  1  0
  6  5  2  0
  8  3  2  0
  8  5  1  0
  9  4  2  0
  9  7  1  0
  9  8  1  0
 10  6  1  0
 10  7  2  0
 11 10  1  0
M  END
>  <NAME>  (1148) 
2-NAPHTHOL

>  <SYNONYMS>  (1148) 
2-HYDROXYNAPHTHALENE

>  <SPECTRUM TYPE>  (1148) 
MS1

>  <INSTRUMENT TYPE>  (1148) 
EI-B

>  <INSTRUMENT>  (1148) 
HITACHI M-80A

>  <ION MODE>  (1148) 
P

>  <INCHIKEY>  (1148) 
JWAZRIHNYRIHIV-UHFFFAOYSA-N

>  <FORMULA>  (1148) 
C10H8O

>  <EXACT MASS>  (1148) 
144.057514876

>  <MW>  (1148) 
144

>  <ID>  (1148) 
JP010348

>  <CONTRIBUTOR>  (1148) 
University of Tokyo Team, {Faculty of Engineering, University of Tokyo

>  <COMMENT>  (1148) 
SMILES=Oc(c1)cc(c2)c(ccc2)c1
cas=135-19-3
InChI=InChI=1S/C10H8O/c11-10-6-5-8-3-1-2-4-9(8)7-10/h1-7,11H
computed SMILES=OC=1C=CC=2C=CC=CC2C1
accession=JP010348
date=2016.01.19 (Created 2008.10.21, modified 2011.05.06)
author=TAJIMA S, GUNMA COLLEGE OF TECHNOLOGY
license=CC BY-NC-SA
exact mass=144.05751
ionization energy=70 eV
ion type=[M]+*
computed spectral entropy=2.060519354777668
computed normalized entropy=0.6324304178012303
SPLASH=splash10-0006-2900000000-59876f73d937e3fff0c1
submitter=submitter = University of Tokyo Team (Faculty of Engineering, University of Tokyo)
MoNA Rating=3.75

>  <NUM PEAKS>  (1148) 
26

>  <MASS SPECTRAL PEAKS>  (1148) 
26 1.03
27 1.64
28 3.15
29 2.03
38 1.64
39 4.35
50 2.93
51 3.23
58 1.23
62 2.65
63 5.47
65 2.02
72 2.01
74 1.55
75 1.36
77 2.29
87 1.45
88 1.07
89 4.4
105 5.35
113 1.09
114 1.8
115 33.41
116 9.89
144 99.99
145 11.26

>  <PREDICTED SPECTRUM>  (1148) 
16 1
25 3
26 25
27 53
28 31
29 72
36 4
37 47
38 93
39 207
40 54
41 121
44 67
49 56
50 221
51 258
52 168
53 89
54 1
55 100
56 16
57 160
58 74
61 93
62 209
63 313
64 156
65 204
66 69
67 74
68 31
69 52
70 93
71 7
73 70
74 211
75 217
76 184
77 222
78 69
79 14
81 36
83 45
84 43
85 62
86 103
87 126
88 128
89 315
90 140
94 9
95 15
96 30
97 48
98 62
113 125
114 206
115 704
116 308
117 134
125 0
126 138
127 23
142 53
143 226
144 999
145 346
146 114

$$$$

     RDKit          2D

 11 10  0  0  0  0  0  0  0  0999 V2000
    2.2841    2.8734    0.0000 C   0  0  0  0  0  0  0  0  0  0  0  0
   -5.5102    2.8734    0.0000 C   0  0  0  0  0  0  0  0  0  0  0  0
   -3.0284    7.3311    0.0000 C   0  0  0  0  0  0  0  0  0  0  0  0
   -0.6489    4.7725    0.0000 C   0  0  0  0  0  0  0  0  0  0  0  0
    0.9850    3.6234    0.0000 C   0  0  0  0  0  0  0  0  0  0  0  0
   -4.2111    3.6234    0.0000 C   0  0  0  0  0  0  0  0  0  0  0  0
   -2.0642    6.1820    0.0000 C   0  0  0  0  0  0  0  0  0  0  0  0
   -0.3140    2.8734    0.0000 O   0  0  0  0  0  0  0  0  0  0  0  0
   -2.9121    2.8734    0.0000 O   0  0  0  0  0  0  0  0  0  0  0  0
   -2.5772    4.7725    0.0000 O   0  0  0  0  0  0  0  0  0  0  0  0
   -1.6131    3.6234    0.0000 Si  0  0  0  0  0  4  0  0  0  0  0  0
  5  1  1  0
  6  2  1  0
  7  3  1  0
  8  5  1  0
  9  6  1  0
 10  7  1  0
 11  4  1  0
 11  8  1  0
 11  9  1  0
 11 10  1  0
M  END
>  <NAME>  (1149) 
TRIETHOXYMETHYLSILANE

>  <SYNONYMS>  (1149) 


>  <SPECTRUM TYPE>  (1149) 
MS1

>  <INSTRUMENT TYPE>  (1149) 
EI-B

>  <INSTRUMENT>  (1149) 
HITACHI M-80A

>  <ION MODE>  (1149) 
P

>  <INCHIKEY>  (1149) 
CPUDPFPXCZDNGI-UHFFFAOYSA-N

>  <FORMULA>  (1149) 
C7H18O3Si

>  <EXACT MASS>  (1149) 
178.102520966

>  <MW>  (1149) 
178

>  <ID>  (1149) 
JP010347

>  <CONTRIBUTOR>  (1149) 
University of Tokyo Team, {Faculty of Engineering, University of Tokyo

>  <COMMENT>  (1149) 
SMILES=CCO[Si](C)(OCC)OCC
InChI=InChI=1S/C7H18O3Si/c1-5-8-11(4,9-6-2)10-7-3/h5-7H2,1-4H3
computed SMILES=O(CC)[Si](OCC)(OCC)C
accession=JP010347
date=2016.01.19 (Created 2008.10.21, modified 2011.05.06)
author=TAJIMA S, GUNMA COLLEGE OF TECHNOLOGY
license=CC BY-NC-SA
exact mass=178.10252
ionization energy=70 eV
ion type=[M]+*
computed spectral entropy=3.1239421947544574
computed normalized entropy=0.8069697713841567
SPLASH=splash10-03di-6900000000-fef9cb2a196d57c1bd93
submitter=submitter = University of Tokyo Team (Faculty of Engineering, University of Tokyo)
MoNA Rating=3.75

>  <NUM PEAKS>  (1149) 
48

>  <MASS SPECTRAL PEAKS>  (1149) 
14 3
15 11.49
26 3
27 11.98
28 1.97
29 14.83
31 3.02
42 1.9
43 22.51
45 18.71
46 1.17
47 1.18
58 5.64
59 4.08
60 2.19
61 12.98
62 3.11
63 4.56
73 4.9
74 2.27
75 1.82
76 1.84
77 31.17
78 2.03
79 8.81
81 1.44
88 1.81
89 14.62
90 1.73
91 6.16
103 3.37
105 13.36
106 1.17
107 5.49
117 2.27
119 44.7
120 4.31
121 2.5
133 53.63
134 5.82
135 7.99
149 6.56
163 99.99
164 12.02
165 4.6
177 2.83
178 7.52
179 1.54

>  <PREDICTED SPECTRUM>  (1149) 
14 21
15 94
16 10
17 20
18 11
19 4
25 9
26 69
27 85
28 108
29 240
30 98
31 145
32 9
39 6
41 79
42 30
43 175
44 9
45 539
46 141
47 183
49 26
50 66
51 70
52 64
53 82
55 35
57 23
58 28
59 220
61 68
62 118
63 245
64 81
65 90
66 60
73 118
74 33
75 241
76 91
77 295
78 59
79 392
80 44
81 75
87 29
88 34
89 302
90 186
91 463
92 194
93 71
101 11
102 38
103 200
105 300
106 49
107 479
108 31
116 40
117 157
118 44
119 858
120 261
121 330
122 13
123 18
133 808
134 364
135 767
136 85
137 28
148 90
149 216
161 44
163 999
164 327
165 235
166 50
177 78
178 115
179 32

$$$$

     RDKit          2D

  9  8  0  0  0  0  0  0  0  0999 V2000
    0.9926    2.4721    0.0000 C   0  0  0  0  0  0  0  0  0  0  0  0
   -4.2035    2.4721    0.0000 C   0  0  0  0  0  0  0  0  0  0  0  0
   -4.0469    1.5836    0.0000 C   0  0  0  0  0  0  0  0  0  0  0  0
    0.8359    1.5836    0.0000 C   0  0  0  0  0  0  0  0  0  0  0  0
   -0.3064    3.2221    0.0000 O   0  0  0  0  0  0  0  0  0  0  0  0
   -2.9045    3.2221    0.0000 O   0  0  0  0  0  0  0  0  0  0  0  0
   -2.5697    1.3231    0.0000 O   0  0  0  0  0  0  0  0  0  0  0  0
   -0.6413    1.3231    0.0000 O   0  0  0  0  0  0  0  0  0  0  0  0
   -1.6055    2.4721    0.0000 Si  0  0  0  0  0  4  0  0  0  0  0  0
  5  1  1  0
  6  2  1  0
  7  3  1  0
  8  4  1  0
  9  5  1  0
  9  6  1  0
  9  7  1  0
  9  8  1  0
M  END
>  <NAME>  (1150) 
TETRAMETHOXYSILANE

>  <SYNONYMS>  (1150) 


>  <SPECTRUM TYPE>  (1150) 
MS1

>  <INSTRUMENT TYPE>  (1150) 
EI-B

>  <INSTRUMENT>  (1150) 
HITACHI M-80A

>  <ION MODE>  (1150) 
P

>  <INCHIKEY>  (1150) 
LFQCEHFDDXELDD-UHFFFAOYSA-N

>  <FORMULA>  (1150) 
C4H12O4Si

>  <EXACT MASS>  (1150) 
152.05048539400002

>  <MW>  (1150) 
152

>  <ID>  (1150) 
JP010346

>  <CONTRIBUTOR>  (1150) 
University of Tokyo Team, {Faculty of Engineering, University of Tokyo

>  <COMMENT>  (1150) 
SMILES=CO[Si](OC)(OC)OC
InChI=InChI=1S/C4H12O4Si/c1-5-9(6-2,7-3)8-4/h1-4H3
computed SMILES=O(C)[Si](OC)(OC)OC
accession=JP010346
date=2016.01.19 (Created 2008.10.21, modified 2011.05.06)
author=TAJIMA S, GUNMA COLLEGE OF TECHNOLOGY
license=CC BY-NC-SA
exact mass=152.05049
ionization energy=70 eV
ion type=[M]+*
computed spectral entropy=2.7811467350801906
computed normalized entropy=0.7886733973075296
SPLASH=splash10-0fkc-7900000000-d0c05066b8f1e0511f88
submitter=submitter = University of Tokyo Team (Faculty of Engineering, University of Tokyo)
MoNA Rating=3.75

>  <NUM PEAKS>  (1150) 
34

>  <MASS SPECTRAL PEAKS>  (1150) 
14 3.54
15 14.66
29 10.87
30 1.54
31 4.73
45 10.69
46 1.83
47 6.34
58 1.47
59 17.22
60 6.39
61 12.82
62 1.46
63 1.6
68 1.56
75 4.72
76 3.99
77 8.41
90 29.42
91 45.42
92 4.42
93 2.13
105 1.73
107 15.85
108 1.23
120 5.8
121 99.99
122 9.46
123 4.38
137 9.58
151 11.48
152 74.67
153 9.28
154 3.55

>  <PREDICTED SPECTRUM>  (1150) 
15 140
27 40
28 66
29 193
30 96
31 264
32 35
33 36
43 35
44 130
45 326
47 332
59 222
60 35
61 144
62 77
63 168
65 106
71 121
73 74
74 81
75 251
76 122
77 412
78 178
79 254
80 26
88 20
89 451
90 278
91 597
92 211
93 547
94 206
95 70
105 301
106 273
107 632
108 248
109 252
119 282
120 495
121 999
122 586
123 232
137 400
138 85
139 96
151 444
152 510
153 171
154 98

$$$$

     RDKit          2D

 13 12  0  0  0  0  0  0  0  0999 V2000
    3.0227    2.4827    0.0000 C   0  0  0  0  0  0  0  0  0  0  0  0
   -4.7716    2.4827    0.0000 C   0  0  0  0  0  0  0  0  0  0  0  0
    0.5409    6.9404    0.0000 C   0  0  0  0  0  0  0  0  0  0  0  0
   -4.2800    5.2704    0.0000 C   0  0  0  0  0  0  0  0  0  0  0  0
    1.7236    3.2327    0.0000 C   0  0  0  0  0  0  0  0  0  0  0  0
   -3.4725    3.2327    0.0000 C   0  0  0  0  0  0  0  0  0  0  0  0
   -0.4233    5.7913    0.0000 C   0  0  0  0  0  0  0  0  0  0  0  0
   -3.3158    4.1213    0.0000 C   0  0  0  0  0  0  0  0  0  0  0  0
    0.4246    2.4827    0.0000 O   0  0  0  0  0  0  0  0  0  0  0  0
   -2.1735    2.4827    0.0000 O   0  0  0  0  0  0  0  0  0  0  0  0
    0.0897    4.3818    0.0000 O   0  0  0  0  0  0  0  0  0  0  0  0
   -1.8386    4.3818    0.0000 O   0  0  0  0  0  0  0  0  0  0  0  0
   -0.8744    3.2327    0.0000 Si  0  0  0  0  0  4  0  0  0  0  0  0
  5  1  1  0
  6  2  1  0
  7  3  1  0
  8  4  1  0
  9  5  1  0
 10  6  1  0
 11  7  1  0
 12  8  1  0
 13  9  1  0
 13 10  1  0
 13 11  1  0
 13 12  1  0
M  END
>  <NAME>  (1151) 
TETRAETHOXYSILANE

>  <SYNONYMS>  (1151) 


>  <SPECTRUM TYPE>  (1151) 
MS1

>  <INSTRUMENT TYPE>  (1151) 
EI-B

>  <INSTRUMENT>  (1151) 
HITACHI M-80A

>  <ION MODE>  (1151) 
P

>  <INCHIKEY>  (1151) 
BOTDANWDWHJENH-UHFFFAOYSA-N

>  <FORMULA>  (1151) 
C8H20O4Si

>  <EXACT MASS>  (1151) 
208.11308565000002

>  <MW>  (1151) 
208

>  <ID>  (1151) 
JP010345

>  <CONTRIBUTOR>  (1151) 
University of Tokyo Team, {Faculty of Engineering, University of Tokyo

>  <COMMENT>  (1151) 
SMILES=CCO[Si](OCC)(OCC)OCC
InChI=InChI=1S/C8H20O4Si/c1-5-9-13(10-6-2,11-7-3)12-8-4/h5-8H2,1-4H3
computed SMILES=O(CC)[Si](OCC)(OCC)OCC
accession=JP010345
date=2016.01.19 (Created 2008.10.21, modified 2011.05.06)
author=TAJIMA S, GUNMA COLLEGE OF TECHNOLOGY
license=CC BY-NC-SA
exact mass=208.11309
ionization energy=70 eV
ion type=[M]+*
computed spectral entropy=3.3311235306797373
computed normalized entropy=0.8203842590642502
SPLASH=splash10-01r7-4900000000-39009b2853c85f871d6d
submitter=submitter = University of Tokyo Team (Faculty of Engineering, University of Tokyo)
MoNA Rating=3.75

>  <NUM PEAKS>  (1151) 
58

>  <MASS SPECTRAL PEAKS>  (1151) 
14 2.96
15 10.52
26 3.32
27 14.4
28 2.86
29 25.55
31 1.9
42 1.81
43 23.98
45 12.15
47 1.02
58 6.16
61 2.19
62 8.36
63 18.81
64 1.26
73 2.29
75 2.17
77 3.51
79 35.97
80 1.92
81 1.7
82 2.06
89 4.1
90 2.44
91 9.66
93 3.51
103 2.42
105 6.87
107 10.61
117 1.18
118 1.5
119 25.02
120 2.52
121 5.03
123 3.64
133 2.56
135 17.44
136 1.76
137 2.74
147 1.67
149 71.16
150 7.69
151 7.17
163 44.87
164 5.4
165 7.51
177 1.2
179 29.57
180 4.57
181 2.12
193 99.99
194 13.17
195 5
207 8.38
208 25.47
209 5.52
210 1.48

>  <PREDICTED SPECTRUM>  (1151) 
14 15
15 64
16 6
19 17
25 13
26 97
27 269
28 111
29 234
30 25
31 147
41 72
43 138
45 447
46 123
47 255
48 24
49 21
51 27
52 26
53 64
55 47
56 9
61 80
62 152
63 381
64 84
65 252
66 47
67 4
73 5
75 64
76 26
77 264
78 153
79 590
80 234
81 326
82 113
83 33
87 79
89 217
90 135
91 456
92 222
93 280
94 2
95 57
97 96
101 38
103 92
105 326
106 102
107 611
108 193
109 278
110 12
111 126
117 58
118 114
119 543
120 160
121 208
122 25
123 150
124 89
125 201
126 100
127 17
132 4
133 224
135 809
136 273
137 390
138 113
146 57
147 128
149 255
150 144
151 382
152 189
153 248
154 51
162 63
163 999
164 419
165 333
166 196
167 76
168 18
179 394
180 117
181 107
193 241
194 33
206 23
207 192
208 133
209 48

$$$$

     RDKit          2D

 17 18  0  0  0  0  0  0  0  0999 V2000
    3.8981    0.7504    0.0000 C   0  0  0  0  0  0  0  0  0  0  0  0
   -7.7948   -3.0010    0.0000 C   0  0  0  0  0  0  0  0  0  0  0  0
   -6.4952   -3.7517    0.0000 C   0  0  0  0  0  0  0  0  0  0  0  0
   -7.7956   -1.5002    0.0000 C   0  0  0  0  0  0  0  0  0  0  0  0
   -5.1963   -3.0015    0.0000 C   0  0  0  0  0  0  0  0  0  0  0  0
   -6.4966   -0.7500    0.0000 C   0  0  0  0  0  0  0  0  0  0  0  0
   -1.3000    0.7500    0.0000 C   0  0  0  0  0  0  0  0  0  0  0  0
    0.0000   -1.5000    0.0000 C   0  0  0  0  0  0  0  0  0  0  0  0
    0.0000    1.5000    0.0000 C   0  0  0  0  0  0  0  0  0  0  0  0
    1.3000   -0.7500    0.0000 C   0  0  0  0  0  0  0  0  0  0  0  0
   -5.1970   -1.5006    0.0000 C   0  0  0  0  0  0  0  0  0  0  0  0
   -1.3000   -0.7500    0.0000 C   0  0  0  0  0  0  0  0  0  0  0  0
    1.3000    0.7500    0.0000 C   0  0  0  0  0  0  0  0  0  0  0  0
   -3.8981   -0.7504    0.0000 C   0  0  0  0  0  0  0  0  0  0  0  0
   -2.5989   -1.5002    0.0000 N   0  0  0  0  0  0  0  0  0  0  0  0
   -3.8983    0.7496    0.0000 O   0  0  0  0  0  0  0  0  0  0  0  0
    2.5989    1.5002    0.0000 O   0  0  0  0  0  0  0  0  0  0  0  0
  3  2  2  0
  4  2  1  0
  5  3  1  0
  6  4  2  0
  9  7  2  0
 10  8  1  0
 11  5  2  0
 11  6  1  0
 12  7  1  0
 12  8  2  0
 13  9  1  0
 13 10  2  0
 14 11  1  0
 15 12  1  0
 15 14  1  0
 16 14  2  0
 17  1  1  0
 17 13  1  0
M  END
>  <NAME>  (1152) 
N-BENZOYL-PARA-ANISIDINE

>  <SYNONYMS>  (1152) 
4-METHOXY-N-BENZOYLANILINE

>  <SPECTRUM TYPE>  (1152) 
MS1

>  <INSTRUMENT TYPE>  (1152) 
EI-B

>  <INSTRUMENT>  (1152) 
HITACHI M-80A

>  <ION MODE>  (1152) 
P

>  <INCHIKEY>  (1152) 
KEEBHMMBUBEEOV-UHFFFAOYSA-N

>  <FORMULA>  (1152) 
C14H13NO2

>  <EXACT MASS>  (1152) 
227.094628656

>  <MW>  (1152) 
227

>  <ID>  (1152) 
JP010344

>  <CONTRIBUTOR>  (1152) 
University of Tokyo Team, {Faculty of Engineering, University of Tokyo

>  <COMMENT>  (1152) 
SMILES=COc(c2)ccc(c2)NC(=O)c(c1)cccc1
InChI=InChI=1S/C14H13NO2/c1-17-13-9-7-12(8-10-13)15-14(16)11-5-3-2-4-6-11/h2-10H,1H3,(H,15,16)
computed SMILES=O=C(NC1=CC=C(OC)C=C1)C=2C=CC=CC2
accession=JP010344
date=2016.01.19 (Created 2008.10.21, modified 2011.05.06)
author=TAJIMA S, GUNMA COLLEGE OF TECHNOLOGY
license=CC BY-NC-SA
exact mass=227.09463
ionization energy=70 eV
ion type=[M]+*
computed spectral entropy=2.050522524218391
computed normalized entropy=0.645213276325748
SPLASH=splash10-0a6r-6950000000-3c529ae2c5c42d7662c6
submitter=submitter = University of Tokyo Team (Faculty of Engineering, University of Tokyo)
MoNA Rating=3.75

>  <NUM PEAKS>  (1152) 
24

>  <MASS SPECTRAL PEAKS>  (1152) 
15 1.66
27 1.34
39 1.94
41 2.5
50 3.43
51 10.92
52 5.16
53 3.02
63 1.61
64 1.25
65 1.35
76 1.57
77 35.45
78 3.69
79 1.44
80 1.6
95 3.47
105 99.99
106 8.2
107 1.13
122 1.35
124 2.42
227 53.8
228 9.12

>  <PREDICTED SPECTRUM>  (1152) 
36 5
37 8
38 66
39 105
40 56
41 106
42 2
43 26
50 124
51 335
52 168
53 120
54 14
55 51
62 6
63 101
64 125
65 101
66 30
67 45
74 19
76 12
77 719
78 174
79 100
80 93
81 8
83 10
91 58
92 77
94 23
95 73
105 999
106 280
107 69
108 97
122 244
123 131
124 1
227 738
228 331
229 95

$$$$

     RDKit          2D

 11 12  0  0  0  0  0  0  0  0999 V2000
   -2.6000    0.7500    0.0000 C   0  0  0  0  0  0  0  0  0  0  0  0
    2.6000    0.7500    0.0000 C   0  0  0  0  0  0  0  0  0  0  0  0
   -1.3000    1.5000    0.0000 C   0  0  0  0  0  0  0  0  0  0  0  0
    1.3000    1.5000    0.0000 C   0  0  0  0  0  0  0  0  0  0  0  0
   -2.6000   -0.7500    0.0000 C   0  0  0  0  0  0  0  0  0  0  0  0
    2.6000   -0.7500    0.0000 C   0  0  0  0  0  0  0  0  0  0  0  0
   -0.0000    0.7500    0.0000 C   0  0  0  0  0  0  0  0  0  0  0  0
   -1.3000   -1.5000    0.0000 C   0  0  0  0  0  0  0  0  0  0  0  0
   -0.0000   -0.7500    0.0000 C   0  0  0  0  0  0  0  0  0  0  0  0
    1.3000   -1.5000    0.0000 N   0  0  0  0  0  0  0  0  0  0  0  0
   -1.3000   -3.0000    0.0000 O   0  0  0  0  0  0  0  0  0  0  0  0
  3  1  2  0
  4  2  1  0
  5  1  1  0
  6  2  2  0
  7  3  1  0
  7  4  2  0
  8  5  2  0
  9  7  1  0
  9  8  1  0
 10  6  1  0
 10  9  2  0
 11  8  1  0
M  END
>  <NAME>  (1153) 
8-HYDROXYQUINOLINE

>  <SYNONYMS>  (1153) 


>  <SPECTRUM TYPE>  (1153) 
MS1

>  <INSTRUMENT TYPE>  (1153) 
EI-B

>  <INSTRUMENT>  (1153) 
HITACHI M-80A

>  <ION MODE>  (1153) 
P

>  <INCHIKEY>  (1153) 
MCJGNVYPOGVAJF-UHFFFAOYSA-N

>  <FORMULA>  (1153) 
C9H7NO

>  <EXACT MASS>  (1153) 
145.052763844

>  <MW>  (1153) 
145

>  <ID>  (1153) 
JP010343

>  <CONTRIBUTOR>  (1153) 
University of Tokyo Team, {Faculty of Engineering, University of Tokyo

>  <COMMENT>  (1153) 
SMILES=Oc(c1)c(n2)c(ccc2)cc1
InChI=InChI=1S/C9H7NO/c11-8-5-1-3-7-4-2-6-10-9(7)8/h1-6,11H
computed SMILES=OC=1C=CC=C2C=CC=NC12
accession=JP010343
date=2016.01.19 (Created 2008.10.21, modified 2011.05.06)
author=TAJIMA S, GUNMA COLLEGE OF TECHNOLOGY
license=CC BY-NC-SA
exact mass=145.05276
ionization energy=70 eV
ion type=[M]+*
computed spectral entropy=2.815312817661698
computed normalized entropy=0.7631891615547335
SPLASH=splash10-00kb-8900000000-9f44d33e560065cf0670
submitter=submitter = University of Tokyo Team (Faculty of Engineering, University of Tokyo)
MoNA Rating=3.75

>  <NUM PEAKS>  (1153) 
40

>  <MASS SPECTRAL PEAKS>  (1153) 
26 4.24
27 3.93
28 5.58
29 2.51
37 4.42
38 8.12
39 15.63
40 2.09
41 1.58
49 1.61
50 7.21
51 7.39
52 4.26
53 2.47
57 1.08
58 8.34
61 3.78
62 9.12
63 20.33
64 7.46
65 2.45
66 1
72 1.19
74 2.53
75 2.67
77 1.67
78 2.31
86 1.53
87 2.39
88 2.77
89 22.97
90 21.53
91 3.23
115 1.2
116 9.01
117 69.41
118 6.49
144 1.44
145 99.99
146 12.1

>  <PREDICTED SPECTRUM>  (1153) 
25 1
26 21
27 8
28 55
36 16
37 125
38 191
39 240
40 114
41 143
42 14
43 0
44 116
45 9
49 65
50 242
51 260
52 235
53 108
54 15
56 16
57 36
58 6
61 127
62 261
63 346
64 210
65 156
66 120
67 51
70 28
71 34
72 38
73 71
74 138
75 191
76 175
77 118
78 41
79 30
84 14
85 4
86 38
87 58
88 131
89 373
90 371
91 150
98 27
99 53
100 52
101 40
104 15
114 32
115 32
116 357
117 580
118 275
119 37
128 12
144 215
145 999
146 351
147 98

$$$$

     RDKit          2D

 11 11  0  0  0  0  0  0  0  0999 V2000
   -3.2546   -0.3812    0.0000 C   0  0  0  0  0  0  0  0  0  0  0  0
    0.6471   -2.6191    0.0000 C   0  0  0  0  0  0  0  0  0  0  0  0
    1.9416   -1.8769    0.0000 C   0  0  0  0  0  0  0  0  0  0  0  0
   -0.6520   -1.8691    0.0000 C   0  0  0  0  0  0  0  0  0  0  0  0
    0.6430    0.3740    0.0000 C   0  0  0  0  0  0  0  0  0  0  0  0
    1.9421   -0.3760    0.0000 C   0  0  0  0  0  0  0  0  0  0  0  0
   -0.6565   -0.3769    0.0000 C   0  0  0  0  0  0  0  0  0  0  0  0
    3.2412    0.3737    0.0000 C   0  0  0  0  0  0  0  0  0  0  0  0
    3.2415    1.8737    0.0000 O   0  0  0  0  0  0  0  0  0  0  0  0
    4.5401   -0.3765    0.0000 O   0  0  0  0  0  0  0  0  0  0  0  0
   -1.9568    0.3709    0.0000 O   0  0  0  0  0  0  0  0  0  0  0  0
  3  2  2  0
  4  2  1  0
  6  3  1  0
  6  5  2  0
  7  4  2  0
  7  5  1  0
  8  6  1  0
  9  8  2  0
 10  8  1  0
 11  1  1  0
 11  7  1  0
M  END
>  <NAME>  (1154) 
META-METHOXYBENZOIC ACID

>  <SYNONYMS>  (1154) 
META-ANISIC ACID

>  <SPECTRUM TYPE>  (1154) 
MS1

>  <INSTRUMENT TYPE>  (1154) 
EI-B

>  <INSTRUMENT>  (1154) 
HITACHI M-80A

>  <ION MODE>  (1154) 
P

>  <INCHIKEY>  (1154) 
XHQZJYCNDZAGLW-UHFFFAOYSA-N

>  <FORMULA>  (1154) 
C8H8O3

>  <EXACT MASS>  (1154) 
152.04734411599998

>  <MW>  (1154) 
152

>  <ID>  (1154) 
JP010340

>  <CONTRIBUTOR>  (1154) 
University of Tokyo Team, {Faculty of Engineering, University of Tokyo

>  <COMMENT>  (1154) 
SMILES=COc(c1)cc(cc1)C(O)=O
InChI=InChI=1S/C8H8O3/c1-11-7-4-2-3-6(5-7)8(9)10/h2-5H,1H3,(H,9,10)
computed SMILES=O=C(O)C=1C=CC=C(OC)C1
accession=JP010340
date=2016.01.19 (Created 2008.10.21, modified 2011.05.06)
author=TAJIMA S, GUNMA COLLEGE OF TECHNOLOGY
license=CC BY-NC-SA
exact mass=152.04734
ionization energy=70 eV
ion type=[M]+*
computed spectral entropy=2.391114306194376
computed normalized entropy=0.6963084495688658
SPLASH=splash10-0udi-3900000000-7661c4fb763d3d32a93a
submitter=submitter = University of Tokyo Team (Faculty of Engineering, University of Tokyo)
MoNA Rating=3.75

>  <NUM PEAKS>  (1154) 
31

>  <MASS SPECTRAL PEAKS>  (1154) 
15 5.23
27 1.78
29 2.06
38 2.53
39 6.43
45 3.95
50 2.56
51 2.25
53 4.84
62 1.89
63 14.13
64 4.88
65 6.53
76 1
77 3.72
79 1.24
81 3.38
92 9.46
93 1.22
105 4.99
107 3.97
108 1.23
109 3.57
121 1.14
135 51.59
136 4.61
137 1.1
151 1.13
152 99.99
153 17.3
154 1.75

>  <PREDICTED SPECTRUM>  (1154) 
14 8
15 58
16 2
17 8
26 34
27 43
28 4
29 29
36 2
37 105
38 175
39 238
40 44
41 103
44 107
45 187
46 8
49 82
50 326
51 333
52 181
53 221
54 74
55 106
59 17
61 124
62 238
63 429
64 344
65 372
66 146
67 86
68 16
69 61
73 13
74 195
75 261
76 228
77 598
78 167
79 203
80 112
81 164
82 25
86 6
89 4
91 171
92 483
93 209
94 110
95 94
96 25
104 6
105 151
106 101
107 599
108 251
109 200
119 6
120 38
121 148
122 82
123 66
124 42
125 28
134 40
135 826
136 167
137 254
138 37
151 161
152 999
153 306
154 111

$$$$

     RDKit          2D

 10 10  0  0  0  0  0  0  0  0999 V2000
    3.2480   -0.3742    0.0000 C   0  0  0  0  0  0  0  0  0  0  0  0
    3.2475   -1.8751    0.0000 C   0  0  0  0  0  0  0  0  0  0  0  0
    1.9489    0.3758    0.0000 C   0  0  0  0  0  0  0  0  0  0  0  0
    1.9480   -2.6259    0.0000 C   0  0  0  0  0  0  0  0  0  0  0  0
    0.6494   -0.3751    0.0000 C   0  0  0  0  0  0  0  0  0  0  0  0
    0.6489   -1.8759    0.0000 C   0  0  0  0  0  0  0  0  0  0  0  0
   -0.6496    0.3749    0.0000 C   0  0  0  0  0  0  0  0  0  0  0  0
   -0.6502   -2.6257    0.0000 Br  0  0  0  0  0  0  0  0  0  0  0  0
   -1.9486   -0.3751    0.0000 O   0  0  0  0  0  0  0  0  0  0  0  0
   -0.6496    1.8749    0.0000 O   0  0  0  0  0  0  0  0  0  0  0  0
  2  1  2  0
  3  1  1  0
  4  2  1  0
  5  3  2  0
  6  4  2  0
  6  5  1  0
  7  5  1  0
  8  6  1  0
  9  7  2  0
 10  7  1  0
M  END
>  <NAME>  (1155) 
ORTHO-BROMOBENZOIC ACID

>  <SYNONYMS>  (1155) 
2-BROMOBENZOIC ACID

>  <SPECTRUM TYPE>  (1155) 
MS1

>  <INSTRUMENT TYPE>  (1155) 
EI-B

>  <INSTRUMENT>  (1155) 
HITACHI M-80A

>  <ION MODE>  (1155) 
P

>  <INCHIKEY>  (1155) 
XRXMNWGCKISMOH-UHFFFAOYSA-N

>  <FORMULA>  (1155) 
C7H5BrO2

>  <EXACT MASS>  (1155) 
199.9472915

>  <MW>  (1155) 
200

>  <ID>  (1155) 
JP010339

>  <CONTRIBUTOR>  (1155) 
University of Tokyo Team, {Faculty of Engineering, University of Tokyo

>  <COMMENT>  (1155) 
SMILES=OC(=O)c(c1)c(Br)ccc1
cas=88-65-3
InChI=InChI=1S/C7H5BrO2/c8-6-4-2-1-3-5(6)7(9)10/h1-4H,(H,9,10)
computed SMILES=O=C(O)C=1C=CC=CC1Br
accession=JP010339
date=2016.01.19 (Created 2008.10.21, modified 2011.05.06)
author=TAJIMA S, GUNMA COLLEGE OF TECHNOLOGY
license=CC BY-NC-SA
exact mass=199.94729
ionization energy=70 eV
ion type=[M]+*
computed spectral entropy=3.247164952555823
computed normalized entropy=0.8066785717207217
SPLASH=splash10-0udi-9430000000-7c515a6fcedea63a4731
submitter=submitter = University of Tokyo Team (Faculty of Engineering, University of Tokyo)
MoNA Rating=3.75

>  <NUM PEAKS>  (1155) 
56

>  <MASS SPECTRAL PEAKS>  (1155) 
25 1.45
26 4.93
27 5.16
29 3.67
36 2.09
37 16.23
38 21.72
39 25.83
44 3.09
45 27.71
48 1.24
49 11.3
50 77
51 29.21
52 2.49
53 6.06
60 1.49
61 3.88
62 3.53
63 7.02
64 5.79
65 31.83
66 2.95
73 9.13
74 36.87
75 47.75
76 52.6
77 26.94
78 3.08
79 5.64
80 2.13
81 5.49
82 2.07
92 5.14
93 3.63
104 2.27
121 2.37
128 1.03
129 1.42
130 1
131 1.53
139 1.53
155 26.36
156 3.7
157 25.56
158 2.41
172 2.17
174 2.03
183 78.68
184 6.39
185 76.47
186 5.91
200 99.99
201 8.63
202 97.26
203 8.29

>  <PREDICTED SPECTRUM>  (1155) 
14 3
16 33
17 34
18 36
25 18
26 36
27 33
28 8
29 20
31 55
32 5
34 0
36 95
37 157
38 242
39 277
40 67
41 45
44 106
45 335
46 112
47 17
48 66
49 163
50 695
51 398
52 96
53 171
57 88
60 24
62 19
63 284
64 102
65 285
66 82
67 3
68 23
69 168
73 163
74 533
75 662
76 772
77 444
78 147
79 124
80 90
81 169
82 72
85 90
91 91
92 320
93 211
103 57
104 247
105 251
106 40
121 413
122 84
131 119
137 30
154 158
155 540
156 117
157 549
158 98
172 72
174 9
182 8
183 889
184 248
185 999
186 179
187 46
200 726
201 270
202 693
203 215

$$$$

     RDKit          2D

 10 10  0  0  0  0  0  0  0  0999 V2000
    3.2480   -0.3742    0.0000 C   0  0  0  0  0  0  0  0  0  0  0  0
    3.2475   -1.8751    0.0000 C   0  0  0  0  0  0  0  0  0  0  0  0
    1.9489    0.3758    0.0000 C   0  0  0  0  0  0  0  0  0  0  0  0
    1.9480   -2.6259    0.0000 C   0  0  0  0  0  0  0  0  0  0  0  0
    0.6494   -0.3751    0.0000 C   0  0  0  0  0  0  0  0  0  0  0  0
    0.6489   -1.8759    0.0000 C   0  0  0  0  0  0  0  0  0  0  0  0
   -0.6496    0.3749    0.0000 C   0  0  0  0  0  0  0  0  0  0  0  0
   -0.6502   -2.6257    0.0000 I   0  0  0  0  0  0  0  0  0  0  0  0
   -1.9486   -0.3751    0.0000 O   0  0  0  0  0  0  0  0  0  0  0  0
   -0.6496    1.8749    0.0000 O   0  0  0  0  0  0  0  0  0  0  0  0
  2  1  2  0
  3  1  1  0
  4  2  1  0
  5  3  2  0
  6  4  2  0
  6  5  1  0
  7  5  1  0
  8  6  1  0
  9  7  2  0
 10  7  1  0
M  END
>  <NAME>  (1156) 
ORTHO-IODOBENZOIC ACID

>  <SYNONYMS>  (1156) 
2-IODOBENZOIC ACID

>  <SPECTRUM TYPE>  (1156) 
MS1

>  <INSTRUMENT TYPE>  (1156) 
EI-B

>  <INSTRUMENT>  (1156) 
HITACHI M-80A

>  <ION MODE>  (1156) 
P

>  <INCHIKEY>  (1156) 
CJNZAXGUTKBIHP-UHFFFAOYSA-N

>  <FORMULA>  (1156) 
C7H5IO2

>  <EXACT MASS>  (1156) 
247.9334274

>  <MW>  (1156) 
248

>  <ID>  (1156) 
JP010338

>  <CONTRIBUTOR>  (1156) 
University of Tokyo Team, {Faculty of Engineering, University of Tokyo

>  <COMMENT>  (1156) 
SMILES=OC(=O)c(c1)c(I)ccc1
cas=88-67-5
InChI=InChI=1S/C7H5IO2/c8-6-4-2-1-3-5(6)7(9)10/h1-4H,(H,9,10)
computed SMILES=O=C(O)C=1C=CC=CC1I
accession=JP010338
date=2016.01.19 (Created 2008.10.21, modified 2011.05.06)
author=TAJIMA S, GUNMA COLLEGE OF TECHNOLOGY
license=CC BY-NC-SA
exact mass=247.93342
ionization energy=70 eV
ion type=[M]+*
computed spectral entropy=2.5809997240293603
computed normalized entropy=0.7516043509592304
SPLASH=splash10-0002-7090000000-f67078fe9cfb77872338
submitter=submitter = University of Tokyo Team (Faculty of Engineering, University of Tokyo)
MoNA Rating=3.75

>  <NUM PEAKS>  (1156) 
31

>  <MASS SPECTRAL PEAKS>  (1156) 
27 1.36
28 2.4
37 2.37
38 2.58
39 12.99
45 4.32
49 2.06
50 18.62
51 8.69
53 2.41
63 2.59
64 1.76
65 32.14
66 2.13
73 1.68
74 7.47
75 7.2
76 15.86
77 4.86
78 1.1
92 2.81
93 4.42
104 1.99
121 5.85
127 5.93
138 1.66
203 5.36
231 49.44
232 3.84
248 99.99
249 10.31

>  <PREDICTED SPECTRUM>  (1156) 
17 13
18 23
25 37
26 45
27 43
28 44
29 40
31 13
36 74
37 217
38 246
39 314
40 128
41 17
42 43
43 9
44 89
45 258
49 167
50 656
51 430
52 170
53 198
54 0
57 32
61 164
62 238
63 338
64 57
65 282
66 138
67 11
68 12
69 0
73 159
74 536
75 600
76 786
77 488
78 110
85 36
91 132
92 267
93 156
94 53
103 55
104 258
105 188
119 84
120 67
121 210
127 382
128 19
203 331
204 90
231 390
232 102
233 16
247 22
248 999
249 260
250 102

$$$$

     RDKit          2D

 10 10  0  0  0  0  0  0  0  0999 V2000
   -1.3000    0.7500    0.0000 C   0  0  0  0  0  0  0  0  0  0  0  0
    0.0000    1.5000    0.0000 C   0  0  0  0  0  0  0  0  0  0  0  0
   -1.3000   -0.7500    0.0000 C   0  0  0  0  0  0  0  0  0  0  0  0
    1.3000   -0.7500    0.0000 C   0  0  0  0  0  0  0  0  0  0  0  0
    1.3000    0.7500    0.0000 C   0  0  0  0  0  0  0  0  0  0  0  0
    0.0000   -1.5000    0.0000 C   0  0  0  0  0  0  0  0  0  0  0  0
    2.5989    1.5002    0.0000 C   0  0  0  0  0  0  0  0  0  0  0  0
   -0.0000   -3.0000    0.0000 I   0  0  0  0  0  0  0  0  0  0  0  0
    3.8981    0.7504    0.0000 O   0  0  0  0  0  0  0  0  0  0  0  0
    2.5987    3.0002    0.0000 O   0  0  0  0  0  0  0  0  0  0  0  0
  2  1  2  0
  3  1  1  0
  5  2  1  0
  5  4  2  0
  6  3  2  0
  6  4  1  0
  7  5  1  0
  8  6  1  0
  9  7  2  0
 10  7  1  0
M  END
>  <NAME>  (1157) 
META-IODOBENZOIC ACID

>  <SYNONYMS>  (1157) 
3-IODOBENZOIC ACID

>  <SPECTRUM TYPE>  (1157) 
MS1

>  <INSTRUMENT TYPE>  (1157) 
EI-B

>  <INSTRUMENT>  (1157) 
HITACHI M-80A

>  <ION MODE>  (1157) 
P

>  <INCHIKEY>  (1157) 
KVBWBCRPWVKFQT-UHFFFAOYSA-N

>  <FORMULA>  (1157) 
C7H5IO2

>  <EXACT MASS>  (1157) 
247.9334274

>  <MW>  (1157) 
248

>  <ID>  (1157) 
JP010337

>  <CONTRIBUTOR>  (1157) 
University of Tokyo Team, {Faculty of Engineering, University of Tokyo

>  <COMMENT>  (1157) 
SMILES=OC(=O)c(c1)cc(I)cc1
InChI=InChI=1S/C7H5IO2/c8-6-3-1-2-5(4-6)7(9)10/h1-4H,(H,9,10)
computed SMILES=O=C(O)C=1C=CC=C(I)C1
accession=JP010337
date=2016.01.19 (Created 2008.10.21, modified 2011.05.06)
author=TAJIMA S, GUNMA COLLEGE OF TECHNOLOGY
license=CC BY-NC-SA
exact mass=247.93342
ionization energy=70 eV
ion type=[M]+*
computed spectral entropy=2.619097046646358
computed normalized entropy=0.7626985456514058
SPLASH=splash10-0002-9160000000-dd6a5dcb44a03db3959c
submitter=submitter = University of Tokyo Team (Faculty of Engineering, University of Tokyo)
MoNA Rating=3.75

>  <NUM PEAKS>  (1157) 
31

>  <MASS SPECTRAL PEAKS>  (1157) 
27 1.41
37 3.03
38 3.45
39 10.6
45 6.2
49 2.29
50 23.38
51 9.48
53 2.3
63 1.76
64 1.37
65 46.93
66 2.93
73 2.43
74 10.64
75 11.74
76 22.32
77 3.52
78 1.06
92 1.61
93 3.16
103 2.37
104 1.95
121 22.06
122 2.08
127 7.51
128 1.24
203 5
231 12.65
248 99.99
249 8.57

>  <PREDICTED SPECTRUM>  (1157) 
17 17
18 40
25 22
26 27
27 40
28 1
29 58
36 56
37 174
38 199
39 236
40 94
41 54
42 7
44 113
45 343
49 188
50 602
51 371
52 181
53 199
54 15
57 41
61 165
62 153
63 214
64 8
65 261
66 76
68 59
69 40
73 238
74 498
75 533
76 726
77 386
78 115
79 70
80 34
81 54
82 37
85 53
86 9
91 80
92 189
93 160
94 123
103 142
104 256
105 171
106 13
119 28
120 57
121 268
122 37
127 250
202 29
203 339
204 48
231 482
232 125
233 10
248 999
249 266
250 94

$$$$

     RDKit          2D

 10 10  0  0  0  0  0  0  0  0999 V2000
   -1.3000    0.7500    0.0000 C   0  0  0  0  0  0  0  0  0  0  0  0
    0.0000    1.5000    0.0000 C   0  0  0  0  0  0  0  0  0  0  0  0
   -1.3000   -0.7500    0.0000 C   0  0  0  0  0  0  0  0  0  0  0  0
    1.3000   -0.7500    0.0000 C   0  0  0  0  0  0  0  0  0  0  0  0
    1.3000    0.7500    0.0000 C   0  0  0  0  0  0  0  0  0  0  0  0
    0.0000   -1.5000    0.0000 C   0  0  0  0  0  0  0  0  0  0  0  0
    2.5989    1.5002    0.0000 C   0  0  0  0  0  0  0  0  0  0  0  0
   -0.0000   -3.0000    0.0000 Br  0  0  0  0  0  0  0  0  0  0  0  0
    3.8981    0.7504    0.0000 O   0  0  0  0  0  0  0  0  0  0  0  0
    2.5987    3.0002    0.0000 O   0  0  0  0  0  0  0  0  0  0  0  0
  2  1  2  0
  3  1  1  0
  5  2  1  0
  5  4  2  0
  6  3  2  0
  6  4  1  0
  7  5  1  0
  8  6  1  0
  9  7  2  0
 10  7  1  0
M  END
>  <NAME>  (1158) 
META-BROMOBENZOIC ACID

>  <SYNONYMS>  (1158) 


>  <SPECTRUM TYPE>  (1158) 
MS1

>  <INSTRUMENT TYPE>  (1158) 
EI-B

>  <INSTRUMENT>  (1158) 
HITACHI M-80A

>  <ION MODE>  (1158) 
P

>  <INCHIKEY>  (1158) 
VOIZNVUXCQLQHS-UHFFFAOYSA-N

>  <FORMULA>  (1158) 
C7H5BrO2

>  <EXACT MASS>  (1158) 
199.9472915

>  <MW>  (1158) 
200

>  <ID>  (1158) 
JP010336

>  <CONTRIBUTOR>  (1158) 
University of Tokyo Team, {Faculty of Engineering, University of Tokyo

>  <COMMENT>  (1158) 
SMILES=OC(=O)c(c1)cc(Br)cc1
InChI=InChI=1S/C7H5BrO2/c8-6-3-1-2-5(4-6)7(9)10/h1-4H,(H,9,10)
computed SMILES=O=C(O)C=1C=CC=C(Br)C1
accession=JP010336
date=2016.01.19 (Created 2008.10.21, modified 2011.05.06)
author=TAJIMA S, GUNMA COLLEGE OF TECHNOLOGY
license=CC BY-NC-SA
exact mass=199.94729
ionization energy=70 eV
ion type=[M]+*
computed spectral entropy=2.9723647394523502
computed normalized entropy=0.7598024692922387
SPLASH=splash10-0udi-8790000000-7bd36c2fa7f044095a6f
submitter=submitter = University of Tokyo Team (Faculty of Engineering, University of Tokyo)
MoNA Rating=3.75

>  <NUM PEAKS>  (1158) 
50

>  <MASS SPECTRAL PEAKS>  (1158) 
26 1.44
27 1.69
28 1.68
29 1.49
37 5.03
38 7.75
39 9.73
45 12.65
49 3.12
50 25.29
51 11.58
53 3.12
61 1.48
62 1.63
63 3.92
64 1.72
65 21.19
66 1.63
73 3.14
74 14.16
75 25.47
76 28.44
77 12.46
78 1.99
79 1.83
81 1.76
92 2.13
93 1.77
103 1.21
104 1.53
105 1.44
116 1.31
121 3.65
152 1.43
154 1.27
155 12.35
156 2.01
157 12.66
158 1.32
159 1.08
172 1.59
174 1.4
183 61.49
184 5.27
185 58.93
186 4.83
200 99.99
201 12.01
202 98.44
203 11.52

>  <PREDICTED SPECTRUM>  (1158) 
14 37
15 38
16 57
17 32
18 54
19 4
25 37
26 56
27 102
28 40
29 136
30 2
31 73
32 30
33 17
34 17
35 19
36 137
37 301
38 394
39 469
40 148
41 199
43 49
44 182
45 540
46 157
47 131
48 119
49 274
50 959
51 569
52 179
53 316
54 48
55 83
57 166
58 88
60 143
61 108
62 0
63 361
65 476
66 138
67 47
68 61
69 258
70 76
72 45
73 400
74 757
75 970
76 938
77 511
78 176
79 209
80 152
81 262
82 116
83 77
84 22
85 139
86 8
91 135
92 367
93 299
94 59
101 63
104 195
105 233
106 103
109 22
117 55
119 72
121 405
122 124
129 137
131 141
137 6
143 229
145 181
154 180
155 664
156 204
157 737
158 144
170 0
172 84
183 883
184 266
185 983
186 210
187 102
199 36
200 981
201 409
202 999
203 326
204 31

$$$$

     RDKit          2D

  6  5  0  0  0  0  0  0  0  0999 V2000
   -1.9486    3.3750    0.0000 C   0  0  0  0  0  0  0  0  0  0  0  0
   -0.6495    2.6250    0.0000 C   0  0  0  0  0  0  0  0  0  0  0  0
   -3.2476    2.6250    0.0000 C   0  0  0  0  0  0  0  0  0  0  0  0
    0.6495    3.3750    0.0000 C   0  0  0  0  0  0  0  0  0  0  0  0
   -4.5466    3.3750    0.0000 N   0  0  0  0  0  0  0  0  0  0  0  0
    1.9486    2.6250    0.0000 O   0  0  0  0  0  0  0  0  0  0  0  0
  2  1  1  0
  3  1  1  0
  4  2  1  0
  5  3  1  0
  6  4  1  0
M  END
>  <NAME>  (1159) 
4-AMINO-1-BUTANOL

>  <SYNONYMS>  (1159) 


>  <SPECTRUM TYPE>  (1159) 
MS1

>  <INSTRUMENT TYPE>  (1159) 
EI-B

>  <INSTRUMENT>  (1159) 
HITACHI M-80A

>  <ION MODE>  (1159) 
P

>  <INCHIKEY>  (1159) 
BLFRQYKZFKYQLO-UHFFFAOYSA-N

>  <FORMULA>  (1159) 
C4H11NO

>  <EXACT MASS>  (1159) 
89.08406397200001

>  <MW>  (1159) 
89

>  <ID>  (1159) 
JP010335

>  <CONTRIBUTOR>  (1159) 
University of Tokyo Team, {Faculty of Engineering, University of Tokyo

>  <COMMENT>  (1159) 
SMILES=NCCCCO
InChI=InChI=1S/C4H11NO/c5-3-1-2-4-6/h6H,1-5H2
computed SMILES=OCCCCN
accession=JP010335
date=2016.01.19 (Created 2008.10.21, modified 2011.05.06)
author=TAJIMA S, GUNMA COLLEGE OF TECHNOLOGY
license=CC BY-NC-SA
exact mass=89.08406
ionization energy=70 eV
ion type=[M]+*
computed spectral entropy=1.7896559656852788
computed normalized entropy=0.631670032699722
SPLASH=splash10-001i-9000000000-1124e12652002aa13c60
submitter=submitter = University of Tokyo Team (Faculty of Engineering, University of Tokyo)
MoNA Rating=3.75

>  <NUM PEAKS>  (1159) 
17

>  <MASS SPECTRAL PEAKS>  (1159) 
17 1.31
18 6.74
26 1.27
27 5.53
28 10.57
29 6.05
30 99.99
31 9.61
39 3.15
40 1.31
41 4.96
42 4.53
43 5.68
44 3.29
45 9.37
56 1.74
59 1

>  <PREDICTED SPECTRUM>  (1159) 
14 41
15 114
16 59
17 107
18 148
19 9
25 21
26 99
27 250
28 322
29 269
30 999
31 408
32 73
33 57
36 12
37 14
38 67
39 184
40 106
41 490
42 495
43 555
44 470
45 416
46 162
50 60
51 76
52 95
53 47
54 232
55 292
56 611
57 334
58 156
59 258
60 77
62 2
68 176
69 315
70 484
71 584
72 508
73 257
74 59
88 136
89 183
90 6
92 1

$$$$

     RDKit          2D

 10 10  0  0  0  0  0  0  0  0999 V2000
   -1.6200   -0.9400    0.0000 C   0  0  0  0  0  0  0  0  0  0  0  0
   -0.3300   -1.6900    0.0000 C   0  0  0  0  0  0  0  0  0  0  0  0
   -1.6200    0.5600    0.0000 C   0  0  0  0  0  0  0  0  0  0  0  0
    0.9700    0.5600    0.0000 C   0  0  0  0  0  0  0  0  0  0  0  0
    0.9700   -0.9400    0.0000 C   0  0  0  0  0  0  0  0  0  0  0  0
   -0.3300    1.3100    0.0000 C   0  0  0  0  0  0  0  0  0  0  0  0
    2.2689   -1.6902    0.0000 C   0  0  0  0  0  0  0  0  0  0  0  0
   -0.3325    2.8100    0.0000 O   0  0  0  0  0  0  0  0  0  0  0  0
    3.5681   -0.9404    0.0000 O   0  0  0  0  0  0  0  0  0  0  0  0
    2.2687   -3.1902    0.0000 O   0  0  0  0  0  0  0  0  0  0  0  0
  2  1  2  0
  3  1  1  0
  5  2  1  0
  5  4  2  0
  6  3  2  0
  6  4  1  0
  7  5  1  0
  8  6  1  0
  9  7  2  0
 10  7  1  0
M  END
>  <NAME>  (1160) 
META-HYDROXYBENZOIC ACID

>  <SYNONYMS>  (1160) 
3-HYDROXYBENZOIC ACID

>  <SPECTRUM TYPE>  (1160) 
MS1

>  <INSTRUMENT TYPE>  (1160) 
EI-B

>  <INSTRUMENT>  (1160) 
HITACHI M-80A

>  <ION MODE>  (1160) 
P

>  <INCHIKEY>  (1160) 
IJFXRHURBJZNAO-UHFFFAOYSA-N

>  <FORMULA>  (1160) 
C7H6O3

>  <EXACT MASS>  (1160) 
138.03169405199998

>  <MW>  (1160) 
138

>  <ID>  (1160) 
JP010334

>  <CONTRIBUTOR>  (1160) 
University of Tokyo Team, {Faculty of Engineering, University of Tokyo

>  <COMMENT>  (1160) 
SMILES=OC(=O)c(c1)cc(O)cc1
InChI=InChI=1S/C7H6O3/c8-6-3-1-2-5(4-6)7(9)10/h1-4,8H,(H,9,10)
computed SMILES=O=C(O)C=1C=CC=C(O)C1
accession=JP010334
date=2016.01.19 (Created 2008.10.21, modified 2011.05.06)
author=TAJIMA S, GUNMA COLLEGE OF TECHNOLOGY
license=CC BY-NC-SA
exact mass=138.03169
ionization energy=70 eV
ion type=[M]+*
computed spectral entropy=2.9605840217802957
computed normalized entropy=0.7732727396447164
SPLASH=splash10-000i-9500000000-d9aa814a2f50d1d836f5
submitter=submitter = University of Tokyo Team (Faculty of Engineering, University of Tokyo)
MoNA Rating=3.75

>  <NUM PEAKS>  (1160) 
46

>  <MASS SPECTRAL PEAKS>  (1160) 
25 1.04
26 3.48
27 5.85
29 8.11
31 1.86
37 8.12
38 16.65
39 44.51
40 4.13
41 1.15
42 1.59
43 1.26
45 16.52
46 2.25
49 2.1
50 7.31
51 4.52
52 1.35
53 14.22
54 1.64
55 6.52
60 1.42
61 6.18
62 10.96
63 22.79
64 10.09
65 41.27
66 7.95
67 1.13
69 1.19
73 1.1
74 3.57
75 2.04
77 1.09
81 5.1
82 1.3
92 6.97
93 39.6
94 3.29
95 1.04
110 3.08
120 1.95
121 80.52
122 6.3
138 99.99
139 9.03

>  <PREDICTED SPECTRUM>  (1160) 
14 8
16 17
17 49
18 26
25 19
26 109
27 236
28 96
29 215
36 59
37 261
38 386
39 674
40 220
41 257
42 15
43 58
44 94
45 359
46 72
49 117
50 431
51 360
52 101
53 443
54 119
55 177
56 5
61 104
62 320
63 536
64 339
65 745
66 327
67 85
68 37
69 27
71 0
73 24
74 180
75 142
76 139
81 313
82 145
83 6
92 449
93 613
94 302
95 42
109 77
110 166
111 8
120 22
121 997
122 300
123 2
137 242
138 999
139 357
140 36

$$$$

     RDKit          2D

 10 10  0  0  0  0  0  0  0  0999 V2000
   -1.3000   -0.7500    0.0000 C   0  0  0  0  0  0  0  0  0  0  0  0
    0.0000    1.5000    0.0000 C   0  0  0  0  0  0  0  0  0  0  0  0
    0.0000   -1.5000    0.0000 C   0  0  0  0  0  0  0  0  0  0  0  0
    1.3000    0.7500    0.0000 C   0  0  0  0  0  0  0  0  0  0  0  0
   -1.3000    0.7500    0.0000 C   0  0  0  0  0  0  0  0  0  0  0  0
    1.3000   -0.7500    0.0000 C   0  0  0  0  0  0  0  0  0  0  0  0
   -2.5989    1.5002    0.0000 C   0  0  0  0  0  0  0  0  0  0  0  0
    2.5989   -1.5002    0.0000 N   0  0  0  0  0  0  0  0  0  0  0  0
   -3.8981    0.7504    0.0000 O   0  0  0  0  0  0  0  0  0  0  0  0
   -2.5987    3.0002    0.0000 O   0  0  0  0  0  0  0  0  0  0  0  0
  3  1  2  0
  4  2  1  0
  5  1  1  0
  5  2  2  0
  6  3  1  0
  6  4  2  0
  7  5  1  0
  8  6  1  0
  9  7  1  0
 10  7  2  0
M  END
>  <NAME>  (1161) 
PARA-AMINOBENZOIC ACID

>  <SYNONYMS>  (1161) 
4-AMINOBENZOIC ACID

>  <SPECTRUM TYPE>  (1161) 
MS1

>  <INSTRUMENT TYPE>  (1161) 
EI-B

>  <INSTRUMENT>  (1161) 
HITACHI M-80A

>  <ION MODE>  (1161) 
P

>  <INCHIKEY>  (1161) 
ALYNCZNDIQEVRV-UHFFFAOYSA-N

>  <FORMULA>  (1161) 
C7H7NO2

>  <EXACT MASS>  (1161) 
137.047678464

>  <MW>  (1161) 
137

>  <ID>  (1161) 
JP010333

>  <CONTRIBUTOR>  (1161) 
University of Tokyo Team, {Faculty of Engineering, University of Tokyo

>  <COMMENT>  (1161) 
SMILES=Nc(c1)ccc(c1)C(O)=O
InChI=InChI=1S/C7H7NO2/c8-6-3-1-5(2-4-6)7(9)10/h1-4H,8H2,(H,9,10)
computed SMILES=O=C(O)C1=CC=C(N)C=C1
accession=JP010333
date=2016.01.19 (Created 2008.10.21, modified 2011.05.06)
author=TAJIMA S, GUNMA COLLEGE OF TECHNOLOGY
license=CC BY-NC-SA
exact mass=137.04768
ionization energy=70 eV
ion type=[M]+*
computed spectral entropy=2.8946128115664114
computed normalized entropy=0.7794685977739217
SPLASH=splash10-0079-9600000000-075c262f1e5d23ef097d
submitter=submitter = University of Tokyo Team (Faculty of Engineering, University of Tokyo)
MoNA Rating=3.75

>  <NUM PEAKS>  (1161) 
41

>  <MASS SPECTRAL PEAKS>  (1161) 
26 2.61
27 4.58
28 8.27
29 4.22
37 5.91
38 12.16
39 25.46
40 4.44
41 10.08
42 2.78
44 1.41
45 12.7
46 3.97
49 1.21
50 6.07
51 5.16
52 10.45
53 5.74
54 6.47
55 1.4
60 2.89
61 4.43
62 7.92
63 15.95
64 8.83
65 46.84
66 8.15
74 2.38
75 1.47
80 3.32
81 2.36
90 2.45
91 5.13
92 40.97
93 3.55
108 2.55
109 1.79
120 99.37
121 8.06
137 99.99
138 8.99

>  <PREDICTED SPECTRUM>  (1161) 
10 14
14 1
15 27
16 26
17 49
18 63
25 6
26 30
27 99
28 99
29 101
30 8
34 2
36 70
37 113
38 175
39 388
40 117
41 257
42 81
43 33
44 61
45 109
46 51
49 61
50 160
51 221
52 245
53 216
54 112
55 52
60 40
61 92
62 182
63 360
64 295
65 646
66 175
67 30
73 4
74 96
75 98
76 20
78 46
79 111
80 114
81 39
82 2
83 32
84 30
90 179
91 255
92 701
93 287
94 61
97 20
99 3
107 39
108 213
109 109
110 53
120 999
121 170
122 20
136 46
137 910
138 281
139 87
140 0

$$$$

     RDKit          2D

  3  2  0  0  0  0  0  0  0  0999 V2000
   -1.2990    0.0000    0.0000 C   0  0  0  0  0  0  0  0  0  0  0  0
   -0.0000    0.7500    0.0000 C   0  0  0  0  0  0  0  0  0  0  0  0
    0.0000    2.2500    0.0000 I   0  0  0  0  0  0  0  0  0  0  0  0
  2  1  1  0
  3  2  1  0
M  END
>  <NAME>  (1162) 
IODOETHANE

>  <SYNONYMS>  (1162) 
ETHYLIODIDE

>  <SPECTRUM TYPE>  (1162) 
MS1

>  <INSTRUMENT TYPE>  (1162) 
EI-B

>  <INSTRUMENT>  (1162) 
HITACHI M-80A

>  <ION MODE>  (1162) 
P

>  <INCHIKEY>  (1162) 
HVTICUPFWKNHNG-UHFFFAOYSA-N

>  <FORMULA>  (1162) 
C2H5I

>  <EXACT MASS>  (1162) 
155.94359816

>  <MW>  (1162) 
156

>  <ID>  (1162) 
JP010332

>  <CONTRIBUTOR>  (1162) 
University of Tokyo Team, {Faculty of Engineering, University of Tokyo

>  <COMMENT>  (1162) 
SMILES=CCI
cas=75-03-6
InChI=InChI=1S/C2H5I/c1-2-3/h2H2,1H3
computed SMILES=ICC
accession=JP010332
date=2016.01.19 (Created 2008.10.21, modified 2011.05.06)
author=TAJIMA S, GUNMA COLLEGE OF TECHNOLOGY
license=CC BY-NC-SA
exact mass=155.94359
ionization energy=70 eV
ion type=[M]+*
computed spectral entropy=1.7199485679942847
computed normalized entropy=0.7172742644373645
SPLASH=splash10-004i-9300000000-fbb61d7aa62ec90ef1cc
submitter=submitter = University of Tokyo Team (Faculty of Engineering, University of Tokyo)
MoNA Rating=3.75

>  <NUM PEAKS>  (1162) 
11

>  <MASS SPECTRAL PEAKS>  (1162) 
25 2.81
26 20.77
27 87.14
28 9.92
29 99.99
30 2.18
127 26.74
128 5.02
141 1.48
156 57.73
157 1.43

>  <PREDICTED SPECTRUM>  (1162) 
14 73
15 112
25 74
26 212
27 542
28 313
29 526
30 93
31 159
36 50
37 142
38 243
39 533
40 50
41 484
43 28
47 10
53 312
57 84
125 12
127 481
128 122
141 23
156 999
157 246
158 20

$$$$

     RDKit          2D

  3  2  0  0  0  0  0  0  0  0999 V2000
   -0.0000    0.7500    0.0000 C   0  0  0  0  0  0  0  0  0  0  0  0
   -1.2990    0.0000    0.0000 I   0  0  0  0  0  0  0  0  0  0  0  0
    0.0000    2.2500    0.0000 I   0  0  0  0  0  0  0  0  0  0  0  0
  2  1  1  0
  3  1  1  0
M  END
>  <NAME>  (1163) 
DI-IODOMETHANE

>  <SYNONYMS>  (1163) 


>  <SPECTRUM TYPE>  (1163) 
MS1

>  <INSTRUMENT TYPE>  (1163) 
EI-B

>  <INSTRUMENT>  (1163) 
HITACHI M-80A

>  <ION MODE>  (1163) 
P

>  <INCHIKEY>  (1163) 
NZZFYRREKKOMAT-UHFFFAOYSA-N

>  <FORMULA>  (1163) 
CH2I2

>  <EXACT MASS>  (1163) 
267.824596064

>  <MW>  (1163) 
268

>  <ID>  (1163) 
JP010331

>  <CONTRIBUTOR>  (1163) 
University of Tokyo Team, {Faculty of Engineering, University of Tokyo

>  <COMMENT>  (1163) 
SMILES=ICI
cas=75-11-6
InChI=InChI=1S/CH2I2/c2-1-3/h1H2
computed SMILES=ICI
accession=JP010331
date=2016.01.19 (Created 2008.10.21, modified 2011.05.06)
author=TAJIMA S, GUNMA COLLEGE OF TECHNOLOGY
license=CC BY-NC-SA
exact mass=267.82459
ionization energy=70 eV
ion type=[M]+*
computed spectral entropy=1.7463084858851838
computed normalized entropy=0.6448582397676433
SPLASH=splash10-016u-0950000000-1cbd89d091471c8636c3
submitter=submitter = University of Tokyo Team (Faculty of Engineering, University of Tokyo)
MoNA Rating=3.75

>  <NUM PEAKS>  (1163) 
15

>  <MASS SPECTRAL PEAKS>  (1163) 
12 2.14
13 4.77
14 9.03
127 69.27
128 2.58
134 1.38
139 8.91
140 8.98
141 89.56
142 1.08
254 14.97
266 1
267 1.64
268 99.99
269 1.14

>  <PREDICTED SPECTRUM>  (1163) 
14 82
15 61
16 3
18 2
25 34
26 14
27 223
28 20
29 122
31 124
36 21
37 49
38 170
40 63
41 169
44 29
47 26
51 139
53 65
75 14
101 31
113 49
114 8
127 586
128 90
140 72
141 999
142 213
254 335
268 509
269 28

$$$$

     RDKit          2D

  8  7  0  0  0  0  0  0  0  0999 V2000
   -2.4414    1.1009    0.0000 C   0  0  0  0  0  0  0  0  0  0  0  0
    1.1209    2.2500    0.0000 C   0  0  0  0  0  0  0  0  0  0  0  0
   -4.0753    2.2500    0.0000 C   0  0  0  0  0  0  0  0  0  0  0  0
    0.9642    1.3614    0.0000 C   0  0  0  0  0  0  0  0  0  0  0  0
   -1.4772    2.2500    0.0000 C   0  0  0  0  0  0  0  0  0  0  0  0
   -0.1782    3.0000    0.0000 O   0  0  0  0  0  0  0  0  0  0  0  0
   -2.7762    3.0000    0.0000 O   0  0  0  0  0  0  0  0  0  0  0  0
   -0.5130    1.1009    0.0000 O   0  0  0  0  0  0  0  0  0  0  0  0
  5  1  1  0
  6  2  1  0
  6  5  1  0
  7  3  1  0
  7  5  1  0
  8  4  1  0
  8  5  1  0
M  END
>  <NAME>  (1164) 
1,1,1-TRIMETHOXYETHANE

>  <SYNONYMS>  (1164) 


>  <SPECTRUM TYPE>  (1164) 
MS1

>  <INSTRUMENT TYPE>  (1164) 
EI-B

>  <INSTRUMENT>  (1164) 
HITACHI M-80

>  <ION MODE>  (1164) 
P

>  <INCHIKEY>  (1164) 
HDPNBNXLBDFELL-UHFFFAOYSA-N

>  <FORMULA>  (1164) 
C5H12O3

>  <EXACT MASS>  (1164) 
120.07864424399999

>  <MW>  (1164) 
120

>  <ID>  (1164) 
JP010330

>  <CONTRIBUTOR>  (1164) 
University of Tokyo Team, {Faculty of Engineering, University of Tokyo

>  <COMMENT>  (1164) 
SMILES=COC(C)(OC)OC
InChI=InChI=1S/C5H12O3/c1-5(6-2,7-3)8-4/h1-4H3
computed SMILES=O(C)C(OC)(OC)C
accession=JP010330
date=2016.01.19 (Created 2008.10.21, modified 2011.05.06)
author=TAJIMA S, GUNMA COLLEGE OF TECHNOLOGY
license=CC BY-NC-SA
exact mass=120.07864
ionization energy=70 eV
ion type=[M]+*
computed spectral entropy=2.345571332770004
computed normalized entropy=0.7704234016169486
SPLASH=splash10-000f-9000000000-b4d8d942c1e0fda9c212
submitter=submitter = University of Tokyo Team (Faculty of Engineering, University of Tokyo)
MoNA Rating=3.75

>  <NUM PEAKS>  (1164) 
21

>  <MASS SPECTRAL PEAKS>  (1164) 
14 4.46
15 24.48
26 1.39
27 6.52
28 4.71
29 15.82
30 2.08
31 11.47
32 6.43
42 14.87
43 99.99
44 2.51
45 6.39
47 7.15
57 6.1
58 3.36
59 2.77
88 16.92
89 44.19
90 2.04
105 7.24

>  <PREDICTED SPECTRUM>  (1164) 
14 48
15 240
18 21
25 20
26 36
27 146
28 53
29 311
30 119
31 291
32 127
33 147
38 14
39 279
40 158
41 408
42 387
43 706
44 143
45 782
46 17
47 351
53 36
54 12
55 305
57 118
58 195
59 242
60 79
67 22
73 384
74 124
75 685
89 999
90 139
91 25
105 529
106 76

$$$$

     RDKit          2D

 13 14  0  0  0  0  0  0  0  0999 V2000
    2.5986    1.0700    0.0000 C   0  0  0  0  0  0  0  0  0  0  0  0
   -5.1957    1.0700    0.0000 C   0  0  0  0  0  0  0  0  0  0  0  0
    1.2990    0.3192    0.0000 C   0  0  0  0  0  0  0  0  0  0  0  0
    2.5990    2.5708    0.0000 C   0  0  0  0  0  0  0  0  0  0  0  0
   -5.1962    2.5708    0.0000 C   0  0  0  0  0  0  0  0  0  0  0  0
   -3.8962    0.3192    0.0000 C   0  0  0  0  0  0  0  0  0  0  0  0
    0.0000    1.0692    0.0000 C   0  0  0  0  0  0  0  0  0  0  0  0
    1.3000    3.3208    0.0000 C   0  0  0  0  0  0  0  0  0  0  0  0
   -3.8971    3.3208    0.0000 C   0  0  0  0  0  0  0  0  0  0  0  0
   -2.5971    1.0692    0.0000 C   0  0  0  0  0  0  0  0  0  0  0  0
    0.0005    2.5700    0.0000 C   0  0  0  0  0  0  0  0  0  0  0  0
   -2.5976    2.5700    0.0000 C   0  0  0  0  0  0  0  0  0  0  0  0
   -1.2986    3.3200    0.0000 N   0  0  0  0  0  0  0  0  0  0  0  0
  3  1  2  0
  4  1  1  0
  5  2  2  0
  6  2  1  0
  7  3  1  0
  8  4  2  0
  9  5  1  0
 10  6  2  0
 11  7  2  0
 11  8  1  0
 12  9  2  0
 12 10  1  0
 13 11  1  0
 13 12  1  0
M  END
>  <NAME>  (1165) 
DIPHENYLAMINE

>  <SYNONYMS>  (1165) 


>  <SPECTRUM TYPE>  (1165) 
MS1

>  <INSTRUMENT TYPE>  (1165) 
EI-B

>  <INSTRUMENT>  (1165) 
HITACHI M-80A

>  <ION MODE>  (1165) 
P

>  <INCHIKEY>  (1165) 
DMBHHRLKUKUOEG-UHFFFAOYSA-N

>  <FORMULA>  (1165) 
C12H11N

>  <EXACT MASS>  (1165) 
169.089149352

>  <MW>  (1165) 
169

>  <ID>  (1165) 
JP010329

>  <CONTRIBUTOR>  (1165) 
University of Tokyo Team, {Faculty of Engineering, University of Tokyo

>  <COMMENT>  (1165) 
SMILES=c(c2)ccc(c2)Nc(c1)cccc1
InChI=InChI=1S/C12H11N/c1-3-7-11(8-4-1)13-12-9-5-2-6-10-12/h1-10,13H
computed SMILES=C=1C=CC(=CC1)NC=2C=CC=CC2
accession=JP010329
date=2016.01.19 (Created 2008.10.21, modified 2011.05.06)
author=TAJIMA S, GUNMA COLLEGE OF TECHNOLOGY
license=CC BY-NC-SA
exact mass=169.08915
ionization energy=70 eV
ion type=[M]+*
computed spectral entropy=3.1027092567349137
computed normalized entropy=0.7852487666462766
SPLASH=splash10-014i-8900000000-43ff93288efd91fa24fd
submitter=submitter = University of Tokyo Team (Faculty of Engineering, University of Tokyo)
MoNA Rating=3.75

>  <NUM PEAKS>  (1165) 
52

>  <MASS SPECTRAL PEAKS>  (1165) 
15 3.58
26 1.81
27 10.19
28 6.71
37 1.02
38 4.51
39 60.97
40 3.47
41 1.9
50 8.65
51 25
52 8.95
53 1.42
54 1.73
62 1.74
63 21.54
64 5.2
65 19.44
66 9.02
74 1.35
75 1.55
76 2.22
77 18.85
78 3.22
89 6.03
90 2.3
91 3.65
92 4.53
93 2.09
103 1.28
104 1.84
113 1.56
114 1.08
115 7.14
116 1.5
117 2.3
127 2.21
128 4.06
129 2.07
130 4.66
138 1.59
139 6.83
140 2
141 5.11
142 2.09
143 1.48
154 2.66
166 5.81
167 32.83
168 43.26
169 99.99
170 13.52

>  <PREDICTED SPECTRUM>  (1165) 
18 11
26 25
27 43
28 49
29 25
37 35
38 89
39 264
40 74
41 30
50 157
51 404
52 103
53 12
62 36
63 157
64 124
65 232
66 148
67 31
74 94
75 46
76 57
77 492
78 172
82 32
83 3
84 42
89 55
90 23
91 145
92 181
93 170
94 20
96 9
103 42
104 11
113 11
115 128
116 29
128 18
139 88
140 78
141 130
142 48
143 50
152 24
154 43
165 6
166 155
167 358
168 520
169 999
170 370
171 82

$$$$

     RDKit          2D

  9  9  0  0  0  0  0  0  0  0999 V2000
    2.2733   -0.6175    0.0000 C   0  0  0  0  0  0  0  0  0  0  0  0
    2.2738    0.8833    0.0000 C   0  0  0  0  0  0  0  0  0  0  0  0
    0.9738   -1.3683    0.0000 C   0  0  0  0  0  0  0  0  0  0  0  0
    0.9748    1.6333    0.0000 C   0  0  0  0  0  0  0  0  0  0  0  0
   -0.3252   -0.6183    0.0000 C   0  0  0  0  0  0  0  0  0  0  0  0
   -0.3248    0.8825    0.0000 C   0  0  0  0  0  0  0  0  0  0  0  0
   -1.6238    1.6325    0.0000 C   0  0  0  0  0  0  0  0  0  0  0  0
   -1.6238    3.1325    0.0000 O   0  0  0  0  0  0  0  0  0  0  0  0
   -2.9228    0.8825    0.0000 O   0  0  0  0  0  0  0  0  0  0  0  0
  2  1  1  0
  3  1  1  0
  4  2  1  0
  5  3  1  0
  6  4  1  0
  6  5  1  0
  7  6  1  0
  8  7  2  0
  9  7  1  0
M  END
>  <NAME>  (1166) 
CYCLOHEXANECARBOXYLIC ACID

>  <SYNONYMS>  (1166) 


>  <SPECTRUM TYPE>  (1166) 
MS1

>  <INSTRUMENT TYPE>  (1166) 
EI-B

>  <INSTRUMENT>  (1166) 
HITACHI M-80A

>  <ION MODE>  (1166) 
P

>  <INCHIKEY>  (1166) 
NZNMSOFKMUBTKW-UHFFFAOYSA-N

>  <FORMULA>  (1166) 
C7H12O2

>  <EXACT MASS>  (1166) 
128.083729624

>  <MW>  (1166) 
128

>  <ID>  (1166) 
JP010328

>  <CONTRIBUTOR>  (1166) 
University of Tokyo Team, {Faculty of Engineering, University of Tokyo

>  <COMMENT>  (1166) 
SMILES=OC(=O)C(C1)CCCC1
InChI=InChI=1S/C7H12O2/c8-7(9)6-4-2-1-3-5-6/h6H,1-5H2,(H,8,9)
computed SMILES=O=C(O)C1CCCCC1
accession=JP010328
date=2016.01.19 (Created 2008.10.21, modified 2011.05.06)
author=TAJIMA S, GUNMA COLLEGE OF TECHNOLOGY
license=CC BY-NC-SA
exact mass=128.08373
ionization energy=70 eV
ion type=[M]+*
computed spectral entropy=2.421853862523272
computed normalized entropy=0.734822128942134
SPLASH=splash10-03e9-9700000000-afedc669010cea1fff7a
submitter=submitter = University of Tokyo Team (Faculty of Engineering, University of Tokyo)
MoNA Rating=3.75

>  <NUM PEAKS>  (1166) 
27

>  <MASS SPECTRAL PEAKS>  (1166) 
27 3.89
29 2.45
39 18.32
40 1.02
41 8.71
42 1.05
43 1.41
45 1.83
53 4.13
54 5.55
55 10.32
56 3.49
67 3.45
68 8.39
69 4.32
73 3.59
81 11.83
82 4.23
83 63.22
84 4.19
110 8.26
111 99.99
112 7.63
127 1.82
128 6.81
129 13.84
130 1.19

>  <PREDICTED SPECTRUM>  (1166) 
17 10
18 23
26 74
27 308
28 139
29 229
31 33
37 2
38 52
39 379
40 164
41 708
42 345
43 323
44 82
45 466
46 189
47 109
48 53
49 46
50 138
51 224
52 135
53 343
54 451
55 948
56 441
57 322
58 176
59 235
60 410
61 162
62 68
63 111
64 42
65 163
66 178
67 660
68 530
69 347
70 435
71 212
72 98
73 682
74 311
75 135
77 230
78 114
79 240
80 232
81 547
82 629
83 999
84 462
85 238
86 264
87 367
88 32
91 16
92 127
93 171
94 161
95 210
96 101
97 37
98 172
99 361
100 305
101 107
109 169
110 613
111 612
112 195
113 277
114 89
126 78
127 179
128 700
129 286
130 62

$$$$

     RDKit          2D

 14 14  0  0  1  0  0  0  0  0999 V2000
   -1.6353    4.6878    0.0000 C   0  0  0  0  0  0  0  0  0  0  0  0
    4.8670    0.9406    0.0000 C   0  0  0  0  0  0  0  0  0  0  0  0
   -1.6200   -1.3100    0.0000 C   0  0  0  0  0  0  0  0  0  0  0  0
   -0.3300   -2.0600    0.0000 C   0  0  0  0  0  0  0  0  0  0  0  0
   -1.6200    0.1900    0.0000 C   0  0  0  0  0  0  0  0  0  0  0  0
    0.9700   -1.3100    0.0000 C   0  0  0  0  0  0  0  0  0  0  0  0
   -0.3300    0.9400    0.0000 C   0  0  0  0  0  0  0  0  0  0  0  0
    0.9700    0.1900    0.0000 C   0  0  0  0  0  0  0  0  0  0  0  0
   -0.3325    2.4400    0.0000 C   0  0  0  0  0  0  0  0  0  0  0  0
    2.2689    0.9402    0.0000 C   0  0  0  0  0  0  0  0  0  0  0  0
    0.9653    3.1922    0.0000 O   0  0  0  0  0  0  0  0  0  0  0  0
    2.2687    2.4402    0.0000 O   0  0  0  0  0  0  0  0  0  0  0  0
   -1.6328    3.1878    0.0000 O   0  0  0  0  0  0  0  0  0  0  0  0
    3.5681    0.1904    0.0000 O   0  0  0  0  0  0  0  0  0  0  0  0
  4  3  1  0
  5  3  1  0
  6  4  1  0
  7  5  1  0
  8  6  1  0
  8  7  1  0
  7  9  1  1
  8 10  1  6
 11  9  2  0
 12 10  2  0
 13  1  1  0
 13  9  1  0
 14  2  1  0
 14 10  1  0
M  END
>  <NAME>  (1167) 
TRANS-1,2-CYCLOHEXANEDICARBOXYLIC ACID DIMETHYL ESTER

>  <SYNONYMS>  (1167) 


>  <SPECTRUM TYPE>  (1167) 
MS1

>  <INSTRUMENT TYPE>  (1167) 
EI-B

>  <INSTRUMENT>  (1167) 
HITACHI M-80A

>  <ION MODE>  (1167) 
P

>  <INCHIKEY>  (1167) 
AIACXWOETVLBIA-HTQZYQBOSA-N

>  <FORMULA>  (1167) 
C10H16O4

>  <EXACT MASS>  (1167) 
200.104858992

>  <MW>  (1167) 
200

>  <ID>  (1167) 
JP010327

>  <CONTRIBUTOR>  (1167) 
University of Tokyo Team, {Faculty of Engineering, University of Tokyo

>  <COMMENT>  (1167) 
SMILES=COC(=O)C(C1)C(CCC1)C(=O)OC
InChI=InChI=1S/C10H16O4/c1-13-9(11)7-5-3-4-6-8(7)10(12)14-2/h7-8H,3-6H2,1-2H3/t7-,8-/m1/s1
computed SMILES=O=C(OC)C1CCCCC1C(=O)OC
accession=JP010327
date=2016.01.19 (Created 2008.10.21, modified 2011.05.06)
author=TAJIMA S, GUNMA COLLEGE OF TECHNOLOGY
license=CC BY-NC-SA
exact mass=200.10486
ionization energy=70 eV
ion type=[M]+*
computed spectral entropy=3.3616004496366
computed normalized entropy=0.8314513536794863
SPLASH=splash10-00lu-9300000000-c834a795dbe4a8159110
submitter=submitter = University of Tokyo Team (Faculty of Engineering, University of Tokyo)
MoNA Rating=3.75

>  <NUM PEAKS>  (1167) 
57

>  <MASS SPECTRAL PEAKS>  (1167) 
15 35.82
26 2.71
27 15.5
29 10.75
30 2.76
31 7.02
33 2.7
38 1.56
39 19.29
40 3.09
41 23.95
42 3.58
43 23.66
45 5.07
50 1.05
51 3.13
52 2.52
53 13.89
54 13.9
55 8.97
58 5.98
59 27.11
65 2.54
66 3.31
67 18.59
68 3.23
69 1.97
71 2.92
74 1.9
77 5.31
78 1.25
79 14.68
80 24.83
81 99.99
82 11.74
83 1.16
87 2.55
97 1.03
99 1.51
100 1.35
101 1.95
108 19.77
109 24.77
110 2.32
111 3
112 1.02
113 2.13
125 2.01
126 2.57
127 1.62
136 1.44
140 46.59
141 14.06
142 1.37
168 29.05
169 23.47
170 2.58

>  <PREDICTED SPECTRUM>  (1167) 
15 104
26 91
27 291
28 98
29 185
30 103
31 125
32 15
33 77
37 21
38 42
39 305
40 138
41 432
42 91
43 153
44 72
45 297
46 19
50 98
51 166
52 131
53 361
54 248
55 381
56 65
57 111
58 30
59 505
60 95
61 58
62 8
63 66
64 7
65 181
66 164
67 442
68 186
69 219
70 46
71 167
73 18
74 115
75 39
77 227
78 119
79 352
80 523
81 992
82 456
83 143
84 76
85 124
87 169
88 53
91 121
93 43
94 53
95 130
96 43
97 120
98 57
99 111
100 125
101 104
107 183
108 554
109 564
110 233
111 213
112 138
113 283
114 154
123 33
125 239
126 114
127 129
136 153
137 89
139 150
140 999
141 443
142 179
155 14
167 63
168 628
169 499
170 141
200 20

$$$$

     RDKit          2D

 11 11  0  0  0  0  0  0  0  0999 V2000
   -2.2733   -1.3675    0.0000 C   0  0  0  0  0  0  0  0  0  0  0  0
   -3.5724    0.8825    0.0000 C   0  0  0  0  0  0  0  0  0  0  0  0
    2.9228    3.1325    0.0000 C   0  0  0  0  0  0  0  0  0  0  0  0
    1.6233    3.8833    0.0000 C   0  0  0  0  0  0  0  0  0  0  0  0
    2.9233    1.6317    0.0000 C   0  0  0  0  0  0  0  0  0  0  0  0
    0.3243    3.1333    0.0000 C   0  0  0  0  0  0  0  0  0  0  0  0
    1.6243    0.8817    0.0000 C   0  0  0  0  0  0  0  0  0  0  0  0
    0.3248    1.6325    0.0000 C   0  0  0  0  0  0  0  0  0  0  0  0
   -0.9743    0.8825    0.0000 C   0  0  0  0  0  0  0  0  0  0  0  0
   -0.9743   -0.6175    0.0000 O   0  0  0  0  0  0  0  0  0  0  0  0
   -2.2733    1.6325    0.0000 O   0  0  0  0  0  0  0  0  0  0  0  0
  4  3  2  0
  5  3  1  0
  6  4  1  0
  7  5  2  0
  8  6  2  0
  8  7  1  0
  9  8  1  0
 10  1  1  0
 10  9  1  0
 11  2  1  0
 11  9  1  0
M  END
>  <NAME>  (1168) 
ALPHA,ALPHA-DIMETHOXYTOLUENE

>  <SYNONYMS>  (1168) 


>  <SPECTRUM TYPE>  (1168) 
MS1

>  <INSTRUMENT TYPE>  (1168) 
EI-B

>  <INSTRUMENT>  (1168) 
HITACHI M-80A

>  <ION MODE>  (1168) 
P

>  <INCHIKEY>  (1168) 
HEVMDQBCAHEHDY-UHFFFAOYSA-N

>  <FORMULA>  (1168) 
C9H12O2

>  <EXACT MASS>  (1168) 
152.083729624

>  <MW>  (1168) 
152

>  <ID>  (1168) 
JP010326

>  <CONTRIBUTOR>  (1168) 
University of Tokyo Team, {Faculty of Engineering, University of Tokyo

>  <COMMENT>  (1168) 
SMILES=COC(OC)c(c1)cccc1
InChI=InChI=1S/C9H12O2/c1-10-9(11-2)8-6-4-3-5-7-8/h3-7,9H,1-2H3
computed SMILES=O(C)C(OC)C=1C=CC=CC1
accession=JP010326
date=2016.01.19 (Created 2008.10.21, modified 2011.05.06)
author=TAJIMA S, GUNMA COLLEGE OF TECHNOLOGY
license=CC BY-NC-SA
exact mass=152.08373
ionization energy=70 eV
ion type=[M]+*
computed spectral entropy=2.427985161809144
computed normalized entropy=0.7138618813773738
SPLASH=splash10-00di-9800000000-d382827cc5fa8b6398b4
submitter=submitter = University of Tokyo Team (Faculty of Engineering, University of Tokyo)
MoNA Rating=3.75

>  <NUM PEAKS>  (1168) 
30

>  <MASS SPECTRAL PEAKS>  (1168) 
15 7.56
27 1.22
29 7.4
30 1.91
31 2.34
39 3.32
47 3.04
50 4.64
51 11.58
52 2.86
59 3.32
62 1.01
63 2.56
65 2.19
74 1.95
75 11.99
76 1.49
77 33.81
78 5.46
89 2.27
90 1.17
91 14.77
92 1.5
93 1.21
105 11.92
106 1.7
121 99.99
122 9.18
151 1.15
152 3.34

>  <PREDICTED SPECTRUM>  (1168) 
14 20
15 82
16 6
17 4
26 19
27 73
28 69
29 139
30 55
31 133
32 23
33 21
37 0
38 31
39 144
40 7
44 26
45 64
46 15
47 50
50 119
51 279
52 80
53 34
59 83
61 82
62 35
63 96
65 94
75 267
76 93
77 494
78 165
79 21
89 107
90 73
91 303
92 17
93 38
104 17
105 436
106 189
107 94
121 999
122 268
123 32
151 41
152 218
153 40

$$$$

     RDKit          2D

  9  9  0  0  0  0  0  0  0  0999 V2000
    2.2733   -0.6175    0.0000 C   0  0  0  0  0  0  0  0  0  0  0  0
    2.2738    0.8833    0.0000 C   0  0  0  0  0  0  0  0  0  0  0  0
    0.9738   -1.3683    0.0000 C   0  0  0  0  0  0  0  0  0  0  0  0
    0.9748    1.6333    0.0000 C   0  0  0  0  0  0  0  0  0  0  0  0
   -0.3252   -0.6183    0.0000 C   0  0  0  0  0  0  0  0  0  0  0  0
   -0.3248    0.8825    0.0000 C   0  0  0  0  0  0  0  0  0  0  0  0
   -1.6238    1.6325    0.0000 C   0  0  0  0  0  0  0  0  0  0  0  0
   -2.9228    0.8825    0.0000 Cl  0  0  0  0  0  0  0  0  0  0  0  0
   -1.6238    3.1325    0.0000 Cl  0  0  0  0  0  0  0  0  0  0  0  0
  2  1  2  0
  3  1  1  0
  4  2  1  0
  5  3  2  0
  6  4  2  0
  6  5  1  0
  7  6  1  0
  8  7  1  0
  9  7  1  0
M  END
>  <NAME>  (1169) 
ALPHA,ALPHA-DICHLOROTOLUENE

>  <SYNONYMS>  (1169) 


>  <SPECTRUM TYPE>  (1169) 
MS1

>  <INSTRUMENT TYPE>  (1169) 
EI-B

>  <INSTRUMENT>  (1169) 
HITACHI M-80A

>  <ION MODE>  (1169) 
P

>  <INCHIKEY>  (1169) 
CAHQGWAXKLQREW-UHFFFAOYSA-N

>  <FORMULA>  (1169) 
C7H6Cl2

>  <EXACT MASS>  (1169) 
159.984655552

>  <MW>  (1169) 
160

>  <ID>  (1169) 
JP010325

>  <CONTRIBUTOR>  (1169) 
University of Tokyo Team, {Faculty of Engineering, University of Tokyo

>  <COMMENT>  (1169) 
SMILES=c(c1)ccc(c1)C(Cl)Cl
InChI=InChI=1S/C7H6Cl2/c8-7(9)6-4-2-1-3-5-6/h1-5,7H
computed SMILES=ClC(Cl)C=1C=CC=CC1
accession=JP010325
date=2016.01.19 (Created 2008.10.21, modified 2011.05.06)
author=TAJIMA S, GUNMA COLLEGE OF TECHNOLOGY
license=CC BY-NC-SA
exact mass=159.98466
ion type=[M]+*
ionization energy=70 eV
computed spectral entropy=2.870786202275037
computed normalized entropy=0.7730525086652701
SPLASH=splash10-004i-8900000000-4e8eb144c326b40701da
submitter=submitter = University of Tokyo Team (Faculty of Engineering, University of Tokyo)
MoNA Rating=3.75

>  <NUM PEAKS>  (1169) 
41

>  <MASS SPECTRAL PEAKS>  (1169) 
26 3.27
27 2.93
35 2.76
37 3.37
38 6.04
39 12.14
40 1.18
43 1.3
44 2.04
45 2.53
49 1.81
50 9.09
51 8.3
52 1.38
61 4.25
62 11.24
63 19.98
64 3.65
65 3.65
73 4.26
74 1.58
75 2.33
77 1.07
85 1.3
86 2.17
87 1.8
89 22.86
90 6.29
91 11.28
97 1.49
99 6.18
101 1.84
125 99.99
126 10.1
127 31.61
128 3.35
159 1.01
160 10.84
161 1.47
162 7.16
164 1.14

>  <PREDICTED SPECTRUM>  (1169) 
14 10
25 5
26 35
27 33
28 55
32 27
35 74
36 108
37 105
38 151
39 197
40 53
41 5
44 66
45 11
48 43
49 87
50 288
51 333
52 151
55 47
56 90
57 89
58 122
60 95
61 176
62 246
63 344
64 170
65 66
72 25
73 254
74 203
75 189
76 111
77 43
78 26
80 17
82 72
83 98
84 41
85 134
86 150
87 144
88 99
89 441
90 209
91 181
92 44
96 23
97 69
98 11
99 110
123 21
124 23
125 999
126 353
127 726
128 287
129 100
135 11
160 495
161 130
162 408
163 133
164 167
165 39

$$$$

     RDKit          2D

  7  6  0  0  0  0  0  0  0  0999 V2000
    1.9486    3.3750    0.0000 C   0  0  0  0  0  0  0  0  0  0  0  0
    0.6495    4.1250    0.0000 C   0  0  0  0  0  0  0  0  0  0  0  0
   -3.2476    3.3750    0.0000 C   0  0  0  0  0  0  0  0  0  0  0  0
   -4.5466    4.1250    0.0000 C   0  0  0  0  0  0  0  0  0  0  0  0
   -1.9486    4.1250    0.0000 C   0  0  0  0  0  0  0  0  0  0  0  0
   -5.8457    3.3750    0.0000 N   0  0  0  0  0  0  0  0  0  0  0  0
   -0.6495    3.3750    0.0000 O   0  0  0  0  0  0  0  0  0  0  0  0
  2  1  1  0
  4  3  1  0
  5  3  1  0
  6  4  1  0
  7  2  1  0
  7  5  1  0
M  END
>  <NAME>  (1170) 
3-ETHOXYPROPYLAMINE

>  <SYNONYMS>  (1170) 


>  <SPECTRUM TYPE>  (1170) 
MS1

>  <INSTRUMENT TYPE>  (1170) 
EI-B

>  <INSTRUMENT>  (1170) 
HITACHI M-80A

>  <ION MODE>  (1170) 
P

>  <INCHIKEY>  (1170) 
SOYBEXQHNURCGE-UHFFFAOYSA-N

>  <FORMULA>  (1170) 
C5H13NO

>  <EXACT MASS>  (1170) 
103.099714036

>  <MW>  (1170) 
103

>  <ID>  (1170) 
JP010324

>  <CONTRIBUTOR>  (1170) 
University of Tokyo Team, {Faculty of Engineering, University of Tokyo

>  <COMMENT>  (1170) 
SMILES=NCCCOCC
InChI=InChI=1S/C5H13NO/c1-2-7-5-3-4-6/h2-6H2,1H3
computed SMILES=O(CC)CCCN
accession=JP010324
date=2016.01.19 (Created 2008.10.21, modified 2011.05.06)
author=TAJIMA S, GUNMA COLLEGE OF TECHNOLOGY
license=CC BY-NC-SA
exact mass=103.09971
ionization energy=70 eV
ion type=[M]+*
computed spectral entropy=2.3338612761719695
computed normalized entropy=0.7665771311960313
SPLASH=splash10-001i-9000000000-888e909d0362050378e3
submitter=submitter = University of Tokyo Team (Faculty of Engineering, University of Tokyo)
MoNA Rating=3.75

>  <NUM PEAKS>  (1170) 
21

>  <MASS SPECTRAL PEAKS>  (1170) 
15 3.34
18 4.11
26 2.6
27 12.84
28 6.17
29 11.74
30 99.99
31 10.78
39 2.01
41 4.34
42 5.06
43 4.32
44 5.58
45 6.05
47 1.22
56 18.85
57 14.06
58 6.42
59 4.11
74 12
86 8.91

>  <PREDICTED SPECTRUM>  (1170) 
14 34
15 139
16 32
17 58
18 111
19 29
25 11
26 109
27 317
28 344
29 459
30 899
31 525
32 44
33 19
38 55
39 197
40 118
41 354
42 333
43 278
44 376
45 530
46 226
47 49
52 57
53 9
54 118
55 66
56 306
57 308
58 337
59 999
60 199
61 77
62 43
70 63
71 13
72 280
74 219
76 8
84 83
85 131
86 145
87 102
88 16
102 92
103 167
104 53

$$$$

     RDKit          2D

 14 14  0  0  1  0  0  0  0  0999 V2000
   -1.6353    4.6878    0.0000 C   0  0  0  0  0  0  0  0  0  0  0  0
    4.8670    0.9406    0.0000 C   0  0  0  0  0  0  0  0  0  0  0  0
   -1.6200   -1.3100    0.0000 C   0  0  0  0  0  0  0  0  0  0  0  0
   -0.3300   -2.0600    0.0000 C   0  0  0  0  0  0  0  0  0  0  0  0
   -1.6200    0.1900    0.0000 C   0  0  0  0  0  0  0  0  0  0  0  0
    0.9700   -1.3100    0.0000 C   0  0  0  0  0  0  0  0  0  0  0  0
   -0.3300    0.9400    0.0000 C   0  0  0  0  0  0  0  0  0  0  0  0
    0.9700    0.1900    0.0000 C   0  0  0  0  0  0  0  0  0  0  0  0
   -0.3325    2.4400    0.0000 C   0  0  0  0  0  0  0  0  0  0  0  0
    2.2689    0.9402    0.0000 C   0  0  0  0  0  0  0  0  0  0  0  0
    0.9653    3.1922    0.0000 O   0  0  0  0  0  0  0  0  0  0  0  0
    2.2687    2.4402    0.0000 O   0  0  0  0  0  0  0  0  0  0  0  0
   -1.6328    3.1878    0.0000 O   0  0  0  0  0  0  0  0  0  0  0  0
    3.5681    0.1904    0.0000 O   0  0  0  0  0  0  0  0  0  0  0  0
  4  3  1  0
  5  3  1  0
  6  4  1  0
  7  5  1  0
  8  6  1  0
  8  7  1  0
  7  9  1  6
  8 10  1  6
 11  9  2  0
 12 10  2  0
 13  1  1  0
 13  9  1  0
 14  2  1  0
 14 10  1  0
M  END
>  <NAME>  (1171) 
CIS-CYCLOHEXANE-1,2-DICARBOXYLIC ACID DIMETHYL ESTER

>  <SYNONYMS>  (1171) 


>  <SPECTRUM TYPE>  (1171) 
MS1

>  <INSTRUMENT TYPE>  (1171) 
EI-B

>  <INSTRUMENT>  (1171) 
HITACHI M-80A

>  <ION MODE>  (1171) 
P

>  <INCHIKEY>  (1171) 
AIACXWOETVLBIA-OCAPTIKFSA-N

>  <FORMULA>  (1171) 
C10H16O4

>  <EXACT MASS>  (1171) 
200.104858992

>  <MW>  (1171) 
200

>  <ID>  (1171) 
JP010323

>  <CONTRIBUTOR>  (1171) 
University of Tokyo Team, {Faculty of Engineering, University of Tokyo

>  <COMMENT>  (1171) 
SMILES=COC(=O)C([H])(C1)C([H])(CCC1)C(=O)OC
InChI=InChI=1S/C10H16O4/c1-13-9(11)7-5-3-4-6-8(7)10(12)14-2/h7-8H,3-6H2,1-2H3/t7-,8+
computed SMILES=O=C(OC)C1CCCCC1C(=O)OC
accession=JP010323
date=2016.01.19 (Created 2008.10.21, modified 2011.05.06)
author=TAJIMA S, GUNMA COLLEGE OF TECHNOLOGY
license=CC BY-NC-SA
exact mass=200.10486
ionization energy=70 eV
ion type=[M]+*
computed spectral entropy=3.502532345740219
computed normalized entropy=0.8300808033704102
SPLASH=splash10-001l-9300000000-f924404da596d90971d6
submitter=submitter = University of Tokyo Team (Faculty of Engineering, University of Tokyo)
MoNA Rating=3.75

>  <NUM PEAKS>  (1171) 
68

>  <MASS SPECTRAL PEAKS>  (1171) 
15 42.13
26 3
27 20.16
29 12.6
30 3.58
31 8.35
33 2.5
38 1.37
39 26.65
40 4.06
41 31.33
42 3.08
43 11.81
45 5.72
50 1.85
51 5.51
52 3.52
53 20.15
54 17.79
55 13.2
56 1.26
57 1.08
58 2.08
59 33.59
60 1.01
61 1.15
65 3.8
66 6.49
67 24.76
68 4.99
69 4.03
71 3.39
74 3.46
77 8.51
78 1.81
79 20.64
80 42.5
81 99.99
82 11.79
83 1.44
85 1.95
87 4.83
94 1.17
95 1.2
97 1.68
98 1.53
99 2.02
100 4.14
101 3.19
107 1.47
108 33.06
109 16.86
110 1.66
111 6.33
112 2.1
113 5.45
114 2.11
125 3.52
126 3.95
127 1.5
136 1.83
139 1.09
140 56.92
141 8.34
142 1.01
168 19.82
169 19.38
170 2.09

>  <PREDICTED SPECTRUM>  (1171) 
15 104
26 91
27 291
28 98
29 185
30 103
31 125
32 15
33 77
37 21
38 42
39 305
40 138
41 432
42 91
43 153
44 72
45 297
46 19
50 98
51 166
52 131
53 361
54 248
55 381
56 65
57 111
58 30
59 505
60 95
61 58
62 8
63 66
64 7
65 181
66 164
67 442
68 186
69 219
70 46
71 167
73 18
74 115
75 39
77 227
78 119
79 352
80 523
81 992
82 456
83 143
84 76
85 124
87 169
88 53
91 121
93 43
94 53
95 130
96 43
97 120
98 57
99 111
100 125
101 104
107 183
108 554
109 564
110 233
111 213
112 138
113 283
114 154
123 33
125 239
126 114
127 129
136 153
137 89
139 150
140 999
141 443
142 179
155 14
167 63
168 628
169 499
170 141
200 20

$$$$

     RDKit          2D

  4  3  0  0  0  0  0  0  0  0999 V2000
   -2.5981    2.2500    0.0000 C   0  0  0  0  0  0  0  0  0  0  0  0
   -1.2990    1.5000    0.0000 C   0  0  0  0  0  0  0  0  0  0  0  0
    0.0000    2.2500    0.0000 C   0  0  0  0  0  0  0  0  0  0  0  0
    1.2990    1.5000    0.0000 N   0  0  0  0  0  0  0  0  0  0  0  0
  2  1  1  0
  3  2  1  0
  4  3  1  0
M  END
>  <NAME>  (1172) 
PROPYLAMINE

>  <SYNONYMS>  (1172) 


>  <SPECTRUM TYPE>  (1172) 
MS1

>  <INSTRUMENT TYPE>  (1172) 
EI-B

>  <INSTRUMENT>  (1172) 
HITACHI M-80A

>  <ION MODE>  (1172) 
P

>  <INCHIKEY>  (1172) 
WGYKZJWCGVVSQN-UHFFFAOYSA-N

>  <FORMULA>  (1172) 
C3H9N

>  <EXACT MASS>  (1172) 
59.073499287999994

>  <MW>  (1172) 
59

>  <ID>  (1172) 
JP010322

>  <CONTRIBUTOR>  (1172) 
University of Tokyo Team, {Faculty of Engineering, University of Tokyo

>  <COMMENT>  (1172) 
SMILES=CCCN
InChI=InChI=1S/C3H9N/c1-2-3-4/h2-4H2,1H3
computed SMILES=NCCC
accession=JP010322
date=2016.01.19 (Created 2008.10.21, modified 2011.05.06)
author=TAJIMA S, GUNMA COLLEGE OF TECHNOLOGY
license=CC BY-NC-SA
exact mass=59.0735
ionization energy=70 eV
ion type=[M]+*
computed spectral entropy=1.581151517854879
computed normalized entropy=0.5580771109849417
SPLASH=splash10-001i-9000000000-bb0aa95bee8cd8b30da7
submitter=submitter = University of Tokyo Team (Faculty of Engineering, University of Tokyo)
MoNA Rating=3.75

>  <NUM PEAKS>  (1172) 
17

>  <MASS SPECTRAL PEAKS>  (1172) 
15 2.27
18 2.96
26 2.22
27 6.01
28 5.95
29 2.49
30 99.99
31 1.61
39 2.79
41 5.75
42 3.64
43 2.75
44 1.35
56 1.3
58 2.73
59 11.8
60 1.27

>  <PREDICTED SPECTRUM>  (1172) 
14 43
15 116
16 43
17 50
18 87
25 1
26 103
27 337
28 351
29 377
30 999
31 273
32 2
38 97
39 249
40 189
41 384
42 333
43 307
44 124
45 51
53 71
54 64
56 17
58 150
59 277
60 51

$$$$

     RDKit          2D

  5  5  0  0  0  0  0  0  0  0999 V2000
   -1.0200   -0.7500    0.0000 C   0  0  0  0  0  0  0  0  0  0  0  0
   -1.0200    0.7500    0.0000 C   0  0  0  0  0  0  0  0  0  0  0  0
    1.7800   -0.0000    0.0000 C   0  0  0  0  0  0  0  0  0  0  0  0
    0.2800    0.0000    0.0000 C   0  0  0  0  0  0  0  0  0  0  0  0
    2.5300    1.2990    0.0000 O   0  0  0  0  0  0  0  0  0  0  0  0
  2  1  1  0
  4  1  1  0
  4  2  1  0
  4  3  1  0
  5  3  1  0
M  END
>  <NAME>  (1173) 
CYCLOPROPYLMETHANOL

>  <SYNONYMS>  (1173) 
HYDROXYMETHYLCYCROPROPANE

>  <SPECTRUM TYPE>  (1173) 
MS1

>  <INSTRUMENT TYPE>  (1173) 
EI-B

>  <INSTRUMENT>  (1173) 
HITACHI M-80A

>  <ION MODE>  (1173) 
P

>  <INCHIKEY>  (1173) 
GUDMZGLFZNLYEY-UHFFFAOYSA-N

>  <FORMULA>  (1173) 
C4H8O

>  <EXACT MASS>  (1173) 
72.057514876

>  <MW>  (1173) 
72

>  <ID>  (1173) 
JP010321

>  <CONTRIBUTOR>  (1173) 
University of Tokyo Team, {Faculty of Engineering, University of Tokyo

>  <COMMENT>  (1173) 
SMILES=OCC(C1)C1
InChI=InChI=1S/C4H8O/c5-3-4-1-2-4/h4-5H,1-3H2
computed SMILES=OCC1CC1
accession=JP010321
date=2016.01.19 (Created 2008.10.21, modified 2011.05.06)
author=TAJIMA S, GUNMA COLLEGE OF TECHNOLOGY
license=CC BY-NC-SA
exact mass=72.05751
ionization energy=70 eV
ion type=[M]+*
computed spectral entropy=2.4507155314148865
computed normalized entropy=0.7711371997580584
SPLASH=splash10-0006-9000000000-ae27f7d9eb69761a942b
submitter=submitter = University of Tokyo Team (Faculty of Engineering, University of Tokyo)
MoNA Rating=3.75

>  <NUM PEAKS>  (1173) 
24

>  <MASS SPECTRAL PEAKS>  (1173) 
14 1.58
15 4
26 5.77
27 21.21
29 12.77
31 24.39
37 2.62
38 5.08
39 26.95
40 3.77
41 14.13
42 12.23
43 29.43
44 99.99
45 3.26
50 1.93
51 1.95
53 4.23
54 3.07
55 17.26
56 1.53
57 4.94
67 1.67
71 1.86

>  <PREDICTED SPECTRUM>  (1173) 
14 98
15 193
16 46
18 1
19 116
25 36
26 263
27 658
28 400
29 645
30 179
31 945
32 47
33 62
35 22
36 81
37 156
38 293
39 911
40 357
41 999
42 651
43 431
44 208
50 109
51 195
52 100
53 464
54 471
55 509
57 445
63 86
72 13

$$$$

     RDKit          2D

  7  6  0  0  0  0  0  0  0  0999 V2000
    1.6238    1.6875    0.0000 C   0  0  0  0  0  0  0  0  0  0  0  0
    0.3248    3.9375    0.0000 C   0  0  0  0  0  0  0  0  0  0  0  0
   -3.5724    1.6875    0.0000 C   0  0  0  0  0  0  0  0  0  0  0  0
   -2.2733    3.9375    0.0000 C   0  0  0  0  0  0  0  0  0  0  0  0
   -0.9743    1.6875    0.0000 N   0  0  0  0  0  0  0  0  0  0  0  0
    0.3248    2.4375    0.0000 Si  0  0  0  0  0  4  0  0  0  0  0  0
   -2.2733    2.4375    0.0000 Si  0  0  0  0  0  4  0  0  0  0  0  0
  6  1  1  0
  6  2  1  0
  6  5  1  0
  7  3  1  0
  7  4  1  0
  7  5  1  0
M  END
>  <NAME>  (1174) 
1,1,3,3-TETRAMETHYLDISILAZANE

>  <SYNONYMS>  (1174) 


>  <SPECTRUM TYPE>  (1174) 
MS1

>  <INSTRUMENT TYPE>  (1174) 
EI-B

>  <INSTRUMENT>  (1174) 
HITACHI M-80A

>  <ION MODE>  (1174) 
P

>  <INCHIKEY>  (1174) 
NQCZAYQXPJEPDS-UHFFFAOYSA-N

>  <FORMULA>  (1174) 
C4H15NSi2

>  <EXACT MASS>  (1174) 
133.07430254

>  <MW>  (1174) 
133

>  <ID>  (1174) 
JP010320

>  <CONTRIBUTOR>  (1174) 
University of Tokyo Team, {Faculty of Engineering, University of Tokyo

>  <COMMENT>  (1174) 
SMILES=C[SiH](C)N[SiH](C)C
InChI=InChI=1S/C4H15NSi2/c1-6(2)5-7(3)4/h5-7H,1-4H3
computed SMILES=N([SiH](C)C)[SiH](C)C
accession=JP010320
date=2016.01.19 (Created 2008.10.21, modified 2011.05.06)
author=TAJIMA S, GUNMA COLLEGE OF TECHNOLOGY
license=CC BY-NC-SA
exact mass=133.0743
ionization energy=70 eV
ion type=[M]+*
computed spectral entropy=3.0575911843426273
computed normalized entropy=0.7986099683157767
SPLASH=splash10-014i-5900000000-bd788936de8598a3845b
submitter=submitter = University of Tokyo Team (Faculty of Engineering, University of Tokyo)
MoNA Rating=3.75

>  <NUM PEAKS>  (1174) 
46

>  <MASS SPECTRAL PEAKS>  (1174) 
15 25.11
26 1.97
27 5.92
29 4.3
31 2.8
42 2.29
43 16.43
44 3.18
45 7.56
46 1.08
51 1.17
52 1.23
56 1.79
57 1.78
58 5.65
59 15.3
60 2.65
61 1.75
70 6.58
71 1.64
72 4.43
73 14.58
74 4.41
75 2.53
85 1.35
86 6.42
87 1.52
88 1.7
89 1.06
100 7.09
101 1.21
102 12.76
103 2.53
104 1.49
116 27.87
117 5.32
118 99.99
119 22
120 8.74
121 1.68
130 6.93
131 3.1
132 30.46
133 19.66
134 5.13
135 1.67

>  <PREDICTED SPECTRUM>  (1174) 
15 4
26 2
27 28
28 105
29 102
30 65
31 164
41 91
42 127
43 639
44 441
45 600
46 127
55 20
56 101
57 93
58 507
59 999
60 369
61 180
70 81
71 154
72 533
73 840
74 986
75 332
76 88
78 31
86 93
87 282
88 362
89 140
90 227
91 2
100 108
102 159
104 67
115 3
116 118
117 28
118 387
119 150
120 87
131 176
132 307
133 374
134 144
135 17

$$$$

     RDKit          2D

 12 12  0  0  1  0  0  0  0  0999 V2000
   -1.6200   -1.3100    0.0000 C   0  0  0  0  0  0  0  0  0  0  0  0
   -0.3300   -2.0600    0.0000 C   0  0  0  0  0  0  0  0  0  0  0  0
   -1.6200    0.1900    0.0000 C   0  0  0  0  0  0  0  0  0  0  0  0
    0.9700   -1.3100    0.0000 C   0  0  0  0  0  0  0  0  0  0  0  0
   -0.3300    0.9400    0.0000 C   0  0  0  0  0  0  0  0  0  0  0  0
    0.9700    0.1900    0.0000 C   0  0  0  0  0  0  0  0  0  0  0  0
   -0.3325    2.4400    0.0000 C   0  0  0  0  0  0  0  0  0  0  0  0
    2.2689    0.9402    0.0000 C   0  0  0  0  0  0  0  0  0  0  0  0
    0.9653    3.1922    0.0000 O   0  0  0  0  0  0  0  0  0  0  0  0
   -1.6328    3.1878    0.0000 O   0  0  0  0  0  0  0  0  0  0  0  0
    2.2687    2.4402    0.0000 O   0  0  0  0  0  0  0  0  0  0  0  0
    3.5681    0.1904    0.0000 O   0  0  0  0  0  0  0  0  0  0  0  0
  2  1  1  0
  3  1  1  0
  4  2  1  0
  5  3  1  0
  6  4  1  0
  6  5  1  0
  5  7  1  1
  6  8  1  6
  9  7  2  0
 10  7  1  0
 11  8  2  0
 12  8  1  0
M  END
>  <NAME>  (1175) 
TRANS-1,2-CYCLOHEXANEDICARBOXYLIC ACID

>  <SYNONYMS>  (1175) 


>  <SPECTRUM TYPE>  (1175) 
MS1

>  <INSTRUMENT TYPE>  (1175) 
EI-B

>  <INSTRUMENT>  (1175) 
HITACHI M-80A

>  <ION MODE>  (1175) 
P

>  <INCHIKEY>  (1175) 
QSAWQNUELGIYBC-PHDIDXHHSA-N

>  <FORMULA>  (1175) 
C8H12O4

>  <EXACT MASS>  (1175) 
172.073558864

>  <MW>  (1175) 
172

>  <ID>  (1175) 
JP010319

>  <CONTRIBUTOR>  (1175) 
University of Tokyo Team, {Faculty of Engineering, University of Tokyo

>  <COMMENT>  (1175) 
SMILES=OC(=O)C(C1)C(CCC1)C(O)=O
InChI=InChI=1S/C8H12O4/c9-7(10)5-3-1-2-4-6(5)8(11)12/h5-6H,1-4H2,(H,9,10)(H,11,12)/t5-,6-/m1/s1
computed SMILES=O=C(O)C1CCCCC1C(=O)O
accession=JP010319
date=2016.01.19 (Created 2008.10.21, modified 2011.05.06)
author=TAJIMA S, GUNMA COLLEGE OF TECHNOLOGY
license=CC BY-NC-SA
exact mass=172.07356
ionization energy=70 eV
ion type=[M]+*
computed spectral entropy=3.6370351443978772
computed normalized entropy=0.8504370093858672
SPLASH=splash10-003r-9200000000-c7896441aad00aa1ad06
submitter=submitter = University of Tokyo Team (Faculty of Engineering, University of Tokyo)
MoNA Rating=3.75

>  <NUM PEAKS>  (1175) 
72

>  <MASS SPECTRAL PEAKS>  (1175) 
15 2.92
17 1.1
18 4.74
19 1.09
26 4.15
27 33.49
29 14.93
31 5.54
38 2.53
39 38.98
40 5.91
41 46.1
42 4.96
43 21.7
44 1.33
45 35.49
46 1.26
47 2.19
50 3.1
51 7.38
52 4.39
53 20.73
54 27.39
55 21.55
56 10.01
57 5.05
58 1.09
59 1.12
60 7.91
61 4.32
63 1.2
65 3.84
66 7.52
67 43.54
68 17.8
69 7.96
70 1.56
71 2.41
73 19.33
74 1.68
77 7.52
78 1.63
79 17.38
80 23.96
81 99.99
82 32
83 6.99
84 1.34
85 2.6
86 5.42
87 4.12
94 1.24
95 2.49
97 5.78
98 1.5
99 19.19
100 3.37
108 19.96
109 9.34
110 4.38
111 3.2
112 2.6
113 1.54
123 1.54
126 36.41
127 7.58
128 44.82
129 3.47
136 1.86
154 9.04
155 8.55
173 1.12

>  <PREDICTED SPECTRUM>  (1175) 
17 3
18 18
26 95
27 289
28 47
29 244
30 5
31 53
37 37
38 58
39 365
40 155
41 481
42 206
43 237
44 172
45 260
46 40
47 71
50 86
51 153
52 122
53 380
54 555
55 462
56 221
57 261
58 59
59 13
60 144
61 35
62 41
63 60
65 220
66 257
67 778
68 408
69 206
70 230
71 142
72 44
73 382
74 107
77 208
78 112
79 452
80 538
81 999
82 677
83 274
84 105
85 139
86 164
87 108
95 56
97 272
98 200
99 348
100 208
101 117
108 541
109 314
110 225
111 112
112 94
113 125
114 106
125 36
126 642
127 283
128 317
129 86
136 57
154 376
155 180

$$$$

     RDKit          2D

 12 12  0  0  1  0  0  0  0  0999 V2000
   -1.6200   -1.3100    0.0000 C   0  0  0  0  0  0  0  0  0  0  0  0
   -0.3300   -2.0600    0.0000 C   0  0  0  0  0  0  0  0  0  0  0  0
   -1.6200    0.1900    0.0000 C   0  0  0  0  0  0  0  0  0  0  0  0
    0.9700   -1.3100    0.0000 C   0  0  0  0  0  0  0  0  0  0  0  0
   -0.3300    0.9400    0.0000 C   0  0  0  0  0  0  0  0  0  0  0  0
    0.9700    0.1900    0.0000 C   0  0  0  0  0  0  0  0  0  0  0  0
   -0.3325    2.4400    0.0000 C   0  0  0  0  0  0  0  0  0  0  0  0
    2.2689    0.9402    0.0000 C   0  0  0  0  0  0  0  0  0  0  0  0
    0.9653    3.1922    0.0000 O   0  0  0  0  0  0  0  0  0  0  0  0
   -1.6328    3.1878    0.0000 O   0  0  0  0  0  0  0  0  0  0  0  0
    2.2687    2.4402    0.0000 O   0  0  0  0  0  0  0  0  0  0  0  0
    3.5681    0.1904    0.0000 O   0  0  0  0  0  0  0  0  0  0  0  0
  2  1  1  0
  3  1  1  0
  4  2  1  0
  5  3  1  0
  6  4  1  0
  6  5  1  0
  5  7  1  6
  6  8  1  6
  9  7  2  0
 10  7  1  0
 11  8  2  0
 12  8  1  0
M  END
>  <NAME>  (1176) 
CIS-1,2-CYCLOHEXANEDICARBOXYLIC ACID

>  <SYNONYMS>  (1176) 


>  <SPECTRUM TYPE>  (1176) 
MS1

>  <INSTRUMENT TYPE>  (1176) 
EI-B

>  <INSTRUMENT>  (1176) 
HITACHI M-80A

>  <ION MODE>  (1176) 
P

>  <INCHIKEY>  (1176) 
QSAWQNUELGIYBC-OLQVQODUSA-N

>  <FORMULA>  (1176) 
C8H12O4

>  <EXACT MASS>  (1176) 
172.073558864

>  <MW>  (1176) 
172

>  <ID>  (1176) 
JP010318

>  <CONTRIBUTOR>  (1176) 
University of Tokyo Team, {Faculty of Engineering, University of Tokyo

>  <COMMENT>  (1176) 
SMILES=OC(=O)C([H])(C1)C([H])(CCC1)C(O)=O
InChI=InChI=1S/C8H12O4/c9-7(10)5-3-1-2-4-6(5)8(11)12/h5-6H,1-4H2,(H,9,10)(H,11,12)/t5-,6+
computed SMILES=O=C(O)C1CCCCC1C(=O)O
accession=JP010318
date=2016.01.19 (Created 2008.10.21, modified 2011.05.06)
author=TAJIMA S, GUNMA COLLEGE OF TECHNOLOGY
license=CC BY-NC-SA
exact mass=172.07356
ionization energy=70 eV
ion type=[M]+*
computed spectral entropy=3.5551746473082937
computed normalized entropy=0.8312958150977292
SPLASH=splash10-003r-9200000000-41ffb65ffa188df1330f
submitter=submitter = University of Tokyo Team (Faculty of Engineering, University of Tokyo)
MoNA Rating=3.75

>  <NUM PEAKS>  (1176) 
72

>  <MASS SPECTRAL PEAKS>  (1176) 
15 4.09
17 1.15
18 5.11
19 1.36
26 5.37
27 39.97
29 14.77
31 3.22
38 3.53
39 44.89
40 6.98
41 50.23
42 5.36
43 18.35
44 1.16
45 38.46
46 1.73
47 1.88
50 3.76
51 8.89
52 5.24
53 22.29
54 37.66
55 19.87
56 3.9
57 4.39
58 1.05
60 3.13
61 1.15
63 1.44
65 3.88
66 11.5
67 54.77
68 14.19
69 5
70 2.35
71 2.4
72 1.03
73 12.32
77 7.77
78 1.85
79 17.94
80 36.03
81 99.99
82 35.09
83 3.93
84 1.9
85 2.26
86 6.07
87 4.7
94 2.49
95 3.67
97 9.71
98 2.42
99 11.17
100 3.84
107 1.01
108 38.46
109 6.66
110 1.26
111 4.33
112 4.5
113 1.11
117 1.09
125 2.06
126 68.47
127 6.98
128 5.76
136 1.9
154 12.33
155 9.19
173 1.75

>  <PREDICTED SPECTRUM>  (1176) 
17 3
18 18
26 95
27 289
28 47
29 244
30 5
31 53
37 37
38 58
39 365
40 155
41 481
42 206
43 237
44 172
45 260
46 40
47 71
50 86
51 153
52 122
53 380
54 555
55 462
56 221
57 261
58 59
59 13
60 144
61 35
62 41
63 60
65 220
66 257
67 778
68 408
69 206
70 230
71 142
72 44
73 382
74 107
77 208
78 112
79 452
80 538
81 999
82 677
83 274
84 105
85 139
86 164
87 108
95 56
97 272
98 200
99 348
100 208
101 117
108 541
109 314
110 225
111 112
112 94
113 125
114 106
125 36
126 642
127 283
128 317
129 86
136 57
154 376
155 180

$$$$

     RDKit          2D

  5  4  0  0  0  0  0  0  0  0999 V2000
   -3.8971    2.2500    0.0000 C   0  0  0  0  0  0  0  0  0  0  0  0
   -2.5981    1.5000    0.0000 C   0  0  0  0  0  0  0  0  0  0  0  0
   -1.2990    2.2500    0.0000 C   0  0  0  0  0  0  0  0  0  0  0  0
    0.0000    1.5000    0.0000 C   0  0  0  0  0  0  0  0  0  0  0  0
    1.2990    2.2500    0.0000 O   0  0  0  0  0  0  0  0  0  0  0  0
  2  1  2  0
  3  2  1  0
  4  3  1  0
  5  4  1  0
M  END
>  <NAME>  (1177) 
3-BUTEN-1-OL

>  <SYNONYMS>  (1177) 


>  <SPECTRUM TYPE>  (1177) 
MS1

>  <INSTRUMENT TYPE>  (1177) 
EI-B

>  <INSTRUMENT>  (1177) 
HITACHI M-80A

>  <ION MODE>  (1177) 
P

>  <INCHIKEY>  (1177) 
ZSPTYLOMNJNZNG-UHFFFAOYSA-N

>  <FORMULA>  (1177) 
C4H8O

>  <EXACT MASS>  (1177) 
72.057514876

>  <MW>  (1177) 
72

>  <ID>  (1177) 
JP010317

>  <CONTRIBUTOR>  (1177) 
University of Tokyo Team, {Faculty of Engineering, University of Tokyo

>  <COMMENT>  (1177) 
SMILES=C=CCCO
InChI=InChI=1S/C4H8O/c1-2-3-4-5/h2,5H,1,3-4H2
computed SMILES=OCCC=C
accession=JP010317
date=2016.01.19 (Created 2008.10.21, modified 2011.05.06)
author=TAJIMA S, GUNMA COLLEGE OF TECHNOLOGY
license=CC BY-NC-SA
exact mass=72.05751
ionization energy=70 eV
ion type=[M]+*
computed spectral entropy=2.700168580701917
computed normalized entropy=0.7863071176197787
SPLASH=splash10-0006-9000000000-b4f2297de4a5af519e4a
submitter=submitter = University of Tokyo Team (Faculty of Engineering, University of Tokyo)
MoNA Rating=3.75

>  <NUM PEAKS>  (1177) 
31

>  <MASS SPECTRAL PEAKS>  (1177) 
15 15.71
17 1.2
18 3.9
19 1.09
25 2.9
26 17.43
27 43.91
28 5.43
29 27.07
30 3.25
31 99.46
37 9.32
38 15.33
39 73.88
40 13.78
41 47.64
42 99.99
43 51.97
44 11.16
45 1.36
49 1.43
50 6.23
51 6.12
52 1.64
53 4.63
54 4.8
55 2.39
57 8.23
58 7.14
71 2.56
72 7.59

>  <PREDICTED SPECTRUM>  (1177) 
14 109
15 153
16 41
17 25
18 46
19 105
25 109
26 360
27 713
28 500
29 621
30 188
31 698
32 140
33 52
35 5
36 159
37 275
38 391
39 955
40 434
41 999
42 760
43 489
44 302
45 244
50 309
51 345
52 211
53 436
54 400
55 333
56 94
57 296
69 24
70 29
71 332
72 225

$$$$

     RDKit          2D

  5  4  0  0  0  0  0  0  0  0999 V2000
   -0.0000   -0.0000    0.0000 C   0  0  0  0  0  0  0  0  0  0  0  0
   -1.2990    3.7500    0.0000 C   0  0  0  0  0  0  0  0  0  0  0  0
    0.0000    1.5000    0.0000 C   0  0  0  0  0  0  0  0  0  0  0  0
   -1.2990    2.2500    0.0000 C   0  0  0  0  0  0  0  0  0  0  0  0
   -2.5981    1.5000    0.0000 O   0  0  0  0  0  0  0  0  0  0  0  0
  3  1  2  0
  4  2  1  0
  4  3  1  0
  5  4  1  0
M  END
>  <NAME>  (1178) 
1-BUTEN-3-OL

>  <SYNONYMS>  (1178) 


>  <SPECTRUM TYPE>  (1178) 
MS1

>  <INSTRUMENT TYPE>  (1178) 
EI-B

>  <INSTRUMENT>  (1178) 
HITACHI M-80A

>  <ION MODE>  (1178) 
P

>  <INCHIKEY>  (1178) 
MKUWVMRNQOOSAT-UHFFFAOYSA-N

>  <FORMULA>  (1178) 
C4H8O

>  <EXACT MASS>  (1178) 
72.057514876

>  <MW>  (1178) 
72

>  <ID>  (1178) 
JP010316

>  <CONTRIBUTOR>  (1178) 
University of Tokyo Team, {Faculty of Engineering, University of Tokyo

>  <COMMENT>  (1178) 
SMILES=C=CC(C)O
InChI=InChI=1S/C4H8O/c1-3-4(2)5/h3-5H,1H2,2H3
computed SMILES=OC(C=C)C
accession=JP010316
date=2016.01.19 (Created 2008.10.21, modified 2011.05.06)
author=TAJIMA S, GUNMA COLLEGE OF TECHNOLOGY
license=CC BY-NC-SA
exact mass=72.05751
ionization energy=70 eV
ion type=[M]+*
computed spectral entropy=2.600246650162291
computed normalized entropy=0.7502725894554553
SPLASH=splash10-054o-9000000000-3b3aa4347cce7dbda0b2
submitter=submitter = University of Tokyo Team (Faculty of Engineering, University of Tokyo)
MoNA Rating=3.75

>  <NUM PEAKS>  (1178) 
32

>  <MASS SPECTRAL PEAKS>  (1178) 
14 2.68
15 11.36
17 1.25
18 4.68
19 3.59
25 1.34
26 11.59
27 41.22
29 36.3
31 13.51
37 2.36
38 3.9
39 16.26
40 1.41
41 7.24
42 4.56
43 99.99
44 6.9
45 34.89
49 1.26
50 4.61
51 3.94
52 1.29
53 6.28
54 4.3
55 9.65
56 1.33
57 99.64
58 4.88
59 1.25
71 12.85
72 1.78

>  <PREDICTED SPECTRUM>  (1178) 
14 138
15 263
16 58
17 65
18 102
19 85
25 116
26 370
27 791
28 527
29 575
30 130
31 392
32 33
36 75
37 203
38 311
39 714
40 315
41 283
42 164
43 999
44 281
45 406
46 55
50 138
51 329
52 226
53 450
54 499
55 630
56 371
57 760
58 301
59 247
71 413
72 94

$$$$

     RDKit          2D

 11 11  0  0  0  0  0  0  0  0999 V2000
    1.9487   -3.0002    0.0000 C   0  0  0  0  0  0  0  0  0  0  0  0
   -1.9500    0.7500    0.0000 C   0  0  0  0  0  0  0  0  0  0  0  0
   -1.9500   -0.7500    0.0000 C   0  0  0  0  0  0  0  0  0  0  0  0
   -0.6500    1.5000    0.0000 C   0  0  0  0  0  0  0  0  0  0  0  0
   -0.6500   -1.5000    0.0000 C   0  0  0  0  0  0  0  0  0  0  0  0
    0.6500    0.7500    0.0000 C   0  0  0  0  0  0  0  0  0  0  0  0
    0.6500   -0.7500    0.0000 C   0  0  0  0  0  0  0  0  0  0  0  0
    1.9489    1.5002    0.0000 C   0  0  0  0  0  0  0  0  0  0  0  0
    3.2481    0.7504    0.0000 O   0  0  0  0  0  0  0  0  0  0  0  0
    1.9487    3.0002    0.0000 O   0  0  0  0  0  0  0  0  0  0  0  0
    1.9489   -1.5002    0.0000 O   0  0  0  0  0  0  0  0  0  0  0  0
  3  2  2  0
  4  2  1  0
  5  3  1  0
  6  4  2  0
  7  5  2  0
  7  6  1  0
  8  6  1  0
  9  8  2  0
 10  8  1  0
 11  1  1  0
 11  7  1  0
M  END
>  <NAME>  (1179) 
ORTHO-METHOXYBENZOIC ACID

>  <SYNONYMS>  (1179) 


>  <SPECTRUM TYPE>  (1179) 
MS1

>  <INSTRUMENT TYPE>  (1179) 
EI-B

>  <INSTRUMENT>  (1179) 
HITACHI M-80A

>  <ION MODE>  (1179) 
P

>  <INCHIKEY>  (1179) 
ILUJQPXNXACGAN-UHFFFAOYSA-N

>  <FORMULA>  (1179) 
C8H8O3

>  <EXACT MASS>  (1179) 
152.04734411599998

>  <MW>  (1179) 
152

>  <ID>  (1179) 
JP010314

>  <CONTRIBUTOR>  (1179) 
University of Tokyo Team, {Faculty of Engineering, University of Tokyo

>  <COMMENT>  (1179) 
SMILES=COc(c1)c(ccc1)C(O)=O
InChI=InChI=1S/C8H8O3/c1-11-7-5-3-2-4-6(7)8(9)10/h2-5H,1H3,(H,9,10)
computed SMILES=O=C(O)C=1C=CC=CC1OC
accession=JP010314
date=2016.01.19 (Created 2008.10.21, modified 2011.05.06)
author=TAJIMA S, GUNMA COLLEGE OF TECHNOLOGY
license=CC BY-NC-SA
exact mass=152.04734
ionization energy=70 eV
ion type=[M]+*
computed spectral entropy=3.427393913646434
computed normalized entropy=0.8552804958361868
SPLASH=splash10-0pki-9600000000-fbe367b85c1ed8dc75aa
submitter=submitter = University of Tokyo Team (Faculty of Engineering, University of Tokyo)
MoNA Rating=3.75

>  <NUM PEAKS>  (1179) 
55

>  <MASS SPECTRAL PEAKS>  (1179) 
15 22.86
26 2.31
27 7.78
29 8.19
30 1.55
31 4.17
37 5.84
38 15.19
39 29.11
40 1.37
45 12.65
49 1.95
50 20.34
51 22.18
52 4.71
53 9.52
55 2.24
61 3.75
62 9.02
63 28.69
64 20.71
65 21.1
66 2.79
73 1.55
74 8.02
75 5.21
76 14.32
77 57.77
78 15.89
79 40.08
80 3.04
81 13.83
90 2.64
91 1.65
92 32.31
93 6.59
94 2.62
104 4.01
105 99.99
106 13.9
107 8.46
108 1.16
109 2.69
119 1.1
120 5.22
121 4.66
122 4
123 53.06
124 4.22
133 9.18
134 7.88
135 30.87
136 3.2
152 63.93
153 8.24

>  <PREDICTED SPECTRUM>  (1179) 
14 42
15 111
16 24
17 29
18 53
25 15
26 74
27 131
28 104
29 151
30 89
31 121
32 22
33 13
36 16
37 128
38 209
39 301
40 108
41 106
42 29
43 5
44 129
45 234
46 66
47 7
48 12
49 98
50 408
51 511
52 268
53 284
54 79
55 115
56 27
57 64
59 111
60 60
61 183
62 239
63 411
64 352
65 420
66 229
67 116
68 53
69 61
70 23
72 21
73 107
74 261
75 294
76 345
77 806
78 404
79 385
80 103
81 136
82 21
83 33
84 22
85 58
86 35
89 32
90 50
91 401
92 484
93 338
94 174
95 236
96 85
104 131
105 659
106 366
107 398
108 146
109 115
110 4
119 201
120 156
121 280
122 202
123 329
124 58
125 19
133 700
134 270
135 999
136 140
137 113
138 10
151 70
152 664
153 221
154 30

$$$$

     RDKit          2D

 12 13  0  0  0  0  0  0  0  0999 V2000
    4.8381    0.6104    0.0000 C   0  0  0  0  0  0  0  0  0  0  0  0
   -2.9500   -0.8900    0.0000 C   0  0  0  0  0  0  0  0  0  0  0  0
   -2.9500    0.6100    0.0000 C   0  0  0  0  0  0  0  0  0  0  0  0
   -1.6500   -1.6400    0.0000 C   0  0  0  0  0  0  0  0  0  0  0  0
   -1.6500    1.3600    0.0000 C   0  0  0  0  0  0  0  0  0  0  0  0
    0.9400   -1.6400    0.0000 C   0  0  0  0  0  0  0  0  0  0  0  0
    2.2400   -0.8900    0.0000 C   0  0  0  0  0  0  0  0  0  0  0  0
    0.9400    1.3600    0.0000 C   0  0  0  0  0  0  0  0  0  0  0  0
   -0.3500   -0.8900    0.0000 C   0  0  0  0  0  0  0  0  0  0  0  0
   -0.3500    0.6100    0.0000 C   0  0  0  0  0  0  0  0  0  0  0  0
    2.2400    0.6100    0.0000 C   0  0  0  0  0  0  0  0  0  0  0  0
    3.5389    1.3602    0.0000 O   0  0  0  0  0  0  0  0  0  0  0  0
  3  2  2  0
  4  2  1  0
  5  3  1  0
  7  6  2  0
  9  4  2  0
  9  6  1  0
 10  5  2  0
 10  8  1  0
 10  9  1  0
 11  7  1  0
 11  8  2  0
 12  1  1  0
 12 11  1  0
M  END
>  <NAME>  (1180) 
2-METHOXYNAPHTHALENE

>  <SYNONYMS>  (1180) 


>  <SPECTRUM TYPE>  (1180) 
MS1

>  <INSTRUMENT TYPE>  (1180) 
EI-B

>  <INSTRUMENT>  (1180) 
HITACHI M-80A

>  <ION MODE>  (1180) 
P

>  <INCHIKEY>  (1180) 
LUZDYPLAQQGJEA-UHFFFAOYSA-N

>  <FORMULA>  (1180) 
C11H10O

>  <EXACT MASS>  (1180) 
158.07316494

>  <MW>  (1180) 
158

>  <ID>  (1180) 
JP010313

>  <CONTRIBUTOR>  (1180) 
University of Tokyo Team, {Faculty of Engineering, University of Tokyo

>  <COMMENT>  (1180) 
SMILES=COc(c1)cc(c2)c(ccc2)c1
InChI=InChI=1S/C11H10O/c1-12-11-7-6-9-4-2-3-5-10(9)8-11/h2-8H,1H3
computed SMILES=O(C=1C=CC=2C=CC=CC2C1)C
accession=JP010313
date=2016.01.19 (Created 2008.10.21, modified 2011.05.06)
author=TAJIMA S, GUNMA COLLEGE OF TECHNOLOGY
license=CC BY-NC-SA
exact mass=158.07316
ionization energy=70 eV
ion type=[M]+*
computed spectral entropy=2.2891933799250355
computed normalized entropy=0.6798313826600233
SPLASH=splash10-0aor-2900000000-84b3e0628bd2f527ae1b
submitter=submitter = University of Tokyo Team (Faculty of Engineering, University of Tokyo)
MoNA Rating=3.75

>  <NUM PEAKS>  (1180) 
29

>  <MASS SPECTRAL PEAKS>  (1180) 
15 8.24
29 1.51
38 1.49
39 12.22
50 1.98
51 2.15
62 2.02
63 5.07
65 2.63
74 2.2
75 2.55
76 1.17
77 1.91
87 1.73
88 1.81
89 5.19
113 1.8
114 2.99
115 62.36
116 6.93
126 1.96
127 3.78
128 8.39
129 2.88
143 5.23
144 7.21
158 99.99
159 12.5
160 1.25

>  <PREDICTED SPECTRUM>  (1180) 
14 7
15 71
25 4
26 27
27 24
38 54
39 62
50 209
51 279
52 100
53 18
61 44
62 103
63 313
64 156
65 108
74 107
75 182
76 190
77 351
78 89
86 64
87 55
88 31
89 94
101 122
113 44
114 149
115 953
116 317
117 5
126 127
127 223
128 319
129 154
130 34
131 1
143 403
144 104
157 50
158 999
159 340
160 60

$$$$

     RDKit          2D

 16 15  0  0  0  0  0  0  0  0999 V2000
    4.5466    7.8750    0.0000 C   0  0  0  0  0  0  0  0  0  0  0  0
  -13.6399    7.8750    0.0000 C   0  0  0  0  0  0  0  0  0  0  0  0
    3.2476    8.6250    0.0000 C   0  0  0  0  0  0  0  0  0  0  0  0
    1.9486    7.8750    0.0000 C   0  0  0  0  0  0  0  0  0  0  0  0
    0.6495    8.6250    0.0000 C   0  0  0  0  0  0  0  0  0  0  0  0
   -0.6495    7.8750    0.0000 C   0  0  0  0  0  0  0  0  0  0  0  0
   -1.9486    8.6250    0.0000 C   0  0  0  0  0  0  0  0  0  0  0  0
   -3.2476    7.8750    0.0000 C   0  0  0  0  0  0  0  0  0  0  0  0
   -4.5466    8.6250    0.0000 C   0  0  0  0  0  0  0  0  0  0  0  0
   -5.8457    7.8750    0.0000 C   0  0  0  0  0  0  0  0  0  0  0  0
   -7.1447    8.6250    0.0000 C   0  0  0  0  0  0  0  0  0  0  0  0
   -8.4437    7.8750    0.0000 C   0  0  0  0  0  0  0  0  0  0  0  0
   -9.7428    8.6250    0.0000 C   0  0  0  0  0  0  0  0  0  0  0  0
  -12.3409    8.6250    0.0000 C   0  0  0  0  0  0  0  0  0  0  0  0
  -12.3409   10.1250    0.0000 O   0  0  0  0  0  0  0  0  0  0  0  0
  -11.0418    7.8750    0.0000 O   0  0  0  0  0  0  0  0  0  0  0  0
  3  1  1  0
  4  3  1  0
  5  4  1  0
  6  5  1  0
  7  6  1  0
  8  7  1  0
  9  8  1  0
 10  9  1  0
 11 10  1  0
 12 11  1  0
 13 12  1  0
 14  2  1  0
 15 14  2  0
 16 13  1  0
 16 14  1  0
M  END
>  <NAME>  (1181) 
DODECYL ACETATE

>  <SYNONYMS>  (1181) 


>  <SPECTRUM TYPE>  (1181) 
MS1

>  <INSTRUMENT TYPE>  (1181) 
EI-B

>  <INSTRUMENT>  (1181) 
HITACHI M-80A

>  <ION MODE>  (1181) 
P

>  <INCHIKEY>  (1181) 
VZWGRQBCURJOMT-UHFFFAOYSA-N

>  <FORMULA>  (1181) 
C14H28O2

>  <EXACT MASS>  (1181) 
228.208930136

>  <MW>  (1181) 
228

>  <ID>  (1181) 
JP010312

>  <CONTRIBUTOR>  (1181) 
University of Tokyo Team, {Faculty of Engineering, University of Tokyo

>  <COMMENT>  (1181) 
SMILES=CCCCCCCCCCCCOC(C)=O
InChI=InChI=1S/C14H28O2/c1-3-4-5-6-7-8-9-10-11-12-13-16-14(2)15/h3-13H2,1-2H3
computed SMILES=O=C(OCCCCCCCCCCCC)C
accession=JP010312
date=2016.01.19 (Created 2008.10.21, modified 2011.05.06)
author=TAJIMA S, GUNMA COLLEGE OF TECHNOLOGY
license=CC BY-NC-SA
exact mass=228.20893
ionization energy=70 eV
ion type=[M]+*
computed spectral entropy=2.6759843886649035
computed normalized entropy=0.7721258814046281
SPLASH=splash10-052f-9000000000-64ad0560576ca0778cb8
submitter=submitter = University of Tokyo Team (Faculty of Engineering, University of Tokyo)
MoNA Rating=3.75

>  <NUM PEAKS>  (1181) 
32

>  <MASS SPECTRAL PEAKS>  (1181) 
26 1.43
27 3.66
29 5.35
38 1.32
39 5.58
40 1.61
41 21.69
42 6.46
43 99.99
44 2.92
53 1.38
54 3.31
55 20.3
56 15.02
57 12.72
58 13.47
59 1.35
61 12.08
67 2.86
68 4.09
69 11.32
70 9.48
71 3.53
73 1.89
82 4.22
83 8.79
84 5.54
85 1.71
96 1.37
97 4.78
98 2.84
111 1.22

>  <PREDICTED SPECTRUM>  (1181) 
26 31
27 164
28 86
29 258
30 9
31 38
33 5
36 0
37 26
38 29
39 218
40 104
41 611
42 418
43 999
44 213
45 104
49 9
51 20
52 42
53 169
54 303
55 704
56 663
57 669
58 108
59 76
60 107
61 568
62 78
63 7
65 25
66 81
67 318
68 443
69 664
70 602
71 469
72 116
73 283
74 76
75 23
76 36
79 65
80 40
81 224
82 448
83 652
84 478
85 311
86 113
87 53
88 74
89 45
95 197
96 377
97 572
98 369
99 158
100 12
101 30
102 6
104 0
110 161
111 398
112 277
113 149
114 24
116 81
124 121
125 211
126 214
127 53
129 7
137 58
138 67
139 68
140 219
141 48
155 19
168 173
169 122
170 4
171 13

$$$$

     RDKit          2D

 10 10  0  0  0  0  0  0  0  0999 V2000
   -1.3000    0.7500    0.0000 C   0  0  0  0  0  0  0  0  0  0  0  0
    0.0000    1.5000    0.0000 C   0  0  0  0  0  0  0  0  0  0  0  0
   -1.3000   -0.7500    0.0000 C   0  0  0  0  0  0  0  0  0  0  0  0
    1.3000    0.7500    0.0000 C   0  0  0  0  0  0  0  0  0  0  0  0
    0.0000   -1.5000    0.0000 C   0  0  0  0  0  0  0  0  0  0  0  0
    1.3000   -0.7500    0.0000 C   0  0  0  0  0  0  0  0  0  0  0  0
    1.8487   -2.7991    0.0000 O   0  0  0  0  0  0  0  0  0  0  0  0
    3.8978   -2.2504    0.0000 O   0  0  0  0  0  0  0  0  0  0  0  0
    3.3491   -0.2013    0.0000 O   0  0  0  0  0  0  0  0  0  0  0  0
    2.5989   -1.5002    0.0000 P   0  0  0  0  0  0  0  0  0  0  0  0
  2  1  2  0
  3  1  1  0
  4  2  1  0
  5  3  2  0
  6  4  2  0
  6  5  1  0
 10  6  1  0
 10  7  1  0
 10  8  1  0
 10  9  2  0
M  END
>  <NAME>  (1182) 
PHENYLPHOSPHONIC ACID

>  <SYNONYMS>  (1182) 


>  <SPECTRUM TYPE>  (1182) 
MS1

>  <INSTRUMENT TYPE>  (1182) 
EI-B

>  <INSTRUMENT>  (1182) 
HITACHI M-80A

>  <ION MODE>  (1182) 
P

>  <INCHIKEY>  (1182) 
QLZHNIAADXEJJP-UHFFFAOYSA-N

>  <FORMULA>  (1182) 
C6H7O3P

>  <EXACT MASS>  (1182) 
158.013280714

>  <MW>  (1182) 
158

>  <ID>  (1182) 
JP010311

>  <CONTRIBUTOR>  (1182) 
University of Tokyo Team, {Faculty of Engineering, University of Tokyo

>  <COMMENT>  (1182) 
SMILES=c(c1)ccc(c1)P(O)(O)=O
InChI=InChI=1S/C6H7O3P/c7-10(8,9)6-4-2-1-3-5-6/h1-5H,(H2,7,8,9)
computed SMILES=O=P(O)(O)C=1C=CC=CC1
accession=JP010311
date=2016.01.19 (Created 2008.10.21, modified 2011.05.06)
author=TAJIMA S, GUNMA COLLEGE OF TECHNOLOGY
license=CC BY-NC-SA
exact mass=158.01328
ionization energy=70 eV
ion type=[M]+*
computed spectral entropy=2.2865674295806953
computed normalized entropy=0.7194866895411752
SPLASH=splash10-0006-9200000000-eaf81fa8360b13c0704d
submitter=submitter = University of Tokyo Team (Faculty of Engineering, University of Tokyo)
MoNA Rating=3.75

>  <NUM PEAKS>  (1182) 
24

>  <MASS SPECTRAL PEAKS>  (1182) 
38 1.29
39 3.94
47 4.91
50 8.71
51 16.12
52 1.57
63 1.95
64 1.63
65 5.87
66 9.86
74 4.52
75 2.87
76 3.69
77 16.77
78 5.94
81 8.06
93 1.49
94 99.99
95 6.94
139 1.78
140 1.66
141 1.97
158 41.43
159 4.88

>  <PREDICTED SPECTRUM>  (1182) 
25 26
31 96
32 5
36 84
37 74
38 108
39 358
40 36
47 425
48 55
49 115
50 449
51 720
52 291
53 72
55 2
60 95
61 95
62 128
63 172
64 3
65 376
66 190
67 83
73 11
74 247
75 213
76 266
77 999
78 678
79 271
93 22
94 440
95 60
112 28
139 51
140 171
141 180
142 40
143 25
157 119
158 562
159 183
160 32

$$$$

     RDKit          2D

  6  5  0  0  0  0  0  0  0  0999 V2000
   -0.0000   -0.0000    0.0000 C   0  0  0  0  0  0  0  0  0  0  0  0
   -0.0000    1.5000    0.0000 C   0  0  0  0  0  0  0  0  0  0  0  0
   -1.2990    2.2500    0.0000 C   0  0  0  0  0  0  0  0  0  0  0  0
    1.2990    2.2500    0.0000 N   0  0  0  0  0  0  0  0  0  0  0  0
   -2.5981    1.5000    0.0000 O   0  0  0  0  0  0  0  0  0  0  0  0
   -1.2990    3.7500    0.0000 O   0  0  0  0  0  0  0  0  0  0  0  0
  2  1  1  0
  3  2  1  0
  4  2  1  0
  5  3  2  0
  6  3  1  0
M  END
>  <NAME>  (1183) 
DL-ALANINE

>  <SYNONYMS>  (1183) 


>  <SPECTRUM TYPE>  (1183) 
MS1

>  <INSTRUMENT TYPE>  (1183) 
EI-B

>  <INSTRUMENT>  (1183) 
HITACHI M-80A

>  <ION MODE>  (1183) 
P

>  <INCHIKEY>  (1183) 
QNAYBMKLOCPYGJ-UHFFFAOYSA-N

>  <FORMULA>  (1183) 
C3H7NO2

>  <EXACT MASS>  (1183) 
89.047678464

>  <MW>  (1183) 
89

>  <ID>  (1183) 
JP010310

>  <CONTRIBUTOR>  (1183) 
University of Tokyo Team, {Faculty of Engineering, University of Tokyo

>  <COMMENT>  (1183) 
SMILES=CC(N)C(O)=O
InChI=InChI=1S/C3H7NO2/c1-2(4)3(5)6/h2H,4H2,1H3,(H,5,6)
computed SMILES=O=C(O)C(N)C
accession=JP010310
date=2016.01.19 (Created 2008.10.21, modified 2011.05.06)
author=TAJIMA S, GUNMA COLLEGE OF TECHNOLOGY
license=CC BY-NC-SA
exact mass=89.04768
ionization energy=70 eV
ion type=[M]+*
computed spectral entropy=1.7982268580926828
computed normalized entropy=0.6346951816619012
SPLASH=splash10-0006-9000000000-a06c1fe0735b0a443464
submitter=submitter = University of Tokyo Team (Faculty of Engineering, University of Tokyo)
MoNA Rating=3.75

>  <NUM PEAKS>  (1183) 
17

>  <MASS SPECTRAL PEAKS>  (1183) 
14 1
15 5.83
18 25.52
26 1.58
27 5.41
28 14.89
29 2.19
30 1.11
40 2.04
41 3.39
42 12.09
43 3.61
44 99.99
45 4.85
46 2.06
74 1.35
90 4.73

>  <PREDICTED SPECTRUM>  (1183) 
14 31
15 79
16 21
17 39
18 53
19 17
25 5
26 28
27 109
28 158
29 73
30 116
31 33
38 1
40 30
41 131
42 345
43 242
44 999
45 310
46 138
52 40
53 26
54 58
55 30
56 25
74 100
89 87
90 27

$$$$

     RDKit          2D

 14 16  0  0  0  0  0  0  0  0999 V2000
   -3.2100    1.5100    0.0000 C   0  0  0  0  0  0  0  0  0  0  0  0
    3.2100    1.5100    0.0000 C   0  0  0  0  0  0  0  0  0  0  0  0
   -3.6800    0.0700    0.0000 C   0  0  0  0  0  0  0  0  0  0  0  0
    3.6800    0.1000    0.0000 C   0  0  0  0  0  0  0  0  0  0  0  0
   -1.7500    1.8200    0.0000 C   0  0  0  0  0  0  0  0  0  0  0  0
    1.7400    1.8200    0.0000 C   0  0  0  0  0  0  0  0  0  0  0  0
   -2.6900   -1.0400    0.0000 C   0  0  0  0  0  0  0  0  0  0  0  0
    2.6900   -1.0200    0.0000 C   0  0  0  0  0  0  0  0  0  0  0  0
   -0.7600    0.7000    0.0000 C   0  0  0  0  0  0  0  0  0  0  0  0
    0.7400    0.7000    0.0000 C   0  0  0  0  0  0  0  0  0  0  0  0
   -1.2100   -0.7300    0.0000 C   0  0  0  0  0  0  0  0  0  0  0  0
    1.2200   -0.7200    0.0000 C   0  0  0  0  0  0  0  0  0  0  0  0
    0.0100   -1.6100    0.0000 C   0  0  0  0  0  0  0  0  0  0  0  0
    0.0170   -3.1100    0.0000 O   0  0  0  0  0  0  0  0  0  0  0  0
  3  1  2  0
  4  2  2  0
  5  1  1  0
  6  2  1  0
  7  3  1  0
  8  4  1  0
  9  5  2  0
 10  6  2  0
 10  9  1  0
 11  7  2  0
 11  9  1  0
 12  8  2  0
 12 10  1  0
 13 11  1  0
 13 12  1  0
 14 13  2  0
M  END
>  <NAME>  (1184) 
9-FLUORENONE

>  <SYNONYMS>  (1184) 


>  <SPECTRUM TYPE>  (1184) 
MS1

>  <INSTRUMENT TYPE>  (1184) 
EI-B

>  <INSTRUMENT>  (1184) 
HITACHI M-80A

>  <ION MODE>  (1184) 
P

>  <INCHIKEY>  (1184) 
YLQWCDOCJODRMT-UHFFFAOYSA-N

>  <FORMULA>  (1184) 
C13H8O

>  <EXACT MASS>  (1184) 
180.057514876

>  <MW>  (1184) 
180

>  <ID>  (1184) 
JP010309

>  <CONTRIBUTOR>  (1184) 
University of Tokyo Team, {Faculty of Engineering, University of Tokyo

>  <COMMENT>  (1184) 
SMILES=O=C(c21)c(c3)c(ccc3)c(cccc2)1
InChI=InChI=1S/C13H8O/c14-13-11-7-3-1-5-9(11)10-6-2-4-8-12(10)13/h1-8H
computed SMILES=O=C1C=2C=CC=CC2C=3C=CC=CC13
accession=JP010309
date=2016.01.19 (Created 2008.10.21, modified 2011.05.06)
author=TAJIMA S, GUNMA COLLEGE OF TECHNOLOGY
license=CC BY-NC-SA
exact mass=180.05751
ionization energy=70 eV
ion type=[M]+*
computed spectral entropy=2.322948787228419
computed normalized entropy=0.7048130358601821
SPLASH=splash10-001i-2900000000-9d93c2c3e73934a67ec9
submitter=submitter = University of Tokyo Team (Faculty of Engineering, University of Tokyo)
MoNA Rating=3.75

>  <NUM PEAKS>  (1184) 
27

>  <MASS SPECTRAL PEAKS>  (1184) 
27 1.69
38 1.29
39 4.53
50 4.76
51 3.57
62 2.39
63 7.75
74 4.9
75 6.12
76 12.19
77 1.4
86 1.75
87 2.67
90 1.52
98 2.09
99 1.95
100 1
102 1.62
125 1.53
126 5.4
150 8.47
151 14
152 32.87
153 4.31
180 99.99
181 14.92
182 1.27

>  <PREDICTED SPECTRUM>  (1184) 
26 26
27 41
28 16
39 145
40 33
41 97
49 30
50 210
51 176
52 17
53 36
54 5
55 102
62 84
63 147
69 122
74 204
75 210
76 199
77 47
81 35
82 25
84 27
86 162
87 184
88 183
98 156
99 104
100 70
104 36
110 29
111 77
112 31
113 190
114 78
115 52
122 23
123 47
124 37
125 120
126 282
127 42
128 9
149 173
150 251
151 431
152 455
153 212
154 65
161 9
162 28
163 164
165 1
179 326
180 999
181 443
182 59

$$$$

     RDKit          2D

 10 10  0  0  0  0  0  0  0  0999 V2000
    0.9737   -1.6804    0.0000 C   0  0  0  0  0  0  0  0  0  0  0  0
   -0.3254   -0.9304    0.0000 C   0  0  0  0  0  0  0  0  0  0  0  0
    2.2682   -0.9382    0.0000 C   0  0  0  0  0  0  0  0  0  0  0  0
    0.9696    1.3126    0.0000 C   0  0  0  0  0  0  0  0  0  0  0  0
   -0.3299    0.5618    0.0000 C   0  0  0  0  0  0  0  0  0  0  0  0
    2.2687    0.5626    0.0000 C   0  0  0  0  0  0  0  0  0  0  0  0
   -1.6302    1.3096    0.0000 C   0  0  0  0  0  0  0  0  0  0  0  0
    3.5678    1.3124    0.0000 N   0  0  0  0  0  0  0  0  0  0  0  0
   -1.6327    2.8096    0.0000 O   0  0  0  0  0  0  0  0  0  0  0  0
   -2.9280    0.5574    0.0000 O   0  0  0  0  0  0  0  0  0  0  0  0
  2  1  2  0
  3  1  1  0
  5  2  1  0
  5  4  2  0
  6  3  2  0
  6  4  1  0
  7  5  1  0
  8  6  1  0
  9  7  2  0
 10  7  1  0
M  END
>  <NAME>  (1185) 
META-AMINOBENZOIC ACID

>  <SYNONYMS>  (1185) 
3-AMINOBENZOIC ACID

>  <SPECTRUM TYPE>  (1185) 
MS1

>  <INSTRUMENT TYPE>  (1185) 
EI-B

>  <INSTRUMENT>  (1185) 
HITACHI M-80A

>  <ION MODE>  (1185) 
P

>  <INCHIKEY>  (1185) 
XFDUHJPVQKIXHO-UHFFFAOYSA-N

>  <FORMULA>  (1185) 
C7H7NO2

>  <EXACT MASS>  (1185) 
137.047678464

>  <MW>  (1185) 
137

>  <ID>  (1185) 
JP010308

>  <CONTRIBUTOR>  (1185) 
University of Tokyo Team, {Faculty of Engineering, University of Tokyo

>  <COMMENT>  (1185) 
SMILES=Nc(c1)cc(cc1)C(O)=O
InChI=InChI=1S/C7H7NO2/c8-6-3-1-2-5(4-6)7(9)10/h1-4H,8H2,(H,9,10)
computed SMILES=O=C(O)C=1C=CC=C(N)C1
accession=JP010308
date=2016.01.19 (Created 2008.10.21, modified 2011.05.06)
author=TAJIMA S, GUNMA COLLEGE OF TECHNOLOGY
license=CC BY-NC-SA
exact mass=137.04768
ionization energy=70 eV
ion type=[M]+*
computed spectral entropy=2.348024512855347
computed normalized entropy=0.6903523228363402
SPLASH=splash10-000i-4900000000-e768f284b0ad9fa688a5
submitter=submitter = University of Tokyo Team (Faculty of Engineering, University of Tokyo)
MoNA Rating=3.75

>  <NUM PEAKS>  (1185) 
30

>  <MASS SPECTRAL PEAKS>  (1185) 
27 1.09
28 2.77
37 1.16
38 3.07
39 9.44
40 1.1
41 2.14
45 4.61
50 1.29
51 1.12
52 2.67
53 1.54
54 1.63
62 1.5
63 6.24
64 2.48
65 14.83
66 2.96
80 3.92
81 1.12
91 3.15
92 13.28
93 2.93
94 2.7
109 3.76
120 39.24
121 3.22
137 99.99
138 22.14
139 1.81

>  <PREDICTED SPECTRUM>  (1185) 
16 14
17 33
18 34
25 21
26 58
27 111
28 86
29 66
33 0
34 9
36 68
37 180
38 249
39 489
40 183
41 312
42 139
43 26
44 157
45 262
46 88
48 24
49 110
50 290
51 249
52 247
53 282
54 127
55 79
56 3
57 25
58 41
60 49
61 190
62 251
63 445
64 432
65 668
66 312
67 109
68 54
69 53
70 43
71 2
74 104
75 190
76 135
77 89
78 42
79 107
80 190
81 145
82 44
83 58
90 149
91 395
92 682
93 355
94 87
97 20
106 28
107 43
108 206
109 169
110 63
119 44
120 508
121 201
122 71
136 115
137 999
138 293
139 40

$$$$

     RDKit          2D

 11 11  0  0  0  0  0  0  0  0999 V2000
    0.9721    3.5563    0.0000 C   0  0  0  0  0  0  0  0  0  0  0  0
    2.2711    2.8063    0.0000 C   0  0  0  0  0  0  0  0  0  0  0  0
   -0.3224    2.8142    0.0000 C   0  0  0  0  0  0  0  0  0  0  0  0
    0.9761    0.5633    0.0000 C   0  0  0  0  0  0  0  0  0  0  0  0
    3.5760    0.5663    0.0000 C   0  0  0  0  0  0  0  0  0  0  0  0
    2.2757    1.3142    0.0000 C   0  0  0  0  0  0  0  0  0  0  0  0
   -0.3229    1.3133    0.0000 C   0  0  0  0  0  0  0  0  0  0  0  0
    4.8763   -0.1815    0.0000 N   0  0  0  0  0  0  0  0  0  0  0  0
   -1.6220    0.5635    0.0000 N   0  0  0  0  0  0  0  0  0  0  0  0
   -2.9210    1.3138    0.0000 O   0  0  0  0  0  0  0  0  0  0  0  0
   -1.6223   -0.9365    0.0000 O   0  0  0  0  0  0  0  0  0  0  0  0
  2  1  2  0
  3  1  1  0
  6  2  1  0
  6  4  2  0
  6  5  1  0
  7  3  2  0
  7  4  1  0
  8  5  3  0
  9  7  1  0
 10  9  1  0
 11  9  2  0
M  CHG  2   9   1  10  -1
M  END
>  <NAME>  (1186) 
META-CYANONITROBENZENE

>  <SYNONYMS>  (1186) 
3-NITROBENZONITRILE

>  <SPECTRUM TYPE>  (1186) 
MS1

>  <INSTRUMENT TYPE>  (1186) 
EI-B

>  <INSTRUMENT>  (1186) 
HITACHI M-80A

>  <ION MODE>  (1186) 
P

>  <INCHIKEY>  (1186) 
RUSAWEHOGCWOPG-UHFFFAOYSA-N

>  <FORMULA>  (1186) 
C7H4N2O2

>  <EXACT MASS>  (1186) 
148.027277368

>  <MW>  (1186) 
148

>  <ID>  (1186) 
JP010306

>  <CONTRIBUTOR>  (1186) 
University of Tokyo Team, {Faculty of Engineering, University of Tokyo

>  <COMMENT>  (1186) 
SMILES=N#Cc(c1)cc(cc1)[N+1]([O-1])=O
InChI=InChI=1S/C7H4N2O2/c8-5-6-2-1-3-7(4-6)9(10)11/h1-4H
computed SMILES=N#CC1=CC=CC(=C1)N(=O)=O
accession=JP010306
date=2016.01.19 (Created 2008.10.21, modified 2011.05.06)
author=TAJIMA S, GUNMA COLLEGE OF TECHNOLOGY
license=CC BY-NC-SA
exact mass=148.02728
ionization energy=70 eV
ion type=[M]+*
computed spectral entropy=2.818433011607886
computed normalized entropy=0.7748085922506052
SPLASH=splash10-0udi-9500000000-def0a453940f9db2e345
submitter=submitter = University of Tokyo Team (Faculty of Engineering, University of Tokyo)
MoNA Rating=3.75

>  <NUM PEAKS>  (1186) 
38

>  <MASS SPECTRAL PEAKS>  (1186) 
14 1.23
16 1.23
18 1.45
26 2.14
27 7.55
30 77.18
37 6.65
38 8.12
39 9.57
46 6.51
49 3.99
50 25.89
51 32.89
52 7.54
61 2.43
62 4.33
63 8.04
64 5.21
73 2.4
74 9.65
75 44.8
76 24.93
77 1.56
90 21.48
91 1.74
99 2.95
100 1.83
101 1.39
102 99.99
103 8.73
116 1.2
118 4.68
122 1.02
132 6.95
148 62.31
149 11.47
150 1.66
152 1.35

>  <PREDICTED SPECTRUM>  (1186) 
16 34
17 3
18 7
25 36
26 75
28 53
30 651
31 40
32 10
36 65
37 179
38 219
39 167
40 83
44 9
46 180
48 26
49 138
50 419
51 302
52 188
53 1
61 174
62 253
63 334
64 253
69 5
73 97
74 371
75 563
76 442
77 62
82 42
84 11
90 502
91 122
92 66
100 55
101 32
102 999
103 360
104 117
118 220
119 89
132 59
148 856
149 290
150 79

$$$$

     RDKit          2D

 15 15  0  0  0  0  0  0  0  0999 V2000
   -3.5795    3.5756    0.0000 C   0  0  0  0  0  0  0  0  0  0  0  0
   -2.2694    5.8192    0.0000 C   0  0  0  0  0  0  0  0  0  0  0  0
    5.5137    4.2873    0.0000 C   0  0  0  0  0  0  0  0  0  0  0  0
    4.2001    2.0624    0.0000 C   0  0  0  0  0  0  0  0  0  0  0  0
    6.7982    3.5624    0.0000 C   0  0  0  0  0  0  0  0  0  0  0  0
    5.5247    1.2683    0.0000 C   0  0  0  0  0  0  0  0  0  0  0  0
   -0.9814    3.5628    0.0000 C   0  0  0  0  0  0  0  0  0  0  0  0
    0.3213    4.3064    0.0000 C   0  0  0  0  0  0  0  0  0  0  0  0
   -2.2768    4.3192    0.0000 C   0  0  0  0  0  0  0  0  0  0  0  0
    4.2147    3.5373    0.0000 C   0  0  0  0  0  0  0  0  0  0  0  0
    6.8237    2.0183    0.0000 C   0  0  0  0  0  0  0  0  0  0  0  0
    2.9193    4.2936    0.0000 C   0  0  0  0  0  0  0  0  0  0  0  0
    8.1289    1.2790    0.0000 O   0  0  0  0  0  0  0  0  0  0  0  0
    2.9267    5.7936    0.0000 O   0  0  0  0  0  0  0  0  0  0  0  0
    1.6166    3.5501    0.0000 O   0  0  0  0  0  0  0  0  0  0  0  0
  5  3  2  0
  6  4  1  0
  8  7  1  0
  9  1  1  0
  9  2  1  0
  9  7  1  0
 10  3  1  0
 10  4  2  0
 11  5  1  0
 11  6  2  0
 12 10  1  0
 13 11  1  0
 14 12  2  0
 15  8  1  0
 15 12  1  0
M  END
>  <NAME>  (1187) 
ISOPENTYL PARA-HYDROXYBENZOATE

>  <SYNONYMS>  (1187) 
3-METHYLBUTYL 4-HYDROXYBENZOATE

>  <SPECTRUM TYPE>  (1187) 
MS1

>  <INSTRUMENT TYPE>  (1187) 
EI-B

>  <INSTRUMENT>  (1187) 
HITACHI M-80A

>  <ION MODE>  (1187) 
P

>  <INCHIKEY>  (1187) 
KSHVDKDQYBNSAN-UHFFFAOYSA-N

>  <FORMULA>  (1187) 
C12H16O3

>  <EXACT MASS>  (1187) 
208.10994437199997

>  <MW>  (1187) 
208

>  <ID>  (1187) 
JP010305

>  <CONTRIBUTOR>  (1187) 
University of Tokyo Team, {Faculty of Engineering, University of Tokyo

>  <COMMENT>  (1187) 
SMILES=CC(C)CCOC(=O)c(c1)ccc(O)c1
InChI=InChI=1S/C12H16O3/c1-9(2)7-8-15-12(14)10-3-5-11(13)6-4-10/h3-6,9,13H,7-8H2,1-2H3
computed SMILES=O=C(OCCC(C)C)C1=CC=C(O)C=C1
accession=JP010305
date=2016.01.19 (Created 2008.10.21, modified 2011.05.06)
author=TAJIMA S, GUNMA COLLEGE OF TECHNOLOGY
license=CC BY-NC-SA
exact mass=208.10994
ionization energy=70 eV
ion type=[M]+*
computed spectral entropy=2.37180590275931
computed normalized entropy=0.7043651709000089
SPLASH=splash10-00dr-4900000000-647b913ce57c2da1529a
submitter=submitter = University of Tokyo Team (Faculty of Engineering, University of Tokyo)
MoNA Rating=3.75

>  <NUM PEAKS>  (1187) 
29

>  <MASS SPECTRAL PEAKS>  (1187) 
27 3.55
29 3.17
39 6.95
41 7.19
42 1.88
43 6.66
53 1.19
55 6.09
63 2.55
64 1.89
65 12.59
66 1.13
69 1
70 17.9
71 1.53
92 3.62
93 15.67
94 1.73
95 3.09
120 1.53
121 99.99
122 8.86
123 1.07
138 61.24
139 37.18
140 3.24
151 1.49
152 1.31
208 1.66

>  <PREDICTED SPECTRUM>  (1187) 
26 35
27 199
29 183
37 31
38 112
39 392
40 133
41 459
42 307
43 498
44 66
49 6
50 123
51 120
52 93
53 260
54 141
55 514
62 80
63 209
64 150
65 459
66 151
67 50
69 97
70 922
71 383
72 93
73 30
74 42
75 45
76 153
77 78
79 46
80 28
81 110
82 16
91 54
92 140
93 433
94 182
95 222
96 79
103 10
104 29
109 46
120 0
121 999
122 323
123 158
138 845
139 608
140 136
141 23
149 37
151 177
152 71
165 92
208 196
209 40

$$$$

     RDKit          2D

 11 11  0  0  0  0  0  0  0  0999 V2000
   -1.9139    3.7324    0.0000 C   0  0  0  0  0  0  0  0  0  0  0  0
    1.9837    1.4833    0.0000 C   0  0  0  0  0  0  0  0  0  0  0  0
    0.6847    2.2333    0.0000 C   0  0  0  0  0  0  0  0  0  0  0  0
    0.6837   -0.7684    0.0000 C   0  0  0  0  0  0  0  0  0  0  0  0
    3.2823   -0.7676    0.0000 C   0  0  0  0  0  0  0  0  0  0  0  0
    1.9832   -0.0176    0.0000 C   0  0  0  0  0  0  0  0  0  0  0  0
   -0.6153   -0.0184    0.0000 C   0  0  0  0  0  0  0  0  0  0  0  0
   -0.6148    1.4824    0.0000 C   0  0  0  0  0  0  0  0  0  0  0  0
    4.5813   -0.0176    0.0000 O   0  0  0  0  0  0  0  0  0  0  0  0
   -1.9145   -0.7682    0.0000 O   0  0  0  0  0  0  0  0  0  0  0  0
   -1.9139    2.2324    0.0000 O   0  0  0  0  0  0  0  0  0  0  0  0
  3  2  2  0
  6  2  1  0
  6  4  2  0
  6  5  1  0
  7  4  1  0
  8  3  1  0
  8  7  2  0
  9  5  2  0
 10  7  1  0
 11  1  1  0
 11  8  1  0
M  END
>  <NAME>  (1188) 
ISOVANILLIN

>  <SYNONYMS>  (1188) 
3-HYDROXY-4-METHOXYBENZALDEHYDE

>  <SPECTRUM TYPE>  (1188) 
MS1

>  <INSTRUMENT TYPE>  (1188) 
EI-B

>  <INSTRUMENT>  (1188) 
HITACHI M-80A

>  <ION MODE>  (1188) 
P

>  <INCHIKEY>  (1188) 
JVTZFYYHCGSXJV-UHFFFAOYSA-N

>  <FORMULA>  (1188) 
C8H8O3

>  <EXACT MASS>  (1188) 
152.04734411599998

>  <MW>  (1188) 
152

>  <ID>  (1188) 
JP010304

>  <CONTRIBUTOR>  (1188) 
University of Tokyo Team, {Faculty of Engineering, University of Tokyo

>  <COMMENT>  (1188) 
SMILES=O=Cc(c1)cc(O)c(OC)c1
InChI=InChI=1S/C8H8O3/c1-11-8-3-2-6(5-9)4-7(8)10/h2-5,10H,1H3
computed SMILES=O=CC1=CC=C(OC)C(O)=C1
accession=JP010304
date=2016.01.19 (Created 2008.10.21, modified 2011.05.06)
author=TAJIMA S, GUNMA COLLEGE OF TECHNOLOGY
license=CC BY-NC-SA
exact mass=152.04734
ionization energy=70 eV
ion type=[M]+*
computed spectral entropy=3.1278861516018917
computed normalized entropy=0.8079885655093705
SPLASH=splash10-0udi-9700000000-26471c62326769b48035
submitter=submitter = University of Tokyo Team (Faculty of Engineering, University of Tokyo)
MoNA Rating=3.75

>  <NUM PEAKS>  (1188) 
48

>  <MASS SPECTRAL PEAKS>  (1188) 
14 2.34
15 17.14
18 1.53
26 3.35
27 12.95
29 26.23
30 1.17
31 2.48
37 2.93
38 6.84
39 13.46
41 4.53
49 2.13
50 12.28
51 22.81
52 22.48
53 15.16
54 1.77
55 6.43
61 2.64
62 6.22
63 10.58
64 2.29
65 11.23
66 1.62
67 4.99
74 1.47
75 1.16
77 6.36
79 9.14
80 6
81 39.84
82 2.21
91 1.4
93 2.48
95 3.15
108 8.05
109 21.06
110 1.72
119 1.91
123 13.87
124 2.45
136 1.75
137 4.77
151 81.58
152 99.99
153 18.25
154 1.79

>  <PREDICTED SPECTRUM>  (1188) 
15 25
25 6
26 26
27 46
28 12
29 46
33 5
37 27
38 64
39 115
40 11
41 52
42 6
43 14
44 66
45 48
46 1
48 3
49 77
50 217
51 316
52 216
53 306
54 62
55 149
56 44
57 15
59 131
60 21
61 78
62 131
63 239
64 124
65 221
66 150
67 81
68 5
69 57
71 0
72 21
74 88
75 116
76 81
77 284
78 171
79 227
80 150
81 361
82 160
83 106
89 13
90 15
91 155
92 123
93 141
94 72
95 164
96 10
103 24
104 33
105 201
106 139
107 160
108 193
109 305
110 59
111 18
119 60
120 25
121 140
122 64
123 301
124 67
125 48
134 19
135 94
136 137
137 269
138 84
149 41
150 83
151 914
152 999
153 338
154 88

$$$$

     RDKit          2D

 19 18  0  0  0  0  0  0  0  0999 V2000
    4.5466    7.8750    0.0000 C   0  0  0  0  0  0  0  0  0  0  0  0
  -13.6399    7.8750    0.0000 C   0  0  0  0  0  0  0  0  0  0  0  0
  -12.3409   10.1250    0.0000 C   0  0  0  0  0  0  0  0  0  0  0  0
   -7.1447   10.1250    0.0000 C   0  0  0  0  0  0  0  0  0  0  0  0
   -1.9486   10.1250    0.0000 C   0  0  0  0  0  0  0  0  0  0  0  0
    3.2476    8.6250    0.0000 C   0  0  0  0  0  0  0  0  0  0  0  0
   -9.7428    8.6250    0.0000 C   0  0  0  0  0  0  0  0  0  0  0  0
   -4.5466    8.6250    0.0000 C   0  0  0  0  0  0  0  0  0  0  0  0
  -11.0418    7.8750    0.0000 C   0  0  0  0  0  0  0  0  0  0  0  0
   -8.4437    7.8750    0.0000 C   0  0  0  0  0  0  0  0  0  0  0  0
   -5.8457    7.8750    0.0000 C   0  0  0  0  0  0  0  0  0  0  0  0
   -3.2476    7.8750    0.0000 C   0  0  0  0  0  0  0  0  0  0  0  0
   -0.6495    7.8750    0.0000 C   0  0  0  0  0  0  0  0  0  0  0  0
  -12.3409    8.6250    0.0000 C   0  0  0  0  0  0  0  0  0  0  0  0
   -7.1447    8.6250    0.0000 C   0  0  0  0  0  0  0  0  0  0  0  0
   -1.9486    8.6250    0.0000 C   0  0  0  0  0  0  0  0  0  0  0  0
    0.6495    8.6250    0.0000 C   0  0  0  0  0  0  0  0  0  0  0  0
    0.6495   10.1250    0.0000 O   0  0  0  0  0  0  0  0  0  0  0  0
    1.9486    7.8750    0.0000 O   0  0  0  0  0  0  0  0  0  0  0  0
  6  1  1  0
  9  7  1  0
 10  7  1  0
 11  8  1  0
 12  8  1  0
 14  2  1  0
 14  3  1  0
 14  9  2  0
 15  4  1  0
 15 10  1  0
 11 15  2  0
 16  5  1  0
 16 12  1  0
 16 13  1  0
 17 13  1  0
 18 17  2  0
 19  6  1  0
 19 17  1  0
M  END
>  <NAME>  (1189) 
3,7,11-TRIMETHYL-6,10-DODECADIENE-1-CARBOXYLIC ACID ETHYL ESTER

>  <SYNONYMS>  (1189) 


>  <SPECTRUM TYPE>  (1189) 
MS1

>  <INSTRUMENT TYPE>  (1189) 
EI-B

>  <INSTRUMENT>  (1189) 
JEOL JMS-D-300

>  <ION MODE>  (1189) 
P

>  <INCHIKEY>  (1189) 
AVNMXCJYOADGLH-RVDMUPIBSA-N

>  <FORMULA>  (1189) 
C17H30O2

>  <EXACT MASS>  (1189) 
266.2245802

>  <MW>  (1189) 
266

>  <ID>  (1189) 
JP010162

>  <CONTRIBUTOR>  (1189) 
University of Tokyo Team, {Faculty of Engineering, University of Tokyo

>  <COMMENT>  (1189) 
SMILES=CCOC(=O)CC(C)CCC=C(C)CCC=C(C)C
InChI=InChI=1S/C17H30O2/c1-6-19-17(18)13-16(5)12-8-11-15(4)10-7-9-14(2)3/h9,11,16H,6-8,10,12-13H2,1-5H3/b15-11+
computed SMILES=O=C(OCC)CC(C)CCC=C(C)CCC=C(C)C
accession=JP010162
date=2016.01.19 (Created 2008.10.21, modified 2011.05.06)
author=KURARAY CO., LTD.
license=CC BY-NC-SA
exact mass=266.22458
ionization energy=70 eV
ion type=[M]+*
computed spectral entropy=3.06485558177694
computed normalized entropy=0.8253119979160427
SPLASH=splash10-014i-9610000000-8ed9c7b3b13458fe2aae
submitter=submitter = University of Tokyo Team (Faculty of Engineering, University of Tokyo)
MoNA Rating=3.75

>  <NUM PEAKS>  (1189) 
41

>  <MASS SPECTRAL PEAKS>  (1189) 
29 8
41 34
53 8
67 1.1
68 6
69 99.99
70 8
71 0.4
79 6
81 15
82 11
87 0.9
88 3
93 8
94 10
95 1.5
96 5
107 6
108 8
109 9.7
110 19
111 2
113 5
115 0.2
121 6
122 9
123 24
124 0.6
129 6
135 7
137 5
141 0.4
151 9
152 9
153 8
163 0.5
177 12
178 5
223 25
224 0.6
266 8

>  <PREDICTED SPECTRUM>  (1189) 
15 29
25 2
26 31
27 185
28 67
29 270
30 36
31 41
32 7
37 4
38 13
39 205
40 93
41 678
42 184
43 325
44 49
45 79
50 26
51 49
52 43
53 216
54 114
55 347
56 180
57 214
58 55
59 130
60 54
61 108
62 10
63 13
65 75
66 64
67 364
68 348
69 999
70 249
71 183
72 45
73 113
74 59
75 40
77 137
78 68
79 141
80 128
81 548
82 293
83 128
84 35
85 125
86 52
87 147
88 68
89 58
91 115
92 73
93 192
94 106
95 355
96 171
97 104
98 52
99 80
100 31
101 84
103 32
105 72
106 34
107 198
108 165
109 482
110 190
111 112
112 10
113 103
114 49
115 85
121 301
122 238
123 343
124 133
125 113
126 33
127 72
128 3
129 53
130 34
131 25
135 184
136 232
137 262
138 38
139 95
140 1
141 161
142 62
143 68
144 11
147 54
148 12
149 140
150 57
151 124
152 70
153 105
154 36
155 75
163 68
164 43
165 47
166 14
167 63
168 60
169 23
170 22
171 14
177 153
178 82
179 53
181 64
183 119
184 8
191 0
192 36
193 10
195 95
196 76
197 73
198 32
205 41
209 11
210 64
211 24
220 22
221 34
222 4
223 306
224 147
225 37
237 13
251 89
252 28
266 280
267 111
268 49

$$$$

     RDKit          2D

 17 18  0  0  0  0  0  0  0  0999 V2000
   10.0248    0.5423    0.0000 C   0  0  0  0  0  0  0  0  0  0  0  0
    8.7248    1.2923    0.0000 C   0  0  0  0  0  0  0  0  0  0  0  0
   10.0248   -0.9577    0.0000 C   0  0  0  0  0  0  0  0  0  0  0  0
    7.4248    0.5423    0.0000 C   0  0  0  0  0  0  0  0  0  0  0  0
    8.7248   -1.7077    0.0000 C   0  0  0  0  0  0  0  0  0  0  0  0
   -0.3718    0.5406    0.0000 C   0  0  0  0  0  0  0  0  0  0  0  0
    0.9280    1.2910    0.0000 C   0  0  0  0  0  0  0  0  0  0  0  0
    0.9289   -1.7090    0.0000 C   0  0  0  0  0  0  0  0  0  0  0  0
    4.8268   -0.9581    0.0000 C   0  0  0  0  0  0  0  0  0  0  0  0
   -0.3713   -0.9594    0.0000 C   0  0  0  0  0  0  0  0  0  0  0  0
    7.4248   -0.9577    0.0000 C   0  0  0  0  0  0  0  0  0  0  0  0
    2.2282    0.5415    0.0000 C   0  0  0  0  0  0  0  0  0  0  0  0
    2.2287   -0.9585    0.0000 C   0  0  0  0  0  0  0  0  0  0  0  0
    3.5269    1.2921    0.0000 Cl  0  0  0  0  0  0  0  0  0  0  0  0
   -1.6700   -1.7100    0.0000 O   0  0  0  0  0  0  0  0  0  0  0  0
    3.5278   -1.7083    0.0000 O   0  0  0  0  0  0  0  0  0  0  0  0
    6.1259   -1.7079    0.0000 S   0  0  0  0  0  0  0  0  0  0  0  0
  2  1  2  0
  3  1  1  0
  4  2  1  0
  5  3  2  0
  7  6  2  0
 10  6  1  0
 10  8  2  0
 11  4  2  0
 11  5  1  0
 12  7  1  0
 13  8  1  0
 13 12  2  0
 14 12  1  0
 15 10  1  0
 16  9  1  0
 16 13  1  0
 17  9  1  0
 17 11  1  0
M  END
>  <NAME>  (1190) 
4-CHLORO-3-PHENYLTHIOMETHOXYPHENOL

>  <SYNONYMS>  (1190) 


>  <SPECTRUM TYPE>  (1190) 
MS1

>  <INSTRUMENT TYPE>  (1190) 
EI-B

>  <INSTRUMENT>  (1190) 
JEOL JMS-D-300

>  <ION MODE>  (1190) 
P

>  <INCHIKEY>  (1190) 
QKTJORZNGHGNDS-UHFFFAOYSA-N

>  <FORMULA>  (1190) 
C13H11ClO2S

>  <EXACT MASS>  (1190) 
266.016828272

>  <MW>  (1190) 
266

>  <ID>  (1190) 
JP010160

>  <CONTRIBUTOR>  (1190) 
University of Tokyo Team, {Faculty of Engineering, University of Tokyo

>  <COMMENT>  (1190) 
SMILES=Oc(c1)cc(OCSc(c2)cccc2)c(Cl)c1
InChI=InChI=1S/C13H11ClO2S/c14-12-7-6-10(15)8-13(12)16-9-17-11-4-2-1-3-5-11/h1-8,15H,9H2
computed SMILES=ClC1=CC=C(O)C=C1OCSC=2C=CC=CC2
accession=JP010160
date=2016.01.19 (Created 2008.10.21, modified 2011.05.06)
author=KURARAY CO., LTD.
license=CC BY-NC-SA
exact mass=266.01683
ionization energy=70 eV
ion type=[M]+*
computed spectral entropy=1.1281599281155945
computed normalized entropy=0.5134477102396635
SPLASH=splash10-00di-2900000000-54c22602eaa0bd797c35
submitter=submitter = University of Tokyo Team (Faculty of Engineering, University of Tokyo)
MoNA Rating=3.75

>  <NUM PEAKS>  (1190) 
9

>  <MASS SPECTRAL PEAKS>  (1190) 
45 19
51 4
77 6
79 0.3
123 99.99
124 8
125 4
231 0.6
266 3

>  <PREDICTED SPECTRUM>  (1190) 
14 5
15 39
18 15
25 5
26 103
27 287
28 106
29 153
36 48
37 89
38 194
39 514
40 110
41 289
42 97
43 114
44 73
45 698
46 58
47 278
49 125
50 364
51 539
52 185
53 319
54 44
55 156
56 22
57 229
58 173
59 72
60 12
61 43
62 150
63 483
64 184
65 732
66 344
67 63
69 407
70 90
71 142
73 254
74 248
75 263
76 154
77 610
78 186
79 262
80 99
81 313
82 150
83 125
84 267
85 199
86 52
87 5
91 16
92 30
93 135
95 34
96 138
97 265
98 142
99 274
103 59
104 73
105 340
109 896
110 999
111 423
112 264
113 96
115 113
116 51
121 289
122 39
123 791
124 50
125 104
126 150
127 29
128 56
129 303
131 36
138 95
139 74
140 21
141 26
143 208
147 103
150 82
157 417
158 99
159 116
189 105
190 169
202 104
203 176
204 116
205 16
231 168
266 913
267 333
268 626
269 233
270 164

$$$$

     RDKit          2D

 19 18  0  0  0  0  0  0  0  0999 V2000
    4.5466    7.8750    0.0000 C   0  0  0  0  0  0  0  0  0  0  0  0
  -13.6399    7.8750    0.0000 C   0  0  0  0  0  0  0  0  0  0  0  0
  -12.3409   10.1250    0.0000 C   0  0  0  0  0  0  0  0  0  0  0  0
   -7.1447   10.1250    0.0000 C   0  0  0  0  0  0  0  0  0  0  0  0
   -1.9486   10.1250    0.0000 C   0  0  0  0  0  0  0  0  0  0  0  0
    3.2476    8.6250    0.0000 C   0  0  0  0  0  0  0  0  0  0  0  0
   -9.7428    8.6250    0.0000 C   0  0  0  0  0  0  0  0  0  0  0  0
   -4.5466    8.6250    0.0000 C   0  0  0  0  0  0  0  0  0  0  0  0
  -11.0418    7.8750    0.0000 C   0  0  0  0  0  0  0  0  0  0  0  0
   -8.4437    7.8750    0.0000 C   0  0  0  0  0  0  0  0  0  0  0  0
   -5.8457    7.8750    0.0000 C   0  0  0  0  0  0  0  0  0  0  0  0
   -3.2476    7.8750    0.0000 C   0  0  0  0  0  0  0  0  0  0  0  0
   -0.6495    7.8750    0.0000 C   0  0  0  0  0  0  0  0  0  0  0  0
  -12.3409    8.6250    0.0000 C   0  0  0  0  0  0  0  0  0  0  0  0
   -7.1447    8.6250    0.0000 C   0  0  0  0  0  0  0  0  0  0  0  0
   -1.9486    8.6250    0.0000 C   0  0  0  0  0  0  0  0  0  0  0  0
    0.6495    8.6250    0.0000 C   0  0  0  0  0  0  0  0  0  0  0  0
    0.6495   10.1250    0.0000 O   0  0  0  0  0  0  0  0  0  0  0  0
    1.9486    7.8750    0.0000 O   0  0  0  0  0  0  0  0  0  0  0  0
  6  1  1  0
  9  7  1  0
 10  7  1  0
 11  8  1  0
 12  8  1  0
 14  2  1  0
 14  3  1  0
 14  9  2  0
 15  4  1  0
 15 10  1  0
 11 15  2  0
 16  5  1  0
 16 12  1  0
 13 16  2  0
 17 13  1  0
 18 17  2  0
 19  6  1  0
 19 17  1  0
M  END
>  <NAME>  (1191) 
3,7,11-TRIMETHYL-(2,6E,10E)-DODECATRIENE-1-CARBOXYLIC ACID ETHYL ESTER

>  <SYNONYMS>  (1191) 


>  <SPECTRUM TYPE>  (1191) 
MS1

>  <INSTRUMENT TYPE>  (1191) 
EI-B

>  <INSTRUMENT>  (1191) 
JEOL JMS-D-300

>  <ION MODE>  (1191) 
P

>  <INCHIKEY>  (1191) 
RAVLTUCAFRTDRY-NWFDBUFXSA-N

>  <FORMULA>  (1191) 
C17H28O2

>  <EXACT MASS>  (1191) 
264.208930136

>  <MW>  (1191) 
264

>  <ID>  (1191) 
JP010159

>  <CONTRIBUTOR>  (1191) 
University of Tokyo Team, {Faculty of Engineering, University of Tokyo

>  <COMMENT>  (1191) 
SMILES=CCOC(=O)C=C(C)CCC=C(C)CCC=C(C)C
InChI=InChI=1S/C17H28O2/c1-6-19-17(18)13-16(5)12-8-11-15(4)10-7-9-14(2)3/h9,11,13H,6-8,10,12H2,1-5H3/b15-11+,16-13+
computed SMILES=O=C(OCC)C=C(C)CCC=C(C)CCC=C(C)C
accession=JP010159
date=2016.01.19 (Created 2008.10.21, modified 2011.05.06)
author=KURARAY CO., LTD.
license=CC BY-NC-SA
exact mass=264.20893
ionization energy=70 eV
ion type=[M]+*
computed spectral entropy=2.850162217995916
computed normalized entropy=0.7577799984913455
SPLASH=splash10-014i-9500000000-cf136313dbaec08154d9
submitter=submitter = University of Tokyo Team (Faculty of Engineering, University of Tokyo)
MoNA Rating=3.75

>  <NUM PEAKS>  (1191) 
43

>  <MASS SPECTRAL PEAKS>  (1191) 
27 3
29 8
39 4
41 3.5
43 6
53 6
55 7
67 0.6
68 4
69 99.99
70 5
77 0.2
79 4
81 25
82 13
83 0.6
91 2
93 6
95 7
99 0.2
100 10
107 5
108 2
109 0.5
113 2
121 21
122 5
123 0.8
125 2
128 44
129 3
135 0.2
136 9
137 9
141 4
147 0.4
149 3
153 3
175 2
191 0.3
219 7
221 4
264 3

>  <PREDICTED SPECTRUM>  (1191) 
26 23
27 150
28 43
29 208
30 7
31 18
39 172
40 51
41 670
42 127
43 314
44 15
45 45
50 5
51 57
52 27
53 245
54 155
55 280
56 84
57 140
58 53
59 52
60 76
65 124
66 37
67 357
68 221
69 999
70 152
71 152
72 47
77 207
78 38
79 209
80 146
81 689
82 385
83 184
84 69
85 102
86 10
91 210
92 96
93 315
94 92
95 274
96 108
97 83
98 14
99 154
100 118
101 44
103 12
105 184
106 78
107 303
108 171
109 390
110 103
111 135
112 25
113 62
114 108
115 7
119 75
120 78
121 392
122 171
123 286
124 83
125 104
126 25
127 76
128 288
129 148
133 112
134 51
135 247
136 265
137 267
138 107
139 166
140 101
141 148
142 39
143 29
145 35
147 180
148 105
149 232
150 79
151 103
152 32
153 119
154 56
161 39
163 40
164 5
166 28
175 152
176 60
177 57
178 12
181 10
182 0
189 10
190 102
191 90
193 44
195 68
203 42
218 127
219 227
220 70
221 187
222 39
249 60
264 193
265 67

$$$$

     RDKit          2D

 19 18  0  0  0  0  0  0  0  0999 V2000
    4.5466    7.8750    0.0000 C   0  0  0  0  0  0  0  0  0  0  0  0
  -13.6399    7.8750    0.0000 C   0  0  0  0  0  0  0  0  0  0  0  0
  -12.3409   10.1250    0.0000 C   0  0  0  0  0  0  0  0  0  0  0  0
   -7.1447   10.1250    0.0000 C   0  0  0  0  0  0  0  0  0  0  0  0
   -1.9486   10.1250    0.0000 C   0  0  0  0  0  0  0  0  0  0  0  0
    3.2476    8.6250    0.0000 C   0  0  0  0  0  0  0  0  0  0  0  0
   -9.7428    8.6250    0.0000 C   0  0  0  0  0  0  0  0  0  0  0  0
   -4.5466    8.6250    0.0000 C   0  0  0  0  0  0  0  0  0  0  0  0
  -11.0418    7.8750    0.0000 C   0  0  0  0  0  0  0  0  0  0  0  0
   -8.4437    7.8750    0.0000 C   0  0  0  0  0  0  0  0  0  0  0  0
   -5.8457    7.8750    0.0000 C   0  0  0  0  0  0  0  0  0  0  0  0
   -3.2476    7.8750    0.0000 C   0  0  0  0  0  0  0  0  0  0  0  0
   -0.6495    7.8750    0.0000 C   0  0  0  0  0  0  0  0  0  0  0  0
  -12.3409    8.6250    0.0000 C   0  0  0  0  0  0  0  0  0  0  0  0
   -7.1447    8.6250    0.0000 C   0  0  0  0  0  0  0  0  0  0  0  0
   -1.9486    8.6250    0.0000 C   0  0  0  0  0  0  0  0  0  0  0  0
    0.6495    8.6250    0.0000 C   0  0  0  0  0  0  0  0  0  0  0  0
    0.6495   10.1250    0.0000 O   0  0  0  0  0  0  0  0  0  0  0  0
    1.9486    7.8750    0.0000 O   0  0  0  0  0  0  0  0  0  0  0  0
  6  1  1  0
  9  7  1  0
 10  7  1  0
 11  8  1  0
 12  8  1  0
 14  2  1  0
 14  3  1  0
 14  9  2  0
 15  4  1  0
 15 10  1  0
 11 15  2  0
 16  5  1  0
 16 12  1  0
 13 16  2  0
 17 13  1  0
 18 17  2  0
 19  6  1  0
 19 17  1  0
M  END
>  <NAME>  (1192) 
3,7,11-TRIMETHYL-(2,6E,10Z)-DODECATRIENE-1-CARBOXYLIC ACID ETHYL ESTER

>  <SYNONYMS>  (1192) 


>  <SPECTRUM TYPE>  (1192) 
MS1

>  <INSTRUMENT TYPE>  (1192) 
EI-B

>  <INSTRUMENT>  (1192) 
JEOL JMS-D-300

>  <ION MODE>  (1192) 
P

>  <INCHIKEY>  (1192) 
RAVLTUCAFRTDRY-NWFDBUFXSA-N

>  <FORMULA>  (1192) 
C17H28O2

>  <EXACT MASS>  (1192) 
264.208930136

>  <MW>  (1192) 
264

>  <ID>  (1192) 
JP010158

>  <CONTRIBUTOR>  (1192) 
University of Tokyo Team, {Faculty of Engineering, University of Tokyo

>  <COMMENT>  (1192) 
computed SMILES=O=C(OCC)C=C(C)CCC=C(C)CCC=C(C)C
SMILES=CCOC(=O)C=C(C)CCC=C(C)CCC=C(C)C
InChI=InChI=1S/C17H28O2/c1-6-19-17(18)13-16(5)12-8-11-15(4)10-7-9-14(2)3/h9,11,13H,6-8,10,12H2,1-5H3/b15-11+,16-13+
date=2016.01.19 (Created 2008.10.21, modified 2011.05.06)
author=KURARAY CO., LTD.
license=CC BY-NC-SA
exact mass=264.20893
ionization energy=70 eV
computed normalized entropy=0.7805454369244118
ion type=[M]+*
computed spectral entropy=3.053511706030263
accession=JP010158
SPLASH=splash10-017i-9500000000-b1e0c4e6fb81d818d74a
submitter=submitter = University of Tokyo Team (Faculty of Engineering, University of Tokyo)
MoNA Rating=3.75

>  <NUM PEAKS>  (1192) 
50

>  <MASS SPECTRAL PEAKS>  (1192) 
27 4
29 10
39 6
41 4.2
42 2
43 8
53 7
54 0.4
55 8
65 2
67 9
68 0.6
69 99.99
70 6
77 3
79 0.5
81 44
82 19
83 7
91 0.4
93 8
95 11
99 2
100 1.3
107 10
108 3
109 9
113 0.3
121 22
122 5
123 10
125 0.2
128 48
129 4
134 2
135 0.4
136 5
137 11
139 3
141 0.2
147 4
149 3
153 3
190 0.2
191 4
203 3
218 4
219 0.8
221 5
264 3

>  <PREDICTED SPECTRUM>  (1192) 
26 23
27 150
28 43
29 208
30 7
31 18
39 172
40 51
41 670
42 127
43 314
44 15
45 45
50 5
51 57
52 27
53 245
54 155
55 280
56 84
57 140
58 53
59 52
60 76
65 124
66 37
67 357
68 221
69 999
70 152
71 152
72 47
77 207
78 38
79 209
80 146
81 689
82 385
83 184
84 69
85 102
86 10
91 210
92 96
93 315
94 92
95 274
96 108
97 83
98 14
99 154
100 118
101 44
103 12
105 184
106 78
107 303
108 171
109 390
110 103
111 135
112 25
113 62
114 108
115 7
119 75
120 78
121 392
122 171
123 286
124 83
125 104
126 25
127 76
128 288
129 148
133 112
134 51
135 247
136 265
137 267
138 107
139 166
140 101
141 148
142 39
143 29
145 35
147 180
148 105
149 232
150 79
151 103
152 32
153 119
154 56
161 39
163 40
164 5
166 28
175 152
176 60
177 57
178 12
181 10
182 0
189 10
190 102
191 90
193 44
195 68
203 42
218 127
219 227
220 70
221 187
222 39
249 60
264 193
265 67

$$$$

     RDKit          2D

 19 20  0  0  0  0  0  0  0  0999 V2000
   -3.7389    1.4102    0.0000 C   0  0  0  0  0  0  0  0  0  0  0  0
   -1.1400    2.9100    0.0000 C   0  0  0  0  0  0  0  0  0  0  0  0
   -1.1400   -3.0900    0.0000 C   0  0  0  0  0  0  0  0  0  0  0  0
    4.2372    0.3997    0.0000 C   0  0  0  0  0  0  0  0  0  0  0  0
   -5.0381   -0.8404    0.0000 C   0  0  0  0  0  0  0  0  0  0  0  0
    1.4600   -1.5900    0.0000 C   0  0  0  0  0  0  0  0  0  0  0  0
    2.7600   -0.8400    0.0000 C   0  0  0  0  0  0  0  0  0  0  0  0
    3.2727    2.0696    0.0000 C   0  0  0  0  0  0  0  0  0  0  0  0
    4.7499    2.3304    0.0000 C   0  0  0  0  0  0  0  0  0  0  0  0
   -2.4400    0.6600    0.0000 C   0  0  0  0  0  0  0  0  0  0  0  0
   -1.1400    1.4100    0.0000 C   0  0  0  0  0  0  0  0  0  0  0  0
   -1.1400   -1.5900    0.0000 C   0  0  0  0  0  0  0  0  0  0  0  0
    0.1600   -0.8400    0.0000 C   0  0  0  0  0  0  0  0  0  0  0  0
   -2.4400   -0.8400    0.0000 C   0  0  0  0  0  0  0  0  0  0  0  0
    0.1600    0.6600    0.0000 C   0  0  0  0  0  0  0  0  0  0  0  0
    2.7600    0.6600    0.0000 C   0  0  0  0  0  0  0  0  0  0  0  0
    5.2626    3.7401    0.0000 O   0  0  0  0  0  0  0  0  0  0  0  0
   -3.7389   -1.5902    0.0000 O   0  0  0  0  0  0  0  0  0  0  0  0
    1.4600    1.4100    0.0000 O   0  0  0  0  0  0  0  0  0  0  0  0
  7  6  1  0
  9  8  1  0
 10  1  1  0
 11  2  1  0
 11 10  1  0
 12  3  1  0
 13  6  1  0
 13 12  2  0
 14 10  2  0
 14 12  1  0
 15 11  2  0
 15 13  1  0
 16  4  1  0
 16  7  1  0
 16  8  1  0
 17  9  1  0
 18  5  1  0
 18 14  1  0
 19 15  1  0
 19 16  1  0
M  END
>  <NAME>  (1193) 
2-HYDROXYETHYL-6-METHOXY-2,5,7,8-TETRAMETHYL-3,4-DIHYDRO-2H-1-BENZOPYRAN

>  <SYNONYMS>  (1193) 


>  <SPECTRUM TYPE>  (1193) 
MS1

>  <INSTRUMENT TYPE>  (1193) 
EI-B

>  <INSTRUMENT>  (1193) 
JEOL JMS-D-300

>  <ION MODE>  (1193) 
P

>  <INCHIKEY>  (1193) 
VNYSURHHUVEARS-UHFFFAOYSA-N

>  <FORMULA>  (1193) 
C16H24O3

>  <EXACT MASS>  (1193) 
264.17254462799997

>  <MW>  (1193) 
264

>  <ID>  (1193) 
JP010155

>  <CONTRIBUTOR>  (1193) 
University of Tokyo Team, {Faculty of Engineering, University of Tokyo

>  <COMMENT>  (1193) 
SMILES=OCCC(C)(C2)Oc(c(C)1)c(C2)c(C)c(OC)c(C)1
InChI=InChI=1S/C16H24O3/c1-10-11(2)15-13(12(3)14(10)18-5)6-7-16(4,19-15)8-9-17/h17H,6-9H2,1-5H3
computed SMILES=OCCC1(OC=2C(=C(C(OC)=C(C2CC1)C)C)C)C
computed normalized entropy=0.732286297369472
accession=JP010155
date=2016.01.19 (Created 2008.10.21, modified 2011.05.06)
author=KURARAY CO., LTD.
license=CC BY-NC-SA
exact mass=264.17254
ionization energy=70 eV
ion type=[M]+*
computed spectral entropy=3.0898876741453694
SPLASH=splash10-004i-2940000000-0ec8899a5e5c940f88c0
submitter=submitter = University of Tokyo Team (Faculty of Engineering, University of Tokyo)
MoNA Rating=3.75

>  <NUM PEAKS>  (1193) 
68

>  <MASS SPECTRAL PEAKS>  (1193) 
27 3
28 8
29 3
31 0.2
39 5
41 8
43 7
53 0.8
55 6
57 2
65 4
67 0.4
69 2
77 6
79 5
81 0.2
85 6
91 11
93 7
94 0.2
103 2
105 6
107 7
115 0.2
117 2
119 4
121 4
133 0.2
135 15
136 4
139 2
145 0.2
147 3
149 4
150 8
151 0.4
152 4
159 3
161 2
163 0.3
165 4
173 2
175 4
176 0.2
177 4
178 91
179 99.99
180 1.2
187 2
189 4
190 2
191 0.6
202 2
203 6
204 2
216 0.3
217 6
219 11
231 23
232 0.4
234 3
245 1
246 8
247 0.1
249 1
263 1
264 72
265 12

>  <PREDICTED SPECTRUM>  (1193) 
41 186
42 4
43 239
44 23
51 17
53 120
55 192
57 120
65 114
67 66
69 82
71 76
77 155
78 6
79 139
81 29
83 5
91 274
92 25
93 136
94 0
103 40
105 208
107 125
115 186
116 54
117 100
119 157
120 5
121 235
122 37
128 22
129 64
131 79
132 12
133 136
134 41
135 356
136 277
137 145
139 64
145 87
147 178
148 64
149 97
150 55
151 48
152 139
159 144
160 146
161 339
162 115
163 209
164 245
165 81
173 124
174 35
175 214
176 228
177 344
178 828
179 839
180 95
187 157
188 80
189 150
191 78
192 51
203 205
204 103
205 132
206 53
215 29
216 108
217 264
218 159
219 223
220 121
231 493
232 64
233 106
234 45
246 370
247 31
249 37
264 999
265 348
266 50

$$$$

     RDKit          2D

 19 19  0  0  0  0  0  0  0  0999 V2000
    4.6756   -2.0594    0.0000 C   0  0  0  0  0  0  0  0  0  0  0  0
    7.2734    2.4415    0.0000 C   0  0  0  0  0  0  0  0  0  0  0  0
   -1.8200    0.1896    0.0000 C   0  0  0  0  0  0  0  0  0  0  0  0
    8.9082   -1.7079    0.0000 C   0  0  0  0  0  0  0  0  0  0  0  0
   10.8364   -1.7079    0.0000 C   0  0  0  0  0  0  0  0  0  0  0  0
   11.1723    1.6912    0.0000 C   0  0  0  0  0  0  0  0  0  0  0  0
    9.8723    2.4412    0.0000 C   0  0  0  0  0  0  0  0  0  0  0  0
    5.9742    0.1908    0.0000 C   0  0  0  0  0  0  0  0  0  0  0  0
    7.2734   -0.5590    0.0000 C   0  0  0  0  0  0  0  0  0  0  0  0
    3.3762    0.1904    0.0000 C   0  0  0  0  0  0  0  0  0  0  0  0
   11.1723    0.1912    0.0000 C   0  0  0  0  0  0  0  0  0  0  0  0
    2.0772   -0.5598    0.0000 C   0  0  0  0  0  0  0  0  0  0  0  0
    4.6753   -0.5594    0.0000 C   0  0  0  0  0  0  0  0  0  0  0  0
    8.5723    1.6912    0.0000 C   0  0  0  0  0  0  0  0  0  0  0  0
   -0.5208   -0.5602    0.0000 C   0  0  0  0  0  0  0  0  0  0  0  0
    8.5723    0.1912    0.0000 C   0  0  0  0  0  0  0  0  0  0  0  0
    9.8723   -0.5588    0.0000 C   0  0  0  0  0  0  0  0  0  0  0  0
   -0.5206   -2.0602    0.0000 O   0  0  0  0  0  0  0  0  0  0  0  0
    0.7781    0.1900    0.0000 O   0  0  0  0  0  0  0  0  0  0  0  0
  7  6  1  0
  8  9  2  0
 11  6  1  0
 12 10  1  0
 13  1  1  0
 13  8  1  0
 10 13  2  0
 14  2  1  0
 14  7  1  0
 15  3  1  0
 16  9  1  0
 16 14  2  0
 17  4  1  0
 17  5  1  0
 17 11  1  0
 17 16  1  0
 18 15  2  0
 19 12  1  0
 19 15  1  0
M  END
>  <NAME>  (1194) 
5-(2,2,6-TRIMETHYLCYCLOHEXENEYL)-3-METHYL--2,4-PENTADIENYL ACETATE

>  <SYNONYMS>  (1194) 


>  <SPECTRUM TYPE>  (1194) 
MS1

>  <INSTRUMENT TYPE>  (1194) 
EI-B

>  <INSTRUMENT>  (1194) 
JEOL JMS-D-300

>  <ION MODE>  (1194) 
P

>  <INCHIKEY>  (1194) 
HSKLNRJFWBXQNW-PEGOPYGQSA-N

>  <FORMULA>  (1194) 
C17H26O2

>  <EXACT MASS>  (1194) 
262.193280072

>  <MW>  (1194) 
262

>  <ID>  (1194) 
JP010153

>  <CONTRIBUTOR>  (1194) 
University of Tokyo Team, {Faculty of Engineering, University of Tokyo

>  <COMMENT>  (1194) 
SMILES=CC(=O)OCC=C(C)C=CC(=C(C)1)C(C)(C)CCC1
InChI=InChI=1S/C17H26O2/c1-13(10-12-19-15(3)18)8-9-16-14(2)7-6-11-17(16,4)5/h8-10H,6-7,11-12H2,1-5H3/b9-8+,13-10+
computed SMILES=O=C(OCC=C(C=CC1=C(C)CCCC1(C)C)C)C
accession=JP010153
date=2016.01.19 (Created 2008.10.21, modified 2011.05.06)
author=KURARAY CO., LTD.
license=CC BY-NC-SA
exact mass=262.19328
ionization energy=70 eV
ion type=[M]+*
computed spectral entropy=3.6297065484441515
computed normalized entropy=0.8307014229257349
SPLASH=splash10-001l-8900000000-2ace8053c8dcb0a613a2
submitter=submitter = University of Tokyo Team (Faculty of Engineering, University of Tokyo)
MoNA Rating=3.75

>  <NUM PEAKS>  (1194) 
79

>  <MASS SPECTRAL PEAKS>  (1194) 
27 4
28 44
29 6
32 0.9
39 6
41 33
43 58
44 0.2
45 6
53 8
55 27
57 0.3
59 2
65 5
67 8
69 2.7
71 2
73 4
77 15
78 3.1
79 13
80 3
81 19
82 0.2
83 8
85 3
91 25
92 0.4
93 15
94 3
95 17
96 0.2
97 3
103 3
105 3
106 0.4
107 16
108 2
109 7
115 0.5
116 2
117 13
118 4
119 5.6
120 11
121 10
122 5
123 0.5
128 3
129 4
130 5
131 3.3
132 25
133 99.99
134 16
135 0.5
137 2
143 3
144 3
145 2.9
146 31
147 10
157 2
158 0.2
159 23
160 4
161 4
172 0.2
173 4
174 2
175 4
187 4.2
188 6
189 2
202 11
203 0.9
247 1
262 8
263 2

>  <PREDICTED SPECTRUM>  (1194) 
14 3
15 11
17 7
18 2
26 10
27 147
28 90
29 208
39 219
40 92
41 529
42 115
43 992
44 156
45 148
51 109
52 75
53 299
54 102
55 388
56 92
57 178
58 58
59 52
60 28
61 40
63 33
64 42
65 207
66 82
67 400
68 106
69 350
70 79
71 137
73 31
77 319
78 138
79 435
80 150
81 392
82 145
83 148
84 6
85 33
86 15
87 9
91 533
92 205
93 491
94 154
95 424
96 111
97 79
99 18
103 139
104 95
105 568
106 231
107 493
108 173
109 361
110 22
111 51
115 159
116 55
117 305
118 187
119 503
120 252
121 366
122 155
123 311
125 1
127 69
128 194
129 227
130 116
131 481
132 314
133 506
134 224
135 168
136 102
137 83
139 15
141 30
142 3
143 202
144 142
145 576
146 358
147 424
148 65
149 108
151 16
156 14
157 195
158 112
159 583
160 247
161 180
163 52
165 2
171 106
172 48
173 297
174 180
175 135
176 22
177 67
178 37
185 51
187 999
188 333
189 321
190 96
191 96
192 18
201 64
202 583
203 256
204 65
205 109
206 31
219 4
220 81
247 82
262 499
263 207
264 23

$$$$

     RDKit          2D

 19 20  0  0  0  0  0  0  0  0999 V2000
  -10.3942   -0.7512    0.0000 C   0  0  0  0  0  0  0  0  0  0  0  0
    4.0772    0.4897    0.0000 C   0  0  0  0  0  0  0  0  0  0  0  0
    3.1127    2.1596    0.0000 C   0  0  0  0  0  0  0  0  0  0  0  0
   -9.0951   -1.5010    0.0000 C   0  0  0  0  0  0  0  0  0  0  0  0
   -7.7962   -0.7508    0.0000 C   0  0  0  0  0  0  0  0  0  0  0  0
   -6.4970   -1.5006    0.0000 C   0  0  0  0  0  0  0  0  0  0  0  0
   -5.1981   -0.7504    0.0000 C   0  0  0  0  0  0  0  0  0  0  0  0
   -3.8989   -1.5002    0.0000 C   0  0  0  0  0  0  0  0  0  0  0  0
    1.3000   -1.5000    0.0000 C   0  0  0  0  0  0  0  0  0  0  0  0
    2.6000   -0.7500    0.0000 C   0  0  0  0  0  0  0  0  0  0  0  0
   -1.3000   -1.5000    0.0000 C   0  0  0  0  0  0  0  0  0  0  0  0
   -1.3000    1.5000    0.0000 C   0  0  0  0  0  0  0  0  0  0  0  0
   -2.6000   -0.7500    0.0000 C   0  0  0  0  0  0  0  0  0  0  0  0
    0.0000   -0.7500    0.0000 C   0  0  0  0  0  0  0  0  0  0  0  0
   -2.6000    0.7500    0.0000 C   0  0  0  0  0  0  0  0  0  0  0  0
    0.0000    0.7500    0.0000 C   0  0  0  0  0  0  0  0  0  0  0  0
    2.6000    0.7500    0.0000 C   0  0  0  0  0  0  0  0  0  0  0  0
   -3.8989    1.5002    0.0000 O   0  0  0  0  0  0  0  0  0  0  0  0
    1.3000    1.5000    0.0000 O   0  0  0  0  0  0  0  0  0  0  0  0
  4  1  1  0
  5  4  1  0
  6  5  1  0
  7  6  1  0
  8  7  1  0
 10  9  1  0
 13  8  1  0
 13 11  1  0
 14  9  1  0
 14 11  2  0
 15 12  1  0
 15 13  2  0
 16 12  2  0
 16 14  1  0
 17  2  1  0
 17  3  1  0
 17 10  1  0
 18 15  1  0
 19 16  1  0
 19 17  1  0
M  END
>  <NAME>  (1195) 
2,2-DIMETHYL-6-HEXYL-7-HYDROXY3,4-DIHYDRO-2H-1-BENZOPYRAN

>  <SYNONYMS>  (1195) 


>  <SPECTRUM TYPE>  (1195) 
MS1

>  <INSTRUMENT TYPE>  (1195) 
EI-B

>  <INSTRUMENT>  (1195) 
JEOL JMS-D-300

>  <ION MODE>  (1195) 
P

>  <INCHIKEY>  (1195) 
BTRMVFVWPYRKRX-UHFFFAOYSA-N

>  <FORMULA>  (1195) 
C17H26O2

>  <EXACT MASS>  (1195) 
262.193280072

>  <MW>  (1195) 
262

>  <ID>  (1195) 
JP010152

>  <CONTRIBUTOR>  (1195) 
University of Tokyo Team, {Faculty of Engineering, University of Tokyo

>  <COMMENT>  (1195) 
SMILES=CCCCCCc(c1)c(O)cc(O2)c(CCC(C)(C)2)1
InChI=InChI=1S/C17H26O2/c1-4-5-6-7-8-13-11-14-9-10-17(2,3)19-16(14)12-15(13)18/h11-12,18H,4-10H2,1-3H3
computed SMILES=OC=1C=C2OC(C)(C)CCC2=CC1CCCCCC
accession=JP010152
date=2016.01.19 (Created 2008.10.21, modified 2011.05.06)
author=KURARAY CO., LTD.
license=CC BY-NC-SA
exact mass=262.19328
ionization energy=70 eV
ion type=[M]+*
computed spectral entropy=2.8578191788353218
computed normalized entropy=0.7038195515643356
SPLASH=splash10-000f-1930000000-1113e571b23f8f426c37
submitter=submitter = University of Tokyo Team (Faculty of Engineering, University of Tokyo)
MoNA Rating=3.75

>  <NUM PEAKS>  (1195) 
58

>  <MASS SPECTRAL PEAKS>  (1195) 
39 0.5
40 0.5
41 3
43 0.5
53 2
55 4
57 2
65 0.3
67 1
69 2
77 5
78 0.2
79 5
81 1
83 1
91 0.4
93 3
95 0.5
103 3
105 0.2
107 3
109 3
115 3
121 0.2
122 3
123 2
135 51
136 1
137 9
147 3
148 0.5
149 0.4
150 3
151 0.5
159 3
161 0.4
163 3
165 14
166 3
173 0.4
175 4
189 4
191 99.99
192 1.3
202 4
203 2
205 3
206 0.6
207 24
208 4
215 2
217 0.2
221 11
222 4
236 3
258 0.4
262 26
263 6

>  <PREDICTED SPECTRUM>  (1195) 
27 84
28 8
29 116
39 131
40 27
41 363
42 73
43 274
44 75
45 41
51 57
52 43
53 115
55 262
56 73
57 168
63 57
64 18
65 109
66 24
67 117
69 253
70 58
71 41
76 1
77 198
78 124
79 161
80 13
81 90
83 81
84 10
89 33
90 63
91 265
92 75
93 157
94 14
95 133
97 11
102 11
103 58
105 120
106 5
107 183
108 14
109 96
115 89
116 59
117 37
119 81
121 149
122 41
123 132
124 52
125 7
128 8
133 79
134 8
135 379
136 168
137 115
145 28
147 127
149 186
150 107
151 170
153 1
155 2
156 5
157 0
159 5
161 119
163 255
164 112
165 129
173 85
174 12
175 119
176 55
177 128
178 30
185 0
189 101
190 22
191 999
192 341
193 180
205 76
206 151
207 355
208 62
217 0
247 28
260 16
262 597
263 289
264 24

$$$$

     RDKit          2D

 16 16  0  0  0  0  0  0  0  0999 V2000
   -2.9238    0.9379    0.0000 C   0  0  0  0  0  0  0  0  0  0  0  0
    6.1704   -1.3125    0.0000 C   0  0  0  0  0  0  0  0  0  0  0  0
    0.9748   -4.3133    0.0000 C   0  0  0  0  0  0  0  0  0  0  0  0
    0.9738   -1.3117    0.0000 C   0  0  0  0  0  0  0  0  0  0  0  0
   -1.6246    0.1881    0.0000 C   0  0  0  0  0  0  0  0  0  0  0  0
    4.8714   -2.0625    0.0000 C   0  0  0  0  0  0  0  0  0  0  0  0
   -0.3248   -3.5625    0.0000 C   0  0  0  0  0  0  0  0  0  0  0  0
    2.2738   -3.5633    0.0000 C   0  0  0  0  0  0  0  0  0  0  0  0
   -0.3252   -2.0617    0.0000 C   0  0  0  0  0  0  0  0  0  0  0  0
    2.2733   -2.0625    0.0000 C   0  0  0  0  0  0  0  0  0  0  0  0
   -1.6238   -4.3125    0.0000 Cl  0  0  0  0  0  0  0  0  0  0  0  0
    3.5730   -4.3131    0.0000 Cl  0  0  0  0  0  0  0  0  0  0  0  0
   -1.6244   -1.3119    0.0000 N   0  0  0  0  0  0  0  0  0  0  0  0
   -0.3257    0.9383    0.0000 O   0  0  0  0  0  0  0  0  0  0  0  0
    4.8714   -3.5625    0.0000 O   0  0  0  0  0  0  0  0  0  0  0  0
    3.5724   -1.3125    0.0000 O   0  0  0  0  0  0  0  0  0  0  0  0
  5  1  1  0
  6  2  1  0
  7  3  2  0
  8  3  1  0
  9  4  2  0
  9  7  1  0
 10  4  1  0
 10  8  2  0
 11  7  1  0
 12  8  1  0
 13  5  2  3
 13  9  1  0
 14  5  1  0
 15  6  2  0
 16  6  1  0
 16 10  1  0
M  END
>  <NAME>  (1196) 
1-ACETOXY-3-ACETYLAMINO-4,6-DICHLOROBENZENE

>  <SYNONYMS>  (1196) 


>  <SPECTRUM TYPE>  (1196) 
MS1

>  <INSTRUMENT TYPE>  (1196) 
EI-B

>  <INSTRUMENT>  (1196) 
JEOL JMS-D-300

>  <ION MODE>  (1196) 
P

>  <INCHIKEY>  (1196) 
PJSPXYNFWNCCNO-UHFFFAOYSA-N

>  <FORMULA>  (1196) 
C10H9Cl2NO3

>  <EXACT MASS>  (1196) 
260.995948508

>  <MW>  (1196) 
261

>  <ID>  (1196) 
JP010151

>  <CONTRIBUTOR>  (1196) 
University of Tokyo Team, {Faculty of Engineering, University of Tokyo

>  <COMMENT>  (1196) 
SMILES=CC(=O)Nc(c1)c(Cl)cc(Cl)c(OC(C)=O)1
InChI=InChI=1S/C10H9Cl2NO3/c1-5(14)13-9-4-10(16-6(2)15)8(12)3-7(9)11/h3-4H,1-2H3,(H,13,14)
computed SMILES=O=C(OC1=CC(N=C(O)C)=C(Cl)C=C1Cl)C
accession=JP010151
date=2016.01.19 (Created 2008.10.21, modified 2011.05.06)
author=KURARAY CO., LTD.
license=CC BY-NC-SA
exact mass=260.99595
ionization energy=70 eV
ion type=[M]+*
computed spectral entropy=3.1793234478069863
computed normalized entropy=0.7297534846327494
SPLASH=splash10-005l-3920000000-e9c2b47cdbb9b4b30468
submitter=submitter = University of Tokyo Team (Faculty of Engineering, University of Tokyo)
MoNA Rating=3.75

>  <NUM PEAKS>  (1196) 
78

>  <MASS SPECTRAL PEAKS>  (1196) 
36 2
38 3
39 3
41 0.3
42 2
43 83
44 2
50 0.2
51 3
52 3
53 3
61 0.3
62 1
63 2
68 1
73 0.2
75 3
76 3
78 5
79 0.1
80 6
81 3
85 3
86 0.2
87 2
97 3
99 3
108 0.2
112 2
113 2
114 6
115 0.3
116 2
117 3
142 2
143 7.2
144 5
145 22
146 1
148 0.3
149 2
150 38
151 4
156 0.3
176 2
177 99.99
178 7
179 6.6
180 4
181 10
182 3
183 0.2
184 62
185 33
186 23
187 1
188 3
190 1
192 1
211 0.5
212 2
213 5
214 2
215 0.1
218 3
219 35
220 4
221 2.2
222 2
223 3
227 5
228 0.2
229 1
261 9
262 3
263 0.6
264 2
265 2

>  <PREDICTED SPECTRUM>  (1196) 
14 1
15 67
25 1
26 3
27 16
28 16
35 17
36 86
37 46
38 59
39 97
40 78
41 136
42 203
43 906
44 181
45 111
47 33
49 92
50 123
51 130
52 110
53 96
54 35
55 83
56 2
57 21
58 10
60 45
61 102
62 161
63 151
64 65
65 112
66 50
67 43
68 31
69 81
71 9
72 79
73 147
74 120
75 198
76 118
77 70
78 58
79 55
80 17
81 37
82 24
83 93
84 106
85 109
86 72
87 119
88 6
89 69
90 96
91 69
92 73
93 38
94 30
95 13
96 35
97 163
98 68
99 89
101 44
102 15
103 35
104 29
105 36
106 63
107 119
108 74
109 79
110 87
111 126
112 94
113 94
114 47
115 53
116 22
117 33
118 85
119 83
120 286
121 173
122 144
123 57
124 110
127 8
129 78
130 67
131 84
132 50
133 17
134 69
135 24
138 18
139 89
140 156
141 95
142 87
143 53
144 25
145 11
146 66
147 136
148 191
149 126
150 43
151 44
152 14
153 49
154 125
155 125
156 181
157 139
158 96
159 64
160 85
161 81
162 25
163 32
164 12
166 66
167 19
168 70
169 65
170 41
171 148
172 171
173 90
174 29
175 96
176 132
177 63
178 96
179 14
180 11
182 59
183 158
184 312
185 148
186 168
187 55
188 115
189 67
190 194
191 60
192 108
193 13
194 43
201 60
202 141
203 149
204 448
205 168
206 284
207 115
208 51
218 226
219 999
220 310
221 943
222 299
223 415
224 107
225 87
226 132
227 57
261 348
262 106
263 280
264 90
265 81
266 2

$$$$

     RDKit          2D

 12 12  0  0  0  0  0  0  0  0999 V2000
   -1.5356   -4.1628    0.0000 C   0  0  0  0  0  0  0  0  0  0  0  0
   -2.8351   -3.4120    0.0000 C   0  0  0  0  0  0  0  0  0  0  0  0
   -0.2365   -3.4128    0.0000 C   0  0  0  0  0  0  0  0  0  0  0  0
   -1.5365   -1.1612    0.0000 C   0  0  0  0  0  0  0  0  0  0  0  0
   -2.8356   -1.9112    0.0000 C   0  0  0  0  0  0  0  0  0  0  0  0
   -0.2370   -1.9120    0.0000 C   0  0  0  0  0  0  0  0  0  0  0  0
    2.3611   -1.9120    0.0000 C   0  0  0  0  0  0  0  0  0  0  0  0
   -4.1347   -1.1614    0.0000 Cl  0  0  0  0  0  0  0  0  0  0  0  0
    1.6111   -3.2110    0.0000 Cl  0  0  0  0  0  0  0  0  0  0  0  0
    3.6601   -2.6620    0.0000 Cl  0  0  0  0  0  0  0  0  0  0  0  0
    3.1111   -0.6129    0.0000 Cl  0  0  0  0  0  0  0  0  0  0  0  0
    1.0620   -1.1620    0.0000 S   0  0  0  0  0  0  0  0  0  0  0  0
  2  1  2  0
  3  1  1  0
  5  2  1  0
  5  4  2  0
  6  3  2  0
  6  4  1  0
  8  5  1  0
  9  7  1  0
 10  7  1  0
 11  7  1  0
 12  6  1  0
 12  7  1  0
M  END
>  <NAME>  (1197) 
3-CHLOROTHIOPHENYL TRICHLOROMETHYL ETHER

>  <SYNONYMS>  (1197) 
3-CHLORO-1-TRICHLOROMETHYLTIOBENZENE

>  <SPECTRUM TYPE>  (1197) 
MS1

>  <INSTRUMENT TYPE>  (1197) 
EI-B

>  <INSTRUMENT>  (1197) 
JEOL JMS-D-300

>  <ION MODE>  (1197) 
P

>  <INCHIKEY>  (1197) 
IDIYVHNEJVLEBV-UHFFFAOYSA-N

>  <FORMULA>  (1197) 
C7H4Cl4S

>  <EXACT MASS>  (1197) 
259.878781848

>  <MW>  (1197) 
260

>  <ID>  (1197) 
JP010150

>  <CONTRIBUTOR>  (1197) 
University of Tokyo Team, {Faculty of Engineering, University of Tokyo

>  <COMMENT>  (1197) 
SMILES=Clc(c1)cc(cc1)SC(Cl)(Cl)Cl
InChI=InChI=1S/C7H4Cl4S/c8-5-2-1-3-6(4-5)12-7(9,10)11/h1-4H
computed SMILES=ClC1=CC=CC(SC(Cl)(Cl)Cl)=C1
accession=JP010150
date=2016.01.19 (Created 2008.10.21, modified 2011.05.06)
author=KURARAY CO., LTD.
license=CC BY-NC-SA
exact mass=259.87878
ionization energy=70 eV
ion type=[M]+*
computed spectral entropy=2.984277459371181
computed normalized entropy=0.7516518997468934
SPLASH=splash10-004i-2490000000-34b85fa3e036afd9b7c9
submitter=submitter = University of Tokyo Team (Faculty of Engineering, University of Tokyo)
MoNA Rating=3.75

>  <NUM PEAKS>  (1197) 
53

>  <MASS SPECTRAL PEAKS>  (1197) 
37 1
38 1
39 1
45 0.2
50 10
51 4
61 2
62 0.2
63 8
69 10
73 6
74 0.7
75 22
76 4
79 17
81 0.8
82 5
84 1
85 2
93 0.05
95 0.5
99 7
101 2
107 0.2
108 38
109 3
111 18
113 0.6
117 32
119 30
121 10
143 1.8
144 1
145 7
146 0.5
155 1.3
157 4
189 7
190 4
191 0.6
192 3
193 2
225 97
226 0.7
227 99.99
228 7
229 35
230 0.2
231 4
260 34
262 45
264 2.3
266 5

>  <PREDICTED SPECTRUM>  (1197) 
25 37
32 33
35 165
36 212
37 233
38 270
39 159
43 43
45 50
47 161
48 36
49 265
50 463
51 271
52 45
57 102
60 180
61 143
62 204
63 443
64 44
69 352
70 5
71 144
72 122
73 271
74 361
75 447
76 277
77 61
78 187
79 197
80 24
81 136
82 373
83 259
84 351
85 254
86 97
87 68
89 106
90 2
98 47
101 76
107 277
108 408
109 45
110 152
111 287
113 52
115 498
116 62
117 767
118 192
119 629
120 174
121 163
125 116
127 175
128 119
129 14
130 69
132 19
143 794
144 248
145 535
146 6
147 21
153 67
154 155
155 556
156 256
157 249
158 32
159 37
189 211
190 664
191 402
192 671
193 259
194 164
225 643
226 188
227 722
228 175
229 427
230 8
232 27
260 999
261 216
262 998
263 219
264 610
265 172

$$$$

     RDKit          2D

 19 20  0  0  0  0  0  0  0  0999 V2000
   -3.7389    1.4102    0.0000 C   0  0  0  0  0  0  0  0  0  0  0  0
   -1.1400    2.9100    0.0000 C   0  0  0  0  0  0  0  0  0  0  0  0
   -1.1400   -3.0900    0.0000 C   0  0  0  0  0  0  0  0  0  0  0  0
    4.2372    0.3997    0.0000 C   0  0  0  0  0  0  0  0  0  0  0  0
    4.7499    2.3304    0.0000 C   0  0  0  0  0  0  0  0  0  0  0  0
    1.4600   -1.5900    0.0000 C   0  0  0  0  0  0  0  0  0  0  0  0
    3.2727    2.0696    0.0000 C   0  0  0  0  0  0  0  0  0  0  0  0
    2.7600   -0.8400    0.0000 C   0  0  0  0  0  0  0  0  0  0  0  0
    5.2626    3.7401    0.0000 C   0  0  0  0  0  0  0  0  0  0  0  0
   -2.4400    0.6600    0.0000 C   0  0  0  0  0  0  0  0  0  0  0  0
   -1.1400    1.4100    0.0000 C   0  0  0  0  0  0  0  0  0  0  0  0
   -1.1400   -1.5900    0.0000 C   0  0  0  0  0  0  0  0  0  0  0  0
    0.1600   -0.8400    0.0000 C   0  0  0  0  0  0  0  0  0  0  0  0
   -2.4400   -0.8400    0.0000 C   0  0  0  0  0  0  0  0  0  0  0  0
    0.1600    0.6600    0.0000 C   0  0  0  0  0  0  0  0  0  0  0  0
    2.7600    0.6600    0.0000 C   0  0  0  0  0  0  0  0  0  0  0  0
    5.7753    5.1497    0.0000 N   0  0  0  0  0  0  0  0  0  0  0  0
   -3.7389   -1.5902    0.0000 O   0  0  0  0  0  0  0  0  0  0  0  0
    1.4600    1.4100    0.0000 O   0  0  0  0  0  0  0  0  0  0  0  0
  7  5  1  0
  8  6  1  0
  9  5  1  0
 10  1  1  0
 11  2  1  0
 11 10  1  0
 12  3  1  0
 13  6  1  0
 13 12  2  0
 14 10  2  0
 14 12  1  0
 15 11  2  0
 15 13  1  0
 16  4  1  0
 16  7  1  0
 16  8  1  0
 17  9  3  0
 18 14  1  0
 19 15  1  0
 19 16  1  0
M  END
>  <NAME>  (1198) 
2-CYANOETHYL-6-HYDROXY-2,5,7,8-TETRAMETHYL-3,4-DIHYDRO-2H-1-BENZOPYRAN

>  <SYNONYMS>  (1198) 


>  <SPECTRUM TYPE>  (1198) 
MS1

>  <INSTRUMENT TYPE>  (1198) 
EI-B

>  <INSTRUMENT>  (1198) 
JEOL JMS-D-300

>  <ION MODE>  (1198) 
P

>  <INCHIKEY>  (1198) 
YBRKMFFHXSYDJP-UHFFFAOYSA-N

>  <FORMULA>  (1198) 
C16H21NO2

>  <EXACT MASS>  (1198) 
259.157228912

>  <MW>  (1198) 
259

>  <ID>  (1198) 
JP010149

>  <CONTRIBUTOR>  (1198) 
University of Tokyo Team, {Faculty of Engineering, University of Tokyo

>  <COMMENT>  (1198) 
SMILES=N#CCCC(C)(C2)Oc(c(C)1)c(C2)c(C)c(O)c(C)1
InChI=InChI=1S/C16H21NO2/c1-10-11(2)15-13(12(3)14(10)18)6-8-16(4,19-15)7-5-9-17/h18H,5-8H2,1-4H3
computed SMILES=N#CCCC1(OC=2C(=C(C(O)=C(C2CC1)C)C)C)C
accession=JP010149
date=2016.01.19 (Created 2008.10.21, modified 2011.05.06)
author=KURARAY CO., LTD.
license=CC BY-NC-SA
exact mass=259.15723
ionization energy=70 eV
ion type=[M]+*
computed spectral entropy=2.2818162756611997
computed normalized entropy=0.6470740185901926
SPLASH=splash10-014i-1920000000-7a8654d74f26172e4acf
submitter=submitter = University of Tokyo Team (Faculty of Engineering, University of Tokyo)
MoNA Rating=3.75

>  <NUM PEAKS>  (1198) 
34

>  <MASS SPECTRAL PEAKS>  (1198) 
27 2
28 1
29 1
39 0.3
41 4
43 6
51 1
53 0.6
54 1
55 10
65 2
67 0.3
77 4
79 2
91 6
93 0.1
105 2
107 2
121 9
122 0.2
135 3
136 8
137 2
163 0.1
164 48
165 99.99
166 11
177 0.4
189 2
203 2
205 2
258 0.1
259 40
260 7

>  <PREDICTED SPECTRUM>  (1198) 
27 11
39 66
40 15
41 96
42 3
43 25
51 27
53 98
54 22
55 77
65 33
67 37
77 103
78 2
79 78
80 1
81 2
91 126
93 6
96 10
103 84
105 48
107 23
119 23
121 188
122 73
135 93
136 261
164 934
165 999
166 621
177 60
219 90
259 537
260 235

$$$$

     RDKit          2D

 21 21  0  0  0  0  0  0  0  0999 V2000
    7.7948    3.0010    0.0000 C   0  0  0  0  0  0  0  0  0  0  0  0
   -2.5989   -1.5002    0.0000 C   0  0  0  0  0  0  0  0  0  0  0  0
   -3.3491   -0.2013    0.0000 H   0  0  0  0  0  0  0  0  0  0  0  0
   -3.8978   -2.2504    0.0000 H   0  0  0  0  0  0  0  0  0  0  0  0
   -1.8487   -2.7991    0.0000 H   0  0  0  0  0  0  0  0  0  0  0  0
   11.6923    0.7517    0.0000 C   0  0  0  0  0  0  0  0  0  0  0  0
    5.1970    1.5006    0.0000 C   0  0  0  0  0  0  0  0  0  0  0  0
    6.4962    0.7508    0.0000 C   0  0  0  0  0  0  0  0  0  0  0  0
    3.8981    0.7504    0.0000 C   0  0  0  0  0  0  0  0  0  0  0  0
   -1.3000    0.7500    0.0000 C   0  0  0  0  0  0  0  0  0  0  0  0
   -0.0000   -1.5000    0.0000 C   0  0  0  0  0  0  0  0  0  0  0  0
    0.0000    1.5000    0.0000 C   0  0  0  0  0  0  0  0  0  0  0  0
    1.3000   -0.7500    0.0000 C   0  0  0  0  0  0  0  0  0  0  0  0
    7.7951    1.5010    0.0000 C   0  0  0  0  0  0  0  0  0  0  0  0
    2.5989    1.5002    0.0000 C   0  0  0  0  0  0  0  0  0  0  0  0
    9.0942    0.7512    0.0000 C   0  0  0  0  0  0  0  0  0  0  0  0
   -1.3000   -0.7500    0.0000 N   0  0  0  0  0  0  0  0  0  0  0  0
    1.3000    0.7500    0.0000 N   0  0  0  0  0  0  0  0  0  0  0  0
    2.5987    3.0002    0.0000 O   0  0  0  0  0  0  0  0  0  0  0  0
    9.0945   -0.7488    0.0000 O   0  0  0  0  0  0  0  0  0  0  0  0
   10.3931    1.5015    0.0000 O   0  0  0  0  0  0  0  0  0  0  0  0
  2  3  1  0
  2  4  1  0
  2  5  1  0
  8  7  1  0
  9  7  1  0
 12 10  1  0
 13 11  1  0
 14  1  1  0
 14  8  1  0
 15  9  1  0
 16 14  1  0
 17  2  1  0
 17 10  1  0
 17 11  1  0
 18 12  1  0
 18 13  1  0
 18 15  1  0
 19 15  2  0
 20 16  2  0
 21  6  1  0
 21 16  1  0
M  ISO  3   3   2   4   2   5   2
M  END
>  <NAME>  (1199) 
1-TRIDEUTEROMETHYL-4-(5-METHOXYCARBONYLHEXANOYL)PIPERAZINE

>  <SYNONYMS>  (1199) 


>  <SPECTRUM TYPE>  (1199) 
MS1

>  <INSTRUMENT TYPE>  (1199) 
EI-B

>  <INSTRUMENT>  (1199) 
JEOL JMS-D-300

>  <ION MODE>  (1199) 
P

>  <INCHIKEY>  (1199) 
CMYWFMWDBNLMFJ-BMSJAHLVSA-N

>  <FORMULA>  (1199) 
C13H24N2O3

>  <EXACT MASS>  (1199) 
259.197522866

>  <MW>  (1199) 
259

>  <ID>  (1199) 
JP010148

>  <CONTRIBUTOR>  (1199) 
University of Tokyo Team, {Faculty of Engineering, University of Tokyo

>  <COMMENT>  (1199) 
SMILES=COC(=O)C(C)CCCC(=O)N(C1)CCN(C1)C([2H])([2H])[2H]
InChI=InChI=1S/C13H24N2O3/c1-11(13(17)18-3)5-4-6-12(16)15-9-7-14(2)8-10-15/h11H,4-10H2,1-3H3/i2D3
computed SMILES=[H]C([H])([H])N1CCN(C(=O)CCCC(C(=O)OC)C)CC1
accession=JP010148
date=2016.01.19 (Created 2008.10.21, modified 2011.05.06)
author=KURARAY CO., LTD.
license=CC BY-NC-SA
exact mass=256.17869
ionization energy=70 eV
ion type=[M]+*
computed spectral entropy=3.048612863751682
computed normalized entropy=0.8056184173294346
SPLASH=splash10-00di-9210000000-4980dcd4333508098456
submitter=submitter = University of Tokyo Team (Faculty of Engineering, University of Tokyo)
MoNA Rating=3.75

>  <NUM PEAKS>  (1199) 
44

>  <MASS SPECTRAL PEAKS>  (1199) 
28 7
41 7
42 5
43 0.4
44 4
45 8
46 9
47 0.6
55 7
56 12
57 8
58 0.5
59 4
60 6
61 32
69 0.8
70 5
72 22
73 99.99
74 1.1
85 43
86 6
87 4
97 0.5
99 4
100 4
101 8
102 4.5
103 6
104 13
112 6
126 1.1
129 5
130 4
149 3
157 0.8
158 4
172 8
199 4
200 1.1
201 4
228 17
259 12
260 3

>  <PREDICTED SPECTRUM>  (1199) 
28 9
32 21
33 32
39 214
40 119
41 494
42 591
43 543
44 394
45 181
46 26
49 17
50 42
51 69
52 65
53 168
54 238
55 439
56 828
57 716
58 339
59 229
60 125
61 52
62 38
63 56
64 32
65 116
66 90
67 136
68 241
69 306
70 999
71 555
72 183
73 117
74 108
75 48
76 52
77 87
78 25
79 99
80 103
81 189
82 275
83 453
84 359
85 468
86 171
87 129
88 311
89 121
90 79
91 137
92 42
93 33
94 38
96 20
97 240
99 141
100 254
101 274
102 250
103 99
104 110
105 9
109 105
110 36
111 60
112 75
113 128
114 92
115 53
116 85
117 31
118 90
119 111
120 51
121 25
125 7
126 8
127 86
128 41
129 197
130 146
131 89
132 119
134 0
136 44
140 106
141 240
142 164
143 27
144 52
145 30
146 103
147 70
148 8
149 49
156 20
157 72
159 8
160 46
172 178
173 305
174 139
175 120
182 44
183 107
184 15
197 22
200 134
201 5
215 6
216 32
226 1
228 106
241 102
259 249
260 75

$$$$

     RDKit          2D

 19 21  0  0  0  0  0  0  0  0999 V2000
    4.0247   -0.4635    0.0000 C   0  0  0  0  0  0  0  0  0  0  0  0
   -3.8971    3.7500    0.0000 C   0  0  0  0  0  0  0  0  0  0  0  0
    2.7256    2.7135    0.0000 C   0  0  0  0  0  0  0  0  0  0  0  0
    0.8165    3.3338    0.0000 C   0  0  0  0  0  0  0  0  0  0  0  0
    0.8165   -1.8338    0.0000 C   0  0  0  0  0  0  0  0  0  0  0  0
    2.7256   -1.2135    0.0000 C   0  0  0  0  0  0  0  0  0  0  0  0
   -1.2990   -0.7500    0.0000 C   0  0  0  0  0  0  0  0  0  0  0  0
   -1.2990    2.2500    0.0000 C   0  0  0  0  0  0  0  0  0  0  0  0
   -5.1962    1.5000    0.0000 C   0  0  0  0  0  0  0  0  0  0  0  0
   -3.8971   -0.7500    0.0000 C   0  0  0  0  0  0  0  0  0  0  0  0
    2.3083    0.7500    0.0000 C   0  0  0  0  0  0  0  0  0  0  0  0
   -3.8971    2.2500    0.0000 C   0  0  0  0  0  0  0  0  0  0  0  0
   -2.5981   -0.0000    0.0000 C   0  0  0  0  0  0  0  0  0  0  0  0
   -2.5981    1.5000    0.0000 C   0  0  0  0  0  0  0  0  0  0  0  0
    0.0000    1.5000    0.0000 C   0  0  0  0  0  0  0  0  0  0  0  0
    0.0000    0.0000    0.0000 C   0  0  0  0  0  0  0  0  0  0  0  0
    1.4266    1.9635    0.0000 C   0  0  0  0  0  0  0  0  0  0  0  0
    1.4266   -0.4635    0.0000 C   0  0  0  0  0  0  0  0  0  0  0  0
   -5.1962   -0.0000    0.0000 O   0  0  0  0  0  0  0  0  0  0  0  0
  6  1  1  0
 12  2  1  0
 12  9  1  0
 13  7  2  0
 13 10  1  0
 14  8  2  0
 14 12  1  0
 14 13  1  0
 15  8  1  0
 16  7  1  0
 16 15  2  0
 17  3  1  0
 17  4  1  0
 17 11  1  0
 17 15  1  0
 18  5  1  0
 18  6  1  0
 18 11  1  0
 18 16  1  0
 19  9  1  0
 19 10  1  0
M  END
>  <NAME>  (1200) 
8-ETHYL-4,6,6,8-TETRAMETHYL-3,4,6,7-TETRAHYDRO-1H-CYCLOPENTA(G)-2-BENZOPYRAN

>  <SYNONYMS>  (1200) 


>  <SPECTRUM TYPE>  (1200) 
MS1

>  <INSTRUMENT TYPE>  (1200) 
EI-B

>  <INSTRUMENT>  (1200) 
JEOL JMS-D-300

>  <ION MODE>  (1200) 
P

>  <INCHIKEY>  (1200) 
BYAUGQHXQRQQPB-UHFFFAOYSA-N

>  <FORMULA>  (1200) 
C18H26O

>  <EXACT MASS>  (1200) 
258.198365452

>  <MW>  (1200) 
258

>  <ID>  (1200) 
JP010147

>  <CONTRIBUTOR>  (1200) 
University of Tokyo Team, {Faculty of Engineering, University of Tokyo

>  <COMMENT>  (1200) 
computed SMILES=O1CC=2C=C3C(=CC2C(C)C1)C(C)(C)CC3(C)CC
SMILES=CCC(C)(C1)c(c2)c(cc(C(C)3)c(COC3)2)C(C)(C)1
InChI=InChI=1S/C18H26O/c1-6-18(5)11-17(3,4)15-8-14-12(2)9-19-10-13(14)7-16(15)18/h7-8,12H,6,9-11H2,1-5H3
accession=JP010147
date=2016.01.19 (Created 2008.10.21, modified 2011.05.06)
author=KURARAY CO., LTD.
license=CC BY-NC-SA
exact mass=258.19837
ionization energy=70 eV
ion type=[M]+*
computed spectral entropy=1.937935699761534
computed normalized entropy=0.5591700447215296
SPLASH=splash10-004i-0290000000-26c6167657f57147ada9
submitter=submitter = University of Tokyo Team (Faculty of Engineering, University of Tokyo)
MoNA Rating=3.75

>  <NUM PEAKS>  (1200) 
32

>  <MASS SPECTRAL PEAKS>  (1200) 
41 1
43 1
57 1
91 0.1
115 1
128 2
129 2
141 0.2
142 1.5
143 2
153 1
154 0.05
155 2
156 1.5
157 3
169 0.4
170 1
171 4
172 1
183 0.2
184 2
185 1
199 14
200 0.2
213 2
229 99.99
230 19
231 0.1
243 8
244 1
258 13
259 2

>  <PREDICTED SPECTRUM>  (1200) 
27 25
29 47
39 3
41 78
43 97
55 49
57 74
67 1
69 34
71 3
77 58
83 15
102 17
103 38
115 134
117 32
127 68
128 122
129 166
130 56
141 7
143 24
145 12
155 87
156 72
157 95
158 18
159 32
168 30
169 82
170 22
171 201
172 21
173 49
183 107
184 28
185 141
186 58
187 18
197 32
199 221
201 32
213 138
214 64
215 54
229 999
230 364
231 47
243 217
244 36
258 350
259 87

$$$$

     RDKit          2D

 19 20  0  0  0  0  0  0  0  0999 V2000
    1.9962    3.7934    0.0000 C   0  0  0  0  0  0  0  0  0  0  0  0
   -3.6087   -3.0002    0.0000 C   0  0  0  0  0  0  0  0  0  0  0  0
    1.1124   -2.5814    0.0000 C   0  0  0  0  0  0  0  0  0  0  0  0
    3.0195   -1.9591    0.0000 C   0  0  0  0  0  0  0  0  0  0  0  0
    3.0195    1.9591    0.0000 C   0  0  0  0  0  0  0  0  0  0  0  0
    1.1124    2.5814    0.0000 C   0  0  0  0  0  0  0  0  0  0  0  0
   -2.3100    0.7500    0.0000 C   0  0  0  0  0  0  0  0  0  0  0  0
   -1.0100    1.5000    0.0000 C   0  0  0  0  0  0  0  0  0  0  0  0
   -4.9081   -0.7504    0.0000 C   0  0  0  0  0  0  0  0  0  0  0  0
   -6.2070   -1.5006    0.0000 C   0  0  0  0  0  0  0  0  0  0  0  0
   -1.0100   -1.5000    0.0000 C   0  0  0  0  0  0  0  0  0  0  0  0
    2.6000    0.0000    0.0000 C   0  0  0  0  0  0  0  0  0  0  0  0
   -3.6089   -1.5002    0.0000 C   0  0  0  0  0  0  0  0  0  0  0  0
   -2.3100   -0.7500    0.0000 C   0  0  0  0  0  0  0  0  0  0  0  0
    0.2900    0.7500    0.0000 C   0  0  0  0  0  0  0  0  0  0  0  0
    0.2900   -0.7500    0.0000 C   0  0  0  0  0  0  0  0  0  0  0  0
    1.7200   -1.2100    0.0000 C   0  0  0  0  0  0  0  0  0  0  0  0
    1.7200    1.2100    0.0000 C   0  0  0  0  0  0  0  0  0  0  0  0
   -7.5062   -0.7508    0.0000 O   0  0  0  0  0  0  0  0  0  0  0  0
  6  1  1  0
  8  7  2  0
 10  9  1  0
 13  2  1  0
 13  9  1  0
 14  7  1  0
 14 11  2  0
 14 13  1  0
 15  8  1  0
 16 11  1  0
 16 15  2  0
 17  3  1  0
 17  4  1  0
 17 12  1  0
 17 16  1  0
 18  5  1  0
 18  6  1  0
 18 12  1  0
 18 15  1  0
 19 10  2  0
M  END
>  <NAME>  (1201) 
1-ETHYL-1,3,3-TRIMETHYL-5-(1-METHYL-3-PROPANAL)INDAN

>  <SYNONYMS>  (1201) 


>  <SPECTRUM TYPE>  (1201) 
MS1

>  <INSTRUMENT TYPE>  (1201) 
EI-B

>  <INSTRUMENT>  (1201) 
JEOL JMS-D-300

>  <ION MODE>  (1201) 
P

>  <INCHIKEY>  (1201) 
ODUMZLYKVWGWHS-UHFFFAOYSA-N

>  <FORMULA>  (1201) 
C18H26O

>  <EXACT MASS>  (1201) 
258.198365452

>  <MW>  (1201) 
258

>  <ID>  (1201) 
JP010146

>  <CONTRIBUTOR>  (1201) 
University of Tokyo Team, {Faculty of Engineering, University of Tokyo

>  <COMMENT>  (1201) 
SMILES=O=CCC(C)c(c2)cc(C(C)(C)1)c(c2)C(C)(CC)C1
InChI=InChI=1S/C18H26O/c1-6-18(5)12-17(3,4)16-11-14(7-8-15(16)18)13(2)9-10-19/h7-8,10-11,13H,6,9,12H2,1-5H3
computed SMILES=O=CCC(C1=CC=C2C(=C1)C(C)(C)CC2(C)CC)C
accession=JP010146
date=2016.01.19 (Created 2008.10.21, modified 2011.05.06)
author=KURARAY CO., LTD.
license=CC BY-NC-SA
exact mass=258.19837
ionization energy=70 eV
ion type=[M]+*
computed spectral entropy=1.8611014050703967
computed normalized entropy=0.6212509113381072
SPLASH=splash10-004i-0090000000-b9cb3511abe63076922d
submitter=submitter = University of Tokyo Team (Faculty of Engineering, University of Tokyo)
MoNA Rating=3.75

>  <NUM PEAKS>  (1201) 
20

>  <MASS SPECTRAL PEAKS>  (1201) 
41 2
43 8
57 2
71 1.3
128 2
129 2
171 2
173 0.3
185 2
199 5
200 2
214 0.3
215 15
216 2
229 99.99
230 1.9
243 34
244 7
258 15
259 2

>  <PREDICTED SPECTRUM>  (1201) 
29 5
39 0
41 100
43 121
51 8
53 15
55 70
57 52
73 6
77 71
78 1
79 43
81 6
91 7
102 15
103 43
115 126
127 42
128 144
129 166
130 15
142 14
143 23
157 115
158 6
159 34
171 148
173 15
183 35
185 166
186 27
187 101
199 150
201 18
213 78
214 44
215 215
227 32
229 999
230 313
231 16
241 25
243 449
244 120
258 337
259 36

$$$$

     RDKit          2D

 18 19  0  0  0  0  0  0  0  0999 V2000
    1.6245   -0.9365    0.0000 C   0  0  0  0  0  0  0  0  0  0  0  0
    6.8207    2.0635    0.0000 C   0  0  0  0  0  0  0  0  0  0  0  0
    4.2224    3.5644    0.0000 C   0  0  0  0  0  0  0  0  0  0  0  0
   -3.5725    3.5633    0.0000 C   0  0  0  0  0  0  0  0  0  0  0  0
   -3.5727    2.0625    0.0000 C   0  0  0  0  0  0  0  0  0  0  0  0
   -2.2731    4.3144    0.0000 C   0  0  0  0  0  0  0  0  0  0  0  0
   -2.2736    1.3127    0.0000 C   0  0  0  0  0  0  0  0  0  0  0  0
   -0.9739    3.5646    0.0000 C   0  0  0  0  0  0  0  0  0  0  0  0
    4.2231   -0.9373    0.0000 C   0  0  0  0  0  0  0  0  0  0  0  0
    0.3250    1.3140    0.0000 C   0  0  0  0  0  0  0  0  0  0  0  0
    2.9236   -0.1865    0.0000 C   0  0  0  0  0  0  0  0  0  0  0  0
    5.5216    1.3135    0.0000 C   0  0  0  0  0  0  0  0  0  0  0  0
    4.2221    2.0644    0.0000 C   0  0  0  0  0  0  0  0  0  0  0  0
   -0.9742    2.0637    0.0000 C   0  0  0  0  0  0  0  0  0  0  0  0
    5.5221   -0.1873    0.0000 C   0  0  0  0  0  0  0  0  0  0  0  0
    2.9231    1.3144    0.0000 C   0  0  0  0  0  0  0  0  0  0  0  0
    1.6239    2.0642    0.0000 O   0  0  0  0  0  0  0  0  0  0  0  0
    6.8213   -0.9371    0.0000 S   0  0  0  0  0  0  0  0  0  0  0  0
  5  4  2  0
  6  4  1  0
  7  5  1  0
  8  6  2  0
 11  1  1  0
 11  9  2  0
 12  2  1  0
 13  3  1  0
 13 12  1  0
 14  7  2  0
 14  8  1  0
 14 10  1  0
 15  9  1  0
 15 12  2  0
 16 11  1  0
 16 13  2  0
 17 10  1  0
 17 16  1  0
 18 15  1  0
M  END
>  <NAME>  (1202) 
4-BENZYLOXY-2,3,5-TRIMETHYLTHIOPHENOL

>  <SYNONYMS>  (1202) 


>  <SPECTRUM TYPE>  (1202) 
MS1

>  <INSTRUMENT TYPE>  (1202) 
EI-B

>  <INSTRUMENT>  (1202) 
JEOL JMS-D-300

>  <ION MODE>  (1202) 
P

>  <INCHIKEY>  (1202) 
ULHSFEMRDABVHU-UHFFFAOYSA-N

>  <FORMULA>  (1202) 
C16H18OS

>  <EXACT MASS>  (1202) 
258.107836196

>  <MW>  (1202) 
258

>  <ID>  (1202) 
JP010145

>  <CONTRIBUTOR>  (1202) 
University of Tokyo Team, {Faculty of Engineering, University of Tokyo

>  <COMMENT>  (1202) 
SMILES=c(c2)ccc(c2)COc(c(C)1)c(C)c(C)c(S)c1
InChI=InChI=1S/C16H18OS/c1-11-9-15(18)12(2)13(3)16(11)17-10-14-7-5-4-6-8-14/h4-9,18H,10H2,1-3H3
computed SMILES=SC=1C=C(C(OCC=2C=CC=CC2)=C(C1C)C)C
accession=JP010145
date=2016.01.19 (Created 2008.10.21, modified 2011.05.06)
author=KURARAY CO., LTD.
license=CC BY-NC-SA
exact mass=258.10784
ionization energy=70 eV
ion type=[M]+*
computed spectral entropy=1.9999691911296678
computed normalized entropy=0.6569073580634104
SPLASH=splash10-00kf-9400000000-c5ec10cf5f2f44b80bb7
submitter=submitter = University of Tokyo Team (Faculty of Engineering, University of Tokyo)
MoNA Rating=3.75

>  <NUM PEAKS>  (1202) 
21

>  <MASS SPECTRAL PEAKS>  (1202) 
28 46
32 19
39 3
41 0.2
45 2
55 2
65 9
77 0.3
79 2
91 99.99
92 10
105 0.6
106 3
123 4
139 2
166 1.1
167 69
168 10
169 4
258 2.2
259 4

>  <PREDICTED SPECTRUM>  (1202) 
34 4
38 18
39 158
40 68
41 174
42 37
43 74
44 13
45 23
49 2
50 59
51 128
52 50
53 92
54 9
55 53
56 5
57 29
59 44
60 11
62 39
63 115
64 41
65 294
66 82
67 24
69 32
75 75
76 39
77 126
78 64
79 39
80 10
81 19
82 15
83 34
84 8
89 76
91 710
92 176
93 79
94 11
96 1
97 29
105 1
107 57
108 47
109 77
110 10
111 75
115 18
119 12
121 22
122 7
123 3
124 45
125 35
126 31
134 20
137 66
138 45
139 157
140 10
151 54
152 86
153 36
166 104
167 999
168 382
169 107
179 9
225 64
258 250
259 115
260 28

$$$$

     RDKit          2D

 17 16  0  0  0  0  0  0  0  0999 V2000
    4.8714    7.3125    0.0000 C   0  0  0  0  0  0  0  0  0  0  0  0
    3.5724    9.5625    0.0000 C   0  0  0  0  0  0  0  0  0  0  0  0
   -5.5209    7.3125    0.0000 C   0  0  0  0  0  0  0  0  0  0  0  0
   -6.8200    8.0625    0.0000 C   0  0  0  0  0  0  0  0  0  0  0  0
   -4.2219    8.0625    0.0000 C   0  0  0  0  0  0  0  0  0  0  0  0
   -8.1190    7.3125    0.0000 C   0  0  0  0  0  0  0  0  0  0  0  0
   -2.9228    7.3125    0.0000 C   0  0  0  0  0  0  0  0  0  0  0  0
   -9.4180    8.0625    0.0000 C   0  0  0  0  0  0  0  0  0  0  0  0
   -1.6238    8.0625    0.0000 C   0  0  0  0  0  0  0  0  0  0  0  0
  -10.7171    7.3125    0.0000 C   0  0  0  0  0  0  0  0  0  0  0  0
   -0.3248    7.3125    0.0000 C   0  0  0  0  0  0  0  0  0  0  0  0
  -12.0161    8.0625    0.0000 C   0  0  0  0  0  0  0  0  0  0  0  0
    3.5724    8.0625    0.0000 C   0  0  0  0  0  0  0  0  0  0  0  0
    2.2733    7.3125    0.0000 C   0  0  0  0  0  0  0  0  0  0  0  0
    2.2733    5.8125    0.0000 O   0  0  0  0  0  0  0  0  0  0  0  0
    0.9743    8.0625    0.0000 O   0  0  0  0  0  0  0  0  0  0  0  0
  -13.3151    7.3125    0.0000 S   0  0  0  0  0  0  0  0  0  0  0  0
  4  3  1  0
  5  3  1  0
  6  4  1  0
  7  5  1  0
  8  6  1  0
  9  7  1  0
 10  8  1  0
 11  9  1  0
 12 10  1  0
 13  1  2  0
 13  2  1  0
 14 13  1  0
 15 14  2  0
 16 11  1  0
 16 14  1  0
 17 12  1  0
M  END
>  <NAME>  (1203) 
METHACRYLIC 10-MERCAPTO-1-DECANYL ESTER

>  <SYNONYMS>  (1203) 
10-MERCAPTO-1-DECANYL METHACRYLATE

>  <SPECTRUM TYPE>  (1203) 
MS1

>  <INSTRUMENT TYPE>  (1203) 
EI-B

>  <INSTRUMENT>  (1203) 
JEOL JMS-D-300

>  <ION MODE>  (1203) 
P

>  <INCHIKEY>  (1203) 
GPEZMHDRNRAYHT-UHFFFAOYSA-N

>  <FORMULA>  (1203) 
C14H26O2S

>  <EXACT MASS>  (1203) 
258.16535107199996

>  <MW>  (1203) 
258

>  <ID>  (1203) 
JP010144

>  <CONTRIBUTOR>  (1203) 
University of Tokyo Team, {Faculty of Engineering, University of Tokyo

>  <COMMENT>  (1203) 
SMILES=SCCCCCCCCCCOC(=O)C(C)=C
InChI=InChI=1S/C14H26O2S/c1-13(2)14(15)16-11-9-7-5-3-4-6-8-10-12-17/h17H,1,3-12H2,2H3
computed SMILES=O=C(OCCCCCCCCCCS)C(=C)C
accession=JP010144
date=2016.01.19 (Created 2008.10.21, modified 2011.05.06)
author=KURARAY CO., LTD.
license=CC BY-NC-SA
exact mass=258.16535
ionization energy=70 eV
ion type=[M]+*
computed spectral entropy=2.85915400751994
computed normalized entropy=0.8882461340791269
SPLASH=splash10-05mx-9000000000-9aaaa72b23d2d83a603b
submitter=submitter = University of Tokyo Team (Faculty of Engineering, University of Tokyo)
MoNA Rating=3.75

>  <NUM PEAKS>  (1203) 
25

>  <MASS SPECTRAL PEAKS>  (1203) 
28 10
29 40
32 3
41 99.99
42 34
43 40
44 6
45 3.4
55 84
57 32
67 42
68 3.6
69 76
71 32
73 27
74 2.8
75 30
81 40
82 32
83 3.6
87 95
95 29
101 32
230 2.8
258 26

>  <PREDICTED SPECTRUM>  (1203) 
26 41
27 179
28 51
29 270
30 36
31 37
35 6
37 0
38 28
39 343
40 149
41 835
42 271
43 341
44 67
45 137
46 5
47 90
53 138
54 272
55 762
56 270
57 340
58 66
59 140
60 133
61 132
62 11
66 31
67 548
68 402
69 969
70 240
71 242
72 66
73 317
74 107
75 177
79 56
81 437
82 584
83 383
84 67
85 125
86 91
87 999
88 309
89 148
95 439
96 268
97 176
99 28
100 81
101 521
102 115
103 91
104 1
109 127
110 140
111 52
113 29
115 1
116 58
126 6
127 13
128 7
129 18
130 54
141 33
153 22
158 30
159 55
226 27
258 309
259 115
260 0

$$$$

     RDKit          2D

 19 20  0  0  0  0  0  0  0  0999 V2000
    0.9330   -2.0208    0.0000 C   0  0  0  0  0  0  0  0  0  0  0  0
    0.2418   -1.4409    0.0000 C   0  0  0  0  0  0  0  0  0  0  0  0
   -2.7126    2.4201    0.0000 C   0  0  0  0  0  0  0  0  0  0  0  0
    6.1291    2.4792    0.0000 C   0  0  0  0  0  0  0  0  0  0  0  0
   -2.1998    1.0096    0.0000 C   0  0  0  0  0  0  0  0  0  0  0  0
   -1.7483    3.5701    0.0000 C   0  0  0  0  0  0  0  0  0  0  0  0
    4.8296    3.2300    0.0000 C   0  0  0  0  0  0  0  0  0  0  0  0
    6.1296    0.9783    0.0000 C   0  0  0  0  0  0  0  0  0  0  0  0
   -0.7226    0.7492    0.0000 C   0  0  0  0  0  0  0  0  0  0  0  0
   -0.2711    3.3097    0.0000 C   0  0  0  0  0  0  0  0  0  0  0  0
    3.5306    2.4800    0.0000 C   0  0  0  0  0  0  0  0  0  0  0  0
    4.8306    0.2283    0.0000 C   0  0  0  0  0  0  0  0  0  0  0  0
    0.2418    1.8992    0.0000 C   0  0  0  0  0  0  0  0  0  0  0  0
    3.5311    0.9792    0.0000 C   0  0  0  0  0  0  0  0  0  0  0  0
    1.7190    1.6387    0.0000 C   0  0  0  0  0  0  0  0  0  0  0  0
    2.2320    0.2292    0.0000 C   0  0  0  0  0  0  0  0  0  0  0  0
    2.6832    2.7878    0.0000 O   0  0  0  0  0  0  0  0  0  0  0  0
    2.2320   -1.2708    0.0000 O   0  0  0  0  0  0  0  0  0  0  0  0
    0.7548   -0.0313    0.0000 O   0  0  0  0  0  0  0  0  0  0  0  0
  5  3  2  0
  6  3  1  0
  7  4  2  0
  8  4  1  0
  9  5  1  0
 10  6  2  0
 11  7  1  0
 12  8  2  0
 13  9  2  0
 13 10  1  0
 14 11  2  0
 14 12  1  0
 15 13  1  0
 16 14  1  0
 16 15  1  0
 17 15  2  0
 18  1  1  0
 18 16  1  0
 19  2  1  0
 19 16  1  0
M  END
>  <NAME>  (1204) 
1,1-DIMETHOXY-1,2-DIPHENYL-2-OXOETHANE

>  <SYNONYMS>  (1204) 


>  <SPECTRUM TYPE>  (1204) 
MS1

>  <INSTRUMENT TYPE>  (1204) 
EI-B

>  <INSTRUMENT>  (1204) 
JEOL JMS-D-300

>  <ION MODE>  (1204) 
P

>  <INCHIKEY>  (1204) 
KWVGIHKZDCUPEU-UHFFFAOYSA-N

>  <FORMULA>  (1204) 
C16H16O3

>  <EXACT MASS>  (1204) 
256.109944372

>  <MW>  (1204) 
256

>  <ID>  (1204) 
JP010143

>  <CONTRIBUTOR>  (1204) 
University of Tokyo Team, {Faculty of Engineering, University of Tokyo

>  <COMMENT>  (1204) 
SMILES=COC(OC)(c(c2)cccc2)C(=O)c(c1)cccc1
InChI=InChI=1S/C16H16O3/c1-18-16(19-2,14-11-7-4-8-12-14)15(17)13-9-5-3-6-10-13/h3-12H,1-2H3
computed SMILES=O=C(C=1C=CC=CC1)C(OC)(OC)C=2C=CC=CC2
accession=JP010143
date=2016.01.19 (Created 2008.10.21, modified 2011.05.06)
author=KURARAY CO., LTD.
license=CC BY-NC-SA
exact mass=256.10994
ionization energy=70 eV
ion type=[M]+*
computed spectral entropy=1.5871802625938158
computed normalized entropy=0.6014193950175409
SPLASH=splash10-0udi-2900000000-e8feae2af79e2d50f4dd
submitter=submitter = University of Tokyo Team (Faculty of Engineering, University of Tokyo)
MoNA Rating=3.75

>  <NUM PEAKS>  (1204) 
14

>  <MASS SPECTRAL PEAKS>  (1204) 
41 2
43 2
51 5
55 0.2
57 2
59 5
77 21
91 0.9
92 2
105 32
106 2
151 99.99
152 10
225 4

>  <PREDICTED SPECTRUM>  (1204) 
15 8
39 91
45 59
50 107
51 345
52 35
53 2
59 35
63 14
65 48
73 156
74 45
75 111
77 720
78 181
89 59
91 180
105 999
106 305
107 66
121 247
123 14
137 4
151 184
152 10
197 159
224 144
225 284
226 202

$$$$

     RDKit          2D

 18 18  0  0  0  0  0  0  0  0999 V2000
    7.7948    3.0010    0.0000 C   0  0  0  0  0  0  0  0  0  0  0  0
   -2.5989   -1.5002    0.0000 C   0  0  0  0  0  0  0  0  0  0  0  0
   11.6923    0.7517    0.0000 C   0  0  0  0  0  0  0  0  0  0  0  0
    5.1970    1.5006    0.0000 C   0  0  0  0  0  0  0  0  0  0  0  0
    6.4962    0.7508    0.0000 C   0  0  0  0  0  0  0  0  0  0  0  0
    3.8981    0.7504    0.0000 C   0  0  0  0  0  0  0  0  0  0  0  0
   -1.3000    0.7500    0.0000 C   0  0  0  0  0  0  0  0  0  0  0  0
   -0.0000   -1.5000    0.0000 C   0  0  0  0  0  0  0  0  0  0  0  0
    0.0000    1.5000    0.0000 C   0  0  0  0  0  0  0  0  0  0  0  0
    1.3000   -0.7500    0.0000 C   0  0  0  0  0  0  0  0  0  0  0  0
    7.7951    1.5010    0.0000 C   0  0  0  0  0  0  0  0  0  0  0  0
    2.5989    1.5002    0.0000 C   0  0  0  0  0  0  0  0  0  0  0  0
    9.0942    0.7512    0.0000 C   0  0  0  0  0  0  0  0  0  0  0  0
   -1.3000   -0.7500    0.0000 N   0  0  0  0  0  0  0  0  0  0  0  0
    1.3000    0.7500    0.0000 N   0  0  0  0  0  0  0  0  0  0  0  0
    2.5987    3.0002    0.0000 O   0  0  0  0  0  0  0  0  0  0  0  0
    9.0945   -0.7488    0.0000 O   0  0  0  0  0  0  0  0  0  0  0  0
   10.3931    1.5015    0.0000 O   0  0  0  0  0  0  0  0  0  0  0  0
  5  4  1  0
  6  4  1  0
  9  7  1  0
 10  8  1  0
 11  1  1  0
 11  5  1  0
 12  6  1  0
 13 11  1  0
 14  2  1  0
 14  7  1  0
 14  8  1  0
 15  9  1  0
 15 10  1  0
 15 12  1  0
 16 12  2  0
 17 13  2  0
 18  3  1  0
 18 13  1  0
M  END
>  <NAME>  (1205) 
1-METHYL-4-(5-METHOXYCARBONYLHEXANOYL)PIPERAZINE

>  <SYNONYMS>  (1205) 


>  <SPECTRUM TYPE>  (1205) 
MS1

>  <INSTRUMENT TYPE>  (1205) 
EI-B

>  <INSTRUMENT>  (1205) 
JEOL JMS-D-300

>  <ION MODE>  (1205) 
P

>  <INCHIKEY>  (1205) 
CMYWFMWDBNLMFJ-UHFFFAOYSA-N

>  <FORMULA>  (1205) 
C13H24N2O3

>  <EXACT MASS>  (1205) 
256.17869262799996

>  <MW>  (1205) 
256

>  <ID>  (1205) 
JP010142

>  <CONTRIBUTOR>  (1205) 
University of Tokyo Team, {Faculty of Engineering, University of Tokyo

>  <COMMENT>  (1205) 
SMILES=COC(=O)C(C)CCCC(=O)N(C1)CCN(C)C1
InChI=InChI=1S/C13H24N2O3/c1-11(13(17)18-3)5-4-6-12(16)15-9-7-14(2)8-10-15/h11H,4-10H2,1-3H3
computed SMILES=O=C(OC)C(C)CCCC(=O)N1CCN(C)CC1
accession=JP010142
date=2016.01.19 (Created 2008.10.21, modified 2011.05.06)
author=KURARAY CO., LTD.
license=CC BY-NC-SA
exact mass=256.17869
ionization energy=70 eV
ion type=[M]+*
computed spectral entropy=2.3196834896560055
computed normalized entropy=0.7878184965180359
SPLASH=splash10-00di-9000000000-f5536a9ba7691705973e
submitter=submitter = University of Tokyo Team (Faculty of Engineering, University of Tokyo)
MoNA Rating=3.75

>  <NUM PEAKS>  (1205) 
19

>  <MASS SPECTRAL PEAKS>  (1205) 
41 7
42 11
43 15
44 0.9
55 8
56 16
57 11
58 3.3
69 8
70 99.99
71 13
83 3.8
99 38
101 9
126 8
157 0.5
199 6
225 9
256 8

>  <PREDICTED SPECTRUM>  (1205) 
15 27
18 12
26 1
27 16
28 69
30 15
32 16
39 44
40 51
41 154
42 351
43 396
44 159
51 20
52 3
53 36
54 98
55 87
56 496
57 368
58 450
59 110
68 46
69 30
70 999
71 404
72 107
73 33
77 28
78 9
82 10
83 422
85 83
86 42
88 100
98 36
99 558
100 69
101 373
102 130
115 7
126 17
127 5
128 82
129 139
130 29
139 23
141 36
143 43
156 7
157 111
171 28
186 1
197 82
198 12
199 174
200 54
225 196
256 208

$$$$

     RDKit          2D

 17 17  0  0  0  0  0  0  0  0999 V2000
   -1.6700   -2.4596    0.0000 C   0  0  0  0  0  0  0  0  0  0  0  0
    2.2265    1.2910    0.0000 C   0  0  0  0  0  0  0  0  0  0  0  0
    8.7242   -0.9583    0.0000 C   0  0  0  0  0  0  0  0  0  0  0  0
    7.4242   -0.2083    0.0000 C   0  0  0  0  0  0  0  0  0  0  0  0
    8.7242   -2.4583    0.0000 C   0  0  0  0  0  0  0  0  0  0  0  0
    6.1242   -0.9583    0.0000 C   0  0  0  0  0  0  0  0  0  0  0  0
    7.4242   -3.2083    0.0000 C   0  0  0  0  0  0  0  0  0  0  0  0
    2.2272   -3.2090    0.0000 C   0  0  0  0  0  0  0  0  0  0  0  0
    6.1242   -2.4583    0.0000 C   0  0  0  0  0  0  0  0  0  0  0  0
    3.5262   -2.4588    0.0000 C   0  0  0  0  0  0  0  0  0  0  0  0
    0.9281   -2.4592    0.0000 C   0  0  0  0  0  0  0  0  0  0  0  0
    3.5259   -0.9588    0.0000 C   0  0  0  0  0  0  0  0  0  0  0  0
    0.9278   -0.9592    0.0000 O   0  0  0  0  0  0  0  0  0  0  0  0
    4.8248   -0.2085    0.0000 O   0  0  0  0  0  0  0  0  0  0  0  0
   -0.3708   -3.2094    0.0000 O   0  0  0  0  0  0  0  0  0  0  0  0
    2.2268   -0.2090    0.0000 O   0  0  0  0  0  0  0  0  0  0  0  0
    4.8253   -3.2085    0.0000 S   0  0  0  0  0  0  0  0  0  0  0  0
  4  3  2  0
  5  3  1  0
  6  4  1  0
  7  5  2  0
  9  6  2  0
  9  7  1  0
 10  8  1  0
 11  8  1  0
 12 10  1  0
 13 11  2  0
 14 12  2  0
 15  1  1  0
 15 11  1  0
 16  2  1  0
 16 12  1  0
 17  9  1  0
 17 10  1  0
M  END
>  <NAME>  (1206) 
2-PHENYLTHIO-1,4-BUTANEDICARBOXYLIC ACID DIMETHYL ESTER

>  <SYNONYMS>  (1206) 


>  <SPECTRUM TYPE>  (1206) 
MS1

>  <INSTRUMENT TYPE>  (1206) 
EI-B

>  <INSTRUMENT>  (1206) 
JEOL JMS-D-300

>  <ION MODE>  (1206) 
P

>  <INCHIKEY>  (1206) 
DUXDHXOTAWOLFK-UHFFFAOYSA-N

>  <FORMULA>  (1206) 
C12H14O4S

>  <EXACT MASS>  (1206) 
254.061279928

>  <MW>  (1206) 
254

>  <ID>  (1206) 
JP010141

>  <CONTRIBUTOR>  (1206) 
University of Tokyo Team, {Faculty of Engineering, University of Tokyo

>  <COMMENT>  (1206) 
SMILES=COC(=O)CC(C(=O)OC)Sc(c1)cccc1
InChI=InChI=1S/C12H14O4S/c1-15-11(13)8-10(12(14)16-2)17-9-6-4-3-5-7-9/h3-7,10H,8H2,1-2H3
computed SMILES=O=C(OC)CC(SC=1C=CC=CC1)C(=O)OC
accession=JP010141
date=2016.01.19 (Created 2008.10.21, modified 2011.05.06)
author=KURARAY CO., LTD.
license=CC BY-NC-SA
exact mass=254.06128
ionization energy=70 eV
ion type=[M]+*
computed spectral entropy=3.204048172764146
computed normalized entropy=0.8108961129622398
SPLASH=splash10-000l-3910000000-e802b178854f40b800f6
submitter=submitter = University of Tokyo Team (Faculty of Engineering, University of Tokyo)
MoNA Rating=3.75

>  <NUM PEAKS>  (1206) 
52

>  <MASS SPECTRAL PEAKS>  (1206) 
26 2
27 8
29 3
39 0.8
41 4
43 4
44 2
45 0.5
50 2
51 8
55 21
57 0.5
58 2
59 29
65 21
66 0.6
69 6
71 4
77 8
78 0.3
82 2
83 2
85 5
91 1.9
92 4
105 8
108 4
109 6.3
110 18
111 4
113 11
114 0.2
121 10
123 2
134 10
135 99.99
136 18
137 23
138 2
143 0.2
149 12
153 35
154 3
163 1.4
194 69
195 30
196 6
222 6.5
223 15
224 4
254 24
255 3

>  <PREDICTED SPECTRUM>  (1206) 
14 33
15 192
16 20
17 0
18 19
26 44
27 119
28 77
29 160
31 37
32 36
33 18
37 4
38 55
39 232
40 54
41 114
42 104
43 246
44 41
45 205
50 89
51 203
52 46
53 94
55 105
57 100
59 531
63 89
64 35
65 232
66 115
67 50
68 64
69 305
70 41
71 3
77 321
78 105
79 78
80 16
81 21
82 151
83 88
84 98
85 155
89 17
91 141
92 57
93 117
95 65
104 55
105 146
106 63
107 173
108 159
109 322
110 300
111 97
113 89
117 90
119 83
120 6
121 255
122 37
123 133
124 19
125 109
127 9
131 36
133 113
134 217
135 999
136 430
137 338
138 27
139 57
141 16
149 123
151 105
152 72
153 621
154 176
162 154
163 212
164 45
166 12
167 40
169 50
179 28
181 159
191 24
193 24
194 790
195 534
196 229
222 208
223 298
224 91
254 460
255 112
256 58

$$$$

     RDKit          2D

 13 14  0  0  0  0  0  0  0  0999 V2000
    4.1600    1.2990    0.0000 C   0  0  0  0  0  0  0  0  0  0  0  0
    3.4100   -0.0000    0.0000 C   0  0  0  0  0  0  0  0  0  0  0  0
   -3.0000    0.7500    0.0000 C   0  0  0  0  0  0  0  0  0  0  0  0
   -3.0000   -0.7500    0.0000 C   0  0  0  0  0  0  0  0  0  0  0  0
   -1.7000    1.5000    0.0000 C   0  0  0  0  0  0  0  0  0  0  0  0
   -1.7000   -1.5000    0.0000 C   0  0  0  0  0  0  0  0  0  0  0  0
   -0.4000    0.7500    0.0000 C   0  0  0  0  0  0  0  0  0  0  0  0
   -0.4000   -0.7500    0.0000 C   0  0  0  0  0  0  0  0  0  0  0  0
    1.0300    1.2100    0.0000 C   0  0  0  0  0  0  0  0  0  0  0  0
    1.0300   -1.2100    0.0000 C   0  0  0  0  0  0  0  0  0  0  0  0
    1.9100    0.0000    0.0000 N   0  0  0  0  0  0  0  0  0  0  0  0
    1.4953    2.6360    0.0000 O   0  0  0  0  0  0  0  0  0  0  0  0
    1.4953   -2.6360    0.0000 O   0  0  0  0  0  0  0  0  0  0  0  0
  2  1  2  0
  4  3  2  0
  5  3  1  0
  6  4  1  0
  7  5  2  0
  8  6  2  0
  8  7  1  0
  9  7  1  0
 10  8  1  0
 11  2  1  0
 11  9  1  0
 11 10  1  0
 12  9  2  0
 13 10  2  0
M  END
>  <NAME>  (1207) 
N-ETHENYLPHTHALIMIDE

>  <SYNONYMS>  (1207) 


>  <SPECTRUM TYPE>  (1207) 
MS1

>  <INSTRUMENT TYPE>  (1207) 
EI-B

>  <INSTRUMENT>  (1207) 
JEOL JMS-D-300

>  <ION MODE>  (1207) 
P

>  <INCHIKEY>  (1207) 
IGDLZDCWMRPMGL-UHFFFAOYSA-N

>  <FORMULA>  (1207) 
C10H7NO2

>  <EXACT MASS>  (1207) 
173.047678464

>  <MW>  (1207) 
173

>  <ID>  (1207) 
JP010140

>  <CONTRIBUTOR>  (1207) 
University of Tokyo Team, {Faculty of Engineering, University of Tokyo

>  <COMMENT>  (1207) 
SMILES=C=Cn(c(=O)1)c(=O)c(c2)c(ccc2)1
InChI=InChI=1S/C10H7NO2/c1-2-11-9(12)7-5-3-4-6-8(7)10(11)13/h2-6H,1H2
computed SMILES=O=C1C=2C=CC=CC2C(=O)N1C=C
accession=JP010140
license=CC BY-NC-SA
date=2016.01.19 (Created 2008.10.21, modified 2011.05.06)
author=KURARAY CO., LTD.
exact mass=173.04768
ionization energy=70 eV
ion type=[M]+*
computed spectral entropy=2.6356533243268347
computed normalized entropy=0.7537959744097931
SPLASH=splash10-0fk9-5900000000-932be53b1a935c04ecd6
submitter=submitter = University of Tokyo Team (Faculty of Engineering, University of Tokyo)
MoNA Rating=3.75

>  <NUM PEAKS>  (1207) 
33

>  <MASS SPECTRAL PEAKS>  (1207) 
27 2
38 4
41 3
43 0.2
50 20
51 3
52 9
55 0.3
57 2
66 12
69 3
73 0.3
74 7
75 9
76 46
77 0.8
89 2
90 9
102 2
103 1.1
104 43
105 10
117 13
118 0.5
129 6
132 5
133 6
145 0.8
146 10
161 4
172 5
173 99.99
174 13

>  <PREDICTED SPECTRUM>  (1207) 
26 104
27 66
28 38
37 96
38 107
39 74
40 97
41 14
42 35
43 99
44 24
49 47
50 520
51 146
52 141
54 16
62 78
63 115
64 8
65 25
66 39
67 7
74 230
75 290
76 802
77 300
78 79
88 65
89 165
90 205
91 30
92 10
102 50
103 91
104 801
105 229
114 68
115 142
116 191
117 215
118 28
128 29
129 137
130 335
131 6
132 192
144 101
145 305
146 169
172 156
173 999
174 343
175 67

$$$$

     RDKit          2D

 18 17  0  0  0  0  0  0  0  0999 V2000
    1.6238    7.6875    0.0000 C   0  0  0  0  0  0  0  0  0  0  0  0
  -11.3666    1.6875    0.0000 C   0  0  0  0  0  0  0  0  0  0  0  0
  -12.6656    3.9375    0.0000 C   0  0  0  0  0  0  0  0  0  0  0  0
  -10.0675    8.4375    0.0000 C   0  0  0  0  0  0  0  0  0  0  0  0
   -4.5365    6.5384    0.0000 C   0  0  0  0  0  0  0  0  0  0  0  0
    0.3248    8.4375    0.0000 C   0  0  0  0  0  0  0  0  0  0  0  0
   -0.9743    7.6875    0.0000 C   0  0  0  0  0  0  0  0  0  0  0  0
  -10.0675    5.4375    0.0000 C   0  0  0  0  0  0  0  0  0  0  0  0
   -6.1704    7.6875    0.0000 C   0  0  0  0  0  0  0  0  0  0  0  0
  -10.0675    3.9375    0.0000 C   0  0  0  0  0  0  0  0  0  0  0  0
   -8.7685    6.1875    0.0000 C   0  0  0  0  0  0  0  0  0  0  0  0
   -7.4695    8.4375    0.0000 C   0  0  0  0  0  0  0  0  0  0  0  0
   -2.2733    8.4375    0.0000 C   0  0  0  0  0  0  0  0  0  0  0  0
   -4.8714    8.4375    0.0000 C   0  0  0  0  0  0  0  0  0  0  0  0
  -11.3666    3.1875    0.0000 C   0  0  0  0  0  0  0  0  0  0  0  0
   -8.7685    7.6875    0.0000 C   0  0  0  0  0  0  0  0  0  0  0  0
   -3.5724    7.6875    0.0000 C   0  0  0  0  0  0  0  0  0  0  0  0
   -2.6082    6.5384    0.0000 O   0  0  0  0  0  0  0  0  0  0  0  0
  6  1  1  0
  7  6  1  0
 10  8  1  0
 11  8  1  0
 12  9  1  0
 13  7  1  0
 14  9  1  0
 15  2  1  0
 15  3  1  0
 15 10  2  0
 16  4  1  0
 16 11  1  0
 12 16  2  0
 17  5  1  0
 17 13  1  0
 17 14  1  0
 18 17  1  0
M  END
>  <NAME>  (1208) 
5,9,13-TRIMETHYL-(8Z,12)-TETRADECADIENE-5-OL

>  <SYNONYMS>  (1208) 


>  <SPECTRUM TYPE>  (1208) 
MS1

>  <INSTRUMENT TYPE>  (1208) 
EI-B

>  <INSTRUMENT>  (1208) 
JEOL JMS-D-300

>  <ION MODE>  (1208) 
P

>  <INCHIKEY>  (1208) 
SKBMBPGXVLGRGO-VBKFSLOCSA-N

>  <FORMULA>  (1208) 
C17H32O

>  <EXACT MASS>  (1208) 
252.24531564400002

>  <MW>  (1208) 
252

>  <ID>  (1208) 
JP010139

>  <CONTRIBUTOR>  (1208) 
University of Tokyo Team, {Faculty of Engineering, University of Tokyo

>  <COMMENT>  (1208) 
SMILES=CCCCC(C)(O)CCC([H])=C(C)CCC=C(C)C
InChI=InChI=1S/C17H32O/c1-6-7-13-17(5,18)14-9-12-16(4)11-8-10-15(2)3/h10,12,18H,6-9,11,13-14H2,1-5H3/b16-12-
computed SMILES=OC(C)(CCC=C(C)CCC=C(C)C)CCCC
accession=JP010139
date=2016.01.19 (Created 2008.10.21, modified 2011.05.06)
author=KURARAY CO., LTD.
license=CC BY-NC-SA
exact mass=252.24532
ionization energy=70 eV
ion type=[M]+*
computed spectral entropy=3.262223981842737
computed normalized entropy=0.8034157783693989
SPLASH=splash10-067i-9400000000-276c6fb4e589fe9f1a5b
submitter=submitter = University of Tokyo Team (Faculty of Engineering, University of Tokyo)
MoNA Rating=3.75

>  <NUM PEAKS>  (1208) 
58

>  <MASS SPECTRAL PEAKS>  (1208) 
27 4
29 7
39 4
41 4.6
42 2
43 29
45 10
53 0.5
55 26
56 2
57 13
58 0.5
59 4
67 15
68 10
69 99.99
70 6
71 8
79 3
80 0.4
81 70
82 11
83 15
85 0.7
91 2
92 2
93 17
94 0.4
95 41
96 5
97 7
101 2.8
107 9
108 2
109 44
110 0.6
111 2
113 2
121 13
122 0.4
123 22
124 2
125 2
135 0.3
136 17
137 8
139 2
149 0.3
151 2
152 2
165 38
166 0.6
177 15
178 2
191 8
219 0.2
234 17
235 2

>  <PREDICTED SPECTRUM>  (1208) 
27 145
28 39
29 228
30 2
31 66
39 128
40 20
41 641
42 129
43 522
44 62
45 78
51 32
52 15
53 212
54 69
55 423
56 131
57 349
58 50
59 207
60 21
65 78
66 66
67 417
68 272
69 999
70 236
71 344
72 61
77 129
78 38
79 191
80 104
81 719
82 373
83 295
84 116
85 176
86 45
87 42
91 192
92 46
93 346
94 111
95 509
96 164
97 200
98 40
99 28
100 19
101 63
105 54
107 237
108 133
109 603
110 242
111 147
112 38
113 45
121 317
122 166
123 351
124 203
125 189
126 75
127 88
133 1
135 174
136 357
137 297
138 110
139 39
140 2
141 55
147 67
149 250
151 175
152 106
153 77
154 12
163 111
164 89
165 318
166 241
167 117
168 59
169 81
170 9
177 305
178 123
179 58
180 11
183 25
191 95
195 53
205 21
209 63
219 88
234 337
235 118
252 11

$$$$

     RDKit          2D

 18 18  0  0  0  0  0  0  0  0999 V2000
   -4.6628   -0.8547    0.0000 C   0  0  0  0  0  0  0  0  0  0  0  0
   -3.3634    1.3951    0.0000 C   0  0  0  0  0  0  0  0  0  0  0  0
    0.5339    2.1451    0.0000 C   0  0  0  0  0  0  0  0  0  0  0  0
    4.9801   -2.1540    0.0000 C   0  0  0  0  0  0  0  0  0  0  0  0
    7.0291   -1.6049    0.0000 C   0  0  0  0  0  0  0  0  0  0  0  0
    3.1325    2.1459    0.0000 C   0  0  0  0  0  0  0  0  0  0  0  0
    4.4315    1.3959    0.0000 C   0  0  0  0  0  0  0  0  0  0  0  0
   -2.0648   -0.8551    0.0000 C   0  0  0  0  0  0  0  0  0  0  0  0
    3.1315   -0.8558    0.0000 C   0  0  0  0  0  0  0  0  0  0  0  0
   -3.3637   -0.1049    0.0000 C   0  0  0  0  0  0  0  0  0  0  0  0
    1.8330    1.3951    0.0000 C   0  0  0  0  0  0  0  0  0  0  0  0
    4.4310   -0.1049    0.0000 C   0  0  0  0  0  0  0  0  0  0  0  0
    1.8325   -0.1058    0.0000 C   0  0  0  0  0  0  0  0  0  0  0  0
   -0.7656   -0.1054    0.0000 C   0  0  0  0  0  0  0  0  0  0  0  0
    5.7301   -0.8549    0.0000 C   0  0  0  0  0  0  0  0  0  0  0  0
   -0.7654    1.3946    0.0000 O   0  0  0  0  0  0  0  0  0  0  0  0
    6.4801    0.4441    0.0000 O   0  0  0  0  0  0  0  0  0  0  0  0
    0.5333   -0.8556    0.0000 O   0  0  0  0  0  0  0  0  0  0  0  0
  7  6  1  0
 10  1  1  0
 10  2  1  0
 10  8  2  0
 11  3  1  0
 11  6  2  0
 12  7  1  0
 12  9  1  0
 13  9  1  0
 13 11  1  0
 14  8  1  0
 15  4  1  0
 15  5  1  0
 15 12  1  0
 16 14  2  0
 17 15  1  0
 18 13  1  0
 18 14  1  0
M  END
>  <NAME>  (1209) 
DIMETHYLACRYLIC ACID SOBREOL ESTER

>  <SYNONYMS>  (1209) 


>  <SPECTRUM TYPE>  (1209) 
MS1

>  <INSTRUMENT TYPE>  (1209) 
EI-B

>  <INSTRUMENT>  (1209) 
JEOL JMS-D-300

>  <ION MODE>  (1209) 
P

>  <INCHIKEY>  (1209) 
PYDAVHFDKJZDEH-UHFFFAOYSA-N

>  <FORMULA>  (1209) 
C15H24O3

>  <EXACT MASS>  (1209) 
252.17254462799997

>  <MW>  (1209) 
252

>  <ID>  (1209) 
JP010137

>  <CONTRIBUTOR>  (1209) 
University of Tokyo Team, {Faculty of Engineering, University of Tokyo

>  <COMMENT>  (1209) 
SMILES=CC(C)=CC(=O)OC(C(C)=1)CC(CC1)C(C)(C)O
InChI=InChI=1S/C15H24O3/c1-10(2)8-14(16)18-13-9-12(15(4,5)17)7-6-11(13)3/h6,8,12-13,17H,7,9H2,1-5H3
computed SMILES=O=C(OC1C(=CCC(C1)C(O)(C)C)C)C=C(C)C
accession=JP010137
date=2016.01.19 (Created 2008.10.21, modified 2011.05.06)
author=KURARAY CO., LTD.
license=CC BY-NC-SA
exact mass=252.17254
ionization energy=70 eV
ion type=[M]+*
computed spectral entropy=3.1820250786036497
computed normalized entropy=0.7977031347980292
SPLASH=splash10-054n-9200000000-b8bf5f7e3bcdf235457e
submitter=submitter = University of Tokyo Team (Faculty of Engineering, University of Tokyo)
MoNA Rating=3.75

>  <NUM PEAKS>  (1209) 
54

>  <MASS SPECTRAL PEAKS>  (1209) 
27 9
29 17
31 13
39 1.3
40 2
41 22
44 0.4
45 8
48 91
53 8
54 4
55 6.2
56 4
57 4
59 99.99
60 0.2
65 3
67 6
69 9
71 0.3
77 13
78 3
79 53
80 0.6
81 8
82 6
83 57
84 0.4
85 3
91 14
92 6
93 7.2
94 49
95 25
96 4
97 0.4
105 2
107 9
108 8
109 4.3
110 6
111 2
119 4
120 0.4
123 2
134 11
135 23
136 0.2
137 15
152 49
153 6
170 0.9
191 6
234 2

>  <PREDICTED SPECTRUM>  (1209) 
26 39
27 212
28 42
29 201
31 224
33 10
37 19
38 66
39 285
40 130
41 407
42 161
43 388
44 165
45 27
50 75
51 207
52 114
53 333
54 204
55 439
56 131
57 319
58 173
59 830
63 116
65 238
66 168
67 338
68 65
69 214
71 72
73 5
77 335
78 186
79 552
80 311
81 354
82 301
83 850
84 149
85 104
90 42
91 476
92 407
93 605
94 833
95 629
96 109
99 98
101 202
105 208
106 75
107 536
108 184
109 406
110 316
111 209
117 51
119 58
121 31
123 138
124 0
125 56
133 216
134 483
135 510
136 180
137 383
148 22
151 269
152 999
153 301
219 20
234 151

$$$$

     RDKit          2D

 18 18  0  0  0  0  0  0  0  0999 V2000
   -5.5209    1.6125    0.0000 C   0  0  0  0  0  0  0  0  0  0  0  0
   -2.9228    0.1125    0.0000 C   0  0  0  0  0  0  0  0  0  0  0  0
    2.2732   -2.8881    0.0000 C   0  0  0  0  0  0  0  0  0  0  0  0
    4.8719    1.6129    0.0000 C   0  0  0  0  0  0  0  0  0  0  0  0
    4.8714    0.1125    0.0000 C   0  0  0  0  0  0  0  0  0  0  0  0
   -4.2219    2.3625    0.0000 C   0  0  0  0  0  0  0  0  0  0  0  0
   -0.3252    0.1117    0.0000 C   0  0  0  0  0  0  0  0  0  0  0  0
    0.9748    2.3633    0.0000 C   0  0  0  0  0  0  0  0  0  0  0  0
   -2.9228    1.6125    0.0000 C   0  0  0  0  0  0  0  0  0  0  0  0
   -0.3248    1.6125    0.0000 C   0  0  0  0  0  0  0  0  0  0  0  0
    0.9738   -0.6383    0.0000 C   0  0  0  0  0  0  0  0  0  0  0  0
    2.2738    1.6133    0.0000 C   0  0  0  0  0  0  0  0  0  0  0  0
   -1.6238    2.3625    0.0000 C   0  0  0  0  0  0  0  0  0  0  0  0
    2.2733    0.1125    0.0000 C   0  0  0  0  0  0  0  0  0  0  0  0
   -1.6238    3.8625    0.0000 O   0  0  0  0  0  0  0  0  0  0  0  0
    0.9740   -2.1383    0.0000 O   0  0  0  0  0  0  0  0  0  0  0  0
    3.5730    2.3631    0.0000 O   0  0  0  0  0  0  0  0  0  0  0  0
    3.5724   -0.6375    0.0000 O   0  0  0  0  0  0  0  0  0  0  0  0
  6  1  2  0
  9  2  1  0
  9  6  1  0
 10  7  2  0
 10  8  1  0
 11  7  1  0
 12  8  2  0
 13  9  1  0
 13 10  1  0
 14 11  2  0
 14 12  1  0
 15 13  1  0
 16  3  1  0
 16 11  1  0
 17  4  1  0
 17 12  1  0
 18  5  1  0
 18 14  1  0
M  END
>  <NAME>  (1210) 
5-(1-HYDROXY-2-METHYL-3-BUTENYL)-1,2,3-TRIMETHOXYBENZENE

>  <SYNONYMS>  (1210) 
2-METHYL-1-(3,4,5-TRIMETHOXYPHENYL)-3-BUTENE-1-OL

>  <SPECTRUM TYPE>  (1210) 
MS1

>  <INSTRUMENT TYPE>  (1210) 
EI-B

>  <INSTRUMENT>  (1210) 
JEOL JMS-D-300

>  <ION MODE>  (1210) 
P

>  <INCHIKEY>  (1210) 
LXSUFJZTCALJSS-UHFFFAOYSA-N

>  <FORMULA>  (1210) 
C14H20O4

>  <EXACT MASS>  (1210) 
252.13615912

>  <MW>  (1210) 
252

>  <ID>  (1210) 
JP010136

>  <CONTRIBUTOR>  (1210) 
University of Tokyo Team, {Faculty of Engineering, University of Tokyo

>  <COMMENT>  (1210) 
SMILES=C=CC(C)C(O)c(c1)cc(OC)c(OC)c(OC)1
InChI=InChI=1S/C14H20O4/c1-6-9(2)13(15)10-7-11(16-3)14(18-5)12(8-10)17-4/h6-9,13,15H,1H2,2-5H3
computed SMILES=OC(C1=CC(OC)=C(OC)C(OC)=C1)C(C=C)C
accession=JP010136
date=2016.01.19 (Created 2008.10.21, modified 2011.05.06)
author=KURARAY CO., LTD.
license=CC BY-NC-SA
exact mass=252.13616
ionization energy=70 eV
ion type=[M]+*
computed spectral entropy=2.043020401750302
computed normalized entropy=0.6198791034906819
SPLASH=splash10-0002-0900000000-a991f886c2a60bebaeca
submitter=submitter = University of Tokyo Team (Faculty of Engineering, University of Tokyo)
MoNA Rating=3.75

>  <NUM PEAKS>  (1210) 
27

>  <MASS SPECTRAL PEAKS>  (1210) 
27 2
29 3
39 4
53 0.2
55 6
65 2
77 3
93 0.2
95 3
109 2
111 2
123 0.3
125 2
138 29
139 7
154 2.3
155 2
169 53
170 5
181 0.2
196 2
197 99.99
198 10
203 0.27
219 0.8
234 2.1
252 3.3

>  <PREDICTED SPECTRUM>  (1210) 
14 17
15 50
26 19
27 129
28 96
29 135
31 20
32 8
38 2
39 231
40 22
41 189
42 7
43 20
49 9
50 18
51 97
52 17
53 125
54 43
55 224
56 25
57 125
63 8
64 14
65 161
66 147
67 117
71 33
77 214
78 66
79 43
80 15
81 100
84 39
85 15
91 47
97 30
105 43
109 247
111 20
115 106
116 29
121 51
122 113
125 34
137 98
138 321
139 239
140 16
141 39
153 40
154 107
168 25
169 824
170 199
196 148
197 999
198 187
252 175
253 32

$$$$

     RDKit          2D

 18 18  0  0  0  0  0  0  0  0999 V2000
   -1.9496   -3.3757    0.0000 C   0  0  0  0  0  0  0  0  0  0  0  0
    0.6488   -4.8759    0.0000 C   0  0  0  0  0  0  0  0  0  0  0  0
    0.6493    1.1258    0.0000 C   0  0  0  0  0  0  0  0  0  0  0  0
    3.2480    1.1256    0.0000 C   0  0  0  0  0  0  0  0  0  0  0  0
    4.5471    1.8754    0.0000 C   0  0  0  0  0  0  0  0  0  0  0  0
   -0.6505   -2.6259    0.0000 C   0  0  0  0  0  0  0  0  0  0  0  0
    0.6486   -3.3759    0.0000 C   0  0  0  0  0  0  0  0  0  0  0  0
    0.6495   -0.3742    0.0000 C   0  0  0  0  0  0  0  0  0  0  0  0
    3.2477   -0.3744    0.0000 C   0  0  0  0  0  0  0  0  0  0  0  0
    5.8461    1.1252    0.0000 C   0  0  0  0  0  0  0  0  0  0  0  0
    1.9486   -1.1242    0.0000 C   0  0  0  0  0  0  0  0  0  0  0  0
   -0.6500   -1.1251    0.0000 C   0  0  0  0  0  0  0  0  0  0  0  0
    1.9481   -2.6251    0.0000 C   0  0  0  0  0  0  0  0  0  0  0  0
    4.5467   -1.1246    0.0000 O   0  0  0  0  0  0  0  0  0  0  0  0
    5.8458   -0.3748    0.0000 O   0  0  0  0  0  0  0  0  0  0  0  0
    7.1452    1.8749    0.0000 O   0  0  0  0  0  0  0  0  0  0  0  0
   -1.9490   -0.3751    0.0000 O   0  0  0  0  0  0  0  0  0  0  0  0
    3.2471   -3.3751    0.0000 O   0  0  0  0  0  0  0  0  0  0  0  0
  4  5  2  0
  6  1  1  0
  7  2  1  0
  7  6  2  0
  8  3  1  0
  9  4  1  0
 10  5  1  0
 11  8  1  0
 11  9  1  0
 12  6  1  0
 12  8  2  0
 13  7  1  0
 13 11  2  0
 14  9  2  0
 15 10  2  0
 16 10  1  0
 17 12  1  0
 18 13  1  0
M  END
>  <NAME>  (1211) 
4-(2,5-DIHYDROXY-3,4,6-TRIMETHYLPHENYL)-3-OXO-2-BUTENIC ACID

>  <SYNONYMS>  (1211) 


>  <SPECTRUM TYPE>  (1211) 
MS1

>  <INSTRUMENT TYPE>  (1211) 
EI-B

>  <INSTRUMENT>  (1211) 
JEOL JMS-D-300

>  <ION MODE>  (1211) 
P

>  <INCHIKEY>  (1211) 
HAWOBRSXOITBKM-PLNGDYQASA-N

>  <FORMULA>  (1211) 
C13H14O5

>  <EXACT MASS>  (1211) 
250.08412354799998

>  <MW>  (1211) 
250

>  <ID>  (1211) 
JP010135

>  <CONTRIBUTOR>  (1211) 
University of Tokyo Team, {Faculty of Engineering, University of Tokyo

>  <COMMENT>  (1211) 
SMILES=OC(=O)C=CC(=O)c(c(C)1)c(O)c(C)c(C)c(O)1
InChI=InChI=1S/C13H14O5/c1-6-7(2)13(18)11(8(3)12(6)17)9(14)4-5-10(15)16/h4-5,17-18H,1-3H3,(H,15,16)/b5-4-
computed SMILES=O=C(O)C=CC(=O)C=1C(O)=C(C(=C(O)C1C)C)C
accession=JP010135
date=2016.01.19 (Created 2008.10.21, modified 2011.05.06)
author=KURARAY CO., LTD.
license=CC BY-NC-SA
exact mass=250.08412
ionization energy=70 eV
ion type=[M]+*
computed spectral entropy=2.2639130424162524
computed normalized entropy=0.7436020225586248
SPLASH=splash10-0zfr-1290000000-e48b59e4d1a146efea4a
submitter=submitter = University of Tokyo Team (Faculty of Engineering, University of Tokyo)
MoNA Rating=3.75

>  <NUM PEAKS>  (1211) 
21

>  <MASS SPECTRAL PEAKS>  (1211) 
38 2
49 6
53 4
55 0.8
67 8
77 8
91 9
134 0.6
161 8
162 6
175 5
176 0.6
189 7
190 18
191 27
203 2.3
204 42
205 92
206 13
250 99.99
251 14

>  <PREDICTED SPECTRUM>  (1211) 
39 58
41 33
43 26
44 2
45 6
51 101
53 134
54 52
55 240
63 1
65 120
67 115
77 251
78 36
79 35
82 39
83 71
91 235
105 19
119 43
133 29
135 31
147 137
161 207
162 140
163 24
175 107
176 77
188 36
189 275
190 485
191 488
192 59
203 13
204 589
205 999
206 333
207 24
232 72
235 17
250 900
251 248

$$$$

     RDKit          2D

 18 18  0  0  0  0  0  0  0  0999 V2000
    8.5885    4.3157    0.0000 C   0  0  0  0  0  0  0  0  0  0  0  0
    7.2895    6.5657    0.0000 C   0  0  0  0  0  0  0  0  0  0  0  0
    2.0933    6.5657    0.0000 C   0  0  0  0  0  0  0  0  0  0  0  0
   -4.2780    2.0212    0.0000 C   0  0  0  0  0  0  0  0  0  0  0  0
   -5.0280    3.3202    0.0000 C   0  0  0  0  0  0  0  0  0  0  0  0
   -2.7948    1.7921    0.0000 C   0  0  0  0  0  0  0  0  0  0  0  0
    4.6914    5.0657    0.0000 C   0  0  0  0  0  0  0  0  0  0  0  0
    5.9904    4.3157    0.0000 C   0  0  0  0  0  0  0  0  0  0  0  0
    3.3923    4.3157    0.0000 C   0  0  0  0  0  0  0  0  0  0  0  0
   -4.4848    4.7193    0.0000 C   0  0  0  0  0  0  0  0  0  0  0  0
    0.7943    4.3157    0.0000 C   0  0  0  0  0  0  0  0  0  0  0  0
   -1.6917    2.8216    0.0000 C   0  0  0  0  0  0  0  0  0  0  0  0
   -0.5048    5.0657    0.0000 C   0  0  0  0  0  0  0  0  0  0  0  0
    7.2895    5.0657    0.0000 C   0  0  0  0  0  0  0  0  0  0  0  0
    2.0933    5.0657    0.0000 C   0  0  0  0  0  0  0  0  0  0  0  0
   -3.0417    5.1599    0.0000 C   0  0  0  0  0  0  0  0  0  0  0  0
   -1.8038    4.3157    0.0000 N   0  0  0  0  0  0  0  0  0  0  0  0
   -2.8160    6.6428    0.0000 O   0  0  0  0  0  0  0  0  0  0  0  0
  5  4  1  0
  6  4  1  0
  8  7  1  0
  9  7  1  0
 10  5  1  0
 12  6  1  0
 13 11  1  0
 14  1  1  0
 14  2  1  0
 14  8  2  0
 15  3  1  0
 15  9  1  0
 11 15  2  0
 16 10  1  0
 17 12  1  0
 17 13  1  0
 17 16  1  0
 18 16  2  0
M  END
>  <NAME>  (1212) 
N-(3,7-DIMETHYL-2,6-OCTADIENYL)-CAPROLACTAM

>  <SYNONYMS>  (1212) 


>  <SPECTRUM TYPE>  (1212) 
MS1

>  <INSTRUMENT TYPE>  (1212) 
EI-B

>  <INSTRUMENT>  (1212) 
JEOL JMS-D-300

>  <ION MODE>  (1212) 
P

>  <INCHIKEY>  (1212) 
IZUPQLMOLYRSQK-RVDMUPIBSA-N

>  <FORMULA>  (1212) 
C16H27NO

>  <EXACT MASS>  (1212) 
249.209264484

>  <MW>  (1212) 
249

>  <ID>  (1212) 
JP010134

>  <CONTRIBUTOR>  (1212) 
University of Tokyo Team, {Faculty of Engineering, University of Tokyo

>  <COMMENT>  (1212) 
SMILES=CC(C)=CCCC(C)=CCN(C1)C(=O)CCCC1
InChI=InChI=1S/C16H27NO/c1-14(2)8-7-9-15(3)11-13-17-12-6-4-5-10-16(17)18/h8,11H,4-7,9-10,12-13H2,1-3H3/b15-11+
computed SMILES=O=C1N(CC=C(C)CCC=C(C)C)CCCCC1
accession=JP010134
date=2016.01.19 (Created 2008.10.21, modified 2011.05.06)
author=KURARAY CO., LTD.
license=CC BY-NC-SA
exact mass=249.20926
ionization energy=70 eV
ion type=[M]+*
computed spectral entropy=3.3078108371869974
computed normalized entropy=0.761500692582914
SPLASH=splash10-001i-9800000000-f1518ec26692b6276387
submitter=submitter = University of Tokyo Team (Faculty of Engineering, University of Tokyo)
MoNA Rating=3.75

>  <NUM PEAKS>  (1212) 
77

>  <MASS SPECTRAL PEAKS>  (1212) 
27 4
29 4
30 3
39 0.5
40 1
41 37
42 7
43 0.5
44 4
53 6
54 2
55 2.2
56 4
57 2
65 1
66 0.1
67 10
68 7
69 36
70 0.4
71 2
77 2
79 4
80 0.5
81 9
82 4
83 3
84 0.8
85 7
91 4
92 2
93 1
94 3
95 4
96 27
97 0.3
98 20
99 3
105 1
107 0.3
108 2
109 1
110 1
112 0.3
113 1
114 21
115 2
119 0.1
121 10
122 2
124 1
126 3.7
127 6
128 1
135 1
136 0.9
137 1
138 21
139 2
140 0.1
143 2
150 1
152 5
164 0.1
166 7
167 3
178 2
179 0.3
180 99.99
181 14
182 1
192 0.3
206 3
207 1
234 1
249 1.7
250 3

>  <PREDICTED SPECTRUM>  (1212) 
18 3
26 4
27 110
28 49
29 102
30 220
33 4
39 173
40 86
41 480
42 174
43 261
44 191
45 3
51 18
52 43
53 221
54 108
55 217
56 140
57 102
58 40
65 78
66 70
67 234
68 197
69 596
70 229
71 59
72 4
77 42
78 38
79 158
80 139
81 264
82 159
83 125
84 222
85 135
86 5
91 104
92 45
93 206
94 97
95 225
96 275
97 194
98 228
99 110
105 61
106 16
107 134
108 84
109 110
110 98
112 386
113 240
114 282
115 95
119 7
120 33
121 106
122 93
123 75
124 206
125 24
126 287
127 119
134 41
135 86
136 114
137 75
138 267
139 118
140 40
148 7
150 172
152 106
163 2
164 102
165 24
166 347
167 123
178 70
180 999
181 381
182 23
190 7
192 29
205 1
206 175
207 59
234 111
235 10
248 8
249 147
250 97

$$$$

     RDKit          2D

 18 18  0  0  0  0  0  0  0  0999 V2000
    2.3089    1.6703    0.0000 C   0  0  0  0  0  0  0  0  0  0  0  0
    3.6073   -3.5804    0.0000 C   0  0  0  0  0  0  0  0  0  0  0  0
    4.9064   -1.3304    0.0000 C   0  0  0  0  0  0  0  0  0  0  0  0
   -5.4859    1.6696    0.0000 C   0  0  0  0  0  0  0  0  0  0  0  0
   -1.5893   -0.5812    0.0000 C   0  0  0  0  0  0  0  0  0  0  0  0
   -0.2903   -1.3312    0.0000 C   0  0  0  0  0  0  0  0  0  0  0  0
   -0.2893    1.6705    0.0000 C   0  0  0  0  0  0  0  0  0  0  0  0
    1.0097    0.9205    0.0000 C   0  0  0  0  0  0  0  0  0  0  0  0
    2.3083   -2.8304    0.0000 C   0  0  0  0  0  0  0  0  0  0  0  0
    3.6073   -0.5804    0.0000 C   0  0  0  0  0  0  0  0  0  0  0  0
   -4.1869    0.9196    0.0000 C   0  0  0  0  0  0  0  0  0  0  0  0
   -1.5888    0.9196    0.0000 C   0  0  0  0  0  0  0  0  0  0  0  0
    1.0092   -0.5804    0.0000 C   0  0  0  0  0  0  0  0  0  0  0  0
    2.3083   -1.3304    0.0000 N   0  0  0  0  0  0  0  0  0  0  0  0
    1.0092   -3.5804    0.0000 O   0  0  0  0  0  0  0  0  0  0  0  0
    3.6073    0.9196    0.0000 O   0  0  0  0  0  0  0  0  0  0  0  0
   -4.1869   -0.5804    0.0000 O   0  0  0  0  0  0  0  0  0  0  0  0
   -2.8879    1.6696    0.0000 O   0  0  0  0  0  0  0  0  0  0  0  0
  6  5  2  0
  8  1  1  0
  8  7  1  0
  9  2  1  0
 10  3  1  0
 11  4  1  0
 12  5  1  0
 12  7  2  0
 13  6  1  0
 13  8  2  0
 14  9  1  0
 14 10  1  0
 14 13  1  0
 15  9  2  0
 16 10  2  0
 17 11  2  0
 18 11  1  0
 18 12  1  0
M  END
>  <NAME>  (1213) 
4-DIACETYLAMINO-3-METHYLPHENYL ACETATE

>  <SYNONYMS>  (1213) 


>  <SPECTRUM TYPE>  (1213) 
MS1

>  <INSTRUMENT TYPE>  (1213) 
EI-B

>  <INSTRUMENT>  (1213) 
JEOL JMS-D-300

>  <ION MODE>  (1213) 
P

>  <INCHIKEY>  (1213) 
CNTDZEFLPRSVDQ-UHFFFAOYSA-N

>  <FORMULA>  (1213) 
C13H15NO4

>  <EXACT MASS>  (1213) 
249.10010795999997

>  <MW>  (1213) 
249

>  <ID>  (1213) 
JP010133

>  <CONTRIBUTOR>  (1213) 
University of Tokyo Team, {Faculty of Engineering, University of Tokyo

>  <COMMENT>  (1213) 
SMILES=CC(=O)Oc(c1)cc(C)c(c1)N(C(C)=O)C(C)=O
InChI=InChI=1S/C13H15NO4/c1-8-7-12(18-11(4)17)5-6-13(8)14(9(2)15)10(3)16/h5-7H,1-4H3
computed SMILES=O=C(OC1=CC=C(C(=C1)C)N(C(=O)C)C(=O)C)C
accession=JP010133
date=2016.01.19 (Created 2008.10.21, modified 2011.05.06)
author=KURARAY CO., LTD.
license=CC BY-NC-SA
exact mass=249.10011
ionization energy=70 eV
ion type=[M]+*
computed spectral entropy=1.9388964179996195
computed normalized entropy=0.610089231178108
SPLASH=splash10-00xr-1920000000-61e052d959ccd2ae9df1
submitter=submitter = University of Tokyo Team (Faculty of Engineering, University of Tokyo)
MoNA Rating=3.75

>  <NUM PEAKS>  (1213) 
24

>  <MASS SPECTRAL PEAKS>  (1213) 
28 4
39 2
42 2
43 5.2
52 2
65 2
66 2
67 0.2
77 4
94 3
120 2
122 1.4
123 99.99
124 10
146 2
148 0.2
149 2
164 2
165 77
166 0.8
207 40
208 4
249 10
250 1

>  <PREDICTED SPECTRUM>  (1213) 
14 38
15 99
28 9
38 43
39 32
40 14
41 6
42 73
43 429
44 26
45 0
50 106
51 120
52 129
53 110
54 36
60 9
62 12
63 74
64 70
65 119
66 175
67 94
68 36
75 12
76 52
77 213
78 109
79 105
80 144
81 90
82 33
89 17
90 15
91 30
92 83
93 150
94 190
95 171
96 30
102 0
104 12
105 143
106 142
107 115
108 123
109 57
119 12
120 30
122 376
123 999
124 424
125 173
128 10
132 77
136 20
137 97
146 68
147 172
148 79
149 93
150 25
151 1
164 62
165 611
166 166
167 1
207 467
208 176
209 12
249 182
250 79

$$$$

     RDKit          2D

 18 18  0  0  0  0  0  0  0  0999 V2000
   -5.5446    3.1736    0.0000 C   0  0  0  0  0  0  0  0  0  0  0  0
   -4.2456    0.9236    0.0000 C   0  0  0  0  0  0  0  0  0  0  0  0
    0.6157    4.3226    0.0000 C   0  0  0  0  0  0  0  0  0  0  0  0
   -1.7638    6.8812    0.0000 C   0  0  0  0  0  0  0  0  0  0  0  0
   -3.7540    5.2112    0.0000 C   0  0  0  0  0  0  0  0  0  0  0  0
    3.5487    0.9236    0.0000 C   0  0  0  0  0  0  0  0  0  0  0  0
    3.5491    2.4244    0.0000 C   0  0  0  0  0  0  0  0  0  0  0  0
    2.2491    0.1727    0.0000 C   0  0  0  0  0  0  0  0  0  0  0  0
    2.2501    3.1744    0.0000 C   0  0  0  0  0  0  0  0  0  0  0  0
    0.9501    0.9227    0.0000 C   0  0  0  0  0  0  0  0  0  0  0  0
   -2.9465    3.1736    0.0000 C   0  0  0  0  0  0  0  0  0  0  0  0
   -1.6475    2.4236    0.0000 C   0  0  0  0  0  0  0  0  0  0  0  0
   -4.2456    2.4236    0.0000 C   0  0  0  0  0  0  0  0  0  0  0  0
    0.9506    2.4236    0.0000 C   0  0  0  0  0  0  0  0  0  0  0  0
   -1.3126    4.3226    0.0000 C   0  0  0  0  0  0  0  0  0  0  0  0
   -0.3485    3.1736    0.0000 C   0  0  0  0  0  0  0  0  0  0  0  0
   -0.7996    5.7322    0.0000 O   0  0  0  0  0  0  0  0  0  0  0  0
   -2.7899    4.0621    0.0000 O   0  0  0  0  0  0  0  0  0  0  0  0
  7  6  2  0
  8  6  1  0
  9  7  1  0
 10  8  2  0
 12 11  1  0
 13  1  1  0
 13  2  1  0
 13 11  2  0
 14  9  2  0
 14 10  1  0
 16  3  1  0
 16 12  1  0
 16 14  1  0
 16 15  1  0
 17  4  1  0
 17 15  1  0
 18  5  1  0
 18 15  1  0
M  END
>  <NAME>  (1214) 
2,5-DIMETHYL-2-PHENYL-1,1-DIMETHOXY-4-HEXENE

>  <SYNONYMS>  (1214) 


>  <SPECTRUM TYPE>  (1214) 
MS1

>  <INSTRUMENT TYPE>  (1214) 
EI-B

>  <INSTRUMENT>  (1214) 
JEOL JMS-D-300

>  <ION MODE>  (1214) 
P

>  <INCHIKEY>  (1214) 
HQFQZISESHHIGV-UHFFFAOYSA-N

>  <FORMULA>  (1214) 
C16H24O2

>  <EXACT MASS>  (1214) 
248.177630008

>  <MW>  (1214) 
248

>  <ID>  (1214) 
JP010132

>  <CONTRIBUTOR>  (1214) 
University of Tokyo Team, {Faculty of Engineering, University of Tokyo

>  <COMMENT>  (1214) 
SMILES=CC(C)=CCC(C)(C(OC)OC)c(c1)cccc1
InChI=InChI=1S/C16H24O2/c1-13(2)11-12-16(3,15(17-4)18-5)14-9-7-6-8-10-14/h6-11,15H,12H2,1-5H3
computed SMILES=O(C)C(OC)C(C=1C=CC=CC1)(C)CC=C(C)C
accession=JP010132
date=2016.01.19 (Created 2008.10.21, modified 2011.05.06)
author=KURARAY CO., LTD.
license=CC BY-NC-SA
exact mass=248.17763
ionization energy=70 eV
ion type=[M]+*
computed spectral entropy=1.6008649541790876
computed normalized entropy=0.4857233592753267
SPLASH=splash10-004i-9200000000-41294de83694cc48ccdf
submitter=submitter = University of Tokyo Team (Faculty of Engineering, University of Tokyo)
MoNA Rating=3.75

>  <NUM PEAKS>  (1214) 
27

>  <MASS SPECTRAL PEAKS>  (1214) 
41 4
47 2
69 9
75 99.99
76 3
77 2
91 2
105 0.6
107 2
117 2
119 4
121 0.3
147 4
148 2
179 10
180 0.14
184 1.1
185 0.7
197 0.8
198 0.05
201 1.6
202 0.6
209 0.2
216 0.2
217 0.9
218 0.4
259 0.4

>  <PREDICTED SPECTRUM>  (1214) 
27 10
29 99
31 18
39 111
41 103
43 44
45 95
47 178
50 15
51 5
53 6
55 13
59 58
67 14
69 168
71 100
73 166
74 53
75 999
76 201
77 156
81 30
91 103
101 10
102 48
105 120
127 16
129 112
135 57
136 29
137 63
157 74
179 151
181 17
185 3
247 7
248 40

$$$$

     RDKit          2D

 18 19  0  0  0  0  0  0  0  0999 V2000
   -3.6087   -3.0002    0.0000 C   0  0  0  0  0  0  0  0  0  0  0  0
    4.1000   -0.0000    0.0000 C   0  0  0  0  0  0  0  0  0  0  0  0
    3.0195    1.9591    0.0000 C   0  0  0  0  0  0  0  0  0  0  0  0
    1.1124    2.5814    0.0000 C   0  0  0  0  0  0  0  0  0  0  0  0
    1.1124   -2.5814    0.0000 C   0  0  0  0  0  0  0  0  0  0  0  0
    3.0195   -1.9591    0.0000 C   0  0  0  0  0  0  0  0  0  0  0  0
   -2.3100    0.7500    0.0000 C   0  0  0  0  0  0  0  0  0  0  0  0
   -1.0100    1.5000    0.0000 C   0  0  0  0  0  0  0  0  0  0  0  0
   -1.0100   -1.5000    0.0000 C   0  0  0  0  0  0  0  0  0  0  0  0
   -4.9081   -0.7504    0.0000 C   0  0  0  0  0  0  0  0  0  0  0  0
   -3.6089   -1.5002    0.0000 C   0  0  0  0  0  0  0  0  0  0  0  0
    2.6000    0.0000    0.0000 C   0  0  0  0  0  0  0  0  0  0  0  0
   -2.3100   -0.7500    0.0000 C   0  0  0  0  0  0  0  0  0  0  0  0
    0.2900    0.7500    0.0000 C   0  0  0  0  0  0  0  0  0  0  0  0
    0.2900   -0.7500    0.0000 C   0  0  0  0  0  0  0  0  0  0  0  0
    1.7200    1.2100    0.0000 C   0  0  0  0  0  0  0  0  0  0  0  0
    1.7200   -1.2100    0.0000 C   0  0  0  0  0  0  0  0  0  0  0  0
   -6.2070   -1.5006    0.0000 O   0  0  0  0  0  0  0  0  0  0  0  0
  8  7  2  0
 11  1  1  0
 11 10  1  0
 12  2  1  0
 13  7  1  0
 13  9  2  0
 13 11  1  0
 14  8  1  0
 15  9  1  0
 15 14  2  0
 16  3  1  0
 16  4  1  0
 16 12  1  0
 16 14  1  0
 17  5  1  0
 17  6  1  0
 17 12  1  0
 17 15  1  0
 18 10  1  0
M  END
>  <NAME>  (1215) 
1,1,2,3,3-PENTAMETHYL-5-(1-METHYL-2-HYDROXYETHYL)-INDAN

>  <SYNONYMS>  (1215) 


>  <SPECTRUM TYPE>  (1215) 
MS1

>  <INSTRUMENT TYPE>  (1215) 
EI-B

>  <INSTRUMENT>  (1215) 
JEOL JMS-D-300

>  <ION MODE>  (1215) 
P

>  <INCHIKEY>  (1215) 
FADUOCSCUWPALK-UHFFFAOYSA-N

>  <FORMULA>  (1215) 
C17H26O

>  <EXACT MASS>  (1215) 
246.198365452

>  <MW>  (1215) 
246

>  <ID>  (1215) 
JP010131

>  <CONTRIBUTOR>  (1215) 
University of Tokyo Team, {Faculty of Engineering, University of Tokyo

>  <COMMENT>  (1215) 
SMILES=OCC(C)c(c2)cc(c(c2)1)C(C)(C)C(C)C(C)(C)1
InChI=InChI=1S/C17H26O/c1-11(10-18)13-7-8-14-15(9-13)17(5,6)12(2)16(14,3)4/h7-9,11-12,18H,10H2,1-6H3
computed SMILES=OCC(C1=CC=C2C(=C1)C(C)(C)C(C)C2(C)C)C
accession=JP010131
date=2016.01.19 (Created 2008.10.21, modified 2011.05.06)
author=KURARAY CO., LTD.
license=CC BY-NC-SA
exact mass=246.19837
ionization energy=70 eV
ion type=[M]+*
computed spectral entropy=1.482694080730553
computed normalized entropy=0.6439258576118937
SPLASH=splash10-00di-1900000000-a595917902c419c687bf
submitter=submitter = University of Tokyo Team (Faculty of Engineering, University of Tokyo)
MoNA Rating=3.75

>  <NUM PEAKS>  (1215) 
10

>  <MASS SPECTRAL PEAKS>  (1215) 
43 10
57 6
71 13
129 0.4
131 15
143 3
159 4
173 99.99
174 15
229 4

>  <PREDICTED SPECTRUM>  (1215) 
27 15
29 32
39 100
40 16
41 204
42 6
43 341
44 33
45 20
51 59
53 10
55 40
57 87
63 19
65 66
71 41
73 38
75 15
76 35
77 127
85 58
86 15
87 16
89 29
91 237
103 34
105 145
115 219
116 59
117 89
119 24
127 33
128 115
129 197
130 41
131 136
141 152
142 193
143 177
145 138
146 18
147 108
152 22
153 78
154 26
155 244
156 141
157 179
158 2
159 54
169 129
170 117
171 586
172 157
173 128
185 76
186 15
187 108
189 206
199 25
201 88
215 201
216 104
231 999
232 364
233 68
246 278
247 42

$$$$

     RDKit          2D

 17 17  0  0  0  0  0  0  0  0999 V2000
    6.4964   -0.7492    0.0000 C   0  0  0  0  0  0  0  0  0  0  0  0
   -3.8971   -5.2500    0.0000 C   0  0  0  0  0  0  0  0  0  0  0  0
    5.1972    0.0006    0.0000 C   0  0  0  0  0  0  0  0  0  0  0  0
   -2.5981   -4.5000    0.0000 C   0  0  0  0  0  0  0  0  0  0  0  0
    3.8981    0.7504    0.0000 C   0  0  0  0  0  0  0  0  0  0  0  0
   -1.2990   -3.7500    0.0000 C   0  0  0  0  0  0  0  0  0  0  0  0
   -1.3000    0.7500    0.0000 C   0  0  0  0  0  0  0  0  0  0  0  0
    1.3000   -0.7500    0.0000 C   0  0  0  0  0  0  0  0  0  0  0  0
    0.0000    3.0000    0.0000 C   0  0  0  0  0  0  0  0  0  0  0  0
    0.0000    1.5000    0.0000 C   0  0  0  0  0  0  0  0  0  0  0  0
   -1.3000   -0.7500    0.0000 C   0  0  0  0  0  0  0  0  0  0  0  0
    1.3000    0.7500    0.0000 C   0  0  0  0  0  0  0  0  0  0  0  0
   -0.0000   -1.5000    0.0000 C   0  0  0  0  0  0  0  0  0  0  0  0
   -2.5989   -1.5002    0.0000 Cl  0  0  0  0  0  0  0  0  0  0  0  0
    0.0000    4.5000    0.0000 N   0  0  0  0  0  0  0  0  0  0  0  0
    2.5989    1.5002    0.0000 O   0  0  0  0  0  0  0  0  0  0  0  0
   -0.0000   -3.0000    0.0000 O   0  0  0  0  0  0  0  0  0  0  0  0
  3  1  1  0
  4  2  1  0
  5  3  3  0
  6  4  3  0
 10  7  2  0
 10  9  1  0
 11  7  1  0
 12  8  2  0
 12 10  1  0
 13  8  1  0
 13 11  2  0
 14 11  1  0
 15  9  3  0
 16  5  1  0
 16 12  1  0
 17  6  1  0
 17 13  1  0
M  END
>  <NAME>  (1216) 
1,3-DIPROPYNOXY-4-CHLORO-6-CYANOBENZENE

>  <SYNONYMS>  (1216) 
2,4-DIPROPYNOXY-5-CHLORO-BENZONITRIL

>  <SPECTRUM TYPE>  (1216) 
MS1

>  <INSTRUMENT TYPE>  (1216) 
EI-B

>  <INSTRUMENT>  (1216) 
JEOL JMS-D-300

>  <ION MODE>  (1216) 
P

>  <INCHIKEY>  (1216) 
YWRHZTAJZBSLDN-UHFFFAOYSA-N

>  <FORMULA>  (1216) 
C13H8ClNO2

>  <EXACT MASS>  (1216) 
245.024356176

>  <MW>  (1216) 
245

>  <ID>  (1216) 
JP010130

>  <CONTRIBUTOR>  (1216) 
University of Tokyo Team, {Faculty of Engineering, University of Tokyo

>  <COMMENT>  (1216) 
SMILES=CC#COc(c1)c(C#N)cc(Cl)c(OC#CC)1
InChI=InChI=1S/C13H8ClNO2/c1-3-5-16-12-8-13(17-6-4-2)11(14)7-10(12)9-15/h7-8H,1-2H3
computed SMILES=N#CC1=CC(Cl)=C(OC#CC)C=C1OC#CC
accession=JP010130
date=2016.01.19 (Created 2008.10.21, modified 2011.05.06)
author=KURARAY CO., LTD.
license=CC BY-NC-SA
exact mass=245.02436
ionization energy=70 eV
ion type=[M]+*
computed spectral entropy=2.0329953355465546
computed normalized entropy=0.6677550838044573
SPLASH=splash10-0a4i-0190000000-e4e85a62f006f07e05f8
submitter=submitter = University of Tokyo Team (Faculty of Engineering, University of Tokyo)
MoNA Rating=3.75

>  <NUM PEAKS>  (1216) 
21

>  <MASS SPECTRAL PEAKS>  (1216) 
39 6
63 4
87 2
88 0.4
114 6
115 2
123 8
125 0.2
143 2
150 6
152 2
206 99.99
207 13
208 32
209 4
210 0.4
216 2
244 3
245 31
246 0.5
247 10

>  <PREDICTED SPECTRUM>  (1216) 
37 1
38 2
39 235
40 89
41 59
50 72
51 88
52 70
53 225
54 9
62 32
63 57
64 20
65 35
66 25
67 35
69 36
76 37
114 7
142 23
143 81
148 3
150 156
151 25
163 21
178 35
204 27
205 429
206 999
207 581
208 662
209 225
210 1
245 445
246 64
247 228
248 3

$$$$

     RDKit          2D

 17 16  0  0  0  0  0  0  0  0999 V2000
    3.2476    5.6250    0.0000 C   0  0  0  0  0  0  0  0  0  0  0  0
    1.9486    7.8750    0.0000 C   0  0  0  0  0  0  0  0  0  0  0  0
   -9.7428    5.6250    0.0000 C   0  0  0  0  0  0  0  0  0  0  0  0
   -8.4437    7.8750    0.0000 C   0  0  0  0  0  0  0  0  0  0  0  0
   -3.2476    7.8750    0.0000 C   0  0  0  0  0  0  0  0  0  0  0  0
   -8.4437    3.3750    0.0000 C   0  0  0  0  0  0  0  0  0  0  0  0
   -0.6495    6.3750    0.0000 C   0  0  0  0  0  0  0  0  0  0  0  0
    0.6495    5.6250    0.0000 C   0  0  0  0  0  0  0  0  0  0  0  0
   -1.9486    5.6250    0.0000 C   0  0  0  0  0  0  0  0  0  0  0  0
   -4.5466    5.6250    0.0000 C   0  0  0  0  0  0  0  0  0  0  0  0
   -5.8457    6.3750    0.0000 C   0  0  0  0  0  0  0  0  0  0  0  0
    1.9486    6.3750    0.0000 C   0  0  0  0  0  0  0  0  0  0  0  0
   -8.4437    6.3750    0.0000 C   0  0  0  0  0  0  0  0  0  0  0  0
   -3.2476    6.3750    0.0000 C   0  0  0  0  0  0  0  0  0  0  0  0
   -7.1447    4.1250    0.0000 C   0  0  0  0  0  0  0  0  0  0  0  0
   -7.1447    5.6250    0.0000 C   0  0  0  0  0  0  0  0  0  0  0  0
   -5.8457    3.3750    0.0000 O   0  0  0  0  0  0  0  0  0  0  0  0
  8  7  1  0
  9  7  1  0
 11 10  1  0
 12  1  1  0
 12  2  1  0
 12  8  1  0
 13  3  1  0
 13  4  1  0
 14  5  1  0
 14  9  1  0
 14 10  1  0
 15  6  1  0
 16 11  1  0
 16 13  1  0
 16 15  1  0
 17 15  1  0
M  END
>  <NAME>  (1217) 
3-ISOPROPYL-6,10-DIMETHYLUNDECANE-2-OL

>  <SYNONYMS>  (1217) 


>  <SPECTRUM TYPE>  (1217) 
MS1

>  <INSTRUMENT TYPE>  (1217) 
EI-B

>  <INSTRUMENT>  (1217) 
JEOL JMS-D-300

>  <ION MODE>  (1217) 
P

>  <INCHIKEY>  (1217) 
BVNWBGCXCHDPNH-UHFFFAOYSA-N

>  <FORMULA>  (1217) 
C16H34O

>  <EXACT MASS>  (1217) 
242.26096570800001

>  <MW>  (1217) 
242

>  <ID>  (1217) 
JP010129

>  <CONTRIBUTOR>  (1217) 
University of Tokyo Team, {Faculty of Engineering, University of Tokyo

>  <COMMENT>  (1217) 
SMILES=CC(C)CCCC(C)CCC(C(C)C)C(C)O
InChI=InChI=1S/C16H34O/c1-12(2)8-7-9-14(5)10-11-16(13(3)4)15(6)17/h12-17H,7-11H2,1-6H3
computed SMILES=OC(C)C(CCC(C)CCCC(C)C)C(C)C
accession=JP010129
date=2016.01.19 (Created 2008.10.21, modified 2011.05.06)
author=KURARAY CO., LTD.
license=CC BY-NC-SA
exact mass=242.26097
ionization energy=70 eV
ion type=[M]+*
computed spectral entropy=2.8037880489911
computed normalized entropy=0.7707825810514952
SPLASH=splash10-0ab9-9100000000-db47b858f71ef2857b99
submitter=submitter = University of Tokyo Team (Faculty of Engineering, University of Tokyo)
MoNA Rating=3.75

>  <NUM PEAKS>  (1217) 
38

>  <MASS SPECTRAL PEAKS>  (1217) 
27 4
29 6
39 2
41 1.9
42 3
43 46
44 2
45 3.8
55 24
56 22
57 99.99
58 0.4
69 28
70 16
71 80
72 0.4
83 19
84 21
85 34
86 0.2
97 8
98 4
99 10
111 0.8
112 17
113 23
125 2
126 1.3
127 8
140 2
141 4
155 0.2
196 10
197 4
198 2
224 0.2
225 0.5
227 0.7

>  <PREDICTED SPECTRUM>  (1217) 
17 9
18 10
19 5
27 142
28 40
29 98
31 111
32 0
39 163
40 84
41 528
42 286
43 761
44 76
45 160
46 43
47 1
53 72
54 35
55 546
56 514
57 999
58 304
66 0
67 124
68 82
69 573
70 459
71 823
72 81
81 70
82 30
83 407
84 279
85 332
86 69
96 66
97 444
98 168
99 383
111 262
112 247
113 409
115 27
125 96
126 173
127 136
140 122
141 152
183 28
196 161
197 79
198 42
199 20
225 27

$$$$

     RDKit          2D

 17 17  0  0  0  0  0  0  0  0999 V2000
   -9.9364    4.9403    0.0000 C   0  0  0  0  0  0  0  0  0  0  0  0
   -8.6374    7.1903    0.0000 C   0  0  0  0  0  0  0  0  0  0  0  0
   -3.4412    7.1903    0.0000 C   0  0  0  0  0  0  0  0  0  0  0  0
    2.7191    6.8394    0.0000 C   0  0  0  0  0  0  0  0  0  0  0  0
   -6.0393    5.6903    0.0000 C   0  0  0  0  0  0  0  0  0  0  0  0
   -0.8431    5.6903    0.0000 C   0  0  0  0  0  0  0  0  0  0  0  0
   -7.3383    4.9403    0.0000 C   0  0  0  0  0  0  0  0  0  0  0  0
   -4.7402    4.9403    0.0000 C   0  0  0  0  0  0  0  0  0  0  0  0
   -2.1422    4.9403    0.0000 C   0  0  0  0  0  0  0  0  0  0  0  0
    0.4559    4.9403    0.0000 C   0  0  0  0  0  0  0  0  0  0  0  0
    4.5548    4.9399    0.0000 C   0  0  0  0  0  0  0  0  0  0  0  0
   -8.6374    5.6903    0.0000 C   0  0  0  0  0  0  0  0  0  0  0  0
   -3.4412    5.6903    0.0000 C   0  0  0  0  0  0  0  0  0  0  0  0
    3.0540    4.9403    0.0000 C   0  0  0  0  0  0  0  0  0  0  0  0
    1.7549    5.6903    0.0000 C   0  0  0  0  0  0  0  0  0  0  0  0
    0.7908    6.8394    0.0000 O   0  0  0  0  0  0  0  0  0  0  0  0
    3.8048    3.6408    0.0000 O   0  0  0  0  0  0  0  0  0  0  0  0
  7  5  1  0
  8  5  1  0
  9  6  1  0
 10  6  1  0
 12  1  1  0
 12  2  1  0
 12  7  1  0
 13  3  1  0
 13  8  1  0
 13  9  1  0
 14 11  1  0
 15  4  1  0
 15 10  1  0
 15 14  1  0
 16 15  1  0
 17 11  1  0
 17 14  1  0
M  END
>  <NAME>  (1218) 
1,2-EPOXY-3,7,11-TRIMETHYLDODECANE-3-OL

>  <SYNONYMS>  (1218) 


>  <SPECTRUM TYPE>  (1218) 
MS1

>  <INSTRUMENT TYPE>  (1218) 
EI-B

>  <INSTRUMENT>  (1218) 
JEOL JMS-D-300

>  <ION MODE>  (1218) 
P

>  <INCHIKEY>  (1218) 
NHBSCDIASIETLN-UHFFFAOYSA-N

>  <FORMULA>  (1218) 
C15H30O2

>  <EXACT MASS>  (1218) 
242.2245802

>  <MW>  (1218) 
242

>  <ID>  (1218) 
JP010128

>  <CONTRIBUTOR>  (1218) 
University of Tokyo Team, {Faculty of Engineering, University of Tokyo

>  <COMMENT>  (1218) 
SMILES=CC(C)CCCC(C)CCCC(C)(O)C(O1)C1
InChI=InChI=1S/C15H30O2/c1-12(2)7-5-8-13(3)9-6-10-15(4,16)14-11-17-14/h12-14,16H,5-11H2,1-4H3
computed SMILES=OC(C)(CCCC(C)CCCC(C)C)C1OC1
author=KURARAY CO., LTD.
accession=JP010128
date=2016.01.19 (Created 2008.10.21, modified 2011.05.06)
license=CC BY-NC-SA
exact mass=242.22458
ionization energy=70 eV
ion type=[M]+*
computed spectral entropy=2.7084440906009464
computed normalized entropy=0.744571804398077
SPLASH=splash10-000l-9000000000-60721d891ad5904ff7d7
submitter=submitter = University of Tokyo Team (Faculty of Engineering, University of Tokyo)
MoNA Rating=3.75

>  <NUM PEAKS>  (1218) 
38

>  <MASS SPECTRAL PEAKS>  (1218) 
27 4
29 8
31 2
39 0.2
41 13
42 4
43 83
44 0.2
45 2
55 22
56 7
57 2.1
58 6
59 4
67 3
68 0.4
69 34
70 7
71 17
72 0.2
81 6
82 3
83 24
84 0.3
85 7
86 2
87 99.99
88 0.6
89 2
95 6
97 14
99 0.3
109 4
111 12
125 9
139 0.2
199 11
200 2

>  <PREDICTED SPECTRUM>  (1218) 
15 2
17 19
18 37
26 2
27 235
28 112
29 263
30 15
31 185
32 23
33 4
38 24
39 216
40 70
41 610
42 310
43 999
44 94
45 146
50 2
51 40
52 51
53 154
54 52
55 619
56 374
57 677
58 318
59 458
60 14
61 1
65 84
66 42
67 266
68 112
69 750
70 377
71 633
72 70
73 104
77 9
79 20
80 0
81 263
82 49
83 436
84 175
85 240
86 100
87 588
88 207
89 83
90 1
95 312
96 111
97 521
98 93
99 12
101 35
107 23
109 173
111 514
112 139
113 91
125 227
129 44
139 7
141 5
153 14
181 26
182 16
183 83
195 40
197 26
199 293
227 74
237 39

$$$$

     RDKit          2D

 17 16  0  0  0  0  0  0  0  0999 V2000
    4.8714    7.3125    0.0000 C   0  0  0  0  0  0  0  0  0  0  0  0
    3.5724    9.5625    0.0000 C   0  0  0  0  0  0  0  0  0  0  0  0
   -6.8200    8.0625    0.0000 C   0  0  0  0  0  0  0  0  0  0  0  0
   -5.5209    7.3125    0.0000 C   0  0  0  0  0  0  0  0  0  0  0  0
   -8.1190    7.3125    0.0000 C   0  0  0  0  0  0  0  0  0  0  0  0
   -4.2219    8.0625    0.0000 C   0  0  0  0  0  0  0  0  0  0  0  0
   -9.4180    8.0625    0.0000 C   0  0  0  0  0  0  0  0  0  0  0  0
   -2.9228    7.3125    0.0000 C   0  0  0  0  0  0  0  0  0  0  0  0
  -10.7171    7.3125    0.0000 C   0  0  0  0  0  0  0  0  0  0  0  0
   -1.6238    8.0625    0.0000 C   0  0  0  0  0  0  0  0  0  0  0  0
  -12.0161    8.0625    0.0000 C   0  0  0  0  0  0  0  0  0  0  0  0
   -0.3248    7.3125    0.0000 C   0  0  0  0  0  0  0  0  0  0  0  0
    3.5724    8.0625    0.0000 C   0  0  0  0  0  0  0  0  0  0  0  0
    2.2733    7.3125    0.0000 C   0  0  0  0  0  0  0  0  0  0  0  0
  -13.3151    7.3125    0.0000 O   0  0  0  0  0  0  0  0  0  0  0  0
    2.2733    5.8125    0.0000 O   0  0  0  0  0  0  0  0  0  0  0  0
    0.9743    8.0625    0.0000 O   0  0  0  0  0  0  0  0  0  0  0  0
  4  3  1  0
  5  3  1  0
  6  4  1  0
  7  5  1  0
  8  6  1  0
  9  7  1  0
 10  8  1  0
 11  9  1  0
 12 10  1  0
 13  1  2  0
 13  2  1  0
 14 13  1  0
 15 11  1  0
 16 14  2  0
 17 12  1  0
 17 14  1  0
M  END
>  <NAME>  (1219) 
METHACRYLIC ACID 1,10-DECANDIOL MONOESTER

>  <SYNONYMS>  (1219) 


>  <SPECTRUM TYPE>  (1219) 
MS1

>  <INSTRUMENT TYPE>  (1219) 
EI-B

>  <INSTRUMENT>  (1219) 
JEOL JMS-D-300

>  <ION MODE>  (1219) 
P

>  <INCHIKEY>  (1219) 
ZUQABTLQDXJZFK-UHFFFAOYSA-N

>  <FORMULA>  (1219) 
C14H26O3

>  <EXACT MASS>  (1219) 
242.188194692

>  <MW>  (1219) 
242

>  <ID>  (1219) 
JP010127

>  <CONTRIBUTOR>  (1219) 
University of Tokyo Team, {Faculty of Engineering, University of Tokyo

>  <COMMENT>  (1219) 
SMILES=OCCCCCCCCCCOC(=O)C(C)=C
InChI=InChI=1S/C14H26O3/c1-13(2)14(16)17-12-10-8-6-4-3-5-7-9-11-15/h15H,1,3-12H2,2H3
computed SMILES=O=C(OCCCCCCCCCCO)C(=C)C
accession=JP010127
date=2016.01.19 (Created 2008.10.21, modified 2011.05.06)
author=KURARAY CO., LTD.
license=CC BY-NC-SA
exact mass=242.18819
ionization energy=70 eV
ion type=[M]+*
computed spectral entropy=3.1877792748336415
computed normalized entropy=0.7919256551348579
SPLASH=splash10-0159-9000000000-01b04e406fadd7b0df3c
submitter=submitter = University of Tokyo Team (Faculty of Engineering, University of Tokyo)
MoNA Rating=3.75

>  <NUM PEAKS>  (1219) 
56

>  <MASS SPECTRAL PEAKS>  (1219) 
27 3
28 2
29 6
31 0.6
39 8
41 53
42 7
43 1.5
53 2
54 21
55 34
56 1.3
57 15
66 4
67 42
68 4.8
69 99.99
70 21
71 11
74 0.2
79 2
80 2
81 44
82 5.2
83 35
84 7
85 6
86 0.5
87 66
88 10
89 2
94 0.2
95 35
96 31
97 21
98 0.6
99 6
109 17
110 18
111 0.5
112 4
113 5
114 2
123 0.3
124 2
125 2
126 3
127 0.4
137 4
138 6
139 3
155 0.2
212 2
224 0.6
242 0.4
243 0.5

>  <PREDICTED SPECTRUM>  (1219) 
17 8
18 13
19 7
26 47
27 130
28 101
29 311
30 57
31 151
37 8
38 29
39 331
40 139
41 792
42 276
43 424
44 80
45 22
51 38
52 16
53 179
54 328
55 772
56 360
57 350
58 83
59 110
63 5
65 35
66 98
67 487
68 495
69 999
70 402
71 343
72 19
73 18
74 48
77 103
78 39
79 136
80 115
81 564
82 502
83 471
84 189
85 113
86 93
87 741
88 204
89 15
90 10
91 0
93 86
94 54
95 543
96 408
97 407
98 121
99 106
100 65
109 289
110 240
111 229
112 129
113 78
114 10
123 182
124 150
125 71
126 70
127 18
128 66
137 17
138 155
139 25
142 8
143 19
155 2
156 15
224 33

$$$$

     RDKit          2D

 17 16  0  0  0  0  0  0  0  0999 V2000
  -10.7171    7.3125    0.0000 C   0  0  0  0  0  0  0  0  0  0  0  0
   -9.4180    5.0625    0.0000 C   0  0  0  0  0  0  0  0  0  0  0  0
    3.5724    5.0625    0.0000 C   0  0  0  0  0  0  0  0  0  0  0  0
    4.8714    7.3125    0.0000 C   0  0  0  0  0  0  0  0  0  0  0  0
   -4.2219    6.5625    0.0000 C   0  0  0  0  0  0  0  0  0  0  0  0
   -1.6238    6.5625    0.0000 C   0  0  0  0  0  0  0  0  0  0  0  0
   -5.5209    7.3125    0.0000 C   0  0  0  0  0  0  0  0  0  0  0  0
   -0.3248    7.3125    0.0000 C   0  0  0  0  0  0  0  0  0  0  0  0
   -9.4180    6.5625    0.0000 C   0  0  0  0  0  0  0  0  0  0  0  0
    3.5724    6.5625    0.0000 C   0  0  0  0  0  0  0  0  0  0  0  0
   -8.1190    7.3125    0.0000 C   0  0  0  0  0  0  0  0  0  0  0  0
    2.2733    7.3125    0.0000 C   0  0  0  0  0  0  0  0  0  0  0  0
   -8.1190    8.8125    0.0000 O   0  0  0  0  0  0  0  0  0  0  0  0
    2.2733    8.8125    0.0000 O   0  0  0  0  0  0  0  0  0  0  0  0
   -2.9228    7.3125    0.0000 O   0  0  0  0  0  0  0  0  0  0  0  0
   -6.8200    6.5625    0.0000 O   0  0  0  0  0  0  0  0  0  0  0  0
    0.9743    6.5625    0.0000 O   0  0  0  0  0  0  0  0  0  0  0  0
  7  5  1  0
  8  6  1  0
  9  1  2  0
  9  2  1  0
 10  3  2  0
 10  4  1  0
 11  9  1  0
 12 10  1  0
 13 11  2  0
 14 12  2  0
 15  5  1  0
 15  6  1  0
 16  7  1  0
 16 11  1  0
 17  8  1  0
 17 12  1  0
M  END
>  <NAME>  (1220) 
DIETHYLENEGLYCOL DIMETHACRYLATE

>  <SYNONYMS>  (1220) 


>  <SPECTRUM TYPE>  (1220) 
MS1

>  <INSTRUMENT TYPE>  (1220) 
EI-B

>  <INSTRUMENT>  (1220) 
JEOL JMS-D-300

>  <ION MODE>  (1220) 
P

>  <INCHIKEY>  (1220) 
XFCMNSHQOZQILR-UHFFFAOYSA-N

>  <FORMULA>  (1220) 
C12H18O5

>  <EXACT MASS>  (1220) 
242.115423676

>  <MW>  (1220) 
242

>  <ID>  (1220) 
JP010126

>  <CONTRIBUTOR>  (1220) 
University of Tokyo Team, {Faculty of Engineering, University of Tokyo

>  <COMMENT>  (1220) 
SMILES=CC(=C)C(=O)OCCOCCOC(=O)C(C)=C
InChI=InChI=1S/C12H18O5/c1-9(2)11(13)16-7-5-15-6-8-17-12(14)10(3)4/h1,3,5-8H2,2,4H3
computed SMILES=O=C(OCCOCCOC(=O)C(=C)C)C(=C)C
accession=JP010126
date=2016.01.19 (Created 2008.10.21, modified 2011.05.06)
author=KURARAY CO., LTD.
license=CC BY-NC-SA
exact mass=242.11542
ionization energy=70 eV
ion type=[M]+*
computed spectral entropy=2.0228237363825277
computed normalized entropy=0.6644141331719393
SPLASH=splash10-03xr-9500000000-722e5ce0528cb921be49
submitter=submitter = University of Tokyo Team (Faculty of Engineering, University of Tokyo)
MoNA Rating=3.75

>  <NUM PEAKS>  (1220) 
21

>  <MASS SPECTRAL PEAKS>  (1220) 
39 8
40 3
41 26
43 0.3
44 3
45 23
58 2
68 0.2
69 79
70 6
75 2
86 2.5
87 4
88 3
89 15
100 0.9
101 6
112 6
113 99.99
114 0.8
143 3

>  <PREDICTED SPECTRUM>  (1220) 
26 37
27 86
28 60
29 113
30 62
31 34
36 2
37 26
38 78
39 342
40 173
41 636
42 219
43 65
44 68
45 113
46 0
53 87
54 41
55 22
56 13
57 95
58 78
59 52
60 5
68 274
69 999
70 298
71 121
72 30
73 20
84 4
85 68
86 217
87 260
88 76
89 124
92 10
93 4
94 4
95 70
96 19
97 67
98 10
99 129
100 90
103 15
112 455
113 744
114 271
115 115
125 11
138 21
141 46
142 0
143 62
156 177
157 115
158 49

$$$$

     RDKit          2D

 17 16  0  0  0  0  0  0  0  0999 V2000
    3.2476    5.6250    0.0000 C   0  0  0  0  0  0  0  0  0  0  0  0
    1.9486    7.8750    0.0000 C   0  0  0  0  0  0  0  0  0  0  0  0
   -9.7428    5.6250    0.0000 C   0  0  0  0  0  0  0  0  0  0  0  0
   -8.4437    7.8750    0.0000 C   0  0  0  0  0  0  0  0  0  0  0  0
   -3.2476    7.8750    0.0000 C   0  0  0  0  0  0  0  0  0  0  0  0
   -8.4437    3.3750    0.0000 C   0  0  0  0  0  0  0  0  0  0  0  0
   -0.6495    6.3750    0.0000 C   0  0  0  0  0  0  0  0  0  0  0  0
    0.6495    5.6250    0.0000 C   0  0  0  0  0  0  0  0  0  0  0  0
   -1.9486    5.6250    0.0000 C   0  0  0  0  0  0  0  0  0  0  0  0
   -4.5466    5.6250    0.0000 C   0  0  0  0  0  0  0  0  0  0  0  0
   -5.8457    6.3750    0.0000 C   0  0  0  0  0  0  0  0  0  0  0  0
    1.9486    6.3750    0.0000 C   0  0  0  0  0  0  0  0  0  0  0  0
   -8.4437    6.3750    0.0000 C   0  0  0  0  0  0  0  0  0  0  0  0
   -3.2476    6.3750    0.0000 C   0  0  0  0  0  0  0  0  0  0  0  0
   -7.1447    4.1250    0.0000 C   0  0  0  0  0  0  0  0  0  0  0  0
   -7.1447    5.6250    0.0000 C   0  0  0  0  0  0  0  0  0  0  0  0
   -5.8457    3.3750    0.0000 O   0  0  0  0  0  0  0  0  0  0  0  0
  8  7  1  0
  9  7  1  0
 11 10  1  0
 12  1  1  0
 12  2  1  0
 12  8  1  0
 13  3  1  0
 13  4  1  0
 14  5  1  0
 14  9  1  0
 14 10  1  0
 15  6  1  0
 16 11  1  0
 16 13  1  0
 16 15  1  0
 17 15  2  0
M  END
>  <NAME>  (1221) 
3-ISOPROPYL-6,10-DIMETHYLUNDECANE-2-ONE

>  <SYNONYMS>  (1221) 


>  <SPECTRUM TYPE>  (1221) 
MS1

>  <INSTRUMENT TYPE>  (1221) 
EI-B

>  <INSTRUMENT>  (1221) 
JEOL JMS-D-300

>  <ION MODE>  (1221) 
P

>  <INCHIKEY>  (1221) 
XCMBADWJWNQIAY-UHFFFAOYSA-N

>  <FORMULA>  (1221) 
C16H32O

>  <EXACT MASS>  (1221) 
240.245315644

>  <MW>  (1221) 
240

>  <ID>  (1221) 
JP010125

>  <CONTRIBUTOR>  (1221) 
University of Tokyo Team, {Faculty of Engineering, University of Tokyo

>  <COMMENT>  (1221) 
SMILES=CC(C)CCCC(C)CCC(C(C)C)C(C)=O
InChI=InChI=1S/C16H32O/c1-12(2)8-7-9-14(5)10-11-16(13(3)4)15(6)17/h12-14,16H,7-11H2,1-6H3
computed SMILES=O=C(C)C(CCC(C)CCCC(C)C)C(C)C
accession=JP010125
date=2016.01.19 (Created 2008.10.21, modified 2011.05.06)
author=KURARAY CO., LTD.
license=CC BY-NC-SA
exact mass=240.24532
ionization energy=70 eV
ion type=[M]+*
computed spectral entropy=2.543144835062832
computed normalized entropy=0.6894084956413118
SPLASH=splash10-0udi-9500000000-24d8fe2f6d4fe4cef97d
submitter=submitter = University of Tokyo Team (Faculty of Engineering, University of Tokyo)
MoNA Rating=3.75

>  <NUM PEAKS>  (1221) 
40

>  <MASS SPECTRAL PEAKS>  (1221) 
27 2
29 4
39 2
41 1.4
42 2
43 44
55 14
56 0.6
57 35
58 6
67 2
68 0.2
69 13
70 4
71 31
72 0.2
81 3
82 3
83 6
84 0.2
85 6
86 4
95 4
97 0.2
99 9
100 99.99
101 7
109 0.3
111 2
113 6
123 2
126 0.2
127 2
180 2
195 0.3
196 0.15
197 0.8
198 1
225 0.7
240 1

>  <PREDICTED SPECTRUM>  (1221) 
15 4
26 25
27 250
28 74
29 261
38 3
39 186
40 91
41 491
42 160
43 946
44 148
51 13
52 1
53 100
54 59
55 520
56 340
57 814
58 220
66 2
67 179
68 84
69 477
70 337
71 999
72 166
73 36
78 11
81 181
82 142
83 243
84 37
85 433
86 381
95 52
96 38
97 245
98 73
99 444
100 300
101 66
109 34
111 107
112 154
113 398
114 160
125 7
126 49
127 261
128 205
141 58
154 36
155 148
169 15
197 108
198 23
240 2

$$$$

     RDKit          2D

 17 16  0  0  0  0  0  0  0  0999 V2000
    3.5724    6.5625    0.0000 C   0  0  0  0  0  0  0  0  0  0  0  0
  -10.7171    7.3125    0.0000 C   0  0  0  0  0  0  0  0  0  0  0  0
   -9.4180    5.0625    0.0000 C   0  0  0  0  0  0  0  0  0  0  0  0
    0.0101    5.4134    0.0000 C   0  0  0  0  0  0  0  0  0  0  0  0
   -5.1861    5.4134    0.0000 C   0  0  0  0  0  0  0  0  0  0  0  0
    2.2733    7.3125    0.0000 C   0  0  0  0  0  0  0  0  0  0  0  0
   -6.8200    6.5625    0.0000 C   0  0  0  0  0  0  0  0  0  0  0  0
   -1.6238    6.5625    0.0000 C   0  0  0  0  0  0  0  0  0  0  0  0
   -8.1190    7.3125    0.0000 C   0  0  0  0  0  0  0  0  0  0  0  0
   -5.5209    7.3125    0.0000 C   0  0  0  0  0  0  0  0  0  0  0  0
   -0.3248    7.3125    0.0000 C   0  0  0  0  0  0  0  0  0  0  0  0
   -2.9228    7.3125    0.0000 C   0  0  0  0  0  0  0  0  0  0  0  0
   -9.4180    6.5625    0.0000 C   0  0  0  0  0  0  0  0  0  0  0  0
    0.9743    6.5625    0.0000 C   0  0  0  0  0  0  0  0  0  0  0  0
   -4.2219    6.5625    0.0000 C   0  0  0  0  0  0  0  0  0  0  0  0
    1.9385    5.4134    0.0000 O   0  0  0  0  0  0  0  0  0  0  0  0
   -3.2577    5.4134    0.0000 O   0  0  0  0  0  0  0  0  0  0  0  0
  6  1  2  0
  9  7  1  0
 10  7  1  0
 11  8  1  0
 12  8  1  0
 13  2  1  0
 13  3  1  0
 13  9  2  0
 14  4  1  0
 14  6  1  0
 14 11  1  0
 15  5  1  0
 15 10  1  0
 15 12  1  0
 16 14  1  0
 17 15  1  0
M  END
>  <NAME>  (1222) 
3,7,11-TRIMETHYL-1,10-DODECADIENE-3,7-DIOL

>  <SYNONYMS>  (1222) 


>  <SPECTRUM TYPE>  (1222) 
MS1

>  <INSTRUMENT TYPE>  (1222) 
EI-B

>  <INSTRUMENT>  (1222) 
JEOL JMS-D-300

>  <ION MODE>  (1222) 
P

>  <INCHIKEY>  (1222) 
WNMPAKAQHSXIKK-UHFFFAOYSA-N

>  <FORMULA>  (1222) 
C15H28O2

>  <EXACT MASS>  (1222) 
240.208930136

>  <MW>  (1222) 
240

>  <ID>  (1222) 
JP010124

>  <CONTRIBUTOR>  (1222) 
University of Tokyo Team, {Faculty of Engineering, University of Tokyo

>  <COMMENT>  (1222) 
SMILES=CC(C)=CCCC(C)(O)CCCC(C)(O)C=C
InChI=InChI=1S/C15H28O2/c1-6-14(4,16)11-8-12-15(5,17)10-7-9-13(2)3/h6,9,16-17H,1,7-8,10-12H2,2-5H3
computed SMILES=OC(C=C)(C)CCCC(O)(C)CCC=C(C)C
accession=JP010124
date=2016.01.19 (Created 2008.10.21, modified 2011.05.06)
author=KURARAY CO., LTD.
license=CC BY-NC-SA
exact mass=240.20893
ionization energy=70 eV
ion type=[M]+*
computed spectral entropy=3.4492465521255506
computed normalized entropy=0.8146338662904363
SPLASH=splash10-05nf-9400000000-82da41a4eda6c82ad87d
submitter=submitter = University of Tokyo Team (Faculty of Engineering, University of Tokyo)
MoNA Rating=3.75

>  <NUM PEAKS>  (1222) 
69

>  <MASS SPECTRAL PEAKS>  (1222) 
27 7
29 9
39 6
41 4.9
42 4
43 90
44 4
45 0.3
53 8
55 27
56 5
57 0.85
58 9.4
59 7.5
67 22
68 2.5
69 99.99
70 11
71 60
72 0.5
79 11
80 15
81 96
82 3.9
83 24
84 5
85 8
91 0.4
92 4
93 37
94 9
95 2.3
96 9
97 8
105 9
106 0.3
107 25
108 21
109 59
110 0.8
111 9
119 8
120 2
121 3.8
122 19
123 11
124 4
125 0.9
126 8
127 6
133 8
134 0.4
135 23
136 8
137 4
139 2
140 3
143 3
147 5
148 0.6
149 4
152 2
161 12
162 0.3
177 2
179 3
189 11
204 0.9
207 2

>  <PREDICTED SPECTRUM>  (1222) 
25 4
26 55
27 272
28 72
29 287
30 29
31 185
32 0
38 8
39 278
40 120
41 769
42 171
43 996
44 106
45 112
46 19
50 24
51 90
52 62
53 389
54 201
55 589
56 223
57 123
58 136
59 614
60 87
63 29
64 21
65 146
66 105
67 539
68 483
69 999
70 375
71 794
72 188
73 156
74 38
76 3
77 278
78 135
79 451
80 353
81 772
82 509
83 455
84 246
85 234
86 72
87 60
88 46
89 8
90 8
91 302
92 251
93 694
94 365
95 429
96 289
97 278
98 181
99 121
100 87
101 12
105 298
106 156
107 564
108 377
109 866
110 233
111 325
112 173
113 209
114 55
115 25
117 29
119 337
120 123
121 430
122 418
123 458
124 236
125 222
126 147
127 71
129 32
131 32
132 69
133 282
134 183
135 570
136 427
137 236
138 130
139 260
140 177
141 63
142 13
143 28
144 10
145 98
146 99
147 335
148 187
149 246
150 78
151 164
152 194
153 203
154 183
155 107
156 37
157 45
158 27
161 352
162 58
163 28
164 92
165 122
166 174
167 67
175 94
176 57
177 44
178 66
179 176
182 15
188 51
189 285
191 50
193 28
194 50
197 36
204 163
205 152
207 184
208 23
222 57
223 106

$$$$

     RDKit          2D

 17 16  0  0  0  0  0  0  0  0999 V2000
    4.2219    6.1875    0.0000 C   0  0  0  0  0  0  0  0  0  0  0  0
    2.9228    8.4375    0.0000 C   0  0  0  0  0  0  0  0  0  0  0  0
  -10.0675    8.4375    0.0000 C   0  0  0  0  0  0  0  0  0  0  0  0
  -11.3666    6.1875    0.0000 C   0  0  0  0  0  0  0  0  0  0  0  0
    1.6238    6.1875    0.0000 C   0  0  0  0  0  0  0  0  0  0  0  0
   -8.7685    6.1875    0.0000 C   0  0  0  0  0  0  0  0  0  0  0  0
    0.3248    6.9375    0.0000 C   0  0  0  0  0  0  0  0  0  0  0  0
   -7.4695    6.9375    0.0000 C   0  0  0  0  0  0  0  0  0  0  0  0
   -3.5724    6.1875    0.0000 C   0  0  0  0  0  0  0  0  0  0  0  0
    2.9228    6.9375    0.0000 C   0  0  0  0  0  0  0  0  0  0  0  0
  -10.0675    6.9375    0.0000 C   0  0  0  0  0  0  0  0  0  0  0  0
   -2.2733    6.9375    0.0000 C   0  0  0  0  0  0  0  0  0  0  0  0
   -4.8714    6.9375    0.0000 C   0  0  0  0  0  0  0  0  0  0  0  0
   -2.2733    8.4375    0.0000 O   0  0  0  0  0  0  0  0  0  0  0  0
   -4.8714    8.4375    0.0000 O   0  0  0  0  0  0  0  0  0  0  0  0
   -0.9743    6.1875    0.0000 O   0  0  0  0  0  0  0  0  0  0  0  0
   -6.1704    6.1875    0.0000 O   0  0  0  0  0  0  0  0  0  0  0  0
  7  5  1  0
  8  6  1  0
 10  1  2  0
 10  2  1  0
 10  5  1  0
 11  3  2  0
 11  4  1  0
 11  6  1  0
 12  9  1  0
 13  9  1  0
 14 12  2  0
 15 13  2  0
 16  7  1  0
 16 12  1  0
 17  8  1  0
 17 13  1  0
M  END
>  <NAME>  (1223) 
BIS(3-METHYL-3-BUTENYL) MALONATE

>  <SYNONYMS>  (1223) 


>  <SPECTRUM TYPE>  (1223) 
MS1

>  <INSTRUMENT TYPE>  (1223) 
EI-B

>  <INSTRUMENT>  (1223) 
JEOL JMS-D-300

>  <ION MODE>  (1223) 
P

>  <INCHIKEY>  (1223) 
GGLFCLVHOQEERG-UHFFFAOYSA-N

>  <FORMULA>  (1223) 
C13H20O4

>  <EXACT MASS>  (1223) 
240.13615912

>  <MW>  (1223) 
240

>  <ID>  (1223) 
JP010123

>  <CONTRIBUTOR>  (1223) 
University of Tokyo Team, {Faculty of Engineering, University of Tokyo

>  <COMMENT>  (1223) 
SMILES=CC(=C)CCOC(=O)CC(=O)OCCC(C)=C
InChI=InChI=1S/C13H20O4/c1-10(2)5-7-16-12(14)9-13(15)17-8-6-11(3)4/h1,3,5-9H2,2,4H3
computed SMILES=O=C(OCCC(=C)C)CC(=O)OCCC(=C)C
accession=JP010123
date=2016.01.19 (Created 2008.10.21, modified 2011.05.06)
license=CC BY-NC-SA
author=KURARAY CO., LTD.
exact mass=240.13616
ionization energy=70 eV
ion type=[M]+*
computed spectral entropy=2.687219718659866
computed normalized entropy=0.6941565966448349
SPLASH=splash10-014i-9400000000-cfca6a49ad2d8233252a
submitter=submitter = University of Tokyo Team (Faculty of Engineering, University of Tokyo)
MoNA Rating=3.75

>  <NUM PEAKS>  (1223) 
48

>  <MASS SPECTRAL PEAKS>  (1223) 
27 3.9
29 2.4
38 0.8
40 0.28
41 32.7
42 2.4
43 2.8
44 0.31
51 0.8
53 8.7
54 0.8
55 0.28
56 1.2
59 0.8
65 1.2
66 0.08
67 12.6
68 15.7
69 99.99
70 0.87
79 0.8
81 9.8
82 1.2
83 0.08
85 5.9
93 0.8
95 3.1
107 0.08
109 4.7
110 1.6
111 3.9
117 0.24
125 1.2
126 24.4
127 7.1
128 0.28
135 1.2
136 11.8
137 1.6
152 0.08
153 3.5
154 5.5
155 0.8
170 0.08
171 3.1
172 25.2
173 2.8
240 2.4

>  <PREDICTED SPECTRUM>  (1223) 
26 45
27 155
28 66
29 142
31 48
33 5
37 14
38 29
39 256
40 166
41 617
42 179
43 126
44 29
45 75
50 14
51 30
52 41
53 266
54 121
55 195
56 109
57 70
58 42
59 56
61 6
62 22
63 1
65 61
66 64
67 359
68 769
69 999
70 273
71 87
77 76
78 22
79 77
80 116
81 231
82 72
83 53
84 76
85 134
86 48
87 158
88 32
92 60
93 130
94 52
95 113
97 57
98 64
99 60
101 29
102 8
103 10
105 15
107 40
108 156
109 147
110 159
111 50
112 5
113 135
114 8
115 31
116 19
121 15
122 16
123 0
125 130
126 184
127 94
128 90
136 147
137 97
138 65
139 70
154 95
155 92
156 25
157 57
171 82
172 125
173 59
183 124

$$$$

     RDKit          2D

 16 17  0  0  0  0  0  0  0  0999 V2000
    4.0772    0.4897    0.0000 C   0  0  0  0  0  0  0  0  0  0  0  0
   -2.6000    0.7500    0.0000 C   0  0  0  0  0  0  0  0  0  0  0  0
   -1.3000    1.5000    0.0000 C   0  0  0  0  0  0  0  0  0  0  0  0
    1.3000   -1.5000    0.0000 C   0  0  0  0  0  0  0  0  0  0  0  0
    2.6000   -0.7500    0.0000 C   0  0  0  0  0  0  0  0  0  0  0  0
   -1.3000   -1.5000    0.0000 C   0  0  0  0  0  0  0  0  0  0  0  0
    3.1127    2.1596    0.0000 C   0  0  0  0  0  0  0  0  0  0  0  0
    0.0000   -0.7500    0.0000 C   0  0  0  0  0  0  0  0  0  0  0  0
   -2.6000   -0.7500    0.0000 C   0  0  0  0  0  0  0  0  0  0  0  0
    0.0000    0.7500    0.0000 C   0  0  0  0  0  0  0  0  0  0  0  0
    4.5899    2.4204    0.0000 C   0  0  0  0  0  0  0  0  0  0  0  0
    2.6000    0.7500    0.0000 C   0  0  0  0  0  0  0  0  0  0  0  0
   -3.8989   -1.5002    0.0000 Cl  0  0  0  0  0  0  0  0  0  0  0  0
    5.5543    1.2716    0.0000 O   0  0  0  0  0  0  0  0  0  0  0  0
    5.1026    3.8301    0.0000 O   0  0  0  0  0  0  0  0  0  0  0  0
    1.3000    1.5000    0.0000 O   0  0  0  0  0  0  0  0  0  0  0  0
  3  2  2  0
  5  4  1  0
  8  4  1  0
  8  6  1  0
  9  2  1  0
  9  6  2  0
 10  3  1  0
 10  8  2  0
 11  7  1  0
 12  1  1  0
 12  5  1  0
 12  7  1  0
 13  9  1  0
 14 11  2  0
 15 11  1  0
 16 10  1  0
 16 12  1  0
M  END
>  <NAME>  (1224) 
2-CARBOXYMETHYL-6-CHLORO-2-METHYL-3,4-DIHYDRO-2H-1-BENZOPYRAN

>  <SYNONYMS>  (1224) 


>  <SPECTRUM TYPE>  (1224) 
MS1

>  <INSTRUMENT TYPE>  (1224) 
EI-B

>  <INSTRUMENT>  (1224) 
JEOL JMS-D-300

>  <ION MODE>  (1224) 
P

>  <INCHIKEY>  (1224) 
QFDFXSNSTAWKAN-UHFFFAOYSA-N

>  <FORMULA>  (1224) 
C12H13ClO3

>  <EXACT MASS>  (1224) 
240.055321956

>  <MW>  (1224) 
240

>  <ID>  (1224) 
JP010122

>  <CONTRIBUTOR>  (1224) 
University of Tokyo Team, {Faculty of Engineering, University of Tokyo

>  <COMMENT>  (1224) 
SMILES=OC(=O)CC(C)(C2)Oc(c1)c(C2)cc(Cl)c1
InChI=InChI=1S/C12H13ClO3/c1-12(7-11(14)15)5-4-8-6-9(13)2-3-10(8)16-12/h2-3,6H,4-5,7H2,1H3,(H,14,15)
computed SMILES=O=C(O)CC1(OC2=CC=C(Cl)C=C2CC1)C
accession=JP010122
date=2016.01.19 (Created 2008.10.21, modified 2011.05.06)
author=KURARAY CO., LTD.
license=CC BY-NC-SA
exact mass=240.05532
ionization energy=70 eV
ion type=[M]+*
computed spectral entropy=3.657798563471526
computed normalized entropy=0.8190492205140772
SPLASH=splash10-0006-2940000000-10435afad01b4956b0fd
submitter=submitter = University of Tokyo Team (Faculty of Engineering, University of Tokyo)
MoNA Rating=3.75

>  <NUM PEAKS>  (1224) 
87

>  <MASS SPECTRAL PEAKS>  (1224) 
27 5
28 2
29 4
39 0.9
41 8
43 11
45 4
50 0.3
51 11
52 2
53 4
55 0.6
63 6
65 4
71 2
72 0.2
73 3
75 6
76 2
77 2.8
78 5
79 2
82 11
89 0.5
91 6
99 6
100 2
101 0.3
102 3
103 2
105 2
111 0.2
112 11
113 4
114 4
115 0.8
116 2
117 2
125 8
127 0.5
128 6
129 2
130 2
131 0.5
140 8
141 99.99
142 11
143 3.2
144 8
145 11
146 0.9
152 4
153 6
154 4
155 0.3
158 2
159 32
160 5
165 2.3
166 3
167 8
168 2
177 0.6
178 2
179 19
180 13
181 2.8
182 6
183 8
187 9
193 0.6
194 12
195 4
196 4
204 0.3
205 2
207 17
208 2
209 0.7
222 43
223 6
224 15
225 0.2
240 65
241 9
242 22
243 2

>  <PREDICTED SPECTRUM>  (1224) 
27 45
28 43
36 23
38 21
39 116
40 33
41 198
42 103
43 174
44 59
45 208
46 3
49 59
50 168
51 287
52 141
53 200
54 64
55 208
56 24
57 49
58 34
59 34
60 44
61 17
62 68
63 210
64 68
65 187
66 32
67 102
68 3
69 21
73 56
74 71
75 228
76 187
77 456
78 175
79 33
82 39
83 76
84 86
85 84
86 25
87 4
89 177
90 59
91 206
92 41
93 0
95 55
97 117
98 25
99 171
100 128
101 151
102 218
103 85
104 46
105 118
107 32
112 56
113 206
114 158
115 255
116 158
117 154
118 19
119 12
123 4
124 11
125 337
126 107
127 192
128 279
129 170
130 176
131 126
132 25
137 51
139 119
140 326
141 752
142 585
143 273
144 253
145 208
146 37
151 63
152 194
153 254
154 244
155 183
156 160
157 36
158 211
159 488
160 167
161 18
164 0
165 256
166 161
167 163
168 36
169 112
171 3
178 139
179 362
180 421
181 264
182 152
183 152
186 40
187 355
188 56
189 48
193 210
194 352
195 172
196 184
205 94
206 52
207 453
208 44
221 39
222 895
223 300
224 485
225 113
227 32
240 999
241 330
242 499
243 179
244 3

$$$$

     RDKit          2D

 17 16  0  0  0  0  0  0  0  0999 V2000
    4.5466    7.8750    0.0000 C   0  0  0  0  0  0  0  0  0  0  0  0
  -13.6399    7.8750    0.0000 C   0  0  0  0  0  0  0  0  0  0  0  0
    3.2476    8.6250    0.0000 C   0  0  0  0  0  0  0  0  0  0  0  0
  -12.3409    8.6250    0.0000 C   0  0  0  0  0  0  0  0  0  0  0  0
    1.9486    7.8750    0.0000 C   0  0  0  0  0  0  0  0  0  0  0  0
  -11.0418    7.8750    0.0000 C   0  0  0  0  0  0  0  0  0  0  0  0
    0.6495    8.6250    0.0000 C   0  0  0  0  0  0  0  0  0  0  0  0
   -9.7428    8.6250    0.0000 C   0  0  0  0  0  0  0  0  0  0  0  0
   -0.6495    7.8750    0.0000 C   0  0  0  0  0  0  0  0  0  0  0  0
   -1.9486    8.6250    0.0000 C   0  0  0  0  0  0  0  0  0  0  0  0
   -8.4437    7.8750    0.0000 C   0  0  0  0  0  0  0  0  0  0  0  0
   -3.2476    7.8750    0.0000 C   0  0  0  0  0  0  0  0  0  0  0  0
   -7.1447    8.6250    0.0000 C   0  0  0  0  0  0  0  0  0  0  0  0
   -4.5466    8.6250    0.0000 C   0  0  0  0  0  0  0  0  0  0  0  0
   -5.8457    6.3750    0.0000 C   0  0  0  0  0  0  0  0  0  0  0  0
   -5.8457    7.8750    0.0000 C   0  0  0  0  0  0  0  0  0  0  0  0
   -7.1447    5.6250    0.0000 O   0  0  0  0  0  0  0  0  0  0  0  0
  3  1  1  0
  4  2  1  0
  5  3  1  0
  6  4  1  0
  7  5  1  0
  8  6  1  0
  9  7  1  0
 10  9  1  0
 11  8  1  0
 12 10  1  0
 13 11  1  0
 14 12  1  0
 16 13  1  0
 14 16  2  0
 16 15  1  0
 17 15  2  0
M  END
>  <NAME>  (1225) 
7-PENTADECENE-7-CARBALDEHYDE

>  <SYNONYMS>  (1225) 


>  <SPECTRUM TYPE>  (1225) 
MS1

>  <INSTRUMENT TYPE>  (1225) 
EI-B

>  <INSTRUMENT>  (1225) 
JEOL JMS-D-300

>  <ION MODE>  (1225) 
P

>  <INCHIKEY>  (1225) 
RSBRHLFCWKXUSQ-PEZBUJJGSA-N

>  <FORMULA>  (1225) 
C16H30O

>  <EXACT MASS>  (1225) 
238.22966558000002

>  <MW>  (1225) 
238

>  <ID>  (1225) 
JP010121

>  <CONTRIBUTOR>  (1225) 
University of Tokyo Team, {Faculty of Engineering, University of Tokyo

>  <COMMENT>  (1225) 
SMILES=CCCCCCCC=C(C=O)CCCCCC
InChI=InChI=1S/C16H30O/c1-3-5-7-9-10-12-14-16(15-17)13-11-8-6-4-2/h14-15H,3-13H2,1-2H3/b16-14-
computed SMILES=O=CC(=CCCCCCCC)CCCCCC
accession=JP010121
date=2016.01.19 (Created 2008.10.21, modified 2011.05.06)
author=KURARAY CO., LTD.
license=CC BY-NC-SA
exact mass=238.22967
ionization energy=70 eV
ion type=[M]+*
computed spectral entropy=3.7712496891715985
computed normalized entropy=0.8320279995769053
SPLASH=splash10-014v-9300000000-05d2c73155e6f049f5aa
submitter=submitter = University of Tokyo Team (Faculty of Engineering, University of Tokyo)
MoNA Rating=3.75

>  <NUM PEAKS>  (1225) 
93

>  <MASS SPECTRAL PEAKS>  (1225) 
27 29
28 11
29 6
30 0.2
31 3
32 4
39 22
40 0.3
41 87
42 18
43 99.99
44 0.4
45 4
53 19
54 16
55 9.6
56 23
57 62
58 6
59 0.3
65 5
66 6
67 67
68 2
69 81
70 29
71 83
72 0.6
73 2
77 9
78 2
79 4.2
80 8
81 67
82 25
83 9.2
84 44
85 21
86 3
87 0.2
89 2
91 4
93 44
94 1.1
95 83
96 26
97 72
98 3.6
99 11
105 2
107 24
108 0.6
109 24
110 19
111 25
112 0.9
113 10
121 19
122 4
123 2.5
124 4
125 19
126 15
127 0.3
135 15
136 6
137 5
138 0.2
139 96
140 12
141 3
149 1.5
150 6
151 3
152 7
153 5.3
154 10
155 2
163 3
165 0.3
166 3
167 73
168 9
177 0.7
181 8
191 2
195 13
196 0.4
207 3
209 4
238 71
239 1.5
240 2

>  <PREDICTED SPECTRUM>  (1225) 
18 3
25 1
26 47
27 327
28 129
29 488
30 40
31 56
32 9
38 2
39 371
40 154
41 981
42 458
43 919
44 204
45 187
46 6
47 9
50 43
51 135
52 144
53 389
54 347
55 999
56 436
57 746
58 221
59 129
60 129
61 51
62 27
63 64
64 34
65 263
66 251
67 631
68 448
69 807
70 496
71 541
72 209
73 66
74 12
75 9
76 33
77 235
78 143
79 424
80 277
81 732
82 469
83 725
84 326
85 382
86 169
87 64
91 196
92 58
93 365
94 223
95 604
96 487
97 604
98 380
99 326
100 91
101 33
103 14
105 54
106 80
107 319
108 189
109 607
110 210
111 545
112 221
113 114
119 47
120 81
121 320
122 150
123 235
124 183
125 446
126 294
127 168
128 45
129 0
133 33
134 32
135 249
136 131
137 213
138 88
139 930
140 420
141 154
142 5
148 16
149 216
150 117
151 158
152 119
153 349
154 326
155 146
156 63
163 217
164 107
165 102
166 55
167 573
168 234
169 22
177 42
179 41
181 332
182 150
183 67
191 181
193 20
195 208
196 16
207 28
209 197
210 62
220 109
221 30
223 49
237 53
238 755
239 289
240 132

$$$$

     RDKit          2D

 17 17  0  0  0  0  0  0  0  0999 V2000
   -9.9364    4.9403    0.0000 C   0  0  0  0  0  0  0  0  0  0  0  0
   -8.6374    7.1903    0.0000 C   0  0  0  0  0  0  0  0  0  0  0  0
   -3.4412    7.1903    0.0000 C   0  0  0  0  0  0  0  0  0  0  0  0
    2.7191    6.8394    0.0000 C   0  0  0  0  0  0  0  0  0  0  0  0
   -6.0393    5.6903    0.0000 C   0  0  0  0  0  0  0  0  0  0  0  0
   -0.8431    5.6903    0.0000 C   0  0  0  0  0  0  0  0  0  0  0  0
   -7.3383    4.9403    0.0000 C   0  0  0  0  0  0  0  0  0  0  0  0
   -4.7402    4.9403    0.0000 C   0  0  0  0  0  0  0  0  0  0  0  0
   -2.1422    4.9403    0.0000 C   0  0  0  0  0  0  0  0  0  0  0  0
    0.4559    4.9403    0.0000 C   0  0  0  0  0  0  0  0  0  0  0  0
    4.5548    4.9399    0.0000 C   0  0  0  0  0  0  0  0  0  0  0  0
   -8.6374    5.6903    0.0000 C   0  0  0  0  0  0  0  0  0  0  0  0
   -3.4412    5.6903    0.0000 C   0  0  0  0  0  0  0  0  0  0  0  0
    3.0540    4.9403    0.0000 C   0  0  0  0  0  0  0  0  0  0  0  0
    1.7549    5.6903    0.0000 C   0  0  0  0  0  0  0  0  0  0  0  0
    0.7908    6.8394    0.0000 O   0  0  0  0  0  0  0  0  0  0  0  0
    3.8048    3.6408    0.0000 O   0  0  0  0  0  0  0  0  0  0  0  0
  7  5  1  0
  8  5  1  0
  9  6  1  0
 10  6  1  0
 12  1  1  0
 12  2  1  0
 12  7  2  0
 13  3  1  0
 13  8  1  0
  9 13  2  0
 14 11  1  0
 15  4  1  0
 15 10  1  0
 15 14  1  0
 16 15  1  0
 17 11  1  0
 17 14  1  0
M  END
>  <NAME>  (1226) 
1,2-EPOXY-3,7,11-TRIMETHYL-(6E,10)-DODECADIENE-3-OL

>  <SYNONYMS>  (1226) 


>  <SPECTRUM TYPE>  (1226) 
MS1

>  <INSTRUMENT TYPE>  (1226) 
EI-B

>  <INSTRUMENT>  (1226) 
JEOL JMS-D-300

>  <ION MODE>  (1226) 
P

>  <INCHIKEY>  (1226) 
CLIDOAFOSTWHAW-UKTHLTGXSA-N

>  <FORMULA>  (1226) 
C15H26O2

>  <EXACT MASS>  (1226) 
238.193280072

>  <MW>  (1226) 
238

>  <ID>  (1226) 
JP010120

>  <CONTRIBUTOR>  (1226) 
University of Tokyo Team, {Faculty of Engineering, University of Tokyo

>  <COMMENT>  (1226) 
SMILES=CC(C)=CCCC(C)=C([H])CCC(C)(O)C(O1)C1
InChI=InChI=1S/C15H26O2/c1-12(2)7-5-8-13(3)9-6-10-15(4,16)14-11-17-14/h7,9,14,16H,5-6,8,10-11H2,1-4H3/b13-9+
computed SMILES=OC(C)(CCC=C(C)CCC=C(C)C)C1OC1
accession=JP010120
date=2016.01.19 (Created 2008.10.21, modified 2011.05.06)
author=KURARAY CO., LTD.
license=CC BY-NC-SA
exact mass=238.19328
ionization energy=70 eV
ion type=[M]+*
computed spectral entropy=3.0845340428211805
computed normalized entropy=0.7629223174489327
SPLASH=splash10-0159-9200000000-0979836d8ddae2a5e3da
submitter=submitter = University of Tokyo Team (Faculty of Engineering, University of Tokyo)
MoNA Rating=3.75

>  <NUM PEAKS>  (1226) 
57

>  <MASS SPECTRAL PEAKS>  (1226) 
27 3
29 4
39 4
41 4.7
42 2
43 54
53 6
55 1.9
57 4
59 8
67 18
68 1
69 99.99
70 7
71 13
77 0.2
79 8
81 45
82 21
83 0.8
84 2
87 5
91 5
93 1.9
94 4
95 15
96 3
97 0.3
105 6
107 15
108 2
109 1.7
110 2
113 2
119 2
121 1
122 3
123 14
125 2
133 0.2
135 5
136 8
137 6
139 0.2
147 2
149 2
150 4
151 0.2
159 2
177 9
195 6
202 0.07
205 1.3
209 1
220 1
221 0.05
238 0.5

>  <PREDICTED SPECTRUM>  (1226) 
26 19
27 175
28 59
29 221
30 42
31 100
38 33
39 251
40 116
41 764
42 192
43 581
44 111
45 170
46 17
50 59
51 102
52 88
53 331
54 128
55 414
56 174
57 214
58 118
59 402
60 98
61 53
63 40
64 3
65 146
66 119
67 445
68 329
69 999
70 285
71 347
72 160
73 75
74 16
77 223
78 116
79 296
80 222
81 677
82 361
83 288
84 107
85 138
86 109
87 174
88 70
89 48
91 279
92 129
93 432
94 232
95 449
96 221
97 158
98 24
99 48
100 101
103 11
105 166
106 83
107 406
108 139
109 508
110 180
111 144
112 60
113 62
114 38
115 69
117 0
119 187
120 64
121 295
122 220
123 283
124 116
125 124
126 101
127 85
128 29
131 21
132 25
133 158
134 82
135 234
136 237
137 236
138 98
139 42
140 32
141 19
142 36
143 22
145 52
147 102
149 84
150 95
151 142
152 86
153 27
154 20
155 38
156 49
159 62
161 133
162 38
163 112
164 42
165 53
166 2
168 12
169 90
170 18
176 40
177 189
178 82
179 33
180 68
181 25
187 13
189 57
191 69
192 43
195 134
196 8
205 109
206 22
220 167
221 70
223 78
238 33

$$$$

     RDKit          2D

 15 14  0  0  0  0  0  0  0  0999 V2000
   -5.2537    5.2168    0.0000 C   0  0  0  0  0  0  0  0  0  0  0  0
   -3.9546    2.9668    0.0000 C   0  0  0  0  0  0  0  0  0  0  0  0
    0.0588    0.7591    0.0000 C   0  0  0  0  0  0  0  0  0  0  0  0
   -2.3826    1.6477    0.0000 C   0  0  0  0  0  0  0  0  0  0  0  0
    3.8396    4.4668    0.0000 C   0  0  0  0  0  0  0  0  0  0  0  0
   -0.0575    5.2168    0.0000 C   0  0  0  0  0  0  0  0  0  0  0  0
   -3.9546    4.4668    0.0000 C   0  0  0  0  0  0  0  0  0  0  0  0
   -0.9054    1.9082    0.0000 C   0  0  0  0  0  0  0  0  0  0  0  0
    1.2415    4.4668    0.0000 C   0  0  0  0  0  0  0  0  0  0  0  0
    1.2415    2.9668    0.0000 O   0  0  0  0  0  0  0  0  0  0  0  0
   -2.3207    3.3177    0.0000 O   0  0  0  0  0  0  0  0  0  0  0  0
    2.5406    5.2168    0.0000 O   0  0  0  0  0  0  0  0  0  0  0  0
   -2.6556    5.2168    0.0000 O   0  0  0  0  0  0  0  0  0  0  0  0
   -0.3924    3.3177    0.0000 O   0  0  0  0  0  0  0  0  0  0  0  0
   -1.3565    4.4668    0.0000 P   0  0  0  0  0  0  0  0  0  0  0  0
  7  1  1  0
  7  2  1  0
  8  3  1  0
  8  4  1  0
  9  6  1  0
 10  9  2  0
 12  5  1  0
 12  9  1  0
 13  7  1  0
 14  8  1  0
 15  6  1  0
 15 11  2  0
 15 13  1  0
 15 14  1  0
M  END
>  <NAME>  (1227) 
DIISOPROPYL METHOXYCARBONYLMETHYL PHOSHONATE

>  <SYNONYMS>  (1227) 


>  <SPECTRUM TYPE>  (1227) 
MS1

>  <INSTRUMENT TYPE>  (1227) 
EI-B

>  <INSTRUMENT>  (1227) 
JEOL JMS-D-300

>  <ION MODE>  (1227) 
P

>  <INCHIKEY>  (1227) 
GQQNLIOQXHGIII-UHFFFAOYSA-N

>  <FORMULA>  (1227) 
C9H19O5P

>  <EXACT MASS>  (1227) 
238.097010338

>  <MW>  (1227) 
238

>  <ID>  (1227) 
JP010118

>  <CONTRIBUTOR>  (1227) 
University of Tokyo Team, {Faculty of Engineering, University of Tokyo

>  <COMMENT>  (1227) 
SMILES=COC(=O)CP(=O)(OC(C)C)OC(C)C
InChI=InChI=1S/C9H19O5P/c1-7(2)13-15(11,14-8(3)4)6-9(10)12-5/h7-8H,6H2,1-5H3
computed SMILES=O=C(OC)CP(=O)(OC(C)C)OC(C)C
accession=JP010118
date=2016.01.19 (Created 2008.10.21, modified 2011.05.06)
author=KURARAY CO., LTD.
license=CC BY-NC-SA
exact mass=238.09701
ionization energy=70 eV
ion type=[M]+*
computed spectral entropy=2.1263204834817286
computed normalized entropy=0.6690637091093359
SPLASH=splash10-059i-2900000000-8ba82f2229e4dfd136b7
submitter=submitter = University of Tokyo Team (Faculty of Engineering, University of Tokyo)
MoNA Rating=3.75

>  <NUM PEAKS>  (1227) 
24

>  <MASS SPECTRAL PEAKS>  (1227) 
27 3
39 2
41 8
42 0.7
43 25
45 4
59 6
65 0.2
74 9
95 8
96 3
105 0.5
119 3
123 73
137 99.99
138 0.8
154 6
155 80
165 9
179 1.5
181 6
197 4
223 2
239 1

>  <PREDICTED SPECTRUM>  (1227) 
15 13
27 104
31 64
33 24
39 148
40 84
41 423
42 239
43 494
45 187
47 48
53 99
54 25
55 87
58 25
59 393
63 131
65 181
66 19
67 51
71 72
73 77
74 216
76 5
77 147
79 68
81 111
82 47
91 19
92 28
94 79
95 385
96 351
97 19
105 226
106 63
109 119
113 82
115 27
116 91
119 133
120 84
121 116
122 230
123 786
124 195
133 15
135 3
137 878
138 265
149 47
154 375
155 999
156 35
165 255
166 69
179 189
181 368
182 21
183 29
195 23
196 169
197 164
207 6
223 49
238 45
239 29

$$$$

     RDKit          2D

 17 18  0  0  0  0  0  0  0  0999 V2000
   -3.8989    1.5002    0.0000 C   0  0  0  0  0  0  0  0  0  0  0  0
   -1.3000    3.0000    0.0000 C   0  0  0  0  0  0  0  0  0  0  0  0
   -1.3000   -3.0000    0.0000 C   0  0  0  0  0  0  0  0  0  0  0  0
    3.8989   -1.5002    0.0000 C   0  0  0  0  0  0  0  0  0  0  0  0
    5.1981   -0.7504    0.0000 C   0  0  0  0  0  0  0  0  0  0  0  0
    1.3000   -1.5000    0.0000 C   0  0  0  0  0  0  0  0  0  0  0  0
    2.6000    0.7500    0.0000 C   0  0  0  0  0  0  0  0  0  0  0  0
   -2.6000    0.7500    0.0000 C   0  0  0  0  0  0  0  0  0  0  0  0
   -1.3000    1.5000    0.0000 C   0  0  0  0  0  0  0  0  0  0  0  0
   -1.3000   -1.5000    0.0000 C   0  0  0  0  0  0  0  0  0  0  0  0
    0.0000   -0.7500    0.0000 C   0  0  0  0  0  0  0  0  0  0  0  0
   -2.6000   -0.7500    0.0000 C   0  0  0  0  0  0  0  0  0  0  0  0
    0.0000    0.7500    0.0000 C   0  0  0  0  0  0  0  0  0  0  0  0
    2.6000   -0.7500    0.0000 N   0  0  0  0  0  0  0  0  0  0  0  0
    6.4970   -1.5006    0.0000 O   0  0  0  0  0  0  0  0  0  0  0  0
   -3.8989   -1.5002    0.0000 O   0  0  0  0  0  0  0  0  0  0  0  0
    1.3000    1.5000    0.0000 O   0  0  0  0  0  0  0  0  0  0  0  0
  5  4  1  0
  8  1  1  0
  9  2  1  0
  9  8  1  0
 10  3  1  0
 11  6  1  0
 11 10  2  0
 12  8  2  0
 12 10  1  0
 13  9  2  0
 13 11  1  0
 14  4  1  0
 14  6  1  0
 14  7  1  0
 15  5  1  0
 16 12  1  0
 17  7  1  0
 17 13  1  0
M  END
>  <NAME>  (1228) 
6-HYDROXY-5,7,8-TRIMETHYL-4H-1,3-BENZOXAZINE-3-ETHANOL

>  <SYNONYMS>  (1228) 


>  <SPECTRUM TYPE>  (1228) 
MS1

>  <INSTRUMENT TYPE>  (1228) 
EI-B

>  <INSTRUMENT>  (1228) 
JEOL JMS-D-300

>  <ION MODE>  (1228) 
P

>  <INCHIKEY>  (1228) 
FVVBBMBYRNGVBY-UHFFFAOYSA-N

>  <FORMULA>  (1228) 
C13H19NO3

>  <EXACT MASS>  (1228) 
237.13649346799997

>  <MW>  (1228) 
237

>  <ID>  (1228) 
JP010117

>  <CONTRIBUTOR>  (1228) 
University of Tokyo Team, {Faculty of Engineering, University of Tokyo

>  <COMMENT>  (1228) 
SMILES=OCCN(C2)Cc(c(C)1)c(O2)c(C)c(C)c(O)1
InChI=InChI=1S/C13H19NO3/c1-8-9(2)13-11(10(3)12(8)16)6-14(4-5-15)7-17-13/h15-16H,4-7H2,1-3H3
computed SMILES=OC=1C(=C(C=2OCN(CC2C1C)CCO)C)C
accession=JP010117
date=2016.01.19 (Created 2008.10.21, modified 2011.05.06)
author=KURARAY CO., LTD.
license=CC BY-NC-SA
exact mass=237.13649
ionization energy=70 eV
ion type=[M]+*
computed spectral entropy=2.7588165410540926
computed normalized entropy=0.7584195727371051
SPLASH=splash10-03dr-7930000000-b2b8e78b6731cc3db5f2
submitter=submitter = University of Tokyo Team (Faculty of Engineering, University of Tokyo)
MoNA Rating=3.75

>  <NUM PEAKS>  (1228) 
38

>  <MASS SPECTRAL PEAKS>  (1228) 
27 6
28 23
29 4
32 4
39 6
40 3
41 4
42 2.4
43 9
44 4
51 2
52 0.4
53 9
54 6
55 4
56 0.6
65 2
67 2
72 6
74 9
75 3
77 5
79 2
91 1
93 8
103 6
107 3
121 3
122 3
135 8
136 20
137 0.2
149 3
163 2
164 99.99
165 1.7
237 50
238 7

>  <PREDICTED SPECTRUM>  (1228) 
31 8
33 3
39 80
40 44
41 149
42 183
43 116
44 143
45 58
51 103
52 48
53 120
54 69
55 138
56 79
57 15
58 2
63 58
65 86
66 29
67 94
68 1
69 55
70 8
72 57
73 30
74 118
75 36
77 233
78 93
79 114
80 43
81 32
82 67
83 68
89 33
91 149
94 2
95 13
102 37
103 122
104 30
105 40
106 36
107 56
119 27
120 106
121 118
122 71
123 27
133 37
134 2
135 161
136 380
137 225
138 33
146 54
147 77
148 45
149 133
150 38
162 118
163 119
164 999
165 13
206 76
220 33
237 587
238 236
239 43

$$$$

     RDKit          2D

 16 17  0  0  0  0  0  0  0  0999 V2000
    4.1000   -0.0000    0.0000 C   0  0  0  0  0  0  0  0  0  0  0  0
    3.0195    1.9591    0.0000 C   0  0  0  0  0  0  0  0  0  0  0  0
    1.1124    2.5814    0.0000 C   0  0  0  0  0  0  0  0  0  0  0  0
    1.1124   -2.5814    0.0000 C   0  0  0  0  0  0  0  0  0  0  0  0
    3.0195   -1.9591    0.0000 C   0  0  0  0  0  0  0  0  0  0  0  0
   -2.3100    0.7500    0.0000 C   0  0  0  0  0  0  0  0  0  0  0  0
   -1.0100    1.5000    0.0000 C   0  0  0  0  0  0  0  0  0  0  0  0
   -1.0100   -1.5000    0.0000 C   0  0  0  0  0  0  0  0  0  0  0  0
   -3.6089   -1.5002    0.0000 C   0  0  0  0  0  0  0  0  0  0  0  0
    2.6000    0.0000    0.0000 C   0  0  0  0  0  0  0  0  0  0  0  0
   -2.3100   -0.7500    0.0000 C   0  0  0  0  0  0  0  0  0  0  0  0
    0.2900    0.7500    0.0000 C   0  0  0  0  0  0  0  0  0  0  0  0
    0.2900   -0.7500    0.0000 C   0  0  0  0  0  0  0  0  0  0  0  0
    1.7200    1.2100    0.0000 C   0  0  0  0  0  0  0  0  0  0  0  0
    1.7200   -1.2100    0.0000 C   0  0  0  0  0  0  0  0  0  0  0  0
   -4.9081   -0.7504    0.0000 Cl  0  0  0  0  0  0  0  0  0  0  0  0
  7  6  2  0
 10  1  1  0
 11  6  1  0
 11  8  2  0
 11  9  1  0
 12  7  1  0
 13  8  1  0
 13 12  2  0
 14  2  1  0
 14  3  1  0
 14 10  1  0
 14 12  1  0
 15  4  1  0
 15  5  1  0
 15 10  1  0
 15 13  1  0
 16  9  1  0
M  END
>  <NAME>  (1229) 
6-CHLOROMETHYL-1,1,2,3,3-PENTAMETHYLINDAN

>  <SYNONYMS>  (1229) 


>  <SPECTRUM TYPE>  (1229) 
MS1

>  <INSTRUMENT TYPE>  (1229) 
EI-B

>  <INSTRUMENT>  (1229) 
JEOL JMS-D-300

>  <ION MODE>  (1229) 
P

>  <INCHIKEY>  (1229) 
WTNAJFTWCDMYBG-UHFFFAOYSA-N

>  <FORMULA>  (1229) 
C15H21Cl

>  <EXACT MASS>  (1229) 
236.133178352

>  <MW>  (1229) 
236

>  <ID>  (1229) 
JP010116

>  <CONTRIBUTOR>  (1229) 
University of Tokyo Team, {Faculty of Engineering, University of Tokyo

>  <COMMENT>  (1229) 
SMILES=ClCc(c2)cc(c(c2)1)C(C)(C)C(C)C(C)(C)1
InChI=InChI=1S/C15H21Cl/c1-10-14(2,3)12-7-6-11(9-16)8-13(12)15(10,4)5/h6-8,10H,9H2,1-5H3
computed SMILES=ClCC1=CC=C2C(=C1)C(C)(C)C(C)C2(C)C
accession=JP010116
date=2016.01.19 (Created 2008.10.21, modified 2011.05.06)
author=KURARAY CO., LTD.
license=CC BY-NC-SA
exact mass=236.13318
ionization energy=70 eV
ion type=[M]+*
computed spectral entropy=2.3213668858228913
computed normalized entropy=0.6966459827823822
SPLASH=splash10-00di-0490000000-c78592de38fab0d74f4d
submitter=submitter = University of Tokyo Team (Faculty of Engineering, University of Tokyo)
MoNA Rating=3.75

>  <NUM PEAKS>  (1229) 
28

>  <MASS SPECTRAL PEAKS>  (1229) 
41 2
43 4
57 10
77 0.2
115 4
128 5
129 6
141 0.6
142 4
143 21
144 2
155 0.4
156 4
157 5
171 6
172 0.2
179 8
181 2
185 2
186 0.2
201 2
221 99.99
222 15
223 3.2
224 4
236 17
237 2
238 5

>  <PREDICTED SPECTRUM>  (1229) 
27 74
28 3
29 75
36 45
38 12
39 175
40 60
41 254
42 23
43 163
50 71
51 163
52 37
53 91
55 136
57 17
58 33
59 1
62 17
63 142
64 69
65 165
67 28
69 107
70 7
73 23
75 98
76 89
77 225
78 71
79 42
83 35
84 8
89 149
90 43
91 248
92 38
93 28
95 74
98 7
99 41
101 86
102 105
103 53
105 56
107 2
109 2
115 284
116 103
117 167
118 20
119 108
125 110
127 159
128 316
129 306
130 48
131 153
139 19
140 14
141 305
142 269
143 231
144 79
145 69
149 62
150 16
151 112
152 92
153 92
154 30
155 175
156 104
157 82
158 107
159 155
160 32
161 152
162 22
163 18
164 77
165 185
166 94
167 41
171 47
177 33
178 65
179 236
180 42
185 157
186 55
187 22
201 162
202 25
221 999
222 355
223 543
224 170
236 408
237 101
238 205
239 31

$$$$

     RDKit          2D

 17 16  0  0  0  0  0  0  0  0999 V2000
    4.8714    6.5625    0.0000 C   0  0  0  0  0  0  0  0  0  0  0  0
    3.5724    8.8125    0.0000 C   0  0  0  0  0  0  0  0  0  0  0  0
   -1.6238    8.8125    0.0000 C   0  0  0  0  0  0  0  0  0  0  0  0
   -6.8200    8.8125    0.0000 C   0  0  0  0  0  0  0  0  0  0  0  0
  -12.0161    7.3125    0.0000 C   0  0  0  0  0  0  0  0  0  0  0  0
    0.9743    7.3125    0.0000 C   0  0  0  0  0  0  0  0  0  0  0  0
   -4.2219    7.3125    0.0000 C   0  0  0  0  0  0  0  0  0  0  0  0
    2.2733    6.5625    0.0000 C   0  0  0  0  0  0  0  0  0  0  0  0
   -0.3248    6.5625    0.0000 C   0  0  0  0  0  0  0  0  0  0  0  0
   -2.9228    6.5625    0.0000 C   0  0  0  0  0  0  0  0  0  0  0  0
   -5.5209    6.5625    0.0000 C   0  0  0  0  0  0  0  0  0  0  0  0
   -8.1190    6.5625    0.0000 C   0  0  0  0  0  0  0  0  0  0  0  0
   -9.4180    7.3125    0.0000 C   0  0  0  0  0  0  0  0  0  0  0  0
    3.5724    7.3125    0.0000 C   0  0  0  0  0  0  0  0  0  0  0  0
   -1.6238    7.3125    0.0000 C   0  0  0  0  0  0  0  0  0  0  0  0
   -6.8200    7.3125    0.0000 C   0  0  0  0  0  0  0  0  0  0  0  0
  -10.7171    6.5625    0.0000 N   0  0  0  0  0  0  0  0  0  0  0  0
  8  6  1  0
  9  6  1  0
 10  7  1  0
 11  7  1  0
 13 12  1  0
 14  1  1  0
 14  2  1  0
 14  8  2  0
 15  3  1  0
 15  9  1  0
 10 15  2  0
 16  4  1  0
 16 11  1  0
 12 16  2  0
 17  5  1  0
 17 13  1  0
M  END
>  <NAME>  (1230) 
N-METHYL-3,7,11-TRIMETHYL-2,6,10-DODECATRIENE-1-AMINE

>  <SYNONYMS>  (1230) 


>  <SPECTRUM TYPE>  (1230) 
MS1

>  <INSTRUMENT TYPE>  (1230) 
EI-B

>  <INSTRUMENT>  (1230) 
JEOL JMS-D-300

>  <ION MODE>  (1230) 
P

>  <INCHIKEY>  (1230) 
ZPEMKPFPWVTBPX-NCZFFCEISA-N

>  <FORMULA>  (1230) 
C16H29N

>  <EXACT MASS>  (1230) 
235.22999992799998

>  <MW>  (1230) 
235

>  <ID>  (1230) 
JP010115

>  <CONTRIBUTOR>  (1230) 
University of Tokyo Team, {Faculty of Engineering, University of Tokyo

>  <COMMENT>  (1230) 
SMILES=CNCC=C(C)CCC=C(C)CCC=C(C)C
InChI=InChI=1S/C16H29N/c1-14(2)8-6-9-15(3)10-7-11-16(4)12-13-17-5/h8,10,12,17H,6-7,9,11,13H2,1-5H3/b15-10+,16-12+
computed SMILES=C(=C(C)C)CCC(=CCCC(=CCNC)C)C
accession=JP010115
date=2016.01.19 (Created 2008.10.21, modified 2011.05.06)
author=KURARAY CO., LTD.
license=CC BY-NC-SA
exact mass=235.23
ionization energy=70 eV
ion type=[M]+*
computed spectral entropy=3.45138116267319
computed normalized entropy=0.8096740224998458
SPLASH=splash10-014m-9100000000-bf21fca5268dc9711b6f
submitter=submitter = University of Tokyo Team (Faculty of Engineering, University of Tokyo)
MoNA Rating=3.75

>  <NUM PEAKS>  (1230) 
71

>  <MASS SPECTRAL PEAKS>  (1230) 
27 5
28 8.5
29 6
30 0.94
32 7.5
39 6
41 52
42 7.7
43 9
44 60
45 2
53 0.8
55 13
56 5
57 9
58 0.4
67 15
68 23
69 99.99
70 0.9
71 2
77 4
79 9
80 1.1
81 23
82 15
83 4
84 5
85 8
91 5
92 6
93 4.9
94 9
95 8
96 8
97 0.3
98 77
99 13
105 4
106 0.2
107 13
108 4
109 9
110 2.5
111 4
112 2
119 7
120 0.4
121 11
122 6
123 6
124 0.4
133 8
134 3
135 8
136 0.6
137 2
147 3
148 2
150 0.2
152 3
161 4
164 2
166 1.7
167 3
189 2
204 2
220 0.2
234 2
235 13
236 3

>  <PREDICTED SPECTRUM>  (1230) 
15 24
17 2
18 7
25 0
26 35
27 173
28 105
29 261
30 159
31 92
32 8
37 2
38 40
39 294
40 149
41 840
42 345
43 459
44 291
45 83
46 6
50 53
51 76
52 59
53 256
54 196
55 428
56 270
57 297
58 178
59 76
60 38
62 5
63 8
65 126
66 121
67 407
68 352
69 999
70 364
71 199
72 123
73 22
74 7
76 24
77 209
78 111
79 226
80 232
81 589
82 355
83 290
84 231
85 119
86 53
89 6
91 264
92 143
93 269
94 202
95 366
96 219
97 204
98 333
99 252
100 144
101 59
103 3
104 71
105 170
106 117
107 299
108 159
109 305
110 173
111 152
112 129
113 28
118 76
119 178
120 101
121 285
122 175
123 235
124 149
125 78
126 9
128 4
130 8
132 49
133 116
134 139
135 150
136 284
137 206
138 30
140 4
146 48
147 101
148 114
149 53
150 52
151 44
152 66
153 68
154 13
160 34
161 83
162 10
164 55
165 5
166 132
167 17
174 15
175 5
176 13
177 7
178 73
179 4
189 42
190 19
191 12
192 91
193 79
204 138
205 30
206 0
217 44
218 54
220 104
234 36
235 214
236 114
237 24

$$$$

     RDKit          2D

 17 17  0  0  0  0  0  0  0  0999 V2000
    1.4207    6.2684    0.0000 C   0  0  0  0  0  0  0  0  0  0  0  0
   -5.1908    2.5607    0.0000 C   0  0  0  0  0  0  0  0  0  0  0  0
   -3.8917    0.3107    0.0000 C   0  0  0  0  0  0  0  0  0  0  0  0
    0.4565    5.1193    0.0000 C   0  0  0  0  0  0  0  0  0  0  0  0
    3.9025    0.3107    0.0000 C   0  0  0  0  0  0  0  0  0  0  0  0
    3.9030    1.8115    0.0000 C   0  0  0  0  0  0  0  0  0  0  0  0
    2.6030   -0.4401    0.0000 C   0  0  0  0  0  0  0  0  0  0  0  0
    2.6039    2.5615    0.0000 C   0  0  0  0  0  0  0  0  0  0  0  0
    1.3039    0.3099    0.0000 C   0  0  0  0  0  0  0  0  0  0  0  0
   -2.5927    2.5607    0.0000 C   0  0  0  0  0  0  0  0  0  0  0  0
    0.9696    3.7098    0.0000 C   0  0  0  0  0  0  0  0  0  0  0  0
   -1.2937    1.8107    0.0000 C   0  0  0  0  0  0  0  0  0  0  0  0
   -0.9588    3.7098    0.0000 C   0  0  0  0  0  0  0  0  0  0  0  0
   -3.8917    1.8107    0.0000 C   0  0  0  0  0  0  0  0  0  0  0  0
    1.3044    1.8107    0.0000 C   0  0  0  0  0  0  0  0  0  0  0  0
    0.0054    2.5607    0.0000 C   0  0  0  0  0  0  0  0  0  0  0  0
   -0.4458    5.1193    0.0000 O   0  0  0  0  0  0  0  0  0  0  0  0
  4  1  1  0
  6  5  2  0
  7  5  1  0
  8  6  1  0
  9  7  2  0
 11  4  1  0
 12 10  1  0
 14  2  1  0
 14  3  1  0
 14 10  2  0
 15  8  2  0
 15  9  1  0
 16 11  1  0
 16 12  1  0
 16 13  1  0
 16 15  1  0
 17 13  1  0
M  END
>  <NAME>  (1231) 
5-METHYL-2-PHENYL-2-PROPYLE-4-HEXENE-1-OL

>  <SYNONYMS>  (1231) 


>  <SPECTRUM TYPE>  (1231) 
MS1

>  <INSTRUMENT TYPE>  (1231) 
EI-B

>  <INSTRUMENT>  (1231) 
JEOL JMS-D-300

>  <ION MODE>  (1231) 
P

>  <INCHIKEY>  (1231) 
BEDUQJQVSNUTQR-UHFFFAOYSA-N

>  <FORMULA>  (1231) 
C16H24O

>  <EXACT MASS>  (1231) 
232.182715388

>  <MW>  (1231) 
232

>  <ID>  (1231) 
JP010114

>  <CONTRIBUTOR>  (1231) 
University of Tokyo Team, {Faculty of Engineering, University of Tokyo

>  <COMMENT>  (1231) 
SMILES=CCCC(CO)(CC=C(C)C)c(c1)cccc1
InChI=InChI=1S/C16H24O/c1-4-11-16(13-17,12-10-14(2)3)15-8-6-5-7-9-15/h5-10,17H,4,11-13H2,1-3H3
computed SMILES=OCC(C=1C=CC=CC1)(CC=C(C)C)CCC
accession=JP010114
date=2016.01.19 (Created 2008.10.21, modified 2011.05.06)
author=KURARAY CO., LTD.
license=CC BY-NC-SA
exact mass=232.18272
ionization energy=70 eV
ion type=[M]+*
computed spectral entropy=2.8290973031697972
computed normalized entropy=0.75691476029097
SPLASH=splash10-03di-5900000000-671eb219034146b564e9
submitter=submitter = University of Tokyo Team (Faculty of Engineering, University of Tokyo)
MoNA Rating=3.75

>  <NUM PEAKS>  (1231) 
42

>  <MASS SPECTRAL PEAKS>  (1231) 
27 4.2
29 4.2
31 2.1
39 0.21
41 14.6
43 14.6
53 2.1
55 0.42
57 4.2
65 2.1
67 2.1
69 1.25
70 7.3
71 31.3
72 3.1
77 0.63
78 2.1
79 5.2
85 3.1
91 5.1
92 4.2
93 2.1
103 6.3
105 0.83
107 15.6
115 5.2
116 2.1
117 0.63
118 3.1
119 4.2
121 13.5
128 0.31
129 5.2
130 2.1
131 4.2
133 0.42
143 2.1
145 22.9
146 4.2
162 1.77
163 99.99
164 12.5

>  <PREDICTED SPECTRUM>  (1231) 
27 82
28 11
29 116
31 59
32 11
38 5
39 160
40 48
41 275
42 86
43 219
44 45
45 74
50 28
51 85
52 50
53 114
55 189
56 63
57 157
63 41
64 7
65 146
66 36
67 117
68 23
69 177
70 179
71 179
73 24
75 68
76 23
77 242
78 87
79 162
80 30
81 115
83 68
85 80
89 70
90 60
91 300
92 161
93 187
95 75
99 55
102 2
103 167
104 72
105 238
106 101
107 161
108 8
109 62
110 50
111 12
113 35
115 191
116 77
117 196
118 161
119 143
120 114
121 205
122 51
125 18
127 68
128 64
129 152
130 89
131 112
132 42
133 132
134 79
141 32
142 49
143 50
145 420
146 242
147 7
155 11
159 24
161 57
162 155
163 999
164 288
165 28
171 14
214 13
232 88
233 16

$$$$

     RDKit          2D

 17 18  0  0  0  0  0  0  0  0999 V2000
    4.7499    2.3304    0.0000 C   0  0  0  0  0  0  0  0  0  0  0  0
   -3.7389    1.4102    0.0000 C   0  0  0  0  0  0  0  0  0  0  0  0
   -1.1400    2.9100    0.0000 C   0  0  0  0  0  0  0  0  0  0  0  0
   -1.1400   -3.0900    0.0000 C   0  0  0  0  0  0  0  0  0  0  0  0
    4.2372    0.3997    0.0000 C   0  0  0  0  0  0  0  0  0  0  0  0
    3.2727    2.0696    0.0000 C   0  0  0  0  0  0  0  0  0  0  0  0
    1.4600   -1.5900    0.0000 C   0  0  0  0  0  0  0  0  0  0  0  0
    2.7600   -0.8400    0.0000 C   0  0  0  0  0  0  0  0  0  0  0  0
   -2.4400    0.6600    0.0000 C   0  0  0  0  0  0  0  0  0  0  0  0
   -1.1400    1.4100    0.0000 C   0  0  0  0  0  0  0  0  0  0  0  0
   -1.1400   -1.5900    0.0000 C   0  0  0  0  0  0  0  0  0  0  0  0
    0.1600   -0.8400    0.0000 C   0  0  0  0  0  0  0  0  0  0  0  0
   -2.4400   -0.8400    0.0000 C   0  0  0  0  0  0  0  0  0  0  0  0
    0.1600    0.6600    0.0000 C   0  0  0  0  0  0  0  0  0  0  0  0
    2.7600    0.6600    0.0000 C   0  0  0  0  0  0  0  0  0  0  0  0
   -3.7389   -1.5902    0.0000 O   0  0  0  0  0  0  0  0  0  0  0  0
    1.4600    1.4100    0.0000 O   0  0  0  0  0  0  0  0  0  0  0  0
  6  1  2  0
  8  7  1  0
  9  2  1  0
 10  3  1  0
 10  9  1  0
 11  4  1  0
 12  7  1  0
 12 11  2  0
 13  9  2  0
 13 11  1  0
 14 10  2  0
 14 12  1  0
 15  5  1  0
 15  6  1  0
 15  8  1  0
 16 13  1  0
 17 14  1  0
 17 15  1  0
M  END
>  <NAME>  (1232) 
2-ETHENYL-6-HYDROXY-2,5,7,8-TETRAMETHYL-3,4-DIHYDRO-2H-1-BENZOPYRAN

>  <SYNONYMS>  (1232) 


>  <SPECTRUM TYPE>  (1232) 
MS1

>  <INSTRUMENT TYPE>  (1232) 
EI-B

>  <INSTRUMENT>  (1232) 
JEOL JMS-D-300

>  <ION MODE>  (1232) 
P

>  <INCHIKEY>  (1232) 
PPNVGJUSMNMFCL-UHFFFAOYSA-N

>  <FORMULA>  (1232) 
C15H20O2

>  <EXACT MASS>  (1232) 
232.14632988

>  <MW>  (1232) 
232

>  <ID>  (1232) 
JP010113

>  <CONTRIBUTOR>  (1232) 
University of Tokyo Team, {Faculty of Engineering, University of Tokyo

>  <COMMENT>  (1232) 
SMILES=C=CC(C)(C2)Oc(c(C)1)c(C2)c(C)c(O)c(C)1
InChI=InChI=1S/C15H20O2/c1-6-15(5)8-7-12-11(4)13(16)9(2)10(3)14(12)17-15/h6,16H,1,7-8H2,2-5H3
computed SMILES=OC=1C(=C(C=2OC(C=C)(C)CCC2C1C)C)C
accession=JP010113
date=2016.01.19 (Created 2008.10.21, modified 2011.05.06)
author=KURARAY CO., LTD.
license=CC BY-NC-SA
exact mass=232.14633
ionization energy=70 eV
ion type=[M]+*
computed spectral entropy=3.5048208430771
computed normalized entropy=0.7953356332498235
SPLASH=splash10-0f79-2940000000-2bfe4b485655bb0e8283
submitter=submitter = University of Tokyo Team (Faculty of Engineering, University of Tokyo)
MoNA Rating=3.75

>  <NUM PEAKS>  (1232) 
82

>  <MASS SPECTRAL PEAKS>  (1232) 
27 3.8
29 1.9
39 5.7
41 1.43
43 19
51 3.8
52 1.9
53 1.05
54 1.9
55 5.7
57 1.9
63 0.19
65 5.7
67 4.8
69 7.6
77 1.14
78 2.9
79 8.6
81 2.9
83 0.19
91 17.1
92 1.9
93 5.7
94 1.14
95 3.8
96 1.9
102 1.9
103 0.29
105 7.6
106 1.9
107 3.8
115 0.76
116 3.8
117 5.7
119 5.7
121 1.05
122 2.9
128 3.8
129 3.8
130 0.19
131 7.6
132 1.9
133 6.7
134 0.19
135 5.7
136 83.8
137 16.2
138 1.33
139 3.8
140 1.9
141 1.9
143 0.19
145 5.7
146 5.7
147 9.5
148 0.38
149 3.8
157 3.8
159 9.5
160 0.57
161 25.7
162 7.6
163 1.9
164 4.38
165 11.4
171 5.7
173 4.8
174 0.95
175 30.5
176 14.3
177 5.7
187 0.29
188 3.8
189 60
190 15.2
199 0.29
202 1.9
203 17.1
204 99.99
205 2.48
217 11.4
232 51.4

>  <PREDICTED SPECTRUM>  (1232) 
27 60
29 14
39 118
40 45
41 278
42 37
43 263
44 13
50 31
51 211
52 104
53 267
54 40
55 236
57 46
63 39
64 34
65 206
66 55
67 199
68 72
69 193
70 28
71 10
77 349
78 122
79 299
80 23
81 204
82 25
84 5
91 478
92 104
93 276
94 72
95 96
97 19
103 83
105 218
106 51
107 259
108 148
109 33
115 157
116 104
117 88
119 231
120 99
121 388
122 196
127 68
128 127
129 98
130 9
131 151
132 35
133 282
134 157
135 454
136 747
137 208
138 11
139 69
143 154
144 47
145 163
146 80
147 290
148 194
149 101
150 16
157 153
158 76
159 200
160 103
161 512
162 356
163 183
164 252
165 228
171 132
173 42
174 64
175 405
176 465
177 311
178 49
185 48
186 24
187 137
188 82
189 666
190 256
191 30
199 64
202 5
203 323
204 999
205 372
206 66
213 45
214 6
215 41
217 347
218 91
230 65
231 93
232 710
233 220

$$$$

     RDKit          2D

 15 16  0  0  0  0  0  0  0  0999 V2000
   -1.6700   -0.9600    0.0000 C   0  0  0  0  0  0  0  0  0  0  0  0
    8.7252   -0.9608    0.0000 C   0  0  0  0  0  0  0  0  0  0  0  0
   -0.3700   -1.7100    0.0000 C   0  0  0  0  0  0  0  0  0  0  0  0
   -1.6700    0.5400    0.0000 C   0  0  0  0  0  0  0  0  0  0  0  0
    8.7247    0.5400    0.0000 C   0  0  0  0  0  0  0  0  0  0  0  0
    7.4262   -1.7108    0.0000 C   0  0  0  0  0  0  0  0  0  0  0  0
    0.9300   -0.9600    0.0000 C   0  0  0  0  0  0  0  0  0  0  0  0
   -0.3700    1.2900    0.0000 C   0  0  0  0  0  0  0  0  0  0  0  0
    7.4252    1.2908    0.0000 C   0  0  0  0  0  0  0  0  0  0  0  0
    6.1266   -0.9600    0.0000 C   0  0  0  0  0  0  0  0  0  0  0  0
    3.5281    0.5404    0.0000 C   0  0  0  0  0  0  0  0  0  0  0  0
    0.9300    0.5400    0.0000 C   0  0  0  0  0  0  0  0  0  0  0  0
    6.1262    0.5408    0.0000 C   0  0  0  0  0  0  0  0  0  0  0  0
    2.2289    1.2902    0.0000 S   0  0  0  0  0  0  0  0  0  0  0  0
    4.8270    1.2906    0.0000 S   0  0  0  0  0  0  0  0  0  0  0  0
  3  1  2  0
  4  1  1  0
  5  2  2  0
  6  2  1  0
  7  3  1  0
  8  4  2  0
  9  5  1  0
 10  6  2  0
 12  7  2  0
 12  8  1  0
 13  9  2  0
 13 10  1  0
 14 11  1  0
 14 12  1  0
 15 11  1  0
 15 13  1  0
M  END
>  <NAME>  (1233) 
1,2-BISPHENYLTHIOMETHANE

>  <SYNONYMS>  (1233) 


>  <SPECTRUM TYPE>  (1233) 
MS1

>  <INSTRUMENT TYPE>  (1233) 
EI-B

>  <INSTRUMENT>  (1233) 
JEOL JMS-D-300

>  <ION MODE>  (1233) 
P

>  <INCHIKEY>  (1233) 
ZHUPZVIALZHGGP-UHFFFAOYSA-N

>  <FORMULA>  (1233) 
C13H12S2

>  <EXACT MASS>  (1233) 
232.038042384

>  <MW>  (1233) 
232

>  <ID>  (1233) 
JP010112

>  <CONTRIBUTOR>  (1233) 
University of Tokyo Team, {Faculty of Engineering, University of Tokyo

>  <COMMENT>  (1233) 
SMILES=c(c2)ccc(c2)SCSc(c1)cccc1
InChI=InChI=1S/C13H12S2/c1-3-7-12(8-4-1)14-11-15-13-9-5-2-6-10-13/h1-10H,11H2
computed SMILES=S(C=1C=CC=CC1)CSC=2C=CC=CC2
accession=JP010112
date=2016.01.19 (Created 2008.10.21, modified 2011.05.06)
author=KURARAY CO., LTD.
license=CC BY-NC-SA
exact mass=232.03804
ionization energy=70 eV
ion type=[M]+*
computed spectral entropy=1.6491217215082656
computed normalized entropy=0.5947949323605612
SPLASH=splash10-00di-3920000000-9e80d01f37e9cc406646
submitter=submitter = University of Tokyo Team (Faculty of Engineering, University of Tokyo)
MoNA Rating=3.75

>  <NUM PEAKS>  (1233) 
16

>  <MASS SPECTRAL PEAKS>  (1233) 
45 21
51 5.2
65 3.1
69 0.11
77 8.3
78 1.1
79 4.2
91 0.11
109 4.2
121 1.1
123 99.99
124 0.9
125 4.2
232 25
233 4.2
234 2.1

>  <PREDICTED SPECTRUM>  (1233) 
27 21
38 17
39 176
41 11
45 596
46 70
47 141
50 127
51 337
52 46
53 60
58 73
63 84
65 373
66 153
69 187
74 9
75 8
76 3
77 395
78 169
79 187
84 61
91 261
92 22
95 157
104 55
105 184
108 43
109 283
110 188
111 74
121 236
122 257
123 999
124 274
125 229
130 3
232 603
233 242
234 229
235 80

$$$$

     RDKit          2D

 15 14  0  0  0  0  0  0  0  0999 V2000
   -8.7685    6.1875    0.0000 C   0  0  0  0  0  0  0  0  0  0  0  0
   -7.4695    3.9375    0.0000 C   0  0  0  0  0  0  0  0  0  0  0  0
   -2.2733    3.9375    0.0000 C   0  0  0  0  0  0  0  0  0  0  0  0
    4.2219    6.1875    0.0000 C   0  0  0  0  0  0  0  0  0  0  0  0
   -3.5724    6.1875    0.0000 C   0  0  0  0  0  0  0  0  0  0  0  0
   -4.8714    5.4375    0.0000 C   0  0  0  0  0  0  0  0  0  0  0  0
   -0.9743    6.1875    0.0000 C   0  0  0  0  0  0  0  0  0  0  0  0
    0.3248    5.4375    0.0000 C   0  0  0  0  0  0  0  0  0  0  0  0
   -7.4695    5.4375    0.0000 C   0  0  0  0  0  0  0  0  0  0  0  0
   -2.2733    5.4375    0.0000 C   0  0  0  0  0  0  0  0  0  0  0  0
    2.9228    5.4375    0.0000 C   0  0  0  0  0  0  0  0  0  0  0  0
   -6.1704    6.1875    0.0000 C   0  0  0  0  0  0  0  0  0  0  0  0
   -6.1704    7.6875    0.0000 Cl  0  0  0  0  0  0  0  0  0  0  0  0
    2.9228    3.9375    0.0000 O   0  0  0  0  0  0  0  0  0  0  0  0
    1.6238    6.1875    0.0000 O   0  0  0  0  0  0  0  0  0  0  0  0
  6  5  1  0
  8  7  1  0
  9  1  2  0
  9  2  1  0
 10  3  1  0
 10  5  1  0
  7 10  2  0
 11  4  1  0
 12  6  1  0
 12  9  1  0
 13 12  1  0
 14 11  2  0
 15  8  1  0
 15 11  1  0
M  END
>  <NAME>  (1234) 
6-CHLORO-3,7-DIMETHYL-2,7-OCTADIENYL ACETATE

>  <SYNONYMS>  (1234) 


>  <SPECTRUM TYPE>  (1234) 
MS1

>  <INSTRUMENT TYPE>  (1234) 
EI-B

>  <INSTRUMENT>  (1234) 
JEOL JMS-D-300

>  <ION MODE>  (1234) 
P

>  <INCHIKEY>  (1234) 
WPMFOBQJRQAIKY-JXMROGBWSA-N

>  <FORMULA>  (1234) 
C12H19ClO2

>  <EXACT MASS>  (1234) 
230.107357528

>  <MW>  (1234) 
230

>  <ID>  (1234) 
JP010110

>  <CONTRIBUTOR>  (1234) 
University of Tokyo Team, {Faculty of Engineering, University of Tokyo

>  <COMMENT>  (1234) 
SMILES=CC(=O)OCC=C(C)CCC(Cl)C(C)=C
InChI=InChI=1S/C12H19ClO2/c1-9(2)12(13)6-5-10(3)7-8-15-11(4)14/h7,12H,1,5-6,8H2,2-4H3/b10-7+
computed SMILES=O=C(OCC=C(C)CCC(Cl)C(=C)C)C
accession=JP010110
date=2016.01.19 (Created 2008.10.21, modified 2011.05.06)
author=KURARAY CO., LTD.
license=CC BY-NC-SA
exact mass=230.10736
ionization energy=70 eV
ion type=[M]+*
computed spectral entropy=2.636269912711746
computed normalized entropy=0.8528740554331519
SPLASH=splash10-00kf-9200000000-7edb017d2ca3db2c1915
submitter=submitter = University of Tokyo Team (Faculty of Engineering, University of Tokyo)
MoNA Rating=3.75

>  <NUM PEAKS>  (1234) 
22

>  <MASS SPECTRAL PEAKS>  (1234) 
41 26.5
43 99.99
53 13.3
55 1.52
67 31.8
68 53.6
69 15.7
79 1.7
80 13.3
81 32.2
84 29.4
85 0.98
91 11.9
93 29.4
95 9.5
105 0.95
107 20.8
119 21.8
121 8.1
134 1.33
135 49.6
195 7.6

>  <PREDICTED SPECTRUM>  (1234) 
27 70
29 11
35 5
36 84
38 13
39 237
40 92
41 470
42 235
43 999
44 140
45 44
48 2
49 78
50 57
51 147
52 90
53 297
54 89
55 363
56 105
57 173
58 41
59 20
60 18
61 35
62 12
63 61
64 9
65 113
66 11
67 411
68 555
69 413
70 24
71 167
72 20
73 120
77 210
78 31
79 269
80 88
81 278
82 18
83 190
84 331
85 115
86 83
87 39
88 31
89 106
90 10
91 135
92 210
93 504
94 89
95 340
96 52
97 40
99 85
100 66
101 93
102 45
103 46
104 8
105 98
106 4
107 357
108 269
109 77
111 44
113 27
117 11
118 13
119 27
121 252
122 86
126 101
127 121
128 132
129 224
130 18
131 24
133 84
134 509
135 758
136 468
137 120
138 16
139 84
141 45
142 39
144 0
153 33
154 56
155 311
156 10
167 25
168 20
170 386
171 68
172 71
179 18
195 583
196 138

$$$$

     RDKit          2D

 12 12  0  0  0  0  0  0  0  0999 V2000
   -0.1095   -3.2923    0.0000 C   0  0  0  0  0  0  0  0  0  0  0  0
    1.7250   -2.4765    0.0000 C   0  0  0  0  0  0  0  0  0  0  0  0
    0.1051    0.5414    0.0000 C   0  0  0  0  0  0  0  0  0  0  0  0
   -1.2707   -0.0615    0.0000 C   0  0  0  0  0  0  0  0  0  0  0  0
    2.5965   -0.4095    0.0000 C   0  0  0  0  0  0  0  0  0  0  0  0
    3.2060    0.9610    0.0000 C   0  0  0  0  0  0  0  0  0  0  0  0
   -2.2171   -2.5609    0.0000 C   0  0  0  0  0  0  0  0  0  0  0  0
    1.1048   -0.5670    0.0000 C   0  0  0  0  0  0  0  0  0  0  0  0
   -1.1049   -1.5544    0.0000 C   0  0  0  0  0  0  0  0  0  0  0  0
    0.3548   -1.8660    0.0000 C   0  0  0  0  0  0  0  0  0  0  0  0
   -3.6449   -2.1009    0.0000 Br  0  0  0  0  0  0  0  0  0  0  0  0
    4.6978    1.1185    0.0000 O   0  0  0  0  0  0  0  0  0  0  0  0
  4  3  1  0
  6  5  1  0
  8  3  1  0
  8  5  1  0
  9  4  2  0
  9  7  1  0
 10  1  1  0
 10  2  1  0
 10  8  1  0
 10  9  1  0
 11  7  1  0
 12  6  2  0
M  END
>  <NAME>  (1235) 
3-BROMOMETHYL-2,2-DIMETHYL-3-CYCLOPENTENYLETHANAL

>  <SYNONYMS>  (1235) 
1-BROMOMETHYL-2,2-DIMETHYL-3-FORMYLMETHYL-1-CYCLOPENTENE

>  <SPECTRUM TYPE>  (1235) 
MS1

>  <INSTRUMENT TYPE>  (1235) 
EI-B

>  <INSTRUMENT>  (1235) 
JEOL JMS-D-300

>  <ION MODE>  (1235) 
P

>  <INCHIKEY>  (1235) 
XCQDWMJNYQLKSC-UHFFFAOYSA-N

>  <FORMULA>  (1235) 
C10H15BrO

>  <EXACT MASS>  (1235) 
230.0306272

>  <MW>  (1235) 
230

>  <ID>  (1235) 
JP010109

>  <CONTRIBUTOR>  (1235) 
University of Tokyo Team, {Faculty of Engineering, University of Tokyo

>  <COMMENT>  (1235) 
SMILES=O=CCC(C1)C(C)(C)C(CBr)=C([H])1
InChI=InChI=1S/C10H15BrO/c1-10(2)8(5-6-12)3-4-9(10)7-11/h4,6,8H,3,5,7H2,1-2H3
computed SMILES=O=CCC1CC=C(CBr)C1(C)C
accession=JP010109
date=2016.01.19 (Created 2008.10.21, modified 2011.05.06)
author=KURARAY CO., LTD.
license=CC BY-NC-SA
exact mass=230.03063
ionization energy=70 eV
ion type=[M]+*
computed spectral entropy=2.53423324071954
computed normalized entropy=0.6657362578189711
SPLASH=splash10-0a4i-4900000000-d4f6a266eb61f765577e
submitter=submitter = University of Tokyo Team (Faculty of Engineering, University of Tokyo)
MoNA Rating=3.75

>  <NUM PEAKS>  (1235) 
45

>  <MASS SPECTRAL PEAKS>  (1235) 
39 6
40 0.9
41 9.5
43 0.3
51 2.6
52 1.3
53 6
55 0.43
65 3.4
66 0.9
67 5.4
68 0.09
69 2.6
77 5.2
78 1.1
79 1.14
80 1.1
81 4.3
91 15.5
92 0.6
93 8
94 1.7
95 2.1
105 0.52
106 9.9
107 99.99
108 11.2
109 1.72
110 1.7
117 0.7
118 1
121 0.11
123 2.3
133 1.1
135 1.7
150 0.86
151 8.6
152 0.9
171 0.7
173 0.26
175 1.7
186 5.2
187 0.9
188 0.52
189 0.7

>  <PREDICTED SPECTRUM>  (1235) 
26 2
27 117
29 80
37 29
38 126
39 580
40 221
41 687
42 150
43 784
44 82
45 84
50 173
51 411
52 326
53 593
54 232
55 503
56 159
57 249
58 48
59 99
62 50
63 207
64 122
65 456
66 253
67 637
68 182
69 313
70 148
71 264
72 48
74 4
75 15
77 524
78 253
79 754
80 439
81 999
82 326
83 354
84 63
89 29
91 819
92 319
93 780
94 370
95 673
96 231
97 29
103 118
104 13
105 508
106 273
107 988
108 458
109 803
110 45
111 124
119 82
121 450
122 156
123 446
124 278
125 180
131 20
133 159
135 189
136 72
137 756
138 270
139 242
150 325
151 954
152 321
153 32
172 203
173 96
188 17
203 20
215 88
217 96
218 23
230 56
232 163

$$$$

     RDKit          2D

 17 18  0  0  0  0  0  0  0  0999 V2000
    6.1714    0.9368    0.0000 C   0  0  0  0  0  0  0  0  0  0  0  0
   -4.2217    0.9372    0.0000 C   0  0  0  0  0  0  0  0  0  0  0  0
   -2.9220    0.1866    0.0000 C   0  0  0  0  0  0  0  0  0  0  0  0
   -4.2224    2.4381    0.0000 C   0  0  0  0  0  0  0  0  0  0  0  0
   -1.6231    0.9368    0.0000 C   0  0  0  0  0  0  0  0  0  0  0  0
   -2.9235    3.1883    0.0000 C   0  0  0  0  0  0  0  0  0  0  0  0
    2.2742    0.1864    0.0000 C   0  0  0  0  0  0  0  0  0  0  0  0
    0.9747    0.9372    0.0000 C   0  0  0  0  0  0  0  0  0  0  0  0
    3.5728    2.4372    0.0000 C   0  0  0  0  0  0  0  0  0  0  0  0
   -1.6238    2.4377    0.0000 C   0  0  0  0  0  0  0  0  0  0  0  0
    3.5733    0.9364    0.0000 C   0  0  0  0  0  0  0  0  0  0  0  0
    0.9742    2.4381    0.0000 C   0  0  0  0  0  0  0  0  0  0  0  0
    2.2733    3.1881    0.0000 C   0  0  0  0  0  0  0  0  0  0  0  0
   -0.3249    3.1879    0.0000 C   0  0  0  0  0  0  0  0  0  0  0  0
    2.2735    4.6881    0.0000 O   0  0  0  0  0  0  0  0  0  0  0  0
   -0.3251    4.6879    0.0000 O   0  0  0  0  0  0  0  0  0  0  0  0
    4.8724    0.1866    0.0000 O   0  0  0  0  0  0  0  0  0  0  0  0
  3  2  2  0
  4  2  1  0
  5  3  1  0
  6  4  2  0
  8  7  2  0
 10  5  2  0
 10  6  1  0
 11  7  1  0
 11  9  2  0
 12  8  1  0
 13  9  1  0
 13 12  2  0
 14 10  1  0
 14 12  1  0
 15 13  1  0
 16 14  2  0
 17  1  1  0
 17 11  1  0
M  END
>  <NAME>  (1236) 
2-HYDROXY-4-METHOXYPHENYL PHENYL KETONE

>  <SYNONYMS>  (1236) 
2-HYDROXY-4-METHOXY-BENZOPHENONE

>  <SPECTRUM TYPE>  (1236) 
MS1

>  <INSTRUMENT TYPE>  (1236) 
EI-B

>  <INSTRUMENT>  (1236) 
JEOL JMS-D-300

>  <ION MODE>  (1236) 
P

>  <INCHIKEY>  (1236) 
DXGLGDHPHMLXJC-UHFFFAOYSA-N

>  <FORMULA>  (1236) 
C14H12O3

>  <EXACT MASS>  (1236) 
228.078644244

>  <MW>  (1236) 
228

>  <ID>  (1236) 
JP010108

>  <CONTRIBUTOR>  (1236) 
University of Tokyo Team, {Faculty of Engineering, University of Tokyo

>  <COMMENT>  (1236) 
SMILES=COc(c2)cc(O)c(c2)C(=O)c(c1)cccc1
InChI=InChI=1S/C14H12O3/c1-17-11-7-8-12(13(15)9-11)14(16)10-5-3-2-4-6-10/h2-9,15H,1H3
computed SMILES=O=C(C=1C=CC=CC1)C2=CC=C(OC)C=C2O
accession=JP010108
date=2016.01.19 (Created 2008.10.21, modified 2011.05.06)
author=KURARAY CO., LTD.
license=CC BY-NC-SA
exact mass=228.07864
ionization energy=70 eV
ion type=[M]+*
computed spectral entropy=1.8114400821517427
computed normalized entropy=0.6267152580643289
SPLASH=splash10-004i-1190000000-c313f66363430324ce8e
submitter=submitter = University of Tokyo Team (Faculty of Engineering, University of Tokyo)
MoNA Rating=3.75

>  <NUM PEAKS>  (1236) 
18

>  <MASS SPECTRAL PEAKS>  (1236) 
51 5.7
52 1.9
77 15.6
79 0.15
95 4.2
100 1.3
105 10.5
108 0.67
122 1.5
128 2.9
150 2.5
151 8.57
152 8
184 1.1
211 1.9
227 99.99
228 80.6
229 12.4

>  <PREDICTED SPECTRUM>  (1236) 
37 4
38 55
39 135
40 32
41 139
42 80
43 159
44 54
45 41
47 17
49 71
50 265
51 472
52 243
53 252
54 81
55 132
56 19
57 49
61 35
62 134
63 235
64 145
65 186
66 134
67 127
68 120
69 166
70 45
74 152
75 186
76 210
77 693
78 250
79 198
80 161
81 178
82 115
83 32
84 10
85 34
86 115
87 91
88 64
89 143
90 86
91 144
92 152
93 137
94 171
95 190
96 82
97 73
98 78
99 72
100 8
101 68
102 146
103 123
104 42
105 508
106 167
107 225
108 237
109 147
110 98
111 75
113 93
114 94
115 203
116 67
117 33
118 5
121 185
122 229
123 282
124 71
125 39
126 85
127 168
128 149
129 137
130 63
131 33
135 124
136 76
137 164
138 95
139 178
140 78
141 168
142 58
147 8
149 140
150 353
151 646
152 414
153 122
154 58
155 91
156 53
157 109
165 68
166 39
167 98
168 69
169 14
170 33
179 43
182 28
183 70
184 102
185 159
186 31
195 6
196 63
197 129
198 95
199 150
200 83
211 187
212 176
213 289
214 107
225 5
226 63
227 999
228 927
229 371
230 78

$$$$

     RDKit          2D

 16 16  0  0  0  0  0  0  0  0999 V2000
    1.9110    4.2303    0.0000 C   0  0  0  0  0  0  0  0  0  0  0  0
   -2.1500    0.5800    0.0000 C   0  0  0  0  0  0  0  0  0  0  0  0
   -3.6500    0.5800    0.0000 C   0  0  0  0  0  0  0  0  0  0  0  0
   -1.4000   -0.7200    0.0000 C   0  0  0  0  0  0  0  0  0  0  0  0
    0.1000    4.4700    0.0000 C   0  0  0  0  0  0  0  0  0  0  0  0
    3.1000    1.8700    0.0000 C   0  0  0  0  0  0  0  0  0  0  0  0
   -1.4000    4.4700    0.0000 C   0  0  0  0  0  0  0  0  0  0  0  0
    2.3500    0.5800    0.0000 C   0  0  0  0  0  0  0  0  0  0  0  0
   -3.6500    3.1700    0.0000 C   0  0  0  0  0  0  0  0  0  0  0  0
    0.8500    3.1700    0.0000 C   0  0  0  0  0  0  0  0  0  0  0  0
   -4.4000    1.8800    0.0000 C   0  0  0  0  0  0  0  0  0  0  0  0
    0.1000   -0.7200    0.0000 C   0  0  0  0  0  0  0  0  0  0  0  0
   -5.9000    1.8825    0.0000 O   0  0  0  0  0  0  0  0  0  0  0  0
    0.8502   -2.0189    0.0000 O   0  0  0  0  0  0  0  0  0  0  0  0
   -2.1500    3.1700    0.0000 O   0  0  0  0  0  0  0  0  0  0  0  0
    0.8500    0.5800    0.0000 O   0  0  0  0  0  0  0  0  0  0  0  0
  3  2  1  0
  4  2  1  0
  7  5  1  0
  8  6  1  0
 10  1  1  0
 10  5  1  0
 10  6  1  0
 11  3  1  0
 11  9  1  0
 12  4  1  0
 13 11  2  0
 14 12  2  0
 15  7  1  0
 15  9  1  0
 16  8  1  0
 16 12  1  0
M  END
>  <NAME>  (1237) 
ADIPICACID 3-METHYL-1,5-PENTANDIOL DIESTER

>  <SYNONYMS>  (1237) 
4-METHYL-1,7-DIOXATRIDECANE-8,12-DIONE

>  <SPECTRUM TYPE>  (1237) 
MS1

>  <INSTRUMENT TYPE>  (1237) 
EI-B

>  <INSTRUMENT>  (1237) 
JEOL JMS-D-300

>  <ION MODE>  (1237) 
P

>  <INCHIKEY>  (1237) 
KGPVQKJWSBHFFC-UHFFFAOYSA-N

>  <FORMULA>  (1237) 
C12H20O4

>  <EXACT MASS>  (1237) 
228.13615912

>  <MW>  (1237) 
228

>  <ID>  (1237) 
JP010107

>  <CONTRIBUTOR>  (1237) 
University of Tokyo Team, {Faculty of Engineering, University of Tokyo

>  <COMMENT>  (1237) 
SMILES=CC(C1)CCOC(=O)CCCC(=O)COC1
InChI=InChI=1S/C12H20O4/c1-10-5-7-15-9-11(13)3-2-4-12(14)16-8-6-10/h10H,2-9H2,1H3
computed SMILES=O=C1OCCC(C)CCOCC(=O)CCC1
accession=JP010107
date=2016.01.19 (Created 2008.10.21, modified 2011.05.06)
author=KURARAY CO., LTD.
license=CC BY-NC-SA
exact mass=228.13616
ionization energy=70 eV
ion type=[M]+*
computed spectral entropy=2.4291665162206924
computed normalized entropy=0.8404339371170811
SPLASH=splash10-053r-9200000000-f513f9e2718d021d0202
submitter=submitter = University of Tokyo Team (Faculty of Engineering, University of Tokyo)
MoNA Rating=3.75

>  <NUM PEAKS>  (1237) 
18

>  <MASS SPECTRAL PEAKS>  (1237) 
29 13.4
41 28.7
42 16.3
43 1.76
55 76.6
56 16.3
67 62.8
68 0.77
69 8.6
82 99.99
83 44.1
84 1.36
99 13.4
100 23
101 27.2
111 2.49
115 11.1
129 45.6

>  <PREDICTED SPECTRUM>  (1237) 
26 69
27 166
28 74
29 91
31 63
37 3
38 53
39 332
40 150
41 576
42 417
43 315
44 185
45 207
47 18
50 36
51 133
52 37
53 202
54 281
55 999
56 401
57 151
58 87
59 11
65 134
66 52
67 631
68 438
69 225
70 227
71 173
72 11
73 200
74 106
75 157
76 0
81 239
82 924
83 770
84 216
87 68
98 65
99 489
100 496
101 908
102 177
103 116
109 43
110 9
111 59
113 30
115 148
116 44
128 190
129 902
130 249
131 108

$$$$

     RDKit          2D

 42 43  0  0  0  0  0  0  0  0999 V2000
  -10.3944   -3.0749    0.0000 C   0  0  0  0  0  0  0  0  0  0  0  0
  -11.7120   -0.8357    0.0000 C   0  0  0  0  0  0  0  0  0  0  0  0
   15.4340    6.4509    0.0000 C   0  0  0  0  0  0  0  0  0  0  0  0
   14.9618    9.0057    0.0000 C   0  0  0  0  0  0  0  0  0  0  0  0
   13.4285    0.7960    0.0000 C   0  0  0  0  0  0  0  0  0  0  0  0
   15.4049    2.4824    0.0000 C   0  0  0  0  0  0  0  0  0  0  0  0
    2.6101    2.9936    0.0000 C   0  0  0  0  0  0  0  0  0  0  0  0
    3.1088    0.0816    0.0000 C   0  0  0  0  0  0  0  0  0  0  0  0
    1.3000   -0.7500    0.0000 C   0  0  0  0  0  0  0  0  0  0  0  0
    0.0300    1.5000    0.0000 C   0  0  0  0  0  0  0  0  0  0  0  0
    4.5942    3.1563    0.0000 C   0  0  0  0  0  0  0  0  0  0  0  0
    5.0181    0.6077    0.0000 C   0  0  0  0  0  0  0  0  0  0  0  0
    0.0300   -1.5000    0.0000 C   0  0  0  0  0  0  0  0  0  0  0  0
   -1.3200    0.7500    0.0000 C   0  0  0  0  0  0  0  0  0  0  0  0
    6.0441    3.4267    0.0000 C   0  0  0  0  0  0  0  0  0  0  0  0
    6.5432    0.8507    0.0000 C   0  0  0  0  0  0  0  0  0  0  0  0
   -3.9180   -0.7714    0.0000 C   0  0  0  0  0  0  0  0  0  0  0  0
   -6.5160   -0.7929    0.0000 C   0  0  0  0  0  0  0  0  0  0  0  0
    9.0326    3.9466    0.0000 C   0  0  0  0  0  0  0  0  0  0  0  0
   11.0090    5.6330    0.0000 C   0  0  0  0  0  0  0  0  0  0  0  0
  -10.4068   -1.5750    0.0000 C   0  0  0  0  0  0  0  0  0  0  0  0
   14.4604    7.5920    0.0000 C   0  0  0  0  0  0  0  0  0  0  0  0
   13.9299    2.2098    0.0000 C   0  0  0  0  0  0  0  0  0  0  0  0
    1.3000    0.7500    0.0000 C   0  0  0  0  0  0  0  0  0  0  0  0
    4.0812    1.7468    0.0000 C   0  0  0  0  0  0  0  0  0  0  0  0
   -5.2108   -1.5321    0.0000 C   0  0  0  0  0  0  0  0  0  0  0  0
   -1.3200   -0.7500    0.0000 C   0  0  0  0  0  0  0  0  0  0  0  0
    7.0562    2.2602    0.0000 C   0  0  0  0  0  0  0  0  0  0  0  0
   10.5076    4.2193    0.0000 C   0  0  0  0  0  0  0  0  0  0  0  0
   -9.1140   -0.8143    0.0000 C   0  0  0  0  0  0  0  0  0  0  0  0
   12.9854    7.3194    0.0000 C   0  0  0  0  0  0  0  0  0  0  0  0
   12.9563    3.3508    0.0000 C   0  0  0  0  0  0  0  0  0  0  0  0
    2.6027    1.4936    0.0000 C   0  0  0  0  0  0  0  0  0  0  0  0
   -5.1984   -3.0321    0.0000 O   0  0  0  0  0  0  0  0  0  0  0  0
   -9.1263    0.6856    0.0000 O   0  0  0  0  0  0  0  0  0  0  0  0
   12.0118    8.4604    0.0000 O   0  0  0  0  0  0  0  0  0  0  0  0
   13.4576    4.7646    0.0000 O   0  0  0  0  0  0  0  0  0  0  0  0
   -2.6128   -1.5107    0.0000 O   0  0  0  0  0  0  0  0  0  0  0  0
    8.5312    2.5329    0.0000 O   0  0  0  0  0  0  0  0  0  0  0  0
   -7.8088   -1.5536    0.0000 O   0  0  0  0  0  0  0  0  0  0  0  0
   12.4840    5.9056    0.0000 O   0  0  0  0  0  0  0  0  0  0  0  0
   11.4813    3.0782    0.0000 O   0  0  0  0  0  0  0  0  0  0  0  0
 13  9  2  0
 14 10  1  0
 15 11  2  0
 16 12  1  0
 21  1  2  0
 21  2  1  0
 22  3  2  0
 22  4  1  0
 23  5  2  0
 23  6  1  0
 24  9  1  0
 24 10  2  0
 25 11  1  0
 25 12  2  0
 26 17  1  0
 26 18  1  0
 27 13  1  0
 27 14  2  0
 28 15  1  0
 28 16  2  0
 29 19  1  0
 29 20  1  0
 30 21  1  0
 31 22  1  0
 32 23  1  0
 33  7  1  0
 33  8  1  0
 33 24  1  0
 33 25  1  0
 34 26  1  0
 35 30  2  0
 36 31  2  0
 37 32  2  0
 38 17  1  0
 38 27  1  0
 39 19  1  0
 39 28  1  0
 40 18  1  0
 40 30  1  0
 41 20  1  0
 41 31  1  0
 42 29  1  0
 42 32  1  0
M  END
>  <NAME>  (1238) 
2-(4-(2,3-BIS-METHACRYLOYLOXYPROPYLOXY)-PHENYL)-2-(4'-(2-HYDROXY-3-METHACRYLOYLOXYPROPYLOXY)-PHENYL)-PROPANE

>  <SYNONYMS>  (1238) 


>  <SPECTRUM TYPE>  (1238) 
MS1

>  <INSTRUMENT TYPE>  (1238) 
EI-B

>  <INSTRUMENT>  (1238) 
JEOL JMS-D-300

>  <ION MODE>  (1238) 
P

>  <INCHIKEY>  (1238) 
QONAMQVPGGEUCA-UHFFFAOYSA-N

>  <FORMULA>  (1238) 
C33H40O9

>  <EXACT MASS>  (1238) 
580.2672328599999

>  <MW>  (1238) 
580

>  <ID>  (1238) 
JP010106

>  <CONTRIBUTOR>  (1238) 
University of Tokyo Team, {Faculty of Engineering, University of Tokyo

>  <COMMENT>  (1238) 
SMILES=CC(C)(c(c2)ccc(c2)OCC(COC(=O)C(C)=C)O)c(c1)ccc(c1)OCC(COC(C(C)=C)=O)OC(C(C)=C)=O
InChI=InChI=1S/C33H40O9/c1-21(2)30(35)40-18-26(34)17-38-27-13-9-24(10-14-27)33(7,8)25-11-15-28(16-12-25)39-19-29(42-32(37)23(5)6)20-41-31(36)22(3)4/h9-16,26,29,34H,1,3,5,17-20H2,2,4,6-8H3
computed SMILES=O=C(OCC(O)COC1=CC=C(C=C1)C(C2=CC=C(OCC(OC(=O)C(=C)C)COC(=O)C(=C)C)C=C2)(C)C)C(=C)C
accession=JP010106
date=2016.01.19 (Created 2008.10.21, modified 2011.05.06)
author=KURARAY CO., LTD.
license=CC BY-NC-SA
exact mass=580.26723
ionization energy=70 eV
ion type=[M]+*
computed spectral entropy=2.5578912372102223
computed normalized entropy=0.6643618639644165
SPLASH=splash10-0006-9122000000-4451f6b00c2fd14f5512
submitter=submitter = University of Tokyo Team (Faculty of Engineering, University of Tokyo)
MoNA Rating=3.75

>  <NUM PEAKS>  (1238) 
47

>  <MASS SPECTRAL PEAKS>  (1238) 
28 8.81
29 3.47
31 1.72
39 0.88
41 8.89
43 0.64
44 99.99
57 4.15
69 32.44
91 1.39
107 1.17
119 3.28
135 2.52
143 23.15
161 2.76
191 2.3
211 29.21
212 4.17
213 4.82
269 3.36
325 3.36
361 24.77
362 5.12
363 8.1
364 1.46
376 4.43
395 0.98
396 0.33
397 0.58
399 0.39
409 0.21
410 0.62
411 1.33
412 0.49
426 0.54
429 1.26
430 0.34
431 0.53
444 0.58
446 0.27
479 0.21
494 0.19
515 0.31
530 0.26
565 0.57
580 0.9
581 0.39

>  <PREDICTED SPECTRUM>  (1238) 
28 100
29 92
30 12
38 24
39 249
40 62
41 677
42 137
43 160
44 399
53 101
54 2
57 208
58 85
59 93
68 62
69 999
70 293
71 92
73 65
77 22
79 55
81 16
83 10
87 109
88 118
90 9
91 99
93 42
95 72
103 54
105 9
107 50
111 91
112 10
114 54
115 97
116 18
117 10
119 137
120 38
122 18
131 69
132 19
143 523
144 19
145 83
157 49
158 55
159 142
181 56
182 17
185 72
191 2
195 101
199 18
211 436
212 102
213 427
223 8
224 43
225 126
235 25
237 107
243 71
267 126
269 266
271 37
297 182
309 33
311 54
325 172
332 3
333 125
346 10
347 29
360 77
361 681
362 381
363 264
375 60
376 74
377 79
378 103
392 96
393 93
565 66
580 102

$$$$

     RDKit          2D

 38 38  0  0  0  0  0  0  0  0999 V2000
   16.8877    5.2525    0.0000 C   0  0  0  0  0  0  0  0  0  0  0  0
   15.5883    7.5023    0.0000 C   0  0  0  0  0  0  0  0  0  0  0  0
   10.3922    7.5015    0.0000 C   0  0  0  0  0  0  0  0  0  0  0  0
    3.8974    5.2504    0.0000 C   0  0  0  0  0  0  0  0  0  0  0  0
    9.0942    0.7512    0.0000 C   0  0  0  0  0  0  0  0  0  0  0  0
   -2.5989   -1.5002    0.0000 C   0  0  0  0  0  0  0  0  0  0  0  0
   -3.3491   -0.2013    0.0000 H   0  0  0  0  0  0  0  0  0  0  0  0
   -3.8978   -2.2504    0.0000 H   0  0  0  0  0  0  0  0  0  0  0  0
   -1.8487   -2.7991    0.0000 H   0  0  0  0  0  0  0  0  0  0  0  0
    2.3966    9.7502    0.0000 C   0  0  0  0  0  0  0  0  0  0  0  0
    3.8964   11.2504    0.0000 C   0  0  0  0  0  0  0  0  0  0  0  0
    5.3966    9.7507    0.0000 C   0  0  0  0  0  0  0  0  0  0  0  0
   12.9905    6.0019    0.0000 C   0  0  0  0  0  0  0  0  0  0  0  0
    5.1970    1.5006    0.0000 C   0  0  0  0  0  0  0  0  0  0  0  0
   14.2897    5.2521    0.0000 C   0  0  0  0  0  0  0  0  0  0  0  0
   11.6916    5.2517    0.0000 C   0  0  0  0  0  0  0  0  0  0  0  0
    6.4962    0.7508    0.0000 C   0  0  0  0  0  0  0  0  0  0  0  0
    3.8981    0.7504    0.0000 C   0  0  0  0  0  0  0  0  0  0  0  0
    9.0935    5.2512    0.0000 C   0  0  0  0  0  0  0  0  0  0  0  0
    6.4954    5.2508    0.0000 C   0  0  0  0  0  0  0  0  0  0  0  0
    9.0937    3.7512    0.0000 C   0  0  0  0  0  0  0  0  0  0  0  0
    6.4957    3.7508    0.0000 C   0  0  0  0  0  0  0  0  0  0  0  0
   -1.3000    0.7500    0.0000 C   0  0  0  0  0  0  0  0  0  0  0  0
   -0.0000   -1.5000    0.0000 C   0  0  0  0  0  0  0  0  0  0  0  0
   -0.0000    1.5000    0.0000 C   0  0  0  0  0  0  0  0  0  0  0  0
    1.3000   -0.7500    0.0000 C   0  0  0  0  0  0  0  0  0  0  0  0
    5.1960    7.5006    0.0000 C   0  0  0  0  0  0  0  0  0  0  0  0
   15.5886    6.0023    0.0000 C   0  0  0  0  0  0  0  0  0  0  0  0
   10.3924    6.0015    0.0000 C   0  0  0  0  0  0  0  0  0  0  0  0
    5.1963    6.0006    0.0000 C   0  0  0  0  0  0  0  0  0  0  0  0
    7.7951    1.5010    0.0000 C   0  0  0  0  0  0  0  0  0  0  0  0
    7.7948    3.0010    0.0000 C   0  0  0  0  0  0  0  0  0  0  0  0
    2.5989    1.5002    0.0000 C   0  0  0  0  0  0  0  0  0  0  0  0
   -1.3000   -0.7500    0.0000 N   0  0  0  0  0  0  0  0  0  0  0  0
    1.3000    0.7500    0.0000 N   0  0  0  0  0  0  0  0  0  0  0  0
    2.5987    3.0002    0.0000 O   0  0  0  0  0  0  0  0  0  0  0  0
    3.8969    8.2504    0.0000 O   0  0  0  0  0  0  0  0  0  0  0  0
    3.8966    9.7504    0.0000 Si  0  0  0  0  0  4  0  0  0  0  0  0
  6  7  1  0
  6  8  1  0
  6  9  1  0
 15 13  1  0
 16 13  1  0
 17 14  1  0
 18 14  1  0
 21 19  1  0
 22 20  1  0
 25 23  1  0
 26 24  1  0
 28  1  1  0
 28  2  1  0
 28 15  2  0
 29  3  1  0
 29 16  1  0
 19 29  2  0
 30  4  1  0
 30 20  1  0
 30 27  1  0
 31  5  1  0
 17 31  2  0
 32 21  1  0
 32 22  1  0
 32 31  1  0
 33 18  1  0
 34  6  1  0
 34 23  1  0
 34 24  1  0
 35 25  1  0
 35 26  1  0
 35 33  1  0
 36 33  2  0
 37 27  1  0
 38 10  1  0
 38 11  1  0
 38 12  1  0
 38 37  1  0
M  ISO  3   7   2   8   2   9   2
M  END
>  <NAME>  (1239) 
1-(1,1,1-TRIDEUTERIOMETHYL)-4-(5,9-DIMETHYL-6-(3,7-DIMETHYL-2,6-OCTADIENYL)-1-OXO-10-TRIMETHYLSYLYLOXY-4-DECAN-1-YL)-PIPERADINE (PIPERADINE-1,1,1-D3METHYL)

>  <SYNONYMS>  (1239) 


>  <SPECTRUM TYPE>  (1239) 
MS1

>  <INSTRUMENT TYPE>  (1239) 
EI-B

>  <INSTRUMENT>  (1239) 
JEOL JMS-D-300

>  <ION MODE>  (1239) 
P

>  <INCHIKEY>  (1239) 
QBLBWOSQGPWRPG-CBGKHWDGSA-N

>  <FORMULA>  (1239) 
C30H56N2O2Si

>  <EXACT MASS>  (1239) 
507.4299358

>  <MW>  (1239) 
507

>  <ID>  (1239) 
JP010104

>  <CONTRIBUTOR>  (1239) 
University of Tokyo Team, {Faculty of Engineering, University of Tokyo

>  <COMMENT>  (1239) 
SMILES=C(C)(CO[Si](C)(C)C)CCC(CC=C(C)CCC=C(C)C)C(=CCCC(=O)N(C1)CCN(C([2H])([2H])[2H])C1)C
InChI=InChI=1S/C30H56N2O2Si/c1-25(2)12-10-13-26(3)16-18-29(19-17-27(4)24-34-35(7,8)9)28(5)14-11-15-30(33)32-22-20-31(6)21-23-32/h12,14,16,27,29H,10-11,13,15,17-24H2,1-9H3/b26-16-,28-14-/i6D3
computed SMILES=[H]C([H])([H])N1CCN(C(=O)CCC=C(C)C(CC=C(C)CCC=C(C)C)CCC(C)CO[Si](C)(C)C)CC1
accession=JP010104
date=2016.01.19 (Created 2008.10.21, modified 2011.05.06)
author=KURARAY CO., LTD.
license=CC BY-NC-SA
exact mass=504.41111
ionization energy=70 eV
ion type=[M]+*
computed spectral entropy=3.161956451054342
computed normalized entropy=0.8823607480128485
SPLASH=splash10-0w29-9720120000-cd07a6b688a43cb3b0fe
submitter=submitter = University of Tokyo Team (Faculty of Engineering, University of Tokyo)
MoNA Rating=3.75

>  <NUM PEAKS>  (1239) 
36

>  <MASS SPECTRAL PEAKS>  (1239) 
28 17.57
29 3.89
32 28.37
40 1.99
41 41.82
44 7.16
60 46.06
61 62.23
69 70.75
73 91.33
75 37.66
81 35.95
96 1.07
100 27
101 95.43
102 61.6
103 25.97
104 99.99
133 26.89
147 8.08
191 11.59
207 4.84
212 88.68
213 30.96
221 3.94
281 2.95
282 0.91
355 3.22
370 10.64
438 56.11
439 24.13
492 2.65
503 8.24
505 28.92
507 74.77
508 35.82

>  <PREDICTED SPECTRUM>  (1239) 
14 1
15 52
16 6
17 25
18 70
25 24
26 94
27 246
28 186
29 355
30 289
31 204
32 46
33 25
35 14
36 10
37 52
38 67
39 290
40 167
41 717
42 390
43 664
44 378
45 467
46 116
47 166
48 45
49 59
50 75
51 108
52 28
53 187
54 242
55 401
56 397
57 611
58 440
59 332
60 204
61 171
62 17
63 32
64 36
65 130
66 125
67 466
68 456
69 999
70 435
71 419
72 283
73 668
74 161
75 312
76 112
77 189
78 102
79 253
80 288
81 579
82 368
83 313
84 304
85 336
86 199
87 149
88 118
89 123
90 38
91 261
92 154
93 523
94 183
95 584
96 348
97 115
98 122
99 335
100 315
101 433
102 126
103 47
104 71
105 142
106 238
107 345
108 252
109 510
110 168
111 214
112 102
113 206
114 154
115 110
116 120
117 97
118 61
119 299
120 135
121 353
122 190
123 117
124 122
125 53
126 92
127 202
128 147
129 103
130 95
131 132
132 77
133 160
134 249
135 422
136 123
137 132
138 159
139 123
140 145
141 179
142 256
143 185
144 72
145 103
146 22
147 183
148 131
149 93
150 59
151 88
152 127
153 75
154 8
155 246
156 142
157 59
158 72
159 154
160 126
161 118
162 108
163 46
164 47
165 25
166 137
167 83
168 111
169 129
170 67
171 96
172 25
173 67
174 101
175 131
176 124
177 116
178 103
179 49
180 72
181 42
182 50
183 92
184 87
185 25
186 72
187 37
188 31
189 25
190 100
191 78
192 49
193 17
194 35
195 18
196 13
197 45
198 32
199 5
200 5
201 39
202 34
203 80
204 61
205 13
206 78
207 75
208 53
209 522
210 172
211 34
213 15
215 11
217 30
218 37
219 12
220 46
221 4
222 95
223 150
224 64
229 7
231 9
232 9
233 13
234 17
235 5
236 39
242 68
243 28
244 80
245 103
246 125
258 21
259 14
260 16
263 68
266 57
267 25
277 112
285 77
286 44
288 20
298 14
303 44
314 17
320 18
321 49
322 23
325 2
337 0
346 3
348 3
351 20
352 10
353 119
354 5
356 33
357 1
370 303
371 142
397 0
401 11
402 8
405 22
408 55
409 2
413 13
420 39
421 5
428 60
435 15
438 187
439 119
440 8
489 36
491 27
492 72
505 60
506 157
507 244
508 134
509 31

$$$$

     RDKit          2D

 36 41  0  0  0  0  0  0  0  0999 V2000
    0.9204   -1.2422    0.0000 C   0  0  0  0  0  0  0  0  0  0  0  0
    2.1066    0.7332    0.0000 C   0  0  0  0  0  0  0  0  0  0  0  0
  -27.0006   -5.8530    0.0000 C   0  0  0  0  0  0  0  0  0  0  0  0
  -28.1868   -7.8285    0.0000 C   0  0  0  0  0  0  0  0  0  0  0  0
   -9.1816   -3.3561    0.0000 C   0  0  0  0  0  0  0  0  0  0  0  0
  -16.8986   -3.7391    0.0000 C   0  0  0  0  0  0  0  0  0  0  0  0
   -4.2251   -1.8478    0.0000 C   0  0  0  0  0  0  0  0  0  0  0  0
  -21.8551   -5.2475    0.0000 C   0  0  0  0  0  0  0  0  0  0  0  0
  -12.3018   -3.6799    0.0000 C   0  0  0  0  0  0  0  0  0  0  0  0
  -13.7783   -3.4153    0.0000 C   0  0  0  0  0  0  0  0  0  0  0  0
   -2.1167   -0.4566    0.0000 C   0  0  0  0  0  0  0  0  0  0  0  0
  -23.9635   -6.6386    0.0000 C   0  0  0  0  0  0  0  0  0  0  0  0
   -7.3533   -1.6132    0.0000 C   0  0  0  0  0  0  0  0  0  0  0  0
  -18.7269   -5.4821    0.0000 C   0  0  0  0  0  0  0  0  0  0  0  0
   -3.4079    0.3067    0.0000 C   0  0  0  0  0  0  0  0  0  0  0  0
  -22.6722   -7.4019    0.0000 C   0  0  0  0  0  0  0  0  0  0  0  0
   -8.7594   -1.0909    0.0000 C   0  0  0  0  0  0  0  0  0  0  0  0
  -17.3207   -6.0043    0.0000 C   0  0  0  0  0  0  0  0  0  0  0  0
   -0.8100    0.2800    0.0000 C   0  0  0  0  0  0  0  0  0  0  0  0
  -25.2702   -7.3752    0.0000 C   0  0  0  0  0  0  0  0  0  0  0  0
  -11.3344   -2.5336    0.0000 C   0  0  0  0  0  0  0  0  0  0  0  0
  -14.7457   -4.5616    0.0000 C   0  0  0  0  0  0  0  0  0  0  0  0
   -6.1979   -0.6565    0.0000 C   0  0  0  0  0  0  0  0  0  0  0  0
  -19.8822   -6.4387    0.0000 C   0  0  0  0  0  0  0  0  0  0  0  0
    0.6900    0.2400    0.0000 C   0  0  0  0  0  0  0  0  0  0  0  0
  -26.7702   -7.3352    0.0000 C   0  0  0  0  0  0  0  0  0  0  0  0
   -9.9148   -2.0476    0.0000 C   0  0  0  0  0  0  0  0  0  0  0  0
  -16.1654   -5.0477    0.0000 C   0  0  0  0  0  0  0  0  0  0  0  0
   -4.7146   -0.4299    0.0000 C   0  0  0  0  0  0  0  0  0  0  0  0
  -21.3656   -6.6653    0.0000 C   0  0  0  0  0  0  0  0  0  0  0  0
   -0.0700    1.5800    0.0000 O   0  0  0  0  0  0  0  0  0  0  0  0
  -26.0102   -8.6752    0.0000 O   0  0  0  0  0  0  0  0  0  0  0  0
  -11.0947   -1.0571    0.0000 O   0  0  0  0  0  0  0  0  0  0  0  0
  -14.9855   -6.0382    0.0000 O   0  0  0  0  0  0  0  0  0  0  0  0
   -5.7002    0.7541    0.0000 O   0  0  0  0  0  0  0  0  0  0  0  0
  -20.3800   -7.8493    0.0000 O   0  0  0  0  0  0  0  0  0  0  0  0
 10  9  1  0
 15 11  1  0
 16 12  1  0
 17 13  1  0
 18 14  1  0
 19 11  1  0
 20 12  1  0
 21  9  1  0
 22 10  1  0
 23 13  1  0
 24 14  1  0
 25  1  1  0
 25  2  1  0
 25 19  1  0
 26  3  1  0
 26  4  1  0
 26 20  1  0
 27  5  1  0
 27 17  1  0
 27 21  1  0
 28  6  1  0
 28 18  1  0
 28 22  1  0
 29  7  1  0
 29 15  1  0
 29 23  1  0
 30  8  1  0
 30 16  1  0
 30 24  1  0
 31 19  1  0
 31 25  1  0
 32 20  1  0
 32 26  1  0
 33 21  1  0
 33 27  1  0
 34 22  1  0
 34 28  1  0
 35 23  1  0
 35 29  1  0
 36 24  1  0
 36 30  1  0
M  END
>  <NAME>  (1240) 
SQUALENE HEXAEPOXIDE

>  <SYNONYMS>  (1240) 
2,6,10,15,19,23-HEXAMETHYL-2,6-10,14,18,22-TETRACOSAHEXAENE HEXAEPOXIDE

>  <SPECTRUM TYPE>  (1240) 
MS1

>  <INSTRUMENT TYPE>  (1240) 
EI-B

>  <INSTRUMENT>  (1240) 
JEOL JMS-D-300

>  <ION MODE>  (1240) 
P

>  <INCHIKEY>  (1240) 
PSNNHFRISFMCAD-UHFFFAOYSA-N

>  <FORMULA>  (1240) 
C30H50O6

>  <EXACT MASS>  (1240) 
506.36073932

>  <MW>  (1240) 
506

>  <ID>  (1240) 
JP010102

>  <CONTRIBUTOR>  (1240) 
University of Tokyo Team, {Faculty of Engineering, University of Tokyo

>  <COMMENT>  (1240) 
SMILES=CC(C)(O1)C1CCC(O2)(C)C2CCC(C(CCC(C(CCC(O5)C5(C)CCC(O6)C(C)(C)6)(C)4)O4)3)(C)O3
InChI=InChI=1S/C30H50O6/c1-25(2)19(31-25)11-15-29(7)23(35-29)13-17-27(5)21(33-27)9-10-22-28(6,34-22)18-14-24-30(8,36-24)16-12-20-26(3,4)32-20/h19-24H,9-18H2,1-8H3
computed SMILES=O1C(CCC2(OC2CCC3(OC3CCC4OC4(C)CCC5OC5(C)CCC6OC6(C)C)C)C)C1(C)C
accession=JP010102
date=2016.01.19 (Created 2008.10.21, modified 2011.05.06)
author=KURARAY CO., LTD.
license=CC BY-NC-SA
exact mass=506.36074
ionization energy=70 eV
ion type=[M]+*
computed spectral entropy=4.357538522283977
computed normalized entropy=0.8554676516319583
SPLASH=splash10-054o-3920000000-b50f8f18ad18f55c81fc
submitter=submitter = University of Tokyo Team (Faculty of Engineering, University of Tokyo)
MoNA Rating=3.75

>  <NUM PEAKS>  (1240) 
163

>  <MASS SPECTRAL PEAKS>  (1240) 
27 1.43
41 10.12
43 69.18
53 1.63
55 16.13
59 3.51
60 1.71
67 4.9
68 2.23
69 18.55
71 50.63
72 2.6
73 2.79
77 0.71
79 4.87
81 16.97
82 2.29
83 5.01
85 15.88
93 10.24
94 1.08
95 12.09
96 2.2
97 7.82
98 1.39
99 13.1
100 1.08
101 1.37
105 3.31
106 2.64
107 12.69
108 10.59
109 21.91
110 4
111 11.51
112 1.08
113 2.47
114 1.1
115 1.11
117 1.92
119 3.85
120 1.85
121 9.77
122 5.33
123 11.49
124 10.11
125 78.64
126 11.98
127 28.29
128 2.12
129 2.12
131 2.92
132 1.34
133 5.42
134 3.53
135 10.4
136 4.01
137 16.68
138 2.43
139 4.47
140 1.56
141 3.79
142 5.42
143 99.99
144 7.83
145 5.82
146 2.11
147 5.11
148 11.56
149 15.68
150 6.21
151 10.41
152 2.55
153 10.06
154 2.67
155 31.32
156 5.17
157 3.82
159 4.12
160 1.1
161 4.14
162 4.46
163 7.4
164 3.97
165 6.29
166 1.88
167 6.85
168 2.44
169 5.31
170 3.18
171 2.17
173 3.94
174 1.74
175 4.5
176 1.76
177 3.43
179 3.94
181 2.18
182 4.61
183 5.37
185 1.76
187 1.85
189 3.74
191 7.27
192 3.21
193 5.69
194 2.53
195 3.77
197 1.7
199 2.26
201 2.05
203 2.69
205 1.86
207 3.4
208 3.02
209 45.26
210 6.38
211 7.21
212 1.5
213 1.83
215 1.36
217 2.6
219 2.53
221 9.74
222 2.84
223 2.52
225 3.11
226 1.89
227 24.06
228 4.76
229 1.48
231 1.43
233 2.55
234 6.14
235 4.06
236 1.98
237 0.89
239 4.92
247 3.68
248 1.47
249 2.9
259 1.89
261 2.12
277 2.34
279 4.58
280 2.75
281 1.39
301 1.11
305 2.67
306 1.57
318 1.77
319 3.91
337 1.01
345 2.2
361 1.98
363 4.37
364 2.05
365 1.74
429 1.42
446 1.45
488 4.21
489 1.6
506 2.9

>  <PREDICTED SPECTRUM>  (1240) 
29 2
31 6
41 121
42 49
43 593
44 49
45 38
46 4
47 20
51 17
53 73
55 327
56 89
57 113
58 60
59 203
60 75
61 30
65 3
67 223
68 76
69 530
70 18
71 491
72 111
73 226
74 177
75 55
77 114
78 62
79 315
80 149
81 439
82 101
83 331
84 73
85 307
86 74
87 103
88 81
92 62
93 249
94 121
95 386
96 124
97 221
98 32
99 193
100 34
101 142
103 72
105 162
106 201
107 400
108 255
109 579
110 209
111 525
112 131
113 168
114 92
115 114
116 27
117 144
118 37
119 192
120 104
121 346
122 211
123 330
124 333
125 797
126 446
127 443
128 56
129 145
130 146
131 353
132 37
133 239
134 123
135 332
136 99
137 306
138 103
139 240
140 159
141 194
142 189
143 999
144 220
145 474
146 77
147 210
148 149
149 306
150 177
151 423
152 110
153 435
154 163
155 770
156 213
157 186
158 34
159 282
160 212
161 290
162 327
163 221
164 296
165 236
166 107
167 176
168 128
169 231
170 139
171 210
172 70
173 222
174 57
175 232
176 104
177 188
178 33
179 204
180 87
181 251
182 192
183 293
184 1
185 116
187 106
188 3
189 244
191 278
192 117
193 215
194 178
195 216
196 43
197 205
198 58
199 148
201 114
202 15
203 52
204 27
205 151
206 70
207 213
208 243
209 730
210 334
211 259
212 95
213 194
215 45
217 67
219 121
220 45
221 387
222 66
223 221
224 123
225 189
226 78
227 238
228 79
229 140
230 24
231 39
232 7
233 268
234 310
235 183
236 131
237 148
238 6
239 188
241 15
243 6
245 64
247 21
248 8
249 139
250 58
251 39
253 98
255 1
259 24
261 108
262 101
263 76
267 5
277 154
279 150
280 86
281 100
282 7
285 6
293 0
297 8
300 19
305 161
306 80
318 31
319 202
337 10
355 13
377 4
392 3
406 10
416 26
420 7
429 102
446 114
449 0
460 12
488 183
489 83
506 120

$$$$

     RDKit          2D

 34 36  0  0  0  0  0  0  0  0999 V2000
    5.6560   -8.3006    0.0000 C   0  0  0  0  0  0  0  0  0  0  0  0
   -9.7898    1.4674    0.0000 C   0  0  0  0  0  0  0  0  0  0  0  0
    7.5525    6.9505    0.0000 C   0  0  0  0  0  0  0  0  0  0  0  0
   -3.9427    1.3596    0.0000 C   0  0  0  0  0  0  0  0  0  0  0  0
    4.5372    1.9397    0.0000 C   0  0  0  0  0  0  0  0  0  0  0  0
    5.6563   -6.8006    0.0000 C   0  0  0  0  0  0  0  0  0  0  0  0
    4.3574   -6.0504    0.0000 C   0  0  0  0  0  0  0  0  0  0  0  0
    4.3576   -4.5504    0.0000 C   0  0  0  0  0  0  0  0  0  0  0  0
    3.0587   -3.8002    0.0000 C   0  0  0  0  0  0  0  0  0  0  0  0
    3.0589   -2.3002    0.0000 C   0  0  0  0  0  0  0  0  0  0  0  0
   -2.1300   -2.3000    0.0000 C   0  0  0  0  0  0  0  0  0  0  0  0
    0.4600    2.2000    0.0000 C   0  0  0  0  0  0  0  0  0  0  0  0
   -3.4300   -1.5500    0.0000 C   0  0  0  0  0  0  0  0  0  0  0  0
    1.7600    2.9500    0.0000 C   0  0  0  0  0  0  0  0  0  0  0  0
   -4.9072   -0.3103    0.0000 C   0  0  0  0  0  0  0  0  0  0  0  0
    3.5727    3.6096    0.0000 C   0  0  0  0  0  0  0  0  0  0  0  0
   -5.8713    0.8389    0.0000 C   0  0  0  0  0  0  0  0  0  0  0  0
    5.0499    3.8704    0.0000 C   0  0  0  0  0  0  0  0  0  0  0  0
    0.4600   -2.3000    0.0000 C   0  0  0  0  0  0  0  0  0  0  0  0
   -8.3126    1.7277    0.0000 C   0  0  0  0  0  0  0  0  0  0  0  0
    7.0398    5.5409    0.0000 C   0  0  0  0  0  0  0  0  0  0  0  0
    1.7600   -1.5500    0.0000 C   0  0  0  0  0  0  0  0  0  0  0  0
   -0.8300   -1.5500    0.0000 C   0  0  0  0  0  0  0  0  0  0  0  0
    0.4600    0.7000    0.0000 C   0  0  0  0  0  0  0  0  0  0  0  0
    1.7600   -0.0500    0.0000 C   0  0  0  0  0  0  0  0  0  0  0  0
   -0.8300   -0.0500    0.0000 C   0  0  0  0  0  0  0  0  0  0  0  0
   -3.4300   -0.0500    0.0000 C   0  0  0  0  0  0  0  0  0  0  0  0
    3.0600    2.2000    0.0000 C   0  0  0  0  0  0  0  0  0  0  0  0
   -7.7994    3.1372    0.0000 O   0  0  0  0  0  0  0  0  0  0  0  0
    8.0042    4.3920    0.0000 O   0  0  0  0  0  0  0  0  0  0  0  0
   -7.3485    0.5785    0.0000 O   0  0  0  0  0  0  0  0  0  0  0  0
    5.5626    5.2801    0.0000 O   0  0  0  0  0  0  0  0  0  0  0  0
    3.0600    0.7000    0.0000 O   0  0  0  0  0  0  0  0  0  0  0  0
   -2.1300    0.7000    0.0000 O   0  0  0  0  0  0  0  0  0  0  0  0
  6  1  1  0
  7  6  1  0
  8  7  1  0
  9  8  1  0
 10  9  1  0
 13 11  1  0
 14 12  1  0
 17 15  1  0
 18 16  1  0
 20  2  1  0
 21  3  1  0
 22 10  1  0
 22 19  1  0
 23 11  1  0
 23 19  2  0
 24 12  1  0
 25 22  2  0
 25 24  1  0
 26 23  1  0
 26 24  2  0
 27  4  1  0
 27 13  1  0
 27 15  1  0
 28  5  1  0
 28 14  1  0
 28 16  1  0
 29 20  2  0
 30 21  2  0
 31 17  1  0
 31 20  1  0
 32 18  1  0
 32 21  1  0
 33 25  1  0
 33 28  1  0
 34 26  1  0
 34 27  1  0
M  END
>  <NAME>  (1241) 
2,8-DIACETOXYETHYL-2,8-DIMETHYL-6-HEXYL-3,4,9,10-TETRAHYDRO-2H,8H-BENZO(1,2-B:3,4-B')DIPYRAN

>  <SYNONYMS>  (1241) 


>  <SPECTRUM TYPE>  (1241) 
MS1

>  <INSTRUMENT TYPE>  (1241) 
EI-B

>  <INSTRUMENT>  (1241) 
JEOL JMS-D-300

>  <ION MODE>  (1241) 
P

>  <INCHIKEY>  (1241) 
GILZWGRFJQKHAM-UHFFFAOYSA-N

>  <FORMULA>  (1241) 
C28H42O6

>  <EXACT MASS>  (1241) 
474.29813906399994

>  <MW>  (1241) 
474

>  <ID>  (1241) 
JP010099

>  <CONTRIBUTOR>  (1241) 
University of Tokyo Team, {Faculty of Engineering, University of Tokyo

>  <COMMENT>  (1241) 
SMILES=C(COC(C)=O)C(O1)(CCc(c3)c1c(c2c(CCCCCC)3)CCC(CCOC(C)=O)(O2)C)C
InChI=InChI=1S/C28H42O6/c1-6-7-8-9-10-22-19-23-11-13-27(4,15-17-31-20(2)29)34-26(23)24-12-14-28(5,33-25(22)24)16-18-32-21(3)30/h19H,6-18H2,1-5H3
computed SMILES=O=C(OCCC1(OC=2C(=CC(=C3OC(C)(CCOC(=O)C)CCC32)CCCCCC)CC1)C)C
accession=JP010099
date=2016.01.19 (Created 2008.10.21, modified 2011.05.06)
author=KURARAY CO., LTD.
license=CC BY-NC-SA
exact mass=474.29814
ionization energy=70 eV
ion type=[M]+*
computed spectral entropy=4.215158714253245
computed normalized entropy=0.8687412248018651
SPLASH=splash10-0103-6394600000-7cae41088b39c3793430
submitter=submitter = University of Tokyo Team (Faculty of Engineering, University of Tokyo)
MoNA Rating=3.75

>  <NUM PEAKS>  (1241) 
128

>  <MASS SPECTRAL PEAKS>  (1241) 
26 2.14
27 3.75
28 19.87
29 4.93
32 1.69
39 3.73
41 12.65
42 4.02
43 49.67
44 3.92
45 1.89
53 3.28
55 12.31
57 1.64
60 1.78
65 2.43
67 7.4
68 13.15
69 7.69
77 2.09
79 4.58
81 14.85
91 1.35
93 5.39
94 1.35
95 4.76
97 2.19
105 3.62
107 2.41
115 2
117 1.62
119 2.35
121 3.37
123 2.16
128 1.75
129 1.78
131 2.19
133 2.3
135 2.58
137 1.69
141 1.51
142 1.61
143 1.56
145 2.68
147 5.95
148 2.22
149 8.35
150 1.7
155 1.31
157 1.61
159 3.51
161 8.77
163 2.35
173 5.97
174 1.76
175 5.39
176 1.75
177 1.34
185 2.19
187 6.77
188 2.54
189 4.28
193 1.53
197 1.53
199 2.09
201 6.63
203 7.83
205 5.76
207 3.81
213 2.47
215 28.52
216 8.96
217 7.78
218 2.9
219 33.7
220 5.24
222 1.59
229 2.44
231 4.47
233 2
243 3.54
245 9.2
255 1.94
257 7.65
258 4.03
259 14.96
260 3.26
269 3.91
271 5.02
273 5.15
275 3.2
283 7.5
284 2.22
285 8.94
286 13.53
287 34.57
288 7.18
289 3.26
299 2.47
301 2.79
303 5.61
305 2.74
327 2.57
329 1.73
343 15.87
344 3.76
345 3.87
346 7.12
347 42.52
348 9.8
359 2.24
361 2.72
385 12.2
386 3.06
387 3.2
403 25.2
404 6.14
414 9.42
415 3.45
416 2.05
430 7.09
431 1.97
432 8.11
433 2.47
472 2.91
474 99.99
475 30.76
476 5.39

>  <PREDICTED SPECTRUM>  (1241) 
14 8
27 90
28 114
29 199
39 63
41 415
42 28
43 845
44 111
45 14
51 1
53 90
55 381
56 36
57 291
58 10
65 105
67 191
68 1
69 350
70 15
71 15
77 239
78 44
79 210
81 195
83 166
84 25
85 66
89 13
91 131
93 163
95 165
97 124
99 50
103 38
105 282
107 283
109 26
111 74
115 126
117 158
119 105
121 283
123 99
125 106
127 50
128 10
129 133
131 140
133 169
134 30
135 88
137 101
139 48
141 117
142 35
143 148
145 187
146 38
147 153
148 9
149 154
150 36
151 97
152 7
155 22
157 89
158 15
159 215
160 19
161 182
163 54
171 81
172 95
173 248
174 149
175 279
176 42
177 99
179 55
185 16
187 216
188 62
189 314
190 24
191 104
193 6
199 77
201 244
202 24
203 438
204 17
205 229
207 104
213 187
214 51
215 377
216 175
217 393
218 144
219 358
220 112
227 55
229 228
231 348
232 97
233 188
241 51
242 19
243 155
245 264
247 163
249 38
255 128
256 60
257 251
258 134
259 344
260 83
261 97
263 63
269 145
271 215
272 24
273 295
274 49
275 225
277 38
283 231
284 106
285 390
286 338
287 701
288 349
289 337
290 172
292 37
299 138
301 193
302 27
303 229
305 199
306 3
311 3
315 144
317 17
327 158
328 5
329 281
331 0
333 13
343 419
344 162
345 199
346 213
347 678
348 259
357 54
361 137
371 58
373 18
385 392
386 258
387 246
399 32
403 548
404 266
405 0
414 426
415 208
416 49
418 37
431 190
432 369
433 154
443 23
459 28
471 61
472 167
474 999
475 591
476 211

$$$$

     RDKit          2D

 34 35  0  0  0  0  0  0  0  0999 V2000
   15.2120   12.0923    0.0000 C   0  0  0  0  0  0  0  0  0  0  0  0
   15.6637    9.5338    0.0000 C   0  0  0  0  0  0  0  0  0  0  0  0
   11.6840    6.1929    0.0000 C   0  0  0  0  0  0  0  0  0  0  0  0
    7.7042    2.8520    0.0000 C   0  0  0  0  0  0  0  0  0  0  0  0
   -3.7389    1.4102    0.0000 C   0  0  0  0  0  0  0  0  0  0  0  0
   -1.1400    2.9100    0.0000 C   0  0  0  0  0  0  0  0  0  0  0  0
   -1.1400   -3.0900    0.0000 C   0  0  0  0  0  0  0  0  0  0  0  0
   -6.3370   -1.5906    0.0000 C   0  0  0  0  0  0  0  0  0  0  0  0
    4.2372    0.3997    0.0000 C   0  0  0  0  0  0  0  0  0  0  0  0
   12.7094    9.0122    0.0000 C   0  0  0  0  0  0  0  0  0  0  0  0
    8.7297    5.6713    0.0000 C   0  0  0  0  0  0  0  0  0  0  0  0
    4.7499    2.3304    0.0000 C   0  0  0  0  0  0  0  0  0  0  0  0
   13.2222   10.4218    0.0000 C   0  0  0  0  0  0  0  0  0  0  0  0
   11.2323    8.7514    0.0000 C   0  0  0  0  0  0  0  0  0  0  0  0
    9.2424    7.0810    0.0000 C   0  0  0  0  0  0  0  0  0  0  0  0
    7.2525    5.4105    0.0000 C   0  0  0  0  0  0  0  0  0  0  0  0
    5.2626    3.7401    0.0000 C   0  0  0  0  0  0  0  0  0  0  0  0
    1.4600   -1.5900    0.0000 C   0  0  0  0  0  0  0  0  0  0  0  0
    3.2727    2.0696    0.0000 C   0  0  0  0  0  0  0  0  0  0  0  0
    2.7600   -0.8400    0.0000 C   0  0  0  0  0  0  0  0  0  0  0  0
   14.6993   10.6826    0.0000 C   0  0  0  0  0  0  0  0  0  0  0  0
   10.7195    7.3417    0.0000 C   0  0  0  0  0  0  0  0  0  0  0  0
    6.7398    4.0009    0.0000 C   0  0  0  0  0  0  0  0  0  0  0  0
   -2.4400    0.6600    0.0000 C   0  0  0  0  0  0  0  0  0  0  0  0
   -1.1400    1.4100    0.0000 C   0  0  0  0  0  0  0  0  0  0  0  0
   -1.1400   -1.5900    0.0000 C   0  0  0  0  0  0  0  0  0  0  0  0
   -5.0381   -0.8404    0.0000 C   0  0  0  0  0  0  0  0  0  0  0  0
    0.1600   -0.8400    0.0000 C   0  0  0  0  0  0  0  0  0  0  0  0
   -2.4400   -0.8400    0.0000 C   0  0  0  0  0  0  0  0  0  0  0  0
    0.1600    0.6600    0.0000 C   0  0  0  0  0  0  0  0  0  0  0  0
    2.7600    0.6600    0.0000 C   0  0  0  0  0  0  0  0  0  0  0  0
   -5.0383    0.6596    0.0000 O   0  0  0  0  0  0  0  0  0  0  0  0
   -3.7389   -1.5902    0.0000 O   0  0  0  0  0  0  0  0  0  0  0  0
    1.4600    1.4100    0.0000 O   0  0  0  0  0  0  0  0  0  0  0  0
 13 10  1  0
 14 10  1  0
 15 11  1  0
 16 11  1  0
 17 12  1  0
 19 12  1  0
 20 18  1  0
 21  1  1  0
 21  2  1  0
 21 13  1  0
 22  3  1  0
 22 14  1  0
 22 15  1  0
 23  4  1  0
 23 16  1  0
 23 17  1  0
 24  5  1  0
 25  6  1  0
 25 24  1  0
 26  7  1  0
 27  8  1  0
 28 18  1  0
 28 26  2  0
 29 24  2  0
 29 26  1  0
 30 25  2  0
 30 28  1  0
 31  9  1  0
 31 19  1  0
 31 20  1  0
 32 27  2  0
 33 27  1  0
 33 29  1  0
 34 30  1  0
 34 31  1  0
M  END
>  <NAME>  (1242) 
6-ACETOXY-3,4-DIHYDRO-2,5,7,8-TETRAMETHYL-2-(4,8,12-TRIMETHYLTRIDECAN-1-YL)-2H-1-BENZOPYRANE

>  <SYNONYMS>  (1242) 


>  <SPECTRUM TYPE>  (1242) 
MS1

>  <INSTRUMENT TYPE>  (1242) 
EI-B

>  <INSTRUMENT>  (1242) 
JEOL JMS-D-300

>  <ION MODE>  (1242) 
P

>  <INCHIKEY>  (1242) 
ZAKOWWREFLAJOT-UHFFFAOYSA-N

>  <FORMULA>  (1242) 
C31H52O3

>  <EXACT MASS>  (1242) 
472.39164552399996

>  <MW>  (1242) 
472

>  <ID>  (1242) 
JP010098

>  <CONTRIBUTOR>  (1242) 
University of Tokyo Team, {Faculty of Engineering, University of Tokyo

>  <COMMENT>  (1242) 
SMILES=c(c21)(c(C)c(c(C)c1CCC(C)(O2)CCCC(C)CCCC(C)CCCC(C)C)OC(C)=O)C
InChI=InChI=1S/C31H52O3/c1-21(2)13-10-14-22(3)15-11-16-23(4)17-12-19-31(9)20-18-28-26(7)29(33-27(8)32)24(5)25(6)30(28)34-31/h21-23H,10-20H2,1-9H3
computed SMILES=O=C(OC=1C(=C(C=2OC(C)(CCC2C1C)CCCC(C)CCCC(C)CCCC(C)C)C)C)C
accession=JP010098
date=2016.01.19 (Created 2008.10.21, modified 2011.05.06)
author=KURARAY CO., LTD.
license=CC BY-NC-SA
exact mass=472.39165
ionization energy=70 eV
ion type=[M]+*
computed spectral entropy=3.321361879075216
computed normalized entropy=0.877694354771587
SPLASH=splash10-001i-7781900000-34720c5a64f531f3bbd6
submitter=submitter = University of Tokyo Team (Faculty of Engineering, University of Tokyo)
MoNA Rating=3.75

>  <NUM PEAKS>  (1242) 
44

>  <MASS SPECTRAL PEAKS>  (1242) 
29 2.31
40 2.6
41 9.79
43 22.29
44 16.18
55 9.43
56 7
57 9.43
67 6.53
69 8.34
71 8.25
81 5.51
83 4.82
85 6.12
91 6.15
95 6.09
97 6.41
121 6.36
135 6.33
136 6.39
149 6.11
164 28.19
165 65.43
166 8.89
177 6.22
189 6.22
203 15.98
204 7.78
205 10.45
207 20.65
208 6.12
245 46.15
246 10.15
247 7.49
279 5.24
281 7.29
283 7.05
323 14.69
325 14.59
430 99.99
431 34.53
432 5.95
472 12.66
473 7.19

>  <PREDICTED SPECTRUM>  (1242) 
27 7
29 56
41 167
42 56
43 246
44 16
53 34
55 191
56 34
57 209
58 62
65 33
67 109
69 147
70 33
71 132
73 38
77 53
79 81
80 17
81 117
82 41
83 97
84 25
85 66
86 20
91 33
92 23
93 70
94 30
95 108
96 44
97 111
99 15
103 46
104 21
105 50
106 29
107 80
108 38
109 107
110 78
111 73
115 85
119 76
120 32
121 115
122 88
123 97
124 19
125 19
130 36
131 64
133 10
134 56
135 103
136 104
137 185
138 139
139 50
141 28
142 96
143 61
144 26
145 30
146 49
147 65
148 100
149 165
150 93
151 609
152 110
153 17
154 53
159 100
160 76
161 91
162 78
163 123
164 345
165 286
166 164
167 8
170 9
173 53
174 37
175 113
176 95
177 63
178 77
187 8
188 36
189 124
190 92
191 104
192 48
193 66
201 46
202 12
203 115
204 84
205 226
206 154
207 428
208 143
217 85
218 38
219 30
220 43
233 55
234 1
247 104
248 50
430 999
431 524
432 245
433 31
472 258
473 127
474 23

$$$$

     RDKit          2D

 34 36  0  0  0  0  0  0  0  0999 V2000
   11.0723    8.8414    0.0000 C   0  0  0  0  0  0  0  0  0  0  0  0
   11.5240    6.2829    0.0000 C   0  0  0  0  0  0  0  0  0  0  0  0
   -3.8989    1.5002    0.0000 C   0  0  0  0  0  0  0  0  0  0  0  0
   -1.3000    3.0000    0.0000 C   0  0  0  0  0  0  0  0  0  0  0  0
   -1.3000   -3.0000    0.0000 C   0  0  0  0  0  0  0  0  0  0  0  0
    4.0772    0.4897    0.0000 C   0  0  0  0  0  0  0  0  0  0  0  0
   -7.7963   -3.7527    0.0000 C   0  0  0  0  0  0  0  0  0  0  0  0
   -6.4970   -3.0015    0.0000 C   0  0  0  0  0  0  0  0  0  0  0  0
    1.3000   -1.5000    0.0000 C   0  0  0  0  0  0  0  0  0  0  0  0
    2.6000   -0.7500    0.0000 C   0  0  0  0  0  0  0  0  0  0  0  0
    3.1127    2.1596    0.0000 C   0  0  0  0  0  0  0  0  0  0  0  0
   -9.0956   -3.0031    0.0000 C   0  0  0  0  0  0  0  0  0  0  0  0
    4.5899    2.4204    0.0000 C   0  0  0  0  0  0  0  0  0  0  0  0
    8.5697    5.7613    0.0000 C   0  0  0  0  0  0  0  0  0  0  0  0
   -7.7963   -0.7510    0.0000 C   0  0  0  0  0  0  0  0  0  0  0  0
    6.5798    4.0909    0.0000 C   0  0  0  0  0  0  0  0  0  0  0  0
   10.5595    7.4317    0.0000 C   0  0  0  0  0  0  0  0  0  0  0  0
   -2.6000    0.7500    0.0000 C   0  0  0  0  0  0  0  0  0  0  0  0
   -1.3000    1.5000    0.0000 C   0  0  0  0  0  0  0  0  0  0  0  0
   -1.3000   -1.5000    0.0000 C   0  0  0  0  0  0  0  0  0  0  0  0
    7.0925    5.5005    0.0000 C   0  0  0  0  0  0  0  0  0  0  0  0
   -6.4970   -1.5006    0.0000 C   0  0  0  0  0  0  0  0  0  0  0  0
    0.0000   -0.7500    0.0000 C   0  0  0  0  0  0  0  0  0  0  0  0
   -2.6000   -0.7500    0.0000 C   0  0  0  0  0  0  0  0  0  0  0  0
    0.0000    0.7500    0.0000 C   0  0  0  0  0  0  0  0  0  0  0  0
   -3.8989   -1.5002    0.0000 C   0  0  0  0  0  0  0  0  0  0  0  0
    2.6000    0.7500    0.0000 C   0  0  0  0  0  0  0  0  0  0  0  0
   -9.0956   -1.5023    0.0000 N   0  0  0  0  0  0  0  0  0  0  0  0
    9.0824    7.1710    0.0000 N   0  0  0  0  0  0  0  0  0  0  0  0
    6.1281    6.6494    0.0000 O   0  0  0  0  0  0  0  0  0  0  0  0
   -3.8987   -3.0002    0.0000 O   0  0  0  0  0  0  0  0  0  0  0  0
    5.1026    3.8301    0.0000 O   0  0  0  0  0  0  0  0  0  0  0  0
   -5.1981   -0.7504    0.0000 O   0  0  0  0  0  0  0  0  0  0  0  0
    1.3000    1.5000    0.0000 O   0  0  0  0  0  0  0  0  0  0  0  0
  8  7  2  0
 10  9  1  0
 12  7  1  0
 13 11  1  0
 17  1  1  0
 17  2  1  0
 18  3  1  0
 19  4  1  0
 19 18  1  0
 20  5  1  0
 21 14  1  0
 21 16  1  0
 22  8  1  0
 22 15  2  0
 23  9  1  0
 23 20  2  0
 24 18  2  0
 24 20  1  0
 25 19  2  0
 25 23  1  0
 26 24  1  0
 27  6  1  0
 27 10  1  0
 27 11  1  0
 28 12  2  0
 28 15  1  0
 29 14  1  0
 29 17  1  0
 30 21  1  0
 31 26  2  0
 32 13  1  0
 32 16  1  0
 33 22  1  0
 33 26  1  0
 34 25  1  0
 34 27  1  0
M  END
>  <NAME>  (1243) 
2-(3-(1-METHYLETHYLAMINO)-2-HYDROXYPROPYLOXYETHYL)-2,5,7,8-TETRAMETHYL-6-(3-PYRIDINECARBOXY)-3,4-DIHYDRO-2HBENZOPYRAN

>  <SYNONYMS>  (1243) 


>  <SPECTRUM TYPE>  (1243) 
MS1

>  <INSTRUMENT TYPE>  (1243) 
EI-B

>  <INSTRUMENT>  (1243) 
JEOL JMS-D-300

>  <ION MODE>  (1243) 
P

>  <INCHIKEY>  (1243) 
PSRVQJBDDHENFU-UHFFFAOYSA-N

>  <FORMULA>  (1243) 
C27H38N2O5

>  <EXACT MASS>  (1243) 
470.27807231599996

>  <MW>  (1243) 
470

>  <ID>  (1243) 
JP010097

>  <CONTRIBUTOR>  (1243) 
University of Tokyo Team, {Faculty of Engineering, University of Tokyo

>  <COMMENT>  (1243) 
SMILES=C(C1)C(Oc(c2C)c1c(c(C(=O)Oc(c3)cncc3)c2C)C)(C)CCOCC(O)CNC(C)C
InChI=InChI=1S/C27H38N2O5/c1-17(2)29-14-21(30)16-32-13-11-27(6)10-9-23-20(5)24(18(3)19(4)25(23)34-27)26(31)33-22-8-7-12-28-15-22/h7-8,12,15,17,21,29-30H,9-11,13-14,16H2,1-6H3
computed SMILES=O=C(OC=1C=NC=CC1)C=2C(=C(C=3OC(C)(CCOCC(O)CNC(C)C)CCC3C2C)C)C
accession=JP010097
date=2016.01.19 (Created 2008.10.21, modified 2011.05.06)
author=KURARAY CO., LTD.
license=CC BY-NC-SA
exact mass=470.27807
ionization energy=70 eV
ion type=[M]+*
computed spectral entropy=3.876688103078788
computed normalized entropy=0.8263484611242982
SPLASH=splash10-00di-4960300000-d6323853595c6e79b67b
submitter=submitter = University of Tokyo Team (Faculty of Engineering, University of Tokyo)
MoNA Rating=3.75

>  <NUM PEAKS>  (1243) 
109

>  <MASS SPECTRAL PEAKS>  (1243) 
27 1.82
28 4.88
29 1.42
30 13.95
39 1.16
41 9.09
42 2.04
43 12.38
44 2.16
51 3.49
53 1.68
55 4.07
56 6.61
57 2.49
58 7.74
67 1.59
69 6.42
70 2.6
72 40.48
73 1.64
74 1.42
77 1.59
78 21.14
79 10.9
80 1.78
81 4.39
84 1.68
91 2.42
93 3.35
98 9.44
100 7.54
105 2.16
106 96.32
108 16.12
114 2.45
116 3.22
119 1.64
121 5.85
122 2.39
123 2.39
124 5.58
130 1.82
135 5.54
136 5.41
137 2.56
138 1.59
144 13.23
145 1.76
149 2.49
151 1.51
152 1.53
161 2.14
162 4.5
163 2.78
164 42.98
165 34.17
166 4.01
173 1.37
174 1.81
175 3.3
176 2.91
177 17.4
178 3.3
179 8.1
180 1.92
184 2
187 1.76
188 2.09
189 8.81
190 4.17
191 2.31
197 1.98
203 16.47
204 8.59
205 8.6
207 9.14
214 2.04
215 2.08
216 1.49
217 5.27
219 1.97
221 30.5
222 4.5
231 27.76
232 60.78
233 15.31
234 1.76
237 2.45
239 22.29
240 3.51
250 3.3
251 2.99
270 4.59
289 1.98
292 2.17
307 13.53
308 3.59
310 1.53
337 6.86
338 2.3
354 2.91
355 1.67
364 1.43
398 2.44
452 2.25
455 2.25
470 99.99
471 31.95
472 6.02

>  <PREDICTED SPECTRUM>  (1243) 
27 15
39 12
40 11
41 244
42 74
43 418
44 156
45 103
46 15
51 34
52 50
53 52
55 49
56 82
57 112
58 175
65 16
67 26
68 0
69 171
70 116
72 823
73 321
74 11
77 93
78 255
79 281
80 76
81 131
82 66
83 97
84 32
85 38
86 7
91 69
93 73
94 64
95 7
98 156
99 111
100 155
104 83
105 69
106 800
107 148
108 305
109 78
110 21
114 56
119 23
120 61
121 190
122 160
123 15
124 111
125 30
127 40
131 71
133 107
134 110
135 106
136 294
137 91
138 86
140 29
143 15
144 179
145 116
146 42
147 91
148 113
149 70
150 61
151 129
152 64
154 8
159 43
160 35
161 133
162 148
163 258
164 595
165 733
166 188
168 30
172 7
173 40
174 43
175 215
176 258
177 620
178 254
179 172
180 78
184 89
185 114
186 23
187 124
188 87
189 267
190 198
191 182
192 113
193 88
194 6
199 5
201 128
202 87
203 357
204 235
205 344
206 208
207 244
208 9
215 22
216 63
217 233
218 172
219 153
220 100
221 824
222 401
229 46
230 102
231 550
232 569
233 416
234 284
235 159
236 42
237 36
238 130
239 512
247 128
248 110
249 163
250 115
262 18
264 20
266 22
278 56
291 8
292 74
306 129
307 227
308 140
320 21
354 81
364 23
398 37
452 220
455 101
470 999
471 548
472 184

$$$$

     RDKit          2D

 32 31  0  0  0  0  0  0  0  0999 V2000
    5.8457   10.1250    0.0000 C   0  0  0  0  0  0  0  0  0  0  0  0
    4.5466   12.3750    0.0000 C   0  0  0  0  0  0  0  0  0  0  0  0
   -0.6495   12.3750    0.0000 C   0  0  0  0  0  0  0  0  0  0  0  0
   -5.8457   12.3750    0.0000 C   0  0  0  0  0  0  0  0  0  0  0  0
  -17.5370   10.1250    0.0000 C   0  0  0  0  0  0  0  0  0  0  0  0
  -14.9389    8.6250    0.0000 C   0  0  0  0  0  0  0  0  0  0  0  0
  -12.4572   14.5827    0.0000 C   0  0  0  0  0  0  0  0  0  0  0  0
  -10.0776   12.0241    0.0000 C   0  0  0  0  0  0  0  0  0  0  0  0
    1.9486   10.8750    0.0000 C   0  0  0  0  0  0  0  0  0  0  0  0
   -3.2476   10.8750    0.0000 C   0  0  0  0  0  0  0  0  0  0  0  0
   -8.4437   10.8750    0.0000 C   0  0  0  0  0  0  0  0  0  0  0  0
    3.2476   10.1250    0.0000 C   0  0  0  0  0  0  0  0  0  0  0  0
    0.6495   10.1250    0.0000 C   0  0  0  0  0  0  0  0  0  0  0  0
   -1.9486   10.1250    0.0000 C   0  0  0  0  0  0  0  0  0  0  0  0
   -4.5466   10.1250    0.0000 C   0  0  0  0  0  0  0  0  0  0  0  0
   -7.1447   10.1250    0.0000 C   0  0  0  0  0  0  0  0  0  0  0  0
   -9.7428   10.1250    0.0000 C   0  0  0  0  0  0  0  0  0  0  0  0
  -13.6399   10.8750    0.0000 C   0  0  0  0  0  0  0  0  0  0  0  0
    4.5466   10.8750    0.0000 C   0  0  0  0  0  0  0  0  0  0  0  0
   -0.6495   10.8750    0.0000 C   0  0  0  0  0  0  0  0  0  0  0  0
   -5.8457   10.8750    0.0000 C   0  0  0  0  0  0  0  0  0  0  0  0
  -16.2380   10.8750    0.0000 C   0  0  0  0  0  0  0  0  0  0  0  0
  -13.6399    7.8750    0.0000 C   0  0  0  0  0  0  0  0  0  0  0  0
  -11.4930   13.4336    0.0000 C   0  0  0  0  0  0  0  0  0  0  0  0
  -12.3409   10.1250    0.0000 C   0  0  0  0  0  0  0  0  0  0  0  0
  -11.0418   10.8750    0.0000 C   0  0  0  0  0  0  0  0  0  0  0  0
  -16.2380   12.3750    0.0000 O   0  0  0  0  0  0  0  0  0  0  0  0
  -13.6399    6.3750    0.0000 O   0  0  0  0  0  0  0  0  0  0  0  0
  -10.0158   13.6941    0.0000 O   0  0  0  0  0  0  0  0  0  0  0  0
  -14.9389   10.1250    0.0000 O   0  0  0  0  0  0  0  0  0  0  0  0
  -12.3409    8.6250    0.0000 O   0  0  0  0  0  0  0  0  0  0  0  0
  -12.0060   12.0241    0.0000 O   0  0  0  0  0  0  0  0  0  0  0  0
 12  9  1  0
 13  9  1  0
 14 10  1  0
 15 10  1  0
 16 11  1  0
 17 11  1  0
 19  1  1  0
 19  2  1  0
 19 12  1  0
 20  3  1  0
 20 13  1  0
 20 14  1  0
 21  4  1  0
 21 15  1  0
 21 16  1  0
 22  5  1  0
 23  6  1  0
 24  7  1  0
 25 18  1  0
 26  8  1  0
 26 17  1  0
 26 25  1  0
 27 22  2  0
 28 23  2  0
 29 24  2  0
 30 18  1  0
 30 22  1  0
 31 23  1  0
 31 25  1  0
 32 24  1  0
 32 26  1  0
M  END
>  <NAME>  (1244) 
3,7,11,15-TETRAMETHYLHEXADECANE-1,2,3-TRIOL TRIACETATE

>  <SYNONYMS>  (1244) 


>  <SPECTRUM TYPE>  (1244) 
MS1

>  <INSTRUMENT TYPE>  (1244) 
EI-B

>  <INSTRUMENT>  (1244) 
JEOL JMS-D-300

>  <ION MODE>  (1244) 
P

>  <INCHIKEY>  (1244) 
CAXLGZQZIAMUFU-UHFFFAOYSA-N

>  <FORMULA>  (1244) 
C26H48O6

>  <EXACT MASS>  (1244) 
456.345089256

>  <MW>  (1244) 
456

>  <ID>  (1244) 
JP010096

>  <CONTRIBUTOR>  (1244) 
University of Tokyo Team, {Faculty of Engineering, University of Tokyo

>  <COMMENT>  (1244) 
SMILES=C(C(C)(CCCC(C)CCCC(C)CCCC(C)C)OC(C)=O)(COC(C)=O)OC(C)=O
InChI=InChI=1S/C26H48O6/c1-19(2)12-9-13-20(3)14-10-15-21(4)16-11-17-26(8,32-24(7)29)25(31-23(6)28)18-30-22(5)27/h19-21,25H,9-18H2,1-8H3
computed SMILES=O=C(OCC(OC(=O)C)C(OC(=O)C)(C)CCCC(C)CCCC(C)CCCC(C)C)C
accession=JP010096
date=2016.01.19 (Created 2008.10.21, modified 2011.05.06)
author=KURARAY CO., LTD.
license=CC BY-NC-SA
exact mass=456.34509
ionization energy=70 eV
ion type=[M]+*
computed spectral entropy=3.6101826550588716
computed normalized entropy=0.8387843996037856
SPLASH=splash10-052f-9200000000-203a1369a83e2071a85b
submitter=submitter = University of Tokyo Team (Faculty of Engineering, University of Tokyo)
MoNA Rating=3.75

>  <NUM PEAKS>  (1244) 
74

>  <MASS SPECTRAL PEAKS>  (1244) 
27 2.12
28 1.43
29 7.33
39 1.36
41 22.74
42 3.78
43 99.99
44 2.75
55 31.89
56 13.25
57 61.47
58 3.56
67 4.9
68 5.54
69 36.73
70 13.8
71 49.3
72 3.98
73 1.32
79 1.93
80 3.17
81 15.74
82 6.62
83 30.45
84 13.37
85 27.01
86 8.12
87 70.89
88 7.72
93 46.45
94 3.34
95 15.86
96 4.82
97 28.2
98 9.32
99 10.1
101 2.15
103 1.46
107 1.72
109 12.83
110 4.04
111 27.15
112 4.7
113 6.93
121 5.04
122 1.2
123 8.8
124 2.22
125 12.35
126 5.83
127 6.73
129 3.97
130 15.43
131 1.31
135 2.05
137 6
138 1.93
139 6.95
140 4.09
141 4.09
149 2.08
151 2.67
153 3.34
155 2.44
163 1.38
165 1.32
167 1.38
169 1.45
263 2.46
269 10.3
281 8.41
282 4.59
294 2.1
312 1.32

>  <PREDICTED SPECTRUM>  (1244) 
27 94
28 56
29 129
31 15
39 62
40 14
41 448
42 194
43 999
44 88
45 58
49 23
53 72
54 163
55 551
56 330
57 734
58 182
59 16
60 81
61 171
65 27
66 56
67 321
68 370
69 628
70 337
71 643
72 147
73 131
74 51
75 28
77 27
78 4
79 136
80 196
81 511
82 383
83 476
84 234
85 460
86 175
87 204
88 65
89 70
91 41
92 39
93 220
94 220
95 422
96 314
97 492
98 257
99 281
100 67
101 89
102 32
103 133
104 5
105 8
106 20
107 134
108 78
109 316
110 185
111 420
112 198
113 153
114 23
115 24
116 16
117 19
120 46
121 63
122 25
123 381
124 152
125 293
126 295
127 285
128 93
129 81
130 93
131 45
132 10
133 21
134 4
135 130
137 201
138 114
139 198
140 100
141 222
142 49
143 80
144 67
145 90
146 116
147 68
148 64
149 67
150 22
151 118
152 39
153 117
155 67
156 42
157 57
158 39
159 57
160 37
161 117
162 64
163 46
165 62
166 8
167 77
168 48
169 44
170 13
171 33
172 13
173 38
174 39
175 41
176 40
177 37
178 10
179 21
180 55
181 19
182 32
183 47
184 36
185 2
186 9
187 27
188 4
189 18
190 25
195 11
196 7
205 59
209 55
210 37
211 90
215 45
217 7
223 16
224 15
225 27
231 50
234 6
237 55
238 9
239 62
241 10
251 22
261 54
263 26
268 47
269 138
270 59
276 55
279 33
280 42
281 178
282 42
296 3
305 11
311 26
312 112
354 48
438 9

$$$$

     RDKit          2D

 32 31  0  0  0  0  0  0  0  0999 V2000
  -18.1865   11.2500    0.0000 C   0  0  0  0  0  0  0  0  0  0  0  0
  -19.4856   13.5000    0.0000 C   0  0  0  0  0  0  0  0  0  0  0  0
    7.7942   17.2500    0.0000 C   0  0  0  0  0  0  0  0  0  0  0  0
    6.4952   19.5000    0.0000 C   0  0  0  0  0  0  0  0  0  0  0  0
  -16.8875   18.0000    0.0000 C   0  0  0  0  0  0  0  0  0  0  0  0
    1.2990   19.5000    0.0000 C   0  0  0  0  0  0  0  0  0  0  0  0
  -11.3565   16.1009    0.0000 C   0  0  0  0  0  0  0  0  0  0  0  0
   -2.9329   19.1491    0.0000 C   0  0  0  0  0  0  0  0  0  0  0  0
   -7.7942   17.2500    0.0000 C   0  0  0  0  0  0  0  0  0  0  0  0
   -6.4952   18.0000    0.0000 C   0  0  0  0  0  0  0  0  0  0  0  0
  -16.8875   15.0000    0.0000 C   0  0  0  0  0  0  0  0  0  0  0  0
    3.8971   18.0000    0.0000 C   0  0  0  0  0  0  0  0  0  0  0  0
  -12.9904   17.2500    0.0000 C   0  0  0  0  0  0  0  0  0  0  0  0
   -1.2990   18.0000    0.0000 C   0  0  0  0  0  0  0  0  0  0  0  0
  -16.8875   13.5000    0.0000 C   0  0  0  0  0  0  0  0  0  0  0  0
    5.1962   17.2500    0.0000 C   0  0  0  0  0  0  0  0  0  0  0  0
  -15.5885   15.7500    0.0000 C   0  0  0  0  0  0  0  0  0  0  0  0
    2.5981   17.2500    0.0000 C   0  0  0  0  0  0  0  0  0  0  0  0
  -14.2894   18.0000    0.0000 C   0  0  0  0  0  0  0  0  0  0  0  0
    0.0000   17.2500    0.0000 C   0  0  0  0  0  0  0  0  0  0  0  0
   -9.0933   18.0000    0.0000 C   0  0  0  0  0  0  0  0  0  0  0  0
   -5.1962   17.2500    0.0000 C   0  0  0  0  0  0  0  0  0  0  0  0
  -11.6913   18.0000    0.0000 C   0  0  0  0  0  0  0  0  0  0  0  0
   -2.5981   17.2500    0.0000 C   0  0  0  0  0  0  0  0  0  0  0  0
  -18.1865   12.7500    0.0000 C   0  0  0  0  0  0  0  0  0  0  0  0
    6.4952   18.0000    0.0000 C   0  0  0  0  0  0  0  0  0  0  0  0
  -15.5885   17.2500    0.0000 C   0  0  0  0  0  0  0  0  0  0  0  0
    1.2990   18.0000    0.0000 C   0  0  0  0  0  0  0  0  0  0  0  0
  -10.3923   17.2500    0.0000 C   0  0  0  0  0  0  0  0  0  0  0  0
   -3.8971   18.0000    0.0000 C   0  0  0  0  0  0  0  0  0  0  0  0
   -9.4281   16.1009    0.0000 O   0  0  0  0  0  0  0  0  0  0  0  0
   -4.8613   19.1491    0.0000 O   0  0  0  0  0  0  0  0  0  0  0  0
 10  9  1  0
 15 11  1  0
 16 12  1  0
 17 11  1  0
 18 12  1  0
 19 13  1  0
 20 14  1  0
 21  9  1  0
 22 10  1  0
 23 13  1  0
 24 14  1  0
 25  1  1  0
 25  2  1  0
 25 15  2  0
 26  3  1  0
 26  4  1  0
 26 16  2  0
 27  5  1  0
 27 17  1  0
 19 27  2  0
 28  6  1  0
 28 18  1  0
 20 28  2  0
 29  7  1  0
 29 21  1  0
 29 23  1  0
 30  8  1  0
 30 22  1  0
 30 24  1  0
 31 29  1  0
 32 30  1  0
M  END
>  <NAME>  (1245) 
2,6,10,15,19,23-PENTAMETHYL-2,6,18,22-TETRACOSATETRAEN-10,15-DIOL

>  <SYNONYMS>  (1245) 


>  <SPECTRUM TYPE>  (1245) 
MS1

>  <INSTRUMENT TYPE>  (1245) 
EI-B

>  <INSTRUMENT>  (1245) 
JEOL JMS-D-300

>  <ION MODE>  (1245) 
P

>  <INCHIKEY>  (1245) 
UJLSKUQXMLFRSK-RIRMOVKSSA-N

>  <FORMULA>  (1245) 
C30H54O2

>  <EXACT MASS>  (1245) 
446.412380968

>  <MW>  (1245) 
446

>  <ID>  (1245) 
JP010095

>  <CONTRIBUTOR>  (1245) 
University of Tokyo Team, {Faculty of Engineering, University of Tokyo

>  <COMMENT>  (1245) 
SMILES=C(C)(O)(CCC=C(C)CCC=C(C)C)CCCCC(C)(O)CCC=C(C)CCC=C(C)C
InChI=InChI=1S/C30H54O2/c1-25(2)15-11-17-27(5)19-13-23-29(7,31)21-9-10-22-30(8,32)24-14-20-28(6)18-12-16-26(3)4/h15-16,19-20,31-32H,9-14,17-18,21-24H2,1-8H3/b27-19-,28-20+
computed SMILES=OC(C)(CCC=C(C)CCC=C(C)C)CCCCC(O)(C)CCC=C(C)CCC=C(C)C
accession=JP010095
date=2016.01.19 (Created 2008.10.21, modified 2011.05.06)
author=KURARAY CO., LTD.
license=CC BY-NC-SA
exact mass=446.41238
ionization energy=70 eV
ion type=[M]+*
computed spectral entropy=3.3354919426384253
computed normalized entropy=0.8361758040900905
SPLASH=splash10-0159-9400000000-9a0030372ba943705e1f
submitter=submitter = University of Tokyo Team (Faculty of Engineering, University of Tokyo)
MoNA Rating=3.75

>  <NUM PEAKS>  (1245) 
54

>  <MASS SPECTRAL PEAKS>  (1245) 
41 30.82
43 6.74
53 4.19
55 12.53
57 4.23
67 9.59
68 5.34
69 99.99
70 6.27
77 2.41
79 7.08
80 3.95
81 67.92
82 6.99
83 6.94
91 4.86
93 15.05
94 6.8
95 24.23
96 3.25
97 3.25
105 5.65
107 13.49
108 4.98
109 17.84
110 2.65
111 2.54
119 5.19
120 2.42
121 13.38
122 5.95
123 14.07
133 4.3
134 4.11
135 10.5
136 7.16
137 17.08
147 5.1
148 2.71
149 9.26
150 3.13
161 3.92
163 3.37
175 4.42
177 6.36
189 2.46
191 2.94
203 2.84
217 1.6
231 2.77
273 1.17
342 2.13
411 4.59
412 1.15

>  <PREDICTED SPECTRUM>  (1245) 
27 106
28 44
29 138
31 86
39 30
41 463
42 32
43 287
44 5
45 53
50 3
51 31
53 115
55 336
56 19
57 149
59 24
66 50
67 321
68 306
69 999
70 250
71 260
77 82
79 209
80 182
81 741
82 288
83 215
84 22
86 1
87 25
91 182
92 135
93 398
94 157
95 493
96 38
97 115
98 21
99 0
100 27
101 13
105 172
106 97
107 396
108 175
109 625
110 179
111 85
112 75
113 14
115 23
117 15
119 286
120 43
121 297
122 229
123 423
124 21
125 91
126 35
127 176
128 17
129 34
131 28
132 22
133 206
134 129
135 442
136 240
137 269
139 36
140 33
142 35
145 78
146 21
147 224
148 109
149 297
150 19
153 62
155 1
161 196
162 46
163 95
164 16
165 28
175 151
176 29
177 270
178 16
179 17
181 19
182 46
183 72
184 48
185 52
187 6
189 130
191 29
195 26
196 11
197 12
199 8
201 43
203 198
204 127
205 125
209 18
213 29
215 12
217 65
219 18
227 18
229 10
231 69
232 9
260 1
271 45
273 40
275 19
278 32
285 17
299 46
300 33
317 89
318 1
341 48
342 2
345 38
346 26
359 26
360 25
363 13
397 13
409 32
410 28
411 81
412 16
413 15
448 15

$$$$

     RDKit          2D

 34 34  0  0  0  0  0  0  0  0999 V2000
   -3.8978    0.1988    0.0000 C   0  0  0  0  0  0  0  0  0  0  0  0
   -2.5984   -2.0510    0.0000 C   0  0  0  0  0  0  0  0  0  0  0  0
    2.5977   -2.0502    0.0000 C   0  0  0  0  0  0  0  0  0  0  0  0
    9.0925    0.2009    0.0000 C   0  0  0  0  0  0  0  0  0  0  0  0
    3.8957    4.7000    0.0000 C   0  0  0  0  0  0  0  0  0  0  0  0
   15.5888    6.9515    0.0000 C   0  0  0  0  0  0  0  0  0  0  0  0
   16.3390    5.6526    0.0000 H   0  0  0  0  0  0  0  0  0  0  0  0
   16.8877    7.7017    0.0000 H   0  0  0  0  0  0  0  0  0  0  0  0
   14.8386    8.2504    0.0000 H   0  0  0  0  0  0  0  0  0  0  0  0
   -0.0006   -0.5506    0.0000 C   0  0  0  0  0  0  0  0  0  0  0  0
    7.7929    3.9507    0.0000 C   0  0  0  0  0  0  0  0  0  0  0  0
   -1.2998    0.1992    0.0000 C   0  0  0  0  0  0  0  0  0  0  0  0
    1.2983    0.1996    0.0000 C   0  0  0  0  0  0  0  0  0  0  0  0
    6.4937    4.7005    0.0000 C   0  0  0  0  0  0  0  0  0  0  0  0
    9.0918    4.7009    0.0000 C   0  0  0  0  0  0  0  0  0  0  0  0
    3.8964    0.2000    0.0000 C   0  0  0  0  0  0  0  0  0  0  0  0
    6.4945    0.2005    0.0000 C   0  0  0  0  0  0  0  0  0  0  0  0
    3.8962    1.7000    0.0000 C   0  0  0  0  0  0  0  0  0  0  0  0
    6.4942    1.7005    0.0000 C   0  0  0  0  0  0  0  0  0  0  0  0
   14.2899    4.7013    0.0000 C   0  0  0  0  0  0  0  0  0  0  0  0
   12.9899    6.9513    0.0000 C   0  0  0  0  0  0  0  0  0  0  0  0
   12.9899    3.9513    0.0000 C   0  0  0  0  0  0  0  0  0  0  0  0
   11.6899    6.2013    0.0000 C   0  0  0  0  0  0  0  0  0  0  0  0
    7.7939   -2.0493    0.0000 C   0  0  0  0  0  0  0  0  0  0  0  0
   -2.5987   -0.5510    0.0000 C   0  0  0  0  0  0  0  0  0  0  0  0
    2.5975   -0.5502    0.0000 C   0  0  0  0  0  0  0  0  0  0  0  0
    7.7936   -0.5493    0.0000 C   0  0  0  0  0  0  0  0  0  0  0  0
    5.1948    3.9502    0.0000 C   0  0  0  0  0  0  0  0  0  0  0  0
    5.1951    2.4502    0.0000 C   0  0  0  0  0  0  0  0  0  0  0  0
   10.3910    3.9511    0.0000 C   0  0  0  0  0  0  0  0  0  0  0  0
   14.2899    6.2013    0.0000 N   0  0  0  0  0  0  0  0  0  0  0  0
   11.6899    4.7013    0.0000 N   0  0  0  0  0  0  0  0  0  0  0  0
    9.0930   -2.7991    0.0000 O   0  0  0  0  0  0  0  0  0  0  0  0
   10.3912    2.4511    0.0000 O   0  0  0  0  0  0  0  0  0  0  0  0
  6  7  1  0
  6  8  1  0
  6  9  1  0
 12 10  1  0
 13 10  1  0
 14 11  1  0
 15 11  1  0
 18 16  1  0
 19 17  1  0
 22 20  1  0
 23 21  1  0
 25  1  1  0
 25  2  1  0
 25 12  2  0
 26  3  1  0
 26 13  1  0
 16 26  2  0
 27  4  1  0
 27 17  1  0
 27 24  1  0
 28  5  1  0
 14 28  2  0
 29 18  1  0
 29 19  1  0
 29 28  1  0
 30 15  1  0
 31  6  1  0
 31 20  1  0
 31 21  1  0
 32 22  1  0
 32 23  1  0
 32 30  1  0
 33 24  1  0
 34 30  2  0
M  ISO  3   7   2   8   2   9   2
M  END
>  <NAME>  (1246) 
1-TRIDEUTERIOMETHYL-4(6-(3,7-DIMETHYL-2,6-OCTADIENYL-10-HYDROXY-5,9-DIMETHYL-1-OXO-DECA-4-EN-1-YL)-PIPERADINE

>  <SYNONYMS>  (1246) 


>  <SPECTRUM TYPE>  (1246) 
MS1

>  <INSTRUMENT TYPE>  (1246) 
EI-B

>  <INSTRUMENT>  (1246) 
JEOL JMS-D-300

>  <ION MODE>  (1246) 
P

>  <INCHIKEY>  (1246) 
GTWPATCKPNRMQH-PUXXHZLSSA-N

>  <FORMULA>  (1246) 
C27H48N2O2

>  <EXACT MASS>  (1246) 
435.390409014

>  <MW>  (1246) 
435

>  <ID>  (1246) 
JP010094

>  <CONTRIBUTOR>  (1246) 
University of Tokyo Team, {Faculty of Engineering, University of Tokyo

>  <COMMENT>  (1246) 
SMILES=OCC(C)CCC(CC=C(C)CCC=C(C)C)C(C)=CCCC(=O)N(C1)CCN(C1)C([2H])([2H])[2H]
InChI=InChI=1S/C27H48N2O2/c1-22(2)9-7-10-23(3)13-15-26(16-14-24(4)21-30)25(5)11-8-12-27(31)29-19-17-28(6)18-20-29/h9,11,13,24,26,30H,7-8,10,12,14-21H2,1-6H3/b23-13-,25-11-/i6D3
computed SMILES=[H]C([H])([H])N1CCN(C(=O)CCC=C(C)C(CC=C(C)CCC=C(C)C)CCC(C)CO)CC1
accession=JP010094
date=2016.01.19 (Created 2008.10.21, modified 2011.05.06)
author=KURARAY CO., LTD.
license=CC BY-NC-SA
exact mass=432.37158
ionization energy=70 eV
ion type=[M]+*
computed spectral entropy=3.5261072543171292
computed normalized entropy=0.9262988940555856
SPLASH=splash10-0udi-9521100000-d2911f01d260b9dcf280
submitter=submitter = University of Tokyo Team (Faculty of Engineering, University of Tokyo)
MoNA Rating=3.75

>  <NUM PEAKS>  (1246) 
45

>  <MASS SPECTRAL PEAKS>  (1246) 
29 2.13
32 5.82
41 28.41
43 16.6
45 14.56
46 11.99
47 17.64
55 16.35
56 21.52
57 15.17
60 29.1
61 39.71
67 13.42
69 47.67
72 12.68
73 40.6
74 12.13
81 17.6
85 23.25
93 12.27
95 10.82
96 5.06
100 16.12
101 52.64
102 35.15
103 12.89
104 99.99
105 12.26
130 23.06
145 11.73
147 7.56
212 49.27
213 18.48
214 9.92
282 4.61
298 37.01
299 10.82
341 7.82
355 5.06
366 31.9
367 10.83
429 4.36
433 8.26
435 37.81
436 14.14

>  <PREDICTED SPECTRUM>  (1246) 
15 31
16 0
17 20
18 56
25 18
26 88
27 250
28 174
29 322
30 193
31 166
32 42
33 0
36 3
37 6
38 27
39 219
40 115
41 640
42 379
43 489
44 319
45 209
46 22
47 43
48 9
49 30
50 42
51 79
52 24
53 173
54 181
55 447
56 433
57 613
58 427
59 165
60 117
61 36
62 26
63 6
64 15
65 110
66 121
67 373
68 354
69 999
70 555
71 475
72 298
73 117
74 37
75 57
77 134
78 36
79 194
80 244
81 495
82 263
83 353
84 139
85 383
86 182
87 152
88 117
89 118
91 188
92 83
93 362
94 155
95 487
96 332
97 318
98 281
99 463
100 288
101 390
102 118
103 99
104 106
105 95
106 96
107 253
108 231
109 440
110 232
111 251
112 141
113 127
114 142
115 113
116 67
117 74
118 69
119 300
120 72
121 230
122 131
123 91
124 61
125 84
126 116
127 304
128 145
129 89
130 86
131 81
132 52
133 67
134 140
135 308
136 129
137 153
138 20
139 76
140 42
141 172
142 268
143 79
144 46
145 72
146 69
147 99
148 94
149 120
150 102
151 78
152 94
153 28
154 83
155 248
156 162
157 98
158 69
159 104
160 75
161 62
162 35
163 17
164 84
165 59
166 208
167 115
168 73
169 63
170 126
171 79
172 113
173 125
174 120
175 42
176 51
177 24
178 73
179 12
180 128
181 35
182 92
183 68
184 64
185 39
186 68
187 30
188 11
191 7
193 13
194 55
195 84
196 28
197 11
198 64
199 40
200 45
201 28
204 25
205 23
208 66
209 463
210 205
211 91
212 95
213 93
214 90
215 49
216 138
217 56
221 33
222 48
223 95
224 40
226 83
227 43
228 28
229 38
230 57
231 72
232 38
233 18
234 5
239 28
240 16
241 34
242 95
243 22
244 1
248 0
249 5
250 28
251 7
252 25
255 0
257 19
263 118
264 17
265 48
266 115
267 7
270 12
276 41
277 242
278 85
279 7
280 15
281 3
282 42
283 53
284 15
285 47
290 7
293 20
298 313
299 209
300 17
308 15
310 24
322 5
324 6
325 39
326 51
335 18
336 44
337 18
338 28
340 24
341 30
346 45
348 76
349 50
350 11
351 89
352 26
353 220
354 7
360 5
362 2
364 20
365 10
366 290
367 99
368 21
374 2
376 22
378 3
402 38
415 23
417 51
418 6
428 69
430 1
433 104
434 161
435 242
436 38
437 25
438 0

$$$$

     RDKit          2D

 31 31  0  0  0  0  0  0  0  0999 V2000
   -3.5738    8.0627    0.0000 C   0  0  0  0  0  0  0  0  0  0  0  0
   -2.2751   10.3129    0.0000 C   0  0  0  0  0  0  0  0  0  0  0  0
    2.9210   10.3137    0.0000 C   0  0  0  0  0  0  0  0  0  0  0  0
    6.8192    3.5643    0.0000 C   0  0  0  0  0  0  0  0  0  0  0  0
    8.1172   10.3145    0.0000 C   0  0  0  0  0  0  0  0  0  0  0  0
   15.9135    1.3137    0.0000 C   0  0  0  0  0  0  0  0  0  0  0  0
    0.3232    8.8133    0.0000 C   0  0  0  0  0  0  0  0  0  0  0  0
    9.4168    6.5647    0.0000 C   0  0  0  0  0  0  0  0  0  0  0  0
   -0.9758    8.0631    0.0000 C   0  0  0  0  0  0  0  0  0  0  0  0
    1.6223    8.0635    0.0000 C   0  0  0  0  0  0  0  0  0  0  0  0
    9.4166    8.0647    0.0000 C   0  0  0  0  0  0  0  0  0  0  0  0
   10.7160    5.8149    0.0000 C   0  0  0  0  0  0  0  0  0  0  0  0
    4.2204    8.0639    0.0000 C   0  0  0  0  0  0  0  0  0  0  0  0
    5.5198    5.8141    0.0000 C   0  0  0  0  0  0  0  0  0  0  0  0
    5.5193    8.8141    0.0000 C   0  0  0  0  0  0  0  0  0  0  0  0
    6.8187    6.5643    0.0000 C   0  0  0  0  0  0  0  0  0  0  0  0
   13.3154    1.3135    0.0000 C   0  0  0  0  0  0  0  0  0  0  0  0
   14.6139    3.5643    0.0000 C   0  0  0  0  0  0  0  0  0  0  0  0
   12.0158    2.0643    0.0000 C   0  0  0  0  0  0  0  0  0  0  0  0
   13.3144    4.3152    0.0000 C   0  0  0  0  0  0  0  0  0  0  0  0
    4.2211    3.5639    0.0000 C   0  0  0  0  0  0  0  0  0  0  0  0
   -2.2749    8.8129    0.0000 C   0  0  0  0  0  0  0  0  0  0  0  0
    2.9212    8.8137    0.0000 C   0  0  0  0  0  0  0  0  0  0  0  0
    5.5200    4.3141    0.0000 C   0  0  0  0  0  0  0  0  0  0  0  0
    8.1174    8.8145    0.0000 C   0  0  0  0  0  0  0  0  0  0  0  0
    6.8185    8.0643    0.0000 C   0  0  0  0  0  0  0  0  0  0  0  0
   10.7162    4.3149    0.0000 C   0  0  0  0  0  0  0  0  0  0  0  0
   14.6144    2.0635    0.0000 N   0  0  0  0  0  0  0  0  0  0  0  0
   12.0154    3.5652    0.0000 N   0  0  0  0  0  0  0  0  0  0  0  0
    4.2214    2.0639    0.0000 O   0  0  0  0  0  0  0  0  0  0  0  0
    9.4173    3.5647    0.0000 O   0  0  0  0  0  0  0  0  0  0  0  0
  9  7  1  0
 10  7  1  0
 11  8  1  0
 12  8  1  0
 15 13  1  0
 16 14  1  0
 19 17  1  0
 20 18  1  0
 22  1  1  0
 22  2  1  0
 22  9  2  0
 23  3  1  0
 23 10  1  0
 13 23  2  0
 24  4  1  0
 24 14  1  0
 24 21  1  0
 25  5  1  0
 11 25  2  0
 26 15  1  0
 26 16  1  0
 26 25  1  0
 27 12  1  0
 28  6  1  0
 28 17  1  0
 28 18  1  0
 29 19  1  0
 29 20  1  0
 29 27  1  0
 30 21  1  0
 31 27  2  0
M  END
>  <NAME>  (1247) 
1-METHYL-4-(6-(3,7-DIMETHYL-2,6-OCTADIENYL)-10-HYDROXY-5,9-DIMETHYL-1-OXO-DECA-4-EN-1-YL)-PIPERADINE

>  <SYNONYMS>  (1247) 
1-METHYL-4-(6-(4-HYDROXY-3-METHYLBUTYL)-5,9,13-TRIMETHYL-1-OXO-TETRADECA-4,8,12-TRIEN-1-YL)-PIPERADINE

>  <SPECTRUM TYPE>  (1247) 
MS1

>  <INSTRUMENT TYPE>  (1247) 
EI-B

>  <INSTRUMENT>  (1247) 
JEOL JMS-D-300

>  <ION MODE>  (1247) 
P

>  <INCHIKEY>  (1247) 
GTWPATCKPNRMQH-LDKJWMHBSA-N

>  <FORMULA>  (1247) 
C27H48N2O2

>  <EXACT MASS>  (1247) 
432.371578776

>  <MW>  (1247) 
432

>  <ID>  (1247) 
JP010092

>  <CONTRIBUTOR>  (1247) 
University of Tokyo Team, {Faculty of Engineering, University of Tokyo

>  <COMMENT>  (1247) 
SMILES=OCC(C)CCC(CC=C(C)CCC=C(C)C)C(C)=CCCC(=O)N(C1)CCN(C)C1
InChI=InChI=1S/C27H48N2O2/c1-22(2)9-7-10-23(3)13-15-26(16-14-24(4)21-30)25(5)11-8-12-27(31)29-19-17-28(6)18-20-29/h9,11,13,24,26,30H,7-8,10,12,14-21H2,1-6H3/b23-13+,25-11-
computed SMILES=O=C(N1CCN(C)CC1)CCC=C(C)C(CC=C(C)CCC=C(C)C)CCC(C)CO
accession=JP010092
date=2016.01.19 (Created 2008.10.21, modified 2011.05.06)
author=KURARAY CO., LTD.
license=CC BY-NC-SA
exact mass=432.37158
ionization energy=70 eV
ion type=[M]+*
computed spectral entropy=3.843860181275266
computed normalized entropy=0.8521347596222033
SPLASH=splash10-0pba-9320100000-e7650e6098a9b52a4909
submitter=submitter = University of Tokyo Team (Faculty of Engineering, University of Tokyo)
MoNA Rating=3.75

>  <NUM PEAKS>  (1247) 
91

>  <MASS SPECTRAL PEAKS>  (1247) 
27 4.68
29 3.44
30 3.13
31 3.22
39 3.96
41 29.37
42 9.98
43 19.39
44 19.39
53 3.38
55 16.11
56 26.12
57 43.58
58 53.37
59 3.93
67 11.02
68 4.97
69 49
70 66.31
71 11.33
72 7.48
77 4.89
79 6.1
80 4.65
81 20.18
82 3.24
83 21.7
84 3.83
85 8.08
91 3.74
93 8.14
94 3.14
95 7.26
96 1.54
97 11.99
98 66.82
99 48.12
100 11.6
101 99.99
102 5.7
105 2.2
107 3.96
109 5.14
110 2.44
111 4.9
112 3.43
119 4.4
121 3.06
122 2.36
123 4.12
127 16.45
128 2.47
135 3.24
136 2.88
140 4.12
141 3.33
142 10.28
143 2.4
149 5.14
152 4.38
153 2.89
155 9.89
166 8.19
167 2.75
169 2.12
209 63.63
210 18.43
211 6.29
222 3.28
223 4.23
224 4.1
252 2.31
263 1.93
277 11.76
278 3.14
295 19.55
296 5.74
297 2.29
341 1.7
345 2.81
351 2.48
353 41.4
364 10.48
365 1.96
402 1.62
428 1.54
430 5.83
431 2.14
432 51.86
433 16.12
434 3.58

>  <PREDICTED SPECTRUM>  (1247) 
15 30
16 0
17 26
18 71
25 2
26 58
27 207
28 166
29 257
30 205
31 136
32 44
39 185
40 58
41 663
42 490
43 570
44 465
45 185
46 41
47 56
49 63
50 37
51 119
52 23
53 199
54 169
55 499
56 633
57 755
58 820
59 211
60 100
61 23
62 41
65 106
66 102
67 347
68 282
69 935
70 978
71 569
72 173
73 76
74 32
75 42
76 34
77 236
78 58
79 164
80 182
81 474
82 249
83 574
84 143
85 199
86 201
87 70
88 24
91 140
92 71
93 246
94 156
95 425
96 283
97 358
98 837
99 938
100 381
101 859
102 172
103 79
104 4
105 70
106 13
107 148
108 61
109 321
110 88
111 166
112 58
113 75
114 41
115 45
116 29
117 4
118 16
119 148
120 18
121 142
122 33
123 45
124 45
125 93
126 58
127 444
128 72
129 42
131 69
132 30
133 31
134 50
135 196
136 49
138 65
139 71
140 106
141 145
142 412
143 77
144 13
145 80
147 79
149 85
151 12
152 37
153 155
154 118
155 419
156 65
157 52
159 36
161 22
165 74
166 424
167 156
168 41
169 84
170 87
171 64
173 44
175 65
179 7
180 35
181 67
183 39
192 12
197 5
209 999
210 524
211 392
213 46
215 9
222 47
223 145
224 247
229 26
239 22
246 24
247 20
252 159
263 222
264 1
265 41
266 58
277 431
278 144
279 112
280 78
295 478
296 284
325 3
333 49
335 27
337 63
345 37
346 2
350 42
351 128
352 61
353 530
357 2
364 263
373 22
375 66
376 84
401 45
402 76
412 2
413 16
415 22
417 24
428 176
430 211
431 150
432 686
433 316
434 131

$$$$

     RDKit          2D

 31 33  0  0  0  0  0  0  0  0999 V2000
    5.6560   -8.3006    0.0000 C   0  0  0  0  0  0  0  0  0  0  0  0
   -9.7898    1.4674    0.0000 C   0  0  0  0  0  0  0  0  0  0  0  0
    4.5372    1.9397    0.0000 C   0  0  0  0  0  0  0  0  0  0  0  0
   -3.9427    1.3596    0.0000 C   0  0  0  0  0  0  0  0  0  0  0  0
    5.6563   -6.8006    0.0000 C   0  0  0  0  0  0  0  0  0  0  0  0
    4.3574   -6.0504    0.0000 C   0  0  0  0  0  0  0  0  0  0  0  0
    4.3576   -4.5504    0.0000 C   0  0  0  0  0  0  0  0  0  0  0  0
    3.0587   -3.8002    0.0000 C   0  0  0  0  0  0  0  0  0  0  0  0
    3.0589   -2.3002    0.0000 C   0  0  0  0  0  0  0  0  0  0  0  0
   -2.1300   -2.3000    0.0000 C   0  0  0  0  0  0  0  0  0  0  0  0
    0.4600    2.2000    0.0000 C   0  0  0  0  0  0  0  0  0  0  0  0
   -3.4300   -1.5500    0.0000 C   0  0  0  0  0  0  0  0  0  0  0  0
    1.7600    2.9500    0.0000 C   0  0  0  0  0  0  0  0  0  0  0  0
    3.5727    3.6096    0.0000 C   0  0  0  0  0  0  0  0  0  0  0  0
   -4.9072   -0.3103    0.0000 C   0  0  0  0  0  0  0  0  0  0  0  0
    5.0499    3.8704    0.0000 C   0  0  0  0  0  0  0  0  0  0  0  0
   -5.8713    0.8389    0.0000 C   0  0  0  0  0  0  0  0  0  0  0  0
    0.4600   -2.3000    0.0000 C   0  0  0  0  0  0  0  0  0  0  0  0
   -8.3126    1.7277    0.0000 C   0  0  0  0  0  0  0  0  0  0  0  0
    1.7600   -1.5500    0.0000 C   0  0  0  0  0  0  0  0  0  0  0  0
   -0.8300   -1.5500    0.0000 C   0  0  0  0  0  0  0  0  0  0  0  0
    0.4600    0.7000    0.0000 C   0  0  0  0  0  0  0  0  0  0  0  0
    1.7600   -0.0500    0.0000 C   0  0  0  0  0  0  0  0  0  0  0  0
   -0.8300   -0.0500    0.0000 C   0  0  0  0  0  0  0  0  0  0  0  0
    3.0600    2.2000    0.0000 C   0  0  0  0  0  0  0  0  0  0  0  0
   -3.4300   -0.0500    0.0000 C   0  0  0  0  0  0  0  0  0  0  0  0
    5.5626    5.2801    0.0000 O   0  0  0  0  0  0  0  0  0  0  0  0
   -7.7994    3.1372    0.0000 O   0  0  0  0  0  0  0  0  0  0  0  0
   -7.3485    0.5785    0.0000 O   0  0  0  0  0  0  0  0  0  0  0  0
    3.0600    0.7000    0.0000 O   0  0  0  0  0  0  0  0  0  0  0  0
   -2.1300    0.7000    0.0000 O   0  0  0  0  0  0  0  0  0  0  0  0
  5  1  1  0
  6  5  1  0
  7  6  1  0
  8  7  1  0
  9  8  1  0
 12 10  1  0
 13 11  1  0
 16 14  1  0
 17 15  1  0
 19  2  1  0
 20  9  1  0
 20 18  1  0
 21 10  1  0
 21 18  2  0
 22 11  1  0
 23 20  2  0
 23 22  1  0
 24 21  1  0
 24 22  2  0
 25  3  1  0
 25 13  1  0
 25 14  1  0
 26  4  1  0
 26 12  1  0
 26 15  1  0
 27 16  1  0
 28 19  2  0
 29 17  1  0
 29 19  1  0
 30 23  1  0
 30 25  1  0
 31 24  1  0
 31 26  1  0
M  END
>  <NAME>  (1248) 
2-ACETOXYETHYL-2,8-DIMETHYL-6-HEXYL-8-(2-HYDROXYETHYL)-3,4,9,10-TETRAHYDRO-2H,8H-BENZO(1,2-B:3,4-B')DIPYRAN

>  <SYNONYMS>  (1248) 


>  <SPECTRUM TYPE>  (1248) 
MS1

>  <INSTRUMENT TYPE>  (1248) 
EI-B

>  <INSTRUMENT>  (1248) 
JEOL JMS-D-300

>  <ION MODE>  (1248) 
P

>  <INCHIKEY>  (1248) 
IYYCMEMGCSSERE-UHFFFAOYSA-N

>  <FORMULA>  (1248) 
C26H40O5

>  <EXACT MASS>  (1248) 
432.28757437999997

>  <MW>  (1248) 
432

>  <ID>  (1248) 
JP010090

>  <CONTRIBUTOR>  (1248) 
University of Tokyo Team, {Faculty of Engineering, University of Tokyo

>  <COMMENT>  (1248) 
SMILES=C(C3)C(Oc(c31)c(C2)c(OC(C2)(C)CCO)c(c1)CCCCCC)(C)CCOC(C)=O
InChI=InChI=1S/C26H40O5/c1-5-6-7-8-9-20-18-21-10-12-26(4,15-17-29-19(2)28)31-24(21)22-11-13-25(3,14-16-27)30-23(20)22/h18,27H,5-17H2,1-4H3
computed SMILES=O=C(OCCC1(OC=2C(=CC(=C3OC(C)(CCO)CCC32)CCCCCC)CC1)C)C
accession=JP010090
date=2016.01.19 (Created 2008.10.21, modified 2011.05.06)
author=KURARAY CO., LTD.
license=CC BY-NC-SA
exact mass=432.28757
ionization energy=70 eV
ion type=[M]+*
computed spectral entropy=4.547489975429093
computed normalized entropy=0.9028256436739163
SPLASH=splash10-0006-5497100000-9ab788bf4322360ed523
submitter=submitter = University of Tokyo Team (Faculty of Engineering, University of Tokyo)
MoNA Rating=3.75

>  <NUM PEAKS>  (1248) 
154

>  <MASS SPECTRAL PEAKS>  (1248) 
27 2.53
28 11.23
29 7.3
32 12.47
39 1.7
41 20.85
43 36.4
53 3.8
55 19.13
57 6.33
65 3.09
67 5.14
69 18.39
71 2.1
77 5.9
79 18.25
81 17.45
83 9.64
85 9.89
91 11.2
93 6.27
95 5.35
97 16.14
98 3.13
99 5.61
103 1.32
105 8.21
107 4.84
109 2.64
115 3.82
117 3.28
119 4.84
121 5.67
123 4.18
128 2.97
129 3.45
131 4.27
133 5.17
135 6.53
137 4.95
141 1.57
142 1.74
143 2.36
145 4.04
147 7.96
149 8.01
150 1.44
151 2.54
157 1.66
159 4.66
161 11.73
162 1.41
163 6
165 1.33
169 1.74
171 2.62
173 6.58
175 17.09
176 5.2
177 5.5
185 1.96
187 10.99
188 6.78
189 17.24
190 5.23
191 4.73
193 1.44
197 1.44
199 2.5
201 7.55
203 18.55
204 2.73
205 12.12
207 29.43
208 4.7
213 2.34
215 17.45
216 3.75
217 5.12
219 24.9
220 2.12
221 9.75
222 1.44
227 2.21
229 4.4
231 6.16
232 1.32
233 18.44
234 6.66
235 3.23
241 1.79
243 5.87
245 8.56
247 9.64
248 1.71
255 2.28
257 7.33
258 4.96
259 33.18
260 7.54
261 9.42
262 2.01
269 2.53
271 13.02
272 1.93
273 11.34
274 4.95
275 6.09
276 1.55
277 1.26
283 2.61
285 3.23
287 19.3
288 3.8
289 17.54
290 3.91
292 15.42
293 3.77
299 2.92
301 8.89
302 2.03
303 8.21
304 2.07
305 14.95
306 3.67
313 1.51
315 1.29
317 3.42
319 31.19
320 6.61
327 3.3
329 1.71
331 1.82
332 1.59
343 8.18
344 3.34
345 8.86
346 2.87
347 18.02
348 4.82
357 3.56
361 14.48
362 3.17
372 2.87
373 2.07
375 23.05
376 5.54
390 99.99
391 26.84
392 3.78
430 1.44
432 46.92
433 13.16
434 2.32

>  <PREDICTED SPECTRUM>  (1248) 
14 15
15 31
17 6
18 24
26 12
27 179
28 101
29 238
31 13
39 145
40 3
41 545
42 151
43 834
44 75
45 68
51 33
53 121
55 472
56 23
57 279
58 36
59 80
65 129
67 219
69 358
71 159
72 8
73 4
77 241
78 31
79 232
80 38
81 237
82 34
83 244
84 7
85 105
87 4
91 285
92 14
93 179
95 223
97 115
99 43
103 78
104 25
105 346
106 14
107 259
108 6
109 109
111 45
115 161
116 15
117 159
119 188
121 332
122 34
123 95
125 58
127 76
128 89
129 123
130 64
131 183
133 246
134 78
135 193
136 31
137 142
139 45
141 72
143 16
145 182
146 86
147 215
148 95
149 237
150 45
151 70
152 6
157 95
159 261
160 82
161 289
162 104
163 256
164 25
165 121
167 8
169 32
171 192
172 45
173 294
174 149
175 415
176 146
177 356
178 107
179 134
185 92
186 24
187 323
188 185
189 409
190 158
191 270
192 22
193 74
199 160
200 90
201 284
202 46
203 511
204 115
205 367
206 53
207 285
208 61
209 34
211 25
213 144
215 280
216 148
217 345
218 119
219 414
220 141
221 208
222 9
227 176
228 54
229 213
231 332
232 141
233 452
234 160
235 168
239 8
241 221
242 54
243 247
245 330
247 461
248 160
253 37
255 110
256 30
257 324
258 125
259 438
260 243
261 381
262 55
263 101
269 161
271 276
272 153
273 372
274 124
275 179
276 33
277 34
283 96
284 88
285 304
286 101
287 442
288 143
289 314
290 148
291 66
292 193
293 53
299 177
300 19
301 428
302 92
303 462
304 6
305 503
306 121
307 41
313 77
315 196
317 229
318 26
319 508
320 177
327 208
329 251
331 204
333 31
341 36
343 389
344 203
345 381
346 196
347 410
348 121
357 209
359 55
361 458
362 247
371 53
372 250
373 172
374 97
375 569
376 222
387 53
388 118
389 23
390 999
391 509
392 178
393 12
401 21
402 19
405 12
430 81
432 739
433 397
434 111
435 14

$$$$

     RDKit          2D

 27 29  0  0  0  0  0  0  0  0999 V2000
    8.1909    8.1850    0.0000 C   0  0  0  0  0  0  0  0  0  0  0  0
    6.8909    8.9350    0.0000 C   0  0  0  0  0  0  0  0  0  0  0  0
    8.1909    6.6850    0.0000 C   0  0  0  0  0  0  0  0  0  0  0  0
   -7.1774    3.1795    0.0000 C   0  0  0  0  0  0  0  0  0  0  0  0
   -6.4274    1.8805    0.0000 C   0  0  0  0  0  0  0  0  0  0  0  0
    5.5909    8.1850    0.0000 C   0  0  0  0  0  0  0  0  0  0  0  0
    6.8909    5.9350    0.0000 C   0  0  0  0  0  0  0  0  0  0  0  0
   -6.1690    4.2929    0.0000 C   0  0  0  0  0  0  0  0  0  0  0  0
   -4.9590    2.1971    0.0000 C   0  0  0  0  0  0  0  0  0  0  0  0
   -0.9052    8.9358    0.0000 C   0  0  0  0  0  0  0  0  0  0  0  0
   -0.9043    5.9342    0.0000 C   0  0  0  0  0  0  0  0  0  0  0  0
    2.9928    6.6846    0.0000 C   0  0  0  0  0  0  0  0  0  0  0  0
    5.5909    6.6850    0.0000 C   0  0  0  0  0  0  0  0  0  0  0  0
    0.3943    8.1850    0.0000 C   0  0  0  0  0  0  0  0  0  0  0  0
   -2.2043    8.1858    0.0000 C   0  0  0  0  0  0  0  0  0  0  0  0
    0.3948    6.6842    0.0000 C   0  0  0  0  0  0  0  0  0  0  0  0
   -2.2038    6.6850    0.0000 C   0  0  0  0  0  0  0  0  0  0  0  0
   -3.5028    4.4350    0.0000 C   0  0  0  0  0  0  0  0  0  0  0  0
    1.6933    8.9350    0.0000 Cl  0  0  0  0  0  0  0  0  0  0  0  0
   -3.5034    8.9356    0.0000 Cl  0  0  0  0  0  0  0  0  0  0  0  0
   -4.8019    3.6850    0.0000 N   0  0  0  0  0  0  0  0  0  0  0  0
   -2.2038    3.6850    0.0000 O   0  0  0  0  0  0  0  0  0  0  0  0
    3.3280    4.7856    0.0000 O   0  0  0  0  0  0  0  0  0  0  0  0
    5.2564    4.7859    0.0000 O   0  0  0  0  0  0  0  0  0  0  0  0
    1.6939    5.9344    0.0000 O   0  0  0  0  0  0  0  0  0  0  0  0
   -3.5028    5.9350    0.0000 O   0  0  0  0  0  0  0  0  0  0  0  0
    4.2920    5.9348    0.0000 S   0  0  0  0  0  0  0  0  0  0  0  0
  2  1  2  0
  3  1  1  0
  5  4  1  0
  6  2  1  0
  7  3  2  0
  8  4  1  0
  9  5  1  0
 13  6  2  0
 13  7  1  0
 14 10  2  0
 15 10  1  0
 16 11  2  0
 16 14  1  0
 17 11  1  0
 17 15  2  0
 19 14  1  0
 20 15  1  0
 21  8  1  0
 21  9  1  0
 21 18  1  0
 22 18  2  0
 25 12  1  0
 25 16  1  0
 26 17  1  0
 26 18  1  0
 27 12  1  0
 27 13  1  0
 27 23  2  0
 27 24  2  0
M  END
>  <NAME>  (1249) 
2,4-DICHLORO-1-(BENZENESULFONYLMETHOXY)-5-(1-PYRROLIDINCARBONYLOXY)-BENZENE

>  <SYNONYMS>  (1249) 
2,4-DICHLORO-5-(1-PYRROLIDINCARBOXY)-PHENOXYMETHYL PHENYL SULFONE

>  <SPECTRUM TYPE>  (1249) 
MS1

>  <INSTRUMENT TYPE>  (1249) 
EI-B

>  <INSTRUMENT>  (1249) 
JEOL JMS-D-300

>  <ION MODE>  (1249) 
P

>  <INCHIKEY>  (1249) 
GGJJHFOGACSQDE-UHFFFAOYSA-N

>  <FORMULA>  (1249) 
C18H17Cl2NO5S

>  <EXACT MASS>  (1249) 
429.02044900400006

>  <MW>  (1249) 
429

>  <ID>  (1249) 
JP010088

>  <CONTRIBUTOR>  (1249) 
University of Tokyo Team, {Faculty of Engineering, University of Tokyo

>  <COMMENT>  (1249) 
SMILES=O=C(N(C3)CCC3)Oc(c1)c(Cl)cc(Cl)c(OCS(=O)(=O)c(c2)cccc2)1
InChI=InChI=1S/C18H17Cl2NO5S/c19-14-10-15(20)17(26-18(22)21-8-4-5-9-21)11-16(14)25-12-27(23,24)13-6-2-1-3-7-13/h1-3,6-7,10-11H,4-5,8-9,12H2
computed SMILES=O=C(OC=1C=C(OCS(=O)(=O)C=2C=CC=CC2)C(Cl)=CC1Cl)N3CCCC3
accession=JP010088
date=2016.01.19 (Created 2008.10.21, modified 2011.05.06)
author=KURARAY CO., LTD.
license=CC BY-NC-SA
exact mass=429.02045
ionization energy=70 eV
ion type=[M]+*
computed spectral entropy=1.3702735728099587
computed normalized entropy=0.5514386518008084
SPLASH=splash10-0002-9000000000-a16ae61a5d95124d1974
submitter=submitter = University of Tokyo Team (Faculty of Engineering, University of Tokyo)
MoNA Rating=3.75

>  <NUM PEAKS>  (1249) 
12

>  <MASS SPECTRAL PEAKS>  (1249) 
30 2.24
55 20.52
56 6.63
70 1.25
77 2.12
97 2.28
98 99.99
99 8.49
125 5.75
394 1.54
429 3.07
431 2.28

>  <PREDICTED SPECTRUM>  (1249) 
41 91
42 156
44 33
51 106
53 19
54 8
55 413
56 157
63 59
65 20
68 1
69 146
70 7
72 14
77 364
78 59
79 74
82 20
86 55
93 12
98 999
99 113
111 34
112 54
114 24
121 7
125 21
128 19
137 18
139 10
140 52
141 90
144 3
147 14
156 22
164 12
172 37
175 86
204 10
254 19
288 3
394 47
395 5
429 200
430 11
431 96
432 4
433 4

$$$$

     RDKit          2D

 30 29  0  0  0  0  0  0  0  0999 V2000
  -20.1351   12.3750    0.0000 C   0  0  0  0  0  0  0  0  0  0  0  0
  -18.8361   10.1250    0.0000 C   0  0  0  0  0  0  0  0  0  0  0  0
    7.1447   11.6250    0.0000 C   0  0  0  0  0  0  0  0  0  0  0  0
    5.8457   13.8750    0.0000 C   0  0  0  0  0  0  0  0  0  0  0  0
  -13.6399   10.1250    0.0000 C   0  0  0  0  0  0  0  0  0  0  0  0
    0.6495   13.8750    0.0000 C   0  0  0  0  0  0  0  0  0  0  0  0
   -9.4079   10.4759    0.0000 C   0  0  0  0  0  0  0  0  0  0  0  0
   -3.5825   13.5241    0.0000 C   0  0  0  0  0  0  0  0  0  0  0  0
  -16.2380   11.6250    0.0000 C   0  0  0  0  0  0  0  0  0  0  0  0
    3.2476   12.3750    0.0000 C   0  0  0  0  0  0  0  0  0  0  0  0
  -11.0418   11.6250    0.0000 C   0  0  0  0  0  0  0  0  0  0  0  0
   -1.9486   12.3750    0.0000 C   0  0  0  0  0  0  0  0  0  0  0  0
  -17.5370   12.3750    0.0000 C   0  0  0  0  0  0  0  0  0  0  0  0
    4.5466   11.6250    0.0000 C   0  0  0  0  0  0  0  0  0  0  0  0
  -14.9389   12.3750    0.0000 C   0  0  0  0  0  0  0  0  0  0  0  0
    1.9486   11.6250    0.0000 C   0  0  0  0  0  0  0  0  0  0  0  0
  -12.3409   12.3750    0.0000 C   0  0  0  0  0  0  0  0  0  0  0  0
   -0.6495   11.6250    0.0000 C   0  0  0  0  0  0  0  0  0  0  0  0
   -9.7428   12.3750    0.0000 C   0  0  0  0  0  0  0  0  0  0  0  0
   -3.2476   11.6250    0.0000 C   0  0  0  0  0  0  0  0  0  0  0  0
   -7.1447   12.3750    0.0000 C   0  0  0  0  0  0  0  0  0  0  0  0
   -5.8457   11.6250    0.0000 C   0  0  0  0  0  0  0  0  0  0  0  0
  -18.8361   11.6250    0.0000 C   0  0  0  0  0  0  0  0  0  0  0  0
    5.8457   12.3750    0.0000 C   0  0  0  0  0  0  0  0  0  0  0  0
  -13.6399   11.6250    0.0000 C   0  0  0  0  0  0  0  0  0  0  0  0
    0.6495   12.3750    0.0000 C   0  0  0  0  0  0  0  0  0  0  0  0
   -8.4437   11.6250    0.0000 C   0  0  0  0  0  0  0  0  0  0  0  0
   -4.5466   12.3750    0.0000 C   0  0  0  0  0  0  0  0  0  0  0  0
   -7.4796   10.4759    0.0000 O   0  0  0  0  0  0  0  0  0  0  0  0
   -5.5108   13.5241    0.0000 O   0  0  0  0  0  0  0  0  0  0  0  0
 13  9  1  0
 14 10  1  0
 15  9  1  0
 16 10  1  0
 17 11  1  0
 18 12  1  0
 19 11  1  0
 20 12  1  0
 21 22  2  0
 23  1  1  0
 23  2  1  0
 23 13  1  0
 24  3  1  0
 24  4  1  0
 24 14  1  0
 25  5  1  0
 25 15  1  0
 25 17  1  0
 26  6  1  0
 26 16  1  0
 26 18  1  0
 27  7  1  0
 27 19  1  0
 27 21  1  0
 28  8  1  0
 28 20  1  0
 28 22  1  0
 29 27  1  0
 30 28  1  0
M  END
>  <NAME>  (1250) 
2,6,10,13,17,21-HEXAMETHYL-11-HENICOSEN-10,13-DIOL

>  <SYNONYMS>  (1250) 


>  <SPECTRUM TYPE>  (1250) 
MS1

>  <INSTRUMENT TYPE>  (1250) 
EI-B

>  <INSTRUMENT>  (1250) 
JEOL JMS-D-300

>  <ION MODE>  (1250) 
P

>  <INCHIKEY>  (1250) 
GMSBGIXDRWRUNO-QURGRASLSA-N

>  <FORMULA>  (1250) 
C28H56O2

>  <EXACT MASS>  (1250) 
424.42803103200004

>  <MW>  (1250) 
424

>  <ID>  (1250) 
JP010086

>  <CONTRIBUTOR>  (1250) 
University of Tokyo Team, {Faculty of Engineering, University of Tokyo

>  <COMMENT>  (1250) 
SMILES=C(C(C)CCCC(C)C)CCC(C)(O)C=CC(C)(O)CCCC(C)CCCC(C)C
InChI=InChI=1S/C28H56O2/c1-23(2)13-9-15-25(5)17-11-19-27(7,29)21-22-28(8,30)20-12-18-26(6)16-10-14-24(3)4/h21-26,29-30H,9-20H2,1-8H3/b22-21+
computed SMILES=OC(C=CC(O)(C)CCCC(C)CCCC(C)C)(C)CCCC(C)CCCC(C)C
accession=JP010086
date=2016.01.19 (Created 2008.10.21, modified 2011.05.06)
author=KURARAY CO., LTD.
license=CC BY-NC-SA
exact mass=424.42803
ionization energy=70 eV
ion type=[M]+*
computed spectral entropy=3.9089756061943675
computed normalized entropy=0.8544748782081943
SPLASH=splash10-066u-9320000000-6a9d026381a66db7528b
submitter=submitter = University of Tokyo Team (Faculty of Engineering, University of Tokyo)
MoNA Rating=3.75

>  <NUM PEAKS>  (1250) 
97

>  <MASS SPECTRAL PEAKS>  (1250) 
27 4.81
29 12.15
39 3.25
41 32.07
42 5.79
43 99.99
45 3.66
53 3.08
55 73.01
56 28.25
57 84.3
58 21.55
59 6.59
67 16.03
68 22.34
69 83.22
70 32.43
71 58.29
72 4.59
79 4.12
80 1.81
81 42.48
82 23.28
83 77.03
84 12.42
85 30.81
86 2.38
93 4.73
94 3
95 49.05
96 13.11
97 41.41
98 7.9
99 12.78
107 6.72
108 4.09
109 41.02
110 10.49
111 31.98
112 7.08
113 17.53
121 5.73
122 1.51
123 41.06
124 10.68
125 20.37
126 18.28
127 6.66
129 8.17
135 4.61
137 14.06
138 6.45
139 11.52
140 4.83
141 2.26
143 3.01
149 3.17
151 4.67
163 2.08
165 4.21
166 1.31
177 3.85
179 3.08
180 7.98
181 1.78
182 1.44
183 8.12
193 17.24
194 3.04
195 1.29
196 9.4
197 2.45
198 1.47
199 22.27
200 2.37
207 1.45
208 2.45
211 13.99
212 1.39
223 1.34
225 52.89
226 8.94
233 22.09
234 4.46
239 1.66
249 1.75
251 52.12
252 10.11
253 1.97
265 1.53
267 1.55
269 90.55
270 16.75
362 1.64
388 1.55
391 3.22
409 1.74

>  <PREDICTED SPECTRUM>  (1250) 
17 4
18 28
25 9
26 26
27 149
28 49
29 233
30 13
31 83
38 7
39 146
40 50
41 557
42 247
43 999
44 120
45 84
49 6
50 1
53 82
54 91
55 833
56 495
57 978
58 420
59 277
60 57
62 27
65 60
66 27
67 319
68 274
69 924
70 478
71 849
72 249
73 94
75 9
77 55
78 19
79 196
80 174
81 615
82 403
83 808
84 309
85 488
86 35
87 8
89 34
91 57
92 2
93 59
94 115
95 640
96 346
97 655
98 181
99 329
100 48
101 60
105 99
106 11
107 184
108 28
109 541
110 224
111 538
112 249
113 419
114 170
115 121
116 66
117 104
118 16
120 14
121 221
122 116
123 453
124 278
125 478
126 412
127 211
128 95
129 168
130 4
135 158
136 61
137 418
138 149
139 301
140 188
141 191
142 100
143 93
144 16
145 93
149 89
150 56
151 198
152 140
153 172
154 124
155 145
156 32
157 89
163 101
164 31
165 258
166 166
167 109
168 86
169 170
171 114
172 4
177 9
178 66
179 191
180 219
181 240
182 120
183 164
184 7
185 24
191 30
192 53
193 374
194 112
195 184
196 129
197 244
198 122
199 478
200 267
201 138
205 37
206 53
207 138
208 230
209 147
210 126
211 217
213 50
214 9
215 43
218 27
219 19
221 19
222 65
223 227
224 99
225 545
226 87
233 286
234 69
235 15
236 32
237 17
239 27
241 147
247 47
249 86
250 83
251 575
252 288
253 132
261 14
263 51
265 160
267 71
268 55
269 919
270 417
271 120
275 24
279 10
280 7
283 32
289 18
297 7
337 11
339 113
380 11
383 6
389 3
391 161
409 138
415 8
429 24

$$$$

     RDKit          2D

 29 28  0  0  0  0  0  0  0  0999 V2000
    5.8457   12.3750    0.0000 C   0  0  0  0  0  0  0  0  0  0  0  0
  -20.1351   12.3750    0.0000 C   0  0  0  0  0  0  0  0  0  0  0  0
  -18.8361   14.6250    0.0000 C   0  0  0  0  0  0  0  0  0  0  0  0
  -17.5370    7.8750    0.0000 C   0  0  0  0  0  0  0  0  0  0  0  0
  -14.9389    7.8750    0.0000 C   0  0  0  0  0  0  0  0  0  0  0  0
  -13.6399   14.6250    0.0000 C   0  0  0  0  0  0  0  0  0  0  0  0
    4.5466   13.1250    0.0000 C   0  0  0  0  0  0  0  0  0  0  0  0
    3.2476   12.3750    0.0000 C   0  0  0  0  0  0  0  0  0  0  0  0
    1.9486   13.1250    0.0000 C   0  0  0  0  0  0  0  0  0  0  0  0
    0.6495   12.3750    0.0000 C   0  0  0  0  0  0  0  0  0  0  0  0
   -0.6495   13.1250    0.0000 C   0  0  0  0  0  0  0  0  0  0  0  0
   -1.9486   12.3750    0.0000 C   0  0  0  0  0  0  0  0  0  0  0  0
   -3.2476   13.1250    0.0000 C   0  0  0  0  0  0  0  0  0  0  0  0
   -4.5466   12.3750    0.0000 C   0  0  0  0  0  0  0  0  0  0  0  0
   -5.8457   13.1250    0.0000 C   0  0  0  0  0  0  0  0  0  0  0  0
   -7.1447   12.3750    0.0000 C   0  0  0  0  0  0  0  0  0  0  0  0
   -8.4437   13.1250    0.0000 C   0  0  0  0  0  0  0  0  0  0  0  0
   -9.7428   12.3750    0.0000 C   0  0  0  0  0  0  0  0  0  0  0  0
  -17.5370   12.3750    0.0000 C   0  0  0  0  0  0  0  0  0  0  0  0
  -16.2380   10.1250    0.0000 C   0  0  0  0  0  0  0  0  0  0  0  0
  -16.2380   13.1250    0.0000 C   0  0  0  0  0  0  0  0  0  0  0  0
  -14.9389   10.8750    0.0000 C   0  0  0  0  0  0  0  0  0  0  0  0
  -18.8361   13.1250    0.0000 C   0  0  0  0  0  0  0  0  0  0  0  0
  -16.2380    8.6250    0.0000 C   0  0  0  0  0  0  0  0  0  0  0  0
  -13.6399   13.1250    0.0000 C   0  0  0  0  0  0  0  0  0  0  0  0
  -14.9389   12.3750    0.0000 C   0  0  0  0  0  0  0  0  0  0  0  0
  -11.0418   13.1250    0.0000 C   0  0  0  0  0  0  0  0  0  0  0  0
  -11.0418   14.6250    0.0000 O   0  0  0  0  0  0  0  0  0  0  0  0
  -12.3409   12.3750    0.0000 O   0  0  0  0  0  0  0  0  0  0  0  0
  7  1  1  0
  8  7  1  0
  9  8  1  0
 10  9  1  0
 11 10  1  0
 12 11  1  0
 13 12  1  0
 14 13  1  0
 15 14  1  0
 16 15  1  0
 17 16  1  0
 18 17  1  0
 21 19  1  0
 22 20  1  0
 23  2  1  0
 23  3  1  0
 23 19  1  0
 24  4  1  0
 24  5  1  0
 24 20  1  0
 25  6  1  0
 26 21  1  0
 26 22  1  0
 26 25  1  0
 27 18  1  0
 28 27  2  0
 29 25  1  0
 29 27  1  0
M  END
>  <NAME>  (1251) 
1,5-DIMETHYL-2-ISOPENTYLHEXYL TETRADECANOATE

>  <SYNONYMS>  (1251) 
1,5-DIMETHYL-2-(3-METHYLBUTYL)HEXYL TETRADECANOATE

>  <SPECTRUM TYPE>  (1251) 
MS1

>  <INSTRUMENT TYPE>  (1251) 
EI-B

>  <INSTRUMENT>  (1251) 
JEOL JMS-D-300

>  <ION MODE>  (1251) 
P

>  <INCHIKEY>  (1251) 
JHAGSLRTFDBCLA-UHFFFAOYSA-N

>  <FORMULA>  (1251) 
C27H54O2

>  <EXACT MASS>  (1251) 
410.412380968

>  <MW>  (1251) 
410

>  <ID>  (1251) 
JP010081

>  <CONTRIBUTOR>  (1251) 
University of Tokyo Team, {Faculty of Engineering, University of Tokyo

>  <COMMENT>  (1251) 
SMILES=CCCCCCCCCCCCCC(=O)OC(C)C(CCC(C)C)CCC(C)C
InChI=InChI=1S/C27H54O2/c1-7-8-9-10-11-12-13-14-15-16-17-18-27(28)29-25(6)26(21-19-23(2)3)22-20-24(4)5/h23-26H,7-22H2,1-6H3
computed SMILES=O=C(OC(C)C(CCC(C)C)CCC(C)C)CCCCCCCCCCCCC
accession=JP010081
author=KURARAY CO., LTD.
date=2016.01.19 (Created 2008.10.21, modified 2011.05.06)
license=CC BY-NC-SA
exact mass=410.41238
ionization energy=70 eV
ion type=[M]+*
computed spectral entropy=3.3084552434623187
computed normalized entropy=0.8183065274941024
SPLASH=splash10-08mi-9230000000-083ba974a5e5551ae737
submitter=submitter = University of Tokyo Team (Faculty of Engineering, University of Tokyo)
MoNA Rating=3.75

>  <NUM PEAKS>  (1251) 
57

>  <MASS SPECTRAL PEAKS>  (1251) 
26 3.26
29 7.72
32 1.47
39 1.62
41 17.92
42 3.81
43 36.55
44 1.32
45 3.41
53 1.26
54 1.83
55 19.29
56 14.28
57 59.34
58 2.56
60 1.66
67 2.94
68 2.94
69 22.59
70 28.47
71 40.98
72 2.58
73 1.39
81 3.73
82 2.05
83 10.02
84 4.01
85 23.38
86 1.58
95 5.09
96 1.94
97 6.88
98 6.24
99 8.61
109 3.13
110 2.71
111 6.41
112 7.8
113 8.72
123 1.6
125 2.2
126 31.31
127 10.44
128 2.24
129 1.83
182 22.29
183 8.21
211 99.99
212 18.1
213 1.62
228 3.73
229 3.92
296 9.25
297 2.24
366 2.75
367 0.85
395 0.36

>  <PREDICTED SPECTRUM>  (1251) 
26 7
27 121
28 27
29 194
36 32
39 198
40 76
41 517
42 268
43 731
44 186
45 94
48 17
49 1
50 0
51 24
52 36
53 166
54 154
55 531
56 444
57 999
58 243
59 58
60 43
61 41
62 14
63 15
64 54
65 58
66 24
67 197
68 203
69 485
70 451
71 819
72 144
73 71
74 5
75 45
76 0
77 77
78 78
79 56
80 119
81 273
82 150
83 334
84 167
85 358
86 120
87 75
88 28
89 28
91 1
92 42
93 44
94 17
95 170
96 90
97 291
98 245
99 462
100 151
101 113
102 44
103 7
106 5
107 37
108 125
109 198
110 71
111 196
112 256
113 257
114 87
115 115
116 21
121 18
123 89
124 31
125 162
126 343
127 294
128 134
129 116
130 43
134 29
135 22
136 38
137 41
139 22
140 81
141 94
142 72
143 74
145 22
150 12
151 35
152 12
153 24
154 58
155 67
156 47
157 53
164 18
165 14
168 13
169 76
170 43
171 33
177 8
178 50
179 39
180 69
181 11
182 253
183 140
184 50
185 48
186 13
193 14
195 30
196 62
197 64
198 29
199 14
208 9
209 5
210 8
211 582
212 141
213 133
214 34
224 29
226 8
227 29
228 16
239 67
240 43
241 0
252 11
253 30
254 31
256 9
267 42
268 63
269 35
283 23
294 66
295 78
296 188
297 189
298 51
311 13
323 72
324 30
325 32
339 38
366 34
367 71
410 47
411 5

$$$$

     RDKit          2D

 30 33  0  0  0  0  0  0  0  0999 V2000
   -3.7389    1.4102    0.0000 C   0  0  0  0  0  0  0  0  0  0  0  0
   -1.1400    2.9100    0.0000 C   0  0  0  0  0  0  0  0  0  0  0  0
   -1.1400   -3.0900    0.0000 C   0  0  0  0  0  0  0  0  0  0  0  0
    4.2372    0.3997    0.0000 C   0  0  0  0  0  0  0  0  0  0  0  0
   11.2342    8.7525    0.0000 C   0  0  0  0  0  0  0  0  0  0  0  0
   10.2696    9.9023    0.0000 C   0  0  0  0  0  0  0  0  0  0  0  0
   10.7216    7.3419    0.0000 C   0  0  0  0  0  0  0  0  0  0  0  0
    8.7924    9.6415    0.0000 C   0  0  0  0  0  0  0  0  0  0  0  0
    9.2445    7.0811    0.0000 C   0  0  0  0  0  0  0  0  0  0  0  0
    1.4600   -1.5900    0.0000 C   0  0  0  0  0  0  0  0  0  0  0  0
    2.7600   -0.8400    0.0000 C   0  0  0  0  0  0  0  0  0  0  0  0
    3.2727    2.0696    0.0000 C   0  0  0  0  0  0  0  0  0  0  0  0
    4.7499    2.3304    0.0000 C   0  0  0  0  0  0  0  0  0  0  0  0
    4.2984    4.8891    0.0000 C   0  0  0  0  0  0  0  0  0  0  0  0
    6.7405    4.0013    0.0000 C   0  0  0  0  0  0  0  0  0  0  0  0
    4.8121    6.2993    0.0000 C   0  0  0  0  0  0  0  0  0  0  0  0
    7.2542    5.4114    0.0000 C   0  0  0  0  0  0  0  0  0  0  0  0
    6.8027    7.9701    0.0000 C   0  0  0  0  0  0  0  0  0  0  0  0
   -2.4400    0.6600    0.0000 C   0  0  0  0  0  0  0  0  0  0  0  0
   -1.1400    1.4100    0.0000 C   0  0  0  0  0  0  0  0  0  0  0  0
   -1.1400   -1.5900    0.0000 C   0  0  0  0  0  0  0  0  0  0  0  0
    8.2799    8.2309    0.0000 C   0  0  0  0  0  0  0  0  0  0  0  0
    0.1600   -0.8400    0.0000 C   0  0  0  0  0  0  0  0  0  0  0  0
   -2.4400   -0.8400    0.0000 C   0  0  0  0  0  0  0  0  0  0  0  0
    0.1600    0.6600    0.0000 C   0  0  0  0  0  0  0  0  0  0  0  0
    2.7600    0.6600    0.0000 C   0  0  0  0  0  0  0  0  0  0  0  0
    5.2626    3.7401    0.0000 N   0  0  0  0  0  0  0  0  0  0  0  0
    6.2900    6.5605    0.0000 N   0  0  0  0  0  0  0  0  0  0  0  0
   -3.7389   -1.5902    0.0000 O   0  0  0  0  0  0  0  0  0  0  0  0
    1.4600    1.4100    0.0000 O   0  0  0  0  0  0  0  0  0  0  0  0
  6  5  2  0
  7  5  1  0
  8  6  1  0
  9  7  2  0
 11 10  1  0
 13 12  1  0
 16 14  1  0
 17 15  1  0
 19  1  1  0
 20  2  1  0
 20 19  1  0
 21  3  1  0
 22  8  2  0
 22  9  1  0
 22 18  1  0
 23 10  1  0
 23 21  2  0
 24 19  2  0
 24 21  1  0
 25 20  2  0
 25 23  1  0
 26  4  1  0
 26 11  1  0
 26 12  1  0
 27 13  1  0
 27 14  1  0
 27 15  1  0
 28 16  1  0
 28 17  1  0
 28 18  1  0
 29 24  1  0
 30 25  1  0
 30 26  1  0
M  END
>  <NAME>  (1252) 
3,4-DIHYDRO-2-(4-BENZYL-1-PIPERADYL)-ETHYL-6-HYDROXY-2,5,7,8-TETRAMETHYL-2H-1-BENZOPYRAN

>  <SYNONYMS>  (1252) 


>  <SPECTRUM TYPE>  (1252) 
MS1

>  <INSTRUMENT TYPE>  (1252) 
EI-B

>  <INSTRUMENT>  (1252) 
JEOL JMS-D-300

>  <ION MODE>  (1252) 
P

>  <INCHIKEY>  (1252) 
BXQIFMPEGGKVBU-UHFFFAOYSA-N

>  <FORMULA>  (1252) 
C26H36N2O2

>  <EXACT MASS>  (1252) 
408.277678392

>  <MW>  (1252) 
408

>  <ID>  (1252) 
JP010080

>  <CONTRIBUTOR>  (1252) 
University of Tokyo Team, {Faculty of Engineering, University of Tokyo

>  <COMMENT>  (1252) 
SMILES=C(C3)C(Oc(c4C)c3c(c(c4C)O)C)(C)CCN(C2)CCN(C2)Cc(c1)cccc1
InChI=InChI=1S/C26H36N2O2/c1-19-20(2)25-23(21(3)24(19)29)10-11-26(4,30-25)12-13-27-14-16-28(17-15-27)18-22-8-6-5-7-9-22/h5-9,29H,10-18H2,1-4H3
computed SMILES=OC=1C(=C(C=2OC(C)(CCC2C1C)CCN3CCN(CC=4C=CC=CC4)CC3)C)C
accession=JP010080
date=2016.01.19 (Created 2008.10.21, modified 2011.05.06)
author=KURARAY CO., LTD.
license=CC BY-NC-SA
exact mass=408.27768
ionization energy=70 eV
ion type=[M]+*
computed spectral entropy=2.491467101814046
computed normalized entropy=0.7740177743315281
SPLASH=splash10-000l-6920100000-947e673e34ad234d7d0b
submitter=submitter = University of Tokyo Team (Faculty of Engineering, University of Tokyo)
MoNA Rating=3.75

>  <NUM PEAKS>  (1252) 
25

>  <MASS SPECTRAL PEAKS>  (1252) 
42 6.72
43 4.95
44 4.74
56 3.94
58 3.27
70 13.51
91 36.56
92 2.77
97 6.28
98 4.95
99 3.03
146 5.64
161 4.79
165 5.73
175 2.48
189 99.99
190 14.89
203 6.98
205 9.74
220 3.39
245 3.66
262 4.56
277 3.08
408 19.03
409 5.17

>  <PREDICTED SPECTRUM>  (1252) 
27 3
34 5
39 51
41 90
42 170
43 41
44 129
45 23
51 7
54 38
55 78
56 87
57 23
63 0
65 116
67 20
69 20
70 142
71 12
77 33
79 33
81 48
82 10
83 21
85 17
90 4
91 627
92 168
94 21
95 27
96 12
97 161
98 86
99 54
105 102
106 19
109 16
118 1
119 65
120 20
121 15
123 17
127 21
128 15
132 12
134 50
135 37
141 6
142 16
145 37
146 243
147 48
148 8
149 17
160 77
161 68
162 11
163 13
165 129
173 4
175 15
176 5
177 14
178 3
179 19
187 33
188 52
189 999
190 466
191 81
192 20
193 12
203 314
204 42
205 90
206 28
207 0
217 19
219 63
229 3
262 101
317 8
406 43
407 37
408 424
409 133
410 15

$$$$

     RDKit          2D

 29 31  0  0  0  0  0  0  0  0999 V2000
   -3.7389    1.4102    0.0000 C   0  0  0  0  0  0  0  0  0  0  0  0
   -1.1400    2.9100    0.0000 C   0  0  0  0  0  0  0  0  0  0  0  0
   -1.1400   -3.0900    0.0000 C   0  0  0  0  0  0  0  0  0  0  0  0
    4.2372    0.3997    0.0000 C   0  0  0  0  0  0  0  0  0  0  0  0
   -5.0381   -0.8404    0.0000 C   0  0  0  0  0  0  0  0  0  0  0  0
    9.6516    4.5344    0.0000 C   0  0  0  0  0  0  0  0  0  0  0  0
    9.1615    3.1433    0.0000 C   0  0  0  0  0  0  0  0  0  0  0  0
    8.6858    5.6587    0.0000 C   0  0  0  0  0  0  0  0  0  0  0  0
    7.6918    2.8432    0.0000 C   0  0  0  0  0  0  0  0  0  0  0  0
    1.4600   -1.5900    0.0000 C   0  0  0  0  0  0  0  0  0  0  0  0
    2.7600   -0.8400    0.0000 C   0  0  0  0  0  0  0  0  0  0  0  0
    3.2727    2.0696    0.0000 C   0  0  0  0  0  0  0  0  0  0  0  0
   -2.4400    0.6600    0.0000 C   0  0  0  0  0  0  0  0  0  0  0  0
   -1.1400    1.4100    0.0000 C   0  0  0  0  0  0  0  0  0  0  0  0
   -1.1400   -1.5900    0.0000 C   0  0  0  0  0  0  0  0  0  0  0  0
    0.1600   -0.8400    0.0000 C   0  0  0  0  0  0  0  0  0  0  0  0
    7.2299    5.3920    0.0000 C   0  0  0  0  0  0  0  0  0  0  0  0
    6.7398    4.0009    0.0000 C   0  0  0  0  0  0  0  0  0  0  0  0
    4.7499    2.3304    0.0000 C   0  0  0  0  0  0  0  0  0  0  0  0
   -2.4400   -0.8400    0.0000 C   0  0  0  0  0  0  0  0  0  0  0  0
    0.1600    0.6600    0.0000 C   0  0  0  0  0  0  0  0  0  0  0  0
    6.2559    6.5328    0.0000 C   0  0  0  0  0  0  0  0  0  0  0  0
    2.7600    0.6600    0.0000 C   0  0  0  0  0  0  0  0  0  0  0  0
    5.2626    3.7401    0.0000 N   0  0  0  0  0  0  0  0  0  0  0  0
    5.7143    1.1816    0.0000 O   0  0  0  0  0  0  0  0  0  0  0  0
    4.7810    6.2598    0.0000 O   0  0  0  0  0  0  0  0  0  0  0  0
    6.7569    7.9467    0.0000 O   0  0  0  0  0  0  0  0  0  0  0  0
   -3.7389   -1.5902    0.0000 O   0  0  0  0  0  0  0  0  0  0  0  0
    1.4600    1.4100    0.0000 O   0  0  0  0  0  0  0  0  0  0  0  0
  7  6  2  0
  8  6  1  0
  9  7  1  0
 11 10  1  0
 13  1  1  0
 14  2  1  0
 14 13  1  0
 15  3  1  0
 16 10  1  0
 16 15  2  0
 17  8  2  0
 18  9  2  0
 18 17  1  0
 19 12  1  0
 20 13  2  0
 20 15  1  0
 21 14  2  0
 21 16  1  0
 22 17  1  0
 23  4  1  0
 23 11  1  0
 23 12  1  0
 24 18  1  0
 24 19  2  3
 25 19  1  0
 26 22  2  0
 27 22  1  0
 28  5  1  0
 28 20  1  0
 29 21  1  0
 29 23  1  0
M  END
>  <NAME>  (1253) 
2-(N-(2-CARBOXYPHENYL)ACETAMIDE-1-XY)-3,4-DIHYDRO-6-METHOXY-2,5,7,8-TETRAMETHYL-2H-1-BENZOPYRAN

>  <SYNONYMS>  (1253) 
N-(2-CARBOXYPHENYL)-1-(3,4-DIHYDRO-6-METHOXY-2,5,7,8-TETRAMETHYL-2H-1-BENZOPYRAN-2-YL)-ACETAMIDE

>  <SPECTRUM TYPE>  (1253) 
MS1

>  <INSTRUMENT TYPE>  (1253) 
EI-B

>  <INSTRUMENT>  (1253) 
JEOL JMS-D-300

>  <ION MODE>  (1253) 
P

>  <INCHIKEY>  (1253) 
MLTDEXJIUPNCJM-UHFFFAOYSA-N

>  <FORMULA>  (1253) 
C23H27NO5

>  <EXACT MASS>  (1253) 
397.188922964

>  <MW>  (1253) 
397

>  <ID>  (1253) 
JP010079

>  <CONTRIBUTOR>  (1253) 
University of Tokyo Team, {Faculty of Engineering, University of Tokyo

>  <COMMENT>  (1253) 
SMILES=COc(c(C)1)c(C)c(C2)c(OC(C)(CC(=O)Nc(c3)c(ccc3)C(O)=O)C2)c(C)1
InChI=InChI=1S/C23H27NO5/c1-13-14(2)21-16(15(3)20(13)28-5)10-11-23(4,29-21)12-19(25)24-18-9-7-6-8-17(18)22(26)27/h6-9H,10-12H2,1-5H3,(H,24,25)(H,26,27)
computed SMILES=O=C(O)C=1C=CC=CC1N=C(O)CC2(OC=3C(=C(C(OC)=C(C3CC2)C)C)C)C
accession=JP010079
date=2016.01.19 (Created 2008.10.21, modified 2011.05.06)
author=KURARAY CO., LTD.
license=CC BY-NC-SA
exact mass=397.18892
ionization energy=70 eV
ion type=[M]+*
computed spectral entropy=2.380271047254794
computed normalized entropy=0.6217012252538271
SPLASH=splash10-0002-0039000000-95eaa530d7ef873c4a0a
submitter=submitter = University of Tokyo Team (Faculty of Engineering, University of Tokyo)
MoNA Rating=3.75

>  <NUM PEAKS>  (1253) 
46

>  <MASS SPECTRAL PEAKS>  (1253) 
58 2.1
61 1.4
99 1.2
101 0.22
173 0.8
199 6.5
241 1.2
242 0.09
245 0.9
256 3.6
258 2
277 0.16
278 37.4
279 15.4
286 1.1
292 1.47
293 3.4
306 1.6
310 4.5
312 0.1
314 3.4
328 1.8
330 1.1
342 0.14
348 2
351 1.9
359 1.2
360 0.2
361 1.2
363 2.9
381 1.6
383 0.26
391 1.1
395 1.7
396 1.1
397 99.99
398 32
399 9.1
403 1.1
411 0.19
413 3.9
414 1.1
415 1
416 0.12
427 1.8
430 1.1

>  <PREDICTED SPECTRUM>  (1253) 
28 25
33 14
36 35
39 137
40 40
41 331
42 86
43 560
44 97
45 120
49 98
50 1
51 67
53 133
55 215
56 87
57 120
58 30
60 43
63 43
64 76
65 216
66 73
67 169
69 91
70 138
71 111
73 23
76 3
77 309
78 110
79 249
80 30
81 131
82 94
83 71
84 51
85 81
86 49
87 8
89 81
90 59
91 402
92 239
93 211
94 96
95 53
97 47
98 48
100 22
102 117
103 118
104 66
105 148
106 26
107 198
108 70
110 28
115 107
116 145
117 130
118 86
119 190
120 237
121 64
123 51
124 63
127 7
128 129
129 100
130 125
131 77
132 141
133 152
134 87
135 137
136 26
137 36
139 27
141 46
142 12
143 160
144 191
145 127
146 95
148 26
149 40
150 24
151 70
152 347
153 181
156 20
157 0
158 48
159 19
160 108
161 130
162 120
163 71
164 109
165 247
166 130
167 28
168 123
169 34
170 11
172 21
173 117
174 31
175 29
176 115
177 100
178 80
179 356
180 430
181 53
185 68
186 106
187 86
188 35
189 51
190 20
192 23
193 95
194 106
201 2
202 63
203 77
204 157
205 76
206 61
209 2
210 71
212 0
217 76
218 68
219 170
220 118
221 160
222 39
223 71
230 52
234 9
235 6
236 107
244 141
245 66
246 31
247 86
248 19
249 77
250 59
251 42
261 16
262 63
263 5
264 86
266 4
270 7
278 39
280 101
282 4
292 78
293 50
295 8
296 26
299 9
304 3
306 74
307 131
308 81
311 106
320 157
321 100
322 99
334 68
335 178
336 208
337 76
350 45
351 323
352 421
353 263
361 10
364 193
365 28
379 735
380 286
381 100
382 16
395 69
396 111
397 999
398 489
399 84

$$$$

     RDKit          2D

 28 28  0  0  0  0  0  0  0  0999 V2000
    9.0942    0.7512    0.0000 C   0  0  0  0  0  0  0  0  0  0  0  0
   10.3922    7.5015    0.0000 C   0  0  0  0  0  0  0  0  0  0  0  0
   16.1379    3.9533    0.0000 C   0  0  0  0  0  0  0  0  0  0  0  0
   18.1869    4.5027    0.0000 C   0  0  0  0  0  0  0  0  0  0  0  0
   17.6375    6.5517    0.0000 C   0  0  0  0  0  0  0  0  0  0  0  0
   -2.5989   -1.5002    0.0000 C   0  0  0  0  0  0  0  0  0  0  0  0
    9.0937    3.7512    0.0000 C   0  0  0  0  0  0  0  0  0  0  0  0
    5.1970    1.5006    0.0000 C   0  0  0  0  0  0  0  0  0  0  0  0
    7.7948    3.0010    0.0000 C   0  0  0  0  0  0  0  0  0  0  0  0
    9.0935    5.2512    0.0000 C   0  0  0  0  0  0  0  0  0  0  0  0
    6.4962    0.7508    0.0000 C   0  0  0  0  0  0  0  0  0  0  0  0
    3.8981    0.7504    0.0000 C   0  0  0  0  0  0  0  0  0  0  0  0
   11.6916    5.2517    0.0000 C   0  0  0  0  0  0  0  0  0  0  0  0
   12.9905    6.0019    0.0000 C   0  0  0  0  0  0  0  0  0  0  0  0
   -1.3000    0.7500    0.0000 C   0  0  0  0  0  0  0  0  0  0  0  0
   -0.0000   -1.5000    0.0000 C   0  0  0  0  0  0  0  0  0  0  0  0
   -0.0000    1.5000    0.0000 C   0  0  0  0  0  0  0  0  0  0  0  0
    1.3000   -0.7500    0.0000 C   0  0  0  0  0  0  0  0  0  0  0  0
    7.7951    1.5010    0.0000 C   0  0  0  0  0  0  0  0  0  0  0  0
   10.3924    6.0015    0.0000 C   0  0  0  0  0  0  0  0  0  0  0  0
    2.5989    1.5002    0.0000 C   0  0  0  0  0  0  0  0  0  0  0  0
   14.2897    5.2521    0.0000 C   0  0  0  0  0  0  0  0  0  0  0  0
   16.8877    5.2525    0.0000 C   0  0  0  0  0  0  0  0  0  0  0  0
   -1.3000   -0.7500    0.0000 N   0  0  0  0  0  0  0  0  0  0  0  0
    1.3000    0.7500    0.0000 N   0  0  0  0  0  0  0  0  0  0  0  0
    2.5987    3.0002    0.0000 O   0  0  0  0  0  0  0  0  0  0  0  0
   14.2899    3.7521    0.0000 O   0  0  0  0  0  0  0  0  0  0  0  0
   15.5886    6.0023    0.0000 O   0  0  0  0  0  0  0  0  0  0  0  0
  9  7  1  0
 10  7  1  0
 11  8  1  0
 12  8  1  0
 14 13  1  0
 17 15  1  0
 18 16  1  0
 19  1  1  0
 19  9  1  0
 11 19  2  0
 20  2  1  0
 10 20  2  0
 20 13  1  0
 21 12  1  0
 22 14  1  0
 23  3  1  0
 23  4  1  0
 23  5  1  0
 24  6  1  0
 24 15  1  0
 24 16  1  0
 25 17  1  0
 25 18  1  0
 25 21  1  0
 26 21  2  0
 27 22  2  0
 28 22  1  0
 28 23  1  0
M  END
>  <NAME>  (1254) 
1-METHYL-4-(11-(1,1-DIMETHYLETHOXYCARBONYL)-5,9-DIMETHYL-UNDECA-4,8-DIENOYL)-PIPERADINE

>  <SYNONYMS>  (1254) 


>  <SPECTRUM TYPE>  (1254) 
MS1

>  <INSTRUMENT TYPE>  (1254) 
EI-B

>  <INSTRUMENT>  (1254) 
JEOL JMS-D-300

>  <ION MODE>  (1254) 
P

>  <INCHIKEY>  (1254) 
SWODQJWXQSPCDE-GDHXLXJCSA-N

>  <FORMULA>  (1254) 
C23H40N2O3

>  <EXACT MASS>  (1254) 
392.30389313999996

>  <MW>  (1254) 
392

>  <ID>  (1254) 
JP010078

>  <CONTRIBUTOR>  (1254) 
University of Tokyo Team, {Faculty of Engineering, University of Tokyo

>  <COMMENT>  (1254) 
SMILES=CC(CCC=C(C)CCC(=O)OC(C)(C)C)=CCCC(=O)N(C1)CCN(C)C1
InChI=InChI=1S/C23H40N2O3/c1-19(11-8-12-21(26)25-17-15-24(6)16-18-25)9-7-10-20(2)13-14-22(27)28-23(3,4)5/h10-11H,7-9,12-18H2,1-6H3/b19-11-,20-10-
computed SMILES=O=C(OC(C)(C)C)CCC(=CCCC(=CCCC(=O)N1CCN(C)CC1)C)C
accession=JP010078
date=2016.01.19 (Created 2008.10.21, modified 2011.05.06)
author=KURARAY CO., LTD.
license=CC BY-NC-SA
exact mass=392.30389
ionization energy=70 eV
ion type=[M]+*
computed spectral entropy=3.212280067596688
computed normalized entropy=0.7845651529272626
SPLASH=splash10-056r-9100000000-8f637d883903689156f9
submitter=submitter = University of Tokyo Team (Faculty of Engineering, University of Tokyo)
MoNA Rating=3.75

>  <NUM PEAKS>  (1254) 
60

>  <MASS SPECTRAL PEAKS>  (1254) 
27 2.3
28 99.99
29 4.1
32 3.01
39 8
40 2.4
41 29.8
42 0.44
43 7.4
44 7.1
53 2.1
55 1.05
56 26.8
57 22.1
58 19.2
59 0.1
67 2.8
69 4.5
70 26.5
71 0.51
72 1
73 1.9
77 1.2
79 0.15
81 7.8
82 1.3
83 11.8
84 0.19
85 4.7
93 1.3
95 1.8
97 0.55
98 25.8
99 19.6
100 4.5
101 3.5
102 2
105 3.4
109 1.7
111 0.22
127 12.1
135 1.6
142 3.2
149 0.13
152 2.3
155 4
166 9.1
209 5.5
210 12.1
219 1.1
220 1.2
277 2
278 3.7
319 9.3
320 2
335 1.48
337 2.9
389 1.1
391 5
392 1.3

>  <PREDICTED SPECTRUM>  (1254) 
27 36
28 55
29 117
32 2
39 97
40 18
41 360
42 304
43 333
44 374
45 99
51 58
52 16
53 144
54 96
55 435
56 634
57 999
58 747
59 98
65 42
66 0
67 213
68 212
69 235
70 755
71 132
72 15
73 50
77 149
79 73
80 0
81 359
82 50
83 605
84 33
85 116
86 38
91 46
92 18
93 59
95 166
97 231
98 453
99 504
100 257
101 882
102 51
105 158
107 91
108 54
109 186
111 41
112 29
113 33
121 24
124 0
125 128
126 64
127 540
129 7
131 9
133 9
141 14
142 74
143 3
152 58
153 86
155 155
165 107
166 693
167 55
205 45
206 16
209 864
210 505
219 178
238 4
239 26
250 2
252 40
255 119
263 31
264 37
265 48
274 3
275 55
277 372
278 186
319 274
320 137
323 42
335 80
336 34
353 163
361 33
391 106
392 108
393 73

$$$$

     RDKit          2D

 29 32  0  0  0  0  0  0  0  0999 V2000
   -8.7626    4.4258    0.0000 C   0  0  0  0  0  0  0  0  0  0  0  0
    4.1000   -0.0000    0.0000 C   0  0  0  0  0  0  0  0  0  0  0  0
   -9.9190    2.5105    0.0000 C   0  0  0  0  0  0  0  0  0  0  0  0
   -9.5043    0.5477    0.0000 C   0  0  0  0  0  0  0  0  0  0  0  0
    3.0195    1.9591    0.0000 C   0  0  0  0  0  0  0  0  0  0  0  0
    1.1124    2.5814    0.0000 C   0  0  0  0  0  0  0  0  0  0  0  0
   -5.0332    3.1291    0.0000 C   0  0  0  0  0  0  0  0  0  0  0  0
   -6.5257    4.4697    0.0000 C   0  0  0  0  0  0  0  0  0  0  0  0
    1.1124   -2.5814    0.0000 C   0  0  0  0  0  0  0  0  0  0  0  0
    3.0195   -1.9591    0.0000 C   0  0  0  0  0  0  0  0  0  0  0  0
   -6.2071   -1.5004    0.0000 C   0  0  0  0  0  0  0  0  0  0  0  0
   -2.3100    0.7500    0.0000 C   0  0  0  0  0  0  0  0  0  0  0  0
   -7.5066   -0.7496    0.0000 C   0  0  0  0  0  0  0  0  0  0  0  0
   -1.0100    1.5000    0.0000 C   0  0  0  0  0  0  0  0  0  0  0  0
   -3.6089   -1.5002    0.0000 C   0  0  0  0  0  0  0  0  0  0  0  0
   -4.9086    0.7504    0.0000 C   0  0  0  0  0  0  0  0  0  0  0  0
   -1.0100   -1.5000    0.0000 C   0  0  0  0  0  0  0  0  0  0  0  0
   -8.0126    3.1268    0.0000 C   0  0  0  0  0  0  0  0  0  0  0  0
    2.6000    0.0000    0.0000 C   0  0  0  0  0  0  0  0  0  0  0  0
   -4.9081   -0.7504    0.0000 C   0  0  0  0  0  0  0  0  0  0  0  0
   -2.3100   -0.7500    0.0000 C   0  0  0  0  0  0  0  0  0  0  0  0
   -7.5071    0.7512    0.0000 C   0  0  0  0  0  0  0  0  0  0  0  0
    0.2900    0.7500    0.0000 C   0  0  0  0  0  0  0  0  0  0  0  0
   -6.2081    1.5012    0.0000 C   0  0  0  0  0  0  0  0  0  0  0  0
    0.2900   -0.7500    0.0000 C   0  0  0  0  0  0  0  0  0  0  0  0
   -8.6205    1.7597    0.0000 C   0  0  0  0  0  0  0  0  0  0  0  0
    1.7200    1.2100    0.0000 C   0  0  0  0  0  0  0  0  0  0  0  0
   -6.5247    2.9697    0.0000 C   0  0  0  0  0  0  0  0  0  0  0  0
    1.7200   -1.2100    0.0000 C   0  0  0  0  0  0  0  0  0  0  0  0
 13 11  2  0
 14 12  2  0
 18  1  1  0
 19  2  1  0
 20 11  1  0
 20 15  1  0
 20 16  2  0
 21 12  1  0
 21 15  1  0
 21 17  2  0
 22 13  1  0
 23 14  1  0
 24 16  1  0
 24 22  2  0
 25 17  1  0
 25 23  2  0
 26  3  1  0
 26  4  1  0
 26 18  1  0
 26 22  1  0
 27  5  1  0
 27  6  1  0
 27 19  1  0
 27 23  1  0
 28  7  1  0
 28  8  1  0
 28 18  1  0
 28 24  1  0
 29  9  1  0
 29 10  1  0
 29 19  1  0
 29 25  1  0
M  END
>  <NAME>  (1255) 
BIS(1,1,2,3,3-PENTAMETHYLINDAN-5-YL)-METHANE

>  <SYNONYMS>  (1255) 
BIS(2,3-DIHYDRO-1,1,2,3,3-PENTAMETHYL-1H-INDEN-6-YL)-METHANE

>  <SPECTRUM TYPE>  (1255) 
MS1

>  <INSTRUMENT TYPE>  (1255) 
EI-B

>  <INSTRUMENT>  (1255) 
JEOL JMS-D-300

>  <ION MODE>  (1255) 
P

>  <INCHIKEY>  (1255) 
ONWXJPHQWJMWHT-UHFFFAOYSA-N

>  <FORMULA>  (1255) 
C29H40

>  <EXACT MASS>  (1255) 
388.31300128

>  <MW>  (1255) 
388

>  <ID>  (1255) 
JP010077

>  <CONTRIBUTOR>  (1255) 
University of Tokyo Team, {Faculty of Engineering, University of Tokyo

>  <COMMENT>  (1255) 
SMILES=c(c34)cc(cc3C(C)(C)C(C)C4(C)C)Cc(c2)ccc(c21)C(C)(C)C(C)C1(C)C
InChI=InChI=1S/C29H40/c1-18-26(3,4)22-13-11-20(16-24(22)28(18,7)8)15-21-12-14-23-25(17-21)29(9,10)19(2)27(23,5)6/h11-14,16-19H,15H2,1-10H3
computed SMILES=C=1C=C2C(=CC1CC3=CC=C4C(=C3)C(C)(C)C(C)C4(C)C)C(C)(C)C(C)C2(C)C
accession=JP010077
date=2016.01.19 (Created 2008.10.21, modified 2011.05.06)
author=KURARAY CO., LTD.
license=CC BY-NC-SA
exact mass=388.313
ionization energy=70 eV
ion type=[M]+*
computed spectral entropy=2.03150979675508
computed normalized entropy=0.7327122773239749
SPLASH=splash10-00di-0219000000-d8b78c90c800b80e7335
submitter=submitter = University of Tokyo Team (Faculty of Engineering, University of Tokyo)
MoNA Rating=3.75

>  <NUM PEAKS>  (1255) 
16

>  <MASS SPECTRAL PEAKS>  (1255) 
57 2
143 10.3
156 3.6
157 0.59
159 4.7
171 12.2
179 10.6
185 0.32
186 5.6
201 20.7
202 3.3
373 99.99
374 31.6
375 4.2
388 28.9
389 8.5

>  <PREDICTED SPECTRUM>  (1255) 
27 12
28 1
29 20
43 84
55 117
57 16
69 67
78 5
83 6
91 40
92 1
95 24
97 22
104 6
105 45
111 18
115 53
117 63
119 4
123 52
125 61
128 56
129 46
130 53
131 41
132 2
134 9
135 16
139 28
141 65
142 35
143 97
144 41
145 64
154 19
155 60
156 104
157 94
158 39
159 117
160 2
161 36
165 3
167 58
169 73
170 84
171 122
172 44
173 28
179 235
180 54
181 0
182 21
183 28
184 26
185 103
186 76
187 25
193 18
194 10
199 41
200 31
201 278
202 74
205 5
214 7
215 63
228 42
231 16
232 16
233 18
285 19
301 10
303 13
343 18
373 999
374 566
375 209
376 40
387 20
388 563
389 373
390 150
391 40

$$$$

     RDKit          2D

 28 31  0  0  1  0  0  0  0  0999 V2000
    3.1899    4.8613    0.0000 C   0  0  0  0  0  0  0  0  0  0  0  0
    2.4540    3.3421    0.0000 C   0  0  0  0  0  0  0  0  0  0  0  0
   -1.6000    1.1000    0.0000 C   0  0  0  0  0  0  0  0  0  0  0  0
    5.6608    4.0584    0.0000 C   0  0  0  0  0  0  0  0  0  0  0  0
    4.6100    1.1000    0.0000 C   0  0  0  0  0  0  0  0  0  0  0  0
    3.7300   -0.1100    0.0000 C   0  0  0  0  0  0  0  0  0  0  0  0
    6.1243    5.4850    0.0000 C   0  0  0  0  0  0  0  0  0  0  0  0
   -4.2000   -0.4000    0.0000 C   0  0  0  0  0  0  0  0  0  0  0  0
   -0.3000    1.8500    0.0000 C   0  0  0  0  0  0  0  0  0  0  0  0
   -2.9000    0.3500    0.0000 C   0  0  0  0  0  0  0  0  0  0  0  0
    1.0000    2.6000    0.0000 C   0  0  0  0  0  0  0  0  0  0  0  0
   -2.9000   -2.6500    0.0000 C   0  0  0  0  0  0  0  0  0  0  0  0
    1.0000   -1.9000    0.0000 C   0  0  0  0  0  0  0  0  0  0  0  0
    4.1936    3.7466    0.0000 C   0  0  0  0  0  0  0  0  0  0  0  0
   -4.2000   -1.9000    0.0000 C   0  0  0  0  0  0  0  0  0  0  0  0
    1.0000   -0.4000    0.0000 C   0  0  0  0  0  0  0  0  0  0  0  0
    3.7300    2.3200    0.0000 C   0  0  0  0  0  0  0  0  0  0  0  0
    2.3000    0.3500    0.0000 C   0  0  0  0  0  0  0  0  0  0  0  0
   -0.3000    0.3500    0.0000 C   0  0  0  0  0  0  0  0  0  0  0  0
   -1.6000   -1.9000    0.0000 C   0  0  0  0  0  0  0  0  0  0  0  0
   -0.3000   -2.6500    0.0000 C   0  0  0  0  0  0  0  0  0  0  0  0
    7.5916    5.7968    0.0000 C   0  0  0  0  0  0  0  0  0  0  0  0
    2.3000    1.8500    0.0000 C   0  0  0  0  0  0  0  0  0  0  0  0
   -1.6000   -0.4000    0.0000 C   0  0  0  0  0  0  0  0  0  0  0  0
   -5.4989   -2.6502    0.0000 O   0  0  0  0  0  0  0  0  0  0  0  0
   -0.3000   -4.1500    0.0000 O   0  0  0  0  0  0  0  0  0  0  0  0
    8.5952    4.6821    0.0000 O   0  0  0  0  0  0  0  0  0  0  0  0
    8.0551    7.2234    0.0000 O   0  0  0  0  0  0  0  0  0  0  0  0
  6  5  1  0
  7  4  1  0
 10  8  1  0
 11  9  1  0
 14  1  1  6
 14  4  1  0
 15  8  1  0
 15 12  1  0
 16 13  1  6
 17  5  1  0
 17 14  1  0
 18  6  1  1
 18 16  1  0
 19  9  1  1
 19 16  1  0
 20 12  2  0
 21 13  1  0
 21 20  1  0
 22  7  1  0
 23  2  1  1
 23 11  1  0
 23 17  1  0
 23 18  1  0
 24  3  1  1
 24 10  1  0
 24 19  1  0
 24 20  1  0
 25 15  2  0
 26 21  1  0
 27 22  2  0
 28 22  1  0
M  END
>  <NAME>  (1256) 
4,5-DEHYDRO-6-HYDROXY-3-OXO-CHOLANIC ACID

>  <SYNONYMS>  (1256) 


>  <SPECTRUM TYPE>  (1256) 
MS1

>  <INSTRUMENT TYPE>  (1256) 
EI-B

>  <INSTRUMENT>  (1256) 
JEOL JMS-D-300

>  <ION MODE>  (1256) 
P

>  <INCHIKEY>  (1256) 
VNVAJHCQVWXNTN-YUZXQEEUSA-N

>  <FORMULA>  (1256) 
C24H36O4

>  <EXACT MASS>  (1256) 
388.261359632

>  <MW>  (1256) 
388

>  <ID>  (1256) 
JP010076

>  <CONTRIBUTOR>  (1256) 
University of Tokyo Team, {Faculty of Engineering, University of Tokyo

>  <COMMENT>  (1256) 
SMILES=C(C1([H])3)(C)(C4)C(=CC(=O)C4)C(O)CC1(C(C(C)(CC3)2)([H])CCC2C([H])(C)CCC(O)=O)[H]
InChI=InChI=1S/C24H36O4/c1-14(4-7-22(27)28)17-5-6-18-16-13-21(26)20-12-15(25)8-10-24(20,3)19(16)9-11-23(17,18)2/h12,14,16-19,21,26H,4-11,13H2,1-3H3,(H,27,28)/t14-,16+,17?,18+,19+,21?,23-,24-/m1/s1
computed SMILES=O=C(O)CCC(C)C1CCC2C3CC(O)C4=CC(=O)CCC4(C)C3CCC12C
accession=JP010076
date=2016.01.19 (Created 2008.10.21, modified 2011.05.06)
author=KURARAY CO., LTD.
license=CC BY-NC-SA
exact mass=388.26136
ionization energy=70 eV
ion type=[M]+*
computed spectral entropy=4.47455997047369
computed normalized entropy=0.8571369692805481
SPLASH=splash10-00dr-2921000000-32cc2f958baf14859e59
submitter=submitter = University of Tokyo Team (Faculty of Engineering, University of Tokyo)
MoNA Rating=3.75

>  <NUM PEAKS>  (1256) 
185

>  <MASS SPECTRAL PEAKS>  (1256) 
29 3.5
39 2
41 14.4
43 0.59
45 2.6
53 5.2
55 31.4
57 0.18
59 2.6
60 1.8
65 3.5
67 1.66
68 1.8
69 7.2
71 0.9
77 0.96
78 2.6
79 17.6
80 1.9
81 2.4
82 2.8
83 7.4
85 3.3
91 2.07
92 4
93 21
94 4
95 3.13
96 2.7
97 4
99 2.1
101 0.39
103 3.2
104 3.2
105 17.3
106 0.35
107 22
108 4.9
109 19.8
110 0.24
111 1.6
115 6.7
116 3.5
117 1
118 4.9
119 15.2
120 3.9
121 1.59
122 19.1
123 21.3
124 99.99
125 1.14
127 4.5
128 6.4
129 7.6
130 0.35
131 15.3
132 7.4
133 21.1
134 0.7
135 16.8
136 39.9
137 8.6
138 0.16
139 1
141 4.5
142 3.2
143 0.86
144 3.4
145 16
146 5.6
147 1.36
148 5.8
149 5
150 2.7
151 0.32
152 7.5
153 4
155 5.3
156 0.26
157 7.5
158 3.1
159 13.2
160 1.16
161 29.9
162 11.7
163 6.7
164 0.18
165 3
167 2
169 3.7
170 0.19
171 6.5
172 4
173 15.9
174 2.27
175 26.1
176 9
177 4.1
179 0.2
181 5.1
183 4.1
184 1.9
185 0.61
186 2.5
187 8.3
188 3.2
189 0.33
191 1
193 2
194 2.9
195 0.65
196 1.4
197 3.4
198 3.4
199 0.58
200 3.5
201 5
202 1.1
203 0.09
207 3.8
208 1.7
209 4.8
211 0.44
212 1.8
213 5.1
214 3.5
215 0.42
217 2.7
219 1.9
221 0.9
224 0.1
225 3.5
226 1.8
227 10.1
228 0.49
229 7.6
230 1.8
231 1.1
233 0.19
234 1.9
235 30.3
236 5.3
237 0.15
241 2.8
242 3.5
243 1.6
244 0.1
245 1.9
246 1.3
247 4.4
249 0.12
251 2.7
253 1.9
255 1.3
260 0.14
267 2.8
268 2.5
269 23.3
270 0.51
271 2.7
304 1.9
313 1.9
319 0.18
326 3.6
327 2.2
328 1.8
332 1.28
333 3.3
337 3.4
342 5.9
343 0.18
344 1
352 3.7
353 2.2
355 0.76
356 2.5
360 4.1
369 0.8
370 7.07
371 19.3
372 4.8
373 1.6
388 0.76
389 1.8

>  <PREDICTED SPECTRUM>  (1256) 
17 24
18 57
19 1
26 19
27 43
28 42
29 21
31 54
39 23
40 25
41 494
42 63
43 335
44 116
45 149
46 6
49 34
50 31
51 92
52 62
53 369
54 124
55 674
56 154
57 272
58 140
59 159
60 137
61 78
63 29
64 59
65 216
66 113
67 554
68 226
69 383
70 130
71 303
72 50
73 221
74 27
77 348
78 134
79 561
80 194
81 598
82 133
83 350
84 155
85 205
86 89
87 37
91 514
92 158
93 628
94 251
95 602
96 237
97 329
98 173
99 173
100 39
101 98
103 163
104 154
105 593
106 228
107 736
108 331
109 654
110 416
111 258
112 104
113 17
114 36
115 193
116 160
117 449
118 224
119 563
120 316
121 603
122 578
123 682
124 999
125 349
126 1
127 104
128 178
129 279
130 130
131 430
132 231
133 495
134 374
135 476
136 483
137 520
138 391
139 198
140 78
141 250
142 190
143 305
144 285
145 483
146 255
147 505
148 335
149 298
150 234
151 308
152 269
153 154
154 49
155 267
156 113
157 333
158 204
159 463
160 271
161 459
162 220
163 384
164 155
165 142
166 110
167 175
168 121
169 230
170 102
171 323
172 234
173 358
174 377
175 391
176 278
177 328
178 117
179 156
180 27
181 158
182 64
183 335
184 250
185 241
186 201
187 321
188 222
189 203
190 96
191 172
192 128
193 190
194 118
195 284
196 140
197 252
198 137
199 183
200 214
201 258
202 153
203 108
204 69
205 101
206 103
207 191
208 78
209 234
210 205
211 279
212 203
213 233
214 111
215 170
217 56
218 73
219 182
220 98
221 107
222 13
223 171
224 128
225 349
226 254
227 439
228 233
229 357
230 99
231 147
232 77
233 158
234 133
235 236
236 172
237 215
238 83
239 104
240 8
241 123
242 145
243 259
244 204
245 215
246 209
247 419
248 220
249 137
251 267
252 157
253 261
254 63
255 109
256 164
257 35
260 124
261 98
263 60
264 106
265 193
266 167
267 237
268 156
269 708
270 189
271 305
272 28
273 122
280 4
281 27
284 34
285 59
286 36
287 188
288 80
291 9
297 77
298 123
299 143
300 106
308 60
309 129
310 39
311 35
312 94
313 78
314 18
316 130
317 7
324 63
325 60
326 81
327 176
328 169
329 185
330 94
332 55
333 33
334 21
335 62
336 6
337 236
338 85
341 35
342 237
343 66
344 196
345 29
346 34
352 144
353 24
354 29
355 282
356 94
358 2
360 140
361 33
368 9
369 12
370 457
371 482
372 333
373 252
374 31
375 13
387 26
388 348
389 221
390 68

$$$$

     RDKit          2D

 28 28  0  0  0  0  0  0  0  0999 V2000
   16.3827    8.8157    0.0000 C   0  0  0  0  0  0  0  0  0  0  0  0
   15.0837   11.0657    0.0000 C   0  0  0  0  0  0  0  0  0  0  0  0
    9.8875   11.0657    0.0000 C   0  0  0  0  0  0  0  0  0  0  0  0
    4.6914   11.0657    0.0000 C   0  0  0  0  0  0  0  0  0  0  0  0
   -0.5048   11.0657    0.0000 C   0  0  0  0  0  0  0  0  0  0  0  0
   -6.8761    6.5212    0.0000 C   0  0  0  0  0  0  0  0  0  0  0  0
   -7.6261    7.8202    0.0000 C   0  0  0  0  0  0  0  0  0  0  0  0
   -5.3929    6.2921    0.0000 C   0  0  0  0  0  0  0  0  0  0  0  0
   12.4856    9.5657    0.0000 C   0  0  0  0  0  0  0  0  0  0  0  0
    7.2895    9.5657    0.0000 C   0  0  0  0  0  0  0  0  0  0  0  0
    2.0933    9.5657    0.0000 C   0  0  0  0  0  0  0  0  0  0  0  0
   13.7847    8.8157    0.0000 C   0  0  0  0  0  0  0  0  0  0  0  0
   11.1866    8.8157    0.0000 C   0  0  0  0  0  0  0  0  0  0  0  0
    8.5885    8.8157    0.0000 C   0  0  0  0  0  0  0  0  0  0  0  0
    5.9904    8.8157    0.0000 C   0  0  0  0  0  0  0  0  0  0  0  0
    3.3923    8.8157    0.0000 C   0  0  0  0  0  0  0  0  0  0  0  0
    0.7943    8.8157    0.0000 C   0  0  0  0  0  0  0  0  0  0  0  0
   -7.0829    9.2193    0.0000 C   0  0  0  0  0  0  0  0  0  0  0  0
   -1.8038    8.8157    0.0000 C   0  0  0  0  0  0  0  0  0  0  0  0
   -4.2898    7.3216    0.0000 C   0  0  0  0  0  0  0  0  0  0  0  0
   -3.1028    9.5657    0.0000 C   0  0  0  0  0  0  0  0  0  0  0  0
   15.0837    9.5657    0.0000 C   0  0  0  0  0  0  0  0  0  0  0  0
    9.8875    9.5657    0.0000 C   0  0  0  0  0  0  0  0  0  0  0  0
    4.6914    9.5657    0.0000 C   0  0  0  0  0  0  0  0  0  0  0  0
   -0.5048    9.5657    0.0000 C   0  0  0  0  0  0  0  0  0  0  0  0
   -5.6398    9.6599    0.0000 C   0  0  0  0  0  0  0  0  0  0  0  0
   -4.4019    8.8157    0.0000 N   0  0  0  0  0  0  0  0  0  0  0  0
   -5.4140   11.1428    0.0000 O   0  0  0  0  0  0  0  0  0  0  0  0
  7  6  1  0
  8  6  1  0
 12  9  1  0
 13  9  1  0
 14 10  1  0
 15 10  1  0
 16 11  1  0
 17 11  1  0
 18  7  1  0
 20  8  1  0
 21 19  1  0
 22  1  1  0
 22  2  1  0
 22 12  2  0
 23  3  1  0
 23 13  1  0
 14 23  2  0
 24  4  1  0
 24 15  1  0
 16 24  2  0
 25  5  1  0
 25 17  1  0
 19 25  2  0
 26 18  1  0
 27 20  1  0
 27 21  1  0
 27 26  1  0
 28 26  2  0
M  END
>  <NAME>  (1257) 
N-(3,7,11,15-TETRAMETHYL-2,6,10,14-HEXADECATETRAEN-1-YL)-EPSILON-CAPROLACTAM

>  <SYNONYMS>  (1257) 
1-(3,7,11,15-TETRAMETHYL-2,6,10,14-HEXADECATETRAEN-1-YL)-AZACYCLOHEPTAN-2-ONE

>  <SPECTRUM TYPE>  (1257) 
MS1

>  <INSTRUMENT TYPE>  (1257) 
EI-B

>  <INSTRUMENT>  (1257) 
JEOL JMS-D-300

>  <ION MODE>  (1257) 
P

>  <INCHIKEY>  (1257) 
CEMMKPPUZSMGFQ-PHPAXXOYSA-N

>  <FORMULA>  (1257) 
C26H43NO

>  <EXACT MASS>  (1257) 
385.334464996

>  <MW>  (1257) 
385

>  <ID>  (1257) 
JP010075

>  <CONTRIBUTOR>  (1257) 
University of Tokyo Team, {Faculty of Engineering, University of Tokyo

>  <COMMENT>  (1257) 
SMILES=CC(C)=CCCC(C)=CCCC(C)=CCCC(C)=CCN(C1)C(=O)CCCC1
InChI=InChI=1S/C26H43NO/c1-22(2)12-9-13-23(3)14-10-15-24(4)16-11-17-25(5)19-21-27-20-8-6-7-18-26(27)28/h12,14,16,19H,6-11,13,15,17-18,20-21H2,1-5H3/b23-14+,24-16+,25-19+
computed SMILES=O=C1N(CC=C(C)CCC=C(C)CCC=C(C)CCC=C(C)C)CCCCC1
accession=JP010075
date=2016.01.19 (Created 2008.10.21, modified 2011.05.06)
author=KURARAY CO., LTD.
license=CC BY-NC-SA
exact mass=385.33447
ionization energy=70 eV
ion type=[M]+*
computed spectral entropy=3.339338616458101
computed normalized entropy=0.7914047916920984
SPLASH=splash10-003s-5920000000-ffe1f8ac06f524066a17
submitter=submitter = University of Tokyo Team (Faculty of Engineering, University of Tokyo)
MoNA Rating=3.75

>  <NUM PEAKS>  (1257) 
68

>  <MASS SPECTRAL PEAKS>  (1257) 
29 1.2
30 5.6
39 5.5
41 2.53
43 5.1
44 1.9
53 7.6
55 1.74
56 6.7
57 2.7
67 7.5
68 0.78
69 47.6
70 3.8
71 4.1
77 0.41
79 4.4
80 6.2
81 12.8
82 0.36
83 3.1
84 5.4
85 4.5
91 0.72
93 12.2
94 6.3
95 6.2
96 1.96
97 7.3
98 15.2
99 5.6
105 0.68
107 6
108 4.3
109 4.7
112 0.5
114 24.5
119 3.3
121 5.8
122 0.5
123 5.6
126 96.6
127 11.2
133 0.5
134 4.7
135 12.3
136 5.6
137 0.42
138 12.4
147 5.4
148 4.4
152 0.73
161 4.5
166 4.3
167 4
179 0.54
180 99.99
181 14.6
182 4.9
192 0.5
203 6.9
248 63.7
249 12.2
250 0.42
272 4
316 9.7
317 4.2
385 4.5

>  <PREDICTED SPECTRUM>  (1257) 
26 27
27 174
28 139
29 188
30 203
39 139
40 89
41 630
42 191
43 327
44 152
51 14
52 40
53 295
54 171
55 472
56 204
57 104
58 126
59 31
65 72
66 93
67 354
68 317
69 999
70 226
71 144
72 36
73 38
77 137
78 20
79 238
80 271
81 585
82 151
83 240
84 336
85 95
86 35
91 180
92 115
93 364
94 180
95 339
96 229
97 164
98 248
99 236
100 427
101 264
105 221
106 132
107 295
108 183
109 447
110 117
111 125
112 397
113 39
114 126
119 169
120 104
121 339
122 159
123 264
124 182
125 96
126 747
127 180
132 27
133 205
134 235
135 391
136 222
137 165
138 238
140 42
145 44
146 6
147 89
148 239
149 53
150 120
151 83
152 193
153 82
154 22
161 163
162 50
163 93
164 111
165 73
166 647
167 298
168 94
178 117
179 187
180 524
181 344
182 135
183 34
184 4
185 12
192 186
193 63
194 79
204 25
206 188
232 41
234 114
235 1
248 704
249 422
250 183
251 48
263 35
277 10
316 257
317 114
384 46
385 249
387 45

$$$$

     RDKit          2D

 27 29  0  0  0  0  0  0  0  0999 V2000
   -3.7389    1.4102    0.0000 C   0  0  0  0  0  0  0  0  0  0  0  0
   -1.1400    2.9100    0.0000 C   0  0  0  0  0  0  0  0  0  0  0  0
   -1.1400   -3.0900    0.0000 C   0  0  0  0  0  0  0  0  0  0  0  0
   -6.3370   -1.5906    0.0000 C   0  0  0  0  0  0  0  0  0  0  0  0
    4.2372    0.3997    0.0000 C   0  0  0  0  0  0  0  0  0  0  0  0
    9.6960    4.5213    0.0000 C   0  0  0  0  0  0  0  0  0  0  0  0
    8.7308    5.6707    0.0000 C   0  0  0  0  0  0  0  0  0  0  0  0
    9.1830    3.1118    0.0000 C   0  0  0  0  0  0  0  0  0  0  0  0
    7.2527    5.4104    0.0000 C   0  0  0  0  0  0  0  0  0  0  0  0
    7.7049    2.8515    0.0000 C   0  0  0  0  0  0  0  0  0  0  0  0
    1.4600   -1.5900    0.0000 C   0  0  0  0  0  0  0  0  0  0  0  0
    2.7600   -0.8400    0.0000 C   0  0  0  0  0  0  0  0  0  0  0  0
    3.2727    2.0696    0.0000 C   0  0  0  0  0  0  0  0  0  0  0  0
    4.7499    2.3304    0.0000 C   0  0  0  0  0  0  0  0  0  0  0  0
   -2.4400    0.6600    0.0000 C   0  0  0  0  0  0  0  0  0  0  0  0
   -1.1400    1.4100    0.0000 C   0  0  0  0  0  0  0  0  0  0  0  0
   -1.1400   -1.5900    0.0000 C   0  0  0  0  0  0  0  0  0  0  0  0
   -5.0381   -0.8404    0.0000 C   0  0  0  0  0  0  0  0  0  0  0  0
    6.7398    4.0009    0.0000 C   0  0  0  0  0  0  0  0  0  0  0  0
    0.1600   -0.8400    0.0000 C   0  0  0  0  0  0  0  0  0  0  0  0
   -2.4400   -0.8400    0.0000 C   0  0  0  0  0  0  0  0  0  0  0  0
    0.1600    0.6600    0.0000 C   0  0  0  0  0  0  0  0  0  0  0  0
    2.7600    0.6600    0.0000 C   0  0  0  0  0  0  0  0  0  0  0  0
   -5.0383    0.6596    0.0000 O   0  0  0  0  0  0  0  0  0  0  0  0
   -3.7389   -1.5902    0.0000 O   0  0  0  0  0  0  0  0  0  0  0  0
    1.4600    1.4100    0.0000 O   0  0  0  0  0  0  0  0  0  0  0  0
    5.2626    3.7401    0.0000 S   0  0  0  0  0  0  0  0  0  0  0  0
  7  6  2  0
  8  6  1  0
  9  7  1  0
 10  8  2  0
 12 11  1  0
 14 13  1  0
 15  1  1  0
 16  2  1  0
 16 15  1  0
 17  3  1  0
 18  4  1  0
 19  9  2  0
 19 10  1  0
 20 11  1  0
 20 17  2  0
 21 15  2  0
 21 17  1  0
 22 16  2  0
 22 20  1  0
 23  5  1  0
 23 12  1  0
 23 13  1  0
 24 18  2  0
 25 18  1  0
 25 21  1  0
 26 22  1  0
 26 23  1  0
 27 14  1  0
 27 19  1  0
M  END
>  <NAME>  (1258) 
6-ACETOXY-2,5,7,8-TETRAMETHYL-2-(2-PHENYLTHIOETHYL)-3,4-DIHYDRO-2H-1-BENZOPYRAN

>  <SYNONYMS>  (1258) 


>  <SPECTRUM TYPE>  (1258) 
MS1

>  <INSTRUMENT TYPE>  (1258) 
EI-B

>  <INSTRUMENT>  (1258) 
JEOL JMS-D-300

>  <ION MODE>  (1258) 
P

>  <INCHIKEY>  (1258) 
XZRSZKHNRBOICQ-UHFFFAOYSA-N

>  <FORMULA>  (1258) 
C23H28O3S

>  <EXACT MASS>  (1258) 
384.175915756

>  <MW>  (1258) 
384

>  <ID>  (1258) 
JP010074

>  <CONTRIBUTOR>  (1258) 
University of Tokyo Team, {Faculty of Engineering, University of Tokyo

>  <COMMENT>  (1258) 
SMILES=CC(=O)Oc(c(C)1)c(C)c(C2)c(OC(C)(CCSc(c3)cccc3)C2)c(C)1
InChI=InChI=1S/C23H28O3S/c1-15-16(2)22-20(17(3)21(15)25-18(4)24)11-12-23(5,26-22)13-14-27-19-9-7-6-8-10-19/h6-10H,11-14H2,1-5H3
computed SMILES=O=C(OC=1C(=C(C=2OC(C)(CCSC=3C=CC=CC3)CCC2C1C)C)C)C
accession=JP010074
date=2016.01.19 (Created 2008.10.21, modified 2011.05.06)
author=KURARAY CO., LTD.
license=CC BY-NC-SA
exact mass=384.17592
ionization energy=70 eV
ion type=[M]+*
computed spectral entropy=2.8152332952935497
computed normalized entropy=0.6993757344912648
SPLASH=splash10-00l6-1819000000-a56bb094cfd05b571c6d
submitter=submitter = University of Tokyo Team (Faculty of Engineering, University of Tokyo)
MoNA Rating=3.75

>  <NUM PEAKS>  (1258) 
56

>  <MASS SPECTRAL PEAKS>  (1258) 
41 2.6
43 10.3
45 8
53 0.28
55 3
65 1
67 2
77 0.37
79 3.4
81 1.1
91 5.6
93 0.28
105 1.9
107 2.6
109 2.6
119 0.17
121 5.1
123 29.6
124 2.3
135 0.37
136 3.2
137 2.2
147 1
149 0.22
151 0.9
152 0.9
159 1
161 0.18
163 1.8
164 47.6
165 68.3
166 0.74
171 3
175 2.4
176 1.5
177 1.01
178 2.4
189 5
190 2.4
191 0.15
203 7.5
204 2.3
205 9.2
207 0.95
216 1
217 2.3
231 5.9
232 4.71
233 9
247 3.4
342 99.99
343 0.23
344 7.4
384 79.3
385 20.2
386 6.2

>  <PREDICTED SPECTRUM>  (1258) 
29 21
39 1
41 135
42 15
43 189
45 16
53 58
55 72
65 19
67 18
71 73
77 48
79 64
91 90
104 11
105 83
107 10
108 11
109 85
115 18
117 55
119 75
121 98
122 60
123 454
124 20
125 6
129 19
131 21
136 53
137 79
138 26
145 7
147 28
151 27
159 5
161 26
163 181
164 686
165 524
171 7
175 38
176 33
177 33
178 26
179 29
180 27
189 153
190 56
191 63
203 166
204 96
205 232
206 37
217 34
231 163
232 153
233 227
247 13
267 4
342 999
343 256
344 268
384 764
385 381
386 151
387 6

$$$$

     RDKit          2D

 28 30  0  0  0  0  0  0  0  0999 V2000
    7.2525    5.4105    0.0000 C   0  0  0  0  0  0  0  0  0  0  0  0
   -3.7389    1.4102    0.0000 C   0  0  0  0  0  0  0  0  0  0  0  0
   -1.1400    2.9100    0.0000 C   0  0  0  0  0  0  0  0  0  0  0  0
   -1.1400   -3.0900    0.0000 C   0  0  0  0  0  0  0  0  0  0  0  0
    4.2372    0.3997    0.0000 C   0  0  0  0  0  0  0  0  0  0  0  0
    6.7398    4.0009    0.0000 C   0  0  0  0  0  0  0  0  0  0  0  0
   -8.9348   -3.0910    0.0000 C   0  0  0  0  0  0  0  0  0  0  0  0
   -7.6352   -3.8417    0.0000 C   0  0  0  0  0  0  0  0  0  0  0  0
   -8.9356   -1.5902    0.0000 C   0  0  0  0  0  0  0  0  0  0  0  0
   -6.3363   -3.0915    0.0000 C   0  0  0  0  0  0  0  0  0  0  0  0
   -7.6366   -0.8400    0.0000 C   0  0  0  0  0  0  0  0  0  0  0  0
    1.4600   -1.5900    0.0000 C   0  0  0  0  0  0  0  0  0  0  0  0
    2.7600   -0.8400    0.0000 C   0  0  0  0  0  0  0  0  0  0  0  0
    3.2727    2.0696    0.0000 C   0  0  0  0  0  0  0  0  0  0  0  0
    4.7499    2.3304    0.0000 C   0  0  0  0  0  0  0  0  0  0  0  0
   -2.4400    0.6600    0.0000 C   0  0  0  0  0  0  0  0  0  0  0  0
   -1.1400    1.4100    0.0000 C   0  0  0  0  0  0  0  0  0  0  0  0
   -1.1400   -1.5900    0.0000 C   0  0  0  0  0  0  0  0  0  0  0  0
   -6.3370   -1.5906    0.0000 C   0  0  0  0  0  0  0  0  0  0  0  0
    0.1600   -0.8400    0.0000 C   0  0  0  0  0  0  0  0  0  0  0  0
   -2.4400   -0.8400    0.0000 C   0  0  0  0  0  0  0  0  0  0  0  0
    0.1600    0.6600    0.0000 C   0  0  0  0  0  0  0  0  0  0  0  0
   -5.0381   -0.8404    0.0000 C   0  0  0  0  0  0  0  0  0  0  0  0
    2.7600    0.6600    0.0000 C   0  0  0  0  0  0  0  0  0  0  0  0
   -5.0383    0.6596    0.0000 O   0  0  0  0  0  0  0  0  0  0  0  0
    5.2626    3.7401    0.0000 O   0  0  0  0  0  0  0  0  0  0  0  0
   -3.7389   -1.5902    0.0000 O   0  0  0  0  0  0  0  0  0  0  0  0
    1.4600    1.4100    0.0000 O   0  0  0  0  0  0  0  0  0  0  0  0
  6  1  1  0
  8  7  2  0
  9  7  1  0
 10  8  1  0
 11  9  2  0
 13 12  1  0
 15 14  1  0
 16  2  1  0
 17  3  1  0
 17 16  1  0
 18  4  1  0
 19 10  2  0
 19 11  1  0
 20 12  1  0
 20 18  2  0
 21 16  2  0
 21 18  1  0
 22 17  2  0
 22 20  1  0
 23 19  1  0
 24  5  1  0
 24 13  1  0
 24 14  1  0
 25 23  2  0
 26  6  1  0
 26 15  1  0
 27 21  1  0
 27 23  1  0
 28 22  1  0
 28 24  1  0
M  END
>  <NAME>  (1259) 
6-BENZOYLOXY-2,5,7,8-TETRAMETHYL-3,4-DIHYDRO-2H-1-BENZOPYRAN ETHANOL ETHYL ETHER

>  <SYNONYMS>  (1259) 
2-(2-ETHOXYETHYL)-6-BENZOYLOXY-2,5,7,8-TETRAMETHYL-3,4-DIHYDRO-2H-1-BENZOPYRAN

>  <SPECTRUM TYPE>  (1259) 
MS1

>  <INSTRUMENT TYPE>  (1259) 
EI-B

>  <INSTRUMENT>  (1259) 
JEOL JMS-D-300

>  <ION MODE>  (1259) 
P

>  <INCHIKEY>  (1259) 
NXLFZDMUKZIROL-UHFFFAOYSA-N

>  <FORMULA>  (1259) 
C24H30O4

>  <EXACT MASS>  (1259) 
382.21440944

>  <MW>  (1259) 
382

>  <ID>  (1259) 
JP010073

>  <CONTRIBUTOR>  (1259) 
University of Tokyo Team, {Faculty of Engineering, University of Tokyo

>  <COMMENT>  (1259) 
SMILES=CCOCCC(C)(C3)Oc(c(C)1)c(C3)c(C)c(OC(=O)c(c2)cccc2)c(C)1
InChI=InChI=1S/C24H30O4/c1-6-26-15-14-24(5)13-12-20-18(4)21(16(2)17(3)22(20)28-24)27-23(25)19-10-8-7-9-11-19/h7-11H,6,12-15H2,1-5H3
computed SMILES=O=C(OC=1C(=C(C=2OC(C)(CCOCC)CCC2C1C)C)C)C=3C=CC=CC3
accession=JP010073
date=2016.01.19 (Created 2008.10.21, modified 2011.05.06)
author=KURARAY CO., LTD.
license=CC BY-NC-SA
exact mass=382.21441
ionization energy=70 eV
ion type=[M]+*
computed spectral entropy=1.4243563698465886
computed normalized entropy=0.5940027431574811
SPLASH=splash10-0a4i-0912000000-92749c796832a7ddcf1e
submitter=submitter = University of Tokyo Team (Faculty of Engineering, University of Tokyo)
MoNA Rating=3.75

>  <NUM PEAKS>  (1259) 
11

>  <MASS SPECTRAL PEAKS>  (1259) 
77 11.8
105 99.99
106 7.9
164 0.37
231 11.8
232 3.1
269 1.9
277 0.3
354 3.1
382 22.2
383 5.2

>  <PREDICTED SPECTRUM>  (1259) 
41 40
43 7
51 72
53 2
67 1
69 12
70 11
77 363
78 59
79 86
80 1
94 1
103 2
105 999
106 341
115 7
117 15
146 1
147 18
148 24
149 40
161 15
175 31
176 43
189 9
203 74
204 44
205 4
206 19
213 10
220 17
229 0
230 2
231 243
232 258
233 53
277 115
382 459
383 232

$$$$

     RDKit          2D

 27 30  0  0  0  0  0  0  0  0999 V2000
   13.3695    0.7294    0.0000 C   0  0  0  0  0  0  0  0  0  0  0  0
   10.5494   -0.2957    0.0000 C   0  0  0  0  0  0  0  0  0  0  0  0
   11.5926    5.6129    0.0000 C   0  0  0  0  0  0  0  0  0  0  0  0
    5.6905    3.1113    0.0000 C   0  0  0  0  0  0  0  0  0  0  0  0
   -2.3100   -0.7500    0.0000 C   0  0  0  0  0  0  0  0  0  0  0  0
   -2.3100    0.7500    0.0000 C   0  0  0  0  0  0  0  0  0  0  0  0
   -1.0100   -1.5000    0.0000 C   0  0  0  0  0  0  0  0  0  0  0  0
   -1.0100    1.5000    0.0000 C   0  0  0  0  0  0  0  0  0  0  0  0
    8.7714    4.5878    0.0000 C   0  0  0  0  0  0  0  0  0  0  0  0
    7.3608    4.0752    0.0000 C   0  0  0  0  0  0  0  0  0  0  0  0
    6.3500    1.2990    0.0000 C   0  0  0  0  0  0  0  0  0  0  0  0
    4.8500    1.2990    0.0000 C   0  0  0  0  0  0  0  0  0  0  0  0
   12.2208    1.6940    0.0000 C   0  0  0  0  0  0  0  0  0  0  0  0
   10.8102    1.1814    0.0000 C   0  0  0  0  0  0  0  0  0  0  0  0
   11.3318    4.1358    0.0000 C   0  0  0  0  0  0  0  0  0  0  0  0
    9.9212    3.6232    0.0000 C   0  0  0  0  0  0  0  0  0  0  0  0
    0.2900   -0.7500    0.0000 C   0  0  0  0  0  0  0  0  0  0  0  0
    0.2900    0.7500    0.0000 C   0  0  0  0  0  0  0  0  0  0  0  0
   12.4816    3.1712    0.0000 C   0  0  0  0  0  0  0  0  0  0  0  0
    9.6604    2.1460    0.0000 C   0  0  0  0  0  0  0  0  0  0  0  0
    2.6000    0.0000    0.0000 C   0  0  0  0  0  0  0  0  0  0  0  0
    7.1000    2.5981    0.0000 C   0  0  0  0  0  0  0  0  0  0  0  0
    1.7200   -1.2100    0.0000 N   0  0  0  0  0  0  0  0  0  0  0  0
    1.7200    1.2100    0.0000 N   0  0  0  0  0  0  0  0  0  0  0  0
   13.8912    3.6841    0.0000 O   0  0  0  0  0  0  0  0  0  0  0  0
    8.2498    1.6335    0.0000 O   0  0  0  0  0  0  0  0  0  0  0  0
    4.1000   -0.0000    0.0000 S   0  0  0  0  0  0  0  0  0  0  0  0
  6  5  2  0
  7  5  1  0
  8  6  1  0
 10  9  1  0
 12 11  1  0
 13  1  1  0
 14  2  1  0
 14 13  1  0
 15  3  1  0
 16  9  1  0
 16 15  2  0
 17  7  2  0
 18  8  2  0
 18 17  1  0
 19 13  2  0
 19 15  1  0
 20 14  2  0
 20 16  1  0
 22  4  1  0
 22 10  1  0
 22 11  1  0
 23 17  1  0
 23 21  2  0
 24 18  1  0
 24 21  1  0
 25 19  1  0
 26 20  1  0
 26 22  1  0
 27 12  1  0
 27 21  1  0
M  END
>  <NAME>  (1260) 
3,4-DIHYDRO-6-HYDROXY-2,5,7,8-TETRAMETHYL-2-(2-BENZIMIDAZOLETHIO)ETHYL-2H-1-BENZOPYRAN

>  <SYNONYMS>  (1260) 


>  <SPECTRUM TYPE>  (1260) 
MS1

>  <INSTRUMENT TYPE>  (1260) 
EI-B

>  <INSTRUMENT>  (1260) 
JEOL JMS-D-300

>  <ION MODE>  (1260) 
P

>  <INCHIKEY>  (1260) 
QWRCLQDGIAHWMP-UHFFFAOYSA-N

>  <FORMULA>  (1260) 
C22H26N2O2S

>  <EXACT MASS>  (1260) 
382.171499072

>  <MW>  (1260) 
382

>  <ID>  (1260) 
JP010072

>  <CONTRIBUTOR>  (1260) 
University of Tokyo Team, {Faculty of Engineering, University of Tokyo

>  <COMMENT>  (1260) 
SMILES=CC1=C(C(=C2CCC(OC2=C1C)(C)CCSC3=NC4=CC=CC=C4N3)C)O
InChI=InChI=1S/C22H26N2O2S/c1-13-14(2)20-16(15(3)19(13)25)9-10-22(4,26-20)11-12-27-21-23-17-7-5-6-8-18(17)24-21/h5-8,25H,9-12H2,1-4H3,(H,23,24)
computed SMILES=OC=1C(=C(C=2OC(C)(CCSC3=NC=4C=CC=CC4N3)CCC2C1C)C)C
ionization energy=70 eV
accession=JP010072
date=2016.01.19 (Created 2008.10.21, modified 2011.05.06)
author=KURARAY CO., LTD.
license=CC BY-NC-SA
exact mass=382.1715
ion type=[M]+*
computed spectral entropy=3.3805121086531202
computed normalized entropy=0.819094265721659
SPLASH=splash10-001i-2971000000-4030079311605a3f818e
submitter=submitter = University of Tokyo Team (Faculty of Engineering, University of Tokyo)
MoNA Rating=3.75

>  <NUM PEAKS>  (1260) 
62

>  <MASS SPECTRAL PEAKS>  (1260) 
28 4.3
41 9.1
43 11.3
49 0.77
51 2.9
53 3.5
55 4.9
65 0.33
67 3.2
69 2.8
77 3.4
79 0.3
84 6.2
86 3.9
91 7.3
93 0.46
105 2.6
107 2.3
118 4.9
119 0.66
121 9.2
122 4.8
131 3.1
135 0.37
136 8.6
137 3.2
149 5.2
150 0.61
151 42.5
152 4.7
153 2.4
159 1.31
160 2.7
161 3.1
163 4.5
164 7.03
165 27.1
166 3.4
172 4.1
175 0.49
176 3.6
177 15.9
178 2.7
185 0.55
189 13
190 5.9
191 7
203 2.15
204 9.9
205 9.2
206 5.1
215 0.23
217 14.2
218 2.9
219 10.6
231 0.44
232 99.99
233 16.8
234 2
382 6.41
383 16.5
384 6

>  <PREDICTED SPECTRUM>  (1260) 
39 41
40 20
41 30
43 60
46 2
51 16
53 83
54 4
55 184
56 59
65 53
67 28
69 3
71 4
73 8
75 13
77 117
78 49
79 71
81 33
86 54
89 3
90 59
91 240
92 81
93 32
102 84
103 71
104 85
105 116
109 66
115 59
117 98
118 24
119 107
120 36
121 36
122 140
123 25
128 45
130 33
131 126
132 85
134 20
135 37
136 263
137 9
143 39
144 3
145 26
146 19
147 29
148 19
149 48
151 709
152 323
161 68
162 54
163 246
164 589
165 562
172 23
173 30
174 79
175 124
176 166
177 323
178 76
179 74
180 10
187 4
189 199
190 215
191 269
192 87
193 64
203 161
204 318
205 236
206 197
217 104
218 187
219 159
220 93
231 273
232 999
233 588
234 245
382 401
383 264
384 151
385 18

$$$$

     RDKit          2D

 26 26  0  0  0  0  0  0  0  0999 V2000
    7.7948    3.0010    0.0000 C   0  0  0  0  0  0  0  0  0  0  0  0
   12.9910    3.0019    0.0000 C   0  0  0  0  0  0  0  0  0  0  0  0
   14.2906   -0.7479    0.0000 C   0  0  0  0  0  0  0  0  0  0  0  0
   -2.5989   -1.5002    0.0000 C   0  0  0  0  0  0  0  0  0  0  0  0
   16.1387   -0.5467    0.0000 C   0  0  0  0  0  0  0  0  0  0  0  0
   18.1876    0.0027    0.0000 C   0  0  0  0  0  0  0  0  0  0  0  0
   17.6382    2.0517    0.0000 C   0  0  0  0  0  0  0  0  0  0  0  0
   10.3931    1.5015    0.0000 C   0  0  0  0  0  0  0  0  0  0  0  0
    5.1970    1.5006    0.0000 C   0  0  0  0  0  0  0  0  0  0  0  0
    9.0942    0.7512    0.0000 C   0  0  0  0  0  0  0  0  0  0  0  0
    6.4962    0.7508    0.0000 C   0  0  0  0  0  0  0  0  0  0  0  0
   11.6923    0.7517    0.0000 C   0  0  0  0  0  0  0  0  0  0  0  0
    3.8981    0.7504    0.0000 C   0  0  0  0  0  0  0  0  0  0  0  0
   -1.3000    0.7500    0.0000 C   0  0  0  0  0  0  0  0  0  0  0  0
   -0.0000   -1.5000    0.0000 C   0  0  0  0  0  0  0  0  0  0  0  0
   -0.0000    1.5000    0.0000 C   0  0  0  0  0  0  0  0  0  0  0  0
    1.3000   -0.7500    0.0000 C   0  0  0  0  0  0  0  0  0  0  0  0
    7.7951    1.5010    0.0000 C   0  0  0  0  0  0  0  0  0  0  0  0
   12.9912    1.5019    0.0000 C   0  0  0  0  0  0  0  0  0  0  0  0
   14.2904    0.7521    0.0000 C   0  0  0  0  0  0  0  0  0  0  0  0
    2.5989    1.5002    0.0000 C   0  0  0  0  0  0  0  0  0  0  0  0
   -1.3000   -0.7500    0.0000 N   0  0  0  0  0  0  0  0  0  0  0  0
    1.3000    0.7500    0.0000 N   0  0  0  0  0  0  0  0  0  0  0  0
    2.5987    3.0002    0.0000 O   0  0  0  0  0  0  0  0  0  0  0  0
   15.5893    1.5023    0.0000 O   0  0  0  0  0  0  0  0  0  0  0  0
   16.8885    0.7525    0.0000 Si  0  0  0  0  0  4  0  0  0  0  0  0
 10  8  1  0
 11  9  1  0
 12  8  1  0
 13  9  1  0
 16 14  1  0
 17 15  1  0
 18  1  1  0
 18 10  1  0
 11 18  2  0
 19  2  1  0
 12 19  2  0
 20  3  1  0
 20 19  1  0
 21 13  1  0
 22  4  1  0
 22 14  1  0
 22 15  1  0
 23 16  1  0
 23 17  1  0
 23 21  1  0
 24 21  2  0
 25 20  1  0
 26  5  1  0
 26  6  1  0
 26  7  1  0
 26 25  1  0
M  END
>  <NAME>  (1261) 
4-METHYL-1-(5,9-DIMETHYL-1-OXO-10-TRIMETHYLSILOXY-4,8-UNDECADIEN-1-YL)-PIPERADINE

>  <SYNONYMS>  (1261) 


>  <SPECTRUM TYPE>  (1261) 
MS1

>  <INSTRUMENT TYPE>  (1261) 
EI-B

>  <INSTRUMENT>  (1261) 
JEOL JMS-D-300

>  <ION MODE>  (1261) 
P

>  <INCHIKEY>  (1261) 
ROQLKSKDJZZPGV-GDAWTGGTSA-N

>  <FORMULA>  (1261) 
C21H40N2O2Si

>  <EXACT MASS>  (1261) 
380.28590505

>  <MW>  (1261) 
380

>  <ID>  (1261) 
JP010071

>  <CONTRIBUTOR>  (1261) 
University of Tokyo Team, {Faculty of Engineering, University of Tokyo

>  <COMMENT>  (1261) 
SMILES=CC(CCC=C(C)C(C)O[Si](C)(C)C)=CCCC(=O)N(C1)CCN(C)C1
InChI=InChI=1S/C21H40N2O2Si/c1-18(10-8-12-19(2)20(3)25-26(5,6)7)11-9-13-21(24)23-16-14-22(4)15-17-23/h11-12,20H,8-10,13-17H2,1-7H3/b18-11+,19-12+
computed SMILES=O=C(N1CCN(C)CC1)CCC=C(C)CCC=C(C)C(O[Si](C)(C)C)C
accession=JP010071
date=2016.01.19 (Created 2008.10.21, modified 2011.05.06)
author=KURARAY CO., LTD.
license=CC BY-NC-SA
exact mass=380.28591
ionization energy=70 eV
ion type=[M]+*
computed spectral entropy=3.2762957417073864
computed normalized entropy=0.8509532829993859
SPLASH=splash10-0aba-9210000000-15ea8a5af67c7281b602
submitter=submitter = University of Tokyo Team (Faculty of Engineering, University of Tokyo)
MoNA Rating=3.75

>  <NUM PEAKS>  (1261) 
47

>  <MASS SPECTRAL PEAKS>  (1261) 
29 3.6
32 2.1
41 18.2
42 1.7
43 30.3
44 8.3
45 9.2
55 1.73
56 34.9
57 51.3
58 59
69 0.58
70 93.4
71 22.4
73 43.5
75 4.85
77 12.2
81 19.8
82 8.2
83 2.44
85 9
96 10.5
97 20.6
98 99.99
99 53.2
100 12.2
101 59.5
127 2
133 7.4
140 7.3
147 1.1
148 0.92
149 33.9
152 10.6
157 7.4
166 1.88
167 13.2
170 7.3
207 17
208 1.78
209 65
210 9.6
281 4.7
290 5.49
291 12.3
365 12.3
380 7.5

>  <PREDICTED SPECTRUM>  (1261) 
14 4
15 61
16 11
17 14
18 42
26 47
27 137
28 143
29 202
30 61
31 68
32 50
39 137
40 119
41 374
42 408
43 433
44 444
45 152
46 35
47 63
49 11
50 17
51 60
52 35
53 171
54 167
55 194
56 586
57 679
58 863
59 154
60 59
61 44
65 29
66 19
67 225
68 218
69 269
70 929
71 509
72 102
73 396
74 71
75 269
76 34
77 191
79 159
80 112
81 429
82 237
83 554
84 3
87 44
88 6
89 2
91 47
92 32
93 165
95 216
96 149
97 342
98 978
99 999
100 616
101 740
102 33
103 27
104 8
105 104
107 65
108 22
109 134
113 56
115 36
117 108
118 23
119 82
121 79
122 69
123 14
124 22
125 29
127 219
131 73
132 35
133 64
140 22
141 63
142 82
143 3
149 82
150 3
152 159
153 36
154 23
155 20
157 87
159 90
160 6
161 42
162 0
165 11
166 369
167 64
168 26
171 40
180 5
183 1
194 40
207 201
208 19
209 998
210 378
211 10
243 1
252 55
253 36
264 7
265 1
277 114
280 69
281 168
282 26
283 24
307 17
308 60
310 46
312 11
321 4
323 44
351 2
353 65
365 227
366 10
378 53
379 28
380 46
382 48

$$$$

     RDKit          2D

 27 28  0  0  0  0  0  0  0  0999 V2000
  -10.3942   -0.7512    0.0000 C   0  0  0  0  0  0  0  0  0  0  0  0
    7.0925    5.5005    0.0000 C   0  0  0  0  0  0  0  0  0  0  0  0
   -5.1976    3.7504    0.0000 C   0  0  0  0  0  0  0  0  0  0  0  0
    4.0772    0.4897    0.0000 C   0  0  0  0  0  0  0  0  0  0  0  0
   -9.0951   -1.5010    0.0000 C   0  0  0  0  0  0  0  0  0  0  0  0
   -7.7962   -0.7508    0.0000 C   0  0  0  0  0  0  0  0  0  0  0  0
   -6.4970   -1.5006    0.0000 C   0  0  0  0  0  0  0  0  0  0  0  0
   -5.1981   -0.7504    0.0000 C   0  0  0  0  0  0  0  0  0  0  0  0
   -3.8989   -1.5002    0.0000 C   0  0  0  0  0  0  0  0  0  0  0  0
    1.3000   -1.5000    0.0000 C   0  0  0  0  0  0  0  0  0  0  0  0
    2.6000   -0.7500    0.0000 C   0  0  0  0  0  0  0  0  0  0  0  0
    3.1127    2.1596    0.0000 C   0  0  0  0  0  0  0  0  0  0  0  0
    4.5899    2.4204    0.0000 C   0  0  0  0  0  0  0  0  0  0  0  0
   -1.3000   -1.5000    0.0000 C   0  0  0  0  0  0  0  0  0  0  0  0
   -1.3000    1.5000    0.0000 C   0  0  0  0  0  0  0  0  0  0  0  0
    6.5798    4.0909    0.0000 C   0  0  0  0  0  0  0  0  0  0  0  0
   -3.8987    3.0002    0.0000 C   0  0  0  0  0  0  0  0  0  0  0  0
   -2.6000   -0.7500    0.0000 C   0  0  0  0  0  0  0  0  0  0  0  0
    0.0000   -0.7500    0.0000 C   0  0  0  0  0  0  0  0  0  0  0  0
   -2.6000    0.7500    0.0000 C   0  0  0  0  0  0  0  0  0  0  0  0
    0.0000    0.7500    0.0000 C   0  0  0  0  0  0  0  0  0  0  0  0
    2.6000    0.7500    0.0000 C   0  0  0  0  0  0  0  0  0  0  0  0
    7.5442    2.9420    0.0000 O   0  0  0  0  0  0  0  0  0  0  0  0
   -2.5995    3.7500    0.0000 O   0  0  0  0  0  0  0  0  0  0  0  0
    5.1026    3.8301    0.0000 O   0  0  0  0  0  0  0  0  0  0  0  0
   -3.8989    1.5002    0.0000 O   0  0  0  0  0  0  0  0  0  0  0  0
    1.3000    1.5000    0.0000 O   0  0  0  0  0  0  0  0  0  0  0  0
  5  1  1  0
  6  5  1  0
  7  6  1  0
  8  7  1  0
  9  8  1  0
 11 10  1  0
 13 12  1  0
 16  2  1  0
 17  3  1  0
 18  9  1  0
 18 14  1  0
 19 10  1  0
 19 14  2  0
 20 15  1  0
 20 18  2  0
 21 15  2  0
 21 19  1  0
 22  4  1  0
 22 11  1  0
 22 12  1  0
 23 16  2  0
 24 17  2  0
 25 13  1  0
 25 16  1  0
 26 17  1  0
 26 20  1  0
 27 21  1  0
 27 22  1  0
M  END
>  <NAME>  (1262) 
7-ACETOXY-2-(2-ACETOXYETHYL)-6-HEXYL-3,4-DIHYDRO-2-METHYL-2H-1-BENZOPYRAN

>  <SYNONYMS>  (1262) 


>  <SPECTRUM TYPE>  (1262) 
MS1

>  <INSTRUMENT TYPE>  (1262) 
EI-B

>  <INSTRUMENT>  (1262) 
JEOL JMS-D-300

>  <ION MODE>  (1262) 
P

>  <INCHIKEY>  (1262) 
UIXUWDLVIIMRCQ-UHFFFAOYSA-N

>  <FORMULA>  (1262) 
C22H32O5

>  <EXACT MASS>  (1262) 
376.22497412399997

>  <MW>  (1262) 
376

>  <ID>  (1262) 
JP010070

>  <CONTRIBUTOR>  (1262) 
University of Tokyo Team, {Faculty of Engineering, University of Tokyo

>  <COMMENT>  (1262) 
SMILES=CCCCCCc(c1)c(OC(C)=O)cc(O2)c(CCC(C)(CCOC(C)=O)2)1
InChI=InChI=1S/C22H32O5/c1-5-6-7-8-9-18-14-19-10-11-22(4,12-13-25-16(2)23)27-21(19)15-20(18)26-17(3)24/h14-15H,5-13H2,1-4H3
computed SMILES=O=C(OC=1C=C2OC(C)(CCOC(=O)C)CCC2=CC1CCCCCC)C
accession=JP010070
date=2016.01.19 (Created 2008.10.21, modified 2011.05.06)
author=KURARAY CO., LTD.
license=CC BY-NC-SA
exact mass=376.22497
ionization energy=70 eV
ion type=[M]+*
computed spectral entropy=3.3666311542457756
computed normalized entropy=0.7463391731402841
SPLASH=splash10-0a6r-3289000000-235a56e16d1a1e9b645c
submitter=submitter = University of Tokyo Team (Faculty of Engineering, University of Tokyo)
MoNA Rating=3.75

>  <NUM PEAKS>  (1262) 
91

>  <MASS SPECTRAL PEAKS>  (1262) 
27 1.9
28 7.9
29 5.1
31 0.14
32 1.2
41 10.6
42 1.2
43 2.19
53 1.4
55 12.3
57 3.4
65 0.11
67 3.1
69 4.9
77 3.5
79 0.37
81 7.2
83 2.5
85 6.1
91 0.55
93 3.4
95 4.4
97 2
103 0.13
105 2.5
107 2.3
109 1.6
115 0.11
117 1.2
119 1.5
121 3.1
123 0.27
129 1.1
131 1
133 1.8
135 0.21
137 4.6
144 1.2
145 1.4
147 0.28
148 1.8
149 14.5
150 8.2
151 0.42
159 1.3
161 5.1
162 1.7
163 0.35
174 1.2
175 2.4
177 1.7
187 0.21
189 1.5
191 1.3
205 42.8
206 0.74
207 4.8
217 2.3
219 52.1
220 1.95
221 6.6
231 1.2
233 2
245 0.11
259 0.8
261 1.8
273 1.7
275 0.75
276 1.1
287 51.3
288 10.7
289 0.59
290 5.4
291 28.7
292 1.8
303 0.3
305 63.9
306 12.9
307 1.6
317 0.11
329 5.8
331 4.4
348 3.3
358 0.72
359 1.6
374 5.1
375 2.6
376 99.99
377 26.7
378 3.7
388 2.2

>  <PREDICTED SPECTRUM>  (1262) 
14 1
15 3
27 82
28 61
29 70
39 92
41 479
42 102
43 873
44 83
51 80
52 37
53 177
54 34
55 456
56 72
57 309
58 6
60 6
65 159
67 159
68 3
69 307
71 130
73 47
77 248
78 108
79 163
81 146
82 0
83 152
84 68
85 93
89 38
91 244
92 17
93 101
95 175
97 39
103 144
104 6
105 245
106 23
107 204
109 44
111 39
115 192
116 57
117 132
119 144
120 51
121 190
122 30
123 74
129 47
130 36
131 190
132 111
133 258
134 149
135 150
136 14
137 95
143 78
144 97
145 200
146 94
147 314
148 157
149 223
150 45
151 224
157 104
158 48
159 249
160 143
161 263
162 136
163 203
164 90
165 113
166 17
171 62
172 28
173 137
174 138
175 434
176 161
177 228
178 114
179 41
185 51
187 67
188 76
189 397
190 240
191 222
192 55
193 28
201 186
202 92
203 630
204 219
205 314
206 99
207 96
209 0
213 20
214 10
215 132
216 172
217 379
218 180
219 114
220 28
221 129
222 17
223 12
229 38
231 233
232 93
233 118
235 128
237 29
243 19
245 191
246 104
247 180
248 237
249 561
250 346
251 2
257 4
259 354
260 182
261 120
262 48
263 428
264 171
273 225
274 238
275 195
277 79
278 182
287 226
288 70
289 82
290 70
291 256
292 114
301 300
302 17
305 108
306 56
316 309
317 212
319 273
320 14
334 999
335 371
336 132
376 561
377 212
378 25

$$$$

     RDKit          2D

 26 25  0  0  0  0  0  0  0  0999 V2000
    6.1704    9.5625    0.0000 C   0  0  0  0  0  0  0  0  0  0  0  0
    4.8714   11.8125    0.0000 C   0  0  0  0  0  0  0  0  0  0  0  0
   -0.3248   11.8125    0.0000 C   0  0  0  0  0  0  0  0  0  0  0  0
   -5.5209   11.8125    0.0000 C   0  0  0  0  0  0  0  0  0  0  0  0
   -9.7529   11.4616    0.0000 C   0  0  0  0  0  0  0  0  0  0  0  0
    2.2733   10.3125    0.0000 C   0  0  0  0  0  0  0  0  0  0  0  0
   -2.9228   10.3125    0.0000 C   0  0  0  0  0  0  0  0  0  0  0  0
   -8.1190   10.3125    0.0000 C   0  0  0  0  0  0  0  0  0  0  0  0
    3.5724    9.5625    0.0000 C   0  0  0  0  0  0  0  0  0  0  0  0
    0.9743    9.5625    0.0000 C   0  0  0  0  0  0  0  0  0  0  0  0
   -1.6238    9.5625    0.0000 C   0  0  0  0  0  0  0  0  0  0  0  0
   -4.2219    9.5625    0.0000 C   0  0  0  0  0  0  0  0  0  0  0  0
   -6.8200    9.5625    0.0000 C   0  0  0  0  0  0  0  0  0  0  0  0
   -9.4180    9.5625    0.0000 C   0  0  0  0  0  0  0  0  0  0  0  0
  -13.3151   10.3125    0.0000 C   0  0  0  0  0  0  0  0  0  0  0  0
    4.8714   10.3125    0.0000 C   0  0  0  0  0  0  0  0  0  0  0  0
   -0.3248   10.3125    0.0000 C   0  0  0  0  0  0  0  0  0  0  0  0
   -5.5209   10.3125    0.0000 C   0  0  0  0  0  0  0  0  0  0  0  0
  -12.0161    9.5625    0.0000 C   0  0  0  0  0  0  0  0  0  0  0  0
  -10.7171   10.3125    0.0000 C   0  0  0  0  0  0  0  0  0  0  0  0
  -15.9132   10.3125    0.0000 N   0  0  0  0  0  0  0  0  0  0  0  0
  -12.0161    8.0625    0.0000 O   0  0  0  0  0  0  0  0  0  0  0  0
  -11.6812   11.4616    0.0000 O   0  0  0  0  0  0  0  0  0  0  0  0
  -17.2123    9.5625    0.0000 O   0  0  0  0  0  0  0  0  0  0  0  0
  -15.9132   11.8125    0.0000 O   0  0  0  0  0  0  0  0  0  0  0  0
  -14.6142    9.5625    0.0000 O   0  0  0  0  0  0  0  0  0  0  0  0
  9  6  1  0
 10  6  1  0
 11  7  1  0
 12  7  1  0
 13  8  1  0
 14  8  1  0
 16  1  1  0
 16  2  1  0
 16  9  1  0
 17  3  1  0
 17 10  1  0
 17 11  1  0
 18  4  1  0
 18 12  1  0
 18 13  1  0
 19 15  1  0
 20  5  1  0
 20 14  1  0
 20 19  1  0
 22 19  1  0
 23 20  1  0
 24 21  1  0
 25 21  2  0
 26 15  1  0
 26 21  1  0
M  CHG  2  21   1  24  -1
M  END
>  <NAME>  (1263) 
2,3-DIHYDROXY-3,7,11,15-TETRAMETHYLHEXADECAN-1-OL NITRATE

>  <SYNONYMS>  (1263) 


>  <SPECTRUM TYPE>  (1263) 
MS1

>  <INSTRUMENT TYPE>  (1263) 
EI-B

>  <INSTRUMENT>  (1263) 
JEOL JMS-D-300

>  <ION MODE>  (1263) 
P

>  <INCHIKEY>  (1263) 
JTBGMTKEKZFXJG-UHFFFAOYSA-N

>  <FORMULA>  (1263) 
C20H41NO5

>  <EXACT MASS>  (1263) 
375.298473412

>  <MW>  (1263) 
375

>  <ID>  (1263) 
JP010069

>  <CONTRIBUTOR>  (1263) 
University of Tokyo Team, {Faculty of Engineering, University of Tokyo

>  <COMMENT>  (1263) 
SMILES=CC(C)CCCC(C)CCCC(C)CCCC(C)(O)C(O)CO[N+1]([O-1])=O
InChI=InChI=1S/C20H41NO5/c1-16(2)9-6-10-17(3)11-7-12-18(4)13-8-14-20(5,23)19(22)15-26-21(24)25/h16-19,22-23H,6-15H2,1-5H3
computed SMILES=O=N(=O)OCC(O)C(O)(C)CCCC(C)CCCC(C)CCCC(C)C
accession=JP010069
date=2016.01.19 (Created 2008.10.21, modified 2011.05.06)
author=KURARAY CO., LTD.
license=CC BY-NC-SA
exact mass=375.29847
ionization energy=70 eV
ion type=[M]+*
computed spectral entropy=3.4772802097145776
computed normalized entropy=0.7727616198174359
SPLASH=splash10-0abc-9200000000-ca8618da98fedf8f3e2f
submitter=submitter = University of Tokyo Team (Faculty of Engineering, University of Tokyo)
MoNA Rating=3.75

>  <NUM PEAKS>  (1263) 
90

>  <MASS SPECTRAL PEAKS>  (1263) 
27 2.2
28 9.2
29 9.5
31 0.11
32 2
39 2.6
41 29.7
42 0.54
43 99.99
44 4.4
45 4.6
48 0.19
53 2
54 0.9
55 53
56 1.72
57 95.4
58 35.6
59 12.7
64 0.6
67 7
68 8.4
69 79.6
70 1.57
71 92.5
72 8.3
73 1.9
79 0.14
80 3.7
81 26.1
82 11.4
83 6.87
84 11.8
85 38.1
86 3
87 1.22
88 5.7
92 1.1
93 5.5
94 0.33
95 24.3
96 7.7
97 61.8
98 0.73
99 15.2
100 1
101 1.4
107 0.38
108 1.4
109 21.4
110 7.3
111 5.1
112 6.8
113 11
115 5.8
121 0.52
122 1.6
123 7.2
124 5.1
125 3.24
126 8.1
127 8.7
129 1.7
135 0.26
136 1
137 6.6
138 2.9
139 1.39
140 3.3
141 3.7
149 4
150 0.14
151 67.1
152 3.5
153 7.7
154 0.11
155 2.2
162 1.3
163 2.3
165 0.21
167 2.6
169 3.6
171 2.1
179 0.21
191 1.6
195 2
269 11
270 0.17
276 2
281 1.2

>  <PREDICTED SPECTRUM>  (1263) 
18 5
25 0
26 51
27 242
28 106
29 327
30 48
31 139
36 2
38 18
39 119
40 62
41 614
42 276
43 999
44 276
45 228
46 129
47 22
49 32
50 23
51 32
52 19
53 153
54 151
55 713
56 393
57 922
58 329
59 142
60 185
61 118
62 59
63 61
64 47
65 93
66 61
67 307
68 286
69 836
70 408
71 898
72 131
73 288
74 32
75 156
76 111
77 95
78 93
79 162
80 160
81 497
82 317
83 575
84 246
85 609
86 234
87 51
88 63
89 97
90 103
91 99
92 78
93 138
94 119
95 415
96 337
97 624
98 171
99 399
101 156
102 65
103 54
104 60
105 23
106 106
107 114
108 146
109 435
110 222
111 457
112 176
113 250
114 43
115 56
116 6
117 38
119 7
120 29
121 59
122 46
123 343
124 84
125 215
126 245
127 391
128 62
129 45
130 10
134 75
135 95
136 72
137 119
138 28
139 46
140 137
141 240
143 18
145 37
148 98
149 146
150 300
151 514
152 272
153 336
154 98
155 35
156 35
157 64
164 20
165 158
166 32
167 28
168 37
169 135
171 21
172 7
173 3
180 74
181 24
182 22
183 15
184 42
189 21
195 26
210 4
221 99
222 7
223 30
225 105
267 93
268 5
269 160
270 10
284 52

$$$$

     RDKit          2D

 27 30  0  0  1  0  0  0  0  0999 V2000
    3.0099    4.6213    0.0000 C   0  0  0  0  0  0  0  0  0  0  0  0
   -1.7700    0.8600    0.0000 C   0  0  0  0  0  0  0  0  0  0  0  0
    2.2765    3.1018    0.0000 C   0  0  0  0  0  0  0  0  0  0  0  0
    4.4300    0.8600    0.0000 C   0  0  0  0  0  0  0  0  0  0  0  0
    3.5500   -0.3500    0.0000 C   0  0  0  0  0  0  0  0  0  0  0  0
   -4.3700   -0.6400    0.0000 C   0  0  0  0  0  0  0  0  0  0  0  0
   -3.0700    0.1100    0.0000 C   0  0  0  0  0  0  0  0  0  0  0  0
   -3.0700   -2.8900    0.0000 C   0  0  0  0  0  0  0  0  0  0  0  0
   -0.4700   -2.8900    0.0000 C   0  0  0  0  0  0  0  0  0  0  0  0
   -0.4700    1.6100    0.0000 C   0  0  0  0  0  0  0  0  0  0  0  0
    4.0136    3.5066    0.0000 C   0  0  0  0  0  0  0  0  0  0  0  0
   -1.7700   -2.1400    0.0000 C   0  0  0  0  0  0  0  0  0  0  0  0
   -4.3700   -2.1400    0.0000 C   0  0  0  0  0  0  0  0  0  0  0  0
    3.5500    2.0800    0.0000 C   0  0  0  0  0  0  0  0  0  0  0  0
    2.1200    0.1100    0.0000 C   0  0  0  0  0  0  0  0  0  0  0  0
   -0.4700    0.1100    0.0000 C   0  0  0  0  0  0  0  0  0  0  0  0
    0.8300   -2.1400    0.0000 C   0  0  0  0  0  0  0  0  0  0  0  0
    0.8300    2.3600    0.0000 C   0  0  0  0  0  0  0  0  0  0  0  0
    0.8300   -0.6400    0.0000 C   0  0  0  0  0  0  0  0  0  0  0  0
    5.4808    3.8184    0.0000 C   0  0  0  0  0  0  0  0  0  0  0  0
   -1.7700   -0.6400    0.0000 C   0  0  0  0  0  0  0  0  0  0  0  0
    2.1200    1.6100    0.0000 C   0  0  0  0  0  0  0  0  0  0  0  0
   -5.6689   -2.8902    0.0000 O   0  0  0  0  0  0  0  0  0  0  0  0
    2.1289   -2.8902    0.0000 O   0  0  0  0  0  0  0  0  0  0  0  0
    0.8325    3.8600    0.0000 O   0  0  0  0  0  0  0  0  0  0  0  0
    6.4845    2.7037    0.0000 O   0  0  0  0  0  0  0  0  0  0  0  0
    5.9443    5.2450    0.0000 O   0  0  0  0  0  0  0  0  0  0  0  0
  5  4  1  0
  7  6  2  0
 11  1  1  0
 12  8  2  0
 12  9  1  0
 13  6  1  0
 13  8  1  0
 14  4  1  0
 14 11  1  1
 15  5  1  1
 16 10  1  1
 17  9  1  0
 18 10  1  0
 19 15  1  0
 19 16  1  0
 19 17  1  6
 20 11  1  0
 21  2  1  1
 21  7  1  0
 21 12  1  0
 21 16  1  0
 22  3  1  1
 22 14  1  0
 22 15  1  0
 22 18  1  0
 23 13  2  0
 17 24  1  6
 25 18  1  0
 26 20  2  0
 27 20  1  0
M  END
>  <NAME>  (1264) 
7,12-DIHYDROXYPREGNA-1,4-DIENE-3-ONE-20-CARBOXYLIC ACID

>  <SYNONYMS>  (1264) 


>  <SPECTRUM TYPE>  (1264) 
MS1

>  <INSTRUMENT TYPE>  (1264) 
EI-B

>  <INSTRUMENT>  (1264) 
JEOL JMS-D-300

>  <ION MODE>  (1264) 
P

>  <INCHIKEY>  (1264) 
RIPUUOOMDLZCBV-IRZBZXEOSA-N

>  <FORMULA>  (1264) 
C22H30O5

>  <EXACT MASS>  (1264) 
374.20932406

>  <MW>  (1264) 
374

>  <ID>  (1264) 
JP010068

>  <CONTRIBUTOR>  (1264) 
University of Tokyo Team, {Faculty of Engineering, University of Tokyo

>  <COMMENT>  (1264) 
SMILES=OC(=O)C(C)C([H])(C4)C(C)(C(O)3)C([H])(C4)C([H])(C(O)1)C([H])(C3)C(C)(C=2)C(=CC(=O)C2)C1
InChI=InChI=1S/C22H30O5/c1-11(20(26)27)14-4-5-15-19-16(10-18(25)22(14,15)3)21(2)7-6-13(23)8-12(21)9-17(19)24/h6-8,11,14-19,24-25H,4-5,9-10H2,1-3H3,(H,26,27)/t11?,14-,15+,16+,17?,18?,19+,21+,22-/m1/s1
computed SMILES=O=C1C=CC2(C(=C1)CC(O)C3C4CCC(C(C(=O)O)C)C4(C)C(O)CC32)C
computed InChI=InChI=1S/C22H30O5/c1-11(20(26)27)14-4-5-15-19-16(10-18(25)22(14,15)3)21(2)7-6-13(23)8-12(21)9-17(19)24/h6-8,11,14-19,24-25H,4-5,9-10H2,1-3H3,(H,26,27)/t11?,14-,15+,16+,17-,18?,19+,21+,22-/m1/s1
accession=JP010068
date=2016.01.19 (Created 2008.10.21, modified 2011.05.06)
author=KURARAY CO., LTD.
license=CC BY-NC-SA
exact mass=374.20932
ionization energy=70 eV
ion type=[M]+*
computed spectral entropy=4.3472961444746225
computed normalized entropy=0.8435959938918018
SPLASH=splash10-00xr-2940000000-ba15df7d17bb4905c4a1
submitter=submitter = University of Tokyo Team (Faculty of Engineering, University of Tokyo)
MoNA Rating=3.75

>  <NUM PEAKS>  (1264) 
173

>  <MASS SPECTRAL PEAKS>  (1264) 
29 1.5
39 3.4
41 15
53 0.71
55 18.5
57 4.9
65 5
67 1.13
69 7.7
71 3.5
74 2.4
75 1.64
78 3.7
79 16.3
80 4
81 2.05
82 2.5
83 3.9
91 27.9
92 0.6
93 19.3
94 4.6
95 10.6
96 0.17
97 5.9
99 2.7
103 3.9
104 0.19
105 20.5
106 7.1
107 23.4
108 0.82
109 15.6
110 2.2
111 2.5
115 0.87
116 3.7
117 8.7
118 2.9
119 1.35
120 7.3
121 61.8
122 87.7
123 1.55
124 9.1
125 3.1
127 2.8
128 0.76
129 8.7
130 4.2
131 23
132 2.35
133 49.3
134 13.4
135 11.8
136 0.22
137 5.3
139 1.6
141 4.6
142 0.3
143 15.8
144 6
145 14.2
146 0.61
147 12.4
148 5
149 6.3
150 1.5
151 16.1
152 4.2
153 6.5
154 0.12
155 4.1
156 2.1
157 2.9
158 1.31
159 18.5
160 9.7
161 27.3
162 0.44
163 3
165 8.7
166 3.3
167 0.36
168 1.4
169 3
170 2.4
171 1.58
172 7.7
173 15
174 9.1
175 0.62
176 2.2
177 4
178 2.3
179 0.64
180 2.1
181 3.2
182 1.5
183 0.43
184 3.3
185 5.6
186 1.5
187 0.23
188 2.2
189 9.8
190 1.8
191 0.26
193 1.8
195 4
196 1.5
197 0.41
198 1.8
199 3.4
200 1.7
201 0.15
202 2.3
203 1.9
204 1.2
205 0.63
206 6.9
207 6.2
208 2.1
209 0.58
210 4.6
211 5
212 1.6
213 0.24
217 13.6
218 2.4
219 1.8
221 0.33
223 10.8
224 4.9
225 4.2
231 0.13
233 1.7
234 1.5
235 18.3
236 0.51
237 7.3
238 13.6
239 8.2
240 0.16
241 2.1
247 3.3
249 14.2
250 0.48
251 3.1
253 2.5
263 2.2
264 2.33
265 99.99
266 23.3
267 15.8
268 0.24
277 1.9
281 1.4
282 2.2
283 0.74
284 1.7
292 1.7
310 4.1
320 0.3
321 1.1
323 6.4
324 2.4
325 0.12
338 27.5
339 7.1
340 3.2
356 2.77
357 5.9

>  <PREDICTED SPECTRUM>  (1264) 
16 12
17 24
18 4
25 6
26 65
27 116
28 108
29 87
32 12
39 79
40 30
41 174
42 72
43 76
44 14
45 30
50 17
51 69
52 41
53 181
54 82
55 310
56 150
57 208
58 32
60 8
63 22
64 52
65 187
66 82
67 184
68 19
69 151
70 102
71 132
73 56
77 296
78 153
79 297
80 74
81 203
82 166
83 217
84 79
85 100
86 72
87 10
89 4
91 372
92 111
93 371
94 163
95 263
96 103
97 143
98 55
99 84
100 31
101 77
102 47
103 101
104 55
105 393
106 185
107 470
108 263
109 366
110 186
111 196
112 8
113 22
114 121
115 239
116 104
117 263
118 231
119 279
120 187
121 884
122 999
123 390
124 225
125 206
126 133
127 147
128 222
129 175
130 163
131 257
132 206
133 420
134 227
135 170
136 148
137 136
138 25
139 154
140 104
141 211
142 111
143 240
144 249
145 289
146 210
147 416
148 106
149 135
150 139
151 279
152 156
153 190
154 95
155 208
156 138
157 172
158 139
159 431
160 383
161 414
162 169
163 171
164 73
165 186
166 90
167 167
168 114
169 143
170 97
171 208
172 228
173 235
174 100
175 95
176 120
177 135
178 151
179 169
180 134
181 166
182 104
183 125
184 53
185 185
186 105
187 182
188 122
189 272
190 80
191 156
192 77
193 147
194 27
195 192
196 78
197 103
198 92
199 120
200 106
201 100
202 78
203 169
204 97
205 194
206 159
207 197
208 113
209 139
210 80
211 123
213 45
214 49
215 130
216 0
217 166
218 148
219 159
220 70
221 131
222 49
223 250
224 335
225 143
226 94
227 41
231 43
232 62
233 174
234 107
235 200
236 149
237 220
238 213
239 278
240 63
241 74
242 85
245 6
247 62
248 114
249 315
250 161
251 157
252 172
253 117
254 18
255 43
263 238
264 75
265 795
266 534
267 598
271 1
277 8
280 17
281 103
282 60
283 152
284 173
292 15
294 36
295 35
297 39
299 19
301 1
303 25
305 36
307 23
310 155
311 76
312 66
320 21
321 95
323 304
324 159
325 46
338 475
339 152
340 130
356 187
357 279
358 4

$$$$

     RDKit          2D

 27 27  0  0  0  0  0  0  0  0999 V2000
   -2.9245    9.1878    0.0000 C   0  0  0  0  0  0  0  0  0  0  0  0
   -1.6258   11.4380    0.0000 C   0  0  0  0  0  0  0  0  0  0  0  0
    3.5703   11.4388    0.0000 C   0  0  0  0  0  0  0  0  0  0  0  0
    8.7665   11.4396    0.0000 C   0  0  0  0  0  0  0  0  0  0  0  0
   10.0666    4.6898    0.0000 C   0  0  0  0  0  0  0  0  0  0  0  0
   17.8623    0.1890    0.0000 C   0  0  0  0  0  0  0  0  0  0  0  0
    0.9725    9.9384    0.0000 C   0  0  0  0  0  0  0  0  0  0  0  0
    6.1687    9.9392    0.0000 C   0  0  0  0  0  0  0  0  0  0  0  0
   10.0661    7.6898    0.0000 C   0  0  0  0  0  0  0  0  0  0  0  0
   -0.3264    9.1882    0.0000 C   0  0  0  0  0  0  0  0  0  0  0  0
    2.2717    9.1886    0.0000 C   0  0  0  0  0  0  0  0  0  0  0  0
    4.8697    9.1890    0.0000 C   0  0  0  0  0  0  0  0  0  0  0  0
    7.4678    9.1894    0.0000 C   0  0  0  0  0  0  0  0  0  0  0  0
   10.0659    9.1898    0.0000 C   0  0  0  0  0  0  0  0  0  0  0  0
   11.3653    6.9401    0.0000 C   0  0  0  0  0  0  0  0  0  0  0  0
   12.6647    4.6903    0.0000 C   0  0  0  0  0  0  0  0  0  0  0  0
   12.6649    3.1903    0.0000 C   0  0  0  0  0  0  0  0  0  0  0  0
   15.2641    0.1888    0.0000 C   0  0  0  0  0  0  0  0  0  0  0  0
   16.5626    2.4396    0.0000 C   0  0  0  0  0  0  0  0  0  0  0  0
   13.9646    0.9396    0.0000 C   0  0  0  0  0  0  0  0  0  0  0  0
   15.2631    3.1905    0.0000 C   0  0  0  0  0  0  0  0  0  0  0  0
   -1.6256    9.9380    0.0000 C   0  0  0  0  0  0  0  0  0  0  0  0
    3.5706    9.9388    0.0000 C   0  0  0  0  0  0  0  0  0  0  0  0
    8.7667    9.9396    0.0000 C   0  0  0  0  0  0  0  0  0  0  0  0
   11.3655    5.4401    0.0000 C   0  0  0  0  0  0  0  0  0  0  0  0
   16.5631    0.9388    0.0000 N   0  0  0  0  0  0  0  0  0  0  0  0
   13.9641    2.4405    0.0000 N   0  0  0  0  0  0  0  0  0  0  0  0
 10  7  1  0
 11  7  1  0
 12  8  1  0
 13  8  1  0
 14  9  1  0
 15  9  1  0
 17 16  1  0
 20 18  1  0
 21 19  1  0
 22  1  1  0
 22  2  1  0
 22 10  2  0
 23  3  1  0
 23 11  1  0
 12 23  2  0
 24  4  1  0
 24 13  1  0
 14 24  2  0
 25  5  1  0
 25 15  1  0
 16 25  2  0
 26  6  1  0
 26 18  1  0
 26 19  1  0
 27 17  1  0
 27 20  1  0
 27 21  1  0
M  END
>  <NAME>  (1265) 
3,7,11,15-TETRAMETHYL-1-(4-METHYLPYPERADINO)-HEXADECA-2,6,10,14-TETRAENE

>  <SYNONYMS>  (1265) 


>  <SPECTRUM TYPE>  (1265) 
MS1

>  <INSTRUMENT TYPE>  (1265) 
EI-B

>  <INSTRUMENT>  (1265) 
JEOL JMS-D-300

>  <ION MODE>  (1265) 
P

>  <INCHIKEY>  (1265) 
RNYWGZFGJLZKNY-ZASDBRTLSA-N

>  <FORMULA>  (1265) 
C25H44N2

>  <EXACT MASS>  (1265) 
372.35044940800003

>  <MW>  (1265) 
372

>  <ID>  (1265) 
JP010067

>  <CONTRIBUTOR>  (1265) 
University of Tokyo Team, {Faculty of Engineering, University of Tokyo

>  <COMMENT>  (1265) 
SMILES=CC(C)=CCCC(C)=CCCC(C)=CCCC(C)=CCN(C1)CCN(C)C1
InChI=InChI=1S/C25H44N2/c1-22(2)10-7-11-23(3)12-8-13-24(4)14-9-15-25(5)16-17-27-20-18-26(6)19-21-27/h10,12,14,16H,7-9,11,13,15,17-21H2,1-6H3/b23-12+,24-14-,25-16+
computed SMILES=C(=C(C)C)CCC(=CCCC(=CCCC(=CCN1CCN(C)CC1)C)C)C
accession=JP010067
date=2016.01.19 (Created 2008.10.21, modified 2011.05.06)
author=KURARAY CO., LTD.
license=CC BY-NC-SA
exact mass=372.35045
ionization energy=70 eV
ion type=[M]+*
computed spectral entropy=3.449090943947412
computed normalized entropy=0.842403684284819
SPLASH=splash10-0aou-9200000000-f9b4d6926422b10685c3
submitter=submitter = University of Tokyo Team (Faculty of Engineering, University of Tokyo)
MoNA Rating=3.75

>  <NUM PEAKS>  (1265) 
60

>  <MASS SPECTRAL PEAKS>  (1265) 
27 6.3
29 9.3
30 7.4
39 0.68
41 61
42 30.8
43 40.2
44 2.76
53 11.7
55 24.9
56 65.3
57 1.61
58 86.3
59 7.7
67 20.4
68 2.12
69 99.99
70 63.9
71 14.2
72 1.68
77 5
79 10.2
80 5
81 3.1
82 9.5
83 5.1
84 4.9
85 1.09
91 5.8
93 16.7
94 5.9
95 1.5
96 14.7
97 23.8
98 8.4
99 4.92
100 84.7
101 24.9
105 4.9
107 1.13
109 9.4
110 8
111 17.2
113 1.48
119 5
121 7.4
124 9.4
135 0.83
137 4.6
153 6.1
166 9.6
167 6.52
168 8.1
179 5.3
235 35.8
236 0.66
303 19
304 4
372 21.2
373 6.2

>  <PREDICTED SPECTRUM>  (1265) 
17 3
18 30
26 65
27 189
28 179
29 221
30 153
31 55
32 18
37 6
38 44
39 266
40 151
41 768
42 559
43 508
44 532
45 204
46 55
47 60
48 8
49 15
50 101
51 98
52 88
53 262
54 209
55 431
56 569
57 283
58 807
59 171
60 83
61 16
63 12
64 14
65 130
66 103
67 327
68 354
69 990
70 901
71 460
72 191
73 51
75 20
76 25
77 169
78 98
79 279
80 220
81 453
82 294
83 362
84 318
85 213
86 17
87 29
91 137
92 70
93 344
94 164
95 338
96 305
97 418
98 149
99 375
100 999
101 621
102 72
105 81
106 78
107 181
108 116
109 282
110 203
111 252
112 90
113 110
114 5
119 159
120 78
121 232
122 114
123 173
124 197
125 135
126 124
127 141
132 4
135 188
136 71
137 105
138 117
139 67
140 20
142 139
147 25
148 74
149 62
150 70
151 67
152 64
153 160
154 8
155 32
163 29
165 62
166 417
167 246
168 156
169 58
177 45
178 11
179 112
180 34
193 63
203 8
209 74
210 201
221 5
234 32
235 608
236 284
237 8
266 61
273 15
277 42
290 5
292 20
303 383
304 194
315 7
330 32
340 19
341 38
353 122
357 3
370 30
372 477
373 221
374 36

$$$$

     RDKit          2D

 27 27  0  0  0  0  0  0  0  0999 V2000
    9.7430  -10.8754    0.0000 C   0  0  0  0  0  0  0  0  0  0  0  0
    8.4440  -13.1254    0.0000 C   0  0  0  0  0  0  0  0  0  0  0  0
    3.2478  -13.1254    0.0000 C   0  0  0  0  0  0  0  0  0  0  0  0
   -1.9483  -13.1254    0.0000 C   0  0  0  0  0  0  0  0  0  0  0  0
   -3.2474   -6.3754    0.0000 C   0  0  0  0  0  0  0  0  0  0  0  0
   -9.7426   -2.6254    0.0000 C   0  0  0  0  0  0  0  0  0  0  0  0
   -9.7431   -4.1262    0.0000 C   0  0  0  0  0  0  0  0  0  0  0  0
    5.8459  -11.6254    0.0000 C   0  0  0  0  0  0  0  0  0  0  0  0
    0.6497  -11.6254    0.0000 C   0  0  0  0  0  0  0  0  0  0  0  0
   -3.2474   -9.3754    0.0000 C   0  0  0  0  0  0  0  0  0  0  0  0
    7.1449  -10.8754    0.0000 C   0  0  0  0  0  0  0  0  0  0  0  0
    4.5468  -10.8754    0.0000 C   0  0  0  0  0  0  0  0  0  0  0  0
    1.9488  -10.8754    0.0000 C   0  0  0  0  0  0  0  0  0  0  0  0
   -0.6493  -10.8754    0.0000 C   0  0  0  0  0  0  0  0  0  0  0  0
   -3.2474  -10.8754    0.0000 C   0  0  0  0  0  0  0  0  0  0  0  0
   -4.5464   -8.6254    0.0000 C   0  0  0  0  0  0  0  0  0  0  0  0
   -8.4431   -1.8745    0.0000 C   0  0  0  0  0  0  0  0  0  0  0  0
   -5.8455   -6.3754    0.0000 C   0  0  0  0  0  0  0  0  0  0  0  0
   -8.4440   -4.8762    0.0000 C   0  0  0  0  0  0  0  0  0  0  0  0
   -5.8455   -4.8754    0.0000 C   0  0  0  0  0  0  0  0  0  0  0  0
    8.4440  -11.6254    0.0000 C   0  0  0  0  0  0  0  0  0  0  0  0
    3.2478  -11.6254    0.0000 C   0  0  0  0  0  0  0  0  0  0  0  0
   -1.9483  -11.6254    0.0000 C   0  0  0  0  0  0  0  0  0  0  0  0
   -4.5464   -7.1254    0.0000 C   0  0  0  0  0  0  0  0  0  0  0  0
   -7.1440   -2.6245    0.0000 C   0  0  0  0  0  0  0  0  0  0  0  0
   -7.1445   -4.1254    0.0000 N   0  0  0  0  0  0  0  0  0  0  0  0
   -5.8449   -1.8747    0.0000 O   0  0  0  0  0  0  0  0  0  0  0  0
  7  6  1  0
 11  8  1  0
 12  8  1  0
 13  9  1  0
 14  9  1  0
 15 10  1  0
 16 10  1  0
 17  6  1  0
 19  7  1  0
 20 18  1  0
 21  1  1  0
 21  2  1  0
 21 11  2  0
 22  3  1  0
 22 12  1  0
 13 22  2  0
 23  4  1  0
 23 14  1  0
 15 23  2  0
 24  5  1  0
 24 16  1  0
 18 24  2  0
 25 17  1  0
 26 19  1  0
 26 20  1  0
 26 25  1  0
 27 25  2  0
M  END
>  <NAME>  (1266) 
3,7,11,15-TETRAMETHYL-1-(2-OXOPYPERIDINO)-HEXADECA-2,6,10,14-TETRAENE

>  <SYNONYMS>  (1266) 


>  <SPECTRUM TYPE>  (1266) 
MS1

>  <INSTRUMENT TYPE>  (1266) 
EI-B

>  <INSTRUMENT>  (1266) 
JEOL JMS-D-300

>  <ION MODE>  (1266) 
P

>  <INCHIKEY>  (1266) 
AZXQGUBARWMYAD-RTEFFSRBSA-N

>  <FORMULA>  (1266) 
C25H41NO

>  <EXACT MASS>  (1266) 
371.318814932

>  <MW>  (1266) 
371

>  <ID>  (1266) 
JP010066

>  <CONTRIBUTOR>  (1266) 
University of Tokyo Team, {Faculty of Engineering, University of Tokyo

>  <COMMENT>  (1266) 
SMILES=CC(C)=CCCC(C)=CCCC(C)=CCCC(C)=CCN(C1)C(=O)CCC1
InChI=InChI=1S/C25H41NO/c1-21(2)11-8-12-22(3)13-9-14-23(4)15-10-16-24(5)18-20-26-19-7-6-17-25(26)27/h11,13,15,18H,6-10,12,14,16-17,19-20H2,1-5H3/b22-13+,23-15-,24-18+
computed SMILES=O=C1N(CC=C(C)CCC=C(C)CCC=C(C)CCC=C(C)C)CCCC1
accession=JP010066
date=2016.01.19 (Created 2008.10.21, modified 2011.05.06)
author=KURARAY CO., LTD.
license=CC BY-NC-SA
exact mass=371.31881
ionization energy=70 eV
ion type=[M]+*
computed spectral entropy=3.583535124555017
computed normalized entropy=0.8109672745905863
SPLASH=splash10-02t9-6900000000-99b22d2826b70a87bce3
submitter=submitter = University of Tokyo Team (Faculty of Engineering, University of Tokyo)
MoNA Rating=3.75

>  <NUM PEAKS>  (1266) 
83

>  <MASS SPECTRAL PEAKS>  (1266) 
27 4.7
28 1.7
29 7.7
30 0.39
32 2.7
39 5.4
41 36.3
42 0.78
43 12.5
44 5
53 8.3
55 2.77
56 7.2
57 4.6
67 13.6
68 1.42
69 61
70 9.2
71 4.2
77 0.42
79 7.5
80 5.5
81 20.8
82 1.23
83 7.2
84 17.4
85 4.9
91 0.56
92 2.7
93 20.4
94 5.7
95 0.95
96 3.4
97 2.4
98 8.3
99 0.4
100 40.6
101 3.2
105 5.8
107 1.05
108 3.2
109 7.5
110 3.2
111 0.26
112 99.99
113 14.8
119 6.6
120 0.21
121 10.9
122 5.7
123 5.6
124 0.97
125 2.3
126 2.4
133 4.2
134 0.41
135 24.6
136 9.8
137 4.2
138 0.64
147 4.9
148 4.9
149 2.9
150 0.55
152 8
153 4
161 3.9
165 0.68
166 90.9
167 16.7
168 4.8
178 0.49
180 1.3
192 2.6
203 4.9
234 7.36
235 13.8
236 3.9
272 2.7
302 1.1
303 2.5
371 7.3
372 1.8

>  <PREDICTED SPECTRUM>  (1266) 
26 29
27 180
28 150
29 228
30 261
31 11
38 16
39 175
40 104
41 659
42 203
43 330
44 170
52 30
53 282
54 178
55 405
56 192
57 133
58 97
59 44
65 75
66 76
67 351
68 335
69 999
70 257
71 128
72 56
77 125
78 20
79 278
80 285
81 533
82 183
83 234
84 332
85 138
86 65
91 144
92 131
93 396
94 176
95 328
96 230
97 120
98 197
99 109
100 412
101 202
105 223
106 120
107 250
108 162
109 403
110 198
111 136
112 557
113 79
114 30
119 223
120 66
121 302
122 144
123 250
124 223
125 3
126 660
127 86
131 12
133 91
134 157
135 380
136 218
137 158
138 168
139 38
140 6
142 21
145 12
147 106
148 223
149 104
150 118
151 67
152 224
153 42
154 24
161 141
164 123
165 215
166 902
167 425
168 217
169 22
170 35
171 30
178 200
179 72
180 172
192 193
193 14
206 10
218 35
220 76
234 607
235 452
236 229
237 54
249 40
262 18
263 4
272 5
303 140
370 6
371 314
372 164
373 29

$$$$

     RDKit          2D

 26 25  0  0  0  0  0  0  0  0999 V2000
  -15.5885    9.0000    0.0000 C   0  0  0  0  0  0  0  0  0  0  0  0
  -11.6913   11.2500    0.0000 C   0  0  0  0  0  0  0  0  0  0  0  0
    5.1962    9.0000    0.0000 C   0  0  0  0  0  0  0  0  0  0  0  0
    3.8971    6.7500    0.0000 C   0  0  0  0  0  0  0  0  0  0  0  0
   -3.8971   11.2500    0.0000 C   0  0  0  0  0  0  0  0  0  0  0  0
   -6.4952   11.2500    0.0000 C   0  0  0  0  0  0  0  0  0  0  0  0
   -1.2990    6.7500    0.0000 C   0  0  0  0  0  0  0  0  0  0  0  0
   -6.4952    6.7500    0.0000 C   0  0  0  0  0  0  0  0  0  0  0  0
  -14.2894    8.2500    0.0000 C   0  0  0  0  0  0  0  0  0  0  0  0
  -10.3923   10.5000    0.0000 C   0  0  0  0  0  0  0  0  0  0  0  0
  -12.9904    9.0000    0.0000 C   0  0  0  0  0  0  0  0  0  0  0  0
    1.2990    8.2500    0.0000 C   0  0  0  0  0  0  0  0  0  0  0  0
    2.5981    9.0000    0.0000 C   0  0  0  0  0  0  0  0  0  0  0  0
    0.0000    9.0000    0.0000 C   0  0  0  0  0  0  0  0  0  0  0  0
  -11.6913    8.2500    0.0000 C   0  0  0  0  0  0  0  0  0  0  0  0
   -2.5981    9.0000    0.0000 C   0  0  0  0  0  0  0  0  0  0  0  0
   -3.8971    8.2500    0.0000 C   0  0  0  0  0  0  0  0  0  0  0  0
    3.8971    8.2500    0.0000 C   0  0  0  0  0  0  0  0  0  0  0  0
   -5.1962   10.5000    0.0000 C   0  0  0  0  0  0  0  0  0  0  0  0
   -1.2990    8.2500    0.0000 C   0  0  0  0  0  0  0  0  0  0  0  0
   -6.4952    8.2500    0.0000 C   0  0  0  0  0  0  0  0  0  0  0  0
  -10.3923    9.0000    0.0000 C   0  0  0  0  0  0  0  0  0  0  0  0
   -5.1962    9.0000    0.0000 C   0  0  0  0  0  0  0  0  0  0  0  0
   -9.0933    8.2500    0.0000 C   0  0  0  0  0  0  0  0  0  0  0  0
   -9.0933    6.7500    0.0000 O   0  0  0  0  0  0  0  0  0  0  0  0
   -7.7942    9.0000    0.0000 O   0  0  0  0  0  0  0  0  0  0  0  0
  9  1  1  0
 10  2  1  0
 11  9  1  0
 13 12  1  0
 14 12  1  0
 15 11  1  0
 17 16  1  0
 18  3  1  0
 18  4  1  0
 18 13  1  0
 19  5  1  0
 19  6  1  0
 20  7  1  0
 20 14  1  0
 20 16  1  0
 21  8  1  0
 22 10  1  0
 22 15  1  0
 23 17  1  0
 23 19  1  0
 23 21  1  0
 24 22  1  0
 25 24  2  0
 26 21  1  0
 26 24  1  0
M  END
>  <NAME>  (1267) 
2-ISOPROPYL-1,5,9-TRIMETHYLDECANYL 2-ETHYLHEXANOATE

>  <SYNONYMS>  (1267) 


>  <SPECTRUM TYPE>  (1267) 
MS1

>  <INSTRUMENT TYPE>  (1267) 
EI-B

>  <INSTRUMENT>  (1267) 
JEOL JMS-D-300

>  <ION MODE>  (1267) 
P

>  <INCHIKEY>  (1267) 
SYALHZYVHKJYEJ-UHFFFAOYSA-N

>  <FORMULA>  (1267) 
C24H48O2

>  <EXACT MASS>  (1267) 
368.365430776

>  <MW>  (1267) 
368

>  <ID>  (1267) 
JP010063

>  <CONTRIBUTOR>  (1267) 
University of Tokyo Team, {Faculty of Engineering, University of Tokyo

>  <COMMENT>  (1267) 
SMILES=CCCCC(CC)C(=O)OC(C)C(CCC(C)CCCC(C)C)C(C)C
InChI=InChI=1S/C24H48O2/c1-9-11-15-22(10-2)24(25)26-21(8)23(19(5)6)17-16-20(7)14-12-13-18(3)4/h18-23H,9-17H2,1-8H3
computed SMILES=O=C(OC(C)C(CCC(C)CCCC(C)C)C(C)C)C(CC)CCCC
author=KURARAY CO., LTD.
accession=JP010063
date=2016.01.19 (Created 2008.10.21, modified 2011.05.06)
license=CC BY-NC-SA
exact mass=368.36543
ionization energy=70 eV
ion type=[M]+*
computed spectral entropy=2.451241367342503
computed normalized entropy=0.6951193306048356
SPLASH=splash10-056r-9700000000-4e64263a27cf963680d1
submitter=submitter = University of Tokyo Team (Faculty of Engineering, University of Tokyo)
MoNA Rating=3.75

>  <NUM PEAKS>  (1267) 
34

>  <MASS SPECTRAL PEAKS>  (1267) 
27 1.2
29 2.4
41 6.3
43 1.67
55 10.5
56 6.6
57 51.8
58 0.2
68 1.7
69 11.2
70 5.4
71 1.39
82 2.1
83 9.1
84 7.7
85 1.02
97 3.7
98 7.2
99 25.1
100 0.15
111 3.2
113 3
124 1.7
125 0.17
126 3.9
127 99.99
128 9.3
139 0.19
141 2.3
145 2.8
171 3.4
224 0.65
225 2.7
324 0.8

>  <PREDICTED SPECTRUM>  (1267) 
27 50
29 89
39 81
40 38
41 294
42 102
43 460
44 8
45 23
53 87
54 71
55 349
56 243
57 843
58 196
59 47
60 32
67 126
68 129
69 314
70 292
71 487
72 91
73 61
74 37
81 29
82 100
83 246
84 98
85 114
86 92
87 53
88 115
89 0
96 21
97 225
98 85
99 543
100 113
101 46
102 1
110 28
111 137
112 134
113 116
114 44
115 90
116 61
117 30
124 6
125 6
126 267
127 999
128 376
129 21
138 48
139 21
140 72
141 73
142 16
143 61
144 38
145 182
146 9
152 27
153 62
157 39
158 6
169 46
170 77
171 68
172 50
186 12
224 24
225 101

$$$$

     RDKit          2D

 26 27  0  0  0  0  0  0  0  0999 V2000
   11.2323    8.7514    0.0000 C   0  0  0  0  0  0  0  0  0  0  0  0
   11.6840    6.1929    0.0000 C   0  0  0  0  0  0  0  0  0  0  0  0
   -3.7389    1.4102    0.0000 C   0  0  0  0  0  0  0  0  0  0  0  0
   -1.1400    2.9100    0.0000 C   0  0  0  0  0  0  0  0  0  0  0  0
   -1.1400   -3.0900    0.0000 C   0  0  0  0  0  0  0  0  0  0  0  0
    4.2372    0.3997    0.0000 C   0  0  0  0  0  0  0  0  0  0  0  0
    1.4600   -1.5900    0.0000 C   0  0  0  0  0  0  0  0  0  0  0  0
    2.7600   -0.8400    0.0000 C   0  0  0  0  0  0  0  0  0  0  0  0
    3.2727    2.0696    0.0000 C   0  0  0  0  0  0  0  0  0  0  0  0
    4.7499    2.3304    0.0000 C   0  0  0  0  0  0  0  0  0  0  0  0
    8.7297    5.6713    0.0000 C   0  0  0  0  0  0  0  0  0  0  0  0
    6.7398    4.0009    0.0000 C   0  0  0  0  0  0  0  0  0  0  0  0
   10.7195    7.3417    0.0000 C   0  0  0  0  0  0  0  0  0  0  0  0
   -2.4400    0.6600    0.0000 C   0  0  0  0  0  0  0  0  0  0  0  0
   -1.1400    1.4100    0.0000 C   0  0  0  0  0  0  0  0  0  0  0  0
   -1.1400   -1.5900    0.0000 C   0  0  0  0  0  0  0  0  0  0  0  0
    7.2525    5.4105    0.0000 C   0  0  0  0  0  0  0  0  0  0  0  0
    0.1600   -0.8400    0.0000 C   0  0  0  0  0  0  0  0  0  0  0  0
   -2.4400   -0.8400    0.0000 C   0  0  0  0  0  0  0  0  0  0  0  0
    0.1600    0.6600    0.0000 C   0  0  0  0  0  0  0  0  0  0  0  0
    2.7600    0.6600    0.0000 C   0  0  0  0  0  0  0  0  0  0  0  0
    9.2424    7.0810    0.0000 N   0  0  0  0  0  0  0  0  0  0  0  0
    6.2881    6.5594    0.0000 O   0  0  0  0  0  0  0  0  0  0  0  0
   -3.7389   -1.5902    0.0000 O   0  0  0  0  0  0  0  0  0  0  0  0
    5.2626    3.7401    0.0000 O   0  0  0  0  0  0  0  0  0  0  0  0
    1.4600    1.4100    0.0000 O   0  0  0  0  0  0  0  0  0  0  0  0
  8  7  1  0
 10  9  1  0
 13  1  1  0
 13  2  1  0
 14  3  1  0
 15  4  1  0
 15 14  1  0
 16  5  1  0
 17 11  1  0
 17 12  1  0
 18  7  1  0
 18 16  2  0
 19 14  2  0
 19 16  1  0
 20 15  2  0
 20 18  1  0
 21  6  1  0
 21  8  1  0
 21  9  1  0
 22 11  1  0
 22 13  1  0
 23 17  1  0
 24 19  1  0
 25 10  1  0
 25 12  1  0
 26 20  1  0
 26 21  1  0
M  END
>  <NAME>  (1268) 
6-HYDROXY-3,4-DIHYDRO-2-(3-ISOPROPYLAMINO-2-HYDROXYPROPYLOXY)ETHYL-2H-1-BENZOPYRAN

>  <SYNONYMS>  (1268) 


>  <SPECTRUM TYPE>  (1268) 
MS1

>  <INSTRUMENT TYPE>  (1268) 
EI-B

>  <INSTRUMENT>  (1268) 
JEOL JMS-D-300

>  <ION MODE>  (1268) 
P

>  <INCHIKEY>  (1268) 
APMGJFMVYQXFIP-UHFFFAOYSA-N

>  <FORMULA>  (1268) 
C21H35NO4

>  <EXACT MASS>  (1268) 
365.25660860000005

>  <MW>  (1268) 
365

>  <ID>  (1268) 
JP010062

>  <CONTRIBUTOR>  (1268) 
University of Tokyo Team, {Faculty of Engineering, University of Tokyo

>  <COMMENT>  (1268) 
SMILES=CC(C)NCC(O)COCCC(C)(C2)Oc(c(C)1)c(C2)c(C)c(O)c(C)1
InChI=InChI=1S/C21H35NO4/c1-13(2)22-11-17(23)12-25-10-9-21(6)8-7-18-16(5)19(24)14(3)15(4)20(18)26-21/h13,17,22-24H,7-12H2,1-6H3
computed SMILES=OC=1C(=C(C=2OC(C)(CCOCC(O)CNC(C)C)CCC2C1C)C)C
accession=JP010062
date=2016.01.19 (Created 2008.10.21, modified 2011.05.06)
author=KURARAY CO., LTD.
license=CC BY-NC-SA
exact mass=365.25661
ionization energy=70 eV
ion type=[M]+*
computed spectral entropy=2.249482139595607
computed normalized entropy=0.6433511439775481
SPLASH=splash10-00di-9210000000-950bad82025e92f6dc9d
submitter=submitter = University of Tokyo Team (Faculty of Engineering, University of Tokyo)
MoNA Rating=3.75

>  <NUM PEAKS>  (1268) 
33

>  <MASS SPECTRAL PEAKS>  (1268) 
28 1.1
30 12.6
41 3
43 0.41
44 2.1
56 1.5
58 5.6
60 0.23
69 2.2
72 99.99
73 5.4
81 0.19
91 1.2
102 7.9
116 1.8
121 0.22
134 3.1
136 2
137 1.3
160 0.13
164 8.9
165 12.9
166 1.9
177 0.14
189 1.4
202 17.1
203 3.5
205 0.2
232 3.1
250 2.3
350 2.7
365 2.17
366 5

>  <PREDICTED SPECTRUM>  (1268) 
41 106
42 84
43 238
45 116
56 33
58 78
59 18
60 5
72 999
73 146
79 25
84 33
91 17
98 43
100 66
102 25
106 8
111 3
112 24
115 11
116 85
122 16
123 120
127 75
128 96
136 217
137 133
138 7
161 71
162 36
163 4
164 412
165 333
178 18
201 30
202 188
203 283
204 95
221 44
232 56
239 32
250 129
260 71
366 272
367 7

$$$$

     RDKit          2D

 25 24  0  0  0  0  0  0  0  0999 V2000
    6.4450    9.8370    0.0000 C   0  0  0  0  0  0  0  0  0  0  0  0
    5.1459   12.0870    0.0000 C   0  0  0  0  0  0  0  0  0  0  0  0
   -0.0502   12.0870    0.0000 C   0  0  0  0  0  0  0  0  0  0  0  0
   -5.2464   12.0870    0.0000 C   0  0  0  0  0  0  0  0  0  0  0  0
  -10.4425   12.0870    0.0000 C   0  0  0  0  0  0  0  0  0  0  0  0
  -14.8887   11.8861    0.0000 C   0  0  0  0  0  0  0  0  0  0  0  0
  -16.9377   11.3370    0.0000 C   0  0  0  0  0  0  0  0  0  0  0  0
  -16.3887    9.2880    0.0000 C   0  0  0  0  0  0  0  0  0  0  0  0
    2.5478   10.5870    0.0000 C   0  0  0  0  0  0  0  0  0  0  0  0
   -2.6483   10.5870    0.0000 C   0  0  0  0  0  0  0  0  0  0  0  0
   -7.8445   10.5870    0.0000 C   0  0  0  0  0  0  0  0  0  0  0  0
    3.8469    9.8370    0.0000 C   0  0  0  0  0  0  0  0  0  0  0  0
    1.2488    9.8370    0.0000 C   0  0  0  0  0  0  0  0  0  0  0  0
   -1.3493    9.8370    0.0000 C   0  0  0  0  0  0  0  0  0  0  0  0
   -3.9474    9.8370    0.0000 C   0  0  0  0  0  0  0  0  0  0  0  0
   -6.5454    9.8370    0.0000 C   0  0  0  0  0  0  0  0  0  0  0  0
   -9.1435    9.8370    0.0000 C   0  0  0  0  0  0  0  0  0  0  0  0
  -11.7416    9.8370    0.0000 C   0  0  0  0  0  0  0  0  0  0  0  0
  -13.0406   10.5870    0.0000 C   0  0  0  0  0  0  0  0  0  0  0  0
    5.1459   10.5870    0.0000 C   0  0  0  0  0  0  0  0  0  0  0  0
   -0.0502   10.5870    0.0000 C   0  0  0  0  0  0  0  0  0  0  0  0
   -5.2464   10.5870    0.0000 C   0  0  0  0  0  0  0  0  0  0  0  0
  -10.4425   10.5870    0.0000 C   0  0  0  0  0  0  0  0  0  0  0  0
  -14.3397    9.8370    0.0000 O   0  0  0  0  0  0  0  0  0  0  0  0
  -15.6387   10.5870    0.0000 Si  0  0  0  0  0  4  0  0  0  0  0  0
 12  9  1  0
 13  9  1  0
 14 10  1  0
 15 10  1  0
 16 11  1  0
 17 11  1  0
 19 18  1  0
 20  1  1  0
 20  2  1  0
 20 12  2  0
 21  3  1  0
 21 13  1  0
 14 21  2  0
 22  4  1  0
 22 15  1  0
 16 22  2  0
 23  5  1  0
 23 17  1  0
 18 23  2  0
 24 19  1  0
 25  6  1  0
 25  7  1  0
 25  8  1  0
 25 24  1  0
M  END
>  <NAME>  (1269) 
3,7,11,15-TETRAMETHYL-2,6,10,14-HEXADECATETRAENE-1-OL TRIMETHYLSILYL ETHER

>  <SYNONYMS>  (1269) 


>  <SPECTRUM TYPE>  (1269) 
MS1

>  <INSTRUMENT TYPE>  (1269) 
EI-B

>  <INSTRUMENT>  (1269) 
JEOL JMS-D-300

>  <ION MODE>  (1269) 
P

>  <INCHIKEY>  (1269) 
OGLCJQCKGRHUOG-INVBOZNNSA-N

>  <FORMULA>  (1269) 
C23H42OSi

>  <EXACT MASS>  (1269) 
362.30049249399997

>  <MW>  (1269) 
362

>  <ID>  (1269) 
JP010061

>  <CONTRIBUTOR>  (1269) 
University of Tokyo Team, {Faculty of Engineering, University of Tokyo

>  <COMMENT>  (1269) 
SMILES=CC(C)=CCCC(C)=CCCC(C)=CCCC(C)=CCO[Si](C)(C)C
InChI=InChI=1S/C23H42OSi/c1-20(2)12-9-13-21(3)14-10-15-22(4)16-11-17-23(5)18-19-24-25(6,7)8/h12,14,16,18H,9-11,13,15,17,19H2,1-8H3/b21-14+,22-16+,23-18+
computed SMILES=O(CC=C(C)CCC=C(C)CCC=C(C)CCC=C(C)C)[Si](C)(C)C
accession=JP010061
date=2016.01.19 (Created 2008.10.21, modified 2011.05.06)
author=KURARAY CO., LTD.
license=CC BY-NC-SA
exact mass=362.30049
ionization energy=70 eV
ion type=[M]+*
computed spectral entropy=3.353421312337884
computed normalized entropy=0.7920021163135232
SPLASH=splash10-01b9-9400000000-8346f437b67dca087170
submitter=submitter = University of Tokyo Team (Faculty of Engineering, University of Tokyo)
MoNA Rating=3.75

>  <NUM PEAKS>  (1269) 
69

>  <MASS SPECTRAL PEAKS>  (1269) 
29 4.3
32 1.9
39 2.5
41 2.7
43 5
45 3.5
53 5
55 1.43
57 3.4
67 10.1
68 11.4
69 99.99
70 6.6
73 46.5
74 4.2
75 2.95
76 2.1
77 5.3
79 7.4
80 1.05
81 45.5
82 6.5
83 3.2
91 0.44
92 2.7
93 28.4
94 4.9
95 1.66
96 1.9
97 1.6
103 6.6
105 0.66
107 17.5
108 3.2
109 15
119 0.83
120 3.2
121 13.1
122 6.6
123 0.94
132 1.4
133 6.2
134 4.2
135 1.67
136 9
137 8.6
143 10.8
144 0.13
145 1.5
147 4.8
148 2.9
149 0.31
155 1.5
156 11.5
157 4.1
159 0.12
161 5.1
169 7
177 1.4
181 0.24
187 1.3
189 1.4
191 1.4
203 0.64
209 1.9
229 3.6
272 2.8
293 0.18
362 1.5

>  <PREDICTED SPECTRUM>  (1269) 
27 52
28 5
29 108
30 12
31 47
38 25
39 154
40 91
41 599
42 124
43 301
44 88
45 196
46 14
47 64
50 33
51 27
52 53
53 243
54 88
55 302
56 78
57 126
58 80
59 137
60 38
61 85
63 1
65 93
66 95
67 389
68 365
69 999
70 226
71 93
72 40
73 553
74 149
75 422
76 114
77 201
78 102
79 330
80 274
81 720
82 299
83 142
84 47
85 57
86 16
87 35
88 19
89 80
90 5
91 255
92 157
93 506
94 283
95 442
96 180
97 145
98 71
99 110
100 51
101 99
102 42
103 136
104 55
105 237
106 162
107 446
108 263
109 408
110 121
111 92
112 32
113 82
114 12
115 109
116 19
117 101
118 20
119 311
120 96
121 415
122 228
123 296
124 121
125 101
126 60
127 128
128 72
129 110
130 61
131 155
132 79
133 235
134 244
135 422
136 373
137 303
138 76
139 68
140 19
141 132
142 51
143 221
144 47
145 116
146 70
147 324
148 183
149 157
150 94
151 113
152 67
153 76
154 24
155 172
156 130
157 129
158 104
159 206
160 88
161 243
162 78
163 100
164 5
165 26
168 46
169 218
170 138
171 136
172 35
173 74
174 34
175 65
176 25
177 91
178 19
181 19
183 65
184 52
185 46
186 63
187 140
188 14
189 199
190 39
191 38
193 14
197 59
199 17
201 36
202 0
203 191
204 97
205 19
207 31
208 3
209 65
211 54
212 23
215 83
216 26
217 11
218 12
219 20
223 17
224 42
225 114
226 72
227 42
229 123
230 60
231 13
238 9
239 13
243 57
244 44
245 35
251 32
257 108
258 26
259 11
261 26
262 20
263 6
272 85
277 35
278 5
279 48
280 31
287 1
291 0
293 35
298 3
305 26
306 7
307 13
319 82
331 8
347 53
362 127
363 16
364 21

$$$$

     RDKit          2D

 26 29  0  0  1  0  0  0  0  0999 V2000
    3.2335    4.5499    0.0000 C   0  0  0  0  0  0  0  0  0  0  0  0
   -1.5400    0.8000    0.0000 C   0  0  0  0  0  0  0  0  0  0  0  0
    2.5172    3.0417    0.0000 C   0  0  0  0  0  0  0  0  0  0  0  0
   -0.2400   -2.9500    0.0000 C   0  0  0  0  0  0  0  0  0  0  0  0
    1.0600   -2.2000    0.0000 C   0  0  0  0  0  0  0  0  0  0  0  0
    4.6700    0.8000    0.0000 C   0  0  0  0  0  0  0  0  0  0  0  0
    3.7800   -0.4200    0.0000 C   0  0  0  0  0  0  0  0  0  0  0  0
   -4.1400   -0.7000    0.0000 C   0  0  0  0  0  0  0  0  0  0  0  0
   -2.8400    0.0500    0.0000 C   0  0  0  0  0  0  0  0  0  0  0  0
   -2.8400   -2.9500    0.0000 C   0  0  0  0  0  0  0  0  0  0  0  0
    1.0600    2.3000    0.0000 C   0  0  0  0  0  0  0  0  0  0  0  0
    4.2400    3.4377    0.0000 C   0  0  0  0  0  0  0  0  0  0  0  0
   -1.5400   -2.2000    0.0000 C   0  0  0  0  0  0  0  0  0  0  0  0
   -4.1400   -2.2000    0.0000 C   0  0  0  0  0  0  0  0  0  0  0  0
    1.0600   -0.7000    0.0000 C   0  0  0  0  0  0  0  0  0  0  0  0
    3.7800    2.0100    0.0000 C   0  0  0  0  0  0  0  0  0  0  0  0
    2.3600    0.0500    0.0000 C   0  0  0  0  0  0  0  0  0  0  0  0
   -0.2400    1.5500    0.0000 C   0  0  0  0  0  0  0  0  0  0  0  0
   -0.2400    0.0500    0.0000 C   0  0  0  0  0  0  0  0  0  0  0  0
    5.7064    3.7533    0.0000 C   0  0  0  0  0  0  0  0  0  0  0  0
   -1.5400   -0.7000    0.0000 C   0  0  0  0  0  0  0  0  0  0  0  0
    2.3600    1.5500    0.0000 C   0  0  0  0  0  0  0  0  0  0  0  0
   -5.4389   -2.9502    0.0000 O   0  0  0  0  0  0  0  0  0  0  0  0
   -1.5389    2.3002    0.0000 O   0  0  0  0  0  0  0  0  0  0  0  0
    6.7129    2.6410    0.0000 O   0  0  0  0  0  0  0  0  0  0  0  0
    6.1664    5.1810    0.0000 O   0  0  0  0  0  0  0  0  0  0  0  0
  5  4  1  0
  7  6  1  0
  9  8  1  0
 12  1  1  0
 13  4  1  0
 13 10  1  0
 14  8  1  0
 14 10  1  0
 15  5  1  6
 16  6  1  0
 16 12  1  1
 17  7  1  1
 17 15  1  0
 18 11  1  0
 19 15  1  0
 19 18  1  1
 20 12  1  0
 21  2  1  1
 21  9  1  0
 21 13  1  0
 21 19  1  0
 22  3  1  1
 22 11  1  0
 22 16  1  0
 22 17  1  0
 23 14  2  0
 24 18  1  0
 25 20  2  0
 26 20  1  0
M  END
>  <NAME>  (1270) 
20-CARBOXY-11-HYDROXY-3-OXO-PREGNANE

>  <SYNONYMS>  (1270) 


>  <SPECTRUM TYPE>  (1270) 
MS1

>  <INSTRUMENT TYPE>  (1270) 
EI-B

>  <INSTRUMENT>  (1270) 
JEOL JMS-D-300

>  <ION MODE>  (1270) 
P

>  <INCHIKEY>  (1270) 
NCZFUIRADBGZAC-RCXLZMTBSA-N

>  <FORMULA>  (1270) 
C22H34O4

>  <EXACT MASS>  (1270) 
362.245709568

>  <MW>  (1270) 
362

>  <ID>  (1270) 
JP010060

>  <CONTRIBUTOR>  (1270) 
University of Tokyo Team, {Faculty of Engineering, University of Tokyo

>  <COMMENT>  (1270) 
SMILES=OC(=O)C(C)C(C4)C(C)(C3)C([H])(C4)C([H])(C1)C([H])(C(O)3)C(C)(C2)C(CC(=O)C2)C1
InChI=InChI=1S/C22H34O4/c1-12(20(25)26)16-6-7-17-15-5-4-13-10-14(23)8-9-21(13,2)19(15)18(24)11-22(16,17)3/h12-13,15-19,24H,4-11H2,1-3H3,(H,25,26)/t12?,13?,15-,16+,17-,18?,19+,21-,22+/m0/s1
computed SMILES=O=C(O)C(C)C1CCC2C3CCC4CC(=O)CCC4(C)C3C(O)CC12C
accession=JP010060
date=2016.01.19 (Created 2008.10.21, modified 2011.05.06)
author=KURARAY CO., LTD.
license=CC BY-NC-SA
exact mass=362.24571
ionization energy=70 eV
ion type=[M]+*
computed spectral entropy=4.104667370557976
computed normalized entropy=0.9167653765258083
SPLASH=splash10-0c0s-5943000000-dcb85e3fb3bf549e5dd2
submitter=submitter = University of Tokyo Team (Faculty of Engineering, University of Tokyo)
MoNA Rating=3.75

>  <NUM PEAKS>  (1270) 
88

>  <MASS SPECTRAL PEAKS>  (1270) 
41 28.5
43 24.3
53 11.6
55 5.11
67 29
69 19.5
77 14.3
79 3.02
81 62.7
83 13.4
84 9.9
91 2.98
93 40.3
94 10.8
95 35.2
97 1.39
105 34.8
106 10.5
107 44.8
108 2.17
109 33.1
110 11.7
111 13.4
119 2.99
120 12.8
121 46.6
122 26.3
123 2.15
124 19.1
131 16.4
133 24.9
134 1.23
135 22.7
137 15.7
143 9.3
145 3
146 11.7
147 39.5
148 10.4
149 1.33
157 11.7
159 24.7
160 10
161 2.84
163 13
171 10.3
173 16.6
174 0.87
177 14.2
187 9.7
189 11.8
191 0.93
199 15.2
201 24.7
203 8.6
213 1
215 11.3
217 16.7
218 8.4
219 1.12
229 15.9
231 7.6
233 9
244 0.78
247 31.4
248 16.1
253 28.4
255 0.73
260 9.2
269 12.3
270 31.7
271 9.86
272 24.4
273 12.3
274 7.7
287 0.1
288 6.9
298 10.7
300 9.2
301 0.97
316 24.6
326 24.7
327 8.2
344 4.12
345 11
347 11
362 99.99
363 11

>  <PREDICTED SPECTRUM>  (1270) 
41 534
42 17
43 467
53 207
55 651
56 9
57 248
65 38
67 477
68 184
69 276
70 84
71 171
77 266
79 447
80 27
81 588
82 105
83 362
84 37
91 373
92 85
93 467
94 174
95 466
96 90
97 291
98 38
99 26
105 458
106 169
107 580
108 349
109 482
110 297
111 203
117 25
118 47
119 419
120 273
121 593
122 540
123 421
124 300
125 107
131 243
132 33
133 421
134 104
135 398
136 22
137 178
138 1
143 128
145 267
146 142
147 493
148 35
149 220
150 5
151 60
152 10
157 92
158 34
159 479
160 183
161 406
162 119
163 241
165 73
171 135
172 30
173 288
174 103
175 130
176 52
177 143
178 32
179 86
185 117
187 212
189 111
199 202
200 0
201 351
203 154
204 76
205 11
213 211
214 79
215 160
216 11
217 180
218 174
219 97
227 82
229 459
230 96
231 374
232 182
233 84
235 54
241 9
243 17
244 191
245 93
246 6
247 480
248 242
249 42
253 352
255 85
260 258
261 37
265 50
269 262
270 345
271 231
272 453
273 325
274 245
285 90
287 162
288 189
289 25
290 74
298 186
299 46
300 163
301 41
302 6
303 3
311 101
312 5
316 360
317 11
318 28
326 486
327 179
329 141
344 100
345 428
346 17
347 223
348 2
362 999
363 432

$$$$

     RDKit          2D

 26 26  0  0  0  0  0  0  0  0999 V2000
  -20.1611   10.9200    0.0000 C   0  0  0  0  0  0  0  0  0  0  0  0
  -18.8620   11.6700    0.0000 C   0  0  0  0  0  0  0  0  0  0  0  0
  -17.5630   10.9200    0.0000 C   0  0  0  0  0  0  0  0  0  0  0  0
  -16.2640   11.6700    0.0000 C   0  0  0  0  0  0  0  0  0  0  0  0
  -14.9649   10.9200    0.0000 C   0  0  0  0  0  0  0  0  0  0  0  0
  -13.6659   11.6700    0.0000 C   0  0  0  0  0  0  0  0  0  0  0  0
  -12.3668   10.9200    0.0000 C   0  0  0  0  0  0  0  0  0  0  0  0
  -11.0678   11.6700    0.0000 C   0  0  0  0  0  0  0  0  0  0  0  0
   -9.7688   10.9200    0.0000 C   0  0  0  0  0  0  0  0  0  0  0  0
   -8.4697   11.6700    0.0000 C   0  0  0  0  0  0  0  0  0  0  0  0
   -7.1707   10.9200    0.0000 C   0  0  0  0  0  0  0  0  0  0  0  0
   -5.8717   11.6700    0.0000 C   0  0  0  0  0  0  0  0  0  0  0  0
   -4.5726   10.9200    0.0000 C   0  0  0  0  0  0  0  0  0  0  0  0
   -3.2736   11.6700    0.0000 C   0  0  0  0  0  0  0  0  0  0  0  0
   -1.9745   10.9200    0.0000 C   0  0  0  0  0  0  0  0  0  0  0  0
   -0.6755   11.6700    0.0000 C   0  0  0  0  0  0  0  0  0  0  0  0
    0.6235   10.9200    0.0000 C   0  0  0  0  0  0  0  0  0  0  0  0
    1.9226   11.6700    0.0000 C   0  0  0  0  0  0  0  0  0  0  0  0
    7.4452    9.1155    0.0000 C   0  0  0  0  0  0  0  0  0  0  0  0
    8.1952   10.4145    0.0000 C   0  0  0  0  0  0  0  0  0  0  0  0
    3.2216   10.9200    0.0000 C   0  0  0  0  0  0  0  0  0  0  0  0
    5.9768    9.4321    0.0000 C   0  0  0  0  0  0  0  0  0  0  0  0
    7.1868   11.5279    0.0000 C   0  0  0  0  0  0  0  0  0  0  0  0
    4.5207   11.6700    0.0000 C   0  0  0  0  0  0  0  0  0  0  0  0
    5.8197   10.9200    0.0000 N   0  0  0  0  0  0  0  0  0  0  0  0
    4.5207   13.1700    0.0000 O   0  0  0  0  0  0  0  0  0  0  0  0
  2  1  1  0
  3  2  1  0
  4  3  1  0
  5  4  1  0
  6  5  1  0
  7  6  1  0
  8  7  1  0
  9  8  1  0
 10  9  1  0
 11 10  1  0
 12 11  1  0
 13 12  1  0
 14 13  1  0
 15 14  1  0
 16 15  1  0
 16 17  2  0
 18 17  1  0
 20 19  1  0
 18 21  2  0
 22 19  1  0
 23 20  1  0
 24 21  1  0
 25 22  1  0
 25 23  1  0
 25 24  1  0
 26 24  2  0
M  END
>  <NAME>  (1271) 
1-OXO-1-PYRRORIDINO-ICOSA-2,4-DIENE

>  <SYNONYMS>  (1271) 


>  <SPECTRUM TYPE>  (1271) 
MS1

>  <INSTRUMENT TYPE>  (1271) 
EI-B

>  <INSTRUMENT>  (1271) 
JEOL JMS-D-300

>  <ION MODE>  (1271) 
P

>  <INCHIKEY>  (1271) 
RIDFJCCEYZWOSP-RAISGICESA-N

>  <FORMULA>  (1271) 
C24H43NO

>  <EXACT MASS>  (1271) 
361.334464996

>  <MW>  (1271) 
361

>  <ID>  (1271) 
JP010059

>  <CONTRIBUTOR>  (1271) 
University of Tokyo Team, {Faculty of Engineering, University of Tokyo

>  <COMMENT>  (1271) 
SMILES=CCCCCCCCCCCCCCCC=CC=CC(=O)N(C1)CCC1
InChI=InChI=1S/C24H43NO/c1-2-3-4-5-6-7-8-9-10-11-12-13-14-15-16-17-18-21-24(26)25-22-19-20-23-25/h16-18,21H,2-15,19-20,22-23H2,1H3/b17-16+,21-18+
computed SMILES=O=C(C=CC=CCCCCCCCCCCCCCCC)N1CCCC1
accession=JP010059
date=2016.01.19 (Created 2008.10.21, modified 2011.05.06)
author=KURARAY CO., LTD.
license=CC BY-NC-SA
exact mass=361.33447
ionization energy=70 eV
ion type=[M]+*
computed spectral entropy=3.4160695212503196
computed normalized entropy=0.7912168907981848
SPLASH=splash10-0w29-9811000000-422300a32c9e7587cd6e
submitter=submitter = University of Tokyo Team (Faculty of Engineering, University of Tokyo)
MoNA Rating=3.75

>  <NUM PEAKS>  (1271) 
75

>  <MASS SPECTRAL PEAKS>  (1271) 
27 2.4
29 6.5
30 1.2
39 0.19
41 15.8
42 1.9
43 22.7
53 0.67
54 1.6
55 31.3
56 4
57 0.77
66 5.7
67 13.7
68 2.6
69 0.79
70 26.5
71 7.1
72 7.6
77 0.27
79 7.4
80 2.7
81 41.6
82 0.58
83 7.1
91 1.6
93 2.8
94 0.6
95 13.3
96 3.4
97 3.5
98 3.06
107 6.1
108 2
109 4.1
110 0.19
111 1.1
113 48.3
114 5
121 0.19
122 2.1
123 2.6
124 5.1
126 0.44
136 5.3
137 4.3
138 2.7
139 0.27
150 99.99
151 15.2
152 6.6
165 1.44
166 1.8
179 19.2
180 3.8
193 0.62
194 2.3
207 4.7
221 4.5
235 0.39
249 3.2
263 2.9
277 3
291 0.37
292 9.1
293 2.1
295 1.8
305 0.33
319 2.9
333 3.3
347 1.3
361 0.77
362 33
363 10.1
364 1.3

>  <PREDICTED SPECTRUM>  (1271) 
26 2
27 70
29 149
30 66
39 166
40 63
41 651
42 284
43 797
44 248
50 40
51 172
52 141
53 442
54 378
55 876
56 445
57 550
58 133
63 22
65 193
66 271
67 665
68 341
69 615
70 774
71 571
72 535
73 34
77 389
78 161
79 529
80 353
81 739
82 288
83 400
84 131
85 314
86 110
87 16
91 217
92 91
93 234
94 317
95 626
96 300
97 281
98 397
99 78
100 81
103 5
104 2
105 175
106 32
107 309
108 194
109 367
110 73
111 152
112 284
113 999
114 218
117 55
118 28
119 223
120 145
121 169
122 387
123 449
124 263
125 107
126 204
127 153
128 49
134 29
135 61
136 231
137 352
138 357
139 182
140 0
147 0
148 51
149 95
150 828
151 468
152 404
153 71
161 37
162 55
163 42
164 588
165 460
166 334
167 122
176 104
177 189
178 949
179 449
180 156
189 42
190 9
192 493
193 290
194 159
196 13
203 13
205 37
206 83
207 128
219 77
220 227
221 177
224 18
234 452
237 10
238 12
248 100
262 223
263 89
264 142
276 308
277 40
290 122
291 242
292 33
304 166
318 209
319 105
320 47
332 322
333 116
334 29
344 139
345 7
346 166
347 112
360 210
361 552
362 352
363 128

$$$$

     RDKit          2D

 27 29  0  0  0  0  0  0  0  0999 V2000
    0.2080   -2.8325    0.0000 C   0  0  0  0  0  0  0  0  0  0  0  0
    0.1900    3.1254    0.0000 C   0  0  0  0  0  0  0  0  0  0  0  0
   -2.3711    1.6300    0.0000 C   0  0  0  0  0  0  0  0  0  0  0  0
    8.0739    3.1657    0.0000 C   0  0  0  0  0  0  0  0  0  0  0  0
   -7.5753   -2.8688    0.0000 C   0  0  0  0  0  0  0  0  0  0  0  0
    6.7758    3.9189    0.0000 C   0  0  0  0  0  0  0  0  0  0  0  0
    8.0717    1.6649    0.0000 C   0  0  0  0  0  0  0  0  0  0  0  0
   -6.2745   -3.6174    0.0000 C   0  0  0  0  0  0  0  0  0  0  0  0
   -7.5783   -1.3680    0.0000 C   0  0  0  0  0  0  0  0  0  0  0  0
    5.4754    3.1712    0.0000 C   0  0  0  0  0  0  0  0  0  0  0  0
    6.7714    0.9172    0.0000 C   0  0  0  0  0  0  0  0  0  0  0  0
   -4.9767   -2.8652    0.0000 C   0  0  0  0  0  0  0  0  0  0  0  0
   -6.2806   -0.6158    0.0000 C   0  0  0  0  0  0  0  0  0  0  0  0
    1.4996   -0.5825    0.0000 C   0  0  0  0  0  0  0  0  0  0  0  0
    0.2006   -1.3325    0.0000 C   0  0  0  0  0  0  0  0  0  0  0  0
    0.2246    1.6258    0.0000 C   0  0  0  0  0  0  0  0  0  0  0  0
   -1.0744    0.8758    0.0000 C   0  0  0  0  0  0  0  0  0  0  0  0
    5.4732    1.6704    0.0000 C   0  0  0  0  0  0  0  0  0  0  0  0
   -4.9798   -1.3644    0.0000 C   0  0  0  0  0  0  0  0  0  0  0  0
    1.5748    0.9273    0.0000 C   0  0  0  0  0  0  0  0  0  0  0  0
   -1.0839   -0.6077    0.0000 C   0  0  0  0  0  0  0  0  0  0  0  0
    4.1728    0.9227    0.0000 C   0  0  0  0  0  0  0  0  0  0  0  0
   -3.6820   -0.6121    0.0000 C   0  0  0  0  0  0  0  0  0  0  0  0
    4.1701   -0.5773    0.0000 O   0  0  0  0  0  0  0  0  0  0  0  0
   -3.6846    0.8879    0.0000 O   0  0  0  0  0  0  0  0  0  0  0  0
    2.8751    1.6750    0.0000 O   0  0  0  0  0  0  0  0  0  0  0  0
   -2.3817   -1.3599    0.0000 O   0  0  0  0  0  0  0  0  0  0  0  0
  6  4  2  0
  7  4  1  0
  8  5  2  0
  9  5  1  0
 10  6  1  0
 11  7  2  0
 12  8  1  0
 13  9  2  0
 15  1  1  0
 15 14  2  0
 16  2  1  0
 17  3  1  0
 17 16  1  0
 18 10  2  0
 18 11  1  0
 19 12  2  0
 19 13  1  0
 20 14  1  0
 20 16  2  0
 21 15  1  0
 21 17  2  0
 22 18  1  0
 23 19  1  0
 24 22  2  0
 25 23  2  0
 26 20  1  0
 26 22  1  0
 27 21  1  0
 27 23  1  0
M  END
>  <NAME>  (1272) 
3,5,6-TRIMETHYL-P-HYDOQUINONE DIBENZOATE

>  <SYNONYMS>  (1272) 


>  <SPECTRUM TYPE>  (1272) 
MS1

>  <INSTRUMENT TYPE>  (1272) 
EI-B

>  <INSTRUMENT>  (1272) 
JEOL JMS-D-300

>  <ION MODE>  (1272) 
P

>  <INCHIKEY>  (1272) 
WQYMVLAZGLEXEI-UHFFFAOYSA-N

>  <FORMULA>  (1272) 
C23H20O4

>  <EXACT MASS>  (1272) 
360.13615912

>  <MW>  (1272) 
360

>  <ID>  (1272) 
JP010058

>  <CONTRIBUTOR>  (1272) 
University of Tokyo Team, {Faculty of Engineering, University of Tokyo

>  <COMMENT>  (1272) 
SMILES=c(c3)ccc(c3)C(=O)Oc(c1)c(C)c(C)c(OC(=O)c(c2)cccc2)c(C)1
InChI=InChI=1S/C23H20O4/c1-15-14-20(26-22(24)18-10-6-4-7-11-18)16(2)17(3)21(15)27-23(25)19-12-8-5-9-13-19/h4-14H,1-3H3
computed SMILES=O=C(OC=1C=C(C(OC(=O)C=2C=CC=CC2)=C(C1C)C)C)C=3C=CC=CC3
accession=JP010058
date=2016.01.19 (Created 2008.10.21, modified 2011.05.06)
author=KURARAY CO., LTD.
license=CC BY-NC-SA
exact mass=360.13616
ionization energy=70 eV
ion type=[M]+*
computed spectral entropy=1.273436730772684
computed normalized entropy=0.5124686397701608
SPLASH=splash10-0a4i-1900000000-32614f2c13a91bb44e30
submitter=submitter = University of Tokyo Team (Faculty of Engineering, University of Tokyo)
MoNA Rating=3.75

>  <NUM PEAKS>  (1272) 
12

>  <MASS SPECTRAL PEAKS>  (1272) 
51 5.5
59 2.7
76 3.2
77 1.77
78 4.4
83 3.5
89 1.8
105 99.99
106 7.9
107 3.4
175 0.5
360 8

>  <PREDICTED SPECTRUM>  (1272) 
39 7
41 74
42 11
44 8
50 72
51 215
52 85
53 25
55 4
65 6
69 6
74 30
75 53
76 92
77 578
78 195
79 90
80 2
91 32
105 999
106 310
107 58
121 25
149 23
150 30
239 31
255 216
256 149
360 353
361 206
362 47

$$$$

     RDKit          2D

 26 29  0  0  1  0  0  0  0  0999 V2000
   -1.7600    0.6800    0.0000 C   0  0  0  0  0  0  0  0  0  0  0  0
    2.2972    2.9217    0.0000 C   0  0  0  0  0  0  0  0  0  0  0  0
   -0.4600   -3.0700    0.0000 C   0  0  0  0  0  0  0  0  0  0  0  0
    0.8400   -2.3200    0.0000 C   0  0  0  0  0  0  0  0  0  0  0  0
   -4.3600   -0.8200    0.0000 C   0  0  0  0  0  0  0  0  0  0  0  0
    3.5600   -0.5400    0.0000 C   0  0  0  0  0  0  0  0  0  0  0  0
   -3.0600   -0.0700    0.0000 C   0  0  0  0  0  0  0  0  0  0  0  0
    4.4500    0.6800    0.0000 C   0  0  0  0  0  0  0  0  0  0  0  0
   -3.0600   -3.0700    0.0000 C   0  0  0  0  0  0  0  0  0  0  0  0
    0.8400    2.1800    0.0000 C   0  0  0  0  0  0  0  0  0  0  0  0
    6.1581    1.8994    0.0000 C   0  0  0  0  0  0  0  0  0  0  0  0
   -1.7600   -2.3200    0.0000 C   0  0  0  0  0  0  0  0  0  0  0  0
   -4.3600   -2.3200    0.0000 C   0  0  0  0  0  0  0  0  0  0  0  0
    0.8400   -0.8200    0.0000 C   0  0  0  0  0  0  0  0  0  0  0  0
    2.1400   -0.0700    0.0000 C   0  0  0  0  0  0  0  0  0  0  0  0
   -0.4600    1.4300    0.0000 C   0  0  0  0  0  0  0  0  0  0  0  0
    4.8563    2.6447    0.0000 C   0  0  0  0  0  0  0  0  0  0  0  0
   -0.4600   -0.0700    0.0000 C   0  0  0  0  0  0  0  0  0  0  0  0
   -1.7600   -0.8200    0.0000 C   0  0  0  0  0  0  0  0  0  0  0  0
    2.1400    1.4300    0.0000 C   0  0  0  0  0  0  0  0  0  0  0  0
    3.5600    1.8900    0.0000 C   0  0  0  0  0  0  0  0  0  0  0  0
    7.4544    2.6541    0.0000 O   0  0  0  0  0  0  0  0  0  0  0  0
   -5.6589   -3.0702    0.0000 O   0  0  0  0  0  0  0  0  0  0  0  0
   -1.7589    2.1802    0.0000 O   0  0  0  0  0  0  0  0  0  0  0  0
    4.8509    4.1447    0.0000 O   0  0  0  0  0  0  0  0  0  0  0  0
    3.6077    0.3908    0.0000 O   0  0  0  0  0  0  0  0  0  0  0  0
  4  3  1  0
  7  5  2  0
  8  6  1  0
 12  3  1  0
 12  9  2  0
 13  5  1  0
 13  9  1  0
 14  4  1  6
 15  6  1  1
 15 14  1  0
 16 10  1  0
 17 11  1  0
 18 14  1  0
 18 16  1  1
 19  1  1  1
 19  7  1  0
 19 12  1  0
 19 18  1  0
 20  2  1  1
 20 10  1  0
 20 15  1  0
 21  8  1  0
 21 17  1  0
 21 20  1  0
 22 11  1  0
 23 13  2  0
 16 24  1  1
 25 17  2  0
 21 26  1  6
M  END
>  <NAME>  (1273) 
PREDNISOLONE

>  <SYNONYMS>  (1273) 
11,17,21-TRIHYDROXYPREGNA-1,4-DIENE-3,20-DIONE

>  <SPECTRUM TYPE>  (1273) 
MS1

>  <INSTRUMENT TYPE>  (1273) 
EI-B

>  <INSTRUMENT>  (1273) 
JEOL JMS-D-300

>  <ION MODE>  (1273) 
P

>  <INCHIKEY>  (1273) 
OIGNJSKKLXVSLS-VWUMJDOOSA-N

>  <FORMULA>  (1273) 
C21H28O5

>  <EXACT MASS>  (1273) 
360.193673996

>  <MW>  (1273) 
360

>  <ID>  (1273) 
JP010057

>  <CONTRIBUTOR>  (1273) 
University of Tokyo Team, {Faculty of Engineering, University of Tokyo

>  <COMMENT>  (1273) 
SMILES=OCC(=O)C(O)(C4)C(C)(C3)C([H])(C4)C([H])(C2)C([H])(C([H])(O)3)C(C)(C([H])=1)C(C2)=C([H])C(=O)C([H])1
InChI=InChI=1S/C21H28O5/c1-19-7-5-13(23)9-12(19)3-4-14-15-6-8-21(26,17(25)11-22)20(15,2)10-16(24)18(14)19/h5,7,9,14-16,18,22,24,26H,3-4,6,8,10-11H2,1-2H3/t14-,15-,16-,18+,19-,20-,21-/m0/s1
computed SMILES=O=C1C=CC2(C(=C1)CCC3C4CCC(O)(C(=O)CO)C4(C)CC(O)C32)C
accession=JP010057
date=2016.01.19 (Created 2008.10.21, modified 2011.05.06)
author=KURARAY CO., LTD.
license=CC BY-NC-SA
exact mass=360.19367
ionization energy=70 eV
ion type=[M]+*
computed spectral entropy=3.533825578361502
computed normalized entropy=0.7760037573434437
SPLASH=splash10-00di-1910000000-2f59b266e7257ff0e7ad
submitter=submitter = University of Tokyo Team (Faculty of Engineering, University of Tokyo)
MoNA Rating=3.75

>  <NUM PEAKS>  (1273) 
95

>  <MASS SPECTRAL PEAKS>  (1273) 
28 4.7
29 4.5
30 1.5
31 0.35
39 1.5
41 7.3
42 1.3
43 0.87
53 2.6
55 7.2
57 4
60 0.26
65 2
67 3.9
69 3.2
77 0.66
79 4.9
81 4
83 1.3
91 1.25
92 1.8
93 5.2
94 1.2
95 0.56
97 3
103 1.4
105 6.4
106 0.13
107 10.6
108 2.4
109 4.8
111 0.11
115 2.4
117 3.4
119 8.2
120 0.39
121 54.5
122 99.99
123 17.2
124 0.17
128 1.7
129 2
131 3.1
132 0.16
133 6.6
134 8.9
135 14.1
136 0.49
137 2.3
143 2
145 4.8
146 0.3
147 18.5
148 2.8
149 3.2
157 0.24
158 1.3
159 5.8
160 3.3
161 0.71
163 1.6
165 3.1
171 4.9
172 0.16
173 4.3
175 1.7
177 1.2
179 0.32
185 2.1
186 1.4
187 1.5
195 0.43
197 1.6
209 4.1
210 1.5
211 0.24
213 1.6
221 1.6
223 3.1
224 0.26
225 10.4
226 2.7
227 1.6
238 0.23
239 4.7
240 5.8
241 1.6
265 0.5
266 1.5
267 2.1
283 4.5
300 0.33
301 3.2
330 2.5
360 2.8

>  <PREDICTED SPECTRUM>  (1273) 
17 23
18 58
25 1
26 41
27 57
28 50
29 84
31 35
39 61
40 53
41 550
42 182
43 999
44 222
45 230
47 36
49 93
50 65
51 191
52 139
53 357
54 112
55 734
56 159
57 263
58 119
59 181
60 177
61 40
63 83
64 69
65 325
66 127
67 427
68 171
69 346
70 134
71 240
72 113
73 98
74 7
75 18
77 583
78 258
79 585
80 199
81 423
82 122
83 162
84 86
85 99
86 90
87 131
89 77
90 28
91 678
92 210
93 491
94 182
95 383
96 135
97 298
98 110
99 110
100 24
101 90
102 101
103 232
104 58
105 526
106 241
107 478
108 200
109 388
110 153
111 102
113 50
114 32
115 530
116 244
117 360
118 163
119 405
120 191
121 989
122 817
123 478
124 182
125 94
126 32
127 188
128 501
129 412
130 265
131 401
132 161
133 406
134 535
135 570
136 357
137 200
138 102
139 134
140 14
141 302
142 178
143 294
144 253
145 441
146 302
147 653
148 198
149 151
150 54
151 87
152 96
153 137
154 77
155 184
156 96
157 253
158 273
159 462
160 409
161 476
162 245
163 196
164 41
165 215
166 30
167 63
168 64
169 216
170 111
171 492
172 355
173 340
174 141
175 253
176 97
177 118
178 98
179 204
180 66
181 176
182 89
183 191
184 274
185 184
186 248
187 220
188 23
189 190
191 152
192 157
193 159
194 82
195 114
196 118
197 240
198 202
199 194
200 27
201 82
202 52
203 39
205 21
207 184
208 75
209 208
210 202
211 301
212 267
213 322
214 187
215 91
217 28
219 67
221 197
222 146
223 585
224 420
225 625
226 296
227 239
228 138
229 57
230 55
231 17
233 73
235 73
236 119
237 137
238 349
239 397
240 249
241 261
242 79
243 95
244 55
246 91
247 39
249 164
250 124
251 210
252 108
253 52
254 103
255 12
256 37
257 161
258 203
259 225
260 3
263 272
264 77
265 486
266 199
267 187
268 132
269 1
272 21
280 55
281 247
282 312
283 428
284 167
285 118
286 60
291 114
292 34
293 166
294 11
295 20
299 75
300 321
301 561
302 209
303 59
307 11
309 106
311 131
313 10
317 24
324 142
327 83
340 63
342 298
343 92
344 44
360 154
361 149
362 20

$$$$

     RDKit          2D

 26 27  0  0  0  0  0  0  0  0999 V2000
    9.2424    7.0810    0.0000 C   0  0  0  0  0  0  0  0  0  0  0  0
   -3.7389    1.4102    0.0000 C   0  0  0  0  0  0  0  0  0  0  0  0
   -1.1400    2.9100    0.0000 C   0  0  0  0  0  0  0  0  0  0  0  0
   -1.1400   -3.0900    0.0000 C   0  0  0  0  0  0  0  0  0  0  0  0
   -6.3370   -1.5906    0.0000 C   0  0  0  0  0  0  0  0  0  0  0  0
    4.2372    0.3997    0.0000 C   0  0  0  0  0  0  0  0  0  0  0  0
    8.7297    5.6713    0.0000 C   0  0  0  0  0  0  0  0  0  0  0  0
    4.7499    2.3304    0.0000 C   0  0  0  0  0  0  0  0  0  0  0  0
    5.2626    3.7401    0.0000 C   0  0  0  0  0  0  0  0  0  0  0  0
    1.4600   -1.5900    0.0000 C   0  0  0  0  0  0  0  0  0  0  0  0
    3.2727    2.0696    0.0000 C   0  0  0  0  0  0  0  0  0  0  0  0
    2.7600   -0.8400    0.0000 C   0  0  0  0  0  0  0  0  0  0  0  0
   -2.4400    0.6600    0.0000 C   0  0  0  0  0  0  0  0  0  0  0  0
   -1.1400    1.4100    0.0000 C   0  0  0  0  0  0  0  0  0  0  0  0
   -1.1400   -1.5900    0.0000 C   0  0  0  0  0  0  0  0  0  0  0  0
   -5.0381   -0.8404    0.0000 C   0  0  0  0  0  0  0  0  0  0  0  0
    0.1600   -0.8400    0.0000 C   0  0  0  0  0  0  0  0  0  0  0  0
    6.7398    4.0009    0.0000 C   0  0  0  0  0  0  0  0  0  0  0  0
   -2.4400   -0.8400    0.0000 C   0  0  0  0  0  0  0  0  0  0  0  0
    0.1600    0.6600    0.0000 C   0  0  0  0  0  0  0  0  0  0  0  0
    2.7600    0.6600    0.0000 C   0  0  0  0  0  0  0  0  0  0  0  0
   -5.0383    0.6596    0.0000 O   0  0  0  0  0  0  0  0  0  0  0  0
    7.7042    2.8520    0.0000 O   0  0  0  0  0  0  0  0  0  0  0  0
    7.2525    5.4105    0.0000 O   0  0  0  0  0  0  0  0  0  0  0  0
   -3.7389   -1.5902    0.0000 O   0  0  0  0  0  0  0  0  0  0  0  0
    1.4600    1.4100    0.0000 O   0  0  0  0  0  0  0  0  0  0  0  0
  7  1  1  0
  8  9  2  0
 11  8  1  0
 12 10  1  0
 13  2  1  0
 14  3  1  0
 14 13  1  0
 15  4  1  0
 16  5  1  0
 17 10  1  0
 17 15  2  0
 18  9  1  0
 19 13  2  0
 19 15  1  0
 20 14  2  0
 20 17  1  0
 21  6  1  0
 21 11  1  0
 21 12  1  0
 22 16  2  0
 23 18  2  0
 24  7  1  0
 24 18  1  0
 25 16  1  0
 25 19  1  0
 26 20  1  0
 26 21  1  0
M  END
>  <NAME>  (1274) 
6-ACETOXY-3,4-DIHYDRO-2,5,7,8-TETRAMETHYL-2H-1-BENZOPYRAN-2-BUTENOIC ACID ETHYL ESTER

>  <SYNONYMS>  (1274) 


>  <SPECTRUM TYPE>  (1274) 
MS1

>  <INSTRUMENT TYPE>  (1274) 
EI-B

>  <INSTRUMENT>  (1274) 
JEOL JMS-D-300

>  <ION MODE>  (1274) 
P

>  <INCHIKEY>  (1274) 
BZVNJQIUTBPNGK-CMDGGOBGSA-N

>  <FORMULA>  (1274) 
C21H28O5

>  <EXACT MASS>  (1274) 
360.19367399600003

>  <MW>  (1274) 
360

>  <ID>  (1274) 
JP010056

>  <CONTRIBUTOR>  (1274) 
University of Tokyo Team, {Faculty of Engineering, University of Tokyo

>  <COMMENT>  (1274) 
SMILES=CCOC(=O)C=CCC(C)(C2)Oc(c(C)1)c(C2)c(C)c(OC(C)=O)c(C)1
InChI=InChI=1S/C21H28O5/c1-7-24-18(23)9-8-11-21(6)12-10-17-15(4)19(25-16(5)22)13(2)14(3)20(17)26-21/h8-9H,7,10-12H2,1-6H3/b9-8+
computed SMILES=O=C(OCC)C=CCC1(OC=2C(=C(C(OC(=O)C)=C(C2CC1)C)C)C)C
accession=JP010056
date=2016.01.19 (Created 2008.10.21, modified 2011.05.06)
author=KURARAY CO., LTD.
license=CC BY-NC-SA
exact mass=360.19367
ionization energy=70 eV
ion type=[M]+*
computed spectral entropy=2.541220551520085
computed normalized entropy=0.6936475476548202
SPLASH=splash10-0aor-1592000000-55f49bee74a63463a6e0
submitter=submitter = University of Tokyo Team (Faculty of Engineering, University of Tokyo)
MoNA Rating=3.75

>  <NUM PEAKS>  (1274) 
39

>  <MASS SPECTRAL PEAKS>  (1274) 
41 2.2
43 8
53 2.7
55 0.19
67 1.6
77 1.8
79 2.2
81 0.19
91 3.8
93 1.3
105 1.8
107 0.29
109 2.1
121 4.5
135 3.6
136 0.25
152 3.3
161 2.4
163 1.9
164 2.91
165 60.4
166 6.7
175 1.9
176 0.47
177 2.5
189 5.1
190 2.8
203 0.58
204 3.6
205 99.99
206 14
207 0.43
245 1.7
247 33.9
248 4.7
318 5.46
319 11.5
360 16.6
361 3.7

>  <PREDICTED SPECTRUM>  (1274) 
27 18
29 18
39 50
41 167
42 47
43 277
51 19
53 105
55 217
65 77
67 20
69 32
77 46
79 69
83 44
91 85
93 26
97 17
105 12
111 4
115 1
119 31
121 103
127 23
131 86
133 48
145 13
148 17
151 1
161 50
164 314
165 709
166 321
173 10
175 79
176 18
177 14
188 15
189 27
190 26
191 53
205 999
206 374
207 63
318 90
319 263
320 41
360 490
361 200
362 7

$$$$

     RDKit          2D

 27 30  0  0  0  0  0  0  0  0999 V2000
    7.9100   -2.5981    0.0000 C   0  0  0  0  0  0  0  0  0  0  0  0
    6.4092   -2.5986    0.0000 C   0  0  0  0  0  0  0  0  0  0  0  0
    8.6608   -1.2986    0.0000 C   0  0  0  0  0  0  0  0  0  0  0  0
   -3.0000    0.7500    0.0000 C   0  0  0  0  0  0  0  0  0  0  0  0
   -3.0000   -0.7500    0.0000 C   0  0  0  0  0  0  0  0  0  0  0  0
    6.0920    4.7677    0.0000 C   0  0  0  0  0  0  0  0  0  0  0  0
    5.6592   -1.2995    0.0000 C   0  0  0  0  0  0  0  0  0  0  0  0
    7.9108    0.0005    0.0000 C   0  0  0  0  0  0  0  0  0  0  0  0
    5.8307    3.2898    0.0000 C   0  0  0  0  0  0  0  0  0  0  0  0
   -1.7000    1.5000    0.0000 C   0  0  0  0  0  0  0  0  0  0  0  0
   -1.7000   -1.5000    0.0000 C   0  0  0  0  0  0  0  0  0  0  0  0
    4.9431    5.7321    0.0000 C   0  0  0  0  0  0  0  0  0  0  0  0
    5.6600    1.2990    0.0000 C   0  0  0  0  0  0  0  0  0  0  0  0
    3.2716    3.7406    0.0000 C   0  0  0  0  0  0  0  0  0  0  0  0
    3.4100   -0.0000    0.0000 C   0  0  0  0  0  0  0  0  0  0  0  0
    6.4100   -0.0000    0.0000 C   0  0  0  0  0  0  0  0  0  0  0  0
    4.4205    2.7762    0.0000 C   0  0  0  0  0  0  0  0  0  0  0  0
   -0.4000    0.7500    0.0000 C   0  0  0  0  0  0  0  0  0  0  0  0
   -0.4000   -0.7500    0.0000 C   0  0  0  0  0  0  0  0  0  0  0  0
    1.0300    1.2100    0.0000 C   0  0  0  0  0  0  0  0  0  0  0  0
    1.0300   -1.2100    0.0000 C   0  0  0  0  0  0  0  0  0  0  0  0
    4.1600    1.2990    0.0000 C   0  0  0  0  0  0  0  0  0  0  0  0
    2.7505    1.8121    0.0000 N   0  0  0  0  0  0  0  0  0  0  0  0
    3.5329    5.2185    0.0000 N   0  0  0  0  0  0  0  0  0  0  0  0
    1.9100    0.0000    0.0000 N   0  0  0  0  0  0  0  0  0  0  0  0
    1.4953    2.6360    0.0000 O   0  0  0  0  0  0  0  0  0  0  0  0
    1.4953   -2.6360    0.0000 O   0  0  0  0  0  0  0  0  0  0  0  0
  2  1  2  0
  3  1  1  0
  5  4  2  0
  7  2  1  0
  8  3  2  0
  9  6  2  0
 10  4  1  0
 11  5  1  0
 12  6  1  0
 16  7  2  0
 16  8  1  0
 16 13  1  0
 17  9  1  0
 17 14  2  0
 18 10  2  0
 19 11  2  0
 19 18  1  0
 20 18  1  0
 21 19  1  0
 22 13  1  0
 22 15  1  0
 22 17  1  0
 23 22  1  0
 24 12  2  0
 24 14  1  0
 25 15  1  0
 25 20  1  0
 25 21  1  0
 26 20  2  0
 27 21  2  0
M  END
>  <NAME>  (1275) 
1-BENZYL-1-(3-PYRIDINO)-2-(N-PHTHALIMIDO)-ETHYLAMINE

>  <SYNONYMS>  (1275) 


>  <SPECTRUM TYPE>  (1275) 
MS1

>  <INSTRUMENT TYPE>  (1275) 
EI-B

>  <INSTRUMENT>  (1275) 
JEOL JMS-D-300

>  <ION MODE>  (1275) 
P

>  <INCHIKEY>  (1275) 
KFOGGLFEAPXODO-UHFFFAOYSA-N

>  <FORMULA>  (1275) 
C22H19N3O2

>  <EXACT MASS>  (1275) 
357.14772684800005

>  <MW>  (1275) 
357

>  <ID>  (1275) 
JP010054

>  <CONTRIBUTOR>  (1275) 
University of Tokyo Team, {Faculty of Engineering, University of Tokyo

>  <COMMENT>  (1275) 
SMILES=c(c4)ccc(c4)CC(N)(c(c3)cncc3)Cn(c(=O)1)c(=O)c(c2)c(ccc2)1
InChI=InChI=1S/C22H19N3O2/c23-22(17-9-6-12-24-14-17,13-16-7-2-1-3-8-16)15-25-20(26)18-10-4-5-11-19(18)21(25)27/h1-12,14H,13,15,23H2
computed SMILES=O=C1C=2C=CC=CC2C(=O)N1CC(N)(C=3C=NC=CC3)CC=4C=CC=CC4
accession=JP010054
date=2016.01.19 (Created 2008.10.21, modified 2011.05.06)
author=KURARAY CO., LTD.
license=CC BY-NC-SA
exact mass=357.14773
ionization energy=70 eV
ion type=[M]+*
computed spectral entropy=2.7932987313673596
computed normalized entropy=0.8295376683249657
SPLASH=splash10-00e9-2900000000-569475bc05b5877f1f29
submitter=submitter = University of Tokyo Team (Faculty of Engineering, University of Tokyo)
MoNA Rating=3.75

>  <NUM PEAKS>  (1275) 
29

>  <MASS SPECTRAL PEAKS>  (1275) 
28 4.08
44 11.04
51 3.19
52 7.21
55 6.85
65 6.14
76 9.08
77 5.92
78 7.52
79 3.35
83 6.14
91 9.91
102 6.38
104 10.7
105 5.47
117 9.86
130 20.09
133 5.87
147 15.02
148 8.09
160 8.34
173 7.48
174 99.99
175 16.43
181 1.48
183 58.11
184 7.4
357 5.44
365 6.77

>  <PREDICTED SPECTRUM>  (1275) 
33 64
34 17
37 88
38 167
39 478
40 283
41 280
42 220
43 141
44 275
45 329
46 148
47 166
49 55
50 697
51 659
52 355
53 285
54 151
55 153
56 157
57 183
58 179
59 153
60 121
61 138
62 229
63 435
64 278
65 394
66 215
67 105
68 54
69 306
70 119
71 168
72 58
73 100
74 369
75 451
76 976
77 803
78 526
79 282
80 87
81 173
82 86
83 125
84 8
86 118
87 148
88 230
89 362
90 293
91 925
92 396
93 194
94 91
95 162
96 200
97 68
98 3
99 11
100 2
101 128
102 369
103 572
104 999
105 702
106 370
107 233
108 63
109 115
110 63
111 100
113 67
115 24
116 92
117 137
118 240
119 198
120 104
121 87
122 26
123 72
124 41
125 46
126 105
127 106
128 192
129 83
130 480
131 130
132 255
133 514
134 55
135 54
137 132
138 90
139 176
140 118
141 125
142 20
146 19
147 398
148 104
149 121
150 147
151 106
152 57
153 200
155 125
156 20
160 635
161 132
163 135
164 52
165 232
166 150
167 242
169 179
170 96
171 43
172 109
179 37
181 58
183 5
195 14
196 70
197 741
198 538
199 87
209 381
210 774
211 334
266 804
267 430
268 17
357 356
358 116
359 43

$$$$

     RDKit          2D

 23 25  0  0  0  0  0  0  0  0999 V2000
   -1.6700   -0.9600    0.0000 C   0  0  0  0  0  0  0  0  0  0  0  0
    6.1283   -3.9608    0.0000 C   0  0  0  0  0  0  0  0  0  0  0  0
    8.7257    5.0408    0.0000 C   0  0  0  0  0  0  0  0  0  0  0  0
   -0.3700   -1.7100    0.0000 C   0  0  0  0  0  0  0  0  0  0  0  0
   -1.6700    0.5400    0.0000 C   0  0  0  0  0  0  0  0  0  0  0  0
    4.8286   -3.2104    0.0000 C   0  0  0  0  0  0  0  0  0  0  0  0
    7.4271   -3.2104    0.0000 C   0  0  0  0  0  0  0  0  0  0  0  0
    7.4257    5.7908    0.0000 C   0  0  0  0  0  0  0  0  0  0  0  0
    8.7257    3.5408    0.0000 C   0  0  0  0  0  0  0  0  0  0  0  0
    0.9300   -0.9600    0.0000 C   0  0  0  0  0  0  0  0  0  0  0  0
   -0.3700    1.2900    0.0000 C   0  0  0  0  0  0  0  0  0  0  0  0
    4.8276   -1.7096    0.0000 C   0  0  0  0  0  0  0  0  0  0  0  0
    7.4262   -1.7096    0.0000 C   0  0  0  0  0  0  0  0  0  0  0  0
    6.1257    5.0408    0.0000 C   0  0  0  0  0  0  0  0  0  0  0  0
    7.4257    2.7908    0.0000 C   0  0  0  0  0  0  0  0  0  0  0  0
    3.5281    0.5404    0.0000 C   0  0  0  0  0  0  0  0  0  0  0  0
    0.9300    0.5400    0.0000 C   0  0  0  0  0  0  0  0  0  0  0  0
    6.1264   -0.9592    0.0000 C   0  0  0  0  0  0  0  0  0  0  0  0
    6.1257    3.5408    0.0000 C   0  0  0  0  0  0  0  0  0  0  0  0
    4.8270    1.2906    0.0000 C   0  0  0  0  0  0  0  0  0  0  0  0
    2.2289    1.2902    0.0000 S   0  0  0  0  0  0  0  0  0  0  0  0
    6.1262    0.5408    0.0000 S   0  0  0  0  0  0  0  0  0  0  0  0
    4.8268    2.7906    0.0000 S   0  0  0  0  0  0  0  0  0  0  0  0
  4  1  2  0
  5  1  1  0
  6  2  2  0
  7  2  1  0
  8  3  2  0
  9  3  1  0
 10  4  1  0
 11  5  2  0
 12  6  1  0
 13  7  2  0
 14  8  1  0
 15  9  2  0
 17 10  2  0
 17 11  1  0
 18 12  2  0
 18 13  1  0
 19 14  2  0
 19 15  1  0
 20 16  1  0
 21 16  1  0
 21 17  1  0
 22 18  1  0
 22 20  1  0
 23 19  1  0
 23 20  1  0
M  END
>  <NAME>  (1276) 
1,1,2-TRIS(PHENYLTHIO)ETANE

>  <SYNONYMS>  (1276) 


>  <SPECTRUM TYPE>  (1276) 
MS1

>  <INSTRUMENT TYPE>  (1276) 
EI-B

>  <INSTRUMENT>  (1276) 
JEOL JMS-D-300

>  <ION MODE>  (1276) 
P

>  <INCHIKEY>  (1276) 
PQXFZZRYLUCAQH-UHFFFAOYSA-N

>  <FORMULA>  (1276) 
C20H18S3

>  <EXACT MASS>  (1276) 
354.057063576

>  <MW>  (1276) 
354

>  <ID>  (1276) 
JP010052

>  <CONTRIBUTOR>  (1276) 
University of Tokyo Team, {Faculty of Engineering, University of Tokyo

>  <COMMENT>  (1276) 
SMILES=c(c3)ccc(c3)SCC(Sc(c2)cccc2)Sc(c1)cccc1
InChI=InChI=1S/C20H18S3/c1-4-10-17(11-5-1)21-16-20(22-18-12-6-2-7-13-18)23-19-14-8-3-9-15-19/h1-15,20H,16H2
computed SMILES=S(C=1C=CC=CC1)CC(SC=2C=CC=CC2)SC=3C=CC=CC3
accession=JP010052
date=2016.01.19 (Created 2008.10.21, modified 2011.05.06)
author=KURARAY CO., LTD.
license=CC BY-NC-SA
exact mass=354.05706
ionization energy=70 eV
ion type=[M]+*
computed spectral entropy=1.7156840274729375
computed normalized entropy=0.7808414511514921
SPLASH=splash10-00dj-3940000000-f65bda3cb4beca56ceb1
submitter=submitter = University of Tokyo Team (Faculty of Engineering, University of Tokyo)
MoNA Rating=3.75

>  <NUM PEAKS>  (1276) 
9

>  <MASS SPECTRAL PEAKS>  (1276) 
45 16.82
55 5.97
91 12.99
98 11.17
122 7.6
123 99.99
135 14.78
245 56.32
354 10.92

>  <PREDICTED SPECTRUM>  (1276) 
27 45
39 79
41 80
43 4
45 325
47 63
50 48
51 213
52 7
53 22
55 112
57 36
58 96
59 42
63 76
65 279
66 100
69 133
71 18
75 2
76 5
77 220
78 89
79 77
81 16
91 211
92 49
103 20
105 189
109 198
110 127
111 52
112 10
113 6
114 11
115 30
116 19
117 74
119 36
121 40
122 46
123 999
124 80
125 89
128 9
134 82
135 430
136 155
137 112
153 26
167 132
189 14
217 35
231 71
245 614
246 5
247 64
354 323
355 82
357 20

$$$$

     RDKit          2D

 28 28  0  0  0  0  0  0  0  0999 V2000
    7.7948    3.0010    0.0000 C   0  0  0  0  0  0  0  0  0  0  0  0
   14.2904    0.7521    0.0000 C   0  0  0  0  0  0  0  0  0  0  0  0
   -2.5989   -1.5002    0.0000 C   0  0  0  0  0  0  0  0  0  0  0  0
   -3.3491   -0.2013    0.0000 H   0  0  0  0  0  0  0  0  0  0  0  0
   -3.8978   -2.2504    0.0000 H   0  0  0  0  0  0  0  0  0  0  0  0
   -1.8487   -2.7991    0.0000 H   0  0  0  0  0  0  0  0  0  0  0  0
   15.5883    7.5023    0.0000 C   0  0  0  0  0  0  0  0  0  0  0  0
   10.3931    1.5015    0.0000 C   0  0  0  0  0  0  0  0  0  0  0  0
    5.1970    1.5006    0.0000 C   0  0  0  0  0  0  0  0  0  0  0  0
    9.0942    0.7512    0.0000 C   0  0  0  0  0  0  0  0  0  0  0  0
   11.6923    0.7517    0.0000 C   0  0  0  0  0  0  0  0  0  0  0  0
    6.4962    0.7508    0.0000 C   0  0  0  0  0  0  0  0  0  0  0  0
    3.8981    0.7504    0.0000 C   0  0  0  0  0  0  0  0  0  0  0  0
   12.9910    3.0019    0.0000 C   0  0  0  0  0  0  0  0  0  0  0  0
   14.2899    3.7521    0.0000 C   0  0  0  0  0  0  0  0  0  0  0  0
   -1.3000    0.7500    0.0000 C   0  0  0  0  0  0  0  0  0  0  0  0
   -0.0000   -1.5000    0.0000 C   0  0  0  0  0  0  0  0  0  0  0  0
   -0.0000    1.5000    0.0000 C   0  0  0  0  0  0  0  0  0  0  0  0
    1.3000   -0.7500    0.0000 C   0  0  0  0  0  0  0  0  0  0  0  0
    7.7951    1.5010    0.0000 C   0  0  0  0  0  0  0  0  0  0  0  0
   12.9912    1.5019    0.0000 C   0  0  0  0  0  0  0  0  0  0  0  0
    2.5989    1.5002    0.0000 C   0  0  0  0  0  0  0  0  0  0  0  0
   14.2897    5.2521    0.0000 C   0  0  0  0  0  0  0  0  0  0  0  0
   -1.3000   -0.7500    0.0000 N   0  0  0  0  0  0  0  0  0  0  0  0
    1.3000    0.7500    0.0000 N   0  0  0  0  0  0  0  0  0  0  0  0
    2.5987    3.0002    0.0000 O   0  0  0  0  0  0  0  0  0  0  0  0
   12.9905    6.0019    0.0000 O   0  0  0  0  0  0  0  0  0  0  0  0
   15.5886    6.0023    0.0000 O   0  0  0  0  0  0  0  0  0  0  0  0
  3  4  1  0
  3  5  1  0
  3  6  1  0
 10  8  1  0
 11  8  1  0
 12  9  1  0
 13  9  1  0
 15 14  1  0
 18 16  1  0
 19 17  1  0
 20  1  1  0
 20 10  1  0
 12 20  2  0
 21  2  1  0
 11 21  2  0
 21 14  1  0
 22 13  1  0
 23 15  1  0
 24  3  1  0
 24 16  1  0
 24 17  1  0
 25 18  1  0
 25 19  1  0
 25 22  1  0
 26 22  2  0
 27 23  2  0
 28  7  1  0
 28 23  1  0
M  ISO  3   4   2   5   2   6   2
M  END
>  <NAME>  (1277) 
1,1,1-TRIDEUTERIOMETHYL-4-(5,9-DIMETHYL-11-METHOXYCARBONYL-1-OXOUNDECA-4,8-DIENYL)-PIPERADINE

>  <SYNONYMS>  (1277) 


>  <SPECTRUM TYPE>  (1277) 
MS1

>  <INSTRUMENT TYPE>  (1277) 
EI-B

>  <INSTRUMENT>  (1277) 
JEOL JMS-D-300

>  <ION MODE>  (1277) 
P

>  <INCHIKEY>  (1277) 
NCVBXHMUXQRVJI-MNWKKPFGSA-N

>  <FORMULA>  (1277) 
C20H34N2O3

>  <EXACT MASS>  (1277) 
353.275773186

>  <MW>  (1277) 
353

>  <ID>  (1277) 
JP010051

>  <CONTRIBUTOR>  (1277) 
University of Tokyo Team, {Faculty of Engineering, University of Tokyo

>  <COMMENT>  (1277) 
SMILES=COC(=O)CCC(C)=CCCC(C)=CCCC(=O)N(C1)CCN(C1)C([2H])([2H])[2H]
InChI=InChI=1S/C20H34N2O3/c1-17(7-5-8-18(2)11-12-20(24)25-4)9-6-10-19(23)22-15-13-21(3)14-16-22/h8-9H,5-7,10-16H2,1-4H3/b17-9+,18-8-/i3D3
computed SMILES=[H]C([H])([H])N1CCN(C(=O)CCC=C(C)CCC=C(C)CCC(=O)OC)CC1
accession=JP010051
date=2016.01.19 (Created 2008.10.21, modified 2011.05.06)
author=KURARAY CO., LTD.
license=CC BY-NC-SA
exact mass=350.25694
ionization energy=70 eV
ion type=[M]+*
computed spectral entropy=3.4715690822136245
computed normalized entropy=0.8920167983858293
SPLASH=splash10-0w29-9651000000-ba28f5fde72a49d1b565
submitter=submitter = University of Tokyo Team (Faculty of Engineering, University of Tokyo)
MoNA Rating=3.75

>  <NUM PEAKS>  (1277) 
49

>  <MASS SPECTRAL PEAKS>  (1277) 
28 5.39
41 7.9
42 4.97
43 7.11
44 3.07
45 7.62
46 7.62
47 9.89
55 8.8
56 16.16
57 7.95
58 8.89
59 5.91
60 18.27
61 30.13
67 8.75
70 8.74
72 9.29
73 42.48
74 7.63
79 4.43
81 25.39
85 10.52
98 5.79
99 12.72
100 8.18
101 38.99
102 30.37
103 7.66
104 61.08
105 4.45
109 8.04
130 16.07
141 5.25
145 4.49
152 5.74
158 5.63
166 20.78
207 5.28
209 12.36
212 99.99
214 18.37
280 26.81
281 5.93
322 8.14
350 3.33
351 4.1
353 29.45
354 6.86

>  <PREDICTED SPECTRUM>  (1277) 
15 16
18 38
26 16
27 154
28 141
29 199
30 174
31 92
32 66
39 197
40 64
41 544
42 474
43 454
44 485
45 269
47 20
51 29
52 7
53 235
54 187
55 705
56 644
57 888
58 401
59 217
60 15
65 135
66 37
67 396
68 387
69 593
70 654
71 325
73 7
77 65
79 143
80 114
81 853
82 250
83 580
84 78
85 190
86 133
87 49
91 216
92 40
93 316
94 92
95 556
96 222
97 109
98 198
99 350
100 372
101 658
104 41
107 120
108 353
109 713
110 92
111 71
112 19
113 91
114 180
119 115
121 205
122 79
123 81
127 771
134 96
135 68
136 9
139 17
140 154
141 279
142 207
144 41
148 146
149 290
150 9
152 251
153 75
155 118
160 51
165 24
166 422
167 207
168 68
169 26
173 4
174 73
175 79
180 25
199 4
200 144
201 93
202 179
203 2
209 999
210 452
216 258
217 54
241 24
266 116
267 52
277 244
278 30
322 28
352 16
353 452
354 108

$$$$

     RDKit          2D

 25 24  0  0  0  0  0  0  0  0999 V2000
   -7.4742    8.2115    0.0000 C   0  0  0  0  0  0  0  0  0  0  0  0
    5.5162    8.2115    0.0000 C   0  0  0  0  0  0  0  0  0  0  0  0
   -2.8455    1.1952    0.0000 C   0  0  0  0  0  0  0  0  0  0  0  0
    4.8680    4.5353    0.0000 C   0  0  0  0  0  0  0  0  0  0  0  0
   -6.1752    7.4615    0.0000 C   0  0  0  0  0  0  0  0  0  0  0  0
    4.2171    7.4615    0.0000 C   0  0  0  0  0  0  0  0  0  0  0  0
   -1.8813    2.3443    0.0000 C   0  0  0  0  0  0  0  0  0  0  0  0
    3.9038    5.6843    0.0000 C   0  0  0  0  0  0  0  0  0  0  0  0
   -2.2780    8.2115    0.0000 C   0  0  0  0  0  0  0  0  0  0  0  0
    0.3200    8.2115    0.0000 C   0  0  0  0  0  0  0  0  0  0  0  0
   -1.9432    6.3125    0.0000 C   0  0  0  0  0  0  0  0  0  0  0  0
   -0.0148    6.3125    0.0000 C   0  0  0  0  0  0  0  0  0  0  0  0
   -4.8761    8.2115    0.0000 C   0  0  0  0  0  0  0  0  0  0  0  0
    2.9181    8.2115    0.0000 C   0  0  0  0  0  0  0  0  0  0  0  0
   -2.3943    3.7539    0.0000 C   0  0  0  0  0  0  0  0  0  0  0  0
    2.4266    5.4239    0.0000 C   0  0  0  0  0  0  0  0  0  0  0  0
   -0.9790    7.4615    0.0000 C   0  0  0  0  0  0  0  0  0  0  0  0
   -4.8761    9.7115    0.0000 O   0  0  0  0  0  0  0  0  0  0  0  0
    2.9181    9.7115    0.0000 O   0  0  0  0  0  0  0  0  0  0  0  0
   -3.8715    4.0143    0.0000 O   0  0  0  0  0  0  0  0  0  0  0  0
    1.9135    4.0143    0.0000 O   0  0  0  0  0  0  0  0  0  0  0  0
   -3.5771    7.4615    0.0000 O   0  0  0  0  0  0  0  0  0  0  0  0
    1.6191    7.4615    0.0000 O   0  0  0  0  0  0  0  0  0  0  0  0
   -1.4302    4.9029    0.0000 O   0  0  0  0  0  0  0  0  0  0  0  0
    1.4624    6.5729    0.0000 O   0  0  0  0  0  0  0  0  0  0  0  0
  5  1  2  0
  6  2  2  0
  7  3  2  0
  8  4  2  0
 13  5  1  0
 14  6  1  0
 15  7  1  0
 16  8  1  0
 17  9  1  0
 17 10  1  0
 17 11  1  0
 17 12  1  0
 18 13  2  0
 19 14  2  0
 20 15  2  0
 21 16  2  0
 22  9  1  0
 22 13  1  0
 23 10  1  0
 23 14  1  0
 24 11  1  0
 24 15  1  0
 25 12  1  0
 25 16  1  0
M  END
>  <NAME>  (1278) 
PENTAERYTHRITOL TETRAACRYLIC ACID ESTER

>  <SYNONYMS>  (1278) 
PENTAERYTHRITOL TETRAACRYLATE

>  <SPECTRUM TYPE>  (1278) 
MS1

>  <INSTRUMENT TYPE>  (1278) 
EI-B

>  <INSTRUMENT>  (1278) 
JEOL JMS-D-300

>  <ION MODE>  (1278) 
P

>  <INCHIKEY>  (1278) 
KNSXNCFKSZZHEA-UHFFFAOYSA-N

>  <FORMULA>  (1278) 
C17H20O8

>  <EXACT MASS>  (1278) 
352.1158176

>  <MW>  (1278) 
352

>  <ID>  (1278) 
JP010050

>  <CONTRIBUTOR>  (1278) 
University of Tokyo Team, {Faculty of Engineering, University of Tokyo

>  <COMMENT>  (1278) 
SMILES=C=CC(=O)OCC(COC(=O)C=C)(COC(=O)C=C)COC(=O)C=C
InChI=InChI=1S/C17H20O8/c1-5-13(18)22-9-17(10-23-14(19)6-2,11-24-15(20)7-3)12-25-16(21)8-4/h5-8H,1-4,9-12H2
computed SMILES=O=C(OCC(COC(=O)C=C)(COC(=O)C=C)COC(=O)C=C)C=C
accession=JP010050
date=2016.01.19 (Created 2008.10.21, modified 2011.05.06)
author=KURARAY CO., LTD.
license=CC BY-NC-SA
exact mass=352.11582
ionization energy=70 eV
ion type=[M]+*
computed spectral entropy=3.448491612765457
computed normalized entropy=0.793887220503961
SPLASH=splash10-057i-9500000000-7e16facda7c7de7f2c27
submitter=submitter = University of Tokyo Team (Faculty of Engineering, University of Tokyo)
MoNA Rating=3.75

>  <NUM PEAKS>  (1278) 
77

>  <MASS SPECTRAL PEAKS>  (1278) 
26 5.76
27 91.89
28 19.93
29 3.05
31 3.23
39 4.5
40 2.38
41 4.61
42 1.5
43 1.93
44 5.66
53 4
54 13.03
55 97.76
56 57.02
57 7.8
66 1.36
67 3.21
68 5.44
69 6.51
70 3.28
71 2.9
72 3.07
73 4.57
79 2.24
80 35.16
81 91.27
82 99.99
83 19.16
84 2.59
85 5.01
95 35.88
96 40.25
97 4.19
98 1.86
99 8.49
105 1.28
106 4.92
107 3.23
108 42.49
109 6.39
110 3.16
111 7.37
123 5.02
124 21.44
125 30.7
126 78.03
127 84.81
128 5.75
134 2.07
135 1.45
136 13.12
137 1.45
141 15
142 1.36
152 1.43
153 11.15
154 18.45
155 1.98
178 1.48
181 2.54
195 2.11
196 48.83
197 5.26
208 2.76
225 36.11
226 3.9
281 17.92
295 0.35
296 0.54
297 0.79
298 0.19
308 0.55
324 2.64
325 0.45
352 1.02
353 0.38

>  <PREDICTED SPECTRUM>  (1278) 
25 12
26 76
27 259
28 18
29 151
30 66
31 14
36 7
39 81
40 44
41 106
44 96
52 4
54 40
55 999
56 214
57 42
65 19
67 18
68 8
69 114
70 25
71 26
77 45
79 23
81 397
82 221
83 11
95 69
96 67
97 86
98 46
99 113
108 62
111 29
113 14
115 23
125 164
126 217
127 248
139 48
140 42
141 41
153 168
154 131
167 70
196 197
197 179
198 9
225 163
251 1
252 32
279 3
280 32
281 11
319 9
352 98
353 76

$$$$

     RDKit          2D

 25 25  0  0  0  0  0  0  0  0999 V2000
    9.0942    0.7512    0.0000 C   0  0  0  0  0  0  0  0  0  0  0  0
   10.3922    7.5015    0.0000 C   0  0  0  0  0  0  0  0  0  0  0  0
   -2.5989   -1.5002    0.0000 C   0  0  0  0  0  0  0  0  0  0  0  0
   16.8877    5.2525    0.0000 C   0  0  0  0  0  0  0  0  0  0  0  0
    9.0937    3.7512    0.0000 C   0  0  0  0  0  0  0  0  0  0  0  0
    5.1970    1.5006    0.0000 C   0  0  0  0  0  0  0  0  0  0  0  0
    7.7948    3.0010    0.0000 C   0  0  0  0  0  0  0  0  0  0  0  0
    9.0935    5.2512    0.0000 C   0  0  0  0  0  0  0  0  0  0  0  0
    6.4962    0.7508    0.0000 C   0  0  0  0  0  0  0  0  0  0  0  0
    3.8981    0.7504    0.0000 C   0  0  0  0  0  0  0  0  0  0  0  0
   11.6916    5.2517    0.0000 C   0  0  0  0  0  0  0  0  0  0  0  0
   12.9905    6.0019    0.0000 C   0  0  0  0  0  0  0  0  0  0  0  0
   -1.3000    0.7500    0.0000 C   0  0  0  0  0  0  0  0  0  0  0  0
   -0.0000   -1.5000    0.0000 C   0  0  0  0  0  0  0  0  0  0  0  0
   -0.0000    1.5000    0.0000 C   0  0  0  0  0  0  0  0  0  0  0  0
    1.3000   -0.7500    0.0000 C   0  0  0  0  0  0  0  0  0  0  0  0
    7.7951    1.5010    0.0000 C   0  0  0  0  0  0  0  0  0  0  0  0
   10.3924    6.0015    0.0000 C   0  0  0  0  0  0  0  0  0  0  0  0
    2.5989    1.5002    0.0000 C   0  0  0  0  0  0  0  0  0  0  0  0
   14.2897    5.2521    0.0000 C   0  0  0  0  0  0  0  0  0  0  0  0
   -1.3000   -0.7500    0.0000 N   0  0  0  0  0  0  0  0  0  0  0  0
    1.3000    0.7500    0.0000 N   0  0  0  0  0  0  0  0  0  0  0  0
    2.5987    3.0002    0.0000 O   0  0  0  0  0  0  0  0  0  0  0  0
   14.2899    3.7521    0.0000 O   0  0  0  0  0  0  0  0  0  0  0  0
   15.5886    6.0023    0.0000 O   0  0  0  0  0  0  0  0  0  0  0  0
  7  5  1  0
  8  5  1  0
  9  6  1  0
 10  6  1  0
 12 11  1  0
 15 13  1  0
 16 14  1  0
 17  1  1  0
 17  7  1  0
  9 17  2  0
 18  2  1  0
  8 18  2  0
 18 11  1  0
 19 10  1  0
 20 12  1  0
 21  3  1  0
 21 13  1  0
 21 14  1  0
 22 15  1  0
 22 16  1  0
 22 19  1  0
 23 19  2  0
 24 20  2  0
 25  4  1  0
 25 20  1  0
M  END
>  <NAME>  (1279) 
1-METHYL-4-(11-METHOXYCARBONYL-5,9-DIMETHYL-1-OXOUNDECA-4,8-DIENYL)-PIPERADINE

>  <SYNONYMS>  (1279) 


>  <SPECTRUM TYPE>  (1279) 
MS1

>  <INSTRUMENT TYPE>  (1279) 
EI-B

>  <INSTRUMENT>  (1279) 
JEOL JMS-D-300

>  <ION MODE>  (1279) 
P

>  <INCHIKEY>  (1279) 
NCVBXHMUXQRVJI-DWFXYBKLSA-N

>  <FORMULA>  (1279) 
C20H34N2O3

>  <EXACT MASS>  (1279) 
350.25694294799996

>  <MW>  (1279) 
350

>  <ID>  (1279) 
JP010049

>  <CONTRIBUTOR>  (1279) 
University of Tokyo Team, {Faculty of Engineering, University of Tokyo

>  <COMMENT>  (1279) 
SMILES=COC(=O)CCC(C)=CCCC(C)=CCCC(=O)N(C1)CCN(C)C1
InChI=InChI=1S/C20H34N2O3/c1-17(7-5-8-18(2)11-12-20(24)25-4)9-6-10-19(23)22-15-13-21(3)14-16-22/h8-9H,5-7,10-16H2,1-4H3/b17-9-,18-8-
computed SMILES=O=C(OC)CCC(=CCCC(=CCCC(=O)N1CCN(C)CC1)C)C
accession=JP010049
date=2016.01.19 (Created 2008.10.21, modified 2011.05.06)
author=KURARAY CO., LTD.
license=CC BY-NC-SA
exact mass=350.25694
ionization energy=70 eV
ion type=[M]+*
computed spectral entropy=2.758933227430637
computed normalized entropy=0.9545253893010639
SPLASH=splash10-0pba-9341000000-85790decc5e28dab5dbf
submitter=submitter = University of Tokyo Team (Faculty of Engineering, University of Tokyo)
MoNA Rating=3.75

>  <NUM PEAKS>  (1279) 
18

>  <MASS SPECTRAL PEAKS>  (1279) 
43 18.77
44 19.37
56 27.11
57 29
58 42.87
70 49.43
81 33.93
83 18.02
98 40.67
99 53.55
101 64.84
127 23.42
166 32.31
209 99.99
210 25.43
277 36.71
319 11.25
350 38.52

>  <PREDICTED SPECTRUM>  (1279) 
15 2
18 8
26 12
27 52
28 67
29 92
31 35
32 25
39 70
41 149
42 252
43 191
44 340
45 14
51 14
53 74
54 56
55 130
56 499
57 504
58 640
59 29
60 3
65 53
66 6
67 112
68 82
69 40
70 698
71 131
72 16
77 120
81 281
82 21
83 513
87 29
88 0
93 57
95 64
97 122
98 568
99 692
100 59
101 786
102 32
108 43
109 150
122 24
127 433
141 18
142 118
152 80
153 27
155 75
165 122
166 654
167 11
177 79
196 11
197 23
209 999
210 524
211 43
213 77
223 8
233 8
250 9
251 86
263 27
277 368
278 74
319 276
350 486
351 25
353 75

$$$$

     RDKit          2D

 24 24  0  0  0  0  0  0  0  0999 V2000
   17.8174    1.2927    0.0000 C   0  0  0  0  0  0  0  0  0  0  0  0
   16.5187   -0.9575    0.0000 C   0  0  0  0  0  0  0  0  0  0  0  0
   11.3225   -0.9583    0.0000 C   0  0  0  0  0  0  0  0  0  0  0  0
    6.1264   -0.9592    0.0000 C   0  0  0  0  0  0  0  0  0  0  0  0
   -1.6700   -0.9600    0.0000 C   0  0  0  0  0  0  0  0  0  0  0  0
   -0.3700   -1.7100    0.0000 C   0  0  0  0  0  0  0  0  0  0  0  0
   -1.6700    0.5400    0.0000 C   0  0  0  0  0  0  0  0  0  0  0  0
   13.9204    0.5421    0.0000 C   0  0  0  0  0  0  0  0  0  0  0  0
    8.7242    0.5412    0.0000 C   0  0  0  0  0  0  0  0  0  0  0  0
   15.2193    1.2923    0.0000 C   0  0  0  0  0  0  0  0  0  0  0  0
   12.6212    1.2919    0.0000 C   0  0  0  0  0  0  0  0  0  0  0  0
   10.0231    1.2915    0.0000 C   0  0  0  0  0  0  0  0  0  0  0  0
    7.4251    1.2910    0.0000 C   0  0  0  0  0  0  0  0  0  0  0  0
    0.9300   -0.9600    0.0000 C   0  0  0  0  0  0  0  0  0  0  0  0
   -0.3700    1.2900    0.0000 C   0  0  0  0  0  0  0  0  0  0  0  0
    4.8270    1.2906    0.0000 C   0  0  0  0  0  0  0  0  0  0  0  0
    3.5281    0.5404    0.0000 C   0  0  0  0  0  0  0  0  0  0  0  0
   16.5185    0.5425    0.0000 C   0  0  0  0  0  0  0  0  0  0  0  0
   11.3223    0.5417    0.0000 C   0  0  0  0  0  0  0  0  0  0  0  0
    6.1262    0.5408    0.0000 C   0  0  0  0  0  0  0  0  0  0  0  0
    0.9300    0.5400    0.0000 C   0  0  0  0  0  0  0  0  0  0  0  0
    3.1929    2.4394    0.0000 O   0  0  0  0  0  0  0  0  0  0  0  0
    1.2646    2.4391    0.0000 O   0  0  0  0  0  0  0  0  0  0  0  0
    2.2289    1.2902    0.0000 S   0  0  0  0  0  0  0  0  0  0  0  0
  6  5  2  0
  7  5  1  0
 10  8  1  0
 11  8  1  0
 12  9  1  0
 13  9  1  0
 14  6  1  0
 15  7  2  0
 17 16  1  0
 18  1  1  0
 18  2  1  0
 18 10  2  0
 19  3  1  0
 19 11  1  0
 12 19  2  0
 20  4  1  0
 20 13  1  0
 16 20  2  0
 21 14  2  0
 21 15  1  0
 24 17  1  0
 24 21  1  0
 24 22  2  0
 24 23  2  0
M  END
>  <NAME>  (1280) 
3,7,11-TRIMETHYL-2,6,10-DODECATRIENYL PHENYL SULFONE

>  <SYNONYMS>  (1280) 


>  <SPECTRUM TYPE>  (1280) 
MS1

>  <INSTRUMENT TYPE>  (1280) 
EI-B

>  <INSTRUMENT>  (1280) 
JEOL JMS-D-300

>  <ION MODE>  (1280) 
P

>  <INCHIKEY>  (1280) 
MLMQYHDLGZNPKC-YEFHWUCQSA-N

>  <FORMULA>  (1280) 
C21H30O2S

>  <EXACT MASS>  (1280) 
346.1966512

>  <MW>  (1280) 
346

>  <ID>  (1280) 
JP010048

>  <CONTRIBUTOR>  (1280) 
University of Tokyo Team, {Faculty of Engineering, University of Tokyo

>  <COMMENT>  (1280) 
SMILES=CC(C)=CCCC(C)=CCCC(C)=CCS(=O)(=O)c(c1)cccc1
InChI=InChI=1S/C21H30O2S/c1-18(2)10-8-11-19(3)12-9-13-20(4)16-17-24(22,23)21-14-6-5-7-15-21/h5-7,10,12,14-16H,8-9,11,13,17H2,1-4H3/b19-12+,20-16+
computed SMILES=O=S(=O)(C=1C=CC=CC1)CC=C(C)CCC=C(C)CCC=C(C)C
accession=JP010048
date=2016.01.19 (Created 2008.10.21, modified 2011.05.06)
author=KURARAY CO., LTD.
license=CC BY-NC-SA
exact mass=346.19665
ionization energy=70 eV
ion type=[M]+*
computed spectral entropy=3.3633030196729043
computed normalized entropy=0.8181479487815075
SPLASH=splash10-014i-9400000000-b9dbdc501a9e4c7ecb58
submitter=submitter = University of Tokyo Team (Faculty of Engineering, University of Tokyo)
MoNA Rating=3.75

>  <NUM PEAKS>  (1280) 
61

>  <MASS SPECTRAL PEAKS>  (1280) 
29 1.46
39 2.33
41 24.52
43 3.73
51 2.24
53 6.38
55 11.99
57 2.07
65 1.6
67 11.69
68 20.13
69 99.99
70 5.12
77 12.66
78 3.26
79 6.93
80 5.99
81 58.3
82 4.98
83 2.52
91 4.09
92 2.27
93 25.98
94 4.72
95 15.75
96 2.12
97 1.86
105 3.35
107 12.21
108 2.57
109 10.5
111 1.58
119 3.68
121 13.32
122 3.93
123 11.05
124 2.77
125 1.63
133 2.85
134 2.37
135 18.21
136 9.65
137 24.85
138 2.66
143 8.81
147 1.93
148 4.75
149 10.09
161 11.81
162 1.63
189 1.82
204 7.36
205 9.9
235 0.3
290 0.33
303 0.96
304 0.3
331 0.24
346 2.04
347 0.45
348 0.28

>  <PREDICTED SPECTRUM>  (1280) 
26 4
27 136
28 37
29 163
39 139
40 39
41 598
42 54
43 302
44 40
45 44
50 71
51 125
52 62
53 283
54 106
55 309
56 70
57 167
58 47
63 37
64 8
65 142
66 112
67 433
68 384
69 999
70 206
71 162
72 22
73 4
76 9
77 321
78 143
79 314
80 280
81 815
82 235
83 116
84 57
85 102
91 234
92 173
93 564
94 254
95 440
96 139
97 127
98 41
99 74
103 20
104 22
105 251
106 131
107 391
108 246
109 423
110 117
111 93
112 7
113 32
115 15
117 40
119 236
120 58
121 380
122 266
123 344
124 196
125 117
126 40
127 77
128 22
129 33
131 98
132 11
133 122
134 178
135 415
136 452
137 510
138 82
139 34
140 7
141 85
142 16
143 89
145 19
147 117
148 84
149 255
150 132
153 87
154 89
155 79
157 1
159 53
160 118
161 234
162 101
163 126
165 48
166 1
167 66
168 23
169 75
175 18
176 8
177 128
178 57
179 46
189 88
191 30
192 8
193 92
194 29
195 4
201 13
203 89
204 245
205 185
206 52
209 31
210 11
221 52
222 13
223 23
229 10
235 50
236 26
237 24
239 22
247 15
252 14
277 49
303 113
346 110
347 59
348 11

$$$$

     RDKit          2D

 25 28  0  0  1  0  0  0  0  0999 V2000
    5.5429    3.9861    0.0000 C   0  0  0  0  0  0  0  0  0  0  0  0
   -1.7200    1.0400    0.0000 C   0  0  0  0  0  0  0  0  0  0  0  0
    2.3387    3.2816    0.0000 C   0  0  0  0  0  0  0  0  0  0  0  0
    4.4900    1.0400    0.0000 C   0  0  0  0  0  0  0  0  0  0  0  0
    3.6100   -0.1800    0.0000 C   0  0  0  0  0  0  0  0  0  0  0  0
   -4.3200   -0.4600    0.0000 C   0  0  0  0  0  0  0  0  0  0  0  0
   -0.4200    1.7900    0.0000 C   0  0  0  0  0  0  0  0  0  0  0  0
   -3.0200    0.2900    0.0000 C   0  0  0  0  0  0  0  0  0  0  0  0
    0.8800    2.5400    0.0000 C   0  0  0  0  0  0  0  0  0  0  0  0
   -3.0200   -2.7100    0.0000 C   0  0  0  0  0  0  0  0  0  0  0  0
   -0.4200   -2.7100    0.0000 C   0  0  0  0  0  0  0  0  0  0  0  0
    3.0730    4.7920    0.0000 C   0  0  0  0  0  0  0  0  0  0  0  0
    4.0753    3.6760    0.0000 C   0  0  0  0  0  0  0  0  0  0  0  0
   -1.7200   -1.9600    0.0000 C   0  0  0  0  0  0  0  0  0  0  0  0
   -4.3200   -1.9600    0.0000 C   0  0  0  0  0  0  0  0  0  0  0  0
    3.6100    2.2500    0.0000 C   0  0  0  0  0  0  0  0  0  0  0  0
    2.1800    0.2900    0.0000 C   0  0  0  0  0  0  0  0  0  0  0  0
   -0.4200    0.2900    0.0000 C   0  0  0  0  0  0  0  0  0  0  0  0
    0.8800   -1.9600    0.0000 C   0  0  0  0  0  0  0  0  0  0  0  0
    0.8800   -0.4600    0.0000 C   0  0  0  0  0  0  0  0  0  0  0  0
   -1.7200   -0.4600    0.0000 C   0  0  0  0  0  0  0  0  0  0  0  0
    2.1800    1.7900    0.0000 C   0  0  0  0  0  0  0  0  0  0  0  0
    3.5382    6.2180    0.0000 O   0  0  0  0  0  0  0  0  0  0  0  0
   -5.6189   -2.7102    0.0000 O   0  0  0  0  0  0  0  0  0  0  0  0
    2.1789   -2.7102    0.0000 O   0  0  0  0  0  0  0  0  0  0  0  0
  5  4  1  0
  8  6  1  0
  9  7  1  0
 13  1  1  0
 13 12  1  0
 14 10  2  0
 14 11  1  0
 15  6  1  0
 15 10  1  0
 16  4  1  0
 16 13  1  1
 17  5  1  1
 18  7  1  1
 19 11  1  0
 20 17  1  0
 20 18  1  0
 20 19  1  6
 21  2  1  1
 21  8  1  0
 21 14  1  0
 21 18  1  0
 22  3  1  1
 22  9  1  0
 22 16  1  0
 22 17  1  0
 23 12  2  0
 24 15  2  0
 19 25  1  6
M  END
>  <NAME>  (1281) 
7-HYDROXY-PREGNA-4-ENE-3-ONE-20-CARBALDEHYDE

>  <SYNONYMS>  (1281) 


>  <SPECTRUM TYPE>  (1281) 
MS1

>  <INSTRUMENT TYPE>  (1281) 
EI-B

>  <INSTRUMENT>  (1281) 
JEOL JMS-D-300

>  <ION MODE>  (1281) 
P

>  <INCHIKEY>  (1281) 
ALHATGQVHVESGQ-PZSYZHRISA-N

>  <FORMULA>  (1281) 
C22H32O3

>  <EXACT MASS>  (1281) 
344.23514488399996

>  <MW>  (1281) 
344

>  <ID>  (1281) 
JP010046

>  <CONTRIBUTOR>  (1281) 
University of Tokyo Team, {Faculty of Engineering, University of Tokyo

>  <COMMENT>  (1281) 
SMILES=O=CC(C)C([H])(C4)C(C)(C3)C([H])(C4)C([H])(C(O)1)C([H])(C3)C(C)(C2)C(=CC(=O)C2)C1
InChI=InChI=1S/C22H32O3/c1-13(12-23)16-4-5-17-20-18(7-9-22(16,17)3)21(2)8-6-15(24)10-14(21)11-19(20)25/h10,12-13,16-20,25H,4-9,11H2,1-3H3/t13?,16-,17+,18+,19?,20+,21+,22-/m1/s1
computed SMILES=O=CC(C)C1CCC2C3C(O)CC4=CC(=O)CCC4(C)C3CCC12C
computed InChI=InChI=1S/C22H32O3/c1-13(12-23)16-4-5-17-20-18(7-9-22(16,17)3)21(2)8-6-15(24)10-14(21)11-19(20)25/h10,12-13,16-20,25H,4-9,11H2,1-3H3/t13?,16-,17+,18+,19-,20+,21+,22-/m1/s1
accession=JP010046
date=2016.01.19 (Created 2008.10.21, modified 2011.05.06)
author=KURARAY CO., LTD.
license=CC BY-NC-SA
exact mass=344.23514
ionization energy=70 eV
ion type=[M]+*
computed spectral entropy=3.7791639972385846
computed normalized entropy=0.8484214961004926
SPLASH=splash10-00di-3901000000-3d6b82a430e463577da1
submitter=submitter = University of Tokyo Team (Faculty of Engineering, University of Tokyo)
MoNA Rating=3.75

>  <NUM PEAKS>  (1281) 
86

>  <MASS SPECTRAL PEAKS>  (1281) 
27 1.12
29 3.65
39 1.86
41 10.3
43 6.9
44 3.51
53 3.68
55 13.4
57 1.88
67 8.12
69 3.29
77 5.66
79 9.15
80 1.33
81 9.21
82 1.52
83 2.01
91 9.07
92 1.47
93 9.76
94 1.94
95 10.02
97 1.37
105 7.06
106 2.32
107 7.39
108 2.23
109 9.3
110 1.69
111 1.14
117 2.72
119 6.52
120 2.62
121 4.52
122 10.92
123 19.16
124 99.99
125 10.55
128 1.22
129 2.29
131 4.55
132 2.29
133 6.37
134 3.33
135 7.98
136 3.11
137 3
143 2.43
145 5.37
146 2.02
147 4.23
148 1.77
149 1.77
152 5.04
155 1.25
157 2.01
159 2.81
160 1.45
161 4.52
162 4.14
163 2.88
169 0.9
171 1.93
173 3.79
174 4.44
175 3.68
176 1.36
183 1.07
185 2.62
187 1.01
189 0.95
199 1.71
203 1.03
227 3.19
253 1.36
268 1.69
269 1.69
284 1.69
288 13.87
289 2.53
311 1.55
316 5.48
326 9.24
327 1.88
344 17.87
345 4.8

>  <PREDICTED SPECTRUM>  (1281) 
40 1
41 399
42 17
43 315
44 116
45 95
49 33
51 15
53 190
54 29
55 513
56 43
57 169
65 121
66 14
67 334
68 55
69 213
70 6
71 55
77 249
78 79
79 385
80 101
81 369
82 68
83 164
84 60
85 46
91 393
92 115
93 377
94 121
95 415
96 97
97 163
98 42
105 341
106 79
107 402
108 116
109 340
110 91
111 79
115 49
117 249
118 59
119 340
120 139
121 334
122 405
123 536
124 999
125 315
126 45
128 97
129 145
130 14
131 233
132 146
133 239
134 205
135 253
136 267
137 232
138 13
139 19
141 41
142 16
143 137
144 5
145 187
146 103
147 305
148 88
149 127
150 22
151 53
152 67
153 23
155 75
156 16
157 76
158 54
159 183
160 166
161 253
162 137
163 195
169 5
171 53
173 170
174 251
175 181
176 93
177 79
178 13
179 23
184 0
185 12
187 39
188 36
189 5
193 7
199 29
201 47
202 19
211 13
213 51
220 111
221 174
222 3
225 54
227 105
228 34
241 22
242 28
245 0
247 6
251 32
255 32
259 56
260 41
265 20
267 37
269 265
270 90
283 45
284 115
285 42
287 74
288 116
289 11
298 24
300 30
301 69
302 110
311 51
312 37
316 239
317 103
326 296
327 69
328 10
329 187
330 24
343 32
344 472
345 210
346 25

$$$$

     RDKit          2D

 25 28  0  0  1  0  0  0  0  0999 V2000
    5.5429    3.9861    0.0000 C   0  0  0  0  0  0  0  0  0  0  0  0
   -1.7200    1.0400    0.0000 C   0  0  0  0  0  0  0  0  0  0  0  0
    2.3387    3.2816    0.0000 C   0  0  0  0  0  0  0  0  0  0  0  0
    4.4900    1.0400    0.0000 C   0  0  0  0  0  0  0  0  0  0  0  0
    3.6100   -0.1800    0.0000 C   0  0  0  0  0  0  0  0  0  0  0  0
   -4.3200   -0.4600    0.0000 C   0  0  0  0  0  0  0  0  0  0  0  0
   -0.4200    1.7900    0.0000 C   0  0  0  0  0  0  0  0  0  0  0  0
   -3.0200    0.2900    0.0000 C   0  0  0  0  0  0  0  0  0  0  0  0
    0.8800    2.5400    0.0000 C   0  0  0  0  0  0  0  0  0  0  0  0
   -3.0200   -2.7100    0.0000 C   0  0  0  0  0  0  0  0  0  0  0  0
   -0.4200   -2.7100    0.0000 C   0  0  0  0  0  0  0  0  0  0  0  0
    3.0730    4.7920    0.0000 C   0  0  0  0  0  0  0  0  0  0  0  0
    4.0753    3.6760    0.0000 C   0  0  0  0  0  0  0  0  0  0  0  0
   -1.7200   -1.9600    0.0000 C   0  0  0  0  0  0  0  0  0  0  0  0
   -4.3200   -1.9600    0.0000 C   0  0  0  0  0  0  0  0  0  0  0  0
    3.6100    2.2500    0.0000 C   0  0  0  0  0  0  0  0  0  0  0  0
    2.1800    0.2900    0.0000 C   0  0  0  0  0  0  0  0  0  0  0  0
   -0.4200    0.2900    0.0000 C   0  0  0  0  0  0  0  0  0  0  0  0
    0.8800   -1.9600    0.0000 C   0  0  0  0  0  0  0  0  0  0  0  0
    0.8800   -0.4600    0.0000 C   0  0  0  0  0  0  0  0  0  0  0  0
   -1.7200   -0.4600    0.0000 C   0  0  0  0  0  0  0  0  0  0  0  0
    2.1800    1.7900    0.0000 C   0  0  0  0  0  0  0  0  0  0  0  0
    3.5382    6.2180    0.0000 O   0  0  0  0  0  0  0  0  0  0  0  0
   -5.6189   -2.7102    0.0000 O   0  0  0  0  0  0  0  0  0  0  0  0
    2.1789   -2.7102    0.0000 O   0  0  0  0  0  0  0  0  0  0  0  0
  5  4  1  0
  8  6  2  0
  9  7  1  0
 13  1  1  0
 13 12  1  0
 14 10  2  0
 14 11  1  0
 15  6  1  0
 15 10  1  0
 16  4  1  0
 16 13  1  1
 17  5  1  1
 18  7  1  1
 19 11  1  0
 20 17  1  0
 20 18  1  0
 20 19  1  6
 21  2  1  1
 21  8  1  0
 21 14  1  0
 21 18  1  0
 22  3  1  1
 22  9  1  0
 22 16  1  0
 22 17  1  0
 23 12  2  0
 24 15  2  0
 19 25  1  6
M  END
>  <NAME>  (1282) 
7-HYDROXY-PREGNA-1,4-DIEN-3-ONE-20-CARBALDEHYDE

>  <SYNONYMS>  (1282) 


>  <SPECTRUM TYPE>  (1282) 
MS1

>  <INSTRUMENT TYPE>  (1282) 
EI-B

>  <INSTRUMENT>  (1282) 
JEOL JMS-D-300

>  <ION MODE>  (1282) 
P

>  <INCHIKEY>  (1282) 
XKNAFGDXOSIMKT-PZSYZHRISA-N

>  <FORMULA>  (1282) 
C22H30O3

>  <EXACT MASS>  (1282) 
342.21949481999997

>  <MW>  (1282) 
342

>  <ID>  (1282) 
JP010045

>  <CONTRIBUTOR>  (1282) 
University of Tokyo Team, {Faculty of Engineering, University of Tokyo

>  <COMMENT>  (1282) 
SMILES=O=CC(C)C([H])(C4)C(C)(C3)C([H])(C4)C([H])(C(O)1)C([H])(C3)C(C)(C=2)C(=CC(=O)C2)C1
InChI=InChI=1S/C22H30O3/c1-13(12-23)16-4-5-17-20-18(7-9-22(16,17)3)21(2)8-6-15(24)10-14(21)11-19(20)25/h6,8,10,12-13,16-20,25H,4-5,7,9,11H2,1-3H3/t13?,16-,17+,18+,19?,20+,21+,22-/m1/s1
computed SMILES=O=CC(C)C1CCC2C3C(O)CC4=CC(=O)C=CC4(C)C3CCC12C
computed InChI=InChI=1S/C22H30O3/c1-13(12-23)16-4-5-17-20-18(7-9-22(16,17)3)21(2)8-6-15(24)10-14(21)11-19(20)25/h6,8,10,12-13,16-20,25H,4-5,7,9,11H2,1-3H3/t13?,16-,17+,18+,19-,20+,21+,22-/m1/s1
accession=JP010045
date=2016.01.19 (Created 2008.10.21, modified 2011.05.06)
author=KURARAY CO., LTD.
license=CC BY-NC-SA
exact mass=342.21949
ionization energy=70 eV
ion type=[M]+*
computed spectral entropy=3.738037971747364
computed normalized entropy=0.8712442159217417
SPLASH=splash10-00di-2900000000-3fa6b3eb8757849afb03
submitter=submitter = University of Tokyo Team (Faculty of Engineering, University of Tokyo)
MoNA Rating=3.75

>  <NUM PEAKS>  (1282) 
73

>  <MASS SPECTRAL PEAKS>  (1282) 
29 4.9
39 1.98
41 8.34
43 4.47
53 3.45
55 10.26
57 2.65
65 2.03
67 6.14
69 5.01
77 6.04
79 7.45
81 7.78
83 2.83
91 11.74
92 3.97
93 13.96
94 2.95
95 8.62
105 8.29
106 3.68
107 10.24
108 5.42
109 6.26
115 2.22
117 3.64
118 3.17
119 6.18
120 3.17
121 25.53
122 99.99
123 12.02
124 2.5
129 2.5
131 7.66
132 3.53
133 12.88
134 5.84
135 10.49
136 2.01
143 3.61
144 1.75
145 10.49
146 3.92
147 8.01
148 2.17
149 2.17
150 22.97
151 25.98
152 3.62
157 2.9
158 2.26
159 7.04
160 26.23
161 9.57
162 2.22
163 4.39
171 5.46
172 4
173 8.84
174 5.37
175 5.01
185 3.76
186 1.39
187 1.62
189 1.95
203 2.12
225 2.65
251 2.5
267 3.09
268 5.36
324 7.07
342 1.59

>  <PREDICTED SPECTRUM>  (1282) 
17 0
27 24
28 18
29 48
39 68
40 22
41 272
42 44
43 143
44 29
45 44
51 29
52 17
53 155
54 10
55 291
56 26
57 84
58 3
59 15
65 150
66 30
67 217
68 31
69 96
71 61
73 9
77 277
78 82
79 300
80 47
81 264
82 41
83 89
84 2
85 38
87 12
91 423
92 107
93 328
94 204
95 279
96 60
97 88
98 33
103 98
104 10
105 244
106 60
107 381
108 207
109 221
110 36
111 57
115 146
116 44
117 162
118 89
119 214
120 142
121 690
122 999
123 429
124 100
125 53
127 41
128 123
129 129
131 200
132 119
133 280
134 265
135 415
136 117
137 39
138 14
139 10
141 80
142 0
143 85
144 45
145 182
146 117
147 375
148 165
149 161
150 240
151 100
152 53
153 56
154 14
155 64
156 4
157 96
158 87
159 292
160 282
161 278
162 42
163 101
165 24
168 4
171 113
172 45
173 208
174 192
175 177
176 52
177 49
178 47
179 61
181 32
182 2
183 80
185 38
186 53
187 142
188 5
189 83
192 18
193 2
195 16
199 49
200 3
202 12
203 74
204 41
205 51
213 13
219 3
220 24
221 45
223 107
224 59
225 119
226 38
227 68
231 29
235 11
236 32
237 32
239 57
240 21
241 34
251 69
252 15
253 56
263 21
265 58
266 17
267 121
268 61
269 14
279 16
281 42
282 23
287 27
296 19
306 26
322 84
324 286
325 88
341 11
342 140
343 65
344 15

$$$$

     RDKit          2D

 24 25  0  0  0  0  0  0  0  0999 V2000
   10.0229    2.7915    0.0000 C   0  0  0  0  0  0  0  0  0  0  0  0
    6.1264   -0.9592    0.0000 C   0  0  0  0  0  0  0  0  0  0  0  0
   16.5193    3.5423    0.0000 C   0  0  0  0  0  0  0  0  0  0  0  0
   -0.3700   -1.7100    0.0000 C   0  0  0  0  0  0  0  0  0  0  0  0
   17.8193    2.7923    0.0000 C   0  0  0  0  0  0  0  0  0  0  0  0
   -1.6700   -0.9600    0.0000 C   0  0  0  0  0  0  0  0  0  0  0  0
   15.2193    2.7923    0.0000 C   0  0  0  0  0  0  0  0  0  0  0  0
    0.9300   -0.9600    0.0000 C   0  0  0  0  0  0  0  0  0  0  0  0
    8.7242    0.5412    0.0000 C   0  0  0  0  0  0  0  0  0  0  0  0
    7.4251    1.2910    0.0000 C   0  0  0  0  0  0  0  0  0  0  0  0
   11.3223    0.5417    0.0000 C   0  0  0  0  0  0  0  0  0  0  0  0
    4.8270    1.2906    0.0000 C   0  0  0  0  0  0  0  0  0  0  0  0
   17.8193    1.2923    0.0000 C   0  0  0  0  0  0  0  0  0  0  0  0
   -1.6700    0.5400    0.0000 C   0  0  0  0  0  0  0  0  0  0  0  0
   12.6212    1.2919    0.0000 C   0  0  0  0  0  0  0  0  0  0  0  0
    3.5281    0.5404    0.0000 C   0  0  0  0  0  0  0  0  0  0  0  0
   10.0231    1.2915    0.0000 C   0  0  0  0  0  0  0  0  0  0  0  0
    6.1262    0.5408    0.0000 C   0  0  0  0  0  0  0  0  0  0  0  0
   15.2193    1.2923    0.0000 C   0  0  0  0  0  0  0  0  0  0  0  0
    0.9300    0.5400    0.0000 C   0  0  0  0  0  0  0  0  0  0  0  0
   16.5193    0.5423    0.0000 O   0  0  0  0  0  0  0  0  0  0  0  0
   -0.3700    1.2900    0.0000 O   0  0  0  0  0  0  0  0  0  0  0  0
   13.9204    0.5421    0.0000 O   0  0  0  0  0  0  0  0  0  0  0  0
    2.2289    1.2902    0.0000 O   0  0  0  0  0  0  0  0  0  0  0  0
  5  3  1  0
  6  4  1  0
  7  3  1  0
  8  4  1  0
 10  9  1  0
 13  5  1  0
 14  6  1  0
 15 11  1  0
 16 12  1  0
 17  1  1  0
 17  9  1  0
 17 11  1  0
 18  2  1  0
 18 10  1  0
 18 12  1  0
 19  7  1  0
 20  8  1  0
 21 13  1  0
 21 19  1  0
 22 14  1  0
 22 20  1  0
 23 15  1  0
 23 19  1  0
 24 16  1  0
 24 20  1  0
M  END
>  <NAME>  (1283) 
OCTANE-3,6-DIMETHYL-1,8-BIS-(2-OXYTETRAHYDRO-2H-PYRANYL)

>  <SYNONYMS>  (1283) 


>  <SPECTRUM TYPE>  (1283) 
MS1

>  <INSTRUMENT TYPE>  (1283) 
EI-B

>  <INSTRUMENT>  (1283) 
JEOL JMS-D-300

>  <ION MODE>  (1283) 
P

>  <INCHIKEY>  (1283) 
CMMVTFNLFCVCPP-UHFFFAOYSA-N

>  <FORMULA>  (1283) 
C20H38O4

>  <EXACT MASS>  (1283) 
342.277009696

>  <MW>  (1283) 
342

>  <ID>  (1283) 
JP010044

>  <CONTRIBUTOR>  (1283) 
University of Tokyo Team, {Faculty of Engineering, University of Tokyo

>  <COMMENT>  (1283) 
SMILES=CC(CCOC(C2)OCCC2)CCC(C)CCOC(C1)OCCC1
InChI=InChI=1S/C20H38O4/c1-17(11-15-23-19-7-3-5-13-21-19)9-10-18(2)12-16-24-20-8-4-6-14-22-20/h17-20H,3-16H2,1-2H3
computed SMILES=O1CCCCC1OCCC(C)CCC(C)CCOC2OCCCC2
accession=JP010044
date=2016.01.19 (Created 2008.10.21, modified 2011.05.06)
author=KURARAY CO., LTD.
license=CC BY-NC-SA
exact mass=342.27701
ionization energy=70 eV
ion type=[M]+*
computed spectral entropy=2.359793503919759
computed normalized entropy=0.7526065562268865
SPLASH=splash10-000i-9000000000-3e5d5a5e7190dcb8f8c7
submitter=submitter = University of Tokyo Team (Faculty of Engineering, University of Tokyo)
MoNA Rating=3.75

>  <NUM PEAKS>  (1283) 
23

>  <MASS SPECTRAL PEAKS>  (1283) 
27 2.56
28 2.7
29 7.26
31 2.44
39 1.97
41 16.74
42 1.97
43 7.42
55 19.08
56 8.05
57 11.56
67 6.36
69 12.12
70 2.48
71 1.76
81 2
83 11.86
84 5.64
85 99.99
86 5.52
97 2.55
101 10.14
257 4.14

>  <PREDICTED SPECTRUM>  (1283) 
15 2
25 13
26 87
27 226
28 176
29 322
31 137
32 14
35 7
36 34
37 24
38 39
39 201
40 63
41 376
42 134
43 353
44 56
45 66
46 0
47 25
53 111
54 154
55 335
56 293
57 306
58 29
59 6
67 322
68 88
69 238
70 91
71 39
73 14
79 15
81 148
82 44
83 269
84 230
85 999
86 236
87 28
94 16
95 52
96 37
97 102
98 20
100 8
101 372
108 9
109 32
110 99
111 12
112 15
115 32
125 46
126 36
128 9
153 0
240 4
257 0

$$$$

     RDKit          2D

 20 20  0  0  0  0  0  0  0  0999 V2000
   -6.3041    0.8603    0.0000 C   0  0  0  0  0  0  0  0  0  0  0  0
    6.6863   -2.1397    0.0000 C   0  0  0  0  0  0  0  0  0  0  0  0
    6.5296   -3.0282    0.0000 C   0  0  0  0  0  0  0  0  0  0  0  0
   -2.4074   -1.3905    0.0000 C   0  0  0  0  0  0  0  0  0  0  0  0
    0.1916    0.1112    0.0000 C   0  0  0  0  0  0  0  0  0  0  0  0
    2.7892   -1.3897    0.0000 C   0  0  0  0  0  0  0  0  0  0  0  0
   -2.4069    0.1103    0.0000 C   0  0  0  0  0  0  0  0  0  0  0  0
   -1.1074    0.8612    0.0000 C   0  0  0  0  0  0  0  0  0  0  0  0
   -1.1084   -2.1405    0.0000 C   0  0  0  0  0  0  0  0  0  0  0  0
    0.1911   -1.3897    0.0000 C   0  0  0  0  0  0  0  0  0  0  0  0
   -3.7060    0.8603    0.0000 C   0  0  0  0  0  0  0  0  0  0  0  0
   -1.1077    2.3612    0.0000 Cl  0  0  0  0  0  0  0  0  0  0  0  0
   -1.1081   -3.6405    0.0000 Cl  0  0  0  0  0  0  0  0  0  0  0  0
    1.4902   -2.1397    0.0000 N   0  0  0  0  0  0  0  0  0  0  0  0
   -3.7060    2.3603    0.0000 O   0  0  0  0  0  0  0  0  0  0  0  0
    3.1241   -3.2887    0.0000 O   0  0  0  0  0  0  0  0  0  0  0  0
   -5.0050    0.1103    0.0000 O   0  0  0  0  0  0  0  0  0  0  0  0
    5.3873   -1.3897    0.0000 O   0  0  0  0  0  0  0  0  0  0  0  0
    5.0524   -3.2887    0.0000 O   0  0  0  0  0  0  0  0  0  0  0  0
    4.0882   -2.1397    0.0000 P   0  0  0  0  0  0  0  0  0  0  0  0
  7  4  2  0
  8  5  2  0
  8  7  1  0
  9  4  1  0
 10  5  1  0
 10  9  2  0
 11  7  1  0
 12  8  1  0
 13  9  1  0
 14  6  1  0
 14 10  1  0
 15 11  2  0
 17  1  1  0
 17 11  1  0
 18  2  1  0
 19  3  1  0
 20  6  1  0
 20 16  2  0
 20 18  1  0
 20 19  1  0
M  END
>  <NAME>  (1284) 
DIMETHYL 2,5-DICHLORO-4-METHOXYCARBONYL PHENYLAMINOMETHYLPHOPHONATE

>  <SYNONYMS>  (1284) 


>  <SPECTRUM TYPE>  (1284) 
MS1

>  <INSTRUMENT TYPE>  (1284) 
EI-B

>  <INSTRUMENT>  (1284) 
JEOL JMS-D-300

>  <ION MODE>  (1284) 
P

>  <INCHIKEY>  (1284) 
LWQMIQAGQGFXHX-UHFFFAOYSA-N

>  <FORMULA>  (1284) 
C11H14Cl2NO5P

>  <EXACT MASS>  (1284) 
340.998664538

>  <MW>  (1284) 
341

>  <ID>  (1284) 
JP010043

>  <CONTRIBUTOR>  (1284) 
University of Tokyo Team, {Faculty of Engineering, University of Tokyo

>  <COMMENT>  (1284) 
SMILES=COC(=O)c(c1)c(Cl)cc(NCP(=O)(OC)OC)c(Cl)1
InChI=InChI=1S/C11H14Cl2NO5P/c1-17-11(15)7-4-9(13)10(5-8(7)12)14-6-20(16,18-2)19-3/h4-5,14H,6H2,1-3H3
computed SMILES=O=C(OC)C=1C=C(Cl)C(=CC1Cl)NCP(=O)(OC)OC
accession=JP010043
date=2016.01.19 (Created 2008.10.21, modified 2011.05.06)
author=KURARAY CO., LTD.
license=CC BY-NC-SA
exact mass=340.99866
ionization energy=70 eV
ion type=[M]+*
computed spectral entropy=3.330250991005338
computed normalized entropy=0.8854224419248277
SPLASH=splash10-0uei-1690000000-bfc96ef118c63010b5ed
submitter=submitter = University of Tokyo Team (Faculty of Engineering, University of Tokyo)
MoNA Rating=3.75

>  <NUM PEAKS>  (1284) 
43

>  <MASS SPECTRAL PEAKS>  (1284) 
28 6.71
32 7.4
62 9.42
63 14.89
73 15.57
74 13.94
75 9.3
97 13.53
99 11.27
100 10.99
109 15.39
124 24.31
125 12.99
126 10.34
136 14.65
137 11.11
138 11.54
153 14
160 32.42
161 12.11
162 21.1
163 13.74
169 2
172 16.45
174 10.06
188 86.16
189 7.68
190 56.91
192 9.34
200 99.99
201 9.91
202 66.32
203 11.15
204 11.15
219 80.6
220 7.18
221 49.37
223 7.4
231 87.4
232 12.17
233 55.94
234 5.52
235 9.47

>  <PREDICTED SPECTRUM>  (1284) 
14 5
15 122
29 23
30 114
33 48
35 6
36 69
37 76
38 48
39 95
41 51
45 25
49 80
50 52
51 116
53 142
55 3
59 160
60 49
61 145
62 136
63 160
65 12
67 51
68 48
69 21
71 135
73 473
74 331
75 251
76 138
77 104
79 41
80 47
83 18
85 213
86 108
87 90
89 7
91 79
93 122
95 80
96 43
97 187
98 75
99 344
100 171
101 129
102 25
103 39
107 29
108 89
109 192
110 58
111 46
123 51
124 335
125 295
126 234
127 10
131 46
133 85
135 141
136 115
137 197
138 315
139 137
140 93
142 108
144 110
145 33
146 93
147 53
151 23
152 130
153 202
154 48
155 7
159 42
160 636
161 461
162 577
163 277
164 34
172 405
173 174
174 188
175 26
176 13
181 53
185 120
186 138
187 328
188 802
189 560
190 692
191 320
192 89
193 18
198 23
199 172
200 821
201 456
202 749
203 533
204 410
205 55
217 175
219 797
220 314
221 999
222 75
223 363
230 106
231 886
232 632
233 846
234 350
235 325
237 20
296 85
341 62
342 39
343 38

$$$$

     RDKit          2D

 25 27  0  0  0  0  0  0  0  0999 V2000
   -3.7389    1.4102    0.0000 C   0  0  0  0  0  0  0  0  0  0  0  0
   -1.1400    2.9100    0.0000 C   0  0  0  0  0  0  0  0  0  0  0  0
   -1.1400   -3.0900    0.0000 C   0  0  0  0  0  0  0  0  0  0  0  0
    4.2372    0.3997    0.0000 C   0  0  0  0  0  0  0  0  0  0  0  0
    9.6941    4.5224    0.0000 C   0  0  0  0  0  0  0  0  0  0  0  0
    8.7295    5.6723    0.0000 C   0  0  0  0  0  0  0  0  0  0  0  0
    9.1815    3.1119    0.0000 C   0  0  0  0  0  0  0  0  0  0  0  0
    7.2523    5.4115    0.0000 C   0  0  0  0  0  0  0  0  0  0  0  0
    7.7044    2.8511    0.0000 C   0  0  0  0  0  0  0  0  0  0  0  0
    1.4600   -1.5900    0.0000 C   0  0  0  0  0  0  0  0  0  0  0  0
    2.7600   -0.8400    0.0000 C   0  0  0  0  0  0  0  0  0  0  0  0
    5.2626    3.7401    0.0000 C   0  0  0  0  0  0  0  0  0  0  0  0
   -2.4400    0.6600    0.0000 C   0  0  0  0  0  0  0  0  0  0  0  0
   -1.1400    1.4100    0.0000 C   0  0  0  0  0  0  0  0  0  0  0  0
   -1.1400   -1.5900    0.0000 C   0  0  0  0  0  0  0  0  0  0  0  0
    6.7398    4.0009    0.0000 C   0  0  0  0  0  0  0  0  0  0  0  0
    0.1600   -0.8400    0.0000 C   0  0  0  0  0  0  0  0  0  0  0  0
   -2.4400   -0.8400    0.0000 C   0  0  0  0  0  0  0  0  0  0  0  0
    0.1600    0.6600    0.0000 C   0  0  0  0  0  0  0  0  0  0  0  0
    3.2727    2.0696    0.0000 C   0  0  0  0  0  0  0  0  0  0  0  0
    2.7600    0.6600    0.0000 C   0  0  0  0  0  0  0  0  0  0  0  0
   -3.7389   -1.5902    0.0000 O   0  0  0  0  0  0  0  0  0  0  0  0
    2.3083    3.2185    0.0000 O   0  0  0  0  0  0  0  0  0  0  0  0
    4.7499    2.3304    0.0000 O   0  0  0  0  0  0  0  0  0  0  0  0
    1.4600    1.4100    0.0000 O   0  0  0  0  0  0  0  0  0  0  0  0
  6  5  2  0
  7  5  1  0
  8  6  1  0
  9  7  2  0
 11 10  1  0
 13  1  1  0
 14  2  1  0
 14 13  1  0
 15  3  1  0
 16  8  2  0
 16  9  1  0
 16 12  1  0
 17 10  1  0
 17 15  2  0
 18 13  2  0
 18 15  1  0
 19 14  2  0
 19 17  1  0
 21  4  1  0
 21 11  1  0
 21 20  1  0
 22 18  1  0
 23 20  2  0
 24 12  1  0
 24 20  1  0
 25 19  1  0
 25 21  1  0
M  END
>  <NAME>  (1285) 
3,4-DIHYDRO-2,5,7,8-TRIMETHYL-2-BENZYLOXYCARBONYL-2H-1-BENZOPYRAN-6-OL

>  <SYNONYMS>  (1285) 
2-BENZYLOXYCARBONYL-6-HYDROXY-2,5,7,8-TETRAMETHYL-3,4-DIHYDRO-2H-1-BENZOPYRAN

>  <SPECTRUM TYPE>  (1285) 
MS1

>  <INSTRUMENT TYPE>  (1285) 
EI-B

>  <INSTRUMENT>  (1285) 
JEOL JMS-D-300

>  <ION MODE>  (1285) 
P

>  <INCHIKEY>  (1285) 
BKLVARSCGRWNBA-UHFFFAOYSA-N

>  <FORMULA>  (1285) 
C21H24O4

>  <EXACT MASS>  (1285) 
340.167459248

>  <MW>  (1285) 
340

>  <ID>  (1285) 
JP010042

>  <CONTRIBUTOR>  (1285) 
University of Tokyo Team, {Faculty of Engineering, University of Tokyo

>  <COMMENT>  (1285) 
SMILES=c(c3)ccc(c3)COC(=O)C(C)(C2)Oc(c(C)1)c(C2)c(C)c(O)c(C)1
InChI=InChI=1S/C21H24O4/c1-13-14(2)19-17(15(3)18(13)22)10-11-21(4,25-19)20(23)24-12-16-8-6-5-7-9-16/h5-9,22H,10-12H2,1-4H3
computed SMILES=O=C(OCC=1C=CC=CC1)C2(OC=3C(=C(C(O)=C(C3CC2)C)C)C)C
accession=JP010042
date=2016.01.19 (Created 2008.10.21, modified 2011.05.06)
author=KURARAY CO., LTD.
license=CC BY-NC-SA
exact mass=340.16746
ionization energy=70 eV
ion type=[M]+*
computed spectral entropy=2.5343152587307456
computed normalized entropy=0.7380095229885146
SPLASH=splash10-052f-5297000000-0ee6ab57d031630d2d7b
submitter=submitter = University of Tokyo Team (Faculty of Engineering, University of Tokyo)
MoNA Rating=3.75

>  <NUM PEAKS>  (1285) 
31

>  <MASS SPECTRAL PEAKS>  (1285) 
28 2.16
32 11.01
40 3.08
41 3.08
43 14.2
44 2.54
65 3.71
77 2.43
91 41.76
92 3.6
105 2.5
121 3.19
135 1.6
136 1.5
149 3
164 16.3
165 3.42
175 2.95
189 4.15
190 5.23
203 16.21
204 3.05
205 99.99
206 13.96
221 4.39
231 4.45
249 5.28
339 5.1
340 94.23
341 21.45
342 2.99

>  <PREDICTED SPECTRUM>  (1285) 
27 65
29 60
39 105
41 149
42 61
43 180
44 53
51 59
52 17
53 74
55 66
63 37
65 220
66 24
67 26
69 13
77 116
78 32
79 33
83 13
89 44
91 697
92 164
93 31
105 66
106 9
107 8
119 79
120 2
121 110
128 38
131 22
133 11
134 21
135 79
136 96
137 44
138 12
147 13
149 52
153 0
161 98
162 17
163 37
164 384
165 57
175 133
176 24
177 128
178 32
189 301
190 211
191 35
192 3
201 20
203 316
204 167
205 999
206 319
207 86
219 43
221 148
223 28
231 35
249 212
250 37
325 11
326 26
339 261
340 910
341 471
342 139

$$$$

     RDKit          2D

 24 23  0  0  0  0  0  0  0  0999 V2000
    5.1962    8.2500    0.0000 C   0  0  0  0  0  0  0  0  0  0  0  0
    3.8971   10.5000    0.0000 C   0  0  0  0  0  0  0  0  0  0  0  0
  -14.2894    9.0000    0.0000 C   0  0  0  0  0  0  0  0  0  0  0  0
  -12.9904    6.7500    0.0000 C   0  0  0  0  0  0  0  0  0  0  0  0
   -0.3349   10.1491    0.0000 C   0  0  0  0  0  0  0  0  0  0  0  0
   -8.7584    7.1009    0.0000 C   0  0  0  0  0  0  0  0  0  0  0  0
    1.2990    9.0000    0.0000 C   0  0  0  0  0  0  0  0  0  0  0  0
  -10.3923    8.2500    0.0000 C   0  0  0  0  0  0  0  0  0  0  0  0
    2.5981    8.2500    0.0000 C   0  0  0  0  0  0  0  0  0  0  0  0
  -11.6913    9.0000    0.0000 C   0  0  0  0  0  0  0  0  0  0  0  0
    0.0000    8.2500    0.0000 C   0  0  0  0  0  0  0  0  0  0  0  0
   -9.0933    9.0000    0.0000 C   0  0  0  0  0  0  0  0  0  0  0  0
   -2.5981    8.2500    0.0000 C   0  0  0  0  0  0  0  0  0  0  0  0
   -6.4952    9.0000    0.0000 C   0  0  0  0  0  0  0  0  0  0  0  0
    3.8971    9.0000    0.0000 C   0  0  0  0  0  0  0  0  0  0  0  0
  -12.9904    8.2500    0.0000 C   0  0  0  0  0  0  0  0  0  0  0  0
   -3.8971    9.0000    0.0000 C   0  0  0  0  0  0  0  0  0  0  0  0
   -5.1962    8.2500    0.0000 C   0  0  0  0  0  0  0  0  0  0  0  0
   -1.2990    9.0000    0.0000 C   0  0  0  0  0  0  0  0  0  0  0  0
   -7.7942    8.2500    0.0000 C   0  0  0  0  0  0  0  0  0  0  0  0
   -3.8971   10.5000    0.0000 O   0  0  0  0  0  0  0  0  0  0  0  0
   -5.1962    6.7500    0.0000 O   0  0  0  0  0  0  0  0  0  0  0  0
   -2.2632   10.1491    0.0000 O   0  0  0  0  0  0  0  0  0  0  0  0
   -6.8300    7.1009    0.0000 O   0  0  0  0  0  0  0  0  0  0  0  0
  9  7  1  0
 10  8  1  0
 11  7  1  0
 12  8  1  0
 15  1  1  0
 15  2  1  0
 15  9  2  0
 16  3  1  0
 16  4  1  0
 16 10  2  0
 17 13  1  0
 18 14  1  0
 18 17  1  0
 19  5  1  0
 19 11  1  0
 19 13  1  0
 20  6  1  0
 20 12  1  0
 20 14  1  0
 21 17  1  0
 22 18  2  0
 23 19  1  0
 24 20  1  0
M  END
>  <NAME>  (1286) 
2,6,11,15-TETRAMETHYL-2,14-HEXADECADIENE-6,9,11-TRIOL-8-ONE

>  <SYNONYMS>  (1286) 


>  <SPECTRUM TYPE>  (1286) 
MS1

>  <INSTRUMENT TYPE>  (1286) 
EI-B

>  <INSTRUMENT>  (1286) 
JEOL JMS-D-300

>  <ION MODE>  (1286) 
P

>  <INCHIKEY>  (1286) 
NMPBMQZZQNDZKJ-UHFFFAOYSA-N

>  <FORMULA>  (1286) 
C20H36O4

>  <EXACT MASS>  (1286) 
340.261359632

>  <MW>  (1286) 
340

>  <ID>  (1286) 
JP010041

>  <CONTRIBUTOR>  (1286) 
University of Tokyo Team, {Faculty of Engineering, University of Tokyo

>  <COMMENT>  (1286) 
SMILES=CC(C)=CCCC(C)(O)CC(O)C(=O)CC(C)(O)CCC=C(C)C
InChI=InChI=1S/C20H36O4/c1-15(2)9-7-11-19(5,23)13-17(21)18(22)14-20(6,24)12-8-10-16(3)4/h9-10,17,21,23-24H,7-8,11-14H2,1-6H3
computed SMILES=O=C(CC(O)(C)CCC=C(C)C)C(O)CC(O)(C)CCC=C(C)C
accession=JP010041
date=2016.01.19 (Created 2008.10.21, modified 2011.05.06)
author=KURARAY CO., LTD.
license=CC BY-NC-SA
exact mass=340.26136
ionization energy=70 eV
ion type=[M]+*
computed spectral entropy=3.8502952228631533
computed normalized entropy=0.8535613262396273
SPLASH=splash10-05mo-9600000000-bf5ccc50547d47406190
submitter=submitter = University of Tokyo Team (Faculty of Engineering, University of Tokyo)
MoNA Rating=3.75

>  <NUM PEAKS>  (1286) 
91

>  <MASS SPECTRAL PEAKS>  (1286) 
27 2.2
28 1.87
29 4.36
31 2.16
39 2.73
41 37.55
42 2.75
43 66
44 2.35
45 4.39
53 4.55
55 20.94
56 3.42
57 5.61
58 4.21
59 5.8
67 10.39
68 6.99
69 99.99
70 13.39
71 33.39
72 6.06
73 3
77 1.63
79 3.74
80 5.82
81 2.75
82 27.78
83 21.92
84 5.6
85 6.09
86 2.64
87 13.12
88 7.57
91 1.94
92 2.51
93 27.66
94 5.29
95 17.18
96 2.95
97 7.45
98 2.11
99 2.58
101 1.65
103 1.65
105 1.79
107 9.92
108 26.15
109 68.69
110 13.41
111 11.91
112 2.51
113 4.09
114 14.25
115 4.27
119 2.42
121 9.77
122 2.32
123 8.03
124 6.08
125 8.82
126 19.54
127 19.98
128 2.35
129 3.91
134 3.55
135 31
136 9.77
137 10.08
138 2.06
139 3.74
140 2.01
143 2.01
149 2.2
151 2.8
152 4.09
153 11.88
154 4.17
155 2.45
165 1.91
169 11.95
170 1.37
171 2.88
213 1.56
237 1.89
239 1.75
240 4.31
255 6.06
322 3.59
340 6.58
341 2.18

>  <PREDICTED SPECTRUM>  (1286) 
25 8
26 29
27 156
28 63
29 223
30 26
31 170
32 4
38 14
39 121
40 68
41 539
42 167
43 595
44 132
45 107
50 17
51 11
53 167
54 61
55 441
56 166
57 202
58 111
59 342
60 46
61 77
62 13
63 29
64 2
65 35
66 67
67 371
68 401
69 999
70 362
71 554
72 154
73 165
74 103
75 15
76 33
77 117
78 83
79 189
80 184
81 551
82 382
83 353
84 110
85 257
86 151
87 141
88 70
89 47
90 49
91 167
92 175
93 412
94 278
95 407
96 238
97 337
98 92
99 114
100 119
101 115
102 29
103 65
104 15
105 158
106 90
107 338
108 266
109 691
110 282
111 350
112 240
113 167
114 46
115 50
116 38
117 18
118 33
119 119
120 67
121 300
122 250
123 343
124 82
125 271
126 266
127 339
128 92
129 29
130 50
131 32
132 64
133 150
134 118
135 467
136 421
137 291
138 97
139 158
140 90
141 38
142 51
143 60
144 23
145 50
147 108
148 81
149 161
150 76
151 179
152 162
153 251
154 98
155 99
158 12
161 61
163 24
164 23
165 123
166 44
167 84
168 46
169 138
170 11
171 136
172 34
173 60
174 15
175 61
176 18
177 74
179 64
180 31
183 60
184 25
185 57
186 24
187 8
189 107
190 31
191 30
193 92
194 20
195 42
196 19
197 57
198 14
200 28
201 35
203 36
204 52
205 44
207 19
209 23
211 38
212 32
213 130
214 6
219 74
221 24
223 30
225 9
226 15
235 53
236 16
237 84
240 46
241 57
242 27
243 25
246 9
247 22
253 153
254 69
255 82
262 3
263 23
264 40
279 11
284 9
291 33
304 69
305 47
322 220
323 27
324 31
340 123
341 65

$$$$

     RDKit          2D

 25 28  0  0  0  0  0  0  0  0999 V2000
    4.5490   -0.8784    0.0000 C   0  0  0  0  0  0  0  0  0  0  0  0
    1.9500   -0.9000    0.0000 C   0  0  0  0  0  0  0  0  0  0  0  0
   11.0606    1.3847    0.0000 C   0  0  0  0  0  0  0  0  0  0  0  0
    0.6300   -1.6600    0.0000 C   0  0  0  0  0  0  0  0  0  0  0  0
   12.3788    0.6215    0.0000 C   0  0  0  0  0  0  0  0  0  0  0  0
    3.2486    1.3708    0.0000 C   0  0  0  0  0  0  0  0  0  0  0  0
    0.6300    1.3800    0.0000 C   0  0  0  0  0  0  0  0  0  0  0  0
    9.7460   -0.8985    0.0000 C   0  0  0  0  0  0  0  0  0  0  0  0
    8.4447    1.3739    0.0000 C   0  0  0  0  0  0  0  0  0  0  0  0
   -2.9400   -0.2300    0.0000 C   0  0  0  0  0  0  0  0  0  0  0  0
   12.9253   -3.1852    0.0000 C   0  0  0  0  0  0  0  0  0  0  0  0
    4.5481    0.6216    0.0000 C   0  0  0  0  0  0  0  0  0  0  0  0
    1.9500    0.6200    0.0000 C   0  0  0  0  0  0  0  0  0  0  0  0
    9.7442    0.6247    0.0000 C   0  0  0  0  0  0  0  0  0  0  0  0
   -0.6600   -0.9000    0.0000 C   0  0  0  0  0  0  0  0  0  0  0  0
   12.3656   -0.8757    0.0000 C   0  0  0  0  0  0  0  0  0  0  0  0
   -0.6600    0.6200    0.0000 C   0  0  0  0  0  0  0  0  0  0  0  0
   11.0492   -1.6357    0.0000 C   0  0  0  0  0  0  0  0  0  0  0  0
    5.8467    1.3723    0.0000 C   0  0  0  0  0  0  0  0  0  0  0  0
    5.8458    2.8723    0.0000 O   0  0  0  0  0  0  0  0  0  0  0  0
    7.1462    0.6231    0.0000 O   0  0  0  0  0  0  0  0  0  0  0  0
   -2.0600   -1.3400    0.0000 O   0  0  0  0  0  0  0  0  0  0  0  0
   13.4466   -1.8681    0.0000 O   0  0  0  0  0  0  0  0  0  0  0  0
   -2.0900    1.0600    0.0000 O   0  0  0  0  0  0  0  0  0  0  0  0
   11.3832   -3.0941    0.0000 O   0  0  0  0  0  0  0  0  0  0  0  0
  4  2  2  0
  5  3  2  0
 12  1  1  0
  6 12  2  0
 13  2  1  0
 13  6  1  0
 13  7  2  0
 14  3  1  0
 14  8  2  0
 14  9  1  0
 15  4  1  0
 16  5  1  0
 17  7  1  0
 17 15  2  0
 18  8  1  0
 18 16  2  0
 19 12  1  0
 20 19  2  0
 21  9  1  0
 21 19  1  0
 22 10  1  0
 22 15  1  0
 23 11  1  0
 23 16  1  0
 24 10  1  0
 24 17  1  0
 25 11  1  0
 25 18  1  0
M  END
>  <NAME>  (1287) 
3,4-(METHYLENEDIOXY)BENZYL 3,4-(METHYLENEDIOXY)-ALPHA-METHYLCINNAMATE

>  <SYNONYMS>  (1287) 
1,3-BENZODIOXOL-5-(2-METHYL-1-PROPENIC ACID)-1,3-BENZODIOXOL-5-METHYL ESTER

>  <SPECTRUM TYPE>  (1287) 
MS1

>  <INSTRUMENT TYPE>  (1287) 
EI-B

>  <INSTRUMENT>  (1287) 
JEOL JMS-D-300

>  <ION MODE>  (1287) 
P

>  <INCHIKEY>  (1287) 
UQGWIRIJKQMRHI-WUXMJOGZSA-N

>  <FORMULA>  (1287) 
C19H16O6

>  <EXACT MASS>  (1287) 
340.09468823199995

>  <MW>  (1287) 
340

>  <ID>  (1287) 
JP010040

>  <CONTRIBUTOR>  (1287) 
University of Tokyo Team, {Faculty of Engineering, University of Tokyo

>  <COMMENT>  (1287) 
SMILES=O=C(OCc(c3)cc(O4)c(OC4)c3)C(C)=Cc(c1)cc(O2)c(OC2)c1
InChI=InChI=1S/C19H16O6/c1-12(6-13-2-4-15-17(7-13)24-10-22-15)19(20)21-9-14-3-5-16-18(8-14)25-11-23-16/h2-8H,9-11H2,1H3/b12-6+
computed SMILES=O=C(OCC1=CC=C2OCOC2=C1)C(=CC3=CC=C4OCOC4=C3)C
accession=JP010040
date=2016.01.19 (Created 2008.10.21, modified 2011.05.06)
author=KURARAY CO., LTD.
license=CC BY-NC-SA
exact mass=340.09469
ionization energy=70 eV
ion type=[M]+*
computed spectral entropy=2.0689418774048627
computed normalized entropy=0.6598455410614646
SPLASH=splash10-000i-1902000000-e579ac407345e0d54022
submitter=submitter = University of Tokyo Team (Faculty of Engineering, University of Tokyo)
MoNA Rating=3.75

>  <NUM PEAKS>  (1287) 
23

>  <MASS SPECTRAL PEAKS>  (1287) 
51 4.14
77 11.54
79 1.21
103 5.91
105 4.17
131 1.88
135 99.99
137 14.77
149 2.73
159 1.93
160 1.6
161 1.87
162 1.76
175 4.15
189 4.36
190 1.87
204 2.48
205 3.17
295 3.98
296 1.61
322 1.18
340 26.8
341 5.55

>  <PREDICTED SPECTRUM>  (1287) 
41 7
43 28
50 49
51 244
52 36
53 45
55 47
57 4
62 33
63 54
64 20
65 103
66 0
67 20
69 0
75 29
76 58
77 403
78 98
79 129
80 1
89 1
91 56
93 14
101 53
102 61
103 127
104 61
105 243
106 148
107 33
116 22
117 71
118 30
119 40
121 47
122 15
128 0
130 15
131 80
132 19
134 4
135 999
136 258
137 45
145 130
146 72
147 47
148 80
149 14
159 33
160 37
161 124
162 60
163 55
164 9
173 72
174 45
175 118
177 51
187 1
189 33
190 44
204 10
205 101
340 492
341 217
342 42

$$$$

     RDKit          2D

 24 24  0  0  0  0  0  0  0  0999 V2000
    2.5989   -1.5002    0.0000 C   0  0  0  0  0  0  0  0  0  0  0  0
   -3.8981   -0.7504    0.0000 C   0  0  0  0  0  0  0  0  0  0  0  0
   -3.8981    0.7504    0.0000 C   0  0  0  0  0  0  0  0  0  0  0  0
    7.7951    1.5010    0.0000 C   0  0  0  0  0  0  0  0  0  0  0  0
    9.0942    0.7512    0.0000 C   0  0  0  0  0  0  0  0  0  0  0  0
    6.4962    0.7508    0.0000 C   0  0  0  0  0  0  0  0  0  0  0  0
   10.3931    1.5015    0.0000 C   0  0  0  0  0  0  0  0  0  0  0  0
    5.1970    1.5006    0.0000 C   0  0  0  0  0  0  0  0  0  0  0  0
   11.6923    0.7517    0.0000 C   0  0  0  0  0  0  0  0  0  0  0  0
    3.8981    0.7504    0.0000 C   0  0  0  0  0  0  0  0  0  0  0  0
   12.9912    1.5019    0.0000 C   0  0  0  0  0  0  0  0  0  0  0  0
    2.5989    1.5002    0.0000 C   0  0  0  0  0  0  0  0  0  0  0  0
   14.2904    0.7521    0.0000 C   0  0  0  0  0  0  0  0  0  0  0  0
    1.3000   -0.7500    0.0000 C   0  0  0  0  0  0  0  0  0  0  0  0
    1.3000    0.7500    0.0000 C   0  0  0  0  0  0  0  0  0  0  0  0
    0.0000   -1.5000    0.0000 C   0  0  0  0  0  0  0  0  0  0  0  0
    0.0000    1.5000    0.0000 C   0  0  0  0  0  0  0  0  0  0  0  0
   -1.3000   -0.7500    0.0000 C   0  0  0  0  0  0  0  0  0  0  0  0
   -1.3000    0.7500    0.0000 C   0  0  0  0  0  0  0  0  0  0  0  0
   15.5893    1.5023    0.0000 O   0  0  0  0  0  0  0  0  0  0  0  0
   -0.0000   -3.0000    0.0000 O   0  0  0  0  0  0  0  0  0  0  0  0
    0.0000    3.0000    0.0000 O   0  0  0  0  0  0  0  0  0  0  0  0
   -2.5989   -1.5002    0.0000 O   0  0  0  0  0  0  0  0  0  0  0  0
   -2.5989    1.5002    0.0000 O   0  0  0  0  0  0  0  0  0  0  0  0
  5  4  1  0
  6  4  1  0
  7  5  1  0
  8  6  1  0
  9  7  1  0
 10  8  1  0
 11  9  1  0
 12 10  1  0
 13 11  1  0
 14  1  1  0
 15 12  1  0
 15 14  2  0
 16 14  1  0
 17 15  1  0
 18 16  1  0
 19 17  1  0
 19 18  2  0
 20 13  2  0
 21 16  2  0
 22 17  2  0
 23  2  1  0
 23 18  1  0
 24  3  1  0
 24 19  1  0
M  END
>  <NAME>  (1288) 
2,3-DIMETHOXY-5-(DECYL-10-AL)-6-METHYL-1,4-BENZOQINONE

>  <SYNONYMS>  (1288) 


>  <SPECTRUM TYPE>  (1288) 
MS1

>  <INSTRUMENT TYPE>  (1288) 
EI-B

>  <INSTRUMENT>  (1288) 
JEOL JMS-D-300

>  <ION MODE>  (1288) 
P

>  <INCHIKEY>  (1288) 
NWTCBWDIPOKYAO-UHFFFAOYSA-N

>  <FORMULA>  (1288) 
C19H28O5

>  <EXACT MASS>  (1288) 
336.193673996

>  <MW>  (1288) 
336

>  <ID>  (1288) 
JP010039

>  <CONTRIBUTOR>  (1288) 
University of Tokyo Team, {Faculty of Engineering, University of Tokyo

>  <COMMENT>  (1288) 
SMILES=O=CCCCCCCCCCc(c(C)1)c(=O)c(OC)c(OC)c(=O)1
InChI=InChI=1S/C19H28O5/c1-14-15(12-10-8-6-4-5-7-9-11-13-20)17(22)19(24-3)18(23-2)16(14)21/h13H,4-12H2,1-3H3
computed SMILES=O=CCCCCCCCCCC=1C(=O)C(OC)=C(OC)C(=O)C1C
accession=JP010039
date=2016.01.19 (Created 2008.10.21, modified 2011.05.06)
author=KURARAY CO., LTD.
license=CC BY-NC-SA
exact mass=336.19367
ionization energy=70 eV
ion type=[M]+*
computed spectral entropy=3.465639194339794
computed normalized entropy=0.8609531441231324
SPLASH=splash10-0079-1639000000-0e4408915fbfd64cca72
submitter=submitter = University of Tokyo Team (Faculty of Engineering, University of Tokyo)
MoNA Rating=3.75

>  <NUM PEAKS>  (1288) 
56

>  <MASS SPECTRAL PEAKS>  (1288) 
32 7.86
41 7.61
55 3.62
67 4.48
77 5.41
79 5.53
91 5.99
105 3.41
107 3.46
135 3.46
147 3.03
153 5.09
160 9.04
161 4.7
163 6.11
167 5.89
169 3.65
176 3.58
177 9.24
179 3.25
181 5.17
182 3.65
183 9.2
184 3.68
189 3.69
191 14.46
192 4.46
193 7.56
195 3.54
196 9.34
197 33.12
198 6.52
205 10.7
206 3.66
207 14.04
208 2.66
210 1.57
219 10.56
221 37.87
222 7.32
223 3.02
233 3.43
247 2.66
321 38.67
322 10.45
334 4.32
335 5.91
336 99.99
337 21.66
338 24.03
339 4.76
340 17.18
341 4.61
350 7.8
352 2.03
354 1.7

>  <PREDICTED SPECTRUM>  (1288) 
17 8
18 7
29 12
33 7
39 188
40 104
41 553
42 172
43 543
44 110
45 123
51 104
52 144
53 439
54 199
55 457
56 117
57 272
58 9
59 44
65 132
66 197
67 443
68 270
69 325
70 136
71 94
73 101
77 216
78 96
79 332
80 222
81 460
82 267
83 437
84 94
85 29
91 69
92 0
93 179
94 165
95 460
96 335
97 348
98 208
99 53
105 110
106 24
107 246
108 234
109 437
110 153
111 329
112 157
113 132
119 2
120 28
121 259
122 207
123 387
124 172
125 627
126 158
127 216
128 18
133 91
134 121
135 267
136 233
137 344
138 81
139 171
140 141
141 224
142 164
143 144
148 24
149 219
150 100
151 119
152 106
153 299
154 97
155 31
156 18
158 17
161 3
162 4
163 199
167 73
168 68
177 167
178 52
180 37
181 132
190 132
191 163
192 4
193 144
194 555
195 345
205 201
206 93
207 12
219 192
220 109
221 126
222 17
232 3
233 100
237 2
247 63
248 6
261 171
263 47
264 32
265 3
275 22
277 113
278 31
289 80
290 133
291 170
292 42
293 20
304 91
306 117
307 194
308 299
309 178
318 19
319 30
320 36
321 218
322 50
334 26
335 21
336 999
337 455
338 216
339 34

$$$$

     RDKit          2D

 24 25  0  0  0  0  0  0  0  0999 V2000
  -10.3942   -0.7512    0.0000 C   0  0  0  0  0  0  0  0  0  0  0  0
    7.0925    5.5005    0.0000 C   0  0  0  0  0  0  0  0  0  0  0  0
    4.0772    0.4897    0.0000 C   0  0  0  0  0  0  0  0  0  0  0  0
   -9.0951   -1.5010    0.0000 C   0  0  0  0  0  0  0  0  0  0  0  0
   -7.7962   -0.7508    0.0000 C   0  0  0  0  0  0  0  0  0  0  0  0
   -6.4970   -1.5006    0.0000 C   0  0  0  0  0  0  0  0  0  0  0  0
   -5.1981   -0.7504    0.0000 C   0  0  0  0  0  0  0  0  0  0  0  0
   -3.8989   -1.5002    0.0000 C   0  0  0  0  0  0  0  0  0  0  0  0
    1.3000   -1.5000    0.0000 C   0  0  0  0  0  0  0  0  0  0  0  0
    2.6000   -0.7500    0.0000 C   0  0  0  0  0  0  0  0  0  0  0  0
    3.1127    2.1596    0.0000 C   0  0  0  0  0  0  0  0  0  0  0  0
    4.5899    2.4204    0.0000 C   0  0  0  0  0  0  0  0  0  0  0  0
   -1.3000   -1.5000    0.0000 C   0  0  0  0  0  0  0  0  0  0  0  0
   -1.3000    1.5000    0.0000 C   0  0  0  0  0  0  0  0  0  0  0  0
    6.5798    4.0909    0.0000 C   0  0  0  0  0  0  0  0  0  0  0  0
   -2.6000   -0.7500    0.0000 C   0  0  0  0  0  0  0  0  0  0  0  0
    0.0000   -0.7500    0.0000 C   0  0  0  0  0  0  0  0  0  0  0  0
   -2.6000    0.7500    0.0000 C   0  0  0  0  0  0  0  0  0  0  0  0
    0.0000    0.7500    0.0000 C   0  0  0  0  0  0  0  0  0  0  0  0
    2.6000    0.7500    0.0000 C   0  0  0  0  0  0  0  0  0  0  0  0
    7.5442    2.9420    0.0000 O   0  0  0  0  0  0  0  0  0  0  0  0
   -3.8989    1.5002    0.0000 O   0  0  0  0  0  0  0  0  0  0  0  0
    5.1026    3.8301    0.0000 O   0  0  0  0  0  0  0  0  0  0  0  0
    1.3000    1.5000    0.0000 O   0  0  0  0  0  0  0  0  0  0  0  0
  4  1  1  0
  5  4  1  0
  6  5  1  0
  7  6  1  0
  8  7  1  0
 10  9  1  0
 12 11  1  0
 15  2  1  0
 16  8  1  0
 16 13  1  0
 17  9  1  0
 17 13  2  0
 18 14  1  0
 18 16  2  0
 19 14  2  0
 19 17  1  0
 20  3  1  0
 20 10  1  0
 20 11  1  0
 21 15  2  0
 22 18  1  0
 23 12  1  0
 23 15  1  0
 24 19  1  0
 24 20  1  0
M  END
>  <NAME>  (1289) 
2-(2-ACETOXYETHYL)-6-HEXYL-7-HYDROXY-2-METHYL-3,4-DIHYDRO-2H-1-BENZOPYRAN

>  <SYNONYMS>  (1289) 


>  <SPECTRUM TYPE>  (1289) 
MS1

>  <INSTRUMENT TYPE>  (1289) 
EI-B

>  <INSTRUMENT>  (1289) 
JEOL JMS-D-300

>  <ION MODE>  (1289) 
P

>  <INCHIKEY>  (1289) 
CZDAYPXTPJELBJ-UHFFFAOYSA-N

>  <FORMULA>  (1289) 
C20H30O4

>  <EXACT MASS>  (1289) 
334.21440944

>  <MW>  (1289) 
334

>  <ID>  (1289) 
JP010038

>  <CONTRIBUTOR>  (1289) 
University of Tokyo Team, {Faculty of Engineering, University of Tokyo

>  <COMMENT>  (1289) 
SMILES=CCCCCCc(c1)c(O)cc(O2)c(CCC(C)(CCOC(C)=O)2)1
InChI=InChI=1S/C20H30O4/c1-4-5-6-7-8-16-13-17-9-10-20(3,11-12-23-15(2)21)24-19(17)14-18(16)22/h13-14,22H,4-12H2,1-3H3
computed SMILES=O=C(OCCC1(OC2=CC(O)=C(C=C2CC1)CCCCCC)C)C
accession=JP010038
date=2016.01.19 (Created 2008.10.21, modified 2011.05.06)
author=KURARAY CO., LTD.
license=CC BY-NC-SA
exact mass=334.21441
ionization energy=70 eV
ion type=[M]+*
computed spectral entropy=3.6730693075579546
computed normalized entropy=0.820369219416435
SPLASH=splash10-0pb9-2391000000-1a0e6822cffe491964a6
submitter=submitter = University of Tokyo Team (Faculty of Engineering, University of Tokyo)
MoNA Rating=3.75

>  <NUM PEAKS>  (1289) 
88

>  <MASS SPECTRAL PEAKS>  (1289) 
27 1.99
29 3.93
39 1.61
41 7.75
43 26.78
53 1.88
55 7.09
57 2.05
65 1.38
67 2.74
69 11.34
77 2.88
79 3.82
81 5.01
83 2.2
85 1.43
91 3.65
93 2.55
95 1.38
97 1.75
98 1.75
105 1.64
107 3.29
108 1.97
119 1.28
121 1.63
123 5.48
133 2
135 9.13
136 5.67
137 5.39
145 1.72
147 4.64
148 2.19
149 6.03
159 1.47
160 1.46
161 5.48
162 1.32
163 9.73
164 1.47
173 1.44
174 2.43
175 7.96
176 1.49
177 3.99
185 2.07
187 1.46
188 1.74
189 12.04
190 1.25
191 1.8
194 2.32
195 1.5
202 1.58
203 67.31
204 9.82
205 4.37
206 2.65
207 99.99
208 14.99
209 1.71
219 4.96
221 7.97
222 1.19
231 3.04
233 1.8
243 1.33
245 14.08
246 4.62
247 11.98
248 2.33
257 3.23
259 17.12
260 3.85
263 15.57
264 2.62
273 3.05
274 9.82
275 6.23
277 3.26
289 2.22
290 1.52
292 9.51
293 1.8
334 36.63
335 7.96
336 1.43

>  <PREDICTED SPECTRUM>  (1289) 
27 64
28 11
29 66
39 66
41 371
42 39
43 775
44 32
45 13
51 63
52 11
53 99
55 292
57 123
63 16
64 8
65 142
66 3
67 119
69 321
71 60
73 31
77 200
78 63
79 127
81 97
82 5
83 80
85 30
89 28
90 25
91 244
92 26
93 111
95 136
97 50
103 89
105 151
107 211
109 121
111 25
115 99
117 107
118 41
119 204
121 218
122 49
123 209
129 125
130 29
131 128
132 10
133 207
134 58
135 254
136 69
137 68
143 68
145 59
146 65
147 374
148 201
149 174
150 21
151 9
159 29
161 196
162 139
163 277
164 124
165 87
167 15
171 21
173 30
174 162
175 391
176 159
177 39
179 39
185 22
186 32
187 118
188 82
189 209
190 37
191 53
201 31
202 47
203 999
204 201
205 313
206 277
207 857
208 419
209 72
217 73
219 89
220 16
221 279
222 96
229 69
230 18
231 219
233 25
243 81
244 12
245 433
246 222
247 184
248 74
249 83
259 529
260 203
261 16
263 436
264 185
273 114
274 378
275 226
277 133
290 40
292 207
293 80
304 5
334 661
335 297
336 102

$$$$

     RDKit          2D

 24 23  0  0  0  0  0  0  0  0999 V2000
    6.1704    9.5625    0.0000 C   0  0  0  0  0  0  0  0  0  0  0  0
    4.8714   11.8125    0.0000 C   0  0  0  0  0  0  0  0  0  0  0  0
   -0.3248   11.8125    0.0000 C   0  0  0  0  0  0  0  0  0  0  0  0
   -5.5209   11.8125    0.0000 C   0  0  0  0  0  0  0  0  0  0  0  0
  -10.7171   11.8125    0.0000 C   0  0  0  0  0  0  0  0  0  0  0  0
    2.2733   10.3125    0.0000 C   0  0  0  0  0  0  0  0  0  0  0  0
   -2.9228   10.3125    0.0000 C   0  0  0  0  0  0  0  0  0  0  0  0
   -8.1190   10.3125    0.0000 C   0  0  0  0  0  0  0  0  0  0  0  0
  -13.3151   10.3125    0.0000 C   0  0  0  0  0  0  0  0  0  0  0  0
    3.5724    9.5625    0.0000 C   0  0  0  0  0  0  0  0  0  0  0  0
    0.9743    9.5625    0.0000 C   0  0  0  0  0  0  0  0  0  0  0  0
   -1.6238    9.5625    0.0000 C   0  0  0  0  0  0  0  0  0  0  0  0
   -4.2219    9.5625    0.0000 C   0  0  0  0  0  0  0  0  0  0  0  0
   -6.8200    9.5625    0.0000 C   0  0  0  0  0  0  0  0  0  0  0  0
   -9.4180    9.5625    0.0000 C   0  0  0  0  0  0  0  0  0  0  0  0
  -12.0161    9.5625    0.0000 C   0  0  0  0  0  0  0  0  0  0  0  0
  -14.6142    9.5625    0.0000 C   0  0  0  0  0  0  0  0  0  0  0  0
    4.8714   10.3125    0.0000 C   0  0  0  0  0  0  0  0  0  0  0  0
   -0.3248   10.3125    0.0000 C   0  0  0  0  0  0  0  0  0  0  0  0
   -5.5209   10.3125    0.0000 C   0  0  0  0  0  0  0  0  0  0  0  0
  -10.7171   10.3125    0.0000 C   0  0  0  0  0  0  0  0  0  0  0  0
  -15.9132   10.3125    0.0000 C   0  0  0  0  0  0  0  0  0  0  0  0
  -15.9132   11.8125    0.0000 O   0  0  0  0  0  0  0  0  0  0  0  0
  -17.2123    9.5625    0.0000 O   0  0  0  0  0  0  0  0  0  0  0  0
 10  6  1  0
 11  6  1  0
 12  7  1  0
 13  7  1  0
 14  8  1  0
 15  8  1  0
 16  9  1  0
 17  9  1  0
 18  1  1  0
 18  2  1  0
 18 10  2  0
 19  3  1  0
 19 11  1  0
 12 19  2  0
 20  4  1  0
 20 13  1  0
 14 20  2  0
 21  5  1  0
 21 15  1  0
 16 21  2  0
 22 17  1  0
 23 22  2  0
 24 22  1  0
M  END
>  <NAME>  (1290) 
5,9,13,17-TETRAMETHYL 4,8,12,16-OCTADECATETRAENOIC ACID

>  <SYNONYMS>  (1290) 


>  <SPECTRUM TYPE>  (1290) 
MS1

>  <INSTRUMENT TYPE>  (1290) 
EI-B

>  <INSTRUMENT>  (1290) 
JEOL JMS-D-300

>  <ION MODE>  (1290) 
P

>  <INCHIKEY>  (1290) 
PIJHYAQKPAXLRO-RFRQLJORSA-N

>  <FORMULA>  (1290) 
C22H36O2

>  <EXACT MASS>  (1290) 
332.271530392

>  <MW>  (1290) 
332

>  <ID>  (1290) 
JP010037

>  <CONTRIBUTOR>  (1290) 
University of Tokyo Team, {Faculty of Engineering, University of Tokyo

>  <COMMENT>  (1290) 
SMILES=CC(C)=CCCC(C)=CCCC(C)=CCCC(C)=CCCC(O)=O
InChI=InChI=1S/C22H36O2/c1-18(2)10-6-11-19(3)12-7-13-20(4)14-8-15-21(5)16-9-17-22(23)24/h10,12,14,16H,6-9,11,13,15,17H2,1-5H3,(H,23,24)/b19-12+,20-14+,21-16+
computed SMILES=O=C(O)CCC=C(C)CCC=C(C)CCC=C(C)CCC=C(C)C
accession=JP010037
date=2016.01.19 (Created 2008.10.21, modified 2011.05.06)
author=KURARAY CO., LTD.
license=CC BY-NC-SA
exact mass=332.27153
ionization energy=70 eV
ion type=[M]+*
computed spectral entropy=3.471958216021966
computed normalized entropy=0.8145012799862931
SPLASH=splash10-0159-9300000000-662f06b06fd39720487c
submitter=submitter = University of Tokyo Team (Faculty of Engineering, University of Tokyo)
MoNA Rating=3.75

>  <NUM PEAKS>  (1290) 
71

>  <MASS SPECTRAL PEAKS>  (1290) 
27 2.35
28 6.11
29 3.68
39 4.34
41 28.05
43 7.69
44 1.43
53 4.81
55 12.5
57 4.34
67 11.79
68 12.42
69 99.99
70 6.2
71 2.73
73 2.41
77 2.85
79 5.29
80 2.66
81 60.14
82 8.21
83 4.29
85 6.8
91 3.33
92 1.99
93 17.1
94 3.45
95 16.93
96 1.79
97 2.87
105 3.4
107 11.09
108 3.32
109 10.87
110 1.55
111 1.57
113 1.32
119 3.43
121 12.23
122 4.26
123 10.02
124 2.04
125 1.27
127 2.08
133 3.82
134 2.04
135 16.7
136 15.16
137 13.08
138 1.72
147 2.68
149 4.32
153 4.32
161 3.66
163 1.27
177 2.43
179 1.69
181 1.53
189 1.24
193 1.91
195 1.52
204 1.97
206 1.46
207 3.26
208 1.32
221 1.33
263 3.52
281 0.53
289 1.11
332 2.18
333 0.6

>  <PREDICTED SPECTRUM>  (1290) 
17 0
18 16
26 12
27 106
28 59
29 202
30 44
31 67
32 7
39 158
40 69
41 663
42 117
43 417
44 115
45 117
50 41
51 54
52 40
53 247
54 78
55 400
56 95
57 204
58 51
59 78
60 62
65 96
66 68
67 402
68 414
69 999
70 217
71 233
72 27
73 58
77 166
78 45
79 239
80 174
81 784
82 326
83 247
84 114
85 168
86 18
87 27
91 258
92 98
93 352
94 168
95 471
96 96
97 138
98 26
99 71
100 51
101 3
103 26
105 193
106 93
107 361
108 172
109 354
110 146
111 139
112 67
113 109
115 12
117 37
119 226
120 107
121 427
122 194
123 417
124 141
125 127
126 64
127 113
128 77
129 40
131 49
132 28
133 112
134 78
135 383
136 362
137 387
138 95
139 96
140 40
145 73
146 20
147 165
148 116
149 232
150 75
151 43
152 20
153 98
154 1
159 1
160 22
161 193
162 33
163 155
164 30
165 31
169 10
173 14
174 2
175 88
176 27
177 178
178 50
179 65
181 63
187 21
189 158
190 55
191 55
192 50
193 75
194 32
195 37
196 24
201 35
202 8
203 93
204 92
205 132
206 47
207 97
208 9
213 8
217 55
218 12
219 62
220 28
221 103
222 5
229 43
231 49
232 9
233 9
234 38
249 16
257 66
259 9
263 97
271 42
272 74
273 35
274 28
275 20
289 101
290 15
314 54
315 56
317 27
332 188
333 65
334 3

$$$$

     RDKit          2D

 24 23  0  0  0  0  0  0  0  0999 V2000
    5.8457   10.1250    0.0000 C   0  0  0  0  0  0  0  0  0  0  0  0
  -17.5370   10.1250    0.0000 C   0  0  0  0  0  0  0  0  0  0  0  0
  -16.2380   12.3750    0.0000 C   0  0  0  0  0  0  0  0  0  0  0  0
  -11.0418   12.3750    0.0000 C   0  0  0  0  0  0  0  0  0  0  0  0
   -5.8457   12.3750    0.0000 C   0  0  0  0  0  0  0  0  0  0  0  0
   -0.6495   12.3750    0.0000 C   0  0  0  0  0  0  0  0  0  0  0  0
    4.5466   10.8750    0.0000 C   0  0  0  0  0  0  0  0  0  0  0  0
  -13.6399   10.8750    0.0000 C   0  0  0  0  0  0  0  0  0  0  0  0
   -8.4437   10.8750    0.0000 C   0  0  0  0  0  0  0  0  0  0  0  0
   -3.2476   10.8750    0.0000 C   0  0  0  0  0  0  0  0  0  0  0  0
  -14.9389   10.1250    0.0000 C   0  0  0  0  0  0  0  0  0  0  0  0
  -12.3409   10.1250    0.0000 C   0  0  0  0  0  0  0  0  0  0  0  0
   -9.7428   10.1250    0.0000 C   0  0  0  0  0  0  0  0  0  0  0  0
   -7.1447   10.1250    0.0000 C   0  0  0  0  0  0  0  0  0  0  0  0
   -4.5466   10.1250    0.0000 C   0  0  0  0  0  0  0  0  0  0  0  0
   -1.9486   10.1250    0.0000 C   0  0  0  0  0  0  0  0  0  0  0  0
    0.6495   10.1250    0.0000 C   0  0  0  0  0  0  0  0  0  0  0  0
  -16.2380   10.8750    0.0000 C   0  0  0  0  0  0  0  0  0  0  0  0
  -11.0418   10.8750    0.0000 C   0  0  0  0  0  0  0  0  0  0  0  0
   -5.8457   10.8750    0.0000 C   0  0  0  0  0  0  0  0  0  0  0  0
   -0.6495   10.8750    0.0000 C   0  0  0  0  0  0  0  0  0  0  0  0
    1.9486   10.8750    0.0000 C   0  0  0  0  0  0  0  0  0  0  0  0
    1.9486   12.3750    0.0000 O   0  0  0  0  0  0  0  0  0  0  0  0
    3.2476   10.1250    0.0000 O   0  0  0  0  0  0  0  0  0  0  0  0
  7  1  1  0
 11  8  1  0
 12  8  1  0
 13  9  1  0
 14  9  1  0
 15 10  1  0
 16 10  1  0
 18  2  1  0
 18  3  1  0
 18 11  2  0
 19  4  1  0
 19 12  1  0
 13 19  2  0
 20  5  1  0
 20 14  1  0
 15 20  2  0
 21  6  1  0
 21 16  1  0
 17 21  2  0
 22 17  1  0
 23 22  2  0
 24  7  1  0
 24 22  1  0
M  END
>  <NAME>  (1291) 
3,7,11,15-TETRAMETHYL-2,6,10,14-HEXADECATETRAENIC ACID ETHYL ESTER

>  <SYNONYMS>  (1291) 


>  <SPECTRUM TYPE>  (1291) 
MS1

>  <INSTRUMENT TYPE>  (1291) 
EI-B

>  <INSTRUMENT>  (1291) 
JEOL JMS-D-300

>  <ION MODE>  (1291) 
P

>  <INCHIKEY>  (1291) 
BFYVSGCRUDETNO-JYQWTDEISA-N

>  <FORMULA>  (1291) 
C22H36O2

>  <EXACT MASS>  (1291) 
332.271530392

>  <MW>  (1291) 
332

>  <ID>  (1291) 
JP010036

>  <CONTRIBUTOR>  (1291) 
University of Tokyo Team, {Faculty of Engineering, University of Tokyo

>  <COMMENT>  (1291) 
SMILES=CCOC(=O)C=C(C)CCC=C(C)CCC=C(C)CCC=C(C)C
InChI=InChI=1S/C22H36O2/c1-7-24-22(23)17-21(6)16-10-15-20(5)14-9-13-19(4)12-8-11-18(2)3/h11,13,15,17H,7-10,12,14,16H2,1-6H3/b19-13+,20-15+,21-17+
computed SMILES=O=C(OCC)C=C(C)CCC=C(C)CCC=C(C)CCC=C(C)C
accession=JP010036
date=2016.01.19 (Created 2008.10.21, modified 2011.05.06)
author=KURARAY CO., LTD.
license=CC BY-NC-SA
exact mass=332.27153
ionization energy=70 eV
ion type=[M]+*
computed spectral entropy=3.6599011799230867
computed normalized entropy=0.8503359267734647
SPLASH=splash10-01c0-9800000000-eee02baea52fcb4b3021
submitter=submitter = University of Tokyo Team (Faculty of Engineering, University of Tokyo)
MoNA Rating=3.75

>  <NUM PEAKS>  (1291) 
74

>  <MASS SPECTRAL PEAKS>  (1291) 
27 1.91
28 7.77
29 5.13
32 1.15
39 3.3
41 24.86
43 6.61
53 7.6
54 2.02
55 10.08
57 1.88
65 1.44
67 12.04
68 15.18
69 99.99
70 5.9
71 2.45
77 4.82
79 8.15
80 3.22
81 50.16
82 15.07
83 5.12
91 7.5
92 1.85
93 21.13
94 4.3
95 18.02
96 1.71
97 1.21
99 2.54
100 7
105 6.7
107 16.67
108 4.71
109 12.01
113 1.68
119 5.01
121 35.58
122 11.14
123 18.19
124 2.34
125 1.66
128 47.2
129 4.1
133 5.79
134 3.97
135 22.24
136 25.33
137 17.88
139 1.81
141 2.15
147 8.66
148 2.56
149 9.26
150 2.68
153 5.24
161 5.31
162 1.76
163 1.6
175 4.88
177 2.64
179 1.32
181 1.41
189 10.97
190 1.88
191 2.35
203 1.54
204 2.86
205 4.07
217 1.84
287 5.07
289 2.04
332 6.06

>  <PREDICTED SPECTRUM>  (1291) 
18 13
26 20
27 113
28 47
29 223
30 60
31 74
32 7
39 136
40 41
41 622
42 91
43 352
44 61
45 66
50 10
51 20
52 10
53 232
54 99
55 324
56 79
57 187
58 36
59 64
60 28
65 101
66 57
67 385
68 359
69 999
70 183
71 178
72 25
73 34
77 151
78 15
79 196
80 151
81 787
82 352
83 213
84 58
85 114
91 212
92 95
93 348
94 137
95 412
96 84
97 125
99 59
100 84
103 7
105 169
106 72
107 341
108 175
109 422
110 125
111 124
112 50
113 83
114 27
119 155
120 96
121 395
122 136
123 285
124 87
125 110
126 87
127 135
128 122
129 28
131 27
132 9
133 123
134 117
135 356
136 326
137 308
138 105
139 135
140 64
141 11
145 81
147 176
148 122
149 154
150 92
151 103
152 74
153 85
159 21
160 3
161 139
163 84
164 23
165 20
166 6
167 26
173 47
174 17
175 65
176 13
177 105
178 91
179 52
181 73
182 15
189 135
190 68
191 112
192 24
193 45
194 37
195 76
196 118
197 30
201 22
203 70
204 47
205 43
206 23
207 106
208 71
209 72
215 14
216 17
217 122
218 21
219 51
220 35
221 103
222 18
229 1
231 28
258 3
263 71
271 0
287 57
289 113
290 0
317 35
332 161
333 68

$$$$

     RDKit          2D

 23 22  0  0  0  0  0  0  0  0999 V2000
    5.5209    8.4375    0.0000 C   0  0  0  0  0  0  0  0  0  0  0  0
    4.2219   10.6875    0.0000 C   0  0  0  0  0  0  0  0  0  0  0  0
   -0.9743   10.6875    0.0000 C   0  0  0  0  0  0  0  0  0  0  0  0
   -6.1704   10.6875    0.0000 C   0  0  0  0  0  0  0  0  0  0  0  0
  -10.4024   10.3366    0.0000 C   0  0  0  0  0  0  0  0  0  0  0  0
    1.6238    9.1875    0.0000 C   0  0  0  0  0  0  0  0  0  0  0  0
   -3.5724    9.1875    0.0000 C   0  0  0  0  0  0  0  0  0  0  0  0
   -8.7685    9.1875    0.0000 C   0  0  0  0  0  0  0  0  0  0  0  0
    2.9228    8.4375    0.0000 C   0  0  0  0  0  0  0  0  0  0  0  0
    0.3248    8.4375    0.0000 C   0  0  0  0  0  0  0  0  0  0  0  0
   -2.2733    8.4375    0.0000 C   0  0  0  0  0  0  0  0  0  0  0  0
   -4.8714    8.4375    0.0000 C   0  0  0  0  0  0  0  0  0  0  0  0
   -7.4695    8.4375    0.0000 C   0  0  0  0  0  0  0  0  0  0  0  0
  -10.0675    8.4375    0.0000 C   0  0  0  0  0  0  0  0  0  0  0  0
  -13.9647    9.1875    0.0000 C   0  0  0  0  0  0  0  0  0  0  0  0
    4.2219    9.1875    0.0000 C   0  0  0  0  0  0  0  0  0  0  0  0
   -0.9743    9.1875    0.0000 C   0  0  0  0  0  0  0  0  0  0  0  0
   -6.1704    9.1875    0.0000 C   0  0  0  0  0  0  0  0  0  0  0  0
  -12.6656    8.4375    0.0000 C   0  0  0  0  0  0  0  0  0  0  0  0
  -11.3666    9.1875    0.0000 C   0  0  0  0  0  0  0  0  0  0  0  0
  -15.2637    8.4375    0.0000 O   0  0  0  0  0  0  0  0  0  0  0  0
  -12.6656    6.9375    0.0000 O   0  0  0  0  0  0  0  0  0  0  0  0
  -12.3308   10.3366    0.0000 O   0  0  0  0  0  0  0  0  0  0  0  0
  9  6  1  0
 10  6  1  0
 11  7  1  0
 12  7  1  0
 13  8  1  0
 14  8  1  0
 16  1  1  0
 16  2  1  0
 16  9  1  0
 17  3  1  0
 17 10  1  0
 17 11  1  0
 18  4  1  0
 18 12  1  0
 18 13  1  0
 19 15  1  0
 20  5  1  0
 20 14  1  0
 20 19  1  0
 21 15  1  0
 22 19  1  0
 23 20  1  0
M  END
>  <NAME>  (1292) 
3,7,11,15-TETRAMETHYLHEXADECANE-1,2,3-TRIOL

>  <SYNONYMS>  (1292) 


>  <SPECTRUM TYPE>  (1292) 
MS1

>  <INSTRUMENT TYPE>  (1292) 
EI-B

>  <INSTRUMENT>  (1292) 
JEOL JMS-D-300

>  <ION MODE>  (1292) 
P

>  <INCHIKEY>  (1292) 
CGIHFIDULQUVJG-UHFFFAOYSA-N

>  <FORMULA>  (1292) 
C20H42O3

>  <EXACT MASS>  (1292) 
330.31339520399996

>  <MW>  (1292) 
330

>  <ID>  (1292) 
JP010035

>  <CONTRIBUTOR>  (1292) 
University of Tokyo Team, {Faculty of Engineering, University of Tokyo

>  <COMMENT>  (1292) 
SMILES=CC(C)CCCC(C)CCCC(C)CCCC(C)(O)C(O)CO
InChI=InChI=1S/C20H42O3/c1-16(2)9-6-10-17(3)11-7-12-18(4)13-8-14-20(5,23)19(22)15-21/h16-19,21-23H,6-15H2,1-5H3
computed SMILES=OCC(O)C(O)(C)CCCC(C)CCCC(C)CCCC(C)C
accession=JP010035
date=2016.01.19 (Created 2008.10.21, modified 2011.05.06)
author=KURARAY CO., LTD.
license=CC BY-NC-SA
exact mass=330.3134
ionization energy=70 eV
ion type=[M]+*
computed spectral entropy=3.6922072088892115
computed normalized entropy=0.8246436133528866
SPLASH=splash10-0a4i-9300000000-c3080cdc7ae38007ce2b
submitter=submitter = University of Tokyo Team (Faculty of Engineering, University of Tokyo)
MoNA Rating=3.75

>  <NUM PEAKS>  (1292) 
88

>  <MASS SPECTRAL PEAKS>  (1292) 
27 3.68
28 1.97
29 12.24
31 2.39
39 3.18
41 30.1
42 5.58
43 90.19
44 13.77
45 7.47
53 2.01
55 53.84
56 14.32
57 99.99
58 26.07
59 8.71
61 12.4
62 2.2
67 6.96
68 6.35
69 80.41
70 13.91
71 87.96
72 6.58
73 1.8
74 1.23
75 3.3
79 2.18
80 2.08
81 18.38
82 7.66
83 71.56
84 13.45
85 40.05
86 2.71
87 9.27
88 14
93 4.43
94 2.33
95 18.03
96 5.01
97 64.69
98 8.28
99 17.04
101 3.93
103 1.13
104 1.13
105 83.44
106 3.71
107 2.2
109 15.83
110 6.44
111 55.44
112 6.44
113 12.97
118 3.23
119 2.01
121 4.19
123 10.89
124 4.53
125 35.34
126 6.92
127 9.58
135 2.03
137 6.53
138 2.1
139 15.95
140 3.45
141 4.65
149 2.25
151 2.44
153 7.8
155 3.33
161 2.15
165 2.13
167 3.23
169 4.76
179 1.46
181 2.25
195 2.23
250 3.9
263 2.23
269 21.07
270 3.8
281 6.54
282 1.56
312 0.84
315 1.24

>  <PREDICTED SPECTRUM>  (1292) 
18 1
26 11
27 163
28 65
29 288
30 113
31 201
38 6
39 113
40 81
41 506
42 197
43 874
44 184
45 305
46 29
49 65
51 36
53 128
54 140
55 751
56 486
57 999
58 474
59 359
60 125
61 183
62 54
63 100
65 48
66 45
67 320
68 294
69 910
70 482
71 951
72 264
73 180
74 65
75 174
76 78
77 126
78 88
79 159
80 100
81 495
82 413
83 768
84 290
85 658
86 211
87 210
88 116
89 123
90 153
91 163
92 10
93 116
94 39
95 366
96 312
97 726
98 191
99 534
100 142
101 21
102 54
103 208
104 44
105 502
106 233
107 231
108 97
109 404
110 235
111 681
112 269
113 414
114 24
115 47
116 19
117 16
119 97
121 111
123 338
124 167
125 559
126 381
127 448
128 85
129 90
131 62
135 87
137 205
138 34
139 306
140 105
141 178
142 35
147 73
149 63
150 1
151 146
152 114
153 328
154 55
155 158
156 6
157 62
165 137
166 19
167 111
168 20
169 41
175 36
177 50
179 115
180 107
181 105
182 55
183 30
195 74
209 52
211 101
221 1
225 62
239 12
263 130
267 40
269 390
270 184
271 37
279 22
281 156
282 39

$$$$

     RDKit          2D

 10 10  0  0  0  0  0  0  0  0999 V2000
    0.9641    2.6492    0.0000 C   0  0  0  0  0  0  0  0  0  0  0  0
    1.3000    0.7500    0.0000 C   0  0  0  0  0  0  0  0  0  0  0  0
    1.3000   -0.7500    0.0000 C   0  0  0  0  0  0  0  0  0  0  0  0
   -2.5989    1.5002    0.0000 C   0  0  0  0  0  0  0  0  0  0  0  0
   -1.3000   -0.7500    0.0000 C   0  0  0  0  0  0  0  0  0  0  0  0
   -1.3000    0.7500    0.0000 C   0  0  0  0  0  0  0  0  0  0  0  0
   -0.0000    1.5000    0.0000 C   0  0  0  0  0  0  0  0  0  0  0  0
   -3.8981    0.7504    0.0000 O   0  0  0  0  0  0  0  0  0  0  0  0
   -0.9641    2.6492    0.0000 O   0  0  0  0  0  0  0  0  0  0  0  0
   -0.0000   -1.5000    0.0000 O   0  0  0  0  0  0  0  0  0  0  0  0
  3  2  1  0
  6  4  1  0
  6  5  1  0
  7  1  1  0
  7  2  1  0
  7  6  1  0
  8  4  1  0
  9  7  1  0
 10  3  1  0
 10  5  1  0
M  END
>  <NAME>  (1293) 
3-HYDROXYMETHYL-4-METHYLPERHYDROPYRAN-4-OL

>  <SYNONYMS>  (1293) 


>  <SPECTRUM TYPE>  (1293) 
MS1

>  <INSTRUMENT TYPE>  (1293) 
EI-B

>  <INSTRUMENT>  (1293) 
JEOL JMS-D-300

>  <ION MODE>  (1293) 
P

>  <INCHIKEY>  (1293) 
BAMBQJPPLYXMBB-UHFFFAOYSA-N

>  <FORMULA>  (1293) 
C7H14O3

>  <EXACT MASS>  (1293) 
146.09429430799997

>  <MW>  (1293) 
146

>  <ID>  (1293) 
JP010034

>  <CONTRIBUTOR>  (1293) 
University of Tokyo Team, {Faculty of Engineering, University of Tokyo

>  <COMMENT>  (1293) 
SMILES=OCC(C1)C(C)(O)CCO1
InChI=InChI=1S/C7H14O3/c1-7(9)2-3-10-5-6(7)4-8/h6,8-9H,2-5H2,1H3
computed SMILES=OCC1COCCC1(O)C
accession=JP010034
date=2016.01.19 (Created 2008.10.21, modified 2011.05.06)
author=KURARAY CO., LTD.
license=CC BY-NC-SA
exact mass=146.09429
ionization energy=70 eV
ion type=[M]+*
computed spectral entropy=3.0371604893742834
computed normalized entropy=0.7845525150506186
SPLASH=splash10-0006-9000000000-6003215a2420be878d6f
submitter=submitter = University of Tokyo Team (Faculty of Engineering, University of Tokyo)
MoNA Rating=3.75

>  <NUM PEAKS>  (1293) 
48

>  <MASS SPECTRAL PEAKS>  (1293) 
27 6.6
29 7.1
30 3.4
31 0.86
39 6.6
41 25.3
42 4.2
43 99.99
44 2.5
45 1.8
53 3.4
55 2.87
56 3.2
57 24.4
58 22.1
59 0.64
61 11.8
65 1.8
67 5.1
68 0.25
69 8.6
70 12.1
71 49.7
72 1.75
73 4.5
79 2.6
81 3.5
82 0.65
83 22.9
84 1.9
85 3.5
87 0.79
88 2.1
89 31.5
90 1.2
95 0.19
97 15.8
98 6.4
99 11.1
100 0.27
101 7.8
112 1.9
113 3.5
115 0.45
117 5.5
119 1.6
128 8
131 2.1

>  <PREDICTED SPECTRUM>  (1293) 
15 2
26 16
27 148
28 8
29 239
30 48
31 232
32 2
33 59
38 26
39 198
40 98
41 431
42 281
43 999
44 233
45 270
46 83
47 83
50 4
51 66
52 38
53 228
54 130
55 516
56 275
57 609
58 338
59 207
60 143
61 239
65 69
66 11
67 194
68 120
69 245
70 160
71 617
72 181
73 249
74 120
75 48
76 13
77 12
79 111
80 3
81 138
82 139
83 229
84 46
85 295
86 107
87 131
88 109
89 126
91 33
95 68
96 71
97 367
98 149
99 183
100 83
101 136
102 47
103 96
113 104
115 359
116 97
117 47
128 122
129 14
131 114
146 25

$$$$

     RDKit          2D

  9  9  0  0  0  0  0  0  0  0999 V2000
   -3.4605    1.6603    0.0000 C   0  0  0  0  0  0  0  0  0  0  0  0
    1.3532   -0.4911    0.0000 C   0  0  0  0  0  0  0  0  0  0  0  0
   -1.8282   -1.1668    0.0000 C   0  0  0  0  0  0  0  0  0  0  0  0
   -1.9687    1.5028    0.0000 C   0  0  0  0  0  0  0  0  0  0  0  0
    0.2410    0.5154    0.0000 C   0  0  0  0  0  0  0  0  0  0  0  0
   -1.2187    0.2038    0.0000 C   0  0  0  0  0  0  0  0  0  0  0  0
   -0.9460   -2.3800    0.0000 Cl  0  0  0  0  0  0  0  0  0  0  0  0
   -0.9690    2.6112    0.0000 N   0  0  0  0  0  0  0  0  0  0  0  0
    0.4068    2.0083    0.0000 O   0  0  0  0  0  0  0  0  0  0  0  0
  4  1  1  0
  5  2  1  0
  6  3  1  0
  6  4  1  0
  6  5  2  0
  7  3  1  0
  8  4  2  0
  9  5  1  0
  9  8  1  0
M  END
>  <NAME>  (1294) 
4-CHLOROMETHYL-3,5-DIMETHYLISOXAZOLE

>  <SYNONYMS>  (1294) 


>  <SPECTRUM TYPE>  (1294) 
MS1

>  <INSTRUMENT TYPE>  (1294) 
EI-B

>  <INSTRUMENT>  (1294) 
JEOL JMS-D-300

>  <ION MODE>  (1294) 
P

>  <INCHIKEY>  (1294) 
NIFAUKBQIAURIM-UHFFFAOYSA-N

>  <FORMULA>  (1294) 
C6H8ClNO

>  <EXACT MASS>  (1294) 
145.029441556

>  <MW>  (1294) 
145

>  <ID>  (1294) 
JP010033

>  <CONTRIBUTOR>  (1294) 
University of Tokyo Team, {Faculty of Engineering, University of Tokyo

>  <COMMENT>  (1294) 
SMILES=ClCc(c(C)1)c(C)on1
InChI=InChI=1S/C6H8ClNO/c1-4-6(3-7)5(2)9-8-4/h3H2,1-2H3
computed SMILES=ClCC=1C(=NOC1C)C
accession=JP010033
date=2016.01.19 (Created 2008.10.21, modified 2011.05.06)
author=KURARAY CO., LTD.
license=CC BY-NC-SA
exact mass=145.02944
ionization energy=70 eV
ion type=[M]+*
computed spectral entropy=1.9242077535003297
computed normalized entropy=0.5905926147507059
SPLASH=splash10-03xr-9700000000-d3fee2664895f1ec591f
submitter=submitter = University of Tokyo Team (Faculty of Engineering, University of Tokyo)
MoNA Rating=3.75

>  <NUM PEAKS>  (1294) 
26

>  <MASS SPECTRAL PEAKS>  (1294) 
26 2.8
27 2.8
28 2.8
38 0.16
39 4.1
40 1.7
41 3.1
42 1.26
43 39.6
49 1
50 1.1
51 0.26
52 2.6
53 2.2
54 1.7
61 0.1
66 5.5
67 2.8
68 62.9
69 0.58
76 1.1
110 99.99
111 7.1
145 1.81
146 1.3
147 5.8

>  <PREDICTED SPECTRUM>  (1294) 
14 54
15 178
25 9
26 104
27 162
28 164
29 53
33 15
35 66
36 107
37 92
38 197
39 422
40 258
41 309
42 423
43 779
44 156
48 27
49 151
50 124
51 280
52 240
53 234
54 190
55 117
61 102
62 59
63 41
64 73
65 38
66 220
67 189
68 627
69 332
70 109
76 100
77 23
78 12
82 40
83 74
89 31
96 0
102 130
103 95
104 83
110 999
111 251
130 66
132 15
145 369
146 84
147 249
148 40

$$$$

     RDKit          2D

 10  9  0  0  0  0  0  0  0  0999 V2000
   -1.2990    6.0000    0.0000 C   0  0  0  0  0  0  0  0  0  0  0  0
   -6.4952    4.5000    0.0000 C   0  0  0  0  0  0  0  0  0  0  0  0
   -0.0000    3.7500    0.0000 C   0  0  0  0  0  0  0  0  0  0  0  0
    1.2990    4.5000    0.0000 C   0  0  0  0  0  0  0  0  0  0  0  0
   -2.5981    3.7500    0.0000 C   0  0  0  0  0  0  0  0  0  0  0  0
   -1.2990    4.5000    0.0000 C   0  0  0  0  0  0  0  0  0  0  0  0
   -3.8971    4.5000    0.0000 C   0  0  0  0  0  0  0  0  0  0  0  0
   -5.1962    3.7500    0.0000 N   0  0  0  0  0  0  0  0  0  0  0  0
    2.5981    3.7500    0.0000 O   0  0  0  0  0  0  0  0  0  0  0  0
   -3.8971    6.0000    0.0000 O   0  0  0  0  0  0  0  0  0  0  0  0
  4  3  1  0
  6  1  1  0
  6  3  1  0
  6  5  1  0
  7  5  1  0
  8  2  1  0
  8  7  2  3
  9  4  1  0
 10  7  1  0
M  END
>  <NAME>  (1295) 
5-HYDROXY-3,N-DIMETHYLPENTANAMIDE

>  <SYNONYMS>  (1295) 


>  <SPECTRUM TYPE>  (1295) 
MS1

>  <INSTRUMENT TYPE>  (1295) 
EI-B

>  <INSTRUMENT>  (1295) 
JEOL JMS-D-300

>  <ION MODE>  (1295) 
P

>  <INCHIKEY>  (1295) 
XZEGKLNXAIQEJU-UHFFFAOYSA-N

>  <FORMULA>  (1295) 
C7H15NO2

>  <EXACT MASS>  (1295) 
145.11027872

>  <MW>  (1295) 
145

>  <ID>  (1295) 
JP010032

>  <CONTRIBUTOR>  (1295) 
University of Tokyo Team, {Faculty of Engineering, University of Tokyo

>  <COMMENT>  (1295) 
SMILES=OCCC(C)CC(=O)NC
InChI=InChI=1S/C7H15NO2/c1-6(3-4-9)5-7(10)8-2/h6,9H,3-5H2,1-2H3,(H,8,10)
computed SMILES=OC(=NC)CC(C)CCO
accession=JP010032
date=2016.01.19 (Created 2008.10.21, modified 2011.05.06)
author=KURARAY CO., LTD.
license=CC BY-NC-SA
exact mass=145.11028
ionization energy=70 eV
ion type=[M]+*
computed spectral entropy=2.999396167339009
computed normalized entropy=0.8024776060107119
SPLASH=splash10-05fu-9100000000-8acc6f7f76d57ab5b65a
submitter=submitter = University of Tokyo Team (Faculty of Engineering, University of Tokyo)
MoNA Rating=3.75

>  <NUM PEAKS>  (1295) 
42

>  <MASS SPECTRAL PEAKS>  (1295) 
27 9.7
28 9
29 10.5
30 1.63
31 26.2
32 6.5
39 9.8
40 0.36
41 28.6
42 21.6
43 17.5
44 0.68
45 15.6
53 4
54 2.5
55 2.9
56 7.3
57 16.9
58 56.9
59 0.53
67 2.7
68 4.6
69 21.7
70 1.17
71 8.7
72 2.6
73 99.99
74 0.62
82 5.2
84 1.9
86 6
97 0.31
100 11
101 3.5
110 6.9
112 0.5
114 8.1
115 5.2
125 3
126 0.18
127 13
128 1.8

>  <PREDICTED SPECTRUM>  (1295) 
14 24
15 62
16 3
17 10
18 32
19 35
25 18
26 137
27 441
28 219
29 422
30 211
31 340
32 49
33 55
34 15
35 29
36 40
37 67
38 128
39 583
40 260
41 999
42 676
43 704
44 348
45 867
46 191
47 172
48 57
49 74
50 80
51 200
52 144
53 398
54 429
55 749
56 605
57 470
58 278
59 105
60 83
61 185
62 26
63 53
64 45
65 158
66 115
67 458
68 470
69 500
70 435
71 390
72 218
73 202
74 179
75 23
77 87
78 95
79 239
80 239
81 338
82 532
83 488
84 415
85 254
86 224
87 176
88 120
89 24
93 61
94 204
95 227
96 169
97 205
98 338
99 406
100 355
101 223
102 17
109 55
110 142
111 14
112 248
113 20
114 19
115 62
126 99
127 200
128 166
129 37
130 127
144 128
145 183
146 25

$$$$

     RDKit          2D

 10  9  0  0  0  0  0  0  0  0999 V2000
   -5.3469    4.4130    0.0000 C   0  0  0  0  0  0  0  0  0  0  0  0
    0.3983    2.3639    0.0000 C   0  0  0  0  0  0  0  0  0  0  0  0
    2.4474    2.9130    0.0000 C   0  0  0  0  0  0  0  0  0  0  0  0
   -1.4498    3.6630    0.0000 C   0  0  0  0  0  0  0  0  0  0  0  0
   -2.7488    4.4130    0.0000 C   0  0  0  0  0  0  0  0  0  0  0  0
   -0.1507    4.4130    0.0000 C   0  0  0  0  0  0  0  0  0  0  0  0
   -4.0478    3.6630    0.0000 C   0  0  0  0  0  0  0  0  0  0  0  0
    1.1483    3.6630    0.0000 C   0  0  0  0  0  0  0  0  0  0  0  0
   -4.0478    2.1630    0.0000 O   0  0  0  0  0  0  0  0  0  0  0  0
    1.8983    4.9620    0.0000 O   0  0  0  0  0  0  0  0  0  0  0  0
  5  4  1  0
  6  4  1  0
  7  1  1  0
  7  5  1  0
  8  2  1  0
  8  3  1  0
  8  6  1  0
  9  7  2  0
 10  8  1  0
M  END
>  <NAME>  (1296) 
6-HYDROXY-6-METHYL-2-HEPTANONE

>  <SYNONYMS>  (1296) 


>  <SPECTRUM TYPE>  (1296) 
MS1

>  <INSTRUMENT TYPE>  (1296) 
EI-B

>  <INSTRUMENT>  (1296) 
JEOL JMS-D-300

>  <ION MODE>  (1296) 
P

>  <INCHIKEY>  (1296) 
BDKJAPPUGXLAHC-UHFFFAOYSA-N

>  <FORMULA>  (1296) 
C8H16O2

>  <EXACT MASS>  (1296) 
144.115029752

>  <MW>  (1296) 
144

>  <ID>  (1296) 
JP010031

>  <CONTRIBUTOR>  (1296) 
University of Tokyo Team, {Faculty of Engineering, University of Tokyo

>  <COMMENT>  (1296) 
SMILES=CC(=O)CCCC(C)(C)O
InChI=InChI=1S/C8H16O2/c1-7(9)5-4-6-8(2,3)10/h10H,4-6H2,1-3H3
computed SMILES=O=C(C)CCCC(O)(C)C
accession=JP010031
date=2016.01.19 (Created 2008.10.21, modified 2011.05.06)
author=KURARAY CO., LTD.
license=CC BY-NC-SA
exact mass=144.11503
ionization energy=70 eV
ion type=[M]+*
computed spectral entropy=2.497585801450571
computed normalized entropy=0.7143087087742638
SPLASH=splash10-0a4i-9100000000-23ccde11e2779895c693
submitter=submitter = University of Tokyo Team (Faculty of Engineering, University of Tokyo)
MoNA Rating=3.75

>  <NUM PEAKS>  (1296) 
33

>  <MASS SPECTRAL PEAKS>  (1296) 
27 5.8
29 3.2
31 12.3
39 0.55
41 17.9
42 4.1
43 74.8
44 0.2
45 3.2
53 2.1
55 14.7
56 1.62
57 1.8
58 78.2
59 99.99
60 0.44
67 2.9
68 2.3
69 15.2
71 9.09
72 4.2
83 7.4
85 3.4
86 0.55
93 2.7
108 10.5
109 4.1
111 2.23
112 1.7
116 23.6
117 1.5
126 0.58
129 7.1

>  <PREDICTED SPECTRUM>  (1296) 
27 44
29 20
31 124
39 93
40 34
41 263
42 120
43 781
44 102
45 39
51 46
52 13
53 119
54 38
55 187
56 80
57 140
58 310
59 999
60 192
65 35
66 10
67 193
68 298
69 348
70 103
71 381
72 122
73 52
74 19
77 39
78 7
79 99
80 6
81 66
82 63
83 89
84 51
85 81
86 151
87 21
93 192
97 48
109 59
111 239
112 60
126 79
127 1
129 139
130 3

$$$$

     RDKit          2D

 10  9  0  0  0  0  0  0  0  0999 V2000
   -0.6495    4.8750    0.0000 C   0  0  0  0  0  0  0  0  0  0  0  0
   -5.8457    3.3750    0.0000 C   0  0  0  0  0  0  0  0  0  0  0  0
   -4.5466    5.6250    0.0000 C   0  0  0  0  0  0  0  0  0  0  0  0
   -1.9486    2.6250    0.0000 C   0  0  0  0  0  0  0  0  0  0  0  0
    0.6495    2.6250    0.0000 C   0  0  0  0  0  0  0  0  0  0  0  0
   -0.6495    3.3750    0.0000 C   0  0  0  0  0  0  0  0  0  0  0  0
   -3.2476    3.3750    0.0000 C   0  0  0  0  0  0  0  0  0  0  0  0
    1.9486    3.3750    0.0000 O   0  0  0  0  0  0  0  0  0  0  0  0
   -4.5466    2.6250    0.0000 O   0  0  0  0  0  0  0  0  0  0  0  0
   -3.2476    4.8750    0.0000 O   0  0  0  0  0  0  0  0  0  0  0  0
  6  1  1  0
  4  6  2  0
  6  5  1  0
  7  4  1  0
  8  5  2  0
  9  2  1  0
  9  7  1  0
 10  3  1  0
 10  7  1  0
M  END
>  <NAME>  (1297) 
4,4-DIMETHOXY-2-METHYL-2-BUTENAL

>  <SYNONYMS>  (1297) 


>  <SPECTRUM TYPE>  (1297) 
MS1

>  <INSTRUMENT TYPE>  (1297) 
EI-B

>  <INSTRUMENT>  (1297) 
JEOL JMS-D-300

>  <ION MODE>  (1297) 
P

>  <INCHIKEY>  (1297) 
UKYNGIDUKUFOQS-GQCTYLIASA-N

>  <FORMULA>  (1297) 
C7H12O3

>  <EXACT MASS>  (1297) 
144.078644244

>  <MW>  (1297) 
144

>  <ID>  (1297) 
JP010030

>  <CONTRIBUTOR>  (1297) 
University of Tokyo Team, {Faculty of Engineering, University of Tokyo

>  <COMMENT>  (1297) 
SMILES=O=CC(C)=CC(OC)OC
InChI=InChI=1S/C7H12O3/c1-6(5-8)4-7(9-2)10-3/h4-5,7H,1-3H3/b6-4+
computed SMILES=O=CC(=CC(OC)OC)C
accession=JP010030
date=2016.01.19 (Created 2008.10.21, modified 2011.05.06)
author=KURARAY CO., LTD.
license=CC BY-NC-SA
exact mass=144.07864
ionization energy=70 eV
ion type=[M]+*
computed spectral entropy=3.1626884520448666
computed normalized entropy=0.7856924549783288
SPLASH=splash10-03y1-9400000000-38ac41659ac5a40f1a54
submitter=submitter = University of Tokyo Team (Faculty of Engineering, University of Tokyo)
MoNA Rating=3.75

>  <NUM PEAKS>  (1297) 
56

>  <MASS SPECTRAL PEAKS>  (1297) 
26 1.6
27 13
28 25.3
29 2.14
30 1.8
31 6.8
32 6.2
33 0.25
37 1.4
38 3.3
39 28.2
40 0.45
41 27.3
42 6.6
43 6.4
44 0.14
45 60.1
46 1.6
47 11.7
50 0.21
51 3.8
52 1.6
53 29.5
54 0.52
55 35.7
56 6.2
57 3.2
58 0.31
59 16.8
67 1.9
68 3.1
69 5.45
70 7.1
71 2.6
73 3.2
75 6.77
76 3.4
81 13.9
82 3.1
83 1.12
84 27.6
85 29.6
86 1.9
97 1.92
98 5.9
99 2.1
101 1.8
112 0.59
113 99.99
114 9.5
115 67.5
116 0.82
129 8
133 1
143 2
144 2.4

>  <PREDICTED SPECTRUM>  (1297) 
14 21
15 95
25 24
26 102
27 308
28 85
29 342
30 27
31 283
32 34
33 86
34 3
37 78
38 133
39 428
40 190
41 428
42 199
43 382
44 128
45 517
46 96
47 257
48 29
49 46
50 53
51 128
52 97
53 294
54 120
55 330
56 99
57 96
58 157
59 360
60 38
61 52
65 100
66 28
67 177
68 91
69 326
70 154
71 408
72 51
73 95
75 220
76 77
81 160
82 65
83 302
84 134
85 343
86 149
87 54
95 27
97 106
98 101
99 64
100 34
101 34
111 28
113 999
114 298
115 578
116 98
117 15
129 119
130 16
143 123
144 112
145 14

$$$$

     RDKit          2D

  9  9  0  0  0  0  0  0  0  0999 V2000
    3.8981   -0.7504    0.0000 C   0  0  0  0  0  0  0  0  0  0  0  0
   -0.0000    1.5000    0.0000 C   0  0  0  0  0  0  0  0  0  0  0  0
   -1.3000    0.7500    0.0000 C   0  0  0  0  0  0  0  0  0  0  0  0
    1.3000    0.7500    0.0000 C   0  0  0  0  0  0  0  0  0  0  0  0
   -1.3000   -0.7500    0.0000 C   0  0  0  0  0  0  0  0  0  0  0  0
    1.3000   -0.7500    0.0000 C   0  0  0  0  0  0  0  0  0  0  0  0
   -2.5989   -1.5002    0.0000 Cl  0  0  0  0  0  0  0  0  0  0  0  0
   -0.0000   -1.5000    0.0000 N   0  0  0  0  0  0  0  0  0  0  0  0
    2.5989   -1.5002    0.0000 O   0  0  0  0  0  0  0  0  0  0  0  0
  3  2  2  0
  4  2  1  0
  5  3  1  0
  6  4  2  0
  7  5  1  0
  8  5  2  0
  8  6  1  0
  9  1  1  0
  9  6  1  0
M  END
>  <NAME>  (1298) 
2-CHLORO-6-METHOXYPYRIDINE

>  <SYNONYMS>  (1298) 


>  <SPECTRUM TYPE>  (1298) 
MS1

>  <INSTRUMENT TYPE>  (1298) 
EI-B

>  <INSTRUMENT>  (1298) 
JEOL JMS-D-300

>  <ION MODE>  (1298) 
P

>  <INCHIKEY>  (1298) 
VAVGOGHLNAJECD-UHFFFAOYSA-N

>  <FORMULA>  (1298) 
C6H6ClNO

>  <EXACT MASS>  (1298) 
143.013791492

>  <MW>  (1298) 
143

>  <ID>  (1298) 
JP010029

>  <CONTRIBUTOR>  (1298) 
University of Tokyo Team, {Faculty of Engineering, University of Tokyo

>  <COMMENT>  (1298) 
SMILES=COc(c1)nc(Cl)cc1
InChI=InChI=1S/C6H6ClNO/c1-9-6-4-2-3-5(7)8-6/h2-4H,1H3
computed SMILES=ClC=1N=C(OC)C=CC1
accession=JP010029
date=2016.01.19 (Created 2008.10.21, modified 2011.05.06)
author=KURARAY CO., LTD.
license=CC BY-NC-SA
exact mass=143.01379
ionization energy=70 eV
ion type=[M]+*
computed spectral entropy=2.558644737095328
computed normalized entropy=0.6845561535399853
SPLASH=splash10-0006-3900000000-7dd8a2b24ac6dd63d2dc
submitter=submitter = University of Tokyo Team (Faculty of Engineering, University of Tokyo)
MoNA Rating=3.75

>  <NUM PEAKS>  (1298) 
42

>  <MASS SPECTRAL PEAKS>  (1298) 
26 1
28 2.3
37 2.3
38 0.76
39 16.1
49 1.4
50 4.3
51 0.45
52 2.1
53 2.1
63 1.3
64 0.54
65 5.8
66 1.2
73 1.4
75 0.17
76 9.9
77 4.3
78 46
79 0.4
80 1.4
85 2
86 2.5
93 0.92
100 2.8
102 1.1
106 3
108 0.78
109 1
112 8.7
113 55.2
114 2.8
115 19.6
116 8.5
138 1.7
139 0.19
140 1.3
142 99.99
143 75.9
144 3.88
145 25.2
146 1.8

>  <PREDICTED SPECTRUM>  (1298) 
14 46
15 133
16 22
17 15
25 30
26 137
27 192
28 96
29 100
30 69
31 55
35 61
36 116
37 180
38 253
39 284
40 142
41 66
42 66
43 7
44 19
47 53
48 7
49 212
50 348
51 463
52 371
53 301
54 177
55 42
57 19
60 53
61 173
62 258
63 289
64 330
65 242
66 159
67 149
68 68
72 149
73 292
74 160
75 254
76 258
77 207
78 567
79 338
80 329
81 135
82 25
84 18
85 118
86 151
87 189
88 119
89 72
90 155
91 43
92 118
93 140
94 21
98 15
99 202
100 186
101 160
102 116
103 59
106 154
107 157
108 456
109 127
112 157
113 684
114 576
115 441
116 351
117 69
127 51
128 56
130 24
140 23
141 7
142 952
143 999
144 536
145 547
146 174

$$$$

     RDKit          2D

 10  9  0  0  0  0  0  0  0  0999 V2000
   -5.3469    4.4130    0.0000 C   0  0  0  0  0  0  0  0  0  0  0  0
   -4.0478    2.1630    0.0000 C   0  0  0  0  0  0  0  0  0  0  0  0
    0.3983    2.3639    0.0000 C   0  0  0  0  0  0  0  0  0  0  0  0
    2.4474    2.9130    0.0000 C   0  0  0  0  0  0  0  0  0  0  0  0
   -1.4498    3.6630    0.0000 C   0  0  0  0  0  0  0  0  0  0  0  0
   -2.7488    4.4130    0.0000 C   0  0  0  0  0  0  0  0  0  0  0  0
   -0.1507    4.4130    0.0000 C   0  0  0  0  0  0  0  0  0  0  0  0
   -4.0478    3.6630    0.0000 C   0  0  0  0  0  0  0  0  0  0  0  0
    1.1483    3.6630    0.0000 C   0  0  0  0  0  0  0  0  0  0  0  0
    1.8983    4.9620    0.0000 O   0  0  0  0  0  0  0  0  0  0  0  0
  6  5  1  0
  7  5  1  0
  8  1  1  0
  8  2  1  0
  8  6  2  0
  9  3  1  0
  9  4  1  0
  9  7  1  0
 10  9  1  0
M  END
>  <NAME>  (1299) 
2,6-DIMETHYL-5-HEPTEN-2-OL

>  <SYNONYMS>  (1299) 


>  <SPECTRUM TYPE>  (1299) 
MS1

>  <INSTRUMENT TYPE>  (1299) 
EI-B

>  <INSTRUMENT>  (1299) 
JEOL JMS-D-300

>  <ION MODE>  (1299) 
P

>  <INCHIKEY>  (1299) 
URIIVOSFQJXLPT-UHFFFAOYSA-N

>  <FORMULA>  (1299) 
C9H18O

>  <EXACT MASS>  (1299) 
142.135765196

>  <MW>  (1299) 
142

>  <ID>  (1299) 
JP010028

>  <CONTRIBUTOR>  (1299) 
University of Tokyo Team, {Faculty of Engineering, University of Tokyo

>  <COMMENT>  (1299) 
SMILES=CC(C)=CCCC(C)(C)O
InChI=InChI=1S/C9H18O/c1-8(2)6-5-7-9(3,4)10/h6,10H,5,7H2,1-4H3
computed SMILES=OC(C)(C)CCC=C(C)C
accession=JP010028
ionization energy=70 eV
ion type=[M]+*
date=2016.01.19 (Created 2008.10.21, modified 2011.05.06)
author=KURARAY CO., LTD.
license=CC BY-NC-SA
exact mass=142.13577
computed spectral entropy=2.6184555402542182
computed normalized entropy=0.7251495613027548
SPLASH=splash10-0a4l-9200000000-00bc6f557f44acf604a6
submitter=submitter = University of Tokyo Team (Faculty of Engineering, University of Tokyo)
MoNA Rating=3.75

>  <NUM PEAKS>  (1299) 
37

>  <MASS SPECTRAL PEAKS>  (1299) 
27 13.1
28 2.5
29 10.2
31 1.4
39 15.4
40 3.3
41 59.8
42 0.4
43 42.6
44 1.1
45 1.3
51 0.14
53 6.9
54 1.1
55 16.9
56 1.38
57 3.4
58 2.8
59 99.99
60 0.32
67 21.1
68 16.5
69 56.7
70 0.35
71 6
72 1
79 1
81 0.72
82 2.6
83 1.9
84 1.7
95 0.43
109 77.4
110 6.5
124 33.8
125 0.33
127 1.7

>  <PREDICTED SPECTRUM>  (1299) 
27 180
28 6
29 164
31 191
38 12
39 253
40 129
41 615
42 164
43 599
44 25
50 78
51 130
52 88
53 287
54 141
55 406
56 298
57 148
58 154
59 999
60 167
62 26
63 28
65 78
66 99
67 425
68 373
69 758
70 161
71 92
72 10
73 24
77 141
78 20
79 130
80 96
81 385
82 295
83 149
84 372
85 29
91 105
92 44
93 204
95 25
99 14
107 83
108 4
109 836
110 301
111 1
124 500
125 162
127 118
142 13

$$$$

     RDKit          2D

 10 10  0  0  0  0  0  0  0  0999 V2000
    1.0567   -2.3735    0.0000 C   0  0  0  0  0  0  0  0  0  0  0  0
    2.5838   -0.2716    0.0000 C   0  0  0  0  0  0  0  0  0  0  0  0
   -3.4230    1.7537    0.0000 C   0  0  0  0  0  0  0  0  0  0  0  0
   -3.4230   -0.2537    0.0000 C   0  0  0  0  0  0  0  0  0  0  0  0
    0.0000    1.5000    0.0000 C   0  0  0  0  0  0  0  0  0  0  0  0
    1.2135   -0.8817    0.0000 C   0  0  0  0  0  0  0  0  0  0  0  0
    0.0000    0.0000    0.0000 C   0  0  0  0  0  0  0  0  0  0  0  0
   -2.3083    0.7500    0.0000 C   0  0  0  0  0  0  0  0  0  0  0  0
   -1.4266    1.9635    0.0000 O   0  0  0  0  0  0  0  0  0  0  0  0
   -1.4266   -0.4635    0.0000 O   0  0  0  0  0  0  0  0  0  0  0  0
  6  1  2  0
  6  2  1  0
  7  5  1  0
  7  6  1  0
  8  3  1  0
  8  4  1  0
  9  5  1  0
  9  8  1  0
 10  7  1  0
 10  8  1  0
M  END
>  <NAME>  (1300) 
2,2-DIMETHYL-4-ISOPROPENYL-1,3-DIOXOLANE

>  <SYNONYMS>  (1300) 


>  <SPECTRUM TYPE>  (1300) 
MS1

>  <INSTRUMENT TYPE>  (1300) 
EI-B

>  <INSTRUMENT>  (1300) 
JEOL JMS-D-300

>  <ION MODE>  (1300) 
P

>  <INCHIKEY>  (1300) 
WACAKSJDGYQSKE-UHFFFAOYSA-N

>  <FORMULA>  (1300) 
C8H14O2

>  <EXACT MASS>  (1300) 
142.099379688

>  <MW>  (1300) 
142

>  <ID>  (1300) 
JP010027

>  <CONTRIBUTOR>  (1300) 
University of Tokyo Team, {Faculty of Engineering, University of Tokyo

>  <COMMENT>  (1300) 
SMILES=CC(=C)C(C1)OC(C)(C)O1
InChI=InChI=1S/C8H14O2/c1-6(2)7-5-9-8(3,4)10-7/h7H,1,5H2,2-4H3
computed SMILES=O1CC(OC1(C)C)C(=C)C
accession=JP010027
date=2016.01.19 (Created 2008.10.21, modified 2011.05.06)
author=KURARAY CO., LTD.
license=CC BY-NC-SA
exact mass=142.09938
ionization energy=70 eV
ion type=[M]+*
computed spectral entropy=2.5590761839604084
computed normalized entropy=0.7452200697247757
SPLASH=splash10-0006-9200000000-ec5e178fcfaed767e701
submitter=submitter = University of Tokyo Team (Faculty of Engineering, University of Tokyo)
MoNA Rating=3.75

>  <NUM PEAKS>  (1300) 
31

>  <MASS SPECTRAL PEAKS>  (1300) 
27 7.1
29 7.5
31 2.7
39 1.51
40 3.6
41 19.5
42 27.7
43 99.99
44 4.8
53 4.1
54 1.9
55 0.93
56 4.3
57 3.9
58 3.9
59 1.33
61 1.9
67 5.5
69 7.4
70 0.37
71 1.9
72 63.2
73 4
83 0.92
84 8.8
85 20
97 10
101 0.31
112 17.4
127 62.7
128 5.2

>  <PREDICTED SPECTRUM>  (1300) 
14 42
15 100
16 11
17 4
18 50
25 18
26 91
27 273
28 168
29 235
30 136
31 105
37 38
38 78
39 299
40 143
41 409
42 317
43 999
44 243
45 86
50 33
51 76
52 95
53 135
54 161
55 286
56 179
57 182
58 105
59 187
60 15
61 80
65 1
66 27
67 289
68 115
69 168
70 71
71 240
72 397
73 209
83 126
84 241
85 325
86 43
95 1
97 116
98 7
100 65
101 88
112 22
113 32
127 758
128 190
142 17

$$$$

     RDKit          2D

 10 10  0  0  0  0  0  0  0  0999 V2000
    3.8981    0.7504    0.0000 C   0  0  0  0  0  0  0  0  0  0  0  0
   -2.5989   -1.5002    0.0000 C   0  0  0  0  0  0  0  0  0  0  0  0
   -1.3000    0.7500    0.0000 C   0  0  0  0  0  0  0  0  0  0  0  0
   -0.0000   -1.5000    0.0000 C   0  0  0  0  0  0  0  0  0  0  0  0
    0.0000    1.5000    0.0000 C   0  0  0  0  0  0  0  0  0  0  0  0
    1.3000   -0.7500    0.0000 C   0  0  0  0  0  0  0  0  0  0  0  0
    2.5989    1.5002    0.0000 C   0  0  0  0  0  0  0  0  0  0  0  0
   -1.3000   -0.7500    0.0000 N   0  0  0  0  0  0  0  0  0  0  0  0
    1.3000    0.7500    0.0000 N   0  0  0  0  0  0  0  0  0  0  0  0
    2.5987    3.0002    0.0000 O   0  0  0  0  0  0  0  0  0  0  0  0
  5  3  1  0
  6  4  1  0
  7  1  1  0
  8  2  1  0
  8  3  1  0
  8  4  1  0
  9  5  1  0
  9  6  1  0
  9  7  1  0
 10  7  2  0
M  END
>  <NAME>  (1301) 
1-ACETYL-4-METHYLPIPERAZINE

>  <SYNONYMS>  (1301) 


>  <SPECTRUM TYPE>  (1301) 
MS1

>  <INSTRUMENT TYPE>  (1301) 
EI-B

>  <INSTRUMENT>  (1301) 
JEOL JMS-D-300

>  <ION MODE>  (1301) 
P

>  <INCHIKEY>  (1301) 
YSDBJKNOEWSFGA-UHFFFAOYSA-N

>  <FORMULA>  (1301) 
C7H14N2O

>  <EXACT MASS>  (1301) 
142.110613068

>  <MW>  (1301) 
142

>  <ID>  (1301) 
JP010026

>  <CONTRIBUTOR>  (1301) 
University of Tokyo Team, {Faculty of Engineering, University of Tokyo

>  <COMMENT>  (1301) 
SMILES=CN(C1)CCN(C1)C(C)=O
InChI=InChI=1S/C7H14N2O/c1-7(10)9-5-3-8(2)4-6-9/h3-6H2,1-2H3
computed SMILES=O=C(N1CCN(C)CC1)C
accession=JP010026
date=2016.01.19 (Created 2008.10.21, modified 2011.05.06)
author=KURARAY CO., LTD.
license=CC BY-NC-SA
exact mass=142.11061
ionization energy=70 eV
ion type=[M]+*
computed spectral entropy=2.5756587710601964
computed normalized entropy=0.7572800052555254
SPLASH=splash10-05fu-9000000000-606202821b41b38f0585
submitter=submitter = University of Tokyo Team (Faculty of Engineering, University of Tokyo)
MoNA Rating=3.75

>  <NUM PEAKS>  (1301) 
30

>  <MASS SPECTRAL PEAKS>  (1301) 
27 4.7
28 28.9
29 5.2
30 0.63
32 5.3
41 5.5
42 38.3
43 8.8
44 18.4
54 3.4
55 5
56 6.44
57 29.7
58 87.5
59 2.7
69 0.14
70 99.99
71 21.3
72 5.2
83 2.55
84 3.6
85 3.3
97 1.4
98 0.45
99 59.8
100 8
127 1.4
141 0.16
142 31.3
143 1.9

>  <PREDICTED SPECTRUM>  (1301) 
14 36
15 168
16 21
17 5
18 14
25 12
26 81
27 163
28 186
29 171
30 215
31 43
32 5
36 8
37 18
38 50
39 142
40 130
41 234
42 750
43 899
44 425
45 101
51 9
52 95
53 88
54 186
55 190
56 771
57 504
58 493
59 63
60 18
67 10
68 78
69 44
70 999
71 375
72 257
73 27
74 16
80 36
81 29
82 172
83 489
84 182
85 234
86 120
87 42
97 113
98 114
99 413
100 137
101 4
111 5
112 47
113 122
114 75
125 65
127 128
141 71
142 348
143 98

$$$$

     RDKit          2D

 10  9  0  0  0  0  0  0  0  0999 V2000
    2.2733    5.0625    0.0000 C   0  0  0  0  0  0  0  0  0  0  0  0
   -5.5209    5.0625    0.0000 C   0  0  0  0  0  0  0  0  0  0  0  0
   -0.3248    5.0625    0.0000 C   0  0  0  0  0  0  0  0  0  0  0  0
   -1.6238    4.3125    0.0000 C   0  0  0  0  0  0  0  0  0  0  0  0
    0.9743    2.8125    0.0000 C   0  0  0  0  0  0  0  0  0  0  0  0
    0.9743    4.3125    0.0000 C   0  0  0  0  0  0  0  0  0  0  0  0
   -4.2219    4.3125    0.0000 C   0  0  0  0  0  0  0  0  0  0  0  0
    2.2733    2.0625    0.0000 O   0  0  0  0  0  0  0  0  0  0  0  0
   -4.2219    2.8125    0.0000 O   0  0  0  0  0  0  0  0  0  0  0  0
   -2.9228    5.0625    0.0000 O   0  0  0  0  0  0  0  0  0  0  0  0
  4  3  1  0
  6  1  1  0
  3  6  2  0
  6  5  1  0
  7  2  1  0
  8  5  2  0
  9  7  2  0
 10  4  1  0
 10  7  1  0
M  END
>  <NAME>  (1302) 
3-FORMYL-2-BUTEN-1-YL ACETATE

>  <SYNONYMS>  (1302) 


>  <SPECTRUM TYPE>  (1302) 
MS1

>  <INSTRUMENT TYPE>  (1302) 
EI-B

>  <INSTRUMENT>  (1302) 
JEOL JMS-D-300

>  <ION MODE>  (1302) 
P

>  <INCHIKEY>  (1302) 
LPDDKAJRWGPGSI-UTCJRWHESA-N

>  <FORMULA>  (1302) 
C7H10O3

>  <EXACT MASS>  (1302) 
142.06299417999998

>  <MW>  (1302) 
142

>  <ID>  (1302) 
JP010025

>  <CONTRIBUTOR>  (1302) 
University of Tokyo Team, {Faculty of Engineering, University of Tokyo

>  <COMMENT>  (1302) 
SMILES=O=CC(C)=CCOC(C)=O
InChI=InChI=1S/C7H10O3/c1-6(5-8)3-4-10-7(2)9/h3,5H,4H2,1-2H3/b6-3-
computed SMILES=O=CC(=CCOC(=O)C)C
accession=JP010025
date=2016.01.19 (Created 2008.10.21, modified 2011.05.06)
author=KURARAY CO., LTD.
license=CC BY-NC-SA
exact mass=142.06299
ionization energy=70 eV
ion type=[M]+*
computed spectral entropy=2.148869088069289
computed normalized entropy=0.6761588074906908
SPLASH=splash10-0f6x-9100000000-c3395ed7d6947fc9f26f
submitter=submitter = University of Tokyo Team (Faculty of Engineering, University of Tokyo)
MoNA Rating=3.75

>  <NUM PEAKS>  (1302) 
24

>  <MASS SPECTRAL PEAKS>  (1302) 
27 9.6
29 9.4
38 1
39 1.46
41 5.2
42 2.5
43 99.99
44 0.29
51 1.6
53 12.2
54 11.6
55 0.91
57 1.6
61 1.4
69 1.7
71 4.92
72 2.3
81 6.8
82 42.9
83 2.42
84 1.2
99 3.1
100 39.7
101 2.3

>  <PREDICTED SPECTRUM>  (1302) 
14 69
15 145
16 24
18 4
25 24
26 130
27 221
28 77
29 188
30 28
31 9
37 33
38 86
39 273
40 144
41 211
42 180
43 999
44 196
45 30
49 8
50 105
51 134
52 95
53 222
54 233
55 113
56 26
57 79
61 37
63 1
65 12
66 13
67 241
68 33
69 74
70 51
71 161
72 77
80 38
81 203
82 673
83 289
84 75
85 157
98 20
99 310
100 544
101 42
142 6

$$$$

     RDKit          2D

 10  9  0  0  0  0  0  0  0  0999 V2000
   -5.3469    4.4130    0.0000 C   0  0  0  0  0  0  0  0  0  0  0  0
   -4.0478    2.1630    0.0000 C   0  0  0  0  0  0  0  0  0  0  0  0
    0.3983    2.3639    0.0000 C   0  0  0  0  0  0  0  0  0  0  0  0
    2.4474    2.9130    0.0000 C   0  0  0  0  0  0  0  0  0  0  0  0
    1.8983    4.9620    0.0000 C   0  0  0  0  0  0  0  0  0  0  0  0
   -2.7488    4.4130    0.0000 C   0  0  0  0  0  0  0  0  0  0  0  0
   -1.4498    3.6630    0.0000 C   0  0  0  0  0  0  0  0  0  0  0  0
   -4.0478    3.6630    0.0000 C   0  0  0  0  0  0  0  0  0  0  0  0
    1.1483    3.6630    0.0000 C   0  0  0  0  0  0  0  0  0  0  0  0
   -0.1507    4.4130    0.0000 N   0  0  0  0  0  0  0  0  0  0  0  0
  7  6  1  0
  8  1  1  0
  8  2  1  0
  8  6  2  0
  9  3  1  0
  9  4  1  0
  9  5  1  0
 10  7  1  0
 10  9  1  0
M  END
>  <NAME>  (1303) 
TERT-BUTYL(3-METHYL-2-BUTENYL)AMINE

>  <SYNONYMS>  (1303) 


>  <SPECTRUM TYPE>  (1303) 
MS1

>  <INSTRUMENT TYPE>  (1303) 
EI-B

>  <INSTRUMENT>  (1303) 
JEOL JMS-D-300

>  <ION MODE>  (1303) 
P

>  <INCHIKEY>  (1303) 
POFOHSVASPTSTC-UHFFFAOYSA-N

>  <FORMULA>  (1303) 
C9H19N

>  <EXACT MASS>  (1303) 
141.151749608

>  <MW>  (1303) 
141

>  <ID>  (1303) 
JP010024

>  <CONTRIBUTOR>  (1303) 
University of Tokyo Team, {Faculty of Engineering, University of Tokyo

>  <COMMENT>  (1303) 
SMILES=CC(C)=CCNC(C)(C)C
InChI=InChI=1S/C9H19N/c1-8(2)6-7-10-9(3,4)5/h6,10H,7H2,1-5H3
computed SMILES=C(=C(C)C)CNC(C)(C)C
accession=JP010024
date=2016.01.19 (Created 2008.10.21, modified 2011.05.06)
author=KURARAY CO., LTD.
license=CC BY-NC-SA
exact mass=141.15175
ionization energy=70 eV
ion type=[M]+*
computed spectral entropy=2.3125170371474058
computed normalized entropy=0.6939901287828868
SPLASH=splash10-0a6r-9200000000-ca5230267d5f87e82a50
submitter=submitter = University of Tokyo Team (Faculty of Engineering, University of Tokyo)
MoNA Rating=3.75

>  <NUM PEAKS>  (1303) 
28

>  <MASS SPECTRAL PEAKS>  (1303) 
27 3.4
28 11.4
29 5.2
30 0.51
32 1.8
39 5.2
41 24.1
42 0.65
43 2.3
53 2.7
55 1.8
56 0.17
57 8
58 99.99
59 4.1
67 0.26
68 2.7
69 33.8
70 14.5
71 0.1
82 1.2
84 9.7
85 1
110 0.11
126 41.4
127 3.4
141 11.2
142 1.2

>  <PREDICTED SPECTRUM>  (1303) 
14 4
15 89
26 5
27 163
28 147
29 178
30 288
38 20
39 281
40 128
41 541
42 338
43 128
50 11
51 63
52 33
53 195
54 110
55 230
56 250
57 272
58 999
59 43
65 80
67 204
68 182
69 438
70 225
71 43
72 21
81 7
82 100
84 266
86 42
92 42
96 7
126 659
127 192
141 265
142 74

$$$$

     RDKit          2D

 10 10  0  0  0  0  0  0  0  0999 V2000
    6.1262    0.5406    0.0000 C   0  0  0  0  0  0  0  0  0  0  0  0
    6.1262   -0.9594    0.0000 C   0  0  0  0  0  0  0  0  0  0  0  0
    4.8262    1.2906    0.0000 C   0  0  0  0  0  0  0  0  0  0  0  0
    4.8262   -1.7094    0.0000 C   0  0  0  0  0  0  0  0  0  0  0  0
    3.5262    0.5406    0.0000 C   0  0  0  0  0  0  0  0  0  0  0  0
   -0.3708   -1.7100    0.0000 C   0  0  0  0  0  0  0  0  0  0  0  0
    0.9281   -0.9598    0.0000 C   0  0  0  0  0  0  0  0  0  0  0  0
    3.5262   -0.9594    0.0000 C   0  0  0  0  0  0  0  0  0  0  0  0
   -1.6700   -0.9602    0.0000 O   0  0  0  0  0  0  0  0  0  0  0  0
    2.2272   -1.7096    0.0000 O   0  0  0  0  0  0  0  0  0  0  0  0
  2  1  2  0
  3  1  1  0
  4  2  1  0
  5  3  2  0
  7  6  1  0
  8  4  2  0
  8  5  1  0
  9  6  1  0
 10  7  1  0
 10  8  1  0
M  END
>  <NAME>  (1304) 
2-PHENOXYETHANOL

>  <SYNONYMS>  (1304) 


>  <SPECTRUM TYPE>  (1304) 
MS1

>  <INSTRUMENT TYPE>  (1304) 
EI-B

>  <INSTRUMENT>  (1304) 
JEOL JMS-D-300

>  <ION MODE>  (1304) 
P

>  <INCHIKEY>  (1304) 
QCDWFXQBSFUVSP-UHFFFAOYSA-N

>  <FORMULA>  (1304) 
C8H10O2

>  <EXACT MASS>  (1304) 
138.06807956

>  <MW>  (1304) 
138

>  <ID>  (1304) 
JP010023

>  <CONTRIBUTOR>  (1304) 
University of Tokyo Team, {Faculty of Engineering, University of Tokyo

>  <COMMENT>  (1304) 
SMILES=OCCOc(c1)cccc1
InChI=InChI=1S/C8H10O2/c9-6-7-10-8-4-2-1-3-5-8/h1-5,9H,6-7H2
computed SMILES=OCCOC=1C=CC=CC1
accession=JP010023
date=2016.01.19 (Created 2008.10.21, modified 2011.05.06)
author=KURARAY CO., LTD.
license=CC BY-NC-SA
exact mass=138.06808
ionization energy=70 eV
ion type=[M]+*
computed spectral entropy=1.8228311536027657
computed normalized entropy=0.6433794184355632
SPLASH=splash10-0006-9000000000-480278f55ce8ffc42edb
submitter=submitter = University of Tokyo Team (Faculty of Engineering, University of Tokyo)
MoNA Rating=3.75

>  <NUM PEAKS>  (1304) 
17

>  <MASS SPECTRAL PEAKS>  (1304) 
27 2.5
39 5.9
45 8.1
50 0.17
51 8.1
55 2
65 5.5
66 0.88
77 25.3
78 2.5
79 4.4
87 0.2
94 99.99
95 16.4
107 7.5
138 3.55
139 2.7

>  <PREDICTED SPECTRUM>  (1304) 
14 24
15 76
16 8
17 13
18 20
19 35
25 11
26 84
27 234
28 86
29 201
30 2
31 163
32 42
33 0
34 18
36 9
37 64
38 140
39 353
40 147
41 100
42 91
43 244
44 191
45 301
46 54
47 43
49 66
50 181
51 346
52 83
53 71
54 3
55 110
56 20
57 42
61 81
62 105
63 223
64 149
65 410
66 266
67 45
73 5
74 119
75 115
76 128
77 483
78 194
79 198
89 14
90 25
91 70
92 140
93 172
94 999
95 382
96 102
107 54
108 61
109 11
110 65
138 512
139 161
140 40

$$$$

     RDKit          2D

  9 10  0  0  0  0  0  0  0  0999 V2000
   -2.3100   -0.7500    0.0000 C   0  0  0  0  0  0  0  0  0  0  0  0
   -2.3100    0.7500    0.0000 C   0  0  0  0  0  0  0  0  0  0  0  0
   -1.0100   -1.5000    0.0000 C   0  0  0  0  0  0  0  0  0  0  0  0
   -1.0100    1.5000    0.0000 C   0  0  0  0  0  0  0  0  0  0  0  0
    1.7200   -1.2100    0.0000 C   0  0  0  0  0  0  0  0  0  0  0  0
    1.7200    1.2100    0.0000 C   0  0  0  0  0  0  0  0  0  0  0  0
    0.2900   -0.7500    0.0000 C   0  0  0  0  0  0  0  0  0  0  0  0
    0.2900    0.7500    0.0000 C   0  0  0  0  0  0  0  0  0  0  0  0
    2.6000    0.0000    0.0000 S   0  0  0  0  0  0  0  0  0  0  0  0
  2  1  2  0
  3  1  1  0
  4  2  1  0
  7  3  2  0
  7  5  1  0
  8  4  2  0
  8  6  1  0
  8  7  1  0
  9  5  1  0
  9  6  1  0
M  END
>  <NAME>  (1305) 
1,3-DIHYDROBENZO(C)THIOPHENE

>  <SYNONYMS>  (1305) 


>  <SPECTRUM TYPE>  (1305) 
MS1

>  <INSTRUMENT TYPE>  (1305) 
EI-B

>  <INSTRUMENT>  (1305) 
JEOL JMS-D-300

>  <ION MODE>  (1305) 
P

>  <INCHIKEY>  (1305) 
KVRZARWOKBNZMM-UHFFFAOYSA-N

>  <FORMULA>  (1305) 
C8H8S

>  <EXACT MASS>  (1305) 
136.034671256

>  <MW>  (1305) 
136

>  <ID>  (1305) 
JP010022

>  <CONTRIBUTOR>  (1305) 
University of Tokyo Team, {Faculty of Engineering, University of Tokyo

>  <COMMENT>  (1305) 
SMILES=c(c2)cc(C1)c(c2)CS1
InChI=InChI=1S/C8H8S/c1-2-4-8-6-9-5-7(8)3-1/h1-4H,5-6H2
computed SMILES=S1CC=2C=CC=CC2C1
accession=JP010022
date=2016.01.19 (Created 2008.10.21, modified 2011.05.06)
author=KURARAY CO., LTD.
license=CC BY-NC-SA
exact mass=136.03467
ionization energy=70 eV
ion type=[M]+*
computed spectral entropy=1.8691972837654736
computed normalized entropy=0.63482289732988
SPLASH=splash10-000i-2900000000-c78fddbfddf9714d038f
submitter=submitter = University of Tokyo Team (Faculty of Engineering, University of Tokyo)
MoNA Rating=3.75

>  <NUM PEAKS>  (1305) 
19

>  <MASS SPECTRAL PEAKS>  (1305) 
39 4.3
45 2.9
50 2.3
51 0.44
63 4.4
65 2.9
67 10.8
68 0.26
69 1.9
77 2.7
89 4.5
90 0.23
91 19.8
103 1.6
134 8.6
135 99.99
136 70
137 11.6
138 3.3

>  <PREDICTED SPECTRUM>  (1305) 
14 11
15 31
18 17
25 11
26 62
27 125
28 2
29 17
32 72
33 26
34 37
37 97
38 184
39 413
40 122
41 41
44 100
45 468
46 117
47 3
49 34
50 374
51 526
52 242
53 120
54 7
57 72
58 160
59 98
60 46
61 109
62 184
63 314
64 149
65 173
66 62
67 20
69 191
70 26
71 49
73 12
74 181
75 217
76 257
77 568
78 471
79 51
82 35
83 10
85 66
87 79
88 22
89 225
90 147
91 200
92 100
93 10
97 63
101 10
102 298
103 533
104 799
105 215
107 26
108 134
109 166
110 59
121 243
122 67
123 92
133 11
134 203
135 652
136 999
137 365
138 228
139 88

$$$$

     RDKit          2D

  9  8  0  0  0  0  0  0  0  0999 V2000
   -0.9398    5.1969    0.0000 C   0  0  0  0  0  0  0  0  0  0  0  0
   -0.6050    3.2978    0.0000 C   0  0  0  0  0  0  0  0  0  0  0  0
   -3.2031    3.2978    0.0000 C   0  0  0  0  0  0  0  0  0  0  0  0
    0.6941    4.0478    0.0000 C   0  0  0  0  0  0  0  0  0  0  0  0
   -4.5021    4.0478    0.0000 C   0  0  0  0  0  0  0  0  0  0  0  0
   -1.9040    4.0478    0.0000 C   0  0  0  0  0  0  0  0  0  0  0  0
    1.9931    3.2978    0.0000 O   0  0  0  0  0  0  0  0  0  0  0  0
   -5.8011    3.2978    0.0000 O   0  0  0  0  0  0  0  0  0  0  0  0
   -2.8682    5.1969    0.0000 O   0  0  0  0  0  0  0  0  0  0  0  0
  4  2  1  0
  5  3  1  0
  6  1  1  0
  6  2  1  0
  6  3  1  0
  7  4  1  0
  8  5  1  0
  9  6  1  0
M  END
>  <NAME>  (1306) 
3-METHYLPENTANE-1,3,5-TRIOL

>  <SYNONYMS>  (1306) 


>  <SPECTRUM TYPE>  (1306) 
MS1

>  <INSTRUMENT TYPE>  (1306) 
EI-B

>  <INSTRUMENT>  (1306) 
JEOL JMS-D-300

>  <ION MODE>  (1306) 
P

>  <INCHIKEY>  (1306) 
AHHQDHCTHYTBSV-UHFFFAOYSA-N

>  <FORMULA>  (1306) 
C6H14O3

>  <EXACT MASS>  (1306) 
134.09429430799997

>  <MW>  (1306) 
134

>  <ID>  (1306) 
JP010021

>  <CONTRIBUTOR>  (1306) 
University of Tokyo Team, {Faculty of Engineering, University of Tokyo

>  <COMMENT>  (1306) 
SMILES=OCCC(C)(O)CCO
InChI=InChI=1S/C6H14O3/c1-6(9,2-4-7)3-5-8/h7-9H,2-5H2,1H3
computed SMILES=OCCC(O)(C)CCO
accession=JP010021
date=2016.01.19 (Created 2008.10.21, modified 2011.05.06)
author=KURARAY CO., LTD.
license=CC BY-NC-SA
exact mass=134.09429
ionization energy=70 eV
ion type=[M]+*
computed spectral entropy=2.4789851755083285
computed normalized entropy=0.6766598777250662
SPLASH=splash10-000f-9000000000-03ad8de50aca2c39515f
submitter=submitter = University of Tokyo Team (Faculty of Engineering, University of Tokyo)
MoNA Rating=3.75

>  <NUM PEAKS>  (1306) 
39

>  <MASS SPECTRAL PEAKS>  (1306) 
27 3.9
28 1.5
29 6.4
31 1.43
39 4
41 15.9
42 3.6
43 99.99
44 4.8
45 15.5
53 3.7
54 0.13
55 6.9
56 3.2
57 2.5
58 0.29
59 3.2
61 7
67 2.3
68 0.44
69 5.3
70 4.2
71 41.8
72 0.2
73 8.1
79 1.5
81 2.9
83 0.4
86 1.4
89 81.7
90 2.6
101 0.55
112 2.5
113 1.8
119 2.3
140 0.26
141 4.5
142 1.8
157 1.7

>  <PREDICTED SPECTRUM>  (1306) 
14 46
15 101
16 27
17 66
18 116
19 50
25 46
26 148
27 381
28 272
29 393
30 211
31 460
32 95
33 83
34 3
35 8
36 87
37 94
38 160
39 399
40 211
41 640
42 381
43 999
44 381
45 522
46 110
47 222
48 26
49 52
50 62
51 86
52 109
53 312
54 243
55 459
56 278
57 413
58 309
59 413
60 236
61 166
62 68
63 76
64 20
65 76
66 88
67 318
68 334
69 394
70 388
71 612
72 385
73 322
74 125
75 296
76 168
77 153
78 92
80 3
81 106
82 130
83 333
84 157
85 236
86 109
87 213
88 186
89 495
90 113
91 186
92 54
93 17
94 65
96 19
97 206
98 104
99 148
100 51
101 270
102 2
103 41
104 65
105 1
115 27
116 128
117 58
118 13
119 118

$$$$

     RDKit          2D

  8  8  0  0  0  0  0  0  0  0999 V2000
   -1.3146    2.4468    0.0000 C   0  0  0  0  0  0  0  0  0  0  0  0
    0.4981    1.7881    0.0000 C   0  0  0  0  0  0  0  0  0  0  0  0
   -0.8019   -0.4635    0.0000 C   0  0  0  0  0  0  0  0  0  0  0  0
    1.7971    1.0381    0.0000 C   0  0  0  0  0  0  0  0  0  0  0  0
    0.4971   -1.2135    0.0000 C   0  0  0  0  0  0  0  0  0  0  0  0
   -0.8014    1.0373    0.0000 C   0  0  0  0  0  0  0  0  0  0  0  0
   -2.2787    0.7770    0.0000 Cl  0  0  0  0  0  0  0  0  0  0  0  0
    1.7966   -0.4627    0.0000 O   0  0  0  0  0  0  0  0  0  0  0  0
  4  2  1  0
  5  3  1  0
  6  1  1  0
  6  2  1  0
  6  3  1  0
  7  6  1  0
  8  4  1  0
  8  5  1  0
M  END
>  <NAME>  (1307) 
4-CHLORO-4-METHYLPERHYDROPYRAN

>  <SYNONYMS>  (1307) 


>  <SPECTRUM TYPE>  (1307) 
MS1

>  <INSTRUMENT TYPE>  (1307) 
EI-B

>  <INSTRUMENT>  (1307) 
JEOL JMS-D-300

>  <ION MODE>  (1307) 
P

>  <INCHIKEY>  (1307) 
AJALOBPESIDPGW-UHFFFAOYSA-N

>  <FORMULA>  (1307) 
C6H11ClO

>  <EXACT MASS>  (1307) 
134.049842652

>  <MW>  (1307) 
134

>  <ID>  (1307) 
JP010020

>  <CONTRIBUTOR>  (1307) 
University of Tokyo Team, {Faculty of Engineering, University of Tokyo

>  <COMMENT>  (1307) 
SMILES=CC(Cl)(C1)CCOC1
InChI=InChI=1S/C6H11ClO/c1-6(7)2-4-8-5-3-6/h2-5H2,1H3
computed SMILES=ClC1(C)CCOCC1
accession=JP010020
date=2016.01.19 (Created 2008.10.21, modified 2011.05.06)
author=KURARAY CO., LTD.
license=CC BY-NC-SA
exact mass=134.04984
ionization energy=70 eV
ion type=[M]+*
computed spectral entropy=2.9288267252213993
computed normalized entropy=0.7449024953815264
SPLASH=splash10-015d-9000000000-c6316033c02d96948299
submitter=submitter = University of Tokyo Team (Faculty of Engineering, University of Tokyo)
MoNA Rating=3.75

>  <NUM PEAKS>  (1307) 
51

>  <MASS SPECTRAL PEAKS>  (1307) 
26 2.1
27 19.7
28 5.1
29 1.45
30 1.5
31 3.4
36 1.3
38 0.23
39 25.3
40 10.6
41 82.5
42 1.03
43 22.9
44 3.2
45 1.3
49 0.3
50 1.8
51 4.4
52 1.6
53 2.45
54 2.9
55 43.4
56 4
57 0.42
58 1.3
61 1
63 1.6
65 0.21
67 21.8
68 23.4
69 77.1
70 1.17
71 2.3
75 1.3
76 9.5
77 0.12
78 2.5
79 11
81 7.4
83 99.99
84 5.6
89 7.1
91 2.4
97 0.5
98 62.7
99 19.7
104 4
106 0.12
134 14.9
135 1.1
136 4.4

>  <PREDICTED SPECTRUM>  (1307) 
14 5
15 32
25 14
26 157
27 443
28 224
29 346
30 58
32 16
35 60
36 162
37 97
38 205
39 768
40 321
41 937
42 310
43 471
44 123
49 130
50 225
51 371
52 188
53 603
54 390
55 999
56 308
57 410
58 55
59 23
61 75
62 100
63 213
64 50
65 327
66 199
67 904
68 574
69 857
70 439
71 241
72 34
73 21
75 237
76 60
77 191
78 161
79 402
80 124
81 630
82 105
83 778
84 256
85 169
89 37
90 155
91 139
92 70
93 43
94 43
95 19
96 17
97 204
98 550
99 766
100 190
101 149
103 51
105 63
106 17
107 37
119 28
121 11
134 286
135 13
136 200

$$$$

     RDKit          2D

 10 10  0  0  0  0  0  0  0  0999 V2000
   -0.9743   -0.6175    0.0000 C   0  0  0  0  0  0  0  0  0  0  0  0
    2.9228    3.1325    0.0000 C   0  0  0  0  0  0  0  0  0  0  0  0
    1.6233    3.8833    0.0000 C   0  0  0  0  0  0  0  0  0  0  0  0
    2.9233    1.6317    0.0000 C   0  0  0  0  0  0  0  0  0  0  0  0
    0.3243    3.1333    0.0000 C   0  0  0  0  0  0  0  0  0  0  0  0
    1.6243    0.8817    0.0000 C   0  0  0  0  0  0  0  0  0  0  0  0
   -2.2733    1.6325    0.0000 C   0  0  0  0  0  0  0  0  0  0  0  0
   -0.9743    0.8825    0.0000 C   0  0  0  0  0  0  0  0  0  0  0  0
    0.3248    1.6325    0.0000 C   0  0  0  0  0  0  0  0  0  0  0  0
   -3.5724    0.8825    0.0000 O   0  0  0  0  0  0  0  0  0  0  0  0
  3  2  2  0
  4  2  1  0
  5  3  1  0
  6  4  2  0
  8  1  1  0
  8  7  1  0
  9  5  2  0
  9  6  1  0
  9  8  1  0
 10  7  2  0
M  END
>  <NAME>  (1308) 
2-PHENYL-PROPANAL

>  <SYNONYMS>  (1308) 


>  <SPECTRUM TYPE>  (1308) 
MS1

>  <INSTRUMENT TYPE>  (1308) 
EI-B

>  <INSTRUMENT>  (1308) 
JEOL JMS-D-300

>  <ION MODE>  (1308) 
P

>  <INCHIKEY>  (1308) 
IQVAERDLDAZARL-UHFFFAOYSA-N

>  <FORMULA>  (1308) 
C9H10O

>  <EXACT MASS>  (1308) 
134.07316494

>  <MW>  (1308) 
134

>  <ID>  (1308) 
JP010019

>  <CONTRIBUTOR>  (1308) 
University of Tokyo Team, {Faculty of Engineering, University of Tokyo

>  <COMMENT>  (1308) 
SMILES=O=CC(C)c(c1)cccc1
InChI=InChI=1S/C9H10O/c1-8(7-10)9-5-3-2-4-6-9/h2-8H,1H3
computed SMILES=O=CC(C=1C=CC=CC1)C
accession=JP010019
date=2016.01.19 (Created 2008.10.21, modified 2011.05.06)
author=KURARAY CO., LTD.
license=CC BY-NC-SA
exact mass=134.07316
ionization energy=70 eV
ion type=[M]+*
computed spectral entropy=2.229983211506663
computed normalized entropy=0.711206290918271
SPLASH=splash10-0a4i-4900000000-81527d703e7b4bf031c2
submitter=submitter = University of Tokyo Team (Faculty of Engineering, University of Tokyo)
MoNA Rating=3.75

>  <NUM PEAKS>  (1308) 
23

>  <MASS SPECTRAL PEAKS>  (1308) 
27 2.7
28 1.8
39 5.2
50 0.45
51 11.5
52 2.5
63 4.7
65 0.35
74 2.1
75 1.6
77 31.3
78 0.83
79 29.6
80 1.8
89 2.4
91 1.49
102 2.3
103 21.1
104 6.8
105 99.99
107 22.5
134 26.1
135 2.5

>  <PREDICTED SPECTRUM>  (1308) 
17 5
18 9
25 6
26 111
27 302
28 117
29 208
31 40
32 0
37 58
38 135
39 351
40 116
41 186
42 13
43 158
44 34
49 56
50 303
51 472
52 241
53 192
54 17
55 148
57 78
58 47
61 38
62 149
63 277
64 142
65 258
66 86
71 14
74 181
75 129
76 153
77 671
78 419
79 344
80 65
86 42
87 70
88 14
89 233
90 97
91 552
92 126
101 3
102 123
103 242
104 75
105 999
106 425
107 163
115 305
116 165
117 130
119 52
120 5
133 41
134 384
135 112

$$$$

     RDKit          2D

  9  8  0  0  0  0  0  0  0  0999 V2000
   -6.4952    4.5000    0.0000 C   0  0  0  0  0  0  0  0  0  0  0  0
    2.5981    3.7500    0.0000 C   0  0  0  0  0  0  0  0  0  0  0  0
   -5.1962    3.7500    0.0000 C   0  0  0  0  0  0  0  0  0  0  0  0
   -1.2990    4.5000    0.0000 C   0  0  0  0  0  0  0  0  0  0  0  0
   -2.5981    3.7500    0.0000 C   0  0  0  0  0  0  0  0  0  0  0  0
    0.0000    3.7500    0.0000 C   0  0  0  0  0  0  0  0  0  0  0  0
   -0.0000    2.2500    0.0000 O   0  0  0  0  0  0  0  0  0  0  0  0
    1.2990    4.5000    0.0000 O   0  0  0  0  0  0  0  0  0  0  0  0
   -3.8971    4.5000    0.0000 O   0  0  0  0  0  0  0  0  0  0  0  0
  3  1  1  0
  5  4  1  0
  6  4  1  0
  7  6  2  0
  8  2  1  0
  8  6  1  0
  9  3  1  0
  9  5  1  0
M  END
>  <NAME>  (1309) 
3-ETHOXYPROPIONIC ACID METHYL ESTER

>  <SYNONYMS>  (1309) 


>  <SPECTRUM TYPE>  (1309) 
MS1

>  <INSTRUMENT TYPE>  (1309) 
EI-B

>  <INSTRUMENT>  (1309) 
JEOL JMS-D-300

>  <ION MODE>  (1309) 
P

>  <INCHIKEY>  (1309) 
HSDFKDZBJMDHFF-UHFFFAOYSA-N

>  <FORMULA>  (1309) 
C6H12O3

>  <EXACT MASS>  (1309) 
132.07864424399997

>  <MW>  (1309) 
132

>  <ID>  (1309) 
JP010018

>  <CONTRIBUTOR>  (1309) 
University of Tokyo Team, {Faculty of Engineering, University of Tokyo

>  <COMMENT>  (1309) 
SMILES=CCOCCC(=O)OC
InChI=InChI=1S/C6H12O3/c1-3-9-5-4-6(7)8-2/h3-5H2,1-2H3
computed SMILES=O=C(OC)CCOCC
accession=JP010018
date=2016.01.19 (Created 2008.10.21, modified 2011.05.06)
author=KURARAY CO., LTD.
license=CC BY-NC-SA
exact mass=132.07864
ionization energy=70 eV
ion type=[M]+*
computed spectral entropy=1.9954809701175622
computed normalized entropy=0.8030406173559101
SPLASH=splash10-0006-9000000000-c4d7876120daadd89478
submitter=submitter = University of Tokyo Team (Faculty of Engineering, University of Tokyo)
MoNA Rating=3.75

>  <NUM PEAKS>  (1309) 
12

>  <MASS SPECTRAL PEAKS>  (1309) 
27 5.3
29 11.7
31 30.3
43 99.99
44 21.3
45 10
59 53.1
61 0.43
72 43.8
73 5.6
87 11.2
88 10.1

>  <PREDICTED SPECTRUM>  (1309) 
14 26
15 119
19 17
25 4
26 73
27 256
28 139
29 375
30 183
31 416
32 41
33 84
38 12
39 88
40 38
41 328
42 242
43 514
44 191
45 657
46 100
47 49
53 6
55 214
56 86
57 308
58 212
59 999
60 211
61 190
62 59
69 67
70 97
71 192
72 266
73 498
74 417
75 208
85 80
86 49
87 327
88 307
89 88
100 136
101 376
102 152
103 371
104 132
105 51
117 73
132 24

$$$$

     RDKit          2D

  9  8  0  0  0  0  0  0  0  0999 V2000
    1.9486    3.3750    0.0000 C   0  0  0  0  0  0  0  0  0  0  0  0
   -5.8457    3.3750    0.0000 C   0  0  0  0  0  0  0  0  0  0  0  0
   -4.5466    5.6250    0.0000 C   0  0  0  0  0  0  0  0  0  0  0  0
    0.6495    4.1250    0.0000 C   0  0  0  0  0  0  0  0  0  0  0  0
   -3.2476    3.3750    0.0000 C   0  0  0  0  0  0  0  0  0  0  0  0
   -4.5466    4.1250    0.0000 C   0  0  0  0  0  0  0  0  0  0  0  0
   -1.9486    4.1250    0.0000 C   0  0  0  0  0  0  0  0  0  0  0  0
   -1.9486    5.6250    0.0000 O   0  0  0  0  0  0  0  0  0  0  0  0
   -0.6495    3.3750    0.0000 O   0  0  0  0  0  0  0  0  0  0  0  0
  4  1  1  0
  6  2  1  0
  6  3  1  0
  6  5  2  0
  7  5  1  0
  8  7  2  0
  9  4  1  0
  9  7  1  0
M  END
>  <NAME>  (1310) 
ETHYL 3-METHYL-2-BUTENOATE

>  <SYNONYMS>  (1310) 
ETHYL SENECIOLATE

>  <SPECTRUM TYPE>  (1310) 
MS1

>  <INSTRUMENT TYPE>  (1310) 
EI-B

>  <INSTRUMENT>  (1310) 
JEOL JMS-D-300

>  <ION MODE>  (1310) 
P

>  <INCHIKEY>  (1310) 
UTXVCHVLDOLVPC-UHFFFAOYSA-N

>  <FORMULA>  (1310) 
C7H12O2

>  <EXACT MASS>  (1310) 
128.083729624

>  <MW>  (1310) 
128

>  <ID>  (1310) 
JP010017

>  <CONTRIBUTOR>  (1310) 
University of Tokyo Team, {Faculty of Engineering, University of Tokyo

>  <COMMENT>  (1310) 
SMILES=CCOC(=O)C=C(C)C
InChI=InChI=1S/C7H12O2/c1-4-9-7(8)5-6(2)3/h5H,4H2,1-3H3
computed SMILES=O=C(OCC)C=C(C)C
accession=JP010017
date=2016.01.19 (Created 2008.10.21, modified 2011.05.06)
author=KURARAY CO., LTD.
license=CC BY-NC-SA
exact mass=128.08373
ionization energy=70 eV
ion type=[M]+*
computed spectral entropy=2.3541458382728715
computed normalized entropy=0.6921520788430123
SPLASH=splash10-001i-9200000000-9b7dd3555e19e4dcf54d
submitter=submitter = University of Tokyo Team (Faculty of Engineering, University of Tokyo)
MoNA Rating=3.75

>  <NUM PEAKS>  (1310) 
30

>  <MASS SPECTRAL PEAKS>  (1310) 
26 1.3
27 16
28 3
29 2.25
32 1.1
38 1.2
39 15.4
40 0.21
41 4.3
42 1.8
43 4
45 0.13
50 1.1
51 1.8
53 6.7
54 0.62
55 35.3
56 3
57 1.6
59 0.23
67 1.2
82 27.9
83 99.99
84 0.62
85 16
100 22.3
101 1.3
113 0.33
128 32.3
129 2.6

>  <PREDICTED SPECTRUM>  (1310) 
14 26
15 107
16 4
18 12
19 6
25 32
26 169
27 471
28 221
29 594
30 118
31 130
32 8
36 24
37 75
38 132
39 452
40 180
41 341
42 218
43 243
44 79
45 178
46 109
47 25
50 83
51 158
52 120
53 296
54 272
55 604
56 229
57 180
58 33
59 99
61 14
65 37
66 95
67 270
69 37
70 87
71 127
72 15
73 6
81 95
82 446
83 999
84 232
85 151
86 33
99 291
100 326
101 78
113 146
114 33
128 359
129 125
130 7

$$$$

     RDKit          2D

  9  8  0  0  0  0  0  0  0  0999 V2000
    2.2733    2.8125    0.0000 C   0  0  0  0  0  0  0  0  0  0  0  0
    0.9743    5.0625    0.0000 C   0  0  0  0  0  0  0  0  0  0  0  0
   -5.5209    2.8125    0.0000 C   0  0  0  0  0  0  0  0  0  0  0  0
   -0.3248    2.8125    0.0000 C   0  0  0  0  0  0  0  0  0  0  0  0
   -1.6238    3.5625    0.0000 C   0  0  0  0  0  0  0  0  0  0  0  0
    0.9743    3.5625    0.0000 C   0  0  0  0  0  0  0  0  0  0  0  0
   -4.2219    3.5625    0.0000 C   0  0  0  0  0  0  0  0  0  0  0  0
   -4.2219    5.0625    0.0000 O   0  0  0  0  0  0  0  0  0  0  0  0
   -2.9228    2.8125    0.0000 O   0  0  0  0  0  0  0  0  0  0  0  0
  5  4  1  0
  6  1  2  0
  6  2  1  0
  6  4  1  0
  7  3  1  0
  8  7  2  0
  9  5  1  0
  9  7  1  0
M  END
>  <NAME>  (1311) 
3-METHYL-3-BUTEN-1-YL ACETATE

>  <SYNONYMS>  (1311) 


>  <SPECTRUM TYPE>  (1311) 
MS1

>  <INSTRUMENT TYPE>  (1311) 
EI-B

>  <INSTRUMENT>  (1311) 
JEOL JMS-D-300

>  <ION MODE>  (1311) 
P

>  <INCHIKEY>  (1311) 
OCUAPVNNQFAQSM-UHFFFAOYSA-N

>  <FORMULA>  (1311) 
C7H12O2

>  <EXACT MASS>  (1311) 
128.083729624

>  <MW>  (1311) 
128

>  <ID>  (1311) 
JP010016

>  <CONTRIBUTOR>  (1311) 
University of Tokyo Team, {Faculty of Engineering, University of Tokyo

>  <COMMENT>  (1311) 
SMILES=CC(=C)CCOC(C)=O
InChI=InChI=1S/C7H12O2/c1-6(2)4-5-9-7(3)8/h1,4-5H2,2-3H3
computed SMILES=O=C(OCCC(=C)C)C
accession=JP010016
date=2016.01.19 (Created 2008.10.21, modified 2011.05.06)
author=KURARAY CO., LTD.
license=CC BY-NC-SA
exact mass=128.08373
ionization energy=70 eV
ion type=[M]+*
computed spectral entropy=1.5471199685268935
computed normalized entropy=0.5713040208402328
SPLASH=splash10-00kf-9000000000-5a5c0fbdbc4d27512f06
submitter=submitter = University of Tokyo Team (Faculty of Engineering, University of Tokyo)
MoNA Rating=3.75

>  <NUM PEAKS>  (1311) 
15

>  <MASS SPECTRAL PEAKS>  (1311) 
27 4
29 2.9
39 6.6
40 0.4
41 8.3
42 3.2
43 99.99
44 0.26
53 7.7
55 1.2
61 1.3
67 2.49
68 77.5
69 6
73 3.8

>  <PREDICTED SPECTRUM>  (1311) 
14 37
15 77
16 6
25 10
26 92
27 309
28 123
29 239
30 44
31 113
32 17
37 58
38 102
39 362
40 193
41 452
42 190
43 999
44 165
45 139
50 119
51 127
52 112
53 360
54 219
55 123
56 14
58 35
59 12
60 85
61 145
62 43
63 36
65 62
66 78
67 584
68 875
69 393
70 119
71 88
72 43
73 134
83 72
84 13
85 47
86 80

$$$$

     RDKit          2D

  9  9  0  0  0  0  0  0  0  0999 V2000
   -2.2733    0.9376    0.0000 C   0  0  0  0  0  0  0  0  0  0  0  0
    2.9228   -2.0624    0.0000 C   0  0  0  0  0  0  0  0  0  0  0  0
   -0.9748   -1.3133    0.0000 C   0  0  0  0  0  0  0  0  0  0  0  0
    0.3242   -2.0633    0.0000 C   0  0  0  0  0  0  0  0  0  0  0  0
    0.3252    0.9384    0.0000 C   0  0  0  0  0  0  0  0  0  0  0  0
   -0.9743    0.1876    0.0000 C   0  0  0  0  0  0  0  0  0  0  0  0
    1.6242    0.1884    0.0000 C   0  0  0  0  0  0  0  0  0  0  0  0
    1.6238   -1.3124    0.0000 N   0  0  0  0  0  0  0  0  0  0  0  0
    2.9234    0.9382    0.0000 O   0  0  0  0  0  0  0  0  0  0  0  0
  4  3  1  0
  6  1  1  0
  6  3  1  0
  6  5  1  0
  7  5  1  0
  8  2  1  0
  8  4  1  0
  8  7  1  0
  9  7  2  0
M  END
>  <NAME>  (1312) 
1,4-DIMETHYL-2-PIPERIDONE

>  <SYNONYMS>  (1312) 


>  <SPECTRUM TYPE>  (1312) 
MS1

>  <INSTRUMENT TYPE>  (1312) 
EI-B

>  <INSTRUMENT>  (1312) 
JEOL JMS-D-300

>  <ION MODE>  (1312) 
P

>  <INCHIKEY>  (1312) 
JBCMUNOVVMEKMO-UHFFFAOYSA-N

>  <FORMULA>  (1312) 
C7H13NO

>  <EXACT MASS>  (1312) 
127.099714036

>  <MW>  (1312) 
127

>  <ID>  (1312) 
JP010015

>  <CONTRIBUTOR>  (1312) 
University of Tokyo Team, {Faculty of Engineering, University of Tokyo

>  <COMMENT>  (1312) 
SMILES=CC(C1)CC(=O)N(C)C1
InChI=InChI=1S/C7H13NO/c1-6-3-4-8(2)7(9)5-6/h6H,3-5H2,1-2H3
computed SMILES=O=C1N(C)CCC(C)C1
accession=JP010015
date=2016.01.19 (Created 2008.10.21, modified 2011.05.06)
author=KURARAY CO., LTD.
license=CC BY-NC-SA
exact mass=127.09971
ionization energy=70 eV
ion type=[M]+*
computed spectral entropy=2.4798166130517996
computed normalized entropy=0.7524087853468844
SPLASH=splash10-002f-9300000000-0aa70b84a47db7a3826d
submitter=submitter = University of Tokyo Team (Faculty of Engineering, University of Tokyo)
MoNA Rating=3.75

>  <NUM PEAKS>  (1312) 
27

>  <MASS SPECTRAL PEAKS>  (1312) 
27 7.6
28 5.4
29 6.2
30 0.26
32 1.4
39 8.6
41 18.6
42 3.66
43 20.5
44 99.99
45 4
55 1.1
56 22
57 23.4
58 5.5
69 2.23
70 2.3
71 10.4
72 4.4
84 1.08
85 6.4
98 1.9
99 2.9
112 0.28
126 20.6
127 66
128 5.2

>  <PREDICTED SPECTRUM>  (1312) 
14 25
15 112
16 15
17 11
18 21
26 66
27 218
28 261
29 224
30 329
38 38
39 278
40 185
41 482
42 782
43 563
44 705
45 127
51 17
54 79
55 216
56 520
57 345
58 376
67 12
68 73
69 222
70 312
71 209
72 87
82 7
83 17
84 301
85 339
86 138
87 35
98 159
99 275
112 246
113 1
126 350
127 999
128 298
129 58

$$$$

     RDKit          2D

  9  8  0  0  0  0  0  0  0  0999 V2000
    2.5981    4.5000    0.0000 C   0  0  0  0  0  0  0  0  0  0  0  0
    1.2990    5.2500    0.0000 C   0  0  0  0  0  0  0  0  0  0  0  0
    0.0000    4.5000    0.0000 C   0  0  0  0  0  0  0  0  0  0  0  0
   -1.2990    5.2500    0.0000 C   0  0  0  0  0  0  0  0  0  0  0  0
   -2.5981    4.5000    0.0000 C   0  0  0  0  0  0  0  0  0  0  0  0
   -3.8971    5.2500    0.0000 C   0  0  0  0  0  0  0  0  0  0  0  0
   -5.1962    4.5000    0.0000 C   0  0  0  0  0  0  0  0  0  0  0  0
   -6.4952    5.2500    0.0000 C   0  0  0  0  0  0  0  0  0  0  0  0
   -7.7942    4.5000    0.0000 O   0  0  0  0  0  0  0  0  0  0  0  0
  2  1  2  0
  3  2  1  0
  4  3  1  0
  5  4  1  0
  6  5  1  0
  6  7  2  0
  8  7  1  0
  9  8  1  0
M  END
>  <NAME>  (1313) 
2,7-OCTADIEN-1-OL

>  <SYNONYMS>  (1313) 


>  <SPECTRUM TYPE>  (1313) 
MS1

>  <INSTRUMENT TYPE>  (1313) 
EI-B

>  <INSTRUMENT>  (1313) 
JEOL JMS-D-300

>  <ION MODE>  (1313) 
P

>  <INCHIKEY>  (1313) 
YHYGSIBXYYKYFB-VOTSOKGWSA-N

>  <FORMULA>  (1313) 
C8H14O

>  <EXACT MASS>  (1313) 
126.104465068

>  <MW>  (1313) 
126

>  <ID>  (1313) 
JP010014

>  <CONTRIBUTOR>  (1313) 
University of Tokyo Team, {Faculty of Engineering, University of Tokyo

>  <COMMENT>  (1313) 
SMILES=C=CCCCC=CCO
InChI=InChI=1S/C8H14O/c1-2-3-4-5-6-7-8-9/h2,6-7,9H,1,3-5,8H2/b7-6+
computed SMILES=OCC=CCCCC=C
accession=JP010014
date=2016.01.19 (Created 2008.10.21, modified 2011.05.06)
author=KURARAY CO., LTD.
license=CC BY-NC-SA
exact mass=126.10447
ionization energy=70 eV
ion type=[M]+*
computed spectral entropy=3.199048861177707
computed normalized entropy=0.8355571937636334
SPLASH=splash10-0kdl-9000000000-195fda73d3622ae98163
submitter=submitter = University of Tokyo Team (Faculty of Engineering, University of Tokyo)
MoNA Rating=3.75

>  <NUM PEAKS>  (1313) 
46

>  <MASS SPECTRAL PEAKS>  (1313) 
26 2.3
27 45.3
29 58.9
31 2.23
38 2.3
39 55.8
40 2.9
41 9.35
42 19.5
43 38.2
44 10.4
45 0.27
50 2.3
51 5.8
52 2.9
53 2.4
54 78.2
55 99.99
56 24.4
57 8
58 6.5
65 6.5
66 9.1
67 8.86
68 21.1
69 16.7
70 24.5
71 0.97
77 7.3
78 5.2
79 41.2
80 2.59
81 12.9
82 23.8
83 34.7
84 3.43
85 3.1
91 4.9
93 36.1
94 0.38
95 25.8
96 2.4
97 5.3
98 0.31
108 8.4
109 1.9

>  <PREDICTED SPECTRUM>  (1313) 
15 6
26 104
27 417
28 138
29 330
30 56
31 217
37 63
38 146
39 701
40 296
41 880
42 342
43 412
44 173
45 116
49 29
50 165
51 282
52 228
53 513
54 697
55 624
56 244
57 369
58 160
59 17
60 40
61 3
62 74
63 180
64 80
65 313
66 461
67 999
68 527
69 304
70 332
71 234
72 53
75 101
76 16
77 412
78 282
79 882
80 516
81 521
82 350
83 408
84 304
85 187
89 3
91 362
92 189
93 688
94 222
95 169
96 68
97 234
98 162
107 145
108 452
109 77
110 20
111 102

$$$$

     RDKit          2D

  9  8  0  0  0  0  0  0  0  0999 V2000
   -6.4952    4.5000    0.0000 C   0  0  0  0  0  0  0  0  0  0  0  0
    2.5981    3.7500    0.0000 C   0  0  0  0  0  0  0  0  0  0  0  0
   -3.8971    6.0000    0.0000 C   0  0  0  0  0  0  0  0  0  0  0  0
   -5.1962    3.7500    0.0000 C   0  0  0  0  0  0  0  0  0  0  0  0
    1.2990    4.5000    0.0000 C   0  0  0  0  0  0  0  0  0  0  0  0
   -2.5981    3.7500    0.0000 C   0  0  0  0  0  0  0  0  0  0  0  0
   -1.2990    4.5000    0.0000 C   0  0  0  0  0  0  0  0  0  0  0  0
   -3.8971    4.5000    0.0000 C   0  0  0  0  0  0  0  0  0  0  0  0
    0.0000    3.7500    0.0000 O   0  0  0  0  0  0  0  0  0  0  0  0
  4  1  2  0
  5  2  1  0
  7  6  1  0
  8  3  1  0
  8  4  1  0
  6  8  2  0
  9  5  1  0
  9  7  1  0
M  END
>  <NAME>  (1314) 
5-ETHOXY-3-METHYL-1,3-PENTADIENE

>  <SYNONYMS>  (1314) 
2,4-PENTADIENE-3-METHYL-1-ETHOXY

>  <SPECTRUM TYPE>  (1314) 
MS1

>  <INSTRUMENT TYPE>  (1314) 
EI-B

>  <INSTRUMENT>  (1314) 
JEOL JMS-D-300

>  <ION MODE>  (1314) 
P

>  <INCHIKEY>  (1314) 
KNRWANBXKZWMCQ-SOFGYWHQSA-N

>  <FORMULA>  (1314) 
C8H14O

>  <EXACT MASS>  (1314) 
126.104465068

>  <MW>  (1314) 
126

>  <ID>  (1314) 
JP010013

>  <CONTRIBUTOR>  (1314) 
University of Tokyo Team, {Faculty of Engineering, University of Tokyo

>  <COMMENT>  (1314) 
SMILES=CCOCC=C(C)C=C
InChI=InChI=1S/C8H14O/c1-4-8(3)6-7-9-5-2/h4,6H,1,5,7H2,2-3H3/b8-6+
computed SMILES=O(CC=C(C=C)C)CC
accession=JP010013
date=2016.01.19 (Created 2008.10.21, modified 2011.05.06)
author=KURARAY CO., LTD.
license=CC BY-NC-SA
exact mass=126.10447
ionization energy=70 eV
ion type=[M]+*
computed spectral entropy=2.2424005603571056
computed normalized entropy=0.6659351222984506
SPLASH=splash10-014j-9000000000-d1002d58470720595405
submitter=submitter = University of Tokyo Team (Faculty of Engineering, University of Tokyo)
MoNA Rating=3.75

>  <NUM PEAKS>  (1314) 
29

>  <MASS SPECTRAL PEAKS>  (1314) 
27 8.9
28 1.3
29 3.4
39 0.95
40 2.1
41 13.9
42 3.1
43 1.54
44 1.1
45 54
46 1.1
50 0.11
51 2.6
53 9.6
54 7.8
55 0.91
56 1
57 1.2
65 3.5
66 0.25
67 99.99
68 5.9
72 1
77 0.3
79 8.3
80 1.9
81 18.4
82 7.27
83 5.5

>  <PREDICTED SPECTRUM>  (1314) 
19 11
26 57
27 212
28 51
29 261
31 217
38 11
39 428
40 114
41 640
42 114
43 357
44 74
45 780
50 108
51 244
52 133
53 443
54 324
55 466
63 2
65 80
66 13
67 692
68 461
69 139
70 8
77 181
79 250
80 229
81 999
82 615
83 426
97 196
98 92
126 76

$$$$

     RDKit          2D

  9  9  0  0  0  0  0  0  0  0999 V2000
   -2.7865   -1.4800    0.0000 C   0  0  0  0  0  0  0  0  0  0  0  0
   -1.9070    0.4285    0.0000 C   0  0  0  0  0  0  0  0  0  0  0  0
   -1.2865   -1.4800    0.0000 C   0  0  0  0  0  0  0  0  0  0  0  0
    1.4235    1.2390    0.0000 C   0  0  0  0  0  0  0  0  0  0  0  0
   -0.0765    1.2390    0.0000 C   0  0  0  0  0  0  0  0  0  0  0  0
    1.8835   -0.1810    0.0000 C   0  0  0  0  0  0  0  0  0  0  0  0
   -0.5365   -0.1810    0.0000 C   0  0  0  0  0  0  0  0  0  0  0  0
    3.3100   -0.6448    0.0000 O   0  0  0  0  0  0  0  0  0  0  0  0
    0.6735   -1.0610    0.0000 O   0  0  0  0  0  0  0  0  0  0  0  0
  3  1  2  0
  5  4  1  0
  6  4  1  0
  7  2  1  0
  7  3  1  0
  7  5  1  0
  8  6  2  0
  9  6  1  0
  9  7  1  0
M  END
>  <NAME>  (1315) 
5-METHYL-5-VINYLTETRAHYDRO-2-FURANONE

>  <SYNONYMS>  (1315) 
2-FURANONE-3,4-DIHYDRO-5-METHYL-5-VINYL

>  <SPECTRUM TYPE>  (1315) 
MS1

>  <INSTRUMENT TYPE>  (1315) 
EI-B

>  <INSTRUMENT>  (1315) 
JEOL JMS-D-300

>  <ION MODE>  (1315) 
P

>  <INCHIKEY>  (1315) 
QESPSAHXYXIGBG-UHFFFAOYSA-N

>  <FORMULA>  (1315) 
C7H10O2

>  <EXACT MASS>  (1315) 
126.06807956

>  <MW>  (1315) 
126

>  <ID>  (1315) 
JP010012

>  <CONTRIBUTOR>  (1315) 
University of Tokyo Team, {Faculty of Engineering, University of Tokyo

>  <COMMENT>  (1315) 
SMILES=C=CC(C)(C1)OC(=O)C1
InChI=InChI=1S/C7H10O2/c1-3-7(2)5-4-6(8)9-7/h3H,1,4-5H2,2H3
computed SMILES=O=C1OC(C=C)(C)CC1
accession=JP010012
date=2016.01.19 (Created 2008.10.21, modified 2011.05.06)
author=KURARAY CO., LTD.
license=CC BY-NC-SA
exact mass=126.06808
ionization energy=70 eV
ion type=[M]+*
computed spectral entropy=2.8439917897570393
computed normalized entropy=0.770963601585122
SPLASH=splash10-0bvl-9200000000-288aefec213df99a77a2
submitter=submitter = University of Tokyo Team (Faculty of Engineering, University of Tokyo)
MoNA Rating=3.75

>  <NUM PEAKS>  (1315) 
40

>  <MASS SPECTRAL PEAKS>  (1315) 
26 5.5
27 30.9
28 38.1
29 0.51
32 2.5
38 1.8
39 16.6
40 0.26
41 17.6
42 8.6
43 55
44 0.19
50 3.1
51 4.5
52 2.3
53 0.75
54 4.9
55 67.9
56 38
57 0.18
65 3.5
66 1.2
67 36.5
68 0.27
69 2.1
70 3.4
71 47.4
72 0.21
79 1.8
81 4.7
82 2.5
83 2.01
84 4.5
98 23.2
99 28.2
100 0.16
111 99.99
112 6.9
126 14.9
127 1.8

>  <PREDICTED SPECTRUM>  (1315) 
14 24
15 41
25 18
26 198
27 537
28 290
29 347
31 51
37 100
38 188
39 653
40 303
41 595
42 263
43 895
44 143
45 110
49 1
50 198
51 276
52 201
53 463
54 398
55 999
56 376
57 274
58 194
59 30
63 61
65 265
66 174
67 469
68 299
69 316
70 119
71 438
72 188
73 4
77 80
81 136
82 260
83 468
84 259
85 6
91 196
93 370
97 110
98 316
99 179
108 53
111 714
112 160
125 29
126 210
127 34

$$$$

     RDKit          2D

  7  7  0  0  0  0  0  0  0  0999 V2000
   -1.1071    0.8238    0.0000 C   0  0  0  0  0  0  0  0  0  0  0  0
   -1.8571   -0.4752    0.0000 C   0  0  0  0  0  0  0  0  0  0  0  0
    0.3527    0.5122    0.0000 C   0  0  0  0  0  0  0  0  0  0  0  0
   -0.8573   -1.5836    0.0000 C   0  0  0  0  0  0  0  0  0  0  0  0
    0.9792   -2.4082    0.0000 O   0  0  0  0  0  0  0  0  0  0  0  0
    1.9850   -0.6660    0.0000 O   0  0  0  0  0  0  0  0  0  0  0  0
    0.5184   -0.9807    0.0000 S   0  0  0  0  0  0  0  0  0  0  0  0
  2  1  1  0
  3  1  1  0
  4  2  1  0
  7  3  1  0
  7  4  1  0
  7  5  2  0
  7  6  2  0
M  END
>  <NAME>  (1316) 
SULFOLANE

>  <SYNONYMS>  (1316) 
TETRAHYDROTHIOPHENE 1,1-DIOXIDE

>  <SPECTRUM TYPE>  (1316) 
MS1

>  <INSTRUMENT TYPE>  (1316) 
EI-B

>  <INSTRUMENT>  (1316) 
JEOL JMS-D-300

>  <ION MODE>  (1316) 
P

>  <INCHIKEY>  (1316) 
HXJUTPCZVOIRIF-UHFFFAOYSA-N

>  <FORMULA>  (1316) 
C4H8O2S

>  <EXACT MASS>  (1316) 
120.024500496

>  <MW>  (1316) 
120

>  <ID>  (1316) 
JP010011

>  <CONTRIBUTOR>  (1316) 
University of Tokyo Team, {Faculty of Engineering, University of Tokyo

>  <COMMENT>  (1316) 
SMILES=O=S(=O)(C1)CCC1
InChI=InChI=1S/C4H8O2S/c5-7(6)3-1-2-4-7/h1-4H2
computed SMILES=O=S1(=O)CCCC1
ionization energy=70 eV
accession=JP010011
date=2016.01.19 (Created 2008.10.21, modified 2011.05.06)
author=KURARAY CO., LTD.
license=CC BY-NC-SA
exact mass=120.0245
ion type=[M]+*
computed spectral entropy=2.0036854559929997
computed normalized entropy=0.7072130519914857
SPLASH=splash10-05bf-9100000000-da096f8b6dee71e3b48a
submitter=submitter = University of Tokyo Team (Faculty of Engineering, University of Tokyo)
MoNA Rating=3.75

>  <NUM PEAKS>  (1316) 
17

>  <MASS SPECTRAL PEAKS>  (1316) 
26 5.5
27 18.1
28 46.8
29 1.25
39 16.1
40 4.7
41 99.99
42 0.42
43 3.6
48 3.5
53 3.2
55 8.67
56 90.6
57 5.4
120 54.2
121 0.31
122 2.5

>  <PREDICTED SPECTRUM>  (1316) 
14 29
15 12
25 21
26 182
27 535
28 284
29 415
31 68
33 40
34 19
37 105
38 223
39 637
40 358
41 999
42 746
43 445
45 94
46 81
48 271
49 70
50 139
51 139
52 89
53 275
54 260
55 854
56 502
57 272
60 53
63 157
64 248
65 71
71 65
92 0
120 571
121 161
122 116

$$$$

     RDKit          2D

  8  7  0  0  0  0  0  0  0  0999 V2000
   -1.9486    5.6250    0.0000 C   0  0  0  0  0  0  0  0  0  0  0  0
   -0.6495    3.3750    0.0000 C   0  0  0  0  0  0  0  0  0  0  0  0
   -3.2476    3.3750    0.0000 C   0  0  0  0  0  0  0  0  0  0  0  0
    0.6495    4.1250    0.0000 C   0  0  0  0  0  0  0  0  0  0  0  0
   -4.5466    4.1250    0.0000 C   0  0  0  0  0  0  0  0  0  0  0  0
   -1.9486    4.1250    0.0000 N   0  0  0  0  0  0  0  0  0  0  0  0
    1.9486    3.3750    0.0000 O   0  0  0  0  0  0  0  0  0  0  0  0
   -5.8457    3.3750    0.0000 O   0  0  0  0  0  0  0  0  0  0  0  0
  4  2  1  0
  5  3  1  0
  6  1  1  0
  6  2  1  0
  6  3  1  0
  7  4  1  0
  8  5  1  0
M  END
>  <NAME>  (1317) 
2,2'-METHYLIMINODIETHANOL

>  <SYNONYMS>  (1317) 
METHYL-DIETHANOLAMINE

>  <SPECTRUM TYPE>  (1317) 
MS1

>  <INSTRUMENT TYPE>  (1317) 
EI-B

>  <INSTRUMENT>  (1317) 
JEOL JMS-D-300

>  <ION MODE>  (1317) 
P

>  <INCHIKEY>  (1317) 
CRVGTESFCCXCTH-UHFFFAOYSA-N

>  <FORMULA>  (1317) 
C5H13NO2

>  <EXACT MASS>  (1317) 
119.094628656

>  <MW>  (1317) 
119

>  <ID>  (1317) 
JP010010

>  <CONTRIBUTOR>  (1317) 
University of Tokyo Team, {Faculty of Engineering, University of Tokyo

>  <COMMENT>  (1317) 
SMILES=OCCN(C)CCO
InChI=InChI=1S/C5H13NO2/c1-6(2-4-7)3-5-8/h7-8H,2-5H2,1H3
computed SMILES=OCCN(C)CCO
accession=JP010010
date=2016.01.19 (Created 2008.10.21, modified 2011.05.06)
author=KURARAY CO., LTD.
license=CC BY-NC-SA
exact mass=119.09463
ionization energy=70 eV
ion type=[M]+*
computed spectral entropy=1.9105112181547994
computed normalized entropy=0.6377443121405044
SPLASH=splash10-000l-9000000000-e5123d6a820b44f48b01
submitter=submitter = University of Tokyo Team (Faculty of Engineering, University of Tokyo)
MoNA Rating=3.75

>  <NUM PEAKS>  (1317) 
20

>  <MASS SPECTRAL PEAKS>  (1317) 
27 4
28 1.5
29 3.1
30 0.22
31 2.5
41 2.4
42 16
43 0.65
44 75.6
45 29
56 4.9
57 0.34
58 6.4
70 2.9
74 4.2
87 0.82
88 99.99
89 8.8
119 3.4
130 4.4

>  <PREDICTED SPECTRUM>  (1317) 
14 25
15 197
17 30
18 107
19 53
26 73
27 293
28 315
29 269
30 328
31 320
32 32
33 43
34 17
36 19
38 87
39 212
40 184
41 328
42 849
43 705
44 518
45 705
46 188
47 9
52 6
53 7
54 178
55 43
56 767
57 474
58 543
59 177
60 255
61 20
70 302
71 4
72 224
73 1
74 574
75 86
76 118
86 59
88 999
89 298
119 137

$$$$

     RDKit          2D

  8  7  0  0  0  0  0  0  0  0999 V2000
    1.2990    2.2500    0.0000 C   0  0  0  0  0  0  0  0  0  0  0  0
    0.0000    4.5000    0.0000 C   0  0  0  0  0  0  0  0  0  0  0  0
   -2.5981    3.0000    0.0000 C   0  0  0  0  0  0  0  0  0  0  0  0
   -1.2990    0.7500    0.0000 C   0  0  0  0  0  0  0  0  0  0  0  0
    0.0000    3.0000    0.0000 C   0  0  0  0  0  0  0  0  0  0  0  0
   -1.2990    2.2500    0.0000 C   0  0  0  0  0  0  0  0  0  0  0  0
   -3.8971    2.2500    0.0000 O   0  0  0  0  0  0  0  0  0  0  0  0
   -2.5981    0.0000    0.0000 O   0  0  0  0  0  0  0  0  0  0  0  0
  5  1  1  0
  5  2  1  0
  6  3  1  0
  6  4  1  0
  6  5  1  0
  7  3  1  0
  8  4  1  0
M  END
>  <NAME>  (1318) 
2-ISOPROPYL-1,3-PROPANEDIOL

>  <SYNONYMS>  (1318) 


>  <SPECTRUM TYPE>  (1318) 
MS1

>  <INSTRUMENT TYPE>  (1318) 
EI-B

>  <INSTRUMENT>  (1318) 
JEOL JMS-D-300

>  <ION MODE>  (1318) 
P

>  <INCHIKEY>  (1318) 
VVOISBSEMFDYNE-UHFFFAOYSA-N

>  <FORMULA>  (1318) 
C6H14O2

>  <EXACT MASS>  (1318) 
118.099379688

>  <MW>  (1318) 
118

>  <ID>  (1318) 
JP010009

>  <CONTRIBUTOR>  (1318) 
University of Tokyo Team, {Faculty of Engineering, University of Tokyo

>  <COMMENT>  (1318) 
SMILES=OCC(CO)C(C)C
InChI=InChI=1S/C6H14O2/c1-5(2)6(3-7)4-8/h5-8H,3-4H2,1-2H3
computed SMILES=OCC(CO)C(C)C
accession=JP010009
date=2016.01.19 (Created 2008.10.21, modified 2011.05.06)
author=KURARAY CO., LTD.
license=CC BY-NC-SA
exact mass=118.09938
ionization energy=70 eV
ion type=[M]+*
computed spectral entropy=2.7116989571520635
computed normalized entropy=0.7689795011663555
SPLASH=splash10-05dl-9000000000-9170ab1076182407d677
submitter=submitter = University of Tokyo Team (Faculty of Engineering, University of Tokyo)
MoNA Rating=3.75

>  <NUM PEAKS>  (1318) 
34

>  <MASS SPECTRAL PEAKS>  (1318) 
27 11
28 89.6
29 17.2
30 0.31
31 2.1
32 27.3
40 3.4
41 4.55
42 25.6
43 50.2
44 9
45 1.99
54 3.4
55 66.1
56 15.6
57 4.97
58 16.8
59 6.2
61 3.5
67 1.01
68 2.9
69 38.3
70 99.99
71 1.61
72 3.1
73 2.9
81 2.7
82 0.86
83 6.3
85 10.5
87 2.5
98 0.28
99 12
100 1.8

>  <PREDICTED SPECTRUM>  (1318) 
14 8
17 7
18 8
19 25
25 8
26 119
27 470
28 364
29 516
30 136
31 618
32 106
33 58
37 11
38 53
39 473
40 187
41 834
42 447
43 899
44 323
45 161
51 36
52 51
53 334
54 300
55 999
56 642
57 770
58 290
59 274
61 49
67 224
68 166
69 757
70 689
71 515
72 260
73 177
81 211
82 135
83 173
85 196
86 12
87 239
88 73
99 261
100 198

$$$$

     RDKit          2D

  8  7  0  0  0  0  0  0  0  0999 V2000
   -1.9486    5.6250    0.0000 C   0  0  0  0  0  0  0  0  0  0  0  0
   -0.6495    3.3750    0.0000 C   0  0  0  0  0  0  0  0  0  0  0  0
   -3.2476    3.3750    0.0000 C   0  0  0  0  0  0  0  0  0  0  0  0
    0.6495    4.1250    0.0000 C   0  0  0  0  0  0  0  0  0  0  0  0
   -4.5466    4.1250    0.0000 C   0  0  0  0  0  0  0  0  0  0  0  0
   -1.9486    4.1250    0.0000 C   0  0  0  0  0  0  0  0  0  0  0  0
    1.9486    3.3750    0.0000 O   0  0  0  0  0  0  0  0  0  0  0  0
   -5.8457    3.3750    0.0000 O   0  0  0  0  0  0  0  0  0  0  0  0
  4  2  1  0
  5  3  1  0
  6  1  1  0
  6  2  1  0
  6  3  1  0
  7  4  1  0
  8  5  1  0
M  END
>  <NAME>  (1319) 
3-METHYL-1,5-PENTANEDIOL

>  <SYNONYMS>  (1319) 


>  <SPECTRUM TYPE>  (1319) 
MS1

>  <INSTRUMENT TYPE>  (1319) 
EI-B

>  <INSTRUMENT>  (1319) 
JEOL JMS-D-300

>  <ION MODE>  (1319) 
P

>  <INCHIKEY>  (1319) 
SXFJDZNJHVPHPH-UHFFFAOYSA-N

>  <FORMULA>  (1319) 
C6H14O2

>  <EXACT MASS>  (1319) 
118.099379688

>  <MW>  (1319) 
118

>  <ID>  (1319) 
JP010008

>  <CONTRIBUTOR>  (1319) 
University of Tokyo Team, {Faculty of Engineering, University of Tokyo

>  <COMMENT>  (1319) 
SMILES=OCCC(C)CCO
InChI=InChI=1S/C6H14O2/c1-6(2-4-7)3-5-8/h6-8H,2-5H2,1H3
computed SMILES=OCCC(C)CCO
accession=JP010008
date=2016.01.19 (Created 2008.10.21, modified 2011.05.06)
author=KURARAY CO., LTD.
license=CC BY-NC-SA
exact mass=118.09938
ionization energy=70 eV
ion type=[M]+*
computed spectral entropy=2.9661858027855232
computed normalized entropy=0.7621589836060844
SPLASH=splash10-05tf-9000000000-b2427381bc04f2d896a5
submitter=submitter = University of Tokyo Team (Faculty of Engineering, University of Tokyo)
MoNA Rating=3.75

>  <NUM PEAKS>  (1319) 
49

>  <MASS SPECTRAL PEAKS>  (1319) 
26 1.8
27 22.6
28 23.1
29 3.4
30 2.6
31 64.5
32 1.4
38 0.1
39 19.1
40 3.9
41 88.1
42 6.72
43 66.3
44 22.2
45 30.6
46 0.42
47 2.2
49 3.2
51 1.2
53 0.78
54 13.4
55 98
56 52.6
57 5.03
58 12.1
59 3.4
60 1.2
61 0.29
66 1
67 99.99
68 9.1
69 5.52
70 87.3
71 45.5
72 7.3
73 1.14
74 1.3
75 1.2
81 10.1
82 3.97
83 7.5
85 2.8
87 5.6
88 0.51
89 3.4
99 3.1
101 2.3
103 0.1
115 1.8

>  <PREDICTED SPECTRUM>  (1319) 
14 24
15 44
16 5
17 20
18 51
19 59
25 28
26 163
27 456
28 296
29 511
30 202
31 553
32 107
33 42
35 25
36 38
37 67
38 124
39 530
40 233
41 905
42 509
43 742
44 403
45 512
46 189
47 182
48 9
49 72
50 81
51 154
52 57
53 314
54 418
55 999
56 781
57 577
58 117
59 224
61 23
63 80
65 92
66 64
67 578
68 337
69 526
70 538
71 482
72 423
73 323
74 158
75 83
81 454
82 470
83 421
85 131
99 64
100 145
101 81
118 8

$$$$

     RDKit          2D

  8  7  0  0  0  0  0  0  0  0999 V2000
    1.9486    2.6250    0.0000 C   0  0  0  0  0  0  0  0  0  0  0  0
    0.6495    0.3750    0.0000 C   0  0  0  0  0  0  0  0  0  0  0  0
    0.6495    3.3750    0.0000 C   0  0  0  0  0  0  0  0  0  0  0  0
   -0.6495    1.1250    0.0000 C   0  0  0  0  0  0  0  0  0  0  0  0
   -1.9486    3.3750    0.0000 C   0  0  0  0  0  0  0  0  0  0  0  0
   -3.2476    2.6250    0.0000 C   0  0  0  0  0  0  0  0  0  0  0  0
   -0.6495    2.6250    0.0000 N   0  0  0  0  0  0  0  0  0  0  0  0
   -4.5466    3.3750    0.0000 O   0  0  0  0  0  0  0  0  0  0  0  0
  3  1  1  0
  4  2  1  0
  6  5  1  0
  7  3  1  0
  7  4  1  0
  7  5  1  0
  8  6  1  0
M  END
>  <NAME>  (1320) 
2-DIETHYLAMINOETHANOL

>  <SYNONYMS>  (1320) 


>  <SPECTRUM TYPE>  (1320) 
MS1

>  <INSTRUMENT TYPE>  (1320) 
EI-B

>  <INSTRUMENT>  (1320) 
JEOL JMS-D-300

>  <ION MODE>  (1320) 
P

>  <INCHIKEY>  (1320) 
BFSVOASYOCHEOV-UHFFFAOYSA-N

>  <FORMULA>  (1320) 
C6H15NO

>  <EXACT MASS>  (1320) 
117.1153641

>  <MW>  (1320) 
117

>  <ID>  (1320) 
JP010007

>  <CONTRIBUTOR>  (1320) 
University of Tokyo Team, {Faculty of Engineering, University of Tokyo

>  <COMMENT>  (1320) 
SMILES=OCCN(CC)CC
InChI=InChI=1S/C6H15NO/c1-3-7(4-2)5-6-8/h8H,3-6H2,1-2H3
computed SMILES=OCCN(CC)CC
accession=JP010007
date=2016.01.19 (Created 2008.10.21, modified 2011.05.06)
author=KURARAY CO., LTD.
license=CC BY-NC-SA
exact mass=117.11536
ionization energy=70 eV
ion type=[M]+*
computed spectral entropy=1.6886849418213516
computed normalized entropy=0.7042363196498725
SPLASH=splash10-000i-9000000000-419afeeab276c9a36e30
submitter=submitter = University of Tokyo Team (Faculty of Engineering, University of Tokyo)
MoNA Rating=3.75

>  <NUM PEAKS>  (1320) 
11

>  <MASS SPECTRAL PEAKS>  (1320) 
27 6.8
29 7.6
30 12.9
42 1.21
44 5.1
56 9.7
58 31.8
86 99.99
87 7
102 9.4
117 4.7

>  <PREDICTED SPECTRUM>  (1320) 
14 37
15 104
16 10
17 26
18 56
19 21
25 1
26 75
27 235
28 221
29 300
30 402
31 169
32 31
33 3
37 17
38 42
39 108
40 84
41 243
42 420
43 312
44 311
45 189
46 78
47 53
51 4
52 40
53 61
54 121
55 57
56 319
57 193
58 417
59 64
60 57
61 4
62 5
66 18
68 18
70 162
71 96
72 194
73 111
74 127
83 0
84 159
85 38
86 999
87 383
88 101
98 10
99 36
100 53
102 110
103 9
116 89
117 185
118 67
119 10

$$$$

     RDKit          2D

  8  7  0  0  0  0  0  0  0  0999 V2000
   -1.9486    5.6250    0.0000 C   0  0  0  0  0  0  0  0  0  0  0  0
   -0.6495    3.3750    0.0000 C   0  0  0  0  0  0  0  0  0  0  0  0
   -3.2476    3.3750    0.0000 C   0  0  0  0  0  0  0  0  0  0  0  0
    0.6495    4.1250    0.0000 C   0  0  0  0  0  0  0  0  0  0  0  0
   -4.5466    4.1250    0.0000 C   0  0  0  0  0  0  0  0  0  0  0  0
   -1.9486    4.1250    0.0000 C   0  0  0  0  0  0  0  0  0  0  0  0
    1.9486    3.3750    0.0000 N   0  0  0  0  0  0  0  0  0  0  0  0
   -5.8457    3.3750    0.0000 N   0  0  0  0  0  0  0  0  0  0  0  0
  4  2  1  0
  5  3  1  0
  6  1  1  0
  6  2  1  0
  6  3  1  0
  7  4  1  0
  8  5  1  0
M  END
>  <NAME>  (1321) 
3-METHYL-1,5-PENTANEDIAMINE

>  <SYNONYMS>  (1321) 


>  <SPECTRUM TYPE>  (1321) 
MS1

>  <INSTRUMENT TYPE>  (1321) 
EI-B

>  <INSTRUMENT>  (1321) 
JEOL JMS-D-300

>  <ION MODE>  (1321) 
P

>  <INCHIKEY>  (1321) 
FJSUFIIJYXMJQO-UHFFFAOYSA-N

>  <FORMULA>  (1321) 
C6H16N2

>  <EXACT MASS>  (1321) 
116.131348512

>  <MW>  (1321) 
116

>  <ID>  (1321) 
JP010006

>  <CONTRIBUTOR>  (1321) 
University of Tokyo Team, {Faculty of Engineering, University of Tokyo

>  <COMMENT>  (1321) 
SMILES=NCCC(C)CCN
InChI=InChI=1S/C6H16N2/c1-6(2-4-7)3-5-8/h6H,2-5,7-8H2,1H3
computed SMILES=NCCC(C)CCN
accession=JP010006
date=2016.01.19 (Created 2008.10.21, modified 2011.05.06)
author=KURARAY CO., LTD.
license=CC BY-NC-SA
exact mass=116.13135
ionization energy=70 eV
ion type=[M]+*
computed spectral entropy=2.3751070670952408
computed normalized entropy=0.7206385399695693
SPLASH=splash10-001i-9000000000-0d97800d493b220b5dec
submitter=submitter = University of Tokyo Team (Faculty of Engineering, University of Tokyo)
MoNA Rating=3.75

>  <NUM PEAKS>  (1321) 
27

>  <MASS SPECTRAL PEAKS>  (1321) 
27 6.1
28 3.6
29 4.7
30 99.99
31 5.2
39 4.7
41 9.5
42 1.03
43 15.5
44 8.7
45 12.1
55 1.36
56 38.1
57 4.2
67 3.5
70 3.08
71 2.3
72 2.3
73 5.3
82 0.24
84 4.4
86 3.7
87 3.4
97 0.31
98 2.5
99 7.9
100 3

>  <PREDICTED SPECTRUM>  (1321) 
14 2
15 22
16 22
17 49
18 81
25 0
26 36
27 97
28 164
29 135
30 999
31 117
38 10
39 113
40 72
41 187
42 147
43 181
44 176
45 218
46 38
53 33
54 82
55 158
56 243
57 137
58 105
59 96
60 29
67 90
68 38
69 21
70 113
71 72
72 182
73 290
74 18
82 61
84 94
86 49
87 202
97 14
98 95
99 279
100 155
101 55
115 37
116 49

$$$$

     RDKit          2D

  8  8  0  0  0  0  0  0  0  0999 V2000
   -1.3146    2.4468    0.0000 C   0  0  0  0  0  0  0  0  0  0  0  0
    0.4981    1.7881    0.0000 C   0  0  0  0  0  0  0  0  0  0  0  0
   -0.8019   -0.4635    0.0000 C   0  0  0  0  0  0  0  0  0  0  0  0
    1.7971    1.0381    0.0000 C   0  0  0  0  0  0  0  0  0  0  0  0
    0.4971   -1.2135    0.0000 C   0  0  0  0  0  0  0  0  0  0  0  0
   -0.8014    1.0373    0.0000 C   0  0  0  0  0  0  0  0  0  0  0  0
   -2.2787    0.7770    0.0000 O   0  0  0  0  0  0  0  0  0  0  0  0
    1.7966   -0.4627    0.0000 O   0  0  0  0  0  0  0  0  0  0  0  0
  4  2  1  0
  5  3  1  0
  6  1  1  0
  6  2  1  0
  6  3  1  0
  7  6  1  0
  8  4  1  0
  8  5  1  0
M  END
>  <NAME>  (1322) 
4-METHYLTETRAHYDROPYRAN-4-OL

>  <SYNONYMS>  (1322) 


>  <SPECTRUM TYPE>  (1322) 
MS1

>  <INSTRUMENT TYPE>  (1322) 
EI-B

>  <INSTRUMENT>  (1322) 
JEOL JMS-D-300

>  <ION MODE>  (1322) 
P

>  <INCHIKEY>  (1322) 
DCUYGCJQVJXUHU-UHFFFAOYSA-N

>  <FORMULA>  (1322) 
C6H12O2

>  <EXACT MASS>  (1322) 
116.083729624

>  <MW>  (1322) 
116

>  <ID>  (1322) 
JP010005

>  <CONTRIBUTOR>  (1322) 
University of Tokyo Team, {Faculty of Engineering, University of Tokyo

>  <COMMENT>  (1322) 
SMILES=CC(O)(C1)CCOC1
InChI=InChI=1S/C6H12O2/c1-6(7)2-4-8-5-3-6/h7H,2-5H2,1H3
computed SMILES=OC1(C)CCOCC1
accession=JP010005
date=2016.01.19 (Created 2008.10.21, modified 2011.05.06)
author=KURARAY CO., LTD.
license=CC BY-NC-SA
exact mass=116.08373
ionization energy=70 eV
ion type=[M]+*
computed spectral entropy=2.8646275272993975
computed normalized entropy=0.7875078146643463
SPLASH=splash10-006x-9000000000-216870e5e6ea68b74072
submitter=submitter = University of Tokyo Team (Faculty of Engineering, University of Tokyo)
MoNA Rating=3.75

>  <NUM PEAKS>  (1322) 
38

>  <MASS SPECTRAL PEAKS>  (1322) 
26 1.3
27 8.4
28 13.4
29 1
30 2.7
31 10
39 5.8
40 0.16
41 14.3
42 7.8
43 99.99
44 0.49
45 8.2
53 10.3
55 13.8
56 0.45
57 7.8
58 35.9
59 4.2
60 0.13
61 35.6
67 2.9
68 2.3
69 0.64
70 33.4
71 29.5
72 15.9
73 1.81
81 1.3
83 25.3
84 1.3
87 0.95
88 9.6
89 1.3
97 1.2
98 3.05
99 2.6
101 16.6

>  <PREDICTED SPECTRUM>  (1322) 
14 27
15 54
18 17
19 11
25 10
26 96
27 267
28 168
29 241
30 102
31 230
32 22
33 44
37 5
38 80
39 343
40 165
41 462
42 340
43 999
44 246
45 446
46 74
50 61
51 110
52 25
53 196
54 191
55 419
56 308
57 483
58 550
59 469
60 180
61 150
65 55
67 178
68 66
69 175
70 302
71 685
72 596
73 275
83 451
84 85
88 371
89 90
97 77
98 209
99 7
101 509
102 12
116 52

$$$$

     RDKit          2D

  8  7  0  0  0  0  0  0  0  0999 V2000
    1.9040    2.7022    0.0000 C   0  0  0  0  0  0  0  0  0  0  0  0
   -4.5912    3.4522    0.0000 C   0  0  0  0  0  0  0  0  0  0  0  0
   -1.6582    1.5531    0.0000 C   0  0  0  0  0  0  0  0  0  0  0  0
    0.2701    1.5531    0.0000 C   0  0  0  0  0  0  0  0  0  0  0  0
    0.6050    3.4522    0.0000 C   0  0  0  0  0  0  0  0  0  0  0  0
   -3.2921    2.7022    0.0000 C   0  0  0  0  0  0  0  0  0  0  0  0
   -0.6941    2.7022    0.0000 C   0  0  0  0  0  0  0  0  0  0  0  0
   -1.9931    3.4522    0.0000 O   0  0  0  0  0  0  0  0  0  0  0  0
  5  1  2  0
  6  2  1  0
  7  3  1  0
  7  4  1  0
  7  5  1  0
  8  6  1  0
  8  7  1  0
M  END
>  <NAME>  (1323) 
3-ETHOXY-3-METHYL-1-BUTENE

>  <SYNONYMS>  (1323) 


>  <SPECTRUM TYPE>  (1323) 
MS1

>  <INSTRUMENT TYPE>  (1323) 
EI-B

>  <INSTRUMENT>  (1323) 
JEOL JMS-D-300

>  <ION MODE>  (1323) 
P

>  <INCHIKEY>  (1323) 
ZZKVKKJYPYTFHL-UHFFFAOYSA-N

>  <FORMULA>  (1323) 
C7H14O

>  <EXACT MASS>  (1323) 
114.104465068

>  <MW>  (1323) 
114

>  <ID>  (1323) 
JP010004

>  <CONTRIBUTOR>  (1323) 
University of Tokyo Team, {Faculty of Engineering, University of Tokyo

>  <COMMENT>  (1323) 
SMILES=CCOC(C)(C)C=C
InChI=InChI=1S/C7H14O/c1-5-7(3,4)8-6-2/h5H,1,6H2,2-4H3
computed SMILES=O(CC)C(C=C)(C)C
accession=JP010004
date=2016.01.19 (Created 2008.10.21, modified 2011.05.06)
author=KURARAY CO., LTD.
license=CC BY-NC-SA
exact mass=114.10447
ionization energy=70 eV
ion type=[M]+*
computed spectral entropy=2.379633090677428
computed normalized entropy=0.7220117947046176
SPLASH=splash10-00r7-9000000000-31aa35ffecfab515c6dd
submitter=submitter = University of Tokyo Team (Faculty of Engineering, University of Tokyo)
MoNA Rating=3.75

>  <NUM PEAKS>  (1323) 
27

>  <MASS SPECTRAL PEAKS>  (1323) 
26 1.9
27 19.5
29 15.5
31 0.78
39 13
40 3.2
41 69.4
42 0.65
43 45.7
44 2.3
45 3.6
51 0.17
53 9.4
55 7.2
58 3.1
59 5.08
67 6.8
68 3.7
69 84.4
70 0.64
71 99.99
72 5.8
86 6
87 1.35
99 94.2
100 6.5
114 2.3

>  <PREDICTED SPECTRUM>  (1323) 
14 14
15 27
19 4
25 2
26 95
27 295
28 84
29 280
31 141
33 38
36 9
37 49
38 123
39 502
40 221
41 697
42 322
43 650
44 161
45 185
46 9
50 87
51 122
52 37
53 298
54 181
55 413
56 180
57 120
59 74
65 30
66 71
67 325
68 54
69 985
70 202
71 873
72 180
73 4
81 48
85 6
86 31
87 95
97 76
99 999
100 208
113 26
114 137

$$$$

     RDKit          2D

  8  7  0  0  0  0  0  0  0  0999 V2000
    1.9486    3.3750    0.0000 C   0  0  0  0  0  0  0  0  0  0  0  0
   -5.8457    3.3750    0.0000 C   0  0  0  0  0  0  0  0  0  0  0  0
   -4.5466    5.6250    0.0000 C   0  0  0  0  0  0  0  0  0  0  0  0
    0.6495    4.1250    0.0000 C   0  0  0  0  0  0  0  0  0  0  0  0
   -3.2476    3.3750    0.0000 C   0  0  0  0  0  0  0  0  0  0  0  0
   -1.9486    4.1250    0.0000 C   0  0  0  0  0  0  0  0  0  0  0  0
   -4.5466    4.1250    0.0000 C   0  0  0  0  0  0  0  0  0  0  0  0
   -0.6495    3.3750    0.0000 O   0  0  0  0  0  0  0  0  0  0  0  0
  4  1  1  0
  6  5  1  0
  7  2  1  0
  7  3  1  0
  7  5  2  0
  8  4  1  0
  8  6  1  0
M  END
>  <NAME>  (1324) 
1-ETHOXY-3-METHYL-2-BUTENE

>  <SYNONYMS>  (1324) 


>  <SPECTRUM TYPE>  (1324) 
MS1

>  <INSTRUMENT TYPE>  (1324) 
EI-B

>  <INSTRUMENT>  (1324) 
JEOL JMS-D-300

>  <ION MODE>  (1324) 
P

>  <INCHIKEY>  (1324) 
HPMSQLYFMOOLKS-UHFFFAOYSA-N

>  <FORMULA>  (1324) 
C7H14O

>  <EXACT MASS>  (1324) 
114.104465068

>  <MW>  (1324) 
114

>  <ID>  (1324) 
JP010003

>  <CONTRIBUTOR>  (1324) 
University of Tokyo Team, {Faculty of Engineering, University of Tokyo

>  <COMMENT>  (1324) 
SMILES=CCOCC=C(C)C
InChI=InChI=1S/C7H14O/c1-4-8-6-5-7(2)3/h5H,4,6H2,1-3H3
computed SMILES=O(CC=C(C)C)CC
accession=JP010003
date=2016.01.19 (Created 2008.10.21, modified 2011.05.06)
author=KURARAY CO., LTD.
license=CC BY-NC-SA
exact mass=114.10447
ionization energy=70 eV
ion type=[M]+*
computed spectral entropy=2.5145619246109248
computed normalized entropy=0.771788648760519
SPLASH=splash10-00xv-9000000000-3d89bf8995a2b7bebe2f
submitter=submitter = University of Tokyo Team (Faculty of Engineering, University of Tokyo)
MoNA Rating=3.75

>  <NUM PEAKS>  (1324) 
26

>  <MASS SPECTRAL PEAKS>  (1324) 
27 17.9
29 32
31 6.8
39 1.62
40 4.4
41 67.5
42 6.4
43 1.78
44 3.7
45 3
53 14.2
54 0.19
55 10.4
57 8.7
59 3.4
67 1.62
68 19.9
69 44.5
70 5.5
71 99.99
72 5.2
85 9.9
99 81.9
100 0.56
114 23.1
115 1.7

>  <PREDICTED SPECTRUM>  (1324) 
14 3
15 30
18 2
19 37
25 23
26 136
27 466
28 161
29 515
31 313
32 21
37 32
38 108
39 531
40 233
41 999
42 339
43 718
44 265
45 375
46 53
47 20
50 149
51 234
52 129
53 486
54 315
55 499
56 264
57 443
58 202
59 244
60 10
65 105
66 76
67 770
68 557
69 930
70 391
71 949
72 299
81 39
85 484
86 226
96 45
97 15
99 983
100 239
113 79
114 637
115 229

$$$$

     RDKit          2D

  8  8  0  0  0  0  0  0  0  0999 V2000
    0.0000    3.0000    0.0000 C   0  0  0  0  0  0  0  0  0  0  0  0
    1.3000    0.7500    0.0000 C   0  0  0  0  0  0  0  0  0  0  0  0
    1.3000   -0.7500    0.0000 C   0  0  0  0  0  0  0  0  0  0  0  0
   -1.3000    0.7500    0.0000 C   0  0  0  0  0  0  0  0  0  0  0  0
    0.0000    1.5000    0.0000 C   0  0  0  0  0  0  0  0  0  0  0  0
   -1.3000   -0.7500    0.0000 C   0  0  0  0  0  0  0  0  0  0  0  0
   -2.5989   -1.5002    0.0000 O   0  0  0  0  0  0  0  0  0  0  0  0
   -0.0000   -1.5000    0.0000 O   0  0  0  0  0  0  0  0  0  0  0  0
  3  2  1  0
  5  1  1  0
  5  2  1  0
  5  4  1  0
  6  4  1  0
  7  6  2  0
  8  3  1  0
  8  6  1  0
M  END
>  <NAME>  (1325) 
4-METHYLTETRAHYDRO-2-PYRONE

>  <SYNONYMS>  (1325) 


>  <SPECTRUM TYPE>  (1325) 
MS1

>  <INSTRUMENT TYPE>  (1325) 
EI-B

>  <INSTRUMENT>  (1325) 
JEOL JMS-D-300

>  <ION MODE>  (1325) 
P

>  <INCHIKEY>  (1325) 
YHTLGFCVBKENTE-UHFFFAOYSA-N

>  <FORMULA>  (1325) 
C6H10O2

>  <EXACT MASS>  (1325) 
114.06807956

>  <MW>  (1325) 
114

>  <ID>  (1325) 
JP010002

>  <CONTRIBUTOR>  (1325) 
University of Tokyo Team, {Faculty of Engineering, University of Tokyo

>  <COMMENT>  (1325) 
SMILES=CC(C1)CC(=O)OC1
InChI=InChI=1S/C6H10O2/c1-5-2-3-8-6(7)4-5/h5H,2-4H2,1H3
computed SMILES=O=C1OCCC(C)C1
accession=JP010002
date=2016.01.19 (Created 2008.10.21, modified 2011.05.06)
author=KURARAY CO., LTD.
license=CC BY-NC-SA
exact mass=114.06808
ionization energy=70 eV
ion type=[M]+*
computed spectral entropy=2.349709665635719
computed normalized entropy=0.7129326362819538
SPLASH=splash10-052f-9000000000-300cc5aed6dd918f0ae1
submitter=submitter = University of Tokyo Team (Faculty of Engineering, University of Tokyo)
MoNA Rating=3.75

>  <NUM PEAKS>  (1325) 
27

>  <MASS SPECTRAL PEAKS>  (1325) 
26 2.1
27 15.8
28 7.5
29 1.88
32 1.7
38 2.1
39 22.3
40 0.62
41 42.6
42 99.99
43 19.9
44 0.2
53 4
54 2.3
55 87.9
56 6.46
57 4.7
59 1.6
69 20.3
70 3.31
71 5
73 1.6
83 1.2
84 0.53
85 1.9
114 35.1
115 3.1

>  <PREDICTED SPECTRUM>  (1325) 
14 32
15 88
16 14
17 5
25 37
26 198
27 422
28 329
29 280
30 116
31 148
33 22
37 61
38 149
39 529
40 259
41 739
42 631
43 496
44 183
45 39
49 20
50 159
51 191
52 124
53 328
54 595
55 999
56 979
57 146
59 71
65 122
67 414
68 257
69 261
70 263
71 168
72 113
73 123
76 5
81 129
84 114
85 281
86 133
99 94
114 193
115 42

$$$$

     RDKit          2D

  8  8  0  0  0  0  0  0  0  0999 V2000
    0.0000    3.0000    0.0000 C   0  0  0  0  0  0  0  0  0  0  0  0
   -1.3000    0.7500    0.0000 C   0  0  0  0  0  0  0  0  0  0  0  0
   -1.3000   -0.7500    0.0000 C   0  0  0  0  0  0  0  0  0  0  0  0
    1.3000    0.7500    0.0000 C   0  0  0  0  0  0  0  0  0  0  0  0
   -0.0000    1.5000    0.0000 C   0  0  0  0  0  0  0  0  0  0  0  0
    1.3000   -0.7500    0.0000 C   0  0  0  0  0  0  0  0  0  0  0  0
   -0.0000   -1.5000    0.0000 N   0  0  0  0  0  0  0  0  0  0  0  0
    2.5989   -1.5002    0.0000 O   0  0  0  0  0  0  0  0  0  0  0  0
  3  2  1  0
  5  1  1  0
  5  2  1  0
  5  4  1  0
  6  4  1  0
  7  3  1  0
  7  6  2  0
  8  6  1  0
M  END
>  <NAME>  (1326) 
4-METHYL-2-PIPERIDONE

>  <SYNONYMS>  (1326) 


>  <SPECTRUM TYPE>  (1326) 
MS1

>  <INSTRUMENT TYPE>  (1326) 
EI-B

>  <INSTRUMENT>  (1326) 
JEOL JMS-D-300

>  <ION MODE>  (1326) 
P

>  <INCHIKEY>  (1326) 
PTSGHGGLRADEFP-UHFFFAOYSA-N

>  <FORMULA>  (1326) 
C6H11NO

>  <EXACT MASS>  (1326) 
113.084063972

>  <MW>  (1326) 
113

>  <ID>  (1326) 
JP010001

>  <CONTRIBUTOR>  (1326) 
University of Tokyo Team, {Faculty of Engineering, University of Tokyo

>  <COMMENT>  (1326) 
SMILES=CC(C1)CC(=O)NC1
InChI=InChI=1S/C6H11NO/c1-5-2-3-7-6(8)4-5/h5H,2-4H2,1H3,(H,7,8)
computed SMILES=OC1=NCCC(C)C1
accession=JP010001
date=2016.01.19 (Created 2008.10.21, modified 2011.05.06)
author=KURARAY CO., LTD.
license=CC BY-NC-SA
exact mass=113.08406
ionization energy=70 eV
ion type=[M]+*
computed spectral entropy=2.8640187533023718
computed normalized entropy=0.8263811304804647
SPLASH=splash10-08fu-9300000000-665a40c8b470d06b3db4
submitter=submitter = University of Tokyo Team (Faculty of Engineering, University of Tokyo)
MoNA Rating=3.75

>  <NUM PEAKS>  (1326) 
32

>  <MASS SPECTRAL PEAKS>  (1326) 
27 12.2
28 10.4
29 10.4
30 4.2
31 6.8
39 16.4
40 5.3
41 4.98
42 46.1
43 35.5
44 4.5
45 0.28
53 4.8
54 4.5
55 43.4
56 5.01
57 20.1
58 4.9
67 3
68 0.88
69 29
70 7.8
71 16.6
72 0.3
83 5.6
84 9.1
85 14.4
96 0.7
98 3.2
112 17.4
113 99.99
114 9.5

>  <PREDICTED SPECTRUM>  (1326) 
14 10
26 31
27 88
28 136
30 43
38 57
39 364
40 197
41 692
42 717
43 627
44 181
45 34
50 66
51 114
52 83
53 189
54 253
55 316
56 872
57 316
58 21
60 206
62 5
65 12
66 0
67 136
68 165
69 372
70 476
71 435
72 357
73 12
80 190
83 75
84 353
85 474
98 252
112 235
113 999
114 172

$$$$

     RDKit          2D

  8  8  0  0  0  0  0  0  0  0999 V2000
    0.0000    3.0000    0.0000 C   0  0  0  0  0  0  0  0  0  0  0  0
    1.3000    0.7500    0.0000 C   0  0  0  0  0  0  0  0  0  0  0  0
    1.3000   -0.7500    0.0000 C   0  0  0  0  0  0  0  0  0  0  0  0
   -1.3000    0.7500    0.0000 C   0  0  0  0  0  0  0  0  0  0  0  0
    0.0000    1.5000    0.0000 C   0  0  0  0  0  0  0  0  0  0  0  0
   -1.3000   -0.7500    0.0000 C   0  0  0  0  0  0  0  0  0  0  0  0
   -2.5989   -1.5002    0.0000 O   0  0  0  0  0  0  0  0  0  0  0  0
   -0.0000   -1.5000    0.0000 O   0  0  0  0  0  0  0  0  0  0  0  0
  3  2  1  0
  5  1  1  0
  5  2  1  0
  5  4  2  0
  6  4  1  0
  7  6  2  0
  8  3  1  0
  8  6  1  0
M  END
>  <NAME>  (1327) 
4-METHYL-5,6-DIHYDRO-2-PYRONE

>  <SYNONYMS>  (1327) 


>  <SPECTRUM TYPE>  (1327) 
MS1

>  <INSTRUMENT TYPE>  (1327) 
EI-B

>  <INSTRUMENT>  (1327) 
JEOL JMS-D-300

>  <ION MODE>  (1327) 
P

>  <INCHIKEY>  (1327) 
RPEASMBMVIKUTH-UHFFFAOYSA-N

>  <FORMULA>  (1327) 
C6H8O2

>  <EXACT MASS>  (1327) 
112.052429496

>  <MW>  (1327) 
112

>  <ID>  (1327) 
JP010000

>  <CONTRIBUTOR>  (1327) 
University of Tokyo Team, {Faculty of Engineering, University of Tokyo

>  <COMMENT>  (1327) 
SMILES=CC(C1)=CC(=O)OC1
InChI=InChI=1S/C6H8O2/c1-5-2-3-8-6(7)4-5/h4H,2-3H2,1H3
computed SMILES=O=C1OCCC(=C1)C
accession=JP010000
date=2016.01.19 (Created 2008.10.21, modified 2011.05.06)
author=KURARAY CO., LTD.
license=CC BY-NC-SA
exact mass=112.05243
ionization energy=70 eV
ion type=[M]+*
computed spectral entropy=2.27195000911122
computed normalized entropy=0.6893393397427444
SPLASH=splash10-01q9-9300000000-7b008325b519e78dde77
submitter=submitter = University of Tokyo Team (Faculty of Engineering, University of Tokyo)
MoNA Rating=3.75

>  <NUM PEAKS>  (1327) 
27

>  <MASS SPECTRAL PEAKS>  (1327) 
26 3.1
27 14.4
28 6.2
29 0.78
32 2.5
37 2.1
38 5.3
39 4.21
40 2.7
41 4.3
42 7.3
43 0.19
45 1.3
50 3.7
51 4.5
52 0.24
53 14.9
54 38.4
55 13.2
67 0.69
69 1.9
82 99.99
83 11.8
89 0.16
111 1.8
112 77.1
113 5.8

>  <PREDICTED SPECTRUM>  (1327) 
14 15
15 8
25 17
26 140
27 284
28 150
29 100
36 33
37 151
38 262
39 715
40 385
41 628
42 428
43 530
44 207
45 68
49 112
50 295
51 419
52 318
53 608
54 561
55 505
56 293
57 182
58 95
62 1
63 55
65 171
66 164
67 455
68 396
69 544
70 203
71 160
77 179
81 174
82 251
83 260
84 328
85 118
93 42
94 72
95 82
96 74
97 999
98 236
111 342
112 913
113 241

$$$$

     RDKit          2D

  8  8  0  0  0  0  0  0  0  0999 V2000
   -1.6834   -3.0075    0.0000 C   0  0  0  0  0  0  0  0  0  0  0  0
   -0.3829   -2.2600    0.0000 C   0  0  0  0  0  0  0  0  0  0  0  0
   -1.1300    1.5500    0.0000 C   0  0  0  0  0  0  0  0  0  0  0  0
    0.3700    1.5500    0.0000 C   0  0  0  0  0  0  0  0  0  0  0  0
   -1.5900    0.1200    0.0000 C   0  0  0  0  0  0  0  0  0  0  0  0
    0.8400    0.1200    0.0000 C   0  0  0  0  0  0  0  0  0  0  0  0
   -0.3800   -0.7600    0.0000 N   0  0  0  0  0  0  0  0  0  0  0  0
    2.2666   -0.3436    0.0000 O   0  0  0  0  0  0  0  0  0  0  0  0
  2  1  2  0
  4  3  1  0
  5  3  1  0
  6  4  1  0
  7  2  1  0
  7  5  1  0
  7  6  1  0
  8  6  2  0
M  END
>  <NAME>  (1328) 
N-VINYL-2-PYRROLIDONE

>  <SYNONYMS>  (1328) 


>  <SPECTRUM TYPE>  (1328) 
MS1

>  <INSTRUMENT TYPE>  (1328) 
EI-B

>  <INSTRUMENT>  (1328) 
JEOL JMS-D-300

>  <ION MODE>  (1328) 
P

>  <INCHIKEY>  (1328) 
WHNWPMSKXPGLAX-UHFFFAOYSA-N

>  <FORMULA>  (1328) 
C6H9NO

>  <EXACT MASS>  (1328) 
111.068413908

>  <MW>  (1328) 
111

>  <ID>  (1328) 
JP009999

>  <CONTRIBUTOR>  (1328) 
University of Tokyo Team, {Faculty of Engineering, University of Tokyo

>  <COMMENT>  (1328) 
SMILES=C=CN(C1)C(=O)CC1
InChI=InChI=1S/C6H9NO/c1-2-7-5-3-4-6(7)8/h2H,1,3-5H2
computed SMILES=O=C1N(C=C)CCC1
accession=JP009999
date=2016.01.19 (Created 2008.10.21, modified 2011.05.06)
author=KURARAY CO., LTD.
license=CC BY-NC-SA
exact mass=111.06841
ionization energy=70 eV
ion type=[M]+*
computed spectral entropy=2.574737116214493
computed normalized entropy=0.7646305065583844
SPLASH=splash10-0a4i-9000000000-6950aee5a8dd87be76cc
submitter=submitter = University of Tokyo Team (Faculty of Engineering, University of Tokyo)
MoNA Rating=3.75

>  <NUM PEAKS>  (1328) 
29

>  <MASS SPECTRAL PEAKS>  (1328) 
26 5.5
27 20.5
28 3.5
29 0.39
30 3.6
31 2.6
39 8.1
40 0.12
41 17.8
42 13.4
43 8.7
44 0.56
54 12.7
55 38.6
56 99.99
57 0.77
58 3.4
68 12.1
69 3.6
71 2.31
73 5.1
82 10.6
83 10.5
84 0.27
85 3.2
86 3.5
110 3.6
111 7.55
112 6.2

>  <PREDICTED SPECTRUM>  (1328) 
14 11
25 15
26 157
27 349
28 416
29 227
30 189
38 46
39 337
40 226
41 496
42 488
43 134
51 32
52 125
53 245
54 676
55 482
56 724
57 103
66 57
67 269
68 768
69 204
70 73
82 412
83 215
84 103
94 24
96 255
110 181
111 999
112 242

$$$$

     RDKit          2D

  6  5  0  0  0  0  0  0  0  0999 V2000
    0.0000    0.0000    0.0000 C   0  0  0  0  0  0  0  0  0  0  0  0
   -1.2990    2.2500    0.0000 C   0  0  0  0  0  0  0  0  0  0  0  0
   -1.2990    3.7500    0.0000 C   0  0  0  0  0  0  0  0  0  0  0  0
    0.0000    1.5000    0.0000 C   0  0  0  0  0  0  0  0  0  0  0  0
    1.2990    2.2500    0.0000 Cl  0  0  0  0  0  0  0  0  0  0  0  0
   -2.5981    4.5000    0.0000 O   0  0  0  0  0  0  0  0  0  0  0  0
  3  2  1  0
  4  1  1  0
  2  4  2  0
  5  4  1  0
  6  3  1  0
M  END
>  <NAME>  (1329) 
3-CHLORO-2-BUTEN-1-OL

>  <SYNONYMS>  (1329) 


>  <SPECTRUM TYPE>  (1329) 
MS1

>  <INSTRUMENT TYPE>  (1329) 
EI-B

>  <INSTRUMENT>  (1329) 
JEOL JMS-D-300

>  <ION MODE>  (1329) 
P

>  <INCHIKEY>  (1329) 
SRQGZQPUPABHCN-RQOWECAXSA-N

>  <FORMULA>  (1329) 
C4H7ClO

>  <EXACT MASS>  (1329) 
106.018542524

>  <MW>  (1329) 
106

>  <ID>  (1329) 
JP009998

>  <CONTRIBUTOR>  (1329) 
University of Tokyo Team, {Faculty of Engineering, University of Tokyo

>  <COMMENT>  (1329) 
SMILES=OCC=C(C)Cl
InChI=InChI=1S/C4H7ClO/c1-4(5)2-3-6/h2,6H,3H2,1H3/b4-2-
computed SMILES=ClC(=CCO)C
accession=JP009998
author=KURARAY CO., LTD.
date=2016.01.19 (Created 2008.10.21, modified 2011.05.06)
license=CC BY-NC-SA
exact mass=106.01854
ionization energy=70 eV
ion type=[M]+*
computed spectral entropy=2.474792462353528
computed normalized entropy=0.6960760014356464
SPLASH=splash10-00di-9000000000-d263a076367492c40aab
submitter=submitter = University of Tokyo Team (Faculty of Engineering, University of Tokyo)
MoNA Rating=3.75

>  <NUM PEAKS>  (1329) 
35

>  <MASS SPECTRAL PEAKS>  (1329) 
26 2
27 15.2
28 16
29 0.84
31 13.7
32 3.8
36 1
37 0.19
38 3
39 20.2
40 2.8
41 3.65
42 5.4
43 25.5
44 1.4
49 0.22
50 2.3
51 4
52 1.2
53 2.13
54 1.2
55 2.3
61 1.3
63 0.15
65 1.3
69 7.4
70 1.8
71 99.99
72 7.5
89 1.4
91 5.2
93 0.16
105 2.2
106 4.6
108 1.4

>  <PREDICTED SPECTRUM>  (1329) 
14 60
15 184
16 26
17 35
18 52
25 72
26 261
27 629
28 339
29 493
30 2
31 406
32 16
35 118
36 199
37 240
38 394
39 946
40 423
41 999
42 431
43 731
44 187
45 87
47 75
48 5
49 281
50 302
51 383
52 207
53 629
54 317
55 588
56 323
57 276
61 161
62 233
63 231
64 131
65 197
66 231
67 70
69 285
70 306
71 791
72 173
75 379
76 248
77 374
78 69
79 27
88 169
89 126
90 58
91 214
106 300
107 61
108 125

$$$$

     RDKit          2D

  7  6  0  0  0  0  0  0  0  0999 V2000
   -0.9743    0.1875    0.0000 C   0  0  0  0  0  0  0  0  0  0  0  0
    1.6238    1.6875    0.0000 C   0  0  0  0  0  0  0  0  0  0  0  0
   -2.2733    2.4375    0.0000 C   0  0  0  0  0  0  0  0  0  0  0  0
   -0.9743    1.6875    0.0000 C   0  0  0  0  0  0  0  0  0  0  0  0
    0.3248    2.4375    0.0000 C   0  0  0  0  0  0  0  0  0  0  0  0
   -3.5724    1.6875    0.0000 O   0  0  0  0  0  0  0  0  0  0  0  0
    0.3248    3.9375    0.0000 O   0  0  0  0  0  0  0  0  0  0  0  0
  4  1  1  0
  4  3  1  0
  5  2  1  0
  5  4  1  0
  6  3  1  0
  7  5  1  0
M  END
>  <NAME>  (1330) 
-METHYLBUTANE-1,3-DIOL

>  <SYNONYMS>  (1330) 


>  <SPECTRUM TYPE>  (1330) 
MS1

>  <INSTRUMENT TYPE>  (1330) 
EI-B

>  <INSTRUMENT>  (1330) 
JEOL JMS-D-300

>  <ION MODE>  (1330) 
P

>  <INCHIKEY>  (1330) 
GNBPEYCZELNJMS-UHFFFAOYSA-N

>  <FORMULA>  (1330) 
C5H12O2

>  <EXACT MASS>  (1330) 
104.083729624

>  <MW>  (1330) 
104

>  <ID>  (1330) 
JP009997

>  <CONTRIBUTOR>  (1330) 
University of Tokyo Team, {Faculty of Engineering, University of Tokyo

>  <COMMENT>  (1330) 
SMILES=OCC(C)C(C)O
InChI=InChI=1S/C5H12O2/c1-4(3-6)5(2)7/h4-7H,3H2,1-2H3
computed SMILES=OCC(C)C(O)C
accession=JP009997
date=2016.01.19 (Created 2008.10.21, modified 2011.05.06)
author=KURARAY CO., LTD.
license=CC BY-NC-SA
exact mass=104.08373
ionization energy=70 eV
ion type=[M]+*
computed spectral entropy=2.48031100055519
computed normalized entropy=0.7525587889797978
SPLASH=splash10-0a4i-9000000000-ae5f167807d7a2f8d7ad
submitter=submitter = University of Tokyo Team (Faculty of Engineering, University of Tokyo)
MoNA Rating=3.75

>  <NUM PEAKS>  (1330) 
27

>  <MASS SPECTRAL PEAKS>  (1330) 
27 8
29 7.2
31 29.1
39 0.77
40 2
41 28.3
42 4.5
43 9.28
44 3
45 3.8
53 3.1
55 0.45
56 7.5
57 3
58 20.5
59 99.99
60 4.4
61 2
67 1.6
68 0.23
69 9.7
71 27.7
72 2.2
73 0.48
86 4.5
89 21.1
115 5.3

>  <PREDICTED SPECTRUM>  (1330) 
14 35
15 71
16 2
17 16
18 46
19 85
25 11
26 69
27 208
28 141
29 180
30 252
31 369
32 55
33 52
37 28
38 57
39 207
40 67
41 458
42 422
43 668
44 282
45 999
46 136
47 39
50 20
51 25
53 97
54 46
55 281
56 238
57 374
58 322
59 324
60 169
61 56
68 40
69 26
70 50
71 346
72 96
73 60
74 96
85 18
86 148
87 24
89 52

$$$$

     RDKit          2D

  6  5  0  0  0  0  0  0  0  0999 V2000
    0.0000    0.0000    0.0000 C   0  0  0  0  0  0  0  0  0  0  0  0
   -1.2990    2.2500    0.0000 C   0  0  0  0  0  0  0  0  0  0  0  0
   -1.2990    3.7500    0.0000 C   0  0  0  0  0  0  0  0  0  0  0  0
    0.0000    1.5000    0.0000 C   0  0  0  0  0  0  0  0  0  0  0  0
   -2.5981    4.5000    0.0000 Cl  0  0  0  0  0  0  0  0  0  0  0  0
    1.2990    2.2500    0.0000 O   0  0  0  0  0  0  0  0  0  0  0  0
  2  3  2  0
  4  1  1  0
  4  2  1  0
  5  3  1  0
  6  4  2  0
M  END
>  <NAME>  (1331) 
4-CHLORO-3-BUTEN-2-ONE

>  <SYNONYMS>  (1331) 
-BUTENE-3-ONE-1-CHLORO

>  <SPECTRUM TYPE>  (1331) 
MS1

>  <INSTRUMENT TYPE>  (1331) 
EI-B

>  <INSTRUMENT>  (1331) 
JEOL JMS-D-300

>  <ION MODE>  (1331) 
P

>  <INCHIKEY>  (1331) 
HTPABEPAZTWGPP-NSCUHMNNSA-N

>  <FORMULA>  (1331) 
C4H5ClO

>  <EXACT MASS>  (1331) 
104.00289246

>  <MW>  (1331) 
104

>  <ID>  (1331) 
JP009996

>  <CONTRIBUTOR>  (1331) 
University of Tokyo Team, {Faculty of Engineering, University of Tokyo

>  <COMMENT>  (1331) 
SMILES=CC(=O)C=CCl
InChI=InChI=1S/C4H5ClO/c1-4(6)2-3-5/h2-3H,1H3/b3-2+
computed SMILES=O=C(C=CCl)C
accession=JP009996
date=2016.01.19 (Created 2008.10.21, modified 2011.05.06)
author=KURARAY CO., LTD.
license=CC BY-NC-SA
exact mass=104.00289
ionization energy=70 eV
ion type=[M]+*
computed spectral entropy=1.5996371929826232
computed normalized entropy=0.6236525443783975
SPLASH=splash10-000l-9100000000-0e6c8b326b428c8de8d2
submitter=submitter = University of Tokyo Team (Faculty of Engineering, University of Tokyo)
MoNA Rating=3.75

>  <NUM PEAKS>  (1331) 
13

>  <MASS SPECTRAL PEAKS>  (1331) 
26 1.9
43 30.6
60 1.1
61 1.84
62 1.1
63 5.8
89 99.99
90 0.33
91 33.8
92 1.3
104 27
105 0.11
106 9

>  <PREDICTED SPECTRUM>  (1331) 
14 50
15 21
16 7
25 23
26 112
27 59
33 2
35 1
36 17
37 19
39 40
41 62
42 31
43 477
44 33
50 69
51 53
53 68
61 280
62 127
63 215
64 3
69 236
87 31
89 999
90 86
91 641
92 98
104 477
105 80
106 283

$$$$

     RDKit          2D

  7  6  0  0  0  0  0  0  0  0999 V2000
    1.9486    2.6250    0.0000 C   0  0  0  0  0  0  0  0  0  0  0  0
   -0.6495    1.1250    0.0000 C   0  0  0  0  0  0  0  0  0  0  0  0
    0.6495    3.3750    0.0000 C   0  0  0  0  0  0  0  0  0  0  0  0
   -1.9486    3.3750    0.0000 C   0  0  0  0  0  0  0  0  0  0  0  0
   -3.2476    2.6250    0.0000 C   0  0  0  0  0  0  0  0  0  0  0  0
   -0.6495    2.6250    0.0000 C   0  0  0  0  0  0  0  0  0  0  0  0
   -4.5466    3.3750    0.0000 O   0  0  0  0  0  0  0  0  0  0  0  0
  3  1  1  0
  5  4  1  0
  6  2  1  0
  6  3  1  0
  6  4  1  0
  7  5  1  0
M  END
>  <NAME>  (1332) 
3-METHYLPENTANOL

>  <SYNONYMS>  (1332) 


>  <SPECTRUM TYPE>  (1332) 
MS1

>  <INSTRUMENT TYPE>  (1332) 
EI-B

>  <INSTRUMENT>  (1332) 
JEOL JMS-D-300

>  <ION MODE>  (1332) 
P

>  <INCHIKEY>  (1332) 
IWTBVKIGCDZRPL-UHFFFAOYSA-N

>  <FORMULA>  (1332) 
C6H14O

>  <EXACT MASS>  (1332) 
102.104465068

>  <MW>  (1332) 
102

>  <ID>  (1332) 
JP009995

>  <CONTRIBUTOR>  (1332) 
University of Tokyo Team, {Faculty of Engineering, University of Tokyo

>  <COMMENT>  (1332) 
SMILES=OCCC(C)CC
InChI=InChI=1S/C6H14O/c1-3-6(2)4-5-7/h6-7H,3-5H2,1-2H3
computed SMILES=OCCC(C)CC
accession=JP009995
date=2016.01.19 (Created 2008.10.21, modified 2011.05.06)
author=KURARAY CO., LTD.
license=CC BY-NC-SA
exact mass=102.10447
ionization energy=70 eV
ion type=[M]+*
computed spectral entropy=2.4656219253057077
computed normalized entropy=0.7180055656833396
SPLASH=splash10-0a4l-9000000000-36ef332a1a165815accb
submitter=submitter = University of Tokyo Team (Faculty of Engineering, University of Tokyo)
MoNA Rating=3.75

>  <NUM PEAKS>  (1332) 
31

>  <MASS SPECTRAL PEAKS>  (1332) 
26 1.2
27 17.7
28 12.9
29 3.49
31 29.6
32 1.4
39 12.9
40 0.21
41 62.7
42 19.3
43 68.1
44 0.42
45 10.6
46 4.2
51 1
53 0.33
54 2.3
55 83.4
56 99.99
57 3.48
58 1.1
59 1.2
67 1.1
69 7.82
70 4.9
71 4.5
73 1.4
83 0.21
84 21.3
85 2.5
135 1

>  <PREDICTED SPECTRUM>  (1332) 
19 26
26 97
27 454
28 188
29 501
30 42
31 382
32 40
37 7
38 73
39 444
40 157
41 881
42 490
43 655
44 168
45 239
46 73
47 33
50 94
51 181
52 33
53 228
54 187
55 953
56 999
57 696
58 150
65 59
67 173
69 769
70 588
71 102
72 101
73 148
77 65
81 28
83 291
84 400
85 112

$$$$

     RDKit          2D

  7  6  0  0  0  0  0  0  0  0999 V2000
    1.6238    1.6875    0.0000 C   0  0  0  0  0  0  0  0  0  0  0  0
    0.3248    3.9375    0.0000 C   0  0  0  0  0  0  0  0  0  0  0  0
   -0.9743    0.1875    0.0000 C   0  0  0  0  0  0  0  0  0  0  0  0
   -2.2733    2.4375    0.0000 C   0  0  0  0  0  0  0  0  0  0  0  0
    0.3248    2.4375    0.0000 C   0  0  0  0  0  0  0  0  0  0  0  0
   -0.9743    1.6875    0.0000 C   0  0  0  0  0  0  0  0  0  0  0  0
   -3.5724    1.6875    0.0000 O   0  0  0  0  0  0  0  0  0  0  0  0
  5  1  1  0
  5  2  1  0
  6  3  1  0
  6  4  1  0
  6  5  1  0
  7  4  1  0
M  END
>  <NAME>  (1333) 
2,3-DIMETHYLBUTANOL

>  <SYNONYMS>  (1333) 


>  <SPECTRUM TYPE>  (1333) 
MS1

>  <INSTRUMENT TYPE>  (1333) 
EI-B

>  <INSTRUMENT>  (1333) 
JEOL JMS-D-300

>  <ION MODE>  (1333) 
P

>  <INCHIKEY>  (1333) 
SXSWMAUXEHKFGX-UHFFFAOYSA-N

>  <FORMULA>  (1333) 
C6H14O

>  <EXACT MASS>  (1333) 
102.104465068

>  <MW>  (1333) 
102

>  <ID>  (1333) 
JP009994

>  <CONTRIBUTOR>  (1333) 
University of Tokyo Team, {Faculty of Engineering, University of Tokyo

>  <COMMENT>  (1333) 
SMILES=OCC(C)C(C)C
InChI=InChI=1S/C6H14O/c1-5(2)6(3)4-7/h5-7H,4H2,1-3H3
computed SMILES=OCC(C)C(C)C
accession=JP009994
date=2016.01.19 (Created 2008.10.21, modified 2011.05.06)
author=KURARAY CO., LTD.
license=CC BY-NC-SA
exact mass=102.10447
ionization energy=70 eV
ion type=[M]+*
computed spectral entropy=2.2813174841494632
computed normalized entropy=0.7087311248618525
SPLASH=splash10-006x-9000000000-537d56f26d526fe6977a
submitter=submitter = University of Tokyo Team (Faculty of Engineering, University of Tokyo)
MoNA Rating=3.75

>  <NUM PEAKS>  (1333) 
25

>  <MASS SPECTRAL PEAKS>  (1333) 
27 10.4
28 8.6
29 12.9
31 1.67
32 1.7
39 8.4
40 1.3
41 3.25
42 27.3
43 99.99
44 3.2
45 1.22
53 1.9
55 12.5
56 7.7
57 0.47
58 1.5
59 5.8
61 1.1
69 2.86
70 11.7
71 55.8
72 3.5
84 2.03
85 1.8

>  <PREDICTED SPECTRUM>  (1333) 
14 40
15 131
16 19
17 18
18 52
19 44
25 12
26 103
27 437
28 242
29 445
30 107
31 435
32 75
37 23
38 66
39 386
40 130
41 762
42 365
43 999
44 193
45 273
50 43
51 84
52 24
53 138
54 35
55 631
56 372
57 679
58 132
59 294
60 164
65 33
69 262
70 325
71 486
72 247
73 47
83 21
84 89

$$$$

     RDKit          2D

  7  6  0  0  0  0  0  0  0  0999 V2000
    1.9486    2.6250    0.0000 C   0  0  0  0  0  0  0  0  0  0  0  0
   -0.6495    1.1250    0.0000 C   0  0  0  0  0  0  0  0  0  0  0  0
    0.6495    3.3750    0.0000 C   0  0  0  0  0  0  0  0  0  0  0  0
   -1.9486    3.3750    0.0000 C   0  0  0  0  0  0  0  0  0  0  0  0
   -3.2476    2.6250    0.0000 C   0  0  0  0  0  0  0  0  0  0  0  0
   -0.6495    2.6250    0.0000 C   0  0  0  0  0  0  0  0  0  0  0  0
   -4.5466    3.3750    0.0000 O   0  0  0  0  0  0  0  0  0  0  0  0
  3  1  2  0
  5  4  1  0
  6  2  1  0
  6  3  1  0
  6  4  1  0
  7  5  1  0
M  END
>  <NAME>  (1334) 
3-METHYL-4-PENTEN-1-OL

>  <SYNONYMS>  (1334) 


>  <SPECTRUM TYPE>  (1334) 
MS1

>  <INSTRUMENT TYPE>  (1334) 
EI-B

>  <INSTRUMENT>  (1334) 
JEOL JMS-D-300

>  <ION MODE>  (1334) 
P

>  <INCHIKEY>  (1334) 
VTCQTYOGWYLVES-UHFFFAOYSA-N

>  <FORMULA>  (1334) 
C6H12O

>  <EXACT MASS>  (1334) 
100.088815004

>  <MW>  (1334) 
100

>  <ID>  (1334) 
JP009993

>  <CONTRIBUTOR>  (1334) 
University of Tokyo Team, {Faculty of Engineering, University of Tokyo

>  <COMMENT>  (1334) 
SMILES=OCCC(C)C=C
InChI=InChI=1S/C6H12O/c1-3-6(2)4-5-7/h3,6-7H,1,4-5H2,2H3
computed SMILES=OCCC(C=C)C
accession=JP009993
date=2016.01.19 (Created 2008.10.21, modified 2011.05.06)
author=KURARAY CO., LTD.
license=CC BY-NC-SA
exact mass=100.08882
ionization energy=70 eV
ion type=[M]+*
computed spectral entropy=1.996032214945758
computed normalized entropy=0.8668657766520681
SPLASH=splash10-066r-9000000000-edafbb53c8623d8d69cd
submitter=submitter = University of Tokyo Team (Faculty of Engineering, University of Tokyo)
MoNA Rating=3.75

>  <NUM PEAKS>  (1334) 
10

>  <MASS SPECTRAL PEAKS>  (1334) 
28 13.5
29 30.3
32 2.8
41 7.44
42 32.9
55 83.1
56 40.6
67 99.99
69 27.9
82 34.6

>  <PREDICTED SPECTRUM>  (1334) 
14 25
15 5
18 1
19 33
25 30
26 157
27 483
28 232
29 400
30 130
31 335
32 40
36 30
37 76
38 149
39 536
40 209
41 727
42 289
43 523
44 220
45 353
46 107
47 21
49 102
50 140
51 187
52 118
53 325
54 439
55 999
56 677
57 390
58 225
59 3
63 73
65 158
66 110
67 523
68 354
69 155
70 301
71 337
72 207
73 57
81 176
82 227
83 49
85 159
100 0

$$$$

     RDKit          2D

  7  7  0  0  0  0  0  0  0  0999 V2000
   -0.0000   -1.5000    0.0000 C   0  0  0  0  0  0  0  0  0  0  0  0
   -1.3000    0.7500    0.0000 C   0  0  0  0  0  0  0  0  0  0  0  0
    1.3000    0.7500    0.0000 C   0  0  0  0  0  0  0  0  0  0  0  0
   -1.3000    2.2500    0.0000 C   0  0  0  0  0  0  0  0  0  0  0  0
    1.3000    2.2500    0.0000 C   0  0  0  0  0  0  0  0  0  0  0  0
   -0.0000    0.0000    0.0000 C   0  0  0  0  0  0  0  0  0  0  0  0
    0.0000    3.0000    0.0000 O   0  0  0  0  0  0  0  0  0  0  0  0
  4  2  1  0
  5  3  1  0
  6  1  1  0
  6  2  1  0
  6  3  1  0
  7  4  1  0
  7  5  1  0
M  END
>  <NAME>  (1335) 
4-METHYLTETRAHYDROPYRAN

>  <SYNONYMS>  (1335) 


>  <SPECTRUM TYPE>  (1335) 
MS1

>  <INSTRUMENT TYPE>  (1335) 
EI-B

>  <INSTRUMENT>  (1335) 
JEOL JMS-D-300

>  <ION MODE>  (1335) 
P

>  <INCHIKEY>  (1335) 
OVRKATYHWPCGPZ-UHFFFAOYSA-N

>  <FORMULA>  (1335) 
C6H12O

>  <EXACT MASS>  (1335) 
100.088815004

>  <MW>  (1335) 
100

>  <ID>  (1335) 
JP009992

>  <CONTRIBUTOR>  (1335) 
University of Tokyo Team, {Faculty of Engineering, University of Tokyo

>  <COMMENT>  (1335) 
SMILES=CC(C1)CCOC1
InChI=InChI=1S/C6H12O/c1-6-2-4-7-5-3-6/h6H,2-5H2,1H3
computed SMILES=O1CCC(C)CC1
accession=JP009992
date=2016.01.19 (Created 2008.10.21, modified 2011.05.06)
author=KURARAY CO., LTD.
license=CC BY-NC-SA
exact mass=100.08882
ionization energy=70 eV
ion type=[M]+*
computed spectral entropy=2.738427708485432
computed normalized entropy=0.7765592001638871
SPLASH=splash10-052g-9000000000-e5c6f48a406e81ded687
submitter=submitter = University of Tokyo Team (Faculty of Engineering, University of Tokyo)
MoNA Rating=3.75

>  <NUM PEAKS>  (1335) 
34

>  <MASS SPECTRAL PEAKS>  (1335) 
26 3.6
27 15.1
28 7.7
29 1.21
31 5.6
38 3.7
39 17.1
40 0.37
41 35.1
42 94.2
43 25.8
44 0.45
45 25
50 3.4
51 1.2
53 0.6
54 7.1
55 99.99
56 13.5
57 1.1
58 5.1
67 35.1
68 10.4
69 1.21
70 38.2
71 9.3
81 9.9
82 2.9
83 5.1
85 6.2
99 91
100 7.1
101 4.9
104 2.7

>  <PREDICTED SPECTRUM>  (1335) 
14 34
15 111
16 8
18 3
25 17
26 198
27 536
28 388
29 490
30 299
31 199
32 22
33 5
37 111
38 178
39 661
40 322
41 949
42 759
43 492
44 220
45 147
49 29
50 195
51 249
52 156
53 339
54 468
55 929
56 999
57 515
58 264
59 225
65 111
66 90
67 573
68 596
69 474
70 657
71 416
72 216
73 67
77 71
78 24
79 41
81 259
82 445
83 197
85 251
86 10
97 13
99 244
100 239
101 65

$$$$

     RDKit          2D

  7  7  0  0  0  0  0  0  0  0999 V2000
   -0.0000   -1.5000    0.0000 C   0  0  0  0  0  0  0  0  0  0  0  0
   -1.3000    2.2500    0.0000 C   0  0  0  0  0  0  0  0  0  0  0  0
    1.3000    2.2500    0.0000 C   0  0  0  0  0  0  0  0  0  0  0  0
   -1.3000    0.7500    0.0000 C   0  0  0  0  0  0  0  0  0  0  0  0
    1.3000    0.7500    0.0000 C   0  0  0  0  0  0  0  0  0  0  0  0
    0.0000    3.0000    0.0000 N   0  0  0  0  0  0  0  0  0  0  0  0
   -0.0000    0.0000    0.0000 N   0  0  0  0  0  0  0  0  0  0  0  0
  4  2  1  0
  5  3  1  0
  6  2  1  0
  6  3  1  0
  7  1  1  0
  7  4  1  0
  7  5  1  0
M  END
>  <NAME>  (1336) 
1-METHYLPYPERAZINE

>  <SYNONYMS>  (1336) 


>  <SPECTRUM TYPE>  (1336) 
MS1

>  <INSTRUMENT TYPE>  (1336) 
EI-B

>  <INSTRUMENT>  (1336) 
JEOL JMS-D-300

>  <ION MODE>  (1336) 
P

>  <INCHIKEY>  (1336) 
PVOAHINGSUIXLS-UHFFFAOYSA-N

>  <FORMULA>  (1336) 
C5H12N2

>  <EXACT MASS>  (1336) 
100.10004838399999

>  <MW>  (1336) 
100

>  <ID>  (1336) 
JP009991

>  <CONTRIBUTOR>  (1336) 
University of Tokyo Team, {Faculty of Engineering, University of Tokyo

>  <COMMENT>  (1336) 
SMILES=CN(C1)CCNC1
InChI=InChI=1S/C5H12N2/c1-7-4-2-6-3-5-7/h6H,2-5H2,1H3
computed SMILES=N1CCN(C)CC1
accession=JP009991
date=2016.01.19 (Created 2008.10.21, modified 2011.05.06)
author=KURARAY CO., LTD.
license=CC BY-NC-SA
exact mass=100.10005
ionization energy=70 eV
ion type=[M]+*
computed spectral entropy=2.299696080512489
computed normalized entropy=0.7439872195912239
SPLASH=splash10-0a4l-9100000000-cc1382f5f5cd0d361c01
submitter=submitter = University of Tokyo Team (Faculty of Engineering, University of Tokyo)
MoNA Rating=3.75

>  <NUM PEAKS>  (1336) 
22

>  <MASS SPECTRAL PEAKS>  (1336) 
26 1.8
27 8.2
28 11.5
29 1.64
30 13.6
40 2.7
41 6.6
42 4.08
43 58.4
44 21
45 1.9
54 0.29
55 2.6
56 26.2
57 15.9
58 99.99
59 6
70 7.4
71 3.4
99 0.22
100 58.8
101 3.6

>  <PREDICTED SPECTRUM>  (1336) 
14 53
15 208
16 21
18 7
25 7
26 103
27 182
28 307
29 242
30 527
31 60
32 28
33 5
37 12
38 79
39 86
40 205
41 301
42 999
43 723
44 709
45 204
46 73
52 59
53 81
54 239
55 207
56 755
57 634
58 893
59 251
60 70
67 23
68 120
69 140
70 443
71 278
72 122
83 213
84 15
85 145
86 7
97 23
99 187
100 590
101 127

$$$$

     RDKit          2D

  7  6  0  0  0  0  0  0  0  0999 V2000
   -1.9486    4.1250    0.0000 C   0  0  0  0  0  0  0  0  0  0  0  0
   -0.6495    3.3750    0.0000 C   0  0  0  0  0  0  0  0  0  0  0  0
   -3.2476    3.3750    0.0000 C   0  0  0  0  0  0  0  0  0  0  0  0
    0.6495    4.1250    0.0000 C   0  0  0  0  0  0  0  0  0  0  0  0
   -4.5466    4.1250    0.0000 C   0  0  0  0  0  0  0  0  0  0  0  0
    1.9486    3.3750    0.0000 O   0  0  0  0  0  0  0  0  0  0  0  0
   -5.8457    3.3750    0.0000 O   0  0  0  0  0  0  0  0  0  0  0  0
  2  1  1  0
  3  1  1  0
  4  2  1  0
  5  3  1  0
  6  4  2  0
  7  5  2  0
M  END
>  <NAME>  (1337) 
PENTANE-1,5-DIAL

>  <SYNONYMS>  (1337) 


>  <SPECTRUM TYPE>  (1337) 
MS1

>  <INSTRUMENT TYPE>  (1337) 
EI-B

>  <INSTRUMENT>  (1337) 
JEOL JMS-D-300

>  <ION MODE>  (1337) 
P

>  <INCHIKEY>  (1337) 
SXRSQZLOMIGNAQ-UHFFFAOYSA-N

>  <FORMULA>  (1337) 
C5H8O2

>  <EXACT MASS>  (1337) 
100.052429496

>  <MW>  (1337) 
100

>  <ID>  (1337) 
JP009990

>  <CONTRIBUTOR>  (1337) 
University of Tokyo Team, {Faculty of Engineering, University of Tokyo

>  <COMMENT>  (1337) 
SMILES=O=CCCCC=O
InChI=InChI=1S/C5H8O2/c6-4-2-1-3-5-7/h4-5H,1-3H2
computed SMILES=O=CCCCC=O
accession=JP009990
date=2016.01.19 (Created 2008.10.21, modified 2011.05.06)
author=KURARAY CO., LTD.
license=CC BY-NC-SA
exact mass=100.05243
ionization energy=70 eV
ion type=[M]+*
computed spectral entropy=2.3967253429846105
computed normalized entropy=0.7271978075450845
SPLASH=splash10-0006-9000000000-0a4ee2dd933655592450
submitter=submitter = University of Tokyo Team (Faculty of Engineering, University of Tokyo)
MoNA Rating=3.75

>  <NUM PEAKS>  (1337) 
27

>  <MASS SPECTRAL PEAKS>  (1337) 
26 3.3
27 34.3
28 9.4
29 3.17
30 1.1
31 3.3
37 1.1
38 0.21
39 16.2
40 2
41 33.1
42 0.82
43 35.1
44 99.99
45 3.5
53 0.31
54 3.5
55 8.5
56 1.8
57 2.24
58 1.1
71 3.5
72 36.4
73 0.16
81 8.5
82 36.2
83 2.1

>  <PREDICTED SPECTRUM>  (1337) 
14 13
15 41
16 28
17 36
18 57
19 12
25 47
26 201
27 513
28 317
29 545
30 156
31 234
32 16
34 10
35 9
36 103
37 121
38 219
39 612
40 275
41 775
42 344
43 486
44 426
45 187
47 36
49 9
50 88
51 87
52 104
53 387
54 450
55 313
56 999
57 543
58 234
62 2
63 33
65 160
66 35
67 345
68 161
69 111
71 285
72 276
73 34
81 299
82 369
83 268
84 15
85 30
99 87
100 28

$$$$

     RDKit          2D

  7  6  0  0  0  0  0  0  0  0999 V2000
   -3.8971    2.2500    0.0000 C   0  0  0  0  0  0  0  0  0  0  0  0
    1.2990    2.2500    0.0000 C   0  0  0  0  0  0  0  0  0  0  0  0
   -0.0000    0.0000    0.0000 C   0  0  0  0  0  0  0  0  0  0  0  0
   -2.5981    1.5000    0.0000 C   0  0  0  0  0  0  0  0  0  0  0  0
    0.0000    1.5000    0.0000 C   0  0  0  0  0  0  0  0  0  0  0  0
   -1.2990    2.2500    0.0000 C   0  0  0  0  0  0  0  0  0  0  0  0
   -1.2990    3.7500    0.0000 O   0  0  0  0  0  0  0  0  0  0  0  0
  4  1  2  0
  5  2  1  0
  5  3  1  0
  6  4  1  0
  6  5  1  0
  7  6  2  0
M  END
>  <NAME>  (1338) 
4-METHYL-1-PENTEN-3-ONE

>  <SYNONYMS>  (1338) 


>  <SPECTRUM TYPE>  (1338) 
MS1

>  <INSTRUMENT TYPE>  (1338) 
EI-B

>  <INSTRUMENT>  (1338) 
JEOL JMS-D-300

>  <ION MODE>  (1338) 
P

>  <INCHIKEY>  (1338) 
SNOYUTZWILESAI-UHFFFAOYSA-N

>  <FORMULA>  (1338) 
C6H10O

>  <EXACT MASS>  (1338) 
98.07316494

>  <MW>  (1338) 
98

>  <ID>  (1338) 
JP009989

>  <CONTRIBUTOR>  (1338) 
University of Tokyo Team, {Faculty of Engineering, University of Tokyo

>  <COMMENT>  (1338) 
SMILES=C=CC(=O)C(C)C
InChI=InChI=1S/C6H10O/c1-4-6(7)5(2)3/h4-5H,1H2,2-3H3
computed SMILES=O=C(C=C)C(C)C
accession=JP009989
date=2016.01.19 (Created 2008.10.21, modified 2011.05.06)
author=KURARAY CO., LTD.
license=CC BY-NC-SA
exact mass=98.07316
ionization energy=70 eV
ion type=[M]+*
computed spectral entropy=1.679674275900553
computed normalized entropy=0.675950654341021
SPLASH=splash10-0a4i-9000000000-818d4c2d02460b513de2
submitter=submitter = University of Tokyo Team (Faculty of Engineering, University of Tokyo)
MoNA Rating=3.75

>  <NUM PEAKS>  (1338) 
12

>  <MASS SPECTRAL PEAKS>  (1338) 
27 20.3
28 3.4
29 2.3
39 0.47
41 11.2
42 2.6
43 18.8
55 99.99
56 8.8
69 2.5
70 11
98 9.1

>  <PREDICTED SPECTRUM>  (1338) 
14 59
15 117
25 48
26 232
27 647
28 336
29 301
36 10
37 56
38 110
39 516
40 200
41 459
42 232
43 999
44 105
45 57
50 129
51 230
52 196
53 340
54 259
55 895
56 345
57 26
65 66
69 165
70 323
71 417
72 5
83 494
84 42
97 233
98 356
99 76

$$$$

     RDKit          2D

  7  6  0  0  0  0  0  0  0  0999 V2000
    1.9486    2.6250    0.0000 C   0  0  0  0  0  0  0  0  0  0  0  0
   -0.6495    1.1250    0.0000 C   0  0  0  0  0  0  0  0  0  0  0  0
    0.6495    3.3750    0.0000 C   0  0  0  0  0  0  0  0  0  0  0  0
   -1.9486    3.3750    0.0000 C   0  0  0  0  0  0  0  0  0  0  0  0
   -3.2476    2.6250    0.0000 C   0  0  0  0  0  0  0  0  0  0  0  0
   -0.6495    2.6250    0.0000 C   0  0  0  0  0  0  0  0  0  0  0  0
   -4.5466    3.3750    0.0000 O   0  0  0  0  0  0  0  0  0  0  0  0
  3  1  2  0
  5  4  1  0
  6  2  1  0
  6  3  1  0
  4  6  2  0
  7  5  1  0
M  END
>  <NAME>  (1339) 
3-METHYL-2,4-PENTADIEN-1-OL

>  <SYNONYMS>  (1339) 


>  <SPECTRUM TYPE>  (1339) 
MS1

>  <INSTRUMENT TYPE>  (1339) 
EI-B

>  <INSTRUMENT>  (1339) 
JEOL JMS-D-300

>  <ION MODE>  (1339) 
P

>  <INCHIKEY>  (1339) 
MOBKGOLFIBXIOP-GQCTYLIASA-N

>  <FORMULA>  (1339) 
C6H10O

>  <EXACT MASS>  (1339) 
98.07316494

>  <MW>  (1339) 
98

>  <ID>  (1339) 
JP009988

>  <CONTRIBUTOR>  (1339) 
University of Tokyo Team, {Faculty of Engineering, University of Tokyo

>  <COMMENT>  (1339) 
SMILES=OCC=C(C)C=C
InChI=InChI=1S/C6H10O/c1-3-6(2)4-5-7/h3-4,7H,1,5H2,2H3/b6-4+
computed SMILES=OCC=C(C=C)C
accession=JP009988
date=2016.01.19 (Created 2008.10.21, modified 2011.05.06)
author=KURARAY CO., LTD.
license=CC BY-NC-SA
exact mass=98.07316
ionization energy=70 eV
ion type=[M]+*
computed spectral entropy=2.9326652374802338
computed normalized entropy=0.7749784025605678
SPLASH=splash10-05ox-9000000000-30208a5aa6a3e2a09199
submitter=submitter = University of Tokyo Team (Faculty of Engineering, University of Tokyo)
MoNA Rating=3.75

>  <NUM PEAKS>  (1339) 
44

>  <MASS SPECTRAL PEAKS>  (1339) 
26 3
27 29.1
28 45.6
29 2.21
31 9.2
32 7.4
37 1.8
38 0.43
39 48.2
40 3.1
41 99.99
42 1.35
43 45.2
44 3.5
45 3.5
49 0.1
50 7
51 11.8
52 6.5
53 2.96
54 7.2
55 61.8
56 15.6
57 0.84
62 1.6
63 2.5
65 8.7
66 0.32
67 7.4
68 2.3
69 90.2
70 2.71
71 5.7
77 10.3
78 1.3
79 1.95
80 10.4
81 7.6
82 1.4
83 6.04
84 3.9
97 9.4
98 21
99 1.6

>  <PREDICTED SPECTRUM>  (1339) 
25 9
26 92
27 296
28 176
29 209
31 172
32 15
37 83
38 147
39 611
40 240
41 859
42 376
43 763
44 239
45 153
49 39
50 201
51 285
52 212
53 460
54 289
55 724
56 336
57 208
61 10
62 64
63 139
65 224
66 143
67 371
68 160
69 999
70 446
71 312
77 282
78 128
79 399
80 412
81 285
82 8
83 527
84 101
95 11
96 34
97 280
98 528
99 116

$$$$

     RDKit          2D

  7  7  0  0  0  0  0  0  0  0999 V2000
   -0.0000   -1.5000    0.0000 C   0  0  0  0  0  0  0  0  0  0  0  0
   -1.3000    0.7500    0.0000 C   0  0  0  0  0  0  0  0  0  0  0  0
    1.3000    0.7500    0.0000 C   0  0  0  0  0  0  0  0  0  0  0  0
   -1.3000    2.2500    0.0000 C   0  0  0  0  0  0  0  0  0  0  0  0
    1.3000    2.2500    0.0000 C   0  0  0  0  0  0  0  0  0  0  0  0
   -0.0000    0.0000    0.0000 C   0  0  0  0  0  0  0  0  0  0  0  0
    0.0000    3.0000    0.0000 O   0  0  0  0  0  0  0  0  0  0  0  0
  4  2  1  0
  5  3  1  0
  6  1  1  0
  6  2  2  0
  6  3  1  0
  7  4  1  0
  7  5  1  0
M  END
>  <NAME>  (1340) 
4-METHYL-5,6-DIHYDRO-2H-PYRAN

>  <SYNONYMS>  (1340) 


>  <SPECTRUM TYPE>  (1340) 
MS1

>  <INSTRUMENT TYPE>  (1340) 
EI-B

>  <INSTRUMENT>  (1340) 
JEOL JMS-D-300

>  <ION MODE>  (1340) 
P

>  <INCHIKEY>  (1340) 
PQGPYWUIWWYUGU-UHFFFAOYSA-N

>  <FORMULA>  (1340) 
C6H10O

>  <EXACT MASS>  (1340) 
98.07316494

>  <MW>  (1340) 
98

>  <ID>  (1340) 
JP009987

>  <CONTRIBUTOR>  (1340) 
University of Tokyo Team, {Faculty of Engineering, University of Tokyo

>  <COMMENT>  (1340) 
SMILES=CC(C1)=CCOC1
InChI=InChI=1S/C6H10O/c1-6-2-4-7-5-3-6/h2H,3-5H2,1H3
computed SMILES=O1CC=C(C)CC1
accession=JP009987
date=2016.01.19 (Created 2008.10.21, modified 2011.05.06)
author=KURARAY CO., LTD.
license=CC BY-NC-SA
exact mass=98.07316
ionization energy=70 eV
ion type=[M]+*
computed spectral entropy=2.8590469102824554
computed normalized entropy=0.7555242170361622
SPLASH=splash10-00ls-9000000000-19ddaa966f1e45981896
submitter=submitter = University of Tokyo Team (Faculty of Engineering, University of Tokyo)
MoNA Rating=3.75

>  <NUM PEAKS>  (1340) 
44

>  <MASS SPECTRAL PEAKS>  (1340) 
26 1.8
27 16.4
28 33.3
29 0.88
31 1.2
32 9
36 2.3
38 0.23
39 19.5
40 12
41 47
42 0.91
43 13.3
44 2.3
49 4.2
50 0.18
51 4
52 1.4
53 18.7
54 0.23
55 28.4
56 3.6
57 1.7
61 0.17
62 6.8
63 2.1
64 2.3
65 0.32
66 1.9
67 31.3
68 22.9
69 3.25
70 7
71 1
76 1.2
77 0.16
79 3.2
81 2.3
83 99.99
84 0.52
89 1.2
97 8.8
98 61
99 6.4

>  <PREDICTED SPECTRUM>  (1340) 
14 51
15 98
18 14
19 4
25 41
26 194
27 443
28 276
29 219
30 71
31 80
32 32
36 61
37 168
38 251
39 721
40 386
41 686
42 307
43 476
44 125
49 116
50 223
51 272
52 179
53 464
54 226
55 508
56 238
57 175
58 81
62 65
63 87
65 164
66 122
67 513
68 418
69 277
70 170
71 137
72 13
79 88
80 70
81 220
82 27
83 999
84 198
97 345
98 674
99 119

$$$$

     RDKit          2D

  7  7  0  0  0  0  0  0  0  0999 V2000
   -3.0958    1.4497    0.0000 C   0  0  0  0  0  0  0  0  0  0  0  0
    1.7179   -0.7016    0.0000 C   0  0  0  0  0  0  0  0  0  0  0  0
   -0.8541   -0.0068    0.0000 C   0  0  0  0  0  0  0  0  0  0  0  0
   -1.6041    1.2923    0.0000 C   0  0  0  0  0  0  0  0  0  0  0  0
    0.6057    0.3049    0.0000 C   0  0  0  0  0  0  0  0  0  0  0  0
   -0.6043    2.4006    0.0000 N   0  0  0  0  0  0  0  0  0  0  0  0
    0.7714    1.7978    0.0000 O   0  0  0  0  0  0  0  0  0  0  0  0
  4  1  1  0
  4  3  1  0
  5  2  1  0
  5  3  2  0
  6  4  2  0
  7  5  1  0
  7  6  1  0
M  END
>  <NAME>  (1341) 
3,5-DIMETHYLISOXAZOLE

>  <SYNONYMS>  (1341) 


>  <SPECTRUM TYPE>  (1341) 
MS1

>  <INSTRUMENT TYPE>  (1341) 
EI-B

>  <INSTRUMENT>  (1341) 
JEOL JMS-D-300

>  <ION MODE>  (1341) 
P

>  <INCHIKEY>  (1341) 
FICAQKBMCKEFDI-UHFFFAOYSA-N

>  <FORMULA>  (1341) 
C5H7NO

>  <EXACT MASS>  (1341) 
97.052763844

>  <MW>  (1341) 
97

>  <ID>  (1341) 
JP009986

>  <CONTRIBUTOR>  (1341) 
University of Tokyo Team, {Faculty of Engineering, University of Tokyo

>  <COMMENT>  (1341) 
SMILES=Cc(n1)cc(C)o1
InChI=InChI=1S/C5H7NO/c1-4-3-5(2)7-6-4/h3H,1-2H3
computed SMILES=N=1OC(=CC1C)C
accession=JP009986
date=2016.01.19 (Created 2008.10.21, modified 2011.05.06)
author=KURARAY CO., LTD.
license=CC BY-NC-SA
exact mass=97.05276
ionization energy=70 eV
ion type=[M]+*
computed spectral entropy=2.1155248204689627
computed normalized entropy=0.6572247379426588
SPLASH=splash10-0f7k-9000000000-32507e190715b008cda0
submitter=submitter = University of Tokyo Team (Faculty of Engineering, University of Tokyo)
MoNA Rating=3.75

>  <NUM PEAKS>  (1341) 
25

>  <MASS SPECTRAL PEAKS>  (1341) 
26 3.6
27 11.8
28 15.1
37 0.12
38 2.3
39 10.4
40 2.8
41 0.5
42 5.7
43 49.1
44 1.1
51 0.2
52 3.4
53 1.8
54 52
55 2.48
56 1.1
63 1.2
65 1.4
68 0.2
82 86.4
83 4
96 1.1
97 99.99
98 8.3

>  <PREDICTED SPECTRUM>  (1341) 
14 78
15 118
16 19
25 29
26 152
27 183
28 255
29 31
37 83
38 240
39 413
40 350
41 388
42 727
43 784
50 109
51 216
52 380
53 113
54 650
55 819
56 652
57 211
66 0
68 93
69 241
81 57
82 385
83 58
96 82
97 999
98 247

$$$$

     RDKit          2D

  7  7  0  0  0  0  0  0  0  0999 V2000
   -0.0000   -1.5000    0.0000 C   0  0  0  0  0  0  0  0  0  0  0  0
   -1.3000    0.7500    0.0000 C   0  0  0  0  0  0  0  0  0  0  0  0
    1.3000    0.7500    0.0000 C   0  0  0  0  0  0  0  0  0  0  0  0
   -1.3000    2.2500    0.0000 C   0  0  0  0  0  0  0  0  0  0  0  0
    1.3000    2.2500    0.0000 C   0  0  0  0  0  0  0  0  0  0  0  0
   -0.0000    0.0000    0.0000 C   0  0  0  0  0  0  0  0  0  0  0  0
    0.0000    3.0000    0.0000 O   0  0  0  0  0  0  0  0  0  0  0  0
  4  2  2  0
  5  3  1  0
  6  1  1  0
  6  2  1  0
  6  3  2  0
  7  4  1  0
  7  5  1  0
M  END
>  <NAME>  (1342) 
4-METHYL-2H-PYRAN

>  <SYNONYMS>  (1342) 


>  <SPECTRUM TYPE>  (1342) 
MS1

>  <INSTRUMENT TYPE>  (1342) 
EI-B

>  <INSTRUMENT>  (1342) 
JEOL JMS-D-300

>  <ION MODE>  (1342) 
P

>  <INCHIKEY>  (1342) 
OOARNVHTYGBULA-UHFFFAOYSA-N

>  <FORMULA>  (1342) 
C6H8O

>  <EXACT MASS>  (1342) 
96.057514876

>  <MW>  (1342) 
96

>  <ID>  (1342) 
JP009985

>  <CONTRIBUTOR>  (1342) 
University of Tokyo Team, {Faculty of Engineering, University of Tokyo

>  <COMMENT>  (1342) 
SMILES=CC(=C1)C=COC1
InChI=InChI=1S/C6H8O/c1-6-2-4-7-5-3-6/h2-4H,5H2,1H3
computed SMILES=O1C=CC(=CC1)C
accession=JP009985
date=2016.01.19 (Created 2008.10.21, modified 2011.05.06)
author=KURARAY CO., LTD.
license=CC BY-NC-SA
exact mass=96.05751
ionization energy=70 eV
ion type=[M]+*
computed spectral entropy=1.715082964293495
computed normalized entropy=0.7448510673989367
SPLASH=splash10-0002-9000000000-d24bfbf1b6bca5199ba9
submitter=submitter = University of Tokyo Team (Faculty of Engineering, University of Tokyo)
MoNA Rating=3.75

>  <NUM PEAKS>  (1342) 
10

>  <MASS SPECTRAL PEAKS>  (1342) 
29 4.6
39 27.5
40 2.1
41 2
43 12.1
53 16.5
67 18.6
81 4.71
95 44.9
96 99.99

>  <PREDICTED SPECTRUM>  (1342) 
26 19
27 46
36 4
37 15
38 50
39 472
40 144
41 341
42 119
43 352
49 4
50 70
51 205
52 112
53 288
54 176
55 142
57 7
63 31
65 96
67 287
68 241
69 57
81 416
94 57
95 856
96 999
97 97

$$$$

     RDKit          2D

  7  6  0  0  0  0  0  0  0  0999 V2000
   -3.5724    3.9375    0.0000 C   0  0  0  0  0  0  0  0  0  0  0  0
   -0.9743    0.9375    0.0000 C   0  0  0  0  0  0  0  0  0  0  0  0
   -2.2733    3.1875    0.0000 C   0  0  0  0  0  0  0  0  0  0  0  0
    0.3248    3.1875    0.0000 C   0  0  0  0  0  0  0  0  0  0  0  0
    1.6238    2.4375    0.0000 C   0  0  0  0  0  0  0  0  0  0  0  0
   -0.9743    2.4375    0.0000 C   0  0  0  0  0  0  0  0  0  0  0  0
    2.9228    3.1875    0.0000 O   0  0  0  0  0  0  0  0  0  0  0  0
  3  1  3  0
  5  4  1  0
  6  2  1  0
  6  3  1  0
  4  6  2  0
  7  5  1  0
M  END
>  <NAME>  (1343) 
3-METHYL-2-PENTE-4-YNE-1-OL

>  <SYNONYMS>  (1343) 


>  <SPECTRUM TYPE>  (1343) 
MS1

>  <INSTRUMENT TYPE>  (1343) 
EI-B

>  <INSTRUMENT>  (1343) 
JEOL JMS-D-300

>  <ION MODE>  (1343) 
P

>  <INCHIKEY>  (1343) 
ZSJHASYJQIRSLE-GQCTYLIASA-N

>  <FORMULA>  (1343) 
C6H8O

>  <EXACT MASS>  (1343) 
96.057514876

>  <MW>  (1343) 
96

>  <ID>  (1343) 
JP009984

>  <CONTRIBUTOR>  (1343) 
University of Tokyo Team, {Faculty of Engineering, University of Tokyo

>  <COMMENT>  (1343) 
SMILES=OCC=C(C)C#C
InChI=InChI=1S/C6H8O/c1-3-6(2)4-5-7/h1,4,7H,5H2,2H3/b6-4+
computed SMILES=C#CC(=CCO)C
accession=JP009984
date=2016.01.19 (Created 2008.10.21, modified 2011.05.06)
author=KURARAY CO., LTD.
license=CC BY-NC-SA
exact mass=96.05751
ionization energy=70 eV
ion type=[M]+*
computed spectral entropy=2.9498659373601632
computed normalized entropy=0.7943472980660605
SPLASH=splash10-0fsi-9000000000-9eb37e1365ac216362fc
submitter=submitter = University of Tokyo Team (Faculty of Engineering, University of Tokyo)
MoNA Rating=3.75

>  <NUM PEAKS>  (1343) 
41

>  <MASS SPECTRAL PEAKS>  (1343) 
26 2.3
27 20.2
28 26.1
29 0.62
31 6.8
32 4.4
37 3.1
38 0.55
39 36.9
40 10.1
41 47.5
42 0.57
43 13.5
44 2.1
45 3
49 0.27
50 17
51 28.8
52 15.6
53 5.05
54 3.7
55 4.1
61 2.7
62 0.51
63 8.2
64 1.5
65 17.2
66 0.5
67 40.1
68 8.3
69 1.4
73 0.14
74 1.3
77 13.1
78 5.6
79 0.4
81 99.99
82 6.8
94 1.1
95 8.09
96 14.7

>  <PREDICTED SPECTRUM>  (1343) 
14 28
15 45
19 18
25 60
26 192
27 435
28 138
29 212
31 157
32 5
36 98
37 235
38 323
39 832
40 325
41 722
42 284
43 546
44 132
49 149
50 423
51 549
52 404
53 791
54 337
55 257
56 137
57 119
61 170
62 194
63 284
64 89
65 465
66 241
67 581
68 279
69 184
74 28
75 96
77 438
78 239
79 333
80 64
81 999
82 247
93 121
94 75
95 591
96 622
97 121

$$$$

     RDKit          2D

  7  6  0  0  0  0  0  0  0  0999 V2000
   -2.1397    4.0147    0.0000 C   0  0  0  0  0  0  0  0  0  0  0  0
    3.0565    2.5147    0.0000 C   0  0  0  0  0  0  0  0  0  0  0  0
   -0.5058    1.3656    0.0000 C   0  0  0  0  0  0  0  0  0  0  0  0
   -0.8406    3.2647    0.0000 C   0  0  0  0  0  0  0  0  0  0  0  0
    1.7574    3.2647    0.0000 C   0  0  0  0  0  0  0  0  0  0  0  0
    0.4584    2.5147    0.0000 C   0  0  0  0  0  0  0  0  0  0  0  0
    1.4226    1.3656    0.0000 O   0  0  0  0  0  0  0  0  0  0  0  0
  4  1  3  0
  5  2  2  0
  6  3  1  0
  6  4  1  0
  6  5  1  0
  7  6  1  0
M  END
>  <NAME>  (1344) 
3-METHYL-1-PENTEN-4-YNE-3-OL

>  <SYNONYMS>  (1344) 


>  <SPECTRUM TYPE>  (1344) 
MS1

>  <INSTRUMENT TYPE>  (1344) 
EI-B

>  <INSTRUMENT>  (1344) 
JEOL JMS-D-300

>  <ION MODE>  (1344) 
P

>  <INCHIKEY>  (1344) 
VBATUBQIYXCZPA-UHFFFAOYSA-N

>  <FORMULA>  (1344) 
C6H8O

>  <EXACT MASS>  (1344) 
96.057514876

>  <MW>  (1344) 
96

>  <ID>  (1344) 
JP009983

>  <CONTRIBUTOR>  (1344) 
University of Tokyo Team, {Faculty of Engineering, University of Tokyo

>  <COMMENT>  (1344) 
SMILES=C=CC(C)(O)C#C
InChI=InChI=1S/C6H8O/c1-4-6(3,7)5-2/h1,5,7H,2H2,3H3
computed SMILES=C#CC(O)(C=C)C
accession=JP009983
exact mass=96.05751
date=2016.01.19 (Created 2008.10.21, modified 2011.05.06)
author=KURARAY CO., LTD.
license=CC BY-NC-SA
ionization energy=70 eV
ion type=[M]+*
computed spectral entropy=2.473207057976771
computed normalized entropy=0.7073363962466239
SPLASH=splash10-001i-9000000000-7c1b16afe3f83ae094d5
submitter=submitter = University of Tokyo Team (Faculty of Engineering, University of Tokyo)
MoNA Rating=3.75

>  <NUM PEAKS>  (1344) 
33

>  <MASS SPECTRAL PEAKS>  (1344) 
26 3.3
27 12.9
28 30.2
29 0.16
31 1.2
32 5.6
37 1.3
38 0.21
39 7.5
41 4
42 1.3
43 3.9
44 1.2
50 6.2
51 13.5
52 0.52
53 28.8
54 2.6
55 11.3
61 0.12
62 1.3
63 2.3
67 5.7
68 0.2
69 18.4
70 1.8
77 7.7
78 0.28
79 2.8
81 99.99
82 5.7
95 1.28
96 1.3

>  <PREDICTED SPECTRUM>  (1344) 
14 41
15 53
19 7
25 57
26 165
27 377
28 153
29 208
31 125
33 5
36 71
37 192
38 273
39 570
40 135
41 353
42 224
43 999
44 223
49 133
50 374
51 566
52 401
53 655
54 246
55 241
56 86
57 151
61 97
62 159
63 235
64 117
65 364
66 201
67 197
68 115
69 288
70 59
76 27
77 598
78 202
79 173
80 106
81 673
82 156
94 23
95 362
96 194

$$$$

     RDKit          2D

  6  5  0  0  0  0  0  0  0  0999 V2000
    0.0000    0.0000    0.0000 C   0  0  0  0  0  0  0  0  0  0  0  0
   -2.5981    4.5000    0.0000 C   0  0  0  0  0  0  0  0  0  0  0  0
   -1.2990    2.2500    0.0000 C   0  0  0  0  0  0  0  0  0  0  0  0
    0.0000    1.5000    0.0000 C   0  0  0  0  0  0  0  0  0  0  0  0
    1.2990    2.2500    0.0000 O   0  0  0  0  0  0  0  0  0  0  0  0
   -1.2990    3.7500    0.0000 O   0  0  0  0  0  0  0  0  0  0  0  0
  4  1  1  0
  4  3  1  0
  5  4  1  0
  6  2  1  0
  6  3  1  0
M  END
>  <NAME>  (1345) 
1-METHOXY-2-PROPANOL

>  <SYNONYMS>  (1345) 


>  <SPECTRUM TYPE>  (1345) 
MS1

>  <INSTRUMENT TYPE>  (1345) 
EI-B

>  <INSTRUMENT>  (1345) 
JEOL JMS-D-300

>  <ION MODE>  (1345) 
P

>  <INCHIKEY>  (1345) 
ARXJGSRGQADJSQ-UHFFFAOYSA-N

>  <FORMULA>  (1345) 
C4H10O2

>  <EXACT MASS>  (1345) 
90.06807956

>  <MW>  (1345) 
90

>  <ID>  (1345) 
JP009982

>  <CONTRIBUTOR>  (1345) 
University of Tokyo Team, {Faculty of Engineering, University of Tokyo

>  <COMMENT>  (1345) 
SMILES=COCC(C)O
InChI=InChI=1S/C4H10O2/c1-4(5)3-6-2/h4-5H,3H2,1-2H3
computed SMILES=OC(C)COC
accession=JP009982
date=2016.01.19 (Created 2008.10.21, modified 2011.05.06)
author=KURARAY CO., LTD.
license=CC BY-NC-SA
exact mass=90.06808
ionization energy=70 eV
ion type=[M]+*
computed spectral entropy=1.267166349445417
computed normalized entropy=0.6093782027754249
SPLASH=splash10-0002-9000000000-ce082fe9b7e2d32f567c
submitter=submitter = University of Tokyo Team (Faculty of Engineering, University of Tokyo)
MoNA Rating=3.75

>  <NUM PEAKS>  (1345) 
8

>  <MASS SPECTRAL PEAKS>  (1345) 
27 7.1
28 3.5
29 4.1
31 1.65
45 99.99
46 8.7
47 34.8
75 6.5

>  <PREDICTED SPECTRUM>  (1345) 
14 30
15 97
16 7
18 14
19 40
25 10
26 64
27 206
28 135
29 223
30 28
31 272
32 52
33 88
36 0
37 6
38 43
39 160
40 54
41 233
42 61
43 221
44 119
45 999
46 180
47 119
48 16
49 12
57 61
58 113
59 14
60 25
75 185
76 12
77 53

$$$$

     RDKit          2D

  6  5  0  0  0  0  0  0  0  0999 V2000
   -1.2990    0.7500    0.0000 C   0  0  0  0  0  0  0  0  0  0  0  0
    0.0000    3.0000    0.0000 C   0  0  0  0  0  0  0  0  0  0  0  0
   -2.5981    3.0000    0.0000 C   0  0  0  0  0  0  0  0  0  0  0  0
   -1.2990    2.2500    0.0000 C   0  0  0  0  0  0  0  0  0  0  0  0
    1.2990    2.2500    0.0000 O   0  0  0  0  0  0  0  0  0  0  0  0
   -3.8971    2.2500    0.0000 O   0  0  0  0  0  0  0  0  0  0  0  0
  4  1  1  0
  4  2  1  0
  4  3  1  0
  5  2  1  0
  6  3  1  0
M  END
>  <NAME>  (1346) 
2-METHYLPROPANE-1,3-DIOL

>  <SYNONYMS>  (1346) 


>  <SPECTRUM TYPE>  (1346) 
MS1

>  <INSTRUMENT TYPE>  (1346) 
EI-B

>  <INSTRUMENT>  (1346) 
JEOL JMS-D-300

>  <ION MODE>  (1346) 
P

>  <INCHIKEY>  (1346) 
QWGRWMMWNDWRQN-UHFFFAOYSA-N

>  <FORMULA>  (1346) 
C4H10O2

>  <EXACT MASS>  (1346) 
90.06807956

>  <MW>  (1346) 
90

>  <ID>  (1346) 
JP009981

>  <CONTRIBUTOR>  (1346) 
University of Tokyo Team, {Faculty of Engineering, University of Tokyo

>  <COMMENT>  (1346) 
SMILES=OCC(C)CO
InChI=InChI=1S/C4H10O2/c1-4(2-5)3-6/h4-6H,2-3H2,1H3
computed SMILES=OCC(C)CO
accession=JP009981
date=2016.01.19 (Created 2008.10.21, modified 2011.05.06)
author=KURARAY CO., LTD.
license=CC BY-NC-SA
exact mass=90.06808
ionization energy=70 eV
ion type=[M]+*
computed spectral entropy=2.51515479976361
computed normalized entropy=0.732429869417846
SPLASH=splash10-0006-9000000000-65f6c7dc45d51ea5a1d1
submitter=submitter = University of Tokyo Team (Faculty of Engineering, University of Tokyo)
MoNA Rating=3.75

>  <NUM PEAKS>  (1346) 
31

>  <MASS SPECTRAL PEAKS>  (1346) 
26 2.6
27 17.4
28 11.4
29 3.18
30 3.4
31 79.2
32 1.8
39 1.63
40 7.1
41 61.1
42 99.99
43 3.42
44 7.5
45 5.4
47 2.3
49 2.2
54 3.9
55 8.2
56 1.7
57 7.75
58 5.9
59 18
60 6.5
70 0.17
71 7.3
72 22.6
73 2.3
75 2.11
87 1.8
89 3
117 1.4

>  <PREDICTED SPECTRUM>  (1346) 
14 116
15 301
16 54
17 70
18 143
19 107
25 74
26 310
27 796
28 666
29 778
30 374
31 999
32 180
33 31
37 83
38 178
39 707
40 256
41 918
42 723
43 941
44 431
45 302
50 28
52 54
53 228
54 227
55 776
56 371
57 592
58 174
59 350
60 223
61 156
71 190
72 418
73 165

$$$$

     RDKit          2D

  5  4  0  0  0  0  0  0  0  0999 V2000
   -3.8971    2.2500    0.0000 C   0  0  0  0  0  0  0  0  0  0  0  0
   -2.5981    1.5000    0.0000 C   0  0  0  0  0  0  0  0  0  0  0  0
   -1.2990    2.2500    0.0000 C   0  0  0  0  0  0  0  0  0  0  0  0
    0.0000    1.5000    0.0000 C   0  0  0  0  0  0  0  0  0  0  0  0
    1.2990    2.2500    0.0000 Cl  0  0  0  0  0  0  0  0  0  0  0  0
  2  1  2  0
  3  2  1  0
  4  3  1  0
  5  4  1  0
M  END
>  <NAME>  (1347) 
4-CHLORO-1-BUTENE

>  <SYNONYMS>  (1347) 


>  <SPECTRUM TYPE>  (1347) 
MS1

>  <INSTRUMENT TYPE>  (1347) 
EI-B

>  <INSTRUMENT>  (1347) 
JEOL JMS-D-300

>  <ION MODE>  (1347) 
P

>  <INCHIKEY>  (1347) 
WKEVRZCQFQDCIR-UHFFFAOYSA-N

>  <FORMULA>  (1347) 
C4H7Cl

>  <EXACT MASS>  (1347) 
90.023627904

>  <MW>  (1347) 
90

>  <ID>  (1347) 
JP009980

>  <CONTRIBUTOR>  (1347) 
University of Tokyo Team, {Faculty of Engineering, University of Tokyo

>  <COMMENT>  (1347) 
SMILES=C=CCCCl
InChI=InChI=1S/C4H7Cl/c1-2-3-4-5/h2H,1,3-4H2
computed SMILES=ClCCC=C
accession=JP009980
date=2016.01.19 (Created 2008.10.21, modified 2011.05.06)
author=KURARAY CO., LTD.
license=CC BY-NC-SA
exact mass=90.02363
ionization energy=70 eV
ion type=[M]+*
computed spectral entropy=2.0646334156677897
computed normalized entropy=0.6679408150556565
SPLASH=splash10-0a4i-9000000000-12e6cfd14d43328e960e
submitter=submitter = University of Tokyo Team (Faculty of Engineering, University of Tokyo)
MoNA Rating=3.75

>  <NUM PEAKS>  (1347) 
22

>  <MASS SPECTRAL PEAKS>  (1347) 
26 1.6
27 10.6
28 3.5
29 0.36
39 7.6
41 20.7
49 5.7
51 0.23
53 3.5
54 10.8
55 99.99
56 0.43
61 1.1
62 15.7
63 6.5
64 0.55
65 1.6
75 6.5
77 2.5
90 2.71
91 1.6
92 9.1

>  <PREDICTED SPECTRUM>  (1347) 
14 69
15 66
25 96
26 286
27 527
28 583
29 38
35 89
36 157
37 193
38 312
39 852
40 331
41 999
42 170
44 62
46 56
48 80
49 356
50 290
51 441
52 224
53 555
54 597
55 897
56 247
57 68
61 75
62 200
63 413
64 210
65 124
66 124
90 377
91 38
92 194

$$$$

     RDKit          2D

  6  5  0  0  0  0  0  0  0  0999 V2000
   -1.2990    2.2500    0.0000 C   0  0  0  0  0  0  0  0  0  0  0  0
    1.2990    2.2500    0.0000 N   0  0  0  0  0  0  0  0  0  0  0  0
   -3.8971    2.2500    0.0000 N   0  0  0  0  0  0  0  0  0  0  0  0
    0.0000    3.0000    0.0000 N   0  0  0  0  0  0  0  0  0  0  0  0
   -2.5981    3.0000    0.0000 N   0  0  0  0  0  0  0  0  0  0  0  0
   -1.2990    0.7500    0.0000 O   0  0  0  0  0  0  0  0  0  0  0  0
  4  1  2  3
  4  2  1  0
  5  1  1  0
  5  3  1  0
  6  1  1  0
M  END
>  <NAME>  (1348) 
1,3-DIAMINOUREA

>  <SYNONYMS>  (1348) 
CARBOHYDRAZIDE

>  <SPECTRUM TYPE>  (1348) 
MS1

>  <INSTRUMENT TYPE>  (1348) 
EI-B

>  <INSTRUMENT>  (1348) 
JEOL JMS-D-300

>  <ION MODE>  (1348) 
P

>  <INCHIKEY>  (1348) 
XEVRDFDBXJMZFG-UHFFFAOYSA-N

>  <FORMULA>  (1348) 
CH6N4O

>  <EXACT MASS>  (1348) 
90.05416081199999

>  <MW>  (1348) 
90

>  <ID>  (1348) 
JP009979

>  <CONTRIBUTOR>  (1348) 
University of Tokyo Team, {Faculty of Engineering, University of Tokyo

>  <COMMENT>  (1348) 
SMILES=NNC(=O)NN
InChI=InChI=1S/CH6N4O/c2-4-1(6)5-3/h2-3H2,(H2,4,5,6)
computed SMILES=OC(=NN)NN
accession=JP009979
date=2016.01.19 (Created 2008.10.21, modified 2011.05.06)
author=KURARAY CO., LTD.
license=CC BY-NC-SA
exact mass=90.05416
ionization energy=70 eV
ion type=[M]+*
computed spectral entropy=1.7773802356022466
computed normalized entropy=0.715270425049522
SPLASH=splash10-001i-9000000000-6ca0a19c624deee04288
submitter=submitter = University of Tokyo Team (Faculty of Engineering, University of Tokyo)
MoNA Rating=3.75

>  <NUM PEAKS>  (1348) 
12

>  <MASS SPECTRAL PEAKS>  (1348) 
28 18.2
29 12.7
30 11.4
31 4.68
32 99.99
33 3.3
42 3.8
43 0.95
44 15.4
59 5.1
74 8.1
90 14.4

>  <PREDICTED SPECTRUM>  (1348) 
14 49
15 181
16 76
17 79
18 76
19 8
25 25
26 111
27 293
28 342
29 365
30 660
31 450
32 81
33 100
34 18
38 109
40 309
41 417
42 810
43 606
44 385
45 229
46 60
53 169
55 21
56 127
57 109
58 437
59 505
60 78
72 145
73 205
74 172
75 139
87 49
90 999
91 219
92 87

$$$$

     RDKit          2D

  6  5  0  0  0  0  0  0  0  0999 V2000
    0.0000    0.0000    0.0000 C   0  0  0  0  0  0  0  0  0  0  0  0
   -2.5981    4.5000    0.0000 C   0  0  0  0  0  0  0  0  0  0  0  0
   -1.2990    2.2500    0.0000 C   0  0  0  0  0  0  0  0  0  0  0  0
    0.0000    1.5000    0.0000 C   0  0  0  0  0  0  0  0  0  0  0  0
    1.2990    2.2500    0.0000 O   0  0  0  0  0  0  0  0  0  0  0  0
   -1.2990    3.7500    0.0000 O   0  0  0  0  0  0  0  0  0  0  0  0
  4  1  1  0
  4  3  1  0
  5  4  2  0
  6  2  1  0
  6  3  1  0
M  END
>  <NAME>  (1349) 
1-METHOXY-2-PROPANONE

>  <SYNONYMS>  (1349) 
PROPANE-2-ONE-1-METHOXY

>  <SPECTRUM TYPE>  (1349) 
MS1

>  <INSTRUMENT TYPE>  (1349) 
EI-B

>  <INSTRUMENT>  (1349) 
JEOL JMS-D-300

>  <ION MODE>  (1349) 
P

>  <INCHIKEY>  (1349) 
CUZLJOLBIRPEFB-UHFFFAOYSA-N

>  <FORMULA>  (1349) 
C4H8O2

>  <EXACT MASS>  (1349) 
88.052429496

>  <MW>  (1349) 
88

>  <ID>  (1349) 
JP009978

>  <CONTRIBUTOR>  (1349) 
University of Tokyo Team, {Faculty of Engineering, University of Tokyo

>  <COMMENT>  (1349) 
SMILES=COCC(C)=O
InChI=InChI=1S/C4H8O2/c1-4(5)3-6-2/h3H2,1-2H3
computed SMILES=O=C(C)COC
accession=JP009978
date=2016.01.19 (Created 2008.10.21, modified 2011.05.06)
author=KURARAY CO., LTD.
license=CC BY-NC-SA
exact mass=88.05243
ionization energy=70 eV
ion type=[M]+*
computed spectral entropy=1.6599053924739102
computed normalized entropy=0.6679950704045663
SPLASH=splash10-0005-9000000000-9036f805d43fcd591eb9
submitter=submitter = University of Tokyo Team (Faculty of Engineering, University of Tokyo)
MoNA Rating=3.75

>  <NUM PEAKS>  (1349) 
12

>  <MASS SPECTRAL PEAKS>  (1349) 
27 4.6
28 15.4
29 21.4
31 0.25
32 3.3
42 6.5
43 92
44 0.31
45 99.99
46 2.9
58 41.8
88 2.6

>  <PREDICTED SPECTRUM>  (1349) 
14 64
15 167
25 7
26 87
27 219
28 102
29 252
30 116
31 231
32 60
33 78
37 28
38 84
39 329
40 144
41 284
42 237
43 933
44 17
45 999
46 125
53 21
54 21
56 219
57 154
58 167
73 351
74 39
87 121
88 119

$$$$

     RDKit          2D

  6  6  0  0  0  0  0  0  0  0999 V2000
    2.1595   -0.2383    0.0000 C   0  0  0  0  0  0  0  0  0  0  0  0
   -0.0732    1.1914    0.0000 C   0  0  0  0  0  0  0  0  0  0  0  0
   -1.5429    0.8971    0.0000 C   0  0  0  0  0  0  0  0  0  0  0  0
   -0.3229   -1.2161    0.0000 C   0  0  0  0  0  0  0  0  0  0  0  0
    0.6668   -0.0904    0.0000 C   0  0  0  0  0  0  0  0  0  0  0  0
   -1.6900   -0.6082    0.0000 O   0  0  0  0  0  0  0  0  0  0  0  0
  3  2  1  0
  5  1  1  0
  5  2  1  0
  5  4  1  0
  6  3  1  0
  6  4  1  0
M  END
>  <NAME>  (1350) 
3-METHYLTETRAHYDROFURAN

>  <SYNONYMS>  (1350) 


>  <SPECTRUM TYPE>  (1350) 
MS1

>  <INSTRUMENT TYPE>  (1350) 
EI-B

>  <INSTRUMENT>  (1350) 
JEOL JMS-D-300

>  <ION MODE>  (1350) 
P

>  <INCHIKEY>  (1350) 
LJPCNSSTRWGCMZ-UHFFFAOYSA-N

>  <FORMULA>  (1350) 
C5H10O

>  <EXACT MASS>  (1350) 
86.07316494

>  <MW>  (1350) 
86

>  <ID>  (1350) 
JP009977

>  <CONTRIBUTOR>  (1350) 
University of Tokyo Team, {Faculty of Engineering, University of Tokyo

>  <COMMENT>  (1350) 
SMILES=CC(C1)COC1
InChI=InChI=1S/C5H10O/c1-5-2-3-6-4-5/h5H,2-4H2,1H3
computed SMILES=O1CCC(C)C1
accession=JP009977
date=2016.01.19 (Created 2008.10.21, modified 2011.05.06)
author=KURARAY CO., LTD.
license=CC BY-NC-SA
exact mass=86.07316
ionization energy=70 eV
ion type=[M]+*
computed spectral entropy=1.8478271538226827
computed normalized entropy=0.7001845443395778
SPLASH=splash10-0a4i-9000000000-6a76f0ae2cb8334f344c
submitter=submitter = University of Tokyo Team (Faculty of Engineering, University of Tokyo)
MoNA Rating=3.75

>  <NUM PEAKS>  (1350) 
14

>  <MASS SPECTRAL PEAKS>  (1350) 
27 9.7
28 3.2
29 14.3
39 1.05
41 58.4
42 4.9
43 3.9
44 0.61
55 13.6
56 99.99
57 10.1
71 0.7
85 5.6
86 25.1

>  <PREDICTED SPECTRUM>  (1350) 
14 60
15 144
16 9
19 17
25 25
26 204
27 511
28 343
29 449
30 115
31 252
32 30
36 7
37 75
38 154
39 586
40 270
41 946
42 792
43 615
44 190
45 149
50 140
51 170
52 79
53 269
54 270
55 607
56 999
57 520
58 278
59 30
67 104
68 151
69 60
71 275
72 3
85 268
86 456
87 162

$$$$

     RDKit          2D

  6  6  0  0  0  0  0  0  0  0999 V2000
    2.1595   -0.2383    0.0000 C   0  0  0  0  0  0  0  0  0  0  0  0
   -0.0732    1.1914    0.0000 C   0  0  0  0  0  0  0  0  0  0  0  0
   -1.5429    0.8971    0.0000 C   0  0  0  0  0  0  0  0  0  0  0  0
   -0.3229   -1.2161    0.0000 C   0  0  0  0  0  0  0  0  0  0  0  0
    0.6668   -0.0904    0.0000 C   0  0  0  0  0  0  0  0  0  0  0  0
   -1.6900   -0.6082    0.0000 O   0  0  0  0  0  0  0  0  0  0  0  0
  3  2  1  0
  5  1  1  0
  5  2  1  0
  5  4  2  0
  6  3  1  0
  6  4  1  0
M  END
>  <NAME>  (1351) 
3-METHYL-4,5-DIHYDROFURAN

>  <SYNONYMS>  (1351) 


>  <SPECTRUM TYPE>  (1351) 
MS1

>  <INSTRUMENT TYPE>  (1351) 
EI-B

>  <INSTRUMENT>  (1351) 
JEOL JMS-D-300

>  <ION MODE>  (1351) 
P

>  <INCHIKEY>  (1351) 
FWGYRFWKBWPRJD-UHFFFAOYSA-N

>  <FORMULA>  (1351) 
C5H8O

>  <EXACT MASS>  (1351) 
84.057514876

>  <MW>  (1351) 
84

>  <ID>  (1351) 
JP009976

>  <CONTRIBUTOR>  (1351) 
University of Tokyo Team, {Faculty of Engineering, University of Tokyo

>  <COMMENT>  (1351) 
SMILES=CC(C1)=COC1
InChI=InChI=1S/C5H8O/c1-5-2-3-6-4-5/h4H,2-3H2,1H3
computed SMILES=O1C=C(C)CC1
accession=JP009976
date=2016.01.19 (Created 2008.10.21, modified 2011.05.06)
author=KURARAY CO., LTD.
license=CC BY-NC-SA
exact mass=84.05751
ionization energy=70 eV
ion type=[M]+*
computed spectral entropy=2.2503649221524995
computed normalized entropy=0.7642762978194133
SPLASH=splash10-053r-9000000000-6292ffc16a02c4f6924c
submitter=submitter = University of Tokyo Team (Faculty of Engineering, University of Tokyo)
MoNA Rating=3.75

>  <NUM PEAKS>  (1351) 
19

>  <MASS SPECTRAL PEAKS>  (1351) 
26 4.7
27 26.9
28 5.8
29 3.76
32 1.9
39 33.8
41 32.1
43 0.76
44 4.9
51 4.9
53 19.9
54 1.17
55 99.99
56 16.2
57 6.2
69 1.16
83 42.7
84 86.7
85 5.2

>  <PREDICTED SPECTRUM>  (1351) 
14 37
15 74
25 44
26 171
27 392
28 233
29 217
31 41
32 12
36 47
37 101
38 159
39 539
40 231
41 577
42 188
43 453
44 124
45 50
47 66
49 75
50 139
51 218
52 174
53 413
54 227
55 330
56 231
57 177
58 123
65 72
66 44
67 178
68 95
69 790
70 174
71 116
81 64
82 114
83 625
84 999
85 217
86 42

$$$$

     RDKit          2D

  6  6  0  0  0  0  0  0  0  0999 V2000
   -0.8877    2.7675    0.0000 C   0  0  0  0  0  0  0  0  0  0  0  0
   -2.1867    0.5175    0.0000 C   0  0  0  0  0  0  0  0  0  0  0  0
    1.9122    0.5170    0.0000 C   0  0  0  0  0  0  0  0  0  0  0  0
   -0.8877    1.2675    0.0000 C   0  0  0  0  0  0  0  0  0  0  0  0
    0.4114    0.5175    0.0000 C   0  0  0  0  0  0  0  0  0  0  0  0
    1.1622   -0.7820    0.0000 O   0  0  0  0  0  0  0  0  0  0  0  0
  4  1  2  0
  4  2  1  0
  5  3  1  0
  5  4  1  0
  6  3  1  0
  6  5  1  0
M  END
>  <NAME>  (1352) 
2-METHYL-3,4-EPOXY-1-BUTENE

>  <SYNONYMS>  (1352) 
2-ISOPROPENYLOXIRANE

>  <SPECTRUM TYPE>  (1352) 
MS1

>  <INSTRUMENT TYPE>  (1352) 
EI-B

>  <INSTRUMENT>  (1352) 
JEOL JMS-D-300

>  <ION MODE>  (1352) 
P

>  <INCHIKEY>  (1352) 
JZQHTTYHPIAPCZ-UHFFFAOYSA-N

>  <FORMULA>  (1352) 
C5H8O

>  <EXACT MASS>  (1352) 
84.057514876

>  <MW>  (1352) 
84

>  <ID>  (1352) 
JP009975

>  <CONTRIBUTOR>  (1352) 
University of Tokyo Team, {Faculty of Engineering, University of Tokyo

>  <COMMENT>  (1352) 
SMILES=CC(=C)C(C1)O1
InChI=InChI=1S/C5H8O/c1-4(2)5-3-6-5/h5H,1,3H2,2H3
computed SMILES=O1CC1C(=C)C
accession=JP009975
date=2016.01.19 (Created 2008.10.21, modified 2011.05.06)
author=KURARAY CO., LTD.
license=CC BY-NC-SA
exact mass=84.05751
ionization energy=70 eV
ion type=[M]+*
computed spectral entropy=2.627047058988525
computed normalized entropy=0.8063134496879674
SPLASH=splash10-0f79-9000000000-bee62335a0cb5175ea2d
submitter=submitter = University of Tokyo Team (Faculty of Engineering, University of Tokyo)
MoNA Rating=3.75

>  <NUM PEAKS>  (1352) 
26

>  <MASS SPECTRAL PEAKS>  (1352) 
26 5.8
27 20
28 9.5
29 1.62
30 3.4
37 8.3
38 17.5
39 99.99
40 8.1
41 30
42 4.7
43 0.47
49 4.3
50 21.1
51 19.6
52 1.07
53 52.6
54 13.4
55 50.9
56 4.27
57 3.6
67 2.1
68 2.1
69 2.34
83 35.7
84 10.5

>  <PREDICTED SPECTRUM>  (1352) 
14 93
15 179
16 12
18 8
19 38
25 100
26 377
27 823
28 531
29 675
30 221
31 389
32 23
36 174
37 257
38 397
39 999
40 483
41 915
42 513
43 337
44 118
49 152
50 352
51 380
52 315
53 625
54 723
55 931
56 495
57 290
63 158
65 200
66 47
67 11
68 42
69 543
70 53
81 152
82 137
83 614
84 470
85 61

$$$$

     RDKit          2D

  5  4  0  0  0  0  0  0  0  0999 V2000
    1.9486    1.8750    0.0000 C   0  0  0  0  0  0  0  0  0  0  0  0
    0.6495    2.6250    0.0000 C   0  0  0  0  0  0  0  0  0  0  0  0
   -0.6495    3.3750    0.0000 C   0  0  0  0  0  0  0  0  0  0  0  0
   -1.9486    4.1250    0.0000 C   0  0  0  0  0  0  0  0  0  0  0  0
   -3.2476    3.3750    0.0000 O   0  0  0  0  0  0  0  0  0  0  0  0
  2  1  1  0
  3  2  3  0
  4  3  1  0
  5  4  1  0
M  END
>  <NAME>  (1353) 
2-BUTYN-1-OL

>  <SYNONYMS>  (1353) 


>  <SPECTRUM TYPE>  (1353) 
MS1

>  <INSTRUMENT TYPE>  (1353) 
EI-B

>  <INSTRUMENT>  (1353) 
JEOL JMS-D-300

>  <ION MODE>  (1353) 
P

>  <INCHIKEY>  (1353) 
NEEDEQSZOUAJMU-UHFFFAOYSA-N

>  <FORMULA>  (1353) 
C4H6O

>  <EXACT MASS>  (1353) 
70.041864812

>  <MW>  (1353) 
70

>  <ID>  (1353) 
JP009974

>  <CONTRIBUTOR>  (1353) 
University of Tokyo Team, {Faculty of Engineering, University of Tokyo

>  <COMMENT>  (1353) 
SMILES=CC#CCO
InChI=InChI=1S/C4H6O/c1-2-3-4-5/h5H,4H2,1H3
computed SMILES=OCC#CC
accession=JP009974
date=2016.01.19 (Created 2008.10.21, modified 2011.05.06)
author=KURARAY CO., LTD.
license=CC BY-NC-SA
exact mass=70.04186
ionization energy=70 eV
ion type=[M]+*
computed spectral entropy=2.609406872441528
computed normalized entropy=0.7598767022292249
SPLASH=splash10-016u-9000000000-04998d1b907b82a7dffd
submitter=submitter = University of Tokyo Team (Faculty of Engineering, University of Tokyo)
MoNA Rating=3.75

>  <NUM PEAKS>  (1353) 
31

>  <MASS SPECTRAL PEAKS>  (1353) 
26 4.2
27 28.3
28 26.9
29 1.17
30 2.3
31 6.9
32 4.5
34 0.18
36 1.6
37 7.4
38 9.8
39 4.12
40 6.4
41 22.8
42 38.9
43 0.89
44 3.5
49 3.4
50 12.2
51 1.49
52 7.8
53 16.4
54 1.9
55 0.9
66 1.1
67 2.7
68 4
69 99.99
70 14.3
71 2
75 1.2

>  <PREDICTED SPECTRUM>  (1353) 
14 107
15 182
16 58
17 48
18 92
19 64
25 129
26 358
27 666
28 285
29 536
30 69
31 476
32 37
33 35
35 26
36 142
37 367
38 385
39 801
40 356
41 806
42 323
43 352
44 145
49 234
50 361
51 718
52 721
53 999
54 321
55 552
56 75
61 153
67 224
68 248
69 504
70 682
71 182

$$$$

     RDKit          2D

 23 25  0  0  0  0  0  0  0  0999 V2000
   10.8510   -1.3011    0.0000 C   0  0  0  0  0  0  0  0  0  0  0  0
    8.6006   -2.5994    0.0000 C   0  0  0  0  0  0  0  0  0  0  0  0
   -2.3100   -0.7500    0.0000 C   0  0  0  0  0  0  0  0  0  0  0  0
   -2.3100    0.7500    0.0000 C   0  0  0  0  0  0  0  0  0  0  0  0
   -1.0100   -1.5000    0.0000 C   0  0  0  0  0  0  0  0  0  0  0  0
   -1.0100    1.5000    0.0000 C   0  0  0  0  0  0  0  0  0  0  0  0
    9.3517    1.2976    0.0000 C   0  0  0  0  0  0  0  0  0  0  0  0
    8.6010    2.5972    0.0000 C   0  0  0  0  0  0  0  0  0  0  0  0
    7.1006   -0.0006    0.0000 C   0  0  0  0  0  0  0  0  0  0  0  0
    8.6015   -0.0013    0.0000 C   0  0  0  0  0  0  0  0  0  0  0  0
    7.1002    2.5980    0.0000 C   0  0  0  0  0  0  0  0  0  0  0  0
    0.2900   -0.7500    0.0000 C   0  0  0  0  0  0  0  0  0  0  0  0
    6.3500    1.2990    0.0000 C   0  0  0  0  0  0  0  0  0  0  0  0
    0.2900    0.7500    0.0000 C   0  0  0  0  0  0  0  0  0  0  0  0
    6.3506    3.8972    0.0000 C   0  0  0  0  0  0  0  0  0  0  0  0
    2.6000    0.0000    0.0000 C   0  0  0  0  0  0  0  0  0  0  0  0
    1.7200   -1.2100    0.0000 N   0  0  0  0  0  0  0  0  0  0  0  0
    4.8500    1.2990    0.0000 N   0  0  0  0  0  0  0  0  0  0  0  0
    4.1000   -0.0000    0.0000 N   0  0  0  0  0  0  0  0  0  0  0  0
    9.3510   -1.3006    0.0000 N   0  0  0  0  0  0  0  0  0  0  0  0
    4.8506    3.8977    0.0000 O   0  0  0  0  0  0  0  0  0  0  0  0
    7.1010    5.1960    0.0000 O   0  0  0  0  0  0  0  0  0  0  0  0
    1.7200    1.2100    0.0000 S   0  0  0  0  0  0  0  0  0  0  0  0
  4  3  2  0
  5  3  1  0
  6  4  1  0
  8  7  2  0
 10  7  1  0
 10  9  2  0
 11  8  1  0
 12  5  2  0
 13  9  1  0
 13 11  2  0
 14  6  2  0
 14 12  1  0
 15 11  1  0
 17 12  1  0
 17 16  2  0
 18 13  1  0
 19 16  1  0
 18 19  2  0
 20  1  1  0
 20  2  1  0
 20 10  1  0
 21 15  2  0
 22 15  1  0
 23 14  1  0
 23 16  1  0
M  END
>  <NAME>  (1354) 
2-(2-BENZOTHIAZOLYL)AZO-4-(N,N-DIMETHYL)AMINOBENZOIC ACID

>  <SYNONYMS>  (1354) 


>  <SPECTRUM TYPE>  (1354) 
MS1

>  <INSTRUMENT TYPE>  (1354) 
EI-B

>  <INSTRUMENT>  (1354) 
JEOL JMS-D-300

>  <ION MODE>  (1354) 
P

>  <INCHIKEY>  (1354) 
IUIWKULRUPRNEN-VHEBQXMUSA-N

>  <FORMULA>  (1354) 
C16H14N4O2S

>  <EXACT MASS>  (1354) 
326.083746688

>  <MW>  (1354) 
326

>  <ID>  (1354) 
JP009973

>  <CONTRIBUTOR>  (1354) 
University of Tokyo Team, {Faculty of Engineering, University of Tokyo

>  <COMMENT>  (1354) 
SMILES=CN(C)c(c1)cc(N=Nc(n2)sc(c3)c(ccc3)2)c(C(O)=O)c1
InChI=InChI=1S/C16H14N4O2S/c1-20(2)10-7-8-11(15(21)22)13(9-10)18-19-16-17-12-5-3-4-6-14(12)23-16/h3-9H,1-2H3,(H,21,22)/b19-18+
computed SMILES=O=C(O)C1=CC=C(C=C1N=NC2=NC=3C=CC=CC3S2)N(C)C
accession=JP009973
date=2016.01.19 (Created 2008.10.21, modified 2011.05.06)
author=KURARAY CO., LTD.
license=CC BY-NC-SA
exact mass=326.08375
ionization energy=70 eV
ion type=[M]+*
computed spectral entropy=3.163143784001984
computed normalized entropy=0.6883702465147533
SPLASH=splash10-0fl0-4890000000-b400a2b6094ff4f3337e
submitter=submitter = University of Tokyo Team (Faculty of Engineering, University of Tokyo)
MoNA Rating=3.75

>  <NUM PEAKS>  (1354) 
99

>  <MASS SPECTRAL PEAKS>  (1354) 
27 0.8
38 0.4
39 3.5
41 0.07
42 21.2
50 2.4
51 3.1
52 0.16
53 1.1
54 0.5
58 0.4
62 0.03
63 5.8
64 2.3
65 4.3
66 0.18
67 0.8
68 1.5
69 2.7
70 0.11
74 0.1
75 0.8
76 2.8
77 1.91
78 10.3
79 13.2
80 2.2
81 0.08
82 1.1
89 0.4
90 7.8
91 0.96
92 6.6
93 5
94 1.6
95 0.09
96 0.9
102 0.3
103 2
104 1.66
105 23.2
106 2.3
107 1.6
108 0.19
109 0.8
117 1.1
118 7.3
119 0.97
120 99.99
121 9.2
122 1.2
123 0.09
126 0.5
127 15
128 1.9
131 0.18
132 0.3
133 2.3
134 3.4
135 0.2
136 0.8
141 1.4
145 0.5
148 0.97
149 1.2
150 5.3
151 0.8
152 0.08
159 1.9
163 0.4
176 2.3
177 0.58
178 1.2
209 0.3
210 2.2
211 0.16
212 0.5
223 0.5
224 0.8
228 0.01
237 1.8
238 2.7
239 2.3
240 0.09
251 0.7
253 24.7
254 55.3
255 1.11
256 3.1
257 0.5
268 0.3
281 0.27
282 78.6
283 15.8
284 5.4
285 0.09
325 0.9
326 2.1
327 0.5

>  <PREDICTED SPECTRUM>  (1354) 
17 0
33 19
34 26
36 29
37 59
38 108
39 325
40 133
41 196
42 287
43 83
44 306
45 207
46 8
50 222
51 283
52 209
53 182
54 45
55 60
56 79
57 92
58 102
60 11
61 35
62 117
63 292
64 243
65 358
66 141
67 155
68 36
69 187
70 39
71 72
72 94
73 92
74 102
75 156
76 203
77 407
78 255
79 220
80 168
81 149
82 90
83 30
84 12
86 35
88 75
89 92
90 221
91 247
92 413
93 280
94 151
95 102
96 112
97 88
98 82
100 25
102 134
103 160
104 282
105 334
106 168
107 274
108 219
109 128
111 33
112 44
114 0
116 27
117 70
118 187
119 334
120 930
121 338
122 131
123 86
125 71
126 9
127 58
129 31
131 11
132 89
133 211
134 261
135 157
136 63
137 77
139 20
141 59
143 20
144 26
145 16
146 34
147 48
148 133
149 184
150 88
152 3
156 7
158 41
160 47
161 88
162 126
163 157
164 8
165 43
167 20
168 21
169 55
170 13
175 11
177 30
178 13
182 21
183 73
188 11
193 17
196 8
197 66
206 36
207 19
209 66
210 160
211 6
224 19
236 47
238 143
239 130
250 110
251 26
252 88
253 285
254 891
255 296
256 188
281 18
282 999
283 450
284 181
326 15
327 119
328 24

$$$$

     RDKit          2D

 23 23  0  0  0  0  0  0  0  0999 V2000
    7.7948    3.0010    0.0000 C   0  0  0  0  0  0  0  0  0  0  0  0
   12.9910    3.0019    0.0000 C   0  0  0  0  0  0  0  0  0  0  0  0
   -2.5989   -1.5002    0.0000 C   0  0  0  0  0  0  0  0  0  0  0  0
   16.8885    0.7525    0.0000 C   0  0  0  0  0  0  0  0  0  0  0  0
   10.3931    1.5015    0.0000 C   0  0  0  0  0  0  0  0  0  0  0  0
    5.1970    1.5006    0.0000 C   0  0  0  0  0  0  0  0  0  0  0  0
    9.0942    0.7512    0.0000 C   0  0  0  0  0  0  0  0  0  0  0  0
    6.4962    0.7508    0.0000 C   0  0  0  0  0  0  0  0  0  0  0  0
   11.6923    0.7517    0.0000 C   0  0  0  0  0  0  0  0  0  0  0  0
    3.8981    0.7504    0.0000 C   0  0  0  0  0  0  0  0  0  0  0  0
   -1.3000    0.7500    0.0000 C   0  0  0  0  0  0  0  0  0  0  0  0
   -0.0000   -1.5000    0.0000 C   0  0  0  0  0  0  0  0  0  0  0  0
   -0.0000    1.5000    0.0000 C   0  0  0  0  0  0  0  0  0  0  0  0
    1.3000   -0.7500    0.0000 C   0  0  0  0  0  0  0  0  0  0  0  0
    7.7951    1.5010    0.0000 C   0  0  0  0  0  0  0  0  0  0  0  0
   12.9912    1.5019    0.0000 C   0  0  0  0  0  0  0  0  0  0  0  0
    2.5989    1.5002    0.0000 C   0  0  0  0  0  0  0  0  0  0  0  0
   14.2904    0.7521    0.0000 C   0  0  0  0  0  0  0  0  0  0  0  0
   -1.3000   -0.7500    0.0000 N   0  0  0  0  0  0  0  0  0  0  0  0
    1.3000    0.7500    0.0000 N   0  0  0  0  0  0  0  0  0  0  0  0
    2.5987    3.0002    0.0000 O   0  0  0  0  0  0  0  0  0  0  0  0
   14.2906   -0.7479    0.0000 O   0  0  0  0  0  0  0  0  0  0  0  0
   15.5893    1.5023    0.0000 O   0  0  0  0  0  0  0  0  0  0  0  0
  7  5  1  0
  8  6  1  0
  9  5  1  0
 10  6  1  0
 13 11  1  0
 14 12  1  0
 15  1  1  0
 15  7  1  0
  8 15  2  0
 16  2  1  0
 16  9  1  0
 17 10  1  0
 18 16  1  0
 19  3  1  0
 19 11  1  0
 19 12  1  0
 20 13  1  0
 20 14  1  0
 20 17  1  0
 21 17  2  0
 22 18  2  0
 23  4  1  0
 23 18  1  0
M  END
>  <NAME>  (1355) 
METHYL 2,6-DIMETHYL-9-(N-METHYLPIPERAZINYLCARBAMOYL)-6-NONENOATE

>  <SYNONYMS>  (1355) 


>  <SPECTRUM TYPE>  (1355) 
MS1

>  <INSTRUMENT TYPE>  (1355) 
EI-B

>  <INSTRUMENT>  (1355) 
JEOL JMS-D-300

>  <ION MODE>  (1355) 
P

>  <INCHIKEY>  (1355) 
YOOYZUUMVILRGI-OVCLIPMQSA-N

>  <FORMULA>  (1355) 
C18H32N2O3

>  <EXACT MASS>  (1355) 
324.24129288399996

>  <MW>  (1355) 
324

>  <ID>  (1355) 
JP009972

>  <CONTRIBUTOR>  (1355) 
University of Tokyo Team, {Faculty of Engineering, University of Tokyo

>  <COMMENT>  (1355) 
SMILES=COC(=O)C(C)CCCC(C)=CCCC(=O)N(C1)CCN(C)C1
InChI=InChI=1S/C18H32N2O3/c1-15(7-5-9-16(2)18(22)23-4)8-6-10-17(21)20-13-11-19(3)12-14-20/h8,16H,5-7,9-14H2,1-4H3/b15-8+
computed SMILES=O=C(OC)C(C)CCCC(=CCCC(=O)N1CCN(C)CC1)C
accession=JP009972
date=2016.01.19 (Created 2008.10.21, modified 2011.05.06)
author=KURARAY CO., LTD.
license=CC BY-NC-SA
exact mass=324.24129
ionization energy=70 eV
ion type=[M]+*
computed spectral entropy=2.4707384953336593
computed normalized entropy=0.8720622823964207
SPLASH=splash10-05fr-9101000000-8cc3811532666396ae4f
submitter=submitter = University of Tokyo Team (Faculty of Engineering, University of Tokyo)
MoNA Rating=3.75

>  <NUM PEAKS>  (1355) 
17

>  <MASS SPECTRAL PEAKS>  (1355) 
28 52.5
32 12.7
43 19.8
44 2.23
56 23.8
57 34.8
58 52.2
70 99.99
71 17.2
83 31.1
98 49.8
99 4.69
101 28.3
166 19.8
185 0.3
209 1.3
324 51.9

>  <PREDICTED SPECTRUM>  (1355) 
18 4
27 6
28 53
29 24
30 18
31 8
32 27
39 45
41 187
42 248
43 401
44 273
45 45
51 20
53 26
54 45
55 124
56 529
57 518
58 594
59 93
65 32
67 46
68 54
70 999
71 349
77 68
81 172
83 561
95 10
97 90
98 474
99 402
101 580
102 118
127 97
166 533
174 27
187 87
209 170
210 174
211 4
225 59
238 44
265 45
267 132
277 119
278 2
324 429

$$$$

     RDKit          2D

 22 22  0  0  0  0  0  0  0  0999 V2000
   -2.5989    1.5002    0.0000 C   0  0  0  0  0  0  0  0  0  0  0  0
   -2.5989   -1.5002    0.0000 C   0  0  0  0  0  0  0  0  0  0  0  0
    2.5989    1.5002    0.0000 C   0  0  0  0  0  0  0  0  0  0  0  0
   -1.2990    5.2500    0.0000 C   0  0  0  0  0  0  0  0  0  0  0  0
    1.2990   -5.2500    0.0000 C   0  0  0  0  0  0  0  0  0  0  0  0
    6.4962   -0.7508    0.0000 C   0  0  0  0  0  0  0  0  0  0  0  0
    2.5989   -1.5002    0.0000 C   0  0  0  0  0  0  0  0  0  0  0  0
   -1.3000    0.7500    0.0000 C   0  0  0  0  0  0  0  0  0  0  0  0
   -1.3000   -0.7500    0.0000 C   0  0  0  0  0  0  0  0  0  0  0  0
    1.3000    0.7500    0.0000 C   0  0  0  0  0  0  0  0  0  0  0  0
   -1.2990    3.7500    0.0000 C   0  0  0  0  0  0  0  0  0  0  0  0
    1.2990   -3.7500    0.0000 C   0  0  0  0  0  0  0  0  0  0  0  0
    5.1970   -1.5006    0.0000 C   0  0  0  0  0  0  0  0  0  0  0  0
    1.3000   -0.7500    0.0000 C   0  0  0  0  0  0  0  0  0  0  0  0
   -0.0000    1.5000    0.0000 C   0  0  0  0  0  0  0  0  0  0  0  0
   -0.0000   -1.5000    0.0000 C   0  0  0  0  0  0  0  0  0  0  0  0
   -2.5981    3.0000    0.0000 O   0  0  0  0  0  0  0  0  0  0  0  0
    2.5981   -3.0000    0.0000 O   0  0  0  0  0  0  0  0  0  0  0  0
    5.1968   -3.0006    0.0000 O   0  0  0  0  0  0  0  0  0  0  0  0
    0.0000    3.0000    0.0000 O   0  0  0  0  0  0  0  0  0  0  0  0
   -0.0000   -3.0000    0.0000 O   0  0  0  0  0  0  0  0  0  0  0  0
    3.8981   -0.7504    0.0000 S   0  0  0  0  0  0  0  0  0  0  0  0
  8  1  1  0
  9  2  1  0
  9  8  2  0
 10  3  1  0
 11  4  1  0
 12  5  1  0
 13  6  1  0
 14  7  1  0
 14 10  1  0
 15  8  1  0
 15 10  2  0
 16  9  1  0
 16 14  2  0
 17 11  2  0
 18 12  2  0
 19 13  2  0
 20 11  1  0
 20 15  1  0
 21 12  1  0
 21 16  1  0
 22  7  1  0
 22 13  1  0
M  END
>  <NAME>  (1356) 
S-(2,5-DIACETOXY-3,4,6-TRIMETHYL-PHENYLMETHYL)THIOACETATE

>  <SYNONYMS>  (1356) 


>  <SPECTRUM TYPE>  (1356) 
MS1

>  <INSTRUMENT TYPE>  (1356) 
EI-B

>  <INSTRUMENT>  (1356) 
JEOL JMS-D-300

>  <ION MODE>  (1356) 
P

>  <INCHIKEY>  (1356) 
TWCQSTWNXKQUGO-UHFFFAOYSA-N

>  <FORMULA>  (1356) 
C16H20O5S

>  <EXACT MASS>  (1356) 
324.10314474

>  <MW>  (1356) 
324

>  <ID>  (1356) 
JP009971

>  <CONTRIBUTOR>  (1356) 
University of Tokyo Team, {Faculty of Engineering, University of Tokyo

>  <COMMENT>  (1356) 
SMILES=CC(=O)SCc(c(C)1)c(OC(C)=O)c(C)c(C)c(OC(C)=O)1
InChI=InChI=1S/C16H20O5S/c1-8-9(2)16(21-12(5)18)14(7-22-13(6)19)10(3)15(8)20-11(4)17/h7H2,1-6H3
computed SMILES=O=C(OC=1C(=C(C(OC(=O)C)=C(C1C)CSC(=O)C)C)C)C
accession=JP009971
date=2016.01.19 (Created 2008.10.21, modified 2011.05.06)
author=KURARAY CO., LTD.
license=CC BY-NC-SA
exact mass=324.10314
ionization energy=70 eV
ion type=[M]+*
computed spectral entropy=2.412958636767506
computed normalized entropy=0.6200077218207973
SPLASH=splash10-01ox-2950000000-1146c973cf15c6acf4c7
submitter=submitter = University of Tokyo Team (Faculty of Engineering, University of Tokyo)
MoNA Rating=3.75

>  <NUM PEAKS>  (1356) 
49

>  <MASS SPECTRAL PEAKS>  (1356) 
39 0.9
41 0.6
43 46.6
53 0.33
54 0.2
65 0.5
67 1.4
77 0.14
79 1.3
85 0.2
91 4.2
93 0.05
105 0.6
107 2.7
119 0.2
121 0.56
122 1.3
134 0.3
135 4.7
136 0.51
137 1.4
151 2.3
152 1.3
153 0.13
163 2.8
164 99.99
165 46.4
166 0.59
179 0.5
180 0.2
181 0.9
195 0.19
196 1.6
197 14.2
198 35.3
199 0.45
200 1.6
205 0.2
206 0.5
207 1.36
208 1.4
239 2.2
240 74.2
241 1.05
242 3.9
282 42.7
283 6.7
284 0.23
324 4.7

>  <PREDICTED SPECTRUM>  (1356) 
14 28
15 83
29 20
39 74
40 24
41 90
42 114
43 784
44 115
45 48
49 10
51 86
52 37
53 125
57 48
59 116
60 58
61 22
63 33
65 123
66 98
67 45
69 77
70 47
77 198
78 112
79 124
80 11
81 55
82 11
83 23
85 6
89 64
91 103
92 69
93 95
94 29
95 20
103 59
104 0
105 93
106 48
107 151
108 70
109 64
110 46
119 138
120 92
121 123
122 39
123 116
124 160
133 7
134 20
135 6
136 59
137 130
138 68
139 7
148 52
149 92
150 106
151 272
152 142
153 68
155 57
156 34
162 116
163 324
164 851
165 736
166 168
167 26
168 56
169 53
170 70
179 109
180 216
181 144
182 101
196 53
197 614
198 905
199 423
200 106
204 0
205 87
206 230
207 265
208 56
209 29
222 33
239 166
240 999
241 331
242 139
282 772
283 314
284 137
324 267
325 48

$$$$

     RDKit          2D

 23 23  0  0  0  0  0  0  0  0999 V2000
    7.7948    3.0010    0.0000 C   0  0  0  0  0  0  0  0  0  0  0  0
   12.9910    3.0019    0.0000 C   0  0  0  0  0  0  0  0  0  0  0  0
   -2.5989   -1.5002    0.0000 C   0  0  0  0  0  0  0  0  0  0  0  0
   16.8885    0.7525    0.0000 C   0  0  0  0  0  0  0  0  0  0  0  0
   10.3931    1.5015    0.0000 C   0  0  0  0  0  0  0  0  0  0  0  0
    5.1970    1.5006    0.0000 C   0  0  0  0  0  0  0  0  0  0  0  0
    9.0942    0.7512    0.0000 C   0  0  0  0  0  0  0  0  0  0  0  0
    6.4962    0.7508    0.0000 C   0  0  0  0  0  0  0  0  0  0  0  0
   11.6923    0.7517    0.0000 C   0  0  0  0  0  0  0  0  0  0  0  0
    3.8981    0.7504    0.0000 C   0  0  0  0  0  0  0  0  0  0  0  0
   -1.3000    0.7500    0.0000 C   0  0  0  0  0  0  0  0  0  0  0  0
   -0.0000   -1.5000    0.0000 C   0  0  0  0  0  0  0  0  0  0  0  0
   -0.0000    1.5000    0.0000 C   0  0  0  0  0  0  0  0  0  0  0  0
    1.3000   -0.7500    0.0000 C   0  0  0  0  0  0  0  0  0  0  0  0
    7.7951    1.5010    0.0000 C   0  0  0  0  0  0  0  0  0  0  0  0
   12.9912    1.5019    0.0000 C   0  0  0  0  0  0  0  0  0  0  0  0
    2.5989    1.5002    0.0000 C   0  0  0  0  0  0  0  0  0  0  0  0
   14.2904    0.7521    0.0000 C   0  0  0  0  0  0  0  0  0  0  0  0
   -1.3000   -0.7500    0.0000 N   0  0  0  0  0  0  0  0  0  0  0  0
    1.3000    0.7500    0.0000 N   0  0  0  0  0  0  0  0  0  0  0  0
    2.5987    3.0002    0.0000 O   0  0  0  0  0  0  0  0  0  0  0  0
   14.2906   -0.7479    0.0000 O   0  0  0  0  0  0  0  0  0  0  0  0
   15.5893    1.5023    0.0000 O   0  0  0  0  0  0  0  0  0  0  0  0
  7  5  1  0
  8  6  1  0
  9  5  1  0
 10  6  1  0
 13 11  1  0
 14 12  1  0
 15  1  1  0
 15  7  1  0
  8 15  2  0
 16  2  1  0
  9 16  2  0
 17 10  1  0
 18 16  1  0
 19  3  1  0
 19 11  1  0
 19 12  1  0
 20 13  1  0
 20 14  1  0
 20 17  1  0
 21 17  2  0
 22 18  2  0
 23  4  1  0
 23 18  1  0
M  END
>  <NAME>  (1357) 
METHYL 2,6-DIMETHYL-9-(N-METHYLPIPERAZINYLCARBAMOYL)-2,6-NONADIENOATE

>  <SYNONYMS>  (1357) 


>  <SPECTRUM TYPE>  (1357) 
MS1

>  <INSTRUMENT TYPE>  (1357) 
EI-B

>  <INSTRUMENT>  (1357) 
JEOL JMS-D-300

>  <ION MODE>  (1357) 
P

>  <INCHIKEY>  (1357) 
UJSXGCPFSPWPNB-BVXMOGEKSA-N

>  <FORMULA>  (1357) 
C18H30N2O3

>  <EXACT MASS>  (1357) 
322.22564281999996

>  <MW>  (1357) 
322

>  <ID>  (1357) 
JP009970

>  <CONTRIBUTOR>  (1357) 
University of Tokyo Team, {Faculty of Engineering, University of Tokyo

>  <COMMENT>  (1357) 
SMILES=COC(=O)C(C)=CCCC(C)=CCCC(=O)N(C1)CCN(C)C1
InChI=InChI=1S/C18H30N2O3/c1-15(7-5-9-16(2)18(22)23-4)8-6-10-17(21)20-13-11-19(3)12-14-20/h8-9H,5-7,10-14H2,1-4H3/b15-8+,16-9+
computed SMILES=O=C(OC)C(=CCCC(=CCCC(=O)N1CCN(C)CC1)C)C
accession=JP009970
date=2016.01.19 (Created 2008.10.21, modified 2011.05.06)
author=KURARAY CO., LTD.
license=CC BY-NC-SA
exact mass=322.22564
ionization energy=70 eV
ion type=[M]+*
computed spectral entropy=3.4586852217276873
computed normalized entropy=0.7764740806440354
SPLASH=splash10-0aba-9320000000-67a8108e2d75889e5a30
submitter=submitter = University of Tokyo Team (Faculty of Engineering, University of Tokyo)
MoNA Rating=3.75

>  <NUM PEAKS>  (1357) 
86

>  <MASS SPECTRAL PEAKS>  (1357) 
27 5.9
28 2.2
29 6.4
30 0.47
39 5.5
41 13.4
42 20.6
43 2.58
44 19.1
45 4.2
53 11.6
54 0.47
55 14.8
56 39.2
57 28.1
58 4.69
59 8
67 8
68 4.7
69 0.61
70 99.99
71 14.7
72 4.1
73 0.28
77 1.9
79 5.2
80 5.8
81 1.58
82 5.8
83 24.4
84 4.8
85 0.72
91 0.5
93 2.7
95 2
96 0.39
97 12.2
98 41.6
99 50.8
100 0.81
101 63.6
102 3.6
105 3.3
107 0.28
109 5.2
110 1.9
111 3.4
112 0.3
113 4.4
114 0.3
121 2.5
122 0.22
125 1.9
127 21.1
128 2.2
135 0.7
140 2
141 1.9
142 3.8
148 0.17
149 0.9
152 8
153 1.9
155 0.77
156 1.7
163 1.9
166 37.5
167 0.55
178 2.2
191 1.3
207 1.6
208 0.25
209 98.6
210 14.5
235 6.7
236 0.19
255 6.6
262 4.1
263 1.9
266 0.19
281 1.4
291 4.5
320 4.7
322 1.25
323 2
368 1.4

>  <PREDICTED SPECTRUM>  (1357) 
15 36
17 15
18 43
26 26
27 84
28 101
29 142
30 53
31 58
32 53
39 121
40 41
41 289
42 299
43 284
44 425
45 80
46 4
47 14
49 12
50 20
51 61
53 152
54 131
55 321
56 558
57 597
58 523
59 154
60 40
61 0
63 21
65 109
66 36
67 238
68 206
69 149
70 852
71 262
72 55
73 68
74 17
75 8
77 161
79 89
80 5
81 370
82 139
83 640
84 3
85 22
87 8
91 39
93 114
95 187
96 90
97 343
98 645
99 667
100 84
101 727
102 46
107 82
108 79
109 251
113 55
119 30
125 8
127 510
136 7
137 5
142 269
149 110
152 101
165 44
166 622
167 38
168 56
169 54
171 10
181 4
185 65
187 9
194 2
207 23
209 999
210 504
211 92
223 51
247 17
249 12
252 25
263 69
265 42
277 208
291 192
322 47
323 95

$$$$

     RDKit          2D

 23 24  0  0  0  0  0  0  0  0999 V2000
    8.7297    5.6713    0.0000 C   0  0  0  0  0  0  0  0  0  0  0  0
    6.2881    6.5594    0.0000 C   0  0  0  0  0  0  0  0  0  0  0  0
   -3.7389    1.4102    0.0000 C   0  0  0  0  0  0  0  0  0  0  0  0
   -1.1400    2.9100    0.0000 C   0  0  0  0  0  0  0  0  0  0  0  0
   -1.1400   -3.0900    0.0000 C   0  0  0  0  0  0  0  0  0  0  0  0
    4.2372    0.3997    0.0000 C   0  0  0  0  0  0  0  0  0  0  0  0
    1.4600   -1.5900    0.0000 C   0  0  0  0  0  0  0  0  0  0  0  0
    4.7499    2.3304    0.0000 C   0  0  0  0  0  0  0  0  0  0  0  0
    2.7600   -0.8400    0.0000 C   0  0  0  0  0  0  0  0  0  0  0  0
    3.2727    2.0696    0.0000 C   0  0  0  0  0  0  0  0  0  0  0  0
    7.2525    5.4105    0.0000 C   0  0  0  0  0  0  0  0  0  0  0  0
   -2.4400    0.6600    0.0000 C   0  0  0  0  0  0  0  0  0  0  0  0
   -1.1400    1.4100    0.0000 C   0  0  0  0  0  0  0  0  0  0  0  0
   -1.1400   -1.5900    0.0000 C   0  0  0  0  0  0  0  0  0  0  0  0
    0.1600   -0.8400    0.0000 C   0  0  0  0  0  0  0  0  0  0  0  0
    5.2626    3.7401    0.0000 C   0  0  0  0  0  0  0  0  0  0  0  0
   -2.4400   -0.8400    0.0000 C   0  0  0  0  0  0  0  0  0  0  0  0
    0.1600    0.6600    0.0000 C   0  0  0  0  0  0  0  0  0  0  0  0
    2.7600    0.6600    0.0000 C   0  0  0  0  0  0  0  0  0  0  0  0
    4.2982    4.8889    0.0000 O   0  0  0  0  0  0  0  0  0  0  0  0
   -3.7389   -1.5902    0.0000 O   0  0  0  0  0  0  0  0  0  0  0  0
    6.7398    4.0009    0.0000 O   0  0  0  0  0  0  0  0  0  0  0  0
    1.4600    1.4100    0.0000 O   0  0  0  0  0  0  0  0  0  0  0  0
  9  7  1  0
 10  8  1  0
 11  1  1  0
 11  2  1  0
 12  3  1  0
 13  4  1  0
 13 12  1  0
 14  5  1  0
 15  7  1  0
 15 14  2  0
 16  8  1  0
 17 12  2  0
 17 14  1  0
 18 13  2  0
 18 15  1  0
 19  6  1  0
 19  9  1  0
 19 10  1  0
 20 16  2  0
 21 17  1  0
 22 11  1  0
 22 16  1  0
 23 18  1  0
 23 19  1  0
M  END
>  <NAME>  (1358) 
2-(2-ISOPROPOXYCARBONYLETHYL)-6-HYDROXY-2,5,7,8-TETRAMETHYL-2H-1-BENZOPYRAN

>  <SYNONYMS>  (1358) 


>  <SPECTRUM TYPE>  (1358) 
MS1

>  <INSTRUMENT TYPE>  (1358) 
EI-B

>  <INSTRUMENT>  (1358) 
JEOL JMS-D-300

>  <ION MODE>  (1358) 
P

>  <INCHIKEY>  (1358) 
PWRAYOPGCFLHSF-UHFFFAOYSA-N

>  <FORMULA>  (1358) 
C19H28O4

>  <EXACT MASS>  (1358) 
320.198759376

>  <MW>  (1358) 
320

>  <ID>  (1358) 
JP009968

>  <CONTRIBUTOR>  (1358) 
University of Tokyo Team, {Faculty of Engineering, University of Tokyo

>  <COMMENT>  (1358) 
SMILES=CC(C)OC(=O)CCC(C)(C2)Oc(c(C)1)c(C2)c(C)c(O)c(C)1
InChI=InChI=1S/C19H28O4/c1-11(2)22-16(20)8-10-19(6)9-7-15-14(5)17(21)12(3)13(4)18(15)23-19/h11,21H,7-10H2,1-6H3
computed SMILES=O=C(OC(C)C)CCC1(OC=2C(=C(C(O)=C(C2CC1)C)C)C)C
accession=JP009968
date=2016.01.19 (Created 2008.10.21, modified 2011.05.06)
author=KURARAY CO., LTD.
license=CC BY-NC-SA
exact mass=320.19876
ionization energy=70 eV
ion type=[M]+*
computed spectral entropy=2.9445701181357173
computed normalized entropy=0.6353273569207071
SPLASH=splash10-02t9-2922000000-36e66a33d3640db199c8
submitter=submitter = University of Tokyo Team (Faculty of Engineering, University of Tokyo)
MoNA Rating=3.75

>  <NUM PEAKS>  (1358) 
103

>  <MASS SPECTRAL PEAKS>  (1358) 
27 1.6
28 3.1
29 0.8
31 0.05
32 0.8
39 1.6
41 5
42 0.03
43 8.1
51 0.8
52 0.6
53 0.22
54 0.5
55 3.1
57 0.3
59 0.03
65 0.6
66 0.3
67 1.9
69 0.19
70 0.3
71 0.6
73 0.9
77 0.17
78 0.6
79 1.9
80 0.5
81 0.16
82 0.5
83 1.3
85 0.3
91 0.3
92 0.3
93 1.3
95 1.6
96 0.05
97 3.8
102 0.5
103 0.5
104 0.03
105 1.1
107 1.4
109 0.5
110 0.08
111 0.3
113 0.3
115 1.6
117 0.05
119 0.3
121 4.7
122 1.4
130 0.28
131 0.8
132 0.6
135 2.8
136 0.45
137 2.2
139 0.5
146 0.3
147 0.03
148 0.3
149 1.4
151 3.1
152 0.53
153 0.6
159 0.6
161 1.1
162 0.13
163 1.4
164 44.7
165 99.99
166 1.14
167 0.3
175 1.9
176 0.5
177 0.31
178 0.3
179 0.3
189 2.2
190 0.13
202 0.5
203 4.5
204 1.6
205 0.63
206 0.5
217 1.4
218 1.4
231 0.17
232 5.2
233 0.3
243 2
245 0.06
259 1.6
260 6.4
261 15.3
262 0.2
263 0.3
277 0.9
278 17.2
279 0.31
320 41.9
321 9.1
322 1.1

>  <PREDICTED SPECTRUM>  (1358) 
27 3
41 210
43 367
51 16
53 112
54 0
55 137
65 76
67 81
69 55
77 154
78 21
79 114
83 28
91 146
93 92
103 27
105 86
107 107
115 102
117 14
119 24
121 183
122 53
131 38
133 96
134 47
135 188
137 3
141 46
147 12
148 99
149 34
151 70
155 28
161 6
163 31
164 999
165 790
166 80
175 76
176 7
189 99
190 46
203 105
205 44
217 103
231 142
232 246
233 67
245 24
259 20
260 369
261 267
278 679
279 134
320 759
321 379
322 93

$$$$

     RDKit          2D

 20 21  0  0  0  0  0  0  0  0999 V2000
   -6.2469    1.7895    0.0000 C   0  0  0  0  0  0  0  0  0  0  0  0
   -5.4969    0.4904    0.0000 C   0  0  0  0  0  0  0  0  0  0  0  0
   -5.2385    2.9028    0.0000 C   0  0  0  0  0  0  0  0  0  0  0  0
   -4.0285    0.8071    0.0000 C   0  0  0  0  0  0  0  0  0  0  0  0
    5.2225    4.5447    0.0000 C   0  0  0  0  0  0  0  0  0  0  0  0
    3.9233    5.2945    0.0000 C   0  0  0  0  0  0  0  0  0  0  0  0
    0.0252    7.5458    0.0000 C   0  0  0  0  0  0  0  0  0  0  0  0
    0.0262    4.5441    0.0000 C   0  0  0  0  0  0  0  0  0  0  0  0
    1.3247    6.7949    0.0000 C   0  0  0  0  0  0  0  0  0  0  0  0
   -1.2738    6.7958    0.0000 C   0  0  0  0  0  0  0  0  0  0  0  0
    1.3252    5.2941    0.0000 C   0  0  0  0  0  0  0  0  0  0  0  0
   -1.2733    5.2949    0.0000 C   0  0  0  0  0  0  0  0  0  0  0  0
   -2.5724    3.0449    0.0000 C   0  0  0  0  0  0  0  0  0  0  0  0
    2.6238    7.5449    0.0000 Cl  0  0  0  0  0  0  0  0  0  0  0  0
   -2.5730    7.5456    0.0000 Cl  0  0  0  0  0  0  0  0  0  0  0  0
   -3.8714    2.2949    0.0000 N   0  0  0  0  0  0  0  0  0  0  0  0
    6.5214    5.2949    0.0000 O   0  0  0  0  0  0  0  0  0  0  0  0
   -1.2733    2.2949    0.0000 O   0  0  0  0  0  0  0  0  0  0  0  0
    2.6244    4.5443    0.0000 O   0  0  0  0  0  0  0  0  0  0  0  0
   -2.5724    4.5449    0.0000 O   0  0  0  0  0  0  0  0  0  0  0  0
  2  1  1  0
  3  1  1  0
  4  2  1  0
  6  5  1  0
  9  7  2  0
 10  7  1  0
 11  8  2  0
 11  9  1  0
 12  8  1  0
 12 10  2  0
 14  9  1  0
 15 10  1  0
 16  3  1  0
 16  4  1  0
 16 13  1  0
 17  5  1  0
 18 13  2  0
 19  6  1  0
 19 11  1  0
 20 12  1  0
 20 13  1  0
M  END
>  <NAME>  (1359) 
N-(2,4-DICHLORO-5-(2-HYDROXYETHOXY)PHENOXYCARBONYL)TETRAHYDROPYRROLE

>  <SYNONYMS>  (1359) 


>  <SPECTRUM TYPE>  (1359) 
MS1

>  <INSTRUMENT TYPE>  (1359) 
EI-B

>  <INSTRUMENT>  (1359) 
JEOL JMS-D-300

>  <ION MODE>  (1359) 
P

>  <INCHIKEY>  (1359) 
WYJXQWOKFHETOU-UHFFFAOYSA-N

>  <FORMULA>  (1359) 
C13H15Cl2NO4

>  <EXACT MASS>  (1359) 
319.03781332

>  <MW>  (1359) 
319

>  <ID>  (1359) 
JP009967

>  <CONTRIBUTOR>  (1359) 
University of Tokyo Team, {Faculty of Engineering, University of Tokyo

>  <COMMENT>  (1359) 
SMILES=OCCOc(c1)c(Cl)cc(Cl)c(OC(=O)N(C2)CCC2)1
InChI=InChI=1S/C13H15Cl2NO4/c14-9-7-10(15)12(8-11(9)19-6-5-17)20-13(18)16-3-1-2-4-16/h7-8,17H,1-6H2
computed SMILES=O=C(OC=1C=C(OCCO)C(Cl)=CC1Cl)N2CCCC2
accession=JP009967
date=2016.01.19 (Created 2008.10.21, modified 2011.05.06)
author=KURARAY CO., LTD.
license=CC BY-NC-SA
exact mass=319.03781
ionization energy=70 eV
ion type=[M]+*
computed spectral entropy=1.766397732765624
computed normalized entropy=0.5009124054205698
SPLASH=splash10-052b-9000000000-2354136005507cee405f
submitter=submitter = University of Tokyo Team (Faculty of Engineering, University of Tokyo)
MoNA Rating=3.75

>  <NUM PEAKS>  (1359) 
34

>  <MASS SPECTRAL PEAKS>  (1359) 
27 0.5
28 1.9
29 1.5
30 0.48
41 1.2
42 1.2
43 1.4
45 0.51
55 39.2
56 12.1
69 1.2
70 0.17
73 0.3
78 0.3
85 0.2
97 0.12
98 99.99
99 6
133 0.5
178 0.9
180 6.3
182 1.4
222 1.2
224 0.08
266 2.1
268 1.2
284 1.6
285 0.03
286 0.5
319 4.7
320 0.8
321 0.3
322 0.5
323 0.5

>  <PREDICTED SPECTRUM>  (1359) 
26 3
27 82
28 44
29 85
35 0
36 20
39 48
40 13
41 208
42 220
43 146
44 63
45 36
50 14
51 18
53 72
54 92
55 497
56 339
57 109
62 40
63 89
65 0
67 20
68 43
69 191
70 85
71 34
72 78
73 91
74 63
75 59
76 4
83 162
84 532
91 13
97 20
98 999
99 224
100 18
101 59
115 1
124 22
133 30
145 14
147 56
157 2
158 48
162 66
164 10
171 11
200 27
319 145
320 37
321 79
322 33

$$$$

     RDKit          2D

 20 20  0  0  0  0  0  0  0  0999 V2000
   -7.7951    1.5010    0.0000 C   0  0  0  0  0  0  0  0  0  0  0  0
   -1.3000   -0.7500    0.0000 C   0  0  0  0  0  0  0  0  0  0  0  0
    0.0000    1.5000    0.0000 C   0  0  0  0  0  0  0  0  0  0  0  0
    0.0000   -1.5000    0.0000 C   0  0  0  0  0  0  0  0  0  0  0  0
    1.3000    0.7500    0.0000 C   0  0  0  0  0  0  0  0  0  0  0  0
    5.1970   -1.5006    0.0000 C   0  0  0  0  0  0  0  0  0  0  0  0
    3.8976   -3.7504    0.0000 C   0  0  0  0  0  0  0  0  0  0  0  0
    3.8981   -0.7504    0.0000 C   0  0  0  0  0  0  0  0  0  0  0  0
    2.5987   -3.0002    0.0000 C   0  0  0  0  0  0  0  0  0  0  0  0
   -2.5989    1.5002    0.0000 C   0  0  0  0  0  0  0  0  0  0  0  0
   -1.3000    0.7500    0.0000 C   0  0  0  0  0  0  0  0  0  0  0  0
    1.3000   -0.7500    0.0000 C   0  0  0  0  0  0  0  0  0  0  0  0
   -3.8981    0.7504    0.0000 C   0  0  0  0  0  0  0  0  0  0  0  0
   -5.1970    1.5006    0.0000 C   0  0  0  0  0  0  0  0  0  0  0  0
    6.4962   -0.7508    0.0000 Cl  0  0  0  0  0  0  0  0  0  0  0  0
    3.8974   -5.2504    0.0000 Cl  0  0  0  0  0  0  0  0  0  0  0  0
   -3.8983   -0.7496    0.0000 N   0  0  0  0  0  0  0  0  0  0  0  0
    2.5989   -1.5002    0.0000 N   0  0  0  0  0  0  0  0  0  0  0  0
   -5.1968    3.0006    0.0000 O   0  0  0  0  0  0  0  0  0  0  0  0
   -6.4962    0.7508    0.0000 O   0  0  0  0  0  0  0  0  0  0  0  0
  4  2  2  0
  5  3  1  0
  8  6  1  0
  9  7  1  0
 11  2  1  0
 11  3  2  0
 11 10  1  0
 12  4  1  0
 12  5  2  0
 13 10  1  0
 14 13  1  0
 15  6  1  0
 16  7  1  0
 17 13  1  0
 18  8  1  0
 18  9  1  0
 18 12  1  0
 19 14  2  0
 20  1  1  0
 20 14  1  0
M  END
>  <NAME>  (1360) 
METHYL 2-AMINO-3-(4-(N,N-BIS(2-CHLOROETHYL)AMINO)PHENYLPROPIONATE

>  <SYNONYMS>  (1360) 


>  <SPECTRUM TYPE>  (1360) 
MS1

>  <INSTRUMENT TYPE>  (1360) 
EI-B

>  <INSTRUMENT>  (1360) 
JEOL JMS-D-300

>  <ION MODE>  (1360) 
P

>  <INCHIKEY>  (1360) 
YHYUQHQOUXSXQE-UHFFFAOYSA-N

>  <FORMULA>  (1360) 
C14H20Cl2N2O2

>  <EXACT MASS>  (1360) 
318.09018324

>  <MW>  (1360) 
318

>  <ID>  (1360) 
JP009966

>  <CONTRIBUTOR>  (1360) 
University of Tokyo Team, {Faculty of Engineering, University of Tokyo

>  <COMMENT>  (1360) 
SMILES=ClCCN(CCCl)c(c1)ccc(c1)CC(N)C(=O)OC
InChI=InChI=1S/C14H20Cl2N2O2/c1-20-14(19)13(17)10-11-2-4-12(5-3-11)18(8-6-15)9-7-16/h2-5,13H,6-10,17H2,1H3
computed SMILES=O=C(OC)C(N)CC1=CC=C(C=C1)N(CCCl)CCCl
accession=JP009966
date=2016.01.19 (Created 2008.10.21, modified 2011.05.06)
author=KURARAY CO., LTD.
license=CC BY-NC-SA
exact mass=318.09018
ionization energy=70 eV
ion type=[M]+*
computed spectral entropy=2.106275489362449
computed normalized entropy=0.6464742418717616
SPLASH=splash10-001i-0290000000-feae1d5980dfc5c1a7f4
submitter=submitter = University of Tokyo Team (Faculty of Engineering, University of Tokyo)
MoNA Rating=3.75

>  <NUM PEAKS>  (1360) 
26

>  <MASS SPECTRAL PEAKS>  (1360) 
63 2.5
90 3.1
91 3.1
105 0.44
117 2
118 20
119 8.1
132 0.41
146 4.4
149 4.7
168 3
181 0.8
183 2
194 2.2
209 1.6
212 0.38
230 99.99
231 12.5
232 64.7
233 0.91
234 12.8
259 7.2
261 4.5
269 0.13
318 3
320 2

>  <PREDICTED SPECTRUM>  (1360) 
30 34
42 202
44 5
49 23
55 39
56 115
57 15
58 18
59 32
61 27
62 20
63 244
65 91
71 69
77 19
84 4
86 30
88 259
89 145
90 244
91 170
92 60
102 27
103 66
104 75
105 48
106 42
117 206
118 415
119 144
120 106
121 41
122 43
124 34
126 1
140 24
146 167
147 18
149 99
168 67
187 24
194 49
195 35
209 49
211 47
212 33
213 41
214 36
229 103
230 999
231 353
232 938
233 262
234 374
259 179
261 118
282 44
318 107
319 27
320 117
321 13

$$$$

     RDKit          2D

 22 23  0  0  0  0  0  0  0  0999 V2000
  -12.0174   -3.5608    0.0000 C   0  0  0  0  0  0  0  0  0  0  0  0
    4.8714   -5.8135    0.0000 C   0  0  0  0  0  0  0  0  0  0  0  0
    3.5724   -8.0635    0.0000 C   0  0  0  0  0  0  0  0  0  0  0  0
   -9.4183   -6.5623    0.0000 C   0  0  0  0  0  0  0  0  0  0  0  0
  -10.7178   -5.8115    0.0000 C   0  0  0  0  0  0  0  0  0  0  0  0
   -8.1192   -5.8123    0.0000 C   0  0  0  0  0  0  0  0  0  0  0  0
   -1.6239   -6.5633    0.0000 C   0  0  0  0  0  0  0  0  0  0  0  0
   -0.3250   -4.3127    0.0000 C   0  0  0  0  0  0  0  0  0  0  0  0
   -2.9233   -5.8123    0.0000 C   0  0  0  0  0  0  0  0  0  0  0  0
   -1.6244   -3.5617    0.0000 C   0  0  0  0  0  0  0  0  0  0  0  0
   -9.4192   -3.5606    0.0000 C   0  0  0  0  0  0  0  0  0  0  0  0
   -5.5216   -4.3115    0.0000 C   0  0  0  0  0  0  0  0  0  0  0  0
  -10.7183   -4.3106    0.0000 C   0  0  0  0  0  0  0  0  0  0  0  0
   -0.3248   -5.8135    0.0000 C   0  0  0  0  0  0  0  0  0  0  0  0
   -2.9236   -4.3115    0.0000 C   0  0  0  0  0  0  0  0  0  0  0  0
   -8.1197   -4.3115    0.0000 C   0  0  0  0  0  0  0  0  0  0  0  0
    2.2733   -5.8135    0.0000 C   0  0  0  0  0  0  0  0  0  0  0  0
    0.9743   -6.5635    0.0000 N   0  0  0  0  0  0  0  0  0  0  0  0
    3.5724   -6.5635    0.0000 N   0  0  0  0  0  0  0  0  0  0  0  0
    2.2733   -4.3135    0.0000 O   0  0  0  0  0  0  0  0  0  0  0  0
   -4.2226   -3.5615    0.0000 O   0  0  0  0  0  0  0  0  0  0  0  0
   -6.8207   -3.5615    0.0000 S   0  0  0  0  0  0  0  0  0  0  0  0
  5  4  2  0
  6  4  1  0
  9  7  2  0
 10  8  1  0
 13  1  1  0
 13  5  1  0
 13 11  2  0
 14  7  1  0
 14  8  2  0
 15  9  1  0
 15 10  2  0
 16  6  2  0
 16 11  1  0
 18 14  1  0
 18 17  1  0
 19  2  1  0
 19  3  1  0
 19 17  1  0
 20 17  2  0
 21 12  1  0
 21 15  1  0
 22 12  1  0
 22 16  1  0
M  END
>  <NAME>  (1361) 
4-(N-(N,N-DIMETHYLCARBAMOYL)AMINO)PHENOXYMETHYL 3-METHYLPHENYL SULFIDE

>  <SYNONYMS>  (1361) 


>  <SPECTRUM TYPE>  (1361) 
MS1

>  <INSTRUMENT TYPE>  (1361) 
EI-B

>  <INSTRUMENT>  (1361) 
JEOL JMS-D-300

>  <ION MODE>  (1361) 
P

>  <INCHIKEY>  (1361) 
UFVWOSHVXSRPKE-UHFFFAOYSA-N

>  <FORMULA>  (1361) 
C17H20N2O2S

>  <EXACT MASS>  (1361) 
316.12454888

>  <MW>  (1361) 
316

>  <ID>  (1361) 
JP009965

>  <CONTRIBUTOR>  (1361) 
University of Tokyo Team, {Faculty of Engineering, University of Tokyo

>  <COMMENT>  (1361) 
SMILES=CN(C)C(=O)Nc(c1)ccc(OCSc(c2)cc(C)cc2)c1
InChI=InChI=1S/C17H20N2O2S/c1-13-5-4-6-16(11-13)22-12-21-15-9-7-14(8-10-15)18-17(20)19(2)3/h4-11H,12H2,1-3H3,(H,18,20)
computed SMILES=O=C(NC1=CC=C(OCSC2=CC=CC(=C2)C)C=C1)N(C)C
accession=JP009965
date=2016.01.19 (Created 2008.10.21, modified 2011.05.06)
author=KURARAY CO., LTD.
license=CC BY-NC-SA
exact mass=316.12455
ionization energy=70 eV
ion type=[M]+*
computed spectral entropy=2.047332653484198
computed normalized entropy=0.5042141086986185
SPLASH=splash10-000i-4901000000-2fb5c0099b44ed5a44f6
submitter=submitter = University of Tokyo Team (Faculty of Engineering, University of Tokyo)
MoNA Rating=3.75

>  <NUM PEAKS>  (1361) 
58

>  <MASS SPECTRAL PEAKS>  (1361) 
28 1.2
39 1.4
41 0.3
42 0.08
43 0.6
44 5.8
45 13.5
46 0.01
47 0.2
51 0.4
52 0.1
53 0.02
59 0.2
63 1
64 0.6
65 0.26
66 0.1
67 0.1
72 24
73 0.05
77 1.8
78 0.4
79 0.5
89 0.05
90 1.8
91 6.2
92 0.6
93 0.33
98 0.5
103 0.1
104 0.3
105 0.01
106 0.1
107 0.1
108 0.1
118 0.04
119 0.1
121 0.6
122 0.7
123 0.02
124 0.1
134 0.1
135 1.8
136 0.01
137 99.99
138 10
171 4.5
172 0.01
173 1.2
174 0.1
179 0.2
192 0.06
193 0.6
194 0.1
271 2.5
272 0.01
316 13.4
317 2.8

>  <PREDICTED SPECTRUM>  (1361) 
30 12
38 27
39 145
40 50
41 127
42 190
43 76
44 268
45 272
46 14
50 39
51 92
52 90
53 83
55 3
56 155
57 30
63 127
64 76
65 206
69 37
70 48
71 11
72 999
73 74
77 149
78 76
79 111
80 27
81 29
82 18
84 21
90 56
91 290
92 117
93 45
100 90
107 27
108 49
109 17
110 5
117 24
118 2
119 5
120 55
121 93
122 155
123 54
135 17
136 43
137 952
138 226
139 29
157 5
179 40
180 62
271 130
316 428
317 211
318 49

$$$$

     RDKit          2D

 22 22  0  0  0  0  0  0  0  0999 V2000
  -13.8335    7.1903    0.0000 C   0  0  0  0  0  0  0  0  0  0  0  0
  -12.5345    9.4403    0.0000 C   0  0  0  0  0  0  0  0  0  0  0  0
   -7.3383    9.4403    0.0000 C   0  0  0  0  0  0  0  0  0  0  0  0
   -2.1422    9.4403    0.0000 C   0  0  0  0  0  0  0  0  0  0  0  0
    4.0182    9.0894    0.0000 C   0  0  0  0  0  0  0  0  0  0  0  0
   -9.9364    7.9403    0.0000 C   0  0  0  0  0  0  0  0  0  0  0  0
   -4.7402    7.9403    0.0000 C   0  0  0  0  0  0  0  0  0  0  0  0
    0.4559    7.9403    0.0000 C   0  0  0  0  0  0  0  0  0  0  0  0
  -11.2354    7.1903    0.0000 C   0  0  0  0  0  0  0  0  0  0  0  0
   -8.6374    7.1903    0.0000 C   0  0  0  0  0  0  0  0  0  0  0  0
   -6.0393    7.1903    0.0000 C   0  0  0  0  0  0  0  0  0  0  0  0
   -3.4412    7.1903    0.0000 C   0  0  0  0  0  0  0  0  0  0  0  0
   -0.8431    7.1903    0.0000 C   0  0  0  0  0  0  0  0  0  0  0  0
    1.7549    7.1903    0.0000 C   0  0  0  0  0  0  0  0  0  0  0  0
    5.8539    7.1899    0.0000 C   0  0  0  0  0  0  0  0  0  0  0  0
  -12.5345    7.9403    0.0000 C   0  0  0  0  0  0  0  0  0  0  0  0
   -7.3383    7.9403    0.0000 C   0  0  0  0  0  0  0  0  0  0  0  0
   -2.1422    7.9403    0.0000 C   0  0  0  0  0  0  0  0  0  0  0  0
    4.3530    7.1903    0.0000 C   0  0  0  0  0  0  0  0  0  0  0  0
    3.0540    7.9403    0.0000 C   0  0  0  0  0  0  0  0  0  0  0  0
    2.0898    9.0894    0.0000 O   0  0  0  0  0  0  0  0  0  0  0  0
    5.1039    5.8908    0.0000 O   0  0  0  0  0  0  0  0  0  0  0  0
  9  6  1  0
 10  6  1  0
 11  7  1  0
 12  7  1  0
 13  8  1  0
 14  8  1  0
 16  1  1  0
 16  2  1  0
 16  9  1  0
 17  3  1  0
 17 10  1  0
 17 11  1  0
 18  4  1  0
 18 12  1  0
 18 13  1  0
 19 15  1  0
 20  5  1  0
 20 14  1  0
 20 19  1  0
 21 20  1  0
 22 15  1  0
 22 19  1  0
M  END
>  <NAME>  (1362) 
1,2-EPOXY-3,7,11,15-TETRAMETHYLHEXADECAN-3-OL

>  <SYNONYMS>  (1362) 


>  <SPECTRUM TYPE>  (1362) 
MS1

>  <INSTRUMENT TYPE>  (1362) 
EI-B

>  <INSTRUMENT>  (1362) 
JEOL JMS-D-300

>  <ION MODE>  (1362) 
P

>  <INCHIKEY>  (1362) 
NOXQKQDMUVOWCE-UHFFFAOYSA-N

>  <FORMULA>  (1362) 
C20H40O2

>  <EXACT MASS>  (1362) 
312.30283052

>  <MW>  (1362) 
312

>  <ID>  (1362) 
JP009964

>  <CONTRIBUTOR>  (1362) 
University of Tokyo Team, {Faculty of Engineering, University of Tokyo

>  <COMMENT>  (1362) 
SMILES=CC(C)CCCC(C)CCCC(C)CCCC(C)(O)C(C1)O1
InChI=InChI=1S/C20H40O2/c1-16(2)9-6-10-17(3)11-7-12-18(4)13-8-14-20(5,21)19-15-22-19/h16-19,21H,6-15H2,1-5H3
computed SMILES=OC(C)(CCCC(C)CCCC(C)CCCC(C)C)C1OC1
accession=JP009964
date=2016.01.19 (Created 2008.10.21, modified 2011.05.06)
author=KURARAY CO., LTD.
license=CC BY-NC-SA
exact mass=312.30283
ionization energy=70 eV
ion type=[M]+*
computed spectral entropy=3.1478921451701822
computed normalized entropy=0.8006184503632316
SPLASH=splash10-0a4u-9100000000-4ff26ede576655ab222e
submitter=submitter = University of Tokyo Team (Faculty of Engineering, University of Tokyo)
MoNA Rating=3.75

>  <NUM PEAKS>  (1362) 
51

>  <MASS SPECTRAL PEAKS>  (1362) 
27 4
29 8.3
31 5
41 2.36
42 5.9
43 88.4
44 2.2
45 0.28
55 34.3
56 19.7
57 48.6
58 0.91
59 5.3
67 6.9
68 6
69 4.31
70 11
71 45.5
72 3.4
73 0.26
81 15.2
82 6
83 39.5
84 0.69
85 19
86 3.4
87 99.99
88 0.72
93 3.1
95 14
96 4.5
97 3.38
98 5
99 10.5
101 3.3
109 1.24
110 3.3
111 31
112 4
113 0.78
121 3.8
123 6.6
125 22.6
126 0.36
127 5.2
137 2.9
139 12.1
153 0.55
169 2.6
269 21.4
270 3.4

>  <PREDICTED SPECTRUM>  (1362) 
18 17
27 209
28 93
29 263
30 55
31 148
33 6
38 1
39 139
40 87
41 521
42 271
43 984
44 147
45 184
46 17
52 6
53 119
54 112
55 689
56 521
57 999
58 359
59 313
60 24
65 25
66 13
67 255
68 202
69 734
70 489
71 948
72 213
73 217
81 381
82 172
83 516
84 185
85 504
86 198
87 789
88 376
89 175
90 101
93 18
94 40
95 335
96 201
97 593
98 73
99 185
101 295
102 77
107 27
109 217
110 96
111 561
112 69
113 283
115 59
121 92
123 135
124 7
125 399
126 44
127 43
129 41
136 0
137 47
139 132
150 43
153 73
157 59
225 19
251 41
252 4
253 71
269 490
270 110
297 10

$$$$

     RDKit          2D

 22 21  0  0  0  0  0  0  0  0999 V2000
    5.8457    9.3750    0.0000 C   0  0  0  0  0  0  0  0  0  0  0  0
    4.5466   11.6250    0.0000 C   0  0  0  0  0  0  0  0  0  0  0  0
  -14.9389    7.8750    0.0000 C   0  0  0  0  0  0  0  0  0  0  0  0
  -16.2380   10.1250    0.0000 C   0  0  0  0  0  0  0  0  0  0  0  0
   -4.5466    9.3750    0.0000 C   0  0  0  0  0  0  0  0  0  0  0  0
   -5.8457   10.1250    0.0000 C   0  0  0  0  0  0  0  0  0  0  0  0
   -3.2476   10.1250    0.0000 C   0  0  0  0  0  0  0  0  0  0  0  0
   -7.1447    9.3750    0.0000 C   0  0  0  0  0  0  0  0  0  0  0  0
   -1.9486    9.3750    0.0000 C   0  0  0  0  0  0  0  0  0  0  0  0
   -8.4437   10.1250    0.0000 C   0  0  0  0  0  0  0  0  0  0  0  0
   -0.6495   10.1250    0.0000 C   0  0  0  0  0  0  0  0  0  0  0  0
   -9.7428    9.3750    0.0000 C   0  0  0  0  0  0  0  0  0  0  0  0
    0.6495    9.3750    0.0000 C   0  0  0  0  0  0  0  0  0  0  0  0
  -11.0418   10.1250    0.0000 C   0  0  0  0  0  0  0  0  0  0  0  0
    4.5466   10.1250    0.0000 C   0  0  0  0  0  0  0  0  0  0  0  0
  -14.9389    9.3750    0.0000 C   0  0  0  0  0  0  0  0  0  0  0  0
    3.2476    9.3750    0.0000 C   0  0  0  0  0  0  0  0  0  0  0  0
  -13.6399   10.1250    0.0000 C   0  0  0  0  0  0  0  0  0  0  0  0
    3.2476    7.8750    0.0000 O   0  0  0  0  0  0  0  0  0  0  0  0
  -13.6399   11.6250    0.0000 O   0  0  0  0  0  0  0  0  0  0  0  0
    1.9486   10.1250    0.0000 O   0  0  0  0  0  0  0  0  0  0  0  0
  -12.3409    9.3750    0.0000 O   0  0  0  0  0  0  0  0  0  0  0  0
  6  5  1  0
  7  5  1  0
  8  6  1  0
  9  7  1  0
 10  8  1  0
 11  9  1  0
 12 10  1  0
 13 11  1  0
 14 12  1  0
 15  1  2  0
 15  2  1  0
 16  3  2  0
 16  4  1  0
 17 15  1  0
 18 16  1  0
 19 17  2  0
 20 18  2  0
 21 13  1  0
 21 17  1  0
 22 14  1  0
 22 18  1  0
M  END
>  <NAME>  (1363) 
DECAN-1,10-DIOL DIMETHACRYLATE

>  <SYNONYMS>  (1363) 


>  <SPECTRUM TYPE>  (1363) 
MS1

>  <INSTRUMENT TYPE>  (1363) 
EI-B

>  <INSTRUMENT>  (1363) 
JEOL JMS-D-300

>  <ION MODE>  (1363) 
P

>  <INCHIKEY>  (1363) 
LRZPQLZONWIQOJ-UHFFFAOYSA-N

>  <FORMULA>  (1363) 
C18H30O4

>  <EXACT MASS>  (1363) 
310.21440944

>  <MW>  (1363) 
310

>  <ID>  (1363) 
JP009963

>  <CONTRIBUTOR>  (1363) 
University of Tokyo Team, {Faculty of Engineering, University of Tokyo

>  <COMMENT>  (1363) 
SMILES=CC(=C)C(=O)OCCCCCCCCCCOC(=O)C(C)=C
InChI=InChI=1S/C18H30O4/c1-15(2)17(19)21-13-11-9-7-5-6-8-10-12-14-22-18(20)16(3)4/h1,3,5-14H2,2,4H3
computed SMILES=O=C(OCCCCCCCCCCOC(=O)C(=C)C)C(=C)C
accession=JP009963
date=2016.01.19 (Created 2008.10.21, modified 2011.05.06)
author=KURARAY CO., LTD.
license=CC BY-NC-SA
exact mass=310.21441
ionization energy=70 eV
ion type=[M]+*
computed spectral entropy=3.2134046049719625
computed normalized entropy=0.7589333431936464
SPLASH=splash10-0159-9100000000-16fe47f453d6f7c51c0e
submitter=submitter = University of Tokyo Team (Faculty of Engineering, University of Tokyo)
MoNA Rating=3.75

>  <NUM PEAKS>  (1363) 
69

>  <MASS SPECTRAL PEAKS>  (1363) 
27 1.7
28 3.6
29 2.9
39 0.62
40 3.1
41 42.6
42 5
43 0.46
54 13.3
55 27
56 3.2
57 0.39
66 2.7
67 20.3
68 26.2
69 99.99
70 11.6
71 2.6
79 1.7
80 0.21
81 25.5
82 26.5
83 26
84 0.29
86 3.1
87 30.9
88 2.7
93 0.1
94 1.9
95 20
96 21
97 1.26
98 3.6
99 1.5
107 1
108 0.51
109 12.8
110 15.9
111 3.1
112 0.27
113 1.5
114 0.3
121 1.4
122 0.05
123 2.4
124 1.7
125 4.6
126 0.65
127 4.8
128 2.4
129 0.3
136 0.91
137 5
138 10.8
139 3.1
150 0.02
151 0.3
152 0.2
153 0.9
154 0.55
155 3.1
172 3.1
173 1.7
208 0.1
224 0.9
264 1
282 2.1
310 0.08
311 0.5

>  <PREDICTED SPECTRUM>  (1363) 
26 40
27 153
28 33
29 170
31 9
37 16
38 25
39 312
40 151
41 689
42 270
43 285
45 2
51 4
53 117
54 238
55 556
56 214
57 182
58 66
59 42
66 35
67 383
68 385
69 999
70 321
71 223
74 12
77 1
78 8
79 102
80 63
81 437
82 396
83 439
84 117
85 54
86 92
87 607
88 260
93 77
94 12
95 369
96 229
97 278
98 105
99 144
100 39
101 27
107 24
108 51
109 222
110 248
111 240
112 103
113 93
123 135
124 81
125 110
126 59
127 130
128 76
136 79
137 93
138 203
139 137
140 75
141 6
150 3
152 43
153 19
154 24
155 39
167 17
168 21
169 1
183 17
196 89
211 70
224 89
310 20
311 10

$$$$

     RDKit          2D

 22 22  0  0  0  0  0  0  0  0999 V2000
    7.7948    3.0010    0.0000 C   0  0  0  0  0  0  0  0  0  0  0  0
   14.2904    0.7521    0.0000 C   0  0  0  0  0  0  0  0  0  0  0  0
   -2.5989   -1.5002    0.0000 C   0  0  0  0  0  0  0  0  0  0  0  0
   10.3931    1.5015    0.0000 C   0  0  0  0  0  0  0  0  0  0  0  0
    5.1970    1.5006    0.0000 C   0  0  0  0  0  0  0  0  0  0  0  0
    9.0942    0.7512    0.0000 C   0  0  0  0  0  0  0  0  0  0  0  0
    6.4962    0.7508    0.0000 C   0  0  0  0  0  0  0  0  0  0  0  0
   11.6923    0.7517    0.0000 C   0  0  0  0  0  0  0  0  0  0  0  0
    3.8981    0.7504    0.0000 C   0  0  0  0  0  0  0  0  0  0  0  0
   -1.3000    0.7500    0.0000 C   0  0  0  0  0  0  0  0  0  0  0  0
   -0.0000   -1.5000    0.0000 C   0  0  0  0  0  0  0  0  0  0  0  0
   -0.0000    1.5000    0.0000 C   0  0  0  0  0  0  0  0  0  0  0  0
    1.3000   -0.7500    0.0000 C   0  0  0  0  0  0  0  0  0  0  0  0
    7.7951    1.5010    0.0000 C   0  0  0  0  0  0  0  0  0  0  0  0
   12.9912    1.5019    0.0000 C   0  0  0  0  0  0  0  0  0  0  0  0
    2.5989    1.5002    0.0000 C   0  0  0  0  0  0  0  0  0  0  0  0
   12.9910    3.0019    0.0000 C   0  0  0  0  0  0  0  0  0  0  0  0
   -1.3000   -0.7500    0.0000 N   0  0  0  0  0  0  0  0  0  0  0  0
    1.3000    0.7500    0.0000 N   0  0  0  0  0  0  0  0  0  0  0  0
    2.5987    3.0002    0.0000 O   0  0  0  0  0  0  0  0  0  0  0  0
   11.6918    3.7517    0.0000 O   0  0  0  0  0  0  0  0  0  0  0  0
   14.2899    3.7521    0.0000 O   0  0  0  0  0  0  0  0  0  0  0  0
  6  4  1  0
  7  5  1  0
  8  4  1  0
  9  5  1  0
 12 10  1  0
 13 11  1  0
 14  1  1  0
 14  6  1  0
  7 14  2  0
 15  2  1  0
  8 15  2  0
 16  9  1  0
 17 15  1  0
 18  3  1  0
 18 10  1  0
 18 11  1  0
 19 12  1  0
 19 13  1  0
 19 16  1  0
 20 16  2  0
 21 17  2  0
 22 17  1  0
M  END
>  <NAME>  (1364) 
2,6-DIMETHYL-9-(N-METHYLPIPERAZINYLCARBAMOYL)-2,6-NONADIENOIC ACID

>  <SYNONYMS>  (1364) 


>  <SPECTRUM TYPE>  (1364) 
MS1

>  <INSTRUMENT TYPE>  (1364) 
EI-B

>  <INSTRUMENT>  (1364) 
JEOL JMS-D-300

>  <ION MODE>  (1364) 
P

>  <INCHIKEY>  (1364) 
UPJGDYBMMHGILS-GOBHWCIESA-N

>  <FORMULA>  (1364) 
C17H28N2O3

>  <EXACT MASS>  (1364) 
308.20999275599996

>  <MW>  (1364) 
308

>  <ID>  (1364) 
JP009962

>  <CONTRIBUTOR>  (1364) 
University of Tokyo Team, {Faculty of Engineering, University of Tokyo

>  <COMMENT>  (1364) 
SMILES=OC(=O)C(C)=CCCC(C)=CCCC(=O)N(C1)CCN(C)C1
InChI=InChI=1S/C17H28N2O3/c1-14(6-4-8-15(2)17(21)22)7-5-9-16(20)19-12-10-18(3)11-13-19/h7-8H,4-6,9-13H2,1-3H3,(H,21,22)/b14-7+,15-8-
computed SMILES=O=C(O)C(=CCCC(=CCCC(=O)N1CCN(C)CC1)C)C
accession=JP009962
date=2016.01.19 (Created 2008.10.21, modified 2011.05.06)
author=KURARAY CO., LTD.
license=CC BY-NC-SA
exact mass=308.20999
ionization energy=70 eV
ion type=[M]+*
computed spectral entropy=3.3099017369841603
computed normalized entropy=0.8019854524189421
SPLASH=splash10-0ab9-9210000000-06c0f9823ea9d6a37b9b
submitter=submitter = University of Tokyo Team (Faculty of Engineering, University of Tokyo)
MoNA Rating=3.75

>  <NUM PEAKS>  (1364) 
62

>  <MASS SPECTRAL PEAKS>  (1364) 
27 4.7
28 6.4
29 4.9
30 0.47
35 2.8
36 11.9
38 3.8
39 0.61
41 10
42 18.2
43 26.5
44 2.18
45 3.8
53 9.4
54 3.9
55 1.11
56 33.4
57 22.7
58 46.1
59 0.34
67 4.5
68 5
69 3.3
70 99.99
71 12.9
72 4.7
77 3.1
79 0.63
81 9.4
82 6.6
83 23.4
84 0.56
85 4.1
91 1.6
93 5.2
95 0.45
97 5
98 20.8
99 45.1
100 0.88
101 51.4
102 3.1
105 1.6
107 0.24
109 4.5
111 3.3
112 2.2
113 0.2
121 1.3
127 15.7
135 2.2
142 0.44
152 8.3
155 14.4
166 37.5
167 0.5
209 84
210 14.3
235 4.4
262 0.13
308 12.4
309 1.7

>  <PREDICTED SPECTRUM>  (1364) 
15 38
17 12
18 27
26 20
27 88
28 100
29 139
30 47
31 40
32 44
39 142
40 57
41 337
42 402
43 388
44 430
45 171
46 41
47 23
49 1
50 54
51 99
52 31
53 137
54 136
55 267
56 583
57 613
58 725
59 102
60 51
63 16
65 51
66 30
67 200
68 231
69 142
70 999
71 262
72 9
73 22
75 44
76 5
77 164
78 22
79 118
80 24
81 301
82 170
83 565
85 57
86 17
87 61
91 15
93 100
94 19
95 139
96 64
97 322
98 543
99 603
100 46
101 695
102 37
107 39
108 71
109 191
110 1
115 7
119 4
122 25
124 11
127 340
135 106
142 107
149 117
152 126
153 31
154 34
155 169
156 18
165 33
166 524
167 4
171 10
179 7
180 55
181 79
191 46
193 28
195 22
208 35
209 970
210 386
211 28
222 25
233 25
235 6
251 66
263 16
264 7
277 212
278 33
308 356
309 136
310 9

$$$$

     RDKit          2D

 22 22  0  0  0  0  0  0  0  0999 V2000
    5.1956   -1.4994    0.0000 C   0  0  0  0  0  0  0  0  0  0  0  0
   -0.0006   -1.5002    0.0000 C   0  0  0  0  0  0  0  0  0  0  0  0
   -2.5989   -0.0006    0.0000 C   0  0  0  0  0  0  0  0  0  0  0  0
   15.5893    3.0019    0.0000 C   0  0  0  0  0  0  0  0  0  0  0  0
    2.5972    0.0002    0.0000 C   0  0  0  0  0  0  0  0  0  0  0  0
    7.7934    0.0010    0.0000 C   0  0  0  0  0  0  0  0  0  0  0  0
    3.8962    0.7504    0.0000 C   0  0  0  0  0  0  0  0  0  0  0  0
    6.4942    0.7508    0.0000 C   0  0  0  0  0  0  0  0  0  0  0  0
    1.2981    0.7500    0.0000 C   0  0  0  0  0  0  0  0  0  0  0  0
    9.0923    0.7512    0.0000 C   0  0  0  0  0  0  0  0  0  0  0  0
   14.2904    0.7517    0.0000 C   0  0  0  0  0  0  0  0  0  0  0  0
   12.9904    3.0017    0.0000 C   0  0  0  0  0  0  0  0  0  0  0  0
   12.9904    0.0017    0.0000 C   0  0  0  0  0  0  0  0  0  0  0  0
   11.6904    2.2517    0.0000 C   0  0  0  0  0  0  0  0  0  0  0  0
    5.1953    0.0006    0.0000 C   0  0  0  0  0  0  0  0  0  0  0  0
   -0.0008   -0.0002    0.0000 C   0  0  0  0  0  0  0  0  0  0  0  0
   -1.3000    0.7496    0.0000 C   0  0  0  0  0  0  0  0  0  0  0  0
   10.3915    0.0015    0.0000 C   0  0  0  0  0  0  0  0  0  0  0  0
   14.2904    2.2517    0.0000 N   0  0  0  0  0  0  0  0  0  0  0  0
   11.6904    0.7517    0.0000 N   0  0  0  0  0  0  0  0  0  0  0  0
   -1.3002    2.2496    0.0000 O   0  0  0  0  0  0  0  0  0  0  0  0
   10.3917   -1.4985    0.0000 O   0  0  0  0  0  0  0  0  0  0  0  0
  7  5  1  0
  8  6  1  0
  9  5  1  0
 10  6  1  0
 13 11  1  0
 14 12  1  0
 15  1  1  0
 15  7  1  0
  8 15  2  0
 16  2  1  0
 16  9  1  0
 17  3  1  0
 17 16  1  0
 18 10  1  0
 19  4  1  0
 19 11  1  0
 19 12  1  0
 20 13  1  0
 20 14  1  0
 20 18  1  0
 21 17  2  0
 22 18  2  0
M  END
>  <NAME>  (1365) 
3,7-DIMETHYL-10-(N-METHYLPIPERAZINYLCARBAMOYL)-(E)-7-DECEN-2-ONE

>  <SYNONYMS>  (1365) 


>  <SPECTRUM TYPE>  (1365) 
MS1

>  <INSTRUMENT TYPE>  (1365) 
EI-B

>  <INSTRUMENT>  (1365) 
JEOL JMS-D-300

>  <ION MODE>  (1365) 
P

>  <INCHIKEY>  (1365) 
QMADJUVVKFXMDJ-OVCLIPMQSA-N

>  <FORMULA>  (1365) 
C18H32N2O2

>  <EXACT MASS>  (1365) 
308.246378264

>  <MW>  (1365) 
308

>  <ID>  (1365) 
JP009961

>  <CONTRIBUTOR>  (1365) 
University of Tokyo Team, {Faculty of Engineering, University of Tokyo

>  <COMMENT>  (1365) 
SMILES=CC(=O)C(C)CCCC(C)=C([H])CCC(=O)N(C1)CCN(C)C1
InChI=InChI=1S/C18H32N2O2/c1-15(7-5-9-16(2)17(3)21)8-6-10-18(22)20-13-11-19(4)12-14-20/h8,16H,5-7,9-14H2,1-4H3/b15-8+
computed SMILES=O=C(N1CCN(C)CC1)CCC=C(C)CCCC(C(=O)C)C
accession=JP009961
date=2016.01.19 (Created 2008.10.21, modified 2011.05.06)
author=KURARAY CO., LTD.
license=CC BY-NC-SA
exact mass=308.24638
ionization energy=70 eV
ion type=[M]+*
computed spectral entropy=3.342992562134891
computed normalized entropy=0.7673206301177202
SPLASH=splash10-0a4j-9101000000-110c98ae6ec5e5593c65
submitter=submitter = University of Tokyo Team (Faculty of Engineering, University of Tokyo)
MoNA Rating=3.75

>  <NUM PEAKS>  (1365) 
78

>  <MASS SPECTRAL PEAKS>  (1365) 
29 4.9
30 2.5
41 8.7
42 1.38
43 43.7
44 39.1
53 2.8
55 1.36
56 35.9
57 59.8
58 85.9
59 0.35
67 6.6
68 2.7
69 7.8
70 99.99
71 26.4
72 6.5
79 5.1
81 0.85
82 5.7
83 49.8
84 6.8
85 1.1
86 1.9
93 4
95 8.2
96 0.21
97 12.3
98 76.9
99 76.6
100 2.4
101 46
102 3.2
107 1.6
108 0.17
109 3.3
110 3.2
111 3.5
112 0.32
113 3.2
124 5.1
125 1.7
127 1.36
128 3.5
137 1.6
138 1.6
140 0.14
141 3.5
142 15.5
143 1.3
149 0.19
152 9.5
153 3.3
155 3.3
166 3.61
167 6.5
180 10.9
181 1.6
194 0.71
195 1.9
208 2.1
209 25
210 0.46
222 4.4
223 4.3
224 4.7
237 2.5
238 3.5
251 1.3
252 6.3
265 0.51
293 1.7
307 1.9
308 83.5
309 1.85
400 2.1
407 1.9

>  <PREDICTED SPECTRUM>  (1365) 
15 8
26 21
27 76
28 79
29 100
30 75
39 122
40 58
41 316
42 344
43 661
44 362
45 138
46 0
50 14
51 38
52 23
53 106
54 132
55 152
56 649
57 649
58 765
59 89
60 10
65 6
66 7
67 175
68 170
69 112
70 999
71 633
72 54
73 30
75 43
77 93
78 5
79 85
80 9
81 278
82 151
83 664
84 55
85 81
86 50
87 68
93 98
94 56
95 241
97 227
98 821
99 888
100 113
101 545
102 74
107 77
108 77
109 123
110 64
111 95
112 31
115 6
117 4
121 13
122 57
124 13
125 19
126 2
127 229
128 15
135 34
138 19
139 11
140 5
141 19
142 115
143 28
152 105
153 20
154 24
155 210
165 10
166 204
167 58
168 23
171 43
180 101
181 159
182 35
193 22
195 121
208 121
209 667
210 189
211 62
222 121
223 50
236 19
237 76
238 85
239 61
240 30
251 166
252 96
263 5
264 36
265 22
266 54
277 157
278 68
290 23
306 19
307 116
308 593
309 233
310 47

$$$$

     RDKit          2D

 21 22  0  0  0  0  0  0  0  0999 V2000
   -3.7389    1.4102    0.0000 C   0  0  0  0  0  0  0  0  0  0  0  0
   -1.1400    2.9100    0.0000 C   0  0  0  0  0  0  0  0  0  0  0  0
   -1.1400   -3.0900    0.0000 C   0  0  0  0  0  0  0  0  0  0  0  0
   -6.3370   -1.5906    0.0000 C   0  0  0  0  0  0  0  0  0  0  0  0
    4.2372    0.3997    0.0000 C   0  0  0  0  0  0  0  0  0  0  0  0
    1.4600   -1.5900    0.0000 C   0  0  0  0  0  0  0  0  0  0  0  0
    2.7600   -0.8400    0.0000 C   0  0  0  0  0  0  0  0  0  0  0  0
    3.2727    2.0696    0.0000 C   0  0  0  0  0  0  0  0  0  0  0  0
    4.7499    2.3304    0.0000 C   0  0  0  0  0  0  0  0  0  0  0  0
   -2.4400    0.6600    0.0000 C   0  0  0  0  0  0  0  0  0  0  0  0
   -1.1400    1.4100    0.0000 C   0  0  0  0  0  0  0  0  0  0  0  0
   -1.1400   -1.5900    0.0000 C   0  0  0  0  0  0  0  0  0  0  0  0
   -5.0381   -0.8404    0.0000 C   0  0  0  0  0  0  0  0  0  0  0  0
    0.1600   -0.8400    0.0000 C   0  0  0  0  0  0  0  0  0  0  0  0
   -2.4400   -0.8400    0.0000 C   0  0  0  0  0  0  0  0  0  0  0  0
    0.1600    0.6600    0.0000 C   0  0  0  0  0  0  0  0  0  0  0  0
    2.7600    0.6600    0.0000 C   0  0  0  0  0  0  0  0  0  0  0  0
   -5.0383    0.6596    0.0000 O   0  0  0  0  0  0  0  0  0  0  0  0
   -3.7389   -1.5902    0.0000 O   0  0  0  0  0  0  0  0  0  0  0  0
    1.4600    1.4100    0.0000 O   0  0  0  0  0  0  0  0  0  0  0  0
    5.2626    3.7401    0.0000 S   0  0  0  0  0  0  0  0  0  0  0  0
  7  6  1  0
  9  8  1  0
 10  1  1  0
 11  2  1  0
 11 10  1  0
 12  3  1  0
 13  4  1  0
 14  6  1  0
 14 12  2  0
 15 10  2  0
 15 12  1  0
 16 11  2  0
 16 14  1  0
 17  5  1  0
 17  7  1  0
 17  8  1  0
 18 13  2  0
 19 13  1  0
 19 15  1  0
 20 16  1  0
 20 17  1  0
 21  9  1  0
M  END
>  <NAME>  (1366) 
6-ACETOXY-3,4-DIHYDRO-2-(2-MERCAPTOETHYL)-2,5,7,8-TETRAMETHYL-2H-1-BENZOPYRAN

>  <SYNONYMS>  (1366) 


>  <SPECTRUM TYPE>  (1366) 
MS1

>  <INSTRUMENT TYPE>  (1366) 
EI-B

>  <INSTRUMENT>  (1366) 
JEOL JMS-D-300

>  <ION MODE>  (1366) 
P

>  <INCHIKEY>  (1366) 
BZMFPCPZSSVHGT-UHFFFAOYSA-N

>  <FORMULA>  (1366) 
C17H24O3S

>  <EXACT MASS>  (1366) 
308.144615628

>  <MW>  (1366) 
308

>  <ID>  (1366) 
JP009960

>  <CONTRIBUTOR>  (1366) 
University of Tokyo Team, {Faculty of Engineering, University of Tokyo

>  <COMMENT>  (1366) 
SMILES=SCCC(C)(C2)Oc(c(C)1)c(C2)c(C)c(OC(C)=O)c(C)1
InChI=InChI=1S/C17H24O3S/c1-10-11(2)16-14(12(3)15(10)19-13(4)18)6-7-17(5,20-16)8-9-21/h21H,6-9H2,1-5H3
computed SMILES=O=C(OC=1C(=C(C=2OC(C)(CCS)CCC2C1C)C)C)C
accession=JP009960
date=2016.01.19 (Created 2008.10.21, modified 2011.05.06)
author=KURARAY CO., LTD.
license=CC BY-NC-SA
exact mass=308.14462
ionization energy=70 eV
ion type=[M]+*
computed spectral entropy=2.530456336612132
computed normalized entropy=0.7237096709011052
SPLASH=splash10-014i-2692000000-0886be9ccf8e324c8661
submitter=submitter = University of Tokyo Team (Faculty of Engineering, University of Tokyo)
MoNA Rating=3.75

>  <NUM PEAKS>  (1366) 
33

>  <MASS SPECTRAL PEAKS>  (1366) 
41 4.9
43 17.5
53 4.5
55 0.49
67 2.3
77 2.3
79 2.7
91 0.74
93 2.5
101 17.2
107 3.3
121 0.44
135 3.8
136 4.4
164 56.5
165 8.01
166 12.1
175 1.4
177 2.8
189 0.28
203 6.3
205 5.8
207 1.4
231 0.28
232 15.2
233 1.9
265 1.3
266 99.99
267 17.5
268 5.9
308 32.6
309 0.61
310 1.4

>  <PREDICTED SPECTRUM>  (1366) 
27 16
29 30
39 53
41 138
43 205
51 2
53 113
55 73
65 24
67 39
69 29
77 83
79 68
91 61
93 3
105 41
107 70
119 3
121 83
122 14
127 3
131 6
134 53
135 135
136 73
162 25
163 26
164 800
165 115
166 320
179 3
191 48
205 65
233 36
237 26
265 52
266 999
267 348
268 204
308 396
309 84
310 43

$$$$

     RDKit          2D

 22 23  0  0  0  0  0  0  0  0999 V2000
    5.5858   -4.6822    0.0000 C   0  0  0  0  0  0  0  0  0  0  0  0
   -1.0100   -3.0000    0.0000 C   0  0  0  0  0  0  0  0  0  0  0  0
   -3.6089   -1.5002    0.0000 C   0  0  0  0  0  0  0  0  0  0  0  0
   -1.0100    3.0000    0.0000 C   0  0  0  0  0  0  0  0  0  0  0  0
    4.1000   -0.0000    0.0000 C   0  0  0  0  0  0  0  0  0  0  0  0
    4.1182    4.3721    0.0000 C   0  0  0  0  0  0  0  0  0  0  0  0
    4.1182   -4.3721    0.0000 C   0  0  0  0  0  0  0  0  0  0  0  0
    3.6529   -2.9461    0.0000 C   0  0  0  0  0  0  0  0  0  0  0  0
    2.1853   -2.6360    0.0000 C   0  0  0  0  0  0  0  0  0  0  0  0
   -1.0100   -1.5000    0.0000 C   0  0  0  0  0  0  0  0  0  0  0  0
   -2.3100   -0.7500    0.0000 C   0  0  0  0  0  0  0  0  0  0  0  0
   -1.0100    1.5000    0.0000 C   0  0  0  0  0  0  0  0  0  0  0  0
    2.6000   -0.0000    0.0000 C   0  0  0  0  0  0  0  0  0  0  0  0
    0.2900    0.7500    0.0000 C   0  0  0  0  0  0  0  0  0  0  0  0
    1.7200    1.2100    0.0000 C   0  0  0  0  0  0  0  0  0  0  0  0
    0.2900   -0.7500    0.0000 C   0  0  0  0  0  0  0  0  0  0  0  0
   -2.3100    0.7500    0.0000 C   0  0  0  0  0  0  0  0  0  0  0  0
    2.1853    2.6360    0.0000 C   0  0  0  0  0  0  0  0  0  0  0  0
    1.7200   -1.2100    0.0000 N   0  0  0  0  0  0  0  0  0  0  0  0
   -3.6089    1.5002    0.0000 O   0  0  0  0  0  0  0  0  0  0  0  0
    1.1830    3.7520    0.0000 O   0  0  0  0  0  0  0  0  0  0  0  0
    3.6529    2.9461    0.0000 O   0  0  0  0  0  0  0  0  0  0  0  0
  7  1  1  0
  8  7  1  0
  9  8  1  0
 10  2  1  0
 11  3  1  0
 11 10  2  0
 12  4  1  0
 13  5  1  0
 14 12  1  0
 15 13  2  0
 15 14  1  0
 16 10  1  0
 16 14  2  0
 17 11  1  0
 17 12  2  0
 18 15  1  0
 19  9  1  0
 19 13  1  0
 19 16  1  0
 20 17  1  0
 21 18  2  0
 22  6  1  0
 22 18  1  0
M  END
>  <NAME>  (1367) 
1-BUTYL-5-HYDROXY-3-METHOXYCARBONYL-2,4,6,7-TETRAMETHYLINDOLE

>  <SYNONYMS>  (1367) 


>  <SPECTRUM TYPE>  (1367) 
MS1

>  <INSTRUMENT TYPE>  (1367) 
EI-B

>  <INSTRUMENT>  (1367) 
JEOL JMS-D-300

>  <ION MODE>  (1367) 
P

>  <INCHIKEY>  (1367) 
HGABABVBQJLOLJ-UHFFFAOYSA-N

>  <FORMULA>  (1367) 
C18H25NO3

>  <EXACT MASS>  (1367) 
303.18344365999997

>  <MW>  (1367) 
303

>  <ID>  (1367) 
JP009959

>  <CONTRIBUTOR>  (1367) 
University of Tokyo Team, {Faculty of Engineering, University of Tokyo

>  <COMMENT>  (1367) 
SMILES=CCCCn(c(C)1)c(c(C)2)c(c(C)c(O)c(C)2)c(C(=O)OC)1
InChI=InChI=1S/C18H25NO3/c1-7-8-9-19-13(5)15(18(21)22-6)14-12(4)17(20)11(3)10(2)16(14)19/h20H,7-9H2,1-6H3
computed SMILES=O=C(OC)C=1C=2C(=C(C(=C(O)C2C)C)C)N(C1C)CCCC
accession=JP009959
date=2016.01.19 (Created 2008.10.21, modified 2011.05.06)
author=KURARAY CO., LTD.
license=CC BY-NC-SA
exact mass=303.18344
ionization energy=70 eV
ion type=[M]+*
computed spectral entropy=2.441158512158506
computed normalized entropy=0.7492591099344553
SPLASH=splash10-0udi-1198000000-ae411bf8bc6581641f43
submitter=submitter = University of Tokyo Team (Faculty of Engineering, University of Tokyo)
MoNA Rating=3.75

>  <NUM PEAKS>  (1367) 
26

>  <MASS SPECTRAL PEAKS>  (1367) 
28 0.9
29 9.7
41 7.7
43 0.49
140 6.1
151 6
158 4.4
200 0.56
202 8.2
214 8.5
215 9.2
216 0.71
222 3.4
228 32.6
229 6.3
243 0.77
246 4.5
260 20.3
261 4.4
271 0.88
272 19.7
288 4.4
289 4.9
302 0.86
303 99.99
304 22.9

>  <PREDICTED SPECTRUM>  (1367) 
41 159
42 30
43 46
55 28
57 14
59 40
65 29
77 89
83 7
91 75
92 19
95 6
106 4
107 50
111 1
115 21
119 5
130 7
134 5
141 72
142 46
143 68
144 88
145 15
146 59
154 2
157 34
158 75
160 12
162 23
169 19
171 25
172 106
173 8
174 6
182 34
184 32
186 142
187 22
188 53
197 58
198 22
199 33
200 191
201 96
202 95
213 9
214 408
215 142
216 62
226 10
228 481
229 142
230 28
244 2
246 394
247 118
260 732
261 281
271 49
272 353
273 5
274 13
288 91
289 45
303 999
304 451
305 82

$$$$

     RDKit          2D

 22 22  0  0  0  0  0  0  0  0999 V2000
  -12.3407   -6.3746    0.0000 C   0  0  0  0  0  0  0  0  0  0  0  0
  -11.0416   -8.6246    0.0000 C   0  0  0  0  0  0  0  0  0  0  0  0
   -5.8455   -8.6246    0.0000 C   0  0  0  0  0  0  0  0  0  0  0  0
   -0.6493   -8.6246    0.0000 C   0  0  0  0  0  0  0  0  0  0  0  0
    5.8459   -4.8746    0.0000 C   0  0  0  0  0  0  0  0  0  0  0  0
    4.5464   -4.1238    0.0000 C   0  0  0  0  0  0  0  0  0  0  0  0
   -8.4435   -7.1246    0.0000 C   0  0  0  0  0  0  0  0  0  0  0  0
   -3.2474   -7.1246    0.0000 C   0  0  0  0  0  0  0  0  0  0  0  0
   -9.7426   -6.3746    0.0000 C   0  0  0  0  0  0  0  0  0  0  0  0
   -7.1445   -6.3746    0.0000 C   0  0  0  0  0  0  0  0  0  0  0  0
   -4.5464   -6.3746    0.0000 C   0  0  0  0  0  0  0  0  0  0  0  0
   -1.9483   -6.3746    0.0000 C   0  0  0  0  0  0  0  0  0  0  0  0
    5.8464   -6.3755    0.0000 C   0  0  0  0  0  0  0  0  0  0  0  0
    0.6497   -6.3746    0.0000 C   0  0  0  0  0  0  0  0  0  0  0  0
    3.2473   -4.8738    0.0000 C   0  0  0  0  0  0  0  0  0  0  0  0
    1.9488   -7.1246    0.0000 C   0  0  0  0  0  0  0  0  0  0  0  0
  -11.0416   -7.1246    0.0000 C   0  0  0  0  0  0  0  0  0  0  0  0
   -5.8455   -7.1246    0.0000 C   0  0  0  0  0  0  0  0  0  0  0  0
   -0.6493   -7.1246    0.0000 C   0  0  0  0  0  0  0  0  0  0  0  0
    4.5473   -7.1255    0.0000 C   0  0  0  0  0  0  0  0  0  0  0  0
    3.2478   -6.3746    0.0000 N   0  0  0  0  0  0  0  0  0  0  0  0
    4.5471   -8.6255    0.0000 O   0  0  0  0  0  0  0  0  0  0  0  0
  6  5  1  0
  9  7  1  0
 10  7  1  0
 11  8  1  0
 12  8  1  0
 13  5  1  0
 15  6  1  0
 16 14  1  0
 17  1  1  0
 17  2  1  0
 17  9  2  0
 18  3  1  0
 18 10  1  0
 11 18  2  0
 19  4  1  0
 19 12  1  0
 14 19  2  0
 20 13  1  0
 21 15  1  0
 21 16  1  0
 21 20  1  0
 22 20  2  0
M  END
>  <NAME>  (1368) 
N-(3,7,11-TRIMETHYL-2,6,10-DODECATRIENYL)-6-HEXANELACTAM

>  <SYNONYMS>  (1368) 


>  <SPECTRUM TYPE>  (1368) 
MS1

>  <INSTRUMENT TYPE>  (1368) 
EI-B

>  <INSTRUMENT>  (1368) 
JEOL JMS-D-300

>  <ION MODE>  (1368) 
P

>  <INCHIKEY>  (1368) 
NIYHCJHBUMZSLH-MMOYSQFZSA-N

>  <FORMULA>  (1368) 
C20H33NO

>  <EXACT MASS>  (1368) 
303.256214676

>  <MW>  (1368) 
303

>  <ID>  (1368) 
JP009958

>  <CONTRIBUTOR>  (1368) 
University of Tokyo Team, {Faculty of Engineering, University of Tokyo

>  <COMMENT>  (1368) 
SMILES=CC(C)=CCCC(C)=CCCC(C)=CCN(C1)C(=O)CCC1
InChI=InChI=1S/C20H33NO/c1-17(2)9-7-10-18(3)11-8-12-19(4)14-16-21-15-6-5-13-20(21)22/h9,11,14H,5-8,10,12-13,15-16H2,1-4H3/b18-11+,19-14+
computed SMILES=O=C1N(CC=C(C)CCC=C(C)CCC=C(C)C)CCCC1
accession=JP009958
date=2016.01.19 (Created 2008.10.21, modified 2011.05.06)
author=KURARAY CO., LTD.
license=CC BY-NC-SA
exact mass=303.25621
ionization energy=70 eV
ion type=[M]+*
computed spectral entropy=3.252701158943934
computed normalized entropy=0.7792044553224345
SPLASH=splash10-02u0-7910000000-65c46b8e80ac4ff5e55d
submitter=submitter = University of Tokyo Team (Faculty of Engineering, University of Tokyo)
MoNA Rating=3.75

>  <NUM PEAKS>  (1368) 
65

>  <MASS SPECTRAL PEAKS>  (1368) 
27 3.4
29 7.7
30 3.8
39 0.38
41 41.8
42 5.9
43 8.9
44 0.17
53 6.1
54 29.1
56 7
57 0.27
67 15.2
68 10.2
69 45.1
70 0.86
77 2.8
79 6.3
80 5.8
81 1.3
82 15
83 5
84 23.5
85 0.3
91 4.1
92 1.9
93 24.4
94 0.41
95 5.6
96 2.7
98 8
99 0.19
100 40.1
105 4.1
107 8.6
108 0.2
109 3.9
110 2
112 95.8
113 1.27
119 5.2
121 6.9
122 4.2
123 0.31
124 17.1
133 2.8
134 1.6
135 2.66
136 6.1
138 6.1
148 3.4
150 0.39
152 7
153 2.5
161 4.5
165 0.25
166 99.99
167 14.9
168 1.6
178 0.3
204 5
207 0.3
234 62.8
235 1.02
303 3.4

>  <PREDICTED SPECTRUM>  (1368) 
26 11
27 187
28 108
29 209
30 296
38 15
39 200
40 121
41 688
42 207
43 382
44 217
51 8
52 39
53 313
54 152
55 347
56 249
57 98
58 78
59 49
65 125
66 127
67 359
68 298
69 891
70 205
71 136
72 58
77 119
78 28
79 272
80 214
81 432
82 163
83 161
84 368
85 179
91 208
92 123
93 369
94 123
95 250
96 199
97 211
98 557
99 363
100 300
101 154
105 200
107 217
108 75
109 306
110 240
111 102
112 696
114 144
117 1
119 96
121 300
122 90
123 136
124 241
125 57
126 513
133 56
134 167
135 476
136 141
137 78
138 169
148 101
149 102
150 197
151 46
152 197
153 111
154 114
164 4
166 999
167 486
168 339
169 123
176 7
177 40
178 74
180 89
192 8
194 65
195 10
204 85
234 973
235 274
260 16
302 5
303 282
304 92
305 9

$$$$

     RDKit          2D

 22 22  0  0  0  0  0  0  0  0999 V2000
   -5.3712    1.2718    0.0000 C   0  0  0  0  0  0  0  0  0  0  0  0
   -2.2197    8.0276    0.0000 C   0  0  0  0  0  0  0  0  0  0  0  0
   -0.2294    9.6976    0.0000 C   0  0  0  0  0  0  0  0  0  0  0  0
    2.1501    4.8408    0.0000 C   0  0  0  0  0  0  0  0  0  0  0  0
    2.0882    3.1708    0.0000 C   0  0  0  0  0  0  0  0  0  0  0  0
   -4.0721    2.0218    0.0000 C   0  0  0  0  0  0  0  0  0  0  0  0
   -2.7731    1.2718    0.0000 C   0  0  0  0  0  0  0  0  0  0  0  0
    5.0211   -0.2282    0.0000 C   0  0  0  0  0  0  0  0  0  0  0  0
    5.0216    1.2726    0.0000 C   0  0  0  0  0  0  0  0  0  0  0  0
    3.7216   -0.9791    0.0000 C   0  0  0  0  0  0  0  0  0  0  0  0
   -1.4740    2.0218    0.0000 C   0  0  0  0  0  0  0  0  0  0  0  0
    3.7226    2.0226    0.0000 C   0  0  0  0  0  0  0  0  0  0  0  0
    2.4226   -0.2291    0.0000 C   0  0  0  0  0  0  0  0  0  0  0  0
   -0.1750    1.2718    0.0000 C   0  0  0  0  0  0  0  0  0  0  0  0
    0.1598    3.1708    0.0000 C   0  0  0  0  0  0  0  0  0  0  0  0
   -0.7425    8.2880    0.0000 C   0  0  0  0  0  0  0  0  0  0  0  0
    0.6729    4.5804    0.0000 C   0  0  0  0  0  0  0  0  0  0  0  0
    2.4231    1.2718    0.0000 C   0  0  0  0  0  0  0  0  0  0  0  0
    0.2217    7.1390    0.0000 C   0  0  0  0  0  0  0  0  0  0  0  0
    1.1240    2.0218    0.0000 C   0  0  0  0  0  0  0  0  0  0  0  0
    1.6989    7.3994    0.0000 O   0  0  0  0  0  0  0  0  0  0  0  0
   -0.2913    5.7294    0.0000 O   0  0  0  0  0  0  0  0  0  0  0  0
  6  1  1  0
  7  6  1  0
  9  8  2  0
 10  8  1  0
 11  7  1  0
 12  9  1  0
 13 10  2  0
 14 11  1  0
 16  2  2  0
 16  3  1  0
 17  4  1  0
 17 15  1  0
 18 12  2  0
 18 13  1  0
 19 16  1  0
 20  5  1  0
 20 14  1  0
 20 15  1  0
 20 18  1  0
 21 19  2  0
 22 17  1  0
 22 19  1  0
M  END
>  <NAME>  (1369) 
1,3-DIMETHYL-3-PHENYLOCTYL METHACRYLATE

>  <SYNONYMS>  (1369) 


>  <SPECTRUM TYPE>  (1369) 
MS1

>  <INSTRUMENT TYPE>  (1369) 
EI-B

>  <INSTRUMENT>  (1369) 
JEOL JMS-D-300

>  <ION MODE>  (1369) 
P

>  <INCHIKEY>  (1369) 
GPKKCNPTXCVNEX-UHFFFAOYSA-N

>  <FORMULA>  (1369) 
C20H30O2

>  <EXACT MASS>  (1369) 
302.2245802

>  <MW>  (1369) 
302

>  <ID>  (1369) 
JP009957

>  <CONTRIBUTOR>  (1369) 
University of Tokyo Team, {Faculty of Engineering, University of Tokyo

>  <COMMENT>  (1369) 
SMILES=CCCCCC(C)(CC(C)OC(=O)C(C)=C)c(c1)cccc1
InChI=InChI=1S/C20H30O2/c1-6-7-11-14-20(5,18-12-9-8-10-13-18)15-17(4)22-19(21)16(2)3/h8-10,12-13,17H,2,6-7,11,14-15H2,1,3-5H3
computed SMILES=O=C(OC(C)CC(C=1C=CC=CC1)(C)CCCCC)C(=C)C
accession=JP009957
date=2016.01.19 (Created 2008.10.21, modified 2011.05.06)
author=KURARAY CO., LTD.
license=CC BY-NC-SA
exact mass=302.22458
ionization energy=70 eV
ion type=[M]+*
computed spectral entropy=2.760866647290071
computed normalized entropy=0.6921227598460853
SPLASH=splash10-0002-2900000000-fc476d4a93836572269b
submitter=submitter = University of Tokyo Team (Faculty of Engineering, University of Tokyo)
MoNA Rating=3.75

>  <NUM PEAKS>  (1369) 
54

>  <MASS SPECTRAL PEAKS>  (1369) 
27 0.7
28 6.3
29 2.8
39 0.19
41 13.3
42 1
43 3.9
55 0.26
57 0.7
67 0.7
69 16.8
70 0.06
71 0.7
73 0.5
77 1.9
78 0.18
79 1.4
91 32.4
92 2.6
97 0.05
103 3.9
104 0.7
105 48.1
106 0.43
115 2.5
116 1
117 9.7
118 1.23
119 12
120 0.9
127 0.6
128 0.12
129 2.5
130 1.4
131 3.8
132 0.05
133 3.9
143 1.2
144 0.6
145 99.99
146 21.2
147 2.5
159 12
160 0.28
174 1.7
175 31.3
176 4.5
188 0.14
189 0.8
221 1.2
231 11.3
232 0.19
245 3.8
246 0.7

>  <PREDICTED SPECTRUM>  (1369) 
27 80
28 6
29 129
39 139
40 9
41 406
42 69
43 355
44 46
50 1
51 74
52 7
53 67
55 206
56 7
57 187
65 97
67 28
68 24
69 618
70 172
71 106
77 233
78 124
79 61
81 17
83 35
85 87
87 10
89 7
91 419
92 87
99 24
102 11
103 138
105 689
106 158
111 10
113 4
115 132
116 27
117 223
118 76
119 170
120 84
127 55
128 110
129 178
131 353
132 60
133 77
143 29
144 127
145 999
146 557
147 186
157 56
158 55
159 396
160 133
161 0
174 169
175 549
176 108
177 69
217 13

$$$$

     RDKit          2D

 22 25  0  0  1  0  0  0  0  0999 V2000
   -1.6800    1.1900    0.0000 C   0  0  0  0  0  0  0  0  0  0  0  0
    2.3787    3.4316    0.0000 C   0  0  0  0  0  0  0  0  0  0  0  0
    3.6500   -0.0200    0.0000 C   0  0  0  0  0  0  0  0  0  0  0  0
    4.5300    1.1900    0.0000 C   0  0  0  0  0  0  0  0  0  0  0  0
   -4.2800   -0.3100    0.0000 C   0  0  0  0  0  0  0  0  0  0  0  0
   -0.3800    1.9400    0.0000 C   0  0  0  0  0  0  0  0  0  0  0  0
   -2.9800    0.4400    0.0000 C   0  0  0  0  0  0  0  0  0  0  0  0
    0.9200    2.6900    0.0000 C   0  0  0  0  0  0  0  0  0  0  0  0
   -2.9800   -2.5600    0.0000 C   0  0  0  0  0  0  0  0  0  0  0  0
   -0.3800   -2.5600    0.0000 C   0  0  0  0  0  0  0  0  0  0  0  0
   -1.6800   -1.8100    0.0000 C   0  0  0  0  0  0  0  0  0  0  0  0
   -4.2800   -1.8100    0.0000 C   0  0  0  0  0  0  0  0  0  0  0  0
    2.2200    0.4400    0.0000 C   0  0  0  0  0  0  0  0  0  0  0  0
   -0.3800    0.4400    0.0000 C   0  0  0  0  0  0  0  0  0  0  0  0
    0.9200   -1.8100    0.0000 C   0  0  0  0  0  0  0  0  0  0  0  0
    3.6500    2.4000    0.0000 C   0  0  0  0  0  0  0  0  0  0  0  0
    0.9200   -0.3100    0.0000 C   0  0  0  0  0  0  0  0  0  0  0  0
   -1.6800   -0.3100    0.0000 C   0  0  0  0  0  0  0  0  0  0  0  0
    2.2200    1.9400    0.0000 C   0  0  0  0  0  0  0  0  0  0  0  0
   -5.5789   -2.5602    0.0000 O   0  0  0  0  0  0  0  0  0  0  0  0
    2.2189   -2.5602    0.0000 O   0  0  0  0  0  0  0  0  0  0  0  0
    4.1153    3.8260    0.0000 O   0  0  0  0  0  0  0  0  0  0  0  0
  4  3  1  0
  7  5  1  0
  8  6  1  0
 11  9  2  0
 11 10  1  0
 12  5  1  0
 12  9  1  0
 13  3  1  1
 14  6  1  1
 15 10  1  0
 16  4  1  0
 17 13  1  0
 17 14  1  0
 17 15  1  6
 18  1  1  1
 18  7  1  0
 18 11  1  0
 18 14  1  0
 19  2  1  1
 19  8  1  0
 19 13  1  0
 19 16  1  0
 20 12  2  0
 15 21  1  6
 22 16  2  0
M  END
>  <NAME>  (1370) 
7-HYDROXY-4-ANDROSTENE-3,17-DIONE

>  <SYNONYMS>  (1370) 


>  <SPECTRUM TYPE>  (1370) 
MS1

>  <INSTRUMENT TYPE>  (1370) 
EI-B

>  <INSTRUMENT>  (1370) 
JEOL JMS-D-300

>  <ION MODE>  (1370) 
P

>  <INCHIKEY>  (1370) 
LFWLQMQUJQUZBD-UOEDLQKQSA-N

>  <FORMULA>  (1370) 
C19H26O3

>  <EXACT MASS>  (1370) 
302.18819469199997

>  <MW>  (1370) 
302

>  <ID>  (1370) 
JP009956

>  <CONTRIBUTOR>  (1370) 
University of Tokyo Team, {Faculty of Engineering, University of Tokyo

>  <COMMENT>  (1370) 
SMILES=O=C(C4)C=C(C3)C(C)(C4)C([H])(C2)C([H])(C(O)3)C([H])(C1)C(C)(C2)C(=O)C1
InChI=InChI=1S/C19H26O3/c1-18-7-5-12(20)9-11(18)10-15(21)17-13-3-4-16(22)19(13,2)8-6-14(17)18/h9,13-15,17,21H,3-8,10H2,1-2H3/t13-,14-,15?,17-,18-,19-/m0/s1
computed SMILES=O=C1C=C2CC(O)C3C4CCC(=O)C4(C)CCC3C2(C)CC1
computed InChI=InChI=1S/C19H26O3/c1-18-7-5-12(20)9-11(18)10-15(21)17-13-3-4-16(22)19(13,2)8-6-14(17)18/h9,13-15,17,21H,3-8,10H2,1-2H3/t13-,14-,15+,17-,18-,19-/m0/s1
ion type=[M]+*
computed spectral entropy=3.993337679640511
accession=JP009956
date=2016.01.19 (Created 2008.10.21, modified 2011.05.06)
author=KURARAY CO., LTD.
license=CC BY-NC-SA
exact mass=302.18819
ionization energy=70 eV
computed normalized entropy=0.8165751718206227
SPLASH=splash10-00di-3920000000-e798b14e62c8255c3f39
submitter=submitter = University of Tokyo Team (Faculty of Engineering, University of Tokyo)
MoNA Rating=3.75

>  <NUM PEAKS>  (1370) 
133

>  <MASS SPECTRAL PEAKS>  (1370) 
27 0.6
29 1.7
39 2.3
41 0.92
43 3.6
44 37.8
53 4.7
55 1.27
57 1.6
65 3.1
66 0.3
67 0.97
68 1.4
69 2.7
77 8
78 0.22
79 12.8
80 2
81 9.5
82 0.25
83 2.3
85 0.9
91 12.3
92 0.3
93 9.4
94 3.4
95 11.1
96 0.27
97 4.8
105 9.8
106 4.7
107 0.97
108 3.9
109 12.5
110 3.6
111 0.14
115 2.2
116 1.3
117 3.9
118 0.23
119 8.6
120 2
121 5
122 1.22
123 29.4
124 99.99
125 12
128 0.23
129 3
130 1.3
131 4.7
132 0.44
133 8.9
134 5
135 3.9
136 1
137 3.1
141 1.6
142 2.5
143 0.45
144 2.2
145 4.7
146 2.5
147 0.3
148 2.8
149 5.8
150 3
151 0.33
152 16.4
153 2.2
155 1.4
157 0.31
158 1.4
159 4.4
160 3
161 0.63
162 3.1
163 1.6
169 1.6
170 0.09
171 3.3
172 1.6
173 3
174 0.44
175 3
179 2.7
183 1.6
184 0.14
185 4.7
186 2.8
187 1.9
188 0.39
192 1.6
195 1.3
197 1.1
198 0.2
199 3.8
200 1.6
201 1.4
209 0.22
211 1.3
212 1.4
213 3.1
214 0.23
223 1.1
224 1.3
225 1.4
226 0.03
227 5
228 3
229 4.7
231 0.06
233 1.3
240 4.8
241 3
242 0.91
243 1.6
245 1.3
246 12.5
247 0.2
251 2.3
255 1.4
256 3
258 0.13
266 2.5
267 0.3
269 4.7
274 0.56
284 15.6
285 3.4
287 3.1
302 5.44
303 11.3

>  <PREDICTED SPECTRUM>  (1370) 
26 19
27 95
28 52
29 77
31 19
38 3
39 173
40 105
41 543
42 126
43 450
44 141
45 139
46 43
47 68
48 15
49 81
50 80
51 212
52 144
53 415
54 145
55 560
56 105
57 231
58 167
59 78
60 107
61 25
62 8
63 114
64 75
65 338
66 165
67 490
68 176
69 309
70 130
71 198
72 44
73 71
74 41
75 3
76 10
77 477
78 288
79 650
80 248
81 377
82 167
83 195
84 203
85 129
86 81
87 42
88 0
89 70
90 34
91 648
92 239
93 498
94 239
95 398
96 301
97 440
98 133
99 82
101 37
102 53
103 246
104 204
105 588
106 259
107 451
108 321
109 471
110 520
111 264
112 128
113 66
114 93
115 351
116 201
117 432
118 258
119 398
120 247
121 435
122 579
123 596
124 999
125 245
126 186
127 175
128 346
129 326
130 189
131 474
132 294
133 384
134 323
135 297
136 292
137 236
138 221
139 140
140 16
141 229
142 221
143 332
144 211
145 318
146 210
147 249
148 111
149 267
150 266
151 242
152 352
153 161
154 202
155 160
156 180
157 256
158 128
159 275
160 278
161 335
162 211
163 200
164 63
165 155
166 169
167 190
168 170
169 220
170 299
171 215
172 226
173 122
174 240
175 99
176 121
177 146
178 254
179 211
180 122
181 73
182 47
183 161
184 228
185 202
186 154
187 126
188 176
189 90
190 49
191 137
192 82
193 126
194 60
195 44
196 97
197 97
198 63
199 120
200 62
201 36
202 49
203 70
204 46
205 84
207 63
208 18
209 187
210 126
211 178
212 162
213 158
214 110
215 63
216 39
217 154
218 47
219 31
220 23
222 69
223 139
224 104
225 138
226 37
227 218
228 175
229 60
230 83
231 37
232 66
235 70
236 42
237 53
238 11
239 42
240 33
241 185
242 144
243 75
244 35
245 170
246 220
247 102
251 194
252 127
253 8
255 50
256 63
258 68
259 65
260 138
266 84
267 83
268 29
269 192
270 55
273 24
274 272
275 115
283 41
284 180
285 162
286 56
287 184
288 58
301 26
302 407
303 147

$$$$

     RDKit          2D

 22 25  0  0  1  0  0  0  0  0999 V2000
   -1.6800    1.1900    0.0000 C   0  0  0  0  0  0  0  0  0  0  0  0
    2.3787    3.4316    0.0000 C   0  0  0  0  0  0  0  0  0  0  0  0
    3.6500   -0.0200    0.0000 C   0  0  0  0  0  0  0  0  0  0  0  0
    4.5300    1.1900    0.0000 C   0  0  0  0  0  0  0  0  0  0  0  0
   -4.2800   -0.3100    0.0000 C   0  0  0  0  0  0  0  0  0  0  0  0
   -0.3800    1.9400    0.0000 C   0  0  0  0  0  0  0  0  0  0  0  0
   -2.9800    0.4400    0.0000 C   0  0  0  0  0  0  0  0  0  0  0  0
    0.9200    2.6900    0.0000 C   0  0  0  0  0  0  0  0  0  0  0  0
   -2.9800   -2.5600    0.0000 C   0  0  0  0  0  0  0  0  0  0  0  0
    0.9200   -1.8100    0.0000 C   0  0  0  0  0  0  0  0  0  0  0  0
   -4.2800   -1.8100    0.0000 C   0  0  0  0  0  0  0  0  0  0  0  0
    0.9200   -0.3100    0.0000 C   0  0  0  0  0  0  0  0  0  0  0  0
    2.2200    0.4400    0.0000 C   0  0  0  0  0  0  0  0  0  0  0  0
   -0.3800    0.4400    0.0000 C   0  0  0  0  0  0  0  0  0  0  0  0
   -1.6800   -1.8100    0.0000 C   0  0  0  0  0  0  0  0  0  0  0  0
   -0.3800   -2.5600    0.0000 C   0  0  0  0  0  0  0  0  0  0  0  0
    3.6500    2.4000    0.0000 C   0  0  0  0  0  0  0  0  0  0  0  0
   -1.6800   -0.3100    0.0000 C   0  0  0  0  0  0  0  0  0  0  0  0
    2.2200    1.9400    0.0000 C   0  0  0  0  0  0  0  0  0  0  0  0
   -5.5789   -2.5602    0.0000 O   0  0  0  0  0  0  0  0  0  0  0  0
   -0.3800   -4.0600    0.0000 O   0  0  0  0  0  0  0  0  0  0  0  0
    4.1153    3.8260    0.0000 O   0  0  0  0  0  0  0  0  0  0  0  0
  4  3  1  0
  7  5  1  0
  8  6  1  0
 11  5  1  0
 11  9  1  0
 12 10  1  6
 13  3  1  1
 13 12  1  0
 14  6  1  1
 14 12  1  0
 15  9  2  0
 16 10  1  0
 16 15  1  0
 17  4  1  0
 18  1  1  1
 18  7  1  0
 18 14  1  0
 18 15  1  0
 19  2  1  1
 19  8  1  0
 19 13  1  0
 19 17  1  0
 20 11  2  0
 21 16  1  0
 22 17  2  0
M  END
>  <NAME>  (1371) 
6-HYDROXY-4-ANDROSTENE-3,17-DIONE

>  <SYNONYMS>  (1371) 


>  <SPECTRUM TYPE>  (1371) 
MS1

>  <INSTRUMENT TYPE>  (1371) 
EI-B

>  <INSTRUMENT>  (1371) 
JEOL JMS-D-300

>  <ION MODE>  (1371) 
P

>  <INCHIKEY>  (1371) 
WVAMBAWFDOYFOD-WFJVDCJUSA-N

>  <FORMULA>  (1371) 
C19H26O3

>  <EXACT MASS>  (1371) 
302.18819469199997

>  <MW>  (1371) 
302

>  <ID>  (1371) 
JP009955

>  <CONTRIBUTOR>  (1371) 
University of Tokyo Team, {Faculty of Engineering, University of Tokyo

>  <COMMENT>  (1371) 
SMILES=O=C(C4)C=C(C(O)3)C(C)(C4)C([H])(C2)C([H])(C3)C([H])(C1)C(C)(C2)C(=O)C1
InChI=InChI=1S/C19H26O3/c1-18-7-5-11(20)9-15(18)16(21)10-12-13-3-4-17(22)19(13,2)8-6-14(12)18/h9,12-14,16,21H,3-8,10H2,1-2H3/t12-,13-,14-,16?,18+,19-/m0/s1
computed SMILES=O=C1C=C2C(O)CC3C4CCC(=O)C4(C)CCC3C2(C)CC1
accession=JP009955
date=2016.01.19 (Created 2008.10.21, modified 2011.05.06)
author=KURARAY CO., LTD.
license=CC BY-NC-SA
exact mass=302.18819
ionization energy=70 eV
ion type=[M]+*
computed spectral entropy=4.3988187931106415
computed normalized entropy=0.8342156573797982
SPLASH=splash10-0uec-7942000000-d079c91515b751c3602b
submitter=submitter = University of Tokyo Team (Faculty of Engineering, University of Tokyo)
MoNA Rating=3.75

>  <NUM PEAKS>  (1371) 
195

>  <MASS SPECTRAL PEAKS>  (1371) 
27 9.4
28 3
29 12.3
31 0.13
39 12.2
40 2.3
41 36.4
42 0.36
43 18.8
51 3.3
52 2.7
53 1.88
54 4.2
55 37.5
56 2
57 0.38
65 9.2
66 5
67 29.2
68 0.63
69 6.6
71 1.7
77 20.5
78 0.5
79 30
80 6.3
81 26.6
82 0.67
83 5.3
84 0.6
85 1.3
91 2.81
92 5.9
93 26.7
94 7.5
95 2.11
96 5.5
97 15.3
98 3.1
103 0.27
104 1.3
105 18.8
106 5.9
107 2.08
108 15.6
109 24.2
110 21.4
111 0.93
112 3.1
113 0.6
114 1.3
115 0.45
116 1.6
117 6.1
118 2.3
119 0.97
120 4.4
121 12.7
122 6.4
123 1.64
124 7.8
125 3
127 0.8
128 0.34
129 4.7
130 1.6
131 10.8
132 0.47
133 7.8
134 5.9
135 9.4
136 1.53
137 8
138 13
139 19.2
140 0.84
141 2.3
142 1.4
143 5.8
144 0.33
145 9.2
146 4.7
147 14.1
148 0.61
149 18.9
150 12.8
151 3.8
152 2.27
153 5.9
154 0.6
155 1.6
156 0.06
157 5
158 2.8
159 5.5
160 0.44
161 5.6
162 3.1
163 4.1
164 0.23
165 1.7
166 1.3
167 1.4
168 0.14
169 2
170 1.4
171 6.3
172 0.28
173 6.3
174 2.5
175 5
176 0.19
177 2.8
178 1.6
179 1.3
180 0.05
181 1.6
182 0.6
183 2.5
184 0.28
185 9.5
186 4.7
187 4.4
188 0.3
189 4.5
190 2.3
191 2.7
192 0.13
193 1.3
194 0.3
195 1.9
196 0.06
197 2
198 4.8
199 6.3
200 0.16
201 3.1
202 2.8
203 5.5
204 0.28
205 1.6
206 1.1
207 0.5
208 0.03
209 1.9
210 1.3
211 1.6
213 0.5
214 3.1
215 2.8
216 1.7
217 0.25
218 1.3
219 1.3
220 3
223 0.13
225 1.9
226 1.4
227 4.8
228 0.34
229 2
230 1.3
231 6.4
232 0.64
233 81.7
234 13.9
235 1.6
237 0.03
238 0.5
239 0.5
240 1.7
241 0.41
242 4.5
243 2.3
245 3.3
246 0.55
247 1.7
251 1.3
256 1.7
258 0.17
259 5.9
260 1.3
269 4.7
273 1.55
274 4.7
284 6.3
285 1.6
286 0.06
287 25.9
288 4.7
300 1.4
301 0.05
302 99.99
303 24.7
304 4.2

>  <PREDICTED SPECTRUM>  (1371) 
27 20
28 5
29 42
38 0
39 64
40 52
41 371
42 93
43 239
44 69
45 56
49 15
51 67
52 80
53 252
54 101
55 349
56 91
57 166
58 9
59 18
60 29
63 28
64 25
65 145
66 75
67 302
68 107
69 226
70 49
71 108
72 27
73 14
77 252
78 100
79 295
80 98
81 281
82 102
83 203
84 74
85 70
86 31
91 275
92 98
93 305
94 148
95 286
96 124
97 230
98 62
99 83
100 26
101 9
103 69
104 89
105 263
106 124
107 276
108 181
109 305
110 230
111 181
112 45
113 33
114 23
115 126
116 54
117 138
118 118
119 221
120 114
121 263
122 230
123 275
124 152
125 146
126 44
127 49
128 110
129 143
130 68
131 217
132 116
133 182
134 154
135 186
136 260
137 267
138 296
139 155
140 67
141 68
142 62
143 128
144 80
145 159
146 105
147 213
148 138
149 289
150 256
151 204
152 225
153 107
154 44
155 80
156 73
157 154
158 73
159 187
160 62
161 187
162 125
163 142
164 146
165 144
166 48
167 118
168 80
169 50
170 66
171 149
172 135
173 149
174 90
175 148
176 93
177 135
178 91
179 96
180 28
181 82
182 65
183 125
184 83
185 176
186 84
187 113
188 105
189 90
190 63
191 79
192 22
193 57
194 31
195 98
196 67
197 149
198 59
199 177
200 91
201 64
202 80
203 151
204 100
205 87
206 62
207 40
208 19
209 96
210 37
211 69
212 94
213 197
214 106
215 152
216 22
217 132
218 37
219 2
220 25
221 24
223 58
224 89
225 146
226 101
227 160
228 88
229 132
230 96
231 209
232 145
233 120
237 22
238 44
239 32
240 38
241 124
242 116
243 128
244 107
245 202
246 153
247 85
251 112
252 47
253 9
255 68
256 22
257 61
258 96
259 159
260 190
261 56
266 25
267 12
269 226
270 65
271 92
273 233
274 167
275 81
284 161
285 167
286 49
287 482
288 199
289 51
298 3
300 71
301 52
302 999
303 435
304 157
305 33

$$$$

     RDKit          2D

 22 24  0  0  0  0  0  0  0  0999 V2000
   -3.7389    1.4102    0.0000 C   0  0  0  0  0  0  0  0  0  0  0  0
   -1.1400    2.9100    0.0000 C   0  0  0  0  0  0  0  0  0  0  0  0
   -1.1400   -3.0900    0.0000 C   0  0  0  0  0  0  0  0  0  0  0  0
    4.2372    0.3997    0.0000 C   0  0  0  0  0  0  0  0  0  0  0  0
    1.4600   -1.5900    0.0000 C   0  0  0  0  0  0  0  0  0  0  0  0
    2.7600   -0.8400    0.0000 C   0  0  0  0  0  0  0  0  0  0  0  0
    3.2727    2.0696    0.0000 C   0  0  0  0  0  0  0  0  0  0  0  0
    6.7570    5.6546    0.0000 C   0  0  0  0  0  0  0  0  0  0  0  0
    4.7499    2.3304    0.0000 C   0  0  0  0  0  0  0  0  0  0  0  0
    6.7005    4.1535    0.0000 C   0  0  0  0  0  0  0  0  0  0  0  0
    4.4263    4.9807    0.0000 C   0  0  0  0  0  0  0  0  0  0  0  0
   -2.4400    0.6600    0.0000 C   0  0  0  0  0  0  0  0  0  0  0  0
   -1.1400    1.4100    0.0000 C   0  0  0  0  0  0  0  0  0  0  0  0
   -1.1400   -1.5900    0.0000 C   0  0  0  0  0  0  0  0  0  0  0  0
    0.1600   -0.8400    0.0000 C   0  0  0  0  0  0  0  0  0  0  0  0
   -2.4400   -0.8400    0.0000 C   0  0  0  0  0  0  0  0  0  0  0  0
    0.1600    0.6600    0.0000 C   0  0  0  0  0  0  0  0  0  0  0  0
    2.7600    0.6600    0.0000 C   0  0  0  0  0  0  0  0  0  0  0  0
    5.3474    6.1673    0.0000 N   0  0  0  0  0  0  0  0  0  0  0  0
    5.2626    3.7401    0.0000 N   0  0  0  0  0  0  0  0  0  0  0  0
   -3.7389   -1.5902    0.0000 O   0  0  0  0  0  0  0  0  0  0  0  0
    1.4600    1.4100    0.0000 O   0  0  0  0  0  0  0  0  0  0  0  0
  6  5  1  0
  9  7  1  0
 10  8  2  0
 12  1  1  0
 13  2  1  0
 13 12  1  0
 14  3  1  0
 15  5  1  0
 15 14  2  0
 16 12  2  0
 16 14  1  0
 17 13  2  0
 17 15  1  0
 18  4  1  0
 18  6  1  0
 18  7  1  0
 19  8  1  0
 19 11  2  0
 20  9  1  0
 20 10  1  0
 20 11  1  0
 21 16  1  0
 22 17  1  0
 22 18  1  0
M  END
>  <NAME>  (1372) 
3,4-DIHYDRO-6-HYDROXY-2-(2-(IMIDAZOL-1-YL)ETHYL)-2,5,7,8-TETRAMETHYL-2H-1-BENZOPYRAN

>  <SYNONYMS>  (1372) 


>  <SPECTRUM TYPE>  (1372) 
MS1

>  <INSTRUMENT TYPE>  (1372) 
EI-B

>  <INSTRUMENT>  (1372) 
JEOL JMS-D-300

>  <ION MODE>  (1372) 
P

>  <INCHIKEY>  (1372) 
YRQDSILNLFORDF-UHFFFAOYSA-N

>  <FORMULA>  (1372) 
C18H24N2O2

>  <EXACT MASS>  (1372) 
300.183778008

>  <MW>  (1372) 
300

>  <ID>  (1372) 
JP009954

>  <CONTRIBUTOR>  (1372) 
University of Tokyo Team, {Faculty of Engineering, University of Tokyo

>  <COMMENT>  (1372) 
SMILES=c(n3)cn(c3)CCC(C)(C2)Oc(c(C)1)c(C2)c(C)c(O)c(C)1
InChI=InChI=1S/C18H24N2O2/c1-12-13(2)17-15(14(3)16(12)21)5-6-18(4,22-17)7-9-20-10-8-19-11-20/h8,10-11,21H,5-7,9H2,1-4H3
computed SMILES=OC=1C(=C(C=2OC(C)(CCC2C1C)CCN3C=NC=C3)C)C
accession=JP009954
date=2016.01.19 (Created 2008.10.21, modified 2011.05.06)
author=KURARAY CO., LTD.
license=CC BY-NC-SA
exact mass=300.18378
ionization energy=70 eV
ion type=[M]+*
computed spectral entropy=2.193644605844904
computed normalized entropy=0.720521740508251
SPLASH=splash10-000i-4900000000-7c8243d5e51b47bd0cad
submitter=submitter = University of Tokyo Team (Faculty of Engineering, University of Tokyo)
MoNA Rating=3.75

>  <NUM PEAKS>  (1372) 
21

>  <MASS SPECTRAL PEAKS>  (1372) 
28 8.6
32 4.1
41 5
43 0.45
44 3.8
69 21.7
73 4.1
77 0.48
81 6.3
82 16.7
105 5.9
121 0.47
122 5.3
135 4.7
136 3.8
137 99.99
138 9.7
164 5.8
203 9.1
300 3.28
301 6.3

>  <PREDICTED SPECTRUM>  (1372) 
33 2
39 46
40 17
41 161
42 37
43 114
44 33
51 12
53 135
54 77
55 104
57 44
65 43
66 52
67 132
68 43
69 99
71 2
77 71
79 96
80 51
81 184
82 87
91 91
93 76
94 53
95 66
96 11
105 62
109 33
115 9
119 46
121 30
122 69
132 25
135 76
136 74
137 999
138 216
163 10
164 81
300 233
301 89

$$$$

     RDKit          2D

 22 24  0  0  0  0  0  0  0  0999 V2000
    4.4724    4.5780    0.0000 C   0  0  0  0  0  0  0  0  0  0  0  0
    5.7681    2.3261    0.0000 C   0  0  0  0  0  0  0  0  0  0  0  0
   -0.7200    1.5800    0.0000 C   0  0  0  0  0  0  0  0  0  0  0  0
   -2.9841   -3.3192    0.0000 C   0  0  0  0  0  0  0  0  0  0  0  0
   -3.3200    0.0800    0.0000 C   0  0  0  0  0  0  0  0  0  0  0  0
    1.8800    3.0800    0.0000 C   0  0  0  0  0  0  0  0  0  0  0  0
    1.8800   -1.4200    0.0000 C   0  0  0  0  0  0  0  0  0  0  0  0
    0.5800    2.3300    0.0000 C   0  0  0  0  0  0  0  0  0  0  0  0
    0.5800   -2.1700    0.0000 C   0  0  0  0  0  0  0  0  0  0  0  0
   -2.0200    0.8300    0.0000 C   0  0  0  0  0  0  0  0  0  0  0  0
   -3.3200   -1.4200    0.0000 C   0  0  0  0  0  0  0  0  0  0  0  0
    3.1700    0.8300    0.0000 C   0  0  0  0  0  0  0  0  0  0  0  0
    4.4702    3.0780    0.0000 C   0  0  0  0  0  0  0  0  0  0  0  0
    3.1700    2.3300    0.0000 C   0  0  0  0  0  0  0  0  0  0  0  0
    1.8800    0.0800    0.0000 C   0  0  0  0  0  0  0  0  0  0  0  0
    0.5800    0.8300    0.0000 C   0  0  0  0  0  0  0  0  0  0  0  0
   -0.7200   -1.4200    0.0000 C   0  0  0  0  0  0  0  0  0  0  0  0
   -1.0559   -3.3192    0.0000 C   0  0  0  0  0  0  0  0  0  0  0  0
   -0.7200    0.0800    0.0000 C   0  0  0  0  0  0  0  0  0  0  0  0
   -2.0200   -2.1700    0.0000 C   0  0  0  0  0  0  0  0  0  0  0  0
    0.4213   -3.0589    0.0000 O   0  0  0  0  0  0  0  0  0  0  0  0
   -1.5691   -4.7287    0.0000 O   0  0  0  0  0  0  0  0  0  0  0  0
  8  6  1  0
  9  7  1  0
 10  5  1  0
 11  5  1  0
 13  1  1  0
 13  2  1  0
 14  6  2  0
 14 12  1  0
 14 13  1  0
 15  7  1  0
 15 12  2  0
 16  8  2  0
 16 15  1  0
 17  9  1  0
 19  3  1  0
 19 10  1  0
 19 16  1  0
 19 17  1  0
 20  4  1  0
 20 11  1  0
 20 17  1  0
 20 18  1  0
 21 18  2  0
 22 18  1  0
M  END
>  <NAME>  (1373) 
7-ISOPROPYL-1,4A-DIMETHYL-1,2,3,4,4A,9,10,10A-OCTAHYDRO-1-PHENANTHRENECARBOXYLIC ACID

>  <SYNONYMS>  (1373) 


>  <SPECTRUM TYPE>  (1373) 
MS1

>  <INSTRUMENT TYPE>  (1373) 
EI-B

>  <INSTRUMENT>  (1373) 
JEOL JMS-D-300

>  <ION MODE>  (1373) 
P

>  <INCHIKEY>  (1373) 
NFWKVWVWBFBAOV-UHFFFAOYSA-N

>  <FORMULA>  (1373) 
C20H28O2

>  <EXACT MASS>  (1373) 
300.208930136

>  <MW>  (1373) 
300

>  <ID>  (1373) 
JP009953

>  <CONTRIBUTOR>  (1373) 
University of Tokyo Team, {Faculty of Engineering, University of Tokyo

>  <COMMENT>  (1373) 
SMILES=CC(C)c(c3)cc(C2)c(c3)C(C)(C1)C(C2)C(C)(C(O)=O)CC1
InChI=InChI=1S/C20H28O2/c1-13(2)14-6-8-16-15(12-14)7-9-17-19(16,3)10-5-11-20(17,4)18(21)22/h6,8,12-13,17H,5,7,9-11H2,1-4H3,(H,21,22)
computed SMILES=O=C(O)C1(C)CCCC2(C3=CC=C(C=C3CCC12)C(C)C)C
accession=JP009953
date=2016.01.19 (Created 2008.10.21, modified 2011.05.06)
author=KURARAY CO., LTD.
license=CC BY-NC-SA
exact mass=300.20893
ionization energy=70 eV
ion type=[M]+*
computed spectral entropy=3.8331377692253747
computed normalized entropy=0.8034775029076043
SPLASH=splash10-000i-3891000000-4c76cb7734651ab12198
submitter=submitter = University of Tokyo Team (Faculty of Engineering, University of Tokyo)
MoNA Rating=3.75

>  <NUM PEAKS>  (1373) 
118

>  <MASS SPECTRAL PEAKS>  (1373) 
27 3.2
29 2.2
39 2.4
41 1.37
43 19.6
45 2.2
53 3.2
55 0.76
56 2.1
67 4.3
69 5.1
77 0.47
78 2.2
79 6.5
81 8.7
82 0.22
83 2.1
84 1.6
85 1.4
89 0.32
91 7.1
92 3.2
93 6.5
94 0.21
95 6.3
96 0.5
97 0.5
99 0.25
105 7.9
107 7.9
109 6.2
111 0.17
112 2.4
115 7.9
116 2.7
117 1.11
119 4.7
121 6.3
123 4.4
125 0.19
127 3.2
128 8.2
129 10.7
130 0.24
131 9.6
132 1.6
133 10.1
134 0.27
135 4.7
136 2.5
139 2.4
141 1.53
142 5.2
143 9.2
144 1.6
145 0.52
146 2.5
147 1.3
149 0.5
150 0.38
151 1.6
152 2.1
153 3.3
154 0.22
155 7.6
156 2.5
157 7.1
159 1
160 1.6
161 1.3
163 4.7
165 0.32
166 1.6
167 6.3
168 2.7
169 0.6
171 6
173 4.1
175 2.4
179 0.21
180 1.3
181 2.1
183 7.3
184 0.19
185 5.8
186 3.3
187 7.8
189 0.19
195 3
197 26.9
198 4.7
199 0.63
201 3.5
207 1.6
211 2.4
213 0.16
215 2.7
225 3.5
239 75.4
240 1.53
241 2.8
243 7.9
244 1.6
255 0.16
257 2.4
259 3.2
261 2.8
271 0.27
284 1.6
285 99.99
286 22.1
287 0.28
289 15
290 3.2
300 29.2
301 0.71
302 1.4
304 6.3

>  <PREDICTED SPECTRUM>  (1373) 
14 22
15 48
16 14
17 27
18 58
26 9
27 124
28 61
29 143
33 14
38 12
39 201
40 90
41 387
42 114
43 462
44 107
45 119
50 34
51 145
52 42
53 177
54 10
55 259
56 107
57 179
58 61
59 28
62 11
63 93
64 52
65 164
66 10
67 115
69 182
70 92
71 150
72 27
73 16
74 22
75 17
76 28
77 233
78 92
79 110
80 20
81 130
82 94
83 159
84 101
85 109
86 53
87 53
88 21
89 69
91 299
92 89
93 107
94 0
95 110
96 31
97 62
98 40
99 46
100 26
101 64
102 63
103 91
104 54
105 184
106 63
107 88
109 97
111 84
112 64
113 60
114 52
115 287
116 127
117 197
118 35
119 118
121 80
123 52
125 42
126 52
127 172
128 337
129 314
130 173
131 279
132 97
133 130
134 4
135 48
137 12
139 150
140 51
141 424
142 268
143 288
144 158
145 159
146 73
147 149
149 66
151 61
152 229
153 241
154 157
155 210
156 133
157 245
158 178
159 219
160 117
161 21
162 11
163 44
164 32
165 245
166 138
167 236
168 153
169 161
170 93
171 190
172 160
173 300
174 91
175 15
176 8
178 97
179 134
180 75
181 225
182 153
183 262
184 110
185 221
186 132
187 177
188 68
189 195
190 36
191 9
192 2
193 100
194 103
195 213
196 132
197 274
198 163
199 235
200 139
201 125
202 65
203 60
207 145
208 114
209 96
210 87
211 221
212 66
213 135
214 10
215 84
219 32
221 68
223 71
224 74
225 354
226 215
227 93
228 50
229 53
233 20
237 10
238 37
239 388
240 186
241 120
242 1
243 76
252 53
253 24
254 115
255 114
256 47
257 100
258 107
259 15
267 137
268 59
270 6
271 13
283 86
284 24
285 999
286 463
287 200
288 7
298 94
299 23
300 693
301 313
302 111

$$$$

     RDKit          2D

 22 25  0  0  0  0  0  0  0  0999 V2000
    1.9500   -0.9000    0.0000 C   0  0  0  0  0  0  0  0  0  0  0  0
    8.4625    1.3831    0.0000 C   0  0  0  0  0  0  0  0  0  0  0  0
    0.6300   -1.6600    0.0000 C   0  0  0  0  0  0  0  0  0  0  0  0
    9.7807    0.6200    0.0000 C   0  0  0  0  0  0  0  0  0  0  0  0
    0.6300    1.3800    0.0000 C   0  0  0  0  0  0  0  0  0  0  0  0
    7.1480   -0.9000    0.0000 C   0  0  0  0  0  0  0  0  0  0  0  0
    3.2486    1.3708    0.0000 C   0  0  0  0  0  0  0  0  0  0  0  0
   -2.9400   -0.2300    0.0000 C   0  0  0  0  0  0  0  0  0  0  0  0
   10.3273   -3.1868    0.0000 C   0  0  0  0  0  0  0  0  0  0  0  0
    1.9500    0.6200    0.0000 C   0  0  0  0  0  0  0  0  0  0  0  0
    7.1462    0.6231    0.0000 C   0  0  0  0  0  0  0  0  0  0  0  0
   -0.6600   -0.9000    0.0000 C   0  0  0  0  0  0  0  0  0  0  0  0
    9.7675   -0.8772    0.0000 C   0  0  0  0  0  0  0  0  0  0  0  0
   -0.6600    0.6200    0.0000 C   0  0  0  0  0  0  0  0  0  0  0  0
    8.4512   -1.6372    0.0000 C   0  0  0  0  0  0  0  0  0  0  0  0
    5.8467    1.3723    0.0000 C   0  0  0  0  0  0  0  0  0  0  0  0
    5.8458    2.8723    0.0000 O   0  0  0  0  0  0  0  0  0  0  0  0
    4.5481    0.6216    0.0000 O   0  0  0  0  0  0  0  0  0  0  0  0
   -2.0600   -1.3400    0.0000 O   0  0  0  0  0  0  0  0  0  0  0  0
   10.8486   -1.8697    0.0000 O   0  0  0  0  0  0  0  0  0  0  0  0
   -2.0900    1.0600    0.0000 O   0  0  0  0  0  0  0  0  0  0  0  0
    8.7851   -3.0956    0.0000 O   0  0  0  0  0  0  0  0  0  0  0  0
  3  1  2  0
  4  2  2  0
 10  1  1  0
 10  5  2  0
 10  7  1  0
 11  2  1  0
 11  6  2  0
 12  3  1  0
 13  4  1  0
 14  5  1  0
 14 12  2  0
 15  6  1  0
 15 13  2  0
 16 11  1  0
 17 16  2  0
 18  7  1  0
 18 16  1  0
 19  8  1  0
 19 12  1  0
 20  9  1  0
 20 13  1  0
 21  8  1  0
 21 14  1  0
 22  9  1  0
 22 15  1  0
M  END
>  <NAME>  (1374) 
1,3-BENZODIOXOL-5-METHYL 1,3-BENZODIOXOLE-5-CARBOXYLATE

>  <SYNONYMS>  (1374) 


>  <SPECTRUM TYPE>  (1374) 
MS1

>  <INSTRUMENT TYPE>  (1374) 
EI-B

>  <INSTRUMENT>  (1374) 
JEOL JMS-D-300

>  <ION MODE>  (1374) 
P

>  <INCHIKEY>  (1374) 
FFPTUNHKEQKODI-UHFFFAOYSA-N

>  <FORMULA>  (1374) 
C16H12O6

>  <EXACT MASS>  (1374) 
300.06338810399996

>  <MW>  (1374) 
300

>  <ID>  (1374) 
JP009952

>  <CONTRIBUTOR>  (1374) 
University of Tokyo Team, {Faculty of Engineering, University of Tokyo

>  <COMMENT>  (1374) 
SMILES=O=C(OCc(c3)cc(O4)c(OC4)c3)c(c1)cc(O2)c(OC2)c1
InChI=InChI=1S/C16H12O6/c17-16(11-2-4-13-15(6-11)22-9-20-13)18-7-10-1-3-12-14(5-10)21-8-19-12/h1-6H,7-9H2
computed SMILES=O=C(OCC1=CC=C2OCOC2=C1)C3=CC=C4OCOC4=C3
accession=JP009952
date=2016.01.19 (Created 2008.10.21, modified 2011.05.06)
author=KURARAY CO., LTD.
license=CC BY-NC-SA
exact mass=300.06339
ionization energy=70 eV
ion type=[M]+*
computed spectral entropy=1.2609128969445518
computed normalized entropy=0.703728886940272
SPLASH=splash10-000i-0902000000-47ac2b7065abfc56a763
submitter=submitter = University of Tokyo Team (Faculty of Engineering, University of Tokyo)
MoNA Rating=3.75

>  <NUM PEAKS>  (1374) 
6

>  <MASS SPECTRAL PEAKS>  (1374) 
77 11.3
135 99.99
136 11.4
149 3.58
150 11.6
300 35.9

>  <PREDICTED SPECTRUM>  (1374) 
39 30
50 91
51 308
52 82
53 80
62 83
63 174
64 87
65 244
66 79
67 32
74 17
75 30
76 85
77 436
78 131
79 116
89 1
91 60
92 15
93 39
104 2
105 153
106 131
107 2
120 21
121 54
122 143
123 44
133 1
134 93
135 999
136 244
137 82
148 19
149 83
150 330
151 124
163 43
164 0
165 71
300 592
301 220
302 69

$$$$

     RDKit          2D

 21 20  0  0  0  0  0  0  0  0999 V2000
    4.8714    8.8125    0.0000 C   0  0  0  0  0  0  0  0  0  0  0  0
  -14.6142    9.5625    0.0000 C   0  0  0  0  0  0  0  0  0  0  0  0
  -13.3151    7.3125    0.0000 C   0  0  0  0  0  0  0  0  0  0  0  0
   -8.1190    7.3125    0.0000 C   0  0  0  0  0  0  0  0  0  0  0  0
   -2.9228    7.3125    0.0000 C   0  0  0  0  0  0  0  0  0  0  0  0
    1.3091    7.6634    0.0000 C   0  0  0  0  0  0  0  0  0  0  0  0
    3.5724    9.5625    0.0000 C   0  0  0  0  0  0  0  0  0  0  0  0
  -10.7171    8.8125    0.0000 C   0  0  0  0  0  0  0  0  0  0  0  0
   -5.5209    8.8125    0.0000 C   0  0  0  0  0  0  0  0  0  0  0  0
   -0.3248    8.8125    0.0000 C   0  0  0  0  0  0  0  0  0  0  0  0
  -12.0161    9.5625    0.0000 C   0  0  0  0  0  0  0  0  0  0  0  0
   -9.4180    9.5625    0.0000 C   0  0  0  0  0  0  0  0  0  0  0  0
   -6.8200    9.5625    0.0000 C   0  0  0  0  0  0  0  0  0  0  0  0
   -4.2219    9.5625    0.0000 C   0  0  0  0  0  0  0  0  0  0  0  0
   -1.6238    9.5625    0.0000 C   0  0  0  0  0  0  0  0  0  0  0  0
    0.9743    9.5625    0.0000 C   0  0  0  0  0  0  0  0  0  0  0  0
  -13.3151    8.8125    0.0000 C   0  0  0  0  0  0  0  0  0  0  0  0
   -8.1190    8.8125    0.0000 C   0  0  0  0  0  0  0  0  0  0  0  0
   -2.9228    8.8125    0.0000 C   0  0  0  0  0  0  0  0  0  0  0  0
    2.2733    8.8125    0.0000 C   0  0  0  0  0  0  0  0  0  0  0  0
    3.2375    7.6634    0.0000 O   0  0  0  0  0  0  0  0  0  0  0  0
  7  1  2  0
 11  8  1  0
 12  8  1  0
 13  9  1  0
 14  9  1  0
 15 10  1  0
 16 10  1  0
 17  2  1  0
 17  3  1  0
 17 11  1  0
 18  4  1  0
 18 12  1  0
 18 13  1  0
 19  5  1  0
 19 14  1  0
 19 15  1  0
 20  6  1  0
 20  7  1  0
 20 16  1  0
 21 20  1  0
M  END
>  <NAME>  (1375) 
3,7,11,15-TETRAMETHYL-1-HEXADECEN-3-OL

>  <SYNONYMS>  (1375) 


>  <SPECTRUM TYPE>  (1375) 
MS1

>  <INSTRUMENT TYPE>  (1375) 
EI-B

>  <INSTRUMENT>  (1375) 
JEOL JMS-D-300

>  <ION MODE>  (1375) 
P

>  <INCHIKEY>  (1375) 
KEVYVLWNCKMXJX-UHFFFAOYSA-N

>  <FORMULA>  (1375) 
C20H40O

>  <EXACT MASS>  (1375) 
296.3079159

>  <MW>  (1375) 
296

>  <ID>  (1375) 
JP009951

>  <CONTRIBUTOR>  (1375) 
University of Tokyo Team, {Faculty of Engineering, University of Tokyo

>  <COMMENT>  (1375) 
SMILES=CC(C)CCCC(C)CCCC(C)CCCC(C)(O)C=C
InChI=InChI=1S/C20H40O/c1-7-20(6,21)16-10-15-19(5)14-9-13-18(4)12-8-11-17(2)3/h7,17-19,21H,1,8-16H2,2-6H3
computed SMILES=OC(C=C)(C)CCCC(C)CCCC(C)CCCC(C)C
accession=JP009951
date=2016.01.19 (Created 2008.10.21, modified 2011.05.06)
author=KURARAY CO., LTD.
license=CC BY-NC-SA
exact mass=296.30792
ionization energy=70 eV
ion type=[M]+*
computed spectral entropy=2.8671131859901733
computed normalized entropy=0.8130516338235875
SPLASH=splash10-0ab9-9100000000-f7aa2b807fcdbe5fdad3
submitter=submitter = University of Tokyo Team (Faculty of Engineering, University of Tokyo)
MoNA Rating=3.75

>  <NUM PEAKS>  (1375) 
34

>  <MASS SPECTRAL PEAKS>  (1375) 
29 9.4
41 21.2
42 4.6
43 4.57
55 29.9
56 11.9
57 99.99
58 0.56
69 20.8
70 7
71 74.6
72 0.85
81 9.6
83 13.3
85 53.4
88 2.13
95 8.4
97 14.5
99 21
109 0.65
111 11.3
113 15.7
123 6.8
125 0.41
127 13.8
137 6.5
141 9.6
155 0.77
169 5.5
183 3.8
197 3.4
263 0.82
281 15
282 3.4

>  <PREDICTED SPECTRUM>  (1375) 
26 10
27 162
28 47
29 241
30 25
31 109
38 13
39 175
40 31
41 591
42 270
43 917
44 140
45 89
46 0
51 20
52 21
53 157
54 105
55 681
56 454
57 999
58 353
59 262
65 17
66 50
67 262
68 149
69 666
70 522
71 870
72 387
73 145
74 12
77 13
78 14
79 115
80 51
81 386
82 290
83 545
84 196
85 365
86 104
87 43
93 95
94 65
95 374
96 240
97 416
98 52
99 164
100 49
105 53
109 215
110 131
111 364
112 219
113 287
114 11
123 295
124 159
125 294
126 60
127 26
137 146
138 72
139 14
141 189
142 27
149 2
151 7
152 20
211 5
225 143
237 16
278 20
281 69

$$$$

     RDKit          2D

 21 20  0  0  0  0  0  0  0  0999 V2000
    5.5209    8.4375    0.0000 C   0  0  0  0  0  0  0  0  0  0  0  0
    4.2219   10.6875    0.0000 C   0  0  0  0  0  0  0  0  0  0  0  0
  -13.9647   10.6875    0.0000 C   0  0  0  0  0  0  0  0  0  0  0  0
  -15.2637    8.4375    0.0000 C   0  0  0  0  0  0  0  0  0  0  0  0
   -4.8714    8.4375    0.0000 C   0  0  0  0  0  0  0  0  0  0  0  0
   -3.5724    9.1875    0.0000 C   0  0  0  0  0  0  0  0  0  0  0  0
   -6.1704    9.1875    0.0000 C   0  0  0  0  0  0  0  0  0  0  0  0
   -2.2733    8.4375    0.0000 C   0  0  0  0  0  0  0  0  0  0  0  0
   -7.4695    8.4375    0.0000 C   0  0  0  0  0  0  0  0  0  0  0  0
   -0.9743    9.1875    0.0000 C   0  0  0  0  0  0  0  0  0  0  0  0
   -8.7685    9.1875    0.0000 C   0  0  0  0  0  0  0  0  0  0  0  0
    0.3248    8.4375    0.0000 C   0  0  0  0  0  0  0  0  0  0  0  0
  -10.0675    8.4375    0.0000 C   0  0  0  0  0  0  0  0  0  0  0  0
    4.2219    9.1875    0.0000 C   0  0  0  0  0  0  0  0  0  0  0  0
  -13.9647    9.1875    0.0000 C   0  0  0  0  0  0  0  0  0  0  0  0
    2.9228    8.4375    0.0000 C   0  0  0  0  0  0  0  0  0  0  0  0
  -12.6656    8.4375    0.0000 C   0  0  0  0  0  0  0  0  0  0  0  0
    2.9228    6.9375    0.0000 O   0  0  0  0  0  0  0  0  0  0  0  0
  -12.6656    6.9375    0.0000 O   0  0  0  0  0  0  0  0  0  0  0  0
    1.6238    9.1875    0.0000 O   0  0  0  0  0  0  0  0  0  0  0  0
  -11.3666    9.1875    0.0000 O   0  0  0  0  0  0  0  0  0  0  0  0
  6  5  1  0
  7  5  1  0
  8  6  1  0
  9  7  1  0
 10  8  1  0
 11  9  1  0
 12 10  1  0
 13 11  1  0
 14  1  2  0
 14  2  1  0
 15  3  2  0
 15  4  1  0
 16 14  1  0
 17 15  1  0
 18 16  2  0
 19 17  2  0
 20 12  1  0
 20 16  1  0
 21 13  1  0
 21 17  1  0
M  END
>  <NAME>  (1376) 
NONANEDIOL DIMETHACRYLATE

>  <SYNONYMS>  (1376) 


>  <SPECTRUM TYPE>  (1376) 
MS1

>  <INSTRUMENT TYPE>  (1376) 
EI-B

>  <INSTRUMENT>  (1376) 
JEOL JMS-D-300

>  <ION MODE>  (1376) 
P

>  <INCHIKEY>  (1376) 
YJVIKVWFGPLAFS-UHFFFAOYSA-N

>  <FORMULA>  (1376) 
C17H28O4

>  <EXACT MASS>  (1376) 
296.198759376

>  <MW>  (1376) 
296

>  <ID>  (1376) 
JP009950

>  <CONTRIBUTOR>  (1376) 
University of Tokyo Team, {Faculty of Engineering, University of Tokyo

>  <COMMENT>  (1376) 
SMILES=CC(=C)C(=O)OCCCCCCCCCOC(=O)C(C)=C
InChI=InChI=1S/C17H28O4/c1-14(2)16(18)20-12-10-8-6-5-7-9-11-13-21-17(19)15(3)4/h1,3,5-13H2,2,4H3
computed SMILES=O=C(OCCCCCCCCCOC(=O)C(=C)C)C(=C)C
accession=JP009950
date=2016.01.19 (Created 2008.10.21, modified 2011.05.06)
author=KURARAY CO., LTD.
license=CC BY-NC-SA
exact mass=296.19876
ionization energy=70 eV
ion type=[M]+*
computed spectral entropy=1.6709838746420644
computed normalized entropy=0.5257884113495707
SPLASH=splash10-014i-9010000000-73244ef64b35b5775ac7
submitter=submitter = University of Tokyo Team (Faculty of Engineering, University of Tokyo)
MoNA Rating=3.75

>  <NUM PEAKS>  (1376) 
24

>  <MASS SPECTRAL PEAKS>  (1376) 
28 4.5
39 3.6
41 25.1
68 0.16
69 99.99
70 4.8
73 5.1
96 0.19
99 1.1
143 2
145 3.3
147 0.3
197 2.3
210 4.7
211 5.6
212 0.06
221 3
267 0.5
268 1.5
281 0.26
282 0.9
283 0.6
295 1
296 0.6

>  <PREDICTED SPECTRUM>  (1376) 
26 44
27 197
28 48
29 179
31 0
37 20
38 32
39 334
40 162
41 718
42 280
43 255
44 18
45 69
51 25
53 161
54 252
55 551
56 192
57 187
58 55
59 40
65 1
66 36
67 380
68 391
69 999
70 321
71 201
77 27
78 3
79 105
80 50
81 424
82 366
83 404
84 63
85 78
86 95
87 564
88 223
93 75
94 68
95 358
96 212
97 240
98 117
99 127
100 8
101 11
107 9
108 2
109 206
110 231
111 191
112 81
113 157
114 74
115 17
122 38
123 175
124 146
125 138
126 92
136 58
137 22
138 135
139 74
140 20
141 53
143 13
153 12
154 32
169 30
182 73
197 76
209 6
210 81
211 47

$$$$

     RDKit          2D

 21 22  0  0  0  0  0  0  0  0999 V2000
  -10.3942   -0.7512    0.0000 C   0  0  0  0  0  0  0  0  0  0  0  0
    4.0772    0.4897    0.0000 C   0  0  0  0  0  0  0  0  0  0  0  0
   -9.0951   -1.5010    0.0000 C   0  0  0  0  0  0  0  0  0  0  0  0
   -7.7962   -0.7508    0.0000 C   0  0  0  0  0  0  0  0  0  0  0  0
   -6.4970   -1.5006    0.0000 C   0  0  0  0  0  0  0  0  0  0  0  0
   -5.1981   -0.7504    0.0000 C   0  0  0  0  0  0  0  0  0  0  0  0
   -3.8989   -1.5002    0.0000 C   0  0  0  0  0  0  0  0  0  0  0  0
    1.3000   -1.5000    0.0000 C   0  0  0  0  0  0  0  0  0  0  0  0
    2.6000   -0.7500    0.0000 C   0  0  0  0  0  0  0  0  0  0  0  0
    3.1127    2.1596    0.0000 C   0  0  0  0  0  0  0  0  0  0  0  0
    4.5899    2.4204    0.0000 C   0  0  0  0  0  0  0  0  0  0  0  0
   -1.3000   -1.5000    0.0000 C   0  0  0  0  0  0  0  0  0  0  0  0
   -1.3000    1.5000    0.0000 C   0  0  0  0  0  0  0  0  0  0  0  0
   -2.6000   -0.7500    0.0000 C   0  0  0  0  0  0  0  0  0  0  0  0
    0.0000   -0.7500    0.0000 C   0  0  0  0  0  0  0  0  0  0  0  0
   -2.6000    0.7500    0.0000 C   0  0  0  0  0  0  0  0  0  0  0  0
    0.0000    0.7500    0.0000 C   0  0  0  0  0  0  0  0  0  0  0  0
    2.6000    0.7500    0.0000 C   0  0  0  0  0  0  0  0  0  0  0  0
    5.1026    3.8301    0.0000 O   0  0  0  0  0  0  0  0  0  0  0  0
   -3.8989    1.5002    0.0000 O   0  0  0  0  0  0  0  0  0  0  0  0
    1.3000    1.5000    0.0000 O   0  0  0  0  0  0  0  0  0  0  0  0
  3  1  1  0
  4  3  1  0
  5  4  1  0
  6  5  1  0
  7  6  1  0
  9  8  1  0
 11 10  1  0
 14  7  1  0
 14 12  1  0
 15  8  1  0
 15 12  2  0
 16 13  1  0
 16 14  2  0
 17 13  2  0
 17 15  1  0
 18  2  1  0
 18  9  1  0
 18 10  1  0
 19 11  1  0
 20 16  1  0
 21 17  1  0
 21 18  1  0
M  END
>  <NAME>  (1377) 
3,4-DIHYDRO-7-HYDROXY-2-(2-HYDROXYETHYL)-6-HEXYL-2-METHYL-2H-1-BENZOPYRAN

>  <SYNONYMS>  (1377) 


>  <SPECTRUM TYPE>  (1377) 
MS1

>  <INSTRUMENT TYPE>  (1377) 
EI-B

>  <INSTRUMENT>  (1377) 
JEOL JMS-D-300

>  <ION MODE>  (1377) 
P

>  <INCHIKEY>  (1377) 
GSSPKHFHVBRYGV-UHFFFAOYSA-N

>  <FORMULA>  (1377) 
C18H28O3

>  <EXACT MASS>  (1377) 
292.20384475599997

>  <MW>  (1377) 
292

>  <ID>  (1377) 
JP009949

>  <CONTRIBUTOR>  (1377) 
University of Tokyo Team, {Faculty of Engineering, University of Tokyo

>  <COMMENT>  (1377) 
SMILES=CCCCCCc(c1)c(O)cc(O2)c(CCC(C)(CCO)2)1
InChI=InChI=1S/C18H28O3/c1-3-4-5-6-7-14-12-15-8-9-18(2,10-11-19)21-17(15)13-16(14)20/h12-13,19-20H,3-11H2,1-2H3
computed SMILES=OC=1C=C2OC(C)(CCO)CCC2=CC1CCCCCC
accession=JP009949
date=2016.01.19 (Created 2008.10.21, modified 2011.05.06)
author=KURARAY CO., LTD.
license=CC BY-NC-SA
exact mass=292.20384
ionization energy=70 eV
ion type=[M]+*
computed spectral entropy=3.5883019396376765
computed normalized entropy=0.7419546686226034
SPLASH=splash10-0pb9-2390000000-a71c3f2b1d0f9d2203cb
submitter=submitter = University of Tokyo Team (Faculty of Engineering, University of Tokyo)
MoNA Rating=3.75

>  <NUM PEAKS>  (1377) 
126

>  <MASS SPECTRAL PEAKS>  (1377) 
27 1.9
29 3.1
31 0.5
39 0.16
41 9.7
43 17.3
51 0.5
53 0.16
55 7.8
57 1.6
65 1.3
66 0.08
67 2.8
68 1.6
69 12.2
71 0.08
77 4.5
78 1.6
79 4.5
80 0.08
81 4.4
83 0.8
85 5
91 0.31
93 1.6
94 0.8
95 1.6
97 0.08
103 1.6
105 1.6
107 3.1
108 0.23
109 1.3
111 0.6
115 0.6
117 0.08
119 0.8
121 1.3
122 1.3
123 0.7
124 0.2
128 0.3
129 0.6
131 0.08
132 0.3
133 0.8
135 20
136 1.02
137 9.1
138 0.6
143 0.6
144 0.06
145 0.8
146 0.6
147 3.4
149 0.63
150 1.6
151 9.2
152 7
157 0.05
159 2.3
160 1.6
161 5
162 0.16
163 8.1
164 1.6
165 0.8
173 0.16
174 2.3
175 4.7
177 1.9
178 0.08
185 1.9
187 1.6
188 1.6
189 0.63
191 6.3
192 1.3
193 0.8
194 0.16
201 2.3
202 3.1
203 57.8
204 0.78
205 3.9
206 3.1
207 99.99
208 1.41
209 1.6
218 0.8
219 4.7
220 0.06
221 19.5
222 4.7
223 0.8
227 0.05
231 0.8
232 0.8
241 0.5
245 1.33
246 3.1
247 8.6
248 1.3
249 0.06
255 0.8
257 1.6
258 0.8
259 0.66
260 1.6
263 5.9
264 0.6
270 0.13
271 0.6
273 1.6
274 4.7
275 2.3
286 0.05
288 2.8
289 1.6
290 6.3
291 0.23
292 0.3
293 9.1
304 0.5
334 0.59
335 1.3

>  <PREDICTED SPECTRUM>  (1377) 
18 9
26 0
27 103
28 64
29 106
31 26
32 2
38 9
39 87
40 29
41 320
42 61
43 319
44 107
45 22
50 21
51 59
52 27
53 95
54 3
55 228
56 40
57 138
63 14
64 3
65 74
66 36
67 119
68 35
69 226
70 51
71 67
72 5
73 23
74 1
75 24
76 62
77 135
78 48
79 127
80 34
81 134
82 29
83 109
85 72
86 10
89 45
90 29
91 183
92 59
93 140
94 24
95 130
97 85
102 50
103 71
104 6
105 133
106 42
107 135
108 14
109 85
115 32
116 43
117 100
118 5
119 77
121 158
122 10
123 60
124 38
128 49
131 92
132 51
133 100
134 78
135 183
136 111
137 211
138 41
139 14
145 98
146 26
147 144
148 103
149 167
150 121
151 64
152 12
153 15
157 3
159 118
160 89
161 175
162 69
163 261
164 117
165 162
166 31
173 6
175 269
176 104
177 163
178 49
179 7
187 83
188 49
189 83
190 21
191 193
192 87
193 91
201 54
202 96
203 450
204 138
205 228
206 170
207 999
208 395
209 124
219 119
220 57
221 225
222 154
223 1
229 6
231 13
241 0
245 12
246 6
247 254
248 130
249 22
259 21
261 3
273 22
274 99
275 76
290 120
291 47
292 65
293 221
294 68

$$$$

     RDKit          2D

 21 20  0  0  0  0  0  0  0  0999 V2000
  -14.6142    9.5625    0.0000 C   0  0  0  0  0  0  0  0  0  0  0  0
  -13.3151    7.3125    0.0000 C   0  0  0  0  0  0  0  0  0  0  0  0
   -8.1190    7.3125    0.0000 C   0  0  0  0  0  0  0  0  0  0  0  0
   -2.9228    7.3125    0.0000 C   0  0  0  0  0  0  0  0  0  0  0  0
    2.2733    7.3125    0.0000 C   0  0  0  0  0  0  0  0  0  0  0  0
  -10.7171    8.8125    0.0000 C   0  0  0  0  0  0  0  0  0  0  0  0
   -5.5209    8.8125    0.0000 C   0  0  0  0  0  0  0  0  0  0  0  0
   -0.3248    8.8125    0.0000 C   0  0  0  0  0  0  0  0  0  0  0  0
  -12.0161    9.5625    0.0000 C   0  0  0  0  0  0  0  0  0  0  0  0
   -9.4180    9.5625    0.0000 C   0  0  0  0  0  0  0  0  0  0  0  0
   -6.8200    9.5625    0.0000 C   0  0  0  0  0  0  0  0  0  0  0  0
   -4.2219    9.5625    0.0000 C   0  0  0  0  0  0  0  0  0  0  0  0
   -1.6238    9.5625    0.0000 C   0  0  0  0  0  0  0  0  0  0  0  0
    0.9743    9.5625    0.0000 C   0  0  0  0  0  0  0  0  0  0  0  0
    3.5724    9.5625    0.0000 C   0  0  0  0  0  0  0  0  0  0  0  0
    4.8714    8.8125    0.0000 C   0  0  0  0  0  0  0  0  0  0  0  0
  -13.3151    8.8125    0.0000 C   0  0  0  0  0  0  0  0  0  0  0  0
   -8.1190    8.8125    0.0000 C   0  0  0  0  0  0  0  0  0  0  0  0
   -2.9228    8.8125    0.0000 C   0  0  0  0  0  0  0  0  0  0  0  0
    2.2733    8.8125    0.0000 C   0  0  0  0  0  0  0  0  0  0  0  0
    6.1704    9.5625    0.0000 O   0  0  0  0  0  0  0  0  0  0  0  0
  9  6  1  0
 10  6  1  0
 11  7  1  0
 12  7  1  0
 13  8  1  0
 14  8  1  0
 16 15  1  0
 17  1  1  0
 17  2  1  0
 17  9  2  0
 18  3  1  0
 18 10  1  0
 11 18  2  0
 19  4  1  0
 19 12  1  0
 13 19  2  0
 20  5  1  0
 20 14  1  0
 15 20  2  0
 21 16  1  0
M  END
>  <NAME>  (1378) 
3,7,11,15-TETRAMETHYL-2E,6E,10E,14E-2,6,10,14-HEXADECATETRAEN-1-OL

>  <SYNONYMS>  (1378) 
GERANYL GERANIOL

>  <SPECTRUM TYPE>  (1378) 
MS1

>  <INSTRUMENT TYPE>  (1378) 
EI-B

>  <INSTRUMENT>  (1378) 
JEOL JMS-D-300

>  <ION MODE>  (1378) 
P

>  <INCHIKEY>  (1378) 
OJISWRZIEWCUBN-QIRCYJPOSA-N

>  <FORMULA>  (1378) 
C20H34O

>  <EXACT MASS>  (1378) 
290.260965708

>  <MW>  (1378) 
290

>  <ID>  (1378) 
JP009948

>  <CONTRIBUTOR>  (1378) 
University of Tokyo Team, {Faculty of Engineering, University of Tokyo

>  <COMMENT>  (1378) 
SMILES=OCC=C(C)CCC=C(C)CCC=C(C)CCC=C(C)C
InChI=InChI=1S/C20H34O/c1-17(2)9-6-10-18(3)11-7-12-19(4)13-8-14-20(5)15-16-21/h9,11,13,15,21H,6-8,10,12,14,16H2,1-5H3/b18-11+,19-13+,20-15+
computed SMILES=OCC=C(C)CCC=C(C)CCC=C(C)CCC=C(C)C
accession=JP009948
date=2016.01.19 (Created 2008.10.21, modified 2011.05.06)
author=KURARAY CO., LTD.
license=CC BY-NC-SA
exact mass=290.26097
ionization energy=70 eV
ion type=[M]+*
computed spectral entropy=3.233632710631999
computed normalized entropy=0.7835055534777963
SPLASH=splash10-00kf-9200000000-9d615b455befc17956dd
submitter=submitter = University of Tokyo Team (Faculty of Engineering, University of Tokyo)
MoNA Rating=3.75

>  <NUM PEAKS>  (1378) 
62

>  <MASS SPECTRAL PEAKS>  (1378) 
27 4.5
29 7
39 7
40 0.06
41 57.8
42 2.3
43 10.6
53 1.09
55 23.4
57 3.9
65 3.1
67 1.88
68 11.7
69 99.99
70 8.3
71 0.2
77 9.4
78 1.3
79 17.3
80 0.47
81 51.6
82 5.8
83 3.1
84 0.45
91 13
92 4.4
93 45.3
94 0.63
95 18.4
96 1.6
97 2.3
105 1.17
106 2.3
107 19.5
108 3.1
109 1.09
119 15.3
120 10.9
121 10.9
122 0.31
123 7
131 1.6
132 4.7
133 1.25
134 6.3
135 12.5
136 5.3
137 0.55
145 1.9
146 1.6
147 5.5
148 0.23
149 1.9
159 3.1
161 5.9
162 0.16
187 2.6
189 2.2
191 2.1
203 0.29
204 1.5
272 3.3

>  <PREDICTED SPECTRUM>  (1378) 
18 6
26 27
27 134
28 55
29 222
30 47
31 77
32 11
38 20
39 177
40 90
41 665
42 174
43 408
44 75
45 73
50 35
51 62
52 44
53 244
54 96
55 381
56 148
57 239
58 31
59 47
60 35
61 10
65 86
66 102
67 392
68 375
69 999
70 251
71 232
72 38
73 17
77 168
78 103
79 269
80 214
81 661
82 293
83 235
84 126
85 170
86 78
87 38
91 261
92 147
93 369
94 199
95 446
96 132
97 185
98 83
99 47
103 14
104 8
105 203
106 129
107 360
108 182
109 345
110 138
111 129
112 73
113 22
115 3
117 46
119 250
120 96
121 319
122 179
123 354
124 152
125 100
126 17
127 19
131 69
132 61
133 135
134 124
135 313
136 318
137 352
138 86
139 66
145 72
146 20
147 160
148 142
149 205
150 107
151 61
152 51
153 48
154 19
159 85
160 47
161 181
162 51
163 127
164 55
165 83
166 84
168 30
173 31
174 4
175 135
176 85
177 192
178 108
179 75
180 2
187 46
189 150
190 40
191 66
192 81
193 64
194 27
201 33
202 26
203 127
204 112
205 80
206 19
207 35
208 10
209 9
215 18
216 31
217 5
219 58
220 0
221 138
222 24
229 47
230 14
231 4
233 31
234 4
247 88
248 54
257 9
258 10
259 93
260 9
271 1
272 80
273 56
274 2
275 37
290 148
291 71

$$$$

     RDKit          2D

 21 20  0  0  0  0  0  0  0  0999 V2000
    4.8714    8.8125    0.0000 C   0  0  0  0  0  0  0  0  0  0  0  0
  -14.6142    9.5625    0.0000 C   0  0  0  0  0  0  0  0  0  0  0  0
  -13.3151    7.3125    0.0000 C   0  0  0  0  0  0  0  0  0  0  0  0
   -8.1190    7.3125    0.0000 C   0  0  0  0  0  0  0  0  0  0  0  0
   -2.9228    7.3125    0.0000 C   0  0  0  0  0  0  0  0  0  0  0  0
    1.3091    7.6634    0.0000 C   0  0  0  0  0  0  0  0  0  0  0  0
    3.5724    9.5625    0.0000 C   0  0  0  0  0  0  0  0  0  0  0  0
  -10.7171    8.8125    0.0000 C   0  0  0  0  0  0  0  0  0  0  0  0
   -5.5209    8.8125    0.0000 C   0  0  0  0  0  0  0  0  0  0  0  0
   -0.3248    8.8125    0.0000 C   0  0  0  0  0  0  0  0  0  0  0  0
  -12.0161    9.5625    0.0000 C   0  0  0  0  0  0  0  0  0  0  0  0
   -9.4180    9.5625    0.0000 C   0  0  0  0  0  0  0  0  0  0  0  0
   -6.8200    9.5625    0.0000 C   0  0  0  0  0  0  0  0  0  0  0  0
   -4.2219    9.5625    0.0000 C   0  0  0  0  0  0  0  0  0  0  0  0
   -1.6238    9.5625    0.0000 C   0  0  0  0  0  0  0  0  0  0  0  0
    0.9743    9.5625    0.0000 C   0  0  0  0  0  0  0  0  0  0  0  0
  -13.3151    8.8125    0.0000 C   0  0  0  0  0  0  0  0  0  0  0  0
   -8.1190    8.8125    0.0000 C   0  0  0  0  0  0  0  0  0  0  0  0
   -2.9228    8.8125    0.0000 C   0  0  0  0  0  0  0  0  0  0  0  0
    2.2733    8.8125    0.0000 C   0  0  0  0  0  0  0  0  0  0  0  0
    3.2375    7.6634    0.0000 O   0  0  0  0  0  0  0  0  0  0  0  0
  7  1  2  0
 11  8  1  0
 12  8  1  0
 13  9  1  0
 14  9  1  0
 15 10  1  0
 16 10  1  0
 17  2  1  0
 17  3  1  0
 17 11  2  0
 18  4  1  0
 18 12  1  0
 13 18  2  0
 19  5  1  0
 19 14  1  0
 15 19  2  0
 20  6  1  0
 20  7  1  0
 20 16  1  0
 21 20  1  0
M  END
>  <NAME>  (1379) 
3,7,11,15-TETRAMETHYL-1,6,10,14-HEXADECATETRAEN-3-OL

>  <SYNONYMS>  (1379) 
LINALYL LINALOOL

>  <SPECTRUM TYPE>  (1379) 
MS1

>  <INSTRUMENT TYPE>  (1379) 
EI-B

>  <INSTRUMENT>  (1379) 
JEOL JMS-D-300

>  <ION MODE>  (1379) 
P

>  <INCHIKEY>  (1379) 
IQDXAJNQKSIPGB-HQSZAHFGSA-N

>  <FORMULA>  (1379) 
C20H34O

>  <EXACT MASS>  (1379) 
290.260965708

>  <MW>  (1379) 
290

>  <ID>  (1379) 
JP009947

>  <CONTRIBUTOR>  (1379) 
University of Tokyo Team, {Faculty of Engineering, University of Tokyo

>  <COMMENT>  (1379) 
SMILES=CC(C)=CCCC(C)=CCCC(C)=CCCC(C)(O)C=C
InChI=InChI=1S/C20H34O/c1-7-20(6,21)16-10-15-19(5)14-9-13-18(4)12-8-11-17(2)3/h7,11,13,15,21H,1,8-10,12,14,16H2,2-6H3/b18-13+,19-15+
computed SMILES=OC(C=C)(C)CCC=C(C)CCC=C(C)CCC=C(C)C
accession=JP009947
date=2016.01.19 (Created 2008.10.21, modified 2011.05.06)
author=KURARAY CO., LTD.
license=CC BY-NC-SA
exact mass=290.26097
ionization energy=70 eV
ion type=[M]+*
computed spectral entropy=3.783542891279023
computed normalized entropy=0.8763296601597473
SPLASH=splash10-00kf-9500000000-36e24d484f9bbea30bd0
submitter=submitter = University of Tokyo Team (Faculty of Engineering, University of Tokyo)
MoNA Rating=3.75

>  <NUM PEAKS>  (1379) 
75

>  <MASS SPECTRAL PEAKS>  (1379) 
27 5.5
29 9.8
32 0.8
39 0.39
41 64.1
42 9.4
43 55.9
44 0.23
45 7.8
53 9.4
55 30.5
57 0.75
65 14.8
67 19.5
68 7.8
69 99.99
70 7.8
71 23.4
73 4.7
77 0.55
79 15.3
80 7
81 52.8
82 0.86
83 12.2
85 10.2
91 12.5
92 0.28
93 35.5
94 7.8
95 44.8
96 0.47
97 8.4
98 8.6
99 9.8
105 1.27
106 9.4
107 41.7
108 9.4
109 3.64
110 8.6
111 11.7
113 6.1
119 1.56
120 2.3
121 25.8
122 10.8
123 4.69
124 10.9
125 16.1
133 18.3
134 0.31
135 17.3
136 9.2
137 14.1
142 0.55
143 14.1
145 12.7
147 12.2
148 0.78
149 10.2
151 13.8
159 2
161 0.83
163 12.7
175 11.7
177 12.5
187 0.16
189 13.3
190 10.9
191 5.9
203 3.83
204 8.6
229 10.9
272 10.2

>  <PREDICTED SPECTRUM>  (1379) 
26 29
27 151
28 70
29 225
30 10
31 73
38 16
39 205
40 90
41 756
42 149
43 647
44 72
45 119
50 49
51 89
52 64
53 336
54 125
55 543
56 157
57 338
58 85
59 129
60 35
61 26
65 140
66 119
67 493
68 412
69 999
70 244
71 403
72 118
73 39
76 13
77 255
78 115
79 378
80 303
81 786
82 379
83 298
84 167
85 222
86 90
87 62
88 5
91 291
92 176
93 512
94 250
95 530
96 158
97 185
98 65
99 55
100 9
103 45
104 30
105 282
106 175
107 482
108 280
109 463
110 185
111 171
112 90
113 15
115 23
117 51
118 15
119 308
120 163
121 422
122 272
123 376
124 174
125 165
126 19
127 95
128 13
131 84
132 101
133 269
134 234
135 418
136 329
137 348
138 127
139 124
140 11
143 23
145 126
146 45
147 239
148 196
149 247
150 135
151 128
152 59
153 78
154 15
155 3
159 104
160 89
161 246
162 114
163 167
164 75
165 97
166 76
167 2
168 8
171 0
173 99
174 72
175 180
176 148
177 195
178 124
179 88
180 40
181 14
187 88
188 26
189 225
190 68
191 126
192 49
193 69
194 28
201 63
202 91
203 215
204 184
205 159
206 42
207 92
208 35
215 73
216 90
217 66
218 39
219 68
220 20
221 106
222 35
229 99
230 79
231 8
232 61
233 87
234 3
247 123
248 81
272 143
273 47
275 27
290 135
291 53

$$$$

     RDKit          2D

 21 20  0  0  0  0  0  0  0  0999 V2000
    5.1962    9.0000    0.0000 C   0  0  0  0  0  0  0  0  0  0  0  0
  -15.5885    9.0000    0.0000 C   0  0  0  0  0  0  0  0  0  0  0  0
  -14.2894   11.2500    0.0000 C   0  0  0  0  0  0  0  0  0  0  0  0
   -9.0933   11.2500    0.0000 C   0  0  0  0  0  0  0  0  0  0  0  0
   -3.8971   11.2500    0.0000 C   0  0  0  0  0  0  0  0  0  0  0  0
    3.8971    9.7500    0.0000 C   0  0  0  0  0  0  0  0  0  0  0  0
  -11.6913    9.7500    0.0000 C   0  0  0  0  0  0  0  0  0  0  0  0
   -6.4952    9.7500    0.0000 C   0  0  0  0  0  0  0  0  0  0  0  0
   -1.2990    9.7500    0.0000 C   0  0  0  0  0  0  0  0  0  0  0  0
  -12.9904    9.0000    0.0000 C   0  0  0  0  0  0  0  0  0  0  0  0
  -10.3923    9.0000    0.0000 C   0  0  0  0  0  0  0  0  0  0  0  0
   -7.7942    9.0000    0.0000 C   0  0  0  0  0  0  0  0  0  0  0  0
   -5.1962    9.0000    0.0000 C   0  0  0  0  0  0  0  0  0  0  0  0
   -2.5981    9.0000    0.0000 C   0  0  0  0  0  0  0  0  0  0  0  0
    0.0000    9.0000    0.0000 C   0  0  0  0  0  0  0  0  0  0  0  0
  -14.2894    9.7500    0.0000 C   0  0  0  0  0  0  0  0  0  0  0  0
   -9.0933    9.7500    0.0000 C   0  0  0  0  0  0  0  0  0  0  0  0
   -3.8971    9.7500    0.0000 C   0  0  0  0  0  0  0  0  0  0  0  0
    1.2990    9.7500    0.0000 C   0  0  0  0  0  0  0  0  0  0  0  0
    1.2990   11.2500    0.0000 O   0  0  0  0  0  0  0  0  0  0  0  0
    2.5981    9.0000    0.0000 O   0  0  0  0  0  0  0  0  0  0  0  0
  6  1  1  0
 10  7  1  0
 11  7  1  0
 12  8  1  0
 13  8  1  0
 14  9  1  0
  9 15  2  0
 16  2  1  0
 16  3  1  0
 16 10  2  0
 17  4  1  0
 17 11  1  0
 12 17  2  0
 18  5  1  0
 18 13  1  0
 14 18  2  0
 19 15  1  0
 20 19  2  0
 21  6  1  0
 21 19  1  0
M  END
>  <NAME>  (1380) 
ETHYL 5,9,13-TRIMETHYL-(2E,4E,8E,12E)-2,4,8,12-TETRADECATETRAENOATE

>  <SYNONYMS>  (1380) 


>  <SPECTRUM TYPE>  (1380) 
MS1

>  <INSTRUMENT TYPE>  (1380) 
EI-B

>  <INSTRUMENT>  (1380) 
JEOL JMS-D-300

>  <ION MODE>  (1380) 
P

>  <INCHIKEY>  (1380) 
WXCIIDBUNPXVPR-GQHNWBNOSA-N

>  <FORMULA>  (1380) 
C19H30O2

>  <EXACT MASS>  (1380) 
290.2245802

>  <MW>  (1380) 
290

>  <ID>  (1380) 
JP009946

>  <CONTRIBUTOR>  (1380) 
University of Tokyo Team, {Faculty of Engineering, University of Tokyo

>  <COMMENT>  (1380) 
SMILES=CCOC(=O)C=CC=C(C)CCC=C(C)CCC=C(C)C
InChI=InChI=1S/C19H30O2/c1-6-21-19(20)15-9-14-18(5)13-8-12-17(4)11-7-10-16(2)3/h9-10,12,14-15H,6-8,11,13H2,1-5H3/b15-9+,17-12+,18-14+
computed SMILES=O=C(OCC)C=CC=C(C)CCC=C(C)CCC=C(C)C
accession=JP009946
date=2016.01.19 (Created 2008.10.21, modified 2011.05.06)
author=KURARAY CO., LTD.
license=CC BY-NC-SA
exact mass=290.22458
ionization energy=70 eV
ion type=[M]+*
computed spectral entropy=2.6829898847237605
computed normalized entropy=0.619523224800161
SPLASH=splash10-014i-9400000000-355dd9f521361bb8014d
submitter=submitter = University of Tokyo Team (Faculty of Engineering, University of Tokyo)
MoNA Rating=3.75

>  <NUM PEAKS>  (1380) 
76

>  <MASS SPECTRAL PEAKS>  (1380) 
27 0.9
29 4.5
39 2
41 1.95
43 1.6
53 3.9
55 4.5
65 0.11
67 5.5
68 5.3
69 99.99
70 0.55
77 3.1
79 8.8
80 11.1
81 5.86
82 3.6
91 2.3
93 4.7
95 0.78
97 0.2
105 1.9
107 3.1
108 0.28
109 2.2
111 2
119 0.3
121 0.16
123 0.8
125 2.3
133 1.1
135 0.03
136 1.9
137 10.9
138 0.8
139 1.08
147 1.9
154 39.8
155 3.9
160 0.02
161 0.7
162 0.1
165 0.2
166 0.33
167 2.2
168 0.3
171 0.1
173 0.02
175 0.7
176 0.2
177 2
178 0.03
179 0.3
180 0.2
181 0.2
193 0.01
201 0.2
202 0.5
203 0.3
205 0.06
206 0.2
207 0.5
208 0.2
216 0.04
217 0.5
219 0.3
222 0.1
234 0.3
244 0.2
245 0.58
246 1.1
247 1.5
248 0.3
275 0.05
290 2.1
291 0.4

>  <PREDICTED SPECTRUM>  (1380) 
26 29
27 133
28 48
29 189
30 59
39 199
40 79
41 669
42 104
43 224
44 39
45 64
50 27
51 76
52 45
53 243
54 130
55 225
56 70
57 134
58 34
59 27
60 34
65 138
66 91
67 345
68 229
69 999
70 136
71 144
72 48
73 30
74 14
77 217
78 78
79 225
80 182
81 674
82 297
83 161
84 147
85 165
86 107
87 27
89 6
91 216
92 123
93 307
94 145
95 295
96 121
97 203
98 106
99 75
100 29
101 17
102 30
103 86
104 38
105 165
106 54
107 240
108 158
109 333
110 111
111 169
112 57
113 49
114 30
115 53
117 20
119 98
120 66
121 276
122 81
123 236
124 71
125 148
126 89
127 84
128 30
129 17
131 65
132 43
133 147
134 60
135 156
136 274
137 256
138 59
139 153
140 39
141 16
143 51
145 34
146 32
147 164
148 80
149 111
150 30
151 109
152 68
153 184
154 333
155 210
156 22
157 12
159 53
161 78
162 63
163 76
164 40
165 91
166 89
167 56
168 26
173 49
174 17
175 71
176 4
177 112
178 77
179 71
180 27
181 13
187 0
189 71
190 21
194 7
195 18
196 20
201 57
202 40
203 60
204 18
205 34
206 7
207 44
208 31
209 4
210 2
215 11
216 59
217 81
218 22
219 47
221 92
222 15
229 25
233 15
234 21
245 14
247 150
248 59
250 1
272 46
273 28
275 74
290 185
291 61
292 3

$$$$

     RDKit          2D

 21 21  0  0  0  0  0  0  0  0999 V2000
   -4.8712    5.0071    0.0000 C   0  0  0  0  0  0  0  0  0  0  0  0
  -12.6654    6.5071    0.0000 C   0  0  0  0  0  0  0  0  0  0  0  0
    5.5212    5.0071    0.0000 C   0  0  0  0  0  0  0  0  0  0  0  0
    5.5216    6.5079    0.0000 C   0  0  0  0  0  0  0  0  0  0  0  0
    4.2216    4.2563    0.0000 C   0  0  0  0  0  0  0  0  0  0  0  0
   -7.4692    6.5071    0.0000 C   0  0  0  0  0  0  0  0  0  0  0  0
   -6.1702    7.2571    0.0000 C   0  0  0  0  0  0  0  0  0  0  0  0
    4.2226    7.2579    0.0000 C   0  0  0  0  0  0  0  0  0  0  0  0
    2.9226    5.0063    0.0000 C   0  0  0  0  0  0  0  0  0  0  0  0
   -8.7683    7.2571    0.0000 C   0  0  0  0  0  0  0  0  0  0  0  0
   -3.5721    7.2571    0.0000 C   0  0  0  0  0  0  0  0  0  0  0  0
   -2.2731    6.5071    0.0000 C   0  0  0  0  0  0  0  0  0  0  0  0
    1.6240    7.2571    0.0000 C   0  0  0  0  0  0  0  0  0  0  0  0
   -4.8712    6.5071    0.0000 C   0  0  0  0  0  0  0  0  0  0  0  0
    2.9231    6.5071    0.0000 C   0  0  0  0  0  0  0  0  0  0  0  0
  -10.0673    6.5071    0.0000 C   0  0  0  0  0  0  0  0  0  0  0  0
   -0.9740    7.2571    0.0000 C   0  0  0  0  0  0  0  0  0  0  0  0
  -10.0673    5.0071    0.0000 O   0  0  0  0  0  0  0  0  0  0  0  0
   -0.9740    8.7571    0.0000 O   0  0  0  0  0  0  0  0  0  0  0  0
  -11.3663    7.2571    0.0000 O   0  0  0  0  0  0  0  0  0  0  0  0
    0.3250    6.5071    0.0000 O   0  0  0  0  0  0  0  0  0  0  0  0
  4  3  2  0
  5  3  1  0
  7  6  1  0
  8  4  1  0
  9  5  2  0
 10  6  1  0
 12 11  1  0
 14  1  1  0
  7 14  2  0
 14 11  1  0
 15  8  2  0
 15  9  1  0
 15 13  1  0
 16 10  1  0
 17 12  1  0
 18 16  2  0
 19 17  2  0
 20  2  1  0
 20 16  1  0
 21 13  1  0
 21 17  1  0
M  END
>  <NAME>  (1381) 
BENZYL METHYL 4-METHYL-4-OCTENEDIOATE

>  <SYNONYMS>  (1381) 


>  <SPECTRUM TYPE>  (1381) 
MS1

>  <INSTRUMENT TYPE>  (1381) 
EI-B

>  <INSTRUMENT>  (1381) 
JEOL JMS-D-300

>  <ION MODE>  (1381) 
P

>  <INCHIKEY>  (1381) 
JLDIJNJHXGCWNE-VGOFMYFVSA-N

>  <FORMULA>  (1381) 
C17H22O4

>  <EXACT MASS>  (1381) 
290.151809184

>  <MW>  (1381) 
290

>  <ID>  (1381) 
JP009944

>  <CONTRIBUTOR>  (1381) 
University of Tokyo Team, {Faculty of Engineering, University of Tokyo

>  <COMMENT>  (1381) 
SMILES=COC(=O)CCC=C(C)CCC(=O)OCc(c1)cccc1
InChI=InChI=1S/C17H22O4/c1-14(7-6-10-16(18)20-2)11-12-17(19)21-13-15-8-4-3-5-9-15/h3-5,7-9H,6,10-13H2,1-2H3/b14-7+
computed SMILES=O=C(OC)CCC=C(C)CCC(=O)OCC=1C=CC=CC1
accession=JP009944
date=2016.01.19 (Created 2008.10.21, modified 2011.05.06)
author=KURARAY CO., LTD.
license=CC BY-NC-SA
exact mass=290.15181
ionization energy=70 eV
ion type=[M]+*
computed spectral entropy=2.8699174793240596
computed normalized entropy=0.6494729577392722
SPLASH=splash10-0006-9400000000-2bf00f770440935d9bb0
submitter=submitter = University of Tokyo Team (Faculty of Engineering, University of Tokyo)
MoNA Rating=3.75

>  <NUM PEAKS>  (1381) 
83

>  <MASS SPECTRAL PEAKS>  (1381) 
27 1.6
28 0.8
29 1.6
39 0.31
40 0.5
41 5
42 0.5
43 0.73
44 0.5
45 0.5
51 0.8
53 0.23
55 4.7
59 3.3
63 0.8
65 0.66
66 0.5
67 4.4
68 3.3
69 0.05
71 1.6
77 2.8
78 0.5
79 0.66
80 1.1
81 6.6
82 2.7
83 0.05
85 0.8
87 0.5
89 1.6
90 0.16
91 99.99
92 10.5
93 15.6
94 0.17
95 3.1
97 3
99 1.9
104 0.05
105 0.8
107 3.1
108 0.8
110 0.34
111 2.3
117 0.5
120 0.5
121 3.47
122 4
123 1.7
125 4.7
126 0.05
127 0.5
139 4.2
140 0.5
143 0.2
148 0.8
149 39.8
150 4.2
151 0.33
152 0.8
153 0.8
154 0.8
156 0.11
157 1.6
167 2
176 1.1
181 0.63
199 16.4
200 1.6
212 0.4
216 0.17
217 0.5
230 1.2
231 0.4
240 0.1
241 0.9
242 0.3
244 0.2
258 0.09
259 0.4
272 0.2
273 0.4

>  <PREDICTED SPECTRUM>  (1381) 
26 37
27 137
28 71
29 151
31 92
38 14
39 146
40 43
41 223
42 133
43 260
44 83
45 98
50 34
51 92
52 68
53 103
54 120
55 306
56 38
57 75
58 6
59 121
60 28
63 64
64 2
65 249
66 77
67 169
68 133
69 186
70 39
71 133
73 43
74 73
75 19
77 124
78 82
79 143
80 102
81 150
82 145
83 163
85 52
87 35
89 74
90 55
91 999
92 328
93 158
94 34
95 86
96 64
97 88
98 55
99 79
101 52
105 100
107 233
108 132
109 54
110 77
111 120
112 10
113 7
115 19
117 42
119 42
120 13
121 141
122 77
123 176
124 122
125 166
126 73
127 62
128 52
129 10
133 3
137 37
138 47
139 221
140 92
141 184
143 40
149 230
150 69
151 19
152 21
155 80
156 73
157 125
164 39
165 2
166 72
167 170
168 13
171 110
172 67
181 88
182 66
184 30
198 52
199 351
200 87
230 39
258 4
290 26
291 13

$$$$

     RDKit          2D

 20 19  0  0  0  0  0  0  0  0999 V2000
    3.8971    6.7500    0.0000 C   0  0  0  0  0  0  0  0  0  0  0  0
   -6.4952   11.2500    0.0000 C   0  0  0  0  0  0  0  0  0  0  0  0
   -7.8776    3.4100    0.0000 C   0  0  0  0  0  0  0  0  0  0  0  0
   -1.2990    8.2500    0.0000 C   0  0  0  0  0  0  0  0  0  0  0  0
   -5.3743    7.0105    0.0000 C   0  0  0  0  0  0  0  0  0  0  0  0
    2.5981    6.0000    0.0000 C   0  0  0  0  0  0  0  0  0  0  0  0
   -5.1962   10.5000    0.0000 C   0  0  0  0  0  0  0  0  0  0  0  0
   -6.4004    3.6704    0.0000 C   0  0  0  0  0  0  0  0  0  0  0  0
   -2.5981    6.0000    0.0000 C   0  0  0  0  0  0  0  0  0  0  0  0
   -1.2990    6.7500    0.0000 C   0  0  0  0  0  0  0  0  0  0  0  0
    0.0000    6.0000    0.0000 C   0  0  0  0  0  0  0  0  0  0  0  0
   -3.8971    8.2500    0.0000 C   0  0  0  0  0  0  0  0  0  0  0  0
   -4.4101    5.3405    0.0000 C   0  0  0  0  0  0  0  0  0  0  0  0
   -3.8971    6.7500    0.0000 C   0  0  0  0  0  0  0  0  0  0  0  0
    0.0000    4.5000    0.0000 O   0  0  0  0  0  0  0  0  0  0  0  0
   -2.5981    9.0000    0.0000 O   0  0  0  0  0  0  0  0  0  0  0  0
   -3.4460    4.1914    0.0000 O   0  0  0  0  0  0  0  0  0  0  0  0
    1.2990    6.7500    0.0000 O   0  0  0  0  0  0  0  0  0  0  0  0
   -5.1962    9.0000    0.0000 O   0  0  0  0  0  0  0  0  0  0  0  0
   -5.8874    5.0800    0.0000 O   0  0  0  0  0  0  0  0  0  0  0  0
  6  1  1  0
  7  2  1  0
  8  3  1  0
 10  4  1  0
 10  9  1  0
 11 10  1  0
 14  5  1  0
 14  9  1  0
 14 12  1  0
 14 13  1  0
 15 11  2  0
 16 12  2  0
 17 13  2  0
 18  6  1  0
 18 11  1  0
 19  7  1  0
 19 12  1  0
 20  8  1  0
 20 13  1  0
M  END
>  <NAME>  (1382) 
2,2,4-TRIETHOXYCARBONYLPENTANE

>  <SYNONYMS>  (1382) 


>  <SPECTRUM TYPE>  (1382) 
MS1

>  <INSTRUMENT TYPE>  (1382) 
EI-B

>  <INSTRUMENT>  (1382) 
JEOL JMS-D-300

>  <ION MODE>  (1382) 
P

>  <INCHIKEY>  (1382) 
QCTIOLMTJPOZIA-UHFFFAOYSA-N

>  <FORMULA>  (1382) 
C14H24O6

>  <EXACT MASS>  (1382) 
288.157288488

>  <MW>  (1382) 
288

>  <ID>  (1382) 
JP009943

>  <CONTRIBUTOR>  (1382) 
University of Tokyo Team, {Faculty of Engineering, University of Tokyo

>  <COMMENT>  (1382) 
SMILES=CCOC(=O)C(C)CC(C)(C(=O)OCC)C(=O)OCC
InChI=InChI=1S/C14H24O6/c1-6-18-11(15)10(4)9-14(5,12(16)19-7-2)13(17)20-8-3/h10H,6-9H2,1-5H3
computed SMILES=O=C(OCC)C(C)CC(C(=O)OCC)(C(=O)OCC)C
accession=JP009943
date=2016.01.19 (Created 2008.10.21, modified 2011.05.06)
author=KURARAY CO., LTD.
license=CC BY-NC-SA
exact mass=288.15729
ionization energy=70 eV
ion type=[M]+*
computed spectral entropy=3.392586268485515
computed normalized entropy=0.7698666690853235
SPLASH=splash10-006x-3920000000-34cf37cea8062efb0ef2
submitter=submitter = University of Tokyo Team (Faculty of Engineering, University of Tokyo)
MoNA Rating=3.75

>  <NUM PEAKS>  (1382) 
82

>  <MASS SPECTRAL PEAKS>  (1382) 
27 5.8
29 20.6
31 1.3
39 0.2
40 0.8
41 18.3
42 1.6
43 1.53
44 1.6
45 7
53 1.6
54 0.11
55 5.9
56 14.1
57 6.3
58 0.05
59 3
65 0.5
67 7.8
68 0.17
69 27.7
70 2.7
71 1.6
72 0.31
73 4.4
74 10.9
75 1.6
82 0.16
83 3.3
84 1.6
85 4.7
86 0.16
87 18.8
88 1.6
95 10.9
96 0.3
97 4
99 2
100 17.2
101 0.34
102 18.3
103 3.1
110 1.7
111 0.31
112 2.5
113 73.8
114 10.9
115 2.11
116 2.7
123 6.6
127 2.5
128 5
129 6.9
130 7.9
139 1.3
140 0.39
141 53.1
142 35.9
143 16.4
146 0.16
154 1.6
157 1.6
159 3.3
160 0.22
167 1.6
168 3.6
169 30
170 1.36
171 3.9
173 2.2
174 99.99
181 0.05
185 7.8
187 13.6
196 0.9
200 0.16
201 0.9
213 1.9
214 10.8
215 3.42
229 1.6
243 80.5

>  <PREDICTED SPECTRUM>  (1382) 
14 8
15 58
16 8
17 8
18 19
25 21
26 137
27 394
28 199
29 481
30 120
31 145
32 32
39 171
40 119
41 401
42 291
43 229
44 163
45 258
46 13
51 1
53 101
54 126
55 399
56 196
57 178
58 47
59 235
60 71
61 62
64 5
67 188
68 184
69 467
70 271
71 164
72 161
73 333
74 284
75 86
76 4
77 65
81 109
82 47
83 137
84 113
85 215
86 222
87 381
88 39
95 169
96 194
97 467
98 228
99 197
100 305
101 189
102 453
103 97
104 10
105 12
106 25
107 78
109 89
111 63
112 143
113 521
114 428
115 435
116 186
117 78
118 14
120 2
123 119
125 64
127 64
128 390
129 387
130 217
131 13
132 56
139 146
140 233
141 836
142 564
143 442
144 116
145 42
146 11
148 17
154 49
155 180
158 1
159 238
160 46
168 68
169 660
170 311
171 248
172 82
173 168
174 999
183 41
185 191
186 141
187 446
188 146
200 17
213 35
214 247
215 435
216 183
217 9
227 8
242 101
243 757
244 198
258 26
261 70
288 50
289 25

$$$$

     RDKit          2D

 20 19  0  0  0  0  0  0  0  0999 V2000
    4.5466    7.1250    0.0000 C   0  0  0  0  0  0  0  0  0  0  0  0
    3.2476    9.3750    0.0000 C   0  0  0  0  0  0  0  0  0  0  0  0
   -1.9486    9.3750    0.0000 C   0  0  0  0  0  0  0  0  0  0  0  0
   -6.1805    9.0241    0.0000 C   0  0  0  0  0  0  0  0  0  0  0  0
  -12.3409    7.8750    0.0000 C   0  0  0  0  0  0  0  0  0  0  0  0
  -11.0418    5.6250    0.0000 C   0  0  0  0  0  0  0  0  0  0  0  0
    0.6495    7.8750    0.0000 C   0  0  0  0  0  0  0  0  0  0  0  0
   -4.5466    7.8750    0.0000 C   0  0  0  0  0  0  0  0  0  0  0  0
    1.9486    7.1250    0.0000 C   0  0  0  0  0  0  0  0  0  0  0  0
   -0.6495    7.1250    0.0000 C   0  0  0  0  0  0  0  0  0  0  0  0
   -3.2476    7.1250    0.0000 C   0  0  0  0  0  0  0  0  0  0  0  0
   -5.8457    7.1250    0.0000 C   0  0  0  0  0  0  0  0  0  0  0  0
   -9.7428    7.8750    0.0000 C   0  0  0  0  0  0  0  0  0  0  0  0
    3.2476    7.8750    0.0000 C   0  0  0  0  0  0  0  0  0  0  0  0
   -1.9486    7.8750    0.0000 C   0  0  0  0  0  0  0  0  0  0  0  0
   -8.4437    7.1250    0.0000 C   0  0  0  0  0  0  0  0  0  0  0  0
   -7.1447    7.8750    0.0000 C   0  0  0  0  0  0  0  0  0  0  0  0
  -11.0418    7.1250    0.0000 N   0  0  0  0  0  0  0  0  0  0  0  0
   -8.4437    5.6250    0.0000 O   0  0  0  0  0  0  0  0  0  0  0  0
   -8.1089    9.0241    0.0000 O   0  0  0  0  0  0  0  0  0  0  0  0
  9  7  1  0
 10  7  1  0
 11  8  1  0
 12  8  1  0
 14  1  1  0
 14  2  1  0
 14  9  1  0
 15  3  1  0
 15 10  1  0
 15 11  1  0
 16 13  1  0
 17  4  1  0
 17 12  1  0
 17 16  1  0
 18  5  1  0
 18  6  1  0
 18 13  1  0
 19 16  1  0
 20 17  1  0
M  END
>  <NAME>  (1383) 
1-(N,N-DIMETHYLAMINO)-3,7,11-TRIMETHYL-2,3-DODECANEDIOL

>  <SYNONYMS>  (1383) 


>  <SPECTRUM TYPE>  (1383) 
MS1

>  <INSTRUMENT TYPE>  (1383) 
EI-B

>  <INSTRUMENT>  (1383) 
JEOL JMS-D-300

>  <ION MODE>  (1383) 
P

>  <INCHIKEY>  (1383) 
AYIZETHHCXDLGF-UHFFFAOYSA-N

>  <FORMULA>  (1383) 
C17H37NO2

>  <EXACT MASS>  (1383) 
287.282429424

>  <MW>  (1383) 
287

>  <ID>  (1383) 
JP009942

>  <CONTRIBUTOR>  (1383) 
University of Tokyo Team, {Faculty of Engineering, University of Tokyo

>  <COMMENT>  (1383) 
SMILES=CC(C)CCCC(C)CCCC(C)(O)C(O)CN(C)C
InChI=InChI=1S/C17H37NO2/c1-14(2)9-7-10-15(3)11-8-12-17(4,20)16(19)13-18(5)6/h14-16,19-20H,7-13H2,1-6H3
computed SMILES=OC(CN(C)C)C(O)(C)CCCC(C)CCCC(C)C
accession=JP009942
date=2016.01.19 (Created 2008.10.21, modified 2011.05.06)
author=KURARAY CO., LTD.
license=CC BY-NC-SA
exact mass=287.28243
ionization energy=70 eV
ion type=[M]+*
computed spectral entropy=2.1717202392413637
computed normalized entropy=0.5469925855649187
SPLASH=splash10-0a4i-9000000000-655e8d10cff7c86bbb98
submitter=submitter = University of Tokyo Team (Faculty of Engineering, University of Tokyo)
MoNA Rating=3.75

>  <NUM PEAKS>  (1383) 
53

>  <MASS SPECTRAL PEAKS>  (1383) 
28 18
32 4.7
41 3.6
43 0.67
44 2.8
45 6.6
46 0.8
55 0.47
57 5.3
58 99.99
59 4.4
67 0.05
69 4.1
71 3.1
81 1.6
83 0.3
85 1.6
88 15.9
89 1.6
91 0.05
95 1.6
97 2
100 1.6
109 0.16
111 1.6
121 0.5
122 0.5
123 0.11
124 0.5
125 0.8
126 0.5
127 0.05
131 0.6
132 2.3
133 0.5
134 0.05
139 0.5
144 0.5
145 0.5
146 0.05
147 0.5
149 0.5
150 0.5
151 0.05
152 0.5
153 0.5
155 0.5
159 0.05
160 0.5
270 0.3
272 0.7
286 0.02
287 0.3

>  <PREDICTED SPECTRUM>  (1383) 
27 56
28 11
29 79
30 43
31 43
41 163
42 157
43 283
44 187
45 182
46 18
55 160
56 124
57 224
58 999
59 316
60 82
67 57
69 148
70 93
71 143
73 43
74 18
81 36
83 103
84 59
88 126
89 9
90 15
95 7
97 56
272 52

$$$$

     RDKit          2D

 20 19  0  0  0  0  0  0  0  0999 V2000
    5.1962    8.2500    0.0000 C   0  0  0  0  0  0  0  0  0  0  0  0
    3.8971   10.5000    0.0000 C   0  0  0  0  0  0  0  0  0  0  0  0
  -12.9904    6.7500    0.0000 C   0  0  0  0  0  0  0  0  0  0  0  0
  -14.2894    9.0000    0.0000 C   0  0  0  0  0  0  0  0  0  0  0  0
   -3.8971    9.0000    0.0000 C   0  0  0  0  0  0  0  0  0  0  0  0
   -5.1962    8.2500    0.0000 C   0  0  0  0  0  0  0  0  0  0  0  0
   -1.2990    9.0000    0.0000 C   0  0  0  0  0  0  0  0  0  0  0  0
   -7.7942    8.2500    0.0000 C   0  0  0  0  0  0  0  0  0  0  0  0
    0.0000    8.2500    0.0000 C   0  0  0  0  0  0  0  0  0  0  0  0
   -9.0933    9.0000    0.0000 C   0  0  0  0  0  0  0  0  0  0  0  0
    3.8971    9.0000    0.0000 C   0  0  0  0  0  0  0  0  0  0  0  0
  -12.9904    8.2500    0.0000 C   0  0  0  0  0  0  0  0  0  0  0  0
    2.5981    8.2500    0.0000 C   0  0  0  0  0  0  0  0  0  0  0  0
  -11.6913    9.0000    0.0000 C   0  0  0  0  0  0  0  0  0  0  0  0
    2.5981    6.7500    0.0000 O   0  0  0  0  0  0  0  0  0  0  0  0
  -11.6913   10.5000    0.0000 O   0  0  0  0  0  0  0  0  0  0  0  0
   -2.5981    8.2500    0.0000 O   0  0  0  0  0  0  0  0  0  0  0  0
   -6.4952    9.0000    0.0000 O   0  0  0  0  0  0  0  0  0  0  0  0
    1.2990    9.0000    0.0000 O   0  0  0  0  0  0  0  0  0  0  0  0
  -10.3923    8.2500    0.0000 O   0  0  0  0  0  0  0  0  0  0  0  0
  6  5  1  0
  9  7  1  0
 10  8  1  0
 11  1  2  0
 11  2  1  0
 12  3  2  0
 12  4  1  0
 13 11  1  0
 14 12  1  0
 15 13  2  0
 16 14  2  0
 17  5  1  0
 17  7  1  0
 18  6  1  0
 18  8  1  0
 19  9  1  0
 19 13  1  0
 20 10  1  0
 20 14  1  0
M  END
>  <NAME>  (1384) 
TRIETHYLENEGLYCOL DIMETHACRYLATE

>  <SYNONYMS>  (1384) 


>  <SPECTRUM TYPE>  (1384) 
MS1

>  <INSTRUMENT TYPE>  (1384) 
EI-B

>  <INSTRUMENT>  (1384) 
JEOL JMS-D-300

>  <ION MODE>  (1384) 
P

>  <INCHIKEY>  (1384) 
HWSSEYVMGDIFMH-UHFFFAOYSA-N

>  <FORMULA>  (1384) 
C14H22O6

>  <EXACT MASS>  (1384) 
286.14163842399995

>  <MW>  (1384) 
286

>  <ID>  (1384) 
JP009941

>  <CONTRIBUTOR>  (1384) 
University of Tokyo Team, {Faculty of Engineering, University of Tokyo

>  <COMMENT>  (1384) 
SMILES=CC(=C)C(=O)OCCOCCOCCOC(=O)C(C)=C
InChI=InChI=1S/C14H22O6/c1-11(2)13(15)19-9-7-17-5-6-18-8-10-20-14(16)12(3)4/h1,3,5-10H2,2,4H3
computed SMILES=O=C(OCCOCCOCCOC(=O)C(=C)C)C(=C)C
accession=JP009941
date=2016.01.19 (Created 2008.10.21, modified 2011.05.06)
author=KURARAY CO., LTD.
license=CC BY-NC-SA
exact mass=286.14164
ionization energy=70 eV
ion type=[M]+*
computed spectral entropy=1.9300972160155283
computed normalized entropy=0.644282278845217
SPLASH=splash10-03di-7900000000-39b663b79c155bac9892
submitter=submitter = University of Tokyo Team (Faculty of Engineering, University of Tokyo)
MoNA Rating=3.75

>  <NUM PEAKS>  (1384) 
20

>  <MASS SPECTRAL PEAKS>  (1384) 
39 2.3
40 1.6
41 17.8
43 0.3
45 4.5
68 1.6
69 62.3
70 0.47
73 1.6
84 2.3
86 12
87 0.17
89 1.6
100 3.1
112 18.9
113 99.99
114 10
143 5.2
172 1.9
200 5.8

>  <PREDICTED SPECTRUM>  (1384) 
19 24
26 46
27 102
28 99
29 144
30 79
31 67
33 7
36 3
37 7
38 57
39 278
40 142
41 575
42 211
43 99
44 97
45 176
46 4
53 73
54 32
55 44
56 29
57 127
58 110
59 114
60 10
67 41
68 182
69 999
70 313
71 129
72 96
73 126
74 98
81 11
84 37
85 90
86 263
87 186
88 97
89 30
95 10
97 39
99 82
100 64
101 86
102 8
103 3
112 345
113 899
114 364
115 82
129 31
130 46
131 48
133 49
136 31
141 141
143 30
155 8
156 200
158 54
159 48
186 39
200 19
201 0

$$$$

     RDKit          2D

 21 22  0  0  0  0  0  0  0  0999 V2000
   -5.1970   -1.5006    0.0000 C   0  0  0  0  0  0  0  0  0  0  0  0
   10.3936   -1.4985    0.0000 C   0  0  0  0  0  0  0  0  0  0  0  0
   -1.3000    0.7500    0.0000 C   0  0  0  0  0  0  0  0  0  0  0  0
   -0.0000   -1.5000    0.0000 C   0  0  0  0  0  0  0  0  0  0  0  0
    0.0000    1.5000    0.0000 C   0  0  0  0  0  0  0  0  0  0  0  0
    1.3000   -0.7500    0.0000 C   0  0  0  0  0  0  0  0  0  0  0  0
    6.4966    0.7517    0.0000 C   0  0  0  0  0  0  0  0  0  0  0  0
    5.1970   -1.5002    0.0000 C   0  0  0  0  0  0  0  0  0  0  0  0
    5.1975    1.5015    0.0000 C   0  0  0  0  0  0  0  0  0  0  0  0
    3.8978   -0.7504    0.0000 C   0  0  0  0  0  0  0  0  0  0  0  0
   -3.8981   -0.7504    0.0000 C   0  0  0  0  0  0  0  0  0  0  0  0
    9.0945   -0.7488    0.0000 C   0  0  0  0  0  0  0  0  0  0  0  0
   -1.3000   -0.7500    0.0000 C   0  0  0  0  0  0  0  0  0  0  0  0
    6.4964   -0.7492    0.0000 C   0  0  0  0  0  0  0  0  0  0  0  0
    1.3000    0.7500    0.0000 C   0  0  0  0  0  0  0  0  0  0  0  0
    3.8981    0.7504    0.0000 C   0  0  0  0  0  0  0  0  0  0  0  0
   -2.5989   -1.5002    0.0000 N   0  0  0  0  0  0  0  0  0  0  0  0
   -3.8983    0.7496    0.0000 O   0  0  0  0  0  0  0  0  0  0  0  0
    9.0942    0.7512    0.0000 O   0  0  0  0  0  0  0  0  0  0  0  0
    7.7956   -1.4990    0.0000 O   0  0  0  0  0  0  0  0  0  0  0  0
    2.5989    1.5002    0.0000 O   0  0  0  0  0  0  0  0  0  0  0  0
  5  3  2  0
  6  4  1  0
  9  7  2  0
 10  8  1  0
 11  1  1  0
 12  2  1  0
 13  3  1  0
 13  4  2  0
 14  7  1  0
 14  8  2  0
 15  5  1  0
 15  6  2  0
 16  9  1  0
 16 10  2  0
 17 11  2  3
 17 13  1  0
 18 11  1  0
 19 12  2  0
 20 12  1  0
 20 14  1  0
 21 15  1  0
 21 16  1  0
M  END
>  <NAME>  (1385) 
1-ACETOXY-4-(4'-(N-ACETYLAMINO)PHENOXY)BENZENE

>  <SYNONYMS>  (1385) 


>  <SPECTRUM TYPE>  (1385) 
MS1

>  <INSTRUMENT TYPE>  (1385) 
EI-B

>  <INSTRUMENT>  (1385) 
JEOL JMS-D-300

>  <ION MODE>  (1385) 
P

>  <INCHIKEY>  (1385) 
HIZBNPMDDFRWMP-UHFFFAOYSA-N

>  <FORMULA>  (1385) 
C16H15NO4

>  <EXACT MASS>  (1385) 
285.10010796

>  <MW>  (1385) 
285

>  <ID>  (1385) 
JP009940

>  <CONTRIBUTOR>  (1385) 
University of Tokyo Team, {Faculty of Engineering, University of Tokyo

>  <COMMENT>  (1385) 
SMILES=CC(=O)Nc(c2)ccc(c2)Oc(c1)ccc(OC(C)=O)c1
InChI=InChI=1S/C16H15NO4/c1-11(18)17-13-3-5-15(6-4-13)21-16-9-7-14(8-10-16)20-12(2)19/h3-10H,1-2H3,(H,17,18)
computed SMILES=O=C(OC1=CC=C(OC2=CC=C(N=C(O)C)C=C2)C=C1)C
accession=JP009940
date=2016.01.19 (Created 2008.10.21, modified 2011.05.06)
author=KURARAY CO., LTD.
license=CC BY-NC-SA
exact mass=285.10011
ionization energy=70 eV
ion type=[M]+*
computed spectral entropy=2.5500651289512573
computed normalized entropy=0.6335012006082725
SPLASH=splash10-0udi-4090000000-5097b559b752d911210d
submitter=submitter = University of Tokyo Team (Faculty of Engineering, University of Tokyo)
MoNA Rating=3.75

>  <NUM PEAKS>  (1385) 
56

>  <MASS SPECTRAL PEAKS>  (1385) 
27 0.9
28 5.4
38 0.8
39 0.36
41 1
42 1.3
43 29.1
44 5.09
45 0.6
50 1
51 1
52 0.12
53 1.7
54 0.6
55 0.6
58 0.05
62 0.5
63 3.6
64 3.9
65 1.25
66 1.7
76 1
77 0.6
79 0.06
80 2.1
81 1.2
90 1.4
91 0.19
92 6
93 2.7
94 1
108 1.52
109 3
110 0.8
115 0.8
117 0.12
127 1.2
128 0.6
134 1.3
144 0.13
145 0.6
148 0.6
172 2.7
173 0.1
199 0.8
200 4
201 99.99
202 1.41
203 1.9
227 1.2
242 1.8
243 6.3
244 10.1
245 1.3
285 22.3
286 3.9

>  <PREDICTED SPECTRUM>  (1385) 
14 4
15 25
38 55
39 132
40 24
41 99
42 131
43 577
44 137
45 61
49 6
50 105
51 177
52 156
53 162
54 51
55 52
56 16
57 72
60 12
61 0
62 64
63 218
64 167
65 283
66 86
68 19
69 93
70 35
74 55
75 113
76 125
77 115
78 119
79 73
80 67
81 20
82 17
83 19
88 5
89 48
90 36
91 83
92 172
93 107
94 64
95 8
99 7
101 23
102 54
104 14
105 52
106 77
107 89
108 137
113 38
114 52
115 122
116 132
117 27
118 32
119 24
120 18
126 38
127 97
128 280
129 96
130 87
131 36
134 86
135 23
136 44
138 2
139 36
140 122
141 85
142 74
143 43
144 17
145 9
146 71
147 11
154 68
155 89
156 74
157 8
167 29
168 69
169 68
170 84
171 105
172 150
173 97
181 93
182 278
183 152
184 165
185 1
196 21
197 68
198 101
199 138
200 238
201 270
202 94
224 9
225 60
226 203
227 136
228 244
242 202
243 999
244 463
245 237
269 11
285 727
286 316
287 169
288 13

$$$$

     RDKit          2D

 21 24  0  0  1  0  0  0  0  0999 V2000
   -1.6300    0.9100    0.0000 C   0  0  0  0  0  0  0  0  0  0  0  0
    2.4272    3.1517    0.0000 C   0  0  0  0  0  0  0  0  0  0  0  0
   -0.3300   -2.8400    0.0000 C   0  0  0  0  0  0  0  0  0  0  0  0
    0.9700   -2.0900    0.0000 C   0  0  0  0  0  0  0  0  0  0  0  0
    3.6900   -0.3000    0.0000 C   0  0  0  0  0  0  0  0  0  0  0  0
    4.5700    0.9100    0.0000 C   0  0  0  0  0  0  0  0  0  0  0  0
   -4.2300   -0.5900    0.0000 C   0  0  0  0  0  0  0  0  0  0  0  0
   -0.3300    1.6600    0.0000 C   0  0  0  0  0  0  0  0  0  0  0  0
   -2.9300    0.1600    0.0000 C   0  0  0  0  0  0  0  0  0  0  0  0
    0.9700    2.4100    0.0000 C   0  0  0  0  0  0  0  0  0  0  0  0
   -2.9300   -2.8400    0.0000 C   0  0  0  0  0  0  0  0  0  0  0  0
   -1.6300   -2.0900    0.0000 C   0  0  0  0  0  0  0  0  0  0  0  0
   -4.2300   -2.0900    0.0000 C   0  0  0  0  0  0  0  0  0  0  0  0
    0.9700   -0.5900    0.0000 C   0  0  0  0  0  0  0  0  0  0  0  0
    2.2700    0.1600    0.0000 C   0  0  0  0  0  0  0  0  0  0  0  0
   -0.3300    0.1600    0.0000 C   0  0  0  0  0  0  0  0  0  0  0  0
    3.6900    2.1200    0.0000 C   0  0  0  0  0  0  0  0  0  0  0  0
   -1.6300   -0.5900    0.0000 C   0  0  0  0  0  0  0  0  0  0  0  0
    2.2700    1.6600    0.0000 C   0  0  0  0  0  0  0  0  0  0  0  0
   -5.5289   -2.8402    0.0000 O   0  0  0  0  0  0  0  0  0  0  0  0
    4.1538    3.5465    0.0000 O   0  0  0  0  0  0  0  0  0  0  0  0
  4  3  2  0
  6  5  1  0
  9  7  1  0
 10  8  1  0
 12  3  1  0
 12 11  2  0
 13  7  1  0
 13 11  1  0
 14  4  1  6
 15  5  1  1
 15 14  1  0
 16  8  1  1
 16 14  1  0
 17  6  1  0
 18  1  1  1
 18  9  1  0
 18 12  1  0
 18 16  1  0
 19  2  1  1
 19 10  1  0
 19 15  1  0
 19 17  1  0
 20 13  2  0
 21 17  2  0
M  END
>  <NAME>  (1386) 
ANDROSTA-4,6-DIENE-3,17-DIONE

>  <SYNONYMS>  (1386) 


>  <SPECTRUM TYPE>  (1386) 
MS1

>  <INSTRUMENT TYPE>  (1386) 
EI-B

>  <INSTRUMENT>  (1386) 
JEOL JMS-D-300

>  <ION MODE>  (1386) 
P

>  <INCHIKEY>  (1386) 
YEWSFUFGMDJFFG-QAGGRKNESA-N

>  <FORMULA>  (1386) 
C19H24O2

>  <EXACT MASS>  (1386) 
284.177630008

>  <MW>  (1386) 
284

>  <ID>  (1386) 
JP009939

>  <CONTRIBUTOR>  (1386) 
University of Tokyo Team, {Faculty of Engineering, University of Tokyo

>  <COMMENT>  (1386) 
SMILES=O=C(C4)C=C(C=3)C(C)(C4)C([H])(C2)C([H])(C3)C([H])(C1)C(C)(C2)C(=O)C1
InChI=InChI=1S/C19H24O2/c1-18-9-7-13(20)11-12(18)3-4-14-15-5-6-17(21)19(15,2)10-8-16(14)18/h3-4,11,14-16H,5-10H2,1-2H3/t14-,15-,16-,18-,19-/m0/s1
computed SMILES=O=C1C=C2C=CC3C4CCC(=O)C4(C)CCC3C2(C)CC1
accession=JP009939
date=2016.01.19 (Created 2008.10.21, modified 2011.05.06)
author=KURARAY CO., LTD.
license=CC BY-NC-SA
exact mass=284.17763
ionization energy=70 eV
ion type=[M]+*
computed spectral entropy=4.161318792133076
computed normalized entropy=0.8457997815169676
SPLASH=splash10-000i-2940000000-8e4e9967462b026af63e
submitter=submitter = University of Tokyo Team (Faculty of Engineering, University of Tokyo)
MoNA Rating=3.75

>  <NUM PEAKS>  (1386) 
137

>  <MASS SPECTRAL PEAKS>  (1386) 
27 2.9
28 0.9
29 3.9
39 0.43
41 10.9
53 5.4
55 11.5
65 0.43
67 9.3
69 1.9
77 9
78 0.39
79 12.9
80 2.2
81 8.5
82 0.19
83 3.6
85 2.3
91 17.4
92 0.39
93 9.8
94 3.1
95 7.6
96 0.31
97 9.8
98 2.3
103 3.1
104 0.23
105 18.6
106 6.2
107 31
108 0.62
109 7.8
110 4.2
111 2.2
115 0.74
116 3.1
117 8.7
118 4.2
119 0.82
120 3.3
121 11.5
122 7.1
123 0.62
124 12.9
125 2
127 2
128 0.64
129 7.8
130 2.8
131 12.6
132 0.62
133 7.8
134 5.9
135 4.7
136 99.99
137 13.6
141 3.9
142 3.1
143 0.7
144 4.7
145 8.4
146 4.7
147 0.76
148 12.1
149 38.8
150 8.2
151 0.22
153 2.2
155 4.7
156 2
157 0.7
158 4.2
159 6.7
160 6.2
161 0.7
162 7.8
163 3.6
167 1.1
169 0.34
170 2.6
171 7.9
172 4.5
173 0.5
174 3.4
175 2.8
181 2.2
182 0.16
183 4.7
184 3.9
185 7
186 0.36
187 3.1
188 3.1
195 3.1
196 0.17
197 3.3
198 3.3
199 6.4
200 0.31
201 3.9
207 1.9
209 4.7
210 0.19
211 3.1
212 2.8
213 5.7
214 0.26
215 2.2
222 2
223 2.6
224 0.19
225 1.9
226 1.6
227 11.6
228 0.45
229 2.8
233 1.7
240 25
241 0.91
242 6
243 1.7
244 8.7
245 0.17
251 6.8
255 1.4
256 4.2
257 0.14
266 9
267 2.8
269 8.1
270 0.19
284 65.1
285 16.3
286 14.4
287 0.29
288 2.6

>  <PREDICTED SPECTRUM>  (1386) 
19 1
26 4
27 51
28 36
29 92
39 130
40 78
41 580
42 213
43 345
44 146
45 120
46 0
49 47
50 78
51 226
52 189
53 418
54 184
55 607
56 179
57 331
58 89
59 15
60 9
63 121
64 109
65 353
66 213
67 544
68 178
69 464
70 138
71 171
73 58
74 32
75 50
76 53
77 490
78 297
79 552
80 247
81 491
82 165
83 276
84 150
85 136
86 53
87 29
89 83
90 17
91 709
92 272
93 452
94 216
95 361
96 138
97 390
98 131
99 146
101 15
102 99
103 257
104 226
105 454
106 210
107 454
108 269
109 356
110 252
111 169
112 68
113 34
115 423
116 258
117 424
118 299
119 400
120 226
121 347
122 272
123 317
124 230
125 120
126 121
127 190
128 417
129 489
130 214
131 443
132 236
133 421
134 333
135 360
136 580
137 256
138 78
139 140
140 18
141 344
142 249
143 373
144 249
145 351
146 168
147 185
148 197
149 314
150 262
151 176
152 173
153 201
154 255
155 311
156 278
157 393
158 317
159 349
160 368
161 339
162 180
163 172
164 15
165 145
166 116
167 231
168 106
169 285
170 125
171 335
172 358
173 237
174 294
175 215
176 147
177 37
178 160
179 236
180 85
181 166
182 109
183 325
184 216
185 313
186 232
187 182
188 85
189 23
190 7
192 8
193 134
194 140
195 208
196 113
197 232
198 199
199 293
200 189
201 23
202 50
207 119
208 58
209 194
210 114
211 203
212 138
213 230
214 201
215 76
221 19
222 16
223 97
224 158
225 241
226 214
227 345
228 332
229 114
237 54
238 63
239 55
240 447
241 230
242 242
243 81
250 25
251 176
252 61
253 59
254 27
255 156
256 225
257 108
265 58
266 88
267 231
268 0
269 238
270 77
282 76
283 75
284 999
285 462
286 146

$$$$

     RDKit          2D

 20 19  0  0  0  0  0  0  0  0999 V2000
    4.8714    8.8125    0.0000 C   0  0  0  0  0  0  0  0  0  0  0  0
  -14.6142    9.5625    0.0000 C   0  0  0  0  0  0  0  0  0  0  0  0
  -13.3151    7.3125    0.0000 C   0  0  0  0  0  0  0  0  0  0  0  0
    2.2733    7.3125    0.0000 C   0  0  0  0  0  0  0  0  0  0  0  0
   -8.1190    7.3125    0.0000 C   0  0  0  0  0  0  0  0  0  0  0  0
   -2.9228    7.3125    0.0000 C   0  0  0  0  0  0  0  0  0  0  0  0
    3.5724    9.5625    0.0000 C   0  0  0  0  0  0  0  0  0  0  0  0
  -10.7171    8.8125    0.0000 C   0  0  0  0  0  0  0  0  0  0  0  0
   -0.3248    8.8125    0.0000 C   0  0  0  0  0  0  0  0  0  0  0  0
   -5.5209    8.8125    0.0000 C   0  0  0  0  0  0  0  0  0  0  0  0
  -12.0161    9.5625    0.0000 C   0  0  0  0  0  0  0  0  0  0  0  0
    0.9743    9.5625    0.0000 C   0  0  0  0  0  0  0  0  0  0  0  0
   -9.4180    9.5625    0.0000 C   0  0  0  0  0  0  0  0  0  0  0  0
   -1.6238    9.5625    0.0000 C   0  0  0  0  0  0  0  0  0  0  0  0
   -6.8200    9.5625    0.0000 C   0  0  0  0  0  0  0  0  0  0  0  0
   -4.2219    9.5625    0.0000 C   0  0  0  0  0  0  0  0  0  0  0  0
  -13.3151    8.8125    0.0000 C   0  0  0  0  0  0  0  0  0  0  0  0
    2.2733    8.8125    0.0000 C   0  0  0  0  0  0  0  0  0  0  0  0
   -8.1190    8.8125    0.0000 C   0  0  0  0  0  0  0  0  0  0  0  0
   -2.9228    8.8125    0.0000 C   0  0  0  0  0  0  0  0  0  0  0  0
  7  1  2  0
 11  8  1  0
 12  9  1  0
 13  8  1  0
 14  9  1  0
 15 10  1  0
 16 10  1  0
 17  2  1  0
 17  3  1  0
 17 11  1  0
 18  4  2  0
 18  7  1  0
 18 12  1  0
 19  5  1  0
 19 13  1  0
 19 15  1  0
 20  6  1  0
 20 14  1  0
 20 16  1  0
M  END
>  <NAME>  (1387) 
3-METHYLENE-7,11,15-TRIMETHYL-1-HEXADECENE

>  <SYNONYMS>  (1387) 


>  <SPECTRUM TYPE>  (1387) 
MS1

>  <INSTRUMENT TYPE>  (1387) 
EI-B

>  <INSTRUMENT>  (1387) 
JEOL JMS-D-300

>  <ION MODE>  (1387) 
P

>  <INCHIKEY>  (1387) 
NIDGCIPAMWNKOA-UHFFFAOYSA-N

>  <FORMULA>  (1387) 
C20H38

>  <EXACT MASS>  (1387) 
278.297351216

>  <MW>  (1387) 
278

>  <ID>  (1387) 
JP009938

>  <CONTRIBUTOR>  (1387) 
University of Tokyo Team, {Faculty of Engineering, University of Tokyo

>  <COMMENT>  (1387) 
SMILES=C=CC(=C)CCCC(C)CCCC(C)CCCC(C)C
InChI=InChI=1S/C20H38/c1-7-18(4)12-9-14-20(6)16-10-15-19(5)13-8-11-17(2)3/h7,17,19-20H,1,4,8-16H2,2-3,5-6H3
computed SMILES=C=CC(=C)CCCC(C)CCCC(C)CCCC(C)C
accession=JP009938
date=2016.01.19 (Created 2008.10.21, modified 2011.05.06)
author=KURARAY CO., LTD.
license=CC BY-NC-SA
exact mass=278.29735
ionization energy=70 eV
ion type=[M]+*
computed spectral entropy=3.2607189577395594
computed normalized entropy=0.7701079210452485
SPLASH=splash10-067j-9100000000-01cb6473810e7e6605d7
submitter=submitter = University of Tokyo Team (Faculty of Engineering, University of Tokyo)
MoNA Rating=3.75

>  <NUM PEAKS>  (1387) 
69

>  <MASS SPECTRAL PEAKS>  (1387) 
27 4.9
28 0.9
29 11.9
39 0.43
40 0.7
41 37.4
42 5.1
43 5.44
44 1.9
53 7.3
54 1.7
55 4.9
56 16.5
57 69.7
58 2.7
65 0.17
66 1
67 28.7
68 99.99
69 5.87
70 13.4
71 38.1
72 1.7
77 0.17
79 7
80 2.7
81 40.5
82 7.99
83 49.7
84 5.6
85 13.8
91 0.05
93 2
94 8.2
95 72.4
96 2.72
97 35.4
98 3.2
99 1.9
107 0.05
108 0.5
109 22.1
110 10.7
111 2.01
112 2.6
113 1.2
122 0.5
123 4.85
124 23.3
125 8.8
126 3.2
127 0.15
137 10.2
138 5.1
139 1.9
140 0.07
151 2
152 1.9
153 1
165 0.07
179 3.1
193 2
194 1.2
205 0.27
208 2.2
249 1.4
263 1.4
278 0.54
279 0.9

>  <PREDICTED SPECTRUM>  (1387) 
27 104
28 12
29 249
36 18
39 246
40 72
41 727
42 239
43 716
44 68
50 19
51 75
52 62
53 318
54 353
55 867
56 570
57 999
58 155
63 11
65 123
66 160
67 666
68 528
69 859
70 486
71 724
72 171
77 188
78 100
79 470
80 260
81 925
82 749
83 677
84 231
85 192
91 149
92 49
93 126
94 164
95 770
96 591
97 537
98 140
107 98
108 28
109 611
110 374
111 294
112 143
113 52
119 1
121 49
123 532
124 331
125 220
126 209
127 88
128 4
136 12
137 403
138 329
139 216
149 29
150 0
151 312
152 294
153 132
154 138
155 20
165 287
166 195
167 40
177 38
178 53
179 63
180 113
192 77
193 306
194 215
207 130
208 75
222 53
235 60
236 16
249 22
250 58
263 131
264 57
277 69
278 339
279 83

$$$$

     RDKit          2D

 20 21  0  0  0  0  0  0  0  0999 V2000
    7.2525    5.4105    0.0000 C   0  0  0  0  0  0  0  0  0  0  0  0
   -3.7389    1.4102    0.0000 C   0  0  0  0  0  0  0  0  0  0  0  0
   -1.1400    2.9100    0.0000 C   0  0  0  0  0  0  0  0  0  0  0  0
   -1.1400   -3.0900    0.0000 C   0  0  0  0  0  0  0  0  0  0  0  0
    4.2372    0.3997    0.0000 C   0  0  0  0  0  0  0  0  0  0  0  0
    6.7398    4.0009    0.0000 C   0  0  0  0  0  0  0  0  0  0  0  0
    1.4600   -1.5900    0.0000 C   0  0  0  0  0  0  0  0  0  0  0  0
    2.7600   -0.8400    0.0000 C   0  0  0  0  0  0  0  0  0  0  0  0
    3.2727    2.0696    0.0000 C   0  0  0  0  0  0  0  0  0  0  0  0
    4.7499    2.3304    0.0000 C   0  0  0  0  0  0  0  0  0  0  0  0
   -2.4400    0.6600    0.0000 C   0  0  0  0  0  0  0  0  0  0  0  0
   -1.1400    1.4100    0.0000 C   0  0  0  0  0  0  0  0  0  0  0  0
   -1.1400   -1.5900    0.0000 C   0  0  0  0  0  0  0  0  0  0  0  0
    0.1600   -0.8400    0.0000 C   0  0  0  0  0  0  0  0  0  0  0  0
   -2.4400   -0.8400    0.0000 C   0  0  0  0  0  0  0  0  0  0  0  0
    0.1600    0.6600    0.0000 C   0  0  0  0  0  0  0  0  0  0  0  0
    2.7600    0.6600    0.0000 C   0  0  0  0  0  0  0  0  0  0  0  0
   -3.7389   -1.5902    0.0000 O   0  0  0  0  0  0  0  0  0  0  0  0
    5.2626    3.7401    0.0000 O   0  0  0  0  0  0  0  0  0  0  0  0
    1.4600    1.4100    0.0000 O   0  0  0  0  0  0  0  0  0  0  0  0
  6  1  1  0
  8  7  1  0
 10  9  1  0
 11  2  1  0
 12  3  1  0
 12 11  1  0
 13  4  1  0
 14  7  1  0
 14 13  2  0
 15 11  2  0
 15 13  1  0
 16 12  2  0
 16 14  1  0
 17  5  1  0
 17  8  1  0
 17  9  1  0
 18 15  1  0
 19  6  1  0
 19 10  1  0
 20 16  1  0
 20 17  1  0
M  END
>  <NAME>  (1388) 
2-(2-ETHOXYETHYL)-3,4-DIHYDRO-6-HYDROXY-2,5,7,8-TETRAMETHYL-2H-1-BENZOPYRAN

>  <SYNONYMS>  (1388) 


>  <SPECTRUM TYPE>  (1388) 
MS1

>  <INSTRUMENT TYPE>  (1388) 
EI-B

>  <INSTRUMENT>  (1388) 
JEOL JMS-D-300

>  <ION MODE>  (1388) 
P

>  <INCHIKEY>  (1388) 
CIVPYQYYCUJIJT-UHFFFAOYSA-N

>  <FORMULA>  (1388) 
C17H26O3

>  <EXACT MASS>  (1388) 
278.18819469199997

>  <MW>  (1388) 
278

>  <ID>  (1388) 
JP009937

>  <CONTRIBUTOR>  (1388) 
University of Tokyo Team, {Faculty of Engineering, University of Tokyo

>  <COMMENT>  (1388) 
SMILES=CCOCCC(C)(C2)Oc(c(C)1)c(C2)c(C)c(O)c(C)1
InChI=InChI=1S/C17H26O3/c1-6-19-10-9-17(5)8-7-14-13(4)15(18)11(2)12(3)16(14)20-17/h18H,6-10H2,1-5H3
computed SMILES=OC=1C(=C(C=2OC(C)(CCOCC)CCC2C1C)C)C
accession=JP009937
date=2016.01.19 (Created 2008.10.21, modified 2011.05.06)
author=KURARAY CO., LTD.
license=CC BY-NC-SA
exact mass=278.18819
ionization energy=70 eV
ion type=[M]+*
computed spectral entropy=2.2103021340179665
computed normalized entropy=0.6866689658985118
SPLASH=splash10-03xr-0910000000-b301e58d0ceaa4454672
submitter=submitter = University of Tokyo Team (Faculty of Engineering, University of Tokyo)
MoNA Rating=3.75

>  <NUM PEAKS>  (1388) 
25

>  <MASS SPECTRAL PEAKS>  (1388) 
43 4.7
53 2.8
55 2.8
77 0.52
91 4.7
105 5.8
121 7.7
122 0.52
135 3.1
136 8.6
137 2.5
164 99.99
165 71.3
166 7.3
175 2.8
177 0.84
189 5.5
190 1.9
203 11.9
204 0.33
205 4.7
217 4.7
232 10.2
278 5.47
279 10.2

>  <PREDICTED SPECTRUM>  (1388) 
39 47
40 8
41 133
42 7
43 77
44 6
45 26
51 21
53 81
55 8
57 27
65 62
67 32
77 94
79 79
91 168
93 26
103 15
105 48
107 45
115 14
116 1
121 96
135 7
136 189
147 21
160 4
161 100
163 62
164 999
165 900
166 387
173 12
175 46
189 229
190 127
203 127
204 40
205 42
217 100
232 191
233 25
279 261
280 37

$$$$

     RDKit          2D

 20 21  0  0  0  0  0  0  0  0999 V2000
   -3.8989    1.5002    0.0000 C   0  0  0  0  0  0  0  0  0  0  0  0
   -1.3000   -3.0000    0.0000 C   0  0  0  0  0  0  0  0  0  0  0  0
    7.0925    5.5005    0.0000 C   0  0  0  0  0  0  0  0  0  0  0  0
    4.0772    0.4897    0.0000 C   0  0  0  0  0  0  0  0  0  0  0  0
    1.3000   -1.5000    0.0000 C   0  0  0  0  0  0  0  0  0  0  0  0
    2.6000   -0.7500    0.0000 C   0  0  0  0  0  0  0  0  0  0  0  0
    3.1127    2.1596    0.0000 C   0  0  0  0  0  0  0  0  0  0  0  0
    4.5899    2.4204    0.0000 C   0  0  0  0  0  0  0  0  0  0  0  0
   -1.3000    1.5000    0.0000 C   0  0  0  0  0  0  0  0  0  0  0  0
   -2.6000    0.7500    0.0000 C   0  0  0  0  0  0  0  0  0  0  0  0
   -1.3000   -1.5000    0.0000 C   0  0  0  0  0  0  0  0  0  0  0  0
    6.5798    4.0909    0.0000 C   0  0  0  0  0  0  0  0  0  0  0  0
    0.0000   -0.7500    0.0000 C   0  0  0  0  0  0  0  0  0  0  0  0
    0.0000    0.7500    0.0000 C   0  0  0  0  0  0  0  0  0  0  0  0
   -2.6000   -0.7500    0.0000 C   0  0  0  0  0  0  0  0  0  0  0  0
    2.6000    0.7500    0.0000 C   0  0  0  0  0  0  0  0  0  0  0  0
    7.5442    2.9420    0.0000 O   0  0  0  0  0  0  0  0  0  0  0  0
   -3.8989   -1.5002    0.0000 O   0  0  0  0  0  0  0  0  0  0  0  0
    5.1026    3.8301    0.0000 O   0  0  0  0  0  0  0  0  0  0  0  0
    1.3000    1.5000    0.0000 O   0  0  0  0  0  0  0  0  0  0  0  0
  6  5  1  0
  8  7  1  0
 10  1  1  0
 10  9  1  0
 11  2  1  0
 12  3  1  0
 13  5  1  0
 13 11  2  0
 14  9  2  0
 14 13  1  0
 15 10  2  0
 15 11  1  0
 16  4  1  0
 16  6  1  0
 16  7  1  0
 17 12  2  0
 18 15  1  0
 19  8  1  0
 19 12  1  0
 20 14  1  0
 20 16  1  0
M  END
>  <NAME>  (1389) 
2-(2-ACETOXYETHYL)-3,4-DIHYDRO-6-HYDROXY-2,5,7-TRIMETHYL-2H-1-BENZOPYRAN

>  <SYNONYMS>  (1389) 


>  <SPECTRUM TYPE>  (1389) 
MS1

>  <INSTRUMENT TYPE>  (1389) 
EI-B

>  <INSTRUMENT>  (1389) 
JEOL JMS-D-300

>  <ION MODE>  (1389) 
P

>  <INCHIKEY>  (1389) 
FMRLOVBRAMDRIK-UHFFFAOYSA-N

>  <FORMULA>  (1389) 
C16H22O4

>  <EXACT MASS>  (1389) 
278.151809184

>  <MW>  (1389) 
278

>  <ID>  (1389) 
JP009936

>  <CONTRIBUTOR>  (1389) 
University of Tokyo Team, {Faculty of Engineering, University of Tokyo

>  <COMMENT>  (1389) 
InChI=InChI=1S/C16H22O4/c1-10-9-14-13(11(2)15(10)18)5-6-16(4,20-14)7-8-19-12(3)17/h9,18H,5-8H2,1-4H3
SMILES=CC(=O)OCCC(C)(C2)Oc(c1)c(C2)c(C)c(O)c(C)1
computed SMILES=O=C(OCCC1(OC=2C=C(C(O)=C(C2CC1)C)C)C)C
accession=JP009936
computed spectral entropy=2.9926983797600815
computed normalized entropy=0.7020696993641672
date=2016.01.19 (Created 2008.10.21, modified 2011.05.06)
author=KURARAY CO., LTD.
license=CC BY-NC-SA
exact mass=278.15181
ionization energy=70 eV
ion type=[M]+*
SPLASH=splash10-0ufr-2940000000-638026b1ca89a979aca7
submitter=submitter = University of Tokyo Team (Faculty of Engineering, University of Tokyo)
MoNA Rating=3.75

>  <NUM PEAKS>  (1389) 
71

>  <MASS SPECTRAL PEAKS>  (1389) 
27 1.6
29 1.4
39 3
41 0.61
43 29.5
53 3.4
55 4.7
65 0.16
67 3.3
68 0.8
69 5
77 0.5
78 0.8
79 3.9
81 2.7
85 0.3
91 6.1
93 2
94 1.3
95 0.11
103 1.1
105 1.7
107 6.9
108 0.13
109 0.6
115 1.3
119 1.3
121 0.45
122 10.9
123 2.7
131 0.8
133 0.09
135 3.8
137 1.1
138 2
145 0.13
146 0.8
147 1.4
148 1.3
149 0.17
150 77.3
151 99.99
152 9.8
161 0.36
162 5
163 16.9
164 2.3
173 0.14
174 1.6
175 14.7
176 4.4
177 0.17
188 1.7
189 28.1
190 10.3
191 1.02
192 0.6
201 5.5
202 1.6
203 1.92
204 2.8
205 0.5
206 1.1
217 0.3
218 42
219 6.3
220 0.5
236 0.34
278 64.1
279 10.9
280 1.6

>  <PREDICTED SPECTRUM>  (1389) 
27 21
28 9
29 41
39 99
40 5
41 220
43 436
45 56
51 107
52 47
53 175
54 35
55 190
57 27
63 10
64 16
65 156
66 38
67 93
69 125
77 173
78 44
79 94
81 37
89 52
90 0
91 287
92 26
93 20
105 104
107 168
108 14
109 103
110 8
111 12
115 97
119 70
120 51
121 78
122 92
123 267
124 7
128 20
133 107
134 29
135 151
136 5
137 44
138 122
147 154
148 149
149 81
150 906
151 999
152 238
161 219
162 162
163 306
164 117
173 70
174 40
175 357
176 152
189 413
190 414
191 135
192 11
203 176
207 84
217 176
218 719
219 288
220 68
233 86
236 29
278 761
279 306
280 78

$$$$

     RDKit          2D

 20 20  0  0  0  0  0  0  0  0999 V2000
    4.6268   -2.6706    0.0000 C   0  0  0  0  0  0  0  0  0  0  0  0
   11.1223   -0.4217    0.0000 C   0  0  0  0  0  0  0  0  0  0  0  0
    2.0304    3.3192    0.0000 C   0  0  0  0  0  0  0  0  0  0  0  0
   -1.8707   -3.4190    0.0000 C   0  0  0  0  0  0  0  0  0  0  0  0
   -1.9000    1.1000    0.0000 C   0  0  0  0  0  0  0  0  0  0  0  0
   -0.6000    1.8400    0.0000 C   0  0  0  0  0  0  0  0  0  0  0  0
   -1.9000   -0.4000    0.0000 C   0  0  0  0  0  0  0  0  0  0  0  0
    3.3281   -0.4204    0.0000 C   0  0  0  0  0  0  0  0  0  0  0  0
    2.0289   -1.1702    0.0000 C   0  0  0  0  0  0  0  0  0  0  0  0
    5.9262   -0.4208    0.0000 C   0  0  0  0  0  0  0  0  0  0  0  0
    7.2251   -1.1710    0.0000 C   0  0  0  0  0  0  0  0  0  0  0  0
    4.6270   -1.1706    0.0000 C   0  0  0  0  0  0  0  0  0  0  0  0
    9.8231   -1.1715    0.0000 C   0  0  0  0  0  0  0  0  0  0  0  0
    0.7300   -0.4200    0.0000 C   0  0  0  0  0  0  0  0  0  0  0  0
    0.7300    1.0700    0.0000 C   0  0  0  0  0  0  0  0  0  0  0  0
   -0.5700   -1.1700    0.0000 C   0  0  0  0  0  0  0  0  0  0  0  0
    9.8229   -2.6715    0.0000 O   0  0  0  0  0  0  0  0  0  0  0  0
    2.0295    1.8192    0.0000 O   0  0  0  0  0  0  0  0  0  0  0  0
   -0.5711   -2.6700    0.0000 O   0  0  0  0  0  0  0  0  0  0  0  0
    8.5242   -0.4212    0.0000 O   0  0  0  0  0  0  0  0  0  0  0  0
  6  5  2  0
  7  5  1  0
  9  8  1  0
 11 10  1  0
 12  1  1  0
  8 12  2  0
 12 10  1  0
 13  2  1  0
 14  9  1  0
 15  6  1  0
 15 14  2  0
 16  7  2  0
 16 14  1  0
 17 13  2  0
 18  3  1  0
 18 15  1  0
 19  4  1  0
 19 16  1  0
 20 11  1  0
 20 13  1  0
M  END
>  <NAME>  (1390) 
5-ACETOXY-1-(2,6-DIMETOXYPHENYL)-3-METHYL-2-PENTENE

>  <SYNONYMS>  (1390) 


>  <SPECTRUM TYPE>  (1390) 
MS1

>  <INSTRUMENT TYPE>  (1390) 
EI-B

>  <INSTRUMENT>  (1390) 
JEOL JMS-D-300

>  <ION MODE>  (1390) 
P

>  <INCHIKEY>  (1390) 
GLVUXJCZSHESLV-XYOKQWHBSA-N

>  <FORMULA>  (1390) 
C16H22O4

>  <EXACT MASS>  (1390) 
278.151809184

>  <MW>  (1390) 
278

>  <ID>  (1390) 
JP009935

>  <CONTRIBUTOR>  (1390) 
University of Tokyo Team, {Faculty of Engineering, University of Tokyo

>  <COMMENT>  (1390) 
SMILES=CC(=O)OCCC(C)=CCc(c(OC)1)c(OC)ccc1
InChI=InChI=1S/C16H22O4/c1-12(10-11-20-13(2)17)8-9-14-15(18-3)6-5-7-16(14)19-4/h5-8H,9-11H2,1-4H3/b12-8+
computed SMILES=O=C(OCCC(=CCC=1C(OC)=CC=CC1OC)C)C
author=KURARAY CO., LTD.
accession=JP009935
date=2016.01.19 (Created 2008.10.21, modified 2011.05.06)
license=CC BY-NC-SA
exact mass=278.15181
ionization energy=70 eV
ion type=[M]+*
computed spectral entropy=3.7509811553527963
computed normalized entropy=0.7808003171562021
SPLASH=splash10-0udl-2930000000-aa73161aa7eb00757946
submitter=submitter = University of Tokyo Team (Faculty of Engineering, University of Tokyo)
MoNA Rating=3.75

>  <NUM PEAKS>  (1390) 
122

>  <MASS SPECTRAL PEAKS>  (1390) 
27 3.3
29 1.3
39 4.2
41 0.61
42 0.5
43 51.3
51 3.1
52 0.08
53 3.9
55 7.8
56 0.3
57 0.22
59 0.2
63 0.9
65 4.4
66 0.06
67 4.7
68 0.2
69 2.3
75 0.03
76 1.3
77 10.9
78 3.8
79 0.8
80 1.6
81 3.4
82 0.2
87 0.34
88 0.8
89 2.8
90 1.3
91 2.48
92 3.6
93 3.9
94 1.7
95 0.19
96 0.3
97 0.8
101 1.6
102 0.17
103 5.6
104 1.6
105 8
106 0.2
107 6
108 1.9
109 2
115 0.13
116 3.6
117 3.4
118 2
119 0.19
120 1.4
121 29.5
122 3.4
123 0.34
124 1.6
125 1.4
127 4.5
128 0.77
129 4.1
130 1.4
131 7.7
132 0.23
133 4.1
134 8
135 9.5
136 0.23
137 16.1
138 12.5
139 3.3
140 0.03
141 2
142 0.9
143 1.7
144 0.33
145 6.1
146 3.9
147 7.2
148 0.41
149 48.4
150 5.5
151 34.4
152 0.55
153 1.1
155 1.4
156 0.3
157 0.14
158 3.3
159 6.9
160 13.3
161 3
162 12.3
163 16.4
164 2.5
165 0.53
171 2.8
172 11.7
173 4.7
174 0.28
175 12.3
176 10.8
177 7.2
178 0.13
186 1.9
187 65.2
188 14.8
189 0.98
190 3.1
191 53.3
192 15
193 0.25
203 99.99
204 16.4
205 3
217 0.38
218 51.1
219 16.1
220 0.5
260 0.17
278 6.3
279 0.8

>  <PREDICTED SPECTRUM>  (1390) 
14 23
15 94
16 6
17 14
18 20
26 36
27 156
28 115
29 156
31 32
32 24
38 32
39 196
40 55
41 286
42 99
43 676
44 37
45 114
50 67
51 147
52 108
53 163
54 57
55 177
57 51
58 6
59 57
60 77
61 22
62 46
63 97
64 94
65 167
66 69
67 148
68 73
69 191
70 46
71 109
73 1
74 2
75 31
76 86
77 261
78 146
79 137
80 57
81 116
82 26
83 52
84 36
85 42
86 16
87 48
88 33
89 88
90 114
91 283
92 121
93 123
94 63
95 136
96 34
97 60
98 39
99 57
101 9
102 86
103 166
104 121
105 231
106 74
107 267
108 198
109 219
110 65
111 74
112 13
113 26
114 37
115 242
116 96
117 175
118 140
119 144
120 113
121 356
122 188
123 135
124 82
125 84
127 170
128 174
129 172
130 153
131 215
132 131
133 266
134 153
135 229
136 180
137 245
138 110
139 104
140 17
141 104
142 45
143 144
144 131
145 202
146 146
147 365
148 277
149 581
150 291
151 454
152 120
153 45
155 111
156 110
157 223
158 223
159 308
160 228
161 320
162 262
163 281
164 162
165 61
169 5
171 195
172 184
173 245
174 187
175 445
176 256
177 241
178 101
179 33
185 44
186 160
187 495
188 377
189 226
190 151
191 494
192 195
193 52
201 51
202 42
203 999
204 381
205 287
206 94
217 50
218 733
219 339
220 51
235 81
278 205
279 55

$$$$

     RDKit          2D

 19 20  0  0  0  0  0  0  0  0999 V2000
    2.2289   -1.7100    0.0000 C   0  0  0  0  0  0  0  0  0  0  0  0
    0.5941    2.4394    0.0000 C   0  0  0  0  0  0  0  0  0  0  0  0
   -1.3341    2.4394    0.0000 C   0  0  0  0  0  0  0  0  0  0  0  0
    7.4270    2.7908    0.0000 C   0  0  0  0  0  0  0  0  0  0  0  0
    6.1270    3.5408    0.0000 C   0  0  0  0  0  0  0  0  0  0  0  0
    7.4270    1.2908    0.0000 C   0  0  0  0  0  0  0  0  0  0  0  0
   -1.6700   -0.9598    0.0000 C   0  0  0  0  0  0  0  0  0  0  0  0
   -0.3700   -1.7098    0.0000 C   0  0  0  0  0  0  0  0  0  0  0  0
    4.8270    2.7908    0.0000 C   0  0  0  0  0  0  0  0  0  0  0  0
    6.1270    0.5408    0.0000 C   0  0  0  0  0  0  0  0  0  0  0  0
   -1.6700    0.5402    0.0000 C   0  0  0  0  0  0  0  0  0  0  0  0
    2.2289    1.2904    0.0000 C   0  0  0  0  0  0  0  0  0  0  0  0
    0.9300   -0.9598    0.0000 C   0  0  0  0  0  0  0  0  0  0  0  0
    4.8270    1.2908    0.0000 C   0  0  0  0  0  0  0  0  0  0  0  0
    0.9300    0.5402    0.0000 C   0  0  0  0  0  0  0  0  0  0  0  0
   -0.3700    1.2902    0.0000 C   0  0  0  0  0  0  0  0  0  0  0  0
    2.5641   -0.6086    0.0000 O   0  0  0  0  0  0  0  0  0  0  0  0
    4.4924   -0.6083    0.0000 O   0  0  0  0  0  0  0  0  0  0  0  0
    3.5281    0.5406    0.0000 S   0  0  0  0  0  0  0  0  0  0  0  0
  5  4  2  0
  6  4  1  0
  8  7  1  0
  9  5  1  0
 10  6  2  0
 11  7  1  0
 13  1  1  0
 13  8  1  0
 14  9  2  0
 14 10  1  0
 15 12  1  0
 15 13  2  0
 16  2  1  0
 16  3  1  0
 16 11  1  0
 16 15  1  0
 19 12  1  0
 19 14  1  0
 19 17  2  0
 19 18  2  0
M  END
>  <NAME>  (1391) 
1-PHENYLSULFONYLMETHYL-2,6,6-TRIMETHYLCYCLOHEXENE

>  <SYNONYMS>  (1391) 


>  <SPECTRUM TYPE>  (1391) 
MS1

>  <INSTRUMENT TYPE>  (1391) 
EI-B

>  <INSTRUMENT>  (1391) 
JEOL JMS-D-300

>  <ION MODE>  (1391) 
P

>  <INCHIKEY>  (1391) 
WQRHISGXRFLGKQ-UHFFFAOYSA-N

>  <FORMULA>  (1391) 
C16H22O2S

>  <EXACT MASS>  (1391) 
278.134050944

>  <MW>  (1391) 
278

>  <ID>  (1391) 
JP009934

>  <CONTRIBUTOR>  (1391) 
University of Tokyo Team, {Faculty of Engineering, University of Tokyo

>  <COMMENT>  (1391) 
SMILES=CC(C1)=C(CS(=O)(=O)c(c2)cccc2)C(C)(C)CC1
InChI=InChI=1S/C16H22O2S/c1-13-8-7-11-16(2,3)15(13)12-19(17,18)14-9-5-4-6-10-14/h4-6,9-10H,7-8,11-12H2,1-3H3
computed SMILES=O=S(=O)(C=1C=CC=CC1)CC2=C(C)CCCC2(C)C
accession=JP009934
date=2016.01.19 (Created 2008.10.21, modified 2011.05.06)
author=KURARAY CO., LTD.
license=CC BY-NC-SA
exact mass=278.13405
ionization energy=70 eV
ion type=[M]+*
computed spectral entropy=2.076065170028827
computed normalized entropy=0.5793370164030052
SPLASH=splash10-000i-4900000000-59988b520f7fbd1f52ef
submitter=submitter = University of Tokyo Team (Faculty of Engineering, University of Tokyo)
MoNA Rating=3.75

>  <NUM PEAKS>  (1391) 
36

>  <MASS SPECTRAL PEAKS>  (1391) 
27 0.9
29 1.3
39 1.9
41 1.03
43 3.1
51 2.3
53 2.8
55 0.63
57 3.9
65 1.3
67 5.6
69 0.89
77 7.8
78 1.6
79 5
81 2.17
91 3.9
93 6.3
94 0.8
95 3.13
96 2
107 4.4
109 2.3
121 0.78
122 1.7
136 5.6
137 99.99
138 1.13
141 0.4
142 0.1
143 1.2
144 0.02
145 0.1
149 0.2
278 1.1
279 0.2

>  <PREDICTED SPECTRUM>  (1391) 
26 31
27 191
28 96
29 163
34 6
38 19
39 318
40 128
41 612
42 195
43 505
44 124
45 118
48 15
49 10
50 177
51 355
52 189
53 360
54 137
55 453
56 172
57 227
58 78
59 78
61 21
62 36
63 103
64 55
65 294
66 179
67 514
68 103
69 329
70 71
71 113
72 38
73 78
74 99
75 51
76 65
77 621
78 327
79 505
80 161
81 651
82 180
83 199
84 98
85 90
86 6
87 12
91 411
92 180
93 411
94 305
95 465
96 245
97 190
98 89
99 11
102 24
103 34
104 22
105 178
106 83
107 589
108 292
109 406
110 187
111 25
115 150
116 1
118 13
119 133
120 126
121 500
122 146
123 338
124 122
125 322
126 229
127 11
128 36
134 61
135 397
136 471
137 999
138 433
139 139
141 19
142 46
143 119
151 34
152 44
153 105
154 23
260 102
263 84
264 29
278 125
279 66

$$$$

     RDKit          2D

 19 19  0  0  0  0  0  0  0  0999 V2000
   12.6212    1.2919    0.0000 C   0  0  0  0  0  0  0  0  0  0  0  0
   11.3225   -0.9583    0.0000 C   0  0  0  0  0  0  0  0  0  0  0  0
    6.1264   -0.9592    0.0000 C   0  0  0  0  0  0  0  0  0  0  0  0
   -1.6700   -0.9600    0.0000 C   0  0  0  0  0  0  0  0  0  0  0  0
   -0.3700   -1.7100    0.0000 C   0  0  0  0  0  0  0  0  0  0  0  0
   -1.6700    0.5400    0.0000 C   0  0  0  0  0  0  0  0  0  0  0  0
    8.7242    0.5412    0.0000 C   0  0  0  0  0  0  0  0  0  0  0  0
   10.0231    1.2915    0.0000 C   0  0  0  0  0  0  0  0  0  0  0  0
    7.4251    1.2910    0.0000 C   0  0  0  0  0  0  0  0  0  0  0  0
    0.9300   -0.9600    0.0000 C   0  0  0  0  0  0  0  0  0  0  0  0
   -0.3700    1.2900    0.0000 C   0  0  0  0  0  0  0  0  0  0  0  0
    4.8270    1.2906    0.0000 C   0  0  0  0  0  0  0  0  0  0  0  0
    3.5281    0.5404    0.0000 C   0  0  0  0  0  0  0  0  0  0  0  0
   11.3223    0.5417    0.0000 C   0  0  0  0  0  0  0  0  0  0  0  0
    6.1262    0.5408    0.0000 C   0  0  0  0  0  0  0  0  0  0  0  0
    0.9300    0.5400    0.0000 C   0  0  0  0  0  0  0  0  0  0  0  0
    3.1929    2.4394    0.0000 O   0  0  0  0  0  0  0  0  0  0  0  0
    1.2646    2.4391    0.0000 O   0  0  0  0  0  0  0  0  0  0  0  0
    2.2289    1.2902    0.0000 S   0  0  0  0  0  0  0  0  0  0  0  0
  5  4  2  0
  6  4  1  0
  8  7  1  0
  9  7  1  0
 10  5  1  0
 11  6  2  0
 13 12  1  0
 14  1  1  0
 14  2  1  0
 14  8  2  0
 15  3  1  0
 15  9  1  0
 12 15  2  0
 16 10  2  0
 16 11  1  0
 19 13  1  0
 19 16  1  0
 19 17  2  0
 19 18  2  0
M  END
>  <NAME>  (1392) 
3,7-DIMETHYL-1-PHENYLSULFONYL-2,6-OCTADIENE

>  <SYNONYMS>  (1392) 


>  <SPECTRUM TYPE>  (1392) 
MS1

>  <INSTRUMENT TYPE>  (1392) 
EI-B

>  <INSTRUMENT>  (1392) 
JEOL JMS-D-300

>  <ION MODE>  (1392) 
P

>  <INCHIKEY>  (1392) 
IULKHBFGJTXXCU-NTCAYCPXSA-N

>  <FORMULA>  (1392) 
C16H22O2S

>  <EXACT MASS>  (1392) 
278.134050944

>  <MW>  (1392) 
278

>  <ID>  (1392) 
JP009933

>  <CONTRIBUTOR>  (1392) 
University of Tokyo Team, {Faculty of Engineering, University of Tokyo

>  <COMMENT>  (1392) 
SMILES=CC(C)=CCCC(C)=CCS(=O)(=O)c(c1)cccc1
InChI=InChI=1S/C16H22O2S/c1-14(2)8-7-9-15(3)12-13-19(17,18)16-10-5-4-6-11-16/h4-6,8,10-12H,7,9,13H2,1-3H3/b15-12+
computed SMILES=O=S(=O)(C=1C=CC=CC1)CC=C(C)CCC=C(C)C
accession=JP009933
date=2016.01.19 (Created 2008.10.21, modified 2011.05.06)
author=KURARAY CO., LTD.
license=CC BY-NC-SA
exact mass=278.13405
ionization energy=70 eV
ion type=[M]+*
computed spectral entropy=2.341681744505326
computed normalized entropy=0.6819133575823594
SPLASH=splash10-014i-9100000000-85a065e92255986f6394
submitter=submitter = University of Tokyo Team (Faculty of Engineering, University of Tokyo)
MoNA Rating=3.75

>  <NUM PEAKS>  (1392) 
31

>  <MASS SPECTRAL PEAKS>  (1392) 
27 2.3
29 1.6
39 3.1
41 1.53
43 3
51 3.4
53 5
55 0.5
67 7.2
68 14.1
69 99.99
70 0.47
77 11.3
78 2.3
79 1.9
80 0.66
81 56.7
82 3.4
91 1.6
92 0.23
93 15.2
94 1.9
95 9.2
107 0.13
121 4.7
136 12.3
137 27.8
138 0.3
143 4.7
209 0.3
210 0.5

>  <PREDICTED SPECTRUM>  (1392) 
26 3
27 132
28 35
29 119
38 21
39 236
40 100
41 620
42 106
43 221
44 8
45 6
48 0
50 106
51 222
52 124
53 307
54 136
55 206
56 36
57 65
58 6
62 31
63 94
64 58
65 222
66 157
67 446
68 374
69 999
70 169
71 62
74 18
75 30
76 19
77 440
78 142
79 209
80 207
81 744
82 185
83 38
85 35
86 30
89 42
90 25
91 207
92 206
93 518
94 108
95 246
96 22
97 97
99 12
102 26
103 25
104 19
105 98
107 145
108 123
109 198
110 43
111 24
119 59
121 297
122 56
123 48
124 43
125 118
126 43
127 14
131 13
134 13
135 169
136 487
137 542
138 133
141 99
142 0
143 153
149 18
154 4
160 10
171 2
177 25
210 1
235 22
278 71
279 30

$$$$

     RDKit          2D

 20 22  0  0  0  0  0  0  0  0999 V2000
   -1.3000    0.7500    0.0000 C   0  0  0  0  0  0  0  0  0  0  0  0
    6.4971    0.7512    0.0000 C   0  0  0  0  0  0  0  0  0  0  0  0
   -0.2941   -4.9491    0.0000 C   0  0  0  0  0  0  0  0  0  0  0  0
    0.0000    1.5000    0.0000 C   0  0  0  0  0  0  0  0  0  0  0  0
   -1.3000   -0.7500    0.0000 C   0  0  0  0  0  0  0  0  0  0  0  0
    6.4966   -0.7496    0.0000 C   0  0  0  0  0  0  0  0  0  0  0  0
    5.1981    1.5012    0.0000 C   0  0  0  0  0  0  0  0  0  0  0  0
   -0.8070   -3.5387    0.0000 C   0  0  0  0  0  0  0  0  0  0  0  0
    1.1831   -5.2096    0.0000 C   0  0  0  0  0  0  0  0  0  0  0  0
    1.3000    0.7500    0.0000 C   0  0  0  0  0  0  0  0  0  0  0  0
    0.0000   -1.5000    0.0000 C   0  0  0  0  0  0  0  0  0  0  0  0
    5.1971   -1.5004    0.0000 C   0  0  0  0  0  0  0  0  0  0  0  0
    3.8986    0.7504    0.0000 C   0  0  0  0  0  0  0  0  0  0  0  0
    0.1573   -2.3886    0.0000 C   0  0  0  0  0  0  0  0  0  0  0  0
    2.1474   -4.0596    0.0000 C   0  0  0  0  0  0  0  0  0  0  0  0
    1.3000   -0.7500    0.0000 C   0  0  0  0  0  0  0  0  0  0  0  0
    3.8981   -0.7504    0.0000 C   0  0  0  0  0  0  0  0  0  0  0  0
    1.6346   -2.6491    0.0000 C   0  0  0  0  0  0  0  0  0  0  0  0
    3.5629   -2.6494    0.0000 O   0  0  0  0  0  0  0  0  0  0  0  0
    2.5989   -1.5002    0.0000 P   0  0  0  0  0  0  0  0  0  0  0  0
  4  1  2  0
  5  1  1  0
  6  2  2  0
  7  2  1  0
  8  3  2  0
  9  3  1  0
 10  4  1  0
 11  5  2  0
 12  6  1  0
 13  7  2  0
 14  8  1  0
 15  9  2  0
 16 10  2  0
 16 11  1  0
 17 12  2  0
 17 13  1  0
 18 14  2  0
 18 15  1  0
 20 16  1  0
 20 17  1  0
 20 18  1  0
 20 19  2  0
M  END
>  <NAME>  (1393) 
TRIPHENYLPHOSPHINE OXIDE

>  <SYNONYMS>  (1393) 


>  <SPECTRUM TYPE>  (1393) 
MS1

>  <INSTRUMENT TYPE>  (1393) 
EI-B

>  <INSTRUMENT>  (1393) 
JEOL JMS-D-300

>  <ION MODE>  (1393) 
P

>  <INCHIKEY>  (1393) 
FIQMHBFVRAXMOP-UHFFFAOYSA-N

>  <FORMULA>  (1393) 
C18H15OP

>  <EXACT MASS>  (1393) 
278.08605173

>  <MW>  (1393) 
278

>  <ID>  (1393) 
JP009932

>  <CONTRIBUTOR>  (1393) 
University of Tokyo Team, {Faculty of Engineering, University of Tokyo

>  <COMMENT>  (1393) 
SMILES=c(c3)ccc(c3)P(=O)(c(c2)cccc2)c(c1)cccc1
InChI=InChI=1S/C18H15OP/c19-20(16-10-4-1-5-11-16,17-12-6-2-7-13-17)18-14-8-3-9-15-18/h1-15H
computed SMILES=O=P(C=1C=CC=CC1)(C=2C=CC=CC2)C=3C=CC=CC3
accession=JP009932
date=2016.01.19 (Created 2008.10.21, modified 2011.05.06)
author=KURARAY CO., LTD.
license=CC BY-NC-SA
exact mass=278.08605
ionization energy=70 eV
ion type=[M]+*
computed spectral entropy=2.039103130915421
computed normalized entropy=0.6334830052038164
SPLASH=splash10-004i-1290000000-6c346115fe6ef033ad3e
submitter=submitter = University of Tokyo Team (Faculty of Engineering, University of Tokyo)
MoNA Rating=3.75

>  <NUM PEAKS>  (1393) 
25

>  <MASS SPECTRAL PEAKS>  (1393) 
28 13.4
32 3
39 0.9
40 0.03
47 3.4
50 1.3
51 7.5
77 0.28
78 1.9
95 1.3
107 15.6
115 0.13
127 0.9
133 1.4
151 1.1
152 0.59
153 3.4
154 3.6
170 1.6
183 0.28
185 8.1
199 12.3
201 16.7
277 99.99
278 56.7

>  <PREDICTED SPECTRUM>  (1393) 
26 33
27 70
28 52
29 23
32 5
33 51
34 5
36 26
37 13
38 65
39 246
40 61
41 78
43 71
44 23
45 9
47 473
48 37
49 40
50 252
51 592
52 160
53 75
55 80
57 94
58 15
61 25
62 57
63 201
64 26
65 175
66 47
67 11
69 146
74 155
75 179
76 147
77 865
78 405
79 218
80 48
81 125
82 38
83 33
86 19
87 17
89 105
91 184
92 33
93 43
94 31
95 213
96 78
97 66
98 20
100 53
101 32
102 113
103 26
104 16
105 9
106 56
107 280
108 186
109 108
110 164
114 11
115 203
116 91
118 10
121 30
122 146
123 291
124 183
125 234
126 154
127 74
128 208
129 44
132 26
133 3
134 28
137 115
138 72
139 218
141 102
144 48
146 2
147 24
150 129
151 204
152 438
153 320
154 279
155 236
156 40
157 32
159 17
161 15
162 61
165 141
166 36
167 41
169 21
170 191
171 138
172 32
173 199
178 68
180 83
181 134
182 196
183 490
184 187
185 360
186 213
187 139
188 9
199 660
200 294
201 952
202 555
203 85
212 8
231 26
235 14
249 197
250 204
251 66
252 36
259 34
260 128
261 154
262 284
263 107
277 958
278 999
279 257
280 142

$$$$

     RDKit          2D

 20 20  0  0  0  0  0  0  0  0999 V2000
   -5.1959    4.8196    0.0000 C   0  0  0  0  0  0  0  0  0  0  0  0
  -11.6911    7.0696    0.0000 C   0  0  0  0  0  0  0  0  0  0  0  0
    5.1964    4.8196    0.0000 C   0  0  0  0  0  0  0  0  0  0  0  0
    5.1969    6.3204    0.0000 C   0  0  0  0  0  0  0  0  0  0  0  0
    3.8969    4.0688    0.0000 C   0  0  0  0  0  0  0  0  0  0  0  0
    3.8978    7.0704    0.0000 C   0  0  0  0  0  0  0  0  0  0  0  0
    2.5978    4.8188    0.0000 C   0  0  0  0  0  0  0  0  0  0  0  0
   -3.8969    7.0696    0.0000 C   0  0  0  0  0  0  0  0  0  0  0  0
   -2.5978    6.3196    0.0000 C   0  0  0  0  0  0  0  0  0  0  0  0
   -6.4949    7.0696    0.0000 C   0  0  0  0  0  0  0  0  0  0  0  0
   -7.7940    6.3196    0.0000 C   0  0  0  0  0  0  0  0  0  0  0  0
    1.2993    7.0696    0.0000 C   0  0  0  0  0  0  0  0  0  0  0  0
   -5.1959    6.3196    0.0000 C   0  0  0  0  0  0  0  0  0  0  0  0
  -10.3921    6.3196    0.0000 C   0  0  0  0  0  0  0  0  0  0  0  0
    2.5983    6.3196    0.0000 C   0  0  0  0  0  0  0  0  0  0  0  0
   -1.2988    7.0696    0.0000 C   0  0  0  0  0  0  0  0  0  0  0  0
  -10.3921    4.8196    0.0000 O   0  0  0  0  0  0  0  0  0  0  0  0
   -1.2988    8.5696    0.0000 O   0  0  0  0  0  0  0  0  0  0  0  0
   -9.0930    7.0696    0.0000 O   0  0  0  0  0  0  0  0  0  0  0  0
    0.0002    6.3196    0.0000 O   0  0  0  0  0  0  0  0  0  0  0  0
  4  3  2  0
  5  3  1  0
  6  4  1  0
  7  5  2  0
  9  8  1  0
 11 10  1  0
 13  1  1  0
 13  8  1  0
 10 13  2  0
 14  2  1  0
 15  6  2  0
 15  7  1  0
 15 12  1  0
 16  9  1  0
 17 14  2  0
 18 16  2  0
 19 11  1  0
 19 14  1  0
 20 12  1  0
 20 16  1  0
M  END
>  <NAME>  (1394) 
BENZYL 6-ACETOXY-4-METHYL-4-HEXENOATE

>  <SYNONYMS>  (1394) 


>  <SPECTRUM TYPE>  (1394) 
MS1

>  <INSTRUMENT TYPE>  (1394) 
EI-B

>  <INSTRUMENT>  (1394) 
JEOL JMS-D-300

>  <ION MODE>  (1394) 
P

>  <INCHIKEY>  (1394) 
GBALUYBVKIVYMM-JLHYYAGUSA-N

>  <FORMULA>  (1394) 
C16H20O4

>  <EXACT MASS>  (1394) 
276.13615912

>  <MW>  (1394) 
276

>  <ID>  (1394) 
JP009931

>  <CONTRIBUTOR>  (1394) 
University of Tokyo Team, {Faculty of Engineering, University of Tokyo

>  <COMMENT>  (1394) 
SMILES=CC(=O)OCC=C(C)CCC(=O)OCc(c1)cccc1
InChI=InChI=1S/C16H20O4/c1-13(10-11-19-14(2)17)8-9-16(18)20-12-15-6-4-3-5-7-15/h3-7,10H,8-9,11-12H2,1-2H3/b13-10+
computed SMILES=O=C(OCC=C(C)CCC(=O)OCC=1C=CC=CC1)C
accession=JP009931
date=2016.01.19 (Created 2008.10.21, modified 2011.05.06)
author=KURARAY CO., LTD.
license=CC BY-NC-SA
exact mass=276.13616
ionization energy=70 eV
ion type=[M]+*
computed spectral entropy=2.178287862868178
computed normalized entropy=0.5865748189993651
SPLASH=splash10-0006-9400000000-a149a6a1281e403ba7b1
submitter=submitter = University of Tokyo Team (Faculty of Engineering, University of Tokyo)
MoNA Rating=3.75

>  <NUM PEAKS>  (1394) 
41

>  <MASS SPECTRAL PEAKS>  (1394) 
39 1.6
41 3.1
43 18.4
51 0.03
53 1.1
55 0.8
63 0.2
65 0.45
67 1.9
68 4.7
69 2.2
71 0.02
77 1.9
79 2.8
80 0.2
81 0.83
82 1.9
83 1.6
84 1.7
89 0.03
90 1.1
91 99.99
92 9.5
97 0.23
98 0.3
104 0.6
105 1.9
107 0.16
108 2
109 0.2
110 6.7
111 0.05
125 43.3
126 4.7
143 11.3
144 0.03
156 6.3
157 1.4
185 0.6
216 0.45
217 0.3

>  <PREDICTED SPECTRUM>  (1394) 
26 30
27 151
28 60
29 145
31 33
38 21
39 169
40 60
41 165
42 139
43 630
44 151
45 49
49 16
50 84
51 161
52 88
53 140
54 96
55 249
56 66
57 63
60 22
61 37
62 35
63 87
64 6
65 235
66 65
67 144
68 166
69 221
70 29
71 43
72 0
73 79
74 17
75 11
76 3
77 143
78 54
79 145
80 61
81 130
82 87
83 159
84 97
85 101
86 23
89 69
90 44
91 999
92 333
93 112
94 14
95 59
96 44
97 95
98 32
99 48
100 5
101 28
102 16
105 83
107 87
108 126
109 82
110 104
111 68
112 22
115 8
121 21
122 25
123 104
124 110
125 284
126 194
127 120
128 30
131 10
133 6
134 61
141 68
142 47
143 215
144 30
151 0
152 44
156 42
157 131
158 107
170 17
173 10
174 27
185 93
186 11
216 203
217 32
276 38

$$$$

     RDKit          2D

 17 18  0  0  0  0  0  0  0  0999 V2000
    3.5481    1.6155    0.0000 C   0  0  0  0  0  0  0  0  0  0  0  0
    4.2981    2.9145    0.0000 C   0  0  0  0  0  0  0  0  0  0  0  0
    2.0797    1.9321    0.0000 C   0  0  0  0  0  0  0  0  0  0  0  0
    3.2897    4.0279    0.0000 C   0  0  0  0  0  0  0  0  0  0  0  0
   -4.5731    4.1692    0.0000 C   0  0  0  0  0  0  0  0  0  0  0  0
   -1.9741    5.6708    0.0000 C   0  0  0  0  0  0  0  0  0  0  0  0
   -4.5726    5.6700    0.0000 C   0  0  0  0  0  0  0  0  0  0  0  0
   -3.2741    3.4192    0.0000 C   0  0  0  0  0  0  0  0  0  0  0  0
   -3.2731    6.4208    0.0000 C   0  0  0  0  0  0  0  0  0  0  0  0
   -1.9745    4.1700    0.0000 C   0  0  0  0  0  0  0  0  0  0  0  0
    0.6235    4.1700    0.0000 C   0  0  0  0  0  0  0  0  0  0  0  0
   -5.8717    6.4200    0.0000 Cl  0  0  0  0  0  0  0  0  0  0  0  0
   -3.2738    1.9192    0.0000 Cl  0  0  0  0  0  0  0  0  0  0  0  0
    1.9226    3.4200    0.0000 N   0  0  0  0  0  0  0  0  0  0  0  0
   -3.2733    7.9208    0.0000 O   0  0  0  0  0  0  0  0  0  0  0  0
    0.6235    5.6700    0.0000 O   0  0  0  0  0  0  0  0  0  0  0  0
   -0.6755    3.4200    0.0000 O   0  0  0  0  0  0  0  0  0  0  0  0
  2  1  1  0
  3  1  1  0
  4  2  1  0
  7  5  2  0
  8  5  1  0
  9  6  2  0
  9  7  1  0
 10  6  1  0
 10  8  2  0
 12  7  1  0
 13  8  1  0
 14  3  1  0
 14  4  1  0
 14 11  1  0
 15  9  1  0
 16 11  2  0
 17 10  1  0
 17 11  1  0
M  END
>  <NAME>  (1395) 
N-(2,4-DICHLORO-5-HYDROXYPHENOXYCARBONYL)TETRAHYDROPYRROLE

>  <SYNONYMS>  (1395) 


>  <SPECTRUM TYPE>  (1395) 
MS1

>  <INSTRUMENT TYPE>  (1395) 
EI-B

>  <INSTRUMENT>  (1395) 
JEOL JMS-D-300

>  <ION MODE>  (1395) 
P

>  <INCHIKEY>  (1395) 
NNKDVXRNTGSXFM-UHFFFAOYSA-N

>  <FORMULA>  (1395) 
C11H11Cl2NO3

>  <EXACT MASS>  (1395) 
275.011598572

>  <MW>  (1395) 
275

>  <ID>  (1395) 
JP009930

>  <CONTRIBUTOR>  (1395) 
University of Tokyo Team, {Faculty of Engineering, University of Tokyo

>  <COMMENT>  (1395) 
SMILES=O=C(Oc(c2)c(Cl)cc(Cl)c(O)2)N(C1)CCC1
InChI=InChI=1S/C11H11Cl2NO3/c12-7-5-8(13)10(6-9(7)15)17-11(16)14-3-1-2-4-14/h5-6,15H,1-4H2
computed SMILES=O=C(OC1=CC(O)=C(Cl)C=C1Cl)N2CCCC2
accession=JP009930
date=2016.01.19 (Created 2008.10.21, modified 2011.05.06)
author=KURARAY CO., LTD.
license=CC BY-NC-SA
exact mass=275.0116
ionization energy=70 eV
ion type=[M]+*
computed spectral entropy=1.960059742029104
computed normalized entropy=0.4936815188169595
SPLASH=splash10-0002-9000000000-e5a4a84651d721529aae
submitter=submitter = University of Tokyo Team (Faculty of Engineering, University of Tokyo)
MoNA Rating=3.75

>  <NUM PEAKS>  (1395) 
53

>  <MASS SPECTRAL PEAKS>  (1395) 
27 1.4
28 3.8
29 3.4
30 1
39 1.7
41 4.3
42 3.3
55 6.9
56 27.8
63 1
69 1.7
70 0.29
73 0.9
85 1.2
97 0.5
98 99.99
99 5.2
113 0.8
114 0.5
115 0.06
116 0.2
117 0.2
120 0.1
121 0.02
123 0.1
125 0.2
132 0.1
133 0.08
134 0.1
135 0.5
137 0.3
138 0.02
149 1.7
150 1.2
151 0.2
153 0.02
161 0.4
163 0.2
177 0.2
178 0.17
179 0.2
180 1.1
182 0.2
198 0.01
240 3.7
241 0.5
242 1.3
243 0.02
275 2.6
276 0.5
277 1.7
278 0.02
279 0.3

>  <PREDICTED SPECTRUM>  (1395) 
26 0
27 48
28 19
29 38
35 27
36 48
37 27
38 60
39 151
40 85
41 239
42 200
43 42
44 21
50 41
51 43
52 22
53 107
54 79
55 278
56 257
57 59
58 44
62 46
63 145
64 15
65 38
66 10
67 39
68 66
69 216
70 151
71 39
72 49
73 97
74 17
75 27
84 70
85 32
97 32
98 999
99 126
109 18
113 45
114 110
135 17
136 13
138 12
148 22
150 28
152 4
177 72
178 63
179 67
180 61
181 17
196 3
240 127
241 58
242 21
275 169
276 58
277 92
278 18

$$$$

     RDKit          2D

 20 21  0  0  0  0  0  0  0  0999 V2000
  -10.3942   -0.7512    0.0000 C   0  0  0  0  0  0  0  0  0  0  0  0
    4.5899    2.4204    0.0000 C   0  0  0  0  0  0  0  0  0  0  0  0
    4.0772    0.4897    0.0000 C   0  0  0  0  0  0  0  0  0  0  0  0
   -9.0951   -1.5010    0.0000 C   0  0  0  0  0  0  0  0  0  0  0  0
    3.1127    2.1596    0.0000 C   0  0  0  0  0  0  0  0  0  0  0  0
   -7.7962   -0.7508    0.0000 C   0  0  0  0  0  0  0  0  0  0  0  0
   -6.4970   -1.5006    0.0000 C   0  0  0  0  0  0  0  0  0  0  0  0
   -5.1981   -0.7504    0.0000 C   0  0  0  0  0  0  0  0  0  0  0  0
   -3.8989   -1.5002    0.0000 C   0  0  0  0  0  0  0  0  0  0  0  0
    1.3000   -1.5000    0.0000 C   0  0  0  0  0  0  0  0  0  0  0  0
    2.6000   -0.7500    0.0000 C   0  0  0  0  0  0  0  0  0  0  0  0
   -1.3000   -1.5000    0.0000 C   0  0  0  0  0  0  0  0  0  0  0  0
   -1.3000    1.5000    0.0000 C   0  0  0  0  0  0  0  0  0  0  0  0
   -2.6000   -0.7500    0.0000 C   0  0  0  0  0  0  0  0  0  0  0  0
    0.0000   -0.7500    0.0000 C   0  0  0  0  0  0  0  0  0  0  0  0
   -2.6000    0.7500    0.0000 C   0  0  0  0  0  0  0  0  0  0  0  0
    0.0000    0.7500    0.0000 C   0  0  0  0  0  0  0  0  0  0  0  0
    2.6000    0.7500    0.0000 C   0  0  0  0  0  0  0  0  0  0  0  0
   -3.8989    1.5002    0.0000 O   0  0  0  0  0  0  0  0  0  0  0  0
    1.3000    1.5000    0.0000 O   0  0  0  0  0  0  0  0  0  0  0  0
  4  1  1  0
  5  2  2  0
  6  4  1  0
  7  6  1  0
  8  7  1  0
  9  8  1  0
 11 10  1  0
 14  9  1  0
 14 12  1  0
 15 10  1  0
 15 12  2  0
 16 13  1  0
 16 14  2  0
 17 13  2  0
 17 15  1  0
 18  3  1  0
 18  5  1  0
 18 11  1  0
 19 16  1  0
 20 17  1  0
 20 18  1  0
M  END
>  <NAME>  (1396) 
2-ETHENYL-3,4-DIHYDRO-6-HEXYL-7-HYDROXY-2-METHYL-2H-1-BENZOPYRAN

>  <SYNONYMS>  (1396) 


>  <SPECTRUM TYPE>  (1396) 
MS1

>  <INSTRUMENT TYPE>  (1396) 
EI-B

>  <INSTRUMENT>  (1396) 
JEOL JMS-D-300

>  <ION MODE>  (1396) 
P

>  <INCHIKEY>  (1396) 
JVEAWTAJDFFQKM-UHFFFAOYSA-N

>  <FORMULA>  (1396) 
C18H26O2

>  <EXACT MASS>  (1396) 
274.193280072

>  <MW>  (1396) 
274

>  <ID>  (1396) 
JP009929

>  <CONTRIBUTOR>  (1396) 
University of Tokyo Team, {Faculty of Engineering, University of Tokyo

>  <COMMENT>  (1396) 
SMILES=CCCCCCc(c1)c(O)cc(O2)c(CCC(C)(C=C)2)1
InChI=InChI=1S/C18H26O2/c1-4-6-7-8-9-14-12-15-10-11-18(3,5-2)20-17(15)13-16(14)19/h5,12-13,19H,2,4,6-11H2,1,3H3
computed SMILES=OC=1C=C2OC(C=C)(C)CCC2=CC1CCCCCC
accession=JP009929
date=2016.01.19 (Created 2008.10.21, modified 2011.05.06)
author=KURARAY CO., LTD.
license=CC BY-NC-SA
exact mass=274.19328
ionization energy=70 eV
ion type=[M]+*
computed spectral entropy=3.7893558165601395
computed normalized entropy=0.7320800232484563
SPLASH=splash10-0wtj-4890000000-8f9f77e2aad24b93d003
submitter=submitter = University of Tokyo Team (Faculty of Engineering, University of Tokyo)
MoNA Rating=3.75

>  <NUM PEAKS>  (1396) 
177

>  <MASS SPECTRAL PEAKS>  (1396) 
26 0.3
27 7.8
28 10.8
29 1.2
30 0.3
32 2
39 7.8
40 0.13
41 23
42 2
43 22.2
50 0.03
51 2.7
52 0.9
53 7.5
54 0.03
55 15.5
56 0.2
57 3.8
58 0.02
63 0.2
64 0.3
65 5.9
66 0.09
67 9.4
68 5.6
69 31.3
70 0.13
71 2
72 0.2
73 0.2
74 0.02
76 0.2
77 12.3
78 3.1
79 0.94
80 2.3
81 7.8
82 0.3
83 0.2
84 0.2
85 0.2
87 0.2
88 0.02
89 0.2
90 0.2
91 11.3
92 0.13
93 4.7
94 1.7
95 5.3
96 0.02
97 0.6
98 0.3
99 0.3
101 0.02
102 0.2
103 3
104 0.8
105 0.5
106 0.2
107 5.2
108 4.4
109 0.02
110 1.3
111 0.9
112 0.2
115 0.44
116 1.4
117 3.1
118 0.3
119 0.23
120 0.3
121 3.4
122 5.6
123 0.73
124 1.4
127 1.1
128 2.5
129 0.17
131 3
132 0.2
133 5
134 0.17
135 7.5
136 68.3
137 17.8
138 0.33
139 0.2
141 0.2
142 0.2
143 0.11
144 0.6
145 2.8
146 1.4
147 1.69
148 4.4
149 40.6
150 12
151 0.28
152 0.2
153 0.3
155 0.3
157 0.09
158 0.2
159 1.7
160 1.9
161 1.83
162 5.3
163 93.8
164 13
165 0.16
166 0.2
167 0.2
168 0.2
169 0.02
171 0.3
172 0.2
173 2
174 0.17
175 18.9
176 25
177 22.3
178 4.38
179 1.7
180 0.2
181 0.2
185 0.03
186 0.2
187 3.3
188 1.4
189 3.75
190 12
191 12.3
192 2.2
193 0.06
194 0.2
201 1.1
202 0.8
203 1.98
204 99.99
205 43.3
206 11.4
207 0.3
208 1.3
209 0.2
213 0.2
215 0.02
216 0.2
217 31.6
218 23.9
219 0.53
220 0.3
221 0.2
227 0.2
229 0.13
230 0.3
231 42.3
232 12.2
233 0.11
235 0.2
236 0.2
237 0.2
243 0.02
245 42
246 15.3
247 0.3
257 0.52
259 11.3
260 2
261 0.3
272 0.02
273 1.9
274 94.1
275 18.9
276 0.28
277 0.2

>  <PREDICTED SPECTRUM>  (1396) 
27 131
28 31
29 134
39 162
40 11
41 434
42 109
43 321
44 34
45 18
50 13
51 153
52 138
53 250
54 102
55 434
56 30
57 150
62 33
63 165
64 68
65 241
66 103
67 262
68 112
69 372
70 189
71 180
75 32
76 3
77 255
78 160
79 294
80 187
81 279
82 108
83 143
89 82
90 59
91 341
92 167
93 244
94 104
95 150
96 105
97 38
99 10
102 5
103 124
104 60
105 158
106 74
107 227
108 280
109 97
110 81
111 43
112 23
115 128
116 32
117 205
118 142
119 218
120 131
121 269
122 133
123 124
124 41
127 11
128 49
129 13
130 15
131 125
132 102
133 156
134 93
135 229
136 685
137 332
138 88
141 8
143 21
144 67
145 172
146 83
147 161
148 223
149 423
150 338
151 108
152 2
156 33
157 116
159 85
160 35
161 140
162 209
163 492
164 254
165 17
173 99
174 6
175 338
176 612
177 485
178 215
179 123
182 23
183 6
184 3
187 114
188 92
189 276
190 239
191 172
192 63
199 24
201 130
202 56
203 274
204 999
205 621
206 343
207 16
211 12
215 9
217 482
218 404
219 189
220 9
227 58
229 40
231 451
232 219
233 30
245 569
246 292
247 87
256 24
257 83
259 337
260 126
273 136
274 907
275 417
276 141
277 0

$$$$

     RDKit          2D

 17 17  0  0  0  0  0  0  0  0999 V2000
   -5.8457   -2.6250    0.0000 C   0  0  0  0  0  0  0  0  0  0  0  0
    4.5466    3.3750    0.0000 C   0  0  0  0  0  0  0  0  0  0  0  0
   -4.5466   -1.8750    0.0000 C   0  0  0  0  0  0  0  0  0  0  0  0
   -3.2476   -1.1250    0.0000 C   0  0  0  0  0  0  0  0  0  0  0  0
    0.6490    1.1258    0.0000 C   0  0  0  0  0  0  0  0  0  0  0  0
    1.9486    0.3750    0.0000 C   0  0  0  0  0  0  0  0  0  0  0  0
   -0.6500    0.3758    0.0000 C   0  0  0  0  0  0  0  0  0  0  0  0
    0.6500   -1.8758    0.0000 C   0  0  0  0  0  0  0  0  0  0  0  0
    1.9490   -1.1258    0.0000 C   0  0  0  0  0  0  0  0  0  0  0  0
   -0.6495   -1.1250    0.0000 C   0  0  0  0  0  0  0  0  0  0  0  0
    3.2476    1.1250    0.0000 C   0  0  0  0  0  0  0  0  0  0  0  0
   -1.9492    1.1256    0.0000 Cl  0  0  0  0  0  0  0  0  0  0  0  0
    0.6498   -3.3758    0.0000 Cl  0  0  0  0  0  0  0  0  0  0  0  0
    3.2482   -1.8756    0.0000 O   0  0  0  0  0  0  0  0  0  0  0  0
    4.5466    0.3750    0.0000 O   0  0  0  0  0  0  0  0  0  0  0  0
    3.2476    2.6250    0.0000 O   0  0  0  0  0  0  0  0  0  0  0  0
   -1.9486   -1.8750    0.0000 O   0  0  0  0  0  0  0  0  0  0  0  0
  3  1  3  0
  4  3  1  0
  6  5  2  0
  7  5  1  0
  9  6  1  0
  9  8  2  0
 10  7  2  0
 10  8  1  0
 11  6  1  0
 12  7  1  0
 13  8  1  0
 14  9  1  0
 15 11  2  0
 16  2  1  0
 16 11  1  0
 17  4  1  0
 17 10  1  0
M  END
>  <NAME>  (1397) 
METHYL 3,5-DICHLORO-2-HYDROXY-4-(2-PROPYNOXY)BENZOATE

>  <SYNONYMS>  (1397) 


>  <SPECTRUM TYPE>  (1397) 
MS1

>  <INSTRUMENT TYPE>  (1397) 
EI-B

>  <INSTRUMENT>  (1397) 
JEOL JMS-D-300

>  <ION MODE>  (1397) 
P

>  <INCHIKEY>  (1397) 
HFDROIQVJXCSEP-UHFFFAOYSA-N

>  <FORMULA>  (1397) 
C11H8Cl2O4

>  <EXACT MASS>  (1397) 
273.979964096

>  <MW>  (1397) 
274

>  <ID>  (1397) 
JP009928

>  <CONTRIBUTOR>  (1397) 
University of Tokyo Team, {Faculty of Engineering, University of Tokyo

>  <COMMENT>  (1397) 
SMILES=C#CCOc(c(Cl)1)c(Cl)c(O)c(C(=O)OC)c1
InChI=InChI=1S/C11H8Cl2O4/c1-3-4-17-10-7(12)5-6(11(15)16-2)9(14)8(10)13/h1,5,14H,4H2,2H3
computed SMILES=O=C(OC)C1=CC(Cl)=C(OCC#C)C(Cl)=C1O
accession=JP009928
date=2016.01.19 (Created 2008.10.21, modified 2011.05.06)
author=KURARAY CO., LTD.
license=CC BY-NC-SA
exact mass=273.97996
ionization energy=70 eV
ion type=[M]+*
computed spectral entropy=3.2563745957768506
computed normalized entropy=0.7040851324409071
SPLASH=splash10-0a4i-2290000000-e37b8ba44753cca9c0a7
submitter=submitter = University of Tokyo Team (Faculty of Engineering, University of Tokyo)
MoNA Rating=3.75

>  <NUM PEAKS>  (1397) 
102

>  <MASS SPECTRAL PEAKS>  (1397) 
27 0.7
28 0.9
29 0.2
36 0.17
37 1.7
38 1.7
39 18.4
50 0.19
51 1.9
53 4
59 3.8
61 0.17
62 1.2
63 1.9
69 0.3
72 0.16
73 1.2
75 0.9
77 3.1
84 0.19
85 3.3
86 1.7
87 2.2
96 0.07
97 1.7
99 1.7
101 0.5
103 0.29
109 0.5
111 1.9
112 1.4
113 0.5
115 0.7
119 3.4
120 1.6
121 0.28
122 0.5
123 5.2
124 0.7
125 0.1
129 0.7
131 1.7
133 1
139 0.17
140 0.3
141 0.3
143 0.2
147 0.45
148 1.4
149 2.9
150 1.7
151 0.36
152 1.7
153 1.7
154 1.7
155 0.03
156 0.3
157 0.3
158 0.2
159 0.14
166 1.7
167 0.3
168 1.7
175 2.38
176 1.6
177 14.5
178 0.7
179 0.81
180 3.4
181 1.6
182 1.7
186 0.21
187 1.4
188 1.7
189 0.9
194 0.1
195 1
204 1.7
205 1.2
206 0.21
207 99.99
208 10.9
209 32.6
210 0.29
211 1.6
213 1
214 10.3
215 0.31
216 6.4
217 2.9
239 6.7
241 0.17
242 7.2
243 3.4
244 4.6
245 0.19
246 1.7
247 0.2
274 18.4
276 1.21
277 1.7
278 2.1

>  <PREDICTED SPECTRUM>  (1397) 
35 4
36 32
37 84
38 117
39 250
40 48
41 125
43 105
44 80
49 107
50 148
51 267
52 118
53 388
54 20
55 100
57 123
58 90
59 100
60 37
61 224
62 237
63 238
64 144
65 182
66 87
67 142
68 72
69 187
71 112
72 132
73 254
74 186
75 305
76 120
77 310
78 145
79 174
80 131
81 86
82 74
83 116
84 166
85 220
86 189
87 228
88 47
89 138
90 73
91 92
92 174
93 117
94 143
95 100
96 21
97 207
98 76
99 215
100 91
101 66
102 106
103 130
104 91
105 164
106 59
107 62
108 118
109 163
110 80
111 342
112 107
113 34
114 55
115 15
116 54
117 48
118 4
119 70
120 105
121 132
122 98
123 307
124 334
125 195
126 274
127 172
128 68
129 43
130 76
131 9
132 75
133 184
134 131
135 246
136 240
137 192
138 101
139 184
140 10
150 135
151 238
152 286
153 100
154 68
155 82
156 4
157 161
158 157
159 140
160 181
161 167
162 79
163 63
164 151
165 200
166 62
167 85
171 23
173 45
174 41
175 9
178 23
179 315
180 103
182 160
183 208
184 255
185 150
186 358
187 236
188 229
189 175
190 50
191 81
192 45
195 14
199 165
200 236
201 1
202 55
207 140
208 34
210 133
211 146
212 205
213 115
214 534
215 322
216 462
217 179
218 159
219 118
240 72
242 999
243 580
244 688
245 392
246 178
247 93
248 29
274 538
275 199
276 468
277 137
278 132

$$$$

     RDKit          2D

 19 18  0  0  0  0  0  0  0  0999 V2000
    3.8971    6.7500    0.0000 C   0  0  0  0  0  0  0  0  0  0  0  0
    2.5981    9.0000    0.0000 C   0  0  0  0  0  0  0  0  0  0  0  0
   -2.5981    9.0000    0.0000 C   0  0  0  0  0  0  0  0  0  0  0  0
   -6.8300    8.6491    0.0000 C   0  0  0  0  0  0  0  0  0  0  0  0
  -11.6913    6.7500    0.0000 C   0  0  0  0  0  0  0  0  0  0  0  0
    0.0000    7.5000    0.0000 C   0  0  0  0  0  0  0  0  0  0  0  0
   -5.1962    7.5000    0.0000 C   0  0  0  0  0  0  0  0  0  0  0  0
    1.2990    6.7500    0.0000 C   0  0  0  0  0  0  0  0  0  0  0  0
   -1.2990    6.7500    0.0000 C   0  0  0  0  0  0  0  0  0  0  0  0
   -3.8971    6.7500    0.0000 C   0  0  0  0  0  0  0  0  0  0  0  0
   -6.4952    6.7500    0.0000 C   0  0  0  0  0  0  0  0  0  0  0  0
   -9.0933    5.2500    0.0000 C   0  0  0  0  0  0  0  0  0  0  0  0
    2.5981    7.5000    0.0000 C   0  0  0  0  0  0  0  0  0  0  0  0
   -2.5981    7.5000    0.0000 C   0  0  0  0  0  0  0  0  0  0  0  0
   -9.0933    6.7500    0.0000 C   0  0  0  0  0  0  0  0  0  0  0  0
   -7.7942    7.5000    0.0000 C   0  0  0  0  0  0  0  0  0  0  0  0
  -10.3923    7.5000    0.0000 N   0  0  0  0  0  0  0  0  0  0  0  0
  -10.3923    4.5000    0.0000 O   0  0  0  0  0  0  0  0  0  0  0  0
   -8.7584    8.6491    0.0000 O   0  0  0  0  0  0  0  0  0  0  0  0
  8  6  1  0
  9  6  1  0
 10  7  1  0
 11  7  1  0
 13  1  1  0
 13  2  1  0
 13  8  1  0
 14  3  1  0
 14  9  1  0
 14 10  1  0
 15 12  1  0
 16  4  1  0
 16 11  1  0
 16 15  1  0
 17  5  1  0
 17 15  1  0
 18 12  1  0
 19 16  1  0
M  END
>  <NAME>  (1398) 
2-(N-METHYLAMINO)-3,7,11-TRIMETHYL-1,3-DODECANEDIOL

>  <SYNONYMS>  (1398) 


>  <SPECTRUM TYPE>  (1398) 
MS1

>  <INSTRUMENT TYPE>  (1398) 
EI-B

>  <INSTRUMENT>  (1398) 
JEOL JMS-D-300

>  <ION MODE>  (1398) 
P

>  <INCHIKEY>  (1398) 
LCIWWMFNDBZAFP-UHFFFAOYSA-N

>  <FORMULA>  (1398) 
C16H35NO2

>  <EXACT MASS>  (1398) 
273.26677936000004

>  <MW>  (1398) 
273

>  <ID>  (1398) 
JP009927

>  <CONTRIBUTOR>  (1398) 
University of Tokyo Team, {Faculty of Engineering, University of Tokyo

>  <COMMENT>  (1398) 
SMILES=CC(C)CCCC(C)CCCC(C)(O)C(NC)CO
InChI=InChI=1S/C16H35NO2/c1-13(2)8-6-9-14(3)10-7-11-16(4,19)15(12-18)17-5/h13-15,17-19H,6-12H2,1-5H3
computed SMILES=OCC(NC)C(O)(C)CCCC(C)CCCC(C)C
accession=JP009927
date=2016.01.19 (Created 2008.10.21, modified 2011.05.06)
author=KURARAY CO., LTD.
license=CC BY-NC-SA
exact mass=273.26678
ionization energy=70 eV
ion type=[M]+*
computed spectral entropy=1.8766134370924974
computed normalized entropy=0.5321672086539602
SPLASH=splash10-00di-9000000000-e01aa78778aed14d2ff7
submitter=submitter = University of Tokyo Team (Faculty of Engineering, University of Tokyo)
MoNA Rating=3.75

>  <NUM PEAKS>  (1398) 
34

>  <MASS SPECTRAL PEAKS>  (1398) 
28 0.9
29 1.1
30 0.3
41 0.31
42 2.8
43 7.5
44 5
45 0.17
55 3.4
56 3.6
57 14.5
58 2.97
59 0.9
69 2.8
71 3.3
73 0.16
74 99.99
75 3.3
83 1.1
84 0.16
86 1.4
88 4.5
97 0.2
100 0.36
118 4.8
242 4.1
254 0.6
255 0.01
256 0.3
258 0.9
259 0.2
268 0.15
272 0.4
274 0.2

>  <PREDICTED SPECTRUM>  (1398) 
28 1
29 200
30 315
31 49
41 145
42 24
43 324
45 151
55 560
56 536
57 786
58 999
59 393
69 497
70 242
71 264
72 414
73 101
74 873
82 164
83 199
86 126
88 252
90 106
97 320
118 781
119 87
120 32
212 18
242 563
258 357

$$$$

     RDKit          2D

 20 19  0  0  0  0  0  0  0  0999 V2000
    4.8714    8.8125    0.0000 C   0  0  0  0  0  0  0  0  0  0  0  0
  -14.6142    9.5625    0.0000 C   0  0  0  0  0  0  0  0  0  0  0  0
  -13.3151    7.3125    0.0000 C   0  0  0  0  0  0  0  0  0  0  0  0
    2.2733    7.3125    0.0000 C   0  0  0  0  0  0  0  0  0  0  0  0
   -8.1190    7.3125    0.0000 C   0  0  0  0  0  0  0  0  0  0  0  0
   -2.9228    7.3125    0.0000 C   0  0  0  0  0  0  0  0  0  0  0  0
    3.5724    9.5625    0.0000 C   0  0  0  0  0  0  0  0  0  0  0  0
  -10.7171    8.8125    0.0000 C   0  0  0  0  0  0  0  0  0  0  0  0
   -0.3248    8.8125    0.0000 C   0  0  0  0  0  0  0  0  0  0  0  0
   -5.5209    8.8125    0.0000 C   0  0  0  0  0  0  0  0  0  0  0  0
  -12.0161    9.5625    0.0000 C   0  0  0  0  0  0  0  0  0  0  0  0
    0.9743    9.5625    0.0000 C   0  0  0  0  0  0  0  0  0  0  0  0
   -9.4180    9.5625    0.0000 C   0  0  0  0  0  0  0  0  0  0  0  0
   -1.6238    9.5625    0.0000 C   0  0  0  0  0  0  0  0  0  0  0  0
   -6.8200    9.5625    0.0000 C   0  0  0  0  0  0  0  0  0  0  0  0
   -4.2219    9.5625    0.0000 C   0  0  0  0  0  0  0  0  0  0  0  0
  -13.3151    8.8125    0.0000 C   0  0  0  0  0  0  0  0  0  0  0  0
    2.2733    8.8125    0.0000 C   0  0  0  0  0  0  0  0  0  0  0  0
   -8.1190    8.8125    0.0000 C   0  0  0  0  0  0  0  0  0  0  0  0
   -2.9228    8.8125    0.0000 C   0  0  0  0  0  0  0  0  0  0  0  0
  7  1  2  0
 11  8  1  0
 12  9  1  0
 13  8  1  0
 14  9  1  0
 15 10  1  0
 16 10  1  0
 17  2  1  0
 17  3  1  0
 17 11  2  0
 18  4  2  0
 18  7  1  0
 18 12  1  0
 19  5  1  0
 19 13  1  0
 15 19  2  0
 20  6  1  0
 14 20  2  0
 20 16  1  0
M  END
>  <NAME>  (1399) 
3-METHYLENE-7,11,15-TRIMETHYL-1,6,10,14-HEXADECATETRAENE

>  <SYNONYMS>  (1399) 


>  <SPECTRUM TYPE>  (1399) 
MS1

>  <INSTRUMENT TYPE>  (1399) 
EI-B

>  <INSTRUMENT>  (1399) 
JEOL JMS-D-300

>  <ION MODE>  (1399) 
P

>  <INCHIKEY>  (1399) 
XSIVJVJUIXOEPW-YTOAGJIJSA-N

>  <FORMULA>  (1399) 
C20H32

>  <EXACT MASS>  (1399) 
272.250401024

>  <MW>  (1399) 
272

>  <ID>  (1399) 
JP009926

>  <CONTRIBUTOR>  (1399) 
University of Tokyo Team, {Faculty of Engineering, University of Tokyo

>  <COMMENT>  (1399) 
SMILES=C=CC(=C)CCC=C(C)CCC=C(C)CCC=C(C)C
InChI=InChI=1S/C20H32/c1-7-18(4)12-9-14-20(6)16-10-15-19(5)13-8-11-17(2)3/h7,11,14-15H,1,4,8-10,12-13,16H2,2-3,5-6H3/b19-15+,20-14+
computed SMILES=C=CC(=C)CCC=C(C)CCC=C(C)CCC=C(C)C
accession=JP009926
date=2016.01.19 (Created 2008.10.21, modified 2011.05.06)
author=KURARAY CO., LTD.
license=CC BY-NC-SA
exact mass=272.2504
ionization energy=70 eV
ion type=[M]+*
computed spectral entropy=2.9453211419587295
computed normalized entropy=0.8219075139666108
SPLASH=splash10-014i-9200000000-1e868c0fcc68d2727aef
submitter=submitter = University of Tokyo Team (Faculty of Engineering, University of Tokyo)
MoNA Rating=3.75

>  <NUM PEAKS>  (1399) 
36

>  <MASS SPECTRAL PEAKS>  (1399) 
27 7.2
29 9.4
39 10.8
41 7.72
43 9.2
53 15.9
55 27.8
65 0.47
67 26.9
68 17.5
69 99.99
70 0.97
77 9.7
79 21.6
81 54.7
82 0.48
91 12.2
92 4.2
93 48.9
94 0.62
95 17
105 7.2
107 14
109 0.72
119 9.1
120 13.8
121 7.8
123 0.39
133 15.6
134 4.5
135 5.9
137 0.27
147 4.7
161 5.5
181 0.2
272 2.5

>  <PREDICTED SPECTRUM>  (1399) 
26 27
27 154
28 56
29 213
30 36
31 18
37 7
38 22
39 232
40 88
41 741
42 138
43 364
44 57
45 15
50 68
51 117
52 82
53 348
54 144
55 514
56 152
57 198
58 57
59 68
60 31
63 14
65 147
66 137
67 515
68 377
69 999
70 219
71 173
72 26
76 8
77 277
78 136
79 397
80 301
81 795
82 295
83 166
84 72
85 96
86 10
89 28
91 290
92 184
93 469
94 242
95 435
96 128
97 130
102 6
103 76
104 36
105 264
106 134
107 370
108 221
109 376
110 89
111 81
115 54
117 112
118 64
119 297
120 173
121 392
122 188
123 383
124 141
125 52
127 39
128 20
129 69
130 37
131 86
132 43
133 178
134 166
135 332
136 302
137 393
138 85
142 13
144 25
145 107
146 42
147 169
148 180
149 219
150 112
151 12
155 22
157 9
159 91
160 83
161 215
162 95
163 67
165 4
171 71
172 10
173 92
174 58
175 81
176 75
177 113
178 61
185 48
186 9
187 84
188 47
189 128
190 111
191 86
192 48
193 58
197 5
201 81
202 17
203 118
204 96
215 57
216 40
217 39
229 179
230 88
243 30
244 18
257 130
258 25
271 14
272 206
273 135
274 5

$$$$

     RDKit          2D

 20 22  0  0  0  0  0  0  0  0999 V2000
    4.0247   -0.4635    0.0000 C   0  0  0  0  0  0  0  0  0  0  0  0
   -3.8971   -2.2500    0.0000 C   0  0  0  0  0  0  0  0  0  0  0  0
   -3.8971    3.7500    0.0000 C   0  0  0  0  0  0  0  0  0  0  0  0
    2.7256    2.7135    0.0000 C   0  0  0  0  0  0  0  0  0  0  0  0
    0.8165    3.3338    0.0000 C   0  0  0  0  0  0  0  0  0  0  0  0
    0.8165   -1.8338    0.0000 C   0  0  0  0  0  0  0  0  0  0  0  0
    2.7256   -1.2135    0.0000 C   0  0  0  0  0  0  0  0  0  0  0  0
   -1.2990   -0.7500    0.0000 C   0  0  0  0  0  0  0  0  0  0  0  0
   -1.2990    2.2500    0.0000 C   0  0  0  0  0  0  0  0  0  0  0  0
   -5.1962    0.0000    0.0000 C   0  0  0  0  0  0  0  0  0  0  0  0
    2.3083    0.7500    0.0000 C   0  0  0  0  0  0  0  0  0  0  0  0
   -3.8971   -0.7500    0.0000 C   0  0  0  0  0  0  0  0  0  0  0  0
   -3.8971    2.2500    0.0000 C   0  0  0  0  0  0  0  0  0  0  0  0
   -2.5981    0.0000    0.0000 C   0  0  0  0  0  0  0  0  0  0  0  0
   -2.5981    1.5000    0.0000 C   0  0  0  0  0  0  0  0  0  0  0  0
    0.0000    1.5000    0.0000 C   0  0  0  0  0  0  0  0  0  0  0  0
   -0.0000   -0.0000    0.0000 C   0  0  0  0  0  0  0  0  0  0  0  0
    1.4266    1.9635    0.0000 C   0  0  0  0  0  0  0  0  0  0  0  0
    1.4266   -0.4635    0.0000 C   0  0  0  0  0  0  0  0  0  0  0  0
   -5.1962    1.5000    0.0000 O   0  0  0  0  0  0  0  0  0  0  0  0
  7  1  1  0
 12  2  1  0
 12 10  1  0
 13  3  1  0
 14  8  2  0
 14 12  1  0
 15  9  2  0
 15 13  1  0
 15 14  1  0
 16  9  1  0
 17  8  1  0
 17 16  2  0
 18  4  1  0
 18  5  1  0
 18 11  1  0
 18 16  1  0
 19  6  1  0
 19  7  1  0
 19 11  1  0
 19 17  1  0
 20 10  1  0
 20 13  1  0
M  END
>  <NAME>  (1400) 
3-ETHYL-1,1,3,5,8-PENTAMETHYL-5H,6H-PYRANO(4,5-F)INDAN

>  <SYNONYMS>  (1400) 


>  <SPECTRUM TYPE>  (1400) 
MS1

>  <INSTRUMENT TYPE>  (1400) 
EI-B

>  <INSTRUMENT>  (1400) 
JEOL JMS-D-300

>  <ION MODE>  (1400) 
P

>  <INCHIKEY>  (1400) 
CSEKCKNHEKPVHN-UHFFFAOYSA-N

>  <FORMULA>  (1400) 
C19H28O

>  <EXACT MASS>  (1400) 
272.214015516

>  <MW>  (1400) 
272

>  <ID>  (1400) 
JP009925

>  <CONTRIBUTOR>  (1400) 
University of Tokyo Team, {Faculty of Engineering, University of Tokyo

>  <COMMENT>  (1400) 
SMILES=CCC(C)(C1)c(c2)c(cc(C(C)3)c(C(C)CO3)2)C(C)(C)1
InChI=InChI=1S/C19H28O/c1-7-19(6)11-18(4,5)16-9-15-13(3)20-10-12(2)14(15)8-17(16)19/h8-9,12-13H,7,10-11H2,1-6H3
computed SMILES=O1CC(C=2C=C3C(=CC2C1C)C(C)(C)CC3(C)CC)C
accession=JP009925
date=2016.01.19 (Created 2008.10.21, modified 2011.05.06)
author=KURARAY CO., LTD.
license=CC BY-NC-SA
exact mass=272.21402
ionization energy=70 eV
ion type=[M]+*
computed spectral entropy=1.5315922869040137
computed normalized entropy=0.8547979308650567
SPLASH=splash10-004i-0090000000-837a5e1484640d8c3c65
submitter=submitter = University of Tokyo Team (Faculty of Engineering, University of Tokyo)
MoNA Rating=3.75

>  <NUM PEAKS>  (1400) 
6

>  <MASS SPECTRAL PEAKS>  (1400) 
215 44.9
229 99.99
230 23.8
243 8.89
257 31.4
272 20.9

>  <PREDICTED SPECTRUM>  (1400) 
43 18
77 0
103 4
105 189
115 297
116 25
117 44
128 163
129 134
130 78
131 51
141 146
142 82
143 145
144 171
145 199
155 26
156 34
157 202
158 46
168 16
169 83
170 78
171 296
173 30
175 104
183 138
184 44
185 337
186 445
187 144
197 54
199 279
200 124
201 193
213 162
214 203
215 66
216 16
227 160
228 209
229 516
230 105
241 22
243 999
244 305
257 613
258 114
271 269
272 797
273 144

$$$$

     RDKit          2D

 20 21  0  0  0  0  0  0  0  0999 V2000
   -5.2215   -0.7635    0.0000 C   0  0  0  0  0  0  0  0  0  0  0  0
    6.4917   -3.0351    0.0000 C   0  0  0  0  0  0  0  0  0  0  0  0
    5.2403   -0.7747    0.0000 C   0  0  0  0  0  0  0  0  0  0  0  0
    5.2156   -3.7746    0.0000 C   0  0  0  0  0  0  0  0  0  0  0  0
    3.8842   -1.5136    0.0000 C   0  0  0  0  0  0  0  0  0  0  0  0
   -1.3248   -3.0144    0.0000 C   0  0  0  0  0  0  0  0  0  0  0  0
   -0.0248   -0.7627    0.0000 C   0  0  0  0  0  0  0  0  0  0  0  0
   -0.0258   -3.7644    0.0000 C   0  0  0  0  0  0  0  0  0  0  0  0
    1.2742   -1.5127    0.0000 C   0  0  0  0  0  0  0  0  0  0  0  0
   -3.9224   -1.5135    0.0000 C   0  0  0  0  0  0  0  0  0  0  0  0
    6.5041   -1.5352    0.0000 C   0  0  0  0  0  0  0  0  0  0  0  0
   -1.3244   -1.5135    0.0000 C   0  0  0  0  0  0  0  0  0  0  0  0
    3.8718   -3.0135    0.0000 C   0  0  0  0  0  0  0  0  0  0  0  0
    1.2737   -3.0135    0.0000 C   0  0  0  0  0  0  0  0  0  0  0  0
    7.8129   -0.8024    0.0000 C   0  0  0  0  0  0  0  0  0  0  0  0
   -3.9224   -3.0135    0.0000 O   0  0  0  0  0  0  0  0  0  0  0  0
    9.1019   -1.5694    0.0000 O   0  0  0  0  0  0  0  0  0  0  0  0
    7.8326    0.6975    0.0000 O   0  0  0  0  0  0  0  0  0  0  0  0
   -2.6234   -0.7635    0.0000 O   0  0  0  0  0  0  0  0  0  0  0  0
    2.5728   -3.7635    0.0000 O   0  0  0  0  0  0  0  0  0  0  0  0
  4  2  2  0
  5  3  1  0
  8  6  2  0
  9  7  1  0
 10  1  1  0
 11  2  1  0
 11  3  2  0
 12  6  1  0
 12  7  2  0
 13  4  1  0
 13  5  2  0
 14  8  1  0
 14  9  2  0
 15 11  1  0
 16 10  2  0
 17 15  1  0
 18 15  2  0
 19 10  1  0
 19 12  1  0
 20 13  1  0
 20 14  1  0
M  END
>  <NAME>  (1401) 
4-(4-ACETOXYPHENOXY)BENZOIC ACID

>  <SYNONYMS>  (1401) 


>  <SPECTRUM TYPE>  (1401) 
MS1

>  <INSTRUMENT TYPE>  (1401) 
EI-B

>  <INSTRUMENT>  (1401) 
JEOL JMS-D-300

>  <ION MODE>  (1401) 
P

>  <INCHIKEY>  (1401) 
BALYRASTARBISG-UHFFFAOYSA-N

>  <FORMULA>  (1401) 
C15H12O5

>  <EXACT MASS>  (1401) 
272.068473484

>  <MW>  (1401) 
272

>  <ID>  (1401) 
JP009923

>  <CONTRIBUTOR>  (1401) 
University of Tokyo Team, {Faculty of Engineering, University of Tokyo

>  <COMMENT>  (1401) 
SMILES=CC(=O)Oc(c2)ccc(c2)Oc(c1)ccc(C(O)=O)c1
InChI=InChI=1S/C15H12O5/c1-10(16)19-12-6-8-14(9-7-12)20-13-4-2-11(3-5-13)15(17)18/h2-9H,1H3,(H,17,18)
computed SMILES=O=C(O)C1=CC=C(OC2=CC=C(OC(=O)C)C=C2)C=C1
accession=JP009923
date=2016.01.19 (Created 2008.10.21, modified 2011.05.06)
author=KURARAY CO., LTD.
license=CC BY-NC-SA
exact mass=272.06847
ionization energy=70 eV
ion type=[M]+*
computed spectral entropy=1.6802562375453909
computed normalized entropy=0.46888443075154973
SPLASH=splash10-001i-1090000000-6429287dfc1b01cea177
submitter=submitter = University of Tokyo Team (Faculty of Engineering, University of Tokyo)
MoNA Rating=3.75

>  <NUM PEAKS>  (1401) 
36

>  <MASS SPECTRAL PEAKS>  (1401) 
28 3
39 1.4
42 0.9
43 0.53
44 0.3
50 1.3
51 1.3
53 0.05
54 0.2
63 1.3
64 0.6
65 0.52
75 1.1
76 1.7
81 1.6
92 0.12
93 0.6
104 1.1
105 1.3
109 0.47
121 0.8
127 1.1
128 1.9
129 0.16
139 0.2
156 0.2
157 2.8
158 0.02
184 1.6
185 1.6
213 6.1
230 99.99
231 14.1
232 1.1
255 0.2
272 4.2

>  <PREDICTED SPECTRUM>  (1401) 
14 9
15 5
26 8
27 19
29 0
38 37
39 108
40 14
41 59
42 87
43 417
44 97
45 49
49 12
50 91
51 126
52 88
53 110
54 56
55 56
57 43
62 26
63 120
64 132
65 172
66 13
69 24
74 52
75 62
76 108
77 105
78 27
80 9
81 15
82 23
83 32
84 4
91 33
92 72
93 45
94 8
101 39
102 50
103 42
104 23
105 64
109 11
110 24
112 11
113 33
114 17
115 74
121 124
127 15
128 90
129 24
130 20
131 4
143 23
145 17
155 142
156 35
157 193
158 116
159 14
171 23
173 42
184 134
185 158
186 114
201 30
213 140
229 19
230 999
231 360
232 131
272 258
273 91

$$$$

     RDKit          2D

 20 21  0  0  0  0  0  0  0  0999 V2000
    7.1511   -3.4033    0.0000 C   0  0  0  0  0  0  0  0  0  0  0  0
    1.9492   -0.4176    0.0000 C   0  0  0  0  0  0  0  0  0  0  0  0
    3.2482   -1.1676    0.0000 C   0  0  0  0  0  0  0  0  0  0  0  0
    0.6547   -1.1598    0.0000 C   0  0  0  0  0  0  0  0  0  0  0  0
   -3.2348   -0.3803    0.0000 C   0  0  0  0  0  0  0  0  0  0  0  0
   -4.5670   -2.5940    0.0000 C   0  0  0  0  0  0  0  0  0  0  0  0
   -1.9564   -1.1159    0.0000 C   0  0  0  0  0  0  0  0  0  0  0  0
   -3.2492   -3.3993    0.0000 C   0  0  0  0  0  0  0  0  0  0  0  0
    1.9532   -3.4106    0.0000 C   0  0  0  0  0  0  0  0  0  0  0  0
    5.8508   -2.6554    0.0000 C   0  0  0  0  0  0  0  0  0  0  0  0
   -4.5401   -1.1193    0.0000 C   0  0  0  0  0  0  0  0  0  0  0  0
   -1.9439   -2.6602    0.0000 C   0  0  0  0  0  0  0  0  0  0  0  0
    3.2527   -2.6598    0.0000 C   0  0  0  0  0  0  0  0  0  0  0  0
    0.6542   -2.6606    0.0000 C   0  0  0  0  0  0  0  0  0  0  0  0
   -5.8290   -0.3521    0.0000 C   0  0  0  0  0  0  0  0  0  0  0  0
    5.8483   -1.1554    0.0000 O   0  0  0  0  0  0  0  0  0  0  0  0
   -7.1379   -1.0847    0.0000 O   0  0  0  0  0  0  0  0  0  0  0  0
   -5.8090    1.1478    0.0000 O   0  0  0  0  0  0  0  0  0  0  0  0
    4.5530   -3.4076    0.0000 O   0  0  0  0  0  0  0  0  0  0  0  0
   -0.6450   -3.4104    0.0000 O   0  0  0  0  0  0  0  0  0  0  0  0
  3  2  2  0
  4  2  1  0
  7  5  2  0
  8  6  1  0
 10  1  1  0
 11  5  1  0
 11  6  2  0
 12  7  1  0
 12  8  2  0
 13  3  1  0
 13  9  2  0
 14  4  2  0
 14  9  1  0
 15 11  1  0
 16 10  2  0
 17 15  1  0
 18 15  2  0
 19 10  1  0
 19 13  1  0
 20 12  1  0
 20 14  1  0
M  END
>  <NAME>  (1402) 
4-(3-ACETOXYPHENOXY)BENZOIC ACID

>  <SYNONYMS>  (1402) 


>  <SPECTRUM TYPE>  (1402) 
MS1

>  <INSTRUMENT TYPE>  (1402) 
EI-B

>  <INSTRUMENT>  (1402) 
JEOL JMS-D-300

>  <ION MODE>  (1402) 
P

>  <INCHIKEY>  (1402) 
PYJZFSCAKHRLSC-UHFFFAOYSA-N

>  <FORMULA>  (1402) 
C15H12O5

>  <EXACT MASS>  (1402) 
272.068473484

>  <MW>  (1402) 
272

>  <ID>  (1402) 
JP009922

>  <CONTRIBUTOR>  (1402) 
University of Tokyo Team, {Faculty of Engineering, University of Tokyo

>  <COMMENT>  (1402) 
SMILES=CC(=O)Oc(c2)cc(cc2)Oc(c1)ccc(C(O)=O)c1
InChI=InChI=1S/C15H12O5/c1-10(16)19-13-3-2-4-14(9-13)20-12-7-5-11(6-8-12)15(17)18/h2-9H,1H3,(H,17,18)
computed SMILES=O=C(O)C1=CC=C(OC=2C=CC=C(OC(=O)C)C2)C=C1
accession=JP009922
date=2016.01.19 (Created 2008.10.21, modified 2011.05.06)
author=KURARAY CO., LTD.
license=CC BY-NC-SA
exact mass=272.06847
ion type=[M]+*
ionization energy=70 eV
computed spectral entropy=2.464044440114733
computed normalized entropy=0.5860224903840036
SPLASH=splash10-001i-2190000000-41019f60bfcfd67e184a
submitter=submitter = University of Tokyo Team (Faculty of Engineering, University of Tokyo)
MoNA Rating=3.75

>  <NUM PEAKS>  (1402) 
67

>  <MASS SPECTRAL PEAKS>  (1402) 
28 4.8
32 1.7
38 0.6
39 0.28
41 0.5
42 1.7
43 12.5
44 0.08
50 1.1
51 1.4
52 0.8
53 0.09
55 0.3
62 0.3
63 3.4
64 0.5
65 6.7
66 0.3
69 0.9
74 0.03
75 0.8
76 0.8
77 0.8
78 0.08
81 0.3
92 3
93 2
103 0.03
110 0.9
115 1.6
116 0.3
117 0.13
121 1.3
122 0.3
127 0.9
128 0.5
129 5.9
130 0.9
131 0.3
139 0.09
141 0.2
155 0.9
156 1.6
157 0.63
158 1.3
162 0.9
167 0.5
169 0.02
183 0.3
184 2.5
185 4.2
186 0.03
201 0.3
202 1.6
211 0.5
212 0.17
213 6.7
214 0.6
229 0.3
230 99.99
231 14.2
232 1.7
244 0.6
248 0.03
255 0.8
272 9.8
273 1.7

>  <PREDICTED SPECTRUM>  (1402) 
14 18
15 44
26 12
27 43
28 13
29 11
37 2
38 46
39 118
40 37
41 59
42 72
43 356
44 62
45 69
49 14
50 99
51 115
52 47
53 95
54 34
55 63
57 36
62 45
63 124
64 105
65 159
66 36
69 36
73 14
74 62
75 62
76 103
77 115
78 30
79 7
82 6
84 10
87 15
89 54
91 20
92 76
93 33
99 7
101 86
102 89
103 78
104 26
105 53
111 8
112 22
113 39
114 6
115 108
121 36
125 18
126 31
127 75
128 89
129 98
130 39
131 27
141 5
142 2
145 96
146 12
148 6
155 172
156 79
157 226
158 123
167 31
171 18
173 108
174 65
175 56
183 24
184 182
185 155
186 90
201 116
202 141
203 21
213 196
214 13
228 10
229 47
230 999
231 346
232 100
255 5
272 261
273 107

$$$$

     RDKit          2D

 19 18  0  0  0  0  0  0  0  0999 V2000
    4.8714    7.3125    0.0000 C   0  0  0  0  0  0  0  0  0  0  0  0
    3.5724    9.5625    0.0000 C   0  0  0  0  0  0  0  0  0  0  0  0
   -1.6238    9.5625    0.0000 C   0  0  0  0  0  0  0  0  0  0  0  0
   -6.8200    9.5625    0.0000 C   0  0  0  0  0  0  0  0  0  0  0  0
  -13.3151    7.3125    0.0000 C   0  0  0  0  0  0  0  0  0  0  0  0
    0.9743    8.0625    0.0000 C   0  0  0  0  0  0  0  0  0  0  0  0
   -4.2219    8.0625    0.0000 C   0  0  0  0  0  0  0  0  0  0  0  0
   -9.4180    8.0625    0.0000 C   0  0  0  0  0  0  0  0  0  0  0  0
    2.2733    7.3125    0.0000 C   0  0  0  0  0  0  0  0  0  0  0  0
   -0.3248    7.3125    0.0000 C   0  0  0  0  0  0  0  0  0  0  0  0
   -2.9228    7.3125    0.0000 C   0  0  0  0  0  0  0  0  0  0  0  0
   -5.5209    7.3125    0.0000 C   0  0  0  0  0  0  0  0  0  0  0  0
   -8.1190    7.3125    0.0000 C   0  0  0  0  0  0  0  0  0  0  0  0
  -10.7171    7.3125    0.0000 C   0  0  0  0  0  0  0  0  0  0  0  0
    3.5724    8.0625    0.0000 C   0  0  0  0  0  0  0  0  0  0  0  0
   -1.6238    8.0625    0.0000 C   0  0  0  0  0  0  0  0  0  0  0  0
   -6.8200    8.0625    0.0000 C   0  0  0  0  0  0  0  0  0  0  0  0
  -12.0161    8.0625    0.0000 C   0  0  0  0  0  0  0  0  0  0  0  0
  -12.0161    9.5625    0.0000 O   0  0  0  0  0  0  0  0  0  0  0  0
  9  6  1  0
 10  6  1  0
 11  7  1  0
 12  7  1  0
 13  8  1  0
 14  8  1  0
 15  1  1  0
 15  2  1  0
 15  9  1  0
 16  3  1  0
 16 10  1  0
 16 11  1  0
 17  4  1  0
 17 12  1  0
 17 13  1  0
 18  5  1  0
 18 14  1  0
 19 18  2  0
M  END
>  <NAME>  (1403) 
6,10,14-TRIMETHYL-PENTADECAN-2-ONE

>  <SYNONYMS>  (1403) 


>  <SPECTRUM TYPE>  (1403) 
MS1

>  <INSTRUMENT TYPE>  (1403) 
EI-B

>  <INSTRUMENT>  (1403) 
JEOL JMS-D-300

>  <ION MODE>  (1403) 
P

>  <INCHIKEY>  (1403) 
WHWDWIHXSPCOKZ-UHFFFAOYSA-N

>  <FORMULA>  (1403) 
C18H36O

>  <EXACT MASS>  (1403) 
268.276615772

>  <MW>  (1403) 
268

>  <ID>  (1403) 
JP009920

>  <CONTRIBUTOR>  (1403) 
University of Tokyo Team, {Faculty of Engineering, University of Tokyo

>  <COMMENT>  (1403) 
SMILES=CC(C)CCCC(C)CCCC(C)CCCC(C)=O
InChI=InChI=1S/C18H36O/c1-15(2)9-6-10-16(3)11-7-12-17(4)13-8-14-18(5)19/h15-17H,6-14H2,1-5H3
computed SMILES=O=C(C)CCCC(C)CCCC(C)CCCC(C)C
accession=JP009920
date=2016.01.19 (Created 2008.10.21, modified 2011.05.06)
author=KURARAY CO., LTD.
license=CC BY-NC-SA
exact mass=268.27662
ionization energy=70 eV
ion type=[M]+*
computed spectral entropy=3.2184747080704157
computed normalized entropy=0.7960509266048026
SPLASH=splash10-0a4l-9200000000-f2203c7f88d3a1f991cf
submitter=submitter = University of Tokyo Team (Faculty of Engineering, University of Tokyo)
MoNA Rating=3.75

>  <NUM PEAKS>  (1403) 
57

>  <MASS SPECTRAL PEAKS>  (1403) 
27 3.3
29 7.8
39 2.6
41 2.36
42 5.2
43 96.6
44 2.6
55 3.1
56 14.7
57 44.1
58 99.99
59 4.64
67 4.8
68 7.2
69 28.1
70 1.55
71 60.5
72 4.8
81 15.2
82 1.21
83 19.5
84 6.7
85 34.5
86 0.33
95 25.9
96 11.6
97 12.1
98 0.31
99 5.5
109 27.8
110 20.3
111 1.12
112 3.4
113 11.2
123 14.1
124 1.9
125 10.2
126 8.8
127 3.6
137 0.81
138 7.1
139 2.1
140 5.9
141 0.19
151 2.2
152 2.1
165 8.6
179 0.64
180 2.2
194 2.9
208 1.7
210 0.74
225 2.4
235 1.6
250 19.3
253 0.19
268 1.7

>  <PREDICTED SPECTRUM>  (1403) 
27 90
29 173
39 94
40 41
41 446
42 216
43 839
44 261
45 134
53 97
54 65
55 547
56 561
57 935
58 802
59 435
67 165
68 194
69 515
70 400
71 999
72 259
73 42
79 14
81 253
82 195
83 257
84 210
85 539
86 230
87 11
95 232
96 213
97 261
98 58
99 138
100 13
109 200
110 163
111 288
112 82
113 336
114 146
123 32
124 111
125 70
126 281
127 158
128 135
137 15
138 58
139 10
140 34
141 98
142 38
153 1
154 35
155 105
156 37
167 15
168 12
169 30
180 39
182 56
183 217
184 7
194 16
195 23
210 58
211 129
212 37
225 132
226 9
251 53
252 43
253 131
267 0
268 278
269 73

$$$$

     RDKit          2D

 19 18  0  0  0  0  0  0  0  0999 V2000
    4.5466    7.8750    0.0000 C   0  0  0  0  0  0  0  0  0  0  0  0
  -13.6399    7.8750    0.0000 C   0  0  0  0  0  0  0  0  0  0  0  0
  -12.3409   10.1250    0.0000 C   0  0  0  0  0  0  0  0  0  0  0  0
   -7.1447   10.1250    0.0000 C   0  0  0  0  0  0  0  0  0  0  0  0
   -1.9486   10.1250    0.0000 C   0  0  0  0  0  0  0  0  0  0  0  0
    3.2476    8.6250    0.0000 C   0  0  0  0  0  0  0  0  0  0  0  0
   -9.7428    8.6250    0.0000 C   0  0  0  0  0  0  0  0  0  0  0  0
   -4.5466    8.6250    0.0000 C   0  0  0  0  0  0  0  0  0  0  0  0
  -11.0418    7.8750    0.0000 C   0  0  0  0  0  0  0  0  0  0  0  0
   -8.4437    7.8750    0.0000 C   0  0  0  0  0  0  0  0  0  0  0  0
   -5.8457    7.8750    0.0000 C   0  0  0  0  0  0  0  0  0  0  0  0
   -3.2476    7.8750    0.0000 C   0  0  0  0  0  0  0  0  0  0  0  0
   -0.6495    7.8750    0.0000 C   0  0  0  0  0  0  0  0  0  0  0  0
  -12.3409    8.6250    0.0000 C   0  0  0  0  0  0  0  0  0  0  0  0
   -7.1447    8.6250    0.0000 C   0  0  0  0  0  0  0  0  0  0  0  0
   -1.9486    8.6250    0.0000 C   0  0  0  0  0  0  0  0  0  0  0  0
    0.6495    8.6250    0.0000 C   0  0  0  0  0  0  0  0  0  0  0  0
    0.6495   10.1250    0.0000 O   0  0  0  0  0  0  0  0  0  0  0  0
    1.9486    7.8750    0.0000 O   0  0  0  0  0  0  0  0  0  0  0  0
  6  1  1  0
  9  7  1  0
 10  7  1  0
 11  8  1  0
 12  8  1  0
 14  2  1  0
 14  3  1  0
 14  9  2  0
 15  4  1  0
 15 10  1  0
 15 11  1  0
 16  5  1  0
 16 12  1  0
 16 13  1  0
 17 13  1  0
 18 17  2  0
 19  6  1  0
 19 17  1  0
M  END
>  <NAME>  (1404) 
ETHYL 3,7,11-TRIMETHYL-10-DODECENOATE

>  <SYNONYMS>  (1404) 


>  <SPECTRUM TYPE>  (1404) 
MS1

>  <INSTRUMENT TYPE>  (1404) 
EI-B

>  <INSTRUMENT>  (1404) 
JEOL JMS-D-300

>  <ION MODE>  (1404) 
P

>  <INCHIKEY>  (1404) 
RLJQAAPXMHYQJM-UHFFFAOYSA-N

>  <FORMULA>  (1404) 
C17H32O2

>  <EXACT MASS>  (1404) 
268.240230264

>  <MW>  (1404) 
268

>  <ID>  (1404) 
JP009919

>  <CONTRIBUTOR>  (1404) 
University of Tokyo Team, {Faculty of Engineering, University of Tokyo

>  <COMMENT>  (1404) 
SMILES=CCOC(=O)CC(C)CCCC(C)CCC=C(C)C
InChI=InChI=1S/C17H32O2/c1-6-19-17(18)13-16(5)12-8-11-15(4)10-7-9-14(2)3/h9,15-16H,6-8,10-13H2,1-5H3
computed SMILES=O=C(OCC)CC(C)CCCC(C)CCC=C(C)C
accession=JP009919
date=2016.01.19 (Created 2008.10.21, modified 2011.05.06)
author=KURARAY CO., LTD.
license=CC BY-NC-SA
exact mass=268.24023
ionization energy=70 eV
ion type=[M]+*
computed spectral entropy=3.5421008388713067
computed normalized entropy=0.8760959493764837
SPLASH=splash10-014l-9400000000-2b60207f89a885f8ed67
submitter=submitter = University of Tokyo Team (Faculty of Engineering, University of Tokyo)
MoNA Rating=3.75

>  <NUM PEAKS>  (1404) 
57

>  <MASS SPECTRAL PEAKS>  (1404) 
27 6.4
29 25
41 37.3
42 0.48
43 35.3
45 6.6
53 5.8
55 6.27
56 29.5
57 30.6
59 4.5
60 0.48
61 7.2
67 16.3
68 24.2
69 99.99
70 28.1
71 15.3
73 6.7
81 2.27
82 15.6
83 39.1
84 5
85 0.45
87 13.4
88 41.4
89 8.1
94 0.88
95 45.3
96 16.4
97 28
98 3.05
99 5.3
101 6.6
109 29.5
110 2.27
111 27.2
115 43
123 19.5
124 2.63
125 57.2
126 12.8
129 6.1
137 0.98
139 4.8
142 5.9
143 16.4
151 1.22
152 18.6
160 0.3
165 7
179 0.59
180 13.4
205 4.2
222 16.9
223 1.14
268 10.3

>  <PREDICTED SPECTRUM>  (1404) 
26 17
27 182
28 34
29 317
31 9
39 210
40 91
41 655
42 215
43 434
44 28
45 43
51 19
52 15
53 194
54 200
55 669
56 538
57 444
58 51
59 125
60 92
61 238
62 12
63 6
65 67
66 51
67 342
68 347
69 999
70 450
71 253
72 37
73 246
74 23
77 43
79 67
80 59
81 346
82 375
83 465
84 230
85 112
86 31
87 326
88 803
89 271
91 37
93 16
94 85
95 400
96 260
97 439
98 192
99 103
100 64
101 462
107 83
109 548
110 346
111 386
112 87
113 141
114 35
115 405
116 19
121 45
122 47
123 281
124 156
125 405
126 180
127 49
129 276
130 23
135 15
136 2
137 167
138 172
139 160
140 3
141 75
142 176
143 341
144 37
151 176
152 204
153 164
154 25
155 5
156 30
165 79
166 119
169 71
170 45
179 112
180 329
181 12
194 1
205 80
209 0
222 315
223 203
224 31
225 39
268 218
269 67

$$$$

     RDKit          2D

 20 21  0  0  0  0  0  0  0  0999 V2000
   -0.9777    6.4882    0.0000 C   0  0  0  0  0  0  0  0  0  0  0  0
   -7.4311    4.2601    0.0000 C   0  0  0  0  0  0  0  0  0  0  0  0
    2.9194    2.7382    0.0000 C   0  0  0  0  0  0  0  0  0  0  0  0
    2.9199    4.2390    0.0000 C   0  0  0  0  0  0  0  0  0  0  0  0
    1.6199    1.9873    0.0000 C   0  0  0  0  0  0  0  0  0  0  0  0
   -6.1490    0.5246    0.0000 C   0  0  0  0  0  0  0  0  0  0  0  0
   -4.8792   -0.2257    0.0000 C   0  0  0  0  0  0  0  0  0  0  0  0
    1.6209    4.9890    0.0000 C   0  0  0  0  0  0  0  0  0  0  0  0
    0.3209    2.7373    0.0000 C   0  0  0  0  0  0  0  0  0  0  0  0
   -6.1322    2.0068    0.0000 C   0  0  0  0  0  0  0  0  0  0  0  0
   -3.5606    0.4894    0.0000 C   0  0  0  0  0  0  0  0  0  0  0  0
   -0.9777    4.9882    0.0000 C   0  0  0  0  0  0  0  0  0  0  0  0
    0.3213    4.2382    0.0000 C   0  0  0  0  0  0  0  0  0  0  0  0
   -4.8456    2.7385    0.0000 C   0  0  0  0  0  0  0  0  0  0  0  0
   -3.5758    1.9882    0.0000 C   0  0  0  0  0  0  0  0  0  0  0  0
   -4.8331    4.2385    0.0000 C   0  0  0  0  0  0  0  0  0  0  0  0
   -2.2767    4.2382    0.0000 N   0  0  0  0  0  0  0  0  0  0  0  0
   -2.2767    2.7382    0.0000 N   0  0  0  0  0  0  0  0  0  0  0  0
   -3.5279    4.9777    0.0000 O   0  0  0  0  0  0  0  0  0  0  0  0
   -6.1259    4.9992    0.0000 O   0  0  0  0  0  0  0  0  0  0  0  0
  4  3  2  0
  5  3  1  0
  7  6  2  0
  8  4  1  0
  9  5  2  0
 10  6  1  0
 11  7  1  0
 12  1  1  0
 13  8  2  0
 13  9  1  0
 13 12  1  0
 14 10  2  0
 15 11  2  0
 15 14  1  0
 16 14  1  0
 12 17  2  0
 18 15  1  0
 18 17  1  0
 19 16  2  0
 20  2  1  0
 20 16  1  0
M  END
>  <NAME>  (1405) 
ACETOPHENONE 2-METHOXYCARBONYLPHENYLHYDRAZONE

>  <SYNONYMS>  (1405) 


>  <SPECTRUM TYPE>  (1405) 
MS1

>  <INSTRUMENT TYPE>  (1405) 
EI-B

>  <INSTRUMENT>  (1405) 
JEOL JMS-D-300

>  <ION MODE>  (1405) 
P

>  <INCHIKEY>  (1405) 
GMSDKZMVKPYFOV-ATVHPVEESA-N

>  <FORMULA>  (1405) 
C16H16N2O2

>  <EXACT MASS>  (1405) 
268.121177752

>  <MW>  (1405) 
268

>  <ID>  (1405) 
JP009918

>  <CONTRIBUTOR>  (1405) 
University of Tokyo Team, {Faculty of Engineering, University of Tokyo

>  <COMMENT>  (1405) 
SMILES=COC(=O)c(c2)c(ccc2)NN=C(C)c(c1)cccc1
InChI=InChI=1S/C16H16N2O2/c1-12(13-8-4-3-5-9-13)17-18-15-11-7-6-10-14(15)16(19)20-2/h3-11,18H,1-2H3/b17-12-
computed SMILES=O=C(OC)C=1C=CC=CC1NN=C(C=2C=CC=CC2)C
accession=JP009918
date=2016.01.19 (Created 2008.10.21, modified 2011.05.06)
author=KURARAY CO., LTD.
license=CC BY-NC-SA
exact mass=268.12118
ionization energy=70 eV
ion type=[M]+*
computed spectral entropy=3.0657388023026435
computed normalized entropy=0.7168525007530835
SPLASH=splash10-00n0-5590000000-7949f8e2c9baa967d3cf
submitter=submitter = University of Tokyo Team (Faculty of Engineering, University of Tokyo)
MoNA Rating=3.75

>  <NUM PEAKS>  (1405) 
72

>  <MASS SPECTRAL PEAKS>  (1405) 
26 0.2
27 2.6
28 3.4
38 0.17
39 8.6
40 0.3
42 2.8
50 0.52
51 21
52 5.2
53 1.4
59 0.1
62 1.2
63 6.9
64 5.9
65 0.72
66 0.3
74 0.3
75 1.7
76 0.59
77 55.7
78 16.6
79 2.4
84 0.29
89 1.6
90 6.9
91 8.8
92 0.97
93 1
102 2.8
103 37.9
104 1.09
105 12.1
106 1.7
118 14.7
119 0.81
120 2.9
129 0.3
131 0.3
133 0.17
134 35.9
135 6
136 0.3
139 0.16
140 0.5
150 0.5
151 1.6
152 0.03
165 9.1
166 4.3
167 3.4
168 0.14
178 2.9
179 2.4
180 1.2
191 0.02
193 4
194 3.6
195 1.2
206 0.07
207 10.3
208 8.8
209 2.6
220 0.1
221 2.2
235 99.99
236 34.3
237 0.41
267 1.2
268 88.1
269 15.9
270 1.6

>  <PREDICTED SPECTRUM>  (1405) 
14 14
15 61
16 7
17 16
18 35
27 39
28 36
29 44
31 27
33 0
37 6
38 37
39 201
40 14
41 25
42 14
43 100
44 2
45 30
50 239
51 488
52 182
53 42
59 8
62 56
63 220
64 141
65 226
66 60
74 28
75 98
76 188
77 798
78 299
79 116
80 10
83 13
89 83
90 102
91 283
92 176
93 46
102 84
103 357
104 340
105 423
106 169
113 12
114 20
115 13
116 44
117 27
118 204
119 219
120 97
126 7
128 9
130 158
131 94
132 130
133 93
134 342
135 159
139 38
140 72
141 82
143 6
144 25
149 23
150 153
151 106
152 71
164 43
165 149
166 173
167 202
168 13
178 163
179 229
180 109
181 20
191 64
192 52
193 113
194 37
195 36
207 286
208 332
209 140
210 94
211 7
220 15
221 203
227 58
234 19
235 999
236 609
237 178
251 44
252 15
253 50
267 154
268 901
269 373
270 125
271 3

$$$$

     RDKit          2D

 16 15  0  0  0  0  0  0  0  0999 V2000
    3.2476    5.6250    0.0000 C   0  0  0  0  0  0  0  0  0  0  0  0
   -9.7428    5.6250    0.0000 C   0  0  0  0  0  0  0  0  0  0  0  0
   -8.4437    7.8750    0.0000 C   0  0  0  0  0  0  0  0  0  0  0  0
    1.9486    3.3750    0.0000 C   0  0  0  0  0  0  0  0  0  0  0  0
   -0.6495    3.3750    0.0000 C   0  0  0  0  0  0  0  0  0  0  0  0
   -3.2476    7.8750    0.0000 C   0  0  0  0  0  0  0  0  0  0  0  0
    1.9486    6.3750    0.0000 C   0  0  0  0  0  0  0  0  0  0  0  0
   -5.8457    6.3750    0.0000 C   0  0  0  0  0  0  0  0  0  0  0  0
   -7.1447    5.6250    0.0000 C   0  0  0  0  0  0  0  0  0  0  0  0
   -4.5466    5.6250    0.0000 C   0  0  0  0  0  0  0  0  0  0  0  0
   -1.9486    5.6250    0.0000 C   0  0  0  0  0  0  0  0  0  0  0  0
   -0.6495    6.3750    0.0000 C   0  0  0  0  0  0  0  0  0  0  0  0
   -8.4437    6.3750    0.0000 C   0  0  0  0  0  0  0  0  0  0  0  0
    0.6495    4.1250    0.0000 C   0  0  0  0  0  0  0  0  0  0  0  0
   -3.2476    6.3750    0.0000 C   0  0  0  0  0  0  0  0  0  0  0  0
    0.6495    5.6250    0.0000 C   0  0  0  0  0  0  0  0  0  0  0  0
  7  1  1  0
  9  8  1  0
 10  8  1  0
 12 11  1  0
 13  2  1  0
 13  3  1  0
 13  9  1  0
 14  4  1  0
 14  5  1  0
 15  6  1  0
 15 10  1  0
 15 11  1  0
 16  7  1  0
 16 12  1  0
 16 14  1  0
M  END
>  <NAME>  (1406) 
3-ETHYL-2,6,10-TRIMETHYLUNDECANE

>  <SYNONYMS>  (1406) 


>  <SPECTRUM TYPE>  (1406) 
MS1

>  <INSTRUMENT TYPE>  (1406) 
EI-B

>  <INSTRUMENT>  (1406) 
JEOL JMS-D-300

>  <ION MODE>  (1406) 
P

>  <INCHIKEY>  (1406) 
OHXPAEQCBFOPSB-UHFFFAOYSA-N

>  <FORMULA>  (1406) 
C16H34

>  <EXACT MASS>  (1406) 
226.26605108799998

>  <MW>  (1406) 
226

>  <ID>  (1406) 
JP009917

>  <CONTRIBUTOR>  (1406) 
University of Tokyo Team, {Faculty of Engineering, University of Tokyo

>  <COMMENT>  (1406) 
SMILES=CC(C)CCCC(C)CCC(CC)C(C)C
InChI=InChI=1S/C16H34/c1-7-16(14(4)5)12-11-15(6)10-8-9-13(2)3/h13-16H,7-12H2,1-6H3
computed SMILES=CCC(CCC(C)CCCC(C)C)C(C)C
accession=JP009917
date=2016.01.19 (Created 2008.10.21, modified 2011.05.06)
author=KURARAY CO., LTD.
license=CC BY-NC-SA
exact mass=226.26605
ionization energy=70 eV
ion type=[M]+*
computed spectral entropy=2.7373022777007154
computed normalized entropy=0.7898184842905772
SPLASH=splash10-0abc-9100000000-d3b192aec0e266f38738
submitter=submitter = University of Tokyo Team (Faculty of Engineering, University of Tokyo)
MoNA Rating=3.75

>  <NUM PEAKS>  (1406) 
32

>  <MASS SPECTRAL PEAKS>  (1406) 
27 3.7
29 10.8
39 2.8
41 23.5
42 6
43 66.3
44 2
55 19.5
56 16.7
57 99.99
58 4.3
69 8.5
70 14
71 93.5
72 4.6
83 2.3
84 11.3
85 46.7
86 3
97 5.8
98 1.7
99 14.5
112 11.2
113 17
127 5.2
140 5.8
141 15.3
155 2.3
183 6.7
197 1
216 1.8
226 1.3

>  <PREDICTED SPECTRUM>  (1406) 
15 20
26 22
27 169
28 57
29 238
30 31
36 1
37 6
38 7
39 221
40 83
41 518
42 226
43 827
44 156
51 9
52 2
53 126
54 66
55 400
56 309
57 999
58 164
67 107
68 64
69 307
70 242
71 846
72 245
79 17
81 38
82 71
83 193
84 257
85 683
86 201
95 2
96 27
97 132
98 100
99 365
100 146
111 77
112 151
113 250
114 47
127 120
128 14
139 6
140 131
141 202
142 40
154 21
155 24
168 21
169 29
182 144
183 188
196 51
197 81
211 13

$$$$

     RDKit          2D

 16 15  0  0  0  0  0  0  0  0999 V2000
    4.2219    6.1875    0.0000 C   0  0  0  0  0  0  0  0  0  0  0  0
    2.9228    8.4375    0.0000 C   0  0  0  0  0  0  0  0  0  0  0  0
   -2.2733    8.4375    0.0000 C   0  0  0  0  0  0  0  0  0  0  0  0
  -11.3666    6.1875    0.0000 C   0  0  0  0  0  0  0  0  0  0  0  0
   -4.8714    6.9375    0.0000 C   0  0  0  0  0  0  0  0  0  0  0  0
   -6.1704    6.1875    0.0000 C   0  0  0  0  0  0  0  0  0  0  0  0
    0.3248    6.9375    0.0000 C   0  0  0  0  0  0  0  0  0  0  0  0
    1.6238    6.1875    0.0000 C   0  0  0  0  0  0  0  0  0  0  0  0
   -3.5724    6.1875    0.0000 C   0  0  0  0  0  0  0  0  0  0  0  0
   -0.9743    6.1875    0.0000 C   0  0  0  0  0  0  0  0  0  0  0  0
   -7.4695    6.9375    0.0000 C   0  0  0  0  0  0  0  0  0  0  0  0
    2.9228    6.9375    0.0000 C   0  0  0  0  0  0  0  0  0  0  0  0
   -2.2733    6.9375    0.0000 C   0  0  0  0  0  0  0  0  0  0  0  0
  -10.0675    6.9375    0.0000 C   0  0  0  0  0  0  0  0  0  0  0  0
  -10.0675    8.4375    0.0000 O   0  0  0  0  0  0  0  0  0  0  0  0
   -8.7685    6.1875    0.0000 O   0  0  0  0  0  0  0  0  0  0  0  0
  6  5  1  0
  8  7  1  0
  9  5  1  0
 10  7  1  0
 11  6  1  0
 12  1  1  0
 12  2  1  0
 12  8  2  0
 13  3  1  0
  9 13  2  0
 13 10  1  0
 14  4  1  0
 15 14  2  0
 16 11  1  0
 16 14  1  0
M  END
>  <NAME>  (1407) 
5,9-DIMETHYL-4,8-DECADIENYL ACETATE(E)

>  <SYNONYMS>  (1407) 


>  <SPECTRUM TYPE>  (1407) 
MS1

>  <INSTRUMENT TYPE>  (1407) 
EI-B

>  <INSTRUMENT>  (1407) 
JEOL JMS-D-300

>  <ION MODE>  (1407) 
P

>  <INCHIKEY>  (1407) 
PLVUZLFGBFWHDU-UKTHLTGXSA-N

>  <FORMULA>  (1407) 
C14H24O2

>  <EXACT MASS>  (1407) 
224.177630008

>  <MW>  (1407) 
224

>  <ID>  (1407) 
JP009916

>  <CONTRIBUTOR>  (1407) 
University of Tokyo Team, {Faculty of Engineering, University of Tokyo

>  <COMMENT>  (1407) 
SMILES=CC(C)=CCCC(C)=C([H])CCCOC(C)=O
InChI=InChI=1S/C14H24O2/c1-12(2)8-7-10-13(3)9-5-6-11-16-14(4)15/h8-9H,5-7,10-11H2,1-4H3/b13-9+
computed SMILES=O=C(OCCCC=C(C)CCC=C(C)C)C
accession=JP009916
date=2016.01.19 (Created 2008.10.21, modified 2011.05.06)
author=KURARAY CO., LTD.
license=CC BY-NC-SA
exact mass=224.17763
ionization energy=70 eV
ion type=[M]+*
computed spectral entropy=2.665425464637094
computed normalized entropy=0.828060978321906
SPLASH=splash10-014j-9200000000-5d358e60056b14805d5a
submitter=submitter = University of Tokyo Team (Faculty of Engineering, University of Tokyo)
MoNA Rating=3.75

>  <NUM PEAKS>  (1407) 
25

>  <MASS SPECTRAL PEAKS>  (1407) 
39 3.4
41 35.7
43 28
53 6.7
55 11
67 21.6
68 13.3
69 99.99
70 6.2
79 6.2
81 14
82 3.2
93 11
94 6
95 89.2
96 25
107 4
108 4
109 4.8
121 19
122 2.8
123 9.8
149 8.7
164 7
181 26.8

>  <PREDICTED SPECTRUM>  (1407) 
26 11
27 154
28 80
29 197
30 90
31 54
38 17
39 212
40 72
41 664
42 174
43 663
44 115
45 79
50 6
51 70
52 35
53 245
54 127
55 330
56 61
57 99
58 11
59 29
60 4
61 33
65 104
66 106
67 465
68 435
69 999
70 240
71 177
72 29
73 46
77 193
78 106
79 298
80 263
81 644
82 439
83 173
84 72
85 64
86 6
87 11
91 174
92 143
93 378
94 227
95 543
96 256
97 146
98 24
99 75
100 4
103 9
105 105
106 39
107 317
108 151
109 305
110 164
111 96
112 45
113 83
114 12
119 49
120 47
121 402
122 240
123 287
124 93
125 18
133 22
135 208
136 312
137 210
138 60
139 4
140 6
147 1
149 231
150 94
151 69
155 30
163 65
164 331
165 119
166 38
177 60
181 230
182 58
209 26
224 169
225 38

$$$$

     RDKit          2D

 16 17  0  0  0  0  0  0  0  0999 V2000
    1.9487   -0.3759    0.0000 C   0  0  0  0  0  0  0  0  0  0  0  0
   -5.8459    4.1256    0.0000 C   0  0  0  0  0  0  0  0  0  0  0  0
   -0.6491    5.6249    0.0000 C   0  0  0  0  0  0  0  0  0  0  0  0
    3.2485    3.3758    0.0000 C   0  0  0  0  0  0  0  0  0  0  0  0
   -3.2467    1.1241    0.0000 C   0  0  0  0  0  0  0  0  0  0  0  0
    1.9494    4.1258    0.0000 C   0  0  0  0  0  0  0  0  0  0  0  0
   -1.9477    1.8741    0.0000 C   0  0  0  0  0  0  0  0  0  0  0  0
    0.6494    1.8741    0.0000 C   0  0  0  0  0  0  0  0  0  0  0  0
   -3.2477    4.1258    0.0000 C   0  0  0  0  0  0  0  0  0  0  0  0
    1.9485    1.1241    0.0000 C   0  0  0  0  0  0  0  0  0  0  0  0
   -4.5467    3.3758    0.0000 C   0  0  0  0  0  0  0  0  0  0  0  0
   -0.6491    4.1249    0.0000 C   0  0  0  0  0  0  0  0  0  0  0  0
    3.2480    1.8749    0.0000 N   0  0  0  0  0  0  0  0  0  0  0  0
   -4.5462    1.8749    0.0000 N   0  0  0  0  0  0  0  0  0  0  0  0
    0.6499    3.3749    0.0000 N   0  0  0  0  0  0  0  0  0  0  0  0
   -1.9482    3.3749    0.0000 N   0  0  0  0  0  0  0  0  0  0  0  0
  6  4  1  0
  7  5  1  0
 10  1  1  0
 10  8  1  0
 11  2  1  0
 11  9  1  0
 12  3  2  0
 13  4  1  0
 13 10  1  0
 14  5  1  0
 14 11  1  0
 15  6  1  0
 15  8  1  0
 15 12  1  0
 16  7  1  0
 16  9  1  0
 16 12  1  0
M  END
>  <NAME>  (1408) 
1,1-BIS(3-METHYLPIPERAZINYL)ETHYLENE

>  <SYNONYMS>  (1408) 


>  <SPECTRUM TYPE>  (1408) 
MS1

>  <INSTRUMENT TYPE>  (1408) 
EI-B

>  <INSTRUMENT>  (1408) 
JEOL JMS-D-300

>  <ION MODE>  (1408) 
P

>  <INCHIKEY>  (1408) 
OUPYNEDRGBWKKS-UHFFFAOYSA-N

>  <FORMULA>  (1408) 
C12H24N4

>  <EXACT MASS>  (1408) 
224.20009676799998

>  <MW>  (1408) 
224

>  <ID>  (1408) 
JP009913

>  <CONTRIBUTOR>  (1408) 
University of Tokyo Team, {Faculty of Engineering, University of Tokyo

>  <COMMENT>  (1408) 
SMILES=CC(N2)CN(CC2)C(=C)N(C1)CC(C)NC1
InChI=InChI=1S/C12H24N4/c1-10-8-15(6-4-13-10)12(3)16-7-5-14-11(2)9-16/h10-11,13-14H,3-9H2,1-2H3
computed SMILES=C=C(N1CCNC(C)C1)N2CCNC(C)C2
accession=JP009913
date=2016.01.19 (Created 2008.10.21, modified 2011.05.06)
author=KURARAY CO., LTD.
license=CC BY-NC-SA
exact mass=224.2001
ionization energy=70 eV
ion type=[M]+*
computed spectral entropy=3.419835047889833
computed normalized entropy=0.8697829881942808
SPLASH=splash10-0pkd-9400000000-3ff71f89c84f39851a76
submitter=submitter = University of Tokyo Team (Faculty of Engineering, University of Tokyo)
MoNA Rating=3.75

>  <NUM PEAKS>  (1408) 
51

>  <MASS SPECTRAL PEAKS>  (1408) 
27 5.2
28 2.4
29 7.5
30 6.8
32 4
41 9.7
42 42.8
43 36.3
44 10.6
54 8
55 27.6
56 99.99
57 32.1
58 46.3
59 4.3
68 5.8
69 5.8
70 52.3
71 15
72 4.8
82 19.3
83 28
84 13.7
85 11
95 3.6
96 4.7
97 30
98 57.5
99 52.8
100 16
109 4.8
110 3
111 12
112 3.2
113 3
123 8.7
124 3.5
125 74.6
126 25
127 10.8
139 4
141 4
142 10.2
152 6.8
154 91.8
155 10.6
167 10.8
168 5.7
223 6.6
224 40.8
225 6

>  <PREDICTED SPECTRUM>  (1408) 
30 24
39 119
40 76
41 385
42 662
43 532
44 277
45 138
51 44
52 61
53 153
54 222
55 545
56 931
57 555
58 448
59 120
65 51
66 8
67 100
68 210
69 280
70 823
71 317
72 210
73 103
74 3
77 8
79 25
80 65
81 150
82 441
83 659
84 658
85 257
86 21
93 19
94 34
95 159
96 168
97 416
98 481
99 819
100 204
101 73
102 16
109 122
110 100
111 252
112 207
113 202
123 187
124 176
125 983
126 556
127 228
138 15
141 178
142 263
143 30
144 18
151 15
152 89
153 37
154 999
155 386
156 214
166 92
167 389
168 297
169 106
180 77
181 70
209 23
224 439
225 171
226 3

$$$$

     RDKit          2D

 17 18  0  0  0  0  0  0  0  0999 V2000
    1.9465    2.1985    0.0000 C   0  0  0  0  0  0  0  0  0  0  0  0
    1.9470    3.6994    0.0000 C   0  0  0  0  0  0  0  0  0  0  0  0
    0.6470    1.4477    0.0000 C   0  0  0  0  0  0  0  0  0  0  0  0
   -7.1480   -0.0613    0.0000 C   0  0  0  0  0  0  0  0  0  0  0  0
   -3.2496    3.6985    0.0000 C   0  0  0  0  0  0  0  0  0  0  0  0
    0.6480    4.4494    0.0000 C   0  0  0  0  0  0  0  0  0  0  0  0
   -0.6520    2.1977    0.0000 C   0  0  0  0  0  0  0  0  0  0  0  0
   -1.9506    4.4485    0.0000 C   0  0  0  0  0  0  0  0  0  0  0  0
   -7.1445    1.4446    0.0000 C   0  0  0  0  0  0  0  0  0  0  0  0
   -5.8376   -0.8031    0.0000 C   0  0  0  0  0  0  0  0  0  0  0  0
   -4.5487    4.4485    0.0000 C   0  0  0  0  0  0  0  0  0  0  0  0
   -4.5546    1.4467    0.0000 C   0  0  0  0  0  0  0  0  0  0  0  0
   -0.6516    3.6985    0.0000 C   0  0  0  0  0  0  0  0  0  0  0  0
   -5.8477    2.1985    0.0000 C   0  0  0  0  0  0  0  0  0  0  0  0
   -4.5408   -0.0491    0.0000 C   0  0  0  0  0  0  0  0  0  0  0  0
   -5.8477    3.6985    0.0000 N   0  0  0  0  0  0  0  0  0  0  0  0
   -3.2372   -0.7912    0.0000 O   0  0  0  0  0  0  0  0  0  0  0  0
  2  1  2  0
  3  1  1  0
  6  2  1  0
  7  3  2  0
  5  8  2  3
  9  4  2  0
 10  4  1  0
 11  5  1  0
 13  6  2  0
 13  7  1  0
 13  8  1  0
 14  9  1  0
 14 12  2  0
 15 10  2  0
 15 12  1  0
 11 16  2  0
 16 14  1  0
 17 15  1  0
M  END
>  <NAME>  (1409) 
N-PHENYLPROPADIENYL-3-PHENOLAMINE

>  <SYNONYMS>  (1409) 


>  <SPECTRUM TYPE>  (1409) 
MS1

>  <INSTRUMENT TYPE>  (1409) 
EI-B

>  <INSTRUMENT>  (1409) 
JEOL JMS-D-300

>  <ION MODE>  (1409) 
P

>  <INCHIKEY>  (1409) 
LAMWJTQGOKUQKO-HWMYPRNFSA-N

>  <FORMULA>  (1409) 
C15H13NO

>  <EXACT MASS>  (1409) 
223.099714036

>  <MW>  (1409) 
223

>  <ID>  (1409) 
JP009912

>  <CONTRIBUTOR>  (1409) 
University of Tokyo Team, {Faculty of Engineering, University of Tokyo

>  <COMMENT>  (1409) 
SMILES=Oc(c1)cc(N=CC=Cc(c2)cccc2)cc1
InChI=InChI=1S/C15H13NO/c17-15-10-4-9-14(12-15)16-11-5-8-13-6-2-1-3-7-13/h1-12,17H/b8-5?,16-11-
computed SMILES=OC1=CC=CC(N=CC=CC=2C=CC=CC2)=C1
computed InChI=InChI=1S/C15H13NO/c17-15-10-4-9-14(12-15)16-11-5-8-13-6-2-1-3-7-13/h1-12,17H/b8-5+,16-11-
accession=JP009912
date=2016.01.19 (Created 2008.10.21, modified 2011.05.06)
author=KURARAY CO., LTD.
license=CC BY-NC-SA
exact mass=223.09971
ionization energy=70 eV
ion type=[M]+*
computed spectral entropy=1.7582214298345473
computed normalized entropy=0.6083028679723596
SPLASH=splash10-00di-0190000000-4eb78dfb5cd1951949b1
submitter=submitter = University of Tokyo Team (Faculty of Engineering, University of Tokyo)
MoNA Rating=3.75

>  <NUM PEAKS>  (1409) 
18

>  <MASS SPECTRAL PEAKS>  (1409) 
39 2
51 1
65 5.2
77 1.7
93 3
102 1.6
103 2
109 6.6
115 6.5
117 1.7
127 2.5
130 1.7
194 1.3
220 4.6
221 8.2
222 99.99
223 44
224 6.7

>  <PREDICTED SPECTRUM>  (1409) 
27 13
28 7
29 7
38 24
39 162
40 11
41 42
43 11
44 7
50 93
51 192
52 87
53 71
54 31
55 1
57 44
62 62
63 170
64 99
65 205
66 57
67 25
71 14
74 29
75 119
76 119
77 263
78 103
79 55
80 59
81 28
82 39
84 35
85 0
88 30
89 142
90 94
91 110
92 86
93 108
94 38
95 7
96 27
97 7
101 50
102 145
103 101
104 63
105 49
106 7
107 2
108 5
115 169
116 101
117 123
118 34
119 14
120 41
127 0
128 71
130 118
131 78
139 12
141 15
145 3
146 100
147 49
165 38
166 10
167 43
178 16
179 6
192 10
193 113
194 121
195 38
206 78
207 126
208 15
220 132
221 164
222 999
223 604
224 180
225 6

$$$$

     RDKit          2D

 13 13  0  0  0  0  0  0  0  0999 V2000
   -1.1481   -1.5453    0.0000 C   0  0  0  0  0  0  0  0  0  0  0  0
    1.1481   -1.5453    0.0000 C   0  0  0  0  0  0  0  0  0  0  0  0
    4.6482    1.4541    0.0000 C   0  0  0  0  0  0  0  0  0  0  0  0
   -2.0502    1.4580    0.0000 C   0  0  0  0  0  0  0  0  0  0  0  0
   -0.7500    0.7100    0.0000 C   0  0  0  0  0  0  0  0  0  0  0  0
   -2.0524    2.9580    0.0000 C   0  0  0  0  0  0  0  0  0  0  0  0
    0.7500    0.7100    0.0000 C   0  0  0  0  0  0  0  0  0  0  0  0
    2.0502    1.4580    0.0000 C   0  0  0  0  0  0  0  0  0  0  0  0
   -0.0000   -0.5800    0.0000 C   0  0  0  0  0  0  0  0  0  0  0  0
   -3.3526    3.7061    0.0000 Cl  0  0  0  0  0  0  0  0  0  0  0  0
   -0.7545    3.7100    0.0000 Cl  0  0  0  0  0  0  0  0  0  0  0  0
    2.0524    2.9580    0.0000 O   0  0  0  0  0  0  0  0  0  0  0  0
    3.3481    0.7061    0.0000 O   0  0  0  0  0  0  0  0  0  0  0  0
  5  4  1  0
  6  4  2  0
  7  5  1  0
  8  7  1  0
  9  1  1  0
  9  2  1  0
  9  5  1  0
  9  7  1  0
 10  6  1  0
 11  6  1  0
 12  8  2  0
 13  3  1  0
 13  8  1  0
M  END
>  <NAME>  (1410) 
METHYL 2,2-DIMETHYL-3-(2,2-DICHLOROETHENYL)CYCLOPROPANOATE

>  <SYNONYMS>  (1410) 


>  <SPECTRUM TYPE>  (1410) 
MS1

>  <INSTRUMENT TYPE>  (1410) 
EI-B

>  <INSTRUMENT>  (1410) 
JEOL JMS-D-300

>  <ION MODE>  (1410) 
P

>  <INCHIKEY>  (1410) 
QJOOIMSFFIUFKX-UHFFFAOYSA-N

>  <FORMULA>  (1410) 
C9H12Cl2O2

>  <EXACT MASS>  (1410) 
222.021434984

>  <MW>  (1410) 
222

>  <ID>  (1410) 
JP009911

>  <CONTRIBUTOR>  (1410) 
University of Tokyo Team, {Faculty of Engineering, University of Tokyo

>  <COMMENT>  (1410) 
SMILES=COC(=O)C(C(C=C(Cl)Cl)1)C(C)(C)1
InChI=InChI=1S/C9H12Cl2O2/c1-9(2)5(4-6(10)11)7(9)8(12)13-3/h4-5,7H,1-3H3
computed SMILES=O=C(OC)C1C(C=C(Cl)Cl)C1(C)C
accession=JP009911
date=2016.01.19 (Created 2008.10.21, modified 2011.05.06)
author=KURARAY CO., LTD.
license=CC BY-NC-SA
exact mass=222.02144
ionization energy=70 eV
ion type=[M]+*
computed spectral entropy=3.535759593503325
computed normalized entropy=0.8671311158130172
SPLASH=splash10-03g3-8900000000-dff0bb459c45d92cad23
submitter=submitter = University of Tokyo Team (Faculty of Engineering, University of Tokyo)
MoNA Rating=3.75

>  <NUM PEAKS>  (1410) 
59

>  <MASS SPECTRAL PEAKS>  (1410) 
27 10.6
29 3.3
36 4
38 5
39 25
41 20.8
43 11.6
50 6.7
51 8
52 20.8
53 14
55 6
61 41.3
63 9.8
65 12.8
67 7.5
73 42.3
75 11.8
77 25.3
79 8.5
81 5
83 7.7
85 14.2
87 5.7
89 5.7
91 96.4
92 12.6
93 10.8
95 5
99 4.8
109 17
111 14.8
112 3.2
113 14.8
114 2
121 5
123 5.8
125 6
127 63.4
128 14.5
129 22
130 4.3
139 6.8
145 3.8
149 6.8
151 5
152 5
163 99.99
164 7.8
165 62.7
166 5
167 5.3
179 3.2
187 70.7
188 6.8
189 23.2
191 13.5
193 3
222 3.8

>  <PREDICTED SPECTRUM>  (1410) 
14 0
15 88
26 35
27 116
33 31
35 11
36 159
37 46
38 123
39 518
40 173
41 487
42 84
43 217
44 112
45 104
49 198
50 242
51 568
52 266
53 493
54 78
55 356
56 53
57 175
58 75
59 792
60 149
61 174
62 95
63 410
64 137
65 461
66 137
67 337
68 9
69 279
71 46
72 56
73 371
74 151
75 496
76 5
77 521
78 214
79 265
80 78
81 265
82 88
83 348
84 41
85 260
86 119
87 298
88 129
89 417
90 193
91 513
92 257
93 380
94 193
95 271
96 111
97 224
99 280
100 188
101 340
102 193
103 218
104 23
105 222
106 73
107 273
108 88
109 177
110 41
111 236
112 177
113 424
114 129
115 356
116 146
117 187
118 85
119 192
120 1
121 292
122 27
123 328
125 133
126 127
127 662
128 603
129 442
130 374
131 397
132 263
133 219
134 105
135 32
137 96
143 128
144 22
145 469
146 170
147 295
148 134
149 154
150 23
151 385
152 82
153 229
154 106
155 632
156 185
157 200
158 35
159 117
161 7
162 285
163 679
164 393
165 610
166 218
167 282
168 9
171 166
172 114
173 34
178 127
186 28
187 999
188 344
189 525
190 384
191 423
192 183
193 228
207 26
222 419
223 83
224 291
225 47
226 56

$$$$

     RDKit          2D

 16 16  0  0  0  0  0  0  0  0999 V2000
  -10.4183    5.2950    0.0000 C   0  0  0  0  0  0  0  0  0  0  0  0
   -9.1192    6.0450    0.0000 C   0  0  0  0  0  0  0  0  0  0  0  0
   -7.8202    5.2950    0.0000 C   0  0  0  0  0  0  0  0  0  0  0  0
   -6.5212    6.0450    0.0000 C   0  0  0  0  0  0  0  0  0  0  0  0
   -5.2221    5.2950    0.0000 C   0  0  0  0  0  0  0  0  0  0  0  0
   -3.9231    6.0450    0.0000 C   0  0  0  0  0  0  0  0  0  0  0  0
   -2.6241    5.2950    0.0000 C   0  0  0  0  0  0  0  0  0  0  0  0
   -1.3250    6.0450    0.0000 C   0  0  0  0  0  0  0  0  0  0  0  0
    4.1976    3.4905    0.0000 C   0  0  0  0  0  0  0  0  0  0  0  0
    4.9476    4.7895    0.0000 C   0  0  0  0  0  0  0  0  0  0  0  0
   -0.0260    5.2950    0.0000 C   0  0  0  0  0  0  0  0  0  0  0  0
    2.7292    3.8071    0.0000 C   0  0  0  0  0  0  0  0  0  0  0  0
    3.9392    5.9029    0.0000 C   0  0  0  0  0  0  0  0  0  0  0  0
    1.2731    6.0450    0.0000 C   0  0  0  0  0  0  0  0  0  0  0  0
    2.5721    5.2950    0.0000 N   0  0  0  0  0  0  0  0  0  0  0  0
    1.2731    7.5450    0.0000 O   0  0  0  0  0  0  0  0  0  0  0  0
  2  1  1  0
  3  2  1  0
  4  3  1  0
  5  4  1  0
  6  5  1  0
  6  7  2  0
  8  7  1  0
 10  9  1  0
  8 11  2  0
 12  9  1  0
 13 10  1  0
 14 11  1  0
 15 12  1  0
 15 13  1  0
 15 14  1  0
 16 14  2  0
M  END
>  <NAME>  (1411) 
1-(1-OXO-2,4-DECADIENYL)PYROLIDINE

>  <SYNONYMS>  (1411) 


>  <SPECTRUM TYPE>  (1411) 
MS1

>  <INSTRUMENT TYPE>  (1411) 
EI-B

>  <INSTRUMENT>  (1411) 
JEOL JMS-D-300

>  <ION MODE>  (1411) 
P

>  <INCHIKEY>  (1411) 
BFZBGTMIBOQWBA-HRCSPUOPSA-N

>  <FORMULA>  (1411) 
C14H23NO

>  <EXACT MASS>  (1411) 
221.177964356

>  <MW>  (1411) 
221

>  <ID>  (1411) 
JP009910

>  <CONTRIBUTOR>  (1411) 
University of Tokyo Team, {Faculty of Engineering, University of Tokyo

>  <COMMENT>  (1411) 
SMILES=CCCCCC=CC=CC(=O)N(C1)CCC1
cas=78910-33-5
InChI=InChI=1S/C14H23NO/c1-2-3-4-5-6-7-8-11-14(16)15-12-9-10-13-15/h6-8,11H,2-5,9-10,12-13H2,1H3/b7-6+,11-8+
computed SMILES=O=C(C=CC=CCCCCC)N1CCCC1
accession=JP009910
date=2016.01.19 (Created 2008.10.21, modified 2011.05.06)
author=KURARAY CO., LTD.
license=CC BY-NC-SA
exact mass=221.17796
ionization energy=70 eV
ion type=[M]+*
computed spectral entropy=3.4262634897010225
computed normalized entropy=0.8899044515018681
SPLASH=splash10-0ue9-9300000000-77a82e6bbd52a716cca0
submitter=submitter = University of Tokyo Team (Faculty of Engineering, University of Tokyo)
MoNA Rating=3.75

>  <NUM PEAKS>  (1411) 
47

>  <MASS SPECTRAL PEAKS>  (1411) 
27 16
28 10.3
29 22.9
39 16.6
40 5
41 39.6
42 7.3
43 15.4
53 27.5
55 46.5
56 14.8
57 5
65 9.7
66 24.6
67 32.8
68 5.8
69 28
70 47.5
71 6.8
77 12
79 17.3
80 5.2
81 98
82 11
83 9.8
94 7.8
95 21.3
96 6.6
98 26.3
107 6.6
108 6.7
109 5.8
113 10.3
122 6.7
124 5
136 8
137 4.2
150 99.99
151 44.5
152 7.6
164 19.2
165 5
178 5.8
192 6.2
220 3
221 29.3
222 8

>  <PREDICTED SPECTRUM>  (1411) 
26 49
27 216
28 94
29 237
30 10
37 3
38 45
39 286
40 126
41 593
42 213
43 431
44 143
45 8
50 78
51 163
52 171
53 465
54 284
55 484
56 243
57 118
62 10
63 66
64 39
65 223
66 241
67 528
68 364
69 461
70 651
71 129
72 77
76 48
77 326
78 129
79 419
80 332
81 631
82 269
83 250
84 140
85 131
86 42
91 206
92 94
93 137
94 272
95 320
96 286
97 170
98 155
99 27
105 102
106 34
107 172
108 170
109 108
110 150
111 60
112 128
113 215
114 124
119 56
120 89
121 145
122 272
123 213
124 153
125 20
126 13
136 124
137 103
138 273
139 1
146 17
150 999
151 493
152 197
162 32
164 372
165 174
166 44
176 41
177 42
178 370
179 203
180 33
192 310
193 98
204 217
205 37
206 175
207 45
220 192
221 414
222 219

$$$$

     RDKit          2D

 16 16  0  0  0  0  0  0  0  0999 V2000
   -6.1702    4.2571    0.0000 C   0  0  0  0  0  0  0  0  0  0  0  0
   -3.5721   -0.2429    0.0000 C   0  0  0  0  0  0  0  0  0  0  0  0
    2.9231    2.0071    0.0000 C   0  0  0  0  0  0  0  0  0  0  0  0
    2.9236    3.5079    0.0000 C   0  0  0  0  0  0  0  0  0  0  0  0
    1.6236    1.2563    0.0000 C   0  0  0  0  0  0  0  0  0  0  0  0
    1.6245    4.2579    0.0000 C   0  0  0  0  0  0  0  0  0  0  0  0
    0.3245    2.0063    0.0000 C   0  0  0  0  0  0  0  0  0  0  0  0
   -0.9740    4.2571    0.0000 C   0  0  0  0  0  0  0  0  0  0  0  0
   -4.8712    3.5071    0.0000 C   0  0  0  0  0  0  0  0  0  0  0  0
    0.3250    3.5071    0.0000 C   0  0  0  0  0  0  0  0  0  0  0  0
   -2.2731    3.5071    0.0000 C   0  0  0  0  0  0  0  0  0  0  0  0
   -2.2731    2.0071    0.0000 C   0  0  0  0  0  0  0  0  0  0  0  0
   -3.5721    4.2571    0.0000 N   0  0  0  0  0  0  0  0  0  0  0  0
   -4.8712    2.0071    0.0000 O   0  0  0  0  0  0  0  0  0  0  0  0
   -0.9740    1.2571    0.0000 O   0  0  0  0  0  0  0  0  0  0  0  0
   -3.5721    1.2571    0.0000 O   0  0  0  0  0  0  0  0  0  0  0  0
  4  3  2  0
  5  3  1  0
  6  4  1  0
  7  5  2  0
  9  1  1  0
 10  6  2  0
 10  7  1  0
 10  8  1  0
 11  8  1  0
 12 11  1  0
 13  9  2  3
 13 11  1  0
 14  9  1  0
 15 12  2  0
 16  2  1  0
 16 12  1  0
M  END
>  <NAME>  (1412) 
METHYL 2-ACETYLAMINO-3-PHENYLPROPIONATE

>  <SYNONYMS>  (1412) 


>  <SPECTRUM TYPE>  (1412) 
MS1

>  <INSTRUMENT TYPE>  (1412) 
EI-B

>  <INSTRUMENT>  (1412) 
JEOL JMS-D-300

>  <ION MODE>  (1412) 
P

>  <INCHIKEY>  (1412) 
IKGHIFGXPVLPFD-UHFFFAOYSA-N

>  <FORMULA>  (1412) 
C12H15NO3

>  <EXACT MASS>  (1412) 
221.10519333999997

>  <MW>  (1412) 
221

>  <ID>  (1412) 
JP009909

>  <CONTRIBUTOR>  (1412) 
University of Tokyo Team, {Faculty of Engineering, University of Tokyo

>  <COMMENT>  (1412) 
SMILES=COC(=O)C(NC(C)=O)Cc(c1)cccc1
InChI=InChI=1S/C12H15NO3/c1-9(14)13-11(12(15)16-2)8-10-6-4-3-5-7-10/h3-7,11H,8H2,1-2H3,(H,13,14)
computed SMILES=O=C(OC)C(N=C(O)C)CC=1C=CC=CC1
accession=JP009909
date=2016.01.19 (Created 2008.10.21, modified 2011.05.06)
author=KURARAY CO., LTD.
license=CC BY-NC-SA
exact mass=221.10519
ionization energy=70 eV
ion type=[M]+*
computed spectral entropy=2.435168561238807
computed normalized entropy=0.7388619826293333
SPLASH=splash10-03du-7900000000-1173782815fdd71983d2
submitter=submitter = University of Tokyo Team (Faculty of Engineering, University of Tokyo)
MoNA Rating=3.75

>  <NUM PEAKS>  (1412) 
27

>  <MASS SPECTRAL PEAKS>  (1412) 
28 15.3
32 2
33 3.3
39 2
43 36
65 6.3
77 3.3
88 73
89 3.7
91 27
92 4.8
102 1.6
103 5
104 1
117 1.8
118 2.6
119 2.7
120 34
121 3.4
130 2
131 22.8
132 2.8
161 10.3
162 99.99
163 11
164 1
221 1.8

>  <PREDICTED SPECTRUM>  (1412) 
14 25
15 87
16 7
26 26
27 63
28 27
29 46
30 2
31 22
33 37
34 0
37 45
38 109
39 355
40 134
41 166
42 212
43 399
44 168
45 109
50 174
51 316
52 198
53 178
54 66
55 144
56 163
57 163
58 96
59 161
60 37
61 29
62 74
63 249
64 136
65 473
66 134
69 39
70 121
71 79
73 22
74 78
75 73
76 72
77 348
78 227
79 122
80 40
82 18
83 5
84 92
85 70
86 51
87 28
88 82
89 209
90 87
91 999
92 346
93 28
98 119
99 18
101 2
102 154
103 200
104 159
105 160
106 94
107 66
112 9
114 32
115 173
116 108
117 212
118 168
119 84
120 120
121 72
129 48
130 561
131 344
132 174
133 118
134 35
135 56
142 30
144 188
145 70
146 159
147 94
148 9
158 14
159 36
160 115
161 170
162 363
163 153
188 34
189 124
190 25
206 2
220 4
221 141
222 33

$$$$

     RDKit          2D

 17 16  0  0  0  0  0  0  0  0999 V2000
    4.8714    6.5625    0.0000 C   0  0  0  0  0  0  0  0  0  0  0  0
    3.5724    8.8125    0.0000 C   0  0  0  0  0  0  0  0  0  0  0  0
   -1.6238    8.8125    0.0000 C   0  0  0  0  0  0  0  0  0  0  0  0
   -6.8200    8.8125    0.0000 C   0  0  0  0  0  0  0  0  0  0  0  0
    0.9743    7.3125    0.0000 C   0  0  0  0  0  0  0  0  0  0  0  0
   -4.2219    7.3125    0.0000 C   0  0  0  0  0  0  0  0  0  0  0  0
   -9.4180    7.3125    0.0000 C   0  0  0  0  0  0  0  0  0  0  0  0
    2.2733    6.5625    0.0000 C   0  0  0  0  0  0  0  0  0  0  0  0
   -0.3248    6.5625    0.0000 C   0  0  0  0  0  0  0  0  0  0  0  0
   -2.9228    6.5625    0.0000 C   0  0  0  0  0  0  0  0  0  0  0  0
   -5.5209    6.5625    0.0000 C   0  0  0  0  0  0  0  0  0  0  0  0
   -8.1190    6.5625    0.0000 C   0  0  0  0  0  0  0  0  0  0  0  0
  -10.7171    6.5625    0.0000 C   0  0  0  0  0  0  0  0  0  0  0  0
    3.5724    7.3125    0.0000 C   0  0  0  0  0  0  0  0  0  0  0  0
   -1.6238    7.3125    0.0000 C   0  0  0  0  0  0  0  0  0  0  0  0
   -6.8200    7.3125    0.0000 C   0  0  0  0  0  0  0  0  0  0  0  0
  -12.0161    7.3125    0.0000 O   0  0  0  0  0  0  0  0  0  0  0  0
  8  5  1  0
  9  5  1  0
 10  6  1  0
 11  6  1  0
 12  7  1  0
 13  7  1  0
 14  1  1  0
 14  2  1  0
 14  8  2  0
 15  3  1  0
 15  9  1  0
 10 15  2  0
 16  4  1  0
 16 11  1  0
 12 16  2  0
 17 13  2  0
M  END
>  <NAME>  (1413) 
4,8,12-TRIMETHYL-3,7,11-TRIDECATRIENAL

>  <SYNONYMS>  (1413) 


>  <SPECTRUM TYPE>  (1413) 
MS1

>  <INSTRUMENT TYPE>  (1413) 
EI-B

>  <INSTRUMENT>  (1413) 
JEOL JMS-D-30

>  <ION MODE>  (1413) 
P

>  <INCHIKEY>  (1413) 
HXNIVGFVIQFPHU-NCZFFCEISA-N

>  <FORMULA>  (1413) 
C16H26O

>  <EXACT MASS>  (1413) 
234.198365452

>  <MW>  (1413) 
234

>  <ID>  (1413) 
JP009908

>  <CONTRIBUTOR>  (1413) 
University of Tokyo Team, {Faculty of Engineering, University of Tokyo

>  <COMMENT>  (1413) 
SMILES=O=CCC=C(C)CCC=C(C)CCC=C(C)C
InChI=InChI=1S/C16H26O/c1-14(2)8-5-9-15(3)10-6-11-16(4)12-7-13-17/h8,10,12-13H,5-7,9,11H2,1-4H3/b15-10+,16-12+
computed SMILES=O=CCC=C(C)CCC=C(C)CCC=C(C)C
accession=JP009908
date=2016.01.19 (Created 2008.10.21, modified 2011.05.06)
author=KURARAY CO., LTD.
license=CC BY-NC-SA
exact mass=234.19837
ionization energy=70 eV
ion type=[M]+*
computed spectral entropy=3.6237874424879637
computed normalized entropy=0.8780396043363563
SPLASH=splash10-05o3-9300000000-79d37e75c65b0a247bc3
submitter=submitter = University of Tokyo Team (Faculty of Engineering, University of Tokyo)
MoNA Rating=3.75

>  <NUM PEAKS>  (1413) 
62

>  <MASS SPECTRAL PEAKS>  (1413) 
27 8.7
29 9
39 11
41 52.5
42 3.8
43 12.8
54 12
55 15
56 2.8
57 5.6
65 3.8
67 15
68 7.7
69 99.99
70 8.7
71 19
77 7
79 8.6
80 10.3
81 59.7
82 12.8
83 7.5
84 44.2
85 5
91 8.2
92 3.7
93 16.5
94 9.3
95 27
96 10
97 6
105 7.8
107 16.6
108 6.6
109 27.8
110 6.8
111 2
119 4.5
121 10.2
122 5.3
123 13
124 3.9
125 2.8
127 1
132 3
133 10.7
134 2.7
135 8
136 14.8
137 10.8
138 8.6
139 2
142 2.9
149 5
150 2.2
151 3.8
159 6.7
177 8.5
187 2.8
202 3.8
205 3.1
220 4.5

>  <PREDICTED SPECTRUM>  (1413) 
11 0
13 0
26 21
27 144
28 66
29 203
30 31
31 28
37 1
38 18
39 215
40 95
41 723
42 187
43 475
44 40
45 14
50 33
51 71
52 51
53 263
54 110
55 423
56 164
57 193
58 6
59 1
63 1
65 104
66 71
67 391
68 315
69 999
70 260
71 179
72 34
77 206
78 109
79 247
80 200
81 657
82 296
83 236
84 80
85 87
91 257
92 132
93 339
94 170
95 435
96 155
97 152
98 64
99 27
103 45
104 2
105 177
106 113
107 348
108 183
109 367
110 149
111 130
112 20
115 7
117 25
118 1
119 165
120 72
121 311
122 164
123 302
124 136
125 64
127 22
128 1
131 36
133 128
134 86
135 252
136 315
137 334
138 83
139 37
141 4
145 48
146 26
147 136
148 61
149 131
150 102
151 76
152 58
153 35
154 11
159 51
160 46
161 118
162 16
163 102
164 51
165 116
166 54
169 2
173 21
174 20
175 64
176 41
177 113
178 94
179 16
189 54
190 23
191 202
192 113
193 54
194 27
201 16
204 29
205 62
206 3
207 2
216 17
217 5
219 95
220 17
234 153
235 45

$$$$

     RDKit          2D

 16 17  0  0  0  0  0  0  0  0999 V2000
   -3.7389    1.4102    0.0000 C   0  0  0  0  0  0  0  0  0  0  0  0
   -1.1400    2.9100    0.0000 C   0  0  0  0  0  0  0  0  0  0  0  0
   -1.1400   -3.0900    0.0000 C   0  0  0  0  0  0  0  0  0  0  0  0
    4.2372    0.3997    0.0000 C   0  0  0  0  0  0  0  0  0  0  0  0
    3.2727    2.0696    0.0000 C   0  0  0  0  0  0  0  0  0  0  0  0
    1.4600   -1.5900    0.0000 C   0  0  0  0  0  0  0  0  0  0  0  0
    2.7600   -0.8400    0.0000 C   0  0  0  0  0  0  0  0  0  0  0  0
   -2.4400    0.6600    0.0000 C   0  0  0  0  0  0  0  0  0  0  0  0
   -1.1400    1.4100    0.0000 C   0  0  0  0  0  0  0  0  0  0  0  0
   -1.1400   -1.5900    0.0000 C   0  0  0  0  0  0  0  0  0  0  0  0
    0.1600   -0.8400    0.0000 C   0  0  0  0  0  0  0  0  0  0  0  0
   -2.4400   -0.8400    0.0000 C   0  0  0  0  0  0  0  0  0  0  0  0
    0.1600    0.6600    0.0000 C   0  0  0  0  0  0  0  0  0  0  0  0
    2.7600    0.6600    0.0000 C   0  0  0  0  0  0  0  0  0  0  0  0
   -3.7389   -1.5902    0.0000 O   0  0  0  0  0  0  0  0  0  0  0  0
    1.4600    1.4100    0.0000 O   0  0  0  0  0  0  0  0  0  0  0  0
  7  6  1  0
  8  1  1  0
  9  2  1  0
  9  8  1  0
 10  3  1  0
 11  6  1  0
 11 10  2  0
 12  8  2  0
 12 10  1  0
 13  9  2  0
 13 11  1  0
 14  4  1  0
 14  5  1  0
 14  7  1  0
 15 12  1  0
 16 13  1  0
 16 14  1  0
M  END
>  <NAME>  (1414) 
2,2,5,7,8-PENTAMETHYLCHROMAN-6-OL

>  <SYNONYMS>  (1414) 
2,4-DIHYDRO-2,2,5,7,8-PENTAMETHYL-6-HYDROXY-2H-1-BENZOPYRANE

>  <SPECTRUM TYPE>  (1414) 
MS1

>  <INSTRUMENT TYPE>  (1414) 
EI-B

>  <INSTRUMENT>  (1414) 
JEOL JMS-D-300

>  <ION MODE>  (1414) 
P

>  <INCHIKEY>  (1414) 
SEBPXHSZHLFWRL-UHFFFAOYSA-N

>  <FORMULA>  (1414) 
C14H20O2

>  <EXACT MASS>  (1414) 
220.14632988

>  <MW>  (1414) 
220

>  <ID>  (1414) 
JP009907

>  <CONTRIBUTOR>  (1414) 
University of Tokyo Team, {Faculty of Engineering, University of Tokyo

>  <COMMENT>  (1414) 
SMILES=Oc(c(C)1)c(C)c(C2)c(OC(C)(C)C2)c(C)1
cas=950-99-2
InChI=InChI=1S/C14H20O2/c1-8-9(2)13-11(10(3)12(8)15)6-7-14(4,5)16-13/h15H,6-7H2,1-5H3
computed SMILES=OC=1C(=C(C=2OC(C)(C)CCC2C1C)C)C
accession=JP009907
date=2016.01.19 (Created 2008.10.21, modified 2011.05.06)
author=KURARAY CO., LTD.
license=CC BY-NC-SA
exact mass=220.14633
ionization energy=70 eV
ion type=[M]+*
computed spectral entropy=3.090374477264778
computed normalized entropy=0.7859897070571479
SPLASH=splash10-0300-4930000000-08d950865405837d6fca
submitter=submitter = University of Tokyo Team (Faculty of Engineering, University of Tokyo)
MoNA Rating=3.75

>  <NUM PEAKS>  (1414) 
51

>  <MASS SPECTRAL PEAKS>  (1414) 
27 5.3
28 37.3
29 3.3
32 10.3
39 6.7
40 1.6
41 7.6
43 7.2
44 1.3
51 3
53 8.4
55 4.8
57 2.8
65 4
67 5.2
69 3.8
77 7
79 6.7
81 3
83 3
91 8.5
93 3.3
105 4.1
107 4.7
115 3
119 3.4
121 10.6
133 2.8
135 6.3
136 12
137 6.2
147 4.3
149 3.6
161 4.2
162 1.8
163 4.9
164 98
165 99.99
166 17.8
175 10.3
176 7.3
177 5.7
188 2.7
189 4
191 1.6
203 6.9
204 3.6
205 6.5
218 8.3
219 6
220 80

>  <PREDICTED SPECTRUM>  (1414) 
27 39
29 38
39 143
40 66
41 294
43 232
44 24
50 17
51 162
52 74
53 228
55 219
56 26
57 62
63 60
64 49
65 232
66 93
67 119
69 159
73 13
77 286
78 121
79 262
80 65
81 110
91 436
92 121
93 154
94 44
95 41
102 14
103 103
105 189
107 261
108 54
109 55
115 192
116 130
117 82
119 209
120 93
121 373
122 117
127 21
128 39
129 43
130 54
131 196
132 27
133 108
134 158
135 332
136 427
137 209
144 20
145 141
146 45
147 164
148 63
149 202
150 25
152 69
158 17
159 256
160 29
161 77
162 47
163 280
164 821
165 999
166 262
173 57
175 115
176 142
177 441
178 157
187 273
188 80
189 53
190 34
191 143
201 69
202 146
203 66
205 239
206 50
218 84
219 97
220 892
221 332
222 48

$$$$

     RDKit          2D

 16 17  0  0  0  0  0  0  0  0999 V2000
    4.5490   -0.8784    0.0000 C   0  0  0  0  0  0  0  0  0  0  0  0
    8.4447    1.3739    0.0000 C   0  0  0  0  0  0  0  0  0  0  0  0
    1.9500   -0.9000    0.0000 C   0  0  0  0  0  0  0  0  0  0  0  0
    0.6300   -1.6600    0.0000 C   0  0  0  0  0  0  0  0  0  0  0  0
    3.2486    1.3708    0.0000 C   0  0  0  0  0  0  0  0  0  0  0  0
    0.6300    1.3800    0.0000 C   0  0  0  0  0  0  0  0  0  0  0  0
   -2.9400   -0.2300    0.0000 C   0  0  0  0  0  0  0  0  0  0  0  0
    4.5481    0.6216    0.0000 C   0  0  0  0  0  0  0  0  0  0  0  0
    1.9500    0.6200    0.0000 C   0  0  0  0  0  0  0  0  0  0  0  0
   -0.6600   -0.9000    0.0000 C   0  0  0  0  0  0  0  0  0  0  0  0
   -0.6600    0.6200    0.0000 C   0  0  0  0  0  0  0  0  0  0  0  0
    5.8467    1.3723    0.0000 C   0  0  0  0  0  0  0  0  0  0  0  0
    5.8458    2.8723    0.0000 O   0  0  0  0  0  0  0  0  0  0  0  0
    7.1462    0.6231    0.0000 O   0  0  0  0  0  0  0  0  0  0  0  0
   -2.0600   -1.3400    0.0000 O   0  0  0  0  0  0  0  0  0  0  0  0
   -2.0900    1.0600    0.0000 O   0  0  0  0  0  0  0  0  0  0  0  0
  4  3  2  0
  8  1  1  0
  5  8  2  0
  9  3  1  0
  9  5  1  0
  9  6  2  0
 10  4  1  0
 11  6  1  0
 11 10  2  0
 12  8  1  0
 13 12  2  0
 14  2  1  0
 14 12  1  0
 15  7  1  0
 15 10  1  0
 16  7  1  0
 16 11  1  0
M  END
>  <NAME>  (1415) 
METHYL (3,4-METHYLENEDIOXY)-ALPHA-METHYLCINNAMATE

>  <SYNONYMS>  (1415) 


>  <SPECTRUM TYPE>  (1415) 
MS1

>  <INSTRUMENT TYPE>  (1415) 
EI-B

>  <INSTRUMENT>  (1415) 
JEOL JMS-D-300

>  <ION MODE>  (1415) 
P

>  <INCHIKEY>  (1415) 
ONRIBRPCDSNRTI-VMPITWQZSA-N

>  <FORMULA>  (1415) 
C12H12O4

>  <EXACT MASS>  (1415) 
220.073558864

>  <MW>  (1415) 
220

>  <ID>  (1415) 
JP009906

>  <CONTRIBUTOR>  (1415) 
University of Tokyo Team, {Faculty of Engineering, University of Tokyo

>  <COMMENT>  (1415) 
SMILES=COC(=O)C(C)=Cc(c1)cc(O2)c(OC2)c1
InChI=InChI=1S/C12H12O4/c1-8(12(13)14-2)5-9-3-4-10-11(6-9)16-7-15-10/h3-6H,7H2,1-2H3/b8-5+
computed SMILES=O=C(OC)C(=CC1=CC=C2OCOC2=C1)C
accession=JP009906
date=2016.01.19 (Created 2008.10.21, modified 2011.05.06)
author=KURARAY CO., LTD.
license=CC BY-NC-SA
exact mass=220.07356
ionization energy=70 eV
ion type=[M]+*
computed spectral entropy=3.0334040922993006
computed normalized entropy=0.8339057713281681
SPLASH=splash10-0w90-3920000000-9f27ce1a5fa3a1515c1b
submitter=submitter = University of Tokyo Team (Faculty of Engineering, University of Tokyo)
MoNA Rating=3.75

>  <NUM PEAKS>  (1415) 
38

>  <MASS SPECTRAL PEAKS>  (1415) 
39 5.5
50 5.6
51 11
53 3.7
62 6.3
63 14
65 11.8
74 4.2
75 6.5
76 7.6
77 28
78 3.8
79 3
91 5
93 13
101 2.6
102 28.1
103 66.5
104 8.2
119 3.8
121 3.7
130 6
131 31.5
132 4.2
135 6.3
145 4
147 6
151 30.5
159 24.2
160 93.5
161 22.8
162 6.3
165 6
189 20.8
190 2.8
219 5.3
220 99.99
221 13.3

>  <PREDICTED SPECTRUM>  (1415) 
38 48
39 139
40 3
41 23
42 34
43 76
44 34
49 97
50 289
51 491
52 135
53 330
54 33
55 154
57 15
59 150
61 58
62 271
63 374
64 129
65 341
66 133
67 44
71 13
72 29
74 197
75 287
76 215
77 473
78 193
79 146
84 18
85 9
86 94
89 119
90 113
91 206
92 57
93 37
101 213
102 441
103 655
104 267
105 186
106 31
115 5
117 52
118 18
121 201
129 229
130 330
131 460
132 239
133 155
135 90
145 7
147 73
149 2
158 114
159 451
160 924
161 589
162 154
188 43
189 474
190 50
219 158
220 999
221 281
222 47

$$$$

     RDKit          2D

 14 13  0  0  0  0  0  0  0  0999 V2000
   -1.9486    3.3750    0.0000 C   0  0  0  0  0  0  0  0  0  0  0  0
    3.2476    4.8750    0.0000 C   0  0  0  0  0  0  0  0  0  0  0  0
   -8.4437    5.6250    0.0000 C   0  0  0  0  0  0  0  0  0  0  0  0
   -3.2476    5.6250    0.0000 C   0  0  0  0  0  0  0  0  0  0  0  0
   -0.6495    5.6250    0.0000 C   0  0  0  0  0  0  0  0  0  0  0  0
   -1.9486    4.8750    0.0000 C   0  0  0  0  0  0  0  0  0  0  0  0
    1.9486    5.6250    0.0000 C   0  0  0  0  0  0  0  0  0  0  0  0
   -7.1447    4.8750    0.0000 C   0  0  0  0  0  0  0  0  0  0  0  0
   -4.5466    4.8750    0.0000 C   0  0  0  0  0  0  0  0  0  0  0  0
   -4.5466    3.3750    0.0000 Cl  0  0  0  0  0  0  0  0  0  0  0  0
    1.9486    7.1250    0.0000 O   0  0  0  0  0  0  0  0  0  0  0  0
   -7.1447    3.3750    0.0000 O   0  0  0  0  0  0  0  0  0  0  0  0
    0.6495    4.8750    0.0000 O   0  0  0  0  0  0  0  0  0  0  0  0
   -5.8457    5.6250    0.0000 O   0  0  0  0  0  0  0  0  0  0  0  0
  6  1  2  0
  6  4  1  0
  6  5  1  0
  7  2  1  0
  8  3  1  0
  9  4  1  0
 10  9  1  0
 11  7  2  0
 12  8  2  0
 13  5  1  0
 13  7  1  0
 14  8  1  0
 14  9  1  0
M  END
>  <NAME>  (1416) 
1-CHLORO-3-METHYLENE-1,4-BUTANEDIOL DIACETATE

>  <SYNONYMS>  (1416) 


>  <SPECTRUM TYPE>  (1416) 
MS1

>  <INSTRUMENT TYPE>  (1416) 
EI-B

>  <INSTRUMENT>  (1416) 
JEOL JMS-D-300

>  <ION MODE>  (1416) 
P

>  <INCHIKEY>  (1416) 
VIJVCKDWQUPTRB-UHFFFAOYSA-N

>  <FORMULA>  (1416) 
C9H13ClO4

>  <EXACT MASS>  (1416) 
220.050236576

>  <MW>  (1416) 
220

>  <ID>  (1416) 
JP009905

>  <CONTRIBUTOR>  (1416) 
University of Tokyo Team, {Faculty of Engineering, University of Tokyo

>  <COMMENT>  (1416) 
SMILES=CC(=O)OCC(=C)CC(Cl)OC(C)=O
InChI=InChI=1S/C9H13ClO4/c1-6(5-13-7(2)11)4-9(10)14-8(3)12/h9H,1,4-5H2,2-3H3
computed SMILES=O=C(OCC(=C)CC(Cl)OC(=O)C)C
accession=JP009905
date=2016.01.19 (Created 2008.10.21, modified 2011.05.06)
author=KURARAY CO., LTD.
license=CC BY-NC-SA
exact mass=220.05024
ionization energy=70 eV
ion type=[M]+*
computed spectral entropy=2.8274476993803397
computed normalized entropy=0.7613822079100301
SPLASH=splash10-0006-9300000000-052af095753bf4b8728f
submitter=submitter = University of Tokyo Team (Faculty of Engineering, University of Tokyo)
MoNA Rating=3.75

>  <NUM PEAKS>  (1416) 
41

>  <MASS SPECTRAL PEAKS>  (1416) 
26 2.6
27 7.3
29 1.5
32 1.8
39 4.6
40 2
41 4.8
42 2.7
43 99.99
44 4.7
51 1.7
53 4.3
54 3.5
55 4.1
57 1.2
61 3.2
65 5
67 2.6
69 2
78 1.8
81 2
82 10.3
83 12.5
84 6.4
85 2.3
87 5.3
88 2.8
89 1.3
101 2.1
102 3.2
103 4
113 1.7
118 9
119 1.6
120 2.2
125 15.3
129 12.2
143 4.5
160 2
161 1.5
185 28

>  <PREDICTED SPECTRUM>  (1416) 
14 23
15 66
16 2
25 11
26 98
27 197
28 88
29 137
31 26
35 21
36 82
37 16
38 53
39 220
40 103
41 186
42 166
43 999
44 166
45 83
49 77
50 66
51 118
52 31
53 123
54 93
55 96
57 14
58 52
61 96
62 26
63 74
65 108
66 81
67 150
68 130
69 89
71 34
73 33
75 28
76 36
77 126
78 50
79 169
80 70
81 128
82 141
83 202
84 90
85 77
86 18
87 54
89 97
90 67
91 135
95 8
97 3
99 86
100 86
101 180
102 65
103 59
115 60
117 57
118 166
119 105
120 38
125 149
126 51
127 117
128 27
129 76
130 1
133 0
135 7
142 19
143 123
145 76
160 167
161 22
185 440
186 46
187 37

$$$$

     RDKit          2D

 15 16  0  0  0  0  0  0  0  0999 V2000
   -1.9625   -1.6198    0.0000 C   0  0  0  0  0  0  0  0  0  0  0  0
   -0.6651    0.6203    0.0000 C   0  0  0  0  0  0  0  0  0  0  0  0
    0.6301    1.3767    0.0000 C   0  0  0  0  0  0  0  0  0  0  0  0
    7.4695   -3.4370    0.0000 C   0  0  0  0  0  0  0  0  0  0  0  0
    8.2147   -2.1437    0.0000 C   0  0  0  0  0  0  0  0  0  0  0  0
    0.6561   -1.6422    0.0000 C   0  0  0  0  0  0  0  0  0  0  0  0
   -0.6623   -0.8719    0.0000 C   0  0  0  0  0  0  0  0  0  0  0  0
    1.9514   -0.8857    0.0000 C   0  0  0  0  0  0  0  0  0  0  0  0
    1.9629    0.6611    0.0000 C   0  0  0  0  0  0  0  0  0  0  0  0
    5.8476   -1.6405    0.0000 C   0  0  0  0  0  0  0  0  0  0  0  0
    6.0002   -3.1349    0.0000 N   0  0  0  0  0  0  0  0  0  0  0  0
    3.2495   -1.6373    0.0000 N   0  0  0  0  0  0  0  0  0  0  0  0
    4.5495   -0.8889    0.0000 N   0  0  0  0  0  0  0  0  0  0  0  0
    3.2530    1.4263    0.0000 O   0  0  0  0  0  0  0  0  0  0  0  0
    7.2141   -1.0313    0.0000 S   0  0  0  0  0  0  0  0  0  0  0  0
  3  2  2  0
  5  4  2  0
  7  1  1  0
  7  2  1  0
  7  6  2  0
  8  6  1  0
  9  3  1  0
  9  8  2  0
 11  4  1  0
 11 10  2  0
 12  8  1  0
 13 10  1  0
 12 13  2  0
 14  9  1  0
 15  5  1  0
 15 10  1  0
M  END
>  <NAME>  (1417) 
2-(2-THIAZOLYLAZO)-PARA-CRESOL

>  <SYNONYMS>  (1417) 


>  <SPECTRUM TYPE>  (1417) 
MS1

>  <INSTRUMENT TYPE>  (1417) 
EI-B

>  <INSTRUMENT>  (1417) 
JEOL JMS-D-300

>  <ION MODE>  (1417) 
P

>  <INCHIKEY>  (1417) 
MZRKINSTWYZJLV-OUKQBFOZSA-N

>  <FORMULA>  (1417) 
C10H9N3OS

>  <EXACT MASS>  (1417) 
219.046632908

>  <MW>  (1417) 
219

>  <ID>  (1417) 
JP009904

>  <CONTRIBUTOR>  (1417) 
University of Tokyo Team, {Faculty of Engineering, University of Tokyo

>  <COMMENT>  (1417) 
SMILES=Cc(c1)cc(N=Nc(n2)scc2)c(O)c1
cas=1823-44-5
InChI=InChI=1S/C10H9N3OS/c1-7-2-3-9(14)8(6-7)12-13-10-11-4-5-15-10/h2-6,14H,1H3/b13-12+
computed SMILES=OC1=CC=C(C=C1N=NC2=NC=CS2)C
accession=JP009904
date=2016.01.19 (Created 2008.10.21, modified 2011.05.06)
author=KURARAY CO., LTD.
license=CC BY-NC-SA
exact mass=219.04663
ionization energy=70 eV
ion type=[M]+*
computed spectral entropy=3.4073246824594796
computed normalized entropy=0.8464663324454018
SPLASH=splash10-0ar0-9720000000-edc6f505e8393d8e2930
submitter=submitter = University of Tokyo Team (Faculty of Engineering, University of Tokyo)
MoNA Rating=3.75

>  <NUM PEAKS>  (1417) 
56

>  <MASS SPECTRAL PEAKS>  (1417) 
26 2.6
27 7.5
28 8.8
38 2.8
39 19.6
40 4
43 3.7
44 6.8
45 7.8
50 3.8
51 10.2
52 8.6
53 14.7
54 2.5
55 12
58 12
59 5.8
63 5
64 3.2
65 20
66 10.3
67 2
77 46.5
78 26.8
79 15
84 2.6
86 9.5
91 4
92 6.3
93 2
95 1.8
100 4
105 19
106 5.6
107 99.99
108 8.8
117 8.2
120 2.5
123 3
133 1.3
134 3.2
135 15
136 1.7
148 6.8
162 13.8
163 4.3
174 2
176 2
190 11.5
191 36
192 4.8
193 1.3
204 5
219 71.2
220 9.3
221 4.2

>  <PREDICTED SPECTRUM>  (1417) 
33 110
34 88
35 25
36 101
37 173
38 350
39 901
40 440
41 565
42 509
43 533
44 286
45 613
46 230
47 130
48 28
49 70
50 435
51 741
52 752
53 814
54 395
55 488
56 260
57 474
58 502
59 374
60 276
61 193
62 232
63 466
64 334
65 599
66 386
67 435
68 322
69 364
70 267
71 262
72 164
73 149
74 158
75 189
76 189
77 519
78 449
79 670
80 676
81 514
82 273
83 168
84 362
85 359
86 202
87 94
88 22
89 149
90 130
91 342
92 322
93 232
94 65
95 1
96 106
97 175
98 170
99 117
100 141
101 83
102 85
103 36
104 108
105 242
106 145
107 295
108 999
109 411
110 21
112 76
113 207
114 158
115 141
116 14
117 33
118 160
119 59
120 223
121 120
122 101
123 139
129 11
130 122
131 182
132 154
133 189
134 184
135 221
136 105
137 88
139 3
140 21
142 14
143 1
146 143
147 120
148 194
149 95
157 9
158 202
159 63
160 37
161 70
162 285
163 228
164 80
165 31
174 183
175 78
176 23
177 0
190 703
191 727
192 251
193 78
204 16
219 920
220 319
221 126
222 9

$$$$

     RDKit          2D

 13 13  0  0  0  0  0  0  0  0999 V2000
   -5.1970   -1.5006    0.0000 C   0  0  0  0  0  0  0  0  0  0  0  0
   -1.3000    0.7500    0.0000 C   0  0  0  0  0  0  0  0  0  0  0  0
    1.3000    0.7500    0.0000 C   0  0  0  0  0  0  0  0  0  0  0  0
    0.0000    1.5000    0.0000 C   0  0  0  0  0  0  0  0  0  0  0  0
   -1.3000   -0.7500    0.0000 C   0  0  0  0  0  0  0  0  0  0  0  0
    1.3000   -0.7500    0.0000 C   0  0  0  0  0  0  0  0  0  0  0  0
   -0.0000   -1.5000    0.0000 C   0  0  0  0  0  0  0  0  0  0  0  0
   -2.5989   -1.5002    0.0000 C   0  0  0  0  0  0  0  0  0  0  0  0
    0.0000    3.0000    0.0000 Cl  0  0  0  0  0  0  0  0  0  0  0  0
   -0.0000   -3.0000    0.0000 Cl  0  0  0  0  0  0  0  0  0  0  0  0
    2.5989   -1.5002    0.0000 N   0  0  0  0  0  0  0  0  0  0  0  0
   -2.5987   -3.0002    0.0000 O   0  0  0  0  0  0  0  0  0  0  0  0
   -3.8981   -0.7504    0.0000 O   0  0  0  0  0  0  0  0  0  0  0  0
  4  2  2  0
  4  3  1  0
  5  2  1  0
  6  3  2  0
  7  5  2  0
  7  6  1  0
  8  5  1  0
  9  4  1  0
 10  7  1  0
 11  6  1  0
 12  8  2  0
 13  1  1  0
 13  8  1  0
M  END
>  <NAME>  (1418) 
METHYL 2,5-DICHLORO-3-AMINOBENZOATE

>  <SYNONYMS>  (1418) 


>  <SPECTRUM TYPE>  (1418) 
MS1

>  <INSTRUMENT TYPE>  (1418) 
EI-B

>  <INSTRUMENT>  (1418) 
JEOL JMS-D-300

>  <ION MODE>  (1418) 
P

>  <INCHIKEY>  (1418) 
DTSSCQVCVYZGSI-UHFFFAOYSA-N

>  <FORMULA>  (1418) 
C8H7Cl2NO2

>  <EXACT MASS>  (1418) 
218.985383824

>  <MW>  (1418) 
219

>  <ID>  (1418) 
JP009903

>  <CONTRIBUTOR>  (1418) 
University of Tokyo Team, {Faculty of Engineering, University of Tokyo

>  <COMMENT>  (1418) 
SMILES=COC(=O)c(c1)c(Cl)c(N)cc(Cl)1
InChI=InChI=1S/C8H7Cl2NO2/c1-13-8(12)5-2-4(9)3-6(11)7(5)10/h2-3H,11H2,1H3
computed SMILES=O=C(OC)C=1C=C(Cl)C=C(N)C1Cl
accession=JP009903
date=2016.01.19 (Created 2008.10.21, modified 2011.05.06)
author=KURARAY CO., LTD.
license=CC BY-NC-SA
exact mass=218.98538
ionization energy=70 eV
ion type=[M]+*
computed spectral entropy=2.93550610905315
computed normalized entropy=0.7624398887329237
SPLASH=splash10-02gc-1940000000-83e89845d4db1ada099f
submitter=submitter = University of Tokyo Team (Faculty of Engineering, University of Tokyo)
MoNA Rating=3.75

>  <NUM PEAKS>  (1418) 
47

>  <MASS SPECTRAL PEAKS>  (1418) 
28 1.3
38 1.3
41 1.2
52 2.7
60 1.2
61 3.5
62 7
63 7
64 1
65 2.5
73 4
74 1.3
75 1.8
88 2.3
89 4
90 6
94 4.2
95 2.9
96 1.5
97 8.8
98 1.8
99 4
124 25.3
125 6.7
126 9.8
127 2.2
133 5.7
135 3.3
154 1.6
159 1
160 34.1
161 13.7
162 22.3
163 8.5
164 3.6
165 1.2
169 1.8
188 99.99
189 9
190 64.5
191 5.5
192 10.2
219 94
220 9
221 60
222 6.3
223 9.7

>  <PREDICTED SPECTRUM>  (1418) 
15 31
29 74
34 0
35 34
36 65
37 166
38 170
39 133
40 77
41 96
42 42
43 110
44 168
45 35
47 109
48 61
49 181
50 155
51 169
52 180
53 214
54 14
55 90
57 32
59 151
60 75
61 272
62 380
63 422
64 208
65 79
66 26
68 1
69 124
71 15
72 115
73 299
74 275
75 287
76 118
77 96
78 79
80 39
81 69
82 78
83 118
84 172
85 88
86 87
87 98
88 222
89 169
90 223
91 73
94 18
95 68
96 54
97 350
98 273
99 208
100 93
102 12
103 5
104 8
105 109
106 14
107 60
109 27
110 65
112 48
113 17
114 18
119 5
122 4
124 379
125 333
126 230
127 163
131 55
132 162
133 365
134 211
135 208
136 78
153 53
159 75
160 509
161 330
162 408
163 255
164 186
175 6
186 25
187 255
188 999
189 404
190 841
191 285
192 229
193 49
203 20
205 21
218 18
219 915
220 249
221 692
222 199
223 232
224 52

$$$$

     RDKit          2D

 16 16  0  0  0  0  0  0  0  0999 V2000
    0.0872    5.7590    0.0000 C   0  0  0  0  0  0  0  0  0  0  0  0
   -5.5601    3.2003    0.0000 C   0  0  0  0  0  0  0  0  0  0  0  0
   -4.2610    0.9503    0.0000 C   0  0  0  0  0  0  0  0  0  0  0  0
    0.6003    4.3494    0.0000 C   0  0  0  0  0  0  0  0  0  0  0  0
    3.5332    0.9503    0.0000 C   0  0  0  0  0  0  0  0  0  0  0  0
    3.5337    2.4512    0.0000 C   0  0  0  0  0  0  0  0  0  0  0  0
    2.2337    0.1995    0.0000 C   0  0  0  0  0  0  0  0  0  0  0  0
    2.2346    3.2012    0.0000 C   0  0  0  0  0  0  0  0  0  0  0  0
    0.9346    0.9495    0.0000 C   0  0  0  0  0  0  0  0  0  0  0  0
   -2.9620    3.2003    0.0000 C   0  0  0  0  0  0  0  0  0  0  0  0
   -1.6630    2.4503    0.0000 C   0  0  0  0  0  0  0  0  0  0  0  0
   -1.3281    4.3494    0.0000 C   0  0  0  0  0  0  0  0  0  0  0  0
   -4.2610    2.4503    0.0000 C   0  0  0  0  0  0  0  0  0  0  0  0
    0.9351    2.4503    0.0000 C   0  0  0  0  0  0  0  0  0  0  0  0
   -0.3639    3.2003    0.0000 C   0  0  0  0  0  0  0  0  0  0  0  0
   -0.8151    5.7590    0.0000 O   0  0  0  0  0  0  0  0  0  0  0  0
  4  1  1  0
  6  5  2  0
  7  5  1  0
  8  6  1  0
  9  7  2  0
 11 10  1  0
 13  2  1  0
 13  3  1  0
 13 10  2  0
 14  8  2  0
 14  9  1  0
 15  4  1  0
 15 11  1  0
 15 12  1  0
 15 14  1  0
 16 12  1  0
M  END
>  <NAME>  (1419) 
2-ETHYL-5-METHYL-2-PHENYL-4-HEXEN-1-OL

>  <SYNONYMS>  (1419) 


>  <SPECTRUM TYPE>  (1419) 
MS1

>  <INSTRUMENT TYPE>  (1419) 
EI-B

>  <INSTRUMENT>  (1419) 
JEOL JMS-D-300

>  <ION MODE>  (1419) 
P

>  <INCHIKEY>  (1419) 
DHXIFOUGIOWUMY-UHFFFAOYSA-N

>  <FORMULA>  (1419) 
C15H22O

>  <EXACT MASS>  (1419) 
218.167065324

>  <MW>  (1419) 
218

>  <ID>  (1419) 
JP009902

>  <CONTRIBUTOR>  (1419) 
University of Tokyo Team, {Faculty of Engineering, University of Tokyo

>  <COMMENT>  (1419) 
SMILES=CC(C)=CCC(CC)(CO)c(c1)cccc1
InChI=InChI=1S/C15H22O/c1-4-15(12-16,11-10-13(2)3)14-8-6-5-7-9-14/h5-10,16H,4,11-12H2,1-3H3
computed SMILES=OCC(C=1C=CC=CC1)(CC=C(C)C)CC
accession=JP009902
date=2016.01.19 (Created 2008.10.21, modified 2011.05.06)
author=KURARAY CO., LTD.
license=CC BY-NC-SA
exact mass=218.16707
ionization energy=70 eV
ion type=[M]+*
computed spectral entropy=3.015280181971499
computed normalized entropy=0.7707726099227006
SPLASH=splash10-052e-7900000000-650be49310ccfd66319d
submitter=submitter = University of Tokyo Team (Faculty of Engineering, University of Tokyo)
MoNA Rating=3.75

>  <NUM PEAKS>  (1419) 
50

>  <MASS SPECTRAL PEAKS>  (1419) 
27 3
29 5.7
31 1
39 3.3
41 13.2
42 1.2
43 5.8
51 2
53 2.8
55 3.8
57 32.6
58 1.1
63 1
65 2.3
67 1.2
69 12
70 6.6
71 8.3
77 5.8
78 2.2
79 4.8
91 61.8
92 5.4
93 2.7
102 1
103 3.2
105 14.3
106 1.2
107 17.5
108 1.2
115 5
116 2.6
117 5.7
119 2.9
127 1
128 3
129 3.8
130 2
131 18.7
132 5.6
133 1.6
143 2.5
145 3.2
148 24.3
149 99.99
150 11
157 1.6
171 1.2
187 1.5
218 1

>  <PREDICTED SPECTRUM>  (1419) 
27 59
29 88
31 42
32 0
38 5
39 177
40 35
41 316
42 117
43 203
44 1
45 13
50 45
51 113
52 68
53 156
55 217
56 64
57 174
63 70
64 24
65 175
66 41
67 177
68 26
69 253
70 188
71 154
75 9
77 277
78 97
79 224
80 19
81 72
85 35
89 40
90 55
91 465
92 212
93 187
94 36
95 46
96 12
99 13
101 55
102 7
103 200
104 109
105 183
106 145
107 269
108 32
109 5
115 223
116 117
117 182
118 83
119 137
120 62
127 159
128 54
129 137
131 427
132 209
133 66
142 21
143 29
144 4
145 72
146 69
147 67
148 345
149 999
150 286
151 13
157 23
159 20
163 0
218 96
219 19

$$$$

     RDKit          2D

 16 16  0  0  0  0  0  0  0  0999 V2000
   -6.8197    3.1321    0.0000 C   0  0  0  0  0  0  0  0  0  0  0  0
   -5.5207    5.3821    0.0000 C   0  0  0  0  0  0  0  0  0  0  0  0
   -2.5877    1.9830    0.0000 C   0  0  0  0  0  0  0  0  0  0  0  0
   -0.6594    1.9830    0.0000 C   0  0  0  0  0  0  0  0  0  0  0  0
    3.5726    1.6321    0.0000 C   0  0  0  0  0  0  0  0  0  0  0  0
    3.5731    3.1329    0.0000 C   0  0  0  0  0  0  0  0  0  0  0  0
    2.2731    0.8813    0.0000 C   0  0  0  0  0  0  0  0  0  0  0  0
    2.2740    3.8829    0.0000 C   0  0  0  0  0  0  0  0  0  0  0  0
    0.9740    1.6313    0.0000 C   0  0  0  0  0  0  0  0  0  0  0  0
   -4.2216    3.1321    0.0000 C   0  0  0  0  0  0  0  0  0  0  0  0
   -2.9226    3.8821    0.0000 C   0  0  0  0  0  0  0  0  0  0  0  0
   -5.5207    3.8821    0.0000 C   0  0  0  0  0  0  0  0  0  0  0  0
    0.9745    3.1321    0.0000 C   0  0  0  0  0  0  0  0  0  0  0  0
   -0.3245    3.8821    0.0000 C   0  0  0  0  0  0  0  0  0  0  0  0
   -1.6236    3.1321    0.0000 C   0  0  0  0  0  0  0  0  0  0  0  0
   -0.3245    5.3821    0.0000 O   0  0  0  0  0  0  0  0  0  0  0  0
  6  5  2  0
  7  5  1  0
  8  6  1  0
  9  7  2  0
 11 10  1  0
 12  1  1  0
 12  2  1  0
 12 10  2  0
 13  8  2  0
 13  9  1  0
 14 13  1  0
 15  3  1  0
 15  4  1  0
 15 11  1  0
 15 14  1  0
 16 14  1  0
M  END
>  <NAME>  (1420) 
2,2,5-TRIMETHYL-1-PHENYL-4-HEXEN-1-OL

>  <SYNONYMS>  (1420) 


>  <SPECTRUM TYPE>  (1420) 
MS1

>  <INSTRUMENT TYPE>  (1420) 
EI-B

>  <INSTRUMENT>  (1420) 
JEOL JMS-D-300

>  <ION MODE>  (1420) 
P

>  <INCHIKEY>  (1420) 
LHBLOKIXWZKFJL-UHFFFAOYSA-N

>  <FORMULA>  (1420) 
C15H22O

>  <EXACT MASS>  (1420) 
218.167065324

>  <MW>  (1420) 
218

>  <ID>  (1420) 
JP009901

>  <CONTRIBUTOR>  (1420) 
University of Tokyo Team, {Faculty of Engineering, University of Tokyo

>  <COMMENT>  (1420) 
SMILES=CC(C)=CCC(C)(C)C(O)c(c1)cccc1
InChI=InChI=1S/C15H22O/c1-12(2)10-11-15(3,4)14(16)13-8-6-5-7-9-13/h5-10,14,16H,11H2,1-4H3
computed SMILES=OC(C=1C=CC=CC1)C(C)(C)CC=C(C)C
accession=JP009901
date=2016.01.19 (Created 2008.10.21, modified 2011.05.06)
author=KURARAY CO., LTD.
license=CC BY-NC-SA
exact mass=218.16707
ionization energy=70 eV
ion type=[M]+*
computed spectral entropy=3.1670727911060195
computed normalized entropy=0.7903193083063527
SPLASH=splash10-0cdi-9700000000-e8f0d8cbbd8774347c23
submitter=submitter = University of Tokyo Team (Faculty of Engineering, University of Tokyo)
MoNA Rating=3.75

>  <NUM PEAKS>  (1420) 
55

>  <MASS SPECTRAL PEAKS>  (1420) 
27 7
28 1.3
29 6.2
31 2
39 7.2
41 40.5
42 2.6
43 24
44 2
45 2
51 5
53 6.9
55 35.2
56 18
57 21
58 1.8
59 2
67 5.3
68 5
69 99.7
70 7.8
71 6.6
77 16.5
78 3.5
79 28.8
80 2.3
81 3.2
83 4.5
91 7.2
95 7.6
96 2.3
97 1.5
105 9.3
107 99.99
108 10.6
110 12
111 93.7
112 48.8
113 4.8
115 2
117 2.3
119 2
129 1.7
131 4.6
132 2.7
133 1.4
143 2
147 1.6
148 6.6
149 8
157 4.7
185 3.4
200 14.1
201 3.7
208 2

>  <PREDICTED SPECTRUM>  (1420) 
26 39
27 251
28 82
29 227
31 60
37 17
38 62
39 326
40 127
41 572
42 178
43 485
44 115
45 72
49 6
50 185
51 279
52 149
53 261
54 93
55 371
56 263
57 449
58 131
59 165
62 55
63 127
64 77
65 191
66 76
67 366
68 225
69 836
70 233
71 243
72 146
73 101
75 55
76 73
77 495
78 277
79 499
80 63
81 209
83 250
84 21
85 4
87 10
88 107
89 105
90 104
91 361
92 148
93 126
94 20
95 229
97 316
98 130
99 38
101 78
102 43
105 298
107 834
108 465
109 100
110 196
111 999
112 953
113 286
114 90
115 178
117 111
118 17
119 149
120 8
125 35
129 33
130 87
131 236
132 210
133 156
134 8
142 1
143 142
144 15
149 222
150 22
157 143
159 9
160 27
161 33
185 96
200 275
201 79
219 6

$$$$

     RDKit          2D

 11 10  0  0  0  0  0  0  0  0999 V2000
   -6.8200    5.0625    0.0000 C   0  0  0  0  0  0  0  0  0  0  0  0
   -5.5209    2.8125    0.0000 C   0  0  0  0  0  0  0  0  0  0  0  0
   -0.3248    2.8125    0.0000 C   0  0  0  0  0  0  0  0  0  0  0  0
   -2.9228    4.3125    0.0000 C   0  0  0  0  0  0  0  0  0  0  0  0
   -4.2219    5.0625    0.0000 C   0  0  0  0  0  0  0  0  0  0  0  0
   -1.6238    5.0625    0.0000 C   0  0  0  0  0  0  0  0  0  0  0  0
    0.9743    5.0625    0.0000 C   0  0  0  0  0  0  0  0  0  0  0  0
    2.2733    4.3125    0.0000 C   0  0  0  0  0  0  0  0  0  0  0  0
   -5.5209    4.3125    0.0000 C   0  0  0  0  0  0  0  0  0  0  0  0
   -0.3248    4.3125    0.0000 C   0  0  0  0  0  0  0  0  0  0  0  0
    3.5724    5.0625    0.0000 Br  0  0  0  0  0  0  0  0  0  0  0  0
  5  4  1  0
  6  4  1  0
  8  7  1  0
  9  1  1  0
  9  2  1  0
  9  5  2  0
 10  3  1  0
 10  6  1  0
 10  7  1  0
 11  8  1  0
M  END
>  <NAME>  (1421) 
1-BROMO-3,7-DIMETHYL-6-OCTENE

>  <SYNONYMS>  (1421) 


>  <SPECTRUM TYPE>  (1421) 
MS1

>  <INSTRUMENT TYPE>  (1421) 
EI-B

>  <INSTRUMENT>  (1421) 
JEOL JMS-D-30

>  <ION MODE>  (1421) 
P

>  <INCHIKEY>  (1421) 
QPKCDMXLSDFCQD-UHFFFAOYSA-N

>  <FORMULA>  (1421) 
C10H19Br

>  <EXACT MASS>  (1421) 
218.067012708

>  <MW>  (1421) 
218

>  <ID>  (1421) 
JP009900

>  <CONTRIBUTOR>  (1421) 
University of Tokyo Team, {Faculty of Engineering, University of Tokyo

>  <COMMENT>  (1421) 
SMILES=CC(C)=CCCC(C)CCBr
InChI=InChI=1S/C10H19Br/c1-9(2)5-4-6-10(3)7-8-11/h5,10H,4,6-8H2,1-3H3
computed SMILES=BrCCC(C)CCC=C(C)C
accession=JP009900
date=2016.01.19 (Created 2008.10.21, modified 2011.05.06)
author=KURARAY CO., LTD.
license=CC BY-NC-SA
exact mass=218.06701
ionization energy=70 eV
ion type=[M]+*
computed spectral entropy=2.638789875409681
computed normalized entropy=0.7836525237582943
SPLASH=splash10-0api-9000000000-97a905d5f6ed26dca9af
submitter=submitter = University of Tokyo Team (Faculty of Engineering, University of Tokyo)
MoNA Rating=3.75

>  <NUM PEAKS>  (1421) 
29

>  <MASS SPECTRAL PEAKS>  (1421) 
27 7
29 7
39 7.2
41 43.5
42 3
43 8
53 5.3
55 51.6
56 44
57 19
67 7.5
68 3.6
69 99.99
70 14.5
71 2.8
81 4.5
82 1.7
83 63.2
84 4.5
95 2
97 8
111 2.8
139 2.8
148 2.5
150 3
162 7.4
164 7.2
218 5
220 5

>  <PREDICTED SPECTRUM>  (1421) 
26 9
27 212
28 60
29 235
32 1
37 0
38 17
39 304
40 116
41 740
42 243
43 313
44 95
50 58
51 116
52 65
53 237
54 116
55 810
56 548
57 338
58 8
59 3
65 70
67 282
68 208
69 999
70 400
71 129
72 6
73 24
77 75
78 53
79 95
80 80
81 299
82 70
83 648
84 180
85 2
91 7
93 61
95 154
96 31
97 279
98 35
105 0
107 42
109 52
111 159
121 62
122 31
123 36
134 38
135 97
136 99
137 26
138 67
139 79
140 44
147 17
148 199
149 25
150 269
151 94
152 1
160 5
162 173
163 97
164 68
176 74
177 33
178 37
190 37
205 19
218 175
219 43
220 216
221 43

$$$$

     RDKit          2D

 16 15  0  0  0  0  0  0  0  0999 V2000
  -10.0675    8.4375    0.0000 C   0  0  0  0  0  0  0  0  0  0  0  0
   -8.7685    6.1875    0.0000 C   0  0  0  0  0  0  0  0  0  0  0  0
   -3.5724    6.1875    0.0000 C   0  0  0  0  0  0  0  0  0  0  0  0
    1.6238    6.1875    0.0000 C   0  0  0  0  0  0  0  0  0  0  0  0
   -6.1704    7.6875    0.0000 C   0  0  0  0  0  0  0  0  0  0  0  0
   -0.9743    7.6875    0.0000 C   0  0  0  0  0  0  0  0  0  0  0  0
   -7.4695    8.4375    0.0000 C   0  0  0  0  0  0  0  0  0  0  0  0
   -4.8714    8.4375    0.0000 C   0  0  0  0  0  0  0  0  0  0  0  0
   -2.2733    8.4375    0.0000 C   0  0  0  0  0  0  0  0  0  0  0  0
    0.3248    8.4375    0.0000 C   0  0  0  0  0  0  0  0  0  0  0  0
    2.9228    8.4375    0.0000 C   0  0  0  0  0  0  0  0  0  0  0  0
    4.2219    7.6875    0.0000 C   0  0  0  0  0  0  0  0  0  0  0  0
   -8.7685    7.6875    0.0000 C   0  0  0  0  0  0  0  0  0  0  0  0
   -3.5724    7.6875    0.0000 C   0  0  0  0  0  0  0  0  0  0  0  0
    1.6238    7.6875    0.0000 C   0  0  0  0  0  0  0  0  0  0  0  0
    5.5209    6.9375    0.0000 N   0  0  0  0  0  0  0  0  0  0  0  0
  7  5  1  0
  8  5  1  0
  9  6  1  0
 10  6  1  0
 12 11  1  0
 13  1  1  0
 13  2  1  0
 13  7  2  0
 14  3  1  0
 14  8  1  0
  9 14  2  0
 15  4  1  0
 15 10  1  0
 11 15  2  0
 16 12  3  0
M  END
>  <NAME>  (1422) 
3,7,11-TRIMETHYL-2,6,10-DODECATRIENENITRILE

>  <SYNONYMS>  (1422) 


>  <SPECTRUM TYPE>  (1422) 
MS1

>  <INSTRUMENT TYPE>  (1422) 
EI-B

>  <INSTRUMENT>  (1422) 
JEOL JMS-D-300

>  <ION MODE>  (1422) 
P

>  <INCHIKEY>  (1422) 
KNFDAUYLUSORSX-YFVJMOTDSA-N

>  <FORMULA>  (1422) 
C15H23N

>  <EXACT MASS>  (1422) 
217.183049736

>  <MW>  (1422) 
217

>  <ID>  (1422) 
JP009899

>  <CONTRIBUTOR>  (1422) 
University of Tokyo Team, {Faculty of Engineering, University of Tokyo

>  <COMMENT>  (1422) 
SMILES=N#CC=C(C)CCC=C(C)CCC=C(C)C
cas=29789-67-1
InChI=InChI=1S/C15H23N/c1-13(2)7-5-8-14(3)9-6-10-15(4)11-12-16/h7,9,11H,5-6,8,10H2,1-4H3/b14-9+,15-11+
computed SMILES=N#CC=C(C)CCC=C(C)CCC=C(C)C
accession=JP009899
date=2016.01.19 (Created 2008.10.21, modified 2011.05.06)
author=KURARAY CO., LTD.
license=CC BY-NC-SA
exact mass=217.18305
ionization energy=70 eV
ion type=[M]+*
computed spectral entropy=2.480045062047229
computed normalized entropy=0.692069751727253
SPLASH=splash10-014i-9100000000-9ba64f2b4d3fcb638407
submitter=submitter = University of Tokyo Team (Faculty of Engineering, University of Tokyo)
MoNA Rating=3.75

>  <NUM PEAKS>  (1422) 
36

>  <MASS SPECTRAL PEAKS>  (1422) 
27 3
29 3
39 4.2
41 31
42 1.2
43 3.5
53 7
55 7.8
67 6
68 6.2
69 99.99
70 6
77 1.6
79 2.5
80 2
81 41.7
82 3
91 1.3
93 2
94 1.3
95 4.5
96 1.3
106 1
107 1
109 3.5
121 1.5
123 1.6
124 4.2
136 3.3
137 4.6
146 1.6
148 1.7
161 1.7
174 3.5
202 1
217 1.5

>  <PREDICTED SPECTRUM>  (1422) 
26 16
27 122
28 19
29 150
30 35
38 36
39 240
40 97
41 704
42 116
43 152
44 30
50 36
51 70
52 57
53 218
54 87
55 174
56 62
57 42
59 5
63 1
64 1
65 92
66 97
67 295
68 212
69 999
70 195
71 56
72 0
77 165
78 127
79 166
80 197
81 462
82 200
83 65
85 6
89 2
91 153
92 129
93 234
94 123
95 162
96 50
104 25
105 118
106 117
107 157
108 105
109 200
110 19
116 10
117 13
118 20
119 99
120 14
121 159
122 91
123 219
124 84
129 10
130 40
132 24
133 71
134 66
135 85
136 231
137 250
138 44
146 46
147 47
148 69
149 26
160 44
161 50
174 170
175 93
176 9
177 49
178 17
188 4
202 96
217 167
218 79

$$$$

     RDKit          2D

 16 17  0  0  0  0  0  0  0  0999 V2000
    3.9319    0.0285    0.0000 C   0  0  0  0  0  0  0  0  0  0  0  0
    2.9679   -1.1207    0.0000 C   0  0  0  0  0  0  0  0  0  0  0  0
   -6.3036   -0.8603    0.0000 C   0  0  0  0  0  0  0  0  0  0  0  0
   -6.3041   -2.3612    0.0000 C   0  0  0  0  0  0  0  0  0  0  0  0
   -5.0041   -0.1095    0.0000 C   0  0  0  0  0  0  0  0  0  0  0  0
   -5.0050   -3.1112    0.0000 C   0  0  0  0  0  0  0  0  0  0  0  0
   -3.7050   -0.8595    0.0000 C   0  0  0  0  0  0  0  0  0  0  0  0
    0.1911   -0.1095    0.0000 C   0  0  0  0  0  0  0  0  0  0  0  0
    1.4911   -2.3612    0.0000 C   0  0  0  0  0  0  0  0  0  0  0  0
   -1.1079   -0.8595    0.0000 C   0  0  0  0  0  0  0  0  0  0  0  0
    0.1921   -3.1112    0.0000 C   0  0  0  0  0  0  0  0  0  0  0  0
   -2.4065   -3.1103    0.0000 C   0  0  0  0  0  0  0  0  0  0  0  0
   -3.7055   -2.3603    0.0000 C   0  0  0  0  0  0  0  0  0  0  0  0
    1.4906   -0.8603    0.0000 C   0  0  0  0  0  0  0  0  0  0  0  0
   -1.1074   -2.3603    0.0000 N   0  0  0  0  0  0  0  0  0  0  0  0
    2.0038    0.5491    0.0000 O   0  0  0  0  0  0  0  0  0  0  0  0
  2  1  2  0
  4  3  2  0
  5  3  1  0
  6  4  1  0
  7  5  2  0
 10  8  1  0
 11  9  1  0
 13  6  2  0
 13  7  1  0
 13 12  1  0
 14  2  1  0
 14  8  1  0
 14  9  1  0
 15 10  1  0
 15 11  1  0
 15 12  1  0
 16 14  1  0
M  END
>  <NAME>  (1423) 
N-BENZYL-4-ETHENYL-4-HYDROXYPIPERIDINE

>  <SYNONYMS>  (1423) 


>  <SPECTRUM TYPE>  (1423) 
MS1

>  <INSTRUMENT TYPE>  (1423) 
EI-B

>  <INSTRUMENT>  (1423) 
JEOL JMS-D-300

>  <ION MODE>  (1423) 
P

>  <INCHIKEY>  (1423) 
KBCISEBKFUOCHX-UHFFFAOYSA-N

>  <FORMULA>  (1423) 
C14H19NO

>  <EXACT MASS>  (1423) 
217.146664228

>  <MW>  (1423) 
217

>  <ID>  (1423) 
JP009898

>  <CONTRIBUTOR>  (1423) 
University of Tokyo Team, {Faculty of Engineering, University of Tokyo

>  <COMMENT>  (1423) 
SMILES=C=CC(O)(C2)CCN(C2)Cc(c1)cccc1
InChI=InChI=1S/C14H19NO/c1-2-14(16)8-10-15(11-9-14)12-13-6-4-3-5-7-13/h2-7,16H,1,8-12H2
computed SMILES=OC1(C=C)CCN(CC=2C=CC=CC2)CC1
accession=JP009898
date=2016.01.19 (Created 2008.10.21, modified 2011.05.06)
author=KURARAY CO., LTD.
license=CC BY-NC-SA
exact mass=217.14666
ionization energy=70 eV
ion type=[M]+*
computed spectral entropy=2.6278241182234776
computed normalized entropy=0.797316197694363
SPLASH=splash10-0006-9400000000-36028ea9be663081c742
submitter=submitter = University of Tokyo Team (Faculty of Engineering, University of Tokyo)
MoNA Rating=3.75

>  <NUM PEAKS>  (1423) 
27

>  <MASS SPECTRAL PEAKS>  (1423) 
27 2.5
39 3
42 3.5
43 21.5
44 2.6
55 5
56 9.5
65 8.5
89 2
91 99.99
92 21.5
98 15
104 3.2
112 19
118 4.8
126 5.5
132 3.3
133 3.5
140 4
146 10
188 17.3
189 24.5
190 3.2
199 3
200 1.8
216 5
217 10

>  <PREDICTED SPECTRUM>  (1423) 
27 34
28 26
29 13
30 17
38 19
39 180
40 92
41 267
42 401
43 159
44 56
45 9
46 15
50 63
51 156
52 89
53 86
54 94
55 244
56 164
57 101
58 1
62 21
63 125
64 17
65 363
66 92
67 67
68 77
69 79
70 183
71 50
74 31
76 10
77 110
78 82
79 57
80 115
81 30
82 51
83 1
84 31
85 5
89 136
90 21
91 999
92 339
93 6
97 86
98 279
99 27
103 71
104 91
105 119
106 103
112 182
115 26
117 101
118 135
119 58
120 98
126 388
127 61
131 83
132 215
133 90
134 3
138 69
139 68
140 269
141 78
142 50
144 37
145 52
146 169
147 54
160 29
161 22
162 36
170 55
172 29
174 8
175 12
176 28
187 8
188 385
189 385
190 215
191 2
198 1
199 22
200 101
202 20
216 224
217 334
218 79

$$$$

     RDKit          2D

 15 15  0  0  0  0  0  0  0  0999 V2000
    0.3255   -0.9386    0.0000 C   0  0  0  0  0  0  0  0  0  0  0  0
   -8.7680   -3.1886    0.0000 C   0  0  0  0  0  0  0  0  0  0  0  0
    1.6249   -3.1884    0.0000 C   0  0  0  0  0  0  0  0  0  0  0  0
   -0.9731   -3.1889    0.0000 C   0  0  0  0  0  0  0  0  0  0  0  0
   -7.4694   -0.9378    0.0000 C   0  0  0  0  0  0  0  0  0  0  0  0
    2.9239   -2.4382    0.0000 C   0  0  0  0  0  0  0  0  0  0  0  0
   -2.2723   -2.4391    0.0000 C   0  0  0  0  0  0  0  0  0  0  0  0
   -6.1704   -0.1878    0.0000 C   0  0  0  0  0  0  0  0  0  0  0  0
   -6.1694   -3.1895    0.0000 C   0  0  0  0  0  0  0  0  0  0  0  0
    0.3258   -2.4386    0.0000 C   0  0  0  0  0  0  0  0  0  0  0  0
   -7.4689   -2.4386    0.0000 C   0  0  0  0  0  0  0  0  0  0  0  0
   -4.8704   -2.4395    0.0000 C   0  0  0  0  0  0  0  0  0  0  0  0
    4.2230   -3.1880    0.0000 O   0  0  0  0  0  0  0  0  0  0  0  0
   -3.5712   -3.1893    0.0000 O   0  0  0  0  0  0  0  0  0  0  0  0
   -4.8709   -0.9386    0.0000 O   0  0  0  0  0  0  0  0  0  0  0  0
  6  3  1  0
  7  4  1  0
  8  5  1  0
 10  1  1  0
 10  3  1  0
 10  4  1  0
 11  2  1  0
 11  5  1  0
 11  9  1  0
 12  9  1  0
 13  6  1  0
 14  7  1  0
 14 12  1  0
 15  8  1  0
 15 12  1  0
M  END
>  <NAME>  (1424) 
4-METHYL-2-(5-HYDROXY-3-METHYLPENTOXY)TETRAHYDRO-2H-PYRAN

>  <SYNONYMS>  (1424) 


>  <SPECTRUM TYPE>  (1424) 
MS1

>  <INSTRUMENT TYPE>  (1424) 
EI-B

>  <INSTRUMENT>  (1424) 
JEOL JMS-D-300

>  <ION MODE>  (1424) 
P

>  <INCHIKEY>  (1424) 
SKVDDTWHWFDGBM-UHFFFAOYSA-N

>  <FORMULA>  (1424) 
C12H24O3

>  <EXACT MASS>  (1424) 
216.17254462799997

>  <MW>  (1424) 
216

>  <ID>  (1424) 
JP009897

>  <CONTRIBUTOR>  (1424) 
University of Tokyo Team, {Faculty of Engineering, University of Tokyo

>  <COMMENT>  (1424) 
SMILES=OCCC(C)CCOC(O1)CC(C)CC1
InChI=InChI=1S/C12H24O3/c1-10(3-6-13)4-7-14-12-9-11(2)5-8-15-12/h10-13H,3-9H2,1-2H3
computed SMILES=OCCC(C)CCOC1OCCC(C)C1
accession=JP009897
date=2016.01.19 (Created 2008.10.21, modified 2011.05.06)
author=KURARAY CO., LTD.
license=CC BY-NC-SA
exact mass=216.17254
ionization energy=70 eV
ion type=[M]+*
computed spectral entropy=2.731335465423899
computed normalized entropy=0.8030511490306697
SPLASH=splash10-0002-9100000000-9791507d3e3b22990865
submitter=submitter = University of Tokyo Team (Faculty of Engineering, University of Tokyo)
MoNA Rating=3.75

>  <NUM PEAKS>  (1424) 
30

>  <MASS SPECTRAL PEAKS>  (1424) 
27 3.8
28 6.5
29 5
31 7.6
32 2.7
39 2.8
40 2.5
41 14
42 12.6
43 22.3
44 1.8
45 4
55 36
56 3
57 7.2
67 2.5
69 7.7
70 9.6
71 5.5
73 1.3
81 7.7
83 33
98 8
99 99.99
100 7.2
101 23.2
102 2.3
116 10.5
117 3.8
133 1.3

>  <PREDICTED SPECTRUM>  (1424) 
26 46
27 173
28 107
29 183
31 183
32 3
39 205
40 57
41 538
42 267
43 442
44 96
45 190
47 40
50 24
51 61
53 143
54 113
55 721
56 312
57 436
58 24
59 86
66 3
67 176
68 58
69 266
70 205
71 264
72 53
73 129
81 189
82 5
83 467
84 123
89 60
97 28
98 14
99 999
100 268
101 379
102 20
117 143
118 5

$$$$

     RDKit          2D

 15 15  0  0  0  0  0  0  0  0999 V2000
    0.9276    1.8391    0.0000 C   0  0  0  0  0  0  0  0  0  0  0  0
   -1.1213    0.8878    0.0000 C   0  0  0  0  0  0  0  0  0  0  0  0
   -1.6700   -1.1613    0.0000 C   0  0  0  0  0  0  0  0  0  0  0  0
    7.4240    2.5900    0.0000 C   0  0  0  0  0  0  0  0  0  0  0  0
    8.7240    1.8400    0.0000 C   0  0  0  0  0  0  0  0  0  0  0  0
    6.1240    1.8400    0.0000 C   0  0  0  0  0  0  0  0  0  0  0  0
    2.2270   -0.4107    0.0000 C   0  0  0  0  0  0  0  0  0  0  0  0
    8.7240    0.3400    0.0000 C   0  0  0  0  0  0  0  0  0  0  0  0
    3.5259    0.3395    0.0000 C   0  0  0  0  0  0  0  0  0  0  0  0
    0.9278    0.3391    0.0000 C   0  0  0  0  0  0  0  0  0  0  0  0
    6.1240    0.3400    0.0000 C   0  0  0  0  0  0  0  0  0  0  0  0
   -0.3711   -0.4111    0.0000 C   0  0  0  0  0  0  0  0  0  0  0  0
    0.3791   -1.7100    0.0000 O   0  0  0  0  0  0  0  0  0  0  0  0
    7.4240   -0.4100    0.0000 O   0  0  0  0  0  0  0  0  0  0  0  0
    4.8251   -0.4102    0.0000 O   0  0  0  0  0  0  0  0  0  0  0  0
  5  4  1  0
  6  4  1  0
  8  5  1  0
  9  7  1  0
 10  1  1  0
 10  7  1  0
 11  6  1  0
 12  2  1  0
 12  3  1  0
 12 10  1  0
 13 12  1  0
 14  8  1  0
 14 11  1  0
 15  9  1  0
 15 11  1  0
M  END
>  <NAME>  (1425) 
2-(4-HYDROXY-3,4-DIMETHYLPENTOXY)TETRAHYDRO-2H-PYRAN

>  <SYNONYMS>  (1425) 


>  <SPECTRUM TYPE>  (1425) 
MS1

>  <INSTRUMENT TYPE>  (1425) 
EI-B

>  <INSTRUMENT>  (1425) 
JEOL JMS-D-300

>  <ION MODE>  (1425) 
P

>  <INCHIKEY>  (1425) 
AHUOICUKGFHOHG-UHFFFAOYSA-N

>  <FORMULA>  (1425) 
C12H24O3

>  <EXACT MASS>  (1425) 
216.17254462799997

>  <MW>  (1425) 
216

>  <ID>  (1425) 
JP009896

>  <CONTRIBUTOR>  (1425) 
University of Tokyo Team, {Faculty of Engineering, University of Tokyo

>  <COMMENT>  (1425) 
SMILES=CC(CCOC(C1)OCCC1)C(C)(C)O
InChI=InChI=1S/C12H24O3/c1-10(12(2,3)13)7-9-15-11-6-4-5-8-14-11/h10-11,13H,4-9H2,1-3H3
computed SMILES=OC(C)(C)C(C)CCOC1OCCCC1
accession=JP009896
date=2016.01.19 (Created 2008.10.21, modified 2011.05.06)
author=KURARAY CO., LTD.
license=CC BY-NC-SA
exact mass=216.17254
ionization energy=70 eV
ion type=[M]+*
computed spectral entropy=2.876505975778227
computed normalized entropy=0.8226797526420287
SPLASH=splash10-052u-9100000000-32a0a6e7becc9720adea
submitter=submitter = University of Tokyo Team (Faculty of Engineering, University of Tokyo)
MoNA Rating=3.75

>  <NUM PEAKS>  (1425) 
33

>  <MASS SPECTRAL PEAKS>  (1425) 
27 6.5
28 4
29 13.8
31 9
39 6
41 28.6
42 6.8
43 40
44 1.3
45 2
53 1.7
55 26.2
56 9
57 15
58 2.7
59 44
67 8.7
69 23.5
70 2
71 3.2
73 2
83 6.5
84 3
85 99.99
86 5.8
99 10.5
101 6.3
112 18
114 1.5
116 6.2
126 3
129 19.5
132 2.8

>  <PREDICTED SPECTRUM>  (1425) 
15 7
17 10
19 10
25 3
26 92
27 328
28 208
29 408
31 352
33 28
37 21
38 60
39 269
40 118
41 501
42 140
43 500
44 114
45 200
51 21
52 2
53 156
54 140
55 448
56 335
57 480
58 128
59 786
60 123
65 24
66 27
67 353
68 142
69 363
70 116
71 162
72 71
73 57
81 32
82 41
83 253
84 142
85 999
86 225
87 87
93 2
97 178
98 73
99 42
100 7
101 544
102 32
111 89
112 105
113 54
114 203
115 274
116 42
129 149
140 26
158 75

$$$$

     RDKit          2D

 15 14  0  0  0  0  0  0  0  0999 V2000
    3.8971    6.7500    0.0000 C   0  0  0  0  0  0  0  0  0  0  0  0
  -11.6913    6.7500    0.0000 C   0  0  0  0  0  0  0  0  0  0  0  0
   -3.8971    6.7500    0.0000 C   0  0  0  0  0  0  0  0  0  0  0  0
   -2.5981    7.5000    0.0000 C   0  0  0  0  0  0  0  0  0  0  0  0
   -5.1962    7.5000    0.0000 C   0  0  0  0  0  0  0  0  0  0  0  0
   -1.2990    6.7500    0.0000 C   0  0  0  0  0  0  0  0  0  0  0  0
   -6.4952    6.7500    0.0000 C   0  0  0  0  0  0  0  0  0  0  0  0
    0.0000    7.5000    0.0000 C   0  0  0  0  0  0  0  0  0  0  0  0
   -7.7942    7.5000    0.0000 C   0  0  0  0  0  0  0  0  0  0  0  0
    1.2990    6.7500    0.0000 C   0  0  0  0  0  0  0  0  0  0  0  0
   -9.0933    6.7500    0.0000 C   0  0  0  0  0  0  0  0  0  0  0  0
    1.2990    5.2500    0.0000 O   0  0  0  0  0  0  0  0  0  0  0  0
   -9.0933    5.2500    0.0000 O   0  0  0  0  0  0  0  0  0  0  0  0
    2.5981    7.5000    0.0000 O   0  0  0  0  0  0  0  0  0  0  0  0
  -10.3923    7.5000    0.0000 O   0  0  0  0  0  0  0  0  0  0  0  0
  4  3  1  0
  5  3  1  0
  6  4  1  0
  7  5  1  0
  8  6  1  0
  9  7  1  0
 10  8  1  0
 11  9  1  0
 12 10  2  0
 13 11  2  0
 14  1  1  0
 14 10  1  0
 15  2  1  0
 15 11  1  0
M  END
>  <NAME>  (1426) 
DIMETHYL NONANEDIOATE

>  <SYNONYMS>  (1426) 


>  <SPECTRUM TYPE>  (1426) 
MS1

>  <INSTRUMENT TYPE>  (1426) 
EI-B

>  <INSTRUMENT>  (1426) 
JEOL JMS-D-300

>  <ION MODE>  (1426) 
P

>  <INCHIKEY>  (1426) 
DRUKNYVQGHETPO-UHFFFAOYSA-N

>  <FORMULA>  (1426) 
C11H20O4

>  <EXACT MASS>  (1426) 
216.13615912

>  <MW>  (1426) 
216

>  <ID>  (1426) 
JP009894

>  <CONTRIBUTOR>  (1426) 
University of Tokyo Team, {Faculty of Engineering, University of Tokyo

>  <COMMENT>  (1426) 
SMILES=COC(=O)CCCCCCCC(=O)OC
cas=1732-10-1
InChI=InChI=1S/C11H20O4/c1-14-10(12)8-6-4-3-5-7-9-11(13)15-2/h3-9H2,1-2H3
computed SMILES=O=C(OC)CCCCCCCC(=O)OC
accession=JP009894
date=2016.01.19 (Created 2008.10.21, modified 2011.05.06)
author=KURARAY CO., LTD.
license=CC BY-NC-SA
exact mass=216.13616
ionization energy=70 eV
ion type=[M]+*
computed spectral entropy=3.4087378262835135
computed normalized entropy=0.819628192944975
SPLASH=splash10-0piu-9200000000-2d1b67f9c876d877c4a4
submitter=submitter = University of Tokyo Team (Faculty of Engineering, University of Tokyo)
MoNA Rating=3.75

>  <NUM PEAKS>  (1426) 
64

>  <MASS SPECTRAL PEAKS>  (1426) 
27 8.8
28 17.2
29 13.8
30 2
31 3.5
32 8.6
33 1
39 11
41 39.8
42 12.3
43 46.1
44 4
45 7.6
49 1.1
53 4.5
54 4.6
55 91.6
56 6.8
57 7.6
58 1.7
59 49
60 2
63 5.9
65 1.3
67 10.2
68 8.7
69 41
70 4
71 6.6
72 2
73 9.5
74 96.5
75 5.8
77 2.7
79 4.7
80 4.8
81 10.8
82 12
83 72
84 36.8
85 4
87 35.5
88 4.9
89 1.3
91 1.2
92 1.4
93 3.2
94 1.5
95 5
96 12.8
97 31.8
98 21
99 4.1
100 1.5
151 1.7
152 99.99
153 14.3
154 1
156 7
157 2.2
184 4.5
185 58.4
186 8.2
187 1.2

>  <PREDICTED SPECTRUM>  (1426) 
15 47
26 22
27 167
28 118
29 234
31 102
32 1
39 224
40 109
41 657
42 350
43 500
44 131
45 189
49 33
51 42
52 42
53 215
54 279
55 999
56 328
57 299
58 72
59 718
60 152
61 19
65 42
66 29
67 415
68 312
69 732
70 286
71 194
72 97
73 334
74 920
75 219
77 64
78 5
79 192
80 115
81 394
82 315
83 652
84 379
85 101
86 46
87 714
88 92
91 106
92 76
93 232
94 164
95 285
96 400
97 625
98 597
99 139
100 95
101 320
102 51
105 66
106 53
107 176
109 142
110 260
111 601
112 371
113 51
114 139
115 147
116 104
120 44
121 151
122 5
123 18
124 209
125 335
126 214
127 77
128 199
129 143
130 101
134 25
135 191
137 59
138 105
139 56
140 86
141 29
142 222
143 714
144 265
145 6
152 157
153 152
154 37
156 176
157 149
166 21
184 223
185 571
186 196

$$$$

     RDKit          2D

 15 14  0  0  0  0  0  0  0  0999 V2000
   -6.5663    4.4589    0.0000 C   0  0  0  0  0  0  0  0  0  0  0  0
    2.5270    3.7089    0.0000 C   0  0  0  0  0  0  0  0  0  0  0  0
    1.2279    5.9589    0.0000 C   0  0  0  0  0  0  0  0  0  0  0  0
   -3.6334    2.5599    0.0000 C   0  0  0  0  0  0  0  0  0  0  0  0
   -1.2538    0.0013    0.0000 C   0  0  0  0  0  0  0  0  0  0  0  0
    0.7364    1.6713    0.0000 C   0  0  0  0  0  0  0  0  0  0  0  0
   -5.2673    3.7089    0.0000 C   0  0  0  0  0  0  0  0  0  0  0  0
   -0.0711    3.7089    0.0000 C   0  0  0  0  0  0  0  0  0  0  0  0
   -3.9682    4.4589    0.0000 C   0  0  0  0  0  0  0  0  0  0  0  0
   -1.3701    4.4589    0.0000 C   0  0  0  0  0  0  0  0  0  0  0  0
    1.2279    4.4589    0.0000 C   0  0  0  0  0  0  0  0  0  0  0  0
   -1.7050    2.5599    0.0000 C   0  0  0  0  0  0  0  0  0  0  0  0
   -2.6692    3.7089    0.0000 C   0  0  0  0  0  0  0  0  0  0  0  0
   -2.2180    1.1503    0.0000 O   0  0  0  0  0  0  0  0  0  0  0  0
   -0.2278    2.8204    0.0000 O   0  0  0  0  0  0  0  0  0  0  0  0
  7  1  1  0
  9  7  1  0
 10  8  1  0
 11  2  1  0
 11  3  1  0
 11  8  2  0
 13  4  1  0
 13  9  1  0
 13 10  1  0
 13 12  1  0
 14  5  1  0
 14 12  1  0
 15  6  1  0
 15 12  1  0
M  END
>  <NAME>  (1427) 
2,5-DIMETHYL-2-PROPYL-4-HEXENAL DIMETHYL ACETAL

>  <SYNONYMS>  (1427) 


>  <SPECTRUM TYPE>  (1427) 
MS1

>  <INSTRUMENT TYPE>  (1427) 
EI-B

>  <INSTRUMENT>  (1427) 
JEOL JMS-D-300

>  <ION MODE>  (1427) 
P

>  <INCHIKEY>  (1427) 
CYKQWXWEZRIDJL-UHFFFAOYSA-N

>  <FORMULA>  (1427) 
C13H26O2

>  <EXACT MASS>  (1427) 
214.193280072

>  <MW>  (1427) 
214

>  <ID>  (1427) 
JP009893

>  <CONTRIBUTOR>  (1427) 
University of Tokyo Team, {Faculty of Engineering, University of Tokyo

>  <COMMENT>  (1427) 
SMILES=CCCC(C)(CC=C(C)C)C(OC)OC
InChI=InChI=1S/C13H26O2/c1-7-9-13(4,10-8-11(2)3)12(14-5)15-6/h8,12H,7,9-10H2,1-6H3
computed SMILES=O(C)C(OC)C(C)(CC=C(C)C)CCC
accession=JP009893
date=2016.01.19 (Created 2008.10.21, modified 2011.05.06)
author=KURARAY CO., LTD.
license=CC BY-NC-SA
exact mass=214.19328
ionization energy=70 eV
ion type=[M]+*
computed spectral entropy=2.0332349813134343
computed normalized entropy=0.6169100789804576
SPLASH=splash10-004i-9300000000-a82660e4075ac8c5a9d8
submitter=submitter = University of Tokyo Team (Faculty of Engineering, University of Tokyo)
MoNA Rating=3.75

>  <NUM PEAKS>  (1427) 
27

>  <MASS SPECTRAL PEAKS>  (1427) 
29 1
41 6
43 1.6
45 1.2
47 2.3
56 3.2
59 2.7
69 9
71 1.2
73 1
75 99.99
76 3.3
81 2.2
85 3.9
86 1
87 3
107 1.5
109 1.2
113 2
114 1.8
115 2
139 24
140 2.7
145 1.5
167 1.6
182 8.6
183 3.2

>  <PREDICTED SPECTRUM>  (1427) 
29 109
31 74
39 99
41 107
43 8
45 97
47 164
53 36
55 29
57 8
58 48
59 42
65 28
67 27
69 174
71 131
72 6
73 70
75 999
76 171
77 107
81 78
82 60
85 45
93 63
95 18
101 32
113 47
114 0
123 49
125 30
137 37
139 309
151 80
167 35
182 171
183 55
214 57

$$$$

     RDKit          2D

 15 15  0  0  0  0  0  0  0  0999 V2000
    0.3255   -0.9386    0.0000 C   0  0  0  0  0  0  0  0  0  0  0  0
   -8.7680   -3.1886    0.0000 C   0  0  0  0  0  0  0  0  0  0  0  0
    1.6249   -3.1884    0.0000 C   0  0  0  0  0  0  0  0  0  0  0  0
   -0.9731   -3.1889    0.0000 C   0  0  0  0  0  0  0  0  0  0  0  0
   -7.4694   -0.9378    0.0000 C   0  0  0  0  0  0  0  0  0  0  0  0
    2.9239   -2.4382    0.0000 C   0  0  0  0  0  0  0  0  0  0  0  0
   -2.2723   -2.4391    0.0000 C   0  0  0  0  0  0  0  0  0  0  0  0
   -6.1704   -0.1878    0.0000 C   0  0  0  0  0  0  0  0  0  0  0  0
   -6.1694   -3.1895    0.0000 C   0  0  0  0  0  0  0  0  0  0  0  0
    0.3258   -2.4386    0.0000 C   0  0  0  0  0  0  0  0  0  0  0  0
   -7.4689   -2.4386    0.0000 C   0  0  0  0  0  0  0  0  0  0  0  0
   -4.8704   -2.4395    0.0000 C   0  0  0  0  0  0  0  0  0  0  0  0
    4.2230   -3.1880    0.0000 O   0  0  0  0  0  0  0  0  0  0  0  0
   -3.5712   -3.1893    0.0000 O   0  0  0  0  0  0  0  0  0  0  0  0
   -4.8709   -0.9386    0.0000 O   0  0  0  0  0  0  0  0  0  0  0  0
  6  3  1  0
  7  4  1  0
  8  5  1  0
 10  1  1  0
 10  3  1  0
 10  4  1  0
 11  2  1  0
 11  5  1  0
 11  9  1  0
 12  9  1  0
 13  6  2  0
 14  7  1  0
 14 12  1  0
 15  8  1  0
 15 12  1  0
M  END
>  <NAME>  (1428) 
4-METHYL-2-(4-METHYL-6-OXO-1-OXAHEXYL)TETRAHYDRO-2H-PYRAN

>  <SYNONYMS>  (1428) 


>  <SPECTRUM TYPE>  (1428) 
MS1

>  <INSTRUMENT TYPE>  (1428) 
EI-B

>  <INSTRUMENT>  (1428) 
JEOL JMS-D-300

>  <ION MODE>  (1428) 
P

>  <INCHIKEY>  (1428) 
NYNVUDUNNAUQKW-UHFFFAOYSA-N

>  <FORMULA>  (1428) 
C12H22O3

>  <EXACT MASS>  (1428) 
214.15689456399997

>  <MW>  (1428) 
214

>  <ID>  (1428) 
JP009892

>  <CONTRIBUTOR>  (1428) 
University of Tokyo Team, {Faculty of Engineering, University of Tokyo

>  <COMMENT>  (1428) 
SMILES=O=CCC(C)CCOC(O1)CC(C)CC1
cas=101153-83-7
InChI=InChI=1S/C12H22O3/c1-10(3-6-13)4-7-14-12-9-11(2)5-8-15-12/h6,10-12H,3-5,7-9H2,1-2H3
computed SMILES=O=CCC(C)CCOC1OCCC(C)C1
accession=JP009892
date=2016.01.19 (Created 2008.10.21, modified 2011.05.06)
author=KURARAY CO., LTD.
license=CC BY-NC-SA
exact mass=214.15689
ionization energy=70 eV
ion type=[M]+*
computed spectral entropy=2.31594149936597
computed normalized entropy=0.7026869330986262
SPLASH=splash10-0002-9000000000-e2c4ca7d928ac5bb162f
submitter=submitter = University of Tokyo Team (Faculty of Engineering, University of Tokyo)
MoNA Rating=3.75

>  <NUM PEAKS>  (1428) 
27

>  <MASS SPECTRAL PEAKS>  (1428) 
27 2.5
28 1.5
29 4
31 2.5
39 1.5
41 10.6
42 3.7
43 23
44 1.2
45 2.8
53 1.5
55 14
56 1.5
57 6.3
58 1
59 3.2
67 1.8
69 9.3
70 7.2
81 9.8
82 1
83 3.3
84 4.7
98 3.3
99 99.99
100 8.2
101 1.5

>  <PREDICTED SPECTRUM>  (1428) 
26 31
27 132
28 87
29 145
31 71
39 131
40 50
41 366
42 223
43 450
44 91
45 64
47 63
51 3
53 99
54 146
55 409
56 233
57 333
58 5
59 1
60 38
61 9
65 34
66 30
67 147
68 75
69 221
70 162
71 73
72 60
73 92
81 228
82 114
83 118
84 104
85 47
86 65
87 78
95 46
98 182
99 999
100 218
101 102
113 23
115 18
116 56
128 10
129 33
130 41

$$$$

     RDKit          2D

 15 14  0  0  0  0  0  0  0  0999 V2000
    3.8971    6.0000    0.0000 C   0  0  0  0  0  0  0  0  0  0  0  0
   -2.5981    8.2500    0.0000 C   0  0  0  0  0  0  0  0  0  0  0  0
  -10.3923    6.7500    0.0000 C   0  0  0  0  0  0  0  0  0  0  0  0
    2.5981    6.7500    0.0000 C   0  0  0  0  0  0  0  0  0  0  0  0
   -5.1962    6.7500    0.0000 C   0  0  0  0  0  0  0  0  0  0  0  0
   -3.8971    6.0000    0.0000 C   0  0  0  0  0  0  0  0  0  0  0  0
   -6.4952    6.0000    0.0000 C   0  0  0  0  0  0  0  0  0  0  0  0
   -1.2990    6.0000    0.0000 C   0  0  0  0  0  0  0  0  0  0  0  0
    0.0000    6.7500    0.0000 C   0  0  0  0  0  0  0  0  0  0  0  0
   -2.5981    6.7500    0.0000 C   0  0  0  0  0  0  0  0  0  0  0  0
    1.2990    6.0000    0.0000 C   0  0  0  0  0  0  0  0  0  0  0  0
   -7.7942    6.7500    0.0000 C   0  0  0  0  0  0  0  0  0  0  0  0
    1.2990    4.5000    0.0000 O   0  0  0  0  0  0  0  0  0  0  0  0
   -7.7942    8.2500    0.0000 O   0  0  0  0  0  0  0  0  0  0  0  0
   -9.0933    6.0000    0.0000 O   0  0  0  0  0  0  0  0  0  0  0  0
  4  1  1  0
  6  5  1  0
  7  5  1  0
  9  8  1  0
 10  2  1  0
  6 10  2  0
 10  8  1  0
 11  4  1  0
 11  9  1  0
 12  7  1  0
 13 11  1  0
 14 12  2  0
 15  3  1  0
 15 12  1  0
M  END
>  <NAME>  (1429) 
METHYL 8-HYDROXY-5-METHYL-4-DECENOATE

>  <SYNONYMS>  (1429) 


>  <SPECTRUM TYPE>  (1429) 
MS1

>  <INSTRUMENT TYPE>  (1429) 
EI-B

>  <INSTRUMENT>  (1429) 
JEOL JMS-D-300

>  <ION MODE>  (1429) 
P

>  <INCHIKEY>  (1429) 
PAFTXKVWUFSNKO-UXBLZVDNSA-N

>  <FORMULA>  (1429) 
C12H22O3

>  <EXACT MASS>  (1429) 
214.15689456399997

>  <MW>  (1429) 
214

>  <ID>  (1429) 
JP009891

>  <CONTRIBUTOR>  (1429) 
University of Tokyo Team, {Faculty of Engineering, University of Tokyo

>  <COMMENT>  (1429) 
SMILES=CCC(O)CCC(C)=CCCC(=O)OC
InChI=InChI=1S/C12H22O3/c1-4-11(13)9-8-10(2)6-5-7-12(14)15-3/h6,11,13H,4-5,7-9H2,1-3H3/b10-6+
computed SMILES=O=C(OC)CCC=C(C)CCC(O)CC
accession=JP009891
date=2016.01.19 (Created 2008.10.21, modified 2011.05.06)
author=KURARAY CO., LTD.
license=CC BY-NC-SA
exact mass=214.15689
ionization energy=70 eV
ion type=[M]+*
computed spectral entropy=3.8256870868963238
computed normalized entropy=0.9269596601358367
SPLASH=splash10-053u-9300000000-a811f75917e3a09af57e
submitter=submitter = University of Tokyo Team (Faculty of Engineering, University of Tokyo)
MoNA Rating=3.75

>  <NUM PEAKS>  (1429) 
62

>  <MASS SPECTRAL PEAKS>  (1429) 
27 10.8
29 13.2
31 30
39 13.4
41 35.8
42 4.7
43 32
44 4.3
45 8.2
53 14.8
54 4
55 45.2
56 5
57 12.8
59 32
65 3.7
67 35.8
68 14
69 32.5
70 8.8
71 5.3
72 21
73 4.7
74 25.6
77 7.3
79 26.7
80 17.2
81 99.99
82 44.6
83 31
85 14.7
87 13.5
91 5.7
93 72
94 21
95 28.6
96 14.7
97 8.2
98 16.5
99 15.3
107 24
108 18.2
109 19.6
110 5.7
111 34.8
112 5.3
122 8.3
123 26.6
124 20.8
125 23.5
127 3.8
135 18.6
136 5.6
140 30.2
141 6
142 8.7
143 23.6
147 4
153 9
156 17.8
165 4.5
167 5.2

>  <PREDICTED SPECTRUM>  (1429) 
26 46
27 324
28 105
29 386
30 57
31 232
32 24
33 58
37 2
38 68
39 465
40 200
41 863
42 268
43 881
44 192
45 359
46 41
47 6
50 98
51 195
52 158
53 461
54 320
55 866
56 333
57 600
58 249
59 644
60 141
61 96
63 30
64 15
65 275
66 200
67 767
68 557
69 699
70 306
71 371
72 287
73 245
74 560
75 185
76 32
77 282
78 93
79 482
80 428
81 999
82 490
83 654
84 278
85 432
86 90
87 300
88 104
89 4
91 351
92 174
93 708
94 443
95 708
96 463
97 524
98 412
99 282
100 117
101 76
104 20
105 270
106 228
107 502
108 550
109 624
110 412
111 424
112 237
113 181
114 149
115 105
119 50
121 350
122 356
123 577
124 254
125 506
126 181
127 159
128 257
129 142
130 55
131 18
132 48
133 98
134 37
135 334
136 197
137 201
138 118
139 317
140 396
141 363
142 151
143 200
144 14
146 33
147 86
149 151
152 30
153 177
154 126
155 54
156 70
157 61
164 175
165 254
167 182
182 19
183 32
185 56
196 132
214 7

$$$$

     RDKit          2D

 15 14  0  0  0  0  0  0  0  0999 V2000
    4.8714    6.5625    0.0000 C   0  0  0  0  0  0  0  0  0  0  0  0
   -5.5209    6.5625    0.0000 C   0  0  0  0  0  0  0  0  0  0  0  0
   -4.2219    7.3125    0.0000 C   0  0  0  0  0  0  0  0  0  0  0  0
   -6.8200    7.3125    0.0000 C   0  0  0  0  0  0  0  0  0  0  0  0
   -2.9228    6.5625    0.0000 C   0  0  0  0  0  0  0  0  0  0  0  0
   -8.1190    6.5625    0.0000 C   0  0  0  0  0  0  0  0  0  0  0  0
   -1.6238    7.3125    0.0000 C   0  0  0  0  0  0  0  0  0  0  0  0
   -9.4180    7.3125    0.0000 C   0  0  0  0  0  0  0  0  0  0  0  0
   -0.3248    6.5625    0.0000 C   0  0  0  0  0  0  0  0  0  0  0  0
  -10.7171    6.5625    0.0000 C   0  0  0  0  0  0  0  0  0  0  0  0
    0.9743    7.3125    0.0000 C   0  0  0  0  0  0  0  0  0  0  0  0
    3.5724    7.3125    0.0000 C   0  0  0  0  0  0  0  0  0  0  0  0
  -12.0161    7.3125    0.0000 O   0  0  0  0  0  0  0  0  0  0  0  0
    3.5724    8.8125    0.0000 O   0  0  0  0  0  0  0  0  0  0  0  0
    2.2733    6.5625    0.0000 O   0  0  0  0  0  0  0  0  0  0  0  0
  3  2  1  0
  4  2  1  0
  5  3  1  0
  6  4  1  0
  7  5  1  0
  8  6  1  0
  9  7  1  0
 10  8  1  0
 11  9  1  0
 12  1  1  0
 13 10  2  0
 14 12  2  0
 15 11  1  0
 15 12  1  0
M  END
>  <NAME>  (1430) 
10-OXODECANYL ACETATE

>  <SYNONYMS>  (1430) 


>  <SPECTRUM TYPE>  (1430) 
MS1

>  <INSTRUMENT TYPE>  (1430) 
EI-B

>  <INSTRUMENT>  (1430) 
JEOL JMS-D-300

>  <ION MODE>  (1430) 
P

>  <INCHIKEY>  (1430) 
JAPNOISVXDOAHT-UHFFFAOYSA-N

>  <FORMULA>  (1430) 
C12H22O3

>  <EXACT MASS>  (1430) 
214.15689456399997

>  <MW>  (1430) 
214

>  <ID>  (1430) 
JP009890

>  <CONTRIBUTOR>  (1430) 
University of Tokyo Team, {Faculty of Engineering, University of Tokyo

>  <COMMENT>  (1430) 
SMILES=O=CCCCCCCCCCOC(C)=O
InChI=InChI=1S/C12H22O3/c1-12(14)15-11-9-7-5-3-2-4-6-8-10-13/h10H,2-9,11H2,1H3
computed SMILES=O=CCCCCCCCCCOC(=O)C
accession=JP009890
date=2016.01.19 (Created 2008.10.21, modified 2011.05.06)
author=KURARAY CO., LTD.
license=CC BY-NC-SA
exact mass=214.15689
ionization energy=70 eV
ion type=[M]+*
computed spectral entropy=3.308079802106313
computed normalized entropy=0.8741844680444912
SPLASH=splash10-014l-9100000000-c0df55f9105dbd06a515
submitter=submitter = University of Tokyo Team (Faculty of Engineering, University of Tokyo)
MoNA Rating=3.75

>  <NUM PEAKS>  (1430) 
44

>  <MASS SPECTRAL PEAKS>  (1430) 
27 4.8
28 19.7
29 11
32 12.3
39 4.8
41 30
42 10
43 99.99
44 9
45 2.1
54 13.2
55 51
56 22
57 16.7
58 4.8
61 32.3
67 21
68 22.3
69 64
70 22.7
71 9
73 4.8
79 6.8
80 5.8
81 17
82 16.6
83 19.3
84 12.8
85 3
94 7
95 5.3
96 10
97 4.2
98 19
112 4.8
113 3
114 1.6
115 5.5
116 42.9
117 6
121 2.8
126 5.2
135 1.3
171 4

>  <PREDICTED SPECTRUM>  (1430) 
14 2
15 21
26 30
27 123
28 90
29 195
30 48
31 108
32 1
37 3
38 7
39 188
40 90
41 657
42 413
43 999
44 371
45 198
46 11
47 49
48 23
49 25
50 16
51 52
52 63
53 183
54 372
55 658
56 390
57 488
58 199
59 148
60 116
61 363
62 51
63 37
65 94
66 153
67 494
68 556
69 577
70 397
71 353
72 166
73 234
74 90
75 64
76 4
77 62
78 21
79 145
80 116
81 496
82 513
83 478
84 338
85 189
86 140
87 103
88 96
89 86
90 4
91 99
92 25
93 70
94 162
95 445
96 484
97 427
98 283
99 148
100 90
101 86
102 34
103 34
105 36
107 96
108 92
109 192
110 219
111 224
112 188
113 127
114 64
115 127
116 146
117 43
118 24
119 3
121 78
122 30
123 93
124 93
125 148
126 183
127 87
128 62
129 62
133 9
135 4
136 43
137 112
139 124
140 88
141 88
142 36
143 65
144 5
145 25
153 25
154 121
155 90
156 12
169 3
170 6
171 108
172 7
173 3

$$$$

     RDKit          2D

 15 14  0  0  0  0  0  0  0  0999 V2000
    2.5981    4.5000    0.0000 C   0  0  0  0  0  0  0  0  0  0  0  0
   -5.0395    3.6114    0.0000 C   0  0  0  0  0  0  0  0  0  0  0  0
   -0.9642    5.6491    0.0000 C   0  0  0  0  0  0  0  0  0  0  0  0
   -5.1962    9.0000    0.0000 C   0  0  0  0  0  0  0  0  0  0  0  0
    1.2990    3.7500    0.0000 C   0  0  0  0  0  0  0  0  0  0  0  0
   -4.0753    4.7605    0.0000 C   0  0  0  0  0  0  0  0  0  0  0  0
   -2.5981    6.0000    0.0000 C   0  0  0  0  0  0  0  0  0  0  0  0
   -1.2990    3.7500    0.0000 C   0  0  0  0  0  0  0  0  0  0  0  0
   -3.8971    6.7500    0.0000 C   0  0  0  0  0  0  0  0  0  0  0  0
    0.0000    4.5000    0.0000 C   0  0  0  0  0  0  0  0  0  0  0  0
   -2.5981    4.5000    0.0000 C   0  0  0  0  0  0  0  0  0  0  0  0
   -5.1962    6.0000    0.0000 O   0  0  0  0  0  0  0  0  0  0  0  0
    0.9642    5.6491    0.0000 O   0  0  0  0  0  0  0  0  0  0  0  0
   -3.1111    3.0905    0.0000 O   0  0  0  0  0  0  0  0  0  0  0  0
   -3.8971    8.2500    0.0000 O   0  0  0  0  0  0  0  0  0  0  0  0
  5  1  2  0
  6  2  2  0
  9  7  1  0
 10  3  1  0
 10  5  1  0
 10  8  1  0
 11  6  1  0
 11  7  1  0
 11  8  1  0
 12  9  2  0
 13 10  1  0
 14 11  1  0
 15  4  1  0
 15  9  1  0
M  END
>  <NAME>  (1431) 
METHYL 3,5-DIHYDRO-3-ETHENYL-5-METHYL-6-HEPTENOATE

>  <SYNONYMS>  (1431) 


>  <SPECTRUM TYPE>  (1431) 
MS1

>  <INSTRUMENT TYPE>  (1431) 
EI-B

>  <INSTRUMENT>  (1431) 
JEOL JMS-D-300

>  <ION MODE>  (1431) 
P

>  <INCHIKEY>  (1431) 
DBGDHNKKUGAQJO-UHFFFAOYSA-N

>  <FORMULA>  (1431) 
C11H18O4

>  <EXACT MASS>  (1431) 
214.120509056

>  <MW>  (1431) 
214

>  <ID>  (1431) 
JP009889

>  <CONTRIBUTOR>  (1431) 
University of Tokyo Team, {Faculty of Engineering, University of Tokyo

>  <COMMENT>  (1431) 
SMILES=COC(=O)CC(O)(C=C)CC(C)(O)C=C
InChI=InChI=1S/C11H18O4/c1-5-10(3,13)8-11(14,6-2)7-9(12)15-4/h5-6,13-14H,1-2,7-8H2,3-4H3
computed SMILES=O=C(OC)CC(O)(C=C)CC(O)(C=C)C
accession=JP009889
date=2016.01.19 (Created 2008.10.21, modified 2011.05.06)
author=KURARAY CO., LTD.
license=CC BY-NC-SA
exact mass=214.12051
ionization energy=70 eV
ion type=[M]+*
computed spectral entropy=3.594842878313789
computed normalized entropy=0.8710263691291247
SPLASH=splash10-0006-9700000000-028deddf0d481a5f0883
submitter=submitter = University of Tokyo Team (Faculty of Engineering, University of Tokyo)
MoNA Rating=3.75

>  <NUM PEAKS>  (1431) 
62

>  <MASS SPECTRAL PEAKS>  (1431) 
27 4.5
28 6.3
29 4.2
39 6.6
41 14.8
42 6.2
43 99.99
44 4.8
53 3
54 2
55 14
56 2.8
57 3.8
58 2
59 9.5
67 6.3
68 7.7
69 12
70 5.6
71 12.8
73 2
74 2.8
79 4.8
80 2.8
81 9
84 14.2
85 8.5
93 3
94 8.3
95 12.4
96 2
97 18
98 61.4
99 10.5
101 4.6
111 22
112 26.3
113 10
117 2.8
122 7
123 3.2
125 15.5
126 21
127 3.8
129 6.6
130 2.6
139 11
140 29.8
141 30.3
142 2
143 9
144 5.3
154 32
155 20.6
156 1.5
165 5.7
171 5.5
172 17.2
173 1.5
182 2
183 4
214 2.2

>  <PREDICTED SPECTRUM>  (1431) 
14 13
15 49
19 2
25 9
26 74
27 184
28 87
29 145
31 131
32 7
33 72
38 41
39 303
40 142
41 446
42 180
43 999
44 76
45 138
50 16
51 123
52 107
53 241
54 170
55 295
56 163
57 270
58 198
59 368
60 47
61 14
65 15
66 45
67 321
68 193
69 184
70 156
71 491
72 145
73 113
74 158
75 5
77 68
78 126
79 263
80 200
81 288
82 134
83 115
84 190
85 176
86 83
87 104
88 49
93 142
94 59
95 356
96 208
97 397
98 405
99 289
100 117
101 168
102 15
103 26
104 33
105 67
109 72
110 51
111 501
112 279
113 343
114 82
115 39
116 16
117 9
121 54
122 83
123 280
124 131
125 206
126 355
127 200
128 84
129 95
131 137
133 81
137 65
138 89
139 374
140 587
141 532
142 201
143 170
144 84
145 39
146 16
151 14
153 149
154 386
155 323
156 132
157 16
165 151
169 0
171 193
172 257
173 48
182 5
183 130
184 13
199 1

$$$$

     RDKit          2D

  6  5  0  0  0  0  0  0  0  0999 V2000
   -1.9486    3.3750    0.0000 C   0  0  0  0  0  0  0  0  0  0  0  0
   -0.6495    2.6250    0.0000 C   0  0  0  0  0  0  0  0  0  0  0  0
   -3.2476    2.6250    0.0000 C   0  0  0  0  0  0  0  0  0  0  0  0
    0.6495    3.3750    0.0000 C   0  0  0  0  0  0  0  0  0  0  0  0
   -4.5466    3.3750    0.0000 Br  0  0  0  0  0  0  0  0  0  0  0  0
    1.9486    2.6250    0.0000 Br  0  0  0  0  0  0  0  0  0  0  0  0
  2  1  1  0
  3  1  1  0
  4  2  1  0
  5  3  1  0
  6  4  1  0
M  END
>  <NAME>  (1432) 
1,4-DIBROMOBUTANE

>  <SYNONYMS>  (1432) 


>  <SPECTRUM TYPE>  (1432) 
MS1

>  <INSTRUMENT TYPE>  (1432) 
EI-B

>  <INSTRUMENT>  (1432) 
JEOL JMS-D-300

>  <ION MODE>  (1432) 
P

>  <INCHIKEY>  (1432) 
ULTHEAFYOOPTTB-UHFFFAOYSA-N

>  <FORMULA>  (1432) 
C4H8Br2

>  <EXACT MASS>  (1432) 
213.899274456

>  <MW>  (1432) 
214

>  <ID>  (1432) 
JP009888

>  <CONTRIBUTOR>  (1432) 
University of Tokyo Team, {Faculty of Engineering, University of Tokyo

>  <COMMENT>  (1432) 
SMILES=BrCCCCBr
cas=110-52-1
InChI=InChI=1S/C4H8Br2/c5-3-1-2-4-6/h1-4H2
computed SMILES=BrCCCCBr
accession=JP009888
date=2016.01.19 (Created 2008.10.21, modified 2011.05.06)
author=KURARAY CO., LTD.
license=CC BY-NC-SA
exact mass=213.89928
ionization energy=70 eV
ion type=[M]+*
computed spectral entropy=2.4359025443832754
computed normalized entropy=0.7234002200492909
SPLASH=splash10-052r-7900000000-7e27fed7fcb7770cebfa
submitter=submitter = University of Tokyo Team (Faculty of Engineering, University of Tokyo)
MoNA Rating=3.75

>  <NUM PEAKS>  (1432) 
29

>  <MASS SPECTRAL PEAKS>  (1432) 
26 4
27 18.2
28 5.4
29 18
39 10.7
41 10
50 1
51 1.2
53 5
54 1.5
55 99.99
56 4.4
79 1.7
80 3.1
81 1.7
82 3.2
95 3.6
106 4.5
107 13.6
108 4.6
109 13.2
134 10.2
135 84.4
136 13.7
137 80.8
138 3.3
214 0.9
216 1.7
218 0.8

>  <PREDICTED SPECTRUM>  (1432) 
14 45
15 43
25 49
26 211
27 548
28 258
29 331
32 7
37 73
38 121
39 558
40 172
41 807
43 55
47 18
49 11
50 116
51 212
52 86
53 219
54 145
55 980
56 296
57 124
63 90
65 139
67 71
69 2
79 234
80 230
81 351
82 100
83 99
93 225
95 290
96 135
97 87
99 9
107 453
108 159
109 440
110 150
134 72
135 999
136 191
137 770
138 226
214 121
215 16
216 179
218 110

$$$$

     RDKit          2D

 15 14  0  0  0  0  0  0  0  0999 V2000
    3.8971    6.0000    0.0000 C   0  0  0  0  0  0  0  0  0  0  0  0
   -2.5981    8.2500    0.0000 C   0  0  0  0  0  0  0  0  0  0  0  0
  -10.3923    6.7500    0.0000 C   0  0  0  0  0  0  0  0  0  0  0  0
    2.5981    6.7500    0.0000 C   0  0  0  0  0  0  0  0  0  0  0  0
   -5.1962    6.7500    0.0000 C   0  0  0  0  0  0  0  0  0  0  0  0
   -3.8971    6.0000    0.0000 C   0  0  0  0  0  0  0  0  0  0  0  0
   -6.4952    6.0000    0.0000 C   0  0  0  0  0  0  0  0  0  0  0  0
   -1.2990    6.0000    0.0000 C   0  0  0  0  0  0  0  0  0  0  0  0
    0.0000    6.7500    0.0000 C   0  0  0  0  0  0  0  0  0  0  0  0
   -2.5981    6.7500    0.0000 C   0  0  0  0  0  0  0  0  0  0  0  0
    1.2990    6.0000    0.0000 C   0  0  0  0  0  0  0  0  0  0  0  0
   -7.7942    6.7500    0.0000 C   0  0  0  0  0  0  0  0  0  0  0  0
    1.2990    4.5000    0.0000 O   0  0  0  0  0  0  0  0  0  0  0  0
   -7.7942    8.2500    0.0000 O   0  0  0  0  0  0  0  0  0  0  0  0
   -9.0933    6.0000    0.0000 O   0  0  0  0  0  0  0  0  0  0  0  0
  4  1  1  0
  6  5  1  0
  7  5  1  0
  9  8  1  0
 10  2  1  0
  6 10  2  0
 10  8  1  0
 11  4  1  0
 11  9  1  0
 12  7  1  0
 13 11  2  0
 14 12  2  0
 15  3  1  0
 15 12  1  0
M  END
>  <NAME>  (1433) 
METHYL 5-METHYL-8-OXO-4-DECENOATE

>  <SYNONYMS>  (1433) 


>  <SPECTRUM TYPE>  (1433) 
MS1

>  <INSTRUMENT TYPE>  (1433) 
EI-B

>  <INSTRUMENT>  (1433) 
JEOL JMS-D-300

>  <ION MODE>  (1433) 
P

>  <INCHIKEY>  (1433) 
KQXMJPIJJDMVKD-UXBLZVDNSA-N

>  <FORMULA>  (1433) 
C12H20O3

>  <EXACT MASS>  (1433) 
212.14124449999997

>  <MW>  (1433) 
212

>  <ID>  (1433) 
JP009887

>  <CONTRIBUTOR>  (1433) 
University of Tokyo Team, {Faculty of Engineering, University of Tokyo

>  <COMMENT>  (1433) 
SMILES=CCC(=O)CCC(C)=CCCC(=O)OC
InChI=InChI=1S/C12H20O3/c1-4-11(13)9-8-10(2)6-5-7-12(14)15-3/h6H,4-5,7-9H2,1-3H3/b10-6+
computed SMILES=O=C(OC)CCC=C(C)CCC(=O)CC
accession=JP009887
date=2016.01.19 (Created 2008.10.21, modified 2011.05.06)
author=KURARAY CO., LTD.
license=CC BY-NC-SA
exact mass=212.14124
ionization energy=70 eV
ion type=[M]+*
computed spectral entropy=3.3219529361240983
computed normalized entropy=0.8327817051525457
SPLASH=splash10-0a4i-9300000000-65ee1489ac305963af31
submitter=submitter = University of Tokyo Team (Faculty of Engineering, University of Tokyo)
MoNA Rating=3.75

>  <NUM PEAKS>  (1433) 
54

>  <MASS SPECTRAL PEAKS>  (1433) 
27 5.8
29 30.5
39 5.2
41 14
43 10
45 2
53 7.2
55 15
57 99.99
58 5
59 10.2
65 1.2
67 10.6
68 1.7
69 2.3
72 5.2
74 6.8
77 2.2
79 8
80 7.2
81 60.6
82 10
83 2.7
85 2.2
91 1
93 2.2
94 1.2
95 25.2
96 4.5
97 3.6
98 7.8
99 15.5
105 2
107 1.2
108 9.2
109 16
110 1.2
113 2.2
120 3
121 6.2
123 28.3
124 10
125 14.8
151 4.4
152 4.3
155 4.8
163 1.5
165 1.5
180 2.3
181 8.5
194 20.7
195 1.5
212 16
213 1.2

>  <PREDICTED SPECTRUM>  (1433) 
27 133
28 21
29 270
31 74
33 15
39 170
40 40
41 463
42 50
43 531
44 48
45 97
51 105
52 83
53 283
54 109
55 599
56 29
57 999
58 137
59 264
65 141
66 66
67 477
68 313
69 368
70 74
71 201
72 248
73 93
74 263
77 166
79 303
80 219
81 866
82 274
83 415
85 357
86 114
87 75
91 227
92 10
93 362
94 270
95 775
96 365
97 329
98 167
99 309
100 13
104 43
105 311
106 86
107 389
108 348
109 380
110 231
111 33
112 26
113 106
114 127
119 58
120 39
121 218
122 3
123 635
124 317
125 174
126 184
127 62
135 173
137 200
138 95
139 69
140 10
141 162
142 81
151 124
152 228
153 56
155 261
156 14
162 25
163 89
165 114
180 126
181 260
183 18
194 373
212 296
213 81

$$$$

     RDKit          2D

 15 14  0  0  0  0  0  0  0  0999 V2000
   -2.2733    7.6875    0.0000 C   0  0  0  0  0  0  0  0  0  0  0  0
   -7.4695    7.6875    0.0000 C   0  0  0  0  0  0  0  0  0  0  0  0
    4.2219    5.4375    0.0000 C   0  0  0  0  0  0  0  0  0  0  0  0
   -4.8714    6.1875    0.0000 C   0  0  0  0  0  0  0  0  0  0  0  0
   -3.5724    5.4375    0.0000 C   0  0  0  0  0  0  0  0  0  0  0  0
   -6.1704    5.4375    0.0000 C   0  0  0  0  0  0  0  0  0  0  0  0
   -0.9743    5.4375    0.0000 C   0  0  0  0  0  0  0  0  0  0  0  0
    0.3248    6.1875    0.0000 C   0  0  0  0  0  0  0  0  0  0  0  0
   -8.7685    5.4375    0.0000 C   0  0  0  0  0  0  0  0  0  0  0  0
   -2.2733    6.1875    0.0000 C   0  0  0  0  0  0  0  0  0  0  0  0
   -7.4695    6.1875    0.0000 C   0  0  0  0  0  0  0  0  0  0  0  0
    2.9228    6.1875    0.0000 C   0  0  0  0  0  0  0  0  0  0  0  0
  -10.0675    6.1875    0.0000 O   0  0  0  0  0  0  0  0  0  0  0  0
    2.9228    7.6875    0.0000 O   0  0  0  0  0  0  0  0  0  0  0  0
    1.6238    5.4375    0.0000 O   0  0  0  0  0  0  0  0  0  0  0  0
  5  4  1  0
  6  4  1  0
  8  7  1  0
 10  1  1  0
 10  5  1  0
  7 10  2  0
 11  2  1  0
  6 11  2  0
 11  9  1  0
 12  3  1  0
 13  9  1  0
 14 12  2  0
 15  8  1  0
 15 12  1  0
M  END
>  <NAME>  (1434) 
8-HYDROXY-3,7-DIMETHYL-2,6-OCTADIENYL ACETATE(E)

>  <SYNONYMS>  (1434) 


>  <SPECTRUM TYPE>  (1434) 
MS1

>  <INSTRUMENT TYPE>  (1434) 
EI-B

>  <INSTRUMENT>  (1434) 
JEOL JMS-D-300

>  <ION MODE>  (1434) 
P

>  <INCHIKEY>  (1434) 
HZIJXISIZGWHAY-NXAIOARDSA-N

>  <FORMULA>  (1434) 
C12H20O3

>  <EXACT MASS>  (1434) 
212.14124449999997

>  <MW>  (1434) 
212

>  <ID>  (1434) 
JP009886

>  <CONTRIBUTOR>  (1434) 
University of Tokyo Team, {Faculty of Engineering, University of Tokyo

>  <COMMENT>  (1434) 
SMILES=OCC(C)=CCCC(C)=CCOC(C)=O
InChI=InChI=1S/C12H20O3/c1-10(7-8-15-12(3)14)5-4-6-11(2)9-13/h6-7,13H,4-5,8-9H2,1-3H3/b10-7+,11-6+
computed SMILES=O=C(OCC=C(C)CCC=C(C)CO)C
accession=JP009886
date=2016.01.19 (Created 2008.10.21, modified 2011.05.06)
author=KURARAY CO., LTD.
license=CC BY-NC-SA
exact mass=212.14124
ionization energy=70 eV
ion type=[M]+*
computed spectral entropy=3.231962820400563
computed normalized entropy=0.8261615066976952
SPLASH=splash10-00kf-9100000000-e8fc17d2cdbf477bbf13
submitter=submitter = University of Tokyo Team (Faculty of Engineering, University of Tokyo)
MoNA Rating=3.75

>  <NUM PEAKS>  (1434) 
50

>  <MASS SPECTRAL PEAKS>  (1434) 
27 6.6
29 10.5
31 1.8
39 9.8
40 2.7
41 22.8
42 3.2
43 99.99
44 3
45 3
53 7
55 3
57 7.8
65 2.8
67 22.5
68 70
69 13.2
71 5.3
77 4.2
79 7
80 5
81 10
82 10
83 7
84 53.7
85 15
86 2.2
91 6
92 4.2
93 12.6
94 12.6
95 7
96 3
97 10.3
105 4
106 2
107 2
109 6
110 1.5
119 9.8
120 1.3
121 6.8
122 1.2
123 4.2
126 4.2
127 4
134 15.2
135 5.3
137 3
152 3.8

>  <PREDICTED SPECTRUM>  (1434) 
25 4
26 48
27 200
28 63
29 193
30 51
31 103
33 18
37 19
38 48
39 275
40 146
41 524
42 233
43 999
44 201
45 194
46 11
47 28
48 5
49 41
50 65
51 143
52 103
53 299
54 199
55 362
56 130
57 221
58 105
59 122
60 76
61 103
62 16
63 54
64 30
65 166
66 123
67 425
68 441
69 378
70 209
71 317
72 98
73 78
74 28
75 9
77 212
78 145
79 329
80 206
81 331
82 261
83 310
84 422
85 290
86 58
87 55
89 24
91 282
92 213
93 400
94 293
95 349
96 162
97 196
98 129
99 76
100 45
101 43
102 4
103 42
104 7
105 186
106 136
107 230
108 138
109 211
110 125
111 154
112 87
113 35
115 58
117 69
118 54
119 225
120 145
121 275
122 156
123 164
124 103
125 42
126 106
127 42
128 44
129 0
131 3
132 38
133 87
134 338
135 214
136 121
137 163
138 77
139 60
140 9
145 18
147 19
150 17
151 75
152 224
153 48
154 12
155 15
161 10
162 56
168 20
169 0

$$$$

     RDKit          2D

 15 14  0  0  0  0  0  0  0  0999 V2000
   -8.7685    6.1875    0.0000 C   0  0  0  0  0  0  0  0  0  0  0  0
   -7.4695    3.9375    0.0000 C   0  0  0  0  0  0  0  0  0  0  0  0
   -2.2733    3.9375    0.0000 C   0  0  0  0  0  0  0  0  0  0  0  0
    4.2219    6.1875    0.0000 C   0  0  0  0  0  0  0  0  0  0  0  0
   -3.5724    6.1875    0.0000 C   0  0  0  0  0  0  0  0  0  0  0  0
   -4.8714    5.4375    0.0000 C   0  0  0  0  0  0  0  0  0  0  0  0
   -0.9743    6.1875    0.0000 C   0  0  0  0  0  0  0  0  0  0  0  0
    0.3248    5.4375    0.0000 C   0  0  0  0  0  0  0  0  0  0  0  0
   -7.4695    5.4375    0.0000 C   0  0  0  0  0  0  0  0  0  0  0  0
   -2.2733    5.4375    0.0000 C   0  0  0  0  0  0  0  0  0  0  0  0
    2.9228    5.4375    0.0000 C   0  0  0  0  0  0  0  0  0  0  0  0
   -6.1704    6.1875    0.0000 C   0  0  0  0  0  0  0  0  0  0  0  0
    2.9228    3.9375    0.0000 O   0  0  0  0  0  0  0  0  0  0  0  0
   -6.1704    7.6875    0.0000 O   0  0  0  0  0  0  0  0  0  0  0  0
    1.6238    6.1875    0.0000 O   0  0  0  0  0  0  0  0  0  0  0  0
  6  5  1  0
  8  7  1  0
  9  1  2  0
  9  2  1  0
 10  3  1  0
 10  5  1  0
  7 10  2  0
 11  4  1  0
 12  6  1  0
 12  9  1  0
 13 11  2  0
 14 12  1  0
 15  8  1  0
 15 11  1  0
M  END
>  <NAME>  (1435) 
6-HYDROXY-3,7-DIMETHYL-2,7-OCTADIENYL ACETATE(E)

>  <SYNONYMS>  (1435) 


>  <SPECTRUM TYPE>  (1435) 
MS1

>  <INSTRUMENT TYPE>  (1435) 
EI-B

>  <INSTRUMENT>  (1435) 
JEOL JMS-D-300

>  <ION MODE>  (1435) 
P

>  <INCHIKEY>  (1435) 
AJCBRFGINYAOCJ-JXMROGBWSA-N

>  <FORMULA>  (1435) 
C12H20O3

>  <EXACT MASS>  (1435) 
212.14124449999997

>  <MW>  (1435) 
212

>  <ID>  (1435) 
JP009884

>  <CONTRIBUTOR>  (1435) 
University of Tokyo Team, {Faculty of Engineering, University of Tokyo

>  <COMMENT>  (1435) 
SMILES=CC(=O)OCC=C(C)CCC(O)C(C)=C
cas=33766-43-7
InChI=InChI=1S/C12H20O3/c1-9(2)12(14)6-5-10(3)7-8-15-11(4)13/h7,12,14H,1,5-6,8H2,2-4H3/b10-7+
computed SMILES=O=C(OCC=C(C)CCC(O)C(=C)C)C
accession=JP009884
date=2016.01.19 (Created 2008.10.21, modified 2011.05.06)
author=KURARAY CO., LTD.
license=CC BY-NC-SA
exact mass=212.14124
ionization energy=70 eV
ion type=[M]+*
computed spectral entropy=3.433872109519551
computed normalized entropy=0.8777740071453735
SPLASH=splash10-00lu-9100000000-1a1985c37855dfd53412
submitter=submitter = University of Tokyo Team (Faculty of Engineering, University of Tokyo)
MoNA Rating=3.75

>  <NUM PEAKS>  (1435) 
50

>  <MASS SPECTRAL PEAKS>  (1435) 
27 10.6
29 7.6
39 10.2
41 35
42 6.2
43 91.6
44 3.1
45 5.2
53 10.7
54 4.2
55 22.5
57 7
67 66.3
68 40.2
69 47.6
70 5.8
71 41
72 12
77 5
79 14.6
80 6.5
81 43
82 41.2
83 10.2
84 99.99
85 7
91 8
92 6.8
93 15.5
94 8
95 9.2
96 9.6
97 14
105 10
106 7.5
107 7
108 5.3
109 11.7
110 10.3
111 4.5
112 4.5
119 21.6
121 2.3
123 8
124 6.2
126 15
134 19.2
135 4
137 11.6
152 8.8

>  <PREDICTED SPECTRUM>  (1435) 
25 12
26 64
27 267
28 74
29 238
31 85
38 21
39 298
40 148
41 628
42 221
43 999
44 195
45 232
46 0
48 1
50 25
51 79
52 76
53 358
54 261
55 517
56 190
57 268
58 126
59 186
60 132
61 76
63 6
65 141
66 129
67 598
68 661
69 553
70 309
71 735
72 167
73 100
77 182
78 115
79 428
80 256
81 537
82 361
83 427
84 582
85 419
86 120
87 60
89 26
91 284
92 224
93 560
94 312
95 396
96 239
97 336
98 99
99 37
100 43
101 49
103 54
104 33
105 150
106 110
107 307
108 165
109 415
110 270
111 280
112 141
115 72
117 54
118 11
119 312
120 146
121 358
122 86
123 264
124 225
125 145
126 172
127 78
128 33
129 3
131 43
132 35
133 96
134 390
135 237
136 152
137 306
138 114
139 35
144 12
145 38
151 71
152 277
153 84
154 40
177 44

$$$$

     RDKit          2D

 15 15  0  0  0  0  0  0  0  0999 V2000
    9.0942    0.7512    0.0000 C   0  0  0  0  0  0  0  0  0  0  0  0
   -2.5989   -1.5002    0.0000 C   0  0  0  0  0  0  0  0  0  0  0  0
    7.7951    1.5010    0.0000 C   0  0  0  0  0  0  0  0  0  0  0  0
    5.1970    1.5006    0.0000 C   0  0  0  0  0  0  0  0  0  0  0  0
    3.8981    0.7504    0.0000 C   0  0  0  0  0  0  0  0  0  0  0  0
   -1.3000    0.7500    0.0000 C   0  0  0  0  0  0  0  0  0  0  0  0
   -0.0000   -1.5000    0.0000 C   0  0  0  0  0  0  0  0  0  0  0  0
    0.0000    1.5000    0.0000 C   0  0  0  0  0  0  0  0  0  0  0  0
    1.3000   -0.7500    0.0000 C   0  0  0  0  0  0  0  0  0  0  0  0
    6.4962    0.7508    0.0000 C   0  0  0  0  0  0  0  0  0  0  0  0
    2.5989    1.5002    0.0000 C   0  0  0  0  0  0  0  0  0  0  0  0
   -1.3000   -0.7500    0.0000 N   0  0  0  0  0  0  0  0  0  0  0  0
    1.3000    0.7500    0.0000 N   0  0  0  0  0  0  0  0  0  0  0  0
    6.4964   -0.7492    0.0000 O   0  0  0  0  0  0  0  0  0  0  0  0
    2.5987    3.0002    0.0000 O   0  0  0  0  0  0  0  0  0  0  0  0
  3  1  1  0
  5  4  1  0
  8  6  1  0
  9  7  1  0
 10  3  1  0
 10  4  1  0
 11  5  1  0
 12  2  1  0
 12  6  1  0
 12  7  1  0
 13  8  1  0
 13  9  1  0
 13 11  1  0
 14 10  2  0
 15 11  2  0
M  END
>  <NAME>  (1436) 
1-METHYL-4-(1,4-DIOXOHEXYL)PIPERAZINE

>  <SYNONYMS>  (1436) 


>  <SPECTRUM TYPE>  (1436) 
MS1

>  <INSTRUMENT TYPE>  (1436) 
EI-B

>  <INSTRUMENT>  (1436) 
JEOL JMS-D-300

>  <ION MODE>  (1436) 
P

>  <INCHIKEY>  (1436) 
TYGIAYFULOQNDZ-UHFFFAOYSA-N

>  <FORMULA>  (1436) 
C11H20N2O2

>  <EXACT MASS>  (1436) 
212.15247788

>  <MW>  (1436) 
212

>  <ID>  (1436) 
JP009883

>  <CONTRIBUTOR>  (1436) 
University of Tokyo Team, {Faculty of Engineering, University of Tokyo

>  <COMMENT>  (1436) 
SMILES=CCC(=O)CCC(=O)N(C1)CCN(C)C1
InChI=InChI=1S/C11H20N2O2/c1-3-10(14)4-5-11(15)13-8-6-12(2)7-9-13/h3-9H2,1-2H3
computed SMILES=O=C(N1CCN(C)CC1)CCC(=O)CC
accession=JP009883
date=2016.01.19 (Created 2008.10.21, modified 2011.05.06)
author=KURARAY CO., LTD.
license=CC BY-NC-SA
exact mass=212.15248
ionization energy=70 eV
ion type=[M]+*
computed spectral entropy=2.9887752252998574
computed normalized entropy=0.81581136445659
SPLASH=splash10-0ab9-9100000000-bf89c1e50c2f488f524c
submitter=submitter = University of Tokyo Team (Faculty of Engineering, University of Tokyo)
MoNA Rating=3.75

>  <NUM PEAKS>  (1436) 
39

>  <MASS SPECTRAL PEAKS>  (1436) 
27 5.8
29 12.3
30 3
41 4
42 21.7
43 25.4
44 9.5
54 2.2
55 10
56 32.3
57 22.3
58 55.8
59 1.6
69 1.8
70 99.99
71 16.7
72 3
82 2
83 28.3
84 5
85 4.3
95 2
98 7.6
99 54
100 4.8
101 2.2
112 20.3
113 21.3
114 1.5
126 1.3
127 2.3
140 3.8
154 1.8
155 9
156 2
170 2
183 6.3
212 16.8
213 2.6

>  <PREDICTED SPECTRUM>  (1436) 
15 54
26 36
27 76
28 88
29 105
30 83
31 1
33 22
39 155
40 120
41 177
42 561
43 585
44 388
45 67
50 23
51 13
52 48
53 131
54 227
55 336
56 746
57 672
58 788
59 191
65 20
67 93
68 134
69 126
70 999
71 373
72 154
77 9
80 7
81 20
82 194
83 616
84 290
85 390
86 114
87 39
94 18
95 116
96 56
97 225
98 215
99 834
100 229
101 230
111 160
112 235
113 620
114 109
115 0
124 37
125 46
126 145
127 100
129 24
139 54
140 146
141 46
142 93
144 26
153 37
154 48
155 276
156 114
157 20
168 24
169 17
170 44
181 18
183 140
184 11
197 13
210 6
212 304
213 102

$$$$

     RDKit          2D

 16 17  0  0  0  0  0  0  0  0999 V2000
    3.2481    2.1950    0.0000 C   0  0  0  0  0  0  0  0  0  0  0  0
   -7.1442    2.1950    0.0000 C   0  0  0  0  0  0  0  0  0  0  0  0
    3.2486    3.6958    0.0000 C   0  0  0  0  0  0  0  0  0  0  0  0
    1.9486    1.4442    0.0000 C   0  0  0  0  0  0  0  0  0  0  0  0
   -5.8447    1.4442    0.0000 C   0  0  0  0  0  0  0  0  0  0  0  0
   -7.1447    3.6958    0.0000 C   0  0  0  0  0  0  0  0  0  0  0  0
    1.9495    4.4458    0.0000 C   0  0  0  0  0  0  0  0  0  0  0  0
    0.6495    2.1942    0.0000 C   0  0  0  0  0  0  0  0  0  0  0  0
   -4.5457    2.1942    0.0000 C   0  0  0  0  0  0  0  0  0  0  0  0
   -5.8457    4.4458    0.0000 C   0  0  0  0  0  0  0  0  0  0  0  0
   -0.6490    4.4450    0.0000 C   0  0  0  0  0  0  0  0  0  0  0  0
   -3.2471    4.4450    0.0000 C   0  0  0  0  0  0  0  0  0  0  0  0
    0.6500    3.6950    0.0000 C   0  0  0  0  0  0  0  0  0  0  0  0
   -4.5462    3.6950    0.0000 C   0  0  0  0  0  0  0  0  0  0  0  0
   -1.9481    3.6950    0.0000 C   0  0  0  0  0  0  0  0  0  0  0  0
   -1.9481    2.1950    0.0000 O   0  0  0  0  0  0  0  0  0  0  0  0
  3  1  2  0
  4  1  1  0
  5  2  2  0
  6  2  1  0
  7  3  1  0
  8  4  2  0
  9  5  1  0
 10  6  2  0
 13  7  2  0
 13  8  1  0
 13 11  1  0
 14  9  2  0
 14 10  1  0
 14 12  1  0
 15 11  1  0
 15 12  1  0
 16 15  2  0
M  END
>  <NAME>  (1437) 
1,3-DIPHENYLACETONE

>  <SYNONYMS>  (1437) 


>  <SPECTRUM TYPE>  (1437) 
MS1

>  <INSTRUMENT TYPE>  (1437) 
EI-B

>  <INSTRUMENT>  (1437) 
JEOL JMS-D-300

>  <ION MODE>  (1437) 
P

>  <INCHIKEY>  (1437) 
YFKBXYGUSOXJGS-UHFFFAOYSA-N

>  <FORMULA>  (1437) 
C15H14O

>  <EXACT MASS>  (1437) 
210.104465068

>  <MW>  (1437) 
210

>  <ID>  (1437) 
JP009882

>  <CONTRIBUTOR>  (1437) 
University of Tokyo Team, {Faculty of Engineering, University of Tokyo

>  <COMMENT>  (1437) 
cas=102-04-5
SMILES=O=C(Cc(c2)cccc2)Cc(c1)cccc1
InChI=InChI=1S/C15H14O/c16-15(11-13-7-3-1-4-8-13)12-14-9-5-2-6-10-14/h1-10H,11-12H2
computed SMILES=O=C(CC=1C=CC=CC1)CC=2C=CC=CC2
accession=JP009882
date=2016.01.19 (Created 2008.10.21, modified 2011.05.06)
author=KURARAY CO., LTD.
license=CC BY-NC-SA
exact mass=210.10447
ionization energy=70 eV
ion type=[M]+*
computed spectral entropy=1.7033521917841854
computed normalized entropy=0.6640880401123975
SPLASH=splash10-0006-9200000000-8fe40f45465094b7fef7
submitter=submitter = University of Tokyo Team (Faculty of Engineering, University of Tokyo)
MoNA Rating=3.75

>  <NUM PEAKS>  (1437) 
13

>  <MASS SPECTRAL PEAKS>  (1437) 
39 3.7
51 1.5
63 2.5
65 15.5
89 3
90 3
91 99.99
92 11.6
118 13.3
119 24
120 1.5
210 11.5
211 1.7

>  <PREDICTED SPECTRUM>  (1437) 
27 74
29 9
38 10
39 209
40 68
41 41
44 94
50 115
51 198
52 103
53 51
62 84
63 198
64 108
65 409
66 81
74 6
75 40
76 68
77 163
78 99
79 11
89 270
90 307
91 999
92 404
93 169
94 41
117 25
118 490
119 349
120 178
122 22
136 34
210 407
211 165
212 11

$$$$

     RDKit          2D

 15 14  0  0  0  0  0  0  0  0999 V2000
    2.5981    4.5000    0.0000 C   0  0  0  0  0  0  0  0  0  0  0  0
    0.8075    2.4623    0.0000 C   0  0  0  0  0  0  0  0  0  0  0  0
   -7.7942    4.5000    0.0000 C   0  0  0  0  0  0  0  0  0  0  0  0
   -6.4952    6.7500    0.0000 C   0  0  0  0  0  0  0  0  0  0  0  0
   -3.5623    3.3509    0.0000 C   0  0  0  0  0  0  0  0  0  0  0  0
    1.2990    5.2500    0.0000 C   0  0  0  0  0  0  0  0  0  0  0  0
   -0.1567    3.6114    0.0000 C   0  0  0  0  0  0  0  0  0  0  0  0
    0.0000    4.5000    0.0000 C   0  0  0  0  0  0  0  0  0  0  0  0
   -5.1962    4.5000    0.0000 C   0  0  0  0  0  0  0  0  0  0  0  0
   -1.6339    3.3509    0.0000 C   0  0  0  0  0  0  0  0  0  0  0  0
   -3.8971    5.2500    0.0000 C   0  0  0  0  0  0  0  0  0  0  0  0
   -6.4952    5.2500    0.0000 C   0  0  0  0  0  0  0  0  0  0  0  0
   -1.2990    5.2500    0.0000 C   0  0  0  0  0  0  0  0  0  0  0  0
   -2.5981    4.5000    0.0000 C   0  0  0  0  0  0  0  0  0  0  0  0
   -1.2990    6.7500    0.0000 O   0  0  0  0  0  0  0  0  0  0  0  0
  6  1  2  0
  7  2  1  0
  8  6  1  0
 10  7  1  0
 11  9  1  0
 12  3  1  0
 12  4  1  0
 12  9  2  0
 13  8  1  0
 14  5  1  0
 14 10  1  0
 14 11  1  0
 14 13  1  0
 15 13  1  0
M  END
>  <NAME>  (1438) 
4-HYDROXY-5,8-DIMETHYL-5-PROPYL-1,7-NONADIENE

>  <SYNONYMS>  (1438) 


>  <SPECTRUM TYPE>  (1438) 
MS1

>  <INSTRUMENT TYPE>  (1438) 
EI-B

>  <INSTRUMENT>  (1438) 
JEOL JMS-D-300

>  <ION MODE>  (1438) 
P

>  <INCHIKEY>  (1438) 
QLDLPUYFCLNUQZ-UHFFFAOYSA-N

>  <FORMULA>  (1438) 
C14H26O

>  <EXACT MASS>  (1438) 
210.198365452

>  <MW>  (1438) 
210

>  <ID>  (1438) 
JP009881

>  <CONTRIBUTOR>  (1438) 
University of Tokyo Team, {Faculty of Engineering, University of Tokyo

>  <COMMENT>  (1438) 
SMILES=C=CCC(O)C(C)(CCC)CC=C(C)C
InChI=InChI=1S/C14H26O/c1-6-8-13(15)14(5,10-7-2)11-9-12(3)4/h6,9,13,15H,1,7-8,10-11H2,2-5H3
computed SMILES=OC(CC=C)C(C)(CC=C(C)C)CCC
accession=JP009881
date=2016.01.19 (Created 2008.10.21, modified 2011.05.06)
author=KURARAY CO., LTD.
license=CC BY-NC-SA
exact mass=210.19837
ionization energy=70 eV
ion type=[M]+*
computed spectral entropy=3.583015945698034
computed normalized entropy=0.8248564559710436
SPLASH=splash10-00xu-9100000000-ba488b52ca38ae6a8002
submitter=submitter = University of Tokyo Team (Faculty of Engineering, University of Tokyo)
MoNA Rating=3.75

>  <NUM PEAKS>  (1438) 
77

>  <MASS SPECTRAL PEAKS>  (1438) 
25 1.2
26 10.2
27 16.7
28 16.7
29 12.2
31 1
37 2
38 4
39 26
40 10.2
41 67.5
42 16.8
43 60
44 3.2
45 2
50 2.8
51 3.2
52 2.7
53 11.2
54 4.2
55 40.7
56 15
57 12
58 2
65 2.8
66 2.2
67 16.6
68 6.7
69 99
70 31.4
71 99.99
72 6.3
77 4.5
78 2
79 7.3
80 1.8
81 14
82 3.7
83 18
84 7.7
85 5.7
91 5.2
92 1
93 5.1
94 1.8
95 13.3
96 3.3
97 11.8
98 5.7
99 20.2
100 5
105 1.3
107 4
108 1.2
109 12.3
110 2.3
111 4
112 1
113 1.8
121 2.8
123 4.2
124 1
125 1.7
126 1.8
136 1
138 2.2
139 8
140 9
141 4.6
149 1.8
150 1
151 34.3
152 5
167 3
168 2.8
169 8.3
210 10

>  <PREDICTED SPECTRUM>  (1438) 
26 9
27 124
28 12
29 132
31 61
37 14
38 48
39 338
40 142
41 829
42 332
43 786
44 178
45 212
46 22
47 40
50 40
51 118
52 57
53 287
54 182
55 698
56 283
57 340
58 123
59 296
60 92
61 43
63 47
64 34
65 167
66 123
67 445
68 262
69 999
70 421
71 750
72 251
73 47
75 41
77 236
78 96
79 186
80 89
81 364
82 253
83 400
84 289
85 180
86 119
87 91
88 29
89 0
91 168
92 59
93 319
94 143
95 458
96 211
97 428
98 165
99 444
100 198
101 107
103 36
105 56
106 37
107 254
108 83
109 349
110 162
111 245
112 144
113 149
114 15
115 27
119 42
121 72
122 71
123 237
124 207
125 187
126 86
127 159
128 18
135 101
136 66
137 92
138 88
139 192
140 186
141 289
142 130
149 155
150 76
151 286
152 113
153 67
154 26
155 2
165 14
166 51
167 185
168 177
169 266
170 99
177 75
192 37
195 22
210 170
211 56

$$$$

     RDKit          2D

 15 14  0  0  0  0  0  0  0  0999 V2000
    4.2219    5.4375    0.0000 C   0  0  0  0  0  0  0  0  0  0  0  0
    2.9228    7.6875    0.0000 C   0  0  0  0  0  0  0  0  0  0  0  0
   -2.2733    7.6875    0.0000 C   0  0  0  0  0  0  0  0  0  0  0  0
  -10.0675    6.1875    0.0000 C   0  0  0  0  0  0  0  0  0  0  0  0
    0.3248    6.1875    0.0000 C   0  0  0  0  0  0  0  0  0  0  0  0
   -4.8714    6.1875    0.0000 C   0  0  0  0  0  0  0  0  0  0  0  0
    1.6238    5.4375    0.0000 C   0  0  0  0  0  0  0  0  0  0  0  0
   -0.9743    5.4375    0.0000 C   0  0  0  0  0  0  0  0  0  0  0  0
   -3.5724    5.4375    0.0000 C   0  0  0  0  0  0  0  0  0  0  0  0
   -6.1704    5.4375    0.0000 C   0  0  0  0  0  0  0  0  0  0  0  0
    2.9228    6.1875    0.0000 C   0  0  0  0  0  0  0  0  0  0  0  0
   -2.2733    6.1875    0.0000 C   0  0  0  0  0  0  0  0  0  0  0  0
   -7.4695    6.1875    0.0000 C   0  0  0  0  0  0  0  0  0  0  0  0
   -7.4695    7.6875    0.0000 O   0  0  0  0  0  0  0  0  0  0  0  0
   -8.7685    5.4375    0.0000 O   0  0  0  0  0  0  0  0  0  0  0  0
  7  5  1  0
  8  5  1  0
  9  6  1  0
 10  6  1  0
 11  1  1  0
 11  2  1  0
 11  7  2  0
 12  3  1  0
 12  8  1  0
  9 12  2  0
 13 10  1  0
 14 13  2  0
 15  4  1  0
 15 13  1  0
M  END
>  <NAME>  (1439) 
METHYL 5,9-DIMETHYL-4,8-DECADIENOATE(E)

>  <SYNONYMS>  (1439) 
FARNECIC ACID METHYL ESTER(E)

>  <SPECTRUM TYPE>  (1439) 
MS1

>  <INSTRUMENT TYPE>  (1439) 
EI-B

>  <INSTRUMENT>  (1439) 
JEOL JMS-D-300

>  <ION MODE>  (1439) 
P

>  <INCHIKEY>  (1439) 
AVFLRLAFBQUJGG-FMIVXFBMSA-N

>  <FORMULA>  (1439) 
C13H22O2

>  <EXACT MASS>  (1439) 
210.161979944

>  <MW>  (1439) 
210

>  <ID>  (1439) 
JP009880

>  <CONTRIBUTOR>  (1439) 
University of Tokyo Team, {Faculty of Engineering, University of Tokyo

>  <COMMENT>  (1439) 
SMILES=COC(=O)CCC=C(C)CCC=C(C)C
cas=19894-82-7
InChI=InChI=1S/C13H22O2/c1-11(2)7-5-8-12(3)9-6-10-13(14)15-4/h7,9H,5-6,8,10H2,1-4H3/b12-9+
computed SMILES=O=C(OC)CCC=C(C)CCC=C(C)C
accession=JP009880
date=2016.01.19 (Created 2008.10.21, modified 2011.05.06)
author=KURARAY CO., LTD.
license=CC BY-NC-SA
exact mass=210.16198
ionization energy=70 eV
ion type=[M]+*
computed spectral entropy=3.277302988590917
computed normalized entropy=0.7880247948551159
SPLASH=splash10-014i-9400000000-0426439591e5c16d2e31
submitter=submitter = University of Tokyo Team (Faculty of Engineering, University of Tokyo)
MoNA Rating=3.75

>  <NUM PEAKS>  (1439) 
64

>  <MASS SPECTRAL PEAKS>  (1439) 
27 4.5
28 2.3
29 3.2
39 7
40 3
41 46.7
42 4
43 4.5
51 1.2
53 7.3
54 1.8
55 8.6
56 1.2
59 7.9
65 2.6
66 1.2
67 13.6
68 8
69 99.99
70 6.3
74 5.3
77 2.7
79 4.4
80 2.3
81 46.3
82 16.3
83 2.3
85 1.7
87 3.6
91 1.8
93 6
94 1.7
95 3
99 53.7
100 4.7
105 1.6
107 4
108 1.6
109 35.5
110 5.8
111 3
119 1.5
121 4
122 2
123 7
124 1
125 1
135 12.4
136 3.5
137 3.5
140 2.8
141 13.7
142 3.7
154 1.8
161 2.3
163 1.8
166 2.7
167 52.8
168 5.8
178 1.4
179 2.4
195 2.1
210 3.4
211 1.2

>  <PREDICTED SPECTRUM>  (1439) 
26 9
27 190
28 33
29 244
30 28
31 77
32 7
33 4
37 5
38 32
39 268
40 103
41 709
42 196
43 284
44 33
45 139
46 1
50 60
51 85
52 62
53 230
54 132
55 309
56 95
57 158
58 16
59 288
60 31
61 26
63 22
65 112
66 92
67 353
68 244
69 999
70 243
71 100
72 9
73 88
74 160
75 30
77 157
78 93
79 171
80 116
81 477
82 302
83 197
84 93
85 196
86 35
87 150
88 43
89 56
91 155
92 72
93 236
94 110
95 265
96 140
97 101
98 57
99 202
100 65
101 56
103 10
105 114
106 54
107 176
108 104
109 481
110 205
111 152
112 30
113 1
114 58
115 73
117 40
119 37
121 214
122 142
123 226
124 76
125 87
126 36
127 126
128 53
129 20
131 11
133 37
134 41
135 279
136 263
137 159
138 34
139 87
140 66
141 167
142 91
143 21
145 6
149 60
151 5
152 13
153 83
154 99
155 60
161 63
163 70
166 73
167 366
168 176
178 45
179 116
180 2
195 49
210 226
211 76
212 7

$$$$

     RDKit          2D

 15 14  0  0  0  0  0  0  0  0999 V2000
   -2.9228    5.0625    0.0000 C   0  0  0  0  0  0  0  0  0  0  0  0
    2.2733    5.0625    0.0000 C   0  0  0  0  0  0  0  0  0  0  0  0
   -9.4180    7.3125    0.0000 C   0  0  0  0  0  0  0  0  0  0  0  0
   -0.3248    6.5625    0.0000 C   0  0  0  0  0  0  0  0  0  0  0  0
   -1.6238    7.3125    0.0000 C   0  0  0  0  0  0  0  0  0  0  0  0
    0.9743    7.3125    0.0000 C   0  0  0  0  0  0  0  0  0  0  0  0
   -4.2219    7.3125    0.0000 C   0  0  0  0  0  0  0  0  0  0  0  0
   -5.5209    6.5625    0.0000 C   0  0  0  0  0  0  0  0  0  0  0  0
    3.5724    7.3125    0.0000 C   0  0  0  0  0  0  0  0  0  0  0  0
   -2.9228    6.5625    0.0000 C   0  0  0  0  0  0  0  0  0  0  0  0
    2.2733    6.5625    0.0000 C   0  0  0  0  0  0  0  0  0  0  0  0
   -8.1190    6.5625    0.0000 C   0  0  0  0  0  0  0  0  0  0  0  0
    4.8714    6.5625    0.0000 O   0  0  0  0  0  0  0  0  0  0  0  0
   -8.1190    5.0625    0.0000 O   0  0  0  0  0  0  0  0  0  0  0  0
   -6.8200    7.3125    0.0000 O   0  0  0  0  0  0  0  0  0  0  0  0
  5  4  1  0
  6  4  1  0
  8  7  1  0
 10  1  1  0
 10  5  1  0
  7 10  2  0
 11  2  1  0
  6 11  2  0
 11  9  1  0
 12  3  1  0
 13  9  2  0
 14 12  2  0
 15  8  1  0
 15 12  1  0
M  END
>  <NAME>  (1440) 
3,7-DIMETHYL-8-OXO-2,6-OCTADIENYL ACETATE(E)

>  <SYNONYMS>  (1440) 


>  <SPECTRUM TYPE>  (1440) 
MS1

>  <INSTRUMENT TYPE>  (1440) 
EI-B

>  <INSTRUMENT>  (1440) 
JEOL JMS-D-300

>  <ION MODE>  (1440) 
P

>  <INCHIKEY>  (1440) 
YODDEHYDMMDDCV-NXAIOARDSA-N

>  <FORMULA>  (1440) 
C12H18O3

>  <EXACT MASS>  (1440) 
210.12559443599997

>  <MW>  (1440) 
210

>  <ID>  (1440) 
JP009878

>  <CONTRIBUTOR>  (1440) 
University of Tokyo Team, {Faculty of Engineering, University of Tokyo

>  <COMMENT>  (1440) 
SMILES=O=CC(C)=CCCC(C)=CCOC(C)=O
InChI=InChI=1S/C12H18O3/c1-10(7-8-15-12(3)14)5-4-6-11(2)9-13/h6-7,9H,4-5,8H2,1-3H3/b10-7+,11-6+
computed SMILES=O=CC(=CCCC(=CCOC(=O)C)C)C
accession=JP009878
date=2016.01.19 (Created 2008.10.21, modified 2011.05.06)
author=KURARAY CO., LTD.
license=CC BY-NC-SA
exact mass=210.12559
ionization energy=70 eV
ion type=[M]+*
computed spectral entropy=2.759722163264212
computed normalized entropy=0.7642716422881256
SPLASH=splash10-000x-9200000000-e661ab2c8adb9a85b68a
submitter=submitter = University of Tokyo Team (Faculty of Engineering, University of Tokyo)
MoNA Rating=3.75

>  <NUM PEAKS>  (1440) 
37

>  <MASS SPECTRAL PEAKS>  (1440) 
27 6.2
29 8.8
39 8
41 12
43 99.99
53 6.8
54 1.8
55 12.6
56 1.5
57 1.2
65 1.5
67 5.3
68 3.6
77 1.5
79 2.6
80 2
81 2.7
82 12
83 4.2
84 55
85 21.3
91 1.8
92 1.2
93 7
94 1.8
95 4
97 1.2
117 6.2
118 2
119 1.2
121 14
122 2.8
123 1.3
127 3.6
135 10.3
150 29.3
151 3.9

>  <PREDICTED SPECTRUM>  (1440) 
25 3
26 35
27 189
28 69
29 163
30 37
31 4
32 0
37 5
38 32
39 224
40 110
41 393
42 139
43 999
44 175
45 105
50 55
51 114
52 88
53 245
54 189
55 285
56 94
57 166
58 38
60 33
61 39
63 31
64 10
65 143
66 132
67 404
68 342
69 269
70 154
71 155
72 31
73 66
77 156
78 101
79 316
80 266
81 294
82 307
83 269
84 325
85 234
86 37
89 28
91 189
92 169
93 372
94 260
95 339
96 152
97 93
98 98
99 53
100 19
103 33
105 64
106 13
107 237
108 209
109 175
110 76
111 67
112 6
115 64
117 112
118 4
119 47
120 17
121 252
122 224
123 62
124 46
126 99
127 23
133 8
134 24
135 343
136 17
137 31
138 8
139 3
149 40
150 509
151 154
152 67
153 15
166 5
168 50

$$$$

     RDKit          2D

 15 14  0  0  0  0  0  0  0  0999 V2000
    2.9228    3.9375    0.0000 C   0  0  0  0  0  0  0  0  0  0  0  0
    1.6238    6.1875    0.0000 C   0  0  0  0  0  0  0  0  0  0  0  0
   -7.4695    3.9375    0.0000 C   0  0  0  0  0  0  0  0  0  0  0  0
   -6.1704    6.1875    0.0000 C   0  0  0  0  0  0  0  0  0  0  0  0
   -3.7733    2.4375    0.0000 C   0  0  0  0  0  0  0  0  0  0  0  0
   -2.2733    0.9375    0.0000 C   0  0  0  0  0  0  0  0  0  0  0  0
   -0.7733    2.4375    0.0000 C   0  0  0  0  0  0  0  0  0  0  0  0
    0.3248    3.9375    0.0000 C   0  0  0  0  0  0  0  0  0  0  0  0
   -4.8714    3.9375    0.0000 C   0  0  0  0  0  0  0  0  0  0  0  0
   -0.9743    4.6875    0.0000 C   0  0  0  0  0  0  0  0  0  0  0  0
   -3.5724    4.6875    0.0000 C   0  0  0  0  0  0  0  0  0  0  0  0
    1.6238    4.6875    0.0000 C   0  0  0  0  0  0  0  0  0  0  0  0
   -6.1704    4.6875    0.0000 C   0  0  0  0  0  0  0  0  0  0  0  0
   -2.2733    2.4375    0.0000 C   0  0  0  0  0  0  0  0  0  0  0  0
   -2.2733    3.9375    0.0000 N   0  0  0  0  0  0  0  0  0  0  0  0
 10  8  1  0
 11  9  1  0
 12  1  1  0
 12  2  1  0
 12  8  2  0
 13  3  1  0
 13  4  1  0
 13  9  2  0
 14  5  1  0
 14  6  1  0
 14  7  1  0
 15 10  1  0
 15 11  1  0
 15 14  1  0
M  END
>  <NAME>  (1441) 
BIS(3-METHYL-2-BUTENYL)(TERT-BUTYL)AMINE

>  <SYNONYMS>  (1441) 


>  <SPECTRUM TYPE>  (1441) 
MS1

>  <INSTRUMENT TYPE>  (1441) 
EI-B

>  <INSTRUMENT>  (1441) 
JEOL JMS-D-300

>  <ION MODE>  (1441) 
P

>  <INCHIKEY>  (1441) 
RAGXFGSULNYENY-UHFFFAOYSA-N

>  <FORMULA>  (1441) 
C14H27N

>  <EXACT MASS>  (1441) 
209.21434986399998

>  <MW>  (1441) 
209

>  <ID>  (1441) 
JP009876

>  <CONTRIBUTOR>  (1441) 
University of Tokyo Team, {Faculty of Engineering, University of Tokyo

>  <COMMENT>  (1441) 
SMILES=CC(C)=CCN(CC=C(C)C)C(C)(C)C
InChI=InChI=1S/C14H27N/c1-12(2)8-10-15(14(5,6)7)11-9-13(3)4/h8-9H,10-11H2,1-7H3
computed SMILES=C(=C(C)C)CN(CC=C(C)C)C(C)(C)C
accession=JP009876
date=2016.01.19 (Created 2008.10.21, modified 2011.05.06)
author=KURARAY CO., LTD.
license=CC BY-NC-SA
exact mass=209.21435
ionization energy=70 eV
ion type=[M]+*
computed spectral entropy=2.5850729589711636
computed normalized entropy=0.7527905041680959
SPLASH=splash10-0a6u-9200000000-b0963cf146d6f4170fc0
submitter=submitter = University of Tokyo Team (Faculty of Engineering, University of Tokyo)
MoNA Rating=3.75

>  <NUM PEAKS>  (1441) 
31

>  <MASS SPECTRAL PEAKS>  (1441) 
27 2.5
28 19.8
29 5.7
30 6
32 5
39 3.7
41 34.8
42 4.3
43 1.8
53 2.3
55 2
56 1
57 7.8
58 99.99
59 3.3
67 2.3
68 2.8
69 47
70 11.8
82 2
83 1
84 9
96 1.2
110 1
126 34
127 2.7
141 10
152 2
194 34.8
195 5.2
209 2

>  <PREDICTED SPECTRUM>  (1441) 
15 0
26 11
27 127
28 139
29 220
30 301
32 3
37 11
38 47
39 376
40 144
41 634
42 349
43 168
44 12
50 15
51 34
53 183
54 46
55 71
56 275
57 330
58 999
59 107
65 28
67 201
68 231
69 819
70 304
73 37
81 149
82 210
83 81
84 199
86 13
91 77
93 31
96 170
97 26
98 141
110 166
118 22
124 31
126 472
127 29
135 2
136 74
140 85
141 281
150 57
152 104
194 441
195 122
209 125
210 11

$$$$

     RDKit          2D

 15 14  0  0  0  0  0  0  0  0999 V2000
    3.5724    6.5625    0.0000 C   0  0  0  0  0  0  0  0  0  0  0  0
  -10.7171    7.3125    0.0000 C   0  0  0  0  0  0  0  0  0  0  0  0
   -9.4180    5.0625    0.0000 C   0  0  0  0  0  0  0  0  0  0  0  0
    0.9743    5.0625    0.0000 C   0  0  0  0  0  0  0  0  0  0  0  0
   -4.2219    5.0625    0.0000 C   0  0  0  0  0  0  0  0  0  0  0  0
    2.2733    7.3125    0.0000 C   0  0  0  0  0  0  0  0  0  0  0  0
   -6.8200    6.5625    0.0000 C   0  0  0  0  0  0  0  0  0  0  0  0
   -1.6238    6.5625    0.0000 C   0  0  0  0  0  0  0  0  0  0  0  0
   -8.1190    7.3125    0.0000 C   0  0  0  0  0  0  0  0  0  0  0  0
   -0.3248    7.3125    0.0000 C   0  0  0  0  0  0  0  0  0  0  0  0
   -5.5209    7.3125    0.0000 C   0  0  0  0  0  0  0  0  0  0  0  0
   -2.9228    7.3125    0.0000 C   0  0  0  0  0  0  0  0  0  0  0  0
   -9.4180    6.5625    0.0000 C   0  0  0  0  0  0  0  0  0  0  0  0
    0.9743    6.5625    0.0000 C   0  0  0  0  0  0  0  0  0  0  0  0
   -4.2219    6.5625    0.0000 C   0  0  0  0  0  0  0  0  0  0  0  0
  6  1  2  0
  9  7  1  0
 10  8  1  0
 11  7  1  0
 12  8  1  0
 13  2  1  0
 13  3  1  0
 13  9  1  0
 14  4  2  0
 14  6  1  0
 14 10  1  0
 15  5  1  0
 15 11  1  0
 15 12  1  0
M  END
>  <NAME>  (1442) 
3-METHYLENE-7,11-DIMETHYL-1-DODECENE

>  <SYNONYMS>  (1442) 


>  <SPECTRUM TYPE>  (1442) 
MS1

>  <INSTRUMENT TYPE>  (1442) 
EI-B

>  <INSTRUMENT>  (1442) 
JEOL JMS-D-300

>  <ION MODE>  (1442) 
P

>  <INCHIKEY>  (1442) 
AEUDOPZBDNUKIV-UHFFFAOYSA-N

>  <FORMULA>  (1442) 
C15H28

>  <EXACT MASS>  (1442) 
208.219100896

>  <MW>  (1442) 
208

>  <ID>  (1442) 
JP009874

>  <CONTRIBUTOR>  (1442) 
University of Tokyo Team, {Faculty of Engineering, University of Tokyo

>  <COMMENT>  (1442) 
SMILES=C=CC(=C)CCCC(C)CCCC(C)C
InChI=InChI=1S/C15H28/c1-6-14(4)10-8-12-15(5)11-7-9-13(2)3/h6,13,15H,1,4,7-12H2,2-3,5H3
computed SMILES=C=CC(=C)CCCC(C)CCCC(C)C
accession=JP009874
date=2016.01.19 (Created 2008.10.21, modified 2011.05.06)
author=KURARAY CO., LTD.
license=CC BY-NC-SA
exact mass=208.2191
ionization energy=70 eV
ion type=[M]+*
computed spectral entropy=3.2160042625766017
computed normalized entropy=0.9119896392121332
SPLASH=splash10-00lr-9100000000-90b657be105c8bc16a89
submitter=submitter = University of Tokyo Team (Faculty of Engineering, University of Tokyo)
MoNA Rating=3.75

>  <NUM PEAKS>  (1442) 
34

>  <MASS SPECTRAL PEAKS>  (1442) 
27 7
29 11.7
39 7
41 36.6
42 10
43 51.8
53 13
55 34.5
56 18.3
57 52
67 29.3
68 99.99
69 55.8
70 14.8
71 24
77 10.6
79 19
80 10.6
81 87.5
82 69
83 58
84 11
85 8
94 11.7
95 59.6
96 20
97 16
109 18.2
110 7.8
123 33.5
124 12.3
137 11.5
138 13
208 12.5

>  <PREDICTED SPECTRUM>  (1442) 
26 2
27 238
28 37
29 366
36 27
37 0
38 17
39 365
40 143
41 877
42 291
43 716
44 136
50 50
51 138
52 93
53 381
54 375
55 814
56 451
57 734
58 74
63 15
65 151
66 195
67 798
68 608
69 800
70 433
71 468
72 35
77 308
78 105
79 523
80 235
81 999
82 737
83 636
84 273
85 182
91 106
92 69
93 262
94 169
95 824
96 552
97 343
98 39
107 139
108 49
109 380
110 250
111 41
112 14
121 5
122 62
123 516
124 275
125 58
126 94
137 233
138 156
152 19
153 26
165 49
166 2
180 31
193 76
208 254
209 111

$$$$

     RDKit          2D

 15 15  0  0  0  0  0  0  0  0999 V2000
    5.9762    0.1908    0.0000 C   0  0  0  0  0  0  0  0  0  0  0  0
    2.0789   -2.0602    0.0000 C   0  0  0  0  0  0  0  0  0  0  0  0
    0.4441    2.0892    0.0000 C   0  0  0  0  0  0  0  0  0  0  0  0
   -1.4841    2.0892    0.0000 C   0  0  0  0  0  0  0  0  0  0  0  0
   -1.8200   -1.3100    0.0000 C   0  0  0  0  0  0  0  0  0  0  0  0
   -0.5200   -2.0600    0.0000 C   0  0  0  0  0  0  0  0  0  0  0  0
    3.3781    0.1904    0.0000 C   0  0  0  0  0  0  0  0  0  0  0  0
    2.0789    0.9402    0.0000 C   0  0  0  0  0  0  0  0  0  0  0  0
   -1.8200    0.1900    0.0000 C   0  0  0  0  0  0  0  0  0  0  0  0
    4.6768    2.4406    0.0000 C   0  0  0  0  0  0  0  0  0  0  0  0
    4.6770    0.9406    0.0000 C   0  0  0  0  0  0  0  0  0  0  0  0
    0.7800   -1.3100    0.0000 C   0  0  0  0  0  0  0  0  0  0  0  0
    0.7800    0.1900    0.0000 C   0  0  0  0  0  0  0  0  0  0  0  0
   -0.5200    0.9400    0.0000 C   0  0  0  0  0  0  0  0  0  0  0  0
    5.9757    3.1908    0.0000 O   0  0  0  0  0  0  0  0  0  0  0  0
  6  5  1  0
  8  7  1  0
  9  5  1  0
 11  1  1  0
 11  7  1  0
 11 10  1  0
 12  2  1  0
 12  6  1  0
 13  8  1  0
 13 12  2  0
 14  3  1  0
 14  4  1  0
 14  9  1  0
 14 13  1  0
 15 10  2  0
M  END
>  <NAME>  (1443) 
2-METHYL-4-(2,6,6-TRIMETHYL-2-CYCLOHEXEN-2-YL)BUTANAL

>  <SYNONYMS>  (1443) 


>  <SPECTRUM TYPE>  (1443) 
MS1

>  <INSTRUMENT TYPE>  (1443) 
EI-B

>  <INSTRUMENT>  (1443) 
JEOL JMS-D-300

>  <ION MODE>  (1443) 
P

>  <INCHIKEY>  (1443) 
MXNVWZZDDFIWHW-UHFFFAOYSA-N

>  <FORMULA>  (1443) 
C14H24O

>  <EXACT MASS>  (1443) 
208.182715388

>  <MW>  (1443) 
208

>  <ID>  (1443) 
JP009872

>  <CONTRIBUTOR>  (1443) 
University of Tokyo Team, {Faculty of Engineering, University of Tokyo

>  <COMMENT>  (1443) 
SMILES=O=CC(C)CCC(=C(C)1)C(C)(C)CCC1
cas=21632-06-4
InChI=InChI=1S/C14H24O/c1-11(10-15)7-8-13-12(2)6-5-9-14(13,3)4/h10-11H,5-9H2,1-4H3
computed SMILES=O=CC(C)CCC1=C(C)CCCC1(C)C
accession=JP009872
date=2016.01.19 (Created 2008.10.21, modified 2011.05.06)
author=KURARAY CO., LTD.
license=CC BY-NC-SA
exact mass=208.18272
ionization energy=70 eV
ion type=[M]+*
computed spectral entropy=3.319349278990537
computed normalized entropy=0.9336214687233713
SPLASH=splash10-05gv-9700000000-ebe49932934b4f645ba5
submitter=submitter = University of Tokyo Team (Faculty of Engineering, University of Tokyo)
MoNA Rating=3.75

>  <NUM PEAKS>  (1443) 
35

>  <MASS SPECTRAL PEAKS>  (1443) 
29 19
39 12.7
41 47.8
43 13
53 14.6
55 26.6
67 26.4
69 40.6
77 15.7
79 27.5
81 65.8
82 17
83 15.5
91 21
93 28
94 25.2
95 82.7
96 11.5
105 20.6
107 41
109 39.7
119 21.2
121 6.8
123 99.99
124 14.8
125 15.8
133 11
135 59
136 10
151 38.2
152 10.2
175 26
177 2
193 27.5
208 27.8

>  <PREDICTED SPECTRUM>  (1443) 
17 1
18 27
26 74
27 358
28 174
29 439
30 136
31 176
32 19
37 8
38 61
39 473
40 208
41 999
42 309
43 891
44 233
45 163
49 16
50 119
51 293
52 187
53 498
54 212
55 807
56 318
57 454
58 127
59 244
60 106
61 23
62 54
63 163
64 87
65 352
66 231
67 733
68 378
69 763
70 270
71 413
72 189
73 61
74 23
75 19
76 46
77 558
78 266
79 621
80 342
81 896
82 509
83 342
84 225
85 287
86 100
89 66
90 26
91 557
92 218
93 636
94 338
95 964
96 398
97 296
98 166
99 82
102 24
103 183
104 34
105 447
106 226
107 689
108 458
109 753
110 333
111 274
112 136
113 106
115 187
116 111
117 170
118 64
119 391
120 187
121 521
122 422
123 930
124 403
125 268
126 128
127 32
128 84
129 6
131 168
132 129
133 268
134 241
135 578
136 359
137 478
138 238
139 126
140 15
146 8
147 297
148 158
149 229
150 433
151 303
152 229
153 162
154 4
159 28
160 39
161 148
162 107
163 124
164 90
165 259
166 106
175 587
176 234
177 146
178 65
179 87
180 99
181 12
190 198
191 70
193 532
194 229
195 27
208 529
209 251
210 17

$$$$

     RDKit          2D

 15 15  0  0  0  0  0  0  0  0999 V2000
   -0.0000   -3.0000    0.0000 C   0  0  0  0  0  0  0  0  0  0  0  0
   -6.4962   -0.7508    0.0000 C   0  0  0  0  0  0  0  0  0  0  0  0
    2.7772    0.4897    0.0000 C   0  0  0  0  0  0  0  0  0  0  0  0
    1.8127    2.1596    0.0000 C   0  0  0  0  0  0  0  0  0  0  0  0
   -1.3000    0.7500    0.0000 C   0  0  0  0  0  0  0  0  0  0  0  0
    0.0000    1.5000    0.0000 C   0  0  0  0  0  0  0  0  0  0  0  0
   -3.8981   -0.7504    0.0000 C   0  0  0  0  0  0  0  0  0  0  0  0
    1.3000   -0.7500    0.0000 C   0  0  0  0  0  0  0  0  0  0  0  0
   -0.0000   -1.5000    0.0000 C   0  0  0  0  0  0  0  0  0  0  0  0
   -5.1970   -1.5006    0.0000 C   0  0  0  0  0  0  0  0  0  0  0  0
   -1.3000   -0.7500    0.0000 C   0  0  0  0  0  0  0  0  0  0  0  0
   -2.5989   -1.5002    0.0000 C   0  0  0  0  0  0  0  0  0  0  0  0
    1.3000    0.7500    0.0000 C   0  0  0  0  0  0  0  0  0  0  0  0
   -5.1968   -3.0006    0.0000 O   0  0  0  0  0  0  0  0  0  0  0  0
   -2.5987   -3.0002    0.0000 O   0  0  0  0  0  0  0  0  0  0  0  0
  6  5  1  0
  9  1  1  0
  9  8  2  0
 10  2  1  0
 10  7  1  0
 11  5  1  0
 11  9  1  0
 12  7  1  0
 12 11  1  0
 13  3  1  0
 13  4  1  0
 13  6  1  0
 13  8  1  0
 14 10  2  0
 15 12  2  0
M  END
>  <NAME>  (1444) 
4-(2,4,4-TRIMETHYL-2-CYCLOHEXENE-1-YL)-4-OXO-2-BUTANONE

>  <SYNONYMS>  (1444) 


>  <SPECTRUM TYPE>  (1444) 
MS1

>  <INSTRUMENT TYPE>  (1444) 
EI-B

>  <INSTRUMENT>  (1444) 
JEOL JMS-D-300

>  <ION MODE>  (1444) 
P

>  <INCHIKEY>  (1444) 
VYSSESUTYQNLPY-UHFFFAOYSA-N

>  <FORMULA>  (1444) 
C13H20O2

>  <EXACT MASS>  (1444) 
208.14632988

>  <MW>  (1444) 
208

>  <ID>  (1444) 
JP009871

>  <CONTRIBUTOR>  (1444) 
University of Tokyo Team, {Faculty of Engineering, University of Tokyo

>  <COMMENT>  (1444) 
SMILES=CC(=O)CC(=O)C(C1)C(C)=CC(C)(C)C1
cas=101529-26-4
InChI=InChI=1S/C13H20O2/c1-9-8-13(3,4)6-5-11(9)12(15)7-10(2)14/h8,11H,5-7H2,1-4H3
computed SMILES=O=C(C)CC(=O)C1C(=CC(C)(C)CC1)C
accession=JP009871
date=2016.01.19 (Created 2008.10.21, modified 2011.05.06)
author=KURARAY CO., LTD.
license=CC BY-NC-SA
exact mass=208.14633
ionization energy=70 eV
ion type=[M]+*
computed spectral entropy=3.2463673315032366
computed normalized entropy=0.8216064517196486
SPLASH=splash10-0670-9400000000-b92b3dc492f1b46dcbbd
submitter=submitter = University of Tokyo Team (Faculty of Engineering, University of Tokyo)
MoNA Rating=3.75

>  <NUM PEAKS>  (1444) 
52

>  <MASS SPECTRAL PEAKS>  (1444) 
27 5
28 5.5
29 1.2
32 4
39 6.6
40 1.2
41 16.7
42 3.3
43 20
53 10.3
55 6.2
56 6.8
57 1.7
65 4.5
67 18.3
68 85.5
69 16.6
71 3.8
77 6.8
79 8
81 15.3
82 11.6
83 3
85 99.99
86 5.4
87 4.2
92 3.8
93 6.8
95 5.8
96 6.2
107 1.8
108 4.2
109 70
110 7.8
111 5
119 3.3
120 3.8
122 4.2
123 6.3
124 40.3
125 7
133 1.2
135 2
137 6
147 8.5
150 7.9
151 5.7
159 2.8
165 4
193 14.6
208 31.8
209 5.2

>  <PREDICTED SPECTRUM>  (1444) 
14 6
15 41
26 34
27 161
28 103
29 110
31 60
38 29
39 252
40 101
41 328
42 188
43 999
44 127
45 113
50 71
51 150
52 74
53 231
54 33
55 262
56 137
57 240
58 172
59 151
60 22
62 48
63 129
64 32
65 168
66 91
67 231
68 115
69 393
70 100
71 158
72 61
75 11
76 5
77 262
78 100
79 249
80 101
81 353
82 219
83 203
84 105
85 407
86 59
87 31
89 41
90 1
91 344
92 87
93 262
94 171
95 345
96 204
97 199
98 79
99 69
102 26
103 18
104 63
105 182
106 154
107 471
108 264
109 561
110 208
111 209
112 97
115 106
116 24
117 74
118 9
119 158
120 91
121 237
122 217
123 525
124 305
125 227
126 19
130 3
131 48
132 83
133 222
134 89
135 296
136 98
137 137
138 143
139 143
140 32
147 223
148 97
149 165
150 404
151 364
152 122
153 60
163 27
165 350
166 153
167 24
175 237
176 95
179 35
190 92
191 13
193 515
194 184
195 12
208 490
209 222
210 28

$$$$

     RDKit          2D

 15 16  0  0  0  0  0  0  0  0999 V2000
    4.0772    0.4897    0.0000 C   0  0  0  0  0  0  0  0  0  0  0  0
   -2.6000    0.7500    0.0000 C   0  0  0  0  0  0  0  0  0  0  0  0
   -1.3000    1.5000    0.0000 C   0  0  0  0  0  0  0  0  0  0  0  0
    1.3000   -1.5000    0.0000 C   0  0  0  0  0  0  0  0  0  0  0  0
    2.6000   -0.7500    0.0000 C   0  0  0  0  0  0  0  0  0  0  0  0
    3.1127    2.1596    0.0000 C   0  0  0  0  0  0  0  0  0  0  0  0
    4.5899    2.4204    0.0000 C   0  0  0  0  0  0  0  0  0  0  0  0
   -1.3000   -1.5000    0.0000 C   0  0  0  0  0  0  0  0  0  0  0  0
    0.0000   -0.7500    0.0000 C   0  0  0  0  0  0  0  0  0  0  0  0
   -2.6000   -0.7500    0.0000 C   0  0  0  0  0  0  0  0  0  0  0  0
    0.0000    0.7500    0.0000 C   0  0  0  0  0  0  0  0  0  0  0  0
    2.6000    0.7500    0.0000 C   0  0  0  0  0  0  0  0  0  0  0  0
    5.1026    3.8301    0.0000 O   0  0  0  0  0  0  0  0  0  0  0  0
   -3.8989   -1.5002    0.0000 O   0  0  0  0  0  0  0  0  0  0  0  0
    1.3000    1.5000    0.0000 O   0  0  0  0  0  0  0  0  0  0  0  0
  3  2  2  0
  5  4  1  0
  7  6  1  0
  9  4  1  0
  9  8  1  0
 10  2  1  0
 10  8  2  0
 11  3  1  0
 11  9  2  0
 12  1  1  0
 12  5  1  0
 12  6  1  0
 13  7  1  0
 14 10  1  0
 15 11  1  0
 15 12  1  0
M  END
>  <NAME>  (1445) 
2-(3,4-DIHYDRO-6-HYDROXY-2-METHYL)-2H-1-BENZOPYRANETHANOL

>  <SYNONYMS>  (1445) 


>  <SPECTRUM TYPE>  (1445) 
MS1

>  <INSTRUMENT TYPE>  (1445) 
EI-B

>  <INSTRUMENT>  (1445) 
JEOL JMS-D-300

>  <ION MODE>  (1445) 
P

>  <INCHIKEY>  (1445) 
IZVREMVRDLKBEU-UHFFFAOYSA-N

>  <FORMULA>  (1445) 
C12H16O3

>  <EXACT MASS>  (1445) 
208.10994437199997

>  <MW>  (1445) 
208

>  <ID>  (1445) 
JP009870

>  <CONTRIBUTOR>  (1445) 
University of Tokyo Team, {Faculty of Engineering, University of Tokyo

>  <COMMENT>  (1445) 
SMILES=OCCC(C)(C1)Oc(c2)c(cc(O)c2)C1
InChI=InChI=1S/C12H16O3/c1-12(6-7-13)5-4-9-8-10(14)2-3-11(9)15-12/h2-3,8,13-14H,4-7H2,1H3
computed SMILES=OC1=CC=C2OC(C)(CCO)CCC2=C1
accession=JP009870
date=2016.01.19 (Created 2008.10.21, modified 2011.05.06)
author=KURARAY CO., LTD.
license=CC BY-NC-SA
exact mass=208.10994
ionization energy=70 eV
ion type=[M]+*
computed spectral entropy=3.6944344713106427
computed normalized entropy=0.8338043839400205
SPLASH=splash10-00di-3910000000-0cb2b8d2a7ef07ec16d9
submitter=submitter = University of Tokyo Team (Faculty of Engineering, University of Tokyo)
MoNA Rating=3.75

>  <NUM PEAKS>  (1445) 
84

>  <MASS SPECTRAL PEAKS>  (1445) 
26 6.2
27 19
28 6.8
39 11.5
40 2.8
41 12
43 13.3
51 4
52 1.3
53 7.5
54 2.2
55 17.3
56 1.5
57 3
63 1.5
65 7.8
66 3.3
67 9
68 1.3
69 5.5
71 2
77 8
78 2
79 4.2
80 1
81 3
82 3.6
83 1.3
84 1
85 17.2
86 1.2
91 6
93 2
94 17.7
95 5.3
103 1.2
105 3
106 1
107 11.2
108 1.2
109 2
110 3.8
115 2.5
117 1.3
119 2.2
121 5
122 44.6
123 99.99
124 14
125 1.6
131 2.2
132 1
133 3.2
134 4.3
135 22.5
136 10
137 1
144 1
145 3
146 1
147 18.5
148 6
149 7.2
150 1.8
157 1.5
158 1.7
159 1.2
160 3.2
161 40.8
162 11
163 23.3
164 5
173 20.2
174 5
175 62.7
176 11.6
178 14.5
179 3.2
189 4.8
190 24.5
191 6.3
206 2.5
208 70.2
209 19

>  <PREDICTED SPECTRUM>  (1445) 
17 1
18 21
27 136
28 65
29 65
30 22
31 94
32 10
36 32
38 21
39 208
40 93
41 458
42 11
43 416
44 50
45 108
46 10
49 17
50 104
51 216
52 141
53 312
54 73
55 366
56 55
57 174
58 38
59 28
62 21
63 108
64 5
65 217
66 78
67 325
68 141
69 344
70 2
71 65
75 9
76 57
77 360
78 152
79 301
80 123
81 310
82 107
83 63
85 122
86 112
89 13
91 330
92 50
93 318
94 216
95 273
96 58
97 46
103 106
104 54
105 323
106 113
107 577
108 311
109 306
110 124
115 25
116 23
117 54
119 167
120 54
121 358
122 626
123 891
124 334
125 103
126 4
128 0
129 22
131 52
132 102
133 200
134 18
135 362
136 271
137 108
144 70
145 221
146 114
147 384
148 244
149 259
150 170
151 32
157 92
159 88
160 191
161 433
162 358
163 722
164 286
165 82
166 67
173 289
174 174
175 738
176 282
177 128
178 163
179 62
189 226
190 484
191 182
193 0
206 95
208 999
209 391
210 131

$$$$

     RDKit          2D

 15 16  0  0  0  0  0  0  0  0999 V2000
    4.0772    0.4897    0.0000 C   0  0  0  0  0  0  0  0  0  0  0  0
   -2.6000    0.7500    0.0000 C   0  0  0  0  0  0  0  0  0  0  0  0
   -2.6000   -0.7500    0.0000 C   0  0  0  0  0  0  0  0  0  0  0  0
   -1.3000    1.5000    0.0000 C   0  0  0  0  0  0  0  0  0  0  0  0
    1.3000   -1.5000    0.0000 C   0  0  0  0  0  0  0  0  0  0  0  0
    2.6000   -0.7500    0.0000 C   0  0  0  0  0  0  0  0  0  0  0  0
    3.1127    2.1596    0.0000 C   0  0  0  0  0  0  0  0  0  0  0  0
    4.5899    2.4204    0.0000 C   0  0  0  0  0  0  0  0  0  0  0  0
    0.0000   -0.7500    0.0000 C   0  0  0  0  0  0  0  0  0  0  0  0
   -1.3000   -1.5000    0.0000 C   0  0  0  0  0  0  0  0  0  0  0  0
    0.0000    0.7500    0.0000 C   0  0  0  0  0  0  0  0  0  0  0  0
    2.6000    0.7500    0.0000 C   0  0  0  0  0  0  0  0  0  0  0  0
    5.1026    3.8301    0.0000 O   0  0  0  0  0  0  0  0  0  0  0  0
   -1.3000   -3.0000    0.0000 O   0  0  0  0  0  0  0  0  0  0  0  0
    1.3000    1.5000    0.0000 O   0  0  0  0  0  0  0  0  0  0  0  0
  3  2  2  0
  4  2  1  0
  6  5  1  0
  8  7  1  0
  9  5  1  0
 10  3  1  0
 10  9  2  0
 11  4  2  0
 11  9  1  0
 12  1  1  0
 12  6  1  0
 12  7  1  0
 13  8  1  0
 14 10  1  0
 15 11  1  0
 15 12  1  0
M  END
>  <NAME>  (1446) 
2-(3,4-DIHYDRO-5-HYDROXY-2-METHYL)-2H-1-BENZOPYRANETHANOL

>  <SYNONYMS>  (1446) 


>  <SPECTRUM TYPE>  (1446) 
MS1

>  <INSTRUMENT TYPE>  (1446) 
EI-B

>  <INSTRUMENT>  (1446) 
JEOL JMS-D-300

>  <ION MODE>  (1446) 
P

>  <INCHIKEY>  (1446) 
WXVMCKFUHIGFAR-UHFFFAOYSA-N

>  <FORMULA>  (1446) 
C12H16O3

>  <EXACT MASS>  (1446) 
208.109944372

>  <MW>  (1446) 
208

>  <ID>  (1446) 
JP009869

>  <CONTRIBUTOR>  (1446) 
University of Tokyo Team, {Faculty of Engineering, University of Tokyo

>  <COMMENT>  (1446) 
cas=101529-26-4
SMILES=OCCC(C)(C2)Oc(c1)c(C2)c(O)cc1
InChI=InChI=1S/C12H16O3/c1-12(7-8-13)6-5-9-10(14)3-2-4-11(9)15-12/h2-4,13-14H,5-8H2,1H3
computed SMILES=OC1=CC=CC=2OC(C)(CCO)CCC12
accession=JP009869
date=2016.01.19 (Created 2008.10.21, modified 2011.05.06)
author=KURARAY CO., LTD.
license=CC BY-NC-SA
exact mass=208.10994
ionization energy=70 eV
ion type=[M]+*
computed spectral entropy=3.1283992048272307
computed normalized entropy=0.8267025459789112
SPLASH=splash10-00di-3910000000-2df818983153861744a2
submitter=submitter = University of Tokyo Team (Faculty of Engineering, University of Tokyo)
MoNA Rating=3.75

>  <NUM PEAKS>  (1446) 
44

>  <MASS SPECTRAL PEAKS>  (1446) 
28 4.6
29 6.7
32 5
39 5
40 1
41 4.7
43 5.2
55 4.8
56 1
57 5.7
67 3.7
69 6.5
71 3.8
77 5.6
81 2.3
82 1.6
83 2.3
84 5.2
85 5.8
91 7.5
94 5.6
95 3.5
97 2.7
105 4.9
107 7.8
109 2.5
110 7
111 2.8
113 5.8
121 4.6
122 7.2
123 99.99
124 14.5
125 1.5
127 4.8
135 5.8
137 7
139 5.7
148 6.3
149 5.7
161 10
163 28.7
175 23
208 34.4

>  <PREDICTED SPECTRUM>  (1446) 
39 30
41 179
43 247
51 77
52 16
53 91
55 192
57 196
63 59
65 165
77 252
78 37
79 64
81 58
89 26
91 277
93 41
94 91
103 99
104 54
105 194
107 318
108 135
109 78
115 184
119 53
120 34
121 282
122 610
123 527
124 74
133 245
134 5
135 269
136 290
137 57
138 336
145 95
146 8
147 292
148 88
149 130
150 157
151 24
161 377
162 311
163 405
164 185
174 15
175 661
176 183
189 110
190 659
191 115
208 999
209 343
210 15

$$$$

     RDKit          2D

 15 16  0  0  0  0  0  0  0  0999 V2000
    8.4447    1.3739    0.0000 C   0  0  0  0  0  0  0  0  0  0  0  0
    7.1462    0.6231    0.0000 C   0  0  0  0  0  0  0  0  0  0  0  0
    1.9500   -0.9000    0.0000 C   0  0  0  0  0  0  0  0  0  0  0  0
    0.6300   -1.6600    0.0000 C   0  0  0  0  0  0  0  0  0  0  0  0
    0.6300    1.3800    0.0000 C   0  0  0  0  0  0  0  0  0  0  0  0
    3.2486    1.3708    0.0000 C   0  0  0  0  0  0  0  0  0  0  0  0
   -2.9400   -0.2300    0.0000 C   0  0  0  0  0  0  0  0  0  0  0  0
    1.9500    0.6200    0.0000 C   0  0  0  0  0  0  0  0  0  0  0  0
   -0.6600   -0.9000    0.0000 C   0  0  0  0  0  0  0  0  0  0  0  0
   -0.6600    0.6200    0.0000 C   0  0  0  0  0  0  0  0  0  0  0  0
    5.8467    1.3723    0.0000 C   0  0  0  0  0  0  0  0  0  0  0  0
    5.8458    2.8723    0.0000 O   0  0  0  0  0  0  0  0  0  0  0  0
    4.5481    0.6216    0.0000 O   0  0  0  0  0  0  0  0  0  0  0  0
   -2.0600   -1.3400    0.0000 O   0  0  0  0  0  0  0  0  0  0  0  0
   -2.0900    1.0600    0.0000 O   0  0  0  0  0  0  0  0  0  0  0  0
  2  1  1  0
  4  3  2  0
  8  3  1  0
  8  5  2  0
  8  6  1  0
  9  4  1  0
 10  5  1  0
 10  9  2  0
 11  2  1  0
 12 11  2  0
 13  6  1  0
 13 11  1  0
 14  7  1  0
 14  9  1  0
 15  7  1  0
 15 10  1  0
M  END
>  <NAME>  (1447) 
3,4-METHYLENEDIOXYBENZYL PROPIONATE

>  <SYNONYMS>  (1447) 


>  <SPECTRUM TYPE>  (1447) 
MS1

>  <INSTRUMENT TYPE>  (1447) 
EI-B

>  <INSTRUMENT>  (1447) 
JEOL JMS-D-300

>  <ION MODE>  (1447) 
P

>  <INCHIKEY>  (1447) 
FVRCUNZJSLRIKU-UHFFFAOYSA-N

>  <FORMULA>  (1447) 
C11H12O4

>  <EXACT MASS>  (1447) 
208.073558864

>  <MW>  (1447) 
208

>  <ID>  (1447) 
JP009868

>  <CONTRIBUTOR>  (1447) 
University of Tokyo Team, {Faculty of Engineering, University of Tokyo

>  <COMMENT>  (1447) 
SMILES=CCC(=O)OCc(c1)cc(O2)c(OC2)c1
cas=6890-26-2
InChI=InChI=1S/C11H12O4/c1-2-11(12)13-6-8-3-4-9-10(5-8)15-7-14-9/h3-5H,2,6-7H2,1H3
computed SMILES=O=C(OCC1=CC=C2OCOC2=C1)CC
accession=JP009868
date=2016.01.19 (Created 2008.10.21, modified 2011.05.06)
author=KURARAY CO., LTD.
license=CC BY-NC-SA
exact mass=208.07356
ionization energy=70 eV
ion type=[M]+*
computed spectral entropy=2.675468277670569
computed normalized entropy=0.7791142244723941
SPLASH=splash10-0k9i-2920000000-123a01eccdc82b3d6446
submitter=submitter = University of Tokyo Team (Faculty of Engineering, University of Tokyo)
MoNA Rating=3.75

>  <NUM PEAKS>  (1447) 
31

>  <MASS SPECTRAL PEAKS>  (1447) 
27 1.2
29 8.9
39 2.8
50 1.6
51 10
57 10
63 4
65 7.2
67 2.2
76 6.5
77 14.3
78 1.5
79 1.2
91 1.2
93 7.4
104 6.2
105 6.8
121 5.2
122 8.2
123 5
134 38
135 99.99
136 10
149 8
150 14.2
151 6.5
152 66.5
153 5.8
180 1.8
208 60
209 6.7

>  <PREDICTED SPECTRUM>  (1447) 
14 10
26 29
27 69
28 5
29 97
37 22
38 64
39 155
40 62
41 173
42 85
43 135
44 12
45 9
46 19
50 180
51 325
52 138
53 159
54 61
55 137
56 87
57 229
58 58
62 113
63 222
64 147
65 234
66 83
67 83
68 3
69 41
74 70
75 115
76 158
77 468
78 206
79 191
80 43
81 18
83 19
89 81
90 16
91 106
92 101
93 137
94 92
95 52
96 5
99 3
103 11
104 102
105 271
106 168
107 67
108 26
109 35
110 36
113 29
118 0
119 9
120 22
121 161
122 205
123 246
133 64
134 388
135 999
136 232
137 102
149 149
150 88
151 283
152 709
153 222
208 627
209 216
210 43

$$$$

     RDKit          2D

 12 11  0  0  0  0  0  0  0  0999 V2000
   -0.3248    2.8125    0.0000 C   0  0  0  0  0  0  0  0  0  0  0  0
   -6.8200    5.0625    0.0000 C   0  0  0  0  0  0  0  0  0  0  0  0
   -1.6238    5.0625    0.0000 C   0  0  0  0  0  0  0  0  0  0  0  0
   -2.9228    4.3125    0.0000 C   0  0  0  0  0  0  0  0  0  0  0  0
    0.9743    5.0625    0.0000 C   0  0  0  0  0  0  0  0  0  0  0  0
   -0.3248    4.3125    0.0000 C   0  0  0  0  0  0  0  0  0  0  0  0
   -5.5209    4.3125    0.0000 C   0  0  0  0  0  0  0  0  0  0  0  0
    2.2733    4.3125    0.0000 C   0  0  0  0  0  0  0  0  0  0  0  0
    3.5724    5.0625    0.0000 Cl  0  0  0  0  0  0  0  0  0  0  0  0
    2.2733    2.8125    0.0000 Cl  0  0  0  0  0  0  0  0  0  0  0  0
   -5.5209    2.8125    0.0000 O   0  0  0  0  0  0  0  0  0  0  0  0
   -4.2219    5.0625    0.0000 O   0  0  0  0  0  0  0  0  0  0  0  0
  4  3  1  0
  6  1  1  0
  3  6  2  0
  6  5  1  0
  7  2  1  0
  8  5  2  0
  9  8  1  0
 10  8  1  0
 11  7  2  0
 12  4  1  0
 12  7  1  0
M  END
>  <NAME>  (1448) 
5,5-DICHLORO-3-METHYL-2,4-PENTADIENYL ACETATE

>  <SYNONYMS>  (1448) 


>  <SPECTRUM TYPE>  (1448) 
MS1

>  <INSTRUMENT TYPE>  (1448) 
EI-B

>  <INSTRUMENT>  (1448) 
JEOL JMS-D-300

>  <ION MODE>  (1448) 
P

>  <INCHIKEY>  (1448) 
LSFBFKFSLCFMGT-ZZXKWVIFSA-N

>  <FORMULA>  (1448) 
C8H10Cl2O2

>  <EXACT MASS>  (1448) 
208.00578492

>  <MW>  (1448) 
208

>  <ID>  (1448) 
JP009867

>  <CONTRIBUTOR>  (1448) 
University of Tokyo Team, {Faculty of Engineering, University of Tokyo

>  <COMMENT>  (1448) 
SMILES=CC(=O)OCC=C(C)C=C(Cl)Cl
InChI=InChI=1S/C8H10Cl2O2/c1-6(5-8(9)10)3-4-12-7(2)11/h3,5H,4H2,1-2H3/b6-3+
computed SMILES=O=C(OCC=C(C=C(Cl)Cl)C)C
accession=JP009867
date=2016.01.19 (Created 2008.10.21, modified 2011.05.06)
author=KURARAY CO., LTD.
license=CC BY-NC-SA
exact mass=208.00578
ionization energy=70 eV
ion type=[M]+*
computed spectral entropy=1.8104753627357133
computed normalized entropy=0.5624557955135919
SPLASH=splash10-0006-9100000000-a7a6d8b2e5b1e08d1b0e
submitter=submitter = University of Tokyo Team (Faculty of Engineering, University of Tokyo)
MoNA Rating=3.75

>  <NUM PEAKS>  (1448) 
25

>  <MASS SPECTRAL PEAKS>  (1448) 
27 1.5
28 5.3
39 3.2
41 1.3
43 99.99
44 2.5
45 3
50 1
51 3
65 2.8
73 3
77 15
78 1.8
79 1
95 2.2
113 10.3
114 1
115 3.2
131 1.2
148 2
149 0.8
150 1.2
173 1.2
208 1
210 0.7

>  <PREDICTED SPECTRUM>  (1448) 
14 14
15 2
25 4
26 4
27 23
28 11
36 50
38 12
39 97
40 15
41 62
42 96
43 999
44 90
45 18
49 69
50 52
51 139
52 5
53 41
54 14
55 66
57 47
61 68
62 44
63 104
64 30
65 62
66 34
67 92
68 116
69 91
70 31
71 100
73 101
74 36
75 60
77 67
78 44
79 21
83 55
85 48
86 28
87 47
93 53
94 30
95 55
96 41
103 17
105 12
106 23
107 75
112 9
113 108
114 36
115 168
116 17
129 28
130 7
131 138
133 100
148 208
149 74
150 107
151 58
166 28
173 200
174 53
208 8
210 47

$$$$

     RDKit          2D

 15 15  0  0  0  0  0  0  0  0999 V2000
    4.6768    2.4406    0.0000 C   0  0  0  0  0  0  0  0  0  0  0  0
    2.0789   -2.0602    0.0000 C   0  0  0  0  0  0  0  0  0  0  0  0
    0.4441    2.0892    0.0000 C   0  0  0  0  0  0  0  0  0  0  0  0
   -1.4841    2.0892    0.0000 C   0  0  0  0  0  0  0  0  0  0  0  0
   -1.8200   -1.3100    0.0000 C   0  0  0  0  0  0  0  0  0  0  0  0
   -0.5200   -2.0600    0.0000 C   0  0  0  0  0  0  0  0  0  0  0  0
    3.3781    0.1904    0.0000 C   0  0  0  0  0  0  0  0  0  0  0  0
    2.0789    0.9402    0.0000 C   0  0  0  0  0  0  0  0  0  0  0  0
   -1.8200    0.1900    0.0000 C   0  0  0  0  0  0  0  0  0  0  0  0
    5.9762    0.1908    0.0000 C   0  0  0  0  0  0  0  0  0  0  0  0
    4.6770    0.9406    0.0000 C   0  0  0  0  0  0  0  0  0  0  0  0
    0.7800   -1.3100    0.0000 C   0  0  0  0  0  0  0  0  0  0  0  0
    0.7800    0.1900    0.0000 C   0  0  0  0  0  0  0  0  0  0  0  0
   -0.5200    0.9400    0.0000 C   0  0  0  0  0  0  0  0  0  0  0  0
    7.2751    0.9410    0.0000 O   0  0  0  0  0  0  0  0  0  0  0  0
  6  5  1  0
  8  7  1  0
  9  5  1  0
 11  1  1  0
  7 11  2  0
 11 10  1  0
 12  2  1  0
 12  6  1  0
 13  8  1  0
 13 12  2  0
 14  3  1  0
 14  4  1  0
 14  9  1  0
 14 13  1  0
 15 10  2  0
M  END
>  <NAME>  (1449) 
2-METHYL-4-(2,6,6-TRIMETHYLCYCLOHEXENYL)-2-BUTENAL

>  <SYNONYMS>  (1449) 


>  <SPECTRUM TYPE>  (1449) 
MS1

>  <INSTRUMENT TYPE>  (1449) 
EI-B

>  <INSTRUMENT>  (1449) 
JEOL JMS-D-300

>  <ION MODE>  (1449) 
P

>  <INCHIKEY>  (1449) 
FJCQUJKUMKZEMH-YRNVUSSQSA-N

>  <FORMULA>  (1449) 
C14H22O

>  <EXACT MASS>  (1449) 
206.167065324

>  <MW>  (1449) 
206

>  <ID>  (1449) 
JP009866

>  <CONTRIBUTOR>  (1449) 
University of Tokyo Team, {Faculty of Engineering, University of Tokyo

>  <COMMENT>  (1449) 
SMILES=O=CC(C)=CCC(=C(C)1)C(C)(C)CCC1
cas=3155-71-3
InChI=InChI=1S/C14H22O/c1-11(10-15)7-8-13-12(2)6-5-9-14(13,3)4/h7,10H,5-6,8-9H2,1-4H3/b11-7+
computed SMILES=O=CC(=CCC1=C(C)CCCC1(C)C)C
accession=JP009866
date=2016.01.19 (Created 2008.10.21, modified 2011.05.06)
author=KURARAY CO., LTD.
license=CC BY-NC-SA
exact mass=206.16707
ionization energy=70 eV
ion type=[M]+*
computed spectral entropy=3.8965632953124563
computed normalized entropy=0.8443036928490423
SPLASH=splash10-0abc-7910000000-d245a3a26af1b426d4e0
submitter=submitter = University of Tokyo Team (Faculty of Engineering, University of Tokyo)
MoNA Rating=3.75

>  <NUM PEAKS>  (1449) 
101

>  <MASS SPECTRAL PEAKS>  (1449) 
27 13.6
28 2.3
29 20.7
39 20.3
40 3
41 51.8
42 2.8
43 22.6
45 1.3
51 6.1
52 2.7
53 20.8
54 2.6
55 42.3
56 2.8
57 9.7
58 2
63 2
65 12
66 3.5
67 23
68 2.5
69 26.3
70 2.1
71 5
77 23.6
78 5.4
79 26.5
80 8
81 60.5
82 1.87
83 10.7
84 1.6
85 2.2
88 6.7
89 1.3
91 40.3
92 6.8
93 47.2
94 6.8
95 64.6
96 9.5
97 6
103 3.3
104 1.2
105 33.2
106 5.5
107 99.99
108 42.3
109 55.3
110 5.8
111 4.7
115 3.5
116 1.6
117 5.6
118 1.7
119 13.7
120 4.3
121 54.3
122 14.2
123 87.6
124 11
125 1.8
128 1.7
129 2
130 1.5
131 14.8
132 4.2
133 21.5
134 3.6
135 51.8
136 18.8
137 9.8
138 1.3
139 1.3
144 1.5
145 7
146 1.2
147 10.2
148 2.7
149 12.2
150 8.2
151 1.6
158 2.4
159 1.4
161 2.5
162 1.2
163 35.8
164 6.2
165 5.6
166 1.3
173 12.2
174 2
175 1.8
177 4.2
191 83.3
192 12.6
193 1.3
206 98.5
207 17
208 1.6

>  <PREDICTED SPECTRUM>  (1449) 
18 17
26 90
27 418
28 185
29 436
30 86
31 68
37 10
38 67
39 521
40 254
41 999
42 291
43 739
44 179
45 76
50 120
51 311
52 187
53 498
54 187
55 711
56 256
57 358
58 62
59 82
60 20
62 45
63 182
64 132
65 396
66 201
67 596
68 220
69 665
70 218
71 216
72 67
73 68
74 47
75 61
76 51
77 615
78 287
79 632
80 250
81 702
82 324
83 356
84 174
85 151
86 41
87 21
89 119
90 52
91 733
92 262
93 694
94 329
95 695
96 286
97 202
98 87
99 9
102 84
103 280
104 138
105 654
106 294
107 741
108 338
109 558
110 241
111 260
112 88
113 7
115 323
116 200
117 277
118 155
119 493
120 281
121 758
122 503
123 811
124 313
125 147
126 5
127 42
128 210
129 199
130 158
131 319
132 210
133 394
134 177
135 496
136 449
137 404
138 263
139 58
141 10
143 76
144 32
145 359
146 170
147 254
148 201
149 365
150 316
151 192
152 24
157 51
158 93
159 150
160 86
161 162
162 146
163 575
164 266
165 77
166 28
172 1
173 404
174 172
175 150
176 108
177 290
178 201
179 29
188 160
189 83
190 4
191 553
192 197
193 37
206 586
207 240
208 45

$$$$

     RDKit          2D

 15 16  0  0  0  0  0  0  0  0999 V2000
    3.8971    1.8200    0.0000 C   0  0  0  0  0  0  0  0  0  0  0  0
   -6.4952    4.8200    0.0000 C   0  0  0  0  0  0  0  0  0  0  0  0
    2.5976    1.0692    0.0000 C   0  0  0  0  0  0  0  0  0  0  0  0
    3.8976    3.3208    0.0000 C   0  0  0  0  0  0  0  0  0  0  0  0
   -5.1957    5.5708    0.0000 C   0  0  0  0  0  0  0  0  0  0  0  0
   -6.4957    3.3192    0.0000 C   0  0  0  0  0  0  0  0  0  0  0  0
    1.2986    1.8192    0.0000 C   0  0  0  0  0  0  0  0  0  0  0  0
    2.5986    4.0708    0.0000 C   0  0  0  0  0  0  0  0  0  0  0  0
   -3.8966    4.8208    0.0000 C   0  0  0  0  0  0  0  0  0  0  0  0
   -5.1966    2.5692    0.0000 C   0  0  0  0  0  0  0  0  0  0  0  0
   -1.2990    3.3200    0.0000 C   0  0  0  0  0  0  0  0  0  0  0  0
    1.2990    3.3200    0.0000 C   0  0  0  0  0  0  0  0  0  0  0  0
   -3.8971    3.3200    0.0000 C   0  0  0  0  0  0  0  0  0  0  0  0
    0.0000    4.0700    0.0000 N   0  0  0  0  0  0  0  0  0  0  0  0
   -2.5981    2.5700    0.0000 N   0  0  0  0  0  0  0  0  0  0  0  0
  3  1  1  0
  4  1  1  0
  5  2  1  0
  6  2  1  0
  7  3  1  0
  8  4  1  0
  9  5  1  0
 10  6  1  0
 12  7  1  0
 12  8  1  0
 13  9  1  0
 13 10  1  0
 14 11  2  0
 14 12  1  0
 15 11  2  0
 15 13  1  0
M  END
>  <NAME>  (1450) 
DICYCLOHEXYLCARBODIIMIDE

>  <SYNONYMS>  (1450) 


>  <SPECTRUM TYPE>  (1450) 
MS1

>  <INSTRUMENT TYPE>  (1450) 
EI-B

>  <INSTRUMENT>  (1450) 
JEOL JMS-D-300

>  <ION MODE>  (1450) 
P

>  <INCHIKEY>  (1450) 
QOSSAOTZNIDXMA-UHFFFAOYSA-N

>  <FORMULA>  (1450) 
C13H22N2

>  <EXACT MASS>  (1450) 
206.17829870399999

>  <MW>  (1450) 
206

>  <ID>  (1450) 
JP009865

>  <CONTRIBUTOR>  (1450) 
University of Tokyo Team, {Faculty of Engineering, University of Tokyo

>  <COMMENT>  (1450) 
SMILES=C(C2)CCC(C2)N=C=NC(C1)CCCC1
cas=538-75-0
InChI=InChI=1S/C13H22N2/c1-3-7-12(8-4-1)14-11-15-13-9-5-2-6-10-13/h12-13H,1-10H2
computed SMILES=C(=NC1CCCCC1)=NC2CCCCC2
accession=JP009865
date=2016.01.19 (Created 2008.10.21, modified 2011.05.06)
author=KURARAY CO., LTD.
license=CC BY-NC-SA
exact mass=206.1783
ionization energy=70 eV
ion type=[M]+*
computed spectral entropy=2.824750934366155
computed normalized entropy=0.8010386103881493
SPLASH=splash10-052f-9000000000-0b76a833bcb87eb1cdb4
submitter=submitter = University of Tokyo Team (Faculty of Engineering, University of Tokyo)
MoNA Rating=3.75

>  <NUM PEAKS>  (1450) 
34

>  <MASS SPECTRAL PEAKS>  (1450) 
27 32
28 14
29 35.6
30 1.5
39 32.5
40 4.8
41 99.99
42 8.8
43 51
52 1.5
53 15.5
54 15
55 96
56 9.5
65 1.5
66 1.3
67 14.2
68 6
69 4
77 1
79 2.8
80 1.1
81 24.5
82 14.3
83 33
84 1.6
95 4
96 4.8
124 9.5
125 7.3
151 1.1
163 9.5
164 4.9
177 2.2

>  <PREDICTED SPECTRUM>  (1450) 
14 2
16 5
18 1
26 62
27 232
28 159
29 221
30 69
32 19
33 23
34 22
36 3
37 42
38 112
39 455
40 218
41 718
42 269
43 272
44 81
45 39
46 5
48 14
50 126
51 208
52 174
53 369
54 403
55 921
56 331
57 217
58 150
59 19
62 9
63 29
64 98
65 181
66 190
67 523
68 200
69 336
70 282
71 157
76 13
77 174
78 168
79 289
80 233
81 455
82 548
83 999
84 227
85 84
86 49
91 61
92 46
93 123
94 192
95 304
96 239
97 203
98 50
106 2
107 27
108 145
109 237
110 93
121 2
122 56
123 299
124 412
125 632
126 242
127 84
135 32
150 28
151 102
163 37
164 90
165 19
177 104
178 37
191 222
192 81
205 289
206 326
207 150

$$$$

     RDKit          2D

 15 16  0  0  0  0  0  0  0  0999 V2000
   -3.8989    1.5002    0.0000 C   0  0  0  0  0  0  0  0  0  0  0  0
   -1.3000   -3.0000    0.0000 C   0  0  0  0  0  0  0  0  0  0  0  0
    4.0772    0.4897    0.0000 C   0  0  0  0  0  0  0  0  0  0  0  0
    3.1127    2.1596    0.0000 C   0  0  0  0  0  0  0  0  0  0  0  0
    1.3000   -1.5000    0.0000 C   0  0  0  0  0  0  0  0  0  0  0  0
    2.6000   -0.7500    0.0000 C   0  0  0  0  0  0  0  0  0  0  0  0
   -1.3000    1.5000    0.0000 C   0  0  0  0  0  0  0  0  0  0  0  0
   -2.6000    0.7500    0.0000 C   0  0  0  0  0  0  0  0  0  0  0  0
   -1.3000   -1.5000    0.0000 C   0  0  0  0  0  0  0  0  0  0  0  0
    0.0000   -0.7500    0.0000 C   0  0  0  0  0  0  0  0  0  0  0  0
    0.0000    0.7500    0.0000 C   0  0  0  0  0  0  0  0  0  0  0  0
   -2.6000   -0.7500    0.0000 C   0  0  0  0  0  0  0  0  0  0  0  0
    2.6000    0.7500    0.0000 C   0  0  0  0  0  0  0  0  0  0  0  0
   -3.8989   -1.5002    0.0000 O   0  0  0  0  0  0  0  0  0  0  0  0
    1.3000    1.5000    0.0000 O   0  0  0  0  0  0  0  0  0  0  0  0
  6  5  1  0
  8  1  1  0
  8  7  1  0
  9  2  1  0
 10  5  1  0
 10  9  2  0
 11  7  2  0
 11 10  1  0
 12  8  2  0
 12  9  1  0
 13  3  1  0
 13  4  1  0
 13  6  1  0
 14 12  1  0
 15 11  1  0
 15 13  1  0
M  END
>  <NAME>  (1451) 
2,2,5,7-TETRAMETHYLCHROMAN-6-OL

>  <SYNONYMS>  (1451) 
3,4-DIHYDRO-2,2,5,7-TETRAMETHYL-6-HYDROXY-2H-BENZOPYRAN

>  <SPECTRUM TYPE>  (1451) 
MS1

>  <INSTRUMENT TYPE>  (1451) 
EI-B

>  <INSTRUMENT>  (1451) 
JEOL JMS-D-300

>  <ION MODE>  (1451) 
P

>  <INCHIKEY>  (1451) 
JCUAPADRRINJBH-UHFFFAOYSA-N

>  <FORMULA>  (1451) 
C13H18O2

>  <EXACT MASS>  (1451) 
206.130679816

>  <MW>  (1451) 
206

>  <ID>  (1451) 
JP009864

>  <CONTRIBUTOR>  (1451) 
University of Tokyo Team, {Faculty of Engineering, University of Tokyo

>  <COMMENT>  (1451) 
SMILES=Cc(c1)c(O)c(C)c(C2)c1OC(C)(C)C2
cas=14074-92-1
InChI=InChI=1S/C13H18O2/c1-8-7-11-10(9(2)12(8)14)5-6-13(3,4)15-11/h7,14H,5-6H2,1-4H3
computed SMILES=OC=1C(=CC=2OC(C)(C)CCC2C1C)C
accession=JP009864
date=2016.01.19 (Created 2008.10.21, modified 2011.05.06)
author=KURARAY CO., LTD.
license=CC BY-NC-SA
exact mass=206.13068
ionization energy=70 eV
ion type=[M]+*
computed spectral entropy=3.577055575430756
computed normalized entropy=0.9342884864356725
SPLASH=splash10-0udi-3910000000-5b52411bf0cb7a919005
submitter=submitter = University of Tokyo Team (Faculty of Engineering, University of Tokyo)
MoNA Rating=3.75

>  <NUM PEAKS>  (1451) 
46

>  <MASS SPECTRAL PEAKS>  (1451) 
39 11.2
41 13
43 11.8
53 15.3
55 10.2
57 9.4
65 9.7
67 14.3
68 8.5
69 11
77 18
79 6
81 7.5
83 10.8
91 14.2
93 9.5
95 8.2
97 10
105 13.8
107 13.8
108 10.2
109 10.5
119 11.7
121 17.7
122 18
123 11.8
133 14.2
135 10.8
136 5.2
138 15.2
147 11.6
149 10
150 41.7
151 99.99
152 14.3
161 29.2
162 16.7
163 11.5
174 10
175 14
176 9.2
189 28.5
191 10
204 17
206 49.7
207 10.8

>  <PREDICTED SPECTRUM>  (1451) 
27 2
29 2
39 159
40 80
41 330
42 17
43 205
44 103
45 17
50 74
51 159
52 110
53 188
55 265
56 134
62 7
63 97
64 28
65 200
66 98
67 181
68 7
69 261
71 2
75 17
76 28
77 236
78 118
79 236
80 36
81 162
82 18
83 118
85 17
89 7
91 282
92 67
93 189
94 71
95 239
96 47
97 122
102 7
103 20
105 101
106 39
107 359
108 118
109 182
115 55
116 0
117 4
118 1
119 148
120 111
121 251
122 231
123 220
131 24
132 88
133 181
134 54
135 214
136 85
137 20
138 90
145 82
146 31
147 133
148 59
149 216
150 346
151 999
152 271
161 242
162 152
163 167
164 50
173 114
174 120
175 275
176 219
177 94
188 64
189 211
190 69
191 290
192 68
204 141
205 37
206 610
207 229
208 15

$$$$

     RDKit          2D

 15 16  0  0  0  0  0  0  0  0999 V2000
   -3.8989   -1.5002    0.0000 C   0  0  0  0  0  0  0  0  0  0  0  0
    4.0772    0.4897    0.0000 C   0  0  0  0  0  0  0  0  0  0  0  0
   -2.6000    0.7500    0.0000 C   0  0  0  0  0  0  0  0  0  0  0  0
   -1.3000    1.5000    0.0000 C   0  0  0  0  0  0  0  0  0  0  0  0
    1.3000   -1.5000    0.0000 C   0  0  0  0  0  0  0  0  0  0  0  0
    2.6000   -0.7500    0.0000 C   0  0  0  0  0  0  0  0  0  0  0  0
    3.1127    2.1596    0.0000 C   0  0  0  0  0  0  0  0  0  0  0  0
    4.5899    2.4204    0.0000 C   0  0  0  0  0  0  0  0  0  0  0  0
   -1.3000   -1.5000    0.0000 C   0  0  0  0  0  0  0  0  0  0  0  0
   -2.6000   -0.7500    0.0000 C   0  0  0  0  0  0  0  0  0  0  0  0
    0.0000   -0.7500    0.0000 C   0  0  0  0  0  0  0  0  0  0  0  0
    0.0000    0.7500    0.0000 C   0  0  0  0  0  0  0  0  0  0  0  0
    2.6000    0.7500    0.0000 C   0  0  0  0  0  0  0  0  0  0  0  0
    5.1026    3.8301    0.0000 O   0  0  0  0  0  0  0  0  0  0  0  0
    1.3000    1.5000    0.0000 O   0  0  0  0  0  0  0  0  0  0  0  0
  4  3  2  0
  6  5  1  0
  8  7  1  0
 10  1  1  0
 10  3  1  0
 10  9  2  0
 11  5  1  0
 11  9  1  0
 12  4  1  0
 12 11  2  0
 13  2  1  0
 13  6  1  0
 13  7  1  0
 14  8  1  0
 15 12  1  0
 15 13  1  0
M  END
>  <NAME>  (1452) 
2,6-DIMETHYL-2-(2-HYDROXYETHYL)-3,4-DIHYDRO-2H-1-BENZOPYRAN

>  <SYNONYMS>  (1452) 
2,6-DIMETHYL-2-(2-HYDROXYETHYL)CHROMAN

>  <SPECTRUM TYPE>  (1452) 
MS1

>  <INSTRUMENT TYPE>  (1452) 
EI-B

>  <INSTRUMENT>  (1452) 
JEOL JMS-D-300

>  <ION MODE>  (1452) 
P

>  <INCHIKEY>  (1452) 
XYPZIMJRPNTDRA-UHFFFAOYSA-N

>  <FORMULA>  (1452) 
C13H18O2

>  <EXACT MASS>  (1452) 
206.130679816

>  <MW>  (1452) 
206

>  <ID>  (1452) 
JP009863

>  <CONTRIBUTOR>  (1452) 
University of Tokyo Team, {Faculty of Engineering, University of Tokyo

>  <COMMENT>  (1452) 
SMILES=OCCC(C)(C1)Oc(c2)c(cc(C)c2)C1
InChI=InChI=1S/C13H18O2/c1-10-3-4-12-11(9-10)5-6-13(2,15-12)7-8-14/h3-4,9,14H,5-8H2,1-2H3
computed SMILES=OCCC1(OC2=CC=C(C=C2CC1)C)C
accession=JP009863
date=2016.01.19 (Created 2008.10.21, modified 2011.05.06)
author=KURARAY CO., LTD.
license=CC BY-NC-SA
exact mass=206.13068
ionization energy=70 eV
ion type=[M]+*
computed spectral entropy=3.3239494599152875
computed normalized entropy=0.7797792834076033
SPLASH=splash10-05fr-2920000000-78b161c0acf39724d59e
submitter=submitter = University of Tokyo Team (Faculty of Engineering, University of Tokyo)
MoNA Rating=3.75

>  <NUM PEAKS>  (1452) 
71

>  <MASS SPECTRAL PEAKS>  (1452) 
27 1.7
29 1.6
31 1.4
39 0.4
41 4.1
43 4.2
51 2.7
52 0.1
53 3.2
55 3.2
63 1.8
65 0.51
67 1.4
77 11.4
78 2.8
79 0.29
80 1.3
83 1.9
85 8.6
89 0.13
91 19.6
92 9.1
93 3.4
103 0.19
105 10.7
106 1.4
107 3.4
108 0.4
109 1.3
115 5.3
116 1.8
117 0.19
119 3.3
120 8.4
121 99.99
122 1.33
128 2.4
129 1.9
131 3.4
132 0.3
133 13.7
134 4.5
135 2.9
141 0.16
142 1
143 1.3
144 1.6
145 1.51
146 6.6
147 11.3
148 4.5
149 0.12
158 3.8
159 19.5
160 7.7
161 4.2
162 9.1
171 10.7
172 2.7
173 7.4
174 14.6
175 3.2
176 6.8
186 0.15
187 4.5
188 9
189 2
191 0.14
204 1.8
206 60.7
207 15.1

>  <PREDICTED SPECTRUM>  (1452) 
27 24
31 23
39 100
40 22
41 301
43 143
45 64
46 3
49 7
50 20
51 156
52 35
53 159
55 216
56 35
63 94
64 13
65 178
67 146
69 142
71 19
76 30
77 409
78 180
79 239
83 38
84 58
85 137
89 42
91 468
92 55
93 179
102 17
103 77
104 95
105 535
106 217
107 367
108 96
115 287
116 48
117 156
119 430
120 539
121 881
122 322
123 112
127 20
128 201
129 69
130 92
131 132
133 368
134 248
135 63
141 176
142 102
143 195
144 111
145 347
146 217
147 307
148 247
149 32
155 114
156 93
157 70
158 269
159 530
160 374
161 641
162 235
170 5
171 297
172 257
173 728
174 393
175 151
176 208
187 272
188 475
189 164
191 7
204 199
205 0
206 999
207 401
208 103

$$$$

     RDKit          2D

 15 16  0  0  0  0  0  0  0  0999 V2000
   -3.8989    1.5002    0.0000 C   0  0  0  0  0  0  0  0  0  0  0  0
   -1.3000    3.0000    0.0000 C   0  0  0  0  0  0  0  0  0  0  0  0
   -1.3000   -3.0000    0.0000 C   0  0  0  0  0  0  0  0  0  0  0  0
    1.3000   -1.5000    0.0000 C   0  0  0  0  0  0  0  0  0  0  0  0
    2.6000   -0.7500    0.0000 C   0  0  0  0  0  0  0  0  0  0  0  0
   -2.6000    0.7500    0.0000 C   0  0  0  0  0  0  0  0  0  0  0  0
   -1.3000    1.5000    0.0000 C   0  0  0  0  0  0  0  0  0  0  0  0
   -1.3000   -1.5000    0.0000 C   0  0  0  0  0  0  0  0  0  0  0  0
    0.0000   -0.7500    0.0000 C   0  0  0  0  0  0  0  0  0  0  0  0
    2.6000    0.7500    0.0000 C   0  0  0  0  0  0  0  0  0  0  0  0
   -2.6000   -0.7500    0.0000 C   0  0  0  0  0  0  0  0  0  0  0  0
    0.0000    0.7500    0.0000 C   0  0  0  0  0  0  0  0  0  0  0  0
    3.8989    1.5002    0.0000 O   0  0  0  0  0  0  0  0  0  0  0  0
   -3.8989   -1.5002    0.0000 O   0  0  0  0  0  0  0  0  0  0  0  0
    1.3000    1.5000    0.0000 O   0  0  0  0  0  0  0  0  0  0  0  0
  5  4  1  0
  6  1  1  0
  7  2  1  0
  7  6  1  0
  8  3  1  0
  9  4  1  0
  9  8  2  0
 10  5  1  0
 11  6  2  0
 11  8  1  0
 12  7  2  0
 12  9  1  0
 13 10  2  0
 14 11  1  0
 15 10  1  0
 15 12  1  0
M  END
>  <NAME>  (1453) 
6-HYDROXY-5,7,8-TRIMETHYL-3,4-DIHYDROCOUMARIN

>  <SYNONYMS>  (1453) 


>  <SPECTRUM TYPE>  (1453) 
MS1

>  <INSTRUMENT TYPE>  (1453) 
EI-B

>  <INSTRUMENT>  (1453) 
JEOL JMS-D-300

>  <ION MODE>  (1453) 
P

>  <INCHIKEY>  (1453) 
IWIXYZQOIASOQM-UHFFFAOYSA-N

>  <FORMULA>  (1453) 
C12H14O3

>  <EXACT MASS>  (1453) 
206.09429430799997

>  <MW>  (1453) 
206

>  <ID>  (1453) 
JP009862

>  <CONTRIBUTOR>  (1453) 
University of Tokyo Team, {Faculty of Engineering, University of Tokyo

>  <COMMENT>  (1453) 
SMILES=O=C(C2)Oc(c(C)1)c(C2)c(C)c(O)c(C)1
InChI=InChI=1S/C12H14O3/c1-6-7(2)12-9(8(3)11(6)14)4-5-10(13)15-12/h14H,4-5H2,1-3H3
computed SMILES=O=C1OC=2C(=C(C(O)=C(C2CC1)C)C)C
license=CC BY-NC-SA
accession=JP009862
date=2016.01.19 (Created 2008.10.21, modified 2011.05.06)
author=KURARAY CO., LTD.
exact mass=206.09429
ionization energy=70 eV
ion type=[M]+*
computed spectral entropy=2.4225362499169045
computed normalized entropy=0.743543422254768
SPLASH=splash10-0bt9-3940000000-7affddfa5eee5042639b
submitter=submitter = University of Tokyo Team (Faculty of Engineering, University of Tokyo)
MoNA Rating=3.75

>  <NUM PEAKS>  (1453) 
26

>  <MASS SPECTRAL PEAKS>  (1453) 
27 5
28 2.8
39 7.8
41 0.63
43 6.1
51 4.7
53 7.7
55 0.47
65 4.7
67 5.2
77 6.4
79 0.44
89 5.9
91 10.5
121 18.4
135 1.17
136 22.5
149 3.8
163 7.5
164 99.99
165 14.4
177 7.7
178 26.9
179 0.45
206 94.5
207 15.6

>  <PREDICTED SPECTRUM>  (1453) 
27 77
28 6
38 8
39 137
40 58
41 241
42 72
43 193
44 52
49 17
50 103
51 273
52 154
53 264
54 78
55 266
57 32
62 53
63 141
64 108
65 271
66 110
67 197
68 73
69 85
75 18
76 20
77 348
78 176
79 298
80 59
81 125
85 12
89 73
90 28
91 511
92 128
93 211
94 63
95 53
102 54
103 144
104 34
105 188
106 33
107 256
108 123
109 68
111 6
115 187
116 129
117 206
118 100
119 152
120 91
121 290
122 219
123 119
124 85
127 78
128 141
129 52
131 271
132 95
133 183
134 61
135 437
136 264
137 135
144 44
145 265
146 87
147 414
148 137
149 312
150 252
151 151
152 32
159 62
161 229
162 67
163 625
164 574
165 216
166 70
173 12
176 7
177 241
178 588
179 274
180 4
187 37
189 39
190 58
191 332
192 92
204 9
205 107
206 999
207 362
208 105

$$$$

     RDKit          2D

 15 16  0  0  0  0  0  0  0  0999 V2000
   -2.3090   -5.2500    0.0000 C   0  0  0  0  0  0  0  0  0  0  0  0
   -2.3100    0.7500    0.0000 C   0  0  0  0  0  0  0  0  0  0  0  0
   -2.3100   -0.7500    0.0000 C   0  0  0  0  0  0  0  0  0  0  0  0
   -1.0100    1.5000    0.0000 C   0  0  0  0  0  0  0  0  0  0  0  0
   -1.0100   -3.0000    0.0000 C   0  0  0  0  0  0  0  0  0  0  0  0
    2.6000   -0.0000    0.0000 C   0  0  0  0  0  0  0  0  0  0  0  0
   -2.3090   -3.7500    0.0000 C   0  0  0  0  0  0  0  0  0  0  0  0
   -1.0100   -1.5000    0.0000 C   0  0  0  0  0  0  0  0  0  0  0  0
    0.2900    0.7500    0.0000 C   0  0  0  0  0  0  0  0  0  0  0  0
    0.2900   -0.7500    0.0000 C   0  0  0  0  0  0  0  0  0  0  0  0
   -3.6081   -3.0000    0.0000 C   0  0  0  0  0  0  0  0  0  0  0  0
   -3.6081   -1.5000    0.0000 O   0  0  0  0  0  0  0  0  0  0  0  0
   -4.9071   -3.7500    0.0000 O   0  0  0  0  0  0  0  0  0  0  0  0
    1.7200    1.2100    0.0000 O   0  0  0  0  0  0  0  0  0  0  0  0
    1.7200   -1.2100    0.0000 O   0  0  0  0  0  0  0  0  0  0  0  0
  3  2  2  0
  4  2  1  0
  7  1  1  0
  5  7  2  0
  8  3  1  0
  8  5  1  0
  9  4  2  0
 10  8  2  0
 10  9  1  0
 11  7  1  0
 12 11  2  0
 13 11  1  0
 14  6  1  0
 14  9  1  0
 15  6  1  0
 15 10  1  0
M  END
>  <NAME>  (1454) 
4-(2-HYDROXYCARBONYL-1-PROPENYL)-1,3-BENZODIOXOLE

>  <SYNONYMS>  (1454) 
3,4-METHYLENEDIOXY-ALPHA-METHYLCINNAMIC ACID

>  <SPECTRUM TYPE>  (1454) 
MS1

>  <INSTRUMENT TYPE>  (1454) 
EI-B

>  <INSTRUMENT>  (1454) 
JEOL JMS-D-300

>  <ION MODE>  (1454) 
P

>  <INCHIKEY>  (1454) 
GHPDISUPGNPJBE-ALCCZGGFSA-N

>  <FORMULA>  (1454) 
C11H10O4

>  <EXACT MASS>  (1454) 
206.0579088

>  <MW>  (1454) 
206

>  <ID>  (1454) 
JP009861

>  <CONTRIBUTOR>  (1454) 
University of Tokyo Team, {Faculty of Engineering, University of Tokyo

>  <COMMENT>  (1454) 
SMILES=OC(=O)C(C)=Cc(c2)c(O1)c(cc2)OC1
InChI=InChI=1S/C11H10O4/c1-7(11(12)13)5-8-3-2-4-9-10(8)15-6-14-9/h2-5H,6H2,1H3,(H,12,13)/b7-5-
computed SMILES=O=C(O)C(=CC=1C=CC=C2OCOC21)C
accession=JP009861
date=2016.01.19 (Created 2008.10.21, modified 2011.05.06)
author=KURARAY CO., LTD.
license=CC BY-NC-SA
exact mass=206.05791
ionization energy=70 eV
ion type=[M]+*
computed spectral entropy=2.488804421856983
computed normalized entropy=0.7181171594311186
SPLASH=splash10-0a4i-3790000000-eeb1519e3d2e807f8925
submitter=submitter = University of Tokyo Team (Faculty of Engineering, University of Tokyo)
MoNA Rating=3.75

>  <NUM PEAKS>  (1454) 
32

>  <MASS SPECTRAL PEAKS>  (1454) 
39 3.6
50 3.1
51 9.4
52 0.17
53 2.5
62 2.2
63 4.7
65 0.3
74 2
75 2.5
76 3.1
77 1.44
78 2.8
79 2.7
91 3.3
102 1
103 22.7
104 3.9
105 2.2
130 0.41
131 22.2
132 2.9
135 16.4
147 0.16
151 2.8
159 5.6
160 24.8
161 0.78
189 2.2
205 15.6
206 99.99
207 12.5

>  <PREDICTED SPECTRUM>  (1454) 
39 55
41 6
43 39
45 24
49 14
50 130
51 269
52 91
53 137
55 68
57 10
62 96
63 200
64 89
65 197
66 50
69 51
70 8
73 16
74 95
75 165
76 135
77 343
78 104
79 106
80 45
81 4
85 2
86 4
87 48
89 184
90 46
91 211
92 81
93 30
94 42
102 100
103 233
104 155
105 150
106 12
107 43
113 13
114 12
115 128
116 117
117 118
118 69
119 104
120 112
121 34
130 111
131 426
132 344
133 234
134 47
135 218
136 72
147 75
148 75
159 290
160 455
161 188
188 11
189 111
205 190
206 999
207 310
208 77

$$$$

     RDKit          2D

 14 13  0  0  0  0  0  0  0  0999 V2000
    7.6917    3.5143    0.0000 C   0  0  0  0  0  0  0  0  0  0  0  0
    6.1917    0.9162    0.0000 C   0  0  0  0  0  0  0  0  0  0  0  0
    0.7813    1.0662    0.0000 C   0  0  0  0  0  0  0  0  0  0  0  0
    4.3436    2.2153    0.0000 C   0  0  0  0  0  0  0  0  0  0  0  0
    5.6426    2.9653    0.0000 C   0  0  0  0  0  0  0  0  0  0  0  0
    3.0445    2.9653    0.0000 C   0  0  0  0  0  0  0  0  0  0  0  0
   -0.8526    2.2153    0.0000 C   0  0  0  0  0  0  0  0  0  0  0  0
    0.4465    2.9653    0.0000 C   0  0  0  0  0  0  0  0  0  0  0  0
    6.9417    2.2153    0.0000 C   0  0  0  0  0  0  0  0  0  0  0  0
    1.7455    2.2153    0.0000 C   0  0  0  0  0  0  0  0  0  0  0  0
   -2.1516    2.9653    0.0000 O   0  0  0  0  0  0  0  0  0  0  0  0
    0.4465    4.4653    0.0000 O   0  0  0  0  0  0  0  0  0  0  0  0
    8.2407    1.4653    0.0000 O   0  0  0  0  0  0  0  0  0  0  0  0
    2.7097    1.0662    0.0000 O   0  0  0  0  0  0  0  0  0  0  0  0
  5  4  1  0
  6  4  1  0
  8  7  1  0
  9  1  1  0
  9  2  1  0
  9  5  1  0
 10  3  1  0
 10  6  1  0
 10  8  1  0
 11  7  1  0
 12  8  1  0
 13  9  1  0
 14 10  1  0
M  END
>  <NAME>  (1455) 
3,7-DIMETHYL-1,2,3,7-OCTANETETRAOL

>  <SYNONYMS>  (1455) 


>  <SPECTRUM TYPE>  (1455) 
MS1

>  <INSTRUMENT TYPE>  (1455) 
EI-B

>  <INSTRUMENT>  (1455) 
JEOL JMS-D-300

>  <ION MODE>  (1455) 
P

>  <INCHIKEY>  (1455) 
UWRGONHVPULUGX-UHFFFAOYSA-N

>  <FORMULA>  (1455) 
C10H22O4

>  <EXACT MASS>  (1455) 
206.151809184

>  <MW>  (1455) 
206

>  <ID>  (1455) 
JP009860

>  <CONTRIBUTOR>  (1455) 
University of Tokyo Team, {Faculty of Engineering, University of Tokyo

>  <COMMENT>  (1455) 
SMILES=OCC(O)C(C)(O)CCCC(C)(C)O
InChI=InChI=1S/C10H22O4/c1-9(2,13)5-4-6-10(3,14)8(12)7-11/h8,11-14H,4-7H2,1-3H3
computed SMILES=OCC(O)C(O)(C)CCCC(O)(C)C
accession=JP009860
date=2016.01.19 (Created 2008.10.21, modified 2011.05.06)
author=KURARAY CO., LTD.
license=CC BY-NC-SA
exact mass=206.15181
ionization energy=70 eV
ion type=[M]+*
computed spectral entropy=3.175578880485852
computed normalized entropy=0.7888947660883505
SPLASH=splash10-0a4l-9200000000-69380db1f702f0bcc32c
submitter=submitter = University of Tokyo Team (Faculty of Engineering, University of Tokyo)
MoNA Rating=3.75

>  <NUM PEAKS>  (1455) 
56

>  <MASS SPECTRAL PEAKS>  (1455) 
27 5.1
29 7.6
31 10.9
39 0.53
41 24.2
42 4.7
43 99.99
44 0.64
45 5.7
53 3.3
55 18.8
56 1.24
57 10.5
58 31
59 79.1
60 3.02
61 3.1
67 6
68 3.1
69 7.12
70 10.1
71 62.6
72 20
73 0.29
81 5.6
82 3.1
83 9.3
84 0.59
85 6.2
86 3.1
87 4.2
88 0.25
93 4.7
94 2.5
95 12.4
96 0.31
97 7.1
98 2.3
99 4
100 0.5
101 2.9
105 4
106 3.1
107 0.23
108 5
109 52.7
110 7.3
111 1.46
112 8.2
113 4.5
116 8.4
117 0.47
127 22.5
128 3.1
129 4.3
153 3.4

>  <PREDICTED SPECTRUM>  (1455) 
14 4
15 31
17 16
18 29
25 15
26 41
27 164
28 65
29 223
30 57
31 326
32 18
33 44
37 1
38 11
39 180
40 62
41 412
42 151
43 925
44 209
45 334
47 28
51 14
52 8
53 131
54 147
55 480
56 229
57 394
58 318
59 999
60 235
61 270
62 17
63 0
65 48
66 34
67 229
68 199
69 420
70 233
71 585
72 413
73 241
74 112
75 75
76 19
77 103
78 15
79 75
80 20
81 210
82 96
83 237
84 34
85 231
86 50
87 118
88 38
89 163
90 58
91 58
92 56
93 85
94 16
95 312
96 171
97 312
98 39
99 136
101 230
102 8
103 41
105 11
107 46
109 643
110 230
111 195
112 145
113 112
114 13
115 132
116 61
121 116
123 32
125 81
126 1
127 276
128 145
129 11
130 87
131 11
139 2
153 34
157 8

$$$$

     RDKit          2D

 15 15  0  0  0  0  0  0  0  0999 V2000
   -5.6729    3.3957    0.0000 C   0  0  0  0  0  0  0  0  0  0  0  0
   -4.3738    1.1457    0.0000 C   0  0  0  0  0  0  0  0  0  0  0  0
    0.4875    4.5448    0.0000 C   0  0  0  0  0  0  0  0  0  0  0  0
    3.4204    1.1457    0.0000 C   0  0  0  0  0  0  0  0  0  0  0  0
    3.4209    2.6465    0.0000 C   0  0  0  0  0  0  0  0  0  0  0  0
    2.1209    0.3949    0.0000 C   0  0  0  0  0  0  0  0  0  0  0  0
    2.1218    3.3965    0.0000 C   0  0  0  0  0  0  0  0  0  0  0  0
    0.8218    1.1449    0.0000 C   0  0  0  0  0  0  0  0  0  0  0  0
   -3.0748    3.3957    0.0000 C   0  0  0  0  0  0  0  0  0  0  0  0
   -1.7758    2.6457    0.0000 C   0  0  0  0  0  0  0  0  0  0  0  0
   -1.4409    4.5448    0.0000 C   0  0  0  0  0  0  0  0  0  0  0  0
   -4.3738    2.6457    0.0000 C   0  0  0  0  0  0  0  0  0  0  0  0
    0.8223    2.6457    0.0000 C   0  0  0  0  0  0  0  0  0  0  0  0
   -0.4767    3.3957    0.0000 C   0  0  0  0  0  0  0  0  0  0  0  0
   -0.9279    5.9543    0.0000 O   0  0  0  0  0  0  0  0  0  0  0  0
  5  4  2  0
  6  4  1  0
  7  5  1  0
  8  6  2  0
 10  9  1  0
 12  1  1  0
 12  2  1  0
 12  9  2  0
 13  7  2  0
 13  8  1  0
 14  3  1  0
 14 10  1  0
 14 11  1  0
 14 13  1  0
 15 11  1  0
M  END
>  <NAME>  (1456) 
2,5-DIMETHYL-2-PHENYL-4-HEXEN-1-OL

>  <SYNONYMS>  (1456) 


>  <SPECTRUM TYPE>  (1456) 
MS1

>  <INSTRUMENT TYPE>  (1456) 
EI-B

>  <INSTRUMENT>  (1456) 
JEOL JMS-D-300

>  <ION MODE>  (1456) 
P

>  <INCHIKEY>  (1456) 
ZIIUMKBETGSXRY-UHFFFAOYSA-N

>  <FORMULA>  (1456) 
C14H20O

>  <EXACT MASS>  (1456) 
204.15141526

>  <MW>  (1456) 
204

>  <ID>  (1456) 
JP009858

>  <CONTRIBUTOR>  (1456) 
University of Tokyo Team, {Faculty of Engineering, University of Tokyo

>  <COMMENT>  (1456) 
SMILES=CC(C)=CCC(C)(CO)c(c1)cccc1
InChI=InChI=1S/C14H20O/c1-12(2)9-10-14(3,11-15)13-7-5-4-6-8-13/h4-9,15H,10-11H2,1-3H3
computed SMILES=OCC(C=1C=CC=CC1)(C)CC=C(C)C
accession=JP009858
date=2016.01.19 (Created 2008.10.21, modified 2011.05.06)
author=KURARAY CO., LTD.
license=CC BY-NC-SA
exact mass=204.15142
ionization energy=70 eV
ion type=[M]+*
computed spectral entropy=2.6051436352573254
computed normalized entropy=0.7269791732647299
SPLASH=splash10-000i-4900000000-710397bfcb56ed24835a
submitter=submitter = University of Tokyo Team (Faculty of Engineering, University of Tokyo)
MoNA Rating=3.75

>  <NUM PEAKS>  (1456) 
36

>  <MASS SPECTRAL PEAKS>  (1456) 
27 2.6
29 5.8
31 1.4
39 0.29
41 10.3
43 26.7
44 1.5
51 0.19
53 2.4
55 2.7
56 23.2
57 0.14
65 1.7
67 1
69 7.7
70 0.48
77 6.8
78 3.1
79 2.7
91 1.4
93 8.2
103 3.9
105 6
115 0.68
116 1.9
117 30.4
118 8.5
128 0.21
129 2.1
131 8.5
134 29.4
135 99.99
136 10.1
143 2.2
173 1.9
204 1

>  <PREDICTED SPECTRUM>  (1456) 
27 18
29 2
39 47
41 176
42 16
43 159
50 17
51 81
52 58
53 109
55 138
56 0
57 122
58 42
63 26
65 109
66 30
67 145
68 61
69 147
70 185
71 25
75 9
77 242
78 94
79 214
80 45
81 103
82 9
83 24
90 3
91 278
92 115
93 203
94 63
95 21
97 31
103 71
104 13
105 212
106 49
107 179
115 88
116 18
117 464
118 220
119 82
129 35
130 17
131 100
132 17
134 410
135 999
136 352
137 38
173 29
204 126
205 26

$$$$

     RDKit          2D

 15 15  0  0  0  0  0  0  0  0999 V2000
   -1.2990    3.7500    0.0000 C   0  0  0  0  0  0  0  0  0  0  0  0
    2.5987   -3.0002    0.0000 C   0  0  0  0  0  0  0  0  0  0  0  0
   -3.8981   -0.7504    0.0000 C   0  0  0  0  0  0  0  0  0  0  0  0
    1.3000    0.7500    0.0000 C   0  0  0  0  0  0  0  0  0  0  0  0
   -1.3000    0.7500    0.0000 C   0  0  0  0  0  0  0  0  0  0  0  0
    0.0000   -1.5000    0.0000 C   0  0  0  0  0  0  0  0  0  0  0  0
    0.0000    3.0000    0.0000 C   0  0  0  0  0  0  0  0  0  0  0  0
    2.5989   -1.5002    0.0000 C   0  0  0  0  0  0  0  0  0  0  0  0
   -2.5989   -1.5002    0.0000 C   0  0  0  0  0  0  0  0  0  0  0  0
    0.0000    1.5000    0.0000 C   0  0  0  0  0  0  0  0  0  0  0  0
    1.3000   -0.7500    0.0000 C   0  0  0  0  0  0  0  0  0  0  0  0
   -1.3000   -0.7500    0.0000 C   0  0  0  0  0  0  0  0  0  0  0  0
    1.2990    3.7500    0.0000 O   0  0  0  0  0  0  0  0  0  0  0  0
    3.8981   -0.7504    0.0000 O   0  0  0  0  0  0  0  0  0  0  0  0
   -2.5987   -3.0002    0.0000 O   0  0  0  0  0  0  0  0  0  0  0  0
  7  1  1  0
  8  2  1  0
  9  3  1  0
 10  4  2  0
 10  5  1  0
 10  7  1  0
 11  4  1  0
 11  6  2  0
 11  8  1  0
 12  5  2  0
 12  6  1  0
 12  9  1  0
 13  7  2  0
 14  8  2  0
 15  9  2  0
M  END
>  <NAME>  (1457) 
1,3,5-TRIACETYLBENZENE

>  <SYNONYMS>  (1457) 


>  <SPECTRUM TYPE>  (1457) 
MS1

>  <INSTRUMENT TYPE>  (1457) 
EI-B

>  <INSTRUMENT>  (1457) 
JEOL JMS-D-300

>  <ION MODE>  (1457) 
P

>  <INCHIKEY>  (1457) 
HSOAIPRTHLEQFI-UHFFFAOYSA-N

>  <FORMULA>  (1457) 
C12H12O3

>  <EXACT MASS>  (1457) 
204.07864424399997

>  <MW>  (1457) 
204

>  <ID>  (1457) 
JP009857

>  <CONTRIBUTOR>  (1457) 
University of Tokyo Team, {Faculty of Engineering, University of Tokyo

>  <COMMENT>  (1457) 
SMILES=CC(=O)c(c1)cc(C(C)=O)cc(C(C)=O)1
InChI=InChI=1S/C12H12O3/c1-7(13)10-4-11(8(2)14)6-12(5-10)9(3)15/h4-6H,1-3H3
computed SMILES=O=C(C=1C=C(C=C(C1)C(=O)C)C(=O)C)C
accession=JP009857
date=2016.01.19 (Created 2008.10.21, modified 2011.05.06)
author=KURARAY CO., LTD.
license=CC BY-NC-SA
exact mass=204.07864
ionization energy=70 eV
ion type=[M]+*
computed spectral entropy=1.9418156885149094
computed normalized entropy=0.5959969773314636
SPLASH=splash10-000l-5910000000-931da0629dba7e732123
submitter=submitter = University of Tokyo Team (Faculty of Engineering, University of Tokyo)
MoNA Rating=3.75

>  <NUM PEAKS>  (1457) 
26

>  <MASS SPECTRAL PEAKS>  (1457) 
28 3.1
39 1
43 53.8
44 0.15
50 1.4
51 1
63 1.4
65 0.13
74 2
75 5.8
76 2.8
77 0.23
89 1.4
91 5.6
103 1.4
118 0.42
119 8.9
146 2
147 1.8
161 1.96
162 3.4
189 99.99
190 12.7
191 0.14
204 16.6
205 2.5

>  <PREDICTED SPECTRUM>  (1457) 
14 11
15 52
27 51
28 39
29 71
34 8
36 17
37 31
38 70
39 172
40 109
42 99
43 866
44 255
45 80
47 6
49 27
50 170
51 129
52 56
53 77
61 68
62 169
63 219
64 149
65 164
66 61
67 9
68 83
69 48
70 21
72 21
73 179
74 131
75 232
76 216
77 84
78 64
79 72
88 4
89 115
90 195
91 202
92 272
93 87
103 20
104 94
105 136
106 46
117 52
118 142
119 300
120 282
121 64
130 25
131 59
132 59
133 122
134 24
144 55
145 117
146 238
147 239
148 92
160 42
161 490
162 242
163 67
175 123
185 14
187 6
189 999
190 328
191 138
203 31
204 637
205 239
206 50

$$$$

     RDKit          2D

 13 12  0  0  0  0  0  0  0  0999 V2000
    3.2476    5.6250    0.0000 C   0  0  0  0  0  0  0  0  0  0  0  0
   -5.8457    7.8750    0.0000 C   0  0  0  0  0  0  0  0  0  0  0  0
   -0.6495    7.8750    0.0000 C   0  0  0  0  0  0  0  0  0  0  0  0
    1.9486    6.3750    0.0000 C   0  0  0  0  0  0  0  0  0  0  0  0
   -7.1447    5.6250    0.0000 C   0  0  0  0  0  0  0  0  0  0  0  0
   -4.5466    5.6250    0.0000 C   0  0  0  0  0  0  0  0  0  0  0  0
   -8.4437    6.3750    0.0000 C   0  0  0  0  0  0  0  0  0  0  0  0
   -3.2476    6.3750    0.0000 C   0  0  0  0  0  0  0  0  0  0  0  0
   -5.8457    6.3750    0.0000 C   0  0  0  0  0  0  0  0  0  0  0  0
   -0.6495    6.3750    0.0000 C   0  0  0  0  0  0  0  0  0  0  0  0
   -9.7428    5.6250    0.0000 Cl  0  0  0  0  0  0  0  0  0  0  0  0
    0.6495    5.6250    0.0000 O   0  0  0  0  0  0  0  0  0  0  0  0
   -1.9486    5.6250    0.0000 O   0  0  0  0  0  0  0  0  0  0  0  0
  4  1  1  0
  5  7  2  0
  8  6  1  0
  9  2  1  0
  9  5  1  0
  6  9  2  0
 10  3  1  0
 11  7  1  0
 12  4  1  0
 12 10  1  0
 13  8  1  0
 13 10  1  0
M  END
>  <NAME>  (1458) 
1-CHLORO-5-(1-ETHOXY)ETHOXY-3-METHYL-1,3-PENTADIENE

>  <SYNONYMS>  (1458) 


>  <SPECTRUM TYPE>  (1458) 
MS1

>  <INSTRUMENT TYPE>  (1458) 
EI-B

>  <INSTRUMENT>  (1458) 
JEOL JMS-D-300

>  <ION MODE>  (1458) 
P

>  <INCHIKEY>  (1458) 
XJDHKKWKOPKDMF-PDTNFJSOSA-N

>  <FORMULA>  (1458) 
C10H17ClO2

>  <EXACT MASS>  (1458) 
204.091707464

>  <MW>  (1458) 
204

>  <ID>  (1458) 
JP009856

>  <CONTRIBUTOR>  (1458) 
University of Tokyo Team, {Faculty of Engineering, University of Tokyo

>  <COMMENT>  (1458) 
SMILES=CCOC(C)OCC=C(C)C=CCl
InChI=InChI=1S/C10H17ClO2/c1-4-12-10(3)13-8-6-9(2)5-7-11/h5-7,10H,4,8H2,1-3H3/b7-5+,9-6+
computed SMILES=ClC=CC(=CCOC(OCC)C)C
ion type=[M]+*
accession=JP009856
date=2016.01.19 (Created 2008.10.21, modified 2011.05.06)
author=KURARAY CO., LTD.
license=CC BY-NC-SA
exact mass=204.09171
ionization energy=70 eV
computed spectral entropy=2.591694111577527
computed normalized entropy=0.6848742696052499
SPLASH=splash10-00r2-9200000000-62e1e257b9640a5fd9aa
submitter=submitter = University of Tokyo Team (Faculty of Engineering, University of Tokyo)
MoNA Rating=3.75

>  <NUM PEAKS>  (1458) 
44

>  <MASS SPECTRAL PEAKS>  (1458) 
27 6.5
28 1.5
29 7.3
31 0.3
36 1.1
39 5.8
41 5.3
42 0.11
43 10
44 6.5
45 99.99
46 0.28
50 1.2
51 4.9
52 1.8
53 0.55
63 1.3
65 3.5
67 2.8
69 0.14
72 3.2
73 97
74 4.9
75 0.42
77 11.7
78 1.9
79 19.7
80 0.36
81 5.6
95 2.5
96 3.7
97 1.2
115 42.7
116 7.4
117 14.4
118 0.23
123 4.6
125 13.7
126 1.1
143 0.14
145 1.1
158 1.4
160 3.2
162 1

>  <PREDICTED SPECTRUM>  (1458) 
14 5
15 7
19 14
25 2
26 51
27 218
28 56
29 240
31 109
36 27
37 13
38 38
39 273
40 74
41 301
42 5
43 451
44 277
45 999
46 136
47 85
49 13
50 49
51 135
52 94
53 204
54 34
55 19
59 96
61 27
63 54
65 108
66 11
67 217
68 20
69 144
70 22
71 18
72 174
73 967
74 142
75 8
77 110
78 65
79 333
80 173
81 285
82 99
83 103
85 7
86 22
87 38
95 140
96 84
97 119
98 10
101 41
113 78
114 5
115 526
116 344
117 260
118 27
119 7
125 250
126 14
131 0
133 25
145 109
159 115
160 170
161 87
189 21

$$$$

     RDKit          2D

 12 12  0  0  0  0  0  0  0  0999 V2000
   -0.6150   -0.0187    0.0000 C   0  0  0  0  0  0  0  0  0  0  0  0
    0.6840   -0.7687    0.0000 C   0  0  0  0  0  0  0  0  0  0  0  0
    0.6850    2.2330    0.0000 C   0  0  0  0  0  0  0  0  0  0  0  0
   -0.6145    1.4821    0.0000 C   0  0  0  0  0  0  0  0  0  0  0  0
    1.9835   -0.0179    0.0000 C   0  0  0  0  0  0  0  0  0  0  0  0
    1.9840    1.4830    0.0000 C   0  0  0  0  0  0  0  0  0  0  0  0
   -3.2126    1.4821    0.0000 C   0  0  0  0  0  0  0  0  0  0  0  0
    3.2826   -0.7679    0.0000 Cl  0  0  0  0  0  0  0  0  0  0  0  0
    3.2832    2.2328    0.0000 Cl  0  0  0  0  0  0  0  0  0  0  0  0
   -4.5117    2.2321    0.0000 N   0  0  0  0  0  0  0  0  0  0  0  0
   -1.9136    2.2321    0.0000 N   0  0  0  0  0  0  0  0  0  0  0  0
   -3.2126   -0.0179    0.0000 O   0  0  0  0  0  0  0  0  0  0  0  0
  2  1  2  0
  4  1  1  0
  4  3  2  0
  5  2  1  0
  6  3  1  0
  6  5  2  0
  8  5  1  0
  9  6  1  0
 10  7  2  0
 11  4  1  0
 11  7  1  0
 12  7  1  0
M  END
>  <NAME>  (1459) 
1-(3,4-DICHLOROPHENYL)UREA

>  <SYNONYMS>  (1459) 


>  <SPECTRUM TYPE>  (1459) 
MS1

>  <INSTRUMENT TYPE>  (1459) 
EI-B

>  <INSTRUMENT>  (1459) 
JEOL JMS-D-300

>  <ION MODE>  (1459) 
P

>  <INCHIKEY>  (1459) 
CYESCLHCWJKRKM-UHFFFAOYSA-N

>  <FORMULA>  (1459) 
C7H6Cl2N2O

>  <EXACT MASS>  (1459) 
203.985718172

>  <MW>  (1459) 
204

>  <ID>  (1459) 
JP009855

>  <CONTRIBUTOR>  (1459) 
University of Tokyo Team, {Faculty of Engineering, University of Tokyo

>  <COMMENT>  (1459) 
SMILES=NC(=O)Nc(c1)cc(Cl)c(Cl)c1
InChI=InChI=1S/C7H6Cl2N2O/c8-5-2-1-4(3-6(5)9)11-7(10)12/h1-3H,(H3,10,11,12)
computed SMILES=ClC1=CC=C(C=C1Cl)NC(=N)O
accession=JP009855
date=2016.01.19 (Created 2008.10.21, modified 2011.05.06)
author=KURARAY CO., LTD.
license=CC BY-NC-SA
exact mass=203.98572
ionization energy=70 eV
ion type=[M]+*
computed spectral entropy=2.5729450205923245
computed normalized entropy=0.6799196841328011
SPLASH=splash10-03di-2900000000-91d498a104c598a75303
submitter=submitter = University of Tokyo Team (Faculty of Engineering, University of Tokyo)
MoNA Rating=3.75

>  <NUM PEAKS>  (1459) 
44

>  <MASS SPECTRAL PEAKS>  (1459) 
28 2
43 1.6
44 8.1
52 0.13
61 1.6
62 4.1
63 7.1
64 0.18
72 1.3
73 4.4
74 1.8
75 0.22
88 1.4
89 1.6
90 9.2
91 0.25
97 2.1
98 1.8
99 10
100 0.13
101 3.5
109 1.5
124 3.9
125 0.6
126 10.2
127 2.8
128 3.2
133 0.49
134 3.9
135 3.4
136 2.5
160 0.21
161 99.99
162 64.5
163 4.6
164 1.04
165 8.3
187 3.5
189 2.3
204 2.36
205 2.5
206 15
207 1.3
208 2.6

>  <PREDICTED SPECTRUM>  (1459) 
16 0
17 24
18 15
26 7
27 21
28 22
29 41
33 23
34 29
35 75
36 149
37 194
38 236
39 275
40 123
41 174
42 184
43 304
44 404
45 292
46 110
47 206
48 133
49 229
50 401
51 330
52 293
53 133
54 19
57 39
58 29
59 42
60 164
61 287
62 440
63 596
64 361
65 240
66 122
67 13
68 25
69 41
70 10
71 55
72 196
73 317
74 440
75 448
76 313
77 151
78 145
79 68
80 82
81 40
82 30
83 145
84 207
85 177
86 182
87 236
88 358
89 257
90 410
91 140
92 68
93 21
96 93
97 294
98 135
99 254
100 205
101 80
102 17
105 116
106 102
107 111
108 110
109 390
110 127
111 188
112 67
113 86
114 136
115 5
116 65
117 68
118 21
121 19
122 3
123 85
124 446
125 334
126 301
127 121
128 93
130 7
131 29
132 21
133 397
134 221
135 333
136 84
137 8
138 43
139 149
140 142
141 235
142 66
143 62
144 0
145 387
146 0
147 29
148 35
151 39
152 131
153 65
154 160
155 13
156 114
157 7
158 79
159 387
160 427
161 663
162 416
163 417
164 117
165 101
168 69
169 99
170 50
171 86
172 34
173 76
175 136
176 29
177 159
178 55
179 60
186 130
187 387
188 249
189 418
190 171
191 224
192 40
203 212
204 999
205 336
206 767
207 247
208 292
209 80

$$$$

     RDKit          2D

 15 15  0  0  0  0  0  0  0  0999 V2000
    5.5216    4.2579    0.0000 C   0  0  0  0  0  0  0  0  0  0  0  0
    4.2226    5.0079    0.0000 C   0  0  0  0  0  0  0  0  0  0  0  0
   -2.2726    4.2579    0.0000 C   0  0  0  0  0  0  0  0  0  0  0  0
   -0.9736    5.0079    0.0000 C   0  0  0  0  0  0  0  0  0  0  0  0
   -8.7678    6.5079    0.0000 C   0  0  0  0  0  0  0  0  0  0  0  0
   -3.5716    5.0079    0.0000 C   0  0  0  0  0  0  0  0  0  0  0  0
   -8.7683    5.0071    0.0000 C   0  0  0  0  0  0  0  0  0  0  0  0
   -7.4683    7.2587    0.0000 C   0  0  0  0  0  0  0  0  0  0  0  0
    0.3255    4.2579    0.0000 C   0  0  0  0  0  0  0  0  0  0  0  0
   -4.8707    4.2579    0.0000 C   0  0  0  0  0  0  0  0  0  0  0  0
   -7.4692    4.2571    0.0000 C   0  0  0  0  0  0  0  0  0  0  0  0
   -6.1692    6.5087    0.0000 C   0  0  0  0  0  0  0  0  0  0  0  0
    1.6245    5.0079    0.0000 C   0  0  0  0  0  0  0  0  0  0  0  0
   -6.1697    5.0079    0.0000 C   0  0  0  0  0  0  0  0  0  0  0  0
    2.9236    4.2579    0.0000 O   0  0  0  0  0  0  0  0  0  0  0  0
  2  1  2  0
  4  3  1  0
  6  3  1  0
  7  5  2  0
  8  5  1  0
  4  9  2  0
 10  6  1  0
 11  7  1  0
 12  8  2  0
 13  9  1  0
 14 10  1  0
 14 11  2  0
 14 12  1  0
 15  2  1  0
 15 13  1  0
M  END
>  <NAME>  (1460) 
6-PHENYL-2-HEXENYL VINYL ETHER

>  <SYNONYMS>  (1460) 
6-PHENYL-1-ETHENOXY-2-HEXENE

>  <SPECTRUM TYPE>  (1460) 
MS1

>  <INSTRUMENT TYPE>  (1460) 
EI-B

>  <INSTRUMENT>  (1460) 
JEOL JMS-D-300

>  <ION MODE>  (1460) 
P

>  <INCHIKEY>  (1460) 
LQIXWNQKGOAZAI-RUDMXATFSA-N

>  <FORMULA>  (1460) 
C14H18O

>  <EXACT MASS>  (1460) 
202.135765196

>  <MW>  (1460) 
202

>  <ID>  (1460) 
JP009854

>  <CONTRIBUTOR>  (1460) 
University of Tokyo Team, {Faculty of Engineering, University of Tokyo

>  <COMMENT>  (1460) 
SMILES=C=COCC=CCCCc(c1)cccc1
InChI=InChI=1S/C14H18O/c1-2-15-13-9-4-3-6-10-14-11-7-5-8-12-14/h2,4-5,7-9,11-12H,1,3,6,10,13H2/b9-4+
computed SMILES=O(C=C)CC=CCCCC=1C=CC=CC1
accession=JP009854
date=2016.01.19 (Created 2008.10.21, modified 2011.05.06)
author=KURARAY CO., LTD.
license=CC BY-NC-SA
exact mass=202.13577
ionization energy=70 eV
ion type=[M]+*
computed spectral entropy=1.9058807785574121
computed normalized entropy=0.6472814658556653
SPLASH=splash10-052f-9400000000-2a0e4c54e4ee89bee850
submitter=submitter = University of Tokyo Team (Faculty of Engineering, University of Tokyo)
MoNA Rating=3.75

>  <NUM PEAKS>  (1460) 
19

>  <MASS SPECTRAL PEAKS>  (1460) 
29 1.6
41 1.1
55 3.3
57 0.16
65 2.3
67 5.9
77 3.1
79 0.22
81 18.6
91 99.99
92 8.8
101 0.14
105 3.4
115 5.2
117 10.9
129 0.23
158 13.8
159 36.9
160 4.7

>  <PREDICTED SPECTRUM>  (1460) 
27 60
29 19
39 121
40 18
41 224
42 4
43 79
44 24
45 30
50 31
51 124
52 81
53 146
54 158
55 137
56 3
57 29
62 7
63 85
64 26
65 249
66 75
67 176
68 86
69 189
70 26
77 185
78 162
79 168
80 11
81 177
83 88
89 34
90 30
91 999
92 427
93 49
95 20
97 7
103 110
104 70
105 280
106 3
110 27
111 12
112 1
115 145
116 46
117 260
118 59
120 5
128 84
129 133
130 68
131 161
132 109
133 26
141 10
142 86
143 87
145 153
146 49
157 92
158 288
159 269
160 125
202 89
203 15

$$$$

     RDKit          2D

 14 13  0  0  0  0  0  0  0  0999 V2000
   -8.7685    6.1875    0.0000 C   0  0  0  0  0  0  0  0  0  0  0  0
   -7.4695    3.9375    0.0000 C   0  0  0  0  0  0  0  0  0  0  0  0
   -2.2733    3.9375    0.0000 C   0  0  0  0  0  0  0  0  0  0  0  0
    4.2219    6.1875    0.0000 C   0  0  0  0  0  0  0  0  0  0  0  0
   -4.8714    5.4375    0.0000 C   0  0  0  0  0  0  0  0  0  0  0  0
    0.3248    5.4375    0.0000 C   0  0  0  0  0  0  0  0  0  0  0  0
   -6.1704    6.1875    0.0000 C   0  0  0  0  0  0  0  0  0  0  0  0
   -3.5724    6.1875    0.0000 C   0  0  0  0  0  0  0  0  0  0  0  0
   -0.9743    6.1875    0.0000 C   0  0  0  0  0  0  0  0  0  0  0  0
    1.6238    6.1875    0.0000 C   0  0  0  0  0  0  0  0  0  0  0  0
   -7.4695    5.4375    0.0000 C   0  0  0  0  0  0  0  0  0  0  0  0
   -2.2733    5.4375    0.0000 C   0  0  0  0  0  0  0  0  0  0  0  0
    2.9228    5.4375    0.0000 C   0  0  0  0  0  0  0  0  0  0  0  0
    2.9228    3.9375    0.0000 O   0  0  0  0  0  0  0  0  0  0  0  0
  7  5  1  0
  8  5  1  0
  9  6  1  0
 10  6  1  0
 11  1  1  0
 11  2  1  0
 11  7  1  0
 12  3  1  0
 12  8  1  0
 12  9  1  0
 13  4  1  0
 13 10  1  0
 14 13  1  0
M  END
>  <NAME>  (1461) 
6,10-DIMETHYL-2-UNDECANOL

>  <SYNONYMS>  (1461) 


>  <SPECTRUM TYPE>  (1461) 
MS1

>  <INSTRUMENT TYPE>  (1461) 
EI-B

>  <INSTRUMENT>  (1461) 
JEOL JMS-D-300

>  <ION MODE>  (1461) 
P

>  <INCHIKEY>  (1461) 
GNJORAZPXCKMSY-UHFFFAOYSA-N

>  <FORMULA>  (1461) 
C13H28O

>  <EXACT MASS>  (1461) 
200.21401551600002

>  <MW>  (1461) 
200

>  <ID>  (1461) 
JP009853

>  <CONTRIBUTOR>  (1461) 
University of Tokyo Team, {Faculty of Engineering, University of Tokyo

>  <COMMENT>  (1461) 
SMILES=CC(C)CCCC(C)CCCC(C)O
InChI=InChI=1S/C13H28O/c1-11(2)7-5-8-12(3)9-6-10-13(4)14/h11-14H,5-10H2,1-4H3
computed SMILES=OC(C)CCCC(C)CCCC(C)C
accession=JP009853
date=2016.01.19 (Created 2008.10.21, modified 2011.05.06)
author=KURARAY CO., LTD.
license=CC BY-NC-SA
exact mass=200.21402
ionization energy=70 eV
ion type=[M]+*
computed spectral entropy=2.8839216404472636
computed normalized entropy=0.7871906955609632
SPLASH=splash10-0592-9000000000-65e4a885e6f6bf9f1769
submitter=submitter = University of Tokyo Team (Faculty of Engineering, University of Tokyo)
MoNA Rating=3.75

>  <NUM PEAKS>  (1461) 
39

>  <MASS SPECTRAL PEAKS>  (1461) 
27 7
29 12.8
39 4.7
41 2.72
42 10.4
43 47.4
44 6.1
45 99.99
46 2.3
55 53.3
56 45.1
57 6.19
58 5
59 2.6
67 2.5
68 0.33
69 43.2
70 38.9
71 38.9
72 0.2
81 3.3
83 18.7
84 13.4
85 0.95
87 2.2
95 1.4
96 6.2
97 3.58
98 8.2
99 1.6
111 14.3
112 1.85
113 6.7
125 2.8
126 14
127 0.3
140 2.5
182 1.9
185 1

>  <PREDICTED SPECTRUM>  (1461) 
19 15
27 222
28 102
29 317
31 168
32 17
38 45
39 283
40 116
41 741
42 406
43 814
44 118
45 720
46 98
47 32
51 54
52 37
53 139
54 67
55 715
56 728
57 999
58 287
59 143
65 23
66 16
67 140
68 89
69 715
70 624
71 755
72 87
73 104
81 148
82 49
83 424
84 227
85 34
87 55
95 24
96 136
97 514
98 108
99 206
111 414
112 341
113 185
125 92
126 284
185 60

$$$$

     RDKit          2D

 13 13  0  0  0  0  0  0  0  0999 V2000
    2.5989   -0.3984    0.0000 C   0  0  0  0  0  0  0  0  0  0  0  0
   -6.4962   -2.6494    0.0000 C   0  0  0  0  0  0  0  0  0  0  0  0
    1.2998    0.3514    0.0000 C   0  0  0  0  0  0  0  0  0  0  0  0
   -3.8972   -2.6492    0.0000 C   0  0  0  0  0  0  0  0  0  0  0  0
   -5.1972   -0.3992    0.0000 C   0  0  0  0  0  0  0  0  0  0  0  0
   -2.5972   -1.8992    0.0000 C   0  0  0  0  0  0  0  0  0  0  0  0
   -3.8972    0.3508    0.0000 C   0  0  0  0  0  0  0  0  0  0  0  0
   -5.1972   -1.8992    0.0000 C   0  0  0  0  0  0  0  0  0  0  0  0
   -2.5972   -0.3992    0.0000 C   0  0  0  0  0  0  0  0  0  0  0  0
    0.0008   -0.3988    0.0000 N   0  0  0  0  0  0  0  0  0  0  0  0
   -0.3343    1.5002    0.0000 O   0  0  0  0  0  0  0  0  0  0  0  0
   -2.2627    1.4999    0.0000 O   0  0  0  0  0  0  0  0  0  0  0  0
   -1.2983    0.3510    0.0000 S   0  0  0  0  0  0  0  0  0  0  0  0
  3  1  1  0
  6  4  2  0
  7  5  1  0
  8  2  1  0
  8  4  1  0
  8  5  2  0
  9  6  1  0
  9  7  2  0
 10  3  1  0
 13  9  1  0
 13 10  1  0
 13 11  2  0
 13 12  2  0
M  END
>  <NAME>  (1462) 
N-ETHYL-PARA-TOLUENESULFONAMIDE

>  <SYNONYMS>  (1462) 


>  <SPECTRUM TYPE>  (1462) 
MS1

>  <INSTRUMENT TYPE>  (1462) 
EI-B

>  <INSTRUMENT>  (1462) 
JEOL JMS-D-300

>  <ION MODE>  (1462) 
P

>  <INCHIKEY>  (1462) 
OHPZPBNDOVQJMH-UHFFFAOYSA-N

>  <FORMULA>  (1462) 
C9H13NO2S

>  <EXACT MASS>  (1462) 
199.066699656

>  <MW>  (1462) 
199

>  <ID>  (1462) 
JP009852

>  <CONTRIBUTOR>  (1462) 
University of Tokyo Team, {Faculty of Engineering, University of Tokyo

>  <COMMENT>  (1462) 
SMILES=CCNS(=O)(=O)c(c1)ccc(C)c1
InChI=InChI=1S/C9H13NO2S/c1-3-10-13(11,12)9-6-4-8(2)5-7-9/h4-7,10H,3H2,1-2H3
computed SMILES=O=S(=O)(NCC)C1=CC=C(C=C1)C
accession=JP009852
date=2016.01.19 (Created 2008.10.21, modified 2011.05.06)
author=KURARAY CO., LTD.
license=CC BY-NC-SA
exact mass=199.0667
ionization energy=70 eV
ion type=[M]+*
computed spectral entropy=2.375817404583587
computed normalized entropy=0.738089175801265
SPLASH=splash10-0006-9200000000-11d8300a231f9d807dc8
submitter=submitter = University of Tokyo Team (Faculty of Engineering, University of Tokyo)
MoNA Rating=3.75

>  <NUM PEAKS>  (1462) 
25

>  <MASS SPECTRAL PEAKS>  (1462) 
27 2.8
28 3.9
29 1.7
30 0.2
39 16.3
41 6.3
42 2.3
43 0.52
44 29.5
51 6.4
59 3.6
63 0.94
64 4.2
65 33.8
77 5.2
89 0.88
90 19.1
91 99.99
92 12.5
106 0.36
120 5.9
136 2.8
155 35.5
184 1.53
199 14.1

>  <PREDICTED SPECTRUM>  (1462) 
14 6
15 53
16 1
18 25
26 32
27 119
28 114
29 88
30 29
32 10
34 2
36 7
37 10
38 64
39 266
40 114
41 199
42 147
44 259
45 130
46 4
48 11
49 13
50 133
51 209
52 109
53 77
54 3
56 13
57 75
58 4
62 116
63 257
64 130
65 480
66 116
67 17
68 25
70 9
74 2
75 2
76 46
77 185
78 72
79 105
89 168
90 154
91 999
92 331
93 39
107 2
119 29
120 74
135 49
139 191
155 796
156 241
157 182
184 688
185 238
186 114
199 334
200 100
201 44

$$$$

     RDKit          2D

 15 16  0  0  0  0  0  0  0  0999 V2000
    3.8971    1.0700    0.0000 C   0  0  0  0  0  0  0  0  0  0  0  0
   -5.1962    4.8200    0.0000 C   0  0  0  0  0  0  0  0  0  0  0  0
    3.8976    2.5708    0.0000 C   0  0  0  0  0  0  0  0  0  0  0  0
    2.5976    0.3192    0.0000 C   0  0  0  0  0  0  0  0  0  0  0  0
   -5.1966    3.3192    0.0000 C   0  0  0  0  0  0  0  0  0  0  0  0
   -3.8966    5.5708    0.0000 C   0  0  0  0  0  0  0  0  0  0  0  0
    2.5986    3.3208    0.0000 C   0  0  0  0  0  0  0  0  0  0  0  0
    1.2986    1.0692    0.0000 C   0  0  0  0  0  0  0  0  0  0  0  0
   -3.8976    2.5692    0.0000 C   0  0  0  0  0  0  0  0  0  0  0  0
   -2.5976    4.8208    0.0000 C   0  0  0  0  0  0  0  0  0  0  0  0
    0.0000    3.3200    0.0000 C   0  0  0  0  0  0  0  0  0  0  0  0
    1.2990    2.5700    0.0000 C   0  0  0  0  0  0  0  0  0  0  0  0
   -2.5981    3.3200    0.0000 C   0  0  0  0  0  0  0  0  0  0  0  0
   -1.2990    2.5700    0.0000 C   0  0  0  0  0  0  0  0  0  0  0  0
   -1.2990    1.0700    0.0000 O   0  0  0  0  0  0  0  0  0  0  0  0
  3  1  2  0
  4  1  1  0
  5  2  2  0
  6  2  1  0
  7  3  1  0
  8  4  2  0
  9  5  1  0
 10  6  2  0
 12  7  2  0
 12  8  1  0
 12 11  1  0
 13  9  2  0
 13 10  1  0
 14 11  1  0
 14 13  1  0
 15 14  1  0
M  END
>  <NAME>  (1463) 
1,2-DIPHENYLETHANOL

>  <SYNONYMS>  (1463) 


>  <SPECTRUM TYPE>  (1463) 
MS1

>  <INSTRUMENT TYPE>  (1463) 
EI-B

>  <INSTRUMENT>  (1463) 
JEOL JMS-D-300

>  <ION MODE>  (1463) 
P

>  <INCHIKEY>  (1463) 
GBGXVCNOKWAMIP-UHFFFAOYSA-N

>  <FORMULA>  (1463) 
C14H14O

>  <EXACT MASS>  (1463) 
198.104465068

>  <MW>  (1463) 
198

>  <ID>  (1463) 
JP009851

>  <CONTRIBUTOR>  (1463) 
University of Tokyo Team, {Faculty of Engineering, University of Tokyo

>  <COMMENT>  (1463) 
SMILES=OC(Cc(c2)cccc2)c(c1)cccc1
InChI=InChI=1S/C14H14O/c15-14(13-9-5-2-6-10-13)11-12-7-3-1-4-8-12/h1-10,14-15H,11H2
computed SMILES=OC(C=1C=CC=CC1)CC=2C=CC=CC2
ionization energy=70 eV
accession=JP009851
date=2016.01.19 (Created 2008.10.21, modified 2011.05.06)
author=KURARAY CO., LTD.
license=CC BY-NC-SA
exact mass=198.10447
ion type=[M]+*
computed spectral entropy=2.750473176176546
computed normalized entropy=0.7143812291650617
SPLASH=splash10-0006-9200000000-f53c4d95c156dc60c84d
submitter=submitter = University of Tokyo Team (Faculty of Engineering, University of Tokyo)
MoNA Rating=3.75

>  <NUM PEAKS>  (1463) 
47

>  <MASS SPECTRAL PEAKS>  (1463) 
27 1.9
28 17.2
29 1.6
38 0.16
39 3.9
40 5
43 3.3
44 0.33
45 3.6
46 1.4
50 1.7
51 0.71
52 1.4
62 1.7
63 2.6
65 0.78
70 2.8
73 2.9
74 1.2
75 0.16
76 1.4
77 34.4
78 4.7
79 5.16
80 3.4
87 1.9
88 1.6
89 0.43
90 1.4
91 27.3
92 99.99
93 0.79
101 2.2
105 12.1
106 2.9
107 8.16
108 7.3
119 2.3
120 1.4
151 0.14
152 2.3
165 5.6
166 2.2
178 0.81
179 6.2
180 8.8
181 2.2

>  <PREDICTED SPECTRUM>  (1463) 
25 16
26 84
27 182
28 116
29 148
30 17
31 102
32 7
37 47
38 93
39 254
40 51
41 162
43 156
44 60
45 29
47 5
49 63
50 225
51 435
52 240
53 156
54 52
55 49
56 42
57 154
61 53
62 104
63 185
64 63
65 300
66 96
69 64
70 142
71 170
73 73
74 94
75 184
76 119
77 658
78 396
79 796
80 346
86 14
89 198
90 116
91 665
92 528
93 386
94 69
103 179
104 20
105 466
106 117
107 999
108 537
109 32
115 155
119 118
120 164
121 117
122 50
128 156
129 8
161 4
165 151
166 13
177 80
178 57
179 67
180 87
181 65
195 22
197 6
198 218
199 56

$$$$

     RDKit          2D

 13 13  0  0  0  0  0  0  0  0999 V2000
   -5.5207    3.1321    0.0000 C   0  0  0  0  0  0  0  0  0  0  0  0
    3.5726    0.8821    0.0000 C   0  0  0  0  0  0  0  0  0  0  0  0
    3.5731    2.3829    0.0000 C   0  0  0  0  0  0  0  0  0  0  0  0
    2.2731    0.1313    0.0000 C   0  0  0  0  0  0  0  0  0  0  0  0
    2.2740    3.1329    0.0000 C   0  0  0  0  0  0  0  0  0  0  0  0
    0.9740    0.8813    0.0000 C   0  0  0  0  0  0  0  0  0  0  0  0
   -0.3245    3.1321    0.0000 C   0  0  0  0  0  0  0  0  0  0  0  0
    0.9745    2.3821    0.0000 C   0  0  0  0  0  0  0  0  0  0  0  0
   -1.6236    2.3821    0.0000 C   0  0  0  0  0  0  0  0  0  0  0  0
   -2.9226    3.1321    0.0000 C   0  0  0  0  0  0  0  0  0  0  0  0
   -1.6236    0.8821    0.0000 Cl  0  0  0  0  0  0  0  0  0  0  0  0
   -2.9226    4.6321    0.0000 O   0  0  0  0  0  0  0  0  0  0  0  0
   -4.2216    2.3821    0.0000 O   0  0  0  0  0  0  0  0  0  0  0  0
  3  2  2  0
  4  2  1  0
  5  3  1  0
  6  4  2  0
  8  5  2  0
  8  6  1  0
  8  7  1  0
  9  7  1  0
 10  9  1  0
 11  9  1  0
 12 10  2  0
 13  1  1  0
 13 10  1  0
M  END
>  <NAME>  (1464) 
METHYL 2-CHLORO-3-PHENYLPROPANOATE

>  <SYNONYMS>  (1464) 
METHYL 2-CHLORO-3-PHENYLPROPIONATE

>  <SPECTRUM TYPE>  (1464) 
MS1

>  <INSTRUMENT TYPE>  (1464) 
EI-B

>  <INSTRUMENT>  (1464) 
JEOL JMS-D-300

>  <ION MODE>  (1464) 
P

>  <INCHIKEY>  (1464) 
DWKOUAHXOPJAHG-UHFFFAOYSA-N

>  <FORMULA>  (1464) 
C10H11ClO2

>  <EXACT MASS>  (1464) 
198.044757272

>  <MW>  (1464) 
198

>  <ID>  (1464) 
JP009850

>  <CONTRIBUTOR>  (1464) 
University of Tokyo Team, {Faculty of Engineering, University of Tokyo

>  <COMMENT>  (1464) 
SMILES=COC(=O)C(Cl)Cc(c1)cccc1
InChI=InChI=1S/C10H11ClO2/c1-13-10(12)9(11)7-8-5-3-2-4-6-8/h2-6,9H,7H2,1H3
computed SMILES=O=C(OC)C(Cl)CC=1C=CC=CC1
accession=JP009850
author=KURARAY CO., LTD.
date=2016.01.19 (Created 2008.10.21, modified 2011.05.06)
license=CC BY-NC-SA
exact mass=198.04476
ionization energy=70 eV
ion type=[M]+*
computed spectral entropy=2.6503964741472954
computed normalized entropy=0.7003868015469925
SPLASH=splash10-03dl-7900000000-b597ba3dd5e9ac796e72
submitter=submitter = University of Tokyo Team (Faculty of Engineering, University of Tokyo)
MoNA Rating=3.75

>  <NUM PEAKS>  (1464) 
44

>  <MASS SPECTRAL PEAKS>  (1464) 
27 3
29 1.3
36 1.3
38 0.1
39 4.9
41 1.3
50 5.1
51 1.51
52 3
55 1.3
59 4.9
62 0.11
63 3.5
65 7.8
74 1.6
75 0.24
76 2.4
77 18.8
78 6.9
79 0.1
89 1.7
91 99.99
92 8.9
101 0.12
102 4.7
103 33.6
104 7.3
105 0.14
117 1.9
121 2.1
130 1.3
131 8.11
132 9.5
138 1.5
139 11
140 0.13
141 3.5
144 1.1
147 1.9
161 0.93
162 65.5
163 53.5
164 5.8
167 1.7

>  <PREDICTED SPECTRUM>  (1464) 
15 111
26 27
27 60
28 18
36 48
38 9
39 185
41 89
42 6
43 45
44 9
45 3
50 123
51 263
52 63
53 65
55 87
57 76
59 257
62 73
63 163
64 66
65 358
66 28
74 26
75 83
76 74
77 246
78 174
79 86
83 87
88 102
89 173
90 89
91 999
92 359
101 17
102 130
103 420
104 270
105 77
106 76
107 81
121 196
131 376
132 180
133 71
134 42
138 115
139 356
140 199
141 156
162 916
163 544
164 257
198 105
199 11
200 27

$$$$

     RDKit          2D

 11 10  0  0  0  0  0  0  0  0999 V2000
   -3.2476    1.8750    0.0000 C   0  0  0  0  0  0  0  0  0  0  0  0
    1.9486    3.3750    0.0000 C   0  0  0  0  0  0  0  0  0  0  0  0
    0.6495    1.1250    0.0000 C   0  0  0  0  0  0  0  0  0  0  0  0
   -4.5466    4.1250    0.0000 C   0  0  0  0  0  0  0  0  0  0  0  0
   -3.2476    3.3750    0.0000 C   0  0  0  0  0  0  0  0  0  0  0  0
   -1.9486    4.1250    0.0000 C   0  0  0  0  0  0  0  0  0  0  0  0
   -0.6495    3.3750    0.0000 C   0  0  0  0  0  0  0  0  0  0  0  0
   -5.8457    3.3750    0.0000 Cl  0  0  0  0  0  0  0  0  0  0  0  0
   -1.9486    5.6250    0.0000 Cl  0  0  0  0  0  0  0  0  0  0  0  0
    0.6495    4.1250    0.0000 O   0  0  0  0  0  0  0  0  0  0  0  0
   -0.6495    1.8750    0.0000 O   0  0  0  0  0  0  0  0  0  0  0  0
  5  1  2  0
  5  4  1  0
  6  5  1  0
  7  6  1  0
  8  4  1  0
  9  6  1  0
 10  2  1  0
 10  7  1  0
 11  3  1  0
 11  7  1  0
M  END
>  <NAME>  (1465) 
1,1-DIMETHOXY-2,4-DICHLORO-3-METHYLENEBUTANE

>  <SYNONYMS>  (1465) 
2-CHLORO-3-CHLOROMETHYL-3-BUTENAL DIMETHYLACETAL

>  <SPECTRUM TYPE>  (1465) 
MS1

>  <INSTRUMENT TYPE>  (1465) 
EI-B

>  <INSTRUMENT>  (1465) 
JEOL JMS-D-300

>  <ION MODE>  (1465) 
P

>  <INCHIKEY>  (1465) 
XCKYPAWKCCJSFQ-UHFFFAOYSA-N

>  <FORMULA>  (1465) 
C7H12Cl2O2

>  <EXACT MASS>  (1465) 
198.021434984

>  <MW>  (1465) 
198

>  <ID>  (1465) 
JP009849

>  <CONTRIBUTOR>  (1465) 
University of Tokyo Team, {Faculty of Engineering, University of Tokyo

>  <COMMENT>  (1465) 
SMILES=COC(OC)C(Cl)C(=C)CCl
InChI=InChI=1S/C7H12Cl2O2/c1-5(4-8)6(9)7(10-2)11-3/h6-7H,1,4H2,2-3H3
computed SMILES=ClCC(=C)C(Cl)C(OC)OC
accession=JP009849
date=2016.01.19 (Created 2008.10.21, modified 2011.05.06)
author=KURARAY CO., LTD.
license=CC BY-NC-SA
exact mass=198.02144
ionization energy=70 eV
ion type=[M]+*
computed spectral entropy=1.9357077476695834
computed normalized entropy=0.5585271936346505
SPLASH=splash10-004i-9100000000-a726a5af4b32caf9b779
submitter=submitter = University of Tokyo Team (Faculty of Engineering, University of Tokyo)
MoNA Rating=3.75

>  <NUM PEAKS>  (1465) 
32

>  <MASS SPECTRAL PEAKS>  (1465) 
27 3.7
29 2.7
31 5.6
41 0.45
42 2.5
43 1.8
45 2.4
47 1.51
49 1.4
50 1
51 4
53 0.74
65 2.1
67 2.3
73 2.6
75 99.99
76 3.6
77 1.1
79 1
81 0.13
83 1.3
87 1.3
89 2.7
92 0.18
95 1.4
96 1.3
131 2.9
132 0.1
133 1
163 1.2
167 7.9
169 4.9

>  <PREDICTED SPECTRUM>  (1465) 
14 16
15 42
25 16
26 31
27 119
28 4
29 191
30 40
31 150
32 32
33 22
35 8
36 98
37 13
38 45
39 101
40 29
41 222
42 19
43 157
44 27
45 200
46 11
47 263
48 20
49 112
50 70
51 57
53 67
57 91
58 9
59 105
60 25
62 1
63 96
69 7
71 77
73 55
75 999
76 285
77 92
79 85
81 44
83 100
85 36
87 39
88 25
89 105
91 71
92 7
97 16
103 12
131 52
133 17
135 5
167 204
169 244
170 51
171 95

$$$$

     RDKit          2D

 14 13  0  0  0  0  0  0  0  0999 V2000
   -8.7685    6.1875    0.0000 C   0  0  0  0  0  0  0  0  0  0  0  0
   -7.4695    3.9375    0.0000 C   0  0  0  0  0  0  0  0  0  0  0  0
   -2.2733    3.9375    0.0000 C   0  0  0  0  0  0  0  0  0  0  0  0
    4.2219    6.1875    0.0000 C   0  0  0  0  0  0  0  0  0  0  0  0
   -4.8714    5.4375    0.0000 C   0  0  0  0  0  0  0  0  0  0  0  0
   -6.1704    6.1875    0.0000 C   0  0  0  0  0  0  0  0  0  0  0  0
   -3.5724    6.1875    0.0000 C   0  0  0  0  0  0  0  0  0  0  0  0
   -0.9743    6.1875    0.0000 C   0  0  0  0  0  0  0  0  0  0  0  0
    0.3248    5.4375    0.0000 C   0  0  0  0  0  0  0  0  0  0  0  0
   -7.4695    5.4375    0.0000 C   0  0  0  0  0  0  0  0  0  0  0  0
   -2.2733    5.4375    0.0000 C   0  0  0  0  0  0  0  0  0  0  0  0
    2.9228    5.4375    0.0000 C   0  0  0  0  0  0  0  0  0  0  0  0
    2.9228    3.9375    0.0000 O   0  0  0  0  0  0  0  0  0  0  0  0
    1.6238    6.1875    0.0000 O   0  0  0  0  0  0  0  0  0  0  0  0
  6  5  1  0
  7  5  1  0
  9  8  1  0
 10  1  1  0
 10  2  1  0
 10  6  2  0
 11  3  1  0
 11  7  1  0
  8 11  2  0
 12  4  1  0
 13 12  2  0
 14  9  1  0
 14 12  1  0
M  END
>  <NAME>  (1466) 
GERANYL ACETATE

>  <SYNONYMS>  (1466) 
3,7-DIMETHYL-2,6-OCTADIENYL ACETATE

>  <SPECTRUM TYPE>  (1466) 
MS1

>  <INSTRUMENT TYPE>  (1466) 
EI-B

>  <INSTRUMENT>  (1466) 
JEOL JMS-D-300

>  <ION MODE>  (1466) 
P

>  <INCHIKEY>  (1466) 
HIGQPQRQIQDZMP-DHZHZOJOSA-N

>  <FORMULA>  (1466) 
C12H20O2

>  <EXACT MASS>  (1466) 
196.14632988

>  <MW>  (1466) 
196

>  <ID>  (1466) 
JP009848

>  <CONTRIBUTOR>  (1466) 
University of Tokyo Team, {Faculty of Engineering, University of Tokyo

>  <COMMENT>  (1466) 
SMILES=CC(C)=CCCC(C)=CCOC(C)=O
InChI=InChI=1S/C12H20O2/c1-10(2)6-5-7-11(3)8-9-14-12(4)13/h6,8H,5,7,9H2,1-4H3/b11-8+
computed SMILES=O=C(OCC=C(C)CCC=C(C)C)C
accession=JP009848
date=2016.01.19 (Created 2008.10.21, modified 2011.05.06)
author=KURARAY CO., LTD.
license=CC BY-NC-SA
exact mass=196.14633
ionization energy=70 eV
ion type=[M]+*
computed spectral entropy=2.6626372676336203
computed normalized entropy=0.7373851558103708
SPLASH=splash10-014l-9000000000-168e059351700c9d4d25
submitter=submitter = University of Tokyo Team (Faculty of Engineering, University of Tokyo)
MoNA Rating=3.75

>  <NUM PEAKS>  (1466) 
37

>  <MASS SPECTRAL PEAKS>  (1466) 
27 7.7
28 2.2
29 6.4
39 1.1
40 3.3
41 66.8
42 4.5
43 7.38
44 2.8
45 2.7
53 10.6
55 0.58
57 2.1
65 2.2
67 15.5
68 6.17
69 99.99
70 10.2
71 1.9
77 0.31
79 4.5
80 13.9
81 6.8
84 0.4
85 9.2
91 3.2
92 6.3
93 3.04
94 5.2
95 1.9
107 4.9
121 1.53
123 3
127 2.3
135 17.4
136 0.27
153 1.8

>  <PREDICTED SPECTRUM>  (1466) 
25 1
26 34
27 205
28 62
29 164
30 18
37 22
38 69
39 305
40 168
41 815
42 298
43 970
44 209
45 144
50 84
51 151
52 134
53 351
54 269
55 352
56 151
57 192
59 18
60 13
61 88
62 18
63 32
64 15
65 172
66 182
67 573
68 741
69 999
70 295
71 197
72 52
73 90
76 4
77 218
78 88
79 352
80 393
81 420
82 376
83 180
84 224
85 236
86 79
87 18
89 30
91 179
92 320
93 626
94 362
95 470
96 224
97 136
98 35
99 59
101 36
103 46
105 114
107 423
108 264
109 179
110 143
111 112
112 149
113 13
115 49
119 28
121 570
122 258
123 247
124 61
125 51
126 41
127 103
128 30
129 15
134 95
135 97
136 572
137 234
138 127
139 27
140 17
151 1
152 56
153 55
154 5
155 12
196 85
197 4

$$$$

     RDKit          2D

 14 13  0  0  0  0  0  0  0  0999 V2000
    3.2476    5.6250    0.0000 C   0  0  0  0  0  0  0  0  0  0  0  0
   -9.7428    5.6250    0.0000 C   0  0  0  0  0  0  0  0  0  0  0  0
   -8.4437    7.8750    0.0000 C   0  0  0  0  0  0  0  0  0  0  0  0
   -3.2476    7.8750    0.0000 C   0  0  0  0  0  0  0  0  0  0  0  0
    1.9486    6.3750    0.0000 C   0  0  0  0  0  0  0  0  0  0  0  0
   -5.8457    6.3750    0.0000 C   0  0  0  0  0  0  0  0  0  0  0  0
   -7.1447    5.6250    0.0000 C   0  0  0  0  0  0  0  0  0  0  0  0
   -4.5466    5.6250    0.0000 C   0  0  0  0  0  0  0  0  0  0  0  0
   -1.9486    5.6250    0.0000 C   0  0  0  0  0  0  0  0  0  0  0  0
   -8.4437    6.3750    0.0000 C   0  0  0  0  0  0  0  0  0  0  0  0
   -3.2476    6.3750    0.0000 C   0  0  0  0  0  0  0  0  0  0  0  0
   -0.6495    6.3750    0.0000 C   0  0  0  0  0  0  0  0  0  0  0  0
   -0.6495    7.8750    0.0000 O   0  0  0  0  0  0  0  0  0  0  0  0
    0.6495    5.6250    0.0000 O   0  0  0  0  0  0  0  0  0  0  0  0
  5  1  1  0
  7  6  1  0
  8  6  1  0
 10  2  1  0
 10  3  1  0
 10  7  2  0
 11  4  1  0
 11  8  1  0
  9 11  2  0
 12  9  1  0
 13 12  2  0
 14  5  1  0
 14 12  1  0
M  END
>  <NAME>  (1467) 
(E)-ETHYL 3,7-DIMETHYL-2,6-OCTADIENOATE

>  <SYNONYMS>  (1467) 


>  <SPECTRUM TYPE>  (1467) 
MS1

>  <INSTRUMENT TYPE>  (1467) 
EI-B

>  <INSTRUMENT>  (1467) 
JEOL JMS-D-300

>  <ION MODE>  (1467) 
P

>  <INCHIKEY>  (1467) 
ZPKNTCZTABQJPS-PKNBQFBNSA-N

>  <FORMULA>  (1467) 
C12H20O2

>  <EXACT MASS>  (1467) 
196.14632988

>  <MW>  (1467) 
196

>  <ID>  (1467) 
JP009847

>  <CONTRIBUTOR>  (1467) 
University of Tokyo Team, {Faculty of Engineering, University of Tokyo

>  <COMMENT>  (1467) 
SMILES=CCOC(=O)C([H])=C(C)CCC=C(C)C
InChI=InChI=1S/C12H20O2/c1-5-14-12(13)9-11(4)8-6-7-10(2)3/h7,9H,5-6,8H2,1-4H3/b11-9+
computed SMILES=O=C(OCC)C=C(C)CCC=C(C)C
accession=JP009847
date=2016.01.19 (Created 2008.10.21, modified 2011.05.06)
author=KURARAY CO., LTD.
license=CC BY-NC-SA
exact mass=196.14633
ionization energy=70 eV
ion type=[M]+*
computed spectral entropy=2.55636265204719
computed normalized entropy=0.6883837464654055
SPLASH=splash10-014i-9300000000-d1b188a0546b49c194ae
submitter=submitter = University of Tokyo Team (Faculty of Engineering, University of Tokyo)
MoNA Rating=3.75

>  <NUM PEAKS>  (1467) 
41

>  <MASS SPECTRAL PEAKS>  (1467) 
27 6.1
29 7.5
39 8.4
40 0.17
41 44.8
42 2.5
43 4.1
51 0.1
53 5.6
54 2.1
55 2.6
65 0.1
67 4.2
68 2.7
69 99.99
70 0.58
77 1.2
79 1.4
81 2.9
82 0.95
83 8.8
85 2.8
91 1.5
93 0.13
95 1.2
100 20.3
101 1.1
107 0.33
108 1.9
109 1.4
113 2.1
122 0.84
123 18.6
124 1.6
128 26.3
129 0.21
150 2.8
151 12.3
152 1.4
153 0.44
196 2.5

>  <PREDICTED SPECTRUM>  (1467) 
26 49
27 221
28 78
29 226
31 13
32 7
38 20
39 326
40 120
41 734
42 181
43 343
44 42
45 125
50 42
51 110
52 75
53 332
54 259
55 406
56 137
57 135
59 79
60 155
61 49
62 1
63 7
64 3
65 139
66 98
67 445
68 238
69 999
70 162
71 131
72 39
73 196
74 49
75 29
77 155
78 3
79 233
80 147
81 492
82 400
83 270
84 76
85 168
86 100
87 185
88 68
91 16
92 40
93 165
94 93
95 258
96 141
97 134
98 73
99 151
100 145
101 105
105 41
106 49
107 289
108 201
109 199
110 19
111 131
112 38
113 169
114 267
115 210
116 14
121 132
122 306
123 385
124 145
125 207
126 74
127 252
128 272
129 120
130 30
135 119
137 37
139 68
140 12
150 359
151 446
152 186
153 227
154 125
181 88
196 248
197 108

$$$$

     RDKit          2D

 14 14  0  0  0  0  0  0  0  0999 V2000
   -2.5989    1.5002    0.0000 C   0  0  0  0  0  0  0  0  0  0  0  0
   -2.5989   -1.5002    0.0000 C   0  0  0  0  0  0  0  0  0  0  0  0
    2.5989    1.5002    0.0000 C   0  0  0  0  0  0  0  0  0  0  0  0
   -1.3000    0.7500    0.0000 C   0  0  0  0  0  0  0  0  0  0  0  0
   -1.3000   -0.7500    0.0000 C   0  0  0  0  0  0  0  0  0  0  0  0
    1.3000    0.7500    0.0000 C   0  0  0  0  0  0  0  0  0  0  0  0
    1.3000   -0.7500    0.0000 C   0  0  0  0  0  0  0  0  0  0  0  0
    0.0000    1.5000    0.0000 C   0  0  0  0  0  0  0  0  0  0  0  0
   -0.0000   -1.5000    0.0000 C   0  0  0  0  0  0  0  0  0  0  0  0
    2.5989   -1.5002    0.0000 C   0  0  0  0  0  0  0  0  0  0  0  0
    0.0000    3.0000    0.0000 O   0  0  0  0  0  0  0  0  0  0  0  0
   -0.0000   -3.0000    0.0000 O   0  0  0  0  0  0  0  0  0  0  0  0
    2.5987   -3.0002    0.0000 O   0  0  0  0  0  0  0  0  0  0  0  0
    3.8981   -0.7504    0.0000 O   0  0  0  0  0  0  0  0  0  0  0  0
  4  1  1  0
  5  2  1  0
  5  4  2  0
  6  3  1  0
  7  6  1  0
  8  4  1  0
  8  6  2  0
  9  5  1  0
  9  7  2  0
 10  7  1  0
 11  8  1  0
 12  9  1  0
 13 10  2  0
 14 10  1  0
M  END
>  <NAME>  (1468) 
2,5,6-TRIMETHYL-3-CARBOXYLICHYDROQUINONE

>  <SYNONYMS>  (1468) 
3,6-DIHYDROXY-2,4,5-TRIMETHYLBENZOIC ACID

>  <SPECTRUM TYPE>  (1468) 
MS1

>  <INSTRUMENT TYPE>  (1468) 
EI-B

>  <INSTRUMENT>  (1468) 
JEOL JMS-D-300

>  <ION MODE>  (1468) 
P

>  <INCHIKEY>  (1468) 
KJUBUGFOUWAGTK-UHFFFAOYSA-N

>  <FORMULA>  (1468) 
C10H12O4

>  <EXACT MASS>  (1468) 
196.073558864

>  <MW>  (1468) 
196

>  <ID>  (1468) 
JP009845

>  <CONTRIBUTOR>  (1468) 
University of Tokyo Team, {Faculty of Engineering, University of Tokyo

>  <COMMENT>  (1468) 
SMILES=OC(=O)c(c(C)1)c(O)c(C)c(C)c(O)1
InChI=InChI=1S/C10H12O4/c1-4-5(2)9(12)7(10(13)14)6(3)8(4)11/h11-12H,1-3H3,(H,13,14)
computed SMILES=O=C(O)C=1C(O)=C(C(=C(O)C1C)C)C
accession=JP009845
date=2016.01.19 (Created 2008.10.21, modified 2011.05.06)
author=KURARAY CO., LTD.
license=CC BY-NC-SA
exact mass=196.07356
ionization energy=70 eV
ion type=[M]+*
computed spectral entropy=2.7552318874928243
computed normalized entropy=0.7630281147751727
SPLASH=splash10-0fb9-2900000000-b008083adca2dcff854d
submitter=submitter = University of Tokyo Team (Faculty of Engineering, University of Tokyo)
MoNA Rating=3.75

>  <NUM PEAKS>  (1468) 
37

>  <MASS SPECTRAL PEAKS>  (1468) 
27 4.7
28 2.2
39 10.3
41 0.47
43 7.2
44 8.8
51 4.7
53 0.78
55 5.5
65 3.6
66 2.8
67 1.81
68 2.3
77 10.8
78 3.1
79 1.06
89 3
91 6.9
93 5.5
94 0.33
107 18.8
109 2.3
121 7.8
122 0.44
123 2.2
135 6.3
137 10
149 1.89
150 62.5
151 13.4
152 20.2
153 0.23
177 7.8
178 99.99
179 13.8
196 4.09
197 5.3

>  <PREDICTED SPECTRUM>  (1468) 
17 31
18 33
26 18
27 84
28 41
29 76
39 170
40 28
41 109
42 95
43 71
44 49
45 77
50 34
51 173
52 82
53 198
54 96
55 154
56 5
57 30
58 38
63 75
64 45
65 187
66 126
67 152
68 56
69 70
75 33
77 243
78 108
79 184
80 57
81 53
82 82
83 112
91 346
92 148
93 165
94 67
95 32
96 4
102 4
103 30
104 107
105 119
106 24
107 178
108 60
109 19
119 58
120 12
121 194
122 234
123 55
132 155
133 62
134 20
135 185
137 91
149 72
150 929
151 487
152 527
153 45
177 129
178 999
179 220
180 11
181 9
196 513
197 106

$$$$

     RDKit          2D

 13 13  0  0  0  0  0  0  0  0999 V2000
   -5.5207    3.1321    0.0000 C   0  0  0  0  0  0  0  0  0  0  0  0
    3.5726    0.8821    0.0000 C   0  0  0  0  0  0  0  0  0  0  0  0
    3.5731    2.3829    0.0000 C   0  0  0  0  0  0  0  0  0  0  0  0
    2.2731    0.1313    0.0000 C   0  0  0  0  0  0  0  0  0  0  0  0
    2.2740    3.1329    0.0000 C   0  0  0  0  0  0  0  0  0  0  0  0
    0.9740    0.8813    0.0000 C   0  0  0  0  0  0  0  0  0  0  0  0
   -0.3245    3.1321    0.0000 C   0  0  0  0  0  0  0  0  0  0  0  0
    0.9745    2.3821    0.0000 C   0  0  0  0  0  0  0  0  0  0  0  0
   -1.6236    2.3821    0.0000 C   0  0  0  0  0  0  0  0  0  0  0  0
   -2.9226    3.1321    0.0000 C   0  0  0  0  0  0  0  0  0  0  0  0
   -1.6236    0.8821    0.0000 Cl  0  0  0  0  0  0  0  0  0  0  0  0
   -2.9226    4.6321    0.0000 O   0  0  0  0  0  0  0  0  0  0  0  0
   -4.2216    2.3821    0.0000 O   0  0  0  0  0  0  0  0  0  0  0  0
  3  2  2  0
  4  2  1  0
  5  3  1  0
  6  4  2  0
  8  5  2  0
  8  6  1  0
  8  7  1  0
  7  9  2  0
 10  9  1  0
 11  9  1  0
 12 10  2  0
 13  1  1  0
 13 10  1  0
M  END
>  <NAME>  (1469) 
METHYL 2-CHLORO-3-PHENYLACRYLATE

>  <SYNONYMS>  (1469) 
METHYL ALPHA-CHLOROCINNAMATE

>  <SPECTRUM TYPE>  (1469) 
MS1

>  <INSTRUMENT TYPE>  (1469) 
EI-B

>  <INSTRUMENT>  (1469) 
JEOL JMS-D-300

>  <ION MODE>  (1469) 
P

>  <INCHIKEY>  (1469) 
OHXMZPBSQGEXEV-CLFYSBASSA-N

>  <FORMULA>  (1469) 
C10H9ClO2

>  <EXACT MASS>  (1469) 
196.029107208

>  <MW>  (1469) 
196

>  <ID>  (1469) 
JP009844

>  <CONTRIBUTOR>  (1469) 
University of Tokyo Team, {Faculty of Engineering, University of Tokyo

>  <COMMENT>  (1469) 
SMILES=COC(=O)C(Cl)=Cc(c1)cccc1
InChI=InChI=1S/C10H9ClO2/c1-13-10(12)9(11)7-8-5-3-2-4-6-8/h2-7H,1H3/b9-7-
computed SMILES=O=C(OC)C(Cl)=CC=1C=CC=CC1
accession=JP009844
date=2016.01.19 (Created 2008.10.21, modified 2011.05.06)
author=KURARAY CO., LTD.
license=CC BY-NC-SA
exact mass=196.02911
ionization energy=70 eV
ion type=[M]+*
computed spectral entropy=3.06482014212122
computed normalized entropy=0.8425422814869494
SPLASH=splash10-0imi-3900000000-eaef0d721eafde323990
submitter=submitter = University of Tokyo Team (Faculty of Engineering, University of Tokyo)
MoNA Rating=3.75

>  <NUM PEAKS>  (1469) 
38

>  <MASS SPECTRAL PEAKS>  (1469) 
27 1.2
28 37.4
29 2.3
31 0.14
39 14.3
43 1.6
44 6.2
45 1.63
50 14.2
51 33.2
59 5.7
71 1.44
72 5.6
73 8.8
75 22.2
77 0.94
87 2.7
89 7.5
91 9.7
101 3.11
102 64.9
103 5.8
115 14.5
117 0.19
121 24.2
129 40.3
131 15.4
133 0.11
137 38.4
139 14.9
160 19
161 99.99
162 19
164 3.1
165 34.1
196 9.42
197 14.9
198 35.7

>  <PREDICTED SPECTRUM>  (1469) 
14 0
15 81
26 29
29 6
31 7
32 14
35 19
36 80
37 18
38 89
39 157
40 48
41 89
43 2
44 50
45 21
49 17
50 329
51 421
52 164
53 130
55 69
57 105
59 224
61 22
62 93
63 198
64 77
65 119
66 18
68 13
69 28
73 83
74 208
75 342
76 283
77 332
78 135
79 4
81 8
82 62
83 100
84 82
85 77
86 60
87 119
88 53
89 154
90 73
91 185
98 59
99 17
100 16
101 448
102 634
103 276
104 150
114 13
115 304
117 142
118 43
121 417
122 210
127 194
128 49
129 402
130 266
131 166
132 67
133 62
136 70
137 289
138 154
139 209
145 44
160 140
161 999
162 368
163 17
164 55
165 567
166 230
167 324
195 120
196 546
197 170
198 282
199 58

$$$$

     RDKit          2D

 11 10  0  0  0  0  0  0  0  0999 V2000
    0.9743    2.8125    0.0000 C   0  0  0  0  0  0  0  0  0  0  0  0
   -5.5209    5.0625    0.0000 C   0  0  0  0  0  0  0  0  0  0  0  0
    2.2733    5.0625    0.0000 C   0  0  0  0  0  0  0  0  0  0  0  0
   -1.6238    4.3125    0.0000 C   0  0  0  0  0  0  0  0  0  0  0  0
    0.9743    4.3125    0.0000 C   0  0  0  0  0  0  0  0  0  0  0  0
   -4.2219    4.3125    0.0000 C   0  0  0  0  0  0  0  0  0  0  0  0
   -0.3248    5.0625    0.0000 C   0  0  0  0  0  0  0  0  0  0  0  0
    3.5724    4.3125    0.0000 Cl  0  0  0  0  0  0  0  0  0  0  0  0
   -0.3248    6.5625    0.0000 Cl  0  0  0  0  0  0  0  0  0  0  0  0
   -4.2219    2.8125    0.0000 O   0  0  0  0  0  0  0  0  0  0  0  0
   -2.9228    5.0625    0.0000 O   0  0  0  0  0  0  0  0  0  0  0  0
  5  1  2  0
  5  3  1  0
  6  2  1  0
  7  4  1  0
  7  5  1  0
  8  3  1  0
  9  7  1  0
 10  6  2  0
 11  4  1  0
 11  6  1  0
M  END
>  <NAME>  (1470) 
2,4-DICHLORO-3-METHYLENEBUTYL ACETATE

>  <SYNONYMS>  (1470) 
2-CHLORO-3-CHLOROMETHYL-3-BUTENYL ACETATE

>  <SPECTRUM TYPE>  (1470) 
MS1

>  <INSTRUMENT TYPE>  (1470) 
EI-B

>  <INSTRUMENT>  (1470) 
JEOL JMS-D-300

>  <ION MODE>  (1470) 
P

>  <INCHIKEY>  (1470) 
FHCAXNJSBOWFBL-UHFFFAOYSA-N

>  <FORMULA>  (1470) 
C7H10Cl2O2

>  <EXACT MASS>  (1470) 
196.00578492

>  <MW>  (1470) 
196

>  <ID>  (1470) 
JP009843

>  <CONTRIBUTOR>  (1470) 
University of Tokyo Team, {Faculty of Engineering, University of Tokyo

>  <COMMENT>  (1470) 
SMILES=CC(=O)OCC(Cl)C(=C)CCl
InChI=InChI=1S/C7H10Cl2O2/c1-5(3-8)7(9)4-11-6(2)10/h7H,1,3-4H2,2H3
computed SMILES=O=C(OCC(Cl)C(=C)CCl)C
accession=JP009843
date=2016.01.19 (Created 2008.10.21, modified 2011.05.06)
author=KURARAY CO., LTD.
license=CC BY-NC-SA
exact mass=196.00578
ionization energy=70 eV
ion type=[M]+*
computed spectral entropy=2.126385786196233
computed normalized entropy=0.5845595658292743
SPLASH=splash10-0006-9100000000-48bfa4048c000ae61cfa
submitter=submitter = University of Tokyo Team (Faculty of Engineering, University of Tokyo)
MoNA Rating=3.75

>  <NUM PEAKS>  (1470) 
38

>  <MASS SPECTRAL PEAKS>  (1470) 
27 2.6
29 1.4
39 3.8
40 0.1
41 2.9
42 1.9
43 99.99
44 0.33
51 2.3
53 2.3
55 1.6
57 0.12
59 5.1
61 1.9
62 3.2
65 0.32
67 1.1
69 1.2
71 13.8
73 0.1
75 1.4
83 1.6
84 1.3
85 0.25
86 2.7
87 1
90 2.1
101 0.94
102 5.8
103 3.6
104 1.8
105 0.19
127 2.7
131 1
136 4.4
138 0.26
161 3.8
163 1.3

>  <PREDICTED SPECTRUM>  (1470) 
14 7
15 19
26 25
27 114
35 14
36 72
37 1
38 19
39 191
40 60
41 151
42 191
43 999
44 139
45 32
49 145
51 150
52 28
53 149
54 79
55 243
56 92
57 167
58 39
60 8
61 100
62 28
63 48
65 53
67 106
68 57
69 20
71 31
73 22
74 39
75 24
77 101
81 20
82 32
83 177
84 34
87 105
88 3
89 53
90 2
95 87
97 87
101 171
102 120
103 206
104 57
105 98
118 25
119 130
120 30
121 76
123 45
125 43
127 58
131 80
136 79
145 32
161 284
163 21

$$$$

     RDKit          2D

 14 14  0  0  0  0  0  0  0  0999 V2000
   -9.0942   -0.7512    0.0000 C   0  0  0  0  0  0  0  0  0  0  0  0
   -7.7951   -1.5010    0.0000 C   0  0  0  0  0  0  0  0  0  0  0  0
   -6.4962   -0.7508    0.0000 C   0  0  0  0  0  0  0  0  0  0  0  0
   -5.1970   -1.5006    0.0000 C   0  0  0  0  0  0  0  0  0  0  0  0
   -3.8981   -0.7504    0.0000 C   0  0  0  0  0  0  0  0  0  0  0  0
   -2.5989   -1.5002    0.0000 C   0  0  0  0  0  0  0  0  0  0  0  0
   -1.3000    0.7500    0.0000 C   0  0  0  0  0  0  0  0  0  0  0  0
    0.0000    1.5000    0.0000 C   0  0  0  0  0  0  0  0  0  0  0  0
    1.3000   -0.7500    0.0000 C   0  0  0  0  0  0  0  0  0  0  0  0
   -1.3000   -0.7500    0.0000 C   0  0  0  0  0  0  0  0  0  0  0  0
    1.3000    0.7500    0.0000 C   0  0  0  0  0  0  0  0  0  0  0  0
    0.0000   -1.5000    0.0000 C   0  0  0  0  0  0  0  0  0  0  0  0
    2.5989    1.5002    0.0000 O   0  0  0  0  0  0  0  0  0  0  0  0
   -0.0000   -3.0000    0.0000 O   0  0  0  0  0  0  0  0  0  0  0  0
  2  1  1  0
  3  2  1  0
  4  3  1  0
  5  4  1  0
  6  5  1  0
  8  7  2  0
 10  6  1  0
 10  7  1  0
 11  8  1  0
 11  9  2  0
 12  9  1  0
 12 10  2  0
 13 11  1  0
 14 12  1  0
M  END
>  <NAME>  (1471) 
4-HEXYLRESORCINOL

>  <SYNONYMS>  (1471) 
4-HEXYL-1,3-DIHYDROXYBENZENE

>  <SPECTRUM TYPE>  (1471) 
MS1

>  <INSTRUMENT TYPE>  (1471) 
EI-B

>  <INSTRUMENT>  (1471) 
JEOL JMS-D-300

>  <ION MODE>  (1471) 
P

>  <INCHIKEY>  (1471) 
WFJIVOKAWHGMBH-UHFFFAOYSA-N

>  <FORMULA>  (1471) 
C12H18O2

>  <EXACT MASS>  (1471) 
194.130679816

>  <MW>  (1471) 
194

>  <ID>  (1471) 
JP009842

>  <CONTRIBUTOR>  (1471) 
University of Tokyo Team, {Faculty of Engineering, University of Tokyo

>  <COMMENT>  (1471) 
SMILES=CCCCCCc(c1)c(O)cc(O)c1
InChI=InChI=1S/C12H18O2/c1-2-3-4-5-6-10-7-8-11(13)9-12(10)14/h7-9,13-14H,2-6H2,1H3
computed SMILES=OC1=CC=C(C(O)=C1)CCCCCC
accession=JP009842
date=2016.01.19 (Created 2008.10.21, modified 2011.05.06)
author=KURARAY CO., LTD.
license=CC BY-NC-SA
exact mass=194.13068
ionization energy=70 eV
ion type=[M]+*
computed spectral entropy=1.116652061249858
computed normalized entropy=0.41234540659377983
SPLASH=splash10-00di-0900000000-5e9f9f102fe32a7d43f9
submitter=submitter = University of Tokyo Team (Faculty of Engineering, University of Tokyo)
MoNA Rating=3.75

>  <NUM PEAKS>  (1471) 
15

>  <MASS SPECTRAL PEAKS>  (1471) 
41 1.9
43 1.4
55 1.9
65 0.12
67 1.9
69 1.4
77 1.5
95 0.18
110 1
123 99.99
124 7.9
147 0.52
149 1.1
194 14.3
195 1.7

>  <PREDICTED SPECTRUM>  (1471) 
27 84
28 9
29 56
39 161
40 32
41 209
42 62
43 198
44 10
50 82
51 193
52 174
53 250
54 95
55 214
56 8
57 65
62 46
63 135
64 24
65 147
66 106
67 176
68 98
69 257
70 47
77 232
78 82
79 119
80 66
81 250
82 126
83 61
84 4
91 147
93 74
94 65
95 270
96 192
97 64
105 19
106 7
107 44
108 82
109 292
110 22
111 54
120 68
121 79
122 86
123 305
124 615
125 83
133 38
136 12
137 999
138 360
139 49
147 53
149 14
151 87
165 137
166 7
177 58
194 583
195 213
196 40

$$$$

     RDKit          2D

 14 14  0  0  0  0  0  0  0  0999 V2000
   -2.5989    1.5002    0.0000 C   0  0  0  0  0  0  0  0  0  0  0  0
   -2.5989   -1.5002    0.0000 C   0  0  0  0  0  0  0  0  0  0  0  0
    2.5989    1.5002    0.0000 C   0  0  0  0  0  0  0  0  0  0  0  0
    3.8981   -0.7504    0.0000 C   0  0  0  0  0  0  0  0  0  0  0  0
   -1.3000    0.7500    0.0000 C   0  0  0  0  0  0  0  0  0  0  0  0
   -1.3000   -0.7500    0.0000 C   0  0  0  0  0  0  0  0  0  0  0  0
    1.3000    0.7500    0.0000 C   0  0  0  0  0  0  0  0  0  0  0  0
    2.5989   -1.5002    0.0000 C   0  0  0  0  0  0  0  0  0  0  0  0
    1.3000   -0.7500    0.0000 C   0  0  0  0  0  0  0  0  0  0  0  0
    0.0000    1.5000    0.0000 C   0  0  0  0  0  0  0  0  0  0  0  0
   -0.0000   -1.5000    0.0000 C   0  0  0  0  0  0  0  0  0  0  0  0
    2.5987   -3.0002    0.0000 O   0  0  0  0  0  0  0  0  0  0  0  0
    0.0000    3.0000    0.0000 O   0  0  0  0  0  0  0  0  0  0  0  0
   -0.0000   -3.0000    0.0000 O   0  0  0  0  0  0  0  0  0  0  0  0
  5  1  1  0
  6  2  1  0
  6  5  2  0
  7  3  1  0
  8  4  1  0
  9  7  1  0
  9  8  1  0
 10  5  1  0
 10  7  2  0
 11  6  1  0
 11  9  2  0
 12  8  2  0
 13 10  1  0
 14 11  1  0
M  END
>  <NAME>  (1472) 
3-ACETYL-2,5,6-TRIMETHYLHYDROQUINONE

>  <SYNONYMS>  (1472) 
3,6-DIHYDROXY-2,4,5-TRIMETHYLACETOPHENONE

>  <SPECTRUM TYPE>  (1472) 
MS1

>  <INSTRUMENT TYPE>  (1472) 
EI-B

>  <INSTRUMENT>  (1472) 
JEOL JMS-D-300

>  <ION MODE>  (1472) 
P

>  <INCHIKEY>  (1472) 
ADMGWHTWSYEIOQ-UHFFFAOYSA-N

>  <FORMULA>  (1472) 
C11H14O3

>  <EXACT MASS>  (1472) 
194.09429430799997

>  <MW>  (1472) 
194

>  <ID>  (1472) 
JP009841

>  <CONTRIBUTOR>  (1472) 
University of Tokyo Team, {Faculty of Engineering, University of Tokyo

>  <COMMENT>  (1472) 
SMILES=CC(=O)c(c(C)1)c(O)c(C)c(C)c(O)1
InChI=InChI=1S/C11H14O3/c1-5-6(2)11(14)9(8(4)12)7(3)10(5)13/h13-14H,1-4H3
computed SMILES=O=C(C=1C(O)=C(C(=C(O)C1C)C)C)C
accession=JP009841
date=2016.01.19 (Created 2008.10.21, modified 2011.05.06)
author=KURARAY CO., LTD.
license=CC BY-NC-SA
exact mass=194.09429
ionization energy=70 eV
ion type=[M]+*
computed spectral entropy=1.9744711756773339
computed normalized entropy=0.6297160956784713
SPLASH=splash10-004l-1900000000-a3fa195868d83f6a8ce9
submitter=submitter = University of Tokyo Team (Faculty of Engineering, University of Tokyo)
MoNA Rating=3.75

>  <NUM PEAKS>  (1472) 
23

>  <MASS SPECTRAL PEAKS>  (1472) 
27 3.1
28 2
39 4.8
41 0.36
43 13.4
53 3.4
55 3.3
67 0.55
77 4.5
79 2.5
91 2.7
123 0.61
133 2.3
149 4.7
151 5
161 0.39
175 3
176 10.6
179 99.99
180 1.19
193 3.1
194 60.5
195 7.2

>  <PREDICTED SPECTRUM>  (1472) 
14 0
26 13
27 73
28 30
29 52
38 8
39 136
40 35
41 170
42 8
43 341
50 16
51 111
52 61
53 146
54 65
55 185
56 43
57 23
63 21
64 18
65 77
66 34
67 159
68 48
69 52
70 12
71 46
77 175
78 54
79 136
80 11
81 33
82 62
83 127
91 225
92 17
93 10
95 23
96 16
102 16
103 49
105 115
107 12
111 16
115 56
119 9
121 20
122 4
123 77
133 60
147 76
148 54
149 107
150 53
151 192
152 36
161 70
165 51
175 57
176 55
177 42
179 999
180 290
181 43
192 74
193 81
194 700
195 213
196 24

$$$$

     RDKit          2D

 15 17  0  0  0  0  0  0  0  0999 V2000
    7.1000   -0.0000    0.0000 C   0  0  0  0  0  0  0  0  0  0  0  0
    6.3500    1.3000    0.0000 C   0  0  0  0  0  0  0  0  0  0  0  0
    6.3500   -1.3000    0.0000 C   0  0  0  0  0  0  0  0  0  0  0  0
   -2.3100    0.7500    0.0000 C   0  0  0  0  0  0  0  0  0  0  0  0
   -2.3100   -0.7500    0.0000 C   0  0  0  0  0  0  0  0  0  0  0  0
    4.8500    1.3000    0.0000 C   0  0  0  0  0  0  0  0  0  0  0  0
    4.8500   -1.3000    0.0000 C   0  0  0  0  0  0  0  0  0  0  0  0
   -1.0100    1.5000    0.0000 C   0  0  0  0  0  0  0  0  0  0  0  0
   -1.0100   -1.5000    0.0000 C   0  0  0  0  0  0  0  0  0  0  0  0
    1.7200    1.2100    0.0000 C   0  0  0  0  0  0  0  0  0  0  0  0
    4.1000   -0.0000    0.0000 C   0  0  0  0  0  0  0  0  0  0  0  0
    0.2900    0.7500    0.0000 C   0  0  0  0  0  0  0  0  0  0  0  0
    0.2900   -0.7500    0.0000 C   0  0  0  0  0  0  0  0  0  0  0  0
    2.6000    0.0000    0.0000 C   0  0  0  0  0  0  0  0  0  0  0  0
    1.7200   -1.2100    0.0000 N   0  0  0  0  0  0  0  0  0  0  0  0
  2  1  2  0
  3  1  1  0
  5  4  2  0
  6  2  1  0
  7  3  2  0
  8  4  1  0
  9  5  1  0
 11  6  2  0
 11  7  1  0
 12  8  2  0
 12 10  1  0
 13  9  2  0
 13 12  1  0
 14 10  2  0
 14 11  1  0
 15 13  1  0
 15 14  1  0
M  END
>  <NAME>  (1473) 
2-PHENYL-1H-INDOLE

>  <SYNONYMS>  (1473) 


>  <SPECTRUM TYPE>  (1473) 
MS1

>  <INSTRUMENT TYPE>  (1473) 
EI-B

>  <INSTRUMENT>  (1473) 
JEOL JMS-D-300

>  <ION MODE>  (1473) 
P

>  <INCHIKEY>  (1473) 
KLLLJCACIRKBDT-UHFFFAOYSA-N

>  <FORMULA>  (1473) 
C14H11N

>  <EXACT MASS>  (1473) 
193.089149352

>  <MW>  (1473) 
193

>  <ID>  (1473) 
JP009840

>  <CONTRIBUTOR>  (1473) 
University of Tokyo Team, {Faculty of Engineering, University of Tokyo

>  <COMMENT>  (1473) 
SMILES=C1=CC=C(C=C1)C2=CC3=CC=CC=C3N2
InChI=InChI=1S/C14H11N/c1-2-6-11(7-3-1)14-10-12-8-4-5-9-13(12)15-14/h1-10,15H
computed SMILES=C=1C=CC(=CC1)C2=CC=3C=CC=CC3N2
accession=JP009840
date=2016.01.19 (Created 2008.10.21, modified 2011.05.06)
author=KURARAY CO., LTD.
license=CC BY-NC-SA
exact mass=193.08915
ionization energy=70 eV
ion type=[M]+*
computed spectral entropy=2.1924568044470583
computed normalized entropy=0.6118167204082465
SPLASH=splash10-0006-3900000000-c6b8b101b71ff2c48f24
submitter=submitter = University of Tokyo Team (Faculty of Engineering, University of Tokyo)
MoNA Rating=3.75

>  <NUM PEAKS>  (1473) 
36

>  <MASS SPECTRAL PEAKS>  (1473) 
39 3
50 1.4
51 2.8
52 0.13
62 1.7
63 4.4
64 1.4
70 0.11
71 1.1
74 1.1
75 1.3
76 0.11
77 2.1
82 1.6
83 2.3
84 0.45
87 1.1
88 1.1
89 9.5
90 1.03
91 1.2
96 11.7
97 9.8
105 0.18
139 1.7
163 1.8
164 2.3
165 1.66
166 2.8
167 1.1
190 2.8
191 0.45
192 8.2
193 99.99
194 16.1
195 1.1

>  <PREDICTED SPECTRUM>  (1473) 
17 14
18 23
26 9
27 12
28 32
33 9
34 4
36 18
37 48
38 86
39 205
40 89
41 50
43 45
44 79
45 9
49 26
50 194
51 295
52 160
53 36
54 9
55 38
56 27
57 74
61 70
62 183
63 259
64 160
65 139
66 36
67 22
68 0
69 51
70 36
71 47
74 139
75 172
76 214
77 283
78 131
79 21
81 49
82 86
83 111
84 52
85 57
86 70
87 134
88 134
89 296
90 226
91 104
93 45
94 47
95 71
96 79
97 37
98 23
99 35
100 26
101 43
102 95
103 119
104 152
105 44
106 4
108 32
109 86
110 84
111 50
112 18
113 46
114 85
115 118
116 152
117 81
119 15
121 18
122 65
126 13
127 26
135 4
137 77
138 118
139 170
140 120
141 14
151 50
152 61
153 68
154 6
163 142
164 134
165 361
166 246
167 152
168 56
176 21
177 20
178 17
189 58
190 201
191 273
192 399
193 999
194 400
195 108
196 4

$$$$

     RDKit          2D

 14 14  0  0  0  0  0  0  0  0999 V2000
   -4.8712    5.7571    0.0000 C   0  0  0  0  0  0  0  0  0  0  0  0
    4.2221    2.0071    0.0000 C   0  0  0  0  0  0  0  0  0  0  0  0
    4.2226    3.5079    0.0000 C   0  0  0  0  0  0  0  0  0  0  0  0
    2.9226    1.2563    0.0000 C   0  0  0  0  0  0  0  0  0  0  0  0
    2.9236    4.2579    0.0000 C   0  0  0  0  0  0  0  0  0  0  0  0
    1.6236    2.0063    0.0000 C   0  0  0  0  0  0  0  0  0  0  0  0
   -3.5721    3.5071    0.0000 C   0  0  0  0  0  0  0  0  0  0  0  0
   -2.2731    4.2571    0.0000 C   0  0  0  0  0  0  0  0  0  0  0  0
   -6.1702    3.5071    0.0000 C   0  0  0  0  0  0  0  0  0  0  0  0
    0.3250    4.2571    0.0000 C   0  0  0  0  0  0  0  0  0  0  0  0
   -4.8712    4.2571    0.0000 C   0  0  0  0  0  0  0  0  0  0  0  0
    1.6240    3.5071    0.0000 C   0  0  0  0  0  0  0  0  0  0  0  0
   -7.4692    4.2571    0.0000 O   0  0  0  0  0  0  0  0  0  0  0  0
   -0.9740    3.5071    0.0000 O   0  0  0  0  0  0  0  0  0  0  0  0
  3  2  2  0
  4  2  1  0
  5  3  1  0
  6  4  2  0
  8  7  1  0
 11  1  1  0
  7 11  2  0
 11  9  1  0
 12  5  2  0
 12  6  1  0
 12 10  1  0
 13  9  1  0
 14  8  1  0
 14 10  1  0
M  END
>  <NAME>  (1474) 
4-BENZYLOXY-2-METHYL-2-BUTEN-1-OL

>  <SYNONYMS>  (1474) 


>  <SPECTRUM TYPE>  (1474) 
MS1

>  <INSTRUMENT TYPE>  (1474) 
EI-B

>  <INSTRUMENT>  (1474) 
JEOL JMS-D-300

>  <ION MODE>  (1474) 
P

>  <INCHIKEY>  (1474) 
ZBNQXXPQZJJMIB-YRNVUSSQSA-N

>  <FORMULA>  (1474) 
C12H16O2

>  <EXACT MASS>  (1474) 
192.115029752

>  <MW>  (1474) 
192

>  <ID>  (1474) 
JP009839

>  <CONTRIBUTOR>  (1474) 
University of Tokyo Team, {Faculty of Engineering, University of Tokyo

>  <COMMENT>  (1474) 
SMILES=OCC(C)=CCOCc(c1)cccc1
InChI=InChI=1S/C12H16O2/c1-11(9-13)7-8-14-10-12-5-3-2-4-6-12/h2-7,13H,8-10H2,1H3/b11-7+
computed SMILES=OCC(=CCOCC=1C=CC=CC1)C
accession=JP009839
date=2016.01.19 (Created 2008.10.21, modified 2011.05.06)
author=KURARAY CO., LTD.
license=CC BY-NC-SA
exact mass=192.11503
ionization energy=70 eV
ion type=[M]+*
computed spectral entropy=2.289264103485685
computed normalized entropy=0.69459266236713
SPLASH=splash10-0006-9100000000-f4dd1237e07f21a203a1
submitter=submitter = University of Tokyo Team (Faculty of Engineering, University of Tokyo)
MoNA Rating=3.75

>  <NUM PEAKS>  (1474) 
27

>  <MASS SPECTRAL PEAKS>  (1474) 
29 4
39 5.1
41 5
43 1.05
45 3.1
51 3.2
55 17
56 0.26
57 2.9
58 3.2
65 9.4
68 0.26
71 5.4
77 6.2
79 7.4
83 1.23
89 2.6
91 99.99
92 41.5
93 0.31
100 2.7
101 7.1
105 3.1
107 1.82
108 12.2
148 2.6
161 2.9

>  <PREDICTED SPECTRUM>  (1474) 
26 16
27 88
28 49
29 112
30 31
31 107
38 15
39 134
40 40
41 203
42 77
43 285
44 86
45 81
49 4
50 69
51 128
52 53
53 64
54 7
55 108
56 27
57 110
58 71
59 66
62 28
63 86
64 38
65 238
66 40
67 28
68 29
69 68
70 31
71 147
72 40
73 29
74 6
75 11
76 10
77 154
78 83
79 145
81 21
82 21
83 71
84 44
85 43
86 65
87 25
89 81
90 47
91 999
92 398
93 49
99 26
101 55
102 18
103 23
105 98
107 176
108 144
114 0
115 55
116 19
117 35
130 24
131 18
132 5
133 0
134 32
160 7
174 31
192 30

$$$$

     RDKit          2D

 14 13  0  0  0  0  0  0  0  0999 V2000
   -8.7685    6.1875    0.0000 C   0  0  0  0  0  0  0  0  0  0  0  0
   -7.4695    3.9375    0.0000 C   0  0  0  0  0  0  0  0  0  0  0  0
   -2.2733    3.9375    0.0000 C   0  0  0  0  0  0  0  0  0  0  0  0
    4.2219    6.1875    0.0000 C   0  0  0  0  0  0  0  0  0  0  0  0
   -4.8714    5.4375    0.0000 C   0  0  0  0  0  0  0  0  0  0  0  0
   -6.1704    6.1875    0.0000 C   0  0  0  0  0  0  0  0  0  0  0  0
   -3.5724    6.1875    0.0000 C   0  0  0  0  0  0  0  0  0  0  0  0
   -0.9743    6.1875    0.0000 C   0  0  0  0  0  0  0  0  0  0  0  0
    0.3248    5.4375    0.0000 C   0  0  0  0  0  0  0  0  0  0  0  0
   -7.4695    5.4375    0.0000 C   0  0  0  0  0  0  0  0  0  0  0  0
   -2.2733    5.4375    0.0000 C   0  0  0  0  0  0  0  0  0  0  0  0
    2.9228    5.4375    0.0000 C   0  0  0  0  0  0  0  0  0  0  0  0
    2.9228    3.9375    0.0000 O   0  0  0  0  0  0  0  0  0  0  0  0
    1.6238    6.1875    0.0000 O   0  0  0  0  0  0  0  0  0  0  0  0
  5  6  2  0
  7  5  1  0
  8  9  2  0
 10  1  2  0
 10  2  1  0
 10  6  1  0
 11  3  1  0
  7 11  2  0
 11  8  1  0
 12  4  1  0
 13 12  2  0
 14  9  1  0
 14 12  1  0
M  END
>  <NAME>  (1475) 
3,7-DIMETHYL-1,3,5,7-OCTATETRAENYL ACETATE

>  <SYNONYMS>  (1475) 


>  <SPECTRUM TYPE>  (1475) 
MS1

>  <INSTRUMENT TYPE>  (1475) 
EI-B

>  <INSTRUMENT>  (1475) 
JEOL JMS-D-300

>  <ION MODE>  (1475) 
P

>  <INCHIKEY>  (1475) 
RYVXRHRZBWBWBB-ZTCKEYQCSA-N

>  <FORMULA>  (1475) 
C12H16O2

>  <EXACT MASS>  (1475) 
192.115029752

>  <MW>  (1475) 
192

>  <ID>  (1475) 
JP009838

>  <CONTRIBUTOR>  (1475) 
University of Tokyo Team, {Faculty of Engineering, University of Tokyo

>  <COMMENT>  (1475) 
SMILES=CC(=C)C=CC=C(C)C=COC(C)=O
InChI=InChI=1S/C12H16O2/c1-10(2)6-5-7-11(3)8-9-14-12(4)13/h5-9H,1H2,2-4H3/b6-5+,9-8+,11-7+
computed SMILES=O=C(OC=CC(=CC=CC(=C)C)C)C
accession=JP009838
date=2016.01.19 (Created 2008.10.21, modified 2011.05.06)
author=KURARAY CO., LTD.
license=CC BY-NC-SA
exact mass=192.11503
ionization energy=70 eV
ion type=[M]+*
computed spectral entropy=2.4404615149833573
computed normalized entropy=0.8146460671828035
SPLASH=splash10-0006-9100000000-aab256014af33bb6d8f9
submitter=submitter = University of Tokyo Team (Faculty of Engineering, University of Tokyo)
MoNA Rating=3.75

>  <NUM PEAKS>  (1475) 
20

>  <MASS SPECTRAL PEAKS>  (1475) 
28 5.4
41 15.3
43 99.99
53 1.22
55 10.7
67 18.2
68 10.7
69 0.98
71 9.8
79 8.3
81 20.9
82 0.85
84 14.8
85 17.8
93 17.3
107 0.48
132 11.7
146 7.8
147 15.1
148 9.7

>  <PREDICTED SPECTRUM>  (1475) 
14 5
15 11
16 3
26 18
27 103
29 36
37 15
38 58
39 200
40 78
41 156
42 108
43 999
44 151
45 119
50 88
51 144
52 95
53 171
54 76
55 114
57 44
58 21
61 43
62 15
63 43
64 33
65 113
66 108
67 267
68 130
69 35
70 52
71 107
72 33
73 111
74 53
75 48
76 3
77 114
78 32
79 144
80 84
81 119
82 84
83 13
89 83
90 79
91 116
92 109
93 146
94 90
95 167
105 9
106 29
107 42
117 169
119 46
131 78
132 279
133 163
134 94
135 83
148 17
149 71
150 93
192 80

$$$$

     RDKit          2D

 14 14  0  0  0  0  0  0  0  0999 V2000
   -5.5207    5.3821    0.0000 C   0  0  0  0  0  0  0  0  0  0  0  0
   -6.8197    3.1321    0.0000 C   0  0  0  0  0  0  0  0  0  0  0  0
    3.5726    1.6321    0.0000 C   0  0  0  0  0  0  0  0  0  0  0  0
    3.5731    3.1329    0.0000 C   0  0  0  0  0  0  0  0  0  0  0  0
    2.2731    0.8813    0.0000 C   0  0  0  0  0  0  0  0  0  0  0  0
    2.2740    3.8829    0.0000 C   0  0  0  0  0  0  0  0  0  0  0  0
    0.9740    1.6313    0.0000 C   0  0  0  0  0  0  0  0  0  0  0  0
   -0.3245    3.8821    0.0000 C   0  0  0  0  0  0  0  0  0  0  0  0
   -2.9226    3.8821    0.0000 C   0  0  0  0  0  0  0  0  0  0  0  0
   -5.5207    3.8821    0.0000 C   0  0  0  0  0  0  0  0  0  0  0  0
    0.9745    3.1321    0.0000 C   0  0  0  0  0  0  0  0  0  0  0  0
   -4.2216    3.1321    0.0000 C   0  0  0  0  0  0  0  0  0  0  0  0
   -4.2216    1.6321    0.0000 O   0  0  0  0  0  0  0  0  0  0  0  0
   -1.6236    3.1321    0.0000 O   0  0  0  0  0  0  0  0  0  0  0  0
  4  3  2  0
  5  3  1  0
  6  4  1  0
  7  5  2  0
 10  1  2  0
 10  2  1  0
 11  6  2  0
 11  7  1  0
 11  8  1  0
 12  9  1  0
 12 10  1  0
 13 12  1  0
 14  8  1  0
 14  9  1  0
M  END
>  <NAME>  (1476) 
4-BENZYLOXY-3-HYDROXY-2-METHYL-1-BUTENE

>  <SYNONYMS>  (1476) 
1-BENZYLOXY-3-METHYL-3-BUTEN-2-OL

>  <SPECTRUM TYPE>  (1476) 
MS1

>  <INSTRUMENT TYPE>  (1476) 
EI-B

>  <INSTRUMENT>  (1476) 
JEOL JMS-D-300

>  <ION MODE>  (1476) 
P

>  <INCHIKEY>  (1476) 
HOEBLAPFNZPWIE-UHFFFAOYSA-N

>  <FORMULA>  (1476) 
C12H16O2

>  <EXACT MASS>  (1476) 
192.115029752

>  <MW>  (1476) 
192

>  <ID>  (1476) 
JP009837

>  <CONTRIBUTOR>  (1476) 
University of Tokyo Team, {Faculty of Engineering, University of Tokyo

>  <COMMENT>  (1476) 
SMILES=CC(=C)C(O)COCc(c1)cccc1
InChI=InChI=1S/C12H16O2/c1-10(2)12(13)9-14-8-11-6-4-3-5-7-11/h3-7,12-13H,1,8-9H2,2H3
computed SMILES=OC(C(=C)C)COCC=1C=CC=CC1
accession=JP009837
date=2016.01.19 (Created 2008.10.21, modified 2011.05.06)
author=KURARAY CO., LTD.
license=CC BY-NC-SA
exact mass=192.11503
ionization energy=70 eV
ion type=[M]+*
computed spectral entropy=1.8101754913854848
computed normalized entropy=0.5623626352407067
SPLASH=splash10-0006-9000000000-4d433a934c3ff993ca8a
submitter=submitter = University of Tokyo Team (Faculty of Engineering, University of Tokyo)
MoNA Rating=3.75

>  <NUM PEAKS>  (1476) 
25

>  <MASS SPECTRAL PEAKS>  (1476) 
27 2
28 4
29 1.4
39 0.45
41 5.2
43 9.2
51 1.6
53 0.12
63 1.2
65 8.8
68 5.9
71 2.63
72 1
77 1.5
79 1
84 0.27
86 1
89 1.3
90 1
91 99.99
92 34.8
93 2.1
105 1.7
107 0.38
144 2.6

>  <PREDICTED SPECTRUM>  (1476) 
26 3
27 74
28 1
29 50
31 35
39 88
41 142
42 57
43 190
44 53
45 112
50 35
51 96
52 43
53 51
54 3
55 46
57 39
58 64
59 66
63 66
64 44
65 213
66 31
67 10
68 24
69 56
70 43
71 192
72 26
73 40
76 4
77 138
78 57
79 160
83 64
84 44
86 31
87 10
89 48
90 82
91 999
92 460
93 87
95 11
101 36
103 19
104 9
105 112
106 3
107 185
108 117
174 16
192 60

$$$$

     RDKit          2D

 14 14  0  0  0  0  0  0  0  0999 V2000
   -5.3834    4.1934    0.0000 C   0  0  0  0  0  0  0  0  0  0  0  0
   -5.9324    2.1443    0.0000 C   0  0  0  0  0  0  0  0  0  0  0  0
   -3.8834    1.5953    0.0000 C   0  0  0  0  0  0  0  0  0  0  0  0
    3.1608    1.3943    0.0000 C   0  0  0  0  0  0  0  0  0  0  0  0
    3.1613    2.8952    0.0000 C   0  0  0  0  0  0  0  0  0  0  0  0
    1.8613    0.6435    0.0000 C   0  0  0  0  0  0  0  0  0  0  0  0
    1.8623    3.6452    0.0000 C   0  0  0  0  0  0  0  0  0  0  0  0
    0.5623    1.3935    0.0000 C   0  0  0  0  0  0  0  0  0  0  0  0
   -0.7363    3.6443    0.0000 C   0  0  0  0  0  0  0  0  0  0  0  0
    0.5627    2.8943    0.0000 C   0  0  0  0  0  0  0  0  0  0  0  0
   -2.0353    2.8943    0.0000 C   0  0  0  0  0  0  0  0  0  0  0  0
   -4.6334    2.8943    0.0000 C   0  0  0  0  0  0  0  0  0  0  0  0
   -2.0353    1.3943    0.0000 O   0  0  0  0  0  0  0  0  0  0  0  0
   -3.3344    3.6443    0.0000 O   0  0  0  0  0  0  0  0  0  0  0  0
  5  4  2  0
  6  4  1  0
  7  5  1  0
  8  6  2  0
 10  7  2  0
 10  8  1  0
 10  9  1  0
 11  9  1  0
 12  1  1  0
 12  2  1  0
 12  3  1  0
 13 11  2  0
 14 11  1  0
 14 12  1  0
M  END
>  <NAME>  (1477) 
TERT-BUTYL PHENYLACETATE

>  <SYNONYMS>  (1477) 
1,1-DIMETHYLETHYL PHENYLACETATE

>  <SPECTRUM TYPE>  (1477) 
MS1

>  <INSTRUMENT TYPE>  (1477) 
EI-B

>  <INSTRUMENT>  (1477) 
JEOL JMS-D-300

>  <ION MODE>  (1477) 
P

>  <INCHIKEY>  (1477) 
QROFQHQXTMKORN-UHFFFAOYSA-N

>  <FORMULA>  (1477) 
C12H16O2

>  <EXACT MASS>  (1477) 
192.115029752

>  <MW>  (1477) 
192

>  <ID>  (1477) 
JP009836

>  <CONTRIBUTOR>  (1477) 
University of Tokyo Team, {Faculty of Engineering, University of Tokyo

>  <COMMENT>  (1477) 
SMILES=O=C(OC(C)(C)C)Cc(c1)cccc1
InChI=InChI=1S/C12H16O2/c1-12(2,3)14-11(13)9-10-7-5-4-6-8-10/h4-8H,9H2,1-3H3
computed SMILES=O=C(OC(C)(C)C)CC=1C=CC=CC1
accession=JP009836
date=2016.01.19 (Created 2008.10.21, modified 2011.05.06)
author=KURARAY CO., LTD.
license=CC BY-NC-SA
exact mass=192.11503
ionization energy=70 eV
ion type=[M]+*
computed spectral entropy=1.748401569869047
computed normalized entropy=0.6171090410600422
SPLASH=splash10-0a4i-9000000000-00249c3b3d165fd7be81
submitter=submitter = University of Tokyo Team (Faculty of Engineering, University of Tokyo)
MoNA Rating=3.75

>  <NUM PEAKS>  (1477) 
17

>  <MASS SPECTRAL PEAKS>  (1477) 
29 4.7
39 5.3
41 16.4
43 0.2
51 1.2
57 99.99
58 3.7
63 0.28
65 9.3
89 3.6
90 3.1
91 6.64
92 19.6
118 1.2
119 9.3
178 0.16
192 1.6

>  <PREDICTED SPECTRUM>  (1477) 
26 12
27 122
28 22
29 282
31 15
37 22
38 61
39 253
40 112
41 487
42 111
43 281
44 109
45 104
50 100
51 156
52 82
53 65
55 171
56 200
57 991
58 238
59 163
62 69
63 177
64 99
65 361
66 65
73 18
74 0
75 14
77 144
78 64
79 70
89 150
90 182
91 999
92 442
93 134
117 8
118 179
119 76
135 64
136 404
137 216
138 78
192 156
193 25

$$$$

     RDKit          2D

 14 14  0  0  0  0  0  0  0  0999 V2000
   -6.8197    3.1321    0.0000 C   0  0  0  0  0  0  0  0  0  0  0  0
    3.5726    1.6321    0.0000 C   0  0  0  0  0  0  0  0  0  0  0  0
    3.5731    3.1329    0.0000 C   0  0  0  0  0  0  0  0  0  0  0  0
    2.2731    0.8813    0.0000 C   0  0  0  0  0  0  0  0  0  0  0  0
    2.2740    3.8829    0.0000 C   0  0  0  0  0  0  0  0  0  0  0  0
    0.9740    1.6313    0.0000 C   0  0  0  0  0  0  0  0  0  0  0  0
   -0.3245    3.8821    0.0000 C   0  0  0  0  0  0  0  0  0  0  0  0
   -1.6236    3.1321    0.0000 C   0  0  0  0  0  0  0  0  0  0  0  0
    0.9745    3.1321    0.0000 C   0  0  0  0  0  0  0  0  0  0  0  0
   -2.9226    3.8821    0.0000 C   0  0  0  0  0  0  0  0  0  0  0  0
   -4.2216    3.1321    0.0000 C   0  0  0  0  0  0  0  0  0  0  0  0
   -2.9226    5.3821    0.0000 O   0  0  0  0  0  0  0  0  0  0  0  0
   -4.2216    1.6321    0.0000 O   0  0  0  0  0  0  0  0  0  0  0  0
   -5.5207    3.8821    0.0000 O   0  0  0  0  0  0  0  0  0  0  0  0
  3  2  2  0
  4  2  1  0
  5  3  1  0
  6  4  2  0
  8  7  1  0
  9  5  2  0
  9  6  1  0
  9  7  1  0
 10  8  1  0
 11 10  1  0
 12 10  2  0
 13 11  2  0
 14  1  1  0
 14 11  1  0
M  END
>  <NAME>  (1478) 
METHYL 2-OXO-4-PHENYLBUTANOATE

>  <SYNONYMS>  (1478) 


>  <SPECTRUM TYPE>  (1478) 
MS1

>  <INSTRUMENT TYPE>  (1478) 
EI-B

>  <INSTRUMENT>  (1478) 
JEOL JMS-D-300

>  <ION MODE>  (1478) 
P

>  <INCHIKEY>  (1478) 
DMZGURNRYOUAGC-UHFFFAOYSA-N

>  <FORMULA>  (1478) 
C11H12O3

>  <EXACT MASS>  (1478) 
192.07864424399997

>  <MW>  (1478) 
192

>  <ID>  (1478) 
JP009835

>  <CONTRIBUTOR>  (1478) 
University of Tokyo Team, {Faculty of Engineering, University of Tokyo

>  <COMMENT>  (1478) 
SMILES=COC(=O)C(=O)CCc(c1)cccc1
InChI=InChI=1S/C11H12O3/c1-14-11(13)10(12)8-7-9-5-3-2-4-6-9/h2-6H,7-8H2,1H3
computed SMILES=O=C(OC)C(=O)CCC=1C=CC=CC1
accession=JP009835
date=2016.01.19 (Created 2008.10.21, modified 2011.05.06)
author=KURARAY CO., LTD.
license=CC BY-NC-SA
exact mass=192.07864
ionization energy=70 eV
ion type=[M]+*
computed spectral entropy=2.084853126449127
computed normalized entropy=0.6847882283988356
SPLASH=splash10-052f-8900000000-8569c4608b8f498998f0
submitter=submitter = University of Tokyo Team (Faculty of Engineering, University of Tokyo)
MoNA Rating=3.75

>  <NUM PEAKS>  (1478) 
21

>  <MASS SPECTRAL PEAKS>  (1478) 
39 3.1
50 1.7
51 7
59 0.17
63 2.5
65 7
77 13.1
78 0.44
79 7.8
91 99.99
92 7.6
103 1.59
104 15
105 84.4
106 7.8
131 0.39
133 40
134 3.3
174 12.1
192 1.96
193 2.3

>  <PREDICTED SPECTRUM>  (1478) 
15 34
26 30
27 130
28 6
31 79
33 0
38 54
39 187
40 59
41 140
42 133
43 95
44 74
45 38
50 170
51 314
52 147
53 149
54 20
55 117
59 277
61 0
62 64
63 168
64 76
65 356
66 78
73 4
74 69
75 42
76 29
77 439
78 256
79 298
87 35
88 37
89 95
90 92
91 999
92 309
101 12
102 87
103 239
104 487
105 939
106 210
115 124
128 21
131 170
132 119
133 540
134 176
174 28
175 53
192 220
193 90

$$$$

     RDKit          2D

 14 15  0  0  0  0  0  0  0  0999 V2000
    4.5370    0.6006    0.0000 C   0  0  0  0  0  0  0  0  0  0  0  0
   -6.0564   -1.6492    0.0000 C   0  0  0  0  0  0  0  0  0  0  0  0
   -4.7570   -2.4002    0.0000 C   0  0  0  0  0  0  0  0  0  0  0  0
   -6.0566   -0.1483    0.0000 C   0  0  0  0  0  0  0  0  0  0  0  0
   -3.4578   -1.6504    0.0000 C   0  0  0  0  0  0  0  0  0  0  0  0
   -4.7575    0.6015    0.0000 C   0  0  0  0  0  0  0  0  0  0  0  0
   -2.1589    0.6002    0.0000 C   0  0  0  0  0  0  0  0  0  0  0  0
   -3.4581   -0.1496    0.0000 C   0  0  0  0  0  0  0  0  0  0  0  0
   -0.8600   -0.1500    0.0000 C   0  0  0  0  0  0  0  0  0  0  0  0
    0.6400   -0.1500    0.0000 C   0  0  0  0  0  0  0  0  0  0  0  0
    1.9389    0.6002    0.0000 C   0  0  0  0  0  0  0  0  0  0  0  0
    1.9387    2.1002    0.0000 O   0  0  0  0  0  0  0  0  0  0  0  0
    3.2381   -0.1496    0.0000 O   0  0  0  0  0  0  0  0  0  0  0  0
   -0.1100   -1.4500    0.0000 O   0  0  0  0  0  0  0  0  0  0  0  0
  3  2  2  0
  4  2  1  0
  5  3  1  0
  6  4  2  0
  8  5  2  0
  8  6  1  0
  8  7  1  0
  9  7  1  0
 10  9  1  0
 11 10  1  0
 12 11  2  0
 13  1  1  0
 13 11  1  0
 14  9  1  0
 14 10  1  0
M  END
>  <NAME>  (1479) 
METHYL 2,3-EPOXY-4-PHENYLBUTANOATE

>  <SYNONYMS>  (1479) 


>  <SPECTRUM TYPE>  (1479) 
MS1

>  <INSTRUMENT TYPE>  (1479) 
EI-B

>  <INSTRUMENT>  (1479) 
JEOL JMS-D-300

>  <ION MODE>  (1479) 
P

>  <INCHIKEY>  (1479) 
IVHYJCFQLLHFHQ-UHFFFAOYSA-N

>  <FORMULA>  (1479) 
C11H12O3

>  <EXACT MASS>  (1479) 
192.07864424399997

>  <MW>  (1479) 
192

>  <ID>  (1479) 
JP009834

>  <CONTRIBUTOR>  (1479) 
University of Tokyo Team, {Faculty of Engineering, University of Tokyo

>  <COMMENT>  (1479) 
SMILES=COC(=O)C(O1)C(Cc(c2)cccc2)1
InChI=InChI=1S/C11H12O3/c1-13-11(12)10-9(14-10)7-8-5-3-2-4-6-8/h2-6,9-10H,7H2,1H3
computed SMILES=O=C(OC)C1OC1CC=2C=CC=CC2
accession=JP009834
date=2016.01.19 (Created 2008.10.21, modified 2011.05.06)
author=KURARAY CO., LTD.
license=CC BY-NC-SA
exact mass=192.07864
ionization energy=70 eV
ion type=[M]+*
computed spectral entropy=2.2102396928661814
computed normalized entropy=0.7259725418607569
SPLASH=splash10-001i-3900000000-e3e48467ebf5ed856c2a
submitter=submitter = University of Tokyo Team (Faculty of Engineering, University of Tokyo)
MoNA Rating=3.75

>  <NUM PEAKS>  (1479) 
21

>  <MASS SPECTRAL PEAKS>  (1479) 
27 2.7
29 1.9
39 3.4
51 0.59
55 18.1
63 2.5
65 6.7
77 1.28
78 7
79 4.7
91 20.2
92 0.17
101 7.2
102 2
103 17.2
104 2.03
105 12.3
115 15.5
131 5.9
133 99.99
134 9.4

>  <PREDICTED SPECTRUM>  (1479) 
15 72
26 39
27 142
28 67
29 88
30 14
31 38
32 4
37 8
38 45
39 216
40 40
41 151
42 84
43 136
44 9
45 59
50 77
51 163
52 89
53 92
55 135
59 80
62 23
63 134
64 36
65 236
66 27
73 95
74 15
75 37
77 215
78 107
79 109
89 128
90 53
91 644
92 174
101 310
102 175
103 114
104 71
105 211
106 116
115 202
116 9
117 121
118 67
131 117
133 999
134 394
135 31
192 98

$$$$

     RDKit          2D

 14 14  0  0  0  0  0  0  0  0999 V2000
   -6.8197    3.1321    0.0000 C   0  0  0  0  0  0  0  0  0  0  0  0
    3.5726    1.6321    0.0000 C   0  0  0  0  0  0  0  0  0  0  0  0
    3.5731    3.1329    0.0000 C   0  0  0  0  0  0  0  0  0  0  0  0
    2.2731    0.8813    0.0000 C   0  0  0  0  0  0  0  0  0  0  0  0
    2.2740    3.8829    0.0000 C   0  0  0  0  0  0  0  0  0  0  0  0
    0.9740    1.6313    0.0000 C   0  0  0  0  0  0  0  0  0  0  0  0
   -0.3245    3.8821    0.0000 C   0  0  0  0  0  0  0  0  0  0  0  0
   -2.9226    3.8821    0.0000 C   0  0  0  0  0  0  0  0  0  0  0  0
    0.9745    3.1321    0.0000 C   0  0  0  0  0  0  0  0  0  0  0  0
   -1.6236    3.1321    0.0000 C   0  0  0  0  0  0  0  0  0  0  0  0
   -4.2216    3.1321    0.0000 C   0  0  0  0  0  0  0  0  0  0  0  0
   -1.6236    1.6321    0.0000 O   0  0  0  0  0  0  0  0  0  0  0  0
   -4.2216    1.6321    0.0000 O   0  0  0  0  0  0  0  0  0  0  0  0
   -5.5207    3.8821    0.0000 O   0  0  0  0  0  0  0  0  0  0  0  0
  3  2  2  0
  4  2  1  0
  5  3  1  0
  6  4  2  0
  9  5  2  0
  9  6  1  0
  9  7  1  0
 10  7  1  0
 10  8  1  0
 11  8  1  0
 12 10  2  0
 13 11  2  0
 14  1  1  0
 14 11  1  0
M  END
>  <NAME>  (1480) 
METHYL 3-OXO-4-PHENYLBUTANOATE

>  <SYNONYMS>  (1480) 


>  <SPECTRUM TYPE>  (1480) 
MS1

>  <INSTRUMENT TYPE>  (1480) 
EI-B

>  <INSTRUMENT>  (1480) 
JEOL JMS-D-300

>  <ION MODE>  (1480) 
P

>  <INCHIKEY>  (1480) 
DTMSEOVTDVSPDO-UHFFFAOYSA-N

>  <FORMULA>  (1480) 
C11H12O3

>  <EXACT MASS>  (1480) 
192.078644244

>  <MW>  (1480) 
192

>  <ID>  (1480) 
JP009833

>  <CONTRIBUTOR>  (1480) 
University of Tokyo Team, {Faculty of Engineering, University of Tokyo

>  <COMMENT>  (1480) 
SMILES=COC(=O)CC(=O)Cc(c1)cccc1
InChI=InChI=1S/C11H12O3/c1-14-11(13)8-10(12)7-9-5-3-2-4-6-9/h2-6H,7-8H2,1H3
computed SMILES=O=C(OC)CC(=O)CC=1C=CC=CC1
accession=JP009833
date=2016.01.19 (Created 2008.10.21, modified 2011.05.06)
author=KURARAY CO., LTD.
license=CC BY-NC-SA
exact mass=192.07864
ionization energy=70 eV
ion type=[M]+*
computed spectral entropy=2.242457496823481
computed normalized entropy=0.6210214552291943
SPLASH=splash10-0006-8900000000-149901ee6791bf9813f3
submitter=submitter = University of Tokyo Team (Faculty of Engineering, University of Tokyo)
MoNA Rating=3.75

>  <NUM PEAKS>  (1480) 
37

>  <MASS SPECTRAL PEAKS>  (1480) 
39 4.7
42 1
45 4.5
50 0.23
51 8.7
52 1.8
62 1.2
63 0.42
64 1.5
65 9.2
66 1.3
73 0.18
74 1.3
75 1.2
76 1.4
77 1.84
78 1.6
79 1.2
89 4.7
90 0.55
91 93.3
92 7.3
102 13.1
103 2.06
104 4.7
105 12.8
118 2.8
119 3.72
120 3.6
131 1.4
132 1
133 0.75
134 7.5
161 1
192 99.99
193 1.23
194 1.5

>  <PREDICTED SPECTRUM>  (1480) 
15 24
27 29
29 24
31 52
38 25
39 200
40 17
41 122
42 100
43 117
44 18
45 22
50 120
51 214
52 66
53 55
57 15
59 224
62 43
63 182
64 8
65 453
66 63
69 198
73 66
74 147
75 32
76 5
77 92
78 23
87 13
89 221
90 171
91 999
92 555
93 56
101 122
102 168
103 7
104 169
105 46
115 62
116 23
118 397
119 202
129 53
131 77
132 145
133 235
134 124
160 118
161 33
192 889
193 275
194 114

$$$$

     RDKit          2D

 11 11  0  0  0  0  0  0  0  0999 V2000
   -5.1970    1.5006    0.0000 C   0  0  0  0  0  0  0  0  0  0  0  0
   -3.8981    0.7504    0.0000 C   0  0  0  0  0  0  0  0  0  0  0  0
    0.0000   -1.5000    0.0000 C   0  0  0  0  0  0  0  0  0  0  0  0
    1.3000    0.7500    0.0000 C   0  0  0  0  0  0  0  0  0  0  0  0
   -1.3000    0.7500    0.0000 C   0  0  0  0  0  0  0  0  0  0  0  0
   -0.0000   -3.0000    0.0000 Cl  0  0  0  0  0  0  0  0  0  0  0  0
    2.5989    1.5002    0.0000 Cl  0  0  0  0  0  0  0  0  0  0  0  0
   -2.5989    1.5002    0.0000 N   0  0  0  0  0  0  0  0  0  0  0  0
    1.3000   -0.7500    0.0000 N   0  0  0  0  0  0  0  0  0  0  0  0
   -1.3000   -0.7500    0.0000 N   0  0  0  0  0  0  0  0  0  0  0  0
    0.0000    1.5000    0.0000 N   0  0  0  0  0  0  0  0  0  0  0  0
  2  1  1  0
  6  3  1  0
  7  4  1  0
  8  2  1  0
  8  5  2  3
  9  3  2  0
  9  4  1  0
 10  3  1  0
 10  5  1  0
 11  4  2  0
 11  5  1  0
M  END
>  <NAME>  (1481) 
2,6-DICHLORO-4-(N-ETHYL)AMINO-1,3,5-TRIAZINE

>  <SYNONYMS>  (1481) 


>  <SPECTRUM TYPE>  (1481) 
MS1

>  <INSTRUMENT TYPE>  (1481) 
EI-B

>  <INSTRUMENT>  (1481) 
JEOL JMS-D-300

>  <ION MODE>  (1481) 
P

>  <INCHIKEY>  (1481) 
ACAHVXOSWOUZAB-UHFFFAOYSA-N

>  <FORMULA>  (1481) 
C5H6Cl2N4

>  <EXACT MASS>  (1481) 
191.99695155199998

>  <MW>  (1481) 
192

>  <ID>  (1481) 
JP009832

>  <CONTRIBUTOR>  (1481) 
University of Tokyo Team, {Faculty of Engineering, University of Tokyo

>  <COMMENT>  (1481) 
SMILES=CCNc(n1)nc(Cl)nc(Cl)1
InChI=InChI=1S/C5H6Cl2N4/c1-2-8-5-10-3(6)9-4(7)11-5/h2H2,1H3,(H,8,9,10,11)
computed SMILES=ClC=1N=C(Cl)NC(N1)=NCC
accession=JP009832
date=2016.01.19 (Created 2008.10.21, modified 2011.05.06)
author=KURARAY CO., LTD.
license=CC BY-NC-SA
exact mass=191.99695
ionization energy=70 eV
ion type=[M]+*
computed spectral entropy=2.9060736446600064
computed normalized entropy=0.7775095022964346
SPLASH=splash10-004i-5900000000-59ae04b852791f4eb26e
submitter=submitter = University of Tokyo Team (Faculty of Engineering, University of Tokyo)
MoNA Rating=3.75

>  <NUM PEAKS>  (1481) 
42

>  <MASS SPECTRAL PEAKS>  (1481) 
27 10.9
29 11.4
36 2
41 0.28
42 6.2
43 4.8
44 26.1
53 0.57
54 2
55 37.9
62 22.5
63 0.16
64 6.9
67 3.3
68 10.3
69 0.91
78 2
87 15.5
88 6.8
89 0.6
90 2
93 3.7
94 5.2
110 0.2
123 2
129 8.7
131 3
149 0.25
164 20.5
166 13.6
168 2.3
177 99.99
178 5.8
179 64.2
180 3.9
181 0.99
191 7.7
192 47.7
193 8.3
194 3.03
195 3
196 4.9

>  <PREDICTED SPECTRUM>  (1481) 
26 13
27 45
28 53
29 6
33 40
34 6
35 86
36 104
37 54
38 141
39 182
40 226
41 222
42 225
43 97
44 122
46 24
47 337
48 98
49 101
50 59
51 158
52 206
53 219
54 211
55 241
56 87
57 84
58 103
60 159
61 180
62 257
63 99
64 174
65 154
66 97
67 216
68 300
74 109
75 172
76 138
77 185
78 12
79 58
80 40
81 127
82 132
83 48
86 149
87 145
88 163
89 203
90 14
91 100
93 104
94 129
95 38
96 138
102 125
103 57
104 31
114 34
115 71
116 8
117 95
127 11
128 68
129 400
130 173
131 170
136 73
137 186
138 86
139 73
141 3
149 333
150 195
151 126
152 204
157 342
158 36
159 201
163 314
164 852
165 400
166 627
167 222
168 96
177 297
179 152
191 59
192 999
193 262
194 747
195 185
196 165

$$$$

     RDKit          2D

 14 14  0  0  0  0  0  0  0  0999 V2000
    2.1868   -3.7140    0.0000 C   0  0  0  0  0  0  0  0  0  0  0  0
   -2.2610    2.0864    0.0000 C   0  0  0  0  0  0  0  0  0  0  0  0
   -4.3099    1.5371    0.0000 C   0  0  0  0  0  0  0  0  0  0  0  0
   -3.7606   -0.5119    0.0000 C   0  0  0  0  0  0  0  0  0  0  0  0
   -0.4116   -2.2142    0.0000 C   0  0  0  0  0  0  0  0  0  0  0  0
    0.8869    0.0366    0.0000 C   0  0  0  0  0  0  0  0  0  0  0  0
   -1.7111   -1.4634    0.0000 C   0  0  0  0  0  0  0  0  0  0  0  0
   -0.4126    0.7875    0.0000 C   0  0  0  0  0  0  0  0  0  0  0  0
    3.4855   -1.4638    0.0000 C   0  0  0  0  0  0  0  0  0  0  0  0
    2.1866   -2.2140    0.0000 C   0  0  0  0  0  0  0  0  0  0  0  0
    0.8874   -1.4642    0.0000 C   0  0  0  0  0  0  0  0  0  0  0  0
   -1.7116    0.0375    0.0000 C   0  0  0  0  0  0  0  0  0  0  0  0
   -3.0108    0.7873    0.0000 C   0  0  0  0  0  0  0  0  0  0  0  0
    4.7847   -2.2136    0.0000 O   0  0  0  0  0  0  0  0  0  0  0  0
  7  5  2  0
  8  6  1  0
 10  1  1  0
 10  9  1  0
 11  5  1  0
 11  6  2  0
 11 10  1  0
 12  7  1  0
 12  8  2  0
 13  2  1  0
 13  3  1  0
 13  4  1  0
 13 12  1  0
 14  9  2  0
M  END
>  <NAME>  (1482) 
2-(4-TERT-BUTYLPHENYL)PROPANAL

>  <SYNONYMS>  (1482) 
2-(4-(1,1-DIMETHYLETHYL)PHENYL)PROPANAL

>  <SPECTRUM TYPE>  (1482) 
MS1

>  <INSTRUMENT TYPE>  (1482) 
EI-B

>  <INSTRUMENT>  (1482) 
JEOL JMS-D-300

>  <ION MODE>  (1482) 
P

>  <INCHIKEY>  (1482) 
SNOVXNPIRUDJNG-UHFFFAOYSA-N

>  <FORMULA>  (1482) 
C13H18O

>  <EXACT MASS>  (1482) 
190.135765196

>  <MW>  (1482) 
190

>  <ID>  (1482) 
JP009831

>  <CONTRIBUTOR>  (1482) 
University of Tokyo Team, {Faculty of Engineering, University of Tokyo

>  <COMMENT>  (1482) 
SMILES=O=CC(C)c(c1)ccc(c1)C(C)(C)C
InChI=InChI=1S/C13H18O/c1-10(9-14)11-5-7-12(8-6-11)13(2,3)4/h5-10H,1-4H3
computed SMILES=O=CC(C1=CC=C(C=C1)C(C)(C)C)C
accession=JP009831
date=2016.01.19 (Created 2008.10.21, modified 2011.05.06)
author=KURARAY CO., LTD.
license=CC BY-NC-SA
exact mass=190.13577
ionization energy=70 eV
ion type=[M]+*
computed spectral entropy=1.264988388945856
computed normalized entropy=0.7060034623346245
SPLASH=splash10-03di-2900000000-883e8d9462d0a2111e27
submitter=submitter = University of Tokyo Team (Faculty of Engineering, University of Tokyo)
MoNA Rating=3.75

>  <NUM PEAKS>  (1482) 
6

>  <MASS SPECTRAL PEAKS>  (1482) 
57 45.8
145 13.1
161 99.99
162 1.41
175 12.3
190 12.5

>  <PREDICTED SPECTRUM>  (1482) 
15 31
26 34
27 201
28 58
29 235
32 3
33 22
34 16
37 18
38 69
39 331
40 128
41 502
42 75
43 140
44 38
50 137
51 241
52 129
53 196
54 20
55 244
56 46
57 301
58 71
62 67
63 187
64 125
65 271
66 73
67 103
69 80
71 48
74 43
75 95
76 134
77 359
78 211
79 247
80 57
81 22
82 23
83 28
86 50
87 36
88 7
89 153
90 81
91 702
92 203
93 78
95 46
96 34
97 13
102 141
103 258
104 159
105 305
106 151
107 26
115 401
116 219
117 457
118 248
119 253
120 86
121 16
127 152
128 270
129 261
130 93
131 228
132 95
133 288
134 90
141 38
143 116
144 57
145 234
146 197
147 356
148 138
149 15
157 62
158 18
159 65
161 999
162 388
163 100
175 353
176 128
189 15
190 333
191 111
192 28

$$$$

     RDKit          2D

 14 14  0  0  0  0  0  0  0  0999 V2000
   -4.8712    5.7571    0.0000 C   0  0  0  0  0  0  0  0  0  0  0  0
    4.2221    2.0071    0.0000 C   0  0  0  0  0  0  0  0  0  0  0  0
    4.2226    3.5079    0.0000 C   0  0  0  0  0  0  0  0  0  0  0  0
    2.9226    1.2563    0.0000 C   0  0  0  0  0  0  0  0  0  0  0  0
    2.9236    4.2579    0.0000 C   0  0  0  0  0  0  0  0  0  0  0  0
    1.6236    2.0063    0.0000 C   0  0  0  0  0  0  0  0  0  0  0  0
   -3.5721    3.5071    0.0000 C   0  0  0  0  0  0  0  0  0  0  0  0
   -2.2731    4.2571    0.0000 C   0  0  0  0  0  0  0  0  0  0  0  0
   -6.1702    3.5071    0.0000 C   0  0  0  0  0  0  0  0  0  0  0  0
    0.3250    4.2571    0.0000 C   0  0  0  0  0  0  0  0  0  0  0  0
   -4.8712    4.2571    0.0000 C   0  0  0  0  0  0  0  0  0  0  0  0
    1.6240    3.5071    0.0000 C   0  0  0  0  0  0  0  0  0  0  0  0
   -7.4692    4.2571    0.0000 O   0  0  0  0  0  0  0  0  0  0  0  0
   -0.9740    3.5071    0.0000 O   0  0  0  0  0  0  0  0  0  0  0  0
  3  2  2  0
  4  2  1  0
  5  3  1  0
  6  4  2  0
  8  7  1  0
 11  1  1  0
  7 11  2  0
 11  9  1  0
 12  5  2  0
 12  6  1  0
 12 10  1  0
 13  9  2  0
 14  8  1  0
 14 10  1  0
M  END
>  <NAME>  (1483) 
4-BENZYLOXY-2-METHYL-2-BUTENAL

>  <SYNONYMS>  (1483) 


>  <SPECTRUM TYPE>  (1483) 
MS1

>  <INSTRUMENT TYPE>  (1483) 
EI-B

>  <INSTRUMENT>  (1483) 
JEOL JMS-D-300

>  <ION MODE>  (1483) 
P

>  <INCHIKEY>  (1483) 
DCVWTVWAMAMRST-YRNVUSSQSA-N

>  <FORMULA>  (1483) 
C12H14O2

>  <EXACT MASS>  (1483) 
190.099379688

>  <MW>  (1483) 
190

>  <ID>  (1483) 
JP009830

>  <CONTRIBUTOR>  (1483) 
University of Tokyo Team, {Faculty of Engineering, University of Tokyo

>  <COMMENT>  (1483) 
SMILES=O=CC(C)=CCOCc(c1)cccc1
InChI=InChI=1S/C12H14O2/c1-11(9-13)7-8-14-10-12-5-3-2-4-6-12/h2-7,9H,8,10H2,1H3/b11-7+
computed SMILES=O=CC(=CCOCC=1C=CC=CC1)C
accession=JP009830
date=2016.01.19 (Created 2008.10.21, modified 2011.05.06)
author=KURARAY CO., LTD.
license=CC BY-NC-SA
exact mass=190.09938
ionization energy=70 eV
ion type=[M]+*
computed spectral entropy=2.155613335556338
computed normalized entropy=0.669678935391862
SPLASH=splash10-0006-9100000000-6752db6fd58ba1ebaa7f
submitter=submitter = University of Tokyo Team (Faculty of Engineering, University of Tokyo)
MoNA Rating=3.75

>  <NUM PEAKS>  (1483) 
25

>  <MASS SPECTRAL PEAKS>  (1483) 
27 2.5
29 2.5
39 6.5
41 0.31
51 4.5
53 2.2
55 5.2
63 0.19
65 11.6
77 8.8
79 8.4
82 0.26
83 2.5
84 11.9
89 2.5
91 99.99
92 34.4
99 1.9
105 2.7
107 0.33
132 6.3
145 4.9
160 6.8
161 0.14
172 1.8

>  <PREDICTED SPECTRUM>  (1483) 
26 9
27 82
28 24
29 41
31 25
38 11
39 155
40 32
41 167
42 79
43 174
44 20
45 105
50 51
51 128
52 63
53 58
54 7
55 102
56 20
59 3
62 18
63 93
64 36
65 258
66 32
67 37
68 18
69 104
70 21
71 70
77 158
78 83
79 122
80 1
82 12
83 96
84 130
85 52
86 6
89 109
90 74
91 999
92 382
93 32
99 81
103 15
104 58
105 132
106 88
107 163
108 18
115 13
117 4
120 3
132 23
145 28
161 25
172 22
175 36
190 42

$$$$

     RDKit          2D

 14 15  0  0  0  0  0  0  0  0999 V2000
    1.0567   -2.3735    0.0000 C   0  0  0  0  0  0  0  0  0  0  0  0
    2.5838   -0.2716    0.0000 C   0  0  0  0  0  0  0  0  0  0  0  0
   -6.8083    0.7500    0.0000 C   0  0  0  0  0  0  0  0  0  0  0  0
   -6.0583   -0.5500    0.0000 C   0  0  0  0  0  0  0  0  0  0  0  0
   -6.0583    2.0500    0.0000 C   0  0  0  0  0  0  0  0  0  0  0  0
   -4.5583   -0.5500    0.0000 C   0  0  0  0  0  0  0  0  0  0  0  0
   -4.5583    2.0500    0.0000 C   0  0  0  0  0  0  0  0  0  0  0  0
    0.0000    1.5000    0.0000 C   0  0  0  0  0  0  0  0  0  0  0  0
    1.2135   -0.8817    0.0000 C   0  0  0  0  0  0  0  0  0  0  0  0
   -3.8083    0.7500    0.0000 C   0  0  0  0  0  0  0  0  0  0  0  0
    0.0000    0.0000    0.0000 C   0  0  0  0  0  0  0  0  0  0  0  0
   -2.3083    0.7500    0.0000 C   0  0  0  0  0  0  0  0  0  0  0  0
   -1.4266    1.9635    0.0000 O   0  0  0  0  0  0  0  0  0  0  0  0
   -1.4266   -0.4635    0.0000 O   0  0  0  0  0  0  0  0  0  0  0  0
  4  3  2  0
  5  3  1  0
  6  4  1  0
  7  5  2  0
  9  1  2  0
  9  2  1  0
 10  6  2  0
 10  7  1  0
 11  8  1  0
 11  9  1  0
 12 10  1  0
 13  8  1  0
 13 12  1  0
 14 11  1  0
 14 12  1  0
M  END
>  <NAME>  (1484) 
4-(1-METHYLETHENYL)-2-PHENYL-1,3-DIOXOLANE

>  <SYNONYMS>  (1484) 


>  <SPECTRUM TYPE>  (1484) 
MS1

>  <INSTRUMENT TYPE>  (1484) 
EI-B

>  <INSTRUMENT>  (1484) 
JEOL JMS-D-300

>  <ION MODE>  (1484) 
P

>  <INCHIKEY>  (1484) 
QIQZXVSZGSDFQR-UHFFFAOYSA-N

>  <FORMULA>  (1484) 
C12H14O2

>  <EXACT MASS>  (1484) 
190.099379688

>  <MW>  (1484) 
190

>  <ID>  (1484) 
JP009829

>  <CONTRIBUTOR>  (1484) 
University of Tokyo Team, {Faculty of Engineering, University of Tokyo

>  <COMMENT>  (1484) 
SMILES=CC(=C)C(C2)OC(O2)c(c1)cccc1
InChI=InChI=1S/C12H14O2/c1-9(2)11-8-13-12(14-11)10-6-4-3-5-7-10/h3-7,11-12H,1,8H2,2H3
computed SMILES=O1CC(OC1C=2C=CC=CC2)C(=C)C
accession=JP009829
date=2016.01.19 (Created 2008.10.21, modified 2011.05.06)
author=KURARAY CO., LTD.
license=CC BY-NC-SA
exact mass=190.09938
ionization energy=70 eV
ion type=[M]+*
computed spectral entropy=3.0212513897138775
computed normalized entropy=0.8032679189569686
SPLASH=splash10-066u-9600000000-4f18271cdb5c04fd0163
submitter=submitter = University of Tokyo Team (Faculty of Engineering, University of Tokyo)
MoNA Rating=3.75

>  <NUM PEAKS>  (1484) 
43

>  <MASS SPECTRAL PEAKS>  (1484) 
27 5
29 4.7
39 15.6
40 0.31
41 13
42 3.1
43 6.4
50 0.58
51 15.8
52 3.9
53 7.8
55 0.47
57 7.8
63 5.5
64 2.7
65 0.3
67 9.7
68 83.3
69 10
77 3.52
78 10.8
79 8.6
85 7
89 1.63
90 25.8
91 48.4
92 23.1
104 0.55
105 99.99
106 10.9
107 3
113 0.63
117 4.8
118 3.4
119 29.4
120 2.11
131 14.5
144 4.7
145 13.8
159 0.67
160 7.8
189 20.3
190 2.5

>  <PREDICTED SPECTRUM>  (1484) 
26 44
27 170
28 46
29 70
31 54
32 8
36 8
37 14
38 66
39 296
40 152
41 410
42 172
43 247
44 65
49 18
50 154
51 311
52 155
53 200
54 86
55 205
56 102
57 26
61 12
62 49
63 156
64 40
65 172
66 78
67 343
68 406
69 254
70 93
74 19
75 42
76 44
77 533
78 254
79 314
83 58
84 218
85 178
86 16
89 190
90 167
91 708
92 243
93 87
94 1
99 18
101 7
103 140
104 121
105 999
106 468
107 79
116 20
117 96
118 98
119 255
120 153
121 96
122 21
123 72
128 1
129 124
130 2
131 161
132 73
133 25
134 31
144 100
145 205
146 41
147 133
148 55
149 57
159 156
160 173
161 100
162 19
163 21
175 5
189 387
190 331
191 96

$$$$

     RDKit          2D

 14 14  0  0  0  0  0  0  0  0999 V2000
   -5.5207    5.3821    0.0000 C   0  0  0  0  0  0  0  0  0  0  0  0
   -6.8197    3.1321    0.0000 C   0  0  0  0  0  0  0  0  0  0  0  0
    3.5726    1.6321    0.0000 C   0  0  0  0  0  0  0  0  0  0  0  0
    3.5731    3.1329    0.0000 C   0  0  0  0  0  0  0  0  0  0  0  0
    2.2731    0.8813    0.0000 C   0  0  0  0  0  0  0  0  0  0  0  0
    2.2740    3.8829    0.0000 C   0  0  0  0  0  0  0  0  0  0  0  0
    0.9740    1.6313    0.0000 C   0  0  0  0  0  0  0  0  0  0  0  0
   -0.3245    3.8821    0.0000 C   0  0  0  0  0  0  0  0  0  0  0  0
   -2.9226    3.8821    0.0000 C   0  0  0  0  0  0  0  0  0  0  0  0
   -5.5207    3.8821    0.0000 C   0  0  0  0  0  0  0  0  0  0  0  0
    0.9745    3.1321    0.0000 C   0  0  0  0  0  0  0  0  0  0  0  0
   -4.2216    3.1321    0.0000 C   0  0  0  0  0  0  0  0  0  0  0  0
   -4.2216    1.6321    0.0000 O   0  0  0  0  0  0  0  0  0  0  0  0
   -1.6236    3.1321    0.0000 O   0  0  0  0  0  0  0  0  0  0  0  0
  4  3  2  0
  5  3  1  0
  6  4  1  0
  7  5  2  0
 10  1  2  0
 10  2  1  0
 11  6  2  0
 11  7  1  0
 11  8  1  0
 12  9  1  0
 12 10  1  0
 13 12  2  0
 14  8  1  0
 14  9  1  0
M  END
>  <NAME>  (1485) 
4-BENZYLOXY-2-METHYL-1-BUTEN-3-ONE

>  <SYNONYMS>  (1485) 
BENZYL METHACRYLOYLMETHYL ETHER

>  <SPECTRUM TYPE>  (1485) 
MS1

>  <INSTRUMENT TYPE>  (1485) 
EI-B

>  <INSTRUMENT>  (1485) 
JEOL JMS-D-300

>  <ION MODE>  (1485) 
P

>  <INCHIKEY>  (1485) 
MTTACSFQMRIJPO-UHFFFAOYSA-N

>  <FORMULA>  (1485) 
C12H14O2

>  <EXACT MASS>  (1485) 
190.099379688

>  <MW>  (1485) 
190

>  <ID>  (1485) 
JP009828

>  <CONTRIBUTOR>  (1485) 
University of Tokyo Team, {Faculty of Engineering, University of Tokyo

>  <COMMENT>  (1485) 
SMILES=CC(=C)C(=O)COCc(c1)cccc1
InChI=InChI=1S/C12H14O2/c1-10(2)12(13)9-14-8-11-6-4-3-5-7-11/h3-7H,1,8-9H2,2H3
computed SMILES=O=C(C(=C)C)COCC=1C=CC=CC1
accession=JP009828
date=2016.01.19 (Created 2008.10.21, modified 2011.05.06)
author=KURARAY CO., LTD.
license=CC BY-NC-SA
exact mass=190.09938
ionization energy=70 eV
ion type=[M]+*
computed spectral entropy=2.0299576294595245
computed normalized entropy=0.6474123342810829
SPLASH=splash10-0006-9000000000-a826098f6a5a61daddbe
submitter=submitter = University of Tokyo Team (Faculty of Engineering, University of Tokyo)
MoNA Rating=3.75

>  <NUM PEAKS>  (1485) 
23

>  <MASS SPECTRAL PEAKS>  (1485) 
27 1.2
28 3.5
29 1
39 1
41 33.4
42 1.6
43 2
50 0.1
51 3.4
63 2.3
65 12.3
69 5.31
70 2.4
77 3
79 1.2
84 6.3
85 6.4
89 5.5
90 1.4
91 99.99
92 8.8
105 2.3
107 7.7

>  <PREDICTED SPECTRUM>  (1485) 
12 1
26 16
27 108
28 55
29 87
31 16
36 13
37 23
38 63
39 218
40 90
41 288
42 104
43 131
44 12
45 64
49 0
50 94
51 163
52 88
53 79
54 10
55 124
56 97
57 153
62 54
63 139
64 80
65 284
66 58
67 53
68 28
69 175
70 75
71 60
74 21
75 4
76 6
77 187
78 53
79 118
82 30
83 115
84 133
85 72
87 12
89 111
90 78
91 999
92 360
93 63
99 9
104 18
105 103
106 4
107 179
108 47
111 17
118 3
190 33

$$$$

     RDKit          2D

 14 14  0  0  0  0  0  0  0  0999 V2000
   -6.8197    3.1321    0.0000 C   0  0  0  0  0  0  0  0  0  0  0  0
    3.5726    1.6321    0.0000 C   0  0  0  0  0  0  0  0  0  0  0  0
    3.5731    3.1329    0.0000 C   0  0  0  0  0  0  0  0  0  0  0  0
    2.2731    0.8813    0.0000 C   0  0  0  0  0  0  0  0  0  0  0  0
    2.2740    3.8829    0.0000 C   0  0  0  0  0  0  0  0  0  0  0  0
    0.9740    1.6313    0.0000 C   0  0  0  0  0  0  0  0  0  0  0  0
   -0.3245    3.8821    0.0000 C   0  0  0  0  0  0  0  0  0  0  0  0
   -1.6236    3.1321    0.0000 C   0  0  0  0  0  0  0  0  0  0  0  0
    0.9745    3.1321    0.0000 C   0  0  0  0  0  0  0  0  0  0  0  0
   -2.9226    3.8821    0.0000 C   0  0  0  0  0  0  0  0  0  0  0  0
   -4.2216    3.1321    0.0000 C   0  0  0  0  0  0  0  0  0  0  0  0
   -2.9226    5.3821    0.0000 O   0  0  0  0  0  0  0  0  0  0  0  0
   -4.2216    1.6321    0.0000 O   0  0  0  0  0  0  0  0  0  0  0  0
   -5.5207    3.8821    0.0000 O   0  0  0  0  0  0  0  0  0  0  0  0
  3  2  2  0
  4  2  1  0
  5  3  1  0
  6  4  2  0
  7  8  2  0
  9  5  2  0
  9  6  1  0
  9  7  1  0
 10  8  1  0
 11 10  1  0
 12 10  2  0
 13 11  2  0
 14  1  1  0
 14 11  1  0
M  END
>  <NAME>  (1486) 
METHYL 4-PHENYL-2-OXO-3-BUTENOATE

>  <SYNONYMS>  (1486) 


>  <SPECTRUM TYPE>  (1486) 
MS1

>  <INSTRUMENT TYPE>  (1486) 
EI-B

>  <INSTRUMENT>  (1486) 
JEOL JMS-D-300

>  <ION MODE>  (1486) 
P

>  <INCHIKEY>  (1486) 
ZWDYRZGSCHGREX-BQYQJAHWSA-N

>  <FORMULA>  (1486) 
C11H10O3

>  <EXACT MASS>  (1486) 
190.06299417999998

>  <MW>  (1486) 
190

>  <ID>  (1486) 
JP009827

>  <CONTRIBUTOR>  (1486) 
University of Tokyo Team, {Faculty of Engineering, University of Tokyo

>  <COMMENT>  (1486) 
SMILES=COC(=O)C(=O)C=Cc(c1)cccc1
InChI=InChI=1S/C11H10O3/c1-14-11(13)10(12)8-7-9-5-3-2-4-6-9/h2-8H,1H3/b8-7+
computed SMILES=O=C(OC)C(=O)C=CC=1C=CC=CC1
accession=JP009827
date=2016.01.19 (Created 2008.10.21, modified 2011.05.06)
author=KURARAY CO., LTD.
license=CC BY-NC-SA
exact mass=190.06299
ionization energy=70 eV
ion type=[M]+*
computed spectral entropy=1.3986689988044798
computed normalized entropy=0.5164856243193735
SPLASH=splash10-001i-2900000000-93d0a927c97390ca079c
submitter=submitter = University of Tokyo Team (Faculty of Engineering, University of Tokyo)
MoNA Rating=3.75

>  <NUM PEAKS>  (1486) 
15

>  <MASS SPECTRAL PEAKS>  (1486) 
32 1.9
45 3.3
50 3
51 1.06
76 1.6
77 20.2
102 5
103 4.25
104 3.8
128 1.6
131 99.99
132 0.95
135 1.6
148 1.6
190 3.1

>  <PREDICTED SPECTRUM>  (1486) 
14 1
15 73
26 0
27 9
28 25
29 49
37 25
38 54
39 183
40 49
41 28
42 40
44 46
50 246
51 401
52 157
53 121
55 57
59 182
62 68
63 169
64 14
65 81
69 27
71 24
74 97
75 162
76 163
77 517
78 141
79 1
89 81
90 2
91 28
101 98
102 347
103 652
104 188
105 48
121 24
131 999
132 283
133 71
162 35
190 189
191 37

$$$$

     RDKit          2D

 13 12  0  0  0  0  0  0  0  0999 V2000
    7.6917    3.5143    0.0000 C   0  0  0  0  0  0  0  0  0  0  0  0
    6.1917    0.9162    0.0000 C   0  0  0  0  0  0  0  0  0  0  0  0
    0.7813    1.0662    0.0000 C   0  0  0  0  0  0  0  0  0  0  0  0
    2.7097    1.0662    0.0000 C   0  0  0  0  0  0  0  0  0  0  0  0
    0.4465    2.9653    0.0000 C   0  0  0  0  0  0  0  0  0  0  0  0
    5.6426    2.9653    0.0000 C   0  0  0  0  0  0  0  0  0  0  0  0
   -0.8526    2.2153    0.0000 C   0  0  0  0  0  0  0  0  0  0  0  0
    4.3436    2.2153    0.0000 C   0  0  0  0  0  0  0  0  0  0  0  0
    6.9417    2.2153    0.0000 C   0  0  0  0  0  0  0  0  0  0  0  0
    1.7455    2.2153    0.0000 C   0  0  0  0  0  0  0  0  0  0  0  0
   -2.1516    2.9653    0.0000 O   0  0  0  0  0  0  0  0  0  0  0  0
    8.2407    1.4653    0.0000 O   0  0  0  0  0  0  0  0  0  0  0  0
    3.0445    2.9653    0.0000 O   0  0  0  0  0  0  0  0  0  0  0  0
  7  5  1  0
  8  6  1  0
  9  1  1  0
  9  2  1  0
  9  6  1  0
 10  3  1  0
 10  4  1  0
 10  5  1  0
 11  7  1  0
 12  9  1  0
 13  8  1  0
 13 10  1  0
M  END
>  <NAME>  (1487) 
3-METHYL-3-(3-HYDROXY-3-METHYLBUTOXY)BUTANOL

>  <SYNONYMS>  (1487) 


>  <SPECTRUM TYPE>  (1487) 
MS1

>  <INSTRUMENT TYPE>  (1487) 
EI-B

>  <INSTRUMENT>  (1487) 
JEOL JMS-D-300

>  <ION MODE>  (1487) 
P

>  <INCHIKEY>  (1487) 
CASYYYJJAUURRZ-UHFFFAOYSA-N

>  <FORMULA>  (1487) 
C10H22O3

>  <EXACT MASS>  (1487) 
190.15689456399997

>  <MW>  (1487) 
190

>  <ID>  (1487) 
JP009826

>  <CONTRIBUTOR>  (1487) 
University of Tokyo Team, {Faculty of Engineering, University of Tokyo

>  <COMMENT>  (1487) 
SMILES=OCCC(C)(C)OCCC(C)(C)O
InChI=InChI=1S/C10H22O3/c1-9(2,12)6-8-13-10(3,4)5-7-11/h11-12H,5-8H2,1-4H3
computed SMILES=OCCC(OCCC(O)(C)C)(C)C
accession=JP009826
date=2016.01.19 (Created 2008.10.21, modified 2011.05.06)
author=KURARAY CO., LTD.
license=CC BY-NC-SA
exact mass=190.15689
ionization energy=70 eV
ion type=[M]+*
computed spectral entropy=2.5284788866029846
computed normalized entropy=0.750893005623786
SPLASH=splash10-066u-9000000000-fb548c5073c47a83ebbb
submitter=submitter = University of Tokyo Team (Faculty of Engineering, University of Tokyo)
MoNA Rating=3.75

>  <NUM PEAKS>  (1487) 
29

>  <MASS SPECTRAL PEAKS>  (1487) 
29 2.5
30 5
31 8.6
39 0.47
41 27.3
43 28.1
45 13.4
46 0.16
55 5
56 7.8
57 7.7
58 0.28
59 53.3
68 4.5
69 99.99
70 1.25
71 16.9
72 1.7
73 13.3
77 0.31
85 3.1
86 4.7
87 20.3
89 5.83
90 4.2
103 1.1
119 1.3
121 0.15
145 12.5

>  <PREDICTED SPECTRUM>  (1487) 
14 3
19 18
26 26
27 168
28 54
29 245
30 67
31 294
32 19
33 16
38 16
39 172
40 80
41 549
42 159
43 521
44 72
45 153
46 4
53 93
55 288
56 236
57 247
58 205
59 676
60 128
67 64
68 158
69 999
70 252
71 498
72 64
73 227
74 48
85 204
86 162
87 420
88 89
89 80
99 18
103 22
104 24
105 63
115 26
127 14
128 45
143 1
144 37
145 32

$$$$

     RDKit          2D

 13 12  0  0  0  0  0  0  0  0999 V2000
    2.9228    3.9375    0.0000 C   0  0  0  0  0  0  0  0  0  0  0  0
    1.6238    6.1875    0.0000 C   0  0  0  0  0  0  0  0  0  0  0  0
   -2.6082    5.8366    0.0000 C   0  0  0  0  0  0  0  0  0  0  0  0
   -0.9743    4.6875    0.0000 C   0  0  0  0  0  0  0  0  0  0  0  0
    0.3248    3.9375    0.0000 C   0  0  0  0  0  0  0  0  0  0  0  0
   -2.2733    3.9375    0.0000 C   0  0  0  0  0  0  0  0  0  0  0  0
   -6.1704    4.6875    0.0000 C   0  0  0  0  0  0  0  0  0  0  0  0
    1.6238    4.6875    0.0000 C   0  0  0  0  0  0  0  0  0  0  0  0
   -4.8714    3.9375    0.0000 C   0  0  0  0  0  0  0  0  0  0  0  0
   -3.5724    4.6875    0.0000 C   0  0  0  0  0  0  0  0  0  0  0  0
   -7.4695    3.9375    0.0000 O   0  0  0  0  0  0  0  0  0  0  0  0
   -4.8714    2.4375    0.0000 O   0  0  0  0  0  0  0  0  0  0  0  0
   -4.5365    5.8366    0.0000 O   0  0  0  0  0  0  0  0  0  0  0  0
  5  4  1  0
  6  4  1  0
  8  1  1  0
  8  2  1  0
  8  5  1  0
  9  7  1  0
 10  3  1  0
 10  6  1  0
 10  9  1  0
 11  7  1  0
 12  9  1  0
 13 10  1  0
M  END
>  <NAME>  (1488) 
3,7-DIMETHYL-1,2,3-OCTANETRIOL

>  <SYNONYMS>  (1488) 


>  <SPECTRUM TYPE>  (1488) 
MS1

>  <INSTRUMENT TYPE>  (1488) 
EI-B

>  <INSTRUMENT>  (1488) 
JEOL JMS-D-300

>  <ION MODE>  (1488) 
P

>  <INCHIKEY>  (1488) 
AXSMBYNAYXIVCP-UHFFFAOYSA-N

>  <FORMULA>  (1488) 
C10H22O3

>  <EXACT MASS>  (1488) 
190.156894564

>  <MW>  (1488) 
190

>  <ID>  (1488) 
JP009825

>  <CONTRIBUTOR>  (1488) 
University of Tokyo Team, {Faculty of Engineering, University of Tokyo

>  <COMMENT>  (1488) 
SMILES=CC(C)CCCC(C)(O)C(O)CO
InChI=InChI=1S/C10H22O3/c1-8(2)5-4-6-10(3,13)9(12)7-11/h8-9,11-13H,4-7H2,1-3H3
computed SMILES=OCC(O)C(O)(C)CCCC(C)C
accession=JP009825
date=2016.01.19 (Created 2008.10.21, modified 2011.05.06)
author=KURARAY CO., LTD.
license=CC BY-NC-SA
exact mass=190.15689
ionization energy=70 eV
ion type=[M]+*
computed spectral entropy=2.6206043385964612
computed normalized entropy=0.725744644989016
SPLASH=splash10-066u-9200000000-3794767c696da3105a7a
submitter=submitter = University of Tokyo Team (Faculty of Engineering, University of Tokyo)
MoNA Rating=3.75

>  <NUM PEAKS>  (1488) 
37

>  <MASS SPECTRAL PEAKS>  (1488) 
27 3.2
29 4.9
31 3.3
39 0.36
41 14.6
42 1.4
43 43.1
44 0.79
45 8.4
53 1.4
55 24
56 0.26
57 8.6
58 11.8
59 5.4
61 0.69
67 1.9
69 99.99
70 7.8
71 1.09
73 1.9
75 1.5
81 3.1
83 0.35
85 2.7
87 7.3
95 4.9
97 0.22
105 23.2
106 1.3
109 1.2
110 0.13
111 35.4
112 3.2
123 4.9
129 3.33
130 2.9

>  <PREDICTED SPECTRUM>  (1488) 
19 11
26 23
27 317
28 82
29 317
30 0
31 314
33 17
38 7
39 195
40 74
41 608
42 162
43 999
44 108
45 412
46 12
47 12
53 171
54 1
55 790
56 320
57 574
58 386
59 312
60 79
61 247
62 30
63 2
65 72
67 226
68 60
69 987
70 411
71 584
72 238
73 254
74 37
76 29
77 53
81 249
83 82
85 87
86 53
87 181
88 20
89 106
90 38
91 50
93 97
95 255
96 21
97 278
99 112
100 1
101 32
102 19
103 137
104 165
105 527
106 79
109 418
110 8
111 404
112 242
113 148
115 210
129 241
130 18
137 115
141 23

$$$$

     RDKit          2D

 12 11  0  0  0  0  0  0  0  0999 V2000
   -7.4695    3.9375    0.0000 C   0  0  0  0  0  0  0  0  0  0  0  0
    0.3248    5.4375    0.0000 C   0  0  0  0  0  0  0  0  0  0  0  0
    1.6238    3.1875    0.0000 C   0  0  0  0  0  0  0  0  0  0  0  0
   -0.9743    6.1875    0.0000 C   0  0  0  0  0  0  0  0  0  0  0  0
   -6.1704    3.1875    0.0000 C   0  0  0  0  0  0  0  0  0  0  0  0
   -4.8714    3.9375    0.0000 C   0  0  0  0  0  0  0  0  0  0  0  0
   -3.5724    3.1875    0.0000 C   0  0  0  0  0  0  0  0  0  0  0  0
    0.3248    3.9375    0.0000 C   0  0  0  0  0  0  0  0  0  0  0  0
   -2.2733    3.9375    0.0000 C   0  0  0  0  0  0  0  0  0  0  0  0
   -0.9743    3.1875    0.0000 C   0  0  0  0  0  0  0  0  0  0  0  0
   -0.9743    1.6875    0.0000 Cl  0  0  0  0  0  0  0  0  0  0  0  0
   -2.2733    5.4375    0.0000 O   0  0  0  0  0  0  0  0  0  0  0  0
  5  1  1  0
  6  5  1  0
  7  6  1  0
  8  2  2  0
  8  3  1  0
  9  7  1  0
 10  8  1  0
 10  9  1  0
 11 10  1  0
 12  4  1  0
 12  9  1  0
M  END
>  <NAME>  (1489) 
3-CHLORO-4-METHOXY-2-METHYL-1-OCTENE

>  <SYNONYMS>  (1489) 


>  <SPECTRUM TYPE>  (1489) 
MS1

>  <INSTRUMENT TYPE>  (1489) 
EI-B

>  <INSTRUMENT>  (1489) 
JEOL JMS-D-300

>  <ION MODE>  (1489) 
P

>  <INCHIKEY>  (1489) 
ZGVARBJHFUAWRR-UHFFFAOYSA-N

>  <FORMULA>  (1489) 
C10H19ClO

>  <EXACT MASS>  (1489) 
190.112442908

>  <MW>  (1489) 
190

>  <ID>  (1489) 
JP009824

>  <CONTRIBUTOR>  (1489) 
University of Tokyo Team, {Faculty of Engineering, University of Tokyo

>  <COMMENT>  (1489) 
SMILES=CCCCC(OC)C(Cl)C(C)=C
InChI=InChI=1S/C10H19ClO/c1-5-6-7-9(12-4)10(11)8(2)3/h9-10H,2,5-7H2,1,3-4H3
computed SMILES=ClC(C(=C)C)C(OC)CCCC
accession=JP009824
date=2016.01.19 (Created 2008.10.21, modified 2011.05.06)
author=KURARAY CO., LTD.
license=CC BY-NC-SA
exact mass=190.11244
ionization energy=70 eV
ion type=[M]+*
computed spectral entropy=3.500109156336091
computed normalized entropy=0.8184200166510476
SPLASH=splash10-003r-9400000000-01bf8930e1d724e15457
submitter=submitter = University of Tokyo Team (Faculty of Engineering, University of Tokyo)
MoNA Rating=3.75

>  <NUM PEAKS>  (1489) 
72

>  <MASS SPECTRAL PEAKS>  (1489) 
26 2.7
27 11.8
28 40.2
29 1.53
30 3.5
31 10.1
32 9.3
36 0.44
38 1.5
39 9.4
40 2.6
41 2.81
42 4.5
43 22.7
44 10.3
45 7.4
46 2.1
51 1.5
53 7.5
54 0.15
55 14.5
56 1.9
57 6.2
58 0.81
59 18.2
60 1.6
65 5.3
67 1.05
68 3.6
69 46.5
70 3.6
71 0.63
72 5.6
73 17.9
75 5.9
77 0.68
79 6.2
81 8.4
82 2.3
83 0.45
85 8.1
86 1.6
87 8.4
88 0.23
89 9.5
91 3.8
93 6.5
95 0.39
97 7.1
98 2.1
99 3.3
101 5.24
102 4.4
103 7.3
107 1.9
109 0.13
111 5.8
112 1.4
116 1.5
117 0.36
119 1.6
123 2.6
125 14.8
126 0.13
129 1.5
133 99.99
134 6.5
135 3.18
136 1.9
139 8.6
154 5.2
155 6

>  <PREDICTED SPECTRUM>  (1489) 
27 53
29 129
33 15
36 53
38 79
39 369
40 128
41 559
42 267
43 407
44 73
45 327
49 24
50 104
51 185
52 94
53 294
54 95
55 296
56 133
57 248
58 124
59 294
60 52
61 142
62 85
63 123
64 25
65 173
66 59
67 235
68 121
69 599
70 246
71 223
72 36
73 283
74 139
75 204
76 117
77 188
78 72
79 105
80 49
81 232
82 74
83 276
84 90
85 218
87 197
89 219
90 91
91 144
92 13
93 161
94 19
95 123
97 228
98 212
99 251
100 112
101 341
102 130
103 170
104 47
105 164
106 10
107 224
111 154
112 116
113 159
114 26
115 114
117 17
118 53
119 153
120 72
121 93
122 56
123 62
125 259
126 25
127 72
131 8
132 6
133 999
134 277
135 368
136 67
154 161
155 296
156 15
161 40
190 36

$$$$

     RDKit          2D

 11 11  0  0  0  0  0  0  0  0999 V2000
   -1.6700   -0.9600    0.0000 C   0  0  0  0  0  0  0  0  0  0  0  0
   -0.3700   -1.7100    0.0000 C   0  0  0  0  0  0  0  0  0  0  0  0
   -1.6700    0.5400    0.0000 C   0  0  0  0  0  0  0  0  0  0  0  0
    0.9300   -0.9600    0.0000 C   0  0  0  0  0  0  0  0  0  0  0  0
   -0.3700    1.2900    0.0000 C   0  0  0  0  0  0  0  0  0  0  0  0
    3.5281    0.5404    0.0000 C   0  0  0  0  0  0  0  0  0  0  0  0
    0.9300    0.5400    0.0000 C   0  0  0  0  0  0  0  0  0  0  0  0
    4.8270    1.2906    0.0000 Cl  0  0  0  0  0  0  0  0  0  0  0  0
    3.1929    2.4394    0.0000 O   0  0  0  0  0  0  0  0  0  0  0  0
    1.2646    2.4391    0.0000 O   0  0  0  0  0  0  0  0  0  0  0  0
    2.2289    1.2902    0.0000 S   0  0  0  0  0  0  0  0  0  0  0  0
  2  1  2  0
  3  1  1  0
  4  2  1  0
  5  3  2  0
  7  4  2  0
  7  5  1  0
  8  6  1  0
 11  6  1  0
 11  7  1  0
 11  9  2  0
 11 10  2  0
M  END
>  <NAME>  (1490) 
CHLOROMETHYL PHENYL SULFONE

>  <SYNONYMS>  (1490) 


>  <SPECTRUM TYPE>  (1490) 
MS1

>  <INSTRUMENT TYPE>  (1490) 
EI-B

>  <INSTRUMENT>  (1490) 
JEOL JMS-D-300

>  <ION MODE>  (1490) 
P

>  <INCHIKEY>  (1490) 
NXAIQSVCXQZNRY-UHFFFAOYSA-N

>  <FORMULA>  (1490) 
C7H7ClO2S

>  <EXACT MASS>  (1490) 
189.985528144

>  <MW>  (1490) 
190

>  <ID>  (1490) 
JP009823

>  <CONTRIBUTOR>  (1490) 
University of Tokyo Team, {Faculty of Engineering, University of Tokyo

>  <COMMENT>  (1490) 
SMILES=ClCS(=O)(=O)c(c1)cccc1
InChI=InChI=1S/C7H7ClO2S/c8-6-11(9,10)7-4-2-1-3-5-7/h1-5H,6H2
computed SMILES=O=S(=O)(C=1C=CC=CC1)CCl
accession=JP009823
date=2016.01.19 (Created 2008.10.21, modified 2011.05.06)
author=KURARAY CO., LTD.
license=CC BY-NC-SA
exact mass=189.98553
ionization energy=70 eV
ion type=[M]+*
computed spectral entropy=2.121494034459168
computed normalized entropy=0.651145234556945
SPLASH=splash10-004l-9800000000-7a3b6476452b0064ba7a
submitter=submitter = University of Tokyo Team (Faculty of Engineering, University of Tokyo)
MoNA Rating=3.75

>  <NUM PEAKS>  (1490) 
26

>  <MASS SPECTRAL PEAKS>  (1490) 
27 1.8
28 2.1
48 1.2
49 0.35
50 1.6
51 38.1
52 2
63 0.16
65 3.5
69 1.1
74 4.2
75 0.28
76 3.1
77 82.9
78 13.7
91 0.34
97 4
125 17.7
126 1.5
141 99.99
142 11.9
143 7.4
160 2.7
190 2.41
191 2.9
192 8.8

>  <PREDICTED SPECTRUM>  (1490) 
26 24
27 71
29 49
31 13
33 28
36 28
37 3
38 65
39 136
40 25
41 9
44 27
48 50
49 110
50 253
51 525
52 81
53 61
54 44
55 63
62 23
63 69
64 110
65 118
66 11
74 140
75 170
76 37
77 999
78 282
90 48
91 58
94 18
97 185
99 70
125 91
126 29
127 10
141 871
142 340
143 243
158 33
190 342
191 136
192 218
193 76
194 37

$$$$

     RDKit          2D

 14 15  0  0  0  0  0  0  0  0999 V2000
    4.1000   -0.0000    0.0000 C   0  0  0  0  0  0  0  0  0  0  0  0
    1.1124   -2.5814    0.0000 C   0  0  0  0  0  0  0  0  0  0  0  0
    3.0195   -1.9591    0.0000 C   0  0  0  0  0  0  0  0  0  0  0  0
    3.0195    1.9591    0.0000 C   0  0  0  0  0  0  0  0  0  0  0  0
    1.1124    2.5814    0.0000 C   0  0  0  0  0  0  0  0  0  0  0  0
   -2.3100   -0.7500    0.0000 C   0  0  0  0  0  0  0  0  0  0  0  0
   -2.3100    0.7500    0.0000 C   0  0  0  0  0  0  0  0  0  0  0  0
   -1.0100   -1.5000    0.0000 C   0  0  0  0  0  0  0  0  0  0  0  0
   -1.0100    1.5000    0.0000 C   0  0  0  0  0  0  0  0  0  0  0  0
    2.6000    0.0000    0.0000 C   0  0  0  0  0  0  0  0  0  0  0  0
    0.2900   -0.7500    0.0000 C   0  0  0  0  0  0  0  0  0  0  0  0
    0.2900    0.7500    0.0000 C   0  0  0  0  0  0  0  0  0  0  0  0
    1.7200   -1.2100    0.0000 C   0  0  0  0  0  0  0  0  0  0  0  0
    1.7200    1.2100    0.0000 C   0  0  0  0  0  0  0  0  0  0  0  0
  7  6  2  0
  8  6  1  0
  9  7  1  0
 10  1  1  0
 11  8  2  0
 12  9  2  0
 12 11  1  0
 13  2  1  0
 13  3  1  0
 13 10  1  0
 13 11  1  0
 14  4  1  0
 14  5  1  0
 14 10  1  0
 14 12  1  0
M  END
>  <NAME>  (1491) 
1,1,2,3,3-PENTAMETHYLINDAN

>  <SYNONYMS>  (1491) 


>  <SPECTRUM TYPE>  (1491) 
MS1

>  <INSTRUMENT TYPE>  (1491) 
EI-B

>  <INSTRUMENT>  (1491) 
JEOL JMS-D-300

>  <ION MODE>  (1491) 
P

>  <INCHIKEY>  (1491) 
ZCMKNGQFIXAHLP-UHFFFAOYSA-N

>  <FORMULA>  (1491) 
C14H20

>  <EXACT MASS>  (1491) 
188.15650064

>  <MW>  (1491) 
188

>  <ID>  (1491) 
JP009822

>  <CONTRIBUTOR>  (1491) 
University of Tokyo Team, {Faculty of Engineering, University of Tokyo

>  <COMMENT>  (1491) 
SMILES=c(c2)cc(c(c2)1)C(C)(C)C(C)C(C)(C)1
InChI=InChI=1S/C14H20/c1-10-13(2,3)11-8-6-7-9-12(11)14(10,4)5/h6-10H,1-5H3
computed SMILES=C=1C=CC2=C(C1)C(C)(C)C(C)C2(C)C
license=CC BY-NC-SA
accession=JP009822
date=2016.01.19 (Created 2008.10.21, modified 2011.05.06)
author=KURARAY CO., LTD.
exact mass=188.1565
ionization energy=70 eV
ion type=[M]+*
computed spectral entropy=2.4379094742566894
computed normalized entropy=0.6751495141221426
SPLASH=splash10-00di-2900000000-7ec3b71261cd25f706ef
submitter=submitter = University of Tokyo Team (Faculty of Engineering, University of Tokyo)
MoNA Rating=3.75

>  <NUM PEAKS>  (1491) 
37

>  <MASS SPECTRAL PEAKS>  (1491) 
29 1.6
39 2.7
41 3.5
43 0.46
51 2.2
55 1.4
57 13.8
64 0.21
65 2.8
77 3.4
78 2.3
79 0.29
87 1.6
91 6.4
103 1.6
105 0.17
115 5.7
116 1.8
117 8.1
127 0.2
128 8.2
129 6.4
130 1.4
131 4.13
132 4.2
141 4.8
142 3.9
143 0.51
144 1.8
145 3.5
157 2.1
158 0.2
173 99.99
174 14
175 1.1
188 2.12
189 3.8

>  <PREDICTED SPECTRUM>  (1491) 
27 15
39 48
40 4
41 78
43 57
50 18
51 68
52 14
53 27
55 21
57 28
63 29
64 14
65 80
69 40
71 27
75 25
76 47
77 134
78 40
79 28
83 14
84 10
85 21
89 91
90 43
91 226
92 61
95 16
96 5
97 5
99 17
101 9
102 84
103 101
104 33
105 78
110 48
111 18
113 16
115 231
116 98
117 155
118 67
119 48
127 108
128 216
129 278
130 177
131 333
132 75
141 102
142 176
143 234
144 120
145 111
156 90
157 94
158 192
159 71
171 36
172 66
173 999
174 378
175 58
188 251
189 170

$$$$

     RDKit          2D

 14 14  0  0  0  0  0  0  0  0999 V2000
   -5.3481    2.8332    0.0000 C   0  0  0  0  0  0  0  0  0  0  0  0
    0.8122    3.9823    0.0000 C   0  0  0  0  0  0  0  0  0  0  0  0
   -4.0491    2.0832    0.0000 C   0  0  0  0  0  0  0  0  0  0  0  0
   -2.7500    2.8332    0.0000 C   0  0  0  0  0  0  0  0  0  0  0  0
    3.7452    0.5832    0.0000 C   0  0  0  0  0  0  0  0  0  0  0  0
    3.7456    2.0840    0.0000 C   0  0  0  0  0  0  0  0  0  0  0  0
    2.4456   -0.1676    0.0000 C   0  0  0  0  0  0  0  0  0  0  0  0
    2.4466    2.8340    0.0000 C   0  0  0  0  0  0  0  0  0  0  0  0
    1.1466    0.5824    0.0000 C   0  0  0  0  0  0  0  0  0  0  0  0
   -1.4510    2.0832    0.0000 C   0  0  0  0  0  0  0  0  0  0  0  0
   -1.1161    3.9823    0.0000 C   0  0  0  0  0  0  0  0  0  0  0  0
    1.1471    2.0832    0.0000 C   0  0  0  0  0  0  0  0  0  0  0  0
   -0.1520    2.8332    0.0000 C   0  0  0  0  0  0  0  0  0  0  0  0
   -0.6031    5.3918    0.0000 O   0  0  0  0  0  0  0  0  0  0  0  0
  3  1  1  0
  3  4  2  0
  6  5  2  0
  7  5  1  0
  8  6  1  0
  9  7  2  0
 10  4  1  0
 12  8  2  0
 12  9  1  0
 13  2  1  0
 13 10  1  0
 13 11  1  0
 13 12  1  0
 14 11  2  0
M  END
>  <NAME>  (1492) 
2-METHYL-2-PHENYL-4-HEXENAL

>  <SYNONYMS>  (1492) 


>  <SPECTRUM TYPE>  (1492) 
MS1

>  <INSTRUMENT TYPE>  (1492) 
EI-B

>  <INSTRUMENT>  (1492) 
JEOL JMS-D-300

>  <ION MODE>  (1492) 
P

>  <INCHIKEY>  (1492) 
RXBHCNJVNOKWOX-ONEGZZNKSA-N

>  <FORMULA>  (1492) 
C13H16O

>  <EXACT MASS>  (1492) 
188.120115132

>  <MW>  (1492) 
188

>  <ID>  (1492) 
JP009821

>  <CONTRIBUTOR>  (1492) 
University of Tokyo Team, {Faculty of Engineering, University of Tokyo

>  <COMMENT>  (1492) 
SMILES=CC=CCC(C)(C=O)c(c1)cccc1
InChI=InChI=1S/C13H16O/c1-3-4-10-13(2,11-14)12-8-6-5-7-9-12/h3-9,11H,10H2,1-2H3/b4-3+
computed SMILES=O=CC(C=1C=CC=CC1)(C)CC=CC
accession=JP009821
date=2016.01.19 (Created 2008.10.21, modified 2011.05.06)
author=KURARAY CO., LTD.
license=CC BY-NC-SA
exact mass=188.12012
ionization energy=70 eV
ion type=[M]+*
computed spectral entropy=3.0816628857026944
computed normalized entropy=0.7655636382767566
SPLASH=splash10-05o0-3900000000-0a80c7c71836d6d8623a
submitter=submitter = University of Tokyo Team (Faculty of Engineering, University of Tokyo)
MoNA Rating=3.75

>  <NUM PEAKS>  (1492) 
56

>  <MASS SPECTRAL PEAKS>  (1492) 
27 6
28 1.5
29 5.9
39 0.78
41 5.7
43 8.4
50 2.3
51 0.78
52 2
53 5.3
55 29.8
56 0.21
63 3
65 4.9
71 1.3
75 0.14
76 1.6
77 17.6
78 6.4
79 0.92
81 4.6
89 1.6
91 26.4
92 0.42
97 1.1
102 2.8
103 11.3
104 0.49
105 57.1
106 3.9
115 9.9
116 0.39
117 52.2
118 33.2
119 4.6
127 0.23
128 7.6
129 7.8
130 4.9
131 1.12
132 3.5
133 17.2
134 99.99
135 0.99
141 2.4
142 2.1
143 3.5
144 0.46
145 2.8
157 2.8
158 1.9
159 3.29
160 6.2
173 1.6
188 13.8
189 2.1

>  <PREDICTED SPECTRUM>  (1492) 
26 62
27 256
28 122
29 207
37 6
38 27
39 253
40 61
41 164
43 89
44 77
50 152
51 276
52 123
53 219
54 66
55 515
56 180
61 11
62 89
63 214
64 101
65 231
66 52
67 12
74 48
75 69
76 139
77 419
78 234
79 208
80 33
81 25
82 30
89 164
90 148
91 528
92 137
93 33
97 51
102 117
103 207
104 95
105 656
106 233
107 53
111 34
115 464
116 277
117 473
118 416
119 119
127 75
128 358
129 230
130 17
132 169
133 999
134 669
135 176
141 51
143 18
144 24
145 92
159 16
160 33
173 34
186 9
188 298
189 103

$$$$

     RDKit          2D

 14 15  0  0  0  0  0  0  0  0999 V2000
    1.3000   -1.5000    0.0000 C   0  0  0  0  0  0  0  0  0  0  0  0
    2.6000   -0.7500    0.0000 C   0  0  0  0  0  0  0  0  0  0  0  0
   -1.3000    1.5000    0.0000 C   0  0  0  0  0  0  0  0  0  0  0  0
   -2.6000    0.7500    0.0000 C   0  0  0  0  0  0  0  0  0  0  0  0
    1.3000    1.5000    0.0000 C   0  0  0  0  0  0  0  0  0  0  0  0
   -1.3000   -1.5000    0.0000 C   0  0  0  0  0  0  0  0  0  0  0  0
    0.0000    0.7500    0.0000 C   0  0  0  0  0  0  0  0  0  0  0  0
    0.0000   -0.7500    0.0000 C   0  0  0  0  0  0  0  0  0  0  0  0
    2.6000    0.7500    0.0000 C   0  0  0  0  0  0  0  0  0  0  0  0
   -2.6000   -0.7500    0.0000 C   0  0  0  0  0  0  0  0  0  0  0  0
    3.8989    1.5002    0.0000 C   0  0  0  0  0  0  0  0  0  0  0  0
   -3.8989   -1.5002    0.0000 O   0  0  0  0  0  0  0  0  0  0  0  0
    5.1981    0.7504    0.0000 O   0  0  0  0  0  0  0  0  0  0  0  0
    3.8987    3.0002    0.0000 O   0  0  0  0  0  0  0  0  0  0  0  0
  2  1  2  0
  4  3  1  0
  7  3  2  0
  7  5  1  0
  8  1  1  0
  8  6  2  0
  8  7  1  0
  9  2  1  0
  9  5  2  0
 10  4  2  0
 10  6  1  0
 11  9  1  0
 12 10  1  0
 13 11  1  0
 14 11  2  0
M  END
>  <NAME>  (1493) 
6-HYDROXY-2-CARBOXYLNAPHTHALENE

>  <SYNONYMS>  (1493) 
6-HYDROXY-2-NAPHTHOIC ACID

>  <SPECTRUM TYPE>  (1493) 
MS1

>  <INSTRUMENT TYPE>  (1493) 
EI-B

>  <INSTRUMENT>  (1493) 
JEOL JMS-D-300

>  <ION MODE>  (1493) 
P

>  <INCHIKEY>  (1493) 
KAUQJMHLAFIZDU-UHFFFAOYSA-N

>  <FORMULA>  (1493) 
C11H8O3

>  <EXACT MASS>  (1493) 
188.04734411599998

>  <MW>  (1493) 
188

>  <ID>  (1493) 
JP009820

>  <CONTRIBUTOR>  (1493) 
University of Tokyo Team, {Faculty of Engineering, University of Tokyo

>  <COMMENT>  (1493) 
SMILES=OC(=O)c(c2)cc(c1)c(c2)cc(O)c1
InChI=InChI=1S/C11H8O3/c12-10-4-3-7-5-9(11(13)14)2-1-8(7)6-10/h1-6,12H,(H,13,14)
computed SMILES=O=C(O)C1=CC=C2C=C(O)C=CC2=C1
exact mass=188.04734
ionization energy=70 eV
ion type=[M]+*
computed spectral entropy=1.7428816690440025
computed normalized entropy=0.6151607582607166
accession=JP009820
date=2016.01.19 (Created 2008.10.21, modified 2011.05.06)
author=KURARAY CO., LTD.
license=CC BY-NC-SA
SPLASH=splash10-000i-0900000000-52bd59e57cdd64c36b3c
submitter=submitter = University of Tokyo Team (Faculty of Engineering, University of Tokyo)
MoNA Rating=3.75

>  <NUM PEAKS>  (1493) 
17

>  <MASS SPECTRAL PEAKS>  (1493) 
62 1.6
63 3.1
71 3.3
80 0.53
85 1.6
89 1.9
113 1.7
114 0.41
115 10.8
142 2.8
143 29.5
144 0.3
159 1.7
171 51.6
172 5.9
188 99.99
189 11.7

>  <PREDICTED SPECTRUM>  (1493) 
26 9
27 8
29 12
33 2
34 0
36 16
37 34
38 75
39 171
40 70
41 136
42 85
43 123
44 100
45 184
46 23
48 23
49 75
50 182
51 211
52 103
53 114
55 118
56 39
57 82
58 82
60 20
61 109
62 196
63 267
64 112
65 97
66 23
67 17
68 19
69 96
70 27
71 63
72 0
73 31
74 153
75 204
76 173
77 225
78 116
79 65
82 0
83 42
84 54
85 85
86 186
87 195
88 180
89 231
90 72
91 76
92 4
97 9
98 56
99 82
100 0
102 85
103 139
104 50
105 96
106 15
111 37
112 27
113 177
114 307
115 397
116 242
117 63
129 26
130 15
131 143
132 34
141 57
142 232
143 398
144 143
145 16
159 124
160 132
161 48
170 79
171 406
172 102
173 8
187 18
188 999
189 352
190 119
191 40

$$$$

     RDKit          2D

 13 12  0  0  0  0  0  0  0  0999 V2000
    2.5981    4.5000    0.0000 C   0  0  0  0  0  0  0  0  0  0  0  0
   -7.7942    4.5000    0.0000 C   0  0  0  0  0  0  0  0  0  0  0  0
   -3.5623    3.3509    0.0000 C   0  0  0  0  0  0  0  0  0  0  0  0
   -1.6339    3.3509    0.0000 C   0  0  0  0  0  0  0  0  0  0  0  0
    1.2990    5.2500    0.0000 C   0  0  0  0  0  0  0  0  0  0  0  0
   -6.4952    5.2500    0.0000 C   0  0  0  0  0  0  0  0  0  0  0  0
   -1.2990    5.2500    0.0000 C   0  0  0  0  0  0  0  0  0  0  0  0
   -3.8971    5.2500    0.0000 C   0  0  0  0  0  0  0  0  0  0  0  0
   -2.5981    4.5000    0.0000 C   0  0  0  0  0  0  0  0  0  0  0  0
   -1.2990    6.7500    0.0000 O   0  0  0  0  0  0  0  0  0  0  0  0
   -3.8971    6.7500    0.0000 O   0  0  0  0  0  0  0  0  0  0  0  0
    0.0000    4.5000    0.0000 O   0  0  0  0  0  0  0  0  0  0  0  0
   -5.1962    4.5000    0.0000 O   0  0  0  0  0  0  0  0  0  0  0  0
  5  1  1  0
  6  2  1  0
  9  3  1  0
  9  4  1  0
  9  7  1  0
  9  8  1  0
 10  7  2  0
 11  8  2  0
 12  5  1  0
 12  7  1  0
 13  6  1  0
 13  8  1  0
M  END
>  <NAME>  (1494) 
DIETHYL 2,2-DIMETHYLMALONATE

>  <SYNONYMS>  (1494) 


>  <SPECTRUM TYPE>  (1494) 
MS1

>  <INSTRUMENT TYPE>  (1494) 
EI-B

>  <INSTRUMENT>  (1494) 
JEOL JMS-D-300

>  <ION MODE>  (1494) 
P

>  <INCHIKEY>  (1494) 
UELKSYXXNGHTSE-UHFFFAOYSA-N

>  <FORMULA>  (1494) 
C9H16O4

>  <EXACT MASS>  (1494) 
188.104858992

>  <MW>  (1494) 
188

>  <ID>  (1494) 
JP009819

>  <CONTRIBUTOR>  (1494) 
University of Tokyo Team, {Faculty of Engineering, University of Tokyo

>  <COMMENT>  (1494) 
SMILES=CCOC(=O)C(C)(C)C(=O)OCC
InChI=InChI=1S/C9H16O4/c1-5-12-7(10)9(3,4)8(11)13-6-2/h5-6H2,1-4H3
computed SMILES=O=C(OCC)C(C(=O)OCC)(C)C
accession=JP009819
date=2016.01.19 (Created 2008.10.21, modified 2011.05.06)
author=KURARAY CO., LTD.
license=CC BY-NC-SA
exact mass=188.10486
ionization energy=70 eV
ion type=[M]+*
computed spectral entropy=2.8688921713225524
computed normalized entropy=0.7627597796118676
SPLASH=splash10-000i-9300000000-6c4baca797334f6fb068
submitter=submitter = University of Tokyo Team (Faculty of Engineering, University of Tokyo)
MoNA Rating=3.75

>  <NUM PEAKS>  (1494) 
43

>  <MASS SPECTRAL PEAKS>  (1494) 
26 1.1
27 12.8
29 39.7
30 0.13
31 2.5
39 5.2
40 1.6
41 1.91
42 13.8
43 14.1
44 2.2
45 0.86
55 4.8
56 5.6
57 9.2
59 4.38
60 2.7
69 12.5
70 34.8
71 1.31
72 1.4
73 32.3
74 1.6
86 0.48
87 64.5
88 99.99
89 7.8
99 0.2
101 2.3
114 3.6
115 58.9
116 7.41
117 8.1
128 2.2
129 8.3
132 0.16
133 7.7
142 1.6
143 50.8
144 0.86
160 1.4
161 2.7
188 5.5

>  <PREDICTED SPECTRUM>  (1494) 
14 2
15 6
25 7
26 94
27 324
28 185
29 545
30 93
31 168
37 16
38 41
39 209
40 104
41 401
42 376
43 461
44 180
45 351
46 67
52 1
53 49
54 66
55 267
57 164
58 46
59 365
60 111
61 24
67 39
68 59
69 413
70 370
71 182
72 37
73 432
74 40
75 27
83 97
85 172
86 250
87 724
88 486
89 64
96 14
97 83
98 58
100 96
101 204
113 144
114 276
115 848
116 575
117 200
118 47
129 102
130 13
132 85
142 100
143 999
144 312
145 113
160 214
161 67
188 39

$$$$

     RDKit          2D

 13 12  0  0  0  0  0  0  0  0999 V2000
    2.9228    3.9375    0.0000 C   0  0  0  0  0  0  0  0  0  0  0  0
    1.6238    6.1875    0.0000 C   0  0  0  0  0  0  0  0  0  0  0  0
   -2.6082    5.8366    0.0000 C   0  0  0  0  0  0  0  0  0  0  0  0
   -0.9743    4.6875    0.0000 C   0  0  0  0  0  0  0  0  0  0  0  0
    0.3248    3.9375    0.0000 C   0  0  0  0  0  0  0  0  0  0  0  0
   -2.2733    3.9375    0.0000 C   0  0  0  0  0  0  0  0  0  0  0  0
   -6.1704    4.6875    0.0000 C   0  0  0  0  0  0  0  0  0  0  0  0
    1.6238    4.6875    0.0000 C   0  0  0  0  0  0  0  0  0  0  0  0
   -4.8714    3.9375    0.0000 C   0  0  0  0  0  0  0  0  0  0  0  0
   -3.5724    4.6875    0.0000 C   0  0  0  0  0  0  0  0  0  0  0  0
   -4.8714    2.4375    0.0000 N   0  0  0  0  0  0  0  0  0  0  0  0
   -7.4695    3.9375    0.0000 O   0  0  0  0  0  0  0  0  0  0  0  0
   -4.5365    5.8366    0.0000 O   0  0  0  0  0  0  0  0  0  0  0  0
  5  4  1  0
  6  4  1  0
  8  1  1  0
  8  2  1  0
  8  5  2  0
  9  7  1  0
 10  3  1  0
 10  6  1  0
 10  9  1  0
 11  9  1  0
 12  7  1  0
 13 10  1  0
M  END
>  <NAME>  (1495) 
2-AMINO-3,7-DIMETHYL-6-OCTENE-1,3-DIOL

>  <SYNONYMS>  (1495) 


>  <SPECTRUM TYPE>  (1495) 
MS1

>  <INSTRUMENT TYPE>  (1495) 
EI-B

>  <INSTRUMENT>  (1495) 
JEOL JMS-D-300

>  <ION MODE>  (1495) 
P

>  <INCHIKEY>  (1495) 
MYZAIZLYFVZBRQ-UHFFFAOYSA-N

>  <FORMULA>  (1495) 
C10H21NO2

>  <EXACT MASS>  (1495) 
187.157228912

>  <MW>  (1495) 
187

>  <ID>  (1495) 
JP009818

>  <CONTRIBUTOR>  (1495) 
University of Tokyo Team, {Faculty of Engineering, University of Tokyo

>  <COMMENT>  (1495) 
SMILES=OCC(N)C(C)(O)CCC=C(C)C
InChI=InChI=1S/C10H21NO2/c1-8(2)5-4-6-10(3,13)9(11)7-12/h5,9,12-13H,4,6-7,11H2,1-3H3
computed SMILES=OCC(N)C(O)(C)CCC=C(C)C
accession=JP009818
date=2016.01.19 (Created 2008.10.21, modified 2011.05.06)
author=KURARAY CO., LTD.
license=CC BY-NC-SA
exact mass=187.15723
ionization energy=70 eV
ion type=[M]+*
computed spectral entropy=2.9790300298957977
computed normalized entropy=0.7305953828451657
SPLASH=splash10-0006-9200000000-48702953e0bfab1e90d8
submitter=submitter = University of Tokyo Team (Faculty of Engineering, University of Tokyo)
MoNA Rating=3.75

>  <NUM PEAKS>  (1495) 
59

>  <MASS SPECTRAL PEAKS>  (1495) 
27 4.7
28 1.6
29 3.7
39 0.71
40 1.8
41 37
42 3
43 99.99
44 2.8
53 5.5
54 1.6
55 1.1
56 1.5
57 1.3
59 3.7
67 1.91
68 9.3
69 45.3
70 6.3
71 0.95
72 1.4
73 1.4
77 1.8
79 0.49
80 1.3
81 11.5
82 25.8
83 0.59
84 5
85 5.1
86 1.4
87 0.87
88 5.8
91 1.9
93 4.7
94 0.29
95 12
96 2
97 2.5
101 0.32
103 12.3
105 1.1
107 1.9
108 0.11
109 44.1
110 8.1
111 1.7
112 0.13
119 5.2
121 2.7
123 1.4
127 0.11
129 1.8
130 2.5
134 5.6
137 0.28
139 1.4
152 2.8
169 1

>  <PREDICTED SPECTRUM>  (1495) 
26 8
27 170
28 24
29 159
30 30
31 186
32 24
33 31
39 228
40 118
41 825
42 280
43 921
44 330
45 193
50 37
51 58
52 66
53 243
54 128
55 555
56 309
57 89
58 51
59 525
60 324
61 151
62 19
65 85
66 105
67 432
68 390
69 932
70 333
71 290
72 234
73 129
74 234
75 34
76 0
77 229
78 83
79 206
80 151
81 591
82 554
83 266
84 290
85 207
86 278
87 234
88 88
91 152
92 2
93 282
94 191
95 382
96 309
97 56
99 21
100 108
101 195
102 86
103 60
104 77
107 325
108 220
109 999
110 251
111 234
112 50
114 38
115 27
121 27
122 113
125 70
126 175
128 40
137 181
138 147
139 67
156 25
169 168
170 31
171 8
187 49

$$$$

     RDKit          2D

 13 12  0  0  0  0  0  0  0  0999 V2000
    3.8971    6.0000    0.0000 C   0  0  0  0  0  0  0  0  0  0  0  0
   -3.8971    6.0000    0.0000 C   0  0  0  0  0  0  0  0  0  0  0  0
   -5.1962    6.7500    0.0000 C   0  0  0  0  0  0  0  0  0  0  0  0
   -2.5981    6.7500    0.0000 C   0  0  0  0  0  0  0  0  0  0  0  0
   -6.4952    6.0000    0.0000 C   0  0  0  0  0  0  0  0  0  0  0  0
   -1.2990    6.0000    0.0000 C   0  0  0  0  0  0  0  0  0  0  0  0
   -7.7942    6.7500    0.0000 C   0  0  0  0  0  0  0  0  0  0  0  0
    0.0000    6.7500    0.0000 C   0  0  0  0  0  0  0  0  0  0  0  0
   -9.0933    6.0000    0.0000 C   0  0  0  0  0  0  0  0  0  0  0  0
    1.2990    6.0000    0.0000 C   0  0  0  0  0  0  0  0  0  0  0  0
  -10.3923    6.7500    0.0000 O   0  0  0  0  0  0  0  0  0  0  0  0
    1.2990    4.5000    0.0000 O   0  0  0  0  0  0  0  0  0  0  0  0
    2.5981    6.7500    0.0000 O   0  0  0  0  0  0  0  0  0  0  0  0
  3  2  1  0
  4  2  1  0
  5  3  1  0
  6  4  1  0
  7  5  1  0
  8  6  1  0
  9  7  1  0
 10  8  1  0
 11  9  2  0
 12 10  2  0
 13  1  1  0
 13 10  1  0
M  END
>  <NAME>  (1496) 
8-METHOXYCARBONYL OCTANAL

>  <SYNONYMS>  (1496) 
METHYL 8-FORMYLOCTANOATE

>  <SPECTRUM TYPE>  (1496) 
MS1

>  <INSTRUMENT TYPE>  (1496) 
EI-B

>  <INSTRUMENT>  (1496) 
JEOL JMS-D-300

>  <ION MODE>  (1496) 
P

>  <INCHIKEY>  (1496) 
JMLYDLZRFNYHHO-UHFFFAOYSA-N

>  <FORMULA>  (1496) 
C10H18O3

>  <EXACT MASS>  (1496) 
186.12559443599997

>  <MW>  (1496) 
186

>  <ID>  (1496) 
JP009817

>  <CONTRIBUTOR>  (1496) 
University of Tokyo Team, {Faculty of Engineering, University of Tokyo

>  <COMMENT>  (1496) 
SMILES=O=CCCCCCCCC(=O)OC
InChI=InChI=1S/C10H18O3/c1-13-10(12)8-6-4-2-3-5-7-9-11/h9H,2-8H2,1H3
computed SMILES=O=CCCCCCCCC(=O)OC
accession=JP009817
date=2016.01.19 (Created 2008.10.21, modified 2011.05.06)
author=KURARAY CO., LTD.
license=CC BY-NC-SA
exact mass=186.12559
ionization energy=70 eV
ion type=[M]+*
computed spectral entropy=3.5315039718682097
computed normalized entropy=0.8059065510748615
SPLASH=splash10-059f-9200000000-2ccb39254b2953efc602
submitter=submitter = University of Tokyo Team (Faculty of Engineering, University of Tokyo)
MoNA Rating=3.75

>  <NUM PEAKS>  (1496) 
80

>  <MASS SPECTRAL PEAKS>  (1496) 
27 14.3
28 14.7
29 17.5
31 0.31
32 12.9
39 14.2
41 39.8
42 1.07
43 45.1
44 8.3
45 6.5
51 0.16
53 6.7
54 5.8
55 64.9
56 0.56
57 16.4
58 4
59 30.5
60 0.2
65 1.8
66 2.3
67 20.7
68 1.06
69 29.7
70 6
71 3.7
72 0.1
73 3
74 99.99
75 7.1
76 0.13
77 2.5
78 1.3
79 5.5
80 0.4
81 8.8
82 9.7
83 46
84 1.13
85 3.2
86 2
87 66.4
88 0.55
93 4.4
94 11.4
95 9.1
96 0.13
97 5.9
98 10.4
99 2.1
100 0.13
101 9.7
102 1.3
107 2.7
108 0.45
109 12.5
110 6.2
111 46.9
112 0.61
113 2.3
115 12.1
119 1.3
121 0.12
124 1.3
125 2.9
126 3.8
127 0.25
129 3.9
130 2.1
135 1.9
136 0.76
137 1.7
143 39.6
144 4.4
154 0.39
155 23.9
156 2.3
158 12.5
159 1.3

>  <PREDICTED SPECTRUM>  (1496) 
14 2
15 67
16 4
17 27
18 41
25 9
26 103
27 386
28 205
29 435
30 121
31 194
32 54
33 67
34 12
36 22
37 57
38 104
39 439
40 197
41 761
42 429
43 692
44 238
45 281
46 33
47 87
48 59
49 64
50 113
51 196
52 119
53 316
54 313
55 808
56 361
57 442
58 157
59 455
60 155
61 193
62 42
63 48
65 121
66 126
67 406
68 370
69 601
70 265
71 292
72 124
73 202
74 999
75 402
76 133
77 213
78 72
79 249
80 181
81 425
82 344
83 510
84 453
85 271
86 57
87 757
88 231
89 134
91 92
92 47
93 227
94 279
95 377
96 362
97 478
98 494
99 128
100 226
101 289
102 108
103 139
104 86
105 44
106 58
107 71
108 206
109 262
110 330
111 373
112 315
113 235
114 101
115 193
116 147
117 8
118 34
119 116
121 105
122 24
123 7
125 226
126 295
127 207
128 102
129 300
130 122
131 26
134 44
135 58
136 274
137 190
138 127
139 93
141 28
142 142
143 584
144 196
145 26
153 122
154 287
155 493
156 182
157 168
158 371
159 86
168 82
169 29
170 38
186 93
187 31

$$$$

     RDKit          2D

 12 11  0  0  0  0  0  0  0  0999 V2000
   -6.8200    5.0625    0.0000 C   0  0  0  0  0  0  0  0  0  0  0  0
   -5.5209    2.8125    0.0000 C   0  0  0  0  0  0  0  0  0  0  0  0
   -0.3248    2.8125    0.0000 C   0  0  0  0  0  0  0  0  0  0  0  0
   -1.6238    5.0625    0.0000 C   0  0  0  0  0  0  0  0  0  0  0  0
   -2.9228    4.3125    0.0000 C   0  0  0  0  0  0  0  0  0  0  0  0
    0.9743    5.0625    0.0000 C   0  0  0  0  0  0  0  0  0  0  0  0
    2.2733    4.3125    0.0000 C   0  0  0  0  0  0  0  0  0  0  0  0
   -5.5209    4.3125    0.0000 C   0  0  0  0  0  0  0  0  0  0  0  0
   -0.3248    4.3125    0.0000 C   0  0  0  0  0  0  0  0  0  0  0  0
   -4.2219    5.0625    0.0000 C   0  0  0  0  0  0  0  0  0  0  0  0
   -4.2219    6.5625    0.0000 Cl  0  0  0  0  0  0  0  0  0  0  0  0
    3.5724    5.0625    0.0000 O   0  0  0  0  0  0  0  0  0  0  0  0
  5  4  1  0
  7  6  1  0
  8  1  2  0
  8  2  1  0
  9  3  1  0
  9  4  1  0
  6  9  2  0
 10  5  1  0
 10  8  1  0
 11 10  1  0
 12  7  2  0
M  END
>  <NAME>  (1497) 
6-CHLORO-3,7-DIMETHYL-2,7-OCTADIENAL

>  <SYNONYMS>  (1497) 


>  <SPECTRUM TYPE>  (1497) 
MS1

>  <INSTRUMENT TYPE>  (1497) 
EI-B

>  <INSTRUMENT>  (1497) 
JEOL JMS-D-300

>  <ION MODE>  (1497) 
P

>  <INCHIKEY>  (1497) 
AUSCHJGENLMKTA-RMKNXTFCSA-N

>  <FORMULA>  (1497) 
C10H15ClO

>  <EXACT MASS>  (1497) 
186.08114278

>  <MW>  (1497) 
186

>  <ID>  (1497) 
JP009816

>  <CONTRIBUTOR>  (1497) 
University of Tokyo Team, {Faculty of Engineering, University of Tokyo

>  <COMMENT>  (1497) 
SMILES=O=CC=C(C)CCC(Cl)C(C)=C
InChI=InChI=1S/C10H15ClO/c1-8(2)10(11)5-4-9(3)6-7-12/h6-7,10H,1,4-5H2,2-3H3/b9-6+
computed SMILES=O=CC=C(C)CCC(Cl)C(=C)C
accession=JP009816
date=2016.01.19 (Created 2008.10.21, modified 2011.05.06)
author=KURARAY CO., LTD.
license=CC BY-NC-SA
exact mass=186.08114
ionization energy=70 eV
ion type=[M]+*
computed spectral entropy=3.776753488760689
computed normalized entropy=0.8594372936924348
SPLASH=splash10-00l7-9200000000-c090b16005a4e67f031c
submitter=submitter = University of Tokyo Team (Faculty of Engineering, University of Tokyo)
MoNA Rating=3.75

>  <NUM PEAKS>  (1497) 
81

>  <MASS SPECTRAL PEAKS>  (1497) 
27 31.9
28 10.3
29 28.5
36 0.53
38 4.1
39 57.2
40 13.1
41 99.99
42 7.4
43 33.4
50 3.9
51 1.13
52 5.9
53 53.4
54 16.6
55 5.13
56 10.6
57 7.8
59 4.1
63 0.52
65 13
66 6.3
67 73.3
68 7.1
69 42.8
70 3.9
71 11.5
75 0.86
77 17.7
78 3.5
79 32.1
80 1.21
81 55.1
82 45
83 30.5
84 7.26
85 4.4
89 10.1
90 19.3
91 2.46
92 11
93 30.7
94 15.7
95 6.76
96 8.4
97 83.6
98 5.5
102 1.77
103 6.3
104 7.4
105 19
106 0.88
107 30.1
108 9.3
109 47.3
110 0.71
115 3.3
117 8.5
118 23.7
119 0.61
120 9.6
121 20.5
122 9.3
123 1.56
124 8.4
129 2.2
130 2.7
131 0.21
132 3.9
133 12.6
135 17.1
136 0.23
142 7.4
143 2.1
144 3.3
150 0.52
151 21.6
152 2.6
157 2
171 1.33
173 5.2

>  <PREDICTED SPECTRUM>  (1497) 
15 7
25 22
26 146
27 469
28 192
29 393
30 50
31 14
32 9
35 45
36 148
37 117
38 230
39 779
40 372
41 999
42 390
43 714
44 230
45 77
47 59
48 29
49 137
50 199
51 444
52 325
53 726
54 457
55 783
56 312
57 314
58 168
59 212
60 104
61 128
62 152
63 295
64 149
65 476
66 279
67 943
68 618
69 920
70 390
71 282
72 83
73 154
74 0
75 195
76 116
77 514
78 271
79 692
80 390
81 972
82 692
83 568
84 228
85 185
86 39
87 14
88 121
89 196
90 120
91 477
92 296
93 732
94 508
95 607
96 339
97 351
98 138
99 11
101 83
102 135
103 204
104 249
105 395
106 253
107 864
108 319
109 738
110 293
111 85
115 161
116 168
117 210
118 302
119 276
120 255
121 530
122 445
123 421
124 252
125 147
126 47
128 57
129 184
130 190
131 220
132 189
133 297
134 156
135 509
136 151
137 95
138 2
141 75
142 127
143 296
144 247
145 95
146 89
149 40
150 170
151 523
152 151
153 146
157 104
158 109
159 123
171 132
172 13
173 33
186 129
187 15
188 41

$$$$

     RDKit          2D

 13 12  0  0  0  0  0  0  0  0999 V2000
   -9.7428    5.6250    0.0000 C   0  0  0  0  0  0  0  0  0  0  0  0
    3.2476    5.6250    0.0000 C   0  0  0  0  0  0  0  0  0  0  0  0
    0.6495    7.1250    0.0000 C   0  0  0  0  0  0  0  0  0  0  0  0
   -8.4437    4.8750    0.0000 C   0  0  0  0  0  0  0  0  0  0  0  0
    1.9486    4.8750    0.0000 C   0  0  0  0  0  0  0  0  0  0  0  0
   -7.1447    5.6250    0.0000 C   0  0  0  0  0  0  0  0  0  0  0  0
   -5.8457    4.8750    0.0000 C   0  0  0  0  0  0  0  0  0  0  0  0
   -4.5466    5.6250    0.0000 C   0  0  0  0  0  0  0  0  0  0  0  0
   -3.2476    4.8750    0.0000 C   0  0  0  0  0  0  0  0  0  0  0  0
   -0.6495    4.8750    0.0000 C   0  0  0  0  0  0  0  0  0  0  0  0
    0.6495    5.6250    0.0000 C   0  0  0  0  0  0  0  0  0  0  0  0
   -1.9486    5.6250    0.0000 C   0  0  0  0  0  0  0  0  0  0  0  0
   -1.9486    7.1250    0.0000 O   0  0  0  0  0  0  0  0  0  0  0  0
  4  1  1  0
  5  2  2  0
  6  4  1  0
  7  6  1  0
  8  7  1  0
  9  8  1  0
 11  3  1  0
 11  5  1  0
 11 10  1  0
 12  9  1  0
 12 10  1  0
 13 12  1  0
M  END
>  <NAME>  (1498) 
5-HYDROXY-3-METHYL-1-UNDECENE

>  <SYNONYMS>  (1498) 


>  <SPECTRUM TYPE>  (1498) 
MS1

>  <INSTRUMENT TYPE>  (1498) 
EI-B

>  <INSTRUMENT>  (1498) 
JEOL JMS-D-300

>  <ION MODE>  (1498) 
P

>  <INCHIKEY>  (1498) 
ONXKCUDRJQBVFX-UHFFFAOYSA-N

>  <FORMULA>  (1498) 
C12H24O

>  <EXACT MASS>  (1498) 
184.182715388

>  <MW>  (1498) 
184

>  <ID>  (1498) 
JP009815

>  <CONTRIBUTOR>  (1498) 
University of Tokyo Team, {Faculty of Engineering, University of Tokyo

>  <COMMENT>  (1498) 
SMILES=CCCCCCC(O)CC(C)C=C
InChI=InChI=1S/C12H24O/c1-4-6-7-8-9-12(13)10-11(3)5-2/h5,11-13H,2,4,6-10H2,1,3H3
computed SMILES=OC(CCCCCC)CC(C=C)C
accession=JP009815
date=2016.01.19 (Created 2008.10.21, modified 2011.05.06)
author=KURARAY CO., LTD.
license=CC BY-NC-SA
exact mass=184.18272
ionization energy=70 eV
ion type=[M]+*
computed spectral entropy=2.9213270878479896
computed normalized entropy=0.7719822129588051
SPLASH=splash10-0ab9-9000000000-dc82a535b0cc1fa15d18
submitter=submitter = University of Tokyo Team (Faculty of Engineering, University of Tokyo)
MoNA Rating=3.75

>  <NUM PEAKS>  (1498) 
44

>  <MASS SPECTRAL PEAKS>  (1498) 
27 7.2
28 3
29 11.8
31 0.19
39 6.4
41 21.8
42 7.1
43 3.39
44 3.5
45 1.8
53 4.4
54 0.34
55 99.99
56 7.8
57 8.6
58 1.3
59 4
67 7.4
68 33.2
69 2.17
70 41.5
71 17.1
72 2.8
79 0.18
81 47.2
82 8.2
83 2.8
85 0.43
86 1.4
95 10.8
96 7.4
97 2.74
98 2.5
99 14.2
109 5.2
110 0.72
113 3
115 3.6
123 1.4
128 0.38
129 1.6
137 1.8
155 5.5
166 1.8

>  <PREDICTED SPECTRUM>  (1498) 
19 15
26 43
27 325
28 96
29 373
30 0
31 157
32 11
38 16
39 349
40 125
41 778
42 284
43 510
44 139
45 267
50 2
51 100
52 64
53 282
54 276
55 999
56 537
57 545
58 158
59 79
61 5
65 104
66 116
67 470
68 421
69 577
70 544
71 320
72 66
73 79
77 138
78 24
79 97
80 112
81 512
82 335
83 616
84 190
85 112
86 45
89 44
91 11
93 63
94 43
95 453
96 397
97 309
98 143
99 172
100 8
101 53
108 18
109 226
110 152
111 40
112 30
113 165
114 139
115 19
121 0
122 70
123 172
124 77
125 45
127 79
128 31
137 130
138 58
151 0
166 164
167 79

$$$$

     RDKit          2D

 13 13  0  0  0  0  0  0  0  0999 V2000
    2.9180    2.1136    0.0000 C   0  0  0  0  0  0  0  0  0  0  0  0
   -2.6350    2.6351    0.0000 C   0  0  0  0  0  0  0  0  0  0  0  0
   -3.5990    0.9648    0.0000 C   0  0  0  0  0  0  0  0  0  0  0  0
   -1.7862   -2.1749    0.0000 C   0  0  0  0  0  0  0  0  0  0  0  0
    0.1422   -2.1753    0.0000 C   0  0  0  0  0  0  0  0  0  0  0  0
    1.9540    0.9644    0.0000 C   0  0  0  0  0  0  0  0  0  0  0  0
   -0.8228    1.9756    0.0000 C   0  0  0  0  0  0  0  0  0  0  0  0
    0.4772   -0.2761    0.0000 C   0  0  0  0  0  0  0  0  0  0  0  0
   -2.1218    1.2256    0.0000 C   0  0  0  0  0  0  0  0  0  0  0  0
   -0.8218   -1.0261    0.0000 C   0  0  0  0  0  0  0  0  0  0  0  0
    0.4767    1.2248    0.0000 C   0  0  0  0  0  0  0  0  0  0  0  0
   -2.1213   -0.2752    0.0000 N   0  0  0  0  0  0  0  0  0  0  0  0
    0.9899    2.6342    0.0000 O   0  0  0  0  0  0  0  0  0  0  0  0
  6  1  2  0
  9  2  1  0
  9  3  1  0
  9  7  1  0
 10  4  1  0
 10  5  1  0
 10  8  1  0
 11  6  1  0
 11  7  1  0
 11  8  1  0
 12  9  1  0
 12 10  1  0
 13 11  1  0
M  END
>  <NAME>  (1499) 
4-ETHENYL-4-HYDROXY-2,2,6,6-TETRAMETHYLPIPERIDINE

>  <SYNONYMS>  (1499) 


>  <SPECTRUM TYPE>  (1499) 
MS1

>  <INSTRUMENT TYPE>  (1499) 
EI-B

>  <INSTRUMENT>  (1499) 
JEOL JMS-D-300

>  <ION MODE>  (1499) 
P

>  <INCHIKEY>  (1499) 
KSGXXSJRSQQSOW-UHFFFAOYSA-N

>  <FORMULA>  (1499) 
C11H21NO

>  <EXACT MASS>  (1499) 
183.162314292

>  <MW>  (1499) 
183

>  <ID>  (1499) 
JP009814

>  <CONTRIBUTOR>  (1499) 
University of Tokyo Team, {Faculty of Engineering, University of Tokyo

>  <COMMENT>  (1499) 
SMILES=C=CC(O)(C1)CC(C)(C)NC(C)(C)1
InChI=InChI=1S/C11H21NO/c1-6-11(13)7-9(2,3)12-10(4,5)8-11/h6,12-13H,1,7-8H2,2-5H3
computed SMILES=OC1(C=C)CC(NC(C)(C)C1)(C)C
accession=JP009814
date=2016.01.19 (Created 2008.10.21, modified 2011.05.06)
author=KURARAY CO., LTD.
license=CC BY-NC-SA
exact mass=183.16231
ionization energy=70 eV
ion type=[M]+*
computed spectral entropy=2.635122902486893
computed normalized entropy=0.7673653818643084
SPLASH=splash10-014i-9500000000-5d80dde1969708a4029f
submitter=submitter = University of Tokyo Team (Faculty of Engineering, University of Tokyo)
MoNA Rating=3.75

>  <NUM PEAKS>  (1499) 
31

>  <MASS SPECTRAL PEAKS>  (1499) 
27 7.8
29 3.1
39 6.1
40 0.17
41 15
42 25.8
43 8.1
53 0.23
55 39.7
56 4.8
57 7.2
58 7.38
59 3.8
67 2
69 2.5
70 0.48
71 9.8
72 7.3
77 2.5
83 0.23
84 10
91 3.1
93 2.2
98 4.38
99 26.4
100 1.7
111 6.1
112 0.86
150 10.2
168 99.99
169 12.3

>  <PREDICTED SPECTRUM>  (1499) 
27 45
29 64
30 1
32 11
33 8
36 7
37 0
38 29
39 315
40 148
41 375
42 450
43 258
44 102
45 32
50 12
51 61
52 64
53 159
54 108
55 335
56 298
57 183
58 552
65 95
66 72
67 158
68 77
69 160
70 131
71 177
72 176
75 17
77 123
78 10
79 48
80 9
81 72
82 74
83 187
84 120
85 58
86 62
91 170
92 50
93 90
94 75
95 81
96 52
97 24
98 236
99 271
106 9
107 27
108 34
109 51
110 91
111 109
112 125
113 30
122 69
124 11
125 23
126 57
138 21
140 23
149 0
150 252
151 101
154 4
166 16
168 999
169 371
170 56
183 52
184 15

$$$$

     RDKit          2D

 13 13  0  0  0  0  0  0  0  0999 V2000
    3.5733   -2.0631    0.0000 C   0  0  0  0  0  0  0  0  0  0  0  0
    2.2739    0.1867    0.0000 C   0  0  0  0  0  0  0  0  0  0  0  0
   -6.8196   -2.0633    0.0000 C   0  0  0  0  0  0  0  0  0  0  0  0
    0.9752   -2.0635    0.0000 C   0  0  0  0  0  0  0  0  0  0  0  0
   -5.5210    0.1875    0.0000 C   0  0  0  0  0  0  0  0  0  0  0  0
   -0.3239   -1.3137    0.0000 C   0  0  0  0  0  0  0  0  0  0  0  0
   -4.2220    0.9375    0.0000 C   0  0  0  0  0  0  0  0  0  0  0  0
   -4.2210   -2.0642    0.0000 C   0  0  0  0  0  0  0  0  0  0  0  0
    2.2742   -1.3133    0.0000 C   0  0  0  0  0  0  0  0  0  0  0  0
   -5.5206   -1.3133    0.0000 C   0  0  0  0  0  0  0  0  0  0  0  0
   -2.9220   -1.3142    0.0000 C   0  0  0  0  0  0  0  0  0  0  0  0
   -1.6228   -2.0640    0.0000 O   0  0  0  0  0  0  0  0  0  0  0  0
   -2.9225    0.1867    0.0000 O   0  0  0  0  0  0  0  0  0  0  0  0
  6  4  1  0
  7  5  1  0
  9  1  1  0
  9  2  1  0
  9  4  2  0
 10  3  1  0
 10  5  2  0
 10  8  1  0
 11  8  1  0
 12  6  1  0
 12 11  1  0
 13  7  1  0
 13 11  1  0
M  END
>  <NAME>  (1500) 
6-(3-METHYL-2-BUTENOXY)-4-METHYL-5,6-DIHYDRO-2H-PYRAN

>  <SYNONYMS>  (1500) 


>  <SPECTRUM TYPE>  (1500) 
MS1

>  <INSTRUMENT TYPE>  (1500) 
EI-B

>  <INSTRUMENT>  (1500) 
JEOL JMS-D-300

>  <ION MODE>  (1500) 
P

>  <INCHIKEY>  (1500) 
MSJLAJXSUADVQP-UHFFFAOYSA-N

>  <FORMULA>  (1500) 
C11H18O2

>  <EXACT MASS>  (1500) 
182.130679816

>  <MW>  (1500) 
182

>  <ID>  (1500) 
JP009813

>  <CONTRIBUTOR>  (1500) 
University of Tokyo Team, {Faculty of Engineering, University of Tokyo

>  <COMMENT>  (1500) 
SMILES=CC(C)=CCOC(O1)CC(C)=CC1
InChI=InChI=1S/C11H18O2/c1-9(2)4-6-12-11-8-10(3)5-7-13-11/h4-5,11H,6-8H2,1-3H3
computed SMILES=O(CC=C(C)C)C1OCC=C(C)C1
accession=JP009813
date=2016.01.19 (Created 2008.10.21, modified 2011.05.06)
author=KURARAY CO., LTD.
license=CC BY-NC-SA
exact mass=182.13068
ionization energy=70 eV
ion type=[M]+*
computed spectral entropy=3.0445720220385626
computed normalized entropy=0.8094682357727052
SPLASH=splash10-0077-9000000000-9dae300b90be8d38bac1
submitter=submitter = University of Tokyo Team (Faculty of Engineering, University of Tokyo)
MoNA Rating=3.75

>  <NUM PEAKS>  (1500) 
43

>  <MASS SPECTRAL PEAKS>  (1500) 
26 3.9
27 32.8
28 7
29 2.27
31 11.6
32 10.6
37 3.3
38 0.92
39 64.2
40 27.8
41 85.9
42 1.33
43 37.5
44 4.7
45 4.7
50 0.75
51 10.8
52 4.4
53 53.9
54 0.44
55 11.4
56 1.9
57 4.7
63 0.28
65 13.9
66 5
67 45
68 2.09
69 16.6
71 99.99
72 4.8
77 0.22
81 51.4
82 3
83 2.7
84 0.17
85 5.3
86 26.6
95 57.2
96 9.38
97 62.3
98 4.4
113 8.8

>  <PREDICTED SPECTRUM>  (1500) 
26 36
27 217
28 74
29 161
31 107
37 47
38 77
39 437
40 198
41 768
42 294
43 868
44 140
50 102
51 173
52 163
53 402
54 259
55 370
56 135
57 214
58 150
59 153
60 3
62 5
63 61
64 33
65 232
66 134
67 543
68 526
69 453
70 97
71 999
72 146
77 217
78 0
79 250
80 109
81 453
82 231
83 127
84 63
85 285
86 113
91 139
92 172
93 243
94 138
95 671
96 425
97 431
98 124
99 1
106 2
107 5
109 41
111 55
112 7
113 9
114 22
121 155
123 5
139 18
167 15
182 135
183 25

$$$$

     RDKit          2D

 13 14  0  0  0  0  0  0  0  0999 V2000
   -3.5728   -0.6166    0.0000 C   0  0  0  0  0  0  0  0  0  0  0  0
   -2.2733   -1.3674    0.0000 C   0  0  0  0  0  0  0  0  0  0  0  0
   -3.5733    0.8843    0.0000 C   0  0  0  0  0  0  0  0  0  0  0  0
    2.9243    1.6330    0.0000 C   0  0  0  0  0  0  0  0  0  0  0  0
    2.9246    3.1330    0.0000 C   0  0  0  0  0  0  0  0  0  0  0  0
   -0.9742   -0.6174    0.0000 C   0  0  0  0  0  0  0  0  0  0  0  0
   -2.2742    1.6343    0.0000 C   0  0  0  0  0  0  0  0  0  0  0  0
    1.6242    0.8832    0.0000 C   0  0  0  0  0  0  0  0  0  0  0  0
    1.6247    3.8832    0.0000 C   0  0  0  0  0  0  0  0  0  0  0  0
   -0.9747    0.8834    0.0000 C   0  0  0  0  0  0  0  0  0  0  0  0
    0.3243    1.6334    0.0000 C   0  0  0  0  0  0  0  0  0  0  0  0
    0.3246    3.1334    0.0000 C   0  0  0  0  0  0  0  0  0  0  0  0
   -0.9742    3.8839    0.0000 O   0  0  0  0  0  0  0  0  0  0  0  0
  2  1  1  0
  3  1  1  0
  5  4  1  0
  6  2  1  0
  7  3  1  0
  8  4  1  0
  9  5  1  0
 10  6  1  0
 10  7  1  0
 11  8  1  0
 11 10  1  0
 12  9  1  0
 12 11  1  0
 13 12  1  0
M  END
>  <NAME>  (1501) 
2-CYCLOHEXYLCYCLOHEXANOL

>  <SYNONYMS>  (1501) 


>  <SPECTRUM TYPE>  (1501) 
MS1

>  <INSTRUMENT TYPE>  (1501) 
EI-B

>  <INSTRUMENT>  (1501) 
JEOL JMS

>  <ION MODE>  (1501) 
P

>  <INCHIKEY>  (1501) 
YTWWBKKPWACPPB-UHFFFAOYSA-N

>  <FORMULA>  (1501) 
C12H22O

>  <EXACT MASS>  (1501) 
182.167065324

>  <MW>  (1501) 
182

>  <ID>  (1501) 
JP009812

>  <CONTRIBUTOR>  (1501) 
University of Tokyo Team, {Faculty of Engineering, University of Tokyo

>  <COMMENT>  (1501) 
SMILES=OC(C2)C(CCC2)C(C1)CCCC1
InChI=InChI=1S/C12H22O/c13-12-9-5-4-8-11(12)10-6-2-1-3-7-10/h10-13H,1-9H2
computed SMILES=OC1CCCCC1C2CCCCC2
accession=JP009812
date=2016.01.19 (Created 2008.10.21, modified 2011.05.06)
author=KURARAY CO., LTD.
license=CC BY-NC-SA
exact mass=182.16707
ionization energy=70 eV
ion type=[M]+*
computed spectral entropy=3.024608620745048
computed normalized entropy=0.7945565515390732
SPLASH=splash10-001i-9100000000-3e2df0205380e831faa7
submitter=submitter = University of Tokyo Team (Faculty of Engineering, University of Tokyo)
MoNA Rating=3.75

>  <NUM PEAKS>  (1501) 
45

>  <MASS SPECTRAL PEAKS>  (1501) 
27 4
29 4.9
39 5.4
41 2.22
42 2
43 6.8
44 1
53 0.46
54 10.5
55 41.2
56 3.3
57 0.7
66 2.8
67 53.6
68 13.1
69 0.91
70 3.3
71 2.5
77 2.1
79 0.53
80 14.2
81 45.2
82 99.99
83 4.67
84 3.9
93 6.8
94 10.4
95 1.42
96 30.6
97 17.6
98 6.5
101 0.23
107 7.5
108 9.2
109 10.1
110 0.19
121 12.7
122 10.1
123 3.6
125 0.18
135 11.1
136 3.5
149 3.6
164 5.69
165 7.7

>  <PREDICTED SPECTRUM>  (1501) 
26 11
27 187
28 45
29 189
31 36
38 41
39 464
40 175
41 870
42 251
43 497
44 154
50 25
51 110
52 106
53 332
54 446
55 999
56 292
57 487
58 195
61 13
63 28
64 28
65 184
66 226
67 831
68 389
69 541
70 371
71 128
77 199
78 93
79 371
80 368
81 732
82 813
83 978
84 397
85 44
86 61
91 197
92 142
93 344
94 227
95 452
96 370
97 576
98 451
99 500
100 185
105 64
107 147
108 93
109 186
111 108
112 46
121 197
122 150
123 25
124 88
125 85
135 122
136 51
149 285
163 35
164 807
165 190
166 0
182 35

$$$$

     RDKit          2D

 13 13  0  0  0  0  0  0  0  0999 V2000
   -3.8976    3.7504    0.0000 C   0  0  0  0  0  0  0  0  0  0  0  0
   -2.5989   -1.5002    0.0000 C   0  0  0  0  0  0  0  0  0  0  0  0
    1.8127   -2.1596    0.0000 C   0  0  0  0  0  0  0  0  0  0  0  0
    2.7772   -0.4897    0.0000 C   0  0  0  0  0  0  0  0  0  0  0  0
   -2.5987    3.0002    0.0000 C   0  0  0  0  0  0  0  0  0  0  0  0
   -0.0000    1.5000    0.0000 C   0  0  0  0  0  0  0  0  0  0  0  0
    1.3000    0.7500    0.0000 C   0  0  0  0  0  0  0  0  0  0  0  0
   -1.3000   -0.7500    0.0000 C   0  0  0  0  0  0  0  0  0  0  0  0
   -1.3000    0.7500    0.0000 C   0  0  0  0  0  0  0  0  0  0  0  0
   -2.5989    1.5002    0.0000 C   0  0  0  0  0  0  0  0  0  0  0  0
    1.3000   -0.7500    0.0000 C   0  0  0  0  0  0  0  0  0  0  0  0
   -3.8981    0.7504    0.0000 O   0  0  0  0  0  0  0  0  0  0  0  0
   -0.0000   -1.5000    0.0000 O   0  0  0  0  0  0  0  0  0  0  0  0
  5  1  1  0
  7  6  1  0
  8  2  1  0
  9  6  1  0
  9  8  2  0
 10  5  1  0
 10  9  1  0
 11  3  1  0
 11  4  1  0
 11  7  1  0
 12 10  2  0
 13  8  1  0
 13 11  1  0
M  END
>  <NAME>  (1502) 
2,6,6-TRIMETHYL-3-ETHYLCARBONYL-5,6-DIHYDRO-4H-PYRAN

>  <SYNONYMS>  (1502) 
5-PROPIONYL-2,2,6-TRIMETHYL-3,4-DIHYDRO-2H-PYRAN

>  <SPECTRUM TYPE>  (1502) 
MS1

>  <INSTRUMENT TYPE>  (1502) 
EI-B

>  <INSTRUMENT>  (1502) 
JEOL JMS-D-300

>  <ION MODE>  (1502) 
P

>  <INCHIKEY>  (1502) 
ZERLPEUSKXJNAS-UHFFFAOYSA-N

>  <FORMULA>  (1502) 
C11H18O2

>  <EXACT MASS>  (1502) 
182.130679816

>  <MW>  (1502) 
182

>  <ID>  (1502) 
JP009811

>  <CONTRIBUTOR>  (1502) 
University of Tokyo Team, {Faculty of Engineering, University of Tokyo

>  <COMMENT>  (1502) 
SMILES=CCC(=O)C(C1)=C(C)OC(C)(C)C1
InChI=InChI=1S/C11H18O2/c1-5-10(12)9-6-7-11(3,4)13-8(9)2/h5-7H2,1-4H3
computed SMILES=O=C(C1=C(OC(C)(C)CC1)C)CC
accession=JP009811
date=2016.01.19 (Created 2008.10.21, modified 2011.05.06)
author=KURARAY CO., LTD.
license=CC BY-NC-SA
exact mass=182.13068
ionization energy=70 eV
ion type=[M]+*
computed spectral entropy=2.8600832468992445
computed normalized entropy=0.7604177280984283
SPLASH=splash10-0pbd-9500000000-01d7e51cfb81713a56ac
submitter=submitter = University of Tokyo Team (Faculty of Engineering, University of Tokyo)
MoNA Rating=3.75

>  <NUM PEAKS>  (1502) 
43

>  <MASS SPECTRAL PEAKS>  (1502) 
27 9.7
29 25.4
39 8.4
40 0.24
41 18.6
43 72.7
44 2.3
53 0.4
55 34
56 25.3
57 49.3
58 0.21
67 5.1
69 4.5
71 2.5
79 0.27
81 3
83 4.4
85 4.5
91 0.2
93 3.2
95 3.1
97 59.9
98 0.36
107 5.8
108 2.2
109 5.7
111 1.47
121 3.2
125 7.3
126 3.2
127 2.64
128 2.5
135 15.6
136 1.8
139 0.91
140 2.1
149 8.2
153 99.99
154 1.05
167 3.8
182 35.7
183 6.6

>  <PREDICTED SPECTRUM>  (1502) 
26 26
27 217
28 73
29 308
38 28
39 302
40 134
41 558
42 235
43 718
44 66
50 43
51 127
52 114
53 280
54 76
55 542
56 213
57 798
58 69
65 89
66 45
67 163
68 86
69 389
70 158
71 151
72 10
77 90
78 56
79 207
80 79
81 211
82 49
83 304
84 96
85 156
93 102
94 12
95 303
96 87
97 396
98 153
99 106
107 167
108 64
109 166
110 19
111 113
112 14
121 55
123 115
124 31
125 233
126 182
127 145
128 72
131 1
135 165
139 44
149 19
153 999
154 185
155 10
164 86
167 178
168 49
182 588
183 248
184 58

$$$$

     RDKit          2D

 10  9  0  0  0  0  0  0  0  0999 V2000
   -3.2476    1.8750    0.0000 C   0  0  0  0  0  0  0  0  0  0  0  0
    1.9486    3.3750    0.0000 C   0  0  0  0  0  0  0  0  0  0  0  0
   -4.5466    4.1250    0.0000 C   0  0  0  0  0  0  0  0  0  0  0  0
   -3.2476    3.3750    0.0000 C   0  0  0  0  0  0  0  0  0  0  0  0
   -1.9486    4.1250    0.0000 C   0  0  0  0  0  0  0  0  0  0  0  0
   -0.6495    3.3750    0.0000 C   0  0  0  0  0  0  0  0  0  0  0  0
   -5.8457    3.3750    0.0000 Cl  0  0  0  0  0  0  0  0  0  0  0  0
   -1.9486    5.6250    0.0000 Cl  0  0  0  0  0  0  0  0  0  0  0  0
   -0.6495    1.8750    0.0000 O   0  0  0  0  0  0  0  0  0  0  0  0
    0.6495    4.1250    0.0000 O   0  0  0  0  0  0  0  0  0  0  0  0
  4  1  2  0
  4  3  1  0
  5  4  1  0
  6  5  1  0
  7  3  1  0
  8  5  1  0
  9  6  2  0
 10  2  1  0
 10  6  1  0
M  END
>  <NAME>  (1503) 
METHYL 2,4-DICHLORO-3-METHYLENEBUTYRATE

>  <SYNONYMS>  (1503) 


>  <SPECTRUM TYPE>  (1503) 
MS1

>  <INSTRUMENT TYPE>  (1503) 
EI-B

>  <INSTRUMENT>  (1503) 
JEOL JMS-D-300

>  <ION MODE>  (1503) 
P

>  <INCHIKEY>  (1503) 
YRNAQLFSLJHQFK-UHFFFAOYSA-N

>  <FORMULA>  (1503) 
C6H8Cl2O2

>  <EXACT MASS>  (1503) 
181.990134856

>  <MW>  (1503) 
182

>  <ID>  (1503) 
JP009810

>  <CONTRIBUTOR>  (1503) 
University of Tokyo Team, {Faculty of Engineering, University of Tokyo

>  <COMMENT>  (1503) 
SMILES=COC(=O)C(Cl)C(=C)CCl
InChI=InChI=1S/C6H8Cl2O2/c1-4(3-7)5(8)6(9)10-2/h5H,1,3H2,2H3
computed SMILES=O=C(OC)C(Cl)C(=C)CCl
accession=JP009810
date=2016.01.19 (Created 2008.10.21, modified 2011.05.06)
author=KURARAY CO., LTD.
license=CC BY-NC-SA
exact mass=181.99013
ionization energy=70 eV
ion type=[M]+*
computed spectral entropy=3.245737238967317
computed normalized entropy=0.825503860586609
SPLASH=splash10-0002-9800000000-63f3ce89d7ca81b018b9
submitter=submitter = University of Tokyo Team (Faculty of Engineering, University of Tokyo)
MoNA Rating=3.75

>  <NUM PEAKS>  (1503) 
51

>  <MASS SPECTRAL PEAKS>  (1503) 
27 9.5
29 3.6
36 8.7
38 1.07
39 14.9
41 3.4
42 6.5
43 0.74
44 1.6
45 5.2
49 6.5
50 0.87
51 24.8
52 7.2
53 31.6
54 0.72
55 6.8
58 1.2
59 60.4
61 0.74
67 9.4
73 8.8
75 4.5
81 0.79
82 6.9
83 5.1
87 36.2
88 1.98
89 18.2
90 7.9
91 9.7
108 0.74
111 5.6
112 7.8
113 10.1
115 0.58
116 10.4
117 18.2
118 5.2
119 0.74
123 29.1
125 20.8
131 3.9
146 0.7
147 99.99
148 15.5
149 36.4
150 0.75
151 5.5
153 4
182 4.3

>  <PREDICTED SPECTRUM>  (1503) 
14 10
15 86
26 34
27 80
29 3
33 38
35 15
36 122
37 123
38 114
39 300
40 54
41 309
42 133
43 201
44 158
45 129
47 73
49 321
50 86
51 514
52 235
53 385
54 70
55 440
56 33
57 163
59 699
60 76
61 192
62 59
63 158
64 20
65 60
67 60
68 12
69 73
71 24
73 122
75 317
77 153
78 15
81 146
82 90
83 349
84 18
85 122
87 658
88 482
89 530
90 316
91 312
92 234
97 5
105 74
107 16
111 385
112 175
113 121
115 445
116 91
117 308
118 36
119 80
121 78
123 429
124 9
125 420
127 183
131 25
146 29
147 999
148 263
149 577
150 99
151 362
152 22
153 286
155 126
182 199
184 93

$$$$

     RDKit          2D

 13 12  0  0  0  0  0  0  0  0999 V2000
    2.9228    6.1875    0.0000 C   0  0  0  0  0  0  0  0  0  0  0  0
  -10.0675    6.1875    0.0000 C   0  0  0  0  0  0  0  0  0  0  0  0
   -8.7685    3.9375    0.0000 C   0  0  0  0  0  0  0  0  0  0  0  0
    1.6238    6.9375    0.0000 C   0  0  0  0  0  0  0  0  0  0  0  0
   -8.7685    6.9375    0.0000 C   0  0  0  0  0  0  0  0  0  0  0  0
   -7.4695    4.6875    0.0000 C   0  0  0  0  0  0  0  0  0  0  0  0
    0.3248    6.1875    0.0000 C   0  0  0  0  0  0  0  0  0  0  0  0
   -0.9743    6.9375    0.0000 C   0  0  0  0  0  0  0  0  0  0  0  0
   -2.2733    6.1875    0.0000 C   0  0  0  0  0  0  0  0  0  0  0  0
   -3.5724    6.9375    0.0000 C   0  0  0  0  0  0  0  0  0  0  0  0
   -4.8714    6.1875    0.0000 C   0  0  0  0  0  0  0  0  0  0  0  0
   -6.1704    6.9375    0.0000 C   0  0  0  0  0  0  0  0  0  0  0  0
   -7.4695    6.1875    0.0000 N   0  0  0  0  0  0  0  0  0  0  0  0
  4  1  2  0
  5  2  1  0
  6  3  1  0
  7  4  1  0
  8  7  1  0
  9  8  1  0
 10  9  1  0
 10 11  2  0
 12 11  1  0
 13  5  1  0
 13  6  1  0
 13 12  1  0
M  END
>  <NAME>  (1504) 
N,N-DIETHYL-2,7-OCTADIENYLAMINE

>  <SYNONYMS>  (1504) 


>  <SPECTRUM TYPE>  (1504) 
MS1

>  <INSTRUMENT TYPE>  (1504) 
EI-B

>  <INSTRUMENT>  (1504) 
JEOL JMS-D-300

>  <ION MODE>  (1504) 
P

>  <INCHIKEY>  (1504) 
ZDIDSJWITLGYFN-ZHACJKMWSA-N

>  <FORMULA>  (1504) 
C12H23N

>  <EXACT MASS>  (1504) 
181.183049736

>  <MW>  (1504) 
181

>  <ID>  (1504) 
JP009809

>  <CONTRIBUTOR>  (1504) 
University of Tokyo Team, {Faculty of Engineering, University of Tokyo

>  <COMMENT>  (1504) 
SMILES=C=CCCCC=CCN(CC)CC
InChI=InChI=1S/C12H23N/c1-4-7-8-9-10-11-12-13(5-2)6-3/h4,10-11H,1,5-9,12H2,2-3H3/b11-10+
computed SMILES=C=CCCCC=CCN(CC)CC
accession=JP009809
date=2016.01.19 (Created 2008.10.21, modified 2011.05.06)
author=KURARAY CO., LTD.
license=CC BY-NC-SA
exact mass=181.18305
ionization energy=70 eV
ion type=[M]+*
computed spectral entropy=3.1655442122400577
computed normalized entropy=0.7700416789306286
SPLASH=splash10-066r-9200000000-c80f069f3875a73e0def
submitter=submitter = University of Tokyo Team (Faculty of Engineering, University of Tokyo)
MoNA Rating=3.75

>  <NUM PEAKS>  (1504) 
61

>  <MASS SPECTRAL PEAKS>  (1504) 
26 4.2
27 10.6
28 3.9
29 1.56
30 11.3
39 10.8
40 3
41 2.41
42 15.3
43 46.6
44 3.9
53 0.78
54 14.1
55 31.3
56 17.6
57 0.66
58 99.99
59 5.9
65 3.4
66 0.31
67 90.5
68 8.8
69 2.8
70 0.47
71 7.7
72 17.2
73 31.4
74 0.3
77 3
79 7.5
80 6.3
81 1.13
82 4.7
83 1.6
84 5.6
85 0.19
86 50.9
87 3.4
91 1.9
93 0.36
94 1.9
96 3.8
97 1.7
98 0.55
99 7.8
100 1.6
107 1.9
108 0.36
109 20.8
110 6.9
111 1.7
112 0.98
124 2.3
126 5.5
138 9.4
152 0.16
166 92
167 11.6
180 8.4
181 1.66
182 3

>  <PREDICTED SPECTRUM>  (1504) 
14 33
15 121
16 19
17 30
18 77
19 3
25 7
26 170
27 665
28 449
29 760
30 609
31 202
32 60
33 23
34 16
36 22
37 73
38 107
39 627
40 288
41 980
42 606
43 330
44 545
45 148
46 82
49 39
50 39
51 169
52 83
53 448
54 481
55 653
56 568
57 277
58 999
59 233
60 9
62 16
63 48
64 29
65 215
66 174
67 663
68 405
69 288
70 366
71 286
72 397
73 239
74 39
77 234
78 47
79 336
80 248
81 452
82 278
83 106
84 244
85 129
86 910
87 178
91 115
92 23
93 311
94 179
95 315
96 118
97 71
98 295
99 221
100 142
105 20
106 51
107 159
108 204
109 432
110 203
111 78
112 298
113 134
114 49
122 83
124 211
125 112
126 319
127 156
136 68
137 79
138 216
139 110
140 86
152 288
153 126
166 783
167 233
168 34
180 301
181 334
182 93

$$$$

     RDKit          2D

 13 14  0  0  0  0  0  0  0  0999 V2000
    7.6332    1.0841    0.0000 C   0  0  0  0  0  0  0  0  0  0  0  0
   -0.6759    1.4813    0.0000 C   0  0  0  0  0  0  0  0  0  0  0  0
   -0.6759   -2.3013    0.0000 C   0  0  0  0  0  0  0  0  0  0  0  0
    2.4475    2.5900    0.0000 C   0  0  0  0  0  0  0  0  0  0  0  0
    6.3331    0.3361    0.0000 C   0  0  0  0  0  0  0  0  0  0  0  0
    1.1450   -1.1600    0.0000 C   0  0  0  0  0  0  0  0  0  0  0  0
    1.1450    0.3400    0.0000 C   0  0  0  0  0  0  0  0  0  0  0  0
    3.7350   -1.1600    0.0000 C   0  0  0  0  0  0  0  0  0  0  0  0
    2.4450   -1.9100    0.0000 C   0  0  0  0  0  0  0  0  0  0  0  0
    3.7350    0.3400    0.0000 C   0  0  0  0  0  0  0  0  0  0  0  0
    1.5750   -0.4100    0.0000 C   0  0  0  0  0  0  0  0  0  0  0  0
    2.4450    1.0900    0.0000 C   0  0  0  0  0  0  0  0  0  0  0  0
    5.0352    1.0880    0.0000 O   0  0  0  0  0  0  0  0  0  0  0  0
  5  1  2  0
  7  6  1  0
  9  6  1  0
  9  8  1  0
 10  8  1  0
 11  2  1  0
 11  3  1  0
 11  9  1  0
 12  4  1  0
 12  7  1  0
 12 10  1  0
 12 11  1  0
 13  5  1  0
 13 10  1  0
M  END
>  <NAME>  (1505) 
2-ETHENOXY-1,7,7-TRIMETHYLBICYCLO(2.2.1)HEPTANE

>  <SYNONYMS>  (1505) 


>  <SPECTRUM TYPE>  (1505) 
MS1

>  <INSTRUMENT TYPE>  (1505) 
EI-B

>  <INSTRUMENT>  (1505) 
JEOL JMS-D-300

>  <ION MODE>  (1505) 
P

>  <INCHIKEY>  (1505) 
LQLLNKLOYCYFEB-UHFFFAOYSA-N

>  <FORMULA>  (1505) 
C12H20O

>  <EXACT MASS>  (1505) 
180.15141526

>  <MW>  (1505) 
180

>  <ID>  (1505) 
JP009808

>  <CONTRIBUTOR>  (1505) 
University of Tokyo Team, {Faculty of Engineering, University of Tokyo

>  <COMMENT>  (1505) 
SMILES=C=COC(C1)C(C)(C2)C(C)(C)C(C2)1
InChI=InChI=1S/C12H20O/c1-5-13-10-8-9-6-7-12(10,4)11(9,2)3/h5,9-10H,1,6-8H2,2-4H3
computed SMILES=O(C=C)C1CC2CCC1(C)C2(C)C
accession=JP009808
date=2016.01.19 (Created 2008.10.21, modified 2011.05.06)
author=KURARAY CO., LTD.
license=CC BY-NC-SA
exact mass=180.15142
ionization energy=70 eV
ion type=[M]+*
computed spectral entropy=2.3601412535366335
computed normalized entropy=0.7243926709949047
SPLASH=splash10-00m0-9300000000-3192d5bb93f4572e45b4
submitter=submitter = University of Tokyo Team (Faculty of Engineering, University of Tokyo)
MoNA Rating=3.75

>  <NUM PEAKS>  (1505) 
26

>  <MASS SPECTRAL PEAKS>  (1505) 
27 5.6
29 5.8
39 5.2
41 1.7
43 13.6
53 6.1
55 9.8
57 1.06
67 23.3
68 3.1
69 28.4
71 0.98
77 5
79 7.2
81 99.99
82 0.94
83 5.3
91 4.4
93 8.4
95 3.84
96 3.1
107 2.3
109 5.5
121 0.39
137 84.7
138 9.8

>  <PREDICTED SPECTRUM>  (1505) 
0 1
15 33
25 8
26 80
27 307
28 168
29 288
30 72
31 33
36 8
37 32
38 75
39 354
40 109
41 587
42 152
43 440
44 166
45 140
46 5
47 18
50 38
51 113
52 71
53 278
54 102
55 312
56 37
57 118
58 6
62 6
63 55
64 48
65 143
66 147
67 414
68 140
69 403
70 62
71 184
77 219
78 73
79 240
80 83
81 797
82 173
83 126
84 19
91 176
92 158
93 288
94 108
95 553
96 174
105 13
107 49
108 147
109 273
110 139
111 17
121 94
135 10
136 149
137 999
138 419
139 107
140 25
152 17
165 42
180 136
181 46
182 15

$$$$

     RDKit          2D

 14 15  0  0  0  0  0  0  0  0999 V2000
    3.8971    1.0700    0.0000 C   0  0  0  0  0  0  0  0  0  0  0  0
   -5.1962    4.8200    0.0000 C   0  0  0  0  0  0  0  0  0  0  0  0
    3.8976    2.5708    0.0000 C   0  0  0  0  0  0  0  0  0  0  0  0
    2.5976    0.3192    0.0000 C   0  0  0  0  0  0  0  0  0  0  0  0
   -5.1966    3.3192    0.0000 C   0  0  0  0  0  0  0  0  0  0  0  0
   -3.8966    5.5708    0.0000 C   0  0  0  0  0  0  0  0  0  0  0  0
    2.5986    3.3208    0.0000 C   0  0  0  0  0  0  0  0  0  0  0  0
    1.2986    1.0692    0.0000 C   0  0  0  0  0  0  0  0  0  0  0  0
   -3.8976    2.5692    0.0000 C   0  0  0  0  0  0  0  0  0  0  0  0
   -2.5976    4.8208    0.0000 C   0  0  0  0  0  0  0  0  0  0  0  0
    0.0000    3.3200    0.0000 C   0  0  0  0  0  0  0  0  0  0  0  0
   -1.2990    2.5700    0.0000 C   0  0  0  0  0  0  0  0  0  0  0  0
    1.2990    2.5700    0.0000 C   0  0  0  0  0  0  0  0  0  0  0  0
   -2.5981    3.3200    0.0000 C   0  0  0  0  0  0  0  0  0  0  0  0
  3  1  2  0
  4  1  1  0
  5  2  2  0
  6  2  1  0
  7  3  1  0
  8  4  2  0
  9  5  1  0
 10  6  2  0
 11 12  2  0
 13  7  2  0
 13  8  1  0
 13 11  1  0
 14  9  2  0
 14 10  1  0
 14 12  1  0
M  END
>  <NAME>  (1506) 
1,2-DIPHENYLETHENE

>  <SYNONYMS>  (1506) 
TRANS-STILBENE

>  <SPECTRUM TYPE>  (1506) 
MS1

>  <INSTRUMENT TYPE>  (1506) 
EI-B

>  <INSTRUMENT>  (1506) 
JEOL JMS-D-300

>  <ION MODE>  (1506) 
P

>  <INCHIKEY>  (1506) 
PJANXHGTPQOBST-VAWYXSNFSA-N

>  <FORMULA>  (1506) 
C14H12

>  <EXACT MASS>  (1506) 
180.093900384

>  <MW>  (1506) 
180

>  <ID>  (1506) 
JP009807

>  <CONTRIBUTOR>  (1506) 
University of Tokyo Team, {Faculty of Engineering, University of Tokyo

>  <COMMENT>  (1506) 
SMILES=c(c2)ccc(c2)C=Cc(c1)cccc1
InChI=InChI=1S/C14H12/c1-3-7-13(8-4-1)11-12-14-9-5-2-6-10-14/h1-12H/b12-11+
computed SMILES=C=1C=CC(=CC1)C=CC=2C=CC=CC2
ion type=[M]+*
accession=JP009807
date=2016.01.19 (Created 2008.10.21, modified 2011.05.06)
author=KURARAY CO., LTD.
license=CC BY-NC-SA
exact mass=180.0939
ionization energy=70 eV
computed spectral entropy=2.2047543372838376
computed normalized entropy=0.6420391824419724
SPLASH=splash10-003r-1900000000-4545c05c12e925c28411
submitter=submitter = University of Tokyo Team (Faculty of Engineering, University of Tokyo)
MoNA Rating=3.75

>  <NUM PEAKS>  (1506) 
31

>  <MASS SPECTRAL PEAKS>  (1506) 
39 3.2
50 2.5
51 6.8
52 0.21
62 1.1
63 4.6
64 1.3
65 0.14
76 12.2
77 5.7
78 2.7
82 0.28
89 4.2
90 4.2
102 4
115 0.2
126 1
139 2.1
150 1.2
151 0.38
152 7.4
153 2.1
164 1.1
165 3.28
166 4.4
176 6.4
177 6.1
178 4.67
179 81.7
180 99.99
181 14.5

>  <PREDICTED SPECTRUM>  (1506) 
26 33
27 88
28 17
29 4
37 4
38 55
39 203
40 56
41 71
43 10
44 8
49 10
50 183
51 287
52 122
53 5
61 35
62 140
63 244
64 82
65 104
69 48
70 54
71 11
74 118
75 199
76 266
77 281
78 188
81 21
82 60
83 29
84 8
86 64
87 152
88 230
89 300
90 75
91 66
92 33
94 34
95 18
96 45
97 5
98 85
99 42
100 32
101 97
102 278
103 232
104 111
105 12
106 74
113 74
114 14
115 248
116 13
126 76
127 64
128 73
137 19
138 12
139 196
140 98
141 21
150 58
151 175
152 251
153 191
154 65
163 64
164 104
165 622
166 201
167 7
175 83
176 242
177 235
178 641
179 798
180 999
181 381
182 122

$$$$

     RDKit          2D

 13 13  0  0  0  0  0  0  0  0999 V2000
    8.7242    0.5412    0.0000 C   0  0  0  0  0  0  0  0  0  0  0  0
   -1.6700   -0.9600    0.0000 C   0  0  0  0  0  0  0  0  0  0  0  0
   -1.6700    0.5400    0.0000 C   0  0  0  0  0  0  0  0  0  0  0  0
   -0.3700   -1.7100    0.0000 C   0  0  0  0  0  0  0  0  0  0  0  0
   -0.3700    1.2900    0.0000 C   0  0  0  0  0  0  0  0  0  0  0  0
    0.9300   -0.9600    0.0000 C   0  0  0  0  0  0  0  0  0  0  0  0
    4.8270    1.2906    0.0000 C   0  0  0  0  0  0  0  0  0  0  0  0
    3.5281    0.5404    0.0000 C   0  0  0  0  0  0  0  0  0  0  0  0
    7.4251    1.2910    0.0000 C   0  0  0  0  0  0  0  0  0  0  0  0
    0.9300    0.5400    0.0000 C   0  0  0  0  0  0  0  0  0  0  0  0
    7.4248    2.7910    0.0000 O   0  0  0  0  0  0  0  0  0  0  0  0
    6.1262    0.5408    0.0000 O   0  0  0  0  0  0  0  0  0  0  0  0
    2.2289    1.2902    0.0000 O   0  0  0  0  0  0  0  0  0  0  0  0
  3  2  2  0
  4  2  1  0
  5  3  1  0
  6  4  2  0
  8  7  1  0
  9  1  1  0
 10  5  2  0
 10  6  1  0
 11  9  2  0
 12  7  1  0
 12  9  1  0
 13  8  1  0
 13 10  1  0
M  END
>  <NAME>  (1507) 
2-PHENOXYETHYL ACETATE

>  <SYNONYMS>  (1507) 


>  <SPECTRUM TYPE>  (1507) 
MS1

>  <INSTRUMENT TYPE>  (1507) 
EI-B

>  <INSTRUMENT>  (1507) 
JEOL JMS-D-300

>  <ION MODE>  (1507) 
P

>  <INCHIKEY>  (1507) 
WHFKYDMBUMLWDA-UHFFFAOYSA-N

>  <FORMULA>  (1507) 
C10H12O3

>  <EXACT MASS>  (1507) 
180.078644244

>  <MW>  (1507) 
180

>  <ID>  (1507) 
JP009806

>  <CONTRIBUTOR>  (1507) 
University of Tokyo Team, {Faculty of Engineering, University of Tokyo

>  <COMMENT>  (1507) 
SMILES=CC(=O)OCCOc(c1)cccc1
InChI=InChI=1S/C10H12O3/c1-9(11)12-7-8-13-10-5-3-2-4-6-10/h2-6H,7-8H2,1H3
computed SMILES=O=C(OCCOC=1C=CC=CC1)C
accession=JP009806
date=2016.01.19 (Created 2008.10.21, modified 2011.05.06)
author=KURARAY CO., LTD.
license=CC BY-NC-SA
exact mass=180.07864
ionization energy=70 eV
ion type=[M]+*
computed spectral entropy=1.748294862609061
computed normalized entropy=0.5937616214766988
SPLASH=splash10-000l-9000000000-0cb4d7971615c1df44f1
submitter=submitter = University of Tokyo Team (Faculty of Engineering, University of Tokyo)
MoNA Rating=3.75

>  <NUM PEAKS>  (1507) 
19

>  <MASS SPECTRAL PEAKS>  (1507) 
39 2.6
43 63.7
44 1.4
51 0.64
65 5.2
77 12.2
79 4.9
87 99.99
88 5.9
91 2.3
93 3.3
94 1.58
95 2.1
97 1.3
98 3.3
107 0.51
110 3.3
120 3.4
180 4.6

>  <PREDICTED SPECTRUM>  (1507) 
14 6
15 66
18 14
26 41
27 47
28 29
29 19
37 6
38 43
39 201
40 64
41 130
42 120
43 842
44 165
45 135
50 121
51 241
52 63
53 21
59 154
61 10
62 91
63 185
64 97
65 337
66 151
76 50
77 337
78 82
79 89
87 999
88 250
89 217
90 18
91 211
93 224
94 296
95 40
107 98
117 14
120 58
121 100
122 15
180 89
181 14

$$$$

     RDKit          2D

 13 14  0  0  0  0  0  0  0  0999 V2000
    5.8467    1.3723    0.0000 C   0  0  0  0  0  0  0  0  0  0  0  0
    1.9500   -0.9000    0.0000 C   0  0  0  0  0  0  0  0  0  0  0  0
    0.6300   -1.6600    0.0000 C   0  0  0  0  0  0  0  0  0  0  0  0
    0.6300    1.3800    0.0000 C   0  0  0  0  0  0  0  0  0  0  0  0
   -2.9400   -0.2300    0.0000 C   0  0  0  0  0  0  0  0  0  0  0  0
    1.9500    0.6200    0.0000 C   0  0  0  0  0  0  0  0  0  0  0  0
   -0.6600   -0.9000    0.0000 C   0  0  0  0  0  0  0  0  0  0  0  0
   -0.6600    0.6200    0.0000 C   0  0  0  0  0  0  0  0  0  0  0  0
    3.2486    1.3708    0.0000 C   0  0  0  0  0  0  0  0  0  0  0  0
    3.2477    2.8708    0.0000 O   0  0  0  0  0  0  0  0  0  0  0  0
    4.5481    0.6216    0.0000 O   0  0  0  0  0  0  0  0  0  0  0  0
   -2.0600   -1.3400    0.0000 O   0  0  0  0  0  0  0  0  0  0  0  0
   -2.0900    1.0600    0.0000 O   0  0  0  0  0  0  0  0  0  0  0  0
  3  2  2  0
  6  2  1  0
  6  4  2  0
  7  3  1  0
  8  4  1  0
  8  7  2  0
  9  6  1  0
 10  9  2  0
 11  1  1  0
 11  9  1  0
 12  5  1  0
 12  7  1  0
 13  5  1  0
 13  8  1  0
M  END
>  <NAME>  (1508) 
METHYL 3,4-METHYLENEDIOXYBENZOATE

>  <SYNONYMS>  (1508) 
3,4-METHYLENEDIOXYBEZOIC ACID METHYL ESTER

>  <SPECTRUM TYPE>  (1508) 
MS1

>  <INSTRUMENT TYPE>  (1508) 
EI-B

>  <INSTRUMENT>  (1508) 
JEOL JMS-D-300

>  <ION MODE>  (1508) 
P

>  <INCHIKEY>  (1508) 
QCHGUEIECOASJU-UHFFFAOYSA-N

>  <FORMULA>  (1508) 
C9H8O4

>  <EXACT MASS>  (1508) 
180.042258736

>  <MW>  (1508) 
180

>  <ID>  (1508) 
JP009805

>  <CONTRIBUTOR>  (1508) 
University of Tokyo Team, {Faculty of Engineering, University of Tokyo

>  <COMMENT>  (1508) 
SMILES=COC(=O)c(c1)cc(O2)c(OC2)c1
InChI=InChI=1S/C9H8O4/c1-11-9(10)6-2-3-7-8(4-6)13-5-12-7/h2-4H,5H2,1H3
computed SMILES=O=C(OC)C1=CC=C2OCOC2=C1
accession=JP009805
date=2016.01.19 (Created 2008.10.21, modified 2011.05.06)
author=KURARAY CO., LTD.
license=CC BY-NC-SA
exact mass=180.04226
ionization energy=70 eV
ion type=[M]+*
computed spectral entropy=1.5737252518972618
computed normalized entropy=0.6135502236405699
SPLASH=splash10-0002-2900000000-54241e93694b071a67d5
submitter=submitter = University of Tokyo Team (Faculty of Engineering, University of Tokyo)
MoNA Rating=3.75

>  <NUM PEAKS>  (1508) 
13

>  <MASS SPECTRAL PEAKS>  (1508) 
39 3.2
62 5.3
63 7.8
65 0.51
74 5.8
91 7.4
119 4.8
121 1.71
149 99.99
150 5.6
179 7.7
180 6.27
181 6.1

>  <PREDICTED SPECTRUM>  (1508) 
14 22
15 115
16 0
26 20
29 88
31 18
37 131
38 176
39 205
40 22
41 5
44 41
45 3
49 128
50 364
51 386
52 154
53 334
54 93
55 88
59 114
61 165
62 331
63 524
64 255
65 501
66 216
67 58
68 20
69 59
74 234
75 103
76 204
77 313
78 127
79 214
80 82
81 53
82 0
83 14
84 81
86 27
89 3
90 150
91 307
92 202
93 248
94 42
95 56
98 56
104 63
106 42
107 27
119 161
120 87
121 631
122 298
135 92
136 49
137 15
138 18
147 48
149 999
150 286
151 103
179 146
180 774
181 226
182 87

$$$$

     RDKit          2D

 11 10  0  0  0  0  0  0  0  0999 V2000
   -5.3469    4.4130    0.0000 C   0  0  0  0  0  0  0  0  0  0  0  0
    0.3983    2.3639    0.0000 C   0  0  0  0  0  0  0  0  0  0  0  0
    2.4474    2.9130    0.0000 C   0  0  0  0  0  0  0  0  0  0  0  0
   -1.4498    3.6630    0.0000 C   0  0  0  0  0  0  0  0  0  0  0  0
   -4.0478    3.6630    0.0000 C   0  0  0  0  0  0  0  0  0  0  0  0
   -0.1507    4.4130    0.0000 C   0  0  0  0  0  0  0  0  0  0  0  0
    1.1483    3.6630    0.0000 C   0  0  0  0  0  0  0  0  0  0  0  0
   -0.1507    5.9130    0.0000 Cl  0  0  0  0  0  0  0  0  0  0  0  0
   -4.0478    2.1630    0.0000 O   0  0  0  0  0  0  0  0  0  0  0  0
    1.8983    4.9620    0.0000 O   0  0  0  0  0  0  0  0  0  0  0  0
   -2.7488    4.4130    0.0000 O   0  0  0  0  0  0  0  0  0  0  0  0
  5  1  1  0
  6  4  1  0
  7  2  1  0
  7  3  1  0
  7  6  1  0
  8  6  1  0
  9  5  2  0
 10  7  1  0
 11  4  1  0
 11  5  1  0
M  END
>  <NAME>  (1509) 
2-CHLORO-3-HYDROXY-3-METHYLBUTYL ACETATE

>  <SYNONYMS>  (1509) 


>  <SPECTRUM TYPE>  (1509) 
MS1

>  <INSTRUMENT TYPE>  (1509) 
EI-B

>  <INSTRUMENT>  (1509) 
JEOL JMS-D-300

>  <ION MODE>  (1509) 
P

>  <INCHIKEY>  (1509) 
GVGGNYJJOUJXTK-UHFFFAOYSA-N

>  <FORMULA>  (1509) 
C7H13ClO3

>  <EXACT MASS>  (1509) 
180.055321956

>  <MW>  (1509) 
180

>  <ID>  (1509) 
JP009804

>  <CONTRIBUTOR>  (1509) 
University of Tokyo Team, {Faculty of Engineering, University of Tokyo

>  <COMMENT>  (1509) 
SMILES=CC(=O)OCC(Cl)C(C)(C)O
InChI=InChI=1S/C7H13ClO3/c1-5(9)11-4-6(8)7(2,3)10/h6,10H,4H2,1-3H3
computed SMILES=O=C(OCC(Cl)C(O)(C)C)C
accession=JP009804
date=2016.01.19 (Created 2008.10.21, modified 2011.05.06)
author=KURARAY CO., LTD.
license=CC BY-NC-SA
exact mass=180.05532
ionization energy=70 eV
ion type=[M]+*
computed spectral entropy=2.1366238602156247
computed normalized entropy=0.6482796167050394
SPLASH=splash10-0a4l-9100000000-4224b92d11cc797ab7e8
submitter=submitter = University of Tokyo Team (Faculty of Engineering, University of Tokyo)
MoNA Rating=3.75

>  <NUM PEAKS>  (1509) 
27

>  <MASS SPECTRAL PEAKS>  (1509) 
27 3.1
29 1.9
31 7.8
39 0.25
41 6.6
42 2.5
43 99.99
44 0.25
55 3.3
58 19.4
59 90.5
60 0.31
61 3.1
62 12.8
64 4.4
85 0.78
86 3.9
87 2.5
90 6.9
92 0.23
101 5.3
103 8.1
105 18.3
107 0.59
120 2.7
122 1.6
123 1.6

>  <PREDICTED SPECTRUM>  (1509) 
14 15
15 95
26 33
27 182
28 81
29 166
31 285
33 43
36 3
39 119
40 64
41 259
42 124
43 681
44 149
45 80
49 49
51 20
53 41
54 2
55 43
56 114
57 113
58 271
59 999
60 125
61 83
62 21
63 73
65 2
67 64
69 38
71 82
76 1
77 22
79 39
80 18
83 41
84 43
85 235
86 183
87 114
88 44
90 58
101 4
102 28
103 118
104 79
105 189
106 32
107 45
113 23
120 16
121 46
122 48
123 1
127 2
147 1

$$$$

     RDKit          2D

 11 10  0  0  0  0  0  0  0  0999 V2000
    2.9228    3.1875    0.0000 C   0  0  0  0  0  0  0  0  0  0  0  0
   -2.6082    5.0866    0.0000 C   0  0  0  0  0  0  0  0  0  0  0  0
   -2.2733    3.1875    0.0000 C   0  0  0  0  0  0  0  0  0  0  0  0
   -0.9743    3.9375    0.0000 C   0  0  0  0  0  0  0  0  0  0  0  0
   -4.8714    3.1875    0.0000 C   0  0  0  0  0  0  0  0  0  0  0  0
    1.6238    3.9375    0.0000 C   0  0  0  0  0  0  0  0  0  0  0  0
   -3.5724    3.9375    0.0000 C   0  0  0  0  0  0  0  0  0  0  0  0
   -6.1704    3.9375    0.0000 Cl  0  0  0  0  0  0  0  0  0  0  0  0
    1.6238    5.4375    0.0000 O   0  0  0  0  0  0  0  0  0  0  0  0
   -4.5365    5.0866    0.0000 O   0  0  0  0  0  0  0  0  0  0  0  0
    0.3248    3.1875    0.0000 O   0  0  0  0  0  0  0  0  0  0  0  0
  4  3  1  0
  6  1  1  0
  7  2  1  0
  7  3  1  0
  7  5  1  0
  8  5  1  0
  9  6  2  0
 10  7  1  0
 11  4  1  0
 11  6  1  0
M  END
>  <NAME>  (1510) 
4-CHLORO-3-HYDROXY-3-METHYLBUTYL ACETATE

>  <SYNONYMS>  (1510) 


>  <SPECTRUM TYPE>  (1510) 
MS1

>  <INSTRUMENT TYPE>  (1510) 
EI-B

>  <INSTRUMENT>  (1510) 
JEOL JMS-D-300

>  <ION MODE>  (1510) 
P

>  <INCHIKEY>  (1510) 
CXGRFFKXRMWAOS-UHFFFAOYSA-N

>  <FORMULA>  (1510) 
C7H13ClO3

>  <EXACT MASS>  (1510) 
180.055321956

>  <MW>  (1510) 
180

>  <ID>  (1510) 
JP009803

>  <CONTRIBUTOR>  (1510) 
University of Tokyo Team, {Faculty of Engineering, University of Tokyo

>  <COMMENT>  (1510) 
SMILES=CC(=O)OCCC(C)(O)CCl
InChI=InChI=1S/C7H13ClO3/c1-6(9)11-4-3-7(2,10)5-8/h10H,3-5H2,1-2H3
computed SMILES=O=C(OCCC(O)(C)CCl)C
accession=JP009803
date=2016.01.19 (Created 2008.10.21, modified 2011.05.06)
author=KURARAY CO., LTD.
license=CC BY-NC-SA
exact mass=180.05532
ionization energy=70 eV
ion type=[M]+*
computed spectral entropy=2.421705467771066
computed normalized entropy=0.6926069585719333
SPLASH=splash10-0006-9000000000-a6d5b5ad832148de0527
submitter=submitter = University of Tokyo Team (Faculty of Engineering, University of Tokyo)
MoNA Rating=3.75

>  <NUM PEAKS>  (1510) 
33

>  <MASS SPECTRAL PEAKS>  (1510) 
27 4.7
28 6.9
29 8.5
31 0.32
39 3
41 4.5
42 3.2
43 99.99
44 4
45 8.5
53 1.4
55 0.38
56 1.7
57 6.4
58 2.3
61 1.3
67 1.4
69 2.2
70 4.5
71 5.04
72 2.9
73 5.8
77 1.8
84 0.14
87 2.7
88 13.3
89 7.1
92 0.12
93 11
95 3.6
103 1.3
105 0.81
107 2.5

>  <PREDICTED SPECTRUM>  (1510) 
14 20
15 63
25 6
26 47
27 183
28 72
29 146
31 113
33 24
36 12
37 2
38 29
39 164
40 82
41 319
42 184
43 999
44 182
45 102
49 76
50 30
51 89
52 23
53 88
54 27
55 125
56 140
57 182
58 183
59 130
60 29
61 157
62 30
63 61
65 38
66 5
67 52
68 18
69 104
70 77
71 212
72 146
73 150
74 22
75 41
76 4
77 87
78 25
79 61
80 20
83 21
84 9
85 83
86 63
87 257
88 121
89 206
90 40
91 48
93 49
95 91
101 54
102 40
103 47
104 18
105 78
106 24
107 89
108 27
109 30
110 8
115 24
118 3
121 45
122 36
123 42
131 50
135 0
165 1

$$$$

     RDKit          2D

  5  0  0  0  0  0  0  0  0  0999 V2000
    0.0000    0.0000    0.0000 C   0  0  0  0  0  3  0  0  0  0  0  0
    0.0000    0.0000    0.0000 C   0  0  0  0  0  3  0  0  0  0  0  0
    0.0000    0.0000    0.0000 C   0  0  0  0  0  3  0  0  0  0  0  0
    0.0000    0.0000    0.0000 C   0  0  0  0  0  3  0  0  0  0  0  0
    0.0000    0.0000    0.0000 Sn  0  0  0  0  0 15  0  0  0  0  0  0
M  RAD  4   1   2   2   2   3   2   4   2
M  END
>  <NAME>  (1511) 
TETRAMETHYLTIN

>  <SYNONYMS>  (1511) 


>  <SPECTRUM TYPE>  (1511) 
MS1

>  <INSTRUMENT TYPE>  (1511) 
EI-B

>  <INSTRUMENT>  (1511) 
JEOL JMS-D-300

>  <ION MODE>  (1511) 
P

>  <INCHIKEY>  (1511) 
VXKWYPOMXBVZSJ-UHFFFAOYSA-N

>  <FORMULA>  (1511) 
C4H12Sn

>  <EXACT MASS>  (1511) 
179.996095084

>  <MW>  (1511) 
180

>  <ID>  (1511) 
JP009802

>  <CONTRIBUTOR>  (1511) 
University of Tokyo Team, {Faculty of Engineering, University of Tokyo

>  <COMMENT>  (1511) 
SMILES=C[Sn](C)(C)C
InChI=InChI=1S/4CH3.Sn/h4*1H3;
computed SMILES=[Sn].[CH3].[CH3].[CH3].[CH3]
accession=JP009802
date=2016.01.19 (Created 2008.10.21, modified 2011.05.06)
author=KURARAY CO., LTD.
license=CC BY-NC-SA
exact mass=179.9961
ionization energy=70 eV
ion type=[M]+*
computed spectral entropy=2.6902991303859056
computed normalized entropy=0.7909858877614342
SPLASH=splash10-03xr-0900000000-d97a03123fd77919e290
submitter=submitter = University of Tokyo Team (Faculty of Engineering, University of Tokyo)
MoNA Rating=3.75

>  <NUM PEAKS>  (1511) 
30

>  <MASS SPECTRAL PEAKS>  (1511) 
116 5.2
117 5.9
118 10.8
119 0.86
120 14.1
121 7
130 2.3
131 1.39
132 10.8
133 21.6
134 11.7
135 2.63
137 3.9
139 4.2
146 9.7
147 0.63
148 16.3
149 7
150 21.6
152 0.31
154 3.4
157 3
161 44.7
162 2.47
163 73.8
164 28.9
165 99.99
166 0.31
167 13.9
169 17.7

>  <PREDICTED SPECTRUM>  (1511) 
14 92
16 54
19 140
25 62
28 100
30 277
38 173
41 48
53 153
64 49
92 35
106 97
110 228
123 68
140 454
141 33
142 353
153 150
161 502
176 26
177 177
178 633
180 999
181 12
182 94

$$$$

     RDKit          2D

 13 12  0  0  0  0  0  0  0  0999 V2000
    3.5724    4.3125    0.0000 C   0  0  0  0  0  0  0  0  0  0  0  0
   -8.1190    5.0625    0.0000 C   0  0  0  0  0  0  0  0  0  0  0  0
   -6.8200    7.3125    0.0000 C   0  0  0  0  0  0  0  0  0  0  0  0
   -1.6238    7.3125    0.0000 C   0  0  0  0  0  0  0  0  0  0  0  0
    2.2733    5.0625    0.0000 C   0  0  0  0  0  0  0  0  0  0  0  0
   -4.2219    5.8125    0.0000 C   0  0  0  0  0  0  0  0  0  0  0  0
   -5.5209    5.0625    0.0000 C   0  0  0  0  0  0  0  0  0  0  0  0
   -2.9228    5.0625    0.0000 C   0  0  0  0  0  0  0  0  0  0  0  0
   -0.3248    5.0625    0.0000 C   0  0  0  0  0  0  0  0  0  0  0  0
   -6.8200    5.8125    0.0000 C   0  0  0  0  0  0  0  0  0  0  0  0
   -1.6238    5.8125    0.0000 C   0  0  0  0  0  0  0  0  0  0  0  0
    0.9743    5.8125    0.0000 C   0  0  0  0  0  0  0  0  0  0  0  0
    0.9743    7.3125    0.0000 O   0  0  0  0  0  0  0  0  0  0  0  0
  5  1  3  0
  7  6  1  0
  8  6  1  0
 10  2  1  0
 10  3  1  0
 10  7  2  0
 11  4  1  0
 11  8  1  0
 11  9  1  0
 12  5  1  0
 12  9  1  0
 13 12  2  0
M  END
>  <NAME>  (1512) 
5,9-DIMETHYLDEC-8-EN-1-YN-3-ONE

>  <SYNONYMS>  (1512) 


>  <SPECTRUM TYPE>  (1512) 
MS1

>  <INSTRUMENT TYPE>  (1512) 
EI-B

>  <INSTRUMENT>  (1512) 
JEOL JMS-D-300

>  <ION MODE>  (1512) 
P

>  <INCHIKEY>  (1512) 
YGQFGXUPZVFDTI-UHFFFAOYSA-N

>  <FORMULA>  (1512) 
C12H18O

>  <EXACT MASS>  (1512) 
178.135765196

>  <MW>  (1512) 
178

>  <ID>  (1512) 
JP009801

>  <CONTRIBUTOR>  (1512) 
University of Tokyo Team, {Faculty of Engineering, University of Tokyo

>  <COMMENT>  (1512) 
SMILES=C#CC(=O)CC(C)CCC=C(C)C
InChI=InChI=1S/C12H18O/c1-5-12(13)9-11(4)8-6-7-10(2)3/h1,7,11H,6,8-9H2,2-4H3
computed SMILES=O=C(C#C)CC(C)CCC=C(C)C
accession=JP009801
date=2016.01.19 (Created 2008.10.21, modified 2011.05.06)
author=KURARAY CO., LTD.
license=CC BY-NC-SA
exact mass=178.13577
ionization energy=70 eV
ion type=[M]+*
computed spectral entropy=3.1643403891798516
computed normalized entropy=0.8088757107995419
SPLASH=splash10-00ke-9300000000-417fd7cdbbc499dee0d9
submitter=submitter = University of Tokyo Team (Faculty of Engineering, University of Tokyo)
MoNA Rating=3.75

>  <NUM PEAKS>  (1512) 
50

>  <MASS SPECTRAL PEAKS>  (1512) 
27 9.6
28 2.8
29 8.5
39 1.59
40 3.5
41 72.3
42 6.1
43 1.2
51 2.5
53 45.1
54 3.9
55 3.93
56 10.9
57 2.5
65 3.6
67 2.13
68 14.8
69 87.1
70 9.5
77 0.71
79 14.5
80 7.2
81 25.9
82 0.79
83 10.6
91 8.4
93 17.4
94 0.57
95 99.99
96 12.1
105 6.2
107 2.03
108 12.4
109 15.8
110 24.8
111 0.3
117 3.9
119 5
121 17.2
122 0.5
123 6.7
134 3.4
135 42.1
136 1.19
145 14.8
149 4.5
161 2
163 6.59
164 8.9
177 3.2

>  <PREDICTED SPECTRUM>  (1512) 
25 1
26 45
27 278
28 86
29 250
30 3
32 3
36 4
37 13
38 53
39 378
40 156
41 773
42 155
43 350
44 40
50 90
51 186
52 126
53 363
54 134
55 293
56 194
57 64
59 66
62 12
63 65
64 30
65 162
66 119
67 465
68 248
69 999
70 237
71 23
72 26
73 31
74 19
75 54
76 5
77 237
78 117
79 278
80 113
81 424
82 301
83 136
84 52
85 9
89 25
91 200
92 77
93 295
94 195
95 645
96 308
97 59
98 25
101 24
102 71
103 68
104 47
105 170
106 72
107 363
108 208
109 398
110 297
111 5
115 23
117 126
118 69
119 67
120 162
121 226
122 213
123 183
124 11
131 17
132 0
133 22
134 113
135 391
136 153
137 1
143 12
145 254
146 78
149 65
150 48
160 55
163 228
164 67
178 119
179 19

$$$$

     RDKit          2D

 13 13  0  0  0  0  0  0  0  0999 V2000
   -5.8454    3.6946    0.0000 C   0  0  0  0  0  0  0  0  0  0  0  0
   -4.5464    1.4446    0.0000 C   0  0  0  0  0  0  0  0  0  0  0  0
    3.2478    1.4446    0.0000 C   0  0  0  0  0  0  0  0  0  0  0  0
    3.2483    2.9454    0.0000 C   0  0  0  0  0  0  0  0  0  0  0  0
    1.9483    0.6938    0.0000 C   0  0  0  0  0  0  0  0  0  0  0  0
    1.9493    3.6954    0.0000 C   0  0  0  0  0  0  0  0  0  0  0  0
    0.6493    1.4438    0.0000 C   0  0  0  0  0  0  0  0  0  0  0  0
   -3.2474    3.6946    0.0000 C   0  0  0  0  0  0  0  0  0  0  0  0
   -4.5464    2.9446    0.0000 C   0  0  0  0  0  0  0  0  0  0  0  0
    0.6498    2.9446    0.0000 C   0  0  0  0  0  0  0  0  0  0  0  0
   -0.6493    3.6946    0.0000 C   0  0  0  0  0  0  0  0  0  0  0  0
   -0.6493    5.1946    0.0000 O   0  0  0  0  0  0  0  0  0  0  0  0
   -1.9483    2.9446    0.0000 O   0  0  0  0  0  0  0  0  0  0  0  0
  4  3  2  0
  5  3  1  0
  6  4  1  0
  7  5  2  0
  9  1  1  0
  9  2  1  0
  9  8  1  0
 10  6  2  0
 10  7  1  0
 11 10  1  0
 12 11  2  0
 13  8  1  0
 13 11  1  0
M  END
>  <NAME>  (1513) 
BUTYL BENZOATE

>  <SYNONYMS>  (1513) 


>  <SPECTRUM TYPE>  (1513) 
MS1

>  <INSTRUMENT TYPE>  (1513) 
EI-B

>  <INSTRUMENT>  (1513) 
JEOL JMS-D-300

>  <ION MODE>  (1513) 
P

>  <INCHIKEY>  (1513) 
KYZHGEFMXZOSJN-UHFFFAOYSA-N

>  <FORMULA>  (1513) 
C11H14O2

>  <EXACT MASS>  (1513) 
178.099379688

>  <MW>  (1513) 
178

>  <ID>  (1513) 
JP009800

>  <CONTRIBUTOR>  (1513) 
University of Tokyo Team, {Faculty of Engineering, University of Tokyo

>  <COMMENT>  (1513) 
SMILES=CC(C)COC(=O)c(c1)cccc1
InChI=InChI=1S/C11H14O2/c1-9(2)8-13-11(12)10-6-4-3-5-7-10/h3-7,9H,8H2,1-2H3
computed SMILES=O=C(OCC(C)C)C=1C=CC=CC1
accession=JP009800
date=2016.01.19 (Created 2008.10.21, modified 2011.05.06)
author=KURARAY CO., LTD.
license=CC BY-NC-SA
exact mass=178.09938
ionization energy=70 eV
ion type=[M]+*
computed spectral entropy=1.7021209529708587
computed normalized entropy=0.7098395715107543
SPLASH=splash10-0ab9-3900000000-7236cdc2ceef1cd1ae31
submitter=submitter = University of Tokyo Team (Faculty of Engineering, University of Tokyo)
MoNA Rating=3.75

>  <NUM PEAKS>  (1513) 
11

>  <MASS SPECTRAL PEAKS>  (1513) 
27 4.1
41 10.3
51 14.1
56 2.5
77 45.8
91 1.2
105 99.99
106 0.96
122 20.1
123 70.6
124 4.7

>  <PREDICTED SPECTRUM>  (1513) 
25 3
26 65
27 219
28 134
29 253
31 11
37 29
38 66
39 208
40 66
41 254
42 118
43 81
44 56
45 12
49 20
50 236
51 359
52 96
53 101
54 7
55 127
56 396
57 206
58 21
62 15
63 41
64 19
65 63
73 7
74 52
75 56
76 158
77 632
78 216
79 156
92 33
104 5
105 999
106 313
107 95
122 375
123 590
124 146
178 43
179 13

$$$$

     RDKit          2D

 13 14  0  0  0  0  0  0  0  0999 V2000
   -3.5728   -0.6166    0.0000 C   0  0  0  0  0  0  0  0  0  0  0  0
   -2.2733   -1.3674    0.0000 C   0  0  0  0  0  0  0  0  0  0  0  0
   -3.5733    0.8843    0.0000 C   0  0  0  0  0  0  0  0  0  0  0  0
    2.9243    1.6330    0.0000 C   0  0  0  0  0  0  0  0  0  0  0  0
    2.9246    3.1330    0.0000 C   0  0  0  0  0  0  0  0  0  0  0  0
   -0.9742   -0.6174    0.0000 C   0  0  0  0  0  0  0  0  0  0  0  0
   -2.2742    1.6343    0.0000 C   0  0  0  0  0  0  0  0  0  0  0  0
    1.6242    0.8832    0.0000 C   0  0  0  0  0  0  0  0  0  0  0  0
    1.6247    3.8832    0.0000 C   0  0  0  0  0  0  0  0  0  0  0  0
   -0.9747    0.8834    0.0000 C   0  0  0  0  0  0  0  0  0  0  0  0
    0.3243    1.6334    0.0000 C   0  0  0  0  0  0  0  0  0  0  0  0
    0.3246    3.1334    0.0000 C   0  0  0  0  0  0  0  0  0  0  0  0
   -0.9742    3.8839    0.0000 O   0  0  0  0  0  0  0  0  0  0  0  0
  2  1  2  0
  3  1  1  0
  5  4  1  0
  6  2  1  0
  7  3  2  0
  8  4  1  0
  9  5  1  0
 10  6  2  0
 10  7  1  0
 11  8  1  0
 11 10  1  0
 12  9  1  0
 12 11  1  0
 13 12  1  0
M  END
>  <NAME>  (1514) 
2-PHENYLCYCLOHEXANOL

>  <SYNONYMS>  (1514) 


>  <SPECTRUM TYPE>  (1514) 
MS1

>  <INSTRUMENT TYPE>  (1514) 
EI-B

>  <INSTRUMENT>  (1514) 
JEOL JMS-D-300

>  <ION MODE>  (1514) 
P

>  <INCHIKEY>  (1514) 
AAIBYZBZXNWTPP-UHFFFAOYSA-N

>  <FORMULA>  (1514) 
C12H16O

>  <EXACT MASS>  (1514) 
176.120115132

>  <MW>  (1514) 
176

>  <ID>  (1514) 
JP009799

>  <CONTRIBUTOR>  (1514) 
University of Tokyo Team, {Faculty of Engineering, University of Tokyo

>  <COMMENT>  (1514) 
SMILES=OC(C2)C(CCC2)c(c1)cccc1
InChI=InChI=1S/C12H16O/c13-12-9-5-4-8-11(12)10-6-2-1-3-7-10/h1-3,6-7,11-13H,4-5,8-9H2
computed SMILES=OC1CCCCC1C=2C=CC=CC2
accession=JP009799
date=2016.01.19 (Created 2008.10.21, modified 2011.05.06)
author=KURARAY CO., LTD.
license=CC BY-NC-SA
exact mass=176.12012
ionization energy=70 eV
ion type=[M]+*
computed spectral entropy=2.927344690105527
computed normalized entropy=0.8047492379742609
SPLASH=splash10-002f-6900000000-f68a06f8487cd0c8f4c3
submitter=submitter = University of Tokyo Team (Faculty of Engineering, University of Tokyo)
MoNA Rating=3.75

>  <NUM PEAKS>  (1514) 
38

>  <MASS SPECTRAL PEAKS>  (1514) 
27 5
29 7.1
39 6.8
41 0.57
43 5.9
51 5.2
57 16
65 0.72
67 6.9
71 12.5
77 11.4
78 1.14
79 7.8
80 4.9
84 4.6
85 1.29
91 99.99
92 46.6
93 4.9
98 2.48
103 9.4
104 45.6
105 18.9
115 1.37
116 4.5
117 45
118 5.9
120 0.39
128 4.9
129 26.5
130 45
131 0.82
132 16.3
133 8.1
143 13.1
158 1.56
176 88.8
177 12.1

>  <PREDICTED SPECTRUM>  (1514) 
26 32
27 138
28 18
29 105
31 49
37 14
38 63
39 326
40 110
41 387
42 105
43 267
44 73
45 53
46 1
50 180
51 296
52 190
53 175
54 118
55 219
56 82
57 308
58 181
60 40
62 97
63 207
64 182
65 346
66 156
67 262
68 70
69 79
70 215
71 240
72 80
74 129
75 131
76 156
77 355
78 414
79 331
80 212
81 182
82 87
83 145
84 260
85 244
86 77
87 18
89 222
90 157
91 999
92 638
93 243
94 136
95 165
96 77
97 124
98 140
99 37
102 199
103 380
104 975
105 405
106 168
107 202
108 92
112 14
113 13
114 42
115 516
116 349
117 824
118 617
119 295
120 194
121 49
122 43
125 10
126 17
127 193
128 320
129 554
130 573
131 417
132 281
133 183
134 99
135 16
141 89
142 94
143 465
144 210
145 141
146 2
147 168
148 80
155 176
156 135
157 400
158 785
159 258
160 111
172 10
173 26
174 181
175 63
176 777
177 312
178 84

$$$$

     RDKit          2D

 13 13  0  0  0  0  0  0  0  0999 V2000
   -5.5207    5.3821    0.0000 C   0  0  0  0  0  0  0  0  0  0  0  0
   -6.8197    3.1321    0.0000 C   0  0  0  0  0  0  0  0  0  0  0  0
    3.5726    1.6321    0.0000 C   0  0  0  0  0  0  0  0  0  0  0  0
    3.5731    3.1329    0.0000 C   0  0  0  0  0  0  0  0  0  0  0  0
    2.2731    0.8813    0.0000 C   0  0  0  0  0  0  0  0  0  0  0  0
    2.2740    3.8829    0.0000 C   0  0  0  0  0  0  0  0  0  0  0  0
    0.9740    1.6313    0.0000 C   0  0  0  0  0  0  0  0  0  0  0  0
   -4.2216    3.1321    0.0000 C   0  0  0  0  0  0  0  0  0  0  0  0
   -2.9226    3.8821    0.0000 C   0  0  0  0  0  0  0  0  0  0  0  0
   -0.3245    3.8821    0.0000 C   0  0  0  0  0  0  0  0  0  0  0  0
   -5.5207    3.8821    0.0000 C   0  0  0  0  0  0  0  0  0  0  0  0
    0.9745    3.1321    0.0000 C   0  0  0  0  0  0  0  0  0  0  0  0
   -1.6236    3.1321    0.0000 O   0  0  0  0  0  0  0  0  0  0  0  0
  4  3  2  0
  5  3  1  0
  6  4  1  0
  7  5  2  0
  8  9  2  0
 11  1  2  0
 11  2  1  0
 11  8  1  0
 12  6  2  0
 12  7  1  0
 12 10  1  0
 13  9  1  0
 13 10  1  0
M  END
>  <NAME>  (1515) 
4-BENZYLOXY-2-METHYL-1,3-BUTADIENE

>  <SYNONYMS>  (1515) 


>  <SPECTRUM TYPE>  (1515) 
MS1

>  <INSTRUMENT TYPE>  (1515) 
EI-B

>  <INSTRUMENT>  (1515) 
JEOL JMS-D-300

>  <ION MODE>  (1515) 
P

>  <INCHIKEY>  (1515) 
JICYZRMWDNTUNJ-CMDGGOBGSA-N

>  <FORMULA>  (1515) 
C12H14O

>  <EXACT MASS>  (1515) 
174.104465068

>  <MW>  (1515) 
174

>  <ID>  (1515) 
JP009798

>  <CONTRIBUTOR>  (1515) 
University of Tokyo Team, {Faculty of Engineering, University of Tokyo

>  <COMMENT>  (1515) 
SMILES=CC(=C)C=COCc(c1)cccc1
InChI=InChI=1S/C12H14O/c1-11(2)8-9-13-10-12-6-4-3-5-7-12/h3-9H,1,10H2,2H3/b9-8+
computed SMILES=O(C=CC(=C)C)CC=1C=CC=CC1
accession=JP009798
date=2016.01.19 (Created 2008.10.21, modified 2011.05.06)
author=KURARAY CO., LTD.
license=CC BY-NC-SA
exact mass=174.10447
ionization energy=70 eV
ion type=[M]+*
computed spectral entropy=2.1396746883233635
computed normalized entropy=0.6067657215951462
SPLASH=splash10-0006-9100000000-04476cb75eaf08d59859
submitter=submitter = University of Tokyo Team (Faculty of Engineering, University of Tokyo)
MoNA Rating=3.75

>  <NUM PEAKS>  (1515) 
34

>  <MASS SPECTRAL PEAKS>  (1515) 
27 2.1
29 1.6
39 5.1
41 0.58
43 2.5
50 1.2
51 3.1
53 0.19
55 2.7
57 1.2
59 1.1
63 0.19
65 8.4
67 3.6
68 2
69 0.64
71 3.6
77 3.9
79 4.4
83 0.18
84 1.8
85 1.9
86 1
89 0.25
91 99.99
92 17.7
104 1.4
105 0.34
107 11.6
108 4.2
126 2.6
127 0.1
174 1.4
175 2.5

>  <PREDICTED SPECTRUM>  (1515) 
26 27
27 127
28 5
29 55
38 41
39 203
40 57
41 185
42 41
50 75
51 170
52 69
53 78
54 22
55 117
56 30
57 0
62 37
63 107
64 71
65 252
66 65
67 56
68 40
69 7
74 7
75 21
76 22
77 141
78 69
79 79
80 10
82 51
83 130
89 41
90 40
91 999
92 366
93 42
97 30
102 13
104 4
105 64
106 1
128 58
129 84
130 14
145 84
146 64
147 9
159 53
173 19
174 249
175 66

$$$$

     RDKit          2D

 12 11  0  0  0  0  0  0  0  0999 V2000
   -6.8200    5.0625    0.0000 C   0  0  0  0  0  0  0  0  0  0  0  0
   -5.5209    2.8125    0.0000 C   0  0  0  0  0  0  0  0  0  0  0  0
    3.5724    5.0625    0.0000 C   0  0  0  0  0  0  0  0  0  0  0  0
    2.2733    2.8125    0.0000 C   0  0  0  0  0  0  0  0  0  0  0  0
   -1.6238    6.5625    0.0000 C   0  0  0  0  0  0  0  0  0  0  0  0
   -4.2219    5.0625    0.0000 C   0  0  0  0  0  0  0  0  0  0  0  0
    0.9743    5.0625    0.0000 C   0  0  0  0  0  0  0  0  0  0  0  0
   -5.5209    4.3125    0.0000 C   0  0  0  0  0  0  0  0  0  0  0  0
    2.2733    4.3125    0.0000 C   0  0  0  0  0  0  0  0  0  0  0  0
   -1.6238    5.0625    0.0000 C   0  0  0  0  0  0  0  0  0  0  0  0
   -2.9228    4.3125    0.0000 O   0  0  0  0  0  0  0  0  0  0  0  0
   -0.3248    4.3125    0.0000 O   0  0  0  0  0  0  0  0  0  0  0  0
  8  1  1  0
  8  2  1  0
  8  6  1  0
  9  3  1  0
  9  4  1  0
  9  7  1  0
 10  5  1  0
 11  6  1  0
 11 10  1  0
 12  7  1  0
 12 10  1  0
M  END
>  <NAME>  (1516) 
1,1-DIISOBUTOXYETHANE

>  <SYNONYMS>  (1516) 
ACETALDEHYDE DIISOBUTYL ACETAL

>  <SPECTRUM TYPE>  (1516) 
MS1

>  <INSTRUMENT TYPE>  (1516) 
EI-B

>  <INSTRUMENT>  (1516) 
JEOL JMS-D-300

>  <ION MODE>  (1516) 
P

>  <INCHIKEY>  (1516) 
KIELJSVPUISYCI-UHFFFAOYSA-N

>  <FORMULA>  (1516) 
C10H22O2

>  <EXACT MASS>  (1516) 
174.161979944

>  <MW>  (1516) 
174

>  <ID>  (1516) 
JP009797

>  <CONTRIBUTOR>  (1516) 
University of Tokyo Team, {Faculty of Engineering, University of Tokyo

>  <COMMENT>  (1516) 
SMILES=CC(C)COC(C)OCC(C)C
InChI=InChI=1S/C10H22O2/c1-8(2)6-11-10(5)12-7-9(3)4/h8-10H,6-7H2,1-5H3
computed SMILES=O(CC(C)C)C(OCC(C)C)C
accession=JP009797
date=2016.01.19 (Created 2008.10.21, modified 2011.05.06)
author=KURARAY CO., LTD.
license=CC BY-NC-SA
exact mass=174.16198
ionization energy=70 eV
ion type=[M]+*
computed spectral entropy=2.013661462616017
computed normalized entropy=0.6838862944227416
SPLASH=splash10-0a4i-9000000000-71348183c83200c9a205
submitter=submitter = University of Tokyo Team (Faculty of Engineering, University of Tokyo)
MoNA Rating=3.75

>  <NUM PEAKS>  (1516) 
19

>  <MASS SPECTRAL PEAKS>  (1516) 
27 3.9
29 16.9
31 2
33 0.16
39 3.3
41 26.6
42 3.9
43 0.8
45 45
55 2.3
56 9.2
57 99.99
58 7.8
59 1.4
83 3.1
101 8.02
102 4.7
131 1.7
159 4.8

>  <PREDICTED SPECTRUM>  (1516) 
26 2
27 124
28 26
29 266
31 82
39 174
41 503
42 116
43 360
44 98
45 340
46 15
55 83
56 242
57 999
58 138
59 67
72 68
73 76
75 5
87 73
101 610
102 71
103 155
115 2
116 6
117 203
118 13
131 32
145 32
159 126
174 9

$$$$

     RDKit          2D

 12 11  0  0  0  0  0  0  0  0999 V2000
   -2.5981    6.7500    0.0000 C   0  0  0  0  0  0  0  0  0  0  0  0
   -3.8971    6.0000    0.0000 C   0  0  0  0  0  0  0  0  0  0  0  0
   -1.2990    6.0000    0.0000 C   0  0  0  0  0  0  0  0  0  0  0  0
   -5.1962    6.7500    0.0000 C   0  0  0  0  0  0  0  0  0  0  0  0
    0.0000    6.7500    0.0000 C   0  0  0  0  0  0  0  0  0  0  0  0
   -6.4952    6.0000    0.0000 C   0  0  0  0  0  0  0  0  0  0  0  0
    1.2990    6.0000    0.0000 C   0  0  0  0  0  0  0  0  0  0  0  0
   -7.7942    6.7500    0.0000 C   0  0  0  0  0  0  0  0  0  0  0  0
    2.5981    6.7500    0.0000 C   0  0  0  0  0  0  0  0  0  0  0  0
   -9.0933    6.0000    0.0000 C   0  0  0  0  0  0  0  0  0  0  0  0
    3.8971    6.0000    0.0000 O   0  0  0  0  0  0  0  0  0  0  0  0
  -10.3923    6.7500    0.0000 O   0  0  0  0  0  0  0  0  0  0  0  0
  2  1  1  0
  3  1  1  0
  4  2  1  0
  5  3  1  0
  6  4  1  0
  7  5  1  0
  8  6  1  0
  9  7  1  0
 10  8  1  0
 11  9  1  0
 12 10  1  0
M  END
>  <NAME>  (1517) 
1,10-DECANEDIOL

>  <SYNONYMS>  (1517) 


>  <SPECTRUM TYPE>  (1517) 
MS1

>  <INSTRUMENT TYPE>  (1517) 
EI-B

>  <INSTRUMENT>  (1517) 
JEOL JMS-D-300

>  <ION MODE>  (1517) 
P

>  <INCHIKEY>  (1517) 
FOTKYAAJKYLFFN-UHFFFAOYSA-N

>  <FORMULA>  (1517) 
C10H22O2

>  <EXACT MASS>  (1517) 
174.161979944

>  <MW>  (1517) 
174

>  <ID>  (1517) 
JP009796

>  <CONTRIBUTOR>  (1517) 
University of Tokyo Team, {Faculty of Engineering, University of Tokyo

>  <COMMENT>  (1517) 
SMILES=OCCCCCCCCCCO
InChI=InChI=1S/C10H22O2/c11-9-7-5-3-1-2-4-6-8-10-12/h11-12H,1-10H2
computed SMILES=OCCCCCCCCCCO
accession=JP009796
date=2016.01.19 (Created 2008.10.21, modified 2011.05.06)
author=KURARAY CO., LTD.
license=CC BY-NC-SA
exact mass=174.16198
ionization energy=70 eV
ion type=[M]+*
computed spectral entropy=3.040829872143754
computed normalized entropy=0.8421210190062164
SPLASH=splash10-067i-9000000000-510f20afc116b1789722
submitter=submitter = University of Tokyo Team (Faculty of Engineering, University of Tokyo)
MoNA Rating=3.75

>  <NUM PEAKS>  (1517) 
37

>  <MASS SPECTRAL PEAKS>  (1517) 
27 10.5
29 20.6
31 27.6
39 1.13
41 66.5
42 20.6
43 29
44 0.55
45 5.6
53 5.7
54 43.9
55 99.99
56 29.4
57 24.3
58 3.5
66 1.05
67 80.3
68 88.4
69 52.6
70 2.28
71 16.3
72 2.9
73 4.8
79 0.46
81 60.2
82 70
83 27
84 1.17
85 8.6
95 38.8
96 27.2
97 1.81
98 8.8
99 4.6
109 16.6
110 1.49
126 3.3

>  <PREDICTED SPECTRUM>  (1517) 
26 52
27 244
28 83
29 301
30 64
31 305
32 48
38 15
39 355
40 135
41 924
42 383
43 543
44 206
45 55
47 45
51 36
52 21
53 275
54 612
55 999
56 429
57 463
58 45
59 47
60 32
61 25
63 0
65 94
66 162
67 900
68 859
69 795
70 325
71 323
72 71
73 96
74 10
77 33
78 13
79 266
80 186
81 855
82 824
83 504
84 220
85 162
86 46
87 35
88 5
91 6
93 130
94 52
95 660
96 592
97 290
98 115
99 107
100 7
101 31
107 61
109 411
110 260
111 32
112 9
113 0
115 89
116 26
119 5
123 191
124 18
126 36
127 80
128 77
129 26
138 7
156 0

$$$$

     RDKit          2D

 12 11  0  0  0  0  0  0  0  0999 V2000
    3.5724    4.3125    0.0000 C   0  0  0  0  0  0  0  0  0  0  0  0
    2.2733    6.5625    0.0000 C   0  0  0  0  0  0  0  0  0  0  0  0
   -6.8200    4.3125    0.0000 C   0  0  0  0  0  0  0  0  0  0  0  0
   -5.5209    5.0625    0.0000 C   0  0  0  0  0  0  0  0  0  0  0  0
   -2.9228    5.0625    0.0000 C   0  0  0  0  0  0  0  0  0  0  0  0
   -1.6238    4.3125    0.0000 C   0  0  0  0  0  0  0  0  0  0  0  0
    2.2733    5.0625    0.0000 C   0  0  0  0  0  0  0  0  0  0  0  0
    0.9743    4.3125    0.0000 C   0  0  0  0  0  0  0  0  0  0  0  0
   -8.1190    5.0625    0.0000 O   0  0  0  0  0  0  0  0  0  0  0  0
    0.9743    2.8125    0.0000 O   0  0  0  0  0  0  0  0  0  0  0  0
   -4.2219    4.3125    0.0000 O   0  0  0  0  0  0  0  0  0  0  0  0
   -0.3248    5.0625    0.0000 O   0  0  0  0  0  0  0  0  0  0  0  0
  4  3  1  0
  6  5  1  0
  7  1  2  0
  7  2  1  0
  8  7  1  0
  9  3  1  0
 10  8  2  0
 11  4  1  0
 11  5  1  0
 12  6  1  0
 12  8  1  0
M  END
>  <NAME>  (1518) 
METHACRYLIC ACID DIETHYLENEGLYCOL ESTER

>  <SYNONYMS>  (1518) 
2-(2-HYDROXYETHOXY)ETHYL METHACRYLATE

>  <SPECTRUM TYPE>  (1518) 
MS1

>  <INSTRUMENT TYPE>  (1518) 
EI-B

>  <INSTRUMENT>  (1518) 
JEOL JMS-D-300

>  <ION MODE>  (1518) 
P

>  <INCHIKEY>  (1518) 
OLQFXOWPTQTLDP-UHFFFAOYSA-N

>  <FORMULA>  (1518) 
C8H14O4

>  <EXACT MASS>  (1518) 
174.089208928

>  <MW>  (1518) 
174

>  <ID>  (1518) 
JP009795

>  <CONTRIBUTOR>  (1518) 
University of Tokyo Team, {Faculty of Engineering, University of Tokyo

>  <COMMENT>  (1518) 
SMILES=OCCOCCOC(=O)C(C)=C
InChI=InChI=1S/C8H14O4/c1-7(2)8(10)12-6-5-11-4-3-9/h9H,1,3-6H2,2H3
computed SMILES=O=C(OCCOCCO)C(=C)C
accession=JP009795
date=2016.01.19 (Created 2008.10.21, modified 2011.05.06)
author=KURARAY CO., LTD.
license=CC BY-NC-SA
exact mass=174.08921
ionization energy=70 eV
ion type=[M]+*
computed spectral entropy=2.4039499574513075
computed normalized entropy=0.7139111259674988
SPLASH=splash10-014m-9100000000-3532adf033944b78006f
submitter=submitter = University of Tokyo Team (Faculty of Engineering, University of Tokyo)
MoNA Rating=3.75

>  <NUM PEAKS>  (1518) 
29

>  <MASS SPECTRAL PEAKS>  (1518) 
27 5.2
29 3.6
31 5.5
39 1.1
40 2.1
41 58.4
42 4.4
43 0.51
44 34.4
45 67.5
55 4.3
57 0.16
58 3.8
68 3.8
69 99.99
70 0.84
71 2.5
73 2.6
75 7.7
85 0.28
86 6.1
87 4.8
88 11.3
99 0.51
100 9
101 28.2
112 4.7
113 3.67
114 3.8

>  <PREDICTED SPECTRUM>  (1518) 
15 13
16 2
19 74
25 9
26 96
27 251
28 130
29 294
31 284
32 9
33 34
36 2
37 61
38 116
39 446
40 196
41 723
42 328
43 380
44 159
45 845
46 63
47 45
49 13
50 11
52 11
53 38
54 102
55 176
56 69
57 230
58 194
59 156
60 33
68 150
69 999
70 366
71 289
72 79
73 92
74 44
75 30
83 38
84 30
85 163
86 302
87 748
88 238
89 98
97 21
98 31
99 321
100 219
101 113
111 25
112 207
113 466
114 229
115 141
117 15
129 20
130 97
131 86
143 47
144 121
157 13

$$$$

     RDKit          2D

 12 11  0  0  0  0  0  0  0  0999 V2000
    2.5981    4.5000    0.0000 C   0  0  0  0  0  0  0  0  0  0  0  0
   -7.7942    4.5000    0.0000 C   0  0  0  0  0  0  0  0  0  0  0  0
   -2.5981    3.0000    0.0000 C   0  0  0  0  0  0  0  0  0  0  0  0
    1.2990    5.2500    0.0000 C   0  0  0  0  0  0  0  0  0  0  0  0
   -6.4952    5.2500    0.0000 C   0  0  0  0  0  0  0  0  0  0  0  0
   -2.5981    4.5000    0.0000 C   0  0  0  0  0  0  0  0  0  0  0  0
   -1.2990    5.2500    0.0000 C   0  0  0  0  0  0  0  0  0  0  0  0
   -3.8971    5.2500    0.0000 C   0  0  0  0  0  0  0  0  0  0  0  0
   -1.2990    6.7500    0.0000 O   0  0  0  0  0  0  0  0  0  0  0  0
   -3.8971    6.7500    0.0000 O   0  0  0  0  0  0  0  0  0  0  0  0
    0.0000    4.5000    0.0000 O   0  0  0  0  0  0  0  0  0  0  0  0
   -5.1962    4.5000    0.0000 O   0  0  0  0  0  0  0  0  0  0  0  0
  4  1  1  0
  5  2  1  0
  6  3  1  0
  7  6  1  0
  8  6  1  0
  9  7  2  0
 10  8  2  0
 11  4  1  0
 11  7  1  0
 12  5  1  0
 12  8  1  0
M  END
>  <NAME>  (1519) 
DIETHYL 2-METHYLPROPANEDIOATE

>  <SYNONYMS>  (1519) 
DIETHYL 2-METHYLMALONATE

>  <SPECTRUM TYPE>  (1519) 
MS1

>  <INSTRUMENT TYPE>  (1519) 
EI-B

>  <INSTRUMENT>  (1519) 
JEOL JMS-D-300

>  <ION MODE>  (1519) 
P

>  <INCHIKEY>  (1519) 
UPQZOUHVTJNGFK-UHFFFAOYSA-N

>  <FORMULA>  (1519) 
C8H14O4

>  <EXACT MASS>  (1519) 
174.089208928

>  <MW>  (1519) 
174

>  <ID>  (1519) 
JP009794

>  <CONTRIBUTOR>  (1519) 
University of Tokyo Team, {Faculty of Engineering, University of Tokyo

>  <COMMENT>  (1519) 
SMILES=CCOC(=O)C(C)C(=O)OCC
InChI=InChI=1S/C8H14O4/c1-4-11-7(9)6(3)8(10)12-5-2/h6H,4-5H2,1-3H3
computed SMILES=O=C(OCC)C(C(=O)OCC)C
accession=JP009794
date=2016.01.19 (Created 2008.10.21, modified 2011.05.06)
author=KURARAY CO., LTD.
license=CC BY-NC-SA
exact mass=174.08921
ionization energy=70 eV
ion type=[M]+*
computed spectral entropy=3.146126447191296
computed normalized entropy=0.8171443728011705
SPLASH=splash10-05i0-9500000000-76e1858b1ac18b781fc5
submitter=submitter = University of Tokyo Team (Faculty of Engineering, University of Tokyo)
MoNA Rating=3.75

>  <NUM PEAKS>  (1519) 
47

>  <MASS SPECTRAL PEAKS>  (1519) 
26 2.5
27 17.6
28 7.3
29 99.99
30 2.9
31 2.8
39 4.7
41 1.61
43 25.3
44 3
45 17.3
53 0.25
54 2
55 22.7
56 11
57 3.7
58 2
59 3.6
69 14.2
70 0.17
72 2.2
73 59.8
74 19.4
75 0.23
82 2.3
83 9.8
84 15
85 0.7
87 47.6
88 5.1
99 2.9
100 1.5
101 15
102 27.4
103 3
113 0.32
115 27.3
116 3.6
128 22.4
129 6.7
130 30.9
143 4.1
146 2
147 0.44
156 3.8
157 33.4
174 49

>  <PREDICTED SPECTRUM>  (1519) 
14 14
15 32
19 14
25 16
26 173
27 566
28 351
29 972
30 232
31 276
32 33
33 20
39 110
40 83
41 340
42 355
43 449
44 228
45 516
46 138
47 168
51 1
53 64
54 164
55 693
56 502
57 400
58 133
59 227
60 69
61 108
62 13
69 93
70 136
71 230
72 461
73 761
74 699
75 316
76 39
82 104
83 285
84 83
86 45
87 20
88 4
90 90
91 108
99 171
100 357
101 999
102 550
103 127
115 133
118 248
119 290
120 75
127 74
128 302
129 790
130 230
131 31
144 51
145 74
146 488
147 434
148 166
174 151
175 95

$$$$

     RDKit          2D

 13 13  0  0  0  0  0  0  0  0999 V2000
   -2.9231    0.8829    0.0000 C   0  0  0  0  0  0  0  0  0  0  0  0
   -1.6240    3.1329    0.0000 C   0  0  0  0  0  0  0  0  0  0  0  0
   -1.6240    0.1329    0.0000 C   0  0  0  0  0  0  0  0  0  0  0  0
    3.5721   -1.3671    0.0000 C   0  0  0  0  0  0  0  0  0  0  0  0
    3.5726    0.1337    0.0000 C   0  0  0  0  0  0  0  0  0  0  0  0
    2.2726   -2.1179    0.0000 C   0  0  0  0  0  0  0  0  0  0  0  0
    2.2736    0.8837    0.0000 C   0  0  0  0  0  0  0  0  0  0  0  0
    0.9736   -1.3679    0.0000 C   0  0  0  0  0  0  0  0  0  0  0  0
    0.9740    3.1329    0.0000 C   0  0  0  0  0  0  0  0  0  0  0  0
   -0.3250    2.3829    0.0000 C   0  0  0  0  0  0  0  0  0  0  0  0
    0.9740    0.1329    0.0000 C   0  0  0  0  0  0  0  0  0  0  0  0
   -0.3250    0.8829    0.0000 C   0  0  0  0  0  0  0  0  0  0  0  0
    2.2731    3.8829    0.0000 N   0  0  0  0  0  0  0  0  0  0  0  0
  3  1  1  0
  5  4  2  0
  6  4  1  0
  7  5  1  0
  8  6  2  0
 10  2  1  0
 10  9  1  0
 11  7  2  0
 11  8  1  0
 12  3  1  0
 12 10  1  0
 12 11  1  0
 13  9  3  0
M  END
>  <NAME>  (1520) 
2-CYANO-4-PHENYLPENTANE

>  <SYNONYMS>  (1520) 


>  <SPECTRUM TYPE>  (1520) 
MS1

>  <INSTRUMENT TYPE>  (1520) 
EI-B

>  <INSTRUMENT>  (1520) 
JEOL JMS-D-300

>  <ION MODE>  (1520) 
P

>  <INCHIKEY>  (1520) 
LPJQHUZTKUSKPA-UHFFFAOYSA-N

>  <FORMULA>  (1520) 
C12H15N

>  <EXACT MASS>  (1520) 
173.12044948

>  <MW>  (1520) 
173

>  <ID>  (1520) 
JP009793

>  <CONTRIBUTOR>  (1520) 
University of Tokyo Team, {Faculty of Engineering, University of Tokyo

>  <COMMENT>  (1520) 
SMILES=N#CC(C)C(CC)c(c1)cccc1
InChI=InChI=1S/C12H15N/c1-3-12(10(2)9-13)11-7-5-4-6-8-11/h4-8,10,12H,3H2,1-2H3
computed SMILES=N#CC(C)C(C=1C=CC=CC1)CC
accession=JP009793
date=2016.01.19 (Created 2008.10.21, modified 2011.05.06)
author=KURARAY CO., LTD.
license=CC BY-NC-SA
exact mass=173.12045
ionization energy=70 eV
ion type=[M]+*
computed spectral entropy=1.7352967466593192
computed normalized entropy=0.6124836134560038
SPLASH=splash10-0a4i-2900000000-7f9be65666f621ce4626
submitter=submitter = University of Tokyo Team (Faculty of Engineering, University of Tokyo)
MoNA Rating=3.75

>  <NUM PEAKS>  (1520) 
17

>  <MASS SPECTRAL PEAKS>  (1520) 
39 2.8
41 3
51 3.1
77 1.02
78 4.5
79 7.5
91 20.8
103 0.7
104 4.8
105 99.99
106 25
115 0.17
117 1.6
119 8.8
158 2.2
173 2.06
174 1.9

>  <PREDICTED SPECTRUM>  (1520) 
14 12
26 99
27 357
28 201
29 282
37 13
38 135
39 597
40 133
41 460
42 70
43 15
49 5
50 445
51 743
52 474
53 295
54 107
55 108
56 11
57 117
62 185
63 386
64 287
65 464
66 167
67 142
74 66
75 188
76 255
77 999
78 573
79 879
89 453
90 539
91 809
92 307
102 184
103 295
104 258
105 511
107 645
115 587
116 677
117 939
118 391
119 383
127 9
128 121
129 154
130 428
131 77
144 907
145 430
173 549
174 178

$$$$

     RDKit          2D

 12 11  0  0  0  0  0  0  0  0999 V2000
    3.5724    4.3125    0.0000 C   0  0  0  0  0  0  0  0  0  0  0  0
    2.2733    6.5625    0.0000 C   0  0  0  0  0  0  0  0  0  0  0  0
   -2.9228    6.5625    0.0000 C   0  0  0  0  0  0  0  0  0  0  0  0
   -0.3248    5.0625    0.0000 C   0  0  0  0  0  0  0  0  0  0  0  0
   -5.5209    5.0625    0.0000 C   0  0  0  0  0  0  0  0  0  0  0  0
    0.9743    4.3125    0.0000 C   0  0  0  0  0  0  0  0  0  0  0  0
   -1.6238    4.3125    0.0000 C   0  0  0  0  0  0  0  0  0  0  0  0
   -4.2219    4.3125    0.0000 C   0  0  0  0  0  0  0  0  0  0  0  0
   -6.8200    4.3125    0.0000 C   0  0  0  0  0  0  0  0  0  0  0  0
    2.2733    5.0625    0.0000 C   0  0  0  0  0  0  0  0  0  0  0  0
   -2.9228    5.0625    0.0000 C   0  0  0  0  0  0  0  0  0  0  0  0
   -8.1190    5.0625    0.0000 O   0  0  0  0  0  0  0  0  0  0  0  0
  6  4  1  0
  7  4  1  0
  8  5  1  0
  9  5  1  0
 10  1  1  0
 10  2  1  0
 10  6  1  0
 11  3  1  0
 11  7  1  0
 11  8  1  0
 12  9  1  0
M  END
>  <NAME>  (1521) 
4,8-DIMETHYL-4-NONANOL

>  <SYNONYMS>  (1521) 


>  <SPECTRUM TYPE>  (1521) 
MS1

>  <INSTRUMENT TYPE>  (1521) 
EI-B

>  <INSTRUMENT>  (1521) 
JEOL JMS-D-300

>  <ION MODE>  (1521) 
P

>  <INCHIKEY>  (1521) 
ASDSWUHLJCTXPE-UHFFFAOYSA-N

>  <FORMULA>  (1521) 
C11H24O

>  <EXACT MASS>  (1521) 
172.182715388

>  <MW>  (1521) 
172

>  <ID>  (1521) 
JP009792

>  <CONTRIBUTOR>  (1521) 
University of Tokyo Team, {Faculty of Engineering, University of Tokyo

>  <COMMENT>  (1521) 
SMILES=OCCCC(C)CCCC(C)C
InChI=InChI=1S/C11H24O/c1-10(2)6-4-7-11(3)8-5-9-12/h10-12H,4-9H2,1-3H3
computed SMILES=OCCCC(C)CCCC(C)C
accession=JP009792
date=2016.01.19 (Created 2008.10.21, modified 2011.05.06)
author=KURARAY CO., LTD.
license=CC BY-NC-SA
exact mass=172.18272
ionization energy=70 eV
ion type=[M]+*
computed spectral entropy=2.346020569632241
computed normalized entropy=0.728832268553976
SPLASH=splash10-000i-9100000000-5f26785b7aee867a6678
submitter=submitter = University of Tokyo Team (Faculty of Engineering, University of Tokyo)
MoNA Rating=3.75

>  <NUM PEAKS>  (1521) 
25

>  <MASS SPECTRAL PEAKS>  (1521) 
27 4.7
29 5.5
31 1.3
39 0.26
41 14.3
43 24.3
45 37.7
55 1.81
56 6.6
57 6.4
58 5.2
69 6.44
70 5.2
71 5.1
83 7.8
84 0.3
85 2.5
87 99.99
88 5.8
97 0.27
111 17.2
112 1.6
129 15.5
130 0.11
157 2.7

>  <PREDICTED SPECTRUM>  (1521) 
15 7
17 8
18 15
19 15
25 15
26 73
27 387
28 171
29 546
30 112
31 296
32 41
33 19
36 4
37 30
38 70
39 444
40 183
41 948
42 497
43 940
44 197
45 238
46 45
47 63
50 64
51 121
52 63
53 264
54 194
55 907
56 984
57 999
58 228
59 191
60 18
65 39
66 58
67 287
68 284
69 903
70 841
71 660
72 174
73 136
74 42
77 3
79 74
81 236
82 275
83 627
84 445
85 264
86 27
87 141
95 79
96 203
97 414
98 258
99 128
100 8
101 92
102 2
110 14
111 296
112 282
113 112
115 1
116 4
124 1
125 148
126 324
127 57
129 13
141 9
144 52
154 100

$$$$

     RDKit          2D

 12 11  0  0  0  0  0  0  0  0999 V2000
   -7.2954    5.5380    0.0000 C   0  0  0  0  0  0  0  0  0  0  0  0
   -5.9964    3.2880    0.0000 C   0  0  0  0  0  0  0  0  0  0  0  0
    1.0478    3.4889    0.0000 C   0  0  0  0  0  0  0  0  0  0  0  0
    3.0969    4.0380    0.0000 C   0  0  0  0  0  0  0  0  0  0  0  0
   -4.6974    5.5380    0.0000 C   0  0  0  0  0  0  0  0  0  0  0  0
    0.4988    5.5380    0.0000 C   0  0  0  0  0  0  0  0  0  0  0  0
   -3.3983    4.7880    0.0000 C   0  0  0  0  0  0  0  0  0  0  0  0
   -0.8002    4.7880    0.0000 C   0  0  0  0  0  0  0  0  0  0  0  0
   -5.9964    4.7880    0.0000 C   0  0  0  0  0  0  0  0  0  0  0  0
    1.7978    4.7880    0.0000 C   0  0  0  0  0  0  0  0  0  0  0  0
    2.5478    6.0870    0.0000 O   0  0  0  0  0  0  0  0  0  0  0  0
   -2.0993    5.5380    0.0000 O   0  0  0  0  0  0  0  0  0  0  0  0
  7  5  1  0
  8  6  1  0
  9  1  1  0
  9  2  1  0
  9  5  2  0
 10  3  1  0
 10  4  1  0
 10  6  1  0
 11 10  1  0
 12  7  1  0
 12  8  1  0
M  END
>  <NAME>  (1522) 
4-(3-METHYL-2-BUTENOXY)-2-METHYL-2-BUTANOL

>  <SYNONYMS>  (1522) 


>  <SPECTRUM TYPE>  (1522) 
MS1

>  <INSTRUMENT TYPE>  (1522) 
EI-B

>  <INSTRUMENT>  (1522) 
JEOL JMS-D-300

>  <ION MODE>  (1522) 
P

>  <INCHIKEY>  (1522) 
XWKFROPYJWBTBH-UHFFFAOYSA-N

>  <FORMULA>  (1522) 
C10H20O2

>  <EXACT MASS>  (1522) 
172.14632988

>  <MW>  (1522) 
172

>  <ID>  (1522) 
JP009791

>  <CONTRIBUTOR>  (1522) 
University of Tokyo Team, {Faculty of Engineering, University of Tokyo

>  <COMMENT>  (1522) 
SMILES=CC(C)=CCOCCC(C)(C)O
InChI=InChI=1S/C10H20O2/c1-9(2)5-7-12-8-6-10(3,4)11/h5,11H,6-8H2,1-4H3
computed SMILES=OC(C)(C)CCOCC=C(C)C
accession=JP009791
date=2016.01.19 (Created 2008.10.21, modified 2011.05.06)
author=KURARAY CO., LTD.
license=CC BY-NC-SA
exact mass=172.14633
ionization energy=70 eV
ion type=[M]+*
computed spectral entropy=2.469477583761284
computed normalized entropy=0.767186346451373
SPLASH=splash10-014i-9000000000-35cf055e67a342eb266c
submitter=submitter = University of Tokyo Team (Faculty of Engineering, University of Tokyo)
MoNA Rating=3.75

>  <NUM PEAKS>  (1522) 
25

>  <MASS SPECTRAL PEAKS>  (1522) 
27 5.8
29 5
39 7
40 0.25
41 60.2
42 8.6
43 7.5
53 0.76
55 17.2
56 4.2
57 6.7
59 1.86
67 10.6
68 14.5
69 99.99
70 3.18
71 31.8
83 5
85 49.8
86 0.64
87 8
89 12.5
96 2.5
139 4.43
140 4.1

>  <PREDICTED SPECTRUM>  (1522) 
26 22
27 204
28 64
29 185
30 1
31 254
33 12
37 24
38 39
39 317
40 135
41 706
42 191
43 501
44 130
45 214
50 66
51 83
52 38
53 225
54 67
55 317
56 229
57 277
58 238
59 545
60 60
63 8
65 58
66 10
67 328
68 436
69 999
70 270
71 445
72 111
73 86
74 3
77 102
78 10
79 7
81 108
83 78
84 60
85 536
86 181
87 406
88 49
89 40
96 45
97 58
98 54
99 53
100 7
107 2
109 38
111 38
114 19
115 16
125 5
139 77
154 112
157 18

$$$$

     RDKit          2D

 12 12  0  0  0  0  0  0  0  0999 V2000
    7.4251    1.2910    0.0000 C   0  0  0  0  0  0  0  0  0  0  0  0
    6.1264   -0.9592    0.0000 C   0  0  0  0  0  0  0  0  0  0  0  0
   -0.3700   -1.7100    0.0000 C   0  0  0  0  0  0  0  0  0  0  0  0
   -1.6700   -0.9600    0.0000 C   0  0  0  0  0  0  0  0  0  0  0  0
    0.9300   -0.9600    0.0000 C   0  0  0  0  0  0  0  0  0  0  0  0
    4.8270    1.2906    0.0000 C   0  0  0  0  0  0  0  0  0  0  0  0
   -1.6700    0.5400    0.0000 C   0  0  0  0  0  0  0  0  0  0  0  0
    3.5281    0.5404    0.0000 C   0  0  0  0  0  0  0  0  0  0  0  0
    6.1262    0.5408    0.0000 C   0  0  0  0  0  0  0  0  0  0  0  0
    0.9300    0.5400    0.0000 C   0  0  0  0  0  0  0  0  0  0  0  0
   -0.3700    1.2900    0.0000 O   0  0  0  0  0  0  0  0  0  0  0  0
    2.2289    1.2902    0.0000 O   0  0  0  0  0  0  0  0  0  0  0  0
  4  3  1  0
  5  3  1  0
  7  4  1  0
  8  6  1  0
  9  1  1  0
  9  2  1  0
  9  6  1  0
 10  5  1  0
 11  7  1  0
 11 10  1  0
 12  8  1  0
 12 10  1  0
M  END
>  <NAME>  (1523) 
6-(3-METHYL)BUTOXYTETRAHYDRO-2H-PYRAN

>  <SYNONYMS>  (1523) 


>  <SPECTRUM TYPE>  (1523) 
MS1

>  <INSTRUMENT TYPE>  (1523) 
EI-B

>  <INSTRUMENT>  (1523) 
JEOL JMS-D-300

>  <ION MODE>  (1523) 
P

>  <INCHIKEY>  (1523) 
DHDKLGMTNBVEIS-UHFFFAOYSA-N

>  <FORMULA>  (1523) 
C10H20O2

>  <EXACT MASS>  (1523) 
172.14632988

>  <MW>  (1523) 
172

>  <ID>  (1523) 
JP009790

>  <CONTRIBUTOR>  (1523) 
University of Tokyo Team, {Faculty of Engineering, University of Tokyo

>  <COMMENT>  (1523) 
SMILES=CC(C)CCOC(C1)OCCC1
InChI=InChI=1S/C10H20O2/c1-9(2)6-8-12-10-5-3-4-7-11-10/h9-10H,3-8H2,1-2H3
computed SMILES=O1CCCCC1OCCC(C)C
accession=JP009790
date=2016.01.19 (Created 2008.10.21, modified 2011.05.06)
author=KURARAY CO., LTD.
license=CC BY-NC-SA
exact mass=172.14633
ionization energy=70 eV
ion type=[M]+*
computed spectral entropy=2.5759576387950656
computed normalized entropy=0.743264262205937
SPLASH=splash10-000l-9000000000-9ce435bebfd9d4197655
submitter=submitter = University of Tokyo Team (Faculty of Engineering, University of Tokyo)
MoNA Rating=3.75

>  <NUM PEAKS>  (1523) 
32

>  <MASS SPECTRAL PEAKS>  (1523) 
26 4.6
27 20
28 14.2
29 2.55
31 7.4
39 14.5
40 3.5
41 4.09
42 8.9
43 63.6
44 4.9
45 0.23
53 3.5
54 2.5
55 26.3
56 2.37
57 15.6
67 8.8
69 1.8
70 1.29
71 49.6
72 2.7
74 2
83 0.3
84 3.6
85 99.99
86 6.5
101 0.38
114 1.6
115 3.5
171 4
172 1.3

>  <PREDICTED SPECTRUM>  (1523) 
26 47
27 203
28 114
29 246
31 103
38 9
39 196
40 68
41 428
42 178
43 568
44 92
45 52
51 20
53 136
54 163
55 355
56 409
57 413
59 2
67 248
68 0
69 187
70 147
71 610
72 108
74 6
83 35
84 128
85 999
86 176
87 4
89 1
101 160
102 9
114 61
115 59
117 30
171 81

$$$$

     RDKit          2D

 12 12  0  0  0  0  0  0  0  0999 V2000
    4.5486   -2.8023    0.0000 C   0  0  0  0  0  0  0  0  0  0  0  0
    3.2481   -3.5498    0.0000 C   0  0  0  0  0  0  0  0  0  0  0  0
   -3.5736   -5.3441    0.0000 C   0  0  0  0  0  0  0  0  0  0  0  0
   -4.3236   -4.0451    0.0000 C   0  0  0  0  0  0  0  0  0  0  0  0
   -2.1051   -5.0275    0.0000 C   0  0  0  0  0  0  0  0  0  0  0  0
   -0.6475   -2.7921    0.0000 C   0  0  0  0  0  0  0  0  0  0  0  0
   -3.3201   -2.9231    0.0000 C   0  0  0  0  0  0  0  0  0  0  0  0
    0.6500   -3.5447    0.0000 C   0  0  0  0  0  0  0  0  0  0  0  0
   -1.9480   -3.5396    0.0000 N   0  0  0  0  0  0  0  0  0  0  0  0
   -3.6320   -1.4558    0.0000 O   0  0  0  0  0  0  0  0  0  0  0  0
    0.6471   -5.0447    0.0000 O   0  0  0  0  0  0  0  0  0  0  0  0
    1.9505   -2.7972    0.0000 O   0  0  0  0  0  0  0  0  0  0  0  0
  2  1  1  0
  4  3  1  0
  5  3  1  0
  7  4  1  0
  8  6  1  0
  9  5  1  0
  9  6  1  0
  9  7  1  0
 10  7  2  0
 11  8  2  0
 12  2  1  0
 12  8  1  0
M  END
>  <NAME>  (1524) 
ETHYL 2-PYRROLIDONYLACETATE

>  <SYNONYMS>  (1524) 
N-ETHOXYCARBONYLMETHYL-2-PYRROLIDONE

>  <SPECTRUM TYPE>  (1524) 
MS1

>  <INSTRUMENT TYPE>  (1524) 
EI-B

>  <INSTRUMENT>  (1524) 
JEOL JMS-D-300

>  <ION MODE>  (1524) 
P

>  <INCHIKEY>  (1524) 
AQZWKPDVWWJWRY-UHFFFAOYSA-N

>  <FORMULA>  (1524) 
C8H13NO3

>  <EXACT MASS>  (1524) 
171.089543276

>  <MW>  (1524) 
171

>  <ID>  (1524) 
JP009789

>  <CONTRIBUTOR>  (1524) 
University of Tokyo Team, {Faculty of Engineering, University of Tokyo

>  <COMMENT>  (1524) 
SMILES=CCOC(=O)CN(C1)C(=O)CC1
InChI=InChI=1S/C8H13NO3/c1-2-12-8(11)6-9-5-3-4-7(9)10/h2-6H2,1H3
computed SMILES=O=C(OCC)CN1C(=O)CCC1
accession=JP009789
date=2016.01.19 (Created 2008.10.21, modified 2011.05.06)
author=KURARAY CO., LTD.
license=CC BY-NC-SA
exact mass=171.08954
ionization energy=70 eV
ion type=[M]+*
computed spectral entropy=1.9844407884999586
computed normalized entropy=0.6739622734724652
SPLASH=splash10-0002-9100000000-7143ea5aad2a73df86f0
submitter=submitter = University of Tokyo Team (Faculty of Engineering, University of Tokyo)
MoNA Rating=3.75

>  <NUM PEAKS>  (1524) 
19

>  <MASS SPECTRAL PEAKS>  (1524) 
27 3.2
28 5.8
29 3.1
30 0.12
39 2.3
41 11.8
42 8.8
43 0.42
68 3.4
69 11.2
70 27.6
71 0.15
84 17.1
97 1.2
98 99.99
99 0.68
126 4.8
171 21.4
172 2.2

>  <PREDICTED SPECTRUM>  (1524) 
15 11
27 75
28 84
29 157
30 91
39 90
40 34
41 335
42 347
43 134
44 61
53 34
54 75
55 180
56 102
57 62
60 83
67 40
68 177
69 286
70 514
71 97
82 58
84 146
85 108
86 76
87 37
96 84
97 83
98 999
99 187
100 11
125 40
126 162
171 414
172 146
173 18

$$$$

     RDKit          2D

 12 11  0  0  0  0  0  0  0  0999 V2000
    2.6426    4.4228    0.0000 C   0  0  0  0  0  0  0  0  0  0  0  0
   -7.7497    4.4228    0.0000 C   0  0  0  0  0  0  0  0  0  0  0  0
   -6.4506    6.6728    0.0000 C   0  0  0  0  0  0  0  0  0  0  0  0
   -0.2903    6.3219    0.0000 C   0  0  0  0  0  0  0  0  0  0  0  0
    1.3436    5.1728    0.0000 C   0  0  0  0  0  0  0  0  0  0  0  0
   -3.8526    5.1728    0.0000 C   0  0  0  0  0  0  0  0  0  0  0  0
   -5.1516    4.4228    0.0000 C   0  0  0  0  0  0  0  0  0  0  0  0
    0.0445    4.4228    0.0000 C   0  0  0  0  0  0  0  0  0  0  0  0
   -2.5535    4.4228    0.0000 C   0  0  0  0  0  0  0  0  0  0  0  0
   -6.4506    5.1728    0.0000 C   0  0  0  0  0  0  0  0  0  0  0  0
   -1.2545    5.1728    0.0000 C   0  0  0  0  0  0  0  0  0  0  0  0
   -2.2187    6.3219    0.0000 O   0  0  0  0  0  0  0  0  0  0  0  0
  5  1  2  0
  7  6  1  0
  8  5  1  0
  9  6  1  0
 10  2  1  0
 10  3  1  0
 10  7  1  0
 11  4  1  0
 11  8  1  0
 11  9  1  0
 12 11  1  0
M  END
>  <NAME>  (1525) 
4,8-DIMETHYL-4-HYDROXY-1-NONENE

>  <SYNONYMS>  (1525) 
4,8-DIMETHYL-1-NONEN-4-OL

>  <SPECTRUM TYPE>  (1525) 
MS1

>  <INSTRUMENT TYPE>  (1525) 
EI-B

>  <INSTRUMENT>  (1525) 
JEOL JMS-D-300

>  <ION MODE>  (1525) 
P

>  <INCHIKEY>  (1525) 
LGYLSRRKPXWRAT-UHFFFAOYSA-N

>  <FORMULA>  (1525) 
C11H22O

>  <EXACT MASS>  (1525) 
170.167065324

>  <MW>  (1525) 
170

>  <ID>  (1525) 
JP009788

>  <CONTRIBUTOR>  (1525) 
University of Tokyo Team, {Faculty of Engineering, University of Tokyo

>  <COMMENT>  (1525) 
SMILES=C=CCC(C)(O)CCCC(C)C
InChI=InChI=1S/C11H22O/c1-5-8-11(4,12)9-6-7-10(2)3/h5,10,12H,1,6-9H2,2-4H3
computed SMILES=OC(C)(CC=C)CCCC(C)C
accession=JP009788
date=2016.01.19 (Created 2008.10.21, modified 2011.05.06)
author=KURARAY CO., LTD.
license=CC BY-NC-SA
exact mass=170.16707
ionization energy=70 eV
ion type=[M]+*
computed spectral entropy=2.3558468952707363
computed normalized entropy=0.7230746135905943
SPLASH=splash10-014l-9100000000-7615df54a44ba7db5797
submitter=submitter = University of Tokyo Team (Faculty of Engineering, University of Tokyo)
MoNA Rating=3.75

>  <NUM PEAKS>  (1525) 
26

>  <MASS SPECTRAL PEAKS>  (1525) 
27 4.5
29 5.7
39 5.8
41 1.88
43 86.4
45 9.1
55 26.3
56 0.23
57 5.7
58 5.8
67 5.2
69 99.99
70 7.1
71 4.2
81 4.2
82 0.19
83 1.9
85 38.8
86 2.2
87 0.32
95 9.4
111 26.9
112 2.5
113 0.28
129 28.6
130 2.5

>  <PREDICTED SPECTRUM>  (1525) 
26 37
27 220
28 92
29 221
31 110
38 6
39 307
40 58
41 584
42 138
43 999
44 117
45 311
50 9
51 67
52 21
53 197
54 44
55 355
56 138
57 386
58 191
59 280
60 5
65 18
66 7
67 185
68 132
69 666
70 190
71 392
72 46
77 25
79 33
81 135
82 78
83 187
84 91
85 522
86 142
87 216
95 186
96 28
97 3
109 45
111 303
113 44
119 1
129 346
130 65
137 3

$$$$

     RDKit          2D

 12 12  0  0  0  0  0  0  0  0999 V2000
   -3.4837    0.4227    0.0000 C   0  0  0  0  0  0  0  0  0  0  0  0
    3.4191   -0.8150    0.0000 C   0  0  0  0  0  0  0  0  0  0  0  0
    4.3841    1.0741    0.0000 C   0  0  0  0  0  0  0  0  0  0  0  0
   -1.6500    1.4490    0.0000 C   0  0  0  0  0  0  0  0  0  0  0  0
   -2.2706   -0.4595    0.0000 C   0  0  0  0  0  0  0  0  0  0  0  0
    1.0600   -1.2700    0.0000 C   0  0  0  0  0  0  0  0  0  0  0  0
   -0.4400   -1.2700    0.0000 C   0  0  0  0  0  0  0  0  0  0  0  0
    1.5300    0.1500    0.0000 C   0  0  0  0  0  0  0  0  0  0  0  0
    2.9571    0.6121    0.0000 C   0  0  0  0  0  0  0  0  0  0  0  0
   -0.9000    0.1500    0.0000 C   0  0  0  0  0  0  0  0  0  0  0  0
    2.4950    2.0391    0.0000 O   0  0  0  0  0  0  0  0  0  0  0  0
    0.3100    1.0300    0.0000 O   0  0  0  0  0  0  0  0  0  0  0  0
  5  1  2  0
  7  6  1  0
  8  6  1  0
  9  2  1  0
  9  3  1  0
  9  8  1  0
 10  4  1  0
 10  5  1  0
 10  7  1  0
 11  9  1  0
 12  8  1  0
 12 10  1  0
M  END
>  <NAME>  (1526) 
2-ETHENYL-2-METHYL-5-(1-METHYL-1-HYDROXY)ETHYLTETRAHYDROFURAN

>  <SYNONYMS>  (1526) 
LINALOL OXIDE

>  <SPECTRUM TYPE>  (1526) 
MS1

>  <INSTRUMENT TYPE>  (1526) 
EI-B

>  <INSTRUMENT>  (1526) 
JEOL JMS-D-300

>  <ION MODE>  (1526) 
P

>  <INCHIKEY>  (1526) 
BRHDDEIRQPDPMG-UHFFFAOYSA-N

>  <FORMULA>  (1526) 
C10H18O2

>  <EXACT MASS>  (1526) 
170.130679816

>  <MW>  (1526) 
170

>  <ID>  (1526) 
JP009787

>  <CONTRIBUTOR>  (1526) 
University of Tokyo Team, {Faculty of Engineering, University of Tokyo

>  <COMMENT>  (1526) 
SMILES=C=CC(C)(C1)OC(C1)C(C)(C)O
InChI=InChI=1S/C10H18O2/c1-5-10(4)7-6-8(12-10)9(2,3)11/h5,8,11H,1,6-7H2,2-4H3
computed SMILES=OC(C)(C)C1OC(C=C)(C)CC1
accession=JP009787
date=2016.01.19 (Created 2008.10.21, modified 2011.05.06)
author=KURARAY CO., LTD.
license=CC BY-NC-SA
exact mass=170.13068
ionization energy=70 eV
ion type=[M]+*
computed spectral entropy=3.1975859429324376
computed normalized entropy=0.817374013009538
SPLASH=splash10-052f-9100000000-721d5756936e1fe18c95
submitter=submitter = University of Tokyo Team (Faculty of Engineering, University of Tokyo)
MoNA Rating=3.75

>  <NUM PEAKS>  (1526) 
50

>  <MASS SPECTRAL PEAKS>  (1526) 
27 9
29 7.5
31 9.7
39 0.9
41 25.7
42 3.9
43 59.8
44 0.25
45 3.6
53 7.7
54 1.8
55 3.99
56 4.2
57 8
58 2.3
59 99.99
60 5.1
67 28.8
68 44.7
69 2.51
70 12.7
71 19.5
72 12.4
73 0.48
77 3.9
79 11.1
81 24.6
82 0.66
83 19.5
84 7.6
85 14.3
91 0.36
93 43.1
94 64.2
95 27
96 0.21
97 12.4
98 1.4
102 7.9
109 0.39
110 2.6
111 50.5
112 10.6
113 1.63
114 1.4
125 2.2
137 7.1
139 0.15
143 3.9
155 7.1

>  <PREDICTED SPECTRUM>  (1526) 
19 8
26 24
27 161
28 29
29 131
31 200
37 14
38 23
39 211
40 104
41 490
42 165
43 811
44 71
45 6
50 26
51 77
52 66
53 283
54 63
55 538
56 149
57 152
58 256
59 999
60 139
65 126
66 84
67 380
68 277
69 316
70 133
71 271
72 199
77 22
79 194
80 45
81 246
82 8
83 259
84 211
85 286
87 44
91 124
92 33
93 529
94 353
95 118
96 76
97 183
98 88
99 14
101 23
109 32
111 589
112 188
113 93
123 27
125 43
137 59
143 58
152 60
155 198
156 20

$$$$

     RDKit          2D

 12 12  0  0  0  0  0  0  0  0999 V2000
   -6.0393    2.6903    0.0000 C   0  0  0  0  0  0  0  0  0  0  0  0
   -4.7402    4.9403    0.0000 C   0  0  0  0  0  0  0  0  0  0  0  0
    1.4201    4.5894    0.0000 C   0  0  0  0  0  0  0  0  0  0  0  0
   -2.1422    3.4403    0.0000 C   0  0  0  0  0  0  0  0  0  0  0  0
   -3.4412    2.6903    0.0000 C   0  0  0  0  0  0  0  0  0  0  0  0
   -0.8431    2.6903    0.0000 C   0  0  0  0  0  0  0  0  0  0  0  0
    3.2558    2.6899    0.0000 C   0  0  0  0  0  0  0  0  0  0  0  0
   -4.7402    3.4403    0.0000 C   0  0  0  0  0  0  0  0  0  0  0  0
    1.7549    2.6903    0.0000 C   0  0  0  0  0  0  0  0  0  0  0  0
    0.4559    3.4403    0.0000 C   0  0  0  0  0  0  0  0  0  0  0  0
   -0.5083    4.5894    0.0000 O   0  0  0  0  0  0  0  0  0  0  0  0
    2.5058    1.3908    0.0000 O   0  0  0  0  0  0  0  0  0  0  0  0
  5  4  1  0
  6  4  1  0
  8  1  1  0
  8  2  1  0
  8  5  2  0
  9  7  1  0
 10  3  1  0
 10  6  1  0
 10  9  1  0
 11 10  1  0
 12  7  1  0
 12  9  1  0
M  END
>  <NAME>  (1527) 
3,7-DIMETHYL-1,2-EPOXY-3-HYDROXY-6-OCTENE

>  <SYNONYMS>  (1527) 
1,2-EPOXY-3,7-DIMETHYL-6-OCTEN-3-OL

>  <SPECTRUM TYPE>  (1527) 
MS1

>  <INSTRUMENT TYPE>  (1527) 
EI-B

>  <INSTRUMENT>  (1527) 
JEOL JMS-D-300

>  <ION MODE>  (1527) 
P

>  <INCHIKEY>  (1527) 
BXOURKNXQXLKRK-UHFFFAOYSA-N

>  <FORMULA>  (1527) 
C10H18O2

>  <EXACT MASS>  (1527) 
170.130679816

>  <MW>  (1527) 
170

>  <ID>  (1527) 
JP009786

>  <CONTRIBUTOR>  (1527) 
University of Tokyo Team, {Faculty of Engineering, University of Tokyo

>  <COMMENT>  (1527) 
SMILES=CC(C)=CCCC(C)(O)C(C1)O1
InChI=InChI=1S/C10H18O2/c1-8(2)5-4-6-10(3,11)9-7-12-9/h5,9,11H,4,6-7H2,1-3H3
computed SMILES=OC(C)(CCC=C(C)C)C1OC1
accession=JP009786
date=2016.01.19 (Created 2008.10.21, modified 2011.05.06)
author=KURARAY CO., LTD.
license=CC BY-NC-SA
exact mass=170.13068
ionization energy=70 eV
ion type=[M]+*
computed spectral entropy=2.9935216489683913
computed normalized entropy=0.7539802397779265
SPLASH=splash10-067l-9100000000-69fc30af472f94682741
submitter=submitter = University of Tokyo Team (Faculty of Engineering, University of Tokyo)
MoNA Rating=3.75

>  <NUM PEAKS>  (1527) 
53

>  <MASS SPECTRAL PEAKS>  (1527) 
27 7.7
29 6.9
31 4.7
39 1.03
40 2.7
41 58.8
42 5.3
43 99.99
44 1.8
51 2.1
53 8.2
54 0.35
55 32.5
56 12.2
57 3.7
58 0.21
59 3.4
65 2.1
66 1.5
67 5.39
68 73.1
69 94.6
70 16.3
71 1.98
77 2.1
79 5
80 2.3
81 1.03
82 66.7
83 43.9
84 7.2
85 2.06
87 14.8
88 7.1
91 4.2
92 0.14
93 6
94 2.7
95 9.6
96 0.47
97 2.7
105 3.5
107 6.6
108 0.18
109 56.1
110 7
111 6.9
119 0.28
121 3.2
127 6.9
137 2
152 0.94
153 1.6

>  <PREDICTED SPECTRUM>  (1527) 
26 22
27 275
28 69
29 266
30 13
31 234
33 11
38 39
39 380
40 176
41 864
42 290
43 999
44 205
45 164
50 104
51 196
52 144
53 429
54 230
55 617
56 241
57 236
58 175
59 896
60 205
61 81
62 37
63 62
64 20
65 205
66 179
67 642
68 473
69 957
70 342
71 330
72 183
73 19
74 77
77 253
78 110
79 326
80 123
81 428
82 458
83 450
84 332
85 129
86 48
87 218
88 100
89 23
90 12
91 243
92 167
93 394
94 360
95 357
96 190
97 301
98 73
99 24
100 65
101 122
102 46
103 8
105 94
107 208
108 177
109 585
110 275
111 456
112 416
113 123
115 54
119 109
120 41
121 145
123 180
125 95
126 62
127 194
128 57
133 17
134 43
135 63
137 197
138 41
152 194
153 108
155 131
170 62
171 2

$$$$

     RDKit          2D

 12 12  0  0  0  0  0  0  0  0999 V2000
    7.2107   -0.2406    0.0000 C   0  0  0  0  0  0  0  0  0  0  0  0
    5.5129   -2.2073    0.0000 C   0  0  0  0  0  0  0  0  0  0  0  0
    0.9204   -1.2422    0.0000 C   0  0  0  0  0  0  0  0  0  0  0  0
    3.2420   -0.2469    0.0000 C   0  0  0  0  0  0  0  0  0  0  0  0
    4.6586    0.2463    0.0000 C   0  0  0  0  0  0  0  0  0  0  0  0
    2.1066    0.7332    0.0000 C   0  0  0  0  0  0  0  0  0  0  0  0
   -2.1167   -0.4566    0.0000 C   0  0  0  0  0  0  0  0  0  0  0  0
    5.7941   -0.7339    0.0000 C   0  0  0  0  0  0  0  0  0  0  0  0
   -0.8100    0.2800    0.0000 C   0  0  0  0  0  0  0  0  0  0  0  0
    0.6900    0.2400    0.0000 C   0  0  0  0  0  0  0  0  0  0  0  0
   -3.4079    0.3067    0.0000 O   0  0  0  0  0  0  0  0  0  0  0  0
   -0.0700    1.5800    0.0000 O   0  0  0  0  0  0  0  0  0  0  0  0
  5  4  1  0
  6  4  1  0
  8  1  1  0
  8  2  1  0
  8  5  2  0
  9  7  1  0
 10  3  1  0
 10  6  1  0
 10  9  1  0
 11  7  1  0
 12  9  1  0
 12 10  1  0
M  END
>  <NAME>  (1528) 
3,7-DIMETHYL-2,3-EPOXY-6-OCTEN-1-OL

>  <SYNONYMS>  (1528) 


>  <SPECTRUM TYPE>  (1528) 
MS1

>  <INSTRUMENT TYPE>  (1528) 
EI-B

>  <INSTRUMENT>  (1528) 
JEOL JMS-D-300

>  <ION MODE>  (1528) 
P

>  <INCHIKEY>  (1528) 
RZRBXGPSHVAUQO-UHFFFAOYSA-N

>  <FORMULA>  (1528) 
C10H18O2

>  <EXACT MASS>  (1528) 
170.130679816

>  <MW>  (1528) 
170

>  <ID>  (1528) 
JP009785

>  <CONTRIBUTOR>  (1528) 
University of Tokyo Team, {Faculty of Engineering, University of Tokyo

>  <COMMENT>  (1528) 
SMILES=CC(C)=CCCC(C)(O1)C(CO)1
InChI=InChI=1S/C10H18O2/c1-8(2)5-4-6-10(3)9(7-11)12-10/h5,9,11H,4,6-7H2,1-3H3
computed SMILES=OCC1OC1(C)CCC=C(C)C
accession=JP009785
date=2016.01.19 (Created 2008.10.21, modified 2011.05.06)
author=KURARAY CO., LTD.
license=CC BY-NC-SA
exact mass=170.13068
ionization energy=70 eV
ion type=[M]+*
computed spectral entropy=3.1582221636525794
computed normalized entropy=0.7881107004755749
SPLASH=splash10-052f-9200000000-2a97522368b8d2ee6f7b
submitter=submitter = University of Tokyo Team (Faculty of Engineering, University of Tokyo)
MoNA Rating=3.75

>  <NUM PEAKS>  (1528) 
55

>  <MASS SPECTRAL PEAKS>  (1528) 
27 15.1
28 3.9
29 12.4
31 0.82
39 25.2
40 4.9
41 99.99
42 0.91
43 80.5
44 4
45 3.5
51 0.29
53 15.7
54 4.3
55 36.3
56 0.62
57 4.8
58 5
59 12
61 3.23
65 3.3
67 59.2
68 18
69 8.19
70 16
71 26.2
72 3.6
77 0.45
79 9.9
81 27.7
82 51.8
83 1.88
84 8.5
85 9.4
87 2.7
88 1.06
91 3.6
93 9.2
94 4.6
95 2.77
96 3.3
97 7
101 2.2
107 0.32
108 2.1
109 96.6
110 33.7
111 1.03
119 3.2
121 6.4
123 1.6
137 0.15
139 4.3
152 1.7
155 1

>  <PREDICTED SPECTRUM>  (1528) 
19 8
26 55
27 366
28 81
29 334
30 31
31 296
32 23
33 29
37 52
38 122
39 545
40 210
41 999
42 255
43 947
44 249
45 351
46 23
50 170
51 276
52 195
53 435
54 243
55 531
56 319
57 324
58 168
59 282
60 19
61 4
62 41
63 129
64 83
65 306
66 217
67 703
68 371
69 973
70 368
71 431
72 193
73 236
74 58
75 72
76 27
77 324
78 148
79 372
80 191
81 430
82 327
83 364
84 349
85 455
86 175
87 302
88 15
89 83
91 283
92 226
93 445
94 247
95 501
96 315
97 363
98 219
99 262
100 212
101 221
102 58
103 17
105 54
107 108
108 127
109 506
110 215
111 294
112 270
113 209
114 67
115 75
121 239
122 14
123 208
124 102
125 195
126 265
127 220
128 121
135 21
136 7
137 249
138 76
139 322
140 85
141 62
152 204
153 64
155 156
156 5
170 202
171 80

$$$$

     RDKit          2D

 12 11  0  0  0  0  0  0  0  0999 V2000
    2.5981    4.5000    0.0000 C   0  0  0  0  0  0  0  0  0  0  0  0
   -5.1962    3.0000    0.0000 C   0  0  0  0  0  0  0  0  0  0  0  0
   -1.2990    2.2500    0.0000 C   0  0  0  0  0  0  0  0  0  0  0  0
    1.2990    5.2500    0.0000 C   0  0  0  0  0  0  0  0  0  0  0  0
    0.0000    4.5000    0.0000 C   0  0  0  0  0  0  0  0  0  0  0  0
   -1.2990    5.2500    0.0000 C   0  0  0  0  0  0  0  0  0  0  0  0
   -3.8971    5.2500    0.0000 C   0  0  0  0  0  0  0  0  0  0  0  0
   -6.4952    5.2500    0.0000 C   0  0  0  0  0  0  0  0  0  0  0  0
   -5.1962    4.5000    0.0000 C   0  0  0  0  0  0  0  0  0  0  0  0
   -2.5981    4.5000    0.0000 C   0  0  0  0  0  0  0  0  0  0  0  0
   -7.7942    4.5000    0.0000 O   0  0  0  0  0  0  0  0  0  0  0  0
   -2.5981    3.0000    0.0000 O   0  0  0  0  0  0  0  0  0  0  0  0
  4  1  1  0
  5  4  1  0
  6  5  1  0
  9  2  1  0
  7  9  2  0
  9  8  1  0
 10  6  1  0
 10  7  1  0
 11  8  2  0
 12  3  1  0
 12 10  1  0
M  END
>  <NAME>  (1529) 
4-METHOXY-2-METHYL-2-OCTENAL

>  <SYNONYMS>  (1529) 


>  <SPECTRUM TYPE>  (1529) 
MS1

>  <INSTRUMENT TYPE>  (1529) 
EI-B

>  <INSTRUMENT>  (1529) 
JEOL JMS-D-300

>  <ION MODE>  (1529) 
P

>  <INCHIKEY>  (1529) 
RTCHEAZARYSCOY-VQHVLOKHSA-N

>  <FORMULA>  (1529) 
C10H18O2

>  <EXACT MASS>  (1529) 
170.130679816

>  <MW>  (1529) 
170

>  <ID>  (1529) 
JP009784

>  <CONTRIBUTOR>  (1529) 
University of Tokyo Team, {Faculty of Engineering, University of Tokyo

>  <COMMENT>  (1529) 
SMILES=CCCCC(OC)C=C(C)C=O
InChI=InChI=1S/C10H18O2/c1-4-5-6-10(12-3)7-9(2)8-11/h7-8,10H,4-6H2,1-3H3/b9-7+
computed SMILES=O=CC(=CC(OC)CCCC)C
accession=JP009784
date=2016.01.19 (Created 2008.10.21, modified 2011.05.06)
author=KURARAY CO., LTD.
license=CC BY-NC-SA
exact mass=170.13068
ionization energy=70 eV
ion type=[M]+*
computed spectral entropy=1.9860650720887592
computed normalized entropy=0.6425227417795458
SPLASH=splash10-03di-5900000000-40f470c94909191c14af
submitter=submitter = University of Tokyo Team (Faculty of Engineering, University of Tokyo)
MoNA Rating=3.75

>  <NUM PEAKS>  (1529) 
22

>  <MASS SPECTRAL PEAKS>  (1529) 
27 4.1
29 5.1
39 4.9
41 0.9
43 3.4
45 14.5
53 5.8
55 0.94
59 3.2
67 2.3
69 4
71 0.19
81 6.5
83 1.8
85 18.8
95 0.23
112 2.5
113 99.99
114 8.4
141 0.5
170 8.8
171 1

>  <PREDICTED SPECTRUM>  (1529) 
29 5
39 84
41 124
43 190
44 4
45 103
51 78
52 2
53 135
54 15
55 107
57 53
63 19
65 35
66 2
67 85
68 10
69 78
70 24
71 100
79 38
81 290
82 42
83 186
84 42
85 142
86 65
95 8
99 39
109 64
113 999
114 222
115 13
170 159
171 45

$$$$

     RDKit          2D

 12 11  0  0  0  0  0  0  0  0999 V2000
   -8.4437    5.6250    0.0000 C   0  0  0  0  0  0  0  0  0  0  0  0
    3.2476    4.8750    0.0000 C   0  0  0  0  0  0  0  0  0  0  0  0
   -5.8457    7.1250    0.0000 C   0  0  0  0  0  0  0  0  0  0  0  0
   -0.6495    7.1250    0.0000 C   0  0  0  0  0  0  0  0  0  0  0  0
   -7.1447    4.8750    0.0000 C   0  0  0  0  0  0  0  0  0  0  0  0
    1.9486    5.6250    0.0000 C   0  0  0  0  0  0  0  0  0  0  0  0
   -4.5466    4.8750    0.0000 C   0  0  0  0  0  0  0  0  0  0  0  0
   -3.2476    5.6250    0.0000 C   0  0  0  0  0  0  0  0  0  0  0  0
   -5.8457    5.6250    0.0000 C   0  0  0  0  0  0  0  0  0  0  0  0
   -0.6495    5.6250    0.0000 C   0  0  0  0  0  0  0  0  0  0  0  0
    0.6495    4.8750    0.0000 O   0  0  0  0  0  0  0  0  0  0  0  0
   -1.9486    4.8750    0.0000 O   0  0  0  0  0  0  0  0  0  0  0  0
  5  1  2  0
  6  2  1  0
  8  7  1  0
  9  3  1  0
  9  5  1  0
  7  9  2  0
 10  4  1  0
 11  6  1  0
 11 10  1  0
 12  8  1  0
 12 10  1  0
M  END
>  <NAME>  (1530) 
1-(1-ETHOXY)ETHOXY-3-METHYL-2,4-PENTADIENE

>  <SYNONYMS>  (1530) 


>  <SPECTRUM TYPE>  (1530) 
MS1

>  <INSTRUMENT TYPE>  (1530) 
EI-B

>  <INSTRUMENT>  (1530) 
JEOL JMS-D-300

>  <ION MODE>  (1530) 
P

>  <INCHIKEY>  (1530) 
SXYHZQKHSJEQNM-VQHVLOKHSA-N

>  <FORMULA>  (1530) 
C10H18O2

>  <EXACT MASS>  (1530) 
170.130679816

>  <MW>  (1530) 
170

>  <ID>  (1530) 
JP009783

>  <CONTRIBUTOR>  (1530) 
University of Tokyo Team, {Faculty of Engineering, University of Tokyo

>  <COMMENT>  (1530) 
SMILES=CCOC(C)OCC=C(C)C=C
InChI=InChI=1S/C10H18O2/c1-5-9(3)7-8-12-10(4)11-6-2/h5,7,10H,1,6,8H2,2-4H3/b9-7+
computed SMILES=O(CC=C(C=C)C)C(OCC)C
accession=JP009783
date=2016.01.19 (Created 2008.10.21, modified 2011.05.06)
author=KURARAY CO., LTD.
license=CC BY-NC-SA
exact mass=170.13068
ionization energy=70 eV
ion type=[M]+*
computed spectral entropy=2.5854264815190486
computed normalized entropy=0.7214769967513914
SPLASH=splash10-014j-9000000000-d77342485c2046b4d175
submitter=submitter = University of Tokyo Team (Faculty of Engineering, University of Tokyo)
MoNA Rating=3.75

>  <NUM PEAKS>  (1530) 
36

>  <MASS SPECTRAL PEAKS>  (1530) 
27 9.9
28 2.1
29 5
31 0.15
39 10.6
40 2.5
41 18.2
42 0.31
43 14.3
44 1.6
45 86.5
46 0.22
50 1.3
51 3.3
52 1.8
53 1.22
54 7.4
55 8.8
65 4.2
66 0.28
67 99.99
68 6.3
73 18.5
77 0.56
79 11
80 2.8
81 24
82 8.9
83 8.3
91 2.5
93 4.4
97 0.15
111 3.2
115 1.4
125 1.3
126 8.1

>  <PREDICTED SPECTRUM>  (1530) 
19 33
25 4
26 54
27 267
28 30
29 283
31 176
32 6
37 7
38 46
39 393
40 127
41 501
42 87
43 496
44 198
45 999
46 37
50 53
51 166
52 117
53 358
54 201
55 361
56 15
63 36
65 107
66 66
67 469
68 193
69 7
73 638
77 62
79 331
80 270
81 649
82 361
83 276
95 17
97 6
98 52
111 212
124 57
125 285
126 201

$$$$

     RDKit          2D

 11 10  0  0  0  0  0  0  0  0999 V2000
   -7.4695    3.9375    0.0000 C   0  0  0  0  0  0  0  0  0  0  0  0
    0.3248    5.4375    0.0000 C   0  0  0  0  0  0  0  0  0  0  0  0
    1.6238    3.1875    0.0000 C   0  0  0  0  0  0  0  0  0  0  0  0
   -4.8714    5.4375    0.0000 C   0  0  0  0  0  0  0  0  0  0  0  0
   -6.1704    3.1875    0.0000 C   0  0  0  0  0  0  0  0  0  0  0  0
   -3.5724    3.1875    0.0000 C   0  0  0  0  0  0  0  0  0  0  0  0
   -2.2733    3.9375    0.0000 C   0  0  0  0  0  0  0  0  0  0  0  0
    0.3248    3.9375    0.0000 C   0  0  0  0  0  0  0  0  0  0  0  0
   -4.8714    3.9375    0.0000 C   0  0  0  0  0  0  0  0  0  0  0  0
   -0.9743    3.1875    0.0000 C   0  0  0  0  0  0  0  0  0  0  0  0
   -0.9743    1.6875    0.0000 Cl  0  0  0  0  0  0  0  0  0  0  0  0
  5  1  2  0
  7  6  1  0
  8  2  2  0
  8  3  1  0
  9  4  1  0
  9  5  1  0
  6  9  2  0
 10  7  1  0
 10  8  1  0
 11 10  1  0
M  END
>  <NAME>  (1531) 
3-CHLORO-2,6-DIMETHYL-1,5,7-OCTATRIENE

>  <SYNONYMS>  (1531) 


>  <SPECTRUM TYPE>  (1531) 
MS1

>  <INSTRUMENT TYPE>  (1531) 
EI-B

>  <INSTRUMENT>  (1531) 
JEOL JMS-D-300

>  <ION MODE>  (1531) 
P

>  <INCHIKEY>  (1531) 
RHUJVDWXWYMVRC-RMKNXTFCSA-N

>  <FORMULA>  (1531) 
C10H15Cl

>  <EXACT MASS>  (1531) 
170.08622816

>  <MW>  (1531) 
170

>  <ID>  (1531) 
JP009782

>  <CONTRIBUTOR>  (1531) 
University of Tokyo Team, {Faculty of Engineering, University of Tokyo

>  <COMMENT>  (1531) 
SMILES=C=CC(C)=CCC(Cl)C(C)=C
InChI=InChI=1S/C10H15Cl/c1-5-9(4)6-7-10(11)8(2)3/h5-6,10H,1-2,7H2,3-4H3/b9-6+
computed SMILES=ClC(C(=C)C)CC=C(C=C)C
accession=JP009782
date=2016.01.19 (Created 2008.10.21, modified 2011.05.06)
author=KURARAY CO., LTD.
license=CC BY-NC-SA
exact mass=170.08623
ionization energy=70 eV
ion type=[M]+*
computed spectral entropy=3.2389159825540794
computed normalized entropy=0.8412446268593707
SPLASH=splash10-0006-9700000000-26805e689ea17dc7b4f6
submitter=submitter = University of Tokyo Team (Faculty of Engineering, University of Tokyo)
MoNA Rating=3.75

>  <NUM PEAKS>  (1531) 
47

>  <MASS SPECTRAL PEAKS>  (1531) 
27 6.7
29 6.3
39 9.2
41 2.05
43 99.99
44 4.1
51 2.9
53 0.92
55 8.5
65 5.7
67 8
68 0.63
69 9.4
73 5.1
77 11.4
78 0.32
79 19.6
80 8.2
81 7.4
84 0.45
91 21.5
92 8
93 42.8
94 0.78
95 5
103 3.3
105 16
106 0.77
107 38.5
108 7.5
109 2
119 5.18
120 8.2
121 32.8
122 8.5
123 0.3
127 4.3
133 2.6
134 31.9
135 6.97
136 8.9
155 16.5
157 6.7
170 6.62
171 9.4
172 21.9
173 3.8

>  <PREDICTED SPECTRUM>  (1531) 
27 61
29 40
36 74
38 26
39 411
40 134
41 712
42 153
43 836
44 87
49 106
50 123
51 321
52 166
53 462
54 76
55 460
56 79
57 91
61 18
62 33
63 199
64 39
65 331
66 114
67 552
68 90
69 379
70 124
71 95
74 12
75 106
76 22
77 596
78 235
79 675
80 246
81 724
82 110
84 17
85 116
88 66
89 52
90 24
91 593
92 286
93 844
94 311
95 292
99 99
100 43
102 70
103 125
104 95
105 507
106 304
107 928
108 409
109 354
115 26
116 28
117 84
118 2
119 573
120 385
121 999
122 522
123 127
127 102
128 41
129 46
130 36
132 1
133 146
134 480
135 622
136 379
137 53
142 62
144 6
155 403
156 90
157 299
158 65
170 593
171 172
172 419
173 111

$$$$

     RDKit          2D

 12 11  0  0  0  0  0  0  0  0999 V2000
    0.0000    0.0000    0.0000 C   0  0  0  0  0  0  0  0  0  0  0  0
    1.2990    2.2500    0.0000 C   0  0  0  0  0  0  0  0  0  0  0  0
   -5.1962    4.5000    0.0000 C   0  0  0  0  0  0  0  0  0  0  0  0
   -3.8971    2.2500    0.0000 C   0  0  0  0  0  0  0  0  0  0  0  0
   -3.8971    6.7500    0.0000 C   0  0  0  0  0  0  0  0  0  0  0  0
   -1.2990    2.2500    0.0000 C   0  0  0  0  0  0  0  0  0  0  0  0
   -1.2990    3.7500    0.0000 C   0  0  0  0  0  0  0  0  0  0  0  0
    0.0000    1.5000    0.0000 C   0  0  0  0  0  0  0  0  0  0  0  0
   -3.8971    3.7500    0.0000 C   0  0  0  0  0  0  0  0  0  0  0  0
   -2.5981    6.0000    0.0000 C   0  0  0  0  0  0  0  0  0  0  0  0
   -2.5981    4.5000    0.0000 C   0  0  0  0  0  0  0  0  0  0  0  0
   -1.2990    6.7500    0.0000 O   0  0  0  0  0  0  0  0  0  0  0  0
  7  6  1  0
  8  1  1  0
  8  2  1  0
  8  6  2  0
  9  3  1  0
  9  4  1  0
 10  5  1  0
 11  7  1  0
 11  9  2  0
 11 10  1  0
 12 10  1  0
M  END
>  <NAME>  (1532) 
2,6-DIMETHYL-5-(1-HYDROXY)ETHYL-2,5-HEPTADIENE

>  <SYNONYMS>  (1532) 
6-METHYL-3-(1-METHYLETHYLIDENE)HEPT-5-EN-2-OL

>  <SPECTRUM TYPE>  (1532) 
MS1

>  <INSTRUMENT TYPE>  (1532) 
EI-B

>  <INSTRUMENT>  (1532) 
JEOL JMS-D-300

>  <ION MODE>  (1532) 
P

>  <INCHIKEY>  (1532) 
VSBFLTQWMJCTBX-UHFFFAOYSA-N

>  <FORMULA>  (1532) 
C11H20O

>  <EXACT MASS>  (1532) 
168.15141526

>  <MW>  (1532) 
168

>  <ID>  (1532) 
JP009781

>  <CONTRIBUTOR>  (1532) 
University of Tokyo Team, {Faculty of Engineering, University of Tokyo

>  <COMMENT>  (1532) 
SMILES=CC(C)=CCC(=C(C)C)C(C)O
InChI=InChI=1S/C11H20O/c1-8(2)6-7-11(9(3)4)10(5)12/h6,10,12H,7H2,1-5H3
computed SMILES=OC(C(=C(C)C)CC=C(C)C)C
accession=JP009781
date=2016.01.19 (Created 2008.10.21, modified 2011.05.06)
author=KURARAY CO., LTD.
license=CC BY-NC-SA
exact mass=168.15142
ionization energy=70 eV
ion type=[M]+*
computed spectral entropy=3.3298757621447717
computed normalized entropy=0.8166389169820127
SPLASH=splash10-052u-9800000000-a7ef0020827cef48ddc8
submitter=submitter = University of Tokyo Team (Faculty of Engineering, University of Tokyo)
MoNA Rating=3.75

>  <NUM PEAKS>  (1532) 
59

>  <MASS SPECTRAL PEAKS>  (1532) 
27 8.4
28 2.4
29 7.5
39 1.12
40 2.5
41 41.1
42 2.6
43 6.1
44 2.8
45 10.3
51 2.9
53 1.1
55 17.8
56 2.6
57 6.2
59 0.58
65 5
67 16.6
68 3.8
69 3.27
70 3.1
71 2.6
77 8.1
79 1.58
80 1.9
81 29.7
82 3.2
83 1.1
85 2.8
91 16.7
92 2.4
93 1.42
94 2.1
95 11
96 2.5
97 2.51
98 2.7
99 19.3
105 7.5
106 0.19
107 39.3
108 5
109 8.6
111 0.42
112 7.5
113 2.3
119 13.8
120 0.65
121 7
123 9.7
124 2
125 0.58
132 1.8
135 99.99
136 11.7
150 3.81
151 5.8
153 26
154 3.1

>  <PREDICTED SPECTRUM>  (1532) 
14 10
15 29
17 9
18 59
19 2
26 101
27 482
28 240
29 501
30 114
31 156
32 33
37 21
38 76
39 577
40 207
41 999
42 222
43 747
44 78
45 177
50 107
51 251
52 156
53 474
54 211
55 529
56 215
57 299
58 71
59 177
62 27
63 115
64 57
65 261
66 164
67 691
68 351
69 758
70 206
71 277
72 50
73 42
75 8
76 0
77 373
78 129
79 484
80 206
81 537
82 320
83 343
84 104
85 412
86 89
91 387
92 158
93 392
94 184
95 480
96 224
97 305
98 107
99 282
100 53
101 3
103 31
105 288
106 133
107 668
108 263
109 440
110 312
111 190
112 109
113 42
119 131
120 116
121 258
123 313
124 191
125 268
128 11
135 943
136 288
150 438
151 171
152 4
153 277
154 90
168 150
169 26

$$$$

     RDKit          2D

 12 12  0  0  0  0  0  0  0  0999 V2000
   -3.9497   -0.5073    0.0000 C   0  0  0  0  0  0  0  0  0  0  0  0
   -2.6540    1.7447    0.0000 C   0  0  0  0  0  0  0  0  0  0  0  0
    1.7004   -1.2238    0.0000 C   0  0  0  0  0  0  0  0  0  0  0  0
    2.8485    0.7647    0.0000 C   0  0  0  0  0  0  0  0  0  0  0  0
   -1.3516   -0.5034    0.0000 C   0  0  0  0  0  0  0  0  0  0  0  0
   -2.6518    0.2447    0.0000 C   0  0  0  0  0  0  0  0  0  0  0  0
   -0.0537    0.2486    0.0000 C   0  0  0  0  0  0  0  0  0  0  0  0
    0.6963    1.5476    0.0000 C   0  0  0  0  0  0  0  0  0  0  0  0
    0.6986    3.0476    0.0000 C   0  0  0  0  0  0  0  0  0  0  0  0
    1.4385    0.2531    0.0000 C   0  0  0  0  0  0  0  0  0  0  0  0
   -0.5993    3.7996    0.0000 O   0  0  0  0  0  0  0  0  0  0  0  0
    1.9988    3.7957    0.0000 O   0  0  0  0  0  0  0  0  0  0  0  0
  6  1  1  0
  6  2  1  0
  6  5  2  0
  7  5  1  0
  8  7  1  0
  9  8  1  0
 10  3  1  0
 10  4  1  0
 10  7  1  0
 10  8  1  0
 11  9  2  0
 12  9  1  0
M  END
>  <NAME>  (1533) 
2,2-DIMETHYL-3-(2-METHYL-1-PROPENYL)CYCLOPROPANECARBOXYLIC ACID

>  <SYNONYMS>  (1533) 


>  <SPECTRUM TYPE>  (1533) 
MS1

>  <INSTRUMENT TYPE>  (1533) 
EI-B

>  <INSTRUMENT>  (1533) 
JEOL JMS-D-300

>  <ION MODE>  (1533) 
P

>  <INCHIKEY>  (1533) 
XLOPRKKSAJMMEW-UHFFFAOYSA-N

>  <FORMULA>  (1533) 
C10H16O2

>  <EXACT MASS>  (1533) 
168.115029752

>  <MW>  (1533) 
168

>  <ID>  (1533) 
JP009780

>  <CONTRIBUTOR>  (1533) 
University of Tokyo Team, {Faculty of Engineering, University of Tokyo

>  <COMMENT>  (1533) 
SMILES=CC(C)=CC(C(C(O)=O)1)C(C)(C)1
InChI=InChI=1S/C10H16O2/c1-6(2)5-7-8(9(11)12)10(7,3)4/h5,7-8H,1-4H3,(H,11,12)
computed SMILES=O=C(O)C1C(C=C(C)C)C1(C)C
accession=JP009780
date=2016.01.19 (Created 2008.10.21, modified 2011.05.06)
author=KURARAY CO., LTD.
license=CC BY-NC-SA
exact mass=168.11503
ionization energy=70 eV
ion type=[M]+*
computed spectral entropy=3.0047697533870017
computed normalized entropy=0.8145481007887104
SPLASH=splash10-00yi-9700000000-643c33a73ac721dc4aa2
submitter=submitter = University of Tokyo Team (Faculty of Engineering, University of Tokyo)
MoNA Rating=3.75

>  <NUM PEAKS>  (1533) 
40

>  <MASS SPECTRAL PEAKS>  (1533) 
27 10.8
29 9.2
39 16.3
41 3.79
43 32.7
45 3.9
51 3.9
53 1.1
55 18.2
56 3.1
57 8.5
59 0.47
65 6.1
67 22.4
68 3.3
69 3.21
77 7.8
79 14.9
81 63.5
82 0.61
83 6.6
85 3.3
91 13.5
93 0.72
95 12.4
97 3.4
100 3.9
105 0.31
107 22.5
108 5.2
109 7
111 0.77
112 3.3
123 99.99
124 11
125 2.13
135 4.7
153 27.2
168 36.3
169 3.6

>  <PREDICTED SPECTRUM>  (1533) 
26 36
27 277
28 114
29 295
30 32
31 52
32 12
38 66
39 454
40 206
41 760
42 196
43 634
44 128
45 202
50 120
51 256
52 180
53 424
54 160
55 533
56 157
57 291
58 73
59 164
60 20
62 38
63 121
64 60
65 291
66 149
67 595
68 262
69 566
70 170
71 181
72 34
73 86
74 71
75 25
77 404
78 174
79 450
80 179
81 759
82 361
83 300
84 113
85 235
86 111
87 66
88 43
89 66
90 10
91 408
92 134
93 310
94 159
95 501
96 221
97 243
98 88
99 83
100 177
101 67
102 29
104 1
105 148
106 52
107 570
108 275
109 387
110 196
111 275
112 145
113 184
114 54
115 7
119 23
121 149
122 178
123 999
124 309
125 442
126 163
127 60
128 19
135 242
136 104
137 40
139 68
140 5
141 10
150 184
151 106
153 434
154 152
168 511
169 195
170 25

$$$$

     RDKit          2D

 12 12  0  0  0  0  0  0  0  0999 V2000
   -2.5987    3.0002    0.0000 C   0  0  0  0  0  0  0  0  0  0  0  0
   -2.5989   -1.5002    0.0000 C   0  0  0  0  0  0  0  0  0  0  0  0
    1.8127   -2.1596    0.0000 C   0  0  0  0  0  0  0  0  0  0  0  0
    2.7772   -0.4897    0.0000 C   0  0  0  0  0  0  0  0  0  0  0  0
   -0.0000    1.5000    0.0000 C   0  0  0  0  0  0  0  0  0  0  0  0
    1.3000    0.7500    0.0000 C   0  0  0  0  0  0  0  0  0  0  0  0
   -2.5989    1.5002    0.0000 C   0  0  0  0  0  0  0  0  0  0  0  0
   -1.3000   -0.7500    0.0000 C   0  0  0  0  0  0  0  0  0  0  0  0
   -1.3000    0.7500    0.0000 C   0  0  0  0  0  0  0  0  0  0  0  0
    1.3000   -0.7500    0.0000 C   0  0  0  0  0  0  0  0  0  0  0  0
   -3.8981    0.7504    0.0000 O   0  0  0  0  0  0  0  0  0  0  0  0
   -0.0000   -1.5000    0.0000 O   0  0  0  0  0  0  0  0  0  0  0  0
  6  5  1  0
  7  1  1  0
  8  2  1  0
  9  5  1  0
  9  7  1  0
  9  8  2  0
 10  3  1  0
 10  4  1  0
 10  6  1  0
 11  7  2  0
 12  8  1  0
 12 10  1  0
M  END
>  <NAME>  (1534) 
2,6,6-TRIMETHYL-3-ACETYL-5,6-DIHYDRO-4H-PYRAN

>  <SYNONYMS>  (1534) 
5-ACETYL-2,2,6-TRIMETHYL-3,4-DIHYDRO-2H-PYRAN

>  <SPECTRUM TYPE>  (1534) 
MS1

>  <INSTRUMENT TYPE>  (1534) 
EI-B

>  <INSTRUMENT>  (1534) 
JEOL JMS-D-300

>  <ION MODE>  (1534) 
P

>  <INCHIKEY>  (1534) 
UMPFVLPDUDPOHN-UHFFFAOYSA-N

>  <FORMULA>  (1534) 
C10H16O2

>  <EXACT MASS>  (1534) 
168.115029752

>  <MW>  (1534) 
168

>  <ID>  (1534) 
JP009779

>  <CONTRIBUTOR>  (1534) 
University of Tokyo Team, {Faculty of Engineering, University of Tokyo

>  <COMMENT>  (1534) 
SMILES=CC(=O)C(C1)=C(C)OC(C)(C)C1
InChI=InChI=1S/C10H16O2/c1-7(11)9-5-6-10(3,4)12-8(9)2/h5-6H2,1-4H3
computed SMILES=O=C(C1=C(OC(C)(C)CC1)C)C
accession=JP009779
date=2016.01.19 (Created 2008.10.21, modified 2011.05.06)
author=KURARAY CO., LTD.
license=CC BY-NC-SA
exact mass=168.11503
ionization energy=70 eV
ion type=[M]+*
computed spectral entropy=2.9393218550201197
computed normalized entropy=0.7721519475180653
SPLASH=splash10-01ox-9700000000-6334a4ca28949e108d55
submitter=submitter = University of Tokyo Team (Faculty of Engineering, University of Tokyo)
MoNA Rating=3.75

>  <NUM PEAKS>  (1534) 
45

>  <MASS SPECTRAL PEAKS>  (1534) 
27 7.8
29 5.1
39 11.3
40 0.31
41 26.8
42 3.1
43 99.99
44 0.46
51 1.6
53 8.4
55 21.7
56 5.09
57 3.4
59 2.3
65 1.9
67 0.61
68 2.5
69 6.9
70 7.8
71 0.95
77 1.6
79 2.7
81 2.4
83 0.59
85 3.1
91 4.6
93 5.4
95 1.16
97 21.9
107 13.1
108 22.4
109 0.48
111 7.8
112 2.8
113 81
114 0.56
125 20.9
126 1.6
135 25.5
136 0.24
150 5.2
153 18.1
154 1.6
168 5.94
169 10.5

>  <PREDICTED SPECTRUM>  (1534) 
14 9
15 4
26 10
27 155
28 63
29 105
31 4
38 25
39 268
40 109
41 513
42 137
43 999
44 113
45 41
50 44
51 145
52 88
53 265
54 25
55 407
56 80
57 145
58 36
63 45
64 19
65 123
66 45
67 257
68 39
69 350
70 86
71 66
77 179
78 14
79 170
80 24
81 156
82 37
83 162
84 44
85 149
86 3
91 158
92 64
93 198
95 246
96 51
97 367
98 60
107 317
108 117
109 52
110 118
111 186
112 122
113 477
114 62
121 16
124 19
125 548
126 144
135 319
136 41
150 184
151 52
153 448
154 85
168 429
169 167

$$$$

     RDKit          2D

 12 11  0  0  0  0  0  0  0  0999 V2000
   -6.8200    5.0625    0.0000 C   0  0  0  0  0  0  0  0  0  0  0  0
   -5.5209    2.8125    0.0000 C   0  0  0  0  0  0  0  0  0  0  0  0
   -0.3248    2.8125    0.0000 C   0  0  0  0  0  0  0  0  0  0  0  0
   -2.9228    4.3125    0.0000 C   0  0  0  0  0  0  0  0  0  0  0  0
   -4.2219    5.0625    0.0000 C   0  0  0  0  0  0  0  0  0  0  0  0
   -1.6238    5.0625    0.0000 C   0  0  0  0  0  0  0  0  0  0  0  0
    0.9743    5.0625    0.0000 C   0  0  0  0  0  0  0  0  0  0  0  0
   -5.5209    4.3125    0.0000 C   0  0  0  0  0  0  0  0  0  0  0  0
   -0.3248    4.3125    0.0000 C   0  0  0  0  0  0  0  0  0  0  0  0
    2.2733    4.3125    0.0000 C   0  0  0  0  0  0  0  0  0  0  0  0
    2.2733    2.8125    0.0000 O   0  0  0  0  0  0  0  0  0  0  0  0
    3.5724    5.0625    0.0000 O   0  0  0  0  0  0  0  0  0  0  0  0
  5  4  1  0
  6  4  1  0
  8  1  1  0
  8  2  1  0
  8  5  2  0
  9  3  1  0
  9  6  1  0
  7  9  2  0
 10  7  1  0
 11 10  2  0
 12 10  1  0
M  END
>  <NAME>  (1535) 
3,7-DIMETHYL-2E,6-OCTADIENOIC ACID

>  <SYNONYMS>  (1535) 


>  <SPECTRUM TYPE>  (1535) 
MS1

>  <INSTRUMENT TYPE>  (1535) 
EI-B

>  <INSTRUMENT>  (1535) 
JEOL JMS-D-300

>  <ION MODE>  (1535) 
P

>  <INCHIKEY>  (1535) 
ZHYZQXUYZJNEHD-VQHVLOKHSA-N

>  <FORMULA>  (1535) 
C10H16O2

>  <EXACT MASS>  (1535) 
168.115029752

>  <MW>  (1535) 
168

>  <ID>  (1535) 
JP009778

>  <CONTRIBUTOR>  (1535) 
University of Tokyo Team, {Faculty of Engineering, University of Tokyo

>  <COMMENT>  (1535) 
SMILES=CC(C)=CCCC(C)=CC(O)=O
InChI=InChI=1S/C10H16O2/c1-8(2)5-4-6-9(3)7-10(11)12/h5,7H,4,6H2,1-3H3,(H,11,12)/b9-7+
computed SMILES=O=C(O)C=C(C)CCC=C(C)C
accession=JP009778
date=2016.01.19 (Created 2008.10.21, modified 2011.05.06)
author=KURARAY CO., LTD.
license=CC BY-NC-SA
exact mass=168.11503
ionization energy=70 eV
ion type=[M]+*
computed spectral entropy=2.4476821845178254
computed normalized entropy=0.6778559479147567
SPLASH=splash10-014i-9200000000-2b329e291d2596f55878
submitter=submitter = University of Tokyo Team (Faculty of Engineering, University of Tokyo)
MoNA Rating=3.75

>  <NUM PEAKS>  (1535) 
37

>  <MASS SPECTRAL PEAKS>  (1535) 
27 5.2
28 2.8
29 3.1
39 0.85
40 1.9
41 48.4
42 3
43 0.42
45 1.6
51 2
53 5.7
54 0.15
55 3
65 1.8
67 6.6
68 0.35
69 99.99
70 5.7
77 2.5
79 0.3
81 3.5
82 4.9
83 1.6
85 0.15
91 3
93 3.5
100 16.1
107 0.39
108 3.9
109 8.2
111 1.7
122 0.25
123 10.5
124 2.7
125 6.9
153 0.1
168 6.6

>  <PREDICTED SPECTRUM>  (1535) 
15 6
25 1
26 53
27 166
28 49
29 125
31 22
37 29
38 58
39 328
40 135
41 711
42 173
43 219
44 49
45 111
46 14
50 55
51 132
52 96
53 270
54 123
55 213
56 70
57 149
58 3
59 36
62 13
63 42
64 15
65 114
66 56
67 299
68 169
69 999
70 165
71 58
72 37
73 41
77 110
78 71
79 187
80 137
81 219
82 160
83 153
84 50
85 162
86 34
87 23
91 91
92 62
93 87
94 114
95 166
96 97
97 118
98 1
99 164
100 193
101 14
105 13
107 135
108 76
109 192
110 54
111 82
112 96
113 36
121 37
122 114
123 153
124 126
125 202
126 104
135 89
136 86
149 20
150 72
151 91
153 96
154 11
168 197
169 64

$$$$

     RDKit          2D

 12 11  0  0  0  0  0  0  0  0999 V2000
    3.5724    4.3125    0.0000 C   0  0  0  0  0  0  0  0  0  0  0  0
   -8.1190    5.0625    0.0000 C   0  0  0  0  0  0  0  0  0  0  0  0
    0.9743    7.3125    0.0000 C   0  0  0  0  0  0  0  0  0  0  0  0
   -4.2219    7.3125    0.0000 C   0  0  0  0  0  0  0  0  0  0  0  0
    2.2733    5.0625    0.0000 C   0  0  0  0  0  0  0  0  0  0  0  0
   -6.8200    5.8125    0.0000 C   0  0  0  0  0  0  0  0  0  0  0  0
   -0.3248    5.0625    0.0000 C   0  0  0  0  0  0  0  0  0  0  0  0
   -1.6238    5.8125    0.0000 C   0  0  0  0  0  0  0  0  0  0  0  0
    0.9743    5.8125    0.0000 C   0  0  0  0  0  0  0  0  0  0  0  0
   -4.2219    5.8125    0.0000 C   0  0  0  0  0  0  0  0  0  0  0  0
   -5.5209    5.0625    0.0000 O   0  0  0  0  0  0  0  0  0  0  0  0
   -2.9228    5.0625    0.0000 O   0  0  0  0  0  0  0  0  0  0  0  0
  5  1  3  0
  6  2  1  0
  8  7  1  0
  9  3  1  0
  9  5  1  0
  7  9  2  0
 10  4  1  0
 11  6  1  0
 11 10  1  0
 12  8  1  0
 12 10  1  0
M  END
>  <NAME>  (1536) 
1-(1-ETHOXY)ETHOXY-3-METHYL-2-PENTEN-4-YNE

>  <SYNONYMS>  (1536) 


>  <SPECTRUM TYPE>  (1536) 
MS1

>  <INSTRUMENT TYPE>  (1536) 
EI-B

>  <INSTRUMENT>  (1536) 
JEOL JMS-D-300

>  <ION MODE>  (1536) 
P

>  <INCHIKEY>  (1536) 
JTRZVLCJKKJLNN-VQHVLOKHSA-N

>  <FORMULA>  (1536) 
C10H16O2

>  <EXACT MASS>  (1536) 
168.115029752

>  <MW>  (1536) 
168

>  <ID>  (1536) 
JP009776

>  <CONTRIBUTOR>  (1536) 
University of Tokyo Team, {Faculty of Engineering, University of Tokyo

>  <COMMENT>  (1536) 
SMILES=CCOC(C)OCC=C(C)C#C
InChI=InChI=1S/C10H16O2/c1-5-9(3)7-8-12-10(4)11-6-2/h1,7,10H,6,8H2,2-4H3/b9-7+
computed SMILES=C#CC(=CCOC(OCC)C)C
accession=JP009776
date=2016.01.19 (Created 2008.10.21, modified 2011.05.06)
author=KURARAY CO., LTD.
license=CC BY-NC-SA
exact mass=168.11503
ionization energy=70 eV
ion type=[M]+*
computed spectral entropy=2.3773330068012695
computed normalized entropy=0.6583735948348884
SPLASH=splash10-0092-9000000000-af0da3094f47cc13f01e
submitter=submitter = University of Tokyo Team (Faculty of Engineering, University of Tokyo)
MoNA Rating=3.75

>  <NUM PEAKS>  (1536) 
37

>  <MASS SPECTRAL PEAKS>  (1536) 
27 6.6
28 1.6
29 6.8
39 0.63
41 3.8
43 9.2
44 3.6
45 99.99
46 2.3
50 2.5
51 7.4
52 0.42
53 6.4
63 3.3
65 2.1
67 0.35
72 1.5
73 90.4
74 4.5
77 2.87
78 8
79 81.6
80 10.2
81 0.69
82 1.4
93 1.5
95 7.9
96 0.13
107 2.1
109 9.6
121 1.8
122 0.38
123 3.8
124 7
125 1.5
139 0.12
153 3.3

>  <PREDICTED SPECTRUM>  (1536) 
14 8
15 2
19 16
25 23
26 98
27 228
28 85
29 213
31 93
37 45
38 72
39 278
40 81
41 244
42 39
43 384
44 236
45 842
46 28
47 150
49 74
50 109
51 240
52 170
53 249
54 15
55 39
61 50
63 101
64 19
65 167
66 92
67 55
68 40
69 38
70 7
72 76
73 999
74 141
77 279
78 353
79 699
80 335
81 185
91 43
93 21
94 114
95 243
96 159
97 16
107 33
109 241
110 56
111 29
122 109
123 296
124 153
125 53
140 1
153 252
154 54

$$$$

     RDKit          2D

 12 13  0  0  0  0  0  0  0  0999 V2000
   -0.6185    1.4841    0.0000 C   0  0  0  0  0  0  0  0  0  0  0  0
   -0.6185   -1.9841    0.0000 C   0  0  0  0  0  0  0  0  0  0  0  0
    2.2532    2.7500    0.0000 C   0  0  0  0  0  0  0  0  0  0  0  0
    0.9657   -1.0000    0.0000 C   0  0  0  0  0  0  0  0  0  0  0  0
    0.9657    0.5000    0.0000 C   0  0  0  0  0  0  0  0  0  0  0  0
    2.2557   -1.7500    0.0000 C   0  0  0  0  0  0  0  0  0  0  0  0
    3.5557   -1.0000    0.0000 C   0  0  0  0  0  0  0  0  0  0  0  0
    3.5557    0.5000    0.0000 C   0  0  0  0  0  0  0  0  0  0  0  0
    1.7557   -0.2500    0.0000 C   0  0  0  0  0  0  0  0  0  0  0  0
    2.2557    1.2500    0.0000 C   0  0  0  0  0  0  0  0  0  0  0  0
    4.8546   -1.7502    0.0000 O   0  0  0  0  0  0  0  0  0  0  0  0
    4.8546    1.2502    0.0000 O   0  0  0  0  0  0  0  0  0  0  0  0
  5  4  1  0
  6  4  1  0
  7  6  1  0
  8  7  1  0
  9  1  1  0
  9  2  1  0
  9  6  1  0
 10  3  1  0
 10  5  1  0
 10  8  1  0
 10  9  1  0
 11  7  2  0
 12  8  1  0
M  END
>  <NAME>  (1537) 
2-HYDROXY-1,7,7-TRIMETHYLBICYCLO(2.2.1)HEPTAN-3-ONE

>  <SYNONYMS>  (1537) 


>  <SPECTRUM TYPE>  (1537) 
MS1

>  <INSTRUMENT TYPE>  (1537) 
EI-B

>  <INSTRUMENT>  (1537) 
JEOL JMS-D-300

>  <ION MODE>  (1537) 
P

>  <INCHIKEY>  (1537) 
HJVHHNRJPMNKAK-UHFFFAOYSA-N

>  <FORMULA>  (1537) 
C10H16O2

>  <EXACT MASS>  (1537) 
168.115029752

>  <MW>  (1537) 
168

>  <ID>  (1537) 
JP009775

>  <CONTRIBUTOR>  (1537) 
University of Tokyo Team, {Faculty of Engineering, University of Tokyo

>  <COMMENT>  (1537) 
SMILES=O=C(C(O)1)C(C2)C(C)(C)C(C)(C2)1
InChI=InChI=1S/C10H16O2/c1-9(2)6-4-5-10(9,3)8(12)7(6)11/h6,8,12H,4-5H2,1-3H3
computed SMILES=O=C1C(O)C2(C)CCC1C2(C)C
accession=JP009775
date=2016.01.19 (Created 2008.10.21, modified 2011.05.06)
author=KURARAY CO., LTD.
license=CC BY-NC-SA
exact mass=168.11503
ionization energy=70 eV
ion type=[M]+*
computed spectral entropy=2.914324403367203
computed normalized entropy=0.8264397196552733
SPLASH=splash10-00lr-9100000000-c8c243551cb45f6429d0
submitter=submitter = University of Tokyo Team (Faculty of Engineering, University of Tokyo)
MoNA Rating=3.75

>  <NUM PEAKS>  (1537) 
34

>  <MASS SPECTRAL PEAKS>  (1537) 
27 13.1
28 5
29 10.3
39 1.59
41 46
43 22.9
53 10.8
55 5.44
57 14.2
67 12
69 49.4
70 6.99
71 48.1
77 5.7
79 6.1
81 0.72
82 7.6
83 99.99
84 64.6
85 0.64
95 26.5
96 9.8
97 10.3
100 0.76
107 6.9
109 7.4
111 5
125 2.26
138 6.1
139 7.6
140 8.4
153 0.75
168 43.1
169 4.9

>  <PREDICTED SPECTRUM>  (1537) 
27 85
29 90
38 16
39 402
40 139
41 946
42 349
43 766
44 109
50 54
51 124
52 42
53 245
54 92
55 630
56 275
57 634
58 90
65 84
66 30
67 440
68 177
69 822
70 345
71 721
72 139
77 154
79 174
80 24
81 385
82 357
83 999
84 826
85 342
86 36
91 75
93 49
94 54
95 688
96 371
97 397
99 58
100 15
107 297
109 259
110 130
111 219
112 138
113 40
121 37
123 15
124 105
125 229
135 111
139 210
140 346
141 51
153 21
168 705
169 200
170 13

$$$$

     RDKit          2D

 12 12  0  0  0  0  0  0  0  0999 V2000
   -1.6700   -0.9600    0.0000 C   0  0  0  0  0  0  0  0  0  0  0  0
   -1.6700    0.5400    0.0000 C   0  0  0  0  0  0  0  0  0  0  0  0
   -0.3700   -1.7100    0.0000 C   0  0  0  0  0  0  0  0  0  0  0  0
   -0.3700    1.2900    0.0000 C   0  0  0  0  0  0  0  0  0  0  0  0
    0.9300   -0.9600    0.0000 C   0  0  0  0  0  0  0  0  0  0  0  0
    6.1262    0.5408    0.0000 C   0  0  0  0  0  0  0  0  0  0  0  0
    3.5281    0.5404    0.0000 C   0  0  0  0  0  0  0  0  0  0  0  0
    4.8270    1.2906    0.0000 C   0  0  0  0  0  0  0  0  0  0  0  0
    0.9300    0.5400    0.0000 C   0  0  0  0  0  0  0  0  0  0  0  0
    7.4251    1.2910    0.0000 O   0  0  0  0  0  0  0  0  0  0  0  0
    4.8268    2.7906    0.0000 O   0  0  0  0  0  0  0  0  0  0  0  0
    2.2289    1.2902    0.0000 O   0  0  0  0  0  0  0  0  0  0  0  0
  2  1  2  0
  3  1  1  0
  4  2  1  0
  5  3  2  0
  8  6  1  0
  8  7  1  0
  9  4  2  0
  9  5  1  0
 10  6  1  0
 11  8  1  0
 12  7  1  0
 12  9  1  0
M  END
>  <NAME>  (1538) 
3-PHENOXY-1,2-PROPANEDIOL

>  <SYNONYMS>  (1538) 


>  <SPECTRUM TYPE>  (1538) 
MS1

>  <INSTRUMENT TYPE>  (1538) 
EI-B

>  <INSTRUMENT>  (1538) 
JEOL JMS-D-300

>  <ION MODE>  (1538) 
P

>  <INCHIKEY>  (1538) 
FNQIYTUXOKTMDM-UHFFFAOYSA-N

>  <FORMULA>  (1538) 
C9H12O3

>  <EXACT MASS>  (1538) 
168.078644244

>  <MW>  (1538) 
168

>  <ID>  (1538) 
JP009774

>  <CONTRIBUTOR>  (1538) 
University of Tokyo Team, {Faculty of Engineering, University of Tokyo

>  <COMMENT>  (1538) 
SMILES=OCC(O)COc(c1)cccc1
InChI=InChI=1S/C9H12O3/c10-6-8(11)7-12-9-4-2-1-3-5-9/h1-5,8,10-11H,6-7H2
computed SMILES=OCC(O)COC=1C=CC=CC1
accession=JP009774
date=2016.01.19 (Created 2008.10.21, modified 2011.05.06)
author=KURARAY CO., LTD.
license=CC BY-NC-SA
exact mass=168.07864
ionization energy=70 eV
ion type=[M]+*
computed spectral entropy=2.4727445569135775
computed normalized entropy=0.7502630310435788
SPLASH=splash10-0006-9200000000-564347ab7e5fd855e8be
submitter=submitter = University of Tokyo Team (Faculty of Engineering, University of Tokyo)
MoNA Rating=3.75

>  <NUM PEAKS>  (1538) 
27

>  <MASS SPECTRAL PEAKS>  (1538) 
27 5.3
29 4.1
31 5.8
39 0.56
41 3.1
43 9.7
45 6.7
51 0.75
56 2.8
57 7.8
61 3.3
65 0.72
66 5.9
71 12.5
77 21.3
78 0.64
79 4.7
91 3
94 99.99
95 1.31
99 10.8
107 7.8
108 6.3
119 0.48
142 5
143 16.6
168 18

>  <PREDICTED SPECTRUM>  (1538) 
14 24
15 97
16 6
17 17
18 54
19 37
25 0
26 67
27 189
28 115
29 217
30 83
31 219
32 39
33 7
34 9
37 54
38 128
39 299
40 109
41 203
42 173
43 286
44 92
45 209
46 52
47 44
49 56
50 151
51 290
52 115
53 103
54 18
55 117
56 71
57 313
58 96
59 80
60 44
61 170
62 92
63 175
64 156
65 338
66 217
67 44
70 5
71 59
73 24
74 188
75 159
76 114
77 428
78 173
79 153
80 62
81 6
90 18
91 28
92 88
93 157
94 999
95 395
96 48
103 34
105 11
106 17
107 158
108 202
109 106
112 26
119 56
120 36
121 7
125 65
126 19
133 9
137 80
138 54
168 268
169 67

$$$$

     RDKit          2D

 12 11  0  0  0  0  0  0  0  0999 V2000
    0.0000    0.0000    0.0000 C   0  0  0  0  0  0  0  0  0  0  0  0
    1.2990    2.2500    0.0000 C   0  0  0  0  0  0  0  0  0  0  0  0
   -3.8971    6.7500    0.0000 C   0  0  0  0  0  0  0  0  0  0  0  0
   -1.2990    6.7500    0.0000 C   0  0  0  0  0  0  0  0  0  0  0  0
   -5.1962    4.5000    0.0000 C   0  0  0  0  0  0  0  0  0  0  0  0
   -1.2990    2.2500    0.0000 C   0  0  0  0  0  0  0  0  0  0  0  0
   -1.2990    3.7500    0.0000 C   0  0  0  0  0  0  0  0  0  0  0  0
    0.0000    1.5000    0.0000 C   0  0  0  0  0  0  0  0  0  0  0  0
   -2.5981    6.0000    0.0000 C   0  0  0  0  0  0  0  0  0  0  0  0
   -3.8971    3.7500    0.0000 C   0  0  0  0  0  0  0  0  0  0  0  0
   -2.5981    4.5000    0.0000 C   0  0  0  0  0  0  0  0  0  0  0  0
   -3.8971    2.2500    0.0000 O   0  0  0  0  0  0  0  0  0  0  0  0
  7  6  1  0
  8  1  1  0
  8  2  1  0
  8  6  2  0
  9  3  1  0
  9  4  1  0
 10  5  1  0
 11  7  1  0
 11  9  2  0
 11 10  1  0
 12 10  2  0
M  END
>  <NAME>  (1539) 
3-ACETYL-2,6-DIMETHYL-2,5-HEPTADIENE

>  <SYNONYMS>  (1539) 
6-METHYL-3-(1-METHYLETHYLIDENE)HEPT-5-EN-2-ONE

>  <SPECTRUM TYPE>  (1539) 
MS1

>  <INSTRUMENT TYPE>  (1539) 
EI-B

>  <INSTRUMENT>  (1539) 
JEOL JMS-D-300

>  <ION MODE>  (1539) 
P

>  <INCHIKEY>  (1539) 
XUOWQIBGRJIEDN-UHFFFAOYSA-N

>  <FORMULA>  (1539) 
C11H18O

>  <EXACT MASS>  (1539) 
166.135765196

>  <MW>  (1539) 
166

>  <ID>  (1539) 
JP009773

>  <CONTRIBUTOR>  (1539) 
University of Tokyo Team, {Faculty of Engineering, University of Tokyo

>  <COMMENT>  (1539) 
SMILES=CC(C)=CCC(=C(C)C)C(C)=O
InChI=InChI=1S/C11H18O/c1-8(2)6-7-11(9(3)4)10(5)12/h6H,7H2,1-5H3
computed SMILES=O=C(C(=C(C)C)CC=C(C)C)C
accession=JP009773
date=2016.01.19 (Created 2008.10.21, modified 2011.05.06)
author=KURARAY CO., LTD.
license=CC BY-NC-SA
exact mass=166.13577
ionization energy=70 eV
ion type=[M]+*
computed spectral entropy=2.932617698840552
computed normalized entropy=0.7659682365472499
SPLASH=splash10-0fxx-9700000000-68bf15199d967936c94d
submitter=submitter = University of Tokyo Team (Faculty of Engineering, University of Tokyo)
MoNA Rating=3.75

>  <NUM PEAKS>  (1539) 
46

>  <MASS SPECTRAL PEAKS>  (1539) 
26 9.1
27 6.8
28 1
39 1.39
40 2.8
41 38.9
42 2.5
43 99.99
45 4.6
51 4
53 11.3
55 1.42
56 3
57 5.3
65 5.8
66 0.23
67 24.4
68 3.4
69 24.3
77 0.84
79 10.9
81 49.8
82 4.5
83 1.3
91 12.2
93 9.6
94 1.8
95 2.07
96 2.1
105 5.9
107 8.6
108 0.45
109 25.6
110 2.8
111 6
121 0.32
123 77.3
124 7.6
133 7.1
136 0.32
137 2.7
147 2.7
151 94.2
152 1.1
166 55.4
167 8

>  <PREDICTED SPECTRUM>  (1539) 
14 7
15 21
26 79
27 344
28 156
29 327
31 20
32 5
37 47
38 97
39 482
40 205
41 783
42 105
43 999
44 141
50 129
51 229
52 112
53 384
54 96
55 380
56 60
57 89
59 20
62 61
63 107
64 38
65 257
66 121
67 540
68 162
69 513
70 60
71 58
74 16
75 3
77 264
78 75
79 235
80 114
81 645
82 185
83 212
84 45
91 300
92 97
93 329
94 202
95 503
96 144
97 104
98 38
99 67
103 26
105 237
106 36
107 271
108 206
109 457
110 111
111 110
112 21
118 22
119 82
121 122
122 106
123 831
124 245
125 81
133 320
134 70
136 16
137 103
139 39
148 27
149 107
150 0
151 980
152 279
153 39
164 7
165 5
166 641
167 204

$$$$

     RDKit          2D

 12 13  0  0  0  0  0  0  0  0999 V2000
   -0.6185    1.4841    0.0000 C   0  0  0  0  0  0  0  0  0  0  0  0
   -0.6185   -1.9841    0.0000 C   0  0  0  0  0  0  0  0  0  0  0  0
    2.2532    2.7500    0.0000 C   0  0  0  0  0  0  0  0  0  0  0  0
    0.9657   -1.0000    0.0000 C   0  0  0  0  0  0  0  0  0  0  0  0
    0.9657    0.5000    0.0000 C   0  0  0  0  0  0  0  0  0  0  0  0
    2.2557   -1.7500    0.0000 C   0  0  0  0  0  0  0  0  0  0  0  0
    3.5557   -1.0000    0.0000 C   0  0  0  0  0  0  0  0  0  0  0  0
    3.5557    0.5000    0.0000 C   0  0  0  0  0  0  0  0  0  0  0  0
    1.7557   -0.2500    0.0000 C   0  0  0  0  0  0  0  0  0  0  0  0
    2.2557    1.2500    0.0000 C   0  0  0  0  0  0  0  0  0  0  0  0
    4.8546   -1.7502    0.0000 O   0  0  0  0  0  0  0  0  0  0  0  0
    4.8546    1.2502    0.0000 O   0  0  0  0  0  0  0  0  0  0  0  0
  5  4  1  0
  6  4  1  0
  7  6  1  0
  8  7  1  0
  9  1  1  0
  9  2  1  0
  9  6  1  0
 10  3  1  0
 10  5  1  0
 10  8  1  0
 10  9  1  0
 11  7  2  0
 12  8  2  0
M  END
>  <NAME>  (1540) 
1,7,7-TRIMETHYLBICYCLO(2.2.1)HEPTAN-2,3-DIONE

>  <SYNONYMS>  (1540) 


>  <SPECTRUM TYPE>  (1540) 
MS1

>  <INSTRUMENT TYPE>  (1540) 
EI-B

>  <INSTRUMENT>  (1540) 
JEOL JMS-D-300

>  <ION MODE>  (1540) 
P

>  <INCHIKEY>  (1540) 
VNQXSTWCDUXYEZ-UHFFFAOYSA-N

>  <FORMULA>  (1540) 
C10H14O2

>  <EXACT MASS>  (1540) 
166.099379688

>  <MW>  (1540) 
166

>  <ID>  (1540) 
JP009772

>  <CONTRIBUTOR>  (1540) 
University of Tokyo Team, {Faculty of Engineering, University of Tokyo

>  <COMMENT>  (1540) 
SMILES=O=C(C(=O)1)C(C2)C(C)(C)C(C)(C2)1
InChI=InChI=1S/C10H14O2/c1-9(2)6-4-5-10(9,3)8(12)7(6)11/h6H,4-5H2,1-3H3
computed SMILES=O=C1C(=O)C2(C)CCC1C2(C)C
accession=JP009772
date=2016.01.19 (Created 2008.10.21, modified 2011.05.06)
author=KURARAY CO., LTD.
license=CC BY-NC-SA
exact mass=166.09938
ionization energy=70 eV
ion type=[M]+*
computed spectral entropy=2.130740274042747
computed normalized entropy=0.8073868839951962
SPLASH=splash10-014v-9200000000-234b101e2090a7db39bc
submitter=submitter = University of Tokyo Team (Faculty of Engineering, University of Tokyo)
MoNA Rating=3.75

>  <NUM PEAKS>  (1540) 
14

>  <MASS SPECTRAL PEAKS>  (1540) 
28 5.6
39 20.7
41 52.9
55 4.81
67 16.2
69 88.3
75 12.4
83 6
95 99.99
105 13.8
110 12.9
122 1.14
123 13.1
138 32.6

>  <PREDICTED SPECTRUM>  (1540) 
26 107
27 394
28 138
29 222
31 4
38 85
39 534
40 267
41 811
42 179
43 211
50 141
51 290
52 230
53 592
54 386
55 616
56 333
57 153
62 10
63 39
65 214
66 211
67 981
68 465
69 760
70 319
74 11
77 400
78 98
79 516
80 189
81 362
82 623
83 806
84 274
85 89
91 269
92 72
93 283
94 291
95 999
96 391
97 155
98 135
105 108
107 332
108 494
109 455
110 647
111 300
119 23
121 13
122 273
123 721
124 254
133 80
138 656
139 213
151 221
166 756
167 248
168 27

$$$$

     RDKit          2D

 12 12  0  0  0  0  0  0  0  0999 V2000
   -5.5207    3.1321    0.0000 C   0  0  0  0  0  0  0  0  0  0  0  0
    3.5726    0.8821    0.0000 C   0  0  0  0  0  0  0  0  0  0  0  0
    3.5731    2.3829    0.0000 C   0  0  0  0  0  0  0  0  0  0  0  0
    2.2731    0.1313    0.0000 C   0  0  0  0  0  0  0  0  0  0  0  0
    2.2740    3.1329    0.0000 C   0  0  0  0  0  0  0  0  0  0  0  0
    0.9740    0.8813    0.0000 C   0  0  0  0  0  0  0  0  0  0  0  0
   -0.3245    3.1321    0.0000 C   0  0  0  0  0  0  0  0  0  0  0  0
   -1.6236    2.3821    0.0000 C   0  0  0  0  0  0  0  0  0  0  0  0
    0.9745    2.3821    0.0000 C   0  0  0  0  0  0  0  0  0  0  0  0
   -2.9226    3.1321    0.0000 C   0  0  0  0  0  0  0  0  0  0  0  0
   -2.9226    4.6321    0.0000 O   0  0  0  0  0  0  0  0  0  0  0  0
   -4.2216    2.3821    0.0000 O   0  0  0  0  0  0  0  0  0  0  0  0
  3  2  2  0
  4  2  1  0
  5  3  1  0
  6  4  2  0
  8  7  1  0
  9  5  2  0
  9  6  1  0
  9  7  1  0
 10  8  1  0
 11 10  2  0
 12  1  1  0
 12 10  1  0
M  END
>  <NAME>  (1541) 
METHYL 3-PHENYLPROPIONATE

>  <SYNONYMS>  (1541) 


>  <SPECTRUM TYPE>  (1541) 
MS1

>  <INSTRUMENT TYPE>  (1541) 
EI-B

>  <INSTRUMENT>  (1541) 
JEOL JMS-D-300

>  <ION MODE>  (1541) 
P

>  <INCHIKEY>  (1541) 
RPUSRLKKXPQSGP-UHFFFAOYSA-N

>  <FORMULA>  (1541) 
C10H12O2

>  <EXACT MASS>  (1541) 
164.083729624

>  <MW>  (1541) 
164

>  <ID>  (1541) 
JP009771

>  <CONTRIBUTOR>  (1541) 
University of Tokyo Team, {Faculty of Engineering, University of Tokyo

>  <COMMENT>  (1541) 
SMILES=COC(=O)CCc(c1)cccc1
InChI=InChI=1S/C10H12O2/c1-12-10(11)8-7-9-5-3-2-4-6-9/h2-6H,7-8H2,1H3
computed SMILES=O=C(OC)CCC=1C=CC=CC1
accession=JP009771
date=2016.01.19 (Created 2008.10.21, modified 2011.05.06)
author=KURARAY CO., LTD.
license=CC BY-NC-SA
exact mass=164.08373
ionization energy=70 eV
ion type=[M]+*
computed spectral entropy=2.273019193696929
computed normalized entropy=0.6821367616411442
SPLASH=splash10-0udl-5900000000-73becd76a83f69a5aad9
submitter=submitter = University of Tokyo Team (Faculty of Engineering, University of Tokyo)
MoNA Rating=3.75

>  <NUM PEAKS>  (1541) 
28

>  <MASS SPECTRAL PEAKS>  (1541) 
26 2.5
27 11
31 2.7
39 0.36
50 2.4
51 8.4
52 2
55 0.12
59 1.8
63 2.4
65 6.4
77 1.14
78 9.1
79 7.3
91 63.7
92 0.58
102 1.4
103 8.4
104 99.99
105 3.75
106 3
107 4.3
131 3
132 0.16
133 13.6
134 1.4
164 46.7
165 5.4

>  <PREDICTED SPECTRUM>  (1541) 
14 6
15 27
18 0
26 57
27 181
28 45
29 12
31 103
32 15
33 37
34 6
37 25
38 55
39 270
40 106
41 204
42 131
43 125
44 135
45 84
49 18
50 216
51 344
52 211
53 154
54 42
55 21
58 9
59 285
60 95
61 16
62 84
63 227
64 96
65 422
66 111
67 5
68 13
69 89
71 42
72 38
73 22
74 217
75 126
76 129
77 449
78 375
79 354
86 25
87 74
88 66
89 108
90 112
91 999
92 343
93 1
101 92
102 189
103 366
104 942
105 778
106 281
107 310
131 13
132 309
133 283
134 90
135 5
164 417
165 119
166 20

$$$$

     RDKit          2D

 10  9  0  0  0  0  0  0  0  0999 V2000
   -3.5724    3.9375    0.0000 C   0  0  0  0  0  0  0  0  0  0  0  0
   -2.2733    1.6875    0.0000 C   0  0  0  0  0  0  0  0  0  0  0  0
    2.9228    3.1875    0.0000 C   0  0  0  0  0  0  0  0  0  0  0  0
    1.6238    0.9375    0.0000 C   0  0  0  0  0  0  0  0  0  0  0  0
   -2.2733    3.1875    0.0000 C   0  0  0  0  0  0  0  0  0  0  0  0
   -0.9743    3.9375    0.0000 C   0  0  0  0  0  0  0  0  0  0  0  0
    0.3248    3.1875    0.0000 C   0  0  0  0  0  0  0  0  0  0  0  0
   -0.9743    5.4375    0.0000 Cl  0  0  0  0  0  0  0  0  0  0  0  0
    1.6238    3.9375    0.0000 O   0  0  0  0  0  0  0  0  0  0  0  0
    0.3248    1.6875    0.0000 O   0  0  0  0  0  0  0  0  0  0  0  0
  5  1  2  0
  5  2  1  0
  6  5  1  0
  7  6  1  0
  8  6  1  0
  9  3  1  0
  9  7  1  0
 10  4  1  0
 10  7  1  0
M  END
>  <NAME>  (1542) 
3-CHLORO-4,4-DIMETHOXY-2-METHYL-1-BUTENE

>  <SYNONYMS>  (1542) 
2-CHLORO-3-METHYL-3-BUTENAL DIMETHYL ACETAL

>  <SPECTRUM TYPE>  (1542) 
MS1

>  <INSTRUMENT TYPE>  (1542) 
EI-B

>  <INSTRUMENT>  (1542) 
JEOL JMS-D-300

>  <ION MODE>  (1542) 
P

>  <INCHIKEY>  (1542) 
ABPMBQRFVZPMID-UHFFFAOYSA-N

>  <FORMULA>  (1542) 
C7H13ClO2

>  <EXACT MASS>  (1542) 
164.060407336

>  <MW>  (1542) 
164

>  <ID>  (1542) 
JP009770

>  <CONTRIBUTOR>  (1542) 
University of Tokyo Team, {Faculty of Engineering, University of Tokyo

>  <COMMENT>  (1542) 
SMILES=COC(OC)C(Cl)C(C)=C
InChI=InChI=1S/C7H13ClO2/c1-5(2)6(8)7(9-3)10-4/h6-7H,1H2,2-4H3
computed SMILES=ClC(C(=C)C)C(OC)OC
accession=JP009770
date=2016.01.19 (Created 2008.10.21, modified 2011.05.06)
author=KURARAY CO., LTD.
license=CC BY-NC-SA
exact mass=164.06041
ionization energy=70 eV
ion type=[M]+*
computed spectral entropy=1.8871372451632489
computed normalized entropy=0.5604310819257092
SPLASH=splash10-004i-9000000000-665d1669ca159e33a7fb
submitter=submitter = University of Tokyo Team (Faculty of Engineering, University of Tokyo)
MoNA Rating=3.75

>  <NUM PEAKS>  (1542) 
29

>  <MASS SPECTRAL PEAKS>  (1542) 
27 4.4
29 4.4
31 5.4
39 0.58
41 5.6
43 7.4
45 1.7
47 1.45
51 1.4
53 4.5
55 5.5
57 0.16
58 2
59 1.2
65 3.2
67 0.27
69 1
73 1
75 99.99
76 0.35
83 3.5
92 1.2
97 1.7
98 0.15
101 1.7
103 1.2
129 2.1
133 1.04
135 3.2

>  <PREDICTED SPECTRUM>  (1542) 
14 5
15 24
27 47
29 137
31 117
32 13
33 18
36 36
38 27
39 133
40 23
41 266
42 15
43 263
45 115
47 215
50 68
51 46
53 112
54 11
55 131
57 8
59 9
67 28
69 64
71 50
75 999
76 234
77 33
83 131
133 67
135 78

$$$$

     RDKit          2D

  7  7  0  0  0  0  0  0  0  0999 V2000
   -1.7504   -3.3467    0.0000 C   0  0  0  0  0  0  0  0  0  0  0  0
   -0.6017   -1.3563    0.0000 C   0  0  0  0  0  0  0  0  0  0  0  0
    0.5474   -2.3204    0.0000 C   0  0  0  0  0  0  0  0  0  0  0  0
   -2.7612   -0.5705    0.0000 C   0  0  0  0  0  0  0  0  0  0  0  0
   -2.0112   -1.8695    0.0000 C   0  0  0  0  0  0  0  0  0  0  0  0
    1.9569   -1.8072    0.0000 Br  0  0  0  0  0  0  0  0  0  0  0  0
   -3.5120   -1.8700    0.0000 O   0  0  0  0  0  0  0  0  0  0  0  0
  3  2  1  0
  5  1  1  0
  5  2  1  0
  5  4  1  0
  6  3  1  0
  7  4  1  0
  7  5  1  0
M  END
>  <NAME>  (1543) 
4-BROMO-1,2-EPOXY-2-METHYLBUTANE

>  <SYNONYMS>  (1543) 


>  <SPECTRUM TYPE>  (1543) 
MS1

>  <INSTRUMENT TYPE>  (1543) 
EI-B

>  <INSTRUMENT>  (1543) 
JEOL JMS-D-300

>  <ION MODE>  (1543) 
P

>  <INCHIKEY>  (1543) 
HUQIPXUHULWQTD-UHFFFAOYSA-N

>  <FORMULA>  (1543) 
C5H9BrO

>  <EXACT MASS>  (1543) 
163.983677008

>  <MW>  (1543) 
164

>  <ID>  (1543) 
JP009769

>  <CONTRIBUTOR>  (1543) 
University of Tokyo Team, {Faculty of Engineering, University of Tokyo

>  <COMMENT>  (1543) 
SMILES=CC(C1)(O1)CCBr
InChI=InChI=1S/C5H9BrO/c1-5(2-3-6)4-7-5/h2-4H2,1H3
computed SMILES=BrCCC1(OC1)C
accession=JP009769
date=2016.01.19 (Created 2008.10.21, modified 2011.05.06)
author=KURARAY CO., LTD.
license=CC BY-NC-SA
exact mass=163.98368
ionization energy=70 eV
ion type=[M]+*
computed spectral entropy=2.2533276361897507
computed normalized entropy=0.6625101055112996
SPLASH=splash10-052r-9000000000-a1c6f5b8c7275271457c
submitter=submitter = University of Tokyo Team (Faculty of Engineering, University of Tokyo)
MoNA Rating=3.75

>  <NUM PEAKS>  (1543) 
30

>  <MASS SPECTRAL PEAKS>  (1543) 
26 2.6
27 17.8
28 1
29 2.25
31 1.4
38 1.8
39 19.7
40 0.19
41 22.3
42 2.7
43 19.2
45 0.2
49 2.4
50 2
51 3.3
53 1.3
54 4.2
55 68.7
56 5.7
57 0.62
58 8.5
62 2.5
75 3.8
77 0.26
85 99.99
86 7.3
105 1.2
107 0.13
109 1
121 1.1

>  <PREDICTED SPECTRUM>  (1543) 
14 32
15 99
25 13
26 143
27 391
28 171
29 292
30 47
31 75
36 1
37 64
38 137
39 460
40 147
41 550
42 271
43 449
45 30
50 85
51 94
52 74
53 284
54 150
55 602
56 99
57 183
58 11
65 15
67 126
69 5
71 259
72 16
83 40
84 37
85 999
86 231
121 76

$$$$

     RDKit          2D

 24 25  0  0  0  0  0  0  0  0999 V2000
   -7.7964   -0.9992    0.0000 C   0  0  0  0  0  0  0  0  0  0  0  0
  -13.7423    0.3008    0.0000 C   0  0  0  0  0  0  0  0  0  0  0  0
  -14.2917   -1.7481    0.0000 C   0  0  0  0  0  0  0  0  0  0  0  0
   -1.3000   -1.7500    0.0000 C   0  0  0  0  0  0  0  0  0  0  0  0
    1.3000   -1.7500    0.0000 C   0  0  0  0  0  0  0  0  0  0  0  0
   -2.6000   -1.0000    0.0000 C   0  0  0  0  0  0  0  0  0  0  0  0
    2.6000   -1.0000    0.0000 C   0  0  0  0  0  0  0  0  0  0  0  0
  -10.3942    0.5012    0.0000 C   0  0  0  0  0  0  0  0  0  0  0  0
   -6.4970    1.2506    0.0000 C   0  0  0  0  0  0  0  0  0  0  0  0
  -11.6934   -0.2485    0.0000 C   0  0  0  0  0  0  0  0  0  0  0  0
   -5.1981    0.5004    0.0000 C   0  0  0  0  0  0  0  0  0  0  0  0
   -1.3000    1.2500    0.0000 C   0  0  0  0  0  0  0  0  0  0  0  0
   -7.7962    0.5008    0.0000 C   0  0  0  0  0  0  0  0  0  0  0  0
    0.0000   -1.0000    0.0000 C   0  0  0  0  0  0  0  0  0  0  0  0
   -2.6000    0.5000    0.0000 C   0  0  0  0  0  0  0  0  0  0  0  0
   -9.0951    1.2510    0.0000 C   0  0  0  0  0  0  0  0  0  0  0  0
    0.0000    0.5000    0.0000 C   0  0  0  0  0  0  0  0  0  0  0  0
    2.6000    0.5000    0.0000 C   0  0  0  0  0  0  0  0  0  0  0  0
  -12.9925   -0.9983    0.0000 C   0  0  0  0  0  0  0  0  0  0  0  0
   -9.0948    2.7510    0.0000 O   0  0  0  0  0  0  0  0  0  0  0  0
    3.8989    1.2502    0.0000 O   0  0  0  0  0  0  0  0  0  0  0  0
  -12.2428   -2.2975    0.0000 O   0  0  0  0  0  0  0  0  0  0  0  0
   -3.8989    1.2502    0.0000 O   0  0  0  0  0  0  0  0  0  0  0  0
    1.3000    1.2500    0.0000 O   0  0  0  0  0  0  0  0  0  0  0  0
  6  4  2  0
  7  5  2  0
 10  8  3  0
 11  9  1  0
 13  1  1  0
  9 13  2  0
 14  4  1  0
 14  5  1  0
 15  6  1  0
 15 12  2  0
 16  8  1  0
 16 13  1  0
 17 12  1  0
 17 14  2  0
 18  7  1  0
 19  2  1  0
 19  3  1  0
 19 10  1  0
 20 16  2  0
 21 18  2  0
 22 19  1  0
 23 11  1  0
 23 15  1  0
 24 17  1  0
 24 18  1  0
M  END
>  <NAME>  (1544) 
7-((E-3,7-DIMETHYL-7-HYDROXY-4-OXO-5-YN-2-OCTENYL)OXY)-2H-1-BENZOPYRAN-2-ONE

>  <SYNONYMS>  (1544) 


>  <SPECTRUM TYPE>  (1544) 
MS1

>  <INSTRUMENT TYPE>  (1544) 
EI-B

>  <INSTRUMENT>  (1544) 
JEOL JMS-DX-300

>  <ION MODE>  (1544) 
P

>  <INCHIKEY>  (1544) 
OYKRKWYDZSRLEV-UKTHLTGXSA-N

>  <FORMULA>  (1544) 
C19H18O5

>  <EXACT MASS>  (1544) 
326.115423676

>  <MW>  (1544) 
326

>  <ID>  (1544) 
JP009768

>  <CONTRIBUTOR>  (1544) 
University of Tokyo Team, {Faculty of Engineering, University of Tokyo

>  <COMMENT>  (1544) 
SMILES=CC(=CCOc(c1)cc(O2)c(C=CC(=O)2)c1)C(=O)C#CC(C)(C)O
InChI=InChI=1S/C19H18O5/c1-13(16(20)8-10-19(2,3)22)9-11-23-15-6-4-14-5-7-18(21)24-17(14)12-15/h4-7,9,12,22H,11H2,1-3H3/b13-9+
computed SMILES=O=C1OC=2C=C(OCC=C(C(=O)C#CC(O)(C)C)C)C=CC2C=C1
accession=JP009768
date=2016.01.19 (Created 2008.10.21, modified 2011.05.06)
author=HISAHIRO HAGIWARA, CHEMICAL RESEARCH INSTITUTE OF NON-AQUEOUSSOLUTIONS TOHOKU UNIV.
license=CC BY-NC-SA
exact mass=326.11542
ionization energy=70 eV
ion type=[M]+*
computed spectral entropy=3.3992447881412398
computed normalized entropy=0.811342460762558
SPLASH=splash10-03dl-8910000000-da2f8d15ee30682d2bc6
submitter=submitter = University of Tokyo Team (Faculty of Engineering, University of Tokyo)
MoNA Rating=3.75

>  <NUM PEAKS>  (1544) 
66

>  <MASS SPECTRAL PEAKS>  (1544) 
31 2.15
39 9.07
41 12.26
43 79.15
44 1.16
50 2.06
51 8.75
52 2.27
53 20.29
54 3.08
55 6.39
58 0.27
59 7.25
63 4.53
65 3.92
67 6.44
69 8.61
77 23.28
78 6.66
79 1.14
80 1.75
81 2.27
82 2.47
83 1.68
89 5.01
91 9.36
93 8.73
94 1.99
95 5.92
103 2.18
104 1.7
105 7.32
106 2.86
107 11.33
108 2.45
109 1.63
117 2.61
119 4.42
121 3.13
122 3.02
123 3.04
133 3.04
134 35.27
135 4.37
147 4.37
149 2.54
159 2.4
162 99.99
163 17.04
164 2.43
165 14.64
166 1.81
173 9.75
187 15.07
188 2.06
215 26.56
216 4.03
265 2.77
267 2.77
268 2.86
269 1.81
293 3.76
308 2.33
311 1.56
326 7.8
327 1.77

>  <PREDICTED SPECTRUM>  (1544) 
37 33
38 70
39 323
40 141
41 516
42 36
43 979
44 120
45 90
49 6
50 170
51 343
52 168
53 400
54 100
55 225
56 34
57 62
59 199
61 45
62 138
63 269
64 79
65 205
66 116
67 340
68 93
69 279
70 23
71 63
74 38
75 136
76 84
77 569
78 223
79 398
80 107
81 136
82 54
83 108
84 9
86 42
87 18
89 110
91 250
92 22
93 183
94 118
95 244
96 31
97 70
99 25
102 114
103 134
104 3
105 255
106 165
107 384
108 17
109 107
111 23
115 338
116 39
117 127
119 87
120 74
121 166
122 108
123 173
124 15
125 34
128 86
131 125
133 241
134 676
135 296
136 55
137 174
141 17
144 155
145 98
147 139
148 17
149 172
150 17
151 39
159 163
162 999
163 586
164 89
165 255
171 67
172 21
173 250
174 39
184 41
185 6
186 19
187 310
188 72
189 208
190 86
199 38
207 62
209 31
214 121
215 579
216 279
217 165
223 27
225 88
250 27
258 64
265 127
266 46
267 143
268 133
293 106
308 56
311 6
326 167
327 20

$$$$

     RDKit          2D

 18 19  0  0  0  0  0  0  0  0999 V2000
   -7.7964   -0.9992    0.0000 C   0  0  0  0  0  0  0  0  0  0  0  0
   -1.3000   -1.7500    0.0000 C   0  0  0  0  0  0  0  0  0  0  0  0
    1.3000   -1.7500    0.0000 C   0  0  0  0  0  0  0  0  0  0  0  0
   -2.6000   -1.0000    0.0000 C   0  0  0  0  0  0  0  0  0  0  0  0
    2.6000   -1.0000    0.0000 C   0  0  0  0  0  0  0  0  0  0  0  0
   -6.4970    1.2506    0.0000 C   0  0  0  0  0  0  0  0  0  0  0  0
   -5.1981    0.5004    0.0000 C   0  0  0  0  0  0  0  0  0  0  0  0
   -1.3000    1.2500    0.0000 C   0  0  0  0  0  0  0  0  0  0  0  0
   -9.0951    1.2510    0.0000 C   0  0  0  0  0  0  0  0  0  0  0  0
   -7.7962    0.5008    0.0000 C   0  0  0  0  0  0  0  0  0  0  0  0
    0.0000   -1.0000    0.0000 C   0  0  0  0  0  0  0  0  0  0  0  0
   -2.6000    0.5000    0.0000 C   0  0  0  0  0  0  0  0  0  0  0  0
    0.0000    0.5000    0.0000 C   0  0  0  0  0  0  0  0  0  0  0  0
    2.6000    0.5000    0.0000 C   0  0  0  0  0  0  0  0  0  0  0  0
  -10.3942    0.5012    0.0000 O   0  0  0  0  0  0  0  0  0  0  0  0
    3.8989    1.2502    0.0000 O   0  0  0  0  0  0  0  0  0  0  0  0
   -3.8989    1.2502    0.0000 O   0  0  0  0  0  0  0  0  0  0  0  0
    1.3000    1.2500    0.0000 O   0  0  0  0  0  0  0  0  0  0  0  0
  4  2  2  0
  5  3  2  0
  7  6  1  0
 10  1  1  0
  6 10  2  0
 10  9  1  0
 11  2  1  0
 11  3  1  0
 12  4  1  0
 12  8  2  0
 13  8  1  0
 13 11  2  0
 14  5  1  0
 15  9  2  0
 16 14  2  0
 17  7  1  0
 17 12  1  0
 18 13  1  0
 18 14  1  0
M  END
>  <NAME>  (1545) 
7-((E-3-FORMYL-2-BUTENYL)OXY)-2H-1-BENZOPYRAN-2-ONE

>  <SYNONYMS>  (1545) 


>  <SPECTRUM TYPE>  (1545) 
MS1

>  <INSTRUMENT TYPE>  (1545) 
EI-B

>  <INSTRUMENT>  (1545) 
JEOL JMS-DX-300

>  <ION MODE>  (1545) 
P

>  <INCHIKEY>  (1545) 
BOEYBMJEVSXRSZ-UXBLZVDNSA-N

>  <FORMULA>  (1545) 
C14H12O4

>  <EXACT MASS>  (1545) 
244.073558864

>  <MW>  (1545) 
244

>  <ID>  (1545) 
JP009767

>  <CONTRIBUTOR>  (1545) 
University of Tokyo Team, {Faculty of Engineering, University of Tokyo

>  <COMMENT>  (1545) 
SMILES=O=CC(C)=CCOc(c1)cc(O2)c(C=CC(=O)2)c1
InChI=InChI=1S/C14H12O4/c1-10(9-15)6-7-17-12-4-2-11-3-5-14(16)18-13(11)8-12/h2-6,8-9H,7H2,1H3/b10-6+
computed SMILES=O=CC(=CCOC=1C=CC=2C=CC(=O)OC2C1)C
accession=JP009767
date=2016.01.19 (Created 2008.10.21, modified 2011.05.06)
author=HISAHIRO HAGIWARA, CHEMICAL RESEARCH INSTITUTE OF NON-AQUEOUSSOLUTIONS TOHOKU UNIV.
license=CC BY-NC-SA
exact mass=244.07356
ionization energy=70 eV
ion type=[M]+*
computed spectral entropy=3.232933542098601
computed normalized entropy=0.8031431264849732
SPLASH=splash10-01q9-9820000000-c760f1879f411dbd7c41
submitter=submitter = University of Tokyo Team (Faculty of Engineering, University of Tokyo)
MoNA Rating=3.75

>  <NUM PEAKS>  (1545) 
56

>  <MASS SPECTRAL PEAKS>  (1545) 
38 2.28
39 18.34
41 5.93
43 14.54
44 1.62
45 2.21
50 4.54
51 16.16
52 3.29
53 11.33
54 5.96
55 50.25
56 3.04
57 2.01
58 2.65
59 1.91
61 1.62
62 2.99
63 9.05
64 0.26
65 4.17
67 2.13
69 8.26
76 2.01
77 11.72
78 9.02
79 2.97
81 3.41
82 9.91
83 43.26
84 3.87
85 1.91
89 8.09
91 2.21
105 9.47
106 3.78
123 2.04
133 4.02
134 82.34
135 8.29
145 1.74
159 2.35
162 99.99
163 14.25
173 5.59
175 2.77
187 15.96
188 2.16
199 3.31
201 1.82
215 19.42
216 4.02
227 2.13
229 1.99
244 36.86
245 6.28

>  <PREDICTED SPECTRUM>  (1545) 
37 53
38 105
39 352
40 101
41 472
42 40
43 251
44 108
49 30
50 212
51 355
52 187
53 349
54 108
55 238
56 60
57 79
61 91
62 189
63 400
64 161
65 197
66 126
67 174
68 120
69 527
74 114
75 204
76 226
77 445
78 104
79 108
81 278
82 197
83 71
87 43
88 91
89 448
90 77
91 183
92 10
93 16
94 40
95 16
102 176
103 81
104 29
105 52
107 79
115 347
116 8
117 75
119 162
128 19
129 19
131 103
133 49
134 108
135 44
144 119
145 66
146 30
147 291
148 215
149 50
157 14
162 999
163 326
173 79
174 75
175 447
176 299
177 6
185 28
199 57
201 70
202 139
203 391
204 105
215 302
216 250
227 91
244 474
245 136
246 12

$$$$

     RDKit          2D

 13 12  0  0  0  0  0  0  0  0999 V2000
    2.5478    3.0870    0.0000 C   0  0  0  0  0  0  0  0  0  0  0  0
   -0.0502    6.0870    0.0000 C   0  0  0  0  0  0  0  0  0  0  0  0
   -2.6483    6.0870    0.0000 C   0  0  0  0  0  0  0  0  0  0  0  0
   -3.1974    5.1361    0.0000 C   0  0  0  0  0  0  0  0  0  0  0  0
   -5.2464    4.5870    0.0000 C   0  0  0  0  0  0  0  0  0  0  0  0
   -4.6974    2.5380    0.0000 C   0  0  0  0  0  0  0  0  0  0  0  0
    1.2488    3.8370    0.0000 C   0  0  0  0  0  0  0  0  0  0  0  0
   -2.6483    3.0870    0.0000 C   0  0  0  0  0  0  0  0  0  0  0  0
   -1.3493    5.3370    0.0000 C   0  0  0  0  0  0  0  0  0  0  0  0
   -1.3493    3.8370    0.0000 C   0  0  0  0  0  0  0  0  0  0  0  0
   -0.0502    3.0870    0.0000 C   0  0  0  0  0  0  0  0  0  0  0  0
   -0.0502    1.5870    0.0000 O   0  0  0  0  0  0  0  0  0  0  0  0
   -3.9474    3.8370    0.0000 Si  0  0  0  0  0  4  0  0  0  0  0  0
  7  1  1  0
  9  2  2  0
  9  3  1  0
 10  8  1  0
 10  9  1  0
 11  7  1  0
 11 10  1  0
 12 11  1  0
 13  4  1  0
 13  5  1  0
 13  6  1  0
 13  8  1  0
M  END
>  <NAME>  (1546) 
3-TRIMETHYLSILYLMETHYL-4-HYDROXY-2-METHYL-1-HEXENE

>  <SYNONYMS>  (1546) 


>  <SPECTRUM TYPE>  (1546) 
MS1

>  <INSTRUMENT TYPE>  (1546) 
EI-B

>  <INSTRUMENT>  (1546) 
JEOL JMS-DX-300

>  <ION MODE>  (1546) 
P

>  <INCHIKEY>  (1546) 
LTTVLXPPUDUYBC-UHFFFAOYSA-N

>  <FORMULA>  (1546) 
C11H24OSi

>  <EXACT MASS>  (1546) 
200.159641918

>  <MW>  (1546) 
200

>  <ID>  (1546) 
JP009766

>  <CONTRIBUTOR>  (1546) 
University of Tokyo Team, {Faculty of Engineering, University of Tokyo

>  <COMMENT>  (1546) 
SMILES=CCC(O)C(C(C)=C)C[Si](C)(C)C
InChI=InChI=1S/C11H24OSi/c1-7-11(12)10(9(2)3)8-13(4,5)6/h10-12H,2,7-8H2,1,3-6H3
computed SMILES=OC(CC)C(C(=C)C)C[Si](C)(C)C
accession=JP009766
date=2016.01.19 (Created 2008.10.21, modified 2011.05.06)
author=HISAHIRO HAGIWARA, CHEMICAL RESEARCH INSTITUTE OF NON-AQUEOUSSOLUTIONS TOHOKU UNIV.
license=CC BY-NC-SA
exact mass=200.15964
ionization energy=70 eV
ion type=[M]+*
computed spectral entropy=2.2408946877871267
computed normalized entropy=0.6525634937894597
SPLASH=splash10-00di-9000000000-edb6245ebade434dd143
submitter=submitter = University of Tokyo Team (Faculty of Engineering, University of Tokyo)
MoNA Rating=3.75

>  <NUM PEAKS>  (1546) 
31

>  <MASS SPECTRAL PEAKS>  (1546) 
31 3.74
39 1.49
41 3.68
43 2.91
44 1.59
45 8.31
47 1.65
53 1.24
57 1.6
58 1.4
59 8.35
61 1.62
67 1.56
68 3.56
72 1.59
73 99.99
74 10.19
75 26.84
76 2.02
77 0.18
81 4.95
83 1
85 1.85
95 2.37
99 2.45
111 2.01
127 1.86
131 0.17
141 4.15
142 10.16
143 1.78

>  <PREDICTED SPECTRUM>  (1546) 
29 61
31 6
39 83
40 38
41 144
42 0
43 258
44 98
45 281
46 8
47 9
51 33
52 2
53 97
54 50
55 182
56 22
57 148
58 184
59 281
61 90
65 15
66 29
67 125
68 119
69 158
70 45
71 72
72 82
73 999
74 338
75 457
76 83
77 91
81 130
82 76
83 134
85 52
87 15
89 40
91 23
95 54
96 88
97 57
99 69
101 68
110 101
111 72
113 32
126 55
127 18
157 4
185 24
200 40

$$$$

     RDKit          2D

 20 21  0  0  1  0  0  0  0  0999 V2000
   -0.3255    4.3139    0.0000 C   0  0  0  0  0  0  0  0  0  0  0  0
    1.3093    0.1636    0.0000 C   0  0  0  0  0  0  0  0  0  0  0  0
    3.2378    0.1633    0.0000 C   0  0  0  0  0  0  0  0  0  0  0  0
    2.2727    4.3141    0.0000 C   0  0  0  0  0  0  0  0  0  0  0  0
    3.5723    3.5633    0.0000 C   0  0  0  0  0  0  0  0  0  0  0  0
   -0.3248    1.3133    0.0000 C   0  0  0  0  0  0  0  0  0  0  0  0
   -1.6234    3.5641    0.0000 C   0  0  0  0  0  0  0  0  0  0  0  0
   -4.2224    2.0624    0.0000 C   0  0  0  0  0  0  0  0  0  0  0  0
    0.9737    3.5641    0.0000 C   0  0  0  0  0  0  0  0  0  0  0  0
   -1.6239    2.0633    0.0000 C   0  0  0  0  0  0  0  0  0  0  0  0
    0.9742    2.0633    0.0000 C   0  0  0  0  0  0  0  0  0  0  0  0
   -4.2220    3.5633    0.0000 C   0  0  0  0  0  0  0  0  0  0  0  0
   -2.9234    1.3124    0.0000 C   0  0  0  0  0  0  0  0  0  0  0  0
   -2.9224    4.3141    0.0000 C   0  0  0  0  0  0  0  0  0  0  0  0
    3.5727    2.0624    0.0000 C   0  0  0  0  0  0  0  0  0  0  0  0
    2.2737    1.3124    0.0000 C   0  0  0  0  0  0  0  0  0  0  0  0
   -5.5210    4.3133    0.0000 Br  0  0  0  0  0  0  0  0  0  0  0  0
    4.8719    1.3127    0.0000 Br  0  0  0  0  0  0  0  0  0  0  0  0
   -2.9232   -0.1876    0.0000 O   0  0  0  0  0  0  0  0  0  0  0  0
   -2.9227    5.8141    0.0000 O   0  0  0  0  0  0  0  0  0  0  0  0
  5  4  1  0
  9  1  2  0
  9  4  1  0
 10  6  1  0
 10  7  2  0
 11  6  1  1
 11  9  1  0
 12  8  1  0
 13  8  2  0
 13 10  1  0
 14  7  1  0
 14 12  2  0
 15  5  1  0
 16  2  1  0
 16  3  1  0
 16 11  1  0
 16 15  1  0
 17 12  1  0
 15 18  1  1
 19 13  1  0
 20 14  1  0
M  END
>  <NAME>  (1547) 
CYCLOCYMOPOL

>  <SYNONYMS>  (1547) 


>  <SPECTRUM TYPE>  (1547) 
MS1

>  <INSTRUMENT TYPE>  (1547) 
EI-B

>  <INSTRUMENT>  (1547) 
JEOL JMS-DX-300

>  <ION MODE>  (1547) 
P

>  <INCHIKEY>  (1547) 
OVQUXMIHRFSOJM-XHDPSFHLSA-N

>  <FORMULA>  (1547) 
C16H20Br2O2

>  <EXACT MASS>  (1547) 
401.98300408

>  <MW>  (1547) 
402

>  <ID>  (1547) 
JP009765

>  <CONTRIBUTOR>  (1547) 
University of Tokyo Team, {Faculty of Engineering, University of Tokyo

>  <COMMENT>  (1547) 
SMILES=Oc(c1)c(Br)cc(O)c1CC([H])(C(=C)2)C(C)(C)C([H])(Br)CC2
InChI=InChI=1S/C16H20Br2O2/c1-9-4-5-15(18)16(2,3)11(9)6-10-7-14(20)12(17)8-13(10)19/h7-8,11,15,19-20H,1,4-6H2,2-3H3/t11-,15+/m0/s1
computed SMILES=BrC=1C=C(O)C(=CC1O)CC2C(=C)CCC(Br)C2(C)C
accession=JP009765
date=2016.01.19 (Created 2008.10.21, modified 2011.05.06)
author=HISAHIRO HAGIWARA, CHEMICAL RESEARCH INSTITUTE OF NON-AQUEOUSSOLUTIONS TOHOKU UNIV.
license=CC BY-NC-SA
exact mass=401.98301
ionization energy=70 eV
ion type=[M]+*
computed spectral entropy=3.696069497120594
computed normalized entropy=0.8670764879688784
SPLASH=splash10-0udi-9781200000-4e34489ce784ebe6a55b
submitter=submitter = University of Tokyo Team (Faculty of Engineering, University of Tokyo)
MoNA Rating=3.75

>  <NUM PEAKS>  (1547) 
71

>  <MASS SPECTRAL PEAKS>  (1547) 
39 19.03
41 38.71
43 7.95
51 8.06
52 3.96
53 45.86
55 12.8
57 11.31
63 3.7
65 15.71
66 7.76
67 12.07
69 18.95
77 16.77
78 5.94
79 0.21
80 4.55
81 7.77
82 4.4
91 18.54
92 3.64
93 27.26
94 13.14
95 4.34
103 3.36
105 12.45
106 3.72
107 29.33
108 4.67
109 5.94
115 4.58
119 7.06
120 3.58
121 84.44
122 30.15
123 18.74
131 3.99
134 3.57
147 4.08
148 3.07
160 6.04
161 6.03
162 3.56
173 3.37
174 4.8
175 3.96
176 3.84
200 5.46
201 99.99
202 18.67
203 96.71
204 13.94
227 3.65
239 12.31
241 13.37
243 4.02
244 3.05
253 3.27
279 5.29
281 6.12
322 6.04
323 17.15
324 8.56
325 17.28
326 3.37
402 17.68
403 3.45
404 32.14
405 6.42
406 16.94
407 3.21

>  <PREDICTED SPECTRUM>  (1547) 
36 3
39 233
40 49
41 427
42 72
43 220
44 53
45 72
49 39
50 69
51 184
52 79
53 338
54 28
55 276
56 61
57 30
62 11
63 196
64 128
65 324
66 107
67 234
68 4
69 482
70 12
71 63
75 10
76 4
77 465
78 154
79 295
80 201
81 404
82 30
83 28
84 17
91 442
92 173
93 438
94 111
95 157
96 16
103 53
104 26
105 310
106 60
107 566
108 35
109 184
110 9
111 13
115 92
117 42
119 91
120 32
121 999
122 468
123 421
124 31
125 139
126 57
127 16
128 21
131 87
133 17
143 19
144 37
145 32
147 208
149 8
155 3
157 19
159 91
160 115
161 213
162 196
163 88
171 75
172 61
173 152
174 143
175 234
176 157
177 4
185 54
187 62
189 88
199 148
200 191
201 885
202 517
203 922
204 369
225 14
226 14
227 160
228 29
230 19
238 12
239 210
240 110
241 151
242 23
243 259
244 117
245 65
251 12
253 124
254 35
255 48
279 179
281 218
282 10
283 12
321 10
322 228
323 471
324 292
325 477
326 264
402 351
403 125
404 511
405 189
406 371
407 95

$$$$

     RDKit          2D

 24 26  0  0  0  0  0  0  0  0999 V2000
   -7.7964   -0.9992    0.0000 C   0  0  0  0  0  0  0  0  0  0  0  0
  -12.0911    3.6507    0.0000 C   0  0  0  0  0  0  0  0  0  0  0  0
  -10.2635    4.4750    0.0000 C   0  0  0  0  0  0  0  0  0  0  0  0
   -1.3000   -1.7500    0.0000 C   0  0  0  0  0  0  0  0  0  0  0  0
    1.3000   -1.7500    0.0000 C   0  0  0  0  0  0  0  0  0  0  0  0
   -2.6000   -1.0000    0.0000 C   0  0  0  0  0  0  0  0  0  0  0  0
    2.6000   -1.0000    0.0000 C   0  0  0  0  0  0  0  0  0  0  0  0
   -6.4970    1.2506    0.0000 C   0  0  0  0  0  0  0  0  0  0  0  0
   -5.1981    0.5004    0.0000 C   0  0  0  0  0  0  0  0  0  0  0  0
   -1.3000    1.2500    0.0000 C   0  0  0  0  0  0  0  0  0  0  0  0
  -10.4567    0.6395    0.0000 C   0  0  0  0  0  0  0  0  0  0  0  0
   -7.7962    0.5008    0.0000 C   0  0  0  0  0  0  0  0  0  0  0  0
    0.0000   -1.0000    0.0000 C   0  0  0  0  0  0  0  0  0  0  0  0
   -2.6000    0.5000    0.0000 C   0  0  0  0  0  0  0  0  0  0  0  0
   -9.0951    1.2510    0.0000 C   0  0  0  0  0  0  0  0  0  0  0  0
    0.0000    0.5000    0.0000 C   0  0  0  0  0  0  0  0  0  0  0  0
  -11.4630    1.7519    0.0000 C   0  0  0  0  0  0  0  0  0  0  0  0
    2.6000    0.5000    0.0000 C   0  0  0  0  0  0  0  0  0  0  0  0
  -10.7186    3.0457    0.0000 C   0  0  0  0  0  0  0  0  0  0  0  0
  -12.9545    1.5923    0.0000 O   0  0  0  0  0  0  0  0  0  0  0  0
    3.8989    1.2502    0.0000 O   0  0  0  0  0  0  0  0  0  0  0  0
   -3.8989    1.2502    0.0000 O   0  0  0  0  0  0  0  0  0  0  0  0
    1.3000    1.2500    0.0000 O   0  0  0  0  0  0  0  0  0  0  0  0
   -9.2468    2.7454    0.0000 O   0  0  0  0  0  0  0  0  0  0  0  0
  6  4  2  0
  7  5  2  0
  9  8  1  0
 12  1  1  0
  8 12  2  0
 13  4  1  0
 13  5  1  0
 14  6  1  0
 14 10  2  0
 15 11  2  0
 15 12  1  0
 16 10  1  0
 16 13  2  0
 17 11  1  0
 18  7  1  0
 19  2  1  0
 19  3  1  0
 19 17  1  0
 20 17  2  0
 21 18  2  0
 22  9  1  0
 22 14  1  0
 23 16  1  0
 23 18  1  0
 24 15  1  0
 24 19  1  0
M  END
>  <NAME>  (1548) 
GEIPARVARIN

>  <SYNONYMS>  (1548) 


>  <SPECTRUM TYPE>  (1548) 
MS1

>  <INSTRUMENT TYPE>  (1548) 
EI-B

>  <INSTRUMENT>  (1548) 
JEOL JMS-DX-300

>  <ION MODE>  (1548) 
P

>  <INCHIKEY>  (1548) 
OUTLLBZGJYDUQE-XYOKQWHBSA-N

>  <FORMULA>  (1548) 
C19H18O5

>  <EXACT MASS>  (1548) 
326.115423676

>  <MW>  (1548) 
326

>  <ID>  (1548) 
JP009764

>  <CONTRIBUTOR>  (1548) 
University of Tokyo Team, {Faculty of Engineering, University of Tokyo

>  <COMMENT>  (1548) 
SMILES=O=C(C=3)Oc(c1)c(C3)ccc(OCC=C(C)C(=C2)OC(C)(C)C(=O)2)1
InChI=InChI=1S/C19H18O5/c1-12(15-11-17(20)19(2,3)24-15)8-9-22-14-6-4-13-5-7-18(21)23-16(13)10-14/h4-8,10-11H,9H2,1-3H3/b12-8+
computed SMILES=O=C1OC=2C=C(OCC=C(C=3OC(C(=O)C3)(C)C)C)C=CC2C=C1
accession=JP009764
date=2016.01.19 (Created 2008.10.21, modified 2011.05.06)
author=HISAHIRO HAGIWARA, CHEMICAL RESEARCH INSTITUTE OF NON-AQUEOUSSOLUTIONS TOHOKU UNIV.
license=CC BY-NC-SA
exact mass=326.11542
ionization energy=70 eV
ion type=[M]+*
computed spectral entropy=2.3810832970150444
computed normalized entropy=0.9022476587737397
SPLASH=splash10-014i-9500000000-92fb71b83a517d490a18
submitter=submitter = University of Tokyo Team (Faculty of Engineering, University of Tokyo)
MoNA Rating=3.75

>  <NUM PEAKS>  (1548) 
14

>  <MASS SPECTRAL PEAKS>  (1548) 
41 35.59
43 15.48
51 11.57
67 12.46
69 99.99
77 26.69
78 12.99
79 14.59
109 27.22
134 15.48
137 21.53
162 20.28
165 59.25
326 17.79

>  <PREDICTED SPECTRUM>  (1548) 
39 180
40 48
41 497
42 44
43 370
44 87
51 108
52 39
53 137
54 30
55 43
57 1
63 170
64 47
65 55
67 185
68 37
69 931
70 77
75 33
77 295
78 133
79 184
80 34
81 102
82 9
83 14
89 28
91 176
93 137
95 102
97 35
105 51
107 63
109 268
110 54
111 37
123 74
133 2
134 613
137 353
138 17
151 27
162 875
164 90
165 999
166 217
326 315
327 43

$$$$

     RDKit          2D

  3  3  0  0  0  0  0  0  0  0999 V2000
   -0.3245   -0.7179    0.0000 C   0  0  0  0  0  0  0  0  0  0  0  0
   -0.3250    0.7829    0.0000 C   0  0  0  0  0  0  0  0  0  0  0  0
    0.9745    0.0321    0.0000 C   0  0  0  0  0  0  0  0  0  0  0  0
  2  1  1  0
  3  1  1  0
  3  2  1  0
M  END
>  <NAME>  (1549) 
CYCLOPROPANE

>  <SYNONYMS>  (1549) 


>  <SPECTRUM TYPE>  (1549) 
MS1

>  <INSTRUMENT TYPE>  (1549) 
EI-B

>  <INSTRUMENT>  (1549) 
JEOL JMS-DX-300

>  <ION MODE>  (1549) 
P

>  <INCHIKEY>  (1549) 
LVZWSLJZHVFIQJ-UHFFFAOYSA-N

>  <FORMULA>  (1549) 
C3H6

>  <EXACT MASS>  (1549) 
42.046950192

>  <MW>  (1549) 
42

>  <ID>  (1549) 
JP009763

>  <CONTRIBUTOR>  (1549) 
University of Tokyo Team, {Faculty of Engineering, University of Tokyo

>  <COMMENT>  (1549) 
SMILES=C(C1)C1
cas=75-19-4
InChI=InChI=1S/C3H6/c1-2-3-1/h1-3H2
computed SMILES=C1CC1
accession=JP009763
date=2016.01.19 (Created 2008.10.21, modified 2011.05.06)
author=HISAHIRO HAGIWARA, CHEMICAL RESEARCH INSTITUTE OF NON-AQUEOUSSOLUTIONS TOHOKU UNIV.
license=CC BY-NC-SA
exact mass=42.04695
ionization energy=70 eV
ion type=[M]+*
computed spectral entropy=2.1143675735646656
computed normalized entropy=0.6653026306144023
SPLASH=splash10-0006-9000000000-2e1149aecaee45f89566
submitter=submitter = University of Tokyo Team (Faculty of Engineering, University of Tokyo)
MoNA Rating=3.75

>  <NUM PEAKS>  (1549) 
24

>  <MASS SPECTRAL PEAKS>  (1549) 
12 0.26
13 0.45
15 2.31
16 0.24
17 1.92
18 9.28
19 2.51
20 1.97
21 0.61
25 0.86
26 6.69
27 25.89
32 16.1
36 1.62
37 8.53
38 12.52
39 59.86
40 30.23
41 94.37
42 99.99
43 4.43
45 0.28
55 0.42
57 0.26

>  <PREDICTED SPECTRUM>  (1549) 
14 51
15 85
25 38
26 250
27 562
28 348
29 278
37 121
38 247
39 773
40 378
41 999
42 897
43 518
44 85

$$$$

     RDKit          2D

 18 18  0  0  0  0  0  0  0  0999 V2000
   -6.4952    0.7500    0.0000 C   0  0  0  0  0  0  0  0  0  0  0  0
    6.4952   -0.7500    0.0000 C   0  0  0  0  0  0  0  0  0  0  0  0
   -5.1962    1.5000    0.0000 C   0  0  0  0  0  0  0  0  0  0  0  0
    5.1962   -1.5000    0.0000 C   0  0  0  0  0  0  0  0  0  0  0  0
   -1.2995   -0.7508    0.0000 C   0  0  0  0  0  0  0  0  0  0  0  0
    1.2995    0.7508    0.0000 C   0  0  0  0  0  0  0  0  0  0  0  0
   -1.2990    0.7500    0.0000 C   0  0  0  0  0  0  0  0  0  0  0  0
    1.2990   -0.7500    0.0000 C   0  0  0  0  0  0  0  0  0  0  0  0
    0.0005    1.5008    0.0000 C   0  0  0  0  0  0  0  0  0  0  0  0
   -0.0005   -1.5008    0.0000 C   0  0  0  0  0  0  0  0  0  0  0  0
   -2.5981    1.5000    0.0000 C   0  0  0  0  0  0  0  0  0  0  0  0
    2.5981   -1.5000    0.0000 C   0  0  0  0  0  0  0  0  0  0  0  0
    0.0002    3.0008    0.0000 O   0  0  0  0  0  0  0  0  0  0  0  0
   -0.0002   -3.0008    0.0000 O   0  0  0  0  0  0  0  0  0  0  0  0
   -2.5981    3.0000    0.0000 O   0  0  0  0  0  0  0  0  0  0  0  0
    2.5981   -3.0000    0.0000 O   0  0  0  0  0  0  0  0  0  0  0  0
   -3.8971    0.7500    0.0000 O   0  0  0  0  0  0  0  0  0  0  0  0
    3.8971   -0.7500    0.0000 O   0  0  0  0  0  0  0  0  0  0  0  0
  3  1  1  0
  4  2  1  0
  7  5  1  0
  8  6  1  0
  9  6  1  0
  9  7  1  0
 10  5  1  0
 10  8  1  0
 11  7  1  0
 12  8  1  0
 13  9  2  0
 14 10  2  0
 15 11  2  0
 16 12  2  0
 17  3  1  0
 17 11  1  0
 18  4  1  0
 18 12  1  0
M  END
>  <NAME>  (1550) 
DIETHYL 1,4-CYCLOHEXANEDIONE-2,5-DICARBOXYLATE

>  <SYNONYMS>  (1550) 


>  <SPECTRUM TYPE>  (1550) 
MS1

>  <INSTRUMENT TYPE>  (1550) 
EI-B

>  <INSTRUMENT>  (1550) 
JEOL JMS-DX-300

>  <ION MODE>  (1550) 
P

>  <INCHIKEY>  (1550) 
KSKWGMNRWCYVAT-UHFFFAOYSA-N

>  <FORMULA>  (1550) 
C12H16O6

>  <EXACT MASS>  (1550) 
256.09468823199995

>  <MW>  (1550) 
256

>  <ID>  (1550) 
JP009762

>  <CONTRIBUTOR>  (1550) 
University of Tokyo Team, {Faculty of Engineering, University of Tokyo

>  <COMMENT>  (1550) 
SMILES=CCOC(=O)C(C1)C(=O)CC(C(=O)OCC)C(=O)1
cas=787-07-5
InChI=InChI=1S/C12H16O6/c1-3-17-11(15)7-5-10(14)8(6-9(7)13)12(16)18-4-2/h7-8H,3-6H2,1-2H3
computed SMILES=O=C(OCC)C1C(=O)CC(C(=O)OCC)C(=O)C1
accession=JP009762
date=2016.01.19 (Created 2008.10.21, modified 2011.05.06)
author=HISAHIRO HAGIWARA, CHEMICAL RESEARCH INSTITUTE OF NON-AQUEOUSSOLUTIONS TOHOKU UNIV.
license=CC BY-NC-SA
exact mass=256.09469
ionization energy=70 eV
ion type=[M]+*
computed spectral entropy=3.707343317802962
computed normalized entropy=0.9130391211435966
SPLASH=splash10-052u-3930000000-c54f447eae9b34d5e6ae
submitter=submitter = University of Tokyo Team (Faculty of Engineering, University of Tokyo)
MoNA Rating=3.75

>  <NUM PEAKS>  (1550) 
58

>  <MASS SPECTRAL PEAKS>  (1550) 
31 11.03
39 6.76
41 8.74
43 6.78
44 8.07
45 10.49
52 8.2
53 13.92
54 10.82
55 31.23
68 7.74
69 10.59
72 5.62
73 13.48
80 6.05
81 12.38
82 5.87
83 8.66
96 30.73
97 6.18
98 6.24
99 19.02
101 14.29
108 13.48
109 15.94
110 8.47
111 11.82
114 4.44
115 4.99
126 8.95
127 9.88
135 10.26
136 42.74
137 70.37
138 9.38
142 99.99
143 9.16
153 9.45
154 9.82
155 14.44
162 6.55
163 8.3
164 29.21
165 36.62
181 34.02
182 21.93
183 17.29
192 27.22
199 10.8
208 8.07
209 11.65
210 53.23
211 30.52
227 36.54
228 5.33
238 12.59
256 70.79
257 11.59

>  <PREDICTED SPECTRUM>  (1550) 
14 32
15 46
16 14
17 18
18 21
19 2
25 31
26 165
27 426
28 259
29 532
30 173
31 291
32 26
34 7
36 40
37 86
38 141
39 421
40 283
41 454
42 442
43 326
44 304
45 385
46 137
47 99
49 6
50 64
51 144
52 118
53 301
54 310
55 487
56 205
57 200
58 8
59 15
60 119
61 23
62 11
63 129
64 138
65 307
66 257
67 302
68 360
69 317
70 216
71 113
72 94
73 81
77 208
78 47
79 116
80 191
81 437
82 427
83 392
84 307
85 177
86 150
87 14
90 38
91 280
92 68
93 148
94 332
95 234
96 226
97 243
98 236
99 214
100 159
101 44
102 5
107 177
108 397
109 848
110 535
111 489
112 209
113 241
114 175
115 36
117 6
118 48
119 205
120 16
122 53
123 105
124 37
125 121
126 133
127 388
128 148
130 25
131 28
132 24
136 633
137 999
138 476
139 168
140 44
141 34
142 109
153 165
154 457
155 566
156 215
157 68
164 425
165 529
166 125
167 37
181 131
182 459
183 550
184 207
185 23
209 75
210 628
211 478
212 213
228 65
229 41
256 344
257 157

$$$$

     RDKit          2D

 17 17  0  0  0  0  0  0  0  0999 V2000
   -3.9076    4.0204    0.0000 C   0  0  0  0  0  0  0  0  0  0  0  0
   -2.6151   -2.7165    0.0000 C   0  0  0  0  0  0  0  0  0  0  0  0
    1.2816   -3.4843    0.0000 C   0  0  0  0  0  0  0  0  0  0  0  0
    3.9081   -0.4716    0.0000 C   0  0  0  0  0  0  0  0  0  0  0  0
    2.6013    3.2745    0.0000 C   0  0  0  0  0  0  0  0  0  0  0  0
   -2.6089    1.7702    0.0000 C   0  0  0  0  0  0  0  0  0  0  0  0
   -1.3100    1.0200    0.0000 C   0  0  0  0  0  0  0  0  0  0  0  0
   -1.3100   -0.4700    0.0000 C   0  0  0  0  0  0  0  0  0  0  0  0
   -0.0100   -1.2300    0.0000 C   0  0  0  0  0  0  0  0  0  0  0  0
    1.3100   -0.4700    0.0000 C   0  0  0  0  0  0  0  0  0  0  0  0
    1.3100    1.0200    0.0000 C   0  0  0  0  0  0  0  0  0  0  0  0
   -2.6087    3.2702    0.0000 O   0  0  0  0  0  0  0  0  0  0  0  0
   -2.6111   -1.2165    0.0000 O   0  0  0  0  0  0  0  0  0  0  0  0
   -0.0150   -2.7300    0.0000 O   0  0  0  0  0  0  0  0  0  0  0  0
    2.6086   -1.2208    0.0000 O   0  0  0  0  0  0  0  0  0  0  0  0
    2.6064    1.7745    0.0000 O   0  0  0  0  0  0  0  0  0  0  0  0
   -0.0100    1.7700    0.0000 O   0  0  0  0  0  0  0  0  0  0  0  0
  7  6  1  0
  8  7  1  0
  9  8  1  0
 10  9  1  0
 11 10  1  0
 12  1  1  0
 12  6  1  0
 13  2  1  0
 13  8  1  0
 14  3  1  0
 14  9  1  0
 15  4  1  0
 15 10  1  0
 16  5  1  0
 16 11  1  0
 17  7  1  0
 17 11  1  0
M  END
>  <NAME>  (1551) 
METHYL TETRA-O-METHYL-ALPHA-D-TALOPYRANOSIDE

>  <SYNONYMS>  (1551) 


>  <SPECTRUM TYPE>  (1551) 
MS1

>  <INSTRUMENT TYPE>  (1551) 
EI-B

>  <INSTRUMENT>  (1551) 
JEOL JMS-DX-300

>  <ION MODE>  (1551) 
P

>  <INCHIKEY>  (1551) 
ZYGZAHUNAGVTEC-UHFFFAOYSA-N

>  <FORMULA>  (1551) 
C11H22O6

>  <EXACT MASS>  (1551) 
250.14163842399998

>  <MW>  (1551) 
250

>  <ID>  (1551) 
JP009687

>  <CONTRIBUTOR>  (1551) 
University of Tokyo Team, {Faculty of Engineering, University of Tokyo

>  <COMMENT>  (1551) 
SMILES=COCC([H])(O1)C([H])(OC)C([H])(OC)C([H])(OC)C([H])(OC)1
InChI=InChI=1S/C11H22O6/c1-12-6-7-8(13-2)9(14-3)10(15-4)11(16-5)17-7/h7-11H,6H2,1-5H3
computed SMILES=O(C)CC1OC(OC)C(OC)C(OC)C1OC
accession=JP009687
date=2016.01.19 (Created 2008.10.21, modified 2011.05.06)
author=THE INSTITUTE OF SCIENTIFIC AND INDUSTRIALRESEARCH
license=CC BY-NC-SA
exact mass=250.14164
ionization energy=70 eV
ion type=[M]+*
computed spectral entropy=2.484328447121883
computed normalized entropy=0.660514827901885
SPLASH=splash10-0f9i-9300000000-8e6d589818f681b4aa6e
submitter=submitter = University of Tokyo Team (Faculty of Engineering, University of Tokyo)
MoNA Rating=3.75

>  <NUM PEAKS>  (1551) 
43

>  <MASS SPECTRAL PEAKS>  (1551) 
27 2
29 4.4
31 2.3
33 0.14
39 1.2
41 5.3
42 1.3
43 0.6
44 1.8
45 26.1
47 1.6
55 0.22
57 2.3
58 1.3
59 5.4
69 0.11
71 14
72 2.1
73 12.9
74 0.29
75 73
76 2.7
83 1.7
85 0.26
87 1.1
88 99.99
89 10
98 0.11
99 1.2
101 64.6
102 6.4
111 0.24
117 1.1
127 2.8
131 2.8
143 0.12
145 1.5
149 28.6
150 1.8
159 0.13
176 4.6
187 3.8
219 2.1

>  <PREDICTED SPECTRUM>  (1551) 
15 32
41 102
43 113
44 23
45 651
47 0
53 42
55 124
56 23
57 150
58 94
59 345
60 19
61 73
63 4
68 23
69 115
70 9
71 527
72 64
73 402
74 189
75 723
76 76
81 0
82 17
83 64
84 30
85 224
87 50
88 929
89 371
90 8
99 195
101 999
102 308
103 0
111 262
113 6
115 34
116 32
117 144
125 36
127 222
129 30
131 161
141 13
143 62
144 0
145 164
149 43
161 183
173 49
177 1
187 54
219 79

$$$$

     RDKit          2D

 14 14  0  0  0  0  0  0  0  0999 V2000
   -4.1771    1.0859    0.0000 C   0  0  0  0  0  0  0  0  0  0  0  0
    1.4275   -3.4842    0.0000 C   0  0  0  0  0  0  0  0  0  0  0  0
    4.6351   -0.4691    0.0000 C   0  0  0  0  0  0  0  0  0  0  0  0
    2.7522    3.5317    0.0000 C   0  0  0  0  0  0  0  0  0  0  0  0
   -1.8208   -0.0085    0.0000 C   0  0  0  0  0  0  0  0  0  0  0  0
   -0.3267    0.1246    0.0000 C   0  0  0  0  0  0  0  0  0  0  0  0
    0.6631   -1.0011    0.0000 C   0  0  0  0  0  0  0  0  0  0  0  0
    2.0375   -0.4205    0.0000 C   0  0  0  0  0  0  0  0  0  0  0  0
    1.9077    1.0747    0.0000 C   0  0  0  0  0  0  0  0  0  0  0  0
   -2.6830    1.2189    0.0000 O   0  0  0  0  0  0  0  0  0  0  0  0
    0.3285   -2.4633    0.0000 O   0  0  0  0  0  0  0  0  0  0  0  0
    3.3223   -1.1947    0.0000 O   0  0  0  0  0  0  0  0  0  0  0  0
    3.0392    2.0594    0.0000 O   0  0  0  0  0  0  0  0  0  0  0  0
    0.4493    1.4086    0.0000 O   0  0  0  0  0  0  0  0  0  0  0  0
  6  5  1  0
  7  6  1  0
  8  7  1  0
  9  8  1  0
 10  1  1  0
 10  5  1  0
 11  2  1  0
 11  7  1  0
 12  3  1  0
 12  8  1  0
 13  4  1  0
 13  9  1  0
 14  6  1  0
 14  9  1  0
M  END
>  <NAME>  (1552) 
METHYL TRI-O-METHYL-BETA-D-RIBOFRANOSIDE

>  <SYNONYMS>  (1552) 


>  <SPECTRUM TYPE>  (1552) 
MS1

>  <INSTRUMENT TYPE>  (1552) 
EI-B

>  <INSTRUMENT>  (1552) 
JEOL JMS-DX-300

>  <ION MODE>  (1552) 
P

>  <INCHIKEY>  (1552) 
GGXQVNLZJSOZBN-UHFFFAOYSA-N

>  <FORMULA>  (1552) 
C9H18O5

>  <EXACT MASS>  (1552) 
206.11542367599998

>  <MW>  (1552) 
206

>  <ID>  (1552) 
JP009680

>  <CONTRIBUTOR>  (1552) 
University of Tokyo Team, {Faculty of Engineering, University of Tokyo

>  <COMMENT>  (1552) 
SMILES=COCC([H])(O1)C([H])(OC)C([H])(OC)C([H])(OC)1
InChI=InChI=1S/C9H18O5/c1-10-5-6-7(11-2)8(12-3)9(13-4)14-6/h6-9H,5H2,1-4H3
computed SMILES=O(C)CC1OC(OC)C(OC)C1OC
accession=JP009680
date=2016.01.19 (Created 2008.10.21, modified 2011.05.06)
author=THE INSTITUTE OF SCIENTIFIC AND INDUSTRIALRESEARCH
license=CC BY-NC-SA
exact mass=206.11542
ionization energy=70 eV
ion type=[M]+*
computed spectral entropy=2.0709647391548245
computed normalized entropy=0.5922952268080425
SPLASH=splash10-0udi-7900000000-24f4a4428017a4faa272
submitter=submitter = University of Tokyo Team (Faculty of Engineering, University of Tokyo)
MoNA Rating=3.75

>  <NUM PEAKS>  (1552) 
33

>  <MASS SPECTRAL PEAKS>  (1552) 
27 1.6
29 4.1
31 1.7
33 0.14
39 1
41 5.3
42 1.1
43 0.42
44 1.1
45 27.7
47 1
55 0.23
57 1.7
59 3.7
69 1.3
71 0.44
73 5
74 1.6
75 27.1
83 0.22
85 2.6
87 1.1
88 5.6
89 0.18
99 1.8
101 99.99
102 6
114 0.15
115 3.7
129 1.6
143 1.6
161 1.28
175 1.2

>  <PREDICTED SPECTRUM>  (1552) 
41 103
43 31
44 42
45 727
46 21
53 10
55 114
56 20
57 229
58 136
59 367
69 80
70 3
71 522
72 126
73 488
74 366
75 722
76 60
83 102
84 15
85 220
87 199
88 718
89 383
90 25
99 256
100 1
101 999
102 379
105 31
111 248
114 49
115 97
116 27
117 45
127 54
129 70
131 134
132 40
133 62
143 102
161 410
162 68
175 40
176 7

$$$$

     RDKit          2D

 14 14  0  0  0  0  0  0  0  0999 V2000
   -4.1771    1.0859    0.0000 C   0  0  0  0  0  0  0  0  0  0  0  0
    1.4275   -3.4842    0.0000 C   0  0  0  0  0  0  0  0  0  0  0  0
    4.6351   -0.4691    0.0000 C   0  0  0  0  0  0  0  0  0  0  0  0
    2.7522    3.5317    0.0000 C   0  0  0  0  0  0  0  0  0  0  0  0
   -1.8208   -0.0085    0.0000 C   0  0  0  0  0  0  0  0  0  0  0  0
   -0.3267    0.1246    0.0000 C   0  0  0  0  0  0  0  0  0  0  0  0
    0.6631   -1.0011    0.0000 C   0  0  0  0  0  0  0  0  0  0  0  0
    2.0375   -0.4205    0.0000 C   0  0  0  0  0  0  0  0  0  0  0  0
    1.9077    1.0747    0.0000 C   0  0  0  0  0  0  0  0  0  0  0  0
   -2.6830    1.2189    0.0000 O   0  0  0  0  0  0  0  0  0  0  0  0
    0.3285   -2.4633    0.0000 O   0  0  0  0  0  0  0  0  0  0  0  0
    3.3223   -1.1947    0.0000 O   0  0  0  0  0  0  0  0  0  0  0  0
    3.0392    2.0594    0.0000 O   0  0  0  0  0  0  0  0  0  0  0  0
    0.4493    1.4086    0.0000 O   0  0  0  0  0  0  0  0  0  0  0  0
  6  5  1  0
  7  6  1  0
  8  7  1  0
  9  8  1  0
 10  1  1  0
 10  5  1  0
 11  2  1  0
 11  7  1  0
 12  3  1  0
 12  8  1  0
 13  4  1  0
 13  9  1  0
 14  6  1  0
 14  9  1  0
M  END
>  <NAME>  (1553) 
METHYL TRI-O-METHYL-ALPHA-D-RIBOFRANOSIDE

>  <SYNONYMS>  (1553) 


>  <SPECTRUM TYPE>  (1553) 
MS1

>  <INSTRUMENT TYPE>  (1553) 
EI-B

>  <INSTRUMENT>  (1553) 
JEOL JMS-DX-300

>  <ION MODE>  (1553) 
P

>  <INCHIKEY>  (1553) 
GGXQVNLZJSOZBN-UHFFFAOYSA-N

>  <FORMULA>  (1553) 
C9H18O5

>  <EXACT MASS>  (1553) 
206.11542367599998

>  <MW>  (1553) 
206

>  <ID>  (1553) 
JP009679

>  <CONTRIBUTOR>  (1553) 
University of Tokyo Team, {Faculty of Engineering, University of Tokyo

>  <COMMENT>  (1553) 
computed SMILES=O(C)CC1OC(OC)C(OC)C1OC
SMILES=COCC([H])(O1)C([H])(OC)C([H])(OC)C([H])(OC)1
InChI=InChI=1S/C9H18O5/c1-10-5-6-7(11-2)8(12-3)9(13-4)14-6/h6-9H,5H2,1-4H3
accession=JP009679
date=2016.01.19 (Created 2008.10.21, modified 2011.05.06)
author=THE INSTITUTE OF SCIENTIFIC AND INDUSTRIALRESEARCH
license=CC BY-NC-SA
exact mass=206.11542
ionization energy=70 eV
ion type=[M]+*
computed spectral entropy=2.3567335482466074
computed normalized entropy=0.6576590186131291
SPLASH=splash10-0udi-9800000000-b4b64f97536c8b18ed04
submitter=submitter = University of Tokyo Team (Faculty of Engineering, University of Tokyo)
MoNA Rating=3.75

>  <NUM PEAKS>  (1553) 
36

>  <MASS SPECTRAL PEAKS>  (1553) 
27 1.8
29 4
31 2
33 0.14
39 1.2
41 5.8
42 1.2
43 0.98
44 1
45 25.1
47 2.8
49 0.2
55 2.5
57 1.3
58 1.9
59 0.63
69 1.5
71 4.3
73 3.8
74 0.14
75 27.7
83 2.2
84 14.4
85 0.27
86 9.2
87 1.2
88 5.6
89 0.15
99 1.9
101 99.99
102 5.8
114 0.16
115 3.5
143 1.4
161 9
175 1.5

>  <PREDICTED SPECTRUM>  (1553) 
41 103
43 31
44 42
45 727
46 21
53 10
55 114
56 20
57 229
58 136
59 367
69 80
70 3
71 522
72 126
73 488
74 366
75 722
76 60
83 102
84 15
85 220
87 199
88 718
89 383
90 25
99 256
100 1
101 999
102 379
105 31
111 248
114 49
115 97
116 27
117 45
127 54
129 70
131 134
132 40
133 62
143 102
161 410
162 68
175 40
176 7

$$$$

     RDKit          2D

 16 16  0  0  0  0  0  0  0  0999 V2000
   -6.4962   -0.7508    0.0000 C   0  0  0  0  0  0  0  0  0  0  0  0
    0.0000    3.0000    0.0000 C   0  0  0  0  0  0  0  0  0  0  0  0
    2.5989   -1.5002    0.0000 C   0  0  0  0  0  0  0  0  0  0  0  0
   -5.1970   -1.5006    0.0000 C   0  0  0  0  0  0  0  0  0  0  0  0
   -1.3000    0.7500    0.0000 C   0  0  0  0  0  0  0  0  0  0  0  0
    0.0000   -1.5000    0.0000 C   0  0  0  0  0  0  0  0  0  0  0  0
    0.0000    1.5000    0.0000 C   0  0  0  0  0  0  0  0  0  0  0  0
    1.3000   -0.7500    0.0000 C   0  0  0  0  0  0  0  0  0  0  0  0
   -1.3000   -0.7500    0.0000 C   0  0  0  0  0  0  0  0  0  0  0  0
    1.3000    0.7500    0.0000 C   0  0  0  0  0  0  0  0  0  0  0  0
    2.5989    1.5002    0.0000 C   0  0  0  0  0  0  0  0  0  0  0  0
   -2.5989   -1.5002    0.0000 C   0  0  0  0  0  0  0  0  0  0  0  0
    3.8981    0.7504    0.0000 N   0  0  0  0  0  0  0  0  0  0  0  0
    2.5987    3.0002    0.0000 O   0  0  0  0  0  0  0  0  0  0  0  0
   -2.5987   -3.0002    0.0000 O   0  0  0  0  0  0  0  0  0  0  0  0
   -3.8981   -0.7504    0.0000 O   0  0  0  0  0  0  0  0  0  0  0  0
  4  1  1  0
  7  2  1  0
  7  5  2  0
  8  3  1  0
  8  6  1  0
  9  5  1  0
  9  6  2  0
 10  7  1  0
 10  8  2  0
 11 10  1  0
 12  9  1  0
 13 11  1  0
 14 11  2  0
 15 12  2  0
 16  4  1  0
 16 12  1  0
M  END
>  <NAME>  (1554) 
ETHYL 4-CARBAMOYL-3,5-DIMETHYLBENZOATE

>  <SYNONYMS>  (1554) 


>  <SPECTRUM TYPE>  (1554) 
MS1

>  <INSTRUMENT TYPE>  (1554) 
EI-B

>  <INSTRUMENT>  (1554) 
JEOL JMS-DX-300

>  <ION MODE>  (1554) 
P

>  <INCHIKEY>  (1554) 
LURKQVNXGQMQEE-UHFFFAOYSA-N

>  <FORMULA>  (1554) 
C12H15NO3

>  <EXACT MASS>  (1554) 
221.10519334

>  <MW>  (1554) 
221

>  <ID>  (1554) 
JP009677

>  <CONTRIBUTOR>  (1554) 
University of Tokyo Team, {Faculty of Engineering, University of Tokyo

>  <COMMENT>  (1554) 
SMILES=CCOC(=O)c(c1)cc(C)c(C(N)=O)c(C)1
InChI=InChI=1S/C12H15NO3/c1-4-16-12(15)9-5-7(2)10(11(13)14)8(3)6-9/h5-6H,4H2,1-3H3,(H2,13,14)
computed SMILES=O=C(OCC)C=1C=C(C(C(=O)N)=C(C1)C)C
accession=JP009677
date=2016.01.19 (Created 2008.10.21, modified 2011.05.06)
author=THE INSTITUTE OF SCIENTIFIC AND INDUSTRIALRESEARCH
license=CC BY-NC-SA
exact mass=221.10519
ionization energy=70 eV
ion type=[M]+*
computed spectral entropy=3.3820890461589044
computed normalized entropy=0.7740312186697348
SPLASH=splash10-00b9-9870000000-531267392f200aedef02
submitter=submitter = University of Tokyo Team (Faculty of Engineering, University of Tokyo)
MoNA Rating=3.75

>  <NUM PEAKS>  (1554) 
79

>  <MASS SPECTRAL PEAKS>  (1554) 
26 2.3
27 15.8
29 18.8
30 0.25
31 1
39 10.6
40 1
41 0.4
42 3.8
43 13.3
44 23
45 0.4
50 2.9
51 10.9
52 4.4
53 0.59
54 1.1
55 2.7
57 1.9
62 0.63
63 8.5
64 2.7
65 8
66 0.21
67 1.8
69 1.5
74 1.6
75 0.23
76 3
77 34.9
78 13
79 1.35
80 3
87 1.2
88 1.1
89 0.34
90 1.2
91 12
92 2.3
93 0.58
101 1
102 5.2
103 27.6
104 1.59
105 11.2
106 6.8
107 1.3
116 0.1
117 2.4
118 3
119 2.5
120 0.69
121 5.8
130 3.9
131 9
132 1.09
133 7.4
146 1
147 4.3
148 0.94
149 15.1
150 2.4
158 2.1
160 0.12
162 1
175 1.6
176 76.6
177 2.39
178 2.9
192 2.8
193 4.3
204 7.95
205 47.6
206 9.8
207 1.1
220 0.13
221 99.99
222 15.1
223 1.7

>  <PREDICTED SPECTRUM>  (1554) 
17 2
26 11
27 78
28 17
29 98
33 19
34 9
36 6
37 0
38 51
39 209
40 110
41 92
42 76
43 144
44 230
45 99
46 18
50 120
51 263
52 206
53 161
54 17
55 22
57 18
61 12
62 73
63 186
64 133
65 178
66 127
67 76
73 6
74 68
75 83
76 90
77 397
78 253
79 190
80 66
86 4
88 33
89 175
90 134
91 233
92 81
93 77
94 15
101 44
102 155
103 292
104 219
105 223
106 136
107 56
116 19
117 99
118 153
119 159
120 80
121 77
129 13
130 170
131 183
132 229
133 219
134 113
135 50
136 10
146 23
147 217
148 199
149 239
150 68
158 29
159 65
160 92
161 89
162 60
175 177
176 999
177 324
178 103
192 115
193 302
194 111
204 355
205 505
206 307
207 151
220 32
221 935
222 348
223 117

$$$$

     RDKit          2D

 17 18  0  0  0  0  0  0  0  0999 V2000
   -2.5989   -1.5002    0.0000 C   0  0  0  0  0  0  0  0  0  0  0  0
    9.0945   -0.7488    0.0000 C   0  0  0  0  0  0  0  0  0  0  0  0
    9.0947    0.7521    0.0000 C   0  0  0  0  0  0  0  0  0  0  0  0
    7.7951   -1.4998    0.0000 C   0  0  0  0  0  0  0  0  0  0  0  0
    7.7956    1.5019    0.0000 C   0  0  0  0  0  0  0  0  0  0  0  0
    6.4959   -0.7500    0.0000 C   0  0  0  0  0  0  0  0  0  0  0  0
   -1.3000    0.7500    0.0000 C   0  0  0  0  0  0  0  0  0  0  0  0
    0.0000   -1.5000    0.0000 C   0  0  0  0  0  0  0  0  0  0  0  0
    0.0000    1.5000    0.0000 C   0  0  0  0  0  0  0  0  0  0  0  0
    1.3000   -0.7500    0.0000 C   0  0  0  0  0  0  0  0  0  0  0  0
    2.5989    1.5002    0.0000 C   0  0  0  0  0  0  0  0  0  0  0  0
   -1.3000   -0.7500    0.0000 C   0  0  0  0  0  0  0  0  0  0  0  0
    1.3000    0.7500    0.0000 C   0  0  0  0  0  0  0  0  0  0  0  0
    6.4962    0.7508    0.0000 C   0  0  0  0  0  0  0  0  0  0  0  0
    5.1970    1.5006    0.0000 C   0  0  0  0  0  0  0  0  0  0  0  0
    5.1968    3.0006    0.0000 O   0  0  0  0  0  0  0  0  0  0  0  0
    3.8981    0.7504    0.0000 O   0  0  0  0  0  0  0  0  0  0  0  0
  3  2  2  0
  4  2  1  0
  5  3  1  0
  6  4  2  0
  9  7  2  0
 10  8  1  0
 12  1  1  0
 12  7  1  0
 12  8  2  0
 13  9  1  0
 13 10  2  0
 13 11  1  0
 14  5  2  0
 14  6  1  0
 15 14  1  0
 16 15  2  0
 17 11  1  0
 17 15  1  0
M  END
>  <NAME>  (1555) 
4-METHYLBENZYL BENZOATE

>  <SYNONYMS>  (1555) 


>  <SPECTRUM TYPE>  (1555) 
MS1

>  <INSTRUMENT TYPE>  (1555) 
EI-B

>  <INSTRUMENT>  (1555) 
JEOL JMS-DX-300

>  <ION MODE>  (1555) 
P

>  <INCHIKEY>  (1555) 
VHSYVZKRJCCJMK-UHFFFAOYSA-N

>  <FORMULA>  (1555) 
C15H14O2

>  <EXACT MASS>  (1555) 
226.099379688

>  <MW>  (1555) 
226

>  <ID>  (1555) 
JP009676

>  <CONTRIBUTOR>  (1555) 
University of Tokyo Team, {Faculty of Engineering, University of Tokyo

>  <COMMENT>  (1555) 
SMILES=Cc(c2)ccc(c2)COC(=O)c(c1)cccc1
InChI=InChI=1S/C15H14O2/c1-12-7-9-13(10-8-12)11-17-15(16)14-5-3-2-4-6-14/h2-10H,11H2,1H3
computed SMILES=O=C(OCC1=CC=C(C=C1)C)C=2C=CC=CC2
accession=JP009676
date=2016.01.19 (Created 2008.10.21, modified 2011.05.06)
author=THE INSTITUTE OF SCIENTIFIC AND INDUSTRIALRESEARCH
license=CC BY-NC-SA
exact mass=226.09938
ionization energy=70 eV
ion type=[M]+*
computed spectral entropy=2.8863966904247866
computed normalized entropy=0.7538958057214873
SPLASH=splash10-0a4i-8920000000-7ccc4bb39ba5d2fcd436
submitter=submitter = University of Tokyo Team (Faculty of Engineering, University of Tokyo)
MoNA Rating=3.75

>  <NUM PEAKS>  (1555) 
46

>  <MASS SPECTRAL PEAKS>  (1555) 
26 1.3
27 6.7
29 4.3
38 0.18
39 9.7
40 1.1
41 2.7
43 0.17
44 4.9
45 5
50 8.8
51 2.78
52 3.8
53 2.8
57 1.7
62 0.16
63 4.8
64 1.4
65 10.7
66 0.14
74 2.1
75 2.1
76 3.4
77 5.94
78 13.1
79 9.8
89 2.8
90 0.16
91 17.8
92 2.4
93 5
103 0.65
104 8.9
105 99.99
106 8.5
107 0.32
108 1.6
119 8.5
120 5.2
121 0.59
122 9
136 1.3
181 1.7
208 0.27
226 33.7
227 4.4

>  <PREDICTED SPECTRUM>  (1555) 
14 14
15 34
17 5
18 16
26 32
27 145
28 72
29 127
36 6
37 27
38 78
39 210
40 96
41 136
43 34
44 40
45 55
49 23
50 141
51 255
52 119
53 80
62 64
63 125
64 71
65 166
66 49
74 75
75 89
76 88
77 507
78 240
79 239
80 41
89 165
90 96
91 297
92 91
93 101
94 44
102 38
103 242
104 311
105 999
106 296
107 83
108 32
119 194
120 169
121 327
122 191
123 29
181 167
182 35
208 77
211 23
226 473
227 173
228 30

$$$$

     RDKit          2D

 18 19  0  0  0  0  0  0  0  0999 V2000
   -3.8981   -0.7504    0.0000 C   0  0  0  0  0  0  0  0  0  0  0  0
    9.0945   -0.7488    0.0000 C   0  0  0  0  0  0  0  0  0  0  0  0
    9.0947    0.7521    0.0000 C   0  0  0  0  0  0  0  0  0  0  0  0
    7.7951   -1.4998    0.0000 C   0  0  0  0  0  0  0  0  0  0  0  0
    7.7956    1.5019    0.0000 C   0  0  0  0  0  0  0  0  0  0  0  0
    6.4959   -0.7500    0.0000 C   0  0  0  0  0  0  0  0  0  0  0  0
    0.0000    1.5000    0.0000 C   0  0  0  0  0  0  0  0  0  0  0  0
    1.3000   -0.7500    0.0000 C   0  0  0  0  0  0  0  0  0  0  0  0
   -1.3000    0.7500    0.0000 C   0  0  0  0  0  0  0  0  0  0  0  0
   -0.0000   -1.5000    0.0000 C   0  0  0  0  0  0  0  0  0  0  0  0
    2.5989    1.5002    0.0000 C   0  0  0  0  0  0  0  0  0  0  0  0
    1.3000    0.7500    0.0000 C   0  0  0  0  0  0  0  0  0  0  0  0
    6.4962    0.7508    0.0000 C   0  0  0  0  0  0  0  0  0  0  0  0
   -1.3000   -0.7500    0.0000 C   0  0  0  0  0  0  0  0  0  0  0  0
    5.1970    1.5006    0.0000 C   0  0  0  0  0  0  0  0  0  0  0  0
    5.1968    3.0006    0.0000 O   0  0  0  0  0  0  0  0  0  0  0  0
    3.8981    0.7504    0.0000 O   0  0  0  0  0  0  0  0  0  0  0  0
   -2.5989   -1.5002    0.0000 S   0  0  0  0  0  0  0  0  0  0  0  0
  3  2  2  0
  4  2  1  0
  5  3  1  0
  6  4  2  0
  9  7  2  0
 10  8  1  0
 12  7  1  0
 12  8  2  0
 12 11  1  0
 13  5  2  0
 13  6  1  0
 14  9  1  0
 14 10  2  0
 15 13  1  0
 16 15  2  0
 17 11  1  0
 17 15  1  0
 18  1  1  0
 18 14  1  0
M  END
>  <NAME>  (1556) 
(4-METHYLTHIO)BENZYL BENZOATE

>  <SYNONYMS>  (1556) 


>  <SPECTRUM TYPE>  (1556) 
MS1

>  <INSTRUMENT TYPE>  (1556) 
EI-B

>  <INSTRUMENT>  (1556) 
JEOL JMS-DX-300

>  <ION MODE>  (1556) 
P

>  <INCHIKEY>  (1556) 
PXRPPQZOKMHYRY-UHFFFAOYSA-N

>  <FORMULA>  (1556) 
C15H14O2S

>  <EXACT MASS>  (1556) 
258.071450688

>  <MW>  (1556) 
258

>  <ID>  (1556) 
JP009675

>  <CONTRIBUTOR>  (1556) 
University of Tokyo Team, {Faculty of Engineering, University of Tokyo

>  <COMMENT>  (1556) 
SMILES=CSc(c1)ccc(COC(=O)c(c2)cccc2)c1
InChI=InChI=1S/C15H14O2S/c1-18-14-9-7-12(8-10-14)11-17-15(16)13-5-3-2-4-6-13/h2-10H,11H2,1H3
computed SMILES=O=C(OCC1=CC=C(SC)C=C1)C=2C=CC=CC2
accession=JP009675
date=2016.01.19 (Created 2008.10.21, modified 2011.05.06)
author=THE INSTITUTE OF SCIENTIFIC AND INDUSTRIALRESEARCH
license=CC BY-NC-SA
exact mass=258.07145
ionization energy=70 eV
ion type=[M]+*
computed spectral entropy=2.6705746259812364
computed normalized entropy=0.705719026880808
SPLASH=splash10-0a4r-2930000000-e295d1d16a8148b4aadd
submitter=submitter = University of Tokyo Team (Faculty of Engineering, University of Tokyo)
MoNA Rating=3.75

>  <NUM PEAKS>  (1556) 
44

>  <MASS SPECTRAL PEAKS>  (1556) 
27 1.4
39 4
44 3
45 0.81
47 1.2
50 5.8
51 19.5
52 0.2
63 3.6
64 1
65 2.7
69 0.21
74 1.1
75 1.3
76 2.7
77 4.73
78 13.9
79 3.8
89 7.5
90 0.19
91 9.1
92 1
105 80.7
106 0.8
108 2.1
109 5.8
110 2.8
121 1.55
122 24.8
123 4.6
124 2
125 0.35
135 19.3
136 13.7
137 99.99
138 1.15
139 5
151 4.8
152 5.7
153 0.48
154 1.5
258 94.8
259 16.8
260 6.1

>  <PREDICTED SPECTRUM>  (1556) 
26 19
27 75
28 7
29 34
34 5
37 3
38 75
39 200
40 65
41 49
43 84
44 74
45 175
46 10
47 33
49 20
50 183
51 322
52 127
53 75
55 36
57 55
58 7
59 46
61 33
62 69
63 168
64 112
65 166
66 82
69 29
70 60
71 68
74 69
75 104
76 124
77 556
78 287
79 232
80 30
81 27
82 89
83 19
84 6
89 298
90 188
91 333
92 69
93 83
94 73
95 45
96 35
102 16
103 65
104 35
105 924
106 296
107 144
108 193
109 252
110 170
111 22
119 83
120 48
121 303
122 370
123 358
124 49
125 72
135 186
136 353
137 999
138 218
139 123
151 142
152 236
153 160
258 858
259 357
260 211
261 52

$$$$

     RDKit          2D

 17 18  0  0  0  0  0  0  0  0999 V2000
   -8.1197    3.1342    0.0000 C   0  0  0  0  0  0  0  0  0  0  0  0
   -8.1202    1.6333    0.0000 C   0  0  0  0  0  0  0  0  0  0  0  0
   -6.8202    3.8850    0.0000 C   0  0  0  0  0  0  0  0  0  0  0  0
   -6.8212    0.8833    0.0000 C   0  0  0  0  0  0  0  0  0  0  0  0
   -5.5212    3.1350    0.0000 C   0  0  0  0  0  0  0  0  0  0  0  0
   -0.3252    3.1342    0.0000 C   0  0  0  0  0  0  0  0  0  0  0  0
    0.9744    0.8840    0.0000 C   0  0  0  0  0  0  0  0  0  0  0  0
    0.9749    3.8840    0.0000 C   0  0  0  0  0  0  0  0  0  0  0  0
    2.2745    1.6337    0.0000 C   0  0  0  0  0  0  0  0  0  0  0  0
   -1.6245    0.8842    0.0000 C   0  0  0  0  0  0  0  0  0  0  0  0
   -0.3255    1.6342    0.0000 C   0  0  0  0  0  0  0  0  0  0  0  0
   -5.5216    1.6342    0.0000 C   0  0  0  0  0  0  0  0  0  0  0  0
    2.2748    3.1337    0.0000 C   0  0  0  0  0  0  0  0  0  0  0  0
   -4.2226    0.8842    0.0000 C   0  0  0  0  0  0  0  0  0  0  0  0
    3.5738    3.8837    0.0000 F   0  0  0  0  0  0  0  0  0  0  0  0
   -4.2226   -0.6158    0.0000 O   0  0  0  0  0  0  0  0  0  0  0  0
   -2.9236    1.6342    0.0000 O   0  0  0  0  0  0  0  0  0  0  0  0
  2  1  2  0
  3  1  1  0
  4  2  1  0
  5  3  2  0
  8  6  2  0
  9  7  1  0
 11  6  1  0
 11  7  2  0
 11 10  1  0
 12  4  2  0
 12  5  1  0
 13  8  1  0
 13  9  2  0
 14 12  1  0
 15 13  1  0
 16 14  2  0
 17 10  1  0
 17 14  1  0
M  END
>  <NAME>  (1557) 
4-FLUOROBENZYL BENZOATE

>  <SYNONYMS>  (1557) 


>  <SPECTRUM TYPE>  (1557) 
MS1

>  <INSTRUMENT TYPE>  (1557) 
EI-B

>  <INSTRUMENT>  (1557) 
JEOL JMS-DX-300

>  <ION MODE>  (1557) 
P

>  <INCHIKEY>  (1557) 
DVTATUAZGVHURR-UHFFFAOYSA-N

>  <FORMULA>  (1557) 
C14H11FO2

>  <EXACT MASS>  (1557) 
230.074307812

>  <MW>  (1557) 
230

>  <ID>  (1557) 
JP009674

>  <CONTRIBUTOR>  (1557) 
University of Tokyo Team, {Faculty of Engineering, University of Tokyo

>  <COMMENT>  (1557) 
SMILES=Fc(c2)ccc(c2)COC(=O)c(c1)cccc1
InChI=InChI=1S/C14H11FO2/c15-13-8-6-11(7-9-13)10-17-14(16)12-4-2-1-3-5-12/h1-9H,10H2
computed SMILES=O=C(OCC1=CC=C(F)C=C1)C=2C=CC=CC2
accession=JP009674
date=2016.01.19 (Created 2008.10.21, modified 2011.05.06)
author=THE INSTITUTE OF SCIENTIFIC AND INDUSTRIALRESEARCH
license=CC BY-NC-SA
exact mass=230.07431
ionization energy=70 eV
ion type=[M]+*
computed spectral entropy=2.788420583793068
computed normalized entropy=0.7242373208119554
SPLASH=splash10-0a4i-6910000000-35886b3ee4977c05de2e
submitter=submitter = University of Tokyo Team (Faculty of Engineering, University of Tokyo)
MoNA Rating=3.75

>  <NUM PEAKS>  (1557) 
47

>  <MASS SPECTRAL PEAKS>  (1557) 
27 3.5
29 2.9
31 1
38 0.2
39 7
44 3.4
45 2.7
50 1.35
51 33.8
52 3
57 5.9
59 0.18
62 1.8
63 4.8
65 1.4
69 0.18
70 1.8
74 4.3
75 8.4
76 0.41
77 53
78 5.9
81 1.9
83 1.69
89 2.7
94 1.5
95 10.8
96 0.29
97 9.1
105 99.99
106 9
107 0.7
108 11
109 82
110 6.5
122 0.9
123 8.8
124 1.8
125 9.9
126 0.38
140 2.8
183 1
185 6.2
186 0.1
212 5.1
230 34.1
231 5.2

>  <PREDICTED SPECTRUM>  (1557) 
27 42
29 29
37 14
38 71
39 104
40 23
43 43
44 45
49 31
50 207
51 337
52 86
53 33
54 2
55 43
57 111
62 109
63 142
64 33
65 76
66 14
68 67
69 127
70 102
74 140
75 180
76 102
77 616
78 175
79 63
80 4
81 128
82 31
83 369
88 4
89 176
90 13
94 89
95 167
96 132
97 171
105 999
106 273
107 220
108 349
109 881
110 279
122 70
123 133
124 173
125 299
126 70
158 15
165 52
183 127
184 119
185 386
186 244
187 45
212 311
213 86
230 669
231 252
232 75

$$$$

     RDKit          2D

 17 18  0  0  0  0  0  0  0  0999 V2000
   -4.2260   -1.6967    0.0000 C   0  0  0  0  0  0  0  0  0  0  0  0
    7.4668   -3.9449    0.0000 C   0  0  0  0  0  0  0  0  0  0  0  0
    7.4675   -2.4441    0.0000 C   0  0  0  0  0  0  0  0  0  0  0  0
    6.1672   -4.6955    0.0000 C   0  0  0  0  0  0  0  0  0  0  0  0
   -1.6222   -4.6867    0.0000 C   0  0  0  0  0  0  0  0  0  0  0  0
   -2.9212   -3.9367    0.0000 C   0  0  0  0  0  0  0  0  0  0  0  0
   -0.3277   -3.9445    0.0000 C   0  0  0  0  0  0  0  0  0  0  0  0
    6.1686   -1.6939    0.0000 C   0  0  0  0  0  0  0  0  0  0  0  0
    4.8683   -3.9453    0.0000 C   0  0  0  0  0  0  0  0  0  0  0  0
   -1.6262   -1.6937    0.0000 C   0  0  0  0  0  0  0  0  0  0  0  0
    0.9720   -1.6939    0.0000 C   0  0  0  0  0  0  0  0  0  0  0  0
   -2.9257   -2.4445    0.0000 C   0  0  0  0  0  0  0  0  0  0  0  0
   -0.3272   -2.4437    0.0000 C   0  0  0  0  0  0  0  0  0  0  0  0
    4.8690   -2.4445    0.0000 C   0  0  0  0  0  0  0  0  0  0  0  0
    3.5701   -1.6943    0.0000 C   0  0  0  0  0  0  0  0  0  0  0  0
    3.5703   -0.1943    0.0000 O   0  0  0  0  0  0  0  0  0  0  0  0
    2.2709   -2.4441    0.0000 O   0  0  0  0  0  0  0  0  0  0  0  0
  3  2  2  0
  4  2  1  0
  6  5  2  0
  7  5  1  0
  8  3  1  0
  9  4  2  0
 12  1  1  0
 12  6  1  0
 12 10  2  0
 13  7  2  0
 13 10  1  0
 13 11  1  0
 14  8  2  0
 14  9  1  0
 15 14  1  0
 16 15  2  0
 17 11  1  0
 17 15  1  0
M  END
>  <NAME>  (1558) 
3-METHYLBENZYL BENZOATE

>  <SYNONYMS>  (1558) 


>  <SPECTRUM TYPE>  (1558) 
MS1

>  <INSTRUMENT TYPE>  (1558) 
EI-B

>  <INSTRUMENT>  (1558) 
JEOL JMS-DX-300

>  <ION MODE>  (1558) 
P

>  <INCHIKEY>  (1558) 
PNDUDVIQWFVXIO-UHFFFAOYSA-N

>  <FORMULA>  (1558) 
C15H14O2

>  <EXACT MASS>  (1558) 
226.099379688

>  <MW>  (1558) 
226

>  <ID>  (1558) 
JP009673

>  <CONTRIBUTOR>  (1558) 
University of Tokyo Team, {Faculty of Engineering, University of Tokyo

>  <COMMENT>  (1558) 
SMILES=Cc(c2)cc(cc2)COC(=O)c(c1)cccc1
InChI=InChI=1S/C15H14O2/c1-12-6-5-7-13(10-12)11-17-15(16)14-8-3-2-4-9-14/h2-10H,11H2,1H3
computed SMILES=O=C(OCC=1C=CC=C(C1)C)C=2C=CC=CC2
accession=JP009673
date=2016.01.19 (Created 2008.10.21, modified 2011.05.06)
author=THE INSTITUTE OF SCIENTIFIC AND INDUSTRIALRESEARCH
license=CC BY-NC-SA
exact mass=226.09938
ionization energy=70 eV
ion type=[M]+*
computed spectral entropy=2.864554101709343
computed normalized entropy=0.7525106597727764
SPLASH=splash10-0a4i-9800000000-3c780e7524a66a184e36
submitter=submitter = University of Tokyo Team (Faculty of Engineering, University of Tokyo)
MoNA Rating=3.75

>  <NUM PEAKS>  (1558) 
45

>  <MASS SPECTRAL PEAKS>  (1558) 
26 1.6
27 6.2
29 6.8
31 0.1
38 2.8
39 12.1
40 1.5
41 0.23
43 1.3
44 4.8
45 7.8
50 0.92
51 24.1
52 3.7
53 2
62 0.17
63 4.8
64 1.4
65 9.8
66 0.14
74 2
75 1.8
76 2.9
77 4.58
78 9.1
79 7
89 2.9
90 0.18
91 21
92 3.3
93 5.7
103 0.56
104 5.5
105 99.99
106 8.7
107 0.37
119 12
120 8.9
121 4.8
122 1.5
123 1.2
136 3.8
208 1.1
226 2.19
227 3.7

>  <PREDICTED SPECTRUM>  (1558) 
14 12
15 37
26 36
27 133
28 35
29 59
37 33
38 88
39 234
40 108
41 120
43 31
45 18
49 7
50 176
51 287
52 132
53 102
61 9
62 73
63 148
64 64
65 185
66 49
69 0
74 92
75 120
76 129
77 527
78 237
79 220
80 35
89 167
90 108
91 286
92 113
93 92
94 36
102 18
103 192
104 281
105 999
106 285
107 106
108 10
119 168
120 143
121 282
122 201
123 33
181 152
182 4
208 108
226 414
227 155
228 11

$$$$

     RDKit          2D

 18 19  0  0  0  0  0  0  0  0999 V2000
    8.7688    2.4378    0.0000 C   0  0  0  0  0  0  0  0  0  0  0  0
   -4.2218    0.9373    0.0000 C   0  0  0  0  0  0  0  0  0  0  0  0
   -2.9222    0.1867    0.0000 C   0  0  0  0  0  0  0  0  0  0  0  0
   -4.2226    2.4382    0.0000 C   0  0  0  0  0  0  0  0  0  0  0  0
    4.8721    0.1869    0.0000 C   0  0  0  0  0  0  0  0  0  0  0  0
    3.5726    0.9378    0.0000 C   0  0  0  0  0  0  0  0  0  0  0  0
   -1.6233    0.9369    0.0000 C   0  0  0  0  0  0  0  0  0  0  0  0
   -2.9236    3.1884    0.0000 C   0  0  0  0  0  0  0  0  0  0  0  0
    6.1712    0.9369    0.0000 C   0  0  0  0  0  0  0  0  0  0  0  0
    4.8712    3.1886    0.0000 C   0  0  0  0  0  0  0  0  0  0  0  0
    2.2730    3.1884    0.0000 C   0  0  0  0  0  0  0  0  0  0  0  0
    3.5721    2.4386    0.0000 C   0  0  0  0  0  0  0  0  0  0  0  0
   -1.6240    2.4378    0.0000 C   0  0  0  0  0  0  0  0  0  0  0  0
    6.1707    2.4378    0.0000 C   0  0  0  0  0  0  0  0  0  0  0  0
   -0.3251    3.1880    0.0000 C   0  0  0  0  0  0  0  0  0  0  0  0
   -0.3253    4.6880    0.0000 O   0  0  0  0  0  0  0  0  0  0  0  0
    0.9741    2.4382    0.0000 O   0  0  0  0  0  0  0  0  0  0  0  0
    7.4697    3.1878    0.0000 S   0  0  0  0  0  0  0  0  0  0  0  0
  3  2  2  0
  4  2  1  0
  6  5  2  0
  7  3  1  0
  8  4  2  0
  9  5  1  0
 12  6  1  0
 12 10  2  0
 12 11  1  0
 13  7  2  0
 13  8  1  0
 14  9  2  0
 14 10  1  0
 15 13  1  0
 16 15  2  0
 17 11  1  0
 17 15  1  0
 18  1  1  0
 18 14  1  0
M  END
>  <NAME>  (1559) 
(3-METHYLTHIO)BENZYL BENZOATE

>  <SYNONYMS>  (1559) 


>  <SPECTRUM TYPE>  (1559) 
MS1

>  <INSTRUMENT TYPE>  (1559) 
EI-B

>  <INSTRUMENT>  (1559) 
JEOL JMS-DX-300

>  <ION MODE>  (1559) 
P

>  <INCHIKEY>  (1559) 
TYFATSPQNVLDKD-UHFFFAOYSA-N

>  <FORMULA>  (1559) 
C15H14O2S

>  <EXACT MASS>  (1559) 
258.071450688

>  <MW>  (1559) 
258

>  <ID>  (1559) 
JP009672

>  <CONTRIBUTOR>  (1559) 
University of Tokyo Team, {Faculty of Engineering, University of Tokyo

>  <COMMENT>  (1559) 
SMILES=CSc(c2)cc(cc2)COC(=O)c(c1)cccc1
InChI=InChI=1S/C15H14O2S/c1-18-14-9-5-6-12(10-14)11-17-15(16)13-7-3-2-4-8-13/h2-10H,11H2,1H3
computed SMILES=O=C(OCC=1C=CC=C(SC)C1)C=2C=CC=CC2
accession=JP009672
date=2016.01.19 (Created 2008.10.21, modified 2011.05.06)
author=THE INSTITUTE OF SCIENTIFIC AND INDUSTRIALRESEARCH
license=CC BY-NC-SA
exact mass=258.07145
ionization energy=70 eV
ion type=[M]+*
computed spectral entropy=2.8310727553444925
computed normalized entropy=0.7033106602487829
SPLASH=splash10-0a4i-8920000000-3d310dad76bb3572782b
submitter=submitter = University of Tokyo Team (Faculty of Engineering, University of Tokyo)
MoNA Rating=3.75

>  <NUM PEAKS>  (1559) 
56

>  <MASS SPECTRAL PEAKS>  (1559) 
27 2.7
29 2.3
38 1.9
39 0.54
41 2.6
43 2.9
44 4.3
45 0.86
50 9.7
51 21
52 3
53 0.1
55 1.8
57 2.7
60 1
63 0.28
65 3.2
66 1.3
69 1.6
71 0.13
73 1.3
74 3
75 2.3
76 0.36
77 43.4
78 8.6
79 3
83 0.1
89 3.5
90 1
91 6
93 0.12
94 1.3
97 1.2
103 1
104 0.21
105 99.99
106 8.2
107 1.5
108 0.11
109 3
110 1.2
121 5.6
122 2.7
123 4.2
125 4.6
135 2.9
137 1.02
138 1.5
151 1.5
152 7.4
153 0.47
154 1.8
258 38.5
259 6.7
260 2.5

>  <PREDICTED SPECTRUM>  (1559) 
26 21
27 76
28 16
29 25
33 11
34 12
36 3
37 1
38 61
39 156
40 94
41 69
42 1
43 53
44 44
45 194
47 50
49 6
50 142
51 302
52 95
53 56
55 34
57 46
58 20
59 50
61 8
62 42
63 112
64 61
65 138
66 64
67 16
69 58
70 7
71 28
74 87
75 77
76 92
77 573
78 204
79 172
80 40
81 15
82 48
83 6
85 11
89 82
90 53
91 212
92 67
93 69
94 50
96 13
97 34
102 14
103 41
104 14
105 999
106 281
107 68
108 104
109 132
110 120
111 25
121 167
122 200
123 258
124 31
125 51
126 15
135 111
136 294
137 328
138 144
139 76
151 177
152 190
153 209
154 76
258 646
259 284
260 130
261 17

$$$$

     RDKit          2D

 17 18  0  0  0  0  0  0  0  0999 V2000
   -5.8475    5.9457    0.0000 C   0  0  0  0  0  0  0  0  0  0  0  0
    3.2489    2.1955    0.0000 C   0  0  0  0  0  0  0  0  0  0  0  0
    3.2494    3.6963    0.0000 C   0  0  0  0  0  0  0  0  0  0  0  0
    1.9494    1.4447    0.0000 C   0  0  0  0  0  0  0  0  0  0  0  0
   -7.1355    2.1959    0.0000 C   0  0  0  0  0  0  0  0  0  0  0  0
   -5.8457    1.4457    0.0000 C   0  0  0  0  0  0  0  0  0  0  0  0
   -7.1353    3.6959    0.0000 C   0  0  0  0  0  0  0  0  0  0  0  0
    1.9504    4.4463    0.0000 C   0  0  0  0  0  0  0  0  0  0  0  0
    0.6504    2.1947    0.0000 C   0  0  0  0  0  0  0  0  0  0  0  0
   -4.5455    2.1955    0.0000 C   0  0  0  0  0  0  0  0  0  0  0  0
   -3.2463    4.4455    0.0000 C   0  0  0  0  0  0  0  0  0  0  0  0
   -5.8452    4.4457    0.0000 C   0  0  0  0  0  0  0  0  0  0  0  0
    0.6509    3.6955    0.0000 C   0  0  0  0  0  0  0  0  0  0  0  0
   -4.5453    3.6955    0.0000 C   0  0  0  0  0  0  0  0  0  0  0  0
   -0.6482    4.4455    0.0000 C   0  0  0  0  0  0  0  0  0  0  0  0
   -0.6482    5.9455    0.0000 O   0  0  0  0  0  0  0  0  0  0  0  0
   -1.9472    3.6955    0.0000 O   0  0  0  0  0  0  0  0  0  0  0  0
  3  2  2  0
  4  2  1  0
  6  5  2  0
  7  5  1  0
  8  3  1  0
  9  4  2  0
 10  6  1  0
 12  1  1  0
 12  7  2  0
 13  8  2  0
 13  9  1  0
 14 10  2  0
 14 11  1  0
 14 12  1  0
 15 13  1  0
 16 15  2  0
 17 11  1  0
 17 15  1  0
M  END
>  <NAME>  (1560) 
2-METHYLBENZYL BENZOATE

>  <SYNONYMS>  (1560) 


>  <SPECTRUM TYPE>  (1560) 
MS1

>  <INSTRUMENT TYPE>  (1560) 
EI-B

>  <INSTRUMENT>  (1560) 
JEOL JMS-DX-300

>  <ION MODE>  (1560) 
P

>  <INCHIKEY>  (1560) 
NAIUTWJYNXOVNP-UHFFFAOYSA-N

>  <FORMULA>  (1560) 
C15H14O2

>  <EXACT MASS>  (1560) 
226.099379688

>  <MW>  (1560) 
226

>  <ID>  (1560) 
JP009671

>  <CONTRIBUTOR>  (1560) 
University of Tokyo Team, {Faculty of Engineering, University of Tokyo

>  <COMMENT>  (1560) 
SMILES=Cc(c2)c(ccc2)COC(=O)c(c1)cccc1
InChI=InChI=1S/C15H14O2/c1-12-7-5-6-10-14(12)11-17-15(16)13-8-3-2-4-9-13/h2-10H,11H2,1H3
computed SMILES=O=C(OCC=1C=CC=CC1C)C=2C=CC=CC2
accession=JP009671
date=2016.01.19 (Created 2008.10.21, modified 2011.05.06)
author=THE INSTITUTE OF SCIENTIFIC AND INDUSTRIALRESEARCH
license=CC BY-NC-SA
exact mass=226.09938
ionization energy=70 eV
ion type=[M]+*
computed spectral entropy=2.7608705771153104
computed normalized entropy=0.7340397990512685
SPLASH=splash10-0udi-8900000000-cea2a12b6fcfa3bfc0d3
submitter=submitter = University of Tokyo Team (Faculty of Engineering, University of Tokyo)
MoNA Rating=3.75

>  <NUM PEAKS>  (1560) 
43

>  <MASS SPECTRAL PEAKS>  (1560) 
26 1
27 5.4
29 3.5
38 0.14
39 8.2
40 1
41 1.8
43 0.12
44 4.7
45 3.2
50 7.2
51 2.52
52 3.5
53 2.6
57 1
62 0.16
63 5.4
64 1.6
65 11.5
66 0.13
74 2.3
75 2.2
76 4
77 7.01
78 18
79 14.1
80 1.2
89 0.38
90 2.7
91 20.2
92 2.7
93 0.43
102 1
103 9.8
104 99.99
105 7.8
106 6.7
107 2.2
108 2.3
119 0.53
120 3.8
121 3.1
122 4.6

>  <PREDICTED SPECTRUM>  (1560) 
15 1
26 3
27 111
28 42
29 109
37 5
38 56
39 187
40 95
41 85
45 10
50 148
51 251
52 130
53 51
62 40
63 104
64 45
65 175
66 47
74 31
75 111
76 134
77 464
78 274
79 207
80 8
89 111
90 36
91 191
92 49
93 104
94 4
102 33
103 291
104 999
105 964
106 275
107 48
119 63
120 14
121 264
122 187
181 131
208 61
226 161
227 37

$$$$

     RDKit          2D

 10 10  0  0  0  0  0  0  0  0999 V2000
    0.0000    3.0000    0.0000 C   0  0  0  0  0  0  0  0  0  0  0  0
    2.5989   -1.5002    0.0000 C   0  0  0  0  0  0  0  0  0  0  0  0
   -1.3000    0.7500    0.0000 C   0  0  0  0  0  0  0  0  0  0  0  0
   -0.0000   -1.5000    0.0000 C   0  0  0  0  0  0  0  0  0  0  0  0
    0.0000    1.5000    0.0000 C   0  0  0  0  0  0  0  0  0  0  0  0
    1.3000   -0.7500    0.0000 C   0  0  0  0  0  0  0  0  0  0  0  0
   -1.3000   -0.7500    0.0000 C   0  0  0  0  0  0  0  0  0  0  0  0
    1.3000    0.7500    0.0000 C   0  0  0  0  0  0  0  0  0  0  0  0
   -2.5989   -1.5002    0.0000 Br  0  0  0  0  0  0  0  0  0  0  0  0
    2.5989    1.5002    0.0000 N   0  0  0  0  0  0  0  0  0  0  0  0
  5  1  1  0
  5  3  2  0
  6  2  1  0
  6  4  1  0
  7  3  1  0
  7  4  2  0
  8  5  1  0
  8  6  2  0
  9  7  1  0
 10  8  1  0
M  END
>  <NAME>  (1561) 
4-BROMO-2,6-DIMETHYLANILINE

>  <SYNONYMS>  (1561) 


>  <SPECTRUM TYPE>  (1561) 
MS1

>  <INSTRUMENT TYPE>  (1561) 
EI-B

>  <INSTRUMENT>  (1561) 
JEOL JMS-DX-300

>  <ION MODE>  (1561) 
P

>  <INCHIKEY>  (1561) 
QGLAYJCJLHNIGJ-UHFFFAOYSA-N

>  <FORMULA>  (1561) 
C8H10BrN

>  <EXACT MASS>  (1561) 
198.99966142

>  <MW>  (1561) 
199

>  <ID>  (1561) 
JP009670

>  <CONTRIBUTOR>  (1561) 
University of Tokyo Team, {Faculty of Engineering, University of Tokyo

>  <COMMENT>  (1561) 
SMILES=Cc(c1)c(N)c(C)cc(Br)1
InChI=InChI=1S/C8H10BrN/c1-5-3-7(9)4-6(2)8(5)10/h3-4H,10H2,1-2H3
computed SMILES=BrC=1C=C(C(N)=C(C1)C)C
accession=JP009670
date=2016.01.19 (Created 2008.10.21, modified 2011.05.06)
author=THE INSTITUTE OF SCIENTIFIC AND INDUSTRIALRESEARCH
license=CC BY-NC-SA
exact mass=198.99966
ionization energy=70 eV
ion type=[M]+*
computed spectral entropy=2.78852188711133
computed normalized entropy=0.7092180955082662
SPLASH=splash10-0uka-4940000000-1d955d3451ea436e638d
submitter=submitter = University of Tokyo Team (Faculty of Engineering, University of Tokyo)
MoNA Rating=3.75

>  <NUM PEAKS>  (1561) 
51

>  <MASS SPECTRAL PEAKS>  (1561) 
27 3.3
30 2.9
38 1.8
39 0.8
41 2.8
42 6
47 3.3
50 0.28
51 7
52 5.7
53 4
54 0.4
59 7.8
60 4.2
62 2.4
63 0.58
64 1.8
65 8
66 2.2
74 0.1
75 1.7
76 1.8
77 13.3
78 0.47
79 2.2
80 2.5
82 2
89 0.23
90 1.9
91 15.7
92 6.7
93 0.73
94 1.3
100 3.2
101 2.8
102 0.28
103 8.2
104 5.6
105 1.9
117 0.26
118 8
119 7.8
120 73.6
121 0.72
184 4.2
186 3.9
198 14
199 99.99
200 22.9
201 96.7
202 9.1

>  <PREDICTED SPECTRUM>  (1561) 
14 16
15 55
16 3
17 18
18 32
25 16
26 100
27 192
28 111
29 64
30 20
31 48
32 18
33 17
34 9
36 51
37 145
38 269
39 451
40 218
41 222
42 114
43 136
44 104
45 16
49 60
50 348
51 546
52 415
53 300
54 197
55 62
56 27
57 14
60 17
61 174
62 210
63 314
64 206
65 323
66 222
67 154
68 92
69 40
70 58
71 15
72 0
73 0
74 195
75 200
76 189
77 678
78 430
79 247
80 157
81 115
82 4
86 63
87 93
88 26
89 157
90 204
91 291
92 362
93 284
94 127
95 25
98 27
99 42
101 40
102 182
103 249
104 339
105 277
106 65
107 39
116 114
117 90
118 346
119 184
120 999
121 327
122 134
131 8
132 17
171 67
172 20
173 38
182 38
183 2
184 241
185 81
186 184
187 66
198 442
199 847
200 493
201 823
202 271
203 1

$$$$

     RDKit          2D

 12 12  0  0  0  0  0  0  0  0999 V2000
    0.0000    3.0000    0.0000 C   0  0  0  0  0  0  0  0  0  0  0  0
    2.5989   -1.5002    0.0000 C   0  0  0  0  0  0  0  0  0  0  0  0
   -1.3000    0.7500    0.0000 C   0  0  0  0  0  0  0  0  0  0  0  0
   -0.0000   -1.5000    0.0000 C   0  0  0  0  0  0  0  0  0  0  0  0
   -2.5989   -1.5002    0.0000 C   0  0  0  0  0  0  0  0  0  0  0  0
    2.5989    1.5002    0.0000 C   0  0  0  0  0  0  0  0  0  0  0  0
    0.0000    1.5000    0.0000 C   0  0  0  0  0  0  0  0  0  0  0  0
    1.3000   -0.7500    0.0000 C   0  0  0  0  0  0  0  0  0  0  0  0
   -1.3000   -0.7500    0.0000 C   0  0  0  0  0  0  0  0  0  0  0  0
    1.3000    0.7500    0.0000 C   0  0  0  0  0  0  0  0  0  0  0  0
   -3.8978   -2.2504    0.0000 N   0  0  0  0  0  0  0  0  0  0  0  0
    3.8978    2.2504    0.0000 N   0  0  0  0  0  0  0  0  0  0  0  0
  7  1  1  0
  7  3  2  0
  8  2  1  0
  8  4  1  0
  9  3  1  0
  9  4  2  0
  9  5  1  0
 10  6  1  0
 10  7  1  0
 10  8  2  0
 11  5  3  0
 12  6  3  0
M  END
>  <NAME>  (1562) 
2,6-DIMETHYLTEREPHTALONITRILE

>  <SYNONYMS>  (1562) 


>  <SPECTRUM TYPE>  (1562) 
MS1

>  <INSTRUMENT TYPE>  (1562) 
EI-B

>  <INSTRUMENT>  (1562) 
JEOL JMS-DX-300

>  <ION MODE>  (1562) 
P

>  <INCHIKEY>  (1562) 
VODNMFZZKATZHT-UHFFFAOYSA-N

>  <FORMULA>  (1562) 
C10H8N2

>  <EXACT MASS>  (1562) 
156.068748256

>  <MW>  (1562) 
156

>  <ID>  (1562) 
JP009669

>  <CONTRIBUTOR>  (1562) 
University of Tokyo Team, {Faculty of Engineering, University of Tokyo

>  <COMMENT>  (1562) 
SMILES=N#Cc(c1)cc(C)c(C#N)c(C)1
InChI=InChI=1S/C10H8N2/c1-7-3-9(5-11)4-8(2)10(7)6-12/h3-4H,1-2H3
computed SMILES=N#CC=1C=C(C(C#N)=C(C1)C)C
accession=JP009669
date=2016.01.19 (Created 2008.10.21, modified 2011.05.06)
author=THE INSTITUTE OF SCIENTIFIC AND INDUSTRIALRESEARCH
license=CC BY-NC-SA
exact mass=156.06875
ionization energy=70 eV
ion type=[M]+*
computed spectral entropy=3.010568087020853
computed normalized entropy=0.7695680937569961
SPLASH=splash10-0a4i-5900000000-40e03b77189963424f63
submitter=submitter = University of Tokyo Team (Faculty of Engineering, University of Tokyo)
MoNA Rating=3.75

>  <NUM PEAKS>  (1562) 
50

>  <MASS SPECTRAL PEAKS>  (1562) 
26 2.8
27 9.7
29 1
37 0.32
38 6.1
39 16.7
40 2.4
41 0.2
44 3
50 10.1
51 15.8
52 0.9
53 2
61 2.7
62 5.9
63 1.24
64 9.8
65 4
74 3.9
75 1.14
76 12.3
77 10.9
78 4.6
86 0.13
87 3.6
88 5
89 3
90 0.17
91 1.7
99 2.1
100 3.8
101 1.08
102 12.6
103 6
104 1.1
114 0.96
115 1.6
116 2.8
121 1.2
126 0.1
127 5
128 13.2
129 10.3
130 0.31
141 42.9
142 4.1
154 1.2
155 4.56
156 99.99
157 11.9

>  <PREDICTED SPECTRUM>  (1562) 
15 29
18 3
26 28
27 78
28 14
36 21
37 129
38 197
39 388
40 157
41 157
42 79
44 0
49 70
50 291
51 383
52 295
53 156
54 63
58 26
61 148
62 254
63 366
64 310
65 251
66 99
67 50
71 27
72 9
73 32
74 169
75 232
76 299
77 263
78 180
79 11
85 40
86 105
87 192
88 226
89 217
90 160
91 127
99 134
100 198
101 250
102 282
103 172
104 41
111 33
112 52
113 101
114 269
115 169
116 191
125 18
126 55
127 158
128 380
129 462
130 215
139 49
140 84
141 840
142 274
143 51
153 26
154 132
155 354
156 999
157 315
158 16

$$$$

     RDKit          2D

 10 10  0  0  0  0  0  0  0  0999 V2000
    0.0000    3.0000    0.0000 C   0  0  0  0  0  0  0  0  0  0  0  0
    2.5989   -1.5002    0.0000 C   0  0  0  0  0  0  0  0  0  0  0  0
   -1.3000    0.7500    0.0000 C   0  0  0  0  0  0  0  0  0  0  0  0
   -0.0000   -1.5000    0.0000 C   0  0  0  0  0  0  0  0  0  0  0  0
    0.0000    1.5000    0.0000 C   0  0  0  0  0  0  0  0  0  0  0  0
    1.3000   -0.7500    0.0000 C   0  0  0  0  0  0  0  0  0  0  0  0
   -1.3000   -0.7500    0.0000 C   0  0  0  0  0  0  0  0  0  0  0  0
    1.3000    0.7500    0.0000 C   0  0  0  0  0  0  0  0  0  0  0  0
   -2.5989   -1.5002    0.0000 Br  0  0  0  0  0  0  0  0  0  0  0  0
    2.5989    1.5002    0.0000 O   0  0  0  0  0  0  0  0  0  0  0  0
  5  1  1  0
  5  3  2  0
  6  2  1  0
  6  4  1  0
  7  3  1  0
  7  4  2  0
  8  5  1  0
  8  6  2  0
  9  7  1  0
 10  8  1  0
M  END
>  <NAME>  (1563) 
4-BROMO-2,6-DIMETHYLPHENOL

>  <SYNONYMS>  (1563) 


>  <SPECTRUM TYPE>  (1563) 
MS1

>  <INSTRUMENT TYPE>  (1563) 
EI-B

>  <INSTRUMENT>  (1563) 
JEOL JMS-DX-300

>  <ION MODE>  (1563) 
P

>  <INCHIKEY>  (1563) 
ZLVFYUORUHNMBO-UHFFFAOYSA-N

>  <FORMULA>  (1563) 
C8H9BrO

>  <EXACT MASS>  (1563) 
199.983677008

>  <MW>  (1563) 
200

>  <ID>  (1563) 
JP009668

>  <CONTRIBUTOR>  (1563) 
University of Tokyo Team, {Faculty of Engineering, University of Tokyo

>  <COMMENT>  (1563) 
SMILES=Cc(c1)c(O)c(C)cc(Br)1
InChI=InChI=1S/C8H9BrO/c1-5-3-7(9)4-6(2)8(5)10/h3-4,10H,1-2H3
computed SMILES=BrC=1C=C(C(O)=C(C1)C)C
accession=JP009668
date=2016.01.19 (Created 2008.10.21, modified 2011.05.06)
author=THE INSTITUTE OF SCIENTIFIC AND INDUSTRIALRESEARCH
license=CC BY-NC-SA
exact mass=199.98368
ionization energy=70 eV
ion type=[M]+*
computed spectral entropy=2.956826229071485
computed normalized entropy=0.722173276854536
SPLASH=splash10-0udi-9580000000-1f5f813e071b2941934b
submitter=submitter = University of Tokyo Team (Faculty of Engineering, University of Tokyo)
MoNA Rating=3.75

>  <NUM PEAKS>  (1563) 
60

>  <MASS SPECTRAL PEAKS>  (1563) 
26 1.5
27 7.5
29 2
37 0.1
38 3.8
39 18.9
40 2.6
41 0.55
43 4.9
44 1.1
45 4.5
46 0.25
50 7.3
51 17.1
52 5.8
53 0.9
55 3.3
59 1.6
60 2
61 0.19
62 5.5
63 13.2
64 3.3
65 1.9
66 2.9
67 1.8
74 2.7
75 0.28
76 2
77 41.9
78 9.2
79 0.17
80 2.7
81 1.5
82 2.6
86 0.12
87 1.1
89 4
90 2.5
91 5.12
92 17.2
93 10.6
94 1.7
100 0.23
101 1.7
102 3
103 16.7
104 0.18
105 1
119 1.8
120 1.6
121 99.99
122 9.8
185 3.8
187 3.1
199 0.61
200 92.5
201 14.6
202 89.4
203 8

>  <PREDICTED SPECTRUM>  (1563) 
14 28
15 62
16 18
17 29
18 52
25 29
26 113
27 199
28 93
29 93
31 37
32 20
36 9
37 158
38 270
39 448
40 187
41 123
42 31
43 107
44 105
46 6
49 54
50 380
51 591
52 354
53 284
54 137
55 70
57 19
58 9
61 145
62 194
63 308
64 185
65 384
66 224
67 136
68 50
69 19
70 5
71 19
72 41
73 35
74 208
75 198
76 139
77 750
78 440
79 179
80 37
81 88
82 7
85 26
86 66
87 92
89 100
90 84
91 305
92 201
93 385
94 167
95 37
99 1
102 136
103 166
104 199
105 10
106 120
117 32
118 13
119 143
120 20
121 999
122 270
123 146
137 30
171 37
172 25
173 20
185 31
187 37
199 134
200 763
201 289
202 794
203 233

$$$$

     RDKit          2D

 19 22  0  0  0  0  0  0  0  0999 V2000
    5.8481    1.8879    0.0000 C   0  0  0  0  0  0  0  0  0  0  0  0
   -3.2500   -1.8800    0.0000 C   0  0  0  0  0  0  0  0  0  0  0  0
   -1.9500   -2.6200    0.0000 C   0  0  0  0  0  0  0  0  0  0  0  0
   -3.2500   -0.3800    0.0000 C   0  0  0  0  0  0  0  0  0  0  0  0
    0.6500   -2.6200    0.0000 C   0  0  0  0  0  0  0  0  0  0  0  0
   -1.9500    1.8800    0.0000 C   0  0  0  0  0  0  0  0  0  0  0  0
    1.9500   -1.8800    0.0000 C   0  0  0  0  0  0  0  0  0  0  0  0
   -0.6500    2.6200    0.0000 C   0  0  0  0  0  0  0  0  0  0  0  0
    3.2500    0.3800    0.0000 C   0  0  0  0  0  0  0  0  0  0  0  0
    1.9500    2.6200    0.0000 C   0  0  0  0  0  0  0  0  0  0  0  0
    4.5467    2.6340    0.0000 C   0  0  0  0  0  0  0  0  0  0  0  0
   -0.6500   -1.8800    0.0000 C   0  0  0  0  0  0  0  0  0  0  0  0
   -1.9500    0.3800    0.0000 C   0  0  0  0  0  0  0  0  0  0  0  0
    1.9500   -0.3800    0.0000 C   0  0  0  0  0  0  0  0  0  0  0  0
    0.6500    1.8800    0.0000 C   0  0  0  0  0  0  0  0  0  0  0  0
    3.2500    1.8800    0.0000 C   0  0  0  0  0  0  0  0  0  0  0  0
   -0.6500   -0.3800    0.0000 C   0  0  0  0  0  0  0  0  0  0  0  0
    0.6500    0.3800    0.0000 C   0  0  0  0  0  0  0  0  0  0  0  0
    4.5422    4.1340    0.0000 O   0  0  0  0  0  0  0  0  0  0  0  0
  3  2  2  0
  4  2  1  0
  7  5  1  0
  8  6  1  0
 11  1  1  0
 12  3  1  0
 12  5  1  0
 13  4  2  0
 13  6  1  0
 14  7  1  0
 14  9  1  0
 15  8  1  0
 15 10  2  0
 16  9  2  0
 16 10  1  0
 16 11  1  0
 17 12  2  0
 17 13  1  0
 18 14  2  0
 18 15  1  0
 18 17  1  0
 19 11  2  0
M  END
>  <NAME>  (1564) 
METHYL 4,5,9,10-TETRAHYDRO-2-PYRENYL KETONE

>  <SYNONYMS>  (1564) 


>  <SPECTRUM TYPE>  (1564) 
MS1

>  <INSTRUMENT TYPE>  (1564) 
EI-B

>  <INSTRUMENT>  (1564) 
JEOL JMS-DX-300

>  <ION MODE>  (1564) 
P

>  <INCHIKEY>  (1564) 
INKIBYZEUXUPPA-UHFFFAOYSA-N

>  <FORMULA>  (1564) 
C18H16O

>  <EXACT MASS>  (1564) 
248.120115132

>  <MW>  (1564) 
248

>  <ID>  (1564) 
JP009667

>  <CONTRIBUTOR>  (1564) 
University of Tokyo Team, {Faculty of Engineering, University of Tokyo

>  <COMMENT>  (1564) 
SMILES=CC(=O)c(c4)cc(C3)c(c14)c(c2C3)c(ccc2)CC1
InChI=InChI=1S/C18H16O/c1-11(19)16-9-14-7-5-12-3-2-4-13-6-8-15(10-16)18(14)17(12)13/h2-4,9-10H,5-8H2,1H3
computed SMILES=O=C(C=1C=C2C3=C(C1)CCC=4C=CC=C(C43)CC2)C
accession=JP009667
date=2016.01.19 (Created 2008.10.21, modified 2011.05.06)
author=THE INSTITUTE OF SCIENTIFIC AND INDUSTRIALRESEARCH
license=CC BY-NC-SA
exact mass=248.12012
ionization energy=70 eV
ion type=[M]+*
computed spectral entropy=2.6478596504978444
computed normalized entropy=0.6839891917358373
SPLASH=splash10-000t-0190000000-0cfe72c2a12a713cd66f
submitter=submitter = University of Tokyo Team (Faculty of Engineering, University of Tokyo)
MoNA Rating=3.75

>  <NUM PEAKS>  (1564) 
48

>  <MASS SPECTRAL PEAKS>  (1564) 
43 21.3
44 1.6
76 1.5
88 0.24
89 3
95 2.1
100 2
101 0.84
102 1.7
103 2
109 1.8
110 0.23
115 1.7
116 2.4
117 1.9
150 0.16
151 1.8
152 2.4
163 1.7
164 0.13
165 5.8
166 1
175 1
176 0.27
177 1.5
178 3.7
179 1.2
187 0.12
188 1.1
189 16.9
190 15.5
191 0.3
200 6.6
201 6.8
202 31.3
203 2.55
204 7.7
205 18.6
206 3.7
219 0.16
231 2.4
233 93.7
234 18
235 0.18
246 1.8
248 99.99
249 19.9
250 2.2

>  <PREDICTED SPECTRUM>  (1564) 
39 91
40 36
41 62
42 42
43 445
44 60
50 48
51 133
52 51
53 43
56 20
57 6
62 34
63 109
64 21
65 29
67 9
69 17
71 30
73 30
74 30
75 72
76 95
77 71
78 4
81 3
82 55
83 44
84 54
85 41
86 23
87 63
88 96
89 118
90 22
91 33
94 38
95 85
96 51
97 12
98 27
99 26
100 36
101 116
102 67
103 5
105 23
106 17
107 41
109 63
110 32
111 67
113 42
115 98
121 9
122 12
123 28
124 48
125 16
127 39
128 52
137 9
138 3
139 34
150 68
151 132
152 153
162 12
163 99
164 27
165 89
166 21
173 53
174 30
175 60
176 163
177 100
178 265
179 50
187 80
188 119
189 360
190 266
191 139
199 51
200 132
201 197
202 325
203 307
204 306
205 372
206 143
207 1
213 2
214 55
215 108
216 45
217 3
218 25
219 144
220 7
227 14
231 24
232 26
233 999
234 409
235 122
246 56
247 62
248 976
249 371
250 131

$$$$

     RDKit          2D

 14 14  0  0  0  0  0  0  0  0999 V2000
    5.8375    1.8749    0.0000 C   0  0  0  0  0  0  0  0  0  0  0  0
    4.5397    1.1228    0.0000 C   0  0  0  0  0  0  0  0  0  0  0  0
   -0.6622    4.1084    0.0000 C   0  0  0  0  0  0  0  0  0  0  0  0
    0.6368    3.3584    0.0000 C   0  0  0  0  0  0  0  0  0  0  0  0
   -1.9567    3.3662    0.0000 C   0  0  0  0  0  0  0  0  0  0  0  0
   -0.6582    1.1154    0.0000 C   0  0  0  0  0  0  0  0  0  0  0  0
    0.6413    1.8662    0.0000 C   0  0  0  0  0  0  0  0  0  0  0  0
   -1.9572    1.8654    0.0000 C   0  0  0  0  0  0  0  0  0  0  0  0
    1.9416    1.1184    0.0000 C   0  0  0  0  0  0  0  0  0  0  0  0
   -3.2564    1.1156    0.0000 N   0  0  0  0  0  0  0  0  0  0  0  0
    1.9441   -0.3816    0.0000 O   0  0  0  0  0  0  0  0  0  0  0  0
   -4.5553    1.8658    0.0000 O   0  0  0  0  0  0  0  0  0  0  0  0
   -3.2566   -0.3844    0.0000 O   0  0  0  0  0  0  0  0  0  0  0  0
    3.2394    1.8706    0.0000 O   0  0  0  0  0  0  0  0  0  0  0  0
  2  1  1  0
  4  3  2  0
  5  3  1  0
  7  4  1  0
  7  6  2  0
  8  5  2  0
  8  6  1  0
  9  7  1  0
 10  8  1  0
 11  9  2  0
 12 10  1  0
 13 10  2  0
 14  2  1  0
 14  9  1  0
M  CHG  2  10   1  12  -1
M  END
>  <NAME>  (1565) 
ETHYL 3-NITROBENZOATE

>  <SYNONYMS>  (1565) 


>  <SPECTRUM TYPE>  (1565) 
MS1

>  <INSTRUMENT TYPE>  (1565) 
EI-B

>  <INSTRUMENT>  (1565) 
JEOL JMS-DX-300

>  <ION MODE>  (1565) 
P

>  <INCHIKEY>  (1565) 
MKBIJCPQTPFQKQ-UHFFFAOYSA-N

>  <FORMULA>  (1565) 
C9H9NO4

>  <EXACT MASS>  (1565) 
195.053157768

>  <MW>  (1565) 
195

>  <ID>  (1565) 
JP009666

>  <CONTRIBUTOR>  (1565) 
University of Tokyo Team, {Faculty of Engineering, University of Tokyo

>  <COMMENT>  (1565) 
SMILES=CCOC(=O)c(c1)cc(cc1)[N+1]([O-1])=O
InChI=InChI=1S/C9H9NO4/c1-2-14-9(11)7-4-3-5-8(6-7)10(12)13/h3-6H,2H2,1H3
computed SMILES=O=C(OCC)C1=CC=CC(=C1)N(=O)=O
accession=JP009666
date=2016.01.19 (Created 2008.10.21, modified 2011.05.06)
author=THE INSTITUTE OF SCIENTIFIC AND INDUSTRIALRESEARCH
license=CC BY-NC-SA
exact mass=195.05316
ionization energy=70 eV
ion type=[M]+*
computed spectral entropy=2.9463160443313168
computed normalized entropy=0.7785857288765454
SPLASH=splash10-0ufr-7900000000-fb2d1c43712ed1e5f80a
submitter=submitter = University of Tokyo Team (Faculty of Engineering, University of Tokyo)
MoNA Rating=3.75

>  <NUM PEAKS>  (1565) 
44

>  <MASS SPECTRAL PEAKS>  (1565) 
26 2.1
27 14.1
29 24.3
30 0.82
38 1.9
39 5.9
43 2
45 1.43
50 26.1
51 7
53 1.9
62 0.1
63 4
64 3.9
65 27.9
66 0.18
74 8.2
75 21.2
76 49.4
77 0.73
81 2.3
92 7.7
93 4.2
103 0.77
104 41.2
105 3.9
120 1.5
121 2.58
122 4.6
134 13.2
135 29.1
136 0.26
137 5.8
149 2
150 99.99
151 2.36
152 2.3
165 1.2
167 21.9
168 0.34
178 3.7
179 1.2
195 34.2
196 3.9

>  <PREDICTED SPECTRUM>  (1565) 
14 10
15 23
26 67
27 197
28 104
29 313
30 112
31 26
36 30
37 88
38 126
39 133
40 11
41 62
43 63
44 22
45 202
46 35
49 80
50 374
51 228
52 123
53 106
55 32
62 58
63 176
64 122
65 179
66 65
67 17
69 43
73 58
74 223
75 378
76 538
77 259
78 34
79 6
82 7
83 55
91 13
92 222
93 103
94 31
95 19
101 29
103 225
104 483
105 184
106 40
109 22
120 64
121 146
122 212
123 141
134 240
135 46
137 21
149 23
150 999
151 422
152 182
165 128
167 544
168 235
169 79
178 1
179 10
180 87
181 17
195 217
196 74

$$$$

     RDKit          2D

 16 16  0  0  0  0  0  0  0  0999 V2000
    6.4962    0.7508    0.0000 C   0  0  0  0  0  0  0  0  0  0  0  0
   -6.4962   -0.7508    0.0000 C   0  0  0  0  0  0  0  0  0  0  0  0
    5.1970    1.5006    0.0000 C   0  0  0  0  0  0  0  0  0  0  0  0
   -5.1970   -1.5006    0.0000 C   0  0  0  0  0  0  0  0  0  0  0  0
    1.3000   -0.7500    0.0000 C   0  0  0  0  0  0  0  0  0  0  0  0
    0.0000    1.5000    0.0000 C   0  0  0  0  0  0  0  0  0  0  0  0
   -0.0000   -1.5000    0.0000 C   0  0  0  0  0  0  0  0  0  0  0  0
   -1.3000    0.7500    0.0000 C   0  0  0  0  0  0  0  0  0  0  0  0
    1.3000    0.7500    0.0000 C   0  0  0  0  0  0  0  0  0  0  0  0
   -1.3000   -0.7500    0.0000 C   0  0  0  0  0  0  0  0  0  0  0  0
    2.5989    1.5002    0.0000 C   0  0  0  0  0  0  0  0  0  0  0  0
   -2.5989   -1.5002    0.0000 C   0  0  0  0  0  0  0  0  0  0  0  0
    2.5987    3.0002    0.0000 O   0  0  0  0  0  0  0  0  0  0  0  0
   -2.5987   -3.0002    0.0000 O   0  0  0  0  0  0  0  0  0  0  0  0
    3.8981    0.7504    0.0000 O   0  0  0  0  0  0  0  0  0  0  0  0
   -3.8981   -0.7504    0.0000 O   0  0  0  0  0  0  0  0  0  0  0  0
  3  1  1  0
  4  2  1  0
  7  5  2  0
  8  6  1  0
  9  5  1  0
  9  6  2  0
 10  7  1  0
 10  8  2  0
 11  9  1  0
 12 10  1  0
 13 11  2  0
 14 12  2  0
 15  3  1  0
 15 11  1  0
 16  4  1  0
 16 12  1  0
M  END
>  <NAME>  (1566) 
DIETHYL TEREPHTHALATE

>  <SYNONYMS>  (1566) 


>  <SPECTRUM TYPE>  (1566) 
MS1

>  <INSTRUMENT TYPE>  (1566) 
EI-B

>  <INSTRUMENT>  (1566) 
JEOL JMS-DX-300

>  <ION MODE>  (1566) 
P

>  <INCHIKEY>  (1566) 
ONIHPYYWNBVMID-UHFFFAOYSA-N

>  <FORMULA>  (1566) 
C12H14O4

>  <EXACT MASS>  (1566) 
222.089208928

>  <MW>  (1566) 
222

>  <ID>  (1566) 
JP009665

>  <CONTRIBUTOR>  (1566) 
University of Tokyo Team, {Faculty of Engineering, University of Tokyo

>  <COMMENT>  (1566) 
SMILES=CCOC(=O)c(c1)ccc(c1)C(=O)OCC
InChI=InChI=1S/C12H14O4/c1-3-15-11(13)9-5-7-10(8-6-9)12(14)16-4-2/h5-8H,3-4H2,1-2H3
computed SMILES=O=C(OCC)C1=CC=C(C=C1)C(=O)OCC
accession=JP009665
date=2016.01.19 (Created 2008.10.21, modified 2011.05.06)
author=THE INSTITUTE OF SCIENTIFIC AND INDUSTRIALRESEARCH
license=CC BY-NC-SA
exact mass=222.08921
ionization energy=70 eV
ion type=[M]+*
computed spectral entropy=2.753302150902771
computed normalized entropy=0.7515370060202167
SPLASH=splash10-004i-3910000000-b0bdfc9b0e4446b70df7
submitter=submitter = University of Tokyo Team (Faculty of Engineering, University of Tokyo)
MoNA Rating=3.75

>  <NUM PEAKS>  (1566) 
39

>  <MASS SPECTRAL PEAKS>  (1566) 
26 1.6
27 8.9
29 14.5
39 0.33
43 1
45 5.7
50 9.7
51 0.42
52 3
53 1.1
65 23.1
66 0.69
74 2.6
75 7.6
76 17.1
77 0.4
93 2.7
103 10.2
104 15.2
105 0.4
121 13.9
122 2.8
132 1.9
133 0.16
149 53.2
150 9.5
151 1.1
166 2.89
167 2.7
176 1.7
177 99.99
178 1.26
179 1.8
193 9.7
194 21
195 0.25
221 1.8
222 25
223 3.5

>  <PREDICTED SPECTRUM>  (1566) 
26 25
27 143
28 65
29 300
30 8
31 38
38 13
39 58
41 5
43 47
45 171
50 224
51 140
52 59
53 87
54 1
63 85
64 44
65 315
66 130
73 25
74 97
75 242
76 344
77 201
78 61
79 2
85 0
91 64
92 96
93 76
96 20
100 6
103 319
104 285
105 132
119 128
120 135
121 279
122 134
131 3
132 102
133 69
138 25
147 62
149 718
150 327
151 140
152 0
165 46
166 279
167 53
177 999
178 497
179 215
180 20
193 118
194 319
195 417
196 128
203 27
207 83
208 14
221 155
222 380
223 158
224 48

$$$$

     RDKit          2D

 15 15  0  0  0  0  0  0  0  0999 V2000
    6.4962    0.7508    0.0000 C   0  0  0  0  0  0  0  0  0  0  0  0
   -3.3491   -0.2013    0.0000 C   0  0  0  0  0  0  0  0  0  0  0  0
    5.1970    1.5006    0.0000 C   0  0  0  0  0  0  0  0  0  0  0  0
    0.0000    1.5000    0.0000 C   0  0  0  0  0  0  0  0  0  0  0  0
    1.3000   -0.7500    0.0000 C   0  0  0  0  0  0  0  0  0  0  0  0
   -1.3000    0.7500    0.0000 C   0  0  0  0  0  0  0  0  0  0  0  0
   -0.0000   -1.5000    0.0000 C   0  0  0  0  0  0  0  0  0  0  0  0
    1.3000    0.7500    0.0000 C   0  0  0  0  0  0  0  0  0  0  0  0
   -1.3000   -0.7500    0.0000 C   0  0  0  0  0  0  0  0  0  0  0  0
    2.5989    1.5002    0.0000 C   0  0  0  0  0  0  0  0  0  0  0  0
    2.5987    3.0002    0.0000 O   0  0  0  0  0  0  0  0  0  0  0  0
   -3.8978   -2.2504    0.0000 O   0  0  0  0  0  0  0  0  0  0  0  0
   -1.8487   -2.7991    0.0000 O   0  0  0  0  0  0  0  0  0  0  0  0
    3.8981    0.7504    0.0000 O   0  0  0  0  0  0  0  0  0  0  0  0
   -2.5989   -1.5002    0.0000 S   0  0  0  0  0  0  0  0  0  0  0  0
  3  1  1  0
  6  4  2  0
  7  5  1  0
  8  4  1  0
  8  5  2  0
  9  6  1  0
  9  7  2  0
 10  8  1  0
 11 10  2  0
 14  3  1  0
 14 10  1  0
 15  2  1  0
 15  9  1  0
 15 12  2  0
 15 13  2  0
M  END
>  <NAME>  (1567) 
ETHYL 4-METHYLSULFONYLBENZOATE

>  <SYNONYMS>  (1567) 


>  <SPECTRUM TYPE>  (1567) 
MS1

>  <INSTRUMENT TYPE>  (1567) 
EI-B

>  <INSTRUMENT>  (1567) 
JEOL JMS-DX-300

>  <ION MODE>  (1567) 
P

>  <INCHIKEY>  (1567) 
ADTIKXSMRDSYSK-UHFFFAOYSA-N

>  <FORMULA>  (1567) 
C10H12O4S

>  <EXACT MASS>  (1567) 
228.04562986399998

>  <MW>  (1567) 
228

>  <ID>  (1567) 
JP009664

>  <CONTRIBUTOR>  (1567) 
University of Tokyo Team, {Faculty of Engineering, University of Tokyo

>  <COMMENT>  (1567) 
SMILES=CCOC(=O)c(c1)ccc(c1)S(C)(=O)=O
InChI=InChI=1S/C10H12O4S/c1-3-14-10(11)8-4-6-9(7-5-8)15(2,12)13/h4-7H,3H2,1-2H3
computed SMILES=O=C(OCC)C1=CC=C(C=C1)S(=O)(=O)C
accession=JP009664
date=2016.01.19 (Created 2008.10.21, modified 2011.05.06)
author=THE INSTITUTE OF SCIENTIFIC AND INDUSTRIALRESEARCH
license=CC BY-NC-SA
exact mass=228.04563
ionization energy=70 eV
ion type=[M]+*
computed spectral entropy=3.177379958035362
computed normalized entropy=0.7669023982724077
SPLASH=splash10-008j-3910000000-2aba0b312f0d106d0e60
submitter=submitter = University of Tokyo Team (Faculty of Engineering, University of Tokyo)
MoNA Rating=3.75

>  <NUM PEAKS>  (1567) 
63

>  <MASS SPECTRAL PEAKS>  (1567) 
26 1.3
27 7.9
29 13.3
39 0.41
43 1.3
44 4.2
45 10.8
47 0.1
50 16.9
51 5
52 1
53 0.18
63 4.6
64 3.3
65 17.1
66 0.12
70 1
74 5
75 11.8
76 2.68
77 7.3
78 2.2
79 3.7
81 0.22
91 1.3
92 3.2
93 6.2
103 1.68
104 16.5
105 3.6
107 1.3
109 0.45
120 4
121 50.1
122 4.7
124 0.14
131 1
137 2.7
138 50.1
139 0.39
148 21
149 49.7
150 5
151 0.11
152 1.7
155 2.1
156 12.3
157 0.11
165 1
169 2.3
183 99.99
184 2
185 15.8
186 1.8
197 1.6
200 3.08
201 4.9
202 1.8
213 7.2
227 0.14
228 34
229 4.9
230 2.1

>  <PREDICTED SPECTRUM>  (1567) 
14 4
15 53
25 1
26 76
27 244
28 92
29 334
30 125
31 119
36 25
37 39
38 106
39 194
40 31
41 54
42 72
43 194
44 69
45 252
46 36
47 50
48 78
49 37
50 310
51 222
52 92
53 108
57 64
60 30
61 62
62 111
63 241
64 147
65 384
66 81
69 21
73 88
74 228
75 370
76 345
77 309
78 155
79 201
80 60
81 175
82 84
83 16
84 45
85 90
86 11
89 16
91 192
92 78
93 157
94 39
95 82
96 115
97 88
98 42
103 278
104 305
105 251
106 98
107 99
108 70
109 189
110 55
111 2
119 32
120 154
121 563
122 239
123 86
124 41
125 25
131 6
133 3
135 87
136 89
137 200
138 437
139 123
140 0
148 70
149 580
150 193
151 9
153 2
155 187
156 222
157 51
165 115
167 5
169 341
183 999
184 283
185 423
186 114
193 18
200 265
201 261
202 204
203 55
213 284
214 70
215 34
228 380
229 190
230 140
231 23

$$$$

     RDKit          2D

 14 14  0  0  0  0  0  0  0  0999 V2000
    6.1657   -0.9383    0.0000 C   0  0  0  0  0  0  0  0  0  0  0  0
   -4.2271   -0.9427    0.0000 C   0  0  0  0  0  0  0  0  0  0  0  0
    4.8668   -0.1881    0.0000 C   0  0  0  0  0  0  0  0  0  0  0  0
   -0.3254   -3.1805    0.0000 C   0  0  0  0  0  0  0  0  0  0  0  0
   -1.6245   -2.4305    0.0000 C   0  0  0  0  0  0  0  0  0  0  0  0
    0.9691   -2.4383    0.0000 C   0  0  0  0  0  0  0  0  0  0  0  0
   -0.3295   -0.1875    0.0000 C   0  0  0  0  0  0  0  0  0  0  0  0
   -2.9293   -0.1905    0.0000 C   0  0  0  0  0  0  0  0  0  0  0  0
   -1.6290   -0.9383    0.0000 C   0  0  0  0  0  0  0  0  0  0  0  0
    0.9696   -0.9375    0.0000 C   0  0  0  0  0  0  0  0  0  0  0  0
    2.2687   -0.1877    0.0000 C   0  0  0  0  0  0  0  0  0  0  0  0
   -2.9318    1.3095    0.0000 O   0  0  0  0  0  0  0  0  0  0  0  0
    2.2690    1.3123    0.0000 O   0  0  0  0  0  0  0  0  0  0  0  0
    3.5677   -0.9379    0.0000 O   0  0  0  0  0  0  0  0  0  0  0  0
  3  1  1  0
  5  4  2  0
  6  4  1  0
  8  2  1  0
  9  5  1  0
  9  7  2  0
  9  8  1  0
 10  6  2  0
 10  7  1  0
 11 10  1  0
 12  8  2  0
 13 11  2  0
 14  3  1  0
 14 11  1  0
M  END
>  <NAME>  (1568) 
ETHYL 3-ACETYLBENZOATE

>  <SYNONYMS>  (1568) 


>  <SPECTRUM TYPE>  (1568) 
MS1

>  <INSTRUMENT TYPE>  (1568) 
EI-B

>  <INSTRUMENT>  (1568) 
JEOL JMS-DX-300

>  <ION MODE>  (1568) 
P

>  <INCHIKEY>  (1568) 
KHTGDCLCPJJWEY-UHFFFAOYSA-N

>  <FORMULA>  (1568) 
C11H12O3

>  <EXACT MASS>  (1568) 
192.07864424399997

>  <MW>  (1568) 
192

>  <ID>  (1568) 
JP009663

>  <CONTRIBUTOR>  (1568) 
University of Tokyo Team, {Faculty of Engineering, University of Tokyo

>  <COMMENT>  (1568) 
SMILES=CCOC(=O)c(c1)cc(cc1)C(C)=O
InChI=InChI=1S/C11H12O3/c1-3-14-11(13)10-6-4-5-9(7-10)8(2)12/h4-7H,3H2,1-2H3
computed SMILES=O=C(OCC)C1=CC=CC(=C1)C(=O)C
accession=JP009663
date=2016.01.19 (Created 2008.10.21, modified 2011.05.06)
author=THE INSTITUTE OF SCIENTIFIC AND INDUSTRIALRESEARCH
license=CC BY-NC-SA
exact mass=192.07864
ionization energy=70 eV
ion type=[M]+*
computed spectral entropy=3.0935920216003048
computed normalized entropy=0.7991297824327603
SPLASH=splash10-004m-8900000000-bdb8a159708e3206216a
submitter=submitter = University of Tokyo Team (Faculty of Engineering, University of Tokyo)
MoNA Rating=3.75

>  <NUM PEAKS>  (1568) 
48

>  <MASS SPECTRAL PEAKS>  (1568) 
26 3.8
27 19.9
29 22.2
30 0.1
38 2
39 9
40 1.1
41 0.17
42 2.2
43 51.7
44 3
45 0.28
50 28.8
51 15.6
52 3
53 0.18
62 2.7
63 6.4
64 1.7
65 3.37
66 5
74 9.1
75 14.8
76 4.93
77 20.2
78 1.9
89 4.8
90 0.2
91 25.8
92 2.3
93 2.9
103 0.69
104 15.5
105 4.9
119 9.7
120 0.28
121 20
122 2.6
147 37.8
148 0.45
149 45.2
150 4
164 1.8
177 99.99
178 11.6
179 1
192 34.1
193 4.4

>  <PREDICTED SPECTRUM>  (1568) 
14 11
15 50
26 67
27 176
28 65
29 225
31 3
33 26
34 8
37 69
38 127
39 251
40 116
41 141
42 109
43 537
44 96
45 117
48 3
49 48
50 311
51 330
52 208
53 192
54 36
56 2
57 49
58 38
59 9
61 85
62 170
63 301
64 211
65 396
66 173
67 53
73 54
74 158
75 272
76 294
77 384
78 202
79 190
80 70
81 87
82 52
88 15
89 133
90 160
91 439
92 207
93 192
94 46
95 0
101 49
102 120
103 274
104 260
105 203
106 44
107 80
115 23
117 106
118 20
119 290
120 205
121 350
122 121
131 14
133 41
134 0
147 702
148 145
149 765
150 251
151 36
163 57
164 68
165 40
177 999
178 329
179 79
191 4
192 531
193 194
194 22

$$$$

     RDKit          2D

 18 20  0  0  0  0  0  0  0  0999 V2000
   -8.6244   -1.4378    0.0000 C   0  0  0  0  0  0  0  0  0  0  0  0
   -7.6189   -0.3247    0.0000 C   0  0  0  0  0  0  0  0  0  0  0  0
    3.6900    0.1600    0.0000 C   0  0  0  0  0  0  0  0  0  0  0  0
    3.2200   -1.2700    0.0000 C   0  0  0  0  0  0  0  0  0  0  0  0
    2.6800    1.2700    0.0000 C   0  0  0  0  0  0  0  0  0  0  0  0
    1.7500   -1.5800    0.0000 C   0  0  0  0  0  0  0  0  0  0  0  0
   -3.2200   -1.2700    0.0000 C   0  0  0  0  0  0  0  0  0  0  0  0
   -1.7500   -1.5800    0.0000 C   0  0  0  0  0  0  0  0  0  0  0  0
   -0.0000    1.8400    0.0000 C   0  0  0  0  0  0  0  0  0  0  0  0
   -2.6800    1.2700    0.0000 C   0  0  0  0  0  0  0  0  0  0  0  0
    1.2100    0.9600    0.0000 C   0  0  0  0  0  0  0  0  0  0  0  0
   -3.6800    0.1600    0.0000 C   0  0  0  0  0  0  0  0  0  0  0  0
   -1.2100    0.9600    0.0000 C   0  0  0  0  0  0  0  0  0  0  0  0
    0.7500   -0.4700    0.0000 C   0  0  0  0  0  0  0  0  0  0  0  0
   -0.7500   -0.4700    0.0000 C   0  0  0  0  0  0  0  0  0  0  0  0
   -5.1467    0.4742    0.0000 C   0  0  0  0  0  0  0  0  0  0  0  0
   -5.6080    1.9015    0.0000 O   0  0  0  0  0  0  0  0  0  0  0  0
   -6.1522   -0.6389    0.0000 O   0  0  0  0  0  0  0  0  0  0  0  0
  2  1  1  0
  4  3  2  0
  5  3  1  0
  6  4  1  0
  8  7  1  0
 11  5  2  0
 11  9  1  0
 12  7  2  0
 12 10  1  0
 13  9  1  0
 13 10  2  0
 14  6  2  0
 14 11  1  0
 15  8  2  0
 15 13  1  0
 15 14  1  0
 16 12  1  0
 17 16  2  0
 18  2  1  0
 18 16  1  0
M  END
>  <NAME>  (1569) 
ETHYL 2-FLUORENYLCARBOXYLATE

>  <SYNONYMS>  (1569) 


>  <SPECTRUM TYPE>  (1569) 
MS1

>  <INSTRUMENT TYPE>  (1569) 
EI-B

>  <INSTRUMENT>  (1569) 
JEOL JMS-DX-300

>  <ION MODE>  (1569) 
P

>  <INCHIKEY>  (1569) 
SAFAPOUNUGQSNS-UHFFFAOYSA-N

>  <FORMULA>  (1569) 
C16H14O2

>  <EXACT MASS>  (1569) 
238.099379688

>  <MW>  (1569) 
238

>  <ID>  (1569) 
JP009662

>  <CONTRIBUTOR>  (1569) 
University of Tokyo Team, {Faculty of Engineering, University of Tokyo

>  <COMMENT>  (1569) 
SMILES=CCOC(=O)c(c3)cc(C1)c(c3)c(c2)c(ccc2)1
InChI=InChI=1S/C16H14O2/c1-2-18-16(17)12-7-8-15-13(10-12)9-11-5-3-4-6-14(11)15/h3-8,10H,2,9H2,1H3
computed SMILES=O=C(OCC)C1=CC=C2C=3C=CC=CC3CC2=C1
accession=JP009662
date=2016.01.19 (Created 2008.10.21, modified 2011.05.06)
author=THE INSTITUTE OF SCIENTIFIC AND INDUSTRIALRESEARCH
license=CC BY-NC-SA
exact mass=238.09938
ionization energy=70 eV
ion type=[M]+*
computed spectral entropy=2.372271261940361
computed normalized entropy=0.6844927970489524
SPLASH=splash10-014r-1930000000-043152fe74f184dc9fb7
submitter=submitter = University of Tokyo Team (Faculty of Engineering, University of Tokyo)
MoNA Rating=3.75

>  <NUM PEAKS>  (1569) 
32

>  <MASS SPECTRAL PEAKS>  (1569) 
27 1.6
29 8.7
40 1.2
44 0.6
63 1.6
70 2.8
81 1.2
82 0.44
83 7.3
89 1
91 3.8
96 0.37
97 5.8
115 2.8
139 3.5
152 0.13
162 1.4
163 11.6
164 12.9
165 99.99
166 23.3
167 2.5
179 1.9
192 0.22
193 30.3
194 5.4
209 7.6
210 0.81
211 1
238 62.8
239 11.4
240 1.1

>  <PREDICTED SPECTRUM>  (1569) 
26 0
27 26
29 80
39 88
43 3
44 26
45 115
49 10
50 106
51 150
52 23
55 71
61 18
62 106
63 177
64 47
65 50
69 41
74 117
75 115
76 179
77 43
81 110
82 265
83 159
84 28
85 12
86 71
87 87
88 145
89 139
90 43
91 53
93 4
94 18
95 68
96 78
97 76
98 70
99 50
106 0
110 40
111 94
113 30
115 86
123 13
126 36
137 78
138 31
139 182
152 29
161 14
162 145
163 395
164 453
165 999
166 425
167 140
178 10
179 65
189 90
192 29
193 754
194 243
195 63
209 161
210 183
211 31
223 60
238 797
239 300
240 90

$$$$

     RDKit          2D

 14 14  0  0  0  0  0  0  0  0999 V2000
    6.4962    0.7508    0.0000 C   0  0  0  0  0  0  0  0  0  0  0  0
   -3.8981   -0.7504    0.0000 C   0  0  0  0  0  0  0  0  0  0  0  0
    5.1970    1.5006    0.0000 C   0  0  0  0  0  0  0  0  0  0  0  0
   -1.3000    0.7500    0.0000 C   0  0  0  0  0  0  0  0  0  0  0  0
    0.0000   -1.5000    0.0000 C   0  0  0  0  0  0  0  0  0  0  0  0
    0.0000    1.5000    0.0000 C   0  0  0  0  0  0  0  0  0  0  0  0
    1.3000   -0.7500    0.0000 C   0  0  0  0  0  0  0  0  0  0  0  0
   -2.5989   -1.5002    0.0000 C   0  0  0  0  0  0  0  0  0  0  0  0
   -1.3000   -0.7500    0.0000 C   0  0  0  0  0  0  0  0  0  0  0  0
    1.3000    0.7500    0.0000 C   0  0  0  0  0  0  0  0  0  0  0  0
    2.5989    1.5002    0.0000 C   0  0  0  0  0  0  0  0  0  0  0  0
   -2.5987   -3.0002    0.0000 O   0  0  0  0  0  0  0  0  0  0  0  0
    2.5987    3.0002    0.0000 O   0  0  0  0  0  0  0  0  0  0  0  0
    3.8981    0.7504    0.0000 O   0  0  0  0  0  0  0  0  0  0  0  0
  3  1  1  0
  6  4  2  0
  7  5  1  0
  8  2  1  0
  9  4  1  0
  9  5  2  0
  9  8  1  0
 10  6  1  0
 10  7  2  0
 11 10  1  0
 12  8  2  0
 13 11  2  0
 14  3  1  0
 14 11  1  0
M  END
>  <NAME>  (1570) 
ETHYL 4-ACETYLBENZOATE

>  <SYNONYMS>  (1570) 


>  <SPECTRUM TYPE>  (1570) 
MS1

>  <INSTRUMENT TYPE>  (1570) 
EI-B

>  <INSTRUMENT>  (1570) 
JEOL JMS-DX-300

>  <ION MODE>  (1570) 
P

>  <INCHIKEY>  (1570) 
GLOAPLPTWAXAIG-UHFFFAOYSA-N

>  <FORMULA>  (1570) 
C11H12O3

>  <EXACT MASS>  (1570) 
192.07864424399997

>  <MW>  (1570) 
192

>  <ID>  (1570) 
JP009661

>  <CONTRIBUTOR>  (1570) 
University of Tokyo Team, {Faculty of Engineering, University of Tokyo

>  <COMMENT>  (1570) 
SMILES=CCOC(=O)c(c1)ccc(C(C)=O)c1
InChI=InChI=1S/C11H12O3/c1-3-14-11(13)10-6-4-9(5-7-10)8(2)12/h4-7H,3H2,1-2H3
computed SMILES=O=C(OCC)C1=CC=C(C=C1)C(=O)C
accession=JP009661
date=2016.01.19 (Created 2008.10.21, modified 2011.05.06)
author=THE INSTITUTE OF SCIENTIFIC AND INDUSTRIALRESEARCH
license=CC BY-NC-SA
exact mass=192.07864
ionization energy=70 eV
ion type=[M]+*
computed spectral entropy=2.8126628451356117
computed normalized entropy=0.7478099432677909
SPLASH=splash10-004l-5900000000-361dc600187923d66195
submitter=submitter = University of Tokyo Team (Faculty of Engineering, University of Tokyo)
MoNA Rating=3.75

>  <NUM PEAKS>  (1570) 
43

>  <MASS SPECTRAL PEAKS>  (1570) 
26 1.8
27 9.5
29 10.4
39 0.37
40 1.4
42 1
43 26.1
44 0.17
45 1.8
50 12.7
51 6
52 0.16
53 1
63 2.9
65 14.7
66 0.28
74 4.2
75 7.1
76 20.2
77 0.81
89 2.5
90 1.9
91 11.5
93 0.14
103 5.9
104 15.1
105 2.8
107 0.1
119 6
120 1.6
121 9.1
122 0.16
132 1.4
147 36
148 4
149 3.5
150 3.3
164 2.2
177 99.99
178 1.14
179 1.1
192 39.3
193 4.9

>  <PREDICTED SPECTRUM>  (1570) 
14 2
15 41
26 25
27 134
28 64
29 208
33 13
34 15
37 44
38 111
39 208
40 108
41 161
42 116
43 545
44 131
45 207
46 28
47 16
49 35
50 329
51 271
52 172
53 209
54 34
57 70
58 42
59 60
60 17
61 82
62 139
63 272
64 180
65 387
66 176
67 49
68 1
71 38
72 26
73 83
74 210
75 288
76 334
77 319
78 130
79 97
80 16
81 69
82 46
83 0
84 44
85 75
89 117
90 142
91 369
92 197
93 118
94 27
96 2
101 29
102 123
103 365
104 324
105 109
115 83
117 50
119 233
120 188
121 253
122 70
131 31
133 26
134 21
147 832
148 255
149 713
150 313
151 88
164 190
165 72
177 999
178 351
179 132
191 9
192 472
193 186
194 36

$$$$

     RDKit          2D

 13 13  0  0  0  0  0  0  0  0999 V2000
   -4.5447   -0.3735    0.0000 C   0  0  0  0  0  0  0  0  0  0  0  0
   -3.2458   -1.1237    0.0000 C   0  0  0  0  0  0  0  0  0  0  0  0
    1.9465    1.8687    0.0000 C   0  0  0  0  0  0  0  0  0  0  0  0
    3.2455    1.1187    0.0000 C   0  0  0  0  0  0  0  0  0  0  0  0
    0.6520    1.1265    0.0000 C   0  0  0  0  0  0  0  0  0  0  0  0
    1.9505   -1.1243    0.0000 C   0  0  0  0  0  0  0  0  0  0  0  0
    4.5503   -1.1213    0.0000 C   0  0  0  0  0  0  0  0  0  0  0  0
    3.2500   -0.3735    0.0000 C   0  0  0  0  0  0  0  0  0  0  0  0
    0.6515   -0.3743    0.0000 C   0  0  0  0  0  0  0  0  0  0  0  0
   -0.6477   -1.1241    0.0000 C   0  0  0  0  0  0  0  0  0  0  0  0
    5.8506   -1.8691    0.0000 N   0  0  0  0  0  0  0  0  0  0  0  0
   -0.6479   -2.6241    0.0000 O   0  0  0  0  0  0  0  0  0  0  0  0
   -1.9466   -0.3739    0.0000 O   0  0  0  0  0  0  0  0  0  0  0  0
  2  1  1  0
  4  3  2  0
  5  3  1  0
  8  4  1  0
  8  6  2  0
  8  7  1  0
  9  5  2  0
  9  6  1  0
 10  9  1  0
 11  7  3  0
 12 10  2  0
 13  2  1  0
 13 10  1  0
M  END
>  <NAME>  (1571) 
ETHYL 3-CYANOBENZOATE

>  <SYNONYMS>  (1571) 


>  <SPECTRUM TYPE>  (1571) 
MS1

>  <INSTRUMENT TYPE>  (1571) 
EI-B

>  <INSTRUMENT>  (1571) 
JEOL JMS-DX-300

>  <ION MODE>  (1571) 
P

>  <INCHIKEY>  (1571) 
ZKXMKMLGUYSGNS-UHFFFAOYSA-N

>  <FORMULA>  (1571) 
C10H9NO2

>  <EXACT MASS>  (1571) 
175.063328528

>  <MW>  (1571) 
175

>  <ID>  (1571) 
JP009660

>  <CONTRIBUTOR>  (1571) 
University of Tokyo Team, {Faculty of Engineering, University of Tokyo

>  <COMMENT>  (1571) 
SMILES=CCOC(=O)c(c1)cc(C#N)cc1
InChI=InChI=1S/C10H9NO2/c1-2-13-10(12)9-5-3-4-8(6-9)7-11/h3-6H,2H2,1H3
computed SMILES=N#CC1=CC=CC(=C1)C(=O)OCC
accession=JP009660
date=2016.01.19 (Created 2008.10.21, modified 2011.05.06)
author=THE INSTITUTE OF SCIENTIFIC AND INDUSTRIALRESEARCH
license=CC BY-NC-SA
exact mass=175.06333
ionization energy=70 eV
ion type=[M]+*
computed spectral entropy=2.570894184147224
computed normalized entropy=0.7231061881098134
SPLASH=splash10-0faj-3900000000-0058e3f1346a36897998
submitter=submitter = University of Tokyo Team (Faculty of Engineering, University of Tokyo)
MoNA Rating=3.75

>  <NUM PEAKS>  (1571) 
35

>  <MASS SPECTRAL PEAKS>  (1571) 
26 1.8
27 11
29 12
38 0.14
39 2.6
41 1.6
43 2.5
44 0.1
45 13.4
50 8.3
51 11
52 0.28
56 1.3
57 1.9
63 1.2
74 0.28
75 15.5
76 11
77 1.7
78 0.4
101 1.7
102 46
103 17.9
104 0.17
129 1.1
130 99.99
131 11
132 0.1
147 46.7
148 5.9
157 2.7
160 0.12
174 2.9
175 34.9
176 4.5

>  <PREDICTED SPECTRUM>  (1571) 
14 23
15 38
16 0
25 17
26 109
27 211
28 105
29 326
36 29
37 115
38 146
39 171
40 61
41 49
43 125
44 34
45 185
49 119
50 274
51 287
52 179
53 104
61 74
62 74
63 62
64 117
73 109
74 247
75 365
76 344
77 81
84 2
99 15
101 133
102 574
103 352
104 80
120 30
129 85
130 999
131 299
132 71
147 625
148 258
149 66
160 52
161 8
174 84
175 337
176 115

$$$$

     RDKit          2D

 13 13  0  0  0  0  0  0  0  0999 V2000
    6.4962    0.7508    0.0000 C   0  0  0  0  0  0  0  0  0  0  0  0
    5.1970    1.5006    0.0000 C   0  0  0  0  0  0  0  0  0  0  0  0
   -1.3000    0.7500    0.0000 C   0  0  0  0  0  0  0  0  0  0  0  0
    0.0000   -1.5000    0.0000 C   0  0  0  0  0  0  0  0  0  0  0  0
    0.0000    1.5000    0.0000 C   0  0  0  0  0  0  0  0  0  0  0  0
    1.3000   -0.7500    0.0000 C   0  0  0  0  0  0  0  0  0  0  0  0
   -2.5989   -1.5002    0.0000 C   0  0  0  0  0  0  0  0  0  0  0  0
   -1.3000   -0.7500    0.0000 C   0  0  0  0  0  0  0  0  0  0  0  0
    1.3000    0.7500    0.0000 C   0  0  0  0  0  0  0  0  0  0  0  0
    2.5989    1.5002    0.0000 C   0  0  0  0  0  0  0  0  0  0  0  0
   -3.8978   -2.2504    0.0000 N   0  0  0  0  0  0  0  0  0  0  0  0
    2.5987    3.0002    0.0000 O   0  0  0  0  0  0  0  0  0  0  0  0
    3.8981    0.7504    0.0000 O   0  0  0  0  0  0  0  0  0  0  0  0
  2  1  1  0
  5  3  2  0
  6  4  1  0
  8  3  1  0
  8  4  2  0
  8  7  1  0
  9  5  1  0
  9  6  2  0
 10  9  1  0
 11  7  3  0
 12 10  2  0
 13  2  1  0
 13 10  1  0
M  END
>  <NAME>  (1572) 
ETHYL 4-CYANOBENZOATE

>  <SYNONYMS>  (1572) 


>  <SPECTRUM TYPE>  (1572) 
MS1

>  <INSTRUMENT TYPE>  (1572) 
EI-B

>  <INSTRUMENT>  (1572) 
JEOL JMS-DX-300

>  <ION MODE>  (1572) 
P

>  <INCHIKEY>  (1572) 
JLSSWDFCYXSLQX-UHFFFAOYSA-N

>  <FORMULA>  (1572) 
C10H9NO2

>  <EXACT MASS>  (1572) 
175.063328528

>  <MW>  (1572) 
175

>  <ID>  (1572) 
JP009659

>  <CONTRIBUTOR>  (1572) 
University of Tokyo Team, {Faculty of Engineering, University of Tokyo

>  <COMMENT>  (1572) 
SMILES=CCOC(=O)c(c1)ccc(C#N)c1
InChI=InChI=1S/C10H9NO2/c1-2-13-10(12)9-5-3-8(7-11)4-6-9/h3-6H,2H2,1H3
computed SMILES=N#CC1=CC=C(C=C1)C(=O)OCC
accession=JP009659
date=2016.01.19 (Created 2008.10.21, modified 2011.05.06)
author=THE INSTITUTE OF SCIENTIFIC AND INDUSTRIALRESEARCH
license=CC BY-NC-SA
exact mass=175.06333
ionization energy=70 eV
ion type=[M]+*
computed spectral entropy=2.4085789633152412
computed normalized entropy=0.7228184692627406
SPLASH=splash10-001j-3900000000-0e4c812845badb2063a3
submitter=submitter = University of Tokyo Team (Faculty of Engineering, University of Tokyo)
MoNA Rating=3.75

>  <NUM PEAKS>  (1572) 
28

>  <MASS SPECTRAL PEAKS>  (1572) 
26 1.7
27 8.8
29 9.8
38 0.1
39 1.3
40 1
43 1.5
44 0.16
45 17.9
50 7.6
51 9.9
52 0.2
74 2.5
75 13.7
76 9.1
101 0.17
102 43.2
103 10.5
104 1.2
130 99.99
131 11.8
132 1
147 43
148 0.49
160 1
174 3.5
175 30
176 3.7

>  <PREDICTED SPECTRUM>  (1572) 
14 10
15 43
25 17
26 130
27 275
28 144
29 419
30 51
36 3
37 77
38 120
39 106
40 51
41 117
42 5
43 128
44 45
45 158
49 102
50 267
51 293
52 180
53 101
54 9
55 94
56 64
57 5
61 71
62 90
63 108
64 99
73 146
74 255
75 396
76 334
77 73
78 28
84 87
95 26
99 34
101 204
102 693
103 359
104 82
119 67
120 27
129 72
130 999
131 298
132 115
147 541
148 258
174 63
175 377
176 138

$$$$

     RDKit          2D

 17 18  0  0  0  0  0  0  0  0999 V2000
    6.4962    0.7508    0.0000 C   0  0  0  0  0  0  0  0  0  0  0  0
    5.1970    1.5006    0.0000 C   0  0  0  0  0  0  0  0  0  0  0  0
   -5.1968   -3.0006    0.0000 C   0  0  0  0  0  0  0  0  0  0  0  0
   -3.8971   -3.7512    0.0000 C   0  0  0  0  0  0  0  0  0  0  0  0
   -5.1975   -1.4998    0.0000 C   0  0  0  0  0  0  0  0  0  0  0  0
   -2.5982   -3.0010    0.0000 C   0  0  0  0  0  0  0  0  0  0  0  0
   -3.8986   -0.7496    0.0000 C   0  0  0  0  0  0  0  0  0  0  0  0
   -1.3000    0.7500    0.0000 C   0  0  0  0  0  0  0  0  0  0  0  0
   -0.0000   -1.5000    0.0000 C   0  0  0  0  0  0  0  0  0  0  0  0
    0.0000    1.5000    0.0000 C   0  0  0  0  0  0  0  0  0  0  0  0
    1.3000   -0.7500    0.0000 C   0  0  0  0  0  0  0  0  0  0  0  0
   -2.5989   -1.5002    0.0000 C   0  0  0  0  0  0  0  0  0  0  0  0
   -1.3000   -0.7500    0.0000 C   0  0  0  0  0  0  0  0  0  0  0  0
    1.3000    0.7500    0.0000 C   0  0  0  0  0  0  0  0  0  0  0  0
    2.5989    1.5002    0.0000 C   0  0  0  0  0  0  0  0  0  0  0  0
    2.5987    3.0002    0.0000 O   0  0  0  0  0  0  0  0  0  0  0  0
    3.8981    0.7504    0.0000 O   0  0  0  0  0  0  0  0  0  0  0  0
  2  1  1  0
  4  3  2  0
  5  3  1  0
  6  4  1  0
  7  5  2  0
 10  8  2  0
 11  9  1  0
 12  6  2  0
 12  7  1  0
 13  8  1  0
 13  9  2  0
 13 12  1  0
 14 10  1  0
 14 11  2  0
 15 14  1  0
 16 15  2  0
 17  2  1  0
 17 15  1  0
M  END
>  <NAME>  (1573) 
ETHYL 4-PHENYLBENZOATE

>  <SYNONYMS>  (1573) 


>  <SPECTRUM TYPE>  (1573) 
MS1

>  <INSTRUMENT TYPE>  (1573) 
EI-B

>  <INSTRUMENT>  (1573) 
JEOL JMS-DX-300

>  <ION MODE>  (1573) 
P

>  <INCHIKEY>  (1573) 
FFQZMOHAQYZTNR-UHFFFAOYSA-N

>  <FORMULA>  (1573) 
C15H14O2

>  <EXACT MASS>  (1573) 
226.099379688

>  <MW>  (1573) 
226

>  <ID>  (1573) 
JP009658

>  <CONTRIBUTOR>  (1573) 
University of Tokyo Team, {Faculty of Engineering, University of Tokyo

>  <COMMENT>  (1573) 
SMILES=CCOC(=O)c(c2)ccc(c2)c(c1)cccc1
InChI=InChI=1S/C15H14O2/c1-2-17-15(16)14-10-8-13(9-11-14)12-6-4-3-5-7-12/h3-11H,2H2,1H3
computed SMILES=O=C(OCC)C=1C=CC(=CC1)C=2C=CC=CC2
accession=JP009658
date=2016.01.19 (Created 2008.10.21, modified 2011.05.06)
author=THE INSTITUTE OF SCIENTIFIC AND INDUSTRIALRESEARCH
license=CC BY-NC-SA
exact mass=226.09938
ionization energy=70 eV
ion type=[M]+*
computed spectral entropy=2.922128813331113
computed normalized entropy=0.7325496365040498
SPLASH=splash10-0fai-3900000000-34097a960e9b95c390ef
submitter=submitter = University of Tokyo Team (Faculty of Engineering, University of Tokyo)
MoNA Rating=3.75

>  <NUM PEAKS>  (1573) 
54

>  <MASS SPECTRAL PEAKS>  (1573) 
26 4.2
27 23
28 15.8
29 3.28
30 2.2
38 1.8
39 5.1
42 0.11
43 9.8
44 1.8
45 9
50 0.55
51 7
52 1.6
62 1.4
63 0.44
74 3.6
75 5.8
76 12.2
77 0.6
78 1
87 2.7
89 1.7
91 0.47
98 1
99 1.1
101 2.5
102 0.59
103 1.1
113 1.3
115 2.9
125 0.11
126 9.2
127 9.5
128 1.7
139 0.11
150 7.3
151 23.9
152 78.7
153 4.04
154 8.6
155 1
167 1.1
180 0.12
181 99.99
182 18
183 1.9
198 3.27
199 5.1
211 1.4
225 1.8
226 6.06
227 10.1
228 1.5

>  <PREDICTED SPECTRUM>  (1573) 
15 0
26 31
27 116
28 0
29 176
30 9
31 39
38 23
39 120
40 6
41 47
43 71
44 54
45 129
49 46
50 171
51 212
52 67
53 10
55 8
62 97
63 194
64 31
65 47
69 76
70 67
73 0
74 159
75 187
76 281
77 233
78 75
82 71
83 59
84 56
86 56
87 89
88 57
89 57
97 35
98 104
99 64
100 14
101 48
102 66
103 29
105 117
113 49
115 230
116 2
124 0
125 105
126 258
127 229
141 45
149 48
150 263
151 434
152 841
153 555
154 248
155 37
179 65
181 999
182 328
183 82
198 233
199 146
200 9
211 140
212 0
226 655
227 257
228 70

$$$$

     RDKit          2D

 19 21  0  0  0  0  0  0  0  0999 V2000
   -8.6262   -0.0492    0.0000 C   0  0  0  0  0  0  0  0  0  0  0  0
   -7.3270    0.7006    0.0000 C   0  0  0  0  0  0  0  0  0  0  0  0
    3.0600    2.2000    0.0000 C   0  0  0  0  0  0  0  0  0  0  0  0
    1.7600    2.9500    0.0000 C   0  0  0  0  0  0  0  0  0  0  0  0
    3.0600    0.7000    0.0000 C   0  0  0  0  0  0  0  0  0  0  0  0
    0.4600    2.2000    0.0000 C   0  0  0  0  0  0  0  0  0  0  0  0
    1.7600   -1.5500    0.0000 C   0  0  0  0  0  0  0  0  0  0  0  0
    0.4600   -2.3000    0.0000 C   0  0  0  0  0  0  0  0  0  0  0  0
   -2.1300   -2.3000    0.0000 C   0  0  0  0  0  0  0  0  0  0  0  0
   -3.4300   -1.5500    0.0000 C   0  0  0  0  0  0  0  0  0  0  0  0
   -2.1300    0.7000    0.0000 C   0  0  0  0  0  0  0  0  0  0  0  0
    1.7600   -0.0500    0.0000 C   0  0  0  0  0  0  0  0  0  0  0  0
   -0.8300   -1.5500    0.0000 C   0  0  0  0  0  0  0  0  0  0  0  0
   -3.4300   -0.0500    0.0000 C   0  0  0  0  0  0  0  0  0  0  0  0
    0.4600    0.7000    0.0000 C   0  0  0  0  0  0  0  0  0  0  0  0
   -0.8300   -0.0500    0.0000 C   0  0  0  0  0  0  0  0  0  0  0  0
   -4.7289    0.7002    0.0000 C   0  0  0  0  0  0  0  0  0  0  0  0
   -4.7287    2.2002    0.0000 O   0  0  0  0  0  0  0  0  0  0  0  0
   -6.0281   -0.0496    0.0000 O   0  0  0  0  0  0  0  0  0  0  0  0
  2  1  1  0
  4  3  2  0
  5  3  1  0
  6  4  1  0
  8  7  2  0
 10  9  1  0
 12  5  2  0
 12  7  1  0
 13  8  1  0
 13  9  2  0
 14 10  2  0
 14 11  1  0
 15  6  2  0
 15 12  1  0
 16 11  2  0
 16 13  1  0
 16 15  1  0
 17 14  1  0
 18 17  2  0
 19  2  1  0
 19 17  1  0
M  END
>  <NAME>  (1574) 
ETHYL 3-PHENANTHRYLCARBOXYLATE

>  <SYNONYMS>  (1574) 


>  <SPECTRUM TYPE>  (1574) 
MS1

>  <INSTRUMENT TYPE>  (1574) 
EI-B

>  <INSTRUMENT>  (1574) 
JEOL JMS-DX-300

>  <ION MODE>  (1574) 
P

>  <INCHIKEY>  (1574) 
XGGPWBCYWFCCES-UHFFFAOYSA-N

>  <FORMULA>  (1574) 
C17H14O2

>  <EXACT MASS>  (1574) 
250.099379688

>  <MW>  (1574) 
250

>  <ID>  (1574) 
JP009657

>  <CONTRIBUTOR>  (1574) 
University of Tokyo Team, {Faculty of Engineering, University of Tokyo

>  <COMMENT>  (1574) 
SMILES=CCOC(=O)c(c3)cc(c(c3)1)c(c2)c(ccc2)cc1
InChI=InChI=1S/C17H14O2/c1-2-19-17(18)14-10-9-13-8-7-12-5-3-4-6-15(12)16(13)11-14/h3-11H,2H2,1H3
computed SMILES=O=C(OCC)C=1C=CC=2C=CC=3C=CC=CC3C2C1
accession=JP009657
date=2016.01.19 (Created 2008.10.21, modified 2011.05.06)
author=THE INSTITUTE OF SCIENTIFIC AND INDUSTRIALRESEARCH
license=CC BY-NC-SA
exact mass=250.09938
ionization energy=70 eV
ion type=[M]+*
computed spectral entropy=2.9432291462518747
computed normalized entropy=0.7248541941377477
SPLASH=splash10-0zi0-4690000000-5cabad21242ce9b26bc1
submitter=submitter = University of Tokyo Team (Faculty of Engineering, University of Tokyo)
MoNA Rating=3.75

>  <NUM PEAKS>  (1574) 
58

>  <MASS SPECTRAL PEAKS>  (1574) 
26 3.7
27 19.6
28 18.2
29 3.01
30 1.7
32 1
38 1.1
39 0.2
42 1.4
43 8.7
44 1.1
45 1.21
50 2.1
51 1.7
62 1.2
63 0.29
74 3.3
75 4
76 1.9
77 0.17
86 1.4
87 3.2
88 15.8
89 0.75
98 1.9
99 2.4
100 1
102 0.12
103 5.9
111 1
125 1.5
126 0.34
127 1.2
139 1.2
149 2.8
150 1.4
151 21.4
152 4.5
163 1.7
164 0.13
165 3.2
174 6.7
175 9.9
176 6.06
177 66.8
178 18.3
179 2.8
204 0.15
205 70.3
206 14.5
207 1.7
222 2.71
223 4.7
235 3.9
249 1.4
250 99.99
251 19.5
252 2.5

>  <PREDICTED SPECTRUM>  (1574) 
26 26
27 106
28 23
29 163
39 61
43 102
44 57
45 136
49 43
50 142
51 191
52 44
55 55
61 10
62 98
63 136
64 2
65 56
74 176
75 285
76 229
77 106
78 19
81 33
82 131
83 24
84 41
86 57
87 123
88 261
89 76
91 49
95 9
98 157
99 122
100 73
101 63
102 77
103 41
104 21
105 40
106 63
110 32
111 87
112 48
113 7
120 66
122 28
123 54
124 10
125 120
126 86
127 46
128 22
137 62
139 39
140 20
149 235
150 255
151 361
152 134
159 19
161 8
164 56
165 93
166 20
174 196
175 208
176 380
177 748
178 448
179 183
191 66
192 30
193 26
194 18
201 42
204 61
205 999
206 418
207 145
220 31
221 97
222 336
223 223
233 18
234 64
235 166
236 12
249 21
250 962
251 350
252 98

$$$$

     RDKit          2D

 16 17  0  0  0  0  0  0  0  0999 V2000
    3.7781    7.2300    0.0000 C   0  0  0  0  0  0  0  0  0  0  0  0
    3.7781    5.7300    0.0000 C   0  0  0  0  0  0  0  0  0  0  0  0
   -2.7200   -1.0200    0.0000 C   0  0  0  0  0  0  0  0  0  0  0  0
   -2.7200    0.4800    0.0000 C   0  0  0  0  0  0  0  0  0  0  0  0
    2.4800   -1.0200    0.0000 C   0  0  0  0  0  0  0  0  0  0  0  0
   -1.4200   -1.7700    0.0000 C   0  0  0  0  0  0  0  0  0  0  0  0
    1.1800   -1.7700    0.0000 C   0  0  0  0  0  0  0  0  0  0  0  0
    2.4800    0.4800    0.0000 C   0  0  0  0  0  0  0  0  0  0  0  0
   -1.4200    1.2300    0.0000 C   0  0  0  0  0  0  0  0  0  0  0  0
    1.1800    2.7300    0.0000 C   0  0  0  0  0  0  0  0  0  0  0  0
   -0.1200   -1.0200    0.0000 C   0  0  0  0  0  0  0  0  0  0  0  0
    1.1800    1.2300    0.0000 C   0  0  0  0  0  0  0  0  0  0  0  0
   -0.1200    0.4800    0.0000 C   0  0  0  0  0  0  0  0  0  0  0  0
    2.4790    3.4800    0.0000 C   0  0  0  0  0  0  0  0  0  0  0  0
    3.7781    2.7300    0.0000 O   0  0  0  0  0  0  0  0  0  0  0  0
    2.4790    4.9800    0.0000 O   0  0  0  0  0  0  0  0  0  0  0  0
  2  1  1  0
  4  3  2  0
  6  3  1  0
  7  5  2  0
  8  5  1  0
  9  4  1  0
 11  6  2  0
 11  7  1  0
 12  8  2  0
 12 10  1  0
 13  9  2  0
 13 11  1  0
 13 12  1  0
 14 10  1  0
 15 14  2  0
 16  2  1  0
 16 14  1  0
M  END
>  <NAME>  (1575) 
ETHYL 1-NAPHTHYLACETATE

>  <SYNONYMS>  (1575) 


>  <SPECTRUM TYPE>  (1575) 
MS1

>  <INSTRUMENT TYPE>  (1575) 
EI-B

>  <INSTRUMENT>  (1575) 
JEOL JMS-DX-300

>  <ION MODE>  (1575) 
P

>  <INCHIKEY>  (1575) 
XIDPSKQLXKCVQN-UHFFFAOYSA-N

>  <FORMULA>  (1575) 
C14H14O2

>  <EXACT MASS>  (1575) 
214.099379688

>  <MW>  (1575) 
214

>  <ID>  (1575) 
JP009656

>  <CONTRIBUTOR>  (1575) 
University of Tokyo Team, {Faculty of Engineering, University of Tokyo

>  <COMMENT>  (1575) 
SMILES=CCOC(=O)Cc(c1)c(c2)c(ccc2)cc1
InChI=InChI=1S/C14H14O2/c1-2-16-14(15)10-12-8-5-7-11-6-3-4-9-13(11)12/h3-9H,2,10H2,1H3
computed SMILES=O=C(OCC)CC1=CC=CC=2C=CC=CC21
accession=JP009656
date=2016.01.19 (Created 2008.10.21, modified 2011.05.06)
author=THE INSTITUTE OF SCIENTIFIC AND INDUSTRIALRESEARCH
license=CC BY-NC-SA
exact mass=214.09938
ion type=[M]+*
ionization energy=70 eV
computed spectral entropy=1.6963778643874308
computed normalized entropy=0.5761294006736961
SPLASH=splash10-0006-1930000000-28e2d7db8a4690dbdc6c
submitter=submitter = University of Tokyo Team (Faculty of Engineering, University of Tokyo)
MoNA Rating=3.75

>  <NUM PEAKS>  (1575) 
19

>  <MASS SPECTRAL PEAKS>  (1575) 
27 1.2
29 6.8
39 1
44 0.14
58 1.9
63 1.9
65 1
71 0.47
89 1.6
91 2.7
105 2.1
115 1.49
116 1.4
139 7.7
140 2.7
141 99.99
142 14.1
214 45.1
215 7.6

>  <PREDICTED SPECTRUM>  (1575) 
26 20
27 111
28 12
29 172
31 2
39 35
43 3
44 26
50 37
51 77
57 6
59 2
62 33
63 124
64 59
65 76
69 6
70 11
74 17
75 49
76 79
77 90
78 38
82 5
86 37
87 17
89 113
102 41
113 49
115 351
116 115
127 1
128 121
138 6
139 269
140 159
141 999
142 387
143 132
167 11
168 33
169 68
170 25
185 10
214 676
215 232
216 42

$$$$

     RDKit          2D

 19 20  0  0  0  0  0  0  0  0999 V2000
   -6.8078    0.9337    0.0000 C   0  0  0  0  0  0  0  0  0  0  0  0
   -5.5124    0.1773    0.0000 C   0  0  0  0  0  0  0  0  0  0  0  0
    7.4785    0.1752    0.0000 C   0  0  0  0  0  0  0  0  0  0  0  0
    7.4906   -1.3248    0.0000 C   0  0  0  0  0  0  0  0  0  0  0  0
    6.1724    0.9146    0.0000 C   0  0  0  0  0  0  0  0  0  0  0  0
    6.1967   -2.0853    0.0000 C   0  0  0  0  0  0  0  0  0  0  0  0
    4.8786    0.1541    0.0000 C   0  0  0  0  0  0  0  0  0  0  0  0
    0.9827    0.9017    0.0000 C   0  0  0  0  0  0  0  0  0  0  0  0
   -0.3309   -1.3231    0.0000 C   0  0  0  0  0  0  0  0  0  0  0  0
    2.2672    0.1769    0.0000 C   0  0  0  0  0  0  0  0  0  0  0  0
    0.9937   -2.1173    0.0000 C   0  0  0  0  0  0  0  0  0  0  0  0
   -1.6117    0.9081    0.0000 C   0  0  0  0  0  0  0  0  0  0  0  0
   -0.3163    0.1517    0.0000 C   0  0  0  0  0  0  0  0  0  0  0  0
    4.8907   -1.3458    0.0000 C   0  0  0  0  0  0  0  0  0  0  0  0
    2.2927   -1.3673    0.0000 C   0  0  0  0  0  0  0  0  0  0  0  0
   -2.9144    0.1645    0.0000 C   0  0  0  0  0  0  0  0  0  0  0  0
   -2.9218   -1.3355    0.0000 O   0  0  0  0  0  0  0  0  0  0  0  0
   -4.2097    0.9209    0.0000 O   0  0  0  0  0  0  0  0  0  0  0  0
    3.5979   -2.1065    0.0000 O   0  0  0  0  0  0  0  0  0  0  0  0
  2  1  1  0
  4  3  2  0
  5  3  1  0
  6  4  1  0
  7  5  2  0
 10  8  2  0
 11  9  1  0
 13  8  1  0
 13  9  2  0
 13 12  1  0
 14  6  2  0
 14  7  1  0
 15 10  1  0
 15 11  2  0
 16 12  1  0
 17 16  2  0
 18  2  1  0
 18 16  1  0
 19 14  1  0
 19 15  1  0
M  END
>  <NAME>  (1576) 
ETHYL 4-PHENOXYPHENYLACETATE

>  <SYNONYMS>  (1576) 


>  <SPECTRUM TYPE>  (1576) 
MS1

>  <INSTRUMENT TYPE>  (1576) 
EI-B

>  <INSTRUMENT>  (1576) 
JEOL JMS-DX-300

>  <ION MODE>  (1576) 
P

>  <INCHIKEY>  (1576) 
CPYLMUNOJSVCRZ-UHFFFAOYSA-N

>  <FORMULA>  (1576) 
C16H16O3

>  <EXACT MASS>  (1576) 
256.109944372

>  <MW>  (1576) 
256

>  <ID>  (1576) 
JP009655

>  <CONTRIBUTOR>  (1576) 
University of Tokyo Team, {Faculty of Engineering, University of Tokyo

>  <COMMENT>  (1576) 
SMILES=CCOC(=O)Cc(c2)ccc(c2)Oc(c1)cccc1
InChI=InChI=1S/C16H16O3/c1-2-18-16(17)12-13-8-10-15(11-9-13)19-14-6-4-3-5-7-14/h3-11H,2,12H2,1H3
computed SMILES=O=C(OCC)CC1=CC=C(OC=2C=CC=CC2)C=C1
accession=JP009655
date=2016.01.19 (Created 2008.10.21, modified 2011.05.06)
author=THE INSTITUTE OF SCIENTIFIC AND INDUSTRIALRESEARCH
license=CC BY-NC-SA
exact mass=256.10994
ionization energy=70 eV
ion type=[M]+*
computed spectral entropy=2.1990545593213726
computed normalized entropy=0.6090015371496041
SPLASH=splash10-001i-3930000000-e27affa5696c313cb4c5
submitter=submitter = University of Tokyo Team (Faculty of Engineering, University of Tokyo)
MoNA Rating=3.75

>  <NUM PEAKS>  (1576) 
37

>  <MASS SPECTRAL PEAKS>  (1576) 
27 1.7
29 5.2
39 1.8
43 0.12
44 4.5
50 1.1
51 6.1
55 0.12
57 1.8
63 1.6
65 1
76 0.11
77 13.8
78 2.2
89 4.8
90 0.3
91 5
92 3.3
105 2.4
107 0.61
115 1.5
119 1.3
127 1
128 0.11
129 1.4
149 1.4
153 2.1
154 0.16
155 4.3
164 1
181 1.5
183 99.99
184 14.9
185 1.2
256 47.4
257 0.85
258 1

>  <PREDICTED SPECTRUM>  (1576) 
14 16
15 20
26 51
27 129
28 57
29 286
30 40
31 36
38 30
39 144
40 48
41 78
42 88
43 122
44 87
45 124
50 131
51 234
52 107
53 80
55 66
57 32
62 12
63 111
64 99
65 142
66 52
69 88
75 40
76 109
77 352
78 231
79 52
83 17
89 112
90 123
91 62
92 24
104 17
105 24
106 46
107 59
115 156
127 132
128 122
129 66
153 88
154 174
155 286
156 55
166 42
181 129
183 999
184 372
185 121
256 620
257 233
258 26

$$$$

     RDKit          2D

 14 14  0  0  0  0  0  0  0  0999 V2000
    5.8375    1.8749    0.0000 C   0  0  0  0  0  0  0  0  0  0  0  0
   -4.5553    1.8658    0.0000 C   0  0  0  0  0  0  0  0  0  0  0  0
   -3.2566   -0.3844    0.0000 C   0  0  0  0  0  0  0  0  0  0  0  0
    4.5397    1.1228    0.0000 C   0  0  0  0  0  0  0  0  0  0  0  0
   -0.6622    4.1084    0.0000 C   0  0  0  0  0  0  0  0  0  0  0  0
    0.6368    3.3584    0.0000 C   0  0  0  0  0  0  0  0  0  0  0  0
   -1.9567    3.3662    0.0000 C   0  0  0  0  0  0  0  0  0  0  0  0
   -0.6582    1.1154    0.0000 C   0  0  0  0  0  0  0  0  0  0  0  0
    0.6413    1.8662    0.0000 C   0  0  0  0  0  0  0  0  0  0  0  0
   -1.9572    1.8654    0.0000 C   0  0  0  0  0  0  0  0  0  0  0  0
    1.9416    1.1184    0.0000 C   0  0  0  0  0  0  0  0  0  0  0  0
   -3.2564    1.1156    0.0000 N   0  0  0  0  0  0  0  0  0  0  0  0
    1.9441   -0.3816    0.0000 O   0  0  0  0  0  0  0  0  0  0  0  0
    3.2394    1.8706    0.0000 O   0  0  0  0  0  0  0  0  0  0  0  0
  4  1  1  0
  6  5  2  0
  7  5  1  0
  9  6  1  0
  9  8  2  0
 10  7  2  0
 10  8  1  0
 11  9  1  0
 12  2  1  0
 12  3  1  0
 12 10  1  0
 13 11  2  0
 14  4  1  0
 14 11  1  0
M  END
>  <NAME>  (1577) 
ETHYL 3-DIMETHYLAMINOBENZOATE

>  <SYNONYMS>  (1577) 


>  <SPECTRUM TYPE>  (1577) 
MS1

>  <INSTRUMENT TYPE>  (1577) 
EI-B

>  <INSTRUMENT>  (1577) 
JEOL JMS-DX-300

>  <ION MODE>  (1577) 
P

>  <INCHIKEY>  (1577) 
CQNOGTUXPYIVDM-UHFFFAOYSA-N

>  <FORMULA>  (1577) 
C11H15NO2

>  <EXACT MASS>  (1577) 
193.11027872

>  <MW>  (1577) 
193

>  <ID>  (1577) 
JP009654

>  <CONTRIBUTOR>  (1577) 
University of Tokyo Team, {Faculty of Engineering, University of Tokyo

>  <COMMENT>  (1577) 
SMILES=CCOC(=O)c(c1)cc(cc1)N(C)C
InChI=InChI=1S/C11H15NO2/c1-4-14-11(13)9-6-5-7-10(8-9)12(2)3/h5-8H,4H2,1-3H3
computed SMILES=O=C(OCC)C1=CC=CC(=C1)N(C)C
accession=JP009654
date=2016.01.19 (Created 2008.10.21, modified 2011.05.06)
author=THE INSTITUTE OF SCIENTIFIC AND INDUSTRIALRESEARCH
license=CC BY-NC-SA
exact mass=193.11028
ionization energy=70 eV
ion type=[M]+*
computed spectral entropy=1.9740870159797674
computed normalized entropy=0.6132846134443841
SPLASH=splash10-0006-0900000000-f3e20ca2ef495b03f6e1
submitter=submitter = University of Tokyo Team (Faculty of Engineering, University of Tokyo)
MoNA Rating=3.75

>  <NUM PEAKS>  (1577) 
25

>  <MASS SPECTRAL PEAKS>  (1577) 
28 3.2
42 2.1
77 4.6
78 0.11
79 1.6
91 1.3
104 1.7
105 1.18
106 1.8
118 1.8
119 1.7
120 1.17
121 11.1
122 4.4
139 1.5
148 1.14
149 3
150 5.3
164 43.9
165 2.96
166 3
192 22.2
193 99.99
194 1.28
195 1

>  <PREDICTED SPECTRUM>  (1577) 
15 27
27 29
28 59
29 29
39 18
42 181
43 96
44 75
50 21
51 96
52 17
58 57
63 66
64 32
65 142
66 22
74 5
75 60
76 84
77 269
78 122
79 110
89 7
90 47
91 183
92 109
93 64
103 105
104 187
105 185
106 48
116 29
117 36
118 167
119 146
120 271
121 288
122 55
131 25
132 82
133 31
146 80
148 369
149 173
150 112
151 4
164 848
165 364
166 105
178 127
179 21
192 675
193 999
194 334
195 104

$$$$

     RDKit          2D

 13 13  0  0  0  0  0  0  0  0999 V2000
    6.4962    0.7508    0.0000 C   0  0  0  0  0  0  0  0  0  0  0  0
   -3.8981   -0.7504    0.0000 C   0  0  0  0  0  0  0  0  0  0  0  0
    5.1970    1.5006    0.0000 C   0  0  0  0  0  0  0  0  0  0  0  0
    0.0000    1.5000    0.0000 C   0  0  0  0  0  0  0  0  0  0  0  0
    1.3000   -0.7500    0.0000 C   0  0  0  0  0  0  0  0  0  0  0  0
   -1.3000    0.7500    0.0000 C   0  0  0  0  0  0  0  0  0  0  0  0
    0.0000   -1.5000    0.0000 C   0  0  0  0  0  0  0  0  0  0  0  0
    1.3000    0.7500    0.0000 C   0  0  0  0  0  0  0  0  0  0  0  0
   -1.3000   -0.7500    0.0000 C   0  0  0  0  0  0  0  0  0  0  0  0
    2.5989    1.5002    0.0000 C   0  0  0  0  0  0  0  0  0  0  0  0
    2.5987    3.0002    0.0000 O   0  0  0  0  0  0  0  0  0  0  0  0
    3.8981    0.7504    0.0000 O   0  0  0  0  0  0  0  0  0  0  0  0
   -2.5989   -1.5002    0.0000 S   0  0  0  0  0  0  0  0  0  0  0  0
  3  1  1  0
  6  4  2  0
  7  5  1  0
  8  4  1  0
  8  5  2  0
  9  6  1  0
  9  7  2  0
 10  8  1  0
 11 10  2  0
 12  3  1  0
 12 10  1  0
 13  2  1  0
 13  9  1  0
M  END
>  <NAME>  (1578) 
ETHYL (4-METHYLTHIO)BENZOATE

>  <SYNONYMS>  (1578) 


>  <SPECTRUM TYPE>  (1578) 
MS1

>  <INSTRUMENT TYPE>  (1578) 
EI-B

>  <INSTRUMENT>  (1578) 
JEOL JMS-DX-300

>  <ION MODE>  (1578) 
P

>  <INCHIKEY>  (1578) 
URNLGRVTEGNSHT-UHFFFAOYSA-N

>  <FORMULA>  (1578) 
C10H12O2S

>  <EXACT MASS>  (1578) 
196.055800624

>  <MW>  (1578) 
196

>  <ID>  (1578) 
JP009653

>  <CONTRIBUTOR>  (1578) 
University of Tokyo Team, {Faculty of Engineering, University of Tokyo

>  <COMMENT>  (1578) 
SMILES=CCOC(=O)c(c1)ccc(SC)c1
InChI=InChI=1S/C10H12O2S/c1-3-12-10(11)8-4-6-9(13-2)7-5-8/h4-7H,3H2,1-2H3
computed SMILES=O=C(OCC)C1=CC=C(SC)C=C1
accession=JP009653
date=2016.01.19 (Created 2008.10.21, modified 2011.05.06)
author=THE INSTITUTE OF SCIENTIFIC AND INDUSTRIALRESEARCH
license=CC BY-NC-SA
exact mass=196.0558
ionization energy=70 eV
ion type=[M]+*
computed spectral entropy=1.816239279125859
computed normalized entropy=0.5510707456002688
SPLASH=splash10-0f6t-0900000000-69377e1b10f3e1e28645
submitter=submitter = University of Tokyo Team (Faculty of Engineering, University of Tokyo)
MoNA Rating=3.75

>  <NUM PEAKS>  (1578) 
27

>  <MASS SPECTRAL PEAKS>  (1578) 
29 1.2
44 2.6
45 4.6
57 0.12
77 1.5
79 3
91 1.2
105 0.18
108 1.7
119 2
122 1
123 0.56
124 1.7
125 1.2
136 1.8
149 0.14
151 84.7
152 12.8
153 5.3
168 2.15
169 2.1
170 1.1
181 2.2
182 0.17
196 99.99
197 12.4
198 5.7

>  <PREDICTED SPECTRUM>  (1578) 
14 17
15 81
17 0
18 7
25 0
26 58
27 142
28 66
29 180
30 44
31 32
32 6
34 4
37 12
38 40
39 94
41 54
43 86
45 284
47 48
49 17
50 161
51 195
52 52
53 85
57 38
58 95
59 44
61 47
62 81
63 166
64 65
65 158
66 22
67 2
69 193
70 40
71 0
74 108
75 133
76 160
77 260
78 105
79 197
80 78
81 70
82 222
83 53
84 9
85 37
91 130
92 83
93 73
94 17
95 77
96 44
97 56
104 43
105 135
106 33
107 65
108 234
109 53
110 5
111 42
119 79
120 38
121 121
122 150
123 342
124 138
125 99
126 7
135 101
136 206
137 67
149 79
151 999
152 377
153 222
154 25
167 72
168 446
169 178
170 99
181 165
182 29
196 687
197 245
198 171
199 57

$$$$

     RDKit          2D

 18 19  0  0  0  0  0  0  0  0999 V2000
    6.8378   -0.9588    0.0000 C   0  0  0  0  0  0  0  0  0  0  0  0
    5.5351   -1.7024    0.0000 C   0  0  0  0  0  0  0  0  0  0  0  0
   -6.1531   -0.9566    0.0000 C   0  0  0  0  0  0  0  0  0  0  0  0
   -6.1652    0.5433    0.0000 C   0  0  0  0  0  0  0  0  0  0  0  0
   -4.8471   -1.6961    0.0000 C   0  0  0  0  0  0  0  0  0  0  0  0
   -4.8713    1.3038    0.0000 C   0  0  0  0  0  0  0  0  0  0  0  0
   -3.5532   -0.9356    0.0000 C   0  0  0  0  0  0  0  0  0  0  0  0
    0.3427   -1.6832    0.0000 C   0  0  0  0  0  0  0  0  0  0  0  0
    1.6562    0.5417    0.0000 C   0  0  0  0  0  0  0  0  0  0  0  0
   -0.9418   -0.9583    0.0000 C   0  0  0  0  0  0  0  0  0  0  0  0
    0.3317    1.3358    0.0000 C   0  0  0  0  0  0  0  0  0  0  0  0
    1.6417   -0.9332    0.0000 C   0  0  0  0  0  0  0  0  0  0  0  0
   -3.5653    0.5644    0.0000 C   0  0  0  0  0  0  0  0  0  0  0  0
   -0.9673    0.5858    0.0000 C   0  0  0  0  0  0  0  0  0  0  0  0
    2.9371   -1.6896    0.0000 C   0  0  0  0  0  0  0  0  0  0  0  0
    2.9297   -3.1895    0.0000 O   0  0  0  0  0  0  0  0  0  0  0  0
    4.2398   -0.9460    0.0000 O   0  0  0  0  0  0  0  0  0  0  0  0
   -2.2725    1.3251    0.0000 O   0  0  0  0  0  0  0  0  0  0  0  0
  2  1  1  0
  4  3  2  0
  5  3  1  0
  6  4  1  0
  7  5  2  0
 10  8  2  0
 11  9  1  0
 12  8  1  0
 12  9  2  0
 13  6  2  0
 13  7  1  0
 14 10  1  0
 14 11  2  0
 15 12  1  0
 16 15  2  0
 17  2  1  0
 17 15  1  0
 18 13  1  0
 18 14  1  0
M  END
>  <NAME>  (1579) 
ETHYL 4-PHENOXYBENZOATE

>  <SYNONYMS>  (1579) 


>  <SPECTRUM TYPE>  (1579) 
MS1

>  <INSTRUMENT TYPE>  (1579) 
EI-B

>  <INSTRUMENT>  (1579) 
JEOL JMS-DX-300

>  <ION MODE>  (1579) 
P

>  <INCHIKEY>  (1579) 
GJDBBHASMUCGME-UHFFFAOYSA-N

>  <FORMULA>  (1579) 
C15H14O3

>  <EXACT MASS>  (1579) 
242.09429430799997

>  <MW>  (1579) 
242

>  <ID>  (1579) 
JP009652

>  <CONTRIBUTOR>  (1579) 
University of Tokyo Team, {Faculty of Engineering, University of Tokyo

>  <COMMENT>  (1579) 
SMILES=CCOC(=O)c(c2)ccc(c2)Oc(c1)cccc1
InChI=InChI=1S/C15H14O3/c1-2-17-15(16)12-8-10-14(11-9-12)18-13-6-4-3-5-7-13/h3-11H,2H2,1H3
computed SMILES=O=C(OCC)C1=CC=C(OC=2C=CC=CC2)C=C1
accession=JP009652
date=2016.01.19 (Created 2008.10.21, modified 2011.05.06)
author=THE INSTITUTE OF SCIENTIFIC AND INDUSTRIALRESEARCH
license=CC BY-NC-SA
exact mass=242.09429
ionization energy=70 eV
ion type=[M]+*
computed spectral entropy=2.7554820934268793
computed normalized entropy=0.6786161229870508
SPLASH=splash10-0007-1960000000-fcc5a4fd4c8c38abd382
submitter=submitter = University of Tokyo Team (Faculty of Engineering, University of Tokyo)
MoNA Rating=3.75

>  <NUM PEAKS>  (1579) 
58

>  <MASS SPECTRAL PEAKS>  (1579) 
29 4.5
40 1.5
43 1.9
44 0.79
45 3.2
57 3.2
65 2.2
71 0.13
77 5.7
85 1.1
91 13.8
92 0.27
94 1
104 1.6
105 11.9
106 0.11
111 2.5
115 3.8
119 10.8
120 0.32
121 1.7
127 1.8
133 1.6
136 0.31
139 10.4
140 1.5
141 14.7
142 0.25
147 1.7
149 2.8
150 1
155 0.38
156 4.7
158 1.8
164 7.7
165 0.1
166 1.3
168 1.8
169 2.8
170 0.18
173 2.5
178 4
184 4.5
185 0.1
186 1.9
190 1
197 96.8
198 1.89
199 2.2
200 4.1
214 26.7
215 0.38
218 1
227 3.1
241 1.4
242 99.99
243 17
244 2

>  <PREDICTED SPECTRUM>  (1579) 
26 25
27 51
29 106
38 13
39 90
41 16
43 82
44 31
45 97
49 17
50 124
51 176
52 4
57 3
62 29
63 144
64 105
65 176
66 14
69 98
71 14
74 22
75 92
76 137
77 413
78 65
83 21
84 2
91 86
92 105
93 33
104 101
105 212
106 52
112 45
114 62
115 323
116 51
126 28
129 14
137 62
138 61
139 279
140 129
141 394
142 119
150 19
152 16
154 6
165 60
166 53
167 54
168 185
169 297
170 174
171 72
184 239
186 98
195 37
196 73
197 908
198 249
199 171
213 89
214 444
215 160
216 42
225 4
227 177
228 22
242 999
243 408
244 133

$$$$

     RDKit          2D

 12 12  0  0  0  0  0  0  0  0999 V2000
   -2.5989    0.7492    0.0000 C   0  0  0  0  0  0  0  0  0  0  0  0
    6.4962    3.0002    0.0000 C   0  0  0  0  0  0  0  0  0  0  0  0
   -1.2998   -0.0006    0.0000 C   0  0  0  0  0  0  0  0  0  0  0  0
    5.1972    0.7500    0.0000 C   0  0  0  0  0  0  0  0  0  0  0  0
    3.8972    3.0000    0.0000 C   0  0  0  0  0  0  0  0  0  0  0  0
    3.8972   -0.0000    0.0000 C   0  0  0  0  0  0  0  0  0  0  0  0
    2.5972    2.2500    0.0000 C   0  0  0  0  0  0  0  0  0  0  0  0
    5.1972    2.2500    0.0000 C   0  0  0  0  0  0  0  0  0  0  0  0
    2.5972    0.7500    0.0000 C   0  0  0  0  0  0  0  0  0  0  0  0
    1.2983   -0.0002    0.0000 C   0  0  0  0  0  0  0  0  0  0  0  0
    1.2986   -1.5002    0.0000 O   0  0  0  0  0  0  0  0  0  0  0  0
   -0.0008    0.7496    0.0000 O   0  0  0  0  0  0  0  0  0  0  0  0
  3  1  1  0
  6  4  2  0
  7  5  1  0
  8  2  1  0
  8  4  1  0
  8  5  2  0
  9  6  1  0
  9  7  2  0
 10  9  1  0
 11 10  2  0
 12  3  1  0
 12 10  1  0
M  END
>  <NAME>  (1580) 
ETHYL 4-METHYLBENZOATE

>  <SYNONYMS>  (1580) 


>  <SPECTRUM TYPE>  (1580) 
MS1

>  <INSTRUMENT TYPE>  (1580) 
EI-B

>  <INSTRUMENT>  (1580) 
JEOL JMS-DX-300

>  <ION MODE>  (1580) 
P

>  <INCHIKEY>  (1580) 
NWPWRAWAUYIELB-UHFFFAOYSA-N

>  <FORMULA>  (1580) 
C10H12O2

>  <EXACT MASS>  (1580) 
164.083729624

>  <MW>  (1580) 
164

>  <ID>  (1580) 
JP009651

>  <CONTRIBUTOR>  (1580) 
University of Tokyo Team, {Faculty of Engineering, University of Tokyo

>  <COMMENT>  (1580) 
SMILES=CCOC(=O)c(c1)ccc(C)c1
InChI=InChI=1S/C10H12O2/c1-3-12-10(11)9-6-4-8(2)5-7-9/h4-7H,3H2,1-2H3
computed SMILES=O=C(OCC)C1=CC=C(C=C1)C
ionization energy=70 eV
accession=JP009651
date=2016.01.19 (Created 2008.10.21, modified 2011.05.06)
author=THE INSTITUTE OF SCIENTIFIC AND INDUSTRIALRESEARCH
license=CC BY-NC-SA
exact mass=164.08373
ion type=[M]+*
computed spectral entropy=1.7782832247200409
computed normalized entropy=0.6566655315312314
SPLASH=splash10-014i-2900000000-b28e05aa8e3adaeba98b
submitter=submitter = University of Tokyo Team (Faculty of Engineering, University of Tokyo)
MoNA Rating=3.75

>  <NUM PEAKS>  (1580) 
15

>  <MASS SPECTRAL PEAKS>  (1580) 
29 1.5
65 8
89 1.1
90 0.17
91 30.1
92 3.7
105 1.4
119 99.99
120 12.1
136 31.9
137 2.8
149 0.37
163 1.4
164 37.2
165 4.2

>  <PREDICTED SPECTRUM>  (1580) 
14 19
15 32
25 0
26 77
27 197
28 71
29 244
31 19
32 2
37 51
38 113
39 257
40 66
41 148
43 55
44 60
45 158
46 2
50 146
51 242
52 139
53 90
61 71
62 135
63 260
64 150
65 385
66 119
74 65
75 79
76 24
77 157
78 67
79 31
87 11
89 186
90 215
91 734
92 191
96 5
108 3
119 999
120 318
121 46
136 481
137 224
138 39
149 167
150 27
163 7
164 547
165 201
166 50

$$$$

     RDKit          2D

 15 16  0  0  0  0  0  0  0  0999 V2000
    7.4362    0.6108    0.0000 C   0  0  0  0  0  0  0  0  0  0  0  0
    6.1370    1.3606    0.0000 C   0  0  0  0  0  0  0  0  0  0  0  0
   -2.9500   -0.8900    0.0000 C   0  0  0  0  0  0  0  0  0  0  0  0
   -2.9500    0.6100    0.0000 C   0  0  0  0  0  0  0  0  0  0  0  0
   -1.6500   -1.6400    0.0000 C   0  0  0  0  0  0  0  0  0  0  0  0
   -1.6500    1.3600    0.0000 C   0  0  0  0  0  0  0  0  0  0  0  0
    0.9400   -1.6400    0.0000 C   0  0  0  0  0  0  0  0  0  0  0  0
    2.2400   -0.8900    0.0000 C   0  0  0  0  0  0  0  0  0  0  0  0
    0.9400    1.3600    0.0000 C   0  0  0  0  0  0  0  0  0  0  0  0
   -0.3500   -0.8900    0.0000 C   0  0  0  0  0  0  0  0  0  0  0  0
   -0.3500    0.6100    0.0000 C   0  0  0  0  0  0  0  0  0  0  0  0
    2.2400    0.6100    0.0000 C   0  0  0  0  0  0  0  0  0  0  0  0
    3.5389    1.3602    0.0000 C   0  0  0  0  0  0  0  0  0  0  0  0
    3.5387    2.8602    0.0000 O   0  0  0  0  0  0  0  0  0  0  0  0
    4.8381    0.6104    0.0000 O   0  0  0  0  0  0  0  0  0  0  0  0
  2  1  1  0
  4  3  2  0
  5  3  1  0
  6  4  1  0
  8  7  2  0
 10  5  2  0
 10  7  1  0
 11  6  2  0
 11  9  1  0
 11 10  1  0
 12  8  1  0
 12  9  2  0
 13 12  1  0
 14 13  2  0
 15  2  1  0
 15 13  1  0
M  END
>  <NAME>  (1581) 
ETHYL 2-NAPHTHALENECARBOXYLATE

>  <SYNONYMS>  (1581) 


>  <SPECTRUM TYPE>  (1581) 
MS1

>  <INSTRUMENT TYPE>  (1581) 
EI-B

>  <INSTRUMENT>  (1581) 
JEOL JMS-DX-300

>  <ION MODE>  (1581) 
P

>  <INCHIKEY>  (1581) 
HQKSINSCHCDMLS-UHFFFAOYSA-N

>  <FORMULA>  (1581) 
C13H12O2

>  <EXACT MASS>  (1581) 
200.083729624

>  <MW>  (1581) 
200

>  <ID>  (1581) 
JP009650

>  <CONTRIBUTOR>  (1581) 
University of Tokyo Team, {Faculty of Engineering, University of Tokyo

>  <COMMENT>  (1581) 
SMILES=CCOC(=O)c(c1)cc(c2)c(ccc2)c1
InChI=InChI=1S/C13H12O2/c1-2-15-13(14)12-8-7-10-5-3-4-6-11(10)9-12/h3-9H,2H2,1H3
computed SMILES=O=C(OCC)C=1C=CC=2C=CC=CC2C1
accession=JP009650
date=2016.01.19 (Created 2008.10.21, modified 2011.05.06)
author=THE INSTITUTE OF SCIENTIFIC AND INDUSTRIALRESEARCH
license=CC BY-NC-SA
exact mass=200.08373
ionization energy=70 eV
ion type=[M]+*
computed spectral entropy=1.5844591099306498
computed normalized entropy=0.5850922221773271
SPLASH=splash10-0zfr-0970000000-f65ef9433501fe78325f
submitter=submitter = University of Tokyo Team (Faculty of Engineering, University of Tokyo)
MoNA Rating=3.75

>  <NUM PEAKS>  (1581) 
15

>  <MASS SPECTRAL PEAKS>  (1581) 
29 1.6
77 1
126 1.7
127 4.51
128 10
129 1
155 92.9
156 1.6
157 1.4
172 25.8
173 3.5
185 0.55
200 99.99
201 14.7
202 1.4

>  <PREDICTED SPECTRUM>  (1581) 
14 1
26 50
27 154
28 42
29 219
38 59
39 147
40 23
43 36
44 67
45 137
50 202
51 264
52 74
53 32
62 120
63 250
64 127
69 2
70 66
73 48
74 218
75 352
76 277
77 364
78 119
82 38
83 15
84 27
86 16
87 99
88 83
89 92
97 2
98 118
99 101
100 183
101 310
102 43
112 1
114 15
115 176
116 42
125 75
126 421
127 812
128 389
129 74
143 11
155 999
156 400
157 94
171 14
172 477
173 200
174 29
183 11
185 74
199 35
200 696
201 235
202 80

$$$$

     RDKit          2D

 10 10  0  0  0  0  0  0  0  0999 V2000
   -2.5989   -1.5002    0.0000 C   0  0  0  0  0  0  0  0  0  0  0  0
    3.8981    0.7504    0.0000 C   0  0  0  0  0  0  0  0  0  0  0  0
   -1.3000    0.7500    0.0000 C   0  0  0  0  0  0  0  0  0  0  0  0
   -0.0000   -1.5000    0.0000 C   0  0  0  0  0  0  0  0  0  0  0  0
    0.0000    1.5000    0.0000 C   0  0  0  0  0  0  0  0  0  0  0  0
    1.3000   -0.7500    0.0000 C   0  0  0  0  0  0  0  0  0  0  0  0
   -1.3000   -0.7500    0.0000 C   0  0  0  0  0  0  0  0  0  0  0  0
    2.5989    1.5002    0.0000 C   0  0  0  0  0  0  0  0  0  0  0  0
    1.3000    0.7500    0.0000 C   0  0  0  0  0  0  0  0  0  0  0  0
    2.5987    3.0002    0.0000 O   0  0  0  0  0  0  0  0  0  0  0  0
  5  3  2  0
  6  4  1  0
  7  1  1  0
  7  3  1  0
  7  4  2  0
  8  2  1  0
  9  5  1  0
  9  6  2  0
  9  8  1  0
 10  8  2  0
M  END
>  <NAME>  (1582) 
METHYL 4-METHYLPHENYL KETONE

>  <SYNONYMS>  (1582) 
4-METHYLACETOPHENONE

>  <SPECTRUM TYPE>  (1582) 
MS1

>  <INSTRUMENT TYPE>  (1582) 
EI-B

>  <INSTRUMENT>  (1582) 
JEOL JMS-DX-300

>  <ION MODE>  (1582) 
P

>  <INCHIKEY>  (1582) 
GNKZMNRKLCTJAY-UHFFFAOYSA-N

>  <FORMULA>  (1582) 
C9H10O

>  <EXACT MASS>  (1582) 
134.07316494

>  <MW>  (1582) 
134

>  <ID>  (1582) 
JP009649

>  <CONTRIBUTOR>  (1582) 
University of Tokyo Team, {Faculty of Engineering, University of Tokyo

>  <COMMENT>  (1582) 
SMILES=Cc(c1)ccc(c1)C(C)=O
InChI=InChI=1S/C9H10O/c1-7-3-5-9(6-4-7)8(2)10/h3-6H,1-2H3
computed SMILES=O=C(C1=CC=C(C=C1)C)C
accession=JP009649
date=2016.01.19 (Created 2008.10.21, modified 2011.05.06)
author=THE INSTITUTE OF SCIENTIFIC AND INDUSTRIALRESEARCH
license=CC BY-NC-SA
exact mass=134.07316
ionization energy=70 eV
ion type=[M]+*
computed spectral entropy=2.1752366460009385
computed normalized entropy=0.6395502530164557
SPLASH=splash10-014l-7900000000-8e83cde453c9bb1a2691
submitter=submitter = University of Tokyo Team (Faculty of Engineering, University of Tokyo)
MoNA Rating=3.75

>  <NUM PEAKS>  (1582) 
30

>  <MASS SPECTRAL PEAKS>  (1582) 
27 2
28 5
32 1.1
38 0.17
39 11
41 2
42 1
43 1
50 3.7
51 6
52 1.3
62 0.36
63 9
64 2.5
65 20.4
66 0.14
74 1.3
75 1
77 3.2
79 0.1
89 8
90 4
91 60.6
92 0.53
103 1
105 1.7
119 99.99
120 0.8
134 56.2
135 5.8

>  <PREDICTED SPECTRUM>  (1582) 
14 42
15 133
16 8
18 3
26 57
27 136
28 46
29 26
37 119
38 174
39 405
40 171
41 244
42 100
43 641
44 107
45 18
49 42
50 282
51 368
52 229
53 194
54 50
58 15
61 151
62 236
63 411
64 258
65 527
66 180
67 81
73 15
74 162
75 177
76 147
77 279
78 170
79 160
80 34
86 24
87 61
88 7
89 344
90 256
91 896
92 321
93 24
103 14
104 42
105 128
106 40
107 21
115 170
116 58
117 46
118 12
119 999
120 300
121 53
133 43
134 655
135 201
136 25

$$$$

     RDKit          2D

 13 13  0  0  0  0  0  0  0  0999 V2000
   -3.8981   -0.7504    0.0000 C   0  0  0  0  0  0  0  0  0  0  0  0
    3.3491    0.2013    0.0000 C   0  0  0  0  0  0  0  0  0  0  0  0
    3.8978    2.2504    0.0000 C   0  0  0  0  0  0  0  0  0  0  0  0
    1.8487    2.7991    0.0000 C   0  0  0  0  0  0  0  0  0  0  0  0
   -1.3000    0.7500    0.0000 C   0  0  0  0  0  0  0  0  0  0  0  0
   -0.0000   -1.5000    0.0000 C   0  0  0  0  0  0  0  0  0  0  0  0
    0.0000    1.5000    0.0000 C   0  0  0  0  0  0  0  0  0  0  0  0
    1.3000   -0.7500    0.0000 C   0  0  0  0  0  0  0  0  0  0  0  0
   -2.5989   -1.5002    0.0000 C   0  0  0  0  0  0  0  0  0  0  0  0
   -1.3000   -0.7500    0.0000 C   0  0  0  0  0  0  0  0  0  0  0  0
    1.3000    0.7500    0.0000 C   0  0  0  0  0  0  0  0  0  0  0  0
    2.5989    1.5002    0.0000 C   0  0  0  0  0  0  0  0  0  0  0  0
   -2.5987   -3.0002    0.0000 O   0  0  0  0  0  0  0  0  0  0  0  0
  7  5  2  0
  8  6  1  0
  9  1  1  0
 10  5  1  0
 10  6  2  0
 10  9  1  0
 11  7  1  0
 11  8  2  0
 12  2  1  0
 12  3  1  0
 12  4  1  0
 12 11  1  0
 13  9  2  0
M  END
>  <NAME>  (1583) 
4-TERT-BUTYLPHENYL METHYL KETONE

>  <SYNONYMS>  (1583) 
4-TERT-BUTYLACETOPHENONE

>  <SPECTRUM TYPE>  (1583) 
MS1

>  <INSTRUMENT TYPE>  (1583) 
EI-B

>  <INSTRUMENT>  (1583) 
JEOL JMS-DX-300

>  <ION MODE>  (1583) 
P

>  <INCHIKEY>  (1583) 
UYFJYGWNYQCHOB-UHFFFAOYSA-N

>  <FORMULA>  (1583) 
C12H16O

>  <EXACT MASS>  (1583) 
176.120115132

>  <MW>  (1583) 
176

>  <ID>  (1583) 
JP009648

>  <CONTRIBUTOR>  (1583) 
University of Tokyo Team, {Faculty of Engineering, University of Tokyo

>  <COMMENT>  (1583) 
SMILES=CC(=O)c(c1)ccc(c1)C(C)(C)C
InChI=InChI=1S/C12H16O/c1-9(13)10-5-7-11(8-6-10)12(2,3)4/h5-8H,1-4H3
computed SMILES=O=C(C1=CC=C(C=C1)C(C)(C)C)C
accession=JP009648
date=2016.01.19 (Created 2008.10.21, modified 2011.05.06)
author=THE INSTITUTE OF SCIENTIFIC AND INDUSTRIALRESEARCH
license=CC BY-NC-SA
exact mass=176.12012
ionization energy=70 eV
ion type=[M]+*
computed spectral entropy=2.751034740180903
computed normalized entropy=0.7106411504929108
SPLASH=splash10-03dl-7900000000-00250273ee5543e48d99
submitter=submitter = University of Tokyo Team (Faculty of Engineering, University of Tokyo)
MoNA Rating=3.75

>  <NUM PEAKS>  (1583) 
48

>  <MASS SPECTRAL PEAKS>  (1583) 
27 6.2
29 4.8
39 9.4
41 0.98
42 1.7
43 77.6
44 2.2
50 0.36
51 7.7
52 1.6
53 1.8
55 0.14
57 2.8
63 4.6
64 1.5
65 0.55
72 1
74 1.6
75 2.4
76 0.42
77 12
78 3.8
79 2.1
89 0.44
90 6
91 17.4
92 1.7
93 0.1
102 3.8
103 7
104 2.1
105 1.35
106 1.2
115 13.2
116 3.3
117 1.02
118 12.7
119 3.8
131 1.7
133 1.21
134 1.7
145 2.4
146 3.5
147 0.1
161 99.99
162 12.7
166 29.1
167 4.7

>  <PREDICTED SPECTRUM>  (1583) 
14 19
15 77
18 5
26 24
27 160
28 72
29 184
34 4
37 14
38 73
39 214
40 58
41 301
42 27
43 440
44 53
45 36
47 1
50 152
51 218
52 103
53 121
54 10
55 116
57 198
58 73
59 37
60 1
61 27
62 76
63 174
64 135
65 201
66 72
67 22
72 27
73 53
74 85
75 161
76 135
77 297
78 160
79 137
80 4
86 30
87 96
88 42
89 186
90 120
91 382
92 130
93 51
101 70
102 130
103 204
104 127
105 311
106 92
115 300
116 144
117 247
118 206
119 218
120 54
121 0
127 50
128 106
129 73
130 22
131 176
132 49
133 446
134 163
135 44
144 11
145 116
146 157
147 47
159 26
161 999
162 322
163 102
176 394
177 136

$$$$

     RDKit          2D

 13 13  0  0  0  0  0  0  0  0999 V2000
    7.7951    1.5010    0.0000 C   0  0  0  0  0  0  0  0  0  0  0  0
   -2.5989   -1.5002    0.0000 C   0  0  0  0  0  0  0  0  0  0  0  0
    6.4962    0.7508    0.0000 C   0  0  0  0  0  0  0  0  0  0  0  0
   -1.3000    0.7500    0.0000 C   0  0  0  0  0  0  0  0  0  0  0  0
   -0.0000   -1.5000    0.0000 C   0  0  0  0  0  0  0  0  0  0  0  0
    0.0000    1.5000    0.0000 C   0  0  0  0  0  0  0  0  0  0  0  0
    1.3000   -0.7500    0.0000 C   0  0  0  0  0  0  0  0  0  0  0  0
    2.5989    1.5002    0.0000 C   0  0  0  0  0  0  0  0  0  0  0  0
   -1.3000   -0.7500    0.0000 C   0  0  0  0  0  0  0  0  0  0  0  0
    1.3000    0.7500    0.0000 C   0  0  0  0  0  0  0  0  0  0  0  0
    3.8981    0.7504    0.0000 C   0  0  0  0  0  0  0  0  0  0  0  0
    3.8983   -0.7496    0.0000 O   0  0  0  0  0  0  0  0  0  0  0  0
    5.1970    1.5006    0.0000 O   0  0  0  0  0  0  0  0  0  0  0  0
  3  1  1  0
  6  4  2  0
  7  5  1  0
  9  2  1  0
  9  4  1  0
  9  5  2  0
 10  6  1  0
 10  7  2  0
 10  8  1  0
 11  8  1  0
 12 11  2  0
 13  3  1  0
 13 11  1  0
M  END
>  <NAME>  (1584) 
ETHYL 4-METHYLPHENYLACETATE

>  <SYNONYMS>  (1584) 


>  <SPECTRUM TYPE>  (1584) 
MS1

>  <INSTRUMENT TYPE>  (1584) 
EI-B

>  <INSTRUMENT>  (1584) 
JEOL JMS-DX-300

>  <ION MODE>  (1584) 
P

>  <INCHIKEY>  (1584) 
BTRGZBIXPLFVNK-UHFFFAOYSA-N

>  <FORMULA>  (1584) 
C11H14O2

>  <EXACT MASS>  (1584) 
178.099379688

>  <MW>  (1584) 
178

>  <ID>  (1584) 
JP009647

>  <CONTRIBUTOR>  (1584) 
University of Tokyo Team, {Faculty of Engineering, University of Tokyo

>  <COMMENT>  (1584) 
SMILES=CCOC(=O)Cc(c1)ccc(C)c1
InChI=InChI=1S/C11H14O2/c1-3-13-11(12)8-10-6-4-9(2)5-7-10/h4-7H,3,8H2,1-2H3
computed SMILES=O=C(OCC)CC1=CC=C(C=C1)C
accession=JP009647
date=2016.01.19 (Created 2008.10.21, modified 2011.05.06)
author=THE INSTITUTE OF SCIENTIFIC AND INDUSTRIALRESEARCH
license=CC BY-NC-SA
exact mass=178.09938
ionization energy=70 eV
ion type=[M]+*
computed spectral entropy=1.9787032862076506
computed normalized entropy=0.6310658384108344
SPLASH=splash10-0a4i-4900000000-2f7483e6df709d7749aa
submitter=submitter = University of Tokyo Team (Faculty of Engineering, University of Tokyo)
MoNA Rating=3.75

>  <NUM PEAKS>  (1584) 
23

>  <MASS SPECTRAL PEAKS>  (1584) 
27 7.7
29 15.9
31 1
39 0.3
43 1.1
51 3.4
52 1.4
53 0.19
63 1.9
65 2.5
77 13.8
78 0.68
79 8.9
89 1.1
91 3.7
102 0.1
103 9
104 7.3
105 99.99
106 1.05
133 1.4
178 19.8
179 2.4

>  <PREDICTED SPECTRUM>  (1584) 
14 12
15 35
26 57
27 200
28 80
29 245
31 36
37 8
38 67
39 205
40 68
41 74
42 115
43 96
44 93
45 14
50 155
51 244
52 150
53 113
61 1
62 73
63 155
64 110
65 187
66 74
74 53
75 21
76 44
77 415
78 262
79 276
80 27
86 24
89 95
90 71
91 64
92 83
93 38
102 65
103 230
104 322
105 999
106 442
107 161
133 34
134 2
135 39
150 35
178 414
179 144
180 14

$$$$

     RDKit          2D

 16 16  0  0  0  0  0  0  0  0999 V2000
   -6.4962   -0.7508    0.0000 C   0  0  0  0  0  0  0  0  0  0  0  0
    0.0000    3.0000    0.0000 C   0  0  0  0  0  0  0  0  0  0  0  0
    2.5989   -1.5002    0.0000 C   0  0  0  0  0  0  0  0  0  0  0  0
   -5.1970   -1.5006    0.0000 C   0  0  0  0  0  0  0  0  0  0  0  0
   -1.3000    0.7500    0.0000 C   0  0  0  0  0  0  0  0  0  0  0  0
    0.0000   -1.5000    0.0000 C   0  0  0  0  0  0  0  0  0  0  0  0
    0.0000    1.5000    0.0000 C   0  0  0  0  0  0  0  0  0  0  0  0
    1.3000   -0.7500    0.0000 C   0  0  0  0  0  0  0  0  0  0  0  0
   -1.3000   -0.7500    0.0000 C   0  0  0  0  0  0  0  0  0  0  0  0
    1.3000    0.7500    0.0000 C   0  0  0  0  0  0  0  0  0  0  0  0
   -2.5989   -1.5002    0.0000 C   0  0  0  0  0  0  0  0  0  0  0  0
    2.5989    1.5002    0.0000 N   0  0  0  0  0  0  0  0  0  0  0  0
   -2.5987   -3.0002    0.0000 O   0  0  0  0  0  0  0  0  0  0  0  0
    3.8981    0.7504    0.0000 O   0  0  0  0  0  0  0  0  0  0  0  0
    2.5987    3.0002    0.0000 O   0  0  0  0  0  0  0  0  0  0  0  0
   -3.8981   -0.7504    0.0000 O   0  0  0  0  0  0  0  0  0  0  0  0
  4  1  1  0
  7  2  1  0
  7  5  2  0
  8  3  1  0
  8  6  1  0
  9  5  1  0
  9  6  2  0
 10  7  1  0
 10  8  2  0
 11  9  1  0
 12 10  1  0
 13 11  2  0
 14 12  1  0
 15 12  2  0
 16  4  1  0
 16 11  1  0
M  CHG  2  12   1  14  -1
M  END
>  <NAME>  (1585) 
ETHYL 3,5-DIMETHYL-4-NITROBENZOATE

>  <SYNONYMS>  (1585) 


>  <SPECTRUM TYPE>  (1585) 
MS1

>  <INSTRUMENT TYPE>  (1585) 
EI-B

>  <INSTRUMENT>  (1585) 
JEOL JMS-DX-300

>  <ION MODE>  (1585) 
P

>  <INCHIKEY>  (1585) 
LXHYBLDIIOAWLA-UHFFFAOYSA-N

>  <FORMULA>  (1585) 
C11H13NO4

>  <EXACT MASS>  (1585) 
223.084457896

>  <MW>  (1585) 
223

>  <ID>  (1585) 
JP009646

>  <CONTRIBUTOR>  (1585) 
University of Tokyo Team, {Faculty of Engineering, University of Tokyo

>  <COMMENT>  (1585) 
SMILES=CCOC(=O)c(c1)cc(C)c([N+1]([O-1])=O)c(C)1
InChI=InChI=1S/C11H13NO4/c1-4-16-11(13)9-5-7(2)10(12(14)15)8(3)6-9/h5-6H,4H2,1-3H3
computed SMILES=O=C(OCC)C=1C=C(C(=C(C1)C)N(=O)=O)C
accession=JP009646
date=2016.01.19 (Created 2008.10.21, modified 2011.05.06)
author=THE INSTITUTE OF SCIENTIFIC AND INDUSTRIALRESEARCH
license=CC BY-NC-SA
exact mass=223.08446
ionization energy=70 eV
ion type=[M]+*
computed spectral entropy=3.5658717180221164
computed normalized entropy=0.8026449775486421
SPLASH=splash10-056r-8930000000-88b93e73caf1add710e4
submitter=submitter = University of Tokyo Team (Faculty of Engineering, University of Tokyo)
MoNA Rating=3.75

>  <NUM PEAKS>  (1585) 
85

>  <MASS SPECTRAL PEAKS>  (1585) 
26 2.3
27 17
29 52
30 0.48
31 1
38 1.6
39 15
40 0.16
41 4.5
42 1.2
43 18.9
44 0.15
45 5
50 5
51 16.8
52 0.75
53 9.5
54 1
55 3
57 0.18
62 3.8
63 15
64 5
65 1.34
66 2.6
67 2.8
74 2
75 0.33
76 4.7
77 45.1
78 23.5
79 1.69
80 2.2
81 1.9
87 1.5
89 0.64
90 2.2
91 22.8
92 5
93 0.58
94 5
95 4.2
102 5.7
103 3.04
104 28.3
105 10.3
106 17
107 0.54
108 1.2
109 1.5
117 2.4
118 0.18
119 5.7
120 19.1
121 9.9
122 0.58
123 9.2
131 5.7
132 25.2
133 0.97
134 29.7
135 3.1
136 1.1
137 0.1
144 11.8
145 1.4
147 1.7
148 0.55
149 14
150 11.4
151 2
160 0.27
161 1.7
162 3.7
165 3.7
177 0.19
178 78.6
179 9.5
193 1.9
195 0.17
206 99.99
207 13.4
208 3.3
223 5.65
224 8

>  <PREDICTED SPECTRUM>  (1585) 
14 8
15 20
16 2
17 4
18 23
26 60
27 153
28 80
29 182
30 37
37 25
38 78
39 246
40 77
41 190
42 47
43 302
44 113
45 147
46 51
49 30
50 213
51 361
52 261
53 306
54 84
55 34
56 3
57 51
59 19
61 57
62 137
63 301
64 155
65 335
66 217
67 141
68 14
69 20
74 85
75 85
76 123
77 559
78 332
79 255
80 183
81 104
82 40
83 57
86 27
87 40
89 89
90 94
91 280
92 186
93 171
94 160
95 55
96 23
102 186
103 328
104 361
105 303
106 253
107 147
108 18
109 5
110 9
116 26
117 48
118 11
119 133
120 207
121 237
122 114
123 110
130 22
131 262
132 414
133 322
134 321
135 95
136 33
137 115
147 93
148 121
149 261
150 268
151 168
160 94
161 118
162 92
165 58
176 5
177 25
178 999
179 296
193 8
195 112
196 5
206 801
207 270
208 80
209 1
223 84
224 174
225 13

$$$$

     RDKit          2D

 17 17  0  0  0  0  0  0  0  0999 V2000
   -6.4962   -0.7508    0.0000 C   0  0  0  0  0  0  0  0  0  0  0  0
    0.0000    3.0000    0.0000 C   0  0  0  0  0  0  0  0  0  0  0  0
    2.5989   -1.5002    0.0000 C   0  0  0  0  0  0  0  0  0  0  0  0
    3.3491    0.2013    0.0000 C   0  0  0  0  0  0  0  0  0  0  0  0
   -5.1970   -1.5006    0.0000 C   0  0  0  0  0  0  0  0  0  0  0  0
   -1.3000    0.7500    0.0000 C   0  0  0  0  0  0  0  0  0  0  0  0
   -0.0000   -1.5000    0.0000 C   0  0  0  0  0  0  0  0  0  0  0  0
    0.0000    1.5000    0.0000 C   0  0  0  0  0  0  0  0  0  0  0  0
    1.3000   -0.7500    0.0000 C   0  0  0  0  0  0  0  0  0  0  0  0
   -1.3000   -0.7500    0.0000 C   0  0  0  0  0  0  0  0  0  0  0  0
    1.3000    0.7500    0.0000 C   0  0  0  0  0  0  0  0  0  0  0  0
   -2.5989   -1.5002    0.0000 C   0  0  0  0  0  0  0  0  0  0  0  0
   -2.5987   -3.0002    0.0000 O   0  0  0  0  0  0  0  0  0  0  0  0
    3.8978    2.2504    0.0000 O   0  0  0  0  0  0  0  0  0  0  0  0
    1.8487    2.7991    0.0000 O   0  0  0  0  0  0  0  0  0  0  0  0
   -3.8981   -0.7504    0.0000 O   0  0  0  0  0  0  0  0  0  0  0  0
    2.5989    1.5002    0.0000 S   0  0  0  0  0  0  0  0  0  0  0  0
  5  1  1  0
  8  2  1  0
  8  6  2  0
  9  3  1  0
  9  7  1  0
 10  6  1  0
 10  7  2  0
 11  8  1  0
 11  9  2  0
 12 10  1  0
 13 12  2  0
 16  5  1  0
 16 12  1  0
 17  4  1  0
 17 11  1  0
 17 14  2  0
 17 15  2  0
M  END
>  <NAME>  (1586) 
ETHYL 3,5-DIMETHYL-4-METHYLSULFONYLBENZOATE

>  <SYNONYMS>  (1586) 


>  <SPECTRUM TYPE>  (1586) 
MS1

>  <INSTRUMENT TYPE>  (1586) 
EI-B

>  <INSTRUMENT>  (1586) 
JEOL JMS-DX-300

>  <ION MODE>  (1586) 
P

>  <INCHIKEY>  (1586) 
KZEWHBQUQSKYAE-UHFFFAOYSA-N

>  <FORMULA>  (1586) 
C12H16O4S

>  <EXACT MASS>  (1586) 
256.076929992

>  <MW>  (1586) 
256

>  <ID>  (1586) 
JP009645

>  <CONTRIBUTOR>  (1586) 
University of Tokyo Team, {Faculty of Engineering, University of Tokyo

>  <COMMENT>  (1586) 
SMILES=CCOC(=O)c(c1)cc(C)c(c(C)1)S(C)(=O)=O
InChI=InChI=1S/C12H16O4S/c1-5-16-12(13)10-6-8(2)11(9(3)7-10)17(4,14)15/h6-7H,5H2,1-4H3
computed SMILES=O=C(OCC)C=1C=C(C(=C(C1)C)S(=O)(=O)C)C
accession=JP009645
date=2016.01.19 (Created 2008.10.21, modified 2011.05.06)
author=THE INSTITUTE OF SCIENTIFIC AND INDUSTRIALRESEARCH
license=CC BY-NC-SA
exact mass=256.07693
ionization energy=70 eV
ion type=[M]+*
computed spectral entropy=3.47785527981699
computed normalized entropy=0.7870515342148041
SPLASH=splash10-0a6r-5970000000-3ea8baeaf2c5e7248ed5
submitter=submitter = University of Tokyo Team (Faculty of Engineering, University of Tokyo)
MoNA Rating=3.75

>  <NUM PEAKS>  (1586) 
83

>  <MASS SPECTRAL PEAKS>  (1586) 
26 1.1
27 8.8
29 14.8
31 0.13
39 6.8
40 1.6
41 1.9
43 0.78
44 2.6
45 3.8
50 2.2
51 0.89
52 3.3
53 5.9
55 1.6
62 0.18
63 9
64 3
65 7.6
66 0.12
67 1.1
74 1.1
75 2.2
76 0.3
77 30
78 13
79 5.6
81 0.11
89 3.7
90 1.1
91 15.5
92 0.32
93 3.8
97 1.1
98 1.2
102 0.66
103 32.7
104 21
105 7.6
109 0.18
117 2.4
119 3.8
120 4.5
121 0.85
122 1.1
123 1.4
131 13.2
132 1.88
133 12.1
134 1.8
135 1.4
136 0.11
137 2.8
147 5.2
148 8.5
149 3.12
150 3.9
151 2.9
163 2.1
165 1.93
166 2.4
176 8.8
177 39.4
178 0.53
179 1.3
182 2
193 41.4
194 0.53
195 2.9
197 1.7
211 45.2
212 0.72
213 3.8
223 1.8
227 2.8
228 1.61
229 2.1
239 2.6
241 11.9
242 0.16
256 99.99
257 15.2
258 6.5

>  <PREDICTED SPECTRUM>  (1586) 
14 4
15 44
26 40
27 179
29 183
34 1
38 41
39 225
40 67
41 152
42 95
43 200
44 114
45 256
46 17
47 18
50 162
51 299
52 189
53 198
55 17
56 8
57 113
58 7
59 62
61 27
62 107
63 285
64 177
65 306
66 128
67 68
69 31
70 64
71 16
73 46
74 133
75 156
76 132
77 448
78 314
79 384
80 32
83 14
87 6
89 218
90 122
91 400
92 162
93 150
94 110
95 71
96 32
99 23
101 98
102 150
103 482
104 388
105 432
106 147
107 83
108 111
109 65
115 46
117 149
118 75
119 317
120 248
121 201
122 3
123 23
130 71
131 485
132 448
133 394
134 229
135 172
136 2
137 115
146 21
147 227
148 253
149 387
150 190
151 124
163 136
164 77
165 238
166 13
167 48
175 88
176 117
177 893
178 258
179 51
192 3
193 749
194 216
195 169
197 8
211 720
212 57
213 255
227 43
228 154
229 69
241 226
242 29
243 5
256 999
257 409
258 310
259 63

$$$$

     RDKit          2D

 16 16  0  0  0  0  0  0  0  0999 V2000
   -6.4962   -0.7508    0.0000 C   0  0  0  0  0  0  0  0  0  0  0  0
    0.0000    3.0000    0.0000 C   0  0  0  0  0  0  0  0  0  0  0  0
    2.5989   -1.5002    0.0000 C   0  0  0  0  0  0  0  0  0  0  0  0
    3.8981    0.7504    0.0000 C   0  0  0  0  0  0  0  0  0  0  0  0
   -5.1970   -1.5006    0.0000 C   0  0  0  0  0  0  0  0  0  0  0  0
   -1.3000    0.7500    0.0000 C   0  0  0  0  0  0  0  0  0  0  0  0
    0.0000   -1.5000    0.0000 C   0  0  0  0  0  0  0  0  0  0  0  0
    0.0000    1.5000    0.0000 C   0  0  0  0  0  0  0  0  0  0  0  0
    1.3000   -0.7500    0.0000 C   0  0  0  0  0  0  0  0  0  0  0  0
    2.5989    1.5002    0.0000 C   0  0  0  0  0  0  0  0  0  0  0  0
   -1.3000   -0.7500    0.0000 C   0  0  0  0  0  0  0  0  0  0  0  0
    1.3000    0.7500    0.0000 C   0  0  0  0  0  0  0  0  0  0  0  0
   -2.5989   -1.5002    0.0000 C   0  0  0  0  0  0  0  0  0  0  0  0
    2.5987    3.0002    0.0000 O   0  0  0  0  0  0  0  0  0  0  0  0
   -2.5987   -3.0002    0.0000 O   0  0  0  0  0  0  0  0  0  0  0  0
   -3.8981   -0.7504    0.0000 O   0  0  0  0  0  0  0  0  0  0  0  0
  5  1  1  0
  8  2  1  0
  8  6  2  0
  9  3  1  0
  9  7  1  0
 10  4  1  0
 11  6  1  0
 11  7  2  0
 12  8  1  0
 12  9  2  0
 12 10  1  0
 13 11  1  0
 14 10  2  0
 15 13  2  0
 16  5  1  0
 16 13  1  0
M  END
>  <NAME>  (1587) 
ETHYL 4-ACETYL-3,5-DIMETHYLBENZOATE

>  <SYNONYMS>  (1587) 


>  <SPECTRUM TYPE>  (1587) 
MS1

>  <INSTRUMENT TYPE>  (1587) 
EI-B

>  <INSTRUMENT>  (1587) 
JEOL JMS-DX-300

>  <ION MODE>  (1587) 
P

>  <INCHIKEY>  (1587) 
CJMJIWJARUFVLF-UHFFFAOYSA-N

>  <FORMULA>  (1587) 
C13H16O3

>  <EXACT MASS>  (1587) 
220.10994437199997

>  <MW>  (1587) 
220

>  <ID>  (1587) 
JP009644

>  <CONTRIBUTOR>  (1587) 
University of Tokyo Team, {Faculty of Engineering, University of Tokyo

>  <COMMENT>  (1587) 
SMILES=CCOC(=O)c(c1)cc(C)c(C(C)=O)c(C)1
InChI=InChI=1S/C13H16O3/c1-5-16-13(15)11-6-8(2)12(10(4)14)9(3)7-11/h6-7H,5H2,1-4H3
computed SMILES=O=C(OCC)C=1C=C(C(C(=O)C)=C(C1)C)C
accession=JP009644
date=2016.01.19 (Created 2008.10.21, modified 2011.05.06)
author=THE INSTITUTE OF SCIENTIFIC AND INDUSTRIALRESEARCH
license=CC BY-NC-SA
exact mass=220.10994
ionization energy=70 eV
ion type=[M]+*
computed spectral entropy=2.449037813580296
computed normalized entropy=0.6834170142924979
SPLASH=splash10-0a4i-2390000000-3cc81520dacbcadbf73c
submitter=submitter = University of Tokyo Team (Faculty of Engineering, University of Tokyo)
MoNA Rating=3.75

>  <NUM PEAKS>  (1587) 
36

>  <MASS SPECTRAL PEAKS>  (1587) 
27 2.6
29 2.9
39 2
40 0.1
43 16.1
51 3
52 1.5
53 0.12
63 1.8
65 1.7
77 6.7
78 0.29
79 1.7
80 2.8
91 3.3
103 0.58
104 3.4
105 2.7
119 1.7
121 0.2
131 2.4
132 3.4
133 2.7
147 0.16
149 10
150 1.3
175 16.2
176 0.25
177 13.1
178 1.7
204 2.5
205 99.99
206 13.7
207 1.7
220 32.1
221 4.9

>  <PREDICTED SPECTRUM>  (1587) 
27 93
28 36
29 93
38 13
39 171
40 60
41 117
42 19
43 305
44 16
45 110
47 1
50 49
51 177
52 126
53 133
54 7
55 25
59 0
62 17
63 110
64 67
65 156
66 63
67 75
75 23
76 15
77 279
78 175
79 229
80 73
82 4
89 44
90 47
91 261
92 29
93 61
102 81
103 248
104 135
105 158
106 18
107 28
115 71
116 46
117 42
119 91
121 42
129 1
130 14
131 210
132 109
133 118
135 32
147 79
148 30
149 238
150 80
175 460
176 95
177 464
178 119
191 57
192 42
205 999
206 357
207 88
219 35
220 614
221 253
222 51

$$$$

     RDKit          2D

 14 14  0  0  0  0  0  0  0  0999 V2000
    2.5989    0.7506    0.0000 C   0  0  0  0  0  0  0  0  0  0  0  0
   -3.8972   -3.0002    0.0000 C   0  0  0  0  0  0  0  0  0  0  0  0
   -6.4962    1.5000    0.0000 C   0  0  0  0  0  0  0  0  0  0  0  0
    1.2998    1.5004    0.0000 C   0  0  0  0  0  0  0  0  0  0  0  0
   -2.5972   -0.7502    0.0000 C   0  0  0  0  0  0  0  0  0  0  0  0
   -3.8972    1.4998    0.0000 C   0  0  0  0  0  0  0  0  0  0  0  0
   -3.8972   -1.5002    0.0000 C   0  0  0  0  0  0  0  0  0  0  0  0
   -5.1972    0.7498    0.0000 C   0  0  0  0  0  0  0  0  0  0  0  0
   -2.5972    0.7498    0.0000 C   0  0  0  0  0  0  0  0  0  0  0  0
   -5.1972   -0.7502    0.0000 C   0  0  0  0  0  0  0  0  0  0  0  0
   -1.2983    1.5000    0.0000 C   0  0  0  0  0  0  0  0  0  0  0  0
   -6.4962   -1.5004    0.0000 Cl  0  0  0  0  0  0  0  0  0  0  0  0
   -1.2986    3.0000    0.0000 O   0  0  0  0  0  0  0  0  0  0  0  0
    0.0008    0.7502    0.0000 O   0  0  0  0  0  0  0  0  0  0  0  0
  4  1  1  0
  7  2  1  0
  7  5  2  0
  8  3  1  0
  8  6  1  0
  9  5  1  0
  9  6  2  0
 10  7  1  0
 10  8  2  0
 11  9  1  0
 12 10  1  0
 13 11  2  0
 14  4  1  0
 14 11  1  0
M  END
>  <NAME>  (1588) 
ETHYL 4-CHLORO-3,5-DIMETHYLBENZOATE

>  <SYNONYMS>  (1588) 


>  <SPECTRUM TYPE>  (1588) 
MS1

>  <INSTRUMENT TYPE>  (1588) 
EI-B

>  <INSTRUMENT>  (1588) 
JEOL JMS-DX-300

>  <ION MODE>  (1588) 
P

>  <INCHIKEY>  (1588) 
LNDNLCSHAZPLIV-UHFFFAOYSA-N

>  <FORMULA>  (1588) 
C11H13ClO2

>  <EXACT MASS>  (1588) 
212.060407336

>  <MW>  (1588) 
212

>  <ID>  (1588) 
JP009643

>  <CONTRIBUTOR>  (1588) 
University of Tokyo Team, {Faculty of Engineering, University of Tokyo

>  <COMMENT>  (1588) 
SMILES=CCOC(=O)c(c1)cc(C)c(Cl)c(C)1
InChI=InChI=1S/C11H13ClO2/c1-4-14-11(13)9-5-7(2)10(12)8(3)6-9/h5-6H,4H2,1-3H3
computed SMILES=O=C(OCC)C=1C=C(C(Cl)=C(C1)C)C
accession=JP009643
date=2016.01.19 (Created 2008.10.21, modified 2011.05.06)
author=THE INSTITUTE OF SCIENTIFIC AND INDUSTRIALRESEARCH
license=CC BY-NC-SA
exact mass=212.06041
ionization energy=70 eV
ion type=[M]+*
computed spectral entropy=2.702980207802985
computed normalized entropy=0.7231725871599123
SPLASH=splash10-014i-1910000000-dd3fe7da8707bc3600bc
submitter=submitter = University of Tokyo Team (Faculty of Engineering, University of Tokyo)
MoNA Rating=3.75

>  <NUM PEAKS>  (1588) 
42

>  <MASS SPECTRAL PEAKS>  (1588) 
27 4.5
29 4
39 3.1
45 0.1
50 1.5
51 6.4
52 1.2
53 0.17
62 1
63 3.7
65 1.6
75 0.2
76 1
77 18.8
78 3.9
91 0.15
101 1.5
102 3.4
103 18.7
104 0.6
105 2.3
138 1.2
139 15.4
140 0.2
141 5
149 4.4
153 1
167 99.99
168 14.1
169 33.3
170 4.5
177 0.34
184 32
185 3.5
186 10.6
197 0.57
199 1.7
211 1.2
212 38.2
213 0.5
214 12.9
215 1.5

>  <PREDICTED SPECTRUM>  (1588) 
14 6
15 3
26 30
27 114
28 1
29 171
36 18
38 25
39 132
40 16
41 61
43 26
44 8
45 69
49 5
50 126
51 225
52 101
53 67
62 61
63 168
64 74
65 125
66 18
69 29
73 3
74 80
75 112
76 75
77 213
78 131
79 106
84 4
85 1
86 16
89 125
90 46
91 36
101 39
102 184
103 270
104 207
105 183
106 29
111 36
112 26
123 33
131 11
132 14
133 22
134 6
137 27
138 61
139 385
140 138
141 168
149 198
167 999
168 254
169 464
170 121
177 102
178 32
184 499
185 183
186 293
187 71
212 524
213 165
214 273
215 83

$$$$

     RDKit          2D

 15 15  0  0  0  0  0  0  0  0999 V2000
   -6.4962   -0.7508    0.0000 C   0  0  0  0  0  0  0  0  0  0  0  0
    0.0000    3.0000    0.0000 C   0  0  0  0  0  0  0  0  0  0  0  0
    2.5989   -1.5002    0.0000 C   0  0  0  0  0  0  0  0  0  0  0  0
    3.8981    0.7504    0.0000 C   0  0  0  0  0  0  0  0  0  0  0  0
   -5.1970   -1.5006    0.0000 C   0  0  0  0  0  0  0  0  0  0  0  0
   -1.3000    0.7500    0.0000 C   0  0  0  0  0  0  0  0  0  0  0  0
   -0.0000   -1.5000    0.0000 C   0  0  0  0  0  0  0  0  0  0  0  0
    0.0000    1.5000    0.0000 C   0  0  0  0  0  0  0  0  0  0  0  0
    1.3000   -0.7500    0.0000 C   0  0  0  0  0  0  0  0  0  0  0  0
   -1.3000   -0.7500    0.0000 C   0  0  0  0  0  0  0  0  0  0  0  0
    1.3000    0.7500    0.0000 C   0  0  0  0  0  0  0  0  0  0  0  0
   -2.5989   -1.5002    0.0000 C   0  0  0  0  0  0  0  0  0  0  0  0
   -2.5987   -3.0002    0.0000 O   0  0  0  0  0  0  0  0  0  0  0  0
    2.5989    1.5002    0.0000 O   0  0  0  0  0  0  0  0  0  0  0  0
   -3.8981   -0.7504    0.0000 O   0  0  0  0  0  0  0  0  0  0  0  0
  5  1  1  0
  8  2  1  0
  8  6  2  0
  9  3  1  0
  9  7  1  0
 10  6  1  0
 10  7  2  0
 11  8  1  0
 11  9  2  0
 12 10  1  0
 13 12  2  0
 14  4  1  0
 14 11  1  0
 15  5  1  0
 15 12  1  0
M  END
>  <NAME>  (1589) 
ETHYL 4-METHOXY-3,5-DIMETHYLBENZOATE

>  <SYNONYMS>  (1589) 


>  <SPECTRUM TYPE>  (1589) 
MS1

>  <INSTRUMENT TYPE>  (1589) 
EI-B

>  <INSTRUMENT>  (1589) 
JEOL JMS-DX-300

>  <ION MODE>  (1589) 
P

>  <INCHIKEY>  (1589) 
VTPOFWHQBYJVTQ-UHFFFAOYSA-N

>  <FORMULA>  (1589) 
C12H16O3

>  <EXACT MASS>  (1589) 
208.10994437199997

>  <MW>  (1589) 
208

>  <ID>  (1589) 
JP009642

>  <CONTRIBUTOR>  (1589) 
University of Tokyo Team, {Faculty of Engineering, University of Tokyo

>  <COMMENT>  (1589) 
SMILES=CCOC(=O)c(c1)cc(C)c(OC)c(C)1
InChI=InChI=1S/C12H16O3/c1-5-15-12(13)10-6-8(2)11(14-4)9(3)7-10/h6-7H,5H2,1-4H3
computed SMILES=O=C(OCC)C=1C=C(C(OC)=C(C1)C)C
accession=JP009642
date=2016.01.19 (Created 2008.10.21, modified 2011.05.06)
author=THE INSTITUTE OF SCIENTIFIC AND INDUSTRIALRESEARCH
license=CC BY-NC-SA
exact mass=208.10994
ionization energy=70 eV
ion type=[M]+*
computed spectral entropy=2.3072751347896316
computed normalized entropy=0.6438573855517774
SPLASH=splash10-08fr-2930000000-7d6bba84fad98e4c7f52
submitter=submitter = University of Tokyo Team (Faculty of Engineering, University of Tokyo)
MoNA Rating=3.75

>  <NUM PEAKS>  (1589) 
36

>  <MASS SPECTRAL PEAKS>  (1589) 
27 2.8
29 3.3
39 2.7
40 0.1
41 1.3
43 2.1
51 2.3
52 0.12
53 1.4
63 1.7
65 3.8
74 0.14
77 6
78 1.4
79 4.9
91 1.2
92 2
103 3.2
104 1.1
105 1.3
106 1.1
119 1.9
120 3.3
121 0.17
135 2.9
136 1.4
149 2.9
163 99.99
164 14
165 6.4
180 15.1
181 0.18
193 7.4
207 1
208 60.6
209 8.3

>  <PREDICTED SPECTRUM>  (1589) 
26 5
27 105
28 4
29 155
39 118
40 2
41 134
42 0
43 86
44 25
45 127
50 63
51 163
52 77
53 103
57 9
62 17
63 65
64 26
65 129
66 48
67 69
74 36
75 5
76 58
77 263
78 130
79 159
80 42
81 18
82 34
89 25
91 202
92 73
93 13
102 22
103 157
104 102
105 176
106 40
107 107
117 18
119 151
120 129
121 26
131 76
133 26
135 384
136 111
137 13
149 39
163 999
164 262
165 126
179 62
180 418
181 109
182 50
193 180
194 12
208 732
209 229
210 38

$$$$

     RDKit          2D

 11 11  0  0  0  0  0  0  0  0999 V2000
   -2.6300   -1.5107    0.0000 C   0  0  0  0  0  0  0  0  0  0  0  0
    3.8980    2.2543    0.0000 C   0  0  0  0  0  0  0  0  0  0  0  0
   -1.3199    2.2329    0.0000 C   0  0  0  0  0  0  0  0  0  0  0  0
   -0.0499   -0.0171    0.0000 C   0  0  0  0  0  0  0  0  0  0  0  0
   -0.0499    2.9829    0.0000 C   0  0  0  0  0  0  0  0  0  0  0  0
    1.3001    0.7329    0.0000 C   0  0  0  0  0  0  0  0  0  0  0  0
   -2.6227   -0.0107    0.0000 C   0  0  0  0  0  0  0  0  0  0  0  0
   -1.3199    0.7329    0.0000 C   0  0  0  0  0  0  0  0  0  0  0  0
    1.3001    2.2329    0.0000 C   0  0  0  0  0  0  0  0  0  0  0  0
   -3.9180    0.7457    0.0000 O   0  0  0  0  0  0  0  0  0  0  0  0
    2.5929    2.9936    0.0000 O   0  0  0  0  0  0  0  0  0  0  0  0
  5  3  2  0
  6  4  1  0
  7  1  1  0
  8  3  1  0
  8  4  2  0
  8  7  1  0
  9  5  1  0
  9  6  2  0
 10  7  2  0
 11  2  1  0
 11  9  1  0
M  END
>  <NAME>  (1590) 
4-METHOXYPHENYL METHYL KETONE

>  <SYNONYMS>  (1590) 
4-METHOXYACETOPHENONE

>  <SPECTRUM TYPE>  (1590) 
MS1

>  <INSTRUMENT TYPE>  (1590) 
EI-B

>  <INSTRUMENT>  (1590) 
JEOL JMS-DX-300

>  <ION MODE>  (1590) 
P

>  <INCHIKEY>  (1590) 
NTPLXRHDUXRPNE-UHFFFAOYSA-N

>  <FORMULA>  (1590) 
C9H10O2

>  <EXACT MASS>  (1590) 
150.06807956

>  <MW>  (1590) 
150

>  <ID>  (1590) 
JP009641

>  <CONTRIBUTOR>  (1590) 
University of Tokyo Team, {Faculty of Engineering, University of Tokyo

>  <COMMENT>  (1590) 
SMILES=COc(c1)ccc(c1)C(C)=O
InChI=InChI=1S/C9H10O2/c1-7(10)8-3-5-9(11-2)6-4-8/h3-6H,1-2H3
computed SMILES=O=C(C1=CC=C(OC)C=C1)C
accession=JP009641
date=2016.01.19 (Created 2008.10.21, modified 2011.05.06)
author=THE INSTITUTE OF SCIENTIFIC AND INDUSTRIALRESEARCH
license=CC BY-NC-SA
exact mass=150.06808
ionization energy=70 eV
ion type=[M]+*
computed spectral entropy=2.66863770637764
computed normalized entropy=0.7336287277325607
SPLASH=splash10-002r-9700000000-e00e43b1125f4e22757a
submitter=submitter = University of Tokyo Team (Faculty of Engineering, University of Tokyo)
MoNA Rating=3.75

>  <NUM PEAKS>  (1590) 
38

>  <MASS SPECTRAL PEAKS>  (1590) 
27 2.2
28 12.8
29 3.2
32 0.27
38 5.6
39 6
42 3.2
43 3.25
50 9.8
51 9.6
52 3.2
53 0.33
61 1
62 4.6
63 21
64 2.12
65 4.8
66 1.7
74 3.3
75 0.33
76 6.7
77 39
78 7.7
79 0.5
89 1.4
91 2.7
92 31
93 0.24
104 1.5
107 16.2
108 1.3
119 0.1
120 1.5
121 2.1
135 99.99
136 0.89
150 34.8
151 3.7

>  <PREDICTED SPECTRUM>  (1590) 
14 56
15 177
16 23
17 8
18 33
25 8
26 68
27 122
28 82
29 105
30 22
37 109
38 193
39 224
40 82
41 82
42 49
43 472
49 59
50 290
51 373
52 178
53 189
54 32
55 22
60 10
61 105
62 219
63 359
64 304
65 243
66 137
67 58
73 4
74 163
75 219
76 195
77 500
78 230
79 300
80 76
89 100
90 81
91 147
92 343
93 114
94 8
103 3
104 6
105 53
106 54
107 380
108 162
119 71
120 90
121 112
135 999
136 331
137 72
150 625
151 211
152 32

$$$$

     RDKit          2D

 17 19  0  0  0  0  0  0  0  0999 V2000
    1.7553   -4.5522    0.0000 C   0  0  0  0  0  0  0  0  0  0  0  0
    3.0600    2.2000    0.0000 C   0  0  0  0  0  0  0  0  0  0  0  0
    1.7600    2.9500    0.0000 C   0  0  0  0  0  0  0  0  0  0  0  0
   -3.4300   -0.0500    0.0000 C   0  0  0  0  0  0  0  0  0  0  0  0
   -3.4300   -1.5500    0.0000 C   0  0  0  0  0  0  0  0  0  0  0  0
    3.0600    0.7000    0.0000 C   0  0  0  0  0  0  0  0  0  0  0  0
    0.4600    2.2000    0.0000 C   0  0  0  0  0  0  0  0  0  0  0  0
   -2.1300    0.7000    0.0000 C   0  0  0  0  0  0  0  0  0  0  0  0
   -2.1300   -2.3000    0.0000 C   0  0  0  0  0  0  0  0  0  0  0  0
    1.7600   -1.5500    0.0000 C   0  0  0  0  0  0  0  0  0  0  0  0
    0.4575   -3.8000    0.0000 C   0  0  0  0  0  0  0  0  0  0  0  0
    1.7600   -0.0500    0.0000 C   0  0  0  0  0  0  0  0  0  0  0  0
    0.4600    0.7000    0.0000 C   0  0  0  0  0  0  0  0  0  0  0  0
   -0.8300   -0.0500    0.0000 C   0  0  0  0  0  0  0  0  0  0  0  0
   -0.8300   -1.5500    0.0000 C   0  0  0  0  0  0  0  0  0  0  0  0
    0.4600   -2.3000    0.0000 C   0  0  0  0  0  0  0  0  0  0  0  0
   -0.8428   -4.5478    0.0000 O   0  0  0  0  0  0  0  0  0  0  0  0
  3  2  2  0
  5  4  2  0
  6  2  1  0
  7  3  1  0
  8  4  1  0
  9  5  1  0
 11  1  1  0
 12  6  2  0
 12 10  1  0
 13  7  2  0
 13 12  1  0
 14  8  2  0
 14 13  1  0
 15  9  2  0
 15 14  1  0
 16 10  2  0
 16 11  1  0
 16 15  1  0
 17 11  2  0
M  END
>  <NAME>  (1591) 
METHYL 9-PHENANTHRYL KETONE

>  <SYNONYMS>  (1591) 


>  <SPECTRUM TYPE>  (1591) 
MS1

>  <INSTRUMENT TYPE>  (1591) 
EI-B

>  <INSTRUMENT>  (1591) 
JEOL JMS-DX-300

>  <ION MODE>  (1591) 
P

>  <INCHIKEY>  (1591) 
UIFAWZBYTTXSOG-UHFFFAOYSA-N

>  <FORMULA>  (1591) 
C16H12O

>  <EXACT MASS>  (1591) 
220.088815004

>  <MW>  (1591) 
220

>  <ID>  (1591) 
JP009640

>  <CONTRIBUTOR>  (1591) 
University of Tokyo Team, {Faculty of Engineering, University of Tokyo

>  <COMMENT>  (1591) 
SMILES=CC(=O)c(c1)c(c3)c(ccc3)c(c2)c(ccc2)1
InChI=InChI=1S/C16H12O/c1-11(17)16-10-12-6-2-3-7-13(12)14-8-4-5-9-15(14)16/h2-10H,1H3
computed SMILES=O=C(C1=CC=2C=CC=CC2C=3C=CC=CC31)C
accession=JP009640
date=2016.01.19 (Created 2008.10.21, modified 2011.05.06)
author=THE INSTITUTE OF SCIENTIFIC AND INDUSTRIALRESEARCH
license=CC BY-NC-SA
exact mass=220.08882
ionization energy=70 eV
ion type=[M]+*
computed spectral entropy=2.612364646282895
computed normalized entropy=0.6989287211218786
SPLASH=splash10-0a6r-2890000000-a0679b7b20448356d639
submitter=submitter = University of Tokyo Team (Faculty of Engineering, University of Tokyo)
MoNA Rating=3.75

>  <NUM PEAKS>  (1591) 
42

>  <MASS SPECTRAL PEAKS>  (1591) 
28 6.5
32 1.6
43 11.2
63 0.13
74 1.5
75 2.8
76 1.1
87 0.18
88 7.4
89 3.7
95 1.1
98 0.11
99 1.3
101 1.1
103 2.5
110 0.47
126 2
139 1.1
149 2.1
150 1.15
151 16.2
152 3.5
163 1.7
165 0.25
174 5.2
175 8.2
176 53.4
177 7.56
178 14.6
179 1.8
187 1.6
188 0.1
189 5
190 1.7
191 2.7
205 99.99
206 16.8
207 1.5
219 1.4
220 6.24
221 11
222 1.1

>  <PREDICTED SPECTRUM>  (1591) 
43 119
50 64
51 88
62 47
63 111
64 31
69 14
74 201
75 278
76 200
77 107
78 16
82 101
83 85
84 23
85 2
86 62
87 94
88 144
89 37
94 61
95 61
98 68
99 68
100 12
101 177
102 130
103 92
105 87
106 6
110 86
113 5
122 41
123 44
149 233
150 318
151 238
152 91
163 103
173 69
174 142
175 211
176 489
177 781
178 364
179 10
189 155
191 36
200 102
201 289
202 28
203 8
204 84
205 999
206 389
207 164
208 13
218 97
219 165
220 735
221 314
222 124

$$$$

     RDKit          2D

 18 18  0  0  0  0  0  0  0  0999 V2000
    6.4962    0.7508    0.0000 C   0  0  0  0  0  0  0  0  0  0  0  0
   -6.4962   -0.7508    0.0000 C   0  0  0  0  0  0  0  0  0  0  0  0
   -0.0000   -3.0000    0.0000 C   0  0  0  0  0  0  0  0  0  0  0  0
   -2.5989    1.5002    0.0000 C   0  0  0  0  0  0  0  0  0  0  0  0
    5.1970    1.5006    0.0000 C   0  0  0  0  0  0  0  0  0  0  0  0
   -5.1970   -1.5006    0.0000 C   0  0  0  0  0  0  0  0  0  0  0  0
    1.3000   -0.7500    0.0000 C   0  0  0  0  0  0  0  0  0  0  0  0
    0.0000    1.5000    0.0000 C   0  0  0  0  0  0  0  0  0  0  0  0
   -0.0000   -1.5000    0.0000 C   0  0  0  0  0  0  0  0  0  0  0  0
   -1.3000    0.7500    0.0000 C   0  0  0  0  0  0  0  0  0  0  0  0
    1.3000    0.7500    0.0000 C   0  0  0  0  0  0  0  0  0  0  0  0
   -1.3000   -0.7500    0.0000 C   0  0  0  0  0  0  0  0  0  0  0  0
    2.5989    1.5002    0.0000 C   0  0  0  0  0  0  0  0  0  0  0  0
   -2.5989   -1.5002    0.0000 C   0  0  0  0  0  0  0  0  0  0  0  0
    2.5987    3.0002    0.0000 O   0  0  0  0  0  0  0  0  0  0  0  0
   -2.5987   -3.0002    0.0000 O   0  0  0  0  0  0  0  0  0  0  0  0
    3.8981    0.7504    0.0000 O   0  0  0  0  0  0  0  0  0  0  0  0
   -3.8981   -0.7504    0.0000 O   0  0  0  0  0  0  0  0  0  0  0  0
  5  1  1  0
  6  2  1  0
  9  3  1  0
  9  7  2  0
 10  4  1  0
 10  8  1  0
 11  7  1  0
 11  8  2  0
 12  9  1  0
 12 10  2  0
 13 11  1  0
 14 12  1  0
 15 13  2  0
 16 14  2  0
 17  5  1  0
 17 13  1  0
 18  6  1  0
 18 14  1  0
M  END
>  <NAME>  (1592) 
DIETHYL 2,6-DIMETHYLTEREPHTHALATE

>  <SYNONYMS>  (1592) 


>  <SPECTRUM TYPE>  (1592) 
MS1

>  <INSTRUMENT TYPE>  (1592) 
EI-B

>  <INSTRUMENT>  (1592) 
JEOL JMS-DX-300

>  <ION MODE>  (1592) 
P

>  <INCHIKEY>  (1592) 
SFIMTKVOVRYIGN-UHFFFAOYSA-N

>  <FORMULA>  (1592) 
C14H18O4

>  <EXACT MASS>  (1592) 
250.120509056

>  <MW>  (1592) 
250

>  <ID>  (1592) 
JP009639

>  <CONTRIBUTOR>  (1592) 
University of Tokyo Team, {Faculty of Engineering, University of Tokyo

>  <COMMENT>  (1592) 
SMILES=CCOC(=O)c(c1)cc(C)c(C(=O)OCC)c(C)1
InChI=InChI=1S/C14H18O4/c1-5-17-13(15)11-7-9(3)12(10(4)8-11)14(16)18-6-2/h7-8H,5-6H2,1-4H3
computed SMILES=O=C(OCC)C=1C=C(C(C(=O)OCC)=C(C1)C)C
accession=JP009639
date=2016.01.19 (Created 2008.10.21, modified 2011.05.06)
author=THE INSTITUTE OF SCIENTIFIC AND INDUSTRIALRESEARCH
license=CC BY-NC-SA
exact mass=250.12051
ionization energy=70 eV
ion type=[M]+*
computed spectral entropy=2.938720894023383
computed normalized entropy=0.7237439083347498
SPLASH=splash10-0zfr-2390000000-cf05d326ff00393b51e4
submitter=submitter = University of Tokyo Team (Faculty of Engineering, University of Tokyo)
MoNA Rating=3.75

>  <NUM PEAKS>  (1592) 
58

>  <MASS SPECTRAL PEAKS>  (1592) 
26 1.1
27 7.6
29 12.7
39 0.37
40 1
41 1.7
43 10.7
44 0.24
45 2.3
50 1
51 4.8
52 0.23
53 2.5
55 1.1
63 3.3
64 0.1
65 3.4
75 1
76 1.2
77 1.66
78 6.7
79 3.7
80 4.4
89 0.15
91 8
92 1
93 3.9
102 0.22
103 13
104 7.9
105 4.8
107 0.1
119 1.8
121 4
131 5.3
132 0.7
133 4.8
147 1.3
148 3.3
149 1.34
150 2.2
160 1.4
161 1.1
163 0.14
176 12.5
177 29
178 5.4
193 1.17
194 5.7
204 80.8
205 99.99
206 1.48
207 4.8
221 11.8
222 4.2
235 0.48
250 52.7
251 8.7

>  <PREDICTED SPECTRUM>  (1592) 
26 16
27 93
29 214
39 184
40 55
41 65
43 126
44 62
45 20
50 53
51 187
52 146
53 216
54 34
55 37
62 10
63 94
64 46
65 192
66 90
67 92
74 54
75 68
76 47
77 338
78 180
79 223
80 47
90 8
91 187
92 101
93 30
102 102
103 365
104 260
105 117
106 41
107 51
117 5
120 18
121 135
131 253
132 291
133 147
147 121
148 246
149 313
150 109
158 34
159 147
160 45
165 2
175 125
176 524
177 675
178 242
179 23
193 59
204 750
205 999
206 330
207 64
221 258
222 204
223 8
250 728
251 224
252 18

$$$$

     RDKit          2D

 15 15  0  0  0  0  0  0  0  0999 V2000
   -6.4962   -0.7508    0.0000 C   0  0  0  0  0  0  0  0  0  0  0  0
    0.0000    3.0000    0.0000 C   0  0  0  0  0  0  0  0  0  0  0  0
    2.5989   -1.5002    0.0000 C   0  0  0  0  0  0  0  0  0  0  0  0
    3.8981    0.7504    0.0000 C   0  0  0  0  0  0  0  0  0  0  0  0
   -5.1970   -1.5006    0.0000 C   0  0  0  0  0  0  0  0  0  0  0  0
   -1.3000    0.7500    0.0000 C   0  0  0  0  0  0  0  0  0  0  0  0
   -0.0000   -1.5000    0.0000 C   0  0  0  0  0  0  0  0  0  0  0  0
    0.0000    1.5000    0.0000 C   0  0  0  0  0  0  0  0  0  0  0  0
    1.3000   -0.7500    0.0000 C   0  0  0  0  0  0  0  0  0  0  0  0
   -1.3000   -0.7500    0.0000 C   0  0  0  0  0  0  0  0  0  0  0  0
    1.3000    0.7500    0.0000 C   0  0  0  0  0  0  0  0  0  0  0  0
   -2.5989   -1.5002    0.0000 C   0  0  0  0  0  0  0  0  0  0  0  0
   -2.5987   -3.0002    0.0000 O   0  0  0  0  0  0  0  0  0  0  0  0
   -3.8981   -0.7504    0.0000 O   0  0  0  0  0  0  0  0  0  0  0  0
    2.5989    1.5002    0.0000 S   0  0  0  0  0  0  0  0  0  0  0  0
  5  1  1  0
  8  2  1  0
  8  6  2  0
  9  3  1  0
  9  7  1  0
 10  6  1  0
 10  7  2  0
 11  8  1  0
 11  9  2  0
 12 10  1  0
 13 12  2  0
 14  5  1  0
 14 12  1  0
 15  4  1  0
 15 11  1  0
M  END
>  <NAME>  (1593) 
ETHYL (3,5-DIMETHYL-4-METHYLTHIO)BENZOATE

>  <SYNONYMS>  (1593) 


>  <SPECTRUM TYPE>  (1593) 
MS1

>  <INSTRUMENT TYPE>  (1593) 
EI-B

>  <INSTRUMENT>  (1593) 
JEOL JMS-DX-300

>  <ION MODE>  (1593) 
P

>  <INCHIKEY>  (1593) 
WEWKDUHBBQKMCR-UHFFFAOYSA-N

>  <FORMULA>  (1593) 
C12H16O2S

>  <EXACT MASS>  (1593) 
224.087100752

>  <MW>  (1593) 
224

>  <ID>  (1593) 
JP009638

>  <CONTRIBUTOR>  (1593) 
University of Tokyo Team, {Faculty of Engineering, University of Tokyo

>  <COMMENT>  (1593) 
SMILES=CCOC(=O)c(c1)cc(C)c(SC)c(C)1
InChI=InChI=1S/C12H16O2S/c1-5-14-12(13)10-6-8(2)11(15-4)9(3)7-10/h6-7H,5H2,1-4H3
computed SMILES=O=C(OCC)C=1C=C(C(SC)=C(C1)C)C
accession=JP009638
date=2016.01.19 (Created 2008.10.21, modified 2011.05.06)
author=THE INSTITUTE OF SCIENTIFIC AND INDUSTRIALRESEARCH
license=CC BY-NC-SA
exact mass=224.0871
ionization energy=70 eV
ion type=[M]+*
computed spectral entropy=3.4042645029032084
computed normalized entropy=0.7683153372064285
SPLASH=splash10-00b9-5940000000-fce003718f7d9112bc48
submitter=submitter = University of Tokyo Team (Faculty of Engineering, University of Tokyo)
MoNA Rating=3.75

>  <NUM PEAKS>  (1593) 
84

>  <MASS SPECTRAL PEAKS>  (1593) 
26 1.4
27 9.8
29 17.1
39 0.8
41 2.7
43 3.2
44 2.2
45 1.88
47 2
50 2.3
51 7.6
52 0.23
53 4.8
59 7.4
61 1.1
62 0.18
63 6.7
64 1.7
65 6.8
67 0.21
69 3
70 1.4
71 2.3
74 0.18
75 2.3
76 2
77 18.1
78 0.6
79 5
82 2.8
89 2.8
90 0.19
91 22.3
92 4.5
93 2.8
97 0.21
102 3.4
103 11
104 4.8
105 1.1
106 1.8
107 5.3
109 1.5
111 0.2
115 1.9
117 3.3
118 2.4
119 0.27
120 1.4
121 8.6
122 1.3
123 0.19
131 1.6
132 2.8
133 4.3
134 0.69
135 18.5
136 14
137 9.8
138 0.15
139 1.2
147 1.1
149 5.7
150 0.42
151 7.2
152 2.1
153 1.7
163 0.6
164 1.8
165 4
177 3.7
178 0.12
179 85.2
180 13.3
181 13.8
182 0.17
196 23.2
197 2.8
198 1.2
209 0.91
210 1.2
224 99.99
225 14.7
226 5.8

>  <PREDICTED SPECTRUM>  (1593) 
14 15
15 42
26 64
27 199
28 78
29 245
30 23
38 13
39 164
40 35
41 153
42 36
43 174
44 39
45 232
46 20
47 111
50 76
51 215
52 118
53 141
55 13
57 119
58 49
59 84
60 15
61 38
62 69
63 172
64 115
65 186
66 67
67 77
69 117
70 69
71 120
72 7
73 1
74 64
75 82
76 87
77 311
78 176
79 232
80 71
81 33
82 122
83 43
85 26
87 21
88 25
89 160
90 98
91 321
92 130
93 68
94 37
95 35
96 17
97 61
102 76
103 273
104 147
105 297
106 163
107 222
108 74
109 60
118 60
119 178
120 112
121 202
122 105
123 94
124 26
125 1
131 113
132 81
133 239
134 157
135 422
136 287
137 213
138 73
139 14
147 157
148 116
149 212
150 230
151 372
152 166
153 151
163 108
164 71
165 122
166 1
167 5
177 22
178 7
179 877
180 231
181 284
182 40
196 592
197 138
198 92
209 75
210 10
224 999
225 380
226 176
227 43

$$$$

     RDKit          2D

 14 14  0  0  0  0  0  0  0  0999 V2000
    5.1962   -1.5000    0.0000 C   0  0  0  0  0  0  0  0  0  0  0  0
   -3.8971    0.7500    0.0000 C   0  0  0  0  0  0  0  0  0  0  0  0
   -1.2993   -3.7508    0.0000 C   0  0  0  0  0  0  0  0  0  0  0  0
    1.2996    0.7506    0.0000 C   0  0  0  0  0  0  0  0  0  0  0  0
    3.8971   -2.2500    0.0000 C   0  0  0  0  0  0  0  0  0  0  0  0
   -2.5986   -1.5008    0.0000 C   0  0  0  0  0  0  0  0  0  0  0  0
   -1.2986    0.7508    0.0000 C   0  0  0  0  0  0  0  0  0  0  0  0
   -2.5981   -0.0000    0.0000 C   0  0  0  0  0  0  0  0  0  0  0  0
   -1.2995   -2.2508    0.0000 C   0  0  0  0  0  0  0  0  0  0  0  0
    0.0005    0.0008    0.0000 C   0  0  0  0  0  0  0  0  0  0  0  0
   -0.0000   -1.5000    0.0000 C   0  0  0  0  0  0  0  0  0  0  0  0
    1.2990   -2.2500    0.0000 C   0  0  0  0  0  0  0  0  0  0  0  0
    1.2990   -3.7500    0.0000 O   0  0  0  0  0  0  0  0  0  0  0  0
    2.5981   -1.5000    0.0000 O   0  0  0  0  0  0  0  0  0  0  0  0
  5  1  1  0
  8  2  1  0
  8  6  2  0
  8  7  1  0
  9  3  1  0
  9  6  1  0
 10  4  1  0
 10  7  2  0
 11  9  2  0
 11 10  1  0
 12 11  1  0
 13 12  2  0
 14  5  1  0
 14 12  1  0
M  END
>  <NAME>  (1594) 
ETHYL 2,4,6-TRIMETHYLBENZOATE

>  <SYNONYMS>  (1594) 


>  <SPECTRUM TYPE>  (1594) 
MS1

>  <INSTRUMENT TYPE>  (1594) 
EI-B

>  <INSTRUMENT>  (1594) 
JEOL JMS-DX-300

>  <ION MODE>  (1594) 
P

>  <INCHIKEY>  (1594) 
ZXTXIZPSMQCYBN-UHFFFAOYSA-N

>  <FORMULA>  (1594) 
C12H16O2

>  <EXACT MASS>  (1594) 
192.115029752

>  <MW>  (1594) 
192

>  <ID>  (1594) 
JP009637

>  <CONTRIBUTOR>  (1594) 
University of Tokyo Team, {Faculty of Engineering, University of Tokyo

>  <COMMENT>  (1594) 
SMILES=CCOC(=O)c(c(C)1)c(C)cc(C)c1
InChI=InChI=1S/C12H16O2/c1-5-14-12(13)11-9(3)6-8(2)7-10(11)4/h6-7H,5H2,1-4H3
computed SMILES=O=C(OCC)C=1C(=CC(=CC1C)C)C
accession=JP009637
date=2016.01.19 (Created 2008.10.21, modified 2011.05.06)
author=THE INSTITUTE OF SCIENTIFIC AND INDUSTRIALRESEARCH
license=CC BY-NC-SA
exact mass=192.11503
ionization energy=70 eV
ion type=[M]+*
computed spectral entropy=2.451933055252228
computed normalized entropy=0.6896464179726638
SPLASH=splash10-0002-1900000000-9c887d7252a1c267ec5a
submitter=submitter = University of Tokyo Team (Faculty of Engineering, University of Tokyo)
MoNA Rating=3.75

>  <NUM PEAKS>  (1594) 
35

>  <MASS SPECTRAL PEAKS>  (1594) 
27 3.9
29 4.1
39 3.8
41 0.58
43 1.4
51 3.1
52 1.2
53 0.21
63 1.7
65 3.5
77 7.7
78 0.28
79 3.1
91 14.6
92 1.5
93 0.1
103 5.2
104 3.1
105 2.8
107 0.14
115 4.7
116 1.1
117 7.7
118 0.72
119 20.2
120 3.1
146 75.5
147 99.99
148 12.2
149 1.3
163 21
164 0.5
177 2.7
192 52.3
193 7

>  <PREDICTED SPECTRUM>  (1594) 
14 32
15 52
26 86
27 304
28 98
29 302
33 0
37 15
38 80
39 444
40 192
41 459
42 126
43 234
44 94
45 156
46 19
50 178
51 350
52 240
53 343
54 74
55 75
61 60
62 120
63 259
64 184
65 344
66 211
67 216
73 18
74 144
75 189
76 78
77 493
78 229
79 311
80 83
87 95
89 217
90 52
91 565
92 227
93 158
101 51
102 125
103 307
104 206
105 174
106 43
115 376
116 169
117 489
118 395
119 847
120 299
121 32
128 81
129 84
130 73
131 284
132 4
133 47
134 29
135 74
145 297
146 562
147 999
148 372
149 169
163 600
164 417
165 111
192 698
193 296
194 106

$$$$

     RDKit          2D

 13 13  0  0  0  0  0  0  0  0999 V2000
   -6.4962   -0.7508    0.0000 C   0  0  0  0  0  0  0  0  0  0  0  0
    0.0000    3.0000    0.0000 C   0  0  0  0  0  0  0  0  0  0  0  0
    2.5989   -1.5002    0.0000 C   0  0  0  0  0  0  0  0  0  0  0  0
   -5.1970   -1.5006    0.0000 C   0  0  0  0  0  0  0  0  0  0  0  0
    1.3000    0.7500    0.0000 C   0  0  0  0  0  0  0  0  0  0  0  0
   -1.3000    0.7500    0.0000 C   0  0  0  0  0  0  0  0  0  0  0  0
    0.0000   -1.5000    0.0000 C   0  0  0  0  0  0  0  0  0  0  0  0
    0.0000    1.5000    0.0000 C   0  0  0  0  0  0  0  0  0  0  0  0
    1.3000   -0.7500    0.0000 C   0  0  0  0  0  0  0  0  0  0  0  0
   -1.3000   -0.7500    0.0000 C   0  0  0  0  0  0  0  0  0  0  0  0
   -2.5989   -1.5002    0.0000 C   0  0  0  0  0  0  0  0  0  0  0  0
   -2.5987   -3.0002    0.0000 O   0  0  0  0  0  0  0  0  0  0  0  0
   -3.8981   -0.7504    0.0000 O   0  0  0  0  0  0  0  0  0  0  0  0
  4  1  1  0
  8  2  1  0
  8  5  2  0
  8  6  1  0
  9  3  1  0
  9  5  1  0
  9  7  2  0
 10  6  2  0
 10  7  1  0
 11 10  1  0
 12 11  2  0
 13  4  1  0
 13 11  1  0
M  END
>  <NAME>  (1595) 
ETHYL 3,5-DIMETHYLBENZOATE

>  <SYNONYMS>  (1595) 


>  <SPECTRUM TYPE>  (1595) 
MS1

>  <INSTRUMENT TYPE>  (1595) 
EI-B

>  <INSTRUMENT>  (1595) 
JEOL JMS-DX-300

>  <ION MODE>  (1595) 
P

>  <INCHIKEY>  (1595) 
IHAAVLXHNOZMBC-UHFFFAOYSA-N

>  <FORMULA>  (1595) 
C11H14O2

>  <EXACT MASS>  (1595) 
178.099379688

>  <MW>  (1595) 
178

>  <ID>  (1595) 
JP009636

>  <CONTRIBUTOR>  (1595) 
University of Tokyo Team, {Faculty of Engineering, University of Tokyo

>  <COMMENT>  (1595) 
SMILES=CCOC(=O)c(c1)cc(C)cc(C)1
InChI=InChI=1S/C11H14O2/c1-4-13-11(12)10-6-8(2)5-9(3)7-10/h5-7H,4H2,1-3H3
computed SMILES=O=C(OCC)C=1C=C(C=C(C1)C)C
accession=JP009636
license=CC BY-NC-SA
date=2016.01.19 (Created 2008.10.21, modified 2011.05.06)
author=THE INSTITUTE OF SCIENTIFIC AND INDUSTRIALRESEARCH
exact mass=178.09938
ionization energy=70 eV
ion type=[M]+*
computed spectral entropy=2.1839197723074832
computed normalized entropy=0.670305421224165
SPLASH=splash10-001i-1900000000-5de8a03edc22ac5322d7
submitter=submitter = University of Tokyo Team (Faculty of Engineering, University of Tokyo)
MoNA Rating=3.75

>  <NUM PEAKS>  (1595) 
26

>  <MASS SPECTRAL PEAKS>  (1595) 
27 4
29 2.8
39 3.7
51 0.3
53 1.8
63 2.1
65 2
77 1.13
78 3.5
79 8.6
91 3.9
103 0.64
104 3.1
105 29.2
106 4
119 0.1
132 1
133 99.99
134 14.1
135 0.13
150 24.4
151 2.2
163 7
177 0.14
178 42.2
179 5

>  <PREDICTED SPECTRUM>  (1595) 
14 15
15 29
18 1
26 59
27 189
28 75
29 183
37 33
38 78
39 258
40 66
41 219
42 28
43 96
44 74
45 146
49 35
50 133
51 259
52 167
53 192
54 1
55 7
61 28
62 90
63 173
64 90
65 186
66 55
67 66
73 23
74 78
75 104
76 50
77 401
78 204
79 236
80 73
82 29
87 15
88 3
89 112
90 58
91 136
92 15
101 51
102 77
103 196
104 174
105 591
106 230
107 28
117 40
119 56
121 1
122 43
131 34
132 45
133 999
134 314
135 57
149 30
150 522
151 215
152 6
163 148
164 33
178 480
179 164
180 31

$$$$

     RDKit          2D

 18 19  0  0  0  0  0  0  0  0999 V2000
   -7.1537   -0.3823    0.0000 C   0  0  0  0  0  0  0  0  0  0  0  0
   -5.8548   -1.1325    0.0000 C   0  0  0  0  0  0  0  0  0  0  0  0
    5.8368    1.1260    0.0000 C   0  0  0  0  0  0  0  0  0  0  0  0
    5.8391   -0.3740    0.0000 C   0  0  0  0  0  0  0  0  0  0  0  0
    4.5357    1.8740    0.0000 C   0  0  0  0  0  0  0  0  0  0  0  0
   -0.6626    1.8599    0.0000 C   0  0  0  0  0  0  0  0  0  0  0  0
   -1.9571    1.1177    0.0000 C   0  0  0  0  0  0  0  0  0  0  0  0
    4.5402   -1.1260    0.0000 C   0  0  0  0  0  0  0  0  0  0  0  0
    3.2368    1.1221    0.0000 C   0  0  0  0  0  0  0  0  0  0  0  0
    0.6365    1.1099    0.0000 C   0  0  0  0  0  0  0  0  0  0  0  0
   -0.6585   -1.1331    0.0000 C   0  0  0  0  0  0  0  0  0  0  0  0
   -1.9576   -0.3831    0.0000 C   0  0  0  0  0  0  0  0  0  0  0  0
    3.2391   -0.3779    0.0000 C   0  0  0  0  0  0  0  0  0  0  0  0
    0.6410   -0.3823    0.0000 C   0  0  0  0  0  0  0  0  0  0  0  0
   -3.2567   -1.1329    0.0000 C   0  0  0  0  0  0  0  0  0  0  0  0
   -3.2569   -2.6329    0.0000 O   0  0  0  0  0  0  0  0  0  0  0  0
   -4.5556   -0.3827    0.0000 O   0  0  0  0  0  0  0  0  0  0  0  0
    1.9413   -1.1301    0.0000 O   0  0  0  0  0  0  0  0  0  0  0  0
  2  1  1  0
  4  3  2  0
  5  3  1  0
  7  6  2  0
  8  4  1  0
  9  5  2  0
 10  6  1  0
 12  7  1  0
 12 11  2  0
 13  8  2  0
 13  9  1  0
 14 10  2  0
 14 11  1  0
 15 12  1  0
 16 15  2  0
 17  2  1  0
 17 15  1  0
 18 13  1  0
 18 14  1  0
M  END
>  <NAME>  (1596) 
ETHYL 3-PHENOXYBENZOATE

>  <SYNONYMS>  (1596) 


>  <SPECTRUM TYPE>  (1596) 
MS1

>  <INSTRUMENT TYPE>  (1596) 
EI-B

>  <INSTRUMENT>  (1596) 
JEOL JMS-DX-300

>  <ION MODE>  (1596) 
P

>  <INCHIKEY>  (1596) 
LBKYKBFMRILRCT-UHFFFAOYSA-N

>  <FORMULA>  (1596) 
C15H14O3

>  <EXACT MASS>  (1596) 
242.094294308

>  <MW>  (1596) 
242

>  <ID>  (1596) 
JP009635

>  <CONTRIBUTOR>  (1596) 
University of Tokyo Team, {Faculty of Engineering, University of Tokyo

>  <COMMENT>  (1596) 
SMILES=CCOC(=O)c(c2)cc(cc2)Oc(c1)cccc1
InChI=InChI=1S/C15H14O3/c1-2-17-15(16)12-7-6-10-14(11-12)18-13-8-4-3-5-9-13/h3-11H,2H2,1H3
computed SMILES=O=C(OCC)C=1C=CC=C(OC=2C=CC=CC2)C1
accession=JP009635
date=2016.01.19 (Created 2008.10.21, modified 2011.05.06)
author=THE INSTITUTE OF SCIENTIFIC AND INDUSTRIALRESEARCH
license=CC BY-NC-SA
exact mass=242.09429
ionization energy=70 eV
ion type=[M]+*
computed spectral entropy=3.228050306021315
computed normalized entropy=0.762392325870027
SPLASH=splash10-0a6u-5920000000-fd77f10a60482e261b02
submitter=submitter = University of Tokyo Team (Faculty of Engineering, University of Tokyo)
MoNA Rating=3.75

>  <NUM PEAKS>  (1596) 
69

>  <MASS SPECTRAL PEAKS>  (1596) 
26 1.4
27 8.3
29 10.7
38 0.16
39 4.9
40 1
43 1.9
44 0.22
45 6.7
50 11.5
51 24
52 0.18
57 1.4
58 1.1
60 1.1
63 0.36
64 3
65 4.7
71 1.2
74 0.33
75 8
76 8.8
77 53.5
78 0.57
79 1
91 1.9
92 2.6
94 0.13
98 3.1
99 5.3
104 1.3
105 99.99
106 11
107 1.1
111 7.8
112 0.1
113 2.8
115 9.8
116 1
122 3.17
123 3.1
135 1.4
139 24.8
140 0.37
141 22.5
142 4
149 3.6
150 3.2
151 4
156 10
158 3.2
168 0.48
169 16.4
170 6.8
184 7.8
185 0.1
186 2.8
195 3
196 9
197 5.47
198 9.6
213 1.4
214 7
215 0.1
227 2.7
241 1.1
242 76.7
243 1.29
244 1.6

>  <PREDICTED SPECTRUM>  (1596) 
26 19
27 100
28 0
29 154
36 11
38 64
39 177
40 12
41 27
43 105
44 62
45 139
49 24
50 206
51 332
52 34
53 25
57 46
62 84
63 241
64 141
65 270
66 73
69 99
71 36
74 80
75 194
76 250
77 655
78 138
83 34
84 25
86 42
87 26
89 126
90 21
91 140
92 102
93 122
94 103
101 29
102 51
103 63
104 141
105 474
106 176
112 52
113 80
114 148
115 526
116 106
121 75
126 53
127 49
128 18
129 130
130 45
139 378
140 207
141 490
142 194
143 8
150 113
152 71
157 24
165 89
166 67
167 64
168 223
169 377
170 214
171 63
184 188
185 14
186 120
195 81
196 92
197 763
198 248
199 121
214 441
215 149
216 68
227 190
228 28
242 999
243 383
244 101

$$$$

     RDKit          2D

 17 18  0  0  0  0  0  0  0  0999 V2000
    7.1382   -0.3749    0.0000 C   0  0  0  0  0  0  0  0  0  0  0  0
    5.8393    0.3753    0.0000 C   0  0  0  0  0  0  0  0  0  0  0  0
   -4.5574    1.8686    0.0000 C   0  0  0  0  0  0  0  0  0  0  0  0
   -4.5554    0.3678    0.0000 C   0  0  0  0  0  0  0  0  0  0  0  0
   -3.2591    2.6216    0.0000 C   0  0  0  0  0  0  0  0  0  0  0  0
    0.6470   -2.6171    0.0000 C   0  0  0  0  0  0  0  0  0  0  0  0
   -3.2551   -0.3801    0.0000 C   0  0  0  0  0  0  0  0  0  0  0  0
   -1.9588    1.8738    0.0000 C   0  0  0  0  0  0  0  0  0  0  0  0
   -0.6520   -1.8671    0.0000 C   0  0  0  0  0  0  0  0  0  0  0  0
    1.9416   -1.8749    0.0000 C   0  0  0  0  0  0  0  0  0  0  0  0
    0.6430    0.3759    0.0000 C   0  0  0  0  0  0  0  0  0  0  0  0
   -1.9568    0.3729    0.0000 C   0  0  0  0  0  0  0  0  0  0  0  0
   -0.6565   -0.3749    0.0000 C   0  0  0  0  0  0  0  0  0  0  0  0
    1.9420   -0.3741    0.0000 C   0  0  0  0  0  0  0  0  0  0  0  0
    3.2412    0.3757    0.0000 C   0  0  0  0  0  0  0  0  0  0  0  0
    3.2414    1.8757    0.0000 O   0  0  0  0  0  0  0  0  0  0  0  0
    4.5401   -0.3745    0.0000 O   0  0  0  0  0  0  0  0  0  0  0  0
  2  1  1  0
  4  3  2  0
  5  3  1  0
  7  4  1  0
  8  5  2  0
  9  6  2  0
 10  6  1  0
 12  7  2  0
 12  8  1  0
 13  9  1  0
 13 11  2  0
 13 12  1  0
 14 10  2  0
 14 11  1  0
 15 14  1  0
 16 15  2  0
 17  2  1  0
 17 15  1  0
M  END
>  <NAME>  (1597) 
ETHYL 3-PHENYLBENZOATE

>  <SYNONYMS>  (1597) 


>  <SPECTRUM TYPE>  (1597) 
MS1

>  <INSTRUMENT TYPE>  (1597) 
EI-B

>  <INSTRUMENT>  (1597) 
JEOL JMS-DX-300

>  <ION MODE>  (1597) 
P

>  <INCHIKEY>  (1597) 
UWJOIAKPUPVYPW-UHFFFAOYSA-N

>  <FORMULA>  (1597) 
C15H14O2

>  <EXACT MASS>  (1597) 
226.099379688

>  <MW>  (1597) 
226

>  <ID>  (1597) 
JP009634

>  <CONTRIBUTOR>  (1597) 
University of Tokyo Team, {Faculty of Engineering, University of Tokyo

>  <COMMENT>  (1597) 
SMILES=CCOC(=O)c(c2)cc(cc2)c(c1)cccc1
InChI=InChI=1S/C15H14O2/c1-2-17-15(16)14-10-6-9-13(11-14)12-7-4-3-5-8-12/h3-11H,2H2,1H3
computed SMILES=O=C(OCC)C1=CC=CC(=C1)C=2C=CC=CC2
accession=JP009634
date=2016.01.19 (Created 2008.10.21, modified 2011.05.06)
author=THE INSTITUTE OF SCIENTIFIC AND INDUSTRIALRESEARCH
license=CC BY-NC-SA
exact mass=226.09938
ionization energy=70 eV
ion type=[M]+*
computed spectral entropy=2.8343343914371415
computed normalized entropy=0.7138856419505266
SPLASH=splash10-0fc0-2930000000-2d722dd9a33242c9d8ac
submitter=submitter = University of Tokyo Team (Faculty of Engineering, University of Tokyo)
MoNA Rating=3.75

>  <NUM PEAKS>  (1597) 
53

>  <MASS SPECTRAL PEAKS>  (1597) 
26 1
27 6
29 8.1
39 0.21
40 1.3
43 1.4
44 2.7
45 0.45
50 5.8
51 13
52 1.2
63 0.36
65 1
74 3
75 7
76 1.78
77 28.1
78 3
91 9.4
101 0.11
102 1.8
104 1.1
105 60.5
106 0.66
111 5.7
113 2
115 1.3
122 1.82
123 1.8
126 3.1
127 4.5
139 1.65
140 2.1
141 5.6
149 2.8
150 2.16
151 13.5
152 46.2
153 40.4
154 0.88
156 7
158 2.4
181 92.5
182 1.78
183 1.9
184 5.7
186 1.9
198 2.49
199 3.7
211 3.8
226 99.99
227 1.7
228 1.9

>  <PREDICTED SPECTRUM>  (1597) 
14 3
15 14
26 49
27 165
28 17
29 214
31 26
37 3
38 40
39 147
40 20
41 69
43 99
44 74
45 148
49 62
50 171
51 242
52 89
53 9
55 24
61 7
62 119
63 213
64 18
65 92
69 74
70 30
74 158
75 180
76 249
77 279
78 92
82 112
83 83
84 68
86 37
87 66
88 108
89 58
97 29
98 71
99 38
101 18
102 58
103 12
105 418
106 99
113 16
115 180
125 33
126 222
127 193
149 55
150 181
151 485
152 739
153 531
154 172
179 61
181 999
182 285
183 45
198 158
199 87
200 8
211 116
226 632
227 229
228 68

$$$$

     RDKit          2D

 12 12  0  0  0  0  0  0  0  0999 V2000
    6.4961    0.3959    0.0000 C   0  0  0  0  0  0  0  0  0  0  0  0
    5.1948    1.1419    0.0000 C   0  0  0  0  0  0  0  0  0  0  0  0
   -0.0000   -1.8800    0.0000 C   0  0  0  0  0  0  0  0  0  0  0  0
    1.3000   -1.1200    0.0000 C   0  0  0  0  0  0  0  0  0  0  0  0
   -1.3000   -1.1200    0.0000 C   0  0  0  0  0  0  0  0  0  0  0  0
   -0.0000    1.1200    0.0000 C   0  0  0  0  0  0  0  0  0  0  0  0
    1.3000    0.3800    0.0000 C   0  0  0  0  0  0  0  0  0  0  0  0
   -1.3000    0.3800    0.0000 C   0  0  0  0  0  0  0  0  0  0  0  0
    2.5967    1.1340    0.0000 C   0  0  0  0  0  0  0  0  0  0  0  0
   -2.5967    1.1340    0.0000 Cl  0  0  0  0  0  0  0  0  0  0  0  0
    2.5922    2.6340    0.0000 O   0  0  0  0  0  0  0  0  0  0  0  0
    3.8981    0.3879    0.0000 O   0  0  0  0  0  0  0  0  0  0  0  0
  2  1  1  0
  4  3  2  0
  5  3  1  0
  7  4  1  0
  7  6  2  0
  8  5  2  0
  8  6  1  0
  9  7  1  0
 10  8  1  0
 11  9  2  0
 12  2  1  0
 12  9  1  0
M  END
>  <NAME>  (1598) 
ETHYL 3-CHLOROBENZOATE

>  <SYNONYMS>  (1598) 


>  <SPECTRUM TYPE>  (1598) 
MS1

>  <INSTRUMENT TYPE>  (1598) 
EI-B

>  <INSTRUMENT>  (1598) 
JEOL JMS-DX-300

>  <ION MODE>  (1598) 
P

>  <INCHIKEY>  (1598) 
LVFRSNCBCHABAM-UHFFFAOYSA-N

>  <FORMULA>  (1598) 
C9H9ClO2

>  <EXACT MASS>  (1598) 
184.029107208

>  <MW>  (1598) 
184

>  <ID>  (1598) 
JP009633

>  <CONTRIBUTOR>  (1598) 
University of Tokyo Team, {Faculty of Engineering, University of Tokyo

>  <COMMENT>  (1598) 
SMILES=CCOC(=O)c(c1)cc(Cl)cc1
InChI=InChI=1S/C9H9ClO2/c1-2-12-9(11)7-4-3-5-8(10)6-7/h3-6H,2H2,1H3
computed SMILES=O=C(OCC)C=1C=CC=C(Cl)C1
accession=JP009633
date=2016.01.19 (Created 2008.10.21, modified 2011.05.06)
author=THE INSTITUTE OF SCIENTIFIC AND INDUSTRIALRESEARCH
license=CC BY-NC-SA
exact mass=184.02911
ionization energy=70 eV
ion type=[M]+*
computed spectral entropy=2.752328459753136
computed normalized entropy=0.7363755336452721
SPLASH=splash10-052r-3900000000-de5d368c602964d1c6d4
submitter=submitter = University of Tokyo Team (Faculty of Engineering, University of Tokyo)
MoNA Rating=3.75

>  <NUM PEAKS>  (1598) 
42

>  <MASS SPECTRAL PEAKS>  (1598) 
26 1.9
27 9.8
29 12.3
38 0.18
39 1.5
43 1.8
45 8
50 1.5
51 6.9
61 1.3
63 1
65 0.2
73 1.8
74 8.3
75 34
76 1.03
77 3.8
84 1.1
85 3.7
87 0.12
104 1.7
105 1.2
110 1.4
111 4.27
112 4.7
113 14
114 1.2
139 99.99
140 12.7
141 33.8
142 4
149 0.32
156 45
157 3.8
158 15
159 0.12
166 3.3
169 3
183 1.2
184 3
185 3.4
186 10

>  <PREDICTED SPECTRUM>  (1598) 
15 18
25 5
26 86
27 197
28 48
29 274
30 103
31 49
35 4
36 79
37 71
38 124
39 149
40 5
41 10
43 23
44 53
45 147
47 37
48 6
49 91
50 340
51 262
52 64
53 118
56 44
57 29
59 23
60 73
61 96
62 71
63 54
64 2
65 94
73 138
74 320
75 561
76 310
77 164
78 20
82 0
83 50
84 191
85 190
86 75
103 37
104 37
105 91
110 70
111 516
112 169
113 262
114 34
121 32
129 1
139 999
140 285
141 642
142 170
143 4
149 159
150 49
156 448
157 235
158 200
159 101
169 19
183 57
184 327
185 126
186 250
187 84

$$$$

     RDKit          2D

 12 12  0  0  0  0  0  0  0  0999 V2000
   -6.4962    0.7508    0.0000 C   0  0  0  0  0  0  0  0  0  0  0  0
   -5.1970    1.5006    0.0000 C   0  0  0  0  0  0  0  0  0  0  0  0
   -1.3000   -0.7500    0.0000 C   0  0  0  0  0  0  0  0  0  0  0  0
    0.0000    1.5000    0.0000 C   0  0  0  0  0  0  0  0  0  0  0  0
    0.0000   -1.5000    0.0000 C   0  0  0  0  0  0  0  0  0  0  0  0
    1.3000    0.7500    0.0000 C   0  0  0  0  0  0  0  0  0  0  0  0
   -1.3000    0.7500    0.0000 C   0  0  0  0  0  0  0  0  0  0  0  0
    1.3000   -0.7500    0.0000 C   0  0  0  0  0  0  0  0  0  0  0  0
   -2.5989    1.5002    0.0000 C   0  0  0  0  0  0  0  0  0  0  0  0
    2.5989   -1.5002    0.0000 N   0  0  0  0  0  0  0  0  0  0  0  0
   -2.5987    3.0002    0.0000 O   0  0  0  0  0  0  0  0  0  0  0  0
   -3.8981    0.7504    0.0000 O   0  0  0  0  0  0  0  0  0  0  0  0
  2  1  1  0
  5  3  2  0
  6  4  1  0
  7  3  1  0
  7  4  2  0
  8  5  1  0
  8  6  2  0
  9  7  1  0
 10  8  1  0
 11  9  2  0
 12  2  1  0
 12  9  1  0
M  END
>  <NAME>  (1599) 
ETHYL 4-AMINOBENZOATE

>  <SYNONYMS>  (1599) 


>  <SPECTRUM TYPE>  (1599) 
MS1

>  <INSTRUMENT TYPE>  (1599) 
EI-B

>  <INSTRUMENT>  (1599) 
JEOL JMS-DX-300

>  <ION MODE>  (1599) 
P

>  <INCHIKEY>  (1599) 
BLFLLBZGZJTVJG-UHFFFAOYSA-N

>  <FORMULA>  (1599) 
C9H11NO2

>  <EXACT MASS>  (1599) 
165.078978592

>  <MW>  (1599) 
165

>  <ID>  (1599) 
JP009631

>  <CONTRIBUTOR>  (1599) 
University of Tokyo Team, {Faculty of Engineering, University of Tokyo

>  <COMMENT>  (1599) 
SMILES=CCOC(=O)c(c1)ccc(N)c1
InChI=InChI=1S/C9H11NO2/c1-2-12-9(11)7-3-5-8(10)6-4-7/h3-6H,2,10H2,1H3
computed SMILES=O=C(OCC)C1=CC=C(N)C=C1
accession=JP009631
date=2016.01.19 (Created 2008.10.21, modified 2011.05.06)
author=THE INSTITUTE OF SCIENTIFIC AND INDUSTRIALRESEARCH
license=CC BY-NC-SA
exact mass=165.07898
ionization energy=70 eV
ion type=[M]+*
computed spectral entropy=1.9862097757620343
computed normalized entropy=0.6170507605223824
SPLASH=splash10-00di-5900000000-dcd2847110af7c87bf18
submitter=submitter = University of Tokyo Team (Faculty of Engineering, University of Tokyo)
MoNA Rating=3.75

>  <NUM PEAKS>  (1599) 
25

>  <MASS SPECTRAL PEAKS>  (1599) 
26 1.3
27 4.8
29 4.4
39 0.62
40 1.2
41 1.9
44 1.7
52 0.16
63 2.8
64 3
65 22.8
66 0.36
91 3.7
92 24.2
93 5.9
108 0.21
119 1.1
120 99.99
121 11.5
137 1.61
138 1.2
150 1.3
164 1.2
165 4.7
166 4.8

>  <PREDICTED SPECTRUM>  (1599) 
14 10
15 30
16 4
17 2
18 5
26 40
27 124
28 58
29 173
36 14
37 72
38 115
39 261
40 82
41 161
42 30
43 4
45 95
46 11
49 7
50 76
51 146
52 141
53 128
54 49
60 0
61 71
62 126
63 254
64 215
65 459
66 143
67 4
73 44
74 76
75 63
76 46
77 124
78 84
79 21
80 57
89 13
90 202
91 267
92 565
93 198
94 22
119 75
120 999
121 269
122 57
136 132
137 323
138 110
165 557
166 204
167 55

$$$$

     RDKit          2D

 14 14  0  0  0  0  0  0  0  0999 V2000
   -6.4962    0.7508    0.0000 C   0  0  0  0  0  0  0  0  0  0  0  0
   -5.1970    1.5006    0.0000 C   0  0  0  0  0  0  0  0  0  0  0  0
   -1.3000   -0.7500    0.0000 C   0  0  0  0  0  0  0  0  0  0  0  0
    0.0000    1.5000    0.0000 C   0  0  0  0  0  0  0  0  0  0  0  0
    0.0000   -1.5000    0.0000 C   0  0  0  0  0  0  0  0  0  0  0  0
    1.3000    0.7500    0.0000 C   0  0  0  0  0  0  0  0  0  0  0  0
   -1.3000    0.7500    0.0000 C   0  0  0  0  0  0  0  0  0  0  0  0
    1.3000   -0.7500    0.0000 C   0  0  0  0  0  0  0  0  0  0  0  0
   -2.5989    1.5002    0.0000 C   0  0  0  0  0  0  0  0  0  0  0  0
    2.5989   -1.5002    0.0000 N   0  0  0  0  0  0  0  0  0  0  0  0
   -2.5987    3.0002    0.0000 O   0  0  0  0  0  0  0  0  0  0  0  0
    3.8981   -0.7504    0.0000 O   0  0  0  0  0  0  0  0  0  0  0  0
    2.5987   -3.0002    0.0000 O   0  0  0  0  0  0  0  0  0  0  0  0
   -3.8981    0.7504    0.0000 O   0  0  0  0  0  0  0  0  0  0  0  0
  2  1  1  0
  5  3  2  0
  6  4  1  0
  7  3  1  0
  7  4  2  0
  8  5  1  0
  8  6  2  0
  9  7  1  0
 10  8  1  0
 11  9  2  0
 12 10  1  0
 13 10  2  0
 14  2  1  0
 14  9  1  0
M  CHG  2  10   1  12  -1
M  END
>  <NAME>  (1600) 
ETHYL 4-NITROBENZOATE

>  <SYNONYMS>  (1600) 


>  <SPECTRUM TYPE>  (1600) 
MS1

>  <INSTRUMENT TYPE>  (1600) 
EI-B

>  <INSTRUMENT>  (1600) 
JEOL JMS-DX-300

>  <ION MODE>  (1600) 
P

>  <INCHIKEY>  (1600) 
PHWSCBWNPZDYRI-UHFFFAOYSA-N

>  <FORMULA>  (1600) 
C9H9NO4

>  <EXACT MASS>  (1600) 
195.053157768

>  <MW>  (1600) 
195

>  <ID>  (1600) 
JP009630

>  <CONTRIBUTOR>  (1600) 
University of Tokyo Team, {Faculty of Engineering, University of Tokyo

>  <COMMENT>  (1600) 
SMILES=CCOC(=O)c(c1)ccc(c1)[N+1]([O-1])=O
InChI=InChI=1S/C9H9NO4/c1-2-14-9(11)7-3-5-8(6-4-7)10(12)13/h3-6H,2H2,1H3
computed SMILES=O=C(OCC)C1=CC=C(C=C1)N(=O)=O
accession=JP009630
date=2016.01.19 (Created 2008.10.21, modified 2011.05.06)
author=THE INSTITUTE OF SCIENTIFIC AND INDUSTRIALRESEARCH
license=CC BY-NC-SA
exact mass=195.05316
ionization energy=70 eV
ion type=[M]+*
computed spectral entropy=3.1337469509652913
computed normalized entropy=0.8010553482474531
SPLASH=splash10-0ufr-9800000000-3d91bb8dc564f24d5fd6
submitter=submitter = University of Tokyo Team (Faculty of Engineering, University of Tokyo)
MoNA Rating=3.75

>  <NUM PEAKS>  (1600) 
50

>  <MASS SPECTRAL PEAKS>  (1600) 
26 4.3
27 24.2
29 34.5
30 1.95
38 3
39 7.2
43 3.9
44 0.12
45 26
46 3.5
50 35.3
51 0.89
52 1
53 3.4
62 1.8
63 0.67
64 7.1
65 26.7
66 1.9
74 1.27
75 27
76 48.4
77 7.6
81 0.36
91 1
92 22.5
93 4
103 1.24
104 42
105 4.2
109 7
120 1.2
121 15.8
122 2.8
134 7.6
135 1.18
136 1
137 6
148 2.7
149 0.38
150 99.99
151 17.4
152 1.8
167 3.71
168 4.8
178 22.9
179 4.3
194 0.12
195 30.5
196 4.5

>  <PREDICTED SPECTRUM>  (1600) 
14 22
15 22
18 27
19 1
25 5
26 98
27 234
28 135
29 323
30 141
31 48
36 33
37 83
38 145
39 161
40 21
41 26
43 10
44 67
45 262
46 82
49 67
50 379
51 251
52 110
53 114
54 4
55 23
62 89
63 202
64 165
65 247
66 102
67 7
69 36
73 61
74 231
75 373
76 497
77 273
78 73
79 47
81 48
82 64
83 24
90 26
91 65
92 343
93 113
94 8
95 16
101 45
103 311
104 497
105 206
106 70
107 7
109 65
120 198
121 179
122 211
123 165
134 243
135 80
137 88
149 80
150 999
151 439
152 251
165 94
167 759
168 342
169 118
178 37
179 94
180 143
181 89
195 356
196 131

$$$$

     RDKit          2D

 15 15  0  0  0  0  0  0  0  0999 V2000
   -6.4962   -0.7508    0.0000 C   0  0  0  0  0  0  0  0  0  0  0  0
    0.0000    3.0000    0.0000 C   0  0  0  0  0  0  0  0  0  0  0  0
    2.5989   -1.5002    0.0000 C   0  0  0  0  0  0  0  0  0  0  0  0
   -5.1970   -1.5006    0.0000 C   0  0  0  0  0  0  0  0  0  0  0  0
   -1.3000    0.7500    0.0000 C   0  0  0  0  0  0  0  0  0  0  0  0
   -0.0000   -1.5000    0.0000 C   0  0  0  0  0  0  0  0  0  0  0  0
    2.5989    1.5002    0.0000 C   0  0  0  0  0  0  0  0  0  0  0  0
    0.0000    1.5000    0.0000 C   0  0  0  0  0  0  0  0  0  0  0  0
    1.3000   -0.7500    0.0000 C   0  0  0  0  0  0  0  0  0  0  0  0
   -1.3000   -0.7500    0.0000 C   0  0  0  0  0  0  0  0  0  0  0  0
    1.3000    0.7500    0.0000 C   0  0  0  0  0  0  0  0  0  0  0  0
   -2.5989   -1.5002    0.0000 C   0  0  0  0  0  0  0  0  0  0  0  0
    3.8978    2.2504    0.0000 N   0  0  0  0  0  0  0  0  0  0  0  0
   -2.5987   -3.0002    0.0000 O   0  0  0  0  0  0  0  0  0  0  0  0
   -3.8981   -0.7504    0.0000 O   0  0  0  0  0  0  0  0  0  0  0  0
  4  1  1  0
  8  2  1  0
  8  5  2  0
  9  3  1  0
  9  6  1  0
 10  5  1  0
 10  6  2  0
 11  7  1  0
 11  8  1  0
 11  9  2  0
 12 10  1  0
 13  7  3  0
 14 12  2  0
 15  4  1  0
 15 12  1  0
M  END
>  <NAME>  (1601) 
ETHYL 4-CYANO-3,5-DIMETHYLBENZOATE

>  <SYNONYMS>  (1601) 


>  <SPECTRUM TYPE>  (1601) 
MS1

>  <INSTRUMENT TYPE>  (1601) 
EI-B

>  <INSTRUMENT>  (1601) 
JEOL JMS-DX-300

>  <ION MODE>  (1601) 
P

>  <INCHIKEY>  (1601) 
PBIVJCCDRQYWSV-UHFFFAOYSA-N

>  <FORMULA>  (1601) 
C12H13NO2

>  <EXACT MASS>  (1601) 
203.094628656

>  <MW>  (1601) 
203

>  <ID>  (1601) 
JP009629

>  <CONTRIBUTOR>  (1601) 
University of Tokyo Team, {Faculty of Engineering, University of Tokyo

>  <COMMENT>  (1601) 
SMILES=CCOC(=O)c(c1)cc(C)c(C#N)c(C)1
InChI=InChI=1S/C12H13NO2/c1-4-15-12(14)10-5-8(2)11(7-13)9(3)6-10/h5-6H,4H2,1-3H3
computed SMILES=N#CC=1C(=CC(=CC1C)C(=O)OCC)C
accession=JP009629
date=2016.01.19 (Created 2008.10.21, modified 2011.05.06)
author=THE INSTITUTE OF SCIENTIFIC AND INDUSTRIALRESEARCH
license=CC BY-NC-SA
exact mass=203.09463
ionization energy=70 eV
ion type=[M]+*
computed spectral entropy=2.5008063503213336
computed normalized entropy=0.6690817021622956
SPLASH=splash10-0pdi-1910000000-f55dac394cbd277e289d
submitter=submitter = University of Tokyo Team (Faculty of Engineering, University of Tokyo)
MoNA Rating=3.75

>  <NUM PEAKS>  (1601) 
42

>  <MASS SPECTRAL PEAKS>  (1601) 
26 1
27 6.2
29 7
39 0.3
40 1.7
43 1
44 5.4
45 0.48
51 2.7
52 1.2
53 1.2
63 0.22
64 1.2
65 1.3
76 1.7
77 1.37
78 2.4
89 1.3
91 1.2
101 0.18
102 5.3
103 16.7
104 6.6
116 0.37
128 4.2
129 3.3
130 25.2
131 0.85
144 2
157 1.6
158 99.99
159 1.61
160 2
174 1
175 54.5
176 0.62
185 1.7
188 13
189 1.5
202 0.12
203 42
204 6

>  <PREDICTED SPECTRUM>  (1601) 
14 0
26 47
27 189
28 59
29 205
38 48
39 174
40 37
41 32
43 27
44 39
45 164
49 7
50 96
51 205
52 126
53 118
62 55
63 130
64 77
65 65
66 17
67 24
74 45
75 69
76 101
77 239
78 93
79 67
82 46
86 23
90 27
101 57
102 204
103 200
104 131
115 66
116 23
117 86
128 60
129 173
130 538
131 232
132 36
147 50
157 80
158 999
159 279
160 78
174 103
175 667
176 181
188 141
189 23
203 625
204 198
205 10

$$$$

     RDKit          2D

 21 22  0  0  0  0  0  0  0  0999 V2000
   -6.4962   -0.7508    0.0000 C   0  0  0  0  0  0  0  0  0  0  0  0
    0.0000    3.0000    0.0000 C   0  0  0  0  0  0  0  0  0  0  0  0
    2.5989   -1.5002    0.0000 C   0  0  0  0  0  0  0  0  0  0  0  0
   -5.1970   -1.5006    0.0000 C   0  0  0  0  0  0  0  0  0  0  0  0
    6.4964   -0.7492    0.0000 C   0  0  0  0  0  0  0  0  0  0  0  0
    6.4966    0.7517    0.0000 C   0  0  0  0  0  0  0  0  0  0  0  0
    5.1970   -1.5002    0.0000 C   0  0  0  0  0  0  0  0  0  0  0  0
    5.1975    1.5015    0.0000 C   0  0  0  0  0  0  0  0  0  0  0  0
    3.8978   -0.7504    0.0000 C   0  0  0  0  0  0  0  0  0  0  0  0
   -1.3000    0.7500    0.0000 C   0  0  0  0  0  0  0  0  0  0  0  0
   -0.0000   -1.5000    0.0000 C   0  0  0  0  0  0  0  0  0  0  0  0
    0.0000    1.5000    0.0000 C   0  0  0  0  0  0  0  0  0  0  0  0
    1.3000   -0.7500    0.0000 C   0  0  0  0  0  0  0  0  0  0  0  0
    3.8981    0.7504    0.0000 C   0  0  0  0  0  0  0  0  0  0  0  0
   -1.3000   -0.7500    0.0000 C   0  0  0  0  0  0  0  0  0  0  0  0
    1.3000    0.7500    0.0000 C   0  0  0  0  0  0  0  0  0  0  0  0
    2.5989    1.5002    0.0000 C   0  0  0  0  0  0  0  0  0  0  0  0
   -2.5989   -1.5002    0.0000 C   0  0  0  0  0  0  0  0  0  0  0  0
    2.5987    3.0002    0.0000 O   0  0  0  0  0  0  0  0  0  0  0  0
   -2.5987   -3.0002    0.0000 O   0  0  0  0  0  0  0  0  0  0  0  0
   -3.8981   -0.7504    0.0000 O   0  0  0  0  0  0  0  0  0  0  0  0
  4  1  1  0
  6  5  2  0
  7  5  1  0
  8  6  1  0
  9  7  2  0
 12  2  1  0
 12 10  2  0
 13  3  1  0
 13 11  1  0
 14  8  2  0
 14  9  1  0
 15 10  1  0
 15 11  2  0
 16 12  1  0
 16 13  2  0
 17 14  1  0
 17 16  1  0
 18 15  1  0
 19 17  2  0
 20 18  2  0
 21  4  1  0
 21 18  1  0
M  END
>  <NAME>  (1602) 
ETHYL 4-BENZOYL-3,5-DIMETHYLBENZOATE

>  <SYNONYMS>  (1602) 


>  <SPECTRUM TYPE>  (1602) 
MS1

>  <INSTRUMENT TYPE>  (1602) 
EI-B

>  <INSTRUMENT>  (1602) 
JEOL JMS-DX-300

>  <ION MODE>  (1602) 
P

>  <INCHIKEY>  (1602) 
HIUGILYOVQDTAN-UHFFFAOYSA-N

>  <FORMULA>  (1602) 
C18H18O3

>  <EXACT MASS>  (1602) 
282.125594436

>  <MW>  (1602) 
282

>  <ID>  (1602) 
JP009628

>  <CONTRIBUTOR>  (1602) 
University of Tokyo Team, {Faculty of Engineering, University of Tokyo

>  <COMMENT>  (1602) 
SMILES=CCOC(=O)c(c2)cc(C)c(c(C)2)C(=O)c(c1)cccc1
InChI=InChI=1S/C18H18O3/c1-4-21-18(20)15-10-12(2)16(13(3)11-15)17(19)14-8-6-5-7-9-14/h5-11H,4H2,1-3H3
computed SMILES=O=C(OCC)C=1C=C(C(C(=O)C=2C=CC=CC2)=C(C1)C)C
accession=JP009628
date=2016.01.19 (Created 2008.10.21, modified 2011.05.06)
author=THE INSTITUTE OF SCIENTIFIC AND INDUSTRIALRESEARCH
license=CC BY-NC-SA
exact mass=282.12559
ionization energy=70 eV
ion type=[M]+*
computed spectral entropy=3.3159221978474562
computed normalized entropy=0.7753521330793903
SPLASH=splash10-001i-2290000000-e0ff2ccff89c884e5887
submitter=submitter = University of Tokyo Team (Faculty of Engineering, University of Tokyo)
MoNA Rating=3.75

>  <NUM PEAKS>  (1602) 
72

>  <MASS SPECTRAL PEAKS>  (1602) 
26 1
27 5.6
29 13
39 0.18
40 1.1
41 1.3
43 5.7
44 0.31
45 2.7
51 5.3
53 1.4
63 0.11
65 1.7
76 1.7
77 40.8
78 0.85
79 2.6
89 1.2
91 4.1
93 0.18
102 1.4
103 10.5
104 7.9
105 4.74
106 3.8
115 1.1
121 3.6
131 0.31
132 6.8
133 4.7
149 9.5
150 0.2
152 1.4
165 8.4
166 4.3
176 0.3
177 16.9
178 6.6
179 3
181 0.17
191 2.8
192 4.8
193 4
194 0.75
195 1.8
204 4.4
205 23.8
206 0.36
207 3.2
208 16.7
209 18.4
210 0.36
221 2.4
222 6
223 1.1
235 1.29
236 8.4
237 20.7
238 4.7
239 0.17
250 1.2
252 1.7
253 4.4
254 0.18
264 10
265 4.2
267 6.4
268 0.15
281 67.2
282 99.99
283 20.2
284 2.6

>  <PREDICTED SPECTRUM>  (1602) 
27 49
28 19
29 117
39 151
40 14
41 22
43 50
44 8
45 28
50 68
51 306
52 109
53 93
57 5
63 96
64 54
65 144
66 45
67 0
74 55
75 94
76 97
77 653
78 274
79 200
80 2
89 116
90 89
91 229
92 56
102 132
103 246
104 192
105 570
106 154
107 91
115 128
116 124
117 77
120 0
121 86
122 36
123 0
128 94
129 26
131 73
132 155
133 118
134 65
135 68
139 18
140 5
141 31
148 33
149 313
150 117
151 16
152 88
153 38
159 20
161 53
162 10
164 24
165 208
166 134
167 75
168 0
176 65
177 345
178 180
179 139
180 139
181 143
182 31
191 145
192 138
193 185
194 105
195 62
204 78
205 557
206 193
207 177
208 271
209 508
210 111
219 82
220 4
221 79
222 33
223 73
225 0
235 232
236 273
237 559
238 177
239 79
253 358
254 120
263 80
264 159
265 110
266 16
267 233
268 58
280 34
281 853
282 999
283 424
284 138

$$$$

     RDKit          2D

 14 14  0  0  0  0  0  0  0  0999 V2000
    2.5989    0.7506    0.0000 C   0  0  0  0  0  0  0  0  0  0  0  0
   -3.8972   -3.0002    0.0000 C   0  0  0  0  0  0  0  0  0  0  0  0
   -6.4962    1.5000    0.0000 C   0  0  0  0  0  0  0  0  0  0  0  0
   -6.4962   -1.5004    0.0000 C   0  0  0  0  0  0  0  0  0  0  0  0
    1.2998    1.5004    0.0000 C   0  0  0  0  0  0  0  0  0  0  0  0
   -2.5972   -0.7502    0.0000 C   0  0  0  0  0  0  0  0  0  0  0  0
   -3.8972    1.4998    0.0000 C   0  0  0  0  0  0  0  0  0  0  0  0
   -3.8972   -1.5002    0.0000 C   0  0  0  0  0  0  0  0  0  0  0  0
   -5.1972    0.7498    0.0000 C   0  0  0  0  0  0  0  0  0  0  0  0
   -5.1972   -0.7502    0.0000 C   0  0  0  0  0  0  0  0  0  0  0  0
   -2.5972    0.7498    0.0000 C   0  0  0  0  0  0  0  0  0  0  0  0
   -1.2983    1.5000    0.0000 C   0  0  0  0  0  0  0  0  0  0  0  0
   -1.2986    3.0000    0.0000 O   0  0  0  0  0  0  0  0  0  0  0  0
    0.0008    0.7502    0.0000 O   0  0  0  0  0  0  0  0  0  0  0  0
  5  1  1  0
  8  2  1  0
  8  6  2  0
  9  3  1  0
  9  7  1  0
 10  4  1  0
 10  8  1  0
 10  9  2  0
 11  6  1  0
 11  7  2  0
 12 11  1  0
 13 12  2  0
 14  5  1  0
 14 12  1  0
M  END
>  <NAME>  (1603) 
ETHYL 3,4,5-TRIMETHYLBENZOATE

>  <SYNONYMS>  (1603) 


>  <SPECTRUM TYPE>  (1603) 
MS1

>  <INSTRUMENT TYPE>  (1603) 
EI-B

>  <INSTRUMENT>  (1603) 
JEOL JMS-DX-300

>  <ION MODE>  (1603) 
P

>  <INCHIKEY>  (1603) 
KPJDFDDXGVPHRI-UHFFFAOYSA-N

>  <FORMULA>  (1603) 
C12H16O2

>  <EXACT MASS>  (1603) 
192.115029752

>  <MW>  (1603) 
192

>  <ID>  (1603) 
JP009627

>  <CONTRIBUTOR>  (1603) 
University of Tokyo Team, {Faculty of Engineering, University of Tokyo

>  <COMMENT>  (1603) 
SMILES=CCOC(=O)c(c1)cc(C)c(C)c(C)1
InChI=InChI=1S/C12H16O2/c1-5-14-12(13)11-6-8(2)10(4)9(3)7-11/h6-7H,5H2,1-4H3
computed SMILES=O=C(OCC)C=1C=C(C(=C(C1)C)C)C
accession=JP009627
date=2016.01.19 (Created 2008.10.21, modified 2011.05.06)
author=THE INSTITUTE OF SCIENTIFIC AND INDUSTRIALRESEARCH
license=CC BY-NC-SA
exact mass=192.11503
ionization energy=70 eV
ion type=[M]+*
computed spectral entropy=2.586663455406686
computed normalized entropy=0.7012057421724557
SPLASH=splash10-0005-2900000000-73cda044bbdcdffc2a0d
submitter=submitter = University of Tokyo Team (Faculty of Engineering, University of Tokyo)
MoNA Rating=3.75

>  <NUM PEAKS>  (1603) 
40

>  <MASS SPECTRAL PEAKS>  (1603) 
26 1
27 6.8
29 10.7
30 0.13
39 4
41 6.9
43 2.5
44 0.11
51 2.4
53 2.5
63 1.5
65 0.37
77 8.8
78 3.8
79 3.7
91 1.68
92 1.7
93 2
102 1.1
103 0.65
104 4.6
105 5.3
115 4.7
116 0.12
117 6.3
118 2.9
119 25.4
120 0.4
133 2.8
146 1.5
147 99.99
148 1.48
149 2.3
163 1.4
164 23.1
165 0.26
177 7.2
191 1.7
192 51.6
193 7

>  <PREDICTED SPECTRUM>  (1603) 
15 17
18 3
26 29
27 143
28 53
29 171
38 9
39 201
40 45
41 188
42 23
43 51
44 47
45 9
50 65
51 208
52 120
53 150
62 12
63 102
64 58
65 170
66 59
67 49
74 29
75 25
76 11
77 288
78 147
79 212
80 26
82 7
89 62
90 29
91 194
92 45
93 23
102 97
103 251
104 135
105 101
106 0
115 123
116 41
117 134
118 76
119 503
120 112
121 11
131 87
132 21
133 118
146 75
147 999
148 232
149 59
163 164
164 411
165 64
177 160
178 31
192 656
193 210
194 13

$$$$

     RDKit          2D

 15 16  0  0  0  0  0  0  0  0999 V2000
   -5.8542    3.6957    0.0000 C   0  0  0  0  0  0  0  0  0  0  0  0
   -5.8547    2.1948    0.0000 C   0  0  0  0  0  0  0  0  0  0  0  0
   -4.5547    4.4465    0.0000 C   0  0  0  0  0  0  0  0  0  0  0  0
    0.6488    4.4517    0.0000 C   0  0  0  0  0  0  0  0  0  0  0  0
   -4.5557    1.4448    0.0000 C   0  0  0  0  0  0  0  0  0  0  0  0
   -3.2557    3.6965    0.0000 C   0  0  0  0  0  0  0  0  0  0  0  0
   -0.6535    3.6957    0.0000 C   0  0  0  0  0  0  0  0  0  0  0  0
    1.9465    3.6877    0.0000 C   0  0  0  0  0  0  0  0  0  0  0  0
    0.6397    1.4517    0.0000 C   0  0  0  0  0  0  0  0  0  0  0  0
   -3.2562    2.1957    0.0000 C   0  0  0  0  0  0  0  0  0  0  0  0
   -0.6581    2.1957    0.0000 C   0  0  0  0  0  0  0  0  0  0  0  0
    1.9419    2.1877    0.0000 C   0  0  0  0  0  0  0  0  0  0  0  0
   -1.9571    1.4457    0.0000 C   0  0  0  0  0  0  0  0  0  0  0  0
    3.2363    1.4298    0.0000 Cl  0  0  0  0  0  0  0  0  0  0  0  0
   -1.9571   -0.0543    0.0000 O   0  0  0  0  0  0  0  0  0  0  0  0
  2  1  2  0
  3  1  1  0
  5  2  1  0
  6  3  2  0
  7  4  2  0
  8  4  1  0
 10  5  2  0
 10  6  1  0
 11  7  1  0
 11  9  2  0
 12  8  2  0
 12  9  1  0
 13 10  1  0
 13 11  1  0
 14 12  1  0
 15 13  1  0
M  END
>  <NAME>  (1604) 
3-CHLOROBENZHYDROL

>  <SYNONYMS>  (1604) 
ALPHA-(3-CHLOROPHENYL)-ALPHA-PHENYLMETHANOL

>  <SPECTRUM TYPE>  (1604) 
MS1

>  <INSTRUMENT TYPE>  (1604) 
EI-B

>  <INSTRUMENT>  (1604) 
JEOL JMS-DX-300

>  <ION MODE>  (1604) 
P

>  <INCHIKEY>  (1604) 
DDCJHFYXAPQYLA-UHFFFAOYSA-N

>  <FORMULA>  (1604) 
C13H11ClO

>  <EXACT MASS>  (1604) 
218.049842652

>  <MW>  (1604) 
218

>  <ID>  (1604) 
JP009626

>  <CONTRIBUTOR>  (1604) 
University of Tokyo Team, {Faculty of Engineering, University of Tokyo

>  <COMMENT>  (1604) 
SMILES=Clc(c2)cc(cc2)C(O)c(c1)cccc1
InChI=InChI=1S/C13H11ClO/c14-12-8-4-7-11(9-12)13(15)10-5-2-1-3-6-10/h1-9,13,15H
computed SMILES=ClC1=CC=CC(=C1)C(O)C=2C=CC=CC2
accession=JP009626
date=2016.01.19 (Created 2008.10.21, modified 2011.05.06)
author=THE INSTITUTE OF SCIENTIFIC AND INDUSTRIALRESEARCH
license=CC BY-NC-SA
exact mass=218.04984
ionization energy=70 eV
ion type=[M]+*
computed spectral entropy=3.0314013579163364
computed normalized entropy=0.7434392447939536
SPLASH=splash10-056r-9810000000-621d48f96413ee2a9a35
submitter=submitter = University of Tokyo Team (Faculty of Engineering, University of Tokyo)
MoNA Rating=3.75

>  <NUM PEAKS>  (1604) 
59

>  <MASS SPECTRAL PEAKS>  (1604) 
27 3.8
29 4.6
38 1.3
39 0.62
44 1.3
50 12.5
51 29.2
52 0.54
53 2.2
62 2
63 5
65 0.1
73 1.1
74 5
75 15.5
76 0.77
77 75.6
78 29
79 28.9
80 0.19
82 1.8
83 1.6
85 1.6
86 0.11
87 2
89 2.6
104 1.2
105 99.99
106 12.1
107 9
111 13.4
112 0.73
113 9.8
114 3
115 3.7
126 0.11
127 1.4
139 27.4
140 3.3
141 1.5
142 1.3
143 2
151 1.6
152 0.5
153 4
154 1.6
155 1.3
163 0.23
164 2
165 11.5
166 3.8
181 0.14
183 6.9
184 4.4
201 1.6
217 0.39
218 15.8
219 3.3
220 5.4

>  <PREDICTED SPECTRUM>  (1604) 
27 28
28 38
33 4
35 2
36 36
37 27
38 83
39 161
40 66
44 37
47 50
49 51
50 262
51 485
52 227
53 117
61 52
62 119
63 249
64 100
65 120
70 28
71 7
73 58
74 166
75 318
76 171
77 780
78 367
79 459
80 95
82 11
84 53
85 89
86 90
87 90
88 102
89 225
90 92
91 37
92 77
93 157
94 154
95 36
97 13
98 3
99 70
100 32
101 16
105 999
106 463
107 343
108 21
110 3
111 371
112 210
113 392
114 203
115 186
116 20
123 19
126 36
128 29
137 11
138 64
139 603
140 226
141 515
142 155
143 201
151 135
152 246
153 84
154 19
164 34
165 353
166 345
167 30
181 5
183 236
184 124
186 6
199 3
200 149
201 118
202 164
203 81
204 41
217 232
218 611
219 275
220 355
221 126

$$$$

     RDKit          2D

 13 14  0  0  0  0  0  0  0  0999 V2000
    2.4790    3.4800    0.0000 C   0  0  0  0  0  0  0  0  0  0  0  0
   -2.7200   -1.0200    0.0000 C   0  0  0  0  0  0  0  0  0  0  0  0
   -2.7200    0.4800    0.0000 C   0  0  0  0  0  0  0  0  0  0  0  0
    2.4800   -1.0200    0.0000 C   0  0  0  0  0  0  0  0  0  0  0  0
   -1.4200   -1.7700    0.0000 C   0  0  0  0  0  0  0  0  0  0  0  0
    1.1800   -1.7700    0.0000 C   0  0  0  0  0  0  0  0  0  0  0  0
   -1.4200    1.2300    0.0000 C   0  0  0  0  0  0  0  0  0  0  0  0
    2.4800    0.4800    0.0000 C   0  0  0  0  0  0  0  0  0  0  0  0
    1.1800    2.7300    0.0000 C   0  0  0  0  0  0  0  0  0  0  0  0
   -0.1200   -1.0200    0.0000 C   0  0  0  0  0  0  0  0  0  0  0  0
    1.1800    1.2300    0.0000 C   0  0  0  0  0  0  0  0  0  0  0  0
   -0.1200    0.4800    0.0000 C   0  0  0  0  0  0  0  0  0  0  0  0
   -0.1190    3.4800    0.0000 O   0  0  0  0  0  0  0  0  0  0  0  0
  3  2  2  0
  5  2  1  0
  6  4  2  0
  7  3  1  0
  8  4  1  0
  9  1  1  0
 10  5  2  0
 10  6  1  0
 11  8  2  0
 11  9  1  0
 12  7  2  0
 12 10  1  0
 12 11  1  0
 13  9  1  0
M  END
>  <NAME>  (1605) 
1-(1-NAPHTHYL)ETHYL ALCOHOL

>  <SYNONYMS>  (1605) 


>  <SPECTRUM TYPE>  (1605) 
MS1

>  <INSTRUMENT TYPE>  (1605) 
EI-B

>  <INSTRUMENT>  (1605) 
JEOL JMS-DX-300

>  <ION MODE>  (1605) 
P

>  <INCHIKEY>  (1605) 
CDRQOYRPWJULJN-UHFFFAOYSA-N

>  <FORMULA>  (1605) 
C12H12O

>  <EXACT MASS>  (1605) 
172.088815004

>  <MW>  (1605) 
172

>  <ID>  (1605) 
JP009625

>  <CONTRIBUTOR>  (1605) 
University of Tokyo Team, {Faculty of Engineering, University of Tokyo

>  <COMMENT>  (1605) 
SMILES=CC(O)c(c1)c(c2)c(ccc2)cc1
InChI=InChI=1S/C12H12O/c1-9(13)11-8-4-6-10-5-2-3-7-12(10)11/h2-9,13H,1H3
computed SMILES=OC(C1=CC=CC=2C=CC=CC21)C
accession=JP009625
date=2016.01.19 (Created 2008.10.21, modified 2011.05.06)
author=THE INSTITUTE OF SCIENTIFIC AND INDUSTRIALRESEARCH
license=CC BY-NC-SA
exact mass=172.08882
ionization energy=70 eV
ion type=[M]+*
computed spectral entropy=2.71518082414233
computed normalized entropy=0.7091760608951728
SPLASH=splash10-004i-2900000000-406226a0fcd8346bdd0e
submitter=submitter = University of Tokyo Team (Faculty of Engineering, University of Tokyo)
MoNA Rating=3.75

>  <NUM PEAKS>  (1605) 
46

>  <MASS SPECTRAL PEAKS>  (1605) 
27 4.5
29 9.5
39 4.5
43 1.95
44 2.8
45 3.4
50 3.8
51 0.74
52 1.4
62 2.1
63 6.5
64 0.28
65 1
74 4.2
75 6.2
76 0.49
77 8.8
78 3.6
79 2.5
86 0.14
87 2.1
89 1.9
98 1.2
101 0.42
102 6
103 1.3
115 4.8
126 0.82
127 28.2
128 48.4
129 99.99
130 1.07
139 1.8
141 2
143 1.6
151 0.17
152 4.7
153 4.8
154 1.8
155 0.5
156 1.3
157 38.9
158 4.7
171 0.12
172 41.5
173 5.7

>  <PREDICTED SPECTRUM>  (1605) 
14 4
15 12
26 25
27 64
28 36
31 0
33 2
37 16
38 66
39 197
40 58
41 126
42 89
43 444
44 204
45 163
46 30
49 63
50 256
51 350
52 157
53 90
55 69
56 51
57 78
58 92
60 14
61 93
62 177
63 289
64 176
65 166
66 50
69 102
70 137
71 124
72 82
73 7
74 235
75 305
76 272
77 353
78 202
79 59
80 42
81 14
82 65
83 79
84 117
85 78
86 141
87 125
88 70
89 189
90 45
91 100
92 37
93 19
94 23
95 16
97 4
98 101
99 94
100 167
101 271
102 309
103 176
104 45
105 42
106 49
107 42
109 6
113 71
114 71
115 301
116 133
117 88
118 77
121 24
125 84
126 299
127 555
128 758
129 806
130 437
131 223
132 92
135 112
137 115
138 58
139 287
140 153
141 165
142 132
143 151
144 61
145 97
146 58
151 189
152 304
153 444
154 397
155 455
156 100
157 999
158 324
159 104
169 44
170 88
171 149
172 702
173 244
174 74

$$$$

     RDKit          2D

 10 10  0  0  0  0  0  0  0  0999 V2000
    2.5989   -0.7496    0.0000 C   0  0  0  0  0  0  0  0  0  0  0  0
    0.0008   -2.2500    0.0000 C   0  0  0  0  0  0  0  0  0  0  0  0
   -1.2992    0.0000    0.0000 C   0  0  0  0  0  0  0  0  0  0  0  0
   -1.2992   -3.0000    0.0000 C   0  0  0  0  0  0  0  0  0  0  0  0
   -2.5992   -0.7500    0.0000 C   0  0  0  0  0  0  0  0  0  0  0  0
    1.2998    0.0002    0.0000 C   0  0  0  0  0  0  0  0  0  0  0  0
    0.0008   -0.7500    0.0000 C   0  0  0  0  0  0  0  0  0  0  0  0
   -2.5992   -2.2500    0.0000 C   0  0  0  0  0  0  0  0  0  0  0  0
   -3.8981   -3.0002    0.0000 I   0  0  0  0  0  0  0  0  0  0  0  0
    1.2995    1.5002    0.0000 O   0  0  0  0  0  0  0  0  0  0  0  0
  4  2  2  0
  5  3  1  0
  6  1  1  0
  7  2  1  0
  7  3  2  0
  7  6  1  0
  8  4  1  0
  8  5  2  0
  9  8  1  0
 10  6  1  0
M  END
>  <NAME>  (1606) 
1-(4-IODOPHENYL)ETHYL ALCOHOL

>  <SYNONYMS>  (1606) 


>  <SPECTRUM TYPE>  (1606) 
MS1

>  <INSTRUMENT TYPE>  (1606) 
EI-B

>  <INSTRUMENT>  (1606) 
JEOL JMS-DX-300

>  <ION MODE>  (1606) 
P

>  <INCHIKEY>  (1606) 
KWUDBZIJCVKUHM-UHFFFAOYSA-N

>  <FORMULA>  (1606) 
C8H9IO

>  <EXACT MASS>  (1606) 
247.969812908

>  <MW>  (1606) 
248

>  <ID>  (1606) 
JP009624

>  <CONTRIBUTOR>  (1606) 
University of Tokyo Team, {Faculty of Engineering, University of Tokyo

>  <COMMENT>  (1606) 
SMILES=CC(O)c(c1)ccc(I)c1
InChI=InChI=1S/C8H9IO/c1-6(10)7-2-4-8(9)5-3-7/h2-6,10H,1H3
computed SMILES=IC1=CC=C(C=C1)C(O)C
accession=JP009624
date=2016.01.19 (Created 2008.10.21, modified 2011.05.06)
author=THE INSTITUTE OF SCIENTIFIC AND INDUSTRIALRESEARCH
license=CC BY-NC-SA
exact mass=247.96981
ionization energy=70 eV
ion type=[M]+*
computed spectral entropy=3.017018876939181
computed normalized entropy=0.7563376643578581
SPLASH=splash10-004l-9220000000-bf5e1e8ceeb00d235220
submitter=submitter = University of Tokyo Team (Faculty of Engineering, University of Tokyo)
MoNA Rating=3.75

>  <NUM PEAKS>  (1606) 
54

>  <MASS SPECTRAL PEAKS>  (1606) 
26 1.1
27 7.2
29 7.6
37 0.15
38 3.6
39 10.6
40 1.1
41 0.11
42 1
43 76.6
44 4.8
45 1.08
49 1.4
50 29.7
51 32.3
52 0.93
53 2.8
55 1.2
61 1.2
62 0.39
63 7.5
64 1.2
65 4.6
73 0.19
74 12.3
75 10.1
76 21
77 4.34
78 99.99
79 9.7
89 2.2
91 0.86
92 2
93 1
102 2
103 0.38
104 6.2
105 16
106 12.7
107 0.2
117 2.6
120 1.2
121 39.2
122 0.38
127 17.8
128 4.2
203 4.2
204 0.39
205 4.2
231 5.6
233 55.3
234 0.42
248 39.4
249 3.8

>  <PREDICTED SPECTRUM>  (1606) 
14 30
15 85
17 16
18 34
25 26
26 109
27 230
28 62
29 174
31 120
32 19
36 82
37 195
38 272
39 412
40 172
41 274
42 117
43 939
44 184
45 510
47 79
48 3
49 220
50 662
51 718
52 367
53 343
54 25
55 128
57 88
61 237
62 283
63 254
64 131
65 283
66 123
67 18
73 210
74 496
75 416
76 660
77 783
78 657
79 295
80 107
81 138
85 1
86 79
87 135
88 19
89 50
90 163
91 291
92 110
93 30
102 84
103 242
104 317
105 592
106 498
107 266
119 175
120 147
121 913
122 233
127 461
128 318
203 267
204 6
205 56
231 314
233 999
234 225
245 29
246 133
248 956
249 270
250 46

$$$$

     RDKit          2D

 16 17  0  0  0  0  0  0  0  0999 V2000
    2.6101    2.9936    0.0000 C   0  0  0  0  0  0  0  0  0  0  0  0
   -6.5291    0.7092    0.0000 C   0  0  0  0  0  0  0  0  0  0  0  0
   -5.2362    1.4696    0.0000 C   0  0  0  0  0  0  0  0  0  0  0  0
   -6.5165   -0.7916    0.0000 C   0  0  0  0  0  0  0  0  0  0  0  0
   -3.9306    0.7293    0.0000 C   0  0  0  0  0  0  0  0  0  0  0  0
   -5.2109   -1.5319    0.0000 C   0  0  0  0  0  0  0  0  0  0  0  0
    1.3000   -0.7500    0.0000 C   0  0  0  0  0  0  0  0  0  0  0  0
    0.0300    1.5000    0.0000 C   0  0  0  0  0  0  0  0  0  0  0  0
    0.0300   -1.5000    0.0000 C   0  0  0  0  0  0  0  0  0  0  0  0
   -1.3200    0.7500    0.0000 C   0  0  0  0  0  0  0  0  0  0  0  0
    2.6027    1.4936    0.0000 C   0  0  0  0  0  0  0  0  0  0  0  0
    1.3000    0.7500    0.0000 C   0  0  0  0  0  0  0  0  0  0  0  0
   -3.9180   -0.7714    0.0000 C   0  0  0  0  0  0  0  0  0  0  0  0
   -1.3200   -0.7500    0.0000 C   0  0  0  0  0  0  0  0  0  0  0  0
    3.8980    0.7372    0.0000 O   0  0  0  0  0  0  0  0  0  0  0  0
   -2.6128   -1.5107    0.0000 O   0  0  0  0  0  0  0  0  0  0  0  0
  3  2  2  0
  4  2  1  0
  5  3  1  0
  6  4  2  0
  9  7  2  0
 10  8  1  0
 11  1  1  0
 12  7  1  0
 12  8  2  0
 12 11  1  0
 13  5  2  0
 13  6  1  0
 14  9  1  0
 14 10  2  0
 15 11  1  0
 16 13  1  0
 16 14  1  0
M  END
>  <NAME>  (1607) 
1-(4-PHENOXYPHENYL)ETHYL ALCOHOL

>  <SYNONYMS>  (1607) 


>  <SPECTRUM TYPE>  (1607) 
MS1

>  <INSTRUMENT TYPE>  (1607) 
EI-B

>  <INSTRUMENT>  (1607) 
JEOL JMS-DX-300

>  <ION MODE>  (1607) 
P

>  <INCHIKEY>  (1607) 
HCIFMENZOKGFEI-UHFFFAOYSA-N

>  <FORMULA>  (1607) 
C14H14O2

>  <EXACT MASS>  (1607) 
214.099379688

>  <MW>  (1607) 
214

>  <ID>  (1607) 
JP009623

>  <CONTRIBUTOR>  (1607) 
University of Tokyo Team, {Faculty of Engineering, University of Tokyo

>  <COMMENT>  (1607) 
SMILES=CC(O)c(c2)ccc(c2)Oc(c1)cccc1
InChI=InChI=1S/C14H14O2/c1-11(15)12-7-9-14(10-8-12)16-13-5-3-2-4-6-13/h2-11,15H,1H3
computed SMILES=OC(C1=CC=C(OC=2C=CC=CC2)C=C1)C
accession=JP009623
date=2016.01.19 (Created 2008.10.21, modified 2011.05.06)
author=THE INSTITUTE OF SCIENTIFIC AND INDUSTRIALRESEARCH
license=CC BY-NC-SA
exact mass=214.09938
ionization energy=70 eV
ion type=[M]+*
computed spectral entropy=3.387777580974436
computed normalized entropy=0.7645943704688563
SPLASH=splash10-02bb-9720000000-0219e813ec5bab5f98b7
submitter=submitter = University of Tokyo Team (Faculty of Engineering, University of Tokyo)
MoNA Rating=3.75

>  <NUM PEAKS>  (1607) 
84

>  <MASS SPECTRAL PEAKS>  (1607) 
27 7.2
29 8
38 2.8
39 1.98
40 2.9
41 6.8
42 1.5
43 4.74
44 3.4
45 7
50 9.6
51 3.8
52 4.2
53 2.8
55 5.7
56 0.17
57 6.1
62 1.8
63 7.9
64 0.39
65 45.6
66 10.3
67 2.4
68 0.11
69 2.5
70 1.1
71 3.3
74 0.23
75 2.9
76 4
77 57.5
78 1.08
79 2.7
81 1.8
83 1.8
85 0.22
89 2.3
91 8
92 2.2
93 3.73
94 11.5
95 5.3
97 1.6
99 0.1
100 4.8
102 1.3
103 2.8
104 0.24
105 2.8
106 1.2
107 1.8
115 1.15
116 1.4
119 1.3
120 1.3
121 0.4
122 3.4
123 1.2
127 1.2
128 0.42
139 3.2
141 9.8
142 2.7
143 0.12
151 1.2
152 6
153 16.2
154 0.24
165 1
168 1.4
169 2.8
170 0.25
171 16
172 2.1
181 1.8
196 0.12
197 8.7
198 2.8
199 99.99
200 1.4
201 1.4
213 1.8
214 51.2
215 8

>  <PREDICTED SPECTRUM>  (1607) 
15 18
26 12
27 73
28 25
29 34
31 9
33 13
37 47
38 119
39 341
40 120
41 124
42 94
43 558
44 162
45 114
47 36
49 52
50 282
51 545
52 208
53 206
54 55
55 120
56 49
57 124
58 5
61 7
62 127
63 274
64 185
65 360
66 226
67 117
68 65
69 122
70 97
71 52
72 9
73 98
74 131
75 189
76 182
77 818
78 319
79 194
80 57
81 89
82 22
84 39
85 43
86 73
87 78
88 42
89 156
90 98
91 217
92 155
93 219
94 391
95 119
96 69
97 71
98 82
99 57
100 90
101 71
102 175
103 193
104 114
105 81
106 79
107 34
109 1
113 52
114 48
115 281
116 212
117 136
118 131
119 67
120 115
121 205
122 118
123 75
124 18
125 8
126 42
127 174
128 192
129 52
130 85
131 43
133 11
137 39
138 47
139 80
141 359
142 125
143 94
144 74
151 143
152 306
153 297
154 41
155 34
156 35
160 6
165 67
167 26
168 84
169 135
170 80
171 400
172 147
173 51
181 149
182 44
185 4
195 65
196 108
197 297
198 90
199 999
200 355
201 82
213 199
214 814
215 301
216 74

$$$$

     RDKit          2D

 21 23  0  0  0  0  0  0  0  0999 V2000
   -4.2258    2.7585    0.0000 C   0  0  0  0  0  0  0  0  0  0  0  0
   -2.9262    2.0076    0.0000 C   0  0  0  0  0  0  0  0  0  0  0  0
   -4.2262    4.2593    0.0000 C   0  0  0  0  0  0  0  0  0  0  0  0
    7.4769    6.5042    0.0000 C   0  0  0  0  0  0  0  0  0  0  0  0
   -1.6272    2.7576    0.0000 C   0  0  0  0  0  0  0  0  0  0  0  0
   -2.9272    5.0093    0.0000 C   0  0  0  0  0  0  0  0  0  0  0  0
    6.1710    7.2541    0.0000 C   0  0  0  0  0  0  0  0  0  0  0  0
    7.4641    4.9984    0.0000 C   0  0  0  0  0  0  0  0  0  0  0  0
   -0.3284    6.5085    0.0000 C   0  0  0  0  0  0  0  0  0  0  0  0
    0.9712    4.2583    0.0000 C   0  0  0  0  0  0  0  0  0  0  0  0
    0.9717    7.2583    0.0000 C   0  0  0  0  0  0  0  0  0  0  0  0
    2.2714    5.0080    0.0000 C   0  0  0  0  0  0  0  0  0  0  0  0
    4.8742    5.0122    0.0000 C   0  0  0  0  0  0  0  0  0  0  0  0
   -1.6277    4.2585    0.0000 C   0  0  0  0  0  0  0  0  0  0  0  0
   -0.3286    5.0085    0.0000 C   0  0  0  0  0  0  0  0  0  0  0  0
    2.2716    6.5080    0.0000 C   0  0  0  0  0  0  0  0  0  0  0  0
    4.8697    6.5080    0.0000 C   0  0  0  0  0  0  0  0  0  0  0  0
    6.1628    4.2524    0.0000 C   0  0  0  0  0  0  0  0  0  0  0  0
    3.5706    7.2580    0.0000 C   0  0  0  0  0  0  0  0  0  0  0  0
    6.1536    2.7524    0.0000 Cl  0  0  0  0  0  0  0  0  0  0  0  0
    3.5706    8.7580    0.0000 O   0  0  0  0  0  0  0  0  0  0  0  0
  2  1  2  0
  3  1  1  0
  5  2  1  0
  6  3  2  0
  7  4  2  0
  8  4  1  0
 11  9  2  0
 12 10  1  0
 14  5  2  0
 14  6  1  0
 15  9  1  0
 15 10  2  0
 15 14  1  0
 16 11  1  0
 16 12  2  0
 17  7  1  0
 17 13  2  0
 18  8  2  0
 18 13  1  0
 19 16  1  0
 19 17  1  0
 20 18  1  0
 21 19  2  0
M  END
>  <NAME>  (1608) 
4-BIPHENYLYL 3-CHLOROPHENYL KETONE

>  <SYNONYMS>  (1608) 
3-CHLORO-4'-PHENYLBENZOPHENONE

>  <SPECTRUM TYPE>  (1608) 
MS1

>  <INSTRUMENT TYPE>  (1608) 
EI-B

>  <INSTRUMENT>  (1608) 
JEOL JMS-DX-300

>  <ION MODE>  (1608) 
P

>  <INCHIKEY>  (1608) 
IIMHFJOYSGKNFB-UHFFFAOYSA-N

>  <FORMULA>  (1608) 
C19H13ClO

>  <EXACT MASS>  (1608) 
292.065492716

>  <MW>  (1608) 
292

>  <ID>  (1608) 
JP009622

>  <CONTRIBUTOR>  (1608) 
University of Tokyo Team, {Faculty of Engineering, University of Tokyo

>  <COMMENT>  (1608) 
SMILES=Clc(c3)cc(cc3)C(=O)c(c2)ccc(c2)c(c1)cccc1
InChI=InChI=1S/C19H13ClO/c20-18-8-4-7-17(13-18)19(21)16-11-9-15(10-12-16)14-5-2-1-3-6-14/h1-13H
computed SMILES=O=C(C=1C=CC(=CC1)C=2C=CC=CC2)C=3C=CC=C(Cl)C3
accession=JP009622
date=2016.01.19 (Created 2008.10.21, modified 2011.05.06)
author=THE INSTITUTE OF SCIENTIFIC AND INDUSTRIALRESEARCH
license=CC BY-NC-SA
exact mass=292.06549
ionization energy=70 eV
ion type=[M]+*
computed spectral entropy=2.8878610858574074
computed normalized entropy=0.7174183295596708
SPLASH=splash10-0f8c-4910000000-51015ceabdcb9d460e32
submitter=submitter = University of Tokyo Team (Faculty of Engineering, University of Tokyo)
MoNA Rating=3.75

>  <NUM PEAKS>  (1608) 
56

>  <MASS SPECTRAL PEAKS>  (1608) 
27 1.7
29 2
39 2.9
40 0.1
41 1.1
43 1.2
44 69.3
45 0.21
50 8.2
51 9.8
52 1.2
62 0.11
63 3.9
74 4.7
75 23.8
76 1.08
77 8.4
78 1
85 1.8
87 0.2
89 1
99 1
101 2.9
102 0.38
111 28.7
112 2.2
113 10.3
114 0.15
115 1.3
125 1
126 5.9
127 0.84
128 1.2
132 3.5
133 1.1
139 1.66
140 1.3
141 5.2
150 5
151 1.79
152 67
153 33
154 3.7
181 99.99
182 14.2
183 1.2
226 2.9
227 0.12
228 2.6
257 5
258 1.1
264 0.1
292 30.3
293 6.8
294 9.5
295 1.7

>  <PREDICTED SPECTRUM>  (1608) 
34 5
35 15
36 43
38 18
39 100
40 56
44 22
49 10
50 173
51 214
52 50
53 54
55 60
57 2
61 11
62 45
63 121
64 34
65 47
74 115
75 246
76 212
77 253
78 91
83 19
84 29
85 8
86 6
87 55
89 27
91 12
95 9
98 4
99 54
101 72
102 75
103 1
104 114
105 38
106 11
111 321
112 75
113 236
115 74
125 111
126 173
127 92
136 60
138 63
139 191
141 153
150 222
151 287
152 693
153 566
154 164
164 0
165 3
180 56
181 999
182 452
190 52
215 90
217 34
257 133
258 73
275 44
292 458
293 202
294 260
295 111
296 8

$$$$

     RDKit          2D

 22 25  0  0  0  0  0  0  0  0999 V2000
    3.6900    0.1600    0.0000 C   0  0  0  0  0  0  0  0  0  0  0  0
    3.2200   -1.2700    0.0000 C   0  0  0  0  0  0  0  0  0  0  0  0
   -6.7021   -3.1875    0.0000 C   0  0  0  0  0  0  0  0  0  0  0  0
    2.6800    1.2700    0.0000 C   0  0  0  0  0  0  0  0  0  0  0  0
   -5.6953   -2.0676    0.0000 C   0  0  0  0  0  0  0  0  0  0  0  0
   -8.1718   -2.8595    0.0000 C   0  0  0  0  0  0  0  0  0  0  0  0
    1.7500   -1.5800    0.0000 C   0  0  0  0  0  0  0  0  0  0  0  0
   -3.2200   -1.2700    0.0000 C   0  0  0  0  0  0  0  0  0  0  0  0
   -1.7500   -1.5800    0.0000 C   0  0  0  0  0  0  0  0  0  0  0  0
   -0.0000    1.8400    0.0000 C   0  0  0  0  0  0  0  0  0  0  0  0
   -2.6800    1.2700    0.0000 C   0  0  0  0  0  0  0  0  0  0  0  0
   -7.6158   -0.3300    0.0000 C   0  0  0  0  0  0  0  0  0  0  0  0
    1.2100    0.9600    0.0000 C   0  0  0  0  0  0  0  0  0  0  0  0
   -6.1522   -0.6389    0.0000 C   0  0  0  0  0  0  0  0  0  0  0  0
   -3.6800    0.1600    0.0000 C   0  0  0  0  0  0  0  0  0  0  0  0
   -1.2100    0.9600    0.0000 C   0  0  0  0  0  0  0  0  0  0  0  0
   -8.6287   -1.4308    0.0000 C   0  0  0  0  0  0  0  0  0  0  0  0
    0.7500   -0.4700    0.0000 C   0  0  0  0  0  0  0  0  0  0  0  0
   -0.7500   -0.4700    0.0000 C   0  0  0  0  0  0  0  0  0  0  0  0
   -5.1467    0.4742    0.0000 C   0  0  0  0  0  0  0  0  0  0  0  0
  -10.0934   -1.1076    0.0000 Cl  0  0  0  0  0  0  0  0  0  0  0  0
   -5.6080    1.9015    0.0000 O   0  0  0  0  0  0  0  0  0  0  0  0
  2  1  2  0
  4  1  1  0
  5  3  2  0
  6  3  1  0
  7  2  1  0
  9  8  1  0
 13  4  2  0
 13 10  1  0
 14  5  1  0
 14 12  2  0
 15  8  2  0
 15 11  1  0
 16 10  1  0
 16 11  2  0
 17  6  2  0
 17 12  1  0
 18  7  2  0
 18 13  1  0
 19  9  2  0
 19 16  1  0
 19 18  1  0
 20 14  1  0
 20 15  1  0
 21 17  1  0
 22 20  2  0
M  END
>  <NAME>  (1609) 
3-CHLOROPHENYL 2-FLUORENYL KETONE

>  <SYNONYMS>  (1609) 


>  <SPECTRUM TYPE>  (1609) 
MS1

>  <INSTRUMENT TYPE>  (1609) 
EI-B

>  <INSTRUMENT>  (1609) 
JEOL JMS-DX-300

>  <ION MODE>  (1609) 
P

>  <INCHIKEY>  (1609) 
BYCULHXMOSCHIW-UHFFFAOYSA-N

>  <FORMULA>  (1609) 
C20H13ClO

>  <EXACT MASS>  (1609) 
304.065492716

>  <MW>  (1609) 
304

>  <ID>  (1609) 
JP009621

>  <CONTRIBUTOR>  (1609) 
University of Tokyo Team, {Faculty of Engineering, University of Tokyo

>  <COMMENT>  (1609) 
SMILES=Clc(c4)cc(cc4)C(=O)c(c3)cc(C1)c(c3)c(c2)c(ccc2)1
InChI=InChI=1S/C20H13ClO/c21-17-6-3-5-14(12-17)20(22)15-8-9-19-16(11-15)10-13-4-1-2-7-18(13)19/h1-9,11-12H,10H2
computed SMILES=O=C(C=1C=CC=C(Cl)C1)C2=CC=C3C=4C=CC=CC4CC3=C2
accession=JP009621
date=2016.01.19 (Created 2008.10.21, modified 2011.05.06)
author=THE INSTITUTE OF SCIENTIFIC AND INDUSTRIALRESEARCH
license=CC BY-NC-SA
exact mass=304.06549
ionization energy=70 eV
ion type=[M]+*
computed spectral entropy=2.746940782120204
computed normalized entropy=0.7258993464542476
SPLASH=splash10-00ko-1902000000-ccd96d97aded2320b4bf
submitter=submitter = University of Tokyo Team (Faculty of Engineering, University of Tokyo)
MoNA Rating=3.75

>  <NUM PEAKS>  (1609) 
44

>  <MASS SPECTRAL PEAKS>  (1609) 
29 4.2
36 1.8
39 1
40 0.79
41 1.3
44 38.4
50 1.5
51 0.15
59 2.2
63 3.1
75 5.9
76 0.24
87 1.5
89 1.5
105 1.5
111 1.71
112 1.3
113 6.6
115 4.2
119 0.13
120 7.7
121 1.9
138 5.5
139 99.99
140 8.1
141 33
142 2.2
162 0.19
163 17.5
164 17.5
165 73.2
166 1.32
167 1
193 63.7
194 10.1
237 0.18
239 5.9
240 1.8
269 1.9
270 0.1
304 65.3
305 14.7
306 23
307 4.6

>  <PREDICTED SPECTRUM>  (1609) 
36 34
38 25
39 75
40 50
41 18
42 35
43 68
44 74
50 159
51 191
52 38
53 44
57 1
61 20
62 48
63 151
64 54
65 55
66 2
69 10
70 30
71 6
73 8
74 95
75 300
76 147
77 197
78 102
79 25
81 17
82 32
83 52
85 91
86 44
87 78
88 22
89 78
91 32
92 8
94 15
95 86
96 22
97 8
99 12
100 34
101 50
102 19
104 68
105 22
106 57
107 14
109 5
111 558
112 60
113 357
114 80
115 115
119 68
120 94
121 9
122 69
123 17
124 13
133 4
135 12
136 76
137 178
138 161
139 861
140 145
141 591
142 44
146 1
147 89
148 5
150 100
151 3
162 26
163 564
164 478
165 952
166 121
176 13
184 21
192 23
193 999
194 337
195 23
196 2
239 187
241 12
269 82
270 8
303 2
304 748
305 369
306 450
307 213
308 65

$$$$

     RDKit          2D

 22 24  0  0  0  0  0  0  0  0999 V2000
   -1.6700   -0.9600    0.0000 C   0  0  0  0  0  0  0  0  0  0  0  0
   -1.6700    0.5400    0.0000 C   0  0  0  0  0  0  0  0  0  0  0  0
   -0.3700   -1.7100    0.0000 C   0  0  0  0  0  0  0  0  0  0  0  0
   10.0587    1.2054    0.0000 C   0  0  0  0  0  0  0  0  0  0  0  0
    8.7467    0.4664    0.0000 C   0  0  0  0  0  0  0  0  0  0  0  0
   11.3464    0.4246    0.0000 C   0  0  0  0  0  0  0  0  0  0  0  0
   -0.3700    1.2900    0.0000 C   0  0  0  0  0  0  0  0  0  0  0  0
    0.9300   -0.9600    0.0000 C   0  0  0  0  0  0  0  0  0  0  0  0
    4.8197   -1.7391    0.0000 C   0  0  0  0  0  0  0  0  0  0  0  0
    6.1512    0.4751    0.0000 C   0  0  0  0  0  0  0  0  0  0  0  0
    3.5411   -1.0039    0.0000 C   0  0  0  0  0  0  0  0  0  0  0  0
    4.8331    1.2799    0.0000 C   0  0  0  0  0  0  0  0  0  0  0  0
   10.0105   -1.7942    0.0000 C   0  0  0  0  0  0  0  0  0  0  0  0
    6.1247   -0.9996    0.0000 C   0  0  0  0  0  0  0  0  0  0  0  0
    8.7226   -1.0334    0.0000 C   0  0  0  0  0  0  0  0  0  0  0  0
   11.3223   -1.0752    0.0000 C   0  0  0  0  0  0  0  0  0  0  0  0
    0.9300    0.5400    0.0000 C   0  0  0  0  0  0  0  0  0  0  0  0
    3.5281    0.5404    0.0000 C   0  0  0  0  0  0  0  0  0  0  0  0
    7.4139   -1.7665    0.0000 C   0  0  0  0  0  0  0  0  0  0  0  0
   12.6067   -1.8499    0.0000 Cl  0  0  0  0  0  0  0  0  0  0  0  0
    7.3944   -3.2663    0.0000 O   0  0  0  0  0  0  0  0  0  0  0  0
    2.2289    1.2902    0.0000 O   0  0  0  0  0  0  0  0  0  0  0  0
  2  1  2  0
  3  1  1  0
  5  4  2  0
  6  4  1  0
  7  2  1  0
  8  3  2  0
 11  9  2  0
 12 10  1  0
 14  9  1  0
 14 10  2  0
 15  5  1  0
 15 13  2  0
 16  6  2  0
 16 13  1  0
 17  7  2  0
 17  8  1  0
 18 11  1  0
 18 12  2  0
 19 14  1  0
 19 15  1  0
 20 16  1  0
 21 19  2  0
 22 17  1  0
 22 18  1  0
M  END
>  <NAME>  (1610) 
3-CHLOROPHENYL 4-PHENOXYPHENYL KETONE

>  <SYNONYMS>  (1610) 
3-CHLORO-4'-PHENOXYBENZOPHENONE

>  <SPECTRUM TYPE>  (1610) 
MS1

>  <INSTRUMENT TYPE>  (1610) 
EI-B

>  <INSTRUMENT>  (1610) 
JEOL JMS-DX-300

>  <ION MODE>  (1610) 
P

>  <INCHIKEY>  (1610) 
CJLZBJCUUYTJOL-UHFFFAOYSA-N

>  <FORMULA>  (1610) 
C19H13ClO2

>  <EXACT MASS>  (1610) 
308.060407336

>  <MW>  (1610) 
308

>  <ID>  (1610) 
JP009620

>  <CONTRIBUTOR>  (1610) 
University of Tokyo Team, {Faculty of Engineering, University of Tokyo

>  <COMMENT>  (1610) 
SMILES=Clc(c3)cc(cc3)C(=O)c(c2)ccc(c2)Oc(c1)cccc1
InChI=InChI=1S/C19H13ClO2/c20-16-6-4-5-15(13-16)19(21)14-9-11-18(12-10-14)22-17-7-2-1-3-8-17/h1-13H
computed SMILES=O=C(C1=CC=C(OC=2C=CC=CC2)C=C1)C=3C=CC=C(Cl)C3
accession=JP009620
date=2016.01.19 (Created 2008.10.21, modified 2011.05.06)
author=THE INSTITUTE OF SCIENTIFIC AND INDUSTRIALRESEARCH
license=CC BY-NC-SA
exact mass=308.06041
ionization energy=70 eV
ion type=[M]+*
computed spectral entropy=2.091455106734584
computed normalized entropy=0.6345748262929458
SPLASH=splash10-0002-1902000000-e2befd577d2eba12f441
submitter=submitter = University of Tokyo Team (Faculty of Engineering, University of Tokyo)
MoNA Rating=3.75

>  <NUM PEAKS>  (1610) 
27

>  <MASS SPECTRAL PEAKS>  (1610) 
39 1
44 8.6
50 1.5
51 0.39
59 2.6
63 1
65 1
75 0.31
76 1.8
77 6.6
111 7
113 0.24
115 6.2
139 6.6
141 10.8
142 0.1
154 1.7
168 1
197 99.99
198 1.52
199 1.3
215 1.8
273 1.8
308 5.3
309 11.2
310 18.9
311 3.5

>  <PREDICTED SPECTRUM>  (1610) 
36 28
38 24
39 102
40 28
41 0
43 16
44 3
49 2
50 197
51 191
53 23
55 38
62 21
63 137
64 74
65 82
66 33
67 0
69 71
70 37
74 71
75 250
76 174
77 250
83 8
84 23
85 75
87 10
92 14
93 6
94 24
95 10
104 152
111 463
112 21
113 233
115 128
125 37
134 35
135 10
136 26
138 37
139 598
140 45
141 494
142 82
150 67
151 75
152 94
153 92
167 6
168 167
169 182
196 86
197 999
198 286
199 15
200 25
215 160
231 5
232 9
233 12
273 92
308 112
309 140
310 375
311 140
312 5

$$$$

     RDKit          2D

 17 19  0  0  0  0  0  0  0  0999 V2000
   -6.0281   -1.5504    0.0000 C   0  0  0  0  0  0  0  0  0  0  0  0
    3.0600    2.2000    0.0000 C   0  0  0  0  0  0  0  0  0  0  0  0
    1.7600    2.9500    0.0000 C   0  0  0  0  0  0  0  0  0  0  0  0
    3.0600    0.7000    0.0000 C   0  0  0  0  0  0  0  0  0  0  0  0
    0.4600    2.2000    0.0000 C   0  0  0  0  0  0  0  0  0  0  0  0
    1.7600   -1.5500    0.0000 C   0  0  0  0  0  0  0  0  0  0  0  0
    0.4600   -2.3000    0.0000 C   0  0  0  0  0  0  0  0  0  0  0  0
   -3.4300   -0.0500    0.0000 C   0  0  0  0  0  0  0  0  0  0  0  0
   -2.1300    0.7000    0.0000 C   0  0  0  0  0  0  0  0  0  0  0  0
   -2.1300   -2.3000    0.0000 C   0  0  0  0  0  0  0  0  0  0  0  0
   -4.7289   -2.3002    0.0000 C   0  0  0  0  0  0  0  0  0  0  0  0
    1.7600   -0.0500    0.0000 C   0  0  0  0  0  0  0  0  0  0  0  0
   -3.4300   -1.5500    0.0000 C   0  0  0  0  0  0  0  0  0  0  0  0
   -0.8300   -1.5500    0.0000 C   0  0  0  0  0  0  0  0  0  0  0  0
    0.4600    0.7000    0.0000 C   0  0  0  0  0  0  0  0  0  0  0  0
   -0.8300   -0.0500    0.0000 C   0  0  0  0  0  0  0  0  0  0  0  0
   -4.7287   -3.8002    0.0000 O   0  0  0  0  0  0  0  0  0  0  0  0
  3  2  2  0
  4  2  1  0
  5  3  1  0
  7  6  1  0
  9  8  1  0
 11  1  1  0
 12  4  2  0
 12  6  1  0
 13  8  2  0
 13 10  1  0
 13 11  1  0
 14  7  1  0
 14 10  2  0
 15  5  2  0
 15 12  1  0
 16  9  2  0
 16 14  1  0
 16 15  1  0
 17 11  2  0
M  END
>  <NAME>  (1611) 
9,10-DIHYDRO-2-PHENANTHRYL METHYL KETONE

>  <SYNONYMS>  (1611) 


>  <SPECTRUM TYPE>  (1611) 
MS1

>  <INSTRUMENT TYPE>  (1611) 
EI-B

>  <INSTRUMENT>  (1611) 
JEOL JMS-DX-300

>  <ION MODE>  (1611) 
P

>  <INCHIKEY>  (1611) 
JLABAJAYOGFVQR-UHFFFAOYSA-N

>  <FORMULA>  (1611) 
C16H14O

>  <EXACT MASS>  (1611) 
222.104465068

>  <MW>  (1611) 
222

>  <ID>  (1611) 
JP009619

>  <CONTRIBUTOR>  (1611) 
University of Tokyo Team, {Faculty of Engineering, University of Tokyo

>  <COMMENT>  (1611) 
SMILES=CC(=O)c(c3)cc(C1)c(c3)c(c2)c(ccc2)C1
InChI=InChI=1S/C16H14O/c1-11(17)13-8-9-16-14(10-13)7-6-12-4-2-3-5-15(12)16/h2-5,8-10H,6-7H2,1H3
computed SMILES=O=C(C1=CC=C2C=3C=CC=CC3CCC2=C1)C
accession=JP009619
date=2016.01.19 (Created 2008.10.21, modified 2011.05.06)
author=THE INSTITUTE OF SCIENTIFIC AND INDUSTRIALRESEARCH
license=CC BY-NC-SA
exact mass=222.10447
ionization energy=70 eV
ion type=[M]+*
computed spectral entropy=2.366771653448248
computed normalized entropy=0.6892197065722891
SPLASH=splash10-0ab9-2390000000-c57fcda2353c4649c998
submitter=submitter = University of Tokyo Team (Faculty of Engineering, University of Tokyo)
MoNA Rating=3.75

>  <NUM PEAKS>  (1611) 
31

>  <MASS SPECTRAL PEAKS>  (1611) 
43 9
44 5
57 1.1
59 0.1
63 1.9
75 1.9
76 7.8
82 0.14
88 5.5
89 9.5
90 1.8
96 0.48
97 2.6
103 4.8
104 4.9
115 0.12
150 1.8
151 3.8
152 5
153 0.11
176 7.5
177 6.4
178 33.5
179 2.72
180 4
207 99.99
208 16.7
209 0.18
222 70.6
223 12.7
224 1.5

>  <PREDICTED SPECTRUM>  (1611) 
39 113
40 41
41 94
42 47
43 469
44 88
45 6
50 94
51 150
52 52
53 9
57 58
62 85
63 158
64 51
65 59
70 19
74 100
75 140
76 180
77 53
78 20
81 4
82 104
83 85
84 22
85 24
86 33
87 88
88 146
89 156
90 54
91 11
94 45
95 66
96 88
97 25
98 10
99 23
101 63
102 80
103 10
106 10
107 1
109 73
110 56
111 23
113 13
115 108
123 28
124 33
125 29
126 45
127 36
137 53
138 38
139 93
149 49
150 125
151 211
152 251
153 49
162 14
163 121
164 116
165 121
173 8
175 57
176 257
177 208
178 583
179 416
180 162
189 219
193 81
206 15
207 999
208 410
209 113
220 42
221 32
222 845
223 340
224 111

$$$$

     RDKit          2D

 10 10  0  0  0  0  0  0  0  0999 V2000
   -2.9280    0.5574    0.0000 C   0  0  0  0  0  0  0  0  0  0  0  0
    0.9737   -1.6804    0.0000 C   0  0  0  0  0  0  0  0  0  0  0  0
   -0.3254   -0.9304    0.0000 C   0  0  0  0  0  0  0  0  0  0  0  0
    2.2682   -0.9382    0.0000 C   0  0  0  0  0  0  0  0  0  0  0  0
    0.9696    1.3126    0.0000 C   0  0  0  0  0  0  0  0  0  0  0  0
   -1.6302    1.3096    0.0000 C   0  0  0  0  0  0  0  0  0  0  0  0
   -0.3299    0.5618    0.0000 C   0  0  0  0  0  0  0  0  0  0  0  0
    2.2687    0.5626    0.0000 C   0  0  0  0  0  0  0  0  0  0  0  0
    3.5678    1.3124    0.0000 N   0  0  0  0  0  0  0  0  0  0  0  0
   -1.6327    2.8096    0.0000 O   0  0  0  0  0  0  0  0  0  0  0  0
  3  2  2  0
  4  2  1  0
  6  1  1  0
  7  3  1  0
  7  5  2  0
  7  6  1  0
  8  4  2  0
  8  5  1  0
  9  8  1  0
 10  6  2  0
M  END
>  <NAME>  (1612) 
3-AMINOPHENYL METHYL KETONE

>  <SYNONYMS>  (1612) 
3-AMINOACETOPHENONE

>  <SPECTRUM TYPE>  (1612) 
MS1

>  <INSTRUMENT TYPE>  (1612) 
EI-B

>  <INSTRUMENT>  (1612) 
JEOL JMS-DX-300

>  <ION MODE>  (1612) 
P

>  <INCHIKEY>  (1612) 
CKQHAYFOPRIUOM-UHFFFAOYSA-N

>  <FORMULA>  (1612) 
C8H9NO

>  <EXACT MASS>  (1612) 
135.068413908

>  <MW>  (1612) 
135

>  <ID>  (1612) 
JP009618

>  <CONTRIBUTOR>  (1612) 
University of Tokyo Team, {Faculty of Engineering, University of Tokyo

>  <COMMENT>  (1612) 
SMILES=CC(=O)c(c1)cc(N)cc1
InChI=InChI=1S/C8H9NO/c1-6(10)7-3-2-4-8(9)5-7/h2-5H,9H2,1H3
computed SMILES=O=C(C=1C=CC=C(N)C1)C
accession=JP009618
date=2016.01.19 (Created 2008.10.21, modified 2011.05.06)
author=THE INSTITUTE OF SCIENTIFIC AND INDUSTRIALRESEARCH
license=CC BY-NC-SA
exact mass=135.06841
ionization energy=70 eV
ion type=[M]+*
computed spectral entropy=2.124337448882366
computed normalized entropy=0.6245851711917432
SPLASH=splash10-007c-6900000000-389349e09cc3b6346454
submitter=submitter = University of Tokyo Team (Faculty of Engineering, University of Tokyo)
MoNA Rating=3.75

>  <NUM PEAKS>  (1612) 
30

>  <MASS SPECTRAL PEAKS>  (1612) 
38 1.9
39 8.3
40 1.2
41 0.23
42 1.1
43 11.2
44 2.7
46 0.39
50 1.4
51 1.8
52 2.9
53 0.12
60 3.9
62 1.7
63 4.3
64 0.37
65 27.1
66 4.8
76 1.2
77 0.19
91 3.1
92 73.7
93 8
106 0.15
119 1.6
120 96.6
121 8
134 0.12
135 99.99
136 9.8

>  <PREDICTED SPECTRUM>  (1612) 
14 13
15 38
16 2
26 37
27 31
28 14
37 134
38 202
39 351
40 171
41 183
42 180
43 483
44 136
49 58
50 218
51 298
52 312
53 152
54 65
55 3
61 150
62 253
63 449
64 429
65 557
66 263
67 43
74 46
75 46
76 120
77 169
78 112
79 113
80 9
86 4
87 27
89 8
90 186
91 232
92 794
93 353
94 40
106 142
107 23
108 27
119 19
120 999
121 303
122 21
134 18
135 928
136 301
137 40

$$$$

     RDKit          2D

 11 11  0  0  0  0  0  0  0  0999 V2000
   -2.9210    1.3138    0.0000 C   0  0  0  0  0  0  0  0  0  0  0  0
    0.9721    3.5563    0.0000 C   0  0  0  0  0  0  0  0  0  0  0  0
    2.2711    2.8063    0.0000 C   0  0  0  0  0  0  0  0  0  0  0  0
   -0.3224    2.8142    0.0000 C   0  0  0  0  0  0  0  0  0  0  0  0
    0.9761    0.5633    0.0000 C   0  0  0  0  0  0  0  0  0  0  0  0
    3.5760    0.5663    0.0000 C   0  0  0  0  0  0  0  0  0  0  0  0
   -1.6220    0.5635    0.0000 C   0  0  0  0  0  0  0  0  0  0  0  0
    2.2757    1.3142    0.0000 C   0  0  0  0  0  0  0  0  0  0  0  0
   -0.3229    1.3133    0.0000 C   0  0  0  0  0  0  0  0  0  0  0  0
    4.8763   -0.1815    0.0000 N   0  0  0  0  0  0  0  0  0  0  0  0
   -1.6223   -0.9365    0.0000 O   0  0  0  0  0  0  0  0  0  0  0  0
  3  2  2  0
  4  2  1  0
  7  1  1  0
  8  3  1  0
  8  5  2  0
  8  6  1  0
  9  4  2  0
  9  5  1  0
  9  7  1  0
 10  6  3  0
 11  7  2  0
M  END
>  <NAME>  (1613) 
3-CYANOPHENYL METHYL KETONE

>  <SYNONYMS>  (1613) 


>  <SPECTRUM TYPE>  (1613) 
MS1

>  <INSTRUMENT TYPE>  (1613) 
EI-B

>  <INSTRUMENT>  (1613) 
JEOL JMS-DX-300

>  <ION MODE>  (1613) 
P

>  <INCHIKEY>  (1613) 
SBCFGFDAZCTSRH-UHFFFAOYSA-N

>  <FORMULA>  (1613) 
C9H7NO

>  <EXACT MASS>  (1613) 
145.052763844

>  <MW>  (1613) 
145

>  <ID>  (1613) 
JP009615

>  <CONTRIBUTOR>  (1613) 
University of Tokyo Team, {Faculty of Engineering, University of Tokyo

>  <COMMENT>  (1613) 
SMILES=N#Cc(c1)cc(cc1)C(C)=O
InChI=InChI=1S/C9H7NO/c1-7(11)9-4-2-3-8(5-9)6-10/h2-5H,1H3
computed SMILES=N#CC1=CC=CC(=C1)C(=O)C
accession=JP009615
date=2016.01.19 (Created 2008.10.21, modified 2011.05.06)
author=THE INSTITUTE OF SCIENTIFIC AND INDUSTRIALRESEARCH
license=CC BY-NC-SA
exact mass=145.05276
ionization energy=70 eV
ion type=[M]+*
computed spectral entropy=2.670843813454445
computed normalized entropy=0.7290293084807367
SPLASH=splash10-001i-7900000000-0e5bd24d5fe5169c90e8
submitter=submitter = University of Tokyo Team (Faculty of Engineering, University of Tokyo)
MoNA Rating=3.75

>  <NUM PEAKS>  (1613) 
39

>  <MASS SPECTRAL PEAKS>  (1613) 
26 1.6
27 5
29 1.5
37 0.28
38 4.8
39 7.2
42 5.8
43 4.85
44 1.8
49 2.1
50 18.8
51 2.13
52 5
53 1
61 2.4
62 0.46
63 5.8
64 3
65 1.6
73 0.17
74 8
75 27.4
76 19
77 0.2
87 1.5
88 1.7
89 2.9
90 0.1
99 2.5
100 1.7
101 2.5
102 6.36
103 7.2
116 1.5
128 1.8
130 99.99
131 9.4
145 29.9
146 3.5

>  <PREDICTED SPECTRUM>  (1613) 
14 25
15 64
25 10
26 59
27 51
28 7
36 0
37 153
38 194
39 267
40 128
41 115
42 162
43 689
44 212
45 19
49 85
50 380
51 354
52 220
53 87
54 14
57 57
58 4
61 175
62 253
63 335
64 264
65 45
66 95
72 37
73 81
74 245
75 379
76 398
77 115
78 31
84 9
85 82
86 142
87 125
88 76
89 59
90 139
99 58
100 134
101 155
102 613
103 255
104 117
116 56
117 55
118 22
130 999
131 335
132 126
145 591
146 215
147 45

$$$$

     RDKit          2D

 13 14  0  0  0  0  0  0  0  0999 V2000
    2.4790    3.4800    0.0000 C   0  0  0  0  0  0  0  0  0  0  0  0
   -2.7200   -1.0200    0.0000 C   0  0  0  0  0  0  0  0  0  0  0  0
   -2.7200    0.4800    0.0000 C   0  0  0  0  0  0  0  0  0  0  0  0
    2.4800   -1.0200    0.0000 C   0  0  0  0  0  0  0  0  0  0  0  0
   -1.4200   -1.7700    0.0000 C   0  0  0  0  0  0  0  0  0  0  0  0
    1.1800   -1.7700    0.0000 C   0  0  0  0  0  0  0  0  0  0  0  0
   -1.4200    1.2300    0.0000 C   0  0  0  0  0  0  0  0  0  0  0  0
    2.4800    0.4800    0.0000 C   0  0  0  0  0  0  0  0  0  0  0  0
    1.1800    2.7300    0.0000 C   0  0  0  0  0  0  0  0  0  0  0  0
   -0.1200   -1.0200    0.0000 C   0  0  0  0  0  0  0  0  0  0  0  0
    1.1800    1.2300    0.0000 C   0  0  0  0  0  0  0  0  0  0  0  0
   -0.1200    0.4800    0.0000 C   0  0  0  0  0  0  0  0  0  0  0  0
   -0.1190    3.4800    0.0000 O   0  0  0  0  0  0  0  0  0  0  0  0
  3  2  2  0
  5  2  1  0
  6  4  2  0
  7  3  1  0
  8  4  1  0
  9  1  1  0
 10  5  2  0
 10  6  1  0
 11  8  2  0
 11  9  1  0
 12  7  2  0
 12 10  1  0
 12 11  1  0
 13  9  2  0
M  END
>  <NAME>  (1614) 
METHYL 1-NAPHTHYL KETONE

>  <SYNONYMS>  (1614) 


>  <SPECTRUM TYPE>  (1614) 
MS1

>  <INSTRUMENT TYPE>  (1614) 
EI-B

>  <INSTRUMENT>  (1614) 
JEOL JMS-DX-300

>  <ION MODE>  (1614) 
P

>  <INCHIKEY>  (1614) 
QQLIGMASAVJVON-UHFFFAOYSA-N

>  <FORMULA>  (1614) 
C12H10O

>  <EXACT MASS>  (1614) 
170.07316494

>  <MW>  (1614) 
170

>  <ID>  (1614) 
JP009613

>  <CONTRIBUTOR>  (1614) 
University of Tokyo Team, {Faculty of Engineering, University of Tokyo

>  <COMMENT>  (1614) 
SMILES=CC(=O)c(c1)c(c2)c(ccc2)cc1
InChI=InChI=1S/C12H10O/c1-9(13)11-8-4-6-10-5-2-3-7-12(10)11/h2-8H,1H3
computed SMILES=O=C(C1=CC=CC=2C=CC=CC21)C
accession=JP009613
date=2016.01.19 (Created 2008.10.21, modified 2011.05.06)
author=THE INSTITUTE OF SCIENTIFIC AND INDUSTRIALRESEARCH
license=CC BY-NC-SA
exact mass=170.07316
ionization energy=70 eV
ion type=[M]+*
computed spectral entropy=2.532822160278492
computed normalized entropy=0.7067974814079564
SPLASH=splash10-0ab9-2900000000-f8142db76f0d6f06996b
submitter=submitter = University of Tokyo Team (Faculty of Engineering, University of Tokyo)
MoNA Rating=3.75

>  <NUM PEAKS>  (1614) 
36

>  <MASS SPECTRAL PEAKS>  (1614) 
27 1.2
39 2.9
40 1.2
43 1.32
50 4.7
51 8
52 1
62 0.28
63 8.1
64 5
74 6
75 0.94
76 4.8
77 13.5
78 1.8
85 0.26
86 1.6
87 2.9
89 1.7
98 0.18
99 1.7
100 1.4
101 8
102 0.18
115 5
125 1
126 16.8
127 8.97
128 12
139 3
141 2.9
155 99.99
156 12.2
169 1.2
170 58.2
171 7.9

>  <PREDICTED SPECTRUM>  (1614) 
15 20
37 5
38 39
39 113
40 30
41 28
42 44
43 384
44 124
49 34
50 236
51 345
52 108
53 53
56 5
61 72
62 175
63 336
64 184
65 63
70 99
73 1
74 254
75 334
76 260
77 404
78 138
82 4
84 18
85 46
86 142
87 142
88 69
89 15
91 47
98 177
99 132
100 200
101 361
102 113
110 25
113 71
115 178
116 43
123 0
125 138
126 485
127 901
128 614
129 176
140 55
141 161
142 20
152 23
153 46
155 999
156 363
157 124
168 23
169 150
170 892
171 308
172 97

$$$$

     RDKit          2D

 16 18  0  0  0  0  0  0  0  0999 V2000
   -6.1522   -0.6389    0.0000 C   0  0  0  0  0  0  0  0  0  0  0  0
    3.6900    0.1600    0.0000 C   0  0  0  0  0  0  0  0  0  0  0  0
    3.2200   -1.2700    0.0000 C   0  0  0  0  0  0  0  0  0  0  0  0
    2.6800    1.2700    0.0000 C   0  0  0  0  0  0  0  0  0  0  0  0
    1.7500   -1.5800    0.0000 C   0  0  0  0  0  0  0  0  0  0  0  0
   -3.2200   -1.2700    0.0000 C   0  0  0  0  0  0  0  0  0  0  0  0
   -1.7500   -1.5800    0.0000 C   0  0  0  0  0  0  0  0  0  0  0  0
   -2.6800    1.2700    0.0000 C   0  0  0  0  0  0  0  0  0  0  0  0
   -0.0000    1.8400    0.0000 C   0  0  0  0  0  0  0  0  0  0  0  0
   -5.1467    0.4742    0.0000 C   0  0  0  0  0  0  0  0  0  0  0  0
   -3.6800    0.1600    0.0000 C   0  0  0  0  0  0  0  0  0  0  0  0
    1.2100    0.9600    0.0000 C   0  0  0  0  0  0  0  0  0  0  0  0
   -1.2100    0.9600    0.0000 C   0  0  0  0  0  0  0  0  0  0  0  0
    0.7500   -0.4700    0.0000 C   0  0  0  0  0  0  0  0  0  0  0  0
   -0.7500   -0.4700    0.0000 C   0  0  0  0  0  0  0  0  0  0  0  0
   -5.6080    1.9015    0.0000 O   0  0  0  0  0  0  0  0  0  0  0  0
  3  2  2  0
  4  2  1  0
  5  3  1  0
  7  6  1  0
 10  1  1  0
 11  6  2  0
 11  8  1  0
 11 10  1  0
 12  4  2  0
 12  9  1  0
 13  8  2  0
 13  9  1  0
 14  5  2  0
 14 12  1  0
 15  7  2  0
 15 13  1  0
 15 14  1  0
 16 10  2  0
M  END
>  <NAME>  (1615) 
2-FLUORENYL METHYL KETONE

>  <SYNONYMS>  (1615) 


>  <SPECTRUM TYPE>  (1615) 
MS1

>  <INSTRUMENT TYPE>  (1615) 
EI-B

>  <INSTRUMENT>  (1615) 
JEOL JMS-DX-300

>  <ION MODE>  (1615) 
P

>  <INCHIKEY>  (1615) 
IBASEVZORZFIIH-UHFFFAOYSA-N

>  <FORMULA>  (1615) 
C15H12O

>  <EXACT MASS>  (1615) 
208.088815004

>  <MW>  (1615) 
208

>  <ID>  (1615) 
JP009612

>  <CONTRIBUTOR>  (1615) 
University of Tokyo Team, {Faculty of Engineering, University of Tokyo

>  <COMMENT>  (1615) 
SMILES=CC(=O)c(c3)cc(C1)c(c3)c(c2)c(ccc2)1
InChI=InChI=1S/C15H12O/c1-10(16)11-6-7-15-13(8-11)9-12-4-2-3-5-14(12)15/h2-8H,9H2,1H3
computed SMILES=O=C(C1=CC=C2C=3C=CC=CC3CC2=C1)C
accession=JP009612
date=2016.01.19 (Created 2008.10.21, modified 2011.05.06)
author=THE INSTITUTE OF SCIENTIFIC AND INDUSTRIALRESEARCH
license=CC BY-NC-SA
exact mass=208.08882
ionization energy=70 eV
ion type=[M]+*
computed spectral entropy=2.4822097217783123
computed normalized entropy=0.6447050810924311
SPLASH=splash10-05mo-2930000000-bb15002b6e3cd95c7111
submitter=submitter = University of Tokyo Team (Faculty of Engineering, University of Tokyo)
MoNA Rating=3.75

>  <NUM PEAKS>  (1615) 
47

>  <MASS SPECTRAL PEAKS>  (1615) 
29 1.5
39 1.9
41 1.5
43 2.62
44 7.9
50 1
51 1.3
55 0.12
57 1.2
62 1.3
63 4
69 0.1
70 3.1
74 1.8
75 1.8
76 0.26
81 1.6
82 4.6
83 6.8
86 0.13
87 2.8
88 1.7
89 4.5
90 0.32
96 3
97 3.7
113 1.7
115 0.49
137 1.5
138 1
139 6.9
162 0.24
163 18.3
164 16.5
165 83.8
166 1.53
167 1.3
176 1.2
178 2.7
179 0.17
192 1
193 99.99
194 15.8
195 0.13
208 76
209 12.9
210 1.2

>  <PREDICTED SPECTRUM>  (1615) 
38 22
39 115
40 50
41 61
42 82
43 360
44 106
45 47
49 3
50 125
51 175
52 65
53 33
54 15
55 37
56 28
57 46
60 19
61 54
62 132
63 195
64 65
65 71
67 50
69 25
70 18
74 139
75 190
76 215
77 95
78 31
81 55
82 235
83 198
84 83
85 22
86 109
87 179
88 161
89 173
90 39
91 18
94 44
95 79
96 111
97 60
98 43
99 36
101 13
102 25
109 51
110 100
111 68
113 46
126 55
133 17
137 51
138 59
139 199
149 41
150 126
151 214
152 373
153 80
162 78
163 319
164 301
165 622
166 211
176 58
177 147
178 300
179 103
192 34
193 999
194 392
195 130
206 33
207 74
208 766
209 304
210 88

$$$$

     RDKit          2D

 18 20  0  0  0  0  0  0  0  0999 V2000
    6.1617   -0.6406    0.0000 C   0  0  0  0  0  0  0  0  0  0  0  0
   -6.1522   -0.6389    0.0000 C   0  0  0  0  0  0  0  0  0  0  0  0
    5.1569    0.4732    0.0000 C   0  0  0  0  0  0  0  0  0  0  0  0
    3.2200   -1.2700    0.0000 C   0  0  0  0  0  0  0  0  0  0  0  0
   -3.2200   -1.2700    0.0000 C   0  0  0  0  0  0  0  0  0  0  0  0
    1.7500   -1.5800    0.0000 C   0  0  0  0  0  0  0  0  0  0  0  0
   -1.7500   -1.5800    0.0000 C   0  0  0  0  0  0  0  0  0  0  0  0
    2.6800    1.2700    0.0000 C   0  0  0  0  0  0  0  0  0  0  0  0
   -2.6800    1.2700    0.0000 C   0  0  0  0  0  0  0  0  0  0  0  0
   -0.0000    1.8400    0.0000 C   0  0  0  0  0  0  0  0  0  0  0  0
   -5.1467    0.4742    0.0000 C   0  0  0  0  0  0  0  0  0  0  0  0
    3.6900    0.1600    0.0000 C   0  0  0  0  0  0  0  0  0  0  0  0
   -3.6800    0.1600    0.0000 C   0  0  0  0  0  0  0  0  0  0  0  0
    1.2100    0.9600    0.0000 C   0  0  0  0  0  0  0  0  0  0  0  0
   -1.2100    0.9600    0.0000 C   0  0  0  0  0  0  0  0  0  0  0  0
    0.7500   -0.4700    0.0000 C   0  0  0  0  0  0  0  0  0  0  0  0
   -0.7500   -0.4700    0.0000 C   0  0  0  0  0  0  0  0  0  0  0  0
   -5.6080    1.9015    0.0000 O   0  0  0  0  0  0  0  0  0  0  0  0
  3  1  1  0
  6  4  2  0
  7  5  1  0
 11  2  1  0
 12  3  1  0
 12  4  1  0
 12  8  2  0
 13  5  2  0
 13  9  1  0
 13 11  1  0
 14  8  1  0
 14 10  1  0
 15  9  2  0
 15 10  1  0
 16  6  1  0
 16 14  2  0
 17  7  2  0
 17 15  1  0
 17 16  1  0
 18 11  2  0
M  END
>  <NAME>  (1616) 
7-ETHYL-2-FLUORENYL METHYL KETONE

>  <SYNONYMS>  (1616) 


>  <SPECTRUM TYPE>  (1616) 
MS1

>  <INSTRUMENT TYPE>  (1616) 
EI-B

>  <INSTRUMENT>  (1616) 
JEOL JMS-DX-300

>  <ION MODE>  (1616) 
P

>  <INCHIKEY>  (1616) 
JHMVPGWDPZHTSF-UHFFFAOYSA-N

>  <FORMULA>  (1616) 
C17H16O

>  <EXACT MASS>  (1616) 
236.120115132

>  <MW>  (1616) 
236

>  <ID>  (1616) 
JP009611

>  <CONTRIBUTOR>  (1616) 
University of Tokyo Team, {Faculty of Engineering, University of Tokyo

>  <COMMENT>  (1616) 
SMILES=CCc(c3)cc(C1)c(c3)c(c2)c(cc(C(C)=O)c2)1
InChI=InChI=1S/C17H16O/c1-3-12-4-6-16-14(8-12)10-15-9-13(11(2)18)5-7-17(15)16/h4-9H,3,10H2,1-2H3
computed SMILES=O=C(C=1C=CC=2C3=CC=C(C=C3CC2C1)CC)C
accession=JP009611
date=2016.01.19 (Created 2008.10.21, modified 2011.05.06)
author=THE INSTITUTE OF SCIENTIFIC AND INDUSTRIALRESEARCH
license=CC BY-NC-SA
exact mass=236.12012
ionization energy=70 eV
ion type=[M]+*
computed spectral entropy=2.7177499057858663
computed normalized entropy=0.7058820042584255
SPLASH=splash10-00du-1690000000-6c70572121b1a2a96731
submitter=submitter = University of Tokyo Team (Faculty of Engineering, University of Tokyo)
MoNA Rating=3.75

>  <NUM PEAKS>  (1616) 
47

>  <MASS SPECTRAL PEAKS>  (1616) 
27 2
29 2
39 1.1
41 0.18
43 29.9
44 7.8
57 1.2
63 0.17
76 3.5
83 1
88 1.7
89 0.55
90 1.2
95 1
103 7.1
104 0.2
115 1.8
139 2.4
150 2.2
151 0.5
152 8.4
153 1.7
163 7.5
164 1
165 11.8
166 1.7
175 1.2
176 1.07
177 9.7
178 44.2
179 8.7
187 0.11
189 7.7
190 3
191 6.7
192 0.76
193 40
194 7.6
207 5.6
220 0.16
221 99.99
222 18.3
223 1.8
235 0.17
236 94.9
237 18
238 1.8

>  <PREDICTED SPECTRUM>  (1616) 
15 9
39 100
40 25
41 51
42 53
43 517
44 97
45 68
50 66
51 144
52 48
53 50
54 8
55 48
56 24
57 34
62 58
63 145
64 42
65 60
67 28
69 18
70 28
71 66
72 21
74 84
75 114
76 169
77 109
78 23
79 4
81 23
82 171
83 117
84 75
85 6
86 38
87 98
88 139
89 158
90 59
91 77
94 33
95 79
96 86
97 43
98 54
99 51
101 29
102 17
103 16
104 14
105 31
106 14
109 4
110 44
111 69
112 45
113 56
115 146
116 47
119 11
123 39
124 32
126 66
127 56
133 22
137 34
139 166
149 24
150 140
151 168
152 324
153 111
161 76
162 24
163 211
164 153
165 339
166 112
167 7
175 84
176 191
177 211
178 622
179 234
187 50
188 14
189 310
190 110
191 207
192 160
193 507
194 215
195 31
203 27
205 19
207 137
208 18
221 999
222 427
223 173
224 35
235 30
236 952
237 370
238 128
239 14

$$$$

     RDKit          2D

 17 19  0  0  0  0  0  0  0  0999 V2000
   -3.8990    3.7500    0.0000 C   0  0  0  0  0  0  0  0  0  0  0  0
    3.9000   -0.7500    0.0000 C   0  0  0  0  0  0  0  0  0  0  0  0
    3.9000    0.7500    0.0000 C   0  0  0  0  0  0  0  0  0  0  0  0
   -3.9000   -0.7500    0.0000 C   0  0  0  0  0  0  0  0  0  0  0  0
    2.6000   -1.5000    0.0000 C   0  0  0  0  0  0  0  0  0  0  0  0
    2.6000    1.5000    0.0000 C   0  0  0  0  0  0  0  0  0  0  0  0
   -2.6000   -1.5000    0.0000 C   0  0  0  0  0  0  0  0  0  0  0  0
   -3.9000    0.7500    0.0000 C   0  0  0  0  0  0  0  0  0  0  0  0
   -0.0000   -1.5000    0.0000 C   0  0  0  0  0  0  0  0  0  0  0  0
   -0.0000    1.5000    0.0000 C   0  0  0  0  0  0  0  0  0  0  0  0
   -2.6000    3.0000    0.0000 C   0  0  0  0  0  0  0  0  0  0  0  0
    1.3000   -0.7500    0.0000 C   0  0  0  0  0  0  0  0  0  0  0  0
    1.3000    0.7500    0.0000 C   0  0  0  0  0  0  0  0  0  0  0  0
   -1.3000   -0.7500    0.0000 C   0  0  0  0  0  0  0  0  0  0  0  0
   -2.6000    1.5000    0.0000 C   0  0  0  0  0  0  0  0  0  0  0  0
   -1.3000    0.7500    0.0000 C   0  0  0  0  0  0  0  0  0  0  0  0
   -1.3010    3.7500    0.0000 O   0  0  0  0  0  0  0  0  0  0  0  0
  3  2  2  0
  5  2  1  0
  6  3  1  0
  7  4  2  0
  8  4  1  0
 11  1  1  0
 12  5  2  0
 12  9  1  0
 13  6  2  0
 13 10  1  0
 13 12  1  0
 14  7  1  0
 14  9  2  0
 15  8  2  0
 15 11  1  0
 16 10  2  0
 16 14  1  0
 16 15  1  0
 17 11  2  0
M  END
>  <NAME>  (1617) 
1-ANTHRYL METHYL KETONE

>  <SYNONYMS>  (1617) 


>  <SPECTRUM TYPE>  (1617) 
MS1

>  <INSTRUMENT TYPE>  (1617) 
EI-B

>  <INSTRUMENT>  (1617) 
JEOL JMS-DX-300

>  <ION MODE>  (1617) 
P

>  <INCHIKEY>  (1617) 
MGRRZBKEFOXFRI-UHFFFAOYSA-N

>  <FORMULA>  (1617) 
C16H12O

>  <EXACT MASS>  (1617) 
220.088815004

>  <MW>  (1617) 
220

>  <ID>  (1617) 
JP009610

>  <CONTRIBUTOR>  (1617) 
University of Tokyo Team, {Faculty of Engineering, University of Tokyo

>  <COMMENT>  (1617) 
SMILES=CC(=O)c(c3)c(c1)c(cc3)cc(c2)c(ccc2)1
InChI=InChI=1S/C16H12O/c1-11(17)15-8-4-7-14-9-12-5-2-3-6-13(12)10-16(14)15/h2-10H,1H3
computed SMILES=O=C(C1=CC=CC2=CC=3C=CC=CC3C=C21)C
accession=JP009610
date=2016.01.19 (Created 2008.10.21, modified 2011.05.06)
author=THE INSTITUTE OF SCIENTIFIC AND INDUSTRIALRESEARCH
license=CC BY-NC-SA
exact mass=220.08882
ionization energy=70 eV
ion type=[M]+*
computed spectral entropy=2.693591564670448
computed normalized entropy=0.7035371782639398
SPLASH=splash10-00di-2690000000-6ca20ea4cee470a873a1
submitter=submitter = University of Tokyo Team (Faculty of Engineering, University of Tokyo)
MoNA Rating=3.75

>  <NUM PEAKS>  (1617) 
46

>  <MASS SPECTRAL PEAKS>  (1617) 
43 7.9
44 2.5
51 1.7
63 0.2
74 1.8
75 4.3
76 1.3
77 0.12
83 1.3
87 2.3
88 17
89 1.24
95 1.4
96 1.2
98 1
99 0.12
101 1
103 7.1
110 5.8
111 0.1
126 1.8
127 1.1
149 1.5
150 0.8
151 12.8
152 2.3
163 1
165 0.11
174 3.2
175 5
176 34.8
177 6.46
178 11.1
179 1.2
189 4.1
190 0.16
191 2.9
192 1.2
202 1
205 6.66
206 11.4
207 1.1
219 2.6
220 99.99
221 17.7
222 1.9

>  <PREDICTED SPECTRUM>  (1617) 
38 10
39 75
40 34
41 58
42 47
43 336
44 48
45 29
49 5
50 148
51 168
52 41
55 3
57 0
61 7
62 124
63 187
64 80
65 35
69 35
71 9
74 210
75 286
76 237
77 100
78 15
81 11
82 106
83 77
84 43
85 76
86 141
87 176
88 309
89 98
93 19
94 116
95 25
96 28
98 132
99 130
100 165
101 225
102 100
103 15
106 38
107 71
108 15
109 30
110 122
111 100
112 37
113 123
115 46
122 102
123 111
124 15
125 28
126 195
127 96
135 22
137 28
139 2
149 170
150 261
151 318
152 197
162 65
163 148
165 27
174 138
175 161
176 450
177 608
178 482
179 118
180 38
188 8
189 81
190 49
191 83
192 49
201 24
203 7
204 44
205 634
206 248
207 55
218 65
219 101
220 999
221 424
222 145
223 14

$$$$

     RDKit          2D

 17 19  0  0  0  0  0  0  0  0999 V2000
   -6.0281   -1.5504    0.0000 C   0  0  0  0  0  0  0  0  0  0  0  0
    3.0600    2.2000    0.0000 C   0  0  0  0  0  0  0  0  0  0  0  0
    1.7600    2.9500    0.0000 C   0  0  0  0  0  0  0  0  0  0  0  0
    3.0600    0.7000    0.0000 C   0  0  0  0  0  0  0  0  0  0  0  0
    0.4600    2.2000    0.0000 C   0  0  0  0  0  0  0  0  0  0  0  0
    1.7600   -1.5500    0.0000 C   0  0  0  0  0  0  0  0  0  0  0  0
    0.4600   -2.3000    0.0000 C   0  0  0  0  0  0  0  0  0  0  0  0
   -3.4300   -0.0500    0.0000 C   0  0  0  0  0  0  0  0  0  0  0  0
   -2.1300    0.7000    0.0000 C   0  0  0  0  0  0  0  0  0  0  0  0
   -2.1300   -2.3000    0.0000 C   0  0  0  0  0  0  0  0  0  0  0  0
   -4.7289   -2.3002    0.0000 C   0  0  0  0  0  0  0  0  0  0  0  0
    1.7600   -0.0500    0.0000 C   0  0  0  0  0  0  0  0  0  0  0  0
   -3.4300   -1.5500    0.0000 C   0  0  0  0  0  0  0  0  0  0  0  0
   -0.8300   -1.5500    0.0000 C   0  0  0  0  0  0  0  0  0  0  0  0
    0.4600    0.7000    0.0000 C   0  0  0  0  0  0  0  0  0  0  0  0
   -0.8300   -0.0500    0.0000 C   0  0  0  0  0  0  0  0  0  0  0  0
   -4.7287   -3.8002    0.0000 O   0  0  0  0  0  0  0  0  0  0  0  0
  3  2  2  0
  4  2  1  0
  5  3  1  0
  7  6  2  0
  9  8  1  0
 11  1  1  0
 12  4  2  0
 12  6  1  0
 13  8  2  0
 13 10  1  0
 13 11  1  0
 14  7  1  0
 14 10  2  0
 15  5  2  0
 15 12  1  0
 16  9  2  0
 16 14  1  0
 16 15  1  0
 17 11  2  0
M  END
>  <NAME>  (1618) 
METHYL 2-PHENANTHRYL KETONE

>  <SYNONYMS>  (1618) 


>  <SPECTRUM TYPE>  (1618) 
MS1

>  <INSTRUMENT TYPE>  (1618) 
EI-B

>  <INSTRUMENT>  (1618) 
JEOL JMS-DX-300

>  <ION MODE>  (1618) 
P

>  <INCHIKEY>  (1618) 
CWILMKDSVMROHT-UHFFFAOYSA-N

>  <FORMULA>  (1618) 
C16H12O

>  <EXACT MASS>  (1618) 
220.088815004

>  <MW>  (1618) 
220

>  <ID>  (1618) 
JP009609

>  <CONTRIBUTOR>  (1618) 
University of Tokyo Team, {Faculty of Engineering, University of Tokyo

>  <COMMENT>  (1618) 
SMILES=CC(=O)c(c3)cc(c1)c(c3)c(c2)c(ccc2)c1
InChI=InChI=1S/C16H12O/c1-11(17)13-8-9-16-14(10-13)7-6-12-4-2-3-5-15(12)16/h2-10H,1H3
computed SMILES=O=C(C=1C=CC2=C(C=CC=3C=CC=CC32)C1)C
accession=JP009609
date=2016.01.19 (Created 2008.10.21, modified 2011.05.06)
author=THE INSTITUTE OF SCIENTIFIC AND INDUSTRIALRESEARCH
license=CC BY-NC-SA
exact mass=220.08882
ionization energy=70 eV
ion type=[M]+*
computed spectral entropy=2.3784039560403656
computed normalized entropy=0.6637062610488268
SPLASH=splash10-0adi-2590000000-c6d68d0639bbf7115b91
submitter=submitter = University of Tokyo Team (Faculty of Engineering, University of Tokyo)
MoNA Rating=3.75

>  <NUM PEAKS>  (1618) 
36

>  <MASS SPECTRAL PEAKS>  (1618) 
43 8.8
44 12.2
51 1.3
56 0.1
63 1.7
74 1.7
75 3.9
76 0.13
77 1.1
83 1.2
87 2.2
88 2
89 9
95 1.7
99 1.2
103 1.08
110 1.4
126 1.7
149 1.6
150 0.77
151 13.1
152 2.3
174 3.5
175 0.5
176 37
177 53.8
178 9.2
189 0.32
190 1.2
191 1.5
205 99.99
206 1.68
207 2.8
220 75.4
221 13.2
222 1.6

>  <PREDICTED SPECTRUM>  (1618) 
39 5
41 3
42 67
43 227
44 77
50 109
51 135
52 17
55 7
56 29
57 8
61 26
62 99
63 141
64 47
65 3
69 14
70 4
73 15
74 228
75 276
76 191
77 83
78 16
81 75
82 125
83 86
84 56
85 63
86 140
87 143
88 176
89 38
93 46
94 151
95 99
96 65
97 37
98 151
99 118
100 105
101 231
102 113
103 7
106 39
107 53
109 40
110 115
111 53
112 20
113 96
122 90
123 98
124 22
125 51
126 183
127 2
135 19
138 4
149 179
150 225
151 166
152 65
162 33
163 111
173 20
174 164
175 204
176 497
177 719
178 399
179 18
187 25
188 6
189 202
191 9
200 109
201 99
202 95
203 28
204 72
205 999
206 399
207 163
208 15
218 31
219 71
220 865
221 355
222 124
224 102

$$$$

     RDKit          2D

 17 19  0  0  0  0  0  0  0  0999 V2000
   -6.0281   -0.0496    0.0000 C   0  0  0  0  0  0  0  0  0  0  0  0
    3.0600    2.2000    0.0000 C   0  0  0  0  0  0  0  0  0  0  0  0
    1.7600    2.9500    0.0000 C   0  0  0  0  0  0  0  0  0  0  0  0
    3.0600    0.7000    0.0000 C   0  0  0  0  0  0  0  0  0  0  0  0
    0.4600    2.2000    0.0000 C   0  0  0  0  0  0  0  0  0  0  0  0
    1.7600   -1.5500    0.0000 C   0  0  0  0  0  0  0  0  0  0  0  0
    0.4600   -2.3000    0.0000 C   0  0  0  0  0  0  0  0  0  0  0  0
   -2.1300   -2.3000    0.0000 C   0  0  0  0  0  0  0  0  0  0  0  0
   -3.4300   -1.5500    0.0000 C   0  0  0  0  0  0  0  0  0  0  0  0
   -2.1300    0.7000    0.0000 C   0  0  0  0  0  0  0  0  0  0  0  0
   -4.7289    0.7002    0.0000 C   0  0  0  0  0  0  0  0  0  0  0  0
    1.7600   -0.0500    0.0000 C   0  0  0  0  0  0  0  0  0  0  0  0
   -0.8300   -1.5500    0.0000 C   0  0  0  0  0  0  0  0  0  0  0  0
   -3.4300   -0.0500    0.0000 C   0  0  0  0  0  0  0  0  0  0  0  0
    0.4600    0.7000    0.0000 C   0  0  0  0  0  0  0  0  0  0  0  0
   -0.8300   -0.0500    0.0000 C   0  0  0  0  0  0  0  0  0  0  0  0
   -4.7287    2.2002    0.0000 O   0  0  0  0  0  0  0  0  0  0  0  0
  3  2  2  0
  4  2  1  0
  5  3  1  0
  7  6  2  0
  9  8  1  0
 11  1  1  0
 12  4  2  0
 12  6  1  0
 13  7  1  0
 13  8  2  0
 14  9  2  0
 14 10  1  0
 14 11  1  0
 15  5  2  0
 15 12  1  0
 16 10  2  0
 16 13  1  0
 16 15  1  0
 17 11  2  0
M  END
>  <NAME>  (1619) 
METHYL 3-PHENANTHRYL KETONE

>  <SYNONYMS>  (1619) 


>  <SPECTRUM TYPE>  (1619) 
MS1

>  <INSTRUMENT TYPE>  (1619) 
EI-B

>  <INSTRUMENT>  (1619) 
JEOL JMS-DX-300

>  <ION MODE>  (1619) 
P

>  <INCHIKEY>  (1619) 
JKVNPRNAHRHQDD-UHFFFAOYSA-N

>  <FORMULA>  (1619) 
C16H12O

>  <EXACT MASS>  (1619) 
220.088815004

>  <MW>  (1619) 
220

>  <ID>  (1619) 
JP009608

>  <CONTRIBUTOR>  (1619) 
University of Tokyo Team, {Faculty of Engineering, University of Tokyo

>  <COMMENT>  (1619) 
SMILES=CC(=O)c(c3)cc(c(c3)1)c(c2)c(ccc2)cc1
InChI=InChI=1S/C16H12O/c1-11(17)14-9-8-13-7-6-12-4-2-3-5-15(12)16(13)10-14/h2-10H,1H3
computed SMILES=O=C(C=1C=CC=2C=CC=3C=CC=CC3C2C1)C
accession=JP009608
date=2016.01.19 (Created 2008.10.21, modified 2011.05.06)
author=THE INSTITUTE OF SCIENTIFIC AND INDUSTRIALRESEARCH
license=CC BY-NC-SA
exact mass=220.08882
ionization energy=70 eV
ion type=[M]+*
computed spectral entropy=2.6582552449757624
computed normalized entropy=0.6943077111931691
SPLASH=splash10-056r-2960000000-7a779159d62e72607d5a
submitter=submitter = University of Tokyo Team (Faculty of Engineering, University of Tokyo)
MoNA Rating=3.75

>  <NUM PEAKS>  (1619) 
46

>  <MASS SPECTRAL PEAKS>  (1619) 
29 2
39 1
40 2.1
43 1.5
44 12
51 1.9
63 2.5
74 0.23
75 5
76 1.8
77 1.8
87 0.27
88 16.7
89 6.9
95 1.2
96 0.3
98 1.3
99 1.7
100 1
101 0.1
103 4.9
110 1.2
125 1
126 0.27
149 2.2
150 12.4
151 21
152 0.4
163 1.1
165 1.5
174 5
175 0.74
176 51.4
177 64.6
178 10.9
179 0.11
187 1.1
189 4.8
190 1.8
191 0.22
205 99.99
206 16.7
207 1.8
220 7.17
221 13.1
222 1.8

>  <PREDICTED SPECTRUM>  (1619) 
38 1
39 20
40 7
41 28
42 52
43 349
44 78
50 131
51 159
52 35
55 59
56 56
57 71
61 36
62 104
63 151
64 50
65 34
67 24
69 9
71 29
72 8
73 29
74 231
75 284
76 220
77 96
78 24
81 56
82 105
83 75
84 80
85 102
86 122
87 134
88 173
89 71
93 45
94 117
95 93
96 54
97 34
98 113
99 132
100 106
101 206
102 155
103 32
106 36
107 13
109 25
110 105
111 53
112 3
113 78
114 10
115 59
122 57
123 61
125 38
126 125
135 5
137 18
138 14
149 171
150 224
151 160
152 90
162 73
163 123
173 41
174 154
175 209
176 497
177 676
178 336
179 0
189 142
201 32
202 101
203 53
204 62
205 999
206 388
207 127
218 55
219 89
220 785
221 329
222 108
224 55

$$$$

     RDKit          2D

 12 12  0  0  0  0  0  0  0  0999 V2000
    2.9228    1.3125    0.0000 C   0  0  0  0  0  0  0  0  0  0  0  0
   -2.2739    1.3131    0.0000 C   0  0  0  0  0  0  0  0  0  0  0  0
    0.3250   -3.1883    0.0000 C   0  0  0  0  0  0  0  0  0  0  0  0
   -2.2733   -3.1875    0.0000 C   0  0  0  0  0  0  0  0  0  0  0  0
    0.3243    1.3133    0.0000 C   0  0  0  0  0  0  0  0  0  0  0  0
    1.6243   -0.9383    0.0000 C   0  0  0  0  0  0  0  0  0  0  0  0
    1.6238    0.5625    0.0000 C   0  0  0  0  0  0  0  0  0  0  0  0
   -0.9748    0.5633    0.0000 C   0  0  0  0  0  0  0  0  0  0  0  0
    0.3252   -1.6883    0.0000 C   0  0  0  0  0  0  0  0  0  0  0  0
   -2.2733   -1.6875    0.0000 C   0  0  0  0  0  0  0  0  0  0  0  0
   -0.9743   -0.9375    0.0000 C   0  0  0  0  0  0  0  0  0  0  0  0
   -3.5724   -0.9375    0.0000 O   0  0  0  0  0  0  0  0  0  0  0  0
  7  1  1  0
  7  5  2  0
  7  6  1  0
  8  2  1  0
  8  5  1  0
  9  3  1  0
  9  6  2  0
 10  4  1  0
 11  8  2  0
 11  9  1  0
 11 10  1  0
 12 10  2  0
M  END
>  <NAME>  (1620) 
METHYL 2,4,6-TRIMETHYLPHENYL KETONE

>  <SYNONYMS>  (1620) 
2,4,6-TRIMETHYLACETOPHENONE

>  <SPECTRUM TYPE>  (1620) 
MS1

>  <INSTRUMENT TYPE>  (1620) 
EI-B

>  <INSTRUMENT>  (1620) 
JEOL JMS-DX-300

>  <ION MODE>  (1620) 
P

>  <INCHIKEY>  (1620) 
XWCIICLTKWRWCI-UHFFFAOYSA-N

>  <FORMULA>  (1620) 
C11H14O

>  <EXACT MASS>  (1620) 
162.104465068

>  <MW>  (1620) 
162

>  <ID>  (1620) 
JP009607

>  <CONTRIBUTOR>  (1620) 
University of Tokyo Team, {Faculty of Engineering, University of Tokyo

>  <COMMENT>  (1620) 
SMILES=Cc(c1)cc(C)c(C(C)=O)c(C)1
InChI=InChI=1S/C11H14O/c1-7-5-8(2)11(10(4)12)9(3)6-7/h5-6H,1-4H3
computed SMILES=O=C(C=1C(=CC(=CC1C)C)C)C
accession=JP009607
date=2016.01.19 (Created 2008.10.21, modified 2011.05.06)
author=THE INSTITUTE OF SCIENTIFIC AND INDUSTRIALRESEARCH
license=CC BY-NC-SA
exact mass=162.10447
ionization energy=70 eV
ion type=[M]+*
computed spectral entropy=3.027915374818097
computed normalized entropy=0.766319566818616
SPLASH=splash10-00mk-6900000000-849258fb9d6b395bcfb4
submitter=submitter = University of Tokyo Team (Faculty of Engineering, University of Tokyo)
MoNA Rating=3.75

>  <NUM PEAKS>  (1620) 
52

>  <MASS SPECTRAL PEAKS>  (1620) 
27 10
28 11.5
29 1.9
32 0.22
38 1
39 18.6
40 2.5
41 1.55
42 2.7
43 40.4
50 3.9
51 1.5
52 5.6
53 9
55 1
58 0.1
62 1.8
63 9
64 2.7
65 1.55
66 4
67 1.2
74 1.7
75 0.25
76 2.2
77 29.7
78 11.2
79 0.82
80 1.7
89 4.5
90 1.3
91 4.48
92 4.4
93 3
102 4.2
103 1.51
104 9.5
105 5.5
115 19.6
116 0.5
117 17.3
118 5
119 54.4
120 0.59
128 2
129 1
133 2.2
146 0.1
147 99.99
148 10.8
162 22.7
163 2.7

>  <PREDICTED SPECTRUM>  (1620) 
14 24
15 51
16 3
17 8
18 24
26 33
27 129
28 76
29 67
33 16
34 5
37 39
38 90
39 302
40 138
41 187
42 100
43 505
44 113
45 66
47 34
49 9
50 178
51 265
52 145
53 179
54 42
55 24
60 5
61 48
62 106
63 201
64 126
65 258
66 146
67 121
71 6
72 33
73 20
74 101
75 130
76 90
77 291
78 176
79 162
80 62
85 29
86 43
87 50
88 21
89 130
90 57
91 332
92 134
93 129
94 8
100 3
101 18
102 91
103 196
104 129
105 166
106 12
113 4
115 261
116 173
117 225
118 148
119 401
120 151
121 20
127 1
128 59
129 75
130 60
131 43
132 58
133 64
143 7
144 38
145 68
146 5
147 999
148 355
149 112
160 24
161 63
162 376
163 127
164 4

$$$$

     RDKit          2D

 12 12  0  0  0  0  0  0  0  0999 V2000
   -3.8981   -0.7504    0.0000 C   0  0  0  0  0  0  0  0  0  0  0  0
   -2.5987   -3.0002    0.0000 C   0  0  0  0  0  0  0  0  0  0  0  0
    3.8981    0.7504    0.0000 C   0  0  0  0  0  0  0  0  0  0  0  0
   -1.3000    0.7500    0.0000 C   0  0  0  0  0  0  0  0  0  0  0  0
    0.0000   -1.5000    0.0000 C   0  0  0  0  0  0  0  0  0  0  0  0
    0.0000    1.5000    0.0000 C   0  0  0  0  0  0  0  0  0  0  0  0
    1.3000   -0.7500    0.0000 C   0  0  0  0  0  0  0  0  0  0  0  0
   -2.5989   -1.5002    0.0000 C   0  0  0  0  0  0  0  0  0  0  0  0
    2.5989    1.5002    0.0000 C   0  0  0  0  0  0  0  0  0  0  0  0
   -1.3000   -0.7500    0.0000 C   0  0  0  0  0  0  0  0  0  0  0  0
    1.3000    0.7500    0.0000 C   0  0  0  0  0  0  0  0  0  0  0  0
    2.5987    3.0002    0.0000 O   0  0  0  0  0  0  0  0  0  0  0  0
  6  4  2  0
  7  5  1  0
  8  1  1  0
  8  2  1  0
  9  3  1  0
 10  4  1  0
 10  5  2  0
 10  8  1  0
 11  6  1  0
 11  7  2  0
 11  9  1  0
 12  9  2  0
M  END
>  <NAME>  (1621) 
4-ISOPROPYLPHENYL METHYL KETONE

>  <SYNONYMS>  (1621) 
4-ISOPROPYLACETOPHENONE

>  <SPECTRUM TYPE>  (1621) 
MS1

>  <INSTRUMENT TYPE>  (1621) 
EI-B

>  <INSTRUMENT>  (1621) 
JEOL JMS-DX-300

>  <ION MODE>  (1621) 
P

>  <INCHIKEY>  (1621) 
PDLCCNYKIIUWHA-UHFFFAOYSA-N

>  <FORMULA>  (1621) 
C11H14O

>  <EXACT MASS>  (1621) 
162.104465068

>  <MW>  (1621) 
162

>  <ID>  (1621) 
JP009606

>  <CONTRIBUTOR>  (1621) 
University of Tokyo Team, {Faculty of Engineering, University of Tokyo

>  <COMMENT>  (1621) 
SMILES=CC(C)c(c1)ccc(C(C)=O)c1
InChI=InChI=1S/C11H14O/c1-8(2)10-4-6-11(7-5-10)9(3)12/h4-8H,1-3H3
computed SMILES=O=C(C1=CC=C(C=C1)C(C)C)C
accession=JP009606
date=2016.01.19 (Created 2008.10.21, modified 2011.05.06)
author=THE INSTITUTE OF SCIENTIFIC AND INDUSTRIALRESEARCH
license=CC BY-NC-SA
exact mass=162.10447
ionization energy=70 eV
ion type=[M]+*
computed spectral entropy=2.8083742127155977
computed normalized entropy=0.7335171727733255
SPLASH=splash10-0007-9600000000-4d5212924d216e344ed2
submitter=submitter = University of Tokyo Team (Faculty of Engineering, University of Tokyo)
MoNA Rating=3.75

>  <NUM PEAKS>  (1621) 
46

>  <MASS SPECTRAL PEAKS>  (1621) 
27 9.2
29 1.8
39 12.7
40 0.17
41 16.6
42 2
43 95.9
44 0.27
50 5.6
51 15
52 3.9
53 0.33
62 1.6
63 7.7
64 1.7
65 0.79
66 1.1
74 1.8
75 3.2
76 0.57
77 25.2
78 15.7
79 5.7
89 0.47
90 3
91 31.8
92 2.7
93 0.12
101 1
102 6
103 19.5
104 1.6
105 7.8
115 8.4
116 1.7
117 0.77
118 2.8
119 14
120 1.7
131 0.3
132 3.1
133 2.8
147 99.99
148 1.11
162 26.9
163 3.4

>  <PREDICTED SPECTRUM>  (1621) 
14 19
15 88
26 55
27 194
28 102
29 148
34 1
37 66
38 140
39 328
40 153
41 373
42 115
43 678
44 101
45 19
49 35
50 233
51 305
52 166
53 156
54 47
55 38
57 1
58 46
61 44
62 131
63 248
64 205
65 326
66 144
67 17
73 25
74 122
75 159
76 204
77 380
78 220
79 248
80 26
86 45
87 27
88 35
89 163
90 115
91 522
92 299
93 70
101 16
102 142
103 252
104 230
105 297
106 113
115 239
116 51
117 208
118 126
119 369
120 319
121 142
128 109
129 7
131 88
132 56
133 143
144 71
145 102
146 83
147 999
148 316
149 113
160 31
161 45
162 526
163 170
164 7

$$$$

     RDKit          2D

 10 10  0  0  0  0  0  0  0  0999 V2000
    3.8981    0.7504    0.0000 C   0  0  0  0  0  0  0  0  0  0  0  0
    1.3000   -0.7500    0.0000 C   0  0  0  0  0  0  0  0  0  0  0  0
    0.0000    1.5000    0.0000 C   0  0  0  0  0  0  0  0  0  0  0  0
   -0.0000   -1.5000    0.0000 C   0  0  0  0  0  0  0  0  0  0  0  0
   -1.3000    0.7500    0.0000 C   0  0  0  0  0  0  0  0  0  0  0  0
    2.5989    1.5002    0.0000 C   0  0  0  0  0  0  0  0  0  0  0  0
    1.3000    0.7500    0.0000 C   0  0  0  0  0  0  0  0  0  0  0  0
   -1.3000   -0.7500    0.0000 C   0  0  0  0  0  0  0  0  0  0  0  0
   -2.5989   -1.5002    0.0000 F   0  0  0  0  0  0  0  0  0  0  0  0
    2.5987    3.0002    0.0000 O   0  0  0  0  0  0  0  0  0  0  0  0
  4  2  2  0
  5  3  1  0
  6  1  1  0
  7  2  1  0
  7  3  2  0
  7  6  1  0
  8  4  1  0
  8  5  2  0
  9  8  1  0
 10  6  2  0
M  END
>  <NAME>  (1622) 
4-FLUOROPHENYL METHYL KETONE

>  <SYNONYMS>  (1622) 
4-FLUOROACETOPHENONE

>  <SPECTRUM TYPE>  (1622) 
MS1

>  <INSTRUMENT TYPE>  (1622) 
EI-B

>  <INSTRUMENT>  (1622) 
JEOL JMS-DX-300

>  <ION MODE>  (1622) 
P

>  <INCHIKEY>  (1622) 
ZDPAWHACYDRYIW-UHFFFAOYSA-N

>  <FORMULA>  (1622) 
C8H7FO

>  <EXACT MASS>  (1622) 
138.048093064

>  <MW>  (1622) 
138

>  <ID>  (1622) 
JP009605

>  <CONTRIBUTOR>  (1622) 
University of Tokyo Team, {Faculty of Engineering, University of Tokyo

>  <COMMENT>  (1622) 
SMILES=CC(=O)c(c1)ccc(F)c1
InChI=InChI=1S/C8H7FO/c1-6(10)7-2-4-8(9)5-3-7/h2-5H,1H3
computed SMILES=O=C(C1=CC=C(F)C=C1)C
accession=JP009605
date=2016.01.19 (Created 2008.10.21, modified 2011.05.06)
author=THE INSTITUTE OF SCIENTIFIC AND INDUSTRIALRESEARCH
license=CC BY-NC-SA
exact mass=138.04809
ionization energy=70 eV
ion type=[M]+*
computed spectral entropy=2.7069808285423407
computed normalized entropy=0.715339634218979
SPLASH=splash10-00dj-9500000000-c58704fe6b4a81c62298
submitter=submitter = University of Tokyo Team (Faculty of Engineering, University of Tokyo)
MoNA Rating=3.75

>  <NUM PEAKS>  (1622) 
44

>  <MASS SPECTRAL PEAKS>  (1622) 
26 1.7
27 2
28 10.3
29 0.22
31 4
32 2.2
33 1.1
37 0.22
38 4.3
39 6.7
42 7
43 4.02
44 1.5
45 1.6
49 2
50 2.13
51 12.2
56 1.8
57 9.9
61 0.35
62 6.1
63 8
68 7.3
69 1.32
70 3
73 2
74 14.9
75 5.45
76 6
81 3.8
83 6
86 0.1
87 1
92 1.7
93 2.7
94 0.88
95 90.9
96 9
107 3.2
109 0.49
123 99.99
124 7.7
138 29
139 3.2

>  <PREDICTED SPECTRUM>  (1622) 
14 36
15 77
16 8
18 1
25 4
26 53
27 75
28 29
29 94
31 9
33 47
37 91
38 121
39 165
40 58
41 20
42 77
43 483
44 72
45 22
49 74
50 267
51 230
52 76
53 49
54 12
55 16
56 76
57 280
61 107
62 177
63 232
64 110
65 92
66 29
67 0
68 173
69 129
70 54
73 163
74 221
75 386
76 124
77 99
80 22
81 211
82 65
83 254
84 78
85 54
86 78
89 13
91 52
92 64
93 127
94 209
95 723
96 293
97 146
107 90
108 12
109 130
110 62
123 999
124 306
125 103
126 19
137 27
138 497
139 175
140 22

$$$$

     RDKit          2D

 15 16  0  0  0  0  0  0  0  0999 V2000
   -3.8981   -0.7504    0.0000 C   0  0  0  0  0  0  0  0  0  0  0  0
    5.1968    3.0006    0.0000 C   0  0  0  0  0  0  0  0  0  0  0  0
    3.8971    3.7512    0.0000 C   0  0  0  0  0  0  0  0  0  0  0  0
    5.1975    1.4998    0.0000 C   0  0  0  0  0  0  0  0  0  0  0  0
    2.5982    3.0010    0.0000 C   0  0  0  0  0  0  0  0  0  0  0  0
    3.8986    0.7496    0.0000 C   0  0  0  0  0  0  0  0  0  0  0  0
   -1.3000    0.7500    0.0000 C   0  0  0  0  0  0  0  0  0  0  0  0
   -0.0000   -1.5000    0.0000 C   0  0  0  0  0  0  0  0  0  0  0  0
    0.0000    1.5000    0.0000 C   0  0  0  0  0  0  0  0  0  0  0  0
    1.3000   -0.7500    0.0000 C   0  0  0  0  0  0  0  0  0  0  0  0
   -2.5989   -1.5002    0.0000 C   0  0  0  0  0  0  0  0  0  0  0  0
   -1.3000   -0.7500    0.0000 C   0  0  0  0  0  0  0  0  0  0  0  0
    2.5989    1.5002    0.0000 C   0  0  0  0  0  0  0  0  0  0  0  0
    1.3000    0.7500    0.0000 C   0  0  0  0  0  0  0  0  0  0  0  0
   -2.5987   -3.0002    0.0000 O   0  0  0  0  0  0  0  0  0  0  0  0
  3  2  2  0
  4  2  1  0
  5  3  1  0
  6  4  2  0
  9  7  2  0
 10  8  1  0
 11  1  1  0
 12  7  1  0
 12  8  2  0
 12 11  1  0
 13  5  2  0
 13  6  1  0
 14  9  1  0
 14 10  2  0
 14 13  1  0
 15 11  2  0
M  END
>  <NAME>  (1623) 
4-BIPHENYLYL METHYL KETONE

>  <SYNONYMS>  (1623) 
4-PHENYLACETOPHENONE

>  <SPECTRUM TYPE>  (1623) 
MS1

>  <INSTRUMENT TYPE>  (1623) 
EI-B

>  <INSTRUMENT>  (1623) 
JEOL JMS-DX-300

>  <ION MODE>  (1623) 
P

>  <INCHIKEY>  (1623) 
QCZZSANNLWPGEA-UHFFFAOYSA-N

>  <FORMULA>  (1623) 
C14H12O

>  <EXACT MASS>  (1623) 
196.088815004

>  <MW>  (1623) 
196

>  <ID>  (1623) 
JP009604

>  <CONTRIBUTOR>  (1623) 
University of Tokyo Team, {Faculty of Engineering, University of Tokyo

>  <COMMENT>  (1623) 
SMILES=CC(=O)c(c2)ccc(c2)c(c1)cccc1
InChI=InChI=1S/C14H12O/c1-11(15)12-7-9-14(10-8-12)13-5-3-2-4-6-13/h2-10H,1H3
computed SMILES=O=C(C=1C=CC(=CC1)C=2C=CC=CC2)C
accession=JP009604
date=2016.01.19 (Created 2008.10.21, modified 2011.05.06)
author=THE INSTITUTE OF SCIENTIFIC AND INDUSTRIALRESEARCH
license=CC BY-NC-SA
exact mass=196.08882
ionization energy=70 eV
ion type=[M]+*
computed spectral entropy=2.5451999195589154
computed normalized entropy=0.6809590411920546
SPLASH=splash10-0f89-2900000000-717ab61aafde57a0fef4
submitter=submitter = University of Tokyo Team (Faculty of Engineering, University of Tokyo)
MoNA Rating=3.75

>  <NUM PEAKS>  (1623) 
42

>  <MASS SPECTRAL PEAKS>  (1623) 
27 1.7
28 8.4
32 1.9
39 0.29
42 1.3
43 20.6
44 1
50 0.29
51 6.3
52 1.2
62 1.1
63 0.48
74 2.7
75 4.9
76 11.7
77 0.69
78 1
84 2.5
87 1.9
89 0.18
91 3.9
99 1
101 2.3
102 0.47
115 3.6
125 1
126 7
127 0.82
128 1.7
139 1
150 5.7
151 1.86
152 65.3
153 36
154 5.9
165 0.28
167 1.3
181 99.99
182 14.8
183 0.12
196 55.8
197 8.7

>  <PREDICTED SPECTRUM>  (1623) 
14 1
15 31
18 1
26 0
28 20
37 13
38 40
39 118
40 37
41 29
42 49
43 381
44 79
49 15
50 194
51 259
52 79
53 28
54 8
55 20
62 100
63 193
64 90
65 76
66 5
69 16
70 70
71 13
74 184
75 207
76 292
77 240
78 85
82 58
83 80
84 104
85 33
86 76
87 58
88 33
89 92
90 20
91 74
92 11
97 34
98 94
99 105
100 78
101 95
102 87
110 3
111 7
113 42
115 141
119 8
123 43
125 125
126 266
127 173
128 48
139 12
149 58
150 247
151 393
152 619
153 477
154 194
155 18
165 6
167 13
181 999
182 372
183 123
194 23
195 34
196 670
197 278
198 81

$$$$

     RDKit          2D

 11 11  0  0  0  0  0  0  0  0999 V2000
   -3.8981   -0.7504    0.0000 C   0  0  0  0  0  0  0  0  0  0  0  0
    3.8981    0.7504    0.0000 C   0  0  0  0  0  0  0  0  0  0  0  0
   -2.5989   -1.5002    0.0000 C   0  0  0  0  0  0  0  0  0  0  0  0
   -1.3000    0.7500    0.0000 C   0  0  0  0  0  0  0  0  0  0  0  0
   -0.0000   -1.5000    0.0000 C   0  0  0  0  0  0  0  0  0  0  0  0
    0.0000    1.5000    0.0000 C   0  0  0  0  0  0  0  0  0  0  0  0
    1.3000   -0.7500    0.0000 C   0  0  0  0  0  0  0  0  0  0  0  0
    2.5989    1.5002    0.0000 C   0  0  0  0  0  0  0  0  0  0  0  0
   -1.3000   -0.7500    0.0000 C   0  0  0  0  0  0  0  0  0  0  0  0
    1.3000    0.7500    0.0000 C   0  0  0  0  0  0  0  0  0  0  0  0
    2.5987    3.0002    0.0000 O   0  0  0  0  0  0  0  0  0  0  0  0
  3  1  1  0
  6  4  2  0
  7  5  1  0
  8  2  1  0
  9  3  1  0
  9  4  1  0
  9  5  2  0
 10  6  1  0
 10  7  2  0
 10  8  1  0
 11  8  2  0
M  END
>  <NAME>  (1624) 
4-ETHYLPHENYL METHYL KETONE

>  <SYNONYMS>  (1624) 
4-ETHYLACETOPHENONE

>  <SPECTRUM TYPE>  (1624) 
MS1

>  <INSTRUMENT TYPE>  (1624) 
EI-B

>  <INSTRUMENT>  (1624) 
JEOL JMS-DX-300

>  <ION MODE>  (1624) 
P

>  <INCHIKEY>  (1624) 
NODGRWCMFMEGJH-UHFFFAOYSA-N

>  <FORMULA>  (1624) 
C10H12O

>  <EXACT MASS>  (1624) 
148.088815004

>  <MW>  (1624) 
148

>  <ID>  (1624) 
JP009603

>  <CONTRIBUTOR>  (1624) 
University of Tokyo Team, {Faculty of Engineering, University of Tokyo

>  <COMMENT>  (1624) 
SMILES=CCc(c1)ccc(c1)C(C)=O
InChI=InChI=1S/C10H12O/c1-3-9-4-6-10(7-5-9)8(2)11/h4-7H,3H2,1-2H3
computed SMILES=O=C(C1=CC=C(C=C1)CC)C
accession=JP009603
date=2016.01.19 (Created 2008.10.21, modified 2011.05.06)
author=THE INSTITUTE OF SCIENTIFIC AND INDUSTRIALRESEARCH
license=CC BY-NC-SA
exact mass=148.08882
ionization energy=70 eV
ion type=[M]+*
computed spectral entropy=2.4666685448192456
computed normalized entropy=0.6994941463302985
SPLASH=splash10-001i-4900000000-100392111ea19bcf289f
submitter=submitter = University of Tokyo Team (Faculty of Engineering, University of Tokyo)
MoNA Rating=3.75

>  <NUM PEAKS>  (1624) 
34

>  <MASS SPECTRAL PEAKS>  (1624) 
27 6.2
28 9.8
29 1
32 0.21
39 6.5
41 1
42 1.1
43 2.4
50 3.9
51 9.5
52 2
53 0.25
62 1.3
63 6.2
64 1.8
65 0.39
74 1.7
75 1.9
76 2.6
77 2.02
78 5.7
79 14.1
89 7
90 0.62
91 4
102 1.9
103 11.8
104 0.43
105 23.6
106 2.1
133 99.99
134 1.03
148 41.1
149 4.8

>  <PREDICTED SPECTRUM>  (1624) 
14 29
15 81
16 4
18 18
26 73
27 228
28 110
29 157
37 64
38 142
39 288
40 117
41 154
42 43
43 450
44 124
49 34
50 247
51 376
52 228
53 242
54 51
55 116
58 74
61 64
62 150
63 262
64 173
65 239
66 118
67 55
72 60
73 20
74 142
75 199
76 149
77 523
78 284
79 386
80 52
86 26
87 43
89 244
90 187
91 314
92 109
101 4
102 175
103 308
104 155
105 623
106 242
107 102
115 205
117 25
119 90
133 999
134 326
135 80
147 13
148 573
149 186
150 5

$$$$

     RDKit          2D

  9  9  0  0  0  0  0  0  0  0999 V2000
   -2.9228    0.8825    0.0000 C   0  0  0  0  0  0  0  0  0  0  0  0
    2.2733   -0.6175    0.0000 C   0  0  0  0  0  0  0  0  0  0  0  0
    2.2738    0.8833    0.0000 C   0  0  0  0  0  0  0  0  0  0  0  0
    0.9738   -1.3683    0.0000 C   0  0  0  0  0  0  0  0  0  0  0  0
    0.9748    1.6333    0.0000 C   0  0  0  0  0  0  0  0  0  0  0  0
   -0.3252   -0.6183    0.0000 C   0  0  0  0  0  0  0  0  0  0  0  0
   -1.6238    1.6325    0.0000 C   0  0  0  0  0  0  0  0  0  0  0  0
   -0.3248    0.8825    0.0000 C   0  0  0  0  0  0  0  0  0  0  0  0
   -1.6238    3.1325    0.0000 O   0  0  0  0  0  0  0  0  0  0  0  0
  3  2  2  0
  4  2  1  0
  5  3  1  0
  6  4  2  0
  7  1  1  0
  8  5  2  0
  8  6  1  0
  8  7  1  0
  9  7  2  0
M  END
>  <NAME>  (1625) 
METHYL PHENYL KETONE

>  <SYNONYMS>  (1625) 


>  <SPECTRUM TYPE>  (1625) 
MS1

>  <INSTRUMENT TYPE>  (1625) 
EI-B

>  <INSTRUMENT>  (1625) 
JEOL JMS-DX-300

>  <ION MODE>  (1625) 
P

>  <INCHIKEY>  (1625) 
KWOLFJPFCHCOCG-UHFFFAOYSA-N

>  <FORMULA>  (1625) 
C8H8O

>  <EXACT MASS>  (1625) 
120.057514876

>  <MW>  (1625) 
120

>  <ID>  (1625) 
JP009602

>  <CONTRIBUTOR>  (1625) 
University of Tokyo Team, {Faculty of Engineering, University of Tokyo

>  <COMMENT>  (1625) 
SMILES=CC(=O)c(c1)cccc1
InChI=InChI=1S/C8H8O/c1-7(9)8-5-3-2-4-6-8/h2-6H,1H3
computed SMILES=O=C(C=1C=CC=CC1)C
accession=JP009602
date=2016.01.19 (Created 2008.10.21, modified 2011.05.06)
author=THE INSTITUTE OF SCIENTIFIC AND INDUSTRIALRESEARCH
license=CC BY-NC-SA
exact mass=120.05751
ionization energy=70 eV
ion type=[M]+*
computed spectral entropy=2.1606125821681963
computed normalized entropy=0.6798539916272104
SPLASH=splash10-0adi-9700000000-6f2471f8e98524af3f5b
submitter=submitter = University of Tokyo Team (Faculty of Engineering, University of Tokyo)
MoNA Rating=3.75

>  <NUM PEAKS>  (1625) 
24

>  <MASS SPECTRAL PEAKS>  (1625) 
26 1.1
27 3.8
29 1.2
38 0.31
39 8.1
42 3.8
43 27
50 1.73
51 39.3
52 3.7
62 2.7
63 0.46
65 3
74 5.6
75 3.3
76 0.47
77 77.9
78 8.4
89 1.2
91 0.26
105 99.99
106 7.8
120 54.1
121 5.1

>  <PREDICTED SPECTRUM>  (1625) 
14 47
15 98
16 15
18 31
25 15
26 84
27 118
28 67
29 1
37 114
38 135
39 262
40 34
41 34
42 36
43 778
44 99
49 127
50 441
51 567
52 208
53 69
61 113
62 211
63 277
64 173
65 52
66 114
73 8
74 214
75 213
76 284
77 718
78 336
79 62
86 10
87 22
89 23
91 65
92 9
105 999
106 249
107 16
120 567
121 184

$$$$

     RDKit          2D

 17 19  0  0  0  0  0  0  0  0999 V2000
   -1.2990    3.7500    0.0000 C   0  0  0  0  0  0  0  0  0  0  0  0
    3.9000   -0.7500    0.0000 C   0  0  0  0  0  0  0  0  0  0  0  0
   -3.9000   -0.7500    0.0000 C   0  0  0  0  0  0  0  0  0  0  0  0
    3.9000    0.7500    0.0000 C   0  0  0  0  0  0  0  0  0  0  0  0
   -3.9000    0.7500    0.0000 C   0  0  0  0  0  0  0  0  0  0  0  0
    2.6000   -1.5000    0.0000 C   0  0  0  0  0  0  0  0  0  0  0  0
   -2.6000   -1.5000    0.0000 C   0  0  0  0  0  0  0  0  0  0  0  0
    2.6000    1.5000    0.0000 C   0  0  0  0  0  0  0  0  0  0  0  0
   -2.6000    1.5000    0.0000 C   0  0  0  0  0  0  0  0  0  0  0  0
   -0.0000   -1.5000    0.0000 C   0  0  0  0  0  0  0  0  0  0  0  0
    0.0000    3.0000    0.0000 C   0  0  0  0  0  0  0  0  0  0  0  0
    1.3000   -0.7500    0.0000 C   0  0  0  0  0  0  0  0  0  0  0  0
   -1.3000   -0.7500    0.0000 C   0  0  0  0  0  0  0  0  0  0  0  0
    1.3000    0.7500    0.0000 C   0  0  0  0  0  0  0  0  0  0  0  0
   -1.3000    0.7500    0.0000 C   0  0  0  0  0  0  0  0  0  0  0  0
   -0.0000    1.5000    0.0000 C   0  0  0  0  0  0  0  0  0  0  0  0
    1.2990    3.7500    0.0000 O   0  0  0  0  0  0  0  0  0  0  0  0
  4  2  2  0
  5  3  1  0
  6  2  1  0
  7  3  2  0
  8  4  1  0
  9  5  2  0
 11  1  1  0
 12  6  2  0
 12 10  1  0
 13  7  1  0
 13 10  2  0
 14  8  2  0
 14 12  1  0
 15  9  1  0
 15 13  1  0
 16 11  1  0
 16 14  1  0
 16 15  2  0
 17 11  2  0
M  END
>  <NAME>  (1626) 
9-ANTHRYL METHYL KETONE

>  <SYNONYMS>  (1626) 


>  <SPECTRUM TYPE>  (1626) 
MS1

>  <INSTRUMENT TYPE>  (1626) 
EI-B

>  <INSTRUMENT>  (1626) 
JEOL JMS-DX-300

>  <ION MODE>  (1626) 
P

>  <INCHIKEY>  (1626) 
NXXNVJDXUHMAHU-UHFFFAOYSA-N

>  <FORMULA>  (1626) 
C16H12O

>  <EXACT MASS>  (1626) 
220.088815004

>  <MW>  (1626) 
220

>  <ID>  (1626) 
JP009601

>  <CONTRIBUTOR>  (1626) 
University of Tokyo Team, {Faculty of Engineering, University of Tokyo

>  <COMMENT>  (1626) 
SMILES=CC(=O)c(c21)c(c3)c(ccc3)cc(cccc2)1
InChI=InChI=1S/C16H12O/c1-11(17)16-14-8-4-2-6-12(14)10-13-7-3-5-9-15(13)16/h2-10H,1H3
computed SMILES=O=C(C=1C=2C=CC=CC2C=C3C=CC=CC31)C
accession=JP009601
date=2016.01.19 (Created 2008.10.21, modified 2011.05.06)
author=THE INSTITUTE OF SCIENTIFIC AND INDUSTRIALRESEARCH
license=CC BY-NC-SA
exact mass=220.08882
ionization energy=70 eV
ion type=[M]+*
computed spectral entropy=2.9073683590846655
computed normalized entropy=0.7044520696054098
SPLASH=splash10-056r-3960000000-64db6bc268e501fca77a
submitter=submitter = University of Tokyo Team (Faculty of Engineering, University of Tokyo)
MoNA Rating=3.75

>  <NUM PEAKS>  (1626) 
62

>  <MASS SPECTRAL PEAKS>  (1626) 
27 3
28 5.3
32 1.2
39 0.27
42 2.7
43 31.9
44 1
50 0.18
51 2.1
62 1.3
63 3.1
74 0.24
75 3.9
76 1.8
77 1.3
86 0.11
87 2.8
88 8.8
89 4.8
95 0.17
96 1.7
98 1.7
99 1.9
100 0.14
101 2.2
103 1.6
110 3.8
111 0.1
125 1.1
126 2.9
127 1.3
139 0.15
149 2.3
150 13.9
151 19.8
152 0.47
163 2.3
164 1
165 3.4
174 0.64
175 9.5
176 58.7
177 68.8
178 1.88
179 3.2
187 1.8
188 1.3
189 0.79
190 2.7
191 5.3
192 3.8
200 0.13
202 1.8
203 1.1
204 1
205 99.99
206 16.8
207 1.5
219 4.7
220 7.98
221 14
222 1.6

>  <PREDICTED SPECTRUM>  (1626) 
27 19
29 5
39 46
40 10
41 11
43 130
44 7
50 95
51 137
52 50
62 89
63 135
64 78
65 12
69 41
74 208
75 241
76 197
77 114
78 46
81 16
82 91
83 104
84 31
85 25
86 108
87 157
88 218
89 87
93 24
94 92
95 85
96 50
97 60
98 158
99 120
100 154
101 237
102 175
103 86
104 4
105 37
106 18
109 73
110 147
111 71
112 17
113 75
115 42
122 88
123 106
124 34
125 39
126 131
127 54
137 6
138 37
149 161
150 289
151 242
152 139
163 198
165 111
173 29
174 161
175 228
176 504
177 514
178 310
179 67
180 13
187 59
188 73
189 155
190 28
191 164
192 21
200 201
201 271
202 159
203 120
204 168
205 999
206 463
207 201
208 36
217 27
218 111
219 178
220 887
221 389
222 158
223 16

$$$$

     RDKit          2D

 12 12  0  0  0  0  0  0  0  0999 V2000
   -5.5207    3.1321    0.0000 C   0  0  0  0  0  0  0  0  0  0  0  0
   -4.2216    2.3821    0.0000 C   0  0  0  0  0  0  0  0  0  0  0  0
    3.5726    0.8821    0.0000 C   0  0  0  0  0  0  0  0  0  0  0  0
    3.5731    2.3829    0.0000 C   0  0  0  0  0  0  0  0  0  0  0  0
    2.2731    0.1313    0.0000 C   0  0  0  0  0  0  0  0  0  0  0  0
    2.2740    3.1329    0.0000 C   0  0  0  0  0  0  0  0  0  0  0  0
    0.9740    0.8813    0.0000 C   0  0  0  0  0  0  0  0  0  0  0  0
   -0.3245    3.1321    0.0000 C   0  0  0  0  0  0  0  0  0  0  0  0
    0.9745    2.3821    0.0000 C   0  0  0  0  0  0  0  0  0  0  0  0
   -1.6236    2.3821    0.0000 C   0  0  0  0  0  0  0  0  0  0  0  0
   -1.6236    0.8821    0.0000 O   0  0  0  0  0  0  0  0  0  0  0  0
   -2.9226    3.1321    0.0000 O   0  0  0  0  0  0  0  0  0  0  0  0
  2  1  1  0
  4  3  2  0
  5  3  1  0
  6  4  1  0
  7  5  2  0
  9  6  2  0
  9  7  1  0
  9  8  1  0
 10  8  1  0
 11 10  2  0
 12  2  1  0
 12 10  1  0
M  END
>  <NAME>  (1627) 
ETHYL PHENYLACETATE

>  <SYNONYMS>  (1627) 


>  <SPECTRUM TYPE>  (1627) 
MS1

>  <INSTRUMENT TYPE>  (1627) 
EI-B

>  <INSTRUMENT>  (1627) 
JEOL JMS-DX-300

>  <ION MODE>  (1627) 
P

>  <INCHIKEY>  (1627) 
DULCUDSUACXJJC-UHFFFAOYSA-N

>  <FORMULA>  (1627) 
C10H12O2

>  <EXACT MASS>  (1627) 
164.083729624

>  <MW>  (1627) 
164

>  <ID>  (1627) 
JP009599

>  <CONTRIBUTOR>  (1627) 
University of Tokyo Team, {Faculty of Engineering, University of Tokyo

>  <COMMENT>  (1627) 
SMILES=CCOC(=O)Cc(c1)cccc1
InChI=InChI=1S/C10H12O2/c1-2-12-10(11)8-9-6-4-3-5-7-9/h3-7H,2,8H2,1H3
computed SMILES=O=C(OCC)CC=1C=CC=CC1
accession=JP009599
date=2016.01.19 (Created 2008.10.21, modified 2011.05.06)
author=THE INSTITUTE OF SCIENTIFIC AND INDUSTRIALRESEARCH
license=CC BY-NC-SA
exact mass=164.08373
ionization energy=70 eV
ion type=[M]+*
computed spectral entropy=1.7293454420083287
computed normalized entropy=0.5873259572517614
SPLASH=splash10-0006-9100000000-95ebd9a41c4a5c677094
submitter=submitter = University of Tokyo Team (Faculty of Engineering, University of Tokyo)
MoNA Rating=3.75

>  <NUM PEAKS>  (1627) 
19

>  <MASS SPECTRAL PEAKS>  (1627) 
27 6.6
29 19
30 1
39 0.6
41 1.4
43 1
51 2.7
63 0.4
64 1.3
65 15.9
77 1.2
89 0.52
90 3.7
91 99.99
92 11.8
105 0.22
119 2.1
164 16.4
165 1.8

>  <PREDICTED SPECTRUM>  (1627) 
15 10
26 64
27 201
28 94
29 295
37 24
38 90
39 280
40 106
41 197
42 123
44 41
45 20
50 127
51 225
52 124
53 90
54 8
61 27
62 123
63 231
64 161
65 433
66 96
74 13
76 22
77 167
78 93
79 0
89 247
90 272
91 999
92 422
93 71
118 237
119 143
136 33
164 419
165 109

$$$$

     RDKit          2D

 15 15  0  0  0  0  0  0  0  0999 V2000
   -4.3722    0.2744    0.0000 C   0  0  0  0  0  0  0  0  0  0  0  0
    5.4716   -0.2746    0.0000 C   0  0  0  0  0  0  0  0  0  0  0  0
   -3.0733    1.0246    0.0000 C   0  0  0  0  0  0  0  0  0  0  0  0
    2.1240   -1.9764    0.0000 C   0  0  0  0  0  0  0  0  0  0  0  0
    0.8245   -1.2256    0.0000 C   0  0  0  0  0  0  0  0  0  0  0  0
    3.4230   -1.2264    0.0000 C   0  0  0  0  0  0  0  0  0  0  0  0
    2.1230    1.0252    0.0000 C   0  0  0  0  0  0  0  0  0  0  0  0
    0.8240    0.2752    0.0000 C   0  0  0  0  0  0  0  0  0  0  0  0
    3.4225    0.2744    0.0000 C   0  0  0  0  0  0  0  0  0  0  0  0
   -0.4752    1.0250    0.0000 C   0  0  0  0  0  0  0  0  0  0  0  0
   -0.4754    2.5250    0.0000 O   0  0  0  0  0  0  0  0  0  0  0  0
    6.0206    1.7744    0.0000 O   0  0  0  0  0  0  0  0  0  0  0  0
    3.9716    2.3235    0.0000 O   0  0  0  0  0  0  0  0  0  0  0  0
   -1.7741    0.2748    0.0000 O   0  0  0  0  0  0  0  0  0  0  0  0
    4.7216    1.0244    0.0000 S   0  0  0  0  0  0  0  0  0  0  0  0
  3  1  1  0
  5  4  2  0
  6  4  1  0
  8  5  1  0
  8  7  2  0
  9  6  2  0
  9  7  1  0
 10  8  1  0
 11 10  2  0
 14  3  1  0
 14 10  1  0
 15  2  1  0
 15  9  1  0
 15 12  2  0
 15 13  2  0
M  END
>  <NAME>  (1628) 
ETHYL 3-METHYLSULFONYLBENZOATE

>  <SYNONYMS>  (1628) 


>  <SPECTRUM TYPE>  (1628) 
MS1

>  <INSTRUMENT TYPE>  (1628) 
EI-B

>  <INSTRUMENT>  (1628) 
JEOL JMS-DX-300

>  <ION MODE>  (1628) 
P

>  <INCHIKEY>  (1628) 
XCBPURUOABFDDU-UHFFFAOYSA-N

>  <FORMULA>  (1628) 
C10H12O4S

>  <EXACT MASS>  (1628) 
228.045629864

>  <MW>  (1628) 
228

>  <ID>  (1628) 
JP009598

>  <CONTRIBUTOR>  (1628) 
University of Tokyo Team, {Faculty of Engineering, University of Tokyo

>  <COMMENT>  (1628) 
SMILES=CCOC(=O)c(c1)cc(cc1)S(C)(=O)=O
InChI=InChI=1S/C10H12O4S/c1-3-14-10(11)8-5-4-6-9(7-8)15(2,12)13/h4-7H,3H2,1-2H3
computed SMILES=O=C(OCC)C1=CC=CC(=C1)S(=O)(=O)C
accession=JP009598
date=2016.01.19 (Created 2008.10.21, modified 2011.05.06)
author=THE INSTITUTE OF SCIENTIFIC AND INDUSTRIALRESEARCH
license=CC BY-NC-SA
exact mass=228.04563
ionization energy=70 eV
ion type=[M]+*
computed spectral entropy=3.614208876680302
computed normalized entropy=0.7900409214185354
SPLASH=splash10-004i-9400000000-6eab5b81cfd6f40501da
submitter=submitter = University of Tokyo Team (Faculty of Engineering, University of Tokyo)
MoNA Rating=3.75

>  <NUM PEAKS>  (1628) 
97

>  <MASS SPECTRAL PEAKS>  (1628) 
26 6.5
27 38.7
29 53.4
30 0.47
31 2.8
38 3
39 12.2
41 0.18
42 1.3
43 8
44 11.6
45 1.28
46 1
47 3
48 3.3
49 0.1
50 55.1
51 16.8
52 3.8
53 0.57
55 2.8
62 2.7
63 17
64 1.26
65 52.2
66 3.9
69 3.8
70 0.36
73 1.7
74 18.4
75 40
76 99.99
77 27.3
78 7.9
79 16.3
80 0.3
81 7
82 1.4
84 2
85 0.1
89 2.8
90 3
91 5.8
92 1.11
93 9.7
94 1.4
95 4.1
96 0.43
97 2.7
99 1
103 14.8
104 2.13
105 8.5
106 2.8
107 4.8
108 0.37
109 7.4
110 2.9
111 4.8
112 0.1
113 1.8
119 1.8
120 2.9
121 4.03
122 4.3
123 3.5
124 3.2
125 0.11
131 1.4
135 1.7
137 2.7
138 3.46
139 8.7
140 1.6
141 2.8
148 0.57
149 36.4
150 3.8
151 1.7
152 0.34
153 1.9
155 11.4
156 22.7
157 0.25
158 1.5
169 6.5
183 85.3
184 2.83
185 16
186 2.7
197 2.7
200 1.5
201 4.8
202 1.2
213 1.8
228 1.32
229 2.2

>  <PREDICTED SPECTRUM>  (1628) 
14 50
15 192
16 8
17 7
18 23
25 37
26 162
27 390
28 229
29 587
30 222
31 188
32 6
34 18
35 5
36 73
37 129
38 222
39 281
40 109
41 141
42 237
43 434
44 155
45 381
46 78
47 161
48 149
49 174
50 530
51 511
52 231
53 217
54 71
56 70
57 91
59 8
60 133
61 185
62 233
63 471
64 239
65 479
66 211
67 36
68 3
69 46
70 33
71 86
73 183
74 344
75 487
76 489
77 589
78 393
79 434
80 122
81 255
82 132
83 100
84 100
85 94
86 63
87 78
89 74
90 62
91 264
92 202
93 245
94 102
95 137
96 188
97 127
98 47
99 42
103 306
104 214
105 313
106 250
107 166
108 104
109 155
110 60
111 34
112 29
119 82
120 146
121 413
122 206
123 215
124 116
125 123
127 16
133 24
135 46
136 0
137 220
138 236
139 239
140 118
149 589
150 296
151 188
152 48
153 97
154 142
155 253
156 221
157 152
158 11
165 152
166 6
167 63
168 19
169 203
173 19
183 999
184 288
185 450
186 80
198 10
199 16
200 360
201 250
202 162
203 40
213 94
227 17
228 307
229 143
230 137
231 16

$$$$

     RDKit          2D

 12 12  0  0  0  0  0  0  0  0999 V2000
    5.5011    2.0747    0.0000 C   0  0  0  0  0  0  0  0  0  0  0  0
    4.1983    2.8181    0.0000 C   0  0  0  0  0  0  0  0  0  0  0  0
   -0.9845    2.7821    0.0000 C   0  0  0  0  0  0  0  0  0  0  0  0
    0.3105    0.5391    0.0000 C   0  0  0  0  0  0  0  0  0  0  0  0
   -2.2836    2.0321    0.0000 C   0  0  0  0  0  0  0  0  0  0  0  0
   -0.9886   -0.2109    0.0000 C   0  0  0  0  0  0  0  0  0  0  0  0
    0.3050    2.0486    0.0000 C   0  0  0  0  0  0  0  0  0  0  0  0
   -2.3018    0.5436    0.0000 C   0  0  0  0  0  0  0  0  0  0  0  0
    1.6002    2.8051    0.0000 C   0  0  0  0  0  0  0  0  0  0  0  0
   -3.6046   -0.1999    0.0000 Cl  0  0  0  0  0  0  0  0  0  0  0  0
    1.5927    4.3051    0.0000 O   0  0  0  0  0  0  0  0  0  0  0  0
    2.9030    2.0616    0.0000 O   0  0  0  0  0  0  0  0  0  0  0  0
  2  1  1  0
  5  3  2  0
  6  4  1  0
  7  3  1  0
  7  4  2  0
  8  5  1  0
  8  6  2  0
  9  7  1  0
 10  8  1  0
 11  9  2  0
 12  2  1  0
 12  9  1  0
M  END
>  <NAME>  (1629) 
ETHYL 4-CHLOROBENZOATE

>  <SYNONYMS>  (1629) 


>  <SPECTRUM TYPE>  (1629) 
MS1

>  <INSTRUMENT TYPE>  (1629) 
EI-B

>  <INSTRUMENT>  (1629) 
JEOL JMS-DX-300

>  <ION MODE>  (1629) 
P

>  <INCHIKEY>  (1629) 
RWBYCMPOFNRISR-UHFFFAOYSA-N

>  <FORMULA>  (1629) 
C9H9ClO2

>  <EXACT MASS>  (1629) 
184.029107208

>  <MW>  (1629) 
184

>  <ID>  (1629) 
JP009597

>  <CONTRIBUTOR>  (1629) 
University of Tokyo Team, {Faculty of Engineering, University of Tokyo

>  <COMMENT>  (1629) 
SMILES=CCOC(=O)c(c1)ccc(Cl)c1
InChI=InChI=1S/C9H9ClO2/c1-2-12-9(11)7-3-5-8(10)6-4-7/h3-6H,2H2,1H3
computed SMILES=O=C(OCC)C1=CC=C(Cl)C=C1
accession=JP009597
date=2016.01.19 (Created 2008.10.21, modified 2011.05.06)
author=THE INSTITUTE OF SCIENTIFIC AND INDUSTRIALRESEARCH
license=CC BY-NC-SA
exact mass=184.02911
ionization energy=70 eV
ion type=[M]+*
computed spectral entropy=2.596764347453983
computed normalized entropy=0.7303825961743227
SPLASH=splash10-000i-3900000000-86b6e5da9317d475b405
submitter=submitter = University of Tokyo Team (Faculty of Engineering, University of Tokyo)
MoNA Rating=3.75

>  <NUM PEAKS>  (1629) 
35

>  <MASS SPECTRAL PEAKS>  (1629) 
26 1.2
27 8
29 10
43 0.15
45 4.2
50 10.1
51 4.9
65 0.19
73 1
74 5.7
75 29
76 0.88
77 3
85 3.1
87 1
103 0.1
104 3.6
105 1.5
110 1.2
111 3.77
112 3.8
113 12.7
139 99.99
140 1.15
141 34.8
142 3.6
149 3.6
156 3.98
157 3.2
158 13.4
169 1.7
183 0.1
184 26.5
185 3
186 9

>  <PREDICTED SPECTRUM>  (1629) 
14 1
15 24
25 7
26 82
27 172
28 61
29 247
30 78
31 55
35 5
36 88
37 65
38 112
39 146
40 17
43 23
44 40
45 148
47 45
48 1
49 71
50 303
51 223
52 58
53 92
57 22
59 6
60 58
61 107
62 17
63 84
64 12
65 91
73 116
74 243
75 495
76 259
77 148
78 35
83 44
84 137
85 210
86 59
93 9
103 58
104 15
105 101
110 75
111 519
112 144
113 262
114 60
121 107
139 999
140 253
141 604
142 165
143 1
149 250
150 89
156 355
157 150
158 160
159 43
183 29
184 316
185 128
186 227
187 73

$$$$

     RDKit          2D

 12 12  0  0  0  0  0  0  0  0999 V2000
   -3.5727    1.3128    0.0000 C   0  0  0  0  0  0  0  0  0  0  0  0
   -2.2737    2.0630    0.0000 C   0  0  0  0  0  0  0  0  0  0  0  0
    2.9235   -0.9380    0.0000 C   0  0  0  0  0  0  0  0  0  0  0  0
    1.6240   -0.1872    0.0000 C   0  0  0  0  0  0  0  0  0  0  0  0
    4.2225   -0.1880    0.0000 C   0  0  0  0  0  0  0  0  0  0  0  0
    2.9225    2.0636    0.0000 C   0  0  0  0  0  0  0  0  0  0  0  0
    1.6235    1.3136    0.0000 C   0  0  0  0  0  0  0  0  0  0  0  0
    4.2221    1.3128    0.0000 C   0  0  0  0  0  0  0  0  0  0  0  0
    0.3243    2.0634    0.0000 C   0  0  0  0  0  0  0  0  0  0  0  0
    5.5211    2.0628    0.0000 Br  0  0  0  0  0  0  0  0  0  0  0  0
    0.3241    3.5634    0.0000 O   0  0  0  0  0  0  0  0  0  0  0  0
   -0.9746    1.3132    0.0000 O   0  0  0  0  0  0  0  0  0  0  0  0
  2  1  1  0
  4  3  2  0
  5  3  1  0
  7  4  1  0
  7  6  2  0
  8  5  2  0
  8  6  1  0
  9  7  1  0
 10  8  1  0
 11  9  2  0
 12  2  1  0
 12  9  1  0
M  END
>  <NAME>  (1630) 
ETHYL 3-BROMOBENZOATE

>  <SYNONYMS>  (1630) 


>  <SPECTRUM TYPE>  (1630) 
MS1

>  <INSTRUMENT TYPE>  (1630) 
EI-B

>  <INSTRUMENT>  (1630) 
JEOL JMS-DX-300

>  <ION MODE>  (1630) 
P

>  <INCHIKEY>  (1630) 
QAUASTLEZAPQTB-UHFFFAOYSA-N

>  <FORMULA>  (1630) 
C9H9BrO2

>  <EXACT MASS>  (1630) 
227.978591628

>  <MW>  (1630) 
228

>  <ID>  (1630) 
JP009595

>  <CONTRIBUTOR>  (1630) 
University of Tokyo Team, {Faculty of Engineering, University of Tokyo

>  <COMMENT>  (1630) 
SMILES=CCOC(=O)c(c1)cc(Br)cc1
InChI=InChI=1S/C9H9BrO2/c1-2-12-9(11)7-4-3-5-8(10)6-7/h3-6H,2H2,1H3
computed SMILES=O=C(OCC)C=1C=CC=C(Br)C1
accession=JP009595
date=2016.01.19 (Created 2008.10.21, modified 2011.05.06)
author=THE INSTITUTE OF SCIENTIFIC AND INDUSTRIALRESEARCH
license=CC BY-NC-SA
exact mass=227.97859
ionization energy=70 eV
ion type=[M]+*
computed spectral entropy=2.6118019684390847
computed normalized entropy=0.7233069351406272
SPLASH=splash10-0uei-1950000000-1365544da0e8a94b5a36
submitter=submitter = University of Tokyo Team (Faculty of Engineering, University of Tokyo)
MoNA Rating=3.75

>  <NUM PEAKS>  (1630) 
37

>  <MASS SPECTRAL PEAKS>  (1630) 
27 1.7
28 4.3
29 8.5
45 0.8
51 1
65 6.1
75 7.7
76 1.39
77 5.7
103 2.7
104 7.3
105 0.41
121 2.1
131 2.1
149 21.4
150 0.23
155 27.7
156 2.8
157 28.3
158 0.26
183 99.99
184 12.8
185 97
186 1.19
200 60.6
201 4.9
202 57.5
203 0.45
210 2.8
212 2.6
213 2.3
215 0.17
227 1
228 43.9
229 5.5
230 4.25
231 4.2

>  <PREDICTED SPECTRUM>  (1630) 
14 10
15 5
25 13
26 92
27 219
28 96
29 313
30 39
31 64
36 79
37 112
38 195
39 203
40 71
41 29
43 123
44 106
45 244
46 59
48 48
49 129
50 601
51 370
52 168
53 197
60 11
61 127
62 146
63 246
64 82
65 201
66 50
73 312
74 487
75 731
76 703
77 371
78 188
79 124
80 79
81 52
82 96
85 7
86 11
91 53
92 105
93 160
94 10
102 39
103 129
104 230
105 213
106 117
107 0
109 42
111 46
120 12
121 145
127 12
128 25
129 98
131 140
136 22
143 1
149 273
150 134
154 195
155 718
156 192
157 705
158 233
159 10
169 44
171 48
182 147
183 970
184 335
185 999
186 374
187 105
200 700
201 298
202 562
203 173
213 96
214 2
215 30
228 494
229 209
230 503
231 180
232 22

$$$$

     RDKit          2D

 14 14  0  0  0  0  0  0  0  0999 V2000
   -6.4962    0.7508    0.0000 C   0  0  0  0  0  0  0  0  0  0  0  0
    3.8981   -0.7504    0.0000 C   0  0  0  0  0  0  0  0  0  0  0  0
    2.5987   -3.0002    0.0000 C   0  0  0  0  0  0  0  0  0  0  0  0
   -5.1970    1.5006    0.0000 C   0  0  0  0  0  0  0  0  0  0  0  0
   -1.3000   -0.7500    0.0000 C   0  0  0  0  0  0  0  0  0  0  0  0
    0.0000    1.5000    0.0000 C   0  0  0  0  0  0  0  0  0  0  0  0
    0.0000   -1.5000    0.0000 C   0  0  0  0  0  0  0  0  0  0  0  0
    1.3000    0.7500    0.0000 C   0  0  0  0  0  0  0  0  0  0  0  0
   -1.3000    0.7500    0.0000 C   0  0  0  0  0  0  0  0  0  0  0  0
    1.3000   -0.7500    0.0000 C   0  0  0  0  0  0  0  0  0  0  0  0
   -2.5989    1.5002    0.0000 C   0  0  0  0  0  0  0  0  0  0  0  0
    2.5989   -1.5002    0.0000 N   0  0  0  0  0  0  0  0  0  0  0  0
   -2.5987    3.0002    0.0000 O   0  0  0  0  0  0  0  0  0  0  0  0
   -3.8981    0.7504    0.0000 O   0  0  0  0  0  0  0  0  0  0  0  0
  4  1  1  0
  7  5  2  0
  8  6  1  0
  9  5  1  0
  9  6  2  0
 10  7  1  0
 10  8  2  0
 11  9  1  0
 12  2  1  0
 12  3  1  0
 12 10  1  0
 13 11  2  0
 14  4  1  0
 14 11  1  0
M  END
>  <NAME>  (1631) 
ETHYL 4-DIMETHYLAMINOBENZOATE

>  <SYNONYMS>  (1631) 


>  <SPECTRUM TYPE>  (1631) 
MS1

>  <INSTRUMENT TYPE>  (1631) 
EI-B

>  <INSTRUMENT>  (1631) 
JEOL JMS-DX-300

>  <ION MODE>  (1631) 
P

>  <INCHIKEY>  (1631) 
FZUGPQWGEGAKET-UHFFFAOYSA-N

>  <FORMULA>  (1631) 
C11H15NO2

>  <EXACT MASS>  (1631) 
193.11027872

>  <MW>  (1631) 
193

>  <ID>  (1631) 
JP009594

>  <CONTRIBUTOR>  (1631) 
University of Tokyo Team, {Faculty of Engineering, University of Tokyo

>  <COMMENT>  (1631) 
SMILES=CCOC(=O)c(c1)ccc(N(C)C)c1
InChI=InChI=1S/C11H15NO2/c1-4-14-11(13)9-5-7-10(8-6-9)12(2)3/h5-8H,4H2,1-3H3
computed SMILES=O=C(OCC)C1=CC=C(C=C1)N(C)C
accession=JP009594
date=2016.01.19 (Created 2008.10.21, modified 2011.05.06)
author=THE INSTITUTE OF SCIENTIFIC AND INDUSTRIALRESEARCH
license=CC BY-NC-SA
exact mass=193.11028
ionization energy=70 eV
ion type=[M]+*
computed spectral entropy=3.0522228915609397
computed normalized entropy=0.7687653598322425
SPLASH=splash10-0002-4900000000-77f75b3b43a3a102c2b7
submitter=submitter = University of Tokyo Team (Faculty of Engineering, University of Tokyo)
MoNA Rating=3.75

>  <NUM PEAKS>  (1631) 
53

>  <MASS SPECTRAL PEAKS>  (1631) 
26 1.6
27 8.4
29 11.3
30 0.1
38 1
39 4.3
40 2.8
41 0.26
42 26.5
43 4.7
44 9.9
45 0.22
50 6.5
51 8.4
52 2.8
53 0.17
60 1.2
63 4.1
64 1.2
65 0.47
66 1
74 4.7
75 1.2
76 0.37
77 13.3
78 6.1
79 5.9
80 0.1
90 2.7
91 6
92 2.9
93 0.19
103 2.2
104 9.9
105 10.6
106 0.12
117 1.2
118 6.8
119 6.8
120 1.18
121 9.3
132 4.1
148 99.99
149 1.39
150 2.2
164 41.5
165 35.3
166 0.36
178 1.1
191 2.9
192 12.1
193 9
194 11.2

>  <PREDICTED SPECTRUM>  (1631) 
14 10
15 98
27 47
28 60
29 112
36 1
38 2
39 79
40 38
41 22
42 328
43 105
44 142
45 69
49 40
50 113
51 171
52 63
53 39
61 7
62 78
63 191
64 98
65 199
66 73
67 30
74 52
75 90
76 163
77 333
78 136
79 135
80 52
89 99
90 175
91 183
92 123
93 117
94 41
103 116
104 239
105 215
106 33
116 70
117 130
118 264
119 183
120 304
121 370
122 78
131 23
132 120
133 19
134 4
136 65
137 26
146 96
148 795
149 276
150 56
151 2
162 35
163 16
164 909
165 414
166 111
178 45
192 433
193 999
194 359
195 117

$$$$

     RDKit          2D

 15 15  0  0  0  0  0  0  0  0999 V2000
    3.8978    0.5498    0.0000 C   0  0  0  0  0  0  0  0  0  0  0  0
   -5.9474   -0.4024    0.0000 C   0  0  0  0  0  0  0  0  0  0  0  0
   -6.4962   -2.4515    0.0000 C   0  0  0  0  0  0  0  0  0  0  0  0
   -4.4470   -3.0002    0.0000 C   0  0  0  0  0  0  0  0  0  0  0  0
    2.5987    1.2995    0.0000 C   0  0  0  0  0  0  0  0  0  0  0  0
   -1.2983   -0.9511    0.0000 C   0  0  0  0  0  0  0  0  0  0  0  0
   -2.5983    1.2989    0.0000 C   0  0  0  0  0  0  0  0  0  0  0  0
   -2.5983   -1.7011    0.0000 C   0  0  0  0  0  0  0  0  0  0  0  0
   -3.8983    0.5489    0.0000 C   0  0  0  0  0  0  0  0  0  0  0  0
   -1.2983    0.5489    0.0000 C   0  0  0  0  0  0  0  0  0  0  0  0
   -3.8983   -0.9511    0.0000 C   0  0  0  0  0  0  0  0  0  0  0  0
    0.0006    1.2991    0.0000 C   0  0  0  0  0  0  0  0  0  0  0  0
   -5.1972   -1.7013    0.0000 C   0  0  0  0  0  0  0  0  0  0  0  0
    0.0004    2.7991    0.0000 O   0  0  0  0  0  0  0  0  0  0  0  0
    1.2998    0.5493    0.0000 O   0  0  0  0  0  0  0  0  0  0  0  0
  5  1  1  0
  8  6  2  0
  9  7  1  0
 10  6  1  0
 10  7  2  0
 11  8  1  0
 11  9  2  0
 12 10  1  0
 13  2  1  0
 13  3  1  0
 13  4  1  0
 13 11  1  0
 14 12  2  0
 15  5  1  0
 15 12  1  0
M  END
>  <NAME>  (1632) 
ETHYL 4-TERT-BUTYLBENZOATE

>  <SYNONYMS>  (1632) 


>  <SPECTRUM TYPE>  (1632) 
MS1

>  <INSTRUMENT TYPE>  (1632) 
EI-B

>  <INSTRUMENT>  (1632) 
JEOL JMS-DX-300

>  <ION MODE>  (1632) 
P

>  <INCHIKEY>  (1632) 
LIQWHXBLFOERRD-UHFFFAOYSA-N

>  <FORMULA>  (1632) 
C13H18O2

>  <EXACT MASS>  (1632) 
206.130679816

>  <MW>  (1632) 
206

>  <ID>  (1632) 
JP009593

>  <CONTRIBUTOR>  (1632) 
University of Tokyo Team, {Faculty of Engineering, University of Tokyo

>  <COMMENT>  (1632) 
SMILES=CCOC(=O)c(c1)ccc(c1)C(C)(C)C
InChI=InChI=1S/C13H18O2/c1-5-15-12(14)10-6-8-11(9-7-10)13(2,3)4/h6-9H,5H2,1-4H3
computed SMILES=O=C(OCC)C1=CC=C(C=C1)C(C)(C)C
accession=JP009593
date=2016.01.19 (Created 2008.10.21, modified 2011.05.06)
author=THE INSTITUTE OF SCIENTIFIC AND INDUSTRIALRESEARCH
license=CC BY-NC-SA
exact mass=206.13068
ionization energy=70 eV
ion type=[M]+*
computed spectral entropy=3.0609249913289514
computed normalized entropy=0.7506797996187146
SPLASH=splash10-0006-6910000000-083fb9f5476630afbebf
submitter=submitter = University of Tokyo Team (Faculty of Engineering, University of Tokyo)
MoNA Rating=3.75

>  <NUM PEAKS>  (1632) 
59

>  <MASS SPECTRAL PEAKS>  (1632) 
26 1.7
27 12.8
29 34.8
30 0.1
31 1.7
39 9.4
40 1
41 2.87
43 1.6
45 2.4
50 3.5
51 0.77
52 1.5
53 2.1
55 2.2
57 0.38
58 1.3
63 3.1
64 1
65 0.55
72 1.5
74 1.1
75 2
76 0.38
77 12.8
78 3.5
79 5.9
89 0.35
90 4.6
91 26.3
92 2.5
93 0.1
101 1
102 3
103 7.3
104 0.21
105 6.1
107 3.9
115 11.5
116 0.3
117 9.1
118 11.3
119 6.2
131 0.18
133 2
135 5.9
145 5.9
146 0.34
147 1.2
161 15.9
162 2.2
163 1.41
164 1.5
178 1
191 99.99
192 1.44
193 1.6
206 22.2
207 4

>  <PREDICTED SPECTRUM>  (1632) 
14 5
15 56
26 38
27 190
28 70
29 237
36 1
37 10
38 57
39 206
40 47
41 324
42 63
43 188
44 58
45 205
46 11
47 20
49 11
50 152
51 230
52 132
53 141
55 167
56 56
57 312
58 66
59 27
61 68
62 86
63 196
64 121
65 233
66 77
67 74
73 139
74 118
75 228
76 145
77 319
78 176
79 188
80 64
81 50
82 2
87 47
88 59
89 218
90 135
91 479
92 163
93 58
95 13
101 101
102 163
103 232
104 156
105 295
106 91
107 109
115 346
116 158
117 308
118 180
119 201
120 82
121 50
129 47
130 10
131 167
133 121
134 46
135 244
136 7
145 74
146 48
147 149
148 22
149 69
161 609
162 218
163 662
164 207
165 25
177 0
178 13
179 12
191 999
192 347
193 106
205 32
206 450
207 150
208 16

$$$$

     RDKit          2D

  9  9  0  0  0  0  0  0  0  0999 V2000
   -1.3000    0.7500    0.0000 C   0  0  0  0  0  0  0  0  0  0  0  0
    0.0000    1.5000    0.0000 C   0  0  0  0  0  0  0  0  0  0  0  0
   -0.0000   -1.5000    0.0000 C   0  0  0  0  0  0  0  0  0  0  0  0
   -1.3000   -0.7500    0.0000 C   0  0  0  0  0  0  0  0  0  0  0  0
    1.3000    0.7500    0.0000 C   0  0  0  0  0  0  0  0  0  0  0  0
    1.3000   -0.7500    0.0000 C   0  0  0  0  0  0  0  0  0  0  0  0
   -2.5989   -1.5002    0.0000 Cl  0  0  0  0  0  0  0  0  0  0  0  0
    2.5989    1.5002    0.0000 Cl  0  0  0  0  0  0  0  0  0  0  0  0
    2.5989   -1.5002    0.0000 N   0  0  0  0  0  0  0  0  0  0  0  0
  2  1  2  0
  4  1  1  0
  4  3  2  0
  5  2  1  0
  6  3  1  0
  6  5  2  0
  7  4  1  0
  8  5  1  0
  9  6  1  0
M  END
>  <NAME>  (1633) 
2,5-DICHLOROANILINE

>  <SYNONYMS>  (1633) 


>  <SPECTRUM TYPE>  (1633) 
MS1

>  <INSTRUMENT TYPE>  (1633) 
EI-B

>  <INSTRUMENT>  (1633) 
JEOL JMS-AX-505-H

>  <ION MODE>  (1633) 
P

>  <INCHIKEY>  (1633) 
AVYGCQXNNJPXSS-UHFFFAOYSA-N

>  <FORMULA>  (1633) 
C6H5Cl2N

>  <EXACT MASS>  (1633) 
160.97990452

>  <MW>  (1633) 
161

>  <ID>  (1633) 
JP009591

>  <CONTRIBUTOR>  (1633) 
University of Tokyo Team, {Faculty of Engineering, University of Tokyo

>  <COMMENT>  (1633) 
SMILES=Nc(c1)c(Cl)ccc(Cl)1
InChI=InChI=1S/C6H5Cl2N/c7-4-1-2-5(8)6(9)3-4/h1-3H,9H2
computed SMILES=ClC1=CC=C(Cl)C(N)=C1
accession=JP009591
date=2016.01.19 (Created 2008.10.21, modified 2011.05.06)
author=HAMAMATSU UNIV. SCHOOL OF MEDICINE
license=CC BY-NC-SA
exact mass=160.9799
ionization energy=70 eV
ion type=[M]+*
computed spectral entropy=2.260571954701556
computed normalized entropy=0.7209619278572563
SPLASH=splash10-03di-3900000000-f53c9e35d37113085961
submitter=submitter = University of Tokyo Team (Faculty of Engineering, University of Tokyo)
MoNA Rating=3.75

>  <NUM PEAKS>  (1633) 
23

>  <MASS SPECTRAL PEAKS>  (1633) 
28 4.79
37 2.22
38 1.34
52 5.62
61 3.37
62 7.52
63 16.8
65 1.28
73 4.51
90 21.36
91 1.44
98 1.2
99 14.86
101 3.72
125 8.29
126 12.28
128 2.3
133 2.66
161 99.99
162 7.29
163 67.42
164 1.25
165 9.65

>  <PREDICTED SPECTRUM>  (1633) 
18 11
25 18
26 38
27 5
28 76
30 8
35 89
36 107
37 166
38 175
39 184
40 59
41 56
42 120
43 58
44 108
47 52
48 49
49 204
50 286
51 294
52 247
53 67
54 47
55 102
56 86
57 80
60 147
61 276
62 388
63 446
64 264
65 176
66 91
68 13
69 23
70 7
71 28
72 160
73 311
74 235
75 322
76 102
77 40
78 45
80 53
81 4
82 11
83 22
84 182
85 84
86 135
87 87
88 217
89 206
90 390
91 459
92 155
93 24
96 84
97 125
98 146
99 277
100 96
101 175
102 27
106 6
107 38
108 45
109 161
110 134
111 62
112 8
114 0
124 181
125 179
126 632
127 255
128 453
129 152
130 16
133 197
134 104
135 153
136 73
137 18
145 36
147 28
160 193
161 999
162 382
163 833
164 326
165 386
166 117

$$$$

     RDKit          2D

 11 11  0  0  0  0  0  0  0  0999 V2000
    0.0008   -2.2500    0.0000 C   0  0  0  0  0  0  0  0  0  0  0  0
   -1.2992   -3.0000    0.0000 C   0  0  0  0  0  0  0  0  0  0  0  0
   -1.2992    0.0000    0.0000 C   0  0  0  0  0  0  0  0  0  0  0  0
    0.0008   -0.7500    0.0000 C   0  0  0  0  0  0  0  0  0  0  0  0
   -2.5992   -2.2500    0.0000 C   0  0  0  0  0  0  0  0  0  0  0  0
   -2.5992   -0.7500    0.0000 C   0  0  0  0  0  0  0  0  0  0  0  0
    1.2998    0.0002    0.0000 C   0  0  0  0  0  0  0  0  0  0  0  0
   -3.8981   -3.0002    0.0000 Cl  0  0  0  0  0  0  0  0  0  0  0  0
   -3.8981    0.0002    0.0000 Cl  0  0  0  0  0  0  0  0  0  0  0  0
    1.2995    1.5002    0.0000 O   0  0  0  0  0  0  0  0  0  0  0  0
    2.5989   -0.7496    0.0000 O   0  0  0  0  0  0  0  0  0  0  0  0
  2  1  2  0
  4  1  1  0
  4  3  2  0
  5  2  1  0
  6  3  1  0
  6  5  2  0
  7  4  1  0
  8  5  1  0
  9  6  1  0
 10  7  2  0
 11  7  1  0
M  END
>  <NAME>  (1634) 
3,4-DICHLOROBEZOIC ACID

>  <SYNONYMS>  (1634) 


>  <SPECTRUM TYPE>  (1634) 
MS1

>  <INSTRUMENT TYPE>  (1634) 
EI-B

>  <INSTRUMENT>  (1634) 
JEOL JMS-AX-505-H

>  <ION MODE>  (1634) 
P

>  <INCHIKEY>  (1634) 
VPHHJAOJUJHJKD-UHFFFAOYSA-N

>  <FORMULA>  (1634) 
C7H4Cl2O2

>  <EXACT MASS>  (1634) 
189.958834728

>  <MW>  (1634) 
190

>  <ID>  (1634) 
JP009590

>  <CONTRIBUTOR>  (1634) 
University of Tokyo Team, {Faculty of Engineering, University of Tokyo

>  <COMMENT>  (1634) 
SMILES=OC(=O)c(c1)cc(Cl)c(Cl)c1
InChI=InChI=1S/C7H4Cl2O2/c8-5-2-1-4(7(10)11)3-6(5)9/h1-3H,(H,10,11)
computed SMILES=O=C(O)C1=CC=C(Cl)C(Cl)=C1
accession=JP009590
date=2016.01.19 (Created 2008.10.21, modified 2011.05.06)
author=HAMAMATSU UNIV. SCHOOL OF MEDICINE
license=CC BY-NC-SA
exact mass=189.95883
ionization energy=70 eV
ion type=[M]+*
computed spectral entropy=3.0033493276588468
computed normalized entropy=0.7717081205205933
SPLASH=splash10-006x-2900000000-6bd0174e168753d5ff4a
submitter=submitter = University of Tokyo Team (Faculty of Engineering, University of Tokyo)
MoNA Rating=3.75

>  <NUM PEAKS>  (1634) 
49

>  <MASS SPECTRAL PEAKS>  (1634) 
37 4.3
38 2.19
45 5.54
49 2.74
50 8.1
51 1.94
53 1.55
54 2.14
55 1.94
61 2.05
62 2.14
63 3.74
72 1.96
73 7.34
74 25.92
75 21.46
76 1.75
81 2
82 1.24
84 7
85 3.84
86 2.39
87 1.48
99 6.33
101 2.35
108 2.27
109 20.35
110 7.52
111 10.01
112 2.36
113 1.63
144 1.6
145 38.74
146 3.92
147 25.09
148 2.1
149 4.19
162 2.91
164 1.9
173 90.78
174 7.77
175 59.79
176 4.66
177 9.98
190 99.99
191 8.35
192 65.27
193 5.32
194 11.58

>  <PREDICTED SPECTRUM>  (1634) 
14 13
16 7
17 9
18 8
25 36
31 2
35 166
36 173
37 257
38 218
39 42
42 12
43 96
44 138
45 321
47 168
48 97
49 275
50 502
51 290
52 55
53 162
54 16
55 69
56 53
57 74
58 5
60 247
61 333
62 202
63 316
64 104
65 84
68 64
69 11
71 2
72 235
73 654
74 815
75 735
76 203
77 174
80 47
81 31
82 26
83 74
84 308
85 270
86 243
87 149
89 40
91 131
92 20
94 69
97 116
98 92
99 316
100 122
101 140
106 22
107 123
108 251
109 778
110 440
111 366
112 233
113 149
114 43
118 49
119 138
120 12
127 143
128 10
133 29
134 34
135 370
136 107
137 38
138 56
144 122
145 735
146 281
147 621
148 237
149 305
150 15
155 401
156 126
157 228
158 34
162 118
163 58
164 171
165 27
166 44
171 91
173 999
174 282
175 701
176 159
177 333
178 51
179 41
190 990
191 307
192 780
193 270
194 335
195 105

$$$$

     RDKit          2D

 13 15  0  0  0  0  0  0  0  0999 V2000
    3.2200   -1.2700    0.0000 C   0  0  0  0  0  0  0  0  0  0  0  0
   -3.2200   -1.2700    0.0000 C   0  0  0  0  0  0  0  0  0  0  0  0
    3.6800    0.1600    0.0000 C   0  0  0  0  0  0  0  0  0  0  0  0
   -3.6800    0.1600    0.0000 C   0  0  0  0  0  0  0  0  0  0  0  0
    1.7500   -1.5800    0.0000 C   0  0  0  0  0  0  0  0  0  0  0  0
   -1.7500   -1.5800    0.0000 C   0  0  0  0  0  0  0  0  0  0  0  0
    2.6800    1.2700    0.0000 C   0  0  0  0  0  0  0  0  0  0  0  0
   -2.6800    1.2700    0.0000 C   0  0  0  0  0  0  0  0  0  0  0  0
    0.7500   -0.4700    0.0000 C   0  0  0  0  0  0  0  0  0  0  0  0
   -0.7500   -0.4700    0.0000 C   0  0  0  0  0  0  0  0  0  0  0  0
    1.2100    0.9600    0.0000 C   0  0  0  0  0  0  0  0  0  0  0  0
   -1.2100    0.9600    0.0000 C   0  0  0  0  0  0  0  0  0  0  0  0
    0.0000    1.8400    0.0000 S   0  0  0  0  0  0  0  0  0  0  0  0
  3  1  2  0
  4  2  2  0
  5  1  1  0
  6  2  1  0
  7  3  1  0
  8  4  1  0
  9  5  2  0
 10  6  2  0
 10  9  1  0
 11  7  2  0
 11  9  1  0
 12  8  2  0
 12 10  1  0
 13 11  1  0
 13 12  1  0
M  END
>  <NAME>  (1635) 
DIBENZOTHIOPHENE

>  <SYNONYMS>  (1635) 


>  <SPECTRUM TYPE>  (1635) 
MS1

>  <INSTRUMENT TYPE>  (1635) 
EI-B

>  <INSTRUMENT>  (1635) 
JEOL JMS-AX-505-H

>  <ION MODE>  (1635) 
P

>  <INCHIKEY>  (1635) 
IYYZUPMFVPLQIF-UHFFFAOYSA-N

>  <FORMULA>  (1635) 
C12H8S

>  <EXACT MASS>  (1635) 
184.034671256

>  <MW>  (1635) 
184

>  <ID>  (1635) 
JP009589

>  <CONTRIBUTOR>  (1635) 
University of Tokyo Team, {Faculty of Engineering, University of Tokyo

>  <COMMENT>  (1635) 
SMILES=c(c3)cc(s1)c(c3)c(c2)c(ccc2)1
InChI=InChI=1S/C12H8S/c1-3-7-11-9(5-1)10-6-2-4-8-12(10)13-11/h1-8H
computed SMILES=S1C=2C=CC=CC2C=3C=CC=CC13
accession=JP009589
date=2016.01.19 (Created 2008.10.21, modified 2011.05.06)
author=HAMAMATSU UNIV. SCHOOL OF MEDICINE
license=CC BY-NC-SA
exact mass=184.03467
ionization energy=70 eV
ion type=[M]+*
computed spectral entropy=2.0033421731387975
computed normalized entropy=0.6223732390238527
SPLASH=splash10-001i-1900000000-340859bcf04890563bce
submitter=submitter = University of Tokyo Team (Faculty of Engineering, University of Tokyo)
MoNA Rating=3.75

>  <NUM PEAKS>  (1635) 
25

>  <MASS SPECTRAL PEAKS>  (1635) 
63 1.76
69 2.02
74 1.37
75 1.37
79 5.23
87 1.21
89 1.22
91 2.2
92 8.74
113 1.7
114 1.35
115 1.15
138 1.87
139 14.34
140 2.44
150 1.12
151 1.82
152 7.89
153 1.16
158 1.78
182 2.21
183 4.76
184 99.99
185 16.14
186 6.15

>  <PREDICTED SPECTRUM>  (1635) 
26 2
27 20
28 24
32 4
37 50
38 49
39 80
40 12
44 28
45 143
49 36
50 125
51 108
52 43
53 18
55 24
56 1
57 43
58 24
61 97
62 143
63 198
64 60
65 31
67 15
68 26
69 235
70 56
71 32
73 23
74 149
75 130
76 114
79 66
80 34
81 83
82 125
83 22
84 36
85 10
86 101
87 108
88 100
89 90
90 9
92 17
93 159
94 40
95 46
96 17
97 0
98 104
99 85
100 109
102 23
104 31
105 45
106 130
107 51
108 111
110 39
111 50
112 29
113 115
114 110
115 42
117 47
123 28
124 54
125 43
126 16
131 23
132 59
133 78
134 57
137 111
138 115
139 356
140 187
144 39
145 53
149 31
150 162
151 123
152 249
153 95
154 58
156 19
157 63
158 111
159 36
160 18
181 1
182 159
183 182
184 999
185 369
186 247
187 57

$$$$

     RDKit          2D

 12 13  0  0  0  0  0  0  0  0999 V2000
   -3.3911    3.6304    0.0000 C   0  0  0  0  0  0  0  0  0  0  0  0
   -2.0915    4.3812    0.0000 C   0  0  0  0  0  0  0  0  0  0  0  0
   -3.3915    2.1295    0.0000 C   0  0  0  0  0  0  0  0  0  0  0  0
   -0.7925    3.6312    0.0000 C   0  0  0  0  0  0  0  0  0  0  0  0
   -2.0925    1.3795    0.0000 C   0  0  0  0  0  0  0  0  0  0  0  0
    2.1316   -0.4242    0.0000 C   0  0  0  0  0  0  0  0  0  0  0  0
    0.6718   -0.1125    0.0000 C   0  0  0  0  0  0  0  0  0  0  0  0
   -0.7930    2.1304    0.0000 C   0  0  0  0  0  0  0  0  0  0  0  0
    2.8816    0.8749    0.0000 C   0  0  0  0  0  0  0  0  0  0  0  0
    1.8818    1.9833    0.0000 N   0  0  0  0  0  0  0  0  0  0  0  0
    0.5060    1.3804    0.0000 N   0  0  0  0  0  0  0  0  0  0  0  0
    4.3733    1.0323    0.0000 O   0  0  0  0  0  0  0  0  0  0  0  0
  2  1  2  0
  3  1  1  0
  4  2  1  0
  5  3  2  0
  7  6  1  0
  8  4  2  0
  8  5  1  0
  9  6  1  0
 10  9  2  0
 11  7  1  0
 11  8  1  0
 11 10  1  0
 12  9  1  0
M  END
>  <NAME>  (1636) 
1-PHENYL-3-PYRAZOLIDONE

>  <SYNONYMS>  (1636) 


>  <SPECTRUM TYPE>  (1636) 
MS1

>  <INSTRUMENT TYPE>  (1636) 
EI-B

>  <INSTRUMENT>  (1636) 
JEOL JMS-AX-505-H

>  <ION MODE>  (1636) 
P

>  <INCHIKEY>  (1636) 
CMCWWLVWPDLCRM-UHFFFAOYSA-N

>  <FORMULA>  (1636) 
C9H10N2O

>  <EXACT MASS>  (1636) 
162.07931294

>  <MW>  (1636) 
162

>  <ID>  (1636) 
JP009588

>  <CONTRIBUTOR>  (1636) 
University of Tokyo Team, {Faculty of Engineering, University of Tokyo

>  <COMMENT>  (1636) 
SMILES=O=C(C2)NN(C2)c(c1)cccc1
InChI=InChI=1S/C9H10N2O/c12-9-6-7-11(10-9)8-4-2-1-3-5-8/h1-5H,6-7H2,(H,10,12)
computed SMILES=OC1=NN(C=2C=CC=CC2)CC1
accession=JP009588
date=2016.01.19 (Created 2008.10.21, modified 2011.05.06)
author=HAMAMATSU UNIV. SCHOOL OF MEDICINE
license=CC BY-NC-SA
exact mass=162.07931
ionization energy=70 eV
ion type=[M]+*
computed spectral entropy=2.8085596293471244
computed normalized entropy=0.7777965872645539
SPLASH=splash10-08i0-7900000000-c37d774964dd44b01660
submitter=submitter = University of Tokyo Team (Faculty of Engineering, University of Tokyo)
MoNA Rating=3.75

>  <NUM PEAKS>  (1636) 
37

>  <MASS SPECTRAL PEAKS>  (1636) 
26 1.13
27 4.77
28 3.51
29 2
38 1.78
39 4.33
50 5.85
51 19.28
52 3.28
55 6.79
63 3.19
64 3.23
65 4.5
66 1.08
74 1.86
75 1.43
76 2.12
77 62.55
78 8.13
79 3.33
91 10.62
92 14.61
93 3.15
104 4.76
105 20.56
106 16.53
107 30.39
108 1.55
117 10.86
118 9.06
119 1.18
120 4.86
133 1.2
160 3.35
161 4.83
162 99.99
163 11.94

>  <PREDICTED SPECTRUM>  (1636) 
14 7
17 12
18 22
25 2
26 62
27 138
28 120
29 131
30 195
31 43
32 2
34 8
36 3
37 72
38 154
39 297
40 175
41 292
42 355
43 164
44 123
47 19
49 89
50 216
51 432
52 239
53 17
54 144
55 191
56 173
57 213
58 49
62 66
63 215
64 262
65 259
66 147
67 123
68 83
69 58
70 86
71 98
72 34
73 92
74 133
75 161
76 110
77 706
78 255
79 221
80 189
81 92
82 93
85 6
89 96
90 54
91 361
92 229
93 161
94 112
104 248
105 362
106 293
107 278
108 86
115 52
116 43
117 149
118 60
119 53
120 66
121 15
122 16
132 82
133 157
134 168
135 44
145 13
159 73
160 208
161 534
162 999
163 310
164 35

$$$$

     RDKit          2D

 10 10  0  0  0  0  0  0  0  0999 V2000
    0.0008   -2.2500    0.0000 C   0  0  0  0  0  0  0  0  0  0  0  0
   -1.2992    0.0000    0.0000 C   0  0  0  0  0  0  0  0  0  0  0  0
   -1.2992   -3.0000    0.0000 C   0  0  0  0  0  0  0  0  0  0  0  0
   -2.5992   -0.7500    0.0000 C   0  0  0  0  0  0  0  0  0  0  0  0
    0.0008   -0.7500    0.0000 C   0  0  0  0  0  0  0  0  0  0  0  0
   -2.5992   -2.2500    0.0000 C   0  0  0  0  0  0  0  0  0  0  0  0
    1.2998    0.0002    0.0000 C   0  0  0  0  0  0  0  0  0  0  0  0
   -3.8981   -3.0002    0.0000 Br  0  0  0  0  0  0  0  0  0  0  0  0
    2.5989   -0.7496    0.0000 O   0  0  0  0  0  0  0  0  0  0  0  0
    1.2995    1.5002    0.0000 O   0  0  0  0  0  0  0  0  0  0  0  0
  3  1  2  0
  4  2  1  0
  5  1  1  0
  5  2  2  0
  6  3  1  0
  6  4  2  0
  7  5  1  0
  8  6  1  0
  9  7  1  0
 10  7  2  0
M  END
>  <NAME>  (1637) 
4-BROMOBENZOIC ACID

>  <SYNONYMS>  (1637) 


>  <SPECTRUM TYPE>  (1637) 
MS1

>  <INSTRUMENT TYPE>  (1637) 
EI-B

>  <INSTRUMENT>  (1637) 
JEOL JMS-AX-505-H

>  <ION MODE>  (1637) 
P

>  <INCHIKEY>  (1637) 
TUXYZHVUPGXXQG-UHFFFAOYSA-N

>  <FORMULA>  (1637) 
C7H5BrO2

>  <EXACT MASS>  (1637) 
199.9472915

>  <MW>  (1637) 
200

>  <ID>  (1637) 
JP009587

>  <CONTRIBUTOR>  (1637) 
University of Tokyo Team, {Faculty of Engineering, University of Tokyo

>  <COMMENT>  (1637) 
SMILES=OC(=O)c(c1)ccc(Br)c1
InChI=InChI=1S/C7H5BrO2/c8-6-3-1-5(2-4-6)7(9)10/h1-4H,(H,9,10)
computed SMILES=O=C(O)C1=CC=C(Br)C=C1
accession=JP009587
date=2016.01.19 (Created 2008.10.21, modified 2011.05.06)
author=HAMAMATSU UNIV. SCHOOL OF MEDICINE
license=CC BY-NC-SA
exact mass=199.94729
ionization energy=70 eV
ion type=[M]+*
computed spectral entropy=2.8486144411220025
computed normalized entropy=0.7573684870518304
SPLASH=splash10-0udi-7980000000-93d2c93456b829c977f1
submitter=submitter = University of Tokyo Team (Faculty of Engineering, University of Tokyo)
MoNA Rating=3.75

>  <NUM PEAKS>  (1637) 
43

>  <MASS SPECTRAL PEAKS>  (1637) 
28 1.06
29 1.12
31 1.28
37 3.73
38 8.02
39 4.51
45 3.75
49 3.26
50 27.22
51 9.21
52 2.32
53 2.05
61 1.38
62 1.26
63 2.16
64 1.08
65 10.26
73 5.35
74 20.77
75 26.86
76 23.71
77 6.99
78 1.1
86 3.4
87 3.52
91 1.56
92 1.46
93 1.7
104 2.35
155 31.9
156 2.99
157 30.96
158 2.04
172 2.19
174 2.02
183 69.85
184 5.96
185 69.92
186 5.66
200 99.99
201 8.4
202 97.13
203 8.05

>  <PREDICTED SPECTRUM>  (1637) 
14 19
16 39
17 30
18 43
25 34
26 41
27 53
28 32
29 97
30 15
31 32
32 17
33 14
34 17
35 20
36 138
37 272
38 374
39 398
40 162
41 95
44 207
45 452
46 136
47 74
48 92
49 216
50 824
51 504
52 168
53 309
54 67
55 28
57 108
58 28
60 128
61 96
62 0
63 349
64 6
65 403
66 144
67 44
68 106
69 234
70 26
73 352
74 597
75 764
76 816
77 413
78 95
79 187
80 126
81 207
82 65
83 12
85 82
86 91
91 121
92 288
93 322
94 38
101 39
103 9
104 272
105 242
106 52
109 14
119 30
121 344
122 18
127 8
129 41
131 157
143 22
154 116
155 615
156 85
157 628
158 63
172 48
183 897
184 219
185 999
186 269
199 120
200 752
201 348
202 715
203 219

$$$$

     RDKit          2D

 11 11  0  0  0  0  0  0  0  0999 V2000
   -2.5989    1.5002    0.0000 C   0  0  0  0  0  0  0  0  0  0  0  0
    5.1970   -1.5006    0.0000 C   0  0  0  0  0  0  0  0  0  0  0  0
   -1.3000   -0.7500    0.0000 C   0  0  0  0  0  0  0  0  0  0  0  0
    0.0000    1.5000    0.0000 C   0  0  0  0  0  0  0  0  0  0  0  0
    0.0000   -1.5000    0.0000 C   0  0  0  0  0  0  0  0  0  0  0  0
    1.3000    0.7500    0.0000 C   0  0  0  0  0  0  0  0  0  0  0  0
   -1.3000    0.7500    0.0000 C   0  0  0  0  0  0  0  0  0  0  0  0
    3.8981   -0.7504    0.0000 C   0  0  0  0  0  0  0  0  0  0  0  0
    1.3000   -0.7500    0.0000 C   0  0  0  0  0  0  0  0  0  0  0  0
    2.5989   -1.5002    0.0000 N   0  0  0  0  0  0  0  0  0  0  0  0
    3.8983    0.7496    0.0000 O   0  0  0  0  0  0  0  0  0  0  0  0
  5  3  2  0
  6  4  1  0
  7  1  1  0
  7  3  1  0
  7  4  2  0
  8  2  1  0
  9  5  1  0
  9  6  2  0
 10  8  2  3
 10  9  1  0
 11  8  1  0
M  END
>  <NAME>  (1638) 
N-ACETYL-PARA-TOLUIDINE

>  <SYNONYMS>  (1638) 


>  <SPECTRUM TYPE>  (1638) 
MS1

>  <INSTRUMENT TYPE>  (1638) 
EI-B

>  <INSTRUMENT>  (1638) 
JEOL JMS-AX-505-H

>  <ION MODE>  (1638) 
P

>  <INCHIKEY>  (1638) 
YICAMJWHIUMFDI-UHFFFAOYSA-N

>  <FORMULA>  (1638) 
C9H11NO

>  <EXACT MASS>  (1638) 
149.084063972

>  <MW>  (1638) 
149

>  <ID>  (1638) 
JP009585

>  <CONTRIBUTOR>  (1638) 
University of Tokyo Team, {Faculty of Engineering, University of Tokyo

>  <COMMENT>  (1638) 
SMILES=CC(=O)Nc(c1)ccc(C)c1
InChI=InChI=1S/C9H11NO/c1-7-3-5-9(6-4-7)10-8(2)11/h3-6H,1-2H3,(H,10,11)
computed SMILES=OC(=NC1=CC=C(C=C1)C)C
accession=JP009585
date=2016.01.19 (Created 2008.10.21, modified 2011.05.06)
author=HAMAMATSU UNIV. SCHOOL OF MEDICINE
license=CC BY-NC-SA
exact mass=149.08406
ionization energy=70 eV
ion type=[M]+*
computed spectral entropy=2.1179274478920385
computed normalized entropy=0.6851822580408042
SPLASH=splash10-0a4i-2900000000-b6a3a5d1998b02f25806
submitter=submitter = University of Tokyo Team (Faculty of Engineering, University of Tokyo)
MoNA Rating=3.75

>  <NUM PEAKS>  (1638) 
22

>  <MASS SPECTRAL PEAKS>  (1638) 
27 1.75
39 3.52
43 14.87
50 2.11
51 5.14
52 3.63
53 2.7
63 2.14
65 2.81
77 14.08
78 5.46
79 7.47
80 1.63
89 1.07
91 3.08
104 2.73
105 1.15
106 71.92
107 99.99
108 8.84
149 58.95
150 6.85

>  <PREDICTED SPECTRUM>  (1638) 
14 8
15 38
16 1
17 10
18 13
26 13
27 87
28 47
32 4
38 36
39 194
40 17
41 70
42 51
43 100
44 46
45 125
46 4
50 101
51 189
52 101
53 91
54 27
58 16
59 23
60 30
61 20
62 41
63 135
64 54
65 405
66 142
67 24
74 46
75 50
76 39
77 266
78 123
79 77
89 116
90 90
91 728
92 317
103 46
104 175
105 145
106 270
107 174
116 77
117 66
118 72
120 17
130 52
131 81
132 153
133 37
134 877
135 269
136 40
146 89
147 95
148 226
149 999
150 328
151 95

$$$$

     RDKit          2D

 10 10  0  0  0  0  0  0  0  0999 V2000
    2.2687   -3.1902    0.0000 C   0  0  0  0  0  0  0  0  0  0  0  0
   -1.6200   -0.9400    0.0000 C   0  0  0  0  0  0  0  0  0  0  0  0
   -0.3300   -1.6900    0.0000 C   0  0  0  0  0  0  0  0  0  0  0  0
   -1.6200    0.5600    0.0000 C   0  0  0  0  0  0  0  0  0  0  0  0
    0.9700    0.5600    0.0000 C   0  0  0  0  0  0  0  0  0  0  0  0
    2.2689   -1.6902    0.0000 C   0  0  0  0  0  0  0  0  0  0  0  0
    0.9700   -0.9400    0.0000 C   0  0  0  0  0  0  0  0  0  0  0  0
   -0.3300    1.3100    0.0000 C   0  0  0  0  0  0  0  0  0  0  0  0
    3.5681   -0.9404    0.0000 O   0  0  0  0  0  0  0  0  0  0  0  0
   -0.3325    2.8100    0.0000 O   0  0  0  0  0  0  0  0  0  0  0  0
  3  2  2  0
  4  2  1  0
  6  1  1  0
  7  3  1  0
  7  5  2  0
  7  6  1  0
  8  4  2  0
  8  5  1  0
  9  6  2  0
 10  8  1  0
M  END
>  <NAME>  (1639) 
3-HYDROXYACETOPHENONE

>  <SYNONYMS>  (1639) 


>  <SPECTRUM TYPE>  (1639) 
MS1

>  <INSTRUMENT TYPE>  (1639) 
EI-B

>  <INSTRUMENT>  (1639) 
JEOL JMS-AX-505-H

>  <ION MODE>  (1639) 
P

>  <INCHIKEY>  (1639) 
LUJMEECXHPYQOF-UHFFFAOYSA-N

>  <FORMULA>  (1639) 
C8H8O2

>  <EXACT MASS>  (1639) 
136.052429496

>  <MW>  (1639) 
136

>  <ID>  (1639) 
JP009584

>  <CONTRIBUTOR>  (1639) 
University of Tokyo Team, {Faculty of Engineering, University of Tokyo

>  <COMMENT>  (1639) 
SMILES=CC(=O)c(c1)cc(O)cc1
InChI=InChI=1S/C8H8O2/c1-6(9)7-3-2-4-8(10)5-7/h2-5,10H,1H3
computed SMILES=O=C(C=1C=CC=C(O)C1)C
accession=JP009584
date=2016.01.19 (Created 2008.10.21, modified 2011.05.06)
author=HAMAMATSU UNIV. SCHOOL OF MEDICINE
license=CC BY-NC-SA
exact mass=136.05243
ionization energy=70 eV
ion type=[M]+*
computed spectral entropy=2.3268027175238073
computed normalized entropy=0.7059823687040313
SPLASH=splash10-00du-8900000000-cb6b7b06b882bd6af109
submitter=submitter = University of Tokyo Team (Faculty of Engineering, University of Tokyo)
MoNA Rating=3.75

>  <NUM PEAKS>  (1639) 
27

>  <MASS SPECTRAL PEAKS>  (1639) 
27 1.19
37 1.09
38 3.46
39 15.35
42 1.03
43 15.77
50 3.06
51 3.25
53 3.12
60 1.13
61 1.44
62 3.25
63 8.49
64 4.44
65 27.55
66 2.6
74 1.66
75 1.14
77 3.12
92 2.85
93 50.13
94 5.37
107 1.38
121 99.99
122 8.31
136 63.43
137 6.18

>  <PREDICTED SPECTRUM>  (1639) 
14 16
15 37
26 22
27 9
37 105
38 179
39 301
40 120
41 100
42 80
43 590
44 57
49 73
50 281
51 346
52 210
53 220
54 16
55 50
61 120
62 215
63 356
64 244
65 465
66 226
67 102
74 88
75 54
76 117
77 157
78 36
79 86
87 22
89 53
91 133
92 121
93 563
94 196
95 47
107 109
121 999
122 269
123 63
136 691
137 218
138 14

$$$$

     RDKit          2D

 16 17  0  0  0  0  0  0  0  0999 V2000
    3.8971    1.0700    0.0000 C   0  0  0  0  0  0  0  0  0  0  0  0
   -5.1962    4.8200    0.0000 C   0  0  0  0  0  0  0  0  0  0  0  0
    3.8976    2.5708    0.0000 C   0  0  0  0  0  0  0  0  0  0  0  0
    2.5976    0.3192    0.0000 C   0  0  0  0  0  0  0  0  0  0  0  0
   -5.1966    3.3192    0.0000 C   0  0  0  0  0  0  0  0  0  0  0  0
   -3.8966    5.5708    0.0000 C   0  0  0  0  0  0  0  0  0  0  0  0
    2.5986    3.3208    0.0000 C   0  0  0  0  0  0  0  0  0  0  0  0
    1.2986    1.0692    0.0000 C   0  0  0  0  0  0  0  0  0  0  0  0
   -3.8976    2.5692    0.0000 C   0  0  0  0  0  0  0  0  0  0  0  0
   -2.5976    4.8208    0.0000 C   0  0  0  0  0  0  0  0  0  0  0  0
    1.2990    2.5700    0.0000 C   0  0  0  0  0  0  0  0  0  0  0  0
   -2.5981    3.3200    0.0000 C   0  0  0  0  0  0  0  0  0  0  0  0
    0.0000    3.3200    0.0000 C   0  0  0  0  0  0  0  0  0  0  0  0
   -1.2990    2.5700    0.0000 C   0  0  0  0  0  0  0  0  0  0  0  0
    0.0000    4.8200    0.0000 O   0  0  0  0  0  0  0  0  0  0  0  0
   -1.2990    1.0700    0.0000 O   0  0  0  0  0  0  0  0  0  0  0  0
  3  1  2  0
  4  1  1  0
  5  2  2  0
  6  2  1  0
  7  3  1  0
  8  4  2  0
  9  5  1  0
 10  6  2  0
 11  7  2  0
 11  8  1  0
 12  9  2  0
 12 10  1  0
 13 11  1  0
 14 12  1  0
 14 13  1  0
 15 13  1  0
 16 14  2  0
M  END
>  <NAME>  (1640) 
BENZOIN

>  <SYNONYMS>  (1640) 


>  <SPECTRUM TYPE>  (1640) 
MS1

>  <INSTRUMENT TYPE>  (1640) 
EI-B

>  <INSTRUMENT>  (1640) 
JEOL JMS-AX-505-H

>  <ION MODE>  (1640) 
P

>  <INCHIKEY>  (1640) 
ISAOCJYIOMOJEB-UHFFFAOYSA-N

>  <FORMULA>  (1640) 
C14H12O2

>  <EXACT MASS>  (1640) 
212.083729624

>  <MW>  (1640) 
212

>  <ID>  (1640) 
JP009581

>  <CONTRIBUTOR>  (1640) 
University of Tokyo Team, {Faculty of Engineering, University of Tokyo

>  <COMMENT>  (1640) 
SMILES=c(c2)ccc(c2)C(O)C(=O)c(c1)cccc1
InChI=InChI=1S/C14H12O2/c15-13(11-7-3-1-4-8-11)14(16)12-9-5-2-6-10-12/h1-10,13,15H
computed SMILES=O=C(C=1C=CC=CC1)C(O)C=2C=CC=CC2
accession=JP009581
date=2016.01.19 (Created 2008.10.21, modified 2011.05.06)
author=HAMAMATSU UNIV. SCHOOL OF MEDICINE
license=CC BY-NC-SA
exact mass=212.08373
ionization energy=70 eV
ion type=[M]+*
computed spectral entropy=2.2424598948093046
computed normalized entropy=0.6882730050015845
SPLASH=splash10-0a6r-6900000000-2f572dbc9a49f3d86fa6
submitter=submitter = University of Tokyo Team (Faculty of Engineering, University of Tokyo)
MoNA Rating=3.75

>  <NUM PEAKS>  (1640) 
26

>  <MASS SPECTRAL PEAKS>  (1640) 
27 2.16
29 1.77
39 2.96
50 4.62
51 17.83
52 2.88
53 1.67
63 1.81
74 1.2
75 1.1
76 1.86
77 56.22
78 9.38
79 38.96
80 2.87
89 1.28
105 99.99
106 13.05
107 71.39
108 6.37
165 1.55
167 1.45
195 6.58
196 1.33
212 4.36
213 2.17

>  <PREDICTED SPECTRUM>  (1640) 
15 15
26 18
27 130
28 79
29 139
31 13
33 4
37 11
38 84
39 170
40 30
41 145
42 105
43 123
44 15
45 53
47 35
49 72
50 294
51 564
52 253
53 141
54 21
55 32
57 30
61 5
62 113
63 247
64 126
65 214
70 77
74 82
75 127
76 148
77 987
78 401
79 800
80 217
87 33
88 61
89 207
90 122
91 241
92 46
96 17
102 3
105 999
106 609
107 959
108 479
109 56
117 11
122 30
165 137
166 11
167 89
194 5
195 79
211 20
212 216
213 72

$$$$

     RDKit          2D

 14 16  0  0  0  0  0  0  0  0999 V2000
    3.0600    2.2000    0.0000 C   0  0  0  0  0  0  0  0  0  0  0  0
    1.7600    2.9500    0.0000 C   0  0  0  0  0  0  0  0  0  0  0  0
   -3.4300   -0.0500    0.0000 C   0  0  0  0  0  0  0  0  0  0  0  0
    3.0600    0.7000    0.0000 C   0  0  0  0  0  0  0  0  0  0  0  0
    0.4600    2.2000    0.0000 C   0  0  0  0  0  0  0  0  0  0  0  0
   -2.1300    0.7000    0.0000 C   0  0  0  0  0  0  0  0  0  0  0  0
    1.7600   -1.5500    0.0000 C   0  0  0  0  0  0  0  0  0  0  0  0
    0.4600   -2.3000    0.0000 C   0  0  0  0  0  0  0  0  0  0  0  0
   -3.4300   -1.5500    0.0000 C   0  0  0  0  0  0  0  0  0  0  0  0
    1.7600   -0.0500    0.0000 C   0  0  0  0  0  0  0  0  0  0  0  0
    0.4600    0.7000    0.0000 C   0  0  0  0  0  0  0  0  0  0  0  0
   -0.8300   -0.0500    0.0000 C   0  0  0  0  0  0  0  0  0  0  0  0
   -0.8300   -1.5500    0.0000 C   0  0  0  0  0  0  0  0  0  0  0  0
   -2.1300   -2.3000    0.0000 N   0  0  0  0  0  0  0  0  0  0  0  0
  2  1  2  0
  4  1  1  0
  5  2  1  0
  6  3  1  0
  8  7  2  0
  9  3  2  0
 10  4  2  0
 10  7  1  0
 11  5  2  0
 11 10  1  0
 12  6  2  0
 12 11  1  0
 13  8  1  0
 13 12  1  0
 14  9  1  0
 14 13  2  0
M  END
>  <NAME>  (1641) 
BENZO(F)QUINOLINE

>  <SYNONYMS>  (1641) 


>  <SPECTRUM TYPE>  (1641) 
MS1

>  <INSTRUMENT TYPE>  (1641) 
EI-B

>  <INSTRUMENT>  (1641) 
JEOL JMS-AX-505-H

>  <ION MODE>  (1641) 
P

>  <INCHIKEY>  (1641) 
HCAUQPZEWLULFJ-UHFFFAOYSA-N

>  <FORMULA>  (1641) 
C13H9N

>  <EXACT MASS>  (1641) 
179.073499288

>  <MW>  (1641) 
179

>  <ID>  (1641) 
JP009580

>  <CONTRIBUTOR>  (1641) 
University of Tokyo Team, {Faculty of Engineering, University of Tokyo

>  <COMMENT>  (1641) 
SMILES=c(c3)cc(c1)c(c3)c(c2)c(ncc2)c1
InChI=InChI=1S/C13H9N/c1-2-5-11-10(4-1)7-8-13-12(11)6-3-9-14-13/h1-9H
computed SMILES=N1=CC=CC=2C1=CC=C3C=CC=CC32
accession=JP009580
date=2016.01.19 (Created 2008.10.21, modified 2011.05.06)
author=HAMAMATSU UNIV. SCHOOL OF MEDICINE
license=CC BY-NC-SA
exact mass=179.0735
ionization energy=70 eV
ion type=[M]+*
computed spectral entropy=2.436516918436523
computed normalized entropy=0.7095299933716052
SPLASH=splash10-004i-2900000000-aaacc4057c354eefecab
submitter=submitter = University of Tokyo Team (Faculty of Engineering, University of Tokyo)
MoNA Rating=3.75

>  <NUM PEAKS>  (1641) 
31

>  <MASS SPECTRAL PEAKS>  (1641) 
31 1
39 1.39
50 2.34
51 2.18
62 2.18
63 6.07
74 3.37
75 6.29
76 12.63
77 1.46
86 1.14
87 1.63
89 6.44
98 1.48
99 1.74
100 1.18
101 1.03
102 1.09
125 1.73
126 4.3
127 1.28
150 8.49
151 17.13
152 13.25
153 3.99
176 1.43
177 5.98
178 23.53
179 99.99
180 18.2
181 1.44

>  <PREDICTED SPECTRUM>  (1641) 
39 34
44 19
49 2
50 74
51 89
52 0
62 61
63 123
64 28
65 18
74 107
75 138
76 78
77 9
81 46
86 17
87 66
88 20
99 31
100 26
101 63
102 32
115 20
124 33
125 43
126 129
127 65
139 83
140 82
149 112
150 177
151 315
152 301
153 164
176 145
177 331
178 595
179 999
180 382
181 52

$$$$

     RDKit          2D

  8  8  0  0  0  0  0  0  0  0999 V2000
   -1.3000    0.7500    0.0000 C   0  0  0  0  0  0  0  0  0  0  0  0
   -0.0000   -1.5000    0.0000 C   0  0  0  0  0  0  0  0  0  0  0  0
    0.0000    1.5000    0.0000 C   0  0  0  0  0  0  0  0  0  0  0  0
    1.3000   -0.7500    0.0000 C   0  0  0  0  0  0  0  0  0  0  0  0
   -1.3000   -0.7500    0.0000 C   0  0  0  0  0  0  0  0  0  0  0  0
    1.3000    0.7500    0.0000 C   0  0  0  0  0  0  0  0  0  0  0  0
   -2.5989   -1.5002    0.0000 Br  0  0  0  0  0  0  0  0  0  0  0  0
    2.5989    1.5002    0.0000 N   0  0  0  0  0  0  0  0  0  0  0  0
  3  1  2  0
  4  2  1  0
  5  1  1  0
  5  2  2  0
  6  3  1  0
  6  4  2  0
  7  5  1  0
  8  6  1  0
M  END
>  <NAME>  (1642) 
4-BROMOANILINE

>  <SYNONYMS>  (1642) 


>  <SPECTRUM TYPE>  (1642) 
MS1

>  <INSTRUMENT TYPE>  (1642) 
EI-B

>  <INSTRUMENT>  (1642) 
JEOL JMS-AX-505-H

>  <ION MODE>  (1642) 
P

>  <INCHIKEY>  (1642) 
WDFQBORIUYODSI-UHFFFAOYSA-N

>  <FORMULA>  (1642) 
C6H6BrN

>  <EXACT MASS>  (1642) 
170.968361292

>  <MW>  (1642) 
171

>  <ID>  (1642) 
JP009579

>  <CONTRIBUTOR>  (1642) 
University of Tokyo Team, {Faculty of Engineering, University of Tokyo

>  <COMMENT>  (1642) 
SMILES=Nc(c1)ccc(Br)c1
InChI=InChI=1S/C6H6BrN/c7-5-1-3-6(8)4-2-5/h1-4H,8H2
computed SMILES=BrC1=CC=C(N)C=C1
accession=JP009579
date=2016.01.19 (Created 2008.10.21, modified 2011.05.06)
author=HAMAMATSU UNIV. SCHOOL OF MEDICINE
license=CC BY-NC-SA
exact mass=170.96836
ionization energy=70 eV
ion type=[M]+*
computed spectral entropy=2.5225611756781414
computed normalized entropy=0.7039340991357892
SPLASH=splash10-00di-9800000000-c60ed627997e6c6dd8cb
submitter=submitter = University of Tokyo Team (Faculty of Engineering, University of Tokyo)
MoNA Rating=3.75

>  <NUM PEAKS>  (1642) 
36

>  <MASS SPECTRAL PEAKS>  (1642) 
29 1.08
31 3.59
37 2.34
38 4.99
39 10.63
41 3.53
45 16.31
46 2.62
50 3.15
51 1.63
52 3.67
57 1.2
61 2.15
62 3.46
63 8.24
64 5
65 54.63
66 5.29
71 1.21
74 1.45
75 1.32
85 7.62
86 7.46
90 1.98
91 6.64
92 59.78
93 5.01
117 1.1
119 1.08
143 1.93
145 2.22
149 2.6
171 99.99
172 7.79
173 97.54
174 6.89

>  <PREDICTED SPECTRUM>  (1642) 
16 4
17 4
25 30
26 57
27 80
28 86
36 4
37 146
38 226
39 252
40 73
41 133
42 32
45 18
46 10
48 37
49 55
50 178
51 86
52 236
53 83
54 62
57 15
60 32
61 126
62 192
63 350
64 333
65 461
66 194
67 36
73 49
74 91
75 105
76 15
79 103
80 176
81 3
90 219
91 340
92 633
93 304
115 37
119 111
143 48
144 57
145 69
146 58
171 999
172 285
173 991
174 280

$$$$

     RDKit          2D

 13 13  0  0  0  0  0  0  0  0999 V2000
    3.3491    0.2013    0.0000 C   0  0  0  0  0  0  0  0  0  0  0  0
    3.8978    2.2504    0.0000 C   0  0  0  0  0  0  0  0  0  0  0  0
    1.8487    2.7991    0.0000 C   0  0  0  0  0  0  0  0  0  0  0  0
   -1.3000    0.7500    0.0000 C   0  0  0  0  0  0  0  0  0  0  0  0
   -0.0000   -1.5000    0.0000 C   0  0  0  0  0  0  0  0  0  0  0  0
    0.0000    1.5000    0.0000 C   0  0  0  0  0  0  0  0  0  0  0  0
    1.3000   -0.7500    0.0000 C   0  0  0  0  0  0  0  0  0  0  0  0
   -1.3000   -0.7500    0.0000 C   0  0  0  0  0  0  0  0  0  0  0  0
    1.3000    0.7500    0.0000 C   0  0  0  0  0  0  0  0  0  0  0  0
   -2.5989   -1.5002    0.0000 C   0  0  0  0  0  0  0  0  0  0  0  0
    2.5989    1.5002    0.0000 C   0  0  0  0  0  0  0  0  0  0  0  0
   -3.8981   -0.7504    0.0000 O   0  0  0  0  0  0  0  0  0  0  0  0
   -2.5987   -3.0002    0.0000 O   0  0  0  0  0  0  0  0  0  0  0  0
  6  4  2  0
  7  5  1  0
  8  4  1  0
  8  5  2  0
  9  6  1  0
  9  7  2  0
 10  8  1  0
 11  1  1  0
 11  2  1  0
 11  3  1  0
 11  9  1  0
 12 10  1  0
 13 10  2  0
M  END
>  <NAME>  (1643) 
4-TERT-BUTYLBENZOIC ACID

>  <SYNONYMS>  (1643) 


>  <SPECTRUM TYPE>  (1643) 
MS1

>  <INSTRUMENT TYPE>  (1643) 
EI-B

>  <INSTRUMENT>  (1643) 
JEOL JMS-AX-505-H

>  <ION MODE>  (1643) 
P

>  <INCHIKEY>  (1643) 
KDVYCTOWXSLNNI-UHFFFAOYSA-N

>  <FORMULA>  (1643) 
C11H14O2

>  <EXACT MASS>  (1643) 
178.099379688

>  <MW>  (1643) 
178

>  <ID>  (1643) 
JP009578

>  <CONTRIBUTOR>  (1643) 
University of Tokyo Team, {Faculty of Engineering, University of Tokyo

>  <COMMENT>  (1643) 
SMILES=OC(=O)c(c1)ccc(c1)C(C)(C)C
InChI=InChI=1S/C11H14O2/c1-11(2,3)9-6-4-8(5-7-9)10(12)13/h4-7H,1-3H3,(H,12,13)
computed SMILES=O=C(O)C1=CC=C(C=C1)C(C)(C)C
accession=JP009578
date=2016.01.19 (Created 2008.10.21, modified 2011.05.06)
author=HAMAMATSU UNIV. SCHOOL OF MEDICINE
license=CC BY-NC-SA
exact mass=178.09938
ionization energy=70 eV
ion type=[M]+*
computed spectral entropy=3.628314312615003
computed normalized entropy=0.8188815916654898
SPLASH=splash10-01rf-9500000000-33fe4a180efeca1f9086
submitter=submitter = University of Tokyo Team (Faculty of Engineering, University of Tokyo)
MoNA Rating=3.75

>  <NUM PEAKS>  (1643) 
84

>  <MASS SPECTRAL PEAKS>  (1643) 
27 8.47
28 1.39
29 8.78
38 1.74
39 24.73
40 2.53
41 55.42
42 2.58
43 1.96
45 7.04
50 9.41
51 20.33
52 4.28
53 5.14
55 5.61
56 1.79
57 6.99
58 6.1
59 5.41
62 2.33
63 8.26
64 2.31
65 13.31
66 2.37
67 1.69
68 1.26
69 7.48
70 1.21
71 2.88
72 8.88
73 4.73
74 3.51
75 5.82
76 5.17
77 28.43
78 6.46
79 21.8
80 2.28
81 4.9
82 1.52
83 2.03
84 1.13
85 1.18
87 1.12
89 4.57
90 3.77
91 59.18
92 5.81
93 2.47
95 1.89
96 1.14
97 1.73
98 1.03
101 2.21
102 3.86
103 8
104 1.51
105 7.4
107 8.36
109 1.04
111 1.04
115 11.33
116 3.06
117 8.36
118 4.71
119 4.2
120 1.09
121 1.03
123 3.03
131 1.55
133 1.69
135 39.4
136 4.53
137 1.55
145 3.28
147 1.69
149 1.01
161 1.7
162 1.2
163 99.99
164 14.27
165 1.43
178 20.68
179 2.84

>  <PREDICTED SPECTRUM>  (1643) 
14 24
15 87
16 9
17 16
18 32
26 22
27 128
28 46
29 135
31 6
36 20
37 49
38 96
39 249
40 87
41 277
42 41
43 252
44 41
45 129
47 52
49 45
50 187
51 267
52 137
53 191
54 21
55 146
57 147
58 79
59 138
60 58
61 99
62 119
63 211
64 155
65 267
66 126
67 137
68 6
69 19
71 12
73 117
74 103
75 166
76 114
77 362
78 178
79 202
80 38
81 78
82 38
83 19
85 0
86 59
87 56
88 63
89 174
90 73
91 359
92 110
93 89
95 37
97 17
101 41
102 132
103 208
104 104
105 226
106 58
107 146
109 11
115 312
116 141
117 242
118 185
119 208
120 73
121 82
122 1
123 38
128 34
129 96
130 49
131 135
132 40
133 172
134 54
135 290
136 80
137 33
144 10
145 136
146 64
147 129
148 61
149 48
159 56
160 88
161 187
162 17
163 999
164 316
165 103
177 19
178 284
179 77
180 4

$$$$

     RDKit          2D

 26 29  0  0  0  0  0  0  0  0999 V2000
   -2.4779   -4.2733    0.0000 C   0  0  0  0  0  0  0  0  0  0  0  0
    4.3226   -5.7081    0.0000 C   0  0  0  0  0  0  0  0  0  0  0  0
   -2.3100    0.7500    0.0000 C   0  0  0  0  0  0  0  0  0  0  0  0
   -2.3100   -0.7500    0.0000 C   0  0  0  0  0  0  0  0  0  0  0  0
   -1.0100    1.5000    0.0000 C   0  0  0  0  0  0  0  0  0  0  0  0
   -1.0100   -1.5000    0.0000 C   0  0  0  0  0  0  0  0  0  0  0  0
    1.9965   -3.7942    0.0000 C   0  0  0  0  0  0  0  0  0  0  0  0
    4.3189   -1.2081    0.0000 C   0  0  0  0  0  0  0  0  0  0  0  0
    1.3892   -5.1666    0.0000 C   0  0  0  0  0  0  0  0  0  0  0  0
    5.6195   -1.9570    0.0000 C   0  0  0  0  0  0  0  0  0  0  0  0
   -0.3791   -2.7411    0.0000 C   0  0  0  0  0  0  0  0  0  0  0  0
    3.0208   -3.4591    0.0000 C   0  0  0  0  0  0  0  0  0  0  0  0
   -0.9864   -4.1136    0.0000 C   0  0  0  0  0  0  0  0  0  0  0  0
    4.3214   -4.2081    0.0000 C   0  0  0  0  0  0  0  0  0  0  0  0
    1.1124   -2.5814    0.0000 C   0  0  0  0  0  0  0  0  0  0  0  0
    3.0195   -1.9591    0.0000 C   0  0  0  0  0  0  0  0  0  0  0  0
    0.2900    0.7500    0.0000 C   0  0  0  0  0  0  0  0  0  0  0  0
    0.2900   -0.7500    0.0000 C   0  0  0  0  0  0  0  0  0  0  0  0
   -0.1023   -5.3263    0.0000 C   0  0  0  0  0  0  0  0  0  0  0  0
    5.6208   -3.4570    0.0000 C   0  0  0  0  0  0  0  0  0  0  0  0
    1.7200    1.2100    0.0000 C   0  0  0  0  0  0  0  0  0  0  0  0
    1.7200   -1.2100    0.0000 C   0  0  0  0  0  0  0  0  0  0  0  0
   -0.7099   -6.6978    0.0000 O   0  0  0  0  0  0  0  0  0  0  0  0
    6.9203   -4.2062    0.0000 O   0  0  0  0  0  0  0  0  0  0  0  0
    2.1853    2.6360    0.0000 O   0  0  0  0  0  0  0  0  0  0  0  0
    2.6000    0.0000    0.0000 O   0  0  0  0  0  0  0  0  0  0  0  0
  4  3  2  0
  5  3  1  0
  6  4  1  0
  9  7  2  0
 10  8  2  0
 13  1  1  0
 13 11  1  0
 14  2  1  0
 14 12  1  0
 15  7  1  0
 15 11  2  0
 16  8  1  0
 16 12  2  0
 17  5  2  0
 18  6  2  0
 18 17  1  0
 19  9  1  0
 19 13  2  0
 20 10  1  0
 20 14  2  0
 21 17  1  0
 22 15  1  0
 22 16  1  0
 22 18  1  0
 23 19  1  0
 24 20  1  0
 25 21  2  0
 26 21  1  0
 26 22  1  0
M  END
>  <NAME>  (1644) 
ORTHO-CRESOLPHTHALEIN

>  <SYNONYMS>  (1644) 


>  <SPECTRUM TYPE>  (1644) 
MS1

>  <INSTRUMENT TYPE>  (1644) 
EI-B

>  <INSTRUMENT>  (1644) 
JEOL JMS-AX-505-H

>  <ION MODE>  (1644) 
P

>  <INCHIKEY>  (1644) 
CPBJMKMKNCRKQB-UHFFFAOYSA-N

>  <FORMULA>  (1644) 
C22H18O4

>  <EXACT MASS>  (1644) 
346.120509056

>  <MW>  (1644) 
346

>  <ID>  (1644) 
JP009577

>  <CONTRIBUTOR>  (1644) 
University of Tokyo Team, {Faculty of Engineering, University of Tokyo

>  <COMMENT>  (1644) 
SMILES=Oc(c4)c(C)cc(c4)C(O1)(c(c3)cc(C)c(O)c3)c(c2)c(ccc2)C(=O)1
InChI=InChI=1S/C22H18O4/c1-13-11-15(7-9-19(13)23)22(16-8-10-20(24)14(2)12-16)18-6-4-3-5-17(18)21(25)26-22/h3-12,23-24H,1-2H3
computed SMILES=O=C1OC(C2=CC=C(O)C(=C2)C)(C3=CC=C(O)C(=C3)C)C=4C=CC=CC14
accession=JP009577
date=2016.01.19 (Created 2008.10.21, modified 2011.05.06)
author=HAMAMATSU UNIV. SCHOOL OF MEDICINE
license=CC BY-NC-SA
exact mass=346.12051
ionization energy=70 eV
ion type=[M]+*
computed spectral entropy=3.7805297363931363
computed normalized entropy=0.8027403105599945
SPLASH=splash10-000i-1494000000-823277f980f6385662f8
submitter=submitter = University of Tokyo Team (Faculty of Engineering, University of Tokyo)
MoNA Rating=3.75

>  <NUM PEAKS>  (1644) 
111

>  <MASS SPECTRAL PEAKS>  (1644) 
27 1.08
39 2.48
51 2.2
52 1.08
53 1.98
55 1.7
63 1.41
75 1.39
76 5.14
77 10.5
78 2.09
79 3.85
88 1.15
89 1.03
91 1.85
94 1.02
101 2.22
104 5.45
105 3.47
106 1.38
107 5.02
108 1.02
113 3.21
114 1.24
115 2.9
119 3.29
120 1.68
121 1.25
125 1.2
126 1.86
127 1.77
128 2.23
129 1.49
133 1.66
134 2.6
135 16.43
136 2.31
139 2.37
141 1.29
142 1.08
143 2.62
150 1.42
151 1.96
152 5.46
153 3.45
154 1.27
155 2.09
163 1.73
164 3.09
165 10.43
166 2.94
168 3.4
173 4.23
176 1.26
181 3.76
182 1.71
183 1.34
189 2.42
193 1.31
194 3.51
195 10.5
196 2.55
197 1.05
202 3.47
203 1.32
210 1.04
211 11.54
212 2.12
213 2.46
214 2.11
215 4.14
216 1.43
226 3.77
227 2.26
228 2.05
229 1.63
231 1.6
238 1.07
239 35.5
240 7.76
241 2.28
242 1.82
243 1.43
244 2.39
245 1.46
252 1.07
255 3
256 1.49
257 3.02
258 3.31
259 1.45
268 1.07
269 2.1
271 2.73
272 1.49
273 1.32
284 1.17
285 14.96
286 4.28
287 99.99
288 24.59
289 3.72
301 20.05
302 43.68
303 10.42
304 1.47
317 1.18
345 1.3
346 47.76
347 12.97
348 2.08

>  <PREDICTED SPECTRUM>  (1644) 
34 2
39 131
40 20
41 63
42 30
43 100
44 121
45 8
50 61
51 166
52 62
53 53
57 46
58 3
62 9
63 134
64 39
65 123
66 23
69 6
70 83
71 38
74 21
75 85
76 104
77 229
78 119
79 6
82 31
87 19
88 20
89 119
90 29
91 150
92 31
94 1
95 7
100 13
101 68
102 104
103 53
104 122
105 83
106 23
107 50
108 17
113 60
114 64
115 269
116 68
117 62
118 46
119 56
120 61
121 75
122 63
123 23
126 114
127 88
128 139
129 116
130 86
131 80
132 55
133 9
134 26
135 4
137 30
139 93
140 13
141 64
142 20
143 20
144 86
145 55
146 13
147 8
148 5
150 63
151 137
152 228
153 170
154 104
155 120
156 23
157 70
158 51
164 27
165 216
166 131
167 158
168 124
169 71
170 81
171 35
172 52
173 51
174 45
175 14
176 43
179 39
180 50
181 161
182 165
183 143
184 44
185 48
189 116
191 42
192 80
193 72
194 164
195 97
196 77
197 180
198 218
199 171
200 77
203 14
204 18
208 92
209 91
210 78
211 134
212 122
213 43
214 21
215 17
216 54
220 0
222 72
223 140
224 144
225 252
226 251
227 177
228 22
231 5
237 89
238 127
239 154
240 34
241 64
242 35
243 18
244 22
251 98
255 101
256 95
257 51
258 104
259 69
260 61
269 150
270 136
271 60
272 33
273 122
274 4
283 14
284 51
285 215
286 241
287 253
288 172
289 12
298 13
299 48
300 7
301 267
302 448
303 634
304 317
305 54
329 110
330 2
331 209
332 63
345 95
346 999
347 478
348 229
349 36

$$$$

     RDKit          2D

 11 12  0  0  0  0  0  0  0  0999 V2000
   -2.9400   -0.8900    0.0000 C   0  0  0  0  0  0  0  0  0  0  0  0
   -2.9400    0.6100    0.0000 C   0  0  0  0  0  0  0  0  0  0  0  0
   -1.6400   -1.6400    0.0000 C   0  0  0  0  0  0  0  0  0  0  0  0
   -1.6400    1.3700    0.0000 C   0  0  0  0  0  0  0  0  0  0  0  0
    0.9500   -1.6200    0.0000 C   0  0  0  0  0  0  0  0  0  0  0  0
    2.2300   -0.8800    0.0000 C   0  0  0  0  0  0  0  0  0  0  0  0
   -0.3600   -0.8700    0.0000 C   0  0  0  0  0  0  0  0  0  0  0  0
   -0.3600    0.5900    0.0000 C   0  0  0  0  0  0  0  0  0  0  0  0
    2.2300    0.6000    0.0000 C   0  0  0  0  0  0  0  0  0  0  0  0
    3.5314    1.3458    0.0000 O   0  0  0  0  0  0  0  0  0  0  0  0
    0.9500    1.3500    0.0000 O   0  0  0  0  0  0  0  0  0  0  0  0
  2  1  2  0
  3  1  1  0
  4  2  1  0
  6  5  2  0
  7  3  2  0
  7  5  1  0
  8  4  2  0
  8  7  1  0
  9  6  1  0
 10  9  2  0
 11  8  1  0
 11  9  1  0
M  END
>  <NAME>  (1645) 
COUMARIN

>  <SYNONYMS>  (1645) 


>  <SPECTRUM TYPE>  (1645) 
MS1

>  <INSTRUMENT TYPE>  (1645) 
EI-B

>  <INSTRUMENT>  (1645) 
JEOL JMS-AX-505-H

>  <ION MODE>  (1645) 
P

>  <INCHIKEY>  (1645) 
ZYGHJZDHTFUPRJ-UHFFFAOYSA-N

>  <FORMULA>  (1645) 
C9H6O2

>  <EXACT MASS>  (1645) 
146.036779432

>  <MW>  (1645) 
146

>  <ID>  (1645) 
JP009576

>  <CONTRIBUTOR>  (1645) 
University of Tokyo Team, {Faculty of Engineering, University of Tokyo

>  <COMMENT>  (1645) 
SMILES=O=C(C=1)Oc(c2)c(ccc2)C1
InChI=InChI=1S/C9H6O2/c10-9-6-5-7-3-1-2-4-8(7)11-9/h1-6H
computed SMILES=O=C1OC=2C=CC=CC2C=C1
accession=JP009576
date=2016.01.19 (Created 2008.10.21, modified 2011.05.06)
author=HAMAMATSU UNIV. SCHOOL OF MEDICINE
license=CC BY-NC-SA
exact mass=146.03678
ionization energy=70 eV
ion type=[M]+*
computed spectral entropy=2.7732832300935577
computed normalized entropy=0.7623965751788984
SPLASH=splash10-02tj-9600000000-4a54f8d648a87a9c5811
submitter=submitter = University of Tokyo Team (Faculty of Engineering, University of Tokyo)
MoNA Rating=3.75

>  <NUM PEAKS>  (1645) 
38

>  <MASS SPECTRAL PEAKS>  (1645) 
26 2.74
27 2.51
28 2.79
29 1.37
31 1.59
37 4.7
38 10.36
39 14.87
40 2.84
43 4.19
44 2.18
45 7.34
49 2.02
50 10.37
51 12.6
52 1.33
53 2.31
59 6.91
61 5.77
62 13.84
63 32.86
64 13.03
73 1.64
74 4.11
75 2.97
76 1.21
85 1.44
86 2.57
87 2.19
88 1.18
89 41.26
90 50
91 4.17
92 3
118 99.99
119 10.51
146 82.85
147 9.73

>  <PREDICTED SPECTRUM>  (1645) 
25 7
26 50
27 35
28 82
29 2
37 123
38 180
39 289
40 80
41 34
44 64
49 55
50 328
51 430
52 218
53 99
61 185
62 316
63 518
64 273
65 111
66 100
68 23
69 9
70 18
74 216
75 120
76 180
77 85
78 57
79 58
86 126
87 163
88 115
89 576
90 641
91 304
92 51
98 19
106 1
117 279
118 999
119 316
145 108
146 900
147 274

$$$$

     RDKit          2D

 10 10  0  0  0  0  0  0  0  0999 V2000
   -2.2915    1.3193    0.0000 C   0  0  0  0  0  0  0  0  0  0  0  0
    1.6056    2.0565    0.0000 C   0  0  0  0  0  0  0  0  0  0  0  0
    0.2920   -0.1684    0.0000 C   0  0  0  0  0  0  0  0  0  0  0  0
    2.8901    1.3316    0.0000 C   0  0  0  0  0  0  0  0  0  0  0  0
    1.6165   -0.9625    0.0000 C   0  0  0  0  0  0  0  0  0  0  0  0
   -0.9888    2.0629    0.0000 C   0  0  0  0  0  0  0  0  0  0  0  0
    0.3065    1.3065    0.0000 C   0  0  0  0  0  0  0  0  0  0  0  0
    2.9156   -0.2125    0.0000 C   0  0  0  0  0  0  0  0  0  0  0  0
   -0.9814    3.5628    0.0000 O   0  0  0  0  0  0  0  0  0  0  0  0
    4.2207   -0.9518    0.0000 O   0  0  0  0  0  0  0  0  0  0  0  0
  4  2  2  0
  5  3  1  0
  6  1  1  0
  7  2  1  0
  7  3  2  0
  7  6  1  0
  8  4  1  0
  8  5  2  0
  9  6  2  0
 10  8  1  0
M  END
>  <NAME>  (1646) 
4-HYDROXYACETOPHENONE

>  <SYNONYMS>  (1646) 


>  <SPECTRUM TYPE>  (1646) 
MS1

>  <INSTRUMENT TYPE>  (1646) 
EI-B

>  <INSTRUMENT>  (1646) 
JEOL JMS-AX-505-H

>  <ION MODE>  (1646) 
P

>  <INCHIKEY>  (1646) 
TXFPEBPIARQUIG-UHFFFAOYSA-N

>  <FORMULA>  (1646) 
C8H8O2

>  <EXACT MASS>  (1646) 
136.052429496

>  <MW>  (1646) 
136

>  <ID>  (1646) 
JP009575

>  <CONTRIBUTOR>  (1646) 
University of Tokyo Team, {Faculty of Engineering, University of Tokyo

>  <COMMENT>  (1646) 
SMILES=CC(=O)c(c1)ccc(O)c1
InChI=InChI=1S/C8H8O2/c1-6(9)7-2-4-8(10)5-3-7/h2-5,10H,1H3
computed SMILES=O=C(C1=CC=C(O)C=C1)C
accession=JP009575
date=2016.01.19 (Created 2008.10.21, modified 2011.05.06)
author=HAMAMATSU UNIV. SCHOOL OF MEDICINE
license=CC BY-NC-SA
exact mass=136.05243
ionization energy=70 eV
ion type=[M]+*
computed spectral entropy=2.676813770896935
computed normalized entropy=0.7306588586341499
SPLASH=splash10-00du-9700000000-34294e3a6071ba63678d
submitter=submitter = University of Tokyo Team (Faculty of Engineering, University of Tokyo)
MoNA Rating=3.75

>  <NUM PEAKS>  (1646) 
39

>  <MASS SPECTRAL PEAKS>  (1646) 
27 2.46
28 7.79
29 3.09
31 3.51
32 1.65
37 1.47
38 4.71
39 22.83
40 1.3
42 1.32
43 12.94
44 1.02
46 1.37
50 3.74
51 4.34
52 1.35
53 4.53
54 1.32
55 1.19
60 1.73
61 1.87
62 3.32
63 7.42
64 4.28
65 31.31
66 3.18
74 1.63
75 1.19
77 3.79
79 1.48
92 2.9
93 42.3
94 4
107 1.91
120 1.02
121 99.99
122 8.97
136 38.59
137 3.91

>  <PREDICTED SPECTRUM>  (1646) 
14 28
15 100
16 4
25 0
26 55
27 106
28 51
29 118
33 3
34 0
37 120
38 192
39 323
40 133
41 76
42 74
43 574
44 54
49 40
50 248
51 290
52 157
53 245
54 54
55 111
58 1
60 15
61 127
62 200
63 327
64 251
65 445
66 218
67 103
74 98
75 108
76 108
77 219
78 98
79 120
81 18
89 70
91 143
92 280
93 344
94 165
95 108
107 111
108 4
119 21
120 85
121 999
122 305
123 93
136 688
137 226
138 56

$$$$

     RDKit          2D

  9  9  0  0  0  0  0  0  0  0999 V2000
    0.6473    1.8688    0.0000 C   0  0  0  0  0  0  0  0  0  0  0  0
   -0.6473    1.1266    0.0000 C   0  0  0  0  0  0  0  0  0  0  0  0
    1.9463    1.1188    0.0000 C   0  0  0  0  0  0  0  0  0  0  0  0
    0.6513   -1.1242    0.0000 C   0  0  0  0  0  0  0  0  0  0  0  0
   -1.9469   -1.1240    0.0000 C   0  0  0  0  0  0  0  0  0  0  0  0
   -0.6477   -0.3742    0.0000 C   0  0  0  0  0  0  0  0  0  0  0  0
    1.9508   -0.3734    0.0000 C   0  0  0  0  0  0  0  0  0  0  0  0
   -3.2458   -0.3738    0.0000 O   0  0  0  0  0  0  0  0  0  0  0  0
    3.2511   -1.1212    0.0000 O   0  0  0  0  0  0  0  0  0  0  0  0
  2  1  2  0
  3  1  1  0
  6  2  1  0
  6  4  2  0
  6  5  1  0
  7  3  2  0
  7  4  1  0
  8  5  2  0
  9  7  1  0
M  END
>  <NAME>  (1647) 
3-HYDROXYBENZALDEHYDE

>  <SYNONYMS>  (1647) 


>  <SPECTRUM TYPE>  (1647) 
MS1

>  <INSTRUMENT TYPE>  (1647) 
EI-B

>  <INSTRUMENT>  (1647) 
JEOL JMS-AX-505-H

>  <ION MODE>  (1647) 
P

>  <INCHIKEY>  (1647) 
IAVREABSGIHHMO-UHFFFAOYSA-N

>  <FORMULA>  (1647) 
C7H6O2

>  <EXACT MASS>  (1647) 
122.036779432

>  <MW>  (1647) 
122

>  <ID>  (1647) 
JP009573

>  <CONTRIBUTOR>  (1647) 
University of Tokyo Team, {Faculty of Engineering, University of Tokyo

>  <COMMENT>  (1647) 
SMILES=O=Cc(c1)cc(O)cc1
InChI=InChI=1S/C7H6O2/c8-5-6-2-1-3-7(9)4-6/h1-5,9H
computed SMILES=O=CC=1C=CC=C(O)C1
computed spectral entropy=2.7625241978452495
accession=JP009573
date=2016.01.19 (Created 2008.10.21, modified 2011.05.06)
author=HAMAMATSU UNIV. SCHOOL OF MEDICINE
license=CC BY-NC-SA
exact mass=122.03678
ionization energy=70 eV
ion type=[M]+*
computed normalized entropy=0.7594388356846626
SPLASH=splash10-00di-9500000000-a38c126d44548ebb0b6d
submitter=submitter = University of Tokyo Team (Faculty of Engineering, University of Tokyo)
MoNA Rating=3.75

>  <NUM PEAKS>  (1647) 
38

>  <MASS SPECTRAL PEAKS>  (1647) 
26 1.44
27 2.64
28 28.08
29 6.25
31 2.52
32 7.31
37 4.57
38 10.68
39 37.41
40 5.75
41 1.26
43 1.31
49 1.42
50 6.91
51 5.66
53 6.96
55 4.06
57 1.02
61 4.27
62 7.19
63 14.58
64 6.6
65 46.87
66 12.78
67 1.28
69 4.01
73 1.18
74 3.8
75 2.47
76 1.67
77 1.35
92 2.68
93 52.18
94 10.53
119 1.23
121 89.9
122 99.99
123 8.38

>  <PREDICTED SPECTRUM>  (1647) 
26 8
27 11
28 3
29 78
33 15
36 21
37 100
38 172
39 295
40 100
44 29
45 17
46 4
49 51
50 224
51 274
52 72
53 191
54 7
55 53
58 10
60 30
61 102
62 159
63 295
64 139
65 453
66 202
67 30
68 48
73 52
74 108
75 124
76 161
77 104
81 52
92 125
93 275
94 219
95 53
96 42
105 40
121 999
122 878
123 315
124 57

$$$$

     RDKit          2D

 11 11  0  0  0  0  0  0  0  0999 V2000
    1.5668    2.3416    0.0000 C   0  0  0  0  0  0  0  0  0  0  0  0
   -2.2773    1.5771    0.0000 C   0  0  0  0  0  0  0  0  0  0  0  0
   -1.0129    2.3223    0.0000 C   0  0  0  0  0  0  0  0  0  0  0  0
   -2.3074    0.0902    0.0000 C   0  0  0  0  0  0  0  0  0  0  0  0
    0.2712    1.5858    0.0000 C   0  0  0  0  0  0  0  0  0  0  0  0
   -1.0045   -0.6926    0.0000 C   0  0  0  0  0  0  0  0  0  0  0  0
    0.2805    0.0869    0.0000 C   0  0  0  0  0  0  0  0  0  0  0  0
   -1.0013   -2.1926    0.0000 C   0  0  0  0  0  0  0  0  0  0  0  0
    1.5899   -0.6449    0.0000 O   0  0  0  0  0  0  0  0  0  0  0  0
    0.2993   -2.9399    0.0000 O   0  0  0  0  0  0  0  0  0  0  0  0
   -2.2988   -2.9454    0.0000 O   0  0  0  0  0  0  0  0  0  0  0  0
  3  2  2  0
  4  2  1  0
  5  1  1  0
  5  3  1  0
  6  4  2  0
  7  5  2  0
  7  6  1  0
  8  6  1  0
  9  7  1  0
 10  8  2  0
 11  8  1  0
M  END
>  <NAME>  (1648) 
2-HYDROXY-3-METHYLBENZOIC ACID

>  <SYNONYMS>  (1648) 


>  <SPECTRUM TYPE>  (1648) 
MS1

>  <INSTRUMENT TYPE>  (1648) 
EI-B

>  <INSTRUMENT>  (1648) 
JEOL JMS-AX-505-H

>  <ION MODE>  (1648) 
P

>  <INCHIKEY>  (1648) 
WHSXTWFYRGOBGO-UHFFFAOYSA-N

>  <FORMULA>  (1648) 
C8H8O3

>  <EXACT MASS>  (1648) 
152.04734411599998

>  <MW>  (1648) 
152

>  <ID>  (1648) 
JP009572

>  <CONTRIBUTOR>  (1648) 
University of Tokyo Team, {Faculty of Engineering, University of Tokyo

>  <COMMENT>  (1648) 
SMILES=OC(=O)c(c1)c(O)c(C)cc1
InChI=InChI=1S/C8H8O3/c1-5-3-2-4-6(7(5)9)8(10)11/h2-4,9H,1H3,(H,10,11)
computed SMILES=O=C(O)C1=CC=CC(=C1O)C
accession=JP009572
date=2016.01.19 (Created 2008.10.21, modified 2011.05.06)
author=HAMAMATSU UNIV. SCHOOL OF MEDICINE
license=CC BY-NC-SA
exact mass=152.04734
ionization energy=70 eV
ion type=[M]+*
computed spectral entropy=2.8875186830671438
computed normalized entropy=0.7541888581456151
SPLASH=splash10-0pe9-5900000000-cf8848c42302842dd0c8
submitter=submitter = University of Tokyo Team (Faculty of Engineering, University of Tokyo)
MoNA Rating=3.75

>  <NUM PEAKS>  (1648) 
46

>  <MASS SPECTRAL PEAKS>  (1648) 
26 1.05
27 6.09
28 22.55
29 1.77
31 1.2
32 6.14
37 1.53
38 3.95
39 13.62
40 1.07
41 2.37
43 1.28
45 2.12
50 7.68
51 20.34
52 11.71
53 9.77
55 1.97
57 1.1
61 1.13
62 2.39
63 5.35
64 1.08
65 1.67
66 2.31
67 5.3
69 1.94
73 1.2
74 2.4
75 1.83
76 4.62
77 28.38
78 35.03
79 5.63
81 1.69
89 1.02
105 35.67
106 99.99
107 12.09
108 1.39
133 6.13
134 94.75
135 14.75
136 1.56
152 66.9
153 7.59

>  <PREDICTED SPECTRUM>  (1648) 
17 7
18 12
26 54
27 161
28 71
29 86
31 16
36 9
37 117
38 169
39 433
40 153
41 203
42 69
44 29
45 225
49 77
50 376
51 504
52 346
53 336
54 66
55 161
56 27
57 105
58 44
60 40
61 97
62 131
63 286
64 168
65 189
66 128
67 166
68 47
69 28
70 11
71 25
73 30
74 201
75 300
76 257
77 666
78 536
79 369
80 111
81 36
83 42
86 20
89 12
91 27
103 19
104 73
105 540
106 874
107 366
108 140
133 307
134 999
135 283
136 73
152 717
153 202
154 60

$$$$

     RDKit          2D

 16 17  0  0  0  0  0  0  0  0999 V2000
   -0.0000   -1.9300    0.0000 C   0  0  0  0  0  0  0  0  0  0  0  0
    3.8971    4.8200    0.0000 C   0  0  0  0  0  0  0  0  0  0  0  0
   -1.3000   -1.1800    0.0000 C   0  0  0  0  0  0  0  0  0  0  0  0
    1.3000   -1.1800    0.0000 C   0  0  0  0  0  0  0  0  0  0  0  0
    3.8976    3.3192    0.0000 C   0  0  0  0  0  0  0  0  0  0  0  0
    2.5976    5.5708    0.0000 C   0  0  0  0  0  0  0  0  0  0  0  0
   -1.3000    0.3200    0.0000 C   0  0  0  0  0  0  0  0  0  0  0  0
    1.3000    0.3200    0.0000 C   0  0  0  0  0  0  0  0  0  0  0  0
    2.5986    2.5692    0.0000 C   0  0  0  0  0  0  0  0  0  0  0  0
    1.2986    4.8208    0.0000 C   0  0  0  0  0  0  0  0  0  0  0  0
   -0.0000    1.0700    0.0000 C   0  0  0  0  0  0  0  0  0  0  0  0
    1.2990    3.3200    0.0000 C   0  0  0  0  0  0  0  0  0  0  0  0
   -1.2990    3.3200    0.0000 C   0  0  0  0  0  0  0  0  0  0  0  0
   -1.2990    4.8200    0.0000 N   0  0  0  0  0  0  0  0  0  0  0  0
    0.0000    2.5700    0.0000 N   0  0  0  0  0  0  0  0  0  0  0  0
   -2.5981    2.5700    0.0000 S   0  0  0  0  0  0  0  0  0  0  0  0
  3  1  2  0
  4  1  1  0
  5  2  2  0
  6  2  1  0
  7  3  1  0
  8  4  2  0
  9  5  1  0
 10  6  2  0
 11  7  2  0
 11  8  1  0
 12  9  2  0
 12 10  1  0
 14 13  2  0
 15 11  1  0
 15 12  1  0
 15 13  1  0
 16 13  1  0
M  END
>  <NAME>  (1649) 
1,1-DIPHENYLTHIOUREA

>  <SYNONYMS>  (1649) 


>  <SPECTRUM TYPE>  (1649) 
MS1

>  <INSTRUMENT TYPE>  (1649) 
EI-B

>  <INSTRUMENT>  (1649) 
JEOL JMS-AX-505-H

>  <ION MODE>  (1649) 
P

>  <INCHIKEY>  (1649) 
FPZXQVCYHDMIIA-UHFFFAOYSA-N

>  <FORMULA>  (1649) 
C13H12N2S

>  <EXACT MASS>  (1649) 
228.072119384

>  <MW>  (1649) 
228

>  <ID>  (1649) 
JP009570

>  <CONTRIBUTOR>  (1649) 
University of Tokyo Team, {Faculty of Engineering, University of Tokyo

>  <COMMENT>  (1649) 
SMILES=NC(=S)N(c(c2)cccc2)c(c1)cccc1
InChI=InChI=1S/C13H12N2S/c14-13(16)15(11-7-3-1-4-8-11)12-9-5-2-6-10-12/h1-10H,(H2,14,16)
computed SMILES=N=C(S)N(C=1C=CC=CC1)C=2C=CC=CC2
accession=JP009570
date=2016.01.19 (Created 2008.10.21, modified 2011.05.06)
author=HAMAMATSU UNIV. SCHOOL OF MEDICINE
license=CC BY-NC-SA
exact mass=228.07212
ionization energy=70 eV
ion type=[M]+*
computed spectral entropy=3.441226930412438
computed normalized entropy=0.7898684689073484
SPLASH=splash10-016r-6910000000-2544cce240ac414f4dc1
submitter=submitter = University of Tokyo Team (Faculty of Engineering, University of Tokyo)
MoNA Rating=3.75

>  <NUM PEAKS>  (1649) 
78

>  <MASS SPECTRAL PEAKS>  (1649) 
27 2.07
28 58.93
29 1.42
32 15.51
38 1.21
39 7.58
40 1.23
41 2.4
43 2.96
45 1.94
50 4.56
51 25.37
52 2.39
55 2.88
57 2.94
60 7.21
62 1.03
63 3.73
64 3.12
65 7.74
66 11.06
67 1.66
69 3.25
70 1.06
71 1.64
74 1.44
75 1.71
76 2.73
77 38.24
78 3.8
81 1.34
82 1.18
83 2.89
84 1.79
85 1.02
89 1.48
90 1.19
91 8.42
92 2.2
93 1.41
95 1.05
96 1.35
97 2.27
103 1.85
104 5.23
109 1.55
110 5.19
111 1.04
114 3.28
115 4
116 1.09
118 12.23
119 99.99
120 10.06
129 1.19
139 3.12
140 2.8
141 3.23
142 1.78
143 1.13
149 1.39
151 1.46
152 1.45
153 1.05
154 1.83
166 7.9
167 25.97
168 35.38
169 34.73
170 4.83
192 1.83
193 9.98
194 46.89
195 8.18
227 5.76
228 40.43
229 7.16
230 2.43

>  <PREDICTED SPECTRUM>  (1649) 
27 44
31 9
32 3
33 27
34 9
37 42
38 96
39 285
40 101
41 153
42 56
43 161
44 86
45 117
46 14
47 39
48 15
50 254
51 623
52 159
53 81
54 55
55 118
56 74
57 75
59 38
60 62
61 85
62 107
63 266
64 171
65 298
66 190
67 44
69 36
70 39
71 136
72 8
73 17
74 210
75 24
77 813
78 274
79 17
83 39
84 88
85 69
86 0
87 73
88 15
89 78
90 29
91 191
92 10
93 171
100 88
102 56
103 163
104 134
109 54
110 40
111 74
112 14
113 83
114 105
115 330
116 100
117 86
118 33
119 45
128 125
137 11
138 18
139 300
140 323
141 75
142 120
143 71
144 14
145 61
146 84
156 54
163 193
164 28
165 133
166 307
167 934
168 999
169 701
170 286
171 55
172 13
179 9
180 112
181 211
182 46
184 88
187 43
188 7
195 172
196 411
203 10
212 32
213 49
214 1
224 0
226 71
227 143
228 541
229 191
230 88

$$$$

     RDKit          2D

 13 13  0  0  0  0  0  0  0  0999 V2000
   -1.3000    0.7500    0.0000 C   0  0  0  0  0  0  0  0  0  0  0  0
    0.0000    1.5000    0.0000 C   0  0  0  0  0  0  0  0  0  0  0  0
    0.0000   -1.5000    0.0000 C   0  0  0  0  0  0  0  0  0  0  0  0
   -1.3000   -0.7500    0.0000 C   0  0  0  0  0  0  0  0  0  0  0  0
    1.3000   -0.7500    0.0000 C   0  0  0  0  0  0  0  0  0  0  0  0
    1.3000    0.7500    0.0000 C   0  0  0  0  0  0  0  0  0  0  0  0
   -2.5989   -1.5002    0.0000 N   0  0  0  0  0  0  0  0  0  0  0  0
    2.5989   -1.5002    0.0000 N   0  0  0  0  0  0  0  0  0  0  0  0
    2.5989    1.5002    0.0000 O   0  0  0  0  0  0  0  0  0  0  0  0
   -3.8981   -0.7504    0.0000 O   0  0  0  0  0  0  0  0  0  0  0  0
   -2.5987   -3.0002    0.0000 O   0  0  0  0  0  0  0  0  0  0  0  0
    3.8981   -0.7504    0.0000 O   0  0  0  0  0  0  0  0  0  0  0  0
    2.5987   -3.0002    0.0000 O   0  0  0  0  0  0  0  0  0  0  0  0
  2  1  2  0
  4  1  1  0
  4  3  2  0
  5  3  1  0
  6  2  1  0
  6  5  2  0
  7  4  1  0
  8  5  1  0
  9  6  1  0
 10  7  1  0
 11  7  2  0
 12  8  1  0
 13  8  2  0
M  CHG  4   7   1   8   1  10  -1  12  -1
M  END
>  <NAME>  (1650) 
2,4-DINITROPHENOL

>  <SYNONYMS>  (1650) 


>  <SPECTRUM TYPE>  (1650) 
MS1

>  <INSTRUMENT TYPE>  (1650) 
EI-B

>  <INSTRUMENT>  (1650) 
JEOL JMS-AX-505-H

>  <ION MODE>  (1650) 
P

>  <INCHIKEY>  (1650) 
UFBJCMHMOXMLKC-UHFFFAOYSA-N

>  <FORMULA>  (1650) 
C6H4N2O5

>  <EXACT MASS>  (1650) 
184.01202122799998

>  <MW>  (1650) 
184

>  <ID>  (1650) 
JP009569

>  <CONTRIBUTOR>  (1650) 
University of Tokyo Team, {Faculty of Engineering, University of Tokyo

>  <COMMENT>  (1650) 
SMILES=[O-1][N+1](=O)c(c1)cc([N+1]([O-1])=O)c(O)c1
InChI=InChI=1S/C6H4N2O5/c9-6-2-1-4(7(10)11)3-5(6)8(12)13/h1-3,9H
computed SMILES=O=N(=O)C1=CC=C(O)C(=C1)N(=O)=O
accession=JP009569
date=2016.01.19 (Created 2008.10.21, modified 2011.05.06)
author=HAMAMATSU UNIV. SCHOOL OF MEDICINE
license=CC BY-NC-SA
exact mass=184.01202
ionization energy=70 eV
ion type=[M]+*
computed spectral entropy=3.43245784878742
computed normalized entropy=0.8079231947384024
SPLASH=splash10-0gz9-9200000000-e0169c5ed661f777992d
submitter=submitter = University of Tokyo Team (Faculty of Engineering, University of Tokyo)
MoNA Rating=3.75

>  <NUM PEAKS>  (1650) 
70

>  <MASS SPECTRAL PEAKS>  (1650) 
25 1.15
26 7.09
27 3.86
28 92.99
29 7.16
30 61.83
31 2.99
32 26.97
37 12.48
38 27.46
39 18.65
40 2.07
41 1.08
42 3.54
43 1.07
44 3.39
45 2.28
46 3.45
49 3.16
50 16.58
51 34.93
52 24.31
53 71.78
54 6.66
55 4.71
60 1.23
61 13.95
62 42.71
63 85.26
64 32.98
65 7.5
66 5.94
67 2.93
68 5.67
69 5.17
70 1.51
73 1.37
74 4.55
75 3.9
76 4.55
77 5.4
78 1.43
79 41.42
80 9.25
81 1.13
82 1.03
90 2.43
91 59.12
92 33.98
93 20.95
94 1.67
96 2.14
104 1.32
105 1.14
107 46.86
108 8.18
109 1.16
119 1.01
120 1.77
121 1.72
126 2.12
138 3.65
151 1.54
154 40.86
155 3.1
167 1.02
168 4.39
184 99.99
185 8.95
186 1.66

>  <PREDICTED SPECTRUM>  (1650) 
14 26
15 51
16 29
17 15
18 57
25 22
26 65
27 110
28 114
29 172
30 603
31 69
32 30
36 60
37 224
38 335
39 269
40 152
41 1
44 126
45 175
46 339
49 70
50 471
51 561
52 489
53 636
54 179
55 253
59 38
61 352
62 572
63 901
64 522
65 492
66 261
67 179
68 108
69 238
70 116
74 368
75 358
76 231
77 131
78 149
79 499
80 432
81 312
82 113
86 25
90 162
91 388
92 474
93 414
94 235
96 116
97 2
98 68
106 108
107 208
108 280
109 272
110 41
121 276
122 181
126 102
137 143
138 132
154 353
155 38
167 162
168 125
184 999
185 266
186 47

$$$$

     RDKit          2D

 13 14  0  0  0  0  0  0  0  0999 V2000
   -2.6000   -0.7500    0.0000 C   0  0  0  0  0  0  0  0  0  0  0  0
   -2.6000    0.7500    0.0000 C   0  0  0  0  0  0  0  0  0  0  0  0
   -1.3000   -1.5000    0.0000 C   0  0  0  0  0  0  0  0  0  0  0  0
   -1.3000    1.5000    0.0000 C   0  0  0  0  0  0  0  0  0  0  0  0
    2.6000   -0.7500    0.0000 C   0  0  0  0  0  0  0  0  0  0  0  0
    0.0000   -0.7500    0.0000 C   0  0  0  0  0  0  0  0  0  0  0  0
    0.0000    0.7500    0.0000 C   0  0  0  0  0  0  0  0  0  0  0  0
    1.3000   -1.5000    0.0000 C   0  0  0  0  0  0  0  0  0  0  0  0
    2.6000    0.7500    0.0000 C   0  0  0  0  0  0  0  0  0  0  0  0
    1.3000    1.5000    0.0000 C   0  0  0  0  0  0  0  0  0  0  0  0
    1.3000   -3.0000    0.0000 Cl  0  0  0  0  0  0  0  0  0  0  0  0
    3.8989    1.5002    0.0000 Cl  0  0  0  0  0  0  0  0  0  0  0  0
    1.3000    3.0000    0.0000 O   0  0  0  0  0  0  0  0  0  0  0  0
  2  1  2  0
  3  1  1  0
  4  2  1  0
  6  3  2  0
  7  4  2  0
  7  6  1  0
  8  5  2  0
  8  6  1  0
  9  5  1  0
 10  7  1  0
 10  9  2  0
 11  8  1  0
 12  9  1  0
 13 10  1  0
M  END
>  <NAME>  (1651) 
2,4-DICHLORO-1-NAPHTOL

>  <SYNONYMS>  (1651) 


>  <SPECTRUM TYPE>  (1651) 
MS1

>  <INSTRUMENT TYPE>  (1651) 
EI-B

>  <INSTRUMENT>  (1651) 
JEOL JMS-AX-505-H

>  <ION MODE>  (1651) 
P

>  <INCHIKEY>  (1651) 
HVLJEMXDXOTWLV-UHFFFAOYSA-N

>  <FORMULA>  (1651) 
C10H6Cl2O

>  <EXACT MASS>  (1651) 
211.979570172

>  <MW>  (1651) 
212

>  <ID>  (1651) 
JP009567

>  <CONTRIBUTOR>  (1651) 
University of Tokyo Team, {Faculty of Engineering, University of Tokyo

>  <COMMENT>  (1651) 
SMILES=Clc(c1)c(O)c(c2)c(ccc2)c(Cl)1
InChI=InChI=1S/C10H6Cl2O/c11-8-5-9(12)10(13)7-4-2-1-3-6(7)8/h1-5,13H
computed SMILES=ClC=1C=C(Cl)C=2C=CC=CC2C1O
accession=JP009567
date=2016.01.19 (Created 2008.10.21, modified 2011.05.06)
author=HAMAMATSU UNIV. SCHOOL OF MEDICINE
license=CC BY-NC-SA
exact mass=211.97957
ionization energy=70 eV
ion type=[M]+*
computed spectral entropy=3.321008197619977
computed normalized entropy=0.7898337639009181
SPLASH=splash10-03di-6980000000-4d8c305a901b64d5f7cb
submitter=submitter = University of Tokyo Team (Faculty of Engineering, University of Tokyo)
MoNA Rating=3.75

>  <NUM PEAKS>  (1651) 
67

>  <MASS SPECTRAL PEAKS>  (1651) 
28 2.49
29 1
31 1.27
36 2.86
37 1.17
38 1.41
39 4.34
43 1.75
50 3.63
51 2.46
53 1.84
55 3.81
56 18.62
57 2.75
61 4.35
62 6.81
63 13.25
64 1.37
71 1.36
73 4.61
74 29.81
75 12.54
76 1.59
85 2.94
86 7.59
87 8.59
88 5.39
89 1.91
92 3.38
93 2.04
97 3.12
98 1.71
99 2.17
101 1.25
106 8.08
107 5.43
108 1.52
109 1.38
110 1.93
111 1.9
112 1.07
113 35.89
114 10.83
115 1.3
121 2
123 2.02
129 1.66
147 3.19
148 33.52
149 54.34
150 16.59
151 18.9
152 1.97
157 1.17
177 4.44
178 1.07
179 1.54
183 7.72
185 5.01
192 1.87
211 1.79
212 99.99
213 14.32
214 68.46
215 8.98
216 13.02
217 1.48

>  <PREDICTED SPECTRUM>  (1651) 
28 21
36 33
39 4
43 55
49 44
50 137
51 123
57 54
61 60
62 126
63 181
73 37
74 180
75 219
76 111
77 94
84 94
85 191
86 137
87 219
88 74
89 35
91 1
96 44
97 119
98 145
99 76
100 36
101 32
111 29
112 79
113 480
114 260
115 102
120 92
121 184
122 100
123 97
124 44
142 22
147 104
148 358
149 514
150 236
151 148
152 13
176 91
177 270
178 204
179 83
180 32
183 153
184 17
185 130
186 40
187 22
211 106
212 999
213 318
214 739
215 213
216 260
217 20

$$$$

     RDKit          2D

 14 14  0  0  0  0  0  0  0  0999 V2000
   -1.7792   -1.1452    0.0000 C   0  0  0  0  0  0  0  0  0  0  0  0
   -0.1554   -2.3260    0.0000 C   0  0  0  0  0  0  0  0  0  0  0  0
   -1.5265    1.8822    0.0000 C   0  0  0  0  0  0  0  0  0  0  0  0
    1.6482    0.5858    0.0000 C   0  0  0  0  0  0  0  0  0  0  0  0
    0.4382    1.4758    0.0000 C   0  0  0  0  0  0  0  0  0  0  0  0
    1.1882   -0.8342    0.0000 C   0  0  0  0  0  0  0  0  0  0  0  0
    2.0704   -2.0473    0.0000 C   0  0  0  0  0  0  0  0  0  0  0  0
   -2.5795   -0.2220    0.0000 C   0  0  0  0  0  0  0  0  0  0  0  0
   -0.3118   -0.8342    0.0000 C   0  0  0  0  0  0  0  0  0  0  0  0
   -0.7718    0.5858    0.0000 C   0  0  0  0  0  0  0  0  0  0  0  0
    1.4609   -3.4179    0.0000 O   0  0  0  0  0  0  0  0  0  0  0  0
    3.5622   -1.8899    0.0000 O   0  0  0  0  0  0  0  0  0  0  0  0
   -2.7342   -1.7140    0.0000 O   0  0  0  0  0  0  0  0  0  0  0  0
   -3.7942    0.6580    0.0000 O   0  0  0  0  0  0  0  0  0  0  0  0
  5  4  1  0
  6  4  1  0
  7  6  1  0
  9  1  1  0
  9  2  1  0
  9  6  1  0
 10  3  1  0
 10  5  1  0
 10  8  1  0
 10  9  1  0
 11  7  2  0
 12  7  1  0
 13  8  2  0
 14  8  1  0
M  END
>  <NAME>  (1652) 
1,2,2-TRIMETHYL-1,3-CYCLOPENTANEDICARBOXYLIC ACID

>  <SYNONYMS>  (1652) 


>  <SPECTRUM TYPE>  (1652) 
MS1

>  <INSTRUMENT TYPE>  (1652) 
EI-B

>  <INSTRUMENT>  (1652) 
JEOL JMS-AX-505-H

>  <ION MODE>  (1652) 
P

>  <INCHIKEY>  (1652) 
LSPHULWDVZXLIL-UHFFFAOYSA-N

>  <FORMULA>  (1652) 
C10H16O4

>  <EXACT MASS>  (1652) 
200.104858992

>  <MW>  (1652) 
200

>  <ID>  (1652) 
JP009565

>  <CONTRIBUTOR>  (1652) 
University of Tokyo Team, {Faculty of Engineering, University of Tokyo

>  <COMMENT>  (1652) 
SMILES=OC(=O)C(C1)C(C)(C)C(C)(C(O)=O)C1
InChI=InChI=1S/C10H16O4/c1-9(2)6(7(11)12)4-5-10(9,3)8(13)14/h6H,4-5H2,1-3H3,(H,11,12)(H,13,14)
computed SMILES=O=C(O)C1CCC(C(=O)O)(C)C1(C)C
accession=JP009565
date=2016.01.19 (Created 2008.10.21, modified 2011.05.06)
author=HAMAMATSU UNIV. SCHOOL OF MEDICINE
license=CC BY-NC-SA
exact mass=200.10486
ionization energy=70 eV
ion type=[M]+*
computed spectral entropy=3.9600364255801503
computed normalized entropy=0.8656364181668318
SPLASH=splash10-0ap0-9500000000-2870c01c3ad0bda7f8b6
submitter=submitter = University of Tokyo Team (Faculty of Engineering, University of Tokyo)
MoNA Rating=3.75

>  <NUM PEAKS>  (1652) 
97

>  <MASS SPECTRAL PEAKS>  (1652) 
26 1.45
27 25.96
28 6.25
29 20.6
30 1.68
31 19.97
32 12.11
38 1.59
39 36.17
40 7.91
41 75.12
42 8.08
43 27.18
44 1.69
45 15.45
46 1.02
50 1.68
51 6.22
52 3.06
53 22.19
54 8.92
55 42.44
56 7.13
57 5.71
58 1.86
59 28.23
60 1.9
63 1.85
65 7.13
66 2.98
67 36.83
68 70.83
69 46.19
70 12.25
71 5.22
72 1.13
73 8.7
74 1.92
77 10.18
78 2.22
79 9.74
80 2.92
81 12.63
82 28.63
83 22.38
84 4.07
85 7.04
86 4.03
87 21.56
88 1.61
91 7.37
92 1.3
93 20.59
94 5.59
95 31.94
96 36.43
97 7.79
98 4.27
99 12.68
100 7.94
101 4.96
105 1.19
107 5.06
108 46.02
109 71.92
110 9.97
111 15.44
112 5.66
113 11.39
114 15.58
115 2.83
121 9.59
122 2.99
123 2.29
124 2.93
125 5.3
126 3.48
127 1.42
128 1.09
135 2.54
136 99.99
137 22.21
138 5.19
139 20.74
140 11.21
141 1.63
142 1.09
149 3.56
154 69.5
155 11.54
156 1.6
164 49.85
165 6.4
167 2.55
172 1.51
182 14.71
183 3.59

>  <PREDICTED SPECTRUM>  (1652) 
18 23
26 12
27 332
28 37
29 271
31 137
38 63
39 512
40 184
41 999
42 288
43 845
44 180
45 544
46 32
47 35
50 174
51 257
52 134
53 527
54 247
55 949
56 572
57 412
58 98
59 457
60 143
63 75
65 231
66 112
67 681
68 228
69 810
70 306
71 454
72 156
73 417
74 172
75 10
77 293
78 104
79 222
80 33
81 667
82 538
83 700
84 177
85 318
86 152
87 322
88 42
89 13
91 310
93 221
94 102
95 472
96 280
97 177
98 123
99 517
100 360
101 328
107 169
108 272
109 845
110 370
111 362
112 97
113 131
114 40
117 74
118 80
123 15
124 44
125 209
126 216
127 250
136 220
137 601
138 285
139 499
140 166
141 125
142 34
145 67
154 714
155 555
156 266
167 254
182 304
183 223
185 189

$$$$

     RDKit          2D

 25 29  0  0  0  0  0  0  0  0999 V2000
   -4.3724    4.2906    0.0000 C   0  0  0  0  0  0  0  0  0  0  0  0
   -4.8360    2.8640    0.0000 C   0  0  0  0  0  0  0  0  0  0  0  0
   -2.9052    4.6025    0.0000 C   0  0  0  0  0  0  0  0  0  0  0  0
   -3.8323    1.7493    0.0000 C   0  0  0  0  0  0  0  0  0  0  0  0
   -5.0486    0.4295    0.0000 C   0  0  0  0  0  0  0  0  0  0  0  0
    2.7456    0.4295    0.0000 C   0  0  0  0  0  0  0  0  0  0  0  0
   -3.7496    1.1795    0.0000 C   0  0  0  0  0  0  0  0  0  0  0  0
    1.4466    1.1795    0.0000 C   0  0  0  0  0  0  0  0  0  0  0  0
   -3.7496   -1.8205    0.0000 C   0  0  0  0  0  0  0  0  0  0  0  0
    1.4466   -1.8205    0.0000 C   0  0  0  0  0  0  0  0  0  0  0  0
   -5.0486   -1.0705    0.0000 C   0  0  0  0  0  0  0  0  0  0  0  0
    2.7456   -1.0705    0.0000 C   0  0  0  0  0  0  0  0  0  0  0  0
   -1.9015    3.4877    0.0000 C   0  0  0  0  0  0  0  0  0  0  0  0
   -2.3650    2.0612    0.0000 C   0  0  0  0  0  0  0  0  0  0  0  0
   -2.4506    0.4295    0.0000 C   0  0  0  0  0  0  0  0  0  0  0  0
    0.1475    0.4295    0.0000 C   0  0  0  0  0  0  0  0  0  0  0  0
   -2.4506   -1.0705    0.0000 C   0  0  0  0  0  0  0  0  0  0  0  0
    0.1475   -1.0705    0.0000 C   0  0  0  0  0  0  0  0  0  0  0  0
   -0.4015    3.4877    0.0000 C   0  0  0  0  0  0  0  0  0  0  0  0
   -1.1515    1.1795    0.0000 C   0  0  0  0  0  0  0  0  0  0  0  0
   -6.3477   -1.8205    0.0000 O   0  0  0  0  0  0  0  0  0  0  0  0
    4.0446   -1.8205    0.0000 O   0  0  0  0  0  0  0  0  0  0  0  0
    0.4802    4.7013    0.0000 O   0  0  0  0  0  0  0  0  0  0  0  0
   -1.1515   -1.8205    0.0000 O   0  0  0  0  0  0  0  0  0  0  0  0
    0.0620    2.0612    0.0000 O   0  0  0  0  0  0  0  0  0  0  0  0
  2  1  2  0
  3  1  1  0
  4  2  1  0
  7  5  2  0
  8  6  1  0
 11  5  1  0
 11  9  2  0
 12  6  2  0
 12 10  1  0
 13  3  2  0
 14  4  2  0
 14 13  1  0
 15  7  1  0
 16  8  2  0
 17  9  1  0
 17 15  2  0
 18 10  2  0
 18 16  1  0
 19 13  1  0
 20 14  1  0
 20 15  1  0
 20 16  1  0
 21 11  1  0
 22 12  1  0
 23 19  2  0
 24 17  1  0
 24 18  1  0
 25 19  1  0
 25 20  1  0
M  END
>  <NAME>  (1653) 
FLUORESCEIN

>  <SYNONYMS>  (1653) 
3',6'-DIHYDROXYSPIRO(ISOBENZOFURAN-1(3H),9'-(9H)XANTHEN)-3-ONE

>  <SPECTRUM TYPE>  (1653) 
MS1

>  <INSTRUMENT TYPE>  (1653) 
EI-B

>  <INSTRUMENT>  (1653) 
HITACHI M-80

>  <ION MODE>  (1653) 
P

>  <INCHIKEY>  (1653) 
GNBHRKFJIUUOQI-UHFFFAOYSA-N

>  <FORMULA>  (1653) 
C20H12O5

>  <EXACT MASS>  (1653) 
332.068473484

>  <MW>  (1653) 
332

>  <ID>  (1653) 
JP009560

>  <CONTRIBUTOR>  (1653) 
University of Tokyo Team, {Faculty of Engineering, University of Tokyo

>  <COMMENT>  (1653) 
SMILES=Oc(c5)cc(O1)c(c5)C(O3)(c(c4)c(ccc4)C(=O)3)c(c2)c(cc(O)c2)1
cas=2321-07-5
InChI=InChI=1S/C20H12O5/c21-11-5-7-15-17(9-11)24-18-10-12(22)6-8-16(18)20(15)14-4-2-1-3-13(14)19(23)25-20/h1-10,21-22H
computed SMILES=O=C1OC2(C3=CC=C(O)C=C3OC4=CC(O)=CC=C42)C=5C=CC=CC15
accession=JP009560
date=2016.01.19 (Created 2008.10.21, modified 2011.05.06)
author=NARA WOMEN'S UNIVERSITY
license=CC BY-NC-SA
exact mass=332.06847
ionization energy=70 eV
ion type=[M]+*
computed spectral entropy=3.5184803179182746
computed normalized entropy=0.7726340438425077
SPLASH=splash10-000i-2290000000-eaff9e9aba714ba94d70
submitter=submitter = University of Tokyo Team (Faculty of Engineering, University of Tokyo)
MoNA Rating=3.75

>  <NUM PEAKS>  (1653) 
95

>  <MASS SPECTRAL PEAKS>  (1653) 
39 3.15
41 2.34
43 3.9
44 2.62
50 3.23
51 2.94
52 1.28
53 2.5
55 2.74
62 1.42
63 4.01
65 1.36
67 1.16
69 3.71
71 2.63
74 1.99
75 3.49
76 6.79
77 2.73
79 1.54
81 2.23
86 1.1
87 1.85
88 3.44
89 1.44
91 1.2
93 2.04
94 1.36
95 1.26
100 2.76
101 4.98
104 4.03
105 1.62
106 1.01
107 2.61
108 1.31
109 1.27
110 1.14
113 1.11
115 2.41
121 2.31
126 1.23
127 1.26
128 1.02
129 2.65
135 4.68
136 2.03
137 2.79
138 4.09
139 3.35
144 7.75
149 1.24
150 2.27
151 1.96
152 2.88
163 2.45
170 1.04
174 1.41
175 2.05
176 4
177 1.03
186 1.37
187 2.98
188 1.65
189 4.6
190 1.1
198 1.07
199 1.22
200 6.25
201 4.86
202 13.51
203 2.83
205 1.26
211 1.22
212 1.2
213 5.3
214 1.28
229 2.94
231 2.23
240 1.17
242 1.49
258 8.09
259 4.58
260 1.09
271 32.54
272 6.83
273 1.35
287 99.99
288 69.68
289 13.13
290 1.74
303 2.28
331 1.39
332 3.28
333 1

>  <PREDICTED SPECTRUM>  (1653) 
15 24
16 10
17 31
18 59
26 13
27 61
28 46
29 93
38 31
39 67
40 40
41 69
42 97
43 156
44 191
45 110
49 0
50 101
51 158
52 79
53 140
54 81
55 178
56 47
57 124
58 113
60 52
61 25
62 84
63 139
64 71
65 106
66 27
67 61
68 56
69 150
70 62
71 93
72 53
73 46
74 90
75 108
76 158
77 130
78 65
79 28
80 53
81 51
82 136
83 84
84 101
85 62
86 116
87 131
88 73
89 135
90 45
91 81
92 59
93 86
94 90
95 103
96 55
97 78
98 125
99 130
100 104
101 168
102 98
103 29
104 22
105 63
106 110
107 100
108 101
109 71
110 110
111 118
112 68
113 201
114 117
115 183
116 74
117 55
118 61
119 60
120 42
121 74
122 62
123 131
124 43
125 106
126 165
127 138
128 133
129 151
130 62
131 61
132 12
133 77
135 22
136 24
137 167
138 113
139 103
141 85
142 108
143 167
144 138
145 156
146 59
147 7
149 66
150 96
151 216
152 191
153 77
154 42
155 88
156 56
157 71
158 13
159 112
161 75
162 30
163 113
165 41
166 57
167 43
168 63
169 103
170 117
171 149
173 118
174 73
175 131
176 111
177 112
178 187
179 81
180 43
181 22
182 18
183 93
184 140
185 158
186 107
187 84
188 110
189 145
190 147
191 35
197 41
198 81
199 106
200 240
201 264
202 359
203 121
204 82
205 69
206 3
211 70
212 92
213 190
214 135
215 82
216 67
217 40
219 13
223 9
224 29
225 109
226 77
227 125
228 73
229 146
230 228
231 142
232 136
239 64
240 68
241 374
242 198
243 203
244 132
245 129
246 103
247 87
253 150
254 49
255 278
256 203
257 214
258 290
259 202
260 142
270 128
271 591
272 419
273 306
274 149
275 53
285 33
286 43
287 916
288 999
289 456
290 219
318 12
331 54
332 250
333 123
334 22

$$$$

     RDKit          2D

 16 16  0  0  0  0  0  0  0  0999 V2000
   -3.3491   -0.2013    0.0000 C   0  0  0  0  0  0  0  0  0  0  0  0
   -3.8978   -2.2504    0.0000 C   0  0  0  0  0  0  0  0  0  0  0  0
   -1.8487   -2.7991    0.0000 C   0  0  0  0  0  0  0  0  0  0  0  0
    1.8487   -2.7991    0.0000 C   0  0  0  0  0  0  0  0  0  0  0  0
    3.8978   -2.2504    0.0000 C   0  0  0  0  0  0  0  0  0  0  0  0
    3.3491   -0.2013    0.0000 C   0  0  0  0  0  0  0  0  0  0  0  0
   -1.3000    0.7500    0.0000 C   0  0  0  0  0  0  0  0  0  0  0  0
    1.3000    0.7500    0.0000 C   0  0  0  0  0  0  0  0  0  0  0  0
    0.0000    1.5000    0.0000 C   0  0  0  0  0  0  0  0  0  0  0  0
   -1.3000   -0.7500    0.0000 C   0  0  0  0  0  0  0  0  0  0  0  0
    1.3000   -0.7500    0.0000 C   0  0  0  0  0  0  0  0  0  0  0  0
    0.0000   -1.5000    0.0000 C   0  0  0  0  0  0  0  0  0  0  0  0
   -2.5989   -1.5002    0.0000 C   0  0  0  0  0  0  0  0  0  0  0  0
    2.5989   -1.5002    0.0000 C   0  0  0  0  0  0  0  0  0  0  0  0
    0.0000    3.0000    0.0000 O   0  0  0  0  0  0  0  0  0  0  0  0
   -0.0000   -3.0000    0.0000 O   0  0  0  0  0  0  0  0  0  0  0  0
  9  7  1  0
  9  8  1  0
 10  7  2  0
 11  8  2  0
 12 10  1  0
 12 11  1  0
 13  1  1  0
 13  2  1  0
 13  3  1  0
 13 10  1  0
 14  4  1  0
 14  5  1  0
 14  6  1  0
 14 11  1  0
 15  9  2  0
 16 12  2  0
M  END
>  <NAME>  (1654) 
2,6-DI-TERT-BUTYL-1,4-BENZOQUINONE

>  <SYNONYMS>  (1654) 


>  <SPECTRUM TYPE>  (1654) 
MS1

>  <INSTRUMENT TYPE>  (1654) 
EI-B

>  <INSTRUMENT>  (1654) 
HITACHI M-80

>  <ION MODE>  (1654) 
P

>  <INCHIKEY>  (1654) 
RDQSIADLBQFVMY-UHFFFAOYSA-N

>  <FORMULA>  (1654) 
C14H20O2

>  <EXACT MASS>  (1654) 
220.14632988

>  <MW>  (1654) 
220

>  <ID>  (1654) 
JP009558

>  <CONTRIBUTOR>  (1654) 
University of Tokyo Team, {Faculty of Engineering, University of Tokyo

>  <COMMENT>  (1654) 
SMILES=O=c(c1)cc(C(C)(C)C)c(=O)c1C(C)(C)C
cas=719-22-2
InChI=InChI=1S/C14H20O2/c1-13(2,3)10-7-9(15)8-11(12(10)16)14(4,5)6/h7-8H,1-6H3
computed SMILES=O=C1C=C(C(=O)C(=C1)C(C)(C)C)C(C)(C)C
accession=JP009558
date=2016.01.19 (Created 2008.10.21, modified 2011.05.06)
author=NARA WOMEN'S UNIVERSITY
license=CC BY-NC-SA
exact mass=220.14633
ionization energy=70 eV
ion type=[M]+*
computed spectral entropy=3.989178523437921
computed normalized entropy=0.864371473915105
SPLASH=splash10-00b9-8920000000-ebc9402c163c4b9965f3
submitter=submitter = University of Tokyo Team (Faculty of Engineering, University of Tokyo)
MoNA Rating=3.75

>  <NUM PEAKS>  (1654) 
101

>  <MASS SPECTRAL PEAKS>  (1654) 
15 3.29
17 2.55
18 11.82
27 6.37
28 27.66
29 16.87
32 5.89
39 14.82
40 3.58
41 48.55
42 3.28
43 16.96
50 1.13
51 5.43
52 3.15
53 11.53
54 2.78
55 10.03
56 2.58
57 26.94
58 1.27
63 1.86
65 10.85
66 5.35
67 41.09
68 3.37
69 5.22
77 12.15
78 3.24
79 11.67
80 2.35
81 9.29
82 2.96
83 2.54
91 21.83
92 3.47
93 8.49
94 2.67
95 16.73
96 1.99
103 3.11
104 1.5
105 11.35
106 2.21
107 12.82
108 3.85
109 7.62
110 6.07
111 1.99
115 3.51
116 1.4
117 4.9
118 1.59
119 11.87
120 2.43
121 14.26
122 4.21
123 6.19
124 1.43
128 1.71
129 2.22
131 3.66
132 1.13
133 6.88
134 4.26
135 37.25
136 19.95
137 4.93
138 3.41
143 1.09
144 3.25
145 2.74
146 1.63
147 5.24
148 1.81
149 26.99
150 7.53
151 1.85
159 9.66
160 1.64
161 4.74
162 5.92
163 23.75
164 8.89
165 3.53
175 1.58
176 1.8
177 99.99
178 14.65
179 2.17
187 3.16
190 1.06
191 3.56
192 13.34
193 2.15
205 26.43
206 4.07
207 3.11
220 64.68
221 10.65
222 2.56

>  <PREDICTED SPECTRUM>  (1654) 
39 174
40 0
41 802
43 754
51 227
52 44
53 333
55 548
56 82
57 896
65 212
67 439
69 410
77 524
79 362
81 238
91 504
93 254
94 130
95 56
107 86
115 190
121 237
135 139
147 192
149 481
150 58
163 958
164 393
165 152
177 498
178 999
179 212
191 196
192 192
205 844
206 111
220 883
221 269

$$$$

     RDKit          2D

  9  9  0  0  0  0  0  0  0  0999 V2000
    0.6396    2.6142    0.0000 C   0  0  0  0  0  0  0  0  0  0  0  0
   -0.6740    0.3893    0.0000 C   0  0  0  0  0  0  0  0  0  0  0  0
    1.9241    1.8893    0.0000 C   0  0  0  0  0  0  0  0  0  0  0  0
    0.6506   -0.4048    0.0000 C   0  0  0  0  0  0  0  0  0  0  0  0
   -1.9548    2.6206    0.0000 C   0  0  0  0  0  0  0  0  0  0  0  0
   -0.6594    1.8642    0.0000 C   0  0  0  0  0  0  0  0  0  0  0  0
    1.9496    0.3452    0.0000 C   0  0  0  0  0  0  0  0  0  0  0  0
   -3.2575    1.8770    0.0000 O   0  0  0  0  0  0  0  0  0  0  0  0
    3.2548   -0.3941    0.0000 O   0  0  0  0  0  0  0  0  0  0  0  0
  3  1  2  0
  4  2  1  0
  6  1  1  0
  6  2  2  0
  6  5  1  0
  7  3  1  0
  7  4  2  0
  8  5  2  0
  9  7  1  0
M  END
>  <NAME>  (1655) 
4-HYDROXYBENZALDEHYDE

>  <SYNONYMS>  (1655) 


>  <SPECTRUM TYPE>  (1655) 
MS1

>  <INSTRUMENT TYPE>  (1655) 
EI-B

>  <INSTRUMENT>  (1655) 
HITACHI M-80

>  <ION MODE>  (1655) 
P

>  <INCHIKEY>  (1655) 
RGHHSNMVTDWUBI-UHFFFAOYSA-N

>  <FORMULA>  (1655) 
C7H6O2

>  <EXACT MASS>  (1655) 
122.036779432

>  <MW>  (1655) 
122

>  <ID>  (1655) 
JP009557

>  <CONTRIBUTOR>  (1655) 
University of Tokyo Team, {Faculty of Engineering, University of Tokyo

>  <COMMENT>  (1655) 
SMILES=O=Cc(c1)ccc(O)c1
cas=123-08-0
InChI=InChI=1S/C7H6O2/c8-5-6-1-3-7(9)4-2-6/h1-5,9H
computed SMILES=O=CC1=CC=C(O)C=C1
accession=JP009557
date=2016.01.19 (Created 2008.10.21, modified 2011.05.06)
author=NARA WOMEN'S UNIVERSITY
license=CC BY-NC-SA
exact mass=122.03678
ionization energy=70 eV
ion type=[M]+*
computed spectral entropy=2.3886638332932595
computed normalized entropy=0.7168419063113465
SPLASH=splash10-00di-8900000000-60621d4d9871b2d7587d
submitter=submitter = University of Tokyo Team (Faculty of Engineering, University of Tokyo)
MoNA Rating=3.75

>  <NUM PEAKS>  (1655) 
28

>  <MASS SPECTRAL PEAKS>  (1655) 
18 1.26
27 1.78
28 5.46
29 5.29
32 1.1
37 1.94
38 5.93
39 31.11
40 3.52
47 1.09
50 4.4
51 4.2
53 4.85
55 2.05
61 1.56
62 4.14
63 10.79
64 4.56
65 39.99
66 7.47
74 2.01
75 1.59
92 2.68
93 32.98
94 6.08
121 99.99
122 90.64
123 10.85

>  <PREDICTED SPECTRUM>  (1655) 
14 4
15 8
16 13
17 6
18 9
25 17
26 78
27 133
28 110
29 243
31 39
36 44
37 150
38 214
39 385
40 105
49 59
50 273
51 322
53 110
54 13
60 11
61 62
62 180
63 340
64 208
65 518
66 225
67 65
68 9
74 61
75 66
76 128
77 150
81 11
91 17
92 238
93 406
94 209
95 18
120 1
121 999
122 877
123 275
124 27

$$$$

     RDKit          2D

 13 12  0  0  0  0  0  0  0  0999 V2000
    3.2476    5.6250    0.0000 C   0  0  0  0  0  0  0  0  0  0  0  0
    1.9486    6.3750    0.0000 C   0  0  0  0  0  0  0  0  0  0  0  0
   -4.5466    5.6250    0.0000 C   0  0  0  0  0  0  0  0  0  0  0  0
   -5.8457    6.3750    0.0000 C   0  0  0  0  0  0  0  0  0  0  0  0
   -3.2476    6.3750    0.0000 C   0  0  0  0  0  0  0  0  0  0  0  0
   -7.1447    5.6250    0.0000 C   0  0  0  0  0  0  0  0  0  0  0  0
   -1.9486    5.6250    0.0000 C   0  0  0  0  0  0  0  0  0  0  0  0
   -8.4437    6.3750    0.0000 C   0  0  0  0  0  0  0  0  0  0  0  0
   -0.6495    6.3750    0.0000 C   0  0  0  0  0  0  0  0  0  0  0  0
   -8.4437    7.8750    0.0000 O   0  0  0  0  0  0  0  0  0  0  0  0
   -9.7428    5.6250    0.0000 O   0  0  0  0  0  0  0  0  0  0  0  0
   -0.6495    7.8750    0.0000 O   0  0  0  0  0  0  0  0  0  0  0  0
    0.6495    5.6250    0.0000 O   0  0  0  0  0  0  0  0  0  0  0  0
  2  1  1  0
  4  3  1  0
  5  3  1  0
  6  4  1  0
  7  5  1  0
  8  6  1  0
  9  7  1  0
 10  8  2  0
 11  8  1  0
 12  9  2  0
 13  2  1  0
 13  9  1  0
M  END
>  <NAME>  (1656) 
PIMELIC ACID MONOETHYL ESTER

>  <SYNONYMS>  (1656) 


>  <SPECTRUM TYPE>  (1656) 
MS1

>  <INSTRUMENT TYPE>  (1656) 
EI-B

>  <INSTRUMENT>  (1656) 
HITACHI M-80

>  <ION MODE>  (1656) 
P

>  <INCHIKEY>  (1656) 
NQYXFXWKKYGBNL-UHFFFAOYSA-N

>  <FORMULA>  (1656) 
C9H16O4

>  <EXACT MASS>  (1656) 
188.104858992

>  <MW>  (1656) 
188

>  <ID>  (1656) 
JP009555

>  <CONTRIBUTOR>  (1656) 
University of Tokyo Team, {Faculty of Engineering, University of Tokyo

>  <COMMENT>  (1656) 
SMILES=CCOC(=O)CCCCCC(O)=O
InChI=InChI=1S/C9H16O4/c1-2-13-9(12)7-5-3-4-6-8(10)11/h2-7H2,1H3,(H,10,11)
computed SMILES=O=C(O)CCCCCC(=O)OCC
accession=JP009555
date=2016.01.19 (Created 2008.10.21, modified 2011.05.06)
author=NARA WOMEN'S UNIVERSITY
license=CC BY-NC-SA
exact mass=188.10486
ionization energy=70 eV
ion type=[M]+*
computed spectral entropy=3.6659534741269253
computed normalized entropy=0.8544431020528865
SPLASH=splash10-004u-9400000000-f894a6262a37dd576edb
submitter=submitter = University of Tokyo Team (Faculty of Engineering, University of Tokyo)
MoNA Rating=3.75

>  <NUM PEAKS>  (1656) 
73

>  <MASS SPECTRAL PEAKS>  (1656) 
15 1.25
18 3.81
26 2.05
27 20.41
28 14.74
29 49.47
30 1.75
31 4.22
32 1.52
39 9.6
40 2.25
41 29.68
42 16.19
43 20.99
44 2.23
45 24.86
53 2.97
54 4.19
55 54.85
56 5.89
57 4.19
58 1.75
59 5.82
60 50.32
61 26.87
67 4.66
68 18.36
69 59.79
70 28.6
71 8.6
72 1.04
73 47.41
74 4.61
79 1.37
80 2.24
81 1.8
82 2.31
83 33.51
84 2.27
85 1.43
86 6.15
87 6.45
88 99.99
89 8.17
95 1.95
96 11.61
97 37.4
98 13.93
99 4.16
100 2.24
101 30.26
102 2.57
113 3.19
114 35.71
115 9.66
116 4.91
123 1.49
124 31.2
125 51.62
126 9.43
127 2.19
128 4.28
129 47.79
130 3.84
141 2.55
142 34.18
143 85.61
144 7.15
145 1.01
170 10.57
171 32.14
189 11.74
190 1.18

>  <PREDICTED SPECTRUM>  (1656) 
14 45
15 88
16 10
17 32
18 85
19 36
25 27
26 168
27 539
28 336
29 686
30 194
31 276
32 38
34 8
35 55
36 79
37 62
38 92
39 415
40 170
41 784
42 626
43 606
44 233
45 680
46 130
47 139
48 77
49 92
50 90
51 145
52 62
53 280
54 272
55 999
56 346
57 181
58 122
59 305
60 821
61 428
62 92
63 153
65 121
66 24
67 293
68 389
69 796
70 555
71 225
72 120
73 820
74 298
75 134
77 44
78 56
79 211
80 103
81 196
82 156
83 616
84 146
85 156
86 192
87 262
88 915
89 335
90 74
91 3
95 206
96 486
97 631
98 339
99 223
100 268
101 797
102 120
103 2
106 40
107 73
111 2
113 44
114 364
115 346
116 118
117 4
123 88
124 566
125 476
126 318
127 80
128 190
129 425
130 79
141 33
142 418
143 737
144 223
145 32
153 88
161 6
170 113
171 284
172 24

$$$$

     RDKit          2D

 21 20  0  0  0  0  0  0  0  0999 V2000
  -19.4856   11.2500    0.0000 C   0  0  0  0  0  0  0  0  0  0  0  0
    6.4952   11.2500    0.0000 C   0  0  0  0  0  0  0  0  0  0  0  0
  -18.1865   10.5000    0.0000 C   0  0  0  0  0  0  0  0  0  0  0  0
    5.1962   10.5000    0.0000 C   0  0  0  0  0  0  0  0  0  0  0  0
  -16.8875   11.2500    0.0000 C   0  0  0  0  0  0  0  0  0  0  0  0
    3.8971   11.2500    0.0000 C   0  0  0  0  0  0  0  0  0  0  0  0
  -15.5885   10.5000    0.0000 C   0  0  0  0  0  0  0  0  0  0  0  0
    2.5981   10.5000    0.0000 C   0  0  0  0  0  0  0  0  0  0  0  0
  -14.2894   11.2500    0.0000 C   0  0  0  0  0  0  0  0  0  0  0  0
    1.2990   11.2500    0.0000 C   0  0  0  0  0  0  0  0  0  0  0  0
  -12.9904   10.5000    0.0000 C   0  0  0  0  0  0  0  0  0  0  0  0
    0.0000   10.5000    0.0000 C   0  0  0  0  0  0  0  0  0  0  0  0
  -11.6913   11.2500    0.0000 C   0  0  0  0  0  0  0  0  0  0  0  0
   -1.2990   11.2500    0.0000 C   0  0  0  0  0  0  0  0  0  0  0  0
  -10.3923   10.5000    0.0000 C   0  0  0  0  0  0  0  0  0  0  0  0
   -2.5981   10.5000    0.0000 C   0  0  0  0  0  0  0  0  0  0  0  0
   -9.0933   11.2500    0.0000 C   0  0  0  0  0  0  0  0  0  0  0  0
   -3.8971   11.2500    0.0000 C   0  0  0  0  0  0  0  0  0  0  0  0
   -7.7942   10.5000    0.0000 C   0  0  0  0  0  0  0  0  0  0  0  0
   -5.1962   10.5000    0.0000 C   0  0  0  0  0  0  0  0  0  0  0  0
   -6.4952   11.2500    0.0000 C   0  0  0  0  0  0  0  0  0  0  0  0
  3  1  1  0
  4  2  1  0
  5  3  1  0
  6  4  1  0
  7  5  1  0
  8  6  1  0
  9  7  1  0
 10  8  1  0
 11  9  1  0
 12 10  1  0
 13 11  1  0
 14 12  1  0
 15 13  1  0
 16 14  1  0
 17 15  1  0
 18 16  1  0
 19 17  1  0
 20 18  1  0
 21 19  1  0
 21 20  1  0
M  END
>  <NAME>  (1657) 
HENEICOSANE

>  <SYNONYMS>  (1657) 


>  <SPECTRUM TYPE>  (1657) 
MS1

>  <INSTRUMENT TYPE>  (1657) 
EI-B

>  <INSTRUMENT>  (1657) 
HITACHI M-80

>  <ION MODE>  (1657) 
P

>  <INCHIKEY>  (1657) 
FNAZRRHPUDJQCJ-UHFFFAOYSA-N

>  <FORMULA>  (1657) 
C21H44

>  <EXACT MASS>  (1657) 
296.344301408

>  <MW>  (1657) 
296

>  <ID>  (1657) 
JP009554

>  <CONTRIBUTOR>  (1657) 
University of Tokyo Team, {Faculty of Engineering, University of Tokyo

>  <COMMENT>  (1657) 
SMILES=CCCCCCCCCCCCCCCCCCCCC
cas=629-94-7
InChI=InChI=1S/C21H44/c1-3-5-7-9-11-13-15-17-19-21-20-18-16-14-12-10-8-6-4-2/h3-21H2,1-2H3
computed SMILES=CCCCCCCCCCCCCCCCCCCCC
accession=JP009554
date=2016.01.19 (Created 2008.10.21, modified 2011.05.06)
author=NARA WOMEN'S UNIVERSITY
license=CC BY-NC-SA
exact mass=296.3443
ionization energy=70 eV
ion type=[M]+*
computed spectral entropy=3.3027233974101464
computed normalized entropy=0.7941371111452613
SPLASH=splash10-0a4l-9100000000-2bc507df938a82e990b1
submitter=submitter = University of Tokyo Team (Faculty of Engineering, University of Tokyo)
MoNA Rating=3.75

>  <NUM PEAKS>  (1657) 
64

>  <MASS SPECTRAL PEAKS>  (1657) 
14 1.04
18 1.94
26 1.47
27 11.56
28 10.51
29 25.76
32 1.94
39 8.41
40 2.14
41 48.31
42 14.14
43 95.34
44 3.31
53 2.61
54 3.48
55 30.06
56 17.04
57 99.99
58 4.5
67 4.28
68 3.06
69 16.21
70 12.39
71 64.53
72 3.66
74 1.37
81 2.08
82 3.56
83 11.71
84 8.43
85 47.67
86 3.22
87 1
95 1.04
96 1.95
97 8.44
98 5.84
99 15.03
100 1.21
110 1.31
111 4.51
112 4.93
113 10.72
125 2.2
126 4.07
127 8.28
140 3.59
141 6.78
154 2.95
155 5.65
168 2.57
169 4.81
182 2.17
183 4.28
196 1.74
197 3.85
210 1.42
211 3.41
224 1.14
225 3.04
239 2.76
253 1.64
296 10.09
297 2.37

>  <PREDICTED SPECTRUM>  (1657) 
26 24
27 145
28 61
29 197
30 51
37 6
38 18
39 181
40 85
41 582
42 293
43 916
44 181
45 3
51 37
52 16
53 154
54 173
55 527
56 415
57 999
58 171
65 27
66 47
67 195
68 194
69 396
70 328
71 845
72 211
73 3
77 11
78 12
79 54
80 6
81 130
82 220
83 351
84 294
85 650
86 150
87 0
95 82
96 179
97 322
98 223
99 385
100 70
109 61
110 82
111 256
112 206
113 336
114 85
123 30
124 81
125 155
126 166
127 281
128 53
138 57
139 107
140 163
141 215
142 49
152 37
153 70
154 144
155 229
156 82
167 16
168 82
169 172
170 45
182 85
183 158
184 43
195 17
196 69
197 124
198 26
210 112
211 137
224 118
225 33
226 1
238 126
239 176
240 68
252 127
253 132
254 34
266 62
267 168
268 102
280 37
281 74
282 28
295 38
296 35
297 62

$$$$

     RDKit          2D

 13 14  0  0  0  0  0  0  0  0999 V2000
   -2.4300    0.3800    0.0000 C   0  0  0  0  0  0  0  0  0  0  0  0
   -1.8200   -0.9900    0.0000 C   0  0  0  0  0  0  0  0  0  0  0  0
    3.1950    0.4796    0.0000 C   0  0  0  0  0  0  0  0  0  0  0  0
    4.5643   -0.1328    0.0000 C   0  0  0  0  0  0  0  0  0  0  0  0
   -0.0600    1.4400    0.0000 C   0  0  0  0  0  0  0  0  0  0  0  0
    1.9800   -1.9000    0.0000 C   0  0  0  0  0  0  0  0  0  0  0  0
    1.9800   -0.4000    0.0000 C   0  0  0  0  0  0  0  0  0  0  0  0
   -1.5500    1.5900    0.0000 C   0  0  0  0  0  0  0  0  0  0  0  0
    0.5500    0.0700    0.0000 C   0  0  0  0  0  0  0  0  0  0  0  0
   -0.3300   -1.1500    0.0000 C   0  0  0  0  0  0  0  0  0  0  0  0
    5.7793    0.7468    0.0000 N   0  0  0  0  0  0  0  0  0  0  0  0
    0.5500   -2.3600    0.0000 N   0  0  0  0  0  0  0  0  0  0  0  0
   -2.1628    2.9591    0.0000 O   0  0  0  0  0  0  0  0  0  0  0  0
  2  1  2  0
  4  3  1  0
  7  3  1  0
  7  6  2  0
  8  1  1  0
  8  5  2  0
  9  5  1  0
  9  7  1  0
 10  2  1  0
 10  9  2  0
 11  4  1  0
 12  6  1  0
 12 10  1  0
 13  8  1  0
M  END
>  <NAME>  (1658) 
3-(2-AMINOETHYL)-1H-INDOL-5-OL

>  <SYNONYMS>  (1658) 


>  <SPECTRUM TYPE>  (1658) 
MS1

>  <INSTRUMENT TYPE>  (1658) 
EI-B

>  <INSTRUMENT>  (1658) 
HITACHI M-80

>  <ION MODE>  (1658) 
P

>  <INCHIKEY>  (1658) 
QZAYGJVTTNCVMB-UHFFFAOYSA-N

>  <FORMULA>  (1658) 
C10H12N2O

>  <EXACT MASS>  (1658) 
176.094963004

>  <MW>  (1658) 
176

>  <ID>  (1658) 
JP009553

>  <CONTRIBUTOR>  (1658) 
University of Tokyo Team, {Faculty of Engineering, University of Tokyo

>  <COMMENT>  (1658) 
SMILES=C1=CC2=C(C=C1O)C(=CN2)CCN
cas=50-67-9
InChI=InChI=1S/C10H12N2O/c11-4-3-7-6-12-10-2-1-8(13)5-9(7)10/h1-2,5-6,12-13H,3-4,11H2
computed SMILES=OC=1C=CC=2NC=C(C2C1)CCN
accession=JP009553
date=2016.01.19 (Created 2008.10.21, modified 2011.05.06)
author=NARA WOMEN'S UNIVERSITY
license=CC BY-NC-SA
exact mass=176.09496
ionization energy=70 eV
ion type=[M]+*
computed spectral entropy=2.946650590111581
computed normalized entropy=0.7457526794043181
SPLASH=splash10-0002-9800000000-9ce9fb2286c3b7ea7719
submitter=submitter = University of Tokyo Team (Faculty of Engineering, University of Tokyo)
MoNA Rating=3.75

>  <NUM PEAKS>  (1658) 
52

>  <MASS SPECTRAL PEAKS>  (1658) 
15 1.73
16 1.23
17 3.9
18 4.45
27 1.55
28 7.14
29 7.29
30 18.5
31 11.35
32 4.17
39 1.54
41 1.95
42 1.47
43 3.75
44 5.39
45 53.79
46 1.05
47 1.07
50 9.77
51 20.6
55 1.11
57 1.19
60 2.56
63 1.55
65 2.84
69 36.33
70 1.81
73 1.32
74 2.64
78 1.43
86 7.24
89 2.74
90 1.76
91 5.54
95 4.94
97 2.79
114 1.14
116 1.06
117 5.68
118 4.2
119 1.04
128 1.26
130 1.47
133 1.12
145 3.29
146 99.99
147 67.19
148 7.17
159 2.09
160 1.36
176 35.9
177 4.81

>  <PREDICTED SPECTRUM>  (1658) 
29 60
30 397
37 14
38 81
39 166
40 113
41 232
42 183
43 211
44 214
46 48
49 21
50 140
51 264
52 219
53 138
54 98
56 114
61 11
62 126
63 205
64 106
65 147
66 101
67 63
70 36
72 6
73 69
74 78
75 170
76 124
77 314
78 261
79 134
80 33
81 79
82 0
86 52
88 10
89 198
90 128
91 212
92 85
93 26
94 29
101 57
102 65
103 24
104 116
105 79
106 21
107 29
108 43
113 33
116 96
117 205
118 127
119 213
120 8
129 47
130 183
131 99
132 138
133 58
143 0
144 110
145 161
146 933
147 999
148 281
149 15
158 69
159 137
160 112
174 59
176 671
177 206
178 40

$$$$

     RDKit          2D

 30 29  0  0  0  0  0  0  0  0999 V2000
    7.7942   12.7500    0.0000 C   0  0  0  0  0  0  0  0  0  0  0  0
    6.4952   15.0000    0.0000 C   0  0  0  0  0  0  0  0  0  0  0  0
  -22.0836   13.5000    0.0000 C   0  0  0  0  0  0  0  0  0  0  0  0
  -20.7846   11.2500    0.0000 C   0  0  0  0  0  0  0  0  0  0  0  0
   -3.8971   15.0000    0.0000 C   0  0  0  0  0  0  0  0  0  0  0  0
  -10.3923   11.2500    0.0000 C   0  0  0  0  0  0  0  0  0  0  0  0
    1.2990   15.0000    0.0000 C   0  0  0  0  0  0  0  0  0  0  0  0
  -15.5885   11.2500    0.0000 C   0  0  0  0  0  0  0  0  0  0  0  0
   -6.4952   13.5000    0.0000 C   0  0  0  0  0  0  0  0  0  0  0  0
   -7.7942   12.7500    0.0000 C   0  0  0  0  0  0  0  0  0  0  0  0
    3.8971   13.5000    0.0000 C   0  0  0  0  0  0  0  0  0  0  0  0
  -18.1865   12.7500    0.0000 C   0  0  0  0  0  0  0  0  0  0  0  0
   -1.2990   13.5000    0.0000 C   0  0  0  0  0  0  0  0  0  0  0  0
  -12.9904   12.7500    0.0000 C   0  0  0  0  0  0  0  0  0  0  0  0
    5.1962   12.7500    0.0000 C   0  0  0  0  0  0  0  0  0  0  0  0
  -19.4856   13.5000    0.0000 C   0  0  0  0  0  0  0  0  0  0  0  0
   -5.1962   12.7500    0.0000 C   0  0  0  0  0  0  0  0  0  0  0  0
   -9.0933   13.5000    0.0000 C   0  0  0  0  0  0  0  0  0  0  0  0
    2.5981   12.7500    0.0000 C   0  0  0  0  0  0  0  0  0  0  0  0
  -16.8875   13.5000    0.0000 C   0  0  0  0  0  0  0  0  0  0  0  0
   -2.5981   12.7500    0.0000 C   0  0  0  0  0  0  0  0  0  0  0  0
  -11.6913   13.5000    0.0000 C   0  0  0  0  0  0  0  0  0  0  0  0
    0.0000   12.7500    0.0000 C   0  0  0  0  0  0  0  0  0  0  0  0
  -14.2894   13.5000    0.0000 C   0  0  0  0  0  0  0  0  0  0  0  0
    6.4952   13.5000    0.0000 C   0  0  0  0  0  0  0  0  0  0  0  0
  -20.7846   12.7500    0.0000 C   0  0  0  0  0  0  0  0  0  0  0  0
   -3.8971   13.5000    0.0000 C   0  0  0  0  0  0  0  0  0  0  0  0
  -10.3923   12.7500    0.0000 C   0  0  0  0  0  0  0  0  0  0  0  0
    1.2990   13.5000    0.0000 C   0  0  0  0  0  0  0  0  0  0  0  0
  -15.5885   12.7500    0.0000 C   0  0  0  0  0  0  0  0  0  0  0  0
 10  9  1  0
 15 11  1  0
 16 12  1  0
 17  9  1  0
 18 10  1  0
 19 11  1  0
 20 12  1  0
 21 13  1  0
 22 14  1  0
 23 13  1  0
 24 14  1  0
 25  1  1  0
 25  2  1  0
 25 15  2  0
 26  3  1  0
 26  4  1  0
 26 16  2  0
 27  5  1  0
 17 27  2  0
 27 21  1  0
 28  6  1  0
 18 28  2  0
 28 22  1  0
 29  7  1  0
 29 19  1  0
 23 29  2  0
 30  8  1  0
 30 20  1  0
 24 30  2  0
M  END
>  <NAME>  (1659) 
SQUALENE

>  <SYNONYMS>  (1659) 
2,6,10,15,19,23-HEXAMETHYL-2,6,10,14,18,22-TETRACOSAHEXAENE

>  <SPECTRUM TYPE>  (1659) 
MS1

>  <INSTRUMENT TYPE>  (1659) 
EI-B

>  <INSTRUMENT>  (1659) 
HITACHI M-80

>  <ION MODE>  (1659) 
P

>  <INCHIKEY>  (1659) 
YYGNTYWPHWGJRM-AAJYLUCBSA-N

>  <FORMULA>  (1659) 
C30H50

>  <EXACT MASS>  (1659) 
410.3912516

>  <MW>  (1659) 
410

>  <ID>  (1659) 
JP009552

>  <CONTRIBUTOR>  (1659) 
University of Tokyo Team, {Faculty of Engineering, University of Tokyo

>  <COMMENT>  (1659) 
SMILES=C(CC=C(C)C)C(C)=C(CCC(C)=C(CCC([H])=C(CCC([H])=C(CCC=C(C)C)C)C)[H])[H]
cas=111-02-4
InChI=InChI=1S/C30H50/c1-25(2)15-11-19-29(7)23-13-21-27(5)17-9-10-18-28(6)22-14-24-30(8)20-12-16-26(3)4/h15-18,23-24H,9-14,19-22H2,1-8H3/b27-17+,28-18+,29-23+,30-24+
computed SMILES=C(=C(C)C)CCC(=CCCC(=CCCC=C(C)CCC=C(C)CCC=C(C)C)C)C
accession=JP009552
date=2016.01.19 (Created 2008.10.21, modified 2011.05.06)
author=NARA WOMEN'S UNIVERSITY
license=CC BY-NC-SA
exact mass=410.39125
ionization energy=70 eV
ion type=[M]+*
computed spectral entropy=3.6890560973469135
computed normalized entropy=0.8348470616563871
SPLASH=splash10-015i-9500000000-63fc959bf17e2f6e0381
submitter=submitter = University of Tokyo Team (Faculty of Engineering, University of Tokyo)
MoNA Rating=3.75

>  <NUM PEAKS>  (1659) 
83

>  <MASS SPECTRAL PEAKS>  (1659) 
18 6.78
27 1.32
28 11.49
29 2.15
32 3.32
39 2.7
40 1.08
41 24.85
42 1.51
43 4.67
53 3.99
55 6.81
56 1.07
57 4.08
67 9.32
68 12
69 99.99
70 6.31
71 2.35
77 1.71
79 3.77
80 2.97
81 62.72
82 9.25
83 4.39
91 2.7
92 2.4
93 10.94
94 7.95
95 17.51
96 2.4
97 2.87
105 3.02
106 1.56
107 8.79
108 3.21
109 12.07
110 1.89
111 2.2
119 4.66
120 1.8
121 14.62
122 4.69
123 13.86
124 1.95
133 3.22
134 4.35
135 9.97
136 28.47
137 25.66
138 2.91
145 1.01
147 4.55
148 2.4
149 13.1
150 3.45
151 1.11
161 3.64
162 2.31
163 3.52
167 1.3
175 4.31
176 1.66
177 3.57
189 3.66
190 1.9
191 6.09
192 6.92
193 1.16
203 4.87
204 2.01
205 3.19
217 2.18
218 2.4
231 2.97
273 2.4
299 1.74
328 1.99
341 6.91
342 1.94
367 2.27
410 6.03
411 2.16

>  <PREDICTED SPECTRUM>  (1659) 
25 2
26 43
27 167
28 74
29 202
30 44
31 45
32 9
38 21
39 165
40 91
41 580
42 107
43 243
44 78
45 5
50 35
51 26
52 16
53 198
54 93
55 349
56 133
57 189
58 70
59 33
60 10
65 30
66 47
67 346
68 330
69 999
70 275
71 169
72 34
73 13
77 122
78 53
79 214
80 187
81 621
82 277
83 234
84 97
85 154
86 71
87 48
88 5
91 191
92 115
93 343
94 181
95 453
96 179
97 156
98 48
99 46
100 34
101 9
102 0
103 31
104 14
105 176
106 107
107 326
108 201
109 378
110 172
111 224
112 94
113 48
114 25
115 64
116 14
117 103
118 56
119 202
120 123
121 304
122 175
123 348
124 149
125 131
126 54
127 82
128 49
129 42
130 42
131 104
132 64
133 128
134 155
135 333
136 302
137 333
138 123
139 62
140 25
141 67
142 46
143 53
144 31
145 123
146 49
147 147
148 146
149 209
150 111
151 78
152 8
153 39
155 44
156 29
157 66
158 53
159 131
160 84
161 191
162 43
163 124
164 18
165 41
166 6
168 13
169 17
170 2
171 64
173 106
174 54
175 130
176 66
177 217
178 122
179 56
181 15
183 12
184 36
185 74
186 79
187 150
188 97
189 207
190 99
191 215
192 149
193 94
194 20
195 5
196 1
197 40
198 48
199 87
200 61
201 106
202 90
203 207
204 128
205 207
206 96
207 70
211 15
212 2
213 68
214 15
215 103
216 69
217 146
218 131
219 90
221 10
223 24
224 20
225 63
227 82
228 32
229 136
230 39
231 115
232 35
233 8
239 1
240 20
241 77
242 14
243 20
245 19
247 34
252 1
255 60
256 5
257 63
258 36
259 86
260 57
268 11
271 46
272 59
273 192
274 87
280 7
283 8
284 11
285 76
286 90
287 19
288 51
299 127
300 75
301 23
309 2
315 20
316 31
325 6
326 28
327 46
328 84
329 70
330 20
331 0
339 8
340 57
341 155
342 99
353 4
354 10
367 45
368 39
409 77
410 222
411 8
412 43

$$$$

     RDKit          2D

 11 11  0  0  0  0  0  0  0  0999 V2000
    4.2010    1.4526    0.0000 C   0  0  0  0  0  0  0  0  0  0  0  0
    0.4510   -1.1896    0.0000 C   0  0  0  0  0  0  0  0  0  0  0  0
    2.7732    1.9126    0.0000 C   0  0  0  0  0  0  0  0  0  0  0  0
   -0.5487   -0.0813    0.0000 C   0  0  0  0  0  0  0  0  0  0  0  0
    1.6610    0.9061    0.0000 C   0  0  0  0  0  0  0  0  0  0  0  0
   -2.0405   -0.2387    0.0000 C   0  0  0  0  0  0  0  0  0  0  0  0
    2.4577    3.3791    0.0000 N   0  0  0  0  0  0  0  0  0  0  0  0
    0.2013    1.2178    0.0000 N   0  0  0  0  0  0  0  0  0  0  0  0
   -2.9227    0.9744    0.0000 O   0  0  0  0  0  0  0  0  0  0  0  0
   -2.6500   -1.6093    0.0000 O   0  0  0  0  0  0  0  0  0  0  0  0
    1.8268   -0.5867    0.0000 S   0  0  0  0  0  0  0  0  0  0  0  0
  3  1  1  0
  4  2  2  0
  5  3  1  0
  6  4  1  0
  7  3  1  0
  8  4  1  0
  8  5  2  0
  9  6  2  0
 10  6  1  0
 11  2  1  0
 11  5  1  0
M  END
>  <NAME>  (1660) 
2-(1-AMINOETHYL)TIAZOL-4-CARBOXLIC ACID

>  <SYNONYMS>  (1660) 


>  <SPECTRUM TYPE>  (1660) 
MS1

>  <INSTRUMENT TYPE>  (1660) 
EI-B

>  <INSTRUMENT>  (1660) 
HITACHI M-80

>  <ION MODE>  (1660) 
P

>  <INCHIKEY>  (1660) 
IZYPOVIPPSQRBI-UHFFFAOYSA-N

>  <FORMULA>  (1660) 
C6H8N2O2S

>  <EXACT MASS>  (1660) 
172.030648496

>  <MW>  (1660) 
172

>  <ID>  (1660) 
JP009551

>  <CONTRIBUTOR>  (1660) 
University of Tokyo Team, {Faculty of Engineering, University of Tokyo

>  <COMMENT>  (1660) 
SMILES=CC(N)c(s1)nc(C(O)=O)c1
cas=57001-28-2
InChI=InChI=1S/C6H8N2O2S/c1-3(7)5-8-4(2-11-5)6(9)10/h2-3H,7H2,1H3,(H,9,10)
computed SMILES=O=C(O)C=1N=C(SC1)C(N)C
accession=JP009551
date=2016.01.19 (Created 2008.10.21, modified 2011.05.06)
author=NARA WOMEN'S UNIVERSITY
license=CC BY-NC-SA
exact mass=172.03065
ionization energy=70 eV
ion type=[M]+*
computed spectral entropy=3.641001800407453
computed normalized entropy=0.8308944933371961
SPLASH=splash10-0a4u-9500000000-7c3dd6440b8ce3e94b2c
submitter=submitter = University of Tokyo Team (Faculty of Engineering, University of Tokyo)
MoNA Rating=3.75

>  <NUM PEAKS>  (1660) 
80

>  <MASS SPECTRAL PEAKS>  (1660) 
14 4.92
15 16.21
16 8.1
17 11.02
18 30.39
19 4.01
25 1.34
26 4.23
27 12.64
28 59.54
29 11.09
30 9.59
31 1.87
32 8.4
33 1.27
36 3.44
37 1.9
38 5.21
39 8.79
40 10.71
41 14.64
42 44.21
43 16.86
44 94.86
45 55.97
46 5.58
47 2.31
51 3.8
52 7.69
53 14.35
54 5.78
55 7.06
56 4.86
57 31.64
58 16.39
59 7.61
60 2.92
61 2.54
66 1.76
67 2.18
68 2.78
69 3.45
70 6.11
71 3.81
72 2.77
73 3.12
74 1.1
76 1.02
82 4.25
83 5.41
84 15.37
85 7.26
86 2.46
110 2.37
111 5.8
112 50.97
113 4.81
114 2.43
126 7.66
127 1.93
129 1.42
130 21.06
131 4.41
132 1.3
138 4.62
139 99.99
140 19.34
141 6.79
144 2.33
153 7.86
154 3.27
155 1.82
157 86.88
158 25.95
159 7.22
160 1.45
171 1.04
172 18.62
173 6.43
174 2.01

>  <PREDICTED SPECTRUM>  (1660) 
14 45
15 126
16 41
17 51
18 100
25 27
26 105
27 222
28 195
29 194
30 202
31 52
32 45
33 60
34 48
35 12
36 55
37 141
38 242
39 500
40 322
41 425
42 444
43 499
44 528
45 556
46 229
47 133
48 60
49 10
50 57
51 133
52 247
53 261
54 234
55 298
56 244
57 339
58 388
59 283
60 227
61 139
62 81
63 34
64 34
65 2
66 144
67 114
68 248
69 198
70 153
71 182
72 204
73 79
74 68
75 107
76 73
77 58
78 3
79 13
81 59
82 135
83 113
84 220
85 175
86 199
87 14
89 14
96 52
97 146
98 129
99 125
100 124
102 25
110 37
111 137
112 344
113 215
114 162
116 18
117 7
124 20
125 109
126 191
127 133
128 180
129 26
130 234
131 38
132 15
137 40
138 175
139 999
140 500
141 129
144 19
153 85
154 169
155 95
156 50
157 866
158 261
159 220
160 9
171 141
172 386
173 134
174 87

$$$$

     RDKit          2D

 28 31  0  0  1  0  0  0  0  0999 V2000
    9.5655    7.2342    0.0000 C   0  0  0  0  0  0  0  0  0  0  0  0
    7.1046    8.0672    0.0000 C   0  0  0  0  0  0  0  0  0  0  0  0
    3.2009    4.6377    0.0000 C   0  0  0  0  0  0  0  0  0  0  0  0
   -1.6125    0.9400    0.0000 C   0  0  0  0  0  0  0  0  0  0  0  0
    2.4507    3.1203    0.0000 C   0  0  0  0  0  0  0  0  0  0  0  0
    6.1427    5.2256    0.0000 C   0  0  0  0  0  0  0  0  0  0  0  0
    7.6137    5.5195    0.0000 C   0  0  0  0  0  0  0  0  0  0  0  0
    5.6618    3.8047    0.0000 C   0  0  0  0  0  0  0  0  0  0  0  0
   -0.3200   -2.8400    0.0000 C   0  0  0  0  0  0  0  0  0  0  0  0
    1.0100   -2.0900    0.0000 C   0  0  0  0  0  0  0  0  0  0  0  0
    4.5500    0.8800    0.0000 C   0  0  0  0  0  0  0  0  0  0  0  0
    3.7100   -0.3100    0.0000 C   0  0  0  0  0  0  0  0  0  0  0  0
   -4.2000   -0.5600    0.0000 C   0  0  0  0  0  0  0  0  0  0  0  0
   -0.3200    1.6300    0.0000 C   0  0  0  0  0  0  0  0  0  0  0  0
   -2.8900    0.1600    0.0000 C   0  0  0  0  0  0  0  0  0  0  0  0
    1.0100    2.3900    0.0000 C   0  0  0  0  0  0  0  0  0  0  0  0
   -2.8900   -2.8400    0.0000 C   0  0  0  0  0  0  0  0  0  0  0  0
    8.0946    6.9403    0.0000 C   0  0  0  0  0  0  0  0  0  0  0  0
    4.1909    3.5108    0.0000 C   0  0  0  0  0  0  0  0  0  0  0  0
   -1.6200   -2.0900    0.0000 C   0  0  0  0  0  0  0  0  0  0  0  0
   -4.2000   -2.0900    0.0000 C   0  0  0  0  0  0  0  0  0  0  0  0
    1.0100   -0.5600    0.0000 C   0  0  0  0  0  0  0  0  0  0  0  0
    3.7100    2.0900    0.0000 C   0  0  0  0  0  0  0  0  0  0  0  0
    2.2800    0.1600    0.0000 C   0  0  0  0  0  0  0  0  0  0  0  0
   -0.3200    0.1600    0.0000 C   0  0  0  0  0  0  0  0  0  0  0  0
   -1.6200   -0.5600    0.0000 C   0  0  0  0  0  0  0  0  0  0  0  0
    2.2800    1.6300    0.0000 C   0  0  0  0  0  0  0  0  0  0  0  0
   -5.4977   -2.8424    0.0000 O   0  0  0  0  0  0  0  0  0  0  0  0
  7  6  1  0
  8  6  1  0
 10  9  1  0
 12 11  1  0
 15 13  1  0
 16 14  1  0
 18  1  1  0
 18  2  1  0
 18  7  2  0
 19  3  1  6
 19  8  1  0
 20  9  2  0
 20 17  1  0
 21 13  1  0
 21 17  1  0
 22 10  1  6
 23 11  1  1
 23 19  1  0
 24 12  1  1
 24 22  1  0
 25 14  1  1
 25 22  1  0
 26  4  1  1
 26 15  1  0
 26 20  1  0
 26 25  1  0
 27  5  1  1
 27 16  1  0
 27 23  1  0
 27 24  1  0
 21 28  1  1
M  END
>  <NAME>  (1661) 
DESMOSTEROL

>  <SYNONYMS>  (1661) 


>  <SPECTRUM TYPE>  (1661) 
MS1

>  <INSTRUMENT TYPE>  (1661) 
EI-B

>  <INSTRUMENT>  (1661) 
HITACHI M-80

>  <ION MODE>  (1661) 
P

>  <INCHIKEY>  (1661) 
AVSXSVCZWQODGV-DPAQBDIFSA-N

>  <FORMULA>  (1661) 
C27H44O

>  <EXACT MASS>  (1661) 
384.33921602799995

>  <MW>  (1661) 
384

>  <ID>  (1661) 
JP009550

>  <CONTRIBUTOR>  (1661) 
University of Tokyo Team, {Faculty of Engineering, University of Tokyo

>  <COMMENT>  (1661) 
SMILES=C(C2([H])3)([H])(C(C)(C4)C(CC(C4)([H])O)=CC3)CCC(C2([H])1)(C)C([H])(CC1)C(CCC=C(C)C)([H])C
cas=313-04-2
InChI=InChI=1S/C27H44O/c1-18(2)7-6-8-19(3)23-11-12-24-22-10-9-20-17-21(28)13-15-26(20,4)25(22)14-16-27(23,24)5/h7,9,19,21-25,28H,6,8,10-17H2,1-5H3/t19-,21+,22+,23-,24+,25+,26+,27-/m1/s1
computed SMILES=OC1CC2=CCC3C(CCC4(C)C(CCC34)C(C)CCC=C(C)C)C2(C)CC1
accession=JP009550
date=2016.01.19 (Created 2008.10.21, modified 2011.05.06)
author=NARA WOMEN'S UNIVERSITY
license=CC BY-NC-SA
exact mass=384.33922
ionization energy=70 eV
ion type=[M]+*
computed spectral entropy=4.571123924683027
computed normalized entropy=0.8870299382172865
SPLASH=splash10-00xr-6973000000-9b8478114c7fec1504f2
submitter=submitter = University of Tokyo Team (Faculty of Engineering, University of Tokyo)
MoNA Rating=3.75

>  <NUM PEAKS>  (1661) 
173

>  <MASS SPECTRAL PEAKS>  (1661) 
18 2.86
27 1.97
28 19.65
29 3.48
32 4.58
39 3.21
41 19.12
42 1.98
43 7.31
53 3.22
55 19.78
56 7.23
57 7.17
65 1.18
67 10.68
68 3.55
69 50.06
70 5.52
71 2.24
77 3.13
78 1.19
79 9.8
80 2.19
81 19.52
82 9.96
83 9.37
84 1.62
85 1.05
91 10.52
92 3.18
93 12.83
94 5.2
95 22.48
96 4.19
97 4.65
105 14.71
106 4.65
107 20.15
108 5.44
109 15.42
111 4.32
115 1.4
117 4.83
118 3.28
119 11.26
120 9.4
121 12.63
122 3.47
123 8.05
124 2.36
125 1.97
128 1.36
129 3.16
130 1.79
131 8.9
132 4.65
133 13.9
134 4.75
135 9.1
136 2.38
137 4.31
138 5.33
139 1
141 1.2
142 1.15
143 7.17
144 4.49
145 17.39
146 5.12
147 12.01
148 3.17
149 5.83
150 1.98
151 3.06
152 4.19
155 1.26
156 1.31
157 6.02
158 8.8
159 14.89
160 6.46
161 11.56
162 3.58
163 6.96
164 2.79
165 1.55
169 1.51
171 5.47
172 2.44
173 6.95
174 2.7
175 6.02
176 3.6
177 3.88
178 1.83
179 1.02
183 1.73
185 4.97
186 2.36
187 5
188 1.62
189 3.58
190 1.23
191 2.65
197 3.33
198 1.26
199 5.9
200 1.82
201 3.12
203 2.54
204 1
205 1.81
206 1.03
211 3.18
212 1.68
213 11.78
214 3.75
215 3.85
216 1.26
217 2.74
225 1.61
227 2.94
228 3.39
229 5.8
230 4.37
231 6.92
232 2.34
239 3.21
240 1.43
241 1.86
243 2.15
244 1.29
245 3.37
246 2.67
253 8.46
254 3.17
255 6.22
256 1.68
257 2.84
258 4.81
259 1.87
267 1.58
269 1.63
270 12.95
271 99.99
272 30.56
273 10.99
274 2.15
281 2.81
282 1.67
283 1.47
285 2.75
286 1.03
298 1.07
299 17.29
300 29.86
301 6.92
302 1.1
313 1.22
314 1.71
324 1.11
325 1.17
351 11.19
352 3.27
366 4.83
367 1.88
368 1.34
369 31.49
370 9.26
371 1.51
384 42.11
385 12.59
386 2.34

>  <PREDICTED SPECTRUM>  (1661) 
39 19
40 18
41 667
42 173
43 590
44 120
45 119
49 18
50 65
51 95
52 48
53 358
54 139
55 875
56 205
57 483
58 180
59 76
60 52
63 32
64 36
65 214
66 124
67 676
68 370
69 983
70 381
71 338
72 24
73 27
76 11
77 393
78 198
79 628
80 239
81 824
82 480
83 512
84 114
85 121
86 19
91 619
92 333
93 666
94 438
95 841
96 401
97 355
98 36
99 62
100 13
101 12
103 100
104 152
105 669
106 375
107 702
108 391
109 693
110 344
111 329
112 73
113 46
114 29
115 158
116 117
117 384
118 280
119 566
120 398
121 489
122 308
123 434
124 196
125 95
126 14
127 74
128 139
129 213
130 221
131 474
132 346
133 654
134 364
135 477
136 270
137 274
138 126
139 50
141 133
142 138
143 480
144 238
145 668
146 368
147 551
148 327
149 448
150 134
151 313
152 63
155 140
156 147
157 399
158 412
159 589
160 359
161 504
162 252
163 389
164 140
165 77
166 18
167 23
168 12
169 216
170 106
171 398
172 257
173 452
174 240
175 412
176 265
177 282
178 132
179 59
181 72
183 187
184 48
185 355
186 318
187 431
188 172
189 319
190 135
191 139
192 32
197 265
198 176
199 359
200 232
201 320
202 198
203 257
204 158
205 143
206 18
211 335
212 243
213 614
214 326
215 331
216 165
217 214
218 130
219 64
225 156
226 122
227 273
228 326
229 397
230 290
231 470
232 263
239 321
240 123
241 207
242 90
243 145
244 102
245 258
246 128
247 104
253 400
254 298
255 422
256 254
257 222
258 132
259 84
261 29
267 4
268 16
269 50
271 999
272 588
273 396
274 228
275 31
281 366
282 230
283 171
284 116
285 142
286 22
295 26
296 105
297 187
298 98
299 466
300 359
301 312
302 14
309 54
310 2
311 43
312 9
313 26
314 817
315 347
316 152
323 103
324 120
326 17
327 17
333 41
337 63
339 103
341 93
342 82
351 437
352 160
366 409
367 170
368 16
369 395
370 196
371 14
382 76
384 783
385 441
386 149

$$$$

     RDKit          2D

 10 10  0  0  0  0  0  0  0  0999 V2000
    2.5740    2.2576    0.0000 C   0  0  0  0  0  0  0  0  0  0  0  0
    0.2518   -0.8447    0.0000 C   0  0  0  0  0  0  0  0  0  0  0  0
   -0.7479    0.2637    0.0000 C   0  0  0  0  0  0  0  0  0  0  0  0
    1.4618    1.2511    0.0000 C   0  0  0  0  0  0  0  0  0  0  0  0
   -2.2396    0.1063    0.0000 C   0  0  0  0  0  0  0  0  0  0  0  0
    4.0018    1.7976    0.0000 N   0  0  0  0  0  0  0  0  0  0  0  0
    0.0021    1.5628    0.0000 N   0  0  0  0  0  0  0  0  0  0  0  0
   -3.1218    1.3194    0.0000 O   0  0  0  0  0  0  0  0  0  0  0  0
   -2.8491   -1.2643    0.0000 O   0  0  0  0  0  0  0  0  0  0  0  0
    1.6276   -0.2418    0.0000 S   0  0  0  0  0  0  0  0  0  0  0  0
  3  2  2  0
  4  1  1  0
  5  3  1  0
  6  1  1  0
  7  3  1  0
  7  4  2  0
  8  5  2  0
  9  5  1  0
 10  2  1  0
 10  4  1  0
M  END
>  <NAME>  (1662) 
2-AMINOMETHYLTHIAZOLE-4-CARBOXYLIC ACID

>  <SYNONYMS>  (1662) 


>  <SPECTRUM TYPE>  (1662) 
MS1

>  <INSTRUMENT TYPE>  (1662) 
EI-B

>  <INSTRUMENT>  (1662) 
HITACHI M-80

>  <ION MODE>  (1662) 
P

>  <INCHIKEY>  (1662) 
DOIRUXCDSGNCMX-UHFFFAOYSA-N

>  <FORMULA>  (1662) 
C5H6N2O2S

>  <EXACT MASS>  (1662) 
158.014998432

>  <MW>  (1662) 
158

>  <ID>  (1662) 
JP009549

>  <CONTRIBUTOR>  (1662) 
University of Tokyo Team, {Faculty of Engineering, University of Tokyo

>  <COMMENT>  (1662) 
SMILES=NCc(s1)nc(C(O)=O)c1
cas=25438-22-6
InChI=InChI=1S/C5H6N2O2S/c6-1-4-7-3(2-10-4)5(8)9/h2H,1,6H2,(H,8,9)
computed SMILES=O=C(O)C=1N=C(SC1)CN
accession=JP009549
date=2016.01.19 (Created 2008.10.21, modified 2011.05.06)
author=NARA WOMEN'S UNIVERSITY
license=CC BY-NC-SA
exact mass=158.015
ionization energy=70 eV
ion type=[M]+*
computed spectral entropy=3.349620154328391
computed normalized entropy=0.8116091800804772
SPLASH=splash10-001i-9300000000-14dabad9dc7119214e23
submitter=submitter = University of Tokyo Team (Faculty of Engineering, University of Tokyo)
MoNA Rating=3.75

>  <NUM PEAKS>  (1662) 
62

>  <MASS SPECTRAL PEAKS>  (1662) 
14 3.41
15 1.99
16 1.5
17 3.05
18 10.61
26 1.68
27 1.67
28 46.75
29 6.52
30 99.99
31 10.62
32 8.09
35 8.56
36 30.4
37 3.22
38 10.62
39 2.84
40 4.43
41 4.77
42 5.61
43 1.65
44 3.24
45 27.79
46 3.07
47 1.22
51 2.26
52 3.13
53 6.95
54 1.27
55 3.13
56 3.41
57 15.54
58 8.72
59 3.28
60 1.22
61 1.37
68 1.73
69 3.18
70 2.83
71 1.47
72 1.39
73 1.06
82 2.35
83 3.13
84 6.47
85 4.16
86 1.46
111 2.8
112 31.8
113 3.32
114 1.96
130 28.64
131 4.11
132 1.44
139 11.86
140 18.56
141 3.83
142 1.61
157 2.75
158 19.77
159 4.35
160 1.26

>  <PREDICTED SPECTRUM>  (1662) 
16 3
17 8
30 344
32 3
33 116
34 71
36 88
37 188
38 384
39 673
40 424
41 540
42 459
43 529
44 645
45 999
46 435
47 154
48 84
51 264
52 413
53 449
54 529
55 107
56 232
57 570
58 521
59 359
60 260
67 57
68 280
69 586
70 452
71 395
72 383
73 163
80 14
82 275
83 191
84 465
85 454
86 362
87 38
88 79
111 348
112 874
113 544
114 254
125 8
129 40
130 953
131 255
132 60
139 347
140 662
141 305
142 348
157 214
158 650
159 148
160 68

$$$$

     RDKit          2D

 10 10  0  0  0  0  0  0  0  0999 V2000
   -3.8969    2.5696    0.0000 C   0  0  0  0  0  0  0  0  0  0  0  0
    2.5983    0.3196    0.0000 C   0  0  0  0  0  0  0  0  0  0  0  0
    2.5988    1.8204    0.0000 C   0  0  0  0  0  0  0  0  0  0  0  0
    1.2988   -0.4312    0.0000 C   0  0  0  0  0  0  0  0  0  0  0  0
    1.2998    2.5704    0.0000 C   0  0  0  0  0  0  0  0  0  0  0  0
   -0.0002    0.3188    0.0000 C   0  0  0  0  0  0  0  0  0  0  0  0
   -1.2988    2.5696    0.0000 C   0  0  0  0  0  0  0  0  0  0  0  0
   -2.5978    1.8196    0.0000 C   0  0  0  0  0  0  0  0  0  0  0  0
    0.0002    1.8196    0.0000 C   0  0  0  0  0  0  0  0  0  0  0  0
   -2.5978    0.3196    0.0000 O   0  0  0  0  0  0  0  0  0  0  0  0
  3  2  2  0
  4  2  1  0
  5  3  1  0
  6  4  2  0
  8  1  1  0
  8  7  1  0
  9  5  2  0
  9  6  1  0
  9  7  1  0
 10  8  1  0
M  END
>  <NAME>  (1663) 
1-PHENYL-2-PROPANOL

>  <SYNONYMS>  (1663) 
BENZYLMETHYLCARBINOL

>  <SPECTRUM TYPE>  (1663) 
MS1

>  <INSTRUMENT TYPE>  (1663) 
EI-B

>  <INSTRUMENT>  (1663) 
HITACHI M-80

>  <ION MODE>  (1663) 
P

>  <INCHIKEY>  (1663) 
WYTRYIUQUDTGSX-UHFFFAOYSA-N

>  <FORMULA>  (1663) 
C9H12O

>  <EXACT MASS>  (1663) 
136.088815004

>  <MW>  (1663) 
136

>  <ID>  (1663) 
JP009548

>  <CONTRIBUTOR>  (1663) 
University of Tokyo Team, {Faculty of Engineering, University of Tokyo

>  <COMMENT>  (1663) 
SMILES=CC(O)Cc(c1)cccc1
cas=14898-87-4
InChI=InChI=1S/C9H12O/c1-8(10)7-9-5-3-2-4-6-9/h2-6,8,10H,7H2,1H3
computed SMILES=OC(C)CC=1C=CC=CC1
accession=JP009548
date=2016.01.19 (Created 2008.10.21, modified 2011.05.06)
author=NARA WOMEN'S UNIVERSITY
license=CC BY-NC-SA
exact mass=136.08882
ionization energy=70 eV
ion type=[M]+*
computed spectral entropy=1.7124870277433553
computed normalized entropy=0.5924798507545048
SPLASH=splash10-0006-9000000000-af804ab6e867dc4f66d3
submitter=submitter = University of Tokyo Team (Faculty of Engineering, University of Tokyo)
MoNA Rating=3.75

>  <NUM PEAKS>  (1663) 
18

>  <MASS SPECTRAL PEAKS>  (1663) 
27 1.19
29 1.1
39 2.65
43 3.55
45 17.99
51 1.69
63 1.86
65 6.73
77 1.97
89 1.42
90 1.28
91 49.75
92 99.99
93 8.21
103 2.28
117 1.07
121 2.26
136 3.68

>  <PREDICTED SPECTRUM>  (1663) 
14 12
15 59
16 2
17 15
18 29
19 35
26 73
27 237
28 80
29 114
31 63
37 54
38 133
39 360
40 100
41 231
42 13
43 413
44 249
45 453
46 95
49 19
50 191
51 293
52 147
53 134
61 40
62 110
63 275
64 195
65 472
66 137
74 98
75 123
76 100
77 251
78 233
79 135
89 184
90 173
91 999
92 670
93 284
94 21
102 79
103 195
104 10
105 48
106 41
115 285
116 110
117 203
118 219
119 52
121 141
136 266
137 71

$$$$

     RDKit          2D

 10 10  0  0  0  0  0  0  0  0999 V2000
    3.8981    0.7502    0.0000 C   0  0  0  0  0  0  0  0  0  0  0  0
    3.8981    2.2502    0.0000 C   0  0  0  0  0  0  0  0  0  0  0  0
    1.2981    2.2502    0.0000 C   0  0  0  0  0  0  0  0  0  0  0  0
    1.2981    0.7502    0.0000 C   0  0  0  0  0  0  0  0  0  0  0  0
    2.5981    0.0002    0.0000 C   0  0  0  0  0  0  0  0  0  0  0  0
   -0.0008   -0.0000    0.0000 C   0  0  0  0  0  0  0  0  0  0  0  0
    2.5981    3.0002    0.0000 N   0  0  0  0  0  0  0  0  0  0  0  0
    2.5981   -1.4998    0.0000 O   0  0  0  0  0  0  0  0  0  0  0  0
   -0.0006   -1.5000    0.0000 O   0  0  0  0  0  0  0  0  0  0  0  0
   -1.3000    0.7498    0.0000 O   0  0  0  0  0  0  0  0  0  0  0  0
  2  1  2  0
  4  3  2  0
  5  1  1  0
  5  4  1  0
  6  4  1  0
  7  2  1  0
  7  3  1  0
  8  5  2  0
  9  6  2  0
 10  6  1  0
M  END
>  <NAME>  (1664) 
4-HYDROXYISONICOTINIC ACID

>  <SYNONYMS>  (1664) 


>  <SPECTRUM TYPE>  (1664) 
MS1

>  <INSTRUMENT TYPE>  (1664) 
EI-B

>  <INSTRUMENT>  (1664) 
HITACHI M-80

>  <ION MODE>  (1664) 
P

>  <INCHIKEY>  (1664) 
CHCUBGPSZDGABM-UHFFFAOYSA-N

>  <FORMULA>  (1664) 
C6H5NO3

>  <EXACT MASS>  (1664) 
139.02694302

>  <MW>  (1664) 
139

>  <ID>  (1664) 
JP009547

>  <CONTRIBUTOR>  (1664) 
University of Tokyo Team, {Faculty of Engineering, University of Tokyo

>  <COMMENT>  (1664) 
SMILES=OC(=O)c(c1)c(O)ccn1
InChI=InChI=1S/C6H5NO3/c8-5-1-2-7-3-4(5)6(9)10/h1-3H,(H,7,8)(H,9,10)
computed SMILES=O=C(O)C1=CNC=CC1=O
accession=JP009547
date=2016.01.19 (Created 2008.10.21, modified 2011.05.06)
author=NARA WOMEN'S UNIVERSITY
license=CC BY-NC-SA
exact mass=139.02694
ionization energy=70 eV
ion type=[M]+*
computed spectral entropy=2.93728758617066
computed normalized entropy=0.807482615447272
SPLASH=splash10-000e-9000000000-653b27f096dafbef38cb
submitter=submitter = University of Tokyo Team (Faculty of Engineering, University of Tokyo)
MoNA Rating=3.75

>  <NUM PEAKS>  (1664) 
38

>  <MASS SPECTRAL PEAKS>  (1664) 
18 1.73
26 2.2
27 3.12
28 22.24
29 2.88
36 1.17
37 7.92
38 15.42
39 32.76
40 10.8
41 7.75
42 1.51
44 2.73
45 9.45
49 2.23
50 5.54
51 3.97
52 2.91
53 5.16
54 1.47
55 2.92
61 1.09
63 1.48
64 3.72
65 9.62
66 17.97
67 24.17
68 3
76 1.13
77 3.14
93 25.15
94 26.65
95 99.99
96 5.76
121 3.94
122 7.78
139 24.97
140 3.49

>  <PREDICTED SPECTRUM>  (1664) 
25 12
26 22
27 12
28 28
29 7
36 58
37 130
38 226
39 318
40 237
41 209
42 34
44 227
45 308
49 82
50 250
51 173
52 190
53 186
54 127
55 188
56 132
57 109
63 18
64 167
65 423
66 362
67 487
68 270
69 151
70 57
71 62
72 18
74 7
75 43
76 69
77 93
78 57
80 12
81 123
82 226
83 259
84 153
85 64
92 56
93 213
94 475
95 575
96 102
97 38
110 49
111 304
112 118
121 304
122 479
123 52
139 999
140 260
141 73

$$$$

     RDKit          2D

 14 16  0  0  0  0  0  0  0  0999 V2000
    3.9000    0.7500    0.0000 C   0  0  0  0  0  0  0  0  0  0  0  0
   -3.9000    0.7500    0.0000 C   0  0  0  0  0  0  0  0  0  0  0  0
    3.9000   -0.7500    0.0000 C   0  0  0  0  0  0  0  0  0  0  0  0
   -3.9000   -0.7500    0.0000 C   0  0  0  0  0  0  0  0  0  0  0  0
    2.6000    1.5000    0.0000 C   0  0  0  0  0  0  0  0  0  0  0  0
   -2.6000    1.5000    0.0000 C   0  0  0  0  0  0  0  0  0  0  0  0
    2.6000   -1.5000    0.0000 C   0  0  0  0  0  0  0  0  0  0  0  0
   -2.6000   -1.5000    0.0000 C   0  0  0  0  0  0  0  0  0  0  0  0
    0.0000    1.5000    0.0000 C   0  0  0  0  0  0  0  0  0  0  0  0
    1.3000    0.7500    0.0000 C   0  0  0  0  0  0  0  0  0  0  0  0
   -1.3000    0.7500    0.0000 C   0  0  0  0  0  0  0  0  0  0  0  0
    1.3000   -0.7500    0.0000 C   0  0  0  0  0  0  0  0  0  0  0  0
   -1.3000   -0.7500    0.0000 C   0  0  0  0  0  0  0  0  0  0  0  0
    0.0000   -1.5000    0.0000 N   0  0  0  0  0  0  0  0  0  0  0  0
  3  1  2  0
  4  2  2  0
  5  1  1  0
  6  2  1  0
  7  3  1  0
  8  4  1  0
 10  5  2  0
 10  9  1  0
 11  6  2  0
 11  9  1  0
 12  7  2  0
 12 10  1  0
 13  8  2  0
 13 11  1  0
 14 12  1  0
 14 13  1  0
M  END
>  <NAME>  (1665) 
9,10-DIHYDROACRIDINE

>  <SYNONYMS>  (1665) 
ACRIDAN

>  <SPECTRUM TYPE>  (1665) 
MS1

>  <INSTRUMENT TYPE>  (1665) 
EI-B

>  <INSTRUMENT>  (1665) 
HITACHI M-80

>  <ION MODE>  (1665) 
P

>  <INCHIKEY>  (1665) 
HJCUTNIGJHJGCF-UHFFFAOYSA-N

>  <FORMULA>  (1665) 
C13H11N

>  <EXACT MASS>  (1665) 
181.089149352

>  <MW>  (1665) 
181

>  <ID>  (1665) 
JP009544

>  <CONTRIBUTOR>  (1665) 
University of Tokyo Team, {Faculty of Engineering, University of Tokyo

>  <COMMENT>  (1665) 
SMILES=c(c3)cc(C1)c(c3)Nc(c2)c(ccc2)1
cas=92-81-9
InChI=InChI=1S/C13H11N/c1-3-7-12-10(5-1)9-11-6-2-4-8-13(11)14-12/h1-8,14H,9H2
computed SMILES=C=1C=CC2=C(C1)NC=3C=CC=CC3C2
accession=JP009544
date=2016.01.19 (Created 2008.10.21, modified 2011.05.06)
author=NARA WOMEN'S UNIVERSITY
license=CC BY-NC-SA
exact mass=181.08915
ionization energy=70 eV
ion type=[M]+*
computed spectral entropy=2.034043767747115
computed normalized entropy=0.5923271248915666
SPLASH=splash10-003r-0900000000-06c037ba2e423605524a
submitter=submitter = University of Tokyo Team (Faculty of Engineering, University of Tokyo)
MoNA Rating=3.75

>  <NUM PEAKS>  (1665) 
31

>  <MASS SPECTRAL PEAKS>  (1665) 
39 1.06
51 1.15
63 1.67
75 1.3
76 1.56
77 1.55
89 1.62
90 1.28
93 1.42
126 1.32
127 1.25
128 1.13
150 1.29
151 3.94
152 6.17
153 2.96
154 1.29
166 1.12
167 1.5
168 2.22
177 3.08
178 12.66
179 99.99
180 93.78
181 78.21
182 11.07
183 1.81
184 6.35
185 2.7
195 1.04
196 1.59

>  <PREDICTED SPECTRUM>  (1665) 
39 100
40 8
43 13
44 91
45 80
50 77
51 155
52 84
53 23
55 13
57 56
62 64
63 160
64 90
65 129
69 68
70 6
71 34
74 66
75 98
76 93
77 126
78 83
79 4
80 16
81 54
82 105
83 66
87 92
88 20
89 146
90 116
91 51
92 55
95 60
96 69
97 38
101 41
102 55
103 43
104 177
109 12
113 63
121 25
126 52
127 29
128 43
139 48
140 44
147 101
148 128
149 121
150 48
151 213
152 164
153 146
154 127
155 12
163 51
164 65
165 97
166 78
167 19
177 85
178 282
179 542
180 955
181 999
182 367
183 79

$$$$

     RDKit          2D

 10 10  0  0  0  0  0  0  0  0999 V2000
   -1.3000    0.7500    0.0000 C   0  0  0  0  0  0  0  0  0  0  0  0
   -0.0000   -1.5000    0.0000 C   0  0  0  0  0  0  0  0  0  0  0  0
    0.0000    1.5000    0.0000 C   0  0  0  0  0  0  0  0  0  0  0  0
    1.3000   -0.7500    0.0000 C   0  0  0  0  0  0  0  0  0  0  0  0
   -1.3000   -0.7500    0.0000 C   0  0  0  0  0  0  0  0  0  0  0  0
    1.3000    0.7500    0.0000 C   0  0  0  0  0  0  0  0  0  0  0  0
   -2.5989   -1.5002    0.0000 I   0  0  0  0  0  0  0  0  0  0  0  0
    2.5989    1.5002    0.0000 N   0  0  0  0  0  0  0  0  0  0  0  0
    3.8981    0.7504    0.0000 O   0  0  0  0  0  0  0  0  0  0  0  0
    2.5987    3.0002    0.0000 O   0  0  0  0  0  0  0  0  0  0  0  0
  3  1  2  0
  4  2  1  0
  5  1  1  0
  5  2  2  0
  6  3  1  0
  6  4  2  0
  7  5  1  0
  8  6  1  0
  9  8  1  0
 10  8  2  0
M  CHG  2   8   1   9  -1
M  END
>  <NAME>  (1666) 
4-IODONITROBENZENE

>  <SYNONYMS>  (1666) 


>  <SPECTRUM TYPE>  (1666) 
MS1

>  <INSTRUMENT TYPE>  (1666) 
EI-B

>  <INSTRUMENT>  (1666) 
HITACHI M-80

>  <ION MODE>  (1666) 
P

>  <INCHIKEY>  (1666) 
SCCCFNJTCDSLCY-UHFFFAOYSA-N

>  <FORMULA>  (1666) 
C6H4INO2

>  <EXACT MASS>  (1666) 
248.928676368

>  <MW>  (1666) 
249

>  <ID>  (1666) 
JP009543

>  <CONTRIBUTOR>  (1666) 
University of Tokyo Team, {Faculty of Engineering, University of Tokyo

>  <COMMENT>  (1666) 
SMILES=[O-1][N+1](=O)c(c1)ccc(I)c1
cas=636-98-6
InChI=InChI=1S/C6H4INO2/c7-5-1-3-6(4-2-5)8(9)10/h1-4H
computed SMILES=O=N(=O)C1=CC=C(I)C=C1
accession=JP009543
date=2016.01.19 (Created 2008.10.21, modified 2011.05.06)
author=NARA WOMEN'S UNIVERSITY
license=CC BY-NC-SA
exact mass=248.92867
ionization energy=70 eV
ion type=[M]+*
computed spectral entropy=2.2587350714132657
computed normalized entropy=0.7539842900359092
SPLASH=splash10-0002-4090000000-71299b107f879302fc7d
submitter=submitter = University of Tokyo Team (Faculty of Engineering, University of Tokyo)
MoNA Rating=3.75

>  <NUM PEAKS>  (1666) 
20

>  <MASS SPECTRAL PEAKS>  (1666) 
30 4.74
46 1.52
50 10.27
63 2.63
64 4.67
73 1.15
74 6.68
75 7.16
76 33.22
77 2.57
92 10.26
127 5.05
191 12.24
203 17.19
204 1.68
219 23.22
220 2.17
233 7.59
249 99.99
250 7.98

>  <PREDICTED SPECTRUM>  (1666) 
15 19
16 3
18 21
25 32
26 48
27 7
29 21
30 239
31 7
36 90
37 181
38 304
39 234
40 4
46 156
49 147
50 647
51 240
52 145
53 76
57 3
61 52
62 215
63 420
64 206
66 20
68 10
73 202
74 429
75 537
76 842
77 137
92 423
94 40
95 56
122 112
127 451
175 57
191 330
203 660
219 278
249 999
250 263
251 79

$$$$

     RDKit          2D

  9  9  0  0  0  0  0  0  0  0999 V2000
    2.6027    1.4936    0.0000 C   0  0  0  0  0  0  0  0  0  0  0  0
   -3.9180   -0.7714    0.0000 C   0  0  0  0  0  0  0  0  0  0  0  0
    1.3000   -0.7500    0.0000 C   0  0  0  0  0  0  0  0  0  0  0  0
    0.0300    1.5000    0.0000 C   0  0  0  0  0  0  0  0  0  0  0  0
    0.0300   -1.5000    0.0000 C   0  0  0  0  0  0  0  0  0  0  0  0
   -1.3200    0.7500    0.0000 C   0  0  0  0  0  0  0  0  0  0  0  0
    1.3000    0.7500    0.0000 C   0  0  0  0  0  0  0  0  0  0  0  0
   -1.3200   -0.7500    0.0000 C   0  0  0  0  0  0  0  0  0  0  0  0
   -2.6128   -1.5107    0.0000 O   0  0  0  0  0  0  0  0  0  0  0  0
  5  3  2  0
  6  4  1  0
  7  1  1  0
  7  3  1  0
  7  4  2  0
  8  5  1  0
  8  6  2  0
  9  2  1  0
  9  8  1  0
M  END
>  <NAME>  (1667) 
PARA-METHOXYTOLUENE

>  <SYNONYMS>  (1667) 


>  <SPECTRUM TYPE>  (1667) 
MS1

>  <INSTRUMENT TYPE>  (1667) 
EI-B

>  <INSTRUMENT>  (1667) 
HITACHI M-80

>  <ION MODE>  (1667) 
P

>  <INCHIKEY>  (1667) 
CHLICZRVGGXEOD-UHFFFAOYSA-N

>  <FORMULA>  (1667) 
C8H10O

>  <EXACT MASS>  (1667) 
122.07316494

>  <MW>  (1667) 
122

>  <ID>  (1667) 
JP009542

>  <CONTRIBUTOR>  (1667) 
University of Tokyo Team, {Faculty of Engineering, University of Tokyo

>  <COMMENT>  (1667) 
SMILES=COc(c1)ccc(C)c1
cas=104-93-8
InChI=InChI=1S/C8H10O/c1-7-3-5-8(9-2)6-4-7/h3-6H,1-2H3
computed SMILES=O(C1=CC=C(C=C1)C)C
accession=JP009542
date=2016.01.19 (Created 2008.10.21, modified 2011.05.06)
author=NARA WOMEN'S UNIVERSITY
license=CC BY-NC-SA
exact mass=122.07316
ionization energy=70 eV
ion type=[M]+*
computed spectral entropy=2.6797015042433263
computed normalized entropy=0.7663937392200076
SPLASH=splash10-00fr-9800000000-7bf81d1ff4cffad22e15
submitter=submitter = University of Tokyo Team (Faculty of Engineering, University of Tokyo)
MoNA Rating=3.75

>  <NUM PEAKS>  (1667) 
33

>  <MASS SPECTRAL PEAKS>  (1667) 
26 1.19
28 2.29
29 2.41
30 1.05
38 1.87
39 8.11
41 1.1
50 5.66
51 13.77
52 6.15
53 7.25
61 1.24
62 3.05
63 6.9
64 1.99
65 7.54
74 1.38
75 1.13
76 1.05
77 40.2
78 14.48
79 29.47
80 2.01
89 3.55
90 1.83
91 20.98
92 8.54
93 1.58
107 30.52
108 3.17
121 40.36
122 99.99
123 9.05

>  <PREDICTED SPECTRUM>  (1667) 
14 11
15 103
25 12
26 62
27 121
28 21
29 5
37 11
38 85
39 316
40 27
41 148
50 213
51 349
52 225
53 155
61 26
62 89
63 231
64 158
65 354
66 78
74 109
75 139
76 60
77 608
78 368
79 394
80 126
89 142
90 190
91 662
92 282
93 136
94 41
106 39
107 553
108 207
119 26
120 110
121 255
122 999
123 254
124 12

$$$$

     RDKit          2D

  9  9  0  0  0  0  0  0  0  0999 V2000
    2.9228   -0.2425    0.0000 C   0  0  0  0  0  0  0  0  0  0  0  0
    1.6233   -0.9933    0.0000 C   0  0  0  0  0  0  0  0  0  0  0  0
    2.9233    1.2583    0.0000 C   0  0  0  0  0  0  0  0  0  0  0  0
    0.3243   -0.2433    0.0000 C   0  0  0  0  0  0  0  0  0  0  0  0
    1.6243    2.0083    0.0000 C   0  0  0  0  0  0  0  0  0  0  0  0
   -2.2733    1.2575    0.0000 C   0  0  0  0  0  0  0  0  0  0  0  0
    0.3248    1.2575    0.0000 C   0  0  0  0  0  0  0  0  0  0  0  0
   -0.9743    2.0075    0.0000 N   0  0  0  0  0  0  0  0  0  0  0  0
   -3.5724    2.0075    0.0000 O   0  0  0  0  0  0  0  0  0  0  0  0
  2  1  2  0
  3  1  1  0
  4  2  1  0
  5  3  2  0
  7  4  2  0
  7  5  1  0
  8  6  2  3
  8  7  1  0
  9  6  1  0
M  END
>  <NAME>  (1668) 
FORMANILIDE

>  <SYNONYMS>  (1668) 


>  <SPECTRUM TYPE>  (1668) 
MS1

>  <INSTRUMENT TYPE>  (1668) 
EI-B

>  <INSTRUMENT>  (1668) 
HITACHI M-80

>  <ION MODE>  (1668) 
P

>  <INCHIKEY>  (1668) 
DYDNPESBYVVLBO-UHFFFAOYSA-N

>  <FORMULA>  (1668) 
C7H7NO

>  <EXACT MASS>  (1668) 
121.052763844

>  <MW>  (1668) 
121

>  <ID>  (1668) 
JP009541

>  <CONTRIBUTOR>  (1668) 
University of Tokyo Team, {Faculty of Engineering, University of Tokyo

>  <COMMENT>  (1668) 
SMILES=O=CNc(c1)cccc1
cas=103-70-8
InChI=InChI=1S/C7H7NO/c9-6-8-7-4-2-1-3-5-7/h1-6H,(H,8,9)
computed SMILES=OC=NC=1C=CC=CC1
accession=JP009541
date=2016.01.19 (Created 2008.10.21, modified 2011.05.06)
author=NARA WOMEN'S UNIVERSITY
license=CC BY-NC-SA
exact mass=121.05276
ionization energy=70 eV
ion type=[M]+*
computed spectral entropy=1.698134312629543
computed normalized entropy=0.599366904787474
SPLASH=splash10-00di-5900000000-7cdbe066b73caa780cd4
submitter=submitter = University of Tokyo Team (Faculty of Engineering, University of Tokyo)
MoNA Rating=3.75

>  <NUM PEAKS>  (1668) 
17

>  <MASS SPECTRAL PEAKS>  (1668) 
29 2.98
63 2.9
65 4.23
66 3.14
67 1.44
92 3.56
93 68.53
94 7.81
121 99.99
122 46.94
123 3.53
130 2.1
132 1.46
154 1.02
158 1.35
160 2.24
186 1.14

>  <PREDICTED SPECTRUM>  (1668) 
15 7
17 14
18 1
26 10
27 18
28 23
33 12
37 103
38 191
39 366
40 106
41 40
42 15
43 67
44 70
45 44
46 28
47 8
49 24
50 294
51 556
52 288
53 47
61 24
62 98
63 216
64 262
65 454
66 230
67 61
73 20
74 115
75 148
76 167
77 616
78 276
91 121
92 316
93 259
94 115
102 7
103 186
104 236
105 88
119 119
120 732
121 999
122 264
123 3

$$$$

     RDKit          2D

 11 10  0  0  0  0  0  0  0  0999 V2000
   -6.8200    5.0625    0.0000 C   0  0  0  0  0  0  0  0  0  0  0  0
   -5.5209    2.8125    0.0000 C   0  0  0  0  0  0  0  0  0  0  0  0
   -0.3248    2.8125    0.0000 C   0  0  0  0  0  0  0  0  0  0  0  0
   -2.9228    4.3125    0.0000 C   0  0  0  0  0  0  0  0  0  0  0  0
   -4.2219    5.0625    0.0000 C   0  0  0  0  0  0  0  0  0  0  0  0
   -1.6238    5.0625    0.0000 C   0  0  0  0  0  0  0  0  0  0  0  0
    0.9743    5.0625    0.0000 C   0  0  0  0  0  0  0  0  0  0  0  0
    2.2733    4.3125    0.0000 C   0  0  0  0  0  0  0  0  0  0  0  0
   -5.5209    4.3125    0.0000 C   0  0  0  0  0  0  0  0  0  0  0  0
   -0.3248    4.3125    0.0000 C   0  0  0  0  0  0  0  0  0  0  0  0
    3.5724    5.0625    0.0000 Br  0  0  0  0  0  0  0  0  0  0  0  0
  5  4  1  0
  6  4  1  0
  8  7  1  0
  9  1  1  0
  9  2  1  0
  9  5  2  0
 10  3  1  0
 10  6  1  0
  7 10  2  0
 11  8  1  0
M  END
>  <NAME>  (1669) 
GERANYL BROMIDE

>  <SYNONYMS>  (1669) 
TRANS-1-BROMO-3,7-DIMETHYL-2,6-OCTADIENE

>  <SPECTRUM TYPE>  (1669) 
MS1

>  <INSTRUMENT TYPE>  (1669) 
EI-B

>  <INSTRUMENT>  (1669) 
HITACHI M-80

>  <ION MODE>  (1669) 
P

>  <INCHIKEY>  (1669) 
JSCUZAYKVZXKQE-JXMROGBWSA-N

>  <FORMULA>  (1669) 
C10H17Br

>  <EXACT MASS>  (1669) 
216.051362644

>  <MW>  (1669) 
216

>  <ID>  (1669) 
JP009540

>  <CONTRIBUTOR>  (1669) 
University of Tokyo Team, {Faculty of Engineering, University of Tokyo

>  <COMMENT>  (1669) 
SMILES=CC(C)=CCCC(C)=CCBr
cas=6138-90-5
InChI=InChI=1S/C10H17Br/c1-9(2)5-4-6-10(3)7-8-11/h5,7H,4,6,8H2,1-3H3/b10-7+
computed SMILES=BrCC=C(C)CCC=C(C)C
accession=JP009540
date=2016.01.19 (Created 2008.10.21, modified 2011.05.06)
author=NARA WOMEN'S UNIVERSITY
license=CC BY-NC-SA
exact mass=216.05136
ionization energy=70 eV
ion type=[M]+*
computed spectral entropy=3.0862045353389886
computed normalized entropy=0.7736818446283702
SPLASH=splash10-014i-9000000000-06cebcea3d02f729242f
submitter=submitter = University of Tokyo Team (Faculty of Engineering, University of Tokyo)
MoNA Rating=3.75

>  <NUM PEAKS>  (1669) 
54

>  <MASS SPECTRAL PEAKS>  (1669) 
15 1.39
26 1.33
27 17.95
29 10.01
38 1.53
39 24.73
40 6.57
41 64.28
42 5.03
43 6.4
50 1.72
51 5.22
52 3.24
53 19.55
54 2.91
55 13.36
56 1.7
57 2.99
59 2.57
63 1.45
65 4.11
66 2.25
67 22.6
68 18.16
69 99.99
70 5.78
71 1.04
77 5.3
78 1.35
79 6.52
80 1.96
81 41.21
82 3.68
83 1.76
91 4.58
92 1.69
93 7.97
94 1.77
95 9.76
96 1.91
105 1.99
107 1.72
109 1.4
110 0.99
121 3.06
123 1.06
135 0.88
136 3.95
137 24.7
138 2.76
173 1.21
175 1.15
178 0.87
217 0.8

>  <PREDICTED SPECTRUM>  (1669) 
26 91
27 379
28 143
29 430
30 68
31 37
36 27
37 54
38 119
39 534
40 221
41 916
42 209
43 575
44 99
45 106
50 150
51 297
52 232
53 507
54 172
55 677
56 219
57 389
58 79
59 157
62 63
63 158
64 116
65 362
66 204
67 649
68 385
69 999
70 339
71 222
74 6
75 154
76 114
77 560
78 274
79 646
80 477
81 882
82 457
83 351
84 131
87 9
88 69
89 182
90 83
91 586
92 375
93 735
94 389
95 879
96 358
97 213
98 1
102 1
103 150
104 25
105 572
106 309
107 841
108 284
109 486
110 259
111 224
115 156
116 81
117 226
118 121
119 549
120 454
121 833
122 467
123 701
124 238
125 37
128 39
131 101
132 127
133 400
134 328
135 623
136 569
137 774
138 341
139 159
143 26
145 96
146 66
147 170
148 201
149 95
150 203
151 86
159 149
160 105
161 410
162 240
173 232
174 121
175 296
176 185
177 41
187 2
188 69
189 183
201 248
202 98
203 279
204 184
215 25
216 317
217 175
218 384
219 139

$$$$

     RDKit          2D

 10 10  0  0  0  0  0  0  0  0999 V2000
   -0.3325    2.8100    0.0000 C   0  0  0  0  0  0  0  0  0  0  0  0
    2.2687   -3.1902    0.0000 C   0  0  0  0  0  0  0  0  0  0  0  0
    3.5681   -0.9404    0.0000 C   0  0  0  0  0  0  0  0  0  0  0  0
   -1.6200   -0.9400    0.0000 C   0  0  0  0  0  0  0  0  0  0  0  0
   -1.6200    0.5600    0.0000 C   0  0  0  0  0  0  0  0  0  0  0  0
   -0.3300   -1.6900    0.0000 C   0  0  0  0  0  0  0  0  0  0  0  0
    0.9700    0.5600    0.0000 C   0  0  0  0  0  0  0  0  0  0  0  0
   -0.3300    1.3100    0.0000 C   0  0  0  0  0  0  0  0  0  0  0  0
    0.9700   -0.9400    0.0000 C   0  0  0  0  0  0  0  0  0  0  0  0
    2.2689   -1.6902    0.0000 N   0  0  0  0  0  0  0  0  0  0  0  0
  5  4  2  0
  6  4  1  0
  8  1  1  0
  8  5  1  0
  8  7  2  0
  9  6  2  0
  9  7  1  0
 10  2  1  0
 10  3  1  0
 10  9  1  0
M  END
>  <NAME>  (1670) 
N,N-DIMETHYL-META-TOLUIDINE

>  <SYNONYMS>  (1670) 


>  <SPECTRUM TYPE>  (1670) 
MS1

>  <INSTRUMENT TYPE>  (1670) 
EI-B

>  <INSTRUMENT>  (1670) 
HITACHI M-80

>  <ION MODE>  (1670) 
P

>  <INCHIKEY>  (1670) 
CWOMTHDOJCARBY-UHFFFAOYSA-N

>  <FORMULA>  (1670) 
C9H13N

>  <EXACT MASS>  (1670) 
135.104799416

>  <MW>  (1670) 
135

>  <ID>  (1670) 
JP009539

>  <CONTRIBUTOR>  (1670) 
University of Tokyo Team, {Faculty of Engineering, University of Tokyo

>  <COMMENT>  (1670) 
SMILES=CN(C)c(c1)cc(C)cc1
cas=121-72-2
InChI=InChI=1S/C9H13N/c1-8-5-4-6-9(7-8)10(2)3/h4-7H,1-3H3
computed SMILES=C=1C=C(C=C(C1)C)N(C)C
accession=JP009539
date=2016.01.19 (Created 2008.10.21, modified 2011.05.06)
author=NARA WOMEN'S UNIVERSITY
license=CC BY-NC-SA
exact mass=135.1048
ionization energy=70 eV
ion type=[M]+*
computed spectral entropy=2.044732528301646
computed normalized entropy=0.6072328157487308
SPLASH=splash10-001r-1900000000-b1df3d8df6cfbec7296c
submitter=submitter = University of Tokyo Team (Faculty of Engineering, University of Tokyo)
MoNA Rating=3.75

>  <NUM PEAKS>  (1670) 
29

>  <MASS SPECTRAL PEAKS>  (1670) 
15 1.29
28 1.94
39 2.29
42 3.82
44 1.37
51 1.3
63 1.64
65 5.31
67 1.33
77 3.64
78 1.43
79 1.2
89 1.49
90 1
91 15.25
92 3.02
93 1.55
104 1.06
105 1.85
106 1.22
118 8.99
119 9.02
120 5.82
121 1.6
132 1.37
133 1.43
134 99.99
135 83.93
136 7.39

>  <PREDICTED SPECTRUM>  (1670) 
15 22
26 10
27 63
28 46
29 5
30 69
37 2
38 42
39 158
40 42
41 102
42 201
43 54
44 115
46 13
50 85
51 153
52 105
53 83
54 43
55 21
58 12
61 36
62 61
63 143
64 101
65 258
66 147
67 70
68 21
73 41
74 57
75 74
76 48
77 267
78 176
79 167
80 103
87 39
88 38
89 104
90 120
91 364
92 208
93 176
94 55
102 54
103 75
104 146
105 179
106 166
107 141
108 17
116 13
117 118
118 286
119 345
120 457
121 150
132 190
133 172
134 974
135 999
136 270
137 66

$$$$

     RDKit          2D

  9  9  0  0  0  0  0  0  0  0999 V2000
   -1.6205    0.1948    0.0000 C   0  0  0  0  0  0  0  0  0  0  0  0
   -0.3171   -0.5477    0.0000 C   0  0  0  0  0  0  0  0  0  0  0  0
    2.2488    2.4423    0.0000 C   0  0  0  0  0  0  0  0  0  0  0  0
    3.5317    1.7146    0.0000 C   0  0  0  0  0  0  0  0  0  0  0  0
    0.9717    1.6899    0.0000 C   0  0  0  0  0  0  0  0  0  0  0  0
    3.5679    0.2150    0.0000 C   0  0  0  0  0  0  0  0  0  0  0  0
    0.9776    0.2098    0.0000 C   0  0  0  0  0  0  0  0  0  0  0  0
    2.2604   -0.5180    0.0000 C   0  0  0  0  0  0  0  0  0  0  0  0
    2.2567   -2.0179    0.0000 N   0  0  0  0  0  0  0  0  0  0  0  0
  2  1  1  0
  4  3  2  0
  5  3  1  0
  6  4  1  0
  7  2  1  0
  7  5  2  0
  8  6  2  0
  8  7  1  0
  9  8  1  0
M  END
>  <NAME>  (1671) 
2-ETHYLANILINE

>  <SYNONYMS>  (1671) 


>  <SPECTRUM TYPE>  (1671) 
MS1

>  <INSTRUMENT TYPE>  (1671) 
EI-B

>  <INSTRUMENT>  (1671) 
HITACHI M-80

>  <ION MODE>  (1671) 
P

>  <INCHIKEY>  (1671) 
MLPVBIWIRCKMJV-UHFFFAOYSA-N

>  <FORMULA>  (1671) 
C8H11N

>  <EXACT MASS>  (1671) 
121.08914935199999

>  <MW>  (1671) 
121

>  <ID>  (1671) 
JP009538

>  <CONTRIBUTOR>  (1671) 
University of Tokyo Team, {Faculty of Engineering, University of Tokyo

>  <COMMENT>  (1671) 
SMILES=CCc(c1)c(N)ccc1
cas=578-54-1
InChI=InChI=1S/C8H11N/c1-2-7-5-3-4-6-8(7)9/h3-6H,2,9H2,1H3
computed SMILES=NC=1C=CC=CC1CC
accession=JP009538
date=2016.01.19 (Created 2008.10.21, modified 2011.05.06)
author=NARA WOMEN'S UNIVERSITY
license=CC BY-NC-SA
exact mass=121.08915
ionization energy=70 eV
ion type=[M]+*
computed spectral entropy=2.0422707424500484
computed normalized entropy=0.6268294136214397
SPLASH=splash10-0a4i-2900000000-29c46d82c093819da44c
submitter=submitter = University of Tokyo Team (Faculty of Engineering, University of Tokyo)
MoNA Rating=3.75

>  <NUM PEAKS>  (1671) 
26

>  <MASS SPECTRAL PEAKS>  (1671) 
28 2.12
39 2.3
51 1.8
52 1.4
53 1.82
63 1.05
65 3.19
66 1.38
77 10.39
78 3.71
79 5.99
80 1.58
91 3.27
92 1.35
93 2.47
94 1.12
103 2.48
104 2.17
106 99.99
107 8.47
117 1.14
118 2.76
119 2.45
120 4.83
121 46.86
122 4.51

>  <PREDICTED SPECTRUM>  (1671) 
14 19
15 51
16 2
17 11
18 29
25 5
26 95
27 287
28 179
29 157
30 51
37 134
38 232
39 481
40 225
41 309
42 240
43 65
44 107
49 46
50 345
51 538
52 439
53 330
54 217
55 45
61 130
62 208
63 355
64 259
65 499
66 326
67 106
68 22
74 184
75 216
76 226
77 684
78 513
79 415
80 174
81 43
86 25
88 11
89 201
90 237
91 405
92 422
93 387
94 170
102 195
103 324
104 504
105 184
106 888
107 274
117 126
118 137
119 69
120 388
121 999
122 311
123 40

$$$$

     RDKit          2D

  8  8  0  0  0  0  0  0  0  0999 V2000
   -1.3000    0.7500    0.0000 C   0  0  0  0  0  0  0  0  0  0  0  0
    0.0000    1.5000    0.0000 C   0  0  0  0  0  0  0  0  0  0  0  0
   -1.3000   -0.7500    0.0000 C   0  0  0  0  0  0  0  0  0  0  0  0
    1.3000    0.7500    0.0000 C   0  0  0  0  0  0  0  0  0  0  0  0
    0.0000   -1.5000    0.0000 C   0  0  0  0  0  0  0  0  0  0  0  0
    1.3000   -0.7500    0.0000 C   0  0  0  0  0  0  0  0  0  0  0  0
   -0.0000   -3.0000    0.0000 F   0  0  0  0  0  0  0  0  0  0  0  0
    2.5989   -1.5002    0.0000 N   0  0  0  0  0  0  0  0  0  0  0  0
  2  1  2  0
  3  1  1  0
  4  2  1  0
  5  3  2  0
  6  4  2  0
  6  5  1  0
  7  5  1  0
  8  6  1  0
M  END
>  <NAME>  (1672) 
2-FLUOROANILINE

>  <SYNONYMS>  (1672) 


>  <SPECTRUM TYPE>  (1672) 
MS1

>  <INSTRUMENT TYPE>  (1672) 
EI-B

>  <INSTRUMENT>  (1672) 
HITACHI M-80

>  <ION MODE>  (1672) 
P

>  <INCHIKEY>  (1672) 
FTZQXOJYPFINKJ-UHFFFAOYSA-N

>  <FORMULA>  (1672) 
C6H6FN

>  <EXACT MASS>  (1672) 
111.048427412

>  <MW>  (1672) 
111

>  <ID>  (1672) 
JP009537

>  <CONTRIBUTOR>  (1672) 
University of Tokyo Team, {Faculty of Engineering, University of Tokyo

>  <COMMENT>  (1672) 
SMILES=Nc(c1)c(F)ccc1
cas=348-54-9
InChI=InChI=1S/C6H6FN/c7-5-3-1-2-4-6(5)8/h1-4H,8H2
computed SMILES=FC=1C=CC=CC1N
accession=JP009537
date=2016.01.19 (Created 2008.10.21, modified 2011.05.06)
author=NARA WOMEN'S UNIVERSITY
license=CC BY-NC-SA
exact mass=111.04843
ionization energy=70 eV
ion type=[M]+*
computed spectral entropy=2.4419784396029667
computed normalized entropy=0.698405021775148
SPLASH=splash10-03di-9800000000-884fd855b4041bc1dc84
submitter=submitter = University of Tokyo Team (Faculty of Engineering, University of Tokyo)
MoNA Rating=3.75

>  <NUM PEAKS>  (1672) 
33

>  <MASS SPECTRAL PEAKS>  (1672) 
27 1.02
28 4.8
31 1.24
37 1.12
38 2.65
39 4.68
40 1.11
41 4.02
50 1.69
51 2
52 5.37
56 1.75
57 8.88
58 1.12
61 1.01
62 1.79
63 7.19
64 13.04
65 5.44
72 1.31
75 1.12
78 1.04
81 1.9
82 1.66
83 17.64
84 17.34
85 2.55
90 1.58
91 8.43
92 1.11
110 4.54
111 99.99
112 7.3

>  <PREDICTED SPECTRUM>  (1672) 
16 22
19 16
25 25
26 52
27 33
28 88
31 184
32 11
33 84
36 33
37 155
38 194
39 261
40 124
41 237
42 123
43 39
44 211
45 72
46 63
49 117
50 274
51 260
52 270
53 149
54 113
55 70
56 245
57 450
58 95
59 27
60 41
61 180
62 196
63 357
64 308
65 248
66 119
67 60
68 237
69 192
70 187
71 193
72 90
73 41
74 118
75 244
76 81
79 64
80 156
81 217
82 180
83 513
84 528
85 162
90 249
91 394
92 172
93 184
94 32
95 62
96 10
108 104
109 117
110 381
111 999
112 261
113 19

$$$$

     RDKit          2D

 10 10  0  0  0  0  0  0  0  0999 V2000
   -1.3000   -0.7500    0.0000 C   0  0  0  0  0  0  0  0  0  0  0  0
    0.0000    1.5000    0.0000 C   0  0  0  0  0  0  0  0  0  0  0  0
    0.0000   -1.5000    0.0000 C   0  0  0  0  0  0  0  0  0  0  0  0
    1.3000    0.7500    0.0000 C   0  0  0  0  0  0  0  0  0  0  0  0
   -2.5989    1.5002    0.0000 C   0  0  0  0  0  0  0  0  0  0  0  0
   -3.8981    0.7504    0.0000 C   0  0  0  0  0  0  0  0  0  0  0  0
   -1.3000    0.7500    0.0000 C   0  0  0  0  0  0  0  0  0  0  0  0
    1.3000   -0.7500    0.0000 C   0  0  0  0  0  0  0  0  0  0  0  0
   -5.1972    0.0006    0.0000 N   0  0  0  0  0  0  0  0  0  0  0  0
    2.5989   -1.5002    0.0000 N   0  0  0  0  0  0  0  0  0  0  0  0
  3  1  2  0
  4  2  1  0
  6  5  1  0
  7  1  1  0
  7  2  2  0
  7  5  1  0
  8  3  1  0
  8  4  2  0
  9  6  3  0
 10  8  1  0
M  END
>  <NAME>  (1673) 
4-AMINOBENZYL CYANIDE

>  <SYNONYMS>  (1673) 


>  <SPECTRUM TYPE>  (1673) 
MS1

>  <INSTRUMENT TYPE>  (1673) 
EI-B

>  <INSTRUMENT>  (1673) 
HITACHI M-80

>  <ION MODE>  (1673) 
P

>  <INCHIKEY>  (1673) 
YCWRFIYBUQBHJI-UHFFFAOYSA-N

>  <FORMULA>  (1673) 
C8H8N2

>  <EXACT MASS>  (1673) 
132.068748256

>  <MW>  (1673) 
132

>  <ID>  (1673) 
JP009536

>  <CONTRIBUTOR>  (1673) 
University of Tokyo Team, {Faculty of Engineering, University of Tokyo

>  <COMMENT>  (1673) 
SMILES=N#CCc(c1)ccc(N)c1
cas=3544-25-0
InChI=InChI=1S/C8H8N2/c9-6-5-7-1-3-8(10)4-2-7/h1-4H,5,10H2
computed SMILES=N#CCC1=CC=C(N)C=C1
accession=JP009536
date=2016.01.19 (Created 2008.10.21, modified 2011.05.06)
author=NARA WOMEN'S UNIVERSITY
license=CC BY-NC-SA
exact mass=132.06875
ionization energy=70 eV
ion type=[M]+*
computed spectral entropy=2.419333711991178
computed normalized entropy=0.6751279269179755
SPLASH=splash10-001i-2900000000-930ebf0dac8f57605dab
submitter=submitter = University of Tokyo Team (Faculty of Engineering, University of Tokyo)
MoNA Rating=3.75

>  <NUM PEAKS>  (1673) 
36

>  <MASS SPECTRAL PEAKS>  (1673) 
18 1.11
27 1.55
28 6.06
38 1.02
39 4.06
40 1.1
41 2.15
50 2.3
51 5.96
52 5.07
53 2.29
54 1.9
62 1.08
63 3.42
64 2.05
65 4.47
66 2.91
75 1.21
76 3.2
77 13.72
78 7.68
79 2.41
80 1.55
89 1.13
91 1.75
93 1.04
102 1.52
103 2.28
104 21.36
105 9.58
106 13.29
107 1.13
116 1.34
131 86.22
132 99.99
133 9.87

>  <PREDICTED SPECTRUM>  (1673) 
14 12
15 7
26 44
27 87
28 72
36 8
37 95
38 145
39 282
40 128
41 182
42 48
43 18
44 40
49 63
50 242
51 372
52 305
53 173
54 72
55 19
61 156
62 183
63 306
64 192
65 311
66 150
67 8
72 13
73 25
74 116
75 169
76 173
77 427
78 317
79 175
80 55
85 2
86 22
87 105
88 21
89 241
90 99
91 138
92 273
93 141
99 27
100 9
102 64
103 172
104 435
105 569
106 324
107 122
114 14
115 51
116 97
129 4
130 114
131 649
132 999
133 329
134 57

$$$$

     RDKit          2D

  7  7  0  0  0  0  0  0  0  0999 V2000
   -1.3000   -0.7500    0.0000 C   0  0  0  0  0  0  0  0  0  0  0  0
   -1.3000    0.7500    0.0000 C   0  0  0  0  0  0  0  0  0  0  0  0
   -0.0000   -1.5000    0.0000 C   0  0  0  0  0  0  0  0  0  0  0  0
    1.3000    0.7500    0.0000 C   0  0  0  0  0  0  0  0  0  0  0  0
    2.5989    1.5002    0.0000 N   0  0  0  0  0  0  0  0  0  0  0  0
    0.0000    1.5000    0.0000 N   0  0  0  0  0  0  0  0  0  0  0  0
    1.3000   -0.7500    0.0000 N   0  0  0  0  0  0  0  0  0  0  0  0
  2  1  2  0
  3  1  1  0
  5  4  2  0
  6  2  1  0
  6  4  1  0
  7  3  2  0
  7  4  1  0
M  END
>  <NAME>  (1674) 
2-AMINOPYRIMIDINE

>  <SYNONYMS>  (1674) 


>  <SPECTRUM TYPE>  (1674) 
MS1

>  <INSTRUMENT TYPE>  (1674) 
EI-B

>  <INSTRUMENT>  (1674) 
HITACHI M-80

>  <ION MODE>  (1674) 
P

>  <INCHIKEY>  (1674) 
LJXQPZWIHJMPQQ-UHFFFAOYSA-N

>  <FORMULA>  (1674) 
C4H5N3

>  <EXACT MASS>  (1674) 
95.04834715999999

>  <MW>  (1674) 
95

>  <ID>  (1674) 
JP009535

>  <CONTRIBUTOR>  (1674) 
University of Tokyo Team, {Faculty of Engineering, University of Tokyo

>  <COMMENT>  (1674) 
SMILES=Nc(n1)nccc1
cas=109-12-6
InChI=InChI=1S/C4H5N3/c5-4-6-2-1-3-7-4/h1-3H,(H2,5,6,7)
computed SMILES=N=C1N=CC=CN1
accession=JP009535
date=2016.01.19 (Created 2008.10.21, modified 2011.05.06)
author=NARA WOMEN'S UNIVERSITY
license=CC BY-NC-SA
exact mass=95.04835
ionization energy=70 eV
ion type=[M]+*
computed spectral entropy=2.2082810593360147
computed normalized entropy=0.7499836386356938
SPLASH=splash10-0002-9000000000-255ea907dd659837b2e4
submitter=submitter = University of Tokyo Team (Faculty of Engineering, University of Tokyo)
MoNA Rating=3.75

>  <NUM PEAKS>  (1674) 
19

>  <MASS SPECTRAL PEAKS>  (1674) 
26 3.87
27 2.39
28 10.46
38 1.41
39 2.56
40 11.45
41 18.86
42 24.73
43 8.44
51 2.02
52 5.83
53 4.4
66 1.84
67 9.54
68 31.86
69 1.66
94 4.41
95 99.99
96 15.4

>  <PREDICTED SPECTRUM>  (1674) 
25 9
26 30
27 46
28 87
37 71
38 170
39 217
40 252
41 394
42 231
43 140
44 96
49 26
50 176
51 259
52 361
53 251
54 26
55 121
62 45
64 43
65 109
66 78
67 420
68 884
69 240
79 8
94 358
95 999
96 241

$$$$

     RDKit          2D

 15 16  0  0  0  0  0  0  0  0999 V2000
    2.2729    1.6330    0.0000 C   0  0  0  0  0  0  0  0  0  0  0  0
    2.2734    3.1338    0.0000 C   0  0  0  0  0  0  0  0  0  0  0  0
    0.9734    0.8821    0.0000 C   0  0  0  0  0  0  0  0  0  0  0  0
    0.9744    3.8838    0.0000 C   0  0  0  0  0  0  0  0  0  0  0  0
   -0.3256    1.6321    0.0000 C   0  0  0  0  0  0  0  0  0  0  0  0
   -4.2224    3.8828    0.0000 C   0  0  0  0  0  0  0  0  0  0  0  0
   -2.9235    1.6321    0.0000 C   0  0  0  0  0  0  0  0  0  0  0  0
   -5.5218    3.1317    0.0000 C   0  0  0  0  0  0  0  0  0  0  0  0
   -4.2229    0.8811    0.0000 C   0  0  0  0  0  0  0  0  0  0  0  0
   -0.3252    3.1330    0.0000 C   0  0  0  0  0  0  0  0  0  0  0  0
   -2.9232    3.1330    0.0000 C   0  0  0  0  0  0  0  0  0  0  0  0
   -5.5220    1.6309    0.0000 C   0  0  0  0  0  0  0  0  0  0  0  0
   -1.6242    3.8830    0.0000 C   0  0  0  0  0  0  0  0  0  0  0  0
   -6.8211    0.8809    0.0000 N   0  0  0  0  0  0  0  0  0  0  0  0
   -1.6242    5.3830    0.0000 O   0  0  0  0  0  0  0  0  0  0  0  0
  2  1  2  0
  3  1  1  0
  4  2  1  0
  5  3  2  0
  8  6  2  0
  9  7  1  0
 10  4  2  0
 10  5  1  0
 11  6  1  0
 11  7  2  0
 12  8  1  0
 12  9  2  0
 13 10  1  0
 13 11  1  0
 14 12  1  0
 15 13  2  0
M  END
>  <NAME>  (1675) 
4-AMINOBENZOPHENONE

>  <SYNONYMS>  (1675) 


>  <SPECTRUM TYPE>  (1675) 
MS1

>  <INSTRUMENT TYPE>  (1675) 
EI-B

>  <INSTRUMENT>  (1675) 
HITACHI M-80

>  <ION MODE>  (1675) 
P

>  <INCHIKEY>  (1675) 
RBKHNGHPZZZJCI-UHFFFAOYSA-N

>  <FORMULA>  (1675) 
C13H11NO

>  <EXACT MASS>  (1675) 
197.084063972

>  <MW>  (1675) 
197

>  <ID>  (1675) 
JP009534

>  <CONTRIBUTOR>  (1675) 
University of Tokyo Team, {Faculty of Engineering, University of Tokyo

>  <COMMENT>  (1675) 
SMILES=Nc(c2)ccc(c2)C(=O)c(c1)cccc1
cas=1137-41-3
InChI=InChI=1S/C13H11NO/c14-12-8-6-11(7-9-12)13(15)10-4-2-1-3-5-10/h1-9H,14H2
computed SMILES=O=C(C=1C=CC=CC1)C2=CC=C(N)C=C2
accession=JP009534
date=2016.01.19 (Created 2008.10.21, modified 2011.05.06)
author=NARA WOMEN'S UNIVERSITY
license=CC BY-NC-SA
exact mass=197.08406
ionization energy=70 eV
ion type=[M]+*
computed spectral entropy=1.8548840846937624
computed normalized entropy=0.6092528869916207
SPLASH=splash10-00dj-1900000000-29ea0fb93caac8947395
submitter=submitter = University of Tokyo Team (Faculty of Engineering, University of Tokyo)
MoNA Rating=3.75

>  <NUM PEAKS>  (1675) 
21

>  <MASS SPECTRAL PEAKS>  (1675) 
39 1.13
51 1.59
65 7.62
66 1
77 7.28
78 1.28
92 11.82
93 1.64
105 6.35
120 99.99
121 8.16
141 1.37
167 1.37
168 2.02
169 1.57
180 1.33
195 1.55
196 3.87
197 80.09
198 15.22
199 1.47

>  <PREDICTED SPECTRUM>  (1675) 
15 5
16 4
26 18
27 45
28 57
29 32
33 0
37 53
38 132
39 331
40 101
41 141
42 34
44 20
45 16
49 8
50 212
51 367
52 200
53 137
54 86
55 27
57 36
61 77
62 113
63 264
64 198
65 480
66 183
67 7
74 87
75 68
76 153
77 513
78 134
79 12
83 51
87 12
91 37
92 545
93 131
94 24
97 3
98 80
99 28
104 31
105 35
115 174
119 32
120 999
121 236
122 8
139 29
141 17
152 48
153 155
166 63
167 135
168 136
169 81
180 57
181 174
196 120
197 639
198 227
199 41

$$$$

     RDKit          2D

  8  8  0  0  0  0  0  0  0  0999 V2000
   -2.5989    1.5002    0.0000 C   0  0  0  0  0  0  0  0  0  0  0  0
   -1.3000   -0.7500    0.0000 C   0  0  0  0  0  0  0  0  0  0  0  0
    0.0000    1.5000    0.0000 C   0  0  0  0  0  0  0  0  0  0  0  0
    0.0000   -1.5000    0.0000 C   0  0  0  0  0  0  0  0  0  0  0  0
    1.3000    0.7500    0.0000 C   0  0  0  0  0  0  0  0  0  0  0  0
   -1.3000    0.7500    0.0000 C   0  0  0  0  0  0  0  0  0  0  0  0
    1.3000   -0.7500    0.0000 C   0  0  0  0  0  0  0  0  0  0  0  0
    2.5989   -1.5002    0.0000 N   0  0  0  0  0  0  0  0  0  0  0  0
  4  2  2  0
  5  3  1  0
  6  1  1  0
  6  2  1  0
  6  3  2  0
  7  4  1  0
  7  5  2  0
  8  7  1  0
M  END
>  <NAME>  (1676) 
PARA-TOLUIDINE

>  <SYNONYMS>  (1676) 


>  <SPECTRUM TYPE>  (1676) 
MS1

>  <INSTRUMENT TYPE>  (1676) 
EI-B

>  <INSTRUMENT>  (1676) 
HITACHI M-80

>  <ION MODE>  (1676) 
P

>  <INCHIKEY>  (1676) 
RZXMPPFPUUCRFN-UHFFFAOYSA-N

>  <FORMULA>  (1676) 
C7H9N

>  <EXACT MASS>  (1676) 
107.073499288

>  <MW>  (1676) 
107

>  <ID>  (1676) 
JP009533

>  <CONTRIBUTOR>  (1676) 
University of Tokyo Team, {Faculty of Engineering, University of Tokyo

>  <COMMENT>  (1676) 
SMILES=Cc(c1)ccc(N)c1
cas=106-49-0
InChI=InChI=1S/C7H9N/c1-6-2-4-7(8)5-3-6/h2-5H,8H2,1H3
computed SMILES=NC1=CC=C(C=C1)C
accession=JP009533
date=2016.01.19 (Created 2008.10.21, modified 2011.05.06)
author=NARA WOMEN'S UNIVERSITY
license=CC BY-NC-SA
exact mass=107.0735
ionization energy=70 eV
ion type=[M]+*
computed spectral entropy=1.2365542348131524
computed normalized entropy=0.5156831696699079
SPLASH=splash10-0a4i-0900000000-26d49344f064be566137
submitter=submitter = University of Tokyo Team (Faculty of Engineering, University of Tokyo)
MoNA Rating=3.75

>  <NUM PEAKS>  (1676) 
11

>  <MASS SPECTRAL PEAKS>  (1676) 
52 1.26
53 1.32
77 5.1
78 1.7
79 4.37
80 2.15
91 1.12
104 1.09
106 73.1
107 99.99
108 8.36

>  <PREDICTED SPECTRUM>  (1676) 
25 9
26 35
27 59
28 57
37 64
38 104
39 240
40 79
41 262
42 64
49 17
50 216
51 352
52 343
53 294
54 183
55 52
57 57
61 129
62 119
63 218
64 130
65 425
66 201
67 149
68 0
74 129
75 132
76 101
77 420
78 324
79 487
80 338
81 53
87 13
89 117
90 105
91 340
92 257
93 58
102 40
104 251
105 263
106 751
107 999
108 403
109 85

$$$$

     RDKit          2D

  7  7  0  0  0  0  0  0  0  0999 V2000
    0.0000   -1.5000    0.0000 C   0  0  0  0  0  0  0  0  0  0  0  0
    1.3000    0.7500    0.0000 C   0  0  0  0  0  0  0  0  0  0  0  0
   -1.3000    0.7500    0.0000 C   0  0  0  0  0  0  0  0  0  0  0  0
   -2.5989    1.5002    0.0000 N   0  0  0  0  0  0  0  0  0  0  0  0
    1.3000   -0.7500    0.0000 N   0  0  0  0  0  0  0  0  0  0  0  0
   -1.3000   -0.7500    0.0000 N   0  0  0  0  0  0  0  0  0  0  0  0
    0.0000    1.5000    0.0000 N   0  0  0  0  0  0  0  0  0  0  0  0
  4  3  2  0
  5  1  2  0
  5  2  1  0
  6  1  1  0
  6  3  1  0
  7  2  2  0
  7  3  1  0
M  END
>  <NAME>  (1677) 
2-AMINO-1,3,5-TRIAZINE

>  <SYNONYMS>  (1677) 


>  <SPECTRUM TYPE>  (1677) 
MS1

>  <INSTRUMENT TYPE>  (1677) 
EI-B

>  <INSTRUMENT>  (1677) 
HITACHI M-80

>  <ION MODE>  (1677) 
P

>  <INCHIKEY>  (1677) 
KCZIUKYAJJEIQG-UHFFFAOYSA-N

>  <FORMULA>  (1677) 
C3H4N4

>  <EXACT MASS>  (1677) 
96.04359612799999

>  <MW>  (1677) 
96

>  <ID>  (1677) 
JP009532

>  <CONTRIBUTOR>  (1677) 
University of Tokyo Team, {Faculty of Engineering, University of Tokyo

>  <COMMENT>  (1677) 
SMILES=Nc(n1)ncnc1
InChI=InChI=1S/C3H4N4/c4-3-6-1-5-2-7-3/h1-2H,(H2,4,5,6,7)
computed SMILES=N=C1N=CN=CN1
accession=JP009532
date=2016.01.19 (Created 2008.10.21, modified 2011.05.06)
author=NARA WOMEN'S UNIVERSITY
license=CC BY-NC-SA
exact mass=96.0436
ionization energy=70 eV
ion type=[M]+*
computed spectral entropy=2.167740991850186
computed normalized entropy=0.7120134721264001
SPLASH=splash10-002g-9000000000-317625f62ac9ebc4314d
submitter=submitter = University of Tokyo Team (Faculty of Engineering, University of Tokyo)
MoNA Rating=3.75

>  <NUM PEAKS>  (1677) 
21

>  <MASS SPECTRAL PEAKS>  (1677) 
13 1.5
14 1.47
16 1.28
17 1.18
27 11.62
28 45.33
29 1.3
38 1.19
39 1.99
40 1.78
41 11.11
42 60.14
43 40.66
53 9.83
54 7.85
55 1.02
67 1.2
68 9.08
69 11.65
96 99.99
97 7.94

>  <PREDICTED SPECTRUM>  (1677) 
16 10
25 30
26 73
27 17
28 99
38 123
39 60
40 233
41 412
42 486
43 308
44 151
51 133
52 126
53 119
54 51
55 7
56 27
67 87
68 212
69 906
70 302
71 136
95 143
96 999
97 213

$$$$

     RDKit          2D

 14 15  0  0  0  0  0  0  0  0999 V2000
    3.8989   -1.5002    0.0000 C   0  0  0  0  0  0  0  0  0  0  0  0
   -5.1981    0.7504    0.0000 C   0  0  0  0  0  0  0  0  0  0  0  0
   -2.6000   -0.7500    0.0000 C   0  0  0  0  0  0  0  0  0  0  0  0
   -1.3000   -1.5000    0.0000 C   0  0  0  0  0  0  0  0  0  0  0  0
    2.6000    0.7500    0.0000 C   0  0  0  0  0  0  0  0  0  0  0  0
   -1.3000    1.5000    0.0000 C   0  0  0  0  0  0  0  0  0  0  0  0
    2.6000   -0.7500    0.0000 C   0  0  0  0  0  0  0  0  0  0  0  0
   -2.6000    0.7500    0.0000 C   0  0  0  0  0  0  0  0  0  0  0  0
   -0.0000    0.7500    0.0000 C   0  0  0  0  0  0  0  0  0  0  0  0
    1.3000    1.5000    0.0000 C   0  0  0  0  0  0  0  0  0  0  0  0
   -0.0000   -0.7500    0.0000 C   0  0  0  0  0  0  0  0  0  0  0  0
    1.3000    3.0000    0.0000 Cl  0  0  0  0  0  0  0  0  0  0  0  0
    1.3000   -1.5000    0.0000 N   0  0  0  0  0  0  0  0  0  0  0  0
   -3.8989    1.5002    0.0000 O   0  0  0  0  0  0  0  0  0  0  0  0
  4  3  2  0
  7  1  1  0
  7  5  1  0
  8  3  1  0
  8  6  2  0
  9  6  1  0
 10  5  2  0
 10  9  1  0
 11  4  1  0
 11  9  2  0
 12 10  1  0
 13  7  2  0
 13 11  1  0
 14  2  1  0
 14  8  1  0
M  END
>  <NAME>  (1678) 
6-METHOXY-4-CHLOROQUINALIDINE

>  <SYNONYMS>  (1678) 


>  <SPECTRUM TYPE>  (1678) 
MS1

>  <INSTRUMENT TYPE>  (1678) 
EI-B

>  <INSTRUMENT>  (1678) 
HITACHI M-80

>  <ION MODE>  (1678) 
P

>  <INCHIKEY>  (1678) 
WABDZSKKLDCIRM-UHFFFAOYSA-N

>  <FORMULA>  (1678) 
C11H10ClNO

>  <EXACT MASS>  (1678) 
207.04509162

>  <MW>  (1678) 
207

>  <ID>  (1678) 
JP009531

>  <CONTRIBUTOR>  (1678) 
University of Tokyo Team, {Faculty of Engineering, University of Tokyo

>  <COMMENT>  (1678) 
SMILES=COc(c2)cc(c(Cl)1)c(c2)nc(C)c1
InChI=InChI=1S/C11H10ClNO/c1-7-5-10(12)9-6-8(14-2)3-4-11(9)13-7/h3-6H,1-2H3
computed SMILES=ClC1=CC(=NC=2C=CC(OC)=CC12)C
accession=JP009531
date=2016.01.19 (Created 2008.10.21, modified 2011.05.06)
author=NARA WOMEN'S UNIVERSITY
license=CC BY-NC-SA
exact mass=207.04509
ionization energy=70 eV
ion type=[M]+*
computed spectral entropy=3.236236952843153
computed normalized entropy=0.787238202817968
SPLASH=splash10-0a4i-2950000000-b371aa6905c4a211f0c4
submitter=submitter = University of Tokyo Team (Faculty of Engineering, University of Tokyo)
MoNA Rating=3.75

>  <NUM PEAKS>  (1678) 
61

>  <MASS SPECTRAL PEAKS>  (1678) 
15 5.52
18 1.09
38 1
39 1.82
50 3.52
51 5.45
52 2.43
61 1.24
62 6.57
63 4.27
64 1.01
73 1.26
74 4.49
75 7.13
76 3.06
77 6.88
78 2.46
80 1.1
86 1.87
87 4.43
88 6
89 1.79
98 1.34
99 3.09
100 2.49
101 12.35
102 14.49
103 2.87
113 1.88
114 3.24
115 1.89
116 4.9
123 1.01
127 2.81
128 16.4
129 10.64
130 1.3
135 1.27
137 5.91
138 1.24
139 2.07
140 4.46
141 1.89
142 1.94
163 1.35
164 62.58
165 6.93
166 20.27
167 2.08
172 3.95
177 4.33
178 2.26
179 1.72
192 35.14
193 4.8
194 11.48
195 1.48
207 99.99
208 13.51
209 32.8
210 4.29

>  <PREDICTED SPECTRUM>  (1678) 
14 0
15 60
26 6
35 30
36 66
37 117
38 194
39 236
40 116
41 126
42 165
43 140
44 93
47 47
49 118
50 396
51 411
52 309
53 234
54 114
55 39
57 62
61 205
62 382
63 451
64 256
65 203
66 109
67 46
68 79
69 88
70 36
72 63
73 204
74 343
75 492
76 419
77 283
78 168
79 71
80 60
81 16
82 51
84 74
85 143
86 239
87 311
88 353
89 294
90 174
91 93
92 15
95 4
96 50
97 42
98 121
99 201
100 262
101 393
102 369
103 230
104 137
105 17
106 16
109 80
110 70
111 57
112 104
113 193
114 389
115 219
116 133
121 49
123 98
124 84
125 72
126 125
127 140
128 468
129 373
130 163
131 50
135 14
136 76
137 90
138 146
139 125
140 152
141 98
142 199
143 15
144 105
145 37
149 82
151 71
156 95
157 11
162 66
163 76
164 902
165 271
166 591
167 178
168 51
172 45
173 4
176 65
177 138
178 131
179 15
180 17
192 809
193 235
194 484
195 152
206 64
207 999
208 328
209 605
210 198
211 23

$$$$

     RDKit          2D

 14 15  0  0  0  0  0  0  0  0999 V2000
   -2.6000   -0.7500    0.0000 C   0  0  0  0  0  0  0  0  0  0  0  0
   -2.6000    0.7500    0.0000 C   0  0  0  0  0  0  0  0  0  0  0  0
    2.6000   -0.7500    0.0000 C   0  0  0  0  0  0  0  0  0  0  0  0
   -1.3000   -1.5000    0.0000 C   0  0  0  0  0  0  0  0  0  0  0  0
   -1.3000    1.5000    0.0000 C   0  0  0  0  0  0  0  0  0  0  0  0
    1.3000   -1.5000    0.0000 C   0  0  0  0  0  0  0  0  0  0  0  0
    2.6000    0.7500    0.0000 C   0  0  0  0  0  0  0  0  0  0  0  0
    0.0000   -0.7500    0.0000 C   0  0  0  0  0  0  0  0  0  0  0  0
    0.0000    0.7500    0.0000 C   0  0  0  0  0  0  0  0  0  0  0  0
   -1.3000   -3.0000    0.0000 Cl  0  0  0  0  0  0  0  0  0  0  0  0
   -1.3000    3.0000    0.0000 Cl  0  0  0  0  0  0  0  0  0  0  0  0
    1.3000   -3.0000    0.0000 O   0  0  0  0  0  0  0  0  0  0  0  0
    3.8989    1.5002    0.0000 O   0  0  0  0  0  0  0  0  0  0  0  0
    1.3000    1.5000    0.0000 O   0  0  0  0  0  0  0  0  0  0  0  0
  2  1  2  0
  4  1  1  0
  5  2  1  0
  6  3  1  0
  7  3  1  0
  8  4  2  0
  8  6  1  0
  9  5  2  0
  9  8  1  0
 10  4  1  0
 11  5  1  0
 12  6  2  0
 13  7  1  0
 14  7  1  0
 14  9  1  0
M  END
>  <NAME>  (1679) 
5,8-DICHLORO-4-CHLOMANONE-2-OL

>  <SYNONYMS>  (1679) 


>  <SPECTRUM TYPE>  (1679) 
MS1

>  <INSTRUMENT TYPE>  (1679) 
EI-B

>  <INSTRUMENT>  (1679) 
HITACHI M-80

>  <ION MODE>  (1679) 
P

>  <INCHIKEY>  (1679) 
OBIVNYOBLULRFU-UHFFFAOYSA-N

>  <FORMULA>  (1679) 
C9H6Cl2O3

>  <EXACT MASS>  (1679) 
231.96939941199997

>  <MW>  (1679) 
232

>  <ID>  (1679) 
JP009530

>  <CONTRIBUTOR>  (1679) 
University of Tokyo Team, {Faculty of Engineering, University of Tokyo

>  <COMMENT>  (1679) 
SMILES=OC(C2)Oc(c(Cl)1)c(C(=O)2)c(Cl)cc1
InChI=InChI=1S/C9H6Cl2O3/c10-4-1-2-5(11)9-8(4)6(12)3-7(13)14-9/h1-2,7,13H,3H2
computed SMILES=O=C1C=2C(Cl)=CC=C(Cl)C2OC(O)C1
accession=JP009530
date=2016.01.19 (Created 2008.10.21, modified 2011.05.06)
author=NARA WOMEN'S UNIVERSITY
license=CC BY-NC-SA
exact mass=231.9694
ionization energy=70 eV
ion type=[M]+*
computed spectral entropy=3.847500819779092
computed normalized entropy=0.830145803465577
SPLASH=splash10-000e-4910000000-86669a1aad1f85daf461
submitter=submitter = University of Tokyo Team (Faculty of Engineering, University of Tokyo)
MoNA Rating=3.75

>  <NUM PEAKS>  (1679) 
103

>  <MASS SPECTRAL PEAKS>  (1679) 
15 6.83
26 2.02
27 1.88
29 10.09
37 4.24
38 2.96
39 2.06
41 0.97
42 5.99
43 24.98
44 2.02
47 0.93
49 1.98
50 4.17
51 5.25
52 0.91
53 7.04
60 1.97
61 10.11
62 15.17
63 13.32
64 1
65 1.4
66 1.22
69 4.29
70 2.13
71 18.11
72 2.6
73 11.6
74 6.5
75 7.6
76 1.33
77 4.42
83 1.09
84 1.95
85 2.52
86 2
87 4.07
88 0.92
89 1.17
90 4.26
91 1.39
96 2.53
97 17.92
98 3.29
99 7.6
100 1.18
101 0.98
105 1.08
107 1.56
108 1.05
109 2.86
110 0.9
111 4.51
112 1.38
113 1.6
123 7.41
124 1.07
125 11.77
126 2.84
127 3.58
128 1.36
132 3.31
133 10.01
134 2.75
135 6.22
137 1.09
153 6.17
154 1
155 2.94
157 1
160 14.52
161 2.7
162 12.66
163 2.65
164 4
165 1.01
175 1.49
186 5.1
188 43.86
189 64.11
190 30.5
191 41.17
192 7.23
193 6.47
197 99.99
198 10.37
199 32.32
200 3.31
204 7.43
205 0.92
206 4.76
214 9.27
215 4.48
216 6.42
217 2.84
218 1.21
231 1
232 10.74
233 2.26
234 7.21
235 1.17
236 1.21

>  <PREDICTED SPECTRUM>  (1679) 
25 11
26 38
27 33
28 40
29 79
31 2
33 8
34 4
35 72
36 97
37 141
38 147
39 214
40 77
41 155
42 82
43 200
44 189
45 95
47 71
48 47
49 139
50 262
51 259
52 128
53 228
54 136
55 211
56 118
57 112
58 46
60 143
61 244
62 264
63 296
64 112
65 87
66 42
69 198
70 85
71 126
72 142
73 354
74 258
75 297
76 99
77 190
78 54
79 69
80 34
81 37
82 78
83 89
84 146
85 79
86 161
87 238
88 88
89 203
90 79
91 194
92 46
94 10
95 6
96 100
97 300
98 232
99 233
100 93
101 69
105 94
106 57
107 133
108 105
109 114
110 111
111 132
112 91
113 195
114 120
115 86
116 34
117 34
118 48
119 52
121 52
122 136
123 308
124 123
125 310
126 342
127 217
128 125
129 26
131 86
132 114
133 287
134 226
135 203
136 89
152 7
153 224
154 196
155 230
156 52
158 10
159 33
160 266
161 273
162 402
163 277
164 168
165 42
169 58
171 44
175 59
176 16
177 28
178 18
179 81
180 1
182 60
186 136
187 113
188 685
189 704
190 560
191 526
192 307
193 213
195 36
197 999
198 374
199 550
200 136
203 73
204 53
205 91
206 41
207 48
214 257
215 184
216 132
217 119
218 18
219 6
231 77
232 376
233 163
234 283
235 98
236 69

$$$$

     RDKit          2D

 14 15  0  0  0  0  0  0  0  0999 V2000
    1.9500   -0.9000    0.0000 C   0  0  0  0  0  0  0  0  0  0  0  0
    0.6300   -1.6600    0.0000 C   0  0  0  0  0  0  0  0  0  0  0  0
    0.6300    1.3800    0.0000 C   0  0  0  0  0  0  0  0  0  0  0  0
   -2.9400   -0.2300    0.0000 C   0  0  0  0  0  0  0  0  0  0  0  0
   -4.0982    0.7231    0.0000 H   0  0  0  0  0  0  0  0  0  0  0  0
   -4.0103   -1.2809    0.0000 H   0  0  0  0  0  0  0  0  0  0  0  0
    1.9500    0.6200    0.0000 C   0  0  0  0  0  0  0  0  0  0  0  0
   -0.6600   -0.9000    0.0000 C   0  0  0  0  0  0  0  0  0  0  0  0
   -0.6600    0.6200    0.0000 C   0  0  0  0  0  0  0  0  0  0  0  0
    3.2486    1.3708    0.0000 C   0  0  0  0  0  0  0  0  0  0  0  0
    3.2477    2.8708    0.0000 O   0  0  0  0  0  0  0  0  0  0  0  0
    4.5481    0.6216    0.0000 O   0  0  0  0  0  0  0  0  0  0  0  0
   -2.0600   -1.3400    0.0000 O   0  0  0  0  0  0  0  0  0  0  0  0
   -2.0900    1.0600    0.0000 O   0  0  0  0  0  0  0  0  0  0  0  0
  4  5  1  0
  4  6  1  0
  2  1  2  0
  7  1  1  0
  7  3  2  0
  8  2  1  0
  9  3  1  0
  9  8  2  0
 10  7  1  0
 11 10  2  0
 12 10  1  0
 13  4  1  0
 13  8  1  0
 14  4  1  0
 14  9  1  0
M  ISO  2   5   2   6   2
M  END
>  <NAME>  (1680) 
PIPERONYLIC ACID-2,2-D2

>  <SYNONYMS>  (1680) 


>  <SPECTRUM TYPE>  (1680) 
MS1

>  <INSTRUMENT TYPE>  (1680) 
EI-B

>  <INSTRUMENT>  (1680) 
HITACHI M-80

>  <ION MODE>  (1680) 
P

>  <INCHIKEY>  (1680) 
VDVJGIYXDVPQLP-APZFVMQVSA-N

>  <FORMULA>  (1680) 
C8H6O4

>  <EXACT MASS>  (1680) 
168.039162164

>  <MW>  (1680) 
168

>  <ID>  (1680) 
JP009529

>  <CONTRIBUTOR>  (1680) 
University of Tokyo Team, {Faculty of Engineering, University of Tokyo

>  <COMMENT>  (1680) 
SMILES=OC(=O)c(c2)cc(O1)c(c2)OC([2H])([2H])1
InChI=InChI=1S/C8H6O4/c9-8(10)5-1-2-6-7(3-5)12-4-11-6/h1-3H,4H2,(H,9,10)/i4D2
computed SMILES=[H]C1([H])OC2=CC=C(C=C2O1)C(=O)O
accession=JP009529
date=2016.01.19 (Created 2008.10.21, modified 2011.05.06)
author=NARA WOMEN'S UNIVERSITY
license=CC BY-NC-SA
exact mass=166.02661
ionization energy=70 eV
ion type=[M]+*
computed spectral entropy=3.120452585172497
computed normalized entropy=0.7652787075778592
SPLASH=splash10-014i-4900000000-cef5628d095e3f32ecfd
submitter=submitter = University of Tokyo Team (Faculty of Engineering, University of Tokyo)
MoNA Rating=3.75

>  <NUM PEAKS>  (1680) 
59

>  <MASS SPECTRAL PEAKS>  (1680) 
18 1
26 1
28 5.2
29 1.9
30 4.2
31 1.7
32 1
37 4
38 5.8
39 6
40 3
41 2
45 3.6
49 1
50 4.8
51 6.5
52 4.2
53 7.3
54 1.8
55 1
56 1
57 1
60 1
60.5 2.2
61 5.3
62 13.6
63 26
64 4.4
65 2.2
66 5.1
67 10.7
68 2
69 2.2
69.5 1
70 5.2
74 1.5
74.5 11.5
75 1.5
79 3.1
80 1
82 2.5
83 1
84 2.3
91 11.2
92 1.6
119 16.5
120 4.2
121 1.6
123 14.3
124 4.5
151 41.3
152 4.3
165 12.8
166 97
167 35
168 99.99
169 13.8
170 1.5
172 4.5

>  <PREDICTED SPECTRUM>  (1680) 
17 8
18 3
37 32
38 64
39 101
40 32
41 76
42 38
43 104
44 100
45 287
46 13
49 29
50 138
51 153
52 137
53 203
54 30
55 24
56 12
57 64
61 110
62 175
63 265
64 98
65 188
66 75
67 70
68 39
69 95
70 11
74 39
75 14
76 50
77 136
78 97
79 125
80 36
81 74
82 10
83 45
89 18
90 71
91 31
92 53
95 137
96 86
97 101
105 5
107 9
114 3
119 162
121 50
122 17
123 506
124 159
125 89
139 48
140 65
141 6
151 635
152 156
153 491
154 71
168 999
169 286
170 110

$$$$

     RDKit          2D

  5  4  0  0  0  0  0  0  0  0999 V2000
    0.0000    0.0000    0.0000 C   0  0  0  0  0  0  0  0  0  0  0  0
    1.2990    2.2500    0.0000 C   0  0  0  0  0  0  0  0  0  0  0  0
   -1.2990    2.2500    0.0000 C   0  0  0  0  0  0  0  0  0  0  0  0
    0.0000    1.5000    0.0000 C   0  0  0  0  0  0  0  0  0  0  0  0
   -1.2990    3.7500    0.0000 Cl  0  0  0  0  0  0  0  0  0  0  0  0
  4  1  2  0
  4  2  1  0
  4  3  1  0
  5  3  1  0
M  END
>  <NAME>  (1681) 
3-CHLORO-2-METHYLPROPENE

>  <SYNONYMS>  (1681) 
METHALLYL CHLORIDE

>  <SPECTRUM TYPE>  (1681) 
MS1

>  <INSTRUMENT TYPE>  (1681) 
EI-B

>  <INSTRUMENT>  (1681) 
HITACHI M-80

>  <ION MODE>  (1681) 
P

>  <INCHIKEY>  (1681) 
OHXAOPZTJOUYKM-UHFFFAOYSA-N

>  <FORMULA>  (1681) 
C4H7Cl

>  <EXACT MASS>  (1681) 
90.023627904

>  <MW>  (1681) 
90

>  <ID>  (1681) 
JP009526

>  <CONTRIBUTOR>  (1681) 
University of Tokyo Team, {Faculty of Engineering, University of Tokyo

>  <COMMENT>  (1681) 
SMILES=CC(=C)CCl
cas=563-47-3
InChI=InChI=1S/C4H7Cl/c1-4(2)3-5/h1,3H2,2H3
computed SMILES=ClCC(=C)C
accession=JP009526
date=2016.01.19 (Created 2008.10.21, modified 2011.05.06)
author=NARA WOMEN'S UNIVERSITY
license=CC BY-NC-SA
exact mass=90.02363
ionization energy=70 eV
ion type=[M]+*
computed spectral entropy=3.266277790799708
computed normalized entropy=0.8392673712055507
SPLASH=splash10-000l-9000000000-609b3b297f7f7eaf3ae2
submitter=submitter = University of Tokyo Team (Faculty of Engineering, University of Tokyo)
MoNA Rating=3.75

>  <NUM PEAKS>  (1681) 
49

>  <MASS SPECTRAL PEAKS>  (1681) 
12 1.52
13 10.28
14 18.37
15 1.51
24 1.18
25 9.18
26 37.82
27 14.72
28 22.8
32 1.66
35 7.87
36 6.81
37 15.95
38 23.04
39 99.99
40 15.16
41 28.68
42 4.87
43 41.85
47 2.87
48 4.27
49 39.99
50 17.75
51 22.8
52 6.81
53 31.01
54 21.81
55 60.71
56 21.93
57 3.45
58 4.71
61 1.81
62 3.53
63 4.29
64 1.07
65 2.3
67 3.4
68 1.01
73 2.28
75 7.43
77 4.37
79 2.97
81 2.32
89 5.17
90 7.34
91 2.8
92 2.56
93 1.16
95 2.45

>  <PREDICTED SPECTRUM>  (1681) 
14 39
15 53
25 35
26 116
27 229
28 187
35 28
36 95
37 111
38 186
39 637
40 271
41 546
42 109
49 206
50 220
51 393
52 71
53 393
54 286
55 999
56 252
57 0
61 7
62 73
64 33
75 285
76 0
77 146
90 476
91 69
92 273

$$$$

     RDKit          2D

  7  7  0  0  0  0  0  0  0  0999 V2000
    2.2289    1.2902    0.0000 C   0  0  0  0  0  0  0  0  0  0  0  0
   -0.3700   -1.7100    0.0000 C   0  0  0  0  0  0  0  0  0  0  0  0
   -1.6700   -0.9600    0.0000 C   0  0  0  0  0  0  0  0  0  0  0  0
    0.9300   -0.9600    0.0000 C   0  0  0  0  0  0  0  0  0  0  0  0
   -1.6700    0.5400    0.0000 C   0  0  0  0  0  0  0  0  0  0  0  0
    0.9300    0.5400    0.0000 C   0  0  0  0  0  0  0  0  0  0  0  0
   -0.3700    1.2900    0.0000 N   0  0  0  0  0  0  0  0  0  0  0  0
  3  2  2  0
  4  2  1  0
  5  3  1  0
  6  1  1  0
  6  4  2  0
  7  5  2  0
  7  6  1  0
M  END
>  <NAME>  (1682) 
2-PICOLINE

>  <SYNONYMS>  (1682) 
2-METHYLPYRIDINE

>  <SPECTRUM TYPE>  (1682) 
MS1

>  <INSTRUMENT TYPE>  (1682) 
EI-B

>  <INSTRUMENT>  (1682) 
HITACHI M-80

>  <ION MODE>  (1682) 
P

>  <INCHIKEY>  (1682) 
BSKHPKMHTQYZBB-UHFFFAOYSA-N

>  <FORMULA>  (1682) 
C6H7N

>  <EXACT MASS>  (1682) 
93.057849224

>  <MW>  (1682) 
93

>  <ID>  (1682) 
JP009525

>  <CONTRIBUTOR>  (1682) 
University of Tokyo Team, {Faculty of Engineering, University of Tokyo

>  <COMMENT>  (1682) 
SMILES=Cc(c1)nccc1
cas=109-06-8
InChI=InChI=1S/C6H7N/c1-6-4-2-3-5-7-6/h2-5H,1H3
computed SMILES=N=1C=CC=CC1C
accession=JP009525
date=2016.01.19 (Created 2008.10.21, modified 2011.05.06)
author=NARA WOMEN'S UNIVERSITY
license=CC BY-NC-SA
exact mass=93.05785
ionization energy=70 eV
ion type=[M]+*
computed spectral entropy=2.5759450378915054
computed normalized entropy=0.7649892281373605
SPLASH=splash10-0006-9000000000-30ce30016e1d6ff093c4
submitter=submitter = University of Tokyo Team (Faculty of Engineering, University of Tokyo)
MoNA Rating=3.75

>  <NUM PEAKS>  (1682) 
29

>  <MASS SPECTRAL PEAKS>  (1682) 
25 2.42
26 2.83
27 3.45
37 2.46
38 5.41
39 12.51
40 5.58
41 2.26
42 1.71
46 1.1
49 1.03
50 7.3
51 11.52
52 7.66
53 3.89
54 1.65
61 2.12
62 4.12
63 7.86
64 4.43
65 14.5
66 39.32
67 9.67
78 14.42
79 1.06
91 1.81
92 20.36
93 99.99
94 10.64

>  <PREDICTED SPECTRUM>  (1682) 
25 21
26 74
27 42
28 16
37 136
38 228
39 402
40 183
41 242
42 166
49 122
50 359
51 522
52 296
53 283
54 73
61 74
62 60
63 171
64 240
65 457
66 451
67 299
75 85
76 61
77 38
78 464
79 110
90 35
91 118
92 809
93 999
94 299

$$$$

     RDKit          2D

  7  7  0  0  0  0  0  0  0  0999 V2000
    2.2289    1.2902    0.0000 C   0  0  0  0  0  0  0  0  0  0  0  0
   -1.6700    0.5400    0.0000 C   0  0  0  0  0  0  0  0  0  0  0  0
   -0.3700    1.2900    0.0000 C   0  0  0  0  0  0  0  0  0  0  0  0
   -1.6700   -0.9600    0.0000 C   0  0  0  0  0  0  0  0  0  0  0  0
    0.9300   -0.9600    0.0000 C   0  0  0  0  0  0  0  0  0  0  0  0
    0.9300    0.5400    0.0000 C   0  0  0  0  0  0  0  0  0  0  0  0
   -0.3700   -1.7100    0.0000 N   0  0  0  0  0  0  0  0  0  0  0  0
  3  2  2  0
  4  2  1  0
  6  1  1  0
  6  3  1  0
  6  5  2  0
  7  4  2  0
  7  5  1  0
M  END
>  <NAME>  (1683) 
3-PICOLINE

>  <SYNONYMS>  (1683) 
3-METHYLPYRIDINE

>  <SPECTRUM TYPE>  (1683) 
MS1

>  <INSTRUMENT TYPE>  (1683) 
EI-B

>  <INSTRUMENT>  (1683) 
HITACHI M-80

>  <ION MODE>  (1683) 
P

>  <INCHIKEY>  (1683) 
ITQTTZVARXURQS-UHFFFAOYSA-N

>  <FORMULA>  (1683) 
C6H7N

>  <EXACT MASS>  (1683) 
93.057849224

>  <MW>  (1683) 
93

>  <ID>  (1683) 
JP009523

>  <CONTRIBUTOR>  (1683) 
University of Tokyo Team, {Faculty of Engineering, University of Tokyo

>  <COMMENT>  (1683) 
SMILES=Cc(c1)cncc1
cas=108-99-6
InChI=InChI=1S/C6H7N/c1-6-3-2-4-7-5-6/h2-5H,1H3
computed SMILES=N=1C=CC=C(C1)C
accession=JP009523
date=2016.01.19 (Created 2008.10.21, modified 2011.05.06)
author=NARA WOMEN'S UNIVERSITY
license=CC BY-NC-SA
exact mass=93.05785
ionization energy=70 eV
ion type=[M]+*
computed spectral entropy=2.3562135187182953
computed normalized entropy=0.7319988862306523
SPLASH=splash10-0006-9000000000-f5d09461ea2a38433f8f
submitter=submitter = University of Tokyo Team (Faculty of Engineering, University of Tokyo)
MoNA Rating=3.75

>  <NUM PEAKS>  (1683) 
25

>  <MASS SPECTRAL PEAKS>  (1683) 
25 1.3
26 1.73
27 2.44
37 2.05
38 5.21
39 20.32
40 6.47
41 1.84
50 2.54
51 3.98
52 1.82
53 1.6
54 1.79
61 1.86
62 4.35
63 9.1
64 3.95
65 23.81
66 35.1
67 9.52
78 2.59
91 1.35
92 28.45
93 99.99
94 14.6

>  <PREDICTED SPECTRUM>  (1683) 
14 3
25 22
26 89
27 138
28 90
33 4
37 162
38 249
39 475
40 195
41 257
42 44
49 74
50 302
51 456
52 234
53 211
54 25
61 56
62 77
63 201
64 234
65 430
66 358
67 192
74 9
75 18
78 360
90 17
91 90
92 672
93 999
94 272

$$$$

     RDKit          2D

  5  4  0  0  0  0  0  0  0  0999 V2000
    0.0000    0.0000    0.0000 C   0  0  0  0  0  0  0  0  0  0  0  0
   -1.2990    3.7500    0.0000 C   0  0  0  0  0  0  0  0  0  0  0  0
    0.0000    1.5000    0.0000 C   0  0  0  0  0  0  0  0  0  0  0  0
   -1.2990    2.2500    0.0000 N   0  0  0  0  0  0  0  0  0  0  0  0
    1.2990    2.2500    0.0000 O   0  0  0  0  0  0  0  0  0  0  0  0
  3  1  1  0
  4  2  1  0
  4  3  2  3
  5  3  1  0
M  END
>  <NAME>  (1684) 
N-METHYLACETAMIDE

>  <SYNONYMS>  (1684) 


>  <SPECTRUM TYPE>  (1684) 
MS1

>  <INSTRUMENT TYPE>  (1684) 
EI-B

>  <INSTRUMENT>  (1684) 
HITACHI M-80

>  <ION MODE>  (1684) 
P

>  <INCHIKEY>  (1684) 
OHLUUHNLEMFGTQ-UHFFFAOYSA-N

>  <FORMULA>  (1684) 
C3H7NO

>  <EXACT MASS>  (1684) 
73.052763844

>  <MW>  (1684) 
73

>  <ID>  (1684) 
JP009522

>  <CONTRIBUTOR>  (1684) 
University of Tokyo Team, {Faculty of Engineering, University of Tokyo

>  <COMMENT>  (1684) 
SMILES=CNC(C)=O
cas=79-16-3
InChI=InChI=1S/C3H7NO/c1-3(5)4-2/h1-2H3,(H,4,5)
computed SMILES=OC(=NC)C
accession=JP009522
date=2016.01.19 (Created 2008.10.21, modified 2011.05.06)
author=NARA WOMEN'S UNIVERSITY
license=CC BY-NC-SA
exact mass=73.05276
ionization energy=70 eV
ion type=[M]+*
computed spectral entropy=2.4817653776550257
computed normalized entropy=0.7617224808084131
SPLASH=splash10-002f-9000000000-99a9c9899c3192926982
submitter=submitter = University of Tokyo Team (Faculty of Engineering, University of Tokyo)
MoNA Rating=3.75

>  <NUM PEAKS>  (1684) 
26

>  <MASS SPECTRAL PEAKS>  (1684) 
12 1.75
13 9.76
15 28.92
16 1.3
25 2.85
26 7.05
27 47.84
28 10.75
30 38.27
31 8.43
32 2.29
38 1.32
39 2.16
40 3.15
41 5.98
42 16.48
43 99.99
44 5.05
45 4.69
54 1.21
55 1.39
56 1.39
58 42.26
59 1
73 38.54
74 5.25

>  <PREDICTED SPECTRUM>  (1684) 
14 78
15 179
16 24
18 8
25 20
26 130
27 304
28 324
29 232
30 223
31 119
32 25
33 8
36 38
37 58
38 163
39 437
40 290
41 582
42 891
43 745
44 174
45 320
46 143
51 33
52 133
53 130
54 306
55 241
56 529
57 235
58 999
59 284
60 12
70 163
71 161
72 447
73 776
74 206

$$$$

     RDKit          2D

 11 11  0  0  0  0  0  0  0  0999 V2000
   -4.8712    2.0071    0.0000 C   0  0  0  0  0  0  0  0  0  0  0  0
   -3.5721    2.7571    0.0000 C   0  0  0  0  0  0  0  0  0  0  0  0
    2.9231    0.5071    0.0000 C   0  0  0  0  0  0  0  0  0  0  0  0
    2.9236    2.0079    0.0000 C   0  0  0  0  0  0  0  0  0  0  0  0
    1.6236   -0.2437    0.0000 C   0  0  0  0  0  0  0  0  0  0  0  0
    1.6245    2.7579    0.0000 C   0  0  0  0  0  0  0  0  0  0  0  0
    0.3245    0.5063    0.0000 C   0  0  0  0  0  0  0  0  0  0  0  0
    0.3250    2.0071    0.0000 C   0  0  0  0  0  0  0  0  0  0  0  0
   -0.9740    2.7571    0.0000 C   0  0  0  0  0  0  0  0  0  0  0  0
   -0.9740    4.2571    0.0000 O   0  0  0  0  0  0  0  0  0  0  0  0
   -2.2731    2.0071    0.0000 O   0  0  0  0  0  0  0  0  0  0  0  0
  2  1  1  0
  4  3  2  0
  5  3  1  0
  6  4  1  0
  7  5  2  0
  8  6  2  0
  8  7  1  0
  9  8  1  0
 10  9  2  0
 11  2  1  0
 11  9  1  0
M  END
>  <NAME>  (1685) 
ETHYL BENZOATE

>  <SYNONYMS>  (1685) 


>  <SPECTRUM TYPE>  (1685) 
MS1

>  <INSTRUMENT TYPE>  (1685) 
EI-B

>  <INSTRUMENT>  (1685) 
HITACHI M-80

>  <ION MODE>  (1685) 
P

>  <INCHIKEY>  (1685) 
MTZQAGJQAFMTAQ-UHFFFAOYSA-N

>  <FORMULA>  (1685) 
C9H10O2

>  <EXACT MASS>  (1685) 
150.06807956

>  <MW>  (1685) 
150

>  <ID>  (1685) 
JP009521

>  <CONTRIBUTOR>  (1685) 
University of Tokyo Team, {Faculty of Engineering, University of Tokyo

>  <COMMENT>  (1685) 
SMILES=CCOC(=O)c(c1)cccc1
cas=93-89-0
InChI=InChI=1S/C9H10O2/c1-2-11-9(10)8-6-4-3-5-7-8/h3-7H,2H2,1H3
computed SMILES=O=C(OCC)C=1C=CC=CC1
accession=JP009521
date=2016.01.19 (Created 2008.10.21, modified 2011.05.06)
author=NARA WOMEN'S UNIVERSITY
license=CC BY-NC-SA
exact mass=150.06808
ionization energy=70 eV
ion type=[M]+*
computed spectral entropy=2.3896330904470493
computed normalized entropy=0.7171327819616344
SPLASH=splash10-0pdi-8900000000-44a1b5b320f6a221cb8a
submitter=submitter = University of Tokyo Team (Faculty of Engineering, University of Tokyo)
MoNA Rating=3.75

>  <NUM PEAKS>  (1685) 
28

>  <MASS SPECTRAL PEAKS>  (1685) 
14 1.8
25 2.15
26 9.21
27 3.83
28 9.59
30 1.84
38 1.17
39 2.13
43 2.05
45 1.47
50 11.28
51 25.91
52 1.88
65 1.08
74 5.14
75 3.01
76 4.19
77 54.31
78 5.82
91 1.23
105 99.99
106 9.3
122 26.1
123 2.27
135 1.01
149 1.38
150 19.58
151 2.25

>  <PREDICTED SPECTRUM>  (1685) 
25 14
26 62
27 165
28 79
29 256
36 33
37 64
38 83
39 116
43 89
44 63
45 66
49 103
50 353
51 500
52 162
53 90
62 53
63 90
64 44
65 64
66 19
74 170
75 168
76 263
77 805
78 305
79 133
80 4
91 5
94 102
104 156
105 999
106 357
107 78
121 102
122 337
123 312
124 7
149 20
150 330
151 118

$$$$

     RDKit          2D

  5  4  0  0  0  0  0  0  0  0999 V2000
    0.0000    1.5000    0.0000 C   0  0  0  0  0  0  0  0  0  0  0  0
   -1.2990    0.7500    0.0000 Br  0  0  0  0  0  0  0  0  0  0  0  0
    0.7500    0.2010    0.0000 Cl  0  0  0  0  0  0  0  0  0  0  0  0
    1.2990    2.2500    0.0000 Cl  0  0  0  0  0  0  0  0  0  0  0  0
   -0.7500    2.7990    0.0000 Cl  0  0  0  0  0  0  0  0  0  0  0  0
  2  1  1  0
  3  1  1  0
  4  1  1  0
  5  1  1  0
M  END
>  <NAME>  (1686) 
BROMOTRICHLOROMETHANE

>  <SYNONYMS>  (1686) 


>  <SPECTRUM TYPE>  (1686) 
MS1

>  <INSTRUMENT TYPE>  (1686) 
EI-B

>  <INSTRUMENT>  (1686) 
HITACHI M-80

>  <ION MODE>  (1686) 
P

>  <INCHIKEY>  (1686) 
XNNQFQFUQLJSQT-UHFFFAOYSA-N

>  <FORMULA>  (1686) 
CBrCl3

>  <EXACT MASS>  (1686) 
195.82489514

>  <MW>  (1686) 
196

>  <ID>  (1686) 
JP009520

>  <CONTRIBUTOR>  (1686) 
University of Tokyo Team, {Faculty of Engineering, University of Tokyo

>  <COMMENT>  (1686) 
SMILES=ClC(Cl)(Cl)Br
cas=75-62-7
InChI=InChI=1S/CBrCl3/c2-1(3,4)5
computed SMILES=ClC(Cl)(Cl)Br
accession=JP009520
date=2016.01.19 (Created 2008.10.21, modified 2011.05.06)
author=NARA WOMEN'S UNIVERSITY
license=CC BY-NC-SA
exact mass=195.8249
ionization energy=70 eV
ion type=[M]+*
computed spectral entropy=2.6601964388073753
computed normalized entropy=0.7900097208916927
SPLASH=splash10-014i-5900000000-d5639ffc9c2042fe8623
submitter=submitter = University of Tokyo Team (Faculty of Engineering, University of Tokyo)
MoNA Rating=3.75

>  <NUM PEAKS>  (1686) 
29

>  <MASS SPECTRAL PEAKS>  (1686) 
11 2.29
35 30.83
36 1.85
37 7.13
47 42.9
49 12.75
79 12.75
80 1.13
81 28.76
82 36.38
84 22.74
86 3.21
91 5.55
93 5.33
114 1.04
116 1.39
117 99.03
118 1.34
119 99.99
120 1.07
121 31.27
123 3.47
126 3.26
128 4.66
130 1.09
161 24.68
163 39.39
165 17.53
167 2.49

>  <PREDICTED SPECTRUM>  (1686) 
25 22
31 51
32 33
35 304
36 125
37 200
38 181
40 49
44 53
45 25
46 14
47 382
48 74
49 320
50 9
51 284
52 22
53 23
55 66
56 153
65 3
67 27
69 90
79 348
80 56
81 382
82 340
83 76
84 254
85 42
86 64
87 11
91 162
93 181
95 123
102 18
117 644
118 35
119 668
121 306
126 85
127 152
128 126
137 97
161 781
162 36
163 999
164 119
165 681
167 227
198 26

$$$$

     RDKit          2D

  9  8  0  0  0  0  0  0  0  0999 V2000
    2.0490    4.0981    0.0000 C   0  0  0  0  0  0  0  0  0  0  0  0
    2.0490    1.0981    0.0000 C   0  0  0  0  0  0  0  0  0  0  0  0
    3.5490    2.5981    0.0000 C   0  0  0  0  0  0  0  0  0  0  0  0
   -1.5000    2.0490    0.0000 C   0  0  0  0  0  0  0  0  0  0  0  0
   -0.9510    0.0000    0.0000 C   0  0  0  0  0  0  0  0  0  0  0  0
    1.0981    0.5490    0.0000 C   0  0  0  0  0  0  0  0  0  0  0  0
    0.5490    2.5981    0.0000 N   0  0  0  0  0  0  0  0  0  0  0  0
    2.0490    2.5981    0.0000 Si  0  0  0  0  0  4  0  0  0  0  0  0
   -0.2010    1.2990    0.0000 Si  0  0  0  0  0  4  0  0  0  0  0  0
  8  1  1  0
  8  2  1  0
  8  3  1  0
  8  7  1  0
  9  4  1  0
  9  5  1  0
  9  6  1  0
  9  7  1  0
M  END
>  <NAME>  (1687) 
1,1,1,3,3,3-HEXAMETHYLDISILAZANE

>  <SYNONYMS>  (1687) 


>  <SPECTRUM TYPE>  (1687) 
MS1

>  <INSTRUMENT TYPE>  (1687) 
EI-B

>  <INSTRUMENT>  (1687) 
HITACHI M-80

>  <ION MODE>  (1687) 
P

>  <INCHIKEY>  (1687) 
FFUAGWLWBBFQJT-UHFFFAOYSA-N

>  <FORMULA>  (1687) 
C6H19NSi2

>  <EXACT MASS>  (1687) 
161.105602668

>  <MW>  (1687) 
161

>  <ID>  (1687) 
JP009518

>  <CONTRIBUTOR>  (1687) 
University of Tokyo Team, {Faculty of Engineering, University of Tokyo

>  <COMMENT>  (1687) 
SMILES=C[Si](C)(C)N[Si](C)(C)C
cas=999-97-3
InChI=InChI=1S/C6H19NSi2/c1-8(2,3)7-9(4,5)6/h7H,1-6H3
computed SMILES=N([Si](C)(C)C)[Si](C)(C)C
accession=JP009518
date=2016.01.19 (Created 2008.10.21, modified 2011.05.06)
author=NARA WOMEN'S UNIVERSITY
license=CC BY-NC-SA
exact mass=161.1056
ionization energy=70 eV
ion type=[M]+*
computed spectral entropy=2.0705537478925313
computed normalized entropy=0.6515162607128775
SPLASH=splash10-0002-1900000000-230d51b9fe83539b16b9
submitter=submitter = University of Tokyo Team (Faculty of Engineering, University of Tokyo)
MoNA Rating=3.75

>  <NUM PEAKS>  (1687) 
24

>  <MASS SPECTRAL PEAKS>  (1687) 
43 1.23
45 4.57
59 4.71
65 3.68
66 3.67
73 13.38
74 2.4
75 2.84
86 1.12
100 4.16
102 1.07
113 1.59
114 1.07
116 1.93
117 1.26
130 24.55
131 7.57
132 2.89
133 1.67
146 99.99
147 96.8
148 20.45
149 7.14
161 4.27

>  <PREDICTED SPECTRUM>  (1687) 
15 39
27 44
28 110
29 121
30 35
31 117
38 6
39 52
40 27
41 62
42 75
43 246
44 146
45 322
46 105
47 69
53 22
54 21
55 78
56 181
57 112
58 267
59 340
60 87
61 57
68 27
69 20
70 145
71 68
72 193
73 724
74 205
75 149
76 32
77 18
78 20
84 90
85 72
86 141
87 46
88 66
89 99
90 54
91 8
99 76
100 112
101 49
102 144
103 64
104 67
105 77
114 82
115 76
116 135
117 126
118 47
119 59
130 496
131 257
132 138
144 110
145 133
146 999
147 624
148 338
149 123
160 240
161 449
162 205
163 67

$$$$

     RDKit          2D

 17 19  0  0  0  0  0  0  0  0999 V2000
    3.9000   -0.7500    0.0000 C   0  0  0  0  0  0  0  0  0  0  0  0
   -3.9000   -0.7500    0.0000 C   0  0  0  0  0  0  0  0  0  0  0  0
    3.9000    0.7500    0.0000 C   0  0  0  0  0  0  0  0  0  0  0  0
   -3.9000    0.7500    0.0000 C   0  0  0  0  0  0  0  0  0  0  0  0
    2.6000   -1.5000    0.0000 C   0  0  0  0  0  0  0  0  0  0  0  0
   -2.6000   -1.5000    0.0000 C   0  0  0  0  0  0  0  0  0  0  0  0
    2.6000    1.5000    0.0000 C   0  0  0  0  0  0  0  0  0  0  0  0
   -2.6000    1.5000    0.0000 C   0  0  0  0  0  0  0  0  0  0  0  0
   -0.0000   -1.5000    0.0000 C   0  0  0  0  0  0  0  0  0  0  0  0
    1.3000   -0.7500    0.0000 C   0  0  0  0  0  0  0  0  0  0  0  0
   -1.3000   -0.7500    0.0000 C   0  0  0  0  0  0  0  0  0  0  0  0
    1.3000    0.7500    0.0000 C   0  0  0  0  0  0  0  0  0  0  0  0
   -1.3000    0.7500    0.0000 C   0  0  0  0  0  0  0  0  0  0  0  0
   -0.0000    1.5000    0.0000 C   0  0  0  0  0  0  0  0  0  0  0  0
    0.0000    3.0000    0.0000 C   0  0  0  0  0  0  0  0  0  0  0  0
   -1.2990    3.7500    0.0000 O   0  0  0  0  0  0  0  0  0  0  0  0
    1.2990    3.7500    0.0000 O   0  0  0  0  0  0  0  0  0  0  0  0
  3  1  2  0
  4  2  1  0
  5  1  1  0
  6  2  2  0
  7  3  1  0
  8  4  2  0
 10  5  2  0
 10  9  1  0
 11  6  1  0
 11  9  2  0
 12  7  2  0
 12 10  1  0
 13  8  1  0
 13 11  1  0
 14 12  1  0
 14 13  2  0
 15 14  1  0
 16 15  1  0
 17 15  2  0
M  END
>  <NAME>  (1688) 
9-ANTHRACENECARBOXYLIC ACID

>  <SYNONYMS>  (1688) 


>  <SPECTRUM TYPE>  (1688) 
MS1

>  <INSTRUMENT TYPE>  (1688) 
EI-B

>  <INSTRUMENT>  (1688) 
HITACHI M-80

>  <ION MODE>  (1688) 
P

>  <INCHIKEY>  (1688) 
XGWFJBFNAQHLEF-UHFFFAOYSA-N

>  <FORMULA>  (1688) 
C15H10O2

>  <EXACT MASS>  (1688) 
222.06807956

>  <MW>  (1688) 
222

>  <ID>  (1688) 
JP009517

>  <CONTRIBUTOR>  (1688) 
University of Tokyo Team, {Faculty of Engineering, University of Tokyo

>  <COMMENT>  (1688) 
SMILES=OC(=O)c(c21)c(c3)c(ccc3)cc(cccc2)1
cas=723-62-6
InChI=InChI=1S/C15H10O2/c16-15(17)14-12-7-3-1-5-10(12)9-11-6-2-4-8-13(11)14/h1-9H,(H,16,17)
computed SMILES=O=C(O)C=1C=2C=CC=CC2C=C3C=CC=CC31
accession=JP009517
date=2016.01.19 (Created 2008.10.21, modified 2011.05.06)
author=NARA WOMEN'S UNIVERSITY
license=CC BY-NC-SA
exact mass=222.06808
ionization energy=70 eV
ion type=[M]+*
computed spectral entropy=3.29668023162276
computed normalized entropy=0.8051789930043336
SPLASH=splash10-00fr-4970000000-225ec51dd6d930f15989
submitter=submitter = University of Tokyo Team (Faculty of Engineering, University of Tokyo)
MoNA Rating=3.75

>  <NUM PEAKS>  (1688) 
60

>  <MASS SPECTRAL PEAKS>  (1688) 
18 3.59
28 2.34
38 1.06
39 3.23
45 4.64
50 3.74
51 3.51
62 4.21
63 6.16
69 1.02
74 6.42
75 7.51
76 3.15
77 1.76
81 1.33
82 4.15
83 1.87
86 3.92
87 6.52
88 12.61
89 1.94
97 3.74
98 4.74
99 3.46
100 1.39
101 1.01
110 1.88
113 5.07
115 1.29
122 1.55
123 1.73
125 1.2
126 3.32
127 1.19
137 1.21
139 3.61
149 2.43
150 11.99
151 13.42
152 3.1
163 4.61
164 3.65
165 24.77
166 6.34
174 6.23
175 7.66
176 40.87
177 39.93
178 9.48
179 1.23
193 1.68
194 10.38
195 1.6
204 1
205 29.19
206 4.8
221 29.8
222 99.99
223 16.42
224 1.72

>  <PREDICTED SPECTRUM>  (1688) 
26 5
27 41
28 43
38 8
39 48
40 20
41 15
43 65
44 44
45 150
46 3
49 29
50 162
51 159
52 72
53 8
55 56
61 27
62 115
63 164
64 66
65 33
67 13
68 27
69 87
70 7
71 3
73 17
74 210
75 245
76 197
77 125
78 13
79 9
81 36
82 115
83 65
85 46
86 100
87 202
88 278
89 96
90 19
92 6
93 23
94 37
95 28
96 68
97 46
98 132
99 129
100 125
101 100
102 73
103 1
105 45
106 31
109 56
110 105
111 138
112 3
113 47
117 7
119 1
122 141
123 84
124 48
125 69
126 119
127 79
137 45
138 89
139 73
140 21
149 117
150 232
151 245
152 154
153 5
163 89
164 84
165 306
166 169
167 60
168 40
173 32
174 185
175 169
176 488
177 446
178 342
179 99
180 9
192 17
193 99
194 149
195 38
201 62
203 98
204 183
205 412
206 194
207 81
221 149
222 999
223 392
224 119
225 29

$$$$

     RDKit          2D

 21 23  0  0  0  0  0  0  0  0999 V2000
   -3.6087    3.0002    0.0000 C   0  0  0  0  0  0  0  0  0  0  0  0
    4.8436   -1.2838    0.0000 C   0  0  0  0  0  0  0  0  0  0  0  0
    4.8566    1.3062    0.0000 C   0  0  0  0  0  0  0  0  0  0  0  0
   -2.3100   -0.7500    0.0000 C   0  0  0  0  0  0  0  0  0  0  0  0
    6.3435   -1.2913    0.0000 C   0  0  0  0  0  0  0  0  0  0  0  0
    6.3566    1.2987    0.0000 C   0  0  0  0  0  0  0  0  0  0  0  0
   -1.0100   -1.5000    0.0000 C   0  0  0  0  0  0  0  0  0  0  0  0
   -1.0100    1.5000    0.0000 C   0  0  0  0  0  0  0  0  0  0  0  0
   -3.6089    1.5002    0.0000 C   0  0  0  0  0  0  0  0  0  0  0  0
    4.1000    0.0000    0.0000 C   0  0  0  0  0  0  0  0  0  0  0  0
   -2.3100    0.7500    0.0000 C   0  0  0  0  0  0  0  0  0  0  0  0
    7.1100   -0.0151    0.0000 C   0  0  0  0  0  0  0  0  0  0  0  0
    0.2900    0.7500    0.0000 C   0  0  0  0  0  0  0  0  0  0  0  0
    0.2900   -0.7500    0.0000 C   0  0  0  0  0  0  0  0  0  0  0  0
    2.6000    0.0000    0.0000 C   0  0  0  0  0  0  0  0  0  0  0  0
   -4.9081    0.7504    0.0000 C   0  0  0  0  0  0  0  0  0  0  0  0
    8.6099   -0.0302    0.0000 Cl  0  0  0  0  0  0  0  0  0  0  0  0
    1.7200    1.2100    0.0000 N   0  0  0  0  0  0  0  0  0  0  0  0
   -4.9083   -0.7496    0.0000 O   0  0  0  0  0  0  0  0  0  0  0  0
   -6.2070    1.5006    0.0000 O   0  0  0  0  0  0  0  0  0  0  0  0
    1.7200   -1.2100    0.0000 O   0  0  0  0  0  0  0  0  0  0  0  0
  5  2  2  0
  6  3  1  0
  7  4  2  0
  9  1  1  0
 10  2  1  0
 10  3  2  0
 11  4  1  0
 11  8  2  0
 11  9  1  0
 12  5  1  0
 12  6  2  0
 13  8  1  0
 14  7  1  0
 14 13  2  0
 15 10  1  0
 16  9  1  0
 17 12  1  0
 18 13  1  0
 18 15  2  0
 19 16  2  0
 20 16  1  0
 21 14  1  0
 21 15  1  0
M  END
>  <NAME>  (1689) 
BENOXAPROFENE

>  <SYNONYMS>  (1689) 
2-(4-CHLOROPHENYL)-ALPHA-METHYL-5-BENZOXAZOLEACETIC ACID

>  <SPECTRUM TYPE>  (1689) 
MS1

>  <INSTRUMENT TYPE>  (1689) 
EI-B

>  <INSTRUMENT>  (1689) 
HITACHI M-80

>  <ION MODE>  (1689) 
P

>  <INCHIKEY>  (1689) 
MITFXPHMIHQXPI-UHFFFAOYSA-N

>  <FORMULA>  (1689) 
C16H12ClNO3

>  <EXACT MASS>  (1689) 
301.050570924

>  <MW>  (1689) 
301

>  <ID>  (1689) 
JP009516

>  <CONTRIBUTOR>  (1689) 
University of Tokyo Team, {Faculty of Engineering, University of Tokyo

>  <COMMENT>  (1689) 
SMILES=OC(=O)C(C)c(c3)cc(n1)c(c3)oc1c(c2)ccc(Cl)c2
InChI=InChI=1S/C16H12ClNO3/c1-9(16(19)20)11-4-7-14-13(8-11)18-15(21-14)10-2-5-12(17)6-3-10/h2-9H,1H3,(H,19,20)
computed SMILES=O=C(O)C(C1=CC=C2OC(=NC2=C1)C=3C=CC(Cl)=CC3)C
accession=JP009516
date=2016.01.19 (Created 2008.10.21, modified 2011.05.06)
author=NARA WOMEN'S UNIVERSITY
license=CC BY-NC-SA
exact mass=301.05057
ionization energy=70 eV
ion type=[M]+*
computed spectral entropy=3.0272601638943457
computed normalized entropy=0.777851990073642
SPLASH=splash10-0a4i-7294000000-6fce0cace9618294c879
submitter=submitter = University of Tokyo Team (Faculty of Engineering, University of Tokyo)
MoNA Rating=3.75

>  <NUM PEAKS>  (1689) 
49

>  <MASS SPECTRAL PEAKS>  (1689) 
27 1.94
28 1.67
39 8.25
41 2.42
45 6.33
50 3.54
51 6.48
52 1.23
53 1.52
62 3.1
64 3.78
65 24.18
66 1.85
74 1.56
75 5.77
76 3.27
77 2.4
87 1.24
88 1
89 10.27
90 4.02
91 44.68
92 4.48
93 1.81
102 3.91
111 3.36
113 1.18
119 22.81
120 2.84
128 3.5
129 1.24
137 7.02
138 1.79
139 4.23
149 1.31
221 1.94
229 2.67
230 1.44
242 2.84
255 4.74
256 99.99
257 19.18
258 34.13
259 5.96
266 1.26
301 48.38
302 9.37
303 16.76
304 3.14

>  <PREDICTED SPECTRUM>  (1689) 
34 2
36 35
37 10
38 49
39 119
40 52
41 70
42 62
43 81
44 146
45 222
47 17
49 68
50 205
51 244
52 142
53 126
54 25
55 58
56 16
57 68
59 57
60 17
61 72
62 125
63 205
64 102
65 118
66 54
67 31
68 23
69 91
70 24
71 90
72 9
73 97
74 152
75 378
76 195
77 189
78 103
79 22
80 15
81 52
82 35
83 46
84 77
85 90
86 116
87 145
88 44
89 106
90 42
91 81
92 56
93 65
94 20
95 64
96 19
97 52
98 68
99 110
100 81
101 135
102 166
103 96
104 67
105 89
106 54
107 47
108 26
109 28
110 26
111 252
112 65
113 175
114 145
115 142
116 35
117 87
118 60
119 80
120 27
121 67
123 91
124 54
125 15
126 77
127 42
129 20
130 15
131 62
133 12
134 34
136 50
137 182
138 63
139 446
140 123
141 194
143 36
144 9
145 80
146 16
147 15
149 16
150 53
151 9
152 22
153 13
156 76
158 6
164 15
165 16
166 19
167 35
171 24
173 10
178 37
179 15
180 3
185 9
186 36
187 68
188 41
189 13
190 38
191 68
192 179
193 211
194 166
195 121
200 52
201 34
203 27
204 0
220 213
221 252
222 299
223 177
224 117
228 74
229 83
230 110
231 57
238 155
239 18
240 93
241 10
255 79
256 999
257 412
258 602
259 322
260 129
261 55
266 17
300 116
301 592
302 270
303 408
304 174
305 93

$$$$

     RDKit          2D

  8  7  0  0  0  0  0  0  0  0999 V2000
   -3.2476    3.3750    0.0000 C   0  0  0  0  0  0  0  0  0  0  0  0
   -0.6495    4.8750    0.0000 C   0  0  0  0  0  0  0  0  0  0  0  0
   -1.9486    2.6250    0.0000 C   0  0  0  0  0  0  0  0  0  0  0  0
   -0.6495    3.3750    0.0000 C   0  0  0  0  0  0  0  0  0  0  0  0
   -1.9486    1.1250    0.0000 N   0  0  0  0  0  0  0  0  0  0  0  0
    0.6495    2.6250    0.0000 N   0  0  0  0  0  0  0  0  0  0  0  0
   -3.2476    0.3750    0.0000 O   0  0  0  0  0  0  0  0  0  0  0  0
    1.9486    3.3750    0.0000 O   0  0  0  0  0  0  0  0  0  0  0  0
  3  1  1  0
  4  2  1  0
  4  3  1  0
  3  5  2  0
  4  6  2  0
  7  5  1  0
  8  6  1  0
M  END
>  <NAME>  (1690) 
DIMETHYLGLYOXIME

>  <SYNONYMS>  (1690) 


>  <SPECTRUM TYPE>  (1690) 
MS1

>  <INSTRUMENT TYPE>  (1690) 
EI-B

>  <INSTRUMENT>  (1690) 
HITACHI M-80

>  <ION MODE>  (1690) 
P

>  <INCHIKEY>  (1690) 
JGUQDUKBUKFFRO-GGWOSOGESA-N

>  <FORMULA>  (1690) 
C4H8N2O2

>  <EXACT MASS>  (1690) 
116.058577496

>  <MW>  (1690) 
116

>  <ID>  (1690) 
JP009515

>  <CONTRIBUTOR>  (1690) 
University of Tokyo Team, {Faculty of Engineering, University of Tokyo

>  <COMMENT>  (1690) 
SMILES=ON=C(C)C(C)=NO
cas=95-45-4
InChI=InChI=1S/C4H8N2O2/c1-3(5-7)4(2)6-8/h7-8H,1-2H3/b5-3+,6-4+
computed SMILES=ON=C(C(=NO)C)C
accession=JP009515
date=2016.01.19 (Created 2008.10.21, modified 2011.05.06)
author=NARA WOMEN'S UNIVERSITY
license=CC BY-NC-SA
exact mass=116.05858
ionization energy=70 eV
ion type=[M]+*
computed spectral entropy=3.16028467785196
computed normalized entropy=0.8510093842494418
SPLASH=splash10-00kf-9100000000-d29e3ca76b35c62e1f0d
submitter=submitter = University of Tokyo Team (Faculty of Engineering, University of Tokyo)
MoNA Rating=3.75

>  <NUM PEAKS>  (1690) 
41

>  <MASS SPECTRAL PEAKS>  (1690) 
14 2.42
15 38.23
17 1.28
18 2.77
26 5.59
27 21.25
28 28.79
29 5.31
30 14.53
31 28.1
37 2.06
38 5.54
39 13.74
40 27.31
41 33.96
42 99.99
43 11.5
44 4.03
50 3.11
51 5.58
52 8.13
53 5.78
54 13.02
55 6.02
56 2.92
57 12.53
58 49.92
59 1.52
66 4.36
67 6.97
68 21.76
69 9.35
81 5.23
82 3.5
84 7.34
98 4.15
99 34.82
100 1.89
101 1.33
116 51.12
117 11.48

>  <PREDICTED SPECTRUM>  (1690) 
14 72
15 203
16 55
17 48
18 69
25 24
26 152
27 256
28 318
29 183
30 282
31 138
32 26
33 80
34 31
36 68
37 124
38 261
39 270
40 385
41 590
42 999
43 800
44 512
45 166
46 87
49 41
50 110
51 222
52 324
53 458
54 519
55 332
56 556
57 497
58 693
59 324
60 27
61 80
62 33
63 58
64 92
65 93
66 134
67 148
68 447
69 383
70 323
71 174
72 126
73 59
74 94
75 44
81 192
82 352
83 323
84 275
85 188
86 116
87 103
89 104
97 86
98 398
99 627
100 296
101 162
115 73
116 698
117 188

$$$$

     RDKit          2D

 13 13  0  0  1  0  0  0  0  0999 V2000
   -5.5207    3.1321    0.0000 C   0  0  0  0  0  0  0  0  0  0  0  0
    3.5726    0.8821    0.0000 C   0  0  0  0  0  0  0  0  0  0  0  0
    3.5731    2.3829    0.0000 C   0  0  0  0  0  0  0  0  0  0  0  0
    2.2731    0.1313    0.0000 C   0  0  0  0  0  0  0  0  0  0  0  0
    2.2740    3.1329    0.0000 C   0  0  0  0  0  0  0  0  0  0  0  0
    0.9740    0.8813    0.0000 C   0  0  0  0  0  0  0  0  0  0  0  0
   -0.3245    3.1321    0.0000 C   0  0  0  0  0  0  0  0  0  0  0  0
    0.9745    2.3821    0.0000 C   0  0  0  0  0  0  0  0  0  0  0  0
   -1.6236    2.3821    0.0000 C   0  0  0  0  0  0  0  0  0  0  0  0
   -2.9226    3.1321    0.0000 C   0  0  0  0  0  0  0  0  0  0  0  0
   -1.6236    0.8821    0.0000 N   0  0  0  0  0  0  0  0  0  0  0  0
   -2.9226    4.6321    0.0000 O   0  0  0  0  0  0  0  0  0  0  0  0
   -4.2216    2.3821    0.0000 O   0  0  0  0  0  0  0  0  0  0  0  0
  3  2  2  0
  4  2  1  0
  5  3  1  0
  6  4  2  0
  8  5  2  0
  8  6  1  0
  8  7  1  0
  9  7  1  0
 10  9  1  0
  9 11  1  6
 12 10  2  0
 13  1  1  0
 13 10  1  0
M  END
>  <NAME>  (1691) 
L-PHENYLALANINE METHYL ESTER

>  <SYNONYMS>  (1691) 


>  <SPECTRUM TYPE>  (1691) 
MS1

>  <INSTRUMENT TYPE>  (1691) 
EI-B

>  <INSTRUMENT>  (1691) 
HITACHI M-80

>  <ION MODE>  (1691) 
P

>  <INCHIKEY>  (1691) 
VSDUZFOSJDMAFZ-VIFPVBQESA-N

>  <FORMULA>  (1691) 
C10H13NO2

>  <EXACT MASS>  (1691) 
179.094628656

>  <MW>  (1691) 
179

>  <ID>  (1691) 
JP009514

>  <CONTRIBUTOR>  (1691) 
University of Tokyo Team, {Faculty of Engineering, University of Tokyo

>  <COMMENT>  (1691) 
SMILES=COC(=O)C(N)Cc(c1)cccc1
cas=2577-90-4
InChI=InChI=1S/C10H13NO2/c1-13-10(12)9(11)7-8-5-3-2-4-6-8/h2-6,9H,7,11H2,1H3/t9-/m0/s1
computed SMILES=O=C(OC)C(N)CC=1C=CC=CC1
accession=JP009514
date=2016.01.19 (Created 2008.10.21, modified 2011.05.06)
author=NARA WOMEN'S UNIVERSITY
license=CC BY-NC-SA
exact mass=179.09463
ionization energy=70 eV
ion type=[M]+*
computed spectral entropy=2.982922947965
computed normalized entropy=0.7747554786315525
SPLASH=splash10-0079-9300000000-de217e7b5ba4a358f934
submitter=submitter = University of Tokyo Team (Faculty of Engineering, University of Tokyo)
MoNA Rating=3.75

>  <NUM PEAKS>  (1691) 
47

>  <MASS SPECTRAL PEAKS>  (1691) 
15 9.08
18 2.34
27 2.59
28 22.16
29 6.88
30 2.54
31 1.13
33 23.52
38 1.51
39 10.13
40 1.23
41 3.86
42 8.47
43 4.43
50 4.12
51 10.08
52 2.54
53 1.44
59 3
60 13.13
62 2.24
63 6.98
64 2
65 16.82
66 1.67
74 1.32
75 1.17
76 1.26
77 13.2
78 3.8
80 1.04
88 99.99
89 9.13
90 3.77
91 42.85
92 9.63
93 4.15
102 2.92
103 15.91
104 3.71
117 2.86
118 6.63
119 6.09
120 99.36
121 9.27
179 1.91
180 3.89

>  <PREDICTED SPECTRUM>  (1691) 
15 121
27 71
28 124
29 63
30 150
31 65
33 99
38 23
39 221
40 73
41 112
42 242
43 95
44 38
45 121
46 87
50 117
51 210
52 122
53 106
54 64
56 123
57 45
59 40
60 284
61 189
62 69
63 197
64 80
65 392
66 107
74 63
75 25
76 57
77 325
78 157
79 112
80 36
88 999
89 282
90 97
91 568
92 364
93 214
102 23
103 307
104 172
105 36
115 10
117 251
118 136
119 128
120 839
121 252

$$$$

     RDKit          2D

 16 18  0  0  0  0  0  0  0  0999 V2000
    3.9000   -0.7500    0.0000 C   0  0  0  0  0  0  0  0  0  0  0  0
   -3.9000   -0.7500    0.0000 C   0  0  0  0  0  0  0  0  0  0  0  0
    3.9000    0.7500    0.0000 C   0  0  0  0  0  0  0  0  0  0  0  0
   -3.9000    0.7500    0.0000 C   0  0  0  0  0  0  0  0  0  0  0  0
    2.6000   -1.5000    0.0000 C   0  0  0  0  0  0  0  0  0  0  0  0
   -2.6000   -1.5000    0.0000 C   0  0  0  0  0  0  0  0  0  0  0  0
    2.6000    1.5000    0.0000 C   0  0  0  0  0  0  0  0  0  0  0  0
   -2.6000    1.5000    0.0000 C   0  0  0  0  0  0  0  0  0  0  0  0
   -0.0000   -1.5000    0.0000 C   0  0  0  0  0  0  0  0  0  0  0  0
    0.0000    3.0000    0.0000 C   0  0  0  0  0  0  0  0  0  0  0  0
    1.3000   -0.7500    0.0000 C   0  0  0  0  0  0  0  0  0  0  0  0
   -1.3000   -0.7500    0.0000 C   0  0  0  0  0  0  0  0  0  0  0  0
    1.3000    0.7500    0.0000 C   0  0  0  0  0  0  0  0  0  0  0  0
   -1.3000    0.7500    0.0000 C   0  0  0  0  0  0  0  0  0  0  0  0
   -0.0000    1.5000    0.0000 C   0  0  0  0  0  0  0  0  0  0  0  0
   -1.2990    3.7500    0.0000 O   0  0  0  0  0  0  0  0  0  0  0  0
  3  1  2  0
  4  2  1  0
  5  1  1  0
  6  2  2  0
  7  3  1  0
  8  4  2  0
 11  5  2  0
 11  9  1  0
 12  6  1  0
 12  9  2  0
 13  7  2  0
 13 11  1  0
 14  8  1  0
 14 12  1  0
 15 10  1  0
 15 13  1  0
 15 14  2  0
 16 10  2  0
M  END
>  <NAME>  (1692) 
9-ANTHRALDEHYDE

>  <SYNONYMS>  (1692) 


>  <SPECTRUM TYPE>  (1692) 
MS1

>  <INSTRUMENT TYPE>  (1692) 
EI-B

>  <INSTRUMENT>  (1692) 
HITACHI M-80

>  <ION MODE>  (1692) 
P

>  <INCHIKEY>  (1692) 
YMNKUHIVVMFOFO-UHFFFAOYSA-N

>  <FORMULA>  (1692) 
C15H10O

>  <EXACT MASS>  (1692) 
206.07316494

>  <MW>  (1692) 
206

>  <ID>  (1692) 
JP009513

>  <CONTRIBUTOR>  (1692) 
University of Tokyo Team, {Faculty of Engineering, University of Tokyo

>  <COMMENT>  (1692) 
SMILES=O=Cc(c21)c(c3)c(ccc3)cc(cccc2)1
cas=642-31-9
InChI=InChI=1S/C15H10O/c16-10-15-13-7-3-1-5-11(13)9-12-6-2-4-8-14(12)15/h1-10H
computed SMILES=O=CC=1C=2C=CC=CC2C=C3C=CC=CC31
accession=JP009513
date=2016.01.19 (Created 2008.10.21, modified 2011.05.06)
author=NARA WOMEN'S UNIVERSITY
license=CC BY-NC-SA
exact mass=206.07316
ionization energy=70 eV
ion type=[M]+*
computed spectral entropy=2.9306725254135673
computed normalized entropy=0.7698797918883514
SPLASH=splash10-004i-2930000000-b5f840927d5d673cab91
submitter=submitter = University of Tokyo Team (Faculty of Engineering, University of Tokyo)
MoNA Rating=3.75

>  <NUM PEAKS>  (1692) 
45

>  <MASS SPECTRAL PEAKS>  (1692) 
27 1.13
28 1.07
29 2.5
39 2.56
50 3.27
51 3.25
62 3.35
63 5.96
74 5.72
75 6.91
76 9.03
77 1.62
86 3.2
87 5.21
88 10.94
89 10.53
98 3.93
99 2.81
100 1.11
101 1.01
102 1.1
103 1.79
110 1.49
111 1.7
122 1.41
125 1.11
126 3.38
127 1.36
128 1.22
139 1.99
149 1.93
150 11.78
151 14.91
152 10.18
153 1.22
174 4.91
175 6.65
176 39.61
177 30.33
178 99.99
179 15.28
180 1.25
205 30.52
206 56.63
207 9.12

>  <PREDICTED SPECTRUM>  (1692) 
26 4
27 56
38 6
39 117
40 35
43 70
49 24
50 140
51 181
52 29
62 112
63 147
74 209
75 270
76 198
77 61
81 10
82 42
85 22
86 124
87 187
88 368
89 94
94 69
95 29
98 153
99 161
100 228
101 284
102 76
106 43
110 35
111 107
112 54
113 127
122 77
123 48
124 77
125 72
126 191
127 48
128 42
137 30
138 6
139 10
149 49
150 233
151 309
152 187
161 53
163 84
173 102
174 348
175 181
176 682
177 625
178 787
179 378
180 86
187 101
189 176
190 5
191 24
201 114
202 33
203 25
204 68
205 726
206 999
207 406
208 66

$$$$

     RDKit          2D

 16 18  0  0  0  0  0  0  0  0999 V2000
    3.9000   -0.7500    0.0000 C   0  0  0  0  0  0  0  0  0  0  0  0
   -3.9000   -0.7500    0.0000 C   0  0  0  0  0  0  0  0  0  0  0  0
    3.9000    0.7500    0.0000 C   0  0  0  0  0  0  0  0  0  0  0  0
   -3.9000    0.7500    0.0000 C   0  0  0  0  0  0  0  0  0  0  0  0
    2.6000   -1.5000    0.0000 C   0  0  0  0  0  0  0  0  0  0  0  0
   -2.6000   -1.5000    0.0000 C   0  0  0  0  0  0  0  0  0  0  0  0
    2.6000    1.5000    0.0000 C   0  0  0  0  0  0  0  0  0  0  0  0
   -2.6000    1.5000    0.0000 C   0  0  0  0  0  0  0  0  0  0  0  0
   -0.0000   -1.5000    0.0000 C   0  0  0  0  0  0  0  0  0  0  0  0
    0.0000    3.0000    0.0000 C   0  0  0  0  0  0  0  0  0  0  0  0
    1.3000   -0.7500    0.0000 C   0  0  0  0  0  0  0  0  0  0  0  0
   -1.3000   -0.7500    0.0000 C   0  0  0  0  0  0  0  0  0  0  0  0
    1.3000    0.7500    0.0000 C   0  0  0  0  0  0  0  0  0  0  0  0
   -1.3000    0.7500    0.0000 C   0  0  0  0  0  0  0  0  0  0  0  0
   -0.0000    1.5000    0.0000 C   0  0  0  0  0  0  0  0  0  0  0  0
    0.0000    4.5000    0.0000 N   0  0  0  0  0  0  0  0  0  0  0  0
  3  1  2  0
  4  2  1  0
  5  1  1  0
  6  2  2  0
  7  3  1  0
  8  4  2  0
 11  5  2  0
 11  9  1  0
 12  6  1  0
 12  9  2  0
 13  7  2  0
 13 11  1  0
 14  8  1  0
 14 12  1  0
 15 10  1  0
 15 13  1  0
 15 14  2  0
 16 10  3  0
M  END
>  <NAME>  (1693) 
9-ANTHRACENECARBONITRILE

>  <SYNONYMS>  (1693) 
9-CYANOANTHRACENE

>  <SPECTRUM TYPE>  (1693) 
MS1

>  <INSTRUMENT TYPE>  (1693) 
EI-B

>  <INSTRUMENT>  (1693) 
HITACHI M-80

>  <ION MODE>  (1693) 
P

>  <INCHIKEY>  (1693) 
KEQZHLAEKAVZLY-UHFFFAOYSA-N

>  <FORMULA>  (1693) 
C15H9N

>  <EXACT MASS>  (1693) 
203.073499288

>  <MW>  (1693) 
203

>  <ID>  (1693) 
JP009512

>  <CONTRIBUTOR>  (1693) 
University of Tokyo Team, {Faculty of Engineering, University of Tokyo

>  <COMMENT>  (1693) 
SMILES=N#Cc(c21)c(c3)c(ccc3)cc(cccc2)1
cas=1210-12-4
InChI=InChI=1S/C15H9N/c16-10-15-13-7-3-1-5-11(13)9-12-6-2-4-8-14(12)15/h1-9H
computed SMILES=N#CC=1C=2C=CC=CC2C=C3C=CC=CC31
accession=JP009512
date=2016.01.19 (Created 2008.10.21, modified 2011.05.06)
author=NARA WOMEN'S UNIVERSITY
license=CC BY-NC-SA
exact mass=203.0735
ionization energy=70 eV
ion type=[M]+*
computed spectral entropy=2.546479031582107
computed normalized entropy=0.7106085039079515
SPLASH=splash10-0udi-3390000000-0d0fefbbfcd75a9fba27
submitter=submitter = University of Tokyo Team (Faculty of Engineering, University of Tokyo)
MoNA Rating=3.75

>  <NUM PEAKS>  (1693) 
36

>  <MASS SPECTRAL PEAKS>  (1693) 
39 2.17
50 2.73
51 2.32
61 1.05
62 2.58
63 3.7
74 4.54
75 5.27
76 1.83
86 2.6
87 5.29
88 6.77
98 2.88
99 2.6
100 1.55
101 4.71
102 1.27
110 1.16
111 1.81
122 1.08
123 1.37
124 1.12
126 1.72
149 1.8
150 4.91
151 2.44
152 1.58
174 4.14
175 6.76
176 8.7
177 5.21
201 7.55
202 7.16
203 99.99
204 17.01
205 1.3

>  <PREDICTED SPECTRUM>  (1693) 
26 28
27 56
28 11
37 8
38 37
39 116
40 54
41 61
43 10
44 27
49 10
50 130
51 127
52 37
54 8
55 14
61 42
62 105
63 134
64 39
65 25
68 25
69 5
73 52
74 169
75 184
76 158
77 51
78 2
80 2
81 49
82 51
83 20
84 29
85 60
86 102
87 159
88 211
89 54
92 2
93 39
94 103
95 37
96 28
97 38
98 142
99 143
100 169
101 105
102 23
109 30
110 111
111 138
112 75
113 87
122 112
123 105
124 83
125 86
126 129
127 89
136 46
137 75
138 87
149 158
150 188
151 223
152 130
153 27
161 59
162 65
163 155
164 110
173 102
174 233
175 254
176 343
177 233
178 105
181 11
188 41
199 67
200 146
201 309
202 477
203 999
204 437
205 158
206 1

$$$$

     RDKit          2D

 29 31  0  0  1  0  0  0  0  0999 V2000
    6.4962   -3.0000    0.0000 C   0  0  0  0  0  0  0  0  0  0  0  0
    3.8989    1.5002    0.0000 C   0  0  0  0  0  0  0  0  0  0  0  0
    3.8981   -1.5000    0.0000 C   0  0  0  0  0  0  0  0  0  0  0  0
   -3.8989   -1.5002    0.0000 C   0  0  0  0  0  0  0  0  0  0  0  0
    5.1971   -3.7500    0.0000 C   0  0  0  0  0  0  0  0  0  0  0  0
   -2.6000    0.7500    0.0000 C   0  0  0  0  0  0  0  0  0  0  0  0
   -1.3000    1.5000    0.0000 C   0  0  0  0  0  0  0  0  0  0  0  0
   -2.5990   -3.7500    0.0000 C   0  0  0  0  0  0  0  0  0  0  0  0
   -1.3000   -3.0000    0.0000 C   0  0  0  0  0  0  0  0  0  0  0  0
    1.3000    1.5000    0.0000 C   0  0  0  0  0  0  0  0  0  0  0  0
    2.6000   -0.7500    0.0000 C   0  0  0  0  0  0  0  0  0  0  0  0
   -1.3001   -6.0002    0.0000 C   0  0  0  0  0  0  0  0  0  0  0  0
   -2.6005   -8.2517    0.0000 C   0  0  0  0  0  0  0  0  0  0  0  0
    2.6000    0.7500    0.0000 C   0  0  0  0  0  0  0  0  0  0  0  0
    3.8981   -3.0000    0.0000 C   0  0  0  0  0  0  0  0  0  0  0  0
   -2.6000   -0.7500    0.0000 C   0  0  0  0  0  0  0  0  0  0  0  0
    0.0000    0.7500    0.0000 C   0  0  0  0  0  0  0  0  0  0  0  0
   -1.3008   -7.5010    0.0000 C   0  0  0  0  0  0  0  0  0  0  0  0
   -2.5990   -5.2500    0.0000 C   0  0  0  0  0  0  0  0  0  0  0  0
   -1.3000   -1.5000    0.0000 C   0  0  0  0  0  0  0  0  0  0  0  0
    1.3000   -1.5000    0.0000 C   0  0  0  0  0  0  0  0  0  0  0  0
   -3.8994   -7.5015    0.0000 C   0  0  0  0  0  0  0  0  0  0  0  0
    0.0000   -0.7500    0.0000 C   0  0  0  0  0  0  0  0  0  0  0  0
    2.5990   -3.7500    0.0000 C   0  0  0  0  0  0  0  0  0  0  0  0
   -0.0019   -8.2512    0.0000 O   0  0  0  0  0  0  0  0  0  0  0  0
   -5.1987   -8.2510    0.0000 O   0  0  0  0  0  0  0  0  0  0  0  0
    2.5990   -5.2500    0.0000 O   0  0  0  0  0  0  0  0  0  0  0  0
   -3.8987   -6.0006    0.0000 O   0  0  0  0  0  0  0  0  0  0  0  0
    1.3000   -3.0000    0.0000 O   0  0  0  0  0  0  0  0  0  0  0  0
  5  1  1  0
  7  6  2  0
  9  8  1  0
 14  2  1  6
 14 10  1  0
 14 11  1  0
 15  3  1  1
 15  5  1  0
 16  4  1  1
 16  6  1  0
 17  7  1  0
 17 10  2  0
 18 12  1  0
 18 13  1  0
 19  8  1  6
 19 12  1  0
 20  9  1  1
 20 16  1  0
 21 11  1  0
 22 13  1  0
 23 17  1  6
 23 20  1  0
 23 21  1  0
 24 15  1  0
 18 25  1  1
 26 22  2  0
 27 24  2  0
 28 19  1  0
 28 22  1  0
 21 29  1  6
 29 24  1  0
M  END
>  <NAME>  (1694) 
MEVINOLINE

>  <SYNONYMS>  (1694) 


>  <SPECTRUM TYPE>  (1694) 
MS1

>  <INSTRUMENT TYPE>  (1694) 
EI-B

>  <INSTRUMENT>  (1694) 
HITACHI M-80

>  <ION MODE>  (1694) 
P

>  <INCHIKEY>  (1694) 
PCZOHLXUXFIOCF-BXMDZJJMSA-N

>  <FORMULA>  (1694) 
C24H36O5

>  <EXACT MASS>  (1694) 
404.256274252

>  <MW>  (1694) 
404

>  <ID>  (1694) 
JP009511

>  <CONTRIBUTOR>  (1694) 
University of Tokyo Team, {Faculty of Engineering, University of Tokyo

>  <COMMENT>  (1694) 
SMILES=CCC([H])(C)C(=O)OC(C3)C([H])(C1=CC(C)3)C(CCC(C2)OC(=O)CC(O)2)C(C)C=C1
cas=75330-75-5
InChI=InChI=1S/C24H36O5/c1-5-15(3)24(27)29-21-11-14(2)10-17-7-6-16(4)20(23(17)21)9-8-19-12-18(25)13-22(26)28-19/h6-7,10,14-16,18-21,23,25H,5,8-9,11-13H2,1-4H3/t14-,15-,16-,18+,19+,20-,21-,23-/m0/s1
computed SMILES=O=C1OC(CCC2C(C=CC3=CC(C)CC(OC(=O)C(C)CC)C32)C)CC(O)C1
author=NARA WOMEN'S UNIVERSITY
accession=JP009511
date=2016.01.19 (Created 2008.10.21, modified 2011.05.06)
license=CC BY-NC-SA
exact mass=404.25627
ionization energy=70 eV
ion type=[M]+*
computed spectral entropy=3.890091399798772
computed normalized entropy=0.8183480786957322
SPLASH=splash10-0a4j-1910000000-8aeacab386a420581150
submitter=submitter = University of Tokyo Team (Faculty of Engineering, University of Tokyo)
MoNA Rating=3.75

>  <NUM PEAKS>  (1694) 
116

>  <MASS SPECTRAL PEAKS>  (1694) 
18 1.22
27 2.13
28 2.07
29 6.63
39 2.13
41 8.86
42 2.43
43 2.67
44 3.89
45 2.86
55 4.61
56 1.94
57 19.87
58 2.33
67 1.88
69 1.68
71 2.46
73 3.22
74 4.67
77 1.52
79 2.33
80 2.03
81 4.05
83 1.1
84 1.45
85 4.43
87 1.66
89 4.04
91 5.01
92 1.1
93 2.3
95 1.21
97 1.9
103 1.54
105 10.16
106 2.19
107 1.79
108 1.3
115 3.21
116 1.21
117 4.19
118 4.37
119 4.07
120 1.23
126 2.76
127 1.59
128 4.23
129 6.1
130 2.7
131 7.38
132 4.25
133 2.16
141 3.07
142 4.71
143 16.21
144 7.35
145 8.56
146 2.37
147 1.25
155 6.87
156 10.93
157 72.15
158 26.93
159 95.11
160 16.45
161 4.65
169 16.54
170 11.68
171 9.62
172 56.63
173 17.5
174 7.72
175 1.92
181 1.49
182 1.21
183 13.09
184 3.28
185 4.8
186 1.49
195 1.74
196 2.32
197 17.82
198 99.99
199 24.51
200 15.98
201 3.9
202 2.07
209 3.08
211 3.93
212 1.39
213 1.55
214 1.23
223 1.72
224 25.09
225 7.17
226 1.26
227 1.09
233 3.05
238 3.45
239 1
242 2.26
243 1.35
251 2.31
256 1.38
269 5.46
270 1.2
284 15.8
285 4.41
286 2.1
287 3.98
300 1.07
302 19.65
303 4.95
304 4.39
404 5.89
405 1.95

>  <PREDICTED SPECTRUM>  (1694) 
19 2
26 29
27 97
28 101
29 310
31 66
39 193
40 88
41 582
42 263
43 432
44 243
45 289
46 42
47 33
49 0
50 100
51 115
52 77
53 268
54 82
55 512
56 260
57 775
58 238
59 172
60 98
61 61
63 55
65 182
66 131
67 313
68 132
69 297
70 178
71 217
72 112
73 314
74 145
75 265
76 90
77 315
78 165
79 363
80 169
81 369
82 180
83 213
84 101
85 486
86 102
87 93
89 103
90 33
91 396
92 112
93 161
94 152
95 205
96 131
97 146
98 139
99 136
100 84
101 175
102 99
103 195
104 276
105 546
106 241
107 211
108 154
109 194
110 143
111 213
112 48
113 76
115 404
116 242
117 403
118 286
119 306
120 42
121 159
122 55
123 147
124 131
125 143
126 80
127 350
128 570
129 757
130 556
131 664
132 248
133 245
134 82
138 10
139 74
140 15
141 539
142 532
143 916
144 747
145 833
146 449
147 180
148 49
149 65
150 56
151 69
152 106
153 238
154 108
155 512
156 615
157 885
158 666
159 999
160 490
161 224
162 68
163 48
165 158
166 5
167 35
168 49
169 602
170 673
171 559
172 811
173 519
174 164
175 52
176 62
177 98
178 28
179 44
180 103
181 193
182 188
183 598
184 536
185 396
186 124
187 95
188 67
189 52
190 50
191 5
195 46
196 256
197 475
198 667
199 622
200 339
201 107
202 110
203 1
204 11
208 7
209 164
210 309
211 300
212 254
213 209
214 41
215 124
216 63
217 73
218 5
222 8
224 337
225 157
226 44
227 159
228 56
229 60
230 81
231 52
232 36
234 49
235 11
237 96
238 147
239 79
240 109
242 84
243 19
245 3
249 124
250 18
251 5
255 102
256 163
257 101
258 38
259 24
266 115
267 22
274 13
284 303
285 262
286 55
301 17
302 339
303 99
330 54
347 40

$$$$

     RDKit          2D

 20 23  0  0  1  0  0  0  0  0999 V2000
    2.3365    3.1918    0.0000 C   0  0  0  0  0  0  0  0  0  0  0  0
   -0.4100   -2.8000    0.0000 C   0  0  0  0  0  0  0  0  0  0  0  0
   -4.3100   -0.5500    0.0000 C   0  0  0  0  0  0  0  0  0  0  0  0
    0.8900   -2.0500    0.0000 C   0  0  0  0  0  0  0  0  0  0  0  0
   -3.0100    0.2000    0.0000 C   0  0  0  0  0  0  0  0  0  0  0  0
    3.6100   -0.2600    0.0000 C   0  0  0  0  0  0  0  0  0  0  0  0
    4.4900    0.9500    0.0000 C   0  0  0  0  0  0  0  0  0  0  0  0
   -0.4100    1.7000    0.0000 C   0  0  0  0  0  0  0  0  0  0  0  0
    0.8900    2.4500    0.0000 C   0  0  0  0  0  0  0  0  0  0  0  0
   -3.0100   -2.8000    0.0000 C   0  0  0  0  0  0  0  0  0  0  0  0
   -1.7100   -2.0500    0.0000 C   0  0  0  0  0  0  0  0  0  0  0  0
   -4.3100   -2.0500    0.0000 C   0  0  0  0  0  0  0  0  0  0  0  0
   -1.7100   -0.5500    0.0000 C   0  0  0  0  0  0  0  0  0  0  0  0
   -0.4100    0.2000    0.0000 C   0  0  0  0  0  0  0  0  0  0  0  0
    0.8900   -0.5500    0.0000 C   0  0  0  0  0  0  0  0  0  0  0  0
    2.1800    0.2000    0.0000 C   0  0  0  0  0  0  0  0  0  0  0  0
    3.6100    2.1700    0.0000 C   0  0  0  0  0  0  0  0  0  0  0  0
    2.1800    1.7000    0.0000 C   0  0  0  0  0  0  0  0  0  0  0  0
   -5.6089   -2.8002    0.0000 O   0  0  0  0  0  0  0  0  0  0  0  0
    4.0736    3.5966    0.0000 O   0  0  0  0  0  0  0  0  0  0  0  0
  4  2  1  0
  5  3  1  0
  7  6  1  0
  9  8  1  0
 11  2  1  0
 11 10  2  0
 12  3  2  0
 12 10  1  0
 13  5  2  0
 13 11  1  0
 14  8  1  1
 14 13  1  0
 15  4  1  6
 15 14  1  0
 16  6  1  1
 16 15  1  0
 17  7  1  0
 18  1  1  1
 18  9  1  0
 18 16  1  0
 18 17  1  0
 19 12  1  0
 20 17  2  0
M  END
>  <NAME>  (1695) 
ESTRONE

>  <SYNONYMS>  (1695) 


>  <SPECTRUM TYPE>  (1695) 
MS1

>  <INSTRUMENT TYPE>  (1695) 
EI-B

>  <INSTRUMENT>  (1695) 
HITACHI M-80

>  <ION MODE>  (1695) 
P

>  <INCHIKEY>  (1695) 
DNXHEGUUPJUMQT-CBZIJGRNSA-N

>  <FORMULA>  (1695) 
C18H22O2

>  <EXACT MASS>  (1695) 
270.161979944

>  <MW>  (1695) 
270

>  <ID>  (1695) 
JP009509

>  <CONTRIBUTOR>  (1695) 
University of Tokyo Team, {Faculty of Engineering, University of Tokyo

>  <COMMENT>  (1695) 
cas=53-16-7
SMILES=Oc(c4)cc(C3)c(c4)C([H])(C2)C([H])(C3)C([H])(C1)C(C)(C2)C(=O)C1
InChI=InChI=1S/C18H22O2/c1-18-9-8-14-13-5-3-12(19)10-11(13)2-4-15(14)16(18)6-7-17(18)20/h3,5,10,14-16,19H,2,4,6-9H2,1H3/t14-,15-,16+,18+/m1/s1
computed SMILES=O=C1CCC2C3CCC4=CC(O)=CC=C4C3CCC12C
accession=JP009509
date=2016.01.19 (Created 2008.10.21, modified 2011.05.06)
author=NARA WOMEN'S UNIVERSITY
license=CC BY-NC-SA
exact mass=270.16198
ionization energy=70 eV
ion type=[M]+*
computed spectral entropy=4.032636691455209
computed normalized entropy=0.8546439877283184
SPLASH=splash10-00di-2940000000-2d417e7ecb4a8b87b817
submitter=submitter = University of Tokyo Team (Faculty of Engineering, University of Tokyo)
MoNA Rating=3.75

>  <NUM PEAKS>  (1695) 
112

>  <MASS SPECTRAL PEAKS>  (1695) 
18 1.77
27 4.41
28 3.84
29 4.25
39 6.26
40 1.37
41 10.6
42 1.83
43 1.8
51 2.36
52 1.08
53 4.89
54 1.09
55 7.7
57 1.19
63 1.67
65 3.52
66 1.2
67 5.6
68 1.27
69 1.37
77 7.83
78 2.11
79 6.17
81 3.61
82 1.09
85 1.08
89 1.64
91 8.88
92 2.36
93 2.13
95 1.61
97 4.02
102 1.3
103 3.68
104 1.19
105 5.31
107 8.14
108 2.12
115 12.09
116 4.15
117 4.05
119 1.65
120 7.3
121 3.58
123 1.95
127 6.73
128 6.65
129 4.28
130 1.19
131 10.98
132 4.28
133 12.97
134 2.02
135 1.16
139 1.07
141 4.12
142 1.28
143 1.29
144 9.81
145 16.22
146 29.86
147 7.67
148 1.08
150 1.14
152 2.17
153 2.03
154 1.11
155 1.34
157 12.85
158 11.06
159 16.93
160 15.3
161 2.38
165 2.42
167 1.11
169 1.68
170 5.26
171 6.08
172 22.34
173 5.72
174 1.52
181 1.56
182 1.05
183 2.12
184 2.14
185 25.35
186 10
187 1.73
195 1.17
197 2.29
198 1.6
199 6.23
200 2.37
210 1.17
211 4.72
212 2.05
213 17.31
214 10.93
215 1.83
226 5.45
227 2.4
228 1.52
237 1.88
241 1.13
242 4.84
255 1.15
268 1.17
269 2.35
270 99.99
271 20.22
272 2.51

>  <PREDICTED SPECTRUM>  (1695) 
26 1
27 23
28 15
29 49
39 51
40 19
41 82
42 25
43 73
44 26
45 61
50 4
51 25
52 22
53 89
54 15
55 110
56 6
57 25
63 41
64 33
65 85
66 20
67 179
68 58
69 137
73 23
74 22
76 31
77 168
78 73
79 185
80 21
81 200
82 40
83 116
85 65
87 24
89 58
90 31
91 225
92 104
93 200
94 56
95 165
96 71
97 390
98 71
99 2
102 9
103 110
104 68
105 250
106 80
107 378
108 127
109 179
110 205
111 53
112 31
114 48
115 304
116 178
117 221
118 48
119 136
120 247
121 254
122 166
123 145
124 40
125 28
126 15
127 215
128 207
129 182
130 104
131 346
132 283
133 469
134 212
135 100
139 43
141 90
142 143
143 117
144 341
145 508
146 594
147 275
148 171
149 63
151 21
152 53
153 44
154 45
156 45
157 421
158 418
159 538
160 654
161 209
163 0
165 58
167 43
168 16
169 114
170 290
171 249
172 633
173 282
174 102
181 71
182 15
183 122
184 130
185 383
186 318
187 83
194 37
195 133
196 65
197 153
198 109
199 395
200 175
201 23
209 71
210 115
211 275
212 112
213 369
214 336
215 57
223 51
224 70
225 57
226 312
227 232
228 126
237 153
241 110
242 229
243 61
251 8
252 96
253 19
255 148
256 140
268 103
269 124
270 999
271 430
272 128
273 0

$$$$

     RDKit          2D

 12 13  0  0  0  0  0  0  0  0999 V2000
    3.2476   -0.0550    0.0000 C   0  0  0  0  0  0  0  0  0  0  0  0
   -3.2476    3.6950    0.0000 C   0  0  0  0  0  0  0  0  0  0  0  0
    3.2481    1.4458    0.0000 C   0  0  0  0  0  0  0  0  0  0  0  0
    1.9481   -0.8058    0.0000 C   0  0  0  0  0  0  0  0  0  0  0  0
   -3.2481    2.1942    0.0000 C   0  0  0  0  0  0  0  0  0  0  0  0
   -1.9481    4.4458    0.0000 C   0  0  0  0  0  0  0  0  0  0  0  0
    1.9490    2.1958    0.0000 C   0  0  0  0  0  0  0  0  0  0  0  0
    0.6490   -0.0558    0.0000 C   0  0  0  0  0  0  0  0  0  0  0  0
   -1.9490    1.4442    0.0000 C   0  0  0  0  0  0  0  0  0  0  0  0
   -0.6490    3.6958    0.0000 C   0  0  0  0  0  0  0  0  0  0  0  0
    0.6495    1.4450    0.0000 C   0  0  0  0  0  0  0  0  0  0  0  0
   -0.6495    2.1950    0.0000 C   0  0  0  0  0  0  0  0  0  0  0  0
  3  1  2  0
  4  1  1  0
  5  2  2  0
  6  2  1  0
  7  3  1  0
  8  4  2  0
  9  5  1  0
 10  6  2  0
 11  7  2  0
 11  8  1  0
 12  9  2  0
 12 10  1  0
 12 11  1  0
M  END
>  <NAME>  (1696) 
BIPHENYL

>  <SYNONYMS>  (1696) 
DIPHENYL

>  <SPECTRUM TYPE>  (1696) 
MS1

>  <INSTRUMENT TYPE>  (1696) 
EI-B

>  <INSTRUMENT>  (1696) 
HITACHI M-80

>  <ION MODE>  (1696) 
P

>  <INCHIKEY>  (1696) 
ZUOUZKKEUPVFJK-UHFFFAOYSA-N

>  <FORMULA>  (1696) 
C12H10

>  <EXACT MASS>  (1696) 
154.07825032

>  <MW>  (1696) 
154

>  <ID>  (1696) 
JP009508

>  <CONTRIBUTOR>  (1696) 
University of Tokyo Team, {Faculty of Engineering, University of Tokyo

>  <COMMENT>  (1696) 
SMILES=c(c2)ccc(c2)c(c1)cccc1
cas=92-52-4
InChI=InChI=1S/C12H10/c1-3-7-11(8-4-1)12-9-5-2-6-10-12/h1-10H
computed SMILES=C=1C=CC(=CC1)C=2C=CC=CC2
accession=JP009508
date=2016.01.19 (Created 2008.10.21, modified 2011.05.06)
author=NARA WOMEN'S UNIVERSITY
license=CC BY-NC-SA
exact mass=154.07825
ionization energy=70 eV
ion type=[M]+*
computed spectral entropy=3.1654020319043212
computed normalized entropy=0.8267690034399745
SPLASH=splash10-0udi-6900000000-f9f4bb759b70237cae7b
submitter=submitter = University of Tokyo Team (Faculty of Engineering, University of Tokyo)
MoNA Rating=3.75

>  <NUM PEAKS>  (1696) 
46

>  <MASS SPECTRAL PEAKS>  (1696) 
26 3.51
27 7.25
28 1.04
37 1.31
38 5.07
39 15.37
50 17.74
51 23.9
52 6.09
61 2.3
62 7.59
63 15.46
64 3.37
65 2.69
73 1.2
74 13.03
75 10.47
76 12.39
77 9.57
78 2.97
85 1.37
86 4.32
87 6.51
88 2.17
89 5.64
98 3.87
99 2.32
100 1.37
101 2.4
102 10.06
103 1.33
113 2.62
114 1.29
115 10.03
116 1.03
126 8.13
127 6.25
128 11.05
129 1.2
139 2.95
150 2.57
151 7.66
152 26.02
153 33.2
154 99.99
155 13.32

>  <PREDICTED SPECTRUM>  (1696) 
26 42
27 62
38 18
39 166
41 36
44 2
49 39
50 157
51 254
52 72
55 74
56 12
62 107
63 200
64 15
74 168
75 188
76 239
77 199
78 87
81 51
82 70
83 107
84 85
85 22
86 61
87 97
88 77
89 178
96 11
98 83
99 39
100 64
101 85
102 228
111 3
113 12
115 323
124 26
126 148
127 205
128 199
129 15
139 215
150 123
151 277
152 574
153 623
154 999
155 354
156 63

$$$$

     RDKit          2D

 29 32  0  0  1  0  0  0  0  0999 V2000
    9.5655    7.2342    0.0000 C   0  0  0  0  0  0  0  0  0  0  0  0
    7.1046    8.0672    0.0000 C   0  0  0  0  0  0  0  0  0  0  0  0
    8.6037    4.3926    0.0000 C   0  0  0  0  0  0  0  0  0  0  0  0
    3.2009    4.6377    0.0000 C   0  0  0  0  0  0  0  0  0  0  0  0
   -1.6125    0.9400    0.0000 C   0  0  0  0  0  0  0  0  0  0  0  0
    2.4507    3.1203    0.0000 C   0  0  0  0  0  0  0  0  0  0  0  0
    6.1427    5.2256    0.0000 C   0  0  0  0  0  0  0  0  0  0  0  0
    5.6618    3.8047    0.0000 C   0  0  0  0  0  0  0  0  0  0  0  0
   -0.3200   -2.8400    0.0000 C   0  0  0  0  0  0  0  0  0  0  0  0
    1.0100   -2.0900    0.0000 C   0  0  0  0  0  0  0  0  0  0  0  0
    4.5500    0.8800    0.0000 C   0  0  0  0  0  0  0  0  0  0  0  0
    3.7100   -0.3100    0.0000 C   0  0  0  0  0  0  0  0  0  0  0  0
   -4.2000   -0.5600    0.0000 C   0  0  0  0  0  0  0  0  0  0  0  0
   -0.3200    1.6300    0.0000 C   0  0  0  0  0  0  0  0  0  0  0  0
   -2.8900    0.1600    0.0000 C   0  0  0  0  0  0  0  0  0  0  0  0
    1.0100    2.3900    0.0000 C   0  0  0  0  0  0  0  0  0  0  0  0
   -2.8900   -2.8400    0.0000 C   0  0  0  0  0  0  0  0  0  0  0  0
    8.0946    6.9403    0.0000 C   0  0  0  0  0  0  0  0  0  0  0  0
    7.6137    5.5195    0.0000 C   0  0  0  0  0  0  0  0  0  0  0  0
    4.1909    3.5108    0.0000 C   0  0  0  0  0  0  0  0  0  0  0  0
   -1.6200   -2.0900    0.0000 C   0  0  0  0  0  0  0  0  0  0  0  0
   -4.2000   -2.0900    0.0000 C   0  0  0  0  0  0  0  0  0  0  0  0
    1.0100   -0.5600    0.0000 C   0  0  0  0  0  0  0  0  0  0  0  0
    3.7100    2.0900    0.0000 C   0  0  0  0  0  0  0  0  0  0  0  0
    2.2800    0.1600    0.0000 C   0  0  0  0  0  0  0  0  0  0  0  0
   -0.3200    0.1600    0.0000 C   0  0  0  0  0  0  0  0  0  0  0  0
   -1.6200   -0.5600    0.0000 C   0  0  0  0  0  0  0  0  0  0  0  0
    2.2800    1.6300    0.0000 C   0  0  0  0  0  0  0  0  0  0  0  0
   -5.4977   -2.8424    0.0000 O   0  0  0  0  0  0  0  0  0  0  0  0
  8  7  1  0
 10  9  1  0
 12 11  1  0
 15 13  1  0
 16 14  1  0
 18  1  1  0
 18  2  1  0
 19  3  2  0
 19  7  1  0
 19 18  1  0
 20  4  1  1
 20  8  1  0
 21  9  1  0
 21 17  2  0
 22 13  1  0
 22 17  1  0
 23 10  1  1
 24 11  1  1
 24 20  1  0
 25 12  1  1
 25 23  1  0
 26 14  1  1
 26 23  1  0
 27  5  1  1
 27 15  1  0
 27 21  1  0
 27 26  1  0
 28  6  1  1
 28 16  1  0
 28 24  1  0
 28 25  1  0
 29 22  2  0
M  END
>  <NAME>  (1697) 
ERGSTA-4,24(28)-DIEN-3-ONE

>  <SYNONYMS>  (1697) 


>  <SPECTRUM TYPE>  (1697) 
MS1

>  <INSTRUMENT TYPE>  (1697) 
EI-B

>  <INSTRUMENT>  (1697) 
HITACHI M-80

>  <ION MODE>  (1697) 
P

>  <INCHIKEY>  (1697) 
JRMPVNVOLQJLJX-AWYZUKNCSA-N

>  <FORMULA>  (1697) 
C28H44O

>  <EXACT MASS>  (1697) 
396.339216028

>  <MW>  (1697) 
396

>  <ID>  (1697) 
JP009507

>  <CONTRIBUTOR>  (1697) 
University of Tokyo Team, {Faculty of Engineering, University of Tokyo

>  <COMMENT>  (1697) 
SMILES=CC(C4([H])C([H])(C)CCC(C(C)C)=C)(C([H])3CC4)CCC(C([H])23)([H])C(C)(C=1CC2)CCC(C1)=O
cas=55688-44-3
InChI=InChI=1S/C28H44O/c1-18(2)19(3)7-8-20(4)24-11-12-25-23-10-9-21-17-22(29)13-15-27(21,5)26(23)14-16-28(24,25)6/h17-18,20,23-26H,3,7-16H2,1-2,4-6H3/t20-,23+,24+,25-,26-,27-,28+/m0/s1
computed SMILES=O=C1C=C2CCC3C(CCC4(C)C(CCC34)C(C)CCC(=C)C(C)C)C2(C)CC1
accession=JP009507
date=2016.01.19 (Created 2008.10.21, modified 2011.05.06)
author=NARA WOMEN'S UNIVERSITY
license=CC BY-NC-SA
exact mass=396.33922
ionization energy=70 eV
ion type=[M]+*
computed spectral entropy=4.658371836031231
computed normalized entropy=0.8775691245397915
SPLASH=splash10-03dj-9886000000-4a07baee0f6116d6c545
submitter=submitter = University of Tokyo Team (Faculty of Engineering, University of Tokyo)
MoNA Rating=3.75

>  <NUM PEAKS>  (1697) 
202

>  <MASS SPECTRAL PEAKS>  (1697) 
18 2.74
27 3.93
28 2.69
29 7.17
39 4.11
40 1.23
41 27.71
42 3.66
43 20.53
44 1.33
45 1.37
53 4.57
54 2.1
55 30.58
56 5.88
57 11.14
60 4.43
61 1.89
65 1.91
66 1.21
67 12.84
68 6.03
69 35.62
70 5.99
71 7.09
73 4.61
74 1.35
77 5.19
78 1.3
79 12.58
80 2.76
81 19.98
82 13.2
83 16.46
84 9.49
85 4.91
87 1.23
91 10.38
92 2.29
93 13.33
94 4.73
95 16.75
96 5.03
97 9.58
98 2.93
99 1.8
101 1.02
103 1.5
105 10.28
106 3.21
107 12.12
108 4.32
109 12.27
110 3.13
111 5.07
112 1.98
113 1.72
115 2.21
116 1.26
117 3.18
118 1.45
119 8.4
120 3.75
121 11.17
122 6.72
123 10.95
124 17.05
125 4.27
126 1.88
127 1.51
128 1.4
129 4.78
130 1.23
131 5.15
132 2.48
133 8.82
134 5.17
135 9.07
136 8.43
137 7.37
138 2.98
139 1.14
141 1.25
143 2.53
144 1.4
145 5.65
146 2.9
147 10.09
148 7.29
149 10.82
150 2.75
151 1.71
152 1.24
155 1.32
157 2.45
158 1.31
159 4.99
160 2.93
161 6.54
162 3.03
163 4.49
164 1.17
165 1.19
166 1.22
167 1.59
169 1.24
171 2.44
172 1.7
173 4.74
174 4.23
175 6.32
176 2.95
177 3
178 1.09
183 1.37
185 3.81
186 1.65
187 4.48
188 3.58
189 7.88
190 2.32
191 1.82
192 1.09
197 1.23
199 2.42
200 1.32
201 3.59
202 2.25
203 4.08
204 1.24
209 1.46
211 1.9
212 1.13
213 3.64
214 1.32
215 3.35
216 1.58
217 3.12
218 1.98
219 1.91
225 1.51
226 1.17
227 10.79
228 4.3
229 10.1
230 6.58
231 20.31
232 3.9
234 3.94
241 1.97
242 2.67
243 11.57
244 5.42
245 9.23
246 2.12
252 1.51
253 2.13
255 3.12
256 13.61
257 4.74
258 1.01
259 1.68
262 1.08
263 1.33
264 1.14
267 1.05
268 13.84
269 44.31
270 23.42
271 10.29
272 2.64
273 1.68
279 1.43
281 2.7
282 1.2
283 5.22
284 5.28
285 2.01
294 1.2
295 1.28
296 1.25
297 35.66
298 29.59
299 11.49
300 2.54
310 1.16
311 1.91
312 99.99
313 60.37
314 13.79
315 1.94
328 2.16
353 1.84
380 1.28
381 11.61
382 4.11
394 2.31
395 1.27
396 41.64
397 15.07
398 4.4
399 1.06

>  <PREDICTED SPECTRUM>  (1697) 
39 9
40 13
41 383
42 43
43 550
44 28
45 69
49 34
51 16
52 20
53 239
54 117
55 711
56 106
57 309
58 30
59 12
65 143
66 106
67 509
68 184
69 556
70 126
71 326
72 2
77 289
78 96
79 473
80 144
81 495
82 265
83 357
84 151
85 190
86 4
91 517
92 190
93 452
94 250
95 535
96 211
97 313
98 113
99 171
100 20
101 8
103 98
104 86
105 466
106 215
107 424
108 168
109 411
110 178
111 195
112 40
113 30
115 159
116 55
117 229
118 81
119 449
120 233
121 457
122 307
123 507
124 999
125 442
126 14
127 125
128 125
129 211
130 41
131 312
132 220
133 402
134 346
135 394
136 216
137 428
138 227
139 59
141 83
142 39
143 208
144 95
145 311
146 292
147 459
148 297
149 401
150 105
151 120
152 43
153 37
154 28
155 97
156 62
157 203
158 134
159 319
160 122
161 258
162 226
163 227
164 7
165 26
166 0
167 76
169 37
170 38
171 145
172 89
173 235
174 258
175 269
176 179
177 186
183 133
184 60
185 215
186 133
187 261
188 123
189 182
190 62
191 139
195 89
197 125
198 73
199 152
200 66
201 254
202 127
203 169
204 4
209 50
211 272
212 118
213 232
214 102
215 124
216 20
217 145
218 33
225 80
226 151
227 277
228 174
229 557
230 258
231 301
232 16
241 79
242 119
243 249
244 411
245 361
251 67
253 202
254 88
255 255
256 153
257 126
258 15
259 176
260 79
261 57
268 20
269 280
270 364
271 538
272 365
273 450
274 112
275 7
281 109
282 23
283 129
284 17
285 35
288 44
295 25
297 178
298 290
299 402
300 113
311 363
312 349
313 241
314 119
325 14
326 73
339 97
340 11
353 132
354 373
355 114
363 32
378 98
381 324
382 84
394 50
395 13
396 704
397 361
398 120

$$$$

     RDKit          2D

  8  7  0  0  0  0  0  0  0  0999 V2000
    1.9486    3.3750    0.0000 C   0  0  0  0  0  0  0  0  0  0  0  0
    0.6495    4.1250    0.0000 C   0  0  0  0  0  0  0  0  0  0  0  0
   -3.2476    3.3750    0.0000 C   0  0  0  0  0  0  0  0  0  0  0  0
   -4.5466    4.1250    0.0000 C   0  0  0  0  0  0  0  0  0  0  0  0
   -1.9486    4.1250    0.0000 C   0  0  0  0  0  0  0  0  0  0  0  0
   -5.8457    3.3750    0.0000 Br  0  0  0  0  0  0  0  0  0  0  0  0
   -1.9486    5.6250    0.0000 O   0  0  0  0  0  0  0  0  0  0  0  0
   -0.6495    3.3750    0.0000 O   0  0  0  0  0  0  0  0  0  0  0  0
  2  1  1  0
  4  3  1  0
  5  3  1  0
  6  4  1  0
  7  5  2  0
  8  2  1  0
  8  5  1  0
M  END
>  <NAME>  (1698) 
ETHYL 3-BROMOPROPIONATE

>  <SYNONYMS>  (1698) 


>  <SPECTRUM TYPE>  (1698) 
MS1

>  <INSTRUMENT TYPE>  (1698) 
EI-B

>  <INSTRUMENT>  (1698) 
HITACHI M-80

>  <ION MODE>  (1698) 
P

>  <INCHIKEY>  (1698) 
FQTIYMRSUOADDK-UHFFFAOYSA-N

>  <FORMULA>  (1698) 
C5H9BrO2

>  <EXACT MASS>  (1698) 
179.978591628

>  <MW>  (1698) 
180

>  <ID>  (1698) 
JP009504

>  <CONTRIBUTOR>  (1698) 
University of Tokyo Team, {Faculty of Engineering, University of Tokyo

>  <COMMENT>  (1698) 
SMILES=CCOC(=O)CCBr
cas=539-74-2
InChI=InChI=1S/C5H9BrO2/c1-2-8-5(7)3-4-6/h2-4H2,1H3
computed SMILES=O=C(OCC)CCBr
accession=JP009504
date=2016.01.19 (Created 2008.10.21, modified 2011.05.06)
author=NARA WOMEN'S UNIVERSITY
license=CC BY-NC-SA
exact mass=179.97859
ionization energy=70 eV
ion type=[M]+*
computed spectral entropy=2.839723111504231
computed normalized entropy=0.7864269363644275
SPLASH=splash10-004i-9200000000-fc5bfcf02d6f8306f710
submitter=submitter = University of Tokyo Team (Faculty of Engineering, University of Tokyo)
MoNA Rating=3.75

>  <NUM PEAKS>  (1698) 
37

>  <MASS SPECTRAL PEAKS>  (1698) 
14 5.32
15 13.05
25 2.14
26 39.83
27 99.99
28 49.43
29 70.84
30 10.34
31 4.09
41 1.84
42 7.15
43 11.72
44 1.91
45 10.79
53 1.68
55 9.67
56 2.06
73 12.45
79 4.91
80 1.76
81 5.12
82 1.84
93 2.33
95 1.77
101 6.5
106 1.62
107 18.34
108 2.14
109 15.18
135 9.73
137 10.44
152 17.63
153 1.07
154 17.14
155 1.13
180 1.15
182 1.02

>  <PREDICTED SPECTRUM>  (1698) 
14 59
15 55
16 3
19 7
25 35
26 212
27 577
28 225
29 654
30 95
31 138
35 26
36 65
37 100
38 146
39 308
40 191
41 457
42 557
43 511
44 51
45 528
46 109
47 84
49 37
50 41
51 67
52 8
53 143
54 99
55 437
56 339
57 322
58 94
59 269
60 310
61 222
63 12
64 18
65 154
67 103
70 61
71 150
72 252
73 671
74 367
75 84
76 76
79 55
81 145
82 51
83 62
84 15
87 54
88 31
93 66
94 24
95 33
100 174
101 433
102 108
106 59
107 459
108 249
109 628
110 195
111 89
121 7
134 111
135 916
136 200
137 999
138 209
139 105
152 331
153 191
154 454
155 125
180 253
181 67
182 286
183 62

$$$$

     RDKit          2D

 13 10  0  0  0  0  0  0  0  0999 V2000
   -1.2990    1.5000    0.0000 C   0  0  0  0  0  0  0  0  0  0  0  0
    0.0000    3.7500    0.0000 C   0  0  0  0  0  0  0  0  0  0  0  0
    1.2990    1.5000    0.0000 C   0  0  0  0  0  0  0  0  0  0  0  0
    0.0000    2.2500    0.0000 N   0  0  0  0  0  0  0  0  0  0  0  0
    2.5981    2.2500    0.0000 S   0  0  0  0  0  0  0  0  0  0  0  0
    1.2990   -0.0000    0.0000 S   0  0  0  0  0  0  0  0  0  0  0  0
   -1.2990    1.5000    0.0000 C   0  0  0  0  0  0  0  0  0  0  0  0
    0.0000    3.7500    0.0000 C   0  0  0  0  0  0  0  0  0  0  0  0
    1.2990    1.5000    0.0000 C   0  0  0  0  0  0  0  0  0  0  0  0
    0.0000    2.2500    0.0000 N   0  0  0  0  0  0  0  0  0  0  0  0
    2.5981    2.2500    0.0000 S   0  0  0  0  0  0  0  0  0  0  0  0
    1.2990   -0.0000    0.0000 S   0  0  0  0  0  0  0  0  0  0  0  0
    0.0000    0.0000    0.0000 Zn  0  0  0  0  0 15  0  0  0  0  0  0
  4  1  1  0
  4  2  1  0
  4  3  1  0
  5  3  2  0
  6  3  1  0
 10  7  1  0
 10  8  1  0
 10  9  1  0
 11  9  2  0
 12  9  1  0
M  CHG  3   6  -1  12  -1  13   2
M  END
>  <NAME>  (1699) 
ZIRAM

>  <SYNONYMS>  (1699) 
ZINC DIMETHYLDITHIOCARBAMATE

>  <SPECTRUM TYPE>  (1699) 
MS1

>  <INSTRUMENT TYPE>  (1699) 
EI-B

>  <INSTRUMENT>  (1699) 
HITACHI M-80

>  <ION MODE>  (1699) 
P

>  <INCHIKEY>  (1699) 
DUBNHZYBDBBJHD-UHFFFAOYSA-L

>  <FORMULA>  (1699) 
C6H12N2S4Zn

>  <EXACT MASS>  (1699) 
303.917474584

>  <MW>  (1699) 
304

>  <ID>  (1699) 
JP009503

>  <CONTRIBUTOR>  (1699) 
University of Tokyo Team, {Faculty of Engineering, University of Tokyo

>  <COMMENT>  (1699) 
SMILES=CN(C)C(=S)S[Zn]SC(=S)N(C)C
InChI=InChI=1S/2C3H7NS2.Zn/c2*1-4(2)3(5)6;/h2*1-2H3,(H,5,6);/q;;+2/p-2
computed SMILES=[Zn+2].S=C([S-])N(C)C.S=C([S-])N(C)C
accession=JP009503
date=2016.01.19 (Created 2008.10.21, modified 2011.05.06)
author=NARA WOMEN'S UNIVERSITY
license=CC BY-NC-SA
exact mass=303.91748
ionization energy=70 eV
ion type=[M]+*
computed spectral entropy=3.126420395837728
computed normalized entropy=0.7575281306968078
SPLASH=splash10-0pbi-7219000000-1e53d9c95de1c08396cc
submitter=submitter = University of Tokyo Team (Faculty of Engineering, University of Tokyo)
MoNA Rating=3.75

>  <NUM PEAKS>  (1699) 
62

>  <MASS SPECTRAL PEAKS>  (1699) 
14 1.06
15 8
18 1.19
27 1.09
28 3.57
32 1.68
40 1.49
41 2.64
42 17.43
43 3.02
44 11.61
45 4.09
47 2.18
56 3.3
61 1.04
64 2.79
72 8.72
73 12.9
74 1.59
76 5.19
77 4.92
87 3.03
88 94.81
89 6.69
90 4.19
96 1.53
120 20.67
121 5.59
122 2.14
140 1.16
152 1.81
172 1.19
184 13.16
185 2.48
186 8.6
187 2.67
188 5.77
189 1.11
208 1.48
216 9.12
218 6.35
219 1.2
220 3.91
227 5.38
228 1.89
229 3.37
230 1.71
231 2.36
257 1.4
258 1.03
260 1.1
289 3.33
291 2.75
293 1.87
304 99.99
305 10.69
306 74
307 15.65
308 47.85
309 6.8
310 8.75
311 1.05

>  <PREDICTED SPECTRUM>  (1699) 
14 16
15 85
16 7
17 17
18 28
19 2
25 5
26 55
27 168
28 140
29 148
30 55
31 33
32 33
33 21
34 40
35 0
36 52
37 50
38 66
39 108
40 82
41 160
42 479
43 272
44 510
45 308
46 111
47 200
48 5
49 41
50 78
51 132
52 72
53 63
54 114
55 82
56 131
57 125
58 58
59 91
60 73
61 133
62 94
63 100
64 99
65 136
66 113
67 113
68 87
69 168
70 168
71 249
72 115
73 261
74 173
75 117
76 351
77 85
78 86
79 50
80 44
81 66
82 129
83 166
84 178
85 115
86 37
87 26
88 999
89 211
90 250
91 149
92 85
93 62
94 41
95 87
96 118
97 143
98 59
99 42
100 2
101 52
102 90
103 148
104 12
105 60
106 56
107 107
108 81
109 107
110 55
111 61
112 104
113 103
114 133
115 151
116 64
117 14
118 58
119 68
120 105
121 83
122 53
123 61
124 110
125 61
126 87
127 128
128 100
129 84
130 3
131 160
132 41
133 68
134 65
135 32
139 86
140 72
141 186
142 123
143 101
144 58
145 82
146 41
147 81
148 125
149 144
150 62
151 141
152 46
153 47
154 52
155 61
156 83
157 141
158 46
159 121
160 11
161 56
162 8
166 9
167 74
168 94
169 102
170 131
171 135
172 192
173 92
174 154
175 88
176 24
180 0
181 120
182 61
183 133
184 273
185 282
186 225
187 254
188 52
189 35
190 22
198 67
199 84
200 91
201 212
202 163
203 111
204 35
205 66
211 97
212 100
213 293
214 147
215 198
216 87
217 169
218 124
219 84
225 40
226 155
227 139
228 288
229 82
230 139
231 21
232 24
233 25
234 53
240 69
241 45
242 49
243 70
244 69
245 17
246 72
247 83
248 30
250 10
255 5
256 47
259 116
260 293
261 253
262 106
263 41
271 277
272 3
276 3
289 43
303 25
304 556
305 217
306 202
307 80
308 2

$$$$

     RDKit          2D

  6  5  0  0  0  0  0  0  0  0999 V2000
    1.2990    2.2500    0.0000 C   0  0  0  0  0  0  0  0  0  0  0  0
    0.0000    3.0000    0.0000 C   0  0  0  0  0  0  0  0  0  0  0  0
   -2.5981    3.0000    0.0000 C   0  0  0  0  0  0  0  0  0  0  0  0
   -3.8971    2.2500    0.0000 N   0  0  0  0  0  0  0  0  0  0  0  0
   -2.5981    4.5000    0.0000 O   0  0  0  0  0  0  0  0  0  0  0  0
   -1.2990    2.2500    0.0000 O   0  0  0  0  0  0  0  0  0  0  0  0
  2  1  1  0
  4  3  2  0
  5  3  1  0
  6  2  1  0
  6  3  1  0
M  END
>  <NAME>  (1700) 
URETHANE

>  <SYNONYMS>  (1700) 
ETHYL CARBAMATE

>  <SPECTRUM TYPE>  (1700) 
MS1

>  <INSTRUMENT TYPE>  (1700) 
EI-B

>  <INSTRUMENT>  (1700) 
HITACHI M-80

>  <ION MODE>  (1700) 
P

>  <INCHIKEY>  (1700) 
JOYRKODLDBILNP-UHFFFAOYSA-N

>  <FORMULA>  (1700) 
C3H7NO2

>  <EXACT MASS>  (1700) 
89.047678464

>  <MW>  (1700) 
89

>  <ID>  (1700) 
JP009502

>  <CONTRIBUTOR>  (1700) 
University of Tokyo Team, {Faculty of Engineering, University of Tokyo

>  <COMMENT>  (1700) 
SMILES=CCOC(N)=O
cas=51-79-6
InChI=InChI=1S/C3H7NO2/c1-2-6-3(4)5/h2H2,1H3,(H2,4,5)
computed SMILES=N=C(O)OCC
accession=JP009502
date=2016.01.19 (Created 2008.10.21, modified 2011.05.06)
author=NARA WOMEN'S UNIVERSITY
license=CC BY-NC-SA
exact mass=89.04768
ionization energy=70 eV
ion type=[M]+*
computed spectral entropy=2.569695985738248
computed normalized entropy=0.7983209435683859
SPLASH=splash10-01r7-9000000000-4905daa85aa870eff5d7
submitter=submitter = University of Tokyo Team (Faculty of Engineering, University of Tokyo)
MoNA Rating=3.75

>  <NUM PEAKS>  (1700) 
25

>  <MASS SPECTRAL PEAKS>  (1700) 
14 2.09
15 8.3
16 7.55
17 7.59
18 23.24
19 2.53
26 7.56
27 34.84
28 13.02
29 30.39
30 4.93
31 30.47
32 1.53
42 2.72
43 12.77
44 99.99
45 61.51
46 7.34
61 6.17
62 79.69
63 1.14
71 1.01
74 14.25
89 5.57
90 7.21

>  <PREDICTED SPECTRUM>  (1700) 
14 63
15 95
16 58
17 65
18 59
19 25
25 61
26 191
27 440
28 235
29 501
30 159
31 215
33 67
34 62
40 117
41 411
42 372
43 722
44 999
45 605
46 247
47 44
57 104
60 32
61 490
62 520
63 121
71 117
72 202
74 260
75 1
88 10
89 312
90 72

$$$$

     RDKit          2D

 10 11  0  0  0  0  0  0  0  0999 V2000
    2.6000    0.0000    0.0000 C   0  0  0  0  0  0  0  0  0  0  0  0
   -2.3100   -0.7500    0.0000 C   0  0  0  0  0  0  0  0  0  0  0  0
    0.2900    0.7500    0.0000 C   0  0  0  0  0  0  0  0  0  0  0  0
    0.2900   -0.7500    0.0000 C   0  0  0  0  0  0  0  0  0  0  0  0
   -1.0100    1.5000    0.0000 C   0  0  0  0  0  0  0  0  0  0  0  0
    1.7200    1.2100    0.0000 N   0  0  0  0  0  0  0  0  0  0  0  0
    1.7200   -1.2100    0.0000 N   0  0  0  0  0  0  0  0  0  0  0  0
   -1.0100   -1.5000    0.0000 N   0  0  0  0  0  0  0  0  0  0  0  0
   -2.3100    0.7500    0.0000 N   0  0  0  0  0  0  0  0  0  0  0  0
   -1.0100    3.0000    0.0000 O   0  0  0  0  0  0  0  0  0  0  0  0
  4  3  2  0
  5  3  1  0
  6  1  2  0
  6  3  1  0
  7  1  1  0
  7  4  1  0
  8  2  2  0
  8  4  1  0
  9  2  1  0
  9  5  2  0
 10  5  1  0
M  END
>  <NAME>  (1701) 
HYPOXANTHINE

>  <SYNONYMS>  (1701) 


>  <SPECTRUM TYPE>  (1701) 
MS1

>  <INSTRUMENT TYPE>  (1701) 
EI-B

>  <INSTRUMENT>  (1701) 
HITACHI M-80

>  <ION MODE>  (1701) 
P

>  <INCHIKEY>  (1701) 
FDGQSTZJBFJUBT-UHFFFAOYSA-N

>  <FORMULA>  (1701) 
C5H4N4O

>  <EXACT MASS>  (1701) 
136.038510748

>  <MW>  (1701) 
136

>  <ID>  (1701) 
JP009501

>  <CONTRIBUTOR>  (1701) 
University of Tokyo Team, {Faculty of Engineering, University of Tokyo

>  <COMMENT>  (1701) 
SMILES=C1=NC2=C(N1)C(=O)N=CN2
cas=68-94-0
InChI=InChI=1S/C5H4N4O/c10-5-3-4(7-1-6-3)8-2-9-5/h1-2H,(H2,6,7,8,9,10)
computed SMILES=OC1=NC=NC=2NC=NC12
accession=JP009501
date=2016.01.19 (Created 2008.10.21, modified 2011.05.06)
author=NARA WOMEN'S UNIVERSITY
license=CC BY-NC-SA
exact mass=136.03851
ionization energy=70 eV
ion type=[M]+*
computed spectral entropy=2.20715287063764
computed normalized entropy=0.7140480611127294
SPLASH=splash10-000i-9800000000-9c266d6963658e9d2cf1
submitter=submitter = University of Tokyo Team (Faculty of Engineering, University of Tokyo)
MoNA Rating=3.75

>  <NUM PEAKS>  (1701) 
22

>  <MASS SPECTRAL PEAKS>  (1701) 
18 1.09
27 6.36
28 38.83
29 5.3
38 4.67
39 4.63
43 1.67
52 1.27
53 14.02
54 25.13
55 2.55
65 1.65
66 3.5
67 1
80 3.08
81 10.32
82 3.76
108 5.8
109 5.02
135 5.16
136 99.99
137 7.68

>  <PREDICTED SPECTRUM>  (1701) 
16 11
17 10
25 12
26 69
27 79
28 132
29 21
34 6
37 70
38 202
39 208
40 244
41 253
42 266
43 160
44 115
45 23
48 22
49 41
50 110
51 120
52 322
53 546
54 494
55 289
56 127
57 22
61 15
64 64
65 115
66 245
67 278
68 95
76 50
77 81
79 104
80 374
81 433
82 207
83 42
91 13
92 140
93 49
106 7
107 264
108 436
109 230
110 23
119 41
120 61
135 160
136 999
137 260
138 23

$$$$

     RDKit          2D

  9  9  0  0  0  0  0  0  0  0999 V2000
   -2.5989   -0.3304    0.0000 C   0  0  0  0  0  0  0  0  0  0  0  0
   -1.3000    1.9198    0.0000 C   0  0  0  0  0  0  0  0  0  0  0  0
   -1.3000    0.4198    0.0000 C   0  0  0  0  0  0  0  0  0  0  0  0
   -0.0000   -0.3302    0.0000 C   0  0  0  0  0  0  0  0  0  0  0  0
    1.3000    1.9198    0.0000 C   0  0  0  0  0  0  0  0  0  0  0  0
    0.0000    2.6698    0.0000 N   0  0  0  0  0  0  0  0  0  0  0  0
    1.3000    0.4198    0.0000 N   0  0  0  0  0  0  0  0  0  0  0  0
   -0.0000   -1.8302    0.0000 O   0  0  0  0  0  0  0  0  0  0  0  0
    2.5989    2.6700    0.0000 O   0  0  0  0  0  0  0  0  0  0  0  0
  3  1  1  0
  3  2  2  0
  4  3  1  0
  6  2  1  0
  6  5  2  0
  7  4  2  0
  7  5  1  0
  8  4  1  0
  9  5  1  0
M  END
>  <NAME>  (1702) 
THYMINE

>  <SYNONYMS>  (1702) 
5-METHYLURACIL

>  <SPECTRUM TYPE>  (1702) 
MS1

>  <INSTRUMENT TYPE>  (1702) 
EI-B

>  <INSTRUMENT>  (1702) 
HITACHI M-80

>  <ION MODE>  (1702) 
P

>  <INCHIKEY>  (1702) 
RWQNBRDOKXIBIV-UHFFFAOYSA-N

>  <FORMULA>  (1702) 
C5H6N2O2

>  <EXACT MASS>  (1702) 
126.042927432

>  <MW>  (1702) 
126

>  <ID>  (1702) 
JP009500

>  <CONTRIBUTOR>  (1702) 
University of Tokyo Team, {Faculty of Engineering, University of Tokyo

>  <COMMENT>  (1702) 
SMILES=CC(=C1)C(=O)NC(=O)N1
cas=65-71-4
InChI=InChI=1S/C5H6N2O2/c1-3-2-6-5(9)7-4(3)8/h2H,1H3,(H2,6,7,8,9)
computed SMILES=OC1=NC=C(C(O)=N1)C
accession=JP009500
date=2016.01.19 (Created 2008.10.21, modified 2011.05.06)
author=NARA WOMEN'S UNIVERSITY
license=CC BY-NC-SA
exact mass=126.04293
ionization energy=70 eV
ion type=[M]+*
computed spectral entropy=2.3009898754779896
computed normalized entropy=0.714842696851223
SPLASH=splash10-004i-9500000000-74b6d7909610070d30d0
submitter=submitter = University of Tokyo Team (Faculty of Engineering, University of Tokyo)
MoNA Rating=3.75

>  <NUM PEAKS>  (1702) 
25

>  <MASS SPECTRAL PEAKS>  (1702) 
18 1.22
26 4.65
27 10.06
28 28.56
29 2.41
38 1.93
39 5.35
40 3.01
42 1.94
43 4.47
44 3.71
51 1.8
52 6.98
53 4.13
54 23.97
55 62.89
56 4.56
70 2.46
71 2.15
82 6.62
83 9.34
84 1.46
97 1.23
126 99.99
127 8.33

>  <PREDICTED SPECTRUM>  (1702) 
17 6
26 0
27 46
28 89
29 59
30 54
37 12
38 62
39 40
40 156
41 241
42 397
43 291
44 303
45 95
47 7
49 6
50 67
51 166
52 263
53 220
54 339
55 294
56 198
57 94
58 57
66 2
67 154
68 109
69 181
70 178
71 125
72 87
79 47
80 92
81 235
82 196
83 171
84 87
85 58
86 21
97 212
98 203
99 34
108 79
109 180
110 49
124 32
125 144
126 999
127 250
128 34

$$$$

     RDKit          2D

 10 10  0  0  0  0  0  0  0  0999 V2000
    0.9213    1.4946    0.0000 C   0  0  0  0  0  0  0  0  0  0  0  0
    1.8295    2.6884    0.0000 C   0  0  0  0  0  0  0  0  0  0  0  0
   -1.5988    0.5918    0.0000 C   0  0  0  0  0  0  0  0  0  0  0  0
   -2.7568    2.7176    0.0000 C   0  0  0  0  0  0  0  0  0  0  0  0
   -0.5667    1.6842    0.0000 C   0  0  0  0  0  0  0  0  0  0  0  0
    3.3175    2.4987    0.0000 C   0  0  0  0  0  0  0  0  0  0  0  0
   -2.9499    1.2321    0.0000 N   0  0  0  0  0  0  0  0  0  0  0  0
   -1.2857    2.9896    0.0000 N   0  0  0  0  0  0  0  0  0  0  0  0
    3.8972    1.1153    0.0000 O   0  0  0  0  0  0  0  0  0  0  0  0
    4.2257    3.6925    0.0000 O   0  0  0  0  0  0  0  0  0  0  0  0
  1  2  2  0
  5  1  1  0
  5  3  2  0
  6  2  1  0
  7  3  1  0
  7  4  2  0
  8  4  1  0
  8  5  1  0
  9  6  2  0
 10  6  1  0
M  END
>  <NAME>  (1703) 
UROCANIC ACID

>  <SYNONYMS>  (1703) 
4-IMIDAZOLE-ACRYLIC ACID

>  <SPECTRUM TYPE>  (1703) 
MS1

>  <INSTRUMENT TYPE>  (1703) 
EI-B

>  <INSTRUMENT>  (1703) 
HITACHI M-80

>  <ION MODE>  (1703) 
P

>  <INCHIKEY>  (1703) 
LOIYMIARKYCTBW-OWOJBTEDSA-N

>  <FORMULA>  (1703) 
C6H6N2O2

>  <EXACT MASS>  (1703) 
138.042927432

>  <MW>  (1703) 
138

>  <ID>  (1703) 
JP009499

>  <CONTRIBUTOR>  (1703) 
University of Tokyo Team, {Faculty of Engineering, University of Tokyo

>  <COMMENT>  (1703) 
SMILES=C1=C(NC=N1)C=CC(=O)O
cas=104-98-3
InChI=InChI=1S/C6H6N2O2/c9-6(10)2-1-5-3-7-4-8-5/h1-4H,(H,7,8)(H,9,10)/b2-1+
computed SMILES=O=C(O)C=CC1=CN=CN1
accession=JP009499
date=2016.01.19 (Created 2008.10.21, modified 2011.05.06)
author=NARA WOMEN'S UNIVERSITY
license=CC BY-NC-SA
exact mass=138.04293
ionization energy=70 eV
ion type=[M]+*
computed spectral entropy=3.0280370635177896
computed normalized entropy=0.8050720435967609
SPLASH=splash10-000f-9200000000-cb7f9025a0f6adf740c1
submitter=submitter = University of Tokyo Team (Faculty of Engineering, University of Tokyo)
MoNA Rating=3.75

>  <NUM PEAKS>  (1703) 
43

>  <MASS SPECTRAL PEAKS>  (1703) 
17 1.12
18 4.41
26 2.51
27 4.91
28 32.28
29 4.59
37 6.9
38 22.15
39 50.36
40 14.49
41 9.03
42 1.54
44 1.24
45 11.45
50 1.93
51 2.32
52 5.53
53 2.7
54 5.6
55 9.16
63 1.58
64 5.12
65 15.31
66 21.14
67 5.92
68 22.09
69 1.81
81 4.36
82 2.26
83 1.36
84 1.9
92 21.33
93 71.5
94 99.99
95 7.21
109 2.55
110 2.05
119 1.09
120 29.19
121 13.81
122 1.03
138 56.5
139 6.76

>  <PREDICTED SPECTRUM>  (1703) 
17 2
25 16
26 26
33 36
34 22
36 23
37 32
38 107
39 185
40 194
41 367
42 250
43 279
44 436
45 528
46 195
47 110
48 82
49 117
50 135
51 199
52 306
53 215
54 351
55 244
56 149
57 273
58 36
60 54
61 54
62 67
63 105
64 131
65 170
66 448
67 308
68 245
69 277
70 126
71 177
72 72
73 116
74 72
75 145
76 98
77 39
78 81
79 3
80 105
81 191
82 114
83 90
84 220
85 55
86 3
90 3
91 43
92 271
93 696
94 717
95 243
96 73
98 43
99 0
103 36
104 12
109 28
110 187
111 141
112 57
118 43
119 114
120 255
121 385
122 80
137 222
138 999
139 288
140 82

$$$$

     RDKit          2D

  8  8  0  0  0  0  0  0  0  0999 V2000
    0.6477    2.2439    0.0000 C   0  0  0  0  0  0  0  0  0  0  0  0
    1.9467    1.4939    0.0000 C   0  0  0  0  0  0  0  0  0  0  0  0
   -0.6468    1.5017    0.0000 C   0  0  0  0  0  0  0  0  0  0  0  0
    0.6517   -0.7491    0.0000 C   0  0  0  0  0  0  0  0  0  0  0  0
    1.9512    0.0017    0.0000 N   0  0  0  0  0  0  0  0  0  0  0  0
   -0.6473    0.0009    0.0000 N   0  0  0  0  0  0  0  0  0  0  0  0
   -1.9446    2.2539    0.0000 O   0  0  0  0  0  0  0  0  0  0  0  0
    0.6520   -2.2491    0.0000 O   0  0  0  0  0  0  0  0  0  0  0  0
  2  1  2  0
  3  1  1  0
  5  2  1  0
  5  4  2  0
  6  3  2  0
  6  4  1  0
  7  3  1  0
  8  4  1  0
M  END
>  <NAME>  (1704) 
URACIL

>  <SYNONYMS>  (1704) 


>  <SPECTRUM TYPE>  (1704) 
MS1

>  <INSTRUMENT TYPE>  (1704) 
EI-B

>  <INSTRUMENT>  (1704) 
HITACHI M-80

>  <ION MODE>  (1704) 
P

>  <INCHIKEY>  (1704) 
ISAKRJDGNUQOIC-UHFFFAOYSA-N

>  <FORMULA>  (1704) 
C4H4N2O2

>  <EXACT MASS>  (1704) 
112.027277368

>  <MW>  (1704) 
112

>  <ID>  (1704) 
JP009498

>  <CONTRIBUTOR>  (1704) 
University of Tokyo Team, {Faculty of Engineering, University of Tokyo

>  <COMMENT>  (1704) 
SMILES=O=C(C=1)NC(=O)NC1
cas=66-22-8
InChI=InChI=1S/C4H4N2O2/c7-3-1-2-5-4(8)6-3/h1-2H,(H2,5,6,7,8)
computed SMILES=OC1=NC=CC(O)=N1
accession=JP009498
date=2016.01.19 (Created 2008.10.21, modified 2011.05.06)
author=NARA WOMEN'S UNIVERSITY
license=CC BY-NC-SA
exact mass=112.02728
ionization energy=70 eV
ion type=[M]+*
computed spectral entropy=2.3358925589781414
computed normalized entropy=0.7556973397244257
SPLASH=splash10-03xu-9400000000-1c29f070a8135b06f88b
submitter=submitter = University of Tokyo Team (Faculty of Engineering, University of Tokyo)
MoNA Rating=3.75

>  <NUM PEAKS>  (1704) 
22

>  <MASS SPECTRAL PEAKS>  (1704) 
14 2.32
18 1.76
25 1.08
26 4.6
27 3.46
28 36.75
29 3.47
38 3.07
39 5.91
40 22.36
41 24.86
42 39.52
43 9.79
44 3.9
53 1.81
56 1.33
67 1.04
68 15.96
69 47.21
70 5.62
112 99.99
113 6.11

>  <PREDICTED SPECTRUM>  (1704) 
14 3
25 25
26 95
27 185
28 215
29 157
30 9
36 26
37 60
38 214
39 94
40 329
41 439
42 393
43 358
44 205
50 85
52 134
53 31
54 131
55 149
56 271
57 254
67 174
68 197
69 314
70 195
71 245
72 100
83 47
84 356
85 102
95 4
111 52
112 999
113 242

$$$$

     RDKit          2D

  5  5  0  0  0  0  0  0  0  0999 V2000
   -1.2100    0.3900    0.0000 C   0  0  0  0  0  0  0  0  0  0  0  0
    0.0000    1.2800    0.0000 N   0  0  0  0  0  0  0  0  0  0  0  0
   -0.7500   -1.0300    0.0000 N   0  0  0  0  0  0  0  0  0  0  0  0
    1.2100    0.3900    0.0000 N   0  0  0  0  0  0  0  0  0  0  0  0
    0.7500   -1.0300    0.0000 N   0  0  0  0  0  0  0  0  0  0  0  0
  2  1  2  0
  3  1  1  0
  4  2  1  0
  5  3  2  0
  5  4  1  0
M  END
>  <NAME>  (1705) 
1H-TETRAZOLE

>  <SYNONYMS>  (1705) 


>  <SPECTRUM TYPE>  (1705) 
MS1

>  <INSTRUMENT TYPE>  (1705) 
EI-B

>  <INSTRUMENT>  (1705) 
HITACHI M-80

>  <ION MODE>  (1705) 
P

>  <INCHIKEY>  (1705) 
KJUGUADJHNHALS-UHFFFAOYSA-N

>  <FORMULA>  (1705) 
CH2N4

>  <EXACT MASS>  (1705) 
70.02794606399999

>  <MW>  (1705) 
70

>  <ID>  (1705) 
JP009497

>  <CONTRIBUTOR>  (1705) 
University of Tokyo Team, {Faculty of Engineering, University of Tokyo

>  <COMMENT>  (1705) 
SMILES=C1=NNN=N1
cas=288-94-8
InChI=InChI=1S/CH2N4/c1-2-4-5-3-1/h1H,(H,2,3,4,5)
computed SMILES=N1=NNN=C1
accession=JP009497
date=2016.01.19 (Created 2008.10.21, modified 2011.05.06)
license=CC BY-NC-SA
author=NARA WOMEN'S UNIVERSITY
exact mass=70.02795
ionization energy=70 eV
ion type=[M]+*
computed spectral entropy=1.9436264666995648
computed normalized entropy=0.701015066212
SPLASH=splash10-0006-9000000000-365fa31532edf6a8b9ff
submitter=submitter = University of Tokyo Team (Faculty of Engineering, University of Tokyo)
MoNA Rating=3.75

>  <NUM PEAKS>  (1705) 
16

>  <MASS SPECTRAL PEAKS>  (1705) 
12 2.96
13 11.72
14 10
15 3.51
26 3.13
27 10.68
28 21.55
29 24.57
40 1.41
41 14.47
42 99.99
43 5.31
44 0.48
70 1.25
71 9.59
72 0.26

>  <PREDICTED SPECTRUM>  (1705) 
14 42
16 14
25 38
26 93
27 96
28 292
29 41
38 275
39 105
40 367
41 667
42 717
43 378
44 60
51 49
52 43
53 343
54 110
70 999
71 87

$$$$

     RDKit          2D

  9  9  0  0  0  0  0  0  0  0999 V2000
    2.2281    2.7902    0.0000 C   0  0  0  0  0  0  0  0  0  0  0  0
    3.5281    2.0402    0.0000 C   0  0  0  0  0  0  0  0  0  0  0  0
    0.9281    2.0402    0.0000 C   0  0  0  0  0  0  0  0  0  0  0  0
    3.5281    0.5402    0.0000 C   0  0  0  0  0  0  0  0  0  0  0  0
    0.9281    0.5402    0.0000 C   0  0  0  0  0  0  0  0  0  0  0  0
   -0.3708   -0.2100    0.0000 C   0  0  0  0  0  0  0  0  0  0  0  0
   -1.6700    0.5398    0.0000 N   0  0  0  0  0  0  0  0  0  0  0  0
    2.2281   -0.2098    0.0000 N   0  0  0  0  0  0  0  0  0  0  0  0
   -0.3706   -1.7100    0.0000 O   0  0  0  0  0  0  0  0  0  0  0  0
  2  1  2  0
  3  1  1  0
  4  2  1  0
  5  3  2  0
  6  5  1  0
  7  6  2  0
  8  4  2  0
  8  5  1  0
  9  6  1  0
M  END
>  <NAME>  (1706) 
ALPHA-PICOLINAMIDE

>  <SYNONYMS>  (1706) 


>  <SPECTRUM TYPE>  (1706) 
MS1

>  <INSTRUMENT TYPE>  (1706) 
EI-B

>  <INSTRUMENT>  (1706) 
HITACHI M-80

>  <ION MODE>  (1706) 
P

>  <INCHIKEY>  (1706) 
IBBMAWULFFBRKK-UHFFFAOYSA-N

>  <FORMULA>  (1706) 
C6H6N2O

>  <EXACT MASS>  (1706) 
122.048012812

>  <MW>  (1706) 
122

>  <ID>  (1706) 
JP009495

>  <CONTRIBUTOR>  (1706) 
University of Tokyo Team, {Faculty of Engineering, University of Tokyo

>  <COMMENT>  (1706) 
SMILES=NC(=O)c(c1)nccc1
InChI=InChI=1S/C6H6N2O/c7-6(9)5-3-1-2-4-8-5/h1-4H,(H2,7,9)
computed SMILES=N=C(O)C1=NC=CC=C1
accession=JP009495
date=2016.01.19 (Created 2008.10.21, modified 2011.05.06)
author=NARA WOMEN'S UNIVERSITY
license=CC BY-NC-SA
exact mass=122.04801
ionization energy=70 eV
ion type=[M]+*
computed spectral entropy=2.591020984189422
computed normalized entropy=0.7775696168339886
SPLASH=splash10-0fb9-9100000000-589b1ae7c14f930b3d31
submitter=submitter = University of Tokyo Team (Faculty of Engineering, University of Tokyo)
MoNA Rating=3.75

>  <NUM PEAKS>  (1706) 
28

>  <MASS SPECTRAL PEAKS>  (1706) 
16 4.05
18 1.27
26 7
27 7.73
28 7.11
29 1.33
37 2.94
38 4.43
39 6.82
40 1.28
41 1.05
43 4.19
44 32.19
49 4.05
50 19.59
51 34.84
52 39.86
53 5.54
67 1.21
75 3.67
76 4.99
77 3.14
78 36.12
79 99.99
80 6.1
106 1.7
122 34.57
123 7.26

>  <PREDICTED SPECTRUM>  (1706) 
25 31
26 45
36 44
37 96
38 206
39 214
40 205
41 300
42 102
43 111
44 206
45 88
48 11
49 173
50 396
51 578
52 455
53 224
57 53
63 24
64 178
65 160
66 212
67 404
68 224
69 35
75 33
76 208
77 605
78 999
79 702
92 45
93 22
94 123
95 53
105 335
106 107
121 45
122 903
123 250
124 11

$$$$

     RDKit          2D

  6  5  0  0  0  0  0  0  0  0999 V2000
    0.0000    0.0000    0.0000 C   0  0  0  0  0  0  0  0  0  0  0  0
    1.2990    2.2500    0.0000 C   0  0  0  0  0  0  0  0  0  0  0  0
   -1.2990    2.2500    0.0000 C   0  0  0  0  0  0  0  0  0  0  0  0
   -1.2990    3.7500    0.0000 C   0  0  0  0  0  0  0  0  0  0  0  0
    0.0000    1.5000    0.0000 N   0  0  0  0  0  0  0  0  0  0  0  0
   -2.5981    4.5000    0.0000 O   0  0  0  0  0  0  0  0  0  0  0  0
  4  3  1  0
  5  1  1  0
  5  2  1  0
  5  3  1  0
  6  4  1  0
M  END
>  <NAME>  (1707) 
N,N-DIMETHYLETHANOLAMINE

>  <SYNONYMS>  (1707) 
2-DIMETHYLAMINOETHANOL

>  <SPECTRUM TYPE>  (1707) 
MS1

>  <INSTRUMENT TYPE>  (1707) 
EI-B

>  <INSTRUMENT>  (1707) 
HITACHI M-80

>  <ION MODE>  (1707) 
P

>  <INCHIKEY>  (1707) 
UEEJHVSXFDXPFK-UHFFFAOYSA-N

>  <FORMULA>  (1707) 
C4H11NO

>  <EXACT MASS>  (1707) 
89.084063972

>  <MW>  (1707) 
89

>  <ID>  (1707) 
JP009494

>  <CONTRIBUTOR>  (1707) 
University of Tokyo Team, {Faculty of Engineering, University of Tokyo

>  <COMMENT>  (1707) 
SMILES=OCCN(C)C
cas=108-01-0
InChI=InChI=1S/C4H11NO/c1-5(2)3-4-6/h6H,3-4H2,1-2H3
computed SMILES=OCCN(C)C
accession=JP009494
date=2016.01.19 (Created 2008.10.21, modified 2011.05.06)
author=NARA WOMEN'S UNIVERSITY
license=CC BY-NC-SA
exact mass=89.08406
ionization energy=70 eV
ion type=[M]+*
computed spectral entropy=2.0922247609167464
computed normalized entropy=0.6984017828918446
SPLASH=splash10-0a4i-9000000000-3e9a264650444af400c5
submitter=submitter = University of Tokyo Team (Faculty of Engineering, University of Tokyo)
MoNA Rating=3.75

>  <NUM PEAKS>  (1707) 
20

>  <MASS SPECTRAL PEAKS>  (1707) 
15 7.61
18 1.04
27 3.64
28 5.17
29 4.9
30 11.07
31 5.84
40 1.22
41 3.03
42 22.32
43 6.81
44 14.97
45 3.5
56 2.34
57 3.68
58 99.99
59 5.16
88 2.27
89 7.3
90 1.2

>  <PREDICTED SPECTRUM>  (1707) 
14 28
15 126
16 8
18 40
19 11
26 34
27 134
28 149
29 188
30 290
31 150
32 33
38 36
39 32
40 87
41 78
42 472
43 237
44 404
45 339
46 79
47 9
51 4
52 15
56 146
57 188
58 999
59 254
61 35
70 92
71 87
72 50
76 38
88 69
89 209
90 41

$$$$

     RDKit          2D

  8  8  0  0  1  0  0  0  0  0999 V2000
    1.5995   -1.0095    0.0000 C   0  0  0  0  0  0  0  0  0  0  0  0
    0.1311   -0.6929    0.0000 C   0  0  0  0  0  0  0  0  0  0  0  0
    2.3495    0.2895    0.0000 C   0  0  0  0  0  0  0  0  0  0  0  0
   -0.0260    0.7950    0.0000 C   0  0  0  0  0  0  0  0  0  0  0  0
   -1.3250    1.5450    0.0000 C   0  0  0  0  0  0  0  0  0  0  0  0
    1.3411    1.4029    0.0000 N   0  0  0  0  0  0  0  0  0  0  0  0
   -1.3250    3.0450    0.0000 O   0  0  0  0  0  0  0  0  0  0  0  0
   -2.6241    0.7950    0.0000 O   0  0  0  0  0  0  0  0  0  0  0  0
  2  1  1  0
  3  1  1  0
  4  2  1  0
  4  5  1  1
  6  3  1  0
  6  4  1  0
  7  5  2  0
  8  5  1  0
M  END
>  <NAME>  (1708) 
L-PROLINE

>  <SYNONYMS>  (1708) 
(S)-(-)-PROLINE

>  <SPECTRUM TYPE>  (1708) 
MS1

>  <INSTRUMENT TYPE>  (1708) 
EI-B

>  <INSTRUMENT>  (1708) 
HITACHI M-80

>  <ION MODE>  (1708) 
P

>  <INCHIKEY>  (1708) 
ONIBWKKTOPOVIA-BYPYZUCNSA-N

>  <FORMULA>  (1708) 
C5H9NO2

>  <EXACT MASS>  (1708) 
115.063328528

>  <MW>  (1708) 
115

>  <ID>  (1708) 
JP009492

>  <CONTRIBUTOR>  (1708) 
University of Tokyo Team, {Faculty of Engineering, University of Tokyo

>  <COMMENT>  (1708) 
SMILES=OC(=O)C([H])(C1)NCC1
cas=147-85-3
InChI=InChI=1S/C5H9NO2/c7-5(8)4-2-1-3-6-4/h4,6H,1-3H2,(H,7,8)/t4-/m0/s1
computed SMILES=O=C(O)C1NCCC1
accession=JP009492
computed normalized entropy=0.7453189570889001
date=2016.01.19 (Created 2008.10.21, modified 2011.05.06)
author=NARA WOMEN'S UNIVERSITY
license=CC BY-NC-SA
exact mass=115.06333
ionization energy=70 eV
ion type=[M]+*
computed spectral entropy=2.4564496957054955
SPLASH=splash10-00fu-9000000000-716c3d01b301162863b6
submitter=submitter = University of Tokyo Team (Faculty of Engineering, University of Tokyo)
MoNA Rating=3.75

>  <NUM PEAKS>  (1708) 
27

>  <MASS SPECTRAL PEAKS>  (1708) 
14 1.2
15 4.96
17 0.96
18 3.32
26 3.22
27 11.87
28 43.71
29 4.18
30 5.52
37 1.27
38 2.94
39 15.08
40 4.6
41 31.9
42 10.06
43 26.51
44 2.57
45 18.4
53 1.23
54 1.1
67 1.34
68 13.78
69 5.22
70 99.99
71 5.08
115 0.96
116 0.9

>  <PREDICTED SPECTRUM>  (1708) 
15 0
17 17
18 24
19 3
26 18
27 64
28 112
29 16
30 157
36 7
38 3
39 96
40 56
41 344
42 479
43 331
44 92
45 233
46 88
50 26
51 73
52 122
53 137
54 193
55 162
56 129
57 178
58 34
59 1
67 30
68 311
69 165
70 999
71 330
72 28
86 17
96 6
114 54
115 142
116 16

$$$$

     RDKit          2D

  5  4  0  0  0  0  0  0  0  0999 V2000
   -1.2990    2.2500    0.0000 C   0  0  0  0  0  0  0  0  0  0  0  0
   -2.5981    1.5000    0.0000 C   0  0  0  0  0  0  0  0  0  0  0  0
    0.0000    1.5000    0.0000 C   0  0  0  0  0  0  0  0  0  0  0  0
   -3.8971    2.2500    0.0000 S   0  0  0  0  0  0  0  0  0  0  0  0
    1.2990    2.2500    0.0000 S   0  0  0  0  0  0  0  0  0  0  0  0
  2  1  1  0
  3  1  1  0
  4  2  1  0
  5  3  1  0
M  END
>  <NAME>  (1709) 
1,3-PROPANEDITHIOL

>  <SYNONYMS>  (1709) 
1,3-DIMERCAPTOPROPANE

>  <SPECTRUM TYPE>  (1709) 
MS1

>  <INSTRUMENT TYPE>  (1709) 
EI-B

>  <INSTRUMENT>  (1709) 
HITACHI M-80

>  <ION MODE>  (1709) 
P

>  <INCHIKEY>  (1709) 
ZJLMKPKYJBQJNH-UHFFFAOYSA-N

>  <FORMULA>  (1709) 
C3H8S2

>  <EXACT MASS>  (1709) 
108.006742256

>  <MW>  (1709) 
108

>  <ID>  (1709) 
JP009491

>  <CONTRIBUTOR>  (1709) 
University of Tokyo Team, {Faculty of Engineering, University of Tokyo

>  <COMMENT>  (1709) 
SMILES=SCCCS
cas=109-80-8
InChI=InChI=1S/C3H8S2/c4-2-1-3-5/h4-5H,1-3H2
computed SMILES=SCCCS
accession=JP009491
date=2016.01.19 (Created 2008.10.21, modified 2011.05.06)
author=NARA WOMEN'S UNIVERSITY
license=CC BY-NC-SA
exact mass=108.00674
ionization energy=70 eV
ion type=[M]+*
computed spectral entropy=3.0459988686774566
computed normalized entropy=0.795582180005333
SPLASH=splash10-0abd-9200000000-6a18983666e306b5d1d7
submitter=submitter = University of Tokyo Team (Faculty of Engineering, University of Tokyo)
MoNA Rating=3.75

>  <NUM PEAKS>  (1709) 
46

>  <MASS SPECTRAL PEAKS>  (1709) 
15 1.43
26 4.22
27 19.57
28 4.41
29 1.3
32 4.64
33 6.85
34 6.54
35 8.88
37 1.9
38 3.51
39 25.18
40 3.22
41 92.51
42 6.6
43 1.25
44 2.08
45 42.63
46 28.7
47 59.94
48 3.33
49 2.7
57 2.06
58 7.57
59 14.46
60 6.97
61 35.73
62 1.73
63 1.56
64 10.31
66 1.91
69 2.85
71 4.17
72 2.11
73 12.37
74 72.83
75 9.99
76 4.3
78 6.09
79 2.02
80 1.37
106 37.61
107 7.88
108 99.99
109 6.31
110 8.86

>  <PREDICTED SPECTRUM>  (1709) 
14 20
15 81
16 7
17 19
18 35
19 13
25 51
26 193
27 552
28 282
29 371
30 57
31 171
32 102
33 173
34 176
35 338
36 66
37 79
38 78
39 208
40 114
41 653
42 211
43 7
44 91
45 459
46 440
47 695
48 369
49 222
50 22
51 42
53 39
54 105
55 2
56 57
57 72
58 226
59 521
60 547
61 999
62 200
63 185
64 105
65 62
66 17
73 56
74 350
75 264
76 39
90 1
107 60
108 547
109 117
110 123

$$$$

     RDKit          2D

 16 16  0  0  0  0  0  0  0  0999 V2000
    0.0000    3.0000    0.0000 C   0  0  0  0  0  0  0  0  0  0  0  0
   -3.3491   -0.2013    0.0000 C   0  0  0  0  0  0  0  0  0  0  0  0
   -3.8978   -2.2504    0.0000 C   0  0  0  0  0  0  0  0  0  0  0  0
   -1.8487   -2.7991    0.0000 C   0  0  0  0  0  0  0  0  0  0  0  0
    1.8487   -2.7991    0.0000 C   0  0  0  0  0  0  0  0  0  0  0  0
    3.8978   -2.2504    0.0000 C   0  0  0  0  0  0  0  0  0  0  0  0
    3.3491   -0.2013    0.0000 C   0  0  0  0  0  0  0  0  0  0  0  0
   -1.3000    0.7500    0.0000 C   0  0  0  0  0  0  0  0  0  0  0  0
    1.3000    0.7500    0.0000 C   0  0  0  0  0  0  0  0  0  0  0  0
    0.0000    1.5000    0.0000 C   0  0  0  0  0  0  0  0  0  0  0  0
   -1.3000   -0.7500    0.0000 C   0  0  0  0  0  0  0  0  0  0  0  0
    1.3000   -0.7500    0.0000 C   0  0  0  0  0  0  0  0  0  0  0  0
    0.0000   -1.5000    0.0000 C   0  0  0  0  0  0  0  0  0  0  0  0
   -2.5989   -1.5002    0.0000 C   0  0  0  0  0  0  0  0  0  0  0  0
    2.5989   -1.5002    0.0000 C   0  0  0  0  0  0  0  0  0  0  0  0
   -0.0000   -3.0000    0.0000 O   0  0  0  0  0  0  0  0  0  0  0  0
 10  1  1  0
 10  8  2  0
 10  9  1  0
 11  8  1  0
 12  9  2  0
 13 11  2  0
 13 12  1  0
 14  2  1  0
 14  3  1  0
 14  4  1  0
 14 11  1  0
 15  5  1  0
 15  6  1  0
 15  7  1  0
 15 12  1  0
 16 13  1  0
M  END
>  <NAME>  (1710) 
2,6-DI-TERT-BUTYL-4-METHYLPHENOL

>  <SYNONYMS>  (1710) 
2,6-DI-TERT-BUTYL-4-CRESOL

>  <SPECTRUM TYPE>  (1710) 
MS1

>  <INSTRUMENT TYPE>  (1710) 
EI-B

>  <INSTRUMENT>  (1710) 
HITACHI M-80

>  <ION MODE>  (1710) 
P

>  <INCHIKEY>  (1710) 
NLZUEZXRPGMBCV-UHFFFAOYSA-N

>  <FORMULA>  (1710) 
C15H24O

>  <EXACT MASS>  (1710) 
220.182715388

>  <MW>  (1710) 
220

>  <ID>  (1710) 
JP009490

>  <CONTRIBUTOR>  (1710) 
University of Tokyo Team, {Faculty of Engineering, University of Tokyo

>  <COMMENT>  (1710) 
SMILES=Cc(c1)cc(C(C)(C)C)c(O)c1C(C)(C)C
cas=128-37-0
InChI=InChI=1S/C15H24O/c1-10-8-11(14(2,3)4)13(16)12(9-10)15(5,6)7/h8-9,16H,1-7H3
computed SMILES=OC=1C(=CC(=CC1C(C)(C)C)C)C(C)(C)C
accession=JP009490
date=2016.01.19 (Created 2008.10.21, modified 2011.05.06)
author=NARA WOMEN'S UNIVERSITY
license=CC BY-NC-SA
exact mass=220.18272
ionization energy=70 eV
ion type=[M]+*
computed spectral entropy=2.4909246279885586
computed normalized entropy=0.6752523792043715
SPLASH=splash10-0a4i-3490000000-ddeff8b438c2941c327e
submitter=submitter = University of Tokyo Team (Faculty of Engineering, University of Tokyo)
MoNA Rating=3.75

>  <NUM PEAKS>  (1710) 
40

>  <MASS SPECTRAL PEAKS>  (1710) 
29 3.28
39 1.38
41 5.31
43 1.16
55 2.89
57 12.64
67 1.54
77 1.76
79 1.23
81 2.47
91 3.84
95 1.8
105 5.16
115 2.67
116 1.19
117 1.43
119 2.87
121 2.35
128 2.18
129 2.38
130 1.38
131 2.76
133 2.36
135 1.3
141 1.56
142 1.28
145 8.24
146 1.25
147 1.33
149 1.52
157 1.12
159 1.32
161 3.1
163 1.73
175 1.07
177 5.5
189 4.25
205 99.99
206 15.57
207 1.37

>  <PREDICTED SPECTRUM>  (1710) 
1 9
14 4
15 64
16 8
18 8
26 17
27 146
28 53
29 188
30 20
31 12
33 13
34 19
36 19
37 6
38 19
39 244
40 94
41 504
42 86
43 281
44 120
45 84
46 2
47 31
49 13
50 58
51 189
52 106
53 224
54 57
55 271
56 60
57 601
58 160
59 94
60 15
61 9
62 43
63 140
64 92
65 223
66 107
67 188
68 47
69 166
70 91
71 104
72 32
73 68
74 47
75 90
76 55
77 323
78 167
79 264
80 109
81 129
82 69
83 95
84 28
85 84
86 82
87 96
88 42
89 121
90 23
91 377
92 132
93 191
94 75
95 99
96 82
97 70
98 19
99 47
101 5
102 99
103 166
104 76
105 395
106 117
107 184
108 97
109 109
110 71
111 46
112 25
113 23
115 291
116 140
117 157
118 57
119 234
120 52
121 203
122 87
123 69
124 15
125 32
126 45
127 241
128 311
129 258
130 129
131 212
132 86
133 185
134 83
135 116
136 44
137 83
139 58
141 155
142 160
143 153
144 121
145 187
146 116
147 195
148 74
149 279
150 52
151 21
152 22
154 8
155 123
156 55
157 69
158 78
159 149
160 79
161 206
162 113
163 184
164 84
165 94
166 7
171 35
172 62
173 124
174 59
175 193
176 109
177 311
178 140
179 18
189 191
190 98
191 67
203 110
204 0
205 999
206 385
207 125
208 35
218 32
219 11
220 592
221 220
222 70

$$$$

     RDKit          2D

  6  5  0  0  0  0  0  0  0  0999 V2000
   -0.0000   -0.0000    0.0000 C   0  0  0  0  0  0  0  0  0  0  0  0
   -1.2990    3.7500    0.0000 C   0  0  0  0  0  0  0  0  0  0  0  0
   -2.5981    1.5000    0.0000 C   0  0  0  0  0  0  0  0  0  0  0  0
   -0.0000    1.5000    0.0000 C   0  0  0  0  0  0  0  0  0  0  0  0
   -1.2990    2.2500    0.0000 N   0  0  0  0  0  0  0  0  0  0  0  0
    1.2990    2.2500    0.0000 O   0  0  0  0  0  0  0  0  0  0  0  0
  4  1  1  0
  5  2  1  0
  5  3  1  0
  5  4  1  0
  6  4  2  0
M  END
>  <NAME>  (1711) 
N,N-DIMETHYLACETAMIDE

>  <SYNONYMS>  (1711) 


>  <SPECTRUM TYPE>  (1711) 
MS1

>  <INSTRUMENT TYPE>  (1711) 
EI-B

>  <INSTRUMENT>  (1711) 
HITACHI M-80

>  <ION MODE>  (1711) 
P

>  <INCHIKEY>  (1711) 
FXHOOIRPVKKKFG-UHFFFAOYSA-N

>  <FORMULA>  (1711) 
C4H9NO

>  <EXACT MASS>  (1711) 
87.068413908

>  <MW>  (1711) 
87

>  <ID>  (1711) 
JP009488

>  <CONTRIBUTOR>  (1711) 
University of Tokyo Team, {Faculty of Engineering, University of Tokyo

>  <COMMENT>  (1711) 
SMILES=CN(C)C(C)=O
cas=127-19-5
InChI=InChI=1S/C4H9NO/c1-4(6)5(2)3/h1-3H3
computed SMILES=O=C(N(C)C)C
accession=JP009488
license=CC BY-NC-SA
date=2016.01.19 (Created 2008.10.21, modified 2011.05.06)
author=NARA WOMEN'S UNIVERSITY
exact mass=87.06841
ionization energy=70 eV
ion type=[M]+*
computed spectral entropy=2.2632240350713486
computed normalized entropy=0.7554827429176005
SPLASH=splash10-0006-9000000000-5e3281b4f8650eae12d9
submitter=submitter = University of Tokyo Team (Faculty of Engineering, University of Tokyo)
MoNA Rating=3.75

>  <NUM PEAKS>  (1711) 
20

>  <MASS SPECTRAL PEAKS>  (1711) 
14 2.91
15 20.98
18 3.9
27 2.05
28 8.06
29 1.63
30 9.84
31 1.77
40 2.46
41 4.13
42 29.44
43 46.3
44 99.99
45 22.05
46 1.08
56 2.02
58 1.7
72 19.44
87 70.49
88 16.04

>  <PREDICTED SPECTRUM>  (1711) 
14 67
15 208
16 35
17 13
18 62
25 16
26 94
27 256
28 217
29 162
30 379
31 76
32 28
37 0
38 75
39 210
40 185
41 177
42 664
43 804
44 664
45 480
46 220
52 36
54 96
55 23
56 167
57 38
58 84
59 189
60 17
68 42
70 107
71 41
72 999
73 189
86 189
87 620
88 169

$$$$

     RDKit          2D

 10 10  0  0  0  0  0  0  0  0999 V2000
   -3.5794    0.1813    0.0000 C   0  0  0  0  0  0  0  0  0  0  0  0
    4.2153    0.1861    0.0000 C   0  0  0  0  0  0  0  0  0  0  0  0
   -2.2816    0.9335    0.0000 C   0  0  0  0  0  0  0  0  0  0  0  0
    2.9164    0.9363    0.0000 C   0  0  0  0  0  0  0  0  0  0  0  0
    0.3223   -2.0565    0.0000 C   0  0  0  0  0  0  0  0  0  0  0  0
   -0.9768   -1.3065    0.0000 C   0  0  0  0  0  0  0  0  0  0  0  0
    1.6168   -1.3143    0.0000 C   0  0  0  0  0  0  0  0  0  0  0  0
    0.3182    0.9365    0.0000 C   0  0  0  0  0  0  0  0  0  0  0  0
   -0.9813    0.1857    0.0000 C   0  0  0  0  0  0  0  0  0  0  0  0
    1.6173    0.1865    0.0000 C   0  0  0  0  0  0  0  0  0  0  0  0
  3  1  1  0
  4  2  1  0
  6  5  2  0
  7  5  1  0
  9  3  1  0
  9  6  1  0
  9  8  2  0
 10  4  1  0
 10  7  2  0
 10  8  1  0
M  END
>  <NAME>  (1712) 
1,3-DIETHYLBENZENE

>  <SYNONYMS>  (1712) 


>  <SPECTRUM TYPE>  (1712) 
MS1

>  <INSTRUMENT TYPE>  (1712) 
EI-B

>  <INSTRUMENT>  (1712) 
HITACHI M-80

>  <ION MODE>  (1712) 
P

>  <INCHIKEY>  (1712) 
AFZZYIJIWUTJFO-UHFFFAOYSA-N

>  <FORMULA>  (1712) 
C10H14

>  <EXACT MASS>  (1712) 
134.109550448

>  <MW>  (1712) 
134

>  <ID>  (1712) 
JP009487

>  <CONTRIBUTOR>  (1712) 
University of Tokyo Team, {Faculty of Engineering, University of Tokyo

>  <COMMENT>  (1712) 
SMILES=CCc(c1)cc(CC)cc1
cas=141-93-5
InChI=InChI=1S/C10H14/c1-3-9-6-5-7-10(4-2)8-9/h5-8H,3-4H2,1-2H3
computed SMILES=C=1C=C(C=C(C1)CC)CC
accession=JP009487
date=2016.01.19 (Created 2008.10.21, modified 2011.05.06)
author=NARA WOMEN'S UNIVERSITY
license=CC BY-NC-SA
exact mass=134.10955
ionization energy=70 eV
ion type=[M]+*
computed spectral entropy=2.802107002683309
computed normalized entropy=0.7545584015473547
SPLASH=splash10-067i-3900000000-09b6243b09a923315a46
submitter=submitter = University of Tokyo Team (Faculty of Engineering, University of Tokyo)
MoNA Rating=3.75

>  <NUM PEAKS>  (1712) 
41

>  <MASS SPECTRAL PEAKS>  (1712) 
15 3.39
26 1.2
27 7.04
28 2.01
29 4.73
31 6.49
39 6.83
41 4.8
45 3.09
46 1.34
50 1.77
51 5.82
52 1.74
53 1.97
57 1.03
63 3.97
64 1.15
65 6.32
77 13.78
78 6.04
79 9.05
89 3
91 28.36
92 2.65
93 2.73
102 2.44
103 10.85
104 7.74
105 99.99
106 9.76
107 1.13
115 10.24
116 3.09
117 15.55
118 3.28
119 87.39
120 8.92
128 1.14
133 2.05
134 58.83
135 7.34

>  <PREDICTED SPECTRUM>  (1712) 
14 27
15 90
18 10
25 2
26 84
27 317
28 156
29 210
32 3
36 4
37 52
38 121
39 369
40 105
41 292
42 20
50 182
51 306
52 187
53 228
54 10
55 59
56 49
57 44
58 60
61 48
62 114
63 201
64 157
65 241
66 71
67 109
70 22
71 9
72 18
74 104
75 130
76 123
77 444
78 278
79 404
80 96
81 17
82 9
86 25
87 36
89 193
90 77
91 491
92 142
93 71
101 22
102 131
103 289
104 294
105 663
106 244
107 42
115 249
116 151
117 229
118 125
119 999
120 296
121 16
128 116
131 77
132 67
133 92
134 630
135 219
136 7

$$$$

     RDKit          2D

  9  9  0  0  0  0  0  0  0  0999 V2000
    2.9228   -0.2425    0.0000 C   0  0  0  0  0  0  0  0  0  0  0  0
    2.9233    1.2583    0.0000 C   0  0  0  0  0  0  0  0  0  0  0  0
    1.6233   -0.9933    0.0000 C   0  0  0  0  0  0  0  0  0  0  0  0
    1.6243    2.0083    0.0000 C   0  0  0  0  0  0  0  0  0  0  0  0
    0.3243   -0.2433    0.0000 C   0  0  0  0  0  0  0  0  0  0  0  0
   -0.9743    2.0075    0.0000 C   0  0  0  0  0  0  0  0  0  0  0  0
   -2.2733    1.2575    0.0000 C   0  0  0  0  0  0  0  0  0  0  0  0
    0.3248    1.2575    0.0000 C   0  0  0  0  0  0  0  0  0  0  0  0
   -3.5724    2.0075    0.0000 Br  0  0  0  0  0  0  0  0  0  0  0  0
  2  1  2  0
  3  1  1  0
  4  2  1  0
  5  3  2  0
  7  6  1  0
  8  4  2  0
  8  5  1  0
  8  6  1  0
  9  7  1  0
M  END
>  <NAME>  (1713) 
(2-BROMOETHYL)BENZENE

>  <SYNONYMS>  (1713) 
PHENYL BROMIDE

>  <SPECTRUM TYPE>  (1713) 
MS1

>  <INSTRUMENT TYPE>  (1713) 
EI-B

>  <INSTRUMENT>  (1713) 
HITACHI M-80

>  <ION MODE>  (1713) 
P

>  <INCHIKEY>  (1713) 
WMPPDTMATNBGJN-UHFFFAOYSA-N

>  <FORMULA>  (1713) 
C8H9Br

>  <EXACT MASS>  (1713) 
183.988762388

>  <MW>  (1713) 
184

>  <ID>  (1713) 
JP009485

>  <CONTRIBUTOR>  (1713) 
University of Tokyo Team, {Faculty of Engineering, University of Tokyo

>  <COMMENT>  (1713) 
computed SMILES=BrCCC=1C=CC=CC1
SMILES=BrCCc(c1)cccc1
cas=103-63-9
InChI=InChI=1S/C8H9Br/c9-7-6-8-4-2-1-3-5-8/h1-5H,6-7H2
accession=JP009485
date=2016.01.19 (Created 2008.10.21, modified 2011.05.06)
author=NARA WOMEN'S UNIVERSITY
license=CC BY-NC-SA
exact mass=183.98876
ionization energy=70 eV
ion type=[M]+*
computed spectral entropy=2.7798169349729616
computed normalized entropy=0.7698366460336786
SPLASH=splash10-052f-9600000000-97fb142a9a5e197ef86d
submitter=submitter = University of Tokyo Team (Faculty of Engineering, University of Tokyo)
MoNA Rating=3.75

>  <NUM PEAKS>  (1713) 
37

>  <MASS SPECTRAL PEAKS>  (1713) 
26 1.5
27 6.6
28 1.03
38 2
39 8.36
50 7.88
51 17
52 4.34
53 1.12
62 2.2
63 6.12
64 1.28
65 8.07
74 3.17
75 2.55
76 3
77 19.79
78 12.19
79 11.43
80 1.16
81 1.29
82 1.16
89 3.01
90 1.05
91 99.99
92 8.2
93 2.72
95 2.49
102 3.25
103 14.61
104 16.05
105 70.58
106 6.22
184 26.92
185 2.51
186 27
187 2.46

>  <PREDICTED SPECTRUM>  (1713) 
27 7
38 28
39 108
50 66
51 211
52 53
63 97
64 42
65 238
77 274
78 123
79 27
91 999
92 245
102 104
103 197
104 271
105 533
106 118
115 88
184 482
185 49
186 530
187 111

$$$$

     RDKit          2D

 15 17  0  0  0  0  0  0  0  0999 V2000
    4.2200   -0.2200    0.0000 C   0  0  0  0  0  0  0  0  0  0  0  0
   -4.2200   -0.2200    0.0000 C   0  0  0  0  0  0  0  0  0  0  0  0
    3.8800    1.2400    0.0000 C   0  0  0  0  0  0  0  0  0  0  0  0
   -3.8800    1.2400    0.0000 C   0  0  0  0  0  0  0  0  0  0  0  0
    3.1200   -1.2400    0.0000 C   0  0  0  0  0  0  0  0  0  0  0  0
   -3.1200   -1.2400    0.0000 C   0  0  0  0  0  0  0  0  0  0  0  0
    2.4500    1.6800    0.0000 C   0  0  0  0  0  0  0  0  0  0  0  0
   -2.4500    1.6800    0.0000 C   0  0  0  0  0  0  0  0  0  0  0  0
    0.7500   -1.9700    0.0000 C   0  0  0  0  0  0  0  0  0  0  0  0
   -0.7500   -1.9700    0.0000 C   0  0  0  0  0  0  0  0  0  0  0  0
    0.0000    1.3100    0.0000 C   0  0  0  0  0  0  0  0  0  0  0  0
    1.6900   -0.8000    0.0000 C   0  0  0  0  0  0  0  0  0  0  0  0
   -1.6900   -0.8000    0.0000 C   0  0  0  0  0  0  0  0  0  0  0  0
    1.3500    0.6600    0.0000 C   0  0  0  0  0  0  0  0  0  0  0  0
   -1.3500    0.6600    0.0000 C   0  0  0  0  0  0  0  0  0  0  0  0
  3  1  2  0
  4  2  2  0
  5  1  1  0
  6  2  1  0
  7  3  1  0
  8  4  1  0
 10  9  1  0
 12  5  2  0
 12  9  1  0
 13  6  2  0
 13 10  1  0
 14  7  2  0
 14 11  1  0
 14 12  1  0
 15  8  2  0
 15 11  1  0
 15 13  1  0
M  END
>  <NAME>  (1714) 
DIBENZOSUBERANE

>  <SYNONYMS>  (1714) 
10,11-DIHYDRO-5H-DIBENZO(A,D)CYCLOHEPTENE

>  <SPECTRUM TYPE>  (1714) 
MS1

>  <INSTRUMENT TYPE>  (1714) 
EI-B

>  <INSTRUMENT>  (1714) 
HITACHI M-80

>  <ION MODE>  (1714) 
P

>  <INCHIKEY>  (1714) 
PJQCANLCUDUPRF-UHFFFAOYSA-N

>  <FORMULA>  (1714) 
C15H14

>  <EXACT MASS>  (1714) 
194.109550448

>  <MW>  (1714) 
194

>  <ID>  (1714) 
JP009484

>  <CONTRIBUTOR>  (1714) 
University of Tokyo Team, {Faculty of Engineering, University of Tokyo

>  <COMMENT>  (1714) 
SMILES=c(c3)cc(C1)c(c3)Cc(c2)c(ccc2)C1
cas=833-48-7
InChI=InChI=1S/C15H14/c1-3-7-14-11-15-8-4-2-6-13(15)10-9-12(14)5-1/h1-8H,9-11H2
computed SMILES=C=1C=CC2=C(C1)CC=3C=CC=CC3CC2
accession=JP009484
date=2016.01.19 (Created 2008.10.21, modified 2011.05.06)
author=NARA WOMEN'S UNIVERSITY
license=CC BY-NC-SA
exact mass=194.10955
ionization energy=70 eV
ion type=[M]+*
computed spectral entropy=3.2315184377046506
computed normalized entropy=0.786090389653564
SPLASH=splash10-002f-1900000000-0f7b60ace7319624a78a
submitter=submitter = University of Tokyo Team (Faculty of Engineering, University of Tokyo)
MoNA Rating=3.75

>  <NUM PEAKS>  (1714) 
61

>  <MASS SPECTRAL PEAKS>  (1714) 
18 2.55
27 3.8
39 5.91
50 2.16
51 4.99
52 1.42
62 1.65
63 6.23
64 1.19
65 3.08
74 1.45
75 1.91
76 3.33
77 4.76
78 3.72
82 1.79
83 3.49
87 1.45
88 1.7
89 11.46
90 2.4
91 6
95 2.1
96 4.4
97 1.28
102 2.13
103 2.75
115 24.34
116 22.08
117 7.18
121 1.08
126 1.42
127 1.8
128 5.77
129 1.06
139 3.84
141 1.94
150 1.46
151 3.05
152 8.86
153 3.05
163 3
164 2.44
165 19.96
166 6.36
167 1.94
176 4.28
177 4.12
178 43.43
179 57.19
180 9.13
187 1.1
188 1
189 9.03
190 3.66
191 9.62
192 6.18
193 52.84
194 99.99
195 15.94
196 1.2

>  <PREDICTED SPECTRUM>  (1714) 
26 56
27 137
28 50
29 28
30 47
31 7
37 40
38 110
39 318
40 80
41 68
43 19
44 62
49 29
50 216
51 328
52 199
53 107
54 7
57 11
61 38
62 157
63 293
64 159
65 258
66 49
74 126
75 175
76 253
77 320
78 235
79 124
80 21
81 7
82 113
83 88
86 128
87 171
88 173
89 307
90 130
91 357
92 192
93 6
94 21
95 150
96 151
97 60
98 26
99 105
100 156
101 247
102 234
103 248
104 267
106 16
108 24
111 85
112 49
113 188
114 120
115 531
116 383
117 275
118 66
123 6
126 105
127 132
128 198
129 12
137 51
138 15
139 211
141 29
149 16
150 125
151 223
152 306
153 184
154 49
162 28
163 170
164 120
165 355
166 187
167 133
168 20
173 13
174 57
175 84
176 282
177 278
178 662
179 901
180 403
181 105
188 126
189 420
190 268
191 337
192 324
193 600
194 999
195 447
196 133

$$$$

     RDKit          2D

 11 11  0  0  0  0  0  0  0  0999 V2000
   -3.2538    2.6270    0.0000 C   0  0  0  0  0  0  0  0  0  0  0  0
   -0.6484    4.1141    0.0000 C   0  0  0  0  0  0  0  0  0  0  0  0
   -1.9585    1.8706    0.0000 C   0  0  0  0  0  0  0  0  0  0  0  0
    1.9386    2.6078    0.0000 C   0  0  0  0  0  0  0  0  0  0  0  0
    0.6251    0.3829    0.0000 C   0  0  0  0  0  0  0  0  0  0  0  0
    3.2231    1.8829    0.0000 C   0  0  0  0  0  0  0  0  0  0  0  0
    1.9496   -0.4112    0.0000 C   0  0  0  0  0  0  0  0  0  0  0  0
   -0.6558    2.6142    0.0000 C   0  0  0  0  0  0  0  0  0  0  0  0
    0.6396    1.8578    0.0000 C   0  0  0  0  0  0  0  0  0  0  0  0
    3.2486    0.3388    0.0000 C   0  0  0  0  0  0  0  0  0  0  0  0
    4.5538   -0.4005    0.0000 O   0  0  0  0  0  0  0  0  0  0  0  0
  3  1  1  0
  6  4  2  0
  7  5  1  0
  8  2  1  0
  8  3  1  0
  9  4  1  0
  9  5  2  0
  9  8  1  0
 10  6  1  0
 10  7  2  0
 11 10  1  0
M  END
>  <NAME>  (1715) 
4-SEC-BUTYLPHENOL

>  <SYNONYMS>  (1715) 


>  <SPECTRUM TYPE>  (1715) 
MS1

>  <INSTRUMENT TYPE>  (1715) 
EI-B

>  <INSTRUMENT>  (1715) 
HITACHI M-80

>  <ION MODE>  (1715) 
P

>  <INCHIKEY>  (1715) 
ZUTYZAFDFLLILI-UHFFFAOYSA-N

>  <FORMULA>  (1715) 
C10H14O

>  <EXACT MASS>  (1715) 
150.104465068

>  <MW>  (1715) 
150

>  <ID>  (1715) 
JP009483

>  <CONTRIBUTOR>  (1715) 
University of Tokyo Team, {Faculty of Engineering, University of Tokyo

>  <COMMENT>  (1715) 
SMILES=CCC(C)c(c1)ccc(O)c1
cas=99-71-8
InChI=InChI=1S/C10H14O/c1-3-8(2)9-4-6-10(11)7-5-9/h4-8,11H,3H2,1-2H3
computed SMILES=OC1=CC=C(C=C1)C(C)CC
accession=JP009483
date=2016.01.19 (Created 2008.10.21, modified 2011.05.06)
author=NARA WOMEN'S UNIVERSITY
license=CC BY-NC-SA
exact mass=150.10447
ionization energy=70 eV
ion type=[M]+*
computed spectral entropy=2.5344963360417463
computed normalized entropy=0.718728649084348
SPLASH=splash10-00di-4900000000-10a3c41667e51f5a9cdb
submitter=submitter = University of Tokyo Team (Faculty of Engineering, University of Tokyo)
MoNA Rating=3.75

>  <NUM PEAKS>  (1715) 
34

>  <MASS SPECTRAL PEAKS>  (1715) 
15 1.04
26 1.01
27 7.31
28 1.76
29 5.73
39 6.43
41 3.17
50 1.12
51 3.11
52 1.05
53 2.14
55 2.28
63 2.49
65 5.84
66 1.68
77 13.67
78 2.3
79 1.62
89 1.11
91 11.67
92 2
93 4.26
95 1.06
103 8.66
105 1.06
107 12.42
108 1.18
119 2.06
120 4.97
121 99.99
122 9.02
135 3.77
150 19.65
151 2.16

>  <PREDICTED SPECTRUM>  (1715) 
9 3
15 8
18 32
26 56
27 237
28 90
29 191
38 48
39 290
40 64
41 192
42 15
43 117
44 1
50 74
51 196
52 111
53 191
54 1
55 204
57 69
62 64
63 157
64 90
65 382
66 152
67 79
75 12
76 3
77 390
78 188
79 259
80 3
81 20
89 62
90 0
91 340
92 132
93 312
94 127
95 121
102 143
103 275
104 11
105 205
106 124
107 316
108 22
115 168
116 56
119 109
120 57
121 999
122 388
123 88
133 112
135 135
136 18
149 2
150 587
151 209
152 43

$$$$

     RDKit          2D

 11 11  0  0  0  0  0  0  0  0999 V2000
    1.5187   -2.9891    0.0000 C   0  0  0  0  0  0  0  0  0  0  0  0
    3.5678   -2.4404    0.0000 C   0  0  0  0  0  0  0  0  0  0  0  0
    3.0191   -0.3913    0.0000 C   0  0  0  0  0  0  0  0  0  0  0  0
   -1.6200   -0.9400    0.0000 C   0  0  0  0  0  0  0  0  0  0  0  0
   -0.3300   -1.6900    0.0000 C   0  0  0  0  0  0  0  0  0  0  0  0
   -1.6200    0.5600    0.0000 C   0  0  0  0  0  0  0  0  0  0  0  0
    0.9700    0.5600    0.0000 C   0  0  0  0  0  0  0  0  0  0  0  0
    0.9700   -0.9400    0.0000 C   0  0  0  0  0  0  0  0  0  0  0  0
   -0.3300    1.3100    0.0000 C   0  0  0  0  0  0  0  0  0  0  0  0
    2.2689   -1.6902    0.0000 C   0  0  0  0  0  0  0  0  0  0  0  0
   -0.3325    2.8100    0.0000 O   0  0  0  0  0  0  0  0  0  0  0  0
  5  4  2  0
  6  4  1  0
  8  5  1  0
  8  7  2  0
  9  6  2  0
  9  7  1  0
 10  1  1  0
 10  2  1  0
 10  3  1  0
 10  8  1  0
 11  9  1  0
M  END
>  <NAME>  (1716) 
3-TERT-BUTYLPHENOL

>  <SYNONYMS>  (1716) 


>  <SPECTRUM TYPE>  (1716) 
MS1

>  <INSTRUMENT TYPE>  (1716) 
EI-B

>  <INSTRUMENT>  (1716) 
HITACHI M-80

>  <ION MODE>  (1716) 
P

>  <INCHIKEY>  (1716) 
CYEKUDPFXBLGHH-UHFFFAOYSA-N

>  <FORMULA>  (1716) 
C10H14O

>  <EXACT MASS>  (1716) 
150.104465068

>  <MW>  (1716) 
150

>  <ID>  (1716) 
JP009482

>  <CONTRIBUTOR>  (1716) 
University of Tokyo Team, {Faculty of Engineering, University of Tokyo

>  <COMMENT>  (1716) 
SMILES=Oc(c1)cc(cc1)C(C)(C)C
cas=585-34-2
InChI=InChI=1S/C10H14O/c1-10(2,3)8-5-4-6-9(11)7-8/h4-7,11H,1-3H3
computed SMILES=OC1=CC=CC(=C1)C(C)(C)C
accession=JP009482
date=2016.01.19 (Created 2008.10.21, modified 2011.05.06)
author=NARA WOMEN'S UNIVERSITY
license=CC BY-NC-SA
exact mass=150.10447
ionization energy=70 eV
ion type=[M]+*
computed spectral entropy=2.822158320385376
computed normalized entropy=0.7290136348986722
SPLASH=splash10-052r-3900000000-682da625802e236e6895
submitter=submitter = University of Tokyo Team (Faculty of Engineering, University of Tokyo)
MoNA Rating=3.75

>  <NUM PEAKS>  (1716) 
48

>  <MASS SPECTRAL PEAKS>  (1716) 
15 3.11
27 5.2
28 2.76
29 2.96
38 1.01
39 10.52
40 1.38
41 8.52
43 1.51
50 1.62
51 4.96
52 1.91
53 3.01
55 1.91
57 2.01
63 4.12
64 1.39
65 7.49
66 2.45
75 1.3
77 12.7
78 3.68
79 6.5
89 2.98
90 1.52
91 21.3
92 2.5
94 2.17
95 4.61
102 1.17
103 2.04
105 3.24
107 88.94
108 10.36
109 1.32
115 13.9
116 3.51
117 1.72
119 2.67
120 1.06
121 2.43
122 2.09
133 1.7
134 1.64
135 99.99
136 10.41
150 43.3
151 4.9

>  <PREDICTED SPECTRUM>  (1716) 
15 51
27 80
28 0
29 87
33 13
34 0
37 19
38 74
39 236
40 92
41 230
42 41
43 60
50 119
51 189
52 123
53 160
54 36
55 73
56 30
57 219
58 82
59 65
60 4
61 35
62 63
63 151
64 110
65 207
66 115
67 122
68 27
69 30
70 46
71 2
72 3
73 43
74 68
75 100
76 60
77 260
78 153
79 212
80 80
81 54
86 0
87 33
88 1
89 134
90 45
91 252
92 123
93 166
94 107
95 148
96 51
102 106
103 136
104 52
105 174
106 57
107 400
108 157
109 83
115 167
116 82
117 134
118 46
119 213
120 136
121 79
131 67
132 10
133 136
134 56
135 999
136 303
137 59
147 16
149 50
150 479
151 154
152 8

$$$$

     RDKit          2D

  5  5  0  0  0  0  0  0  0  0999 V2000
   -1.2995    1.0295    0.0000 C   0  0  0  0  0  0  0  0  0  0  0  0
    1.5005    1.7795    0.0000 C   0  0  0  0  0  0  0  0  0  0  0  0
    0.2005    1.0295    0.0000 C   0  0  0  0  0  0  0  0  0  0  0  0
   -2.0495   -0.2695    0.0000 Br  0  0  0  0  0  0  0  0  0  0  0  0
    1.5005    0.2795    0.0000 O   0  0  0  0  0  0  0  0  0  0  0  0
  3  1  1  0
  3  2  1  0
  4  1  1  0
  5  2  1  0
  5  3  1  0
M  END
>  <NAME>  (1717) 
EPIBROMOHYDRIN

>  <SYNONYMS>  (1717) 
1-BROMO-2,3-EPOXYPROPANE

>  <SPECTRUM TYPE>  (1717) 
MS1

>  <INSTRUMENT TYPE>  (1717) 
EI-B

>  <INSTRUMENT>  (1717) 
HITACHI M-80

>  <ION MODE>  (1717) 
P

>  <INCHIKEY>  (1717) 
GKIPXFAANLTWBM-UHFFFAOYSA-N

>  <FORMULA>  (1717) 
C3H5BrO

>  <EXACT MASS>  (1717) 
135.95237688

>  <MW>  (1717) 
136

>  <ID>  (1717) 
JP009481

>  <CONTRIBUTOR>  (1717) 
University of Tokyo Team, {Faculty of Engineering, University of Tokyo

>  <COMMENT>  (1717) 
SMILES=C(O1)C1CBr
cas=3132-64-7
InChI=InChI=1S/C3H5BrO/c4-1-3-2-5-3/h3H,1-2H2
computed SMILES=BrCC1OC1
accession=JP009481
date=2016.01.19 (Created 2008.10.21, modified 2011.05.06)
author=NARA WOMEN'S UNIVERSITY
license=CC BY-NC-SA
exact mass=135.95238
ionization energy=70 eV
ion type=[M]+*
computed spectral entropy=2.4206283119824796
computed normalized entropy=0.7116988637688312
SPLASH=splash10-0a6r-9000000000-6ba4a0f2a0dd3b99910d
submitter=submitter = University of Tokyo Team (Faculty of Engineering, University of Tokyo)
MoNA Rating=3.75

>  <NUM PEAKS>  (1717) 
30

>  <MASS SPECTRAL PEAKS>  (1717) 
14 3.27
15 4.77
25 1.7
26 13.02
27 47.61
28 7.24
29 35.5
30 3.42
31 29.24
37 1.67
38 2.84
39 6.54
41 1.18
42 3.21
43 3.64
55 1.13
57 99.99
58 3.58
79 4.47
80 1.86
81 4.84
82 1.79
83 5.61
93 5.12
95 1.44
105 2.65
107 1.95
108 2.09
123 1.81
125 1.71

>  <PREDICTED SPECTRUM>  (1717) 
14 193
15 479
16 100
17 60
18 120
19 52
25 105
26 419
27 941
28 665
29 999
30 298
31 562
32 48
36 73
37 118
38 373
39 941
40 252
41 886
42 567
43 926
44 524
45 152
49 61
50 64
52 28
53 0
54 102
56 255
57 876
58 146
64 42
65 149
66 96
77 71
78 23
79 487
80 301
81 359
92 65
93 718
106 133
107 320
108 235
109 251
120 1
121 381
123 263
135 19
136 420
137 140
138 575
139 74

$$$$

     RDKit          2D

 15 17  0  0  0  0  0  0  0  0999 V2000
    3.9000    0.7500    0.0000 C   0  0  0  0  0  0  0  0  0  0  0  0
   -3.9000    0.7500    0.0000 C   0  0  0  0  0  0  0  0  0  0  0  0
    3.9000   -0.7500    0.0000 C   0  0  0  0  0  0  0  0  0  0  0  0
   -3.9000   -0.7500    0.0000 C   0  0  0  0  0  0  0  0  0  0  0  0
    2.6000    1.5000    0.0000 C   0  0  0  0  0  0  0  0  0  0  0  0
   -2.6000    1.5000    0.0000 C   0  0  0  0  0  0  0  0  0  0  0  0
    2.6000   -1.5000    0.0000 C   0  0  0  0  0  0  0  0  0  0  0  0
   -2.6000   -1.5000    0.0000 C   0  0  0  0  0  0  0  0  0  0  0  0
    1.3000    0.7500    0.0000 C   0  0  0  0  0  0  0  0  0  0  0  0
   -1.3000    0.7500    0.0000 C   0  0  0  0  0  0  0  0  0  0  0  0
    1.3000   -0.7500    0.0000 C   0  0  0  0  0  0  0  0  0  0  0  0
   -1.3000   -0.7500    0.0000 C   0  0  0  0  0  0  0  0  0  0  0  0
    0.0000    1.5000    0.0000 C   0  0  0  0  0  0  0  0  0  0  0  0
    0.0000   -1.5000    0.0000 N   0  0  0  0  0  0  0  0  0  0  0  0
    0.0000    3.0000    0.0000 O   0  0  0  0  0  0  0  0  0  0  0  0
  3  1  2  0
  4  2  2  0
  5  1  1  0
  6  2  1  0
  7  3  1  0
  8  4  1  0
  9  5  2  0
 10  6  2  0
 11  7  2  0
 11  9  1  0
 12  8  2  0
 12 10  1  0
 13  9  1  0
 13 10  1  0
 14 11  1  0
 14 12  1  0
 15 13  2  0
M  END
>  <NAME>  (1718) 
9(10H)-ACRIDONE

>  <SYNONYMS>  (1718) 


>  <SPECTRUM TYPE>  (1718) 
MS1

>  <INSTRUMENT TYPE>  (1718) 
EI-B

>  <INSTRUMENT>  (1718) 
HITACHI M-80

>  <ION MODE>  (1718) 
P

>  <INCHIKEY>  (1718) 
FZEYVTFCMJSGMP-UHFFFAOYSA-N

>  <FORMULA>  (1718) 
C13H9NO

>  <EXACT MASS>  (1718) 
195.068413908

>  <MW>  (1718) 
195

>  <ID>  (1718) 
JP009480

>  <CONTRIBUTOR>  (1718) 
University of Tokyo Team, {Faculty of Engineering, University of Tokyo

>  <COMMENT>  (1718) 
SMILES=O=C(c21)c(c3)c(ccc3)Nc(cccc2)1
cas=578-95-0
InChI=InChI=1S/C13H9NO/c15-13-9-5-1-3-7-11(9)14-12-8-4-2-6-10(12)13/h1-8H,(H,14,15)
computed SMILES=O=C1C=2C=CC=CC2NC=3C=CC=CC13
accession=JP009480
date=2016.01.19 (Created 2008.10.21, modified 2011.05.06)
author=NARA WOMEN'S UNIVERSITY
license=CC BY-NC-SA
exact mass=195.06841
ionization energy=70 eV
ion type=[M]+*
computed spectral entropy=2.907558853139548
computed normalized entropy=0.7510741098038861
SPLASH=splash10-00kb-3900000000-cb9f42be169c6b6da934
submitter=submitter = University of Tokyo Team (Faculty of Engineering, University of Tokyo)
MoNA Rating=3.75

>  <NUM PEAKS>  (1718) 
48

>  <MASS SPECTRAL PEAKS>  (1718) 
18 1.84
27 1.18
28 3.58
38 2.02
39 4.03
50 6.16
51 3.6
52 2.08
62 2.84
63 7.24
64 3.85
65 1.79
69 2.03
70 1.21
71 2.27
74 4.02
75 4.38
76 5.23
77 3.56
83 1.61
84 7.88
86 1.21
87 2.31
88 1.84
89 2.45
90 1.78
91 1.14
92 2.27
97 2.16
101 1.05
102 1.45
113 3.92
114 2.37
115 2.89
137 1.13
138 1.97
139 14.78
140 12.62
141 2.01
164 3.16
165 2.22
166 19.1
167 40.8
168 5.58
194 3.3
195 99.99
196 14.98
197 1.14

>  <PREDICTED SPECTRUM>  (1718) 
37 42
38 93
39 174
40 69
41 43
44 39
45 4
49 39
50 178
51 170
52 96
53 0
54 21
57 30
58 83
61 55
62 154
63 247
64 164
65 78
68 5
69 63
70 34
71 14
74 141
75 173
76 212
77 183
78 81
79 11
81 34
82 50
83 96
84 89
85 79
86 97
87 86
88 73
89 66
90 91
91 73
92 74
97 37
98 52
99 44
100 65
101 8
102 44
103 3
104 27
108 3
109 11
110 37
111 77
112 68
113 161
114 168
115 102
116 8
119 25
126 39
127 30
128 11
137 42
138 153
139 336
140 262
141 86
142 37
163 34
164 159
165 283
166 370
167 366
168 129
169 46
193 80
194 373
195 999
196 403
197 102

$$$$

     RDKit          2D

 14 15  0  0  0  0  0  0  0  0999 V2000
    1.2986    4.8200    0.0000 C   0  0  0  0  0  0  0  0  0  0  0  0
   -2.5986    1.0700    0.0000 C   0  0  0  0  0  0  0  0  0  0  0  0
    5.1957    1.0700    0.0000 C   0  0  0  0  0  0  0  0  0  0  0  0
   -2.5990    2.5708    0.0000 C   0  0  0  0  0  0  0  0  0  0  0  0
   -1.2990    0.3192    0.0000 C   0  0  0  0  0  0  0  0  0  0  0  0
    3.8962    0.3192    0.0000 C   0  0  0  0  0  0  0  0  0  0  0  0
    5.1962    2.5708    0.0000 C   0  0  0  0  0  0  0  0  0  0  0  0
   -1.3000    3.3208    0.0000 C   0  0  0  0  0  0  0  0  0  0  0  0
    0.0000    1.0692    0.0000 C   0  0  0  0  0  0  0  0  0  0  0  0
    2.5971    1.0692    0.0000 C   0  0  0  0  0  0  0  0  0  0  0  0
    3.8971    3.3208    0.0000 C   0  0  0  0  0  0  0  0  0  0  0  0
   -0.0005    2.5700    0.0000 C   0  0  0  0  0  0  0  0  0  0  0  0
    2.5976    2.5700    0.0000 C   0  0  0  0  0  0  0  0  0  0  0  0
    1.2986    3.3200    0.0000 N   0  0  0  0  0  0  0  0  0  0  0  0
  4  2  2  0
  5  2  1  0
  6  3  2  0
  7  3  1  0
  8  4  1  0
  9  5  2  0
 10  6  1  0
 11  7  2  0
 12  8  2  0
 12  9  1  0
 13 10  2  0
 13 11  1  0
 14  1  1  0
 14 12  1  0
 14 13  1  0
M  END
>  <NAME>  (1719) 
N-METHYLDIPHENYLAMINE

>  <SYNONYMS>  (1719) 


>  <SPECTRUM TYPE>  (1719) 
MS1

>  <INSTRUMENT TYPE>  (1719) 
EI-B

>  <INSTRUMENT>  (1719) 
HITACHI M-80

>  <ION MODE>  (1719) 
P

>  <INCHIKEY>  (1719) 
DYFFAVRFJWYYQO-UHFFFAOYSA-N

>  <FORMULA>  (1719) 
C13H13N

>  <EXACT MASS>  (1719) 
183.104799416

>  <MW>  (1719) 
183

>  <ID>  (1719) 
JP009479

>  <CONTRIBUTOR>  (1719) 
University of Tokyo Team, {Faculty of Engineering, University of Tokyo

>  <COMMENT>  (1719) 
SMILES=c(c2)ccc(c2)N(C)c(c1)cccc1
cas=552-82-9
InChI=InChI=1S/C13H13N/c1-14(12-8-4-2-5-9-12)13-10-6-3-7-11-13/h2-11H,1H3
computed SMILES=C=1C=CC(=CC1)N(C=2C=CC=CC2)C
accession=JP009479
date=2016.01.19 (Created 2008.10.21, modified 2011.05.06)
author=NARA WOMEN'S UNIVERSITY
license=CC BY-NC-SA
exact mass=183.1048
ionization energy=70 eV
ion type=[M]+*
computed spectral entropy=2.982532131981301
computed normalized entropy=0.7624014807282253
SPLASH=splash10-001i-4900000000-9e9282984f5929922fc5
submitter=submitter = University of Tokyo Team (Faculty of Engineering, University of Tokyo)
MoNA Rating=3.75

>  <NUM PEAKS>  (1719) 
50

>  <MASS SPECTRAL PEAKS>  (1719) 
15 2.91
26 1.55
27 5.18
28 2.53
29 3.25
30 1.08
31 14.76
39 5.43
43 1.44
45 6.17
46 2.81
50 3.08
51 14.21
52 2.04
63 3.15
64 1.94
65 3.38
74 1.11
75 1.23
76 1.81
77 29.78
78 4.21
79 1.7
84 3.08
89 1.37
90 1.94
91 6.52
104 13.99
105 2.11
106 1.59
115 3.73
116 1.03
128 1.36
139 2.59
140 2.49
141 2.74
142 4.01
152 1.9
153 1.66
154 2.16
166 5.45
167 23.62
168 8.83
169 3.22
180 4.37
181 4.16
182 54.19
183 99.99
184 14.16
185 1

>  <PREDICTED SPECTRUM>  (1719) 
15 33
17 5
18 8
26 42
27 126
28 68
29 63
30 8
32 3
33 8
37 31
38 101
39 236
40 88
41 113
42 114
43 46
44 41
49 1
50 190
51 414
52 169
53 99
54 52
55 61
56 2
57 10
61 27
62 104
63 188
64 150
65 214
66 126
67 27
68 0
69 39
70 20
73 10
74 95
75 131
76 138
77 586
78 242
79 188
80 73
81 39
82 30
84 31
85 3
86 50
87 42
88 30
89 144
90 133
91 168
92 85
93 20
97 33
99 33
100 9
101 8
102 52
103 85
104 297
105 133
106 161
107 55
108 15
111 30
112 7
113 40
114 81
115 161
116 37
117 34
118 5
119 25
122 6
125 3
126 36
127 85
128 163
129 60
130 15
138 28
139 131
140 169
141 137
142 108
143 34
150 12
151 95
152 132
153 100
154 152
155 58
156 47
164 6
165 96
166 276
167 484
168 426
169 228
170 40
180 218
181 140
182 520
183 999
184 403
185 111

$$$$

     RDKit          2D

  7  6  0  0  0  0  0  0  0  0999 V2000
    1.2990    2.2500    0.0000 C   0  0  0  0  0  0  0  0  0  0  0  0
   -3.8971    2.2500    0.0000 C   0  0  0  0  0  0  0  0  0  0  0  0
    0.0000    3.0000    0.0000 C   0  0  0  0  0  0  0  0  0  0  0  0
   -2.5981    3.0000    0.0000 C   0  0  0  0  0  0  0  0  0  0  0  0
   -1.2990    0.7500    0.0000 C   0  0  0  0  0  0  0  0  0  0  0  0
   -1.2990    2.2500    0.0000 N   0  0  0  0  0  0  0  0  0  0  0  0
   -0.0000    0.0000    0.0000 O   0  0  0  0  0  0  0  0  0  0  0  0
  3  1  1  0
  4  2  1  0
  6  3  1  0
  6  4  1  0
  6  5  1  0
  7  5  2  0
M  END
>  <NAME>  (1720) 
N,N-DIETHYLFORMAMIDE

>  <SYNONYMS>  (1720) 


>  <SPECTRUM TYPE>  (1720) 
MS1

>  <INSTRUMENT TYPE>  (1720) 
EI-B

>  <INSTRUMENT>  (1720) 
HITACHI M-80

>  <ION MODE>  (1720) 
P

>  <INCHIKEY>  (1720) 
SUAKHGWARZSWIH-UHFFFAOYSA-N

>  <FORMULA>  (1720) 
C5H11NO

>  <EXACT MASS>  (1720) 
101.084063972

>  <MW>  (1720) 
101

>  <ID>  (1720) 
JP009478

>  <CONTRIBUTOR>  (1720) 
University of Tokyo Team, {Faculty of Engineering, University of Tokyo

>  <COMMENT>  (1720) 
SMILES=CCN(CC)C=O
cas=617-84-5
InChI=InChI=1S/C5H11NO/c1-3-6(4-2)5-7/h5H,3-4H2,1-2H3
computed SMILES=O=CN(CC)CC
accession=JP009478
date=2016.01.19 (Created 2008.10.21, modified 2011.05.06)
author=NARA WOMEN'S UNIVERSITY
license=CC BY-NC-SA
exact mass=101.08406
ionization energy=70 eV
ion type=[M]+*
computed spectral entropy=2.6823043556705506
computed normalized entropy=0.7606438244037782
SPLASH=splash10-0zir-9200000000-b3af7374f9d7ee8e5000
submitter=submitter = University of Tokyo Team (Faculty of Engineering, University of Tokyo)
MoNA Rating=3.75

>  <NUM PEAKS>  (1720) 
34

>  <MASS SPECTRAL PEAKS>  (1720) 
14 1.02
15 9.38
17 1.46
18 12.63
26 5.44
27 29.68
28 30.43
29 35.77
30 85.2
31 1.44
39 1.25
40 2.78
41 6.51
42 17.46
43 3.44
44 45.32
45 2.26
46 2.3
52 1.09
54 1.64
56 7.09
57 1.35
58 99.99
59 3.76
70 1.83
72 18.18
73 4.66
79 1.06
86 38.75
87 1.83
100 1.9
101 91.45
102 19.88
103 1.2

>  <PREDICTED SPECTRUM>  (1720) 
14 80
15 234
16 16
17 27
18 74
25 40
26 257
27 721
28 607
29 968
30 694
31 109
32 56
37 3
38 108
39 130
40 269
41 400
42 671
43 594
44 829
45 359
46 130
52 105
53 145
54 300
55 337
56 714
57 578
58 405
70 23
71 285
72 995
73 369
74 81
82 62
84 90
86 806
87 95
100 242
101 999
102 279
103 73

$$$$

     RDKit          2D

  7  7  0  0  0  0  0  0  0  0999 V2000
   -0.0000    1.5000    0.0000 C   0  0  0  0  0  0  0  0  0  0  0  0
   -1.3000    0.7500    0.0000 C   0  0  0  0  0  0  0  0  0  0  0  0
    1.3000    0.7500    0.0000 C   0  0  0  0  0  0  0  0  0  0  0  0
   -1.3000   -0.7500    0.0000 C   0  0  0  0  0  0  0  0  0  0  0  0
    1.3000   -0.7500    0.0000 C   0  0  0  0  0  0  0  0  0  0  0  0
   -0.0000   -1.5000    0.0000 N   0  0  0  0  0  0  0  0  0  0  0  0
    2.5989   -1.5002    0.0000 O   0  0  0  0  0  0  0  0  0  0  0  0
  2  1  2  0
  3  1  1  0
  4  2  1  0
  5  3  2  0
  6  4  2  0
  6  5  1  0
  7  5  1  0
M  END
>  <NAME>  (1721) 
2-HYDROXYPYRIDINE

>  <SYNONYMS>  (1721) 
2-PYRIDINOL

>  <SPECTRUM TYPE>  (1721) 
MS1

>  <INSTRUMENT TYPE>  (1721) 
EI-B

>  <INSTRUMENT>  (1721) 
HITACHI M-80

>  <ION MODE>  (1721) 
P

>  <INCHIKEY>  (1721) 
UBQKCCHYAOITMY-UHFFFAOYSA-N

>  <FORMULA>  (1721) 
C5H5NO

>  <EXACT MASS>  (1721) 
95.03711378

>  <MW>  (1721) 
95

>  <ID>  (1721) 
JP009477

>  <CONTRIBUTOR>  (1721) 
University of Tokyo Team, {Faculty of Engineering, University of Tokyo

>  <COMMENT>  (1721) 
SMILES=Oc(c1)nccc1
cas=142-08-5
InChI=InChI=1S/C5H5NO/c7-5-3-1-2-4-6-5/h1-4H,(H,6,7)
computed SMILES=OC1=NC=CC=C1
accession=JP009477
date=2016.01.19 (Created 2008.10.21, modified 2011.05.06)
author=NARA WOMEN'S UNIVERSITY
license=CC BY-NC-SA
exact mass=95.03711
ionization energy=70 eV
ion type=[M]+*
computed spectral entropy=2.518224847728177
computed normalized entropy=0.7478478205873264
SPLASH=splash10-00kk-9000000000-4cb62ee57ab731935093
submitter=submitter = University of Tokyo Team (Faculty of Engineering, University of Tokyo)
MoNA Rating=3.75

>  <NUM PEAKS>  (1721) 
29

>  <MASS SPECTRAL PEAKS>  (1721) 
14 1.06
18 1.55
25 1.28
26 5.86
27 4.35
28 28.36
29 5.18
36 1.34
37 11.23
38 19.44
39 46.19
40 19.22
41 25.24
42 4.66
49 2.34
50 8.1
51 8.37
52 4.6
53 1.53
63 1.29
64 2.11
65 1.59
66 10.9
67 86.62
68 6.96
78 1.14
94 1.32
95 99.99
96 8.82

>  <PREDICTED SPECTRUM>  (1721) 
16 0
17 3
25 21
26 94
27 124
28 150
29 31
36 40
37 165
38 264
39 476
40 254
41 342
42 85
44 99
47 43
49 105
50 324
51 428
52 252
54 30
55 40
57 7
61 0
65 156
66 487
67 700
68 298
69 63
74 68
76 69
78 200
94 473
95 999
96 305
97 4

$$$$

     RDKit          2D

 30 33  0  0  1  0  0  0  0  0999 V2000
    9.5655    7.2342    0.0000 C   0  0  0  0  0  0  0  0  0  0  0  0
   10.0746    4.6865    0.0000 C   0  0  0  0  0  0  0  0  0  0  0  0
    8.1228    2.9718    0.0000 C   0  0  0  0  0  0  0  0  0  0  0  0
    3.2009    4.6377    0.0000 C   0  0  0  0  0  0  0  0  0  0  0  0
   -1.6125    0.9400    0.0000 C   0  0  0  0  0  0  0  0  0  0  0  0
    2.4507    3.1203    0.0000 C   0  0  0  0  0  0  0  0  0  0  0  0
    8.0946    6.9403    0.0000 C   0  0  0  0  0  0  0  0  0  0  0  0
    5.6618    3.8047    0.0000 C   0  0  0  0  0  0  0  0  0  0  0  0
    6.1427    5.2256    0.0000 C   0  0  0  0  0  0  0  0  0  0  0  0
   -0.3200   -2.8400    0.0000 C   0  0  0  0  0  0  0  0  0  0  0  0
    1.0100   -2.0900    0.0000 C   0  0  0  0  0  0  0  0  0  0  0  0
    4.5500    0.8800    0.0000 C   0  0  0  0  0  0  0  0  0  0  0  0
    3.7100   -0.3100    0.0000 C   0  0  0  0  0  0  0  0  0  0  0  0
   -4.2000   -0.5600    0.0000 C   0  0  0  0  0  0  0  0  0  0  0  0
   -0.3200    1.6300    0.0000 C   0  0  0  0  0  0  0  0  0  0  0  0
   -2.8900    0.1600    0.0000 C   0  0  0  0  0  0  0  0  0  0  0  0
    1.0100    2.3900    0.0000 C   0  0  0  0  0  0  0  0  0  0  0  0
   -2.8900   -2.8400    0.0000 C   0  0  0  0  0  0  0  0  0  0  0  0
    8.6037    4.3926    0.0000 C   0  0  0  0  0  0  0  0  0  0  0  0
    4.1909    3.5108    0.0000 C   0  0  0  0  0  0  0  0  0  0  0  0
    7.6137    5.5195    0.0000 C   0  0  0  0  0  0  0  0  0  0  0  0
   -1.6200   -2.0900    0.0000 C   0  0  0  0  0  0  0  0  0  0  0  0
   -4.2000   -2.0900    0.0000 C   0  0  0  0  0  0  0  0  0  0  0  0
    1.0100   -0.5600    0.0000 C   0  0  0  0  0  0  0  0  0  0  0  0
    3.7100    2.0900    0.0000 C   0  0  0  0  0  0  0  0  0  0  0  0
    2.2800    0.1600    0.0000 C   0  0  0  0  0  0  0  0  0  0  0  0
   -0.3200    0.1600    0.0000 C   0  0  0  0  0  0  0  0  0  0  0  0
   -1.6200   -0.5600    0.0000 C   0  0  0  0  0  0  0  0  0  0  0  0
    2.2800    1.6300    0.0000 C   0  0  0  0  0  0  0  0  0  0  0  0
   -5.4977   -2.8424    0.0000 O   0  0  0  0  0  0  0  0  0  0  0  0
  7  1  1  0
  8  9  2  0
 11 10  1  0
 13 12  1  0
 16 14  1  0
 17 15  1  0
 19  2  1  0
 19  3  1  0
 20  4  1  6
 20  8  1  0
 21  7  1  6
 21  9  1  0
 21 19  1  0
 22 10  1  1
 22 18  1  0
 23 14  1  0
 23 18  1  0
 24 11  2  0
 25 12  1  1
 25 20  1  0
 26 13  1  1
 26 24  1  0
 27 15  1  1
 27 24  1  0
 28  5  1  1
 28 16  1  0
 28 22  1  0
 28 27  1  0
 29  6  1  1
 29 17  1  0
 29 25  1  0
 29 26  1  0
 23 30  1  1
M  END
>  <NAME>  (1722) 
CONDRILLASTEROL

>  <SYNONYMS>  (1722) 
STIGMAST-7,22-DIEN-3-OL(3BETA,5ALPHA,22E,24R)

>  <SPECTRUM TYPE>  (1722) 
MS1

>  <INSTRUMENT TYPE>  (1722) 
EI-B

>  <INSTRUMENT>  (1722) 
HITACHI M-80

>  <ION MODE>  (1722) 
P

>  <INCHIKEY>  (1722) 
JZVFJDZBLUFKCA-INYURWPISA-N

>  <FORMULA>  (1722) 
C29H48O

>  <EXACT MASS>  (1722) 
412.37051615599995

>  <MW>  (1722) 
412

>  <ID>  (1722) 
JP009476

>  <CONTRIBUTOR>  (1722) 
University of Tokyo Team, {Faculty of Engineering, University of Tokyo

>  <COMMENT>  (1722) 
SMILES=C(C(C)12)CC(O)CC1(CC=C(C([H])43)C(CCC(C)3C(C(C)C=CC(C(C)C)CC)CC4)2[H])[H]
cas=481-17-4
InChI=InChI=1S/C29H48O/c1-7-21(19(2)3)9-8-20(4)25-12-13-26-24-11-10-22-18-23(30)14-16-28(22,5)27(24)15-17-29(25,26)6/h8-9,11,19-23,25-27,30H,7,10,12-18H2,1-6H3/b9-8+/t20-,21+,22+,23+,25-,26+,27+,28+,29-/m1/s1
computed SMILES=OC1CCC2(C)C3C(=CCC2C1)C4CCC(C(C=CC(CC)C(C)C)C)C4(C)CC3
accession=JP009476
date=2016.01.19 (Created 2008.10.21, modified 2011.05.06)
author=NARA WOMEN'S UNIVERSITY
license=CC BY-NC-SA
exact mass=412.37052
ionization energy=70 eV
ion type=[M]+*
computed spectral entropy=4.7712357672833905
computed normalized entropy=0.8838629050476573
SPLASH=splash10-0759-9861100000-38bc3494b6c04db1db99
submitter=submitter = University of Tokyo Team (Faculty of Engineering, University of Tokyo)
MoNA Rating=3.75

>  <NUM PEAKS>  (1722) 
221

>  <MASS SPECTRAL PEAKS>  (1722) 
18 1.9
27 3.42
28 16.55
29 6.46
32 4.22
39 3.14
41 24.4
42 3.36
43 43.85
44 2.55
45 2.79
53 4.24
54 1.7
55 43.24
56 20.18
57 1.49
58 2.29
59 1.06
65 2.07
66 1.05
67 16.42
68 7.34
69 37
70 5.82
71 14.26
72 1.98
73 1.62
74 10.79
77 6.32
78 1.83
79 17.96
80 3.9
81 51.02
82 8.42
83 39.4
84 6.99
85 10.77
86 1.21
87 1.43
89 1.89
91 20.03
92 4.6
93 20.97
94 11.89
95 27.16
96 8.85
97 17.13
98 4.15
99 2.89
103 2.31
104 4.16
105 22.78
106 5.68
107 33.19
108 6.19
109 18.25
110 5.39
111 6.96
112 2.59
113 2.04
114 2.45
115 3.2
116 2.16
117 8.5
118 3.41
119 17.37
120 6.25
121 14.58
122 5.29
123 13.54
124 3.91
125 4.46
126 1.56
127 2
128 2.89
129 5.83
130 2.57
131 11.64
132 4.33
133 18.08
134 6.92
135 17.1
136 4.42
137 10.85
138 3.26
139 5.96
140 1.43
141 2.41
142 1.98
143 5.63
144 2.6
145 15.18
146 5.45
147 22.25
148 4.74
149 10.81
150 2.21
151 6.49
152 1.83
153 1.44
154 1.2
155 2.29
156 1.41
157 5.42
158 3.17
159 14.05
160 4.24
161 16.63
162 3.23
163 5.84
164 2.61
165 4.34
166 2.78
167 1.36
169 1.93
171 4.6
172 2.01
173 8.48
174 2.95
175 7.24
176 2.07
177 3.2
178 4.9
179 2.02
183 2.09
185 4.58
186 1.9
187 6.76
188 2.05
189 3.95
190 1.1
191 2.52
192 1.17
193 1.27
197 2.29
198 1.16
199 5.53
200 1.95
201 7.24
202 1.82
203 3.12
205 1.58
211 2.32
212 1.06
213 12.64
214 3.15
215 6.22
216 1.64
217 2.83
218 2.39
219 3.56
220 1.1
224 1.27
225 1.56
227 4.9
228 4.49
229 17.72
230 4.15
231 14.6
232 5.13
233 3.08
236 1.65
237 1.03
239 3.03
240 1.21
241 2.9
242 1.03
243 3.64
244 2.71
245 3.77
246 23.34
247 9.26
248 1.79
253 4.42
254 1.98
255 42.18
256 10.46
257 10.07
258 4.94
259 4.35
260 1.86
261 1.25
267 1.45
269 3.92
270 3.5
271 99.99
272 28.81
273 8.2
274 2.12
284 1.63
285 4.76
286 2.96
287 1.75
299 8.07
300 20
301 8.04
302 1.59
309 1.22
313 1.7
314 2.07
327 1.94
328 1.14
351 5.44
352 1.71
367 1.15
368 1.4
369 20.09
370 6.2
371 1.61
380 1.47
383 2.15
394 1.28
395 1.26
397 13.21
398 4.62
399 1.17
410 2.06
411 1.59
412 68.5
413 22.36
414 4.22

>  <PREDICTED SPECTRUM>  (1722) 
41 591
42 45
43 999
44 155
45 36
49 15
50 22
51 70
52 6
53 267
54 71
55 962
56 194
57 633
58 28
59 45
65 112
66 44
67 672
68 227
69 890
70 305
71 472
73 28
77 360
78 91
79 593
80 182
81 883
82 382
83 757
84 218
85 229
91 638
92 249
93 666
94 372
95 841
96 388
97 501
98 63
99 48
103 61
104 27
105 591
106 233
107 729
108 322
109 624
110 207
111 290
115 32
116 35
117 313
118 88
119 508
120 261
121 548
122 322
123 481
124 190
125 102
127 21
128 66
129 233
130 27
131 448
132 243
133 601
134 370
135 524
136 108
137 425
138 189
139 198
141 35
142 16
143 161
144 30
145 489
146 318
147 643
148 245
149 413
150 139
151 319
152 100
157 259
158 43
159 511
160 185
161 576
162 192
163 304
164 177
165 72
166 115
167 53
168 35
169 43
171 312
172 36
173 441
174 148
175 380
176 89
177 167
178 57
185 279
186 52
187 350
189 151
191 66
197 31
199 316
200 32
201 318
203 91
211 51
213 516
214 186
215 227
217 99
219 3
225 22
227 289
228 324
229 492
230 207
231 358
232 225
233 98
239 76
241 95
243 23
244 16
245 295
246 459
247 189
253 223
254 63
255 894
256 374
257 185
258 216
259 167
269 101
270 44
271 831
272 527
273 697
274 145
281 21
283 89
285 508
286 149
287 99
299 339
300 494
301 315
302 18
313 56
314 219
315 110
327 29
351 160
369 250
370 0
379 145
383 53
394 93
395 54
397 436
398 183
399 38
410 156
411 29
412 763
413 215
414 82
415 37

$$$$

     RDKit          2D

 30 33  0  0  1  0  0  0  0  0999 V2000
    9.5655    7.2342    0.0000 C   0  0  0  0  0  0  0  0  0  0  0  0
    8.1228    2.9718    0.0000 C   0  0  0  0  0  0  0  0  0  0  0  0
   10.0746    4.6865    0.0000 C   0  0  0  0  0  0  0  0  0  0  0  0
    3.2009    4.6377    0.0000 C   0  0  0  0  0  0  0  0  0  0  0  0
   -1.6125    0.9400    0.0000 C   0  0  0  0  0  0  0  0  0  0  0  0
    2.4507    3.1203    0.0000 C   0  0  0  0  0  0  0  0  0  0  0  0
    8.0946    6.9403    0.0000 C   0  0  0  0  0  0  0  0  0  0  0  0
    5.6618    3.8047    0.0000 C   0  0  0  0  0  0  0  0  0  0  0  0
    6.1427    5.2256    0.0000 C   0  0  0  0  0  0  0  0  0  0  0  0
   -0.3200   -2.8400    0.0000 C   0  0  0  0  0  0  0  0  0  0  0  0
    1.0100   -2.0900    0.0000 C   0  0  0  0  0  0  0  0  0  0  0  0
    4.5500    0.8800    0.0000 C   0  0  0  0  0  0  0  0  0  0  0  0
    3.7100   -0.3100    0.0000 C   0  0  0  0  0  0  0  0  0  0  0  0
   -4.2000   -0.5600    0.0000 C   0  0  0  0  0  0  0  0  0  0  0  0
   -0.3200    1.6300    0.0000 C   0  0  0  0  0  0  0  0  0  0  0  0
   -2.8900    0.1600    0.0000 C   0  0  0  0  0  0  0  0  0  0  0  0
    1.0100    2.3900    0.0000 C   0  0  0  0  0  0  0  0  0  0  0  0
   -2.8900   -2.8400    0.0000 C   0  0  0  0  0  0  0  0  0  0  0  0
    8.6037    4.3926    0.0000 C   0  0  0  0  0  0  0  0  0  0  0  0
    4.1909    3.5108    0.0000 C   0  0  0  0  0  0  0  0  0  0  0  0
    7.6137    5.5195    0.0000 C   0  0  0  0  0  0  0  0  0  0  0  0
   -1.6200   -2.0900    0.0000 C   0  0  0  0  0  0  0  0  0  0  0  0
   -4.2000   -2.0900    0.0000 C   0  0  0  0  0  0  0  0  0  0  0  0
    1.0100   -0.5600    0.0000 C   0  0  0  0  0  0  0  0  0  0  0  0
    3.7100    2.0900    0.0000 C   0  0  0  0  0  0  0  0  0  0  0  0
    2.2800    0.1600    0.0000 C   0  0  0  0  0  0  0  0  0  0  0  0
   -0.3200    0.1600    0.0000 C   0  0  0  0  0  0  0  0  0  0  0  0
   -1.6200   -0.5600    0.0000 C   0  0  0  0  0  0  0  0  0  0  0  0
    2.2800    1.6300    0.0000 C   0  0  0  0  0  0  0  0  0  0  0  0
   -5.4977   -2.8424    0.0000 O   0  0  0  0  0  0  0  0  0  0  0  0
  7  1  1  0
  9  8  1  0
 11 10  1  0
 13 12  1  0
 16 14  1  0
 17 15  1  0
 19  2  2  0
 19  3  1  0
 20  4  1  0
 20  8  1  0
 21  7  1  6
 21  9  1  0
 21 19  1  0
 22 10  1  1
 22 18  1  0
 23 14  1  0
 23 18  1  0
 24 11  2  0
 25 12  1  0
 25 20  1  1
 26 13  1  1
 26 24  1  0
 27 15  1  1
 27 24  1  0
 28  5  1  1
 28 16  1  0
 28 22  1  0
 28 27  1  0
 29  6  1  1
 29 17  1  0
 29 25  1  0
 29 26  1  0
 23 30  1  1
M  END
>  <NAME>  (1723) 
22-DIHYDRO-25-DEHYDROCHONDRILLASTEROL

>  <SYNONYMS>  (1723) 
STIGMASTA-7,25-DIEN-3-OL(3BETA,5ALPHA)

>  <SPECTRUM TYPE>  (1723) 
MS1

>  <INSTRUMENT TYPE>  (1723) 
EI-B

>  <INSTRUMENT>  (1723) 
HITACHI M-80

>  <ION MODE>  (1723) 
P

>  <INCHIKEY>  (1723) 
CMQUSRGUOMCHOZ-DYSDFPMNSA-N

>  <FORMULA>  (1723) 
C29H48O

>  <EXACT MASS>  (1723) 
412.37051615599995

>  <MW>  (1723) 
412

>  <ID>  (1723) 
JP009475

>  <CONTRIBUTOR>  (1723) 
University of Tokyo Team, {Faculty of Engineering, University of Tokyo

>  <COMMENT>  (1723) 
SMILES=[H]C(C14C)(C(CCC(C(C)=C)CC)C)CCC1(C(C(CC4)2[H])=CCC(C3)(C2(CCC3([H])O)C)[H])[H]
cas=6785-58-6
InChI=InChI=1S/C29H48O/c1-7-21(19(2)3)9-8-20(4)25-12-13-26-24-11-10-22-18-23(30)14-16-28(22,5)27(24)15-17-29(25,26)6/h11,20-23,25-27,30H,2,7-10,12-18H2,1,3-6H3/t20?,21-,22-,23-,25+,26-,27-,28-,29+/m0/s1
computed SMILES=OC1CCC2(C)C3C(=CCC2C1)C4CCC(C(C)CCC(C(=C)C)CC)C4(C)CC3
accession=JP009475
date=2016.01.19 (Created 2008.10.21, modified 2011.05.06)
author=NARA WOMEN'S UNIVERSITY
license=CC BY-NC-SA
exact mass=412.37052
ionization energy=70 eV
ion type=[M]+*
computed spectral entropy=4.664154386841862
computed normalized entropy=0.8880258141047513
SPLASH=splash10-00di-9881200000-bca9e59a75a00407134d
submitter=submitter = University of Tokyo Team (Faculty of Engineering, University of Tokyo)
MoNA Rating=3.75

>  <NUM PEAKS>  (1723) 
191

>  <MASS SPECTRAL PEAKS>  (1723) 
18 3.65
27 2.22
28 28.23
29 6.7
32 6.92
40 3.41
42 21.2
43 2.33
44 15.93
45 1.64
46 1.83
54 3.63
55 1.31
56 41.7
57 10.07
60 1.05
65 1.49
67 13.79
68 5.3
69 21.87
70 3.56
71 5.38
73 1.33
74 9.46
77 4.8
78 1.36
79 14.68
80 2.62
81 22.13
82 4.07
83 17.17
84 7.98
85 4.59
87 1.12
91 16.64
92 4
93 15.81
94 8.12
95 18.95
96 3.31
97 7.77
98 2.13
99 1.56
103 1.84
105 18.64
106 5.44
107 20.02
108 4.75
109 11.92
110 3.9
111 3.99
112 1.38
114 1.15
115 2.37
116 1.72
117 7.02
118 3.15
119 15.5
120 6.15
121 10.85
122 3.68
123 7.37
124 2.44
125 1.85
127 1.29
128 2.09
129 4.73
130 2.18
131 10.44
132 4
133 13.53
134 6.34
135 8.81
136 2.85
137 6.56
138 3.97
139 2.07
141 1.77
142 1.69
143 5.05
144 2.27
145 12.13
146 4.2
147 13.71
148 3.47
149 5.12
150 1.53
151 2.45
155 1.94
156 1.22
157 5.25
158 2.85
159 10.79
160 3.4
161 9.91
162 2.37
163 3.02
164 2.36
165 1.95
166 1.1
169 1.92
171 4.83
172 1.96
173 5.86
174 2.12
175 3.62
176 1.22
177 1.77
178 1.73
179 1.09
183 1.64
185 4.43
186 1.69
187 4.52
188 1.6
189 2.87
191 1.22
197 2.04
199 4.07
200 1.76
201 4.48
202 1.53
203 2.14
211 3.16
212 1.29
213 11.42
214 2.99
215 3.86
216 1.31
217 2.38
218 3.02
219 2.23
225 1.38
227 8.84
228 4.47
229 7.67
230 2.42
231 12.58
232 5.2
233 3.54
234 1.45
239 1.9
241 1.52
243 2.18
244 3.61
245 5.4
246 11.32
247 3.63
248 1.18
253 3.28
254 1.33
255 20.34
256 6.16
257 6.3
258 4.4
259 2.04
260 1.52
261 1
262 3.98
269 5.46
270 4.23
271 99.99
272 26.3
273 8.15
274 2.11
281 1.13
283 1.11
284 1.38
285 3.54
286 2.32
287 1.87
297 1.47
299 7.58
300 6.86
301 2.69
313 3.01
314 4.26
315 1.53
328 2.84
329 1.07
379 2.54
394 1.3
395 1.56
397 28.19
398 8.99
399 1.86
410 3.7
411 2.18
412 55.5
413 18.23
414 3.96

>  <PREDICTED SPECTRUM>  (1723) 
41 343
42 59
43 251
44 107
45 46
50 18
51 2
53 169
54 94
55 626
56 188
57 419
58 26
65 104
66 43
67 438
68 219
69 449
70 121
71 282
73 30
75 26
77 209
78 110
79 386
80 156
81 583
82 296
83 396
84 92
85 136
91 469
92 232
93 473
94 285
95 548
96 279
97 291
98 47
99 47
103 57
104 76
105 489
106 257
107 565
108 347
109 507
110 185
111 215
115 93
116 77
117 347
118 204
119 546
120 363
121 473
122 338
123 372
124 162
125 141
127 59
128 125
129 227
130 169
131 375
132 289
133 505
134 411
135 489
136 317
137 259
138 102
139 54
141 117
142 63
143 294
144 204
145 416
146 259
147 491
148 266
149 401
150 114
151 251
152 101
155 74
156 48
157 248
158 181
159 435
160 216
161 470
162 215
163 220
164 91
165 68
166 70
167 24
168 61
169 101
170 46
171 276
172 94
173 365
174 183
175 300
176 86
177 109
178 51
183 59
185 250
186 96
187 263
188 62
189 193
190 10
191 28
193 0
197 134
198 42
199 268
200 144
201 308
202 71
203 90
204 52
205 35
211 99
212 42
213 604
214 285
215 236
216 38
217 98
218 41
219 32
227 308
228 359
229 535
230 305
231 487
232 293
233 106
234 8
239 184
240 53
241 87
242 39
243 61
244 106
245 221
246 406
247 334
248 14
253 206
254 93
255 787
256 377
257 279
258 221
259 214
260 65
261 1
267 87
268 28
269 50
270 21
271 530
272 423
273 461
274 282
281 94
282 1
283 185
284 78
285 257
286 244
287 180
288 59
299 165
300 324
301 194
302 65
304 20
313 81
314 93
315 63
327 10
328 9
379 239
380 78
381 35
383 35
394 193
395 153
397 512
398 279
399 70
410 197
411 93
412 999
413 317
414 269
415 42

$$$$

     RDKit          2D

 30 33  0  0  1  0  0  0  0  0999 V2000
    9.5655    7.2342    0.0000 C   0  0  0  0  0  0  0  0  0  0  0  0
   10.0746    4.6865    0.0000 C   0  0  0  0  0  0  0  0  0  0  0  0
    8.1228    2.9718    0.0000 C   0  0  0  0  0  0  0  0  0  0  0  0
    3.2009    4.6377    0.0000 C   0  0  0  0  0  0  0  0  0  0  0  0
   -1.6125    0.9400    0.0000 C   0  0  0  0  0  0  0  0  0  0  0  0
    2.4507    3.1203    0.0000 C   0  0  0  0  0  0  0  0  0  0  0  0
    8.0946    6.9403    0.0000 C   0  0  0  0  0  0  0  0  0  0  0  0
    5.6618    3.8047    0.0000 C   0  0  0  0  0  0  0  0  0  0  0  0
    6.1427    5.2256    0.0000 C   0  0  0  0  0  0  0  0  0  0  0  0
   -0.3200   -2.8400    0.0000 C   0  0  0  0  0  0  0  0  0  0  0  0
    1.0100   -2.0900    0.0000 C   0  0  0  0  0  0  0  0  0  0  0  0
    4.5500    0.8800    0.0000 C   0  0  0  0  0  0  0  0  0  0  0  0
    3.7100   -0.3100    0.0000 C   0  0  0  0  0  0  0  0  0  0  0  0
   -4.2000   -0.5600    0.0000 C   0  0  0  0  0  0  0  0  0  0  0  0
   -0.3200    1.6300    0.0000 C   0  0  0  0  0  0  0  0  0  0  0  0
   -2.8900    0.1600    0.0000 C   0  0  0  0  0  0  0  0  0  0  0  0
    1.0100    2.3900    0.0000 C   0  0  0  0  0  0  0  0  0  0  0  0
   -2.8900   -2.8400    0.0000 C   0  0  0  0  0  0  0  0  0  0  0  0
    8.6037    4.3926    0.0000 C   0  0  0  0  0  0  0  0  0  0  0  0
    4.1909    3.5108    0.0000 C   0  0  0  0  0  0  0  0  0  0  0  0
    7.6137    5.5195    0.0000 C   0  0  0  0  0  0  0  0  0  0  0  0
   -1.6200   -2.0900    0.0000 C   0  0  0  0  0  0  0  0  0  0  0  0
   -4.2000   -2.0900    0.0000 C   0  0  0  0  0  0  0  0  0  0  0  0
    1.0100   -0.5600    0.0000 C   0  0  0  0  0  0  0  0  0  0  0  0
    3.7100    2.0900    0.0000 C   0  0  0  0  0  0  0  0  0  0  0  0
    2.2800    0.1600    0.0000 C   0  0  0  0  0  0  0  0  0  0  0  0
   -0.3200    0.1600    0.0000 C   0  0  0  0  0  0  0  0  0  0  0  0
   -1.6200   -0.5600    0.0000 C   0  0  0  0  0  0  0  0  0  0  0  0
    2.2800    1.6300    0.0000 C   0  0  0  0  0  0  0  0  0  0  0  0
   -5.4977   -2.8424    0.0000 O   0  0  0  0  0  0  0  0  0  0  0  0
  7  1  1  0
  9  8  1  0
 11 10  1  0
 13 12  1  0
 16 14  1  0
 17 15  1  0
 19  2  1  0
 19  3  1  0
 20  4  1  0
 20  8  1  0
 21  7  1  6
 21  9  1  0
 21 19  1  0
 22 10  1  1
 22 18  1  0
 23 14  1  0
 23 18  1  0
 24 11  2  0
 25 12  1  0
 25 20  1  1
 26 13  1  1
 26 24  1  0
 27 15  1  1
 27 24  1  0
 28  5  1  1
 28 16  1  0
 28 22  1  0
 28 27  1  0
 29  6  1  1
 29 17  1  0
 29 25  1  0
 29 26  1  0
 23 30  1  1
M  END
>  <NAME>  (1724) 
22-DIHYDROCHONDRILLASTEROL

>  <SYNONYMS>  (1724) 
STIGMAST-7-EN-3-OL(3BETA,5ALPHA,24S)

>  <SPECTRUM TYPE>  (1724) 
MS1

>  <INSTRUMENT TYPE>  (1724) 
EI-B

>  <INSTRUMENT>  (1724) 
HITACHI M-80

>  <ION MODE>  (1724) 
P

>  <INCHIKEY>  (1724) 
YSKVBPGQYRAUQO-DYSDFPMNSA-N

>  <FORMULA>  (1724) 
C29H50O

>  <EXACT MASS>  (1724) 
414.38616621999995

>  <MW>  (1724) 
414

>  <ID>  (1724) 
JP009474

>  <CONTRIBUTOR>  (1724) 
University of Tokyo Team, {Faculty of Engineering, University of Tokyo

>  <COMMENT>  (1724) 
SMILES=[H]C(C14C)(C(CCC(C(C)C)CC)C)CCC1(C(C(CC4)2[H])=CCC(C3)(C2(CCC3([H])O)C)[H])[H]
cas=18525-35-4
InChI=InChI=1S/C29H50O/c1-7-21(19(2)3)9-8-20(4)25-12-13-26-24-11-10-22-18-23(30)14-16-28(22,5)27(24)15-17-29(25,26)6/h11,19-23,25-27,30H,7-10,12-18H2,1-6H3/t20?,21-,22-,23-,25+,26-,27-,28-,29+/m0/s1
computed SMILES=OC1CCC2(C)C3C(=CCC2C1)C4CCC(C(C)CCC(CC)C(C)C)C4(C)CC3
accession=JP009474
date=2016.01.19 (Created 2008.10.21, modified 2011.05.06)
author=NARA WOMEN'S UNIVERSITY
license=CC BY-NC-SA
exact mass=414.38617
ionization energy=70 eV
ion type=[M]+*
computed spectral entropy=3.6174108384320327
computed normalized entropy=0.798087464797261
SPLASH=splash10-03di-4561900000-33983ddc68264bf49951
submitter=submitter = University of Tokyo Team (Faculty of Engineering, University of Tokyo)
MoNA Rating=3.75

>  <NUM PEAKS>  (1724) 
93

>  <MASS SPECTRAL PEAKS>  (1724) 
29 1.36
41 3.82
43 9.95
55 5.05
56 4.55
67 2.08
69 4.42
70 1.02
71 2.61
79 2.67
81 4.66
82 1.54
83 2.9
84 1.25
85 2.76
91 3.25
93 3.19
94 2.14
95 5.14
96 1.32
97 2.49
105 4.24
106 1.51
107 6.52
108 1.72
109 2.93
110 1.14
111 1.85
117 1.46
119 3.96
120 2.04
121 3.39
122 1.74
123 2.34
124 1.09
129 1.01
131 2.35
133 3.95
134 2.84
135 4.27
136 1.6
137 1.6
143 1.09
145 3
146 1.11
147 4.71
148 1.38
149 2
151 1.28
157 1.2
159 2.57
160 1.12
161 4.11
163 1.17
171 1.1
173 1.8
175 1.02
178 1.52
185 1.01
187 1.21
199 1.11
201 1.58
213 4.86
214 1.21
215 1.32
218 1.81
219 1.22
228 1.31
229 6.16
230 1.37
231 7.02
232 3.09
233 1.15
246 4.39
247 2.39
255 29.91
256 6.66
257 2.1
271 1.18
272 1.89
273 12.33
274 3
275 1.44
381 1.26
396 1.17
399 16
400 5
401 0.85
412 1.31
413 0.92
414 99.99
415 32.04
416 5.37

>  <PREDICTED SPECTRUM>  (1724) 
41 25
43 23
55 125
57 64
67 48
68 29
69 17
70 11
79 12
81 112
83 22
91 86
92 43
93 57
94 17
95 140
105 123
106 21
107 132
108 38
109 66
117 22
118 3
119 98
120 32
121 43
122 70
130 27
133 136
134 48
135 22
142 4
143 60
145 90
146 7
147 109
149 11
159 145
160 10
161 80
162 14
171 65
183 3
185 16
186 8
189 36
200 21
201 260
202 33
203 35
204 15
205 36
213 569
214 267
215 223
216 136
217 131
218 103
219 63
227 146
228 218
229 512
230 286
231 432
232 195
233 165
234 130
241 36
243 23
244 57
245 10
246 296
247 223
255 894
256 341
257 255
258 40
259 82
260 89
269 47
270 10
271 105
272 147
273 418
274 285
275 63
283 177
285 81
287 119
288 148
289 93
301 80
302 116
303 34
381 205
382 6
396 298
397 162
398 77
399 545
400 281
401 83
412 213
413 47
414 999
415 572
416 279

$$$$

     RDKit          2D

 17 19  0  0  0  0  0  0  0  0999 V2000
    3.8990   -3.7500    0.0000 C   0  0  0  0  0  0  0  0  0  0  0  0
   -3.9000    0.7500    0.0000 C   0  0  0  0  0  0  0  0  0  0  0  0
   -3.9000   -0.7500    0.0000 C   0  0  0  0  0  0  0  0  0  0  0  0
   -2.6000    1.5000    0.0000 C   0  0  0  0  0  0  0  0  0  0  0  0
   -2.6000   -1.5000    0.0000 C   0  0  0  0  0  0  0  0  0  0  0  0
    3.9000    0.7500    0.0000 C   0  0  0  0  0  0  0  0  0  0  0  0
    3.9000   -0.7500    0.0000 C   0  0  0  0  0  0  0  0  0  0  0  0
    2.6000    1.5000    0.0000 C   0  0  0  0  0  0  0  0  0  0  0  0
   -1.3000    0.7500    0.0000 C   0  0  0  0  0  0  0  0  0  0  0  0
   -1.3000   -0.7500    0.0000 C   0  0  0  0  0  0  0  0  0  0  0  0
    2.6000   -1.5000    0.0000 C   0  0  0  0  0  0  0  0  0  0  0  0
    1.3000    0.7500    0.0000 C   0  0  0  0  0  0  0  0  0  0  0  0
    1.3000   -0.7500    0.0000 C   0  0  0  0  0  0  0  0  0  0  0  0
    2.6000    3.0000    0.0000 N   0  0  0  0  0  0  0  0  0  0  0  0
    0.0000    1.5000    0.0000 N   0  0  0  0  0  0  0  0  0  0  0  0
    0.0000   -1.5000    0.0000 N   0  0  0  0  0  0  0  0  0  0  0  0
    2.6000   -3.0000    0.0000 O   0  0  0  0  0  0  0  0  0  0  0  0
  3  2  2  0
  4  2  1  0
  5  3  1  0
  7  6  1  0
  8  6  2  0
  9  4  2  0
 10  5  2  0
 10  9  1  0
 11  7  2  0
 12  8  1  0
 13 11  1  0
 13 12  1  0
 14  8  1  0
 15  9  1  0
 15 12  2  0
 16 10  1  0
 16 13  2  0
 17  1  1  0
 17 11  1  0
M  END
>  <NAME>  (1725) 
1-AMINO-4-METHOXYPHENAZINE

>  <SYNONYMS>  (1725) 


>  <SPECTRUM TYPE>  (1725) 
MS1

>  <INSTRUMENT TYPE>  (1725) 
EI-B

>  <INSTRUMENT>  (1725) 
HITACHI RMU-7L

>  <ION MODE>  (1725) 
P

>  <INCHIKEY>  (1725) 
VFEBRDAKZGPEHA-UHFFFAOYSA-N

>  <FORMULA>  (1725) 
C13H11N3O

>  <EXACT MASS>  (1725) 
225.090211972

>  <MW>  (1725) 
225

>  <ID>  (1725) 
JP009472

>  <CONTRIBUTOR>  (1725) 
University of Tokyo Team, {Faculty of Engineering, University of Tokyo

>  <COMMENT>  (1725) 
SMILES=COc(c3)c(n1)c(c(N)c3)nc(c2)c(ccc2)1
InChI=InChI=1S/C13H11N3O/c1-17-11-7-6-8(14)12-13(11)16-10-5-3-2-4-9(10)15-12/h2-7H,14H2,1H3
computed SMILES=N1=C2C=CC=CC2=NC=3C1=C(OC)C=CC3N
accession=JP009472
date=2016.01.19 (Created 2008.10.21, modified 2011.05.06)
author=EGUCHI S, FAC. OF SCIENCE, HIROSHIMA UNIV.
license=CC BY-NC-SA
exact mass=225.09021
ionization energy=70 eV
ion type=[M]+*
computed spectral entropy=2.714867352234943
computed normalized entropy=0.80624557190921
SPLASH=splash10-01t9-5790000000-e2b520c7f2d459a9b6df
submitter=submitter = University of Tokyo Team (Faculty of Engineering, University of Tokyo)
MoNA Rating=3.75

>  <NUM PEAKS>  (1725) 
29

>  <MASS SPECTRAL PEAKS>  (1725) 
63 15
64 17
65 11
66 8
75 19
76 35
77 30
101 6
102 22
103 18
129 19
130 2.5
155 15
156 1
168 7
169 0.5
182 90
183 9
184 2
195 5
196 1.5
197 0.5
210 88
211 10.5
212 3
224 11
225 99.99
226 14
227 3.5

>  <PREDICTED SPECTRUM>  (1725) 
26 6
27 36
28 33
29 24
37 0
38 26
39 65
40 37
41 85
42 70
43 54
44 64
49 32
50 97
51 171
52 168
53 77
54 77
55 36
56 0
57 18
58 10
60 0
61 43
62 96
63 201
64 185
65 139
66 100
67 19
68 38
69 58
70 57
71 37
72 17
73 39
74 45
75 168
76 223
77 219
78 148
79 66
80 33
81 14
82 30
83 27
84 56
85 85
86 59
87 40
88 50
89 142
90 256
91 124
92 83
96 2
97 65
98 43
99 69
100 93
101 89
102 199
103 116
104 75
105 71
106 23
107 8
110 42
111 73
112 68
113 54
114 82
115 48
116 124
117 82
118 51
119 18
125 68
126 49
127 181
128 134
129 141
130 12
138 22
139 94
140 140
141 91
142 5
152 179
153 225
154 290
155 205
156 25
164 52
165 126
166 118
167 171
168 121
169 58
178 86
179 140
180 254
181 295
182 471
183 173
192 62
193 96
194 132
195 180
196 761
197 316
198 97
206 57
207 88
208 149
209 121
210 744
211 288
212 67
222 38
223 37
224 453
225 999
226 374
227 93

$$$$

     RDKit          2D

 17 19  0  0  0  0  0  0  0  0999 V2000
    6.4981    0.7504    0.0000 C   0  0  0  0  0  0  0  0  0  0  0  0
   -3.9000    0.7500    0.0000 C   0  0  0  0  0  0  0  0  0  0  0  0
   -3.9000   -0.7500    0.0000 C   0  0  0  0  0  0  0  0  0  0  0  0
   -2.6000    1.5000    0.0000 C   0  0  0  0  0  0  0  0  0  0  0  0
   -2.6000   -1.5000    0.0000 C   0  0  0  0  0  0  0  0  0  0  0  0
    3.9000   -0.7500    0.0000 C   0  0  0  0  0  0  0  0  0  0  0  0
    2.6000    1.5000    0.0000 C   0  0  0  0  0  0  0  0  0  0  0  0
    3.9000    0.7500    0.0000 C   0  0  0  0  0  0  0  0  0  0  0  0
    2.6000   -1.5000    0.0000 C   0  0  0  0  0  0  0  0  0  0  0  0
   -1.3000    0.7500    0.0000 C   0  0  0  0  0  0  0  0  0  0  0  0
   -1.3000   -0.7500    0.0000 C   0  0  0  0  0  0  0  0  0  0  0  0
    1.3000    0.7500    0.0000 C   0  0  0  0  0  0  0  0  0  0  0  0
    1.3000   -0.7500    0.0000 C   0  0  0  0  0  0  0  0  0  0  0  0
    2.6000   -3.0000    0.0000 N   0  0  0  0  0  0  0  0  0  0  0  0
    0.0000    1.5000    0.0000 N   0  0  0  0  0  0  0  0  0  0  0  0
    0.0000   -1.5000    0.0000 N   0  0  0  0  0  0  0  0  0  0  0  0
    5.1989    1.5002    0.0000 O   0  0  0  0  0  0  0  0  0  0  0  0
  3  2  2  0
  4  2  1  0
  5  3  1  0
  8  6  1  0
  8  7  2  0
  9  6  2  0
 10  4  2  0
 11  5  2  0
 11 10  1  0
 12  7  1  0
 13  9  1  0
 13 12  1  0
 14  9  1  0
 15 10  1  0
 15 12  2  0
 16 11  1  0
 16 13  2  0
 17  1  1  0
 17  8  1  0
M  END
>  <NAME>  (1726) 
1-AMINO-3-METHOXYPHENAZINE

>  <SYNONYMS>  (1726) 


>  <SPECTRUM TYPE>  (1726) 
MS1

>  <INSTRUMENT TYPE>  (1726) 
EI-B

>  <INSTRUMENT>  (1726) 
HITACHI RMU-7L

>  <ION MODE>  (1726) 
P

>  <INCHIKEY>  (1726) 
RYMYEMJNPWTUNT-UHFFFAOYSA-N

>  <FORMULA>  (1726) 
C13H11N3O

>  <EXACT MASS>  (1726) 
225.090211972

>  <MW>  (1726) 
225

>  <ID>  (1726) 
JP009471

>  <CONTRIBUTOR>  (1726) 
University of Tokyo Team, {Faculty of Engineering, University of Tokyo

>  <COMMENT>  (1726) 
SMILES=COc(c1)cc(n2)c(nc(c3)c(ccc3)2)c(N)1
InChI=InChI=1S/C13H11N3O/c1-17-8-6-9(14)13-12(7-8)15-10-4-2-3-5-11(10)16-13/h2-7H,14H2,1H3
computed SMILES=N1=C2C=CC=CC2=NC=3C1=CC(OC)=CC3N
accession=JP009471
date=2016.01.19 (Created 2008.10.21, modified 2011.05.06)
author=EGUCHI S, FAC. OF SCIENCE, HIROSHIMA UNIV.
license=CC BY-NC-SA
exact mass=225.09021
ionization energy=70 eV
ion type=[M]+*
computed spectral entropy=2.617943519213563
computed normalized entropy=0.8469451839360063
SPLASH=splash10-004i-2960000000-a01c82be17bd550e6a82
submitter=submitter = University of Tokyo Team (Faculty of Engineering, University of Tokyo)
MoNA Rating=3.75

>  <NUM PEAKS>  (1726) 
22

>  <MASS SPECTRAL PEAKS>  (1726) 
64 5
65 6
75 8
76 14
77 22
102 12
103 6
112.5 7
129 11
155 9
168 18
169 7
182 22
194 8
195 29
196 50
197 8
210 7
224 5
225 99.99
226 13.5
227 3

>  <PREDICTED SPECTRUM>  (1726) 
26 1
27 25
28 9
29 14
34 2
36 1
37 35
38 81
39 137
40 86
41 179
42 121
43 126
44 60
45 13
49 52
50 176
51 207
52 217
53 171
54 116
55 96
56 65
57 56
60 40
61 50
62 124
63 214
64 176
65 171
66 122
67 119
68 119
69 102
70 65
71 34
73 21
74 86
75 182
76 255
77 213
78 164
79 122
80 70
81 54
82 18
83 47
84 63
85 45
86 29
87 46
88 88
89 109
90 209
91 102
92 123
93 77
94 0
95 64
96 39
97 39
98 31
99 62
100 83
101 90
102 184
103 159
104 124
105 117
106 44
107 60
108 11
110 21
111 53
112 69
113 38
114 60
115 42
116 103
117 109
118 120
119 43
120 5
125 6
127 99
128 89
129 144
130 113
131 77
132 44
134 21
138 31
139 72
140 90
141 31
142 117
143 138
144 94
145 8
152 11
153 97
154 141
155 227
156 101
157 76
158 43
160 12
165 25
166 83
167 132
168 118
169 88
170 46
179 43
180 138
181 170
182 501
183 239
184 101
193 59
194 177
195 206
196 255
197 219
198 75
199 12
207 41
208 58
209 86
210 215
211 61
222 0
223 2
224 197
225 999
226 387
227 111

$$$$

     RDKit          2D

 18 20  0  0  0  0  0  0  0  0999 V2000
    3.8990   -5.2500    0.0000 C   0  0  0  0  0  0  0  0  0  0  0  0
   -3.9000    0.7500    0.0000 C   0  0  0  0  0  0  0  0  0  0  0  0
   -3.9000   -0.7500    0.0000 C   0  0  0  0  0  0  0  0  0  0  0  0
    3.9000    0.7500    0.0000 C   0  0  0  0  0  0  0  0  0  0  0  0
    3.9000   -0.7500    0.0000 C   0  0  0  0  0  0  0  0  0  0  0  0
   -2.6000    1.5000    0.0000 C   0  0  0  0  0  0  0  0  0  0  0  0
   -2.6000   -1.5000    0.0000 C   0  0  0  0  0  0  0  0  0  0  0  0
    2.6000    1.5000    0.0000 C   0  0  0  0  0  0  0  0  0  0  0  0
    2.6000   -1.5000    0.0000 C   0  0  0  0  0  0  0  0  0  0  0  0
   -1.3000    0.7500    0.0000 C   0  0  0  0  0  0  0  0  0  0  0  0
   -1.3000   -0.7500    0.0000 C   0  0  0  0  0  0  0  0  0  0  0  0
    1.3000    0.7500    0.0000 C   0  0  0  0  0  0  0  0  0  0  0  0
    1.3000   -0.7500    0.0000 C   0  0  0  0  0  0  0  0  0  0  0  0
    2.6000   -3.0000    0.0000 C   0  0  0  0  0  0  0  0  0  0  0  0
    0.0000    1.5000    0.0000 N   0  0  0  0  0  0  0  0  0  0  0  0
    0.0000   -1.5000    0.0000 N   0  0  0  0  0  0  0  0  0  0  0  0
    1.3010   -3.7500    0.0000 O   0  0  0  0  0  0  0  0  0  0  0  0
    3.8990   -3.7500    0.0000 O   0  0  0  0  0  0  0  0  0  0  0  0
  3  2  2  0
  5  4  2  0
  6  2  1  0
  7  3  1  0
  8  4  1  0
  9  5  1  0
 10  6  2  0
 11  7  2  0
 11 10  1  0
 12  8  2  0
 13  9  2  0
 13 12  1  0
 14  9  1  0
 15 10  1  0
 15 12  1  0
 16 11  1  0
 16 13  1  0
 17 14  2  0
 18  1  1  0
 18 14  1  0
M  END
>  <NAME>  (1727) 
1-METHOXYCARBONYL-5,10-DIHYDROPHENAZINE

>  <SYNONYMS>  (1727) 


>  <SPECTRUM TYPE>  (1727) 
MS1

>  <INSTRUMENT TYPE>  (1727) 
EI-B

>  <INSTRUMENT>  (1727) 
HITACHI RMU-7L

>  <ION MODE>  (1727) 
P

>  <INCHIKEY>  (1727) 
COHAWUIBTRRGHL-UHFFFAOYSA-N

>  <FORMULA>  (1727) 
C14H12N2O2

>  <EXACT MASS>  (1727) 
240.089877624

>  <MW>  (1727) 
240

>  <ID>  (1727) 
JP009470

>  <CONTRIBUTOR>  (1727) 
University of Tokyo Team, {Faculty of Engineering, University of Tokyo

>  <COMMENT>  (1727) 
SMILES=COC(=O)c(c3)c(N1)c(cc3)Nc(c2)c(ccc2)1
InChI=InChI=1S/C14H12N2O2/c1-18-14(17)9-5-4-8-12-13(9)16-11-7-3-2-6-10(11)15-12/h2-8,15-16H,1H3
computed SMILES=O=C(OC)C=1C=CC=C2NC=3C=CC=CC3NC21
accession=JP009470
date=2016.01.19 (Created 2008.10.21, modified 2011.05.06)
author=EGUCHI S, FAC. OF SCIENCE, HIROSHIMA UNIV.
license=CC BY-NC-SA
exact mass=240.08988
ionization energy=70 eV
ion type=[M]+*
computed spectral entropy=2.8536225184033848
computed normalized entropy=0.7902762088307117
SPLASH=splash10-0f8c-4920000000-fdff2828a62640f719b0
submitter=submitter = University of Tokyo Team (Faculty of Engineering, University of Tokyo)
MoNA Rating=3.75

>  <NUM PEAKS>  (1727) 
37

>  <MASS SPECTRAL PEAKS>  (1727) 
50 20
51 13
53 2.5
63 7
74 1.5
75 11
76 8
77 21.5
88 2
90 31
91 2
101 2
102 10
103 1.5
104 30
113 2
120 2
125 2
126 3.5
128 1
129 1.5
140 1
151 1.5
152 8.5
153 3.5
154 1.5
178 1
179 32
180 99.99
181 19
182 1.5
207 10
208 20
209 2
239 2
240 31
241 5.5

>  <PREDICTED SPECTRUM>  (1727) 
33 63
34 11
37 33
38 112
39 248
40 121
41 61
44 67
45 158
50 279
51 313
52 244
53 167
54 68
55 28
59 118
60 21
61 86
62 149
63 315
64 201
65 164
66 45
67 4
69 45
70 8
71 29
72 18
73 0
74 179
75 264
76 344
77 422
78 239
79 23
80 10
81 19
84 8
85 34
86 23
87 98
88 90
89 81
90 250
91 122
92 166
93 29
97 22
98 21
99 79
100 19
101 58
102 224
103 153
104 349
105 111
109 0
111 1
113 76
114 96
115 92
116 34
117 4
119 29
120 13
122 8
124 7
125 45
126 143
127 109
128 56
140 59
151 183
152 444
153 334
154 198
155 51
156 12
165 10
178 95
179 638
180 999
181 465
182 159
183 6
207 349
208 500
209 206
239 121
240 584
241 202
242 13

$$$$

     RDKit          2D

 18 20  0  0  0  0  0  0  0  0999 V2000
    3.8990   -5.2500    0.0000 C   0  0  0  0  0  0  0  0  0  0  0  0
   -3.9000    0.7500    0.0000 C   0  0  0  0  0  0  0  0  0  0  0  0
   -3.9000   -0.7500    0.0000 C   0  0  0  0  0  0  0  0  0  0  0  0
    3.9000    0.7500    0.0000 C   0  0  0  0  0  0  0  0  0  0  0  0
    3.9000   -0.7500    0.0000 C   0  0  0  0  0  0  0  0  0  0  0  0
   -2.6000    1.5000    0.0000 C   0  0  0  0  0  0  0  0  0  0  0  0
   -2.6000   -1.5000    0.0000 C   0  0  0  0  0  0  0  0  0  0  0  0
    2.6000    1.5000    0.0000 C   0  0  0  0  0  0  0  0  0  0  0  0
    2.6000   -1.5000    0.0000 C   0  0  0  0  0  0  0  0  0  0  0  0
   -1.3000    0.7500    0.0000 C   0  0  0  0  0  0  0  0  0  0  0  0
   -1.3000   -0.7500    0.0000 C   0  0  0  0  0  0  0  0  0  0  0  0
    1.3000    0.7500    0.0000 C   0  0  0  0  0  0  0  0  0  0  0  0
    1.3000   -0.7500    0.0000 C   0  0  0  0  0  0  0  0  0  0  0  0
    2.6000   -3.0000    0.0000 C   0  0  0  0  0  0  0  0  0  0  0  0
    0.0000    1.5000    0.0000 N   0  0  0  0  0  0  0  0  0  0  0  0
    0.0000   -1.5000    0.0000 N   0  0  0  0  0  0  0  0  0  0  0  0
    1.3010   -3.7500    0.0000 O   0  0  0  0  0  0  0  0  0  0  0  0
    3.8990   -3.7500    0.0000 O   0  0  0  0  0  0  0  0  0  0  0  0
  3  2  2  0
  5  4  1  0
  6  2  1  0
  7  3  1  0
  8  4  2  0
  9  5  2  0
 10  6  2  0
 11  7  2  0
 11 10  1  0
 12  8  1  0
 13  9  1  0
 13 12  1  0
 14  9  1  0
 15 10  1  0
 15 12  2  0
 16 11  1  0
 16 13  2  0
 17 14  2  0
 18  1  1  0
 18 14  1  0
M  END
>  <NAME>  (1728) 
1-METHOXYCARBONYLPHENAZINE

>  <SYNONYMS>  (1728) 


>  <SPECTRUM TYPE>  (1728) 
MS1

>  <INSTRUMENT TYPE>  (1728) 
EI-B

>  <INSTRUMENT>  (1728) 
HITACHI RMU-7L

>  <ION MODE>  (1728) 
P

>  <INCHIKEY>  (1728) 
UEHCMQFOWIRZGQ-UHFFFAOYSA-N

>  <FORMULA>  (1728) 
C14H10N2O2

>  <EXACT MASS>  (1728) 
238.07422756

>  <MW>  (1728) 
238

>  <ID>  (1728) 
JP009469

>  <CONTRIBUTOR>  (1728) 
University of Tokyo Team, {Faculty of Engineering, University of Tokyo

>  <COMMENT>  (1728) 
SMILES=COC(=O)c(c3)c(n1)c(cc3)nc(c2)c(ccc2)1
InChI=InChI=1S/C14H10N2O2/c1-18-14(17)9-5-4-8-12-13(9)16-11-7-3-2-6-10(11)15-12/h2-8H,1H3
computed SMILES=O=C(OC)C=1C=CC=C2N=C3C=CC=CC3=NC21
accession=JP009469
date=2016.01.19 (Created 2008.10.21, modified 2011.05.06)
author=EGUCHI S, FAC. OF SCIENCE, HIROSHIMA UNIV.
license=CC BY-NC-SA
exact mass=238.07423
ionization energy=70 eV
ion type=[M]+*
computed spectral entropy=2.474889514117524
computed normalized entropy=0.6853906884593777
SPLASH=splash10-001r-1920000000-11f505ddc9ae078a3765
submitter=submitter = University of Tokyo Team (Faculty of Engineering, University of Tokyo)
MoNA Rating=3.75

>  <NUM PEAKS>  (1728) 
37

>  <MASS SPECTRAL PEAKS>  (1728) 
50 5.5
51 3
52 1
57 1
62 1.5
63 1.5
74 1.5
75 4.5
76 2
77 1
89 2
89.5 12.5
90 2
101 1.5
102 9
103.5 8
104 1.5
119 1.5
127 2
128 2
129 3
140 1
151 1.5
152 13
153 3.5
167 1
178 1
179 51.5
180 99.99
181 11
182 1
194 1
208 8
223 1
237 1
238 45
239 6

>  <PREDICTED SPECTRUM>  (1728) 
15 36
26 13
27 21
28 25
29 33
33 4
38 18
39 89
40 18
41 1
42 4
43 104
44 69
45 39
49 14
50 194
51 184
52 129
55 2
59 19
61 25
62 88
63 155
64 136
74 101
75 268
76 342
77 208
78 60
88 61
89 58
90 179
99 53
100 87
101 117
102 360
103 108
104 48
112 10
113 26
125 54
126 50
127 34
128 79
129 233
140 95
150 81
151 217
152 396
153 165
166 1
176 27
177 146
178 166
179 755
180 655
181 241
195 13
205 142
206 221
207 542
208 229
209 79
210 7
223 147
224 39
237 74
238 999
239 423
240 70

$$$$

     RDKit          2D

 17 19  0  0  0  0  0  0  0  0999 V2000
   -3.9000    0.7500    0.0000 C   0  0  0  0  0  0  0  0  0  0  0  0
   -3.9000   -0.7500    0.0000 C   0  0  0  0  0  0  0  0  0  0  0  0
    3.9000    0.7500    0.0000 C   0  0  0  0  0  0  0  0  0  0  0  0
    3.9000   -0.7500    0.0000 C   0  0  0  0  0  0  0  0  0  0  0  0
   -2.6000    1.5000    0.0000 C   0  0  0  0  0  0  0  0  0  0  0  0
   -2.6000   -1.5000    0.0000 C   0  0  0  0  0  0  0  0  0  0  0  0
    2.6000    1.5000    0.0000 C   0  0  0  0  0  0  0  0  0  0  0  0
    2.6000   -1.5000    0.0000 C   0  0  0  0  0  0  0  0  0  0  0  0
   -1.3000    0.7500    0.0000 C   0  0  0  0  0  0  0  0  0  0  0  0
   -1.3000   -0.7500    0.0000 C   0  0  0  0  0  0  0  0  0  0  0  0
    1.3000    0.7500    0.0000 C   0  0  0  0  0  0  0  0  0  0  0  0
    1.3000   -0.7500    0.0000 C   0  0  0  0  0  0  0  0  0  0  0  0
    2.6000   -3.0000    0.0000 C   0  0  0  0  0  0  0  0  0  0  0  0
    3.8990   -3.7500    0.0000 N   0  0  0  0  0  0  0  0  0  0  0  0
    0.0000    1.5000    0.0000 N   0  0  0  0  0  0  0  0  0  0  0  0
    0.0000   -1.5000    0.0000 N   0  0  0  0  0  0  0  0  0  0  0  0
    1.3010   -3.7500    0.0000 O   0  0  0  0  0  0  0  0  0  0  0  0
  2  1  2  0
  4  3  2  0
  5  1  1  0
  6  2  1  0
  7  3  1  0
  8  4  1  0
  9  5  2  0
 10  6  2  0
 10  9  1  0
 11  7  2  0
 12  8  2  0
 12 11  1  0
 13  8  1  0
 14 13  2  0
 15  9  1  0
 15 11  1  0
 16 10  1  0
 16 12  1  0
 17 13  1  0
M  END
>  <NAME>  (1729) 
5,10-DIHYDROPHENAZINE-1-CARBOXAMIDE

>  <SYNONYMS>  (1729) 


>  <SPECTRUM TYPE>  (1729) 
MS1

>  <INSTRUMENT TYPE>  (1729) 
EI-B

>  <INSTRUMENT>  (1729) 
HITACHI RMU-7L

>  <ION MODE>  (1729) 
P

>  <INCHIKEY>  (1729) 
MGGYDPTZXGZDOD-UHFFFAOYSA-N

>  <FORMULA>  (1729) 
C13H11N3O

>  <EXACT MASS>  (1729) 
225.090211972

>  <MW>  (1729) 
225

>  <ID>  (1729) 
JP009468

>  <CONTRIBUTOR>  (1729) 
University of Tokyo Team, {Faculty of Engineering, University of Tokyo

>  <COMMENT>  (1729) 
SMILES=NC(=O)c(c3)c(N1)c(cc3)Nc(c2)c(ccc2)1
InChI=InChI=1S/C13H11N3O/c14-13(17)8-4-3-7-11-12(8)16-10-6-2-1-5-9(10)15-11/h1-7,15-16H,(H2,14,17)
computed SMILES=N=C(O)C=1C=CC=C2NC=3C=CC=CC3NC21
accession=JP009468
date=2016.01.19 (Created 2008.10.21, modified 2011.05.06)
author=EGUCHI S, FAC. OF SCIENCE, HIROSHIMA UNIV.
license=CC BY-NC-SA
exact mass=225.09021
ionization energy=70 eV
ion type=[M]+*
computed spectral entropy=2.8457209351175474
computed normalized entropy=0.7880879610009373
SPLASH=splash10-0f8c-4920000000-becaf8828a15dea33fa5
submitter=submitter = University of Tokyo Team (Faculty of Engineering, University of Tokyo)
MoNA Rating=3.75

>  <NUM PEAKS>  (1729) 
37

>  <MASS SPECTRAL PEAKS>  (1729) 
50 20
51 13
53 2.5
63 7
74 1.5
75 11
76 8
77 21.5
88 2
90 31
91 2
101 2
102 10
103 1.5
104 30
113 2
120 2
125 2
126 3
128 1
129 1.5
140 1
151 2
152 8
153 3.5
154 1
178 1
179 32
180 99.99
181 18
182 1.5
207 10
208 20
209 2
239 1.5
240 31
241 5.5

>  <PREDICTED SPECTRUM>  (1729) 
17 21
18 19
30 2
37 2
38 71
39 171
40 54
41 62
42 21
43 53
44 57
45 53
50 216
51 254
52 214
53 80
54 64
55 8
58 7
60 20
61 47
62 111
63 300
64 213
65 240
66 91
67 17
68 5
69 69
70 7
73 8
74 162
75 314
76 402
77 336
78 167
79 26
80 62
82 47
87 49
88 110
89 232
90 407
91 103
92 283
93 53
96 18
97 25
99 10
100 5
101 57
102 381
103 207
104 284
110 2
111 3
113 32
114 79
115 124
116 41
117 12
119 44
120 113
122 64
123 17
125 69
126 121
128 156
129 52
137 1
139 85
140 68
144 10
150 115
151 182
152 158
153 162
154 5
155 60
164 77
165 113
166 34
167 70
169 46
170 40
177 182
178 500
179 767
180 469
181 189
196 184
197 104
198 31
205 37
206 204
207 555
208 417
209 198
223 193
224 630
225 999
226 351
227 87

$$$$

     RDKit          2D

 17 19  0  0  0  0  0  0  0  0999 V2000
   -3.9000    0.7500    0.0000 C   0  0  0  0  0  0  0  0  0  0  0  0
   -3.9000   -0.7500    0.0000 C   0  0  0  0  0  0  0  0  0  0  0  0
   -2.6000    1.5000    0.0000 C   0  0  0  0  0  0  0  0  0  0  0  0
   -2.6000   -1.5000    0.0000 C   0  0  0  0  0  0  0  0  0  0  0  0
    3.9000    0.7500    0.0000 C   0  0  0  0  0  0  0  0  0  0  0  0
    2.6000    1.5000    0.0000 C   0  0  0  0  0  0  0  0  0  0  0  0
    2.6000   -1.5000    0.0000 C   0  0  0  0  0  0  0  0  0  0  0  0
    3.9000   -0.7500    0.0000 C   0  0  0  0  0  0  0  0  0  0  0  0
   -1.3000    0.7500    0.0000 C   0  0  0  0  0  0  0  0  0  0  0  0
   -1.3000   -0.7500    0.0000 C   0  0  0  0  0  0  0  0  0  0  0  0
    1.3000    0.7500    0.0000 C   0  0  0  0  0  0  0  0  0  0  0  0
    1.3000   -0.7500    0.0000 C   0  0  0  0  0  0  0  0  0  0  0  0
    5.1989   -1.5002    0.0000 C   0  0  0  0  0  0  0  0  0  0  0  0
    6.4981   -0.7504    0.0000 N   0  0  0  0  0  0  0  0  0  0  0  0
    0.0000    1.5000    0.0000 N   0  0  0  0  0  0  0  0  0  0  0  0
    0.0000   -1.5000    0.0000 N   0  0  0  0  0  0  0  0  0  0  0  0
    5.1987   -3.0002    0.0000 O   0  0  0  0  0  0  0  0  0  0  0  0
  2  1  2  0
  3  1  1  0
  4  2  1  0
  6  5  2  0
  8  5  1  0
  8  7  2  0
  9  3  2  0
 10  4  2  0
 10  9  1  0
 11  6  1  0
 12  7  1  0
 12 11  1  0
 13  8  1  0
 14 13  2  0
 15  9  1  0
 15 11  2  0
 16 10  1  0
 16 12  2  0
 17 13  1  0
M  END
>  <NAME>  (1730) 
PHENAZINE-2-CARBOXAMIDE

>  <SYNONYMS>  (1730) 


>  <SPECTRUM TYPE>  (1730) 
MS1

>  <INSTRUMENT TYPE>  (1730) 
EI-B

>  <INSTRUMENT>  (1730) 
HITACHI RMU-7L

>  <ION MODE>  (1730) 
P

>  <INCHIKEY>  (1730) 
HBUAKGFNHSQHSX-UHFFFAOYSA-N

>  <FORMULA>  (1730) 
C13H9N3O

>  <EXACT MASS>  (1730) 
223.074561908

>  <MW>  (1730) 
223

>  <ID>  (1730) 
JP009467

>  <CONTRIBUTOR>  (1730) 
University of Tokyo Team, {Faculty of Engineering, University of Tokyo

>  <COMMENT>  (1730) 
SMILES=NC(=O)c(c3)cc(n1)c(c3)nc(c2)c(ccc2)1
InChI=InChI=1S/C13H9N3O/c14-13(17)8-5-6-11-12(7-8)16-10-4-2-1-3-9(10)15-11/h1-7H,(H2,14,17)
computed SMILES=N=C(O)C1=CC=C2N=C3C=CC=CC3=NC2=C1
accession=JP009467
date=2016.01.19 (Created 2008.10.21, modified 2011.05.06)
author=EGUCHI S, FAC. OF SCIENCE, HIROSHIMA UNIV.
license=CC BY-NC-SA
exact mass=223.07456
ionization energy=70 eV
ion type=[M]+*
computed spectral entropy=2.822100536767131
computed normalized entropy=0.7503191667446649
SPLASH=splash10-00ai-2930000000-0f000fd038cb05801765
submitter=submitter = University of Tokyo Team (Faculty of Engineering, University of Tokyo)
MoNA Rating=3.75

>  <NUM PEAKS>  (1730) 
43

>  <MASS SPECTRAL PEAKS>  (1730) 
50 11
51 11
52 4.5
62 2
63 6
64 2.5
74 4.5
75 12
76 7
77 6.5
78 1.5
89 3
90 3
101 2.5
102 18
103 5
104 1
112 1
116 0.5
125 3
126 1
127 1.5
128 2
129 3
151 3.5
152 13
153 5.5
154 1
168 1.5
177 2
179 51
180 99.99
181 15.5
182 1.5
195 4.5
196 1
205 1
206 7
207 11
208 1.5
222 1
223 60
224 7

>  <PREDICTED SPECTRUM>  (1730) 
17 9
26 30
27 31
28 15
37 50
38 76
39 179
40 57
41 111
42 1
43 139
44 89
45 54
49 28
50 281
51 273
52 142
53 18
54 5
61 51
62 129
63 202
64 176
65 72
66 6
69 101
70 65
71 57
73 24
74 179
75 270
76 327
77 186
78 101
81 13
82 44
83 43
84 64
86 30
87 85
88 125
89 127
90 152
91 25
92 25
95 11
96 60
97 36
98 48
99 70
100 78
101 105
102 275
103 68
104 81
105 28
106 14
110 19
112 16
113 57
114 88
115 103
116 35
117 83
118 29
119 16
120 65
124 8
125 67
126 123
127 160
128 126
129 57
131 26
132 25
140 83
141 33
142 33
143 21
151 83
152 147
153 153
154 146
155 88
164 59
166 6
167 61
168 85
169 156
170 104
171 23
177 92
178 211
179 264
180 330
181 221
182 74
183 56
193 61
194 99
195 163
196 182
197 181
198 63
206 146
207 75
208 10
220 28
221 112
222 381
223 999
224 394
225 134
226 11

$$$$

     RDKit          2D

 18 20  0  0  0  0  0  0  0  0999 V2000
   -3.9000    0.7500    0.0000 C   0  0  0  0  0  0  0  0  0  0  0  0
   -3.9000   -0.7500    0.0000 C   0  0  0  0  0  0  0  0  0  0  0  0
   -2.6000    1.5000    0.0000 C   0  0  0  0  0  0  0  0  0  0  0  0
   -2.6000   -1.5000    0.0000 C   0  0  0  0  0  0  0  0  0  0  0  0
    2.6000    1.5000    0.0000 C   0  0  0  0  0  0  0  0  0  0  0  0
    3.9000    0.7500    0.0000 C   0  0  0  0  0  0  0  0  0  0  0  0
   -1.3000    0.7500    0.0000 C   0  0  0  0  0  0  0  0  0  0  0  0
   -1.3000   -0.7500    0.0000 C   0  0  0  0  0  0  0  0  0  0  0  0
    1.3000    0.7500    0.0000 C   0  0  0  0  0  0  0  0  0  0  0  0
    3.9000   -0.7500    0.0000 C   0  0  0  0  0  0  0  0  0  0  0  0
    2.6000   -1.5000    0.0000 C   0  0  0  0  0  0  0  0  0  0  0  0
    1.3000   -0.7500    0.0000 C   0  0  0  0  0  0  0  0  0  0  0  0
    2.6000   -3.0000    0.0000 C   0  0  0  0  0  0  0  0  0  0  0  0
    0.0000    1.5000    0.0000 N   0  0  0  0  0  0  0  0  0  0  0  0
    0.0000   -1.5000    0.0000 N   0  0  0  0  0  0  0  0  0  0  0  0
    5.1989   -1.5002    0.0000 O   0  0  0  0  0  0  0  0  0  0  0  0
    1.3010   -3.7500    0.0000 O   0  0  0  0  0  0  0  0  0  0  0  0
    3.8990   -3.7500    0.0000 O   0  0  0  0  0  0  0  0  0  0  0  0
  2  1  2  0
  3  1  1  0
  4  2  1  0
  6  5  2  0
  7  3  2  0
  8  4  2  0
  8  7  1  0
  9  5  1  0
 10  6  1  0
 11 10  2  0
 12  9  1  0
 12 11  1  0
 13 11  1  0
 14  7  1  0
 14  9  2  0
 15  8  1  0
 15 12  2  0
 16 10  1  0
 17 13  2  0
 18 13  1  0
M  END
>  <NAME>  (1731) 
1-CARBOXY-2-HYDROXYPHENAZINE

>  <SYNONYMS>  (1731) 


>  <SPECTRUM TYPE>  (1731) 
MS1

>  <INSTRUMENT TYPE>  (1731) 
EI-B

>  <INSTRUMENT>  (1731) 
HITACHI RMU-7L

>  <ION MODE>  (1731) 
P

>  <INCHIKEY>  (1731) 
GXLWPTUCVZRTBQ-UHFFFAOYSA-N

>  <FORMULA>  (1731) 
C13H8N2O3

>  <EXACT MASS>  (1731) 
240.05349211599997

>  <MW>  (1731) 
240

>  <ID>  (1731) 
JP009466

>  <CONTRIBUTOR>  (1731) 
University of Tokyo Team, {Faculty of Engineering, University of Tokyo

>  <COMMENT>  (1731) 
SMILES=OC(=O)c(c(O)3)c(n1)c(cc3)nc(c2)c(ccc2)1
InChI=InChI=1S/C13H8N2O3/c16-10-6-5-9-12(11(10)13(17)18)15-8-4-2-1-3-7(8)14-9/h1-6,16H,(H,17,18)
computed SMILES=O=C(O)C=1C(O)=CC=C2N=C3C=CC=CC3=NC21
accession=JP009466
date=2016.01.19 (Created 2008.10.21, modified 2011.05.06)
author=EGUCHI S, FAC. OF SCIENCE, HIROSHIMA UNIV.
license=CC BY-NC-SA
exact mass=240.05349
ionization energy=70 eV
ion type=[M]+*
computed spectral entropy=3.26042565854953
computed normalized entropy=0.8251644015824177
SPLASH=splash10-00ke-4920000000-222019157340a3bba12e
submitter=submitter = University of Tokyo Team (Faculty of Engineering, University of Tokyo)
MoNA Rating=3.75

>  <NUM PEAKS>  (1731) 
52

>  <MASS SPECTRAL PEAKS>  (1731) 
50 18
51 13
52 5
53 2
61 4.5
62 12
63 16
64 10
65 2.5
74 4.5
75 8
76 10
77 20
78 1
83 3
84 1.5
88 4
89 9.5
90 3.5
97 16
102 19
103 3
104 6
115 7
116 1
118 1
129 1.5
139 11
140 11
141 1.5
142 3
152 1
153 1
165 8
166 41
167 10
168 76
169 10
179 2
180 12
181 1
194 18
195 5
196 99.99
197 18
198 1
221 1
222 45
223 8
240 50
241 10
242 1

>  <PREDICTED SPECTRUM>  (1731) 
17 14
18 2
26 22
27 47
28 66
29 113
36 32
37 66
38 127
39 178
40 82
41 61
42 43
43 26
44 199
45 99
49 16
50 194
51 227
52 208
53 146
54 74
55 27
57 5
61 55
62 143
63 212
64 195
65 165
66 71
67 9
68 16
69 1
74 133
75 224
76 216
77 209
78 145
79 62
80 38
81 13
82 14
83 13
84 34
86 11
87 62
88 98
89 132
90 177
91 91
92 113
93 16
97 24
98 6
100 27
101 87
102 260
103 107
104 53
105 25
106 19
110 10
111 16
112 44
113 78
114 114
115 83
116 56
117 24
118 2
119 23
126 11
127 47
128 53
129 72
130 13
138 46
139 249
140 271
141 220
142 183
143 15
144 33
151 11
152 45
153 74
154 7
155 28
156 7
165 168
166 338
167 312
168 547
169 229
170 14
179 38
180 57
181 73
183 34
194 355
195 192
196 999
197 326
198 47
221 36
222 398
223 203
239 1
240 454
241 159
242 3

$$$$

     RDKit          2D

 17 19  0  0  0  0  0  0  0  0999 V2000
   -3.9000    0.7500    0.0000 C   0  0  0  0  0  0  0  0  0  0  0  0
   -3.9000   -0.7500    0.0000 C   0  0  0  0  0  0  0  0  0  0  0  0
    3.9000    0.7500    0.0000 C   0  0  0  0  0  0  0  0  0  0  0  0
    3.9000   -0.7500    0.0000 C   0  0  0  0  0  0  0  0  0  0  0  0
   -2.6000    1.5000    0.0000 C   0  0  0  0  0  0  0  0  0  0  0  0
   -2.6000   -1.5000    0.0000 C   0  0  0  0  0  0  0  0  0  0  0  0
    2.6000    1.5000    0.0000 C   0  0  0  0  0  0  0  0  0  0  0  0
    2.6000   -1.5000    0.0000 C   0  0  0  0  0  0  0  0  0  0  0  0
   -1.3000    0.7500    0.0000 C   0  0  0  0  0  0  0  0  0  0  0  0
   -1.3000   -0.7500    0.0000 C   0  0  0  0  0  0  0  0  0  0  0  0
    1.3000    0.7500    0.0000 C   0  0  0  0  0  0  0  0  0  0  0  0
    1.3000   -0.7500    0.0000 C   0  0  0  0  0  0  0  0  0  0  0  0
    2.6000   -3.0000    0.0000 C   0  0  0  0  0  0  0  0  0  0  0  0
    0.0000    1.5000    0.0000 N   0  0  0  0  0  0  0  0  0  0  0  0
    0.0000   -1.5000    0.0000 N   0  0  0  0  0  0  0  0  0  0  0  0
    1.3010   -3.7500    0.0000 O   0  0  0  0  0  0  0  0  0  0  0  0
    3.8990   -3.7500    0.0000 O   0  0  0  0  0  0  0  0  0  0  0  0
  2  1  2  0
  4  3  2  0
  5  1  1  0
  6  2  1  0
  7  3  1  0
  8  4  1  0
  9  5  2  0
 10  6  2  0
 10  9  1  0
 11  7  2  0
 12  8  2  0
 12 11  1  0
 13  8  1  0
 14  9  1  0
 14 11  1  0
 15 10  1  0
 15 12  1  0
 16 13  2  0
 17 13  1  0
M  END
>  <NAME>  (1732) 
1-CARBOXY-5,10-DIHYDROPHENAZINE

>  <SYNONYMS>  (1732) 


>  <SPECTRUM TYPE>  (1732) 
MS1

>  <INSTRUMENT TYPE>  (1732) 
EI-B

>  <INSTRUMENT>  (1732) 
HITACHI RMU-7L

>  <ION MODE>  (1732) 
P

>  <INCHIKEY>  (1732) 
RWCXEOMFBZOODX-UHFFFAOYSA-N

>  <FORMULA>  (1732) 
C13H10N2O2

>  <EXACT MASS>  (1732) 
226.07422756

>  <MW>  (1732) 
226

>  <ID>  (1732) 
JP009465

>  <CONTRIBUTOR>  (1732) 
University of Tokyo Team, {Faculty of Engineering, University of Tokyo

>  <COMMENT>  (1732) 
SMILES=OC(=O)c(c3)c(N1)c(cc3)Nc(c2)c(ccc2)1
InChI=InChI=1S/C13H10N2O2/c16-13(17)8-4-3-7-11-12(8)15-10-6-2-1-5-9(10)14-11/h1-7,14-15H,(H,16,17)
computed SMILES=O=C(O)C=1C=CC=C2NC=3C=CC=CC3NC21
accession=JP009465
date=2016.01.19 (Created 2008.10.21, modified 2011.05.06)
author=EGUCHI S, FAC. OF SCIENCE, HIROSHIMA UNIV.
license=CC BY-NC-SA
exact mass=226.07423
ionization energy=70 eV
ion type=[M]+*
computed spectral entropy=3.0389206128499007
computed normalized entropy=0.7307059496356336
SPLASH=splash10-003r-3950000000-38726380cc412e7c4a41
submitter=submitter = University of Tokyo Team (Faculty of Engineering, University of Tokyo)
MoNA Rating=3.75

>  <NUM PEAKS>  (1732) 
64

>  <MASS SPECTRAL PEAKS>  (1732) 
50 4
51 5
52 3
53 2.5
54 2
62 1.5
63 5
64 2
65 1.5
69 1
71 1.5
74 2.5
75 4.5
76 6
76.5 2.5
77 8.5
78 3
84 0.5
85 0.5
86 1
87 1
88 1
89 1.5
89.5 2.5
90 11
90.5 3
91 1
95 1
97 1
99 1
100 1.5
101 2
102 5
103 3
103.5 1.5
104 10
104.5 2
105 1.5
113 2
124 0.5
125 2
126 1.5
127 4
128 2
129 3
130 1
140 1
151 2
152 7
153 8
154 4
155 1.5
179 32
180 99.99
181 20
182 2.5
207 6
208 17
209 3.5
210 1
225 4
226 86.5
227 9
228 2

>  <PREDICTED SPECTRUM>  (1732) 
17 10
18 2
33 4
34 7
37 27
38 80
39 193
40 105
41 52
43 46
44 92
45 160
49 0
50 204
51 248
52 238
53 126
54 74
55 39
57 53
61 51
62 116
63 285
64 202
65 146
66 80
67 33
68 30
69 93
70 120
71 77
73 6
74 143
75 228
76 302
77 301
78 170
79 101
80 56
81 19
82 32
83 35
84 14
85 1
87 14
88 8
89 117
90 312
91 91
92 200
93 32
96 67
97 71
98 0
99 67
100 16
101 68
102 209
103 150
104 223
105 135
109 21
110 15
111 11
112 14
113 67
114 11
123 35
125 97
126 164
127 59
128 117
130 71
139 18
140 63
150 2
151 258
152 287
153 234
154 122
155 12
165 20
178 11
179 365
180 999
181 416
182 119
207 80
208 368
209 110
210 28
224 39
225 130
226 691
227 265
228 53

$$$$

     RDKit          2D

 14 16  0  0  0  0  0  0  0  0999 V2000
   -3.9000    0.7500    0.0000 C   0  0  0  0  0  0  0  0  0  0  0  0
   -3.9000   -0.7500    0.0000 C   0  0  0  0  0  0  0  0  0  0  0  0
    3.9000    0.7500    0.0000 C   0  0  0  0  0  0  0  0  0  0  0  0
    3.9000   -0.7500    0.0000 C   0  0  0  0  0  0  0  0  0  0  0  0
   -2.6000    1.5000    0.0000 C   0  0  0  0  0  0  0  0  0  0  0  0
   -2.6000   -1.5000    0.0000 C   0  0  0  0  0  0  0  0  0  0  0  0
    2.6000    1.5000    0.0000 C   0  0  0  0  0  0  0  0  0  0  0  0
    2.6000   -1.5000    0.0000 C   0  0  0  0  0  0  0  0  0  0  0  0
   -1.3000    0.7500    0.0000 C   0  0  0  0  0  0  0  0  0  0  0  0
   -1.3000   -0.7500    0.0000 C   0  0  0  0  0  0  0  0  0  0  0  0
    1.3000    0.7500    0.0000 C   0  0  0  0  0  0  0  0  0  0  0  0
    1.3000   -0.7500    0.0000 C   0  0  0  0  0  0  0  0  0  0  0  0
    0.0000    1.5000    0.0000 N   0  0  0  0  0  0  0  0  0  0  0  0
    0.0000   -1.5000    0.0000 N   0  0  0  0  0  0  0  0  0  0  0  0
  2  1  2  0
  4  3  2  0
  5  1  1  0
  6  2  1  0
  7  3  1  0
  8  4  1  0
  9  5  2  0
 10  6  2  0
 10  9  1  0
 11  7  2  0
 12  8  2  0
 12 11  1  0
 13  9  1  0
 13 11  1  0
 14 10  1  0
 14 12  1  0
M  END
>  <NAME>  (1733) 
5,10-DIHYDROPHENAZINE

>  <SYNONYMS>  (1733) 


>  <SPECTRUM TYPE>  (1733) 
MS1

>  <INSTRUMENT TYPE>  (1733) 
EI-B

>  <INSTRUMENT>  (1733) 
HITACHI RMU-7L

>  <ION MODE>  (1733) 
P

>  <INCHIKEY>  (1733) 
IVURTNNWJAPOML-UHFFFAOYSA-N

>  <FORMULA>  (1733) 
C12H10N2

>  <EXACT MASS>  (1733) 
182.08439832

>  <MW>  (1733) 
182

>  <ID>  (1733) 
JP009464

>  <CONTRIBUTOR>  (1733) 
University of Tokyo Team, {Faculty of Engineering, University of Tokyo

>  <COMMENT>  (1733) 
SMILES=c(c3)cc(N1)c(c3)Nc(c2)c(ccc2)1
InChI=InChI=1S/C12H10N2/c1-2-6-10-9(5-1)13-11-7-3-4-8-12(11)14-10/h1-8,13-14H
computed SMILES=C=1C=CC=2NC=3C=CC=CC3NC2C1
accession=JP009464
date=2016.01.19 (Created 2008.10.21, modified 2011.05.06)
author=EGUCHI S, FAC. OF SCIENCE, HIROSHIMA UNIV.
license=CC BY-NC-SA
exact mass=182.0844
ionization energy=70 eV
ion type=[M]+*
computed spectral entropy=2.7935768551782436
computed normalized entropy=0.7141003136489746
SPLASH=splash10-001i-2900000000-1af52b77a34fe1bac3c3
submitter=submitter = University of Tokyo Team (Faculty of Engineering, University of Tokyo)
MoNA Rating=3.75

>  <NUM PEAKS>  (1733) 
50

>  <MASS SPECTRAL PEAKS>  (1733) 
50 4.5
51 5
52 3.5
53 4.5
65 1.5
66 2.5
67 3.5
68 1.5
74 1.5
75 3
76 4
77 16
78 4
89 1.5
90 6
90.5 4.5
91 1.5
91.5 2.5
99 1
100 1
101 1.5
102 4.5
103 2
104 1.5
105 1.5
125 2
126 3
127 2.5
128 3.5
129 2
130 1.5
137 1
138 1
139 1
140 1
141 1
149 1
150 1
151 1
152 2
153 3
154 3.5
155 1
156 1
179 6
180 11
181 46
182 99.99
183 15
184 2.5

>  <PREDICTED SPECTRUM>  (1733) 
17 1
18 1
26 54
27 105
28 94
37 86
38 156
39 266
40 81
41 73
43 132
44 95
50 339
51 485
52 368
53 140
54 88
55 43
57 16
61 62
62 97
63 336
64 253
65 269
66 43
69 0
71 4
73 223
74 178
75 314
76 351
77 538
78 359
79 118
80 96
85 5
87 100
90 96
92 195
93 51
99 24
101 226
102 235
103 220
104 337
113 35
114 64
115 66
119 45
126 105
127 223
128 191
129 48
130 3
131 45
139 7
140 32
142 43
143 8
148 72
149 72
150 119
151 111
152 191
153 497
154 341
155 181
156 158
165 134
167 83
177 20
178 140
179 164
180 495
181 585
182 999
183 328
184 89

$$$$

     RDKit          2D

 17 19  0  0  0  0  0  0  0  0999 V2000
   -3.9000    0.7500    0.0000 C   0  0  0  0  0  0  0  0  0  0  0  0
   -3.9000   -0.7500    0.0000 C   0  0  0  0  0  0  0  0  0  0  0  0
    3.9000    0.7500    0.0000 C   0  0  0  0  0  0  0  0  0  0  0  0
    3.9000   -0.7500    0.0000 C   0  0  0  0  0  0  0  0  0  0  0  0
   -2.6000    1.5000    0.0000 C   0  0  0  0  0  0  0  0  0  0  0  0
   -2.6000   -1.5000    0.0000 C   0  0  0  0  0  0  0  0  0  0  0  0
    2.6000    1.5000    0.0000 C   0  0  0  0  0  0  0  0  0  0  0  0
    2.6000   -1.5000    0.0000 C   0  0  0  0  0  0  0  0  0  0  0  0
   -1.3000    0.7500    0.0000 C   0  0  0  0  0  0  0  0  0  0  0  0
   -1.3000   -0.7500    0.0000 C   0  0  0  0  0  0  0  0  0  0  0  0
    1.3000    0.7500    0.0000 C   0  0  0  0  0  0  0  0  0  0  0  0
    1.3000   -0.7500    0.0000 C   0  0  0  0  0  0  0  0  0  0  0  0
    2.6000   -3.0000    0.0000 C   0  0  0  0  0  0  0  0  0  0  0  0
    0.0000    1.5000    0.0000 N   0  0  0  0  0  0  0  0  0  0  0  0
    0.0000   -1.5000    0.0000 N   0  0  0  0  0  0  0  0  0  0  0  0
    1.3010   -3.7500    0.0000 O   0  0  0  0  0  0  0  0  0  0  0  0
    3.8990   -3.7500    0.0000 O   0  0  0  0  0  0  0  0  0  0  0  0
  2  1  2  0
  4  3  1  0
  5  1  1  0
  6  2  1  0
  7  3  2  0
  8  4  2  0
  9  5  2  0
 10  6  2  0
 10  9  1  0
 11  7  1  0
 12  8  1  0
 12 11  1  0
 13  8  1  0
 14  9  1  0
 14 11  2  0
 15 10  1  0
 15 12  2  0
 16 13  2  0
 17 13  1  0
M  END
>  <NAME>  (1734) 
1-CARBOXYPHENAZINE

>  <SYNONYMS>  (1734) 


>  <SPECTRUM TYPE>  (1734) 
MS1

>  <INSTRUMENT TYPE>  (1734) 
EI-B

>  <INSTRUMENT>  (1734) 
HITACHI RMU-7L

>  <ION MODE>  (1734) 
P

>  <INCHIKEY>  (1734) 
JGCSKOVQDXEQHI-UHFFFAOYSA-N

>  <FORMULA>  (1734) 
C13H8N2O2

>  <EXACT MASS>  (1734) 
224.058577496

>  <MW>  (1734) 
224

>  <ID>  (1734) 
JP009463

>  <CONTRIBUTOR>  (1734) 
University of Tokyo Team, {Faculty of Engineering, University of Tokyo

>  <COMMENT>  (1734) 
SMILES=OC(=O)c(c3)c(n1)c(cc3)nc(c2)c(ccc2)1
InChI=InChI=1S/C13H8N2O2/c16-13(17)8-4-3-7-11-12(8)15-10-6-2-1-5-9(10)14-11/h1-7H,(H,16,17)
computed SMILES=O=C(O)C=1C=CC=C2N=C3C=CC=CC3=NC21
accession=JP009463
date=2016.01.19 (Created 2008.10.21, modified 2011.05.06)
author=EGUCHI S, FAC. OF SCIENCE, HIROSHIMA UNIV.
license=CC BY-NC-SA
exact mass=224.05858
ionization energy=70 eV
ion type=[M]+*
computed spectral entropy=2.503950618061407
computed normalized entropy=0.6742701025009578
SPLASH=splash10-001i-4900000000-16e3cd0ea477a37b7d29
submitter=submitter = University of Tokyo Team (Faculty of Engineering, University of Tokyo)
MoNA Rating=3.75

>  <NUM PEAKS>  (1734) 
41

>  <MASS SPECTRAL PEAKS>  (1734) 
50 12
51 13
52 4.5
55 1
57 1
61 2
63 6
64 1.5
65 1
69 1
71 0.5
74 2
75 9.5
76 6.5
77 3
78 1
89 1
90 7.5
99 0.5
100 1
101 1
102 5.5
103 3
125 3
126 1.5
127 2
128 1.5
130 1
140 1
154 2.5
170 1.5
177 0.5
178 1
179 23
180 99.99
181 13
182 1
207 1
224 2.5
225 1
226 0.5

>  <PREDICTED SPECTRUM>  (1734) 
16 0
17 19
18 13
26 28
27 9
28 48
29 6
36 11
37 75
38 122
39 209
40 83
41 131
42 24
43 75
44 177
45 171
46 6
49 42
50 301
51 309
52 210
53 117
54 47
55 27
56 15
60 64
61 82
62 155
63 245
64 199
65 140
66 54
67 5
69 15
70 21
72 4
73 26
74 215
75 342
76 361
77 275
78 166
79 26
80 5
81 10
82 36
83 21
84 68
85 14
86 72
87 89
88 106
89 124
90 177
91 76
92 61
96 84
97 101
98 100
99 86
100 115
101 142
102 313
103 121
104 8
105 69
106 23
109 11
110 47
111 36
112 60
113 40
114 93
115 96
116 26
122 14
123 103
124 50
125 143
126 170
127 178
128 166
129 89
134 27
138 24
139 130
140 89
141 48
142 22
149 91
150 152
151 257
152 381
153 245
154 116
155 13
164 1
165 49
166 45
167 92
168 52
170 48
171 5
177 134
178 298
179 571
180 999
181 392
182 196
194 18
195 65
196 32
197 23
198 17
205 50
206 224
207 217
208 122
209 105
223 94
224 485
225 190
226 55
227 12

$$$$

     RDKit          2D

 16 18  0  0  0  0  0  0  0  0999 V2000
   -3.9000    0.7500    0.0000 C   0  0  0  0  0  0  0  0  0  0  0  0
   -3.9000   -0.7500    0.0000 C   0  0  0  0  0  0  0  0  0  0  0  0
   -2.6000    1.5000    0.0000 C   0  0  0  0  0  0  0  0  0  0  0  0
   -2.6000   -1.5000    0.0000 C   0  0  0  0  0  0  0  0  0  0  0  0
    3.9000    0.7500    0.0000 C   0  0  0  0  0  0  0  0  0  0  0  0
    2.6000    1.5000    0.0000 C   0  0  0  0  0  0  0  0  0  0  0  0
    2.6000   -1.5000    0.0000 C   0  0  0  0  0  0  0  0  0  0  0  0
    5.1989   -1.5002    0.0000 C   0  0  0  0  0  0  0  0  0  0  0  0
    3.9000   -0.7500    0.0000 C   0  0  0  0  0  0  0  0  0  0  0  0
   -1.3000    0.7500    0.0000 C   0  0  0  0  0  0  0  0  0  0  0  0
   -1.3000   -0.7500    0.0000 C   0  0  0  0  0  0  0  0  0  0  0  0
    1.3000    0.7500    0.0000 C   0  0  0  0  0  0  0  0  0  0  0  0
    1.3000   -0.7500    0.0000 C   0  0  0  0  0  0  0  0  0  0  0  0
    6.4978   -2.2504    0.0000 N   0  0  0  0  0  0  0  0  0  0  0  0
    0.0000    1.5000    0.0000 N   0  0  0  0  0  0  0  0  0  0  0  0
    0.0000   -1.5000    0.0000 N   0  0  0  0  0  0  0  0  0  0  0  0
  2  1  2  0
  3  1  1  0
  4  2  1  0
  6  5  2  0
  9  5  1  0
  9  7  2  0
  9  8  1  0
 10  3  2  0
 11  4  2  0
 11 10  1  0
 12  6  1  0
 13  7  1  0
 13 12  1  0
 14  8  3  0
 15 10  1  0
 15 12  2  0
 16 11  1  0
 16 13  2  0
M  END
>  <NAME>  (1735) 
2-CYANOPHENAZINE

>  <SYNONYMS>  (1735) 


>  <SPECTRUM TYPE>  (1735) 
MS1

>  <INSTRUMENT TYPE>  (1735) 
EI-B

>  <INSTRUMENT>  (1735) 
HITACHI RMU-7L

>  <ION MODE>  (1735) 
P

>  <INCHIKEY>  (1735) 
IWDIQIINIKFOEB-UHFFFAOYSA-N

>  <FORMULA>  (1735) 
C13H7N3

>  <EXACT MASS>  (1735) 
205.063997224

>  <MW>  (1735) 
205

>  <ID>  (1735) 
JP009462

>  <CONTRIBUTOR>  (1735) 
University of Tokyo Team, {Faculty of Engineering, University of Tokyo

>  <COMMENT>  (1735) 
SMILES=N#Cc(c3)cc(n1)c(c3)nc(c2)c(ccc2)1
InChI=InChI=1S/C13H7N3/c14-8-9-5-6-12-13(7-9)16-11-4-2-1-3-10(11)15-12/h1-7H
computed SMILES=N#CC1=CC=C2N=C3C=CC=CC3=NC2=C1
accession=JP009462
date=2016.01.19 (Created 2008.10.21, modified 2011.05.06)
author=EGUCHI S, FAC. OF SCIENCE, HIROSHIMA UNIV.
license=CC BY-NC-SA
exact mass=205.064
ionization energy=70 eV
ion type=[M]+*
computed spectral entropy=2.5993446458599543
computed normalized entropy=0.8409281609949587
SPLASH=splash10-0a6r-3980000000-615070b68473a1c7afc2
submitter=submitter = University of Tokyo Team (Faculty of Engineering, University of Tokyo)
MoNA Rating=3.75

>  <NUM PEAKS>  (1735) 
22

>  <MASS SPECTRAL PEAKS>  (1735) 
75 18
76 21
77 9
100 7
101 8
102 8
102.5 15
103 9
127 7
128 9
149 9.5
151 7
152 5
153 5
154 6
177 6
178 15
179 10
204 10
205 99.99
206 14
207 2.5

>  <PREDICTED SPECTRUM>  (1735) 
26 10
37 24
38 24
39 64
40 10
44 20
49 8
50 219
51 206
52 95
61 4
62 47
63 119
64 120
65 8
69 50
74 110
75 240
76 266
77 175
78 72
84 4
87 22
88 56
89 37
90 42
99 81
100 122
101 147
102 302
103 103
108 9
110 37
113 50
114 11
124 11
125 42
126 101
127 112
128 53
129 16
150 73
151 196
152 170
153 183
154 126
155 2
160 19
161 6
163 26
165 51
176 10
177 129
178 243
179 216
180 24
188 22
203 58
204 244
205 999
206 378
207 104
208 0

$$$$

     RDKit          2D

 16 18  0  0  0  0  0  0  0  0999 V2000
    6.1481   -0.6504    0.0000 C   0  0  0  0  0  0  0  0  0  0  0  0
   -4.2400    0.8500    0.0000 C   0  0  0  0  0  0  0  0  0  0  0  0
   -4.2400   -0.6500    0.0000 C   0  0  0  0  0  0  0  0  0  0  0  0
   -2.9400    1.6000    0.0000 C   0  0  0  0  0  0  0  0  0  0  0  0
   -2.9400   -1.4000    0.0000 C   0  0  0  0  0  0  0  0  0  0  0  0
    3.5500    0.8500    0.0000 C   0  0  0  0  0  0  0  0  0  0  0  0
    2.2500    1.6000    0.0000 C   0  0  0  0  0  0  0  0  0  0  0  0
    2.2500   -1.4000    0.0000 C   0  0  0  0  0  0  0  0  0  0  0  0
    3.5500   -0.6500    0.0000 C   0  0  0  0  0  0  0  0  0  0  0  0
   -1.6500    0.8500    0.0000 C   0  0  0  0  0  0  0  0  0  0  0  0
   -1.6500   -0.6500    0.0000 C   0  0  0  0  0  0  0  0  0  0  0  0
    0.9500    0.8500    0.0000 C   0  0  0  0  0  0  0  0  0  0  0  0
    0.9500   -0.6500    0.0000 C   0  0  0  0  0  0  0  0  0  0  0  0
   -0.3500    1.6000    0.0000 N   0  0  0  0  0  0  0  0  0  0  0  0
   -0.3500   -1.4000    0.0000 N   0  0  0  0  0  0  0  0  0  0  0  0
    4.8489   -1.4002    0.0000 O   0  0  0  0  0  0  0  0  0  0  0  0
  3  2  2  0
  4  2  1  0
  5  3  1  0
  7  6  2  0
  9  6  1  0
  9  8  2  0
 10  4  2  0
 11  5  2  0
 11 10  1  0
 12  7  1  0
 13  8  1  0
 13 12  1  0
 14 10  1  0
 14 12  2  0
 15 11  1  0
 15 13  2  0
 16  1  1  0
 16  9  1  0
M  END
>  <NAME>  (1736) 
2-METHOXYPHENAZINE

>  <SYNONYMS>  (1736) 


>  <SPECTRUM TYPE>  (1736) 
MS1

>  <INSTRUMENT TYPE>  (1736) 
EI-B

>  <INSTRUMENT>  (1736) 
HITACHI RMU-7L

>  <ION MODE>  (1736) 
P

>  <INCHIKEY>  (1736) 
YGSXHEXJOFMTHZ-UHFFFAOYSA-N

>  <FORMULA>  (1736) 
C13H10N2O

>  <EXACT MASS>  (1736) 
210.07931294

>  <MW>  (1736) 
210

>  <ID>  (1736) 
JP009461

>  <CONTRIBUTOR>  (1736) 
University of Tokyo Team, {Faculty of Engineering, University of Tokyo

>  <COMMENT>  (1736) 
SMILES=COc(c3)cc(n1)c(c3)nc(c2)c(ccc2)1
InChI=InChI=1S/C13H10N2O/c1-16-9-6-7-12-13(8-9)15-11-5-3-2-4-10(11)14-12/h2-8H,1H3
computed SMILES=N1=C2C=CC=CC2=NC3=CC(OC)=CC=C13
accession=JP009461
date=2016.01.19 (Created 2008.10.21, modified 2011.05.06)
author=EGUCHI S, FAC. OF SCIENCE, HIROSHIMA UNIV.
license=CC BY-NC-SA
exact mass=210.07931
ionization energy=70 eV
ion type=[M]+*
computed spectral entropy=2.2398007977563803
computed normalized entropy=0.7606884753272963
SPLASH=splash10-03xr-3890000000-bd0f019fa2d2517d6602
submitter=submitter = University of Tokyo Team (Faculty of Engineering, University of Tokyo)
MoNA Rating=3.75

>  <NUM PEAKS>  (1736) 
19

>  <MASS SPECTRAL PEAKS>  (1736) 
62 6
63 15
64 4
74 5
75 8
76 10
77 6
102 5.5
113 5
114 6
140 9
167 70
168 10
180 8
181 6
209 7
210 99.99
211 14
212 2

>  <PREDICTED SPECTRUM>  (1736) 
15 2
27 8
28 1
38 34
39 95
40 3
50 151
51 160
52 86
53 12
55 5
61 20
62 91
63 201
64 157
65 38
74 61
75 182
76 205
77 177
78 70
86 14
87 10
88 7
89 22
90 138
92 37
97 2
99 8
101 0
102 173
103 27
112 0
113 57
114 103
115 64
129 67
138 37
139 145
140 234
141 66
142 6
151 34
152 58
153 30
165 45
166 150
167 826
168 315
169 78
178 5
179 105
180 206
181 164
182 90
183 6
194 11
195 237
196 72
209 114
210 999
211 413
212 98

$$$$

     RDKit          2D

 15 17  0  0  0  0  0  0  0  0999 V2000
   -4.2400    0.8500    0.0000 C   0  0  0  0  0  0  0  0  0  0  0  0
   -4.2400   -0.6500    0.0000 C   0  0  0  0  0  0  0  0  0  0  0  0
   -2.9400    1.6000    0.0000 C   0  0  0  0  0  0  0  0  0  0  0  0
   -2.9400   -1.4000    0.0000 C   0  0  0  0  0  0  0  0  0  0  0  0
    3.5500    0.8500    0.0000 C   0  0  0  0  0  0  0  0  0  0  0  0
    2.2500    1.6000    0.0000 C   0  0  0  0  0  0  0  0  0  0  0  0
    2.2500   -1.4000    0.0000 C   0  0  0  0  0  0  0  0  0  0  0  0
    3.5500   -0.6500    0.0000 C   0  0  0  0  0  0  0  0  0  0  0  0
   -1.6500    0.8500    0.0000 C   0  0  0  0  0  0  0  0  0  0  0  0
   -1.6500   -0.6500    0.0000 C   0  0  0  0  0  0  0  0  0  0  0  0
    0.9500    0.8500    0.0000 C   0  0  0  0  0  0  0  0  0  0  0  0
    0.9500   -0.6500    0.0000 C   0  0  0  0  0  0  0  0  0  0  0  0
   -0.3500    1.6000    0.0000 N   0  0  0  0  0  0  0  0  0  0  0  0
   -0.3500   -1.4000    0.0000 N   0  0  0  0  0  0  0  0  0  0  0  0
    4.8489   -1.4002    0.0000 O   0  0  0  0  0  0  0  0  0  0  0  0
  2  1  2  0
  3  1  1  0
  4  2  1  0
  6  5  2  0
  8  5  1  0
  8  7  2  0
  9  3  2  0
 10  4  2  0
 10  9  1  0
 11  6  1  0
 12  7  1  0
 12 11  1  0
 13  9  1  0
 13 11  2  0
 14 10  1  0
 14 12  2  0
 15  8  1  0
M  END
>  <NAME>  (1737) 
2-HYDROXYPHENAZINE

>  <SYNONYMS>  (1737) 


>  <SPECTRUM TYPE>  (1737) 
MS1

>  <INSTRUMENT TYPE>  (1737) 
EI-B

>  <INSTRUMENT>  (1737) 
HITACHI RMU-7L

>  <ION MODE>  (1737) 
P

>  <INCHIKEY>  (1737) 
RETSEGNZNUBJRB-UHFFFAOYSA-N

>  <FORMULA>  (1737) 
C12H8N2O

>  <EXACT MASS>  (1737) 
196.063662876

>  <MW>  (1737) 
196

>  <ID>  (1737) 
JP009460

>  <CONTRIBUTOR>  (1737) 
University of Tokyo Team, {Faculty of Engineering, University of Tokyo

>  <COMMENT>  (1737) 
SMILES=Oc(c3)cc(n1)c(c3)nc(c2)c(ccc2)1
InChI=InChI=1S/C12H8N2O/c15-8-5-6-11-12(7-8)14-10-4-2-1-3-9(10)13-11/h1-7,15H
computed SMILES=OC1=CC=C2N=C3C=CC=CC3=NC2=C1
accession=JP009460
date=2016.01.19 (Created 2008.10.21, modified 2011.05.06)
author=EGUCHI S, FAC. OF SCIENCE, HIROSHIMA UNIV.
license=CC BY-NC-SA
exact mass=196.06366
ionization energy=70 eV
ion type=[M]+*
computed spectral entropy=3.092045681455826
computed normalized entropy=0.8696886009412255
SPLASH=splash10-00mk-5900000000-022a68c2a1b0a88c68a3
submitter=submitter = University of Tokyo Team (Faculty of Engineering, University of Tokyo)
MoNA Rating=3.75

>  <NUM PEAKS>  (1737) 
35

>  <MASS SPECTRAL PEAKS>  (1737) 
74 15
75 25
76 38
77 35
78 16
88 9
89 13
90 11
91 7
92 10
98 35
99 3
100 1
102 20
103 7
114 13
115 10
117 7
118 5
119 8
120 2.5
129 10
130 1.5
140 29
141 17
142 15
143 2
167 25
168 68
169 15
195 10
196 99.99
197 13.5
198 2.5
199 1

>  <PREDICTED SPECTRUM>  (1737) 
27 59
28 30
37 26
38 60
39 119
40 27
41 65
43 59
44 44
50 152
51 174
52 94
53 30
55 54
56 5
57 29
61 3
62 84
63 163
64 132
65 74
66 44
69 71
70 6
71 2
74 92
75 162
76 175
77 142
78 28
79 0
81 8
82 4
83 39
84 19
85 45
86 23
87 68
88 50
89 34
90 53
91 79
92 57
93 43
99 8
100 56
101 81
102 125
103 43
104 23
112 4
113 75
114 152
115 135
116 76
126 51
127 61
128 47
129 17
139 101
140 213
141 165
142 96
143 29
144 31
149 10
151 18
152 52
153 35
155 6
156 38
166 96
167 284
168 310
169 220
170 64
177 11
178 34
179 75
194 54
195 217
196 999
197 386
198 78

$$$$

     RDKit          2D

 14 16  0  0  0  0  0  0  0  0999 V2000
    3.0600    2.2000    0.0000 C   0  0  0  0  0  0  0  0  0  0  0  0
    1.7600    2.9500    0.0000 C   0  0  0  0  0  0  0  0  0  0  0  0
   -3.4300   -1.5500    0.0000 C   0  0  0  0  0  0  0  0  0  0  0  0
    3.0600    0.7000    0.0000 C   0  0  0  0  0  0  0  0  0  0  0  0
   -2.1300   -2.3000    0.0000 C   0  0  0  0  0  0  0  0  0  0  0  0
    0.4600    2.2000    0.0000 C   0  0  0  0  0  0  0  0  0  0  0  0
    1.7600   -1.5500    0.0000 C   0  0  0  0  0  0  0  0  0  0  0  0
    0.4600   -2.3000    0.0000 C   0  0  0  0  0  0  0  0  0  0  0  0
   -3.4300   -0.0500    0.0000 C   0  0  0  0  0  0  0  0  0  0  0  0
    1.7600   -0.0500    0.0000 C   0  0  0  0  0  0  0  0  0  0  0  0
   -0.8300   -1.5500    0.0000 C   0  0  0  0  0  0  0  0  0  0  0  0
    0.4600    0.7000    0.0000 C   0  0  0  0  0  0  0  0  0  0  0  0
   -0.8300   -0.0500    0.0000 C   0  0  0  0  0  0  0  0  0  0  0  0
   -2.1300    0.7000    0.0000 N   0  0  0  0  0  0  0  0  0  0  0  0
  2  1  2  0
  4  1  1  0
  5  3  2  0
  6  2  1  0
  8  7  2  0
  9  3  1  0
 10  4  2  0
 10  7  1  0
 11  5  1  0
 11  8  1  0
 12  6  2  0
 12 10  1  0
 13 11  2  0
 13 12  1  0
 14  9  2  0
 14 13  1  0
M  END
>  <NAME>  (1738) 
BENZO(H)QUINOLINE

>  <SYNONYMS>  (1738) 
ALPHA-NAPHTHOQUINOLINE

>  <SPECTRUM TYPE>  (1738) 
MS1

>  <INSTRUMENT TYPE>  (1738) 
EI-B

>  <INSTRUMENT>  (1738) 
HITACHI RMU-7L

>  <ION MODE>  (1738) 
P

>  <INCHIKEY>  (1738) 
WZJYKHNJTSNBHV-UHFFFAOYSA-N

>  <FORMULA>  (1738) 
C13H9N

>  <EXACT MASS>  (1738) 
179.073499288

>  <MW>  (1738) 
179

>  <ID>  (1738) 
JP009459

>  <CONTRIBUTOR>  (1738) 
University of Tokyo Team, {Faculty of Engineering, University of Tokyo

>  <COMMENT>  (1738) 
SMILES=c(c3)cc(c1)c(c3)c(n2)c(ccc2)c1
InChI=InChI=1S/C13H9N/c1-2-6-12-10(4-1)7-8-11-5-3-9-14-13(11)12/h1-9H
computed SMILES=N=1C=CC=C2C=CC=3C=CC=CC3C12
accession=JP009459
date=2016.01.19 (Created 2008.10.21, modified 2011.05.06)
author=EGUCHI S, FAC. OF SCIENCE, HIROSHIMA UNIV.
license=CC BY-NC-SA
exact mass=179.0735
ionization energy=70 eV
ion type=[M]+*
computed spectral entropy=2.647852584913858
computed normalized entropy=0.7227536590550265
SPLASH=splash10-004i-2900000000-0bdb468c2213d1504abd
submitter=submitter = University of Tokyo Team (Faculty of Engineering, University of Tokyo)
MoNA Rating=3.75

>  <NUM PEAKS>  (1738) 
39

>  <MASS SPECTRAL PEAKS>  (1738) 
50 4.2
51 4.3
52 1.6
61 1
62 2.7
63 7.5
74 3.8
75 7.5
76 9
77 2.6
86 1.5
87 1.9
88 1.2
89 7.9
90 2
98 1.6
99 2.1
100 1.7
101 1.8
102 1.6
124 1
125 2.4
126 3.9
127 1.8
128 1.7
139 1.5
140 1.1
149 1.2
150 6.1
151 9.7
152 7.5
153 6
154 1
176 1.4
177 4.7
178 20.6
179 99.99
180 17.6
181 1

>  <PREDICTED SPECTRUM>  (1738) 
38 24
39 110
40 18
41 16
49 15
50 138
51 139
52 47
61 7
62 100
63 150
64 53
65 24
74 133
75 175
76 159
77 68
81 26
86 26
87 97
88 119
89 64
94 1
98 71
99 88
100 117
101 163
102 111
103 10
111 18
113 36
114 22
115 12
122 25
123 48
124 111
125 126
126 172
127 147
128 70
129 33
139 57
140 91
149 139
150 221
151 356
152 337
153 190
154 21
174 51
175 8
176 137
177 311
178 639
179 999
180 391
181 88

$$$$

     RDKit          2D

 14 16  0  0  0  0  0  0  0  0999 V2000
   -3.9000    0.7500    0.0000 C   0  0  0  0  0  0  0  0  0  0  0  0
   -3.9000   -0.7500    0.0000 C   0  0  0  0  0  0  0  0  0  0  0  0
    3.9000    0.7500    0.0000 C   0  0  0  0  0  0  0  0  0  0  0  0
    3.9000   -0.7500    0.0000 C   0  0  0  0  0  0  0  0  0  0  0  0
   -2.6000    1.5000    0.0000 C   0  0  0  0  0  0  0  0  0  0  0  0
   -2.6000   -1.5000    0.0000 C   0  0  0  0  0  0  0  0  0  0  0  0
    2.6000    1.5000    0.0000 C   0  0  0  0  0  0  0  0  0  0  0  0
    2.6000   -1.5000    0.0000 C   0  0  0  0  0  0  0  0  0  0  0  0
   -1.3000    0.7500    0.0000 C   0  0  0  0  0  0  0  0  0  0  0  0
   -1.3000   -0.7500    0.0000 C   0  0  0  0  0  0  0  0  0  0  0  0
    1.3000    0.7500    0.0000 C   0  0  0  0  0  0  0  0  0  0  0  0
    1.3000   -0.7500    0.0000 C   0  0  0  0  0  0  0  0  0  0  0  0
    0.0000    1.5000    0.0000 N   0  0  0  0  0  0  0  0  0  0  0  0
    0.0000   -1.5000    0.0000 N   0  0  0  0  0  0  0  0  0  0  0  0
  2  1  2  0
  4  3  1  0
  5  1  1  0
  6  2  1  0
  7  3  2  0
  8  4  2  0
  9  5  2  0
 10  6  2  0
 10  9  1  0
 11  7  1  0
 12  8  1  0
 12 11  1  0
 13  9  1  0
 13 11  2  0
 14 10  1  0
 14 12  2  0
M  END
>  <NAME>  (1739) 
PHENAZINE

>  <SYNONYMS>  (1739) 


>  <SPECTRUM TYPE>  (1739) 
MS1

>  <INSTRUMENT TYPE>  (1739) 
EI-B

>  <INSTRUMENT>  (1739) 
HITACHI RMU-7L

>  <ION MODE>  (1739) 
P

>  <INCHIKEY>  (1739) 
PCNDJXKNXGMECE-UHFFFAOYSA-N

>  <FORMULA>  (1739) 
C12H8N2

>  <EXACT MASS>  (1739) 
180.068748256

>  <MW>  (1739) 
180

>  <ID>  (1739) 
JP009457

>  <CONTRIBUTOR>  (1739) 
University of Tokyo Team, {Faculty of Engineering, University of Tokyo

>  <COMMENT>  (1739) 
SMILES=c(c3)cc(n1)c(c3)nc(c2)c(ccc2)1
InChI=InChI=1S/C12H8N2/c1-2-6-10-9(5-1)13-11-7-3-4-8-12(11)14-10/h1-8H
computed SMILES=N=1C2=CC=CC=C2N=C3C=CC=CC13
accession=JP009457
date=2016.01.19 (Created 2008.10.21, modified 2011.05.06)
author=EGUCHI S, FAC. OF SCIENCE, HIROSHIMA UNIV.
license=CC BY-NC-SA
exact mass=180.06875
ionization energy=70 eV
ion type=[M]+*
computed spectral entropy=2.6400683938854046
computed normalized entropy=0.7063407586831956
SPLASH=splash10-001i-3900000000-d81dcdb5d23bd5bbc493
submitter=submitter = University of Tokyo Team (Faculty of Engineering, University of Tokyo)
MoNA Rating=3.75

>  <NUM PEAKS>  (1739) 
42

>  <MASS SPECTRAL PEAKS>  (1739) 
50 12.5
51 7
52 4.5
53 0.5
61 2
62 2.5
63 3.5
64 3
73 1.5
74 3
75 5
76 6.5
77 3.5
78 1.5
87 0.5
88 0.5
89 0.5
90 6.5
99 1
100 1.5
101 1.5
102 4
103 3
125 1.5
126 2.5
127 2.5
128 3
129 3.5
140 1.5
149 1
150 0.5
151 1.5
152 5.5
153 8
154 5.5
155 0.5
165 0.5
178 1.5
179 25
180 99.99
181 13.5
182 2

>  <PREDICTED SPECTRUM>  (1739) 
26 25
27 39
37 3
38 33
39 127
40 25
44 25
50 252
51 248
52 120
62 36
63 149
64 122
65 41
69 36
74 121
75 228
76 325
77 198
78 81
88 3
89 50
90 77
99 46
100 64
101 84
102 316
103 47
113 6
124 5
125 40
126 146
127 152
128 171
129 68
140 83
150 9
151 155
152 200
153 202
154 199
155 33
177 128
178 283
179 537
180 999
181 402
182 122

$$$$

     RDKit          2D

 12 12  0  0  0  0  0  0  0  0999 V2000
   -5.5207    3.1321    0.0000 C   0  0  0  0  0  0  0  0  0  0  0  0
    3.5726    0.8821    0.0000 C   0  0  0  0  0  0  0  0  0  0  0  0
    3.5731    2.3829    0.0000 C   0  0  0  0  0  0  0  0  0  0  0  0
    2.2731    0.1313    0.0000 C   0  0  0  0  0  0  0  0  0  0  0  0
    2.2740    3.1329    0.0000 C   0  0  0  0  0  0  0  0  0  0  0  0
    0.9740    0.8813    0.0000 C   0  0  0  0  0  0  0  0  0  0  0  0
   -0.3245    3.1321    0.0000 C   0  0  0  0  0  0  0  0  0  0  0  0
   -1.6236    2.3821    0.0000 C   0  0  0  0  0  0  0  0  0  0  0  0
    0.9745    2.3821    0.0000 C   0  0  0  0  0  0  0  0  0  0  0  0
   -2.9226    3.1321    0.0000 C   0  0  0  0  0  0  0  0  0  0  0  0
   -2.9226    4.6321    0.0000 O   0  0  0  0  0  0  0  0  0  0  0  0
   -4.2216    2.3821    0.0000 O   0  0  0  0  0  0  0  0  0  0  0  0
  3  2  2  0
  4  2  1  0
  5  3  1  0
  6  4  2  0
  7  8  2  0
  9  5  2  0
  9  6  1  0
  9  7  1  0
 10  8  1  0
 11 10  2  0
 12  1  1  0
 12 10  1  0
M  END
>  <NAME>  (1740) 
METHYL CINNAMATE

>  <SYNONYMS>  (1740) 


>  <SPECTRUM TYPE>  (1740) 
MS1

>  <INSTRUMENT TYPE>  (1740) 
EI-B

>  <INSTRUMENT>  (1740) 
HITACHI RMU-7L

>  <ION MODE>  (1740) 
P

>  <INCHIKEY>  (1740) 
CCRCUPLGCSFEDV-BQYQJAHWSA-N

>  <FORMULA>  (1740) 
C10H10O2

>  <EXACT MASS>  (1740) 
162.06807956

>  <MW>  (1740) 
162

>  <ID>  (1740) 
JP009456

>  <CONTRIBUTOR>  (1740) 
University of Tokyo Team, {Faculty of Engineering, University of Tokyo

>  <COMMENT>  (1740) 
SMILES=COC(=O)C=Cc(c1)cccc1
InChI=InChI=1S/C10H10O2/c1-12-10(11)8-7-9-5-3-2-4-6-9/h2-8H,1H3/b8-7+
computed SMILES=O=C(OC)C=CC=1C=CC=CC1
license=CC BY-NC-SA
exact mass=162.06808
accession=JP009456
date=2016.01.19 (Created 2008.10.21, modified 2011.05.06)
author=EGUCHI S, FAC. OF SCIENCE, HIROSHIMA UNIV.
ionization energy=70 eV
ion type=[M]+*
computed spectral entropy=3.0545713430495454
computed normalized entropy=0.7555114048023357
SPLASH=splash10-0udi-7900000000-4a3d59402d4046246f21
submitter=submitter = University of Tokyo Team (Faculty of Engineering, University of Tokyo)
MoNA Rating=3.75

>  <NUM PEAKS>  (1740) 
57

>  <MASS SPECTRAL PEAKS>  (1740) 
40 3.5
41 1.5
50 26
51 56
52 11
53 3.5
59 2.5
61 2
62 5.5
63 12.5
64 2
65 3.5
66 1
67 1
69 1.5
73 1.5
74 10
75 11.5
76 16.5
77 61.5
78 7.5
79 1.5
85 2.5
86 1.5
87 2
89 2.5
90 3
91 8
92 2.5
98 2
99 1.5
101 3
102 27
103 89
104 15
105 2.5
106 1
107 1.5
115 2
116 2.5
117 4
118 2.5
119 2
121 2.55
129 1.5
130 2.5
131 99.99
132 11
133 1.5
134 2
144 2
145 1
146 1
147 2.5
161 12
162 38
163 4

>  <PREDICTED SPECTRUM>  (1740) 
14 20
15 70
26 36
27 53
28 1
29 69
31 55
37 27
38 76
39 113
43 28
44 18
49 9
50 288
51 453
52 210
53 36
59 106
62 101
63 193
64 79
65 60
74 146
75 210
76 195
77 590
78 176
90 8
92 8
101 108
102 452
103 760
104 215
130 76
131 999
132 284
133 81
147 2
161 287
162 585
163 186

$$$$

     RDKit          2D

 13 13  0  0  0  0  0  0  0  0999 V2000
   -6.8197    3.1321    0.0000 C   0  0  0  0  0  0  0  0  0  0  0  0
   -5.5207    3.8821    0.0000 C   0  0  0  0  0  0  0  0  0  0  0  0
    3.5726    1.6321    0.0000 C   0  0  0  0  0  0  0  0  0  0  0  0
    3.5731    3.1329    0.0000 C   0  0  0  0  0  0  0  0  0  0  0  0
    2.2731    0.8813    0.0000 C   0  0  0  0  0  0  0  0  0  0  0  0
    2.2740    3.8829    0.0000 C   0  0  0  0  0  0  0  0  0  0  0  0
    0.9740    1.6313    0.0000 C   0  0  0  0  0  0  0  0  0  0  0  0
   -0.3245    3.8821    0.0000 C   0  0  0  0  0  0  0  0  0  0  0  0
   -1.6236    3.1321    0.0000 C   0  0  0  0  0  0  0  0  0  0  0  0
    0.9745    3.1321    0.0000 C   0  0  0  0  0  0  0  0  0  0  0  0
   -2.9226    3.8821    0.0000 C   0  0  0  0  0  0  0  0  0  0  0  0
   -2.9226    5.3821    0.0000 O   0  0  0  0  0  0  0  0  0  0  0  0
   -4.2216    3.1321    0.0000 O   0  0  0  0  0  0  0  0  0  0  0  0
  2  1  1  0
  4  3  2  0
  5  3  1  0
  6  4  1  0
  7  5  2  0
  8  9  2  0
 10  6  2  0
 10  7  1  0
 10  8  1  0
 11  9  1  0
 12 11  2  0
 13  2  1  0
 13 11  1  0
M  END
>  <NAME>  (1741) 
ETHYL CINNAMATE

>  <SYNONYMS>  (1741) 


>  <SPECTRUM TYPE>  (1741) 
MS1

>  <INSTRUMENT TYPE>  (1741) 
EI-B

>  <INSTRUMENT>  (1741) 
HITACHI RMU-7L

>  <ION MODE>  (1741) 
P

>  <INCHIKEY>  (1741) 
KBEBGUQPQBELIU-CMDGGOBGSA-N

>  <FORMULA>  (1741) 
C11H12O2

>  <EXACT MASS>  (1741) 
176.083729624

>  <MW>  (1741) 
176

>  <ID>  (1741) 
JP009455

>  <CONTRIBUTOR>  (1741) 
University of Tokyo Team, {Faculty of Engineering, University of Tokyo

>  <COMMENT>  (1741) 
SMILES=CCOC(=O)C=Cc(c1)cccc1
InChI=InChI=1S/C11H12O2/c1-2-13-11(12)9-8-10-6-4-3-5-7-10/h3-9H,2H2,1H3/b9-8+
computed SMILES=O=C(OCC)C=CC=1C=CC=CC1
date=2016.01.19 (Created 2008.10.21, modified 2011.05.06)
author=EGUCHI S, FAC. OF SCIENCE, HIROSHIMA UNIV.
license=CC BY-NC-SA
accession=JP009455
exact mass=176.08373
ionization energy=70 eV
ion type=[M]+*
computed spectral entropy=3.273818416973976
computed normalized entropy=0.775876866620709
SPLASH=splash10-0udi-9800000000-37cf39cf9d251824252b
submitter=submitter = University of Tokyo Team (Faculty of Engineering, University of Tokyo)
MoNA Rating=3.75

>  <NUM PEAKS>  (1741) 
68

>  <MASS SPECTRAL PEAKS>  (1741) 
40 1.5
41 3
42 2
43 4.5
44 1.5
45 2
49 1.5
50 37.5
51 68
52 12
53 5.5
54 1.5
55 2.5
57 1.5
61 1.5
62 7.5
63 19.5
64 4
65 5.5
66 2
69 4.5
71 1.5
73 2.5
74 12.5
75 16.5
76 27.5
77 82
78 16.5
79 3.5
86 1.5
87 2
88 1.5
89 3
90 2
91 15
92 3.5
93 1.5
94 1.5
97 2.5
99 1.5
101 5
102 42
103 88.5
104 41.5
105 5
106 1.5
107 2
115 2.5
116 1.5
117 2
118 1.5
119 2
120 4.5
121 1.5
129 2.5
130 7.5
131 99.99
132 12
133 2.5
135 1.5
147 17
148 17.5
149 1.5
158 2.5
161 1.5
175 2.5
176 14
177 3

>  <PREDICTED SPECTRUM>  (1741) 
14 24
15 68
25 11
26 118
27 304
28 85
29 404
30 8
31 52
37 76
38 135
39 172
40 43
41 32
42 28
45 159
49 77
50 333
51 531
52 228
53 120
54 12
55 56
57 8
61 17
62 118
63 192
64 126
65 67
66 32
69 62
70 36
71 40
74 178
75 271
76 288
77 628
78 220
79 41
81 17
82 10
85 25
93 55
94 26
98 15
99 74
100 7
101 170
102 358
103 700
104 440
105 182
106 65
117 154
118 45
119 94
120 30
129 158
130 232
131 999
132 380
133 91
146 11
147 396
148 303
149 128
160 38
175 216
176 568
177 216
178 23

$$$$

     RDKit          2D

 19 20  0  0  0  0  0  0  0  0999 V2000
   -9.0933    7.0700    0.0000 C   0  0  0  0  0  0  0  0  0  0  0  0
    5.1962    3.3200    0.0000 C   0  0  0  0  0  0  0  0  0  0  0  0
   -9.0937    5.5692    0.0000 C   0  0  0  0  0  0  0  0  0  0  0  0
   -7.7937    7.8208    0.0000 C   0  0  0  0  0  0  0  0  0  0  0  0
    5.1966    4.8208    0.0000 C   0  0  0  0  0  0  0  0  0  0  0  0
    3.8966    2.5692    0.0000 C   0  0  0  0  0  0  0  0  0  0  0  0
   -7.7947    4.8192    0.0000 C   0  0  0  0  0  0  0  0  0  0  0  0
   -6.4947    7.0708    0.0000 C   0  0  0  0  0  0  0  0  0  0  0  0
    3.8976    5.5708    0.0000 C   0  0  0  0  0  0  0  0  0  0  0  0
    2.5976    3.3192    0.0000 C   0  0  0  0  0  0  0  0  0  0  0  0
   -5.1962    4.8200    0.0000 C   0  0  0  0  0  0  0  0  0  0  0  0
   -3.8971    5.5700    0.0000 C   0  0  0  0  0  0  0  0  0  0  0  0
    1.2990    5.5700    0.0000 C   0  0  0  0  0  0  0  0  0  0  0  0
    0.0000    4.8200    0.0000 C   0  0  0  0  0  0  0  0  0  0  0  0
   -6.4952    5.5700    0.0000 C   0  0  0  0  0  0  0  0  0  0  0  0
    2.5981    4.8200    0.0000 C   0  0  0  0  0  0  0  0  0  0  0  0
   -2.5981    4.8200    0.0000 C   0  0  0  0  0  0  0  0  0  0  0  0
   -2.5981    3.3200    0.0000 O   0  0  0  0  0  0  0  0  0  0  0  0
   -1.2990    5.5700    0.0000 O   0  0  0  0  0  0  0  0  0  0  0  0
  3  1  2  0
  4  1  1  0
  5  2  2  0
  6  2  1  0
  7  3  1  0
  8  4  2  0
  9  5  1  0
 10  6  2  0
 11 12  2  0
 14 13  1  0
 15  7  2  0
 15  8  1  0
 15 11  1  0
 16  9  2  0
 16 10  1  0
 16 13  1  0
 17 12  1  0
 18 17  2  0
 19 14  1  0
 19 17  1  0
M  END
>  <NAME>  (1742) 
BETA-PHENYLETHYL CINNAMATE

>  <SYNONYMS>  (1742) 


>  <SPECTRUM TYPE>  (1742) 
MS1

>  <INSTRUMENT TYPE>  (1742) 
EI-B

>  <INSTRUMENT>  (1742) 
HITACHI RMU-7L

>  <ION MODE>  (1742) 
P

>  <INCHIKEY>  (1742) 
MJQVZIANGRDJBT-VAWYXSNFSA-N

>  <FORMULA>  (1742) 
C17H16O2

>  <EXACT MASS>  (1742) 
252.115029752

>  <MW>  (1742) 
252

>  <ID>  (1742) 
JP009454

>  <CONTRIBUTOR>  (1742) 
University of Tokyo Team, {Faculty of Engineering, University of Tokyo

>  <COMMENT>  (1742) 
SMILES=O=C(OCCc(c2)cccc2)C=Cc(c1)cccc1
InChI=InChI=1S/C17H16O2/c18-17(12-11-15-7-3-1-4-8-15)19-14-13-16-9-5-2-6-10-16/h1-12H,13-14H2/b12-11+
computed SMILES=O=C(OCCC=1C=CC=CC1)C=CC=2C=CC=CC2
accession=JP009454
date=2016.01.19 (Created 2008.10.21, modified 2011.05.06)
author=EGUCHI S, FAC. OF SCIENCE, HIROSHIMA UNIV.
license=CC BY-NC-SA
exact mass=252.11503
ionization energy=70 eV
ion type=[M]+*
computed spectral entropy=2.038410105551124
computed normalized entropy=0.6501080739347103
SPLASH=splash10-0udi-2900000000-1720b7e3472ad3e02bd8
submitter=submitter = University of Tokyo Team (Faculty of Engineering, University of Tokyo)
MoNA Rating=3.75

>  <NUM PEAKS>  (1742) 
23

>  <MASS SPECTRAL PEAKS>  (1742) 
40 2
41 6
42 1
63 1
65 4
76 3
77 14.5
78 5
79 1.5
89 1
91 5
92 1
102 5
103 27
104 99.99
105 9
131 30.5
132 1
147 2
148 1
206 2
234 1
252 2

>  <PREDICTED SPECTRUM>  (1742) 
26 14
27 67
29 21
38 29
39 209
40 64
41 68
44 10
50 189
51 308
52 197
53 99
54 54
57 10
62 43
63 177
64 75
65 267
66 74
74 26
75 135
76 169
77 429
78 276
79 135
89 108
90 32
91 263
92 145
102 206
103 492
104 999
105 401
106 93
128 15
129 12
130 166
131 427
132 94
148 9
252 158
253 46

$$$$

     RDKit          2D

 13 14  0  0  0  0  0  0  0  0999 V2000
    3.8989   -1.5002    0.0000 C   0  0  0  0  0  0  0  0  0  0  0  0
    3.8989    1.5002    0.0000 C   0  0  0  0  0  0  0  0  0  0  0  0
   -2.6000   -0.7500    0.0000 C   0  0  0  0  0  0  0  0  0  0  0  0
   -2.6000    0.7500    0.0000 C   0  0  0  0  0  0  0  0  0  0  0  0
   -1.3000   -1.5000    0.0000 C   0  0  0  0  0  0  0  0  0  0  0  0
   -1.3000    1.5000    0.0000 C   0  0  0  0  0  0  0  0  0  0  0  0
    2.6000   -0.7500    0.0000 C   0  0  0  0  0  0  0  0  0  0  0  0
    2.6000    0.7500    0.0000 C   0  0  0  0  0  0  0  0  0  0  0  0
    0.0000   -0.7500    0.0000 C   0  0  0  0  0  0  0  0  0  0  0  0
    0.0000    0.7500    0.0000 C   0  0  0  0  0  0  0  0  0  0  0  0
    1.3000   -1.5000    0.0000 C   0  0  0  0  0  0  0  0  0  0  0  0
    1.3000   -3.0000    0.0000 O   0  0  0  0  0  0  0  0  0  0  0  0
    1.3000    1.5000    0.0000 S   0  0  0  0  0  0  0  0  0  0  0  0
  4  3  2  0
  5  3  1  0
  6  4  1  0
  7  1  1  0
  8  2  1  0
  8  7  2  0
  9  5  2  0
 10  6  2  0
 10  9  1  0
 11  7  1  0
 11  9  1  0
 12 11  2  0
 13  8  1  0
 13 10  1  0
M  END
>  <NAME>  (1743) 
2,3-DIMETHYLCHROMOTHIONE

>  <SYNONYMS>  (1743) 


>  <SPECTRUM TYPE>  (1743) 
MS1

>  <INSTRUMENT TYPE>  (1743) 
EI-B

>  <INSTRUMENT>  (1743) 
HITACHI RMU-7L

>  <ION MODE>  (1743) 
P

>  <INCHIKEY>  (1743) 
MBMJRWSFDYUTRL-UHFFFAOYSA-N

>  <FORMULA>  (1743) 
C11H10OS

>  <EXACT MASS>  (1743) 
190.04523594

>  <MW>  (1743) 
190

>  <ID>  (1743) 
JP009441

>  <CONTRIBUTOR>  (1743) 
University of Tokyo Team, {Faculty of Engineering, University of Tokyo

>  <COMMENT>  (1743) 
SMILES=CC(S1)=C(C)C(=O)c(c2)c(ccc2)1
InChI=InChI=1S/C11H10OS/c1-7-8(2)13-10-6-4-3-5-9(10)11(7)12/h3-6H,1-2H3
computed SMILES=O=C1C=2C=CC=CC2SC(=C1C)C
accession=JP009441
date=2016.01.19 (Created 2008.10.21, modified 2011.05.06)
author=EGUCHI S, FAC. OF SCIENCE, HIROSHIMA UNIV.
license=CC BY-NC-SA
exact mass=190.04524
ionization energy=70 eV
ion type=[M]+*
computed spectral entropy=3.6741053480719326
computed normalized entropy=0.7743220026498681
SPLASH=splash10-0006-3900000000-b4715fa309ee6ec667ac
submitter=submitter = University of Tokyo Team (Faculty of Engineering, University of Tokyo)
MoNA Rating=3.75

>  <NUM PEAKS>  (1743) 
115

>  <MASS SPECTRAL PEAKS>  (1743) 
40 1
41 2
42 1
43 11
44 1
45 4
46 1
47 1.5
49 1
50 2
51 4
52 1
53 3
54 1
55 1
56 1
57 1
58 1
59 1.5
60 1
61 1
62 1.5
63 4.5
64 1.5
65 3
66 1
67 1.5
68 1
71 1.5
72 1
73 1.5
74 2
75 2.5
76 4.5
77 5
78 1.5
79 1
81 1
82 1.5
83 1.1
84 1
85 1
86 1
87 2
88 1
89 2
91 2.5
92 1
93 1
94 1
95 4.5
96 1
97 6
98 1
99 1
101 1
102 2
103 2.5
104 1
105 1.5
106 1.5
107 1
108 3.5
109 1
111 1
112 1
113 1
114 1.5
115 3.5
116 1
117 1.5
118 1
119 1
121 1
122 2.5
123 1
124 1
125 1
126 1.5
127 3.5
128 5.5
129 4.5
130 1.5
131 6.5
132 2
133 1
134 1
135 1
139 1.5
140 1
141 1
142 1.5
143 1
144 3.5
145 6
146 2
147 5
148 5
149 1
155 1
156 1.5
157 38
158 4
159 1
173 1
174 1
175 7
176 1.5
177 1
188 1
189 24.5
190 99.99
191 15.5
192 7.5
193 1.5

>  <PREDICTED SPECTRUM>  (1743) 
14 0
26 17
27 35
32 17
33 42
34 37
37 79
38 131
39 365
40 129
41 182
42 85
43 70
44 43
45 453
46 100
47 151
49 64
50 282
51 398
52 234
53 238
54 106
55 165
56 43
57 122
58 191
59 173
60 148
61 156
62 223
63 390
64 231
65 260
66 155
67 164
68 30
69 503
70 164
71 172
72 116
73 150
74 213
75 207
76 208
77 383
78 210
79 167
80 164
81 148
82 240
83 110
84 68
85 150
86 104
87 125
88 108
89 189
90 197
91 251
92 151
93 227
94 70
95 107
96 147
97 40
98 45
99 108
100 163
101 131
102 191
103 210
104 116
105 82
106 73
107 105
108 510
109 287
110 119
111 3
112 7
113 27
114 34
115 205
116 127
117 109
118 93
119 99
120 104
121 139
122 52
123 64
127 128
128 263
129 278
130 131
133 160
134 319
135 357
136 638
137 126
142 4
145 101
146 65
147 403
148 176
149 209
150 46
155 38
157 800
158 301
159 126
160 116
161 519
162 287
163 126
175 224
176 98
189 242
190 999
191 350
192 268
193 68

$$$$

     RDKit          2D

 13 14  0  0  0  0  0  0  0  0999 V2000
    3.8989   -1.5002    0.0000 C   0  0  0  0  0  0  0  0  0  0  0  0
    3.8989    1.5002    0.0000 C   0  0  0  0  0  0  0  0  0  0  0  0
   -2.6000   -0.7500    0.0000 C   0  0  0  0  0  0  0  0  0  0  0  0
   -2.6000    0.7500    0.0000 C   0  0  0  0  0  0  0  0  0  0  0  0
   -1.3000   -1.5000    0.0000 C   0  0  0  0  0  0  0  0  0  0  0  0
   -1.3000    1.5000    0.0000 C   0  0  0  0  0  0  0  0  0  0  0  0
    2.6000   -0.7500    0.0000 C   0  0  0  0  0  0  0  0  0  0  0  0
    2.6000    0.7500    0.0000 C   0  0  0  0  0  0  0  0  0  0  0  0
    0.0000   -0.7500    0.0000 C   0  0  0  0  0  0  0  0  0  0  0  0
    0.0000    0.7500    0.0000 C   0  0  0  0  0  0  0  0  0  0  0  0
    1.3000   -1.5000    0.0000 C   0  0  0  0  0  0  0  0  0  0  0  0
    1.3000   -3.0000    0.0000 S   0  0  0  0  0  0  0  0  0  0  0  0
    1.3000    1.5000    0.0000 S   0  0  0  0  0  0  0  0  0  0  0  0
  4  3  2  0
  5  3  1  0
  6  4  1  0
  7  1  1  0
  8  2  1  0
  8  7  2  0
  9  5  2  0
 10  6  2  0
 10  9  1  0
 11  7  1  0
 11  9  1  0
 12 11  2  0
 13  8  1  0
 13 10  1  0
M  END
>  <NAME>  (1744) 
2,3-DIMETHYLTHIOCHROMOTHIONE

>  <SYNONYMS>  (1744) 


>  <SPECTRUM TYPE>  (1744) 
MS1

>  <INSTRUMENT TYPE>  (1744) 
EI-B

>  <INSTRUMENT>  (1744) 
HITACHI RMU-7L

>  <ION MODE>  (1744) 
P

>  <INCHIKEY>  (1744) 
FRIYENJAXQGJMB-UHFFFAOYSA-N

>  <FORMULA>  (1744) 
C11H10S2

>  <EXACT MASS>  (1744) 
206.02239232

>  <MW>  (1744) 
206

>  <ID>  (1744) 
JP009440

>  <CONTRIBUTOR>  (1744) 
University of Tokyo Team, {Faculty of Engineering, University of Tokyo

>  <COMMENT>  (1744) 
SMILES=CC(S1)=C(C)C(=S)c(c2)c(ccc2)1
InChI=InChI=1S/C11H10S2/c1-7-8(2)13-10-6-4-3-5-9(10)11(7)12/h3-6H,1-2H3
computed SMILES=S=C1C=2C=CC=CC2SC(=C1C)C
accession=JP009440
date=2016.01.19 (Created 2008.10.21, modified 2011.05.06)
author=EGUCHI S, FAC. OF SCIENCE, HIROSHIMA UNIV.
license=CC BY-NC-SA
exact mass=206.02239
ionization energy=70 eV
ion type=[M]+*
computed spectral entropy=3.966341805872253
computed normalized entropy=0.8073723675132504
SPLASH=splash10-0a4i-4950000000-2d9d1d9524d76ddc7e1e
submitter=submitter = University of Tokyo Team (Faculty of Engineering, University of Tokyo)
MoNA Rating=3.75

>  <NUM PEAKS>  (1744) 
136

>  <MASS SPECTRAL PEAKS>  (1744) 
41 2
42 1
43 1.5
44 1
45 12.5
46 1
47 1.5
50 3
51 6
52 1
53 2.5
54 1
55 1
56 1
57 1.5
58 2
59 6
60 1
61 1.5
62 2.5
63 3
64 1
65 1.5
66 1
67 1
68 1
69 8
70 1
71 1.5
72 1
73 1
74 2
75 2.5
76 2
77 7
78 1
79 1
80 1
81 1.5
82 2.5
83 1
84 1
85 1.5
86 2
87 2
88 1.5
89 3
90 1
91 1
92 1.5
93 3.5
94 1
95 2
96 1
97 1.5
99 1
100 1.5
101 1.5
102 2.5
103 2
104 1
105 1.5
106 1
107 1
108 8
109 1.5
110 1
111 1
112 1
113 1.5
114 2.5
115 6
116 1
117 1
118 1
119 1
121 2.5
122 1
123 1
125 1
126 1.5
127 3.5
128 7.5
129 9.5
130 1
131 1
132 1.5
133 1
134 2
135 1
136 1
137 1
139 2.5
140 1
141 2
142 1
143 1
145 2.5
146 2
147 14
148 3
149 1
151 1
152 1.5
153 2.5
154 1
157 1
158 3
159 1.5
160 9
161 8
162 4
163 1.5
164 1
165 1
169 1
170 1.5
171 9
172 4.5
173 38
174 6
175 2.5
176 1
178 1
179 1.5
190 6.5
191 12.5
192 5.5
193 2
194 1
204 1
205 23
206 99.99
207 15
208 11.5
209 1

>  <PREDICTED SPECTRUM>  (1744) 
14 7
15 13
16 3
17 11
18 13
26 32
27 67
28 5
32 36
33 43
34 44
37 25
38 59
39 174
40 58
41 44
43 167
44 56
45 269
46 29
47 56
49 2
50 144
51 202
52 90
53 56
57 81
58 108
59 112
60 40
61 93
62 144
63 240
64 94
65 137
66 48
67 47
69 313
70 136
71 80
72 58
73 64
74 128
75 164
76 119
77 204
78 108
79 124
80 48
81 89
82 147
83 89
84 43
85 87
86 56
87 141
88 89
89 198
90 95
91 110
92 80
93 176
94 113
95 89
96 40
97 78
98 64
99 50
100 18
101 108
102 179
103 162
104 110
105 149
106 77
107 24
108 145
109 34
110 44
111 40
112 6
113 60
114 118
115 274
116 119
117 126
118 31
119 82
120 85
121 158
122 68
124 5
125 36
126 92
127 140
128 238
129 198
130 124
131 33
132 46
133 37
134 96
135 25
137 9
139 92
140 53
141 60
142 61
143 23
144 60
145 198
146 163
147 233
148 97
149 78
151 9
152 27
153 75
154 7
156 31
158 113
159 122
160 105
161 251
162 218
163 88
164 70
165 117
166 19
169 61
170 45
171 227
172 267
173 738
174 289
175 123
176 83
178 74
179 60
180 27
189 52
190 153
191 346
192 156
193 110
194 13
203 68
204 89
205 425
206 999
207 414
208 327
209 98

$$$$

     RDKit          2D

 12 13  0  0  0  0  0  0  0  0999 V2000
    3.8989    1.5002    0.0000 C   0  0  0  0  0  0  0  0  0  0  0  0
   -2.6000   -0.7500    0.0000 C   0  0  0  0  0  0  0  0  0  0  0  0
   -2.6000    0.7500    0.0000 C   0  0  0  0  0  0  0  0  0  0  0  0
   -1.3000   -1.5000    0.0000 C   0  0  0  0  0  0  0  0  0  0  0  0
   -1.3000    1.5000    0.0000 C   0  0  0  0  0  0  0  0  0  0  0  0
    2.6000   -0.7500    0.0000 C   0  0  0  0  0  0  0  0  0  0  0  0
    2.6000    0.7500    0.0000 C   0  0  0  0  0  0  0  0  0  0  0  0
    0.0000   -0.7500    0.0000 C   0  0  0  0  0  0  0  0  0  0  0  0
    1.3000   -1.5000    0.0000 C   0  0  0  0  0  0  0  0  0  0  0  0
    0.0000    0.7500    0.0000 C   0  0  0  0  0  0  0  0  0  0  0  0
    1.3000   -3.0000    0.0000 S   0  0  0  0  0  0  0  0  0  0  0  0
    1.3000    1.5000    0.0000 S   0  0  0  0  0  0  0  0  0  0  0  0
  3  2  2  0
  4  2  1  0
  5  3  1  0
  7  1  1  0
  7  6  2  0
  8  4  2  0
  9  6  1  0
  9  8  1  0
 10  5  2  0
 10  8  1  0
 11  9  2  0
 12  7  1  0
 12 10  1  0
M  END
>  <NAME>  (1745) 
2-METHYLTHIOCHROMOTHIONE

>  <SYNONYMS>  (1745) 


>  <SPECTRUM TYPE>  (1745) 
MS1

>  <INSTRUMENT TYPE>  (1745) 
EI-B

>  <INSTRUMENT>  (1745) 
HITACHI RMU-7L

>  <ION MODE>  (1745) 
P

>  <INCHIKEY>  (1745) 
OPFHNXXKRKLZGV-UHFFFAOYSA-N

>  <FORMULA>  (1745) 
C10H8S2

>  <EXACT MASS>  (1745) 
192.006742256

>  <MW>  (1745) 
192

>  <ID>  (1745) 
JP009439

>  <CONTRIBUTOR>  (1745) 
University of Tokyo Team, {Faculty of Engineering, University of Tokyo

>  <COMMENT>  (1745) 
SMILES=CC(=C1)Sc(c2)c(ccc2)C(=S)1
InChI=InChI=1S/C10H8S2/c1-7-6-9(11)8-4-2-3-5-10(8)12-7/h2-6H,1H3
computed SMILES=S=C1C=C(SC=2C=CC=CC12)C
accession=JP009439
date=2016.01.19 (Created 2008.10.21, modified 2011.05.06)
author=EGUCHI S, FAC. OF SCIENCE, HIROSHIMA UNIV.
license=CC BY-NC-SA
exact mass=192.00674
ionization energy=70 eV
ion type=[M]+*
computed spectral entropy=4.019125143616745
computed normalized entropy=0.8218483053536494
SPLASH=splash10-0006-4900000000-f1cfa4dbeba1f0d0741b
submitter=submitter = University of Tokyo Team (Faculty of Engineering, University of Tokyo)
MoNA Rating=3.75

>  <NUM PEAKS>  (1745) 
133

>  <MASS SPECTRAL PEAKS>  (1745) 
40 1
41 10
42 2
43 7
44 2
45 11
46 1
47 1
49 1
50 4
51 6
52 2
53 1.5
54 1
55 7
56 1.5
57 5.5
58 4
59 6.5
60 2
61 3.5
62 7
63 9
64 1.5
65 2.5
66 1.5
67 2.5
68 1
69 20
70 1.5
71 2
72 1
73 3
74 6
75 4
76 4
77 2
78 1.5
79 1
80 1
81 4
82 6
83 4
84 2
85 3
86 2.5
87 3
88 2
89 3.5
90 1
91 2
92 1
93 6
94 2
95 2.5
96 3.5
97 1
98 2
99 2
100 1
101 2.5
102 2
103 2.5
104 1
105 1.5
106 1.5
107 2
108 14
109 2
110 1
111 1
112 1
113 2.5
114 3.5
115 13.5
116 3
117 2
118 1
119 2
120 2.5
121 8
122 1
123 1.5
124 1
125 1
126 1.5
127 1.5
128 3.5
129 2
130 1
131 1
132 1.5
133 1.5
134 2.5
135 1
136 1
137 1
138 1
139 1.5
140 1
141 2
143 1
144 1
145 3
146 3
147 36.5
148 14
149 5
150 1
151 1.5
152 3
153 1
154 1
156 1
157 1.5
158 4
159 4
160 2
161 1.5
162 1
165 1.5
166 1
176 1.5
177 9
178 1
179 1
189 1
190 3
191 44
192 99.99
193 14
194 11.5
195 1.5

>  <PREDICTED SPECTRUM>  (1745) 
14 6
26 26
27 23
32 24
33 63
34 52
35 24
36 42
37 106
38 148
39 275
40 121
41 96
42 18
43 174
44 160
45 405
46 73
47 115
48 19
49 102
50 285
51 334
52 188
53 153
54 45
55 52
56 37
57 243
58 223
59 168
60 130
61 181
62 257
63 378
64 162
65 202
66 113
67 146
68 76
69 481
70 199
71 177
72 103
73 172
74 264
75 261
76 229
77 262
78 137
79 199
80 117
81 260
82 295
83 178
84 105
85 84
86 178
87 203
88 177
89 322
90 140
91 165
92 100
93 355
94 204
95 215
96 138
97 151
98 146
99 130
100 97
101 155
102 158
103 146
104 168
105 197
106 165
107 145
108 331
109 137
110 123
111 71
112 56
113 121
114 191
115 267
116 162
117 132
118 76
119 53
120 120
121 201
122 122
123 96
124 74
125 111
126 95
127 85
128 122
129 136
130 45
131 67
132 68
133 208
134 128
135 130
136 10
137 83
138 16
139 137
144 8
145 160
146 178
147 445
148 419
149 185
150 131
151 92
152 168
153 8
155 27
156 59
157 124
158 218
159 342
160 182
161 107
162 15
163 50
164 63
165 112
166 103
167 17
175 29
176 81
177 201
178 84
179 38
189 73
190 95
191 959
192 999
193 426
194 312
195 91

$$$$

     RDKit          2D

 16 17  0  0  0  0  0  0  0  0999 V2000
    3.8989   -1.5002    0.0000 C   0  0  0  0  0  0  0  0  0  0  0  0
    3.8989    1.5002    0.0000 C   0  0  0  0  0  0  0  0  0  0  0  0
    4.6491    0.2013    0.0000 H   0  0  0  0  0  0  0  0  0  0  0  0
    5.1978    2.2504    0.0000 H   0  0  0  0  0  0  0  0  0  0  0  0
    3.1487    2.7991    0.0000 H   0  0  0  0  0  0  0  0  0  0  0  0
   -2.6000   -0.7500    0.0000 C   0  0  0  0  0  0  0  0  0  0  0  0
   -2.6000    0.7500    0.0000 C   0  0  0  0  0  0  0  0  0  0  0  0
   -1.3000   -1.5000    0.0000 C   0  0  0  0  0  0  0  0  0  0  0  0
   -1.3000    1.5000    0.0000 C   0  0  0  0  0  0  0  0  0  0  0  0
    2.6000   -0.7500    0.0000 C   0  0  0  0  0  0  0  0  0  0  0  0
    2.6000    0.7500    0.0000 C   0  0  0  0  0  0  0  0  0  0  0  0
    0.0000   -0.7500    0.0000 C   0  0  0  0  0  0  0  0  0  0  0  0
    0.0000    0.7500    0.0000 C   0  0  0  0  0  0  0  0  0  0  0  0
    1.3000   -1.5000    0.0000 C   0  0  0  0  0  0  0  0  0  0  0  0
    1.3000   -3.0000    0.0000 O   0  0  0  0  0  0  0  0  0  0  0  0
    1.3000    1.5000    0.0000 S   0  0  0  0  0  0  0  0  0  0  0  0
  2  3  1  0
  2  4  1  0
  2  5  1  0
  7  6  2  0
  8  6  1  0
  9  7  1  0
 10  1  1  0
 11  2  1  0
 11 10  2  0
 12  8  2  0
 13  9  2  0
 13 12  1  0
 14 10  1  0
 14 12  1  0
 15 14  2  0
 16 11  1  0
 16 13  1  0
M  ISO  3   3   2   4   2   5   2
M  END
>  <NAME>  (1746) 
2-TRIDEUTROMETHYL-3-METHYLTHIOCHROMONE

>  <SYNONYMS>  (1746) 


>  <SPECTRUM TYPE>  (1746) 
MS1

>  <INSTRUMENT TYPE>  (1746) 
EI-B

>  <INSTRUMENT>  (1746) 
HITACHI RMU-7L

>  <ION MODE>  (1746) 
P

>  <INCHIKEY>  (1746) 
MBMJRWSFDYUTRL-BMSJAHLVSA-N

>  <FORMULA>  (1746) 
C11H10OS

>  <EXACT MASS>  (1746) 
193.06406617800002

>  <MW>  (1746) 
193

>  <ID>  (1746) 
JP009438

>  <CONTRIBUTOR>  (1746) 
University of Tokyo Team, {Faculty of Engineering, University of Tokyo

>  <COMMENT>  (1746) 
SMILES=[2H]C([2H])([2H])C(S1)=C(C)C(=O)c(c2)c(ccc2)1
InChI=InChI=1S/C11H10OS/c1-7-8(2)13-10-6-4-3-5-9(10)11(7)12/h3-6H,1-2H3/i2D3
computed SMILES=[H]C([H])([H])C=1SC=2C=CC=CC2C(=O)C1C
accession=JP009438
date=2016.01.19 (Created 2008.10.21, modified 2011.05.06)
author=EGUCHI S, FAC. OF SCIENCE, HIROSHIMA UNIV.
license=CC BY-NC-SA
exact mass=190.04524
ionization energy=70 eV
ion type=[M]+*
computed spectral entropy=3.967046971126387
computed normalized entropy=0.8271935426305751
SPLASH=splash10-000f-4900000000-81931f950deefe97a303
submitter=submitter = University of Tokyo Team (Faculty of Engineering, University of Tokyo)
MoNA Rating=3.75

>  <NUM PEAKS>  (1746) 
121

>  <MASS SPECTRAL PEAKS>  (1746) 
40 2
41 3
42 1.5
43 3.5
44 1
45 4
46 1
47 5
48 1
49 3
50 4
51 3
52 1.5
53 2.5
54 1
55 3.5
56 4
57 3
58 3
59 1
60 1
61 1.5
62 3.5
63 6
64 2
65 2.5
66 1.5
67 1
68 1
69 13.5
70 1.5
71 2.5
72 1
73 1.5
74 3
75 3
76 4
77 3.5
78 1.5
79 2
80 1
81 2.5
82 4.5
83 3.5
84 19.5
85 1
86 12
87 1.5
89 3.5
90 1
91 1
92 1.5
93 3
94 2
95 1
96 1.5
97 1.5
98 1
99 1
101 1
102 1.5
103 1.5
104 2
105 2.5
106 1
107 2
108 22
109 6
110 3
111 2.5
112 1
113 1
114 1
115 1.5
116 1.5
117 2
118 2
119 2.5
120 1.5
121 1.5
122 1
123 1
124 1
125 2.5
126 1
127 1
128 1.5
129 2.5
130 4
131 6
132 6
133 1.5
134 1
135 1.5
136 37
137 15
138 6
139 1
140 1
146 1.5
147 7
148 7.5
149 7
150 5.5
151 3
152 1
158 1
159 16
160 26
161 4
162 2
163 4
164 7
165 8
166 3
167 2
191 2
192 11
193 99.99
194 12.5
195 4

>  <PREDICTED SPECTRUM>  (1746) 
26 2
33 10
34 13
37 16
38 38
39 120
40 19
41 7
43 67
44 15
45 182
46 18
49 14
50 175
51 214
52 113
53 67
54 28
57 73
58 89
59 52
60 58
61 76
62 116
63 196
64 102
65 115
66 48
67 38
69 229
70 76
71 77
72 25
73 10
74 131
75 144
76 219
77 254
78 121
79 69
80 30
81 53
82 151
83 71
84 19
85 3
86 34
87 68
88 74
89 181
90 139
91 187
92 100
93 137
94 86
95 118
96 61
97 18
98 31
99 12
100 10
102 108
103 120
104 209
105 104
106 50
107 47
108 83
109 45
110 53
111 61
112 23
113 35
114 46
115 199
116 59
117 67
118 18
119 88
120 104
121 163
122 121
123 63
124 36
125 11
126 29
127 30
128 82
129 60
130 121
131 133
132 189
133 184
134 129
135 79
136 121
137 238
138 139
139 132
140 56
141 24
142 6
144 28
145 88
146 54
147 31
148 84
149 115
150 156
151 101
152 89
153 18
158 37
159 41
160 402
161 167
162 113
163 117
164 427
165 288
166 143
167 12
175 1
176 63
177 17
178 184
179 71
190 7
191 89
192 575
193 999
194 397
195 232
196 52

$$$$

     RDKit          2D

 12 13  0  0  0  0  0  0  0  0999 V2000
    3.8989    1.5002    0.0000 C   0  0  0  0  0  0  0  0  0  0  0  0
   -2.6000   -0.7500    0.0000 C   0  0  0  0  0  0  0  0  0  0  0  0
   -2.6000    0.7500    0.0000 C   0  0  0  0  0  0  0  0  0  0  0  0
   -1.3000   -1.5000    0.0000 C   0  0  0  0  0  0  0  0  0  0  0  0
   -1.3000    1.5000    0.0000 C   0  0  0  0  0  0  0  0  0  0  0  0
    2.6000   -0.7500    0.0000 C   0  0  0  0  0  0  0  0  0  0  0  0
    2.6000    0.7500    0.0000 C   0  0  0  0  0  0  0  0  0  0  0  0
    0.0000   -0.7500    0.0000 C   0  0  0  0  0  0  0  0  0  0  0  0
    1.3000   -1.5000    0.0000 C   0  0  0  0  0  0  0  0  0  0  0  0
    0.0000    0.7500    0.0000 C   0  0  0  0  0  0  0  0  0  0  0  0
    1.3000   -3.0000    0.0000 O   0  0  0  0  0  0  0  0  0  0  0  0
    1.3000    1.5000    0.0000 S   0  0  0  0  0  0  0  0  0  0  0  0
  3  2  2  0
  4  2  1  0
  5  3  1  0
  7  1  1  0
  7  6  2  0
  8  4  2  0
  9  6  1  0
  9  8  1  0
 10  5  2  0
 10  8  1  0
 11  9  2  0
 12  7  1  0
 12 10  1  0
M  END
>  <NAME>  (1747) 
2-METHYLTHIOCHROMONE

>  <SYNONYMS>  (1747) 


>  <SPECTRUM TYPE>  (1747) 
MS1

>  <INSTRUMENT TYPE>  (1747) 
EI-B

>  <INSTRUMENT>  (1747) 
HITACHI RMU-7L

>  <ION MODE>  (1747) 
P

>  <INCHIKEY>  (1747) 
MGMTVGPDPYFNAU-UHFFFAOYSA-N

>  <FORMULA>  (1747) 
C10H8OS

>  <EXACT MASS>  (1747) 
176.029585876

>  <MW>  (1747) 
176

>  <ID>  (1747) 
JP009436

>  <CONTRIBUTOR>  (1747) 
University of Tokyo Team, {Faculty of Engineering, University of Tokyo

>  <COMMENT>  (1747) 
SMILES=CC(=C1)Sc(c2)c(ccc2)C(=O)1
InChI=InChI=1S/C10H8OS/c1-7-6-9(11)8-4-2-3-5-10(8)12-7/h2-6H,1H3
computed SMILES=O=C1C=C(SC=2C=CC=CC12)C
accession=JP009436
date=2016.01.19 (Created 2008.10.21, modified 2011.05.06)
author=EGUCHI S, FAC. OF SCIENCE, HIROSHIMA UNIV.
license=CC BY-NC-SA
exact mass=176.02959
ionization energy=70 eV
ion type=[M]+*
computed spectral entropy=3.3230916223985116
computed normalized entropy=0.7673276928610898
SPLASH=splash10-004j-4900000000-78aa01063882d235db86
submitter=submitter = University of Tokyo Team (Faculty of Engineering, University of Tokyo)
MoNA Rating=3.75

>  <NUM PEAKS>  (1747) 
76

>  <MASS SPECTRAL PEAKS>  (1747) 
40 3
41 1
44 1
45 9
46 1
47 1.5
50 7.5
51 6
52 1
53 1.5
57 1.5
58 6
59 2
60 1
61 2.5
62 5
63 10.5
64 3
65 2.5
66 1.5
67 7
68 1
69 26.5
70 1.5
71 5
72 3
73 4.5
74 10.5
75 3
76 5
77 4.5
78 1
81 3
82 7.5
83 1
84 1.5
85 2.5
86 2
87 1
88 1
89 3
90 1
91 1
92 3
93 2.5
94 1
95 1
101 1
102 2
103 3
104 1.5
105 1
106 1
107 2
108 22.5
109 3
110 2.5
115 6
116 1
121 2.5
122 1
135 1
136 33
137 4.5
138 2
145 1
146 2
147 52
148 52.5
149 7.5
150 3
175 1
176 99.99
177 14
178 6.5
179 1

>  <PREDICTED SPECTRUM>  (1747) 
14 0
15 26
26 30
27 63
28 28
29 39
32 15
37 79
38 119
39 200
40 53
41 58
43 101
44 14
45 283
46 24
47 18
49 36
50 205
51 242
52 105
53 67
57 90
58 139
59 30
61 79
62 123
63 281
64 94
65 92
66 11
67 29
68 11
69 381
70 110
71 66
72 30
73 69
74 160
75 163
76 131
77 180
78 81
79 25
80 20
81 128
82 223
83 22
84 48
85 20
86 23
87 23
89 76
90 74
92 34
93 116
94 9
95 78
96 72
97 121
98 34
99 74
100 3
101 44
102 177
103 204
104 139
105 102
106 137
107 164
108 485
109 280
113 41
114 82
115 131
116 96
117 58
119 21
120 40
121 164
122 51
123 40
127 52
128 4
131 26
132 0
133 154
134 64
135 56
136 758
137 131
143 8
144 106
145 93
146 146
147 582
148 849
149 288
150 168
151 13
161 109
162 21
175 181
176 999
177 363
178 202
179 50

$$$$

     RDKit          2D

 15 17  0  0  0  0  0  0  0  0999 V2000
   -4.2587   -3.2243    0.0000 C   0  0  0  0  0  0  0  0  0  0  0  0
   -4.2587    0.8738    0.0000 C   0  0  0  0  0  0  0  0  0  0  0  0
    1.6875   -1.9252    0.0000 C   0  0  0  0  0  0  0  0  0  0  0  0
    0.3885   -2.6752    0.0000 C   0  0  0  0  0  0  0  0  0  0  0  0
    0.3885    0.3248    0.0000 C   0  0  0  0  0  0  0  0  0  0  0  0
   -4.8077   -1.1752    0.0000 C   0  0  0  0  0  0  0  0  0  0  0  0
    1.6875   -0.4252    0.0000 C   0  0  0  0  0  0  0  0  0  0  0  0
   -0.9106   -1.9252    0.0000 C   0  0  0  0  0  0  0  0  0  0  0  0
   -0.9106   -0.4252    0.0000 C   0  0  0  0  0  0  0  0  0  0  0  0
   -2.2096   -2.6752    0.0000 C   0  0  0  0  0  0  0  0  0  0  0  0
   -3.5087   -1.9252    0.0000 C   0  0  0  0  0  0  0  0  0  0  0  0
   -3.5087   -0.4252    0.0000 C   0  0  0  0  0  0  0  0  0  0  0  0
    2.9865    0.3248    0.0000 Cl  0  0  0  0  0  0  0  0  0  0  0  0
   -2.2096   -4.1752    0.0000 O   0  0  0  0  0  0  0  0  0  0  0  0
   -2.2096    0.3248    0.0000 O   0  0  0  0  0  0  0  0  0  0  0  0
  4  3  2  0
  7  3  1  0
  7  5  2  0
  8  4  1  0
  9  5  1  0
  9  8  2  0
 10  8  1  0
 11  1  1  0
 11  6  1  0
 11 10  1  0
 12  2  1  0
 12  6  1  0
 12 11  1  0
 13  7  1  0
 14 10  2  0
 15  9  1  0
 15 12  1  0
M  END
>  <NAME>  (1748) 
1,6-DIMETHYL-3,4-(5'-CHLOROBENZO)-2-OXABICYCLO(4.1.0)HEPT-3-EN-5-ONE

>  <SYNONYMS>  (1748) 


>  <SPECTRUM TYPE>  (1748) 
MS1

>  <INSTRUMENT TYPE>  (1748) 
EI-B

>  <INSTRUMENT>  (1748) 
HITACHI RMU-7L

>  <ION MODE>  (1748) 
P

>  <INCHIKEY>  (1748) 
JCJUWMGJSYDXDU-UHFFFAOYSA-N

>  <FORMULA>  (1748) 
C12H11ClO2

>  <EXACT MASS>  (1748) 
222.044757272

>  <MW>  (1748) 
222

>  <ID>  (1748) 
JP009435

>  <CONTRIBUTOR>  (1748) 
University of Tokyo Team, {Faculty of Engineering, University of Tokyo

>  <COMMENT>  (1748) 
SMILES=Clc(c3)cc(O1)c(c3)C(=O)C(C)(C2)C(C)12
InChI=InChI=1S/C12H11ClO2/c1-11-6-12(11,2)15-9-5-7(13)3-4-8(9)10(11)14/h3-5H,6H2,1-2H3
computed SMILES=O=C1C2=CC=C(Cl)C=C2OC3(C)CC13C
accession=JP009435
date=2016.01.19 (Created 2008.10.21, modified 2011.05.06)
author=EGUCHI S, FAC. OF SCIENCE, HIROSHIMA UNIV.
license=CC BY-NC-SA
exact mass=222.04476
ionization energy=70 eV
ion type=[M]+*
computed spectral entropy=3.7997126641643226
computed normalized entropy=0.8444163070313686
SPLASH=splash10-05fr-2950000000-a2a67e23442bdd44586f
submitter=submitter = University of Tokyo Team (Faculty of Engineering, University of Tokyo)
MoNA Rating=3.75

>  <NUM PEAKS>  (1748) 
90

>  <MASS SPECTRAL PEAKS>  (1748) 
53 12.5
54 1.5
60 1
62 1.5
63 14
64 1.5
65 5
66 3
67 16
68 1.5
69 4.5
73 2
74 3
75 12.5
76 2.5
80 2
89 2.5
90 1
91 3
97 1.5
98 2
99 7
101 1.5
102 2
110 12
111 3
112 6
113 2
115 10
116 7
117 2
125 2
126 4
127 6
128 24.5
129 3
130 6.5
131 3
132 1
136 2
137 3
138 20
139 2
140 7
141 2
142 1
143 1.5
144 4
145 13.5
146 2.5
154 7
155 56.5
156 7
157 16.5
158 4
159 5
160 3
165 5
166 1.5
167 1
168 1
169 1
177 2
178 4.5
179 32.5
180 12.5
181 10
182 30
183 3
184 8
187 3
188 12.5
189 3
192 1.5
193 12.5
194 3.5
195 4
196 2
197 2
206 2
207 25
208 5
209 12
210 3
211 1
221 14.5
222 99.99
223 31
224 34
225 3

>  <PREDICTED SPECTRUM>  (1748) 
15 20
38 65
39 138
40 56
41 164
42 53
43 57
44 14
49 44
50 183
51 237
52 114
53 150
54 5
55 66
61 114
62 171
63 339
64 169
65 157
66 84
67 101
68 32
69 240
70 13
72 40
73 129
74 157
75 270
76 184
77 141
78 56
79 55
81 1
82 33
83 5
84 50
85 49
86 79
87 121
88 69
89 212
90 148
91 105
92 36
96 7
97 16
98 60
99 124
100 56
101 135
102 140
103 103
104 39
105 3
106 20
107 70
109 47
110 123
111 206
112 65
113 89
114 97
115 198
116 170
117 140
118 46
119 86
121 5
122 22
123 106
124 57
125 170
126 235
127 266
128 261
129 192
130 218
131 78
132 49
133 3
134 5
136 41
137 44
138 207
139 173
140 212
141 182
142 135
143 117
144 145
145 210
146 67
149 21
151 17
152 118
153 180
154 231
155 337
156 188
157 297
158 98
159 163
160 60
163 36
164 6
165 129
166 62
167 130
168 93
169 87
170 49
171 68
172 84
177 30
178 66
179 495
180 386
181 451
182 482
183 214
184 192
185 49
186 4
187 252
188 127
191 5
192 67
193 355
194 163
195 225
196 145
197 83
206 67
207 649
208 250
209 417
210 177
221 306
222 999
223 438
224 636
225 241
226 80

$$$$

     RDKit          2D

 14 16  0  0  0  0  0  0  0  0999 V2000
    1.5000   -0.0000    0.0000 C   0  0  0  0  0  0  0  0  0  0  0  0
   -2.5981    4.5000    0.0000 C   0  0  0  0  0  0  0  0  0  0  0  0
   -1.2990    3.7500    0.0000 C   0  0  0  0  0  0  0  0  0  0  0  0
   -3.8971    2.2500    0.0000 C   0  0  0  0  0  0  0  0  0  0  0  0
   -0.0000   -1.5000    0.0000 C   0  0  0  0  0  0  0  0  0  0  0  0
   -3.8971    3.7500    0.0000 C   0  0  0  0  0  0  0  0  0  0  0  0
   -1.2990    2.2500    0.0000 C   0  0  0  0  0  0  0  0  0  0  0  0
   -2.5981    1.5000    0.0000 C   0  0  0  0  0  0  0  0  0  0  0  0
   -1.2990   -0.7500    0.0000 C   0  0  0  0  0  0  0  0  0  0  0  0
    0.0000    1.5000    0.0000 C   0  0  0  0  0  0  0  0  0  0  0  0
    0.0000    0.0000    0.0000 C   0  0  0  0  0  0  0  0  0  0  0  0
   -5.1962    4.5000    0.0000 Cl  0  0  0  0  0  0  0  0  0  0  0  0
    1.2990    2.2500    0.0000 O   0  0  0  0  0  0  0  0  0  0  0  0
   -2.5981   -0.0000    0.0000 O   0  0  0  0  0  0  0  0  0  0  0  0
  3  2  2  0
  6  2  1  0
  6  4  2  0
  7  3  1  0
  8  4  1  0
  8  7  2  0
  9  5  1  0
 10  7  1  0
 11  1  1  0
 11  5  1  0
 11  9  1  0
 11 10  1  0
 12  6  1  0
 13 10  2  0
 14  8  1  0
 14  9  1  0
M  END
>  <NAME>  (1749) 
6-METHYL-3,4-(5'-CHLOROBENZO)-2-OXABICYCLO(4.1.0)HEPT-3-EN-5-ONE

>  <SYNONYMS>  (1749) 


>  <SPECTRUM TYPE>  (1749) 
MS1

>  <INSTRUMENT TYPE>  (1749) 
EI-B

>  <INSTRUMENT>  (1749) 
HITACHI RMU-7L

>  <ION MODE>  (1749) 
P

>  <INCHIKEY>  (1749) 
QXHWEEJMQGJQLJ-UHFFFAOYSA-N

>  <FORMULA>  (1749) 
C11H9ClO2

>  <EXACT MASS>  (1749) 
208.029107208

>  <MW>  (1749) 
208

>  <ID>  (1749) 
JP009434

>  <CONTRIBUTOR>  (1749) 
University of Tokyo Team, {Faculty of Engineering, University of Tokyo

>  <COMMENT>  (1749) 
SMILES=Clc(c3)cc(O1)c(c3)C(=O)C(C)(C2)C12
InChI=InChI=1S/C11H9ClO2/c1-11-5-9(11)14-8-4-6(12)2-3-7(8)10(11)13/h2-4,9H,5H2,1H3
computed SMILES=O=C1C2=CC=C(Cl)C=C2OC3CC13C
accession=JP009434
date=2016.01.19 (Created 2008.10.21, modified 2011.05.06)
author=EGUCHI S, FAC. OF SCIENCE, HIROSHIMA UNIV.
license=CC BY-NC-SA
exact mass=208.02911
ionization energy=70 eV
ion type=[M]+*
computed spectral entropy=4.0201440479372135
computed normalized entropy=0.8536189123104
SPLASH=splash10-0929-6920000000-a67f61c8f05797a60fac
submitter=submitter = University of Tokyo Team (Faculty of Engineering, University of Tokyo)
MoNA Rating=3.75

>  <NUM PEAKS>  (1749) 
111

>  <MASS SPECTRAL PEAKS>  (1749) 
50 23
51 21
52 3
53 38
54 4
55 4.5
56 1.5
57 1
58 6
59 1.5
61 0.5
62 11
63 54
64 9.5
65 8
66 3
67 2
68 1
69 11
71 3
72 3.5
73 8.5
74 20
75 49
76 11
77 10
78 1.5
79 1
84 2
85 4
86 4.5
87 4.5
88 1
89 8
90 1
91 20
92 2.5
93 1
96 1
97 4
98 9
99 12.5
100 4
101 9.5
102 9
103 2
104 1
105 6
106 1
107 1
109 2
110 34
111 7
112 14
114 4
115 22.5
116 5
117 10.5
118 1
119 2
124 1
125 2
126 16
127 2.5
128 7
129 1.5
130 2.5
131 1.5
132 1.1
134 1
135 1
136 2
137 4
138 31
139 12
140 10.5
141 3
143 1
144 5
145 24.5
146 3
147 1
149 2
151 1
154 6
155 14.5
156 4.5
157 3.5
158 1
165 45
166 3.5
167 16.5
168 45
169 4.5
170 12.5
171 2
172 1
173 5
179 31
180 5
181 14.5
182 3.5
183 2
193 8
194 2
195 3
207 4
208 99.99
209 12.5
210 34
211 3

>  <PREDICTED SPECTRUM>  (1749) 
15 45
25 5
26 26
29 26
35 47
36 58
37 122
38 178
39 272
40 123
41 177
42 109
43 134
44 125
45 26
47 58
49 191
50 368
51 402
52 213
53 273
54 74
55 208
56 21
57 100
58 63
59 2
60 14
61 282
62 358
63 505
64 257
65 189
66 100
67 101
68 92
69 374
70 133
71 107
72 187
73 295
74 377
75 488
76 338
77 342
78 142
79 132
80 3
81 36
82 101
83 41
84 110
85 231
86 235
87 251
88 186
89 272
90 165
91 184
92 112
93 29
94 11
95 28
96 89
97 196
98 230
99 229
100 77
101 245
102 229
103 212
104 92
105 156
106 23
107 104
108 19
109 157
110 162
111 280
112 178
113 178
114 236
115 312
116 212
117 187
118 95
119 74
120 4
121 70
122 55
123 260
124 82
125 196
126 243
127 212
128 122
129 147
130 160
131 175
132 62
133 56
134 44
135 1
136 173
137 187
138 322
139 384
140 295
141 263
142 51
143 111
144 144
145 406
146 172
147 40
149 53
151 108
152 65
153 205
154 206
155 197
156 132
157 105
158 84
164 60
165 732
166 311
167 502
168 530
169 283
170 188
171 81
173 191
174 60
177 65
179 526
180 359
181 333
182 290
183 144
184 11
193 411
194 121
195 249
196 74
207 186
208 999
209 375
210 576
211 200
212 75

$$$$

     RDKit          2D

 16 18  0  0  0  0  0  0  0  0999 V2000
    2.1863    2.0858    0.0000 C   0  0  0  0  0  0  0  0  0  0  0  0
    2.1863   -2.0123    0.0000 C   0  0  0  0  0  0  0  0  0  0  0  0
   -6.3579   -0.7132    0.0000 C   0  0  0  0  0  0  0  0  0  0  0  0
   -3.7599    0.7868    0.0000 C   0  0  0  0  0  0  0  0  0  0  0  0
   -2.4608    1.5368    0.0000 C   0  0  0  0  0  0  0  0  0  0  0  0
   -2.4608   -1.4632    0.0000 C   0  0  0  0  0  0  0  0  0  0  0  0
    2.7353    0.0368    0.0000 C   0  0  0  0  0  0  0  0  0  0  0  0
   -3.7599   -0.7132    0.0000 C   0  0  0  0  0  0  0  0  0  0  0  0
   -1.1618    0.7868    0.0000 C   0  0  0  0  0  0  0  0  0  0  0  0
   -1.1618   -0.7132    0.0000 C   0  0  0  0  0  0  0  0  0  0  0  0
    0.1373    1.5368    0.0000 C   0  0  0  0  0  0  0  0  0  0  0  0
    1.4363    0.7868    0.0000 C   0  0  0  0  0  0  0  0  0  0  0  0
    1.4363   -0.7132    0.0000 C   0  0  0  0  0  0  0  0  0  0  0  0
    0.1373    3.0368    0.0000 O   0  0  0  0  0  0  0  0  0  0  0  0
   -5.0589   -1.4632    0.0000 O   0  0  0  0  0  0  0  0  0  0  0  0
    0.1373   -1.4632    0.0000 O   0  0  0  0  0  0  0  0  0  0  0  0
  5  4  2  0
  8  4  1  0
  8  6  2  0
  9  5  1  0
 10  6  1  0
 10  9  2  0
 11  9  1  0
 12  1  1  0
 12  7  1  0
 12 11  1  0
 13  2  1  0
 13  7  1  0
 13 12  1  0
 14 11  2  0
 15  3  1  0
 15  8  1  0
 16 10  1  0
 16 13  1  0
M  END
>  <NAME>  (1750) 
1,6-DIMETHYL-3,4-(5'-METHOXYBENZO)-2-OXABICYCLO(4.1.0)HEPT-3-EN-5-ONE

>  <SYNONYMS>  (1750) 


>  <SPECTRUM TYPE>  (1750) 
MS1

>  <INSTRUMENT TYPE>  (1750) 
EI-B

>  <INSTRUMENT>  (1750) 
HITACHI RMU-7L

>  <ION MODE>  (1750) 
P

>  <INCHIKEY>  (1750) 
LUPDDXPOCMRECU-UHFFFAOYSA-N

>  <FORMULA>  (1750) 
C13H14O3

>  <EXACT MASS>  (1750) 
218.09429430799997

>  <MW>  (1750) 
218

>  <ID>  (1750) 
JP009433

>  <CONTRIBUTOR>  (1750) 
University of Tokyo Team, {Faculty of Engineering, University of Tokyo

>  <COMMENT>  (1750) 
SMILES=COc(c3)cc(O1)c(c3)C(=O)C(C)(C2)C(C)12
InChI=InChI=1S/C13H14O3/c1-12-7-13(12,2)16-10-6-8(15-3)4-5-9(10)11(12)14/h4-6H,7H2,1-3H3
computed SMILES=O=C1C2=CC=C(OC)C=C2OC3(C)CC13C
accession=JP009433
date=2016.01.19 (Created 2008.10.21, modified 2011.05.06)
author=EGUCHI S, FAC. OF SCIENCE, HIROSHIMA UNIV.
license=CC BY-NC-SA
exact mass=218.09429
ionization energy=70 eV
ion type=[M]+*
computed spectral entropy=4.327377170559538
computed normalized entropy=0.8756961351069552
SPLASH=splash10-0hk9-5910000000-84aae4440a9bcc7353fa
submitter=submitter = University of Tokyo Team (Faculty of Engineering, University of Tokyo)
MoNA Rating=3.75

>  <NUM PEAKS>  (1750) 
140

>  <MASS SPECTRAL PEAKS>  (1750) 
50 16
51 40
52 12
53 31
54 9
55 16
56 4
57 12.5
58 3
59 1
60 1
61 7
62 17
63 86
64 17
65 18
66 3
67 10
68 2
69 16
70 3
71 6.5
72 3.5
73 6
74 14
75 30
76 6
77 24.5
78 6.5
79 12
80 2
81 1
82 1
83 2
84 1
85 1.5
86 2
87 1
88 2.5
89 8
90 2
91 26
92 10
93 5
94 9.5
95 16.5
96 2
97 4
98 2
99 1.5
100 3
101 4.5
102 4
103 12.5
104 5
105 7
106 54
107 14
108 12
109 3
110 17
111 5
112 6
113 4
114 2
115 23
116 5
117 11
118 4
119 5
120 3
121 2.5
122 8
123 5
124 15
125 5
126 9
127 5
128 6
129 3
130 2
131 8
132 12
133 2
134 44.5
135 11.5
136 3.5
137 12.5
138 16
139 3
140 2.5
143 2
144 4.5
145 18.5
146 7.5
147 9
148 5
149 3
150 2.5
151 76
152 7
153 2
154 2.5
155 6
156 1.5
157 2
158 2
159 9
160 6
161 22.5
162 2
163 7
164 3
165 20
166 3
167 6
168 18
169 1.5
175 70
176 25
177 10
178 56.5
179 20
180 3
181 5
182 1.5
183 1
187 1.5
188 6
189 21.5
190 4
191 1.5
202 1.5
203 18
204 16
205 3
217 8
218 99.99
219 14.5
220 1.5

>  <PREDICTED SPECTRUM>  (1750) 
14 17
15 103
16 6
17 0
18 15
26 48
27 74
28 67
29 94
30 55
32 6
34 15
37 95
38 211
39 470
40 230
41 537
42 286
43 387
44 168
45 45
49 37
50 350
51 537
52 393
53 421
54 168
55 368
56 197
57 252
58 56
59 62
60 21
61 142
62 289
63 531
64 351
65 434
66 254
67 280
68 157
69 515
70 136
71 107
72 17
73 86
74 293
75 297
76 348
77 562
78 382
79 466
80 234
81 186
82 166
83 158
84 105
85 74
86 80
87 151
88 121
89 314
90 265
91 414
92 337
93 251
94 240
95 296
96 129
97 105
98 120
99 82
100 5
101 92
102 209
103 224
104 181
105 279
106 375
107 508
108 344
109 220
110 173
111 68
112 9
113 32
115 354
116 190
117 179
118 180
119 239
120 176
121 161
122 340
123 248
124 181
125 116
126 111
127 101
128 98
129 67
130 38
131 109
132 238
133 238
134 395
135 402
136 188
137 182
138 162
139 56
140 75
141 71
142 41
144 62
145 160
146 222
147 242
148 254
149 230
150 337
151 999
152 561
155 36
157 109
158 100
159 235
160 271
161 402
162 225
163 188
164 251
165 572
171 33
172 6
173 222
174 187
175 468
176 499
177 323
178 507
179 193
180 32
186 0
187 79
188 229
189 403
190 173
191 61
201 61
202 119
203 608
204 267
205 76
206 15
217 190
218 968
219 398
220 127
221 28

$$$$

     RDKit          2D

 15 17  0  0  0  0  0  0  0  0999 V2000
    1.7745    4.0245    0.0000 C   0  0  0  0  0  0  0  0  0  0  0  0
   -6.7697    1.2255    0.0000 C   0  0  0  0  0  0  0  0  0  0  0  0
   -4.1716    2.7255    0.0000 C   0  0  0  0  0  0  0  0  0  0  0  0
   -2.8726    3.4755    0.0000 C   0  0  0  0  0  0  0  0  0  0  0  0
   -2.8726    0.4755    0.0000 C   0  0  0  0  0  0  0  0  0  0  0  0
    2.3236    1.9755    0.0000 C   0  0  0  0  0  0  0  0  0  0  0  0
   -4.1716    1.2255    0.0000 C   0  0  0  0  0  0  0  0  0  0  0  0
   -1.5736    2.7255    0.0000 C   0  0  0  0  0  0  0  0  0  0  0  0
   -1.5736    1.2255    0.0000 C   0  0  0  0  0  0  0  0  0  0  0  0
    1.0245    1.2255    0.0000 C   0  0  0  0  0  0  0  0  0  0  0  0
   -0.2745    3.4755    0.0000 C   0  0  0  0  0  0  0  0  0  0  0  0
    1.0245    2.7255    0.0000 C   0  0  0  0  0  0  0  0  0  0  0  0
   -0.2745    4.9755    0.0000 O   0  0  0  0  0  0  0  0  0  0  0  0
   -5.4707    0.4755    0.0000 O   0  0  0  0  0  0  0  0  0  0  0  0
   -0.2745    0.4755    0.0000 O   0  0  0  0  0  0  0  0  0  0  0  0
  4  3  2  0
  7  3  1  0
  7  5  2  0
  8  4  1  0
  9  5  1  0
  9  8  2  0
 10  6  1  0
 11  8  1  0
 12  1  1  0
 12  6  1  0
 12 10  1  0
 12 11  1  0
 13 11  2  0
 14  2  1  0
 14  7  1  0
 15  9  1  0
 15 10  1  0
M  END
>  <NAME>  (1751) 
6-METHYL-3,4-(5'-METHOXYBENZO)-2-OXABICYCLO(4.1.0)HEPT-3-EN-5-ONE

>  <SYNONYMS>  (1751) 


>  <SPECTRUM TYPE>  (1751) 
MS1

>  <INSTRUMENT TYPE>  (1751) 
EI-B

>  <INSTRUMENT>  (1751) 
HITACHI RMU-7L

>  <ION MODE>  (1751) 
P

>  <INCHIKEY>  (1751) 
YMAGECSHLQMIKM-UHFFFAOYSA-N

>  <FORMULA>  (1751) 
C12H12O3

>  <EXACT MASS>  (1751) 
204.07864424399997

>  <MW>  (1751) 
204

>  <ID>  (1751) 
JP009432

>  <CONTRIBUTOR>  (1751) 
University of Tokyo Team, {Faculty of Engineering, University of Tokyo

>  <COMMENT>  (1751) 
SMILES=COc(c3)cc(O1)c(c3)C(=O)C(C)(C2)C12
InChI=InChI=1S/C12H12O3/c1-12-6-10(12)15-9-5-7(14-2)3-4-8(9)11(12)13/h3-5,10H,6H2,1-2H3
computed SMILES=O=C1C2=CC=C(OC)C=C2OC3CC13C
accession=JP009432
date=2016.01.19 (Created 2008.10.21, modified 2011.05.06)
author=EGUCHI S, FAC. OF SCIENCE, HIROSHIMA UNIV.
license=CC BY-NC-SA
exact mass=204.07864
ionization energy=70 eV
ion type=[M]+*
computed spectral entropy=3.8355755302066745
computed normalized entropy=0.8191943677243958
SPLASH=splash10-0ik9-5910000000-fd316b287f683ce1a810
submitter=submitter = University of Tokyo Team (Faculty of Engineering, University of Tokyo)
MoNA Rating=3.75

>  <NUM PEAKS>  (1751) 
108

>  <MASS SPECTRAL PEAKS>  (1751) 
50 14
51 32
52 24
53 27
54 5
55 8
56 1.5
57 5
58 1
59 1
60 1
61 2
62 13
63 76
64 14
65 12
66 2
67 1
68 1
69 12.5
70 2
71 2.5
72 1
73 1
74 5
75 12.5
76 7
77 12
78 10
79 14.5
80 4.5
81 3
82 1
83 2
84 1
85 1.5
86 1
87 1.5
88 3
89 5
90 4.5
91 12
92 11
93 3
94 2
95 6
96 1.5
97 2
101 1
102 2
103 8
104 2
105 8
106 71
107 22
108 8
109 1
111 1
115 11
116 4
117 3.5
118 8
119 4
120 3
121 4
122 10
123 2
124 1.5
125 1
131 1
132 3
133 9
134 62.5
135 18.5
136 2
137 1
143 1
144 1.5
145 5
146 4.5
147 4
148 2
149 13
150 8
151 19
152 2
159 6
160 7
161 92
162 21
163 19
164 88
165 20
166 2.5
173 2
174 1
175 46
176 11.5
177 5
178 1
187 1
188 1
189 24.5
190 2
203 6
204 99.99
205 11.5
206 1

>  <PREDICTED SPECTRUM>  (1751) 
14 6
15 80
25 2
26 75
27 101
28 30
29 136
30 2
31 23
37 131
38 227
39 389
40 193
41 295
42 187
43 161
44 148
45 74
49 121
50 401
51 578
52 398
53 421
54 213
55 325
56 154
57 217
58 60
59 35
60 16
61 208
62 335
63 548
64 367
65 435
66 247
67 212
68 154
69 461
70 146
71 63
72 50
73 74
74 316
75 361
76 364
77 554
78 466
79 417
80 246
81 197
82 183
83 157
84 77
85 141
86 143
87 183
88 114
89 377
90 238
91 422
92 386
93 292
94 259
95 260
96 156
97 55
98 103
99 56
100 17
101 123
102 179
103 248
104 206
105 378
106 453
107 475
108 295
109 244
110 143
111 110
112 31
113 25
114 54
115 296
116 143
117 207
118 219
119 243
120 207
121 256
122 377
123 212
124 104
125 13
126 89
127 93
128 67
129 56
130 99
131 162
132 236
133 356
134 593
135 556
136 343
137 217
138 172
141 37
142 9
144 82
145 146
146 135
147 248
148 252
149 315
150 368
151 546
152 195
153 30
155 48
157 42
159 157
160 153
161 941
162 470
163 307
164 777
165 453
166 84
173 106
174 188
175 617
176 453
177 241
178 75
185 10
187 9
188 15
189 438
190 182
191 0
203 280
204 999
205 384
206 119
207 19

$$$$

     RDKit          2D

 15 17  0  0  0  0  0  0  0  0999 V2000
    2.9865    0.3248    0.0000 C   0  0  0  0  0  0  0  0  0  0  0  0
   -4.2587   -3.2243    0.0000 C   0  0  0  0  0  0  0  0  0  0  0  0
   -4.2587    0.8738    0.0000 C   0  0  0  0  0  0  0  0  0  0  0  0
    1.6875   -1.9252    0.0000 C   0  0  0  0  0  0  0  0  0  0  0  0
    0.3885   -2.6752    0.0000 C   0  0  0  0  0  0  0  0  0  0  0  0
    0.3885    0.3248    0.0000 C   0  0  0  0  0  0  0  0  0  0  0  0
   -4.8077   -1.1752    0.0000 C   0  0  0  0  0  0  0  0  0  0  0  0
    1.6875   -0.4252    0.0000 C   0  0  0  0  0  0  0  0  0  0  0  0
   -0.9106   -1.9252    0.0000 C   0  0  0  0  0  0  0  0  0  0  0  0
   -0.9106   -0.4252    0.0000 C   0  0  0  0  0  0  0  0  0  0  0  0
   -2.2096   -2.6752    0.0000 C   0  0  0  0  0  0  0  0  0  0  0  0
   -3.5087   -1.9252    0.0000 C   0  0  0  0  0  0  0  0  0  0  0  0
   -3.5087   -0.4252    0.0000 C   0  0  0  0  0  0  0  0  0  0  0  0
   -2.2096   -4.1752    0.0000 O   0  0  0  0  0  0  0  0  0  0  0  0
   -2.2096    0.3248    0.0000 O   0  0  0  0  0  0  0  0  0  0  0  0
  5  4  2  0
  8  1  1  0
  8  4  1  0
  8  6  2  0
  9  5  1  0
 10  6  1  0
 10  9  2  0
 11  9  1  0
 12  2  1  0
 12  7  1  0
 12 11  1  0
 13  3  1  0
 13  7  1  0
 13 12  1  0
 14 11  2  0
 15 10  1  0
 15 13  1  0
M  END
>  <NAME>  (1752) 
1,6-DIMETHYL-3,4-(5'-METHYLBENZO)-2-OXABICYCLO(4.1.0)HEPT-3-EN-5-ONE

>  <SYNONYMS>  (1752) 


>  <SPECTRUM TYPE>  (1752) 
MS1

>  <INSTRUMENT TYPE>  (1752) 
EI-B

>  <INSTRUMENT>  (1752) 
HITACHI RMU-7L

>  <ION MODE>  (1752) 
P

>  <INCHIKEY>  (1752) 
NVDZXYOUPPJXIV-UHFFFAOYSA-N

>  <FORMULA>  (1752) 
C13H14O2

>  <EXACT MASS>  (1752) 
202.099379688

>  <MW>  (1752) 
202

>  <ID>  (1752) 
JP009431

>  <CONTRIBUTOR>  (1752) 
University of Tokyo Team, {Faculty of Engineering, University of Tokyo

>  <COMMENT>  (1752) 
SMILES=Cc(c3)cc(O1)c(c3)C(=O)C(C)(C2)C(C)12
InChI=InChI=1S/C13H14O2/c1-8-4-5-9-10(6-8)15-13(3)7-12(13,2)11(9)14/h4-6H,7H2,1-3H3
computed SMILES=O=C1C2=CC=C(C=C2OC3(C)CC13C)C
accession=JP009431
date=2016.01.19 (Created 2008.10.21, modified 2011.05.06)
author=EGUCHI S, FAC. OF SCIENCE, HIROSHIMA UNIV.
license=CC BY-NC-SA
exact mass=202.09938
ionization energy=70 eV
ion type=[M]+*
computed spectral entropy=3.775708259251299
computed normalized entropy=0.8370263480377795
SPLASH=splash10-0k9i-5910000000-3a7b8940cab32f4dcac3
submitter=submitter = University of Tokyo Team (Faculty of Engineering, University of Tokyo)
MoNA Rating=3.75

>  <NUM PEAKS>  (1752) 
91

>  <MASS SPECTRAL PEAKS>  (1752) 
50 12
51 26
52 15
53 24.5
54 2
55 5
56 1
57 1
61 1
62 7
63 26
64 8.5
65 14.5
66 1
67 14
68 1.5
69 9.9
73 1
74 1.5
75 4
76 4.5
77 38
78 24
79 12.5
80 1
85 1.5
86 12.5
87 5
88 2
89 41
90 42.5
91 32.5
102 2
103 3
104 2
105 12.5
106 9.5
107 20
108 41.5
109 3
110 1
115 21
116 9.9
117 3
118 38
119 6
120 1.5
121 5
127 2
128 7
129 5
130 2
131 12.5
132 3
133 1
134 5
135 63
136 5
137 1
138 2
139 1
140 1
141 2
142 1
143 3
144 4
145 26
146 5
147 1
157 5
158 7
159 96
160 26
161 13
162 50
163 5
164 1
165 4
172 1
173 29
174 2
175 1
185 2
186 1
187 54.5
188 6
189 2
201 8
202 99.99
203 16
204 2

>  <PREDICTED SPECTRUM>  (1752) 
14 3
15 36
26 22
27 25
37 29
38 112
39 330
40 137
41 311
42 111
43 178
44 57
45 18
49 39
50 271
51 482
52 323
53 320
54 75
55 216
56 44
57 88
58 47
59 35
61 88
62 233
63 467
64 297
65 442
66 206
67 189
68 37
69 305
70 7
72 10
73 39
74 188
75 213
76 224
77 536
78 405
79 387
80 138
81 77
82 116
83 82
84 75
85 71
86 99
87 108
88 65
89 385
90 306
91 552
92 244
93 135
94 70
95 75
96 26
97 28
98 37
99 35
101 43
102 198
103 260
104 154
105 301
106 309
107 440
108 256
109 114
110 54
115 497
116 295
117 215
118 214
119 199
120 111
121 138
122 157
124 26
125 42
126 41
127 190
128 249
129 219
130 159
131 270
132 236
133 270
134 258
135 623
136 198
139 21
140 28
141 146
142 142
143 135
144 191
145 404
146 211
147 189
148 88
149 96
151 112
155 59
156 27
157 241
158 196
159 843
160 564
161 399
162 449
163 152
164 59
165 31
170 19
171 34
172 180
173 494
174 209
175 106
185 105
186 137
187 664
188 274
189 104
190 5
201 259
202 999
203 400
204 163
205 33

$$$$

     RDKit          2D

 14 16  0  0  0  0  0  0  0  0999 V2000
   -5.1962    4.5000    0.0000 C   0  0  0  0  0  0  0  0  0  0  0  0
    1.5000   -0.0000    0.0000 C   0  0  0  0  0  0  0  0  0  0  0  0
   -2.5981    4.5000    0.0000 C   0  0  0  0  0  0  0  0  0  0  0  0
   -1.2990    3.7500    0.0000 C   0  0  0  0  0  0  0  0  0  0  0  0
   -3.8971    2.2500    0.0000 C   0  0  0  0  0  0  0  0  0  0  0  0
   -0.0000   -1.5000    0.0000 C   0  0  0  0  0  0  0  0  0  0  0  0
   -3.8971    3.7500    0.0000 C   0  0  0  0  0  0  0  0  0  0  0  0
   -1.2990    2.2500    0.0000 C   0  0  0  0  0  0  0  0  0  0  0  0
   -2.5981    1.5000    0.0000 C   0  0  0  0  0  0  0  0  0  0  0  0
   -1.2990   -0.7500    0.0000 C   0  0  0  0  0  0  0  0  0  0  0  0
    0.0000    1.5000    0.0000 C   0  0  0  0  0  0  0  0  0  0  0  0
    0.0000    0.0000    0.0000 C   0  0  0  0  0  0  0  0  0  0  0  0
    1.2990    2.2500    0.0000 O   0  0  0  0  0  0  0  0  0  0  0  0
   -2.5981   -0.0000    0.0000 O   0  0  0  0  0  0  0  0  0  0  0  0
  4  3  2  0
  7  1  1  0
  7  3  1  0
  7  5  2  0
  8  4  1  0
  9  5  1  0
  9  8  2  0
 10  6  1  0
 11  8  1  0
 12  2  1  0
 12  6  1  0
 12 10  1  0
 12 11  1  0
 13 11  2  0
 14  9  1  0
 14 10  1  0
M  END
>  <NAME>  (1753) 
6-METHYL-3,4-(5'-METHYLBENZO)-2-OXABICYCLO(4.1.0)HEPT-3-EN-5-ONE

>  <SYNONYMS>  (1753) 


>  <SPECTRUM TYPE>  (1753) 
MS1

>  <INSTRUMENT TYPE>  (1753) 
EI-B

>  <INSTRUMENT>  (1753) 
HITACHI RMU-7L

>  <ION MODE>  (1753) 
P

>  <INCHIKEY>  (1753) 
AYOLJEXZSUEOSM-UHFFFAOYSA-N

>  <FORMULA>  (1753) 
C12H12O2

>  <EXACT MASS>  (1753) 
188.083729624

>  <MW>  (1753) 
188

>  <ID>  (1753) 
JP009430

>  <CONTRIBUTOR>  (1753) 
University of Tokyo Team, {Faculty of Engineering, University of Tokyo

>  <COMMENT>  (1753) 
SMILES=Cc(c3)cc(O1)c(c3)C(=O)C(C)(C2)C12
InChI=InChI=1S/C12H12O2/c1-7-3-4-8-9(5-7)14-10-6-12(10,2)11(8)13/h3-5,10H,6H2,1-2H3
computed SMILES=O=C1C2=CC=C(C=C2OC3CC13C)C
accession=JP009430
date=2016.01.19 (Created 2008.10.21, modified 2011.05.06)
author=EGUCHI S, FAC. OF SCIENCE, HIROSHIMA UNIV.
license=CC BY-NC-SA
exact mass=188.08373
ionization energy=70 eV
ion type=[M]+*
computed spectral entropy=3.6492971246116537
computed normalized entropy=0.8032270190463682
SPLASH=splash10-000b-4900000000-c5f1c2d77ddd6e81f881
submitter=submitter = University of Tokyo Team (Faculty of Engineering, University of Tokyo)
MoNA Rating=3.75

>  <NUM PEAKS>  (1753) 
94

>  <MASS SPECTRAL PEAKS>  (1753) 
50 6.5
51 23
52 10
53 15
54 1
55 6.5
56 1
57 1
58 1
59 5
60 1.5
61 1.5
62 5
63 17
64 6.8
65 12.5
66 1.8
67 1
68 1
69 1.9
70 2
73 1
74 1
75 1.8
76 2
77 16
78 13
79 12
80 2
81 1
82 4
83 16
84 1
85 1
86 1
87 1
88 2
89 12.5
90 14.5
91 20
92 3
93 1
98 2
99 1
101 1
102 2
103 2
104 1
105 8
106 7
107 2.5
108 2
109 1
111 1
114 1
115 12
116 6
117 8
118 30.5
119 10
120 1
127 2
128 4
129 3
131 4
132 3
133 1
134 5
135 14.5
136 2
144 2
145 56
146 5
147 3
148 74
149 2.5
150 1.5
157 1
158 1.5
159 36
160 6
161 5
162 1
163 1
171 1
172 1.5
173 8
174 1.5
175 1
186 1
187 4.5
188 99.99
189 11
190 1

>  <PREDICTED SPECTRUM>  (1753) 
15 21
26 35
27 39
29 17
37 46
38 108
39 239
40 111
41 131
42 57
43 94
44 59
45 46
49 68
50 253
51 406
52 254
53 234
54 105
55 137
56 39
57 83
58 55
59 53
61 119
62 197
63 365
64 231
65 302
66 134
67 107
68 39
69 224
70 91
71 88
72 69
73 76
74 174
75 231
76 232
77 429
78 362
79 227
80 80
81 58
82 110
83 63
84 49
85 111
86 122
87 120
88 98
89 311
90 253
91 389
92 257
93 130
94 84
95 103
96 80
97 29
98 62
99 89
100 16
101 89
102 195
103 179
104 140
105 257
106 274
107 247
108 94
109 64
110 63
111 41
113 10
114 6
115 335
116 221
117 211
118 250
119 202
120 150
121 103
122 117
126 19
127 140
128 141
129 90
130 100
131 179
132 181
133 201
134 366
135 470
136 107
139 58
141 48
142 19
143 51
144 105
145 774
146 346
147 260
148 468
149 186
150 45
157 59
158 88
159 678
160 395
161 189
162 42
169 10
171 92
172 40
173 295
174 112
175 5
176 29
187 250
188 999
189 394
190 153
191 50

$$$$

     RDKit          2D

 14 16  0  0  0  0  0  0  0  0999 V2000
   -2.0490    3.5490    0.0000 C   0  0  0  0  0  0  0  0  0  0  0  0
    1.5000    1.5000    0.0000 C   0  0  0  0  0  0  0  0  0  0  0  0
   -3.8971   -2.2500    0.0000 C   0  0  0  0  0  0  0  0  0  0  0  0
   -2.5981   -3.0000    0.0000 C   0  0  0  0  0  0  0  0  0  0  0  0
   -3.8971   -0.7500    0.0000 C   0  0  0  0  0  0  0  0  0  0  0  0
   -1.2990   -2.2500    0.0000 C   0  0  0  0  0  0  0  0  0  0  0  0
    0.0000    3.0000    0.0000 C   0  0  0  0  0  0  0  0  0  0  0  0
   -2.5981    0.0000    0.0000 C   0  0  0  0  0  0  0  0  0  0  0  0
   -1.2990   -0.7500    0.0000 C   0  0  0  0  0  0  0  0  0  0  0  0
   -2.5981    1.5000    0.0000 C   0  0  0  0  0  0  0  0  0  0  0  0
   -1.2990    2.2500    0.0000 C   0  0  0  0  0  0  0  0  0  0  0  0
    0.0000    1.5000    0.0000 C   0  0  0  0  0  0  0  0  0  0  0  0
   -3.8971    2.2500    0.0000 O   0  0  0  0  0  0  0  0  0  0  0  0
    0.0000   -0.0000    0.0000 O   0  0  0  0  0  0  0  0  0  0  0  0
  4  3  2  0
  5  3  1  0
  6  4  1  0
  8  5  2  0
  9  6  2  0
  9  8  1  0
 10  8  1  0
 11  1  1  0
 11  7  1  0
 11 10  1  0
 12  2  1  0
 12  7  1  0
 12 11  1  0
 13 10  2  0
 14  9  1  0
 14 12  1  0
M  END
>  <NAME>  (1754) 
1,6-DIMETHYL-3,4-BENZO-2-OXABICYCLO(4.1.0)HEPT-3-EN-5-ONE

>  <SYNONYMS>  (1754) 


>  <SPECTRUM TYPE>  (1754) 
MS1

>  <INSTRUMENT TYPE>  (1754) 
EI-B

>  <INSTRUMENT>  (1754) 
HITACHI RMU-7L

>  <ION MODE>  (1754) 
P

>  <INCHIKEY>  (1754) 
IKUPBRUXXGSVLP-UHFFFAOYSA-N

>  <FORMULA>  (1754) 
C12H12O2

>  <EXACT MASS>  (1754) 
188.083729624

>  <MW>  (1754) 
188

>  <ID>  (1754) 
JP009429

>  <CONTRIBUTOR>  (1754) 
University of Tokyo Team, {Faculty of Engineering, University of Tokyo

>  <COMMENT>  (1754) 
SMILES=c(c3)cc(O1)c(c3)C(=O)C(C)(C2)C(C)12
InChI=InChI=1S/C12H12O2/c1-11-7-12(11,2)14-9-6-4-3-5-8(9)10(11)13/h3-6H,7H2,1-2H3
computed SMILES=O=C1C=2C=CC=CC2OC3(C)CC13C
accession=JP009429
date=2016.01.19 (Created 2008.10.21, modified 2011.05.06)
author=EGUCHI S, FAC. OF SCIENCE, HIROSHIMA UNIV.
license=CC BY-NC-SA
exact mass=188.08373
ionization energy=70 eV
ion type=[M]+*
computed spectral entropy=3.613607886247517
computed normalized entropy=0.8422426399351519
SPLASH=splash10-0079-4900000000-a651409a5e7cf0c39ade
submitter=submitter = University of Tokyo Team (Faculty of Engineering, University of Tokyo)
MoNA Rating=3.75

>  <NUM PEAKS>  (1754) 
73

>  <MASS SPECTRAL PEAKS>  (1754) 
50 14
51 16.1
52 4.5
53 13.5
54 1.9
55 2.5
62 3.5
63 1.7
64 1.3
65 31.1
66 6.5
67 20.5
68 1.5
69 12.5
73 7.4
75 4
76 28
77 14
78 3
79 1.5
80 1
85 1.5
89 3
90 1
91 17
92 13
93 8
94 4.4
95 5
102 3
103 4
104 20.1
105 5
106 1
107 4
114 1
115 12.5
116 4
117 11
118 5
119 2
120 3.9
121 46.5
122 6.5
127 1
128 1.5
129 1.5
130 1
131 12
132 3
133 1
141 1
142 1.5
143 2.5
144 3
145 49
146 16
147 6.5
148 22.5
149 1.5
158 2
159 19
160 6
161 2
171 7
172 3
173 27
174 5
175 1
187 10
188 99.99
189 44.5
190 7

>  <PREDICTED SPECTRUM>  (1754) 
26 0
27 39
37 17
38 107
39 301
40 125
41 304
42 143
43 286
44 39
50 217
51 360
52 224
53 267
54 66
55 165
57 18
58 4
61 58
62 176
63 407
64 311
65 423
66 184
67 248
68 95
69 326
70 70
71 18
74 132
75 180
76 270
77 464
78 272
79 231
80 56
81 69
82 50
85 12
87 21
88 75
89 277
90 182
91 284
92 422
93 276
94 119
95 113
96 38
97 22
98 7
102 174
103 160
104 160
105 159
106 95
107 245
108 123
110 55
111 22
115 377
116 160
117 208
118 160
119 185
120 283
121 740
122 200
126 52
127 150
128 126
129 81
130 112
131 272
132 95
133 89
134 46
135 54
143 21
144 128
145 576
146 336
147 311
148 323
149 44
158 83
159 514
160 248
161 146
171 170
172 126
173 552
174 202
175 38
187 333
188 999
189 388
190 122
191 19

$$$$

     RDKit          2D

 13 15  0  0  0  0  0  0  0  0999 V2000
    1.5000   -0.0000    0.0000 C   0  0  0  0  0  0  0  0  0  0  0  0
   -2.5981    4.5000    0.0000 C   0  0  0  0  0  0  0  0  0  0  0  0
   -3.8971    3.7500    0.0000 C   0  0  0  0  0  0  0  0  0  0  0  0
   -1.2990    3.7500    0.0000 C   0  0  0  0  0  0  0  0  0  0  0  0
   -3.8971    2.2500    0.0000 C   0  0  0  0  0  0  0  0  0  0  0  0
   -0.0000   -1.5000    0.0000 C   0  0  0  0  0  0  0  0  0  0  0  0
   -1.2990    2.2500    0.0000 C   0  0  0  0  0  0  0  0  0  0  0  0
   -2.5981    1.5000    0.0000 C   0  0  0  0  0  0  0  0  0  0  0  0
   -1.2990   -0.7500    0.0000 C   0  0  0  0  0  0  0  0  0  0  0  0
    0.0000    1.5000    0.0000 C   0  0  0  0  0  0  0  0  0  0  0  0
    0.0000    0.0000    0.0000 C   0  0  0  0  0  0  0  0  0  0  0  0
    1.2990    2.2500    0.0000 O   0  0  0  0  0  0  0  0  0  0  0  0
   -2.5981   -0.0000    0.0000 O   0  0  0  0  0  0  0  0  0  0  0  0
  3  2  2  0
  4  2  1  0
  5  3  1  0
  7  4  2  0
  8  5  2  0
  8  7  1  0
  9  6  1  0
 10  7  1  0
 11  1  1  0
 11  6  1  0
 11  9  1  0
 11 10  1  0
 12 10  2  0
 13  8  1  0
 13  9  1  0
M  END
>  <NAME>  (1755) 
6-METHYL-3,4-BENZO-2-OXABICYCLO(4.1.0)HEPT-3-EN-5-ONE

>  <SYNONYMS>  (1755) 
METHYLHOMOCHROMONE

>  <SPECTRUM TYPE>  (1755) 
MS1

>  <INSTRUMENT TYPE>  (1755) 
EI-B

>  <INSTRUMENT>  (1755) 
HITACHI RMU-7L

>  <ION MODE>  (1755) 
P

>  <INCHIKEY>  (1755) 
WYYFVKUBHSHHHS-UHFFFAOYSA-N

>  <FORMULA>  (1755) 
C11H10O2

>  <EXACT MASS>  (1755) 
174.06807956

>  <MW>  (1755) 
174

>  <ID>  (1755) 
JP009427

>  <CONTRIBUTOR>  (1755) 
University of Tokyo Team, {Faculty of Engineering, University of Tokyo

>  <COMMENT>  (1755) 
SMILES=O=C(c32)C(C)(C1)C(Oc(cccc3)2)1
InChI=InChI=1S/C11H10O2/c1-11-6-9(11)13-8-5-3-2-4-7(8)10(11)12/h2-5,9H,6H2,1H3
computed SMILES=O=C1C=2C=CC=CC2OC3CC13C
accession=JP009427
date=2016.01.19 (Created 2008.10.21, modified 2011.05.06)
author=EGUCHI S, FAC. OF SCIENCE, HIROSHIMA UNIV.
license=CC BY-NC-SA
exact mass=174.06808
ionization energy=70 eV
ion type=[M]+*
computed spectral entropy=3.802196213730104
computed normalized entropy=0.8979925775607673
SPLASH=splash10-0fn9-9600000000-600f13765221871b779e
submitter=submitter = University of Tokyo Team (Faculty of Engineering, University of Tokyo)
MoNA Rating=3.75

>  <NUM PEAKS>  (1755) 
69

>  <MASS SPECTRAL PEAKS>  (1755) 
50 41.9
51 39.9
52 6
53 32
54 5
55 35
56 6
57 62.5
58 7
63 35
64 24
65 32
66 5
67 11
68 4
69 40
70 10.9
71 46.9
72 2.5
73 7.5
74 2
75 10.5
76 66
77 42
78 10
79 1.9
81 17.5
82 12
83 30
84 10
85 28.5
86 1.5
91 16.5
92 26
93 8
94 7.5
95 6
96 18
97 29
98 10.5
99 5
103 18.5
104 63
105 31
106 4
111 11
112 3
115 16
116 5
117 12
118 4.5
119 1
120 9
121 22.9
122 2
123 6.8
131 67
132 9
133 4.5
134 47
135 6.5
145 50
146 9.5
159 10.5
160 2
173 7
174 99.99
175 26.3
176 4

>  <PREDICTED SPECTRUM>  (1755) 
15 21
17 1
18 10
26 52
27 74
28 7
29 45
34 2
37 100
38 200
39 368
40 173
41 315
42 219
43 128
44 175
45 100
46 3
47 39
49 127
50 439
51 588
52 368
53 379
54 170
55 350
56 139
57 253
58 91
59 52
60 25
61 184
62 284
63 516
64 404
65 484
66 221
67 210
68 176
69 395
70 172
71 242
72 101
73 125
74 302
75 367
76 482
77 635
78 473
79 306
80 126
81 210
82 206
83 183
84 166
85 179
86 126
87 155
88 141
89 322
90 251
91 362
92 494
93 297
94 190
95 249
96 203
97 229
98 127
99 62
100 23
101 84
102 220
103 393
104 415
105 425
106 235
107 282
108 119
109 32
110 88
111 126
112 39
113 72
114 29
115 396
116 165
117 241
118 187
119 173
120 366
121 504
122 249
123 150
124 7
125 45
126 38
127 66
128 110
129 85
130 99
131 680
132 323
133 290
134 502
135 318
136 58
144 101
145 635
146 381
147 236
148 42
157 55
158 44
159 417
160 187
161 15
173 292
174 999
175 382
176 139
177 20

$$$$

     RDKit          2D

 14 16  0  0  0  0  0  0  0  0999 V2000
   -5.1124    1.5545    0.0000 C   0  0  0  0  0  0  0  0  0  0  0  0
   -5.1124    0.0545    0.0000 C   0  0  0  0  0  0  0  0  0  0  0  0
   -3.8134    2.3045    0.0000 C   0  0  0  0  0  0  0  0  0  0  0  0
   -3.8134   -0.6955    0.0000 C   0  0  0  0  0  0  0  0  0  0  0  0
    1.3828    0.8045    0.0000 C   0  0  0  0  0  0  0  0  0  0  0  0
    2.3469   -0.3445    0.0000 H   0  0  0  0  0  0  0  0  0  0  0  0
    2.3469    1.9536    0.0000 H   0  0  0  0  0  0  0  0  0  0  0  0
   -2.5144    1.5545    0.0000 C   0  0  0  0  0  0  0  0  0  0  0  0
    0.0837    1.5545    0.0000 C   0  0  0  0  0  0  0  0  0  0  0  0
   -2.5144    0.0545    0.0000 C   0  0  0  0  0  0  0  0  0  0  0  0
    0.0837    0.0545    0.0000 C   0  0  0  0  0  0  0  0  0  0  0  0
   -1.2153    2.3045    0.0000 C   0  0  0  0  0  0  0  0  0  0  0  0
   -1.2153    3.8045    0.0000 O   0  0  0  0  0  0  0  0  0  0  0  0
   -1.2153   -0.6955    0.0000 O   0  0  0  0  0  0  0  0  0  0  0  0
  5  6  1  0
  5  7  1  0
  2  1  2  0
  3  1  1  0
  4  2  1  0
  8  3  2  0
  9  5  1  0
 10  4  2  0
 10  8  1  0
 11  5  1  0
 11  9  1  0
 12  8  1  0
 12  9  1  0
 13 12  2  0
 14 10  1  0
 14 11  1  0
M  ISO  2   6   2   7   2
M  END
>  <NAME>  (1756) 
3,4-BENZO-2-OXABICYCLO(4.1.0)HEPT-3-EN-5-ONE(7,7-D2)

>  <SYNONYMS>  (1756) 
9,9-DIDEUTEROHOMOCHROMONE

>  <SPECTRUM TYPE>  (1756) 
MS1

>  <INSTRUMENT TYPE>  (1756) 
EI-B

>  <INSTRUMENT>  (1756) 
HITACHI RMU-7L

>  <ION MODE>  (1756) 
P

>  <INCHIKEY>  (1756) 
DQYKWUOLGDGKNU-BFWBPSQCSA-N

>  <FORMULA>  (1756) 
C10H8O2

>  <EXACT MASS>  (1756) 
162.064982988

>  <MW>  (1756) 
162

>  <ID>  (1756) 
JP009426

>  <CONTRIBUTOR>  (1756) 
University of Tokyo Team, {Faculty of Engineering, University of Tokyo

>  <COMMENT>  (1756) 
SMILES=O=C(c32)C(C(Oc(cccc3)2)1)C([2H])([2H])1
InChI=InChI=1S/C10H8O2/c11-10-6-3-1-2-4-8(6)12-9-5-7(9)10/h1-4,7,9H,5H2/i5D2
computed SMILES=[H]C1([H])C2OC=3C=CC=CC3C(=O)C21
accession=JP009426
ionization energy=70 eV
date=2016.01.19 (Created 2008.10.21, modified 2011.05.06)
author=EGUCHI S, FAC. OF SCIENCE, HIROSHIMA UNIV.
license=CC BY-NC-SA
exact mass=160.05243
ion type=[M]+*
computed spectral entropy=3.2291259708375892
computed normalized entropy=0.8533203362470124
SPLASH=splash10-03e9-5900000000-8980cf68f1e6302b6ad6
submitter=submitter = University of Tokyo Team (Faculty of Engineering, University of Tokyo)
MoNA Rating=3.75

>  <NUM PEAKS>  (1756) 
44

>  <MASS SPECTRAL PEAKS>  (1756) 
50 21.5
51 13
52 10
53 6.3
55 1
56 4.9
57 9
58 2
61 2
62 7
63 17.3
64 13.3
65 5
66 3.5
67 6.9
68 1.5
74 9.5
75 8
76 52
77 14
78 12
79 11
80 6.4
81 2.6
90 15
91 5
103 4.8
104 53
105 26
106 10
107 2
120 12.5
121 4.3
130 0.2
131 11
132 55.2
133 53.8
134 18.2
135 6
160 9.5
161 44.8
162 99.99
163 13.3
164 1.9

>  <PREDICTED SPECTRUM>  (1756) 
15 11
25 16
26 61
27 130
28 54
29 119
31 18
37 76
38 140
39 217
40 51
41 49
42 0
43 21
44 23
49 75
50 237
51 276
52 175
53 153
54 81
55 71
60 11
61 133
62 154
63 367
64 315
65 280
66 114
68 46
69 12
74 102
75 108
76 255
77 334
78 262
79 124
80 49
81 35
86 6
87 36
89 123
90 169
91 246
92 553
93 142
95 48
103 172
104 340
105 367
106 205
107 123
115 127
116 79
117 147
118 187
119 244
120 729
121 393
131 40
132 154
133 771
134 460
135 182
144 44
145 101
146 63
147 6
160 18
161 256
162 999
163 324
164 105

$$$$

     RDKit          2D

 12 14  0  0  0  0  0  0  0  0999 V2000
    0.9743   -0.5625    0.0000 C   0  0  0  0  0  0  0  0  0  0  0  0
    0.9743    0.9375    0.0000 C   0  0  0  0  0  0  0  0  0  0  0  0
   -0.3248   -1.3125    0.0000 C   0  0  0  0  0  0  0  0  0  0  0  0
   -0.3248    1.6875    0.0000 C   0  0  0  0  0  0  0  0  0  0  0  0
   -5.5209    0.1875    0.0000 C   0  0  0  0  0  0  0  0  0  0  0  0
   -1.6238   -0.5625    0.0000 C   0  0  0  0  0  0  0  0  0  0  0  0
   -4.2219   -0.5625    0.0000 C   0  0  0  0  0  0  0  0  0  0  0  0
   -1.6238    0.9375    0.0000 C   0  0  0  0  0  0  0  0  0  0  0  0
   -4.2219    0.9375    0.0000 C   0  0  0  0  0  0  0  0  0  0  0  0
   -2.9228   -1.3125    0.0000 C   0  0  0  0  0  0  0  0  0  0  0  0
   -2.9228   -2.8125    0.0000 O   0  0  0  0  0  0  0  0  0  0  0  0
   -2.9228    1.6875    0.0000 O   0  0  0  0  0  0  0  0  0  0  0  0
  2  1  2  0
  3  1  1  0
  4  2  1  0
  6  3  2  0
  7  5  1  0
  8  4  2  0
  8  6  1  0
  9  5  1  0
  9  7  1  0
 10  6  1  0
 10  7  1  0
 11 10  2  0
 12  8  1  0
 12  9  1  0
M  END
>  <NAME>  (1757) 
3,4-BENZO-2-OXABICYCLO(4.1.0)HEPT-3-EN-5-ONE

>  <SYNONYMS>  (1757) 
HOMOCHROMONE

>  <SPECTRUM TYPE>  (1757) 
MS1

>  <INSTRUMENT TYPE>  (1757) 
EI-B

>  <INSTRUMENT>  (1757) 
HITACHI RMU-7L

>  <ION MODE>  (1757) 
P

>  <INCHIKEY>  (1757) 
DQYKWUOLGDGKNU-UHFFFAOYSA-N

>  <FORMULA>  (1757) 
C10H8O2

>  <EXACT MASS>  (1757) 
160.052429496

>  <MW>  (1757) 
160

>  <ID>  (1757) 
JP009425

>  <CONTRIBUTOR>  (1757) 
University of Tokyo Team, {Faculty of Engineering, University of Tokyo

>  <COMMENT>  (1757) 
SMILES=O=C(c32)C(C1)C(Oc(cccc3)2)1
InChI=InChI=1S/C10H8O2/c11-10-6-3-1-2-4-8(6)12-9-5-7(9)10/h1-4,7,9H,5H2
computed SMILES=O=C1C=2C=CC=CC2OC3CC13
accession=JP009425
date=2016.01.19 (Created 2008.10.21, modified 2011.05.06)
author=EGUCHI S, FAC. OF SCIENCE, HIROSHIMA UNIV.
license=CC BY-NC-SA
exact mass=160.05243
ionization energy=70 eV
ion type=[M]+*
computed spectral entropy=3.1157507765615904
computed normalized entropy=0.7964551262194306
SPLASH=splash10-0w59-6900000000-ec192f6070fa8291ef43
submitter=submitter = University of Tokyo Team (Faculty of Engineering, University of Tokyo)
MoNA Rating=3.75

>  <NUM PEAKS>  (1757) 
50

>  <MASS SPECTRAL PEAKS>  (1757) 
50 21
51 15
52 5
53 4.5
54 1.5
55 14
56 6
57 3
59 1.8
61 2
62 5
63 13
64 1.2
65 6.2
66 4.1
67 1
68 2
69 1
73 2
74 7
75 8
76 51
77 21
78 8.1
79 1.8
80 1
89 3.9
90 2.1
91 2.4
92 5
93 2.5
102 4
103 18.3
104 48
105 10.3
106 1.8
117 1.8
119 3.5
120 9.5
121 6
123 1.9
130 0.5
131 69.7
132 20.3
133 6.8
134 5
159 5.1
160 99.99
161 11
162 1.5

>  <PREDICTED SPECTRUM>  (1757) 
25 0
26 36
27 100
28 20
29 92
37 68
38 137
39 245
40 73
41 93
42 42
44 78
49 128
50 370
51 323
52 203
53 162
54 32
55 145
56 8
57 129
61 102
62 164
63 350
64 308
65 217
66 118
67 59
68 67
69 82
73 47
74 255
75 291
76 524
77 484
78 282
79 193
80 51
81 47
82 48
84 1
85 95
86 57
87 9
88 62
89 174
90 218
91 213
92 387
93 164
94 34
95 3
101 39
102 187
103 573
104 604
105 498
106 145
107 38
113 7
114 83
115 60
116 105
117 142
118 79
119 83
120 151
121 191
130 83
131 765
132 479
133 286
134 100
144 29
158 50
159 382
160 999
161 366
162 111

$$$$

     RDKit          2D

  6  5  0  0  0  0  0  0  0  0999 V2000
   -1.6238    1.3125    0.0000 C   0  0  0  0  0  0  0  0  0  0  0  0
   -2.9228    2.0625    0.0000 C   0  0  0  0  0  0  0  0  0  0  0  0
   -0.3248    2.0625    0.0000 C   0  0  0  0  0  0  0  0  0  0  0  0
   -4.2219    2.8125    0.0000 N   0  0  0  0  0  0  0  0  0  0  0  0
    0.9743    1.3125    0.0000 N   0  0  0  0  0  0  0  0  0  0  0  0
   -0.3248    3.5625    0.0000 O   0  0  0  0  0  0  0  0  0  0  0  0
  2  1  1  0
  3  1  1  0
  4  2  3  0
  5  3  2  0
  6  3  1  0
M  END
>  <NAME>  (1758) 
2-CYANOACETAMIDE

>  <SYNONYMS>  (1758) 


>  <SPECTRUM TYPE>  (1758) 
MS1

>  <INSTRUMENT TYPE>  (1758) 
EI-B

>  <INSTRUMENT>  (1758) 
HITACHI M-80A

>  <ION MODE>  (1758) 
P

>  <INCHIKEY>  (1758) 
DGJMPUGMZIKDRO-UHFFFAOYSA-N

>  <FORMULA>  (1758) 
C3H4N2O

>  <EXACT MASS>  (1758) 
84.032362748

>  <MW>  (1758) 
84

>  <ID>  (1758) 
JP009423

>  <CONTRIBUTOR>  (1758) 
University of Tokyo Team, {Faculty of Engineering, University of Tokyo

>  <COMMENT>  (1758) 
SMILES=N#CCC(N)=O
InChI=InChI=1S/C3H4N2O/c4-2-1-3(5)6/h1H2,(H2,5,6)
computed SMILES=N#CCC(=N)O
accession=JP009423
date=2016.01.19 (Created 2008.10.21, modified 2011.05.06)
author=GUNMA COLLEGE OF TECHNOLOGY
license=CC BY-NC-SA
exact mass=84.03236
ionization energy=70 eV
ion type=[M]+*
computed spectral entropy=2.0182852372429445
computed normalized entropy=0.6737201635340228
SPLASH=splash10-0006-9000000000-12de24f77a9d788e2f13
submitter=submitter = University of Tokyo Team (Faculty of Engineering, University of Tokyo)
MoNA Rating=3.75

>  <NUM PEAKS>  (1758) 
20

>  <MASS SPECTRAL PEAKS>  (1758) 
25 1.1
26 2.02
27 3.46
28 4.01
29 2.46
30 2.33
38 6.91
39 9.74
40 24.65
41 51.47
42 5.23
43 5.13
44 99.99
45 1.45
53 1.36
55 1.13
67 3.83
68 4.38
84 5.79
85 7.4

>  <PREDICTED SPECTRUM>  (1758) 
14 62
15 3
16 58
17 27
18 8
19 10
25 135
26 385
27 555
28 567
29 214
30 265
31 210
32 4
36 65
37 288
38 654
39 999
40 830
41 900
42 402
43 681
44 742
45 400
51 451
53 189
54 515
55 292
56 318
57 732
58 91
65 92
66 385
67 683
68 635
69 25
83 234
84 873
85 160

$$$$

     RDKit          2D

 10 10  0  0  0  0  0  0  0  0999 V2000
    0.0005   -3.7506    0.0000 C   0  0  0  0  0  0  0  0  0  0  0  0
   -1.2990   -2.9998    0.0000 C   0  0  0  0  0  0  0  0  0  0  0  0
    1.2995   -3.0006    0.0000 C   0  0  0  0  0  0  0  0  0  0  0  0
   -0.0005   -0.7490    0.0000 C   0  0  0  0  0  0  0  0  0  0  0  0
   -1.2995   -1.4990    0.0000 C   0  0  0  0  0  0  0  0  0  0  0  0
    1.2990   -1.4998    0.0000 C   0  0  0  0  0  0  0  0  0  0  0  0
   -2.5987   -0.7492    0.0000 I   0  0  0  0  0  0  0  0  0  0  0  0
    2.5981   -0.7498    0.0000 N   0  0  0  0  0  0  0  0  0  0  0  0
    3.8971   -1.4998    0.0000 O   0  0  0  0  0  0  0  0  0  0  0  0
    2.5981    0.7502    0.0000 O   0  0  0  0  0  0  0  0  0  0  0  0
  2  1  2  0
  3  1  1  0
  5  2  1  0
  5  4  2  0
  6  3  2  0
  6  4  1  0
  7  5  1  0
  8  6  1  0
  9  8  1  0
 10  8  2  0
M  CHG  2   8   1   9  -1
M  END
>  <NAME>  (1759) 
META-IODONITROBENZENE

>  <SYNONYMS>  (1759) 


>  <SPECTRUM TYPE>  (1759) 
MS1

>  <INSTRUMENT TYPE>  (1759) 
EI-B

>  <INSTRUMENT>  (1759) 
HITACHI M-80A

>  <ION MODE>  (1759) 
P

>  <INCHIKEY>  (1759) 
CBYAZOKPJYBCHE-UHFFFAOYSA-N

>  <FORMULA>  (1759) 
C6H4INO2

>  <EXACT MASS>  (1759) 
248.928676368

>  <MW>  (1759) 
249

>  <ID>  (1759) 
JP009422

>  <CONTRIBUTOR>  (1759) 
University of Tokyo Team, {Faculty of Engineering, University of Tokyo

>  <COMMENT>  (1759) 
SMILES=[O-1][N+1](=O)c(c1)cc(I)cc1
InChI=InChI=1S/C6H4INO2/c7-5-2-1-3-6(4-5)8(9)10/h1-4H
computed SMILES=O=N(=O)C=1C=CC=C(I)C1
accession=JP009422
date=2016.01.19 (Created 2008.10.21, modified 2011.05.06)
author=GUNMA COLLEGE OF TECHNOLOGY
license=CC BY-NC-SA
exact mass=248.92867
ionization energy=70 eV
ion type=[M]+*
computed spectral entropy=2.6915813919186906
computed normalized entropy=0.7697913831451308
SPLASH=splash10-0f92-9170000000-f581e5af2495b52169b9
submitter=submitter = University of Tokyo Team (Faculty of Engineering, University of Tokyo)
MoNA Rating=3.75

>  <NUM PEAKS>  (1759) 
33

>  <MASS SPECTRAL PEAKS>  (1759) 
26 1.57
30 18.67
37 4.46
38 5.15
39 3.21
43 1.47
46 9.25
49 3.25
50 34.2
51 3.31
57 1.32
61 1.86
62 2.83
63 4.53
64 4.05
65 1.71
73 4.7
74 19.9
75 15.89
76 48.51
77 4.02
92 6.69
93 1.5
127 24.65
128 3.84
191 6.29
203 54.57
204 4.35
219 2.18
220 2.93
233 1.17
249 99.99
250 7.33

>  <PREDICTED SPECTRUM>  (1759) 
18 11
25 1
26 6
30 12
36 36
37 146
38 178
39 197
40 48
41 3
46 76
49 136
50 452
51 200
52 52
53 35
57 46
61 55
62 276
63 412
64 95
65 9
66 4
68 38
72 79
73 149
74 441
75 530
76 586
77 138
86 68
90 32
91 121
92 223
93 19
94 71
95 3
122 43
127 185
191 163
203 422
204 55
219 150
249 999
250 267
251 98

$$$$

     RDKit          2D

 12 12  0  0  0  0  0  0  0  0999 V2000
    3.2476   -3.7504    0.0000 C   0  0  0  0  0  0  0  0  0  0  0  0
    1.9487   -3.0002    0.0000 C   0  0  0  0  0  0  0  0  0  0  0  0
   -1.9500    0.7500    0.0000 C   0  0  0  0  0  0  0  0  0  0  0  0
   -1.9500   -0.7500    0.0000 C   0  0  0  0  0  0  0  0  0  0  0  0
   -0.6500    1.5000    0.0000 C   0  0  0  0  0  0  0  0  0  0  0  0
   -0.6500   -1.5000    0.0000 C   0  0  0  0  0  0  0  0  0  0  0  0
    0.6500    0.7500    0.0000 C   0  0  0  0  0  0  0  0  0  0  0  0
    0.6500   -0.7500    0.0000 C   0  0  0  0  0  0  0  0  0  0  0  0
    1.9489    1.5002    0.0000 C   0  0  0  0  0  0  0  0  0  0  0  0
    1.9487    3.0002    0.0000 N   0  0  0  0  0  0  0  0  0  0  0  0
    3.2481    0.7504    0.0000 O   0  0  0  0  0  0  0  0  0  0  0  0
    1.9489   -1.5002    0.0000 O   0  0  0  0  0  0  0  0  0  0  0  0
  2  1  1  0
  4  3  2  0
  5  3  1  0
  6  4  1  0
  7  5  2  0
  8  6  2  0
  8  7  1  0
  9  7  1  0
 10  9  2  0
 11  9  1  0
 12  2  1  0
 12  8  1  0
M  END
>  <NAME>  (1760) 
ORTHO-ETHOXYBENZAMIDE

>  <SYNONYMS>  (1760) 


>  <SPECTRUM TYPE>  (1760) 
MS1

>  <INSTRUMENT TYPE>  (1760) 
EI-B

>  <INSTRUMENT>  (1760) 
HITACHI M-80A

>  <ION MODE>  (1760) 
P

>  <INCHIKEY>  (1760) 
SBNKFTQSBPKMBZ-UHFFFAOYSA-N

>  <FORMULA>  (1760) 
C9H11NO2

>  <EXACT MASS>  (1760) 
165.078978592

>  <MW>  (1760) 
165

>  <ID>  (1760) 
JP009421

>  <CONTRIBUTOR>  (1760) 
University of Tokyo Team, {Faculty of Engineering, University of Tokyo

>  <COMMENT>  (1760) 
SMILES=CCOc(c1)c(ccc1)C(N)=O
InChI=InChI=1S/C9H11NO2/c1-2-12-8-6-4-3-5-7(8)9(10)11/h3-6H,2H2,1H3,(H2,10,11)
computed SMILES=N=C(O)C=1C=CC=CC1OCC
accession=JP009421
date=2016.01.19 (Created 2008.10.21, modified 2011.05.06)
author=GUNMA COLLEGE OF TECHNOLOGY
license=CC BY-NC-SA
exact mass=165.07898
ionization energy=70 eV
ion type=[M]+*
computed spectral entropy=3.176690676583553
computed normalized entropy=0.8039723446176198
SPLASH=splash10-00dl-6900000000-8e77edbc0a9e88098d92
submitter=submitter = University of Tokyo Team (Faculty of Engineering, University of Tokyo)
MoNA Rating=3.75

>  <NUM PEAKS>  (1760) 
52

>  <MASS SPECTRAL PEAKS>  (1760) 
26 3.64
27 18.24
28 16.74
29 16.12
32 5.92
38 2.5
39 7.89
43 1.66
44 7.59
50 3.51
51 3.94
52 1.73
53 2.87
61 1.03
62 2.79
63 10.4
64 10.56
65 18.6
66 2.72
74 2.1
75 1.95
76 4.33
77 6.36
78 1.74
79 1.28
80 10.21
81 1.37
91 7.37
92 73.24
93 14.29
94 1.91
102 1.36
104 2.17
105 48.19
106 4.22
108 3.57
119 3.72
120 99.99
121 36.95
122 5.98
131 1.38
133 27.54
134 2.7
137 1.94
146 1.24
147 1.83
148 38.68
149 7.14
150 39.73
151 3.74
165 8.24
166 3.27

>  <PREDICTED SPECTRUM>  (1760) 
14 17
15 4
17 16
18 18
19 2
25 12
26 105
27 247
28 60
29 289
31 35
36 49
37 126
38 192
39 473
40 127
41 204
42 6
43 106
44 38
45 121
49 74
50 291
51 410
52 260
53 272
54 54
55 120
62 182
63 350
64 339
65 625
66 201
67 96
74 137
75 126
76 178
77 518
78 241
79 201
80 135
81 115
82 48
83 27
89 30
90 323
91 462
92 485
93 318
94 159
102 31
103 56
104 198
105 256
106 67
107 63
108 310
109 92
118 468
119 477
120 999
121 355
122 71
136 700
137 576
138 167
147 18
148 82
165 391
166 106

$$$$

     RDKit          2D

 11 11  0  0  0  0  0  0  0  0999 V2000
    3.8981    0.0804    0.0000 C   0  0  0  0  0  0  0  0  0  0  0  0
   -0.0000   -2.1700    0.0000 C   0  0  0  0  0  0  0  0  0  0  0  0
   -1.3000   -1.4200    0.0000 C   0  0  0  0  0  0  0  0  0  0  0  0
    1.3000   -1.4200    0.0000 C   0  0  0  0  0  0  0  0  0  0  0  0
   -2.5989    0.8302    0.0000 C   0  0  0  0  0  0  0  0  0  0  0  0
   -1.3000    0.0800    0.0000 C   0  0  0  0  0  0  0  0  0  0  0  0
    1.3000    0.0800    0.0000 C   0  0  0  0  0  0  0  0  0  0  0  0
   -0.0000    0.8300    0.0000 C   0  0  0  0  0  0  0  0  0  0  0  0
   -3.8981    0.0804    0.0000 O   0  0  0  0  0  0  0  0  0  0  0  0
    0.0000    2.3300    0.0000 O   0  0  0  0  0  0  0  0  0  0  0  0
    2.5989    0.8302    0.0000 O   0  0  0  0  0  0  0  0  0  0  0  0
  3  2  2  0
  4  2  1  0
  6  3  1  0
  6  5  1  0
  7  4  2  0
  8  6  2  0
  8  7  1  0
  9  5  2  0
 10  8  1  0
 11  1  1  0
 11  7  1  0
M  END
>  <NAME>  (1761) 
ORTHO-VANILLIN

>  <SYNONYMS>  (1761) 
2-HYDROXY-3-METHOXYBENZALDEHYDE

>  <SPECTRUM TYPE>  (1761) 
MS1

>  <INSTRUMENT TYPE>  (1761) 
EI-B

>  <INSTRUMENT>  (1761) 
HITACHI M-80A

>  <ION MODE>  (1761) 
P

>  <INCHIKEY>  (1761) 
JJVNINGBHGBWJH-UHFFFAOYSA-N

>  <FORMULA>  (1761) 
C8H8O3

>  <EXACT MASS>  (1761) 
152.04734411599998

>  <MW>  (1761) 
152

>  <ID>  (1761) 
JP009420

>  <CONTRIBUTOR>  (1761) 
University of Tokyo Team, {Faculty of Engineering, University of Tokyo

>  <COMMENT>  (1761) 
SMILES=O=Cc(c1)c(O)c(OC)cc1
InChI=InChI=1S/C8H8O3/c1-11-7-4-2-3-6(5-9)8(7)10/h2-5,10H,1H3
computed SMILES=O=CC=1C=CC=C(OC)C1O
accession=JP009420
date=2016.01.19 (Created 2008.10.21, modified 2011.05.06)
author=GUNMA COLLEGE OF TECHNOLOGY
license=CC BY-NC-SA
exact mass=152.04734
ionization energy=70 eV
ion type=[M]+*
computed spectral entropy=3.596921390690205
computed normalized entropy=0.8585245353535909
SPLASH=splash10-0pb9-8900000000-bbe3aaed58f67e9ab3be
submitter=submitter = University of Tokyo Team (Faculty of Engineering, University of Tokyo)
MoNA Rating=3.75

>  <NUM PEAKS>  (1761) 
66

>  <MASS SPECTRAL PEAKS>  (1761) 
15 20.19
26 2.25
27 5.61
29 21.5
30 2.09
31 1.73
32 2.99
37 1.99
38 4.28
39 11.16
40 1.2
41 1.56
49 1.78
50 11.13
51 17.27
52 15.65
53 19.21
54 2.4
55 14.68
61 3.24
62 6.5
63 15.81
64 7.21
65 19.18
66 6.64
67 4.41
69 1.09
73 1.05
74 4.15
75 3.85
76 19.69
77 17.81
78 13.06
79 11.17
80 9.66
81 49.88
82 3.31
85 1.13
91 2.57
92 11.05
93 12.82
94 4.29
95 7.42
104 4.15
105 16.77
106 72.13
107 12.64
108 16.33
109 52.18
110 4.76
115 1.31
119 1.56
120 7.68
121 36.35
122 22.11
123 8.91
124 3.61
133 2.93
134 3.27
135 1.24
136 6.41
137 5.79
151 19.73
152 99.99
153 10.23
154 1.26

>  <PREDICTED SPECTRUM>  (1761) 
14 27
15 72
16 4
17 8
18 15
25 17
26 70
27 124
28 83
29 99
31 47
36 3
37 112
38 174
39 327
40 90
41 173
42 10
43 66
44 83
45 71
48 6
49 133
50 318
51 412
52 280
53 421
54 147
55 189
56 2
57 48
61 129
62 224
63 391
64 252
65 373
66 231
67 128
68 36
69 109
71 28
72 20
73 8
74 166
75 203
76 207
77 412
78 275
79 309
80 249
81 417
82 118
83 37
88 73
89 101
90 117
91 476
92 300
93 262
94 200
95 157
96 59
97 12
102 2
103 151
104 200
105 371
106 394
107 310
108 270
109 629
110 176
118 20
119 274
120 191
121 212
122 196
123 345
124 186
125 112
133 214
134 409
135 298
136 180
137 565
138 147
139 41
149 48
150 7
151 504
152 999
153 333
154 96

$$$$

     RDKit          2D

 12 12  0  0  0  0  0  0  0  0999 V2000
   -1.3000   -0.7500    0.0000 C   0  0  0  0  0  0  0  0  0  0  0  0
    0.0000    1.5000    0.0000 C   0  0  0  0  0  0  0  0  0  0  0  0
    0.0000   -1.5000    0.0000 C   0  0  0  0  0  0  0  0  0  0  0  0
    1.3000    0.7500    0.0000 C   0  0  0  0  0  0  0  0  0  0  0  0
   -1.3000    0.7500    0.0000 C   0  0  0  0  0  0  0  0  0  0  0  0
    1.3000   -0.7500    0.0000 C   0  0  0  0  0  0  0  0  0  0  0  0
   -2.5989    1.5002    0.0000 C   0  0  0  0  0  0  0  0  0  0  0  0
    2.5989   -1.5002    0.0000 N   0  0  0  0  0  0  0  0  0  0  0  0
   -3.8981    0.7504    0.0000 O   0  0  0  0  0  0  0  0  0  0  0  0
   -2.5987    3.0002    0.0000 O   0  0  0  0  0  0  0  0  0  0  0  0
    3.8981   -0.7504    0.0000 O   0  0  0  0  0  0  0  0  0  0  0  0
    2.5987   -3.0002    0.0000 O   0  0  0  0  0  0  0  0  0  0  0  0
  3  1  2  0
  4  2  1  0
  5  1  1  0
  5  2  2  0
  6  3  1  0
  6  4  2  0
  7  5  1  0
  8  6  1  0
  9  7  1  0
 10  7  2  0
 11  8  1  0
 12  8  2  0
M  CHG  2   8   1  11  -1
M  END
>  <NAME>  (1762) 
PARA-NITROBENZOIC ACID

>  <SYNONYMS>  (1762) 
4-NITROBENZOIC ACID

>  <SPECTRUM TYPE>  (1762) 
MS1

>  <INSTRUMENT TYPE>  (1762) 
EI-B

>  <INSTRUMENT>  (1762) 
HITACHI M-80A

>  <ION MODE>  (1762) 
P

>  <INCHIKEY>  (1762) 
OTLNPYWUJOZPPA-UHFFFAOYSA-N

>  <FORMULA>  (1762) 
C7H5NO4

>  <EXACT MASS>  (1762) 
167.02185764

>  <MW>  (1762) 
167

>  <ID>  (1762) 
JP009419

>  <CONTRIBUTOR>  (1762) 
University of Tokyo Team, {Faculty of Engineering, University of Tokyo

>  <COMMENT>  (1762) 
SMILES=OC(=O)c(c1)ccc(c1)[N+1]([O-1])=O
InChI=InChI=1S/C7H5NO4/c9-7(10)5-1-3-6(4-2-5)8(11)12/h1-4H,(H,9,10)
computed SMILES=O=C(O)C1=CC=C(C=C1)N(=O)=O
accession=JP009419
date=2016.01.19 (Created 2008.10.21, modified 2011.05.06)
author=GUNMA COLLEGE OF TECHNOLOGY
license=CC BY-NC-SA
exact mass=167.02186
ionization energy=70 eV
ion type=[M]+*
computed spectral entropy=3.0933522706628303
computed normalized entropy=0.812615323521753
SPLASH=splash10-014i-9500000000-d5292213a48657e97909
submitter=submitter = University of Tokyo Team (Faculty of Engineering, University of Tokyo)
MoNA Rating=3.75

>  <NUM PEAKS>  (1762) 
45

>  <MASS SPECTRAL PEAKS>  (1762) 
26 1
27 3.91
29 1.26
30 40.37
37 2.98
38 5.11
39 22.64
45 7.83
46 6.13
49 1.56
50 26.05
51 18.07
52 1.54
53 6.46
61 1.38
62 2.5
63 6.29
64 3.79
65 99.99
66 5.72
73 2.06
74 14.48
75 18.17
76 17.95
77 2.79
81 12.61
92 5.14
93 5.3
103 5.53
104 7.28
105 1.63
109 16.28
110 1.14
120 1.6
121 24.2
122 2.54
135 1.45
137 14.56
138 1.46
150 10.64
151 16.22
152 1.88
167 77.09
168 14.55
169 1.55

>  <PREDICTED SPECTRUM>  (1762) 
14 18
15 15
16 17
17 10
18 36
25 25
26 15
27 33
28 67
29 83
30 405
31 8
32 27
34 6
36 67
37 206
38 259
39 269
40 11
43 59
44 166
45 276
46 281
49 81
50 695
51 442
52 154
53 311
54 47
57 115
61 42
62 113
63 297
64 129
65 471
66 231
67 49
68 66
69 50
72 43
73 199
74 544
75 655
76 754
77 311
78 35
81 199
84 30
91 6
92 559
93 311
94 70
104 509
105 146
106 57
107 9
109 177
120 282
121 387
122 233
123 118
137 371
150 999
151 430
152 36
167 822
168 220
169 82

$$$$

     RDKit          2D

  9  9  0  0  0  0  0  0  0  0999 V2000
    2.9228   -0.2425    0.0000 C   0  0  0  0  0  0  0  0  0  0  0  0
    2.9233    1.2583    0.0000 C   0  0  0  0  0  0  0  0  0  0  0  0
    1.6233   -0.9933    0.0000 C   0  0  0  0  0  0  0  0  0  0  0  0
    1.6243    2.0083    0.0000 C   0  0  0  0  0  0  0  0  0  0  0  0
    0.3243   -0.2433    0.0000 C   0  0  0  0  0  0  0  0  0  0  0  0
   -0.9743    2.0075    0.0000 C   0  0  0  0  0  0  0  0  0  0  0  0
   -2.2733    1.2575    0.0000 C   0  0  0  0  0  0  0  0  0  0  0  0
    0.3248    1.2575    0.0000 C   0  0  0  0  0  0  0  0  0  0  0  0
   -3.5724    2.0075    0.0000 O   0  0  0  0  0  0  0  0  0  0  0  0
  2  1  2  0
  3  1  1  0
  4  2  1  0
  5  3  2  0
  7  6  1  0
  8  4  2  0
  8  5  1  0
  8  6  1  0
  9  7  2  0
M  END
>  <NAME>  (1763) 
PHENYLACETALDEHYDE

>  <SYNONYMS>  (1763) 


>  <SPECTRUM TYPE>  (1763) 
MS1

>  <INSTRUMENT TYPE>  (1763) 
EI-B

>  <INSTRUMENT>  (1763) 
HITACHI M-80A

>  <ION MODE>  (1763) 
P

>  <INCHIKEY>  (1763) 
DTUQWGWMVIHBKE-UHFFFAOYSA-N

>  <FORMULA>  (1763) 
C8H8O

>  <EXACT MASS>  (1763) 
120.057514876

>  <MW>  (1763) 
120

>  <ID>  (1763) 
JP009418

>  <CONTRIBUTOR>  (1763) 
University of Tokyo Team, {Faculty of Engineering, University of Tokyo

>  <COMMENT>  (1763) 
SMILES=O=CCc(c1)cccc1
InChI=InChI=1S/C8H8O/c9-7-6-8-4-2-1-3-5-8/h1-5,7H,6H2
computed SMILES=O=CCC=1C=CC=CC1
accession=JP009418
date=2016.01.19 (Created 2008.10.21, modified 2011.05.06)
author=GUNMA COLLEGE OF TECHNOLOGY
license=CC BY-NC-SA
exact mass=120.05751
ionization energy=70 eV
ion type=[M]+*
computed spectral entropy=3.00586556219245
computed normalized entropy=0.804208469226068
SPLASH=splash10-0006-9000000000-d37cbef4100302e951de
submitter=submitter = University of Tokyo Team (Faculty of Engineering, University of Tokyo)
MoNA Rating=3.75

>  <NUM PEAKS>  (1763) 
42

>  <MASS SPECTRAL PEAKS>  (1763) 
15 5.66
26 3.19
27 3.49
28 33.69
29 9.74
32 14.49
37 2.38
38 5.19
39 14.82
40 2.09
41 3.03
42 8.12
43 99.99
44 2.45
49 1.6
50 13.73
51 24.96
52 3.83
53 1.32
57 1.1
58 36.05
59 2.23
61 2.66
62 4.97
63 12.31
64 2.78
65 26.25
66 1.76
74 4.3
75 2.23
76 3.59
77 29.97
78 4.47
89 3.82
90 1.76
91 60.27
92 17.05
93 1.61
103 2.7
105 13.48
106 2.2
120 4.55

>  <PREDICTED SPECTRUM>  (1763) 
14 7
15 3
25 14
26 98
27 182
28 117
29 148
30 21
31 22
37 55
38 132
39 338
40 73
41 97
42 36
43 84
44 28
49 64
50 246
51 361
52 187
53 103
57 51
58 32
59 28
60 7
61 94
62 131
63 259
64 125
65 402
66 115
74 107
75 143
76 101
77 454
78 300
79 103
89 150
90 33
91 999
92 336
93 91
102 60
103 61
104 97
105 7
118 79
119 146
120 523
121 187
122 16

$$$$

     RDKit          2D

 15 16  0  0  0  0  0  0  0  0999 V2000
    2.2719    1.6474    0.0000 C   0  0  0  0  0  0  0  0  0  0  0  0
    2.2724    3.1482    0.0000 C   0  0  0  0  0  0  0  0  0  0  0  0
    0.9724    0.8966    0.0000 C   0  0  0  0  0  0  0  0  0  0  0  0
    0.9734    3.8982    0.0000 C   0  0  0  0  0  0  0  0  0  0  0  0
   -0.3266    1.6466    0.0000 C   0  0  0  0  0  0  0  0  0  0  0  0
   -2.9168    1.6474    0.0000 C   0  0  0  0  0  0  0  0  0  0  0  0
   -4.1979    3.8912    0.0000 C   0  0  0  0  0  0  0  0  0  0  0  0
   -4.1831    0.8912    0.0000 C   0  0  0  0  0  0  0  0  0  0  0  0
   -5.5442    3.1345    0.0000 C   0  0  0  0  0  0  0  0  0  0  0  0
   -0.3261    3.1474    0.0000 C   0  0  0  0  0  0  0  0  0  0  0  0
   -2.9242    3.1474    0.0000 C   0  0  0  0  0  0  0  0  0  0  0  0
   -5.5368    1.6345    0.0000 C   0  0  0  0  0  0  0  0  0  0  0  0
   -1.6252    3.8974    0.0000 C   0  0  0  0  0  0  0  0  0  0  0  0
   -6.8259    0.8675    0.0000 O   0  0  0  0  0  0  0  0  0  0  0  0
   -1.6252    5.3974    0.0000 O   0  0  0  0  0  0  0  0  0  0  0  0
  2  1  2  0
  3  1  1  0
  4  2  1  0
  5  3  2  0
  8  6  2  0
  9  7  1  0
 10  4  2  0
 10  5  1  0
 11  6  1  0
 11  7  2  0
 12  8  1  0
 12  9  2  0
 13 10  1  0
 13 11  1  0
 14 12  1  0
 15 13  2  0
M  END
>  <NAME>  (1764) 
4-HYDROXYBENZOPHENONE

>  <SYNONYMS>  (1764) 


>  <SPECTRUM TYPE>  (1764) 
MS1

>  <INSTRUMENT TYPE>  (1764) 
EI-B

>  <INSTRUMENT>  (1764) 
HITACHI M-80A

>  <ION MODE>  (1764) 
P

>  <INCHIKEY>  (1764) 
NPFYZDNDJHZQKY-UHFFFAOYSA-N

>  <FORMULA>  (1764) 
C13H10O2

>  <EXACT MASS>  (1764) 
198.06807956

>  <MW>  (1764) 
198

>  <ID>  (1764) 
JP009417

>  <CONTRIBUTOR>  (1764) 
University of Tokyo Team, {Faculty of Engineering, University of Tokyo

>  <COMMENT>  (1764) 
SMILES=Oc(c2)ccc(c2)C(=O)c(c1)cccc1
InChI=InChI=1S/C13H10O2/c14-12-8-6-11(7-9-12)13(15)10-4-2-1-3-5-10/h1-9,14H
computed SMILES=O=C(C=1C=CC=CC1)C2=CC=C(O)C=C2
accession=JP009417
date=2016.01.19 (Created 2008.10.21, modified 2011.05.06)
author=GUNMA COLLEGE OF TECHNOLOGY
license=CC BY-NC-SA
exact mass=198.06808
ionization energy=70 eV
ion type=[M]+*
computed spectral entropy=2.624378537464981
computed normalized entropy=0.7572355802832318
SPLASH=splash10-00fr-9700000000-7bbd4a386378ac812532
submitter=submitter = University of Tokyo Team (Faculty of Engineering, University of Tokyo)
MoNA Rating=3.75

>  <NUM PEAKS>  (1764) 
32

>  <MASS SPECTRAL PEAKS>  (1764) 
38 1.24
39 8.27
50 5.76
51 15.95
52 1.3
53 2.44
62 3.12
63 8.35
64 4.74
65 35.4
66 2.8
74 4.87
75 4.15
76 5.46
77 51.23
78 5.07
84 1.18
85 6.64
89 1.77
92 3.84
93 23.24
94 1.89
105 25.66
106 2.35
115 4.73
120 1.49
121 99.99
122 8.42
139 1.48
141 2.14
198 7.58
199 1.23

>  <PREDICTED SPECTRUM>  (1764) 
18 10
25 8
26 59
27 147
28 79
29 143
31 24
37 55
38 135
39 342
40 99
41 55
45 11
49 20
50 362
51 555
52 146
53 209
54 5
55 72
61 46
62 157
63 308
64 206
65 569
66 211
69 44
74 146
75 154
76 283
77 874
78 241
79 60
81 43
86 23
87 7
89 72
92 221
93 442
94 161
95 78
97 26
98 77
104 85
105 836
106 182
113 26
115 337
120 127
121 999
122 385
123 107
139 137
140 21
141 161
151 37
152 370
153 181
154 16
167 8
168 20
169 33
170 131
181 163
182 7
197 163
198 843
199 303
200 44

$$$$

     RDKit          2D

  6  5  0  0  0  0  0  0  0  0999 V2000
   -4.5466    3.3750    0.0000 C   0  0  0  0  0  0  0  0  0  0  0  0
    1.9486    2.6250    0.0000 C   0  0  0  0  0  0  0  0  0  0  0  0
   -3.2476    2.6250    0.0000 C   0  0  0  0  0  0  0  0  0  0  0  0
    0.6495    3.3750    0.0000 C   0  0  0  0  0  0  0  0  0  0  0  0
   -1.9486    3.3750    0.0000 C   0  0  0  0  0  0  0  0  0  0  0  0
   -0.6495    2.6250    0.0000 C   0  0  0  0  0  0  0  0  0  0  0  0
  3  1  1  0
  4  2  1  0
  5  3  1  0
  6  4  1  0
  6  5  1  0
M  END
>  <NAME>  (1765) 
HEXANE

>  <SYNONYMS>  (1765) 


>  <SPECTRUM TYPE>  (1765) 
MS1

>  <INSTRUMENT TYPE>  (1765) 
EI-B

>  <INSTRUMENT>  (1765) 
HITACHI M-80A

>  <ION MODE>  (1765) 
P

>  <INCHIKEY>  (1765) 
VLKZOEOYAKHREP-UHFFFAOYSA-N

>  <FORMULA>  (1765) 
C6H14

>  <EXACT MASS>  (1765) 
86.109550448

>  <MW>  (1765) 
86

>  <ID>  (1765) 
JP009416

>  <CONTRIBUTOR>  (1765) 
University of Tokyo Team, {Faculty of Engineering, University of Tokyo

>  <COMMENT>  (1765) 
SMILES=CCCCCC
InChI=InChI=1S/C6H14/c1-3-5-6-4-2/h3-6H2,1-2H3
computed SMILES=CCCCCC
accession=JP009416
date=2016.01.19 (Created 2008.10.21, modified 2011.05.06)
author=GUNMA COLLEGE OF TECHNOLOGY
license=CC BY-NC-SA
exact mass=86.10955
ionization energy=70 eV
ion type=[M]+*
computed spectral entropy=2.425391018384344
computed normalized entropy=0.7534900848446534
SPLASH=splash10-054o-9000000000-2c1489cf6d4c005a89ae
submitter=submitter = University of Tokyo Team (Faculty of Engineering, University of Tokyo)
MoNA Rating=3.75

>  <NUM PEAKS>  (1765) 
25

>  <MASS SPECTRAL PEAKS>  (1765) 
14 2.03
15 6.17
26 5.06
27 52.52
28 1.2
29 60.51
30 1.25
38 1.92
39 27.09
40 4.21
41 88.82
42 39.54
43 76.61
44 2.43
50 1.06
51 1.44
53 2.4
55 7.96
56 53.46
57 99.99
58 4.51
71 5.56
85 1.52
86 15.75
87 1.12

>  <PREDICTED SPECTRUM>  (1765) 
14 21
15 55
25 18
26 157
27 660
28 199
29 778
30 285
31 100
37 43
38 92
39 481
40 239
41 854
42 558
43 999
44 161
50 0
51 111
52 74
53 234
54 283
55 645
56 467
57 767
58 215
68 146
69 91
70 713
71 571
72 6
82 28
86 342
87 71

$$$$

     RDKit          2D

 12 12  0  0  0  0  0  0  0  0999 V2000
    0.6489   -2.6180    0.0000 C   0  0  0  0  0  0  0  0  0  0  0  0
   -0.6501   -1.8680    0.0000 C   0  0  0  0  0  0  0  0  0  0  0  0
    1.9435   -1.8758    0.0000 C   0  0  0  0  0  0  0  0  0  0  0  0
    0.6449    0.3750    0.0000 C   0  0  0  0  0  0  0  0  0  0  0  0
   -0.6546   -0.3758    0.0000 C   0  0  0  0  0  0  0  0  0  0  0  0
    1.9439   -0.3750    0.0000 C   0  0  0  0  0  0  0  0  0  0  0  0
   -1.9549    0.3720    0.0000 C   0  0  0  0  0  0  0  0  0  0  0  0
    3.2431    0.3748    0.0000 N   0  0  0  0  0  0  0  0  0  0  0  0
   -1.9574    1.8720    0.0000 O   0  0  0  0  0  0  0  0  0  0  0  0
   -3.2527   -0.3801    0.0000 O   0  0  0  0  0  0  0  0  0  0  0  0
    4.5420   -0.3754    0.0000 O   0  0  0  0  0  0  0  0  0  0  0  0
    3.2433    1.8748    0.0000 O   0  0  0  0  0  0  0  0  0  0  0  0
  2  1  2  0
  3  1  1  0
  5  2  1  0
  5  4  2  0
  6  3  2  0
  6  4  1  0
  7  5  1  0
  8  6  1  0
  9  7  2  0
 10  7  1  0
 11  8  1  0
 12  8  2  0
M  CHG  2   8   1  11  -1
M  END
>  <NAME>  (1766) 
META-NITROBENZOIC ACID

>  <SYNONYMS>  (1766) 
3-NITROBENZOIC ACID

>  <SPECTRUM TYPE>  (1766) 
MS1

>  <INSTRUMENT TYPE>  (1766) 
EI-B

>  <INSTRUMENT>  (1766) 
HITACHI M-80A

>  <ION MODE>  (1766) 
P

>  <INCHIKEY>  (1766) 
AFPHTEQTJZKQAQ-UHFFFAOYSA-N

>  <FORMULA>  (1766) 
C7H5NO4

>  <EXACT MASS>  (1766) 
167.02185764

>  <MW>  (1766) 
167

>  <ID>  (1766) 
JP009415

>  <CONTRIBUTOR>  (1766) 
University of Tokyo Team, {Faculty of Engineering, University of Tokyo

>  <COMMENT>  (1766) 
SMILES=OC(=O)c(c1)cc(cc1)[N+1]([O-1])=O
InChI=InChI=1S/C7H5NO4/c9-7(10)5-2-1-3-6(4-5)8(11)12/h1-4H,(H,9,10)
computed SMILES=O=C(O)C1=CC=CC(=C1)N(=O)=O
accession=JP009415
date=2016.01.19 (Created 2008.10.21, modified 2011.05.06)
author=GUNMA COLLEGE OF TECHNOLOGY
license=CC BY-NC-SA
exact mass=167.02186
ionization energy=70 eV
ion type=[M]+*
computed spectral entropy=3.089759269120135
computed normalized entropy=0.8070119264639088
SPLASH=splash10-0gb9-9700000000-3935caa792945e368800
submitter=submitter = University of Tokyo Team (Faculty of Engineering, University of Tokyo)
MoNA Rating=3.75

>  <NUM PEAKS>  (1766) 
46

>  <MASS SPECTRAL PEAKS>  (1766) 
27 1.38
30 29.24
37 1.23
38 2.31
39 18.66
45 4.32
46 7.04
50 10.36
51 6.72
53 3.45
55 1.7
62 1.25
63 7.23
64 2.59
65 99.99
66 5.83
74 7.81
75 7.52
76 11.92
77 2.52
79 3.54
81 8.58
91 1.4
92 12.04
93 4.51
95 1.07
103 2.49
104 6.62
105 1.45
107 1.84
109 5.41
121 27.09
122 3.16
123 4.73
134 1.75
135 2.22
136 2.37
137 8.85
138 1.64
148 1.45
150 42.01
151 40.63
152 5.96
167 34.56
168 26.22
169 2.32

>  <PREDICTED SPECTRUM>  (1766) 
14 2
16 22
17 28
18 69
25 25
26 29
27 83
28 114
29 133
30 532
31 40
32 33
36 59
37 208
38 258
39 254
40 28
43 68
44 78
45 306
46 295
49 137
50 757
51 489
52 131
53 333
54 104
55 44
56 64
57 83
61 29
62 236
63 325
64 71
65 535
66 230
67 106
68 153
69 30
70 63
72 90
73 180
74 616
75 798
76 810
77 372
78 53
80 14
81 175
83 35
84 157
90 26
91 49
92 544
93 284
94 96
95 105
104 627
105 291
106 40
107 34
109 219
120 211
121 453
122 347
123 186
137 421
150 999
151 339
167 908
168 238
169 102

$$$$

     RDKit          2D

  6  5  0  0  0  0  0  0  0  0999 V2000
   -0.0000    1.5000    0.0000 C   0  0  0  0  0  0  0  0  0  0  0  0
   -1.2990    2.2500    0.0000 C   0  0  0  0  0  0  0  0  0  0  0  0
   -0.0000   -0.0000    0.0000 Cl  0  0  0  0  0  0  0  0  0  0  0  0
    1.2990    2.2500    0.0000 Cl  0  0  0  0  0  0  0  0  0  0  0  0
   -1.2990    3.7500    0.0000 Cl  0  0  0  0  0  0  0  0  0  0  0  0
   -2.5981    1.5000    0.0000 Cl  0  0  0  0  0  0  0  0  0  0  0  0
  2  1  2  0
  3  1  1  0
  4  1  1  0
  5  2  1  0
  6  2  1  0
M  END
>  <NAME>  (1767) 
TETRACHLOROETHYLENE

>  <SYNONYMS>  (1767) 


>  <SPECTRUM TYPE>  (1767) 
MS1

>  <INSTRUMENT TYPE>  (1767) 
EI-B

>  <INSTRUMENT>  (1767) 
HITACHI M-80A

>  <ION MODE>  (1767) 
P

>  <INCHIKEY>  (1767) 
CYTYCFOTNPOANT-UHFFFAOYSA-N

>  <FORMULA>  (1767) 
C2Cl4

>  <EXACT MASS>  (1767) 
163.87541072

>  <MW>  (1767) 
164

>  <ID>  (1767) 
JP009413

>  <CONTRIBUTOR>  (1767) 
University of Tokyo Team, {Faculty of Engineering, University of Tokyo

>  <COMMENT>  (1767) 
SMILES=ClC(Cl)=C(Cl)Cl
InChI=InChI=1S/C2Cl4/c3-1(4)2(5)6
computed SMILES=ClC(Cl)=C(Cl)Cl
accession=JP009413
date=2016.01.19 (Created 2008.10.21, modified 2011.05.06)
author=GUNMA COLLEGE OF TECHNOLOGY
license=CC BY-NC-SA
exact mass=163.87541
ionization energy=70 eV
ion type=[M]+*
computed spectral entropy=2.9031965549700605
computed normalized entropy=0.8040051380852605
SPLASH=splash10-02ce-9700000000-15e97c87ff2d3325dcde
submitter=submitter = University of Tokyo Team (Faculty of Engineering, University of Tokyo)
MoNA Rating=3.75

>  <NUM PEAKS>  (1767) 
37

>  <MASS SPECTRAL PEAKS>  (1767) 
12 11.73
24 19.94
35 87.35
36 1.71
37 26.61
47 99.99
48 1.17
49 32.56
59 50.44
60 1.26
61 16.33
70 1.53
72 1.04
82 30.93
83 2.91
84 19.5
86 2.96
94 80.34
95 1.88
96 51.6
97 1.14
98 8.28
117 1.72
119 1.57
129 97.88
130 2.11
131 90.72
132 1.98
133 29.1
135 3.04
164 79.95
165 1.65
166 97.4
167 2.29
168 46.55
169 1.03
170 9.69

>  <PREDICTED SPECTRUM>  (1767) 
19 11
25 28
26 80
31 62
32 50
33 5
35 216
36 25
37 115
39 15
44 93
45 197
47 319
48 109
49 239
50 25
57 112
58 23
59 283
60 154
61 277
62 130
63 141
67 29
68 151
69 99
70 111
71 79
72 164
73 5
79 218
81 91
82 26
83 218
84 174
85 79
86 93
87 72
93 128
94 394
95 315
96 406
97 208
98 270
105 58
106 123
107 288
108 77
114 21
117 120
118 67
119 141
127 38
129 999
130 155
131 954
132 137
133 662
134 95
135 288
136 15
147 75
162 10
164 760
165 115
166 797
167 131
168 625
169 103

$$$$

     RDKit          2D

  5  4  0  0  0  0  0  0  0  0999 V2000
   -3.8971    2.2500    0.0000 C   0  0  0  0  0  0  0  0  0  0  0  0
    1.2990    2.2500    0.0000 C   0  0  0  0  0  0  0  0  0  0  0  0
   -2.5981    1.5000    0.0000 C   0  0  0  0  0  0  0  0  0  0  0  0
    0.0000    1.5000    0.0000 C   0  0  0  0  0  0  0  0  0  0  0  0
   -1.2990    2.2500    0.0000 C   0  0  0  0  0  0  0  0  0  0  0  0
  3  1  1  0
  4  2  1  0
  5  3  1  0
  5  4  1  0
M  END
>  <NAME>  (1768) 
PENTANE

>  <SYNONYMS>  (1768) 


>  <SPECTRUM TYPE>  (1768) 
MS1

>  <INSTRUMENT TYPE>  (1768) 
EI-B

>  <INSTRUMENT>  (1768) 
HITACHI M-80A

>  <ION MODE>  (1768) 
P

>  <INCHIKEY>  (1768) 
OFBQJSOFQDEBGM-UHFFFAOYSA-N

>  <FORMULA>  (1768) 
C5H12

>  <EXACT MASS>  (1768) 
72.093900384

>  <MW>  (1768) 
72

>  <ID>  (1768) 
JP009412

>  <CONTRIBUTOR>  (1768) 
University of Tokyo Team, {Faculty of Engineering, University of Tokyo

>  <COMMENT>  (1768) 
SMILES=CCCCC
InChI=InChI=1S/C5H12/c1-3-5-4-2/h3-5H2,1-2H3
computed SMILES=CCCCC
accession=JP009412
date=2016.01.19 (Created 2008.10.21, modified 2011.05.06)
author=GUNMA COLLEGE OF TECHNOLOGY
license=CC BY-NC-SA
exact mass=72.0939
ionization energy=70 eV
ion type=[M]+*
computed spectral entropy=2.1320603537016343
computed normalized entropy=0.7376422592966076
SPLASH=splash10-0006-9000000000-9f4d0bc46cbebba40720
submitter=submitter = University of Tokyo Team (Faculty of Engineering, University of Tokyo)
MoNA Rating=3.75

>  <NUM PEAKS>  (1768) 
18

>  <MASS SPECTRAL PEAKS>  (1768) 
14 1.25
15 4.16
26 3.1
27 30.44
29 21.08
38 1.59
39 16.11
40 2.65
41 47.86
42 59.35
43 99.99
44 3.4
53 1.31
55 3.55
56 3
57 15.49
71 1.45
72 11.45

>  <PREDICTED SPECTRUM>  (1768) 
14 54
15 120
16 2
25 37
26 209
27 628
28 208
29 677
30 560
31 133
37 62
38 157
39 599
40 289
41 999
42 417
43 701
44 180
50 59
51 101
52 9
53 266
54 206
55 385
56 677
57 876
58 167
70 107
71 41
72 414
73 98

$$$$

     RDKit          2D

 14 16  0  0  0  0  0  0  0  0999 V2000
    3.0600    2.2000    0.0000 C   0  0  0  0  0  0  0  0  0  0  0  0
   -3.4300   -1.5500    0.0000 C   0  0  0  0  0  0  0  0  0  0  0  0
    1.7600    2.9500    0.0000 C   0  0  0  0  0  0  0  0  0  0  0  0
   -3.4300   -0.0500    0.0000 C   0  0  0  0  0  0  0  0  0  0  0  0
    3.0600    0.7000    0.0000 C   0  0  0  0  0  0  0  0  0  0  0  0
   -2.1300   -2.3000    0.0000 C   0  0  0  0  0  0  0  0  0  0  0  0
    0.4600    2.2000    0.0000 C   0  0  0  0  0  0  0  0  0  0  0  0
   -2.1300    0.7000    0.0000 C   0  0  0  0  0  0  0  0  0  0  0  0
    1.7600   -1.5500    0.0000 C   0  0  0  0  0  0  0  0  0  0  0  0
    0.4600   -2.3000    0.0000 C   0  0  0  0  0  0  0  0  0  0  0  0
    1.7600   -0.0500    0.0000 C   0  0  0  0  0  0  0  0  0  0  0  0
   -0.8300   -1.5500    0.0000 C   0  0  0  0  0  0  0  0  0  0  0  0
    0.4600    0.7000    0.0000 C   0  0  0  0  0  0  0  0  0  0  0  0
   -0.8300   -0.0500    0.0000 C   0  0  0  0  0  0  0  0  0  0  0  0
  3  1  2  0
  4  2  2  0
  5  1  1  0
  6  2  1  0
  7  3  1  0
  8  4  1  0
 10  9  1  0
 11  5  2  0
 11  9  1  0
 12  6  2  0
 12 10  1  0
 13  7  2  0
 13 11  1  0
 14  8  2  0
 14 12  1  0
 14 13  1  0
M  END
>  <NAME>  (1769) 
9,10-DIHYDROPHENANTHRENE

>  <SYNONYMS>  (1769) 


>  <SPECTRUM TYPE>  (1769) 
MS1

>  <INSTRUMENT TYPE>  (1769) 
EI-B

>  <INSTRUMENT>  (1769) 
HITACHI M-80A

>  <ION MODE>  (1769) 
P

>  <INCHIKEY>  (1769) 
XXPBFNVKTVJZKF-UHFFFAOYSA-N

>  <FORMULA>  (1769) 
C14H12

>  <EXACT MASS>  (1769) 
180.093900384

>  <MW>  (1769) 
180

>  <ID>  (1769) 
JP009411

>  <CONTRIBUTOR>  (1769) 
University of Tokyo Team, {Faculty of Engineering, University of Tokyo

>  <COMMENT>  (1769) 
SMILES=c(c3)cc(C1)c(c3)c(c2)c(ccc2)C1
InChI=InChI=1S/C14H12/c1-3-7-13-11(5-1)9-10-12-6-2-4-8-14(12)13/h1-8H,9-10H2
computed SMILES=C=1C=CC2=C(C1)C=3C=CC=CC3CC2
accession=JP009411
date=2016.01.19 (Created 2008.10.21, modified 2011.05.06)
author=GUNMA COLLEGE OF TECHNOLOGY
license=CC BY-NC-SA
exact mass=180.0939
ionization energy=70 eV
ion type=[M]+*
computed spectral entropy=3.272243783822527
computed normalized entropy=0.8025049012641727
SPLASH=splash10-0059-4900000000-a925caa9979d27ad3d93
submitter=submitter = University of Tokyo Team (Faculty of Engineering, University of Tokyo)
MoNA Rating=3.75

>  <NUM PEAKS>  (1769) 
59

>  <MASS SPECTRAL PEAKS>  (1769) 
26 1.25
27 9.56
29 16.1
30 1.74
31 13.43
38 2.61
39 13.66
41 1.41
44 1.32
50 6.03
51 9.78
52 2.68
56 1.1
62 3.2
63 14.8
64 2.64
65 2.14
69 1.03
74 4.89
75 7.06
76 13.92
77 5.05
78 1.09
82 1.01
83 3.2
86 2.48
87 3.77
88 5.99
89 14.34
90 5.65
91 2.32
98 1.77
99 2.31
101 1.08
102 1.98
113 1.22
115 3.65
126 2.24
127 1.57
128 2.84
139 4.06
141 1.03
150 3.69
151 9.24
152 13.02
153 3.91
154 2.39
163 1.47
164 1.89
165 29.46
166 6.26
175 1.8
176 10.15
177 8.43
178 40.84
179 57.41
180 99.99
181 11.85
182 1.38

>  <PREDICTED SPECTRUM>  (1769) 
26 7
27 87
28 20
38 29
39 147
40 8
44 5
50 129
51 172
52 75
57 15
62 102
63 167
64 74
65 91
69 45
70 36
74 106
75 169
76 233
77 118
78 18
81 45
82 152
83 124
84 23
86 41
87 123
88 210
89 272
90 140
94 55
95 106
96 72
97 58
98 4
99 13
100 109
101 229
102 192
103 50
108 63
109 3
110 44
111 20
113 106
114 48
115 278
125 15
126 139
127 101
128 132
137 60
138 43
139 119
141 14
149 30
150 138
151 165
152 306
153 178
154 71
162 9
163 164
164 214
165 765
166 287
167 54
174 12
175 40
176 252
177 186
178 651
179 805
180 999
181 399
182 80

$$$$

     RDKit          2D

 10 10  0  0  0  0  0  0  0  0999 V2000
    2.5983    0.3196    0.0000 C   0  0  0  0  0  0  0  0  0  0  0  0
    2.5988    1.8204    0.0000 C   0  0  0  0  0  0  0  0  0  0  0  0
    1.2988   -0.4312    0.0000 C   0  0  0  0  0  0  0  0  0  0  0  0
    1.2998    2.5704    0.0000 C   0  0  0  0  0  0  0  0  0  0  0  0
   -0.0002    0.3188    0.0000 C   0  0  0  0  0  0  0  0  0  0  0  0
   -1.2988    2.5696    0.0000 C   0  0  0  0  0  0  0  0  0  0  0  0
    0.0002    1.8196    0.0000 C   0  0  0  0  0  0  0  0  0  0  0  0
   -2.5978    1.8196    0.0000 C   0  0  0  0  0  0  0  0  0  0  0  0
   -3.8969    2.5696    0.0000 Cl  0  0  0  0  0  0  0  0  0  0  0  0
   -2.5978    0.3196    0.0000 O   0  0  0  0  0  0  0  0  0  0  0  0
  2  1  2  0
  3  1  1  0
  4  2  1  0
  5  3  2  0
  7  4  2  0
  7  5  1  0
  7  6  1  0
  8  6  1  0
  9  8  1  0
 10  8  2  0
M  END
>  <NAME>  (1770) 
PHENYLACETYL CHLORIDE

>  <SYNONYMS>  (1770) 


>  <SPECTRUM TYPE>  (1770) 
MS1

>  <INSTRUMENT TYPE>  (1770) 
EI-B

>  <INSTRUMENT>  (1770) 
HITACHI M-80A

>  <ION MODE>  (1770) 
P

>  <INCHIKEY>  (1770) 
VMZCDNSFRSVYKQ-UHFFFAOYSA-N

>  <FORMULA>  (1770) 
C8H7ClO

>  <EXACT MASS>  (1770) 
154.018542524

>  <MW>  (1770) 
154

>  <ID>  (1770) 
JP009410

>  <CONTRIBUTOR>  (1770) 
University of Tokyo Team, {Faculty of Engineering, University of Tokyo

>  <COMMENT>  (1770) 
SMILES=O=C(Cl)Cc(c1)cccc1
InChI=InChI=1S/C8H7ClO/c9-8(10)6-7-4-2-1-3-5-7/h1-5H,6H2
computed SMILES=O=C(Cl)CC=1C=CC=CC1
accession=JP009410
date=2016.01.19 (Created 2008.10.21, modified 2011.05.06)
author=GUNMA COLLEGE OF TECHNOLOGY
license=CC BY-NC-SA
exact mass=154.01854
ionization energy=70 eV
ion type=[M]+*
computed spectral entropy=3.0123324094887436
computed normalized entropy=0.811168426350779
SPLASH=splash10-0006-9100000000-4fabf0611b7739a53717
submitter=submitter = University of Tokyo Team (Faculty of Engineering, University of Tokyo)
MoNA Rating=3.75

>  <NUM PEAKS>  (1770) 
41

>  <MASS SPECTRAL PEAKS>  (1770) 
14 2.83
15 7.71
26 5.24
27 6.85
29 1.51
35 5.12
36 16.09
37 3.31
38 6.94
39 18.83
40 1.68
41 3.02
42 2.5
43 23.28
46 3.02
49 1.17
50 8.49
51 9.99
52 2.92
58 4.53
61 2.3
62 5.62
63 12.99
64 3.64
65 18.3
66 1.19
74 1.65
75 1.24
77 3.27
89 10.96
90 8.47
91 99.99
92 8.34
105 4.1
118 5.94
119 6.23
125 3.13
127 1.01
154 12.49
155 1.12
156 4.38

>  <PREDICTED SPECTRUM>  (1770) 
14 17
15 20
25 12
26 75
27 154
28 66
29 42
35 67
36 90
37 107
38 152
39 332
40 121
41 189
42 3
44 66
49 107
50 186
51 264
52 94
53 48
55 60
57 28
58 26
60 67
61 114
62 210
63 365
64 167
65 436
66 94
68 4
73 22
74 108
75 64
76 14
77 76
78 32
86 80
88 31
89 300
90 297
91 999
92 330
117 5
118 222
119 336
120 156
126 70
127 7
154 253
155 66
156 82
157 6

$$$$

     RDKit          2D

  7  6  0  0  0  0  0  0  0  0999 V2000
    1.6238    3.1875    0.0000 C   0  0  0  0  0  0  0  0  0  0  0  0
    0.3248    3.9375    0.0000 C   0  0  0  0  0  0  0  0  0  0  0  0
   -0.9743    3.1875    0.0000 C   0  0  0  0  0  0  0  0  0  0  0  0
   -3.5724    3.1875    0.0000 C   0  0  0  0  0  0  0  0  0  0  0  0
   -4.8714    3.9375    0.0000 Cl  0  0  0  0  0  0  0  0  0  0  0  0
   -3.5724    1.6875    0.0000 O   0  0  0  0  0  0  0  0  0  0  0  0
   -2.2733    3.9375    0.0000 O   0  0  0  0  0  0  0  0  0  0  0  0
  2  1  1  0
  3  2  1  0
  5  4  1  0
  6  4  2  0
  7  3  1  0
  7  4  1  0
M  END
>  <NAME>  (1771) 
PROPYL CHLOROFORMATE

>  <SYNONYMS>  (1771) 


>  <SPECTRUM TYPE>  (1771) 
MS1

>  <INSTRUMENT TYPE>  (1771) 
EI-B

>  <INSTRUMENT>  (1771) 
HITACHI M-80A

>  <ION MODE>  (1771) 
P

>  <INCHIKEY>  (1771) 
QQKDTTWZXHEGAQ-UHFFFAOYSA-N

>  <FORMULA>  (1771) 
C4H7ClO2

>  <EXACT MASS>  (1771) 
122.013457144

>  <MW>  (1771) 
122

>  <ID>  (1771) 
JP009409

>  <CONTRIBUTOR>  (1771) 
University of Tokyo Team, {Faculty of Engineering, University of Tokyo

>  <COMMENT>  (1771) 
SMILES=CCCOC(=O)Cl
InChI=InChI=1S/C4H7ClO2/c1-2-3-7-4(5)6/h2-3H2,1H3
computed SMILES=O=C(Cl)OCCC
accession=JP009409
date=2016.01.19 (Created 2008.10.21, modified 2011.05.06)
author=GUNMA COLLEGE OF TECHNOLOGY
license=CC BY-NC-SA
exact mass=122.01346
ionization energy=70 eV
ion type=[M]+*
computed spectral entropy=2.5146989100528403
computed normalized entropy=0.771830693383911
SPLASH=splash10-0006-9000000000-7f29b529441740743e44
submitter=submitter = University of Tokyo Team (Faculty of Engineering, University of Tokyo)
MoNA Rating=3.75

>  <NUM PEAKS>  (1771) 
26

>  <MASS SPECTRAL PEAKS>  (1771) 
14 2.42
15 9.21
16 2.23
26 9.98
27 54.05
29 15.48
30 3.76
31 5.64
35 4.34
36 4.05
37 3.09
38 5.42
39 23.97
40 6.61
41 48.63
42 83.79
43 99.99
44 14.81
45 1.49
57 2.6
59 5.08
63 25.6
65 8.44
78 1.08
93 6.79
95 2.18

>  <PREDICTED SPECTRUM>  (1771) 
14 83
15 264
16 47
17 14
25 40
26 246
27 633
28 273
29 432
30 137
31 287
35 115
36 178
37 116
38 177
39 515
40 181
41 914
42 670
43 999
44 281
45 318
46 16
49 89
50 91
51 47
59 29
62 31
63 786
64 283
65 410
67 4
73 40
79 74
80 271
81 286
82 233
83 81
92 65
93 254
107 75
109 11

$$$$

     RDKit          2D

 11 11  0  0  0  0  0  0  0  0999 V2000
   -1.6700   -0.9600    0.0000 C   0  0  0  0  0  0  0  0  0  0  0  0
   -1.6700    0.5400    0.0000 C   0  0  0  0  0  0  0  0  0  0  0  0
   -0.3700   -1.7100    0.0000 C   0  0  0  0  0  0  0  0  0  0  0  0
   -0.3700    1.2900    0.0000 C   0  0  0  0  0  0  0  0  0  0  0  0
    0.9300   -0.9600    0.0000 C   0  0  0  0  0  0  0  0  0  0  0  0
    3.5281    0.5404    0.0000 C   0  0  0  0  0  0  0  0  0  0  0  0
    0.9300    0.5400    0.0000 C   0  0  0  0  0  0  0  0  0  0  0  0
    4.8270    1.2906    0.0000 C   0  0  0  0  0  0  0  0  0  0  0  0
    4.8268    2.7906    0.0000 O   0  0  0  0  0  0  0  0  0  0  0  0
    6.1262    0.5408    0.0000 O   0  0  0  0  0  0  0  0  0  0  0  0
    2.2289    1.2902    0.0000 O   0  0  0  0  0  0  0  0  0  0  0  0
  2  1  2  0
  3  1  1  0
  4  2  1  0
  5  3  2  0
  7  4  2  0
  7  5  1  0
  8  6  1  0
  9  8  2  0
 10  8  1  0
 11  6  1  0
 11  7  1  0
M  END
>  <NAME>  (1772) 
PHENOXYACETIC ACID

>  <SYNONYMS>  (1772) 


>  <SPECTRUM TYPE>  (1772) 
MS1

>  <INSTRUMENT TYPE>  (1772) 
EI-B

>  <INSTRUMENT>  (1772) 
HITACHI M-80A

>  <ION MODE>  (1772) 
P

>  <INCHIKEY>  (1772) 
LCPDWSOZIOUXRV-UHFFFAOYSA-N

>  <FORMULA>  (1772) 
C8H8O3

>  <EXACT MASS>  (1772) 
152.04734411599998

>  <MW>  (1772) 
152

>  <ID>  (1772) 
JP009408

>  <CONTRIBUTOR>  (1772) 
University of Tokyo Team, {Faculty of Engineering, University of Tokyo

>  <COMMENT>  (1772) 
SMILES=OC(=O)COc(c1)cccc1
InChI=InChI=1S/C8H8O3/c9-8(10)6-11-7-4-2-1-3-5-7/h1-5H,6H2,(H,9,10)
computed SMILES=O=C(O)COC=1C=CC=CC1
accession=JP009408
date=2016.01.19 (Created 2008.10.21, modified 2011.05.06)
author=GUNMA COLLEGE OF TECHNOLOGY
license=CC BY-NC-SA
exact mass=152.04734
ionization energy=70 eV
ion type=[M]+*
computed spectral entropy=2.9482029345090885
computed normalized entropy=0.7992136829576186
SPLASH=splash10-0ufr-9300000000-7ad28b74c9749c6a27fb
submitter=submitter = University of Tokyo Team (Faculty of Engineering, University of Tokyo)
MoNA Rating=3.75

>  <NUM PEAKS>  (1772) 
40

>  <MASS SPECTRAL PEAKS>  (1772) 
37 4.88
38 13.3
39 49.58
40 10.97
41 2.42
42 11.66
43 13.47
44 2.91
45 29.34
46 1.16
49 1.29
50 21.31
51 56.5
52 7.03
53 2.58
55 1.86
58 3.56
59 1.48
61 2.26
62 5.9
63 11.69
64 4.21
65 29.34
66 9.62
74 5.03
75 3.01
76 3.81
77 99.99
78 13.81
79 36.43
80 2.54
92 1.78
93 1.87
94 22.51
95 2.14
105 1.04
107 71.04
108 5.71
152 92.9
153 8.56

>  <PREDICTED SPECTRUM>  (1772) 
14 35
15 79
16 10
17 14
18 58
19 8
25 8
26 72
27 188
28 98
29 202
30 13
31 212
32 20
33 29
34 22
36 15
37 121
38 207
39 435
40 172
41 232
42 219
43 30
44 63
45 399
46 105
47 73
48 47
49 122
50 387
51 632
52 226
53 202
54 71
55 109
57 8
58 35
59 118
60 85
61 139
62 185
63 358
64 278
65 490
66 277
67 72
69 6
73 45
74 162
75 148
76 202
77 999
78 450
79 454
80 130
81 51
91 77
92 142
93 342
94 437
95 102
96 27
105 258
106 75
107 728
108 304
109 95
152 737
153 242
154 87

$$$$

     RDKit          2D

 14 14  0  0  0  0  0  0  0  0999 V2000
   -1.2996   -4.1256    0.0000 C   0  0  0  0  0  0  0  0  0  0  0  0
    5.1963   -0.3752    0.0000 C   0  0  0  0  0  0  0  0  0  0  0  0
   -0.0010    2.6258    0.0000 C   0  0  0  0  0  0  0  0  0  0  0  0
   -1.3000    1.8758    0.0000 C   0  0  0  0  0  0  0  0  0  0  0  0
    1.2986    1.8750    0.0000 C   0  0  0  0  0  0  0  0  0  0  0  0
   -1.2995    0.3750    0.0000 C   0  0  0  0  0  0  0  0  0  0  0  0
   -1.2994   -2.6256    0.0000 C   0  0  0  0  0  0  0  0  0  0  0  0
    1.2990    0.3742    0.0000 C   0  0  0  0  0  0  0  0  0  0  0  0
   -0.0000   -0.3758    0.0000 C   0  0  0  0  0  0  0  0  0  0  0  0
    2.5982   -0.3756    0.0000 C   0  0  0  0  0  0  0  0  0  0  0  0
   -2.5983   -1.8754    0.0000 O   0  0  0  0  0  0  0  0  0  0  0  0
    2.5984   -1.8756    0.0000 O   0  0  0  0  0  0  0  0  0  0  0  0
    3.8971    0.3746    0.0000 O   0  0  0  0  0  0  0  0  0  0  0  0
   -0.0002   -1.8758    0.0000 O   0  0  0  0  0  0  0  0  0  0  0  0
  4  3  2  0
  5  3  1  0
  6  4  1  0
  7  1  1  0
  8  5  2  0
  9  6  2  0
  9  8  1  0
 10  8  1  0
 11  7  2  0
 12 10  2  0
 13  2  1  0
 13 10  1  0
 14  7  1  0
 14  9  1  0
M  END
>  <NAME>  (1773) 
METHYL ACETYLSALICYLATE

>  <SYNONYMS>  (1773) 
METHYL 2-ACETHOXYBENZOATE

>  <SPECTRUM TYPE>  (1773) 
MS1

>  <INSTRUMENT TYPE>  (1773) 
EI-B

>  <INSTRUMENT>  (1773) 
HITACHI M-80A

>  <ION MODE>  (1773) 
P

>  <INCHIKEY>  (1773) 
ONWPLBKWMAUFGZ-UHFFFAOYSA-N

>  <FORMULA>  (1773) 
C10H10O4

>  <EXACT MASS>  (1773) 
194.0579088

>  <MW>  (1773) 
194

>  <ID>  (1773) 
JP009407

>  <CONTRIBUTOR>  (1773) 
University of Tokyo Team, {Faculty of Engineering, University of Tokyo

>  <COMMENT>  (1773) 
SMILES=COC(=O)c(c1)c(ccc1)OC(C)=O
InChI=InChI=1S/C10H10O4/c1-7(11)14-9-6-4-3-5-8(9)10(12)13-2/h3-6H,1-2H3
computed SMILES=O=C(OC)C=1C=CC=CC1OC(=O)C
accession=JP009407
date=2016.01.19 (Created 2008.10.21, modified 2011.05.06)
author=GUNMA COLLEGE OF TECHNOLOGY
license=CC BY-NC-SA
exact mass=194.05791
ionization energy=70 eV
ion type=[M]+*
computed spectral entropy=2.6468537345994045
computed normalized entropy=0.7569992880236415
SPLASH=splash10-0fkc-9700000000-9c56fa1f8fda05f01113
submitter=submitter = University of Tokyo Team (Faculty of Engineering, University of Tokyo)
MoNA Rating=3.75

>  <NUM PEAKS>  (1773) 
33

>  <MASS SPECTRAL PEAKS>  (1773) 
15 23.79
27 1.79
29 4.1
37 2.07
38 7.73
39 12.43
41 2.62
42 4.23
43 74.89
44 1.71
50 4.07
51 2.72
52 2.41
53 4.21
59 2.17
61 1.05
62 3.8
63 17.09
64 15.84
65 12.94
66 1.23
74 1.23
76 1.68
77 4.33
92 45.1
93 7.1
95 3.47
120 99.99
121 32.32
122 2.76
152 73.68
153 7.44
163 5.5

>  <PREDICTED SPECTRUM>  (1773) 
14 58
15 216
16 20
25 0
26 99
27 144
28 143
29 125
31 4
36 55
37 115
38 223
39 316
40 68
41 123
42 88
43 439
44 76
49 83
50 240
51 252
52 176
53 159
54 22
55 3
61 102
62 183
63 422
64 411
65 397
66 158
74 141
75 222
76 209
77 328
78 210
79 122
80 47
90 146
91 199
92 645
93 309
94 171
95 215
96 30
97 5
103 59
104 138
105 109
107 29
109 26
119 102
120 999
121 760
122 248
123 234
124 12
133 79
135 100
137 11
151 106
152 765
153 309
154 111
163 213
165 83
194 228
195 69

$$$$

     RDKit          2D

  9  9  0  0  0  0  0  0  0  0999 V2000
    2.6463   -2.2604    0.0000 C   0  0  0  0  0  0  0  0  0  0  0  0
    0.0578   -2.2440    0.0000 C   0  0  0  0  0  0  0  0  0  0  0  0
   -1.2413   -1.4940    0.0000 C   0  0  0  0  0  0  0  0  0  0  0  0
    1.3678    0.0250    0.0000 C   0  0  0  0  0  0  0  0  0  0  0  0
    1.3523   -1.5018    0.0000 C   0  0  0  0  0  0  0  0  0  0  0  0
    0.0687    0.7750    0.0000 C   0  0  0  0  0  0  0  0  0  0  0  0
   -1.2804    0.0182    0.0000 C   0  0  0  0  0  0  0  0  0  0  0  0
    0.0780    2.2750    0.0000 N   0  0  0  0  0  0  0  0  0  0  0  0
   -2.5845    0.7594    0.0000 O   0  0  0  0  0  0  0  0  0  0  0  0
  3  2  2  0
  5  1  1  0
  5  2  1  0
  5  4  2  0
  6  4  1  0
  7  3  1  0
  7  6  2  0
  8  6  1  0
  9  7  1  0
M  END
>  <NAME>  (1774) 
2-AMINO-4-METHYLPHENOL

>  <SYNONYMS>  (1774) 
2-HYDROXY-5-METHYLANILINE

>  <SPECTRUM TYPE>  (1774) 
MS1

>  <INSTRUMENT TYPE>  (1774) 
EI-B

>  <INSTRUMENT>  (1774) 
HITACHI M-80A

>  <ION MODE>  (1774) 
P

>  <INCHIKEY>  (1774) 
ZMXYNJXDULEQCK-UHFFFAOYSA-N

>  <FORMULA>  (1774) 
C7H9NO

>  <EXACT MASS>  (1774) 
123.068413908

>  <MW>  (1774) 
123

>  <ID>  (1774) 
JP009406

>  <CONTRIBUTOR>  (1774) 
University of Tokyo Team, {Faculty of Engineering, University of Tokyo

>  <COMMENT>  (1774) 
SMILES=Cc(c1)cc(N)c(O)c1
InChI=InChI=1S/C7H9NO/c1-5-2-3-7(9)6(8)4-5/h2-4,9H,8H2,1H3
computed SMILES=OC1=CC=C(C=C1N)C
accession=JP009406
date=2016.01.19 (Created 2008.10.21, modified 2011.05.06)
author=GUNMA COLLEGE OF TECHNOLOGY
license=CC BY-NC-SA
exact mass=123.06841
ionization energy=70 eV
ion type=[M]+*
computed spectral entropy=3.057050292744787
computed normalized entropy=0.8030788915381984
SPLASH=splash10-00di-9700000000-f27c2cd160e872ac856d
submitter=submitter = University of Tokyo Team (Faculty of Engineering, University of Tokyo)
MoNA Rating=3.75

>  <NUM PEAKS>  (1774) 
45

>  <MASS SPECTRAL PEAKS>  (1774) 
15 2.5
17 2.43
26 2.61
27 7.12
29 3.66
37 1.02
38 3.17
39 8.75
40 2.7
41 6.67
42 3.78
46 1.64
50 4.96
51 11.76
52 8.05
53 5.58
54 4.63
55 2.67
61 1.88
62 2.14
63 4.5
64 1.7
65 6.84
66 8.43
67 8.53
68 2.62
74 1.07
75 1.42
76 2.2
77 20.64
78 34.78
79 5.12
80 7.16
92 1.49
93 8.77
94 27.71
95 3.96
96 1.36
104 3.71
105 3.7
106 20.73
107 5.58
122 46.08
123 99.99
124 8.92

>  <PREDICTED SPECTRUM>  (1774) 
16 5
17 1
26 30
27 81
28 54
29 12
34 3
37 59
38 106
39 244
40 107
41 198
42 117
43 26
44 96
45 18
46 42
47 26
49 68
50 204
51 329
52 318
53 277
54 187
55 137
56 60
57 54
58 19
60 80
61 113
62 109
63 162
64 91
65 229
66 214
67 218
68 167
69 33
70 13
71 2
73 65
74 105
75 131
76 71
77 419
78 317
79 264
80 205
81 121
82 30
83 27
84 34
89 42
90 21
91 53
92 184
93 202
94 666
95 278
96 96
104 188
105 303
106 162
107 50
108 36
120 35
121 142
122 465
123 999
124 297
125 67

$$$$

     RDKit          2D

  7  6  0  0  0  0  0  0  0  0999 V2000
    1.6238    1.6875    0.0000 C   0  0  0  0  0  0  0  0  0  0  0  0
    0.3248    3.9375    0.0000 C   0  0  0  0  0  0  0  0  0  0  0  0
   -3.5724    1.6875    0.0000 C   0  0  0  0  0  0  0  0  0  0  0  0
   -2.2733    3.9375    0.0000 C   0  0  0  0  0  0  0  0  0  0  0  0
    0.3248    2.4375    0.0000 C   0  0  0  0  0  0  0  0  0  0  0  0
   -2.2733    2.4375    0.0000 C   0  0  0  0  0  0  0  0  0  0  0  0
   -0.9743    1.6875    0.0000 N   0  0  0  0  0  0  0  0  0  0  0  0
  5  1  1  0
  5  2  1  0
  6  3  1  0
  6  4  1  0
  7  5  1  0
  7  6  1  0
M  END
>  <NAME>  (1775) 
DIISOPROPYLAMINE

>  <SYNONYMS>  (1775) 
BIS(1-METHYLETHYL)AMINE

>  <SPECTRUM TYPE>  (1775) 
MS1

>  <INSTRUMENT TYPE>  (1775) 
EI-B

>  <INSTRUMENT>  (1775) 
HITACHI M-80A

>  <ION MODE>  (1775) 
P

>  <INCHIKEY>  (1775) 
UAOMVDZJSHZZME-UHFFFAOYSA-N

>  <FORMULA>  (1775) 
C6H15N

>  <EXACT MASS>  (1775) 
101.12044947999999

>  <MW>  (1775) 
101

>  <ID>  (1775) 
JP009405

>  <CONTRIBUTOR>  (1775) 
University of Tokyo Team, {Faculty of Engineering, University of Tokyo

>  <COMMENT>  (1775) 
SMILES=CC(C)NC(C)C
InChI=InChI=1S/C6H15N/c1-5(2)7-6(3)4/h5-7H,1-4H3
computed SMILES=N(C(C)C)C(C)C
accession=JP009405
date=2016.01.19 (Created 2008.10.21, modified 2011.05.06)
author=GUNMA COLLEGE OF TECHNOLOGY
license=CC BY-NC-SA
exact mass=101.12045
ionization energy=70 eV
ion type=[M]+*
computed spectral entropy=2.130310836967727
computed normalized entropy=0.6997192106623762
SPLASH=splash10-0006-9000000000-5c86e34e4ea923cb7518
submitter=submitter = University of Tokyo Team (Faculty of Engineering, University of Tokyo)
MoNA Rating=3.75

>  <NUM PEAKS>  (1775) 
21

>  <MASS SPECTRAL PEAKS>  (1775) 
14 1.52
15 9.09
18 4.13
27 9.1
28 3.02
30 2.9
32 3.31
39 5.39
41 10.1
42 12.1
43 9.45
44 99.99
45 2.56
56 1.54
58 7.19
70 1.94
86 33.51
87 2.04
100 1.07
101 3.44
102 3.65

>  <PREDICTED SPECTRUM>  (1775) 
15 25
25 9
26 15
27 157
28 183
29 71
30 254
37 13
38 47
39 287
40 161
41 398
42 432
43 477
44 999
45 134
52 25
54 141
55 69
56 272
57 82
58 344
59 88
70 145
71 71
82 46
84 244
85 96
86 883
87 205
100 179
101 405
102 74

$$$$

     RDKit          2D

 15 15  0  0  0  0  0  0  0  0999 V2000
   -7.7940    4.8196    0.0000 C   0  0  0  0  0  0  0  0  0  0  0  0
   -6.4949    2.5696    0.0000 C   0  0  0  0  0  0  0  0  0  0  0  0
    3.8974    2.5696    0.0000 C   0  0  0  0  0  0  0  0  0  0  0  0
    3.8978    4.0704    0.0000 C   0  0  0  0  0  0  0  0  0  0  0  0
    2.5978    1.8188    0.0000 C   0  0  0  0  0  0  0  0  0  0  0  0
    2.5988    4.8204    0.0000 C   0  0  0  0  0  0  0  0  0  0  0  0
    1.2988    2.5688    0.0000 C   0  0  0  0  0  0  0  0  0  0  0  0
   -5.1959    4.8196    0.0000 C   0  0  0  0  0  0  0  0  0  0  0  0
   -3.8969    4.0696    0.0000 C   0  0  0  0  0  0  0  0  0  0  0  0
    0.0002    4.8196    0.0000 C   0  0  0  0  0  0  0  0  0  0  0  0
   -6.4949    4.0696    0.0000 C   0  0  0  0  0  0  0  0  0  0  0  0
    1.2993    4.0696    0.0000 C   0  0  0  0  0  0  0  0  0  0  0  0
   -1.2988    4.0696    0.0000 C   0  0  0  0  0  0  0  0  0  0  0  0
   -1.2988    2.5696    0.0000 O   0  0  0  0  0  0  0  0  0  0  0  0
   -2.5978    4.8196    0.0000 O   0  0  0  0  0  0  0  0  0  0  0  0
  4  3  2  0
  5  3  1  0
  6  4  1  0
  7  5  2  0
  9  8  1  0
 11  1  1  0
 11  2  1  0
 11  8  1  0
 12  6  2  0
 12  7  1  0
 12 10  1  0
 13 10  1  0
 14 13  2  0
 15  9  1  0
 15 13  1  0
M  END
>  <NAME>  (1776) 
ISOPENTYL PHENYLACETATE

>  <SYNONYMS>  (1776) 
3-METHYLBUTYL PHENYLACETATE

>  <SPECTRUM TYPE>  (1776) 
MS1

>  <INSTRUMENT TYPE>  (1776) 
EI-B

>  <INSTRUMENT>  (1776) 
HITACHI M-80A

>  <ION MODE>  (1776) 
P

>  <INCHIKEY>  (1776) 
QWBQBUWZZBUFHN-UHFFFAOYSA-N

>  <FORMULA>  (1776) 
C13H18O2

>  <EXACT MASS>  (1776) 
206.130679816

>  <MW>  (1776) 
206

>  <ID>  (1776) 
JP009404

>  <CONTRIBUTOR>  (1776) 
University of Tokyo Team, {Faculty of Engineering, University of Tokyo

>  <COMMENT>  (1776) 
SMILES=CC(C)CCOC(=O)Cc(c1)cccc1
InChI=InChI=1S/C13H18O2/c1-11(2)8-9-15-13(14)10-12-6-4-3-5-7-12/h3-7,11H,8-10H2,1-2H3
computed SMILES=O=C(OCCC(C)C)CC=1C=CC=CC1
accession=JP009404
date=2016.01.19 (Created 2008.10.21, modified 2011.05.06)
author=GUNMA COLLEGE OF TECHNOLOGY
license=CC BY-NC-SA
exact mass=206.13068
ionization energy=70 eV
ion type=[M]+*
computed spectral entropy=2.616216336895803
computed normalized entropy=0.741902683696975
SPLASH=splash10-0006-9000000000-dcdd64feb66cdbfaff3e
submitter=submitter = University of Tokyo Team (Faculty of Engineering, University of Tokyo)
MoNA Rating=3.75

>  <NUM PEAKS>  (1776) 
34

>  <MASS SPECTRAL PEAKS>  (1776) 
15 1.08
27 6.15
29 6.8
39 12.67
40 1.56
41 22.67
42 4.65
43 99.99
44 4.36
50 1.78
51 4.68
52 2.06
53 2.06
55 17.79
56 1.52
57 2.24
62 1.38
63 6.58
64 2
65 25.99
66 1.48
69 2.4
70 53.79
71 23.53
72 1.28
77 1.21
89 4.3
90 3.51
91 73.99
92 16.22
93 1.03
119 2.1
136 8.06
137 2.28

>  <PREDICTED SPECTRUM>  (1776) 
26 31
27 142
28 10
29 137
38 16
39 185
40 90
41 307
42 149
43 640
44 75
45 18
50 50
51 119
52 74
53 65
54 5
55 257
56 40
57 79
62 38
63 170
64 139
65 300
66 71
68 29
69 47
70 450
71 625
72 40
73 15
75 5
77 27
78 42
79 35
89 205
90 259
91 999
92 425
93 130
115 89
118 55
119 215
120 1
136 251
137 223
138 57
206 240
207 77
208 25

$$$$

     RDKit          2D

  8  7  0  0  0  0  0  0  0  0999 V2000
    0.0000    0.0000    0.0000 C   0  0  0  0  0  0  0  0  0  0  0  0
    1.2990    2.2500    0.0000 C   0  0  0  0  0  0  0  0  0  0  0  0
   -1.2990    2.2500    0.0000 C   0  0  0  0  0  0  0  0  0  0  0  0
    0.0000    1.5000    0.0000 C   0  0  0  0  0  0  0  0  0  0  0  0
   -2.5981    4.5000    0.0000 C   0  0  0  0  0  0  0  0  0  0  0  0
   -2.5981    6.0000    0.0000 Cl  0  0  0  0  0  0  0  0  0  0  0  0
   -3.8971    3.7500    0.0000 O   0  0  0  0  0  0  0  0  0  0  0  0
   -1.2990    3.7500    0.0000 O   0  0  0  0  0  0  0  0  0  0  0  0
  4  1  1  0
  4  2  1  0
  4  3  1  0
  6  5  1  0
  7  5  2  0
  8  3  1  0
  8  5  1  0
M  END
>  <NAME>  (1777) 
ISOBUTYL CHLOROFORMATE

>  <SYNONYMS>  (1777) 
2-METHYLPROPYL CHLOROFORMATE

>  <SPECTRUM TYPE>  (1777) 
MS1

>  <INSTRUMENT TYPE>  (1777) 
EI-B

>  <INSTRUMENT>  (1777) 
HITACHI M-80A

>  <ION MODE>  (1777) 
P

>  <INCHIKEY>  (1777) 
YOETUEMZNOLGDB-UHFFFAOYSA-N

>  <FORMULA>  (1777) 
C5H9ClO2

>  <EXACT MASS>  (1777) 
136.029107208

>  <MW>  (1777) 
136

>  <ID>  (1777) 
JP009403

>  <CONTRIBUTOR>  (1777) 
University of Tokyo Team, {Faculty of Engineering, University of Tokyo

>  <COMMENT>  (1777) 
SMILES=CC(C)COC(=O)Cl
InChI=InChI=1S/C5H9ClO2/c1-4(2)3-8-5(6)7/h4H,3H2,1-2H3
computed SMILES=O=C(Cl)OCC(C)C
accession=JP009403
date=2016.01.19 (Created 2008.10.21, modified 2011.05.06)
author=GUNMA COLLEGE OF TECHNOLOGY
license=CC BY-NC-SA
exact mass=136.02911
ionization energy=70 eV
ion type=[M]+*
computed spectral entropy=2.7522234659431453
computed normalized entropy=0.7871349961527975
SPLASH=splash10-052f-9000000000-8e1b38400446eb9522ab
submitter=submitter = University of Tokyo Team (Faculty of Engineering, University of Tokyo)
MoNA Rating=3.75

>  <NUM PEAKS>  (1777) 
33

>  <MASS SPECTRAL PEAKS>  (1777) 
15 11.04
26 8.85
27 41.03
28 1.24
29 29.5
30 1.17
31 2.28
35 4.71
36 14.16
37 3.01
38 6
39 45.67
40 8.79
41 99.99
42 11.9
43 55.28
44 27.08
45 1.44
49 1.23
50 3.86
51 3.39
53 4.25
54 1.48
55 14.62
56 68.47
57 48.14
58 2.12
62 1.45
63 12.97
65 4.28
77 1.56
94 2.08
95 1.04

>  <PREDICTED SPECTRUM>  (1777) 
14 30
15 42
25 34
26 153
27 438
28 193
29 600
31 123
33 3
35 97
36 144
37 103
38 153
39 488
40 217
41 891
42 473
43 618
44 155
45 119
48 2
49 162
50 155
51 170
53 191
54 144
55 579
56 999
57 888
58 78
59 60
63 528
64 135
65 335
66 41
73 159
77 5
79 96
80 34
81 179
82 1
83 120
93 208
94 1
107 34

$$$$

     RDKit          2D

  9  9  0  0  0  0  0  0  0  0999 V2000
   -0.0008    0.7500    0.0000 C   0  0  0  0  0  0  0  0  0  0  0  0
    1.2992   -1.5000    0.0000 C   0  0  0  0  0  0  0  0  0  0  0  0
    1.2992    1.5000    0.0000 C   0  0  0  0  0  0  0  0  0  0  0  0
    2.5992   -0.7500    0.0000 C   0  0  0  0  0  0  0  0  0  0  0  0
   -1.2998   -1.5002    0.0000 C   0  0  0  0  0  0  0  0  0  0  0  0
   -0.0008   -0.7500    0.0000 C   0  0  0  0  0  0  0  0  0  0  0  0
    2.5992    0.7500    0.0000 C   0  0  0  0  0  0  0  0  0  0  0  0
    3.8981    1.5002    0.0000 F   0  0  0  0  0  0  0  0  0  0  0  0
   -2.5989   -0.7504    0.0000 O   0  0  0  0  0  0  0  0  0  0  0  0
  3  1  2  0
  4  2  1  0
  6  1  1  0
  6  2  2  0
  6  5  1  0
  7  3  1  0
  7  4  2  0
  8  7  1  0
  9  5  2  0
M  END
>  <NAME>  (1778) 
PARA-FLUOROBENZALDEHYDE

>  <SYNONYMS>  (1778) 


>  <SPECTRUM TYPE>  (1778) 
MS1

>  <INSTRUMENT TYPE>  (1778) 
EI-B

>  <INSTRUMENT>  (1778) 
HITACHI M-80A

>  <ION MODE>  (1778) 
P

>  <INCHIKEY>  (1778) 
UOQXIWFBQSVDPP-UHFFFAOYSA-N

>  <FORMULA>  (1778) 
C7H5FO

>  <EXACT MASS>  (1778) 
124.032443

>  <MW>  (1778) 
124

>  <ID>  (1778) 
JP009402

>  <CONTRIBUTOR>  (1778) 
University of Tokyo Team, {Faculty of Engineering, University of Tokyo

>  <COMMENT>  (1778) 
SMILES=O=Cc(c1)ccc(F)c1
InChI=InChI=1S/C7H5FO/c8-7-3-1-6(5-9)2-4-7/h1-5H
computed SMILES=O=CC1=CC=C(F)C=C1
accession=JP009402
date=2016.01.19 (Created 2008.10.21, modified 2011.05.06)
author=GUNMA COLLEGE OF TECHNOLOGY
license=CC BY-NC-SA
exact mass=124.03244
ionization energy=70 eV
ion type=[M]+*
computed spectral entropy=2.855522858633961
computed normalized entropy=0.7639848221645233
SPLASH=splash10-00dj-9400000000-bccc26b19ce9ece9604e
submitter=submitter = University of Tokyo Team (Faculty of Engineering, University of Tokyo)
MoNA Rating=3.75

>  <NUM PEAKS>  (1778) 
42

>  <MASS SPECTRAL PEAKS>  (1778) 
18 1.17
26 2.62
27 2.44
29 18.18
31 6.31
36 1.11
37 8.01
38 7.43
39 7.63
43 3.11
44 1.26
45 2.02
48 2.04
49 5.23
50 29.7
51 14.75
52 2.09
53 1.24
56 2
57 6.76
61 5.16
62 5.61
63 6.3
68 8.68
69 13.63
70 13.26
73 3.72
74 15.96
75 44.71
76 5.5
77 1.76
81 1.96
92 2
93 2.33
94 6.91
95 91.74
96 20.06
97 1.32
109 2.19
123 99.99
124 93.32
125 8.35

>  <PREDICTED SPECTRUM>  (1778) 
14 19
16 8
25 35
26 87
27 101
28 140
29 244
31 209
32 3
33 23
36 50
37 169
38 201
39 154
40 68
41 104
42 24
44 73
47 66
48 96
49 211
50 406
51 315
52 84
53 20
56 127
57 327
60 47
61 257
62 302
63 383
64 83
65 35
68 281
69 297
70 217
73 76
74 291
75 448
76 255
77 126
81 167
86 38
87 10
92 64
93 125
94 221
95 732
96 383
97 114
122 153
123 999
124 851
125 292
126 31

$$$$

     RDKit          2D

  7  6  0  0  0  0  0  0  0  0999 V2000
   -0.5993    2.0625    0.0000 C   0  0  0  0  0  0  0  0  0  0  0  0
    0.6998    1.3125    0.0000 C   0  0  0  0  0  0  0  0  0  0  0  0
    1.4498    2.6115    0.0000 F   0  0  0  0  0  0  0  0  0  0  0  0
   -0.0502    0.0135    0.0000 F   0  0  0  0  0  0  0  0  0  0  0  0
    1.9988    0.5625    0.0000 F   0  0  0  0  0  0  0  0  0  0  0  0
   -0.5993    3.5625    0.0000 O   0  0  0  0  0  0  0  0  0  0  0  0
   -1.8983    1.3125    0.0000 O   0  0  0  0  0  0  0  0  0  0  0  0
  2  1  1  0
  3  2  1  0
  4  2  1  0
  5  2  1  0
  6  1  2  0
  7  1  1  0
M  END
>  <NAME>  (1779) 
TRIFLUOROACETIC ACID

>  <SYNONYMS>  (1779) 


>  <SPECTRUM TYPE>  (1779) 
MS1

>  <INSTRUMENT TYPE>  (1779) 
EI-B

>  <INSTRUMENT>  (1779) 
HITACHI M-80A

>  <ION MODE>  (1779) 
P

>  <INCHIKEY>  (1779) 
DTQVDTLACAAQTR-UHFFFAOYSA-N

>  <FORMULA>  (1779) 
C2HF3O2

>  <EXACT MASS>  (1779) 
113.992863932

>  <MW>  (1779) 
114

>  <ID>  (1779) 
JP009401

>  <CONTRIBUTOR>  (1779) 
University of Tokyo Team, {Faculty of Engineering, University of Tokyo

>  <COMMENT>  (1779) 
SMILES=OC(=O)C(F)(F)F
InChI=InChI=1S/C2HF3O2/c3-2(4,5)1(6)7/h(H,6,7)
computed SMILES=O=C(O)C(F)(F)F
accession=JP009401
date=2016.01.19 (Created 2008.10.21, modified 2011.05.06)
author=GUNMA COLLEGE OF TECHNOLOGY
license=CC BY-NC-SA
exact mass=113.99286
ionization energy=70 eV
ion type=[M]+*
computed spectral entropy=1.9375950461004887
computed normalized entropy=0.6703618802000819
SPLASH=splash10-0fr2-9000000000-aed48110ad973f60f967
submitter=submitter = University of Tokyo Team (Faculty of Engineering, University of Tokyo)
MoNA Rating=3.75

>  <NUM PEAKS>  (1779) 
18

>  <MASS SPECTRAL PEAKS>  (1779) 
17 2.98
18 3.4
29 6.88
31 13.24
44 5.09
45 99.99
46 1.17
47 2.35
50 21.76
51 43.28
67 1.06
69 73.85
70 2.56
78 2.16
86 1.69
95 6.41
97 3.96
114 1.06

>  <PREDICTED SPECTRUM>  (1779) 
14 64
15 130
16 58
17 83
18 60
19 121
27 113
28 142
29 368
30 56
31 282
32 83
36 44
37 115
38 294
42 40
43 56
44 45
45 803
46 271
47 313
48 49
49 412
50 486
51 373
52 99
53 37
65 48
66 211
67 298
68 246
69 999
70 145
76 11
81 218
87 59
94 473
95 118
96 22
97 428
114 296

$$$$

     RDKit          2D

  9  9  0  0  0  0  0  0  0  0999 V2000
    2.9228   -0.2425    0.0000 C   0  0  0  0  0  0  0  0  0  0  0  0
    2.9233    1.2583    0.0000 C   0  0  0  0  0  0  0  0  0  0  0  0
    1.6233   -0.9933    0.0000 C   0  0  0  0  0  0  0  0  0  0  0  0
    1.6243    2.0083    0.0000 C   0  0  0  0  0  0  0  0  0  0  0  0
    0.3243   -0.2433    0.0000 C   0  0  0  0  0  0  0  0  0  0  0  0
   -0.9743    2.0075    0.0000 C   0  0  0  0  0  0  0  0  0  0  0  0
   -2.2733    1.2575    0.0000 C   0  0  0  0  0  0  0  0  0  0  0  0
    0.3248    1.2575    0.0000 C   0  0  0  0  0  0  0  0  0  0  0  0
   -3.5724    2.0075    0.0000 N   0  0  0  0  0  0  0  0  0  0  0  0
  2  1  2  0
  3  1  1  0
  4  2  1  0
  5  3  2  0
  7  6  1  0
  8  4  2  0
  8  5  1  0
  8  6  1  0
  9  7  1  0
M  END
>  <NAME>  (1780) 
2-PHENYLETHYLAMINE

>  <SYNONYMS>  (1780) 


>  <SPECTRUM TYPE>  (1780) 
MS1

>  <INSTRUMENT TYPE>  (1780) 
EI-B

>  <INSTRUMENT>  (1780) 
HITACHI M-80A

>  <ION MODE>  (1780) 
P

>  <INCHIKEY>  (1780) 
BHHGXPLMPWCGHP-UHFFFAOYSA-N

>  <FORMULA>  (1780) 
C8H11N

>  <EXACT MASS>  (1780) 
121.08914935199999

>  <MW>  (1780) 
121

>  <ID>  (1780) 
JP009400

>  <CONTRIBUTOR>  (1780) 
University of Tokyo Team, {Faculty of Engineering, University of Tokyo

>  <COMMENT>  (1780) 
SMILES=NCCc(c1)cccc1
InChI=InChI=1S/C8H11N/c9-7-6-8-4-2-1-3-5-8/h1-5H,6-7,9H2
computed SMILES=NCCC=1C=CC=CC1
accession=JP009400
date=2016.01.19 (Created 2008.10.21, modified 2011.05.06)
author=GUNMA COLLEGE OF TECHNOLOGY
license=CC BY-NC-SA
exact mass=121.08915
ionization energy=70 eV
ion type=[M]+*
computed spectral entropy=2.621814943513928
computed normalized entropy=0.7060089036701301
SPLASH=splash10-053r-9000000000-f312ab6fe99f8eca86e7
submitter=submitter = University of Tokyo Team (Faculty of Engineering, University of Tokyo)
MoNA Rating=3.75

>  <NUM PEAKS>  (1780) 
41

>  <MASS SPECTRAL PEAKS>  (1780) 
15 9.26
26 1.78
27 8.76
28 5.08
29 5.8
30 99.99
31 2.13
38 1.61
39 7.69
40 1.75
41 23.98
42 14.74
43 8.48
44 7.99
45 9.12
50 2.35
51 3.19
52 1.31
53 1.05
54 1.13
55 1.03
56 4.41
57 1.45
58 91.36
59 4.19
63 2.26
65 4.83
66 1.67
70 1.21
73 2.37
74 12.39
76 1.2
77 2.06
86 3.21
91 6.52
92 2.39
94 3.07
105 1.07
106 1.12
107 1.01
121 2.14

>  <PREDICTED SPECTRUM>  (1780) 
14 8
15 59
18 18
26 26
27 129
28 197
29 154
30 999
31 76
37 10
38 57
39 173
40 38
41 46
42 77
43 11
44 27
50 74
51 169
52 83
53 5
54 4
57 38
62 57
63 133
64 30
65 199
66 4
75 32
76 14
77 175
78 118
79 41
89 107
90 82
91 512
92 279
93 100
103 108
104 74
115 93
118 48
120 14
121 140
122 51

$$$$

     RDKit          2D

  7  6  0  0  0  0  0  0  0  0999 V2000
    1.9486    2.6250    0.0000 C   0  0  0  0  0  0  0  0  0  0  0  0
   -4.5466    3.3750    0.0000 C   0  0  0  0  0  0  0  0  0  0  0  0
    0.6495    3.3750    0.0000 C   0  0  0  0  0  0  0  0  0  0  0  0
   -1.9486    3.3750    0.0000 C   0  0  0  0  0  0  0  0  0  0  0  0
   -0.6495    2.6250    0.0000 C   0  0  0  0  0  0  0  0  0  0  0  0
   -0.6495    1.1250    0.0000 N   0  0  0  0  0  0  0  0  0  0  0  0
   -3.2476    2.6250    0.0000 O   0  0  0  0  0  0  0  0  0  0  0  0
  3  1  1  0
  5  3  1  0
  5  4  1  0
  6  5  1  0
  7  2  1  0
  7  4  1  0
M  END
>  <NAME>  (1781) 
2-AMINO-1-METHOXYBUTANE

>  <SYNONYMS>  (1781) 


>  <SPECTRUM TYPE>  (1781) 
MS1

>  <INSTRUMENT TYPE>  (1781) 
EI-B

>  <INSTRUMENT>  (1781) 
HITACHI M-80A

>  <ION MODE>  (1781) 
P

>  <INCHIKEY>  (1781) 
QAFODUGVXFNLBE-UHFFFAOYSA-N

>  <FORMULA>  (1781) 
C5H13NO

>  <EXACT MASS>  (1781) 
103.099714036

>  <MW>  (1781) 
103

>  <ID>  (1781) 
JP009399

>  <CONTRIBUTOR>  (1781) 
University of Tokyo Team, {Faculty of Engineering, University of Tokyo

>  <COMMENT>  (1781) 
SMILES=CCC(N)COC
InChI=InChI=1S/C5H13NO/c1-3-5(6)4-7-2/h5H,3-4,6H2,1-2H3
computed SMILES=O(C)CC(N)CC
accession=JP009399
date=2016.01.19 (Created 2008.10.21, modified 2011.05.06)
author=GUNMA COLLEGE OF TECHNOLOGY
license=CC BY-NC-SA
exact mass=103.09971
ionization energy=70 eV
ion type=[M]+*
computed spectral entropy=2.8081407393619764
computed normalized entropy=0.8102581437591581
SPLASH=splash10-0a4i-9000000000-cefd1378e618fe975e11
submitter=submitter = University of Tokyo Team (Faculty of Engineering, University of Tokyo)
MoNA Rating=3.75

>  <NUM PEAKS>  (1781) 
32

>  <MASS SPECTRAL PEAKS>  (1781) 
15 12.03
17 8.5
18 34.51
26 2
27 12.74
28 9.15
29 9.89
30 33.42
31 9.75
39 3.77
40 1.1
41 25.26
42 16.19
43 9.84
44 10.55
45 13.61
47 2.59
54 1.3
55 1.4
56 5.69
57 2.53
58 99.99
59 15.72
70 1.95
71 1.42
72 1.33
74 11.86
75 2.46
86 21.72
87 1.4
100 1.34
101 3.97

>  <PREDICTED SPECTRUM>  (1781) 
14 22
15 112
16 2
18 25
26 57
27 213
28 267
29 258
30 367
31 266
32 41
33 76
38 1
39 154
40 73
41 421
42 519
43 473
44 463
45 619
46 172
47 16
52 57
53 73
54 121
55 107
56 318
57 339
58 523
59 242
60 177
70 109
71 209
72 561
73 360
74 999
75 287
76 77
88 111
102 81

$$$$

     RDKit          2D

  6  5  0  0  0  0  0  0  0  0999 V2000
   -0.0000   -0.0000    0.0000 C   0  0  0  0  0  0  0  0  0  0  0  0
   -1.2990    3.7500    0.0000 C   0  0  0  0  0  0  0  0  0  0  0  0
   -0.0000    1.5000    0.0000 C   0  0  0  0  0  0  0  0  0  0  0  0
   -1.2990    2.2500    0.0000 C   0  0  0  0  0  0  0  0  0  0  0  0
    1.2990    2.2500    0.0000 O   0  0  0  0  0  0  0  0  0  0  0  0
   -2.5981    1.5000    0.0000 O   0  0  0  0  0  0  0  0  0  0  0  0
  3  1  1  0
  4  2  1  0
  4  3  1  0
  5  3  1  0
  6  4  1  0
M  END
>  <NAME>  (1782) 
2,3-BUTANEDIOL

>  <SYNONYMS>  (1782) 


>  <SPECTRUM TYPE>  (1782) 
MS1

>  <INSTRUMENT TYPE>  (1782) 
EI-B

>  <INSTRUMENT>  (1782) 
HITACHI M-80A

>  <ION MODE>  (1782) 
P

>  <INCHIKEY>  (1782) 
OWBTYPJTUOEWEK-UHFFFAOYSA-N

>  <FORMULA>  (1782) 
C4H10O2

>  <EXACT MASS>  (1782) 
90.06807956

>  <MW>  (1782) 
90

>  <ID>  (1782) 
JP009398

>  <CONTRIBUTOR>  (1782) 
University of Tokyo Team, {Faculty of Engineering, University of Tokyo

>  <COMMENT>  (1782) 
SMILES=CC(O)C(C)O
InChI=InChI=1S/C4H10O2/c1-3(5)4(2)6/h3-6H,1-2H3
computed SMILES=OC(C)C(O)C
accession=JP009398
date=2016.01.19 (Created 2008.10.21, modified 2011.05.06)
author=GUNMA COLLEGE OF TECHNOLOGY
license=CC BY-NC-SA
exact mass=90.06808
ionization energy=70 eV
ion type=[M]+*
computed spectral entropy=2.0289155941673327
computed normalized entropy=0.6772686638517019
SPLASH=splash10-0002-9000000000-39d2dfc0a50d8ba018c7
submitter=submitter = University of Tokyo Team (Faculty of Engineering, University of Tokyo)
MoNA Rating=3.75

>  <NUM PEAKS>  (1782) 
20

>  <MASS SPECTRAL PEAKS>  (1782) 
15 5.01
17 2.59
18 10.97
19 5.95
26 1.9
27 11.12
29 10.29
31 3.25
39 1.4
41 1.37
42 2.59
43 15.53
44 5.09
45 99.99
46 3.51
47 4.92
55 1.93
57 8.94
75 2.53
90 1.01

>  <PREDICTED SPECTRUM>  (1782) 
14 26
15 95
16 6
17 10
18 18
19 71
25 17
26 105
27 284
28 200
29 227
31 209
33 21
38 18
39 141
40 10
41 79
43 344
44 240
45 999
46 206
47 68
57 58
73 47
75 109

$$$$

     RDKit          2D

  7  6  0  0  0  0  0  0  0  0999 V2000
    1.9486    2.6250    0.0000 C   0  0  0  0  0  0  0  0  0  0  0  0
    0.6495    3.3750    0.0000 C   0  0  0  0  0  0  0  0  0  0  0  0
   -3.2476    2.6250    0.0000 C   0  0  0  0  0  0  0  0  0  0  0  0
   -1.9486    3.3750    0.0000 C   0  0  0  0  0  0  0  0  0  0  0  0
   -4.5466    3.3750    0.0000 Cl  0  0  0  0  0  0  0  0  0  0  0  0
   -1.9486    4.8750    0.0000 O   0  0  0  0  0  0  0  0  0  0  0  0
   -0.6495    2.6250    0.0000 O   0  0  0  0  0  0  0  0  0  0  0  0
  2  1  1  0
  4  3  1  0
  5  3  1  0
  6  4  2  0
  7  2  1  0
  7  4  1  0
M  END
>  <NAME>  (1783) 
ETHYL CHLOROACETATE

>  <SYNONYMS>  (1783) 


>  <SPECTRUM TYPE>  (1783) 
MS1

>  <INSTRUMENT TYPE>  (1783) 
EI-B

>  <INSTRUMENT>  (1783) 
HITACHI M-80A

>  <ION MODE>  (1783) 
P

>  <INCHIKEY>  (1783) 
VEUUMBGHMNQHGO-UHFFFAOYSA-N

>  <FORMULA>  (1783) 
C4H7ClO2

>  <EXACT MASS>  (1783) 
122.013457144

>  <MW>  (1783) 
122

>  <ID>  (1783) 
JP009396

>  <CONTRIBUTOR>  (1783) 
University of Tokyo Team, {Faculty of Engineering, University of Tokyo

>  <COMMENT>  (1783) 
SMILES=CCOC(=O)CCl
InChI=InChI=1S/C4H7ClO2/c1-2-7-4(6)3-5/h2-3H2,1H3
computed SMILES=O=C(OCC)CCl
accession=JP009396
date=2016.01.19 (Created 2008.10.21, modified 2011.05.06)
author=GUNMA COLLEGE OF TECHNOLOGY
license=CC BY-NC-SA
exact mass=122.01346
ionization energy=70 eV
ion type=[M]+*
computed spectral entropy=2.2083321432670764
computed normalized entropy=0.6777982535189434
SPLASH=splash10-004i-9000000000-78ea053650de1feba7a8
submitter=submitter = University of Tokyo Team (Faculty of Engineering, University of Tokyo)
MoNA Rating=3.75

>  <NUM PEAKS>  (1783) 
26

>  <MASS SPECTRAL PEAKS>  (1783) 
15 3.59
18 1.49
26 4.24
27 25.56
29 99.99
30 2.18
31 2.29
41 1.11
42 11.84
43 4.48
45 4.63
47 1.35
48 2.31
49 18.82
50 1.31
51 6.07
60 1.03
73 1.56
76 1.26
77 27.81
78 1.08
79 8.99
94 3.54
95 1.77
96 1.18
106 1.62

>  <PREDICTED SPECTRUM>  (1783) 
14 89
15 200
16 18
25 42
26 282
27 656
28 335
29 999
30 291
31 221
32 39
33 68
35 57
36 179
40 113
41 276
42 644
43 583
44 242
45 496
46 208
47 128
48 56
49 570
50 252
51 436
52 227
53 106
54 127
55 90
56 0
57 5
58 124
59 204
60 103
64 12
73 462
76 148
77 834
78 225
79 516
80 72
81 159
87 58
93 162
94 199
95 409
96 108
122 13

$$$$

     RDKit          2D

  7  6  0  0  0  0  0  0  0  0999 V2000
    1.2990    2.2500    0.0000 C   0  0  0  0  0  0  0  0  0  0  0  0
   -3.8971    2.2500    0.0000 C   0  0  0  0  0  0  0  0  0  0  0  0
   -0.0000    0.0000    0.0000 C   0  0  0  0  0  0  0  0  0  0  0  0
    0.0000    3.0000    0.0000 C   0  0  0  0  0  0  0  0  0  0  0  0
   -2.5981    3.0000    0.0000 C   0  0  0  0  0  0  0  0  0  0  0  0
   -1.2990    0.7500    0.0000 C   0  0  0  0  0  0  0  0  0  0  0  0
   -1.2990    2.2500    0.0000 N   0  0  0  0  0  0  0  0  0  0  0  0
  4  1  1  0
  5  2  1  0
  6  3  1  0
  7  4  1  0
  7  5  1  0
  7  6  1  0
M  END
>  <NAME>  (1784) 
TRIETHYLAMINE

>  <SYNONYMS>  (1784) 


>  <SPECTRUM TYPE>  (1784) 
MS1

>  <INSTRUMENT TYPE>  (1784) 
EI-B

>  <INSTRUMENT>  (1784) 
HITACHI M-80A

>  <ION MODE>  (1784) 
P

>  <INCHIKEY>  (1784) 
ZMANZCXQSJIPKH-UHFFFAOYSA-N

>  <FORMULA>  (1784) 
C6H15N

>  <EXACT MASS>  (1784) 
101.12044947999999

>  <MW>  (1784) 
101

>  <ID>  (1784) 
JP009395

>  <CONTRIBUTOR>  (1784) 
University of Tokyo Team, {Faculty of Engineering, University of Tokyo

>  <COMMENT>  (1784) 
SMILES=CCN(CC)CC
InChI=InChI=1S/C6H15N/c1-4-7(5-2)6-3/h4-6H2,1-3H3
computed SMILES=N(CC)(CC)CC
accession=JP009395
date=2016.01.19 (Created 2008.10.21, modified 2011.05.06)
author=GUNMA COLLEGE OF TECHNOLOGY
license=CC BY-NC-SA
exact mass=101.12045
ionization energy=70 eV
ion type=[M]+*
computed spectral entropy=2.4708448910134106
computed normalized entropy=0.7774710633969636
SPLASH=splash10-000i-9000000000-5ac6f611cfc4eb91767d
submitter=submitter = University of Tokyo Team (Faculty of Engineering, University of Tokyo)
MoNA Rating=3.75

>  <NUM PEAKS>  (1784) 
24

>  <MASS SPECTRAL PEAKS>  (1784) 
15 6.43
18 3.19
26 2.76
27 18.75
28 11.13
29 19.41
30 34.44
39 1.34
41 3.95
42 16.1
43 2.34
44 12.65
54 1.71
56 7.85
57 2.16
58 25.39
70 3.43
71 1.38
72 2.95
86 99.99
87 5.9
100 5.81
101 19.15
102 1.59

>  <PREDICTED SPECTRUM>  (1784) 
14 50
15 197
16 3
17 17
18 54
25 17
26 143
27 476
28 390
29 601
30 649
31 123
32 40
38 42
39 182
40 118
41 366
42 437
43 221
44 320
45 15
46 5
54 180
55 101
56 401
57 195
58 552
67 62
70 172
71 21
72 348
73 197
74 14
82 29
86 999
87 238
88 41
100 113
101 312
102 88

$$$$

     RDKit          2D

  8  8  0  0  0  0  0  0  0  0999 V2000
   -2.9228    0.8825    0.0000 C   0  0  0  0  0  0  0  0  0  0  0  0
    2.2733   -0.6175    0.0000 C   0  0  0  0  0  0  0  0  0  0  0  0
    0.9738   -1.3683    0.0000 C   0  0  0  0  0  0  0  0  0  0  0  0
    2.2738    0.8833    0.0000 C   0  0  0  0  0  0  0  0  0  0  0  0
   -0.3252   -0.6183    0.0000 C   0  0  0  0  0  0  0  0  0  0  0  0
    0.9748    1.6333    0.0000 C   0  0  0  0  0  0  0  0  0  0  0  0
   -0.3248    0.8825    0.0000 C   0  0  0  0  0  0  0  0  0  0  0  0
   -1.6238    1.6325    0.0000 N   0  0  0  0  0  0  0  0  0  0  0  0
  3  2  2  0
  4  2  1  0
  5  3  1  0
  6  4  2  0
  7  5  2  0
  7  6  1  0
  8  1  1  0
  8  7  1  0
M  END
>  <NAME>  (1785) 
N-METHYLANILINE

>  <SYNONYMS>  (1785) 


>  <SPECTRUM TYPE>  (1785) 
MS1

>  <INSTRUMENT TYPE>  (1785) 
EI-B

>  <INSTRUMENT>  (1785) 
HITACHI M-80A

>  <ION MODE>  (1785) 
P

>  <INCHIKEY>  (1785) 
AFBPFSWMIHJQDM-UHFFFAOYSA-N

>  <FORMULA>  (1785) 
C7H9N

>  <EXACT MASS>  (1785) 
107.073499288

>  <MW>  (1785) 
107

>  <ID>  (1785) 
JP009394

>  <CONTRIBUTOR>  (1785) 
University of Tokyo Team, {Faculty of Engineering, University of Tokyo

>  <COMMENT>  (1785) 
SMILES=CNc(c1)cccc1
InChI=InChI=1S/C7H9N/c1-8-7-5-3-2-4-6-7/h2-6,8H,1H3
computed SMILES=C=1C=CC(=CC1)NC
accession=JP009394
date=2016.01.19 (Created 2008.10.21, modified 2011.05.06)
author=GUNMA COLLEGE OF TECHNOLOGY
license=CC BY-NC-SA
exact mass=107.0735
ionization energy=70 eV
ion type=[M]+*
computed spectral entropy=2.6631660174260485
computed normalized entropy=0.7269335894046
SPLASH=splash10-0a4i-8900000000-cbdbd95e115ae809ed94
submitter=submitter = University of Tokyo Team (Faculty of Engineering, University of Tokyo)
MoNA Rating=3.75

>  <NUM PEAKS>  (1785) 
39

>  <MASS SPECTRAL PEAKS>  (1785) 
15 4.87
26 1.87
27 4.64
28 5.9
29 1.42
30 5.44
37 2.46
38 5.71
39 15.96
40 2.07
41 1.75
42 1.26
49 1.05
50 10.25
51 19.84
52 7.62
53 5.21
54 1.59
61 1
62 1.99
63 5.31
64 4.07
65 12.62
66 2.51
74 3.16
75 1.87
76 1.98
77 27.07
78 10.03
79 14.88
80 1.99
91 1.79
92 3.06
93 1.42
104 3.57
105 1.41
106 99.13
107 99.99
108 8.11

>  <PREDICTED SPECTRUM>  (1785) 
15 11
26 5
27 38
28 92
30 58
37 8
38 36
39 136
42 28
50 144
51 332
52 141
53 13
62 44
63 180
64 92
65 225
66 106
74 86
75 93
76 72
77 591
78 343
79 265
80 87
89 140
90 57
91 170
92 215
93 152
104 419
105 261
106 902
107 999
108 248

$$$$

     RDKit          2D

  6  6  0  0  0  0  0  0  0  0999 V2000
    2.0279    0.1311    0.0000 C   0  0  0  0  0  0  0  0  0  0  0  0
    1.2779   -1.1679    0.0000 C   0  0  0  0  0  0  0  0  0  0  0  0
    0.9958    1.2235    0.0000 C   0  0  0  0  0  0  0  0  0  0  0  0
   -0.1745   -0.8836    0.0000 C   0  0  0  0  0  0  0  0  0  0  0  0
   -0.3540    0.6056    0.0000 C   0  0  0  0  0  0  0  0  0  0  0  0
   -1.6625    1.3389    0.0000 O   0  0  0  0  0  0  0  0  0  0  0  0
  2  1  1  0
  3  1  2  0
  4  2  1  0
  5  3  1  0
  5  4  1  0
  6  5  2  0
M  END
>  <NAME>  (1786) 
2-CYCLOPENTEN-1-ONE

>  <SYNONYMS>  (1786) 


>  <SPECTRUM TYPE>  (1786) 
MS1

>  <INSTRUMENT TYPE>  (1786) 
EI-B

>  <INSTRUMENT>  (1786) 
HITACHI M-80A

>  <ION MODE>  (1786) 
P

>  <INCHIKEY>  (1786) 
BZKFMUIJRXWWQK-UHFFFAOYSA-N

>  <FORMULA>  (1786) 
C5H6O

>  <EXACT MASS>  (1786) 
82.041864812

>  <MW>  (1786) 
82

>  <ID>  (1786) 
JP009393

>  <CONTRIBUTOR>  (1786) 
University of Tokyo Team, {Faculty of Engineering, University of Tokyo

>  <COMMENT>  (1786) 
SMILES=O=C(C1)C=CC1
InChI=InChI=1S/C5H6O/c6-5-3-1-2-4-5/h1,3H,2,4H2
computed SMILES=O=C1C=CCC1
accession=JP009393
date=2016.01.19 (Created 2008.10.21, modified 2011.05.06)
author=GUNMA COLLEGE OF TECHNOLOGY
license=CC BY-NC-SA
exact mass=82.04186
ionization energy=70 eV
ion type=[M]+*
computed spectral entropy=2.5973621288152677
computed normalized entropy=0.7880736318008817
SPLASH=splash10-0ugr-9000000000-2497ac0a9ea1814cf8fa
submitter=submitter = University of Tokyo Team (Faculty of Engineering, University of Tokyo)
MoNA Rating=3.75

>  <NUM PEAKS>  (1786) 
27

>  <MASS SPECTRAL PEAKS>  (1786) 
13 1.21
15 2.97
18 5.7
25 3.77
26 31.69
27 48.22
29 3.71
36 1.15
37 7.67
38 10.61
39 99.99
40 4.41
41 2.6
42 6.18
43 2.4
49 4.75
50 16.51
51 15.14
52 7.6
53 45.33
54 49.3
55 18.74
56 8.23
61 1.2
81 12.58
82 96.03
83 6.04

>  <PREDICTED SPECTRUM>  (1786) 
14 72
15 50
16 14
18 15
19 14
25 165
26 448
27 766
28 486
29 509
30 29
36 85
37 300
38 430
39 999
40 504
41 624
42 358
43 170
44 74
49 180
50 338
51 441
52 360
53 678
54 869
55 287
61 87
62 117
63 197
64 118
65 171
66 32
67 325
68 170
81 345
82 951
83 259

$$$$

     RDKit          2D

  6  5  0  0  0  0  0  0  0  0999 V2000
    0.0502    1.3125    0.0000 C   0  0  0  0  0  0  0  0  0  0  0  0
    0.8002    0.0135    0.0000 H   0  0  0  0  0  0  0  0  0  0  0  0
   -0.6998    2.6115    0.0000 H   0  0  0  0  0  0  0  0  0  0  0  0
   -1.2488    0.5625    0.0000 H   0  0  0  0  0  0  0  0  0  0  0  0
    1.3493    2.0625    0.0000 O   0  0  0  0  0  0  0  0  0  0  0  0
    1.3493    3.5625    0.0000 H   0  0  0  0  0  0  0  0  0  0  0  0
  1  2  1  0
  1  3  1  0
  1  4  1  0
  5  6  1  0
  5  1  1  0
M  ISO  4   2   2   3   2   4   2   6   2
M  END
>  <NAME>  (1787) 
METHANOL (D4)

>  <SYNONYMS>  (1787) 
METHYL ALCOHOL (D4)

>  <SPECTRUM TYPE>  (1787) 
MS1

>  <INSTRUMENT TYPE>  (1787) 
EI-B

>  <INSTRUMENT>  (1787) 
HITACHI M-80A

>  <ION MODE>  (1787) 
P

>  <INCHIKEY>  (1787) 
OKKJLVBELUTLKV-MZCSYVLQSA-N

>  <FORMULA>  (1787) 
CH4O

>  <EXACT MASS>  (1787) 
36.051321732

>  <MW>  (1787) 
36

>  <ID>  (1787) 
JP009391

>  <CONTRIBUTOR>  (1787) 
University of Tokyo Team, {Faculty of Engineering, University of Tokyo

>  <COMMENT>  (1787) 
SMILES=[2H]C([2H])([2H])O[2H]
InChI=InChI=1S/CH4O/c1-2/h2H,1H3/i1D3,2D
computed SMILES=[H]OC([H])([H])[H]
accession=JP009391
date=2016.01.19 (Created 2008.10.21, modified 2011.05.06)
author=GUNMA COLLEGE OF TECHNOLOGY
license=CC BY-NC-SA
exact mass=32.02621
ionization energy=70 eV
ion type=[M]+*
computed spectral entropy=1.6906612899257838
computed normalized entropy=0.6803721540485324
SPLASH=splash10-001i-9000000000-14ea8d185227ede9bff7
submitter=submitter = University of Tokyo Team (Faculty of Engineering, University of Tokyo)
MoNA Rating=3.75

>  <NUM PEAKS>  (1787) 
12

>  <MASS SPECTRAL PEAKS>  (1787) 
2 1.33
4 1.35
18 38.99
20 1.36
28 1
30 53.09
33 6.96
34 99.99
35 6.13
36 64.52
37 1.69
38 8.09

>  <PREDICTED SPECTRUM>  (1787) 
4 159
15 70
16 66
17 313
19 28
31 82
32 307
33 273
34 999
35 131
36 938
37 38
38 62

$$$$

     RDKit          2D

 11 11  0  0  0  0  0  0  0  0999 V2000
   -1.6700   -0.9600    0.0000 C   0  0  0  0  0  0  0  0  0  0  0  0
   -1.6700    0.5400    0.0000 C   0  0  0  0  0  0  0  0  0  0  0  0
   -0.3700   -1.7100    0.0000 C   0  0  0  0  0  0  0  0  0  0  0  0
   -0.3700    1.2900    0.0000 C   0  0  0  0  0  0  0  0  0  0  0  0
    0.9300   -0.9600    0.0000 C   0  0  0  0  0  0  0  0  0  0  0  0
    3.5281    0.5404    0.0000 C   0  0  0  0  0  0  0  0  0  0  0  0
    0.9300    0.5400    0.0000 C   0  0  0  0  0  0  0  0  0  0  0  0
    4.8270    1.2906    0.0000 C   0  0  0  0  0  0  0  0  0  0  0  0
    6.1262    0.5408    0.0000 Cl  0  0  0  0  0  0  0  0  0  0  0  0
    4.8268    2.7906    0.0000 O   0  0  0  0  0  0  0  0  0  0  0  0
    2.2289    1.2902    0.0000 O   0  0  0  0  0  0  0  0  0  0  0  0
  2  1  2  0
  3  1  1  0
  4  2  1  0
  5  3  2  0
  7  4  2  0
  7  5  1  0
  8  6  1  0
  9  8  1  0
 10  8  2  0
 11  6  1  0
 11  7  1  0
M  END
>  <NAME>  (1788) 
PHENOXYACETYL CHLORIDE

>  <SYNONYMS>  (1788) 


>  <SPECTRUM TYPE>  (1788) 
MS1

>  <INSTRUMENT TYPE>  (1788) 
EI-B

>  <INSTRUMENT>  (1788) 
HITACHI M-80A

>  <ION MODE>  (1788) 
P

>  <INCHIKEY>  (1788) 
PKUPAJQAJXVUEK-UHFFFAOYSA-N

>  <FORMULA>  (1788) 
C8H7ClO2

>  <EXACT MASS>  (1788) 
170.013457144

>  <MW>  (1788) 
170

>  <ID>  (1788) 
JP009390

>  <CONTRIBUTOR>  (1788) 
University of Tokyo Team, {Faculty of Engineering, University of Tokyo

>  <COMMENT>  (1788) 
SMILES=O=C(Cl)COc(c1)cccc1
InChI=InChI=1S/C8H7ClO2/c9-8(10)6-11-7-4-2-1-3-5-7/h1-5H,6H2
computed SMILES=O=C(Cl)COC=1C=CC=CC1
accession=JP009390
date=2016.01.19 (Created 2008.10.21, modified 2011.05.06)
author=GUNMA COLLEGE OF TECHNOLOGY
license=CC BY-NC-SA
exact mass=170.01346
ionization energy=70 eV
ion type=[M]+*
computed spectral entropy=3.0787508591288475
computed normalized entropy=0.8041366480423303
SPLASH=splash10-0570-9300000000-8b6666b03521d9c8b37f
submitter=submitter = University of Tokyo Team (Faculty of Engineering, University of Tokyo)
MoNA Rating=3.75

>  <NUM PEAKS>  (1788) 
46

>  <MASS SPECTRAL PEAKS>  (1788) 
26 3.24
27 5.22
28 35.34
29 7.52
30 3.29
35 11.65
36 60.58
37 3.88
38 19.46
39 31.01
40 4
41 1.04
42 6.64
43 2.28
48 1.03
49 6.57
50 13.87
51 32.4
52 2.8
53 1.5
54 2.47
55 1.99
61 1.73
62 3.44
63 7.76
64 3.35
65 25.26
66 8.9
74 3.56
75 2.51
76 3.04
77 84.27
78 7.85
79 18.19
80 1.19
93 2.47
94 27.59
95 1.89
105 1.45
107 99.99
108 7.86
142 8.47
144 2.81
170 26.35
171 2.41
172 8.69

>  <PREDICTED SPECTRUM>  (1788) 
14 28
15 64
25 27
26 97
27 198
28 69
29 78
35 63
36 86
37 133
38 227
39 497
40 181
41 276
42 178
43 224
44 100
47 43
49 223
50 344
51 570
52 215
53 158
54 46
55 100
57 79
60 35
61 165
62 167
63 436
64 190
65 534
66 275
74 195
75 102
76 211
77 999
78 312
79 397
80 136
81 59
87 29
89 8
93 123
94 604
95 166
106 40
107 777
108 281
109 102
113 124
114 130
135 204
136 99
141 181
143 47
170 484
171 137
172 265
173 96

$$$$

     RDKit          2D

  6  5  0  0  0  0  0  0  0  0999 V2000
    1.2990    2.2500    0.0000 C   0  0  0  0  0  0  0  0  0  0  0  0
    0.0000    3.0000    0.0000 C   0  0  0  0  0  0  0  0  0  0  0  0
   -2.5981    3.0000    0.0000 C   0  0  0  0  0  0  0  0  0  0  0  0
   -3.8971    2.2500    0.0000 Cl  0  0  0  0  0  0  0  0  0  0  0  0
   -2.5981    4.5000    0.0000 O   0  0  0  0  0  0  0  0  0  0  0  0
   -1.2990    2.2500    0.0000 O   0  0  0  0  0  0  0  0  0  0  0  0
  2  1  1  0
  4  3  1  0
  5  3  2  0
  6  2  1  0
  6  3  1  0
M  END
>  <NAME>  (1789) 
ETHYL CHLOROFORMATE

>  <SYNONYMS>  (1789) 


>  <SPECTRUM TYPE>  (1789) 
MS1

>  <INSTRUMENT TYPE>  (1789) 
EI-B

>  <INSTRUMENT>  (1789) 
HITACHI M-80A

>  <ION MODE>  (1789) 
P

>  <INCHIKEY>  (1789) 
RIFGWPKJUGCATF-UHFFFAOYSA-N

>  <FORMULA>  (1789) 
C3H5ClO2

>  <EXACT MASS>  (1789) 
107.99780708

>  <MW>  (1789) 
108

>  <ID>  (1789) 
JP009389

>  <CONTRIBUTOR>  (1789) 
University of Tokyo Team, {Faculty of Engineering, University of Tokyo

>  <COMMENT>  (1789) 
SMILES=CCOC(=O)Cl
InChI=InChI=1S/C3H5ClO2/c1-2-6-3(4)5/h2H2,1H3
computed SMILES=O=C(Cl)OCC
accession=JP009389
date=2016.01.19 (Created 2008.10.21, modified 2011.05.06)
author=GUNMA COLLEGE OF TECHNOLOGY
license=CC BY-NC-SA
exact mass=107.99781
ionization energy=70 eV
ion type=[M]+*
computed spectral entropy=1.943347346140967
computed normalized entropy=0.6723520394329776
SPLASH=splash10-004i-9000000000-9799a824c9ed6db1e8ae
submitter=submitter = University of Tokyo Team (Faculty of Engineering, University of Tokyo)
MoNA Rating=3.75

>  <NUM PEAKS>  (1789) 
18

>  <MASS SPECTRAL PEAKS>  (1789) 
15 6.19
18 2.18
25 1.24
26 9.85
27 35.57
29 99.99
30 2.88
35 4.8
36 1.7
37 1.54
42 1.05
43 3.12
44 8.03
45 7.2
63 21.33
64 2.5
65 6.93
93 2.66

>  <PREDICTED SPECTRUM>  (1789) 
14 134
15 271
16 81
17 54
18 71
19 30
25 76
26 303
27 650
28 468
29 999
30 157
31 180
35 220
36 250
37 314
38 289
39 84
40 14
41 48
42 183
43 216
44 277
45 404
46 93
47 17
49 214
50 70
51 182
52 100
53 143
54 55
62 239
63 751
64 332
65 450
66 70
73 268
74 18
80 629
81 284
82 276
83 34
108 250
109 41
110 122

$$$$

     RDKit          2D

  5  4  0  0  0  0  0  0  0  0999 V2000
   -0.0000   -0.0000    0.0000 C   0  0  0  0  0  0  0  0  0  0  0  0
   -1.2990    2.2500    0.0000 C   0  0  0  0  0  0  0  0  0  0  0  0
   -1.2990    3.7500    0.0000 Cl  0  0  0  0  0  0  0  0  0  0  0  0
   -2.5981    1.5000    0.0000 O   0  0  0  0  0  0  0  0  0  0  0  0
    0.0000    1.5000    0.0000 O   0  0  0  0  0  0  0  0  0  0  0  0
  3  2  1  0
  4  2  2  0
  5  1  1  0
  5  2  1  0
M  END
>  <NAME>  (1790) 
METHYL CHLOROFORMATE

>  <SYNONYMS>  (1790) 


>  <SPECTRUM TYPE>  (1790) 
MS1

>  <INSTRUMENT TYPE>  (1790) 
EI-B

>  <INSTRUMENT>  (1790) 
HITACHI M-80A

>  <ION MODE>  (1790) 
P

>  <INCHIKEY>  (1790) 
XMJHPCRAQCTCFT-UHFFFAOYSA-N

>  <FORMULA>  (1790) 
C2H3ClO2

>  <EXACT MASS>  (1790) 
93.982157016

>  <MW>  (1790) 
94

>  <ID>  (1790) 
JP009388

>  <CONTRIBUTOR>  (1790) 
University of Tokyo Team, {Faculty of Engineering, University of Tokyo

>  <COMMENT>  (1790) 
SMILES=COC(=O)Cl
InChI=InChI=1S/C2H3ClO2/c1-5-2(3)4/h1H3
computed SMILES=O=C(Cl)OC
accession=JP009388
date=2016.01.19 (Created 2008.10.21, modified 2011.05.06)
author=GUNMA COLLEGE OF TECHNOLOGY
license=CC BY-NC-SA
exact mass=93.98216
ionization energy=70 eV
ion type=[M]+*
computed spectral entropy=2.150413513453751
computed normalized entropy=0.6858292075708751
SPLASH=splash10-0aor-9000000000-41d68cc515056d55f728
submitter=submitter = University of Tokyo Team (Faculty of Engineering, University of Tokyo)
MoNA Rating=3.75

>  <NUM PEAKS>  (1790) 
23

>  <MASS SPECTRAL PEAKS>  (1790) 
12 1.44
13 2.05
14 6.09
15 75.81
16 2.22
18 2.39
28 6.28
29 23.82
30 4.44
31 4.8
35 10.01
36 2.19
37 3.26
44 10.42
47 1.05
49 1.04
50 3.96
52 1.23
59 99.99
60 2.34
63 25.22
65 8.32
94 2.07

>  <PREDICTED SPECTRUM>  (1790) 
14 131
15 377
16 87
17 11
25 73
26 207
27 324
28 202
29 386
31 257
32 64
33 58
34 73
35 211
36 256
37 329
38 121
42 254
43 62
44 203
45 214
47 57
48 49
49 321
50 87
51 234
57 51
58 87
59 582
60 232
62 356
63 999
64 464
65 585
66 208
78 7
79 209
94 622
95 114
96 251
97 5

$$$$

     RDKit          2D

 11 11  0  0  0  0  0  0  0  0999 V2000
   -3.5381    0.5444    0.0000 C   0  0  0  0  0  0  0  0  0  0  0  0
    1.6590    2.0456    0.0000 C   0  0  0  0  0  0  0  0  0  0  0  0
    0.3600    2.7956    0.0000 C   0  0  0  0  0  0  0  0  0  0  0  0
    0.3590   -0.2060    0.0000 C   0  0  0  0  0  0  0  0  0  0  0  0
    2.9576   -0.2052    0.0000 C   0  0  0  0  0  0  0  0  0  0  0  0
    1.6586    0.5448    0.0000 C   0  0  0  0  0  0  0  0  0  0  0  0
   -0.9395    2.0448    0.0000 C   0  0  0  0  0  0  0  0  0  0  0  0
   -0.9400    0.5440    0.0000 C   0  0  0  0  0  0  0  0  0  0  0  0
    4.2566    0.5448    0.0000 O   0  0  0  0  0  0  0  0  0  0  0  0
   -2.2386    2.7948    0.0000 O   0  0  0  0  0  0  0  0  0  0  0  0
   -2.2392   -0.2058    0.0000 O   0  0  0  0  0  0  0  0  0  0  0  0
  3  2  2  0
  6  2  1  0
  6  4  2  0
  6  5  1  0
  7  3  1  0
  8  4  1  0
  8  7  2  0
  9  5  2  0
 10  7  1  0
 11  1  1  0
 11  8  1  0
M  END
>  <NAME>  (1791) 
VANILLIN

>  <SYNONYMS>  (1791) 
4-HYDROXY-3-METHOXYBENZALDEHYDE

>  <SPECTRUM TYPE>  (1791) 
MS1

>  <INSTRUMENT TYPE>  (1791) 
EI-B

>  <INSTRUMENT>  (1791) 
HITACHI M-80A

>  <ION MODE>  (1791) 
P

>  <INCHIKEY>  (1791) 
MWOOGOJBHIARFG-UHFFFAOYSA-N

>  <FORMULA>  (1791) 
C8H8O3

>  <EXACT MASS>  (1791) 
152.04734411599998

>  <MW>  (1791) 
152

>  <ID>  (1791) 
JP009387

>  <CONTRIBUTOR>  (1791) 
University of Tokyo Team, {Faculty of Engineering, University of Tokyo

>  <COMMENT>  (1791) 
SMILES=O=Cc(c1)cc(OC)c(O)c1
InChI=InChI=1S/C8H8O3/c1-11-8-4-6(5-9)2-3-7(8)10/h2-5,10H,1H3
computed SMILES=O=CC1=CC=C(O)C(OC)=C1
accession=JP009387
date=2016.01.19 (Created 2008.10.21, modified 2011.05.06)
author=GUNMA COLLEGE OF TECHNOLOGY
license=CC BY-NC-SA
exact mass=152.04734
ionization energy=70 eV
ion type=[M]+*
computed spectral entropy=3.0638101358255083
computed normalized entropy=0.8002342916301994
SPLASH=splash10-0udi-9800000000-d8f749f48a78e7c9c3bf
submitter=submitter = University of Tokyo Team (Faculty of Engineering, University of Tokyo)
MoNA Rating=3.75

>  <NUM PEAKS>  (1791) 
46

>  <MASS SPECTRAL PEAKS>  (1791) 
15 11.57
26 3.45
27 11.95
29 19.6
31 2.39
37 3.51
38 6.53
39 13.32
41 4.32
49 2.2
50 12.44
51 21.29
52 21.41
53 14.26
54 1.7
55 5.91
61 2.73
62 6.02
63 10.23
64 2.49
65 11.25
66 2.11
67 3.88
74 1.55
75 1.2
77 5.79
79 7.52
80 5.83
81 39.21
82 2.2
91 1.49
92 2.02
93 2.36
95 2.97
108 7.96
109 23.2
110 1.63
121 1.03
123 12.89
124 2.19
136 1.93
137 6.41
151 87.18
152 99.99
153 9.73
154 1

>  <PREDICTED SPECTRUM>  (1791) 
14 2
15 64
25 5
26 59
27 119
28 76
29 103
30 19
31 24
37 50
38 102
39 153
40 30
41 111
42 78
43 73
44 81
45 39
49 79
50 260
51 343
52 228
53 302
54 97
55 164
56 44
57 42
59 64
60 20
61 79
62 156
63 254
64 128
65 248
66 161
67 82
68 21
69 60
72 6
74 93
75 116
76 108
77 276
78 153
79 270
80 182
81 299
82 146
83 72
89 35
90 31
91 203
92 157
93 159
94 89
95 192
96 89
97 16
103 17
104 42
105 137
106 107
107 187
108 195
109 367
110 111
111 50
119 66
120 89
121 188
122 76
123 301
124 122
125 29
135 100
136 158
137 273
138 79
149 73
150 113
151 938
152 999
153 339
154 92

$$$$

     RDKit          2D

  4  3  0  0  0  0  0  0  0  0999 V2000
    0.9743    0.5625    0.0000 C   0  0  0  0  0  0  0  0  0  0  0  0
   -1.6238    0.5625    0.0000 C   0  0  0  0  0  0  0  0  0  0  0  0
   -0.3248    1.3125    0.0000 C   0  0  0  0  0  0  0  0  0  0  0  0
   -0.3248    2.8125    0.0000 I   0  0  0  0  0  0  0  0  0  0  0  0
  3  1  1  0
  3  2  1  0
  4  3  1  0
M  END
>  <NAME>  (1792) 
ISOPROPYLIODIDE

>  <SYNONYMS>  (1792) 
2-IODOPROPANE

>  <SPECTRUM TYPE>  (1792) 
MS1

>  <INSTRUMENT TYPE>  (1792) 
EI-B

>  <INSTRUMENT>  (1792) 
HITACHI M-80A

>  <ION MODE>  (1792) 
P

>  <INCHIKEY>  (1792) 
FMKOJHQHASLBPH-UHFFFAOYSA-N

>  <FORMULA>  (1792) 
C3H7I

>  <EXACT MASS>  (1792) 
169.959248224

>  <MW>  (1792) 
170

>  <ID>  (1792) 
JP009385

>  <CONTRIBUTOR>  (1792) 
University of Tokyo Team, {Faculty of Engineering, University of Tokyo

>  <COMMENT>  (1792) 
SMILES=CC(C)I
InChI=InChI=1S/C3H7I/c1-3(2)4/h3H,1-2H3
computed SMILES=IC(C)C
accession=JP009385
date=2016.01.19 (Created 2008.10.21, modified 2011.05.06)
author=GUNMA COLLEGE OF TECHNOLOGY
license=CC BY-NC-SA
exact mass=169.95924
ionization energy=70 eV
ion type=[M]+*
computed spectral entropy=1.9568000661194653
computed normalized entropy=0.7225863336370291
SPLASH=splash10-0006-9100000000-5fcad140e69aa79e09df
submitter=submitter = University of Tokyo Team (Faculty of Engineering, University of Tokyo)
MoNA Rating=3.75

>  <NUM PEAKS>  (1792) 
15

>  <MASS SPECTRAL PEAKS>  (1792) 
15 3.04
26 3.8
27 40.37
37 2.2
38 4.23
39 22.76
40 3.51
41 47.29
42 4.34
43 99.99
44 3.29
45 1.08
127 13.16
128 2.03
170 22.12

>  <PREDICTED SPECTRUM>  (1792) 
14 68
15 169
25 82
26 235
27 639
28 341
29 422
31 5
32 11
36 94
37 145
38 243
39 579
40 147
41 939
42 305
43 999
44 273
45 209
51 124
52 90
53 339
55 46
56 10
113 81
127 624
128 316
155 309
170 981
171 199
172 59

$$$$

     RDKit          2D

  7  6  0  0  0  0  0  0  0  0999 V2000
    1.9486    2.6250    0.0000 C   0  0  0  0  0  0  0  0  0  0  0  0
    0.6495    3.3750    0.0000 C   0  0  0  0  0  0  0  0  0  0  0  0
   -3.2476    2.6250    0.0000 C   0  0  0  0  0  0  0  0  0  0  0  0
   -1.9486    3.3750    0.0000 C   0  0  0  0  0  0  0  0  0  0  0  0
   -4.5466    3.3750    0.0000 Br  0  0  0  0  0  0  0  0  0  0  0  0
   -1.9486    4.8750    0.0000 O   0  0  0  0  0  0  0  0  0  0  0  0
   -0.6495    2.6250    0.0000 O   0  0  0  0  0  0  0  0  0  0  0  0
  2  1  1  0
  4  3  1  0
  5  3  1  0
  6  4  2  0
  7  2  1  0
  7  4  1  0
M  END
>  <NAME>  (1793) 
ETHYL BROMOACETATE

>  <SYNONYMS>  (1793) 
BROMOACETIC ACID ETHYL ESTER

>  <SPECTRUM TYPE>  (1793) 
MS1

>  <INSTRUMENT TYPE>  (1793) 
EI-B

>  <INSTRUMENT>  (1793) 
HITACHI M-80A

>  <ION MODE>  (1793) 
P

>  <INCHIKEY>  (1793) 
PQJJJMRNHATNKG-UHFFFAOYSA-N

>  <FORMULA>  (1793) 
C4H7BrO2

>  <EXACT MASS>  (1793) 
165.962941564

>  <MW>  (1793) 
166

>  <ID>  (1793) 
JP009384

>  <CONTRIBUTOR>  (1793) 
University of Tokyo Team, {Faculty of Engineering, University of Tokyo

>  <COMMENT>  (1793) 
SMILES=CCOC(=O)CBr
InChI=InChI=1S/C4H7BrO2/c1-2-7-4(6)3-5/h2-3H2,1H3
computed SMILES=O=C(OCC)CBr
accession=JP009384
date=2016.01.19 (Created 2008.10.21, modified 2011.05.06)
author=GUNMA COLLEGE OF TECHNOLOGY
license=CC BY-NC-SA
exact mass=165.96294
ionization energy=70 eV
ion type=[M]+*
computed spectral entropy=2.675850529382704
computed normalized entropy=0.7792255387229642
SPLASH=splash10-004i-9200000000-02c73dfeab6459048fa0
submitter=submitter = University of Tokyo Team (Faculty of Engineering, University of Tokyo)
MoNA Rating=3.75

>  <NUM PEAKS>  (1793) 
31

>  <MASS SPECTRAL PEAKS>  (1793) 
15 7.57
26 5.29
27 31.24
28 9.67
29 99.99
30 2.21
31 3.99
41 3.48
42 22.77
43 18.01
45 7.34
60 2.78
73 2.04
79 1.49
81 1.46
87 3.59
93 9.6
94 3.91
95 8.86
96 3.01
107 1.9
109 1.91
121 16.31
122 1.2
123 15.92
138 6.74
139 2.23
140 6.6
141 2.2
166 4.41
168 4.39

>  <PREDICTED SPECTRUM>  (1793) 
14 121
15 269
16 39
17 15
18 40
19 10
25 47
26 306
27 748
28 431
29 999
30 12
31 349
32 24
33 16
35 2
36 85
38 173
39 345
40 247
41 592
42 733
43 712
44 186
45 374
49 68
51 118
53 3
54 120
57 128
58 125
59 267
60 96
65 33
67 195
68 69
69 85
73 586
74 117
80 4
82 102
86 139
87 325
88 58
92 46
93 549
94 460
95 710
96 355
97 152
121 929
122 353
123 849
124 232
138 434
139 398
140 568
141 203
153 50
166 291
167 134
168 334
169 82

$$$$

     RDKit          2D

  6  6  0  0  0  0  0  0  0  0999 V2000
   -1.6300   -0.8021    0.0000 C   0  0  0  0  0  0  0  0  0  0  0  0
    1.7671    1.0800    0.0000 C   0  0  0  0  0  0  0  0  0  0  0  0
    0.2671    1.0800    0.0000 C   0  0  0  0  0  0  0  0  0  0  0  0
    2.2271   -0.3400    0.0000 C   0  0  0  0  0  0  0  0  0  0  0  0
   -0.2029   -0.3400    0.0000 C   0  0  0  0  0  0  0  0  0  0  0  0
    1.0171   -1.2200    0.0000 O   0  0  0  0  0  0  0  0  0  0  0  0
  3  2  1  0
  4  2  2  0
  5  1  1  0
  5  3  2  0
  6  4  1  0
  6  5  1  0
M  END
>  <NAME>  (1794) 
2-METHYLFURAN

>  <SYNONYMS>  (1794) 


>  <SPECTRUM TYPE>  (1794) 
MS1

>  <INSTRUMENT TYPE>  (1794) 
EI-B

>  <INSTRUMENT>  (1794) 
HITACHI RMU-7M

>  <ION MODE>  (1794) 
P

>  <INCHIKEY>  (1794) 
VQKFNUFAXTZWDK-UHFFFAOYSA-N

>  <FORMULA>  (1794) 
C5H6O

>  <EXACT MASS>  (1794) 
82.041864812

>  <MW>  (1794) 
82

>  <ID>  (1794) 
JP009383

>  <CONTRIBUTOR>  (1794) 
University of Tokyo Team, {Faculty of Engineering, University of Tokyo

>  <COMMENT>  (1794) 
SMILES=Cc(c1)occ1
InChI=InChI=1S/C5H6O/c1-5-3-2-4-6-5/h2-4H,1H3
computed SMILES=O1C=CC=C1C
accession=JP009383
date=2016.01.19 (Created 2008.10.21, modified 2011.05.06)
author=GUNMA COLLEGE OF TECHNOLOGY
license=CC BY-NC-SA
exact mass=82.04186
ionization energy=70 eV
ion type=[M]+*
computed spectral entropy=2.517717317112016
computed normalized entropy=0.8404346874846459
SPLASH=splash10-0f89-9000000000-733dc14912326031365c
submitter=submitter = University of Tokyo Team (Faculty of Engineering, University of Tokyo)
MoNA Rating=3.75

>  <NUM PEAKS>  (1794) 
20

>  <MASS SPECTRAL PEAKS>  (1794) 
26 8.26
27 34.5
28 20.47
29 21.99
37 4.02
38 6.44
39 48.9
40 15.77
41 4.62
43 20.32
49 2.2
50 11.83
51 13.04
52 7.2
53 74.15
54 14.63
55 4.4
81 55.04
82 99.99
83 5.23

>  <PREDICTED SPECTRUM>  (1794) 
14 23
25 38
26 146
27 253
28 143
29 172
31 34
36 40
37 195
38 296
39 659
40 146
41 331
42 151
43 91
49 80
50 261
51 406
52 157
53 682
54 328
55 89
61 117
62 57
63 192
64 22
65 27
67 277
81 556
82 999
83 178

$$$$

     RDKit          2D

  7  6  0  0  0  0  0  0  0  0999 V2000
    1.6238    1.6875    0.0000 C   0  0  0  0  0  0  0  0  0  0  0  0
    0.3248    3.9375    0.0000 C   0  0  0  0  0  0  0  0  0  0  0  0
   -3.5724    1.6875    0.0000 C   0  0  0  0  0  0  0  0  0  0  0  0
   -2.2733    3.9375    0.0000 C   0  0  0  0  0  0  0  0  0  0  0  0
    0.3248    2.4375    0.0000 C   0  0  0  0  0  0  0  0  0  0  0  0
   -2.2733    2.4375    0.0000 C   0  0  0  0  0  0  0  0  0  0  0  0
   -0.9743    1.6875    0.0000 O   0  0  0  0  0  0  0  0  0  0  0  0
  5  1  1  0
  5  2  1  0
  6  3  1  0
  6  4  1  0
  7  5  1  0
  7  6  1  0
M  END
>  <NAME>  (1795) 
DIISOPROPYL ETHER

>  <SYNONYMS>  (1795) 
BIS(1-METHYLETHYL)ETHER

>  <SPECTRUM TYPE>  (1795) 
MS1

>  <INSTRUMENT TYPE>  (1795) 
EI-B

>  <INSTRUMENT>  (1795) 
HITACHI RMU-7M

>  <ION MODE>  (1795) 
P

>  <INCHIKEY>  (1795) 
ZAFNJMIOTHYJRJ-UHFFFAOYSA-N

>  <FORMULA>  (1795) 
C6H14O

>  <EXACT MASS>  (1795) 
102.104465068

>  <MW>  (1795) 
102

>  <ID>  (1795) 
JP009382

>  <CONTRIBUTOR>  (1795) 
University of Tokyo Team, {Faculty of Engineering, University of Tokyo

>  <COMMENT>  (1795) 
SMILES=CC(C)OC(C)C
InChI=InChI=1S/C6H14O/c1-5(2)7-6(3)4/h5-6H,1-4H3
computed SMILES=O(C(C)C)C(C)C
accession=JP009382
date=2016.01.19 (Created 2008.10.21, modified 2011.05.06)
author=GUNMA COLLEGE OF TECHNOLOGY
license=CC BY-NC-SA
exact mass=102.10447
ionization energy=70 eV
ion type=[M]+*
computed spectral entropy=1.7878195853131387
computed normalized entropy=0.6448196124338571
SPLASH=splash10-0005-9000000000-c2418649ec72e9cd2ec1
submitter=submitter = University of Tokyo Team (Faculty of Engineering, University of Tokyo)
MoNA Rating=3.75

>  <NUM PEAKS>  (1795) 
16

>  <MASS SPECTRAL PEAKS>  (1795) 
15 2.13
27 6.31
28 1.13
31 2.48
39 4.25
41 10.77
42 2.69
43 41.89
44 2.13
45 99.99
46 2.13
59 10.91
69 2.69
87 23.39
88 1.28
102 1.56

>  <PREDICTED SPECTRUM>  (1795) 
14 8
15 63
26 21
27 254
28 42
31 150
38 7
39 362
40 151
41 662
42 236
43 999
44 234
45 626
59 615
60 252
61 213
87 206
101 78

$$$$

     RDKit          2D

  4  3  0  0  0  0  0  0  0  0999 V2000
   -2.5981    2.2500    0.0000 C   0  0  0  0  0  0  0  0  0  0  0  0
   -1.2990    1.5000    0.0000 C   0  0  0  0  0  0  0  0  0  0  0  0
    0.0000    2.2500    0.0000 C   0  0  0  0  0  0  0  0  0  0  0  0
    1.2990    1.5000    0.0000 N   0  0  0  0  0  0  0  0  0  0  0  0
  2  1  2  0
  3  2  1  0
  4  3  1  0
M  END
>  <NAME>  (1796) 
3-AMINO-1-PROPENE

>  <SYNONYMS>  (1796) 
ALLYLAMINE

>  <SPECTRUM TYPE>  (1796) 
MS1

>  <INSTRUMENT TYPE>  (1796) 
EI-B

>  <INSTRUMENT>  (1796) 
HITACHI RMU-7M

>  <ION MODE>  (1796) 
P

>  <INCHIKEY>  (1796) 
VVJKKWFAADXIJK-UHFFFAOYSA-N

>  <FORMULA>  (1796) 
C3H7N

>  <EXACT MASS>  (1796) 
57.057849223999995

>  <MW>  (1796) 
57

>  <ID>  (1796) 
JP009381

>  <CONTRIBUTOR>  (1796) 
University of Tokyo Team, {Faculty of Engineering, University of Tokyo

>  <COMMENT>  (1796) 
SMILES=C=CCN
InChI=InChI=1S/C3H7N/c1-2-3-4/h2H,1,3-4H2
computed SMILES=C=CCN
accession=JP009381
date=2016.01.19 (Created 2008.10.21, modified 2011.05.06)
author=GUNMA COLLEGE OF TECHNOLOGY
license=CC BY-NC-SA
exact mass=57.05785
ionization energy=70 eV
ion type=[M]+*
computed spectral entropy=2.292377471775334
computed normalized entropy=0.7311056292591589
SPLASH=splash10-0a7i-9000000000-275fa9d59bf4f05055f2
submitter=submitter = University of Tokyo Team (Faculty of Engineering, University of Tokyo)
MoNA Rating=3.75

>  <NUM PEAKS>  (1796) 
23

>  <MASS SPECTRAL PEAKS>  (1796) 
14 4.24
15 2.74
25 2.26
26 10.38
26.5 1.65
27 15.1
28 62.59
29 18.87
30 99.99
31 2.36
37 2.97
38 5.28
39 21.13
40 3.06
41 9.67
42 3.35
51 2.41
52 4.72
54 6.84
55 2.74
56 98.31
57 38.77
58 1.46

>  <PREDICTED SPECTRUM>  (1796) 
14 77
15 130
16 54
17 47
18 98
25 62
26 238
27 528
28 607
29 493
30 999
31 146
36 42
37 133
38 245
39 534
40 345
41 467
42 404
43 13
51 130
52 187
53 263
54 398
55 302
56 544
57 348
58 64

$$$$

     RDKit          2D

  5  4  0  0  0  0  0  0  0  0999 V2000
   -1.2990    0.7500    0.0000 C   0  0  0  0  0  0  0  0  0  0  0  0
    0.7500    0.2010    0.0000 C   0  0  0  0  0  0  0  0  0  0  0  0
    1.2990    2.2500    0.0000 C   0  0  0  0  0  0  0  0  0  0  0  0
    0.0000    1.5000    0.0000 C   0  0  0  0  0  0  0  0  0  0  0  0
   -0.7500    2.7990    0.0000 Br  0  0  0  0  0  0  0  0  0  0  0  0
  4  1  1  0
  4  2  1  0
  4  3  1  0
  5  4  1  0
M  END
>  <NAME>  (1797) 
TERT-BUTYLBROMIDE

>  <SYNONYMS>  (1797) 
2-METHYL-2-BROMOPROPANE

>  <SPECTRUM TYPE>  (1797) 
MS1

>  <INSTRUMENT TYPE>  (1797) 
EI-B

>  <INSTRUMENT>  (1797) 
HITACHI RMU-7M

>  <ION MODE>  (1797) 
P

>  <INCHIKEY>  (1797) 
RKSOPLXZQNSWAS-UHFFFAOYSA-N

>  <FORMULA>  (1797) 
C4H9Br

>  <EXACT MASS>  (1797) 
135.988762388

>  <MW>  (1797) 
136

>  <ID>  (1797) 
JP009380

>  <CONTRIBUTOR>  (1797) 
University of Tokyo Team, {Faculty of Engineering, University of Tokyo

>  <COMMENT>  (1797) 
SMILES=CC(C)(C)Br
InChI=InChI=1S/C4H9Br/c1-4(2,3)5/h1-3H3
computed SMILES=BrC(C)(C)C
accession=JP009380
date=2016.01.19 (Created 2008.10.21, modified 2011.05.06)
author=GUNMA COLLEGE OF TECHNOLOGY
license=CC BY-NC-SA
exact mass=135.98876
ionization energy=70 eV
ion type=[M]+*
computed spectral entropy=2.3284105492784524
computed normalized entropy=0.7532767939659679
SPLASH=splash10-0a4l-9000000000-daeda0b9a146ab317d1b
submitter=submitter = University of Tokyo Team (Faculty of Engineering, University of Tokyo)
MoNA Rating=3.75

>  <NUM PEAKS>  (1797) 
22

>  <MASS SPECTRAL PEAKS>  (1797) 
15 1.92
26 2.57
27 13.55
28 10.59
29 24.86
36 6.66
37 2.57
38 6.09
39 33.92
40 6.58
41 99.99
42 4.33
50 4.01
51 3.45
53 4.01
54 1.68
55 14.92
56 37.13
57 65.12
58 2.89
136 1.68
138 1.68

>  <PREDICTED SPECTRUM>  (1797) 
14 65
15 177
16 14
25 33
26 183
27 433
28 236
29 269
30 24
36 12
37 78
38 160
39 431
40 154
41 605
42 277
43 131
50 99
51 84
52 104
53 190
54 116
55 282
56 272
57 999
58 164
79 29
108 76
121 194
123 166
136 158
138 154

$$$$

     RDKit          2D

 26 29  0  0  0  0  0  0  0  0999 V2000
   -6.0281   -0.0496    0.0000 C   0  0  0  0  0  0  0  0  0  0  0  0
    6.9576   -6.0504    0.0000 C   0  0  0  0  0  0  0  0  0  0  0  0
    8.2570   -3.8006    0.0000 C   0  0  0  0  0  0  0  0  0  0  0  0
    3.0600    2.2000    0.0000 C   0  0  0  0  0  0  0  0  0  0  0  0
    1.7600    2.9500    0.0000 C   0  0  0  0  0  0  0  0  0  0  0  0
    3.0600    0.7000    0.0000 C   0  0  0  0  0  0  0  0  0  0  0  0
    0.4600    2.2000    0.0000 C   0  0  0  0  0  0  0  0  0  0  0  0
   -3.4300   -1.5500    0.0000 C   0  0  0  0  0  0  0  0  0  0  0  0
   -2.1300   -2.3000    0.0000 C   0  0  0  0  0  0  0  0  0  0  0  0
    3.0589   -3.8002    0.0000 C   0  0  0  0  0  0  0  0  0  0  0  0
    4.3589   -1.5502    0.0000 C   0  0  0  0  0  0  0  0  0  0  0  0
    4.3589   -4.5502    0.0000 C   0  0  0  0  0  0  0  0  0  0  0  0
    5.6589   -2.3002    0.0000 C   0  0  0  0  0  0  0  0  0  0  0  0
   -2.1300    0.7000    0.0000 C   0  0  0  0  0  0  0  0  0  0  0  0
    0.4600   -2.3000    0.0000 C   0  0  0  0  0  0  0  0  0  0  0  0
   -4.7289    0.7002    0.0000 C   0  0  0  0  0  0  0  0  0  0  0  0
    3.0589   -2.3002    0.0000 C   0  0  0  0  0  0  0  0  0  0  0  0
   -3.4300   -0.0500    0.0000 C   0  0  0  0  0  0  0  0  0  0  0  0
   -0.8300   -1.5500    0.0000 C   0  0  0  0  0  0  0  0  0  0  0  0
    5.6589   -3.8002    0.0000 C   0  0  0  0  0  0  0  0  0  0  0  0
    1.7600   -0.0500    0.0000 C   0  0  0  0  0  0  0  0  0  0  0  0
    0.4600    0.7000    0.0000 C   0  0  0  0  0  0  0  0  0  0  0  0
    1.7600   -1.5500    0.0000 C   0  0  0  0  0  0  0  0  0  0  0  0
   -0.8300   -0.0500    0.0000 C   0  0  0  0  0  0  0  0  0  0  0  0
    6.9578   -4.5504    0.0000 N   0  0  0  0  0  0  0  0  0  0  0  0
   -4.7287    2.2002    0.0000 O   0  0  0  0  0  0  0  0  0  0  0  0
  5  4  2  0
  6  4  1  0
  7  5  1  0
  9  8  1  0
 12 10  2  0
 13 11  1  0
 16  1  1  0
 17 10  1  0
 17 11  2  0
 18  8  2  0
 18 14  1  0
 18 16  1  0
 19  9  2  0
 19 15  1  0
 20 12  1  0
 20 13  2  0
 21  6  2  0
 22  7  2  0
 22 21  1  0
 23 15  2  0
 23 17  1  0
 23 21  1  0
 24 14  2  0
 24 19  1  0
 24 22  1  0
 25  2  1  0
 25  3  1  0
 25 20  1  0
 26 16  2  0
M  END
>  <NAME>  (1798) 
4-(3-ACETYL-9-PHENANTHRYL)-N,N-DIMETHYLANILINE

>  <SYNONYMS>  (1798) 


>  <SPECTRUM TYPE>  (1798) 
MS1

>  <INSTRUMENT TYPE>  (1798) 
EI-B

>  <INSTRUMENT>  (1798) 
HITACHI RMU-6M

>  <ION MODE>  (1798) 
P

>  <INCHIKEY>  (1798) 
HXKAXPZIJRDBIK-UHFFFAOYSA-N

>  <FORMULA>  (1798) 
C24H21NO

>  <EXACT MASS>  (1798) 
339.162314292

>  <MW>  (1798) 
339

>  <ID>  (1798) 
JP009343

>  <CONTRIBUTOR>  (1798) 
University of Tokyo Team, {Faculty of Engineering, University of Tokyo

>  <COMMENT>  (1798) 
SMILES=CN(C)c(c4)ccc(c4)c(c1)c(c3)c(ccc3)c(c2)c(ccc(C(C)=O)2)1
InChI=InChI=1S/C24H21NO/c1-16(26)18-8-9-19-15-23(17-10-12-20(13-11-17)25(2)3)21-6-4-5-7-22(21)24(19)14-18/h4-15H,1-3H3
computed SMILES=O=C(C=1C=CC2=CC(C=3C=CC(=CC3)N(C)C)=C4C=CC=CC4=C2C1)C
accession=JP009343
date=2016.01.19 (Created 2008.10.21, modified 2011.05.06)
author=YAMAMOTO M, DEP. CHEMISTRY, FAC. SCIENCE, NARA WOMEN'S UNIV.
license=CC BY-NC-SA
exact mass=339.16231
ionization energy=70 eV
ion type=[M]+*
computed spectral entropy=2.9046839114254177
computed normalized entropy=0.7094380717799127
SPLASH=splash10-000i-0339000000-9b6e8b1b5df09e23d6d5
submitter=submitter = University of Tokyo Team (Faculty of Engineering, University of Tokyo)
MoNA Rating=3.75

>  <NUM PEAKS>  (1798) 
60

>  <MASS SPECTRAL PEAKS>  (1798) 
70 1.4
112 1.1
113 4.1
118.5 0.11
119.5 1.5
120 1.2
125 5.7
125.5 0.26
126 6.8
126.5 2
131.5 1.8
139 0.14
139.5 3.3
140 1.8
146.5 1.5
147 0.39
147.5 14.2
148 5.1
148.5 1.1
161.5 0.66
162 11.6
162.5 2.7
170 1.5
224 0.15
225 1.2
226 2.1
237 1.5
239 0.33
240 1.7
248 1.4
249 1.4
250 0.68
251 4.4
252 17
253 5.9
254 0.14
263 1.1
264 1.7
265 1.5
266 0.17
278 1.2
279 1.8
280 4.7
281 0.33
282 1.1
294 2.3
295 3.6
296 1.73
297 3.9
308 4.4
309 1.5
310 0.17
323 1.4
324 6.9
325 2.7
337 0.14
338 11
339 99.99
340 28
341 3.9

>  <PREDICTED SPECTRUM>  (1798) 
27 29
39 33
40 12
41 13
42 93
43 170
44 50
45 38
51 6
55 55
56 32
57 32
58 7
63 27
73 0
74 13
75 6
87 6
94 9
97 3
98 17
99 17
100 13
101 21
105 4
106 28
107 15
110 25
111 7
112 27
113 47
114 0
115 2
117 24
118 66
119 71
120 43
121 36
122 33
124 20
125 152
126 124
127 75
128 28
129 10
130 9
131 10
132 4
133 12
134 26
135 54
136 0
137 42
138 75
139 44
140 9
141 0
142 27
146 38
147 35
148 68
149 71
150 37
151 51
152 35
153 24
157 24
158 4
159 29
160 12
161 16
162 95
163 83
165 2
166 7
167 9
170 2
174 10
175 32
176 2
178 38
179 44
187 42
197 4
202 4
209 3
213 52
223 14
224 34
225 75
226 103
227 27
228 8
235 0
236 0
237 52
238 61
239 72
240 50
241 44
249 7
250 100
251 137
252 313
253 253
254 96
255 2
263 67
264 144
265 171
266 131
267 150
268 85
277 14
278 65
279 88
280 199
281 197
282 73
292 39
293 124
294 180
295 219
296 239
297 97
307 14
308 117
309 66
310 63
311 8
322 31
323 42
324 348
325 227
326 75
337 23
338 220
339 999
340 556
341 197
342 38

$$$$

     RDKit          2D

 17 19  0  0  0  0  0  0  0  0999 V2000
   -1.2990    3.7500    0.0000 C   0  0  0  0  0  0  0  0  0  0  0  0
   -0.0000   -3.0000    0.0000 C   0  0  0  0  0  0  0  0  0  0  0  0
    0.0000    3.0000    0.0000 C   0  0  0  0  0  0  0  0  0  0  0  0
    3.9000   -0.7500    0.0000 C   0  0  0  0  0  0  0  0  0  0  0  0
   -3.9000   -0.7500    0.0000 C   0  0  0  0  0  0  0  0  0  0  0  0
    3.9000    0.7500    0.0000 C   0  0  0  0  0  0  0  0  0  0  0  0
   -3.9000    0.7500    0.0000 C   0  0  0  0  0  0  0  0  0  0  0  0
    2.6000   -1.5000    0.0000 C   0  0  0  0  0  0  0  0  0  0  0  0
   -2.6000   -1.5000    0.0000 C   0  0  0  0  0  0  0  0  0  0  0  0
    2.6000    1.5000    0.0000 C   0  0  0  0  0  0  0  0  0  0  0  0
   -2.6000    1.5000    0.0000 C   0  0  0  0  0  0  0  0  0  0  0  0
   -0.0000   -1.5000    0.0000 C   0  0  0  0  0  0  0  0  0  0  0  0
   -0.0000    1.5000    0.0000 C   0  0  0  0  0  0  0  0  0  0  0  0
    1.3000   -0.7500    0.0000 C   0  0  0  0  0  0  0  0  0  0  0  0
   -1.3000   -0.7500    0.0000 C   0  0  0  0  0  0  0  0  0  0  0  0
    1.3000    0.7500    0.0000 C   0  0  0  0  0  0  0  0  0  0  0  0
   -1.3000    0.7500    0.0000 C   0  0  0  0  0  0  0  0  0  0  0  0
  3  1  2  0
  6  4  2  0
  7  5  1  0
  8  4  1  0
  9  5  2  0
 10  6  1  0
 11  7  2  0
 12  2  1  0
 13  3  1  0
 14  8  2  0
 14 12  1  0
 15  9  1  0
 15 12  2  0
 16 10  2  0
 16 13  1  0
 16 14  1  0
 17 11  1  0
 17 13  2  0
 17 15  1  0
M  END
>  <NAME>  (1799) 
9-METHYL-10-VINYLANTHRACENE

>  <SYNONYMS>  (1799) 


>  <SPECTRUM TYPE>  (1799) 
MS1

>  <INSTRUMENT TYPE>  (1799) 
EI-B

>  <INSTRUMENT>  (1799) 
HITACHI RMU-6M

>  <ION MODE>  (1799) 
P

>  <INCHIKEY>  (1799) 
DRRJFUPMBLRKSQ-UHFFFAOYSA-N

>  <FORMULA>  (1799) 
C17H14

>  <EXACT MASS>  (1799) 
218.109550448

>  <MW>  (1799) 
218

>  <ID>  (1799) 
JP009341

>  <CONTRIBUTOR>  (1799) 
University of Tokyo Team, {Faculty of Engineering, University of Tokyo

>  <COMMENT>  (1799) 
SMILES=C=Cc(c21)c(c3)c(ccc3)c(C)c(cccc2)1
InChI=InChI=1S/C17H14/c1-3-13-16-10-6-4-8-14(16)12(2)15-9-5-7-11-17(13)15/h3-11H,1H2,2H3
computed SMILES=C=CC=1C=2C=CC=CC2C(=C3C=CC=CC13)C
accession=JP009341
date=2016.01.19 (Created 2008.10.21, modified 2011.05.06)
author=YAMAMOTO M, DEP. CHEMISTRY, FAC. SCIENCE, NARA WOMEN'S UNIV.
license=CC BY-NC-SA
exact mass=218.10955
ionization energy=70 eV
ion type=[M]+*
computed spectral entropy=2.6586142288575862
computed normalized entropy=0.7477788905269191
SPLASH=splash10-0udi-0290000000-a38da0df124291bb1120
submitter=submitter = University of Tokyo Team (Faculty of Engineering, University of Tokyo)
MoNA Rating=3.75

>  <NUM PEAKS>  (1799) 
35

>  <MASS SPECTRAL PEAKS>  (1799) 
39 3.3
51 2.5
57 2.5
63 0.5
75 2.5
81 4.2
82 2.5
87 0.25
100 5
100.5 4.2
101 27.5
101.5 1.67
102 3.3
106.5 9.2
107 10.8
108 1.25
108.5 4.2
109 10
109.5 2.5
176 0.25
187 2.5
189 7.5
200 3.3
201 0.5
202 52.5
203 99.99
204 18.3
205 0.25
213 6.7
214 2.5
215 15.8
216 0.58
217 20.8
218 46.7
219 9.2

>  <PREDICTED SPECTRUM>  (1799) 
26 9
27 61
29 9
36 8
38 44
39 133
40 50
41 53
44 35
45 6
50 102
51 149
52 55
53 7
55 11
57 16
61 28
62 88
63 139
64 38
65 56
67 12
68 40
69 80
70 66
71 9
73 17
74 144
75 178
76 148
77 117
78 24
79 20
80 4
81 113
82 123
83 104
84 63
85 29
86 44
87 107
88 182
89 171
90 13
91 30
92 15
93 54
94 179
95 215
96 100
97 56
98 92
99 86
100 146
101 379
102 188
103 86
106 104
107 214
108 172
109 101
110 114
111 79
112 69
113 188
114 81
115 129
116 0
118 31
119 90
120 93
121 56
122 51
123 24
124 10
125 73
126 160
127 91
128 57
137 36
138 7
139 96
141 92
142 6
150 93
151 77
152 48
162 25
163 135
164 79
165 164
173 118
174 44
175 61
176 159
177 29
178 69
185 55
186 62
187 174
188 157
189 302
190 117
191 70
192 26
196 59
197 17
198 36
199 148
200 285
201 195
202 658
203 999
204 402
205 97
212 72
213 218
214 84
215 402
216 235
217 359
218 888
219 373
220 65

$$$$

     RDKit          2D

 23 25  0  0  0  0  0  0  0  0999 V2000
   -0.0000   -3.0000    0.0000 C   0  0  0  0  0  0  0  0  0  0  0  0
   -1.8481    7.2990    0.0000 C   0  0  0  0  0  0  0  0  0  0  0  0
   -3.8971    6.7500    0.0000 C   0  0  0  0  0  0  0  0  0  0  0  0
   -3.3481    4.7010    0.0000 C   0  0  0  0  0  0  0  0  0  0  0  0
    3.9000   -0.7500    0.0000 C   0  0  0  0  0  0  0  0  0  0  0  0
   -3.9000   -0.7500    0.0000 C   0  0  0  0  0  0  0  0  0  0  0  0
    3.9000    0.7500    0.0000 C   0  0  0  0  0  0  0  0  0  0  0  0
   -3.9000    0.7500    0.0000 C   0  0  0  0  0  0  0  0  0  0  0  0
    2.6000   -1.5000    0.0000 C   0  0  0  0  0  0  0  0  0  0  0  0
   -2.6000   -1.5000    0.0000 C   0  0  0  0  0  0  0  0  0  0  0  0
    2.6000    1.5000    0.0000 C   0  0  0  0  0  0  0  0  0  0  0  0
   -2.6000    1.5000    0.0000 C   0  0  0  0  0  0  0  0  0  0  0  0
    0.0000    3.0000    0.0000 C   0  0  0  0  0  0  0  0  0  0  0  0
   -0.0000   -1.5000    0.0000 C   0  0  0  0  0  0  0  0  0  0  0  0
    1.3000   -0.7500    0.0000 C   0  0  0  0  0  0  0  0  0  0  0  0
   -1.3000   -0.7500    0.0000 C   0  0  0  0  0  0  0  0  0  0  0  0
    1.3000    0.7500    0.0000 C   0  0  0  0  0  0  0  0  0  0  0  0
   -1.3000    0.7500    0.0000 C   0  0  0  0  0  0  0  0  0  0  0  0
   -0.0000    1.5000    0.0000 C   0  0  0  0  0  0  0  0  0  0  0  0
   -1.2990    5.2500    0.0000 C   0  0  0  0  0  0  0  0  0  0  0  0
   -2.5981    6.0000    0.0000 C   0  0  0  0  0  0  0  0  0  0  0  0
    0.0000    6.0000    0.0000 O   0  0  0  0  0  0  0  0  0  0  0  0
   -1.2990    3.7500    0.0000 O   0  0  0  0  0  0  0  0  0  0  0  0
  7  5  2  0
  8  6  1  0
  9  5  1  0
 10  6  2  0
 11  7  1  0
 12  8  2  0
 14  1  1  0
 15  9  2  0
 15 14  1  0
 16 10  1  0
 16 14  2  0
 17 11  2  0
 17 15  1  0
 18 12  1  0
 18 16  1  0
 19 13  1  0
 19 17  1  0
 19 18  2  0
 21  2  1  0
 21  3  1  0
 21  4  1  0
 21 20  1  0
 22 20  2  0
 23 13  1  0
 23 20  1  0
M  END
>  <NAME>  (1800) 
(10-METHYL-9-ANTHRYL)METHYL PIVALATE

>  <SYNONYMS>  (1800) 


>  <SPECTRUM TYPE>  (1800) 
MS1

>  <INSTRUMENT TYPE>  (1800) 
EI-B

>  <INSTRUMENT>  (1800) 
HITACHI RMU-6M

>  <ION MODE>  (1800) 
P

>  <INCHIKEY>  (1800) 
DJMFMJYBGUQQCQ-UHFFFAOYSA-N

>  <FORMULA>  (1800) 
C21H22O2

>  <EXACT MASS>  (1800) 
306.161979944

>  <MW>  (1800) 
306

>  <ID>  (1800) 
JP009340

>  <CONTRIBUTOR>  (1800) 
University of Tokyo Team, {Faculty of Engineering, University of Tokyo

>  <COMMENT>  (1800) 
SMILES=O=C(OCc(c21)c(c3)c(ccc3)c(C)c(cccc2)1)C(C)(C)C
InChI=InChI=1S/C21H22O2/c1-14-15-9-5-7-11-17(15)19(13-23-20(22)21(2,3)4)18-12-8-6-10-16(14)18/h5-12H,13H2,1-4H3
computed SMILES=O=C(OCC1=C2C=CC=CC2=C(C=3C=CC=CC31)C)C(C)(C)C
accession=JP009340
date=2016.01.19 (Created 2008.10.21, modified 2011.05.06)
author=YAMAMOTO M, DEP. CHEMISTRY, FAC. SCIENCE, NARA WOMEN'S UNIV.
license=CC BY-NC-SA
exact mass=306.16198
ionization energy=70 eV
ion type=[M]+*
computed spectral entropy=2.865517544927696
computed normalized entropy=0.7118676242682206
SPLASH=splash10-0pb9-2291000000-cae08c3f3d8d3ca36809
submitter=submitter = University of Tokyo Team (Faculty of Engineering, University of Tokyo)
MoNA Rating=3.75

>  <NUM PEAKS>  (1800) 
56

>  <MASS SPECTRAL PEAKS>  (1800) 
39 8.1
40 1.7
41 23.8
42 0.23
43 1.2
44 2.9
50 1.7
51 0.23
53 1.2
55 4.1
56 8.1
57 2.36
58 1.2
63 1.7
75 1.7
76 0.41
77 1.7
87 1.7
88 5.2
89 0.55
95 1.2
100 3.5
101 12.2
102 0.41
103 1.2
127 2.3
128 1.2
150 0.12
151 1.7
152 1.7
163 1.2
165 0.35
174 1.2
175 1.2
176 3.5
177 0.17
178 7
179 1.7
187 1.2
189 0.73
190 4.1
191 8.1
192 2.9
193 0.23
200 4.1
201 5.2
202 25
203 2.44
204 57
205 99.99
206 19.8
207 0.23
248 1.2
292 1.2
306 30.8
307 10

>  <PREDICTED SPECTRUM>  (1800) 
27 42
29 102
31 14
39 141
40 48
41 302
42 49
43 97
44 112
50 19
51 69
55 31
56 37
57 373
58 62
59 114
61 15
62 47
63 67
65 3
74 50
75 121
76 93
77 113
83 21
85 132
86 7
87 16
88 163
89 132
90 9
91 60
99 53
100 128
101 313
102 220
103 85
112 10
113 102
114 96
115 105
122 16
126 180
127 142
128 152
129 23
130 46
139 99
140 20
141 104
142 4
150 140
151 267
152 237
153 14
158 38
163 124
164 128
165 135
166 15
171 37
175 89
176 221
177 133
178 180
179 201
186 88
187 82
188 126
189 247
190 239
191 229
192 95
200 354
201 314
202 624
203 361
204 793
205 999
206 536
207 175
214 64
216 33
217 61
218 231
219 144
220 66
221 9
222 66
246 24
306 729
307 333
308 88

$$$$

     RDKit          2D

 12 13  0  0  0  0  0  0  0  0999 V2000
    0.0000    2.2500    0.0000 C   0  0  0  0  0  0  0  0  0  0  0  0
   -2.6000   -0.7500    0.0000 C   0  0  0  0  0  0  0  0  0  0  0  0
   -2.6000    0.7500    0.0000 C   0  0  0  0  0  0  0  0  0  0  0  0
   -1.3000   -1.5000    0.0000 C   0  0  0  0  0  0  0  0  0  0  0  0
    2.6000    0.7500    0.0000 C   0  0  0  0  0  0  0  0  0  0  0  0
   -1.3000    1.5000    0.0000 C   0  0  0  0  0  0  0  0  0  0  0  0
    1.3000    1.5000    0.0000 C   0  0  0  0  0  0  0  0  0  0  0  0
    1.3000   -1.5000    0.0000 C   0  0  0  0  0  0  0  0  0  0  0  0
    0.0000   -0.7500    0.0000 C   0  0  0  0  0  0  0  0  0  0  0  0
    2.6000   -0.7500    0.0000 C   0  0  0  0  0  0  0  0  0  0  0  0
    0.0000    0.7500    0.0000 C   0  0  0  0  0  0  0  0  0  0  0  0
    3.8989   -1.5002    0.0000 O   0  0  0  0  0  0  0  0  0  0  0  0
  3  2  1  0
  4  2  1  0
  6  3  1  0
  7  5  1  0
  9  4  1  0
  9  8  1  0
 10  5  1  0
 10  8  1  0
 11  1  1  0
 11  6  1  0
 11  7  1  0
 11  9  1  0
 12 10  2  0
M  END
>  <NAME>  (1801) 
1,4,4A,5,6,7,8,8A-OCTAHYDRO-4A-METHYL-2(3H)-NAPHTHALENONE

>  <SYNONYMS>  (1801) 


>  <SPECTRUM TYPE>  (1801) 
MS1

>  <INSTRUMENT TYPE>  (1801) 
EI-B

>  <INSTRUMENT>  (1801) 
HITACHI RMU-6M

>  <ION MODE>  (1801) 
P

>  <INCHIKEY>  (1801) 
QAFCUHJMKAQBFU-UHFFFAOYSA-N

>  <FORMULA>  (1801) 
C11H18O

>  <EXACT MASS>  (1801) 
166.135765196

>  <MW>  (1801) 
166

>  <ID>  (1801) 
JP009339

>  <CONTRIBUTOR>  (1801) 
University of Tokyo Team, {Faculty of Engineering, University of Tokyo

>  <COMMENT>  (1801) 
SMILES=O=C(C1)CC(C2)C(C)(CCC2)C1
InChI=InChI=1S/C11H18O/c1-11-6-3-2-4-9(11)8-10(12)5-7-11/h9H,2-8H2,1H3
computed SMILES=O=C1CCC2(C)CCCCC2C1
accession=JP009339
date=2016.01.19 (Created 2008.10.21, modified 2011.05.06)
author=YAMAMOTO M, DEP. CHEMISTRY, FAC. SCIENCE, NARA WOMEN'S UNIV.
license=CC BY-NC-SA
exact mass=166.13577
ionization energy=70 eV
ion type=[M]+*
computed spectral entropy=3.4509949257520387
computed normalized entropy=0.8361721726961246
SPLASH=splash10-014m-9200000000-93d919e3c9293fdd603d
submitter=submitter = University of Tokyo Team (Faculty of Engineering, University of Tokyo)
MoNA Rating=3.75

>  <NUM PEAKS>  (1801) 
62

>  <MASS SPECTRAL PEAKS>  (1801) 
15 2.3
26 2.6
27 44.4
28 1.48
29 33.9
38 2.2
39 54.2
40 1.2
41 99.99
42 7.4
43 10.1
50 0.31
51 9.3
52 7.1
53 34.8
54 1.64
55 65
56 10.3
57 11.5
63 0.25
65 9.5
66 6.6
67 68.9
68 3.17
69 52.5
70 6.3
71 6.3
77 1.34
78 3.2
79 21
80 7
81 5.75
82 17
83 7.7
84 25.8
85 0.28
91 9.3
92 3
93 18.8
94 3.95
95 64.4
96 35.3
97 12
98 1.28
105 3.6
106 1.5
107 6.1
109 5.7
110 22.4
111 53
112 4.9
119 0.27
122 9.3
123 13
124 5.8
133 0.72
137 12.6
138 3.2
148 4.5
151 0.95
166 60.5
167 7.6

>  <PREDICTED SPECTRUM>  (1801) 
27 91
29 70
38 46
39 476
40 266
41 997
42 525
43 492
44 164
45 34
49 1
50 103
51 296
52 237
53 628
54 518
55 999
56 556
57 316
58 84
59 9
62 18
63 125
64 29
65 284
66 227
67 980
68 864
69 848
70 458
71 237
77 361
78 178
79 548
80 275
81 937
82 676
83 451
84 327
91 327
92 115
93 449
94 363
95 967
96 724
97 359
98 225
99 3
105 129
106 81
107 287
108 540
109 908
110 693
111 686
112 163
117 4
119 200
120 3
121 8
122 393
123 468
124 282
125 53
133 364
134 52
137 399
138 185
139 2
148 218
149 8
151 385
152 102
166 938
167 310
168 97

$$$$

     RDKit          2D

 12 13  0  0  0  0  0  0  0  0999 V2000
    0.0000    2.2500    0.0000 C   0  0  0  0  0  0  0  0  0  0  0  0
   -2.6000   -0.7500    0.0000 C   0  0  0  0  0  0  0  0  0  0  0  0
   -2.6000    0.7500    0.0000 C   0  0  0  0  0  0  0  0  0  0  0  0
   -1.3000   -1.5000    0.0000 C   0  0  0  0  0  0  0  0  0  0  0  0
    2.6000    0.7500    0.0000 C   0  0  0  0  0  0  0  0  0  0  0  0
   -1.3000    1.5000    0.0000 C   0  0  0  0  0  0  0  0  0  0  0  0
    1.3000    1.5000    0.0000 C   0  0  0  0  0  0  0  0  0  0  0  0
    1.3000   -1.5000    0.0000 C   0  0  0  0  0  0  0  0  0  0  0  0
    0.0000   -0.7500    0.0000 C   0  0  0  0  0  0  0  0  0  0  0  0
    2.6000   -0.7500    0.0000 C   0  0  0  0  0  0  0  0  0  0  0  0
    0.0000    0.7500    0.0000 C   0  0  0  0  0  0  0  0  0  0  0  0
    3.8989   -1.5002    0.0000 O   0  0  0  0  0  0  0  0  0  0  0  0
  3  2  1  0
  4  2  1  0
  6  3  1  0
  7  5  1  0
  9  4  1  0
  9  8  2  0
 10  5  1  0
 10  8  1  0
 11  1  1  0
 11  6  1  0
 11  7  1  0
 11  9  1  0
 12 10  2  0
M  END
>  <NAME>  (1802) 
4,4A,5,6,7,8-HEXAHYDRO-4A-METHYL-2(3H)-NAPHTHALENONE

>  <SYNONYMS>  (1802) 


>  <SPECTRUM TYPE>  (1802) 
MS1

>  <INSTRUMENT TYPE>  (1802) 
EI-B

>  <INSTRUMENT>  (1802) 
HITACHI RMU-6M

>  <ION MODE>  (1802) 
P

>  <INCHIKEY>  (1802) 
OHERZLWVBJCXOF-UHFFFAOYSA-N

>  <FORMULA>  (1802) 
C11H16O

>  <EXACT MASS>  (1802) 
164.120115132

>  <MW>  (1802) 
164

>  <ID>  (1802) 
JP009338

>  <CONTRIBUTOR>  (1802) 
University of Tokyo Team, {Faculty of Engineering, University of Tokyo

>  <COMMENT>  (1802) 
SMILES=O=C(C1)C=C(C2)C(C)(CCC2)C1
InChI=InChI=1S/C11H16O/c1-11-6-3-2-4-9(11)8-10(12)5-7-11/h8H,2-7H2,1H3
computed SMILES=O=C1C=C2CCCCC2(C)CC1
accession=JP009338
date=2016.01.19 (Created 2008.10.21, modified 2011.05.06)
author=YAMAMOTO M, DEP. CHEMISTRY, FAC. SCIENCE, NARA WOMEN'S UNIV.
license=CC BY-NC-SA
exact mass=164.12012
ionization energy=70 eV
ion type=[M]+*
computed spectral entropy=3.412909775796741
computed normalized entropy=0.8269441838781929
SPLASH=splash10-022c-9600000000-eef9722199ac89858bae
submitter=submitter = University of Tokyo Team (Faculty of Engineering, University of Tokyo)
MoNA Rating=3.75

>  <NUM PEAKS>  (1802) 
62

>  <MASS SPECTRAL PEAKS>  (1802) 
26 3.3
27 39.1
28 34.4
29 1.96
31 2.4
38 3.9
39 64.8
40 1.23
41 50.3
42 3.8
43 4
50 0.71
51 23.2
52 14.1
53 29.7
55 0.5
56 17.2
62 2.3
63 9.3
64 0.34
65 23.4
66 10.3
67 22.6
68 0.58
69 1.9
77 41.2
78 12.8
79 7.08
80 24.2
81 11.8
82 4.4
89 0.22
91 44.9
92 8.6
93 49.1
94 2.4
95 8.2
96 2.2
97 2.2
103 0.31
105 10.9
106 3.9
107 63.6
108 3.34
109 6.8
115 2.7
117 2.8
119 0.24
120 3
121 61.6
122 99.99
123 1.35
128 1.9
131 5.5
135 14
136 9.77
137 11.4
146 2.8
149 13.7
150 0.24
164 85.9
165 12.4

>  <PREDICTED SPECTRUM>  (1802) 
26 81
27 332
28 105
29 211
37 40
38 156
39 622
40 319
41 795
42 311
43 367
44 128
45 61
49 18
50 281
51 494
52 342
53 565
54 295
55 580
56 129
57 118
58 91
59 21
60 2
62 110
63 289
64 160
65 519
66 361
67 654
68 301
69 262
70 51
71 16
74 73
75 73
76 55
77 718
78 434
79 935
80 489
81 453
82 322
83 159
86 9
89 139
90 46
91 681
92 291
93 724
94 552
95 447
96 252
97 35
98 11
102 34
103 218
104 115
105 406
106 233
107 920
108 583
109 314
110 122
111 5
115 61
117 185
118 94
119 163
120 183
121 703
122 999
123 432
124 123
131 262
132 6
133 125
134 74
135 464
136 732
137 252
145 57
146 159
147 82
148 12
149 404
150 87
163 130
164 867
165 297
166 32

$$$$

     RDKit          2D

 11 12  0  0  1  0  0  0  0  0999 V2000
    0.0000    2.2500    0.0000 C   0  0  0  0  0  0  0  0  0  0  0  0
   -2.6000   -0.7500    0.0000 C   0  0  0  0  0  0  0  0  0  0  0  0
    2.6000   -0.7500    0.0000 C   0  0  0  0  0  0  0  0  0  0  0  0
   -2.6000    0.7500    0.0000 C   0  0  0  0  0  0  0  0  0  0  0  0
    2.6000    0.7500    0.0000 C   0  0  0  0  0  0  0  0  0  0  0  0
   -1.3000   -1.5000    0.0000 C   0  0  0  0  0  0  0  0  0  0  0  0
    1.3000   -1.5000    0.0000 C   0  0  0  0  0  0  0  0  0  0  0  0
   -1.3000    1.5000    0.0000 C   0  0  0  0  0  0  0  0  0  0  0  0
    1.3000    1.5000    0.0000 C   0  0  0  0  0  0  0  0  0  0  0  0
    0.0000   -0.7500    0.0000 C   0  0  0  0  0  0  0  0  0  0  0  0
    0.0000    0.7500    0.0000 C   0  0  0  0  0  0  0  0  0  0  0  0
  4  2  1  0
  5  3  1  0
  6  2  1  0
  7  3  1  0
  8  4  1  0
  9  5  1  0
 10  6  1  6
 10  7  1  0
 11  1  1  6
 11  8  1  0
 11  9  1  0
 11 10  1  0
M  END
>  <NAME>  (1803) 
1-METHYLBICYCLO(4.4.0)DECANE(TRANS)

>  <SYNONYMS>  (1803) 
METHYLDECALIN(TRANS)

>  <SPECTRUM TYPE>  (1803) 
MS1

>  <INSTRUMENT TYPE>  (1803) 
EI-B

>  <INSTRUMENT>  (1803) 
HITACHI M-80

>  <ION MODE>  (1803) 
P

>  <INCHIKEY>  (1803) 
RAFDCSMAXTUJKJ-XYPYZODXSA-N

>  <FORMULA>  (1803) 
C11H20

>  <EXACT MASS>  (1803) 
152.15650064

>  <MW>  (1803) 
152

>  <ID>  (1803) 
JP009337

>  <CONTRIBUTOR>  (1803) 
University of Tokyo Team, {Faculty of Engineering, University of Tokyo

>  <COMMENT>  (1803) 
SMILES=C(C2)CC([H])(C1)C(C)(C2)CCC1
InChI=InChI=1S/C11H20/c1-11-8-4-2-6-10(11)7-3-5-9-11/h10H,2-9H2,1H3/t10-,11-
computed SMILES=CC12CCCCC2CCCC1
accession=JP009337
date=2016.01.19 (Created 2008.10.21, modified 2011.05.06)
author=YAMAMOTO M, DEP. CHEMISTRY, FAC. SCIENCE, NARA WOMEN'S UNIV.
license=CC BY-NC-SA
exact mass=152.1565
ionization energy=70 eV
ion type=[M]+*
computed spectral entropy=3.075577309951769
computed normalized entropy=0.8079458891395802
SPLASH=splash10-000t-9400000000-76cce0fd7e68f36ebe68
submitter=submitter = University of Tokyo Team (Faculty of Engineering, University of Tokyo)
MoNA Rating=3.75

>  <NUM PEAKS>  (1803) 
45

>  <MASS SPECTRAL PEAKS>  (1803) 
39 9.28
40 2.39
41 31.18
42 4.24
43 1.19
51 1.65
52 1.97
53 8.63
54 6.4
55 31.97
56 3.56
65 3.25
66 5
67 51.82
68 18.56
69 15.37
70 1.2
77 3.99
78 1.41
79 7.3
80 3.24
81 60.1
82 37.62
83 17.06
84 1.4
91 2.03
93 4.27
94 4.66
95 99.99
96 56.47
97 5.4
98 1.02
99 1.04
107 1.3
108 2.35
109 45.02
110 31.02
111 3.68
123 7.75
124 2.58
136 7.48
137 75.8
138 7.97
152 64.93
153 8.28

>  <PREDICTED SPECTRUM>  (1803) 
29 26
39 111
40 73
41 448
42 127
43 145
50 1
51 87
52 34
53 289
54 224
55 636
56 292
57 104
65 104
66 103
67 724
68 562
69 554
70 106
77 203
78 33
79 250
80 141
81 879
82 691
83 324
84 13
93 178
94 188
95 999
96 737
97 343
108 178
109 669
110 579
111 172
123 239
124 148
125 21
136 158
137 977
138 406
139 64
152 736
153 289
154 3

$$$$

     RDKit          2D

 13 14  0  0  0  0  0  0  0  0999 V2000
    0.0000    2.2500    0.0000 C   0  0  0  0  0  0  0  0  0  0  0  0
   -2.6000   -0.7500    0.0000 C   0  0  0  0  0  0  0  0  0  0  0  0
   -2.6000    0.7500    0.0000 C   0  0  0  0  0  0  0  0  0  0  0  0
   -1.3000   -1.5000    0.0000 C   0  0  0  0  0  0  0  0  0  0  0  0
    2.6000    0.7500    0.0000 C   0  0  0  0  0  0  0  0  0  0  0  0
   -1.3000    1.5000    0.0000 C   0  0  0  0  0  0  0  0  0  0  0  0
    1.3000    1.5000    0.0000 C   0  0  0  0  0  0  0  0  0  0  0  0
    1.3000   -1.5000    0.0000 C   0  0  0  0  0  0  0  0  0  0  0  0
    0.0000   -0.7500    0.0000 C   0  0  0  0  0  0  0  0  0  0  0  0
    2.6000   -0.7500    0.0000 C   0  0  0  0  0  0  0  0  0  0  0  0
    3.1127   -2.1596    0.0000 H   0  0  0  0  0  0  0  0  0  0  0  0
    0.0000    0.7500    0.0000 C   0  0  0  0  0  0  0  0  0  0  0  0
    4.0772   -0.4897    0.0000 O   0  0  0  0  0  0  0  0  0  0  0  0
 10 11  1  0
  3  2  1  0
  4  2  1  0
  6  3  1  0
  7  5  1  0
  9  4  1  0
  9  8  1  0
 10  5  1  0
 10  8  1  0
 12  1  1  0
 12  6  1  0
 12  7  1  0
 12  9  1  0
 13 10  1  0
M  ISO  1  11   2
M  END
>  <NAME>  (1804) 
4A-METHYLDECAHYDRO-2-NAPHTHOL-2-D

>  <SYNONYMS>  (1804) 


>  <SPECTRUM TYPE>  (1804) 
MS1

>  <INSTRUMENT TYPE>  (1804) 
EI-B

>  <INSTRUMENT>  (1804) 
HITACHI M-80

>  <ION MODE>  (1804) 
P

>  <INCHIKEY>  (1804) 
ZGVYVWSAAMJYCN-MMIHMFRQSA-N

>  <FORMULA>  (1804) 
C11H20O

>  <EXACT MASS>  (1804) 
169.157692006

>  <MW>  (1804) 
169

>  <ID>  (1804) 
JP009333

>  <CONTRIBUTOR>  (1804) 
University of Tokyo Team, {Faculty of Engineering, University of Tokyo

>  <COMMENT>  (1804) 
SMILES=[2H]C(O)(C1)CC(C2)C(C)(CCC2)C1
InChI=InChI=1S/C11H20O/c1-11-6-3-2-4-9(11)8-10(12)5-7-11/h9-10,12H,2-8H2,1H3/i10D
computed SMILES=[H]C1(O)CCC2(C)CCCCC2C1
accession=JP009333
date=2016.01.19 (Created 2008.10.21, modified 2011.05.06)
author=YAMAMOTO M, DEP. CHEMISTRY, FAC. SCIENCE, NARA WOMEN'S UNIV.
license=CC BY-NC-SA
exact mass=168.15142
ionization energy=70 eV
ion type=[M]+*
computed spectral entropy=3.658881632573039
computed normalized entropy=0.8701900385534043
SPLASH=splash10-00ko-9100000000-426d83413a52ac43ddda
submitter=submitter = University of Tokyo Team (Faculty of Engineering, University of Tokyo)
MoNA Rating=3.75

>  <NUM PEAKS>  (1804) 
67

>  <MASS SPECTRAL PEAKS>  (1804) 
38 1.37
39 49.64
40 13.38
41 99.99
42 19.84
43 16.96
44 10.44
45 18.45
46 2.48
51 5.63
52 3.26
53 25.87
54 14.59
55 48.26
56 14.58
57 6.37
58 15.77
59 3.49
60 2.47
63 1.86
64 1.15
65 7.2
66 7
67 49.64
68 27.39
69 21.54
70 6.42
71 5.44
72 2.06
77 9.13
78 5.31
79 14.62
80 13.48
81 27.05
82 22.28
83 7.9
84 5.04
85 1.28
91 6.79
92 3.85
93 13.7
94 22.39
95 29.99
96 13.51
97 3.06
98 1.25
99 1.38
105 1.41
106 1.63
107 3.99
108 17.94
109 22.23
110 11.33
111 3.26
112 4.19
113 1.17
121 1.82
122 9.06
123 4.74
124 1.11
135 1.38
136 35.64
137 4.34
140 1.21
151 22.7
152 3.33
169 1.98

>  <PREDICTED SPECTRUM>  (1804) 
39 125
40 60
41 476
42 184
43 481
44 149
45 33
50 44
51 154
52 128
53 395
54 309
55 605
56 251
57 238
58 172
59 135
60 56
63 22
65 162
66 137
67 751
68 578
69 528
70 343
71 352
72 57
73 14
77 297
78 117
79 441
80 317
81 999
82 562
83 258
84 317
85 66
86 17
91 244
92 141
93 449
94 235
95 728
96 530
97 306
98 390
99 214
100 86
107 74
108 553
109 589
110 512
111 701
112 282
113 122
122 275
123 155
124 109
125 242
126 347
127 32
136 625
137 246
138 42
140 146
150 51
151 712
152 315
154 274
155 51
169 528
170 169

$$$$

     RDKit          2D

 12 12  0  0  0  0  0  0  0  0999 V2000
   -4.1872    1.6700    0.0000 C   0  0  0  0  0  0  0  0  0  0  0  0
    4.9065    0.9204    0.0000 C   0  0  0  0  0  0  0  0  0  0  0  0
   -2.8882    0.9200    0.0000 C   0  0  0  0  0  0  0  0  0  0  0  0
   -1.5892    1.6700    0.0000 C   0  0  0  0  0  0  0  0  0  0  0  0
   -0.2906   -0.5808    0.0000 C   0  0  0  0  0  0  0  0  0  0  0  0
    1.0084   -1.3308    0.0000 C   0  0  0  0  0  0  0  0  0  0  0  0
    1.0094    1.6708    0.0000 C   0  0  0  0  0  0  0  0  0  0  0  0
   -0.2901    0.9200    0.0000 C   0  0  0  0  0  0  0  0  0  0  0  0
    2.3080   -0.5800    0.0000 C   0  0  0  0  0  0  0  0  0  0  0  0
    2.3084    0.9208    0.0000 C   0  0  0  0  0  0  0  0  0  0  0  0
    3.6070   -1.3300    0.0000 O   0  0  0  0  0  0  0  0  0  0  0  0
    3.6076    1.6706    0.0000 O   0  0  0  0  0  0  0  0  0  0  0  0
  3  1  2  0
  4  3  1  0
  6  5  2  0
  8  4  1  0
  8  5  1  0
  8  7  2  0
  9  6  1  0
 10  7  1  0
 10  9  2  0
 11  9  1  0
 12  2  1  0
 12 10  1  0
M  END
>  <NAME>  (1805) 
EUGENOL

>  <SYNONYMS>  (1805) 


>  <SPECTRUM TYPE>  (1805) 
MS1

>  <INSTRUMENT TYPE>  (1805) 
EI-B

>  <INSTRUMENT>  (1805) 
HITACHI RMU-6M

>  <ION MODE>  (1805) 
P

>  <INCHIKEY>  (1805) 
RRAFCDWBNXTKKO-UHFFFAOYSA-N

>  <FORMULA>  (1805) 
C10H12O2

>  <EXACT MASS>  (1805) 
164.083729624

>  <MW>  (1805) 
164

>  <ID>  (1805) 
JP009332

>  <CONTRIBUTOR>  (1805) 
University of Tokyo Team, {Faculty of Engineering, University of Tokyo

>  <COMMENT>  (1805) 
SMILES=C=CCc(c1)cc(OC)c(O)c1
InChI=InChI=1S/C10H12O2/c1-3-4-8-5-6-9(11)10(7-8)12-2/h3,5-7,11H,1,4H2,2H3
computed SMILES=OC1=CC=C(C=C1OC)CC=C
accession=JP009332
date=2016.01.19 (Created 2008.10.21, modified 2011.05.06)
author=YAMAMOTO M, DEP. CHEMISTRY, FAC. SCIENCE, NARA WOMEN'S UNIV.
license=CC BY-NC-SA
exact mass=164.08373
ionization energy=70 eV
ion type=[M]+*
computed spectral entropy=3.175476202280571
computed normalized entropy=0.766442901808857
SPLASH=splash10-03di-4900000000-1d96ae8b031e47e13112
submitter=submitter = University of Tokyo Team (Faculty of Engineering, University of Tokyo)
MoNA Rating=3.75

>  <NUM PEAKS>  (1805) 
63

>  <MASS SPECTRAL PEAKS>  (1805) 
26 1
27 7.1
28 2.6
29 0.15
31 0.9
38 2.2
39 15.2
40 0.28
41 7.5
43 4.2
45 1
50 0.46
51 12.9
52 5.4
53 4.8
55 2.19
56 1.1
62 2
63 5.1
64 0.18
65 9.8
66 4
67 1.3
69 0.1
74 1.3
75 1.2
76 1.3
77 2.58
78 6.9
79 6.2
81 2.2
89 0.18
91 17
92 2.4
93 4.6
94 0.57
95 1.1
102 1.7
103 20.6
104 1.45
105 6.3
106 1.1
107 3.2
109 0.13
115 2.2
119 1.9
120 1.1
121 1.51
122 6.3
131 20.6
132 9.7
133 1.63
134 1.8
135 1.8
137 19.3
138 0.16
147 4.8
149 34.6
150 3.3
163 0.44
164 99.99
165 11.1
166 1.1

>  <PREDICTED SPECTRUM>  (1805) 
14 25
15 79
16 6
17 10
18 26
25 0
26 87
27 229
28 116
29 108
30 5
31 36
37 51
38 103
39 315
40 109
41 227
42 65
43 159
44 21
45 46
46 1
49 64
50 195
51 330
52 241
53 260
54 85
55 204
56 46
57 58
58 35
59 11
61 84
62 147
63 235
64 130
65 358
66 214
67 165
68 102
69 95
70 32
71 81
72 46
74 115
75 130
76 93
77 475
78 336
79 305
80 123
81 125
82 45
83 2
84 50
85 44
86 42
87 36
88 19
89 210
90 144
91 528
92 197
93 171
94 172
95 158
96 51
98 9
102 190
103 399
104 225
105 262
106 173
107 243
108 151
109 101
110 66
111 42
115 238
116 178
117 216
118 140
119 154
120 78
121 603
122 355
123 184
124 135
128 10
129 35
130 26
131 446
132 180
133 249
134 137
135 266
136 318
137 431
138 117
145 36
147 171
148 109
149 401
150 154
151 33
152 5
161 33
162 29
163 245
164 999
165 340
166 106

$$$$

     RDKit          2D

 12 12  0  0  0  0  0  0  0  0999 V2000
   -4.1872    1.6700    0.0000 C   0  0  0  0  0  0  0  0  0  0  0  0
    4.9065    0.9204    0.0000 C   0  0  0  0  0  0  0  0  0  0  0  0
   -2.8882    0.9200    0.0000 C   0  0  0  0  0  0  0  0  0  0  0  0
   -1.5892    1.6700    0.0000 C   0  0  0  0  0  0  0  0  0  0  0  0
   -0.2906   -0.5808    0.0000 C   0  0  0  0  0  0  0  0  0  0  0  0
    1.0084   -1.3308    0.0000 C   0  0  0  0  0  0  0  0  0  0  0  0
    1.0094    1.6708    0.0000 C   0  0  0  0  0  0  0  0  0  0  0  0
   -0.2901    0.9200    0.0000 C   0  0  0  0  0  0  0  0  0  0  0  0
    2.3080   -0.5800    0.0000 C   0  0  0  0  0  0  0  0  0  0  0  0
    2.3084    0.9208    0.0000 C   0  0  0  0  0  0  0  0  0  0  0  0
    3.6070   -1.3300    0.0000 O   0  0  0  0  0  0  0  0  0  0  0  0
    3.6076    1.6706    0.0000 O   0  0  0  0  0  0  0  0  0  0  0  0
  3  1  1  0
  3  4  2  0
  6  5  2  0
  8  4  1  0
  8  5  1  0
  8  7  2  0
  9  6  1  0
 10  7  1  0
 10  9  2  0
 11  9  1  0
 12  2  1  0
 12 10  1  0
M  END
>  <NAME>  (1806) 
ISOEUGENOL

>  <SYNONYMS>  (1806) 


>  <SPECTRUM TYPE>  (1806) 
MS1

>  <INSTRUMENT TYPE>  (1806) 
EI-B

>  <INSTRUMENT>  (1806) 
HITACHI RMU-6M

>  <ION MODE>  (1806) 
P

>  <INCHIKEY>  (1806) 
BJIOGJUNALELMI-ONEGZZNKSA-N

>  <FORMULA>  (1806) 
C10H12O2

>  <EXACT MASS>  (1806) 
164.083729624

>  <MW>  (1806) 
164

>  <ID>  (1806) 
JP009331

>  <CONTRIBUTOR>  (1806) 
University of Tokyo Team, {Faculty of Engineering, University of Tokyo

>  <COMMENT>  (1806) 
SMILES=CC=Cc(c1)cc(OC)c(O)c1
InChI=InChI=1S/C10H12O2/c1-3-4-8-5-6-9(11)10(7-8)12-2/h3-7,11H,1-2H3/b4-3+
computed SMILES=OC1=CC=C(C=CC)C=C1OC
accession=JP009331
date=2016.01.19 (Created 2008.10.21, modified 2011.05.06)
author=YAMAMOTO M, DEP. CHEMISTRY, FAC. SCIENCE, NARA WOMEN'S UNIV.
license=CC BY-NC-SA
exact mass=164.08373
ionization energy=70 eV
ion type=[M]+*
computed spectral entropy=3.0664808902595344
computed normalized entropy=0.7617920434921062
SPLASH=splash10-03di-5900000000-d5e9036e83fd9c1033b0
submitter=submitter = University of Tokyo Team (Faculty of Engineering, University of Tokyo)
MoNA Rating=3.75

>  <NUM PEAKS>  (1806) 
56

>  <MASS SPECTRAL PEAKS>  (1806) 
27 5.7
28 2.3
29 1.3
38 0.2
39 10.8
40 1.6
41 4.2
43 0.37
50 3.4
51 9.6
52 3.7
53 0.37
55 21
62 2.1
63 5.2
64 0.17
65 7.8
66 2.2
74 1.4
75 0.16
76 1.3
77 22.1
78 5.4
79 0.51
81 2
82 2.7
89 2.3
91 1.53
92 2.3
93 4.4
94 1.7
102 0.16
103 17.6
104 9.6
105 4.3
106 0.1
107 3.2
109 1.3
115 1.6
118 0.1
119 1.7
120 1.2
121 12.9
122 0.2
131 16.7
132 5.4
133 12
134 0.15
135 1.1
137 5.3
147 3.3
149 3.44
150 3.3
163 4
164 99.99
165 11

>  <PREDICTED SPECTRUM>  (1806) 
14 28
15 89
16 9
17 3
18 14
25 1
26 90
27 216
28 98
29 124
31 62
32 2
33 4
34 10
37 54
38 118
39 271
40 87
41 205
42 96
43 177
44 63
45 108
49 60
50 244
51 382
52 259
53 257
54 61
55 166
56 59
57 90
58 41
59 24
61 94
62 176
63 300
64 150
65 311
66 158
67 109
68 70
69 101
70 21
71 79
72 51
73 62
74 172
75 187
76 149
77 463
78 285
79 256
80 113
81 100
82 36
84 13
85 37
86 58
87 91
88 87
89 297
90 199
91 394
92 183
93 268
94 183
95 166
96 36
101 100
102 215
103 319
104 256
105 290
106 165
107 173
108 157
109 95
110 88
111 10
113 44
114 31
115 157
116 78
117 249
118 200
119 177
120 154
121 501
122 213
123 111
124 81
129 53
130 54
131 428
132 290
133 419
134 159
135 224
136 162
137 158
145 101
146 64
147 250
148 223
149 399
150 141
151 31
161 39
162 41
163 451
164 999
165 329
166 99

$$$$

     RDKit          2D

 12 13  0  0  0  0  0  0  0  0999 V2000
    5.8467    1.3723    0.0000 C   0  0  0  0  0  0  0  0  0  0  0  0
    4.5481    0.6216    0.0000 C   0  0  0  0  0  0  0  0  0  0  0  0
    3.2486    1.3708    0.0000 C   0  0  0  0  0  0  0  0  0  0  0  0
    1.9500   -0.9000    0.0000 C   0  0  0  0  0  0  0  0  0  0  0  0
    0.6300   -1.6600    0.0000 C   0  0  0  0  0  0  0  0  0  0  0  0
    0.6300    1.3800    0.0000 C   0  0  0  0  0  0  0  0  0  0  0  0
   -2.9400   -0.2300    0.0000 C   0  0  0  0  0  0  0  0  0  0  0  0
    1.9500    0.6200    0.0000 C   0  0  0  0  0  0  0  0  0  0  0  0
   -0.6600   -0.9000    0.0000 C   0  0  0  0  0  0  0  0  0  0  0  0
   -0.6600    0.6200    0.0000 C   0  0  0  0  0  0  0  0  0  0  0  0
   -2.0600   -1.3400    0.0000 O   0  0  0  0  0  0  0  0  0  0  0  0
   -2.0900    1.0600    0.0000 O   0  0  0  0  0  0  0  0  0  0  0  0
  2  1  2  0
  3  2  1  0
  5  4  2  0
  8  3  1  0
  8  4  1  0
  8  6  2  0
  9  5  1  0
 10  6  1  0
 10  9  2  0
 11  7  1  0
 11  9  1  0
 12  7  1  0
 12 10  1  0
M  END
>  <NAME>  (1807) 
SAFROLE

>  <SYNONYMS>  (1807) 


>  <SPECTRUM TYPE>  (1807) 
MS1

>  <INSTRUMENT TYPE>  (1807) 
EI-B

>  <INSTRUMENT>  (1807) 
HITACHI RMU-6M

>  <ION MODE>  (1807) 
P

>  <INCHIKEY>  (1807) 
ZMQAAUBTXCXRIC-UHFFFAOYSA-N

>  <FORMULA>  (1807) 
C10H10O2

>  <EXACT MASS>  (1807) 
162.06807956

>  <MW>  (1807) 
162

>  <ID>  (1807) 
JP009330

>  <CONTRIBUTOR>  (1807) 
University of Tokyo Team, {Faculty of Engineering, University of Tokyo

>  <COMMENT>  (1807) 
SMILES=C=CCc(c1)cc(O2)c(OC2)c1
InChI=InChI=1S/C10H10O2/c1-2-3-8-4-5-9-10(6-8)12-7-11-9/h2,4-6H,1,3,7H2
computed SMILES=O1C2=CC=C(C=C2OC1)CC=C
accession=JP009330
date=2016.01.19 (Created 2008.10.21, modified 2011.05.06)
author=YAMAMOTO M, DEP. CHEMISTRY, FAC. SCIENCE, NARA WOMEN'S UNIV.
license=CC BY-NC-SA
exact mass=162.06808
ionization energy=70 eV
ion type=[M]+*
computed spectral entropy=2.9873271714015437
computed normalized entropy=0.7636271993432717
SPLASH=splash10-03di-6900000000-87b7efd770862a8f97a5
submitter=submitter = University of Tokyo Team (Faculty of Engineering, University of Tokyo)
MoNA Rating=3.75

>  <NUM PEAKS>  (1807) 
50

>  <MASS SPECTRAL PEAKS>  (1807) 
26 1.6
27 6.6
28 3.2
29 0.22
37 1.5
38 4
39 14.1
40 0.13
41 3
50 9.4
51 27.3
52 0.75
53 4.2
55 1.9
61 1.7
62 0.41
63 9.8
64 2.3
65 5.7
66 0.19
67 2
69 1.7
74 3.1
75 0.35
76 5.2
77 30.2
78 15.3
79 0.65
80 2.2
81 3.1
89 2.5
91 0.55
92 1.7
102 5.1
103 24.1
104 3.66
105 9.9
106 1.9
115 2.2
119 0.22
121 1.5
131 32.7
132 13.4
133 0.31
134 2
135 26.6
136 2.7
161 2.4
162 99.99
163 11.2

>  <PREDICTED SPECTRUM>  (1807) 
14 10
15 17
17 4
18 10
26 41
27 134
28 67
29 1
31 6
37 31
38 70
39 203
40 42
41 158
43 103
44 36
49 73
50 235
51 408
52 215
53 219
54 47
55 119
57 22
61 71
62 209
63 312
64 167
65 312
66 143
67 92
69 0
73 16
74 91
75 164
76 171
77 490
78 298
79 277
80 103
81 0
86 79
87 51
88 22
89 271
90 83
91 320
92 138
93 113
94 92
101 36
102 231
103 362
104 297
105 337
106 109
107 77
113 10
114 0
115 430
116 260
117 161
118 40
119 163
120 77
121 143
122 105
128 27
129 10
131 380
132 173
133 306
134 192
135 742
136 255
137 52
143 13
147 150
148 43
160 22
161 414
162 999
163 284
164 89

$$$$

     RDKit          2D

 12 13  0  0  0  0  0  0  0  0999 V2000
    5.8467    1.3723    0.0000 C   0  0  0  0  0  0  0  0  0  0  0  0
    4.5481    0.6216    0.0000 C   0  0  0  0  0  0  0  0  0  0  0  0
    3.2486    1.3708    0.0000 C   0  0  0  0  0  0  0  0  0  0  0  0
    1.9500   -0.9000    0.0000 C   0  0  0  0  0  0  0  0  0  0  0  0
    0.6300   -1.6600    0.0000 C   0  0  0  0  0  0  0  0  0  0  0  0
    0.6300    1.3800    0.0000 C   0  0  0  0  0  0  0  0  0  0  0  0
   -2.9400   -0.2300    0.0000 C   0  0  0  0  0  0  0  0  0  0  0  0
    1.9500    0.6200    0.0000 C   0  0  0  0  0  0  0  0  0  0  0  0
   -0.6600   -0.9000    0.0000 C   0  0  0  0  0  0  0  0  0  0  0  0
   -0.6600    0.6200    0.0000 C   0  0  0  0  0  0  0  0  0  0  0  0
   -2.0600   -1.3400    0.0000 O   0  0  0  0  0  0  0  0  0  0  0  0
   -2.0900    1.0600    0.0000 O   0  0  0  0  0  0  0  0  0  0  0  0
  2  1  1  0
  2  3  2  0
  5  4  2  0
  8  3  1  0
  8  4  1  0
  8  6  2  0
  9  5  1  0
 10  6  1  0
 10  9  2  0
 11  7  1  0
 11  9  1  0
 12  7  1  0
 12 10  1  0
M  END
>  <NAME>  (1808) 
ISOSAFROLE

>  <SYNONYMS>  (1808) 


>  <SPECTRUM TYPE>  (1808) 
MS1

>  <INSTRUMENT TYPE>  (1808) 
EI-B

>  <INSTRUMENT>  (1808) 
HITACHI RMU-6M

>  <ION MODE>  (1808) 
P

>  <INCHIKEY>  (1808) 
VHVOLFRBFDOUSH-NSCUHMNNSA-N

>  <FORMULA>  (1808) 
C10H10O2

>  <EXACT MASS>  (1808) 
162.06807956

>  <MW>  (1808) 
162

>  <ID>  (1808) 
JP009329

>  <CONTRIBUTOR>  (1808) 
University of Tokyo Team, {Faculty of Engineering, University of Tokyo

>  <COMMENT>  (1808) 
SMILES=CC=Cc(c1)cc(O2)c(OC2)c1
InChI=InChI=1S/C10H10O2/c1-2-3-8-4-5-9-10(6-8)12-7-11-9/h2-6H,7H2,1H3/b3-2+
computed SMILES=O1C2=CC=C(C=CC)C=C2OC1
accession=JP009329
date=2016.01.19 (Created 2008.10.21, modified 2011.05.06)
author=YAMAMOTO M, DEP. CHEMISTRY, FAC. SCIENCE, NARA WOMEN'S UNIV.
license=CC BY-NC-SA
exact mass=162.06808
ionization energy=70 eV
ion type=[M]+*
computed spectral entropy=2.642642976247279
computed normalized entropy=0.721331652502446
SPLASH=splash10-03di-4900000000-9e3ac55ccc5003e4dc01
submitter=submitter = University of Tokyo Team (Faculty of Engineering, University of Tokyo)
MoNA Rating=3.75

>  <NUM PEAKS>  (1808) 
39

>  <MASS SPECTRAL PEAKS>  (1808) 
27 4.2
28 1.8
29 1
38 0.26
39 10.7
41 2
50 6.9
51 1.52
52 4.8
53 2.1
55 1.1
62 0.34
63 8.9
64 1.2
65 3.9
66 0.1
74 2.1
75 2.7
76 4
77 1.93
78 13.2
79 3.7
80 1.2
81 0.47
89 2.1
91 5.9
102 4.3
103 2.46
104 30.5
105 5.9
119 1.4
131 2.67
132 9.6
133 1.6
135 12.2
161 2.41
162 99.99
163 10.1
164 1.4

>  <PREDICTED SPECTRUM>  (1808) 
14 6
15 5
26 57
27 106
28 2
37 70
38 128
39 291
40 78
41 158
42 49
43 186
44 52
45 120
49 81
50 354
51 536
52 246
53 303
54 89
55 186
56 24
57 70
61 151
62 330
63 475
64 230
65 309
66 157
67 49
69 15
71 2
73 110
74 227
75 247
76 252
77 482
78 331
79 221
80 91
81 31
86 116
87 124
88 50
89 279
90 158
91 272
92 72
93 73
94 22
101 186
102 391
103 554
104 420
105 251
106 90
107 80
113 4
115 10
117 26
118 31
119 138
121 29
122 0
129 45
130 87
131 383
132 205
133 219
134 147
135 249
136 22
147 113
148 58
160 30
161 651
162 999
163 316
164 102

$$$$

     RDKit          2D

  8  8  0  0  0  0  0  0  0  0999 V2000
    0.0000    1.5000    0.0000 C   0  0  0  0  0  0  0  0  0  0  0  0
    0.0000    0.0000    0.0000 C   0  0  0  0  0  0  0  0  0  0  0  0
   -1.1727    2.4352    0.0000 C   0  0  0  0  0  0  0  0  0  0  0  0
   -1.1727   -0.9352    0.0000 C   0  0  0  0  0  0  0  0  0  0  0  0
   -2.6351    2.1015    0.0000 C   0  0  0  0  0  0  0  0  0  0  0  0
   -2.6351   -0.6015    0.0000 C   0  0  0  0  0  0  0  0  0  0  0  0
   -3.2860    0.7500    0.0000 C   0  0  0  0  0  0  0  0  0  0  0  0
   -4.7860    0.7500    0.0000 O   0  0  0  0  0  0  0  0  0  0  0  0
  2  1  1  0
  3  1  1  0
  4  2  1  0
  5  3  1  0
  6  4  1  0
  7  5  1  0
  7  6  1  0
  8  7  1  0
M  END
>  <NAME>  (1809) 
CYCLOHEPTANOL

>  <SYNONYMS>  (1809) 


>  <SPECTRUM TYPE>  (1809) 
MS1

>  <INSTRUMENT TYPE>  (1809) 
EI-B

>  <INSTRUMENT>  (1809) 
HITACHI M-80B

>  <ION MODE>  (1809) 
P

>  <INCHIKEY>  (1809) 
QCRFMSUKWRQZEM-UHFFFAOYSA-N

>  <FORMULA>  (1809) 
C7H14O

>  <EXACT MASS>  (1809) 
114.104465068

>  <MW>  (1809) 
114

>  <ID>  (1809) 
JP009294

>  <CONTRIBUTOR>  (1809) 
University of Tokyo Team, {Faculty of Engineering, University of Tokyo

>  <COMMENT>  (1809) 
SMILES=OC(C1)CCCCC1
InChI=InChI=1S/C7H14O/c8-7-5-3-1-2-4-6-7/h7-8H,1-6H2
computed SMILES=OC1CCCCCC1
accession=JP009294
date=2016.01.19 (Created 2008.10.21, modified 2011.05.06)
author=SODA AROMATIC CO., LTD.
license=CC BY-NC-SA
exact mass=114.10447
ionization energy=70 eV
ion type=[M]+*
computed spectral entropy=2.7999719205325917
computed normalized entropy=0.7754183252762485
SPLASH=splash10-0a4l-9000000000-07fdc731db6a71872712
submitter=submitter = University of Tokyo Team (Faculty of Engineering, University of Tokyo)
MoNA Rating=3.75

>  <NUM PEAKS>  (1809) 
37

>  <MASS SPECTRAL PEAKS>  (1809) 
15 1.3
26 1.5
27 17.1
28 0.46
29 14.8
30 1
31 7
39 1.7
40 3
41 33
42 16.1
43 1.52
44 26
45 5.8
51 1.2
53 0.61
54 13.8
55 23.5
56 3.1
57 99.99
58 8.8
66 1.5
67 18.2
68 3.6
69 3.1
70 12.5
71 12.9
72 0.59
81 32.1
82 1.9
83 1.1
85 0.51
86 3.2
95 1.8
96 18.6
97 0.17
114 1.4

>  <PREDICTED SPECTRUM>  (1809) 
14 21
15 61
16 24
17 21
18 45
19 11
26 154
27 517
28 276
29 547
30 169
31 390
32 37
33 12
37 40
38 118
39 689
40 324
41 929
42 567
43 753
44 562
45 249
47 42
50 153
51 239
52 137
53 455
54 708
55 799
56 542
57 999
58 529
59 225
60 95
62 1
63 54
64 21
65 187
66 306
67 886
68 675
69 525
70 715
71 585
72 369
73 93
76 1
77 228
78 207
79 250
80 122
81 704
82 632
83 477
84 132
85 213
86 156
93 44
94 156
95 213
96 515
97 375
113 9

$$$$

     RDKit          2D

  7  6  0  0  0  0  0  0  0  0999 V2000
    1.9486    3.3750    0.0000 C   0  0  0  0  0  0  0  0  0  0  0  0
   -5.8457    3.3750    0.0000 C   0  0  0  0  0  0  0  0  0  0  0  0
    0.6495    4.1250    0.0000 C   0  0  0  0  0  0  0  0  0  0  0  0
   -4.5466    4.1250    0.0000 C   0  0  0  0  0  0  0  0  0  0  0  0
   -0.6495    3.3750    0.0000 C   0  0  0  0  0  0  0  0  0  0  0  0
   -1.9486    4.1250    0.0000 C   0  0  0  0  0  0  0  0  0  0  0  0
   -3.2476    3.3750    0.0000 O   0  0  0  0  0  0  0  0  0  0  0  0
  3  1  1  0
  4  2  1  0
  5  3  1  0
  6  5  1  0
  7  4  1  0
  7  6  1  0
M  END
>  <NAME>  (1810) 
BUTYL ETHYL ETHER

>  <SYNONYMS>  (1810) 


>  <SPECTRUM TYPE>  (1810) 
MS1

>  <INSTRUMENT TYPE>  (1810) 
EI-B

>  <INSTRUMENT>  (1810) 
HITACHI M-80B

>  <ION MODE>  (1810) 
P

>  <INCHIKEY>  (1810) 
PZHIWRCQKBBTOW-UHFFFAOYSA-N

>  <FORMULA>  (1810) 
C6H14O

>  <EXACT MASS>  (1810) 
102.104465068

>  <MW>  (1810) 
102

>  <ID>  (1810) 
JP009293

>  <CONTRIBUTOR>  (1810) 
University of Tokyo Team, {Faculty of Engineering, University of Tokyo

>  <COMMENT>  (1810) 
SMILES=CCCCOCC
InChI=InChI=1S/C6H14O/c1-3-5-6-7-4-2/h3-6H2,1-2H3
computed SMILES=O(CC)CCCC
accession=JP009293
author=SODA AROMATIC CO., LTD.
date=2016.01.19 (Created 2008.10.21, modified 2011.05.06)
license=CC BY-NC-SA
exact mass=102.10447
ionization energy=70 eV
ion type=[M]+*
computed spectral entropy=2.0775560527496943
computed normalized entropy=0.6625928512944319
SPLASH=splash10-0a7i-9000000000-83125b1763fd33f69b46
submitter=submitter = University of Tokyo Team (Faculty of Engineering, University of Tokyo)
MoNA Rating=3.75

>  <NUM PEAKS>  (1810) 
23

>  <MASS SPECTRAL PEAKS>  (1810) 
15 2.2
26 2.2
27 23.6
28 0.65
29 38.6
30 1.5
31 73.9
39 0.82
40 1
41 26
42 2.6
43 0.66
44 1.6
45 7.7
55 4.3
56 2.15
57 23.5
58 1.2
59 99.99
60 0.25
73 3.9
87 1.3
102 2.5

>  <PREDICTED SPECTRUM>  (1810) 
14 41
15 81
16 17
17 10
18 29
19 54
25 12
26 131
27 461
28 248
29 713
30 124
31 557
32 49
33 2
38 46
39 317
40 127
41 680
42 95
43 389
44 134
45 475
46 167
47 253
53 118
54 43
55 275
56 518
57 767
58 234
59 999
60 188
73 298
74 100
102 112

$$$$

     RDKit          2D

 12 11  0  0  0  0  0  0  0  0999 V2000
   -6.8200    5.0625    0.0000 C   0  0  0  0  0  0  0  0  0  0  0  0
   -5.5209    2.8125    0.0000 C   0  0  0  0  0  0  0  0  0  0  0  0
    3.5724    5.0625    0.0000 C   0  0  0  0  0  0  0  0  0  0  0  0
    2.2733    2.8125    0.0000 C   0  0  0  0  0  0  0  0  0  0  0  0
   -0.3248    2.8125    0.0000 C   0  0  0  0  0  0  0  0  0  0  0  0
   -4.2219    5.0625    0.0000 C   0  0  0  0  0  0  0  0  0  0  0  0
   -2.9228    4.3125    0.0000 C   0  0  0  0  0  0  0  0  0  0  0  0
   -5.5209    4.3125    0.0000 C   0  0  0  0  0  0  0  0  0  0  0  0
    2.2733    4.3125    0.0000 C   0  0  0  0  0  0  0  0  0  0  0  0
   -0.3248    4.3125    0.0000 C   0  0  0  0  0  0  0  0  0  0  0  0
   -1.6238    5.0625    0.0000 O   0  0  0  0  0  0  0  0  0  0  0  0
    0.9743    5.0625    0.0000 O   0  0  0  0  0  0  0  0  0  0  0  0
  7  6  1  0
  8  1  1  0
  8  2  1  0
  8  6  1  0
  9  3  1  0
  9  4  1  0
 10  5  1  0
 11  7  1  0
 11 10  1  0
 12  9  1  0
 12 10  1  0
M  END
>  <NAME>  (1811) 
ACETALDEHYDE ISOPENTYL ISOPROPYL ACETAL

>  <SYNONYMS>  (1811) 
ACETALDEHYDE ISOAMYL ISOPROPYL ACETAL

>  <SPECTRUM TYPE>  (1811) 
MS1

>  <INSTRUMENT TYPE>  (1811) 
EI-B

>  <INSTRUMENT>  (1811) 
HITACHI M-80B

>  <ION MODE>  (1811) 
P

>  <INCHIKEY>  (1811) 
FUVLXJQGLJXAQI-UHFFFAOYSA-N

>  <FORMULA>  (1811) 
C10H22O2

>  <EXACT MASS>  (1811) 
174.161979944

>  <MW>  (1811) 
174

>  <ID>  (1811) 
JP009292

>  <CONTRIBUTOR>  (1811) 
University of Tokyo Team, {Faculty of Engineering, University of Tokyo

>  <COMMENT>  (1811) 
SMILES=CC(C)CCOC(C)OC(C)C
InChI=InChI=1S/C10H22O2/c1-8(2)6-7-11-10(5)12-9(3)4/h8-10H,6-7H2,1-5H3
computed SMILES=O(CCC(C)C)C(OC(C)C)C
accession=JP009292
date=2016.01.19 (Created 2008.10.21, modified 2011.05.06)
author=SODA AROMATIC CO., LTD.
license=CC BY-NC-SA
exact mass=174.16198
ionization energy=70 eV
ion type=[M]+*
computed spectral entropy=2.3129610041482995
computed normalized entropy=0.6800431567479222
SPLASH=splash10-007a-9000000000-1b0ab547812b90ffc8fe
submitter=submitter = University of Tokyo Team (Faculty of Engineering, University of Tokyo)
MoNA Rating=3.75

>  <NUM PEAKS>  (1811) 
30

>  <MASS SPECTRAL PEAKS>  (1811) 
15 1.8
27 13.9
29 7.9
31 0.17
39 11.8
41 24.7
42 8
43 8.5
44 4.7
45 99.99
46 2.1
53 0.14
55 12.9
56 1.3
57 1.2
58 0.18
59 1.3
61 1.1
69 8.5
70 0.24
71 88.6
72 6.5
87 96.5
88 0.46
89 1.1
115 15.7
116 1.1
117 0.88
159 16.2
160 1.8

>  <PREDICTED SPECTRUM>  (1811) 
14 6
15 64
26 52
27 296
28 18
29 217
31 154
33 17
39 206
40 111
41 442
42 207
43 816
44 232
45 684
46 47
52 10
53 73
54 17
55 277
56 75
57 59
59 38
61 24
69 96
70 136
71 999
72 296
73 216
86 72
87 925
88 160
89 110
99 15
101 36
102 30
115 352
116 134
117 61
129 120
131 45
159 223

$$$$

     RDKit          2D

 11 10  0  0  0  0  0  0  0  0999 V2000
    2.5981    4.5000    0.0000 C   0  0  0  0  0  0  0  0  0  0  0  0
   -7.7942    4.5000    0.0000 C   0  0  0  0  0  0  0  0  0  0  0  0
   -6.4952    6.7500    0.0000 C   0  0  0  0  0  0  0  0  0  0  0  0
   -3.8971    6.7500    0.0000 C   0  0  0  0  0  0  0  0  0  0  0  0
    1.2990    5.2500    0.0000 C   0  0  0  0  0  0  0  0  0  0  0  0
    0.0000    4.5000    0.0000 C   0  0  0  0  0  0  0  0  0  0  0  0
   -1.2990    5.2500    0.0000 C   0  0  0  0  0  0  0  0  0  0  0  0
   -6.4952    5.2500    0.0000 C   0  0  0  0  0  0  0  0  0  0  0  0
   -3.8971    5.2500    0.0000 C   0  0  0  0  0  0  0  0  0  0  0  0
   -2.5981    4.5000    0.0000 O   0  0  0  0  0  0  0  0  0  0  0  0
   -5.1962    4.5000    0.0000 O   0  0  0  0  0  0  0  0  0  0  0  0
  5  1  1  0
  6  5  1  0
  7  6  1  0
  8  2  1  0
  8  3  1  0
  9  4  1  0
 10  7  1  0
 10  9  1  0
 11  8  1  0
 11  9  1  0
M  END
>  <NAME>  (1812) 
ACETALDEHYDE BUTYL ISOPROPYL ACETAL

>  <SYNONYMS>  (1812) 


>  <SPECTRUM TYPE>  (1812) 
MS1

>  <INSTRUMENT TYPE>  (1812) 
EI-B

>  <INSTRUMENT>  (1812) 
HITACHI M-80B

>  <ION MODE>  (1812) 
P

>  <INCHIKEY>  (1812) 
MDDRKDNGWLHURG-UHFFFAOYSA-N

>  <FORMULA>  (1812) 
C9H20O2

>  <EXACT MASS>  (1812) 
160.14632988

>  <MW>  (1812) 
160

>  <ID>  (1812) 
JP009291

>  <CONTRIBUTOR>  (1812) 
University of Tokyo Team, {Faculty of Engineering, University of Tokyo

>  <COMMENT>  (1812) 
SMILES=CCCCOC(C)OC(C)C
InChI=InChI=1S/C9H20O2/c1-5-6-7-10-9(4)11-8(2)3/h8-9H,5-7H2,1-4H3
computed SMILES=O(CCCC)C(OC(C)C)C
accession=JP009291
date=2016.01.19 (Created 2008.10.21, modified 2011.05.06)
author=SODA AROMATIC CO., LTD.
license=CC BY-NC-SA
exact mass=160.14633
ionization energy=70 eV
ion type=[M]+*
computed spectral entropy=2.182752320583137
computed normalized entropy=0.6781101351346822
SPLASH=splash10-0002-9100000000-d0824f08143fcf25283e
submitter=submitter = University of Tokyo Team (Faculty of Engineering, University of Tokyo)
MoNA Rating=3.75

>  <NUM PEAKS>  (1812) 
25

>  <MASS SPECTRAL PEAKS>  (1812) 
15 1.5
27 11.3
28 3.1
29 1.41
31 2.6
39 4.5
41 22.5
42 0.3
43 29.3
44 2.5
45 99.99
46 0.22
55 3
56 2.7
57 53.3
58 0.28
61 2.9
69 2.2
73 1.1
87 5.33
88 2.9
101 18.3
102 1.4
103 0.75
145 11.5

>  <PREDICTED SPECTRUM>  (1812) 
14 7
15 79
19 24
26 36
27 261
28 84
29 295
31 221
32 24
33 17
39 213
40 63
41 533
42 145
43 578
44 186
45 999
46 61
47 35
53 35
54 7
55 183
56 238
57 721
58 176
59 141
60 37
61 57
71 89
72 25
73 344
74 18
75 1
85 57
87 376
88 172
89 215
90 39
101 503
102 106
103 108
117 40
145 310
146 15

$$$$

     RDKit          2D

 10  9  0  0  0  0  0  0  0  0999 V2000
    2.2733    2.8125    0.0000 C   0  0  0  0  0  0  0  0  0  0  0  0
    0.9743    5.0625    0.0000 C   0  0  0  0  0  0  0  0  0  0  0  0
   -5.5209    2.8125    0.0000 C   0  0  0  0  0  0  0  0  0  0  0  0
   -4.2219    5.0625    0.0000 C   0  0  0  0  0  0  0  0  0  0  0  0
   -1.6238    5.0625    0.0000 C   0  0  0  0  0  0  0  0  0  0  0  0
    0.9743    3.5625    0.0000 C   0  0  0  0  0  0  0  0  0  0  0  0
   -4.2219    3.5625    0.0000 C   0  0  0  0  0  0  0  0  0  0  0  0
   -1.6238    3.5625    0.0000 C   0  0  0  0  0  0  0  0  0  0  0  0
   -0.3248    2.8125    0.0000 O   0  0  0  0  0  0  0  0  0  0  0  0
   -2.9228    2.8125    0.0000 O   0  0  0  0  0  0  0  0  0  0  0  0
  6  1  1  0
  6  2  1  0
  7  3  1  0
  7  4  1  0
  8  5  1  0
  9  6  1  0
  9  8  1  0
 10  7  1  0
 10  8  1  0
M  END
>  <NAME>  (1813) 
ACETALDEHYDE DIISOPROPYL ACETAL

>  <SYNONYMS>  (1813) 


>  <SPECTRUM TYPE>  (1813) 
MS1

>  <INSTRUMENT TYPE>  (1813) 
EI-B

>  <INSTRUMENT>  (1813) 
HITACHI M-80B

>  <ION MODE>  (1813) 
P

>  <INCHIKEY>  (1813) 
TWWSMHPNERSWRN-UHFFFAOYSA-N

>  <FORMULA>  (1813) 
C8H18O2

>  <EXACT MASS>  (1813) 
146.130679816

>  <MW>  (1813) 
146

>  <ID>  (1813) 
JP009290

>  <CONTRIBUTOR>  (1813) 
University of Tokyo Team, {Faculty of Engineering, University of Tokyo

>  <COMMENT>  (1813) 
SMILES=CC(C)OC(C)OC(C)C
InChI=InChI=1S/C8H18O2/c1-6(2)9-8(5)10-7(3)4/h6-8H,1-5H3
computed SMILES=O(C(OC(C)C)C)C(C)C
accession=JP009290
date=2016.01.19 (Created 2008.10.21, modified 2011.05.06)
author=SODA AROMATIC CO., LTD.
license=CC BY-NC-SA
exact mass=146.13068
ionization energy=70 eV
ion type=[M]+*
computed spectral entropy=1.8311848991537678
computed normalized entropy=0.6335464959312519
SPLASH=splash10-000b-9000000000-3fe7863153b24076f2a0
submitter=submitter = University of Tokyo Team (Faculty of Engineering, University of Tokyo)
MoNA Rating=3.75

>  <NUM PEAKS>  (1813) 
18

>  <MASS SPECTRAL PEAKS>  (1813) 
18 13.6
20 1.5
28 1.7
39 0.49
40 1.1
41 8.8
42 2.7
43 5.33
45 99.99
47 4.2
58 2.6
59 0.91
61 2.8
69 4.1
87 43.5
88 0.15
89 13
131 8.2

>  <PREDICTED SPECTRUM>  (1813) 
14 21
15 173
19 4
26 27
27 271
28 54
29 150
31 122
32 4
33 7
38 15
39 286
40 102
41 612
42 176
43 999
44 157
45 699
46 156
47 160
59 234
60 114
61 362
62 328
63 330
72 40
73 49
74 76
75 140
76 27
87 391
88 132
89 221
103 131
104 78
105 28
131 25

$$$$

     RDKit          2D

 11 10  0  0  0  0  0  0  0  0999 V2000
    2.5981    4.5000    0.0000 C   0  0  0  0  0  0  0  0  0  0  0  0
   -7.7942    4.5000    0.0000 C   0  0  0  0  0  0  0  0  0  0  0  0
   -6.4952    6.7500    0.0000 C   0  0  0  0  0  0  0  0  0  0  0  0
   -2.5981    3.0000    0.0000 C   0  0  0  0  0  0  0  0  0  0  0  0
    1.2990    5.2500    0.0000 C   0  0  0  0  0  0  0  0  0  0  0  0
    0.0000    4.5000    0.0000 C   0  0  0  0  0  0  0  0  0  0  0  0
   -5.1962    4.5000    0.0000 C   0  0  0  0  0  0  0  0  0  0  0  0
   -6.4952    5.2500    0.0000 C   0  0  0  0  0  0  0  0  0  0  0  0
   -2.5981    4.5000    0.0000 C   0  0  0  0  0  0  0  0  0  0  0  0
   -1.2990    5.2500    0.0000 O   0  0  0  0  0  0  0  0  0  0  0  0
   -3.8971    5.2500    0.0000 O   0  0  0  0  0  0  0  0  0  0  0  0
  5  1  1  0
  6  5  1  0
  8  2  1  0
  8  3  1  0
  8  7  1  0
  9  4  1  0
 10  6  1  0
 10  9  1  0
 11  7  1  0
 11  9  1  0
M  END
>  <NAME>  (1814) 
ACETALDEHYDE ISOBUTYL PROPYL ACETAL

>  <SYNONYMS>  (1814) 


>  <SPECTRUM TYPE>  (1814) 
MS1

>  <INSTRUMENT TYPE>  (1814) 
EI-B

>  <INSTRUMENT>  (1814) 
HITACHI M-80B

>  <ION MODE>  (1814) 
P

>  <INCHIKEY>  (1814) 
ZTFNAAOKRDLYDA-UHFFFAOYSA-N

>  <FORMULA>  (1814) 
C9H20O2

>  <EXACT MASS>  (1814) 
160.14632988

>  <MW>  (1814) 
160

>  <ID>  (1814) 
JP009289

>  <CONTRIBUTOR>  (1814) 
University of Tokyo Team, {Faculty of Engineering, University of Tokyo

>  <COMMENT>  (1814) 
SMILES=CCCOC(C)OCC(C)C
InChI=InChI=1S/C9H20O2/c1-5-6-10-9(4)11-7-8(2)3/h8-9H,5-7H2,1-4H3
computed SMILES=O(CCC)C(OCC(C)C)C
accession=JP009289
date=2016.01.19 (Created 2008.10.21, modified 2011.05.06)
author=SODA AROMATIC CO., LTD.
license=CC BY-NC-SA
exact mass=160.14633
ionization energy=70 eV
ion type=[M]+*
computed spectral entropy=2.3083961201272816
computed normalized entropy=0.7085106574310049
SPLASH=splash10-052n-9000000000-797c67ee6f0c92391d50
submitter=submitter = University of Tokyo Team (Faculty of Engineering, University of Tokyo)
MoNA Rating=3.75

>  <NUM PEAKS>  (1814) 
26

>  <MASS SPECTRAL PEAKS>  (1814) 
15 1.7
26 1
27 19.6
28 0.54
29 18.6
31 4.8
39 9.9
40 0.13
41 33.5
42 4.6
43 47.4
44 0.19
45 99.99
46 1.8
47 1.4
55 0.16
56 3.8
57 64.7
58 7.6
61 0.19
87 61.6
88 3.5
89 5.4
101 1.76
117 1.9
145 6.5

>  <PREDICTED SPECTRUM>  (1814) 
14 13
15 106
16 7
19 14
26 54
27 261
28 108
29 366
31 216
32 11
33 12
39 284
40 75
41 681
42 281
43 666
44 218
45 919
46 73
47 16
53 48
54 21
55 117
56 330
57 999
58 310
59 114
60 20
61 50
73 153
85 5
87 843
88 218
89 282
101 492
102 116
103 175
117 66
145 352
146 56

$$$$

     RDKit          2D

 12 11  0  0  0  0  0  0  0  0999 V2000
   -6.8200    5.0625    0.0000 C   0  0  0  0  0  0  0  0  0  0  0  0
   -5.5209    2.8125    0.0000 C   0  0  0  0  0  0  0  0  0  0  0  0
    3.5724    5.0625    0.0000 C   0  0  0  0  0  0  0  0  0  0  0  0
    2.2733    2.8125    0.0000 C   0  0  0  0  0  0  0  0  0  0  0  0
   -1.6238    6.5625    0.0000 C   0  0  0  0  0  0  0  0  0  0  0  0
   -4.2219    5.0625    0.0000 C   0  0  0  0  0  0  0  0  0  0  0  0
    0.9743    5.0625    0.0000 C   0  0  0  0  0  0  0  0  0  0  0  0
   -5.5209    4.3125    0.0000 C   0  0  0  0  0  0  0  0  0  0  0  0
    2.2733    4.3125    0.0000 C   0  0  0  0  0  0  0  0  0  0  0  0
   -1.6238    5.0625    0.0000 C   0  0  0  0  0  0  0  0  0  0  0  0
   -2.9228    4.3125    0.0000 O   0  0  0  0  0  0  0  0  0  0  0  0
   -0.3248    4.3125    0.0000 O   0  0  0  0  0  0  0  0  0  0  0  0
  8  1  1  0
  8  2  1  0
  8  6  1  0
  9  3  1  0
  9  4  1  0
  9  7  1  0
 10  5  1  0
 11  6  1  0
 11 10  1  0
 12  7  1  0
 12 10  1  0
M  END
>  <NAME>  (1815) 
ACETALDEHYDE DIISOBUTYL ACETAL

>  <SYNONYMS>  (1815) 


>  <SPECTRUM TYPE>  (1815) 
MS1

>  <INSTRUMENT TYPE>  (1815) 
EI-B

>  <INSTRUMENT>  (1815) 
HITACHI M-80B

>  <ION MODE>  (1815) 
P

>  <INCHIKEY>  (1815) 
KIELJSVPUISYCI-UHFFFAOYSA-N

>  <FORMULA>  (1815) 
C10H22O2

>  <EXACT MASS>  (1815) 
174.161979944

>  <MW>  (1815) 
174

>  <ID>  (1815) 
JP009288

>  <CONTRIBUTOR>  (1815) 
University of Tokyo Team, {Faculty of Engineering, University of Tokyo

>  <COMMENT>  (1815) 
computed SMILES=O(CC(C)C)C(OCC(C)C)C
SMILES=CC(C)COC(C)OCC(C)C
InChI=InChI=1S/C10H22O2/c1-8(2)6-11-10(5)12-7-9(3)4/h8-10H,6-7H2,1-5H3
accession=JP009288
date=2016.01.19 (Created 2008.10.21, modified 2011.05.06)
author=SODA AROMATIC CO., LTD.
license=CC BY-NC-SA
exact mass=174.16198
ionization energy=70 eV
ion type=[M]+*
computed spectral entropy=1.988718867727724
computed normalized entropy=0.6532120910282441
SPLASH=splash10-0a4i-9200000000-2617ab1b5764e58e8a4d
submitter=submitter = University of Tokyo Team (Faculty of Engineering, University of Tokyo)
MoNA Rating=3.75

>  <NUM PEAKS>  (1815) 
21

>  <MASS SPECTRAL PEAKS>  (1815) 
15 1.1
27 9.9
28 4
29 1.96
31 3.4
33 1
39 7.7
41 2.93
42 3.7
43 9.8
45 34.9
55 0.26
56 5.1
57 99.99
58 7.9
83 0.14
101 47.1
102 3.3
103 1.1
131 0.12
159 3.4

>  <PREDICTED SPECTRUM>  (1815) 
26 2
27 124
28 26
29 266
31 82
39 174
41 503
42 116
43 360
44 98
45 340
46 15
55 83
56 242
57 999
58 138
59 67
72 68
73 76
75 5
87 73
101 610
102 71
103 155
115 2
116 6
117 203
118 13
131 32
145 32
159 126
174 9

$$$$

     RDKit          2D

 13 12  0  0  0  0  0  0  0  0999 V2000
    0.9743    2.0625    0.0000 C   0  0  0  0  0  0  0  0  0  0  0  0
   -6.8200    5.0625    0.0000 C   0  0  0  0  0  0  0  0  0  0  0  0
   -5.5209    2.8125    0.0000 C   0  0  0  0  0  0  0  0  0  0  0  0
    3.5724    5.0625    0.0000 C   0  0  0  0  0  0  0  0  0  0  0  0
    2.2733    2.8125    0.0000 C   0  0  0  0  0  0  0  0  0  0  0  0
   -0.3248    2.8125    0.0000 C   0  0  0  0  0  0  0  0  0  0  0  0
   -4.2219    5.0625    0.0000 C   0  0  0  0  0  0  0  0  0  0  0  0
   -2.9228    4.3125    0.0000 C   0  0  0  0  0  0  0  0  0  0  0  0
   -5.5209    4.3125    0.0000 C   0  0  0  0  0  0  0  0  0  0  0  0
    2.2733    4.3125    0.0000 C   0  0  0  0  0  0  0  0  0  0  0  0
   -0.3248    4.3125    0.0000 C   0  0  0  0  0  0  0  0  0  0  0  0
   -1.6238    5.0625    0.0000 O   0  0  0  0  0  0  0  0  0  0  0  0
    0.9743    5.0625    0.0000 O   0  0  0  0  0  0  0  0  0  0  0  0
  6  1  1  0
  8  7  1  0
  9  2  1  0
  9  3  1  0
  9  7  1  0
 10  4  1  0
 10  5  1  0
 11  6  1  0
 12  8  1  0
 12 11  1  0
 13 10  1  0
 13 11  1  0
M  END
>  <NAME>  (1816) 
PROPANAL ISOPENTYL ISOPROPYL ACETAL

>  <SYNONYMS>  (1816) 
PROPANAL ISOAMYL ISOPROPYL ACETAL

>  <SPECTRUM TYPE>  (1816) 
MS1

>  <INSTRUMENT TYPE>  (1816) 
EI-B

>  <INSTRUMENT>  (1816) 
HITACHI M-80B

>  <ION MODE>  (1816) 
P

>  <INCHIKEY>  (1816) 
JWKHUAAWOAFUMW-UHFFFAOYSA-N

>  <FORMULA>  (1816) 
C11H24O2

>  <EXACT MASS>  (1816) 
188.177630008

>  <MW>  (1816) 
188

>  <ID>  (1816) 
JP009287

>  <CONTRIBUTOR>  (1816) 
University of Tokyo Team, {Faculty of Engineering, University of Tokyo

>  <COMMENT>  (1816) 
SMILES=CCC(OCCC(C)C)OC(C)C
InChI=InChI=1S/C11H24O2/c1-6-11(13-10(4)5)12-8-7-9(2)3/h9-11H,6-8H2,1-5H3
computed SMILES=O(CCC(C)C)C(OC(C)C)CC
accession=JP009287
date=2016.01.19 (Created 2008.10.21, modified 2011.05.06)
author=SODA AROMATIC CO., LTD.
license=CC BY-NC-SA
exact mass=188.17763
ionization energy=70 eV
ion type=[M]+*
computed spectral entropy=2.17456729719143
computed normalized entropy=0.667434887767924
SPLASH=splash10-05fu-9200000000-00a7e789767f58e23b2a
submitter=submitter = University of Tokyo Team (Faculty of Engineering, University of Tokyo)
MoNA Rating=3.75

>  <NUM PEAKS>  (1816) 
26

>  <MASS SPECTRAL PEAKS>  (1816) 
27 7.6
29 6.7
31 5.4
39 0.39
41 19
42 3.9
43 67.2
44 0.19
45 3.5
47 1
53 1
55 0.49
58 2.6
59 69.6
60 2.3
69 0.11
71 99.99
72 4.7
74 1
89 0.13
101 39.4
102 2.5
117 15.1
129 0.76
159 9.5
160 1.2

>  <PREDICTED SPECTRUM>  (1816) 
15 20
26 24
27 276
28 103
29 289
31 289
39 175
40 91
41 411
42 197
43 728
44 155
45 137
47 84
53 47
55 209
56 43
57 44
58 197
59 911
60 106
70 129
71 999
72 362
73 52
101 581
102 98
103 51
115 34
117 28
129 166
130 81
159 300

$$$$

     RDKit          2D

 15 15  0  0  0  0  0  0  0  0999 V2000
   -4.2216    6.1321    0.0000 C   0  0  0  0  0  0  0  0  0  0  0  0
   -6.8197    3.1321    0.0000 C   0  0  0  0  0  0  0  0  0  0  0  0
   -5.5207    5.3821    0.0000 C   0  0  0  0  0  0  0  0  0  0  0  0
   -2.9226    5.3821    0.0000 C   0  0  0  0  0  0  0  0  0  0  0  0
    3.5726    1.6321    0.0000 C   0  0  0  0  0  0  0  0  0  0  0  0
    3.5731    3.1329    0.0000 C   0  0  0  0  0  0  0  0  0  0  0  0
    2.2731    0.8813    0.0000 C   0  0  0  0  0  0  0  0  0  0  0  0
    2.2740    3.8829    0.0000 C   0  0  0  0  0  0  0  0  0  0  0  0
    0.9740    1.6313    0.0000 C   0  0  0  0  0  0  0  0  0  0  0  0
   -0.3245    3.8821    0.0000 C   0  0  0  0  0  0  0  0  0  0  0  0
   -5.5207    3.8821    0.0000 C   0  0  0  0  0  0  0  0  0  0  0  0
    0.9745    3.1321    0.0000 C   0  0  0  0  0  0  0  0  0  0  0  0
   -2.9226    3.8821    0.0000 C   0  0  0  0  0  0  0  0  0  0  0  0
   -1.6236    3.1321    0.0000 O   0  0  0  0  0  0  0  0  0  0  0  0
   -4.2216    3.1321    0.0000 O   0  0  0  0  0  0  0  0  0  0  0  0
  4  1  1  0
  6  5  2  0
  7  5  1  0
  8  6  1  0
  9  7  2  0
 11  2  1  0
 11  3  1  0
 12  8  2  0
 12  9  1  0
 12 10  1  0
 13  4  1  0
 14 10  1  0
 14 13  1  0
 15 11  1  0
 15 13  1  0
M  END
>  <NAME>  (1817) 
PROPANAL BENZYL ISOPROPYL ACETAL

>  <SYNONYMS>  (1817) 


>  <SPECTRUM TYPE>  (1817) 
MS1

>  <INSTRUMENT TYPE>  (1817) 
EI-B

>  <INSTRUMENT>  (1817) 
HITACHI M-80B

>  <ION MODE>  (1817) 
P

>  <INCHIKEY>  (1817) 
AMCIABLINRQKGJ-UHFFFAOYSA-N

>  <FORMULA>  (1817) 
C13H20O2

>  <EXACT MASS>  (1817) 
208.14632988

>  <MW>  (1817) 
208

>  <ID>  (1817) 
JP009286

>  <CONTRIBUTOR>  (1817) 
University of Tokyo Team, {Faculty of Engineering, University of Tokyo

>  <COMMENT>  (1817) 
SMILES=CCC(OC(C)C)OCc(c1)cccc1
InChI=InChI=1S/C13H20O2/c1-4-13(15-11(2)3)14-10-12-8-6-5-7-9-12/h5-9,11,13H,4,10H2,1-3H3
computed SMILES=O(CC=1C=CC=CC1)C(OC(C)C)CC
accession=JP009286
date=2016.01.19 (Created 2008.10.21, modified 2011.05.06)
author=SODA AROMATIC CO., LTD.
license=CC BY-NC-SA
exact mass=208.14633
ionization energy=70 eV
ion type=[M]+*
computed spectral entropy=1.861886237221629
computed normalized entropy=0.602348969746032
SPLASH=splash10-0006-9000000000-3b11ef8771d44a867ef2
submitter=submitter = University of Tokyo Team (Faculty of Engineering, University of Tokyo)
MoNA Rating=3.75

>  <NUM PEAKS>  (1817) 
22

>  <MASS SPECTRAL PEAKS>  (1817) 
27 4.8
29 3.1
31 1.9
39 0.45
41 5.5
43 8.1
51 2
57 0.14
59 22.9
63 1.3
65 8.5
77 0.35
79 2.3
89 1.6
90 2.1
91 99.99
92 8.5
101 3.4
107 1.9
108 0.1
148 2.1
179 5.6

>  <PREDICTED SPECTRUM>  (1817) 
26 4
27 91
28 31
29 102
31 63
38 24
39 119
40 34
41 211
42 51
43 254
44 72
45 90
50 78
51 134
52 77
53 24
55 73
56 30
57 40
58 106
59 355
60 22
61 18
62 24
63 123
64 69
65 266
66 46
75 8
77 92
78 40
79 91
87 8
89 108
90 131
91 999
92 403
93 66
105 25
106 37
107 120
108 83

$$$$

     RDKit          2D

 10  9  0  0  0  0  0  0  0  0999 V2000
   -0.3248    5.8125    0.0000 C   0  0  0  0  0  0  0  0  0  0  0  0
    2.2733    2.8125    0.0000 C   0  0  0  0  0  0  0  0  0  0  0  0
   -5.5209    2.8125    0.0000 C   0  0  0  0  0  0  0  0  0  0  0  0
   -4.2219    5.0625    0.0000 C   0  0  0  0  0  0  0  0  0  0  0  0
   -1.6238    5.0625    0.0000 C   0  0  0  0  0  0  0  0  0  0  0  0
    0.9743    3.5625    0.0000 C   0  0  0  0  0  0  0  0  0  0  0  0
   -4.2219    3.5625    0.0000 C   0  0  0  0  0  0  0  0  0  0  0  0
   -1.6238    3.5625    0.0000 C   0  0  0  0  0  0  0  0  0  0  0  0
   -0.3248    2.8125    0.0000 O   0  0  0  0  0  0  0  0  0  0  0  0
   -2.9228    2.8125    0.0000 O   0  0  0  0  0  0  0  0  0  0  0  0
  5  1  1  0
  6  2  1  0
  7  3  1  0
  7  4  1  0
  8  5  1  0
  9  6  1  0
  9  8  1  0
 10  7  1  0
 10  8  1  0
M  END
>  <NAME>  (1818) 
PROPANAL ETHYL ISOPROPYL ACETAL

>  <SYNONYMS>  (1818) 


>  <SPECTRUM TYPE>  (1818) 
MS1

>  <INSTRUMENT TYPE>  (1818) 
EI-B

>  <INSTRUMENT>  (1818) 
HITACHI M-80B

>  <ION MODE>  (1818) 
P

>  <INCHIKEY>  (1818) 
ITHBKLPXPKVPOR-UHFFFAOYSA-N

>  <FORMULA>  (1818) 
C8H18O2

>  <EXACT MASS>  (1818) 
146.130679816

>  <MW>  (1818) 
146

>  <ID>  (1818) 
JP009285

>  <CONTRIBUTOR>  (1818) 
University of Tokyo Team, {Faculty of Engineering, University of Tokyo

>  <COMMENT>  (1818) 
SMILES=CCOC(CC)OC(C)C
InChI=InChI=1S/C8H18O2/c1-5-8(9-6-2)10-7(3)4/h7-8H,5-6H2,1-4H3
computed SMILES=O(CC)C(OC(C)C)CC
accession=JP009285
date=2016.01.19 (Created 2008.10.21, modified 2011.05.06)
author=SODA AROMATIC CO., LTD.
license=CC BY-NC-SA
exact mass=146.13068
ionization energy=70 eV
ion type=[M]+*
computed spectral entropy=2.401366636976047
computed normalized entropy=0.7286060368295221
SPLASH=splash10-056r-9000000000-bc3640401f79c40c0f09
submitter=submitter = University of Tokyo Team (Faculty of Engineering, University of Tokyo)
MoNA Rating=3.75

>  <NUM PEAKS>  (1818) 
27

>  <MASS SPECTRAL PEAKS>  (1818) 
14 1.5
15 3.4
19 1.2
26 0.18
27 20
28 3.1
29 25.4
30 0.16
31 15.9
39 5.7
40 1.2
41 1.47
42 3.8
43 28
44 1.5
45 1.06
47 42
57 7.1
58 4.6
59 99.99
60 3
75 61.2
76 1.8
87 3.45
88 1.8
101 10.1
117 11.5

>  <PREDICTED SPECTRUM>  (1818) 
14 21
15 109
19 37
25 3
26 84
27 346
28 139
29 465
30 14
31 427
32 16
33 55
39 152
40 56
41 307
42 133
43 504
44 161
45 150
46 22
47 377
53 28
57 217
58 181
59 999
60 116
71 105
72 22
73 284
74 28
75 523
76 57
86 30
87 182
88 71
101 264
117 375

$$$$

     RDKit          2D

 11 10  0  0  0  0  0  0  0  0999 V2000
   -2.9228    5.8125    0.0000 C   0  0  0  0  0  0  0  0  0  0  0  0
    2.2733    2.8125    0.0000 C   0  0  0  0  0  0  0  0  0  0  0  0
    0.9743    5.0625    0.0000 C   0  0  0  0  0  0  0  0  0  0  0  0
   -5.5209    2.8125    0.0000 C   0  0  0  0  0  0  0  0  0  0  0  0
   -4.2219    5.0625    0.0000 C   0  0  0  0  0  0  0  0  0  0  0  0
   -1.6238    5.0625    0.0000 C   0  0  0  0  0  0  0  0  0  0  0  0
    0.9743    3.5625    0.0000 C   0  0  0  0  0  0  0  0  0  0  0  0
   -4.2219    3.5625    0.0000 C   0  0  0  0  0  0  0  0  0  0  0  0
   -1.6238    3.5625    0.0000 C   0  0  0  0  0  0  0  0  0  0  0  0
   -0.3248    2.8125    0.0000 O   0  0  0  0  0  0  0  0  0  0  0  0
   -2.9228    2.8125    0.0000 O   0  0  0  0  0  0  0  0  0  0  0  0
  6  1  1  0
  7  2  1  0
  7  3  1  0
  8  4  1  0
  8  5  1  0
  9  6  1  0
 10  7  1  0
 10  9  1  0
 11  8  1  0
 11  9  1  0
M  END
>  <NAME>  (1819) 
PROPANAL DIISOPROPYL ACETAL

>  <SYNONYMS>  (1819) 


>  <SPECTRUM TYPE>  (1819) 
MS1

>  <INSTRUMENT TYPE>  (1819) 
EI-B

>  <INSTRUMENT>  (1819) 
HITACHI M-80B

>  <ION MODE>  (1819) 
P

>  <INCHIKEY>  (1819) 
OMKOEKNZLXINHM-UHFFFAOYSA-N

>  <FORMULA>  (1819) 
C9H20O2

>  <EXACT MASS>  (1819) 
160.14632988

>  <MW>  (1819) 
160

>  <ID>  (1819) 
JP009284

>  <CONTRIBUTOR>  (1819) 
University of Tokyo Team, {Faculty of Engineering, University of Tokyo

>  <COMMENT>  (1819) 
SMILES=CCC(OC(C)C)OC(C)C
InChI=InChI=1S/C9H20O2/c1-6-9(10-7(2)3)11-8(4)5/h7-9H,6H2,1-5H3
computed SMILES=O(C(C)C)C(OC(C)C)CC
accession=JP009284
date=2016.01.19 (Created 2008.10.21, modified 2011.05.06)
author=SODA AROMATIC CO., LTD.
license=CC BY-NC-SA
exact mass=160.14633
ionization energy=70 eV
ion type=[M]+*
computed spectral entropy=2.2635111862092523
computed normalized entropy=0.7122318585652888
SPLASH=splash10-0a4l-9000000000-a775da7a22e30a7e3e6f
submitter=submitter = University of Tokyo Team (Faculty of Engineering, University of Tokyo)
MoNA Rating=3.75

>  <NUM PEAKS>  (1819) 
24

>  <MASS SPECTRAL PEAKS>  (1819) 
15 3
26 1.5
27 16.1
28 2.73
29 8.2
31 10.4
32 4.3
39 0.69
41 20.6
42 4.6
43 71.3
44 0.24
45 16.5
47 6.5
57 5.6
58 0.66
59 99.99
60 2.4
75 3.1
89 2.72
90 1.3
101 20.6
102 1.8
131 7.9

>  <PREDICTED SPECTRUM>  (1819) 
14 21
15 150
16 1
19 7
25 3
26 75
27 301
28 159
29 268
30 76
31 334
32 27
33 50
38 27
39 188
40 122
41 455
42 194
43 762
44 178
45 207
47 131
54 41
55 135
57 144
58 187
59 999
60 198
61 72
72 40
73 342
75 248
76 30
89 106
101 175
102 84
103 6
131 185
160 9
161 2

$$$$

     RDKit          2D

 18 19  0  0  0  0  0  0  0  0999 V2000
    0.9750   -1.7421    0.0000 C   0  0  0  0  0  0  0  0  0  0  0  0
    0.9750   -0.2421    0.0000 C   0  0  0  0  0  0  0  0  0  0  0  0
   -4.2212    4.2579    0.0000 C   0  0  0  0  0  0  0  0  0  0  0  0
    6.1712    4.2579    0.0000 C   0  0  0  0  0  0  0  0  0  0  0  0
   -4.2216    2.7571    0.0000 C   0  0  0  0  0  0  0  0  0  0  0  0
   -2.9216    5.0087    0.0000 C   0  0  0  0  0  0  0  0  0  0  0  0
    4.8716    5.0087    0.0000 C   0  0  0  0  0  0  0  0  0  0  0  0
    6.1716    2.7571    0.0000 C   0  0  0  0  0  0  0  0  0  0  0  0
   -2.9226    2.0071    0.0000 C   0  0  0  0  0  0  0  0  0  0  0  0
   -1.6226    4.2587    0.0000 C   0  0  0  0  0  0  0  0  0  0  0  0
    3.5726    4.2587    0.0000 C   0  0  0  0  0  0  0  0  0  0  0  0
    4.8726    2.0071    0.0000 C   0  0  0  0  0  0  0  0  0  0  0  0
   -0.3240    2.0079    0.0000 C   0  0  0  0  0  0  0  0  0  0  0  0
   -1.6231    2.7579    0.0000 C   0  0  0  0  0  0  0  0  0  0  0  0
    3.5731    2.7579    0.0000 C   0  0  0  0  0  0  0  0  0  0  0  0
    2.2740    2.0079    0.0000 C   0  0  0  0  0  0  0  0  0  0  0  0
    2.2740    0.5079    0.0000 O   0  0  0  0  0  0  0  0  0  0  0  0
    0.9750    2.7579    0.0000 O   0  0  0  0  0  0  0  0  0  0  0  0
  2  1  1  0
  5  3  2  0
  6  3  1  0
  7  4  2  0
  8  4  1  0
  9  5  1  0
 10  6  2  0
 11  7  1  0
 12  8  2  0
 14  9  2  0
 14 10  1  0
 14 13  1  0
 15 11  2  0
 15 12  1  0
 16 15  1  0
 17  2  1  0
 17 16  1  0
 18 13  1  0
 18 16  1  0
M  END
>  <NAME>  (1820) 
BENZALDEHYDE BENZYL ETHYL ACETAL

>  <SYNONYMS>  (1820) 


>  <SPECTRUM TYPE>  (1820) 
MS1

>  <INSTRUMENT TYPE>  (1820) 
EI-B

>  <INSTRUMENT>  (1820) 
HITACHI M-80B

>  <ION MODE>  (1820) 
P

>  <INCHIKEY>  (1820) 
PNNHDYOYZSRBLH-UHFFFAOYSA-N

>  <FORMULA>  (1820) 
C16H18O2

>  <EXACT MASS>  (1820) 
242.130679816

>  <MW>  (1820) 
242

>  <ID>  (1820) 
JP009283

>  <CONTRIBUTOR>  (1820) 
University of Tokyo Team, {Faculty of Engineering, University of Tokyo

>  <COMMENT>  (1820) 
SMILES=CCOC(OCc(c2)cccc2)c(c1)cccc1
InChI=InChI=1S/C16H18O2/c1-2-17-16(15-11-7-4-8-12-15)18-13-14-9-5-3-6-10-14/h3-12,16H,2,13H2,1H3
computed SMILES=O(CC=1C=CC=CC1)C(OCC)C=2C=CC=CC2
accession=JP009283
date=2016.01.19 (Created 2008.10.21, modified 2011.05.06)
author=SODA AROMATIC CO., LTD.
license=CC BY-NC-SA
exact mass=242.13068
ionization energy=70 eV
ion type=[M]+*
computed spectral entropy=2.3675631428793995
computed normalized entropy=0.7031051806603251
SPLASH=splash10-000f-9500000000-82830e1aedb8e6aa464f
submitter=submitter = University of Tokyo Team (Faculty of Engineering, University of Tokyo)
MoNA Rating=3.75

>  <NUM PEAKS>  (1820) 
29

>  <MASS SPECTRAL PEAKS>  (1820) 
27 2.7
29 6.5
39 4.2
41 0.15
50 2.1
51 12.3
52 2.9
63 0.26
64 1.3
65 12.8
77 26.5
78 0.4
79 27.8
80 1.7
89 2.7
90 0.23
91 99.99
92 15.1
105 11.7
106 0.17
107 34.9
108 2
135 63.7
136 1.8
137 1.5
151 4
167 1.5
196 0.22
197 6.2

>  <PREDICTED SPECTRUM>  (1820) 
26 43
27 136
28 82
29 162
30 30
31 101
38 29
39 162
40 17
41 61
42 32
43 70
44 20
45 170
46 11
47 48
49 5
50 108
51 231
52 107
53 33
56 4
57 4
61 31
62 71
63 146
64 80
65 304
66 18
74 44
75 16
76 6
77 403
78 165
79 390
80 50
81 0
88 9
89 254
90 173
91 999
92 361
93 75
105 358
106 6
107 523
108 216
109 50
117 10
121 50
123 38
134 36
135 671
136 258
137 72
151 117
152 26
167 55
169 28
197 210

$$$$

     RDKit          2D

 21 22  0  0  0  0  0  0  0  0999 V2000
   -5.5208    0.8823    0.0000 C   0  0  0  0  0  0  0  0  0  0  0  0
   -4.2218    3.1323    0.0000 C   0  0  0  0  0  0  0  0  0  0  0  0
    2.2734    8.3823    0.0000 C   0  0  0  0  0  0  0  0  0  0  0  0
    4.8715   -0.6177    0.0000 C   0  0  0  0  0  0  0  0  0  0  0  0
    0.9734    7.6323    0.0000 C   0  0  0  0  0  0  0  0  0  0  0  0
    3.5734    7.6323    0.0000 C   0  0  0  0  0  0  0  0  0  0  0  0
    4.8720    0.8831    0.0000 C   0  0  0  0  0  0  0  0  0  0  0  0
    3.5720   -1.3685    0.0000 C   0  0  0  0  0  0  0  0  0  0  0  0
    0.9734    6.1323    0.0000 C   0  0  0  0  0  0  0  0  0  0  0  0
    3.5734    6.1323    0.0000 C   0  0  0  0  0  0  0  0  0  0  0  0
    3.5730    1.6331    0.0000 C   0  0  0  0  0  0  0  0  0  0  0  0
    2.2730   -0.6185    0.0000 C   0  0  0  0  0  0  0  0  0  0  0  0
   -2.9227    0.8823    0.0000 C   0  0  0  0  0  0  0  0  0  0  0  0
   -1.6237    1.6323    0.0000 C   0  0  0  0  0  0  0  0  0  0  0  0
    2.2734    3.8823    0.0000 C   0  0  0  0  0  0  0  0  0  0  0  0
   -4.2218    1.6323    0.0000 C   0  0  0  0  0  0  0  0  0  0  0  0
    2.2734    5.3823    0.0000 C   0  0  0  0  0  0  0  0  0  0  0  0
    2.2734    0.8823    0.0000 C   0  0  0  0  0  0  0  0  0  0  0  0
    0.9744    1.6323    0.0000 C   0  0  0  0  0  0  0  0  0  0  0  0
   -0.3246    0.8823    0.0000 O   0  0  0  0  0  0  0  0  0  0  0  0
    0.9744    3.1323    0.0000 O   0  0  0  0  0  0  0  0  0  0  0  0
  5  3  2  0
  6  3  1  0
  7  4  2  0
  8  4  1  0
  9  5  1  0
 10  6  2  0
 11  7  1  0
 12  8  2  0
 14 13  1  0
 16  1  1  0
 16  2  1  0
 16 13  1  0
 17  9  2  0
 17 10  1  0
 17 15  1  0
 18 11  2  0
 18 12  1  0
 19 18  1  0
 20 14  1  0
 20 19  1  0
 21 15  1  0
 21 19  1  0
M  END
>  <NAME>  (1821) 
BENZALDEHYDE BENZYL ISOPENTYL ACETAL

>  <SYNONYMS>  (1821) 
BENZALDEHYDE BENZYL ISOAMYL ACETAL

>  <SPECTRUM TYPE>  (1821) 
MS1

>  <INSTRUMENT TYPE>  (1821) 
EI-B

>  <INSTRUMENT>  (1821) 
HITACHI M-80B

>  <ION MODE>  (1821) 
P

>  <INCHIKEY>  (1821) 
XFGJYOYWFTXAFO-UHFFFAOYSA-N

>  <FORMULA>  (1821) 
C19H24O2

>  <EXACT MASS>  (1821) 
284.177630008

>  <MW>  (1821) 
284

>  <ID>  (1821) 
JP009282

>  <CONTRIBUTOR>  (1821) 
University of Tokyo Team, {Faculty of Engineering, University of Tokyo

>  <COMMENT>  (1821) 
SMILES=CC(C)CCOC(OCc(c2)cccc2)c(c1)cccc1
InChI=InChI=1S/C19H24O2/c1-16(2)13-14-20-19(18-11-7-4-8-12-18)21-15-17-9-5-3-6-10-17/h3-12,16,19H,13-15H2,1-2H3
computed SMILES=O(CC=1C=CC=CC1)C(OCCC(C)C)C=2C=CC=CC2
accession=JP009282
date=2016.01.19 (Created 2008.10.21, modified 2011.05.06)
author=SODA AROMATIC CO., LTD.
license=CC BY-NC-SA
exact mass=284.17763
ionization energy=70 eV
ion type=[M]+*
computed spectral entropy=2.4291373767247286
computed normalized entropy=0.7009008894077583
SPLASH=splash10-0006-9200000000-9454d19949afa439e406
submitter=submitter = University of Tokyo Team (Faculty of Engineering, University of Tokyo)
MoNA Rating=3.75

>  <NUM PEAKS>  (1821) 
32

>  <MASS SPECTRAL PEAKS>  (1821) 
27 2.6
28 1.6
29 3.6
39 0.36
41 7.1
42 1.1
43 22
50 0.12
51 3.8
52 1
55 2.5
63 0.13
65 6.2
71 15.8
77 11.9
78 0.2
79 5
89 1.7
90 2.1
91 99.99
92 12.8
105 10.4
106 2
107 2.6
108 3
167 1.1
177 22.6
178 0.56
193 1.4
196 1.8
197 12.7
198 1.8

>  <PREDICTED SPECTRUM>  (1821) 
26 18
27 126
28 52
29 108
31 55
39 141
40 17
41 165
42 83
43 391
44 46
50 86
51 200
52 88
53 73
55 158
56 60
62 3
63 77
64 30
65 260
66 42
69 104
70 156
71 340
72 60
74 20
76 63
77 302
78 177
79 353
80 27
81 3
87 114
88 60
89 178
90 158
91 999
92 380
93 91
103 29
105 438
106 168
107 489
108 252
109 50
126 49
132 2
149 51
150 29
167 84
177 356
178 218
179 23
193 2
196 163
197 424
198 180
214 4

$$$$

     RDKit          2D

 12 11  0  0  0  0  0  0  0  0999 V2000
    0.0000    0.0000    0.0000 C   0  0  0  0  0  0  0  0  0  0  0  0
   -3.8971    6.7500    0.0000 C   0  0  0  0  0  0  0  0  0  0  0  0
   -1.2990    6.7500    0.0000 C   0  0  0  0  0  0  0  0  0  0  0  0
    2.5981    4.5000    0.0000 C   0  0  0  0  0  0  0  0  0  0  0  0
    1.2990    2.2500    0.0000 C   0  0  0  0  0  0  0  0  0  0  0  0
    0.0000    1.5000    0.0000 C   0  0  0  0  0  0  0  0  0  0  0  0
   -1.2990    2.2500    0.0000 C   0  0  0  0  0  0  0  0  0  0  0  0
   -2.5981    6.0000    0.0000 C   0  0  0  0  0  0  0  0  0  0  0  0
    1.2990    3.7500    0.0000 C   0  0  0  0  0  0  0  0  0  0  0  0
   -1.2990    3.7500    0.0000 C   0  0  0  0  0  0  0  0  0  0  0  0
   -2.5981    4.5000    0.0000 O   0  0  0  0  0  0  0  0  0  0  0  0
    0.0000    4.5000    0.0000 O   0  0  0  0  0  0  0  0  0  0  0  0
  6  1  1  0
  7  6  1  0
  8  2  1  0
  8  3  1  0
  9  4  1  0
  9  5  1  0
 10  7  1  0
 11  8  1  0
 11 10  1  0
 12  9  1  0
 12 10  1  0
M  END
>  <NAME>  (1822) 
BUTANAL DIISOPROPYL ACETAL

>  <SYNONYMS>  (1822) 


>  <SPECTRUM TYPE>  (1822) 
MS1

>  <INSTRUMENT TYPE>  (1822) 
EI-B

>  <INSTRUMENT>  (1822) 
HITACHI M-80B

>  <ION MODE>  (1822) 
P

>  <INCHIKEY>  (1822) 
QOJSNHMWGGZTDQ-UHFFFAOYSA-N

>  <FORMULA>  (1822) 
C10H22O2

>  <EXACT MASS>  (1822) 
174.161979944

>  <MW>  (1822) 
174

>  <ID>  (1822) 
JP009281

>  <CONTRIBUTOR>  (1822) 
University of Tokyo Team, {Faculty of Engineering, University of Tokyo

>  <COMMENT>  (1822) 
SMILES=CCCC(OC(C)C)OC(C)C
InChI=InChI=1S/C10H22O2/c1-6-7-10(11-8(2)3)12-9(4)5/h8-10H,6-7H2,1-5H3
computed SMILES=O(C(C)C)C(OC(C)C)CCC
accession=JP009281
date=2016.01.19 (Created 2008.10.21, modified 2011.05.06)
author=SODA AROMATIC CO., LTD.
license=CC BY-NC-SA
exact mass=174.16198
ionization energy=70 eV
ion type=[M]+*
computed spectral entropy=2.2502762249009223
computed normalized entropy=0.6827632302168583
SPLASH=splash10-0076-9000000000-39597eacc0661a1bbb60
submitter=submitter = University of Tokyo Team (Faculty of Engineering, University of Tokyo)
MoNA Rating=3.75

>  <NUM PEAKS>  (1822) 
27

>  <MASS SPECTRAL PEAKS>  (1822) 
15 1.7
27 15.4
29 4.3
31 0.42
39 6.2
40 1.3
41 22.3
42 0.42
43 99.99
44 5.3
45 14.3
47 0.62
55 36.5
56 1.7
57 3.1
59 0.43
71 3.1
72 3.1
73 89.4
74 0.35
85 1.2
89 74.4
90 2.6
115 3.17
116 2.3
131 21.2
132 1.6

>  <PREDICTED SPECTRUM>  (1822) 
15 134
26 69
27 414
28 207
29 305
30 128
31 307
33 12
37 24
38 85
39 364
40 211
41 719
42 271
43 960
44 328
45 429
46 131
47 127
53 17
54 89
55 551
56 0
57 236
59 88
67 60
71 225
72 373
73 999
74 155
75 74
87 233
88 36
89 896
90 176
91 5
101 13
115 198
116 26
131 673
132 145
174 50
175 10

$$$$

     RDKit          2D

 12 11  0  0  0  0  0  0  0  0999 V2000
    2.9228    5.4375    0.0000 C   0  0  0  0  0  0  0  0  0  0  0  0
   -8.7685    6.1875    0.0000 C   0  0  0  0  0  0  0  0  0  0  0  0
   -7.4695    3.9375    0.0000 C   0  0  0  0  0  0  0  0  0  0  0  0
   -2.2733    3.9375    0.0000 C   0  0  0  0  0  0  0  0  0  0  0  0
    1.6238    6.1875    0.0000 C   0  0  0  0  0  0  0  0  0  0  0  0
   -6.1704    6.1875    0.0000 C   0  0  0  0  0  0  0  0  0  0  0  0
    0.3248    5.4375    0.0000 C   0  0  0  0  0  0  0  0  0  0  0  0
   -4.8714    5.4375    0.0000 C   0  0  0  0  0  0  0  0  0  0  0  0
   -7.4695    5.4375    0.0000 C   0  0  0  0  0  0  0  0  0  0  0  0
   -2.2733    5.4375    0.0000 C   0  0  0  0  0  0  0  0  0  0  0  0
   -0.9743    6.1875    0.0000 O   0  0  0  0  0  0  0  0  0  0  0  0
   -3.5724    6.1875    0.0000 O   0  0  0  0  0  0  0  0  0  0  0  0
  5  1  1  0
  7  5  1  0
  8  6  1  0
  9  2  1  0
  9  3  1  0
  9  6  1  0
 10  4  1  0
 11  7  1  0
 11 10  1  0
 12  8  1  0
 12 10  1  0
M  END
>  <NAME>  (1823) 
ACETALDEHYDE ISOPENTYL PROPYL ACETAL

>  <SYNONYMS>  (1823) 
ACETALDEHYDE ISOAMYL PROPYL ACETAL

>  <SPECTRUM TYPE>  (1823) 
MS1

>  <INSTRUMENT TYPE>  (1823) 
EI-B

>  <INSTRUMENT>  (1823) 
HITACHI M-80B

>  <ION MODE>  (1823) 
P

>  <INCHIKEY>  (1823) 
VPJHYSGCDYPNSB-UHFFFAOYSA-N

>  <FORMULA>  (1823) 
C10H22O2

>  <EXACT MASS>  (1823) 
174.161979944

>  <MW>  (1823) 
174

>  <ID>  (1823) 
JP009280

>  <CONTRIBUTOR>  (1823) 
University of Tokyo Team, {Faculty of Engineering, University of Tokyo

>  <COMMENT>  (1823) 
SMILES=CCCOC(C)OCCC(C)C
InChI=InChI=1S/C10H22O2/c1-5-7-11-10(4)12-8-6-9(2)3/h9-10H,5-8H2,1-4H3
computed SMILES=O(CCC)C(OCCC(C)C)C
accession=JP009280
date=2016.01.19 (Created 2008.10.21, modified 2011.05.06)
author=SODA AROMATIC CO., LTD.
license=CC BY-NC-SA
exact mass=174.16198
ionization energy=70 eV
ion type=[M]+*
computed spectral entropy=2.4705217281162564
computed normalized entropy=0.7065683927993818
SPLASH=splash10-0076-9000000000-92c42b85d686b6dd1c5c
submitter=submitter = University of Tokyo Team (Faculty of Engineering, University of Tokyo)
MoNA Rating=3.75

>  <NUM PEAKS>  (1823) 
33

>  <MASS SPECTRAL PEAKS>  (1823) 
15 2.5
26 1.9
27 24.1
29 1.36
30 1
31 17.3
39 12.5
41 3.52
42 13.4
43 99.99
44 11.3
45 7.31
46 1.8
53 1.6
55 18.9
56 0.19
57 2.9
58 1.6
59 1.8
61 0.15
69 2.2
70 9.5
71 73.1
72 0.5
86 1.7
87 67.1
88 4
89 0.27
99 1.4
115 22.5
116 1.7
159 1.4
160 1.3

>  <PREDICTED SPECTRUM>  (1823) 
14 16
15 109
16 0
26 86
27 372
28 130
29 388
30 12
31 233
33 20
38 0
39 325
40 118
41 585
42 331
43 955
44 311
45 534
46 38
47 24
53 91
54 49
55 278
56 175
57 90
58 85
59 5
61 25
65 18
69 138
70 222
71 999
72 303
73 153
76 8
86 132
87 821
88 189
89 98
101 197
102 94
115 340
116 95
117 76
129 56
159 274

$$$$

     RDKit          2D

 13 12  0  0  0  0  0  0  0  0999 V2000
    3.2476    5.6250    0.0000 C   0  0  0  0  0  0  0  0  0  0  0  0
   -9.7428    5.6250    0.0000 C   0  0  0  0  0  0  0  0  0  0  0  0
   -8.4437    7.8750    0.0000 C   0  0  0  0  0  0  0  0  0  0  0  0
   -3.2476    7.8750    0.0000 C   0  0  0  0  0  0  0  0  0  0  0  0
    1.9486    6.3750    0.0000 C   0  0  0  0  0  0  0  0  0  0  0  0
    0.6495    5.6250    0.0000 C   0  0  0  0  0  0  0  0  0  0  0  0
   -7.1447    5.6250    0.0000 C   0  0  0  0  0  0  0  0  0  0  0  0
   -0.6495    6.3750    0.0000 C   0  0  0  0  0  0  0  0  0  0  0  0
   -5.8457    6.3750    0.0000 C   0  0  0  0  0  0  0  0  0  0  0  0
   -8.4437    6.3750    0.0000 C   0  0  0  0  0  0  0  0  0  0  0  0
   -3.2476    6.3750    0.0000 C   0  0  0  0  0  0  0  0  0  0  0  0
   -1.9486    5.6250    0.0000 O   0  0  0  0  0  0  0  0  0  0  0  0
   -4.5466    5.6250    0.0000 O   0  0  0  0  0  0  0  0  0  0  0  0
  5  1  1  0
  6  5  1  0
  8  6  1  0
  9  7  1  0
 10  2  1  0
 10  3  1  0
 10  7  1  0
 11  4  1  0
 12  8  1  0
 12 11  1  0
 13  9  1  0
 13 11  1  0
M  END
>  <NAME>  (1824) 
ACETALDEHYDE BUTYL ISOPENTYL ACETAL

>  <SYNONYMS>  (1824) 
ACETALDEHYDE BUTYL ISOAMYL ACETAL

>  <SPECTRUM TYPE>  (1824) 
MS1

>  <INSTRUMENT TYPE>  (1824) 
EI-B

>  <INSTRUMENT>  (1824) 
HITACHI M-80B

>  <ION MODE>  (1824) 
P

>  <INCHIKEY>  (1824) 
OOTKYVQGUQRYPB-UHFFFAOYSA-N

>  <FORMULA>  (1824) 
C11H24O2

>  <EXACT MASS>  (1824) 
188.177630008

>  <MW>  (1824) 
188

>  <ID>  (1824) 
JP009279

>  <CONTRIBUTOR>  (1824) 
University of Tokyo Team, {Faculty of Engineering, University of Tokyo

>  <COMMENT>  (1824) 
SMILES=CCCCOC(C)OCCC(C)C
InChI=InChI=1S/C11H24O2/c1-5-6-8-12-11(4)13-9-7-10(2)3/h10-11H,5-9H2,1-4H3
computed SMILES=O(CCCC)C(OCCC(C)C)C
accession=JP009279
date=2016.01.19 (Created 2008.10.21, modified 2011.05.06)
author=SODA AROMATIC CO., LTD.
license=CC BY-NC-SA
exact mass=188.17763
ionization energy=70 eV
ion type=[M]+*
computed spectral entropy=2.650178220484627
computed normalized entropy=0.7339347735390469
SPLASH=splash10-0kfx-9200000000-42385d3bca2dc26cd803
submitter=submitter = University of Tokyo Team (Faculty of Engineering, University of Tokyo)
MoNA Rating=3.75

>  <NUM PEAKS>  (1824) 
37

>  <MASS SPECTRAL PEAKS>  (1824) 
15 3.2
26 2.5
27 28
29 3.56
30 1.1
31 16.1
39 16.6
41 5.98
42 15
43 92.9
44 10.4
45 6.57
46 1.8
53 2.6
54 1
55 2.71
56 20.7
57 59.3
58 3.6
59 0.11
61 1.3
69 2.1
70 12.4
71 99.99
72 6.4
83 1.9
85 3
99 0.17
100 1.5
101 64
102 3.4
103 0.19
115 38.4
116 2.5
117 1.1
173 1.47
174 1.6

>  <PREDICTED SPECTRUM>  (1824) 
14 27
15 98
25 2
26 94
27 352
28 171
29 422
30 71
31 187
37 4
38 29
39 318
40 99
41 571
42 294
43 792
44 213
45 459
46 8
47 2
50 26
51 15
53 116
54 78
55 279
56 240
57 620
58 139
59 140
62 6
67 9
69 63
70 208
71 999
72 301
83 8
85 25
86 44
87 103
89 42
100 36
101 603
102 117
103 34
113 35
114 61
115 606
116 229
117 130
145 7
173 277
174 32

$$$$

     RDKit          2D

 18 18  0  0  0  0  0  0  0  0999 V2000
   -3.8971    7.8200    0.0000 C   0  0  0  0  0  0  0  0  0  0  0  0
    6.4952    3.3200    0.0000 C   0  0  0  0  0  0  0  0  0  0  0  0
    5.1962    1.0700    0.0000 C   0  0  0  0  0  0  0  0  0  0  0  0
   -2.5981    7.0700    0.0000 C   0  0  0  0  0  0  0  0  0  0  0  0
   -2.5981    5.5700    0.0000 C   0  0  0  0  0  0  0  0  0  0  0  0
    0.0000   -1.9300    0.0000 C   0  0  0  0  0  0  0  0  0  0  0  0
    1.3000   -1.1800    0.0000 C   0  0  0  0  0  0  0  0  0  0  0  0
   -1.3000   -1.1800    0.0000 C   0  0  0  0  0  0  0  0  0  0  0  0
    1.3000    0.3200    0.0000 C   0  0  0  0  0  0  0  0  0  0  0  0
   -1.3000    0.3200    0.0000 C   0  0  0  0  0  0  0  0  0  0  0  0
    3.8971    3.3200    0.0000 C   0  0  0  0  0  0  0  0  0  0  0  0
   -1.2990    4.8200    0.0000 C   0  0  0  0  0  0  0  0  0  0  0  0
    2.5981    2.5700    0.0000 C   0  0  0  0  0  0  0  0  0  0  0  0
    5.1962    2.5700    0.0000 C   0  0  0  0  0  0  0  0  0  0  0  0
    0.0000    1.0700    0.0000 C   0  0  0  0  0  0  0  0  0  0  0  0
    0.0000    2.5700    0.0000 C   0  0  0  0  0  0  0  0  0  0  0  0
   -1.2990    3.3200    0.0000 O   0  0  0  0  0  0  0  0  0  0  0  0
    1.2990    3.3200    0.0000 O   0  0  0  0  0  0  0  0  0  0  0  0
  4  1  1  0
  5  4  1  0
  7  6  2  0
  8  6  1  0
  9  7  1  0
 10  8  2  0
 12  5  1  0
 13 11  1  0
 14  2  1  0
 14  3  1  0
 14 11  1  0
 15  9  2  0
 15 10  1  0
 16 15  1  0
 17 12  1  0
 17 16  1  0
 18 13  1  0
 18 16  1  0
M  END
>  <NAME>  (1825) 
BENZALDEHYDE BUTYL ISOPENTYL ACETAL

>  <SYNONYMS>  (1825) 
BENZALDEHYDE BUTYL ISOAMYL ACETAL

>  <SPECTRUM TYPE>  (1825) 
MS1

>  <INSTRUMENT TYPE>  (1825) 
EI-B

>  <INSTRUMENT>  (1825) 
HITACHI M-80B

>  <ION MODE>  (1825) 
P

>  <INCHIKEY>  (1825) 
BRHOZUMENSVNBY-UHFFFAOYSA-N

>  <FORMULA>  (1825) 
C16H26O2

>  <EXACT MASS>  (1825) 
250.193280072

>  <MW>  (1825) 
250

>  <ID>  (1825) 
JP009278

>  <CONTRIBUTOR>  (1825) 
University of Tokyo Team, {Faculty of Engineering, University of Tokyo

>  <COMMENT>  (1825) 
SMILES=CCCCOC(OCCC(C)C)c(c1)cccc1
InChI=InChI=1S/C16H26O2/c1-4-5-12-17-16(18-13-11-14(2)3)15-9-7-6-8-10-15/h6-10,14,16H,4-5,11-13H2,1-3H3
computed SMILES=O(CCCC)C(OCCC(C)C)C=1C=CC=CC1
accession=JP009278
date=2016.01.19 (Created 2008.10.21, modified 2011.05.06)
author=SODA AROMATIC CO., LTD.
license=CC BY-NC-SA
exact mass=250.19328
ionization energy=70 eV
ion type=[M]+*
computed spectral entropy=2.4807799272518576
computed normalized entropy=0.7158017797166276
SPLASH=splash10-0a6r-4900000000-32744fc2397a89ff203c
submitter=submitter = University of Tokyo Team (Faculty of Engineering, University of Tokyo)
MoNA Rating=3.75

>  <NUM PEAKS>  (1825) 
32

>  <MASS SPECTRAL PEAKS>  (1825) 
27 8.3
28 1.5
29 18.4
31 0.1
39 5.3
41 22.5
42 2.2
43 3.64
44 1.5
51 3.7
53 1.1
55 0.72
56 1.8
57 11.2
70 1.2
71 3.01
72 1.4
77 13.6
78 3.1
79 2.12
80 1.2
89 1.2
90 1.6
91 0.33
105 15.6
106 4.4
107 99.99
108 0.92
163 54.4
164 7.8
177 35.9
178 5

>  <PREDICTED SPECTRUM>  (1825) 
15 15
18 1
26 30
27 226
28 116
29 314
31 113
37 0
38 25
39 224
40 55
41 382
42 126
43 377
44 55
45 56
47 24
50 95
51 142
52 78
53 100
55 76
56 103
57 308
62 18
63 75
64 14
65 87
66 7
69 24
70 7
71 284
72 15
73 12
74 48
75 23
76 57
77 350
78 140
79 359
80 123
83 7
89 54
90 159
91 96
92 82
105 500
106 158
107 999
108 286
109 58
118 0
119 41
120 0
145 71
146 53
163 734
164 193
177 587
178 244
191 62

$$$$

     RDKit          2D

 17 17  0  0  0  0  0  0  0  0999 V2000
   -5.5209    0.8825    0.0000 C   0  0  0  0  0  0  0  0  0  0  0  0
    3.5724    7.6325    0.0000 C   0  0  0  0  0  0  0  0  0  0  0  0
   -4.2219    1.6325    0.0000 C   0  0  0  0  0  0  0  0  0  0  0  0
    3.5724    6.1325    0.0000 C   0  0  0  0  0  0  0  0  0  0  0  0
   -2.9228    0.8825    0.0000 C   0  0  0  0  0  0  0  0  0  0  0  0
    2.2733    5.3825    0.0000 C   0  0  0  0  0  0  0  0  0  0  0  0
    4.8714   -0.6175    0.0000 C   0  0  0  0  0  0  0  0  0  0  0  0
    4.8719    0.8833    0.0000 C   0  0  0  0  0  0  0  0  0  0  0  0
    3.5719   -1.3683    0.0000 C   0  0  0  0  0  0  0  0  0  0  0  0
    3.5728    1.6333    0.0000 C   0  0  0  0  0  0  0  0  0  0  0  0
    2.2728   -0.6183    0.0000 C   0  0  0  0  0  0  0  0  0  0  0  0
   -1.6238    1.6325    0.0000 C   0  0  0  0  0  0  0  0  0  0  0  0
    2.2733    3.8825    0.0000 C   0  0  0  0  0  0  0  0  0  0  0  0
    2.2733    0.8825    0.0000 C   0  0  0  0  0  0  0  0  0  0  0  0
    0.9743    1.6325    0.0000 C   0  0  0  0  0  0  0  0  0  0  0  0
   -0.3248    0.8825    0.0000 O   0  0  0  0  0  0  0  0  0  0  0  0
    0.9743    3.1325    0.0000 O   0  0  0  0  0  0  0  0  0  0  0  0
  3  1  1  0
  4  2  1  0
  5  3  1  0
  6  4  1  0
  8  7  2  0
  9  7  1  0
 10  8  1  0
 11  9  2  0
 12  5  1  0
 13  6  1  0
 14 10  2  0
 14 11  1  0
 15 14  1  0
 16 12  1  0
 16 15  1  0
 17 13  1  0
 17 15  1  0
M  END
>  <NAME>  (1826) 
BENZALDEHYDE DIBUTYL ACETAL

>  <SYNONYMS>  (1826) 


>  <SPECTRUM TYPE>  (1826) 
MS1

>  <INSTRUMENT TYPE>  (1826) 
EI-B

>  <INSTRUMENT>  (1826) 
HITACHI M-80B

>  <ION MODE>  (1826) 
P

>  <INCHIKEY>  (1826) 
WSVMGQQPLZDDQN-UHFFFAOYSA-N

>  <FORMULA>  (1826) 
C15H24O2

>  <EXACT MASS>  (1826) 
236.177630008

>  <MW>  (1826) 
236

>  <ID>  (1826) 
JP009277

>  <CONTRIBUTOR>  (1826) 
University of Tokyo Team, {Faculty of Engineering, University of Tokyo

>  <COMMENT>  (1826) 
SMILES=CCCCOC(OCCCC)c(c1)cccc1
InChI=InChI=1S/C15H24O2/c1-3-5-12-16-15(17-13-6-4-2)14-10-8-7-9-11-14/h7-11,15H,3-6,12-13H2,1-2H3
computed SMILES=O(CCCC)C(OCCCC)C=1C=CC=CC1
accession=JP009277
date=2016.01.19 (Created 2008.10.21, modified 2011.05.06)
author=SODA AROMATIC CO., LTD.
license=CC BY-NC-SA
exact mass=236.17763
ionization energy=70 eV
ion type=[M]+*
computed spectral entropy=2.2284389817578303
computed normalized entropy=0.6687581674393273
SPLASH=splash10-0bt9-4900000000-2a8a45374211534418f4
submitter=submitter = University of Tokyo Team (Faculty of Engineering, University of Tokyo)
MoNA Rating=3.75

>  <NUM PEAKS>  (1826) 
28

>  <MASS SPECTRAL PEAKS>  (1826) 
18 2.7
27 7.9
28 1.4
29 2.56
39 4.5
41 22.2
42 1.3
43 0.28
51 4.5
52 1
55 2.1
56 0.18
57 21.1
77 14.8
78 3.3
79 2.32
80 1.2
89 1.1
90 1.6
91 0.22
103 1
105 12.8
106 2.2
107 99.99
108 8
123 1
163 67.5
164 8.5

>  <PREDICTED SPECTRUM>  (1826) 
15 18
26 23
27 158
28 73
29 284
31 51
37 12
38 40
39 253
40 103
41 454
42 98
43 200
44 11
45 55
47 79
50 86
51 129
52 51
53 88
56 97
57 369
58 26
60 2
62 35
63 84
64 13
65 126
66 38
73 4
74 26
75 23
76 11
77 315
78 118
79 147
80 88
89 124
90 92
91 83
92 51
105 391
106 113
107 999
108 282
118 113
119 12
121 68
163 865
164 335
165 11
177 18

$$$$

     RDKit          2D

 16 16  0  0  0  0  0  0  0  0999 V2000
    1.6238    6.5075    0.0000 C   0  0  0  0  0  0  0  0  0  0  0  0
   -6.1704    2.0075    0.0000 C   0  0  0  0  0  0  0  0  0  0  0  0
   -4.8714    4.2575    0.0000 C   0  0  0  0  0  0  0  0  0  0  0  0
    1.6238    5.0075    0.0000 C   0  0  0  0  0  0  0  0  0  0  0  0
    4.2219    0.5075    0.0000 C   0  0  0  0  0  0  0  0  0  0  0  0
    4.2224    2.0083    0.0000 C   0  0  0  0  0  0  0  0  0  0  0  0
    2.9224   -0.2433    0.0000 C   0  0  0  0  0  0  0  0  0  0  0  0
    2.9233    2.7583    0.0000 C   0  0  0  0  0  0  0  0  0  0  0  0
    1.6233    0.5067    0.0000 C   0  0  0  0  0  0  0  0  0  0  0  0
   -3.5724    2.0075    0.0000 C   0  0  0  0  0  0  0  0  0  0  0  0
   -2.2733    2.7575    0.0000 C   0  0  0  0  0  0  0  0  0  0  0  0
   -4.8714    2.7575    0.0000 C   0  0  0  0  0  0  0  0  0  0  0  0
    1.6238    2.0075    0.0000 C   0  0  0  0  0  0  0  0  0  0  0  0
    0.3248    2.7575    0.0000 C   0  0  0  0  0  0  0  0  0  0  0  0
    0.3248    4.2575    0.0000 O   0  0  0  0  0  0  0  0  0  0  0  0
   -0.9743    2.0075    0.0000 O   0  0  0  0  0  0  0  0  0  0  0  0
  4  1  1  0
  6  5  2  0
  7  5  1  0
  8  6  1  0
  9  7  2  0
 11 10  1  0
 12  2  1  0
 12  3  1  0
 12 10  1  0
 13  8  2  0
 13  9  1  0
 14 13  1  0
 15  4  1  0
 15 14  1  0
 16 11  1  0
 16 14  1  0
M  END
>  <NAME>  (1827) 
BENZALDEHYDE ETHYL ISOPENTYL ACETAL

>  <SYNONYMS>  (1827) 
BENZALDEHYDE ETHYL ISOAMYL ACETAL

>  <SPECTRUM TYPE>  (1827) 
MS1

>  <INSTRUMENT TYPE>  (1827) 
EI-B

>  <INSTRUMENT>  (1827) 
HITACHI M-80B

>  <ION MODE>  (1827) 
P

>  <INCHIKEY>  (1827) 
ZSTHUNZWLDCRMU-UHFFFAOYSA-N

>  <FORMULA>  (1827) 
C14H22O2

>  <EXACT MASS>  (1827) 
222.161979944

>  <MW>  (1827) 
222

>  <ID>  (1827) 
JP009276

>  <CONTRIBUTOR>  (1827) 
University of Tokyo Team, {Faculty of Engineering, University of Tokyo

>  <COMMENT>  (1827) 
SMILES=CCOC(OCCC(C)C)c(c1)cccc1
InChI=InChI=1S/C14H22O2/c1-4-15-14(16-11-10-12(2)3)13-8-6-5-7-9-13/h5-9,12,14H,4,10-11H2,1-3H3
computed SMILES=O(CC)C(OCCC(C)C)C=1C=CC=CC1
accession=JP009276
date=2016.01.19 (Created 2008.10.21, modified 2011.05.06)
author=SODA AROMATIC CO., LTD.
license=CC BY-NC-SA
exact mass=222.16198
ionization energy=70 eV
ion type=[M]+*
computed spectral entropy=2.301551850044872
computed normalized entropy=0.6526706030136814
SPLASH=splash10-052r-4900000000-378128eba21624d206d6
submitter=submitter = University of Tokyo Team (Faculty of Engineering, University of Tokyo)
MoNA Rating=3.75

>  <NUM PEAKS>  (1827) 
34

>  <MASS SPECTRAL PEAKS>  (1827) 
17 1
27 5.1
28 1.4
29 1.15
31 1
39 3.4
41 11
42 0.11
43 25.9
47 1
50 1.2
51 0.48
52 1.2
55 2.9
70 1.3
71 2.11
72 1.3
75 1.3
76 1
77 2.04
78 3.5
79 30.3
80 1.6
89 0.13
90 1.5
91 2.9
105 14.3
106 0.21
107 60.7
108 4.8
135 99.99
136 1.09
177 17.9
178 2

>  <PREDICTED SPECTRUM>  (1827) 
26 28
27 186
28 64
29 244
31 146
39 113
41 195
42 94
43 389
44 27
45 132
47 69
50 66
51 164
52 53
53 42
55 78
56 44
63 86
65 40
69 8
71 140
72 11
73 87
74 6
77 391
78 138
79 535
80 105
89 27
90 128
91 164
92 95
105 464
107 949
108 246
135 999
136 243
137 15
149 49
177 523
178 152

$$$$

     RDKit          2D

 19 19  0  0  0  0  0  0  0  0999 V2000
   -5.5209    0.8825    0.0000 C   0  0  0  0  0  0  0  0  0  0  0  0
   -4.2219    3.1325    0.0000 C   0  0  0  0  0  0  0  0  0  0  0  0
    3.5724    7.6325    0.0000 C   0  0  0  0  0  0  0  0  0  0  0  0
    4.8714    5.3825    0.0000 C   0  0  0  0  0  0  0  0  0  0  0  0
    4.8714   -0.6175    0.0000 C   0  0  0  0  0  0  0  0  0  0  0  0
    4.8719    0.8833    0.0000 C   0  0  0  0  0  0  0  0  0  0  0  0
    3.5719   -1.3683    0.0000 C   0  0  0  0  0  0  0  0  0  0  0  0
    3.5728    1.6333    0.0000 C   0  0  0  0  0  0  0  0  0  0  0  0
    2.2728   -0.6183    0.0000 C   0  0  0  0  0  0  0  0  0  0  0  0
   -2.9228    0.8825    0.0000 C   0  0  0  0  0  0  0  0  0  0  0  0
    2.2733    5.3825    0.0000 C   0  0  0  0  0  0  0  0  0  0  0  0
   -1.6238    1.6325    0.0000 C   0  0  0  0  0  0  0  0  0  0  0  0
    2.2733    3.8825    0.0000 C   0  0  0  0  0  0  0  0  0  0  0  0
   -4.2219    1.6325    0.0000 C   0  0  0  0  0  0  0  0  0  0  0  0
    3.5724    6.1325    0.0000 C   0  0  0  0  0  0  0  0  0  0  0  0
    2.2733    0.8825    0.0000 C   0  0  0  0  0  0  0  0  0  0  0  0
    0.9743    1.6325    0.0000 C   0  0  0  0  0  0  0  0  0  0  0  0
   -0.3248    0.8825    0.0000 O   0  0  0  0  0  0  0  0  0  0  0  0
    0.9743    3.1325    0.0000 O   0  0  0  0  0  0  0  0  0  0  0  0
  6  5  2  0
  7  5  1  0
  8  6  1  0
  9  7  2  0
 12 10  1  0
 13 11  1  0
 14  1  1  0
 14  2  1  0
 14 10  1  0
 15  3  1  0
 15  4  1  0
 15 11  1  0
 16  8  2  0
 16  9  1  0
 17 16  1  0
 18 12  1  0
 18 17  1  0
 19 13  1  0
 19 17  1  0
M  END
>  <NAME>  (1828) 
BENZALDEHYDE DIISOPENTYL ACETAL

>  <SYNONYMS>  (1828) 
BENZALDEHYDE DIISOAMYL ACETAL

>  <SPECTRUM TYPE>  (1828) 
MS1

>  <INSTRUMENT TYPE>  (1828) 
EI-B

>  <INSTRUMENT>  (1828) 
HITACHI M-80B

>  <ION MODE>  (1828) 
P

>  <INCHIKEY>  (1828) 
TVAMBUYNQKUINU-UHFFFAOYSA-N

>  <FORMULA>  (1828) 
C17H28O2

>  <EXACT MASS>  (1828) 
264.208930136

>  <MW>  (1828) 
264

>  <ID>  (1828) 
JP009275

>  <CONTRIBUTOR>  (1828) 
University of Tokyo Team, {Faculty of Engineering, University of Tokyo

>  <COMMENT>  (1828) 
SMILES=CC(C)CCOC(OCCC(C)C)c(c1)cccc1
InChI=InChI=1S/C17H28O2/c1-14(2)10-12-18-17(19-13-11-15(3)4)16-8-6-5-7-9-16/h5-9,14-15,17H,10-13H2,1-4H3
computed SMILES=O(CCC(C)C)C(OCCC(C)C)C=1C=CC=CC1
accession=JP009275
date=2016.01.19 (Created 2008.10.21, modified 2011.05.06)
author=SODA AROMATIC CO., LTD.
license=CC BY-NC-SA
exact mass=264.20893
ionization energy=70 eV
ion type=[M]+*
computed spectral entropy=2.3568380166511314
computed normalized entropy=0.6929436172561533
SPLASH=splash10-056r-9800000000-2a55d81be315a5e18138
submitter=submitter = University of Tokyo Team (Faculty of Engineering, University of Tokyo)
MoNA Rating=3.75

>  <NUM PEAKS>  (1828) 
30

>  <MASS SPECTRAL PEAKS>  (1828) 
27 9.4
29 14.6
39 5.1
41 2.17
42 3.8
43 77.6
44 2.7
51 0.28
53 1.3
55 12.4
56 1.4
57 0.13
69 1.4
70 2.6
71 67.4
72 0.26
77 13.5
78 2.8
79 15.5
80 0.1
89 1.2
90 1.7
91 4.6
92 0.13
105 18.3
106 5.3
107 91.5
108 0.9
177 99.99
178 14.2

>  <PREDICTED SPECTRUM>  (1828) 
26 32
27 180
28 76
29 143
31 49
39 173
40 46
41 316
42 140
43 677
44 122
45 89
50 72
51 170
52 92
53 116
54 21
55 205
56 54
57 18
63 53
65 153
66 29
69 64
70 164
71 712
72 149
76 29
77 321
78 150
79 389
80 93
87 61
88 61
89 178
90 179
91 214
92 74
105 529
106 328
107 895
108 190
118 14
125 54
177 999
178 315
249 10
264 12

$$$$

     RDKit          2D

 12 11  0  0  0  0  0  0  0  0999 V2000
    0.3248    6.9375    0.0000 C   0  0  0  0  0  0  0  0  0  0  0  0
    2.9228    3.9375    0.0000 C   0  0  0  0  0  0  0  0  0  0  0  0
   -7.4695    3.9375    0.0000 C   0  0  0  0  0  0  0  0  0  0  0  0
   -6.1704    6.1875    0.0000 C   0  0  0  0  0  0  0  0  0  0  0  0
   -0.9743    6.1875    0.0000 C   0  0  0  0  0  0  0  0  0  0  0  0
    1.6238    4.6875    0.0000 C   0  0  0  0  0  0  0  0  0  0  0  0
   -4.8714    3.9375    0.0000 C   0  0  0  0  0  0  0  0  0  0  0  0
   -3.5724    4.6875    0.0000 C   0  0  0  0  0  0  0  0  0  0  0  0
   -6.1704    4.6875    0.0000 C   0  0  0  0  0  0  0  0  0  0  0  0
   -0.9743    4.6875    0.0000 C   0  0  0  0  0  0  0  0  0  0  0  0
    0.3248    3.9375    0.0000 O   0  0  0  0  0  0  0  0  0  0  0  0
   -2.2733    3.9375    0.0000 O   0  0  0  0  0  0  0  0  0  0  0  0
  5  1  1  0
  6  2  1  0
  8  7  1  0
  9  3  1  0
  9  4  1  0
  9  7  1  0
 10  5  1  0
 11  6  1  0
 11 10  1  0
 12  8  1  0
 12 10  1  0
M  END
>  <NAME>  (1829) 
PROPANAL ETHYL ISOPENTYL ACETAL

>  <SYNONYMS>  (1829) 
PROPANAL ETHYL ISOAMYL ACETAL

>  <SPECTRUM TYPE>  (1829) 
MS1

>  <INSTRUMENT TYPE>  (1829) 
EI-B

>  <INSTRUMENT>  (1829) 
HITACHI M-80B

>  <ION MODE>  (1829) 
P

>  <INCHIKEY>  (1829) 
WMLCXIOXLJBRRH-UHFFFAOYSA-N

>  <FORMULA>  (1829) 
C10H22O2

>  <EXACT MASS>  (1829) 
174.161979944

>  <MW>  (1829) 
174

>  <ID>  (1829) 
JP009274

>  <CONTRIBUTOR>  (1829) 
University of Tokyo Team, {Faculty of Engineering, University of Tokyo

>  <COMMENT>  (1829) 
SMILES=CCOC(CC)OCCC(C)C
InChI=InChI=1S/C10H22O2/c1-5-10(11-6-2)12-8-7-9(3)4/h9-10H,5-8H2,1-4H3
computed SMILES=O(CC)C(OCCC(C)C)CC
accession=JP009274
date=2016.01.19 (Created 2008.10.21, modified 2011.05.06)
author=SODA AROMATIC CO., LTD.
license=CC BY-NC-SA
exact mass=174.16198
ionization energy=70 eV
ion type=[M]+*
computed spectral entropy=2.409280641431406
computed normalized entropy=0.701598607672339
SPLASH=splash10-0076-9000000000-e64a593314528744b175
submitter=submitter = University of Tokyo Team (Faculty of Engineering, University of Tokyo)
MoNA Rating=3.75

>  <NUM PEAKS>  (1829) 
31

>  <MASS SPECTRAL PEAKS>  (1829) 
15 1.3
27 17.3
28 3.2
29 2.69
30 1.4
31 17.4
39 6.4
40 0.14
41 24.3
42 4.1
43 80.6
44 0.25
45 2.6
47 13.1
53 1.4
55 1.3
56 1.4
57 5.4
58 2.9
59 5.76
60 1.7
69 1.1
70 1.3
71 99.99
72 4.5
75 16
87 78
88 0.35
129 6.3
145 16.5
146 1.3

>  <PREDICTED SPECTRUM>  (1829) 
19 0
26 56
27 345
28 52
29 414
31 294
39 205
40 52
41 412
42 184
43 673
44 163
45 29
46 0
47 376
48 10
53 48
55 210
56 58
57 117
58 8
59 373
69 59
70 58
71 999
72 310
73 55
75 227
76 36
87 675
88 139
89 98
101 66
103 21
115 30
129 223
130 20
145 430

$$$$

     RDKit          2D

 15 14  0  0  0  0  0  0  0  0999 V2000
   -0.9743    3.1875    0.0000 C   0  0  0  0  0  0  0  0  0  0  0  0
   -8.7685    6.1875    0.0000 C   0  0  0  0  0  0  0  0  0  0  0  0
   -7.4695    3.9375    0.0000 C   0  0  0  0  0  0  0  0  0  0  0  0
    4.2219    6.1875    0.0000 C   0  0  0  0  0  0  0  0  0  0  0  0
    2.9228    3.9375    0.0000 C   0  0  0  0  0  0  0  0  0  0  0  0
   -2.2733    3.9375    0.0000 C   0  0  0  0  0  0  0  0  0  0  0  0
   -6.1704    6.1875    0.0000 C   0  0  0  0  0  0  0  0  0  0  0  0
    1.6238    6.1875    0.0000 C   0  0  0  0  0  0  0  0  0  0  0  0
   -4.8714    5.4375    0.0000 C   0  0  0  0  0  0  0  0  0  0  0  0
    0.3248    5.4375    0.0000 C   0  0  0  0  0  0  0  0  0  0  0  0
   -7.4695    5.4375    0.0000 C   0  0  0  0  0  0  0  0  0  0  0  0
    2.9228    5.4375    0.0000 C   0  0  0  0  0  0  0  0  0  0  0  0
   -2.2733    5.4375    0.0000 C   0  0  0  0  0  0  0  0  0  0  0  0
   -3.5724    6.1875    0.0000 O   0  0  0  0  0  0  0  0  0  0  0  0
   -0.9743    6.1875    0.0000 O   0  0  0  0  0  0  0  0  0  0  0  0
  6  1  1  0
  9  7  1  0
 10  8  1  0
 11  2  1  0
 11  3  1  0
 11  7  1  0
 12  4  1  0
 12  5  1  0
 12  8  1  0
 13  6  1  0
 14  9  1  0
 14 13  1  0
 15 10  1  0
 15 13  1  0
M  END
>  <NAME>  (1830) 
PROPANAL DIISOAMYL ACETAL

>  <SYNONYMS>  (1830) 


>  <SPECTRUM TYPE>  (1830) 
MS1

>  <INSTRUMENT TYPE>  (1830) 
EI-B

>  <INSTRUMENT>  (1830) 
HITACHI M-80B

>  <ION MODE>  (1830) 
P

>  <INCHIKEY>  (1830) 
MQOHVHXEZYLDJW-UHFFFAOYSA-N

>  <FORMULA>  (1830) 
C13H28O2

>  <EXACT MASS>  (1830) 
216.208930136

>  <MW>  (1830) 
216

>  <ID>  (1830) 
JP009273

>  <CONTRIBUTOR>  (1830) 
University of Tokyo Team, {Faculty of Engineering, University of Tokyo

>  <COMMENT>  (1830) 
SMILES=CCC(OCCC(C)C)OCCC(C)C
InChI=InChI=1S/C13H28O2/c1-6-13(14-9-7-11(2)3)15-10-8-12(4)5/h11-13H,6-10H2,1-5H3
computed SMILES=O(CCC(C)C)C(OCCC(C)C)CC
accession=JP009273
date=2016.01.19 (Created 2008.10.21, modified 2011.05.06)
author=SODA AROMATIC CO., LTD.
license=CC BY-NC-SA
exact mass=216.20893
ionization energy=70 eV
ion type=[M]+*
computed spectral entropy=1.8850132917542257
computed normalized entropy=0.6098309292731391
SPLASH=splash10-00di-9000000000-b81106b6a64371445be2
submitter=submitter = University of Tokyo Team (Faculty of Engineering, University of Tokyo)
MoNA Rating=3.75

>  <NUM PEAKS>  (1830) 
22

>  <MASS SPECTRAL PEAKS>  (1830) 
27 6.7
28 1.5
29 10.2
31 0.28
39 4.3
41 14.7
42 3.5
43 5.91
44 1.5
55 9.5
56 1.2
57 0.41
58 1.3
59 4.3
69 1
70 0.18
71 99.99
72 5.3
117 1.2
129 2.37
130 1.6
187 6.3

>  <PREDICTED SPECTRUM>  (1830) 
26 10
27 184
29 210
31 84
39 146
40 31
41 371
42 173
43 744
44 134
53 90
55 270
56 117
59 34
69 18
70 174
71 999
72 293
89 30
117 15
129 361
130 44
187 187

$$$$

     RDKit          2D

 17 17  0  0  0  0  0  0  0  0999 V2000
   -0.3240    0.8829    0.0000 C   0  0  0  0  0  0  0  0  0  0  0  0
    4.8721    3.8829    0.0000 C   0  0  0  0  0  0  0  0  0  0  0  0
    3.5731    1.6329    0.0000 C   0  0  0  0  0  0  0  0  0  0  0  0
   -1.6231    1.6329    0.0000 C   0  0  0  0  0  0  0  0  0  0  0  0
   -8.1183    5.3829    0.0000 C   0  0  0  0  0  0  0  0  0  0  0  0
   -8.1187    3.8821    0.0000 C   0  0  0  0  0  0  0  0  0  0  0  0
   -6.8187    6.1337    0.0000 C   0  0  0  0  0  0  0  0  0  0  0  0
   -6.8197    3.1321    0.0000 C   0  0  0  0  0  0  0  0  0  0  0  0
   -5.5197    5.3837    0.0000 C   0  0  0  0  0  0  0  0  0  0  0  0
    2.2740    3.8829    0.0000 C   0  0  0  0  0  0  0  0  0  0  0  0
    0.9750    3.1329    0.0000 C   0  0  0  0  0  0  0  0  0  0  0  0
   -4.2212    3.1329    0.0000 C   0  0  0  0  0  0  0  0  0  0  0  0
    3.5731    3.1329    0.0000 C   0  0  0  0  0  0  0  0  0  0  0  0
   -5.5202    3.8829    0.0000 C   0  0  0  0  0  0  0  0  0  0  0  0
   -1.6231    3.1329    0.0000 C   0  0  0  0  0  0  0  0  0  0  0  0
   -0.3240    3.8829    0.0000 O   0  0  0  0  0  0  0  0  0  0  0  0
   -2.9221    3.8829    0.0000 O   0  0  0  0  0  0  0  0  0  0  0  0
  4  1  1  0
  6  5  2  0
  7  5  1  0
  8  6  1  0
  9  7  2  0
 11 10  1  0
 13  2  1  0
 13  3  1  0
 13 10  1  0
 14  8  2  0
 14  9  1  0
 14 12  1  0
 15  4  1  0
 16 11  1  0
 16 15  1  0
 17 12  1  0
 17 15  1  0
M  END
>  <NAME>  (1831) 
PROPANAL BENZYL ISOPENTYL ACETAL

>  <SYNONYMS>  (1831) 
PROPANAL BENZYL ISOAMYL ACETAL

>  <SPECTRUM TYPE>  (1831) 
MS1

>  <INSTRUMENT TYPE>  (1831) 
EI-B

>  <INSTRUMENT>  (1831) 
HITACHI M-80B

>  <ION MODE>  (1831) 
P

>  <INCHIKEY>  (1831) 
LCIWBVUWLVMMOZ-UHFFFAOYSA-N

>  <FORMULA>  (1831) 
C15H24O2

>  <EXACT MASS>  (1831) 
236.177630008

>  <MW>  (1831) 
236

>  <ID>  (1831) 
JP009272

>  <CONTRIBUTOR>  (1831) 
University of Tokyo Team, {Faculty of Engineering, University of Tokyo

>  <COMMENT>  (1831) 
SMILES=CC(C)CCOC(CC)OCc(c1)cccc1
InChI=InChI=1S/C15H24O2/c1-4-15(16-11-10-13(2)3)17-12-14-8-6-5-7-9-14/h5-9,13,15H,4,10-12H2,1-3H3
computed SMILES=O(CC=1C=CC=CC1)C(OCCC(C)C)CC
accession=JP009272
date=2016.01.19 (Created 2008.10.21, modified 2011.05.06)
author=SODA AROMATIC CO., LTD.
license=CC BY-NC-SA
exact mass=236.17763
ionization energy=70 eV
ion type=[M]+*
computed spectral entropy=1.6877698691889362
computed normalized entropy=0.5633914232217582
SPLASH=splash10-0006-9000000000-399f49abf108602ec5fb
submitter=submitter = University of Tokyo Team (Faculty of Engineering, University of Tokyo)
MoNA Rating=3.75

>  <NUM PEAKS>  (1831) 
20

>  <MASS SPECTRAL PEAKS>  (1831) 
27 3.1
29 4.1
39 3.6
41 0.58
42 1.1
43 13.2
51 1.2
55 0.16
57 1.4
65 6.1
71 11.9
77 0.17
79 1
89 1.1
90 1.5
91 99.99
92 10.8
148 3.3
149 1.8
207 3.6

>  <PREDICTED SPECTRUM>  (1831) 
26 16
27 125
28 4
29 102
38 4
39 119
40 17
41 222
42 41
43 419
50 48
51 80
52 34
53 45
55 131
59 17
63 65
64 44
65 271
66 35
71 458
72 21
77 27
78 13
79 52
86 36
89 95
90 85
91 999
92 358
93 18
107 36
122 18
148 20
149 125

$$$$

     RDKit          2D

 14 14  0  0  0  0  0  0  0  0999 V2000
   -4.2216    6.1321    0.0000 C   0  0  0  0  0  0  0  0  0  0  0  0
   -6.8197    3.1321    0.0000 C   0  0  0  0  0  0  0  0  0  0  0  0
   -2.9226    5.3821    0.0000 C   0  0  0  0  0  0  0  0  0  0  0  0
   -5.5207    3.8821    0.0000 C   0  0  0  0  0  0  0  0  0  0  0  0
    3.5726    1.6321    0.0000 C   0  0  0  0  0  0  0  0  0  0  0  0
    3.5731    3.1329    0.0000 C   0  0  0  0  0  0  0  0  0  0  0  0
    2.2731    0.8813    0.0000 C   0  0  0  0  0  0  0  0  0  0  0  0
    2.2740    3.8829    0.0000 C   0  0  0  0  0  0  0  0  0  0  0  0
    0.9740    1.6313    0.0000 C   0  0  0  0  0  0  0  0  0  0  0  0
   -0.3245    3.8821    0.0000 C   0  0  0  0  0  0  0  0  0  0  0  0
    0.9745    3.1321    0.0000 C   0  0  0  0  0  0  0  0  0  0  0  0
   -2.9226    3.8821    0.0000 C   0  0  0  0  0  0  0  0  0  0  0  0
   -4.2216    3.1321    0.0000 O   0  0  0  0  0  0  0  0  0  0  0  0
   -1.6236    3.1321    0.0000 O   0  0  0  0  0  0  0  0  0  0  0  0
  3  1  1  0
  4  2  1  0
  6  5  2  0
  7  5  1  0
  8  6  1  0
  9  7  2  0
 11  8  2  0
 11  9  1  0
 11 10  1  0
 12  3  1  0
 13  4  1  0
 13 12  1  0
 14 10  1  0
 14 12  1  0
M  END
>  <NAME>  (1832) 
PROPANAL BENZYL ETHYL ACETAL

>  <SYNONYMS>  (1832) 


>  <SPECTRUM TYPE>  (1832) 
MS1

>  <INSTRUMENT TYPE>  (1832) 
EI-B

>  <INSTRUMENT>  (1832) 
HITACHI M-80B

>  <ION MODE>  (1832) 
P

>  <INCHIKEY>  (1832) 
CJUFJTXKBQQYSD-UHFFFAOYSA-N

>  <FORMULA>  (1832) 
C12H18O2

>  <EXACT MASS>  (1832) 
194.130679816

>  <MW>  (1832) 
194

>  <ID>  (1832) 
JP009271

>  <CONTRIBUTOR>  (1832) 
University of Tokyo Team, {Faculty of Engineering, University of Tokyo

>  <COMMENT>  (1832) 
SMILES=CCOC(CC)OCc(c1)cccc1
InChI=InChI=1S/C12H18O2/c1-3-12(13-4-2)14-10-11-8-6-5-7-9-11/h5-9,12H,3-4,10H2,1-2H3
computed SMILES=O(CC=1C=CC=CC1)C(OCC)CC
accession=JP009271
date=2016.01.19 (Created 2008.10.21, modified 2011.05.06)
author=SODA AROMATIC CO., LTD.
license=CC BY-NC-SA
exact mass=194.13068
ionization energy=70 eV
ion type=[M]+*
computed spectral entropy=1.6978184274562027
computed normalized entropy=0.5766186494164837
SPLASH=splash10-0006-9000000000-688d150dba7b720e910c
submitter=submitter = University of Tokyo Team (Faculty of Engineering, University of Tokyo)
MoNA Rating=3.75

>  <NUM PEAKS>  (1832) 
19

>  <MASS SPECTRAL PEAKS>  (1832) 
27 3.2
29 7.3
31 3
39 0.3
41 2.2
51 2.3
57 1.3
59 1.64
63 1.5
65 8.9
77 2.6
79 0.13
87 9.1
89 1.9
90 2.4
91 99.99
92 9.7
148 2.5
165 6.4

>  <PREDICTED SPECTRUM>  (1832) 
26 35
27 126
28 11
29 154
31 81
38 17
39 135
40 22
41 134
42 3
43 72
44 46
45 131
47 49
50 74
51 119
52 73
53 20
57 92
59 58
62 4
63 108
64 48
65 286
66 33
75 89
76 11
77 57
79 58
87 2
89 126
90 56
91 999
92 360
93 43
105 14
107 32
121 32
165 166

$$$$

     RDKit          2D

 19 20  0  0  0  0  0  0  0  0999 V2000
   -3.8966    7.8200    0.0000 C   0  0  0  0  0  0  0  0  0  0  0  0
   -2.5976    7.0700    0.0000 C   0  0  0  0  0  0  0  0  0  0  0  0
    3.8976    3.3200    0.0000 C   0  0  0  0  0  0  0  0  0  0  0  0
   -9.0928    3.3200    0.0000 C   0  0  0  0  0  0  0  0  0  0  0  0
    3.8981    4.8208    0.0000 C   0  0  0  0  0  0  0  0  0  0  0  0
    2.5981    2.5692    0.0000 C   0  0  0  0  0  0  0  0  0  0  0  0
   -7.7933    2.5692    0.0000 C   0  0  0  0  0  0  0  0  0  0  0  0
   -9.0933    4.8208    0.0000 C   0  0  0  0  0  0  0  0  0  0  0  0
    2.5990    5.5708    0.0000 C   0  0  0  0  0  0  0  0  0  0  0  0
    1.2990    3.3192    0.0000 C   0  0  0  0  0  0  0  0  0  0  0  0
   -6.4942    3.3192    0.0000 C   0  0  0  0  0  0  0  0  0  0  0  0
   -7.7942    5.5708    0.0000 C   0  0  0  0  0  0  0  0  0  0  0  0
    0.0005    5.5700    0.0000 C   0  0  0  0  0  0  0  0  0  0  0  0
   -5.1957    5.5700    0.0000 C   0  0  0  0  0  0  0  0  0  0  0  0
    1.2995    4.8200    0.0000 C   0  0  0  0  0  0  0  0  0  0  0  0
   -6.4947    4.8200    0.0000 C   0  0  0  0  0  0  0  0  0  0  0  0
   -2.5976    5.5700    0.0000 C   0  0  0  0  0  0  0  0  0  0  0  0
   -1.2986    4.8200    0.0000 O   0  0  0  0  0  0  0  0  0  0  0  0
   -3.8966    4.8200    0.0000 O   0  0  0  0  0  0  0  0  0  0  0  0
  2  1  1  0
  5  3  2  0
  6  3  1  0
  7  4  2  0
  8  4  1  0
  9  5  1  0
 10  6  2  0
 11  7  1  0
 12  8  2  0
 15  9  2  0
 15 10  1  0
 15 13  1  0
 16 11  2  0
 16 12  1  0
 16 14  1  0
 17  2  1  0
 18 13  1  0
 18 17  1  0
 19 14  1  0
 19 17  1  0
M  END
>  <NAME>  (1833) 
PROPANAL DIBENZYL ACETAL

>  <SYNONYMS>  (1833) 


>  <SPECTRUM TYPE>  (1833) 
MS1

>  <INSTRUMENT TYPE>  (1833) 
EI-B

>  <INSTRUMENT>  (1833) 
HITACHI M-80B

>  <ION MODE>  (1833) 
P

>  <INCHIKEY>  (1833) 
ANNDAFXCWSPYIU-UHFFFAOYSA-N

>  <FORMULA>  (1833) 
C17H20O2

>  <EXACT MASS>  (1833) 
256.14632988

>  <MW>  (1833) 
256

>  <ID>  (1833) 
JP009270

>  <CONTRIBUTOR>  (1833) 
University of Tokyo Team, {Faculty of Engineering, University of Tokyo

>  <COMMENT>  (1833) 
SMILES=CCC(OCc(c2)cccc2)OCc(c1)cccc1
InChI=InChI=1S/C17H20O2/c1-2-17(18-13-15-9-5-3-6-10-15)19-14-16-11-7-4-8-12-16/h3-12,17H,2,13-14H2,1H3
computed SMILES=O(CC=1C=CC=CC1)C(OCC=2C=CC=CC2)CC
accession=JP009270
date=2016.01.19 (Created 2008.10.21, modified 2011.05.06)
author=SODA AROMATIC CO., LTD.
license=CC BY-NC-SA
exact mass=256.14633
ionization energy=70 eV
ion type=[M]+*
computed spectral entropy=1.5493503528999668
computed normalized entropy=0.5088976628001177
SPLASH=splash10-0006-9000000000-92263d5513182be9fc01
submitter=submitter = University of Tokyo Team (Faculty of Engineering, University of Tokyo)
MoNA Rating=3.75

>  <NUM PEAKS>  (1833) 
21

>  <MASS SPECTRAL PEAKS>  (1833) 
27 1.2
29 1.6
39 2.9
41 0.11
51 2.8
63 1.4
65 10.1
77 0.45
78 1.2
79 3
89 1.9
90 0.26
91 99.99
92 26.7
93 1.4
105 0.14
107 8.1
108 1.2
148 1.5
165 0.14
181 2.3

>  <PREDICTED SPECTRUM>  (1833) 
27 21
29 24
38 1
39 84
40 35
41 134
42 35
43 16
44 31
45 52
50 66
51 139
52 74
53 65
57 55
62 18
63 99
64 65
65 278
66 34
77 139
78 52
79 90
89 154
90 111
91 999
92 334
93 26
101 6
104 8
105 129
106 60
107 220
108 79
165 63
181 100

$$$$

     RDKit          2D

 13 12  0  0  0  0  0  0  0  0999 V2000
    2.5981    4.5000    0.0000 C   0  0  0  0  0  0  0  0  0  0  0  0
   -7.7942    4.5000    0.0000 C   0  0  0  0  0  0  0  0  0  0  0  0
   -5.1962    9.0000    0.0000 C   0  0  0  0  0  0  0  0  0  0  0  0
   -6.4952    6.7500    0.0000 C   0  0  0  0  0  0  0  0  0  0  0  0
    1.2990    5.2500    0.0000 C   0  0  0  0  0  0  0  0  0  0  0  0
   -6.4952    5.2500    0.0000 C   0  0  0  0  0  0  0  0  0  0  0  0
    0.0000    4.5000    0.0000 C   0  0  0  0  0  0  0  0  0  0  0  0
   -5.1962    4.5000    0.0000 C   0  0  0  0  0  0  0  0  0  0  0  0
   -1.2990    5.2500    0.0000 C   0  0  0  0  0  0  0  0  0  0  0  0
   -5.1962    7.5000    0.0000 C   0  0  0  0  0  0  0  0  0  0  0  0
   -3.8971    5.2500    0.0000 C   0  0  0  0  0  0  0  0  0  0  0  0
   -2.5981    4.5000    0.0000 O   0  0  0  0  0  0  0  0  0  0  0  0
   -3.8971    6.7500    0.0000 O   0  0  0  0  0  0  0  0  0  0  0  0
  5  1  1  0
  6  2  1  0
  7  5  1  0
  8  6  1  0
  9  7  1  0
 10  3  1  0
 10  4  1  0
 11  8  1  0
 12  9  1  0
 12 11  1  0
 13 10  1  0
 13 11  1  0
M  END
>  <NAME>  (1834) 
BUTANAL BUTYL ISOPROPYL ACETAL

>  <SYNONYMS>  (1834) 


>  <SPECTRUM TYPE>  (1834) 
MS1

>  <INSTRUMENT TYPE>  (1834) 
EI-B

>  <INSTRUMENT>  (1834) 
HITACHI M-80B

>  <ION MODE>  (1834) 
P

>  <INCHIKEY>  (1834) 
CNHSQHGCGGFGSB-UHFFFAOYSA-N

>  <FORMULA>  (1834) 
C11H24O2

>  <EXACT MASS>  (1834) 
188.177630008

>  <MW>  (1834) 
188

>  <ID>  (1834) 
JP009269

>  <CONTRIBUTOR>  (1834) 
University of Tokyo Team, {Faculty of Engineering, University of Tokyo

>  <COMMENT>  (1834) 
SMILES=CCCCOC(CCC)OC(C)C
InChI=InChI=1S/C11H24O2/c1-5-7-9-12-11(8-6-2)13-10(3)4/h10-11H,5-9H2,1-4H3
computed SMILES=O(CCCC)C(OC(C)C)CCC
accession=JP009269
date=2016.01.19 (Created 2008.10.21, modified 2011.05.06)
author=SODA AROMATIC CO., LTD.
license=CC BY-NC-SA
exact mass=188.17763
ionization energy=70 eV
ion type=[M]+*
computed spectral entropy=2.539571316910371
computed normalized entropy=0.7395401222210221
SPLASH=splash10-0abc-9200000000-3e7203fdd3b998039557
submitter=submitter = University of Tokyo Team (Faculty of Engineering, University of Tokyo)
MoNA Rating=3.75

>  <NUM PEAKS>  (1834) 
31

>  <MASS SPECTRAL PEAKS>  (1834) 
15 1.2
18 2.4
27 19.5
28 0.24
29 23.9
31 5.4
39 6.2
40 0.12
41 34.5
42 4
43 44.4
44 0.43
45 4.9
47 3.1
55 42.2
56 0.51
57 99.99
58 3.8
59 1.3
71 0.3
72 3.3
73 84.3
74 3.4
89 0.35
103 33.9
104 1.5
115 29.9
116 0.2
129 10.7
145 14.8
146 1.5

>  <PREDICTED SPECTRUM>  (1834) 
15 48
26 33
27 293
28 105
29 309
30 39
31 186
38 16
39 225
40 101
41 606
42 175
43 632
44 173
45 311
46 66
47 155
53 70
54 14
55 444
56 244
57 873
58 119
59 133
60 51
61 16
69 0
70 3
71 211
72 285
73 999
74 201
75 131
85 7
86 19
87 48
88 33
89 38
99 41
101 135
102 32
103 221
104 71
115 377
116 169
117 33
129 231
145 342
146 61

$$$$

     RDKit          2D

 14 13  0  0  0  0  0  0  0  0999 V2000
    3.2476    3.3750    0.0000 C   0  0  0  0  0  0  0  0  0  0  0  0
   -7.1447    3.3750    0.0000 C   0  0  0  0  0  0  0  0  0  0  0  0
   -5.8457    5.6250    0.0000 C   0  0  0  0  0  0  0  0  0  0  0  0
    0.6495    7.8750    0.0000 C   0  0  0  0  0  0  0  0  0  0  0  0
    1.9486    5.6250    0.0000 C   0  0  0  0  0  0  0  0  0  0  0  0
    1.9486    4.1250    0.0000 C   0  0  0  0  0  0  0  0  0  0  0  0
    0.6495    3.3750    0.0000 C   0  0  0  0  0  0  0  0  0  0  0  0
   -4.5466    3.3750    0.0000 C   0  0  0  0  0  0  0  0  0  0  0  0
   -3.2476    4.1250    0.0000 C   0  0  0  0  0  0  0  0  0  0  0  0
   -5.8457    4.1250    0.0000 C   0  0  0  0  0  0  0  0  0  0  0  0
    0.6495    6.3750    0.0000 C   0  0  0  0  0  0  0  0  0  0  0  0
   -0.6495    4.1250    0.0000 C   0  0  0  0  0  0  0  0  0  0  0  0
   -1.9486    3.3750    0.0000 O   0  0  0  0  0  0  0  0  0  0  0  0
   -0.6495    5.6250    0.0000 O   0  0  0  0  0  0  0  0  0  0  0  0
  6  1  1  0
  7  6  1  0
  9  8  1  0
 10  2  1  0
 10  3  1  0
 10  8  1  0
 11  4  1  0
 11  5  1  0
 12  7  1  0
 13  9  1  0
 13 12  1  0
 14 11  1  0
 14 12  1  0
M  END
>  <NAME>  (1835) 
BUTANAL ISOPENTYL ISOPROPYL ACETAL

>  <SYNONYMS>  (1835) 
BUTANAL ISOAMYL ISOPROPYL ACETAL

>  <SPECTRUM TYPE>  (1835) 
MS1

>  <INSTRUMENT TYPE>  (1835) 
EI-B

>  <INSTRUMENT>  (1835) 
HITACHI M-80B

>  <ION MODE>  (1835) 
P

>  <INCHIKEY>  (1835) 
IYAICXDFPSVBGK-UHFFFAOYSA-N

>  <FORMULA>  (1835) 
C12H26O2

>  <EXACT MASS>  (1835) 
202.193280072

>  <MW>  (1835) 
202

>  <ID>  (1835) 
JP009268

>  <CONTRIBUTOR>  (1835) 
University of Tokyo Team, {Faculty of Engineering, University of Tokyo

>  <COMMENT>  (1835) 
SMILES=CCCC(OCCC(C)C)OC(C)C
InChI=InChI=1S/C12H26O2/c1-6-7-12(14-11(4)5)13-9-8-10(2)3/h10-12H,6-9H2,1-5H3
computed SMILES=O(CCC(C)C)C(OC(C)C)CCC
accession=JP009268
date=2016.01.19 (Created 2008.10.21, modified 2011.05.06)
author=SODA AROMATIC CO., LTD.
license=CC BY-NC-SA
exact mass=202.19328
ionization energy=70 eV
ion type=[M]+*
computed spectral entropy=2.4103338783576755
computed normalized entropy=0.7086721550925551
SPLASH=splash10-00dl-9100000000-ab101162c687f869d2dc
submitter=submitter = University of Tokyo Team (Faculty of Engineering, University of Tokyo)
MoNA Rating=3.75

>  <NUM PEAKS>  (1835) 
30

>  <MASS SPECTRAL PEAKS>  (1835) 
27 16
28 1.6
29 8.7
31 0.4
39 5.3
40 1.2
41 24.7
42 0.52
43 86.1
44 4.3
45 4.3
47 0.12
53 1.4
55 32.7
56 1.9
57 0.3
59 1.1
69 1.5
70 2.5
71 99.99
72 5.6
73 50
74 2.9
89 0.22
115 28.3
116 2.2
117 20.3
118 0.11
143 5.5
159 10.3

>  <PREDICTED SPECTRUM>  (1835) 
26 31
27 278
28 80
29 172
31 115
38 11
39 233
40 111
41 511
42 217
43 824
44 249
45 207
47 44
53 83
54 0
55 459
58 0
59 40
61 41
67 34
69 53
70 251
71 999
72 400
73 677
74 56
75 25
89 22
99 16
101 48
115 513
116 120
117 126
129 4
143 84
159 334
160 52

$$$$

     RDKit          2D

 19 18  0  0  0  0  0  0  0  0999 V2000
    2.9228    7.6875    0.0000 C   0  0  0  0  0  0  0  0  0  0  0  0
  -11.3666    8.4375    0.0000 C   0  0  0  0  0  0  0  0  0  0  0  0
  -10.0675    6.1875    0.0000 C   0  0  0  0  0  0  0  0  0  0  0  0
   -7.4695    1.6875    0.0000 C   0  0  0  0  0  0  0  0  0  0  0  0
   -8.7685    3.9375    0.0000 C   0  0  0  0  0  0  0  0  0  0  0  0
    1.6238    8.4375    0.0000 C   0  0  0  0  0  0  0  0  0  0  0  0
    0.3248    7.6875    0.0000 C   0  0  0  0  0  0  0  0  0  0  0  0
   -0.9743    8.4375    0.0000 C   0  0  0  0  0  0  0  0  0  0  0  0
   -2.2733    7.6875    0.0000 C   0  0  0  0  0  0  0  0  0  0  0  0
   -3.5724    8.4375    0.0000 C   0  0  0  0  0  0  0  0  0  0  0  0
   -8.7685    8.4375    0.0000 C   0  0  0  0  0  0  0  0  0  0  0  0
   -6.1704    3.9375    0.0000 C   0  0  0  0  0  0  0  0  0  0  0  0
   -7.4695    7.6875    0.0000 C   0  0  0  0  0  0  0  0  0  0  0  0
   -6.1704    5.4375    0.0000 C   0  0  0  0  0  0  0  0  0  0  0  0
  -10.0675    7.6875    0.0000 C   0  0  0  0  0  0  0  0  0  0  0  0
   -7.4695    3.1875    0.0000 C   0  0  0  0  0  0  0  0  0  0  0  0
   -4.8714    7.6875    0.0000 C   0  0  0  0  0  0  0  0  0  0  0  0
   -6.1704    8.4375    0.0000 O   0  0  0  0  0  0  0  0  0  0  0  0
   -4.8714    6.1875    0.0000 O   0  0  0  0  0  0  0  0  0  0  0  0
  6  1  1  0
  7  6  1  0
  8  7  1  0
  9  8  1  0
 10  9  1  0
 13 11  1  0
 14 12  1  0
 15  2  1  0
 15  3  1  0
 15 11  1  0
 16  4  1  0
 16  5  1  0
 16 12  1  0
 17 10  1  0
 18 13  1  0
 18 17  1  0
 19 14  1  0
 19 17  1  0
M  END
>  <NAME>  (1836) 
HEPTANAL DIISOPENTYL ACETAL

>  <SYNONYMS>  (1836) 
HEPTANAL DIISOAMYL ACETAL

>  <SPECTRUM TYPE>  (1836) 
MS1

>  <INSTRUMENT TYPE>  (1836) 
EI-B

>  <INSTRUMENT>  (1836) 
HITACHI M-80B

>  <ION MODE>  (1836) 
P

>  <INCHIKEY>  (1836) 
FCNZGZQLIKHVGP-UHFFFAOYSA-N

>  <FORMULA>  (1836) 
C17H36O2

>  <EXACT MASS>  (1836) 
272.271530392

>  <MW>  (1836) 
272

>  <ID>  (1836) 
JP009267

>  <CONTRIBUTOR>  (1836) 
University of Tokyo Team, {Faculty of Engineering, University of Tokyo

>  <COMMENT>  (1836) 
SMILES=CCCCCCC(OCCC(C)C)OCCC(C)C
InChI=InChI=1S/C17H36O2/c1-6-7-8-9-10-17(18-13-11-15(2)3)19-14-12-16(4)5/h15-17H,6-14H2,1-5H3
computed SMILES=O(CCC(C)C)C(OCCC(C)C)CCCCCC
accession=JP009267
date=2016.01.19 (Created 2008.10.21, modified 2011.05.06)
author=SODA AROMATIC CO., LTD.
license=CC BY-NC-SA
exact mass=272.27153
ionization energy=70 eV
ion type=[M]+*
computed spectral entropy=1.880771873617626
computed normalized entropy=0.6177559574906581
SPLASH=splash10-00dl-9000000000-406855ea92733611c414
submitter=submitter = University of Tokyo Team (Faculty of Engineering, University of Tokyo)
MoNA Rating=3.75

>  <NUM PEAKS>  (1836) 
21

>  <MASS SPECTRAL PEAKS>  (1836) 
27 4.8
29 8.9
31 1
39 0.26
41 13.2
42 3.8
43 56.2
44 0.24
55 11.7
56 1.4
57 2.6
69 0.26
70 4.2
71 99.99
72 5.3
97 0.16
117 2.3
185 14.2
186 1.6
187 1.28
188 1.2

>  <PREDICTED SPECTRUM>  (1836) 
15 37
26 19
27 248
28 14
29 287
31 33
39 171
40 52
41 388
42 199
43 781
44 82
45 46
53 50
54 29
55 365
56 212
57 219
58 69
67 66
68 74
69 214
70 207
71 999
72 332
82 38
83 81
86 58
97 54
99 7
100 10
115 9
129 17
169 19
171 24
184 18
185 403
186 97
201 129

$$$$

     RDKit          2D

 15 14  0  0  0  0  0  0  0  0999 V2000
   -8.7685    6.1875    0.0000 C   0  0  0  0  0  0  0  0  0  0  0  0
   -3.5724    1.6875    0.0000 C   0  0  0  0  0  0  0  0  0  0  0  0
    4.2219    6.1875    0.0000 C   0  0  0  0  0  0  0  0  0  0  0  0
    2.9228    3.9375    0.0000 C   0  0  0  0  0  0  0  0  0  0  0  0
   -7.4695    5.4375    0.0000 C   0  0  0  0  0  0  0  0  0  0  0  0
   -3.5724    3.1875    0.0000 C   0  0  0  0  0  0  0  0  0  0  0  0
   -6.1704    6.1875    0.0000 C   0  0  0  0  0  0  0  0  0  0  0  0
   -2.2733    3.9375    0.0000 C   0  0  0  0  0  0  0  0  0  0  0  0
    1.6238    6.1875    0.0000 C   0  0  0  0  0  0  0  0  0  0  0  0
   -4.8714    5.4375    0.0000 C   0  0  0  0  0  0  0  0  0  0  0  0
    0.3248    5.4375    0.0000 C   0  0  0  0  0  0  0  0  0  0  0  0
    2.9228    5.4375    0.0000 C   0  0  0  0  0  0  0  0  0  0  0  0
   -2.2733    5.4375    0.0000 C   0  0  0  0  0  0  0  0  0  0  0  0
   -3.5724    6.1875    0.0000 O   0  0  0  0  0  0  0  0  0  0  0  0
   -0.9743    6.1875    0.0000 O   0  0  0  0  0  0  0  0  0  0  0  0
  5  1  1  0
  6  2  1  0
  7  5  1  0
  8  6  1  0
 10  7  1  0
 11  9  1  0
 12  3  1  0
 12  4  1  0
 12  9  1  0
 13  8  1  0
 14 10  1  0
 14 13  1  0
 15 11  1  0
 15 13  1  0
M  END
>  <NAME>  (1837) 
BUTANAL BUTYL ISOAMYL ACETAL

>  <SYNONYMS>  (1837) 


>  <SPECTRUM TYPE>  (1837) 
MS1

>  <INSTRUMENT TYPE>  (1837) 
EI-B

>  <INSTRUMENT>  (1837) 
HITACHI M-80B

>  <ION MODE>  (1837) 
P

>  <INCHIKEY>  (1837) 
BSNWVXDNGIOQGW-UHFFFAOYSA-N

>  <FORMULA>  (1837) 
C13H28O2

>  <EXACT MASS>  (1837) 
216.208930136

>  <MW>  (1837) 
216

>  <ID>  (1837) 
JP009266

>  <CONTRIBUTOR>  (1837) 
University of Tokyo Team, {Faculty of Engineering, University of Tokyo

>  <COMMENT>  (1837) 
SMILES=CCCCOC(CCC)OCCC(C)C
InChI=InChI=1S/C13H28O2/c1-5-7-10-14-13(8-6-2)15-11-9-12(3)4/h12-13H,5-11H2,1-4H3
computed SMILES=O(CCCC)C(OCCC(C)C)CCC
accession=JP009266
date=2016.01.19 (Created 2008.10.21, modified 2011.05.06)
author=SODA AROMATIC CO., LTD.
license=CC BY-NC-SA
exact mass=216.20893
ionization energy=70 eV
ion type=[M]+*
computed spectral entropy=2.4176161019777687
computed normalized entropy=0.7335363369816111
SPLASH=splash10-00di-9100000000-9cdc77b32764f8449160
submitter=submitter = University of Tokyo Team (Faculty of Engineering, University of Tokyo)
MoNA Rating=3.75

>  <NUM PEAKS>  (1837) 
27

>  <MASS SPECTRAL PEAKS>  (1837) 
27 12.6
28 2.7
29 23
31 0.36
39 5.9
41 29.6
42 3.1
43 6.32
44 3.2
45 1.3
53 1.3
55 2.57
56 4.8
57 33.6
69 1.1
70 0.17
71 99.99
72 6.2
73 32.9
74 0.17
103 2.8
117 1.4
129 21.4
130 0.15
143 12.7
144 1
173 11.2

>  <PREDICTED SPECTRUM>  (1837) 
15 22
26 23
27 275
28 83
29 365
31 102
39 202
40 60
41 502
42 170
43 581
44 47
45 97
47 55
53 55
55 290
56 229
57 784
58 64
69 99
70 164
71 999
72 289
73 358
74 26
75 42
83 8
85 9
87 64
89 3
117 42
129 427
130 76
143 474
144 143
173 213

$$$$

     RDKit          2D

 16 15  0  0  0  0  0  0  0  0999 V2000
   -0.9743    1.6875    0.0000 C   0  0  0  0  0  0  0  0  0  0  0  0
   -8.7685    6.1875    0.0000 C   0  0  0  0  0  0  0  0  0  0  0  0
   -7.4695    3.9375    0.0000 C   0  0  0  0  0  0  0  0  0  0  0  0
    4.2219    6.1875    0.0000 C   0  0  0  0  0  0  0  0  0  0  0  0
    2.9228    3.9375    0.0000 C   0  0  0  0  0  0  0  0  0  0  0  0
   -0.9743    3.1875    0.0000 C   0  0  0  0  0  0  0  0  0  0  0  0
   -2.2733    3.9375    0.0000 C   0  0  0  0  0  0  0  0  0  0  0  0
   -6.1704    6.1875    0.0000 C   0  0  0  0  0  0  0  0  0  0  0  0
    1.6238    6.1875    0.0000 C   0  0  0  0  0  0  0  0  0  0  0  0
   -4.8714    5.4375    0.0000 C   0  0  0  0  0  0  0  0  0  0  0  0
    0.3248    5.4375    0.0000 C   0  0  0  0  0  0  0  0  0  0  0  0
   -7.4695    5.4375    0.0000 C   0  0  0  0  0  0  0  0  0  0  0  0
    2.9228    5.4375    0.0000 C   0  0  0  0  0  0  0  0  0  0  0  0
   -2.2733    5.4375    0.0000 C   0  0  0  0  0  0  0  0  0  0  0  0
   -3.5724    6.1875    0.0000 O   0  0  0  0  0  0  0  0  0  0  0  0
   -0.9743    6.1875    0.0000 O   0  0  0  0  0  0  0  0  0  0  0  0
  6  1  1  0
  7  6  1  0
 10  8  1  0
 11  9  1  0
 12  2  1  0
 12  3  1  0
 12  8  1  0
 13  4  1  0
 13  5  1  0
 13  9  1  0
 14  7  1  0
 15 10  1  0
 15 14  1  0
 16 11  1  0
 16 14  1  0
M  END
>  <NAME>  (1838) 
BUTANAL DIISOPENTYL ACETAL

>  <SYNONYMS>  (1838) 
BUTANAL DIISOAMYL ACETAL

>  <SPECTRUM TYPE>  (1838) 
MS1

>  <INSTRUMENT TYPE>  (1838) 
EI-B

>  <INSTRUMENT>  (1838) 
HITACHI M-80B

>  <ION MODE>  (1838) 
P

>  <INCHIKEY>  (1838) 
KWZAGPSMWWHQMR-UHFFFAOYSA-N

>  <FORMULA>  (1838) 
C14H30O2

>  <EXACT MASS>  (1838) 
230.2245802

>  <MW>  (1838) 
230

>  <ID>  (1838) 
JP009265

>  <CONTRIBUTOR>  (1838) 
University of Tokyo Team, {Faculty of Engineering, University of Tokyo

>  <COMMENT>  (1838) 
SMILES=CCCC(OCCC(C)C)OCCC(C)C
InChI=InChI=1S/C14H30O2/c1-6-7-14(15-10-8-12(2)3)16-11-9-13(4)5/h12-14H,6-11H2,1-5H3
computed SMILES=O(CCC(C)C)C(OCCC(C)C)CCC
accession=JP009265
date=2016.01.19 (Created 2008.10.21, modified 2011.05.06)
author=SODA AROMATIC CO., LTD.
license=CC BY-NC-SA
exact mass=230.22458
ionization energy=70 eV
ion type=[M]+*
computed spectral entropy=1.8956427733724508
computed normalized entropy=0.6327811033405707
SPLASH=splash10-00dl-9100000000-c676e8d768c4f12290c3
submitter=submitter = University of Tokyo Team (Faculty of Engineering, University of Tokyo)
MoNA Rating=3.75

>  <NUM PEAKS>  (1838) 
20

>  <MASS SPECTRAL PEAKS>  (1838) 
27 7
29 8.3
31 1.8
39 0.27
41 13.7
42 2.4
43 57.9
44 0.26
55 12.4
56 1.5
57 1.3
69 0.11
70 2
71 99.99
72 5.6
73 0.19
117 1.5
143 20.2
144 1.6
187 6.9

>  <PREDICTED SPECTRUM>  (1838) 
26 35
27 241
28 84
29 221
31 30
39 180
40 47
41 392
42 199
43 725
44 116
45 123
53 85
55 316
56 123
57 63
65 24
70 207
71 999
72 271
73 142
103 36
115 32
117 60
131 48
143 450
144 70
171 1
187 171
201 46

$$$$

     RDKit          2D

 14 13  0  0  0  0  0  0  0  0999 V2000
    3.2476    5.6250    0.0000 C   0  0  0  0  0  0  0  0  0  0  0  0
   -9.7428    5.6250    0.0000 C   0  0  0  0  0  0  0  0  0  0  0  0
   -4.5466   10.1250    0.0000 C   0  0  0  0  0  0  0  0  0  0  0  0
    1.9486    6.3750    0.0000 C   0  0  0  0  0  0  0  0  0  0  0  0
   -8.4437    6.3750    0.0000 C   0  0  0  0  0  0  0  0  0  0  0  0
   -4.5466    8.6250    0.0000 C   0  0  0  0  0  0  0  0  0  0  0  0
    0.6495    5.6250    0.0000 C   0  0  0  0  0  0  0  0  0  0  0  0
   -7.1447    5.6250    0.0000 C   0  0  0  0  0  0  0  0  0  0  0  0
   -3.2476    7.8750    0.0000 C   0  0  0  0  0  0  0  0  0  0  0  0
   -0.6495    6.3750    0.0000 C   0  0  0  0  0  0  0  0  0  0  0  0
   -5.8457    6.3750    0.0000 C   0  0  0  0  0  0  0  0  0  0  0  0
   -3.2476    6.3750    0.0000 C   0  0  0  0  0  0  0  0  0  0  0  0
   -1.9486    5.6250    0.0000 O   0  0  0  0  0  0  0  0  0  0  0  0
   -4.5466    5.6250    0.0000 O   0  0  0  0  0  0  0  0  0  0  0  0
  4  1  1  0
  5  2  1  0
  6  3  1  0
  7  4  1  0
  8  5  1  0
  9  6  1  0
 10  7  1  0
 11  8  1  0
 12  9  1  0
 13 10  1  0
 13 12  1  0
 14 11  1  0
 14 12  1  0
M  END
>  <NAME>  (1839) 
BUTANAL DIBUTYL ACETAL

>  <SYNONYMS>  (1839) 


>  <SPECTRUM TYPE>  (1839) 
MS1

>  <INSTRUMENT TYPE>  (1839) 
EI-B

>  <INSTRUMENT>  (1839) 
HITACHI M-80B

>  <ION MODE>  (1839) 
P

>  <INCHIKEY>  (1839) 
WQRBJFZKPWPIJD-UHFFFAOYSA-N

>  <FORMULA>  (1839) 
C12H26O2

>  <EXACT MASS>  (1839) 
202.193280072

>  <MW>  (1839) 
202

>  <ID>  (1839) 
JP009264

>  <CONTRIBUTOR>  (1839) 
University of Tokyo Team, {Faculty of Engineering, University of Tokyo

>  <COMMENT>  (1839) 
SMILES=CCCCOC(CCC)OCCCC
InChI=InChI=1S/C12H26O2/c1-4-7-10-13-12(9-6-3)14-11-8-5-2/h12H,4-11H2,1-3H3
computed SMILES=O(CCCC)C(OCCCC)CCC
accession=JP009264
date=2016.01.19 (Created 2008.10.21, modified 2011.05.06)
author=SODA AROMATIC CO., LTD.
license=CC BY-NC-SA
exact mass=202.19328
ionization energy=70 eV
ion type=[M]+*
computed spectral entropy=2.2143671280194916
computed normalized entropy=0.7062258692010701
SPLASH=splash10-0a6r-9100000000-f9344d26549f52a6bd59
submitter=submitter = University of Tokyo Team (Faculty of Engineering, University of Tokyo)
MoNA Rating=3.75

>  <NUM PEAKS>  (1839) 
23

>  <MASS SPECTRAL PEAKS>  (1839) 
27 12.6
28 2.7
29 32.2
31 0.39
39 5.6
41 35.1
42 2
43 1.14
44 2.1
47 1.6
55 28.2
56 0.59
57 99.99
58 3
71 2.3
72 0.21
73 50.1
74 2.1
89 1.4
103 1.24
129 29.9
130 2.1
159 10.8

>  <PREDICTED SPECTRUM>  (1839) 
15 19
26 8
27 179
28 69
29 226
31 92
33 8
39 226
40 59
41 564
42 158
43 324
44 106
47 62
53 32
55 276
56 322
57 999
58 143
59 32
61 23
69 58
71 85
72 63
73 311
74 65
75 41
85 14
87 18
101 15
102 28
103 228
104 2
117 69
129 556
130 168
131 33
145 28
159 170
173 117

$$$$

     RDKit          2D

 16 15  0  0  0  0  0  0  0  0999 V2000
    3.5724    6.5625    0.0000 C   0  0  0  0  0  0  0  0  0  0  0  0
   -5.5209    2.8125    0.0000 C   0  0  0  0  0  0  0  0  0  0  0  0
  -10.7171    7.3125    0.0000 C   0  0  0  0  0  0  0  0  0  0  0  0
   -9.4180    5.0625    0.0000 C   0  0  0  0  0  0  0  0  0  0  0  0
    2.2733    7.3125    0.0000 C   0  0  0  0  0  0  0  0  0  0  0  0
   -5.5209    4.3125    0.0000 C   0  0  0  0  0  0  0  0  0  0  0  0
    0.9743    6.5625    0.0000 C   0  0  0  0  0  0  0  0  0  0  0  0
   -0.3248    7.3125    0.0000 C   0  0  0  0  0  0  0  0  0  0  0  0
   -1.6238    6.5625    0.0000 C   0  0  0  0  0  0  0  0  0  0  0  0
   -2.9228    7.3125    0.0000 C   0  0  0  0  0  0  0  0  0  0  0  0
   -8.1190    7.3125    0.0000 C   0  0  0  0  0  0  0  0  0  0  0  0
   -6.8200    6.5625    0.0000 C   0  0  0  0  0  0  0  0  0  0  0  0
   -9.4180    6.5625    0.0000 C   0  0  0  0  0  0  0  0  0  0  0  0
   -4.2219    6.5625    0.0000 C   0  0  0  0  0  0  0  0  0  0  0  0
   -4.2219    5.0625    0.0000 O   0  0  0  0  0  0  0  0  0  0  0  0
   -5.5209    7.3125    0.0000 O   0  0  0  0  0  0  0  0  0  0  0  0
  5  1  1  0
  6  2  1  0
  7  5  1  0
  8  7  1  0
  9  8  1  0
 10  9  1  0
 12 11  1  0
 13  3  1  0
 13  4  1  0
 13 11  1  0
 14 10  1  0
 15  6  1  0
 15 14  1  0
 16 12  1  0
 16 14  1  0
M  END
>  <NAME>  (1840) 
HEPTANAL ETHYL ISOPENTYL ACETAL

>  <SYNONYMS>  (1840) 
HEPTANAL ETHYL ISOAMYL ACETAL

>  <SPECTRUM TYPE>  (1840) 
MS1

>  <INSTRUMENT TYPE>  (1840) 
EI-B

>  <INSTRUMENT>  (1840) 
HITACHI M-80B

>  <ION MODE>  (1840) 
P

>  <INCHIKEY>  (1840) 
ZBRSUNZCGCABAB-UHFFFAOYSA-N

>  <FORMULA>  (1840) 
C14H30O2

>  <EXACT MASS>  (1840) 
230.2245802

>  <MW>  (1840) 
230

>  <ID>  (1840) 
JP009263

>  <CONTRIBUTOR>  (1840) 
University of Tokyo Team, {Faculty of Engineering, University of Tokyo

>  <COMMENT>  (1840) 
SMILES=CCCCCCC(OCC)OCCC(C)C
InChI=InChI=1S/C14H30O2/c1-5-7-8-9-10-14(15-6-2)16-12-11-13(3)4/h13-14H,5-12H2,1-4H3
computed SMILES=O(CC)C(OCCC(C)C)CCCCCC
accession=JP009263
date=2016.01.19 (Created 2008.10.21, modified 2011.05.06)
author=SODA AROMATIC CO., LTD.
license=CC BY-NC-SA
exact mass=230.22458
ionization energy=70 eV
ion type=[M]+*
computed spectral entropy=2.5681716224582303
computed normalized entropy=0.7626807242737998
SPLASH=splash10-00dl-9200000000-935412047c9dde0768c8
submitter=submitter = University of Tokyo Team (Faculty of Engineering, University of Tokyo)
MoNA Rating=3.75

>  <NUM PEAKS>  (1840) 
29

>  <MASS SPECTRAL PEAKS>  (1840) 
27 10.6
28 2.2
29 21.4
31 0.38
39 4.8
41 22.5
42 5.1
43 6.82
44 6
45 2.3
47 8.4
53 0.12
55 29.4
56 2.2
57 7.9
58 0.1
59 2
69 5.6
70 2.7
71 99.99
72 6.8
75 14.1
85 3.3
97 1.14
143 29.9
144 2.6
145 29.2
146 0.21
185 4.7

>  <PREDICTED SPECTRUM>  (1840) 
26 6
27 262
29 355
31 156
39 200
40 80
41 550
42 249
43 774
44 114
45 3
47 354
53 88
54 58
55 595
56 326
57 328
58 125
59 195
61 9
67 75
68 33
69 260
70 162
71 999
72 312
73 20
75 434
76 13
81 25
82 37
83 159
84 11
85 29
86 105
97 80
99 123
100 49
101 64
113 41
129 193
131 36
143 648
144 157
145 176
159 55
185 267
186 1

$$$$

     RDKit          2D

 14 13  0  0  0  0  0  0  0  0999 V2000
    2.5981    4.5000    0.0000 C   0  0  0  0  0  0  0  0  0  0  0  0
   -1.2990    0.7500    0.0000 C   0  0  0  0  0  0  0  0  0  0  0  0
    0.0000    3.0000    0.0000 C   0  0  0  0  0  0  0  0  0  0  0  0
   -7.7942    4.5000    0.0000 C   0  0  0  0  0  0  0  0  0  0  0  0
   -6.4952    6.7500    0.0000 C   0  0  0  0  0  0  0  0  0  0  0  0
    1.2990    5.2500    0.0000 C   0  0  0  0  0  0  0  0  0  0  0  0
    0.0000    4.5000    0.0000 C   0  0  0  0  0  0  0  0  0  0  0  0
   -2.5981    3.0000    0.0000 C   0  0  0  0  0  0  0  0  0  0  0  0
   -5.1962    4.5000    0.0000 C   0  0  0  0  0  0  0  0  0  0  0  0
   -1.2990    2.2500    0.0000 C   0  0  0  0  0  0  0  0  0  0  0  0
   -6.4952    5.2500    0.0000 C   0  0  0  0  0  0  0  0  0  0  0  0
   -2.5981    4.5000    0.0000 C   0  0  0  0  0  0  0  0  0  0  0  0
   -1.2990    5.2500    0.0000 O   0  0  0  0  0  0  0  0  0  0  0  0
   -3.8971    5.2500    0.0000 O   0  0  0  0  0  0  0  0  0  0  0  0
  6  1  1  0
  7  6  1  0
 10  2  1  0
 10  3  1  0
 10  8  1  0
 11  4  1  0
 11  5  1  0
 11  9  1  0
 12  8  1  0
 13  7  1  0
 13 12  1  0
 14  9  1  0
 14 12  1  0
M  END
>  <NAME>  (1841) 
ISOVALERALDEHYDE ISOBUTYL PROPYL ACETAL

>  <SYNONYMS>  (1841) 


>  <SPECTRUM TYPE>  (1841) 
MS1

>  <INSTRUMENT TYPE>  (1841) 
EI-B

>  <INSTRUMENT>  (1841) 
HITACHI M-80B

>  <ION MODE>  (1841) 
P

>  <INCHIKEY>  (1841) 
IRROWXSGAWXJDE-UHFFFAOYSA-N

>  <FORMULA>  (1841) 
C12H26O2

>  <EXACT MASS>  (1841) 
202.193280072

>  <MW>  (1841) 
202

>  <ID>  (1841) 
JP009262

>  <CONTRIBUTOR>  (1841) 
University of Tokyo Team, {Faculty of Engineering, University of Tokyo

>  <COMMENT>  (1841) 
SMILES=CCCOC(OCC(C)C)CC(C)C
InChI=InChI=1S/C12H26O2/c1-6-7-13-12(8-10(2)3)14-9-11(4)5/h10-12H,6-9H2,1-5H3
computed SMILES=O(CCC)C(OCC(C)C)CC(C)C
accession=JP009262
date=2016.01.19 (Created 2008.10.21, modified 2011.05.06)
author=SODA AROMATIC CO., LTD.
license=CC BY-NC-SA
exact mass=202.19328
ionization energy=70 eV
ion type=[M]+*
computed spectral entropy=2.4668593630159097
computed normalized entropy=0.711785153918712
SPLASH=splash10-052f-9000000000-37f23b798bf79b78b1a5
submitter=submitter = University of Tokyo Team (Faculty of Engineering, University of Tokyo)
MoNA Rating=3.75

>  <NUM PEAKS>  (1841) 
32

>  <MASS SPECTRAL PEAKS>  (1841) 
27 15.3
28 1.2
29 22.4
31 0.46
39 8.1
40 1.2
41 40
42 0.47
43 75.3
44 4.8
45 12.4
47 0.56
55 4.1
56 4
57 99.99
58 0.5
60 1.1
69 34.7
70 1.7
71 0.56
85 2.2
87 25.5
88 1.3
89 3.28
90 1.3
103 1.1
113 1
129 3.34
130 2.3
143 10
145 15.5
146 1.1

>  <PREDICTED SPECTRUM>  (1841) 
15 67
26 16
27 289
28 69
29 380
31 169
39 294
40 52
41 660
42 142
43 718
44 149
45 393
47 87
53 5
55 216
56 232
57 999
58 112
59 193
60 59
61 119
69 324
71 86
72 23
73 171
83 62
85 192
87 72
89 46
99 23
101 185
103 168
129 431
130 65
143 197
144 50
145 577
146 55

$$$$

     RDKit          2D

 13 12  0  0  0  0  0  0  0  0999 V2000
    2.2733    5.0625    0.0000 C   0  0  0  0  0  0  0  0  0  0  0  0
   -8.1190    5.0625    0.0000 C   0  0  0  0  0  0  0  0  0  0  0  0
   -4.2219    1.3125    0.0000 C   0  0  0  0  0  0  0  0  0  0  0  0
   -5.5209    3.5625    0.0000 C   0  0  0  0  0  0  0  0  0  0  0  0
    0.9743    5.8125    0.0000 C   0  0  0  0  0  0  0  0  0  0  0  0
   -6.8200    5.8125    0.0000 C   0  0  0  0  0  0  0  0  0  0  0  0
   -0.3248    5.0625    0.0000 C   0  0  0  0  0  0  0  0  0  0  0  0
   -5.5209    5.0625    0.0000 C   0  0  0  0  0  0  0  0  0  0  0  0
   -2.9228    3.5625    0.0000 C   0  0  0  0  0  0  0  0  0  0  0  0
   -4.2219    2.8125    0.0000 C   0  0  0  0  0  0  0  0  0  0  0  0
   -2.9228    5.0625    0.0000 C   0  0  0  0  0  0  0  0  0  0  0  0
   -1.6238    5.8125    0.0000 O   0  0  0  0  0  0  0  0  0  0  0  0
   -4.2219    5.8125    0.0000 O   0  0  0  0  0  0  0  0  0  0  0  0
  5  1  1  0
  6  2  1  0
  7  5  1  0
  8  6  1  0
 10  3  1  0
 10  4  1  0
 10  9  1  0
 11  9  1  0
 12  7  1  0
 12 11  1  0
 13  8  1  0
 13 11  1  0
M  END
>  <NAME>  (1842) 
ISOVALERALDEHYDE DIPROPYL ACETAL

>  <SYNONYMS>  (1842) 


>  <SPECTRUM TYPE>  (1842) 
MS1

>  <INSTRUMENT TYPE>  (1842) 
EI-B

>  <INSTRUMENT>  (1842) 
HITACHI M-80B

>  <ION MODE>  (1842) 
P

>  <INCHIKEY>  (1842) 
SALIHKDQCDUOSH-UHFFFAOYSA-N

>  <FORMULA>  (1842) 
C11H24O2

>  <EXACT MASS>  (1842) 
188.177630008

>  <MW>  (1842) 
188

>  <ID>  (1842) 
JP009261

>  <CONTRIBUTOR>  (1842) 
University of Tokyo Team, {Faculty of Engineering, University of Tokyo

>  <COMMENT>  (1842) 
SMILES=CCCOC(OCCC)CC(C)C
InChI=InChI=1S/C11H24O2/c1-5-7-12-11(9-10(3)4)13-8-6-2/h10-11H,5-9H2,1-4H3
computed SMILES=O(CCC)C(OCCC)CC(C)C
accession=JP009261
date=2016.01.19 (Created 2008.10.21, modified 2011.05.06)
author=SODA AROMATIC CO., LTD.
license=CC BY-NC-SA
exact mass=188.17763
ionization energy=70 eV
ion type=[M]+*
computed spectral entropy=2.415566498358761
computed normalized entropy=0.7600772760020542
SPLASH=splash10-0006-9100000000-a64ff374696dad41b532
submitter=submitter = University of Tokyo Team (Faculty of Engineering, University of Tokyo)
MoNA Rating=3.75

>  <NUM PEAKS>  (1842) 
24

>  <MASS SPECTRAL PEAKS>  (1842) 
27 16.8
29 8.5
31 4.9
39 0.63
41 27.3
42 4.4
43 99.99
44 0.61
45 12.9
47 8.3
57 4
59 0.11
69 32.6
70 1.6
71 5.9
85 0.13
87 21.2
89 33.9
90 1.4
113 0.16
129 31.3
130 2.3
131 25.8
132 1.8

>  <PREDICTED SPECTRUM>  (1842) 
15 113
27 320
29 281
30 58
31 183
33 7
39 269
40 42
41 674
42 176
43 999
44 178
45 487
46 44
47 182
55 125
57 299
58 145
59 114
60 13
61 147
63 124
65 32
69 462
70 62
71 376
73 16
85 205
86 90
87 537
88 65
89 707
90 3
129 563
130 136
131 618
132 46

$$$$

     RDKit          2D

 15 14  0  0  0  0  0  0  0  0999 V2000
    2.9228    5.4375    0.0000 C   0  0  0  0  0  0  0  0  0  0  0  0
   -8.7685    6.1875    0.0000 C   0  0  0  0  0  0  0  0  0  0  0  0
   -7.4695    3.9375    0.0000 C   0  0  0  0  0  0  0  0  0  0  0  0
   -0.9743    1.6875    0.0000 C   0  0  0  0  0  0  0  0  0  0  0  0
    0.3248    3.9375    0.0000 C   0  0  0  0  0  0  0  0  0  0  0  0
    1.6238    6.1875    0.0000 C   0  0  0  0  0  0  0  0  0  0  0  0
   -6.1704    6.1875    0.0000 C   0  0  0  0  0  0  0  0  0  0  0  0
    0.3248    5.4375    0.0000 C   0  0  0  0  0  0  0  0  0  0  0  0
   -4.8714    5.4375    0.0000 C   0  0  0  0  0  0  0  0  0  0  0  0
   -2.2733    3.9375    0.0000 C   0  0  0  0  0  0  0  0  0  0  0  0
   -7.4695    5.4375    0.0000 C   0  0  0  0  0  0  0  0  0  0  0  0
   -0.9743    3.1875    0.0000 C   0  0  0  0  0  0  0  0  0  0  0  0
   -2.2733    5.4375    0.0000 C   0  0  0  0  0  0  0  0  0  0  0  0
   -0.9743    6.1875    0.0000 O   0  0  0  0  0  0  0  0  0  0  0  0
   -3.5724    6.1875    0.0000 O   0  0  0  0  0  0  0  0  0  0  0  0
  6  1  1  0
  8  6  1  0
  9  7  1  0
 11  2  1  0
 11  3  1  0
 11  7  1  0
 12  4  1  0
 12  5  1  0
 12 10  1  0
 13 10  1  0
 14  8  1  0
 14 13  1  0
 15  9  1  0
 15 13  1  0
M  END
>  <NAME>  (1843) 
ISOVALERALDEHYDE ISOPENTYL PROPYL ACETAL

>  <SYNONYMS>  (1843) 
ISOVALERALDEHYDE ISOAMYL PROPYL ACETAL

>  <SPECTRUM TYPE>  (1843) 
MS1

>  <INSTRUMENT TYPE>  (1843) 
EI-B

>  <INSTRUMENT>  (1843) 
HITACHI M-80B

>  <ION MODE>  (1843) 
P

>  <INCHIKEY>  (1843) 
NAMDZBPRKJYRCO-UHFFFAOYSA-N

>  <FORMULA>  (1843) 
C13H28O2

>  <EXACT MASS>  (1843) 
216.208930136

>  <MW>  (1843) 
216

>  <ID>  (1843) 
JP009260

>  <CONTRIBUTOR>  (1843) 
University of Tokyo Team, {Faculty of Engineering, University of Tokyo

>  <COMMENT>  (1843) 
SMILES=CCCOC(OCCC(C)C)CC(C)C
InChI=InChI=1S/C13H28O2/c1-6-8-14-13(10-12(4)5)15-9-7-11(2)3/h11-13H,6-10H2,1-5H3
computed SMILES=O(CCC)C(OCCC(C)C)CC(C)C
accession=JP009260
date=2016.01.19 (Created 2008.10.21, modified 2011.05.06)
author=SODA AROMATIC CO., LTD.
license=CC BY-NC-SA
exact mass=216.20893
ionization energy=70 eV
ion type=[M]+*
computed spectral entropy=2.51837270580144
computed normalized entropy=0.7641072080289462
SPLASH=splash10-00fr-9200000000-667d1359e11ecd88b9b1
submitter=submitter = University of Tokyo Team (Faculty of Engineering, University of Tokyo)
MoNA Rating=3.75

>  <NUM PEAKS>  (1843) 
27

>  <MASS SPECTRAL PEAKS>  (1843) 
27 13.3
28 2
29 12.4
31 0.4
39 6.2
41 27.4
42 5.6
43 9.43
44 5.7
45 9.1
47 1.7
53 0.11
55 9.3
56 1.5
57 4.2
69 2.19
70 3.8
71 99.99
72 5.4
85 0.12
87 14.9
89 10
129 25.8
130 0.2
157 9.6
159 17.5
160 1.5

>  <PREDICTED SPECTRUM>  (1843) 
15 33
26 15
27 286
28 70
29 253
31 169
39 217
40 37
41 489
42 195
43 922
44 238
45 128
47 78
53 6
55 252
57 99
58 16
59 126
65 0
69 213
70 233
71 999
72 131
73 69
87 169
89 141
99 27
100 13
103 9
115 51
117 72
129 450
130 38
157 392
158 88
159 392

$$$$

     RDKit          2D

 15 14  0  0  0  0  0  0  0  0999 V2000
   -0.9743    0.1875    0.0000 C   0  0  0  0  0  0  0  0  0  0  0  0
    0.3248    2.4375    0.0000 C   0  0  0  0  0  0  0  0  0  0  0  0
    2.9228    3.9375    0.0000 C   0  0  0  0  0  0  0  0  0  0  0  0
    1.6238    6.1875    0.0000 C   0  0  0  0  0  0  0  0  0  0  0  0
   -7.4695    3.9375    0.0000 C   0  0  0  0  0  0  0  0  0  0  0  0
   -6.1704    6.1875    0.0000 C   0  0  0  0  0  0  0  0  0  0  0  0
   -2.2733    2.4375    0.0000 C   0  0  0  0  0  0  0  0  0  0  0  0
    0.3248    3.9375    0.0000 C   0  0  0  0  0  0  0  0  0  0  0  0
   -4.8714    3.9375    0.0000 C   0  0  0  0  0  0  0  0  0  0  0  0
   -0.9743    1.6875    0.0000 C   0  0  0  0  0  0  0  0  0  0  0  0
    1.6238    4.6875    0.0000 C   0  0  0  0  0  0  0  0  0  0  0  0
   -6.1704    4.6875    0.0000 C   0  0  0  0  0  0  0  0  0  0  0  0
   -2.2733    3.9375    0.0000 C   0  0  0  0  0  0  0  0  0  0  0  0
   -0.9743    4.6875    0.0000 O   0  0  0  0  0  0  0  0  0  0  0  0
   -3.5724    4.6875    0.0000 O   0  0  0  0  0  0  0  0  0  0  0  0
 10  1  1  0
 10  2  1  0
 10  7  1  0
 11  3  1  0
 11  4  1  0
 11  8  1  0
 12  5  1  0
 12  6  1  0
 12  9  1  0
 13  7  1  0
 14  8  1  0
 14 13  1  0
 15  9  1  0
 15 13  1  0
M  END
>  <NAME>  (1844) 
ISOVALERALDEHYDE DIISOBUTYL ACETAL

>  <SYNONYMS>  (1844) 


>  <SPECTRUM TYPE>  (1844) 
MS1

>  <INSTRUMENT TYPE>  (1844) 
EI-B

>  <INSTRUMENT>  (1844) 
HITACHI M-80B

>  <ION MODE>  (1844) 
P

>  <INCHIKEY>  (1844) 
XQJQKXSIFKNEPF-UHFFFAOYSA-N

>  <FORMULA>  (1844) 
C13H28O2

>  <EXACT MASS>  (1844) 
216.208930136

>  <MW>  (1844) 
216

>  <ID>  (1844) 
JP009259

>  <CONTRIBUTOR>  (1844) 
University of Tokyo Team, {Faculty of Engineering, University of Tokyo

>  <COMMENT>  (1844) 
SMILES=CC(C)COC(OCC(C)C)CC(C)C
InChI=InChI=1S/C13H28O2/c1-10(2)7-13(14-8-11(3)4)15-9-12(5)6/h10-13H,7-9H2,1-6H3
computed SMILES=O(CC(C)C)C(OCC(C)C)CC(C)C
accession=JP009259
date=2016.01.19 (Created 2008.10.21, modified 2011.05.06)
author=SODA AROMATIC CO., LTD.
license=CC BY-NC-SA
exact mass=216.20893
ionization energy=70 eV
ion type=[M]+*
computed spectral entropy=1.9801843037211102
computed normalized entropy=0.6610017594702867
SPLASH=splash10-0a4l-9100000000-f115376f2518d43c0683
submitter=submitter = University of Tokyo Team (Faculty of Engineering, University of Tokyo)
MoNA Rating=3.75

>  <NUM PEAKS>  (1844) 
20

>  <MASS SPECTRAL PEAKS>  (1844) 
27 3.7
29 13.9
31 1.3
39 0.31
41 20.3
42 1.8
43 10.3
45 0.32
55 2.3
56 3
57 99.99
58 0.49
69 12.5
71 2.3
85 2.1
87 1.26
103 8.3
143 20.4
144 1.8
159 6.9

>  <PREDICTED SPECTRUM>  (1844) 
26 7
27 194
28 24
29 352
30 45
31 95
39 216
40 63
41 534
42 148
43 394
44 11
45 109
47 92
53 19
55 163
56 196
57 999
58 127
59 112
69 130
71 200
75 7
86 44
87 243
103 300
104 52
105 23
115 54
143 339
144 62
159 332
160 19

$$$$

     RDKit          2D

 16 15  0  0  0  0  0  0  0  0999 V2000
    3.2476    4.8750    0.0000 C   0  0  0  0  0  0  0  0  0  0  0  0
    1.9486    7.1250    0.0000 C   0  0  0  0  0  0  0  0  0  0  0  0
   -4.5466    9.3750    0.0000 C   0  0  0  0  0  0  0  0  0  0  0  0
   -5.8457    7.1250    0.0000 C   0  0  0  0  0  0  0  0  0  0  0  0
   -8.4437    5.6250    0.0000 C   0  0  0  0  0  0  0  0  0  0  0  0
   -7.1447    3.3750    0.0000 C   0  0  0  0  0  0  0  0  0  0  0  0
    0.6495    4.8750    0.0000 C   0  0  0  0  0  0  0  0  0  0  0  0
   -0.6495    5.6250    0.0000 C   0  0  0  0  0  0  0  0  0  0  0  0
   -3.2476    7.1250    0.0000 C   0  0  0  0  0  0  0  0  0  0  0  0
   -5.8457    5.6250    0.0000 C   0  0  0  0  0  0  0  0  0  0  0  0
    1.9486    5.6250    0.0000 C   0  0  0  0  0  0  0  0  0  0  0  0
   -4.5466    7.8750    0.0000 C   0  0  0  0  0  0  0  0  0  0  0  0
   -7.1447    4.8750    0.0000 C   0  0  0  0  0  0  0  0  0  0  0  0
   -3.2476    5.6250    0.0000 C   0  0  0  0  0  0  0  0  0  0  0  0
   -1.9486    4.8750    0.0000 O   0  0  0  0  0  0  0  0  0  0  0  0
   -4.5466    4.8750    0.0000 O   0  0  0  0  0  0  0  0  0  0  0  0
  8  7  1  0
 11  1  1  0
 11  2  1  0
 11  7  1  0
 12  3  1  0
 12  4  1  0
 12  9  1  0
 13  5  1  0
 13  6  1  0
 13 10  1  0
 14  9  1  0
 15  8  1  0
 15 14  1  0
 16 10  1  0
 16 14  1  0
M  END
>  <NAME>  (1845) 
ISOVALERALDEHYDE ISOBUTYL ISOPENTYL ACETAL

>  <SYNONYMS>  (1845) 
ISOVALERALDEHYDE ISOAMYL ISOBUTYL ACETAL

>  <SPECTRUM TYPE>  (1845) 
MS1

>  <INSTRUMENT TYPE>  (1845) 
EI-B

>  <INSTRUMENT>  (1845) 
HITACHI M-80B

>  <ION MODE>  (1845) 
P

>  <INCHIKEY>  (1845) 
HSBMJOHFCSICMS-UHFFFAOYSA-N

>  <FORMULA>  (1845) 
C14H30O2

>  <EXACT MASS>  (1845) 
230.2245802

>  <MW>  (1845) 
230

>  <ID>  (1845) 
JP009258

>  <CONTRIBUTOR>  (1845) 
University of Tokyo Team, {Faculty of Engineering, University of Tokyo

>  <COMMENT>  (1845) 
SMILES=CC(C)CCOC(OCC(C)C)CC(C)C
InChI=InChI=1S/C14H30O2/c1-11(2)7-8-15-14(9-12(3)4)16-10-13(5)6/h11-14H,7-10H2,1-6H3
computed SMILES=O(CCC(C)C)C(OCC(C)C)CC(C)C
accession=JP009258
date=2016.01.19 (Created 2008.10.21, modified 2011.05.06)
author=SODA AROMATIC CO., LTD.
license=CC BY-NC-SA
exact mass=230.22458
ionization energy=70 eV
ion type=[M]+*
computed spectral entropy=2.4394551101710946
computed normalized entropy=0.71723420796559
SPLASH=splash10-0596-9100000000-bcedb450a7c51e4eaa09
submitter=submitter = University of Tokyo Team (Faculty of Engineering, University of Tokyo)
MoNA Rating=3.75

>  <NUM PEAKS>  (1845) 
30

>  <MASS SPECTRAL PEAKS>  (1845) 
27 10.5
28 1.1
29 21.3
31 0.23
39 6.9
40 1.2
41 34.9
42 0.47
43 65.6
44 3.6
45 5.4
53 0.12
55 10.7
56 5.3
57 87.9
58 0.42
69 15.3
70 2.8
71 99.99
72 0.62
85 2.6
87 12.6
103 1.2
117 0.94
143 15
144 1.5
157 19.7
158 0.19
173 12.2
174 1.2

>  <PREDICTED SPECTRUM>  (1845) 
15 44
26 40
27 315
28 70
29 439
31 79
39 235
40 25
41 591
42 196
43 788
44 130
45 259
47 9
53 71
55 352
56 282
57 972
58 47
59 26
69 324
70 99
71 999
72 187
73 68
87 47
101 72
103 12
117 65
129 52
143 491
144 83
157 503
158 98
173 369
174 45
215 24

$$$$

     RDKit          2D

 21 22  0  0  0  0  0  0  0  0999 V2000
    1.2988    9.3204    0.0000 C   0  0  0  0  0  0  0  0  0  0  0  0
    2.5978    7.0704    0.0000 C   0  0  0  0  0  0  0  0  0  0  0  0
   -5.1964    1.0704    0.0000 C   0  0  0  0  0  0  0  0  0  0  0  0
    6.4949    3.3204    0.0000 C   0  0  0  0  0  0  0  0  0  0  0  0
   -3.8969    0.3196    0.0000 C   0  0  0  0  0  0  0  0  0  0  0  0
   -5.1969    2.5712    0.0000 C   0  0  0  0  0  0  0  0  0  0  0  0
    6.4954    4.8212    0.0000 C   0  0  0  0  0  0  0  0  0  0  0  0
    5.1954    2.5696    0.0000 C   0  0  0  0  0  0  0  0  0  0  0  0
   -2.5978    1.0696    0.0000 C   0  0  0  0  0  0  0  0  0  0  0  0
   -3.8978    3.3212    0.0000 C   0  0  0  0  0  0  0  0  0  0  0  0
    5.1964    5.5712    0.0000 C   0  0  0  0  0  0  0  0  0  0  0  0
    3.8964    3.3196    0.0000 C   0  0  0  0  0  0  0  0  0  0  0  0
   -0.0002    7.0704    0.0000 C   0  0  0  0  0  0  0  0  0  0  0  0
   -1.2993    3.3204    0.0000 C   0  0  0  0  0  0  0  0  0  0  0  0
    2.5978    5.5704    0.0000 C   0  0  0  0  0  0  0  0  0  0  0  0
    1.2988    7.8204    0.0000 C   0  0  0  0  0  0  0  0  0  0  0  0
   -2.5983    2.5704    0.0000 C   0  0  0  0  0  0  0  0  0  0  0  0
    3.8969    4.8204    0.0000 C   0  0  0  0  0  0  0  0  0  0  0  0
   -0.0002    5.5704    0.0000 C   0  0  0  0  0  0  0  0  0  0  0  0
   -1.2993    4.8204    0.0000 O   0  0  0  0  0  0  0  0  0  0  0  0
    1.2988    4.8204    0.0000 O   0  0  0  0  0  0  0  0  0  0  0  0
  5  3  2  0
  6  3  1  0
  7  4  2  0
  8  4  1  0
  9  5  1  0
 10  6  2  0
 11  7  1  0
 12  8  2  0
 16  1  1  0
 16  2  1  0
 16 13  1  0
 17  9  2  0
 17 10  1  0
 17 14  1  0
 18 11  2  0
 18 12  1  0
 18 15  1  0
 19 13  1  0
 20 14  1  0
 20 19  1  0
 21 15  1  0
 21 19  1  0
M  END
>  <NAME>  (1846) 
ISOVALERALDEHYDE DIBENZYL ACETAL

>  <SYNONYMS>  (1846) 


>  <SPECTRUM TYPE>  (1846) 
MS1

>  <INSTRUMENT TYPE>  (1846) 
EI-B

>  <INSTRUMENT>  (1846) 
HITACHI M-80B

>  <ION MODE>  (1846) 
P

>  <INCHIKEY>  (1846) 
JEWZPHLVMXOYOT-UHFFFAOYSA-N

>  <FORMULA>  (1846) 
C19H24O2

>  <EXACT MASS>  (1846) 
284.177630008

>  <MW>  (1846) 
284

>  <ID>  (1846) 
JP009257

>  <CONTRIBUTOR>  (1846) 
University of Tokyo Team, {Faculty of Engineering, University of Tokyo

>  <COMMENT>  (1846) 
SMILES=CC(C)CC(OCc(c2)cccc2)OCc(c1)cccc1
InChI=InChI=1S/C19H24O2/c1-16(2)13-19(20-14-17-9-5-3-6-10-17)21-15-18-11-7-4-8-12-18/h3-12,16,19H,13-15H2,1-2H3
computed SMILES=O(CC=1C=CC=CC1)C(OCC=2C=CC=CC2)CC(C)C
accession=JP009257
date=2016.01.19 (Created 2008.10.21, modified 2011.05.06)
author=SODA AROMATIC CO., LTD.
license=CC BY-NC-SA
exact mass=284.17763
ionization energy=70 eV
ion type=[M]+*
computed spectral entropy=1.4339251244880673
computed normalized entropy=0.5061126538516033
SPLASH=splash10-0006-9000000000-2b831c0bbb5f6ed97f18
submitter=submitter = University of Tokyo Team (Faculty of Engineering, University of Tokyo)
MoNA Rating=3.75

>  <NUM PEAKS>  (1846) 
17

>  <MASS SPECTRAL PEAKS>  (1846) 
29 1.8
39 2.4
41 2.6
51 0.19
65 7.5
77 4.3
79 2.2
89 0.13
90 2.1
91 99.99
92 21.9
93 0.11
105 1.1
107 6.9
108 1.2
133 0.12
181 4.3

>  <PREDICTED SPECTRUM>  (1846) 
26 11
27 80
28 10
29 80
38 9
39 126
40 43
41 181
42 43
43 119
44 25
45 64
50 82
51 150
52 73
53 79
54 5
55 71
56 6
57 38
62 18
63 84
64 53
65 259
66 55
69 70
70 5
71 6
76 3
77 176
78 80
79 136
80 3
85 44
86 22
87 31
89 132
90 79
91 999
92 325
93 53
105 147
106 64
107 204
108 98
114 0
115 74
117 34
119 5
120 17
176 26
181 153
182 13
193 52

$$$$

     RDKit          2D

 19 19  0  0  0  0  0  0  0  0999 V2000
    4.8721    3.8829    0.0000 C   0  0  0  0  0  0  0  0  0  0  0  0
    3.5731    1.6329    0.0000 C   0  0  0  0  0  0  0  0  0  0  0  0
   -0.3240   -0.6171    0.0000 C   0  0  0  0  0  0  0  0  0  0  0  0
    0.9750    1.6329    0.0000 C   0  0  0  0  0  0  0  0  0  0  0  0
   -8.1183    5.3829    0.0000 C   0  0  0  0  0  0  0  0  0  0  0  0
   -8.1187    3.8821    0.0000 C   0  0  0  0  0  0  0  0  0  0  0  0
   -6.8187    6.1337    0.0000 C   0  0  0  0  0  0  0  0  0  0  0  0
   -6.8197    3.1321    0.0000 C   0  0  0  0  0  0  0  0  0  0  0  0
   -5.5197    5.3837    0.0000 C   0  0  0  0  0  0  0  0  0  0  0  0
    2.2740    3.8829    0.0000 C   0  0  0  0  0  0  0  0  0  0  0  0
    0.9750    3.1329    0.0000 C   0  0  0  0  0  0  0  0  0  0  0  0
   -1.6231    1.6329    0.0000 C   0  0  0  0  0  0  0  0  0  0  0  0
   -4.2212    3.1329    0.0000 C   0  0  0  0  0  0  0  0  0  0  0  0
    3.5731    3.1329    0.0000 C   0  0  0  0  0  0  0  0  0  0  0  0
   -0.3240    0.8829    0.0000 C   0  0  0  0  0  0  0  0  0  0  0  0
   -5.5202    3.8829    0.0000 C   0  0  0  0  0  0  0  0  0  0  0  0
   -1.6231    3.1329    0.0000 C   0  0  0  0  0  0  0  0  0  0  0  0
   -0.3240    3.8829    0.0000 O   0  0  0  0  0  0  0  0  0  0  0  0
   -2.9221    3.8829    0.0000 O   0  0  0  0  0  0  0  0  0  0  0  0
  6  5  2  0
  7  5  1  0
  8  6  1  0
  9  7  2  0
 11 10  1  0
 14  1  1  0
 14  2  1  0
 14 10  1  0
 15  3  1  0
 15  4  1  0
 15 12  1  0
 16  8  2  0
 16  9  1  0
 16 13  1  0
 17 12  1  0
 18 11  1  0
 18 17  1  0
 19 13  1  0
 19 17  1  0
M  END
>  <NAME>  (1847) 
ISOVALERALDEHYDE BENZYL 3-METHYLBUTYL ACETAL

>  <SYNONYMS>  (1847) 
ISOPENTANAL ISOAMYL BENZYL ACETAL

>  <SPECTRUM TYPE>  (1847) 
MS1

>  <INSTRUMENT TYPE>  (1847) 
EI-B

>  <INSTRUMENT>  (1847) 
HITACHI M-80B

>  <ION MODE>  (1847) 
P

>  <INCHIKEY>  (1847) 
GLRXEEABVKURPO-UHFFFAOYSA-N

>  <FORMULA>  (1847) 
C17H28O2

>  <EXACT MASS>  (1847) 
264.208930136

>  <MW>  (1847) 
264

>  <ID>  (1847) 
JP009256

>  <CONTRIBUTOR>  (1847) 
University of Tokyo Team, {Faculty of Engineering, University of Tokyo

>  <COMMENT>  (1847) 
SMILES=CC(C)CCOC(CC(C)C)OCc(c1)cccc1
InChI=InChI=1S/C17H28O2/c1-14(2)10-11-18-17(12-15(3)4)19-13-16-8-6-5-7-9-16/h5-9,14-15,17H,10-13H2,1-4H3
computed SMILES=O(CC=1C=CC=CC1)C(OCCC(C)C)CC(C)C
accession=JP009256
author=SODA AROMATIC CO., LTD.
date=2016.01.19 (Created 2008.10.21, modified 2011.05.06)
license=CC BY-NC-SA
exact mass=264.20893
ionization energy=70 eV
ion type=[M]+*
computed spectral entropy=1.4941145401687295
computed normalized entropy=0.49874768628646005
SPLASH=splash10-0006-9000000000-285c836e8513204494b4
submitter=submitter = University of Tokyo Team (Faculty of Engineering, University of Tokyo)
MoNA Rating=3.75

>  <NUM PEAKS>  (1847) 
20

>  <MASS SPECTRAL PEAKS>  (1847) 
27 2.1
29 4.1
39 2.2
41 0.73
42 1.1
43 13.4
55 1.7
57 0.13
65 4.8
69 1.4
71 11.9
77 0.14
79 1.1
90 1.3
91 99.99
92 1.04
133 1
176 1
177 1.3
207 4.4

>  <PREDICTED SPECTRUM>  (1847) 
27 119
29 105
39 131
40 19
41 269
42 85
43 450
44 62
45 157
47 11
50 38
51 70
52 41
53 51
55 161
56 10
57 138
58 20
63 43
64 36
65 229
66 31
69 85
70 17
71 343
72 11
77 16
78 13
79 44
83 24
89 123
90 77
91 999
92 322
93 13
105 20
106 1
107 78
134 16
149 115
150 107
176 68
177 144
178 13
207 155

$$$$

     RDKit          2D

 15 15  0  0  0  0  0  0  0  0999 V2000
  -10.4068   -1.5750    0.0000 C   0  0  0  0  0  0  0  0  0  0  0  0
    2.6027    1.4936    0.0000 C   0  0  0  0  0  0  0  0  0  0  0  0
   -9.1140   -0.8143    0.0000 C   0  0  0  0  0  0  0  0  0  0  0  0
   -7.8088   -1.5536    0.0000 C   0  0  0  0  0  0  0  0  0  0  0  0
   -6.5160   -0.7929    0.0000 C   0  0  0  0  0  0  0  0  0  0  0  0
   -5.2108   -1.5321    0.0000 C   0  0  0  0  0  0  0  0  0  0  0  0
    1.3000   -0.7500    0.0000 C   0  0  0  0  0  0  0  0  0  0  0  0
    0.0300    1.5000    0.0000 C   0  0  0  0  0  0  0  0  0  0  0  0
    0.0300   -1.5000    0.0000 C   0  0  0  0  0  0  0  0  0  0  0  0
   -1.3200    0.7500    0.0000 C   0  0  0  0  0  0  0  0  0  0  0  0
    1.3000    0.7500    0.0000 C   0  0  0  0  0  0  0  0  0  0  0  0
   -1.3200   -0.7500    0.0000 C   0  0  0  0  0  0  0  0  0  0  0  0
   -3.9180   -0.7714    0.0000 C   0  0  0  0  0  0  0  0  0  0  0  0
   -3.9304    0.7285    0.0000 O   0  0  0  0  0  0  0  0  0  0  0  0
   -2.6128   -1.5107    0.0000 O   0  0  0  0  0  0  0  0  0  0  0  0
  3  1  1  0
  4  3  1  0
  5  4  1  0
  5  6  2  0
  9  7  2  0
 10  8  1  0
 11  2  1  0
 11  7  1  0
 11  8  2  0
 12  9  1  0
 12 10  2  0
 13  6  1  0
 14 13  2  0
 15 12  1  0
 15 13  1  0
M  END
>  <NAME>  (1848) 
4-METHYLPHENYL TRANS-2-HEXENOATE

>  <SYNONYMS>  (1848) 
PARA-CRESYL TRANS-2-HEXENOATE

>  <SPECTRUM TYPE>  (1848) 
MS1

>  <INSTRUMENT TYPE>  (1848) 
EI-B

>  <INSTRUMENT>  (1848) 
HITACHI M-80B

>  <ION MODE>  (1848) 
P

>  <INCHIKEY>  (1848) 
ZSNJETLPYLDVIM-AATRIKPKSA-N

>  <FORMULA>  (1848) 
C13H16O2

>  <EXACT MASS>  (1848) 
204.115029752

>  <MW>  (1848) 
204

>  <ID>  (1848) 
JP009255

>  <CONTRIBUTOR>  (1848) 
University of Tokyo Team, {Faculty of Engineering, University of Tokyo

>  <COMMENT>  (1848) 
SMILES=CCCC=CC(=O)Oc(c1)ccc(C)c1
InChI=InChI=1S/C13H16O2/c1-3-4-5-6-13(14)15-12-9-7-11(2)8-10-12/h5-10H,3-4H2,1-2H3/b6-5+
computed SMILES=O=C(OC1=CC=C(C=C1)C)C=CCCC
accession=JP009255
date=2016.01.19 (Created 2008.10.21, modified 2011.05.06)
author=SODA AROMATIC CO., LTD.
license=CC BY-NC-SA
exact mass=204.11503
ionization energy=70 eV
ion type=[M]+*
computed spectral entropy=2.2902453500873197
computed normalized entropy=0.6441690969428984
SPLASH=splash10-052b-9000000000-295705077cfe074ed744
submitter=submitter = University of Tokyo Team (Faculty of Engineering, University of Tokyo)
MoNA Rating=3.75

>  <NUM PEAKS>  (1848) 
35

>  <MASS SPECTRAL PEAKS>  (1848) 
26 1.4
27 12.9
29 3.5
38 0.13
39 13.6
40 2.4
41 22.8
42 0.25
43 1
50 1.8
51 4.6
52 0.32
53 6.5
54 1.7
55 94.9
56 0.25
63 1.4
65 2.1
67 2
68 0.74
69 5.5
77 9.5
78 3.1
79 0.4
80 1
81 5.8
91 2.1
96 2.55
97 99.99
98 5.5
107 8.2
108 1.2
109 1.2
204 7.4
205 1

>  <PREDICTED SPECTRUM>  (1848) 
26 71
27 244
28 62
29 146
38 14
39 261
40 87
41 317
42 109
43 149
44 38
50 87
51 140
52 133
53 219
54 204
55 592
56 78
57 22
62 33
63 91
64 82
65 158
66 78
67 194
68 155
69 348
70 61
77 219
78 148
79 192
80 62
81 192
82 183
83 25
84 35
89 5
90 96
91 172
92 46
93 21
94 22
95 159
96 295
97 999
98 260
99 71
105 20
106 31
107 205
108 366
109 28
110 13
132 27
161 127
162 112
204 357
205 170
206 53

$$$$

     RDKit          2D

 26 25  0  0  0  0  0  0  0  0999 V2000
    7.7942   13.5000    0.0000 C   0  0  0  0  0  0  0  0  0  0  0  0
  -23.3827   13.5000    0.0000 C   0  0  0  0  0  0  0  0  0  0  0  0
    6.4952   14.2500    0.0000 C   0  0  0  0  0  0  0  0  0  0  0  0
    5.1962   13.5000    0.0000 C   0  0  0  0  0  0  0  0  0  0  0  0
    3.8971   14.2500    0.0000 C   0  0  0  0  0  0  0  0  0  0  0  0
    2.5981   13.5000    0.0000 C   0  0  0  0  0  0  0  0  0  0  0  0
    1.2990   14.2500    0.0000 C   0  0  0  0  0  0  0  0  0  0  0  0
    0.0000   13.5000    0.0000 C   0  0  0  0  0  0  0  0  0  0  0  0
   -1.2990   14.2500    0.0000 C   0  0  0  0  0  0  0  0  0  0  0  0
   -2.5981   13.5000    0.0000 C   0  0  0  0  0  0  0  0  0  0  0  0
   -3.8971   14.2500    0.0000 C   0  0  0  0  0  0  0  0  0  0  0  0
   -5.1962   13.5000    0.0000 C   0  0  0  0  0  0  0  0  0  0  0  0
   -6.4952   14.2500    0.0000 C   0  0  0  0  0  0  0  0  0  0  0  0
   -7.7942   13.5000    0.0000 C   0  0  0  0  0  0  0  0  0  0  0  0
   -9.0933   14.2500    0.0000 C   0  0  0  0  0  0  0  0  0  0  0  0
  -10.3923   13.5000    0.0000 C   0  0  0  0  0  0  0  0  0  0  0  0
  -11.6913   14.2500    0.0000 C   0  0  0  0  0  0  0  0  0  0  0  0
  -12.9904   13.5000    0.0000 C   0  0  0  0  0  0  0  0  0  0  0  0
  -14.2894   14.2500    0.0000 C   0  0  0  0  0  0  0  0  0  0  0  0
  -15.5885   13.5000    0.0000 C   0  0  0  0  0  0  0  0  0  0  0  0
  -16.8875   14.2500    0.0000 C   0  0  0  0  0  0  0  0  0  0  0  0
  -18.1865   13.5000    0.0000 C   0  0  0  0  0  0  0  0  0  0  0  0
  -19.4856   14.2500    0.0000 C   0  0  0  0  0  0  0  0  0  0  0  0
  -20.7846   13.5000    0.0000 C   0  0  0  0  0  0  0  0  0  0  0  0
  -20.7846   12.0000    0.0000 O   0  0  0  0  0  0  0  0  0  0  0  0
  -22.0836   14.2500    0.0000 O   0  0  0  0  0  0  0  0  0  0  0  0
  3  1  1  0
  4  3  1  0
  5  4  1  0
  6  5  1  0
  7  6  1  0
  8  7  1  0
  9  8  1  0
 10  9  1  0
 11 10  1  0
 12 11  1  0
 13 12  1  0
 14 13  1  0
 15 14  1  0
 16 15  1  0
 17 16  1  0
 18 17  1  0
 19 18  1  0
 20 19  1  0
 21 20  1  0
 22 21  1  0
 23 22  1  0
 24 23  1  0
 25 24  2  0
 26  2  1  0
 26 24  1  0
M  END
>  <NAME>  (1849) 
METHYL TRICOSANOATE

>  <SYNONYMS>  (1849) 


>  <SPECTRUM TYPE>  (1849) 
MS1

>  <INSTRUMENT TYPE>  (1849) 
EI-B

>  <INSTRUMENT>  (1849) 
HITACHI M-80B

>  <ION MODE>  (1849) 
P

>  <INCHIKEY>  (1849) 
VORKGRIRMPBCCZ-UHFFFAOYSA-N

>  <FORMULA>  (1849) 
C24H48O2

>  <EXACT MASS>  (1849) 
368.365430776

>  <MW>  (1849) 
368

>  <ID>  (1849) 
JP009254

>  <CONTRIBUTOR>  (1849) 
University of Tokyo Team, {Faculty of Engineering, University of Tokyo

>  <COMMENT>  (1849) 
SMILES=CCCCCCCCCCCCCCCCCCCCCCC(=O)OC
InChI=InChI=1S/C24H48O2/c1-3-4-5-6-7-8-9-10-11-12-13-14-15-16-17-18-19-20-21-22-23-24(25)26-2/h3-23H2,1-2H3
computed SMILES=O=C(OC)CCCCCCCCCCCCCCCCCCCCCC
accession=JP009254
date=2016.01.19 (Created 2008.10.21, modified 2011.05.06)
author=SODA AROMATIC CO., LTD.
license=CC BY-NC-SA
exact mass=368.36543
ionization energy=70 eV
ion type=[M]+*
computed spectral entropy=2.7788614228503143
computed normalized entropy=0.696633877301103
SPLASH=splash10-00du-9000000000-a6c375c666a6a1eea3fa
submitter=submitter = University of Tokyo Team (Faculty of Engineering, University of Tokyo)
MoNA Rating=3.75

>  <NUM PEAKS>  (1849) 
54

>  <MASS SPECTRAL PEAKS>  (1849) 
15 1.3
27 3.6
29 9.6
39 0.26
41 29.4
42 5.9
43 52.9
44 0.13
45 1.3
53 1.4
54 2.3
55 3.09
56 6.7
57 33.9
58 1.9
59 0.64
67 3.8
68 2.1
69 20.5
70 0.39
71 12.6
73 2.3
74 99.99
75 3.03
76 1.4
81 3.3
82 1.7
83 1.18
84 3.6
85 5.7
87 66.7
88 0.5
95 2.7
96 1.3
97 7.8
98 0.32
99 1.2
101 4.8
109 1.5
111 0.35
112 1
115 2.1
116 1.2
125 0.17
129 5.1
130 1.7
139 1.1
143 1.54
144 1.4
157 1.4
185 2
199 0.28
269 2
283 1.3

>  <PREDICTED SPECTRUM>  (1849) 
15 32
16 8
17 41
18 81
27 88
28 90
29 181
30 22
31 51
32 4
38 2
39 82
40 58
41 338
42 165
43 520
44 116
45 81
50 0
51 2
52 9
53 124
54 144
55 675
56 359
57 766
58 128
59 285
60 107
61 33
62 21
65 12
66 17
67 244
68 199
69 570
70 284
71 545
72 84
73 205
74 999
75 643
76 133
77 41
78 1
79 60
80 59
81 239
82 224
83 496
84 328
85 393
86 70
87 923
88 235
89 29
93 58
94 73
95 219
96 211
97 468
98 274
99 167
100 81
101 286
102 103
103 11
107 101
108 68
109 184
110 143
111 335
112 213
113 178
114 63
115 234
116 134
117 57
121 137
122 59
123 124
124 86
125 223
126 142
127 137
128 42
129 307
130 118
131 50
132 13
135 105
137 88
138 62
139 148
140 101
141 103
143 521
144 122
145 17
149 43
150 19
151 64
152 53
153 109
154 76
155 48
157 150
158 42
163 77
164 17
165 34
166 44
167 99
168 96
169 40
171 127
172 69
177 22
178 11
179 24
180 50
181 79
185 124
186 49
191 33
192 6
193 10
194 48
195 115
196 60
199 193
200 45
207 79
208 42
209 64
210 7
211 8
213 92
214 21
219 0
222 1
223 104
224 36
227 132
228 46
233 23
236 41
237 44
238 18
241 141
242 36
251 26
252 71
255 88
256 44
264 1
265 23
269 162
270 117
271 73
279 9
280 25
283 156
284 25
285 2
292 52
293 19
294 81
295 55
296 47
297 131
298 83
307 13
308 39
311 156
312 33
319 87
320 17
321 16
325 330
326 151
327 14
335 3
336 116
337 178
338 65
339 115
353 15
367 106
368 454
369 311
370 44
371 16

$$$$

     RDKit          2D

 25 24  0  0  0  0  0  0  0  0999 V2000
  -22.0836   13.5000    0.0000 C   0  0  0  0  0  0  0  0  0  0  0  0
    7.7942   12.7500    0.0000 C   0  0  0  0  0  0  0  0  0  0  0  0
  -20.7846   12.7500    0.0000 C   0  0  0  0  0  0  0  0  0  0  0  0
  -19.4856   13.5000    0.0000 C   0  0  0  0  0  0  0  0  0  0  0  0
  -18.1865   12.7500    0.0000 C   0  0  0  0  0  0  0  0  0  0  0  0
  -16.8875   13.5000    0.0000 C   0  0  0  0  0  0  0  0  0  0  0  0
  -15.5885   12.7500    0.0000 C   0  0  0  0  0  0  0  0  0  0  0  0
  -14.2894   13.5000    0.0000 C   0  0  0  0  0  0  0  0  0  0  0  0
  -12.9904   12.7500    0.0000 C   0  0  0  0  0  0  0  0  0  0  0  0
  -11.6913   13.5000    0.0000 C   0  0  0  0  0  0  0  0  0  0  0  0
  -10.3923   12.7500    0.0000 C   0  0  0  0  0  0  0  0  0  0  0  0
   -9.0933   13.5000    0.0000 C   0  0  0  0  0  0  0  0  0  0  0  0
   -7.7942   12.7500    0.0000 C   0  0  0  0  0  0  0  0  0  0  0  0
   -6.4952   13.5000    0.0000 C   0  0  0  0  0  0  0  0  0  0  0  0
   -5.1962   12.7500    0.0000 C   0  0  0  0  0  0  0  0  0  0  0  0
   -3.8971   13.5000    0.0000 C   0  0  0  0  0  0  0  0  0  0  0  0
   -2.5981   12.7500    0.0000 C   0  0  0  0  0  0  0  0  0  0  0  0
   -1.2990   13.5000    0.0000 C   0  0  0  0  0  0  0  0  0  0  0  0
    0.0000   12.7500    0.0000 C   0  0  0  0  0  0  0  0  0  0  0  0
    1.2990   13.5000    0.0000 C   0  0  0  0  0  0  0  0  0  0  0  0
    2.5981   12.7500    0.0000 C   0  0  0  0  0  0  0  0  0  0  0  0
    3.8971   13.5000    0.0000 C   0  0  0  0  0  0  0  0  0  0  0  0
    5.1962   12.7500    0.0000 C   0  0  0  0  0  0  0  0  0  0  0  0
    5.1962   11.2500    0.0000 O   0  0  0  0  0  0  0  0  0  0  0  0
    6.4952   13.5000    0.0000 O   0  0  0  0  0  0  0  0  0  0  0  0
  3  1  1  0
  4  3  1  0
  5  4  1  0
  6  5  1  0
  7  6  1  0
  8  7  1  0
  9  8  1  0
 10  9  1  0
 11 10  1  0
 12 11  1  0
 13 12  1  0
 14 13  1  0
 15 14  1  0
 16 15  1  0
 17 16  1  0
 18 17  1  0
 19 18  1  0
 20 19  1  0
 21 20  1  0
 22 21  1  0
 23 22  1  0
 24 23  2  0
 25  2  1  0
 25 23  1  0
M  END
>  <NAME>  (1850) 
METHYL DOCOSANOATE

>  <SYNONYMS>  (1850) 


>  <SPECTRUM TYPE>  (1850) 
MS1

>  <INSTRUMENT TYPE>  (1850) 
EI-B

>  <INSTRUMENT>  (1850) 
HITACHI M-80B

>  <ION MODE>  (1850) 
P

>  <INCHIKEY>  (1850) 
QSQLTHHMFHEFIY-UHFFFAOYSA-N

>  <FORMULA>  (1850) 
C23H46O2

>  <EXACT MASS>  (1850) 
354.349780712

>  <MW>  (1850) 
354

>  <ID>  (1850) 
JP009253

>  <CONTRIBUTOR>  (1850) 
University of Tokyo Team, {Faculty of Engineering, University of Tokyo

>  <COMMENT>  (1850) 
SMILES=CCCCCCCCCCCCCCCCCCCCCC(=O)OC
InChI=InChI=1S/C23H46O2/c1-3-4-5-6-7-8-9-10-11-12-13-14-15-16-17-18-19-20-21-22-23(24)25-2/h3-22H2,1-2H3
computed SMILES=O=C(OC)CCCCCCCCCCCCCCCCCCCCC
accession=JP009253
date=2016.01.19 (Created 2008.10.21, modified 2011.05.06)
author=SODA AROMATIC CO., LTD.
license=CC BY-NC-SA
exact mass=354.34978
ionization energy=70 eV
ion type=[M]+*
computed spectral entropy=2.9102945051894977
computed normalized entropy=0.7229913629380271
SPLASH=splash10-00du-9000000000-f3512c578e91df42b926
submitter=submitter = University of Tokyo Team (Faculty of Engineering, University of Tokyo)
MoNA Rating=3.75

>  <NUM PEAKS>  (1850) 
56

>  <MASS SPECTRAL PEAKS>  (1850) 
15 1.4
27 4.5
29 10.3
39 0.29
41 31.5
42 7
43 51.4
44 0.12
45 1.3
53 1.6
54 2.2
55 3.24
56 7.8
57 31.8
58 1.5
59 0.79
60 1.6
67 4.9
68 2.7
69 2.62
70 4.5
71 11.6
73 2.9
74 99.99
75 28.5
76 1.2
79 1.1
81 0.67
82 1.9
83 12.1
84 3.5
85 0.58
87 64.7
88 5.6
93 1.2
95 0.3
96 1.4
97 8.8
98 3.1
101 0.57
109 1.6
111 3
115 1.9
121 0.12
123 1
125 1.6
129 5.9
130 0.16
137 1
143 15
144 1.4
157 0.14
185 1.9
199 2.8
255 2.2
269 1.1

>  <PREDICTED SPECTRUM>  (1850) 
4 3
15 49
16 4
17 42
18 78
27 63
28 71
29 172
30 17
31 38
32 7
39 91
40 67
41 351
42 163
43 526
44 110
45 96
50 0
51 23
52 9
53 130
54 152
55 678
56 355
57 749
58 123
59 289
60 113
61 84
62 22
65 7
66 18
67 254
68 200
69 569
70 291
71 527
72 100
73 199
74 999
75 626
76 122
77 28
79 60
80 67
81 248
82 229
83 494
84 325
85 384
86 57
87 910
88 198
93 91
94 69
95 228
96 216
97 466
98 313
99 176
100 80
101 271
102 128
103 65
107 101
108 63
109 176
110 136
111 333
112 220
113 194
114 78
115 260
116 95
117 47
121 115
122 33
123 128
124 83
125 218
126 131
127 65
128 3
129 231
130 122
131 55
135 104
136 32
137 91
138 66
139 150
140 97
141 115
142 14
143 539
144 123
145 0
149 69
150 29
151 50
152 59
153 128
154 103
155 57
157 141
158 62
163 63
164 27
165 41
166 45
167 88
168 26
169 12
171 150
172 64
177 47
178 25
179 72
180 88
181 128
182 24
185 104
186 48
191 0
194 54
195 85
196 31
199 189
200 40
205 45
207 76
208 23
209 109
210 7
213 136
214 49
222 45
223 48
224 35
227 136
228 37
237 26
238 54
239 3
241 79
242 36
243 4
250 2
251 54
252 63
255 246
256 112
257 53
265 8
266 4
268 3
269 115
270 17
271 15
278 60
279 31
280 65
281 53
282 16
283 111
284 78
293 14
294 38
296 10
297 162
298 49
304 5
305 94
306 8
307 1
311 330
312 146
313 21
322 89
323 202
324 15
325 123
339 24
353 104
354 644
355 340
356 22
357 33

$$$$

     RDKit          2D

 24 23  0  0  0  0  0  0  0  0999 V2000
  -21.4341   12.3750    0.0000 C   0  0  0  0  0  0  0  0  0  0  0  0
    7.1447   12.3750    0.0000 C   0  0  0  0  0  0  0  0  0  0  0  0
  -20.1351   11.6250    0.0000 C   0  0  0  0  0  0  0  0  0  0  0  0
  -18.8361   12.3750    0.0000 C   0  0  0  0  0  0  0  0  0  0  0  0
  -17.5370   11.6250    0.0000 C   0  0  0  0  0  0  0  0  0  0  0  0
  -16.2380   12.3750    0.0000 C   0  0  0  0  0  0  0  0  0  0  0  0
  -14.9389   11.6250    0.0000 C   0  0  0  0  0  0  0  0  0  0  0  0
  -13.6399   12.3750    0.0000 C   0  0  0  0  0  0  0  0  0  0  0  0
  -12.3409   11.6250    0.0000 C   0  0  0  0  0  0  0  0  0  0  0  0
  -11.0418   12.3750    0.0000 C   0  0  0  0  0  0  0  0  0  0  0  0
   -9.7428   11.6250    0.0000 C   0  0  0  0  0  0  0  0  0  0  0  0
   -8.4437   12.3750    0.0000 C   0  0  0  0  0  0  0  0  0  0  0  0
   -7.1447   11.6250    0.0000 C   0  0  0  0  0  0  0  0  0  0  0  0
   -5.8457   12.3750    0.0000 C   0  0  0  0  0  0  0  0  0  0  0  0
   -4.5466   11.6250    0.0000 C   0  0  0  0  0  0  0  0  0  0  0  0
   -3.2476   12.3750    0.0000 C   0  0  0  0  0  0  0  0  0  0  0  0
   -1.9486   11.6250    0.0000 C   0  0  0  0  0  0  0  0  0  0  0  0
   -0.6495   12.3750    0.0000 C   0  0  0  0  0  0  0  0  0  0  0  0
    0.6495   11.6250    0.0000 C   0  0  0  0  0  0  0  0  0  0  0  0
    1.9486   12.3750    0.0000 C   0  0  0  0  0  0  0  0  0  0  0  0
    3.2476   11.6250    0.0000 C   0  0  0  0  0  0  0  0  0  0  0  0
    4.5466   12.3750    0.0000 C   0  0  0  0  0  0  0  0  0  0  0  0
    4.5466   13.8750    0.0000 O   0  0  0  0  0  0  0  0  0  0  0  0
    5.8457   11.6250    0.0000 O   0  0  0  0  0  0  0  0  0  0  0  0
  3  1  1  0
  4  3  1  0
  5  4  1  0
  6  5  1  0
  7  6  1  0
  8  7  1  0
  9  8  1  0
 10  9  1  0
 11 10  1  0
 12 11  1  0
 13 12  1  0
 14 13  1  0
 15 14  1  0
 16 15  1  0
 17 16  1  0
 18 17  1  0
 19 18  1  0
 20 19  1  0
 21 20  1  0
 22 21  1  0
 23 22  2  0
 24  2  1  0
 24 22  1  0
M  END
>  <NAME>  (1851) 
METHYL HENEICOSANOATE

>  <SYNONYMS>  (1851) 


>  <SPECTRUM TYPE>  (1851) 
MS1

>  <INSTRUMENT TYPE>  (1851) 
EI-B

>  <INSTRUMENT>  (1851) 
HITACHI M-80B

>  <ION MODE>  (1851) 
P

>  <INCHIKEY>  (1851) 
AJRICDSAJQHDSD-UHFFFAOYSA-N

>  <FORMULA>  (1851) 
C22H44O2

>  <EXACT MASS>  (1851) 
340.334130648

>  <MW>  (1851) 
340

>  <ID>  (1851) 
JP009252

>  <CONTRIBUTOR>  (1851) 
University of Tokyo Team, {Faculty of Engineering, University of Tokyo

>  <COMMENT>  (1851) 
SMILES=CCCCCCCCCCCCCCCCCCCCC(=O)OC
InChI=InChI=1S/C22H44O2/c1-3-4-5-6-7-8-9-10-11-12-13-14-15-16-17-18-19-20-21-22(23)24-2/h3-21H2,1-2H3
computed SMILES=O=C(OC)CCCCCCCCCCCCCCCCCCCC
accession=JP009252
date=2016.01.19 (Created 2008.10.21, modified 2011.05.06)
author=SODA AROMATIC CO., LTD.
license=CC BY-NC-SA
exact mass=340.33413
ionization energy=70 eV
ion type=[M]+*
computed spectral entropy=3.0033853585122623
computed normalized entropy=0.7335448477453622
SPLASH=splash10-00bi-9000000000-f3fe63207f6b3fba2016
submitter=submitter = University of Tokyo Team (Faculty of Engineering, University of Tokyo)
MoNA Rating=3.75

>  <NUM PEAKS>  (1851) 
60

>  <MASS SPECTRAL PEAKS>  (1851) 
14 4.7
15 1.6
18 3.4
27 0.39
28 99.9
29 12.92
32 42.1
39 0.3
40 4.4
41 32.3
42 7.2
43 5.27
44 1.4
45 1.2
53 1.5
54 0.21
55 32.3
56 7
57 29.9
58 0.16
59 8.5
60 1.1
67 3.8
68 0.22
69 19.8
70 3.5
71 10.3
73 0.25
74 99.99
75 26.4
76 1.2
81 0.37
82 1.7
83 11.6
84 3.3
85 0.43
87 64.7
88 4.9
95 2.5
96 0.12
97 8.1
98 2.9
101 4.7
109 0.12
111 3
115 1.9
116 1
125 0.15
129 5
130 1.6
143 14.9
144 0.14
157 1.3
185 2.4
199 3.1
241 0.26
255 1.7
297 6
298 1.2
309 2.4

>  <PREDICTED SPECTRUM>  (1851) 
15 11
16 4
17 38
18 78
27 120
28 92
29 195
30 18
31 66
32 10
38 1
39 101
40 80
41 368
42 164
43 518
44 104
45 98
51 15
52 8
53 139
54 159
55 683
56 355
57 728
58 136
59 289
60 151
61 59
62 14
65 6
66 22
67 262
68 199
69 564
70 274
71 504
72 84
73 196
74 999
75 609
76 108
77 37
79 89
80 68
81 261
82 236
83 490
84 333
85 375
86 58
87 894
88 219
89 47
93 97
94 68
95 232
96 215
97 465
98 328
99 185
100 81
101 290
102 82
103 53
106 7
107 88
108 31
109 181
110 140
111 329
112 216
113 152
114 44
115 191
116 110
117 60
121 111
122 55
123 133
124 79
125 215
126 126
127 77
128 35
129 297
130 122
131 40
135 120
136 37
137 86
138 80
139 165
140 120
141 122
142 12
143 515
144 140
145 10
149 63
150 44
151 55
152 65
153 120
154 38
155 33
157 161
158 55
163 82
164 34
165 88
166 86
167 128
168 103
169 6
171 131
172 66
177 23
179 42
180 72
181 101
182 5
183 2
185 113
186 36
191 58
194 47
195 135
196 36
199 199
200 47
201 11
205 46
207 43
208 51
209 61
210 2
211 8
213 148
214 44
223 29
224 48
227 67
228 30
236 2
237 59
238 42
241 246
242 103
243 84
251 19
252 54
255 161
256 16
257 4
264 71
265 29
266 25
267 55
268 19
269 88
270 88
279 22
280 41
283 164
284 48
291 68
292 9
297 283
298 133
299 16
308 120
309 149
310 93
311 127
325 7
339 87
340 544
341 210
342 113

$$$$

     RDKit          2D

 23 22  0  0  0  0  0  0  0  0999 V2000
  -20.1351   12.3750    0.0000 C   0  0  0  0  0  0  0  0  0  0  0  0
    7.1447   11.6250    0.0000 C   0  0  0  0  0  0  0  0  0  0  0  0
  -18.8361   11.6250    0.0000 C   0  0  0  0  0  0  0  0  0  0  0  0
  -17.5370   12.3750    0.0000 C   0  0  0  0  0  0  0  0  0  0  0  0
  -16.2380   11.6250    0.0000 C   0  0  0  0  0  0  0  0  0  0  0  0
  -14.9389   12.3750    0.0000 C   0  0  0  0  0  0  0  0  0  0  0  0
  -13.6399   11.6250    0.0000 C   0  0  0  0  0  0  0  0  0  0  0  0
  -12.3409   12.3750    0.0000 C   0  0  0  0  0  0  0  0  0  0  0  0
  -11.0418   11.6250    0.0000 C   0  0  0  0  0  0  0  0  0  0  0  0
   -9.7428   12.3750    0.0000 C   0  0  0  0  0  0  0  0  0  0  0  0
   -8.4437   11.6250    0.0000 C   0  0  0  0  0  0  0  0  0  0  0  0
   -7.1447   12.3750    0.0000 C   0  0  0  0  0  0  0  0  0  0  0  0
   -5.8457   11.6250    0.0000 C   0  0  0  0  0  0  0  0  0  0  0  0
   -4.5466   12.3750    0.0000 C   0  0  0  0  0  0  0  0  0  0  0  0
   -3.2476   11.6250    0.0000 C   0  0  0  0  0  0  0  0  0  0  0  0
   -1.9486   12.3750    0.0000 C   0  0  0  0  0  0  0  0  0  0  0  0
   -0.6495   11.6250    0.0000 C   0  0  0  0  0  0  0  0  0  0  0  0
    0.6495   12.3750    0.0000 C   0  0  0  0  0  0  0  0  0  0  0  0
    1.9486   11.6250    0.0000 C   0  0  0  0  0  0  0  0  0  0  0  0
    3.2476   12.3750    0.0000 C   0  0  0  0  0  0  0  0  0  0  0  0
    4.5466   11.6250    0.0000 C   0  0  0  0  0  0  0  0  0  0  0  0
    4.5466   10.1250    0.0000 O   0  0  0  0  0  0  0  0  0  0  0  0
    5.8457   12.3750    0.0000 O   0  0  0  0  0  0  0  0  0  0  0  0
  3  1  1  0
  4  3  1  0
  5  4  1  0
  6  5  1  0
  7  6  1  0
  8  7  1  0
  9  8  1  0
 10  9  1  0
 11 10  1  0
 12 11  1  0
 13 12  1  0
 14 13  1  0
 15 14  1  0
 16 15  1  0
 17 16  1  0
 18 17  1  0
 19 18  1  0
 20 19  1  0
 21 20  1  0
 22 21  2  0
 23  2  1  0
 23 21  1  0
M  END
>  <NAME>  (1852) 
METHYL EICOSANOATE

>  <SYNONYMS>  (1852) 


>  <SPECTRUM TYPE>  (1852) 
MS1

>  <INSTRUMENT TYPE>  (1852) 
EI-B

>  <INSTRUMENT>  (1852) 
HITACHI M-80B

>  <ION MODE>  (1852) 
P

>  <INCHIKEY>  (1852) 
QGBRLVONZXHAKJ-UHFFFAOYSA-N

>  <FORMULA>  (1852) 
C21H42O2

>  <EXACT MASS>  (1852) 
326.318480584

>  <MW>  (1852) 
326

>  <ID>  (1852) 
JP009251

>  <CONTRIBUTOR>  (1852) 
University of Tokyo Team, {Faculty of Engineering, University of Tokyo

>  <COMMENT>  (1852) 
SMILES=CCCCCCCCCCCCCCCCCCCC(=O)OC
InChI=InChI=1S/C21H42O2/c1-3-4-5-6-7-8-9-10-11-12-13-14-15-16-17-18-19-20-21(22)23-2/h3-20H2,1-2H3
computed SMILES=O=C(OC)CCCCCCCCCCCCCCCCCCC
accession=JP009251
date=2016.01.19 (Created 2008.10.21, modified 2011.05.06)
author=SODA AROMATIC CO., LTD.
license=CC BY-NC-SA
exact mass=326.31848
ionization energy=70 eV
ion type=[M]+*
computed spectral entropy=2.8858643620207447
computed normalized entropy=0.723458486755882
SPLASH=splash10-05fu-9000000000-e8cc3fd49c348f1662b3
submitter=submitter = University of Tokyo Team (Faculty of Engineering, University of Tokyo)
MoNA Rating=3.75

>  <NUM PEAKS>  (1852) 
54

>  <MASS SPECTRAL PEAKS>  (1852) 
15 2.3
27 6
39 4.7
41 4.47
42 7
43 62.2
53 1.6
54 0.29
55 38.4
56 7
57 29.8
59 1.04
67 4.4
68 2.3
69 18.2
70 0.26
71 7.3
72 1
73 1.9
74 99.99
75 24.1
79 1.4
81 2.8
82 0.18
83 9.4
84 2.2
85 4.1
87 6.65
88 4.9
95 2.7
96 1.2
97 0.71
98 3.4
101 5.1
109 1.5
111 0.31
115 2.3
116 1.1
125 1.8
129 0.49
130 1.6
135 1
143 11.7
144 0.13
157 1.1
171 1.6
185 2.1
199 0.29
227 2.3
241 1.8
283 5.3
284 0.12
295 2.8
297 1.5

>  <PREDICTED SPECTRUM>  (1852) 
15 52
16 5
17 43
18 78
26 2
27 93
28 86
29 197
30 20
31 66
32 14
33 3
34 2
38 0
39 114
40 86
41 394
42 172
43 535
44 127
45 105
51 17
52 11
53 145
54 166
55 692
56 351
57 702
58 126
59 286
60 102
61 2
62 1
65 23
66 22
67 273
68 209
69 563
70 283
71 484
72 82
73 160
74 999
75 598
76 117
77 60
79 98
80 70
81 267
82 243
83 489
84 342
85 368
86 56
87 877
88 172
89 41
93 85
94 60
95 241
96 221
97 468
98 331
99 143
100 50
101 227
102 103
103 55
106 1
107 88
108 74
109 185
110 147
111 330
112 219
113 157
114 72
115 253
116 108
117 60
121 120
122 52
123 137
124 84
125 217
126 138
127 88
128 35
129 292
130 149
131 40
135 115
136 53
137 89
138 93
139 161
140 70
141 109
143 496
144 133
149 82
150 38
151 98
152 103
153 155
154 115
155 28
157 145
158 64
163 66
164 4
165 66
166 70
167 115
168 65
169 31
171 134
172 48
173 4
177 69
179 46
180 44
181 145
182 12
185 140
186 65
187 7
191 73
194 64
195 77
196 33
199 200
200 40
201 2
207 21
208 13
209 50
210 16
211 21
213 64
214 30
222 1
223 61
224 47
227 231
228 93
229 44
237 9
238 30
240 3
241 153
242 5
243 28
250 77
251 52
252 74
253 15
255 108
256 88
258 0
265 23
266 21
267 8
269 130
270 55
276 19
277 77
278 22
279 7
283 324
284 118
285 4
294 135
295 302
296 117
297 141
298 9
311 13
325 67
326 619
327 300
328 109
329 13

$$$$

     RDKit          2D

 22 21  0  0  0  0  0  0  0  0999 V2000
    6.4952   11.2500    0.0000 C   0  0  0  0  0  0  0  0  0  0  0  0
  -19.4856   11.2500    0.0000 C   0  0  0  0  0  0  0  0  0  0  0  0
    5.1962   12.0000    0.0000 C   0  0  0  0  0  0  0  0  0  0  0  0
    3.8971   11.2500    0.0000 C   0  0  0  0  0  0  0  0  0  0  0  0
    2.5981   12.0000    0.0000 C   0  0  0  0  0  0  0  0  0  0  0  0
    1.2990   11.2500    0.0000 C   0  0  0  0  0  0  0  0  0  0  0  0
    0.0000   12.0000    0.0000 C   0  0  0  0  0  0  0  0  0  0  0  0
   -1.2990   11.2500    0.0000 C   0  0  0  0  0  0  0  0  0  0  0  0
   -2.5981   12.0000    0.0000 C   0  0  0  0  0  0  0  0  0  0  0  0
   -3.8971   11.2500    0.0000 C   0  0  0  0  0  0  0  0  0  0  0  0
   -5.1962   12.0000    0.0000 C   0  0  0  0  0  0  0  0  0  0  0  0
   -6.4952   11.2500    0.0000 C   0  0  0  0  0  0  0  0  0  0  0  0
   -7.7942   12.0000    0.0000 C   0  0  0  0  0  0  0  0  0  0  0  0
   -9.0933   11.2500    0.0000 C   0  0  0  0  0  0  0  0  0  0  0  0
  -10.3923   12.0000    0.0000 C   0  0  0  0  0  0  0  0  0  0  0  0
  -11.6913   11.2500    0.0000 C   0  0  0  0  0  0  0  0  0  0  0  0
  -12.9904   12.0000    0.0000 C   0  0  0  0  0  0  0  0  0  0  0  0
  -14.2894   11.2500    0.0000 C   0  0  0  0  0  0  0  0  0  0  0  0
  -15.5885   12.0000    0.0000 C   0  0  0  0  0  0  0  0  0  0  0  0
  -16.8875   11.2500    0.0000 C   0  0  0  0  0  0  0  0  0  0  0  0
  -16.8875    9.7500    0.0000 O   0  0  0  0  0  0  0  0  0  0  0  0
  -18.1865   12.0000    0.0000 O   0  0  0  0  0  0  0  0  0  0  0  0
  3  1  1  0
  4  3  1  0
  5  4  1  0
  6  5  1  0
  7  6  1  0
  8  7  1  0
  9  8  1  0
 10  9  1  0
 11 10  1  0
 12 11  1  0
 13 12  1  0
 14 13  1  0
 15 14  1  0
 16 15  1  0
 17 16  1  0
 18 17  1  0
 19 18  1  0
 20 19  1  0
 21 20  2  0
 22  2  1  0
 22 20  1  0
M  END
>  <NAME>  (1853) 
METHYL NONADECANOATE

>  <SYNONYMS>  (1853) 


>  <SPECTRUM TYPE>  (1853) 
MS1

>  <INSTRUMENT TYPE>  (1853) 
EI-B

>  <INSTRUMENT>  (1853) 
HITACHI M-80B

>  <ION MODE>  (1853) 
P

>  <INCHIKEY>  (1853) 
BDXAHSJUDUZLDU-UHFFFAOYSA-N

>  <FORMULA>  (1853) 
C20H40O2

>  <EXACT MASS>  (1853) 
312.30283052

>  <MW>  (1853) 
312

>  <ID>  (1853) 
JP009250

>  <CONTRIBUTOR>  (1853) 
University of Tokyo Team, {Faculty of Engineering, University of Tokyo

>  <COMMENT>  (1853) 
SMILES=CCCCCCCCCCCCCCCCCCC(=O)OC
InChI=InChI=1S/C20H40O2/c1-3-4-5-6-7-8-9-10-11-12-13-14-15-16-17-18-19-20(21)22-2/h3-19H2,1-2H3
computed SMILES=O=C(OC)CCCCCCCCCCCCCCCCCC
accession=JP009250
date=2016.01.19 (Created 2008.10.21, modified 2011.05.06)
author=SODA AROMATIC CO., LTD.
license=CC BY-NC-SA
exact mass=312.30283
ionization energy=70 eV
ion type=[M]+*
computed spectral entropy=2.8939893757278554
computed normalized entropy=0.7157933906877887
SPLASH=splash10-059f-9000000000-656c58a9685df137bf2c
submitter=submitter = University of Tokyo Team (Faculty of Engineering, University of Tokyo)
MoNA Rating=3.75

>  <NUM PEAKS>  (1853) 
57

>  <MASS SPECTRAL PEAKS>  (1853) 
15 2.8
27 6.7
31 1.4
39 0.45
41 51.1
42 9.8
43 62.5
45 0.1
53 2.6
54 2.9
55 38.8
56 0.69
57 29.2
59 11.8
67 4.5
68 0.22
69 19.3
70 4.4
71 8.5
73 0.28
74 99.99
75 22.9
79 1.4
81 0.24
82 1.8
83 9
84 1.9
85 0.28
87 63.7
88 5
95 2.3
96 0.13
97 6.9
98 3.6
99 1
101 0.56
109 1.5
111 2.7
112 1.1
115 0.21
116 1.3
125 1.4
129 4.8
130 0.15
143 11.6
144 1.3
157 1.7
171 0.14
185 2.2
199 2.5
213 2.4
227 0.17
255 1.1
269 5.3
270 1.6
281 0.3
283 1.2

>  <PREDICTED SPECTRUM>  (1853) 
15 31
16 6
17 43
18 79
26 5
27 161
28 120
29 233
30 56
31 73
32 19
33 8
34 4
38 5
39 129
40 86
41 418
42 183
43 535
44 116
45 109
51 37
52 14
53 158
54 179
55 698
56 354
57 677
58 130
59 274
60 117
61 63
62 19
65 31
66 21
67 279
68 209
69 560
70 283
71 463
72 80
73 149
74 999
75 584
76 122
77 66
78 2
79 92
80 65
81 272
82 246
83 486
84 346
85 355
86 43
87 858
88 201
89 48
93 86
94 73
95 246
96 222
97 466
98 338
99 143
100 71
101 286
102 92
103 53
107 94
108 73
109 182
110 157
111 330
112 224
113 165
114 77
115 248
116 144
117 69
121 114
122 67
123 139
124 87
125 215
126 104
127 74
129 315
130 149
131 11
132 16
135 126
136 38
137 118
138 120
139 191
140 133
141 105
142 1
143 451
144 143
149 80
150 13
151 78
152 89
153 145
154 76
155 60
157 141
158 43
159 22
163 93
164 4
165 68
166 45
167 141
168 65
171 156
172 84
173 50
177 88
180 79
181 87
182 15
185 175
186 54
194 39
195 61
196 79
197 9
199 130
200 27
201 7
205 7
207 41
208 15
209 72
210 9
211 8
213 228
214 84
215 36
223 14
224 44
227 142
229 7
236 89
237 53
238 74
239 56
240 8
241 98
242 82
251 28
252 53
253 4
255 178
256 62
263 48
264 19
265 13
269 229
270 129
271 15
280 122
281 317
282 116
283 132
284 13
297 51
311 57
312 586
313 294
314 110
315 11

$$$$

     RDKit          2D

 20 19  0  0  0  0  0  0  0  0999 V2000
    5.8457   10.1250    0.0000 C   0  0  0  0  0  0  0  0  0  0  0  0
  -17.5370   10.1250    0.0000 C   0  0  0  0  0  0  0  0  0  0  0  0
    4.5466   10.8750    0.0000 C   0  0  0  0  0  0  0  0  0  0  0  0
    3.2476   10.1250    0.0000 C   0  0  0  0  0  0  0  0  0  0  0  0
    1.9486   10.8750    0.0000 C   0  0  0  0  0  0  0  0  0  0  0  0
    0.6495   10.1250    0.0000 C   0  0  0  0  0  0  0  0  0  0  0  0
   -0.6495   10.8750    0.0000 C   0  0  0  0  0  0  0  0  0  0  0  0
   -1.9486   10.1250    0.0000 C   0  0  0  0  0  0  0  0  0  0  0  0
   -3.2476   10.8750    0.0000 C   0  0  0  0  0  0  0  0  0  0  0  0
   -4.5466   10.1250    0.0000 C   0  0  0  0  0  0  0  0  0  0  0  0
   -5.8457   10.8750    0.0000 C   0  0  0  0  0  0  0  0  0  0  0  0
   -7.1447   10.1250    0.0000 C   0  0  0  0  0  0  0  0  0  0  0  0
   -8.4437   10.8750    0.0000 C   0  0  0  0  0  0  0  0  0  0  0  0
   -9.7428   10.1250    0.0000 C   0  0  0  0  0  0  0  0  0  0  0  0
  -11.0418   10.8750    0.0000 C   0  0  0  0  0  0  0  0  0  0  0  0
  -12.3409   10.1250    0.0000 C   0  0  0  0  0  0  0  0  0  0  0  0
  -13.6399   10.8750    0.0000 C   0  0  0  0  0  0  0  0  0  0  0  0
  -14.9389   10.1250    0.0000 C   0  0  0  0  0  0  0  0  0  0  0  0
  -14.9389    8.6250    0.0000 O   0  0  0  0  0  0  0  0  0  0  0  0
  -16.2380   10.8750    0.0000 O   0  0  0  0  0  0  0  0  0  0  0  0
  3  1  1  0
  4  3  1  0
  5  4  1  0
  6  5  1  0
  7  6  1  0
  8  7  1  0
  9  8  1  0
 10  9  1  0
 11 10  1  0
 12 11  1  0
 13 12  1  0
 14 13  1  0
 15 14  1  0
 16 15  1  0
 17 16  1  0
 18 17  1  0
 19 18  2  0
 20  2  1  0
 20 18  1  0
M  END
>  <NAME>  (1854) 
METHYL HEPTADECANOATE

>  <SYNONYMS>  (1854) 


>  <SPECTRUM TYPE>  (1854) 
MS1

>  <INSTRUMENT TYPE>  (1854) 
EI-B

>  <INSTRUMENT>  (1854) 
HITACHI M-80B

>  <ION MODE>  (1854) 
P

>  <INCHIKEY>  (1854) 
HUEBIMLTDXKIPR-UHFFFAOYSA-N

>  <FORMULA>  (1854) 
C18H36O2

>  <EXACT MASS>  (1854) 
284.271530392

>  <MW>  (1854) 
284

>  <ID>  (1854) 
JP009249

>  <CONTRIBUTOR>  (1854) 
University of Tokyo Team, {Faculty of Engineering, University of Tokyo

>  <COMMENT>  (1854) 
SMILES=CCCCCCCCCCCCCCCCC(=O)OC
InChI=InChI=1S/C18H36O2/c1-3-4-5-6-7-8-9-10-11-12-13-14-15-16-17-18(19)20-2/h3-17H2,1-2H3
computed SMILES=O=C(OC)CCCCCCCCCCCCCCCC
accession=JP009249
date=2016.01.19 (Created 2008.10.21, modified 2011.05.06)
author=SODA AROMATIC CO., LTD.
license=CC BY-NC-SA
exact mass=284.27153
ionization energy=70 eV
ion type=[M]+*
computed spectral entropy=2.850646858914807
computed normalized entropy=0.7286886746216417
SPLASH=splash10-059f-9000000000-0e952678e45e6b7f15b7
submitter=submitter = University of Tokyo Team (Faculty of Engineering, University of Tokyo)
MoNA Rating=3.75

>  <NUM PEAKS>  (1854) 
50

>  <MASS SPECTRAL PEAKS>  (1854) 
15 2.5
27 7.9
29 4.2
39 0.46
41 43.7
42 10.2
43 54.8
45 0.16
53 1.8
54 2.2
55 36.4
56 0.67
57 23.2
58 1.1
59 12.5
67 0.31
68 1.5
69 17.3
70 2.9
71 0.52
73 2.8
74 99.99
75 18.7
79 0.11
81 2.6
82 1.2
83 9.5
84 0.27
85 2.8
87 61.7
88 4.8
95 0.16
97 5.4
98 2.2
101 4.6
111 0.21
115 1.6
125 1.2
129 4.4
130 0.11
143 11.7
144 1.3
157 1
185 0.29
199 2.7
241 5
253 3.1
255 0.13
284 10.1
285 1.9

>  <PREDICTED SPECTRUM>  (1854) 
3 0
4 11
15 62
16 14
17 49
18 85
26 15
27 167
28 127
29 254
30 60
31 58
32 27
33 17
34 9
37 3
38 16
39 172
40 103
41 469
42 213
43 562
44 123
45 109
50 2
51 47
52 24
53 178
54 195
55 698
56 356
57 618
58 118
59 254
60 115
61 77
62 10
65 35
66 25
67 281
68 202
69 541
70 265
71 412
72 82
73 156
74 999
75 554
76 91
77 61
79 101
80 72
81 277
82 245
83 473
84 353
85 329
86 56
87 836
88 221
89 63
93 101
94 90
95 260
96 238
97 450
98 350
99 145
100 23
101 291
102 127
103 38
107 106
108 88
109 181
110 174
111 316
112 221
113 146
114 64
115 236
116 150
117 35
121 131
122 37
123 136
124 87
125 207
126 113
127 92
129 269
130 132
131 48
132 24
135 126
136 6
137 100
138 117
139 210
140 94
141 66
143 346
144 134
145 66
149 118
151 25
152 98
153 125
154 82
155 35
157 198
158 62
163 12
166 40
167 82
168 107
169 32
171 100
172 38
173 25
177 47
179 15
180 27
181 85
182 43
185 215
186 72
187 71
194 8
195 38
196 38
199 167
200 11
201 43
208 109
209 78
210 17
211 63
213 81
214 72
216 10
223 6
224 44
227 166
228 62
234 44
235 86
236 24
241 303
242 119
243 4
251 0
252 123
253 172
254 77
255 133
256 1
269 33
283 36
284 386
285 140
286 82

$$$$

     RDKit          2D

 26 25  0  0  0  0  0  0  0  0999 V2000
    7.7942   13.5000    0.0000 C   0  0  0  0  0  0  0  0  0  0  0  0
    6.4952   14.2500    0.0000 C   0  0  0  0  0  0  0  0  0  0  0  0
    5.1962   13.5000    0.0000 C   0  0  0  0  0  0  0  0  0  0  0  0
    3.8971   14.2500    0.0000 C   0  0  0  0  0  0  0  0  0  0  0  0
    2.5981   13.5000    0.0000 C   0  0  0  0  0  0  0  0  0  0  0  0
    1.2990   14.2500    0.0000 C   0  0  0  0  0  0  0  0  0  0  0  0
    0.0000   13.5000    0.0000 C   0  0  0  0  0  0  0  0  0  0  0  0
   -1.2990   14.2500    0.0000 C   0  0  0  0  0  0  0  0  0  0  0  0
   -2.5981   13.5000    0.0000 C   0  0  0  0  0  0  0  0  0  0  0  0
   -3.8971   14.2500    0.0000 C   0  0  0  0  0  0  0  0  0  0  0  0
   -5.1962   13.5000    0.0000 C   0  0  0  0  0  0  0  0  0  0  0  0
   -6.4952   14.2500    0.0000 C   0  0  0  0  0  0  0  0  0  0  0  0
   -7.7942   13.5000    0.0000 C   0  0  0  0  0  0  0  0  0  0  0  0
   -9.0933   14.2500    0.0000 C   0  0  0  0  0  0  0  0  0  0  0  0
  -10.3923   13.5000    0.0000 C   0  0  0  0  0  0  0  0  0  0  0  0
  -11.6913   14.2500    0.0000 C   0  0  0  0  0  0  0  0  0  0  0  0
  -12.9904   13.5000    0.0000 C   0  0  0  0  0  0  0  0  0  0  0  0
  -14.2894   14.2500    0.0000 C   0  0  0  0  0  0  0  0  0  0  0  0
  -15.5885   13.5000    0.0000 C   0  0  0  0  0  0  0  0  0  0  0  0
  -16.8875   14.2500    0.0000 C   0  0  0  0  0  0  0  0  0  0  0  0
  -18.1865   13.5000    0.0000 C   0  0  0  0  0  0  0  0  0  0  0  0
  -19.4856   14.2500    0.0000 C   0  0  0  0  0  0  0  0  0  0  0  0
  -20.7846   13.5000    0.0000 C   0  0  0  0  0  0  0  0  0  0  0  0
  -22.0836   14.2500    0.0000 C   0  0  0  0  0  0  0  0  0  0  0  0
  -22.0836   15.7500    0.0000 O   0  0  0  0  0  0  0  0  0  0  0  0
  -23.3827   13.5000    0.0000 O   0  0  0  0  0  0  0  0  0  0  0  0
  2  1  1  0
  3  2  1  0
  4  3  1  0
  5  4  1  0
  6  5  1  0
  7  6  1  0
  8  7  1  0
  9  8  1  0
 10  9  1  0
 11 10  1  0
 12 11  1  0
 13 12  1  0
 14 13  1  0
 15 14  1  0
 16 15  1  0
 17 16  1  0
 18 17  1  0
 19 18  1  0
 20 19  1  0
 21 20  1  0
 22 21  1  0
 23 22  1  0
 24 23  1  0
 25 24  2  0
 26 24  1  0
M  END
>  <NAME>  (1855) 
TETRACOSANOIC ACID

>  <SYNONYMS>  (1855) 


>  <SPECTRUM TYPE>  (1855) 
MS1

>  <INSTRUMENT TYPE>  (1855) 
EI-B

>  <INSTRUMENT>  (1855) 
HITACHI M-80B

>  <ION MODE>  (1855) 
P

>  <INCHIKEY>  (1855) 
QZZGJDVWLFXDLK-UHFFFAOYSA-N

>  <FORMULA>  (1855) 
C24H48O2

>  <EXACT MASS>  (1855) 
368.365430776

>  <MW>  (1855) 
368

>  <ID>  (1855) 
JP009248

>  <CONTRIBUTOR>  (1855) 
University of Tokyo Team, {Faculty of Engineering, University of Tokyo

>  <COMMENT>  (1855) 
SMILES=CCCCCCCCCCCCCCCCCCCCCCCC(O)=O
InChI=InChI=1S/C24H48O2/c1-2-3-4-5-6-7-8-9-10-11-12-13-14-15-16-17-18-19-20-21-22-23-24(25)26/h2-23H2,1H3,(H,25,26)
computed SMILES=O=C(O)CCCCCCCCCCCCCCCCCCCCCCC
accession=JP009248
date=2016.01.19 (Created 2008.10.21, modified 2011.05.06)
author=SODA AROMATIC CO., LTD.
license=CC BY-NC-SA
exact mass=368.36543
ionization energy=70 eV
ion type=[M]+*
computed spectral entropy=3.3232651979911694
computed normalized entropy=0.7520672259885554
SPLASH=splash10-07bf-9000000000-2ae141518702212751a7
submitter=submitter = University of Tokyo Team (Faculty of Engineering, University of Tokyo)
MoNA Rating=3.75

>  <NUM PEAKS>  (1855) 
83

>  <MASS SPECTRAL PEAKS>  (1855) 
27 5.9
28 1.9
29 18.6
39 0.53
40 1
41 49.4
42 10
43 99.99
44 2.6
45 6.9
53 1.9
54 0.38
55 58.1
56 13.7
57 81.7
58 0.38
59 3.2
60 58.6
61 22.4
67 0.57
68 5.4
69 39.1
70 8.6
71 3.63
72 2.2
73 62.9
74 4.8
79 0.16
81 4.4
82 4.9
83 25.9
84 0.76
85 18.9
86 1.7
87 9.6
88 0.13
89 1.3
93 1.3
95 3.9
96 0.36
97 15.6
98 8.9
99 3.6
100 0.1
101 5
102 1.8
107 1.1
109 0.23
110 2
111 7.1
112 2.7
113 0.24
115 5.8
116 3.8
121 1.3
123 0.13
124 1.2
125 3.8
126 1.4
127 0.18
129 19.4
130 2.2
135 1.3
139 0.2
141 1.2
143 1.8
153 1.5
154 0.19
157 1.3
167 1.1
171 2.5
185 0.37
213 1.3
227 1.2
241 1.2
269 0.21
283 1.2
325 3.6
326 1.1
340 0.15
368 37.4
369 9.4
370 1.7

>  <PREDICTED SPECTRUM>  (1855) 
15 75
16 17
17 47
18 88
25 1
26 41
27 191
28 137
29 369
30 106
31 102
32 16
34 3
38 12
39 123
40 66
41 617
42 297
43 999
44 226
45 258
46 52
47 38
49 16
50 10
51 38
52 19
53 188
54 268
55 877
56 497
57 974
58 208
59 233
60 654
61 524
62 74
63 15
65 84
66 70
67 370
68 337
69 648
70 483
71 655
72 182
73 841
74 263
75 125
76 29
77 117
78 34
79 132
80 92
81 334
82 326
83 674
84 434
85 499
86 182
87 392
88 197
89 103
91 33
92 14
93 84
94 98
95 364
96 336
97 562
98 474
99 312
100 103
101 350
102 197
103 89
107 147
108 30
109 285
110 265
111 415
112 281
113 246
114 128
115 379
116 230
117 143
118 11
119 25
120 4
121 147
122 86
123 166
124 185
125 317
126 174
127 196
128 94
129 592
130 195
131 70
132 47
133 76
134 20
135 154
136 87
137 155
138 138
139 188
140 176
141 169
142 82
143 236
144 183
145 87
146 6
147 5
149 82
150 74
151 76
152 98
153 204
154 180
155 141
156 85
157 257
158 135
159 119
163 53
164 35
165 55
166 83
167 180
168 147
169 134
170 8
171 279
172 147
173 84
174 68
177 89
179 60
180 118
181 172
182 138
183 114
184 30
185 322
186 152
187 41
188 3
191 99
192 68
193 96
194 151
195 171
196 148
197 95
198 34
199 171
200 91
201 31
204 6
205 79
206 48
207 33
208 43
209 137
210 122
211 98
213 186
214 119
215 46
219 77
220 40
221 19
222 70
223 136
224 117
225 57
226 65
227 243
228 137
229 59
233 29
235 29
236 49
237 124
238 96
239 69
241 210
242 103
247 58
249 44
250 47
251 79
252 123
253 95
254 39
255 186
256 120
257 42
264 85
265 97
266 79
267 61
268 7
269 155
270 161
271 122
272 33
275 24
277 23
278 20
279 71
280 32
283 155
284 96
285 36
289 84
290 42
292 23
293 89
294 40
295 17
296 3
297 92
298 57
299 13
303 4
306 115
307 152
308 131
309 166
310 78
311 179
312 104
320 12
321 120
322 91
323 90
324 19
325 299
326 172
327 111
328 43
332 35
338 25
339 191
340 80
341 25
349 60
350 129
351 60
352 11
353 30
367 127
368 853
369 393
370 113
371 58

$$$$

     RDKit          2D

 24 23  0  0  0  0  0  0  0  0999 V2000
    7.1447   12.3750    0.0000 C   0  0  0  0  0  0  0  0  0  0  0  0
    5.8457   13.1250    0.0000 C   0  0  0  0  0  0  0  0  0  0  0  0
    4.5466   12.3750    0.0000 C   0  0  0  0  0  0  0  0  0  0  0  0
    3.2476   13.1250    0.0000 C   0  0  0  0  0  0  0  0  0  0  0  0
    1.9486   12.3750    0.0000 C   0  0  0  0  0  0  0  0  0  0  0  0
    0.6495   13.1250    0.0000 C   0  0  0  0  0  0  0  0  0  0  0  0
   -0.6495   12.3750    0.0000 C   0  0  0  0  0  0  0  0  0  0  0  0
   -1.9486   13.1250    0.0000 C   0  0  0  0  0  0  0  0  0  0  0  0
   -3.2476   12.3750    0.0000 C   0  0  0  0  0  0  0  0  0  0  0  0
   -4.5466   13.1250    0.0000 C   0  0  0  0  0  0  0  0  0  0  0  0
   -5.8457   12.3750    0.0000 C   0  0  0  0  0  0  0  0  0  0  0  0
   -7.1447   13.1250    0.0000 C   0  0  0  0  0  0  0  0  0  0  0  0
   -8.4437   12.3750    0.0000 C   0  0  0  0  0  0  0  0  0  0  0  0
   -9.7428   13.1250    0.0000 C   0  0  0  0  0  0  0  0  0  0  0  0
  -11.0418   12.3750    0.0000 C   0  0  0  0  0  0  0  0  0  0  0  0
  -12.3409   13.1250    0.0000 C   0  0  0  0  0  0  0  0  0  0  0  0
  -13.6399   12.3750    0.0000 C   0  0  0  0  0  0  0  0  0  0  0  0
  -14.9389   13.1250    0.0000 C   0  0  0  0  0  0  0  0  0  0  0  0
  -16.2380   12.3750    0.0000 C   0  0  0  0  0  0  0  0  0  0  0  0
  -17.5370   13.1250    0.0000 C   0  0  0  0  0  0  0  0  0  0  0  0
  -18.8361   12.3750    0.0000 C   0  0  0  0  0  0  0  0  0  0  0  0
  -20.1351   13.1250    0.0000 C   0  0  0  0  0  0  0  0  0  0  0  0
  -20.1351   14.6250    0.0000 O   0  0  0  0  0  0  0  0  0  0  0  0
  -21.4341   12.3750    0.0000 O   0  0  0  0  0  0  0  0  0  0  0  0
  2  1  1  0
  3  2  1  0
  4  3  1  0
  5  4  1  0
  6  5  1  0
  7  6  1  0
  8  7  1  0
  9  8  1  0
 10  9  1  0
 11 10  1  0
 12 11  1  0
 13 12  1  0
 14 13  1  0
 15 14  1  0
 16 15  1  0
 17 16  1  0
 18 17  1  0
 19 18  1  0
 20 19  1  0
 21 20  1  0
 22 21  1  0
 23 22  2  0
 24 22  1  0
M  END
>  <NAME>  (1856) 
DOCOSANOIC ACID

>  <SYNONYMS>  (1856) 
BEHENIC ACID

>  <SPECTRUM TYPE>  (1856) 
MS1

>  <INSTRUMENT TYPE>  (1856) 
EI-B

>  <INSTRUMENT>  (1856) 
HITACHI M-80B

>  <ION MODE>  (1856) 
P

>  <INCHIKEY>  (1856) 
UKMSUNONTOPOIO-UHFFFAOYSA-N

>  <FORMULA>  (1856) 
C22H44O2

>  <EXACT MASS>  (1856) 
340.334130648

>  <MW>  (1856) 
340

>  <ID>  (1856) 
JP009247

>  <CONTRIBUTOR>  (1856) 
University of Tokyo Team, {Faculty of Engineering, University of Tokyo

>  <COMMENT>  (1856) 
SMILES=CCCCCCCCCCCCCCCCCCCCCC(O)=O
InChI=InChI=1S/C22H44O2/c1-2-3-4-5-6-7-8-9-10-11-12-13-14-15-16-17-18-19-20-21-22(23)24/h2-21H2,1H3,(H,23,24)
computed SMILES=O=C(O)CCCCCCCCCCCCCCCCCCCCC
accession=JP009247
date=2016.01.19 (Created 2008.10.21, modified 2011.05.06)
author=SODA AROMATIC CO., LTD.
license=CC BY-NC-SA
exact mass=340.33413
ionization energy=70 eV
ion type=[M]+*
computed spectral entropy=3.3366318986242387
computed normalized entropy=0.7510451993614663
SPLASH=splash10-0596-9100000000-eb78c2ccaf4cc9882ed1
submitter=submitter = University of Tokyo Team (Faculty of Engineering, University of Tokyo)
MoNA Rating=3.75

>  <NUM PEAKS>  (1856) 
85

>  <MASS SPECTRAL PEAKS>  (1856) 
27 12.2
29 23.6
30 1.2
31 0.13
39 7
41 70.1
42 13.4
43 99.99
44 1.4
45 7.8
53 3.8
54 0.52
55 62.7
56 13.5
57 70.2
58 0.28
59 3.8
60 69.4
61 21.2
62 0.11
67 7.2
68 5.6
69 36.2
70 0.89
71 30.3
72 2
73 65.6
74 0.73
79 1.9
81 5.2
82 5.2
83 2.19
84 7.7
85 19.2
86 1.7
87 1.23
88 1.5
93 1.5
94 1
95 0.28
96 3.7
97 14
98 8.3
99 0.49
100 1.2
101 5
102 1.8
107 0.11
109 2.1
110 1.9
111 6.7
112 0.25
113 3.4
115 6.9
116 3.8
121 0.13
123 1.2
124 1.2
125 3.5
126 0.15
127 1.7
129 25.5
130 2.6
135 0.12
138 1
139 2
141 1.3
143 0.28
155 1.1
157 2.2
158 1
171 0.4
172 2.2
185 6.7
186 1.4
199 0.22
213 2
227 2.2
241 5.8
242 0.11
255 1.8
269 2.2
284 6.4
285 0.19
297 3.4

>  <PREDICTED SPECTRUM>  (1856) 
15 56
16 13
17 41
18 84
25 3
26 51
27 232
28 141
29 377
30 82
31 101
32 16
34 5
38 4
39 148
40 91
41 652
42 313
43 999
44 187
45 249
46 47
47 32
49 16
50 1
51 50
52 19
53 199
54 281
55 888
56 498
57 956
58 189
59 230
60 663
61 515
62 62
63 2
65 82
66 74
67 380
68 339
69 668
70 471
71 640
72 178
73 820
74 276
75 107
77 76
78 10
79 156
80 89
81 339
82 327
83 683
84 453
85 497
86 198
87 417
88 216
89 123
91 41
92 23
93 117
94 112
95 370
96 340
97 574
98 510
99 314
100 123
101 387
102 192
103 114
104 40
105 32
106 9
107 147
108 71
109 279
110 264
111 420
112 300
113 235
114 115
115 351
116 235
117 124
118 6
119 9
120 22
121 135
122 99
123 157
124 185
125 324
126 197
127 162
128 101
129 560
130 179
131 135
132 18
133 38
134 12
135 146
136 77
137 153
138 143
139 197
140 148
141 118
142 20
143 235
144 162
145 96
146 42
147 18
148 0
149 104
151 70
152 113
153 203
154 171
155 146
156 90
157 275
158 136
159 76
160 30
163 111
164 89
165 84
166 118
167 170
168 165
169 172
170 45
171 251
172 133
173 59
174 12
177 91
178 55
179 65
180 87
181 155
182 127
183 115
185 243
186 141
187 65
191 113
192 56
193 107
194 146
195 161
196 107
197 55
198 49
199 239
200 125
201 55
205 47
208 47
209 122
210 108
211 70
213 212
214 87
215 6
219 80
221 30
222 52
223 79
224 112
225 77
226 50
227 172
228 102
229 42
234 8
235 45
236 99
237 134
238 90
239 43
241 259
242 155
243 128
244 41
247 45
249 28
250 0
251 48
252 40
255 144
256 48
257 18
261 95
262 40
264 47
265 99
266 41
268 11
269 69
270 47
271 48
272 6
275 14
278 135
279 138
280 152
281 191
282 70
283 173
284 121
285 19
286 0
292 3
293 132
294 104
295 88
296 17
297 163
298 146
299 66
300 35
304 50
310 34
311 180
312 77
321 54
322 142
323 120
324 15
339 61
340 692
341 431
342 121
343 56

$$$$

     RDKit          2D

 14 14  0  0  0  0  0  0  0  0999 V2000
   -6.8197    3.1321    0.0000 C   0  0  0  0  0  0  0  0  0  0  0  0
    3.5726    1.6321    0.0000 C   0  0  0  0  0  0  0  0  0  0  0  0
    3.5731    3.1329    0.0000 C   0  0  0  0  0  0  0  0  0  0  0  0
    2.2731    0.8813    0.0000 C   0  0  0  0  0  0  0  0  0  0  0  0
    2.2740    3.8829    0.0000 C   0  0  0  0  0  0  0  0  0  0  0  0
    0.9740    1.6313    0.0000 C   0  0  0  0  0  0  0  0  0  0  0  0
   -0.3245    3.8821    0.0000 C   0  0  0  0  0  0  0  0  0  0  0  0
   -1.6236    3.1321    0.0000 C   0  0  0  0  0  0  0  0  0  0  0  0
   -5.5207    3.8821    0.0000 C   0  0  0  0  0  0  0  0  0  0  0  0
    0.9745    3.1321    0.0000 C   0  0  0  0  0  0  0  0  0  0  0  0
   -4.2216    3.1321    0.0000 C   0  0  0  0  0  0  0  0  0  0  0  0
   -5.5207    5.3821    0.0000 O   0  0  0  0  0  0  0  0  0  0  0  0
   -4.2216    1.6321    0.0000 O   0  0  0  0  0  0  0  0  0  0  0  0
   -2.9226    3.8821    0.0000 O   0  0  0  0  0  0  0  0  0  0  0  0
  3  2  2  0
  4  2  1  0
  5  3  1  0
  6  4  2  0
  8  7  1  0
  9  1  1  0
 10  5  2  0
 10  6  1  0
 10  7  1  0
 11  9  1  0
 12  9  1  0
 13 11  2  0
 14  8  1  0
 14 11  1  0
M  END
>  <NAME>  (1857) 
PHENYLETHYL LACTATE

>  <SYNONYMS>  (1857) 


>  <SPECTRUM TYPE>  (1857) 
MS1

>  <INSTRUMENT TYPE>  (1857) 
EI-B

>  <INSTRUMENT>  (1857) 
HITACHI M-80B

>  <ION MODE>  (1857) 
P

>  <INCHIKEY>  (1857) 
IYXFDAOFSCZADY-UHFFFAOYSA-N

>  <FORMULA>  (1857) 
C11H14O3

>  <EXACT MASS>  (1857) 
194.09429430799997

>  <MW>  (1857) 
194

>  <ID>  (1857) 
JP009246

>  <CONTRIBUTOR>  (1857) 
University of Tokyo Team, {Faculty of Engineering, University of Tokyo

>  <COMMENT>  (1857) 
SMILES=CC(O)C(=O)OCCc(c1)cccc1
InChI=InChI=1S/C11H14O3/c1-9(12)11(13)14-8-7-10-5-3-2-4-6-10/h2-6,9,12H,7-8H2,1H3
computed SMILES=O=C(OCCC=1C=CC=CC1)C(O)C
accession=JP009246
author=SODA AROMATIC CO., LTD.
date=2016.01.19 (Created 2008.10.21, modified 2011.05.06)
license=CC BY-NC-SA
exact mass=194.09429
ionization energy=70 eV
ion type=[M]+*
computed spectral entropy=2.1598735218558622
computed normalized entropy=0.6888462784855819
SPLASH=splash10-0udi-7900000000-b4302abf02cb02bf290b
submitter=submitter = University of Tokyo Team (Faculty of Engineering, University of Tokyo)
MoNA Rating=3.75

>  <NUM PEAKS>  (1857) 
23

>  <MASS SPECTRAL PEAKS>  (1857) 
15 1.2
19 1.1
27 6.6
29 0.43
39 4.3
43 8.5
45 42.5
50 0.14
51 6
52 1.2
63 1.8
65 0.57
77 10.9
78 6.3
79 7.6
89 0.1
91 16
92 6.9
103 6.5
104 99.99
105 38.8
106 2.5
122 1.8

>  <PREDICTED SPECTRUM>  (1857) 
19 20
26 37
27 167
28 53
29 102
30 3
31 73
39 160
41 90
42 59
43 342
44 133
45 315
46 7
50 59
51 158
52 78
53 83
54 6
55 26
61 11
62 32
63 122
64 34
65 233
66 52
69 2
73 97
74 58
75 67
76 3
77 253
78 247
79 244
80 11
89 115
90 40
91 482
92 232
101 2
102 114
103 213
104 999
105 684
106 237
150 2
176 2

$$$$

     RDKit          2D

 16 16  0  0  0  0  0  0  0  0999 V2000
   -4.8730    4.6877    0.0000 C   0  0  0  0  0  0  0  0  0  0  0  0
   -3.5741    5.4379    0.0000 C   0  0  0  0  0  0  0  0  0  0  0  0
   -2.2749    4.6881    0.0000 C   0  0  0  0  0  0  0  0  0  0  0  0
   -0.9760    5.4383    0.0000 C   0  0  0  0  0  0  0  0  0  0  0  0
    6.8193    2.4377    0.0000 C   0  0  0  0  0  0  0  0  0  0  0  0
    8.1184    3.1877    0.0000 C   0  0  0  0  0  0  0  0  0  0  0  0
    0.3232    4.6885    0.0000 C   0  0  0  0  0  0  0  0  0  0  0  0
    5.5198    3.1885    0.0000 C   0  0  0  0  0  0  0  0  0  0  0  0
    8.1179    4.6885    0.0000 C   0  0  0  0  0  0  0  0  0  0  0  0
    1.6221    5.4387    0.0000 C   0  0  0  0  0  0  0  0  0  0  0  0
    5.5193    4.6893    0.0000 C   0  0  0  0  0  0  0  0  0  0  0  0
    6.8184    5.4393    0.0000 C   0  0  0  0  0  0  0  0  0  0  0  0
    4.2202    5.4391    0.0000 C   0  0  0  0  0  0  0  0  0  0  0  0
    6.8186    6.9393    0.0000 O   0  0  0  0  0  0  0  0  0  0  0  0
    4.2199    6.9391    0.0000 O   0  0  0  0  0  0  0  0  0  0  0  0
    2.9212    4.6889    0.0000 O   0  0  0  0  0  0  0  0  0  0  0  0
  2  1  1  0
  3  2  1  0
  4  3  1  0
  6  5  2  0
  4  7  2  0
  8  5  1  0
  9  6  1  0
 10  7  1  0
 11  8  2  0
 12  9  2  0
 12 11  1  0
 13 11  1  0
 14 12  1  0
 15 13  2  0
 16 10  1  0
 16 13  1  0
M  END
>  <NAME>  (1858) 
TRANS-2-HEXENYL SALICYLATE

>  <SYNONYMS>  (1858) 


>  <SPECTRUM TYPE>  (1858) 
MS1

>  <INSTRUMENT TYPE>  (1858) 
EI-B

>  <INSTRUMENT>  (1858) 
HITACHI M-80B

>  <ION MODE>  (1858) 
P

>  <INCHIKEY>  (1858) 
DLWPCXLFHSLSMZ-QPJJXVBHSA-N

>  <FORMULA>  (1858) 
C13H16O3

>  <EXACT MASS>  (1858) 
220.109944372

>  <MW>  (1858) 
220

>  <ID>  (1858) 
JP009245

>  <CONTRIBUTOR>  (1858) 
University of Tokyo Team, {Faculty of Engineering, University of Tokyo

>  <COMMENT>  (1858) 
SMILES=CCCC=CCOC(=O)c(c1)c(O)ccc1
InChI=InChI=1S/C13H16O3/c1-2-3-4-7-10-16-13(15)11-8-5-6-9-12(11)14/h4-9,14H,2-3,10H2,1H3/b7-4+
computed SMILES=O=C(OCC=CCCC)C=1C=CC=CC1O
accession=JP009245
date=2016.01.19 (Created 2008.10.21, modified 2011.05.06)
author=SODA AROMATIC CO., LTD.
license=CC BY-NC-SA
exact mass=220.10994
ionization energy=70 eV
ion type=[M]+*
computed spectral entropy=2.6841840347929793
computed normalized entropy=0.7490358167185823
SPLASH=splash10-0613-9300000000-185d790c7be3e8b2b686
submitter=submitter = University of Tokyo Team (Faculty of Engineering, University of Tokyo)
MoNA Rating=3.75

>  <NUM PEAKS>  (1858) 
36

>  <MASS SPECTRAL PEAKS>  (1858) 
26 1.2
27 19.7
29 11.3
38 0.26
39 40.7
41 64.3
42 6
43 0.42
50 1.7
51 2.5
52 1.5
53 1.13
54 16.6
55 72.2
56 2.7
57 0.15
62 1.3
63 7.5
64 7.6
65 2.59
66 2.5
67 51.8
68 2.4
77 0.13
79 1.4
81 6
82 84.9
83 1.66
92 20.2
93 10.2
120 99.99
121 4.08
122 2.7
138 40.9
139 8.6
220 2.5

>  <PREDICTED SPECTRUM>  (1858) 
25 4
26 24
27 136
28 13
29 161
37 54
38 107
39 393
40 136
41 611
42 162
43 247
44 115
45 29
50 107
51 160
52 159
53 307
54 363
55 671
56 181
57 104
62 46
63 188
64 235
65 390
66 210
67 477
68 158
69 52
74 10
75 50
76 75
77 131
78 36
79 109
80 96
81 480
82 497
83 328
84 92
90 24
91 41
92 423
93 211
94 21
95 88
105 3
119 107
120 999
121 247
122 175
123 32
132 28
137 55
138 675
139 165
160 4
220 139
221 12

$$$$

     RDKit          2D

 16 17  0  0  0  0  0  0  0  0999 V2000
    7.4270    2.7908    0.0000 C   0  0  0  0  0  0  0  0  0  0  0  0
    7.4270    1.2908    0.0000 C   0  0  0  0  0  0  0  0  0  0  0  0
    6.1270    3.5408    0.0000 C   0  0  0  0  0  0  0  0  0  0  0  0
   -1.6700    0.5402    0.0000 C   0  0  0  0  0  0  0  0  0  0  0  0
   -1.6700   -0.9598    0.0000 C   0  0  0  0  0  0  0  0  0  0  0  0
    6.1270    0.5408    0.0000 C   0  0  0  0  0  0  0  0  0  0  0  0
    4.8270    2.7908    0.0000 C   0  0  0  0  0  0  0  0  0  0  0  0
   -0.3700    1.2902    0.0000 C   0  0  0  0  0  0  0  0  0  0  0  0
   -0.3700   -1.7098    0.0000 C   0  0  0  0  0  0  0  0  0  0  0  0
    4.8270    1.2908    0.0000 C   0  0  0  0  0  0  0  0  0  0  0  0
    0.9300    0.5402    0.0000 C   0  0  0  0  0  0  0  0  0  0  0  0
    0.9300   -0.9598    0.0000 C   0  0  0  0  0  0  0  0  0  0  0  0
    2.2289    1.2904    0.0000 C   0  0  0  0  0  0  0  0  0  0  0  0
    2.2289   -1.7100    0.0000 O   0  0  0  0  0  0  0  0  0  0  0  0
    2.2287    2.7904    0.0000 O   0  0  0  0  0  0  0  0  0  0  0  0
    3.5281    0.5406    0.0000 O   0  0  0  0  0  0  0  0  0  0  0  0
  2  1  1  0
  3  1  1  0
  5  4  2  0
  6  2  1  0
  7  3  1  0
  8  4  1  0
  9  5  1  0
 10  6  1  0
 10  7  1  0
 11  8  2  0
 12  9  2  0
 12 11  1  0
 13 11  1  0
 14 12  1  0
 15 13  2  0
 16 10  1  0
 16 13  1  0
M  END
>  <NAME>  (1859) 
CYCLOHEXYL SALICYLATE

>  <SYNONYMS>  (1859) 


>  <SPECTRUM TYPE>  (1859) 
MS1

>  <INSTRUMENT TYPE>  (1859) 
EI-B

>  <INSTRUMENT>  (1859) 
HITACHI M-80B

>  <ION MODE>  (1859) 
P

>  <INCHIKEY>  (1859) 
NUQDJSMHGCTKNL-UHFFFAOYSA-N

>  <FORMULA>  (1859) 
C13H16O3

>  <EXACT MASS>  (1859) 
220.109944372

>  <MW>  (1859) 
220

>  <ID>  (1859) 
JP009244

>  <CONTRIBUTOR>  (1859) 
University of Tokyo Team, {Faculty of Engineering, University of Tokyo

>  <COMMENT>  (1859) 
SMILES=C(C2)CCC(C2)OC(=O)c(c1)c(O)ccc1
InChI=InChI=1S/C13H16O3/c14-12-9-5-4-8-11(12)13(15)16-10-6-2-1-3-7-10/h4-5,8-10,14H,1-3,6-7H2
computed SMILES=O=C(OC1CCCCC1)C=2C=CC=CC2O
accession=JP009244
date=2016.01.19 (Created 2008.10.21, modified 2011.05.06)
author=SODA AROMATIC CO., LTD.
license=CC BY-NC-SA
exact mass=220.10994
ionization energy=70 eV
ion type=[M]+*
computed spectral entropy=2.481585803134769
computed normalized entropy=0.7296212258995757
SPLASH=splash10-00di-6900000000-39c38e95c3fd3f8a2f99
submitter=submitter = University of Tokyo Team (Faculty of Engineering, University of Tokyo)
MoNA Rating=3.75

>  <NUM PEAKS>  (1859) 
30

>  <MASS SPECTRAL PEAKS>  (1859) 
27 7.4
29 2.4
38 1.4
39 2.01
41 24.4
42 1.9
43 1.8
51 0.12
53 4.9
54 8.2
55 26.1
56 0.14
63 4
64 4.4
65 16.1
66 0.16
67 18.4
79 1.4
81 4.1
82 0.47
83 3.8
92 13.7
93 7
120 99.99
121 33.1
122 2.3
138 64.9
139 1.02
220 7
221 1.1

>  <PREDICTED SPECTRUM>  (1859) 
26 7
27 115
28 17
29 131
31 3
37 7
38 61
39 283
40 80
41 408
42 158
43 272
44 46
50 59
51 90
52 85
53 194
54 215
55 423
56 179
57 178
62 11
63 163
64 184
65 318
66 115
67 297
68 127
69 139
70 30
76 50
77 102
78 1
79 46
80 48
81 271
82 290
83 229
84 52
92 362
93 268
94 8
105 15
107 11
119 40
120 999
121 322
122 256
133 35
134 17
135 13
138 749
139 176
160 20
220 207
221 63

$$$$

     RDKit          2D

 16 16  0  0  0  0  0  0  0  0999 V2000
   -4.2232    4.3127    0.0000 C   0  0  0  0  0  0  0  0  0  0  0  0
   -1.6254    5.8131    0.0000 C   0  0  0  0  0  0  0  0  0  0  0  0
   -2.9241    3.5629    0.0000 C   0  0  0  0  0  0  0  0  0  0  0  0
    6.1702    1.3124    0.0000 C   0  0  0  0  0  0  0  0  0  0  0  0
    7.4692    2.0624    0.0000 C   0  0  0  0  0  0  0  0  0  0  0  0
    4.8706    2.0633    0.0000 C   0  0  0  0  0  0  0  0  0  0  0  0
    7.4687    3.5633    0.0000 C   0  0  0  0  0  0  0  0  0  0  0  0
   -0.3260    3.5633    0.0000 C   0  0  0  0  0  0  0  0  0  0  0  0
    0.9729    4.3135    0.0000 C   0  0  0  0  0  0  0  0  0  0  0  0
   -1.6252    4.3131    0.0000 C   0  0  0  0  0  0  0  0  0  0  0  0
    4.8702    3.5641    0.0000 C   0  0  0  0  0  0  0  0  0  0  0  0
    6.1692    4.3141    0.0000 C   0  0  0  0  0  0  0  0  0  0  0  0
    3.5710    4.3139    0.0000 C   0  0  0  0  0  0  0  0  0  0  0  0
    6.1694    5.8141    0.0000 O   0  0  0  0  0  0  0  0  0  0  0  0
    3.5708    5.8139    0.0000 O   0  0  0  0  0  0  0  0  0  0  0  0
    2.2721    3.5637    0.0000 O   0  0  0  0  0  0  0  0  0  0  0  0
  3  1  1  0
  5  4  2  0
  6  4  1  0
  7  5  1  0
  9  8  1  0
 10  2  1  0
 10  3  1  0
 10  8  1  0
 11  6  2  0
 12  7  2  0
 12 11  1  0
 13 11  1  0
 14 12  1  0
 15 13  2  0
 16  9  1  0
 16 13  1  0
M  END
>  <NAME>  (1860) 
3-METHYLPENTYL SALICYLATE

>  <SYNONYMS>  (1860) 


>  <SPECTRUM TYPE>  (1860) 
MS1

>  <INSTRUMENT TYPE>  (1860) 
EI-B

>  <INSTRUMENT>  (1860) 
HITACHI M-80B

>  <ION MODE>  (1860) 
P

>  <INCHIKEY>  (1860) 
GWYVTSFBLKXAMY-UHFFFAOYSA-N

>  <FORMULA>  (1860) 
C13H18O3

>  <EXACT MASS>  (1860) 
222.12559443599997

>  <MW>  (1860) 
222

>  <ID>  (1860) 
JP009243

>  <CONTRIBUTOR>  (1860) 
University of Tokyo Team, {Faculty of Engineering, University of Tokyo

>  <COMMENT>  (1860) 
SMILES=CCC(C)CCOC(=O)c(c1)c(O)ccc1
InChI=InChI=1S/C13H18O3/c1-3-10(2)8-9-16-13(15)11-6-4-5-7-12(11)14/h4-7,10,14H,3,8-9H2,1-2H3
computed SMILES=O=C(OCCC(C)CC)C=1C=CC=CC1O
accession=JP009243
date=2016.01.19 (Created 2008.10.21, modified 2011.05.06)
author=SODA AROMATIC CO., LTD.
license=CC BY-NC-SA
exact mass=222.12559
ionization energy=70 eV
ion type=[M]+*
computed spectral entropy=2.6972833017941253
computed normalized entropy=0.7854669051390731
SPLASH=splash10-00dl-9500000000-ef1a0f61fc4097ba16d2
submitter=submitter = University of Tokyo Team (Faculty of Engineering, University of Tokyo)
MoNA Rating=3.75

>  <NUM PEAKS>  (1860) 
31

>  <MASS SPECTRAL PEAKS>  (1860) 
27 11.8
29 14.9
38 1.6
39 2.12
41 29
42 3
43 65.3
51 0.12
53 3.9
54 1
55 15.4
56 0.86
57 14.5
63 5.5
64 6.8
65 2.35
66 1.6
69 23.1
70 1.2
81 0.14
84 41
85 15.2
92 20.9
93 1.07
120 99.99
121 42.9
122 3.1
138 4.44
139 10.9
222 18.4
223 2.5

>  <PREDICTED SPECTRUM>  (1860) 
26 34
27 157
28 24
29 215
31 8
37 18
38 72
39 288
40 120
41 443
42 250
43 486
44 87
45 51
50 107
51 123
52 76
53 170
54 79
55 335
56 258
57 315
58 53
62 41
63 174
64 192
65 357
66 86
67 106
69 374
70 115
73 10
74 10
75 23
76 122
77 174
78 23
79 11
81 108
82 38
83 12
84 486
85 482
86 122
91 11
92 384
93 149
94 27
95 7
102 3
104 55
105 94
120 999
121 567
122 143
138 264
139 270
140 18
222 302
223 85

$$$$

     RDKit          2D

 13 12  0  0  0  0  0  0  0  0999 V2000
    3.2476    5.6250    0.0000 C   0  0  0  0  0  0  0  0  0  0  0  0
   -9.7428    5.6250    0.0000 C   0  0  0  0  0  0  0  0  0  0  0  0
   -8.4437    7.8750    0.0000 C   0  0  0  0  0  0  0  0  0  0  0  0
    1.9486    6.3750    0.0000 C   0  0  0  0  0  0  0  0  0  0  0  0
    0.6495    5.6250    0.0000 C   0  0  0  0  0  0  0  0  0  0  0  0
   -0.6495    6.3750    0.0000 C   0  0  0  0  0  0  0  0  0  0  0  0
   -1.9486    5.6250    0.0000 C   0  0  0  0  0  0  0  0  0  0  0  0
   -7.1447    5.6250    0.0000 C   0  0  0  0  0  0  0  0  0  0  0  0
   -5.8457    6.3750    0.0000 C   0  0  0  0  0  0  0  0  0  0  0  0
   -8.4437    6.3750    0.0000 C   0  0  0  0  0  0  0  0  0  0  0  0
   -3.2476    6.3750    0.0000 C   0  0  0  0  0  0  0  0  0  0  0  0
   -3.2476    7.8750    0.0000 O   0  0  0  0  0  0  0  0  0  0  0  0
   -4.5466    5.6250    0.0000 O   0  0  0  0  0  0  0  0  0  0  0  0
  4  1  1  0
  4  5  2  0
  6  5  1  0
  6  7  2  0
  9  8  1  0
 10  2  1  0
 10  3  1  0
 10  8  1  0
 11  7  1  0
 12 11  2  0
 13  9  1  0
 13 11  1  0
M  END
>  <NAME>  (1861) 
3-METHYLBUTYL 2,4-HEXADIENOATE

>  <SYNONYMS>  (1861) 
ISOAMYL SORBATE

>  <SPECTRUM TYPE>  (1861) 
MS1

>  <INSTRUMENT TYPE>  (1861) 
EI-B

>  <INSTRUMENT>  (1861) 
HITACHI M-80B

>  <ION MODE>  (1861) 
P

>  <INCHIKEY>  (1861) 
QEBWFKHQSLXUSK-YTXTXJHMSA-N

>  <FORMULA>  (1861) 
C11H18O2

>  <EXACT MASS>  (1861) 
182.130679816

>  <MW>  (1861) 
182

>  <ID>  (1861) 
JP009242

>  <CONTRIBUTOR>  (1861) 
University of Tokyo Team, {Faculty of Engineering, University of Tokyo

>  <COMMENT>  (1861) 
SMILES=CC=CC=CC(=O)OCCC(C)C
InChI=InChI=1S/C11H18O2/c1-4-5-6-7-11(12)13-9-8-10(2)3/h4-7,10H,8-9H2,1-3H3/b5-4+,7-6+
computed SMILES=O=C(OCCC(C)C)C=CC=CC
accession=JP009242
date=2016.01.19 (Created 2008.10.21, modified 2011.05.06)
author=SODA AROMATIC CO., LTD.
license=CC BY-NC-SA
exact mass=182.13068
ionization energy=70 eV
ion type=[M]+*
computed spectral entropy=2.5872117515930437
computed normalized entropy=0.7336776071342442
SPLASH=splash10-0002-9100000000-7b10186e2c45f68a0fee
submitter=submitter = University of Tokyo Team (Faculty of Engineering, University of Tokyo)
MoNA Rating=3.75

>  <NUM PEAKS>  (1861) 
34

>  <MASS SPECTRAL PEAKS>  (1861) 
27 10.3
29 7.2
38 1.3
39 2.35
41 43.1
42 6.9
43 21.1
51 0.22
52 1.6
53 2.1
55 15.2
56 0.12
57 2
63 1.2
65 9.2
66 0.92
67 51.3
68 6.8
69 2.9
70 3.26
71 4.2
81 1.1
84 1.5
94 0.12
95 99.99
96 7.5
97 41.5
98 0.19
111 1.7
112 22.1
113 38.4
114 0.24
128 1
182 4.5

>  <PREDICTED SPECTRUM>  (1861) 
26 66
27 241
28 11
29 161
37 8
38 63
39 313
40 114
41 440
42 175
43 517
44 23
45 8
50 78
51 145
52 135
53 253
54 164
55 364
57 21
65 98
66 181
67 655
68 331
69 346
70 449
71 179
77 47
78 16
79 10
83 106
84 54
85 21
94 65
95 999
96 229
97 180
111 160
112 547
113 510
114 50
125 46
139 107
153 59
167 6
182 264
183 72

$$$$

     RDKit          2D

 11 10  0  0  0  0  0  0  0  0999 V2000
   -8.4437    5.6250    0.0000 C   0  0  0  0  0  0  0  0  0  0  0  0
    3.2476    4.8750    0.0000 C   0  0  0  0  0  0  0  0  0  0  0  0
   -7.1447    4.8750    0.0000 C   0  0  0  0  0  0  0  0  0  0  0  0
    1.9486    5.6250    0.0000 C   0  0  0  0  0  0  0  0  0  0  0  0
   -5.8457    5.6250    0.0000 C   0  0  0  0  0  0  0  0  0  0  0  0
   -4.5466    4.8750    0.0000 C   0  0  0  0  0  0  0  0  0  0  0  0
   -3.2476    5.6250    0.0000 C   0  0  0  0  0  0  0  0  0  0  0  0
    0.6495    4.8750    0.0000 C   0  0  0  0  0  0  0  0  0  0  0  0
   -1.9486    4.8750    0.0000 C   0  0  0  0  0  0  0  0  0  0  0  0
   -1.9486    3.3750    0.0000 O   0  0  0  0  0  0  0  0  0  0  0  0
   -0.6495    5.6250    0.0000 O   0  0  0  0  0  0  0  0  0  0  0  0
  3  1  1  0
  4  2  2  0
  3  5  2  0
  6  5  1  0
  6  7  2  0
  8  4  1  0
  9  7  1  0
 10  9  2  0
 11  8  1  0
 11  9  1  0
M  END
>  <NAME>  (1862) 
ALLYL 2,4-HEXADIENOATE

>  <SYNONYMS>  (1862) 
ALLYL SORBATE

>  <SPECTRUM TYPE>  (1862) 
MS1

>  <INSTRUMENT TYPE>  (1862) 
EI-B

>  <INSTRUMENT>  (1862) 
HITACHI M-80B

>  <ION MODE>  (1862) 
P

>  <INCHIKEY>  (1862) 
CVNZYQJBZIJLCL-TWTPFVCWSA-N

>  <FORMULA>  (1862) 
C9H12O2

>  <EXACT MASS>  (1862) 
152.083729624

>  <MW>  (1862) 
152

>  <ID>  (1862) 
JP009241

>  <CONTRIBUTOR>  (1862) 
University of Tokyo Team, {Faculty of Engineering, University of Tokyo

>  <COMMENT>  (1862) 
SMILES=CC=CC=CC(=O)OCC=C
InChI=InChI=1S/C9H12O2/c1-3-5-6-7-9(10)11-8-4-2/h3-7H,2,8H2,1H3/b5-3+,7-6+
computed SMILES=O=C(OCC=C)C=CC=CC
accession=JP009241
date=2016.01.19 (Created 2008.10.21, modified 2011.05.06)
author=SODA AROMATIC CO., LTD.
license=CC BY-NC-SA
exact mass=152.08373
ionization energy=70 eV
ion type=[M]+*
computed spectral entropy=2.741026220990549
computed normalized entropy=0.7159266008835665
SPLASH=splash10-014v-9100000000-e91fdbb9ce14515b74d7
submitter=submitter = University of Tokyo Team (Faculty of Engineering, University of Tokyo)
MoNA Rating=3.75

>  <NUM PEAKS>  (1862) 
46

>  <MASS SPECTRAL PEAKS>  (1862) 
26 2.4
27 12
29 3.8
37 0.14
38 6.4
39 56.2
41 82.4
42 0.25
43 11.8
50 1.8
51 4.8
52 0.23
53 2.7
54 1
55 9.1
57 0.18
62 1.2
63 2.7
65 16.1
66 1.23
67 70.7
68 21.1
69 3
77 0.17
79 8.9
80 2.6
81 4.9
82 0.16
83 6.6
84 1.6
85 1
91 0.33
93 7.2
94 2.1
95 99.99
96 0.85
97 6.4
107 7.5
109 1.4
110 0.13
111 6.2
123 1.3
137 13.7
138 0.1
152 27
153 2.3

>  <PREDICTED SPECTRUM>  (1862) 
25 13
26 67
27 209
28 8
29 140
37 104
38 190
39 643
40 251
41 999
42 192
43 226
44 72
45 34
50 160
51 237
52 221
53 268
54 108
55 158
56 52
57 149
58 12
61 29
62 102
63 188
64 117
65 282
66 96
67 867
68 287
69 160
71 8
77 90
79 362
80 76
81 355
82 101
83 253
84 128
85 13
91 68
92 69
93 402
94 217
95 813
96 245
97 15
107 213
108 67
109 204
110 87
111 168
112 99
123 34
137 212
138 0
152 456
153 77

$$$$

     RDKit          2D

 12 11  0  0  0  0  0  0  0  0999 V2000
    3.2476    5.6250    0.0000 C   0  0  0  0  0  0  0  0  0  0  0  0
   -9.7428    5.6250    0.0000 C   0  0  0  0  0  0  0  0  0  0  0  0
    1.9486    6.3750    0.0000 C   0  0  0  0  0  0  0  0  0  0  0  0
   -8.4437    6.3750    0.0000 C   0  0  0  0  0  0  0  0  0  0  0  0
    0.6495    5.6250    0.0000 C   0  0  0  0  0  0  0  0  0  0  0  0
   -7.1447    5.6250    0.0000 C   0  0  0  0  0  0  0  0  0  0  0  0
   -0.6495    6.3750    0.0000 C   0  0  0  0  0  0  0  0  0  0  0  0
   -1.9486    5.6250    0.0000 C   0  0  0  0  0  0  0  0  0  0  0  0
   -5.8457    6.3750    0.0000 C   0  0  0  0  0  0  0  0  0  0  0  0
   -3.2476    6.3750    0.0000 C   0  0  0  0  0  0  0  0  0  0  0  0
   -3.2476    7.8750    0.0000 O   0  0  0  0  0  0  0  0  0  0  0  0
   -4.5466    5.6250    0.0000 O   0  0  0  0  0  0  0  0  0  0  0  0
  3  1  1  0
  4  2  1  0
  3  5  2  0
  6  4  1  0
  7  5  1  0
  7  8  2  0
  9  6  1  0
 10  8  1  0
 11 10  2  0
 12  9  1  0
 12 10  1  0
M  END
>  <NAME>  (1863) 
BUTYL 2,4-HEXADIENOATE

>  <SYNONYMS>  (1863) 
BUTYL SORBATE

>  <SPECTRUM TYPE>  (1863) 
MS1

>  <INSTRUMENT TYPE>  (1863) 
EI-B

>  <INSTRUMENT>  (1863) 
HITACHI M-80B

>  <ION MODE>  (1863) 
P

>  <INCHIKEY>  (1863) 
SCVZKPKDMFXESQ-VSAQMIDASA-N

>  <FORMULA>  (1863) 
C10H16O2

>  <EXACT MASS>  (1863) 
168.115029752

>  <MW>  (1863) 
168

>  <ID>  (1863) 
JP009240

>  <CONTRIBUTOR>  (1863) 
University of Tokyo Team, {Faculty of Engineering, University of Tokyo

>  <COMMENT>  (1863) 
SMILES=CC=CC=CC(=O)OCCCC
InChI=InChI=1S/C10H16O2/c1-3-5-7-8-10(11)12-9-6-4-2/h3,5,7-8H,4,6,9H2,1-2H3/b5-3+,8-7+
computed SMILES=O=C(OCCCC)C=CC=CC
accession=JP009240
date=2016.01.19 (Created 2008.10.21, modified 2011.05.06)
author=SODA AROMATIC CO., LTD.
license=CC BY-NC-SA
exact mass=168.11503
ionization energy=70 eV
ion type=[M]+*
computed spectral entropy=2.5883948175936524
computed normalized entropy=0.7016750885440308
SPLASH=splash10-014m-9100000000-bc5aa2167740ca287051
submitter=submitter = University of Tokyo Team (Faculty of Engineering, University of Tokyo)
MoNA Rating=3.75

>  <NUM PEAKS>  (1863) 
40

>  <MASS SPECTRAL PEAKS>  (1863) 
14 2.4
15 1.3
26 2.4
27 2.22
29 20.5
31 1.1
38 2.7
39 4.38
41 74.7
42 3.1
43 8.1
50 0.15
51 3.5
52 2.4
53 2.6
55 0.75
56 6.9
57 6.3
63 1.8
65 1.35
66 18.2
67 89.5
68 10.7
69 0.24
71 1.1
81 2.1
83 1.2
84 0.34
94 1.8
95 99.99
96 7.8
97 8.77
98 4.5
111 3.5
112 41.8
113 1.41
114 7.6
153 1.2
168 11.8
169 1.4

>  <PREDICTED SPECTRUM>  (1863) 
26 64
27 241
28 29
29 217
37 26
38 67
39 298
40 129
41 446
42 85
43 117
50 70
51 157
52 121
53 197
54 163
55 71
56 229
57 232
58 71
65 204
66 198
67 999
68 302
69 133
78 0
79 78
81 42
83 91
84 237
85 113
93 73
94 170
95 664
96 137
97 98
100 71
111 399
112 518
113 325
114 34
168 323
169 70

$$$$

     RDKit          2D

 11 10  0  0  0  0  0  0  0  0999 V2000
    2.5981    4.5000    0.0000 C   0  0  0  0  0  0  0  0  0  0  0  0
   -7.7942    4.5000    0.0000 C   0  0  0  0  0  0  0  0  0  0  0  0
   -6.4952    6.7500    0.0000 C   0  0  0  0  0  0  0  0  0  0  0  0
    1.2990    5.2500    0.0000 C   0  0  0  0  0  0  0  0  0  0  0  0
    0.0000    4.5000    0.0000 C   0  0  0  0  0  0  0  0  0  0  0  0
   -1.2990    5.2500    0.0000 C   0  0  0  0  0  0  0  0  0  0  0  0
   -2.5981    4.5000    0.0000 C   0  0  0  0  0  0  0  0  0  0  0  0
   -6.4952    5.2500    0.0000 C   0  0  0  0  0  0  0  0  0  0  0  0
   -3.8971    5.2500    0.0000 C   0  0  0  0  0  0  0  0  0  0  0  0
   -3.8971    6.7500    0.0000 O   0  0  0  0  0  0  0  0  0  0  0  0
   -5.1962    4.5000    0.0000 O   0  0  0  0  0  0  0  0  0  0  0  0
  4  1  1  0
  4  5  2  0
  6  5  1  0
  6  7  2  0
  8  2  1  0
  8  3  1  0
  9  7  1  0
 10  9  2  0
 11  8  1  0
 11  9  1  0
M  END
>  <NAME>  (1864) 
ISOPROPYL 2,4-HEXADIENOATE

>  <SYNONYMS>  (1864) 
ISOPROPYL SORBATE

>  <SPECTRUM TYPE>  (1864) 
MS1

>  <INSTRUMENT TYPE>  (1864) 
EI-B

>  <INSTRUMENT>  (1864) 
HITACHI M-80B

>  <ION MODE>  (1864) 
P

>  <INCHIKEY>  (1864) 
PERLTXCUPZSJTA-YTXTXJHMSA-N

>  <FORMULA>  (1864) 
C9H14O2

>  <EXACT MASS>  (1864) 
154.099379688

>  <MW>  (1864) 
154

>  <ID>  (1864) 
JP009239

>  <CONTRIBUTOR>  (1864) 
University of Tokyo Team, {Faculty of Engineering, University of Tokyo

>  <COMMENT>  (1864) 
SMILES=CC=CC=CC(=O)OC(C)C
InChI=InChI=1S/C9H14O2/c1-4-5-6-7-9(10)11-8(2)3/h4-8H,1-3H3/b5-4+,7-6+
computed SMILES=O=C(OC(C)C)C=CC=CC
accession=JP009239
date=2016.01.19 (Created 2008.10.21, modified 2011.05.06)
author=SODA AROMATIC CO., LTD.
license=CC BY-NC-SA
exact mass=154.09938
ionization energy=70 eV
ion type=[M]+*
computed spectral entropy=2.7440871212234037
computed normalized entropy=0.7341705933023861
SPLASH=splash10-0005-9100000000-80735d3f2c93c626c64f
submitter=submitter = University of Tokyo Team (Faculty of Engineering, University of Tokyo)
MoNA Rating=3.75

>  <NUM PEAKS>  (1864) 
42

>  <MASS SPECTRAL PEAKS>  (1864) 
15 4.9
26 2.3
27 25.6
29 0.34
31 1.2
37 1.2
38 5.6
39 5.49
41 74.3
42 5.8
43 38.9
44 0.13
45 1.4
50 1.8
51 5.1
52 0.27
53 2.6
55 6.2
56 1.4
59 1.24
63 2.6
65 14.5
66 20.4
67 8.79
68 21.8
69 4.8
70 1.1
81 0.23
83 1.8
84 5
94 1.6
95 99.99
96 7.9
97 92.8
98 5.1
109 0.25
111 7.4
112 39.1
113 2.7
139 0.11
154 21.2
155 1.7

>  <PREDICTED SPECTRUM>  (1864) 
15 17
25 16
26 113
27 308
28 94
29 66
37 37
38 102
39 384
40 128
41 493
42 162
43 679
44 36
45 94
50 75
51 191
52 186
53 329
54 214
55 176
56 16
59 2
60 49
61 21
65 245
66 273
67 911
68 296
69 276
70 91
77 275
78 22
79 245
80 90
81 7
83 308
84 294
85 76
93 114
94 150
95 999
96 324
97 518
98 25
109 41
111 638
112 795
113 299
125 18
139 268
154 494
155 130

$$$$

     RDKit          2D

 11 10  0  0  0  0  0  0  0  0999 V2000
   -8.4437    5.6250    0.0000 C   0  0  0  0  0  0  0  0  0  0  0  0
    3.2476    4.8750    0.0000 C   0  0  0  0  0  0  0  0  0  0  0  0
   -7.1447    4.8750    0.0000 C   0  0  0  0  0  0  0  0  0  0  0  0
    1.9486    5.6250    0.0000 C   0  0  0  0  0  0  0  0  0  0  0  0
   -5.8457    5.6250    0.0000 C   0  0  0  0  0  0  0  0  0  0  0  0
   -4.5466    4.8750    0.0000 C   0  0  0  0  0  0  0  0  0  0  0  0
   -3.2476    5.6250    0.0000 C   0  0  0  0  0  0  0  0  0  0  0  0
    0.6495    4.8750    0.0000 C   0  0  0  0  0  0  0  0  0  0  0  0
   -1.9486    4.8750    0.0000 C   0  0  0  0  0  0  0  0  0  0  0  0
   -1.9486    3.3750    0.0000 O   0  0  0  0  0  0  0  0  0  0  0  0
   -0.6495    5.6250    0.0000 O   0  0  0  0  0  0  0  0  0  0  0  0
  3  1  1  0
  4  2  1  0
  3  5  2  0
  6  5  1  0
  6  7  2  0
  8  4  1  0
  9  7  1  0
 10  9  2  0
 11  8  1  0
 11  9  1  0
M  END
>  <NAME>  (1865) 
PROPYL 2,4-HEXADIENOATE

>  <SYNONYMS>  (1865) 
PROPYL SORBATE

>  <SPECTRUM TYPE>  (1865) 
MS1

>  <INSTRUMENT TYPE>  (1865) 
EI-B

>  <INSTRUMENT>  (1865) 
HITACHI M-80B

>  <ION MODE>  (1865) 
P

>  <INCHIKEY>  (1865) 
JAVXBQKCKGHZHM-TWTPFVCWSA-N

>  <FORMULA>  (1865) 
C9H14O2

>  <EXACT MASS>  (1865) 
154.099379688

>  <MW>  (1865) 
154

>  <ID>  (1865) 
JP009238

>  <CONTRIBUTOR>  (1865) 
University of Tokyo Team, {Faculty of Engineering, University of Tokyo

>  <COMMENT>  (1865) 
SMILES=CC=CC=CC(=O)OCCC
InChI=InChI=1S/C9H14O2/c1-3-5-6-7-9(10)11-8-4-2/h3,5-7H,4,8H2,1-2H3/b5-3+,7-6+
computed SMILES=O=C(OCCC)C=CC=CC
accession=JP009238
date=2016.01.19 (Created 2008.10.21, modified 2011.05.06)
author=SODA AROMATIC CO., LTD.
license=CC BY-NC-SA
exact mass=154.09938
ionization energy=70 eV
ion type=[M]+*
computed spectral entropy=2.512515740528875
computed normalized entropy=0.6765765401608762
SPLASH=splash10-0002-9100000000-87222008d88a3cbd548d
submitter=submitter = University of Tokyo Team (Faculty of Engineering, University of Tokyo)
MoNA Rating=3.75

>  <NUM PEAKS>  (1865) 
41

>  <MASS SPECTRAL PEAKS>  (1865) 
15 1.4
16 2.3
26 2.2
27 2.54
29 6.3
31 2
38 3.6
39 4.43
41 69.2
42 4.3
43 15.3
50 0.16
51 4.2
52 2.4
53 2.5
55 0.41
56 1.2
57 1.1
59 1.3
62 0.1
63 2.5
65 14.4
66 17.5
67 9.12
68 7.6
69 2.2
81 2
83 0.17
84 3.7
94 1.8
95 99.99
96 0.62
97 87.2
98 4.3
100 1.2
111 0.38
112 45.5
113 4
139 1.7
154 1.58
155 1.7

>  <PREDICTED SPECTRUM>  (1865) 
14 0
25 20
26 129
27 334
28 53
29 138
37 18
38 104
39 377
40 124
41 450
42 172
43 478
44 13
45 47
50 49
51 149
52 143
53 294
54 261
55 139
56 15
60 25
61 60
64 2
65 230
66 215
67 920
68 240
69 95
77 57
79 106
83 226
84 207
85 28
94 128
95 999
96 210
97 206
100 35
111 401
112 569
113 198
139 1
154 383
155 72

$$$$

     RDKit          2D

 10  9  0  0  0  0  0  0  0  0999 V2000
    2.5981    4.5000    0.0000 C   0  0  0  0  0  0  0  0  0  0  0  0
   -7.7942    4.5000    0.0000 C   0  0  0  0  0  0  0  0  0  0  0  0
    1.2990    5.2500    0.0000 C   0  0  0  0  0  0  0  0  0  0  0  0
   -6.4952    5.2500    0.0000 C   0  0  0  0  0  0  0  0  0  0  0  0
    0.0000    4.5000    0.0000 C   0  0  0  0  0  0  0  0  0  0  0  0
   -1.2990    5.2500    0.0000 C   0  0  0  0  0  0  0  0  0  0  0  0
   -2.5981    4.5000    0.0000 C   0  0  0  0  0  0  0  0  0  0  0  0
   -3.8971    5.2500    0.0000 C   0  0  0  0  0  0  0  0  0  0  0  0
   -3.8971    6.7500    0.0000 O   0  0  0  0  0  0  0  0  0  0  0  0
   -5.1962    4.5000    0.0000 O   0  0  0  0  0  0  0  0  0  0  0  0
  3  1  1  0
  4  2  1  0
  3  5  2  0
  6  5  1  0
  6  7  2  0
  8  7  1  0
  9  8  2  0
 10  4  1  0
 10  8  1  0
M  END
>  <NAME>  (1866) 
ETHYL 2,4-HEXADIENOATE

>  <SYNONYMS>  (1866) 
ETHYL SORBATE

>  <SPECTRUM TYPE>  (1866) 
MS1

>  <INSTRUMENT TYPE>  (1866) 
EI-B

>  <INSTRUMENT>  (1866) 
HITACHI M-80B

>  <ION MODE>  (1866) 
P

>  <INCHIKEY>  (1866) 
OZZYKXXGCOLLLO-TWTPFVCWSA-N

>  <FORMULA>  (1866) 
C8H12O2

>  <EXACT MASS>  (1866) 
140.083729624

>  <MW>  (1866) 
140

>  <ID>  (1866) 
JP009237

>  <CONTRIBUTOR>  (1866) 
University of Tokyo Team, {Faculty of Engineering, University of Tokyo

>  <COMMENT>  (1866) 
SMILES=CC=CC=CC(=O)OCC
InChI=InChI=1S/C8H12O2/c1-3-5-6-7-8(9)10-4-2/h3,5-7H,4H2,1-2H3/b5-3+,7-6+
computed SMILES=O=C(OCC)C=CC=CC
accession=JP009237
date=2016.01.19 (Created 2008.10.21, modified 2011.05.06)
author=SODA AROMATIC CO., LTD.
license=CC BY-NC-SA
exact mass=140.08373
ionization energy=70 eV
ion type=[M]+*
computed spectral entropy=2.7099301776813176
computed normalized entropy=0.7118913707122023
SPLASH=splash10-014j-9000000000-9a19a8aabe4950080f4a
submitter=submitter = University of Tokyo Team (Faculty of Engineering, University of Tokyo)
MoNA Rating=3.75

>  <NUM PEAKS>  (1866) 
45

>  <MASS SPECTRAL PEAKS>  (1866) 
15 2.9
26 3.9
27 26.9
29 1.66
30 1.3
31 1.4
37 1.3
38 0.52
39 53.3
41 60.1
42 3
43 1.12
45 2.2
50 2.6
51 5.4
52 0.37
53 3.3
55 7.9
56 1.4
58 0.1
62 1.6
63 3.6
64 1.2
65 1.86
66 25.2
67 99.99
68 10.9
69 0.36
70 1.2
79 1.4
81 2.7
83 0.32
84 3.6
93 1.3
94 2.5
95 9.6
96 6.2
97 73.4
98 3.6
111 0.57
112 9
125 28
126 2.2
140 4.01
141 3.3

>  <PREDICTED SPECTRUM>  (1866) 
14 25
15 52
18 4
19 6
25 33
26 201
27 526
28 179
29 574
30 24
37 108
38 203
39 639
40 204
41 465
42 130
43 474
44 74
45 236
46 54
49 33
50 171
51 304
52 245
53 451
54 113
55 238
56 123
57 92
58 43
60 33
61 156
62 65
63 106
64 42
65 418
66 367
67 999
68 393
69 439
70 96
71 122
72 17
79 293
80 15
81 216
83 264
84 172
86 3
93 149
94 196
95 884
96 190
97 434
98 236
99 55
111 318
112 260
113 93
125 347
126 30
140 749
141 236
142 27

$$$$

     RDKit          2D

  9  8  0  0  0  0  0  0  0  0999 V2000
   -6.4952    4.5000    0.0000 C   0  0  0  0  0  0  0  0  0  0  0  0
    2.5981    3.7500    0.0000 C   0  0  0  0  0  0  0  0  0  0  0  0
   -5.1962    3.7500    0.0000 C   0  0  0  0  0  0  0  0  0  0  0  0
   -3.8971    4.5000    0.0000 C   0  0  0  0  0  0  0  0  0  0  0  0
   -2.5981    3.7500    0.0000 C   0  0  0  0  0  0  0  0  0  0  0  0
   -1.2990    4.5000    0.0000 C   0  0  0  0  0  0  0  0  0  0  0  0
    0.0000    3.7500    0.0000 C   0  0  0  0  0  0  0  0  0  0  0  0
   -0.0000    2.2500    0.0000 O   0  0  0  0  0  0  0  0  0  0  0  0
    1.2990    4.5000    0.0000 O   0  0  0  0  0  0  0  0  0  0  0  0
  3  1  1  0
  3  4  2  0
  5  4  1  0
  5  6  2  0
  7  6  1  0
  8  7  2  0
  9  2  1  0
  9  7  1  0
M  END
>  <NAME>  (1867) 
METHYL 2,4-HEXADIENOATE

>  <SYNONYMS>  (1867) 
METHYL SORBATE

>  <SPECTRUM TYPE>  (1867) 
MS1

>  <INSTRUMENT TYPE>  (1867) 
EI-B

>  <INSTRUMENT>  (1867) 
HITACHI M-80B

>  <ION MODE>  (1867) 
P

>  <INCHIKEY>  (1867) 
KWKVAGQCDSHWFK-VNKDHWASSA-N

>  <FORMULA>  (1867) 
C7H10O2

>  <EXACT MASS>  (1867) 
126.06807956

>  <MW>  (1867) 
126

>  <ID>  (1867) 
JP009236

>  <CONTRIBUTOR>  (1867) 
University of Tokyo Team, {Faculty of Engineering, University of Tokyo

>  <COMMENT>  (1867) 
SMILES=CC=CC=CC(=O)OC
InChI=InChI=1S/C7H10O2/c1-3-4-5-6-7(8)9-2/h3-6H,1-2H3/b4-3+,6-5+
computed SMILES=O=C(OC)C=CC=CC
accession=JP009236
author=SODA AROMATIC CO., LTD.
date=2016.01.19 (Created 2008.10.21, modified 2011.05.06)
license=CC BY-NC-SA
exact mass=126.06808
ionization energy=70 eV
ion type=[M]+*
computed spectral entropy=2.7396280837452767
computed normalized entropy=0.7239669120145508
SPLASH=splash10-014i-9100000000-6c402f3f828ad7813f02
submitter=submitter = University of Tokyo Team (Faculty of Engineering, University of Tokyo)
MoNA Rating=3.75

>  <NUM PEAKS>  (1867) 
44

>  <MASS SPECTRAL PEAKS>  (1867) 
15 15.6
26 3
27 13.4
29 0.94
30 1.8
31 2.4
37 2.5
38 1.03
39 63.9
41 63.8
42 2.6
43 0.45
45 1.1
50 3.8
51 9.1
52 0.3
53 5.3
54 1
55 9.6
59 0.89
61 1.4
62 2.7
63 7.1
64 0.15
65 23.8
66 32.8
67 99.99
68 0.8
69 1.4
72 2.7
79 2
81 0.19
83 5.3
85 1
93 1.8
94 0.23
95 63.6
96 4.6
97 2.1
111 7.79
112 5.5
125 3.6
126 43.2
127 3

>  <PREDICTED SPECTRUM>  (1867) 
14 19
15 73
16 2
25 10
26 109
27 240
28 56
29 130
31 20
33 7
37 81
38 163
39 442
40 171
41 317
42 102
45 32
49 21
50 150
51 227
52 203
53 273
54 94
55 159
59 132
61 77
62 32
63 72
64 17
65 282
66 289
67 999
68 237
69 98
77 125
79 260
80 5
81 40
83 196
84 114
93 47
94 103
95 632
96 118
97 24
111 503
112 82
125 110
126 425
127 112

$$$$

     RDKit          2D

 18 18  0  0  0  0  0  0  0  0999 V2000
    5.5216    4.2579    0.0000 C   0  0  0  0  0  0  0  0  0  0  0  0
    1.6245    2.0079    0.0000 C   0  0  0  0  0  0  0  0  0  0  0  0
    4.2226    5.0079    0.0000 C   0  0  0  0  0  0  0  0  0  0  0  0
    0.3255    2.7579    0.0000 C   0  0  0  0  0  0  0  0  0  0  0  0
    2.9236    4.2579    0.0000 C   0  0  0  0  0  0  0  0  0  0  0  0
   -8.7678    6.5079    0.0000 C   0  0  0  0  0  0  0  0  0  0  0  0
   -8.7683    5.0071    0.0000 C   0  0  0  0  0  0  0  0  0  0  0  0
   -7.4683    7.2587    0.0000 C   0  0  0  0  0  0  0  0  0  0  0  0
   -7.4692    4.2571    0.0000 C   0  0  0  0  0  0  0  0  0  0  0  0
   -6.1692    6.5087    0.0000 C   0  0  0  0  0  0  0  0  0  0  0  0
    1.6245    5.0079    0.0000 C   0  0  0  0  0  0  0  0  0  0  0  0
   -4.8707    4.2579    0.0000 C   0  0  0  0  0  0  0  0  0  0  0  0
   -3.5716    5.0079    0.0000 C   0  0  0  0  0  0  0  0  0  0  0  0
   -6.1697    5.0079    0.0000 C   0  0  0  0  0  0  0  0  0  0  0  0
    0.3255    4.2579    0.0000 C   0  0  0  0  0  0  0  0  0  0  0  0
   -0.9736    5.0079    0.0000 C   0  0  0  0  0  0  0  0  0  0  0  0
   -0.9736    6.5079    0.0000 O   0  0  0  0  0  0  0  0  0  0  0  0
   -2.2726    4.2579    0.0000 O   0  0  0  0  0  0  0  0  0  0  0  0
  3  1  1  0
  4  2  1  0
  5  3  1  0
  7  6  2  0
  8  6  1  0
  9  7  1  0
 10  8  2  0
 11  5  1  0
 13 12  1  0
 14  9  2  0
 14 10  1  0
 14 12  1  0
 15  4  1  0
 15 11  1  0
 16 15  1  0
 17 16  2  0
 18 13  1  0
 18 16  1  0
M  END
>  <NAME>  (1868) 
PHENYLETHYL 2-ETHYLHEXANOATE

>  <SYNONYMS>  (1868) 


>  <SPECTRUM TYPE>  (1868) 
MS1

>  <INSTRUMENT TYPE>  (1868) 
EI-B

>  <INSTRUMENT>  (1868) 
HITACHI M-80B

>  <ION MODE>  (1868) 
P

>  <INCHIKEY>  (1868) 
DLUUSIFAGWCEES-UHFFFAOYSA-N

>  <FORMULA>  (1868) 
C16H24O2

>  <EXACT MASS>  (1868) 
248.177630008

>  <MW>  (1868) 
248

>  <ID>  (1868) 
JP009235

>  <CONTRIBUTOR>  (1868) 
University of Tokyo Team, {Faculty of Engineering, University of Tokyo

>  <COMMENT>  (1868) 
SMILES=CCCCC(CC)C(=O)OCCc(c1)cccc1
InChI=InChI=1S/C16H24O2/c1-3-5-11-15(4-2)16(17)18-13-12-14-9-7-6-8-10-14/h6-10,15H,3-5,11-13H2,1-2H3
computed SMILES=O=C(OCCC=1C=CC=CC1)C(CC)CCCC
accession=JP009235
date=2016.01.19 (Created 2008.10.21, modified 2011.05.06)
author=SODA AROMATIC CO., LTD.
license=CC BY-NC-SA
exact mass=248.17763
ionization energy=70 eV
ion type=[M]+*
computed spectral entropy=1.545460426584299
computed normalized entropy=0.5248743266609699
SPLASH=splash10-0udi-2900000000-6c1750c7b3051ce181e5
submitter=submitter = University of Tokyo Team (Faculty of Engineering, University of Tokyo)
MoNA Rating=3.75

>  <NUM PEAKS>  (1868) 
19

>  <MASS SPECTRAL PEAKS>  (1868) 
27 2.9
29 3.5
39 1.7
41 0.69
43 5.9
51 1.2
55 3.8
57 1.99
65 1.4
77 3.9
78 1.6
79 0.24
91 4
99 1.3
103 2.3
104 99.99
105 21.4
106 1.3
127 1.1

>  <PREDICTED SPECTRUM>  (1868) 
26 13
27 120
28 2
29 121
36 22
39 183
40 23
41 281
42 140
43 318
44 84
45 69
50 66
51 127
52 56
53 123
54 96
55 244
56 138
57 266
62 17
63 59
64 22
65 143
66 35
69 156
70 87
71 114
74 18
76 11
77 179
78 163
79 110
80 25
83 3
89 49
90 19
91 222
92 94
98 30
99 72
102 4
103 62
104 999
105 560
106 95
127 47

$$$$

     RDKit          2D

 12 11  0  0  0  0  0  0  0  0999 V2000
   -3.8971    3.7500    0.0000 C   0  0  0  0  0  0  0  0  0  0  0  0
    6.4952    6.7500    0.0000 C   0  0  0  0  0  0  0  0  0  0  0  0
   -2.5981    4.5000    0.0000 C   0  0  0  0  0  0  0  0  0  0  0  0
   -2.5981    6.0000    0.0000 C   0  0  0  0  0  0  0  0  0  0  0  0
   -1.2990    6.7500    0.0000 C   0  0  0  0  0  0  0  0  0  0  0  0
    0.0000    6.0000    0.0000 C   0  0  0  0  0  0  0  0  0  0  0  0
    1.2990    6.7500    0.0000 C   0  0  0  0  0  0  0  0  0  0  0  0
    5.1962    6.0000    0.0000 C   0  0  0  0  0  0  0  0  0  0  0  0
    3.8971    6.7500    0.0000 C   0  0  0  0  0  0  0  0  0  0  0  0
    5.1962    4.5000    0.0000 O   0  0  0  0  0  0  0  0  0  0  0  0
    3.8971    8.2500    0.0000 O   0  0  0  0  0  0  0  0  0  0  0  0
    2.5981    6.0000    0.0000 O   0  0  0  0  0  0  0  0  0  0  0  0
  3  1  1  0
  4  3  1  0
  4  5  2  0
  6  5  1  0
  7  6  1  0
  8  2  1  0
  9  8  1  0
 10  8  2  0
 11  9  2  0
 12  7  1  0
 12  9  1  0
M  END
>  <NAME>  (1869) 
CIS-3-HEXENYL 2-OXOPROPANOATE

>  <SYNONYMS>  (1869) 
CIS-3-HEXENYL PYRUVATE

>  <SPECTRUM TYPE>  (1869) 
MS1

>  <INSTRUMENT TYPE>  (1869) 
EI-B

>  <INSTRUMENT>  (1869) 
HITACHI M-80B

>  <ION MODE>  (1869) 
P

>  <INCHIKEY>  (1869) 
LKNXTZXOBHAYSR-PLNGDYQASA-N

>  <FORMULA>  (1869) 
C9H14O3

>  <EXACT MASS>  (1869) 
170.09429430799997

>  <MW>  (1869) 
170

>  <ID>  (1869) 
JP009234

>  <CONTRIBUTOR>  (1869) 
University of Tokyo Team, {Faculty of Engineering, University of Tokyo

>  <COMMENT>  (1869) 
SMILES=CCC=CCCOC(=O)C(C)=O
InChI=InChI=1S/C9H14O3/c1-3-4-5-6-7-12-9(11)8(2)10/h4-5H,3,6-7H2,1-2H3/b5-4-
computed SMILES=O=C(OCCC=CCC)C(=O)C
accession=JP009234
date=2016.01.19 (Created 2008.10.21, modified 2011.05.06)
author=SODA AROMATIC CO., LTD.
license=CC BY-NC-SA
exact mass=170.09429
ionization energy=70 eV
ion type=[M]+*
computed spectral entropy=2.2885523693409335
computed normalized entropy=0.7024200611104925
SPLASH=splash10-0006-9000000000-b62ed55a2a7c2b31d8e5
submitter=submitter = University of Tokyo Team (Faculty of Engineering, University of Tokyo)
MoNA Rating=3.75

>  <NUM PEAKS>  (1869) 
26

>  <MASS SPECTRAL PEAKS>  (1869) 
14 3
15 7.6
26 1.6
27 1.47
29 9.1
38 1.2
39 19.9
41 5.9
42 5.7
43 99.99
44 2.6
51 0.21
52 1.4
53 6.7
54 5.3
55 9.09
56 3.6
65 1.6
67 32.8
68 0.25
69 1.5
79 1.2
81 11.2
82 4.09
83 8.1
99 2.2

>  <PREDICTED SPECTRUM>  (1869) 
15 33
25 11
26 82
27 342
28 119
29 236
31 36
36 9
37 110
38 176
39 527
40 265
41 684
42 340
43 999
44 251
45 140
50 167
51 163
52 147
53 275
54 459
55 692
56 142
57 154
63 28
65 47
66 26
67 688
68 40
69 188
70 84
71 208
81 135
82 610
83 401
84 107
85 19
87 83
100 27
110 97
127 23
128 21

$$$$

     RDKit          2D

 11 10  0  0  0  0  0  0  0  0999 V2000
   -6.4952    4.5000    0.0000 C   0  0  0  0  0  0  0  0  0  0  0  0
   -5.1962    2.2500    0.0000 C   0  0  0  0  0  0  0  0  0  0  0  0
    2.5981    3.7500    0.0000 C   0  0  0  0  0  0  0  0  0  0  0  0
    0.0000    3.7500    0.0000 C   0  0  0  0  0  0  0  0  0  0  0  0
   -1.2990    4.5000    0.0000 C   0  0  0  0  0  0  0  0  0  0  0  0
   -5.1962    3.7500    0.0000 C   0  0  0  0  0  0  0  0  0  0  0  0
    1.2990    4.5000    0.0000 C   0  0  0  0  0  0  0  0  0  0  0  0
   -2.5981    3.7500    0.0000 C   0  0  0  0  0  0  0  0  0  0  0  0
    1.2990    6.0000    0.0000 O   0  0  0  0  0  0  0  0  0  0  0  0
   -2.5981    2.2500    0.0000 O   0  0  0  0  0  0  0  0  0  0  0  0
   -3.8971    4.5000    0.0000 O   0  0  0  0  0  0  0  0  0  0  0  0
  5  4  1  0
  6  1  1  0
  6  2  1  0
  7  3  1  0
  7  4  1  0
  8  5  1  0
  9  7  2  0
 10  8  2  0
 11  6  1  0
 11  8  1  0
M  END
>  <NAME>  (1870) 
ISOPROPYL 4-OXOPENTANOATE

>  <SYNONYMS>  (1870) 
ISOPROPYL LEVULINATE

>  <SPECTRUM TYPE>  (1870) 
MS1

>  <INSTRUMENT TYPE>  (1870) 
EI-B

>  <INSTRUMENT>  (1870) 
HITACHI M-80B

>  <ION MODE>  (1870) 
P

>  <INCHIKEY>  (1870) 
MGJRGGIHFUREHT-UHFFFAOYSA-N

>  <FORMULA>  (1870) 
C8H14O3

>  <EXACT MASS>  (1870) 
158.09429430799997

>  <MW>  (1870) 
158

>  <ID>  (1870) 
JP009233

>  <CONTRIBUTOR>  (1870) 
University of Tokyo Team, {Faculty of Engineering, University of Tokyo

>  <COMMENT>  (1870) 
SMILES=CC(=O)CCC(=O)OC(C)C
InChI=InChI=1S/C8H14O3/c1-6(2)11-8(10)5-4-7(3)9/h6H,4-5H2,1-3H3
computed SMILES=O=C(OC(C)C)CCC(=O)C
accession=JP009233
date=2016.01.19 (Created 2008.10.21, modified 2011.05.06)
author=SODA AROMATIC CO., LTD.
license=CC BY-NC-SA
exact mass=158.09429
ionization energy=70 eV
ion type=[M]+*
computed spectral entropy=2.3164820592403785
computed normalized entropy=0.6810783966052333
SPLASH=splash10-0007-9000000000-e81642cd3310f18e5d96
submitter=submitter = University of Tokyo Team (Faculty of Engineering, University of Tokyo)
MoNA Rating=3.75

>  <NUM PEAKS>  (1870) 
30

>  <MASS SPECTRAL PEAKS>  (1870) 
15 6.2
26 1.6
27 14.6
29 0.35
39 7.2
41 14.8
42 6.5
43 99.99
44 2.6
45 2.5
55 6.9
56 1.35
57 2.7
58 1.4
59 2.6
61 0.28
71 8.6
72 2.7
73 6.2
74 2.45
75 2.1
98 2.5
99 69.6
100 0.47
101 13.8
103 1.4
116 6.8
117 0.74
130 1.7
143 3.1

>  <PREDICTED SPECTRUM>  (1870) 
14 23
15 36
16 10
26 82
27 218
28 67
29 32
31 51
37 10
38 48
39 196
40 92
41 312
42 271
43 999
44 181
45 123
53 40
54 20
55 64
56 175
57 509
58 279
59 161
60 116
61 63
69 22
70 86
71 246
72 130
73 119
74 105
75 75
88 156
98 83
99 561
100 315
101 751
102 133
115 118
116 260
117 126
143 151
158 44

$$$$

     RDKit          2D

 11 10  0  0  0  0  0  0  0  0999 V2000
    2.5981    4.5000    0.0000 C   0  0  0  0  0  0  0  0  0  0  0  0
   -7.7942    4.5000    0.0000 C   0  0  0  0  0  0  0  0  0  0  0  0
    1.2990    5.2500    0.0000 C   0  0  0  0  0  0  0  0  0  0  0  0
   -5.1962    4.5000    0.0000 C   0  0  0  0  0  0  0  0  0  0  0  0
   -3.8971    5.2500    0.0000 C   0  0  0  0  0  0  0  0  0  0  0  0
    0.0000    4.5000    0.0000 C   0  0  0  0  0  0  0  0  0  0  0  0
   -6.4952    5.2500    0.0000 C   0  0  0  0  0  0  0  0  0  0  0  0
   -2.5981    4.5000    0.0000 C   0  0  0  0  0  0  0  0  0  0  0  0
   -6.4952    6.7500    0.0000 O   0  0  0  0  0  0  0  0  0  0  0  0
   -2.5981    3.0000    0.0000 O   0  0  0  0  0  0  0  0  0  0  0  0
   -1.2990    5.2500    0.0000 O   0  0  0  0  0  0  0  0  0  0  0  0
  3  1  1  0
  5  4  1  0
  6  3  1  0
  7  2  1  0
  7  4  1  0
  8  5  1  0
  9  7  2  0
 10  8  2  0
 11  6  1  0
 11  8  1  0
M  END
>  <NAME>  (1871) 
PROPYL 4-OXOPENTANOATE

>  <SYNONYMS>  (1871) 
PROPYL LEVULINATE

>  <SPECTRUM TYPE>  (1871) 
MS1

>  <INSTRUMENT TYPE>  (1871) 
EI-B

>  <INSTRUMENT>  (1871) 
HITACHI M-80B

>  <ION MODE>  (1871) 
P

>  <INCHIKEY>  (1871) 
QOSMNYMQXIVWKY-UHFFFAOYSA-N

>  <FORMULA>  (1871) 
C8H14O3

>  <EXACT MASS>  (1871) 
158.09429430799997

>  <MW>  (1871) 
158

>  <ID>  (1871) 
JP009232

>  <CONTRIBUTOR>  (1871) 
University of Tokyo Team, {Faculty of Engineering, University of Tokyo

>  <COMMENT>  (1871) 
SMILES=CCCOC(=O)CCC(C)=O
InChI=InChI=1S/C8H14O3/c1-3-6-11-8(10)5-4-7(2)9/h3-6H2,1-2H3
computed SMILES=O=C(OCCC)CCC(=O)C
accession=JP009232
date=2016.01.19 (Created 2008.10.21, modified 2011.05.06)
author=SODA AROMATIC CO., LTD.
license=CC BY-NC-SA
exact mass=158.09429
ionization energy=70 eV
ion type=[M]+*
computed spectral entropy=2.3549068380976235
computed normalized entropy=0.6993465846174504
SPLASH=splash10-0006-9100000000-34c91c962a120e792e12
submitter=submitter = University of Tokyo Team (Faculty of Engineering, University of Tokyo)
MoNA Rating=3.75

>  <NUM PEAKS>  (1871) 
29

>  <MASS SPECTRAL PEAKS>  (1871) 
15 4.6
26 2
27 17.7
29 0.6
31 1.8
39 5.8
41 11.6
42 0.73
43 99.99
44 1.8
45 1.3
55 0.69
56 6.1
57 2.6
58 1.2
59 0.11
61 1.1
71 8
72 1.3
73 0.61
74 26.8
75 10.3
98 4.9
99 6.53
100 3.4
101 14.4
116 7
117 0.73
143 5.2

>  <PREDICTED SPECTRUM>  (1871) 
14 37
15 33
16 9
25 5
26 112
27 302
28 49
29 174
30 10
31 91
33 10
37 50
38 84
39 249
40 117
41 428
42 372
43 999
44 129
45 106
53 67
54 69
55 284
56 99
57 352
58 94
59 147
60 136
61 218
69 38
70 162
71 268
72 33
73 363
74 151
86 64
87 169
88 52
98 111
99 686
100 288
101 837
102 172
115 198
116 167
117 103
143 6

$$$$

     RDKit          2D

 15 14  0  0  0  0  0  0  0  0999 V2000
  -10.3923    6.7500    0.0000 C   0  0  0  0  0  0  0  0  0  0  0  0
    3.8971    6.0000    0.0000 C   0  0  0  0  0  0  0  0  0  0  0  0
   -2.5981    8.2500    0.0000 C   0  0  0  0  0  0  0  0  0  0  0  0
   -9.0933    6.0000    0.0000 C   0  0  0  0  0  0  0  0  0  0  0  0
    2.5981    6.7500    0.0000 C   0  0  0  0  0  0  0  0  0  0  0  0
   -7.7942    6.7500    0.0000 C   0  0  0  0  0  0  0  0  0  0  0  0
    1.2990    6.0000    0.0000 C   0  0  0  0  0  0  0  0  0  0  0  0
   -6.4952    6.0000    0.0000 C   0  0  0  0  0  0  0  0  0  0  0  0
   -2.5981    6.7500    0.0000 C   0  0  0  0  0  0  0  0  0  0  0  0
    0.0000    6.7500    0.0000 C   0  0  0  0  0  0  0  0  0  0  0  0
   -3.8971    6.0000    0.0000 C   0  0  0  0  0  0  0  0  0  0  0  0
    0.0000    8.2500    0.0000 O   0  0  0  0  0  0  0  0  0  0  0  0
   -3.8971    4.5000    0.0000 O   0  0  0  0  0  0  0  0  0  0  0  0
   -5.1962    6.7500    0.0000 O   0  0  0  0  0  0  0  0  0  0  0  0
   -1.2990    6.0000    0.0000 O   0  0  0  0  0  0  0  0  0  0  0  0
  4  1  1  0
  5  2  1  0
  6  4  1  0
  7  5  1  0
  8  6  1  0
  9  3  1  0
 10  7  1  0
 11  9  1  0
 12 10  2  0
 13 11  2  0
 14  8  1  0
 14 11  1  0
 15  9  1  0
 15 10  1  0
M  END
>  <NAME>  (1872) 
BUTYL BUTYRYLLACTATE

>  <SYNONYMS>  (1872) 


>  <SPECTRUM TYPE>  (1872) 
MS1

>  <INSTRUMENT TYPE>  (1872) 
EI-B

>  <INSTRUMENT>  (1872) 
HITACHI M-80B

>  <ION MODE>  (1872) 
P

>  <INCHIKEY>  (1872) 
NORZZKKLCYMBBF-UHFFFAOYSA-N

>  <FORMULA>  (1872) 
C11H20O4

>  <EXACT MASS>  (1872) 
216.13615912

>  <MW>  (1872) 
216

>  <ID>  (1872) 
JP009230

>  <CONTRIBUTOR>  (1872) 
University of Tokyo Team, {Faculty of Engineering, University of Tokyo

>  <COMMENT>  (1872) 
SMILES=CCCCOC(=O)C(C)OC(=O)CCC
InChI=InChI=1S/C11H20O4/c1-4-6-8-14-11(13)9(3)15-10(12)7-5-2/h9H,4-8H2,1-3H3
computed SMILES=O=C(OC(C(=O)OCCCC)C)CCC
accession=JP009230
date=2016.01.19 (Created 2008.10.21, modified 2011.05.06)
author=SODA AROMATIC CO., LTD.
license=CC BY-NC-SA
exact mass=216.13616
ionization energy=70 eV
ion type=[M]+*
computed spectral entropy=1.7593823961012318
computed normalized entropy=0.5975272058785563
SPLASH=splash10-00di-9000000000-2c1d76adf09dcd7c622a
submitter=submitter = University of Tokyo Team (Faculty of Engineering, University of Tokyo)
MoNA Rating=3.75

>  <NUM PEAKS>  (1872) 
19

>  <MASS SPECTRAL PEAKS>  (1872) 
27 9.3
29 8
39 3.2
41 1.43
42 4.2
43 33
44 1.1
45 0.48
55 2.7
56 3.5
57 9
70 0.18
71 99.99
72 5.5
73 1.3
115 1.23
116 1.2
143 2.8
172 2.4

>  <PREDICTED SPECTRUM>  (1872) 
26 102
27 402
28 196
29 478
30 48
31 112
38 16
39 269
40 138
41 594
42 374
43 797
44 153
45 236
54 118
55 399
56 557
57 573
58 232
59 58
60 170
61 129
62 17
67 26
69 142
70 394
71 999
72 364
73 439
74 233
75 7
76 24
77 2
86 36
87 286
88 144
89 223
90 6
98 40
99 148
100 271
101 148
102 8
115 936
116 498
117 281
129 354
143 513
144 105
145 79
147 23
161 157
216 181
217 32

$$$$

     RDKit          2D

 15 14  0  0  0  0  0  0  0  0999 V2000
    3.8971    6.7500    0.0000 C   0  0  0  0  0  0  0  0  0  0  0  0
  -11.6913    6.7500    0.0000 C   0  0  0  0  0  0  0  0  0  0  0  0
    2.5981    7.5000    0.0000 C   0  0  0  0  0  0  0  0  0  0  0  0
    1.2990    6.7500    0.0000 C   0  0  0  0  0  0  0  0  0  0  0  0
    0.0000    7.5000    0.0000 C   0  0  0  0  0  0  0  0  0  0  0  0
   -1.2990    6.7500    0.0000 C   0  0  0  0  0  0  0  0  0  0  0  0
   -2.5981    7.5000    0.0000 C   0  0  0  0  0  0  0  0  0  0  0  0
   -3.8971    6.7500    0.0000 C   0  0  0  0  0  0  0  0  0  0  0  0
   -5.1962    7.5000    0.0000 C   0  0  0  0  0  0  0  0  0  0  0  0
   -6.4952    6.7500    0.0000 C   0  0  0  0  0  0  0  0  0  0  0  0
  -10.3923    7.5000    0.0000 C   0  0  0  0  0  0  0  0  0  0  0  0
   -9.0933    6.7500    0.0000 C   0  0  0  0  0  0  0  0  0  0  0  0
  -10.3923    9.0000    0.0000 O   0  0  0  0  0  0  0  0  0  0  0  0
   -9.0933    5.2500    0.0000 O   0  0  0  0  0  0  0  0  0  0  0  0
   -7.7942    7.5000    0.0000 O   0  0  0  0  0  0  0  0  0  0  0  0
  3  1  1  0
  4  3  1  0
  5  4  1  0
  6  5  1  0
  7  6  1  0
  8  7  1  0
  9  8  1  0
 10  9  1  0
 11  2  1  0
 12 11  1  0
 13 11  1  0
 14 12  2  0
 15 10  1  0
 15 12  1  0
M  END
>  <NAME>  (1873) 
NONYL LACTATE

>  <SYNONYMS>  (1873) 


>  <SPECTRUM TYPE>  (1873) 
MS1

>  <INSTRUMENT TYPE>  (1873) 
EI-B

>  <INSTRUMENT>  (1873) 
HITACHI M-80B

>  <ION MODE>  (1873) 
P

>  <INCHIKEY>  (1873) 
XYQKYLPARUIQOX-UHFFFAOYSA-N

>  <FORMULA>  (1873) 
C12H24O3

>  <EXACT MASS>  (1873) 
216.17254462799997

>  <MW>  (1873) 
216

>  <ID>  (1873) 
JP009229

>  <CONTRIBUTOR>  (1873) 
University of Tokyo Team, {Faculty of Engineering, University of Tokyo

>  <COMMENT>  (1873) 
SMILES=CCCCCCCCCOC(=O)C(C)O
InChI=InChI=1S/C12H24O3/c1-3-4-5-6-7-8-9-10-15-12(14)11(2)13/h11,13H,3-10H2,1-2H3
computed SMILES=O=C(OCCCCCCCCC)C(O)C
accession=JP009229
date=2016.01.19 (Created 2008.10.21, modified 2011.05.06)
author=SODA AROMATIC CO., LTD.
license=CC BY-NC-SA
exact mass=216.17254
ionization energy=70 eV
ion type=[M]+*
computed spectral entropy=2.737623398713463
computed normalized entropy=0.7234371592204927
SPLASH=splash10-052g-9000000000-6087fa7586102d199d0a
submitter=submitter = University of Tokyo Team (Faculty of Engineering, University of Tokyo)
MoNA Rating=3.75

>  <NUM PEAKS>  (1873) 
44

>  <MASS SPECTRAL PEAKS>  (1873) 
15 3.8
17 1.2
18 1.8
19 0.17
26 1.4
27 18
29 23.2
30 0.12
31 3.2
39 8.7
41 48.7
42 1.39
43 94.8
44 5.1
45 99.99
46 0.22
53 2.6
54 2.8
55 32.9
56 2.12
57 47.5
58 2
63 3.9
67 0.26
68 3.9
69 11.9
70 12
71 3.81
72 2.4
75 1.8
81 1.1
82 0.28
83 7.8
84 6.4
85 22.3
86 0.19
90 1.5
91 6
96 1.3
97 0.64
98 6.6
126 7.2
127 1.2
171 1.3

>  <PREDICTED SPECTRUM>  (1873) 
19 14
25 23
26 96
27 392
28 151
29 535
30 64
31 245
32 5
33 23
36 71
37 7
38 62
39 303
40 146
41 688
42 312
43 840
44 252
45 999
46 196
47 85
53 160
54 152
55 585
56 467
57 848
58 163
60 44
61 28
63 295
64 18
65 53
66 32
67 222
68 261
69 541
70 398
71 566
72 97
74 29
75 113
81 113
82 226
83 458
84 354
85 274
86 79
90 268
91 361
92 77
95 33
96 143
97 294
98 306
99 243
100 6
110 34
111 160
112 142
113 61
124 24
125 102
126 402
127 175
128 53
141 8
171 263

$$$$

     RDKit          2D

 12 11  0  0  0  0  0  0  0  0999 V2000
   -3.8971    3.7500    0.0000 C   0  0  0  0  0  0  0  0  0  0  0  0
    6.4952    6.7500    0.0000 C   0  0  0  0  0  0  0  0  0  0  0  0
   -2.5981    4.5000    0.0000 C   0  0  0  0  0  0  0  0  0  0  0  0
   -2.5981    6.0000    0.0000 C   0  0  0  0  0  0  0  0  0  0  0  0
   -1.2990    6.7500    0.0000 C   0  0  0  0  0  0  0  0  0  0  0  0
    0.0000    6.0000    0.0000 C   0  0  0  0  0  0  0  0  0  0  0  0
    1.2990    6.7500    0.0000 C   0  0  0  0  0  0  0  0  0  0  0  0
    5.1962    6.0000    0.0000 C   0  0  0  0  0  0  0  0  0  0  0  0
    3.8971    6.7500    0.0000 C   0  0  0  0  0  0  0  0  0  0  0  0
    5.1962    4.5000    0.0000 O   0  0  0  0  0  0  0  0  0  0  0  0
    3.8971    8.2500    0.0000 O   0  0  0  0  0  0  0  0  0  0  0  0
    2.5981    6.0000    0.0000 O   0  0  0  0  0  0  0  0  0  0  0  0
  3  1  1  0
  4  3  1  0
  4  5  2  0
  6  5  1  0
  7  6  1  0
  8  2  1  0
  9  8  1  0
 10  8  1  0
 11  9  2  0
 12  7  1  0
 12  9  1  0
M  END
>  <NAME>  (1874) 
CIS-3-HEXENYL LACTATE

>  <SYNONYMS>  (1874) 


>  <SPECTRUM TYPE>  (1874) 
MS1

>  <INSTRUMENT TYPE>  (1874) 
EI-B

>  <INSTRUMENT>  (1874) 
HITACHI M-80B

>  <ION MODE>  (1874) 
P

>  <INCHIKEY>  (1874) 
NNLLMULULOBXBY-PLNGDYQASA-N

>  <FORMULA>  (1874) 
C9H16O3

>  <EXACT MASS>  (1874) 
172.10994437199997

>  <MW>  (1874) 
172

>  <ID>  (1874) 
JP009228

>  <CONTRIBUTOR>  (1874) 
University of Tokyo Team, {Faculty of Engineering, University of Tokyo

>  <COMMENT>  (1874) 
SMILES=CCC=CCCOC(=O)C(C)O
InChI=InChI=1S/C9H16O3/c1-3-4-5-6-7-12-9(11)8(2)10/h4-5,8,10H,3,6-7H2,1-2H3/b5-4-
computed SMILES=O=C(OCCC=CCC)C(O)C
accession=JP009228
date=2016.01.19 (Created 2008.10.21, modified 2011.05.06)
author=SODA AROMATIC CO., LTD.
license=CC BY-NC-SA
exact mass=172.10994
ionization energy=70 eV
ion type=[M]+*
computed spectral entropy=2.3506642429672984
computed normalized entropy=0.6782583292247861
SPLASH=splash10-00l5-9000000000-4bdaed6e668e3ddff00c
submitter=submitter = University of Tokyo Team (Faculty of Engineering, University of Tokyo)
MoNA Rating=3.75

>  <NUM PEAKS>  (1874) 
32

>  <MASS SPECTRAL PEAKS>  (1874) 
15 2.4
19 2.6
26 1.4
27 1.9
29 13.5
30 1
31 1.7
39 1.82
41 37.8
42 6.2
43 14.8
44 0.21
45 99.99
46 1.8
51 1.8
53 0.77
54 10
55 44.6
56 3.8
57 0.12
65 1.4
66 1.2
67 82.3
68 0.54
69 2.2
70 2.3
75 2
79 0.12
81 7.1
82 82.6
83 13.6
99 3.6

>  <PREDICTED SPECTRUM>  (1874) 
15 47
19 26
25 15
26 128
27 493
28 213
29 459
31 327
32 5
33 26
36 17
37 50
38 123
39 549
40 234
41 786
42 349
43 620
44 343
45 774
46 93
50 70
51 150
52 129
53 396
54 635
55 705
56 239
57 309
58 106
59 177
60 11
63 39
65 176
66 132
67 999
68 257
69 366
70 155
71 597
72 221
73 207
74 2
81 408
82 693
83 478
84 209
85 209
95 82
96 101
97 125
99 70
100 46
101 5
109 32
110 2
128 53

$$$$

     RDKit          2D

 12 11  0  0  0  0  0  0  0  0999 V2000
    2.9228    5.4375    0.0000 C   0  0  0  0  0  0  0  0  0  0  0  0
   -8.7685    6.1875    0.0000 C   0  0  0  0  0  0  0  0  0  0  0  0
    1.6238    6.1875    0.0000 C   0  0  0  0  0  0  0  0  0  0  0  0
    0.3248    5.4375    0.0000 C   0  0  0  0  0  0  0  0  0  0  0  0
   -0.9743    6.1875    0.0000 C   0  0  0  0  0  0  0  0  0  0  0  0
   -2.2733    5.4375    0.0000 C   0  0  0  0  0  0  0  0  0  0  0  0
   -3.5724    6.1875    0.0000 C   0  0  0  0  0  0  0  0  0  0  0  0
   -7.4695    5.4375    0.0000 C   0  0  0  0  0  0  0  0  0  0  0  0
   -6.1704    6.1875    0.0000 C   0  0  0  0  0  0  0  0  0  0  0  0
   -7.4695    3.9375    0.0000 O   0  0  0  0  0  0  0  0  0  0  0  0
   -6.1704    7.6875    0.0000 O   0  0  0  0  0  0  0  0  0  0  0  0
   -4.8714    5.4375    0.0000 O   0  0  0  0  0  0  0  0  0  0  0  0
  3  1  1  0
  4  3  1  0
  5  4  1  0
  5  6  2  0
  7  6  1  0
  8  2  1  0
  9  8  1  0
 10  8  1  0
 11  9  2  0
 12  7  1  0
 12  9  1  0
M  END
>  <NAME>  (1875) 
TRANS-2-HEXENYL LACTATE

>  <SYNONYMS>  (1875) 


>  <SPECTRUM TYPE>  (1875) 
MS1

>  <INSTRUMENT TYPE>  (1875) 
EI-B

>  <INSTRUMENT>  (1875) 
HITACHI M-80B

>  <ION MODE>  (1875) 
P

>  <INCHIKEY>  (1875) 
CLRYHPFNHRAPPN-AATRIKPKSA-N

>  <FORMULA>  (1875) 
C9H16O3

>  <EXACT MASS>  (1875) 
172.10994437199997

>  <MW>  (1875) 
172

>  <ID>  (1875) 
JP009227

>  <CONTRIBUTOR>  (1875) 
University of Tokyo Team, {Faculty of Engineering, University of Tokyo

>  <COMMENT>  (1875) 
SMILES=CCCC=CCOC(=O)C(C)O
InChI=InChI=1S/C9H16O3/c1-3-4-5-6-7-12-9(11)8(2)10/h5-6,8,10H,3-4,7H2,1-2H3/b6-5+
computed SMILES=O=C(OCC=CCCC)C(O)C
accession=JP009227
date=2016.01.19 (Created 2008.10.21, modified 2011.05.06)
author=SODA AROMATIC CO., LTD.
license=CC BY-NC-SA
exact mass=172.10994
ionization energy=70 eV
ion type=[M]+*
computed spectral entropy=2.485386141220118
computed normalized entropy=0.7108196100047085
SPLASH=splash10-052b-9000000000-a889e0d37486c46bd9f3
submitter=submitter = University of Tokyo Team (Faculty of Engineering, University of Tokyo)
MoNA Rating=3.75

>  <NUM PEAKS>  (1875) 
33

>  <MASS SPECTRAL PEAKS>  (1875) 
15 2.8
18 1.4
19 2.2
26 0.17
27 19.2
29 14.7
31 1
38 0.11
39 18.2
41 45.1
42 4.1
43 1.35
44 6.4
45 99.99
46 1.9
50 0.13
51 2.1
52 1.2
53 6.6
54 0.94
55 48.5
56 6.8
57 10
65 0.18
67 20.3
68 1.2
71 1.5
81 0.26
82 8.5
83 32.2
84 2.8
99 0.12
100 1

>  <PREDICTED SPECTRUM>  (1875) 
26 72
27 364
28 146
29 362
31 108
33 3
36 21
37 28
38 88
39 433
40 155
41 760
42 245
43 503
44 311
45 751
46 164
50 68
51 106
52 121
53 343
54 432
55 999
56 402
57 534
58 43
65 83
67 526
69 74
70 61
71 222
72 282
73 347
74 109
75 19
81 105
82 295
83 915
84 228
85 1
95 69
99 18
100 33
101 79
127 1
128 28
172 26

$$$$

     RDKit          2D

 11 10  0  0  0  0  0  0  0  0999 V2000
   -6.4952    4.5000    0.0000 C   0  0  0  0  0  0  0  0  0  0  0  0
   -5.1962    2.2500    0.0000 C   0  0  0  0  0  0  0  0  0  0  0  0
    2.5981    3.7500    0.0000 C   0  0  0  0  0  0  0  0  0  0  0  0
   -3.8971    4.5000    0.0000 C   0  0  0  0  0  0  0  0  0  0  0  0
   -2.5981    3.7500    0.0000 C   0  0  0  0  0  0  0  0  0  0  0  0
   -5.1962    3.7500    0.0000 C   0  0  0  0  0  0  0  0  0  0  0  0
    1.2990    4.5000    0.0000 C   0  0  0  0  0  0  0  0  0  0  0  0
    0.0000    3.7500    0.0000 C   0  0  0  0  0  0  0  0  0  0  0  0
    1.2990    6.0000    0.0000 O   0  0  0  0  0  0  0  0  0  0  0  0
   -0.0000    2.2500    0.0000 O   0  0  0  0  0  0  0  0  0  0  0  0
   -1.2990    4.5000    0.0000 O   0  0  0  0  0  0  0  0  0  0  0  0
  5  4  1  0
  6  1  1  0
  6  2  1  0
  6  4  1  0
  7  3  1  0
  8  7  1  0
  9  7  1  0
 10  8  2  0
 11  5  1  0
 11  8  1  0
M  END
>  <NAME>  (1876) 
3-METHYLBUTYL LACTATE

>  <SYNONYMS>  (1876) 
ISOAMYL LACTATE

>  <SPECTRUM TYPE>  (1876) 
MS1

>  <INSTRUMENT TYPE>  (1876) 
EI-B

>  <INSTRUMENT>  (1876) 
HITACHI M-80B

>  <ION MODE>  (1876) 
P

>  <INCHIKEY>  (1876) 
CRORGGSWAKIXSA-UHFFFAOYSA-N

>  <FORMULA>  (1876) 
C8H16O3

>  <EXACT MASS>  (1876) 
160.10994437199997

>  <MW>  (1876) 
160

>  <ID>  (1876) 
JP009226

>  <CONTRIBUTOR>  (1876) 
University of Tokyo Team, {Faculty of Engineering, University of Tokyo

>  <COMMENT>  (1876) 
SMILES=CC(C)CCOC(=O)C(C)O
InChI=InChI=1S/C8H16O3/c1-6(2)4-5-11-8(10)7(3)9/h6-7,9H,4-5H2,1-3H3
computed SMILES=O=C(OCCC(C)C)C(O)C
computed spectral entropy=2.0101413733842146
accession=JP009226
date=2016.01.19 (Created 2008.10.21, modified 2011.05.06)
author=SODA AROMATIC CO., LTD.
license=CC BY-NC-SA
exact mass=160.10994
ionization energy=70 eV
ion type=[M]+*
computed normalized entropy=0.6325070249562564
SPLASH=splash10-0005-9000000000-b5e66780d59559b2e8b9
submitter=submitter = University of Tokyo Team (Faculty of Engineering, University of Tokyo)
MoNA Rating=3.75

>  <NUM PEAKS>  (1876) 
24

>  <MASS SPECTRAL PEAKS>  (1876) 
15 2.1
19 1.8
26 1.1
27 1.46
29 11.8
31 1.7
39 7.9
41 1.91
42 6.5
43 64.2
44 3.3
45 99.99
46 2.3
53 1.3
55 19.1
56 0.26
57 1.8
63 1
69 2.1
70 2.74
71 21
72 1.2
75 2.6
91 1.3

>  <PREDICTED SPECTRUM>  (1876) 
14 4
19 32
26 69
27 302
28 42
29 254
31 211
33 39
36 28
38 15
39 291
40 112
41 528
42 342
43 999
44 300
45 763
46 99
47 71
53 175
54 42
55 597
56 31
57 0
69 313
70 755
71 882
72 217
73 281
88 44
89 123
91 37
97 77
99 21
115 41
116 10
117 130

$$$$

     RDKit          2D

 12 11  0  0  0  0  0  0  0  0999 V2000
    2.9228    5.4375    0.0000 C   0  0  0  0  0  0  0  0  0  0  0  0
   -8.7685    6.1875    0.0000 C   0  0  0  0  0  0  0  0  0  0  0  0
    1.6238    6.1875    0.0000 C   0  0  0  0  0  0  0  0  0  0  0  0
    0.3248    5.4375    0.0000 C   0  0  0  0  0  0  0  0  0  0  0  0
   -0.9743    6.1875    0.0000 C   0  0  0  0  0  0  0  0  0  0  0  0
   -2.2733    5.4375    0.0000 C   0  0  0  0  0  0  0  0  0  0  0  0
   -3.5724    6.1875    0.0000 C   0  0  0  0  0  0  0  0  0  0  0  0
   -7.4695    5.4375    0.0000 C   0  0  0  0  0  0  0  0  0  0  0  0
   -6.1704    6.1875    0.0000 C   0  0  0  0  0  0  0  0  0  0  0  0
   -7.4695    3.9375    0.0000 O   0  0  0  0  0  0  0  0  0  0  0  0
   -6.1704    7.6875    0.0000 O   0  0  0  0  0  0  0  0  0  0  0  0
   -4.8714    5.4375    0.0000 O   0  0  0  0  0  0  0  0  0  0  0  0
  3  1  1  0
  4  3  1  0
  5  4  1  0
  6  5  1  0
  7  6  1  0
  8  2  1  0
  9  8  1  0
 10  8  1  0
 11  9  2  0
 12  7  1  0
 12  9  1  0
M  END
>  <NAME>  (1877) 
HEXYL LACTATE

>  <SYNONYMS>  (1877) 


>  <SPECTRUM TYPE>  (1877) 
MS1

>  <INSTRUMENT TYPE>  (1877) 
EI-B

>  <INSTRUMENT>  (1877) 
HITACHI M-80B

>  <ION MODE>  (1877) 
P

>  <INCHIKEY>  (1877) 
KDPXOGYCOOUWOS-UHFFFAOYSA-N

>  <FORMULA>  (1877) 
C9H18O3

>  <EXACT MASS>  (1877) 
174.12559443599997

>  <MW>  (1877) 
174

>  <ID>  (1877) 
JP009225

>  <CONTRIBUTOR>  (1877) 
University of Tokyo Team, {Faculty of Engineering, University of Tokyo

>  <COMMENT>  (1877) 
SMILES=CCCCCCOC(=O)C(C)O
InChI=InChI=1S/C9H18O3/c1-3-4-5-6-7-12-9(11)8(2)10/h8,10H,3-7H2,1-2H3
computed SMILES=O=C(OCCCCCC)C(O)C
accession=JP009225
date=2016.01.19 (Created 2008.10.21, modified 2011.05.06)
author=SODA AROMATIC CO., LTD.
license=CC BY-NC-SA
exact mass=174.12559
ionization energy=70 eV
ion type=[M]+*
computed spectral entropy=2.0141854572646207
computed normalized entropy=0.6516201209324299
SPLASH=splash10-0005-9000000000-0bf6b012463f8a59e474
submitter=submitter = University of Tokyo Team (Faculty of Engineering, University of Tokyo)
MoNA Rating=3.75

>  <NUM PEAKS>  (1877) 
22

>  <MASS SPECTRAL PEAKS>  (1877) 
15 1.1
19 1.4
27 12.2
29 1.04
31 1.2
39 5.4
41 18.5
42 0.68
43 55.3
44 3.4
45 99.99
46 0.19
55 9.1
56 11.2
57 7.5
63 0.17
69 3.6
75 1.9
84 13.8
85 0.98
91 2.3
113 1.2

>  <PREDICTED SPECTRUM>  (1877) 
19 42
26 52
27 301
28 92
29 381
31 118
36 53
38 16
39 262
40 77
41 555
42 277
43 854
44 374
45 999
46 174
47 45
53 84
54 62
55 401
56 420
57 456
58 117
63 96
67 51
68 32
69 297
72 84
73 197
74 96
75 87
82 13
83 283
84 321
85 177
90 25
91 234
98 26
101 76
102 42
129 136
130 37

$$$$

     RDKit          2D

 11 10  0  0  0  0  0  0  0  0999 V2000
    2.5981    4.5000    0.0000 C   0  0  0  0  0  0  0  0  0  0  0  0
   -7.7942    4.5000    0.0000 C   0  0  0  0  0  0  0  0  0  0  0  0
    1.2990    5.2500    0.0000 C   0  0  0  0  0  0  0  0  0  0  0  0
    0.0000    4.5000    0.0000 C   0  0  0  0  0  0  0  0  0  0  0  0
   -1.2990    5.2500    0.0000 C   0  0  0  0  0  0  0  0  0  0  0  0
   -2.5981    4.5000    0.0000 C   0  0  0  0  0  0  0  0  0  0  0  0
   -6.4952    5.2500    0.0000 C   0  0  0  0  0  0  0  0  0  0  0  0
   -5.1962    4.5000    0.0000 C   0  0  0  0  0  0  0  0  0  0  0  0
   -6.4952    6.7500    0.0000 O   0  0  0  0  0  0  0  0  0  0  0  0
   -5.1962    3.0000    0.0000 O   0  0  0  0  0  0  0  0  0  0  0  0
   -3.8971    5.2500    0.0000 O   0  0  0  0  0  0  0  0  0  0  0  0
  3  1  1  0
  4  3  1  0
  5  4  1  0
  6  5  1  0
  7  2  1  0
  8  7  1  0
  9  7  1  0
 10  8  2  0
 11  6  1  0
 11  8  1  0
M  END
>  <NAME>  (1878) 
PENTYL LACTATE

>  <SYNONYMS>  (1878) 
AMYL LACTATE

>  <SPECTRUM TYPE>  (1878) 
MS1

>  <INSTRUMENT TYPE>  (1878) 
EI-B

>  <INSTRUMENT>  (1878) 
HITACHI M-80B

>  <ION MODE>  (1878) 
P

>  <INCHIKEY>  (1878) 
GXOHBWLPQHTYPF-UHFFFAOYSA-N

>  <FORMULA>  (1878) 
C8H16O3

>  <EXACT MASS>  (1878) 
160.109944372

>  <MW>  (1878) 
160

>  <ID>  (1878) 
JP009224

>  <CONTRIBUTOR>  (1878) 
University of Tokyo Team, {Faculty of Engineering, University of Tokyo

>  <COMMENT>  (1878) 
SMILES=CCCCCOC(=O)C(C)O
InChI=InChI=1S/C8H16O3/c1-3-4-5-6-11-8(10)7(2)9/h7,9H,3-6H2,1-2H3
computed SMILES=O=C(OCCCCC)C(O)C
accession=JP009224
date=2016.01.19 (Created 2008.10.21, modified 2011.05.06)
author=SODA AROMATIC CO., LTD.
license=CC BY-NC-SA
exact mass=160.10994
ionization energy=70 eV
ion type=[M]+*
computed spectral entropy=1.9193920962050335
computed normalized entropy=0.6209530037737518
SPLASH=splash10-0005-9000000000-b2b013676cb89ef5f7b1
submitter=submitter = University of Tokyo Team (Faculty of Engineering, University of Tokyo)
MoNA Rating=3.75

>  <NUM PEAKS>  (1878) 
22

>  <MASS SPECTRAL PEAKS>  (1878) 
15 1.5
19 1.5
27 12.9
29 1.05
31 1.2
39 5.2
41 13.7
42 0.73
43 43.9
44 2.6
45 99.99
46 0.21
55 8
56 1.7
63 1
69 0.15
70 13.8
71 10.7
75 2.4
85 0.23
91 1.6
99 1.5

>  <PREDICTED SPECTRUM>  (1878) 
19 43
26 24
27 342
28 6
29 379
31 185
33 44
39 212
40 60
41 512
42 305
43 865
44 291
45 999
46 184
47 123
53 45
55 369
56 7
57 52
58 59
61 44
69 272
70 498
71 678
72 90
73 277
89 151
90 35
91 22
100 68
115 121
116 75

$$$$

     RDKit          2D

 19 19  0  0  0  0  0  0  0  0999 V2000
  -12.6654    6.5071    0.0000 C   0  0  0  0  0  0  0  0  0  0  0  0
  -11.3663    7.2571    0.0000 C   0  0  0  0  0  0  0  0  0  0  0  0
  -10.0673    6.5071    0.0000 C   0  0  0  0  0  0  0  0  0  0  0  0
   -8.7683    7.2571    0.0000 C   0  0  0  0  0  0  0  0  0  0  0  0
   -7.4692    6.5071    0.0000 C   0  0  0  0  0  0  0  0  0  0  0  0
   -6.1702    7.2571    0.0000 C   0  0  0  0  0  0  0  0  0  0  0  0
   -4.8712    6.5071    0.0000 C   0  0  0  0  0  0  0  0  0  0  0  0
    5.5212    5.0071    0.0000 C   0  0  0  0  0  0  0  0  0  0  0  0
    5.5216    6.5079    0.0000 C   0  0  0  0  0  0  0  0  0  0  0  0
    4.2216    4.2563    0.0000 C   0  0  0  0  0  0  0  0  0  0  0  0
   -3.5721    7.2571    0.0000 C   0  0  0  0  0  0  0  0  0  0  0  0
    4.2226    7.2579    0.0000 C   0  0  0  0  0  0  0  0  0  0  0  0
    2.9226    5.0063    0.0000 C   0  0  0  0  0  0  0  0  0  0  0  0
   -2.2731    6.5071    0.0000 C   0  0  0  0  0  0  0  0  0  0  0  0
    1.6240    7.2571    0.0000 C   0  0  0  0  0  0  0  0  0  0  0  0
    2.9231    6.5071    0.0000 C   0  0  0  0  0  0  0  0  0  0  0  0
   -0.9740    7.2571    0.0000 C   0  0  0  0  0  0  0  0  0  0  0  0
   -0.9740    8.7571    0.0000 O   0  0  0  0  0  0  0  0  0  0  0  0
    0.3250    6.5071    0.0000 O   0  0  0  0  0  0  0  0  0  0  0  0
  2  1  1  0
  3  2  1  0
  4  3  1  0
  5  4  1  0
  6  5  1  0
  7  6  1  0
  9  8  2  0
 10  8  1  0
 11  7  1  0
 12  9  1  0
 13 10  2  0
 14 11  1  0
 16 12  2  0
 16 13  1  0
 16 15  1  0
 17 14  1  0
 18 17  2  0
 19 15  1  0
 19 17  1  0
M  END
>  <NAME>  (1879) 
BENZYL DECANOATE

>  <SYNONYMS>  (1879) 


>  <SPECTRUM TYPE>  (1879) 
MS1

>  <INSTRUMENT TYPE>  (1879) 
EI-B

>  <INSTRUMENT>  (1879) 
HITACHI M-80B

>  <ION MODE>  (1879) 
P

>  <INCHIKEY>  (1879) 
ZSAYVPCIKVBDRI-UHFFFAOYSA-N

>  <FORMULA>  (1879) 
C17H26O2

>  <EXACT MASS>  (1879) 
262.193280072

>  <MW>  (1879) 
262

>  <ID>  (1879) 
JP009220

>  <CONTRIBUTOR>  (1879) 
University of Tokyo Team, {Faculty of Engineering, University of Tokyo

>  <COMMENT>  (1879) 
SMILES=CCCCCCCCCC(=O)OCc(c1)cccc1
InChI=InChI=1S/C17H26O2/c1-2-3-4-5-6-7-11-14-17(18)19-15-16-12-9-8-10-13-16/h8-10,12-13H,2-7,11,14-15H2,1H3
computed SMILES=O=C(OCC=1C=CC=CC1)CCCCCCCCC
accession=JP009220
date=2016.01.19 (Created 2008.10.21, modified 2011.05.06)
author=SODA AROMATIC CO., LTD.
license=CC BY-NC-SA
exact mass=262.19328
ionization energy=70 eV
ion type=[M]+*
computed spectral entropy=2.76927695877084
computed normalized entropy=0.7318018457503805
SPLASH=splash10-0006-9200000000-4773fa1dcfc89b83f46c
submitter=submitter = University of Tokyo Team (Faculty of Engineering, University of Tokyo)
MoNA Rating=3.75

>  <NUM PEAKS>  (1879) 
44

>  <MASS SPECTRAL PEAKS>  (1879) 
27 8.9
29 13.1
39 7.8
41 2.55
42 4.7
43 26.8
51 3.5
53 0.17
54 1.1
55 12.8
56 3
57 1.22
63 1.9
65 12
67 1.2
68 0.12
69 10
70 1.2
71 7.5
73 0.11
77 4.9
78 1.5
79 5
81 0.15
83 3.2
84 1.6
85 3.8
89 0.27
90 5.9
91 99.99
92 18.6
93 0.14
95 1.8
97 2.7
105 1.9
107 0.41
108 41.2
109 2.8
111 2.7
135 0.22
153 4.1
155 4
171 3.7
262 1.4

>  <PREDICTED SPECTRUM>  (1879) 
18 7
25 4
26 47
27 170
28 72
29 182
32 29
36 24
37 3
38 52
39 232
40 104
41 427
42 235
43 523
44 157
45 63
50 91
51 169
52 124
53 116
54 76
55 352
56 236
57 426
58 107
59 52
60 67
61 50
62 46
63 136
64 108
65 349
66 97
67 123
68 81
69 276
70 200
71 248
72 12
73 62
74 105
75 47
76 23
77 230
78 156
79 289
80 104
81 141
82 63
83 190
84 115
85 142
86 23
87 62
89 182
90 253
91 999
92 466
93 192
94 38
95 141
96 34
97 209
98 189
99 57
100 17
101 40
102 22
103 6
104 49
105 212
106 23
107 308
108 823
109 182
111 133
113 17
115 53
117 43
119 41
120 67
121 41
123 41
125 88
127 33
128 72
129 84
133 33
134 52
135 207
136 76
137 77
139 11
140 14
152 90
153 165
154 178
155 274
156 171
157 74
160 7
166 18
170 52
171 232
172 81
262 148
263 46

$$$$

     RDKit          2D

 11 11  0  0  0  0  0  0  0  0999 V2000
   -3.5376    0.5451    0.0000 C   0  0  0  0  0  0  0  0  0  0  0  0
   -2.2386    2.7951    0.0000 C   0  0  0  0  0  0  0  0  0  0  0  0
    2.9576   -1.7049    0.0000 C   0  0  0  0  0  0  0  0  0  0  0  0
    0.3590   -1.7058    0.0000 C   0  0  0  0  0  0  0  0  0  0  0  0
   -0.9400   -0.9558    0.0000 C   0  0  0  0  0  0  0  0  0  0  0  0
    0.3600    1.2959    0.0000 C   0  0  0  0  0  0  0  0  0  0  0  0
   -2.2386    1.2951    0.0000 C   0  0  0  0  0  0  0  0  0  0  0  0
    1.6585   -0.9549    0.0000 C   0  0  0  0  0  0  0  0  0  0  0  0
   -0.9395    0.5451    0.0000 C   0  0  0  0  0  0  0  0  0  0  0  0
    1.6590    0.5459    0.0000 C   0  0  0  0  0  0  0  0  0  0  0  0
    2.9582    1.2957    0.0000 O   0  0  0  0  0  0  0  0  0  0  0  0
  5  4  2  0
  7  1  1  0
  7  2  1  0
  8  3  1  0
  8  4  1  0
  9  5  1  0
  9  6  2  0
  9  7  1  0
 10  6  1  0
 10  8  2  0
 11 10  1  0
M  END
>  <NAME>  (1880) 
CARVACROL

>  <SYNONYMS>  (1880) 


>  <SPECTRUM TYPE>  (1880) 
MS1

>  <INSTRUMENT TYPE>  (1880) 
EI-B

>  <INSTRUMENT>  (1880) 
HITACHI M-80B

>  <ION MODE>  (1880) 
P

>  <INCHIKEY>  (1880) 
RECUKUPTGUEGMW-UHFFFAOYSA-N

>  <FORMULA>  (1880) 
C10H14O

>  <EXACT MASS>  (1880) 
150.104465068

>  <MW>  (1880) 
150

>  <ID>  (1880) 
JP009219

>  <CONTRIBUTOR>  (1880) 
University of Tokyo Team, {Faculty of Engineering, University of Tokyo

>  <COMMENT>  (1880) 
SMILES=CC(C)c(c1)cc(O)c(C)c1
InChI=InChI=1S/C10H14O/c1-7(2)9-5-4-8(3)10(11)6-9/h4-7,11H,1-3H3
computed SMILES=OC1=CC(=CC=C1C)C(C)C
accession=JP009219
date=2016.01.19 (Created 2008.10.21, modified 2011.05.06)
author=SODA AROMATIC CO., LTD.
license=CC BY-NC-SA
exact mass=150.10447
ionization energy=70 eV
ion type=[M]+*
computed spectral entropy=2.934722541485825
computed normalized entropy=0.7665179988329534
SPLASH=splash10-000i-6900000000-b77d2bc899f0364b95e6
submitter=submitter = University of Tokyo Team (Faculty of Engineering, University of Tokyo)
MoNA Rating=3.75

>  <NUM PEAKS>  (1880) 
46

>  <MASS SPECTRAL PEAKS>  (1880) 
15 2.19
27 9.67
29 1.94
38 1.14
39 12.6
40 1.35
41 8.8
43 2.32
50 2.58
51 8.52
52 3.67
53 5.84
55 2.54
63 4.2
64 1.02
65 6.14
66 2.21
67 1.56
68 1.52
74 1.13
77 14.37
78 4.36
79 8.44
89 1.29
91 21.68
92 2.14
94 1.02
95 1.02
103 2.08
105 5.86
106 1.27
107 9.06
108 2.09
109 1.14
115 6.04
116 1.43
117 5.32
120 1.58
121 3.84
133 2.48
134 1.82
135 99.99
136 9.63
149 1.31
150 30.35
151 3.57

>  <PREDICTED SPECTRUM>  (1880) 
14 24
15 54
16 9
17 11
18 27
26 51
27 193
28 103
29 90
34 10
37 35
38 104
39 288
40 142
41 292
42 92
43 156
44 73
45 44
49 10
50 149
51 276
52 170
53 232
54 59
55 141
56 11
57 56
58 66
59 12
60 24
62 100
63 201
64 173
65 265
66 152
67 172
68 29
69 62
71 23
72 49
73 52
74 97
75 103
76 77
77 346
78 220
79 276
80 110
81 106
82 81
85 4
86 32
87 21
88 52
89 127
90 70
91 509
92 181
93 212
94 80
95 50
97 7
101 42
102 147
103 238
104 169
105 377
106 143
107 306
108 176
109 75
110 55
115 322
116 219
117 344
118 169
119 312
120 201
121 175
122 69
123 45
128 105
129 35
130 7
131 145
132 95
133 247
134 132
135 999
136 340
137 111
147 13
148 95
149 182
150 717
151 265
152 51

$$$$

     RDKit          2D

 10 10  0  0  0  0  0  0  0  0999 V2000
    3.8981   -0.7504    0.0000 C   0  0  0  0  0  0  0  0  0  0  0  0
    0.0000    3.0000    0.0000 C   0  0  0  0  0  0  0  0  0  0  0  0
    2.5989   -1.5002    0.0000 C   0  0  0  0  0  0  0  0  0  0  0  0
    1.3000    0.7500    0.0000 C   0  0  0  0  0  0  0  0  0  0  0  0
   -1.3000    0.7500    0.0000 C   0  0  0  0  0  0  0  0  0  0  0  0
   -0.0000   -1.5000    0.0000 C   0  0  0  0  0  0  0  0  0  0  0  0
    0.0000    1.5000    0.0000 C   0  0  0  0  0  0  0  0  0  0  0  0
    1.3000   -0.7500    0.0000 C   0  0  0  0  0  0  0  0  0  0  0  0
   -1.3000   -0.7500    0.0000 C   0  0  0  0  0  0  0  0  0  0  0  0
   -2.5989   -1.5002    0.0000 O   0  0  0  0  0  0  0  0  0  0  0  0
  3  1  1  0
  7  2  1  0
  7  4  2  0
  7  5  1  0
  8  3  1  0
  8  4  1  0
  8  6  2  0
  9  5  2  0
  9  6  1  0
 10  9  1  0
M  END
>  <NAME>  (1881) 
3-ETHYL-5-METHYLPHENOL

>  <SYNONYMS>  (1881) 


>  <SPECTRUM TYPE>  (1881) 
MS1

>  <INSTRUMENT TYPE>  (1881) 
EI-B

>  <INSTRUMENT>  (1881) 
HITACHI M-80B

>  <ION MODE>  (1881) 
P

>  <INCHIKEY>  (1881) 
XTCHLXABLZQNNN-UHFFFAOYSA-N

>  <FORMULA>  (1881) 
C9H12O

>  <EXACT MASS>  (1881) 
136.088815004

>  <MW>  (1881) 
136

>  <ID>  (1881) 
JP009218

>  <CONTRIBUTOR>  (1881) 
University of Tokyo Team, {Faculty of Engineering, University of Tokyo

>  <COMMENT>  (1881) 
SMILES=CCc(c1)cc(O)cc(C)1
InChI=InChI=1S/C9H12O/c1-3-8-4-7(2)5-9(10)6-8/h4-6,10H,3H2,1-2H3
computed SMILES=OC=1C=C(C=C(C1)CC)C
accession=JP009218
date=2016.01.19 (Created 2008.10.21, modified 2011.05.06)
author=SODA AROMATIC CO., LTD.
license=CC BY-NC-SA
exact mass=136.08882
ionization energy=70 eV
ion type=[M]+*
computed spectral entropy=2.882934986953548
computed normalized entropy=0.7618368173501052
SPLASH=splash10-00dr-7900000000-80e62eab57b0f556d76d
submitter=submitter = University of Tokyo Team (Faculty of Engineering, University of Tokyo)
MoNA Rating=3.75

>  <NUM PEAKS>  (1881) 
44

>  <MASS SPECTRAL PEAKS>  (1881) 
15 3.01
26 1.43
27 10.88
29 2.32
38 2.32
39 16.05
40 2.05
41 6.22
43 1.79
50 3.98
51 11.83
52 3.98
53 8.33
55 3.78
62 1.5
63 4.14
64 1.15
65 8.75
66 2.89
67 3.59
74 1.05
75 1.05
77 22.49
78 4.7
79 4.86
81 1.19
89 1.42
91 23.55
92 2.73
93 2.97
94 1.34
103 3.07
105 1.79
107 8.56
108 7.62
109 1.29
115 2.13
119 1.3
120 1.02
121 99.99
122 9.33
135 4.25
136 54.55
137 4.3

>  <PREDICTED SPECTRUM>  (1881) 
14 10
15 75
26 53
27 194
28 68
29 119
32 10
36 5
37 37
38 98
39 300
40 99
41 275
42 53
43 133
44 7
49 1
50 148
51 254
52 141
53 244
54 59
55 172
56 18
57 47
58 60
59 36
60 21
61 86
62 86
63 139
64 90
65 222
66 108
67 209
68 58
69 52
73 6
74 72
75 94
76 58
77 414
78 214
79 353
80 73
81 46
82 19
86 29
87 32
89 83
90 28
91 439
92 127
93 235
94 139
95 123
96 26
101 33
102 73
103 254
104 75
105 246
106 152
107 332
108 77
109 33
115 148
116 47
117 93
118 3
119 198
120 102
121 999
122 336
123 86
133 67
134 51
135 215
136 660
137 219
138 2

$$$$

     RDKit          2D

 10 10  0  0  0  0  0  0  0  0999 V2000
   -3.2538    2.6270    0.0000 C   0  0  0  0  0  0  0  0  0  0  0  0
   -1.9585    1.8706    0.0000 C   0  0  0  0  0  0  0  0  0  0  0  0
   -0.6558    2.6142    0.0000 C   0  0  0  0  0  0  0  0  0  0  0  0
    1.9386    2.6078    0.0000 C   0  0  0  0  0  0  0  0  0  0  0  0
    0.6251    0.3829    0.0000 C   0  0  0  0  0  0  0  0  0  0  0  0
    3.2231    1.8829    0.0000 C   0  0  0  0  0  0  0  0  0  0  0  0
    1.9496   -0.4112    0.0000 C   0  0  0  0  0  0  0  0  0  0  0  0
    0.6396    1.8578    0.0000 C   0  0  0  0  0  0  0  0  0  0  0  0
    3.2486    0.3388    0.0000 C   0  0  0  0  0  0  0  0  0  0  0  0
    4.5538   -0.4005    0.0000 O   0  0  0  0  0  0  0  0  0  0  0  0
  2  1  1  0
  3  2  1  0
  6  4  2  0
  7  5  1  0
  8  3  1  0
  8  4  1  0
  8  5  2  0
  9  6  1  0
  9  7  2  0
 10  9  1  0
M  END
>  <NAME>  (1882) 
P-PROPYLPHENOL

>  <SYNONYMS>  (1882) 


>  <SPECTRUM TYPE>  (1882) 
MS1

>  <INSTRUMENT TYPE>  (1882) 
EI-B

>  <INSTRUMENT>  (1882) 
HITACHI M-80B

>  <ION MODE>  (1882) 
P

>  <INCHIKEY>  (1882) 
KLSLBUSXWBJMEC-UHFFFAOYSA-N

>  <FORMULA>  (1882) 
C9H12O

>  <EXACT MASS>  (1882) 
136.088815004

>  <MW>  (1882) 
136

>  <ID>  (1882) 
JP009217

>  <CONTRIBUTOR>  (1882) 
University of Tokyo Team, {Faculty of Engineering, University of Tokyo

>  <COMMENT>  (1882) 
SMILES=CCCc(c1)ccc(O)c1
InChI=InChI=1S/C9H12O/c1-2-3-8-4-6-9(10)7-5-8/h4-7,10H,2-3H2,1H3
computed SMILES=OC1=CC=C(C=C1)CCC
accession=JP009217
date=2016.01.19 (Created 2008.10.21, modified 2011.05.06)
author=SODA AROMATIC CO., LTD.
license=CC BY-NC-SA
exact mass=136.08882
ionization energy=70 eV
ion type=[M]+*
computed spectral entropy=1.8543677768409585
computed normalized entropy=0.6190031710146872
SPLASH=splash10-0a4i-3900000000-858c711ebaae485560d5
submitter=submitter = University of Tokyo Team (Faculty of Engineering, University of Tokyo)
MoNA Rating=3.75

>  <NUM PEAKS>  (1882) 
20

>  <MASS SPECTRAL PEAKS>  (1882) 
27 5.35
29 1.91
39 6.42
41 1.55
50 1.4
51 4.63
52 1.98
53 3.33
55 1.62
63 2.07
65 2.65
77 12.95
78 4.21
79 1.85
91 1.94
94 1.06
107 99.99
108 7.75
136 19.36
137 1.63

>  <PREDICTED SPECTRUM>  (1882) 
26 49
27 185
28 39
29 178
30 35
31 6
37 3
38 61
39 256
40 70
41 170
42 41
43 96
44 0
50 109
51 229
52 160
53 161
54 26
55 83
62 57
63 143
64 94
65 235
66 124
67 55
74 34
75 30
76 43
77 425
78 258
79 224
80 27
89 81
90 88
91 241
92 108
93 140
94 124
95 55
102 47
103 118
104 29
105 57
106 1
107 999
108 304
109 26
115 54
117 44
119 88
120 19
121 117
134 32
135 61
136 579
137 174
138 28

$$$$

     RDKit          2D

 10 10  0  0  0  0  0  0  0  0999 V2000
   -2.9242    2.0631    0.0000 C   0  0  0  0  0  0  0  0  0  0  0  0
   -1.6250    1.3133    0.0000 C   0  0  0  0  0  0  0  0  0  0  0  0
    2.2730   -0.9380    0.0000 C   0  0  0  0  0  0  0  0  0  0  0  0
    3.5721   -0.1880    0.0000 C   0  0  0  0  0  0  0  0  0  0  0  0
   -0.3261    2.0635    0.0000 C   0  0  0  0  0  0  0  0  0  0  0  0
    0.9735   -0.1871    0.0000 C   0  0  0  0  0  0  0  0  0  0  0  0
    3.5716    1.3129    0.0000 C   0  0  0  0  0  0  0  0  0  0  0  0
    0.9730    1.3137    0.0000 C   0  0  0  0  0  0  0  0  0  0  0  0
    2.2721    2.0637    0.0000 C   0  0  0  0  0  0  0  0  0  0  0  0
    2.2723    3.5637    0.0000 O   0  0  0  0  0  0  0  0  0  0  0  0
  2  1  2  0
  4  3  2  0
  5  2  1  0
  6  3  1  0
  7  4  1  0
  8  5  1  0
  8  6  2  0
  9  7  2  0
  9  8  1  0
 10  9  1  0
M  END
>  <NAME>  (1883) 
O-ALLYLPHENOL

>  <SYNONYMS>  (1883) 


>  <SPECTRUM TYPE>  (1883) 
MS1

>  <INSTRUMENT TYPE>  (1883) 
EI-B

>  <INSTRUMENT>  (1883) 
HITACHI M-80B

>  <ION MODE>  (1883) 
P

>  <INCHIKEY>  (1883) 
QIRNGVVZBINFMX-UHFFFAOYSA-N

>  <FORMULA>  (1883) 
C9H10O

>  <EXACT MASS>  (1883) 
134.07316494

>  <MW>  (1883) 
134

>  <ID>  (1883) 
JP009216

>  <CONTRIBUTOR>  (1883) 
University of Tokyo Team, {Faculty of Engineering, University of Tokyo

>  <COMMENT>  (1883) 
SMILES=C=CCc(c1)c(O)ccc1
InChI=InChI=1S/C9H10O/c1-2-5-8-6-3-4-7-9(8)10/h2-4,6-7,10H,1,5H2
computed SMILES=OC=1C=CC=CC1CC=C
accession=JP009216
date=2016.01.19 (Created 2008.10.21, modified 2011.05.06)
author=SODA AROMATIC CO., LTD.
license=CC BY-NC-SA
exact mass=134.07316
ionization energy=70 eV
ion type=[M]+*
computed spectral entropy=3.3882023262632552
computed normalized entropy=0.8380310072293418
SPLASH=splash10-00o0-9700000000-2daf762a9425d8601edb
submitter=submitter = University of Tokyo Team (Faculty of Engineering, University of Tokyo)
MoNA Rating=3.75

>  <NUM PEAKS>  (1883) 
57

>  <MASS SPECTRAL PEAKS>  (1883) 
15 1.36
26 4.18
27 23.06
28 1.13
29 2.43
37 1.82
38 6.93
39 36.25
40 3.57
41 3.68
43 3.2
50 12.93
51 29.11
52 11.27
53 12.04
54 1.06
55 9.34
58 1.48
61 1.35
62 4.32
63 14.74
64 3.49
65 11.77
66 8.03
67 1.25
68 1.47
74 3.86
75 3.5
76 2.62
77 46.32
78 25.52
79 19.93
80 1.45
87 1.18
89 8.14
90 5.36
91 50.98
92 4.88
94 2.46
102 1.63
103 8.22
104 1.58
105 21.98
106 4.06
107 24.56
108 2.03
115 32.79
116 7.71
117 11.58
118 2.7
119 34.7
120 2.68
131 3.69
132 1.38
133 34.82
134 99.99
135 9.95

>  <PREDICTED SPECTRUM>  (1883) 
26 65
27 127
28 18
37 52
38 117
39 383
40 101
41 206
43 5
45 64
49 7
50 230
51 411
52 190
53 162
54 14
55 159
56 13
57 107
58 59
61 117
62 154
63 266
64 143
65 261
66 129
67 8
71 7
73 108
74 156
75 125
76 62
77 442
78 331
79 228
80 127
81 32
82 27
83 52
84 31
86 69
87 87
89 237
90 110
91 526
92 106
93 71
94 176
97 76
101 22
102 179
103 154
104 119
105 334
106 277
107 437
108 188
115 639
116 208
117 140
118 78
119 442
120 104
131 141
132 197
133 913
134 999
135 278
136 17

$$$$

     RDKit          2D

  9  9  0  0  0  0  0  0  0  0999 V2000
   -3.2458   -0.3738    0.0000 C   0  0  0  0  0  0  0  0  0  0  0  0
   -1.9469   -1.1240    0.0000 C   0  0  0  0  0  0  0  0  0  0  0  0
    0.6473    1.8688    0.0000 C   0  0  0  0  0  0  0  0  0  0  0  0
   -0.6473    1.1266    0.0000 C   0  0  0  0  0  0  0  0  0  0  0  0
    1.9463    1.1188    0.0000 C   0  0  0  0  0  0  0  0  0  0  0  0
    0.6513   -1.1242    0.0000 C   0  0  0  0  0  0  0  0  0  0  0  0
   -0.6477   -0.3742    0.0000 C   0  0  0  0  0  0  0  0  0  0  0  0
    1.9508   -0.3734    0.0000 C   0  0  0  0  0  0  0  0  0  0  0  0
    3.2511   -1.1212    0.0000 O   0  0  0  0  0  0  0  0  0  0  0  0
  2  1  1  0
  4  3  2  0
  5  3  1  0
  7  2  1  0
  7  4  1  0
  7  6  2  0
  8  5  2  0
  8  6  1  0
  9  8  1  0
M  END
>  <NAME>  (1884) 
M-ETHYLPHENOL

>  <SYNONYMS>  (1884) 


>  <SPECTRUM TYPE>  (1884) 
MS1

>  <INSTRUMENT TYPE>  (1884) 
EI-B

>  <INSTRUMENT>  (1884) 
HITACHI M-80B

>  <ION MODE>  (1884) 
P

>  <INCHIKEY>  (1884) 
HMNKTRSOROOSPP-UHFFFAOYSA-N

>  <FORMULA>  (1884) 
C8H10O

>  <EXACT MASS>  (1884) 
122.07316494

>  <MW>  (1884) 
122

>  <ID>  (1884) 
JP009215

>  <CONTRIBUTOR>  (1884) 
University of Tokyo Team, {Faculty of Engineering, University of Tokyo

>  <COMMENT>  (1884) 
SMILES=CCc(c1)cc(O)cc1
InChI=InChI=1S/C8H10O/c1-2-7-4-3-5-8(9)6-7/h3-6,9H,2H2,1H3
computed SMILES=OC1=CC=CC(=C1)CC
accession=JP009215
date=2016.01.19 (Created 2008.10.21, modified 2011.05.06)
author=SODA AROMATIC CO., LTD.
license=CC BY-NC-SA
exact mass=122.07316
ionization energy=70 eV
ion type=[M]+*
computed spectral entropy=2.4644362414946506
computed normalized entropy=0.7048279456490105
SPLASH=splash10-0ab9-5900000000-878073166afeb89cd11c
submitter=submitter = University of Tokyo Team (Faculty of Engineering, University of Tokyo)
MoNA Rating=3.75

>  <NUM PEAKS>  (1884) 
33

>  <MASS SPECTRAL PEAKS>  (1884) 
15 1.05
27 5.41
29 1.05
38 2.2
39 11.58
40 1.26
41 2.06
50 2.62
51 6.86
52 2.43
53 4.35
55 2.1
60 1.17
62 1.58
63 4.45
64 1.23
65 5.98
66 2.06
77 22.27
78 4.05
79 6.38
81 1.03
91 6.81
93 1.57
94 8.34
95 1.32
103 2.67
105 1.29
107 99.99
108 8.1
121 4.83
122 52.37
123 3.93

>  <PREDICTED SPECTRUM>  (1884) 
14 22
15 91
16 7
25 8
26 92
27 204
28 81
29 79
32 18
34 2
36 21
37 108
38 190
39 439
40 168
41 242
42 112
43 143
44 70
45 39
46 37
49 54
50 291
51 426
52 279
53 328
54 119
55 147
56 80
57 47
58 27
59 70
60 24
61 116
62 171
63 284
64 182
65 381
66 160
67 81
68 58
69 19
70 15
74 149
75 102
76 104
77 561
78 287
79 400
80 212
81 133
87 38
89 159
90 68
91 322
92 151
93 251
94 216
95 140
96 31
102 26
103 153
104 42
105 257
106 122
107 999
108 372
109 75
119 106
120 52
121 477
122 840
123 265
124 27

$$$$

     RDKit          2D

  9  9  0  0  0  0  0  0  0  0999 V2000
   -2.9239    1.3130    0.0000 C   0  0  0  0  0  0  0  0  0  0  0  0
   -1.6250    2.0632    0.0000 C   0  0  0  0  0  0  0  0  0  0  0  0
    0.9742   -0.9383    0.0000 C   0  0  0  0  0  0  0  0  0  0  0  0
    2.2732   -0.1883    0.0000 C   0  0  0  0  0  0  0  0  0  0  0  0
   -0.3253   -0.1874    0.0000 C   0  0  0  0  0  0  0  0  0  0  0  0
    2.2727    1.3126    0.0000 C   0  0  0  0  0  0  0  0  0  0  0  0
   -0.3258    1.3134    0.0000 C   0  0  0  0  0  0  0  0  0  0  0  0
    0.9732    2.0634    0.0000 C   0  0  0  0  0  0  0  0  0  0  0  0
    0.9735    3.5634    0.0000 O   0  0  0  0  0  0  0  0  0  0  0  0
  2  1  1  0
  4  3  2  0
  5  3  1  0
  6  4  1  0
  7  2  1  0
  7  5  2  0
  8  6  2  0
  8  7  1  0
  9  8  1  0
M  END
>  <NAME>  (1885) 
O-ETHYLPHENOL

>  <SYNONYMS>  (1885) 


>  <SPECTRUM TYPE>  (1885) 
MS1

>  <INSTRUMENT TYPE>  (1885) 
EI-B

>  <INSTRUMENT>  (1885) 
HITACHI M-80B

>  <ION MODE>  (1885) 
P

>  <INCHIKEY>  (1885) 
IXQGCWUGDFDQMF-UHFFFAOYSA-N

>  <FORMULA>  (1885) 
C8H10O

>  <EXACT MASS>  (1885) 
122.07316494

>  <MW>  (1885) 
122

>  <ID>  (1885) 
JP009214

>  <CONTRIBUTOR>  (1885) 
University of Tokyo Team, {Faculty of Engineering, University of Tokyo

>  <COMMENT>  (1885) 
SMILES=CCc(c1)c(O)ccc1
InChI=InChI=1S/C8H10O/c1-2-7-5-3-4-6-8(7)9/h3-6,9H,2H2,1H3
computed SMILES=OC=1C=CC=CC1CC
accession=JP009214
date=2016.01.19 (Created 2008.10.21, modified 2011.05.06)
author=SODA AROMATIC CO., LTD.
license=CC BY-NC-SA
exact mass=122.07316
ionization energy=70 eV
ion type=[M]+*
computed spectral entropy=2.4229979716666583
computed normalized entropy=0.6929766142563186
SPLASH=splash10-0a4i-6900000000-2d03bf115a58b10d9402
submitter=submitter = University of Tokyo Team (Faculty of Engineering, University of Tokyo)
MoNA Rating=3.75

>  <NUM PEAKS>  (1885) 
33

>  <MASS SPECTRAL PEAKS>  (1885) 
15 1.3
27 4.63
29 1.29
38 1.6
39 11.56
40 1.38
41 1.61
50 2.98
51 8.63
52 3.36
53 4.2
55 1.37
60 1.13
62 1.45
63 3.57
64 1.22
65 4.13
66 1.31
75 1.2
77 25.51
78 5.2
79 11.94
91 5.79
93 1.12
94 1.78
103 3.83
104 1.18
105 1.13
107 99.99
108 6.34
121 2.61
122 41.81
123 3.07

>  <PREDICTED SPECTRUM>  (1885) 
26 37
27 88
37 59
38 127
39 340
40 110
41 191
42 77
43 101
44 61
45 47
46 1
49 32
50 245
51 437
52 229
53 285
54 84
55 183
56 41
61 68
62 128
63 226
64 114
65 310
66 154
67 81
68 23
70 6
74 124
75 99
76 39
77 584
78 295
79 400
80 133
81 64
82 13
89 170
90 61
91 343
92 144
93 301
94 172
95 64
102 80
103 207
104 131
105 257
106 79
107 864
108 269
119 79
120 48
121 421
122 999
123 295
124 39

$$$$

     RDKit          2D

  8  8  0  0  0  0  0  0  0  0999 V2000
   -2.6070    1.5036    0.0000 C   0  0  0  0  0  0  0  0  0  0  0  0
   -0.0127    1.4972    0.0000 C   0  0  0  0  0  0  0  0  0  0  0  0
   -1.3262   -0.7277    0.0000 C   0  0  0  0  0  0  0  0  0  0  0  0
    1.2718    0.7723    0.0000 C   0  0  0  0  0  0  0  0  0  0  0  0
   -0.0017   -1.5218    0.0000 C   0  0  0  0  0  0  0  0  0  0  0  0
   -1.3117    0.7472    0.0000 C   0  0  0  0  0  0  0  0  0  0  0  0
    1.2973   -0.7718    0.0000 C   0  0  0  0  0  0  0  0  0  0  0  0
    2.6025   -1.5111    0.0000 O   0  0  0  0  0  0  0  0  0  0  0  0
  4  2  2  0
  5  3  1  0
  6  1  1  0
  6  2  1  0
  6  3  2  0
  7  4  1  0
  7  5  2  0
  8  7  1  0
M  END
>  <NAME>  (1886) 
P-CRESOL

>  <SYNONYMS>  (1886) 


>  <SPECTRUM TYPE>  (1886) 
MS1

>  <INSTRUMENT TYPE>  (1886) 
EI-B

>  <INSTRUMENT>  (1886) 
HITACHI M-80B

>  <ION MODE>  (1886) 
P

>  <INCHIKEY>  (1886) 
IWDCLRJOBJJRNH-UHFFFAOYSA-N

>  <FORMULA>  (1886) 
C7H8O

>  <EXACT MASS>  (1886) 
108.057514876

>  <MW>  (1886) 
108

>  <ID>  (1886) 
JP009213

>  <CONTRIBUTOR>  (1886) 
University of Tokyo Team, {Faculty of Engineering, University of Tokyo

>  <COMMENT>  (1886) 
SMILES=Cc(c1)ccc(O)c1
InChI=InChI=1S/C7H8O/c1-6-2-4-7(8)5-3-6/h2-5,8H,1H3
computed SMILES=OC1=CC=C(C=C1)C
accession=JP009213
date=2016.01.19 (Created 2008.10.21, modified 2011.05.06)
author=SODA AROMATIC CO., LTD.
license=CC BY-NC-SA
exact mass=108.05751
ionization energy=70 eV
ion type=[M]+*
computed spectral entropy=2.4811694749837847
computed normalized entropy=0.7036062982397002
SPLASH=splash10-0a4i-7900000000-15d473146e11e4b049b2
submitter=submitter = University of Tokyo Team (Faculty of Engineering, University of Tokyo)
MoNA Rating=3.75

>  <NUM PEAKS>  (1886) 
34

>  <MASS SPECTRAL PEAKS>  (1886) 
26 2.11
27 9.43
29 1.9
37 1.12
38 2.61
39 11.35
40 1.25
43 1
49 1.01
50 7.75
51 13.48
52 7.31
53 10.14
54 2.8
55 2.59
61 1.06
62 2.1
63 5.48
64 1.1
65 2.04
66 1.04
74 1.24
77 23.45
78 7.15
79 18.25
80 7.55
81 1.77
89 1.98
90 7.7
91 4.29
106 1.07
107 95.08
108 99.99
109 7.52

>  <PREDICTED SPECTRUM>  (1886) 
15 5
16 13
17 0
25 19
26 59
27 115
28 6
29 16
31 16
32 0
37 53
38 123
39 347
40 77
41 195
44 9
45 1
47 43
49 5
50 228
51 361
52 267
53 294
54 77
55 81
56 20
57 63
61 65
62 127
63 222
64 63
65 416
66 135
67 11
73 0
74 122
75 64
77 429
78 271
79 432
80 163
81 163
89 80
90 134
91 477
92 93
93 167
105 54
106 124
107 861
108 999
109 295
110 59

$$$$

     RDKit          2D

  7  7  0  0  0  0  0  0  0  0999 V2000
   -1.6700   -0.9600    0.0000 C   0  0  0  0  0  0  0  0  0  0  0  0
   -1.6700    0.5400    0.0000 C   0  0  0  0  0  0  0  0  0  0  0  0
   -0.3700   -1.7100    0.0000 C   0  0  0  0  0  0  0  0  0  0  0  0
   -0.3700    1.2900    0.0000 C   0  0  0  0  0  0  0  0  0  0  0  0
    0.9300   -0.9600    0.0000 C   0  0  0  0  0  0  0  0  0  0  0  0
    0.9300    0.5400    0.0000 C   0  0  0  0  0  0  0  0  0  0  0  0
    2.2289    1.2902    0.0000 O   0  0  0  0  0  0  0  0  0  0  0  0
  2  1  2  0
  3  1  1  0
  4  2  1  0
  5  3  2  0
  6  4  2  0
  6  5  1  0
  7  6  1  0
M  END
>  <NAME>  (1887) 
PHENOL

>  <SYNONYMS>  (1887) 


>  <SPECTRUM TYPE>  (1887) 
MS1

>  <INSTRUMENT TYPE>  (1887) 
EI-B

>  <INSTRUMENT>  (1887) 
HITACHI M-80B

>  <ION MODE>  (1887) 
P

>  <INCHIKEY>  (1887) 
ISWSIDIOOBJBQZ-UHFFFAOYSA-N

>  <FORMULA>  (1887) 
C6H6O

>  <EXACT MASS>  (1887) 
94.041864812

>  <MW>  (1887) 
94

>  <ID>  (1887) 
JP009212

>  <CONTRIBUTOR>  (1887) 
University of Tokyo Team, {Faculty of Engineering, University of Tokyo

>  <COMMENT>  (1887) 
SMILES=Oc(c1)cccc1
InChI=InChI=1S/C6H6O/c7-6-4-2-1-3-5-6/h1-5,7H
computed SMILES=OC=1C=CC=CC1
accession=JP009212
date=2016.01.19 (Created 2008.10.21, modified 2011.05.06)
author=SODA AROMATIC CO., LTD.
license=CC BY-NC-SA
exact mass=94.04186
ionization energy=70 eV
ion type=[M]+*
computed spectral entropy=2.1559048644667933
computed normalized entropy=0.6783726706827858
SPLASH=splash10-0006-9000000000-db80d8b605e20595c679
submitter=submitter = University of Tokyo Team (Faculty of Engineering, University of Tokyo)
MoNA Rating=3.75

>  <NUM PEAKS>  (1887) 
24

>  <MASS SPECTRAL PEAKS>  (1887) 
26 1.38
27 2.26
29 1.58
37 2.55
38 4.85
39 17.95
40 7.84
47 2.55
50 3.94
51 3.89
53 2.37
55 6.01
61 1.69
62 2.6
63 4.72
64 1.95
65 19.92
66 27.46
67 1.55
68 1.06
74 1.48
93 1.69
94 99.99
95 5.76

>  <PREDICTED SPECTRUM>  (1887) 
17 9
25 9
26 37
27 98
28 44
29 68
36 42
37 120
38 243
39 533
40 186
41 61
43 20
47 28
49 39
50 325
51 513
53 106
54 70
55 33
57 28
62 145
63 302
64 164
65 573
66 359
67 223
68 140
69 27
73 7
74 133
75 39
76 110
77 396
78 170
81 96
92 59
93 924
94 999
95 429
96 141
97 58

$$$$

     RDKit          2D

 16 16  0  0  0  0  0  0  0  0999 V2000
   -5.2000    0.0000    0.0000 C   0  0  0  0  0  0  0  0  0  0  0  0
   -5.2000    1.5000    0.0000 C   0  0  0  0  0  0  0  0  0  0  0  0
   -2.6000    0.0000    0.0000 C   0  0  0  0  0  0  0  0  0  0  0  0
   -3.9000    2.2500    0.0000 C   0  0  0  0  0  0  0  0  0  0  0  0
   -1.3000   -0.7500    0.0000 C   0  0  0  0  0  0  0  0  0  0  0  0
   -3.9000    3.7500    0.0000 C   0  0  0  0  0  0  0  0  0  0  0  0
    0.0000    0.0000    0.0000 C   0  0  0  0  0  0  0  0  0  0  0  0
   -2.6000    4.5000    0.0000 C   0  0  0  0  0  0  0  0  0  0  0  0
    1.3000   -0.7500    0.0000 C   0  0  0  0  0  0  0  0  0  0  0  0
   -1.3000    3.7500    0.0000 C   0  0  0  0  0  0  0  0  0  0  0  0
    2.6000   -0.0000    0.0000 C   0  0  0  0  0  0  0  0  0  0  0  0
    0.0000    4.5000    0.0000 C   0  0  0  0  0  0  0  0  0  0  0  0
    2.6000    1.5000    0.0000 C   0  0  0  0  0  0  0  0  0  0  0  0
    1.3000    3.7500    0.0000 C   0  0  0  0  0  0  0  0  0  0  0  0
    1.3000    2.2500    0.0000 C   0  0  0  0  0  0  0  0  0  0  0  0
    0.0011    1.4998    0.0000 O   0  0  0  0  0  0  0  0  0  0  0  0
  2  1  1  0
  3  1  1  0
  4  2  1  0
  5  3  1  0
  6  4  1  0
  7  5  1  0
  8  6  1  0
  9  7  1  0
 10  8  1  0
 11  9  1  0
 12 10  1  0
 13 11  1  0
 14 12  1  0
 15 13  1  0
 15 14  1  0
 16 15  2  0
M  END
>  <NAME>  (1888) 
CYCLOPENTADECANONE

>  <SYNONYMS>  (1888) 


>  <SPECTRUM TYPE>  (1888) 
MS1

>  <INSTRUMENT TYPE>  (1888) 
EI-B

>  <INSTRUMENT>  (1888) 
HITACHI M-80B

>  <ION MODE>  (1888) 
P

>  <INCHIKEY>  (1888) 
OSOIQJGOYGSIMF-UHFFFAOYSA-N

>  <FORMULA>  (1888) 
C15H28O

>  <EXACT MASS>  (1888) 
224.214015516

>  <MW>  (1888) 
224

>  <ID>  (1888) 
JP009211

>  <CONTRIBUTOR>  (1888) 
University of Tokyo Team, {Faculty of Engineering, University of Tokyo

>  <COMMENT>  (1888) 
SMILES=O=C(C1)CCCCCCCCCCCCC1
InChI=InChI=1S/C15H28O/c16-15-13-11-9-7-5-3-1-2-4-6-8-10-12-14-15/h1-14H2
computed SMILES=O=C1CCCCCCCCCCCCCC1
accession=JP009211
date=2016.01.19 (Created 2008.10.21, modified 2011.05.06)
author=SODA AROMATIC CO., LTD.
license=CC BY-NC-SA
exact mass=224.21402
ionization energy=70 eV
ion type=[M]+*
computed spectral entropy=3.674989300526205
computed normalized entropy=0.8460299077940587
SPLASH=splash10-0a4l-9100000000-f2196c24c51674809d3d
submitter=submitter = University of Tokyo Team (Faculty of Engineering, University of Tokyo)
MoNA Rating=3.75

>  <NUM PEAKS>  (1888) 
77

>  <MASS SPECTRAL PEAKS>  (1888) 
27 16.96
29 32.56
39 18.22
41 99.99
42 29.84
43 43.44
53 7.11
54 12.78
55 92.71
56 22.29
57 16.95
58 67.74
59 27.93
65 1.39
66 1.8
67 20.88
68 16.74
69 33.07
70 16.45
71 72.13
72 5.84
77 1.43
78 1.03
79 5.37
80 10.47
81 19.62
82 26.3
83 24.42
84 17.39
85 11.46
86 1.44
93 4.08
94 8.87
95 14.33
96 24.06
97 19.24
98 21.43
99 3.32
100 3.02
107 3.29
108 5.6
109 5.56
110 13.04
111 14.26
112 3.88
113 2.87
114 1.92
121 5.98
122 3.51
123 3.31
124 6.72
125 14.53
126 1.73
127 2.7
128 2.3
135 6.33
136 2.66
137 1.95
138 3
139 2.77
141 1.26
142 2.49
149 4.23
150 2.01
153 1.03
156 1.39
163 2.37
164 3.35
166 5.93
167 1.78
169 1.01
177 1.31
181 1.59
206 2.87
209 1.22
224 17.83
225 2.95

>  <PREDICTED SPECTRUM>  (1888) 
15 11
16 10
17 23
18 39
25 8
26 102
27 392
28 212
29 470
30 110
31 104
32 24
34 7
37 9
38 38
39 412
40 183
41 987
42 450
43 835
44 273
45 153
46 1
50 9
51 74
52 71
53 331
54 425
55 999
56 515
57 627
58 679
59 492
60 130
61 53
63 30
65 132
66 166
67 550
68 446
69 688
70 492
71 743
72 394
73 210
74 10
76 1
77 132
78 56
79 298
80 249
81 481
82 493
83 623
84 446
85 445
86 230
87 182
91 86
92 28
93 222
94 262
95 507
96 576
97 608
98 544
99 244
100 220
101 121
105 47
106 18
107 227
108 204
109 274
110 331
111 482
112 286
113 285
114 161
115 88
116 88
117 22
120 78
121 232
122 205
123 233
124 155
125 390
126 215
127 194
128 187
129 65
132 7
133 10
134 27
135 328
136 169
137 149
138 125
139 196
140 110
141 92
142 162
143 1
148 32
149 181
150 177
151 89
152 70
153 156
154 114
155 119
156 78
162 55
163 144
164 228
165 95
166 235
167 194
168 124
169 60
170 69
177 89
178 86
179 4
180 33
181 175
182 82
183 103
191 70
192 59
193 30
195 213
196 139
197 42
206 72
207 37
209 133
210 75
211 79
224 381
225 143
226 93

$$$$

     RDKit          2D

 11 11  0  0  0  0  0  0  0  0999 V2000
    2.9231    0.5071    0.0000 C   0  0  0  0  0  0  0  0  0  0  0  0
    2.9236    2.0079    0.0000 C   0  0  0  0  0  0  0  0  0  0  0  0
    1.6236   -0.2437    0.0000 C   0  0  0  0  0  0  0  0  0  0  0  0
    1.6245    2.7579    0.0000 C   0  0  0  0  0  0  0  0  0  0  0  0
    0.3245    0.5063    0.0000 C   0  0  0  0  0  0  0  0  0  0  0  0
   -0.9740    2.7571    0.0000 C   0  0  0  0  0  0  0  0  0  0  0  0
   -2.2731    2.0071    0.0000 C   0  0  0  0  0  0  0  0  0  0  0  0
    0.3250    2.0071    0.0000 C   0  0  0  0  0  0  0  0  0  0  0  0
   -3.5721    2.7571    0.0000 C   0  0  0  0  0  0  0  0  0  0  0  0
   -3.5721    4.2571    0.0000 O   0  0  0  0  0  0  0  0  0  0  0  0
   -4.8712    2.0071    0.0000 O   0  0  0  0  0  0  0  0  0  0  0  0
  2  1  2  0
  3  1  1  0
  4  2  1  0
  5  3  2  0
  7  6  1  0
  8  4  2  0
  8  5  1  0
  8  6  1  0
  9  7  1  0
 10  9  2  0
 11  9  1  0
M  END
>  <NAME>  (1889) 
3-PHENYLPROPIONIC ACID

>  <SYNONYMS>  (1889) 


>  <SPECTRUM TYPE>  (1889) 
MS1

>  <INSTRUMENT TYPE>  (1889) 
EI-B

>  <INSTRUMENT>  (1889) 
HITACHI M-80B

>  <ION MODE>  (1889) 
P

>  <INCHIKEY>  (1889) 
XMIIGOLPHOKFCH-UHFFFAOYSA-N

>  <FORMULA>  (1889) 
C9H10O2

>  <EXACT MASS>  (1889) 
150.06807956

>  <MW>  (1889) 
150

>  <ID>  (1889) 
JP009210

>  <CONTRIBUTOR>  (1889) 
University of Tokyo Team, {Faculty of Engineering, University of Tokyo

>  <COMMENT>  (1889) 
SMILES=OC(=O)CCc(c1)cccc1
InChI=InChI=1S/C9H10O2/c10-9(11)7-6-8-4-2-1-3-5-8/h1-5H,6-7H2,(H,10,11)
computed SMILES=O=C(O)CCC=1C=CC=CC1
exact mass=150.06808
accession=JP009210
date=2016.01.19 (Created 2008.10.21, modified 2011.05.06)
author=SODA AROMATIC CO., LTD.
license=CC BY-NC-SA
ionization energy=70 eV
ion type=[M]+*
computed spectral entropy=2.866706735403246
computed normalized entropy=0.7669770279803015
SPLASH=splash10-0udl-9300000000-faf8506e70502be88599
submitter=submitter = University of Tokyo Team (Faculty of Engineering, University of Tokyo)
MoNA Rating=3.75

>  <NUM PEAKS>  (1889) 
42

>  <MASS SPECTRAL PEAKS>  (1889) 
18 3.07
26 1.4
27 8.78
29 1.1
31 1.3
38 1.95
39 11.24
41 2.82
42 1.89
43 2.3
44 1.23
45 9.79
50 7.59
51 18.05
52 4.85
53 1.93
55 1.76
60 3.43
62 1.59
63 5.79
64 1.28
65 12.76
73 1.98
74 2.08
75 1.89
76 1.72
77 18.99
78 16.76
79 9.07
89 2.42
91 99.99
92 8.02
102 1.57
103 9.41
104 52.1
105 17.72
106 1.19
107 1.09
131 1.35
150 30.15
151 3.36
152 1.02

>  <PREDICTED SPECTRUM>  (1889) 
14 23
15 19
16 20
17 47
18 67
19 19
25 29
26 109
27 289
28 139
29 201
30 27
31 168
32 25
33 0
36 14
37 58
38 106
39 339
40 111
41 262
42 176
43 222
44 142
45 260
46 66
47 22
49 77
50 218
51 342
52 202
53 130
54 49
55 200
56 29
57 107
58 65
59 106
60 192
61 100
62 128
63 213
64 131
65 396
66 141
67 47
68 42
69 63
70 38
71 80
72 80
73 180
74 166
75 134
76 128
77 399
78 327
79 270
80 80
82 11
85 64
86 102
87 65
88 47
89 157
90 315
91 999
92 484
93 77
97 27
101 62
102 174
103 286
104 558
105 460
106 103
107 1
115 108
116 4
117 49
118 17
120 33
122 1
129 1
130 4
131 50
132 280
133 160
134 67
147 9
149 43
150 482
151 154
152 9

$$$$

     RDKit          2D

 10 10  0  0  0  0  0  0  0  0999 V2000
    2.5983    0.3196    0.0000 C   0  0  0  0  0  0  0  0  0  0  0  0
    2.5988    1.8204    0.0000 C   0  0  0  0  0  0  0  0  0  0  0  0
    1.2988   -0.4312    0.0000 C   0  0  0  0  0  0  0  0  0  0  0  0
    1.2998    2.5704    0.0000 C   0  0  0  0  0  0  0  0  0  0  0  0
   -0.0002    0.3188    0.0000 C   0  0  0  0  0  0  0  0  0  0  0  0
   -1.2988    2.5696    0.0000 C   0  0  0  0  0  0  0  0  0  0  0  0
    0.0002    1.8196    0.0000 C   0  0  0  0  0  0  0  0  0  0  0  0
   -2.5978    1.8196    0.0000 C   0  0  0  0  0  0  0  0  0  0  0  0
   -2.5978    0.3196    0.0000 O   0  0  0  0  0  0  0  0  0  0  0  0
   -3.8969    2.5696    0.0000 O   0  0  0  0  0  0  0  0  0  0  0  0
  2  1  2  0
  3  1  1  0
  4  2  1  0
  5  3  2  0
  7  4  2  0
  7  5  1  0
  7  6  1  0
  8  6  1  0
  9  8  2  0
 10  8  1  0
M  END
>  <NAME>  (1890) 
PHENYLACETIC ACID

>  <SYNONYMS>  (1890) 


>  <SPECTRUM TYPE>  (1890) 
MS1

>  <INSTRUMENT TYPE>  (1890) 
EI-B

>  <INSTRUMENT>  (1890) 
HITACHI M-80B

>  <ION MODE>  (1890) 
P

>  <INCHIKEY>  (1890) 
WLJVXDMOQOGPHL-UHFFFAOYSA-N

>  <FORMULA>  (1890) 
C8H8O2

>  <EXACT MASS>  (1890) 
136.052429496

>  <MW>  (1890) 
136

>  <ID>  (1890) 
JP009209

>  <CONTRIBUTOR>  (1890) 
University of Tokyo Team, {Faculty of Engineering, University of Tokyo

>  <COMMENT>  (1890) 
SMILES=OC(=O)Cc(c1)cccc1
InChI=InChI=1S/C8H8O2/c9-8(10)6-7-4-2-1-3-5-7/h1-5H,6H2,(H,9,10)
computed SMILES=O=C(O)CC=1C=CC=CC1
ion type=[M]+*
accession=JP009209
date=2016.01.19 (Created 2008.10.21, modified 2011.05.06)
author=SODA AROMATIC CO., LTD.
license=CC BY-NC-SA
exact mass=136.05243
ionization energy=70 eV
computed spectral entropy=2.0145305896060797
computed normalized entropy=0.6616901766414532
SPLASH=splash10-0006-9100000000-de65c7c0092343a4e599
submitter=submitter = University of Tokyo Team (Faculty of Engineering, University of Tokyo)
MoNA Rating=3.75

>  <NUM PEAKS>  (1890) 
21

>  <MASS SPECTRAL PEAKS>  (1890) 
27 1.19
38 2.03
39 11.11
41 1.38
45 3.56
50 3.11
51 5.05
52 1.73
62 2.05
63 6.51
64 1.82
65 15.59
66 1.07
77 2.33
89 4.25
90 2.93
91 99.99
92 20.12
93 1.02
136 30.07
137 2.35

>  <PREDICTED SPECTRUM>  (1890) 
14 12
16 6
17 30
18 35
19 13
25 10
26 74
27 163
28 69
29 87
36 8
37 59
38 126
39 311
40 106
41 209
42 37
43 118
44 141
45 272
46 43
49 69
50 190
51 307
52 140
53 136
58 31
61 47
62 140
63 252
64 162
65 444
66 168
69 27
70 23
71 65
74 88
75 35
76 33
77 221
78 116
79 106
87 60
88 34
89 258
90 256
91 999
92 388
93 69
102 37
107 10
108 68
109 26
118 81
119 77
121 29
134 43
135 78
136 505
137 180

$$$$

     RDKit          2D

  9  9  0  0  0  0  0  0  0  0999 V2000
    2.2733   -0.6175    0.0000 C   0  0  0  0  0  0  0  0  0  0  0  0
    2.2738    0.8833    0.0000 C   0  0  0  0  0  0  0  0  0  0  0  0
    0.9738   -1.3683    0.0000 C   0  0  0  0  0  0  0  0  0  0  0  0
    0.9748    1.6333    0.0000 C   0  0  0  0  0  0  0  0  0  0  0  0
   -0.3252   -0.6183    0.0000 C   0  0  0  0  0  0  0  0  0  0  0  0
   -0.3248    0.8825    0.0000 C   0  0  0  0  0  0  0  0  0  0  0  0
   -1.6238    1.6325    0.0000 C   0  0  0  0  0  0  0  0  0  0  0  0
   -1.6238    3.1325    0.0000 O   0  0  0  0  0  0  0  0  0  0  0  0
   -2.9228    0.8825    0.0000 O   0  0  0  0  0  0  0  0  0  0  0  0
  2  1  2  0
  3  1  1  0
  4  2  1  0
  5  3  2  0
  6  4  2  0
  6  5  1  0
  7  6  1  0
  8  7  2  0
  9  7  1  0
M  END
>  <NAME>  (1891) 
BENZOIC ACID

>  <SYNONYMS>  (1891) 


>  <SPECTRUM TYPE>  (1891) 
MS1

>  <INSTRUMENT TYPE>  (1891) 
EI-B

>  <INSTRUMENT>  (1891) 
HITACHI M-80B

>  <ION MODE>  (1891) 
P

>  <INCHIKEY>  (1891) 
WPYMKLBDIGXBTP-UHFFFAOYSA-N

>  <FORMULA>  (1891) 
C7H6O2

>  <EXACT MASS>  (1891) 
122.036779432

>  <MW>  (1891) 
122

>  <ID>  (1891) 
JP009208

>  <CONTRIBUTOR>  (1891) 
University of Tokyo Team, {Faculty of Engineering, University of Tokyo

>  <COMMENT>  (1891) 
SMILES=OC(=O)c(c1)cccc1
InChI=InChI=1S/C7H6O2/c8-7(9)6-4-2-1-3-5-6/h1-5H,(H,8,9)
computed SMILES=O=C(O)C=1C=CC=CC1
author=SODA AROMATIC CO., LTD.
accession=JP009208
date=2016.01.19 (Created 2008.10.21, modified 2011.05.06)
license=CC BY-NC-SA
exact mass=122.03678
ionization energy=70 eV
ion type=[M]+*
computed spectral entropy=2.3486876600625894
computed normalized entropy=0.7048449916236077
SPLASH=splash10-0pk9-9800000000-b93fc1120a1c74b88fa3
submitter=submitter = University of Tokyo Team (Faculty of Engineering, University of Tokyo)
MoNA Rating=3.75

>  <NUM PEAKS>  (1891) 
28

>  <MASS SPECTRAL PEAKS>  (1891) 
17 1.1
26 1.23
27 2.97
37 2.65
38 5.5
39 8.12
45 6.1
49 2.46
50 24.1
51 40.89
52 6.91
53 1.46
61 1.04
62 1.08
63 1.17
65 2.2
66 1.9
73 1.92
74 9.14
75 3.3
76 6.65
77 74.48
78 8.26
94 2.78
105 99.99
106 8.4
122 82.82
123 6.2

>  <PREDICTED SPECTRUM>  (1891) 
14 9
16 21
17 37
18 26
25 34
26 72
27 86
28 88
29 140
31 55
32 10
36 33
37 114
38 118
39 227
40 84
42 7
43 79
44 158
45 252
46 57
47 55
48 23
49 167
50 487
51 654
52 229
53 192
54 4
60 14
61 55
62 39
63 28
64 48
65 124
66 115
67 7
74 271
75 215
76 361
77 930
78 372
79 93
92 101
93 65
94 82
95 0
105 999
106 329
120 34
121 420
122 566
123 214
124 8

$$$$

     RDKit          2D

 10 10  0  0  0  0  0  0  0  0999 V2000
    2.5983    0.3196    0.0000 C   0  0  0  0  0  0  0  0  0  0  0  0
    2.5988    1.8204    0.0000 C   0  0  0  0  0  0  0  0  0  0  0  0
    1.2988   -0.4312    0.0000 C   0  0  0  0  0  0  0  0  0  0  0  0
    1.2998    2.5704    0.0000 C   0  0  0  0  0  0  0  0  0  0  0  0
   -0.0002    0.3188    0.0000 C   0  0  0  0  0  0  0  0  0  0  0  0
   -1.2988    2.5696    0.0000 C   0  0  0  0  0  0  0  0  0  0  0  0
    0.0002    1.8196    0.0000 C   0  0  0  0  0  0  0  0  0  0  0  0
   -2.5978    1.8196    0.0000 C   0  0  0  0  0  0  0  0  0  0  0  0
   -2.5978    0.3196    0.0000 O   0  0  0  0  0  0  0  0  0  0  0  0
   -3.8969    2.5696    0.0000 O   0  0  0  0  0  0  0  0  0  0  0  0
  2  1  1  0
  3  1  1  0
  4  2  1  0
  5  3  1  0
  7  4  1  0
  7  5  1  0
  7  6  1  0
  8  6  1  0
  9  8  2  0
 10  8  1  0
M  END
>  <NAME>  (1892) 
CYCLOHEXANEACETIC ACID

>  <SYNONYMS>  (1892) 


>  <SPECTRUM TYPE>  (1892) 
MS1

>  <INSTRUMENT TYPE>  (1892) 
EI-B

>  <INSTRUMENT>  (1892) 
HITACHI M-80B

>  <ION MODE>  (1892) 
P

>  <INCHIKEY>  (1892) 
LJOODBDWMQKMFB-UHFFFAOYSA-N

>  <FORMULA>  (1892) 
C8H14O2

>  <EXACT MASS>  (1892) 
142.099379688

>  <MW>  (1892) 
142

>  <ID>  (1892) 
JP009207

>  <CONTRIBUTOR>  (1892) 
University of Tokyo Team, {Faculty of Engineering, University of Tokyo

>  <COMMENT>  (1892) 
SMILES=OC(=O)CC(C1)CCCC1
InChI=InChI=1S/C8H14O2/c9-8(10)6-7-4-2-1-3-5-7/h7H,1-6H2,(H,9,10)
computed SMILES=O=C(O)CC1CCCCC1
accession=JP009207
date=2016.01.19 (Created 2008.10.21, modified 2011.05.06)
author=SODA AROMATIC CO., LTD.
license=CC BY-NC-SA
exact mass=142.09938
ionization energy=70 eV
ion type=[M]+*
computed spectral entropy=2.9337437110294657
computed normalized entropy=0.7619821405616843
SPLASH=splash10-03e9-9000000000-b41e00ae96a1ce010432
submitter=submitter = University of Tokyo Team (Faculty of Engineering, University of Tokyo)
MoNA Rating=3.75

>  <NUM PEAKS>  (1892) 
47

>  <MASS SPECTRAL PEAKS>  (1892) 
15 1.7
26 1.41
27 26.34
28 5.95
29 17.75
31 2.36
38 1.31
39 33.52
40 4.03
41 53.99
42 7.95
43 10.93
44 1.16
45 14.31
50 1.1
51 2.78
52 1.41
53 10.93
54 21.88
55 64.64
56 4.02
57 2.53
58 1
59 1.04
60 99.99
61 58.12
62 1.43
65 1.92
66 1.31
67 40.59
68 4.04
69 1.7
70 1.01
71 1.45
73 2.42
77 1.88
79 2.84
80 1.63
81 11.98
82 64.72
83 63.43
84 3.26
87 1.17
89 1.32
95 1.19
99 2.87
142 3.3

>  <PREDICTED SPECTRUM>  (1892) 
26 91
27 386
28 159
29 385
31 123
33 33
38 45
39 468
40 194
41 821
42 363
43 385
44 167
45 404
46 115
47 89
49 31
50 104
51 229
52 101
53 293
54 429
55 999
56 319
57 143
59 320
60 690
61 245
62 57
63 55
64 1
65 152
66 91
67 519
68 392
69 282
70 100
71 11
73 167
74 117
77 288
78 132
79 310
80 223
81 585
82 420
83 774
84 165
85 112
86 34
87 134
91 87
92 9
93 68
94 47
95 275
96 274
97 686
98 10
101 4
113 129
114 110
123 31
124 221
125 55
142 189
143 57

$$$$

     RDKit          2D

  6  5  0  0  0  0  0  0  0  0999 V2000
    1.2990    2.2500    0.0000 C   0  0  0  0  0  0  0  0  0  0  0  0
   -1.2990    2.2500    0.0000 C   0  0  0  0  0  0  0  0  0  0  0  0
   -2.5981    3.0000    0.0000 C   0  0  0  0  0  0  0  0  0  0  0  0
   -2.5981    4.5000    0.0000 O   0  0  0  0  0  0  0  0  0  0  0  0
   -3.8971    2.2500    0.0000 O   0  0  0  0  0  0  0  0  0  0  0  0
    0.0000    3.0000    0.0000 O   0  0  0  0  0  0  0  0  0  0  0  0
  3  2  1  0
  4  3  2  0
  5  3  1  0
  6  1  1  0
  6  2  1  0
M  END
>  <NAME>  (1893) 
METHOXYACETIC ACID

>  <SYNONYMS>  (1893) 


>  <SPECTRUM TYPE>  (1893) 
MS1

>  <INSTRUMENT TYPE>  (1893) 
EI-B

>  <INSTRUMENT>  (1893) 
HITACHI M-80B

>  <ION MODE>  (1893) 
P

>  <INCHIKEY>  (1893) 
RMIODHQZRUFFFF-UHFFFAOYSA-N

>  <FORMULA>  (1893) 
C3H6O3

>  <EXACT MASS>  (1893) 
90.03169405199999

>  <MW>  (1893) 
90

>  <ID>  (1893) 
JP009206

>  <CONTRIBUTOR>  (1893) 
University of Tokyo Team, {Faculty of Engineering, University of Tokyo

>  <COMMENT>  (1893) 
SMILES=COCC(O)=O
InChI=InChI=1S/C3H6O3/c1-6-2-3(4)5/h2H2,1H3,(H,4,5)
computed SMILES=O=C(O)COC
accession=JP009206
date=2016.01.19 (Created 2008.10.21, modified 2011.05.06)
author=SODA AROMATIC CO., LTD.
license=CC BY-NC-SA
exact mass=90.03169
ionization energy=70 eV
ion type=[M]+*
computed spectral entropy=1.8802923692931433
computed normalized entropy=0.6505365146045313
SPLASH=splash10-0002-9000000000-00eacd2cc9c79e884a7f
submitter=submitter = University of Tokyo Team (Faculty of Engineering, University of Tokyo)
MoNA Rating=3.75

>  <NUM PEAKS>  (1893) 
18

>  <MASS SPECTRAL PEAKS>  (1893) 
13 1.05
14 3.6
15 19.84
27 1.56
29 38.62
30 2.5
31 15.02
39 1.17
41 2.53
42 8.11
43 1.72
44 1.84
45 99.99
46 2.88
59 1.14
60 26.86
61 1.4
69 1.21

>  <PREDICTED SPECTRUM>  (1893) 
14 50
15 124
16 9
17 11
18 29
19 26
25 43
26 103
27 234
28 148
29 302
30 160
31 265
32 54
33 100
34 26
35 24
36 61
37 54
38 74
40 41
41 235
42 285
43 338
44 223
45 999
46 182
47 48
49 89
50 71
51 105
52 27
57 126
58 100
59 107
60 152
61 92
62 74
63 0
71 2
73 141
74 35
75 179
76 32
89 92
90 91
91 2

$$$$

     RDKit          2D

  6  5  0  0  0  0  0  0  0  0999 V2000
   -0.0000   -0.0000    0.0000 C   0  0  0  0  0  0  0  0  0  0  0  0
   -0.0000    1.5000    0.0000 C   0  0  0  0  0  0  0  0  0  0  0  0
   -1.2990    2.2500    0.0000 C   0  0  0  0  0  0  0  0  0  0  0  0
    1.2990    2.2500    0.0000 O   0  0  0  0  0  0  0  0  0  0  0  0
   -1.2990    3.7500    0.0000 O   0  0  0  0  0  0  0  0  0  0  0  0
   -2.5981    1.5000    0.0000 O   0  0  0  0  0  0  0  0  0  0  0  0
  2  1  1  0
  3  2  1  0
  4  2  2  0
  5  3  1  0
  6  3  2  0
M  END
>  <NAME>  (1894) 
PYRUVIC ACID

>  <SYNONYMS>  (1894) 


>  <SPECTRUM TYPE>  (1894) 
MS1

>  <INSTRUMENT TYPE>  (1894) 
EI-B

>  <INSTRUMENT>  (1894) 
HITACHI M-80B

>  <ION MODE>  (1894) 
P

>  <INCHIKEY>  (1894) 
LCTONWCANYUPML-UHFFFAOYSA-N

>  <FORMULA>  (1894) 
C3H4O3

>  <EXACT MASS>  (1894) 
88.01604398799999

>  <MW>  (1894) 
88

>  <ID>  (1894) 
JP009205

>  <CONTRIBUTOR>  (1894) 
University of Tokyo Team, {Faculty of Engineering, University of Tokyo

>  <COMMENT>  (1894) 
SMILES=CC(=O)C(O)=O
InChI=InChI=1S/C3H4O3/c1-2(4)3(5)6/h1H3,(H,5,6)
computed SMILES=O=C(O)C(=O)C
accession=JP009205
date=2016.01.19 (Created 2008.10.21, modified 2011.05.06)
author=SODA AROMATIC CO., LTD.
license=CC BY-NC-SA
exact mass=88.01604
ionization energy=70 eV
ion type=[M]+*
computed spectral entropy=1.5274445676336597
computed normalized entropy=0.595506715635638
SPLASH=splash10-0006-9000000000-a2cf85a5e1d2379d26df
submitter=submitter = University of Tokyo Team (Faculty of Engineering, University of Tokyo)
MoNA Rating=3.75

>  <NUM PEAKS>  (1894) 
13

>  <MASS SPECTRAL PEAKS>  (1894) 
13 1.16
14 4.1
15 17.16
26 1.42
28 2.25
29 6.12
41 2.49
42 9.65
43 99.99
44 6
45 16.27
56 1.15
88 1.39

>  <PREDICTED SPECTRUM>  (1894) 
14 77
15 120
16 46
17 48
18 56
19 34
25 28
26 90
27 215
28 131
29 145
31 86
36 18
37 60
38 26
39 113
40 71
41 166
42 276
43 999
44 347
45 465
46 103
69 56
70 99
71 32
73 121
88 205
89 28

$$$$

     RDKit          2D

 10  9  0  0  0  0  0  0  0  0999 V2000
    1.6238    3.9375    0.0000 C   0  0  0  0  0  0  0  0  0  0  0  0
   -6.1704    3.9375    0.0000 C   0  0  0  0  0  0  0  0  0  0  0  0
    0.3248    4.6875    0.0000 C   0  0  0  0  0  0  0  0  0  0  0  0
   -4.8714    4.6875    0.0000 C   0  0  0  0  0  0  0  0  0  0  0  0
   -0.9743    3.9375    0.0000 C   0  0  0  0  0  0  0  0  0  0  0  0
   -2.2733    4.6875    0.0000 C   0  0  0  0  0  0  0  0  0  0  0  0
   -3.5724    3.9375    0.0000 C   0  0  0  0  0  0  0  0  0  0  0  0
   -3.5724    2.4375    0.0000 C   0  0  0  0  0  0  0  0  0  0  0  0
   -2.2733    1.6875    0.0000 O   0  0  0  0  0  0  0  0  0  0  0  0
   -4.8714    1.6875    0.0000 O   0  0  0  0  0  0  0  0  0  0  0  0
  3  1  1  0
  4  2  1  0
  5  3  1  0
  6  5  1  0
  7  4  1  0
  7  6  1  0
  8  7  1  0
  9  8  2  0
 10  8  1  0
M  END
>  <NAME>  (1895) 
2-ETHYLHEXANOIC ACID

>  <SYNONYMS>  (1895) 


>  <SPECTRUM TYPE>  (1895) 
MS1

>  <INSTRUMENT TYPE>  (1895) 
EI-B

>  <INSTRUMENT>  (1895) 
HITACHI M-80B

>  <ION MODE>  (1895) 
P

>  <INCHIKEY>  (1895) 
OBETXYAYXDNJHR-UHFFFAOYSA-N

>  <FORMULA>  (1895) 
C8H16O2

>  <EXACT MASS>  (1895) 
144.115029752

>  <MW>  (1895) 
144

>  <ID>  (1895) 
JP009204

>  <CONTRIBUTOR>  (1895) 
University of Tokyo Team, {Faculty of Engineering, University of Tokyo

>  <COMMENT>  (1895) 
SMILES=CCCCC(CC)C(O)=O
InChI=InChI=1S/C8H16O2/c1-3-5-6-7(4-2)8(9)10/h7H,3-6H2,1-2H3,(H,9,10)
computed SMILES=O=C(O)C(CC)CCCC
accession=JP009204
date=2016.01.19 (Created 2008.10.21, modified 2011.05.06)
author=SODA AROMATIC CO., LTD.
license=CC BY-NC-SA
exact mass=144.11503
ionization energy=70 eV
ion type=[M]+*
computed spectral entropy=2.7826940841155854
computed normalized entropy=0.7595597816827651
SPLASH=splash10-0079-9000000000-ad0258cbd5d18520beb9
submitter=submitter = University of Tokyo Team (Faculty of Engineering, University of Tokyo)
MoNA Rating=3.75

>  <NUM PEAKS>  (1895) 
39

>  <MASS SPECTRAL PEAKS>  (1895) 
15 1.59
26 1.8
27 32.5
28 2.52
29 33.8
31 1.81
39 20.73
40 2.64
41 46.45
42 6.34
43 21.91
45 12.04
51 1.18
53 3.42
54 1.14
55 20.53
56 4.25
57 32.23
58 1.32
59 2.32
60 1.95
67 1.17
68 1.18
69 5.82
70 2.8
71 1.09
73 96.53
74 4.19
83 1.61
86 1.17
87 19.69
88 99.99
89 3.87
97 1.04
101 16.15
102 1.06
115 8.42
116 14.16
117 1.02

>  <PREDICTED SPECTRUM>  (1895) 
14 28
15 61
26 87
27 388
28 156
29 467
31 73
37 7
38 42
39 311
40 111
41 730
42 367
43 586
44 201
45 495
46 91
49 13
50 91
51 139
52 104
53 277
54 173
55 632
56 362
57 745
58 214
59 228
60 327
61 87
66 0
67 130
68 95
69 426
70 257
71 195
72 35
73 999
74 326
75 10
79 30
81 126
82 3
83 340
84 27
86 32
87 416
88 876
89 274
90 66
91 9
97 82
99 389
100 66
101 639
102 165
113 7
115 238
116 86
144 124
145 22

$$$$

     RDKit          2D

 13 12  0  0  0  0  0  0  0  0999 V2000
    3.5724    6.5625    0.0000 C   0  0  0  0  0  0  0  0  0  0  0  0
    2.2733    7.3125    0.0000 C   0  0  0  0  0  0  0  0  0  0  0  0
    0.9743    6.5625    0.0000 C   0  0  0  0  0  0  0  0  0  0  0  0
   -0.3248    7.3125    0.0000 C   0  0  0  0  0  0  0  0  0  0  0  0
   -1.6238    6.5625    0.0000 C   0  0  0  0  0  0  0  0  0  0  0  0
   -2.9228    7.3125    0.0000 C   0  0  0  0  0  0  0  0  0  0  0  0
   -4.2219    6.5625    0.0000 C   0  0  0  0  0  0  0  0  0  0  0  0
   -5.5209    7.3125    0.0000 C   0  0  0  0  0  0  0  0  0  0  0  0
   -6.8200    6.5625    0.0000 C   0  0  0  0  0  0  0  0  0  0  0  0
   -8.1190    7.3125    0.0000 C   0  0  0  0  0  0  0  0  0  0  0  0
   -9.4180    6.5625    0.0000 C   0  0  0  0  0  0  0  0  0  0  0  0
   -9.4180    5.0625    0.0000 O   0  0  0  0  0  0  0  0  0  0  0  0
  -10.7171    7.3125    0.0000 O   0  0  0  0  0  0  0  0  0  0  0  0
  2  1  1  0
  3  2  1  0
  4  3  1  0
  5  4  1  0
  6  5  1  0
  7  6  1  0
  8  7  1  0
  9  8  1  0
 10  9  1  0
 11 10  1  0
 12 11  2  0
 13 11  1  0
M  END
>  <NAME>  (1896) 
UNDECANOIC ACID

>  <SYNONYMS>  (1896) 


>  <SPECTRUM TYPE>  (1896) 
MS1

>  <INSTRUMENT TYPE>  (1896) 
EI-B

>  <INSTRUMENT>  (1896) 
HITACHI M-80B

>  <ION MODE>  (1896) 
P

>  <INCHIKEY>  (1896) 
ZDPHROOEEOARMN-UHFFFAOYSA-N

>  <FORMULA>  (1896) 
C11H22O2

>  <EXACT MASS>  (1896) 
186.161979944

>  <MW>  (1896) 
186

>  <ID>  (1896) 
JP009202

>  <CONTRIBUTOR>  (1896) 
University of Tokyo Team, {Faculty of Engineering, University of Tokyo

>  <COMMENT>  (1896) 
SMILES=CCCCCCCCCCC(O)=O
InChI=InChI=1S/C11H22O2/c1-2-3-4-5-6-7-8-9-10-11(12)13/h2-10H2,1H3,(H,12,13)
computed SMILES=O=C(O)CCCCCCCCCC
accession=JP009202
date=2016.01.19 (Created 2008.10.21, modified 2011.05.06)
author=SODA AROMATIC CO., LTD.
license=CC BY-NC-SA
exact mass=186.16198
ionization energy=70 eV
ion type=[M]+*
computed spectral entropy=3.1724717352349296
computed normalized entropy=0.7990525141000521
SPLASH=splash10-0706-9000000000-d7f6a00a2bcfd58539f5
submitter=submitter = University of Tokyo Team (Faculty of Engineering, University of Tokyo)
MoNA Rating=3.75

>  <NUM PEAKS>  (1896) 
53

>  <MASS SPECTRAL PEAKS>  (1896) 
15 1.05
26 1.22
27 33.2
28 4.37
29 46.33
30 1.02
31 2.05
39 20.36
40 2.59
41 76.89
42 16.45
43 69.96
44 1.48
45 12.93
53 3.53
54 3.25
55 48.08
56 11.69
57 35.42
58 1.28
59 3.29
60 99.99
61 15.71
67 3.12
68 2.33
69 20.75
70 6.77
71 28.85
72 1.4
73 90.02
74 7.38
81 1.73
82 2.29
83 10.33
84 7.63
85 16
86 1.01
87 13.35
88 1.44
96 1.1
97 6.6
98 3.84
101 5.74
111 1.06
115 6.58
124 2.15
126 2.91
127 1.25
129 15.32
130 1.23
143 12.16
157 2.03
186 6

>  <PREDICTED SPECTRUM>  (1896) 
14 11
15 30
16 8
17 14
18 50
25 4
26 94
27 423
28 199
29 475
30 69
31 138
32 19
33 0
34 11
36 2
37 26
38 66
39 418
40 187
41 904
42 551
43 999
44 207
45 362
46 128
47 93
49 21
50 55
51 111
52 76
53 222
54 282
55 865
56 572
57 679
58 143
59 247
60 852
61 508
62 68
63 87
64 7
65 107
66 65
67 267
68 271
69 621
70 435
71 457
72 180
73 911
74 195
75 78
76 74
77 86
78 56
79 86
80 66
81 214
82 277
83 570
84 468
85 304
86 138
87 367
88 220
89 161
91 58
92 53
93 102
94 79
95 222
96 244
97 373
98 382
99 99
100 79
101 286
102 150
103 93
107 142
108 139
109 164
110 97
111 296
112 99
113 77
114 62
115 210
116 150
117 66
118 2
121 72
122 16
123 45
124 126
125 166
126 182
127 304
128 111
129 356
130 117
132 2
138 32
139 119
143 236
144 82
145 138
146 2
150 17
157 158
158 69
168 114
169 78
186 97
187 4

$$$$

     RDKit          2D

 12 11  0  0  0  0  0  0  0  0999 V2000
    3.2476    5.6250    0.0000 C   0  0  0  0  0  0  0  0  0  0  0  0
    1.9486    6.3750    0.0000 C   0  0  0  0  0  0  0  0  0  0  0  0
    0.6495    5.6250    0.0000 C   0  0  0  0  0  0  0  0  0  0  0  0
   -0.6495    6.3750    0.0000 C   0  0  0  0  0  0  0  0  0  0  0  0
   -1.9486    5.6250    0.0000 C   0  0  0  0  0  0  0  0  0  0  0  0
   -3.2476    6.3750    0.0000 C   0  0  0  0  0  0  0  0  0  0  0  0
   -4.5466    5.6250    0.0000 C   0  0  0  0  0  0  0  0  0  0  0  0
   -5.8457    6.3750    0.0000 C   0  0  0  0  0  0  0  0  0  0  0  0
   -7.1447    5.6250    0.0000 C   0  0  0  0  0  0  0  0  0  0  0  0
   -8.4437    6.3750    0.0000 C   0  0  0  0  0  0  0  0  0  0  0  0
   -8.4437    7.8750    0.0000 O   0  0  0  0  0  0  0  0  0  0  0  0
   -9.7428    5.6250    0.0000 O   0  0  0  0  0  0  0  0  0  0  0  0
  2  1  1  0
  3  2  1  0
  4  3  1  0
  5  4  1  0
  6  5  1  0
  7  6  1  0
  8  7  1  0
  9  8  1  0
 10  9  1  0
 11 10  2  0
 12 10  1  0
M  END
>  <NAME>  (1897) 
DECANOIC ACID

>  <SYNONYMS>  (1897) 


>  <SPECTRUM TYPE>  (1897) 
MS1

>  <INSTRUMENT TYPE>  (1897) 
EI-B

>  <INSTRUMENT>  (1897) 
HITACHI M-80B

>  <ION MODE>  (1897) 
P

>  <INCHIKEY>  (1897) 
GHVNFZFCNZKVNT-UHFFFAOYSA-N

>  <FORMULA>  (1897) 
C10H20O2

>  <EXACT MASS>  (1897) 
172.14632988

>  <MW>  (1897) 
172

>  <ID>  (1897) 
JP009200

>  <CONTRIBUTOR>  (1897) 
University of Tokyo Team, {Faculty of Engineering, University of Tokyo

>  <COMMENT>  (1897) 
SMILES=CCCCCCCCCC(O)=O
InChI=InChI=1S/C10H20O2/c1-2-3-4-5-6-7-8-9-10(11)12/h2-9H2,1H3,(H,11,12)
computed SMILES=O=C(O)CCCCCCCCC
accession=JP009200
date=2016.01.19 (Created 2008.10.21, modified 2011.05.06)
author=SODA AROMATIC CO., LTD.
license=CC BY-NC-SA
exact mass=172.14633
ionization energy=70 eV
ion type=[M]+*
computed spectral entropy=3.133061476601396
computed normalized entropy=0.8137510040419837
SPLASH=splash10-076u-9000000000-96a2e9e00e464db3c086
submitter=submitter = University of Tokyo Team (Faculty of Engineering, University of Tokyo)
MoNA Rating=3.75

>  <NUM PEAKS>  (1897) 
47

>  <MASS SPECTRAL PEAKS>  (1897) 
26 1.07
27 26.69
28 2.43
29 34.77
31 1.59
39 18.15
40 2.83
41 59.41
42 13.4
43 48.27
44 1.24
45 12.72
53 5.07
54 3.18
55 39.19
56 9.35
57 41.47
58 1.64
59 3.58
60 99.99
61 15.44
67 3.09
68 2.26
69 18.25
70 7.7
71 32.42
72 1.48
73 87.57
74 7.38
81 1.62
82 1.77
83 10.46
84 6.09
87 12.63
88 1.05
97 3.45
98 3.53
101 4.65
110 4.16
111 1.03
112 7.49
113 2.16
115 7.51
129 29.66
130 1.88
143 4.27
172 6.04

>  <PREDICTED SPECTRUM>  (1897) 
14 19
15 42
16 9
17 19
18 56
25 6
26 107
27 475
28 216
29 507
30 63
31 139
32 23
33 4
34 10
36 25
37 37
38 83
39 465
40 207
41 927
42 596
43 999
44 195
45 394
46 128
47 107
49 36
50 76
51 139
52 83
53 230
54 274
55 855
56 584
57 633
58 130
59 264
60 917
61 523
62 103
63 74
64 15
65 103
66 70
67 249
68 256
69 598
70 423
71 437
72 212
73 939
74 242
75 159
76 56
77 80
78 64
79 139
80 42
81 190
82 256
83 530
84 410
85 107
86 130
87 301
88 149
89 101
93 71
94 108
95 170
96 207
97 363
98 243
99 79
100 35
101 285
102 229
103 86
107 26
109 78
110 116
111 235
112 210
113 334
114 148
115 301
116 154
117 10
118 2
125 158
129 335
130 69
131 123
136 6
143 174
144 94
145 3
154 93
155 52
172 76

$$$$

     RDKit          2D

 12 11  0  0  0  0  0  0  0  0999 V2000
    3.2476    5.6250    0.0000 C   0  0  0  0  0  0  0  0  0  0  0  0
    1.9486    6.3750    0.0000 C   0  0  0  0  0  0  0  0  0  0  0  0
    0.6495    5.6250    0.0000 C   0  0  0  0  0  0  0  0  0  0  0  0
   -0.6495    6.3750    0.0000 C   0  0  0  0  0  0  0  0  0  0  0  0
   -1.9486    5.6250    0.0000 C   0  0  0  0  0  0  0  0  0  0  0  0
   -3.2476    6.3750    0.0000 C   0  0  0  0  0  0  0  0  0  0  0  0
   -4.5466    5.6250    0.0000 C   0  0  0  0  0  0  0  0  0  0  0  0
   -5.8457    6.3750    0.0000 C   0  0  0  0  0  0  0  0  0  0  0  0
   -7.1447    5.6250    0.0000 C   0  0  0  0  0  0  0  0  0  0  0  0
   -8.4437    6.3750    0.0000 C   0  0  0  0  0  0  0  0  0  0  0  0
   -8.4437    7.8750    0.0000 O   0  0  0  0  0  0  0  0  0  0  0  0
   -9.7428    5.6250    0.0000 O   0  0  0  0  0  0  0  0  0  0  0  0
  2  1  1  0
  3  2  1  0
  4  3  1  0
  5  4  1  0
  6  5  1  0
  7  6  1  0
  7  8  2  0
  9  8  1  0
 10  9  1  0
 11 10  2  0
 12 10  1  0
M  END
>  <NAME>  (1898) 
TRANS-3-DECENOIC ACID

>  <SYNONYMS>  (1898) 


>  <SPECTRUM TYPE>  (1898) 
MS1

>  <INSTRUMENT TYPE>  (1898) 
EI-B

>  <INSTRUMENT>  (1898) 
HITACHI M-80B

>  <ION MODE>  (1898) 
P

>  <INCHIKEY>  (1898) 
CPVUNKGURQKKKX-BQYQJAHWSA-N

>  <FORMULA>  (1898) 
C10H18O2

>  <EXACT MASS>  (1898) 
170.130679816

>  <MW>  (1898) 
170

>  <ID>  (1898) 
JP009199

>  <CONTRIBUTOR>  (1898) 
University of Tokyo Team, {Faculty of Engineering, University of Tokyo

>  <COMMENT>  (1898) 
SMILES=CCCCCCC=CCC(O)=O
InChI=InChI=1S/C10H18O2/c1-2-3-4-5-6-7-8-9-10(11)12/h7-8H,2-6,9H2,1H3,(H,11,12)/b8-7+
computed SMILES=O=C(O)CC=CCCCCCC
accession=JP009199
date=2016.01.19 (Created 2008.10.21, modified 2011.05.06)
author=SODA AROMATIC CO., LTD.
license=CC BY-NC-SA
exact mass=170.13068
ionization energy=70 eV
ion type=[M]+*
computed spectral entropy=3.6224995041801877
computed normalized entropy=0.8526547160337155
SPLASH=splash10-052f-9100000000-da4cb32c01c3c46f868c
submitter=submitter = University of Tokyo Team (Faculty of Engineering, University of Tokyo)
MoNA Rating=3.75

>  <NUM PEAKS>  (1898) 
70

>  <MASS SPECTRAL PEAKS>  (1898) 
14 1.22
15 2.03
26 2.48
27 31.99
28 3.1
29 47.14
30 1.32
31 2.68
39 28.01
40 5.6
41 86.18
42 30.67
43 99.99
44 3.86
45 17.59
50 1.68
51 2.74
52 1.78
53 14.18
54 34.83
55 89.53
56 38.67
57 22.7
58 7.92
59 4.15
60 12.56
61 1.97
65 2.92
66 3.28
67 23.97
68 24.24
69 44.8
70 19.86
71 16.3
73 12.37
74 1.46
77 2.41
79 4.36
80 1.58
81 21.56
82 14.08
83 13.82
84 29.12
85 5.35
86 2.58
87 10.51
88 1.27
94 1.91
95 9.95
96 13.9
97 9.42
98 5.16
99 5.8
100 16.27
101 9.78
108 6.77
109 5.37
110 27.35
111 8.72
112 1.04
113 3.74
114 7.79
115 2.41
123 9.42
124 3.64
127 3.33
134 2.85
152 12.71
153 1.87
170 2.63

>  <PREDICTED SPECTRUM>  (1898) 
14 23
15 61
16 13
17 21
18 44
19 0
25 7
26 143
27 578
28 266
29 606
30 81
31 142
32 15
34 1
37 34
38 94
39 540
40 233
41 999
42 562
43 889
44 222
45 279
46 38
47 21
50 117
51 189
52 180
53 377
54 598
55 994
56 703
57 540
58 202
59 219
60 459
61 192
62 67
63 107
64 25
65 184
66 193
67 567
68 537
69 727
70 551
71 409
72 133
73 491
74 143
75 40
76 33
77 165
78 91
79 220
80 174
81 487
82 542
83 521
84 489
85 321
86 200
87 341
88 132
91 126
92 73
93 159
94 153
95 397
96 425
97 374
98 256
99 344
100 431
101 263
102 81
105 66
106 47
107 125
108 289
109 348
110 480
111 320
112 88
113 215
114 261
115 137
116 37
119 23
123 237
124 142
125 24
126 88
127 196
128 113
129 56
134 178
137 134
138 38
141 111
142 69
151 36
152 460
153 152
154 47
155 48
170 101
171 5

$$$$

     RDKit          2D

 12 11  0  0  0  0  0  0  0  0999 V2000
    3.2476    5.6250    0.0000 C   0  0  0  0  0  0  0  0  0  0  0  0
    1.9486    6.3750    0.0000 C   0  0  0  0  0  0  0  0  0  0  0  0
    0.6495    5.6250    0.0000 C   0  0  0  0  0  0  0  0  0  0  0  0
   -0.6495    6.3750    0.0000 C   0  0  0  0  0  0  0  0  0  0  0  0
   -1.9486    5.6250    0.0000 C   0  0  0  0  0  0  0  0  0  0  0  0
   -3.2476    6.3750    0.0000 C   0  0  0  0  0  0  0  0  0  0  0  0
   -4.5466    5.6250    0.0000 C   0  0  0  0  0  0  0  0  0  0  0  0
   -5.8457    6.3750    0.0000 C   0  0  0  0  0  0  0  0  0  0  0  0
   -7.1447    5.6250    0.0000 C   0  0  0  0  0  0  0  0  0  0  0  0
   -8.4437    6.3750    0.0000 C   0  0  0  0  0  0  0  0  0  0  0  0
   -8.4437    7.8750    0.0000 O   0  0  0  0  0  0  0  0  0  0  0  0
   -9.7428    5.6250    0.0000 O   0  0  0  0  0  0  0  0  0  0  0  0
  2  1  1  0
  3  2  1  0
  4  3  1  0
  5  4  1  0
  6  5  1  0
  7  6  1  0
  8  7  1  0
  8  9  2  0
 10  9  1  0
 11 10  2  0
 12 10  1  0
M  END
>  <NAME>  (1899) 
TRANS-2-DECENOIC ACID

>  <SYNONYMS>  (1899) 


>  <SPECTRUM TYPE>  (1899) 
MS1

>  <INSTRUMENT TYPE>  (1899) 
EI-B

>  <INSTRUMENT>  (1899) 
HITACHI M-80B

>  <ION MODE>  (1899) 
P

>  <INCHIKEY>  (1899) 
WXBXVVIUZANZAU-CMDGGOBGSA-N

>  <FORMULA>  (1899) 
C10H18O2

>  <EXACT MASS>  (1899) 
170.130679816

>  <MW>  (1899) 
170

>  <ID>  (1899) 
JP009198

>  <CONTRIBUTOR>  (1899) 
University of Tokyo Team, {Faculty of Engineering, University of Tokyo

>  <COMMENT>  (1899) 
SMILES=CCCCCCCC=CC(O)=O
InChI=InChI=1S/C10H18O2/c1-2-3-4-5-6-7-8-9-10(11)12/h8-9H,2-7H2,1H3,(H,11,12)/b9-8+
computed SMILES=O=C(O)C=CCCCCCCC
accession=JP009198
author=SODA AROMATIC CO., LTD.
date=2016.01.19 (Created 2008.10.21, modified 2011.05.06)
license=CC BY-NC-SA
exact mass=170.13068
ionization energy=70 eV
ion type=[M]+*
computed spectral entropy=3.4774032564980293
computed normalized entropy=0.821283841755604
SPLASH=splash10-0006-9000000000-b161a74b3c916296d9a6
submitter=submitter = University of Tokyo Team (Faculty of Engineering, University of Tokyo)
MoNA Rating=3.75

>  <NUM PEAKS>  (1899) 
69

>  <MASS SPECTRAL PEAKS>  (1899) 
15 1.53
26 2.51
27 42.29
28 2.88
29 56.27
31 2.59
38 1.65
39 39.17
40 6.37
41 81.14
42 21.11
43 99.99
44 2.16
45 13.31
50 1.06
51 2.92
52 1.81
53 11.28
54 8.99
55 45.11
56 42.67
57 14.85
58 1.95
59 1.53
60 4.27
65 2.06
66 1.78
67 9.55
68 15.93
69 29.95
70 15.76
71 4.77
73 56.25
74 2.57
77 1.66
79 2.64
80 1.18
81 11.71
82 6.13
83 6.58
84 19.86
85 3.84
86 17.22
87 6.69
88 1.28
89 1.48
94 1.06
95 5.05
96 6.78
97 5.82
98 13.16
99 10.85
100 5.87
101 4.14
102 2.49
108 3.96
109 3.48
110 12.78
111 3.89
113 4.73
114 5.53
115 1.62
123 5.92
124 2.24
127 2.99
134 1.27
141 1.09
152 4.56
153 1.36

>  <PREDICTED SPECTRUM>  (1899) 
14 26
15 71
16 9
17 21
18 52
19 6
25 22
26 173
27 588
28 274
29 601
30 84
31 118
32 10
35 17
36 34
37 74
38 142
39 603
40 257
41 999
42 590
43 846
44 275
45 376
46 84
47 45
49 23
50 146
51 208
52 193
53 401
54 533
55 923
56 602
57 546
58 241
59 170
60 424
61 209
62 99
63 123
64 50
65 190
66 176
67 469
68 468
69 608
70 515
71 340
72 192
73 690
74 242
75 44
76 67
77 169
78 91
79 243
80 207
81 436
82 459
83 433
84 431
85 272
86 232
87 325
88 205
89 54
91 161
92 69
93 141
94 113
95 338
96 366
97 372
98 329
99 444
100 349
101 338
102 116
105 86
106 27
107 74
108 226
109 308
110 340
111 228
112 34
113 238
114 291
115 108
116 27
119 45
121 12
122 69
123 217
124 204
125 131
126 90
127 232
128 135
129 79
134 112
135 16
137 77
138 37
141 88
142 48
152 338
153 131
154 30
155 5
170 67
171 1

$$$$

     RDKit          2D

 11 10  0  0  0  0  0  0  0  0999 V2000
    2.9228    5.4375    0.0000 C   0  0  0  0  0  0  0  0  0  0  0  0
    1.6238    6.1875    0.0000 C   0  0  0  0  0  0  0  0  0  0  0  0
    0.3248    5.4375    0.0000 C   0  0  0  0  0  0  0  0  0  0  0  0
   -0.9743    6.1875    0.0000 C   0  0  0  0  0  0  0  0  0  0  0  0
   -2.2733    5.4375    0.0000 C   0  0  0  0  0  0  0  0  0  0  0  0
   -3.5724    6.1875    0.0000 C   0  0  0  0  0  0  0  0  0  0  0  0
   -4.8714    5.4375    0.0000 C   0  0  0  0  0  0  0  0  0  0  0  0
   -6.1704    6.1875    0.0000 C   0  0  0  0  0  0  0  0  0  0  0  0
   -7.4695    5.4375    0.0000 C   0  0  0  0  0  0  0  0  0  0  0  0
   -7.4695    3.9375    0.0000 O   0  0  0  0  0  0  0  0  0  0  0  0
   -8.7685    6.1875    0.0000 O   0  0  0  0  0  0  0  0  0  0  0  0
  2  1  1  0
  3  2  1  0
  4  3  1  0
  5  4  1  0
  6  5  1  0
  7  6  1  0
  8  7  1  0
  9  8  1  0
 10  9  2  0
 11  9  1  0
M  END
>  <NAME>  (1900) 
NONANOIC ACID

>  <SYNONYMS>  (1900) 


>  <SPECTRUM TYPE>  (1900) 
MS1

>  <INSTRUMENT TYPE>  (1900) 
EI-B

>  <INSTRUMENT>  (1900) 
HITACHI M-80B

>  <ION MODE>  (1900) 
P

>  <INCHIKEY>  (1900) 
FBUKVWPVBMHYJY-UHFFFAOYSA-N

>  <FORMULA>  (1900) 
C9H18O2

>  <EXACT MASS>  (1900) 
158.130679816

>  <MW>  (1900) 
158

>  <ID>  (1900) 
JP009197

>  <CONTRIBUTOR>  (1900) 
University of Tokyo Team, {Faculty of Engineering, University of Tokyo

>  <COMMENT>  (1900) 
SMILES=CCCCCCCCC(O)=O
InChI=InChI=1S/C9H18O2/c1-2-3-4-5-6-7-8-9(10)11/h2-8H2,1H3,(H,10,11)
computed SMILES=O=C(O)CCCCCCCC
accession=JP009197
date=2016.01.19 (Created 2008.10.21, modified 2011.05.06)
author=SODA AROMATIC CO., LTD.
license=CC BY-NC-SA
exact mass=158.13068
ionization energy=70 eV
ion type=[M]+*
computed spectral entropy=3.0635319406992383
computed normalized entropy=0.7913647294643492
SPLASH=splash10-08ml-9000000000-f9b45b786372be8b75d6
submitter=submitter = University of Tokyo Team (Faculty of Engineering, University of Tokyo)
MoNA Rating=3.75

>  <NUM PEAKS>  (1900) 
48

>  <MASS SPECTRAL PEAKS>  (1900) 
14 1.19
27 21.56
28 2.48
29 24.31
30 1.48
31 1.56
39 12.15
40 1.74
41 42.02
42 8.78
43 31.52
44 1.27
45 15.73
51 1.26
53 2.92
54 2.14
55 28.92
56 8.46
57 49.22
58 2.74
59 3.47
60 99.99
61 10.87
67 2.11
68 1.76
69 12.78
70 4.93
71 2.18
73 74.92
74 5.45
81 1.94
83 4.72
84 3.96
85 1.14
87 8.8
88 1.01
89 1.08
96 3.43
97 2.57
98 11.75
99 3.71
101 4.81
102 1.29
115 18.45
116 1.96
129 14.14
130 1.17
158 4.18

>  <PREDICTED SPECTRUM>  (1900) 
14 29
15 52
16 10
17 17
18 59
19 1
25 6
26 123
27 520
28 227
29 527
30 20
31 151
32 22
33 7
34 18
35 7
36 26
37 47
38 94
39 510
40 223
41 957
42 637
43 999
44 196
45 402
46 149
47 119
48 6
49 40
50 92
51 136
52 91
53 238
54 264
55 848
56 578
57 592
58 147
59 322
60 962
61 526
62 85
63 46
64 18
65 125
66 61
67 234
68 231
69 557
70 399
71 303
72 232
73 943
74 199
75 122
76 6
77 48
78 40
79 111
80 76
81 139
82 240
83 493
84 258
85 73
86 83
87 286
88 272
89 98
90 13
93 22
94 5
95 98
96 184
97 321
98 286
99 380
100 144
101 388
102 213
103 38
111 167
115 294
116 70
117 127
122 5
125 18
129 254
130 105
131 8
140 90
141 19
158 45

$$$$

     RDKit          2D

 11 10  0  0  0  0  0  0  0  0999 V2000
    2.9228    5.4375    0.0000 C   0  0  0  0  0  0  0  0  0  0  0  0
    1.6238    6.1875    0.0000 C   0  0  0  0  0  0  0  0  0  0  0  0
    0.3248    5.4375    0.0000 C   0  0  0  0  0  0  0  0  0  0  0  0
   -0.9743    6.1875    0.0000 C   0  0  0  0  0  0  0  0  0  0  0  0
   -2.2733    5.4375    0.0000 C   0  0  0  0  0  0  0  0  0  0  0  0
   -3.5724    6.1875    0.0000 C   0  0  0  0  0  0  0  0  0  0  0  0
   -4.8714    5.4375    0.0000 C   0  0  0  0  0  0  0  0  0  0  0  0
   -6.1704    6.1875    0.0000 C   0  0  0  0  0  0  0  0  0  0  0  0
   -7.4695    5.4375    0.0000 C   0  0  0  0  0  0  0  0  0  0  0  0
   -7.4695    3.9375    0.0000 O   0  0  0  0  0  0  0  0  0  0  0  0
   -8.7685    6.1875    0.0000 O   0  0  0  0  0  0  0  0  0  0  0  0
  2  1  1  0
  3  2  1  0
  4  3  1  0
  5  4  1  0
  6  5  1  0
  7  6  1  0
  7  8  2  0
  9  8  1  0
 10  9  2  0
 11  9  1  0
M  END
>  <NAME>  (1901) 
TRANS-2-NONENOIC ACID

>  <SYNONYMS>  (1901) 


>  <SPECTRUM TYPE>  (1901) 
MS1

>  <INSTRUMENT TYPE>  (1901) 
EI-B

>  <INSTRUMENT>  (1901) 
HITACHI M-80B

>  <ION MODE>  (1901) 
P

>  <INCHIKEY>  (1901) 
ADLXTJMPCFOTOO-BQYQJAHWSA-N

>  <FORMULA>  (1901) 
C9H16O2

>  <EXACT MASS>  (1901) 
156.115029752

>  <MW>  (1901) 
156

>  <ID>  (1901) 
JP009196

>  <CONTRIBUTOR>  (1901) 
University of Tokyo Team, {Faculty of Engineering, University of Tokyo

>  <COMMENT>  (1901) 
SMILES=CCCCCCC=CC(O)=O
InChI=InChI=1S/C9H16O2/c1-2-3-4-5-6-7-8-9(10)11/h7-8H,2-6H2,1H3,(H,10,11)/b8-7+
computed SMILES=O=C(O)C=CCCCCCC
accession=JP009196
date=2016.01.19 (Created 2008.10.21, modified 2011.05.06)
author=SODA AROMATIC CO., LTD.
license=CC BY-NC-SA
exact mass=156.11503
ionization energy=70 eV
ion type=[M]+*
computed spectral entropy=3.4700854897596454
computed normalized entropy=0.8223910778745258
SPLASH=splash10-002f-9000000000-01a8f71e6d0af8fd1575
submitter=submitter = University of Tokyo Team (Faculty of Engineering, University of Tokyo)
MoNA Rating=3.75

>  <NUM PEAKS>  (1901) 
68

>  <MASS SPECTRAL PEAKS>  (1901) 
14 1.09
15 2.58
18 5.12
26 3.67
27 59.07
28 5.24
29 68.63
30 1.9
31 3.6
32 1.04
38 2.47
39 54.98
40 8.83
41 91.29
42 38.49
43 99.99
44 3.93
45 13.88
50 1.88
51 4.22
52 2.94
53 14.55
54 12.13
55 61.08
56 39.72
57 10.1
58 3.03
59 2.1
60 7.27
63 1.13
65 2.71
66 2.25
67 12.59
68 16.92
69 19.73
70 14.14
71 7.91
72 1.01
73 68.49
74 3.22
77 1.78
79 2.46
80 1.5
81 13.59
82 4.91
83 4.9
84 29.79
85 3.65
86 23.87
87 8.73
88 3.33
94 6.04
95 5.49
96 26.03
97 8.64
98 1.32
99 15.24
100 6.54
101 4.8
109 5.12
110 3.56
113 4.86
114 4.95
115 1.44
123 2.31
127 3.28
138 10.02
139 2.28

>  <PREDICTED SPECTRUM>  (1901) 
14 34
15 86
16 10
17 18
18 51
19 6
25 25
26 188
27 620
28 273
29 599
30 104
31 111
32 5
34 0
35 33
36 42
37 95
38 173
39 661
40 276
41 999
42 606
43 806
44 278
45 385
46 93
47 26
49 34
50 181
51 257
52 233
53 434
54 587
55 904
56 612
57 513
58 253
59 148
60 407
61 202
62 89
63 137
64 61
65 208
66 201
67 521
68 531
69 575
70 467
71 318
72 183
73 670
74 274
75 87
76 15
77 190
78 109
79 231
80 174
81 467
82 492
83 373
84 344
85 302
86 226
87 304
88 101
89 25
91 143
92 101
93 113
94 229
95 355
96 445
97 366
98 134
99 425
100 351
101 282
102 31
105 50
109 288
110 220
111 128
112 89
113 238
114 220
115 27
120 107
121 3
123 86
124 43
127 147
128 113
129 10
138 402
139 169
140 33
141 22
156 68
157 8

$$$$

     RDKit          2D

 10  9  0  0  0  0  0  0  0  0999 V2000
    2.5981    4.5000    0.0000 C   0  0  0  0  0  0  0  0  0  0  0  0
    1.2990    5.2500    0.0000 C   0  0  0  0  0  0  0  0  0  0  0  0
    0.0000    4.5000    0.0000 C   0  0  0  0  0  0  0  0  0  0  0  0
   -1.2990    5.2500    0.0000 C   0  0  0  0  0  0  0  0  0  0  0  0
   -2.5981    4.5000    0.0000 C   0  0  0  0  0  0  0  0  0  0  0  0
   -3.8971    5.2500    0.0000 C   0  0  0  0  0  0  0  0  0  0  0  0
   -5.1962    4.5000    0.0000 C   0  0  0  0  0  0  0  0  0  0  0  0
   -6.4952    5.2500    0.0000 C   0  0  0  0  0  0  0  0  0  0  0  0
   -6.4952    6.7500    0.0000 O   0  0  0  0  0  0  0  0  0  0  0  0
   -7.7942    4.5000    0.0000 O   0  0  0  0  0  0  0  0  0  0  0  0
  2  1  1  0
  3  2  1  0
  4  3  1  0
  5  4  1  0
  6  5  1  0
  7  6  1  0
  8  7  1  0
  9  8  2  0
 10  8  1  0
M  END
>  <NAME>  (1902) 
OCTANOIC ACID

>  <SYNONYMS>  (1902) 


>  <SPECTRUM TYPE>  (1902) 
MS1

>  <INSTRUMENT TYPE>  (1902) 
EI-B

>  <INSTRUMENT>  (1902) 
HITACHI M-80B

>  <ION MODE>  (1902) 
P

>  <INCHIKEY>  (1902) 
WWZKQHOCKIZLMA-UHFFFAOYSA-N

>  <FORMULA>  (1902) 
C8H16O2

>  <EXACT MASS>  (1902) 
144.115029752

>  <MW>  (1902) 
144

>  <ID>  (1902) 
JP009195

>  <CONTRIBUTOR>  (1902) 
University of Tokyo Team, {Faculty of Engineering, University of Tokyo

>  <COMMENT>  (1902) 
SMILES=CCCCCCCC(O)=O
InChI=InChI=1S/C8H16O2/c1-2-3-4-5-6-7-8(9)10/h2-7H2,1H3,(H,9,10)
computed SMILES=O=C(O)CCCCCCC
accession=JP009195
date=2016.01.19 (Created 2008.10.21, modified 2011.05.06)
author=SODA AROMATIC CO., LTD.
license=CC BY-NC-SA
exact mass=144.11503
ionization energy=70 eV
ion type=[M]+*
computed spectral entropy=2.89766986375812
computed normalized entropy=0.7909433888793302
SPLASH=splash10-03kc-9000000000-74cfce03769b41313952
submitter=submitter = University of Tokyo Team (Faculty of Engineering, University of Tokyo)
MoNA Rating=3.75

>  <NUM PEAKS>  (1902) 
39

>  <MASS SPECTRAL PEAKS>  (1902) 
26 1.32
27 23.45
28 2.1
29 22.9
31 1.25
39 16.41
40 2.21
41 39.41
42 8.72
43 38.86
44 1.08
45 13.41
53 2.3
54 1.38
55 25.15
56 6.18
57 6.85
58 1.15
59 2.58
60 99.99
61 10.62
67 1.49
69 8.29
70 1.39
73 62.59
74 5.49
82 2.24
83 3.4
84 18.61
85 20.41
86 1.35
87 8.28
88 1.13
97 1.55
98 1.53
101 17.86
102 1.41
115 5.94
144 1.74

>  <PREDICTED SPECTRUM>  (1902) 
14 37
15 91
16 9
17 17
18 56
19 4
25 9
26 137
27 571
28 253
29 545
30 13
31 148
32 19
33 3
34 17
35 10
36 28
37 57
38 107
39 552
40 234
41 971
42 665
43 988
44 206
45 420
46 141
47 108
49 41
50 95
51 166
52 95
53 247
54 252
55 857
56 567
57 495
58 137
59 280
60 999
61 505
62 51
63 2
64 9
65 128
66 57
67 207
68 196
69 467
70 240
71 185
72 215
73 942
74 387
75 113
76 30
77 14
78 30
79 61
81 81
82 208
83 428
84 311
85 423
86 160
87 392
88 180
89 10
90 19
91 57
96 79
97 236
101 372
102 132
103 98
111 13
115 251
116 126
117 33
126 98
127 13
144 51

$$$$

     RDKit          2D

 10  9  0  0  0  0  0  0  0  0999 V2000
    2.5981    4.5000    0.0000 C   0  0  0  0  0  0  0  0  0  0  0  0
    1.2990    5.2500    0.0000 C   0  0  0  0  0  0  0  0  0  0  0  0
    0.0000    4.5000    0.0000 C   0  0  0  0  0  0  0  0  0  0  0  0
   -1.2990    5.2500    0.0000 C   0  0  0  0  0  0  0  0  0  0  0  0
   -2.5981    4.5000    0.0000 C   0  0  0  0  0  0  0  0  0  0  0  0
   -3.8971    5.2500    0.0000 C   0  0  0  0  0  0  0  0  0  0  0  0
   -5.1962    4.5000    0.0000 C   0  0  0  0  0  0  0  0  0  0  0  0
   -6.4952    5.2500    0.0000 C   0  0  0  0  0  0  0  0  0  0  0  0
   -6.4952    6.7500    0.0000 O   0  0  0  0  0  0  0  0  0  0  0  0
   -7.7942    4.5000    0.0000 O   0  0  0  0  0  0  0  0  0  0  0  0
  2  1  1  0
  3  2  1  0
  4  3  1  0
  5  4  1  0
  5  6  2  0
  7  6  1  0
  8  7  1  0
  9  8  2  0
 10  8  1  0
M  END
>  <NAME>  (1903) 
TRANS-3-OCTENOIC ACID

>  <SYNONYMS>  (1903) 


>  <SPECTRUM TYPE>  (1903) 
MS1

>  <INSTRUMENT TYPE>  (1903) 
EI-B

>  <INSTRUMENT>  (1903) 
HITACHI M-80B

>  <ION MODE>  (1903) 
P

>  <INCHIKEY>  (1903) 
IWPOSDLLFZKGOW-AATRIKPKSA-N

>  <FORMULA>  (1903) 
C8H14O2

>  <EXACT MASS>  (1903) 
142.099379688

>  <MW>  (1903) 
142

>  <ID>  (1903) 
JP009194

>  <CONTRIBUTOR>  (1903) 
University of Tokyo Team, {Faculty of Engineering, University of Tokyo

>  <COMMENT>  (1903) 
SMILES=CCCCC=CCC(O)=O
InChI=InChI=1S/C8H14O2/c1-2-3-4-5-6-7-8(9)10/h5-6H,2-4,7H2,1H3,(H,9,10)/b6-5+
computed SMILES=O=C(O)CC=CCCCC
accession=JP009194
date=2016.01.19 (Created 2008.10.21, modified 2011.05.06)
author=SODA AROMATIC CO., LTD.
license=CC BY-NC-SA
exact mass=142.09938
ionization energy=70 eV
ion type=[M]+*
computed spectral entropy=3.4588893256381974
computed normalized entropy=0.8414000137009247
SPLASH=splash10-054o-9000000000-c26685cdb9b9b928f340
submitter=submitter = University of Tokyo Team (Faculty of Engineering, University of Tokyo)
MoNA Rating=3.75

>  <NUM PEAKS>  (1903) 
61

>  <MASS SPECTRAL PEAKS>  (1903) 
15 2.99
17 1.03
26 3.99
27 46.11
28 7.15
29 31.77
31 3.35
38 3.85
39 41.13
40 8.46
41 99.99
42 14.72
43 51.29
44 3.74
45 22.5
50 2.83
51 6.37
52 3.79
53 15.51
54 26.21
55 90.53
56 36.59
57 25.3
58 8.5
59 2.88
60 14.53
61 3.02
63 1.03
65 3.34
66 1.75
67 35.9
68 10.68
69 12.01
70 7
71 18.98
72 1.17
73 10.8
74 3.32
77 2.88
79 3.12
80 2.23
81 10.75
82 74.69
83 23.02
84 3.07
85 2.56
86 2.95
87 11.74
91 1.92
95 5.33
96 18.41
97 4.53
99 5.68
100 13.22
101 3.53
106 1.92
109 2.16
113 4.67
124 24.51
125 3.25
142 3.73

>  <PREDICTED SPECTRUM>  (1903) 
14 46
15 116
16 28
17 32
18 73
19 9
25 23
26 180
27 624
28 295
29 573
30 130
31 244
32 39
33 11
34 12
35 20
36 0
37 87
38 163
39 673
40 282
41 999
42 558
43 746
44 271
45 402
46 52
47 40
49 33
50 206
51 296
52 248
53 461
54 682
55 890
56 548
57 583
58 264
59 196
60 517
61 230
62 90
63 158
64 41
65 255
66 265
67 686
68 394
69 383
70 373
71 459
72 158
73 441
74 66
77 229
78 159
79 260
80 247
81 628
82 796
83 607
84 195
85 245
86 211
87 304
88 41
91 80
94 43
95 411
96 435
97 172
98 151
99 245
100 345
101 175
109 124
113 166
114 105
123 46
124 558
125 168
127 102
142 141
143 11

$$$$

     RDKit          2D

 10  9  0  0  0  0  0  0  0  0999 V2000
    2.5981    4.5000    0.0000 C   0  0  0  0  0  0  0  0  0  0  0  0
    1.2990    5.2500    0.0000 C   0  0  0  0  0  0  0  0  0  0  0  0
    0.0000    4.5000    0.0000 C   0  0  0  0  0  0  0  0  0  0  0  0
   -1.2990    5.2500    0.0000 C   0  0  0  0  0  0  0  0  0  0  0  0
   -2.5981    4.5000    0.0000 C   0  0  0  0  0  0  0  0  0  0  0  0
   -3.8971    5.2500    0.0000 C   0  0  0  0  0  0  0  0  0  0  0  0
   -5.1962    4.5000    0.0000 C   0  0  0  0  0  0  0  0  0  0  0  0
   -6.4952    5.2500    0.0000 C   0  0  0  0  0  0  0  0  0  0  0  0
   -6.4952    6.7500    0.0000 O   0  0  0  0  0  0  0  0  0  0  0  0
   -7.7942    4.5000    0.0000 O   0  0  0  0  0  0  0  0  0  0  0  0
  2  1  1  0
  3  2  1  0
  4  3  1  0
  5  4  1  0
  6  5  1  0
  6  7  2  0
  8  7  1  0
  9  8  2  0
 10  8  1  0
M  END
>  <NAME>  (1904) 
TRANS-2-OCTENOIC ACID

>  <SYNONYMS>  (1904) 


>  <SPECTRUM TYPE>  (1904) 
MS1

>  <INSTRUMENT TYPE>  (1904) 
EI-B

>  <INSTRUMENT>  (1904) 
HITACHI M-80B

>  <ION MODE>  (1904) 
P

>  <INCHIKEY>  (1904) 
CWMPPVPFLSZGCY-VOTSOKGWSA-N

>  <FORMULA>  (1904) 
C8H14O2

>  <EXACT MASS>  (1904) 
142.099379688

>  <MW>  (1904) 
142

>  <ID>  (1904) 
JP009193

>  <CONTRIBUTOR>  (1904) 
University of Tokyo Team, {Faculty of Engineering, University of Tokyo

>  <COMMENT>  (1904) 
SMILES=CCCCCC=CC(O)=O
InChI=InChI=1S/C8H14O2/c1-2-3-4-5-6-7-8(9)10/h6-7H,2-5H2,1H3,(H,9,10)/b7-6+
computed SMILES=O=C(O)C=CCCCCC
accession=JP009193
date=2016.01.19 (Created 2008.10.21, modified 2011.05.06)
author=SODA AROMATIC CO., LTD.
license=CC BY-NC-SA
exact mass=142.09938
ionization energy=70 eV
ion type=[M]+*
computed spectral entropy=3.4488499427490784
computed normalized entropy=0.8173583706265886
SPLASH=splash10-0096-9000000000-801c8e0537a0c78cb64f
submitter=submitter = University of Tokyo Team (Faculty of Engineering, University of Tokyo)
MoNA Rating=3.75

>  <NUM PEAKS>  (1904) 
68

>  <MASS SPECTRAL PEAKS>  (1904) 
15 2.99
16 1.53
18 1.59
26 4.11
27 50.11
28 6.01
29 78.67
30 2.13
31 3.26
38 3.5
39 56.87
40 9.1
41 99.99
42 41.8
43 30.4
44 2.64
45 15.12
46 1.06
50 2.38
51 5.38
52 2.77
53 13.86
54 7.42
55 63.98
56 25.14
57 23.14
58 3.75
59 1.61
60 8.33
61 1.56
63 1.04
65 3.19
66 2.5
67 15.07
68 27.41
69 12.44
70 57.61
71 10.17
72 1.57
73 87.12
74 6.04
77 1.85
79 1.87
80 1.54
81 8.21
82 31.8
83 10.53
84 2.35
85 2.76
86 28.4
87 13.43
88 1.61
89 1.2
91 1.16
95 4.7
96 16.16
97 3.72
99 26.4
100 10.12
101 2.69
109 1.37
110 1.75
113 5.37
114 1.82
124 11.66
125 2.35
127 1.96
142 1.23

>  <PREDICTED SPECTRUM>  (1904) 
14 41
15 96
16 13
17 26
18 67
19 9
25 24
26 186
27 600
28 264
29 534
30 111
31 79
34 3
35 26
36 45
37 110
38 203
39 713
40 298
41 999
42 666
43 785
44 316
45 436
46 125
47 33
49 65
50 206
51 331
52 286
53 526
54 712
55 903
56 587
57 433
58 216
59 146
60 458
61 180
62 42
63 177
64 73
65 233
66 239
67 626
68 577
69 486
70 438
71 354
72 155
73 585
74 185
75 38
77 166
78 140
79 193
80 321
81 563
82 619
83 411
84 205
85 308
86 320
87 308
88 112
89 10
91 73
95 374
96 402
97 290
98 226
99 487
100 318
101 113
106 9
109 55
113 176
114 167
115 66
123 24
124 545
125 256
126 22
127 112
128 13
142 135
143 52

$$$$

     RDKit          2D

  9  8  0  0  0  0  0  0  0  0999 V2000
    2.2733    2.8125    0.0000 C   0  0  0  0  0  0  0  0  0  0  0  0
    0.9743    5.0625    0.0000 C   0  0  0  0  0  0  0  0  0  0  0  0
   -1.6238    3.5625    0.0000 C   0  0  0  0  0  0  0  0  0  0  0  0
   -0.3248    2.8125    0.0000 C   0  0  0  0  0  0  0  0  0  0  0  0
   -2.9228    2.8125    0.0000 C   0  0  0  0  0  0  0  0  0  0  0  0
    0.9743    3.5625    0.0000 C   0  0  0  0  0  0  0  0  0  0  0  0
   -4.2219    3.5625    0.0000 C   0  0  0  0  0  0  0  0  0  0  0  0
   -4.2219    5.0625    0.0000 O   0  0  0  0  0  0  0  0  0  0  0  0
   -5.5209    2.8125    0.0000 O   0  0  0  0  0  0  0  0  0  0  0  0
  4  3  1  0
  5  3  1  0
  6  1  1  0
  6  2  1  0
  6  4  1  0
  7  5  1  0
  8  7  2  0
  9  7  1  0
M  END
>  <NAME>  (1905) 
5-METHYLHEXANOIC ACID

>  <SYNONYMS>  (1905) 


>  <SPECTRUM TYPE>  (1905) 
MS1

>  <INSTRUMENT TYPE>  (1905) 
EI-B

>  <INSTRUMENT>  (1905) 
HITACHI M-80B

>  <ION MODE>  (1905) 
P

>  <INCHIKEY>  (1905) 
MHPUGCYGQWGLJL-UHFFFAOYSA-N

>  <FORMULA>  (1905) 
C7H14O2

>  <EXACT MASS>  (1905) 
130.099379688

>  <MW>  (1905) 
130

>  <ID>  (1905) 
JP009192

>  <CONTRIBUTOR>  (1905) 
University of Tokyo Team, {Faculty of Engineering, University of Tokyo

>  <COMMENT>  (1905) 
SMILES=CC(C)CCCC(O)=O
InChI=InChI=1S/C7H14O2/c1-6(2)4-3-5-7(8)9/h6H,3-5H2,1-2H3,(H,8,9)
computed SMILES=O=C(O)CCCC(C)C
accession=JP009192
date=2016.01.19 (Created 2008.10.21, modified 2011.05.06)
author=SODA AROMATIC CO., LTD.
license=CC BY-NC-SA
exact mass=130.09938
ionization energy=70 eV
ion type=[M]+*
computed spectral entropy=2.8126226804619274
computed normalized entropy=0.7910962954450254
SPLASH=splash10-03kl-9000000000-af743c0a8f14eb41ed52
submitter=submitter = University of Tokyo Team (Faculty of Engineering, University of Tokyo)
MoNA Rating=3.75

>  <NUM PEAKS>  (1905) 
35

>  <MASS SPECTRAL PEAKS>  (1905) 
15 1.56
26 1.23
27 22.8
28 1.93
29 12.72
31 1.58
38 1.2
39 20.66
40 2.79
41 49.07
42 14.44
43 50.16
44 1.37
45 14.97
53 2.47
55 20.95
56 5.46
57 2.91
60 99.99
61 3.22
67 1.28
68 1.36
69 30.65
70 5.43
71 54.91
72 2.41
73 30.03
74 3.89
83 1.08
87 37.12
88 7.69
89 2.74
94 3.42
97 7.27
115 1.04

>  <PREDICTED SPECTRUM>  (1905) 
14 46
15 92
16 26
17 29
18 76
19 6
25 1
26 98
27 450
28 228
29 326
31 180
32 22
33 8
35 23
36 24
37 50
38 92
39 462
40 162
41 835
42 545
43 999
44 169
45 434
46 93
47 87
49 40
50 86
51 149
52 32
53 177
54 89
55 596
56 220
57 422
59 266
60 889
61 380
65 39
67 138
68 175
69 548
70 358
71 631
72 305
73 826
74 153
83 109
87 457
88 350
89 205
97 359
101 138
102 77
112 46
130 121

$$$$

     RDKit          2D

  9  8  0  0  0  0  0  0  0  0999 V2000
    1.9486    3.3750    0.0000 C   0  0  0  0  0  0  0  0  0  0  0  0
   -3.2476    1.8750    0.0000 C   0  0  0  0  0  0  0  0  0  0  0  0
    0.6495    4.1250    0.0000 C   0  0  0  0  0  0  0  0  0  0  0  0
   -0.6495    3.3750    0.0000 C   0  0  0  0  0  0  0  0  0  0  0  0
   -1.9486    4.1250    0.0000 C   0  0  0  0  0  0  0  0  0  0  0  0
   -3.2476    3.3750    0.0000 C   0  0  0  0  0  0  0  0  0  0  0  0
   -4.5466    4.1250    0.0000 C   0  0  0  0  0  0  0  0  0  0  0  0
   -4.5466    5.6250    0.0000 O   0  0  0  0  0  0  0  0  0  0  0  0
   -5.8457    3.3750    0.0000 O   0  0  0  0  0  0  0  0  0  0  0  0
  3  1  1  0
  4  3  1  0
  5  4  1  0
  6  2  1  0
  6  5  1  0
  7  6  1  0
  8  7  2  0
  9  7  1  0
M  END
>  <NAME>  (1906) 
2-METHYLHEXANOIC ACID

>  <SYNONYMS>  (1906) 


>  <SPECTRUM TYPE>  (1906) 
MS1

>  <INSTRUMENT TYPE>  (1906) 
EI-B

>  <INSTRUMENT>  (1906) 
HITACHI M-80B

>  <ION MODE>  (1906) 
P

>  <INCHIKEY>  (1906) 
CVKMFSAVYPAZTQ-UHFFFAOYSA-N

>  <FORMULA>  (1906) 
C7H14O2

>  <EXACT MASS>  (1906) 
130.099379688

>  <MW>  (1906) 
130

>  <ID>  (1906) 
JP009191

>  <CONTRIBUTOR>  (1906) 
University of Tokyo Team, {Faculty of Engineering, University of Tokyo

>  <COMMENT>  (1906) 
SMILES=CCCCC(C)C(O)=O
InChI=InChI=1S/C7H14O2/c1-3-4-5-6(2)7(8)9/h6H,3-5H2,1-2H3,(H,8,9)
computed SMILES=O=C(O)C(C)CCCC
accession=JP009191
date=2016.01.19 (Created 2008.10.21, modified 2011.05.06)
author=SODA AROMATIC CO., LTD.
license=CC BY-NC-SA
exact mass=130.09938
ionization energy=70 eV
ion type=[M]+*
computed spectral entropy=2.462111179234988
computed normalized entropy=0.7470367252187153
SPLASH=splash10-00di-9000000000-6c06450a5157b089542c
submitter=submitter = University of Tokyo Team (Faculty of Engineering, University of Tokyo)
MoNA Rating=3.75

>  <NUM PEAKS>  (1906) 
27

>  <MASS SPECTRAL PEAKS>  (1906) 
15 1.23
26 1.43
27 19.45
28 2.93
29 16.64
30 1.95
31 1.2
39 11.91
40 1.78
41 24.86
42 4.08
43 28.42
45 7.22
53 1.78
55 9.8
56 4.9
57 5.32
59 2.05
69 2.29
70 1.27
73 12.37
74 99.99
75 2.78
85 2.24
87 22.2
88 1.3
101 2.62

>  <PREDICTED SPECTRUM>  (1906) 
14 0
15 23
26 25
27 163
28 64
29 190
30 25
31 72
33 5
38 1
39 195
40 95
41 509
42 230
43 412
44 134
45 380
46 140
50 24
51 79
52 22
53 145
54 110
55 392
56 422
57 572
58 157
59 276
60 135
61 10
67 58
69 458
70 165
71 112
72 44
73 536
74 999
75 283
76 50
79 7
81 53
82 39
83 168
85 173
86 66
87 441
88 68
99 63
101 188
112 11
130 218
131 60

$$$$

     RDKit          2D

  9  8  0  0  0  0  0  0  0  0999 V2000
   -7.4695    3.9375    0.0000 C   0  0  0  0  0  0  0  0  0  0  0  0
   -6.1704    3.1875    0.0000 C   0  0  0  0  0  0  0  0  0  0  0  0
   -4.8714    3.9375    0.0000 C   0  0  0  0  0  0  0  0  0  0  0  0
   -3.5724    3.1875    0.0000 C   0  0  0  0  0  0  0  0  0  0  0  0
   -2.2733    3.9375    0.0000 C   0  0  0  0  0  0  0  0  0  0  0  0
   -0.9743    3.1875    0.0000 C   0  0  0  0  0  0  0  0  0  0  0  0
    0.3248    3.9375    0.0000 C   0  0  0  0  0  0  0  0  0  0  0  0
    0.3248    5.4375    0.0000 O   0  0  0  0  0  0  0  0  0  0  0  0
    1.6238    3.1875    0.0000 O   0  0  0  0  0  0  0  0  0  0  0  0
  2  1  1  0
  3  2  1  0
  4  3  1  0
  5  4  1  0
  6  5  1  0
  7  6  1  0
  8  7  2  0
  9  7  1  0
M  END
>  <NAME>  (1907) 
HEPTANOIC ACID

>  <SYNONYMS>  (1907) 


>  <SPECTRUM TYPE>  (1907) 
MS1

>  <INSTRUMENT TYPE>  (1907) 
EI-B

>  <INSTRUMENT>  (1907) 
HITACHI M-80B

>  <ION MODE>  (1907) 
P

>  <INCHIKEY>  (1907) 
MNWFXJYAOYHMED-UHFFFAOYSA-N

>  <FORMULA>  (1907) 
C7H14O2

>  <EXACT MASS>  (1907) 
130.099379688

>  <MW>  (1907) 
130

>  <ID>  (1907) 
JP009190

>  <CONTRIBUTOR>  (1907) 
University of Tokyo Team, {Faculty of Engineering, University of Tokyo

>  <COMMENT>  (1907) 
SMILES=CCCCCCC(O)=O
InChI=InChI=1S/C7H14O2/c1-2-3-4-5-6-7(8)9/h2-6H2,1H3,(H,8,9)
computed SMILES=O=C(O)CCCCCC
accession=JP009190
date=2016.01.19 (Created 2008.10.21, modified 2011.05.06)
author=SODA AROMATIC CO., LTD.
license=CC BY-NC-SA
exact mass=130.09938
ionization energy=70 eV
ion type=[M]+*
computed spectral entropy=2.724544868754696
computed normalized entropy=0.7934056554422089
SPLASH=splash10-03kc-9000000000-ebeb37b8d3c0ca55826d
submitter=submitter = University of Tokyo Team (Faculty of Engineering, University of Tokyo)
MoNA Rating=3.75

>  <NUM PEAKS>  (1907) 
31

>  <MASS SPECTRAL PEAKS>  (1907) 
15 1.42
26 1.79
27 19.55
28 2.93
29 16.31
31 2.15
39 9.77
40 2.05
41 30.56
42 6.67
43 26.4
45 10.51
53 1.95
54 1.05
55 17.05
56 3.53
57 2.55
59 3.28
60 99.99
61 9.58
68 1.9
69 3.89
70 12.84
71 11.21
73 48.16
74 4.89
83 2.57
84 3.19
87 19.87
88 1.45
101 5.22

>  <PREDICTED SPECTRUM>  (1907) 
14 46
15 110
16 16
17 24
18 61
19 7
25 14
26 151
27 624
28 299
29 586
30 20
31 163
32 11
35 17
36 26
37 73
38 118
39 577
40 226
41 956
42 698
43 988
44 217
45 452
46 120
47 102
49 46
50 93
51 175
52 99
53 236
54 240
55 842
56 370
57 279
58 26
59 296
60 999
61 462
62 79
64 10
65 92
66 12
67 183
68 176
69 334
70 281
71 506
72 195
73 915
74 163
77 4
82 74
83 232
87 350
88 84
89 85
97 71
101 272
102 115
112 110
113 38
130 59

$$$$

     RDKit          2D

  8  7  0  0  0  0  0  0  0  0999 V2000
    0.9743    2.8125    0.0000 C   0  0  0  0  0  0  0  0  0  0  0  0
   -4.2219    2.8125    0.0000 C   0  0  0  0  0  0  0  0  0  0  0  0
   -0.3248    3.5625    0.0000 C   0  0  0  0  0  0  0  0  0  0  0  0
   -2.9228    3.5625    0.0000 C   0  0  0  0  0  0  0  0  0  0  0  0
   -1.6238    2.8125    0.0000 C   0  0  0  0  0  0  0  0  0  0  0  0
   -1.6238    1.3125    0.0000 C   0  0  0  0  0  0  0  0  0  0  0  0
   -2.9228    0.5625    0.0000 O   0  0  0  0  0  0  0  0  0  0  0  0
   -0.3248    0.5625    0.0000 O   0  0  0  0  0  0  0  0  0  0  0  0
  3  1  1  0
  4  2  1  0
  5  3  1  0
  5  4  1  0
  6  5  1  0
  7  6  2  0
  8  6  1  0
M  END
>  <NAME>  (1908) 
2-ETHYLBUTYRIC ACID

>  <SYNONYMS>  (1908) 


>  <SPECTRUM TYPE>  (1908) 
MS1

>  <INSTRUMENT TYPE>  (1908) 
EI-B

>  <INSTRUMENT>  (1908) 
HITACHI M-80B

>  <ION MODE>  (1908) 
P

>  <INCHIKEY>  (1908) 
OXQGTIUCKGYOAA-UHFFFAOYSA-N

>  <FORMULA>  (1908) 
C6H12O2

>  <EXACT MASS>  (1908) 
116.083729624

>  <MW>  (1908) 
116

>  <ID>  (1908) 
JP009189

>  <CONTRIBUTOR>  (1908) 
University of Tokyo Team, {Faculty of Engineering, University of Tokyo

>  <COMMENT>  (1908) 
SMILES=CCC(CC)C(O)=O
InChI=InChI=1S/C6H12O2/c1-3-5(4-2)6(7)8/h5H,3-4H2,1-2H3,(H,7,8)
computed SMILES=O=C(O)C(CC)CC
accession=JP009189
date=2016.01.19 (Created 2008.10.21, modified 2011.05.06)
author=SODA AROMATIC CO., LTD.
license=CC BY-NC-SA
exact mass=116.08373
ionization energy=70 eV
ion type=[M]+*
computed spectral entropy=2.7012662311477373
computed normalized entropy=0.7725612439444551
SPLASH=splash10-007c-9000000000-dbe4308a7aba1f8b1fdf
submitter=submitter = University of Tokyo Team (Faculty of Engineering, University of Tokyo)
MoNA Rating=3.75

>  <NUM PEAKS>  (1908) 
33

>  <MASS SPECTRAL PEAKS>  (1908) 
15 3.29
26 4.11
27 43.88
28 3.57
29 34.59
31 2.38
38 2.31
39 30.88
40 3.37
41 44.5
42 6.68
43 93.1
44 2.77
45 19.96
51 1.56
53 3.63
54 1.13
55 24.54
56 2.08
57 2.1
59 1.99
60 2.3
68 1.78
69 8.79
70 3.84
71 22.91
72 1.2
73 71.65
74 3.06
87 34.42
88 99.99
89 4.13
101 4.47

>  <PREDICTED SPECTRUM>  (1908) 
14 27
15 79
18 12
25 2
26 168
27 535
28 280
29 672
30 39
31 215
37 24
38 111
39 480
40 186
41 825
42 366
43 773
44 99
45 495
46 72
47 42
50 88
51 144
52 82
53 292
54 192
55 617
56 340
57 999
58 198
59 404
60 637
61 293
62 29
67 20
69 190
70 472
71 666
72 158
73 675
74 143
83 68
87 400
88 898
89 247
98 9
101 549
116 186
117 57

$$$$

     RDKit          2D

  8  7  0  0  0  0  0  0  0  0999 V2000
    0.0000    0.0000    0.0000 C   0  0  0  0  0  0  0  0  0  0  0  0
    1.2990    2.2500    0.0000 C   0  0  0  0  0  0  0  0  0  0  0  0
   -1.2990    2.2500    0.0000 C   0  0  0  0  0  0  0  0  0  0  0  0
   -1.2990    3.7500    0.0000 C   0  0  0  0  0  0  0  0  0  0  0  0
    0.0000    1.5000    0.0000 C   0  0  0  0  0  0  0  0  0  0  0  0
   -2.5981    4.5000    0.0000 C   0  0  0  0  0  0  0  0  0  0  0  0
   -3.8971    3.7500    0.0000 O   0  0  0  0  0  0  0  0  0  0  0  0
   -2.5981    6.0000    0.0000 O   0  0  0  0  0  0  0  0  0  0  0  0
  4  3  1  0
  5  1  1  0
  5  2  1  0
  5  3  1  0
  6  4  1  0
  7  6  2  0
  8  6  1  0
M  END
>  <NAME>  (1909) 
4-METHYLVALERIC ACID

>  <SYNONYMS>  (1909) 


>  <SPECTRUM TYPE>  (1909) 
MS1

>  <INSTRUMENT TYPE>  (1909) 
EI-B

>  <INSTRUMENT>  (1909) 
HITACHI M-80B

>  <ION MODE>  (1909) 
P

>  <INCHIKEY>  (1909) 
FGKJLKRYENPLQH-UHFFFAOYSA-N

>  <FORMULA>  (1909) 
C6H12O2

>  <EXACT MASS>  (1909) 
116.083729624

>  <MW>  (1909) 
116

>  <ID>  (1909) 
JP009188

>  <CONTRIBUTOR>  (1909) 
University of Tokyo Team, {Faculty of Engineering, University of Tokyo

>  <COMMENT>  (1909) 
SMILES=CC(C)CCC(O)=O
InChI=InChI=1S/C6H12O2/c1-5(2)3-4-6(7)8/h5H,3-4H2,1-2H3,(H,7,8)
computed SMILES=O=C(O)CCC(C)C
accession=JP009188
date=2016.01.19 (Created 2008.10.21, modified 2011.05.06)
author=SODA AROMATIC CO., LTD.
license=CC BY-NC-SA
exact mass=116.08373
ionization energy=70 eV
ion type=[M]+*
computed spectral entropy=2.8933623154695387
computed normalized entropy=0.8138056430563497
SPLASH=splash10-0abc-9000000000-9da80434be2ce0d86913
submitter=submitter = University of Tokyo Team (Faculty of Engineering, University of Tokyo)
MoNA Rating=3.75

>  <NUM PEAKS>  (1909) 
35

>  <MASS SPECTRAL PEAKS>  (1909) 
15 4.48
26 3.63
27 39.74
28 2.09
29 25.72
30 3.56
31 4.35
38 2.42
39 29.6
40 1.16
41 58.4
42 13.53
43 56.02
44 2.26
45 22.1
50 2.08
51 2.49
53 4.74
54 1.43
55 57.06
56 15.46
57 99.99
58 4.27
59 16.33
60 33.65
61 2.02
69 4.21
70 3.46
73 57.04
74 62.33
75 5.09
83 15.2
87 5.2
97 1.23
101 3.9

>  <PREDICTED SPECTRUM>  (1909) 
14 29
16 2
19 10
26 60
27 308
28 71
29 245
31 89
37 7
38 54
39 402
40 169
41 894
42 467
43 999
44 277
45 510
46 132
47 29
50 28
51 58
52 48
53 210
54 121
55 674
56 794
57 850
58 241
59 262
60 688
61 157
62 19
65 18
69 261
70 114
71 192
72 123
73 780
74 153
83 191
87 109
88 40
98 165
116 65

$$$$

     RDKit          2D

  8  7  0  0  0  0  0  0  0  0999 V2000
    1.6238    3.1875    0.0000 C   0  0  0  0  0  0  0  0  0  0  0  0
   -0.9743    1.6875    0.0000 C   0  0  0  0  0  0  0  0  0  0  0  0
    0.3248    3.9375    0.0000 C   0  0  0  0  0  0  0  0  0  0  0  0
   -2.2733    3.9375    0.0000 C   0  0  0  0  0  0  0  0  0  0  0  0
   -0.9743    3.1875    0.0000 C   0  0  0  0  0  0  0  0  0  0  0  0
   -3.5724    3.1875    0.0000 C   0  0  0  0  0  0  0  0  0  0  0  0
   -3.5724    1.6875    0.0000 O   0  0  0  0  0  0  0  0  0  0  0  0
   -4.8714    3.9375    0.0000 O   0  0  0  0  0  0  0  0  0  0  0  0
  3  1  1  0
  5  2  1  0
  5  3  1  0
  5  4  1  0
  6  4  1  0
  7  6  2  0
  8  6  1  0
M  END
>  <NAME>  (1910) 
3-METHYLVALERIC ACID

>  <SYNONYMS>  (1910) 


>  <SPECTRUM TYPE>  (1910) 
MS1

>  <INSTRUMENT TYPE>  (1910) 
EI-B

>  <INSTRUMENT>  (1910) 
HITACHI M-80B

>  <ION MODE>  (1910) 
P

>  <INCHIKEY>  (1910) 
IGIDLTISMCAULB-UHFFFAOYSA-N

>  <FORMULA>  (1910) 
C6H12O2

>  <EXACT MASS>  (1910) 
116.083729624

>  <MW>  (1910) 
116

>  <ID>  (1910) 
JP009187

>  <CONTRIBUTOR>  (1910) 
University of Tokyo Team, {Faculty of Engineering, University of Tokyo

>  <COMMENT>  (1910) 
SMILES=CCC(C)CC(O)=O
InChI=InChI=1S/C6H12O2/c1-3-5(2)4-6(7)8/h5H,3-4H2,1-2H3,(H,7,8)
computed SMILES=O=C(O)CC(C)CC
accession=JP009187
date=2016.01.19 (Created 2008.10.21, modified 2011.05.06)
author=SODA AROMATIC CO., LTD.
license=CC BY-NC-SA
exact mass=116.08373
ionization energy=70 eV
ion type=[M]+*
computed spectral entropy=2.584074982003568
computed normalized entropy=0.7674036118216402
SPLASH=splash10-03di-9000000000-8a3d878b35fe05000f4b
submitter=submitter = University of Tokyo Team (Faculty of Engineering, University of Tokyo)
MoNA Rating=3.75

>  <NUM PEAKS>  (1910) 
29

>  <MASS SPECTRAL PEAKS>  (1910) 
15 1.13
18 3.19
26 1.2
27 13.89
29 15.18
31 1.87
38 1.03
39 11.4
40 1.74
41 28.68
42 6.87
43 13.07
45 13.87
51 1.13
53 1.72
55 11.97
56 14.78
57 21.27
58 1.5
59 4.3
60 99.99
61 14.21
69 2.72
70 1.28
73 3.87
83 1.79
87 17.14
88 1.08
101 1.31

>  <PREDICTED SPECTRUM>  (1910) 
14 46
15 89
16 34
17 19
18 89
26 97
27 371
28 209
29 432
31 113
38 96
39 492
40 188
41 993
42 560
43 709
44 171
45 650
46 289
47 195
51 31
52 4
53 215
54 182
55 636
56 652
57 777
58 411
59 832
60 999
61 453
69 244
70 516
71 204
72 25
73 479
83 33
87 430
88 154
99 10
101 72
116 330
117 57

$$$$

     RDKit          2D

  8  7  0  0  0  0  0  0  0  0999 V2000
    1.6238    3.1875    0.0000 C   0  0  0  0  0  0  0  0  0  0  0  0
   -2.2733    5.4375    0.0000 C   0  0  0  0  0  0  0  0  0  0  0  0
    0.3248    3.9375    0.0000 C   0  0  0  0  0  0  0  0  0  0  0  0
   -0.9743    3.1875    0.0000 C   0  0  0  0  0  0  0  0  0  0  0  0
   -2.2733    3.9375    0.0000 C   0  0  0  0  0  0  0  0  0  0  0  0
   -3.5724    3.1875    0.0000 C   0  0  0  0  0  0  0  0  0  0  0  0
   -3.5724    1.6875    0.0000 O   0  0  0  0  0  0  0  0  0  0  0  0
   -4.8714    3.9375    0.0000 O   0  0  0  0  0  0  0  0  0  0  0  0
  3  1  1  0
  4  3  1  0
  5  2  1  0
  5  4  1  0
  6  5  1  0
  7  6  2  0
  8  6  1  0
M  END
>  <NAME>  (1911) 
2-METHYLVALERIC ACID

>  <SYNONYMS>  (1911) 


>  <SPECTRUM TYPE>  (1911) 
MS1

>  <INSTRUMENT TYPE>  (1911) 
EI-B

>  <INSTRUMENT>  (1911) 
HITACHI M-80B

>  <ION MODE>  (1911) 
P

>  <INCHIKEY>  (1911) 
OVBFMEVBMNZIBR-UHFFFAOYSA-N

>  <FORMULA>  (1911) 
C6H12O2

>  <EXACT MASS>  (1911) 
116.083729624

>  <MW>  (1911) 
116

>  <ID>  (1911) 
JP009186

>  <CONTRIBUTOR>  (1911) 
University of Tokyo Team, {Faculty of Engineering, University of Tokyo

>  <COMMENT>  (1911) 
SMILES=CCCC(C)C(O)=O
InChI=InChI=1S/C6H12O2/c1-3-4-5(2)6(7)8/h5H,3-4H2,1-2H3,(H,7,8)
computed SMILES=O=C(O)C(C)CCC
accession=JP009186
date=2016.01.19 (Created 2008.10.21, modified 2011.05.06)
author=SODA AROMATIC CO., LTD.
license=CC BY-NC-SA
exact mass=116.08373
ionization energy=70 eV
ion type=[M]+*
computed spectral entropy=2.5029125110104258
computed normalized entropy=0.7511281205482869
SPLASH=splash10-00dl-9000000000-2befc58fc5f43a0d13c2
submitter=submitter = University of Tokyo Team (Faculty of Engineering, University of Tokyo)
MoNA Rating=3.75

>  <NUM PEAKS>  (1911) 
28

>  <MASS SPECTRAL PEAKS>  (1911) 
15 1.61
26 2.1
27 23.6
28 5.02
29 15.86
30 2.59
31 1.35
38 1.08
39 14.95
40 1.94
41 26.74
42 5.58
43 47.01
44 1.45
45 9.99
53 1.74
55 9.62
56 5.56
57 1.69
59 1.6
69 2.17
70 1.09
71 6.58
73 14.37
74 99.99
75 3.04
87 14.88
101 2.07

>  <PREDICTED SPECTRUM>  (1911) 
14 20
15 111
16 8
17 21
18 44
26 51
27 294
28 159
29 242
30 46
31 119
32 36
33 1
37 14
38 67
39 290
40 133
41 609
42 326
43 741
44 67
45 340
46 199
47 16
50 18
51 10
52 3
53 121
54 69
55 518
56 225
57 547
58 61
59 339
60 31
61 23
67 39
68 11
69 169
70 61
71 369
72 187
73 300
74 999
75 191
76 10
83 134
85 7
87 285
88 205
97 6
101 74
116 203
117 33

$$$$

     RDKit          2D

  8  7  0  0  0  0  0  0  0  0999 V2000
    1.9486    3.3750    0.0000 C   0  0  0  0  0  0  0  0  0  0  0  0
    0.6495    4.1250    0.0000 C   0  0  0  0  0  0  0  0  0  0  0  0
   -0.6495    3.3750    0.0000 C   0  0  0  0  0  0  0  0  0  0  0  0
   -1.9486    4.1250    0.0000 C   0  0  0  0  0  0  0  0  0  0  0  0
   -3.2476    3.3750    0.0000 C   0  0  0  0  0  0  0  0  0  0  0  0
   -4.5466    4.1250    0.0000 C   0  0  0  0  0  0  0  0  0  0  0  0
   -4.5466    5.6250    0.0000 O   0  0  0  0  0  0  0  0  0  0  0  0
   -5.8457    3.3750    0.0000 O   0  0  0  0  0  0  0  0  0  0  0  0
  2  1  1  0
  3  2  1  0
  4  3  1  0
  5  4  1  0
  6  5  1  0
  7  6  2  0
  8  6  1  0
M  END
>  <NAME>  (1912) 
HEXANOIC ACID

>  <SYNONYMS>  (1912) 


>  <SPECTRUM TYPE>  (1912) 
MS1

>  <INSTRUMENT TYPE>  (1912) 
EI-B

>  <INSTRUMENT>  (1912) 
HITACHI M-80B

>  <ION MODE>  (1912) 
P

>  <INCHIKEY>  (1912) 
FUZZWVXGSFPDMH-UHFFFAOYSA-N

>  <FORMULA>  (1912) 
C6H12O2

>  <EXACT MASS>  (1912) 
116.083729624

>  <MW>  (1912) 
116

>  <ID>  (1912) 
JP009185

>  <CONTRIBUTOR>  (1912) 
University of Tokyo Team, {Faculty of Engineering, University of Tokyo

>  <COMMENT>  (1912) 
SMILES=CCCCCC(O)=O
InChI=InChI=1S/C6H12O2/c1-2-3-4-5-6(7)8/h2-5H2,1H3,(H,7,8)
computed SMILES=O=C(O)CCCCC
accession=JP009185
date=2016.01.19 (Created 2008.10.21, modified 2011.05.06)
author=SODA AROMATIC CO., LTD.
license=CC BY-NC-SA
exact mass=116.08373
ionization energy=70 eV
ion type=[M]+*
computed spectral entropy=2.492134015659859
computed normalized entropy=0.7742249627669006
SPLASH=splash10-03di-9000000000-f4bf00b677d90d54ba69
submitter=submitter = University of Tokyo Team (Faculty of Engineering, University of Tokyo)
MoNA Rating=3.75

>  <NUM PEAKS>  (1912) 
25

>  <MASS SPECTRAL PEAKS>  (1912) 
15 1.25
18 1.78
26 1.79
27 20.15
28 2.66
29 12.93
31 2
39 10.15
40 1.83
41 26.73
42 8.72
43 14.14
45 12.24
53 1.5
55 8.92
56 7.42
57 7.73
59 1.83
60 99.99
61 7.54
69 2.56
70 2.8
73 43.43
74 5.23
87 9.35

>  <PREDICTED SPECTRUM>  (1912) 
14 53
15 53
16 18
17 28
18 46
19 29
25 19
26 130
27 562
28 215
29 544
30 40
31 129
36 23
37 77
38 140
39 601
40 223
41 941
42 756
43 999
44 218
45 472
46 204
47 211
49 8
50 37
51 119
52 106
53 261
54 251
55 824
56 338
57 470
58 110
59 245
60 797
61 339
62 157
63 14
64 32
65 24
68 64
69 197
70 331
71 277
72 11
73 866
74 170
83 166
87 332
88 119
89 13
98 43
99 134
100 35
116 128

$$$$

     RDKit          2D

  8  7  0  0  0  0  0  0  0  0999 V2000
    1.9486    3.3750    0.0000 C   0  0  0  0  0  0  0  0  0  0  0  0
    0.6495    4.1250    0.0000 C   0  0  0  0  0  0  0  0  0  0  0  0
   -0.6495    3.3750    0.0000 C   0  0  0  0  0  0  0  0  0  0  0  0
   -1.9486    4.1250    0.0000 C   0  0  0  0  0  0  0  0  0  0  0  0
   -3.2476    3.3750    0.0000 C   0  0  0  0  0  0  0  0  0  0  0  0
   -4.5466    4.1250    0.0000 C   0  0  0  0  0  0  0  0  0  0  0  0
   -4.5466    5.6250    0.0000 O   0  0  0  0  0  0  0  0  0  0  0  0
   -5.8457    3.3750    0.0000 O   0  0  0  0  0  0  0  0  0  0  0  0
  2  1  1  0
  3  2  1  0
  3  4  2  0
  5  4  1  0
  6  5  1  0
  7  6  2  0
  8  6  1  0
M  END
>  <NAME>  (1913) 
TRANS-3-HEXENOIC ACID

>  <SYNONYMS>  (1913) 


>  <SPECTRUM TYPE>  (1913) 
MS1

>  <INSTRUMENT TYPE>  (1913) 
EI-B

>  <INSTRUMENT>  (1913) 
HITACHI M-80B

>  <ION MODE>  (1913) 
P

>  <INCHIKEY>  (1913) 
XXHDAWYDNSXJQM-ONEGZZNKSA-N

>  <FORMULA>  (1913) 
C6H10O2

>  <EXACT MASS>  (1913) 
114.06807956

>  <MW>  (1913) 
114

>  <ID>  (1913) 
JP009184

>  <CONTRIBUTOR>  (1913) 
University of Tokyo Team, {Faculty of Engineering, University of Tokyo

>  <COMMENT>  (1913) 
SMILES=CCC=CCC(O)=O
InChI=InChI=1S/C6H10O2/c1-2-3-4-5-6(7)8/h3-4H,2,5H2,1H3,(H,7,8)/b4-3+
computed SMILES=O=C(O)CC=CCC
accession=JP009184
date=2016.01.19 (Created 2008.10.21, modified 2011.05.06)
author=SODA AROMATIC CO., LTD.
license=CC BY-NC-SA
exact mass=114.06808
ionization energy=70 eV
ion type=[M]+*
computed spectral entropy=3.1074149765688714
computed normalized entropy=0.7984477027568404
SPLASH=splash10-07do-9000000000-8b13420b30c228556186
submitter=submitter = University of Tokyo Team (Faculty of Engineering, University of Tokyo)
MoNA Rating=3.75

>  <NUM PEAKS>  (1913) 
49

>  <MASS SPECTRAL PEAKS>  (1913) 
15 2.8
18 1.14
26 4.26
27 35.93
28 3.95
29 22
31 2.15
37 1.81
38 4.47
39 48.46
40 6.35
41 99.99
42 19.37
43 14.87
44 1.77
45 24.12
50 3.68
51 4.99
52 2.76
53 17.48
54 8.47
55 77.77
56 3.81
57 18.34
58 2.41
59 1.68
60 43.71
61 1.77
62 1.23
63 1.41
65 2.32
66 1.2
67 9.63
68 44.8
69 36.25
70 2.7
71 5.14
72 2.32
73 16.04
74 1.01
81 3.58
85 1.05
86 1.18
95 1.03
96 4.81
97 1.7
99 6.82
114 36.56
115 2.31

>  <PREDICTED SPECTRUM>  (1913) 
26 41
27 206
28 68
29 178
31 21
34 18
37 28
38 86
39 463
40 218
41 999
42 526
43 662
44 320
45 553
46 144
47 127
48 21
49 57
50 153
51 176
52 147
53 472
54 438
55 728
56 420
57 395
58 280
59 341
60 646
61 291
62 106
63 73
65 134
66 166
67 590
68 771
69 739
70 381
71 384
72 212
73 400
74 139
79 100
81 224
82 62
83 46
85 461
86 241
87 134
95 150
96 480
97 258
98 42
99 441
100 115
101 20
112 26
113 64
114 785
115 249
116 48

$$$$

     RDKit          2D

  8  7  0  0  0  0  0  0  0  0999 V2000
    1.9486    3.3750    0.0000 C   0  0  0  0  0  0  0  0  0  0  0  0
    0.6495    4.1250    0.0000 C   0  0  0  0  0  0  0  0  0  0  0  0
   -0.6495    3.3750    0.0000 C   0  0  0  0  0  0  0  0  0  0  0  0
   -1.9486    4.1250    0.0000 C   0  0  0  0  0  0  0  0  0  0  0  0
   -3.2476    3.3750    0.0000 C   0  0  0  0  0  0  0  0  0  0  0  0
   -4.5466    4.1250    0.0000 C   0  0  0  0  0  0  0  0  0  0  0  0
   -4.5466    5.6250    0.0000 O   0  0  0  0  0  0  0  0  0  0  0  0
   -5.8457    3.3750    0.0000 O   0  0  0  0  0  0  0  0  0  0  0  0
  2  1  1  0
  3  2  1  0
  4  3  1  0
  4  5  2  0
  6  5  1  0
  7  6  2  0
  8  6  1  0
M  END
>  <NAME>  (1914) 
TRANS-2-HEXENOIC ACID

>  <SYNONYMS>  (1914) 


>  <SPECTRUM TYPE>  (1914) 
MS1

>  <INSTRUMENT TYPE>  (1914) 
EI-B

>  <INSTRUMENT>  (1914) 
HITACHI M-80B

>  <ION MODE>  (1914) 
P

>  <INCHIKEY>  (1914) 
NIONDZDPPYHYKY-SNAWJCMRSA-N

>  <FORMULA>  (1914) 
C6H10O2

>  <EXACT MASS>  (1914) 
114.06807956

>  <MW>  (1914) 
114

>  <ID>  (1914) 
JP009182

>  <CONTRIBUTOR>  (1914) 
University of Tokyo Team, {Faculty of Engineering, University of Tokyo

>  <COMMENT>  (1914) 
SMILES=CCCC=CC(O)=O
InChI=InChI=1S/C6H10O2/c1-2-3-4-5-6(7)8/h4-5H,2-3H2,1H3,(H,7,8)/b5-4+
computed SMILES=O=C(O)C=CCCC
accession=JP009182
date=2016.01.19 (Created 2008.10.21, modified 2011.05.06)
author=SODA AROMATIC CO., LTD.
license=CC BY-NC-SA
exact mass=114.06808
ionization energy=70 eV
ion type=[M]+*
computed spectral entropy=3.17497358414833
computed normalized entropy=0.8035377745031144
SPLASH=splash10-0096-9000000000-800bed3e63b70dd66688
submitter=submitter = University of Tokyo Team (Faculty of Engineering, University of Tokyo)
MoNA Rating=3.75

>  <NUM PEAKS>  (1914) 
52

>  <MASS SPECTRAL PEAKS>  (1914) 
15 2.89
18 1.03
26 5.72
27 45.76
28 3.54
29 39.66
30 1.09
31 3.49
37 2.25
38 6.36
39 55.89
40 13.97
41 58.57
42 63.4
43 19.37
44 2.17
45 18.96
50 2.97
51 4.62
52 1.94
53 11.05
54 4.01
55 37.83
56 4.38
57 8.59
58 3.58
59 6.57
60 14.82
61 1.32
62 1.05
63 1.31
65 1.91
66 1.51
67 6.05
68 32.9
69 15.41
70 1.67
71 5.22
72 1.22
73 99.99
74 3.13
81 7.84
85 2.21
86 4.64
87 1.01
95 1.53
96 4.65
97 3.05
99 26.79
100 1.75
114 17.73
115 1.42

>  <PREDICTED SPECTRUM>  (1914) 
14 23
15 22
16 10
17 18
18 40
25 41
26 196
27 441
28 146
29 168
31 65
32 0
33 37
34 10
35 45
36 15
37 142
38 219
39 663
40 337
41 977
42 616
43 648
44 329
45 653
46 165
47 116
49 162
50 267
51 394
52 325
53 587
54 848
55 999
56 419
57 306
58 241
59 238
60 361
61 358
62 186
63 225
64 82
65 297
66 256
67 529
68 439
69 549
70 381
71 685
72 408
73 316
74 10
77 142
79 53
81 555
82 268
83 106
85 343
86 335
87 58
95 117
96 415
97 443
98 99
99 390
100 61
113 9
114 421
115 145

$$$$

     RDKit          2D

  7  6  0  0  0  0  0  0  0  0999 V2000
   -3.8971    2.2500    0.0000 C   0  0  0  0  0  0  0  0  0  0  0  0
   -1.2990    3.7500    0.0000 C   0  0  0  0  0  0  0  0  0  0  0  0
   -2.5981    1.5000    0.0000 C   0  0  0  0  0  0  0  0  0  0  0  0
   -1.2990    2.2500    0.0000 C   0  0  0  0  0  0  0  0  0  0  0  0
    0.0000    1.5000    0.0000 C   0  0  0  0  0  0  0  0  0  0  0  0
   -0.0000    0.0000    0.0000 O   0  0  0  0  0  0  0  0  0  0  0  0
    1.2990    2.2500    0.0000 O   0  0  0  0  0  0  0  0  0  0  0  0
  3  1  1  0
  4  2  1  0
  4  3  1  0
  5  4  1  0
  6  5  2  0
  7  5  1  0
M  END
>  <NAME>  (1915) 
2-METHYLBUTYRIC ACID

>  <SYNONYMS>  (1915) 


>  <SPECTRUM TYPE>  (1915) 
MS1

>  <INSTRUMENT TYPE>  (1915) 
EI-B

>  <INSTRUMENT>  (1915) 
HITACHI M-80B

>  <ION MODE>  (1915) 
P

>  <INCHIKEY>  (1915) 
WLAMNBDJUVNPJU-UHFFFAOYSA-N

>  <FORMULA>  (1915) 
C5H10O2

>  <EXACT MASS>  (1915) 
102.06807956

>  <MW>  (1915) 
102

>  <ID>  (1915) 
JP009181

>  <CONTRIBUTOR>  (1915) 
University of Tokyo Team, {Faculty of Engineering, University of Tokyo

>  <COMMENT>  (1915) 
SMILES=CCC(C)C(O)=O
InChI=InChI=1S/C5H10O2/c1-3-4(2)5(6)7/h4H,3H2,1-2H3,(H,6,7)
computed SMILES=O=C(O)C(C)CC
accession=JP009181
date=2016.01.19 (Created 2008.10.21, modified 2011.05.06)
author=SODA AROMATIC CO., LTD.
license=CC BY-NC-SA
exact mass=102.06808
ionization energy=70 eV
ion type=[M]+*
computed spectral entropy=2.585064024712333
computed normalized entropy=0.7527879024522774
SPLASH=splash10-05i3-9000000000-0aaa78177c0a6f4e0f30
submitter=submitter = University of Tokyo Team (Faculty of Engineering, University of Tokyo)
MoNA Rating=3.75

>  <NUM PEAKS>  (1915) 
31

>  <MASS SPECTRAL PEAKS>  (1915) 
15 2.71
16 1.05
26 4.86
27 32.67
28 9.93
29 57.56
30 3.04
31 2.06
38 1.86
39 18.46
40 2.17
41 57.52
42 3.87
43 4.05
45 14.44
46 1.07
50 1.73
51 1.51
53 2.17
55 7.77
56 9.04
57 58.1
58 2.39
59 2.19
60 2.92
69 4.21
73 11.81
74 99.99
75 2.99
87 22.71
88 1.08

>  <PREDICTED SPECTRUM>  (1915) 
14 46
15 77
16 23
17 23
18 45
25 14
26 138
27 415
28 292
29 559
31 151
32 9
37 24
38 90
39 394
40 135
41 729
42 249
43 284
44 124
45 343
46 260
47 104
50 65
53 151
54 82
55 276
56 343
57 999
58 71
59 167
60 168
69 25
71 1
73 368
74 419
75 70
85 24
87 67
102 289
103 44

$$$$

     RDKit          2D

  7  6  0  0  0  0  0  0  0  0999 V2000
    1.6238    1.6875    0.0000 C   0  0  0  0  0  0  0  0  0  0  0  0
    0.3248    3.9375    0.0000 C   0  0  0  0  0  0  0  0  0  0  0  0
   -0.9743    1.6875    0.0000 C   0  0  0  0  0  0  0  0  0  0  0  0
    0.3248    2.4375    0.0000 C   0  0  0  0  0  0  0  0  0  0  0  0
   -2.2733    2.4375    0.0000 C   0  0  0  0  0  0  0  0  0  0  0  0
   -2.2733    3.9375    0.0000 O   0  0  0  0  0  0  0  0  0  0  0  0
   -3.5724    1.6875    0.0000 O   0  0  0  0  0  0  0  0  0  0  0  0
  4  1  1  0
  4  2  1  0
  4  3  1  0
  5  3  1  0
  6  5  2  0
  7  5  1  0
M  END
>  <NAME>  (1916) 
ISOVALERIC ACID

>  <SYNONYMS>  (1916) 


>  <SPECTRUM TYPE>  (1916) 
MS1

>  <INSTRUMENT TYPE>  (1916) 
EI-B

>  <INSTRUMENT>  (1916) 
HITACHI M-80B

>  <ION MODE>  (1916) 
P

>  <INCHIKEY>  (1916) 
GWYFCOCPABKNJV-UHFFFAOYSA-N

>  <FORMULA>  (1916) 
C5H10O2

>  <EXACT MASS>  (1916) 
102.06807956

>  <MW>  (1916) 
102

>  <ID>  (1916) 
JP009180

>  <CONTRIBUTOR>  (1916) 
University of Tokyo Team, {Faculty of Engineering, University of Tokyo

>  <COMMENT>  (1916) 
SMILES=CC(C)CC(O)=O
InChI=InChI=1S/C5H10O2/c1-4(2)3-5(6)7/h4H,3H2,1-2H3,(H,6,7)
computed SMILES=O=C(O)CC(C)C
accession=JP009180
date=2016.01.19 (Created 2008.10.21, modified 2011.05.06)
author=SODA AROMATIC CO., LTD.
license=CC BY-NC-SA
exact mass=102.06808
ionization energy=70 eV
ion type=[M]+*
computed spectral entropy=2.3535796692194437
computed normalized entropy=0.731180634877648
SPLASH=splash10-03dl-9000000000-43967f1315b6b575f330
submitter=submitter = University of Tokyo Team (Faculty of Engineering, University of Tokyo)
MoNA Rating=3.75

>  <NUM PEAKS>  (1916) 
25

>  <MASS SPECTRAL PEAKS>  (1916) 
14 1.12
15 2.94
26 1.55
27 24.26
29 6.92
31 2.56
37 1.24
38 2.09
39 22.97
40 2.77
41 37.83
42 9.64
43 33.45
44 1.21
45 18.61
55 2.23
56 2.84
57 2.51
59 3.29
60 99.99
61 4.73
69 3.48
74 1.15
85 1.09
87 15.29

>  <PREDICTED SPECTRUM>  (1916) 
14 84
15 145
16 67
17 44
18 76
25 33
26 170
27 530
28 281
29 422
30 3
31 174
32 32
36 36
37 100
38 199
39 725
40 301
41 999
42 551
43 985
44 396
45 516
46 90
50 109
51 119
52 11
53 127
54 59
55 33
56 194
57 912
58 214
59 400
60 620
61 241
62 23
69 274
70 9
73 58
74 66
83 2
85 257
87 267
102 209

$$$$

     RDKit          2D

  7  6  0  0  0  0  0  0  0  0999 V2000
    1.6238    3.1875    0.0000 C   0  0  0  0  0  0  0  0  0  0  0  0
    0.3248    3.9375    0.0000 C   0  0  0  0  0  0  0  0  0  0  0  0
   -0.9743    3.1875    0.0000 C   0  0  0  0  0  0  0  0  0  0  0  0
   -2.2733    3.9375    0.0000 C   0  0  0  0  0  0  0  0  0  0  0  0
   -3.5724    3.1875    0.0000 C   0  0  0  0  0  0  0  0  0  0  0  0
   -3.5724    1.6875    0.0000 O   0  0  0  0  0  0  0  0  0  0  0  0
   -4.8714    3.9375    0.0000 O   0  0  0  0  0  0  0  0  0  0  0  0
  2  1  1  0
  3  2  1  0
  4  3  1  0
  5  4  1  0
  6  5  2  0
  7  5  1  0
M  END
>  <NAME>  (1917) 
VALERIC ACID

>  <SYNONYMS>  (1917) 


>  <SPECTRUM TYPE>  (1917) 
MS1

>  <INSTRUMENT TYPE>  (1917) 
EI-B

>  <INSTRUMENT>  (1917) 
HITACHI M-80B

>  <ION MODE>  (1917) 
P

>  <INCHIKEY>  (1917) 
NQPDZGIKBAWPEJ-UHFFFAOYSA-N

>  <FORMULA>  (1917) 
C5H10O2

>  <EXACT MASS>  (1917) 
102.06807956

>  <MW>  (1917) 
102

>  <ID>  (1917) 
JP009179

>  <CONTRIBUTOR>  (1917) 
University of Tokyo Team, {Faculty of Engineering, University of Tokyo

>  <COMMENT>  (1917) 
SMILES=CCCCC(O)=O
InChI=InChI=1S/C5H10O2/c1-2-3-4-5(6)7/h2-4H2,1H3,(H,6,7)
computed SMILES=O=C(O)CCCC
accession=JP009179
date=2016.01.19 (Created 2008.10.21, modified 2011.05.06)
author=SODA AROMATIC CO., LTD.
license=CC BY-NC-SA
exact mass=102.06808
ionization energy=70 eV
ion type=[M]+*
computed spectral entropy=2.351254291024735
computed normalized entropy=0.7498831536922422
SPLASH=splash10-03di-9000000000-2160417549a364f722df
submitter=submitter = University of Tokyo Team (Faculty of Engineering, University of Tokyo)
MoNA Rating=3.75

>  <NUM PEAKS>  (1917) 
23

>  <MASS SPECTRAL PEAKS>  (1917) 
15 1.78
18 1.98
26 3.19
27 25.05
28 8.4
29 21.5
31 2.07
38 1.08
39 12.87
40 1.34
41 21.36
42 10.1
43 9.63
45 13.84
53 1.08
55 7.75
56 4.02
57 2.09
60 99.99
61 3.08
73 35.27
74 2.23
87 1.46

>  <PREDICTED SPECTRUM>  (1917) 
14 20
26 60
27 313
28 63
29 255
31 152
37 26
38 72
39 469
40 155
41 905
42 508
43 854
44 213
45 433
46 87
49 6
50 81
51 1
53 135
54 127
55 438
56 390
57 800
58 38
59 121
60 999
61 291
62 33
69 227
73 629
74 182
75 30
85 353
87 166
102 116

$$$$

     RDKit          2D

  6  5  0  0  0  0  0  0  0  0999 V2000
   -0.0000   -0.0000    0.0000 C   0  0  0  0  0  0  0  0  0  0  0  0
    1.2990    2.2500    0.0000 C   0  0  0  0  0  0  0  0  0  0  0  0
   -0.0000    1.5000    0.0000 C   0  0  0  0  0  0  0  0  0  0  0  0
   -1.2990    2.2500    0.0000 C   0  0  0  0  0  0  0  0  0  0  0  0
   -2.5981    1.5000    0.0000 O   0  0  0  0  0  0  0  0  0  0  0  0
   -1.2990    3.7500    0.0000 O   0  0  0  0  0  0  0  0  0  0  0  0
  3  1  1  0
  3  2  1  0
  4  3  1  0
  5  4  2  0
  6  4  1  0
M  END
>  <NAME>  (1918) 
ISOBUTRIC ACID

>  <SYNONYMS>  (1918) 


>  <SPECTRUM TYPE>  (1918) 
MS1

>  <INSTRUMENT TYPE>  (1918) 
EI-B

>  <INSTRUMENT>  (1918) 
HITACHI M-80B

>  <ION MODE>  (1918) 
P

>  <INCHIKEY>  (1918) 
KQNPFQTWMSNSAP-UHFFFAOYSA-N

>  <FORMULA>  (1918) 
C4H8O2

>  <EXACT MASS>  (1918) 
88.052429496

>  <MW>  (1918) 
88

>  <ID>  (1918) 
JP009178

>  <CONTRIBUTOR>  (1918) 
University of Tokyo Team, {Faculty of Engineering, University of Tokyo

>  <COMMENT>  (1918) 
computed SMILES=O=C(O)C(C)C
SMILES=CC(C)C(O)=O
InChI=InChI=1S/C4H8O2/c1-3(2)4(5)6/h3H,1-2H3,(H,5,6)
accession=JP009178
date=2016.01.19 (Created 2008.10.21, modified 2011.05.06)
author=SODA AROMATIC CO., LTD.
license=CC BY-NC-SA
exact mass=88.05243
ionization energy=70 eV
ion type=[M]+*
computed spectral entropy=2.1446751009364626
computed normalized entropy=0.7159101365196846
SPLASH=splash10-0006-9000000000-e8e4dc7f7f3f492ec19c
submitter=submitter = University of Tokyo Team (Faculty of Engineering, University of Tokyo)
MoNA Rating=3.75

>  <NUM PEAKS>  (1918) 
20

>  <MASS SPECTRAL PEAKS>  (1918) 
15 2.92
26 3.4
27 33.72
28 2.73
29 4.75
31 1.35
37 1.55
38 2.76
39 14.64
40 2.11
41 46.34
42 8.81
43 99.99
44 2.96
45 10.44
55 4.12
60 1.39
71 2.05
73 23.1
88 6.96

>  <PREDICTED SPECTRUM>  (1918) 
14 78
15 183
16 11
17 11
18 44
19 54
25 33
26 195
27 622
28 361
29 540
31 210
32 46
37 107
38 168
39 595
40 243
41 876
42 488
43 999
44 293
45 882
46 261
47 64
53 124
54 142
55 339
56 140
57 218
58 2
59 89
60 298
61 103
69 5
70 1
71 107
73 443
74 37
87 16
88 592
89 144
90 7

$$$$

     RDKit          2D

  6  5  0  0  0  0  0  0  0  0999 V2000
    1.2990    2.2500    0.0000 C   0  0  0  0  0  0  0  0  0  0  0  0
    0.0000    3.0000    0.0000 C   0  0  0  0  0  0  0  0  0  0  0  0
   -1.2990    2.2500    0.0000 C   0  0  0  0  0  0  0  0  0  0  0  0
   -2.5981    3.0000    0.0000 C   0  0  0  0  0  0  0  0  0  0  0  0
   -2.5981    4.5000    0.0000 O   0  0  0  0  0  0  0  0  0  0  0  0
   -3.8971    2.2500    0.0000 O   0  0  0  0  0  0  0  0  0  0  0  0
  2  1  1  0
  3  2  1  0
  4  3  1  0
  5  4  2  0
  6  4  1  0
M  END
>  <NAME>  (1919) 
BUTYRIC ACID

>  <SYNONYMS>  (1919) 


>  <SPECTRUM TYPE>  (1919) 
MS1

>  <INSTRUMENT TYPE>  (1919) 
EI-B

>  <INSTRUMENT>  (1919) 
HITACHI M-80B

>  <ION MODE>  (1919) 
P

>  <INCHIKEY>  (1919) 
FERIUCNNQQJTOY-UHFFFAOYSA-N

>  <FORMULA>  (1919) 
C4H8O2

>  <EXACT MASS>  (1919) 
88.052429496

>  <MW>  (1919) 
88

>  <ID>  (1919) 
JP009177

>  <CONTRIBUTOR>  (1919) 
University of Tokyo Team, {Faculty of Engineering, University of Tokyo

>  <COMMENT>  (1919) 
SMILES=CCCC(O)=O
InChI=InChI=1S/C4H8O2/c1-2-3-4(5)6/h2-3H2,1H3,(H,5,6)
computed SMILES=O=C(O)CCC
accession=JP009177
date=2016.01.19 (Created 2008.10.21, modified 2011.05.06)
author=SODA AROMATIC CO., LTD.
license=CC BY-NC-SA
exact mass=88.05243
ionization energy=70 eV
ion type=[M]+*
computed spectral entropy=2.3988402107197553
computed normalized entropy=0.7548142161132371
SPLASH=splash10-03dl-9000000000-032fc35b394786b5896a
submitter=submitter = University of Tokyo Team (Faculty of Engineering, University of Tokyo)
MoNA Rating=3.75

>  <NUM PEAKS>  (1919) 
24

>  <MASS SPECTRAL PEAKS>  (1919) 
14 1.08
15 2.62
26 4.02
27 32.6
28 5.92
29 14.17
31 1.73
37 1.75
38 2.96
39 16.99
40 2.21
41 24.41
42 21.65
43 16.5
45 19.5
55 5.81
60 99.99
61 2.03
69 1.37
71 2.23
73 30.27
74 1.23
87 1.21
88 1.97

>  <PREDICTED SPECTRUM>  (1919) 
14 52
15 90
16 5
17 2
18 15
25 3
26 113
27 420
28 222
29 333
31 133
32 11
37 15
38 49
39 357
40 144
41 861
42 553
43 999
44 55
45 604
46 239
47 59
53 169
54 79
55 405
57 5
59 121
60 627
61 163
70 19
71 118
73 526
74 86
88 371
89 56

$$$$

     RDKit          2D

  6  5  0  0  0  0  0  0  0  0999 V2000
    1.2990    2.2500    0.0000 C   0  0  0  0  0  0  0  0  0  0  0  0
    0.0000    3.0000    0.0000 C   0  0  0  0  0  0  0  0  0  0  0  0
   -1.2990    2.2500    0.0000 C   0  0  0  0  0  0  0  0  0  0  0  0
   -2.5981    3.0000    0.0000 C   0  0  0  0  0  0  0  0  0  0  0  0
   -2.5981    4.5000    0.0000 O   0  0  0  0  0  0  0  0  0  0  0  0
   -3.8971    2.2500    0.0000 O   0  0  0  0  0  0  0  0  0  0  0  0
  2  1  1  0
  2  3  2  0
  4  3  1  0
  5  4  2  0
  6  4  1  0
M  END
>  <NAME>  (1920) 
CROTONIC ACID

>  <SYNONYMS>  (1920) 


>  <SPECTRUM TYPE>  (1920) 
MS1

>  <INSTRUMENT TYPE>  (1920) 
EI-B

>  <INSTRUMENT>  (1920) 
HITACHI M-80B

>  <ION MODE>  (1920) 
P

>  <INCHIKEY>  (1920) 
LDHQCZJRKDOVOX-NSCUHMNNSA-N

>  <FORMULA>  (1920) 
C4H6O2

>  <EXACT MASS>  (1920) 
86.036779432

>  <MW>  (1920) 
86

>  <ID>  (1920) 
JP009176

>  <CONTRIBUTOR>  (1920) 
University of Tokyo Team, {Faculty of Engineering, University of Tokyo

>  <COMMENT>  (1920) 
SMILES=CC=CC(O)=O
InChI=InChI=1S/C4H6O2/c1-2-3-4(5)6/h2-3H,1H3,(H,5,6)/b3-2+
computed SMILES=O=C(O)C=CC
accession=JP009176
date=2016.01.19 (Created 2008.10.21, modified 2011.05.06)
author=SODA AROMATIC CO., LTD.
license=CC BY-NC-SA
exact mass=86.03678
ionization energy=70 eV
ion type=[M]+*
computed spectral entropy=2.658161791254966
computed normalized entropy=0.7669833668248127
SPLASH=splash10-000l-9000000000-c066ee0b8aa28cc564f5
submitter=submitter = University of Tokyo Team (Faculty of Engineering, University of Tokyo)
MoNA Rating=3.75

>  <NUM PEAKS>  (1920) 
32

>  <MASS SPECTRAL PEAKS>  (1920) 
14 1.29
15 5.87
18 2
25 1.41
26 8.59
27 17.52
28 1.72
29 9.82
30 1.2
31 2.55
36 1.48
37 13.25
38 24.6
39 99.99
40 27.32
41 88.95
42 13.81
43 6.99
44 1.98
45 28.28
53 2.84
55 2.09
57 6.71
58 1.76
60 2.17
68 36.18
69 38.11
70 1.33
71 11.89
85 2.4
86 90.05
87 4.62

>  <PREDICTED SPECTRUM>  (1920) 
15 5
17 9
18 3
25 37
26 101
27 245
28 47
29 188
36 46
37 173
38 263
39 820
40 499
41 999
42 292
43 309
44 243
45 437
46 125
47 35
49 39
50 125
51 134
55 60
57 168
58 181
59 24
60 55
67 216
68 484
69 930
70 117
71 366
85 251
86 968
87 244
88 49

$$$$

     RDKit          2D

  5  4  0  0  0  0  0  0  0  0999 V2000
   -0.0000   -0.0000    0.0000 C   0  0  0  0  0  0  0  0  0  0  0  0
    0.0000    1.5000    0.0000 C   0  0  0  0  0  0  0  0  0  0  0  0
   -1.2990    2.2500    0.0000 C   0  0  0  0  0  0  0  0  0  0  0  0
   -2.5981    1.5000    0.0000 O   0  0  0  0  0  0  0  0  0  0  0  0
   -1.2990    3.7500    0.0000 O   0  0  0  0  0  0  0  0  0  0  0  0
  2  1  1  0
  3  2  1  0
  4  3  2  0
  5  3  1  0
M  END
>  <NAME>  (1921) 
PROPIONIC ACID

>  <SYNONYMS>  (1921) 


>  <SPECTRUM TYPE>  (1921) 
MS1

>  <INSTRUMENT TYPE>  (1921) 
EI-B

>  <INSTRUMENT>  (1921) 
HITACHI M-80B

>  <ION MODE>  (1921) 
P

>  <INCHIKEY>  (1921) 
XBDQKXXYIPTUBI-UHFFFAOYSA-N

>  <FORMULA>  (1921) 
C3H6O2

>  <EXACT MASS>  (1921) 
74.036779432

>  <MW>  (1921) 
74

>  <ID>  (1921) 
JP009175

>  <CONTRIBUTOR>  (1921) 
University of Tokyo Team, {Faculty of Engineering, University of Tokyo

>  <COMMENT>  (1921) 
SMILES=CCC(O)=O
InChI=InChI=1S/C3H6O2/c1-2-3(4)5/h2H2,1H3,(H,4,5)
computed SMILES=O=C(O)CC
accession=JP009175
date=2016.01.19 (Created 2008.10.21, modified 2011.05.06)
author=SODA AROMATIC CO., LTD.
license=CC BY-NC-SA
exact mass=74.03678
ionization energy=70 eV
ion type=[M]+*
computed spectral entropy=2.4441420139384014
computed normalized entropy=0.7501748292033837
SPLASH=splash10-004i-9000000000-691dcd080b30c9898350
submitter=submitter = University of Tokyo Team (Faculty of Engineering, University of Tokyo)
MoNA Rating=3.75

>  <NUM PEAKS>  (1921) 
26

>  <MASS SPECTRAL PEAKS>  (1921) 
14 2.63
15 3.04
17 1.1
18 3.47
25 2.69
26 24.73
27 70.66
28 99.99
29 79.1
30 10.99
31 4.36
41 1.08
42 4.13
43 2.28
44 1.64
45 52.06
46 3.72
47 2.49
53 1.95
55 9.19
56 7.86
57 24.31
58 1.13
73 33.9
74 53.54
75 1.6

>  <PREDICTED SPECTRUM>  (1921) 
14 121
15 207
16 75
17 56
18 89
19 56
25 104
26 318
27 759
28 511
29 999
30 260
31 307
32 40
36 70
37 147
38 39
39 293
40 177
41 803
42 128
43 229
44 90
45 834
46 447
47 48
53 168
55 298
56 490
57 724
58 198
59 248
60 106
73 178
74 782
75 263

$$$$

     RDKit          2D

  4  3  0  0  0  0  0  0  0  0999 V2000
    0.9743    0.5625    0.0000 C   0  0  0  0  0  0  0  0  0  0  0  0
   -0.3248    1.3125    0.0000 C   0  0  0  0  0  0  0  0  0  0  0  0
   -0.3248    2.8125    0.0000 O   0  0  0  0  0  0  0  0  0  0  0  0
   -1.6238    0.5625    0.0000 O   0  0  0  0  0  0  0  0  0  0  0  0
  2  1  1  0
  3  2  2  0
  4  2  1  0
M  END
>  <NAME>  (1922) 
ACETIC ACID

>  <SYNONYMS>  (1922) 


>  <SPECTRUM TYPE>  (1922) 
MS1

>  <INSTRUMENT TYPE>  (1922) 
EI-B

>  <INSTRUMENT>  (1922) 
HITACHI M-80B

>  <ION MODE>  (1922) 
P

>  <INCHIKEY>  (1922) 
QTBSBXVTEAMEQO-UHFFFAOYSA-N

>  <FORMULA>  (1922) 
C2H4O2

>  <EXACT MASS>  (1922) 
60.021129368

>  <MW>  (1922) 
60

>  <ID>  (1922) 
JP009174

>  <CONTRIBUTOR>  (1922) 
University of Tokyo Team, {Faculty of Engineering, University of Tokyo

>  <COMMENT>  (1922) 
SMILES=CC(O)=O
InChI=InChI=1S/C2H4O2/c1-2(3)4/h1H3,(H,3,4)
computed SMILES=O=C(O)C
accession=JP009174
date=2016.01.19 (Created 2008.10.21, modified 2011.05.06)
author=SODA AROMATIC CO., LTD.
license=CC BY-NC-SA
exact mass=60.02113
ionization energy=70 eV
ion type=[M]+*
computed spectral entropy=1.8906394892833513
computed normalized entropy=0.6673127857631034
SPLASH=splash10-0007-9000000000-a9a21f72ec25efbc1650
submitter=submitter = University of Tokyo Team (Faculty of Engineering, University of Tokyo)
MoNA Rating=3.75

>  <NUM PEAKS>  (1922) 
17

>  <MASS SPECTRAL PEAKS>  (1922) 
13 2.97
14 6.75
15 27.87
16 2.28
17 1.26
28 2.2
29 10.41
31 3.68
40 1.07
41 3.58
42 12.14
43 99.99
44 3.72
45 86.74
46 1.08
60 50.22
61 1.02

>  <PREDICTED SPECTRUM>  (1922) 
14 120
15 236
16 73
17 40
18 62
19 41
25 73
26 195
27 339
28 272
29 397
31 217
32 53
36 34
37 31
40 60
41 242
42 338
43 999
44 281
45 478
46 77
57 49
59 92
60 526
61 140

$$$$

     RDKit          2D

 11 11  0  0  0  0  0  0  0  0999 V2000
   -3.9033    1.5020    0.0000 C   0  0  0  0  0  0  0  0  0  0  0  0
    5.1971   -0.7647    0.0000 C   0  0  0  0  0  0  0  0  0  0  0  0
   -2.6080    0.7456    0.0000 C   0  0  0  0  0  0  0  0  0  0  0  0
   -1.3052    1.4892    0.0000 C   0  0  0  0  0  0  0  0  0  0  0  0
    1.2891    1.4828    0.0000 C   0  0  0  0  0  0  0  0  0  0  0  0
   -0.0244   -0.7420    0.0000 C   0  0  0  0  0  0  0  0  0  0  0  0
    2.5736    0.7580    0.0000 C   0  0  0  0  0  0  0  0  0  0  0  0
    1.3001   -1.5362    0.0000 C   0  0  0  0  0  0  0  0  0  0  0  0
   -0.0099    0.7328    0.0000 C   0  0  0  0  0  0  0  0  0  0  0  0
    2.5991   -0.7862    0.0000 C   0  0  0  0  0  0  0  0  0  0  0  0
    3.9043   -1.5254    0.0000 O   0  0  0  0  0  0  0  0  0  0  0  0
  3  1  1  0
  4  3  1  0
  7  5  2  0
  8  6  1  0
  9  4  1  0
  9  5  1  0
  9  6  2  0
 10  7  1  0
 10  8  2  0
 11  2  1  0
 11 10  1  0
M  END
>  <NAME>  (1923) 
P-PROPYLANISOLE

>  <SYNONYMS>  (1923) 


>  <SPECTRUM TYPE>  (1923) 
MS1

>  <INSTRUMENT TYPE>  (1923) 
EI-B

>  <INSTRUMENT>  (1923) 
HITACHI M-80B

>  <ION MODE>  (1923) 
P

>  <INCHIKEY>  (1923) 
KBHWKXNXTURZCD-UHFFFAOYSA-N

>  <FORMULA>  (1923) 
C10H14O

>  <EXACT MASS>  (1923) 
150.104465068

>  <MW>  (1923) 
150

>  <ID>  (1923) 
JP009173

>  <CONTRIBUTOR>  (1923) 
University of Tokyo Team, {Faculty of Engineering, University of Tokyo

>  <COMMENT>  (1923) 
SMILES=CCCc(c1)ccc(OC)c1
InChI=InChI=1S/C10H14O/c1-3-4-9-5-7-10(11-2)8-6-9/h5-8H,3-4H2,1-2H3
computed SMILES=O(C1=CC=C(C=C1)CCC)C
accession=JP009173
date=2016.01.19 (Created 2008.10.21, modified 2011.05.06)
author=SODA AROMATIC CO., LTD.
license=CC BY-NC-SA
exact mass=150.10447
ionization energy=70 eV
ion type=[M]+*
computed spectral entropy=1.998470822458904
computed normalized entropy=0.6465361937321926
SPLASH=splash10-00di-4900000000-22bc0f8539c6db1ca5ad
submitter=submitter = University of Tokyo Team (Faculty of Engineering, University of Tokyo)
MoNA Rating=3.75

>  <NUM PEAKS>  (1923) 
22

>  <MASS SPECTRAL PEAKS>  (1923) 
15 1.82
27 4.61
29 2.87
39 4.52
41 2.29
50 1.41
51 4.62
52 2.5
53 1.41
63 2.24
64 1.07
65 4.94
77 8.98
78 9.93
79 1.55
89 1.72
90 1.24
91 7.33
121 99.99
122 8.08
150 18.17
151 1.68

>  <PREDICTED SPECTRUM>  (1923) 
14 4
15 47
16 1
26 72
27 190
28 62
29 192
30 101
32 10
37 15
38 90
39 276
40 94
41 197
42 19
43 40
50 149
51 266
52 176
53 161
54 21
55 92
62 99
63 199
64 150
65 259
66 118
67 76
74 116
75 86
76 78
77 385
78 320
79 184
80 19
89 189
90 167
91 453
92 171
93 72
94 60
102 110
103 95
105 98
106 166
107 271
108 94
109 16
115 3
119 131
121 999
122 341
123 116
134 34
135 243
136 31
149 74
150 533
151 183
152 11

$$$$

     RDKit          2D

 11 11  0  0  0  0  0  0  0  0999 V2000
   -3.9033    1.5020    0.0000 C   0  0  0  0  0  0  0  0  0  0  0  0
    5.1971   -0.7647    0.0000 C   0  0  0  0  0  0  0  0  0  0  0  0
   -2.6080    0.7456    0.0000 C   0  0  0  0  0  0  0  0  0  0  0  0
   -1.3052    1.4892    0.0000 C   0  0  0  0  0  0  0  0  0  0  0  0
    1.2891    1.4828    0.0000 C   0  0  0  0  0  0  0  0  0  0  0  0
   -0.0244   -0.7420    0.0000 C   0  0  0  0  0  0  0  0  0  0  0  0
    2.5736    0.7580    0.0000 C   0  0  0  0  0  0  0  0  0  0  0  0
    1.3001   -1.5362    0.0000 C   0  0  0  0  0  0  0  0  0  0  0  0
   -0.0099    0.7328    0.0000 C   0  0  0  0  0  0  0  0  0  0  0  0
    2.5991   -0.7862    0.0000 C   0  0  0  0  0  0  0  0  0  0  0  0
    3.9043   -1.5254    0.0000 O   0  0  0  0  0  0  0  0  0  0  0  0
  3  1  1  0
  3  4  2  0
  7  5  2  0
  8  6  1  0
  9  4  1  0
  9  5  1  0
  9  6  2  0
 10  7  1  0
 10  8  2  0
 11  2  1  0
 11 10  1  0
M  END
>  <NAME>  (1924) 
ANETHOLE

>  <SYNONYMS>  (1924) 


>  <SPECTRUM TYPE>  (1924) 
MS1

>  <INSTRUMENT TYPE>  (1924) 
EI-B

>  <INSTRUMENT>  (1924) 
HITACHI M-80B

>  <ION MODE>  (1924) 
P

>  <INCHIKEY>  (1924) 
RUVINXPYWBROJD-ONEGZZNKSA-N

>  <FORMULA>  (1924) 
C10H12O

>  <EXACT MASS>  (1924) 
148.088815004

>  <MW>  (1924) 
148

>  <ID>  (1924) 
JP009172

>  <CONTRIBUTOR>  (1924) 
University of Tokyo Team, {Faculty of Engineering, University of Tokyo

>  <COMMENT>  (1924) 
SMILES=CC=Cc(c1)ccc(OC)c1
InChI=InChI=1S/C10H12O/c1-3-4-9-5-7-10(11-2)8-6-9/h3-8H,1-2H3/b4-3+
computed SMILES=O(C1=CC=C(C=C1)C=CC)C
accession=JP009172
date=2016.01.19 (Created 2008.10.21, modified 2011.05.06)
author=SODA AROMATIC CO., LTD.
license=CC BY-NC-SA
exact mass=148.08882
ionization energy=70 eV
ion type=[M]+*
computed spectral entropy=3.064456355010984
computed normalized entropy=0.8004030771388313
SPLASH=splash10-0002-4900000000-719d9077568af9d0f6a4
submitter=submitter = University of Tokyo Team (Faculty of Engineering, University of Tokyo)
MoNA Rating=3.75

>  <NUM PEAKS>  (1924) 
46

>  <MASS SPECTRAL PEAKS>  (1924) 
15 4.39
27 4.55
38 1.17
39 7.08
41 2.44
50 3.72
51 8.04
52 3.22
53 3.3
55 3.95
62 1.93
63 6.37
64 1.81
65 5.31
74 2.86
75 1.77
76 1.77
77 21.84
78 7.52
79 14.6
89 3.74
90 1.21
91 11.94
92 1.61
93 1.41
102 2.59
103 12.03
104 3.4
105 20.08
106 1.51
107 1.38
115 12.57
116 4.69
117 23.25
118 2.55
119 1.82
121 15.95
122 1.19
131 2.75
132 2.48
133 21.36
134 1.75
146 1.47
147 39.77
148 99.99
149 8.94

>  <PREDICTED SPECTRUM>  (1924) 
14 31
15 121
25 0
26 88
27 234
28 92
29 115
31 1
37 45
38 125
39 317
40 114
41 178
42 62
43 90
45 12
49 5
50 249
51 375
52 222
53 199
54 31
55 121
57 44
58 27
61 41
62 161
63 291
64 163
65 294
66 123
67 38
72 42
73 28
74 152
75 180
76 151
77 488
78 315
79 248
80 79
86 19
87 58
89 255
90 115
91 491
92 185
93 48
94 71
101 12
102 219
103 261
104 236
105 459
106 95
107 109
108 93
115 509
116 315
117 573
118 287
119 187
120 68
121 312
122 62
131 108
132 202
133 578
134 246
135 25
145 26
146 71
147 658
148 999
149 299
150 55

$$$$

     RDKit          2D

 11 11  0  0  0  0  0  0  0  0999 V2000
   -3.9033    1.5020    0.0000 C   0  0  0  0  0  0  0  0  0  0  0  0
    5.1971   -0.7647    0.0000 C   0  0  0  0  0  0  0  0  0  0  0  0
   -2.6080    0.7456    0.0000 C   0  0  0  0  0  0  0  0  0  0  0  0
   -1.3052    1.4892    0.0000 C   0  0  0  0  0  0  0  0  0  0  0  0
    1.2891    1.4828    0.0000 C   0  0  0  0  0  0  0  0  0  0  0  0
   -0.0244   -0.7420    0.0000 C   0  0  0  0  0  0  0  0  0  0  0  0
    2.5736    0.7580    0.0000 C   0  0  0  0  0  0  0  0  0  0  0  0
    1.3001   -1.5362    0.0000 C   0  0  0  0  0  0  0  0  0  0  0  0
   -0.0099    0.7328    0.0000 C   0  0  0  0  0  0  0  0  0  0  0  0
    2.5991   -0.7862    0.0000 C   0  0  0  0  0  0  0  0  0  0  0  0
    3.9043   -1.5254    0.0000 O   0  0  0  0  0  0  0  0  0  0  0  0
  3  1  2  0
  4  3  1  0
  7  5  2  0
  8  6  1  0
  9  4  1  0
  9  5  1  0
  9  6  2  0
 10  7  1  0
 10  8  2  0
 11  2  1  0
 11 10  1  0
M  END
>  <NAME>  (1925) 
P-ALLYL ANISOLE

>  <SYNONYMS>  (1925) 


>  <SPECTRUM TYPE>  (1925) 
MS1

>  <INSTRUMENT TYPE>  (1925) 
EI-B

>  <INSTRUMENT>  (1925) 
HITACHI M-80B

>  <ION MODE>  (1925) 
P

>  <INCHIKEY>  (1925) 
ZFMSMUAANRJZFM-UHFFFAOYSA-N

>  <FORMULA>  (1925) 
C10H12O

>  <EXACT MASS>  (1925) 
148.088815004

>  <MW>  (1925) 
148

>  <ID>  (1925) 
JP009171

>  <CONTRIBUTOR>  (1925) 
University of Tokyo Team, {Faculty of Engineering, University of Tokyo

>  <COMMENT>  (1925) 
SMILES=C=CCc(c1)ccc(OC)c1
InChI=InChI=1S/C10H12O/c1-3-4-9-5-7-10(11-2)8-6-9/h3,5-8H,1,4H2,2H3
computed SMILES=O(C1=CC=C(C=C1)CC=C)C
accession=JP009171
date=2016.01.19 (Created 2008.10.21, modified 2011.05.06)
author=SODA AROMATIC CO., LTD.
license=CC BY-NC-SA
exact mass=148.08882
ionization energy=70 eV
ion type=[M]+*
computed spectral entropy=3.19723830582473
computed normalized entropy=0.8172851492407859
SPLASH=splash10-0002-5900000000-926e28a4944e333f20a8
submitter=submitter = University of Tokyo Team (Faculty of Engineering, University of Tokyo)
MoNA Rating=3.75

>  <NUM PEAKS>  (1925) 
50

>  <MASS SPECTRAL PEAKS>  (1925) 
15 6
26 1.18
27 7.13
29 1.55
38 2.05
39 13.41
41 3.75
43 1.19
50 5.67
51 14.01
52 5.95
53 3.5
55 5.14
62 2.58
63 6.96
64 2.72
65 6.32
66 1.06
74 1.93
75 2.04
76 2.23
77 24.65
78 17.68
79 12.04
89 4.22
90 1.41
91 19.59
92 2.29
93 1.25
102 2.38
103 12.21
104 3.61
105 21.61
106 2.07
107 1.96
115 16.34
116 7.15
117 29.66
118 2.83
119 2.13
121 36.25
122 2.5
131 2.68
132 2.86
133 21.65
134 1.56
146 1.61
147 43.21
148 99.99
149 8.5

>  <PREDICTED SPECTRUM>  (1925) 
14 32
15 117
16 6
17 3
18 17
25 5
26 88
27 237
28 81
29 94
30 28
31 19
32 28
33 11
34 7
37 73
38 145
39 372
40 129
41 240
42 32
43 102
45 71
46 15
49 25
50 251
51 379
52 215
53 201
54 52
55 129
57 72
58 91
61 73
62 183
63 331
64 206
65 269
66 105
67 78
68 21
69 85
70 73
71 54
72 61
73 30
74 169
75 181
76 162
77 484
78 353
79 280
80 111
81 34
82 29
85 30
86 61
87 89
88 22
89 290
90 152
91 504
92 219
93 114
94 88
101 61
102 238
103 324
104 215
105 415
106 184
107 202
108 209
109 25
115 519
116 290
117 486
118 280
119 171
120 46
121 439
122 179
128 13
129 23
131 184
132 245
133 813
134 392
135 110
145 132
146 118
147 541
148 999
149 323
150 97

$$$$

     RDKit          2D

  8  8  0  0  0  0  0  0  0  0999 V2000
    3.5281    0.5404    0.0000 C   0  0  0  0  0  0  0  0  0  0  0  0
   -1.6700   -0.9600    0.0000 C   0  0  0  0  0  0  0  0  0  0  0  0
   -1.6700    0.5400    0.0000 C   0  0  0  0  0  0  0  0  0  0  0  0
   -0.3700   -1.7100    0.0000 C   0  0  0  0  0  0  0  0  0  0  0  0
   -0.3700    1.2900    0.0000 C   0  0  0  0  0  0  0  0  0  0  0  0
    0.9300   -0.9600    0.0000 C   0  0  0  0  0  0  0  0  0  0  0  0
    0.9300    0.5400    0.0000 C   0  0  0  0  0  0  0  0  0  0  0  0
    2.2289    1.2902    0.0000 O   0  0  0  0  0  0  0  0  0  0  0  0
  3  2  2  0
  4  2  1  0
  5  3  1  0
  6  4  2  0
  7  5  2  0
  7  6  1  0
  8  1  1  0
  8  7  1  0
M  END
>  <NAME>  (1926) 
ANISOLE

>  <SYNONYMS>  (1926) 


>  <SPECTRUM TYPE>  (1926) 
MS1

>  <INSTRUMENT TYPE>  (1926) 
EI-B

>  <INSTRUMENT>  (1926) 
HITACHI M-80B

>  <ION MODE>  (1926) 
P

>  <INCHIKEY>  (1926) 
RDOXTESZEPMUJZ-UHFFFAOYSA-N

>  <FORMULA>  (1926) 
C7H8O

>  <EXACT MASS>  (1926) 
108.057514876

>  <MW>  (1926) 
108

>  <ID>  (1926) 
JP009170

>  <CONTRIBUTOR>  (1926) 
University of Tokyo Team, {Faculty of Engineering, University of Tokyo

>  <COMMENT>  (1926) 
SMILES=COc(c1)cccc1
InChI=InChI=1S/C7H8O/c1-8-7-5-3-2-4-6-7/h2-6H,1H3
computed SMILES=O(C=1C=CC=CC1)C
accession=JP009170
date=2016.01.19 (Created 2008.10.21, modified 2011.05.06)
author=SODA AROMATIC CO., LTD.
license=CC BY-NC-SA
exact mass=108.05751
ionization energy=70 eV
ion type=[M]+*
computed spectral entropy=2.5567235476762793
computed normalized entropy=0.74453496633212
SPLASH=splash10-0ar0-9300000000-03da541e1b0fc350901b
submitter=submitter = University of Tokyo Team (Faculty of Engineering, University of Tokyo)
MoNA Rating=3.75

>  <NUM PEAKS>  (1926) 
31

>  <MASS SPECTRAL PEAKS>  (1926) 
15 5.32
26 1.33
27 2.78
29 1.97
37 3.09
38 8.61
39 33.61
40 1.17
49 1
50 10.77
51 19.2
52 4.08
53 1.47
61 1.21
62 3.5
63 10.91
64 5.12
65 67.41
66 4.21
74 3.56
75 1.52
76 1.3
77 17.54
78 56.46
79 13.9
80 1.27
92 1.54
93 13.86
107 1.82
108 99.99
109 7.79

>  <PREDICTED SPECTRUM>  (1926) 
14 24
15 102
16 8
18 12
25 18
26 71
27 79
28 71
29 52
30 0
31 10
37 99
38 183
39 311
40 63
41 23
49 40
50 314
51 455
52 234
53 16
62 106
63 248
64 237
65 437
66 116
74 61
75 46
76 138
77 742
78 408
79 194
80 35
92 263
93 353
94 123
107 403
108 999
109 263
110 11

$$$$

     RDKit          2D

  8  8  0  0  0  0  0  0  0  0999 V2000
   -0.8441    1.1800    0.0000 C   0  0  0  0  0  0  0  0  0  0  0  0
    2.8520   -2.1829    0.0000 C   0  0  0  0  0  0  0  0  0  0  0  0
    1.3520   -2.1829    0.0000 C   0  0  0  0  0  0  0  0  0  0  0  0
    3.3120   -0.7529    0.0000 C   0  0  0  0  0  0  0  0  0  0  0  0
   -0.5341   -0.2876    0.0000 C   0  0  0  0  0  0  0  0  0  0  0  0
    0.8920   -0.7529    0.0000 C   0  0  0  0  0  0  0  0  0  0  0  0
   -1.6500   -1.2899    0.0000 O   0  0  0  0  0  0  0  0  0  0  0  0
    2.1020    0.1271    0.0000 S   0  0  0  0  0  0  0  0  0  0  0  0
  3  2  1  0
  4  2  2  0
  5  1  1  0
  6  3  2  0
  6  5  1  0
  7  5  2  0
  8  4  1  0
  8  6  1  0
M  END
>  <NAME>  (1927) 
2-ACETYLTHIOPHENE

>  <SYNONYMS>  (1927) 


>  <SPECTRUM TYPE>  (1927) 
MS1

>  <INSTRUMENT TYPE>  (1927) 
EI-B

>  <INSTRUMENT>  (1927) 
HITACHI M-80B

>  <ION MODE>  (1927) 
P

>  <INCHIKEY>  (1927) 
WYJOVVXUZNRJQY-UHFFFAOYSA-N

>  <FORMULA>  (1927) 
C6H6OS

>  <EXACT MASS>  (1927) 
126.013935812

>  <MW>  (1927) 
126

>  <ID>  (1927) 
JP009169

>  <CONTRIBUTOR>  (1927) 
University of Tokyo Team, {Faculty of Engineering, University of Tokyo

>  <COMMENT>  (1927) 
SMILES=CC(=O)c(c1)scc1
InChI=InChI=1S/C6H6OS/c1-5(7)6-3-2-4-8-6/h2-4H,1H3
computed SMILES=O=C(C=1SC=CC1)C
accession=JP009169
date=2016.01.19 (Created 2008.10.21, modified 2011.05.06)
author=SODA AROMATIC CO., LTD.
license=CC BY-NC-SA
exact mass=126.01394
ionization energy=70 eV
ion type=[M]+*
computed spectral entropy=2.323153973402103
computed normalized entropy=0.7048752920281982
SPLASH=splash10-03di-7900000000-857b33ff69870de2f340
submitter=submitter = University of Tokyo Team (Faculty of Engineering, University of Tokyo)
MoNA Rating=3.75

>  <NUM PEAKS>  (1927) 
27

>  <MASS SPECTRAL PEAKS>  (1927) 
15 3.62
26 1.16
27 1.31
37 2.53
38 3.77
39 32.52
42 1.95
43 18.09
45 11.43
49 1.37
50 2.76
51 1.68
53 1.94
57 9.72
58 3.7
69 2.85
81 2.63
82 3.04
83 12.82
84 2.14
97 1.09
111 99.99
112 6.74
113 3.59
126 41.99
127 2.54
128 1.54

>  <PREDICTED SPECTRUM>  (1927) 
14 29
15 125
25 11
26 62
27 122
28 49
29 86
33 25
34 5
36 10
37 113
38 180
39 443
40 154
41 146
42 57
43 726
44 138
45 351
47 61
49 14
50 180
51 227
52 117
53 209
54 42
55 108
57 213
58 142
59 8
61 20
62 5
63 32
65 136
66 40
67 59
68 39
69 218
70 6
77 78
81 105
82 154
83 318
84 201
85 163
86 0
97 188
111 999
112 297
113 232
114 7
126 653
127 233
128 173
129 11

$$$$

     RDKit          2D

 13 14  0  0  0  0  0  0  0  0999 V2000
    8.0963   -1.8816    0.0000 C   0  0  0  0  0  0  0  0  0  0  0  0
   -1.1700   -1.2200    0.0000 C   0  0  0  0  0  0  0  0  0  0  0  0
    7.3463   -0.5826    0.0000 C   0  0  0  0  0  0  0  0  0  0  0  0
    0.3300   -1.2200    0.0000 C   0  0  0  0  0  0  0  0  0  0  0  0
    7.0965   -2.9900    0.0000 C   0  0  0  0  0  0  0  0  0  0  0  0
   -1.6300    0.2000    0.0000 C   0  0  0  0  0  0  0  0  0  0  0  0
    4.7678    0.1193    0.0000 C   0  0  0  0  0  0  0  0  0  0  0  0
    2.2271    0.6621    0.0000 C   0  0  0  0  0  0  0  0  0  0  0  0
    5.8815   -0.8855    0.0000 C   0  0  0  0  0  0  0  0  0  0  0  0
    0.8000    0.2000    0.0000 C   0  0  0  0  0  0  0  0  0  0  0  0
    5.7294   -2.3821    0.0000 O   0  0  0  0  0  0  0  0  0  0  0  0
   -0.4200    1.0800    0.0000 O   0  0  0  0  0  0  0  0  0  0  0  0
    3.3407   -0.3428    0.0000 S   0  0  0  0  0  0  0  0  0  0  0  0
  3  1  1  0
  4  2  1  0
  5  1  2  0
  6  2  2  0
  9  3  2  0
  9  7  1  0
 10  4  2  0
 10  8  1  0
 11  5  1  0
 11  9  1  0
 12  6  1  0
 12 10  1  0
 13  7  1  0
 13  8  1  0
M  END
>  <NAME>  (1928) 
DIFURFURYL SULFIDE

>  <SYNONYMS>  (1928) 


>  <SPECTRUM TYPE>  (1928) 
MS1

>  <INSTRUMENT TYPE>  (1928) 
EI-B

>  <INSTRUMENT>  (1928) 
HITACHI M-80B

>  <ION MODE>  (1928) 
P

>  <INCHIKEY>  (1928) 
UYLKDZXJEKFFHJ-UHFFFAOYSA-N

>  <FORMULA>  (1928) 
C10H10O2S

>  <EXACT MASS>  (1928) 
194.04015056

>  <MW>  (1928) 
194

>  <ID>  (1928) 
JP009168

>  <CONTRIBUTOR>  (1928) 
University of Tokyo Team, {Faculty of Engineering, University of Tokyo

>  <COMMENT>  (1928) 
SMILES=c(c2)cc(o2)CSCc(c1)occ1
InChI=InChI=1S/C10H10O2S/c1-3-9(11-5-1)7-13-8-10-4-2-6-12-10/h1-6H,7-8H2
computed SMILES=O1C=CC=C1CSCC=2OC=CC2
accession=JP009168
date=2016.01.19 (Created 2008.10.21, modified 2011.05.06)
author=SODA AROMATIC CO., LTD.
license=CC BY-NC-SA
exact mass=194.04015
ionization energy=70 eV
ion type=[M]+*
computed spectral entropy=2.221477425266955
computed normalized entropy=0.7084935491130091
SPLASH=splash10-001i-9100000000-ee8816bbffcfcc47f2dd
submitter=submitter = University of Tokyo Team (Faculty of Engineering, University of Tokyo)
MoNA Rating=3.75

>  <NUM PEAKS>  (1928) 
23

>  <MASS SPECTRAL PEAKS>  (1928) 
26 1.15
27 13.36
29 1.75
38 1.35
39 5.73
41 1.93
45 14.35
50 3.39
51 6.67
52 4.53
53 26.3
54 1.14
58 1.61
59 1.74
69 1.72
81 99.99
82 9.05
85 6.45
112 1.71
113 13.47
126 5.62
194 12.22
195 1.19

>  <PREDICTED SPECTRUM>  (1928) 
28 29
33 7
34 14
37 33
38 69
39 168
40 79
41 79
42 78
43 170
44 30
45 161
49 16
50 122
51 185
52 183
53 445
54 111
55 96
56 23
57 39
58 44
59 22
60 62
61 45
62 28
63 25
64 21
67 73
68 60
69 145
70 4
71 87
76 39
78 33
81 999
82 256
83 123
84 106
85 69
91 13
95 2
96 8
97 30
99 8
113 164
114 78
115 67
119 17
127 4
165 21
194 354
195 134
196 86
197 12

$$$$

     RDKit          2D

  7  7  0  0  0  0  0  0  0  0999 V2000
   -1.8372   -1.0620    0.0000 C   0  0  0  0  0  0  0  0  0  0  0  0
   -1.0872    0.2371    0.0000 C   0  0  0  0  0  0  0  0  0  0  0  0
   -0.8287   -2.1754    0.0000 C   0  0  0  0  0  0  0  0  0  0  0  0
    1.4972    0.9228    0.0000 C   0  0  0  0  0  0  0  0  0  0  0  0
    0.3813   -0.0796    0.0000 C   0  0  0  0  0  0  0  0  0  0  0  0
    2.9232    0.4575    0.0000 O   0  0  0  0  0  0  0  0  0  0  0  0
    0.5384   -1.5675    0.0000 S   0  0  0  0  0  0  0  0  0  0  0  0
  2  1  1  0
  3  1  2  0
  5  2  2  0
  5  4  1  0
  6  4  2  0
  7  3  1  0
  7  5  1  0
M  END
>  <NAME>  (1929) 
2-FORMYLTHIOPHENE

>  <SYNONYMS>  (1929) 


>  <SPECTRUM TYPE>  (1929) 
MS1

>  <INSTRUMENT TYPE>  (1929) 
EI-B

>  <INSTRUMENT>  (1929) 
HITACHI M-80B

>  <ION MODE>  (1929) 
P

>  <INCHIKEY>  (1929) 
CNUDBTRUORMMPA-UHFFFAOYSA-N

>  <FORMULA>  (1929) 
C5H4OS

>  <EXACT MASS>  (1929) 
111.998285748

>  <MW>  (1929) 
112

>  <ID>  (1929) 
JP009167

>  <CONTRIBUTOR>  (1929) 
University of Tokyo Team, {Faculty of Engineering, University of Tokyo

>  <COMMENT>  (1929) 
SMILES=O=Cc(c1)scc1
InChI=InChI=1S/C5H4OS/c6-4-5-2-1-3-7-5/h1-4H
computed SMILES=O=CC=1SC=CC1
accession=JP009167
date=2016.01.19 (Created 2008.10.21, modified 2011.05.06)
author=SODA AROMATIC CO., LTD.
license=CC BY-NC-SA
exact mass=111.99829
ionization energy=70 eV
ion type=[M]+*
computed spectral entropy=2.3789866089124154
computed normalized entropy=0.7301768321318935
SPLASH=splash10-03di-7900000000-d6371ed8fe6f2eccb3cc
submitter=submitter = University of Tokyo Team (Faculty of Engineering, University of Tokyo)
MoNA Rating=3.75

>  <NUM PEAKS>  (1929) 
26

>  <MASS SPECTRAL PEAKS>  (1929) 
26 2.11
29 8.68
32 1.27
37 6.5
38 9.33
39 35.18
40 1.53
42 1.31
44 1.37
45 22.82
49 2.56
50 6.31
51 2.57
53 2.2
56 1.09
57 16.35
58 14.16
69 3.49
81 6.09
82 5.44
83 11.66
84 4.13
111 99.99
112 93.95
113 10.71
114 4.43

>  <PREDICTED SPECTRUM>  (1929) 
14 15
15 5
16 5
25 59
26 120
27 147
28 99
29 264
30 41
31 24
32 20
33 38
34 18
35 23
36 78
37 273
38 338
39 494
40 164
44 108
45 413
47 72
48 39
49 196
50 287
51 300
52 138
53 228
54 55
55 252
56 124
57 443
58 328
59 54
60 109
61 200
62 49
63 229
64 11
65 148
66 85
67 20
68 71
69 327
70 165
71 35
73 51
80 13
81 244
82 305
83 569
84 321
85 184
86 101
93 156
96 43
110 57
111 999
112 875
113 377
114 196
115 8

$$$$

     RDKit          2D

 12 12  0  0  0  0  0  0  0  0999 V2000
   -3.3589    1.0947    0.0000 C   0  0  0  0  0  0  0  0  0  0  0  0
   -3.9180   -0.9516    0.0000 C   0  0  0  0  0  0  0  0  0  0  0  0
   -1.8717   -1.5107    0.0000 C   0  0  0  0  0  0  0  0  0  0  0  0
    3.9054    2.0571    0.0000 C   0  0  0  0  0  0  0  0  0  0  0  0
   -1.3126    2.0356    0.0000 C   0  0  0  0  0  0  0  0  0  0  0  0
   -0.0426   -0.2144    0.0000 C   0  0  0  0  0  0  0  0  0  0  0  0
   -0.0426    2.7856    0.0000 C   0  0  0  0  0  0  0  0  0  0  0  0
    1.3074    0.5356    0.0000 C   0  0  0  0  0  0  0  0  0  0  0  0
   -1.3126    0.5356    0.0000 C   0  0  0  0  0  0  0  0  0  0  0  0
    1.3074    2.0356    0.0000 C   0  0  0  0  0  0  0  0  0  0  0  0
   -2.6153   -0.2080    0.0000 C   0  0  0  0  0  0  0  0  0  0  0  0
    2.6002    2.7963    0.0000 O   0  0  0  0  0  0  0  0  0  0  0  0
  7  5  2  0
  8  6  1  0
  9  5  1  0
  9  6  2  0
 10  7  1  0
 10  8  2  0
 11  1  1  0
 11  2  1  0
 11  3  1  0
 11  9  1  0
 12  4  1  0
 12 10  1  0
M  END
>  <NAME>  (1930) 
P-TERT-BUTYLPHENYL METHYL ETHER

>  <SYNONYMS>  (1930) 


>  <SPECTRUM TYPE>  (1930) 
MS1

>  <INSTRUMENT TYPE>  (1930) 
EI-B

>  <INSTRUMENT>  (1930) 
HITACHI M-80B

>  <ION MODE>  (1930) 
P

>  <INCHIKEY>  (1930) 
MCUPBIBNSTXCPQ-UHFFFAOYSA-N

>  <FORMULA>  (1930) 
C11H16O

>  <EXACT MASS>  (1930) 
164.120115132

>  <MW>  (1930) 
164

>  <ID>  (1930) 
JP009166

>  <CONTRIBUTOR>  (1930) 
University of Tokyo Team, {Faculty of Engineering, University of Tokyo

>  <COMMENT>  (1930) 
SMILES=COc(c1)ccc(c1)C(C)(C)C
InChI=InChI=1S/C11H16O/c1-11(2,3)9-5-7-10(12-4)8-6-9/h5-8H,1-4H3
computed SMILES=O(C1=CC=C(C=C1)C(C)(C)C)C
accession=JP009166
date=2016.01.19 (Created 2008.10.21, modified 2011.05.06)
author=SODA AROMATIC CO., LTD.
license=CC BY-NC-SA
exact mass=164.12012
ionization energy=70 eV
ion type=[M]+*
computed spectral entropy=2.4923462342957547
computed normalized entropy=0.7010132879231116
SPLASH=splash10-0002-3900000000-f59281d4602b73b08ce6
submitter=submitter = University of Tokyo Team (Faculty of Engineering, University of Tokyo)
MoNA Rating=3.75

>  <NUM PEAKS>  (1930) 
35

>  <MASS SPECTRAL PEAKS>  (1930) 
15 3.18
27 2.47
29 1.79
39 6.54
41 10.66
50 1.36
51 2.83
52 1.16
53 1.41
55 1.2
63 2.62
64 1.35
65 3.41
77 8.5
78 3.06
79 2.63
89 1.52
90 1.09
91 10.5
92 1.33
94 2.4
103 1.77
105 1.83
109 11.69
115 1.63
117 1.15
119 1.19
121 18.13
122 1.54
133 2.26
134 1.57
149 99.99
150 10.46
164 20.92
165 1.95

>  <PREDICTED SPECTRUM>  (1930) 
15 55
26 13
27 122
28 29
29 150
33 7
37 17
38 68
39 248
40 70
41 339
42 52
43 80
45 17
50 119
51 217
52 142
53 169
54 55
55 172
56 4
57 189
58 6
60 25
61 32
62 74
63 157
64 119
65 209
66 113
67 113
68 23
69 8
71 40
72 30
73 42
74 82
75 95
76 74
77 336
78 215
79 206
80 89
81 76
86 16
87 1
88 37
89 165
90 92
91 357
92 149
93 183
94 89
95 85
101 7
102 85
103 206
104 118
105 229
106 141
107 173
108 115
109 153
110 24
115 141
116 115
117 198
118 90
119 184
120 62
121 426
122 165
123 4
131 56
132 5
133 186
134 139
135 54
145 32
146 10
147 88
148 33
149 999
150 316
151 59
164 470
165 140

$$$$

     RDKit          2D

  7  6  0  0  0  0  0  0  0  0999 V2000
    1.6238    3.1875    0.0000 C   0  0  0  0  0  0  0  0  0  0  0  0
   -4.8714    3.9375    0.0000 C   0  0  0  0  0  0  0  0  0  0  0  0
    0.3248    3.9375    0.0000 C   0  0  0  0  0  0  0  0  0  0  0  0
   -0.9743    3.1875    0.0000 C   0  0  0  0  0  0  0  0  0  0  0  0
   -3.5724    3.1875    0.0000 C   0  0  0  0  0  0  0  0  0  0  0  0
   -3.5724    1.6875    0.0000 O   0  0  0  0  0  0  0  0  0  0  0  0
   -2.2733    3.9375    0.0000 S   0  0  0  0  0  0  0  0  0  0  0  0
  3  1  1  0
  4  3  1  0
  5  2  1  0
  6  5  2  0
  7  4  1  0
  7  5  1  0
M  END
>  <NAME>  (1931) 
S-PROPYL THIOACETATE

>  <SYNONYMS>  (1931) 


>  <SPECTRUM TYPE>  (1931) 
MS1

>  <INSTRUMENT TYPE>  (1931) 
EI-B

>  <INSTRUMENT>  (1931) 
HITACHI M-80B

>  <ION MODE>  (1931) 
P

>  <INCHIKEY>  (1931) 
SBWFWBJCYMBZEY-UHFFFAOYSA-N

>  <FORMULA>  (1931) 
C5H10OS

>  <EXACT MASS>  (1931) 
118.04523594

>  <MW>  (1931) 
118

>  <ID>  (1931) 
JP009165

>  <CONTRIBUTOR>  (1931) 
University of Tokyo Team, {Faculty of Engineering, University of Tokyo

>  <COMMENT>  (1931) 
SMILES=CCCSC(C)=O
InChI=InChI=1S/C5H10OS/c1-3-4-7-5(2)6/h3-4H2,1-2H3
computed SMILES=O=C(SCCC)C
accession=JP009165
date=2016.01.19 (Created 2008.10.21, modified 2011.05.06)
author=SODA AROMATIC CO., LTD.
license=CC BY-NC-SA
exact mass=118.04524
ionization energy=70 eV
ion type=[M]+*
computed spectral entropy=1.851660673017758
computed normalized entropy=0.6288670562097899
SPLASH=splash10-0006-9000000000-9d59c00678babcad2e23
submitter=submitter = University of Tokyo Team (Faculty of Engineering, University of Tokyo)
MoNA Rating=3.75

>  <NUM PEAKS>  (1931) 
19

>  <MASS SPECTRAL PEAKS>  (1931) 
15 3.56
27 6.71
29 1.2
39 5.68
41 8.46
42 6.84
43 99.99
44 2.1
45 5.43
46 2.4
47 5.75
58 1.46
59 1.55
61 1.13
74 3.58
75 2.48
76 3.39
77 3.17
118 11.82

>  <PREDICTED SPECTRUM>  (1931) 
14 40
15 98
25 1
26 52
27 209
29 73
33 47
34 18
35 2
38 34
39 271
40 102
41 435
42 270
43 999
44 242
45 330
46 129
47 284
50 12
51 62
53 12
58 117
59 207
60 8
61 69
63 8
66 9
74 39
75 433
76 349
77 152
78 65
103 9
118 349
119 77
120 29

$$$$

     RDKit          2D

  6  5  0  0  0  0  0  0  0  0999 V2000
    1.2990    2.2500    0.0000 C   0  0  0  0  0  0  0  0  0  0  0  0
   -3.8971    2.2500    0.0000 C   0  0  0  0  0  0  0  0  0  0  0  0
    0.0000    3.0000    0.0000 C   0  0  0  0  0  0  0  0  0  0  0  0
   -2.5981    3.0000    0.0000 C   0  0  0  0  0  0  0  0  0  0  0  0
   -2.5981    4.5000    0.0000 O   0  0  0  0  0  0  0  0  0  0  0  0
   -1.2990    2.2500    0.0000 S   0  0  0  0  0  0  0  0  0  0  0  0
  3  1  1  0
  4  2  1  0
  5  4  2  0
  6  3  1  0
  6  4  1  0
M  END
>  <NAME>  (1932) 
S-ETHYL THIOACETATE

>  <SYNONYMS>  (1932) 


>  <SPECTRUM TYPE>  (1932) 
MS1

>  <INSTRUMENT TYPE>  (1932) 
EI-B

>  <INSTRUMENT>  (1932) 
HITACHI M-80B

>  <ION MODE>  (1932) 
P

>  <INCHIKEY>  (1932) 
APTGPWJUOYMUCE-UHFFFAOYSA-N

>  <FORMULA>  (1932) 
C4H8OS

>  <EXACT MASS>  (1932) 
104.029585876

>  <MW>  (1932) 
104

>  <ID>  (1932) 
JP009164

>  <CONTRIBUTOR>  (1932) 
University of Tokyo Team, {Faculty of Engineering, University of Tokyo

>  <COMMENT>  (1932) 
SMILES=CCSC(C)=O
InChI=InChI=1S/C4H8OS/c1-3-6-4(2)5/h3H2,1-2H3
computed SMILES=O=C(SCC)C
accession=JP009164
date=2016.01.19 (Created 2008.10.21, modified 2011.05.06)
author=SODA AROMATIC CO., LTD.
license=CC BY-NC-SA
exact mass=104.02959
ionization energy=70 eV
ion type=[M]+*
computed spectral entropy=1.9295634712851908
computed normalized entropy=0.6337819841222928
SPLASH=splash10-0006-9100000000-ed6927b9e2dbf4a5f682
submitter=submitter = University of Tokyo Team (Faculty of Engineering, University of Tokyo)
MoNA Rating=3.75

>  <NUM PEAKS>  (1932) 
21

>  <MASS SPECTRAL PEAKS>  (1932) 
15 6.4
26 1.92
27 10.79
28 1.24
29 7.65
35 2.33
42 3.26
43 99.99
44 2.26
45 5.77
46 2.8
47 4.64
57 1.34
58 3
59 2.67
60 1.38
61 4.8
62 2.5
104 29.49
105 1.32
106 1.28

>  <PREDICTED SPECTRUM>  (1932) 
14 41
15 79
25 14
26 62
27 211
28 110
29 240
32 26
33 88
34 61
35 43
39 144
40 43
41 215
42 87
43 999
44 217
45 311
46 127
47 151
57 61
58 85
59 282
60 174
61 273
62 133
71 50
75 290
76 131
104 555
105 150
106 132

$$$$

     RDKit          2D

  6  5  0  0  0  0  0  0  0  0999 V2000
   -4.5466    3.3750    0.0000 C   0  0  0  0  0  0  0  0  0  0  0  0
   -3.2476    2.6250    0.0000 C   0  0  0  0  0  0  0  0  0  0  0  0
    0.6495    3.3750    0.0000 C   0  0  0  0  0  0  0  0  0  0  0  0
   -0.6495    2.6250    0.0000 C   0  0  0  0  0  0  0  0  0  0  0  0
    1.9486    2.6250    0.0000 O   0  0  0  0  0  0  0  0  0  0  0  0
   -1.9486    3.3750    0.0000 S   0  0  0  0  0  0  0  0  0  0  0  0
  2  1  1  0
  4  3  1  0
  5  3  1  0
  6  2  1  0
  6  4  1  0
M  END
>  <NAME>  (1933) 
2-(ETHYLTHIO)ETHANOL

>  <SYNONYMS>  (1933) 


>  <SPECTRUM TYPE>  (1933) 
MS1

>  <INSTRUMENT TYPE>  (1933) 
EI-B

>  <INSTRUMENT>  (1933) 
HITACHI M-80B

>  <ION MODE>  (1933) 
P

>  <INCHIKEY>  (1933) 
LNRIEBFNWGMXKP-UHFFFAOYSA-N

>  <FORMULA>  (1933) 
C4H10OS

>  <EXACT MASS>  (1933) 
106.04523594

>  <MW>  (1933) 
106

>  <ID>  (1933) 
JP009163

>  <CONTRIBUTOR>  (1933) 
University of Tokyo Team, {Faculty of Engineering, University of Tokyo

>  <COMMENT>  (1933) 
SMILES=OCCSCC
InChI=InChI=1S/C4H10OS/c1-2-6-4-3-5/h5H,2-4H2,1H3
computed SMILES=OCCSCC
accession=JP009163
date=2016.01.19 (Created 2008.10.21, modified 2011.05.06)
author=SODA AROMATIC CO., LTD.
license=CC BY-NC-SA
exact mass=106.04524
ionization energy=70 eV
ion type=[M]+*
computed spectral entropy=2.844160089303838
computed normalized entropy=0.8282384062436423
SPLASH=splash10-004j-9100000000-cea282d37595be14a5c8
submitter=submitter = University of Tokyo Team (Faculty of Engineering, University of Tokyo)
MoNA Rating=3.75

>  <NUM PEAKS>  (1933) 
31

>  <MASS SPECTRAL PEAKS>  (1933) 
14 1.06
15 4
19 1.46
26 6.11
27 31.65
28 3.96
29 26.17
31 16.57
35 6.3
41 6.78
42 2.31
43 7.76
44 6.51
45 29.39
46 14.77
47 63.17
48 8.31
49 2.94
57 2.11
58 6.86
59 14.68
60 13.67
61 21.15
62 11.52
63 13.33
75 99.99
76 6.35
77 6.19
106 48.31
107 2.45
108 1.91

>  <PREDICTED SPECTRUM>  (1933) 
14 11
15 65
19 14
25 36
26 127
27 385
28 148
29 408
30 116
31 355
32 77
33 151
34 115
35 333
36 58
37 27
38 35
39 32
40 70
41 455
42 200
43 237
44 314
45 792
46 619
47 843
48 422
49 247
50 31
53 63
54 61
55 143
57 217
58 381
59 435
60 494
61 999
62 364
63 337
64 15
73 26
75 703
76 331
77 286
78 64
88 235
89 180
90 108
106 916
107 250
108 176

$$$$

     RDKit          2D

  8  8  0  0  0  0  0  0  0  0999 V2000
    2.2733   -0.6175    0.0000 C   0  0  0  0  0  0  0  0  0  0  0  0
    2.2738    0.8833    0.0000 C   0  0  0  0  0  0  0  0  0  0  0  0
    0.9738   -1.3683    0.0000 C   0  0  0  0  0  0  0  0  0  0  0  0
    0.9748    1.6333    0.0000 C   0  0  0  0  0  0  0  0  0  0  0  0
   -0.3252   -0.6183    0.0000 C   0  0  0  0  0  0  0  0  0  0  0  0
   -1.6238    1.6325    0.0000 C   0  0  0  0  0  0  0  0  0  0  0  0
   -0.3248    0.8825    0.0000 C   0  0  0  0  0  0  0  0  0  0  0  0
   -2.9228    0.8825    0.0000 S   0  0  0  0  0  0  0  0  0  0  0  0
  2  1  2  0
  3  1  1  0
  4  2  1  0
  5  3  2  0
  7  4  2  0
  7  5  1  0
  7  6  1  0
  8  6  1  0
M  END
>  <NAME>  (1934) 
PHENYLMETHANETHIOL

>  <SYNONYMS>  (1934) 


>  <SPECTRUM TYPE>  (1934) 
MS1

>  <INSTRUMENT TYPE>  (1934) 
EI-B

>  <INSTRUMENT>  (1934) 
HITACHI M-80B

>  <ION MODE>  (1934) 
P

>  <INCHIKEY>  (1934) 
UENWRTRMUIOCKN-UHFFFAOYSA-N

>  <FORMULA>  (1934) 
C7H8S

>  <EXACT MASS>  (1934) 
124.034671256

>  <MW>  (1934) 
124

>  <ID>  (1934) 
JP009162

>  <CONTRIBUTOR>  (1934) 
University of Tokyo Team, {Faculty of Engineering, University of Tokyo

>  <COMMENT>  (1934) 
SMILES=SCc(c1)cccc1
InChI=InChI=1S/C7H8S/c8-6-7-4-2-1-3-5-7/h1-5,8H,6H2
computed SMILES=SCC=1C=CC=CC1
accession=JP009162
date=2016.01.19 (Created 2008.10.21, modified 2011.05.06)
author=SODA AROMATIC CO., LTD.
license=CC BY-NC-SA
exact mass=124.03467
ionization energy=70 eV
ion type=[M]+*
computed spectral entropy=2.2688750553933197
computed normalized entropy=0.688406358578046
SPLASH=splash10-0006-9100000000-b022260ca59a5bfe044e
submitter=submitter = University of Tokyo Team (Faculty of Engineering, University of Tokyo)
MoNA Rating=3.75

>  <NUM PEAKS>  (1934) 
27

>  <MASS SPECTRAL PEAKS>  (1934) 
27 1.65
33 1.7
38 2.82
39 11.45
41 1.2
45 12.95
47 1.13
50 4.95
51 8.84
52 1.64
61 1.41
62 4.11
63 7.98
64 1.67
65 14.73
69 1.38
77 4.68
78 1.53
79 1.11
89 4.55
90 1.57
91 99.99
92 8.11
121 1.65
124 30.4
125 2.61
126 1.2

>  <PREDICTED SPECTRUM>  (1934) 
25 9
26 32
27 101
28 21
29 53
32 44
33 33
34 33
35 20
36 0
37 38
38 103
39 277
40 58
41 189
45 252
46 61
47 49
49 1
50 132
51 221
52 77
53 5
56 4
57 69
58 75
60 24
61 38
62 84
63 213
64 117
65 385
66 92
69 164
74 41
76 25
77 206
78 104
79 65
82 17
88 1
89 181
90 156
91 999
92 474
93 90
109 27
121 192
122 143
123 117
124 328
125 183
126 82
127 16

$$$$

     RDKit          2D

  7  7  0  0  0  0  0  0  0  0999 V2000
   -1.6700   -0.9600    0.0000 C   0  0  0  0  0  0  0  0  0  0  0  0
   -0.3700   -1.7100    0.0000 C   0  0  0  0  0  0  0  0  0  0  0  0
   -1.6700    0.5400    0.0000 C   0  0  0  0  0  0  0  0  0  0  0  0
    0.9300   -0.9600    0.0000 C   0  0  0  0  0  0  0  0  0  0  0  0
   -0.3700    1.2900    0.0000 C   0  0  0  0  0  0  0  0  0  0  0  0
    0.9300    0.5400    0.0000 C   0  0  0  0  0  0  0  0  0  0  0  0
    2.2289    1.2902    0.0000 S   0  0  0  0  0  0  0  0  0  0  0  0
  2  1  2  0
  3  1  1  0
  4  2  1  0
  5  3  2  0
  6  4  2  0
  6  5  1  0
  7  6  1  0
M  END
>  <NAME>  (1935) 
BENZENETHIOL

>  <SYNONYMS>  (1935) 


>  <SPECTRUM TYPE>  (1935) 
MS1

>  <INSTRUMENT TYPE>  (1935) 
EI-B

>  <INSTRUMENT>  (1935) 
HITACHI M-80B

>  <ION MODE>  (1935) 
P

>  <INCHIKEY>  (1935) 
RMVRSNDYEFQCLF-UHFFFAOYSA-N

>  <FORMULA>  (1935) 
C6H6S

>  <EXACT MASS>  (1935) 
110.019021192

>  <MW>  (1935) 
110

>  <ID>  (1935) 
JP009161

>  <CONTRIBUTOR>  (1935) 
University of Tokyo Team, {Faculty of Engineering, University of Tokyo

>  <COMMENT>  (1935) 
SMILES=Sc(c1)cccc1
InChI=InChI=1S/C6H6S/c7-6-4-2-1-3-5-6/h1-5,7H
computed SMILES=SC=1C=CC=CC1
accession=JP009161
date=2016.01.19 (Created 2008.10.21, modified 2011.05.06)
author=SODA AROMATIC CO., LTD.
license=CC BY-NC-SA
exact mass=110.01902
ionization energy=70 eV
ion type=[M]+*
computed spectral entropy=2.9509322134652924
computed normalized entropy=0.7895112502802194
SPLASH=splash10-03xr-9400000000-963c74e11e0fee28cded
submitter=submitter = University of Tokyo Team (Faculty of Engineering, University of Tokyo)
MoNA Rating=3.75

>  <NUM PEAKS>  (1935) 
42

>  <MASS SPECTRAL PEAKS>  (1935) 
26 1.92
27 3.94
33 1.84
37 4.37
38 6.68
39 21.5
40 1.04
45 12.78
49 1.91
50 14.54
51 19.39
52 1.55
54 1.39
55 4.12
57 4.42
58 5.84
59 1.3
61 1.72
62 2.21
63 5.06
65 14.35
66 38.72
67 1.44
69 15.28
70 1.34
71 3.06
73 1.16
74 4.88
75 1.86
76 1.4
77 15.49
78 2.11
81 3.31
82 5.02
83 1.93
84 18.06
95 1.58
108 2.7
109 22.59
110 99.99
111 7.94
112 4.39

>  <PREDICTED SPECTRUM>  (1935) 
14 3
18 0
25 56
26 118
27 157
31 24
32 39
33 76
34 42
36 32
37 209
38 257
39 468
40 101
41 112
43 108
44 100
45 478
46 84
47 99
49 108
50 369
51 485
52 210
53 147
54 37
56 80
57 288
58 325
59 199
60 92
61 185
62 192
63 329
64 187
65 332
66 244
67 99
68 116
69 435
70 189
71 247
73 83
74 189
75 203
76 166
77 515
78 340
79 79
80 79
81 151
82 278
83 194
84 250
85 42
86 54
89 5
90 140
91 54
92 100
93 79
94 77
95 101
96 24
97 16
107 142
108 366
109 841
110 999
111 330
112 231
113 33

$$$$

     RDKit          2D

  7  7  0  0  0  0  0  0  0  0999 V2000
   -1.1700   -1.2200    0.0000 C   0  0  0  0  0  0  0  0  0  0  0  0
    0.3300   -1.2200    0.0000 C   0  0  0  0  0  0  0  0  0  0  0  0
   -1.6300    0.2000    0.0000 C   0  0  0  0  0  0  0  0  0  0  0  0
    2.2271    0.6621    0.0000 C   0  0  0  0  0  0  0  0  0  0  0  0
    0.8000    0.2000    0.0000 C   0  0  0  0  0  0  0  0  0  0  0  0
   -0.4200    1.0800    0.0000 O   0  0  0  0  0  0  0  0  0  0  0  0
    3.3407   -0.3428    0.0000 S   0  0  0  0  0  0  0  0  0  0  0  0
  2  1  1  0
  3  1  2  0
  5  2  2  0
  5  4  1  0
  6  3  1  0
  6  5  1  0
  7  4  1  0
M  END
>  <NAME>  (1936) 
FURFURYL MERCAPTAN

>  <SYNONYMS>  (1936) 


>  <SPECTRUM TYPE>  (1936) 
MS1

>  <INSTRUMENT TYPE>  (1936) 
EI-B

>  <INSTRUMENT>  (1936) 
HITACHI M-80B

>  <ION MODE>  (1936) 
P

>  <INCHIKEY>  (1936) 
ZFFTZDQKIXPDAF-UHFFFAOYSA-N

>  <FORMULA>  (1936) 
C5H6OS

>  <EXACT MASS>  (1936) 
114.013935812

>  <MW>  (1936) 
114

>  <ID>  (1936) 
JP009160

>  <CONTRIBUTOR>  (1936) 
University of Tokyo Team, {Faculty of Engineering, University of Tokyo

>  <COMMENT>  (1936) 
SMILES=SCc(c1)occ1
InChI=InChI=1S/C5H6OS/c7-4-5-2-1-3-6-5/h1-3,7H,4H2
computed SMILES=SCC=1OC=CC1
accession=JP009160
date=2016.01.19 (Created 2008.10.21, modified 2011.05.06)
author=SODA AROMATIC CO., LTD.
license=CC BY-NC-SA
exact mass=114.01394
ionization energy=70 eV
ion type=[M]+*
computed spectral entropy=2.544390372941928
computed normalized entropy=0.7556183066196914
SPLASH=splash10-0ue9-9100000000-01c988ea4c8eef60d16c
submitter=submitter = University of Tokyo Team (Faculty of Engineering, University of Tokyo)
MoNA Rating=3.75

>  <NUM PEAKS>  (1936) 
29

>  <MASS SPECTRAL PEAKS>  (1936) 
26 4.81
27 22.08
29 6.67
32 1.15
33 4.4
37 3.84
38 6.45
39 11.35
41 2.56
42 2.49
45 19.53
46 1.95
47 3.85
49 2.24
50 11.82
51 17.78
52 11.59
53 77.79
54 4.04
57 2.71
58 4.14
59 3.21
69 2.07
81 99.99
82 8.42
85 4.14
114 38.14
115 2.34
116 1.46

>  <PREDICTED SPECTRUM>  (1936) 
14 12
15 8
17 5
18 33
25 13
26 63
27 85
28 13
29 4
32 45
33 15
34 9
37 72
38 105
39 331
40 63
41 155
42 31
43 11
45 138
46 7
49 48
50 189
51 280
52 91
53 485
54 121
55 117
57 103
58 61
59 58
60 74
61 9
62 8
63 54
68 79
69 134
70 21
71 107
72 29
73 17
74 11
81 999
82 196
83 63
84 15
85 114
86 72
87 44
95 26
97 92
113 40
114 468
115 149
116 54

$$$$

     RDKit          2D

  7  7  0  0  0  0  0  0  0  0999 V2000
   -1.6700   -0.9600    0.0000 C   0  0  0  0  0  0  0  0  0  0  0  0
   -0.3700   -1.7100    0.0000 C   0  0  0  0  0  0  0  0  0  0  0  0
   -1.6700    0.5400    0.0000 C   0  0  0  0  0  0  0  0  0  0  0  0
    0.9300   -0.9600    0.0000 C   0  0  0  0  0  0  0  0  0  0  0  0
   -0.3700    1.2900    0.0000 C   0  0  0  0  0  0  0  0  0  0  0  0
    0.9300    0.5400    0.0000 C   0  0  0  0  0  0  0  0  0  0  0  0
    2.2289    1.2902    0.0000 S   0  0  0  0  0  0  0  0  0  0  0  0
  2  1  1  0
  3  1  1  0
  4  2  1  0
  5  3  1  0
  6  4  1  0
  6  5  1  0
  7  6  1  0
M  END
>  <NAME>  (1937) 
CYCLOHEXANETHIOL

>  <SYNONYMS>  (1937) 


>  <SPECTRUM TYPE>  (1937) 
MS1

>  <INSTRUMENT TYPE>  (1937) 
EI-B

>  <INSTRUMENT>  (1937) 
HITACHI M-80B

>  <ION MODE>  (1937) 
P

>  <INCHIKEY>  (1937) 
CMKBCTPCXZNQKX-UHFFFAOYSA-N

>  <FORMULA>  (1937) 
C6H12S

>  <EXACT MASS>  (1937) 
116.065971384

>  <MW>  (1937) 
116

>  <ID>  (1937) 
JP009159

>  <CONTRIBUTOR>  (1937) 
University of Tokyo Team, {Faculty of Engineering, University of Tokyo

>  <COMMENT>  (1937) 
SMILES=SC(C1)CCCC1
InChI=InChI=1S/C6H12S/c7-6-4-2-1-3-5-6/h6-7H,1-5H2
computed SMILES=SC1CCCCC1
accession=JP009159
date=2016.01.19 (Created 2008.10.21, modified 2011.05.06)
author=SODA AROMATIC CO., LTD.
license=CC BY-NC-SA
exact mass=116.06597
ionization energy=70 eV
ion type=[M]+*
computed spectral entropy=2.9090588292437367
computed normalized entropy=0.768740235206345
SPLASH=splash10-05o0-9000000000-80ad1bdf81528f9efd7a
submitter=submitter = University of Tokyo Team (Faculty of Engineering, University of Tokyo)
MoNA Rating=3.75

>  <NUM PEAKS>  (1937) 
44

>  <MASS SPECTRAL PEAKS>  (1937) 
26 1.47
27 16.46
28 3.07
29 10.89
33 1.91
38 1.05
39 24.01
40 2.45
41 55.49
42 3.13
43 3.45
45 15.4
46 1.53
47 9.31
50 1.49
51 2.79
52 1.37
53 11.25
54 28.63
55 99.99
56 4.79
58 3.07
59 6.74
60 10.99
61 3.04
65 1.91
66 1.35
67 72.72
68 4.38
69 1.82
71 1.96
73 10.06
74 1.41
77 2.07
79 4.52
81 10.8
82 62.27
83 66.35
84 3.42
85 1.07
87 1.49
116 54.19
117 3.74
118 2.15

>  <PREDICTED SPECTRUM>  (1937) 
26 142
27 469
28 205
29 305
32 38
33 2
34 67
35 39
37 1
38 48
39 502
40 159
41 769
42 211
43 90
44 239
45 334
46 151
47 374
48 53
49 138
50 170
51 278
52 122
53 392
54 668
55 999
56 332
57 159
59 216
60 346
61 295
62 182
63 143
64 33
65 187
66 44
67 820
68 87
69 183
70 86
71 133
72 168
73 303
74 268
75 165
76 73
77 207
78 135
79 330
80 191
81 691
82 791
83 826
84 214
85 155
87 225
88 23
101 11
114 81
115 171
116 688
117 199
118 131

$$$$

     RDKit          2D

  6  5  0  0  0  0  0  0  0  0999 V2000
   -4.5466    3.3750    0.0000 C   0  0  0  0  0  0  0  0  0  0  0  0
   -3.2476    2.6250    0.0000 C   0  0  0  0  0  0  0  0  0  0  0  0
   -1.9486    3.3750    0.0000 C   0  0  0  0  0  0  0  0  0  0  0  0
   -0.6495    2.6250    0.0000 C   0  0  0  0  0  0  0  0  0  0  0  0
    0.6495    3.3750    0.0000 C   0  0  0  0  0  0  0  0  0  0  0  0
    1.9486    2.6250    0.0000 S   0  0  0  0  0  0  0  0  0  0  0  0
  2  1  1  0
  3  2  1  0
  4  3  1  0
  5  4  1  0
  6  5  1  0
M  END
>  <NAME>  (1938) 
PENTANETHIOL

>  <SYNONYMS>  (1938) 


>  <SPECTRUM TYPE>  (1938) 
MS1

>  <INSTRUMENT TYPE>  (1938) 
EI-B

>  <INSTRUMENT>  (1938) 
HITACHI M-80B

>  <ION MODE>  (1938) 
P

>  <INCHIKEY>  (1938) 
ZRKMQKLGEQPLNS-UHFFFAOYSA-N

>  <FORMULA>  (1938) 
C5H12S

>  <EXACT MASS>  (1938) 
104.065971384

>  <MW>  (1938) 
104

>  <ID>  (1938) 
JP009158

>  <CONTRIBUTOR>  (1938) 
University of Tokyo Team, {Faculty of Engineering, University of Tokyo

>  <COMMENT>  (1938) 
SMILES=CCCCCS
InChI=InChI=1S/C5H12S/c1-2-3-4-5-6/h6H,2-5H2,1H3
computed SMILES=SCCCCC
accession=JP009158
date=2016.01.19 (Created 2008.10.21, modified 2011.05.06)
author=SODA AROMATIC CO., LTD.
license=CC BY-NC-SA
exact mass=104.06597
ionization energy=70 eV
ion type=[M]+*
computed spectral entropy=2.7996914263612207
computed normalized entropy=0.8078201873661364
SPLASH=splash10-0006-9000000000-29c734288b44fcc8d749
submitter=submitter = University of Tokyo Team (Faculty of Engineering, University of Tokyo)
MoNA Rating=3.75

>  <NUM PEAKS>  (1938) 
32

>  <MASS SPECTRAL PEAKS>  (1938) 
15 2.71
26 4.3
27 27.28
28 3.18
29 25.91
33 1.11
35 4.54
39 19.61
40 4.68
41 39.73
42 99.99
43 20.24
45 10.8
46 5.77
47 23.53
49 2.58
51 1.21
53 3.64
55 45.59
56 4.82
57 4.16
58 1.54
59 4.32
60 3.2
61 13.36
62 2.54
69 3.61
70 37.96
71 4.72
104 33.97
105 2.81
106 1.4

>  <PREDICTED SPECTRUM>  (1938) 
14 25
15 72
16 0
19 9
25 21
26 191
27 719
28 283
29 712
30 63
31 36
32 98
33 119
34 310
35 218
36 51
37 65
38 89
39 547
40 177
41 999
42 574
43 770
45 237
46 368
47 601
48 297
49 173
50 26
51 79
53 199
54 249
55 855
56 609
57 334
58 43
60 3
61 401
62 189
64 16
68 0
69 70
70 653
71 267
72 18
75 150
89 13
104 728
105 169
106 171

$$$$

     RDKit          2D

  6  5  0  0  0  0  0  0  0  0999 V2000
    0.0000    0.0000    0.0000 C   0  0  0  0  0  0  0  0  0  0  0  0
    1.2990    2.2500    0.0000 C   0  0  0  0  0  0  0  0  0  0  0  0
   -1.2990    2.2500    0.0000 C   0  0  0  0  0  0  0  0  0  0  0  0
   -1.2990    3.7500    0.0000 C   0  0  0  0  0  0  0  0  0  0  0  0
    0.0000    1.5000    0.0000 C   0  0  0  0  0  0  0  0  0  0  0  0
   -2.5981    4.5000    0.0000 S   0  0  0  0  0  0  0  0  0  0  0  0
  4  3  1  0
  5  1  1  0
  5  2  1  0
  5  3  1  0
  6  4  1  0
M  END
>  <NAME>  (1939) 
3-METHYL-1-BUTANETHIOL

>  <SYNONYMS>  (1939) 


>  <SPECTRUM TYPE>  (1939) 
MS1

>  <INSTRUMENT TYPE>  (1939) 
EI-B

>  <INSTRUMENT>  (1939) 
HITACHI M-80B

>  <ION MODE>  (1939) 
P

>  <INCHIKEY>  (1939) 
GIJGXNFNUUFEGH-UHFFFAOYSA-N

>  <FORMULA>  (1939) 
C5H12S

>  <EXACT MASS>  (1939) 
104.065971384

>  <MW>  (1939) 
104

>  <ID>  (1939) 
JP009157

>  <CONTRIBUTOR>  (1939) 
University of Tokyo Team, {Faculty of Engineering, University of Tokyo

>  <COMMENT>  (1939) 
SMILES=CC(C)CCS
InChI=InChI=1S/C5H12S/c1-5(2)3-4-6/h5-6H,3-4H2,1-2H3
computed SMILES=SCCC(C)C
accession=JP009157
date=2016.01.19 (Created 2008.10.21, modified 2011.05.06)
author=SODA AROMATIC CO., LTD.
license=CC BY-NC-SA
exact mass=104.06597
ionization energy=70 eV
ion type=[M]+*
computed spectral entropy=2.8632729147029505
computed normalized entropy=0.7815544519983286
SPLASH=splash10-0596-9000000000-008ee604b11d844c1846
submitter=submitter = University of Tokyo Team (Faculty of Engineering, University of Tokyo)
MoNA Rating=3.75

>  <NUM PEAKS>  (1939) 
39

>  <MASS SPECTRAL PEAKS>  (1939) 
15 2.41
26 2.24
27 30.95
28 5.12
29 20.84
33 1.7
34 1.53
35 4.7
38 1.7
39 25.11
40 3.17
41 46.89
42 36.3
43 37.31
44 1.19
45 12.1
46 4.99
47 34.12
48 1.47
49 1.52
50 1.3
51 1.84
53 4.38
54 2.03
55 99.99
56 6.93
57 6.48
58 3.47
59 4.68
60 5.84
61 31.2
62 2.22
63 1.44
69 3.41
70 90.2
71 6.64
104 39.16
105 2.71
106 1.55

>  <PREDICTED SPECTRUM>  (1939) 
14 5
15 65
26 114
27 562
28 231
29 533
30 108
32 58
33 134
34 160
35 139
36 27
37 17
38 46
39 423
40 143
41 855
42 492
43 999
44 135
45 183
46 235
47 459
48 174
49 144
53 149
54 93
55 526
56 588
57 315
58 81
61 279
62 115
63 12
69 251
70 522
71 241
72 61
75 137
89 70
103 8
104 681
105 202
106 118

$$$$

     RDKit          2D

  6  5  0  0  0  0  0  0  0  0999 V2000
    0.0000    0.0000    0.0000 C   0  0  0  0  0  0  0  0  0  0  0  0
   -0.5490    3.5490    0.0000 C   0  0  0  0  0  0  0  0  0  0  0  0
   -2.5981    3.0000    0.0000 C   0  0  0  0  0  0  0  0  0  0  0  0
    0.0000    1.5000    0.0000 C   0  0  0  0  0  0  0  0  0  0  0  0
   -1.2990    2.2500    0.0000 C   0  0  0  0  0  0  0  0  0  0  0  0
   -2.0490    0.9510    0.0000 S   0  0  0  0  0  0  0  0  0  0  0  0
  4  1  1  0
  5  2  1  0
  5  3  1  0
  5  4  1  0
  6  5  1  0
M  END
>  <NAME>  (1940) 
2-METHYL-2-BUTANETHIOL

>  <SYNONYMS>  (1940) 


>  <SPECTRUM TYPE>  (1940) 
MS1

>  <INSTRUMENT TYPE>  (1940) 
EI-B

>  <INSTRUMENT>  (1940) 
HITACHI M-80B

>  <ION MODE>  (1940) 
P

>  <INCHIKEY>  (1940) 
IQIBYAHJXQVQGB-UHFFFAOYSA-N

>  <FORMULA>  (1940) 
C5H12S

>  <EXACT MASS>  (1940) 
104.065971384

>  <MW>  (1940) 
104

>  <ID>  (1940) 
JP009156

>  <CONTRIBUTOR>  (1940) 
University of Tokyo Team, {Faculty of Engineering, University of Tokyo

>  <COMMENT>  (1940) 
SMILES=CCC(C)(C)S
InChI=InChI=1S/C5H12S/c1-4-5(2,3)6/h6H,4H2,1-3H3
computed SMILES=SC(C)(C)CC
accession=JP009156
date=2016.01.19 (Created 2008.10.21, modified 2011.05.06)
author=SODA AROMATIC CO., LTD.
license=CC BY-NC-SA
exact mass=104.06597
ionization energy=70 eV
ion type=[M]+*
computed spectral entropy=2.732058091113244
computed normalized entropy=0.8289421479848376
SPLASH=splash10-002f-9000000000-8fe8afd33a8a6e8b082d
submitter=submitter = University of Tokyo Team (Faculty of Engineering, University of Tokyo)
MoNA Rating=3.75

>  <NUM PEAKS>  (1940) 
27

>  <MASS SPECTRAL PEAKS>  (1940) 
14 3.78
26 4.33
27 24.17
29 26.46
39 27.71
40 4.56
41 49.98
42 9.29
43 99.99
45 6.89
47 11.5
50 3.82
51 4.68
53 7.5
55 41.05
58 5.35
59 11.61
61 3.83
69 4.13
70 6.74
71 68.26
72 5.38
75 25.84
89 4.01
104 34.78
105 3.3
106 3.4

>  <PREDICTED SPECTRUM>  (1940) 
14 32
15 55
25 18
26 162
27 489
28 235
29 485
31 83
32 84
33 69
34 40
35 45
37 42
38 117
39 557
40 217
41 999
42 358
43 813
44 85
45 266
46 138
47 401
48 15
49 79
50 104
51 120
52 72
53 319
54 72
55 602
56 420
57 767
59 398
60 88
61 228
62 132
63 79
67 25
69 412
70 268
71 563
72 239
73 40
74 198
75 829
76 207
77 132
89 53
104 599
105 138
106 58

$$$$

     RDKit          2D

  5  4  0  0  0  0  0  0  0  0999 V2000
   -1.2990    0.7500    0.0000 C   0  0  0  0  0  0  0  0  0  0  0  0
    0.7500    0.2010    0.0000 C   0  0  0  0  0  0  0  0  0  0  0  0
    1.2990    2.2500    0.0000 C   0  0  0  0  0  0  0  0  0  0  0  0
    0.0000    1.5000    0.0000 C   0  0  0  0  0  0  0  0  0  0  0  0
   -0.7500    2.7990    0.0000 S   0  0  0  0  0  0  0  0  0  0  0  0
  4  1  1  0
  4  2  1  0
  4  3  1  0
  5  4  1  0
M  END
>  <NAME>  (1941) 
TERT-BUTANETHIOL

>  <SYNONYMS>  (1941) 


>  <SPECTRUM TYPE>  (1941) 
MS1

>  <INSTRUMENT TYPE>  (1941) 
EI-B

>  <INSTRUMENT>  (1941) 
HITACHI M-80B

>  <ION MODE>  (1941) 
P

>  <INCHIKEY>  (1941) 
WMXCDAVJEZZYLT-UHFFFAOYSA-N

>  <FORMULA>  (1941) 
C4H10S

>  <EXACT MASS>  (1941) 
90.05032132

>  <MW>  (1941) 
90

>  <ID>  (1941) 
JP009155

>  <CONTRIBUTOR>  (1941) 
University of Tokyo Team, {Faculty of Engineering, University of Tokyo

>  <COMMENT>  (1941) 
SMILES=CC(C)(C)S
InChI=InChI=1S/C4H10S/c1-4(2,3)5/h5H,1-3H3
computed SMILES=SC(C)(C)C
accession=JP009155
date=2016.01.19 (Created 2008.10.21, modified 2011.05.06)
author=SODA AROMATIC CO., LTD.
license=CC BY-NC-SA
exact mass=90.05032
ionization energy=70 eV
ion type=[M]+*
computed spectral entropy=2.4558064284999186
computed normalized entropy=0.7451237814076606
SPLASH=splash10-054o-9000000000-2edc0ac235fad52ff9c3
submitter=submitter = University of Tokyo Team (Faculty of Engineering, University of Tokyo)
MoNA Rating=3.75

>  <NUM PEAKS>  (1941) 
27

>  <MASS SPECTRAL PEAKS>  (1941) 
15 5.41
26 2.82
27 20.32
28 3.14
29 55.83
33 5.24
37 1.56
38 4.12
39 37.1
40 4.12
41 99.99
42 4.64
45 6.9
47 10
49 2.92
50 2.45
51 2.18
53 2.45
55 6.19
56 3.06
57 97.55
58 4.75
59 10.74
75 19.4
90 35.93
91 1.35
92 1.36

>  <PREDICTED SPECTRUM>  (1941) 
14 54
15 81
16 1
18 6
25 22
26 139
27 370
28 186
29 325
31 47
32 84
33 175
34 191
35 29
37 35
38 93
39 563
40 158
41 999
42 240
43 622
44 51
45 384
46 61
47 309
49 37
50 75
51 69
53 261
54 35
55 432
56 603
57 906
58 327
59 552
60 224
61 148
62 4
63 3
73 1
75 385
76 3
88 122
89 53
90 467
91 149
92 34

$$$$

     RDKit          2D

  4  3  0  0  0  0  0  0  0  0999 V2000
   -2.5981    2.2500    0.0000 C   0  0  0  0  0  0  0  0  0  0  0  0
   -1.2990    1.5000    0.0000 C   0  0  0  0  0  0  0  0  0  0  0  0
    0.0000    2.2500    0.0000 C   0  0  0  0  0  0  0  0  0  0  0  0
    1.2990    1.5000    0.0000 S   0  0  0  0  0  0  0  0  0  0  0  0
  2  1  1  0
  3  2  1  0
  4  3  1  0
M  END
>  <NAME>  (1942) 
PROPANETHIOL

>  <SYNONYMS>  (1942) 


>  <SPECTRUM TYPE>  (1942) 
MS1

>  <INSTRUMENT TYPE>  (1942) 
EI-B

>  <INSTRUMENT>  (1942) 
HITACHI M-80B

>  <ION MODE>  (1942) 
P

>  <INCHIKEY>  (1942) 
SUVIGLJNEAMWEG-UHFFFAOYSA-N

>  <FORMULA>  (1942) 
C3H8S

>  <EXACT MASS>  (1942) 
76.034671256

>  <MW>  (1942) 
76

>  <ID>  (1942) 
JP009154

>  <CONTRIBUTOR>  (1942) 
University of Tokyo Team, {Faculty of Engineering, University of Tokyo

>  <COMMENT>  (1942) 
SMILES=CCCS
InChI=InChI=1S/C3H8S/c1-2-3-4/h4H,2-3H2,1H3
computed SMILES=SCCC
accession=JP009154
date=2016.01.19 (Created 2008.10.21, modified 2011.05.06)
author=SODA AROMATIC CO., LTD.
license=CC BY-NC-SA
exact mass=76.03467
ionization energy=70 eV
ion type=[M]+*
computed spectral entropy=2.7077927774932404
computed normalized entropy=0.7744278340292098
SPLASH=splash10-002g-9000000000-abd8f7bc9c83c0f98d25
submitter=submitter = University of Tokyo Team (Faculty of Engineering, University of Tokyo)
MoNA Rating=3.75

>  <NUM PEAKS>  (1942) 
33

>  <MASS SPECTRAL PEAKS>  (1942) 
15 5.35
26 8.34
27 58.44
28 4.04
29 7.96
32 1.75
33 6.51
34 2.45
35 7.8
37 3.01
38 6.72
39 38.48
40 8.19
41 76.74
42 83.05
43 86.94
44 2.61
45 31.83
46 26.15
47 99.99
48 11.65
49 3.93
57 2.5
58 7.02
59 5.92
60 1.09
61 11.96
69 2.13
71 1.36
75 1.07
76 94.42
77 3.41
78 3.26

>  <PREDICTED SPECTRUM>  (1942) 
14 63
15 124
25 47
26 207
27 649
28 269
29 524
31 135
32 91
33 319
34 673
35 170
37 26
38 92
39 502
40 161
41 921
42 284
43 578
44 67
45 498
46 323
47 581
48 222
49 126
57 262
58 52
59 349
61 143
76 999
77 217
78 165

$$$$

     RDKit          2D

 14 14  0  0  0  0  0  0  0  0999 V2000
    3.3491    0.2013    0.0000 C   0  0  0  0  0  0  0  0  0  0  0  0
    3.8978    2.2504    0.0000 C   0  0  0  0  0  0  0  0  0  0  0  0
    1.8487    2.7991    0.0000 C   0  0  0  0  0  0  0  0  0  0  0  0
   -3.8981   -0.7504    0.0000 C   0  0  0  0  0  0  0  0  0  0  0  0
   -2.5989   -1.5002    0.0000 C   0  0  0  0  0  0  0  0  0  0  0  0
   -1.3000    0.7500    0.0000 C   0  0  0  0  0  0  0  0  0  0  0  0
   -0.0000   -1.5000    0.0000 C   0  0  0  0  0  0  0  0  0  0  0  0
    0.0000    1.5000    0.0000 C   0  0  0  0  0  0  0  0  0  0  0  0
    1.3000   -0.7500    0.0000 C   0  0  0  0  0  0  0  0  0  0  0  0
   -5.1970   -1.5006    0.0000 C   0  0  0  0  0  0  0  0  0  0  0  0
   -1.3000   -0.7500    0.0000 C   0  0  0  0  0  0  0  0  0  0  0  0
    1.3000    0.7500    0.0000 C   0  0  0  0  0  0  0  0  0  0  0  0
    2.5989    1.5002    0.0000 C   0  0  0  0  0  0  0  0  0  0  0  0
   -6.4962   -0.7508    0.0000 O   0  0  0  0  0  0  0  0  0  0  0  0
  5  4  1  0
  8  6  2  0
  9  7  1  0
 10  4  1  0
 11  5  1  0
 11  6  1  0
 11  7  2  0
 12  8  1  0
 12  9  2  0
 13  1  1  0
 13  2  1  0
 13  3  1  0
 13 12  1  0
 14 10  2  0
M  END
>  <NAME>  (1943) 
3-(4-TERT-BUTYLPHENYL)PROPANAL

>  <SYNONYMS>  (1943) 


>  <SPECTRUM TYPE>  (1943) 
MS1

>  <INSTRUMENT TYPE>  (1943) 
EI-B

>  <INSTRUMENT>  (1943) 
HITACHI M-80B

>  <ION MODE>  (1943) 
P

>  <INCHIKEY>  (1943) 
FZJUFJKVIYFBSY-UHFFFAOYSA-N

>  <FORMULA>  (1943) 
C13H18O

>  <EXACT MASS>  (1943) 
190.135765196

>  <MW>  (1943) 
190

>  <ID>  (1943) 
JP009153

>  <CONTRIBUTOR>  (1943) 
University of Tokyo Team, {Faculty of Engineering, University of Tokyo

>  <COMMENT>  (1943) 
SMILES=O=CCCc(c1)ccc(c1)C(C)(C)C
InChI=InChI=1S/C13H18O/c1-13(2,3)12-8-6-11(7-9-12)5-4-10-14/h6-10H,4-5H2,1-3H3
computed SMILES=O=CCCC1=CC=C(C=C1)C(C)(C)C
accession=JP009153
date=2016.01.19 (Created 2008.10.21, modified 2011.05.06)
author=SODA AROMATIC CO., LTD.
license=CC BY-NC-SA
exact mass=190.13577
ionization energy=70 eV
ion type=[M]+*
computed spectral entropy=2.8910050252070936
computed normalized entropy=0.7686389812508008
SPLASH=splash10-004i-2900000000-aa0b595c8f722f9cd975
submitter=submitter = University of Tokyo Team (Faculty of Engineering, University of Tokyo)
MoNA Rating=3.75

>  <NUM PEAKS>  (1943) 
43

>  <MASS SPECTRAL PEAKS>  (1943) 
15 1.01
27 2.68
29 8.03
39 6.84
41 11.05
50 1.07
51 2.76
53 1.92
55 2.04
57 8.03
63 1.82
65 2.84
77 6.44
78 2.08
79 2.18
89 1.31
91 17.25
92 2.47
102 1.33
103 2.94
104 1.66
105 7.51
115 8.97
116 8.47
117 12.08
118 1.78
119 3.24
127 1.17
128 3.09
129 2.97
131 38.21
132 8.08
133 3.93
134 1.81
145 1.92
146 1.33
147 4.88
173 1.59
175 99.99
176 13.4
177 1
190 18.76
191 2.34

>  <PREDICTED SPECTRUM>  (1943) 
26 34
27 167
28 43
29 177
37 0
38 68
39 360
40 101
41 580
42 39
43 65
44 44
45 10
50 117
51 282
52 131
53 221
54 18
55 256
56 47
57 394
58 83
62 50
63 237
64 146
65 325
66 84
67 65
69 62
71 12
74 13
75 36
76 84
77 396
78 249
79 225
80 23
81 11
84 5
86 32
89 179
90 168
91 706
92 203
93 129
94 53
95 22
101 11
102 145
103 203
104 157
105 399
106 222
107 74
113 8
115 518
116 250
117 525
118 317
119 367
120 64
121 47
127 197
128 305
129 278
130 110
131 401
132 392
133 480
134 165
135 121
136 54
145 235
146 309
147 795
148 164
149 35
157 33
158 21
159 57
161 288
162 86
172 11
173 62
174 36
175 999
176 383
177 53
190 621
191 218
192 31

$$$$

     RDKit          2D

 10  9  0  0  0  0  0  0  0  0999 V2000
    0.5760    3.4486    0.0000 C   0  0  0  0  0  0  0  0  0  0  0  0
    1.3260   -0.8505    0.0000 C   0  0  0  0  0  0  0  0  0  0  0  0
   -0.1740    1.7476    0.0000 C   0  0  0  0  0  0  0  0  0  0  0  0
   -0.7231   -0.3014    0.0000 C   0  0  0  0  0  0  0  0  0  0  0  0
    3.1740    3.4486    0.0000 C   0  0  0  0  0  0  0  0  0  0  0  0
    3.1740    4.9486    0.0000 C   0  0  0  0  0  0  0  0  0  0  0  0
    1.8750    1.1986    0.0000 C   0  0  0  0  0  0  0  0  0  0  0  0
    1.8750    2.6986    0.0000 C   0  0  0  0  0  0  0  0  0  0  0  0
    0.5760    0.4486    0.0000 C   0  0  0  0  0  0  0  0  0  0  0  0
    4.4731    5.6986    0.0000 O   0  0  0  0  0  0  0  0  0  0  0  0
  6  5  1  0
  8  1  1  0
  8  5  1  0
  8  7  1  0
  9  2  1  0
  9  3  1  0
  9  4  1  0
  9  7  1  0
 10  6  2  0
M  END
>  <NAME>  (1944) 
3,5,5-TRIMETHYLHEXANAL

>  <SYNONYMS>  (1944) 


>  <SPECTRUM TYPE>  (1944) 
MS1

>  <INSTRUMENT TYPE>  (1944) 
EI-B

>  <INSTRUMENT>  (1944) 
HITACHI M-80B

>  <ION MODE>  (1944) 
P

>  <INCHIKEY>  (1944) 
WTPYRCJDOZVZON-UHFFFAOYSA-N

>  <FORMULA>  (1944) 
C9H18O

>  <EXACT MASS>  (1944) 
142.135765196

>  <MW>  (1944) 
142

>  <ID>  (1944) 
JP009152

>  <CONTRIBUTOR>  (1944) 
University of Tokyo Team, {Faculty of Engineering, University of Tokyo

>  <COMMENT>  (1944) 
SMILES=O=CCC(C)CC(C)(C)C
InChI=InChI=1S/C9H18O/c1-8(5-6-10)7-9(2,3)4/h6,8H,5,7H2,1-4H3
computed SMILES=O=CCC(C)CC(C)(C)C
accession=JP009152
date=2016.01.19 (Created 2008.10.21, modified 2011.05.06)
author=SODA AROMATIC CO., LTD.
license=CC BY-NC-SA
exact mass=142.13577
ionization energy=70 eV
ion type=[M]+*
computed spectral entropy=2.575602283794454
computed normalized entropy=0.7729424397360988
SPLASH=splash10-0a4i-9000000000-05710755b05579381479
submitter=submitter = University of Tokyo Team (Faculty of Engineering, University of Tokyo)
MoNA Rating=3.75

>  <NUM PEAKS>  (1944) 
28

>  <MASS SPECTRAL PEAKS>  (1944) 
15 1.52
18 1.88
27 10.48
29 16.9
39 12.27
41 39.75
42 2.9
43 14.99
44 3.46
45 1.17
53 2.28
55 14.99
56 14.88
57 99.99
58 5.28
67 3
69 2.42
71 2.87
81 1.25
82 1.13
83 39.33
84 3.42
85 6.9
98 17.26
99 1.59
100 7.48
109 12.5
110 1.1

>  <PREDICTED SPECTRUM>  (1944) 
14 3
15 8
25 1
26 57
27 266
28 91
29 343
30 32
31 64
37 31
38 55
39 297
40 121
41 562
42 218
43 512
44 240
45 71
49 1
50 68
51 89
52 61
53 175
54 119
55 444
56 542
57 999
58 227
59 38
60 6
65 88
66 46
67 169
68 96
69 322
70 192
71 370
72 152
73 96
77 4
79 55
80 9
81 111
82 80
83 257
84 112
85 271
86 172
87 155
88 30
95 24
97 151
98 109
99 105
100 0
101 19
109 59
114 43
115 38
127 105
128 6
142 59
143 7

$$$$

     RDKit          2D

  9  9  0  0  0  0  0  0  0  0999 V2000
    3.8981    1.5002    0.0000 C   0  0  0  0  0  0  0  0  0  0  0  0
    2.5992   -0.7500    0.0000 C   0  0  0  0  0  0  0  0  0  0  0  0
    1.2992    1.5000    0.0000 C   0  0  0  0  0  0  0  0  0  0  0  0
    1.2992   -1.5000    0.0000 C   0  0  0  0  0  0  0  0  0  0  0  0
   -0.0008    0.7500    0.0000 C   0  0  0  0  0  0  0  0  0  0  0  0
   -1.2998   -1.5002    0.0000 C   0  0  0  0  0  0  0  0  0  0  0  0
    2.5992    0.7500    0.0000 C   0  0  0  0  0  0  0  0  0  0  0  0
   -0.0008   -0.7500    0.0000 C   0  0  0  0  0  0  0  0  0  0  0  0
   -2.5989   -0.7504    0.0000 O   0  0  0  0  0  0  0  0  0  0  0  0
  4  2  2  0
  5  3  1  0
  7  1  1  0
  7  2  1  0
  7  3  2  0
  8  4  1  0
  8  5  2  0
  8  6  1  0
  9  6  1  0
M  END
>  <NAME>  (1945) 
P-METHYLBENZYL ALCOHOL

>  <SYNONYMS>  (1945) 


>  <SPECTRUM TYPE>  (1945) 
MS1

>  <INSTRUMENT TYPE>  (1945) 
EI-B

>  <INSTRUMENT>  (1945) 
HITACHI M-80B

>  <ION MODE>  (1945) 
P

>  <INCHIKEY>  (1945) 
KMTDMTZBNYGUNX-UHFFFAOYSA-N

>  <FORMULA>  (1945) 
C8H10O

>  <EXACT MASS>  (1945) 
122.07316494

>  <MW>  (1945) 
122

>  <ID>  (1945) 
JP009151

>  <CONTRIBUTOR>  (1945) 
University of Tokyo Team, {Faculty of Engineering, University of Tokyo

>  <COMMENT>  (1945) 
SMILES=OCc(c1)ccc(C)c1
InChI=InChI=1S/C8H10O/c1-7-2-4-8(6-9)5-3-7/h2-5,9H,6H2,1H3
computed SMILES=OCC1=CC=C(C=C1)C
accession=JP009151
date=2016.01.19 (Created 2008.10.21, modified 2011.05.06)
author=SODA AROMATIC CO., LTD.
license=CC BY-NC-SA
exact mass=122.07316
ionization energy=70 eV
ion type=[M]+*
computed spectral entropy=3.044491023404116
computed normalized entropy=0.7951883470193752
SPLASH=splash10-05dl-9600000000-717c741d4054d456793c
submitter=submitter = University of Tokyo Team (Faculty of Engineering, University of Tokyo)
MoNA Rating=3.75

>  <NUM PEAKS>  (1945) 
46

>  <MASS SPECTRAL PEAKS>  (1945) 
15 1.39
26 1.36
27 9.8
29 7.46
31 7.44
38 3.53
39 22.99
40 1.8
41 6.03
50 8.01
51 17.96
52 5.19
53 5.56
55 1.06
60 5.31
61 1.14
62 4.89
63 13.49
64 2.42
65 24.46
66 2.07
74 1.93
75 1.56
76 1.19
77 58
78 13.26
79 69.18
80 4.84
89 6.58
90 1.88
91 55.16
92 6.24
93 46.89
94 4.02
102 1.19
103 7.15
104 12.67
105 19.74
106 1.57
107 99.99
108 8.46
119 4.42
120 1.63
121 18.18
122 99.31
123 8.98

>  <PREDICTED SPECTRUM>  (1945) 
14 12
15 67
16 20
17 18
18 27
25 25
26 125
27 346
28 133
29 304
30 175
31 214
32 39
37 119
38 197
39 491
40 144
41 245
42 16
43 170
44 41
45 38
46 32
49 63
50 367
51 571
52 345
53 370
54 68
55 154
56 38
57 57
60 17
61 178
62 202
63 349
64 152
65 467
66 181
67 148
68 56
69 25
70 47
74 242
75 227
76 154
77 906
78 641
79 823
80 225
81 48
82 20
86 90
87 48
89 339
90 228
91 815
92 372
93 589
94 246
95 82
101 25
102 163
103 397
104 451
105 707
106 281
107 563
108 149
118 92
119 348
120 336
121 642
122 999
123 302
124 118

$$$$

     RDKit          2D

 12 12  0  0  0  0  0  0  0  0999 V2000
   -2.5476    4.3306    0.0000 C   0  0  0  0  0  0  0  0  0  0  0  0
   -4.5966    3.7816    0.0000 C   0  0  0  0  0  0  0  0  0  0  0  0
    3.1976    0.7816    0.0000 C   0  0  0  0  0  0  0  0  0  0  0  0
    3.1981    2.2824    0.0000 C   0  0  0  0  0  0  0  0  0  0  0  0
    1.8981    0.0308    0.0000 C   0  0  0  0  0  0  0  0  0  0  0  0
    1.8990    3.0324    0.0000 C   0  0  0  0  0  0  0  0  0  0  0  0
    0.5990    0.7808    0.0000 C   0  0  0  0  0  0  0  0  0  0  0  0
   -0.6995    3.0316    0.0000 C   0  0  0  0  0  0  0  0  0  0  0  0
   -1.9986    2.2816    0.0000 C   0  0  0  0  0  0  0  0  0  0  0  0
    0.5995    2.2816    0.0000 C   0  0  0  0  0  0  0  0  0  0  0  0
   -3.2976    3.0316    0.0000 C   0  0  0  0  0  0  0  0  0  0  0  0
   -4.0476    1.7326    0.0000 O   0  0  0  0  0  0  0  0  0  0  0  0
  4  3  2  0
  5  3  1  0
  6  4  1  0
  7  5  2  0
  9  8  1  0
 10  6  2  0
 10  7  1  0
 10  8  1  0
 11  1  1  0
 11  2  1  0
 11  9  1  0
 12 11  1  0
M  END
>  <NAME>  (1946) 
3-METHYL-1-PHENYL-3-BUTANOL

>  <SYNONYMS>  (1946) 


>  <SPECTRUM TYPE>  (1946) 
MS1

>  <INSTRUMENT TYPE>  (1946) 
EI-B

>  <INSTRUMENT>  (1946) 
HITACHI M-80B

>  <ION MODE>  (1946) 
P

>  <INCHIKEY>  (1946) 
YXVSKJDFNJFXAJ-UHFFFAOYSA-N

>  <FORMULA>  (1946) 
C11H16O

>  <EXACT MASS>  (1946) 
164.120115132

>  <MW>  (1946) 
164

>  <ID>  (1946) 
JP009150

>  <CONTRIBUTOR>  (1946) 
University of Tokyo Team, {Faculty of Engineering, University of Tokyo

>  <COMMENT>  (1946) 
SMILES=CC(C)(O)CCc(c1)cccc1
InChI=InChI=1S/C11H16O/c1-11(2,12)9-8-10-6-4-3-5-7-10/h3-7,12H,8-9H2,1-2H3
computed SMILES=OC(C)(C)CCC=1C=CC=CC1
accession=JP009150
date=2016.01.19 (Created 2008.10.21, modified 2011.05.06)
author=SODA AROMATIC CO., LTD.
license=CC BY-NC-SA
exact mass=164.12012
ionization energy=70 eV
ion type=[M]+*
computed spectral entropy=2.614811218802505
computed normalized entropy=0.7241403105970126
SPLASH=splash10-0537-9500000000-ad1fba1549481a617c70
submitter=submitter = University of Tokyo Team (Faculty of Engineering, University of Tokyo)
MoNA Rating=3.75

>  <NUM PEAKS>  (1946) 
37

>  <MASS SPECTRAL PEAKS>  (1946) 
15 1.15
27 3.12
29 1.59
31 7.14
39 6.41
41 5.15
43 12.6
50 1.69
51 6.49
52 1.39
53 1.33
55 1.1
58 2.96
59 99.99
60 3.12
63 2.77
65 10.22
77 9.49
78 9.99
79 4.45
89 1.99
91 88.25
92 6.76
103 3.55
104 3.74
105 7.42
106 4.5
115 1.15
116 1.18
117 1.32
129 1.25
131 59.79
132 5.45
145 1.55
146 55
147 7.78
149 9.94

>  <PREDICTED SPECTRUM>  (1946) 
14 10
15 11
17 5
18 15
26 22
27 130
29 89
31 182
32 26
33 10
37 7
38 52
39 266
40 122
41 326
42 149
43 676
44 54
45 145
50 175
51 303
52 180
53 181
55 161
56 49
58 166
59 694
60 63
62 96
63 203
64 100
65 387
66 94
68 2
69 185
71 102
72 8
73 166
74 93
75 37
76 95
77 338
78 283
79 330
85 1
87 40
88 61
89 184
90 112
91 999
92 523
98 3
102 59
103 316
104 337
105 464
106 346
107 38
113 33
114 29
115 160
116 111
117 207
118 80
128 75
129 123
130 32
131 403
132 176
145 82
146 251
147 44
149 18
164 191
165 67

$$$$

     RDKit          2D

 10 10  0  0  0  0  0  0  0  0999 V2000
   -2.2915    1.3193    0.0000 C   0  0  0  0  0  0  0  0  0  0  0  0
   -0.9814    3.5628    0.0000 C   0  0  0  0  0  0  0  0  0  0  0  0
    1.6056    2.0565    0.0000 C   0  0  0  0  0  0  0  0  0  0  0  0
    0.2920   -0.1684    0.0000 C   0  0  0  0  0  0  0  0  0  0  0  0
    2.8901    1.3316    0.0000 C   0  0  0  0  0  0  0  0  0  0  0  0
    1.6165   -0.9625    0.0000 C   0  0  0  0  0  0  0  0  0  0  0  0
   -0.9888    2.0629    0.0000 C   0  0  0  0  0  0  0  0  0  0  0  0
    0.3065    1.3065    0.0000 C   0  0  0  0  0  0  0  0  0  0  0  0
    2.9156   -0.2125    0.0000 C   0  0  0  0  0  0  0  0  0  0  0  0
    4.2207   -0.9518    0.0000 O   0  0  0  0  0  0  0  0  0  0  0  0
  5  3  1  0
  6  4  1  0
  7  1  1  0
  7  2  1  0
  8  3  1  0
  8  4  1  0
  8  7  1  0
  9  5  1  0
  9  6  1  0
 10  9  1  0
M  END
>  <NAME>  (1947) 
4-ISOPROPYLCYCLOHEXANOL

>  <SYNONYMS>  (1947) 


>  <SPECTRUM TYPE>  (1947) 
MS1

>  <INSTRUMENT TYPE>  (1947) 
EI-B

>  <INSTRUMENT>  (1947) 
HITACHI M-80B

>  <ION MODE>  (1947) 
P

>  <INCHIKEY>  (1947) 
DKKRDMLKVSKFMJ-UHFFFAOYSA-N

>  <FORMULA>  (1947) 
C9H18O

>  <EXACT MASS>  (1947) 
142.135765196

>  <MW>  (1947) 
142

>  <ID>  (1947) 
JP009149

>  <CONTRIBUTOR>  (1947) 
University of Tokyo Team, {Faculty of Engineering, University of Tokyo

>  <COMMENT>  (1947) 
SMILES=CC(C)C(C1)CCC(O)C1
InChI=InChI=1S/C9H18O/c1-7(2)8-3-5-9(10)6-4-8/h7-10H,3-6H2,1-2H3
computed SMILES=OC1CCC(CC1)C(C)C
accession=JP009149
date=2016.01.19 (Created 2008.10.21, modified 2011.05.06)
author=SODA AROMATIC CO., LTD.
license=CC BY-NC-SA
exact mass=142.13577
ionization energy=70 eV
ion type=[M]+*
computed spectral entropy=3.018553665274575
computed normalized entropy=0.8239396403943449
SPLASH=splash10-001i-9000000000-485acfe0bf3162c5c81f
submitter=submitter = University of Tokyo Team (Faculty of Engineering, University of Tokyo)
MoNA Rating=3.75

>  <NUM PEAKS>  (1947) 
39

>  <MASS SPECTRAL PEAKS>  (1947) 
27 13.51
29 10.47
31 3.81
39 12.71
40 1.22
41 28.11
42 3.78
43 36.48
44 6.96
45 1.1
51 1.03
53 6.4
54 7.62
55 27.49
56 5.68
57 20.36
58 2.19
65 1.17
66 6.12
67 14.89
68 5.33
69 10.16
70 3.78
71 1.23
77 1.13
79 4.95
80 14.15
81 99.99
82 25.56
83 5.21
84 1.59
85 9.6
95 4.24
96 4.4
98 2.08
99 1.36
109 13.55
124 15.3
125 1.22

>  <PREDICTED SPECTRUM>  (1947) 
27 77
29 46
31 17
39 343
40 170
41 999
42 384
43 744
44 405
45 228
50 78
51 155
52 100
53 435
54 286
55 787
56 574
57 707
58 218
59 103
65 170
66 145
67 663
68 457
69 763
70 340
71 521
72 170
73 276
77 193
78 21
79 255
80 232
81 955
82 682
83 517
84 438
85 403
86 246
87 5
91 90
93 224
95 148
96 249
97 265
98 398
99 646
100 271
101 91
109 942
110 122
113 13
114 78
124 545
125 136
127 394
142 352
143 17

$$$$

     RDKit          2D

 16 18  0  0  1  0  0  0  0  0999 V2000
   -2.5621    2.6271    0.0000 C   0  0  0  0  0  0  0  0  0  0  0  0
   -0.6698   -2.6389    0.0000 C   0  0  0  0  0  0  0  0  0  0  0  0
    1.1515   -3.0511    0.0000 C   0  0  0  0  0  0  0  0  0  0  0  0
    3.7828   -0.9552    0.0000 C   0  0  0  0  0  0  0  0  0  0  0  0
   -2.9800   -0.0200    0.0000 C   0  0  0  0  0  0  0  0  0  0  0  0
   -2.1000   -1.2300    0.0000 C   0  0  0  0  0  0  0  0  0  0  0  0
    1.9600    1.3300    0.0000 C   0  0  0  0  0  0  0  0  0  0  0  0
    0.5000    1.6700    0.0000 C   0  0  0  0  0  0  0  0  0  0  0  0
    1.0200    0.1600    0.0000 C   0  0  0  0  0  0  0  0  0  0  0  0
   -2.1000    1.2000    0.0000 C   0  0  0  0  0  0  0  0  0  0  0  0
   -0.6800   -0.7700    0.0000 C   0  0  0  0  0  0  0  0  0  0  0  0
    1.9600   -1.3700    0.0000 C   0  0  0  0  0  0  0  0  0  0  0  0
    0.5000   -1.7000    0.0000 C   0  0  0  0  0  0  0  0  0  0  0  0
    2.6100   -0.0200    0.0000 C   0  0  0  0  0  0  0  0  0  0  0  0
   -0.6800    0.7300    0.0000 C   0  0  0  0  0  0  0  0  0  0  0  0
    3.7828    0.9152    0.0000 O   0  0  0  0  0  0  0  0  0  0  0  0
  6  5  1  0
  8  7  1  0
 10  1  1  1
 10  5  1  0
 11  6  1  0
 12  9  1  0
 13  2  1  0
 13  3  1  0
 13 11  1  0
 12 13  1  1
 14  4  1  6
 14  7  1  0
 14 12  1  0
 15  8  1  0
 15  9  1  0
 15 10  1  0
 15 11  1  0
 14 16  1  0
M  END
>  <NAME>  (1948) 
CEDROL

>  <SYNONYMS>  (1948) 


>  <SPECTRUM TYPE>  (1948) 
MS1

>  <INSTRUMENT TYPE>  (1948) 
EI-B

>  <INSTRUMENT>  (1948) 
HITACHI M-80B

>  <ION MODE>  (1948) 
P

>  <INCHIKEY>  (1948) 
SVURIXNDRWRAFU-OWAXCYOXSA-N

>  <FORMULA>  (1948) 
C15H26O

>  <EXACT MASS>  (1948) 
222.198365452

>  <MW>  (1948) 
222

>  <ID>  (1948) 
JP009148

>  <CONTRIBUTOR>  (1948) 
University of Tokyo Team, {Faculty of Engineering, University of Tokyo

>  <COMMENT>  (1948) 
SMILES=[H]C(C)(C3)C(C2)(C1)C(C3)C(C)(C)C([H])(C(C)(O)C2)1
InChI=InChI=1S/C15H26O/c1-10-5-6-11-13(2,3)12-9-15(10,11)8-7-14(12,4)16/h10-12,16H,5-9H2,1-4H3/t10-,11?,12-,14-,15?/m1/s1
computed SMILES=OC1(C)CCC23CC1C(C)(C)C3CCC2C
accession=JP009148
date=2016.01.19 (Created 2008.10.21, modified 2011.05.06)
author=SODA AROMATIC CO., LTD.
license=CC BY-NC-SA
exact mass=222.19837
ionization energy=70 eV
ion type=[M]+*
computed spectral entropy=3.9022368301289854
computed normalized entropy=0.8569043307531037
SPLASH=splash10-0f6y-9600000000-bdf6fee547e3ab6e28dc
submitter=submitter = University of Tokyo Team (Faculty of Engineering, University of Tokyo)
MoNA Rating=3.75

>  <NUM PEAKS>  (1948) 
95

>  <MASS SPECTRAL PEAKS>  (1948) 
15 1.36
18 1.98
27 9.06
29 13.47
39 12.06
41 58.88
42 5.54
43 61.58
44 2.43
45 3.76
51 2.54
52 1.76
53 14.02
54 3.04
55 32.56
56 4.48
57 5.73
58 7.67
59 6.05
65 6.38
66 2.78
67 20.54
68 3.82
69 39.37
70 2.85
71 14.86
72 8.99
73 1.39
77 17.19
78 4.34
79 25.79
80 4.91
81 42.36
82 10.83
83 7.23
84 1.7
85 1
91 21.63
92 5.05
93 32.35
94 8.96
95 99.99
96 9.88
97 3.39
99 7.65
103 1.48
104 1.24
105 16.31
106 4.54
107 27.99
108 15.58
109 25
110 3.29
111 2.76
113 1.36
115 1.54
117 1.89
119 18.86
120 5.46
121 20.42
122 12.05
123 9.83
124 1.48
131 1.2
133 9.22
134 3.88
135 20.38
136 4.79
137 6.25
138 1.95
139 1.04
147 7.19
148 3.52
149 17.11
150 75.7
151 71.26
152 8.66
161 12.71
162 3.1
163 2.96
164 7.11
165 9.82
166 3.87
167 1.65
175 1.11
177 4.66
178 2.46
179 2.92
189 4.2
193 1.5
204 5.95
205 1.07
207 13.31
208 2.53
222 3.53

>  <PREDICTED SPECTRUM>  (1948) 
26 25
27 280
28 116
29 315
30 12
31 79
38 25
39 395
40 185
41 825
42 298
43 999
44 190
45 127
50 109
51 285
52 187
53 490
54 202
55 677
56 272
57 306
58 261
59 140
62 42
63 175
64 96
65 369
66 219
67 639
68 325
69 636
70 257
71 602
72 303
74 24
76 5
77 548
78 258
79 544
80 349
81 774
82 483
83 408
84 294
85 248
86 75
91 600
92 320
93 652
94 399
95 800
96 392
97 329
98 230
99 172
100 22
102 18
103 155
104 118
105 496
106 307
107 638
108 429
109 715
110 337
111 303
112 113
113 93
114 10
115 236
116 130
117 165
118 121
119 450
120 320
121 620
122 437
123 680
124 264
125 260
126 122
127 70
128 90
129 0
130 92
131 228
132 130
133 464
134 282
135 522
136 353
137 587
138 337
139 198
140 157
141 53
145 31
146 95
147 396
148 308
149 579
150 370
151 592
152 389
153 188
159 59
160 104
161 474
162 287
163 213
164 629
165 346
166 228
167 91
175 236
176 60
177 106
178 137
179 300
180 137
189 592
190 239
191 139
193 90
194 93
204 458
205 172
206 20
207 306
208 100
222 383
223 154

$$$$

     RDKit          2D

 17 16  0  0  0  0  0  0  0  0999 V2000
   -9.2440    6.6630    0.0000 C   0  0  0  0  0  0  0  0  0  0  0  0
   -7.9450    4.4130    0.0000 C   0  0  0  0  0  0  0  0  0  0  0  0
   -2.7488    4.4130    0.0000 C   0  0  0  0  0  0  0  0  0  0  0  0
    1.6974    4.6139    0.0000 C   0  0  0  0  0  0  0  0  0  0  0  0
    3.7464    5.1630    0.0000 C   0  0  0  0  0  0  0  0  0  0  0  0
   -7.9450    5.9130    0.0000 C   0  0  0  0  0  0  0  0  0  0  0  0
   -6.6459    3.6630    0.0000 C   0  0  0  0  0  0  0  0  0  0  0  0
   -0.1507    5.9130    0.0000 C   0  0  0  0  0  0  0  0  0  0  0  0
   -1.4498    6.6630    0.0000 C   0  0  0  0  0  0  0  0  0  0  0  0
    1.1483    6.6630    0.0000 C   0  0  0  0  0  0  0  0  0  0  0  0
   -4.0478    6.6630    0.0000 C   0  0  0  0  0  0  0  0  0  0  0  0
   -2.7488    5.9130    0.0000 C   0  0  0  0  0  0  0  0  0  0  0  0
   -5.3469    5.9130    0.0000 C   0  0  0  0  0  0  0  0  0  0  0  0
    2.4474    5.9130    0.0000 C   0  0  0  0  0  0  0  0  0  0  0  0
    3.1974    7.2120    0.0000 O   0  0  0  0  0  0  0  0  0  0  0  0
   -6.6459    6.6630    0.0000 O   0  0  0  0  0  0  0  0  0  0  0  0
   -5.3469    4.4130    0.0000 O   0  0  0  0  0  0  0  0  0  0  0  0
  6  1  1  0
  7  2  1  0
  9  8  1  0
 10  8  1  0
 12  3  1  0
 12  9  1  0
 12 11  1  0
 13 11  1  0
 14  4  1  0
 14  5  1  0
 14 10  1  0
 15 14  1  0
 16  6  1  0
 16 13  1  0
 17  7  1  0
 17 13  1  0
M  END
>  <NAME>  (1949) 
HYDROXYCITRONELLAL DIETHYL ACETAL

>  <SYNONYMS>  (1949) 


>  <SPECTRUM TYPE>  (1949) 
MS1

>  <INSTRUMENT TYPE>  (1949) 
EI-B

>  <INSTRUMENT>  (1949) 
HITACHI M-80B

>  <ION MODE>  (1949) 
P

>  <INCHIKEY>  (1949) 
XOJDKWNFMFCXNE-UHFFFAOYSA-N

>  <FORMULA>  (1949) 
C14H30O3

>  <EXACT MASS>  (1949) 
246.21949481999997

>  <MW>  (1949) 
246

>  <ID>  (1949) 
JP009147

>  <CONTRIBUTOR>  (1949) 
University of Tokyo Team, {Faculty of Engineering, University of Tokyo

>  <COMMENT>  (1949) 
SMILES=CCOC(OCC)CC(C)CCCC(C)(C)O
InChI=InChI=1S/C14H30O3/c1-6-16-13(17-7-2)11-12(3)9-8-10-14(4,5)15/h12-13,15H,6-11H2,1-5H3
computed SMILES=OC(C)(C)CCCC(C)CC(OCC)OCC
accession=JP009147
date=2016.01.19 (Created 2008.10.21, modified 2011.05.06)
author=SODA AROMATIC CO., LTD.
license=CC BY-NC-SA
exact mass=246.21949
ionization energy=70 eV
ion type=[M]+*
computed spectral entropy=3.0327528546580997
computed normalized entropy=0.7834139446938316
SPLASH=splash10-0udi-9400000000-59930f62eb5583d85584
submitter=submitter = University of Tokyo Team (Faculty of Engineering, University of Tokyo)
MoNA Rating=3.75

>  <NUM PEAKS>  (1949) 
48

>  <MASS SPECTRAL PEAKS>  (1949) 
16 1.02
27 3.69
29 9.75
31 4.32
39 1.88
41 6.36
42 1.89
43 25.77
44 3.45
45 3.61
47 26.43
53 1.27
55 6.16
56 1.72
57 4.98
58 1.8
59 24.48
67 1.51
69 7.85
70 1.28
71 13.2
72 2.49
73 2.25
75 33.48
76 1.17
79 1.31
81 16.1
82 1.58
83 3.35
85 3
95 6.05
96 5.98
97 3
99 21.29
100 1.11
103 99.99
104 4.67
109 1.24
110 1
111 5.37
112 1.24
113 1.73
121 2.17
137 7.62
138 1.15
139 6.01
183 4.88
185 1.88

>  <PREDICTED SPECTRUM>  (1949) 
14 2
15 24
17 2
18 2
19 6
26 32
27 217
28 51
29 338
31 221
32 14
33 44
39 159
40 46
41 345
42 103
43 636
44 118
45 256
46 75
47 493
48 10
49 16
51 5
53 110
54 69
55 287
56 105
57 286
58 140
59 392
60 81
61 114
62 19
63 2
65 28
67 114
68 80
69 239
70 35
71 386
72 104
73 250
74 1
75 662
76 150
77 107
78 5
79 66
80 28
81 157
82 95
83 152
84 70
85 282
86 144
87 39
93 15
95 77
96 46
97 195
98 75
99 229
100 71
101 164
102 44
103 999
104 219
105 98
111 39
113 69
115 83
125 19
127 23
128 33
129 28
131 16
139 50
141 42
143 55
155 86
156 41
171 4
183 17
184 2
185 42
199 13
200 24
201 118

$$$$

     RDKit          2D

  8  7  0  0  0  0  0  0  0  0999 V2000
    1.6740    0.1005    0.0000 C   0  0  0  0  0  0  0  0  0  0  0  0
   -0.9240    1.6005    0.0000 C   0  0  0  0  0  0  0  0  0  0  0  0
    2.4240    1.3995    0.0000 C   0  0  0  0  0  0  0  0  0  0  0  0
    1.8750    3.4486    0.0000 C   0  0  0  0  0  0  0  0  0  0  0  0
    0.3750    0.8505    0.0000 C   0  0  0  0  0  0  0  0  0  0  0  0
    1.1250    2.1495    0.0000 C   0  0  0  0  0  0  0  0  0  0  0  0
   -0.3750   -0.4486    0.0000 O   0  0  0  0  0  0  0  0  0  0  0  0
   -0.1740    2.8995    0.0000 O   0  0  0  0  0  0  0  0  0  0  0  0
  5  1  1  0
  5  2  1  0
  6  3  1  0
  6  4  1  0
  6  5  1  0
  7  5  1  0
  8  6  1  0
M  END
>  <NAME>  (1950) 
2,3-DIMETHYL-2,3-BUTANEDIOL

>  <SYNONYMS>  (1950) 


>  <SPECTRUM TYPE>  (1950) 
MS1

>  <INSTRUMENT TYPE>  (1950) 
EI-B

>  <INSTRUMENT>  (1950) 
HITACHI M-80B

>  <ION MODE>  (1950) 
P

>  <INCHIKEY>  (1950) 
IVDFJHOHABJVEH-UHFFFAOYSA-N

>  <FORMULA>  (1950) 
C6H14O2

>  <EXACT MASS>  (1950) 
118.099379688

>  <MW>  (1950) 
118

>  <ID>  (1950) 
JP009146

>  <CONTRIBUTOR>  (1950) 
University of Tokyo Team, {Faculty of Engineering, University of Tokyo

>  <COMMENT>  (1950) 
SMILES=CC(C)(O)C(C)(C)O
InChI=InChI=1S/C6H14O2/c1-5(2,7)6(3,4)8/h7-8H,1-4H3
computed SMILES=OC(C)(C)C(O)(C)C
accession=JP009146
date=2016.01.19 (Created 2008.10.21, modified 2011.05.06)
author=SODA AROMATIC CO., LTD.
license=CC BY-NC-SA
exact mass=118.09938
ionization energy=70 eV
ion type=[M]+*
computed spectral entropy=1.8588875984088034
computed normalized entropy=0.6561057614346459
SPLASH=splash10-0a4i-9000000000-779de644a5975c547ced
submitter=submitter = University of Tokyo Team (Faculty of Engineering, University of Tokyo)
MoNA Rating=3.75

>  <NUM PEAKS>  (1950) 
17

>  <MASS SPECTRAL PEAKS>  (1950) 
15 2.71
27 1.73
29 3.46
31 12.28
39 3.47
41 11.22
42 2.43
43 21.75
55 1.25
57 16.49
58 2.83
59 99.99
60 3.72
83 1.47
85 11.4
101 1.06
103 1.74

>  <PREDICTED SPECTRUM>  (1950) 
14 43
15 101
16 7
17 13
18 21
19 19
25 24
26 69
27 179
28 105
29 177
30 20
31 269
32 15
33 44
37 23
38 34
39 185
40 92
41 297
42 244
43 558
44 71
45 129
53 55
55 30
56 26
57 142
58 77
59 999
60 195
61 75
67 104
71 21
85 219
103 174
104 11

$$$$

     RDKit          2D

  7  6  0  0  0  0  0  0  0  0999 V2000
    0.6495    4.1250    0.0000 C   0  0  0  0  0  0  0  0  0  0  0  0
   -4.5466    4.1250    0.0000 C   0  0  0  0  0  0  0  0  0  0  0  0
   -0.6495    3.3750    0.0000 C   0  0  0  0  0  0  0  0  0  0  0  0
   -3.2476    3.3750    0.0000 C   0  0  0  0  0  0  0  0  0  0  0  0
    1.9486    3.3750    0.0000 O   0  0  0  0  0  0  0  0  0  0  0  0
   -5.8457    3.3750    0.0000 O   0  0  0  0  0  0  0  0  0  0  0  0
   -1.9486    4.1250    0.0000 O   0  0  0  0  0  0  0  0  0  0  0  0
  3  1  1  0
  4  2  1  0
  5  1  1  0
  6  2  1  0
  7  3  1  0
  7  4  1  0
M  END
>  <NAME>  (1951) 
DIETHYLENE GLYCOL

>  <SYNONYMS>  (1951) 


>  <SPECTRUM TYPE>  (1951) 
MS1

>  <INSTRUMENT TYPE>  (1951) 
EI-B

>  <INSTRUMENT>  (1951) 
HITACHI M-80B

>  <ION MODE>  (1951) 
P

>  <INCHIKEY>  (1951) 
MTHSVFCYNBDYFN-UHFFFAOYSA-N

>  <FORMULA>  (1951) 
C4H10O3

>  <EXACT MASS>  (1951) 
106.06299417999999

>  <MW>  (1951) 
106

>  <ID>  (1951) 
JP009145

>  <CONTRIBUTOR>  (1951) 
University of Tokyo Team, {Faculty of Engineering, University of Tokyo

>  <COMMENT>  (1951) 
SMILES=OCCOCCO
InChI=InChI=1S/C4H10O3/c5-1-3-7-4-2-6/h5-6H,1-4H2
computed SMILES=OCCOCCO
accession=JP009145
date=2016.01.19 (Created 2008.10.21, modified 2011.05.06)
author=SODA AROMATIC CO., LTD.
license=CC BY-NC-SA
exact mass=106.06299
ionization energy=70 eV
ion type=[M]+*
computed spectral entropy=1.9504882510855404
computed normalized entropy=0.7034899317883241
SPLASH=splash10-002b-9000000000-5ac5a9644a3af66863e8
submitter=submitter = University of Tokyo Team (Faculty of Engineering, University of Tokyo)
MoNA Rating=3.75

>  <NUM PEAKS>  (1951) 
16

>  <MASS SPECTRAL PEAKS>  (1951) 
15 3.82
19 5.52
27 12.51
28 2.8
29 13.57
30 1.22
31 13.57
42 1.47
43 11.32
44 9.24
45 99.99
46 2.12
47 1.42
58 1.12
75 24.03
76 11

>  <PREDICTED SPECTRUM>  (1951) 
14 47
15 103
16 20
17 12
18 14
19 81
25 11
26 86
27 241
28 132
29 272
30 151
31 436
32 69
33 69
34 1
35 18
42 135
43 333
44 343
45 999
46 304
47 220
48 10
57 27
58 203
59 83
60 3
61 251
62 93
63 150
72 17
75 234
76 153
88 34
89 119
91 47
105 2
106 43

$$$$

     RDKit          2D

  5  4  0  0  0  0  0  0  0  0999 V2000
    0.0000    0.0000    0.0000 C   0  0  0  0  0  0  0  0  0  0  0  0
   -1.2990    2.2500    0.0000 C   0  0  0  0  0  0  0  0  0  0  0  0
    0.0000    1.5000    0.0000 C   0  0  0  0  0  0  0  0  0  0  0  0
   -1.2990    3.7500    0.0000 O   0  0  0  0  0  0  0  0  0  0  0  0
    1.2990    2.2500    0.0000 O   0  0  0  0  0  0  0  0  0  0  0  0
  3  1  1  0
  3  2  1  0
  4  2  1  0
  5  3  1  0
M  END
>  <NAME>  (1952) 
1,2-PROPANEDIOL

>  <SYNONYMS>  (1952) 


>  <SPECTRUM TYPE>  (1952) 
MS1

>  <INSTRUMENT TYPE>  (1952) 
EI-B

>  <INSTRUMENT>  (1952) 
HITACHI M-80B

>  <ION MODE>  (1952) 
P

>  <INCHIKEY>  (1952) 
DNIAPMSPPWPWGF-UHFFFAOYSA-N

>  <FORMULA>  (1952) 
C3H8O2

>  <EXACT MASS>  (1952) 
76.052429496

>  <MW>  (1952) 
76

>  <ID>  (1952) 
JP009144

>  <CONTRIBUTOR>  (1952) 
University of Tokyo Team, {Faculty of Engineering, University of Tokyo

>  <COMMENT>  (1952) 
SMILES=OCC(C)O
InChI=InChI=1S/C3H8O2/c1-3(5)2-4/h3-5H,2H2,1H3
computed SMILES=OCC(O)C
accession=JP009144
date=2016.01.19 (Created 2008.10.21, modified 2011.05.06)
author=SODA AROMATIC CO., LTD.
license=CC BY-NC-SA
exact mass=76.05243
ionization energy=70 eV
ion type=[M]+*
computed spectral entropy=1.9206771515787346
computed normalized entropy=0.6645086903896237
SPLASH=splash10-0002-9000000000-6d2345a66e2cf8d2d379
submitter=submitter = University of Tokyo Team (Faculty of Engineering, University of Tokyo)
MoNA Rating=3.75

>  <NUM PEAKS>  (1952) 
18

>  <MASS SPECTRAL PEAKS>  (1952) 
15 5.94
19 5.75
26 1.59
27 13.2
28 2.33
29 15.7
30 1.19
31 16.52
33 1.34
39 1.33
41 1.44
42 2.47
43 18.09
44 6.57
45 99.99
46 2.32
57 1.63
61 5.38

>  <PREDICTED SPECTRUM>  (1952) 
14 88
15 187
16 42
17 37
18 49
19 118
25 30
26 140
27 356
28 231
29 386
30 133
31 537
32 125
33 121
34 29
38 48
40 58
41 120
42 75
43 599
44 208
45 999
46 298
47 17
57 138
58 194
59 114
61 263
76 28

$$$$

     RDKit          2D

  6  5  0  0  0  0  0  0  0  0999 V2000
   -0.0000   -0.0000    0.0000 C   0  0  0  0  0  0  0  0  0  0  0  0
   -1.2990    3.7500    0.0000 C   0  0  0  0  0  0  0  0  0  0  0  0
   -0.0000    1.5000    0.0000 C   0  0  0  0  0  0  0  0  0  0  0  0
   -1.2990    2.2500    0.0000 C   0  0  0  0  0  0  0  0  0  0  0  0
    1.2990    2.2500    0.0000 O   0  0  0  0  0  0  0  0  0  0  0  0
   -2.5981    1.5000    0.0000 O   0  0  0  0  0  0  0  0  0  0  0  0
  3  1  1  0
  4  2  1  0
  4  3  1  0
  5  3  1  0
  6  4  2  0
M  END
>  <NAME>  (1953) 
ACETOIN

>  <SYNONYMS>  (1953) 


>  <SPECTRUM TYPE>  (1953) 
MS1

>  <INSTRUMENT TYPE>  (1953) 
EI-B

>  <INSTRUMENT>  (1953) 
HITACHI M-80B

>  <ION MODE>  (1953) 
P

>  <INCHIKEY>  (1953) 
ROWKJAVDOGWPAT-UHFFFAOYSA-N

>  <FORMULA>  (1953) 
C4H8O2

>  <EXACT MASS>  (1953) 
88.052429496

>  <MW>  (1953) 
88

>  <ID>  (1953) 
JP009143

>  <CONTRIBUTOR>  (1953) 
University of Tokyo Team, {Faculty of Engineering, University of Tokyo

>  <COMMENT>  (1953) 
SMILES=CC(O)C(C)=O
InChI=InChI=1S/C4H8O2/c1-3(5)4(2)6/h3,5H,1-2H3
computed SMILES=O=C(C)C(O)C
accession=JP009143
date=2016.01.19 (Created 2008.10.21, modified 2011.05.06)
author=SODA AROMATIC CO., LTD.
license=CC BY-NC-SA
exact mass=88.05243
ionization energy=70 eV
ion type=[M]+*
computed spectral entropy=1.8500515962114863
computed normalized entropy=0.6400739251472954
SPLASH=splash10-0005-9000000000-62904abc1fc33ec40dfa
submitter=submitter = University of Tokyo Team (Faculty of Engineering, University of Tokyo)
MoNA Rating=3.75

>  <NUM PEAKS>  (1953) 
18

>  <MASS SPECTRAL PEAKS>  (1953) 
14 3.37
15 14.38
19 6.6
26 2.8
27 13.43
28 1.36
29 11.99
30 1.06
31 1.3
39 1
41 1.38
42 7.43
43 71.49
44 2.92
45 99.99
46 2.09
73 1.46
88 7.22

>  <PREDICTED SPECTRUM>  (1953) 
14 88
15 242
16 59
17 32
18 69
19 52
25 43
26 160
27 364
28 181
29 264
31 197
32 11
36 42
37 64
38 108
39 246
40 97
41 249
42 149
43 999
44 311
45 617
46 78
53 135
54 74
55 149
57 5
59 137
69 43
70 86
71 17
73 289
88 85
89 3

$$$$

     RDKit          2D

 10  9  0  0  0  0  0  0  0  0999 V2000
    1.0514   -0.9240    0.0000 C   0  0  0  0  0  0  0  0  0  0  0  0
   -0.4486    1.6740    0.0000 C   0  0  0  0  0  0  0  0  0  0  0  0
    4.9486    1.3260    0.0000 C   0  0  0  0  0  0  0  0  0  0  0  0
    5.4976    3.3750    0.0000 C   0  0  0  0  0  0  0  0  0  0  0  0
    1.6005    1.1250    0.0000 C   0  0  0  0  0  0  0  0  0  0  0  0
    2.8995    1.8750    0.0000 C   0  0  0  0  0  0  0  0  0  0  0  0
    0.3014    0.3750    0.0000 C   0  0  0  0  0  0  0  0  0  0  0  0
    4.1986    2.6250    0.0000 C   0  0  0  0  0  0  0  0  0  0  0  0
   -0.9976   -0.3750    0.0000 O   0  0  0  0  0  0  0  0  0  0  0  0
    3.4486    3.9240    0.0000 O   0  0  0  0  0  0  0  0  0  0  0  0
  6  5  3  0
  7  1  1  0
  7  2  1  0
  7  5  1  0
  8  3  1  0
  8  4  1  0
  8  6  1  0
  9  7  1  0
 10  8  1  0
M  END
>  <NAME>  (1954) 
2,5-DIMETHYL-3-HEXYN-2,5-DIOL

>  <SYNONYMS>  (1954) 


>  <SPECTRUM TYPE>  (1954) 
MS1

>  <INSTRUMENT TYPE>  (1954) 
EI-B

>  <INSTRUMENT>  (1954) 
HITACHI M-80B

>  <ION MODE>  (1954) 
P

>  <INCHIKEY>  (1954) 
IHJUECRFYCQBMW-UHFFFAOYSA-N

>  <FORMULA>  (1954) 
C8H14O2

>  <EXACT MASS>  (1954) 
142.099379688

>  <MW>  (1954) 
142

>  <ID>  (1954) 
JP009142

>  <CONTRIBUTOR>  (1954) 
University of Tokyo Team, {Faculty of Engineering, University of Tokyo

>  <COMMENT>  (1954) 
SMILES=CC(C)(O)C#CC(C)(C)O
InChI=InChI=1S/C8H14O2/c1-7(2,9)5-6-8(3,4)10/h9-10H,1-4H3
computed SMILES=OC(C#CC(O)(C)C)(C)C
accession=JP009142
date=2016.01.19 (Created 2008.10.21, modified 2011.05.06)
author=SODA AROMATIC CO., LTD.
license=CC BY-NC-SA
exact mass=142.09938
ionization energy=70 eV
ion type=[M]+*
computed spectral entropy=2.619743550718503
computed normalized entropy=0.7368458742745527
SPLASH=splash10-052f-9300000000-96255c0d4ee6fbbf84ca
submitter=submitter = University of Tokyo Team (Faculty of Engineering, University of Tokyo)
MoNA Rating=3.75

>  <NUM PEAKS>  (1954) 
35

>  <MASS SPECTRAL PEAKS>  (1954) 
15 6.98
27 6.57
29 4.07
31 3.72
38 1.7
39 12.45
41 16.03
42 2.5
43 99.99
44 2.77
50 1.67
51 4.49
52 1.19
53 9.71
54 1.11
55 5.8
56 3.15
57 2.2
59 9.27
65 3.87
66 2.37
67 6.57
68 1
69 12.37
77 2.05
79 6.54
81 49.73
82 4.47
83 1.78
95 1.59
109 81.02
110 6.82
111 1.9
127 20.24
128 1.18

>  <PREDICTED SPECTRUM>  (1954) 
14 39
15 123
16 6
17 16
18 41
25 18
26 53
27 164
28 104
29 145
30 4
31 173
32 17
33 21
37 42
38 77
39 243
40 91
41 270
42 68
43 999
44 123
45 130
47 6
49 24
50 130
51 191
52 85
53 210
54 77
55 150
57 80
58 20
59 548
60 116
61 77
62 80
63 117
64 44
65 194
66 125
67 225
68 103
69 155
70 57
71 110
72 41
74 40
75 75
76 42
77 120
78 83
79 126
80 48
81 170
82 63
83 133
84 155
85 103
89 40
90 24
91 267
92 67
93 90
94 40
95 159
96 48
97 38
105 54
106 86
107 78
108 6
109 436
110 116
113 35
122 16
123 89
124 70
125 78
127 464
128 134
129 22
142 56
143 23

$$$$

     RDKit          2D

  9  8  0  0  0  0  0  0  0  0999 V2000
    0.9926    2.4721    0.0000 C   0  0  0  0  0  0  0  0  0  0  0  0
   -4.2035    2.4721    0.0000 C   0  0  0  0  0  0  0  0  0  0  0  0
   -0.3064    3.2221    0.0000 C   0  0  0  0  0  0  0  0  0  0  0  0
   -2.9045    3.2221    0.0000 C   0  0  0  0  0  0  0  0  0  0  0  0
   -2.5697    1.3231    0.0000 C   0  0  0  0  0  0  0  0  0  0  0  0
   -0.6413    1.3231    0.0000 C   0  0  0  0  0  0  0  0  0  0  0  0
   -1.6055    2.4721    0.0000 C   0  0  0  0  0  0  0  0  0  0  0  0
   -4.0469    1.5836    0.0000 O   0  0  0  0  0  0  0  0  0  0  0  0
    0.8359    1.5836    0.0000 O   0  0  0  0  0  0  0  0  0  0  0  0
  3  1  1  0
  4  2  1  0
  7  3  1  0
  7  4  1  0
  7  5  1  0
  7  6  1  0
  8  5  1  0
  9  6  1  0
M  END
>  <NAME>  (1955) 
2,2-DIETHYL-1,3-PROPANEDIOL

>  <SYNONYMS>  (1955) 


>  <SPECTRUM TYPE>  (1955) 
MS1

>  <INSTRUMENT TYPE>  (1955) 
EI-B

>  <INSTRUMENT>  (1955) 
HITACHI M-80B

>  <ION MODE>  (1955) 
P

>  <INCHIKEY>  (1955) 
XRVCFZPJAHWYTB-UHFFFAOYSA-N

>  <FORMULA>  (1955) 
C7H16O2

>  <EXACT MASS>  (1955) 
132.115029752

>  <MW>  (1955) 
132

>  <ID>  (1955) 
JP009141

>  <CONTRIBUTOR>  (1955) 
University of Tokyo Team, {Faculty of Engineering, University of Tokyo

>  <COMMENT>  (1955) 
SMILES=CCC(CC)(CO)CO
InChI=InChI=1S/C7H16O2/c1-3-7(4-2,5-8)6-9/h8-9H,3-6H2,1-2H3
computed SMILES=OCC(CO)(CC)CC
accession=JP009141
date=2016.01.19 (Created 2008.10.21, modified 2011.05.06)
author=SODA AROMATIC CO., LTD.
license=CC BY-NC-SA
exact mass=132.11503
ionization energy=70 eV
ion type=[M]+*
computed spectral entropy=2.8685179619313983
computed normalized entropy=0.8068177608269703
SPLASH=splash10-0a59-9000000000-26466a90f5874f1b1bac
submitter=submitter = University of Tokyo Team (Faculty of Engineering, University of Tokyo)
MoNA Rating=3.75

>  <NUM PEAKS>  (1955) 
35

>  <MASS SPECTRAL PEAKS>  (1955) 
15 2.14
19 1.08
26 1.82
27 20.66
28 1.94
29 33.52
30 1.84
31 48.57
39 14.33
40 2.59
41 58.42
42 7.76
43 28.04
44 2.29
45 21.27
51 1.82
53 7.23
54 3.79
55 76.65
56 11.23
57 20.14
59 99.99
60 3.23
67 5.14
68 1.64
69 27.75
70 3.08
71 9.65
73 1
82 1.81
83 21.86
84 87.91
85 14.77
100 3.21
101 15.21

>  <PREDICTED SPECTRUM>  (1955) 
14 18
15 80
16 1
17 18
18 58
19 6
25 20
26 142
27 531
28 281
29 737
30 109
31 556
32 107
33 34
37 33
38 111
39 521
40 221
41 935
42 405
43 881
44 219
45 204
47 17
50 66
51 102
52 39
53 333
54 160
55 999
56 362
57 977
58 190
59 67
61 30
63 20
65 64
66 8
67 310
68 225
69 755
70 506
71 811
72 277
73 539
74 54
81 201
83 665
84 446
85 478
86 249
95 39
97 253
98 34
99 429
101 218
102 114
103 143

$$$$

     RDKit          2D

  6  5  0  0  0  0  0  0  0  0999 V2000
    0.0000    0.0000    0.0000 C   0  0  0  0  0  0  0  0  0  0  0  0
   -1.2990    2.2500    0.0000 C   0  0  0  0  0  0  0  0  0  0  0  0
   -1.2990    3.7500    0.0000 C   0  0  0  0  0  0  0  0  0  0  0  0
    0.0000    1.5000    0.0000 C   0  0  0  0  0  0  0  0  0  0  0  0
   -2.5981    4.5000    0.0000 O   0  0  0  0  0  0  0  0  0  0  0  0
    1.2990    2.2500    0.0000 O   0  0  0  0  0  0  0  0  0  0  0  0
  3  2  1  0
  4  1  1  0
  4  2  1  0
  5  3  1  0
  6  4  1  0
M  END
>  <NAME>  (1956) 
1,3-BUTANEDIOL

>  <SYNONYMS>  (1956) 


>  <SPECTRUM TYPE>  (1956) 
MS1

>  <INSTRUMENT TYPE>  (1956) 
EI-B

>  <INSTRUMENT>  (1956) 
HITACHI M-80B

>  <ION MODE>  (1956) 
P

>  <INCHIKEY>  (1956) 
PUPZLCDOIYMWBV-UHFFFAOYSA-N

>  <FORMULA>  (1956) 
C4H10O2

>  <EXACT MASS>  (1956) 
90.06807956

>  <MW>  (1956) 
90

>  <ID>  (1956) 
JP009139

>  <CONTRIBUTOR>  (1956) 
University of Tokyo Team, {Faculty of Engineering, University of Tokyo

>  <COMMENT>  (1956) 
SMILES=OCCC(C)O
InChI=InChI=1S/C4H10O2/c1-4(6)2-3-5/h4-6H,2-3H2,1H3
computed SMILES=OCCC(O)C
accession=JP009139
date=2016.01.19 (Created 2008.10.21, modified 2011.05.06)
author=SODA AROMATIC CO., LTD.
license=CC BY-NC-SA
exact mass=90.06808
ionization energy=70 eV
ion type=[M]+*
computed spectral entropy=2.55745518992647
computed normalized entropy=0.8156465978900275
SPLASH=splash10-002g-9000000000-3c919c2dc91ea11f9690
submitter=submitter = University of Tokyo Team (Faculty of Engineering, University of Tokyo)
MoNA Rating=3.75

>  <NUM PEAKS>  (1956) 
23

>  <MASS SPECTRAL PEAKS>  (1956) 
15 7.2
19 20.71
26 3.11
27 23.27
28 25.94
29 26.87
30 1.13
31 30.49
39 8.41
40 1.56
41 12.79
42 14.35
43 99.99
44 21.83
45 90.33
46 5.21
47 1.82
55 4.82
57 24.89
71 1.86
72 29.22
73 1.66
75 8.36

>  <PREDICTED SPECTRUM>  (1956) 
14 43
15 123
16 20
17 22
18 50
19 84
25 26
26 127
27 350
28 386
29 324
30 124
31 395
32 57
33 36
34 1
36 3
37 39
38 88
39 223
40 103
41 262
42 224
43 468
44 340
45 999
46 237
47 159
48 40
50 61
53 40
54 53
55 14
57 303
60 40
71 159
72 214
73 104
75 327
76 49
77 10

$$$$

     RDKit          2D

  4  3  0  0  0  0  0  0  0  0999 V2000
    0.9743    0.5625    0.0000 C   0  0  0  0  0  0  0  0  0  0  0  0
   -1.6238    0.5625    0.0000 C   0  0  0  0  0  0  0  0  0  0  0  0
   -0.3248    2.8125    0.0000 O   0  0  0  0  0  0  0  0  0  0  0  0
   -0.3248    1.3125    0.0000 S   0  0  0  0  0  0  0  0  0  0  0  0
  4  1  1  0
  4  2  1  0
  4  3  2  0
M  END
>  <NAME>  (1957) 
DIMETHYL SULFOXIDE

>  <SYNONYMS>  (1957) 


>  <SPECTRUM TYPE>  (1957) 
MS1

>  <INSTRUMENT TYPE>  (1957) 
EI-B

>  <INSTRUMENT>  (1957) 
HITACHI M-80B

>  <ION MODE>  (1957) 
P

>  <INCHIKEY>  (1957) 
IAZDPXIOMUYVGZ-UHFFFAOYSA-N

>  <FORMULA>  (1957) 
C2H6OS

>  <EXACT MASS>  (1957) 
78.013935812

>  <MW>  (1957) 
78

>  <ID>  (1957) 
JP009138

>  <CONTRIBUTOR>  (1957) 
University of Tokyo Team, {Faculty of Engineering, University of Tokyo

>  <COMMENT>  (1957) 
SMILES=CS(C)=O
InChI=InChI=1S/C2H6OS/c1-4(2)3/h1-2H3
computed SMILES=O=S(C)C
accession=JP009138
date=2016.01.19 (Created 2008.10.21, modified 2011.05.06)
author=SODA AROMATIC CO., LTD.
license=CC BY-NC-SA
exact mass=78.01394
ionization energy=70 eV
ion type=[M]+*
computed spectral entropy=2.375246192173003
computed normalized entropy=0.73791171868839
SPLASH=splash10-03fs-9000000000-378b716bc39417224511
submitter=submitter = University of Tokyo Team (Faculty of Engineering, University of Tokyo)
MoNA Rating=3.75

>  <NUM PEAKS>  (1957) 
25

>  <MASS SPECTRAL PEAKS>  (1957) 
13 1.06
14 3.46
15 20.03
27 6.56
29 10.26
31 7.88
32 1.79
33 3.58
34 3.79
35 5.32
44 2.01
45 41.21
46 14.8
47 9.93
48 10.75
49 1.38
58 1.07
61 15.6
62 4.51
63 99.99
64 1.9
65 3.88
78 71.45
79 1.98
80 2.88

>  <PREDICTED SPECTRUM>  (1957) 
14 119
15 683
16 34
25 24
29 241
30 129
31 115
32 124
33 138
34 57
35 95
44 95
45 656
46 431
47 585
48 572
49 203
59 112
60 17
61 325
62 390
63 993
64 621
65 439
78 999
79 174
80 136
81 5

$$$$

     RDKit          2D

  8  7  0  0  0  0  0  0  0  0999 V2000
   -6.4952    4.5000    0.0000 C   0  0  0  0  0  0  0  0  0  0  0  0
    2.5981    3.7500    0.0000 C   0  0  0  0  0  0  0  0  0  0  0  0
   -5.1962    3.7500    0.0000 C   0  0  0  0  0  0  0  0  0  0  0  0
    1.2990    4.5000    0.0000 C   0  0  0  0  0  0  0  0  0  0  0  0
   -3.8971    4.5000    0.0000 C   0  0  0  0  0  0  0  0  0  0  0  0
    0.0000    3.7500    0.0000 C   0  0  0  0  0  0  0  0  0  0  0  0
   -2.5981    3.7500    0.0000 S   0  0  0  0  0  0  0  0  0  0  0  0
   -1.2990    4.5000    0.0000 S   0  0  0  0  0  0  0  0  0  0  0  0
  3  1  1  0
  4  2  1  0
  5  3  1  0
  6  4  1  0
  7  5  1  0
  8  6  1  0
  8  7  1  0
M  END
>  <NAME>  (1958) 
DIPROPYL DISULFIDE

>  <SYNONYMS>  (1958) 


>  <SPECTRUM TYPE>  (1958) 
MS1

>  <INSTRUMENT TYPE>  (1958) 
EI-B

>  <INSTRUMENT>  (1958) 
HITACHI M-80B

>  <ION MODE>  (1958) 
P

>  <INCHIKEY>  (1958) 
ALVPFGSHPUPROW-UHFFFAOYSA-N

>  <FORMULA>  (1958) 
C6H14S2

>  <EXACT MASS>  (1958) 
150.053692448

>  <MW>  (1958) 
150

>  <ID>  (1958) 
JP009137

>  <CONTRIBUTOR>  (1958) 
University of Tokyo Team, {Faculty of Engineering, University of Tokyo

>  <COMMENT>  (1958) 
SMILES=CCCSSCCC
InChI=InChI=1S/C6H14S2/c1-3-5-7-8-6-4-2/h3-6H2,1-2H3
computed SMILES=S(SCCC)CCC
accession=JP009137
date=2016.01.19 (Created 2008.10.21, modified 2011.05.06)
author=SODA AROMATIC CO., LTD.
license=CC BY-NC-SA
exact mass=150.05369
ionization energy=70 eV
ion type=[M]+*
computed spectral entropy=2.3105801957312946
computed normalized entropy=0.7091810106812925
SPLASH=splash10-0006-9300000000-338033b829d5247885cd
submitter=submitter = University of Tokyo Team (Faculty of Engineering, University of Tokyo)
MoNA Rating=3.75

>  <NUM PEAKS>  (1958) 
26

>  <MASS SPECTRAL PEAKS>  (1958) 
15 1.02
26 1.11
27 20.1
29 1.43
39 11.24
41 31.64
42 2.54
43 99.99
44 1.77
45 6.99
46 4.14
47 5.36
58 1.3
59 1.31
64 1.99
66 7.02
73 3.96
74 4.07
75 1.53
79 3.05
108 28.44
109 1.34
110 2.12
150 35.69
151 2.59
152 2.98

>  <PREDICTED SPECTRUM>  (1958) 
26 59
27 411
29 230
31 29
32 24
33 22
34 26
35 24
37 18
38 66
39 393
40 137
41 691
42 235
43 999
44 254
45 416
46 195
47 265
48 46
59 172
64 194
65 214
66 239
67 44
73 281
74 214
75 288
76 210
77 84
79 70
80 10
103 75
107 183
108 687
109 181
110 145
150 838
151 259
152 232
153 46

$$$$

     RDKit          2D

  8  7  0  0  0  0  0  0  0  0999 V2000
   -6.4952    4.5000    0.0000 C   0  0  0  0  0  0  0  0  0  0  0  0
    2.5981    3.7500    0.0000 C   0  0  0  0  0  0  0  0  0  0  0  0
   -5.1962    3.7500    0.0000 C   0  0  0  0  0  0  0  0  0  0  0  0
    1.2990    4.5000    0.0000 C   0  0  0  0  0  0  0  0  0  0  0  0
   -3.8971    4.5000    0.0000 C   0  0  0  0  0  0  0  0  0  0  0  0
    0.0000    3.7500    0.0000 C   0  0  0  0  0  0  0  0  0  0  0  0
   -2.5981    3.7500    0.0000 S   0  0  0  0  0  0  0  0  0  0  0  0
   -1.2990    4.5000    0.0000 S   0  0  0  0  0  0  0  0  0  0  0  0
  3  1  2  0
  4  2  2  0
  5  3  1  0
  6  4  1  0
  7  5  1  0
  8  6  1  0
  8  7  1  0
M  END
>  <NAME>  (1959) 
DIALLYL DISULFIDE

>  <SYNONYMS>  (1959) 


>  <SPECTRUM TYPE>  (1959) 
MS1

>  <INSTRUMENT TYPE>  (1959) 
EI-B

>  <INSTRUMENT>  (1959) 
HITACHI M-80B

>  <ION MODE>  (1959) 
P

>  <INCHIKEY>  (1959) 
PFRGXCVKLLPLIP-UHFFFAOYSA-N

>  <FORMULA>  (1959) 
C6H10S2

>  <EXACT MASS>  (1959) 
146.02239232

>  <MW>  (1959) 
146

>  <ID>  (1959) 
JP009136

>  <CONTRIBUTOR>  (1959) 
University of Tokyo Team, {Faculty of Engineering, University of Tokyo

>  <COMMENT>  (1959) 
SMILES=C=CCSSCC=C
InChI=InChI=1S/C6H10S2/c1-3-5-7-8-6-4-2/h3-4H,1-2,5-6H2
computed SMILES=S(SCC=C)CC=C
accession=JP009136
date=2016.01.19 (Created 2008.10.21, modified 2011.05.06)
author=SODA AROMATIC CO., LTD.
license=CC BY-NC-SA
exact mass=146.02239
ionization energy=70 eV
ion type=[M]+*
computed spectral entropy=2.317963736161015
computed normalized entropy=0.6883754363127418
SPLASH=splash10-0006-9000000000-4339fab2bebf0f0edead
submitter=submitter = University of Tokyo Team (Faculty of Engineering, University of Tokyo)
MoNA Rating=3.75

>  <NUM PEAKS>  (1959) 
29

>  <MASS SPECTRAL PEAKS>  (1959) 
15 1.86
26 1.05
27 4.88
37 1.44
38 4.04
39 42.81
40 3.14
41 99.99
42 2.88
45 20.31
46 3.59
47 5.27
53 1.09
58 1.1
61 1.07
64 4.03
69 1.33
71 4.43
72 3.18
73 5.82
74 1.21
79 2.06
81 12.49
85 2.74
103 3.07
104 1.32
105 5.93
113 2.54
146 9.53

>  <PREDICTED SPECTRUM>  (1959) 
26 45
27 136
28 20
29 52
32 8
33 11
34 15
35 5
37 101
38 167
39 640
40 179
41 741
42 34
43 73
44 50
45 593
46 205
47 233
50 8
51 15
53 30
54 48
55 6
58 114
59 220
61 166
63 114
64 217
65 129
66 94
67 184
68 8
69 209
70 62
71 414
72 416
73 606
74 166
75 48
76 2
77 166
78 82
79 167
80 101
81 305
82 198
83 52
87 19
89 9
103 90
104 144
105 999
106 355
107 279
108 159
113 26
114 17
120 55
131 146
132 5
146 451
147 88
148 61

$$$$

     RDKit          2D

  4  3  0  0  0  0  0  0  0  0999 V2000
   -2.5981    2.2500    0.0000 C   0  0  0  0  0  0  0  0  0  0  0  0
    1.2990    1.5000    0.0000 C   0  0  0  0  0  0  0  0  0  0  0  0
   -1.2990    1.5000    0.0000 S   0  0  0  0  0  0  0  0  0  0  0  0
    0.0000    2.2500    0.0000 S   0  0  0  0  0  0  0  0  0  0  0  0
  3  1  1  0
  4  2  1  0
  4  3  1  0
M  END
>  <NAME>  (1960) 
DIMETHYL DISULFIDE

>  <SYNONYMS>  (1960) 


>  <SPECTRUM TYPE>  (1960) 
MS1

>  <INSTRUMENT TYPE>  (1960) 
EI-B

>  <INSTRUMENT>  (1960) 
HITACHI M-80B

>  <ION MODE>  (1960) 
P

>  <INCHIKEY>  (1960) 
WQOXQRCZOLPYPM-UHFFFAOYSA-N

>  <FORMULA>  (1960) 
C2H6S2

>  <EXACT MASS>  (1960) 
93.991092192

>  <MW>  (1960) 
94

>  <ID>  (1960) 
JP009135

>  <CONTRIBUTOR>  (1960) 
University of Tokyo Team, {Faculty of Engineering, University of Tokyo

>  <COMMENT>  (1960) 
SMILES=CSSC
InChI=InChI=1S/C2H6S2/c1-3-4-2/h1-2H3
computed SMILES=S(SC)C
accession=JP009135
date=2016.01.19 (Created 2008.10.21, modified 2011.05.06)
author=SODA AROMATIC CO., LTD.
license=CC BY-NC-SA
exact mass=93.99109
ionization energy=70 eV
ion type=[M]+*
computed spectral entropy=2.2468970974103777
computed normalized entropy=0.763098543834135
SPLASH=splash10-0005-9000000000-61860690131d526ccbcd
submitter=submitter = University of Tokyo Team (Faculty of Engineering, University of Tokyo)
MoNA Rating=3.75

>  <NUM PEAKS>  (1960) 
19

>  <MASS SPECTRAL PEAKS>  (1960) 
14 2.59
15 9.27
32 2.97
44 3.75
45 67.08
46 35.01
47 24.03
48 11.29
49 3.7
61 14.06
64 12.77
66 1.13
78 3.01
79 58.38
80 1.74
81 5.16
94 99.99
95 4.02
96 9.42

>  <PREDICTED SPECTRUM>  (1960) 
14 16
15 400
25 9
32 64
33 71
34 61
35 141
37 64
38 48
40 77
42 49
44 425
45 874
46 618
47 786
48 391
49 193
50 35
51 68
61 253
62 13
63 86
64 57
77 99
79 588
80 166
81 237
94 999
95 172
96 330

$$$$

     RDKit          2D

 10 10  0  0  0  0  0  0  0  0999 V2000
   -1.6300    1.2517    0.0000 C   0  0  0  0  0  0  0  0  0  0  0  0
   -0.8297   -1.2200    0.0000 C   0  0  0  0  0  0  0  0  0  0  0  0
    5.4215    1.5862    0.0000 C   0  0  0  0  0  0  0  0  0  0  0  0
    3.9215    1.5862    0.0000 C   0  0  0  0  0  0  0  0  0  0  0  0
    5.8815    0.1662    0.0000 C   0  0  0  0  0  0  0  0  0  0  0  0
    2.0244   -0.2959    0.0000 C   0  0  0  0  0  0  0  0  0  0  0  0
   -0.5163    0.2469    0.0000 C   0  0  0  0  0  0  0  0  0  0  0  0
    3.4515    0.1662    0.0000 C   0  0  0  0  0  0  0  0  0  0  0  0
    4.6715   -0.7138    0.0000 O   0  0  0  0  0  0  0  0  0  0  0  0
    0.9107    0.7090    0.0000 S   0  0  0  0  0  0  0  0  0  0  0  0
  4  3  1  0
  5  3  2  0
  7  1  1  0
  7  2  1  0
  8  4  2  0
  8  6  1  0
  9  5  1  0
  9  8  1  0
 10  6  1  0
 10  7  1  0
M  END
>  <NAME>  (1961) 
FURFURYL ISOPROPYL SULFIDE

>  <SYNONYMS>  (1961) 


>  <SPECTRUM TYPE>  (1961) 
MS1

>  <INSTRUMENT TYPE>  (1961) 
EI-B

>  <INSTRUMENT>  (1961) 
HITACHI M-80B

>  <ION MODE>  (1961) 
P

>  <INCHIKEY>  (1961) 
WCHRNAKORAINOJ-UHFFFAOYSA-N

>  <FORMULA>  (1961) 
C8H12OS

>  <EXACT MASS>  (1961) 
156.060886004

>  <MW>  (1961) 
156

>  <ID>  (1961) 
JP009134

>  <CONTRIBUTOR>  (1961) 
University of Tokyo Team, {Faculty of Engineering, University of Tokyo

>  <COMMENT>  (1961) 
SMILES=CC(C)SCc(c1)occ1
InChI=InChI=1S/C8H12OS/c1-7(2)10-6-8-4-3-5-9-8/h3-5,7H,6H2,1-2H3
computed SMILES=O1C=CC=C1CSC(C)C
accession=JP009134
date=2016.01.19 (Created 2008.10.21, modified 2011.05.06)
author=SODA AROMATIC CO., LTD.
license=CC BY-NC-SA
exact mass=156.06089
ionization energy=70 eV
ion type=[M]+*
computed spectral entropy=2.0335805168648737
computed normalized entropy=0.6679472917222141
SPLASH=splash10-001i-9100000000-00f793439471b2cd53b7
submitter=submitter = University of Tokyo Team (Faculty of Engineering, University of Tokyo)
MoNA Rating=3.75

>  <NUM PEAKS>  (1961) 
21

>  <MASS SPECTRAL PEAKS>  (1961) 
26 1.1
27 11.07
29 1.3
38 1.22
39 7.57
41 8.25
43 5.45
45 7.53
47 1.8
50 1.55
51 3.84
52 2.36
53 14.3
58 1.66
59 3.92
81 99.99
82 6.4
85 2.16
113 1.57
156 18.85
157 1.82

>  <PREDICTED SPECTRUM>  (1961) 
15 6
26 34
27 75
28 2
29 35
33 1
37 0
38 33
39 185
40 69
41 301
42 115
43 380
44 74
45 207
46 65
47 66
49 12
50 83
51 161
52 172
53 410
54 99
55 167
56 53
57 140
58 85
59 155
60 67
61 32
63 12
64 6
65 37
66 10
68 0
69 79
71 92
72 39
73 10
74 0
75 40
76 4
77 22
78 8
79 6
80 67
81 999
82 346
83 52
84 22
85 156
86 73
87 22
95 85
96 109
97 60
99 64
100 27
109 12
111 20
113 247
114 144
115 101
116 22
125 9
127 31
128 9
141 60
155 13
156 509
157 182
158 99
159 11

$$$$

     RDKit          2D

  9  9  0  0  0  0  0  0  0  0999 V2000
   -3.5724    2.0075    0.0000 C   0  0  0  0  0  0  0  0  0  0  0  0
    2.9228   -0.2425    0.0000 C   0  0  0  0  0  0  0  0  0  0  0  0
    2.9233    1.2583    0.0000 C   0  0  0  0  0  0  0  0  0  0  0  0
    1.6233   -0.9933    0.0000 C   0  0  0  0  0  0  0  0  0  0  0  0
    1.6243    2.0083    0.0000 C   0  0  0  0  0  0  0  0  0  0  0  0
    0.3243   -0.2433    0.0000 C   0  0  0  0  0  0  0  0  0  0  0  0
   -0.9743    2.0075    0.0000 C   0  0  0  0  0  0  0  0  0  0  0  0
    0.3248    1.2575    0.0000 C   0  0  0  0  0  0  0  0  0  0  0  0
   -2.2733    1.2575    0.0000 S   0  0  0  0  0  0  0  0  0  0  0  0
  3  2  2  0
  4  2  1  0
  5  3  1  0
  6  4  2  0
  8  5  2  0
  8  6  1  0
  8  7  1  0
  9  1  1  0
  9  7  1  0
M  END
>  <NAME>  (1962) 
BENZYL METHYL SULFIDE

>  <SYNONYMS>  (1962) 


>  <SPECTRUM TYPE>  (1962) 
MS1

>  <INSTRUMENT TYPE>  (1962) 
EI-B

>  <INSTRUMENT>  (1962) 
HITACHI M-80B

>  <ION MODE>  (1962) 
P

>  <INCHIKEY>  (1962) 
OFQPKKGMNWASPN-UHFFFAOYSA-N

>  <FORMULA>  (1962) 
C8H10S

>  <EXACT MASS>  (1962) 
138.05032132

>  <MW>  (1962) 
138

>  <ID>  (1962) 
JP009133

>  <CONTRIBUTOR>  (1962) 
University of Tokyo Team, {Faculty of Engineering, University of Tokyo

>  <COMMENT>  (1962) 
SMILES=CSCc(c1)cccc1
InChI=InChI=1S/C8H10S/c1-9-7-8-5-3-2-4-6-8/h2-6H,7H2,1H3
computed SMILES=S(C)CC=1C=CC=CC1
accession=JP009133
date=2016.01.19 (Created 2008.10.21, modified 2011.05.06)
author=SODA AROMATIC CO., LTD.
license=CC BY-NC-SA
exact mass=138.05032
ionization energy=70 eV
ion type=[M]+*
computed spectral entropy=2.2553651544360065
computed normalized entropy=0.684307277978316
SPLASH=splash10-0006-9100000000-55d88a5b25c7e5156841
submitter=submitter = University of Tokyo Team (Faculty of Engineering, University of Tokyo)
MoNA Rating=3.75

>  <NUM PEAKS>  (1962) 
27

>  <MASS SPECTRAL PEAKS>  (1962) 
15 1.36
27 1.48
38 1.79
39 13.73
41 1.79
45 13.62
46 2.19
47 3.77
50 3.56
51 7
52 1.63
61 1.41
62 2.33
63 7.6
64 1.79
65 16.74
69 1.04
77 3.24
78 1.07
89 4.6
90 1.55
91 99.99
92 7.83
121 2.3
123 1.18
138 25.19
139 1.94

>  <PREDICTED SPECTRUM>  (1962) 
26 11
27 36
32 3
34 5
35 7
38 24
39 151
40 18
41 61
42 39
43 35
45 125
46 66
47 160
48 38
49 30
50 70
51 162
52 49
53 7
58 36
59 78
60 15
61 112
62 43
63 148
64 51
65 305
66 45
75 19
77 122
78 71
79 50
81 56
88 27
89 97
90 102
91 999
92 336
93 48
105 84
106 49
123 44
138 587
139 190
140 151
141 7

$$$$

     RDKit          2D

  8  8  0  0  0  0  0  0  0  0999 V2000
    3.5281    0.5404    0.0000 C   0  0  0  0  0  0  0  0  0  0  0  0
   -1.6700   -0.9600    0.0000 C   0  0  0  0  0  0  0  0  0  0  0  0
   -0.3700   -1.7100    0.0000 C   0  0  0  0  0  0  0  0  0  0  0  0
   -1.6700    0.5400    0.0000 C   0  0  0  0  0  0  0  0  0  0  0  0
    0.9300   -0.9600    0.0000 C   0  0  0  0  0  0  0  0  0  0  0  0
   -0.3700    1.2900    0.0000 C   0  0  0  0  0  0  0  0  0  0  0  0
    0.9300    0.5400    0.0000 C   0  0  0  0  0  0  0  0  0  0  0  0
    2.2289    1.2902    0.0000 S   0  0  0  0  0  0  0  0  0  0  0  0
  3  2  2  0
  4  2  1  0
  5  3  1  0
  6  4  2  0
  7  5  2  0
  7  6  1  0
  8  1  1  0
  8  7  1  0
M  END
>  <NAME>  (1963) 
METHYL PHENYL SULFIDE

>  <SYNONYMS>  (1963) 


>  <SPECTRUM TYPE>  (1963) 
MS1

>  <INSTRUMENT TYPE>  (1963) 
EI-B

>  <INSTRUMENT>  (1963) 
HITACHI M-80B

>  <ION MODE>  (1963) 
P

>  <INCHIKEY>  (1963) 
HNKJADCVZUBCPG-UHFFFAOYSA-N

>  <FORMULA>  (1963) 
C7H8S

>  <EXACT MASS>  (1963) 
124.034671256

>  <MW>  (1963) 
124

>  <ID>  (1963) 
JP009132

>  <CONTRIBUTOR>  (1963) 
University of Tokyo Team, {Faculty of Engineering, University of Tokyo

>  <COMMENT>  (1963) 
SMILES=CSc(c1)cccc1
InChI=InChI=1S/C7H8S/c1-8-7-5-3-2-4-6-7/h2-6H,1H3
computed SMILES=S(C=1C=CC=CC1)C
accession=JP009132
date=2016.01.19 (Created 2008.10.21, modified 2011.05.06)
author=SODA AROMATIC CO., LTD.
license=CC BY-NC-SA
exact mass=124.03467
ionization energy=70 eV
ion type=[M]+*
computed spectral entropy=3.011395511498767
computed normalized entropy=0.8006475111318208
SPLASH=splash10-0fk9-9500000000-e5cde2928e0b7e33c1cc
submitter=submitter = University of Tokyo Team (Faculty of Engineering, University of Tokyo)
MoNA Rating=3.75

>  <NUM PEAKS>  (1963) 
43

>  <MASS SPECTRAL PEAKS>  (1963) 
15 5.68
26 1.26
27 3.11
37 1.85
38 4.41
39 19.29
45 28.64
46 7.9
47 5.09
49 1.39
50 18.14
51 34.82
52 3.18
57 2.3
58 2.04
61 1.25
62 6.11
63 6.12
65 22.52
66 1.38
69 14.67
70 1.15
71 1.48
73 1.16
74 6.23
75 2.84
76 1.81
77 12.7
78 42.96
79 6.05
81 2.1
82 5.12
83 1.61
91 31.68
92 2.02
108 5.64
109 46.38
110 3.12
111 1.97
123 8.22
124 99.99
125 8.31
126 4.82

>  <PREDICTED SPECTRUM>  (1963) 
14 30
15 105
25 39
26 78
27 102
28 34
31 9
32 21
33 26
34 6
37 101
38 155
39 391
40 34
41 56
42 7
45 441
46 118
47 246
48 40
49 92
50 319
51 534
52 165
53 62
57 97
58 146
60 9
61 148
62 114
63 191
64 64
65 352
66 160
69 319
70 7
74 161
75 154
76 169
77 668
78 385
79 187
80 32
81 82
82 169
83 125
84 131
89 129
90 105
91 345
92 37
96 21
97 88
98 18
108 211
109 702
110 409
111 216
112 1
121 64
123 380
124 999
125 301
126 174
127 4

$$$$

     RDKit          2D

 17 16  0  0  0  0  0  0  0  0999 V2000
  -15.5885    9.0000    0.0000 C   0  0  0  0  0  0  0  0  0  0  0  0
    5.1962    9.0000    0.0000 C   0  0  0  0  0  0  0  0  0  0  0  0
  -14.2894    8.2500    0.0000 C   0  0  0  0  0  0  0  0  0  0  0  0
    3.8971    8.2500    0.0000 C   0  0  0  0  0  0  0  0  0  0  0  0
  -12.9904    9.0000    0.0000 C   0  0  0  0  0  0  0  0  0  0  0  0
    2.5981    9.0000    0.0000 C   0  0  0  0  0  0  0  0  0  0  0  0
  -11.6913    8.2500    0.0000 C   0  0  0  0  0  0  0  0  0  0  0  0
    1.2990    8.2500    0.0000 C   0  0  0  0  0  0  0  0  0  0  0  0
  -10.3923    9.0000    0.0000 C   0  0  0  0  0  0  0  0  0  0  0  0
    0.0000    9.0000    0.0000 C   0  0  0  0  0  0  0  0  0  0  0  0
   -9.0933    8.2500    0.0000 C   0  0  0  0  0  0  0  0  0  0  0  0
   -1.2990    8.2500    0.0000 C   0  0  0  0  0  0  0  0  0  0  0  0
   -7.7942    9.0000    0.0000 C   0  0  0  0  0  0  0  0  0  0  0  0
   -2.5981    9.0000    0.0000 C   0  0  0  0  0  0  0  0  0  0  0  0
   -6.4952    8.2500    0.0000 C   0  0  0  0  0  0  0  0  0  0  0  0
   -3.8971    8.2500    0.0000 C   0  0  0  0  0  0  0  0  0  0  0  0
   -5.1962    9.0000    0.0000 S   0  0  0  0  0  0  0  0  0  0  0  0
  3  1  1  0
  4  2  1  0
  5  3  1  0
  6  4  1  0
  7  5  1  0
  8  6  1  0
  9  7  1  0
 10  8  1  0
 11  9  1  0
 12 10  1  0
 13 11  1  0
 14 12  1  0
 15 13  1  0
 16 14  1  0
 17 15  1  0
 17 16  1  0
M  END
>  <NAME>  (1964) 
DIOCTYL SULFIDE

>  <SYNONYMS>  (1964) 


>  <SPECTRUM TYPE>  (1964) 
MS1

>  <INSTRUMENT TYPE>  (1964) 
EI-B

>  <INSTRUMENT>  (1964) 
HITACHI M-80B

>  <ION MODE>  (1964) 
P

>  <INCHIKEY>  (1964) 
LOXRGHGHQYWXJK-UHFFFAOYSA-N

>  <FORMULA>  (1964) 
C16H34S

>  <EXACT MASS>  (1964) 
258.23812208799995

>  <MW>  (1964) 
258

>  <ID>  (1964) 
JP009131

>  <CONTRIBUTOR>  (1964) 
University of Tokyo Team, {Faculty of Engineering, University of Tokyo

>  <COMMENT>  (1964) 
SMILES=CCCCCCCCSCCCCCCCC
InChI=InChI=1S/C16H34S/c1-3-5-7-9-11-13-15-17-16-14-12-10-8-6-4-2/h3-16H2,1-2H3
computed SMILES=S(CCCCCCCC)CCCCCCCC
accession=JP009131
date=2016.01.19 (Created 2008.10.21, modified 2011.05.06)
author=SODA AROMATIC CO., LTD.
license=CC BY-NC-SA
exact mass=258.23812
ionization energy=70 eV
ion type=[M]+*
computed spectral entropy=3.18849242762933
computed normalized entropy=0.7993244371021211
SPLASH=splash10-052f-9100000000-a02a38c940de11e6c89e
submitter=submitter = University of Tokyo Team (Faculty of Engineering, University of Tokyo)
MoNA Rating=3.75

>  <NUM PEAKS>  (1964) 
54

>  <MASS SPECTRAL PEAKS>  (1964) 
27 23.28
29 66.34
30 1.21
39 9.09
40 2.58
41 99.99
42 14.89
43 98.04
44 3.58
45 5.89
46 3.38
47 8.65
53 4.49
54 4.34
55 67.98
56 30.81
57 42.24
58 2.32
59 2.48
60 7.72
61 33.94
62 1.89
63 1.97
67 6.96
68 8.89
69 78.12
70 33.11
71 15.56
73 2.23
74 1.28
75 3.37
81 2.53
82 7
83 20.03
84 16.4
85 1.77
87 8.67
88 1.9
89 4.73
97 2.19
101 3.27
111 1.68
112 20.21
113 2
144 4.64
145 92.86
146 11.78
147 5.07
159 5.81
173 1.7
201 2.02
257 1.42
258 9.28
259 2.29

>  <PREDICTED SPECTRUM>  (1964) 
25 8
26 50
27 314
28 85
29 528
30 107
31 75
33 9
34 43
35 92
36 8
37 8
38 46
39 408
40 177
41 959
42 520
43 999
44 188
45 226
46 150
47 306
48 106
49 75
50 37
51 115
52 58
53 288
54 314
55 978
56 756
57 781
58 145
59 155
60 335
61 708
62 186
63 131
64 38
65 85
66 54
67 285
68 303
69 745
70 592
71 389
72 78
73 220
74 54
75 177
76 77
77 116
78 11
79 116
81 202
82 241
83 591
84 416
85 135
86 39
87 201
88 21
89 78
90 95
91 10
95 118
96 193
97 425
98 341
99 158
100 19
101 166
102 63
103 214
104 42
107 7
109 18
110 150
111 270
112 293
113 87
114 14
115 109
117 284
118 73
119 50
126 107
127 115
128 18
129 161
131 321
132 104
133 111
139 2
140 143
141 122
142 52
143 153
144 74
145 457
146 221
147 171
148 36
155 56
157 112
158 113
159 737
160 255
161 188
162 27
167 25
168 65
173 231
174 12
187 131
201 175
215 138
229 209
230 25
243 101
257 248
258 633
259 272
260 142

$$$$

     RDKit          2D

 10  9  0  0  0  0  0  0  0  0999 V2000
   -8.4437    5.6250    0.0000 C   0  0  0  0  0  0  0  0  0  0  0  0
    3.2476    4.8750    0.0000 C   0  0  0  0  0  0  0  0  0  0  0  0
   -7.1447    4.8750    0.0000 C   0  0  0  0  0  0  0  0  0  0  0  0
   -5.8457    5.6250    0.0000 C   0  0  0  0  0  0  0  0  0  0  0  0
   -4.5466    4.8750    0.0000 C   0  0  0  0  0  0  0  0  0  0  0  0
   -3.2476    5.6250    0.0000 C   0  0  0  0  0  0  0  0  0  0  0  0
   -1.9486    4.8750    0.0000 C   0  0  0  0  0  0  0  0  0  0  0  0
   -0.6495    5.6250    0.0000 C   0  0  0  0  0  0  0  0  0  0  0  0
    0.6495    4.8750    0.0000 C   0  0  0  0  0  0  0  0  0  0  0  0
    1.9486    5.6250    0.0000 S   0  0  0  0  0  0  0  0  0  0  0  0
  3  1  1  0
  4  3  1  0
  5  4  1  0
  6  5  1  0
  7  6  1  0
  8  7  1  0
  9  8  1  0
 10  2  1  0
 10  9  1  0
M  END
>  <NAME>  (1965) 
METHYL OCTYL SULFIDE

>  <SYNONYMS>  (1965) 


>  <SPECTRUM TYPE>  (1965) 
MS1

>  <INSTRUMENT TYPE>  (1965) 
EI-B

>  <INSTRUMENT>  (1965) 
HITACHI M-80B

>  <ION MODE>  (1965) 
P

>  <INCHIKEY>  (1965) 
AHCJTMBRROLNHV-UHFFFAOYSA-N

>  <FORMULA>  (1965) 
C9H20S

>  <EXACT MASS>  (1965) 
160.12857164

>  <MW>  (1965) 
160

>  <ID>  (1965) 
JP009130

>  <CONTRIBUTOR>  (1965) 
University of Tokyo Team, {Faculty of Engineering, University of Tokyo

>  <COMMENT>  (1965) 
SMILES=CCCCCCCCSC
InChI=InChI=1S/C9H20S/c1-3-4-5-6-7-8-9-10-2/h3-9H2,1-2H3
computed SMILES=S(C)CCCCCCCC
accession=JP009130
date=2016.01.19 (Created 2008.10.21, modified 2011.05.06)
author=SODA AROMATIC CO., LTD.
license=CC BY-NC-SA
exact mass=160.12857
ionization energy=70 eV
ion type=[M]+*
computed spectral entropy=3.4390356290275794
computed normalized entropy=0.8365704574395066
SPLASH=splash10-08fu-9100000000-e7b593934290979d6169
submitter=submitter = University of Tokyo Team (Faculty of Engineering, University of Tokyo)
MoNA Rating=3.75

>  <NUM PEAKS>  (1965) 
61

>  <MASS SPECTRAL PEAKS>  (1965) 
15 2.47
26 2.12
27 43.15
28 5.62
29 45.3
30 1.09
35 7.55
39 23.93
40 4.06
41 86.83
42 31.54
43 51.54
44 1.86
45 12.25
46 7.81
47 18.5
48 38.56
49 17.8
50 2.29
51 1.83
53 6.48
54 5.09
55 58.14
56 57.83
57 21.79
58 2.1
59 4.77
60 2.58
61 99.99
62 12.28
63 4.86
65 1.45
67 5.18
68 9.93
69 45.19
70 46.63
71 8.72
73 1.68
74 1.74
75 12.52
76 3.78
77 1.28
81 1.19
82 5.21
83 28.4
84 26.35
85 2.34
87 1.28
89 3.24
97 2.94
103 11.24
112 7.26
117 2
131 2.02
145 44.59
146 4.02
147 1.94
159 4.09
160 47.75
161 4.71
162 2.27

>  <PREDICTED SPECTRUM>  (1965) 
14 13
15 21
25 34
26 140
27 540
28 219
29 625
30 200
31 80
32 23
33 32
34 67
35 216
36 45
37 72
38 100
39 446
40 171
41 961
42 545
43 733
44 116
45 381
46 366
47 472
48 322
49 252
50 123
51 181
52 118
53 305
54 287
55 863
56 847
57 523
58 162
59 198
60 182
61 999
62 365
63 369
64 114
65 34
66 21
67 241
68 320
69 725
70 720
71 257
72 31
73 34
74 11
75 471
76 160
77 159
78 83
79 71
81 18
82 116
83 424
84 275
85 99
87 33
88 9
89 228
90 73
91 18
96 6
97 245
98 66
101 28
103 260
104 63
105 58
111 44
112 203
113 78
117 112
131 191
132 65
145 743
146 221
147 217
148 22
159 239
160 620
161 212
162 87

$$$$

     RDKit          2D

  9  8  0  0  0  0  0  0  0  0999 V2000
    2.0490    4.0981    0.0000 C   0  0  0  0  0  0  0  0  0  0  0  0
    2.0490    1.0981    0.0000 C   0  0  0  0  0  0  0  0  0  0  0  0
    3.5490    2.5981    0.0000 C   0  0  0  0  0  0  0  0  0  0  0  0
   -1.5000    2.0490    0.0000 C   0  0  0  0  0  0  0  0  0  0  0  0
   -0.9510    0.0000    0.0000 C   0  0  0  0  0  0  0  0  0  0  0  0
    1.0981    0.5490    0.0000 C   0  0  0  0  0  0  0  0  0  0  0  0
    2.0490    2.5981    0.0000 C   0  0  0  0  0  0  0  0  0  0  0  0
   -0.2010    1.2990    0.0000 C   0  0  0  0  0  0  0  0  0  0  0  0
    0.5490    2.5981    0.0000 S   0  0  0  0  0  0  0  0  0  0  0  0
  7  1  1  0
  7  2  1  0
  7  3  1  0
  8  4  1  0
  8  5  1  0
  8  6  1  0
  9  7  1  0
  9  8  1  0
M  END
>  <NAME>  (1966) 
DI-TERT-BUTYL SULFIDE

>  <SYNONYMS>  (1966) 


>  <SPECTRUM TYPE>  (1966) 
MS1

>  <INSTRUMENT TYPE>  (1966) 
EI-B

>  <INSTRUMENT>  (1966) 
HITACHI M-80B

>  <ION MODE>  (1966) 
P

>  <INCHIKEY>  (1966) 
LNMBCRKRCIMQLW-UHFFFAOYSA-N

>  <FORMULA>  (1966) 
C8H18S

>  <EXACT MASS>  (1966) 
146.112921576

>  <MW>  (1966) 
146

>  <ID>  (1966) 
JP009129

>  <CONTRIBUTOR>  (1966) 
University of Tokyo Team, {Faculty of Engineering, University of Tokyo

>  <COMMENT>  (1966) 
SMILES=CC(C)(C)SC(C)(C)C
InChI=InChI=1S/C8H18S/c1-7(2,3)9-8(4,5)6/h1-6H3
computed SMILES=S(C(C)(C)C)C(C)(C)C
accession=JP009129
date=2016.01.19 (Created 2008.10.21, modified 2011.05.06)
author=SODA AROMATIC CO., LTD.
license=CC BY-NC-SA
exact mass=146.11292
ionization energy=70 eV
ion type=[M]+*
computed spectral entropy=2.10190111119601
computed normalized entropy=0.690387787967078
SPLASH=splash10-0a4i-9000000000-0359c1005e31d2034386
submitter=submitter = University of Tokyo Team (Faculty of Engineering, University of Tokyo)
MoNA Rating=3.75

>  <NUM PEAKS>  (1966) 
21

>  <MASS SPECTRAL PEAKS>  (1966) 
27 4.16
29 13.63
39 9.16
40 1.03
41 28.58
42 1.31
45 1.79
47 1.64
49 1.45
55 3.32
56 9.32
57 99.99
58 4.16
59 6.95
75 8.82
88 2.18
89 2.36
90 4.81
91 2.7
146 13.78
147 1.32

>  <PREDICTED SPECTRUM>  (1966) 
15 6
26 5
27 119
28 27
29 327
32 6
33 13
34 37
37 21
38 44
39 263
40 103
41 612
42 205
43 185
44 18
45 15
47 45
51 26
53 61
54 5
55 160
56 261
57 999
58 199
59 100
69 18
75 85
77 5
88 27
89 111
90 110
91 53
131 7
146 176
147 40
148 6

$$$$

     RDKit          2D

  9  8  0  0  0  0  0  0  0  0999 V2000
    2.5981    4.5000    0.0000 C   0  0  0  0  0  0  0  0  0  0  0  0
   -7.7942    4.5000    0.0000 C   0  0  0  0  0  0  0  0  0  0  0  0
    1.2990    5.2500    0.0000 C   0  0  0  0  0  0  0  0  0  0  0  0
   -6.4952    5.2500    0.0000 C   0  0  0  0  0  0  0  0  0  0  0  0
    0.0000    4.5000    0.0000 C   0  0  0  0  0  0  0  0  0  0  0  0
   -5.1962    4.5000    0.0000 C   0  0  0  0  0  0  0  0  0  0  0  0
   -1.2990    5.2500    0.0000 C   0  0  0  0  0  0  0  0  0  0  0  0
   -3.8971    5.2500    0.0000 C   0  0  0  0  0  0  0  0  0  0  0  0
   -2.5981    4.5000    0.0000 S   0  0  0  0  0  0  0  0  0  0  0  0
  3  1  1  0
  4  2  1  0
  5  3  1  0
  6  4  1  0
  7  5  1  0
  8  6  1  0
  9  7  1  0
  9  8  1  0
M  END
>  <NAME>  (1967) 
DIBUTYL SULFIDE

>  <SYNONYMS>  (1967) 


>  <SPECTRUM TYPE>  (1967) 
MS1

>  <INSTRUMENT TYPE>  (1967) 
EI-B

>  <INSTRUMENT>  (1967) 
HITACHI M-80B

>  <ION MODE>  (1967) 
P

>  <INCHIKEY>  (1967) 
HTIRHQRTDBPHNZ-UHFFFAOYSA-N

>  <FORMULA>  (1967) 
C8H18S

>  <EXACT MASS>  (1967) 
146.112921576

>  <MW>  (1967) 
146

>  <ID>  (1967) 
JP009128

>  <CONTRIBUTOR>  (1967) 
University of Tokyo Team, {Faculty of Engineering, University of Tokyo

>  <COMMENT>  (1967) 
SMILES=CCCCSCCCC
InChI=InChI=1S/C8H18S/c1-3-5-7-9-8-6-4-2/h3-8H2,1-2H3
computed SMILES=S(CCCC)CCCC
accession=JP009128
date=2016.01.19 (Created 2008.10.21, modified 2011.05.06)
author=SODA AROMATIC CO., LTD.
license=CC BY-NC-SA
exact mass=146.11292
ionization energy=70 eV
ion type=[M]+*
computed spectral entropy=2.9185854389258847
computed normalized entropy=0.7859240069941738
SPLASH=splash10-0bvi-9000000000-85df5bd2cd49cd3fbdd7
submitter=submitter = University of Tokyo Team (Faculty of Engineering, University of Tokyo)
MoNA Rating=3.75

>  <NUM PEAKS>  (1967) 
41

>  <MASS SPECTRAL PEAKS>  (1967) 
15 1.46
26 2.32
27 29.36
28 6.75
29 51.67
30 1.25
35 1.65
39 16.59
40 1.82
41 48.73
42 3.13
43 4.09
45 10.96
46 7.81
47 20.16
48 2.01
49 1.82
53 2.96
54 1.44
55 26.59
56 95.56
57 31.79
58 2.33
59 4.26
60 4.57
61 99.99
62 3.44
63 3.74
73 1.28
75 3.61
88 2.15
89 12.76
90 25.66
91 12.51
92 1.54
103 13.56
104 1.36
117 4.47
146 33.32
147 3.14
148 1.8

>  <PREDICTED SPECTRUM>  (1967) 
25 9
26 95
27 462
28 140
29 713
30 188
31 0
33 21
34 75
35 130
37 28
38 52
39 512
40 182
41 999
42 349
43 353
44 16
45 359
46 327
47 592
48 240
49 169
50 13
51 64
52 33
53 213
54 240
55 816
56 856
57 935
58 177
59 203
60 346
61 758
62 191
63 125
71 4
73 52
75 126
87 118
88 155
89 788
90 518
91 356
92 165
103 332
104 66
105 23
117 260
146 733
147 241
148 157

$$$$

     RDKit          2D

  7  6  0  0  0  0  0  0  0  0999 V2000
    1.6238    1.6875    0.0000 C   0  0  0  0  0  0  0  0  0  0  0  0
    0.3248    3.9375    0.0000 C   0  0  0  0  0  0  0  0  0  0  0  0
   -3.5724    1.6875    0.0000 C   0  0  0  0  0  0  0  0  0  0  0  0
   -2.2733    3.9375    0.0000 C   0  0  0  0  0  0  0  0  0  0  0  0
    0.3248    2.4375    0.0000 C   0  0  0  0  0  0  0  0  0  0  0  0
   -2.2733    2.4375    0.0000 C   0  0  0  0  0  0  0  0  0  0  0  0
   -0.9743    1.6875    0.0000 S   0  0  0  0  0  0  0  0  0  0  0  0
  5  1  1  0
  5  2  1  0
  6  3  1  0
  6  4  1  0
  7  5  1  0
  7  6  1  0
M  END
>  <NAME>  (1968) 
DIISOPROPYL SULFIDE

>  <SYNONYMS>  (1968) 


>  <SPECTRUM TYPE>  (1968) 
MS1

>  <INSTRUMENT TYPE>  (1968) 
EI-B

>  <INSTRUMENT>  (1968) 
HITACHI M-80B

>  <ION MODE>  (1968) 
P

>  <INCHIKEY>  (1968) 
XYWDPYKBIRQXQS-UHFFFAOYSA-N

>  <FORMULA>  (1968) 
C6H14S

>  <EXACT MASS>  (1968) 
118.08162144799999

>  <MW>  (1968) 
118

>  <ID>  (1968) 
JP009127

>  <CONTRIBUTOR>  (1968) 
University of Tokyo Team, {Faculty of Engineering, University of Tokyo

>  <COMMENT>  (1968) 
SMILES=CC(C)SC(C)C
InChI=InChI=1S/C6H14S/c1-5(2)7-6(3)4/h5-6H,1-4H3
computed SMILES=S(C(C)C)C(C)C
accession=JP009127
date=2016.01.19 (Created 2008.10.21, modified 2011.05.06)
author=SODA AROMATIC CO., LTD.
license=CC BY-NC-SA
exact mass=118.08162
ionization energy=70 eV
ion type=[M]+*
computed spectral entropy=2.640793367345489
computed normalized entropy=0.7619718990163608
SPLASH=splash10-01ox-9100000000-42ef19203255107e712c
submitter=submitter = University of Tokyo Team (Faculty of Engineering, University of Tokyo)
MoNA Rating=3.75

>  <NUM PEAKS>  (1968) 
32

>  <MASS SPECTRAL PEAKS>  (1968) 
15 2.66
26 1.4
27 27.58
29 1.02
35 1.29
38 2.31
39 25.99
40 3.01
41 52.45
42 12.26
43 99.99
44 2.49
45 9.81
46 1.24
47 10.65
49 1.9
58 4.16
59 19.51
60 10.18
61 92.26
62 2.43
63 3.16
74 2.57
75 10.82
76 18.94
77 3.23
103 45.41
104 2.22
105 1.43
118 29.89
119 2.01
120 1.28

>  <PREDICTED SPECTRUM>  (1968) 
14 32
15 80
16 2
25 19
26 86
27 410
28 135
29 216
31 61
32 43
33 64
34 79
35 87
37 36
38 85
39 403
40 202
41 703
42 325
43 999
44 274
45 343
46 198
47 393
48 183
49 0
53 35
55 138
58 196
59 489
60 189
61 398
62 58
63 1
69 8
71 5
74 126
75 723
76 452
77 183
78 10
89 75
103 387
104 145
116 1
117 72
118 700
119 211
120 133
121 21

$$$$

     RDKit          2D

  7  6  0  0  0  0  0  0  0  0999 V2000
    1.9486    3.3750    0.0000 C   0  0  0  0  0  0  0  0  0  0  0  0
   -5.8457    3.3750    0.0000 C   0  0  0  0  0  0  0  0  0  0  0  0
    0.6495    4.1250    0.0000 C   0  0  0  0  0  0  0  0  0  0  0  0
   -4.5466    4.1250    0.0000 C   0  0  0  0  0  0  0  0  0  0  0  0
   -0.6495    3.3750    0.0000 C   0  0  0  0  0  0  0  0  0  0  0  0
   -3.2476    3.3750    0.0000 C   0  0  0  0  0  0  0  0  0  0  0  0
   -1.9486    4.1250    0.0000 S   0  0  0  0  0  0  0  0  0  0  0  0
  3  1  2  0
  4  2  1  0
  5  3  1  0
  6  4  1  0
  7  5  1  0
  7  6  1  0
M  END
>  <NAME>  (1969) 
ALLYL PROPYL SULFIDE

>  <SYNONYMS>  (1969) 


>  <SPECTRUM TYPE>  (1969) 
MS1

>  <INSTRUMENT TYPE>  (1969) 
EI-B

>  <INSTRUMENT>  (1969) 
HITACHI

>  <ION MODE>  (1969) 
P

>  <INCHIKEY>  (1969) 
JMLIYQJQKZYHDQ-UHFFFAOYSA-N

>  <FORMULA>  (1969) 
C6H12S

>  <EXACT MASS>  (1969) 
116.065971384

>  <MW>  (1969) 
116

>  <ID>  (1969) 
JP009126

>  <CONTRIBUTOR>  (1969) 
University of Tokyo Team, {Faculty of Engineering, University of Tokyo

>  <COMMENT>  (1969) 
SMILES=CCCSCC=C
InChI=InChI=1S/C6H12S/c1-3-5-7-6-4-2/h3H,1,4-6H2,2H3
computed SMILES=S(CC=C)CCC
accession=JP009126
date=2016.01.19 (Created 2008.10.21, modified 2011.05.06)
author=SODA AROMATIC CO., LTD.
license=CC BY-NC-SA
exact mass=116.06597
ionization energy=70 eV
ion type=[M]+*
computed spectral entropy=2.791266831547007
computed normalized entropy=0.7789178401132074
SPLASH=splash10-0077-9000000000-eacd0b0d3cfdc2f56ebe
submitter=submitter = University of Tokyo Team (Faculty of Engineering, University of Tokyo)
MoNA Rating=3.75

>  <NUM PEAKS>  (1969) 
36

>  <MASS SPECTRAL PEAKS>  (1969) 
15 3.67
26 2.26
27 23.77
28 1.34
29 4.47
37 1.71
38 4.61
39 46.81
40 4.17
41 99.99
42 5.72
43 13.41
45 49.26
46 12.71
47 20.66
48 1
53 4.89
55 1.38
58 3.6
59 8.43
60 1.59
61 1.87
69 1.67
71 5.15
72 3.91
73 24.7
74 78.33
75 11.32
76 3.66
85 3.96
87 29.97
88 1.71
89 1.97
116 42.22
117 2.68
118 1.74

>  <PREDICTED SPECTRUM>  (1969) 
14 11
15 25
26 76
27 394
28 61
29 161
31 10
32 41
33 67
34 27
35 55
37 45
38 135
39 701
40 216
41 951
42 250
43 527
44 166
45 790
46 352
47 563
48 128
51 16
53 72
55 23
57 141
58 269
59 487
60 76
61 249
64 60
67 128
69 61
71 376
72 493
73 850
74 754
75 992
76 374
77 178
85 3
87 299
89 293
101 184
116 999
117 290
118 180
119 11

$$$$

     RDKit          2D

  7  6  0  0  0  0  0  0  0  0999 V2000
    1.9486    3.3750    0.0000 C   0  0  0  0  0  0  0  0  0  0  0  0
   -5.8457    3.3750    0.0000 C   0  0  0  0  0  0  0  0  0  0  0  0
    0.6495    4.1250    0.0000 C   0  0  0  0  0  0  0  0  0  0  0  0
   -4.5466    4.1250    0.0000 C   0  0  0  0  0  0  0  0  0  0  0  0
   -0.6495    3.3750    0.0000 C   0  0  0  0  0  0  0  0  0  0  0  0
   -3.2476    3.3750    0.0000 C   0  0  0  0  0  0  0  0  0  0  0  0
   -1.9486    4.1250    0.0000 S   0  0  0  0  0  0  0  0  0  0  0  0
  3  1  2  0
  4  2  2  0
  5  3  1  0
  6  4  1  0
  7  5  1  0
  7  6  1  0
M  END
>  <NAME>  (1970) 
DIALLYL SULFIDE

>  <SYNONYMS>  (1970) 


>  <SPECTRUM TYPE>  (1970) 
MS1

>  <INSTRUMENT TYPE>  (1970) 
EI-B

>  <INSTRUMENT>  (1970) 
HITACHI M-80B

>  <ION MODE>  (1970) 
P

>  <INCHIKEY>  (1970) 
UBJVUCKUDDKUJF-UHFFFAOYSA-N

>  <FORMULA>  (1970) 
C6H10S

>  <EXACT MASS>  (1970) 
114.05032132

>  <MW>  (1970) 
114

>  <ID>  (1970) 
JP009125

>  <CONTRIBUTOR>  (1970) 
University of Tokyo Team, {Faculty of Engineering, University of Tokyo

>  <COMMENT>  (1970) 
SMILES=C=CCSCC=C
InChI=InChI=1S/C6H10S/c1-3-5-7-6-4-2/h3-4H,1-2,5-6H2
computed SMILES=S(CC=C)CC=C
accession=JP009125
date=2016.01.19 (Created 2008.10.21, modified 2011.05.06)
author=SODA AROMATIC CO., LTD.
license=CC BY-NC-SA
exact mass=114.05032
ionization energy=70 eV
ion type=[M]+*
computed spectral entropy=2.8793852757021052
computed normalized entropy=0.8465798813166667
SPLASH=splash10-0075-9000000000-0769cf2b720f4b1d3029
submitter=submitter = University of Tokyo Team (Faculty of Engineering, University of Tokyo)
MoNA Rating=3.75

>  <NUM PEAKS>  (1970) 
30

>  <MASS SPECTRAL PEAKS>  (1970) 
15 5.92
27 13.92
29 3.57
37 5.55
38 10.25
39 87.04
40 10.29
41 76.21
42 5.5
45 99.99
46 12.81
47 21.66
53 4.61
58 5.55
59 5.38
67 10.55
68 9.15
69 7.05
71 22.34
72 44.09
73 53.56
74 6.07
79 5.12
80 15.55
81 15.29
85 8.81
86 8.37
87 4.76
99 18.25
114 32.22

>  <PREDICTED SPECTRUM>  (1970) 
26 22
27 115
37 26
38 80
39 512
40 111
41 584
42 23
43 2
45 257
46 55
47 147
51 50
53 153
54 71
55 129
57 101
58 160
59 180
60 31
63 3
64 17
65 63
67 91
69 229
71 358
72 329
73 999
74 394
75 257
79 223
80 110
81 183
83 20
85 88
87 227
88 22
97 100
99 380
113 132
114 484
115 47
116 12

$$$$

     RDKit          2D

 15 15  0  0  0  0  0  0  0  0999 V2000
   -3.1900    1.5500    0.0000 C   0  0  0  0  0  0  0  0  0  0  0  0
   -2.4400    0.2500    0.0000 C   0  0  0  0  0  0  0  0  0  0  0  0
   -2.4400    2.8500    0.0000 C   0  0  0  0  0  0  0  0  0  0  0  0
   -0.9400    0.2500    0.0000 C   0  0  0  0  0  0  0  0  0  0  0  0
   -0.9400    2.8500    0.0000 C   0  0  0  0  0  0  0  0  0  0  0  0
   -0.1900   -1.0500    0.0000 C   0  0  0  0  0  0  0  0  0  0  0  0
   -0.1900    4.1500    0.0000 C   0  0  0  0  0  0  0  0  0  0  0  0
    1.3100   -1.0500    0.0000 C   0  0  0  0  0  0  0  0  0  0  0  0
    1.3100    4.1500    0.0000 C   0  0  0  0  0  0  0  0  0  0  0  0
    2.0600    0.2500    0.0000 C   0  0  0  0  0  0  0  0  0  0  0  0
    2.0600    2.8500    0.0000 C   0  0  0  0  0  0  0  0  0  0  0  0
    3.5600    2.8490    0.0000 C   0  0  0  0  0  0  0  0  0  0  0  0
    1.3100    1.5500    0.0000 C   0  0  0  0  0  0  0  0  0  0  0  0
    5.0600    2.8490    0.0000 O   0  0  0  0  0  0  0  0  0  0  0  0
    2.8100    1.5500    0.0000 O   0  0  0  0  0  0  0  0  0  0  0  0
  2  1  1  0
  3  1  1  0
  4  2  1  0
  5  3  1  0
  6  4  1  0
  7  5  1  0
  8  6  1  0
  9  7  1  0
 10  8  1  0
 11  9  1  0
 13 10  1  0
 13 11  1  0
 14 12  2  0
 15 12  1  0
 15 13  1  0
M  END
>  <NAME>  (1971) 
CYCLODODECYL FORMATE

>  <SYNONYMS>  (1971) 


>  <SPECTRUM TYPE>  (1971) 
MS1

>  <INSTRUMENT TYPE>  (1971) 
EI-B

>  <INSTRUMENT>  (1971) 
HITACHI M-80B

>  <ION MODE>  (1971) 
P

>  <INCHIKEY>  (1971) 
WGFQFIYJBLNXIF-UHFFFAOYSA-N

>  <FORMULA>  (1971) 
C13H24O2

>  <EXACT MASS>  (1971) 
212.177630008

>  <MW>  (1971) 
212

>  <ID>  (1971) 
JP009124

>  <CONTRIBUTOR>  (1971) 
University of Tokyo Team, {Faculty of Engineering, University of Tokyo

>  <COMMENT>  (1971) 
SMILES=O=COC(C1)CCCCCCCCCC1
InChI=InChI=1S/C13H24O2/c14-12-15-13-10-8-6-4-2-1-3-5-7-9-11-13/h12-13H,1-11H2
computed SMILES=O=COC1CCCCCCCCCCC1
accession=JP009124
date=2016.01.19 (Created 2008.10.21, modified 2011.05.06)
author=SODA AROMATIC CO., LTD.
license=CC BY-NC-SA
exact mass=212.17763
ionization energy=70 eV
ion type=[M]+*
computed spectral entropy=3.4448517043987033
computed normalized entropy=0.8483930683058953
SPLASH=splash10-05o1-9100000000-39dfaf8f6e62600edbac
submitter=submitter = University of Tokyo Team (Faculty of Engineering, University of Tokyo)
MoNA Rating=3.75

>  <NUM PEAKS>  (1971) 
58

>  <MASS SPECTRAL PEAKS>  (1971) 
27 16.12
28 3.41
29 31.49
30 1.01
31 4.39
39 18.07
40 3.13
41 76.42
42 18.81
43 31.18
44 10.14
45 3.93
47 1.46
53 8.56
54 30.49
55 77.53
56 18.18
57 40.54
58 3.2
65 1.74
66 6.57
67 62.99
68 48.47
69 40.07
70 13.22
71 9.55
72 1.6
77 1.35
79 4.84
80 4.58
81 54.81
82 99.99
83 35.94
84 6.74
85 5.45
93 1.56
94 3.82
95 39.53
96 86.66
97 25.63
98 6.5
99 1.66
108 1.76
109 26.25
110 26.17
111 6.55
112 2.1
122 1.05
123 13.76
124 13.47
125 2.06
137 5.93
138 14.81
139 1.55
140 1.62
151 1.23
166 25.41
167 3.76

>  <PREDICTED SPECTRUM>  (1971) 
26 10
27 161
28 19
29 271
30 10
31 87
39 280
40 65
41 931
42 290
43 605
44 60
45 129
46 11
47 9
51 38
52 10
53 208
54 448
55 999
56 424
57 707
58 215
59 211
65 82
66 192
67 730
68 527
69 548
70 306
71 303
77 119
78 50
79 179
80 189
81 693
82 879
83 713
84 236
85 179
87 62
91 56
93 92
94 160
95 384
96 668
97 342
98 177
99 46
100 6
101 97
102 34
103 47
109 234
110 320
111 176
112 158
113 105
122 0
123 340
124 195
125 77
126 14
137 70
138 239
139 48
151 45
152 25
165 59
166 467
167 119
194 119
196 45
212 62

$$$$

     RDKit          2D

 26 25  0  0  0  0  0  0  0  0999 V2000
    8.4437   13.8750    0.0000 C   0  0  0  0  0  0  0  0  0  0  0  0
  -24.0322   14.6250    0.0000 C   0  0  0  0  0  0  0  0  0  0  0  0
    7.1447   14.6250    0.0000 C   0  0  0  0  0  0  0  0  0  0  0  0
  -22.7332   13.8750    0.0000 C   0  0  0  0  0  0  0  0  0  0  0  0
    5.8457   13.8750    0.0000 C   0  0  0  0  0  0  0  0  0  0  0  0
  -21.4341   14.6250    0.0000 C   0  0  0  0  0  0  0  0  0  0  0  0
    4.5466   14.6250    0.0000 C   0  0  0  0  0  0  0  0  0  0  0  0
  -20.1351   13.8750    0.0000 C   0  0  0  0  0  0  0  0  0  0  0  0
    3.2476   13.8750    0.0000 C   0  0  0  0  0  0  0  0  0  0  0  0
  -18.8361   14.6250    0.0000 C   0  0  0  0  0  0  0  0  0  0  0  0
    1.9486   14.6250    0.0000 C   0  0  0  0  0  0  0  0  0  0  0  0
  -17.5370   13.8750    0.0000 C   0  0  0  0  0  0  0  0  0  0  0  0
    0.6495   13.8750    0.0000 C   0  0  0  0  0  0  0  0  0  0  0  0
  -16.2380   14.6250    0.0000 C   0  0  0  0  0  0  0  0  0  0  0  0
   -0.6495   14.6250    0.0000 C   0  0  0  0  0  0  0  0  0  0  0  0
  -14.9389   13.8750    0.0000 C   0  0  0  0  0  0  0  0  0  0  0  0
   -1.9486   13.8750    0.0000 C   0  0  0  0  0  0  0  0  0  0  0  0
  -13.6399   14.6250    0.0000 C   0  0  0  0  0  0  0  0  0  0  0  0
   -3.2476   14.6250    0.0000 C   0  0  0  0  0  0  0  0  0  0  0  0
  -12.3409   13.8750    0.0000 C   0  0  0  0  0  0  0  0  0  0  0  0
   -4.5466   13.8750    0.0000 C   0  0  0  0  0  0  0  0  0  0  0  0
  -11.0418   14.6250    0.0000 C   0  0  0  0  0  0  0  0  0  0  0  0
   -5.8457   14.6250    0.0000 C   0  0  0  0  0  0  0  0  0  0  0  0
   -9.7428   13.8750    0.0000 C   0  0  0  0  0  0  0  0  0  0  0  0
   -7.1447   13.8750    0.0000 C   0  0  0  0  0  0  0  0  0  0  0  0
   -8.4437   14.6250    0.0000 C   0  0  0  0  0  0  0  0  0  0  0  0
  3  1  1  0
  4  2  1  0
  5  3  1  0
  6  4  1  0
  7  5  1  0
  8  6  1  0
  9  7  1  0
 10  8  1  0
 11  9  1  0
 12 10  1  0
 13 11  1  0
 14 12  1  0
 15 13  1  0
 16 14  1  0
 17 15  1  0
 18 16  1  0
 19 17  1  0
 20 18  1  0
 21 19  1  0
 22 20  1  0
 23 21  1  0
 24 22  1  0
 25 23  1  0
 26 24  1  0
 26 25  1  0
M  END
>  <NAME>  (1972) 
HEXACOSANE

>  <SYNONYMS>  (1972) 


>  <SPECTRUM TYPE>  (1972) 
MS1

>  <INSTRUMENT TYPE>  (1972) 
EI-B

>  <INSTRUMENT>  (1972) 
HITACHI M-80B

>  <ION MODE>  (1972) 
P

>  <INCHIKEY>  (1972) 
HMSWAIKSFDFLKN-UHFFFAOYSA-N

>  <FORMULA>  (1972) 
C26H54

>  <EXACT MASS>  (1972) 
366.422551728

>  <MW>  (1972) 
366

>  <ID>  (1972) 
JP009123

>  <CONTRIBUTOR>  (1972) 
University of Tokyo Team, {Faculty of Engineering, University of Tokyo

>  <COMMENT>  (1972) 
SMILES=CCCCCCCCCCCCCCCCCCCCCCCCCC
cas=630-01-3
InChI=InChI=1S/C26H54/c1-3-5-7-9-11-13-15-17-19-21-23-25-26-24-22-20-18-16-14-12-10-8-6-4-2/h3-26H2,1-2H3
computed SMILES=CCCCCCCCCCCCCCCCCCCCCCCCCC
accession=JP009123
date=2016.01.19 (Created 2008.10.21, modified 2011.05.06)
author=SODA AROMATIC CO., LTD.
license=CC BY-NC-SA
exact mass=366.42255
ionization energy=70 eV
ion type=[M]+*
computed spectral entropy=2.7008065089003135
computed normalized entropy=0.732148215330892
SPLASH=splash10-0a4l-9000000000-e37e2b4f024d8a92f5a7
submitter=submitter = University of Tokyo Team (Faculty of Engineering, University of Tokyo)
MoNA Rating=3.75

>  <NUM PEAKS>  (1972) 
40

>  <MASS SPECTRAL PEAKS>  (1972) 
27 5.14
29 16.32
39 2.04
41 35.08
42 8.5
43 99.67
44 1.25
53 1.57
54 2.18
55 27.32
56 18.26
57 99.99
58 4.08
67 2.36
68 2.51
69 13.72
70 7.9
71 63.49
72 3.01
82 2.63
83 8.14
84 4.51
85 37.61
86 1.45
96 1
97 6.04
98 3.32
99 8.25
111 2.06
112 2.02
113 4.88
125 1.12
126 1.2
127 3.27
140 1.41
141 2.26
155 1.37
168 1.29
169 1.75
197 1.25

>  <PREDICTED SPECTRUM>  (1972) 
26 16
27 118
28 64
29 163
30 20
38 6
39 123
40 58
41 462
42 247
43 847
44 154
45 16
51 28
52 10
53 134
54 171
55 478
56 405
57 999
58 180
65 17
66 58
67 195
68 224
69 410
70 312
71 860
72 220
79 46
80 39
81 156
82 257
83 360
84 284
85 696
86 171
91 9
93 8
94 0
95 106
96 191
97 359
98 229
99 411
100 76
109 78
110 102
111 285
112 226
113 361
114 80
123 9
124 107
125 162
126 192
127 332
128 76
137 23
138 29
139 117
140 192
141 262
142 68
152 86
153 124
154 171
155 279
156 73
166 11
167 65
168 170
169 213
170 68
181 86
182 101
183 198
184 42
195 57
196 111
197 145
208 45
209 65
210 130
211 156
212 16
223 13
224 145
225 98
226 59
238 44
239 82
240 14
252 134
253 143
254 10
266 78
267 78
268 26
280 137
281 129
294 87
295 61
308 109
309 133
310 62
322 108
323 122
324 47
336 78
337 121
338 69
350 35
351 76
352 37
364 63
365 60
366 119
367 23

$$$$

     RDKit          2D

 25 24  0  0  0  0  0  0  0  0999 V2000
    7.7942   13.5000    0.0000 C   0  0  0  0  0  0  0  0  0  0  0  0
  -23.3827   13.5000    0.0000 C   0  0  0  0  0  0  0  0  0  0  0  0
    6.4952   14.2500    0.0000 C   0  0  0  0  0  0  0  0  0  0  0  0
  -22.0836   14.2500    0.0000 C   0  0  0  0  0  0  0  0  0  0  0  0
    5.1962   13.5000    0.0000 C   0  0  0  0  0  0  0  0  0  0  0  0
  -20.7846   13.5000    0.0000 C   0  0  0  0  0  0  0  0  0  0  0  0
    3.8971   14.2500    0.0000 C   0  0  0  0  0  0  0  0  0  0  0  0
  -19.4856   14.2500    0.0000 C   0  0  0  0  0  0  0  0  0  0  0  0
    2.5981   13.5000    0.0000 C   0  0  0  0  0  0  0  0  0  0  0  0
  -18.1865   13.5000    0.0000 C   0  0  0  0  0  0  0  0  0  0  0  0
    1.2990   14.2500    0.0000 C   0  0  0  0  0  0  0  0  0  0  0  0
  -16.8875   14.2500    0.0000 C   0  0  0  0  0  0  0  0  0  0  0  0
    0.0000   13.5000    0.0000 C   0  0  0  0  0  0  0  0  0  0  0  0
  -15.5885   13.5000    0.0000 C   0  0  0  0  0  0  0  0  0  0  0  0
   -1.2990   14.2500    0.0000 C   0  0  0  0  0  0  0  0  0  0  0  0
  -14.2894   14.2500    0.0000 C   0  0  0  0  0  0  0  0  0  0  0  0
   -2.5981   13.5000    0.0000 C   0  0  0  0  0  0  0  0  0  0  0  0
  -12.9904   13.5000    0.0000 C   0  0  0  0  0  0  0  0  0  0  0  0
   -3.8971   14.2500    0.0000 C   0  0  0  0  0  0  0  0  0  0  0  0
  -11.6913   14.2500    0.0000 C   0  0  0  0  0  0  0  0  0  0  0  0
   -5.1962   13.5000    0.0000 C   0  0  0  0  0  0  0  0  0  0  0  0
  -10.3923   13.5000    0.0000 C   0  0  0  0  0  0  0  0  0  0  0  0
   -6.4952   14.2500    0.0000 C   0  0  0  0  0  0  0  0  0  0  0  0
   -9.0933   14.2500    0.0000 C   0  0  0  0  0  0  0  0  0  0  0  0
   -7.7942   13.5000    0.0000 C   0  0  0  0  0  0  0  0  0  0  0  0
  3  1  1  0
  4  2  1  0
  5  3  1  0
  6  4  1  0
  7  5  1  0
  8  6  1  0
  9  7  1  0
 10  8  1  0
 11  9  1  0
 12 10  1  0
 13 11  1  0
 14 12  1  0
 15 13  1  0
 16 14  1  0
 17 15  1  0
 18 16  1  0
 19 17  1  0
 20 18  1  0
 21 19  1  0
 22 20  1  0
 23 21  1  0
 24 22  1  0
 25 23  1  0
 25 24  1  0
M  END
>  <NAME>  (1973) 
PENTACOSANE

>  <SYNONYMS>  (1973) 


>  <SPECTRUM TYPE>  (1973) 
MS1

>  <INSTRUMENT TYPE>  (1973) 
EI-B

>  <INSTRUMENT>  (1973) 
HITACHI M-80B

>  <ION MODE>  (1973) 
P

>  <INCHIKEY>  (1973) 
YKNWIILGEFFOPE-UHFFFAOYSA-N

>  <FORMULA>  (1973) 
C25H52

>  <EXACT MASS>  (1973) 
352.406901664

>  <MW>  (1973) 
352

>  <ID>  (1973) 
JP009122

>  <CONTRIBUTOR>  (1973) 
University of Tokyo Team, {Faculty of Engineering, University of Tokyo

>  <COMMENT>  (1973) 
SMILES=CCCCCCCCCCCCCCCCCCCCCCCCC
cas=629-99-2
InChI=InChI=1S/C25H52/c1-3-5-7-9-11-13-15-17-19-21-23-25-24-22-20-18-16-14-12-10-8-6-4-2/h3-25H2,1-2H3
computed SMILES=CCCCCCCCCCCCCCCCCCCCCCCCC
accession=JP009122
date=2016.01.19 (Created 2008.10.21, modified 2011.05.06)
author=SODA AROMATIC CO., LTD.
license=CC BY-NC-SA
exact mass=352.4069
ionization energy=70 eV
ion type=[M]+*
computed spectral entropy=2.636177481499065
computed normalized entropy=0.7356393329498662
SPLASH=splash10-0a4l-9000000000-ee53fcca7e980fdff3c3
submitter=submitter = University of Tokyo Team (Faculty of Engineering, University of Tokyo)
MoNA Rating=3.75

>  <NUM PEAKS>  (1973) 
36

>  <MASS SPECTRAL PEAKS>  (1973) 
27 3.97
29 14.5
39 2.38
41 31.69
42 9.54
43 88.68
44 1.27
53 1.03
54 2.28
55 23.94
56 12.09
57 99.99
58 2.57
67 2.15
68 2.32
69 13.16
70 10.15
71 56.48
72 2.16
82 2.04
83 10.07
84 4.45
85 31.77
86 1.28
97 4.69
98 2.61
99 7.15
111 1.72
112 1.62
113 3.67
126 1.71
127 2.39
140 1.02
141 1.77
155 1.69
169 1.43

>  <PREDICTED SPECTRUM>  (1973) 
26 18
27 71
28 31
29 147
30 28
38 1
39 133
40 66
41 487
42 259
43 863
44 158
45 4
51 29
52 11
53 139
54 168
55 486
56 404
57 999
58 173
65 15
66 60
67 200
68 221
69 407
70 314
71 858
72 219
77 19
79 56
80 33
81 152
82 253
83 357
84 286
85 687
86 167
93 0
95 83
96 189
97 352
98 230
99 406
100 78
109 74
110 101
111 280
112 217
113 358
114 84
123 27
124 96
125 162
126 194
127 325
128 73
135 18
137 10
138 49
139 122
140 185
141 265
142 76
150 11
151 3
152 71
153 123
154 168
155 266
156 55
167 69
168 150
169 211
170 74
180 4
181 56
182 102
183 194
184 3
194 43
195 88
196 84
197 123
198 12
210 126
211 165
212 44
223 11
224 111
225 85
226 33
238 72
239 97
240 19
252 129
253 141
254 20
266 67
267 125
280 139
281 52
282 8
294 106
295 145
296 19
308 117
309 136
310 41
322 58
323 141
324 81
336 66
337 94
338 33
350 0
351 49
352 138
353 33

$$$$

     RDKit          2D

 24 23  0  0  0  0  0  0  0  0999 V2000
  -22.0836   13.5000    0.0000 C   0  0  0  0  0  0  0  0  0  0  0  0
    7.7942   12.7500    0.0000 C   0  0  0  0  0  0  0  0  0  0  0  0
  -20.7846   12.7500    0.0000 C   0  0  0  0  0  0  0  0  0  0  0  0
    6.4952   13.5000    0.0000 C   0  0  0  0  0  0  0  0  0  0  0  0
  -19.4856   13.5000    0.0000 C   0  0  0  0  0  0  0  0  0  0  0  0
    5.1962   12.7500    0.0000 C   0  0  0  0  0  0  0  0  0  0  0  0
  -18.1865   12.7500    0.0000 C   0  0  0  0  0  0  0  0  0  0  0  0
    3.8971   13.5000    0.0000 C   0  0  0  0  0  0  0  0  0  0  0  0
  -16.8875   13.5000    0.0000 C   0  0  0  0  0  0  0  0  0  0  0  0
    2.5981   12.7500    0.0000 C   0  0  0  0  0  0  0  0  0  0  0  0
  -15.5885   12.7500    0.0000 C   0  0  0  0  0  0  0  0  0  0  0  0
    1.2990   13.5000    0.0000 C   0  0  0  0  0  0  0  0  0  0  0  0
  -14.2894   13.5000    0.0000 C   0  0  0  0  0  0  0  0  0  0  0  0
    0.0000   12.7500    0.0000 C   0  0  0  0  0  0  0  0  0  0  0  0
  -12.9904   12.7500    0.0000 C   0  0  0  0  0  0  0  0  0  0  0  0
   -1.2990   13.5000    0.0000 C   0  0  0  0  0  0  0  0  0  0  0  0
  -11.6913   13.5000    0.0000 C   0  0  0  0  0  0  0  0  0  0  0  0
   -2.5981   12.7500    0.0000 C   0  0  0  0  0  0  0  0  0  0  0  0
  -10.3923   12.7500    0.0000 C   0  0  0  0  0  0  0  0  0  0  0  0
   -3.8971   13.5000    0.0000 C   0  0  0  0  0  0  0  0  0  0  0  0
   -9.0933   13.5000    0.0000 C   0  0  0  0  0  0  0  0  0  0  0  0
   -5.1962   12.7500    0.0000 C   0  0  0  0  0  0  0  0  0  0  0  0
   -7.7942   12.7500    0.0000 C   0  0  0  0  0  0  0  0  0  0  0  0
   -6.4952   13.5000    0.0000 C   0  0  0  0  0  0  0  0  0  0  0  0
  3  1  1  0
  4  2  1  0
  5  3  1  0
  6  4  1  0
  7  5  1  0
  8  6  1  0
  9  7  1  0
 10  8  1  0
 11  9  1  0
 12 10  1  0
 13 11  1  0
 14 12  1  0
 15 13  1  0
 16 14  1  0
 17 15  1  0
 18 16  1  0
 19 17  1  0
 20 18  1  0
 21 19  1  0
 22 20  1  0
 23 21  1  0
 24 22  1  0
 24 23  1  0
M  END
>  <NAME>  (1974) 
TETRACOSANE

>  <SYNONYMS>  (1974) 


>  <SPECTRUM TYPE>  (1974) 
MS1

>  <INSTRUMENT TYPE>  (1974) 
EI-B

>  <INSTRUMENT>  (1974) 
HITACHI M-80B

>  <ION MODE>  (1974) 
P

>  <INCHIKEY>  (1974) 
POOSGDOYLQNASK-UHFFFAOYSA-N

>  <FORMULA>  (1974) 
C24H50

>  <EXACT MASS>  (1974) 
338.3912516

>  <MW>  (1974) 
338

>  <ID>  (1974) 
JP009121

>  <CONTRIBUTOR>  (1974) 
University of Tokyo Team, {Faculty of Engineering, University of Tokyo

>  <COMMENT>  (1974) 
SMILES=CCCCCCCCCCCCCCCCCCCCCCCC
cas=646-31-1
InChI=InChI=1S/C24H50/c1-3-5-7-9-11-13-15-17-19-21-23-24-22-20-18-16-14-12-10-8-6-4-2/h3-24H2,1-2H3
computed SMILES=CCCCCCCCCCCCCCCCCCCCCCCC
accession=JP009121
date=2016.01.19 (Created 2008.10.21, modified 2011.05.06)
author=SODA AROMATIC CO., LTD.
license=CC BY-NC-SA
exact mass=338.39125
ionization energy=70 eV
ion type=[M]+*
computed spectral entropy=2.69389324047933
computed normalized entropy=0.7353208436727908
SPLASH=splash10-0a4l-9000000000-eb1df71fee79807844a1
submitter=submitter = University of Tokyo Team (Faculty of Engineering, University of Tokyo)
MoNA Rating=3.75

>  <NUM PEAKS>  (1974) 
39

>  <MASS SPECTRAL PEAKS>  (1974) 
27 3.88
29 12.19
39 3.24
41 32.79
42 11.69
43 78.75
44 2.94
53 1.29
54 2.63
55 26.48
56 11.91
57 99.99
58 2.35
67 1.3
68 2
69 12.46
70 14.72
71 52.24
72 1.3
82 1.31
83 7.02
84 3.21
85 34.7
86 1.29
96 1.13
97 4.87
98 2.07
99 10.48
111 1.56
112 2.15
113 3.31
126 1.13
127 3.11
140 1.2
154 1.02
155 1.74
182 1.17
183 1.58
197 1.21

>  <PREDICTED SPECTRUM>  (1974) 
0 10
26 21
27 119
28 70
29 170
30 34
38 7
39 144
40 67
41 516
42 265
43 877
44 159
51 28
52 14
53 144
54 175
55 496
56 408
57 999
58 175
65 23
66 56
67 207
68 216
69 405
70 317
71 855
72 214
79 55
80 29
81 143
82 243
83 357
84 288
85 679
86 161
95 74
96 189
97 345
98 227
99 401
100 77
109 78
110 90
111 275
112 215
113 350
114 86
123 20
124 98
125 164
126 187
127 323
128 77
135 7
137 34
138 36
139 118
140 180
141 252
142 61
152 57
153 127
154 162
155 256
156 64
166 16
167 47
168 146
169 207
170 49
180 46
181 81
182 83
183 178
184 20
195 0
196 94
197 131
198 56
209 2
210 109
211 152
212 6
224 119
225 77
226 33
238 75
239 112
240 32
252 122
253 148
266 88
267 35
280 146
281 151
282 66
293 2
294 108
295 135
296 8
308 60
309 171
310 90
322 29
323 92
324 54
336 46
337 75
338 126
339 60

$$$$

     RDKit          2D

 23 22  0  0  0  0  0  0  0  0999 V2000
    7.1447   12.3750    0.0000 C   0  0  0  0  0  0  0  0  0  0  0  0
  -21.4341   12.3750    0.0000 C   0  0  0  0  0  0  0  0  0  0  0  0
    5.8457   13.1250    0.0000 C   0  0  0  0  0  0  0  0  0  0  0  0
  -20.1351   13.1250    0.0000 C   0  0  0  0  0  0  0  0  0  0  0  0
    4.5466   12.3750    0.0000 C   0  0  0  0  0  0  0  0  0  0  0  0
  -18.8361   12.3750    0.0000 C   0  0  0  0  0  0  0  0  0  0  0  0
    3.2476   13.1250    0.0000 C   0  0  0  0  0  0  0  0  0  0  0  0
  -17.5370   13.1250    0.0000 C   0  0  0  0  0  0  0  0  0  0  0  0
    1.9486   12.3750    0.0000 C   0  0  0  0  0  0  0  0  0  0  0  0
  -16.2380   12.3750    0.0000 C   0  0  0  0  0  0  0  0  0  0  0  0
    0.6495   13.1250    0.0000 C   0  0  0  0  0  0  0  0  0  0  0  0
  -14.9389   13.1250    0.0000 C   0  0  0  0  0  0  0  0  0  0  0  0
   -0.6495   12.3750    0.0000 C   0  0  0  0  0  0  0  0  0  0  0  0
  -13.6399   12.3750    0.0000 C   0  0  0  0  0  0  0  0  0  0  0  0
   -1.9486   13.1250    0.0000 C   0  0  0  0  0  0  0  0  0  0  0  0
  -12.3409   13.1250    0.0000 C   0  0  0  0  0  0  0  0  0  0  0  0
   -3.2476   12.3750    0.0000 C   0  0  0  0  0  0  0  0  0  0  0  0
  -11.0418   12.3750    0.0000 C   0  0  0  0  0  0  0  0  0  0  0  0
   -4.5466   13.1250    0.0000 C   0  0  0  0  0  0  0  0  0  0  0  0
   -9.7428   13.1250    0.0000 C   0  0  0  0  0  0  0  0  0  0  0  0
   -5.8457   12.3750    0.0000 C   0  0  0  0  0  0  0  0  0  0  0  0
   -8.4437   12.3750    0.0000 C   0  0  0  0  0  0  0  0  0  0  0  0
   -7.1447   13.1250    0.0000 C   0  0  0  0  0  0  0  0  0  0  0  0
  3  1  1  0
  4  2  1  0
  5  3  1  0
  6  4  1  0
  7  5  1  0
  8  6  1  0
  9  7  1  0
 10  8  1  0
 11  9  1  0
 12 10  1  0
 13 11  1  0
 14 12  1  0
 15 13  1  0
 16 14  1  0
 17 15  1  0
 18 16  1  0
 19 17  1  0
 20 18  1  0
 21 19  1  0
 22 20  1  0
 23 21  1  0
 23 22  1  0
M  END
>  <NAME>  (1975) 
TRICOSANE

>  <SYNONYMS>  (1975) 


>  <SPECTRUM TYPE>  (1975) 
MS1

>  <INSTRUMENT TYPE>  (1975) 
EI-B

>  <INSTRUMENT>  (1975) 
HITACHI M-80B

>  <ION MODE>  (1975) 
P

>  <INCHIKEY>  (1975) 
FIGVVZUWCLSUEI-UHFFFAOYSA-N

>  <FORMULA>  (1975) 
C23H48

>  <EXACT MASS>  (1975) 
324.375601536

>  <MW>  (1975) 
324

>  <ID>  (1975) 
JP009120

>  <CONTRIBUTOR>  (1975) 
University of Tokyo Team, {Faculty of Engineering, University of Tokyo

>  <COMMENT>  (1975) 
SMILES=CCCCCCCCCCCCCCCCCCCCCCC
cas=638-67-5
InChI=InChI=1S/C23H48/c1-3-5-7-9-11-13-15-17-19-21-23-22-20-18-16-14-12-10-8-6-4-2/h3-23H2,1-2H3
computed SMILES=CCCCCCCCCCCCCCCCCCCCCCC
accession=JP009120
date=2016.01.19 (Created 2008.10.21, modified 2011.05.06)
author=SODA AROMATIC CO., LTD.
license=CC BY-NC-SA
exact mass=324.3756
ionization energy=70 eV
ion type=[M]+*
computed spectral entropy=2.727231730936522
computed normalized entropy=0.7444208653668198
SPLASH=splash10-0a4l-9000000000-b55658471f93057544d6
submitter=submitter = University of Tokyo Team (Faculty of Engineering, University of Tokyo)
MoNA Rating=3.75

>  <NUM PEAKS>  (1975) 
39

>  <MASS SPECTRAL PEAKS>  (1975) 
27 5.96
29 17.99
39 2.42
41 32.66
42 9.52
43 91.28
44 1.99
53 1.29
54 2.13
55 26.13
56 14.33
57 99.99
58 3.33
67 1.79
68 1.98
69 13.86
70 10.44
71 58.87
72 2.76
82 1.53
83 8.68
84 5.23
85 36.96
86 1.71
97 5.72
98 3
99 10.68
111 1.88
112 2.23
113 5.74
126 1.51
127 3.41
140 1.5
141 2.4
154 1.16
155 1.82
169 1.6
183 1.09
197 1.04

>  <PREDICTED SPECTRUM>  (1975) 
26 18
27 86
28 45
29 180
30 28
38 14
39 157
40 79
41 540
42 274
43 890
44 171
51 35
52 15
53 149
54 174
55 506
56 408
57 999
58 172
65 26
66 56
67 201
68 206
69 403
70 318
71 851
72 209
79 56
80 20
81 138
82 238
83 355
84 289
85 670
86 155
95 77
96 185
97 338
98 229
99 395
100 77
109 78
110 97
111 270
112 210
113 349
114 88
123 41
124 90
125 165
126 184
127 311
128 65
138 21
139 120
140 172
141 243
142 73
151 0
152 62
153 110
154 160
155 243
156 35
166 49
167 64
168 122
169 196
170 55
181 4
182 97
183 182
184 81
195 15
196 42
197 110
198 5
210 111
211 149
212 15
224 112
225 69
226 35
238 77
239 131
240 0
252 127
253 105
266 114
267 164
268 76
280 142
281 128
282 44
294 59
295 165
296 26
308 13
309 92
310 53
323 55
324 118
325 56

$$$$

     RDKit          2D

 22 21  0  0  0  0  0  0  0  0999 V2000
  -20.1351   12.3750    0.0000 C   0  0  0  0  0  0  0  0  0  0  0  0
    7.1447   11.6250    0.0000 C   0  0  0  0  0  0  0  0  0  0  0  0
  -18.8361   11.6250    0.0000 C   0  0  0  0  0  0  0  0  0  0  0  0
    5.8457   12.3750    0.0000 C   0  0  0  0  0  0  0  0  0  0  0  0
  -17.5370   12.3750    0.0000 C   0  0  0  0  0  0  0  0  0  0  0  0
    4.5466   11.6250    0.0000 C   0  0  0  0  0  0  0  0  0  0  0  0
  -16.2380   11.6250    0.0000 C   0  0  0  0  0  0  0  0  0  0  0  0
    3.2476   12.3750    0.0000 C   0  0  0  0  0  0  0  0  0  0  0  0
  -14.9389   12.3750    0.0000 C   0  0  0  0  0  0  0  0  0  0  0  0
    1.9486   11.6250    0.0000 C   0  0  0  0  0  0  0  0  0  0  0  0
  -13.6399   11.6250    0.0000 C   0  0  0  0  0  0  0  0  0  0  0  0
    0.6495   12.3750    0.0000 C   0  0  0  0  0  0  0  0  0  0  0  0
  -12.3409   12.3750    0.0000 C   0  0  0  0  0  0  0  0  0  0  0  0
   -0.6495   11.6250    0.0000 C   0  0  0  0  0  0  0  0  0  0  0  0
  -11.0418   11.6250    0.0000 C   0  0  0  0  0  0  0  0  0  0  0  0
   -1.9486   12.3750    0.0000 C   0  0  0  0  0  0  0  0  0  0  0  0
   -9.7428   12.3750    0.0000 C   0  0  0  0  0  0  0  0  0  0  0  0
   -3.2476   11.6250    0.0000 C   0  0  0  0  0  0  0  0  0  0  0  0
   -8.4437   11.6250    0.0000 C   0  0  0  0  0  0  0  0  0  0  0  0
   -4.5466   12.3750    0.0000 C   0  0  0  0  0  0  0  0  0  0  0  0
   -7.1447   12.3750    0.0000 C   0  0  0  0  0  0  0  0  0  0  0  0
   -5.8457   11.6250    0.0000 C   0  0  0  0  0  0  0  0  0  0  0  0
  3  1  1  0
  4  2  1  0
  5  3  1  0
  6  4  1  0
  7  5  1  0
  8  6  1  0
  9  7  1  0
 10  8  1  0
 11  9  1  0
 12 10  1  0
 13 11  1  0
 14 12  1  0
 15 13  1  0
 16 14  1  0
 17 15  1  0
 18 16  1  0
 19 17  1  0
 20 18  1  0
 21 19  1  0
 22 20  1  0
 22 21  1  0
M  END
>  <NAME>  (1976) 
DOCOSANE

>  <SYNONYMS>  (1976) 


>  <SPECTRUM TYPE>  (1976) 
MS1

>  <INSTRUMENT TYPE>  (1976) 
EI-B

>  <INSTRUMENT>  (1976) 
HITACHI M-80B

>  <ION MODE>  (1976) 
P

>  <INCHIKEY>  (1976) 
HOWGUJZVBDQJKV-UHFFFAOYSA-N

>  <FORMULA>  (1976) 
C22H46

>  <EXACT MASS>  (1976) 
310.359951472

>  <MW>  (1976) 
310

>  <ID>  (1976) 
JP009119

>  <CONTRIBUTOR>  (1976) 
University of Tokyo Team, {Faculty of Engineering, University of Tokyo

>  <COMMENT>  (1976) 
SMILES=CCCCCCCCCCCCCCCCCCCCCC
cas=629-97-0
InChI=InChI=1S/C22H46/c1-3-5-7-9-11-13-15-17-19-21-22-20-18-16-14-12-10-8-6-4-2/h3-22H2,1-2H3
computed SMILES=CCCCCCCCCCCCCCCCCCCCCC
accession=JP009119
date=2016.01.19 (Created 2008.10.21, modified 2011.05.06)
author=SODA AROMATIC CO., LTD.
license=CC BY-NC-SA
exact mass=310.35995
ionization energy=70 eV
ion type=[M]+*
computed spectral entropy=2.7286588149358564
computed normalized entropy=0.7501289852997193
SPLASH=splash10-0a4l-9000000000-ff50dcb9226e5bfc0225
submitter=submitter = University of Tokyo Team (Faculty of Engineering, University of Tokyo)
MoNA Rating=3.75

>  <NUM PEAKS>  (1976) 
38

>  <MASS SPECTRAL PEAKS>  (1976) 
27 6.3
29 19.31
39 4.5
41 36.17
42 9.96
43 88.37
44 2.03
53 1.42
54 1.87
55 26.53
56 14.21
57 99.99
58 4.44
67 1.96
68 2.04
69 12.44
70 10.96
71 58.05
72 2.45
82 1.42
83 8.22
84 5.65
85 35.7
86 1.67
97 5.63
98 2.8
99 9.85
111 1.74
112 1.97
113 5.95
126 1.48
127 3.72
140 1.09
141 2.2
154 1.06
155 1.68
169 1.22
183 1.09

>  <PREDICTED SPECTRUM>  (1976) 
0 4
26 23
27 151
28 61
29 194
30 46
37 3
38 15
39 170
40 85
41 562
42 283
43 905
44 176
45 2
51 36
52 18
53 151
54 171
55 518
56 411
57 999
58 174
65 29
66 49
67 197
68 203
69 401
70 322
71 849
72 207
79 48
80 16
81 136
82 224
83 354
84 294
85 659
86 152
95 75
96 184
97 332
98 225
99 393
100 78
109 84
110 91
111 265
112 209
113 341
114 80
124 80
125 166
126 176
127 300
128 73
135 11
137 25
138 37
139 90
140 169
141 226
142 41
152 71
153 114
154 148
155 226
156 41
166 5
167 8
168 127
169 196
170 96
181 18
182 59
183 157
184 14
196 69
197 116
198 24
210 110
211 147
212 14
224 110
225 59
226 9
238 100
239 59
252 134
253 158
254 42
266 116
267 132
268 53
280 103
281 166
282 83
294 0
295 95
296 9
309 29
310 126
311 42

$$$$

     RDKit          2D

 11 11  0  0  0  0  0  0  0  0999 V2000
   -3.5281    1.9308    0.0000 C   0  0  0  0  0  0  0  0  0  0  0  0
    0.0342    3.0798    0.0000 C   0  0  0  0  0  0  0  0  0  0  0  0
   -1.8942    3.0798    0.0000 C   0  0  0  0  0  0  0  0  0  0  0  0
   -2.2290    1.1808    0.0000 C   0  0  0  0  0  0  0  0  0  0  0  0
    2.9671   -0.3192    0.0000 C   0  0  0  0  0  0  0  0  0  0  0  0
    2.9676    1.1816    0.0000 C   0  0  0  0  0  0  0  0  0  0  0  0
    1.6676   -1.0701    0.0000 C   0  0  0  0  0  0  0  0  0  0  0  0
    1.6686    1.9316    0.0000 C   0  0  0  0  0  0  0  0  0  0  0  0
    0.3686   -0.3201    0.0000 C   0  0  0  0  0  0  0  0  0  0  0  0
    0.3691    1.1808    0.0000 C   0  0  0  0  0  0  0  0  0  0  0  0
   -0.9300    1.9308    0.0000 C   0  0  0  0  0  0  0  0  0  0  0  0
  4  1  1  0
  6  5  2  0
  7  5  1  0
  8  6  1  0
  9  7  2  0
 10  8  2  0
 10  9  1  0
 11  2  1  0
 11  3  1  0
 11  4  1  0
 11 10  1  0
M  END
>  <NAME>  (1977) 
TERT-PENTYLBENZENE

>  <SYNONYMS>  (1977) 


>  <SPECTRUM TYPE>  (1977) 
MS1

>  <INSTRUMENT TYPE>  (1977) 
EI-B

>  <INSTRUMENT>  (1977) 
HITACHI M-80B

>  <ION MODE>  (1977) 
P

>  <INCHIKEY>  (1977) 
QHTJSSMHBLGUHV-UHFFFAOYSA-N

>  <FORMULA>  (1977) 
C11H16

>  <EXACT MASS>  (1977) 
148.125200512

>  <MW>  (1977) 
148

>  <ID>  (1977) 
JP009117

>  <CONTRIBUTOR>  (1977) 
University of Tokyo Team, {Faculty of Engineering, University of Tokyo

>  <COMMENT>  (1977) 
SMILES=CCC(C)(C)c(c1)cccc1
InChI=InChI=1S/C11H16/c1-4-11(2,3)10-8-6-5-7-9-10/h5-9H,4H2,1-3H3
computed SMILES=C=1C=CC(=CC1)C(C)(C)CC
accession=JP009117
date=2016.01.19 (Created 2008.10.21, modified 2011.05.06)
author=SODA AROMATIC CO., LTD.
license=CC BY-NC-SA
exact mass=148.1252
ionization energy=70 eV
ion type=[M]+*
computed spectral entropy=2.452441071816624
computed normalized entropy=0.7013973311094568
SPLASH=splash10-014l-8900000000-a9bc879220822760a7a7
submitter=submitter = University of Tokyo Team (Faculty of Engineering, University of Tokyo)
MoNA Rating=3.75

>  <NUM PEAKS>  (1977) 
33

>  <MASS SPECTRAL PEAKS>  (1977) 
27 5.22
28 1.41
29 4.31
39 5.81
41 14.89
43 1.4
50 2.03
51 5.29
52 1.57
53 1.59
55 3.14
63 2.28
65 3.4
76 1.18
77 8.23
78 4.5
79 7.01
89 1.22
91 63.99
92 4.23
102 1.31
103 5.72
104 2.02
105 3.57
115 4.67
116 1.27
117 3.23
118 2.31
119 99.99
120 8.76
133 2.29
148 13.62
149 1.35

>  <PREDICTED SPECTRUM>  (1977) 
14 2
15 28
26 82
27 253
28 91
29 290
37 34
38 95
39 328
40 126
41 454
42 59
43 49
44 0
49 7
50 189
51 299
52 200
53 183
54 77
55 95
56 80
57 187
58 26
61 27
62 100
63 230
64 141
65 300
66 120
67 77
70 47
71 76
74 52
75 176
76 157
77 312
78 251
79 186
80 33
85 41
86 16
89 177
90 133
91 901
92 241
93 3
99 2
102 171
103 325
104 151
105 91
115 308
116 239
117 287
118 304
119 999
120 392
121 89
133 6
148 382
149 138

$$$$

     RDKit          2D

 20 19  0  0  0  0  0  0  0  0999 V2000
    5.8457   10.1250    0.0000 C   0  0  0  0  0  0  0  0  0  0  0  0
  -17.5370   10.1250    0.0000 C   0  0  0  0  0  0  0  0  0  0  0  0
    4.5466   10.8750    0.0000 C   0  0  0  0  0  0  0  0  0  0  0  0
  -16.2380   10.8750    0.0000 C   0  0  0  0  0  0  0  0  0  0  0  0
    3.2476   10.1250    0.0000 C   0  0  0  0  0  0  0  0  0  0  0  0
  -14.9389   10.1250    0.0000 C   0  0  0  0  0  0  0  0  0  0  0  0
    1.9486   10.8750    0.0000 C   0  0  0  0  0  0  0  0  0  0  0  0
  -13.6399   10.8750    0.0000 C   0  0  0  0  0  0  0  0  0  0  0  0
    0.6495   10.1250    0.0000 C   0  0  0  0  0  0  0  0  0  0  0  0
  -12.3409   10.1250    0.0000 C   0  0  0  0  0  0  0  0  0  0  0  0
   -0.6495   10.8750    0.0000 C   0  0  0  0  0  0  0  0  0  0  0  0
  -11.0418   10.8750    0.0000 C   0  0  0  0  0  0  0  0  0  0  0  0
   -1.9486   10.1250    0.0000 C   0  0  0  0  0  0  0  0  0  0  0  0
   -9.7428   10.1250    0.0000 C   0  0  0  0  0  0  0  0  0  0  0  0
   -3.2476   10.8750    0.0000 C   0  0  0  0  0  0  0  0  0  0  0  0
   -8.4437   10.8750    0.0000 C   0  0  0  0  0  0  0  0  0  0  0  0
   -4.5466   10.1250    0.0000 C   0  0  0  0  0  0  0  0  0  0  0  0
   -7.1447   10.1250    0.0000 C   0  0  0  0  0  0  0  0  0  0  0  0
   -7.1447    8.6250    0.0000 O   0  0  0  0  0  0  0  0  0  0  0  0
   -5.8457   10.8750    0.0000 O   0  0  0  0  0  0  0  0  0  0  0  0
  3  1  1  0
  4  2  1  0
  5  3  1  0
  6  4  1  0
  7  5  1  0
  8  6  1  0
  9  7  1  0
 10  8  1  0
 11  9  1  0
 12 10  1  0
 13 11  1  0
 14 12  1  0
 15 13  1  0
 16 14  1  0
 17 15  1  0
 18 16  1  0
 19 18  2  0
 20 17  1  0
 20 18  1  0
M  END
>  <NAME>  (1978) 
NONYL NONANOATE

>  <SYNONYMS>  (1978) 


>  <SPECTRUM TYPE>  (1978) 
MS1

>  <INSTRUMENT TYPE>  (1978) 
EI-B

>  <INSTRUMENT>  (1978) 
HITACHI M-80B

>  <ION MODE>  (1978) 
P

>  <INCHIKEY>  (1978) 
WWDHABCVIVMHKP-UHFFFAOYSA-N

>  <FORMULA>  (1978) 
C18H36O2

>  <EXACT MASS>  (1978) 
284.271530392

>  <MW>  (1978) 
284

>  <ID>  (1978) 
JP009116

>  <CONTRIBUTOR>  (1978) 
University of Tokyo Team, {Faculty of Engineering, University of Tokyo

>  <COMMENT>  (1978) 
SMILES=CCCCCCCCCOC(=O)CCCCCCCC
InChI=InChI=1S/C18H36O2/c1-3-5-7-9-11-13-15-17-20-18(19)16-14-12-10-8-6-4-2/h3-17H2,1-2H3
computed SMILES=O=C(OCCCCCCCCC)CCCCCCCC
accession=JP009116
date=2016.01.19 (Created 2008.10.21, modified 2011.05.06)
author=SODA AROMATIC CO., LTD.
license=CC BY-NC-SA
exact mass=284.27153
ionization energy=70 eV
ion type=[M]+*
computed spectral entropy=3.41521710830583
computed normalized entropy=0.82750324793907
SPLASH=splash10-0a4l-9200000000-80ec55ae694288e7119a
submitter=submitter = University of Tokyo Team (Faculty of Engineering, University of Tokyo)
MoNA Rating=3.75

>  <NUM PEAKS>  (1978) 
62

>  <MASS SPECTRAL PEAKS>  (1978) 
27 12.03
29 29.73
31 1.33
39 6.7
41 69.01
42 23.74
43 99.99
44 1.75
45 1.87
53 3.1
54 5.25
55 60.21
56 46.11
57 73.72
58 3.19
59 1.58
60 10.49
61 27.24
67 5.97
68 10.51
69 37.66
70 41.3
71 49.33
72 2.3
73 17.19
74 1.5
79 1.16
81 4.85
82 13.28
83 32.56
84 33.69
85 16.95
86 1.24
87 4.48
89 2.99
95 1.53
96 6.24
97 35.09
98 32.59
99 2.67
101 3.09
103 1.9
111 2.94
112 3.11
115 6.59
116 2.93
123 1.25
126 54.81
127 6.21
129 5.56
139 1.26
140 1.61
141 34.68
142 2.95
145 3.38
158 8.33
159 87.98
160 7.26
171 2.29
173 1.39
199 1.13
284 1.36

>  <PREDICTED SPECTRUM>  (1978) 
17 0
18 14
25 16
26 79
27 311
28 174
29 493
30 80
31 102
34 3
35 9
36 32
37 48
38 69
39 317
40 148
41 800
42 468
43 999
44 196
45 142
46 12
50 10
51 22
52 29
53 170
54 286
55 875
56 751
57 945
58 205
59 121
60 462
61 638
62 91
63 20
65 74
66 77
67 310
68 363
69 743
70 758
71 689
72 176
73 554
74 136
75 115
76 60
77 27
78 15
79 122
80 94
81 275
82 385
83 688
84 625
85 430
86 125
87 269
88 84
89 144
91 56
93 98
94 59
95 227
96 270
97 585
98 577
99 351
100 124
101 241
102 153
103 137
104 22
107 24
108 18
109 124
110 174
111 387
112 390
113 154
114 80
115 243
116 274
117 276
118 59
119 31
121 73
123 94
124 102
125 245
126 253
127 147
128 5
129 343
130 109
131 80
135 24
137 63
138 94
139 136
140 173
141 171
142 45
143 211
144 96
145 111
148 13
149 56
152 41
153 66
154 67
155 63
157 123
158 77
159 215
160 29
166 19
167 59
168 135
169 196
170 76
171 145
172 92
173 90
174 22
181 12
182 14
183 59
184 28
185 95
186 82
187 241
188 83
197 70
199 8
201 101
202 53
213 30
215 64
227 41
228 2
241 42
284 149
285 53

$$$$

     RDKit          2D

 10  9  0  0  0  0  0  0  0  0999 V2000
   -6.4952    4.5000    0.0000 C   0  0  0  0  0  0  0  0  0  0  0  0
   -5.1962    2.2500    0.0000 C   0  0  0  0  0  0  0  0  0  0  0  0
    2.5981    3.7500    0.0000 C   0  0  0  0  0  0  0  0  0  0  0  0
    1.2990    6.0000    0.0000 C   0  0  0  0  0  0  0  0  0  0  0  0
   -3.8971    4.5000    0.0000 C   0  0  0  0  0  0  0  0  0  0  0  0
    0.0000    3.7500    0.0000 C   0  0  0  0  0  0  0  0  0  0  0  0
   -5.1962    3.7500    0.0000 C   0  0  0  0  0  0  0  0  0  0  0  0
    1.2990    4.5000    0.0000 C   0  0  0  0  0  0  0  0  0  0  0  0
   -2.5981    3.7500    0.0000 S   0  0  0  0  0  0  0  0  0  0  0  0
   -1.2990    4.5000    0.0000 S   0  0  0  0  0  0  0  0  0  0  0  0
  7  1  1  0
  7  2  1  0
  7  5  1  0
  8  3  1  0
  8  4  1  0
  8  6  1  0
  9  5  1  0
 10  6  1  0
 10  9  1  0
M  END
>  <NAME>  (1979) 
DIISOBUTYL DISULFIDE

>  <SYNONYMS>  (1979) 


>  <SPECTRUM TYPE>  (1979) 
MS1

>  <INSTRUMENT TYPE>  (1979) 
EI-B

>  <INSTRUMENT>  (1979) 
HITACHI M-80B

>  <ION MODE>  (1979) 
P

>  <INCHIKEY>  (1979) 
ONJROLGQWMBXAP-UHFFFAOYSA-N

>  <FORMULA>  (1979) 
C8H18S2

>  <EXACT MASS>  (1979) 
178.084992576

>  <MW>  (1979) 
178

>  <ID>  (1979) 
JP009115

>  <CONTRIBUTOR>  (1979) 
University of Tokyo Team, {Faculty of Engineering, University of Tokyo

>  <COMMENT>  (1979) 
SMILES=CC(C)CSSCC(C)C
cas=1518-72-5
InChI=InChI=1S/C8H18S2/c1-7(2)5-9-10-6-8(3)4/h7-8H,5-6H2,1-4H3
computed SMILES=S(SCC(C)C)CC(C)C
accession=JP009115
date=2016.01.19 (Created 2008.10.21, modified 2011.05.06)
author=SODA AROMATIC CO., LTD.
license=CC BY-NC-SA
exact mass=178.08499
ionization energy=70 eV
ion type=[M]+*
computed spectral entropy=2.2631091063513926
computed normalized entropy=0.7121053409292374
SPLASH=splash10-0a6r-9100000000-2d7fb1cacca5ff24bbda
submitter=submitter = University of Tokyo Team (Faculty of Engineering, University of Tokyo)
MoNA Rating=3.75

>  <NUM PEAKS>  (1979) 
24

>  <MASS SPECTRAL PEAKS>  (1979) 
27 10.97
29 27.31
39 10.81
40 1.12
41 38.42
42 1.8
43 8.66
45 6.1
46 3.01
47 2.96
53 1.48
55 6.56
56 1.64
57 99.99
58 4.27
59 1.14
73 1.25
79 2.03
87 4.67
88 1.85
122 9.18
178 17.39
179 1.52
180 1.56

>  <PREDICTED SPECTRUM>  (1979) 
14 3
15 35
25 6
26 96
27 414
28 144
29 596
31 31
32 10
33 22
34 36
35 32
37 82
38 82
39 419
40 155
41 801
42 236
43 499
44 131
45 421
46 89
47 209
48 63
49 45
50 56
51 84
52 55
53 167
54 119
55 384
56 329
57 999
58 233
59 102
60 124
61 160
62 71
63 54
64 131
65 106
66 234
67 142
68 91
69 111
70 99
73 110
75 101
76 8
77 131
78 105
79 129
80 82
81 44
82 3
87 64
88 58
89 75
90 43
92 99
93 58
94 81
95 18
103 18
105 50
106 98
107 173
108 134
120 9
121 128
122 655
123 250
124 110
135 137
136 113
163 37
178 363
179 87
180 56

$$$$

     RDKit          2D

 14 13  0  0  0  0  0  0  0  0999 V2000
    3.8971    6.7500    0.0000 C   0  0  0  0  0  0  0  0  0  0  0  0
  -11.6913    6.7500    0.0000 C   0  0  0  0  0  0  0  0  0  0  0  0
    2.5981    7.5000    0.0000 C   0  0  0  0  0  0  0  0  0  0  0  0
    1.2990    6.7500    0.0000 C   0  0  0  0  0  0  0  0  0  0  0  0
    0.0000    7.5000    0.0000 C   0  0  0  0  0  0  0  0  0  0  0  0
   -1.2990    6.7500    0.0000 C   0  0  0  0  0  0  0  0  0  0  0  0
   -2.5981    7.5000    0.0000 C   0  0  0  0  0  0  0  0  0  0  0  0
   -3.8971    6.7500    0.0000 C   0  0  0  0  0  0  0  0  0  0  0  0
   -5.1962    7.5000    0.0000 C   0  0  0  0  0  0  0  0  0  0  0  0
   -6.4952    6.7500    0.0000 C   0  0  0  0  0  0  0  0  0  0  0  0
   -7.7942    7.5000    0.0000 C   0  0  0  0  0  0  0  0  0  0  0  0
   -9.0933    6.7500    0.0000 C   0  0  0  0  0  0  0  0  0  0  0  0
   -9.0933    5.2500    0.0000 O   0  0  0  0  0  0  0  0  0  0  0  0
  -10.3923    7.5000    0.0000 O   0  0  0  0  0  0  0  0  0  0  0  0
  3  1  2  0
  4  3  1  0
  5  4  1  0
  6  5  1  0
  7  6  1  0
  8  7  1  0
  9  8  1  0
 10  9  1  0
 11 10  1  0
 12 11  1  0
 13 12  2  0
 14  2  1  0
 14 12  1  0
M  END
>  <NAME>  (1980) 
METHYL 10-UNDECENOATE

>  <SYNONYMS>  (1980) 


>  <SPECTRUM TYPE>  (1980) 
MS1

>  <INSTRUMENT TYPE>  (1980) 
EI-B

>  <INSTRUMENT>  (1980) 
HITACHI M-80B

>  <ION MODE>  (1980) 
P

>  <INCHIKEY>  (1980) 
KISVAASFGZJBCY-UHFFFAOYSA-N

>  <FORMULA>  (1980) 
C12H22O2

>  <EXACT MASS>  (1980) 
198.161979944

>  <MW>  (1980) 
198

>  <ID>  (1980) 
JP009114

>  <CONTRIBUTOR>  (1980) 
University of Tokyo Team, {Faculty of Engineering, University of Tokyo

>  <COMMENT>  (1980) 
SMILES=C=CCCCCCCCCC(=O)OC
cas=111-81-9
InChI=InChI=1S/C12H22O2/c1-3-4-5-6-7-8-9-10-11-12(13)14-2/h3H,1,4-11H2,2H3
computed SMILES=O=C(OC)CCCCCCCCC=C
accession=JP009114
date=2016.01.19 (Created 2008.10.21, modified 2011.05.06)
author=SODA AROMATIC CO., LTD.
license=CC BY-NC-SA
exact mass=198.16198
ionization energy=70 eV
ion type=[M]+*
computed spectral entropy=3.5911688028415494
computed normalized entropy=0.826733348776255
SPLASH=splash10-05fu-9100000000-e91d6f18ada053603952
submitter=submitter = University of Tokyo Team (Faculty of Engineering, University of Tokyo)
MoNA Rating=3.75

>  <NUM PEAKS>  (1980) 
77

>  <MASS SPECTRAL PEAKS>  (1980) 
14 1.53
15 8.04
18 1.13
26 1.19
27 13.63
29 18.95
30 1.33
31 2.77
39 21.74
41 74.1
42 13.84
43 26.23
44 1.49
45 4.01
51 1.38
53 8.32
54 12.08
55 88.37
56 8.86
57 6.05
59 29.93
60 1.07
65 1.56
66 1.33
67 17.24
68 14.48
69 35.57
70 4.11
71 3.64
72 1.57
73 6.53
74 99.99
75 7.21
77 1.3
79 3.44
80 3
81 12.53
82 19.85
83 28.29
84 23.52
85 4.3
87 49.35
88 5
93 2.03
94 2.84
95 7.36
96 28.98
97 13.37
98 11.89
99 2.2
100 1
101 5.17
107 2.03
108 1.13
109 3.38
110 6.3
111 3.43
112 1.25
113 2.84
114 3.77
115 4.38
119 1.53
122 4.76
123 7.52
124 24.67
125 6.03
127 1.87
128 2.35
129 1.7
137 4.58
138 3.52
141 1.67
148 2.18
149 5.77
155 1.24
166 8.4
167 3.13

>  <PREDICTED SPECTRUM>  (1980) 
15 48
26 45
27 255
28 137
29 296
30 96
31 51
32 25
33 24
37 2
38 28
39 348
40 157
41 781
42 393
43 625
44 137
45 221
46 23
50 54
51 101
52 85
53 339
54 459
55 999
56 413
57 399
58 103
59 485
60 122
61 124
62 24
63 12
65 139
66 121
67 544
68 434
69 705
70 287
71 253
72 116
73 235
74 949
75 305
76 57
77 116
78 54
79 274
80 204
81 513
82 440
83 568
84 475
85 283
86 58
87 768
88 256
89 56
91 134
92 57
93 220
94 253
95 400
96 502
97 459
98 365
99 162
100 93
101 207
102 95
105 135
106 115
107 177
108 105
109 298
110 244
111 219
112 141
113 167
114 148
115 154
116 110
117 26
118 7
119 54
120 47
121 126
122 197
123 307
124 367
125 228
126 54
127 89
128 51
129 171
130 31
131 19
133 41
134 28
137 176
138 195
139 148
140 7
141 83
142 13
143 49
144 18
147 9
148 149
149 190
151 74
154 0
155 151
156 76
157 23
166 218
167 261
168 100
169 100
170 14
198 116
199 66
200 30

$$$$

     RDKit          2D

 16 15  0  0  0  0  0  0  0  0999 V2000
   10.7171    9.5625    0.0000 C   0  0  0  0  0  0  0  0  0  0  0  0
   -6.1704    7.3125    0.0000 C   0  0  0  0  0  0  0  0  0  0  0  0
    2.9228    5.0625    0.0000 C   0  0  0  0  0  0  0  0  0  0  0  0
    9.4180    8.8125    0.0000 C   0  0  0  0  0  0  0  0  0  0  0  0
   -4.8714    6.5625    0.0000 C   0  0  0  0  0  0  0  0  0  0  0  0
    9.4180    7.3125    0.0000 C   0  0  0  0  0  0  0  0  0  0  0  0
   -3.5724    7.3125    0.0000 C   0  0  0  0  0  0  0  0  0  0  0  0
    8.1190    6.5625    0.0000 C   0  0  0  0  0  0  0  0  0  0  0  0
   -2.2733    6.5625    0.0000 C   0  0  0  0  0  0  0  0  0  0  0  0
    6.8200    7.3125    0.0000 C   0  0  0  0  0  0  0  0  0  0  0  0
   -0.9743    7.3125    0.0000 C   0  0  0  0  0  0  0  0  0  0  0  0
    5.5209    6.5625    0.0000 C   0  0  0  0  0  0  0  0  0  0  0  0
    0.3248    6.5625    0.0000 C   0  0  0  0  0  0  0  0  0  0  0  0
    2.9228    6.5625    0.0000 C   0  0  0  0  0  0  0  0  0  0  0  0
    4.2219    7.3125    0.0000 O   0  0  0  0  0  0  0  0  0  0  0  0
    1.6238    7.3125    0.0000 O   0  0  0  0  0  0  0  0  0  0  0  0
  4  1  1  0
  5  2  1  0
  6  4  1  0
  7  5  1  0
  6  8  2  0
  9  7  1  0
 10  8  1  0
  9 11  2  0
 12 10  1  0
 13 11  1  0
 14  3  1  0
 15 12  1  0
 15 14  1  0
 16 13  1  0
 16 14  1  0
M  END
>  <NAME>  (1981) 
ACETALDEHYDE 2E-HEXENYL 3Z-HEXENYL ACETAL

>  <SYNONYMS>  (1981) 


>  <SPECTRUM TYPE>  (1981) 
MS1

>  <INSTRUMENT TYPE>  (1981) 
EI-B

>  <INSTRUMENT>  (1981) 
HITACHI M-80B

>  <ION MODE>  (1981) 
P

>  <INCHIKEY>  (1981) 
LNXYMQIPQAMVLK-ZOEDNYEGSA-N

>  <FORMULA>  (1981) 
C14H26O2

>  <EXACT MASS>  (1981) 
226.193280072

>  <MW>  (1981) 
226

>  <ID>  (1981) 
JP009113

>  <CONTRIBUTOR>  (1981) 
University of Tokyo Team, {Faculty of Engineering, University of Tokyo

>  <COMMENT>  (1981) 
SMILES=CCCC([H])=C([H])COC(C)OCCC([H])=C([H])CC
InChI=InChI=1S/C14H26O2/c1-4-6-8-10-12-15-14(3)16-13-11-9-7-5-2/h6,8-9,11,14H,4-5,7,10,12-13H2,1-3H3/b8-6-,11-9+
computed SMILES=O(CC=CCCC)C(OCCC=CCC)C
accession=JP009113
date=2016.01.19 (Created 2008.10.21, modified 2011.05.06)
author=SODA AROMATIC CO., LTD.
license=CC BY-NC-SA
exact mass=226.19328
ionization energy=70 eV
ion type=[M]+*
computed spectral entropy=2.2183814597908005
computed normalized entropy=0.7176806832208344
SPLASH=splash10-053r-9000000000-75b23ff8c2fc0e1f6aea
submitter=submitter = University of Tokyo Team (Faculty of Engineering, University of Tokyo)
MoNA Rating=3.75

>  <NUM PEAKS>  (1981) 
22

>  <MASS SPECTRAL PEAKS>  (1981) 
27 5.94
29 6.62
31 1.03
39 7.5
41 31.35
42 2.91
43 5.71
45 3.49
53 3.63
54 5.46
55 54.38
56 4.79
57 3.08
67 8.31
68 1.61
69 3.83
81 1.85
82 8.54
83 99.99
84 7.03
113 1.07
127 8.18

>  <PREDICTED SPECTRUM>  (1981) 
26 27
27 207
28 122
29 283
30 31
31 95
39 238
40 44
41 491
42 129
43 240
44 108
45 216
46 4
50 2
51 25
53 176
54 218
55 686
56 199
57 216
58 28
59 15
65 59
67 361
68 10
69 51
70 52
71 111
72 17
73 35
81 60
82 363
83 999
84 197
85 30
97 4
98 21
99 6
101 88
126 12
127 194

$$$$

     RDKit          2D

 16 16  0  0  0  0  0  0  0  0999 V2000
    5.5216    4.2579    0.0000 C   0  0  0  0  0  0  0  0  0  0  0  0
   -2.2726    2.7579    0.0000 C   0  0  0  0  0  0  0  0  0  0  0  0
    4.2226    5.0079    0.0000 C   0  0  0  0  0  0  0  0  0  0  0  0
    2.9236    4.2579    0.0000 C   0  0  0  0  0  0  0  0  0  0  0  0
   -8.7678    6.5079    0.0000 C   0  0  0  0  0  0  0  0  0  0  0  0
   -8.7683    5.0071    0.0000 C   0  0  0  0  0  0  0  0  0  0  0  0
   -7.4683    7.2587    0.0000 C   0  0  0  0  0  0  0  0  0  0  0  0
    1.6245    5.0079    0.0000 C   0  0  0  0  0  0  0  0  0  0  0  0
   -7.4692    4.2571    0.0000 C   0  0  0  0  0  0  0  0  0  0  0  0
   -6.1692    6.5087    0.0000 C   0  0  0  0  0  0  0  0  0  0  0  0
    0.3255    4.2579    0.0000 C   0  0  0  0  0  0  0  0  0  0  0  0
   -4.8707    4.2579    0.0000 C   0  0  0  0  0  0  0  0  0  0  0  0
   -2.2726    4.2579    0.0000 C   0  0  0  0  0  0  0  0  0  0  0  0
   -6.1697    5.0079    0.0000 C   0  0  0  0  0  0  0  0  0  0  0  0
   -0.9736    5.0079    0.0000 O   0  0  0  0  0  0  0  0  0  0  0  0
   -3.5716    5.0079    0.0000 O   0  0  0  0  0  0  0  0  0  0  0  0
  3  1  1  0
  4  3  1  0
  6  5  2  0
  7  5  1  0
  8  4  1  0
  9  6  1  0
 10  7  2  0
 11  8  1  0
 13  2  1  0
 14  9  2  0
 14 10  1  0
 14 12  1  0
 15 11  1  0
 15 13  1  0
 16 12  1  0
 16 13  1  0
M  END
>  <NAME>  (1982) 
ACETALDEHYDE BENZYL PENTYL ACETAL

>  <SYNONYMS>  (1982) 


>  <SPECTRUM TYPE>  (1982) 
MS1

>  <INSTRUMENT TYPE>  (1982) 
EI-B

>  <INSTRUMENT>  (1982) 
HITACHI M-80B

>  <ION MODE>  (1982) 
P

>  <INCHIKEY>  (1982) 
YQAXOOYRJPMFQS-UHFFFAOYSA-N

>  <FORMULA>  (1982) 
C14H22O2

>  <EXACT MASS>  (1982) 
222.161979944

>  <MW>  (1982) 
222

>  <ID>  (1982) 
JP009112

>  <CONTRIBUTOR>  (1982) 
University of Tokyo Team, {Faculty of Engineering, University of Tokyo

>  <COMMENT>  (1982) 
SMILES=CCCCCOC(C)OCc(c1)cccc1
InChI=InChI=1S/C14H22O2/c1-3-4-8-11-15-13(2)16-12-14-9-6-5-7-10-14/h5-7,9-10,13H,3-4,8,11-12H2,1-2H3
computed SMILES=O(CC=1C=CC=CC1)C(OCCCCC)C
accession=JP009112
date=2016.01.19 (Created 2008.10.21, modified 2011.05.06)
author=SODA AROMATIC CO., LTD.
license=CC BY-NC-SA
exact mass=222.16198
ionization energy=70 eV
ion type=[M]+*
computed spectral entropy=2.435413967593173
computed normalized entropy=0.7232551253457751
SPLASH=splash10-0006-9100000000-6fd392c4587c1285d87b
submitter=submitter = University of Tokyo Team (Faculty of Engineering, University of Tokyo)
MoNA Rating=3.75

>  <NUM PEAKS>  (1982) 
29

>  <MASS SPECTRAL PEAKS>  (1982) 
27 4.88
29 5.86
31 1.11
39 4.78
41 7.94
42 2.4
43 21.35
44 1.08
45 9.81
51 1.96
55 2.96
63 1.13
65 8.68
71 21.83
72 1.04
77 3.4
78 1.05
79 2.13
89 1.66
90 2.57
91 99.99
92 19.96
105 1.86
107 1.49
108 1.44
115 3.53
133 2.82
134 19.57
135 6.38

>  <PREDICTED SPECTRUM>  (1982) 
25 1
26 71
27 234
28 95
29 228
31 85
37 24
38 69
39 251
40 78
41 276
42 167
43 471
44 99
45 180
50 93
51 178
52 95
53 112
54 50
55 230
56 82
57 66
58 33
59 57
62 27
63 124
64 80
65 294
66 48
68 17
69 87
70 157
71 428
72 76
73 73
74 2
77 202
78 119
79 235
80 49
81 13
87 40
88 46
89 131
90 131
91 999
92 498
93 46
101 4
105 229
106 160
107 320
108 167
115 94
116 43
131 36
133 13
134 499
135 168
151 3

$$$$

     RDKit          2D

 17 17  0  0  0  0  0  0  0  0999 V2000
   -6.4952   12.3200    0.0000 C   0  0  0  0  0  0  0  0  0  0  0  0
    1.2990    7.8200    0.0000 C   0  0  0  0  0  0  0  0  0  0  0  0
   -5.1962   11.5700    0.0000 C   0  0  0  0  0  0  0  0  0  0  0  0
   -5.1962   10.0700    0.0000 C   0  0  0  0  0  0  0  0  0  0  0  0
   -3.8971    9.3200    0.0000 C   0  0  0  0  0  0  0  0  0  0  0  0
    7.7942   11.5700    0.0000 C   0  0  0  0  0  0  0  0  0  0  0  0
    7.7947   10.0692    0.0000 C   0  0  0  0  0  0  0  0  0  0  0  0
    6.4947   12.3208    0.0000 C   0  0  0  0  0  0  0  0  0  0  0  0
   -2.5981   10.0700    0.0000 C   0  0  0  0  0  0  0  0  0  0  0  0
    6.4957    9.3192    0.0000 C   0  0  0  0  0  0  0  0  0  0  0  0
    5.1957   11.5708    0.0000 C   0  0  0  0  0  0  0  0  0  0  0  0
   -1.2990    9.3200    0.0000 C   0  0  0  0  0  0  0  0  0  0  0  0
    3.8971    9.3200    0.0000 C   0  0  0  0  0  0  0  0  0  0  0  0
    1.2990    9.3200    0.0000 C   0  0  0  0  0  0  0  0  0  0  0  0
    5.1962   10.0700    0.0000 C   0  0  0  0  0  0  0  0  0  0  0  0
    0.0000   10.0700    0.0000 O   0  0  0  0  0  0  0  0  0  0  0  0
    2.5981   10.0700    0.0000 O   0  0  0  0  0  0  0  0  0  0  0  0
  3  1  1  0
  4  3  1  0
  4  5  2  0
  7  6  2  0
  8  6  1  0
  9  5  1  0
 10  7  1  0
 11  8  2  0
 12  9  1  0
 14  2  1  0
 15 10  2  0
 15 11  1  0
 15 13  1  0
 16 12  1  0
 16 14  1  0
 17 13  1  0
 17 14  1  0
M  END
>  <NAME>  (1983) 
ACETALDEHYDE BENZYL CIS-3-HEXENYL ACETAL

>  <SYNONYMS>  (1983) 


>  <SPECTRUM TYPE>  (1983) 
MS1

>  <INSTRUMENT TYPE>  (1983) 
EI-B

>  <INSTRUMENT>  (1983) 
HITACHI M-80B

>  <ION MODE>  (1983) 
P

>  <INCHIKEY>  (1983) 
LDEPYAQXQFOODV-PLNGDYQASA-N

>  <FORMULA>  (1983) 
C15H22O2

>  <EXACT MASS>  (1983) 
234.161979944

>  <MW>  (1983) 
234

>  <ID>  (1983) 
JP009111

>  <CONTRIBUTOR>  (1983) 
University of Tokyo Team, {Faculty of Engineering, University of Tokyo

>  <COMMENT>  (1983) 
SMILES=CCC=CCCOC(C)OCc(c1)cccc1
InChI=InChI=1S/C15H22O2/c1-3-4-5-9-12-16-14(2)17-13-15-10-7-6-8-11-15/h4-8,10-11,14H,3,9,12-13H2,1-2H3/b5-4-
computed SMILES=O(CC=1C=CC=CC1)C(OCCC=CCC)C
accession=JP009111
date=2016.01.19 (Created 2008.10.21, modified 2011.05.06)
author=SODA AROMATIC CO., LTD.
license=CC BY-NC-SA
exact mass=234.16198
ionization energy=70 eV
ion type=[M]+*
computed spectral entropy=2.1614019456532176
computed normalized entropy=0.6633940770109147
SPLASH=splash10-0006-9000000000-393f9dc18b67137a37b1
submitter=submitter = University of Tokyo Team (Faculty of Engineering, University of Tokyo)
MoNA Rating=3.75

>  <NUM PEAKS>  (1983) 
26

>  <MASS SPECTRAL PEAKS>  (1983) 
27 3.05
29 2.36
39 5.29
41 11.39
43 3.56
51 1.57
53 1.31
55 11.55
56 1.23
65 6.34
67 3.87
68 1.05
69 1.62
77 2.66
79 1.4
82 6.25
83 7.91
89 1.18
90 1.3
91 99.99
92 9.8
105 1.05
113 1.54
127 2.59
135 13.91
136 1.23

>  <PREDICTED SPECTRUM>  (1983) 
26 25
27 164
29 136
31 16
38 20
39 197
40 38
41 263
42 74
43 150
44 65
45 105
50 57
51 141
52 84
53 134
54 61
55 405
56 75
57 37
63 87
64 61
65 253
66 8
67 229
70 20
71 95
77 183
78 53
79 143
80 49
81 94
82 311
83 355
84 12
89 38
90 115
91 999
92 399
99 71
100 32
105 197
106 103
107 155
127 49
134 74
135 223
136 157

$$$$

     RDKit          2D

 17 17  0  0  0  0  0  0  0  0999 V2000
    5.5216    5.0079    0.0000 C   0  0  0  0  0  0  0  0  0  0  0  0
   -3.5716    2.7579    0.0000 C   0  0  0  0  0  0  0  0  0  0  0  0
    4.2226    4.2579    0.0000 C   0  0  0  0  0  0  0  0  0  0  0  0
    2.9236    5.0079    0.0000 C   0  0  0  0  0  0  0  0  0  0  0  0
    1.6245    4.2579    0.0000 C   0  0  0  0  0  0  0  0  0  0  0  0
  -10.0668    6.5079    0.0000 C   0  0  0  0  0  0  0  0  0  0  0  0
  -10.0673    5.0071    0.0000 C   0  0  0  0  0  0  0  0  0  0  0  0
   -8.7673    7.2587    0.0000 C   0  0  0  0  0  0  0  0  0  0  0  0
    0.3255    5.0079    0.0000 C   0  0  0  0  0  0  0  0  0  0  0  0
   -8.7683    4.2571    0.0000 C   0  0  0  0  0  0  0  0  0  0  0  0
   -7.4683    6.5087    0.0000 C   0  0  0  0  0  0  0  0  0  0  0  0
   -0.9736    4.2579    0.0000 C   0  0  0  0  0  0  0  0  0  0  0  0
   -6.1697    4.2579    0.0000 C   0  0  0  0  0  0  0  0  0  0  0  0
   -3.5716    4.2579    0.0000 C   0  0  0  0  0  0  0  0  0  0  0  0
   -7.4687    5.0079    0.0000 C   0  0  0  0  0  0  0  0  0  0  0  0
   -2.2726    5.0079    0.0000 O   0  0  0  0  0  0  0  0  0  0  0  0
   -4.8707    5.0079    0.0000 O   0  0  0  0  0  0  0  0  0  0  0  0
  3  1  1  0
  4  3  1  0
  5  4  1  0
  7  6  2  0
  8  6  1  0
  5  9  2  0
 10  7  1  0
 11  8  2  0
 12  9  1  0
 14  2  1  0
 15 10  2  0
 15 11  1  0
 15 13  1  0
 16 12  1  0
 16 14  1  0
 17 13  1  0
 17 14  1  0
M  END
>  <NAME>  (1984) 
ACETALDEHYDE BENZYL (E)-2-HEXENYL ACETAL

>  <SYNONYMS>  (1984) 


>  <SPECTRUM TYPE>  (1984) 
MS1

>  <INSTRUMENT TYPE>  (1984) 
EI-B

>  <INSTRUMENT>  (1984) 
HITACHI M-80B

>  <ION MODE>  (1984) 
P

>  <INCHIKEY>  (1984) 
DUXYRRLZTBFRPL-WEVVVXLNSA-N

>  <FORMULA>  (1984) 
C15H22O2

>  <EXACT MASS>  (1984) 
234.161979944

>  <MW>  (1984) 
234

>  <ID>  (1984) 
JP009110

>  <CONTRIBUTOR>  (1984) 
University of Tokyo Team, {Faculty of Engineering, University of Tokyo

>  <COMMENT>  (1984) 
SMILES=CCCC=CCOC(C)OCc(c1)cccc1
InChI=InChI=1S/C15H22O2/c1-3-4-5-9-12-16-14(2)17-13-15-10-7-6-8-11-15/h5-11,14H,3-4,12-13H2,1-2H3/b9-5+
computed SMILES=O(CC=CCCC)C(OCC=1C=CC=CC1)C
accession=JP009110
date=2016.01.19 (Created 2008.10.21, modified 2011.05.06)
author=SODA AROMATIC CO., LTD.
license=CC BY-NC-SA
exact mass=234.16198
ionization energy=70 eV
ion type=[M]+*
computed spectral entropy=2.733234738741911
computed normalized entropy=0.7409390230124585
SPLASH=splash10-0006-9000000000-39ead0e2c3bd75007c12
submitter=submitter = University of Tokyo Team (Faculty of Engineering, University of Tokyo)
MoNA Rating=3.75

>  <NUM PEAKS>  (1984) 
40

>  <MASS SPECTRAL PEAKS>  (1984) 
27 5.32
29 4.39
39 7.32
41 15.45
42 3.07
43 5.81
45 1.25
51 2.49
53 1.82
54 2.35
55 21.32
56 3.33
57 2.45
63 1.21
65 7.66
67 3.24
69 1.1
77 4.52
78 1.06
79 4.43
81 2.34
82 2.06
83 19.32
84 3.21
89 1.46
90 2.05
91 99.99
92 23.89
93 1.16
99 6.99
105 2.05
107 7.29
108 1.74
117 1.13
127 5.15
133 1.11
134 2.08
135 2.06
146 1.67
147 1.37

>  <PREDICTED SPECTRUM>  (1984) 
26 52
27 211
28 70
29 221
31 78
37 11
38 46
39 244
40 88
41 344
42 136
43 283
44 127
45 75
50 79
51 154
52 93
53 159
54 152
55 403
56 135
57 145
58 27
59 31
62 10
63 100
64 65
65 257
66 58
67 203
68 83
69 81
70 72
71 127
72 7
76 2
77 196
78 85
79 181
80 76
81 148
82 187
83 338
84 136
85 50
89 82
90 89
91 999
92 388
93 69
94 43
95 132
96 74
99 67
100 15
105 170
106 113
107 239
108 160
115 40
119 13
127 79
128 50
132 7
133 0
134 97
135 72
136 32
137 5
143 18
152 61
189 15

$$$$

     RDKit          2D

 16 15  0  0  0  0  0  0  0  0999 V2000
    4.5466    7.8750    0.0000 C   0  0  0  0  0  0  0  0  0  0  0  0
  -13.6399    7.8750    0.0000 C   0  0  0  0  0  0  0  0  0  0  0  0
   -4.5466   10.1250    0.0000 C   0  0  0  0  0  0  0  0  0  0  0  0
    3.2476    8.6250    0.0000 C   0  0  0  0  0  0  0  0  0  0  0  0
  -12.3409    8.6250    0.0000 C   0  0  0  0  0  0  0  0  0  0  0  0
    1.9486    7.8750    0.0000 C   0  0  0  0  0  0  0  0  0  0  0  0
  -11.0418    7.8750    0.0000 C   0  0  0  0  0  0  0  0  0  0  0  0
    0.6495    8.6250    0.0000 C   0  0  0  0  0  0  0  0  0  0  0  0
   -9.7428    8.6250    0.0000 C   0  0  0  0  0  0  0  0  0  0  0  0
   -0.6495    7.8750    0.0000 C   0  0  0  0  0  0  0  0  0  0  0  0
   -8.4437    7.8750    0.0000 C   0  0  0  0  0  0  0  0  0  0  0  0
   -1.9486    8.6250    0.0000 C   0  0  0  0  0  0  0  0  0  0  0  0
   -7.1447    8.6250    0.0000 C   0  0  0  0  0  0  0  0  0  0  0  0
   -4.5466    8.6250    0.0000 C   0  0  0  0  0  0  0  0  0  0  0  0
   -3.2476    7.8750    0.0000 O   0  0  0  0  0  0  0  0  0  0  0  0
   -5.8457    7.8750    0.0000 O   0  0  0  0  0  0  0  0  0  0  0  0
  4  1  1  0
  5  2  1  0
  6  4  1  0
  7  5  1  0
  8  6  1  0
  9  7  1  0
  8 10  2  0
  9 11  2  0
 12 10  1  0
 13 11  1  0
 14  3  1  0
 15 12  1  0
 15 14  1  0
 16 13  1  0
 16 14  1  0
M  END
>  <NAME>  (1985) 
ACETALDEHYDE DI-TRANS-2-HEXENYL ACETAL

>  <SYNONYMS>  (1985) 


>  <SPECTRUM TYPE>  (1985) 
MS1

>  <INSTRUMENT TYPE>  (1985) 
EI-B

>  <INSTRUMENT>  (1985) 
HITACHI M-80B

>  <ION MODE>  (1985) 
P

>  <INCHIKEY>  (1985) 
FVXJKQGRPGCDDF-GFULKKFKSA-N

>  <FORMULA>  (1985) 
C14H26O2

>  <EXACT MASS>  (1985) 
226.193280072

>  <MW>  (1985) 
226

>  <ID>  (1985) 
JP009109

>  <CONTRIBUTOR>  (1985) 
University of Tokyo Team, {Faculty of Engineering, University of Tokyo

>  <COMMENT>  (1985) 
SMILES=CCCC=CCOC(C)OCC=CCCC
InChI=InChI=1S/C14H26O2/c1-4-6-8-10-12-15-14(3)16-13-11-9-7-5-2/h8-11,14H,4-7,12-13H2,1-3H3/b10-8+,11-9+
computed SMILES=O(CC=CCCC)C(OCC=CCCC)C
accession=JP009109
date=2016.01.19 (Created 2008.10.21, modified 2011.05.06)
author=SODA AROMATIC CO., LTD.
license=CC BY-NC-SA
exact mass=226.19328
ionization energy=70 eV
ion type=[M]+*
computed spectral entropy=2.6274584864172326
computed normalized entropy=0.7581242656991527
SPLASH=splash10-053r-9000000000-a5c0b0886655310e79a7
submitter=submitter = University of Tokyo Team (Faculty of Engineering, University of Tokyo)
MoNA Rating=3.75

>  <NUM PEAKS>  (1985) 
32

>  <MASS SPECTRAL PEAKS>  (1985) 
27 9.98
29 11.09
39 11.06
41 40.23
42 6.23
43 10.57
44 1.09
45 4.41
53 4.88
54 11.68
55 69.23
56 9.4
57 15.24
58 1.01
67 10.63
68 1.09
69 3.61
71 1.96
81 6.02
82 11.89
83 99.99
84 9.92
85 1.36
97 1.45
99 6.87
100 1.52
109 1.09
113 1.26
126 1.79
127 7.36
138 1.75
139 1.78

>  <PREDICTED SPECTRUM>  (1985) 
26 20
27 162
28 86
29 212
31 50
39 181
40 47
41 450
42 108
43 239
44 70
45 176
51 12
52 22
53 182
54 248
55 746
56 231
57 315
58 85
59 39
65 14
66 20
67 371
68 0
69 44
70 55
71 150
72 56
73 82
77 13
79 27
80 39
81 158
82 401
83 999
84 220
85 3
95 50
97 16
98 40
99 114
100 14
101 55
102 1
107 34
111 26
125 5
126 9
127 176
140 1
144 0

$$$$

     RDKit          2D

 15 14  0  0  0  0  0  0  0  0999 V2000
    4.5466    7.1250    0.0000 C   0  0  0  0  0  0  0  0  0  0  0  0
  -12.3409    7.8750    0.0000 C   0  0  0  0  0  0  0  0  0  0  0  0
   -4.5466    9.3750    0.0000 C   0  0  0  0  0  0  0  0  0  0  0  0
    3.2476    7.8750    0.0000 C   0  0  0  0  0  0  0  0  0  0  0  0
  -11.0418    7.1250    0.0000 C   0  0  0  0  0  0  0  0  0  0  0  0
    1.9486    7.1250    0.0000 C   0  0  0  0  0  0  0  0  0  0  0  0
   -9.7428    7.8750    0.0000 C   0  0  0  0  0  0  0  0  0  0  0  0
    0.6495    7.8750    0.0000 C   0  0  0  0  0  0  0  0  0  0  0  0
   -8.4437    7.1250    0.0000 C   0  0  0  0  0  0  0  0  0  0  0  0
   -0.6495    7.1250    0.0000 C   0  0  0  0  0  0  0  0  0  0  0  0
   -7.1447    7.8750    0.0000 C   0  0  0  0  0  0  0  0  0  0  0  0
   -1.9486    7.8750    0.0000 C   0  0  0  0  0  0  0  0  0  0  0  0
   -4.5466    7.8750    0.0000 C   0  0  0  0  0  0  0  0  0  0  0  0
   -5.8457    7.1250    0.0000 O   0  0  0  0  0  0  0  0  0  0  0  0
   -3.2476    7.1250    0.0000 O   0  0  0  0  0  0  0  0  0  0  0  0
  4  1  1  0
  5  2  1  0
  6  4  1  0
  7  5  1  0
  8  6  1  0
  9  7  1  0
  8 10  2  0
 11  9  1  0
 12 10  1  0
 13  3  1  0
 14 11  1  0
 14 13  1  0
 15 12  1  0
 15 13  1  0
M  END
>  <NAME>  (1986) 
ACETALDEHYDE TRANS-2-HEXENYL PENTYL ACETAL

>  <SYNONYMS>  (1986) 


>  <SPECTRUM TYPE>  (1986) 
MS1

>  <INSTRUMENT TYPE>  (1986) 
EI-B

>  <INSTRUMENT>  (1986) 
HITACHI M-80B

>  <ION MODE>  (1986) 
P

>  <INCHIKEY>  (1986) 
ZCEQBTCRZDAWBC-CSKARUKUSA-N

>  <FORMULA>  (1986) 
C13H26O2

>  <EXACT MASS>  (1986) 
214.193280072

>  <MW>  (1986) 
214

>  <ID>  (1986) 
JP009108

>  <CONTRIBUTOR>  (1986) 
University of Tokyo Team, {Faculty of Engineering, University of Tokyo

>  <COMMENT>  (1986) 
SMILES=CCCC=CCOC(C)OCCCCC
InChI=InChI=1S/C13H26O2/c1-4-6-8-10-12-15-13(3)14-11-9-7-5-2/h8,10,13H,4-7,9,11-12H2,1-3H3/b10-8+
computed SMILES=O(CC=CCCC)C(OCCCCC)C
accession=JP009108
date=2016.01.19 (Created 2008.10.21, modified 2011.05.06)
author=SODA AROMATIC CO., LTD.
license=CC BY-NC-SA
exact mass=214.19328
ionization energy=70 eV
ion type=[M]+*
computed spectral entropy=2.7768927297131247
computed normalized entropy=0.7810466603232717
SPLASH=splash10-059x-9000000000-b5dff7af8e3de9a6c84c
submitter=submitter = University of Tokyo Team (Faculty of Engineering, University of Tokyo)
MoNA Rating=3.75

>  <NUM PEAKS>  (1986) 
35

>  <MASS SPECTRAL PEAKS>  (1986) 
15 1.25
27 15.45
28 1.5
29 20.68
31 1.92
39 12.56
41 44.25
42 10.72
43 61.91
44 2.71
45 34.9
53 3.76
54 13.38
55 50.71
56 6.41
57 14.55
58 1.72
61 3.11
67 7.9
69 3.41
70 2.9
71 92.33
72 5.47
81 1.44
82 8.06
83 99.99
84 8.69
85 1.31
97 2.5
99 1.74
100 1.13
115 24.22
116 1.52
126 3.28
127 7.25

>  <PREDICTED SPECTRUM>  (1986) 
26 66
27 333
28 153
29 399
31 146
37 2
38 26
39 321
40 61
41 627
42 298
43 762
44 253
45 479
46 51
51 22
52 12
53 169
54 312
55 711
56 406
57 466
65 72
67 339
68 27
69 154
70 154
71 999
72 220
73 108
74 14
82 259
83 837
84 143
87 9
97 95
99 36
115 550
116 80
126 114
127 185
128 11
143 89

$$$$

     RDKit          2D

 15 14  0  0  0  0  0  0  0  0999 V2000
   -5.5209    5.4375    0.0000 C   0  0  0  0  0  0  0  0  0  0  0  0
   10.0675    8.4375    0.0000 C   0  0  0  0  0  0  0  0  0  0  0  0
    2.2733    9.9375    0.0000 C   0  0  0  0  0  0  0  0  0  0  0  0
   -4.2219    6.1875    0.0000 C   0  0  0  0  0  0  0  0  0  0  0  0
    8.7685    7.6875    0.0000 C   0  0  0  0  0  0  0  0  0  0  0  0
   -4.2219    7.6875    0.0000 C   0  0  0  0  0  0  0  0  0  0  0  0
    7.4695    8.4375    0.0000 C   0  0  0  0  0  0  0  0  0  0  0  0
   -2.9228    8.4375    0.0000 C   0  0  0  0  0  0  0  0  0  0  0  0
    6.1704    7.6875    0.0000 C   0  0  0  0  0  0  0  0  0  0  0  0
   -1.6238    7.6875    0.0000 C   0  0  0  0  0  0  0  0  0  0  0  0
    4.8714    8.4375    0.0000 C   0  0  0  0  0  0  0  0  0  0  0  0
   -0.3248    8.4375    0.0000 C   0  0  0  0  0  0  0  0  0  0  0  0
    2.2733    8.4375    0.0000 C   0  0  0  0  0  0  0  0  0  0  0  0
    3.5724    7.6875    0.0000 O   0  0  0  0  0  0  0  0  0  0  0  0
    0.9743    7.6875    0.0000 O   0  0  0  0  0  0  0  0  0  0  0  0
  4  1  1  0
  5  2  1  0
  6  4  1  0
  7  5  1  0
  6  8  2  0
  9  7  1  0
 10  8  1  0
 11  9  1  0
 12 10  1  0
 13  3  1  0
 14 11  1  0
 14 13  1  0
 15 12  1  0
 15 13  1  0
M  END
>  <NAME>  (1987) 
ACETALDEHYDE CIS-3-HEXENYL PENTYL ACETAL

>  <SYNONYMS>  (1987) 


>  <SPECTRUM TYPE>  (1987) 
MS1

>  <INSTRUMENT TYPE>  (1987) 
EI-B

>  <INSTRUMENT>  (1987) 
HITACHI M-80B

>  <ION MODE>  (1987) 
P

>  <INCHIKEY>  (1987) 
DTNQXBQAPPDECZ-VURMDHGXSA-N

>  <FORMULA>  (1987) 
C13H26O2

>  <EXACT MASS>  (1987) 
214.193280072

>  <MW>  (1987) 
214

>  <ID>  (1987) 
JP009107

>  <CONTRIBUTOR>  (1987) 
University of Tokyo Team, {Faculty of Engineering, University of Tokyo

>  <COMMENT>  (1987) 
SMILES=CCC=CCCOC(C)OCCCCC
InChI=InChI=1S/C13H26O2/c1-4-6-8-10-12-15-13(3)14-11-9-7-5-2/h6,8,13H,4-5,7,9-12H2,1-3H3/b8-6-
computed SMILES=O(CCC=CCC)C(OCCCCC)C
accession=JP009107
date=2016.01.19 (Created 2008.10.21, modified 2011.05.06)
author=SODA AROMATIC CO., LTD.
license=CC BY-NC-SA
exact mass=214.19328
ionization energy=70 eV
ion type=[M]+*
computed spectral entropy=2.72360565103475
computed normalized entropy=0.7931321489717366
SPLASH=splash10-00r6-9100000000-b496967bc1b431da984f
submitter=submitter = University of Tokyo Team (Faculty of Engineering, University of Tokyo)
MoNA Rating=3.75

>  <NUM PEAKS>  (1987) 
31

>  <MASS SPECTRAL PEAKS>  (1987) 
27 14.71
29 20.21
31 5.09
39 13.17
40 1
41 44.75
42 12.23
43 75.34
44 2.89
45 42.5
53 5.56
54 3.14
55 53.35
56 5.49
57 1.63
58 2.18
61 2.96
67 12.94
68 1.76
69 4.8
70 3.6
71 99.99
72 5.58
81 1.26
82 11.01
83 58.14
84 3.36
97 2.95
115 70.76
116 5.52
127 8.58

>  <PREDICTED SPECTRUM>  (1987) 
26 62
27 334
28 110
29 427
31 179
32 24
33 13
38 9
39 321
40 64
41 578
42 286
43 662
44 228
45 521
46 84
53 158
54 275
55 642
56 291
57 82
58 39
65 54
67 390
68 77
69 34
70 130
71 999
72 282
73 112
82 336
83 801
84 140
87 72
97 33
115 829
116 77
126 59
127 253
128 56
129 8
143 119

$$$$

     RDKit          2D

 13 13  0  0  0  0  0  0  0  0999 V2000
   -6.8197    3.1321    0.0000 C   0  0  0  0  0  0  0  0  0  0  0  0
   -2.9226    5.3821    0.0000 C   0  0  0  0  0  0  0  0  0  0  0  0
   -5.5207    3.8821    0.0000 C   0  0  0  0  0  0  0  0  0  0  0  0
    3.5726    1.6321    0.0000 C   0  0  0  0  0  0  0  0  0  0  0  0
    3.5731    3.1329    0.0000 C   0  0  0  0  0  0  0  0  0  0  0  0
    2.2731    0.8813    0.0000 C   0  0  0  0  0  0  0  0  0  0  0  0
    2.2740    3.8829    0.0000 C   0  0  0  0  0  0  0  0  0  0  0  0
    0.9740    1.6313    0.0000 C   0  0  0  0  0  0  0  0  0  0  0  0
   -0.3245    3.8821    0.0000 C   0  0  0  0  0  0  0  0  0  0  0  0
   -2.9226    3.8821    0.0000 C   0  0  0  0  0  0  0  0  0  0  0  0
    0.9745    3.1321    0.0000 C   0  0  0  0  0  0  0  0  0  0  0  0
   -4.2216    3.1321    0.0000 O   0  0  0  0  0  0  0  0  0  0  0  0
   -1.6236    3.1321    0.0000 O   0  0  0  0  0  0  0  0  0  0  0  0
  3  1  1  0
  5  4  2  0
  6  4  1  0
  7  5  1  0
  8  6  2  0
 10  2  1  0
 11  7  2  0
 11  8  1  0
 11  9  1  0
 12  3  1  0
 12 10  1  0
 13  9  1  0
 13 10  1  0
M  END
>  <NAME>  (1988) 
ACETALDEHYDE BENZYL ETHYL ACETAL

>  <SYNONYMS>  (1988) 


>  <SPECTRUM TYPE>  (1988) 
MS1

>  <INSTRUMENT TYPE>  (1988) 
EI-B

>  <INSTRUMENT>  (1988) 
HITACHI M-80B

>  <ION MODE>  (1988) 
P

>  <INCHIKEY>  (1988) 
QZLCHWYDADOBGM-UHFFFAOYSA-N

>  <FORMULA>  (1988) 
C11H16O2

>  <EXACT MASS>  (1988) 
180.115029752

>  <MW>  (1988) 
180

>  <ID>  (1988) 
JP009106

>  <CONTRIBUTOR>  (1988) 
University of Tokyo Team, {Faculty of Engineering, University of Tokyo

>  <COMMENT>  (1988) 
SMILES=CCOC(C)OCc(c1)cccc1
InChI=InChI=1S/C11H16O2/c1-3-12-10(2)13-9-11-7-5-4-6-8-11/h4-8,10H,3,9H2,1-2H3
computed SMILES=O(CC=1C=CC=CC1)C(OCC)C
accession=JP009106
date=2016.01.19 (Created 2008.10.21, modified 2011.05.06)
author=SODA AROMATIC CO., LTD.
license=CC BY-NC-SA
exact mass=180.11503
ionization energy=70 eV
ion type=[M]+*
computed spectral entropy=2.5659599515633023
computed normalized entropy=0.7472246688082851
SPLASH=splash10-0006-9100000000-1f7ed55933e9332506e1
submitter=submitter = University of Tokyo Team (Faculty of Engineering, University of Tokyo)
MoNA Rating=3.75

>  <NUM PEAKS>  (1988) 
31

>  <MASS SPECTRAL PEAKS>  (1988) 
15 1.71
29 7.32
31 2.36
39 4.48
41 1.37
43 9.45
44 6.15
45 40.33
46 1.08
50 2.01
51 4.54
52 1.47
63 2.45
65 11.82
72 2.6
73 26.46
74 1.18
77 8.4
78 1.76
79 5.2
89 3.95
90 3.71
91 99.99
92 17.62
105 3.21
106 1.82
107 3.63
108 3.61
133 2.16
134 22.84
135 4

>  <PREDICTED SPECTRUM>  (1988) 
1 0
15 8
19 12
25 2
26 58
27 173
28 71
29 202
31 113
37 18
38 61
39 198
40 55
41 167
42 52
43 159
44 139
45 458
46 85
47 81
49 22
50 104
51 176
52 116
53 96
54 14
55 36
56 64
57 29
59 77
61 35
62 48
63 126
64 66
65 294
66 72
72 44
73 339
74 97
75 100
76 6
77 170
78 102
79 228
80 36
89 153
90 115
91 999
92 452
93 56
105 103
106 148
107 310
108 122
109 57
119 22
134 354
135 221
136 67
180 8
181 2

$$$$

     RDKit          2D

 20 20  0  0  0  0  0  0  0  0999 V2000
   -3.8971   10.8200    0.0000 C   0  0  0  0  0  0  0  0  0  0  0  0
   -9.0933    4.8200    0.0000 C   0  0  0  0  0  0  0  0  0  0  0  0
   -3.8971    9.3200    0.0000 C   0  0  0  0  0  0  0  0  0  0  0  0
   -7.7942    4.0700    0.0000 C   0  0  0  0  0  0  0  0  0  0  0  0
   -2.5981    8.5700    0.0000 C   0  0  0  0  0  0  0  0  0  0  0  0
   -6.4952    4.8200    0.0000 C   0  0  0  0  0  0  0  0  0  0  0  0
    5.1962    2.5700    0.0000 C   0  0  0  0  0  0  0  0  0  0  0  0
   -2.5981    7.0700    0.0000 C   0  0  0  0  0  0  0  0  0  0  0  0
    5.1966    4.0708    0.0000 C   0  0  0  0  0  0  0  0  0  0  0  0
    3.8966    1.8192    0.0000 C   0  0  0  0  0  0  0  0  0  0  0  0
   -5.1962    4.0700    0.0000 C   0  0  0  0  0  0  0  0  0  0  0  0
    3.8976    4.8208    0.0000 C   0  0  0  0  0  0  0  0  0  0  0  0
    2.5976    2.5692    0.0000 C   0  0  0  0  0  0  0  0  0  0  0  0
   -1.2990    6.3200    0.0000 C   0  0  0  0  0  0  0  0  0  0  0  0
   -3.8971    4.8200    0.0000 C   0  0  0  0  0  0  0  0  0  0  0  0
    1.2990    4.8200    0.0000 C   0  0  0  0  0  0  0  0  0  0  0  0
    2.5981    4.0700    0.0000 C   0  0  0  0  0  0  0  0  0  0  0  0
   -1.2990    4.8200    0.0000 C   0  0  0  0  0  0  0  0  0  0  0  0
   -2.5981    4.0700    0.0000 O   0  0  0  0  0  0  0  0  0  0  0  0
    0.0000    4.0700    0.0000 O   0  0  0  0  0  0  0  0  0  0  0  0
  3  1  1  0
  4  2  1  0
  5  3  1  0
  6  4  1  0
  8  5  1  0
  9  7  2  0
 10  7  1  0
 11  6  1  0
 12  9  1  0
 13 10  2  0
 14  8  1  0
 15 11  1  0
 17 12  2  0
 17 13  1  0
 17 16  1  0
 18 14  1  0
 19 15  1  0
 19 18  1  0
 20 16  1  0
 20 18  1  0
M  END
>  <NAME>  (1989) 
HEXANAL BENZYL PENTYL ACETAL

>  <SYNONYMS>  (1989) 


>  <SPECTRUM TYPE>  (1989) 
MS1

>  <INSTRUMENT TYPE>  (1989) 
EI-B

>  <INSTRUMENT>  (1989) 
HITACHI M-80B

>  <ION MODE>  (1989) 
P

>  <INCHIKEY>  (1989) 
YLHBFFYCNURKLU-UHFFFAOYSA-N

>  <FORMULA>  (1989) 
C18H30O2

>  <EXACT MASS>  (1989) 
278.2245802

>  <MW>  (1989) 
278

>  <ID>  (1989) 
JP009105

>  <CONTRIBUTOR>  (1989) 
University of Tokyo Team, {Faculty of Engineering, University of Tokyo

>  <COMMENT>  (1989) 
SMILES=CCCCCOC(CCCCC)OCc(c1)cccc1
InChI=InChI=1S/C18H30O2/c1-3-5-8-14-18(19-15-11-6-4-2)20-16-17-12-9-7-10-13-17/h7,9-10,12-13,18H,3-6,8,11,14-16H2,1-2H3
computed SMILES=O(CC=1C=CC=CC1)C(OCCCCC)CCCCC
license=CC BY-NC-SA
exact mass=278.22458
accession=JP009105
date=2016.01.19 (Created 2008.10.21, modified 2011.05.06)
author=SODA AROMATIC CO., LTD.
ionization energy=70 eV
ion type=[M]+*
computed spectral entropy=1.8360532732409287
computed normalized entropy=0.5939916066976425
SPLASH=splash10-0006-9000000000-c28a8282f78e337ff709
submitter=submitter = University of Tokyo Team (Faculty of Engineering, University of Tokyo)
MoNA Rating=3.75

>  <NUM PEAKS>  (1989) 
22

>  <MASS SPECTRAL PEAKS>  (1989) 
27 2.19
29 3.72
39 1.91
41 5.86
42 1.54
43 13.08
51 1.05
55 3.39
57 5.05
65 3.16
71 2.58
77 1.34
79 1.53
82 1.01
83 4.68
90 1.14
91 99.99
92 10.17
101 2.27
107 1.98
108 1.34
207 3.39

>  <PREDICTED SPECTRUM>  (1989) 
26 11
27 124
29 171
38 7
39 141
40 38
41 214
42 122
43 327
45 0
50 11
51 43
52 34
53 32
54 5
55 188
56 58
57 77
63 47
64 42
65 228
66 23
67 19
68 15
69 87
70 12
71 208
72 1
75 29
76 2
77 39
78 10
79 43
82 24
83 142
89 34
90 110
91 999
92 351
93 44
101 67
105 31
107 114
109 22
119 72
120 10
163 111
164 36
191 26
207 109

$$$$

     RDKit          2D

 21 21  0  0  0  0  0  0  0  0999 V2000
   -6.4952   12.3200    0.0000 C   0  0  0  0  0  0  0  0  0  0  0  0
    3.8971    3.3200    0.0000 C   0  0  0  0  0  0  0  0  0  0  0  0
   -5.1962   11.5700    0.0000 C   0  0  0  0  0  0  0  0  0  0  0  0
    3.8971    4.8200    0.0000 C   0  0  0  0  0  0  0  0  0  0  0  0
   -5.1962   10.0700    0.0000 C   0  0  0  0  0  0  0  0  0  0  0  0
    2.5981    5.5700    0.0000 C   0  0  0  0  0  0  0  0  0  0  0  0
   -3.8971    9.3200    0.0000 C   0  0  0  0  0  0  0  0  0  0  0  0
    7.7942   11.5700    0.0000 C   0  0  0  0  0  0  0  0  0  0  0  0
    2.5981    7.0700    0.0000 C   0  0  0  0  0  0  0  0  0  0  0  0
    7.7947   10.0692    0.0000 C   0  0  0  0  0  0  0  0  0  0  0  0
    6.4947   12.3208    0.0000 C   0  0  0  0  0  0  0  0  0  0  0  0
   -2.5981   10.0700    0.0000 C   0  0  0  0  0  0  0  0  0  0  0  0
    6.4957    9.3192    0.0000 C   0  0  0  0  0  0  0  0  0  0  0  0
    5.1957   11.5708    0.0000 C   0  0  0  0  0  0  0  0  0  0  0  0
    1.2990    7.8200    0.0000 C   0  0  0  0  0  0  0  0  0  0  0  0
   -1.2990    9.3200    0.0000 C   0  0  0  0  0  0  0  0  0  0  0  0
    3.8971    9.3200    0.0000 C   0  0  0  0  0  0  0  0  0  0  0  0
    5.1962   10.0700    0.0000 C   0  0  0  0  0  0  0  0  0  0  0  0
    1.2990    9.3200    0.0000 C   0  0  0  0  0  0  0  0  0  0  0  0
    0.0000   10.0700    0.0000 O   0  0  0  0  0  0  0  0  0  0  0  0
    2.5981   10.0700    0.0000 O   0  0  0  0  0  0  0  0  0  0  0  0
  3  1  1  0
  4  2  1  0
  5  3  1  0
  6  4  1  0
  5  7  2  0
  9  6  1  0
 10  8  2  0
 11  8  1  0
 12  7  1  0
 13 10  1  0
 14 11  2  0
 15  9  1  0
 16 12  1  0
 18 13  2  0
 18 14  1  0
 18 17  1  0
 19 15  1  0
 20 16  1  0
 20 19  1  0
 21 17  1  0
 21 19  1  0
M  END
>  <NAME>  (1990) 
HEXANAL BENZYL CIS-3-HEXENYL ACETAL

>  <SYNONYMS>  (1990) 


>  <SPECTRUM TYPE>  (1990) 
MS1

>  <INSTRUMENT TYPE>  (1990) 
EI-B

>  <INSTRUMENT>  (1990) 
HITACHI M-80B

>  <ION MODE>  (1990) 
P

>  <INCHIKEY>  (1990) 
XKXIILVFTMECBU-ALCCZGGFSA-N

>  <FORMULA>  (1990) 
C19H30O2

>  <EXACT MASS>  (1990) 
290.2245802

>  <MW>  (1990) 
290

>  <ID>  (1990) 
JP009104

>  <CONTRIBUTOR>  (1990) 
University of Tokyo Team, {Faculty of Engineering, University of Tokyo

>  <COMMENT>  (1990) 
SMILES=CCC=CCCOC(CCCCC)OCc(c1)cccc1
InChI=InChI=1S/C19H30O2/c1-3-5-7-12-16-20-19(15-9-6-4-2)21-17-18-13-10-8-11-14-18/h5,7-8,10-11,13-14,19H,3-4,6,9,12,15-17H2,1-2H3/b7-5-
computed SMILES=O(CC=1C=CC=CC1)C(OCCC=CCC)CCCCC
accession=JP009104
date=2016.01.19 (Created 2008.10.21, modified 2011.05.06)
author=SODA AROMATIC CO., LTD.
license=CC BY-NC-SA
exact mass=290.22458
ionization energy=70 eV
ion type=[M]+*
computed spectral entropy=2.063839008600135
computed normalized entropy=0.6261957410234952
SPLASH=splash10-0006-9000000000-6e37e3f0d68a0f8997c2
submitter=submitter = University of Tokyo Team (Faculty of Engineering, University of Tokyo)
MoNA Rating=3.75

>  <NUM PEAKS>  (1990) 
27

>  <MASS SPECTRAL PEAKS>  (1990) 
27 2.25
29 1.96
39 2.77
41 11.68
42 1.09
43 2.57
51 1.05
53 1.34
55 13.56
56 1.43
57 1.26
65 3.43
67 3.17
69 1.52
77 1.63
79 1.83
81 1.01
82 4.39
83 9.09
91 99.99
92 8.79
99 2.14
107 1.42
108 1.19
113 2.79
173 1.52
191 4.98

>  <PREDICTED SPECTRUM>  (1990) 
27 95
28 38
29 104
39 164
40 28
41 303
42 109
43 232
44 97
45 44
50 26
51 74
52 35
53 82
54 85
55 394
56 76
57 65
63 22
65 219
66 11
67 112
69 36
70 12
71 101
75 7
77 100
79 95
81 84
82 173
83 566
84 94
90 25
91 999
92 298
99 76
107 20
121 11
191 11

$$$$

     RDKit          2D

 21 21  0  0  0  0  0  0  0  0999 V2000
   -9.7428    3.6950    0.0000 C   0  0  0  0  0  0  0  0  0  0  0  0
    1.9486   10.4450    0.0000 C   0  0  0  0  0  0  0  0  0  0  0  0
   -8.4437    4.4450    0.0000 C   0  0  0  0  0  0  0  0  0  0  0  0
    1.9486    8.9450    0.0000 C   0  0  0  0  0  0  0  0  0  0  0  0
   -7.1447    3.6950    0.0000 C   0  0  0  0  0  0  0  0  0  0  0  0
    0.6495    8.1950    0.0000 C   0  0  0  0  0  0  0  0  0  0  0  0
   -5.8457    4.4450    0.0000 C   0  0  0  0  0  0  0  0  0  0  0  0
    5.8457    2.1950    0.0000 C   0  0  0  0  0  0  0  0  0  0  0  0
    0.6495    6.6950    0.0000 C   0  0  0  0  0  0  0  0  0  0  0  0
    5.8462    3.6958    0.0000 C   0  0  0  0  0  0  0  0  0  0  0  0
    4.5462    1.4442    0.0000 C   0  0  0  0  0  0  0  0  0  0  0  0
   -4.5466    3.6950    0.0000 C   0  0  0  0  0  0  0  0  0  0  0  0
    4.5471    4.4458    0.0000 C   0  0  0  0  0  0  0  0  0  0  0  0
    3.2471    2.1942    0.0000 C   0  0  0  0  0  0  0  0  0  0  0  0
   -0.6495    5.9450    0.0000 C   0  0  0  0  0  0  0  0  0  0  0  0
   -3.2476    4.4450    0.0000 C   0  0  0  0  0  0  0  0  0  0  0  0
    1.9486    4.4450    0.0000 C   0  0  0  0  0  0  0  0  0  0  0  0
    3.2476    3.6950    0.0000 C   0  0  0  0  0  0  0  0  0  0  0  0
   -0.6495    4.4450    0.0000 C   0  0  0  0  0  0  0  0  0  0  0  0
   -1.9486    3.6950    0.0000 O   0  0  0  0  0  0  0  0  0  0  0  0
    0.6495    3.6950    0.0000 O   0  0  0  0  0  0  0  0  0  0  0  0
  3  1  1  0
  4  2  1  0
  5  3  1  0
  6  4  1  0
  7  5  1  0
  9  6  1  0
 10  8  2  0
 11  8  1  0
  7 12  2  0
 13 10  1  0
 14 11  2  0
 15  9  1  0
 16 12  1  0
 18 13  2  0
 18 14  1  0
 18 17  1  0
 19 15  1  0
 20 16  1  0
 20 19  1  0
 21 17  1  0
 21 19  1  0
M  END
>  <NAME>  (1991) 
HEXANAL BENZYL TRANS-2-HEXENYL ACETAL

>  <SYNONYMS>  (1991) 


>  <SPECTRUM TYPE>  (1991) 
MS1

>  <INSTRUMENT TYPE>  (1991) 
EI-B

>  <INSTRUMENT>  (1991) 
HITACHI M-80B

>  <ION MODE>  (1991) 
P

>  <INCHIKEY>  (1991) 
FQKZBNBSOLKMFF-KPKJPENVSA-N

>  <FORMULA>  (1991) 
C19H30O2

>  <EXACT MASS>  (1991) 
290.2245802

>  <MW>  (1991) 
290

>  <ID>  (1991) 
JP009103

>  <CONTRIBUTOR>  (1991) 
University of Tokyo Team, {Faculty of Engineering, University of Tokyo

>  <COMMENT>  (1991) 
SMILES=CCCC=CCOC(CCCCC)OCc(c1)cccc1
InChI=InChI=1S/C19H30O2/c1-3-5-7-12-16-20-19(15-9-6-4-2)21-17-18-13-10-8-11-14-18/h7-8,10-14,19H,3-6,9,15-17H2,1-2H3/b12-7+
computed SMILES=O(CC=CCCC)C(OCC=1C=CC=CC1)CCCCC
accession=JP009103
date=2016.01.19 (Created 2008.10.21, modified 2011.05.06)
author=SODA AROMATIC CO., LTD.
license=CC BY-NC-SA
exact mass=290.22458
ionization energy=70 eV
ion type=[M]+*
computed spectral entropy=2.4414476638910445
computed normalized entropy=0.7044528874571109
SPLASH=splash10-0006-9000000000-5528ec7a2e3375a75264
submitter=submitter = University of Tokyo Team (Faculty of Engineering, University of Tokyo)
MoNA Rating=3.75

>  <NUM PEAKS>  (1991) 
32

>  <MASS SPECTRAL PEAKS>  (1991) 
27 3.77
29 2.99
39 3.97
41 16.98
42 1.86
43 4.28
51 1.45
53 1.78
54 1.81
55 23.97
56 2.86
57 3.89
65 4.13
67 3.06
69 1.33
77 2.79
79 3.4
81 2.2
82 3.91
83 36.92
84 2.91
89 1.08
90 1.6
91 99.99
92 15.38
99 4.44
105 1.67
107 4.17
108 2.32
113 3
117 1.49
139 1.53

>  <PREDICTED SPECTRUM>  (1991) 
26 21
27 150
28 69
29 183
31 25
37 1
38 18
39 172
40 55
41 315
42 124
43 235
44 73
45 47
50 18
51 74
52 46
53 111
54 142
55 469
56 112
57 156
63 33
64 23
65 198
66 35
67 150
68 60
69 82
70 31
71 76
75 15
77 115
79 111
81 151
82 181
83 548
84 118
89 29
90 64
91 999
92 277
93 25
96 26
99 110
105 16
107 92
117 5
121 70
122 20
123 12
131 15
132 14
149 5
191 23
192 34

$$$$

     RDKit          2D

 22 23  0  0  0  0  0  0  0  0999 V2000
   -8.1185    3.1325    0.0000 C   0  0  0  0  0  0  0  0  0  0  0  0
   -6.8195    3.8825    0.0000 C   0  0  0  0  0  0  0  0  0  0  0  0
   -5.5204    3.1325    0.0000 C   0  0  0  0  0  0  0  0  0  0  0  0
    4.8719    1.6325    0.0000 C   0  0  0  0  0  0  0  0  0  0  0  0
   -2.9224   10.6325    0.0000 C   0  0  0  0  0  0  0  0  0  0  0  0
   -4.2214    3.8825    0.0000 C   0  0  0  0  0  0  0  0  0  0  0  0
    4.8724    3.1333    0.0000 C   0  0  0  0  0  0  0  0  0  0  0  0
    3.5724    0.8817    0.0000 C   0  0  0  0  0  0  0  0  0  0  0  0
   -4.2224    9.8825    0.0000 C   0  0  0  0  0  0  0  0  0  0  0  0
   -1.6224    9.8825    0.0000 C   0  0  0  0  0  0  0  0  0  0  0  0
    3.5733    3.8833    0.0000 C   0  0  0  0  0  0  0  0  0  0  0  0
    2.2733    1.6317    0.0000 C   0  0  0  0  0  0  0  0  0  0  0  0
   -4.2224    8.3825    0.0000 C   0  0  0  0  0  0  0  0  0  0  0  0
   -1.6224    8.3825    0.0000 C   0  0  0  0  0  0  0  0  0  0  0  0
   -2.9224    3.1325    0.0000 C   0  0  0  0  0  0  0  0  0  0  0  0
    0.9748    3.8825    0.0000 C   0  0  0  0  0  0  0  0  0  0  0  0
   -2.9224    6.1325    0.0000 C   0  0  0  0  0  0  0  0  0  0  0  0
    2.2738    3.1325    0.0000 C   0  0  0  0  0  0  0  0  0  0  0  0
   -2.9224    7.6325    0.0000 C   0  0  0  0  0  0  0  0  0  0  0  0
   -1.6233    3.8825    0.0000 C   0  0  0  0  0  0  0  0  0  0  0  0
   -0.3243    3.1325    0.0000 O   0  0  0  0  0  0  0  0  0  0  0  0
   -1.6233    5.3825    0.0000 O   0  0  0  0  0  0  0  0  0  0  0  0
  2  1  1  0
  3  2  1  0
  6  3  1  0
  7  4  2  0
  8  4  1  0
  9  5  2  0
 10  5  1  0
 11  7  1  0
 12  8  2  0
 13  9  1  0
 14 10  2  0
 15  6  1  0
 18 11  2  0
 18 12  1  0
 18 16  1  0
 19 13  2  0
 19 14  1  0
 19 17  1  0
 20 15  1  0
 21 16  1  0
 21 20  1  0
 22 17  1  0
 22 20  1  0
M  END
>  <NAME>  (1992) 
HEXANAL DIBENZYL ACETAL

>  <SYNONYMS>  (1992) 


>  <SPECTRUM TYPE>  (1992) 
MS1

>  <INSTRUMENT TYPE>  (1992) 
EI-B

>  <INSTRUMENT>  (1992) 
HITACHI M-80B

>  <ION MODE>  (1992) 
P

>  <INCHIKEY>  (1992) 
KSUZGVFZLVNEAN-UHFFFAOYSA-N

>  <FORMULA>  (1992) 
C20H26O2

>  <EXACT MASS>  (1992) 
298.193280072

>  <MW>  (1992) 
298

>  <ID>  (1992) 
JP009102

>  <CONTRIBUTOR>  (1992) 
University of Tokyo Team, {Faculty of Engineering, University of Tokyo

>  <COMMENT>  (1992) 
SMILES=CCCCCC(OCc(c2)cccc2)OCc(c1)cccc1
InChI=InChI=1S/C20H26O2/c1-2-3-6-15-20(21-16-18-11-7-4-8-12-18)22-17-19-13-9-5-10-14-19/h4-5,7-14,20H,2-3,6,15-17H2,1H3
computed SMILES=O(CC=1C=CC=CC1)C(OCC=2C=CC=CC2)CCCCC
accession=JP009102
date=2016.01.19 (Created 2008.10.21, modified 2011.05.06)
author=SODA AROMATIC CO., LTD.
license=CC BY-NC-SA
exact mass=298.19328
ionization energy=70 eV
ion type=[M]+*
computed spectral entropy=1.5062979812664483
computed normalized entropy=0.5211433363723593
SPLASH=splash10-0006-9000000000-b8542136bcd0cf56544d
submitter=submitter = University of Tokyo Team (Faculty of Engineering, University of Tokyo)
MoNA Rating=3.75

>  <NUM PEAKS>  (1992) 
18

>  <MASS SPECTRAL PEAKS>  (1992) 
27 1.57
29 1.07
39 2.27
41 1.73
43 1.81
51 1.75
65 5.67
77 2.8
79 2.84
89 1.26
90 1.18
91 99.99
92 18.67
93 1.11
105 1.46
107 5.81
108 1.92
181 2.99

>  <PREDICTED SPECTRUM>  (1992) 
27 59
29 64
37 1
38 12
39 109
40 48
41 160
42 41
43 132
44 31
45 40
50 45
51 105
52 62
53 63
54 23
55 101
56 28
57 52
62 12
63 49
64 52
65 236
66 49
69 15
71 8
76 1
77 134
78 58
79 101
83 78
89 118
90 109
91 999
92 315
93 8
99 13
100 10
101 59
102 17
105 86
106 15
107 214
108 72
119 38
165 18
181 5
184 6
207 71

$$$$

     RDKit          2D

 18 19  0  0  0  0  0  0  0  0999 V2000
   -2.5976    7.0700    0.0000 C   0  0  0  0  0  0  0  0  0  0  0  0
    3.8976    3.3200    0.0000 C   0  0  0  0  0  0  0  0  0  0  0  0
   -9.0928    3.3200    0.0000 C   0  0  0  0  0  0  0  0  0  0  0  0
    3.8981    4.8208    0.0000 C   0  0  0  0  0  0  0  0  0  0  0  0
    2.5981    2.5692    0.0000 C   0  0  0  0  0  0  0  0  0  0  0  0
   -7.7933    2.5692    0.0000 C   0  0  0  0  0  0  0  0  0  0  0  0
   -9.0933    4.8208    0.0000 C   0  0  0  0  0  0  0  0  0  0  0  0
    2.5990    5.5708    0.0000 C   0  0  0  0  0  0  0  0  0  0  0  0
    1.2990    3.3192    0.0000 C   0  0  0  0  0  0  0  0  0  0  0  0
   -6.4942    3.3192    0.0000 C   0  0  0  0  0  0  0  0  0  0  0  0
   -7.7942    5.5708    0.0000 C   0  0  0  0  0  0  0  0  0  0  0  0
    0.0005    5.5700    0.0000 C   0  0  0  0  0  0  0  0  0  0  0  0
   -5.1957    5.5700    0.0000 C   0  0  0  0  0  0  0  0  0  0  0  0
   -2.5976    5.5700    0.0000 C   0  0  0  0  0  0  0  0  0  0  0  0
    1.2995    4.8200    0.0000 C   0  0  0  0  0  0  0  0  0  0  0  0
   -6.4947    4.8200    0.0000 C   0  0  0  0  0  0  0  0  0  0  0  0
   -1.2986    4.8200    0.0000 O   0  0  0  0  0  0  0  0  0  0  0  0
   -3.8966    4.8200    0.0000 O   0  0  0  0  0  0  0  0  0  0  0  0
  4  2  2  0
  5  2  1  0
  6  3  2  0
  7  3  1  0
  8  4  1  0
  9  5  2  0
 10  6  1  0
 11  7  2  0
 14  1  1  0
 15  8  2  0
 15  9  1  0
 15 12  1  0
 16 10  2  0
 16 11  1  0
 16 13  1  0
 17 12  1  0
 17 14  1  0
 18 13  1  0
 18 14  1  0
M  END
>  <NAME>  (1993) 
ACETALDEHYDE DIBENZYL ACETAL

>  <SYNONYMS>  (1993) 


>  <SPECTRUM TYPE>  (1993) 
MS1

>  <INSTRUMENT TYPE>  (1993) 
EI-B

>  <INSTRUMENT>  (1993) 
HITACHI M-80B

>  <ION MODE>  (1993) 
P

>  <INCHIKEY>  (1993) 
RFRXYOZZAPXFFD-UHFFFAOYSA-N

>  <FORMULA>  (1993) 
C16H18O2

>  <EXACT MASS>  (1993) 
242.130679816

>  <MW>  (1993) 
242

>  <ID>  (1993) 
JP009101

>  <CONTRIBUTOR>  (1993) 
University of Tokyo Team, {Faculty of Engineering, University of Tokyo

>  <COMMENT>  (1993) 
SMILES=CC(OCc(c2)cccc2)OCc(c1)cccc1
InChI=InChI=1S/C16H18O2/c1-14(17-12-15-8-4-2-5-9-15)18-13-16-10-6-3-7-11-16/h2-11,14H,12-13H2,1H3
computed SMILES=O(CC=1C=CC=CC1)C(OCC=2C=CC=CC2)C
accession=JP009101
date=2016.01.19 (Created 2008.10.21, modified 2011.05.06)
author=SODA AROMATIC CO., LTD.
license=CC BY-NC-SA
exact mass=242.13068
ionization energy=70 eV
ion type=[M]+*
computed spectral entropy=1.9463708259664312
computed normalized entropy=0.6393025066426683
SPLASH=splash10-0006-9100000000-ef95786515ce4e679aab
submitter=submitter = University of Tokyo Team (Faculty of Engineering, University of Tokyo)
MoNA Rating=3.75

>  <NUM PEAKS>  (1993) 
21

>  <MASS SPECTRAL PEAKS>  (1993) 
39 4.62
41 1.08
43 1.56
51 5.04
52 1.1
63 1.71
65 11.26
77 7.24
78 1.59
79 6.44
89 2.22
90 2.93
91 99.99
92 48.22
93 2.61
105 2.02
107 13.52
108 2.23
133 1.82
134 4.7
151 1.49

>  <PREDICTED SPECTRUM>  (1993) 
26 39
27 150
28 87
29 142
31 6
38 41
39 190
40 50
41 159
42 50
43 92
44 81
45 201
46 11
50 132
51 228
52 106
53 96
54 15
55 26
56 4
57 19
61 10
62 60
63 164
64 96
65 348
66 77
67 18
74 14
76 26
77 276
78 150
79 241
80 59
81 7
83 5
89 202
90 139
91 999
92 383
93 135
94 23
95 31
105 279
106 171
107 419
108 209
119 13
121 11
122 13
123 20
134 22
151 39
152 18
197 21

$$$$

     RDKit          2D

  5  4  0  0  0  0  0  0  0  0999 V2000
   -3.8971    2.2500    0.0000 C   0  0  0  0  0  0  0  0  0  0  0  0
    1.2990    2.2500    0.0000 C   0  0  0  0  0  0  0  0  0  0  0  0
   -2.5981    1.5000    0.0000 C   0  0  0  0  0  0  0  0  0  0  0  0
   -1.2990    2.2500    0.0000 C   0  0  0  0  0  0  0  0  0  0  0  0
    0.0000    1.5000    0.0000 S   0  0  0  0  0  0  0  0  0  0  0  0
  3  1  2  0
  4  3  1  0
  5  2  1  0
  5  4  1  0
M  END
>  <NAME>  (1994) 
ALLYL METHYL SULFIDE

>  <SYNONYMS>  (1994) 


>  <SPECTRUM TYPE>  (1994) 
MS1

>  <INSTRUMENT TYPE>  (1994) 
EI-B

>  <INSTRUMENT>  (1994) 
HITACHI M-80B

>  <ION MODE>  (1994) 
P

>  <INCHIKEY>  (1994) 
NVLPQIPTCCLBEU-UHFFFAOYSA-N

>  <FORMULA>  (1994) 
C4H8S

>  <EXACT MASS>  (1994) 
88.034671256

>  <MW>  (1994) 
88

>  <ID>  (1994) 
JP009100

>  <CONTRIBUTOR>  (1994) 
University of Tokyo Team, {Faculty of Engineering, University of Tokyo

>  <COMMENT>  (1994) 
SMILES=C=CCSC
cas=10152-76-8
InChI=InChI=1S/C4H8S/c1-3-4-5-2/h3H,1,4H2,2H3
computed SMILES=S(C)CC=C
accession=JP009100
date=2016.01.19 (Created 2008.10.21, modified 2011.05.06)
author=SODA AROMATIC CO., LTD.
license=CC BY-NC-SA
exact mass=88.03467
ionization energy=70 eV
ion type=[M]+*
computed spectral entropy=2.6924841267218405
computed normalized entropy=0.7513520014720071
SPLASH=splash10-000j-9000000000-cda664188b696a90957d
submitter=submitter = University of Tokyo Team (Faculty of Engineering, University of Tokyo)
MoNA Rating=3.75

>  <NUM PEAKS>  (1994) 
36

>  <MASS SPECTRAL PEAKS>  (1994) 
14 1.15
15 4.66
26 2.77
27 13.33
35 4.93
37 4.27
38 10.12
39 64.48
40 4.91
41 56.98
42 3.91
44 1.65
45 80.64
46 29.36
47 31.02
48 5.74
49 2.53
53 2.84
54 1.69
55 1.69
57 1.25
58 2.17
59 3.67
60 2.54
61 21.25
69 3.91
71 5.88
72 5.32
73 79.92
74 2.99
75 3.26
85 1.62
87 4.03
88 99.99
89 4.53
90 4.75

>  <PREDICTED SPECTRUM>  (1994) 
14 47
15 87
25 41
26 168
27 370
28 175
29 210
30 75
31 65
32 57
33 60
34 35
35 136
36 42
37 112
38 233
39 732
40 274
41 744
42 95
43 354
44 76
45 701
46 336
47 493
48 197
49 108
50 67
51 77
53 161
54 168
55 160
56 41
57 85
58 36
59 254
60 156
61 392
62 73
64 75
69 57
71 90
72 126
73 649
74 42
75 150
87 39
88 999
89 208
90 165

$$$$

     RDKit          2D

 12 12  0  0  0  0  0  0  0  0999 V2000
   -1.8335    0.5083    0.0000 C   0  0  0  0  0  0  0  0  0  0  0  0
   -0.5353   -0.2431    0.0000 C   0  0  0  0  0  0  0  0  0  0  0  0
    7.5924    2.2989    0.0000 C   0  0  0  0  0  0  0  0  0  0  0  0
    0.7645    0.5056    0.0000 C   0  0  0  0  0  0  0  0  0  0  0  0
    6.1252    1.9870    0.0000 C   0  0  0  0  0  0  0  0  0  0  0  0
    8.3376    1.0055    0.0000 C   0  0  0  0  0  0  0  0  0  0  0  0
    4.6609   -0.2484    0.0000 C   0  0  0  0  0  0  0  0  0  0  0  0
    5.9607    0.5003    0.0000 C   0  0  0  0  0  0  0  0  0  0  0  0
    2.0628   -0.2457    0.0000 C   0  0  0  0  0  0  0  0  0  0  0  0
    2.0613   -1.7457    0.0000 O   0  0  0  0  0  0  0  0  0  0  0  0
    7.3370   -0.1068    0.0000 O   0  0  0  0  0  0  0  0  0  0  0  0
    3.3626    0.5030    0.0000 O   0  0  0  0  0  0  0  0  0  0  0  0
  2  1  1  0
  2  4  2  0
  5  3  1  0
  6  3  2  0
  8  5  2  0
  8  7  1  0
  9  4  1  0
 10  9  2  0
 11  6  1  0
 11  8  1  0
 12  7  1  0
 12  9  1  0
M  END
>  <NAME>  (1995) 
FURFURYL CROTONATE

>  <SYNONYMS>  (1995) 


>  <SPECTRUM TYPE>  (1995) 
MS1

>  <INSTRUMENT TYPE>  (1995) 
EI-B

>  <INSTRUMENT>  (1995) 
HITACHI M-80B

>  <ION MODE>  (1995) 
P

>  <INCHIKEY>  (1995) 
RNOSZJQXPVHHLQ-DUXPYHPUSA-N

>  <FORMULA>  (1995) 
C9H10O3

>  <EXACT MASS>  (1995) 
166.06299417999998

>  <MW>  (1995) 
166

>  <ID>  (1995) 
JP009099

>  <CONTRIBUTOR>  (1995) 
University of Tokyo Team, {Faculty of Engineering, University of Tokyo

>  <COMMENT>  (1995) 
SMILES=CC=CC(=O)OCc(c1)occ1
InChI=InChI=1S/C9H10O3/c1-2-4-9(10)12-7-8-5-3-6-11-8/h2-6H,7H2,1H3/b4-2+
computed SMILES=O=C(OCC=1OC=CC1)C=CC
accession=JP009099
date=2016.01.19 (Created 2008.10.21, modified 2011.05.06)
author=SODA AROMATIC CO., LTD.
license=CC BY-NC-SA
exact mass=166.06299
ionization energy=70 eV
ion type=[M]+*
computed spectral entropy=2.9688007292443586
computed normalized entropy=0.7710875104958973
SPLASH=splash10-0gc0-9000000000-9f3693cccd01d9dd0fdb
submitter=submitter = University of Tokyo Team (Faculty of Engineering, University of Tokyo)
MoNA Rating=3.75

>  <NUM PEAKS>  (1995) 
47

>  <MASS SPECTRAL PEAKS>  (1995) 
15 1.8
29 8.52
37 6.35
38 10.32
39 47.63
41 31
42 5.16
43 2.41
44 2.83
45 2
49 1.41
50 5.38
51 8.52
52 31.66
53 31.8
54 2.88
55 1.62
63 1.31
64 4.65
65 2.7
66 1.45
67 1.24
68 4.28
69 85.23
70 3.94
71 1.07
79 1.72
80 9.48
81 99.99
82 5.11
86 1.17
87 2.25
91 1.52
93 9.34
94 2.74
95 8.92
96 5.14
97 11.04
98 11.64
107 1.15
120 2.85
121 12.56
122 1.09
148 2.5
151 1.89
166 17.81
167 2.16

>  <PREDICTED SPECTRUM>  (1995) 
25 10
26 69
27 163
28 23
29 108
30 44
33 0
34 6
36 20
37 129
38 225
39 619
40 236
41 696
42 206
43 279
44 158
45 153
49 14
50 183
51 309
52 313
53 649
54 180
55 153
56 8
57 26
60 52
61 32
62 48
63 154
64 79
65 201
66 160
67 191
68 268
69 950
70 144
71 56
77 72
78 82
79 125
80 97
81 999
82 179
85 73
87 28
91 59
92 69
93 101
94 97
95 363
96 129
97 321
98 232
99 128
105 6
110 6
111 9
112 44
120 105
121 221
122 106
123 85
124 9
136 55
137 1
149 18
166 456
167 151
168 26

$$$$

     RDKit          2D

  9  9  0  0  0  0  0  0  0  0999 V2000
   -1.1700   -1.2200    0.0000 C   0  0  0  0  0  0  0  0  0  0  0  0
    0.3300   -1.2200    0.0000 C   0  0  0  0  0  0  0  0  0  0  0  0
   -1.6300    0.2000    0.0000 C   0  0  0  0  0  0  0  0  0  0  0  0
    2.2271    0.6621    0.0000 C   0  0  0  0  0  0  0  0  0  0  0  0
    4.7678    0.1193    0.0000 C   0  0  0  0  0  0  0  0  0  0  0  0
    0.8000    0.2000    0.0000 C   0  0  0  0  0  0  0  0  0  0  0  0
    5.8815   -0.8855    0.0000 O   0  0  0  0  0  0  0  0  0  0  0  0
    3.3407   -0.3428    0.0000 O   0  0  0  0  0  0  0  0  0  0  0  0
   -0.4200    1.0800    0.0000 O   0  0  0  0  0  0  0  0  0  0  0  0
  2  1  1  0
  3  1  2  0
  6  2  2  0
  6  4  1  0
  7  5  2  0
  8  4  1  0
  8  5  1  0
  9  3  1  0
  9  6  1  0
M  END
>  <NAME>  (1996) 
FURFURYL FORMATE

>  <SYNONYMS>  (1996) 


>  <SPECTRUM TYPE>  (1996) 
MS1

>  <INSTRUMENT TYPE>  (1996) 
EI-B

>  <INSTRUMENT>  (1996) 
HITACHI M-80B

>  <ION MODE>  (1996) 
P

>  <INCHIKEY>  (1996) 
FPRQARNPKWVCNI-UHFFFAOYSA-N

>  <FORMULA>  (1996) 
C6H6O3

>  <EXACT MASS>  (1996) 
126.03169405199999

>  <MW>  (1996) 
126

>  <ID>  (1996) 
JP009098

>  <CONTRIBUTOR>  (1996) 
University of Tokyo Team, {Faculty of Engineering, University of Tokyo

>  <COMMENT>  (1996) 
SMILES=O=COCc(c1)occ1
InChI=InChI=1S/C6H6O3/c7-5-8-4-6-2-1-3-9-6/h1-3,5H,4H2
computed SMILES=O=COCC=1OC=CC1
accession=JP009098
date=2016.01.19 (Created 2008.10.21, modified 2011.05.06)
author=SODA AROMATIC CO., LTD.
license=CC BY-NC-SA
exact mass=126.03169
ion type=[M]+*
ionization energy=70 eV
computed spectral entropy=2.590997063440735
computed normalized entropy=0.7861423877395671
SPLASH=splash10-0fai-9100000000-1d01d927f539431cd6e1
submitter=submitter = University of Tokyo Team (Faculty of Engineering, University of Tokyo)
MoNA Rating=3.75

>  <NUM PEAKS>  (1996) 
27

>  <MASS SPECTRAL PEAKS>  (1996) 
26 2.94
27 16.14
29 16.92
31 3.72
37 3.14
38 5.99
39 16.36
40 1.22
41 8.24
42 4.51
43 1.52
50 6.93
51 11.26
52 26.68
53 42.19
54 2.01
55 1.33
69 3.67
70 3.13
80 25.31
81 99.99
82 5.58
95 3.44
97 3.52
98 7.11
126 49.04
127 3.16

>  <PREDICTED SPECTRUM>  (1996) 
14 7
15 20
17 1
18 9
25 8
26 45
27 104
28 14
29 110
30 24
37 64
38 123
39 303
40 110
41 215
42 69
43 89
49 30
50 147
51 255
52 198
53 425
54 14
55 24
62 33
63 37
65 52
66 6
67 126
68 296
69 202
70 28
74 15
79 59
80 123
81 999
82 152
83 34
94 69
95 306
96 213
97 362
98 103
99 16
126 437
127 139

$$$$

     RDKit          2D

 11 11  0  0  0  0  0  0  0  0999 V2000
    4.2566    0.5448    0.0000 C   0  0  0  0  0  0  0  0  0  0  0  0
   -3.5381    0.5444    0.0000 C   0  0  0  0  0  0  0  0  0  0  0  0
    2.9576   -0.2052    0.0000 C   0  0  0  0  0  0  0  0  0  0  0  0
    1.6590    2.0456    0.0000 C   0  0  0  0  0  0  0  0  0  0  0  0
    0.3600    2.7956    0.0000 C   0  0  0  0  0  0  0  0  0  0  0  0
    0.3590   -0.2060    0.0000 C   0  0  0  0  0  0  0  0  0  0  0  0
    1.6586    0.5448    0.0000 C   0  0  0  0  0  0  0  0  0  0  0  0
   -0.9395    2.0448    0.0000 C   0  0  0  0  0  0  0  0  0  0  0  0
   -0.9400    0.5440    0.0000 C   0  0  0  0  0  0  0  0  0  0  0  0
   -2.2386    2.7948    0.0000 O   0  0  0  0  0  0  0  0  0  0  0  0
   -2.2392   -0.2058    0.0000 O   0  0  0  0  0  0  0  0  0  0  0  0
  3  1  2  0
  5  4  2  0
  7  3  1  0
  7  4  1  0
  7  6  2  0
  8  5  1  0
  9  6  1  0
  9  8  2  0
 10  8  1  0
 11  2  1  0
 11  9  1  0
M  END
>  <NAME>  (1997) 
4-VINYLGUAIACOL

>  <SYNONYMS>  (1997) 
2-METHOXY-4-VINYLPHENOL

>  <SPECTRUM TYPE>  (1997) 
MS1

>  <INSTRUMENT TYPE>  (1997) 
EI-B

>  <INSTRUMENT>  (1997) 
HITACHI M-80B

>  <ION MODE>  (1997) 
P

>  <INCHIKEY>  (1997) 
YOMSJEATGXXYPX-UHFFFAOYSA-N

>  <FORMULA>  (1997) 
C9H10O2

>  <EXACT MASS>  (1997) 
150.06807956

>  <MW>  (1997) 
150

>  <ID>  (1997) 
JP009097

>  <CONTRIBUTOR>  (1997) 
University of Tokyo Team, {Faculty of Engineering, University of Tokyo

>  <COMMENT>  (1997) 
SMILES=C=Cc(c1)cc(OC)c(O)c1
InChI=InChI=1S/C9H10O2/c1-3-7-4-5-8(10)9(6-7)11-2/h3-6,10H,1H2,2H3
computed SMILES=OC1=CC=C(C=C)C=C1OC
accession=JP009097
date=2016.01.19 (Created 2008.10.21, modified 2011.05.06)
author=SODA AROMATIC CO., LTD.
license=CC BY-NC-SA
exact mass=150.06808
ionization energy=70 eV
ion type=[M]+*
computed spectral entropy=2.7612005901677334
computed normalized entropy=0.7387492400775363
SPLASH=splash10-0udr-6900000000-c95e8007869a915d6fe6
submitter=submitter = University of Tokyo Team (Faculty of Engineering, University of Tokyo)
MoNA Rating=3.75

>  <NUM PEAKS>  (1997) 
42

>  <MASS SPECTRAL PEAKS>  (1997) 
15 5.79
26 1.76
27 5.77
29 2.54
31 1.28
38 1.93
39 10.05
42 1.05
50 5.36
51 10.85
52 6.86
53 8.2
54 1.17
55 5.15
62 2.88
63 7.47
64 2.42
65 5.19
66 1.14
69 1.06
74 1.72
75 3.95
76 1.55
77 31.44
78 9.02
79 9.42
81 1.44
89 4.7
90 1.19
91 4.2
92 1.04
103 1.37
105 1.92
107 36.17
108 2.97
118 1.1
135 68.21
136 4.94
149 1.37
150 99.99
151 9.65
152 1.35

>  <PREDICTED SPECTRUM>  (1997) 
14 2
15 30
26 42
27 98
28 18
29 12
37 32
38 79
39 210
40 41
41 76
42 28
45 2
49 55
50 192
51 327
52 196
53 226
54 49
55 44
61 63
62 93
63 194
64 94
65 198
66 127
67 55
74 43
75 61
76 65
77 388
78 205
79 327
80 148
81 94
87 69
89 218
90 94
91 149
92 121
93 23
94 33
102 34
103 172
104 92
105 160
106 76
107 680
108 260
109 62
117 51
118 41
119 152
120 78
121 101
122 23
123 130
131 48
133 50
134 39
135 678
136 199
137 26
149 139
150 999
151 304
152 37

$$$$

     RDKit          2D

 13 13  0  0  0  0  0  0  0  0999 V2000
   -5.8454    3.6946    0.0000 C   0  0  0  0  0  0  0  0  0  0  0  0
    3.2478    1.4446    0.0000 C   0  0  0  0  0  0  0  0  0  0  0  0
    3.2483    2.9454    0.0000 C   0  0  0  0  0  0  0  0  0  0  0  0
    1.9483    0.6938    0.0000 C   0  0  0  0  0  0  0  0  0  0  0  0
    1.9493    3.6954    0.0000 C   0  0  0  0  0  0  0  0  0  0  0  0
    0.6493    1.4438    0.0000 C   0  0  0  0  0  0  0  0  0  0  0  0
   -0.6493    3.6946    0.0000 C   0  0  0  0  0  0  0  0  0  0  0  0
   -4.5464    2.9446    0.0000 C   0  0  0  0  0  0  0  0  0  0  0  0
    0.6498    2.9446    0.0000 C   0  0  0  0  0  0  0  0  0  0  0  0
   -3.2474    3.6946    0.0000 C   0  0  0  0  0  0  0  0  0  0  0  0
   -4.5464    1.4446    0.0000 O   0  0  0  0  0  0  0  0  0  0  0  0
   -3.2474    5.1946    0.0000 O   0  0  0  0  0  0  0  0  0  0  0  0
   -1.9483    2.9446    0.0000 O   0  0  0  0  0  0  0  0  0  0  0  0
  3  2  2  0
  4  2  1  0
  5  3  1  0
  6  4  2  0
  8  1  1  0
  9  5  2  0
  9  6  1  0
  9  7  1  0
 10  8  1  0
 11  8  1  0
 12 10  2  0
 13  7  1  0
 13 10  1  0
M  END
>  <NAME>  (1998) 
BENZYL LACTATE

>  <SYNONYMS>  (1998) 


>  <SPECTRUM TYPE>  (1998) 
MS1

>  <INSTRUMENT TYPE>  (1998) 
EI-B

>  <INSTRUMENT>  (1998) 
HITACHI M-80B

>  <ION MODE>  (1998) 
P

>  <INCHIKEY>  (1998) 
ZYTLPUIDJRKAAM-UHFFFAOYSA-N

>  <FORMULA>  (1998) 
C10H12O3

>  <EXACT MASS>  (1998) 
180.07864424399997

>  <MW>  (1998) 
180

>  <ID>  (1998) 
JP009096

>  <CONTRIBUTOR>  (1998) 
University of Tokyo Team, {Faculty of Engineering, University of Tokyo

>  <COMMENT>  (1998) 
SMILES=CC(O)C(=O)OCc(c1)cccc1
InChI=InChI=1S/C10H12O3/c1-8(11)10(12)13-7-9-5-3-2-4-6-9/h2-6,8,11H,7H2,1H3
computed SMILES=O=C(OCC=1C=CC=CC1)C(O)C
accession=JP009096
date=2016.01.19 (Created 2008.10.21, modified 2011.05.06)
author=SODA AROMATIC CO., LTD.
license=CC BY-NC-SA
exact mass=180.07864
ionization energy=70 eV
ion type=[M]+*
computed spectral entropy=1.9362363770314597
computed normalized entropy=0.6092522280591682
SPLASH=splash10-0007-9000000000-689f88442c5d3b826fe4
submitter=submitter = University of Tokyo Team (Faculty of Engineering, University of Tokyo)
MoNA Rating=3.75

>  <NUM PEAKS>  (1998) 
24

>  <MASS SPECTRAL PEAKS>  (1998) 
27 2.15
29 2
39 3.51
41 1.31
43 2.29
45 63.2
46 1.73
50 1.63
51 3.77
52 1.33
56 1.25
63 2.54
65 10.3
77 6.22
78 1.19
79 3.04
89 2.82
90 2.77
91 99.99
92 15.94
105 1.1
107 1.77
108 1.68
180 3.51

>  <PREDICTED SPECTRUM>  (1998) 
14 0
15 2
17 2
18 24
19 7
26 31
27 132
28 32
29 131
30 18
31 76
36 18
37 23
38 67
39 194
40 60
41 118
42 30
43 234
44 142
45 312
46 57
49 34
50 119
51 211
52 143
53 103
54 22
56 17
57 4
62 66
63 145
64 83
65 324
66 36
71 0
74 31
77 251
78 111
79 221
80 35
89 103
90 153
91 999
92 383
105 105
106 34
107 372
108 284
109 33
135 58
180 128
181 44

$$$$

     RDKit          2D

 20 19  0  0  0  0  0  0  0  0999 V2000
    4.5466    7.8750    0.0000 C   0  0  0  0  0  0  0  0  0  0  0  0
  -13.6399    7.8750    0.0000 C   0  0  0  0  0  0  0  0  0  0  0  0
   -7.1447   14.6250    0.0000 C   0  0  0  0  0  0  0  0  0  0  0  0
    3.2476    8.6250    0.0000 C   0  0  0  0  0  0  0  0  0  0  0  0
  -12.3409    8.6250    0.0000 C   0  0  0  0  0  0  0  0  0  0  0  0
   -7.1447   13.1250    0.0000 C   0  0  0  0  0  0  0  0  0  0  0  0
    1.9486    7.8750    0.0000 C   0  0  0  0  0  0  0  0  0  0  0  0
  -11.0418    7.8750    0.0000 C   0  0  0  0  0  0  0  0  0  0  0  0
   -5.8457   12.3750    0.0000 C   0  0  0  0  0  0  0  0  0  0  0  0
    0.6495    8.6250    0.0000 C   0  0  0  0  0  0  0  0  0  0  0  0
   -9.7428    8.6250    0.0000 C   0  0  0  0  0  0  0  0  0  0  0  0
   -5.8457   10.8750    0.0000 C   0  0  0  0  0  0  0  0  0  0  0  0
   -0.6495    7.8750    0.0000 C   0  0  0  0  0  0  0  0  0  0  0  0
   -8.4437    7.8750    0.0000 C   0  0  0  0  0  0  0  0  0  0  0  0
   -4.5466   10.1250    0.0000 C   0  0  0  0  0  0  0  0  0  0  0  0
   -1.9486    8.6250    0.0000 C   0  0  0  0  0  0  0  0  0  0  0  0
   -7.1447    8.6250    0.0000 C   0  0  0  0  0  0  0  0  0  0  0  0
   -4.5466    8.6250    0.0000 C   0  0  0  0  0  0  0  0  0  0  0  0
   -3.2476    7.8750    0.0000 O   0  0  0  0  0  0  0  0  0  0  0  0
   -5.8457    7.8750    0.0000 O   0  0  0  0  0  0  0  0  0  0  0  0
  4  1  1  0
  5  2  1  0
  6  3  1  0
  7  4  1  0
  8  5  1  0
  9  6  1  0
 10  7  1  0
 11  8  1  0
 12  9  1  0
 10 13  2  0
 11 14  2  0
 15 12  1  0
 16 13  1  0
 17 14  1  0
 18 15  1  0
 19 16  1  0
 19 18  1  0
 20 17  1  0
 20 18  1  0
M  END
>  <NAME>  (1999) 
HEXANAL DI-TRANS-2-HEXENYL ACETAL

>  <SYNONYMS>  (1999) 


>  <SPECTRUM TYPE>  (1999) 
MS1

>  <INSTRUMENT TYPE>  (1999) 
EI-B

>  <INSTRUMENT>  (1999) 
HITACHI M-80B

>  <ION MODE>  (1999) 
P

>  <INCHIKEY>  (1999) 
CKGRYWOADIIZMT-IFQMDVHZSA-N

>  <FORMULA>  (1999) 
C18H34O2

>  <EXACT MASS>  (1999) 
282.255880328

>  <MW>  (1999) 
282

>  <ID>  (1999) 
JP009094

>  <CONTRIBUTOR>  (1999) 
University of Tokyo Team, {Faculty of Engineering, University of Tokyo

>  <COMMENT>  (1999) 
SMILES=CCCC=CCOC(CCCCC)OCC=CCCC
InChI=InChI=1S/C18H34O2/c1-4-7-10-13-16-19-18(15-12-9-6-3)20-17-14-11-8-5-2/h10-11,13-14,18H,4-9,12,15-17H2,1-3H3/b13-10+,14-11+
computed SMILES=O(CC=CCCC)C(OCC=CCCC)CCCCC
accession=JP009094
date=2016.01.19 (Created 2008.10.21, modified 2011.05.06)
author=SODA AROMATIC CO., LTD.
license=CC BY-NC-SA
exact mass=282.25588
ionization energy=70 eV
ion type=[M]+*
computed spectral entropy=2.4410190675324017
computed normalized entropy=0.7325537973670336
SPLASH=splash10-053r-9000000000-f6a0207259ad5a0d8e51
submitter=submitter = University of Tokyo Team (Faculty of Engineering, University of Tokyo)
MoNA Rating=3.75

>  <NUM PEAKS>  (1999) 
28

>  <MASS SPECTRAL PEAKS>  (1999) 
27 7.17
29 8.58
39 6.73
41 33.34
42 4.05
43 9.36
44 1.36
53 2.34
54 6.87
55 57.05
56 6.13
57 12.02
67 7.94
69 2.27
71 1.97
81 3.99
82 9.51
83 99.99
84 8.37
95 2.14
97 1.15
99 4.43
100 1.22
109 2.26
111 1.03
113 3.01
139 4.4
165 1.38

>  <PREDICTED SPECTRUM>  (1999) 
26 28
27 199
28 24
29 271
30 11
31 49
37 21
38 14
39 217
40 54
41 547
42 170
43 329
44 81
45 62
49 33
51 16
53 144
54 274
55 812
56 228
57 438
58 26
66 35
67 412
68 112
69 103
70 68
71 154
77 41
79 126
81 273
82 432
83 999
84 265
85 33
86 15
87 8
95 27
99 195
100 90
101 118
102 35
109 1
113 135
114 24
137 17
140 71
183 96

$$$$

     RDKit          2D

 12 12  0  0  0  0  0  0  0  0999 V2000
   -5.5207    3.1321    0.0000 C   0  0  0  0  0  0  0  0  0  0  0  0
   -4.2216    2.3821    0.0000 C   0  0  0  0  0  0  0  0  0  0  0  0
    3.5726    0.8821    0.0000 C   0  0  0  0  0  0  0  0  0  0  0  0
    3.5731    2.3829    0.0000 C   0  0  0  0  0  0  0  0  0  0  0  0
    2.2731    0.1313    0.0000 C   0  0  0  0  0  0  0  0  0  0  0  0
    2.2740    3.1329    0.0000 C   0  0  0  0  0  0  0  0  0  0  0  0
    0.9740    0.8813    0.0000 C   0  0  0  0  0  0  0  0  0  0  0  0
   -2.9226    3.1321    0.0000 C   0  0  0  0  0  0  0  0  0  0  0  0
    0.9745    2.3821    0.0000 C   0  0  0  0  0  0  0  0  0  0  0  0
   -0.3245    3.1321    0.0000 C   0  0  0  0  0  0  0  0  0  0  0  0
   -0.3245    4.6321    0.0000 O   0  0  0  0  0  0  0  0  0  0  0  0
   -1.6236    2.3821    0.0000 S   0  0  0  0  0  0  0  0  0  0  0  0
  2  1  1  0
  4  3  2  0
  5  3  1  0
  6  4  1  0
  7  5  2  0
  8  2  1  0
  9  6  2  0
  9  7  1  0
 10  9  1  0
 11 10  2  0
 12  8  1  0
 12 10  1  0
M  END
>  <NAME>  (2000) 
S-PROPYL THIOBENZOATE

>  <SYNONYMS>  (2000) 


>  <SPECTRUM TYPE>  (2000) 
MS1

>  <INSTRUMENT TYPE>  (2000) 
EI-B

>  <INSTRUMENT>  (2000) 
HITACHI M-80B

>  <ION MODE>  (2000) 
P

>  <INCHIKEY>  (2000) 
YPACPXJQEYROHD-UHFFFAOYSA-N

>  <FORMULA>  (2000) 
C10H12OS

>  <EXACT MASS>  (2000) 
180.060886004

>  <MW>  (2000) 
180

>  <ID>  (2000) 
JP009093

>  <CONTRIBUTOR>  (2000) 
University of Tokyo Team, {Faculty of Engineering, University of Tokyo

>  <COMMENT>  (2000) 
SMILES=CCCSC(=O)c(c1)cccc1
InChI=InChI=1S/C10H12OS/c1-2-8-12-10(11)9-6-4-3-5-7-9/h3-7H,2,8H2,1H3
computed SMILES=O=C(SCCC)C=1C=CC=CC1
accession=JP009093
date=2016.01.19 (Created 2008.10.21, modified 2011.05.06)
author=SODA AROMATIC CO., LTD.
license=CC BY-NC-SA
exact mass=180.06089
ionization energy=70 eV
ion type=[M]+*
computed spectral entropy=1.5575019873488203
computed normalized entropy=0.5901736085346371
SPLASH=splash10-0a4i-5900000000-44a35b8b0ea75df1cfe6
submitter=submitter = University of Tokyo Team (Faculty of Engineering, University of Tokyo)
MoNA Rating=3.75

>  <NUM PEAKS>  (2000) 
14

>  <MASS SPECTRAL PEAKS>  (2000) 
27 3.15
39 2.62
41 2.65
45 1.59
47 1.28
50 2.95
51 14.63
75 1
76 1.44
77 39.79
78 2.56
105 99.99
106 8.05
180 5.73

>  <PREDICTED SPECTRUM>  (2000) 
39 65
41 18
43 21
50 90
51 238
52 31
63 21
76 36
77 467
78 86
79 4
105 999
106 237
138 68
180 239
181 64
182 51

$$$$

     RDKit          2D

 20 19  0  0  0  0  0  0  0  0999 V2000
    9.7428   10.1250    0.0000 C   0  0  0  0  0  0  0  0  0  0  0  0
   -7.1447    7.8750    0.0000 C   0  0  0  0  0  0  0  0  0  0  0  0
   -0.6495    1.1250    0.0000 C   0  0  0  0  0  0  0  0  0  0  0  0
    8.4437    9.3750    0.0000 C   0  0  0  0  0  0  0  0  0  0  0  0
   -5.8457    7.1250    0.0000 C   0  0  0  0  0  0  0  0  0  0  0  0
   -0.6495    2.6250    0.0000 C   0  0  0  0  0  0  0  0  0  0  0  0
    8.4437    7.8750    0.0000 C   0  0  0  0  0  0  0  0  0  0  0  0
   -4.5466    7.8750    0.0000 C   0  0  0  0  0  0  0  0  0  0  0  0
    0.6495    3.3750    0.0000 C   0  0  0  0  0  0  0  0  0  0  0  0
    7.1447    7.1250    0.0000 C   0  0  0  0  0  0  0  0  0  0  0  0
   -3.2476    7.1250    0.0000 C   0  0  0  0  0  0  0  0  0  0  0  0
    0.6495    4.8750    0.0000 C   0  0  0  0  0  0  0  0  0  0  0  0
    5.8457    7.8750    0.0000 C   0  0  0  0  0  0  0  0  0  0  0  0
   -1.9486    7.8750    0.0000 C   0  0  0  0  0  0  0  0  0  0  0  0
    1.9486    5.6250    0.0000 C   0  0  0  0  0  0  0  0  0  0  0  0
    4.5466    7.1250    0.0000 C   0  0  0  0  0  0  0  0  0  0  0  0
   -0.6495    7.1250    0.0000 C   0  0  0  0  0  0  0  0  0  0  0  0
    1.9486    7.1250    0.0000 C   0  0  0  0  0  0  0  0  0  0  0  0
    3.2476    7.8750    0.0000 O   0  0  0  0  0  0  0  0  0  0  0  0
    0.6495    7.8750    0.0000 O   0  0  0  0  0  0  0  0  0  0  0  0
  4  1  1  0
  5  2  1  0
  6  3  1  0
  7  4  1  0
  8  5  1  0
  9  6  1  0
  7 10  2  0
 11  8  1  0
 12  9  1  0
 13 10  1  0
 11 14  2  0
 15 12  1  0
 16 13  1  0
 17 14  1  0
 18 15  1  0
 19 16  1  0
 19 18  1  0
 20 17  1  0
 20 18  1  0
M  END
>  <NAME>  (2001) 
HEXANAL 2E-HEXENYL 3Z-HEXENYL ACETAL

>  <SYNONYMS>  (2001) 


>  <SPECTRUM TYPE>  (2001) 
MS1

>  <INSTRUMENT TYPE>  (2001) 
EI-B

>  <INSTRUMENT>  (2001) 
HITACHI M-80B

>  <ION MODE>  (2001) 
P

>  <INCHIKEY>  (2001) 
HNIIEWOWRPNMNR-BXHQFMRESA-N

>  <FORMULA>  (2001) 
C18H34O2

>  <EXACT MASS>  (2001) 
282.255880328

>  <MW>  (2001) 
282

>  <ID>  (2001) 
JP009092

>  <CONTRIBUTOR>  (2001) 
University of Tokyo Team, {Faculty of Engineering, University of Tokyo

>  <COMMENT>  (2001) 
SMILES=CCCC=CCOC(CCCCC)OCCC=CCC
InChI=InChI=1S/C18H34O2/c1-4-7-10-13-16-19-18(15-12-9-6-3)20-17-14-11-8-5-2/h7,10-11,14,18H,4-6,8-9,12-13,15-17H2,1-3H3/b10-7-,14-11+
computed SMILES=O(CC=CCCC)C(OCCC=CCC)CCCCC
accession=JP009092
date=2016.01.19 (Created 2008.10.21, modified 2011.05.06)
author=SODA AROMATIC CO., LTD.
license=CC BY-NC-SA
exact mass=282.25588
ionization energy=70 eV
ion type=[M]+*
computed spectral entropy=2.182544444161968
computed normalized entropy=0.6698832949521331
SPLASH=splash10-053r-9000000000-2c06d8b8e530cc5c6247
submitter=submitter = University of Tokyo Team (Faculty of Engineering, University of Tokyo)
MoNA Rating=3.75

>  <NUM PEAKS>  (2001) 
26

>  <MASS SPECTRAL PEAKS>  (2001) 
27 5.22
29 6.54
31 1.21
39 5.38
41 26.29
42 2.48
43 5.29
44 1.06
53 2
54 2.78
55 50.31
56 3.25
57 5.01
67 8.81
68 1.14
69 1.99
71 1.15
81 1.67
82 8.01
83 99.99
84 7.29
99 1.5
101 1.68
113 2.31
139 1.14
183 2.05

>  <PREDICTED SPECTRUM>  (2001) 
27 143
29 198
31 38
37 1
39 226
40 30
41 522
42 135
43 240
44 67
45 88
50 4
51 14
52 0
53 128
54 147
55 723
56 165
57 162
65 38
67 287
68 55
70 64
71 93
73 17
77 12
79 8
81 65
82 304
83 999
84 216
85 3
100 41
101 157
102 10
113 67
183 110

$$$$

     RDKit          2D

 19 18  0  0  0  0  0  0  0  0999 V2000
    4.5466    7.1250    0.0000 C   0  0  0  0  0  0  0  0  0  0  0  0
   -7.1447   13.8750    0.0000 C   0  0  0  0  0  0  0  0  0  0  0  0
  -12.3409    7.8750    0.0000 C   0  0  0  0  0  0  0  0  0  0  0  0
    3.2476    7.8750    0.0000 C   0  0  0  0  0  0  0  0  0  0  0  0
   -7.1447   12.3750    0.0000 C   0  0  0  0  0  0  0  0  0  0  0  0
  -11.0418    7.1250    0.0000 C   0  0  0  0  0  0  0  0  0  0  0  0
    1.9486    7.1250    0.0000 C   0  0  0  0  0  0  0  0  0  0  0  0
   -5.8457   11.6250    0.0000 C   0  0  0  0  0  0  0  0  0  0  0  0
   -9.7428    7.8750    0.0000 C   0  0  0  0  0  0  0  0  0  0  0  0
    0.6495    7.8750    0.0000 C   0  0  0  0  0  0  0  0  0  0  0  0
   -5.8457   10.1250    0.0000 C   0  0  0  0  0  0  0  0  0  0  0  0
   -8.4437    7.1250    0.0000 C   0  0  0  0  0  0  0  0  0  0  0  0
   -0.6495    7.1250    0.0000 C   0  0  0  0  0  0  0  0  0  0  0  0
   -4.5466    9.3750    0.0000 C   0  0  0  0  0  0  0  0  0  0  0  0
   -7.1447    7.8750    0.0000 C   0  0  0  0  0  0  0  0  0  0  0  0
   -1.9486    7.8750    0.0000 C   0  0  0  0  0  0  0  0  0  0  0  0
   -4.5466    7.8750    0.0000 C   0  0  0  0  0  0  0  0  0  0  0  0
   -5.8457    7.1250    0.0000 O   0  0  0  0  0  0  0  0  0  0  0  0
   -3.2476    7.1250    0.0000 O   0  0  0  0  0  0  0  0  0  0  0  0
  4  1  1  0
  5  2  1  0
  6  3  1  0
  7  4  1  0
  8  5  1  0
  9  6  1  0
 10  7  1  0
 11  8  1  0
 12  9  1  0
 10 13  2  0
 14 11  1  0
 15 12  1  0
 16 13  1  0
 17 14  1  0
 18 15  1  0
 18 17  1  0
 19 16  1  0
 19 17  1  0
M  END
>  <NAME>  (2002) 
HEXANAL TRANS-2-HEXENYL PENTYL ACETAL

>  <SYNONYMS>  (2002) 


>  <SPECTRUM TYPE>  (2002) 
MS1

>  <INSTRUMENT TYPE>  (2002) 
EI-B

>  <INSTRUMENT>  (2002) 
HITACHI M-80B

>  <ION MODE>  (2002) 
P

>  <INCHIKEY>  (2002) 
LZISIXHTZISKMZ-JLHYYAGUSA-N

>  <FORMULA>  (2002) 
C17H34O2

>  <EXACT MASS>  (2002) 
270.255880328

>  <MW>  (2002) 
270

>  <ID>  (2002) 
JP009091

>  <CONTRIBUTOR>  (2002) 
University of Tokyo Team, {Faculty of Engineering, University of Tokyo

>  <COMMENT>  (2002) 
SMILES=CCCC=CCOC(CCCCC)OCCCCC
InChI=InChI=1S/C17H34O2/c1-4-7-10-13-16-19-17(14-11-8-5-2)18-15-12-9-6-3/h10,13,17H,4-9,11-12,14-16H2,1-3H3/b13-10+
computed SMILES=O(CC=CCCC)C(OCCCCC)CCCCC
accession=JP009091
date=2016.01.19 (Created 2008.10.21, modified 2011.05.06)
author=SODA AROMATIC CO., LTD.
license=CC BY-NC-SA
exact mass=270.25588
ionization energy=70 eV
ion type=[M]+*
computed spectral entropy=2.5813388747088815
computed normalized entropy=0.7665910585347205
SPLASH=splash10-053u-9000000000-365e9efffdd78054569e
submitter=submitter = University of Tokyo Team (Faculty of Engineering, University of Tokyo)
MoNA Rating=3.75

>  <NUM PEAKS>  (2002) 
29

>  <MASS SPECTRAL PEAKS>  (2002) 
27 7.48
29 11.84
31 1.61
39 5.94
41 26.72
42 6.04
43 33.49
44 1.91
53 1.96
54 6.28
55 41.19
56 3.65
57 14.4
67 5.58
69 2.06
70 1.99
71 27.3
72 1.53
82 5.99
83 99.99
84 7.31
99 1.63
100 1.06
101 11.46
113 1.37
117 2.9
127 1.59
139 3.53
171 5.54

>  <PREDICTED SPECTRUM>  (2002) 
27 218
28 8
29 294
31 94
39 258
40 6
41 555
42 178
43 550
44 72
53 107
54 171
55 786
56 254
57 234
65 38
67 265
70 31
71 436
72 67
81 92
82 192
83 999
84 193
100 120
101 402
102 33
107 9
125 61
171 117

$$$$

     RDKit          2D

 19 18  0  0  0  0  0  0  0  0999 V2000
   -5.8457    4.8750    0.0000 C   0  0  0  0  0  0  0  0  0  0  0  0
    4.5466   13.8750    0.0000 C   0  0  0  0  0  0  0  0  0  0  0  0
    9.7428    7.8750    0.0000 C   0  0  0  0  0  0  0  0  0  0  0  0
   -4.5466    5.6250    0.0000 C   0  0  0  0  0  0  0  0  0  0  0  0
    4.5466   12.3750    0.0000 C   0  0  0  0  0  0  0  0  0  0  0  0
    8.4437    7.1250    0.0000 C   0  0  0  0  0  0  0  0  0  0  0  0
   -4.5466    7.1250    0.0000 C   0  0  0  0  0  0  0  0  0  0  0  0
    3.2476   11.6250    0.0000 C   0  0  0  0  0  0  0  0  0  0  0  0
    7.1447    7.8750    0.0000 C   0  0  0  0  0  0  0  0  0  0  0  0
   -3.2476    7.8750    0.0000 C   0  0  0  0  0  0  0  0  0  0  0  0
    3.2476   10.1250    0.0000 C   0  0  0  0  0  0  0  0  0  0  0  0
    5.8457    7.1250    0.0000 C   0  0  0  0  0  0  0  0  0  0  0  0
   -1.9486    7.1250    0.0000 C   0  0  0  0  0  0  0  0  0  0  0  0
    1.9486    9.3750    0.0000 C   0  0  0  0  0  0  0  0  0  0  0  0
    4.5466    7.8750    0.0000 C   0  0  0  0  0  0  0  0  0  0  0  0
   -0.6495    7.8750    0.0000 C   0  0  0  0  0  0  0  0  0  0  0  0
    1.9486    7.8750    0.0000 C   0  0  0  0  0  0  0  0  0  0  0  0
    3.2476    7.1250    0.0000 O   0  0  0  0  0  0  0  0  0  0  0  0
    0.6495    7.1250    0.0000 O   0  0  0  0  0  0  0  0  0  0  0  0
  4  1  1  0
  5  2  1  0
  6  3  1  0
  7  4  1  0
  8  5  1  0
  9  6  1  0
  7 10  2  0
 11  8  1  0
 12  9  1  0
 13 10  1  0
 14 11  1  0
 15 12  1  0
 16 13  1  0
 17 14  1  0
 18 15  1  0
 18 17  1  0
 19 16  1  0
 19 17  1  0
M  END
>  <NAME>  (2003) 
HEXANAL CIS-3-HEXENYL PENTYL ACETAL

>  <SYNONYMS>  (2003) 


>  <SPECTRUM TYPE>  (2003) 
MS1

>  <INSTRUMENT TYPE>  (2003) 
EI-B

>  <INSTRUMENT>  (2003) 
HITACHI M-80B

>  <ION MODE>  (2003) 
P

>  <INCHIKEY>  (2003) 
ZCGOMMOYYRGVQY-YFHOEESVSA-N

>  <FORMULA>  (2003) 
C17H34O2

>  <EXACT MASS>  (2003) 
270.255880328

>  <MW>  (2003) 
270

>  <ID>  (2003) 
JP009090

>  <CONTRIBUTOR>  (2003) 
University of Tokyo Team, {Faculty of Engineering, University of Tokyo

>  <COMMENT>  (2003) 
SMILES=CCC=CCCOC(CCCCC)OCCCCC
InChI=InChI=1S/C17H34O2/c1-4-7-10-13-16-19-17(14-11-8-5-2)18-15-12-9-6-3/h7,10,17H,4-6,8-9,11-16H2,1-3H3/b10-7-
computed SMILES=O(CCC=CCC)C(OCCCCC)CCCCC
accession=JP009090
date=2016.01.19 (Created 2008.10.21, modified 2011.05.06)
author=SODA AROMATIC CO., LTD.
license=CC BY-NC-SA
exact mass=270.25588
ionization energy=70 eV
ion type=[M]+*
computed spectral entropy=2.711661272384501
computed normalized entropy=0.7755342222818461
SPLASH=splash10-053u-9100000000-943389872f2f1e7374e7
submitter=submitter = University of Tokyo Team (Faculty of Engineering, University of Tokyo)
MoNA Rating=3.75

>  <NUM PEAKS>  (2003) 
33

>  <MASS SPECTRAL PEAKS>  (2003) 
27 8.3
29 17.56
31 3.25
39 8.08
41 36.38
42 9.3
43 48.63
44 1.95
45 1.17
53 2.81
54 2.28
55 61.39
56 4.67
57 11.93
67 11.1
68 1.16
69 2.63
70 2.46
71 25.07
72 1.66
81 1.48
82 11.74
83 99.99
84 6.16
99 1.29
101 26.58
102 1.42
113 1.34
117 5.54
125 1.45
171 26.21
172 2.77
183 1.86

>  <PREDICTED SPECTRUM>  (2003) 
27 189
28 10
29 299
31 57
39 237
41 503
42 203
43 487
44 73
51 4
53 96
54 142
55 676
56 230
57 22
59 20
65 58
67 238
68 17
70 114
71 527
72 55
81 27
82 261
83 999
84 171
100 108
101 535
102 71
170 30
171 373
172 78
183 62
199 1

$$$$

     RDKit          2D

 17 17  0  0  0  0  0  0  0  0999 V2000
    4.8721    3.8829    0.0000 C   0  0  0  0  0  0  0  0  0  0  0  0
   -0.3240   -0.6171    0.0000 C   0  0  0  0  0  0  0  0  0  0  0  0
    3.5731    3.1329    0.0000 C   0  0  0  0  0  0  0  0  0  0  0  0
   -0.3240    0.8829    0.0000 C   0  0  0  0  0  0  0  0  0  0  0  0
    2.2740    3.8829    0.0000 C   0  0  0  0  0  0  0  0  0  0  0  0
   -8.1183    5.3829    0.0000 C   0  0  0  0  0  0  0  0  0  0  0  0
    0.9750    3.1329    0.0000 C   0  0  0  0  0  0  0  0  0  0  0  0
   -8.1187    3.8821    0.0000 C   0  0  0  0  0  0  0  0  0  0  0  0
   -6.8187    6.1337    0.0000 C   0  0  0  0  0  0  0  0  0  0  0  0
   -6.8197    3.1321    0.0000 C   0  0  0  0  0  0  0  0  0  0  0  0
   -5.5197    5.3837    0.0000 C   0  0  0  0  0  0  0  0  0  0  0  0
   -0.3240    3.8829    0.0000 C   0  0  0  0  0  0  0  0  0  0  0  0
   -4.2212    3.1329    0.0000 C   0  0  0  0  0  0  0  0  0  0  0  0
   -5.5202    3.8829    0.0000 C   0  0  0  0  0  0  0  0  0  0  0  0
   -1.6231    3.1329    0.0000 C   0  0  0  0  0  0  0  0  0  0  0  0
   -1.6231    1.6329    0.0000 O   0  0  0  0  0  0  0  0  0  0  0  0
   -2.9221    3.8829    0.0000 O   0  0  0  0  0  0  0  0  0  0  0  0
  3  1  1  0
  4  2  1  0
  5  3  1  0
  7  5  1  0
  8  6  2  0
  9  6  1  0
 10  8  1  0
 11  9  2  0
 12  7  1  0
 14 10  2  0
 14 11  1  0
 14 13  1  0
 15 12  1  0
 16  4  1  0
 16 15  1  0
 17 13  1  0
 17 15  1  0
M  END
>  <NAME>  (2004) 
HEXANAL BENZYL ETHYL ACETAL

>  <SYNONYMS>  (2004) 


>  <SPECTRUM TYPE>  (2004) 
MS1

>  <INSTRUMENT TYPE>  (2004) 
EI-B

>  <INSTRUMENT>  (2004) 
HITACHI M-80B

>  <ION MODE>  (2004) 
P

>  <INCHIKEY>  (2004) 
ZESDQEHIQRRQEU-UHFFFAOYSA-N

>  <FORMULA>  (2004) 
C15H24O2

>  <EXACT MASS>  (2004) 
236.177630008

>  <MW>  (2004) 
236

>  <ID>  (2004) 
JP009089

>  <CONTRIBUTOR>  (2004) 
University of Tokyo Team, {Faculty of Engineering, University of Tokyo

>  <COMMENT>  (2004) 
SMILES=CCCCCC(OCC)OCc(c1)cccc1
InChI=InChI=1S/C15H24O2/c1-3-5-7-12-15(16-4-2)17-13-14-10-8-6-9-11-14/h6,8-11,15H,3-5,7,12-13H2,1-2H3
computed SMILES=O(CC=1C=CC=CC1)C(OCC)CCCCC
accession=JP009089
date=2016.01.19 (Created 2008.10.21, modified 2011.05.06)
ionization energy=70 eV
author=SODA AROMATIC CO., LTD.
license=CC BY-NC-SA
exact mass=236.17763
ion type=[M]+*
computed spectral entropy=1.792613190482836
computed normalized entropy=0.5983889836577976
SPLASH=splash10-0006-9000000000-458ff48878cbb9690f1b
submitter=submitter = University of Tokyo Team (Faculty of Engineering, University of Tokyo)
MoNA Rating=3.75

>  <NUM PEAKS>  (2004) 
20

>  <MASS SPECTRAL PEAKS>  (2004) 
27 3.1
29 5.27
39 2.05
41 3.93
43 3.58
51 1.24
55 5.91
57 3.47
65 5.12
77 1.62
79 1.23
83 5.58
85 1.33
89 1.09
90 1.44
91 99.99
92 10.11
107 1.56
129 4.54
165 6.37

>  <PREDICTED SPECTRUM>  (2004) 
26 20
27 111
29 132
31 29
38 16
39 148
40 48
41 213
42 77
43 193
44 13
45 121
47 25
50 16
51 62
52 32
53 38
54 1
55 181
56 51
57 177
63 24
64 13
65 215
66 59
67 7
69 60
75 96
76 15
77 49
78 0
79 56
82 6
83 162
84 32
89 25
90 51
91 999
92 326
93 19
101 75
107 65
121 93
129 67
135 4
148 4
149 1
163 30
164 25
165 174
166 45
191 17
236 41

$$$$

     RDKit          2D

 14 13  0  0  0  0  0  0  0  0999 V2000
    3.8971    6.7500    0.0000 C   0  0  0  0  0  0  0  0  0  0  0  0
  -11.6913    6.7500    0.0000 C   0  0  0  0  0  0  0  0  0  0  0  0
   -3.8971    5.2500    0.0000 C   0  0  0  0  0  0  0  0  0  0  0  0
    2.5981    7.5000    0.0000 C   0  0  0  0  0  0  0  0  0  0  0  0
  -10.3923    7.5000    0.0000 C   0  0  0  0  0  0  0  0  0  0  0  0
    1.2990    6.7500    0.0000 C   0  0  0  0  0  0  0  0  0  0  0  0
   -9.0933    6.7500    0.0000 C   0  0  0  0  0  0  0  0  0  0  0  0
    0.0000    7.5000    0.0000 C   0  0  0  0  0  0  0  0  0  0  0  0
   -7.7942    7.5000    0.0000 C   0  0  0  0  0  0  0  0  0  0  0  0
   -1.2990    6.7500    0.0000 C   0  0  0  0  0  0  0  0  0  0  0  0
   -6.4952    6.7500    0.0000 C   0  0  0  0  0  0  0  0  0  0  0  0
   -3.8971    6.7500    0.0000 C   0  0  0  0  0  0  0  0  0  0  0  0
   -2.5981    7.5000    0.0000 O   0  0  0  0  0  0  0  0  0  0  0  0
   -5.1962    7.5000    0.0000 O   0  0  0  0  0  0  0  0  0  0  0  0
  4  1  1  0
  5  2  1  0
  6  4  1  0
  7  5  1  0
  8  6  1  0
  9  7  1  0
 10  8  1  0
 11  9  1  0
 12  3  1  0
 13 10  1  0
 13 12  1  0
 14 11  1  0
 14 12  1  0
M  END
>  <NAME>  (2005) 
ACETALDEHYDE DIPENTYL ACETAL

>  <SYNONYMS>  (2005) 


>  <SPECTRUM TYPE>  (2005) 
MS1

>  <INSTRUMENT TYPE>  (2005) 
EI-B

>  <INSTRUMENT>  (2005) 
HITACHI M-80B

>  <ION MODE>  (2005) 
P

>  <INCHIKEY>  (2005) 
MIAGHUUTGZIIJW-UHFFFAOYSA-N

>  <FORMULA>  (2005) 
C12H26O2

>  <EXACT MASS>  (2005) 
202.193280072

>  <MW>  (2005) 
202

>  <ID>  (2005) 
JP009088

>  <CONTRIBUTOR>  (2005) 
University of Tokyo Team, {Faculty of Engineering, University of Tokyo

>  <COMMENT>  (2005) 
SMILES=CCCCCOC(C)OCCCCC
InChI=InChI=1S/C12H26O2/c1-4-6-8-10-13-12(3)14-11-9-7-5-2/h12H,4-11H2,1-3H3
computed SMILES=O(CCCCC)C(OCCCCC)C
accession=JP009088
date=2016.01.19 (Created 2008.10.21, modified 2011.05.06)
author=SODA AROMATIC CO., LTD.
license=CC BY-NC-SA
exact mass=202.19328
ionization energy=70 eV
ion type=[M]+*
computed spectral entropy=2.476685251014477
computed normalized entropy=0.769425534181918
SPLASH=splash10-00r6-9200000000-3abe379da7e0a05f5b20
submitter=submitter = University of Tokyo Team (Faculty of Engineering, University of Tokyo)
MoNA Rating=3.75

>  <NUM PEAKS>  (2005) 
25

>  <MASS SPECTRAL PEAKS>  (2005) 
27 13.58
29 20.76
31 6.61
39 7.49
41 26.14
42 19.66
43 79.32
44 4.72
45 31.54
53 1.15
55 17.08
56 1.92
57 2.1
58 1.13
61 1.23
69 1.91
70 9.04
71 99.99
72 5.76
97 2.24
99 4.02
115 66.29
116 5.39
117 3.48
187 8.62

>  <PREDICTED SPECTRUM>  (2005) 
14 17
15 53
26 72
27 327
28 112
29 383
31 202
38 21
39 292
40 100
41 598
42 498
43 956
44 301
45 521
46 45
53 125
54 26
55 363
56 72
57 148
58 76
59 17
65 17
68 13
69 203
70 350
71 999
72 283
73 72
85 27
86 12
87 45
88 17
89 63
99 8
100 8
101 25
103 11
114 57
115 731
116 94
117 34
129 14
130 10
143 19
145 110
185 108
186 18
187 407
188 53
189 8

$$$$

     RDKit          2D

 16 15  0  0  0  0  0  0  0  0999 V2000
   -4.8714    5.0625    0.0000 C   0  0  0  0  0  0  0  0  0  0  0  0
    9.4180    7.3125    0.0000 C   0  0  0  0  0  0  0  0  0  0  0  0
    4.2219   11.8125    0.0000 C   0  0  0  0  0  0  0  0  0  0  0  0
   -3.5724    5.8125    0.0000 C   0  0  0  0  0  0  0  0  0  0  0  0
    8.1190    8.0625    0.0000 C   0  0  0  0  0  0  0  0  0  0  0  0
    4.2219   10.3125    0.0000 C   0  0  0  0  0  0  0  0  0  0  0  0
   -3.5724    7.3125    0.0000 C   0  0  0  0  0  0  0  0  0  0  0  0
    6.8200    7.3125    0.0000 C   0  0  0  0  0  0  0  0  0  0  0  0
   -2.2733    8.0625    0.0000 C   0  0  0  0  0  0  0  0  0  0  0  0
    5.5209    8.0625    0.0000 C   0  0  0  0  0  0  0  0  0  0  0  0
   -0.9743    7.3125    0.0000 C   0  0  0  0  0  0  0  0  0  0  0  0
    4.2219    7.3125    0.0000 C   0  0  0  0  0  0  0  0  0  0  0  0
    0.3248    8.0625    0.0000 C   0  0  0  0  0  0  0  0  0  0  0  0
    2.9228    8.0625    0.0000 C   0  0  0  0  0  0  0  0  0  0  0  0
    2.9228    9.5625    0.0000 O   0  0  0  0  0  0  0  0  0  0  0  0
    1.6238    7.3125    0.0000 O   0  0  0  0  0  0  0  0  0  0  0  0
  4  1  1  0
  5  2  1  0
  6  3  1  0
  7  4  1  0
  8  5  1  0
  7  9  2  0
 10  8  1  0
 11  9  1  0
 12 10  1  0
 13 11  1  0
 14 12  1  0
 15  6  1  0
 15 14  1  0
 16 13  1  0
 16 14  1  0
M  END
>  <NAME>  (2006) 
HEXANAL ETHYL CIS-3-HEXENYL ACETAL

>  <SYNONYMS>  (2006) 


>  <SPECTRUM TYPE>  (2006) 
MS1

>  <INSTRUMENT TYPE>  (2006) 
EI-B

>  <INSTRUMENT>  (2006) 
HITACHI M-80B

>  <ION MODE>  (2006) 
P

>  <INCHIKEY>  (2006) 
PNXNUQGJDZBEHV-CLFYSBASSA-N

>  <FORMULA>  (2006) 
C14H28O2

>  <EXACT MASS>  (2006) 
228.208930136

>  <MW>  (2006) 
228

>  <ID>  (2006) 
JP009087

>  <CONTRIBUTOR>  (2006) 
University of Tokyo Team, {Faculty of Engineering, University of Tokyo

>  <COMMENT>  (2006) 
SMILES=CCC=CCCOC(OCC)CCCCC
InChI=InChI=1S/C14H28O2/c1-4-7-9-11-13-16-14(15-6-3)12-10-8-5-2/h7,9,14H,4-6,8,10-13H2,1-3H3/b9-7-
computed SMILES=O(CC)C(OCCC=CCC)CCCCC
accession=JP009087
date=2016.01.19 (Created 2008.10.21, modified 2011.05.06)
author=SODA AROMATIC CO., LTD.
license=CC BY-NC-SA
exact mass=228.20893
ionization energy=70 eV
ion type=[M]+*
computed spectral entropy=2.578962093670592
computed normalized entropy=0.7313381815806561
SPLASH=splash10-057i-9200000000-2970be37c01a7476c32b
submitter=submitter = University of Tokyo Team (Faculty of Engineering, University of Tokyo)
MoNA Rating=3.75

>  <NUM PEAKS>  (2006) 
34

>  <MASS SPECTRAL PEAKS>  (2006) 
27 11.74
29 19.66
31 3.61
39 9.15
41 34.48
42 3.59
43 9.94
44 2.85
45 2.34
47 3.22
53 3.47
54 2.18
55 73.24
56 5.14
57 9.37
58 1.18
59 3.85
67 11.45
68 1.07
69 1.85
71 1.45
72 1.3
75 9.86
81 1.62
82 7.68
83 99.99
84 7.29
85 3.31
101 2.1
129 76.28
130 7.04
145 1.22
157 1.2
183 1.14

>  <PREDICTED SPECTRUM>  (2006) 
26 12
27 220
28 43
29 331
31 105
33 9
39 264
40 44
41 517
42 137
43 306
44 122
45 4
47 210
53 114
54 168
55 690
56 156
57 407
59 183
60 24
67 338
68 61
69 25
71 72
72 77
73 19
75 255
81 43
82 397
83 999
84 169
85 94
101 117
127 7
129 904
130 237
131 12
157 34

$$$$

     RDKit          2D

 21 21  0  0  0  0  0  0  0  0999 V2000
   -9.7428    3.6950    0.0000 C   0  0  0  0  0  0  0  0  0  0  0  0
    1.9486   10.4450    0.0000 C   0  0  0  0  0  0  0  0  0  0  0  0
   -8.4437    4.4450    0.0000 C   0  0  0  0  0  0  0  0  0  0  0  0
    1.9486    8.9450    0.0000 C   0  0  0  0  0  0  0  0  0  0  0  0
   -7.1447    3.6950    0.0000 C   0  0  0  0  0  0  0  0  0  0  0  0
    0.6495    8.1950    0.0000 C   0  0  0  0  0  0  0  0  0  0  0  0
   -5.8457    4.4450    0.0000 C   0  0  0  0  0  0  0  0  0  0  0  0
    5.8457    2.1950    0.0000 C   0  0  0  0  0  0  0  0  0  0  0  0
    0.6495    6.6950    0.0000 C   0  0  0  0  0  0  0  0  0  0  0  0
    5.8462    3.6958    0.0000 C   0  0  0  0  0  0  0  0  0  0  0  0
    4.5462    1.4442    0.0000 C   0  0  0  0  0  0  0  0  0  0  0  0
   -4.5466    3.6950    0.0000 C   0  0  0  0  0  0  0  0  0  0  0  0
    4.5471    4.4458    0.0000 C   0  0  0  0  0  0  0  0  0  0  0  0
    3.2471    2.1942    0.0000 C   0  0  0  0  0  0  0  0  0  0  0  0
   -0.6495    5.9450    0.0000 C   0  0  0  0  0  0  0  0  0  0  0  0
   -3.2476    4.4450    0.0000 C   0  0  0  0  0  0  0  0  0  0  0  0
    1.9486    4.4450    0.0000 C   0  0  0  0  0  0  0  0  0  0  0  0
    3.2476    3.6950    0.0000 C   0  0  0  0  0  0  0  0  0  0  0  0
   -0.6495    4.4450    0.0000 C   0  0  0  0  0  0  0  0  0  0  0  0
   -1.9486    3.6950    0.0000 O   0  0  0  0  0  0  0  0  0  0  0  0
    0.6495    3.6950    0.0000 O   0  0  0  0  0  0  0  0  0  0  0  0
  3  1  1  0
  4  2  1  0
  5  3  1  0
  6  4  1  0
  7  5  1  0
  9  6  1  0
 10  8  2  0
 11  8  1  0
 12  7  1  0
 13 10  1  0
 14 11  2  0
 15  9  1  0
 16 12  1  0
 18 13  2  0
 18 14  1  0
 18 17  1  0
 19 15  1  0
 20 16  1  0
 20 19  1  0
 21 17  1  0
 21 19  1  0
M  END
>  <NAME>  (2007) 
HEXANAL BENZYL HEXYL ACETAL

>  <SYNONYMS>  (2007) 


>  <SPECTRUM TYPE>  (2007) 
MS1

>  <INSTRUMENT TYPE>  (2007) 
EI-B

>  <INSTRUMENT>  (2007) 
HITACHI M-80B

>  <ION MODE>  (2007) 
P

>  <INCHIKEY>  (2007) 
VTDFABSNRXBZMU-UHFFFAOYSA-N

>  <FORMULA>  (2007) 
C19H32O2

>  <EXACT MASS>  (2007) 
292.240230264

>  <MW>  (2007) 
292

>  <ID>  (2007) 
JP009086

>  <CONTRIBUTOR>  (2007) 
University of Tokyo Team, {Faculty of Engineering, University of Tokyo

>  <COMMENT>  (2007) 
SMILES=CCCCCCOC(CCCCC)OCc(c1)cccc1
InChI=InChI=1S/C19H32O2/c1-3-5-7-12-16-20-19(15-9-6-4-2)21-17-18-13-10-8-11-14-18/h8,10-11,13-14,19H,3-7,9,12,15-17H2,1-2H3
computed SMILES=O(CC=1C=CC=CC1)C(OCCCCCC)CCCCC
accession=JP009086
date=2016.01.19 (Created 2008.10.21, modified 2011.05.06)
author=SODA AROMATIC CO., LTD.
license=CC BY-NC-SA
exact mass=292.24023
ionization energy=70 eV
ion type=[M]+*
computed spectral entropy=1.875038306068144
computed normalized entropy=0.6066038672587548
SPLASH=splash10-0006-9000000000-0436fd6dd8c45fa06447
submitter=submitter = University of Tokyo Team (Faculty of Engineering, University of Tokyo)
MoNA Rating=3.75

>  <NUM PEAKS>  (2007) 
22

>  <MASS SPECTRAL PEAKS>  (2007) 
27 2.55
29 3.31
39 2.06
41 7.5
42 1.67
43 15.83
55 3.76
56 1.91
57 5.36
65 2.69
77 1.35
79 1.87
82 1.45
83 4.73
85 2.19
90 1.06
91 99.99
92 10.14
101 2.12
107 2.15
108 1.51
221 2.27

>  <PREDICTED SPECTRUM>  (2007) 
26 10
27 152
28 32
29 193
31 1
38 9
39 179
40 52
41 266
42 129
43 391
44 35
45 36
47 11
50 21
51 63
52 29
53 36
54 0
55 241
56 106
57 134
63 56
64 22
65 221
66 26
69 64
70 20
71 32
75 1
77 75
78 35
79 60
81 24
82 46
83 216
84 45
85 235
86 70
89 71
90 99
91 999
92 331
93 15
100 5
101 113
107 116
108 53
109 32
113 38
134 14
163 2
190 1
191 29
192 13
221 60
292 3

$$$$

     RDKit          2D

 20 19  0  0  0  0  0  0  0  0999 V2000
    9.7428   10.1250    0.0000 C   0  0  0  0  0  0  0  0  0  0  0  0
   -7.1447    7.8750    0.0000 C   0  0  0  0  0  0  0  0  0  0  0  0
   -0.6495    1.1250    0.0000 C   0  0  0  0  0  0  0  0  0  0  0  0
    8.4437    9.3750    0.0000 C   0  0  0  0  0  0  0  0  0  0  0  0
   -5.8457    7.1250    0.0000 C   0  0  0  0  0  0  0  0  0  0  0  0
   -0.6495    2.6250    0.0000 C   0  0  0  0  0  0  0  0  0  0  0  0
    8.4437    7.8750    0.0000 C   0  0  0  0  0  0  0  0  0  0  0  0
   -4.5466    7.8750    0.0000 C   0  0  0  0  0  0  0  0  0  0  0  0
    0.6495    3.3750    0.0000 C   0  0  0  0  0  0  0  0  0  0  0  0
    7.1447    7.1250    0.0000 C   0  0  0  0  0  0  0  0  0  0  0  0
   -3.2476    7.1250    0.0000 C   0  0  0  0  0  0  0  0  0  0  0  0
    0.6495    4.8750    0.0000 C   0  0  0  0  0  0  0  0  0  0  0  0
    5.8457    7.8750    0.0000 C   0  0  0  0  0  0  0  0  0  0  0  0
   -1.9486    7.8750    0.0000 C   0  0  0  0  0  0  0  0  0  0  0  0
    1.9486    5.6250    0.0000 C   0  0  0  0  0  0  0  0  0  0  0  0
    4.5466    7.1250    0.0000 C   0  0  0  0  0  0  0  0  0  0  0  0
   -0.6495    7.1250    0.0000 C   0  0  0  0  0  0  0  0  0  0  0  0
    1.9486    7.1250    0.0000 C   0  0  0  0  0  0  0  0  0  0  0  0
    3.2476    7.8750    0.0000 O   0  0  0  0  0  0  0  0  0  0  0  0
    0.6495    7.8750    0.0000 O   0  0  0  0  0  0  0  0  0  0  0  0
  4  1  1  0
  5  2  1  0
  6  3  1  0
  7  4  1  0
  8  5  1  0
  9  6  1  0
  7 10  2  0
 11  8  1  0
 12  9  1  0
 13 10  1  0
 14 11  1  0
 15 12  1  0
 16 13  1  0
 17 14  1  0
 18 15  1  0
 19 16  1  0
 19 18  1  0
 20 17  1  0
 20 18  1  0
M  END
>  <NAME>  (2008) 
HEXANAL CIS-3-HEXENYL HEXYL ACETAL

>  <SYNONYMS>  (2008) 


>  <SPECTRUM TYPE>  (2008) 
MS1

>  <INSTRUMENT TYPE>  (2008) 
EI-B

>  <INSTRUMENT>  (2008) 
HITACHI M-80B

>  <ION MODE>  (2008) 
P

>  <INCHIKEY>  (2008) 
ZSNIHKPCTYBURZ-YFHOEESVSA-N

>  <FORMULA>  (2008) 
C18H36O2

>  <EXACT MASS>  (2008) 
284.271530392

>  <MW>  (2008) 
284

>  <ID>  (2008) 
JP009085

>  <CONTRIBUTOR>  (2008) 
University of Tokyo Team, {Faculty of Engineering, University of Tokyo

>  <COMMENT>  (2008) 
SMILES=CCCCCCOC(CCCCC)OCCC=CCC
InChI=InChI=1S/C18H36O2/c1-4-7-10-13-16-19-18(15-12-9-6-3)20-17-14-11-8-5-2/h7,10,18H,4-6,8-9,11-17H2,1-3H3/b10-7-
computed SMILES=O(CCC=CCC)C(OCCCCCC)CCCCC
author=SODA AROMATIC CO., LTD.
accession=JP009085
date=2016.01.19 (Created 2008.10.21, modified 2011.05.06)
license=CC BY-NC-SA
exact mass=284.27153
ionization energy=70 eV
ion type=[M]+*
computed spectral entropy=2.775321022061503
computed normalized entropy=0.7744680772517968
SPLASH=splash10-053u-9100000000-75e691bbe9b9ca1513f5
submitter=submitter = University of Tokyo Team (Faculty of Engineering, University of Tokyo)
MoNA Rating=3.75

>  <NUM PEAKS>  (2008) 
36

>  <MASS SPECTRAL PEAKS>  (2008) 
27 8.94
29 13.23
31 3.23
39 8.23
41 38.58
42 8.69
43 62.78
44 2.25
53 3.02
54 2.45
55 58.97
56 11.2
57 16.8
58 1.18
67 12.29
68 1.05
69 3.32
70 1.44
71 2.91
81 1.46
82 14.14
83 99.99
84 7.77
85 28.35
86 1.7
100 1.12
101 27.26
102 1.53
113 2.28
117 1.78
125 1.52
131 2.84
183 2.19
184 1.26
185 25.44
186 3.38

>  <PREDICTED SPECTRUM>  (2008) 
27 206
28 7
29 343
31 65
39 279
40 14
41 565
42 198
43 531
44 80
45 58
47 21
51 21
53 89
54 154
55 717
56 283
57 317
65 38
67 264
70 30
77 12
79 9
81 47
82 272
83 999
84 212
85 494
86 137
97 6
101 550
102 34
103 22
115 36
116 21
117 13
118 6
121 48
183 83
184 120
185 384
186 56

$$$$

     RDKit          2D

 16 15  0  0  0  0  0  0  0  0999 V2000
    3.8971    6.7500    0.0000 C   0  0  0  0  0  0  0  0  0  0  0  0
  -11.6913    6.7500    0.0000 C   0  0  0  0  0  0  0  0  0  0  0  0
   -6.4952   11.2500    0.0000 C   0  0  0  0  0  0  0  0  0  0  0  0
    2.5981    7.5000    0.0000 C   0  0  0  0  0  0  0  0  0  0  0  0
  -10.3923    7.5000    0.0000 C   0  0  0  0  0  0  0  0  0  0  0  0
   -6.4952    9.7500    0.0000 C   0  0  0  0  0  0  0  0  0  0  0  0
    1.2990    6.7500    0.0000 C   0  0  0  0  0  0  0  0  0  0  0  0
   -9.0933    6.7500    0.0000 C   0  0  0  0  0  0  0  0  0  0  0  0
    0.0000    7.5000    0.0000 C   0  0  0  0  0  0  0  0  0  0  0  0
   -7.7942    7.5000    0.0000 C   0  0  0  0  0  0  0  0  0  0  0  0
   -1.2990    6.7500    0.0000 C   0  0  0  0  0  0  0  0  0  0  0  0
   -6.4952    6.7500    0.0000 C   0  0  0  0  0  0  0  0  0  0  0  0
   -2.5981    7.5000    0.0000 C   0  0  0  0  0  0  0  0  0  0  0  0
   -5.1962    7.5000    0.0000 C   0  0  0  0  0  0  0  0  0  0  0  0
   -5.1962    9.0000    0.0000 O   0  0  0  0  0  0  0  0  0  0  0  0
   -3.8971    6.7500    0.0000 O   0  0  0  0  0  0  0  0  0  0  0  0
  4  1  1  0
  5  2  1  0
  6  3  1  0
  7  4  1  0
  8  5  1  0
  9  7  1  0
 10  8  1  0
  9 11  2  0
 12 10  1  0
 13 11  1  0
 14 12  1  0
 15  6  1  0
 15 14  1  0
 16 13  1  0
 16 14  1  0
M  END
>  <NAME>  (2009) 
HEXANAL ETHYL TRANS-2-HEXENYL ACETAL

>  <SYNONYMS>  (2009) 


>  <SPECTRUM TYPE>  (2009) 
MS1

>  <INSTRUMENT TYPE>  (2009) 
EI-B

>  <INSTRUMENT>  (2009) 
HITACHI M-80B

>  <ION MODE>  (2009) 
P

>  <INCHIKEY>  (2009) 
WFWMTYHFABQEGD-PKNBQFBNSA-N

>  <FORMULA>  (2009) 
C14H28O2

>  <EXACT MASS>  (2009) 
228.208930136

>  <MW>  (2009) 
228

>  <ID>  (2009) 
JP009084

>  <CONTRIBUTOR>  (2009) 
University of Tokyo Team, {Faculty of Engineering, University of Tokyo

>  <COMMENT>  (2009) 
SMILES=CCCC=CCOC(OCC)CCCCC
InChI=InChI=1S/C14H28O2/c1-4-7-9-11-13-16-14(15-6-3)12-10-8-5-2/h9,11,14H,4-8,10,12-13H2,1-3H3/b11-9+
computed SMILES=O(CC=CCCC)C(OCC)CCCCC
accession=JP009084
date=2016.01.19 (Created 2008.10.21, modified 2011.05.06)
author=SODA AROMATIC CO., LTD.
license=CC BY-NC-SA
exact mass=228.20893
ionization energy=70 eV
ion type=[M]+*
computed spectral entropy=2.7982059605486342
computed normalized entropy=0.7935110267414346
SPLASH=splash10-003r-9000000000-ffb6e79eae319b221e42
submitter=submitter = University of Tokyo Team (Faculty of Engineering, University of Tokyo)
MoNA Rating=3.75

>  <NUM PEAKS>  (2009) 
34

>  <MASS SPECTRAL PEAKS>  (2009) 
27 12.93
29 17.7
31 3.15
39 9.68
41 34.67
42 4.57
43 19.22
44 3.57
45 2
47 7.19
53 2.83
54 8.77
55 56.04
56 4.02
57 11.49
58 1.09
59 2.33
67 16.08
69 1.56
71 3.45
72 1.41
73 1.19
75 12.42
81 1.77
82 20.52
83 99.99
84 7.42
85 6.8
99 6.46
101 1.11
129 23.39
130 1.68
139 2.77
157 1.59

>  <PREDICTED SPECTRUM>  (2009) 
26 31
27 254
28 60
29 346
30 32
31 117
39 281
40 63
41 582
42 148
43 373
44 101
45 49
47 128
51 26
53 158
54 190
55 814
56 212
57 518
59 120
60 22
65 10
66 13
67 273
68 32
69 134
71 121
72 25
73 37
75 258
77 37
81 143
82 279
83 999
84 176
85 243
86 20
87 54
97 34
99 131
100 46
101 190
102 56
111 98
127 73
128 34
129 637
130 163
146 35
183 9
228 16

$$$$

     RDKit          2D

 18 17  0  0  0  0  0  0  0  0999 V2000
   -7.1447    1.8750    0.0000 C   0  0  0  0  0  0  0  0  0  0  0  0
    3.2476    7.8750    0.0000 C   0  0  0  0  0  0  0  0  0  0  0  0
  -12.3409    7.8750    0.0000 C   0  0  0  0  0  0  0  0  0  0  0  0
   -7.1447    3.3750    0.0000 C   0  0  0  0  0  0  0  0  0  0  0  0
    1.9486    8.6250    0.0000 C   0  0  0  0  0  0  0  0  0  0  0  0
  -11.0418    8.6250    0.0000 C   0  0  0  0  0  0  0  0  0  0  0  0
   -5.8457    4.1250    0.0000 C   0  0  0  0  0  0  0  0  0  0  0  0
    0.6495    7.8750    0.0000 C   0  0  0  0  0  0  0  0  0  0  0  0
   -9.7428    7.8750    0.0000 C   0  0  0  0  0  0  0  0  0  0  0  0
   -5.8457    5.6250    0.0000 C   0  0  0  0  0  0  0  0  0  0  0  0
   -0.6495    8.6250    0.0000 C   0  0  0  0  0  0  0  0  0  0  0  0
   -8.4437    8.6250    0.0000 C   0  0  0  0  0  0  0  0  0  0  0  0
   -4.5466    6.3750    0.0000 C   0  0  0  0  0  0  0  0  0  0  0  0
   -1.9486    7.8750    0.0000 C   0  0  0  0  0  0  0  0  0  0  0  0
   -7.1447    7.8750    0.0000 C   0  0  0  0  0  0  0  0  0  0  0  0
   -4.5466    7.8750    0.0000 C   0  0  0  0  0  0  0  0  0  0  0  0
   -3.2476    8.6250    0.0000 O   0  0  0  0  0  0  0  0  0  0  0  0
   -5.8457    8.6250    0.0000 O   0  0  0  0  0  0  0  0  0  0  0  0
  4  1  1  0
  5  2  1  0
  6  3  1  0
  7  4  1  0
  8  5  1  0
  9  6  1  0
 10  7  1  0
 11  8  1  0
 12  9  1  0
 13 10  1  0
 14 11  1  0
 15 12  1  0
 16 13  1  0
 17 14  1  0
 17 16  1  0
 18 15  1  0
 18 16  1  0
M  END
>  <NAME>  (2010) 
HEXANAL DIPENTYL ACETAL

>  <SYNONYMS>  (2010) 


>  <SPECTRUM TYPE>  (2010) 
MS1

>  <INSTRUMENT TYPE>  (2010) 
EI-B

>  <INSTRUMENT>  (2010) 
HITACHI M-80B

>  <ION MODE>  (2010) 
P

>  <INCHIKEY>  (2010) 
MXIMWAJQWMYBAJ-UHFFFAOYSA-N

>  <FORMULA>  (2010) 
C16H34O2

>  <EXACT MASS>  (2010) 
258.255880328

>  <MW>  (2010) 
258

>  <ID>  (2010) 
JP009083

>  <CONTRIBUTOR>  (2010) 
University of Tokyo Team, {Faculty of Engineering, University of Tokyo

>  <COMMENT>  (2010) 
SMILES=CCCCCOC(CCCCC)OCCCCC
InChI=InChI=1S/C16H34O2/c1-4-7-10-13-16(17-14-11-8-5-2)18-15-12-9-6-3/h16H,4-15H2,1-3H3
computed SMILES=O(CCCCC)C(OCCCCC)CCCCC
accession=JP009083
date=2016.01.19 (Created 2008.10.21, modified 2011.05.06)
author=SODA AROMATIC CO., LTD.
license=CC BY-NC-SA
exact mass=258.25588
ionization energy=70 eV
ion type=[M]+*
computed spectral entropy=2.6039737562432044
computed normalized entropy=0.765605010248082
SPLASH=splash10-00dl-9200000000-ab031aa73eeb58d79349
submitter=submitter = University of Tokyo Team (Faculty of Engineering, University of Tokyo)
MoNA Rating=3.75

>  <NUM PEAKS>  (2010) 
30

>  <MASS SPECTRAL PEAKS>  (2010) 
27 7.74
28 1.33
29 21.94
31 2.33
39 4.04
40 1.13
41 23.75
42 11.62
43 78.89
44 3.91
45 1.22
53 1.07
55 19.43
56 2.43
57 4.94
69 2.55
70 3.12
71 99.99
72 4.35
81 1.11
83 27.82
84 1.56
99 2.1
101 23.35
102 1.56
117 17.57
171 33.89
172 3.45
187 22.53
188 2.4

>  <PREDICTED SPECTRUM>  (2010) 
27 268
28 17
29 376
31 39
39 170
40 2
41 551
42 345
43 888
44 16
47 129
49 34
53 90
54 6
55 448
56 221
57 394
67 33
69 246
70 164
71 999
72 155
73 6
75 111
82 40
83 281
100 46
101 503
102 12
115 5
117 295
118 59
119 19
131 67
157 75
158 36
171 392
186 5
187 717
188 49

$$$$

     RDKit          2D

 19 18  0  0  0  0  0  0  0  0999 V2000
    4.5466    7.1250    0.0000 C   0  0  0  0  0  0  0  0  0  0  0  0
   -7.1447   13.8750    0.0000 C   0  0  0  0  0  0  0  0  0  0  0  0
  -12.3409    7.8750    0.0000 C   0  0  0  0  0  0  0  0  0  0  0  0
    3.2476    7.8750    0.0000 C   0  0  0  0  0  0  0  0  0  0  0  0
   -7.1447   12.3750    0.0000 C   0  0  0  0  0  0  0  0  0  0  0  0
  -11.0418    7.1250    0.0000 C   0  0  0  0  0  0  0  0  0  0  0  0
    1.9486    7.1250    0.0000 C   0  0  0  0  0  0  0  0  0  0  0  0
   -5.8457   11.6250    0.0000 C   0  0  0  0  0  0  0  0  0  0  0  0
   -9.7428    7.8750    0.0000 C   0  0  0  0  0  0  0  0  0  0  0  0
    0.6495    7.8750    0.0000 C   0  0  0  0  0  0  0  0  0  0  0  0
   -5.8457   10.1250    0.0000 C   0  0  0  0  0  0  0  0  0  0  0  0
   -8.4437    7.1250    0.0000 C   0  0  0  0  0  0  0  0  0  0  0  0
   -0.6495    7.1250    0.0000 C   0  0  0  0  0  0  0  0  0  0  0  0
   -4.5466    9.3750    0.0000 C   0  0  0  0  0  0  0  0  0  0  0  0
   -7.1447    7.8750    0.0000 C   0  0  0  0  0  0  0  0  0  0  0  0
   -1.9486    7.8750    0.0000 C   0  0  0  0  0  0  0  0  0  0  0  0
   -4.5466    7.8750    0.0000 C   0  0  0  0  0  0  0  0  0  0  0  0
   -5.8457    7.1250    0.0000 O   0  0  0  0  0  0  0  0  0  0  0  0
   -3.2476    7.1250    0.0000 O   0  0  0  0  0  0  0  0  0  0  0  0
  4  1  1  0
  5  2  1  0
  6  3  1  0
  7  4  1  0
  8  5  1  0
  9  6  1  0
 10  7  1  0
 11  8  1  0
 12  9  1  0
 13 10  1  0
 14 11  1  0
 15 12  1  0
 16 13  1  0
 17 14  1  0
 18 15  1  0
 18 17  1  0
 19 16  1  0
 19 17  1  0
M  END
>  <NAME>  (2011) 
HEXANAL HEXYL PENTYL ACETAL

>  <SYNONYMS>  (2011) 


>  <SPECTRUM TYPE>  (2011) 
MS1

>  <INSTRUMENT TYPE>  (2011) 
EI-B

>  <INSTRUMENT>  (2011) 
HITACHI M-80B

>  <ION MODE>  (2011) 
P

>  <INCHIKEY>  (2011) 
GFNOERWAQBPPLQ-UHFFFAOYSA-N

>  <FORMULA>  (2011) 
C17H36O2

>  <EXACT MASS>  (2011) 
272.271530392

>  <MW>  (2011) 
272

>  <ID>  (2011) 
JP009082

>  <CONTRIBUTOR>  (2011) 
University of Tokyo Team, {Faculty of Engineering, University of Tokyo

>  <COMMENT>  (2011) 
SMILES=CCCCCCOC(CCCCC)OCCCCC
InChI=InChI=1S/C17H36O2/c1-4-7-10-13-16-19-17(14-11-8-5-2)18-15-12-9-6-3/h17H,4-16H2,1-3H3
computed SMILES=O(CCCCC)C(OCCCCCC)CCCCC
accession=JP009082
date=2016.01.19 (Created 2008.10.21, modified 2011.05.06)
author=SODA AROMATIC CO., LTD.
license=CC BY-NC-SA
exact mass=272.27153
ionization energy=70 eV
ion type=[M]+*
computed spectral entropy=2.988694874964042
computed normalized entropy=0.8157894321558463
SPLASH=splash10-0006-9100000000-ae705cbd4cd458e77d38
submitter=submitter = University of Tokyo Team (Faculty of Engineering, University of Tokyo)
MoNA Rating=3.75

>  <NUM PEAKS>  (2011) 
39

>  <MASS SPECTRAL PEAKS>  (2011) 
27 15.78
29 22.74
31 4.31
39 8.49
41 33.13
42 14.07
43 99.99
44 3.57
45 4.09
53 1.27
55 22.82
56 12.09
57 22.64
58 1.51
60 20.67
61 1.6
67 1.59
69 3.13
70 3.05
71 54.27
72 2.85
73 10.14
74 1.28
82 3.9
83 24.59
84 2.17
85 40.46
86 1.9
87 2.24
99 1.33
101 21.54
102 1.33
117 9.73
131 2.52
171 11.92
172 1.02
185 8.03
201 9.68
202 1.01

>  <PREDICTED SPECTRUM>  (2011) 
26 12
27 318
29 447
31 60
39 257
41 629
42 372
43 999
44 153
45 178
53 89
54 44
55 539
56 363
57 523
61 123
63 11
65 2
67 122
68 50
69 314
70 111
71 836
72 144
81 43
82 119
83 574
84 94
85 544
86 147
87 9
89 57
100 68
101 829
102 63
115 5
131 137
170 58
171 329
172 66
173 31
185 265
201 741
202 190

$$$$

     RDKit          2D

 15 14  0  0  0  0  0  0  0  0999 V2000
    4.2219    5.4375    0.0000 C   0  0  0  0  0  0  0  0  0  0  0  0
  -10.0675    6.1875    0.0000 C   0  0  0  0  0  0  0  0  0  0  0  0
   -0.9743    9.9375    0.0000 C   0  0  0  0  0  0  0  0  0  0  0  0
    2.9228    6.1875    0.0000 C   0  0  0  0  0  0  0  0  0  0  0  0
   -8.7685    5.4375    0.0000 C   0  0  0  0  0  0  0  0  0  0  0  0
   -0.9743    8.4375    0.0000 C   0  0  0  0  0  0  0  0  0  0  0  0
    1.6238    5.4375    0.0000 C   0  0  0  0  0  0  0  0  0  0  0  0
   -7.4695    6.1875    0.0000 C   0  0  0  0  0  0  0  0  0  0  0  0
    0.3248    6.1875    0.0000 C   0  0  0  0  0  0  0  0  0  0  0  0
   -6.1704    5.4375    0.0000 C   0  0  0  0  0  0  0  0  0  0  0  0
   -0.9743    5.4375    0.0000 C   0  0  0  0  0  0  0  0  0  0  0  0
   -4.8714    6.1875    0.0000 C   0  0  0  0  0  0  0  0  0  0  0  0
   -2.2733    6.1875    0.0000 C   0  0  0  0  0  0  0  0  0  0  0  0
   -2.2733    7.6875    0.0000 O   0  0  0  0  0  0  0  0  0  0  0  0
   -3.5724    5.4375    0.0000 O   0  0  0  0  0  0  0  0  0  0  0  0
  4  1  1  0
  5  2  1  0
  6  3  1  0
  7  4  1  0
  8  5  1  0
  9  7  1  0
 10  8  1  0
 11  9  1  0
 12 10  1  0
 13 11  1  0
 14  6  1  0
 14 13  1  0
 15 12  1  0
 15 13  1  0
M  END
>  <NAME>  (2012) 
HEXANAL ETHYL PENTYL ACETAL

>  <SYNONYMS>  (2012) 


>  <SPECTRUM TYPE>  (2012) 
MS1

>  <INSTRUMENT TYPE>  (2012) 
EI-B

>  <INSTRUMENT>  (2012) 
HITACHI M-80B

>  <ION MODE>  (2012) 
P

>  <INCHIKEY>  (2012) 
QPXFDYQXBUGQMT-UHFFFAOYSA-N

>  <FORMULA>  (2012) 
C13H28O2

>  <EXACT MASS>  (2012) 
216.208930136

>  <MW>  (2012) 
216

>  <ID>  (2012) 
JP009081

>  <CONTRIBUTOR>  (2012) 
University of Tokyo Team, {Faculty of Engineering, University of Tokyo

>  <COMMENT>  (2012) 
SMILES=CCCCCOC(OCC)CCCCC
InChI=InChI=1S/C13H28O2/c1-4-7-9-11-13(14-6-3)15-12-10-8-5-2/h13H,4-12H2,1-3H3
computed SMILES=O(CC)C(OCCCCC)CCCCC
accession=JP009081
date=2016.01.19 (Created 2008.10.21, modified 2011.05.06)
author=SODA AROMATIC CO., LTD.
license=CC BY-NC-SA
exact mass=216.20893
ionization energy=70 eV
ion type=[M]+*
computed spectral entropy=2.839990595316308
computed normalized entropy=0.8053602504597672
SPLASH=splash10-004i-9200000000-be59682a450c337f2118
submitter=submitter = University of Tokyo Team (Faculty of Engineering, University of Tokyo)
MoNA Rating=3.75

>  <NUM PEAKS>  (2012) 
34

>  <MASS SPECTRAL PEAKS>  (2012) 
27 14.22
29 29.21
31 4.93
39 5.62
41 24.81
42 10.8
43 62.43
44 6.75
45 3.3
47 30.51
53 1.18
55 29.18
56 2.76
57 14.73
58 1.03
59 3.16
67 1.08
69 1.19
70 2.44
71 20.23
72 3.37
75 99.99
76 2.8
82 1.51
83 32.93
84 2.07
85 3.2
99 1.81
101 10.99
129 47.01
130 3.23
145 30.57
146 2.53
171 6.14

>  <PREDICTED SPECTRUM>  (2012) 
26 46
27 318
28 50
29 442
30 11
31 181
33 27
39 249
40 62
41 579
42 247
43 607
44 93
45 97
47 450
53 138
54 77
55 490
56 211
57 516
58 157
59 205
60 15
67 40
69 112
70 74
71 595
72 257
73 100
75 999
76 221
82 44
83 507
84 5
85 100
98 35
99 147
100 48
101 301
115 61
129 654
130 34
143 17
144 1
145 791
146 204
171 292
187 8

$$$$

     RDKit          2D

 15 14  0  0  0  0  0  0  0  0999 V2000
    3.2476    5.6250    0.0000 C   0  0  0  0  0  0  0  0  0  0  0  0
   -9.7428    5.6250    0.0000 C   0  0  0  0  0  0  0  0  0  0  0  0
   -4.5466   10.1250    0.0000 C   0  0  0  0  0  0  0  0  0  0  0  0
   -5.8457    7.8750    0.0000 C   0  0  0  0  0  0  0  0  0  0  0  0
    1.9486    6.3750    0.0000 C   0  0  0  0  0  0  0  0  0  0  0  0
   -8.4437    6.3750    0.0000 C   0  0  0  0  0  0  0  0  0  0  0  0
    0.6495    5.6250    0.0000 C   0  0  0  0  0  0  0  0  0  0  0  0
   -7.1447    5.6250    0.0000 C   0  0  0  0  0  0  0  0  0  0  0  0
   -0.6495    6.3750    0.0000 C   0  0  0  0  0  0  0  0  0  0  0  0
   -5.8457    6.3750    0.0000 C   0  0  0  0  0  0  0  0  0  0  0  0
   -3.2476    7.8750    0.0000 C   0  0  0  0  0  0  0  0  0  0  0  0
   -4.5466    8.6250    0.0000 C   0  0  0  0  0  0  0  0  0  0  0  0
   -3.2476    6.3750    0.0000 C   0  0  0  0  0  0  0  0  0  0  0  0
   -1.9486    5.6250    0.0000 O   0  0  0  0  0  0  0  0  0  0  0  0
   -4.5466    5.6250    0.0000 O   0  0  0  0  0  0  0  0  0  0  0  0
  5  1  1  0
  6  2  1  0
  7  5  1  0
  8  6  1  0
  9  7  1  0
 10  8  1  0
 12  3  1  0
 12  4  1  0
 12 11  1  0
 13 11  1  0
 14  9  1  0
 14 13  1  0
 15 10  1  0
 15 13  1  0
M  END
>  <NAME>  (2013) 
ISOVALERALDEHYDE DIBUTYL ACETAL

>  <SYNONYMS>  (2013) 


>  <SPECTRUM TYPE>  (2013) 
MS1

>  <INSTRUMENT TYPE>  (2013) 
EI-B

>  <INSTRUMENT>  (2013) 
HITACHI M-80B

>  <ION MODE>  (2013) 
P

>  <INCHIKEY>  (2013) 
RLNQTYONQFCUOR-UHFFFAOYSA-N

>  <FORMULA>  (2013) 
C13H28O2

>  <EXACT MASS>  (2013) 
216.208930136

>  <MW>  (2013) 
216

>  <ID>  (2013) 
JP009080

>  <CONTRIBUTOR>  (2013) 
University of Tokyo Team, {Faculty of Engineering, University of Tokyo

>  <COMMENT>  (2013) 
SMILES=CCCCOC(OCCCC)CC(C)C
InChI=InChI=1S/C13H28O2/c1-5-7-9-14-13(11-12(3)4)15-10-8-6-2/h12-13H,5-11H2,1-4H3
computed SMILES=O(CCCC)C(OCCCC)CC(C)C
accession=JP009080
date=2016.01.19 (Created 2008.10.21, modified 2011.05.06)
author=SODA AROMATIC CO., LTD.
license=CC BY-NC-SA
exact mass=216.20893
ionization energy=70 eV
ion type=[M]+*
computed spectral entropy=2.646981797254677
computed normalized entropy=0.7943635479670789
SPLASH=splash10-0a4l-9200000000-e3efce3f26fd0ce711ce
submitter=submitter = University of Tokyo Team (Faculty of Engineering, University of Tokyo)
MoNA Rating=3.75

>  <NUM PEAKS>  (2013) 
28

>  <MASS SPECTRAL PEAKS>  (2013) 
27 10.17
29 28.32
31 4.12
39 6.33
41 34.46
42 3.24
43 13.55
44 2.97
45 8.15
47 1.33
53 1.01
55 5.25
56 7.36
57 99.99
58 4.4
69 28.8
70 1.43
71 11.56
85 2.85
87 26.85
88 1.19
103 18.81
127 1.41
142 1.05
143 33.4
144 3.23
159 17.92
160 1.48

>  <PREDICTED SPECTRUM>  (2013) 
15 19
26 11
27 235
28 70
29 377
30 38
31 161
39 279
40 88
41 673
42 182
43 389
45 201
47 139
53 15
55 249
56 305
57 999
58 191
59 179
69 233
70 31
71 220
75 17
81 13
85 125
86 60
87 517
88 79
103 372
104 65
113 9
143 735
144 192
145 48
159 468
161 6

$$$$

     RDKit          2D

 13 12  0  0  0  0  0  0  0  0999 V2000
    3.8971    6.0000    0.0000 C   0  0  0  0  0  0  0  0  0  0  0  0
  -10.3923    6.7500    0.0000 C   0  0  0  0  0  0  0  0  0  0  0  0
   -3.8971    4.5000    0.0000 C   0  0  0  0  0  0  0  0  0  0  0  0
    2.5981    6.7500    0.0000 C   0  0  0  0  0  0  0  0  0  0  0  0
   -9.0933    6.0000    0.0000 C   0  0  0  0  0  0  0  0  0  0  0  0
    1.2990    6.0000    0.0000 C   0  0  0  0  0  0  0  0  0  0  0  0
   -7.7942    6.7500    0.0000 C   0  0  0  0  0  0  0  0  0  0  0  0
    0.0000    6.7500    0.0000 C   0  0  0  0  0  0  0  0  0  0  0  0
   -6.4952    6.0000    0.0000 C   0  0  0  0  0  0  0  0  0  0  0  0
   -1.2990    6.0000    0.0000 C   0  0  0  0  0  0  0  0  0  0  0  0
   -3.8971    6.0000    0.0000 C   0  0  0  0  0  0  0  0  0  0  0  0
   -5.1962    6.7500    0.0000 O   0  0  0  0  0  0  0  0  0  0  0  0
   -2.5981    6.7500    0.0000 O   0  0  0  0  0  0  0  0  0  0  0  0
  4  1  1  0
  5  2  1  0
  6  4  1  0
  7  5  1  0
  8  6  1  0
  9  7  1  0
 10  8  1  0
 11  3  1  0
 12  9  1  0
 12 11  1  0
 13 10  1  0
 13 11  1  0
M  END
>  <NAME>  (2014) 
ACETALDEHYDE BUTYL PENTYL ACETAL

>  <SYNONYMS>  (2014) 


>  <SPECTRUM TYPE>  (2014) 
MS1

>  <INSTRUMENT TYPE>  (2014) 
EI-B

>  <INSTRUMENT>  (2014) 
HITACHI M-80B

>  <ION MODE>  (2014) 
P

>  <INCHIKEY>  (2014) 
PRLOXHKVPIRLDE-UHFFFAOYSA-N

>  <FORMULA>  (2014) 
C11H24O2

>  <EXACT MASS>  (2014) 
188.177630008

>  <MW>  (2014) 
188

>  <ID>  (2014) 
JP009079

>  <CONTRIBUTOR>  (2014) 
University of Tokyo Team, {Faculty of Engineering, University of Tokyo

>  <COMMENT>  (2014) 
SMILES=CCCCCOC(C)OCCCC
InChI=InChI=1S/C11H24O2/c1-4-6-8-10-13-11(3)12-9-7-5-2/h11H,4-10H2,1-3H3
computed SMILES=O(CCCC)C(OCCCCC)C
accession=JP009079
date=2016.01.19 (Created 2008.10.21, modified 2011.05.06)
author=SODA AROMATIC CO., LTD.
license=CC BY-NC-SA
exact mass=188.17763
ionization energy=70 eV
ion type=[M]+*
computed spectral entropy=2.777346948696716
computed normalized entropy=0.7691526132375864
SPLASH=splash10-0ki7-9200000000-ecde1a6960cabac8a0a8
submitter=submitter = University of Tokyo Team (Faculty of Engineering, University of Tokyo)
MoNA Rating=3.75

>  <NUM PEAKS>  (2014) 
37

>  <MASS SPECTRAL PEAKS>  (2014) 
15 1.8
26 1.39
27 22.87
29 43.84
30 1.3
31 7.67
39 12.28
40 1.11
41 50.59
42 18.37
43 77.24
44 5.26
45 99.99
46 2.17
53 1.87
55 15.15
56 9.38
57 86.28
58 5.38
59 1.15
61 2.88
69 1.91
70 4.4
71 88.86
72 5.97
83 2.07
85 2.31
97 1.91
99 1.39
101 85.53
102 5.92
103 7.38
115 53.87
116 3.95
117 1.69
173 19.12
174 1.73

>  <PREDICTED SPECTRUM>  (2014) 
14 51
15 158
16 5
19 19
25 4
26 96
27 415
28 181
29 558
30 107
31 265
32 12
38 28
39 349
40 93
41 707
42 408
43 885
44 253
45 783
46 87
47 45
53 122
54 57
55 337
56 317
57 813
58 239
59 221
60 33
69 97
70 206
71 999
72 260
83 46
86 10
87 63
89 85
99 72
100 91
101 583
102 80
103 14
113 26
114 10
115 873
116 338
117 299
118 1
129 22
130 10
131 14
143 57
145 44
173 435
174 89
187 38

$$$$

     RDKit          2D

 12 11  0  0  0  0  0  0  0  0999 V2000
    3.2476    5.6250    0.0000 C   0  0  0  0  0  0  0  0  0  0  0  0
   -9.7428    5.6250    0.0000 C   0  0  0  0  0  0  0  0  0  0  0  0
   -5.8457    7.8750    0.0000 C   0  0  0  0  0  0  0  0  0  0  0  0
    1.9486    6.3750    0.0000 C   0  0  0  0  0  0  0  0  0  0  0  0
   -8.4437    6.3750    0.0000 C   0  0  0  0  0  0  0  0  0  0  0  0
    0.6495    5.6250    0.0000 C   0  0  0  0  0  0  0  0  0  0  0  0
   -0.6495    6.3750    0.0000 C   0  0  0  0  0  0  0  0  0  0  0  0
   -1.9486    5.6250    0.0000 C   0  0  0  0  0  0  0  0  0  0  0  0
   -3.2476    6.3750    0.0000 C   0  0  0  0  0  0  0  0  0  0  0  0
   -5.8457    6.3750    0.0000 C   0  0  0  0  0  0  0  0  0  0  0  0
   -7.1447    5.6250    0.0000 O   0  0  0  0  0  0  0  0  0  0  0  0
   -4.5466    5.6250    0.0000 O   0  0  0  0  0  0  0  0  0  0  0  0
  4  1  1  0
  5  2  1  0
  6  4  1  0
  7  6  1  0
  7  8  2  0
  9  8  1  0
 10  3  1  0
 11  5  1  0
 11 10  1  0
 12  9  1  0
 12 10  1  0
M  END
>  <NAME>  (2015) 
ACETALDEHYDE ETHYL TRANS-2-HEXENYL ACETAL

>  <SYNONYMS>  (2015) 


>  <SPECTRUM TYPE>  (2015) 
MS1

>  <INSTRUMENT TYPE>  (2015) 
EI-B

>  <INSTRUMENT>  (2015) 
HITACHI M-80B

>  <ION MODE>  (2015) 
P

>  <INCHIKEY>  (2015) 
UMAFJFXCURZISP-BQYQJAHWSA-N

>  <FORMULA>  (2015) 
C10H20O2

>  <EXACT MASS>  (2015) 
172.14632988

>  <MW>  (2015) 
172

>  <ID>  (2015) 
JP009078

>  <CONTRIBUTOR>  (2015) 
University of Tokyo Team, {Faculty of Engineering, University of Tokyo

>  <COMMENT>  (2015) 
SMILES=CCCC=CCOC(C)OCC
InChI=InChI=1S/C10H20O2/c1-4-6-7-8-9-12-10(3)11-5-2/h7-8,10H,4-6,9H2,1-3H3/b8-7+
computed SMILES=O(CC=CCCC)C(OCC)C
accession=JP009078
date=2016.01.19 (Created 2008.10.21, modified 2011.05.06)
author=SODA AROMATIC CO., LTD.
computed spectral entropy=2.6923778480555915
license=CC BY-NC-SA
exact mass=172.14633
ionization energy=70 eV
ion type=[M]+*
computed normalized entropy=0.7513223438455026
SPLASH=splash10-00ea-9000000000-bf8ab628f031ed2a02fb
submitter=submitter = University of Tokyo Team (Faculty of Engineering, University of Tokyo)
MoNA Rating=3.75

>  <NUM PEAKS>  (2015) 
36

>  <MASS SPECTRAL PEAKS>  (2015) 
15 2.2
26 1.32
27 17.58
29 18.81
31 2.94
39 13.68
41 27.28
42 3.67
43 13.26
44 4.62
45 93.56
46 1.79
47 3.15
51 1.08
53 5.48
54 13.83
55 36.53
56 4.35
57 9.02
61 2.85
67 7.47
69 1.04
71 1.45
72 2.41
73 99.99
74 4.94
75 3.4
81 1.09
82 3.89
83 53.85
84 4.27
85 10.72
89 1.56
99 1.31
126 2.53
128 1.68

>  <PREDICTED SPECTRUM>  (2015) 
15 6
19 1
25 16
26 91
27 398
28 177
29 469
30 63
31 220
37 37
38 67
39 439
40 144
41 734
42 244
43 472
44 340
45 947
46 140
47 255
50 53
51 93
52 65
53 296
54 284
55 851
56 299
57 469
60 20
61 36
63 7
65 142
66 86
67 480
69 96
70 141
71 161
72 319
73 999
74 193
75 184
81 296
82 382
83 840
84 359
85 192
86 8
91 8
98 37
99 180
100 107
101 118
111 16
126 132
127 150
128 137
129 3

$$$$

     RDKit          2D

  9  8  0  0  0  0  0  0  0  0999 V2000
    1.9486    2.6250    0.0000 C   0  0  0  0  0  0  0  0  0  0  0  0
    0.6495    4.8750    0.0000 C   0  0  0  0  0  0  0  0  0  0  0  0
   -4.5466    3.3750    0.0000 C   0  0  0  0  0  0  0  0  0  0  0  0
    0.6495    3.3750    0.0000 C   0  0  0  0  0  0  0  0  0  0  0  0
   -3.2476    2.6250    0.0000 C   0  0  0  0  0  0  0  0  0  0  0  0
   -1.9486    3.3750    0.0000 C   0  0  0  0  0  0  0  0  0  0  0  0
   -3.2476    1.1250    0.0000 O   0  0  0  0  0  0  0  0  0  0  0  0
   -1.9486    4.8750    0.0000 O   0  0  0  0  0  0  0  0  0  0  0  0
   -0.6495    2.6250    0.0000 O   0  0  0  0  0  0  0  0  0  0  0  0
  4  1  1  0
  4  2  1  0
  5  3  1  0
  6  5  1  0
  7  5  2  0
  8  6  2  0
  9  4  1  0
  9  6  1  0
M  END
>  <NAME>  (2016) 
ISOPROPYL PYRUVATE

>  <SYNONYMS>  (2016) 


>  <SPECTRUM TYPE>  (2016) 
MS1

>  <INSTRUMENT TYPE>  (2016) 
EI-B

>  <INSTRUMENT>  (2016) 
HITACHI M-80B

>  <ION MODE>  (2016) 
P

>  <INCHIKEY>  (2016) 
WUBJISGMPZWFKY-UHFFFAOYSA-N

>  <FORMULA>  (2016) 
C6H10O3

>  <EXACT MASS>  (2016) 
130.06299418

>  <MW>  (2016) 
130

>  <ID>  (2016) 
JP009077

>  <CONTRIBUTOR>  (2016) 
University of Tokyo Team, {Faculty of Engineering, University of Tokyo

>  <COMMENT>  (2016) 
SMILES=CC(C)OC(=O)C(C)=O
InChI=InChI=1S/C6H10O3/c1-4(2)9-6(8)5(3)7/h4H,1-3H3
computed SMILES=O=C(OC(C)C)C(=O)C
accession=JP009077
date=2016.01.19 (Created 2008.10.21, modified 2011.05.06)
author=SODA AROMATIC CO., LTD.
license=CC BY-NC-SA
exact mass=130.06299
ionization energy=70 eV
ion type=[M]+*
computed spectral entropy=1.4619811620307857
computed normalized entropy=0.5699844161748558
SPLASH=splash10-0006-9000000000-a24ff788bb55ab4f0cc4
submitter=submitter = University of Tokyo Team (Faculty of Engineering, University of Tokyo)
MoNA Rating=3.75

>  <NUM PEAKS>  (2016) 
13

>  <MASS SPECTRAL PEAKS>  (2016) 
14 1.23
15 6.62
27 12.03
29 2.29
39 5.72
41 21.17
42 4.45
43 99.99
44 3.26
45 1.57
59 1.27
71 1.64
87 2.09

>  <PREDICTED SPECTRUM>  (2016) 
14 60
15 193
16 13
25 16
26 103
27 297
28 126
29 154
31 49
37 23
38 71
39 218
40 97
41 329
42 292
43 999
44 187
45 216
52 9
53 52
59 20
60 5
71 179
73 24
87 75

$$$$

     RDKit          2D

  9  8  0  0  0  0  0  0  0  0999 V2000
    1.9486    3.3750    0.0000 C   0  0  0  0  0  0  0  0  0  0  0  0
   -5.8457    3.3750    0.0000 C   0  0  0  0  0  0  0  0  0  0  0  0
    0.6495    4.1250    0.0000 C   0  0  0  0  0  0  0  0  0  0  0  0
   -0.6495    3.3750    0.0000 C   0  0  0  0  0  0  0  0  0  0  0  0
   -4.5466    4.1250    0.0000 C   0  0  0  0  0  0  0  0  0  0  0  0
   -3.2476    3.3750    0.0000 C   0  0  0  0  0  0  0  0  0  0  0  0
   -4.5466    5.6250    0.0000 O   0  0  0  0  0  0  0  0  0  0  0  0
   -3.2476    1.8750    0.0000 O   0  0  0  0  0  0  0  0  0  0  0  0
   -1.9486    4.1250    0.0000 O   0  0  0  0  0  0  0  0  0  0  0  0
  3  1  1  0
  4  3  1  0
  5  2  1  0
  6  5  1  0
  7  5  2  0
  8  6  2  0
  9  4  1  0
  9  6  1  0
M  END
>  <NAME>  (2017) 
PROPYL PYRUVATE

>  <SYNONYMS>  (2017) 


>  <SPECTRUM TYPE>  (2017) 
MS1

>  <INSTRUMENT TYPE>  (2017) 
EI-B

>  <INSTRUMENT>  (2017) 
HITACHI M-80B

>  <ION MODE>  (2017) 
P

>  <INCHIKEY>  (2017) 
ILPVOWZUBFRIAX-UHFFFAOYSA-N

>  <FORMULA>  (2017) 
C6H10O3

>  <EXACT MASS>  (2017) 
130.06299417999998

>  <MW>  (2017) 
130

>  <ID>  (2017) 
JP009076

>  <CONTRIBUTOR>  (2017) 
University of Tokyo Team, {Faculty of Engineering, University of Tokyo

>  <COMMENT>  (2017) 
SMILES=CCCOC(=O)C(C)=O
InChI=InChI=1S/C6H10O3/c1-3-4-9-6(8)5(2)7/h3-4H2,1-2H3
computed SMILES=O=C(OCCC)C(=O)C
accession=JP009076
date=2016.01.19 (Created 2008.10.21, modified 2011.05.06)
author=SODA AROMATIC CO., LTD.
license=CC BY-NC-SA
exact mass=130.06299
ionization energy=70 eV
ion type=[M]+*
computed spectral entropy=1.4021196163250835
computed normalized entropy=0.5642544424937271
SPLASH=splash10-0006-9000000000-58cade300c4fca5fe46b
submitter=submitter = University of Tokyo Team (Faculty of Engineering, University of Tokyo)
MoNA Rating=3.75

>  <NUM PEAKS>  (2017) 
12

>  <MASS SPECTRAL PEAKS>  (2017) 
14 1.31
15 6.19
26 1.21
27 15.93
29 3.5
39 4.94
41 18.93
42 4.7
43 99.99
44 2.39
71 1.13
73 1.13

>  <PREDICTED SPECTRUM>  (2017) 
14 56
15 138
16 25
25 14
26 131
27 373
28 95
29 253
31 62
36 4
38 62
39 250
40 117
41 442
42 294
43 999
44 179
45 82
52 17
53 49
59 25
71 132
87 59
89 9

$$$$

     RDKit          2D

 14 14  0  0  0  0  0  0  0  0999 V2000
   -2.9356    5.4356    0.0000 C   0  0  0  0  0  0  0  0  0  0  0  0
    6.1662    0.1908    0.0000 C   0  0  0  0  0  0  0  0  0  0  0  0
   -1.6353    4.6878    0.0000 C   0  0  0  0  0  0  0  0  0  0  0  0
    4.8670    0.9406    0.0000 C   0  0  0  0  0  0  0  0  0  0  0  0
   -1.6200   -1.3100    0.0000 C   0  0  0  0  0  0  0  0  0  0  0  0
   -0.3300   -2.0600    0.0000 C   0  0  0  0  0  0  0  0  0  0  0  0
   -1.6200    0.1900    0.0000 C   0  0  0  0  0  0  0  0  0  0  0  0
    0.9700   -1.3100    0.0000 C   0  0  0  0  0  0  0  0  0  0  0  0
   -1.6328    3.1878    0.0000 C   0  0  0  0  0  0  0  0  0  0  0  0
    3.5681    0.1904    0.0000 C   0  0  0  0  0  0  0  0  0  0  0  0
   -0.3300    0.9400    0.0000 C   0  0  0  0  0  0  0  0  0  0  0  0
    0.9700    0.1900    0.0000 C   0  0  0  0  0  0  0  0  0  0  0  0
   -0.3325    2.4400    0.0000 O   0  0  0  0  0  0  0  0  0  0  0  0
    2.2689    0.9402    0.0000 O   0  0  0  0  0  0  0  0  0  0  0  0
  3  1  2  0
  4  2  2  0
  6  5  2  0
  7  5  1  0
  8  6  1  0
  9  3  1  0
 10  4  1  0
 11  7  2  0
 12  8  2  0
 12 11  1  0
 13  9  1  0
 13 11  1  0
 14 10  1  0
 14 12  1  0
M  END
>  <NAME>  (2018) 
1,2-DI(2-PROPENYLOXY)BENZENE

>  <SYNONYMS>  (2018) 


>  <SPECTRUM TYPE>  (2018) 
MS1

>  <INSTRUMENT TYPE>  (2018) 
EI-B

>  <INSTRUMENT>  (2018) 
HITACHI M-80B

>  <ION MODE>  (2018) 
P

>  <INCHIKEY>  (2018) 
GZWLFCGQNCRLIN-UHFFFAOYSA-N

>  <FORMULA>  (2018) 
C12H14O2

>  <EXACT MASS>  (2018) 
190.099379688

>  <MW>  (2018) 
190

>  <ID>  (2018) 
JP009075

>  <CONTRIBUTOR>  (2018) 
University of Tokyo Team, {Faculty of Engineering, University of Tokyo

>  <COMMENT>  (2018) 
SMILES=C=CCOc(c1)c(OCC=C)ccc1
InChI=InChI=1S/C12H14O2/c1-3-9-13-11-7-5-6-8-12(11)14-10-4-2/h3-8H,1-2,9-10H2
computed SMILES=O(C=1C=CC=CC1OCC=C)CC=C
accession=JP009075
date=2016.01.19 (Created 2008.10.21, modified 2011.05.06)
author=SODA AROMATIC CO., LTD.
license=CC BY-NC-SA
exact mass=190.09938
ionization energy=70 eV
ion type=[M]+*
computed spectral entropy=2.464364980604079
computed normalized entropy=0.7176395349945861
SPLASH=splash10-0006-9300000000-1da18c231c4efe7ff294
submitter=submitter = University of Tokyo Team (Faculty of Engineering, University of Tokyo)
MoNA Rating=3.75

>  <NUM PEAKS>  (2018) 
31

>  <MASS SPECTRAL PEAKS>  (2018) 
26 1.25
27 3.11
38 1.57
39 19.52
40 1.05
41 99.99
42 3.11
50 1.63
51 4.77
52 11.51
53 2.44
55 2.27
63 2.23
64 1.51
65 2.68
77 3.85
79 1.54
80 4.65
81 7.36
91 2.29
93 3.63
103 1.78
109 9.8
110 1.15
119 9.76
121 9.63
122 1.08
149 12.52
150 1.07
190 18.41
191 1.93

>  <PREDICTED SPECTRUM>  (2018) 
15 1
26 3
27 86
29 54
37 39
38 57
39 503
40 116
41 999
42 76
50 56
51 155
52 151
53 178
54 87
55 36
62 6
63 120
64 80
65 196
66 34
67 167
77 201
79 139
80 100
81 272
82 100
91 99
92 62
93 223
94 40
95 53
103 93
108 10
109 244
110 129
119 156
121 353
122 116
147 57
149 370
150 184
190 388
191 117

$$$$

     RDKit          2D

 13 13  0  0  0  0  0  0  0  0999 V2000
   -7.4692    4.2571    0.0000 C   0  0  0  0  0  0  0  0  0  0  0  0
   -6.1702    3.5071    0.0000 C   0  0  0  0  0  0  0  0  0  0  0  0
   -4.8712    4.2571    0.0000 C   0  0  0  0  0  0  0  0  0  0  0  0
    4.2221    2.0071    0.0000 C   0  0  0  0  0  0  0  0  0  0  0  0
    4.2226    3.5079    0.0000 C   0  0  0  0  0  0  0  0  0  0  0  0
    2.9226    1.2563    0.0000 C   0  0  0  0  0  0  0  0  0  0  0  0
    2.9236    4.2579    0.0000 C   0  0  0  0  0  0  0  0  0  0  0  0
    1.6236    2.0063    0.0000 C   0  0  0  0  0  0  0  0  0  0  0  0
    0.3250    4.2571    0.0000 C   0  0  0  0  0  0  0  0  0  0  0  0
   -3.5721    3.5071    0.0000 C   0  0  0  0  0  0  0  0  0  0  0  0
   -0.9740    3.5071    0.0000 C   0  0  0  0  0  0  0  0  0  0  0  0
    1.6240    3.5071    0.0000 C   0  0  0  0  0  0  0  0  0  0  0  0
   -2.2731    4.2571    0.0000 O   0  0  0  0  0  0  0  0  0  0  0  0
  2  1  1  0
  3  2  1  0
  5  4  2  0
  6  4  1  0
  7  5  1  0
  8  6  2  0
 10  3  1  0
 11  9  1  0
 12  7  2  0
 12  8  1  0
 12  9  1  0
 13 10  1  0
 13 11  1  0
M  END
>  <NAME>  (2019) 
2-PHENYLETHYL BUTYL ETHER

>  <SYNONYMS>  (2019) 


>  <SPECTRUM TYPE>  (2019) 
MS1

>  <INSTRUMENT TYPE>  (2019) 
EI-B

>  <INSTRUMENT>  (2019) 
HITACHI M-80B

>  <ION MODE>  (2019) 
P

>  <INCHIKEY>  (2019) 
KLJOZKBZXLRMLU-UHFFFAOYSA-N

>  <FORMULA>  (2019) 
C12H18O

>  <EXACT MASS>  (2019) 
178.135765196

>  <MW>  (2019) 
178

>  <ID>  (2019) 
JP009074

>  <CONTRIBUTOR>  (2019) 
University of Tokyo Team, {Faculty of Engineering, University of Tokyo

>  <COMMENT>  (2019) 
SMILES=CCCCOCCc(c1)cccc1
InChI=InChI=1S/C12H18O/c1-2-3-10-13-11-9-12-7-5-4-6-8-12/h4-8H,2-3,9-11H2,1H3
computed SMILES=O(CCC=1C=CC=CC1)CCCC
accession=JP009074
date=2016.01.19 (Created 2008.10.21, modified 2011.05.06)
author=SODA AROMATIC CO., LTD.
license=CC BY-NC-SA
exact mass=178.13577
ionization energy=70 eV
ion type=[M]+*
computed spectral entropy=2.5799412747311647
computed normalized entropy=0.7661760073933058
SPLASH=splash10-0a4i-9100000000-4135c810cd4e90fd2053
submitter=submitter = University of Tokyo Team (Faculty of Engineering, University of Tokyo)
MoNA Rating=3.75

>  <NUM PEAKS>  (2019) 
29

>  <MASS SPECTRAL PEAKS>  (2019) 
27 8.2
29 14.91
31 1.06
39 6.14
41 20.69
43 1.62
45 1.24
50 1.1
51 4.66
52 1.06
55 1.2
57 99.99
58 3.34
63 1.59
65 6.37
77 10.25
78 6.15
79 6.5
87 14.4
89 1.16
91 23.94
92 11.45
103 4.61
104 3.5
105 15.99
106 16.3
107 1.13
160 1.59
178 4.86

>  <PREDICTED SPECTRUM>  (2019) 
14 1
15 4
19 4
26 40
27 198
28 121
29 373
30 146
31 152
37 5
38 37
39 234
40 63
41 423
42 101
43 77
44 90
45 129
49 1
50 138
51 224
52 105
53 94
55 93
56 43
57 999
58 137
59 126
60 1
62 73
63 183
64 100
65 281
66 21
74 37
75 83
76 76
77 276
78 223
79 136
86 27
87 222
89 107
90 66
91 607
92 293
93 82
94 1
102 49
103 184
104 318
105 518
106 295
107 37
115 13
122 48
178 224
179 98
180 17

$$$$

     RDKit          2D

 10  9  0  0  0  0  0  0  0  0999 V2000
   -7.4695    3.9375    0.0000 C   0  0  0  0  0  0  0  0  0  0  0  0
    1.6238    3.1875    0.0000 C   0  0  0  0  0  0  0  0  0  0  0  0
   -6.1704    3.1875    0.0000 C   0  0  0  0  0  0  0  0  0  0  0  0
   -4.8714    3.9375    0.0000 C   0  0  0  0  0  0  0  0  0  0  0  0
   -3.5724    3.1875    0.0000 C   0  0  0  0  0  0  0  0  0  0  0  0
    0.3248    3.9375    0.0000 C   0  0  0  0  0  0  0  0  0  0  0  0
   -0.9743    3.1875    0.0000 C   0  0  0  0  0  0  0  0  0  0  0  0
    0.3248    5.4375    0.0000 O   0  0  0  0  0  0  0  0  0  0  0  0
   -0.9743    1.6875    0.0000 O   0  0  0  0  0  0  0  0  0  0  0  0
   -2.2733    3.9375    0.0000 O   0  0  0  0  0  0  0  0  0  0  0  0
  3  1  1  0
  4  3  1  0
  5  4  1  0
  6  2  1  0
  7  6  1  0
  8  6  2  0
  9  7  2  0
 10  5  1  0
 10  7  1  0
M  END
>  <NAME>  (2020) 
BUTYL PYRUVATE

>  <SYNONYMS>  (2020) 


>  <SPECTRUM TYPE>  (2020) 
MS1

>  <INSTRUMENT TYPE>  (2020) 
EI-B

>  <INSTRUMENT>  (2020) 
HITACHI M-80B

>  <ION MODE>  (2020) 
P

>  <INCHIKEY>  (2020) 
ZAZUOXBHFXAWMD-UHFFFAOYSA-N

>  <FORMULA>  (2020) 
C7H12O3

>  <EXACT MASS>  (2020) 
144.07864424399997

>  <MW>  (2020) 
144

>  <ID>  (2020) 
JP009073

>  <CONTRIBUTOR>  (2020) 
University of Tokyo Team, {Faculty of Engineering, University of Tokyo

>  <COMMENT>  (2020) 
SMILES=CCCCOC(=O)C(C)=O
InChI=InChI=1S/C7H12O3/c1-3-4-5-10-7(9)6(2)8/h3-5H2,1-2H3
computed SMILES=O=C(OCCCC)C(=O)C
accession=JP009073
date=2016.01.19 (Created 2008.10.21, modified 2011.05.06)
author=SODA AROMATIC CO., LTD.
license=CC BY-NC-SA
exact mass=144.07864
ionization energy=70 eV
ion type=[M]+*
computed spectral entropy=1.9895896722360462
computed normalized entropy=0.7175927883847105
SPLASH=splash10-0006-9000000000-10bc201f1ae9225f32de
submitter=submitter = University of Tokyo Team (Faculty of Engineering, University of Tokyo)
MoNA Rating=3.75

>  <NUM PEAKS>  (2020) 
16

>  <MASS SPECTRAL PEAKS>  (2020) 
14 1.19
15 8.32
26 1.62
27 13.14
29 43.44
30 1.04
39 8.35
41 40.3
42 5.75
43 99.99
44 2.99
55 4.19
56 8.36
57 36.8
58 1.64
72 1.63

>  <PREDICTED SPECTRUM>  (2020) 
14 29
15 65
16 2
25 7
26 155
27 553
28 194
29 621
31 50
38 23
39 333
40 97
41 794
42 210
43 999
44 177
45 109
53 46
54 5
55 282
56 429
57 833
58 145
71 135
73 40

$$$$

     RDKit          2D

 12 12  0  0  0  0  0  0  0  0999 V2000
   -5.8454    3.6946    0.0000 C   0  0  0  0  0  0  0  0  0  0  0  0
   -4.5464    1.4446    0.0000 C   0  0  0  0  0  0  0  0  0  0  0  0
    3.2478    1.4446    0.0000 C   0  0  0  0  0  0  0  0  0  0  0  0
    3.2483    2.9454    0.0000 C   0  0  0  0  0  0  0  0  0  0  0  0
    1.9483    0.6938    0.0000 C   0  0  0  0  0  0  0  0  0  0  0  0
    1.9493    3.6954    0.0000 C   0  0  0  0  0  0  0  0  0  0  0  0
    0.6493    1.4438    0.0000 C   0  0  0  0  0  0  0  0  0  0  0  0
   -0.6493    3.6946    0.0000 C   0  0  0  0  0  0  0  0  0  0  0  0
   -1.9483    2.9446    0.0000 C   0  0  0  0  0  0  0  0  0  0  0  0
   -4.5464    2.9446    0.0000 C   0  0  0  0  0  0  0  0  0  0  0  0
    0.6498    2.9446    0.0000 C   0  0  0  0  0  0  0  0  0  0  0  0
   -3.2474    3.6946    0.0000 O   0  0  0  0  0  0  0  0  0  0  0  0
  4  3  2  0
  5  3  1  0
  6  4  1  0
  7  5  2  0
  9  8  1  0
 10  1  1  0
 10  2  1  0
 11  6  2  0
 11  7  1  0
 11  8  1  0
 12  9  1  0
 12 10  1  0
M  END
>  <NAME>  (2021) 
2-PHENYLETHYL ISOPROPYL ETHER

>  <SYNONYMS>  (2021) 


>  <SPECTRUM TYPE>  (2021) 
MS1

>  <INSTRUMENT TYPE>  (2021) 
EI-B

>  <INSTRUMENT>  (2021) 
HITACHI M-80B

>  <ION MODE>  (2021) 
P

>  <INCHIKEY>  (2021) 
FMPXLXBVYDFXIC-UHFFFAOYSA-N

>  <FORMULA>  (2021) 
C11H16O

>  <EXACT MASS>  (2021) 
164.120115132

>  <MW>  (2021) 
164

>  <ID>  (2021) 
JP009071

>  <CONTRIBUTOR>  (2021) 
University of Tokyo Team, {Faculty of Engineering, University of Tokyo

>  <COMMENT>  (2021) 
SMILES=CC(C)OCCc(c1)cccc1
InChI=InChI=1S/C11H16O/c1-10(2)12-9-8-11-6-4-3-5-7-11/h3-7,10H,8-9H2,1-2H3
computed SMILES=O(CCC=1C=CC=CC1)C(C)C
computed spectral entropy=2.814709934726128
computed normalized entropy=0.7530654718537868
author=SODA AROMATIC CO., LTD.
license=CC BY-NC-SA
exact mass=164.12012
accession=JP009071
date=2016.01.19 (Created 2008.10.21, modified 2011.05.06)
ionization energy=70 eV
ion type=[M]+*
SPLASH=splash10-0006-9200000000-c9dcf36692b2746b47c9
submitter=submitter = University of Tokyo Team (Faculty of Engineering, University of Tokyo)
MoNA Rating=3.75

>  <NUM PEAKS>  (2021) 
42

>  <MASS SPECTRAL PEAKS>  (2021) 
15 1.58
27 14.08
29 1.87
31 1.83
38 1.08
39 12.86
41 15.65
42 2.18
43 99.99
44 2.35
45 1.8
50 2.56
51 11
52 2.32
53 1.37
55 3.28
58 1.03
59 5.82
62 1.08
63 3.33
64 1.25
65 13.22
73 46.2
74 1.97
75 1.82
76 1.04
77 18.82
78 10.46
79 9.98
89 2.28
90 1.45
91 79.87
92 57.31
93 3.42
102 1.08
103 9.41
104 5.27
105 34.98
106 48.92
107 3.36
146 1.26
164 1.34

>  <PREDICTED SPECTRUM>  (2021) 
14 5
15 40
26 50
27 221
28 46
29 116
30 10
31 137
32 6
33 11
37 19
38 69
39 318
40 99
41 368
42 150
43 942
44 178
45 343
46 48
49 17
50 163
51 276
52 174
53 99
55 68
58 45
59 108
60 65
61 99
62 92
63 219
64 123
65 386
66 120
72 27
73 574
74 165
75 168
76 92
77 388
78 341
79 337
80 54
89 198
90 100
91 999
92 499
93 131
94 66
102 71
103 203
104 429
105 688
106 585
107 186
108 40
115 56
121 56
122 31
132 30
164 100
165 7

$$$$

     RDKit          2D

 12 12  0  0  0  0  0  0  0  0999 V2000
   -6.8197    3.1321    0.0000 C   0  0  0  0  0  0  0  0  0  0  0  0
   -5.5207    3.8821    0.0000 C   0  0  0  0  0  0  0  0  0  0  0  0
    3.5726    1.6321    0.0000 C   0  0  0  0  0  0  0  0  0  0  0  0
    3.5731    3.1329    0.0000 C   0  0  0  0  0  0  0  0  0  0  0  0
    2.2731    0.8813    0.0000 C   0  0  0  0  0  0  0  0  0  0  0  0
    2.2740    3.8829    0.0000 C   0  0  0  0  0  0  0  0  0  0  0  0
    0.9740    1.6313    0.0000 C   0  0  0  0  0  0  0  0  0  0  0  0
   -0.3245    3.8821    0.0000 C   0  0  0  0  0  0  0  0  0  0  0  0
   -4.2216    3.1321    0.0000 C   0  0  0  0  0  0  0  0  0  0  0  0
   -1.6236    3.1321    0.0000 C   0  0  0  0  0  0  0  0  0  0  0  0
    0.9745    3.1321    0.0000 C   0  0  0  0  0  0  0  0  0  0  0  0
   -2.9226    3.8821    0.0000 O   0  0  0  0  0  0  0  0  0  0  0  0
  2  1  2  0
  4  3  2  0
  5  3  1  0
  6  4  1  0
  7  5  2  0
  9  2  1  0
 10  8  1  0
 11  6  2  0
 11  7  1  0
 11  8  1  0
 12  9  1  0
 12 10  1  0
M  END
>  <NAME>  (2022) 
2-PHENYLETHYL ALLYL ETHER

>  <SYNONYMS>  (2022) 


>  <SPECTRUM TYPE>  (2022) 
MS1

>  <INSTRUMENT TYPE>  (2022) 
EI-B

>  <INSTRUMENT>  (2022) 
HITACHI M-80B

>  <ION MODE>  (2022) 
P

>  <INCHIKEY>  (2022) 
QNBZQCMSRGAZCR-UHFFFAOYSA-N

>  <FORMULA>  (2022) 
C11H14O

>  <EXACT MASS>  (2022) 
162.104465068

>  <MW>  (2022) 
162

>  <ID>  (2022) 
JP009070

>  <CONTRIBUTOR>  (2022) 
University of Tokyo Team, {Faculty of Engineering, University of Tokyo

>  <COMMENT>  (2022) 
SMILES=C=CCOCCc(c1)cccc1
InChI=InChI=1S/C11H14O/c1-2-9-12-10-8-11-6-4-3-5-7-11/h2-7H,1,8-10H2
computed SMILES=O(CC=C)CCC=1C=CC=CC1
accession=JP009070
date=2016.01.19 (Created 2008.10.21, modified 2011.05.06)
author=SODA AROMATIC CO., LTD.
license=CC BY-NC-SA
exact mass=162.10447
ionization energy=70 eV
ion type=[M]+*
computed spectral entropy=2.3828836719089628
computed normalized entropy=0.7497933638361548
SPLASH=splash10-0006-9200000000-fecf48a294c05d37ffd9
submitter=submitter = University of Tokyo Team (Faculty of Engineering, University of Tokyo)
MoNA Rating=3.75

>  <NUM PEAKS>  (2022) 
24

>  <MASS SPECTRAL PEAKS>  (2022) 
27 7.06
29 2.28
38 1.23
39 17.28
40 1.11
41 55.97
42 2.05
43 7.65
50 1.83
51 8.16
57 1.24
63 2.67
65 12.74
71 15.19
77 10.88
78 6.87
79 6.62
89 1.78
91 99.99
92 8.42
103 5.22
104 5.86
105 65.35
106 9.26

>  <PREDICTED SPECTRUM>  (2022) 
15 25
25 14
26 75
27 181
28 23
29 71
30 3
31 26
36 5
37 56
38 128
39 385
40 141
41 529
42 139
43 295
44 43
45 73
49 6
50 135
51 271
52 117
53 107
54 13
57 25
58 118
59 27
61 33
62 101
63 229
64 95
65 344
66 48
69 5
71 598
72 127
73 38
74 40
75 62
77 439
78 277
79 325
80 7
89 59
90 47
91 926
92 421
93 120
102 34
103 266
104 300
105 999
106 365
115 32
162 42

$$$$

     RDKit          2D

 11 11  0  0  0  0  0  0  0  0999 V2000
    2.5987    3.0002    0.0000 C   0  0  0  0  0  0  0  0  0  0  0  0
    3.8981    0.7504    0.0000 C   0  0  0  0  0  0  0  0  0  0  0  0
   -1.3000    0.7500    0.0000 C   0  0  0  0  0  0  0  0  0  0  0  0
   -0.0000   -1.5000    0.0000 C   0  0  0  0  0  0  0  0  0  0  0  0
    0.0000    1.5000    0.0000 C   0  0  0  0  0  0  0  0  0  0  0  0
    1.3000   -0.7500    0.0000 C   0  0  0  0  0  0  0  0  0  0  0  0
   -2.5989   -1.5002    0.0000 C   0  0  0  0  0  0  0  0  0  0  0  0
    2.5989    1.5002    0.0000 C   0  0  0  0  0  0  0  0  0  0  0  0
   -1.3000   -0.7500    0.0000 C   0  0  0  0  0  0  0  0  0  0  0  0
    1.3000    0.7500    0.0000 C   0  0  0  0  0  0  0  0  0  0  0  0
   -3.8981   -0.7504    0.0000 O   0  0  0  0  0  0  0  0  0  0  0  0
  5  3  1  0
  6  4  1  0
  8  1  2  0
  8  2  1  0
  9  3  2  0
  9  4  1  0
  9  7  1  0
 10  5  1  0
 10  6  1  0
 10  8  1  0
 11  7  1  0
M  END
>  <NAME>  (2023) 
PERILLYL ALCOHOL

>  <SYNONYMS>  (2023) 
(4-ISOPROPENYL-1-CYCLOHXENE)METHANOL

>  <SPECTRUM TYPE>  (2023) 
MS1

>  <INSTRUMENT TYPE>  (2023) 
EI-B

>  <INSTRUMENT>  (2023) 
HITACHI M-80B

>  <ION MODE>  (2023) 
P

>  <INCHIKEY>  (2023) 
NDTYTMIUWGWIMO-UHFFFAOYSA-N

>  <FORMULA>  (2023) 
C10H16O

>  <EXACT MASS>  (2023) 
152.120115132

>  <MW>  (2023) 
152

>  <ID>  (2023) 
JP009069

>  <CONTRIBUTOR>  (2023) 
University of Tokyo Team, {Faculty of Engineering, University of Tokyo

>  <COMMENT>  (2023) 
SMILES=OCC(C1)=C([H])CC(C(C)=C)C1
cas=536-59-4
InChI=InChI=1S/C10H16O/c1-8(2)10-5-3-9(7-11)4-6-10/h3,10-11H,1,4-7H2,2H3
computed SMILES=OCC1=CCC(C(=C)C)CC1
accession=JP009069
date=2016.01.19 (Created 2008.10.21, modified 2011.05.06)
author=SODA AROMATIC CO., LTD.
license=CC BY-NC-SA
exact mass=152.12012
ionization energy=70 eV
ion type=[M]+*
computed spectral entropy=3.6668697429210306
computed normalized entropy=0.857413143994668
SPLASH=splash10-00mo-9200000000-6d3cda5b991dc6f0a098
submitter=submitter = University of Tokyo Team (Faculty of Engineering, University of Tokyo)
MoNA Rating=3.75

>  <NUM PEAKS>  (2023) 
72

>  <MASS SPECTRAL PEAKS>  (2023) 
15 1.82
26 1.78
27 30.87
28 9.44
29 19.75
30 1.02
31 18.95
38 2.6
39 53.98
40 14.66
41 65.63
42 8.73
43 13.41
44 1.9
50 4.27
51 14.83
52 6.63
53 42.62
54 6.48
55 48.87
56 15.04
57 6.55
62 1.38
63 4.39
64 1.35
65 15.1
66 9.58
67 63.5
68 99.99
69 19.87
70 8.03
71 3.07
77 34.29
78 9.32
79 91.48
80 16.39
81 26.46
82 5.15
83 20.36
84 5.33
85 1.49
89 1.06
91 46.14
92 17.55
93 65.99
94 13.14
95 10.84
96 3.65
97 1.67
103 2.27
104 1.52
105 18.82
106 20.61
107 7.2
108 18.99
109 21.58
110 4.98
111 1.46
115 1.61
117 2.23
119 28.32
120 2.88
121 54.2
122 5.36
123 3.71
124 2.87
133 1.34
134 9.03
135 1.56
137 1.76
152 15.39
153 1.59

>  <PREDICTED SPECTRUM>  (2023) 
26 59
27 358
28 95
29 323
31 265
37 10
38 76
39 561
40 240
41 825
42 309
43 535
44 168
45 83
49 9
50 148
51 293
52 241
53 580
54 313
55 619
56 359
57 325
58 25
59 90
60 48
61 62
62 95
63 207
64 120
65 382
66 334
67 949
68 806
69 544
70 384
71 258
72 54
74 26
75 100
76 51
77 614
78 366
79 983
80 482
81 734
82 379
83 384
84 339
85 148
86 19
89 72
90 73
91 771
92 519
93 999
94 534
95 467
96 393
97 369
98 191
99 23
102 22
103 155
104 165
105 553
106 424
107 533
108 502
109 599
110 298
111 139
115 135
116 69
117 122
118 28
119 757
120 227
121 732
122 241
123 245
124 169
125 52
133 107
134 654
135 222
136 19
137 244
138 64
151 1
152 555
153 173

$$$$

     RDKit          2D

 16 15  0  0  0  0  0  0  0  0999 V2000
    4.5466    7.8750    0.0000 C   0  0  0  0  0  0  0  0  0  0  0  0
  -13.6399    7.8750    0.0000 C   0  0  0  0  0  0  0  0  0  0  0  0
    3.2476    8.6250    0.0000 C   0  0  0  0  0  0  0  0  0  0  0  0
  -12.3409    8.6250    0.0000 C   0  0  0  0  0  0  0  0  0  0  0  0
    1.9486    7.8750    0.0000 C   0  0  0  0  0  0  0  0  0  0  0  0
    0.6495    8.6250    0.0000 C   0  0  0  0  0  0  0  0  0  0  0  0
   -0.6495    7.8750    0.0000 C   0  0  0  0  0  0  0  0  0  0  0  0
   -1.9486    8.6250    0.0000 C   0  0  0  0  0  0  0  0  0  0  0  0
   -3.2476    7.8750    0.0000 C   0  0  0  0  0  0  0  0  0  0  0  0
   -4.5466    8.6250    0.0000 C   0  0  0  0  0  0  0  0  0  0  0  0
   -5.8457    7.8750    0.0000 C   0  0  0  0  0  0  0  0  0  0  0  0
   -7.1447    8.6250    0.0000 C   0  0  0  0  0  0  0  0  0  0  0  0
  -11.0418    7.8750    0.0000 C   0  0  0  0  0  0  0  0  0  0  0  0
   -8.4437    7.8750    0.0000 C   0  0  0  0  0  0  0  0  0  0  0  0
   -8.4437    6.3750    0.0000 O   0  0  0  0  0  0  0  0  0  0  0  0
   -9.7428    8.6250    0.0000 O   0  0  0  0  0  0  0  0  0  0  0  0
  3  1  1  0
  4  2  2  0
  5  3  1  0
  6  5  1  0
  7  6  1  0
  8  7  1  0
  9  8  1  0
 10  9  1  0
 11 10  1  0
 12 11  1  0
 13  4  1  0
 14 12  1  0
 15 14  2  0
 16 13  1  0
 16 14  1  0
M  END
>  <NAME>  (2024) 
ALLYL UNDECANOATE

>  <SYNONYMS>  (2024) 


>  <SPECTRUM TYPE>  (2024) 
MS1

>  <INSTRUMENT TYPE>  (2024) 
EI-B

>  <INSTRUMENT>  (2024) 
HITACHI M-80B

>  <ION MODE>  (2024) 
P

>  <INCHIKEY>  (2024) 
PSGSIXPTLRADTD-UHFFFAOYSA-N

>  <FORMULA>  (2024) 
C14H26O2

>  <EXACT MASS>  (2024) 
226.193280072

>  <MW>  (2024) 
226

>  <ID>  (2024) 
JP009068

>  <CONTRIBUTOR>  (2024) 
University of Tokyo Team, {Faculty of Engineering, University of Tokyo

>  <COMMENT>  (2024) 
SMILES=CCCCCCCCCCC(=O)OCC=C
InChI=InChI=1S/C14H26O2/c1-3-5-6-7-8-9-10-11-12-14(15)16-13-4-2/h4H,2-3,5-13H2,1H3
computed SMILES=O=C(OCC=C)CCCCCCCCCC
accession=JP009068
date=2016.01.19 (Created 2008.10.21, modified 2011.05.06)
author=SODA AROMATIC CO., LTD.
license=CC BY-NC-SA
exact mass=226.19328
ionization energy=70 eV
ion type=[M]+*
computed spectral entropy=3.2934266799217466
computed normalized entropy=0.8043843476950372
SPLASH=splash10-052f-9200000000-a2a5c3db02fe4caa426e
submitter=submitter = University of Tokyo Team (Faculty of Engineering, University of Tokyo)
MoNA Rating=3.75

>  <NUM PEAKS>  (2024) 
60

>  <MASS SPECTRAL PEAKS>  (2024) 
15 1.27
26 1.52
27 14.95
29 22.26
30 1.01
31 1.04
39 20.63
41 99.99
42 13.12
43 64.36
44 1.28
45 1.59
53 2.77
54 11.14
55 46.37
56 18.02
57 50.07
58 9.22
59 1.79
60 1.37
67 6.28
68 2.62
69 24.77
70 3.6
71 21.98
72 1.72
73 3.1
79 1.34
81 7.45
82 4.87
83 21.1
84 4.9
85 17.16
87 1.41
93 1.37
95 8.69
96 1.49
97 8.3
98 4.15
99 4.24
100 46.51
101 6.33
107 1.27
109 3.9
111 3.65
112 1.15
113 23.65
114 1.91
115 1.19
123 1.01
125 3.1
127 1.97
141 1.11
149 3.46
155 1.6
167 2.07
169 32.45
170 3.49
183 2.62
197 1.19

>  <PREDICTED SPECTRUM>  (2024) 
25 6
26 98
27 359
28 149
29 477
30 39
31 79
36 24
37 48
38 106
39 446
40 213
41 999
42 428
43 880
44 143
45 91
50 53
51 110
52 81
53 287
54 276
55 719
56 407
57 874
58 313
59 148
60 180
61 114
65 119
66 100
67 327
68 306
69 535
70 304
71 517
72 141
73 91
74 74
77 48
78 0
79 179
80 77
81 344
82 192
83 422
84 208
85 352
86 141
87 120
93 128
94 35
95 302
96 165
97 300
98 236
99 437
100 345
101 250
102 39
107 26
109 231
110 77
111 227
112 36
113 268
114 206
115 1
121 4
123 127
124 13
125 97
127 153
128 93
129 32
130 7
137 7
139 56
141 248
142 90
143 9
151 9
155 108
156 33
158 28
167 128
168 62
169 632
170 205
182 20
183 115
184 57
185 59
197 105

$$$$

     RDKit          2D

 14 14  0  0  0  0  0  0  0  0999 V2000
   -6.8197    3.1321    0.0000 C   0  0  0  0  0  0  0  0  0  0  0  0
   -5.5207    5.3821    0.0000 C   0  0  0  0  0  0  0  0  0  0  0  0
    3.5726    1.6321    0.0000 C   0  0  0  0  0  0  0  0  0  0  0  0
    3.5731    3.1329    0.0000 C   0  0  0  0  0  0  0  0  0  0  0  0
    2.2731    0.8813    0.0000 C   0  0  0  0  0  0  0  0  0  0  0  0
    2.2740    3.8829    0.0000 C   0  0  0  0  0  0  0  0  0  0  0  0
    0.9740    1.6313    0.0000 C   0  0  0  0  0  0  0  0  0  0  0  0
   -4.2216    3.1321    0.0000 C   0  0  0  0  0  0  0  0  0  0  0  0
   -2.9226    3.8821    0.0000 C   0  0  0  0  0  0  0  0  0  0  0  0
   -5.5207    3.8821    0.0000 C   0  0  0  0  0  0  0  0  0  0  0  0
    0.9745    3.1321    0.0000 C   0  0  0  0  0  0  0  0  0  0  0  0
   -0.3245    3.8821    0.0000 C   0  0  0  0  0  0  0  0  0  0  0  0
   -0.3245    5.3821    0.0000 O   0  0  0  0  0  0  0  0  0  0  0  0
   -1.6236    3.1321    0.0000 O   0  0  0  0  0  0  0  0  0  0  0  0
  4  3  2  0
  5  3  1  0
  6  4  1  0
  7  5  2  0
  9  8  1  0
 10  1  1  0
 10  2  1  0
 10  8  2  0
 11  6  2  0
 11  7  1  0
 12 11  1  0
 13 12  2  0
 14  9  1  0
 14 12  1  0
M  END
>  <NAME>  (2025) 
3-METHYL-2-BUTENYL BENZOATE

>  <SYNONYMS>  (2025) 


>  <SPECTRUM TYPE>  (2025) 
MS1

>  <INSTRUMENT TYPE>  (2025) 
EI-B

>  <INSTRUMENT>  (2025) 
HITACHI M-80B

>  <ION MODE>  (2025) 
P

>  <INCHIKEY>  (2025) 
INVWRXWYYVMFQC-UHFFFAOYSA-N

>  <FORMULA>  (2025) 
C12H14O2

>  <EXACT MASS>  (2025) 
190.099379688

>  <MW>  (2025) 
190

>  <ID>  (2025) 
JP009067

>  <CONTRIBUTOR>  (2025) 
University of Tokyo Team, {Faculty of Engineering, University of Tokyo

>  <COMMENT>  (2025) 
SMILES=CC(C)=CCOC(=O)c(c1)cccc1
InChI=InChI=1S/C12H14O2/c1-10(2)8-9-14-12(13)11-6-4-3-5-7-11/h3-8H,9H2,1-2H3
computed SMILES=O=C(OCC=C(C)C)C=1C=CC=CC1
accession=JP009067
date=2016.01.19 (Created 2008.10.21, modified 2011.05.06)
author=SODA AROMATIC CO., LTD.
license=CC BY-NC-SA
exact mass=190.09938
ionization energy=70 eV
ion type=[M]+*
computed spectral entropy=2.712390597146816
computed normalized entropy=0.7629043767969474
SPLASH=splash10-066r-9200000000-ff260d9f3b3a70eb5fad
submitter=submitter = University of Tokyo Team (Faculty of Engineering, University of Tokyo)
MoNA Rating=3.75

>  <NUM PEAKS>  (2025) 
35

>  <MASS SPECTRAL PEAKS>  (2025) 
26 1.92
27 14.68
29 5.68
37 1.72
38 3.86
39 25.41
41 45.15
42 5.85
43 1.9
50 8.01
51 22.43
52 3.32
53 25.86
54 2.01
55 1.92
62 1.06
63 1.25
65 2.66
66 2.19
67 37.01
68 71.83
69 37.82
70 2.18
74 1.52
76 2.03
77 41.03
78 3.58
79 1.83
85 5.55
105 99.99
106 6.63
122 1.79
123 2.53
131 1.34
190 2.32

>  <PREDICTED SPECTRUM>  (2025) 
26 16
27 92
29 32
36 3
37 33
38 61
39 216
40 141
41 451
42 169
43 47
44 46
49 31
50 193
51 325
52 129
53 188
54 30
62 38
63 49
65 75
66 35
67 388
68 592
69 524
70 179
74 45
75 102
76 145
77 577
78 184
79 44
85 30
104 16
105 999
106 245
107 22
121 60
122 321
123 404
124 106
190 129
191 45

$$$$

     RDKit          2D

 12 11  0  0  0  0  0  0  0  0999 V2000
    2.2733    4.3125    0.0000 C   0  0  0  0  0  0  0  0  0  0  0  0
    0.9743    2.0625    0.0000 C   0  0  0  0  0  0  0  0  0  0  0  0
   -6.8200    5.0625    0.0000 C   0  0  0  0  0  0  0  0  0  0  0  0
   -5.5209    2.8125    0.0000 C   0  0  0  0  0  0  0  0  0  0  0  0
    0.9743    5.0625    0.0000 C   0  0  0  0  0  0  0  0  0  0  0  0
   -0.3248    2.8125    0.0000 C   0  0  0  0  0  0  0  0  0  0  0  0
   -4.2219    5.0625    0.0000 C   0  0  0  0  0  0  0  0  0  0  0  0
   -5.5209    4.3125    0.0000 C   0  0  0  0  0  0  0  0  0  0  0  0
   -0.3248    4.3125    0.0000 C   0  0  0  0  0  0  0  0  0  0  0  0
   -1.6238    5.0625    0.0000 C   0  0  0  0  0  0  0  0  0  0  0  0
   -1.6238    6.5625    0.0000 O   0  0  0  0  0  0  0  0  0  0  0  0
   -2.9228    4.3125    0.0000 O   0  0  0  0  0  0  0  0  0  0  0  0
  5  1  1  0
  6  2  1  0
  8  3  1  0
  8  4  1  0
  8  7  1  0
  9  5  1  0
  9  6  1  0
 10  9  1  0
 11 10  2  0
 12  7  1  0
 12 10  1  0
M  END
>  <NAME>  (2026) 
ISOBUTYL 2-ETHYLBUTYRATE

>  <SYNONYMS>  (2026) 


>  <SPECTRUM TYPE>  (2026) 
MS1

>  <INSTRUMENT TYPE>  (2026) 
EI-B

>  <INSTRUMENT>  (2026) 
HITACHI M-80B

>  <ION MODE>  (2026) 
P

>  <INCHIKEY>  (2026) 
SAWRJLRKAZYKPM-UHFFFAOYSA-N

>  <FORMULA>  (2026) 
C10H20O2

>  <EXACT MASS>  (2026) 
172.14632988

>  <MW>  (2026) 
172

>  <ID>  (2026) 
JP009066

>  <CONTRIBUTOR>  (2026) 
University of Tokyo Team, {Faculty of Engineering, University of Tokyo

>  <COMMENT>  (2026) 
SMILES=CCC(CC)C(=O)OCC(C)C
InChI=InChI=1S/C10H20O2/c1-5-9(6-2)10(11)12-7-8(3)4/h8-9H,5-7H2,1-4H3
computed SMILES=O=C(OCC(C)C)C(CC)CC
accession=JP009066
date=2016.01.19 (Created 2008.10.21, modified 2011.05.06)
author=SODA AROMATIC CO., LTD.
license=CC BY-NC-SA
exact mass=172.14633
ionization energy=70 eV
ion type=[M]+*
computed spectral entropy=2.8124359776041077
computed normalized entropy=0.8043557544673337
SPLASH=splash10-0597-9100000000-e7c7a670d084df982638
submitter=submitter = University of Tokyo Team (Faculty of Engineering, University of Tokyo)
MoNA Rating=3.75

>  <NUM PEAKS>  (2026) 
33

>  <MASS SPECTRAL PEAKS>  (2026) 
15 1.12
26 1.12
27 28.03
29 47.78
31 1.87
39 22.02
40 1.3
41 65.9
42 10.78
43 91.12
44 3.04
45 2.54
53 3.38
55 25.83
56 68.37
57 65.25
58 3.03
69 4.1
70 7.75
71 99.99
72 6.31
73 9.9
87 17.48
88 33.72
89 3.8
99 94.48
100 6.42
101 3.44
116 2.54
117 64.46
118 4.31
129 1.32
144 8.46

>  <PREDICTED SPECTRUM>  (2026) 
25 12
26 112
27 379
28 154
29 513
30 21
31 60
37 18
38 54
39 314
40 147
41 686
42 376
43 909
44 227
45 295
50 29
51 3
52 19
53 172
54 182
55 547
56 718
57 778
58 60
59 60
60 94
67 92
69 425
70 109
71 837
72 274
73 506
74 44
75 26
84 35
86 29
87 503
88 596
89 287
90 64
99 832
100 287
101 294
115 88
116 193
117 999
118 196
129 8
143 5
144 256
145 32

$$$$

     RDKit          2D

 16 16  0  0  0  0  0  0  0  0999 V2000
    5.5216    4.2579    0.0000 C   0  0  0  0  0  0  0  0  0  0  0  0
    4.2226    5.0079    0.0000 C   0  0  0  0  0  0  0  0  0  0  0  0
    2.9236    4.2579    0.0000 C   0  0  0  0  0  0  0  0  0  0  0  0
    1.6245    5.0079    0.0000 C   0  0  0  0  0  0  0  0  0  0  0  0
   -8.7678    6.5079    0.0000 C   0  0  0  0  0  0  0  0  0  0  0  0
   -8.7683    5.0071    0.0000 C   0  0  0  0  0  0  0  0  0  0  0  0
   -7.4683    7.2587    0.0000 C   0  0  0  0  0  0  0  0  0  0  0  0
    0.3255    4.2579    0.0000 C   0  0  0  0  0  0  0  0  0  0  0  0
   -7.4692    4.2571    0.0000 C   0  0  0  0  0  0  0  0  0  0  0  0
   -6.1692    6.5087    0.0000 C   0  0  0  0  0  0  0  0  0  0  0  0
   -0.9736    5.0079    0.0000 C   0  0  0  0  0  0  0  0  0  0  0  0
   -4.8707    4.2579    0.0000 C   0  0  0  0  0  0  0  0  0  0  0  0
   -6.1697    5.0079    0.0000 C   0  0  0  0  0  0  0  0  0  0  0  0
   -2.2726    4.2579    0.0000 C   0  0  0  0  0  0  0  0  0  0  0  0
   -2.2726    2.7579    0.0000 O   0  0  0  0  0  0  0  0  0  0  0  0
   -3.5716    5.0079    0.0000 O   0  0  0  0  0  0  0  0  0  0  0  0
  2  1  1  0
  3  2  1  0
  4  3  1  0
  6  5  2  0
  7  5  1  0
  8  4  1  0
  9  6  1  0
 10  7  2  0
 11  8  1  0
 13  9  2  0
 13 10  1  0
 13 12  1  0
 14 11  1  0
 15 14  2  0
 16 12  1  0
 16 14  1  0
M  END
>  <NAME>  (2027) 
BENZYL HEPTANOATE

>  <SYNONYMS>  (2027) 


>  <SPECTRUM TYPE>  (2027) 
MS1

>  <INSTRUMENT TYPE>  (2027) 
EI-B

>  <INSTRUMENT>  (2027) 
HITACHI M-80B

>  <ION MODE>  (2027) 
P

>  <INCHIKEY>  (2027) 
UEDDAJQIHUEZCJ-UHFFFAOYSA-N

>  <FORMULA>  (2027) 
C14H20O2

>  <EXACT MASS>  (2027) 
220.14632988

>  <MW>  (2027) 
220

>  <ID>  (2027) 
JP009065

>  <CONTRIBUTOR>  (2027) 
University of Tokyo Team, {Faculty of Engineering, University of Tokyo

>  <COMMENT>  (2027) 
SMILES=CCCCCCC(=O)OCc(c1)cccc1
InChI=InChI=1S/C14H20O2/c1-2-3-4-8-11-14(15)16-12-13-9-6-5-7-10-13/h5-7,9-10H,2-4,8,11-12H2,1H3
computed SMILES=O=C(OCC=1C=CC=CC1)CCCCCC
accession=JP009065
date=2016.01.19 (Created 2008.10.21, modified 2011.05.06)
author=SODA AROMATIC CO., LTD.
license=CC BY-NC-SA
exact mass=220.14633
ionization energy=70 eV
ion type=[M]+*
computed spectral entropy=2.8672801041132754
computed normalized entropy=0.8001297477022928
SPLASH=splash10-0006-9200000000-51f5bd61cbb4775a4ecb
submitter=submitter = University of Tokyo Team (Faculty of Engineering, University of Tokyo)
MoNA Rating=3.75

>  <NUM PEAKS>  (2027) 
36

>  <MASS SPECTRAL PEAKS>  (2027) 
27 9.89
28 4.54
29 11.07
39 10.09
41 17.79
42 3.53
43 29.1
50 1.2
51 4.94
52 1.52
53 1.28
55 7.2
56 1.37
57 3.8
63 2.24
65 13.36
69 6.07
77 7.59
78 1.76
79 7.06
83 8.51
85 5.72
87 1
89 3.86
90 9.54
91 99.99
92 20.03
93 1.18
105 2.08
107 4.87
108 45.54
109 3.4
111 5.9
113 9.11
129 5.9
220 2.68

>  <PREDICTED SPECTRUM>  (2027) 
18 12
25 1
26 50
27 186
28 71
29 147
32 2
36 5
38 47
39 245
40 99
41 412
42 252
43 524
44 140
45 77
50 126
51 225
52 148
53 118
54 55
55 284
56 198
57 264
58 99
59 14
60 23
61 7
62 52
63 153
64 105
65 363
66 87
67 99
68 66
69 197
70 63
71 64
74 79
75 38
76 30
77 274
78 180
79 338
80 95
81 90
82 35
83 107
84 13
85 89
86 64
87 37
89 220
90 282
91 999
92 439
93 191
94 52
95 104
96 33
97 93
101 5
102 8
104 18
105 208
107 425
108 808
109 160
110 30
111 143
112 169
113 232
114 199
115 135
117 9
118 6
119 18
129 228
130 76
150 28
160 1
220 189
221 63

$$$$

     RDKit          2D

 13 12  0  0  0  0  0  0  0  0999 V2000
  -10.3923    6.7500    0.0000 C   0  0  0  0  0  0  0  0  0  0  0  0
    3.8971    6.0000    0.0000 C   0  0  0  0  0  0  0  0  0  0  0  0
   -9.0933    6.0000    0.0000 C   0  0  0  0  0  0  0  0  0  0  0  0
    2.5981    6.7500    0.0000 C   0  0  0  0  0  0  0  0  0  0  0  0
   -7.7942    6.7500    0.0000 C   0  0  0  0  0  0  0  0  0  0  0  0
    1.2990    6.0000    0.0000 C   0  0  0  0  0  0  0  0  0  0  0  0
   -6.4952    6.0000    0.0000 C   0  0  0  0  0  0  0  0  0  0  0  0
   -3.8971    6.0000    0.0000 C   0  0  0  0  0  0  0  0  0  0  0  0
   -2.5981    6.7500    0.0000 C   0  0  0  0  0  0  0  0  0  0  0  0
    0.0000    6.7500    0.0000 C   0  0  0  0  0  0  0  0  0  0  0  0
    0.0000    8.2500    0.0000 O   0  0  0  0  0  0  0  0  0  0  0  0
   -5.1962    6.7500    0.0000 O   0  0  0  0  0  0  0  0  0  0  0  0
   -1.2990    6.0000    0.0000 O   0  0  0  0  0  0  0  0  0  0  0  0
  3  1  1  0
  4  2  1  0
  5  3  1  0
  6  4  1  0
  7  5  1  0
  9  8  1  0
 10  6  1  0
 11 10  2  0
 12  7  1  0
 12  8  1  0
 13  9  1  0
 13 10  1  0
M  END
>  <NAME>  (2028) 
2-BUTOXYETHYL BUTYRATE

>  <SYNONYMS>  (2028) 


>  <SPECTRUM TYPE>  (2028) 
MS1

>  <INSTRUMENT TYPE>  (2028) 
EI-B

>  <INSTRUMENT>  (2028) 
HITACHI M-80B

>  <ION MODE>  (2028) 
P

>  <INCHIKEY>  (2028) 
JWIUNFHJMLAEPS-UHFFFAOYSA-N

>  <FORMULA>  (2028) 
C10H20O3

>  <EXACT MASS>  (2028) 
188.14124449999997

>  <MW>  (2028) 
188

>  <ID>  (2028) 
JP009064

>  <CONTRIBUTOR>  (2028) 
University of Tokyo Team, {Faculty of Engineering, University of Tokyo

>  <COMMENT>  (2028) 
SMILES=CCCCOCCOC(=O)CCC
InChI=InChI=1S/C10H20O3/c1-3-5-7-12-8-9-13-10(11)6-4-2/h3-9H2,1-2H3
computed SMILES=O=C(OCCOCCCC)CCC
accession=JP009064
date=2016.01.19 (Created 2008.10.21, modified 2011.05.06)
author=SODA AROMATIC CO., LTD.
license=CC BY-NC-SA
exact mass=188.14124
ionization energy=70 eV
ion type=[M]+*
computed spectral entropy=2.8955136588076393
computed normalized entropy=0.7959986462631131
SPLASH=splash10-0a4l-9000000000-cbfe3567b914a69dfb7a
submitter=submitter = University of Tokyo Team (Faculty of Engineering, University of Tokyo)
MoNA Rating=3.75

>  <NUM PEAKS>  (2028) 
38

>  <MASS SPECTRAL PEAKS>  (2028) 
15 1.96
26 1.6
27 25.88
28 4.95
29 33
30 1.27
31 2.59
39 10.61
40 1.2
41 48.99
42 10.87
43 68.4
44 13.93
45 15.6
55 7.81
56 76.58
57 99.99
58 8
60 1.77
63 1.09
69 1.1
70 1.9
71 83.68
72 5.42
73 4.47
74 1.83
85 34.79
86 5.89
87 13.18
88 8.2
89 10.58
99 1.13
100 13.25
101 4.35
102 1.07
115 16.84
116 9.6
117 4.96

>  <PREDICTED SPECTRUM>  (2028) 
14 20
15 93
18 12
19 37
25 5
26 108
27 350
28 291
29 485
30 173
31 181
32 30
38 26
39 254
40 99
41 589
42 275
43 645
44 263
45 537
46 53
47 22
50 27
51 51
52 14
53 80
54 53
55 284
56 544
57 999
58 337
59 184
60 145
61 128
62 65
63 14
68 20
69 155
70 229
71 895
72 387
73 310
74 104
75 240
76 25
82 54
83 118
84 93
85 490
86 196
87 329
88 207
89 328
90 85
97 0
99 42
100 407
101 366
102 124
103 39
113 77
114 68
115 483
116 211
117 111
118 23
129 1
131 25
132 11
133 54
145 28
189 9

$$$$

     RDKit          2D

 11 10  0  0  0  0  0  0  0  0999 V2000
   -7.4695    3.9375    0.0000 C   0  0  0  0  0  0  0  0  0  0  0  0
    1.6238    3.1875    0.0000 C   0  0  0  0  0  0  0  0  0  0  0  0
    0.3248    5.4375    0.0000 C   0  0  0  0  0  0  0  0  0  0  0  0
   -4.8714    5.4375    0.0000 C   0  0  0  0  0  0  0  0  0  0  0  0
   -6.1704    3.1875    0.0000 C   0  0  0  0  0  0  0  0  0  0  0  0
   -3.5724    3.1875    0.0000 C   0  0  0  0  0  0  0  0  0  0  0  0
    0.3248    3.9375    0.0000 C   0  0  0  0  0  0  0  0  0  0  0  0
   -4.8714    3.9375    0.0000 C   0  0  0  0  0  0  0  0  0  0  0  0
   -0.9743    3.1875    0.0000 C   0  0  0  0  0  0  0  0  0  0  0  0
   -0.9743    1.6875    0.0000 O   0  0  0  0  0  0  0  0  0  0  0  0
   -2.2733    3.9375    0.0000 O   0  0  0  0  0  0  0  0  0  0  0  0
  5  1  1  0
  7  2  1  0
  7  3  1  0
  8  4  1  0
  8  5  1  0
  8  6  1  0
  9  7  1  0
 10  9  2  0
 11  6  1  0
 11  9  1  0
M  END
>  <NAME>  (2029) 
2-METHYLBUTYL ISOBUTYRATE

>  <SYNONYMS>  (2029) 


>  <SPECTRUM TYPE>  (2029) 
MS1

>  <INSTRUMENT TYPE>  (2029) 
EI-B

>  <INSTRUMENT>  (2029) 
HITACHI M-80B

>  <ION MODE>  (2029) 
P

>  <INCHIKEY>  (2029) 
DUAXUBMIVRZGCO-UHFFFAOYSA-N

>  <FORMULA>  (2029) 
C9H18O2

>  <EXACT MASS>  (2029) 
158.130679816

>  <MW>  (2029) 
158

>  <ID>  (2029) 
JP009063

>  <CONTRIBUTOR>  (2029) 
University of Tokyo Team, {Faculty of Engineering, University of Tokyo

>  <COMMENT>  (2029) 
SMILES=CCC(C)COC(=O)C(C)C
cas=2445-69-4
InChI=InChI=1S/C9H18O2/c1-5-8(4)6-11-9(10)7(2)3/h7-8H,5-6H2,1-4H3
computed SMILES=O=C(OCC(C)CC)C(C)C
accession=JP009063
date=2016.01.19 (Created 2008.10.21, modified 2011.05.06)
author=SODA AROMATIC CO., LTD.
license=CC BY-NC-SA
exact mass=158.13068
ionization energy=70 eV
ion type=[M]+*
computed spectral entropy=2.0819591086134914
computed normalized entropy=0.6735459444601
SPLASH=splash10-00dl-9000000000-fe6158430ffd9a69ec68
submitter=submitter = University of Tokyo Team (Faculty of Engineering, University of Tokyo)
MoNA Rating=3.75

>  <NUM PEAKS>  (2029) 
22

>  <MASS SPECTRAL PEAKS>  (2029) 
31 1.56
32 1.93
39 7.65
41 24.45
42 9.53
43 99.99
44 2.29
45 2.11
53 1.45
55 14.62
56 2.1
57 5.71
69 1.54
70 60.76
71 89.11
72 3.36
73 1.65
85 4.35
87 1.44
88 1.65
89 7.14
101 4.42

>  <PREDICTED SPECTRUM>  (2029) 
26 29
27 194
28 17
29 225
31 34
36 9
39 235
40 89
41 532
42 401
43 942
44 181
45 222
53 95
54 80
55 538
56 270
57 225
58 11
59 11
69 105
70 999
71 879
72 213
73 136
86 5
87 94
88 116
89 548
90 51
101 80
102 46
103 33
115 75

$$$$

     RDKit          2D

 10  9  0  0  0  0  0  0  0  0999 V2000
   -6.4952    4.5000    0.0000 C   0  0  0  0  0  0  0  0  0  0  0  0
    2.5981    3.7500    0.0000 C   0  0  0  0  0  0  0  0  0  0  0  0
   -3.8971    6.0000    0.0000 C   0  0  0  0  0  0  0  0  0  0  0  0
   -5.1962    3.7500    0.0000 C   0  0  0  0  0  0  0  0  0  0  0  0
    1.2990    4.5000    0.0000 C   0  0  0  0  0  0  0  0  0  0  0  0
   -2.5981    3.7500    0.0000 C   0  0  0  0  0  0  0  0  0  0  0  0
   -3.8971    4.5000    0.0000 C   0  0  0  0  0  0  0  0  0  0  0  0
    0.0000    3.7500    0.0000 C   0  0  0  0  0  0  0  0  0  0  0  0
   -0.0000    2.2500    0.0000 O   0  0  0  0  0  0  0  0  0  0  0  0
   -1.2990    4.5000    0.0000 O   0  0  0  0  0  0  0  0  0  0  0  0
  4  1  1  0
  5  2  1  0
  7  3  1  0
  7  4  1  0
  7  6  1  0
  8  5  1  0
  9  8  2  0
 10  6  1  0
 10  8  1  0
M  END
>  <NAME>  (2030) 
2-METHYLBUTYL PROPIONATE

>  <SYNONYMS>  (2030) 


>  <SPECTRUM TYPE>  (2030) 
MS1

>  <INSTRUMENT TYPE>  (2030) 
EI-B

>  <INSTRUMENT>  (2030) 
HITACHI M-80B

>  <ION MODE>  (2030) 
P

>  <INCHIKEY>  (2030) 
MVJLYXCJBPXRCY-UHFFFAOYSA-N

>  <FORMULA>  (2030) 
C8H16O2

>  <EXACT MASS>  (2030) 
144.115029752

>  <MW>  (2030) 
144

>  <ID>  (2030) 
JP009062

>  <CONTRIBUTOR>  (2030) 
University of Tokyo Team, {Faculty of Engineering, University of Tokyo

>  <COMMENT>  (2030) 
SMILES=CCC(C)COC(=O)CC
InChI=InChI=1S/C8H16O2/c1-4-7(3)6-10-8(9)5-2/h7H,4-6H2,1-3H3
computed SMILES=O=C(OCC(C)CC)CC
accession=JP009062
date=2016.01.19 (Created 2008.10.21, modified 2011.05.06)
author=SODA AROMATIC CO., LTD.
license=CC BY-NC-SA
exact mass=144.11503
ionization energy=70 eV
ion type=[M]+*
computed spectral entropy=2.323616080939579
computed normalized entropy=0.7410685272946725
SPLASH=splash10-0a6r-9000000000-cfabe23a13a6a4a0e5d6
submitter=submitter = University of Tokyo Team (Faculty of Engineering, University of Tokyo)
MoNA Rating=3.75

>  <NUM PEAKS>  (2030) 
23

>  <MASS SPECTRAL PEAKS>  (2030) 
26 1.81
27 17.86
28 4.84
29 43.63
30 1.06
31 2.45
39 6.23
40 1
41 12.89
42 8.76
43 15.51
45 1.81
55 14.29
56 3.36
57 99.99
58 3.07
70 36.83
71 5.6
75 3.64
85 2.71
86 1.67
87 7.73
88 1.82

>  <PREDICTED SPECTRUM>  (2030) 
26 62
27 238
28 86
29 423
30 29
31 105
39 172
40 49
41 464
42 255
43 443
44 51
45 32
46 11
47 30
50 9
51 24
52 8
53 73
54 34
55 314
56 408
57 999
58 261
59 16
69 41
70 633
71 503
72 170
73 116
74 80
75 143
76 3
87 63
88 78
89 199
115 76

$$$$

     RDKit          2D

 13 12  0  0  0  0  0  0  0  0999 V2000
   -9.7428    5.6250    0.0000 C   0  0  0  0  0  0  0  0  0  0  0  0
    3.2476    5.6250    0.0000 C   0  0  0  0  0  0  0  0  0  0  0  0
    0.6495    7.1250    0.0000 C   0  0  0  0  0  0  0  0  0  0  0  0
   -8.4437    4.8750    0.0000 C   0  0  0  0  0  0  0  0  0  0  0  0
    1.9486    4.8750    0.0000 C   0  0  0  0  0  0  0  0  0  0  0  0
   -7.1447    5.6250    0.0000 C   0  0  0  0  0  0  0  0  0  0  0  0
   -5.8457    4.8750    0.0000 C   0  0  0  0  0  0  0  0  0  0  0  0
   -4.5466    5.6250    0.0000 C   0  0  0  0  0  0  0  0  0  0  0  0
   -0.6495    4.8750    0.0000 C   0  0  0  0  0  0  0  0  0  0  0  0
    0.6495    5.6250    0.0000 C   0  0  0  0  0  0  0  0  0  0  0  0
   -3.2476    4.8750    0.0000 C   0  0  0  0  0  0  0  0  0  0  0  0
   -3.2476    3.3750    0.0000 O   0  0  0  0  0  0  0  0  0  0  0  0
   -1.9486    5.6250    0.0000 O   0  0  0  0  0  0  0  0  0  0  0  0
  4  1  1  0
  5  2  1  0
  6  4  1  0
  7  6  1  0
  8  7  1  0
 10  3  1  0
 10  5  1  0
 10  9  1  0
 11  8  1  0
 12 11  2  0
 13  9  1  0
 13 11  1  0
M  END
>  <NAME>  (2031) 
2-METHYLBUTYL HEXANOATE

>  <SYNONYMS>  (2031) 


>  <SPECTRUM TYPE>  (2031) 
MS1

>  <INSTRUMENT TYPE>  (2031) 
EI-B

>  <INSTRUMENT>  (2031) 
HITACHI M-80B

>  <ION MODE>  (2031) 
P

>  <INCHIKEY>  (2031) 
ZWMQVDONBUJJLL-UHFFFAOYSA-N

>  <FORMULA>  (2031) 
C11H22O2

>  <EXACT MASS>  (2031) 
186.161979944

>  <MW>  (2031) 
186

>  <ID>  (2031) 
JP009061

>  <CONTRIBUTOR>  (2031) 
University of Tokyo Team, {Faculty of Engineering, University of Tokyo

>  <COMMENT>  (2031) 
SMILES=CCCCCC(=O)OCC(C)CC
cas=2601-13-0
InChI=InChI=1S/C11H22O2/c1-4-6-7-8-11(12)13-9-10(3)5-2/h10H,4-9H2,1-3H3
computed SMILES=O=C(OCC(C)CC)CCCCC
accession=JP009061
date=2016.01.19 (Created 2008.10.21, modified 2011.05.06)
author=SODA AROMATIC CO., LTD.
license=CC BY-NC-SA
exact mass=186.16198
ionization energy=70 eV
ion type=[M]+*
computed spectral entropy=2.5899113892470633
computed normalized entropy=0.7541994873668627
SPLASH=splash10-00dm-9000000000-20aa570a85d13750ee19
submitter=submitter = University of Tokyo Team (Faculty of Engineering, University of Tokyo)
MoNA Rating=3.75

>  <NUM PEAKS>  (2031) 
31

>  <MASS SPECTRAL PEAKS>  (2031) 
27 15.45
29 25.43
31 1.65
39 10.8
41 31.05
42 15.97
43 72.17
44 1.85
45 2.82
53 1.95
55 26.11
56 4.78
57 6.38
60 11.21
61 2.08
69 4.41
70 99.99
71 53.1
72 3.36
73 6.7
74 1.16
85 1.08
87 5.15
99 94.44
100 6.35
101 1.01
115 1.19
116 3.64
117 10.21
129 1.17
130 1.14

>  <PREDICTED SPECTRUM>  (2031) 
14 3
25 18
26 149
27 510
28 168
29 659
30 100
31 189
36 10
37 27
38 88
39 465
40 201
41 694
42 525
43 973
44 184
45 149
50 40
51 52
52 66
53 245
54 196
55 586
56 21
57 444
58 129
59 59
60 286
61 136
67 57
68 142
69 299
70 999
71 835
72 281
73 442
74 139
81 35
83 10
86 34
87 255
88 120
99 899
100 420
101 89
115 57
116 153
117 449
118 81
129 44
130 125
131 95
157 31

$$$$

     RDKit          2D

 15 15  0  0  0  0  0  0  0  0999 V2000
   -6.8197    3.1321    0.0000 C   0  0  0  0  0  0  0  0  0  0  0  0
   -4.2216    7.6321    0.0000 C   0  0  0  0  0  0  0  0  0  0  0  0
   -5.5207    3.8821    0.0000 C   0  0  0  0  0  0  0  0  0  0  0  0
   -4.2216    6.1321    0.0000 C   0  0  0  0  0  0  0  0  0  0  0  0
    3.5726    1.6321    0.0000 C   0  0  0  0  0  0  0  0  0  0  0  0
    3.5731    3.1329    0.0000 C   0  0  0  0  0  0  0  0  0  0  0  0
    2.2731    0.8813    0.0000 C   0  0  0  0  0  0  0  0  0  0  0  0
    2.2740    3.8829    0.0000 C   0  0  0  0  0  0  0  0  0  0  0  0
    0.9740    1.6313    0.0000 C   0  0  0  0  0  0  0  0  0  0  0  0
   -0.3245    3.8821    0.0000 C   0  0  0  0  0  0  0  0  0  0  0  0
   -1.6236    3.1321    0.0000 C   0  0  0  0  0  0  0  0  0  0  0  0
    0.9745    3.1321    0.0000 C   0  0  0  0  0  0  0  0  0  0  0  0
   -2.9226    3.8821    0.0000 C   0  0  0  0  0  0  0  0  0  0  0  0
   -4.2216    3.1321    0.0000 O   0  0  0  0  0  0  0  0  0  0  0  0
   -2.9226    5.3821    0.0000 O   0  0  0  0  0  0  0  0  0  0  0  0
  3  1  1  0
  4  2  1  0
  6  5  2  0
  7  5  1  0
  8  6  1  0
  9  7  2  0
 11 10  1  0
 12  8  2  0
 12  9  1  0
 12 10  1  0
 13 11  1  0
 14  3  1  0
 14 13  1  0
 15  4  1  0
 15 13  1  0
M  END
>  <NAME>  (2032) 
3-PHENYLPROPANAL DIETHYL ACETAL

>  <SYNONYMS>  (2032) 


>  <SPECTRUM TYPE>  (2032) 
MS1

>  <INSTRUMENT TYPE>  (2032) 
EI-B

>  <INSTRUMENT>  (2032) 
HITACHI M-80B

>  <ION MODE>  (2032) 
P

>  <INCHIKEY>  (2032) 
PUAHZQALAWRSNP-UHFFFAOYSA-N

>  <FORMULA>  (2032) 
C13H20O2

>  <EXACT MASS>  (2032) 
208.14632988

>  <MW>  (2032) 
208

>  <ID>  (2032) 
JP009060

>  <CONTRIBUTOR>  (2032) 
University of Tokyo Team, {Faculty of Engineering, University of Tokyo

>  <COMMENT>  (2032) 
SMILES=CCOC(OCC)CCc(c1)cccc1
InChI=InChI=1S/C13H20O2/c1-3-14-13(15-4-2)11-10-12-8-6-5-7-9-12/h5-9,13H,3-4,10-11H2,1-2H3
computed SMILES=O(CC)C(OCC)CCC=1C=CC=CC1
accession=JP009060
date=2016.01.19 (Created 2008.10.21, modified 2011.05.06)
author=SODA AROMATIC CO., LTD.
license=CC BY-NC-SA
exact mass=208.14633
ionization energy=70 eV
ion type=[M]+*
computed spectral entropy=3.166919160333277
computed normalized entropy=0.7976539834573304
SPLASH=splash10-0f97-9600000000-1b05e5ce19f044de251b
submitter=submitter = University of Tokyo Team (Faculty of Engineering, University of Tokyo)
MoNA Rating=3.75

>  <NUM PEAKS>  (2032) 
53

>  <MASS SPECTRAL PEAKS>  (2032) 
15 1.72
29 32.32
30 1.19
31 12.4
39 7.85
41 1.94
43 6.56
44 7.47
45 7.39
46 1.49
47 61.19
50 2.36
51 9.94
52 2.09
53 1.3
55 5.29
57 4.23
59 1.25
63 3.39
64 1.03
65 13.44
72 1.99
74 1.02
75 49.25
76 2.46
77 19.68
78 15.05
79 10.7
89 3.3
90 1.57
91 99.99
92 19.36
93 1.14
102 1.66
103 92.2
104 8.98
105 39.54
106 3.27
107 1.35
115 7.99
116 5
117 29.91
118 9.92
119 6.66
130 1.76
131 1.11
133 15.44
134 3.09
135 1.41
161 1.4
162 32.99
163 17.15
164 1.81

>  <PREDICTED SPECTRUM>  (2032) 
14 9
15 69
18 5
19 14
26 50
27 228
28 12
29 317
30 31
31 155
37 25
38 85
39 316
40 127
41 263
42 123
43 286
44 157
45 259
46 77
47 676
48 93
49 47
50 144
51 285
52 138
53 141
54 2
55 66
57 100
58 4
59 184
60 13
61 186
62 79
63 207
64 64
65 394
66 112
71 135
73 4
74 33
75 658
76 169
77 474
78 280
79 301
80 28
81 0
83 17
85 61
87 26
88 0
89 276
90 75
91 999
92 401
93 125
102 71
103 947
104 454
105 638
106 133
107 139
115 320
116 150
117 547
118 262
119 106
120 40
133 313
134 202
135 144
151 18
161 8
162 263
163 364
164 134
208 18

$$$$

     RDKit          2D

  8  7  0  0  0  0  0  0  0  0999 V2000
   -6.4952    4.5000    0.0000 C   0  0  0  0  0  0  0  0  0  0  0  0
    1.2990    4.5000    0.0000 C   0  0  0  0  0  0  0  0  0  0  0  0
    0.0000    3.7500    0.0000 C   0  0  0  0  0  0  0  0  0  0  0  0
   -3.8971    4.5000    0.0000 C   0  0  0  0  0  0  0  0  0  0  0  0
   -2.5981    3.7500    0.0000 C   0  0  0  0  0  0  0  0  0  0  0  0
    2.5981    3.7500    0.0000 O   0  0  0  0  0  0  0  0  0  0  0  0
   -5.1962    3.7500    0.0000 O   0  0  0  0  0  0  0  0  0  0  0  0
   -1.2990    4.5000    0.0000 O   0  0  0  0  0  0  0  0  0  0  0  0
  3  2  1  0
  5  4  1  0
  6  2  1  0
  7  1  1  0
  7  4  1  0
  8  3  1  0
  8  5  1  0
M  END
>  <NAME>  (2033) 
DIETHYLENE GLYCOL MONOMETHYL ETHER

>  <SYNONYMS>  (2033) 
2-(2-METHOXYETHOXY)ETHNOL

>  <SPECTRUM TYPE>  (2033) 
MS1

>  <INSTRUMENT TYPE>  (2033) 
EI-B

>  <INSTRUMENT>  (2033) 
HITACHI M-80B

>  <ION MODE>  (2033) 
P

>  <INCHIKEY>  (2033) 
SBASXUCJHJRPEV-UHFFFAOYSA-N

>  <FORMULA>  (2033) 
C5H12O3

>  <EXACT MASS>  (2033) 
120.07864424399999

>  <MW>  (2033) 
120

>  <ID>  (2033) 
JP009059

>  <CONTRIBUTOR>  (2033) 
University of Tokyo Team, {Faculty of Engineering, University of Tokyo

>  <COMMENT>  (2033) 
SMILES=COCCOCCO
cas=111-77-3
InChI=InChI=1S/C5H12O3/c1-7-4-5-8-3-2-6/h6H,2-5H2,1H3
computed SMILES=OCCOCCOC
accession=JP009059
date=2016.01.19 (Created 2008.10.21, modified 2011.05.06)
author=SODA AROMATIC CO., LTD.
license=CC BY-NC-SA
exact mass=120.07864
ionization energy=70 eV
ion type=[M]+*
computed spectral entropy=2.3050884810920214
computed normalized entropy=0.7571264552136715
SPLASH=splash10-052b-9000000000-49842954017a6ce3cb74
submitter=submitter = University of Tokyo Team (Faculty of Engineering, University of Tokyo)
MoNA Rating=3.75

>  <NUM PEAKS>  (2033) 
21

>  <MASS SPECTRAL PEAKS>  (2033) 
15 10.13
19 2.44
26 1.31
27 8.39
28 2.28
29 20.3
30 1.14
31 23.65
33 1.37
42 1.52
43 12.97
44 4.08
45 99.99
46 1.7
58 23.08
59 42.25
60 4.84
75 9.68
87 1.37
89 10.79
90 12.51

>  <PREDICTED SPECTRUM>  (2033) 
14 17
15 85
16 0
18 7
19 38
25 1
26 38
27 150
28 124
29 225
30 79
31 324
32 46
33 78
38 15
39 60
40 25
41 108
42 100
43 317
44 177
45 999
46 186
47 74
57 77
58 356
59 530
60 92
61 143
62 38
63 93
73 58
74 86
75 243
76 94
77 53
87 37
88 112
89 270
90 89
105 44
120 93
121 16

$$$$

     RDKit          2D

 17 18  0  0  0  0  0  0  0  0999 V2000
   -5.8464   -0.3756    0.0000 C   0  0  0  0  0  0  0  0  0  0  0  0
   -4.5477   -2.6258    0.0000 C   0  0  0  0  0  0  0  0  0  0  0  0
    1.9483   -0.3752    0.0000 C   0  0  0  0  0  0  0  0  0  0  0  0
    0.6492   -5.6252    0.0000 C   0  0  0  0  0  0  0  0  0  0  0  0
    1.9492   -4.8752    0.0000 C   0  0  0  0  0  0  0  0  0  0  0  0
   -0.6508   -4.8752    0.0000 C   0  0  0  0  0  0  0  0  0  0  0  0
    1.9492   -3.3752    0.0000 C   0  0  0  0  0  0  0  0  0  0  0  0
   -0.6508   -3.3752    0.0000 C   0  0  0  0  0  0  0  0  0  0  0  0
   -3.2479    1.1248    0.0000 C   0  0  0  0  0  0  0  0  0  0  0  0
   -1.9483    1.8757    0.0000 C   0  0  0  0  0  0  0  0  0  0  0  0
   -4.5475   -1.1258    0.0000 C   0  0  0  0  0  0  0  0  0  0  0  0
    0.6492   -1.1252    0.0000 C   0  0  0  0  0  0  0  0  0  0  0  0
    0.6492   -2.6252    0.0000 C   0  0  0  0  0  0  0  0  0  0  0  0
   -3.2483   -0.3760    0.0000 C   0  0  0  0  0  0  0  0  0  0  0  0
   -0.6498   -0.3752    0.0000 C   0  0  0  0  0  0  0  0  0  0  0  0
   -0.6493    1.1257    0.0000 O   0  0  0  0  0  0  0  0  0  0  0  0
   -1.9493   -1.1260    0.0000 O   0  0  0  0  0  0  0  0  0  0  0  0
  5  4  2  0
  6  4  1  0
  7  5  1  0
  8  6  2  0
 10  9  1  0
 11  1  1  0
 11  2  1  0
 12  3  1  0
 13  7  2  0
 13  8  1  0
 13 12  1  0
 14  9  1  0
 14 11  1  0
 15 12  1  0
 16 10  1  0
 16 15  1  0
 17 14  1  0
 17 15  1  0
M  END
>  <NAME>  (2034) 
2-(1-PHENYLETHYL)-6-ISOPROPYL-1,3-DIOXANE

>  <SYNONYMS>  (2034) 


>  <SPECTRUM TYPE>  (2034) 
MS1

>  <INSTRUMENT TYPE>  (2034) 
EI-B

>  <INSTRUMENT>  (2034) 
HITACHI M-80B

>  <ION MODE>  (2034) 
P

>  <INCHIKEY>  (2034) 
YWNRQAFPFQOIDO-UHFFFAOYSA-N

>  <FORMULA>  (2034) 
C15H22O2

>  <EXACT MASS>  (2034) 
234.161979944

>  <MW>  (2034) 
234

>  <ID>  (2034) 
JP009058

>  <CONTRIBUTOR>  (2034) 
University of Tokyo Team, {Faculty of Engineering, University of Tokyo

>  <COMMENT>  (2034) 
SMILES=CC(C)C(C2)OC(OC2)C(C)c(c1)cccc1
InChI=InChI=1S/C15H22O2/c1-11(2)14-9-10-16-15(17-14)12(3)13-7-5-4-6-8-13/h4-8,11-12,14-15H,9-10H2,1-3H3
computed SMILES=O1CCC(OC1C(C=2C=CC=CC2)C)C(C)C
accession=JP009058
date=2016.01.19 (Created 2008.10.21, modified 2011.05.06)
author=SODA AROMATIC CO., LTD.
license=CC BY-NC-SA
exact mass=234.16198
ionization energy=70 eV
ion type=[M]+*
computed spectral entropy=2.3797097919842485
computed normalized entropy=0.7220350668840181
SPLASH=splash10-001i-9300000000-3829cc06a3846c69f107
submitter=submitter = University of Tokyo Team (Faculty of Engineering, University of Tokyo)
MoNA Rating=3.75

>  <NUM PEAKS>  (2034) 
27

>  <MASS SPECTRAL PEAKS>  (2034) 
27 2.95
29 2.38
39 3.49
41 8.67
42 1.84
43 18.08
45 8.54
51 1.95
53 1.08
55 12.94
56 2.5
57 3.61
59 2.76
65 1.32
77 7.52
78 1.95
79 4.37
83 99.99
84 7.01
85 1.45
91 3.02
103 3.13
104 1.69
105 26.94
106 3.05
129 29.62
130 2.33

>  <PREDICTED SPECTRUM>  (2034) 
27 160
28 62
29 154
38 17
39 307
40 119
41 461
42 230
43 642
44 68
45 143
50 114
51 230
52 141
53 158
54 24
55 467
56 179
57 275
58 96
59 66
63 9
65 85
67 49
71 173
72 71
73 45
76 7
77 402
78 254
79 240
80 14
83 476
84 87
85 36
86 35
87 203
91 180
92 11
99 15
105 652
106 420
115 56
129 999
130 302
131 75
147 149
163 97
191 23

$$$$

     RDKit          2D

 10 10  0  0  0  0  0  0  0  0999 V2000
   -6.0284    0.0637    0.0000 C   0  0  0  0  0  0  0  0  0  0  0  0
   -4.6006   -0.3962    0.0000 C   0  0  0  0  0  0  0  0  0  0  0  0
   -3.4884    0.6102    0.0000 C   0  0  0  0  0  0  0  0  0  0  0  0
    0.2615    3.2525    0.0000 C   0  0  0  0  0  0  0  0  0  0  0  0
   -2.0607    0.1503    0.0000 C   0  0  0  0  0  0  0  0  0  0  0  0
   -1.1142    2.6496    0.0000 C   0  0  0  0  0  0  0  0  0  0  0  0
    1.2613    2.1441    0.0000 C   0  0  0  0  0  0  0  0  0  0  0  0
   -0.9485    1.1567    0.0000 C   0  0  0  0  0  0  0  0  0  0  0  0
    0.5113    0.8451    0.0000 C   0  0  0  0  0  0  0  0  0  0  0  0
    1.1208   -0.5255    0.0000 O   0  0  0  0  0  0  0  0  0  0  0  0
  2  1  1  0
  3  2  1  0
  5  3  1  0
  6  4  1  0
  7  4  1  0
  8  5  1  0
  8  6  2  0
  9  7  1  0
  9  8  1  0
 10  9  2  0
M  END
>  <NAME>  (2035) 
2-BUTYL-2-CYCLOPENTENONE

>  <SYNONYMS>  (2035) 


>  <SPECTRUM TYPE>  (2035) 
MS1

>  <INSTRUMENT TYPE>  (2035) 
EI-B

>  <INSTRUMENT>  (2035) 
HITACHI M-80B

>  <ION MODE>  (2035) 
P

>  <INCHIKEY>  (2035) 
LQANWSYLRLMKDX-UHFFFAOYSA-N

>  <FORMULA>  (2035) 
C9H14O

>  <EXACT MASS>  (2035) 
138.104465068

>  <MW>  (2035) 
138

>  <ID>  (2035) 
JP009057

>  <CONTRIBUTOR>  (2035) 
University of Tokyo Team, {Faculty of Engineering, University of Tokyo

>  <COMMENT>  (2035) 
SMILES=CCCCC(=C1)C(=O)CC1
InChI=InChI=1S/C9H14O/c1-2-3-5-8-6-4-7-9(8)10/h6H,2-5,7H2,1H3
computed SMILES=O=C1C(=CCC1)CCCC
accession=JP009057
date=2016.01.19 (Created 2008.10.21, modified 2011.05.06)
author=SODA AROMATIC CO., LTD.
license=CC BY-NC-SA
exact mass=138.10447
ionization energy=70 eV
ion type=[M]+*
computed spectral entropy=3.2133348840035825
computed normalized entropy=0.8392885494447834
SPLASH=splash10-000b-9200000000-39594487bd2c2ffeb15b
submitter=submitter = University of Tokyo Team (Faculty of Engineering, University of Tokyo)
MoNA Rating=3.75

>  <NUM PEAKS>  (2035) 
46

>  <MASS SPECTRAL PEAKS>  (2035) 
15 1.12
26 2.21
27 29.02
29 8.55
38 2.16
39 32.94
40 4.18
41 42.95
42 3.81
43 7.99
50 2.86
51 9.27
52 5.34
53 22.13
54 9.4
55 11.65
56 1.2
63 2.63
65 10.76
66 8.43
67 43.24
68 21.63
69 2.86
77 7.65
78 2.31
79 15.54
80 2.15
81 26.95
82 3.63
83 2.02
91 2.9
93 1.64
94 1.9
95 27.19
96 99.99
97 18.39
98 1.06
105 1.56
109 37.95
110 16.15
111 1.09
123 19.47
124 1.49
137 5.58
138 38.4
139 3.82

>  <PREDICTED SPECTRUM>  (2035) 
26 44
27 221
28 39
29 170
38 57
39 417
40 226
41 610
42 139
43 245
44 11
45 4
50 100
51 272
52 195
53 437
54 359
55 327
56 72
57 1
63 82
64 45
65 278
66 227
67 520
68 445
69 240
70 30
77 244
78 85
79 391
80 151
81 523
82 260
83 168
84 48
91 140
93 81
94 92
95 504
96 999
97 334
98 30
109 503
110 297
111 67
121 45
123 263
124 49
136 17
137 174
138 551
139 179

$$$$

     RDKit          2D

  6  6  0  0  0  0  0  0  0  0999 V2000
    0.0000    1.5000    0.0000 C   0  0  0  0  0  0  0  0  0  0  0  0
    1.3000    0.7500    0.0000 C   0  0  0  0  0  0  0  0  0  0  0  0
   -1.3000    0.7500    0.0000 C   0  0  0  0  0  0  0  0  0  0  0  0
    1.3000   -0.7500    0.0000 C   0  0  0  0  0  0  0  0  0  0  0  0
   -1.3000   -0.7500    0.0000 C   0  0  0  0  0  0  0  0  0  0  0  0
   -0.0000   -1.5000    0.0000 O   0  0  0  0  0  0  0  0  0  0  0  0
  2  1  1  0
  3  1  1  0
  4  2  2  0
  5  3  1  0
  6  4  1  0
  6  5  1  0
M  END
>  <NAME>  (2036) 
3,4-DIHYDRO-2H-PYRAN

>  <SYNONYMS>  (2036) 


>  <SPECTRUM TYPE>  (2036) 
MS1

>  <INSTRUMENT TYPE>  (2036) 
EI-B

>  <INSTRUMENT>  (2036) 
HITACHI M-80B

>  <ION MODE>  (2036) 
P

>  <INCHIKEY>  (2036) 
BUDQDWGNQVEFAC-UHFFFAOYSA-N

>  <FORMULA>  (2036) 
C5H8O

>  <EXACT MASS>  (2036) 
84.057514876

>  <MW>  (2036) 
84

>  <ID>  (2036) 
JP009056

>  <CONTRIBUTOR>  (2036) 
University of Tokyo Team, {Faculty of Engineering, University of Tokyo

>  <COMMENT>  (2036) 
SMILES=C(C1)C=COC1
cas=110-87-2
InChI=InChI=1S/C5H8O/c1-2-4-6-5-3-1/h2,4H,1,3,5H2
computed SMILES=O1C=CCCC1
accession=JP009056
date=2016.01.19 (Created 2008.10.21, modified 2011.05.06)
author=SODA AROMATIC CO., LTD.
license=CC BY-NC-SA
exact mass=84.05751
ionization energy=70 eV
ion type=[M]+*
computed spectral entropy=2.5780732923474465
computed normalized entropy=0.7736839934268903
SPLASH=splash10-0a59-9000000000-04131115fe3268287dfd
submitter=submitter = University of Tokyo Team (Faculty of Engineering, University of Tokyo)
MoNA Rating=3.75

>  <NUM PEAKS>  (2036) 
28

>  <MASS SPECTRAL PEAKS>  (2036) 
29 25.74
30 1.16
31 3.4
37 1.69
38 3.44
39 31.99
40 2.82
41 24.95
42 3.37
43 5.79
44 1.13
45 2.08
49 1.19
50 7.03
51 7.55
52 2.47
53 16.05
54 26.98
55 99.99
56 32.05
57 10.99
65 1.26
66 1.51
69 13.6
81 1.12
83 35.34
84 77.59
85 3.7

>  <PREDICTED SPECTRUM>  (2036) 
14 103
15 204
16 53
17 23
18 73
19 33
25 86
26 351
27 794
28 675
29 607
30 336
31 248
32 24
35 29
36 114
37 172
38 275
39 759
40 395
41 769
42 598
43 404
44 182
45 221
46 5
49 149
50 215
51 277
52 213
53 426
54 578
55 561
56 487
57 407
58 94
61 100
63 97
65 108
67 73
68 153
69 379
73 13
81 277
82 285
83 999
84 906
85 181
86 16

$$$$

     RDKit          2D

  6  5  0  0  0  0  0  0  0  0999 V2000
    0.0000    0.0000    0.0000 C   0  0  0  0  0  0  0  0  0  0  0  0
    1.2990    2.2500    0.0000 C   0  0  0  0  0  0  0  0  0  0  0  0
   -1.2990    2.2500    0.0000 C   0  0  0  0  0  0  0  0  0  0  0  0
   -1.2990    3.7500    0.0000 C   0  0  0  0  0  0  0  0  0  0  0  0
    0.0000    1.5000    0.0000 C   0  0  0  0  0  0  0  0  0  0  0  0
   -2.5981    4.5000    0.0000 N   0  0  0  0  0  0  0  0  0  0  0  0
  4  3  1  0
  5  1  1  0
  5  2  1  0
  5  3  1  0
  6  4  1  0
M  END
>  <NAME>  (2037) 
ISOPENTYLAMINE

>  <SYNONYMS>  (2037) 


>  <SPECTRUM TYPE>  (2037) 
MS1

>  <INSTRUMENT TYPE>  (2037) 
EI-B

>  <INSTRUMENT>  (2037) 
HITACHI M-80B

>  <ION MODE>  (2037) 
P

>  <INCHIKEY>  (2037) 
BMFVGAAISNGQNM-UHFFFAOYSA-N

>  <FORMULA>  (2037) 
C5H13N

>  <EXACT MASS>  (2037) 
87.10479941599999

>  <MW>  (2037) 
87

>  <ID>  (2037) 
JP009055

>  <CONTRIBUTOR>  (2037) 
University of Tokyo Team, {Faculty of Engineering, University of Tokyo

>  <COMMENT>  (2037) 
SMILES=NCCC(C)C
cas=107-85-7
InChI=InChI=1S/C5H13N/c1-5(2)3-4-6/h5H,3-4,6H2,1-2H3
computed SMILES=NCCC(C)C
accession=JP009055
date=2016.01.19 (Created 2008.10.21, modified 2011.05.06)
author=SODA AROMATIC CO., LTD.
license=CC BY-NC-SA
exact mass=87.1048
ionization energy=70 eV
ion type=[M]+*
computed spectral entropy=1.324318448810261
computed normalized entropy=0.5329449494302916
SPLASH=splash10-001i-9000000000-a38f41cef45a48b3b69d
submitter=submitter = University of Tokyo Team (Faculty of Engineering, University of Tokyo)
MoNA Rating=3.75

>  <NUM PEAKS>  (2037) 
12

>  <MASS SPECTRAL PEAKS>  (2037) 
30 99.99
31 2.16
39 5.83
41 6.55
42 4.22
43 3.53
44 4.46
45 1.99
55 3.4
58 1.21
70 6.64
87 4.42

>  <PREDICTED SPECTRUM>  (2037) 
14 23
15 106
16 27
17 45
18 105
26 51
27 260
28 288
29 305
30 999
31 246
32 31
37 13
38 96
39 282
40 187
41 512
42 421
43 446
44 798
45 199
46 52
52 52
53 175
54 136
55 280
56 198
57 342
58 268
59 39
67 52
68 18
69 149
70 374
71 124
72 225
86 2
87 164
88 15

$$$$

     RDKit          2D

  5  4  0  0  0  0  0  0  0  0999 V2000
    0.0000    0.0000    0.0000 C   0  0  0  0  0  0  0  0  0  0  0  0
    1.2990    2.2500    0.0000 C   0  0  0  0  0  0  0  0  0  0  0  0
   -1.2990    2.2500    0.0000 C   0  0  0  0  0  0  0  0  0  0  0  0
    0.0000    1.5000    0.0000 C   0  0  0  0  0  0  0  0  0  0  0  0
   -1.2990    3.7500    0.0000 N   0  0  0  0  0  0  0  0  0  0  0  0
  4  1  1  0
  4  2  1  0
  4  3  1  0
  5  3  1  0
M  END
>  <NAME>  (2038) 
ISOBUTYLAMINE

>  <SYNONYMS>  (2038) 


>  <SPECTRUM TYPE>  (2038) 
MS1

>  <INSTRUMENT TYPE>  (2038) 
EI-B

>  <INSTRUMENT>  (2038) 
HITACHI M-80B

>  <ION MODE>  (2038) 
P

>  <INCHIKEY>  (2038) 
KDSNLYIMUZNERS-UHFFFAOYSA-N

>  <FORMULA>  (2038) 
C4H11N

>  <EXACT MASS>  (2038) 
73.089149352

>  <MW>  (2038) 
73

>  <ID>  (2038) 
JP009054

>  <CONTRIBUTOR>  (2038) 
University of Tokyo Team, {Faculty of Engineering, University of Tokyo

>  <COMMENT>  (2038) 
SMILES=NCC(C)C
cas=78-81-9
InChI=InChI=1S/C4H11N/c1-4(2)3-5/h4H,3,5H2,1-2H3
computed SMILES=NCC(C)C
accession=JP009054
date=2016.01.19 (Created 2008.10.21, modified 2011.05.06)
author=SODA AROMATIC CO., LTD.
license=CC BY-NC-SA
exact mass=73.08915
ionization energy=70 eV
ion type=[M]+*
computed spectral entropy=1.322923865075691
computed normalized entropy=0.515769974649696
SPLASH=splash10-001i-9000000000-8b23a8ba6fd943667323
submitter=submitter = University of Tokyo Team (Faculty of Engineering, University of Tokyo)
MoNA Rating=3.75

>  <NUM PEAKS>  (2038) 
13

>  <MASS SPECTRAL PEAKS>  (2038) 
27 3.84
28 7.88
29 2.16
30 99.99
31 1.93
39 4.75
41 6.92
42 1.57
43 1.42
55 1.92
56 2.12
58 1.76
73 8.61

>  <PREDICTED SPECTRUM>  (2038) 
14 37
15 140
16 38
17 49
18 85
26 81
27 329
28 364
29 160
30 999
31 294
38 88
39 244
40 179
41 455
42 285
43 361
44 362
45 69
52 58
53 118
54 164
55 51
56 254
57 121
58 159
72 128
73 196
74 83

$$$$

     RDKit          2D

  5  4  0  0  0  0  0  0  0  0999 V2000
   -3.8971    2.2500    0.0000 C   0  0  0  0  0  0  0  0  0  0  0  0
   -2.5981    1.5000    0.0000 C   0  0  0  0  0  0  0  0  0  0  0  0
   -1.2990    2.2500    0.0000 C   0  0  0  0  0  0  0  0  0  0  0  0
    0.0000    1.5000    0.0000 C   0  0  0  0  0  0  0  0  0  0  0  0
    1.2990    2.2500    0.0000 N   0  0  0  0  0  0  0  0  0  0  0  0
  2  1  1  0
  3  2  1  0
  4  3  1  0
  5  4  1  0
M  END
>  <NAME>  (2039) 
BUTYLAMINE

>  <SYNONYMS>  (2039) 


>  <SPECTRUM TYPE>  (2039) 
MS1

>  <INSTRUMENT TYPE>  (2039) 
EI-B

>  <INSTRUMENT>  (2039) 
HITACHI M-80B

>  <ION MODE>  (2039) 
P

>  <INCHIKEY>  (2039) 
HQABUPZFAYXKJW-UHFFFAOYSA-N

>  <FORMULA>  (2039) 
C4H11N

>  <EXACT MASS>  (2039) 
73.089149352

>  <MW>  (2039) 
73

>  <ID>  (2039) 
JP009053

>  <CONTRIBUTOR>  (2039) 
University of Tokyo Team, {Faculty of Engineering, University of Tokyo

>  <COMMENT>  (2039) 
SMILES=CCCCN
cas=109-73-9
InChI=InChI=1S/C4H11N/c1-2-3-4-5/h2-5H2,1H3
computed SMILES=NCCCC
accession=JP009053
date=2016.01.19 (Created 2008.10.21, modified 2011.05.06)
author=SODA AROMATIC CO., LTD.
license=CC BY-NC-SA
exact mass=73.08915
ionization energy=70 eV
ion type=[M]+*
computed spectral entropy=1.0575959884119084
computed normalized entropy=0.44105178420810764
SPLASH=splash10-001i-9000000000-ffebea123990592a7025
submitter=submitter = University of Tokyo Team (Faculty of Engineering, University of Tokyo)
MoNA Rating=3.75

>  <NUM PEAKS>  (2039) 
11

>  <MASS SPECTRAL PEAKS>  (2039) 
29 2.78
30 99.99
31 2.18
39 3.73
41 3.76
42 2.9
43 1.57
44 2.2
55 1.03
56 1.42
73 10.79

>  <PREDICTED SPECTRUM>  (2039) 
14 24
15 77
16 26
17 48
18 84
26 64
27 245
28 304
29 276
30 999
31 319
32 43
38 59
39 165
40 109
41 273
42 127
43 249
44 451
45 65
52 20
53 73
54 142
55 118
56 281
57 127
58 66
72 101
73 198
74 65

$$$$

     RDKit          2D

  4  3  0  0  0  0  0  0  0  0999 V2000
    0.9743    0.5625    0.0000 C   0  0  0  0  0  0  0  0  0  0  0  0
   -1.6238    0.5625    0.0000 C   0  0  0  0  0  0  0  0  0  0  0  0
   -0.3248    2.8125    0.0000 C   0  0  0  0  0  0  0  0  0  0  0  0
   -0.3248    1.3125    0.0000 N   0  0  0  0  0  0  0  0  0  0  0  0
  4  1  1  0
  4  2  1  0
  4  3  1  0
M  END
>  <NAME>  (2040) 
TRIMETHYLAMINE

>  <SYNONYMS>  (2040) 


>  <SPECTRUM TYPE>  (2040) 
MS1

>  <INSTRUMENT TYPE>  (2040) 
EI-B

>  <INSTRUMENT>  (2040) 
HITACHI M-80B

>  <ION MODE>  (2040) 
P

>  <INCHIKEY>  (2040) 
GETQZCLCWQTVFV-UHFFFAOYSA-N

>  <FORMULA>  (2040) 
C3H9N

>  <EXACT MASS>  (2040) 
59.073499287999994

>  <MW>  (2040) 
59

>  <ID>  (2040) 
JP009052

>  <CONTRIBUTOR>  (2040) 
University of Tokyo Team, {Faculty of Engineering, University of Tokyo

>  <COMMENT>  (2040) 
SMILES=CN(C)C
cas=75-50-3
InChI=InChI=1S/C3H9N/c1-4(2)3/h1-3H3
computed SMILES=N(C)(C)C
accession=JP009052
date=2016.01.19 (Created 2008.10.21, modified 2011.05.06)
author=SODA AROMATIC CO., LTD.
license=CC BY-NC-SA
exact mass=59.0735
ionization energy=70 eV
ion type=[M]+*
computed spectral entropy=2.1627879787959032
computed normalized entropy=0.6897757832906728
SPLASH=splash10-0a4i-9000000000-55145d7583823742b4d0
submitter=submitter = University of Tokyo Team (Faculty of Engineering, University of Tokyo)
MoNA Rating=3.75

>  <NUM PEAKS>  (2040) 
23

>  <MASS SPECTRAL PEAKS>  (2040) 
15 8.14
17 1.29
18 1.64
26 1.73
27 3.63
28 4.78
29 5.86
30 15.51
32 1.07
38 1.69
39 2.44
40 4.73
41 5.16
42 36.49
43 8.7
44 3.82
45 1.21
54 1.5
56 2.82
57 5.82
58 99.99
59 43.57
60 1.78

>  <PREDICTED SPECTRUM>  (2040) 
14 27
15 103
16 4
18 9
26 30
27 133
28 170
29 139
30 204
31 41
32 22
40 123
41 270
42 921
43 571
44 999
45 482
46 192
54 26
55 141
56 213
57 240
58 493
59 723
60 176

$$$$

     RDKit          2D

  3  2  0  0  0  0  0  0  0  0999 V2000
   -1.2990    0.0000    0.0000 C   0  0  0  0  0  0  0  0  0  0  0  0
    0.0000    2.2500    0.0000 C   0  0  0  0  0  0  0  0  0  0  0  0
   -0.0000    0.7500    0.0000 N   0  0  0  0  0  0  0  0  0  0  0  0
  3  1  1  0
  3  2  1  0
M  END
>  <NAME>  (2041) 
DIMETHYLAMINE

>  <SYNONYMS>  (2041) 


>  <SPECTRUM TYPE>  (2041) 
MS1

>  <INSTRUMENT TYPE>  (2041) 
EI-B

>  <INSTRUMENT>  (2041) 
HITACHI M-80B

>  <ION MODE>  (2041) 
P

>  <INCHIKEY>  (2041) 
ROSDSFDQCJNGOL-UHFFFAOYSA-N

>  <FORMULA>  (2041) 
C2H7N

>  <EXACT MASS>  (2041) 
45.057849223999995

>  <MW>  (2041) 
45

>  <ID>  (2041) 
JP009051

>  <CONTRIBUTOR>  (2041) 
University of Tokyo Team, {Faculty of Engineering, University of Tokyo

>  <COMMENT>  (2041) 
SMILES=CNC
cas=124-40-3
InChI=InChI=1S/C2H7N/c1-3-2/h3H,1-2H3
computed SMILES=N(C)C
accession=JP009051
date=2016.01.19 (Created 2008.10.21, modified 2011.05.06)
author=SODA AROMATIC CO., LTD.
license=CC BY-NC-SA
exact mass=45.05785
ionization energy=70 eV
ion type=[M]+*
computed spectral entropy=1.6011701856094496
computed normalized entropy=0.6242502141227794
SPLASH=splash10-0006-9000000000-cfb8e10b3b28eba99793
submitter=submitter = University of Tokyo Team (Faculty of Engineering, University of Tokyo)
MoNA Rating=3.75

>  <NUM PEAKS>  (2041) 
13

>  <MASS SPECTRAL PEAKS>  (2041) 
15 3.57
29 2.34
30 6.84
31 1.95
38 1.27
39 1.84
40 4.81
41 4.04
42 14.42
43 12.26
44 99.99
45 57.57
46 1.86

>  <PREDICTED SPECTRUM>  (2041) 
14 102
15 278
16 81
17 31
18 87
25 20
26 201
27 320
28 584
29 365
30 896
31 233
32 65
39 36
40 172
41 104
42 646
43 527
44 999
45 879
46 152

$$$$

     RDKit          2D

  6  5  0  0  0  0  0  0  0  0999 V2000
    1.2990    3.0000    0.0000 C   0  0  0  0  0  0  0  0  0  0  0  0
    0.0000    3.7500    0.0000 C   0  0  0  0  0  0  0  0  0  0  0  0
   -1.2990    3.0000    0.0000 C   0  0  0  0  0  0  0  0  0  0  0  0
   -3.8971    3.0000    0.0000 C   0  0  0  0  0  0  0  0  0  0  0  0
   -2.5981    3.7500    0.0000 N   0  0  0  0  0  0  0  0  0  0  0  0
   -5.1962    2.2500    0.0000 S   0  0  0  0  0  0  0  0  0  0  0  0
  2  1  2  0
  3  2  1  0
  5  3  1  0
  5  4  2  0
  6  4  2  0
M  END
>  <NAME>  (2042) 
ALLYL ISOTHIOCYANATE

>  <SYNONYMS>  (2042) 


>  <SPECTRUM TYPE>  (2042) 
MS1

>  <INSTRUMENT TYPE>  (2042) 
EI-B

>  <INSTRUMENT>  (2042) 
HITACHI M-80B

>  <ION MODE>  (2042) 
P

>  <INCHIKEY>  (2042) 
ZOJBYZNEUISWFT-UHFFFAOYSA-N

>  <FORMULA>  (2042) 
C4H5NS

>  <EXACT MASS>  (2042) 
99.01427016

>  <MW>  (2042) 
99

>  <ID>  (2042) 
JP009050

>  <CONTRIBUTOR>  (2042) 
University of Tokyo Team, {Faculty of Engineering, University of Tokyo

>  <COMMENT>  (2042) 
SMILES=C=CCN=C=S
cas=57-06-7
InChI=InChI=1S/C4H5NS/c1-2-3-5-4-6/h2H,1,3H2
computed SMILES=S=C=NCC=C
accession=JP009050
date=2016.01.19 (Created 2008.10.21, modified 2011.05.06)
author=SODA AROMATIC CO., LTD.
license=CC BY-NC-SA
exact mass=99.01427
ionization energy=70 eV
ion type=[M]+*
computed spectral entropy=2.332314014498832
computed normalized entropy=0.7076545682694505
SPLASH=splash10-000e-9000000000-74e6764518eaef9083ea
submitter=submitter = University of Tokyo Team (Faculty of Engineering, University of Tokyo)
MoNA Rating=3.75

>  <NUM PEAKS>  (2042) 
27

>  <MASS SPECTRAL PEAKS>  (2042) 
32 4.01
37 6.63
38 12.07
39 76.42
40 8.02
41 88.01
42 2.76
44 7.9
45 12.31
46 1.91
51 1.24
52 1.23
54 1.14
58 5.94
59 5.73
60 2.06
67 1.18
69 1.47
70 7.97
71 9.66
72 31.94
73 1.56
74 1.09
98 5.83
99 99.99
100 5.78
101 4.48

>  <PREDICTED SPECTRUM>  (2042) 
14 123
15 182
16 25
18 24
25 64
26 287
27 540
28 431
29 380
30 75
31 152
32 188
33 30
34 15
36 20
37 57
38 278
39 712
40 306
41 999
42 429
43 119
44 151
45 263
46 46
47 50
50 176
51 176
52 100
53 153
54 410
56 217
58 504
59 286
60 70
62 25
64 93
66 136
69 106
70 296
71 394
72 962
73 292
98 281
99 870
100 229
101 213

$$$$

     RDKit          2D

 10 10  0  0  0  0  0  0  0  0999 V2000
    5.8815   -0.8855    0.0000 C   0  0  0  0  0  0  0  0  0  0  0  0
    4.7678    0.1193    0.0000 C   0  0  0  0  0  0  0  0  0  0  0  0
   -1.1700   -1.2200    0.0000 C   0  0  0  0  0  0  0  0  0  0  0  0
    0.3300   -1.2200    0.0000 C   0  0  0  0  0  0  0  0  0  0  0  0
   -1.6300    0.2000    0.0000 C   0  0  0  0  0  0  0  0  0  0  0  0
    0.8000    0.2000    0.0000 C   0  0  0  0  0  0  0  0  0  0  0  0
    2.2271    0.6621    0.0000 C   0  0  0  0  0  0  0  0  0  0  0  0
    2.5404    2.1290    0.0000 O   0  0  0  0  0  0  0  0  0  0  0  0
    3.3407   -0.3428    0.0000 O   0  0  0  0  0  0  0  0  0  0  0  0
   -0.4200    1.0800    0.0000 O   0  0  0  0  0  0  0  0  0  0  0  0
  2  1  1  0
  4  3  1  0
  5  3  2  0
  6  4  2  0
  7  6  1  0
  8  7  2  0
  9  2  1  0
  9  7  1  0
 10  5  1  0
 10  6  1  0
M  END
>  <NAME>  (2043) 
ETHYL 2-FUROATE

>  <SYNONYMS>  (2043) 


>  <SPECTRUM TYPE>  (2043) 
MS1

>  <INSTRUMENT TYPE>  (2043) 
EI-B

>  <INSTRUMENT>  (2043) 
HITACHI M-80B

>  <ION MODE>  (2043) 
P

>  <INCHIKEY>  (2043) 
NHXSTXWKZVAVOQ-UHFFFAOYSA-N

>  <FORMULA>  (2043) 
C7H8O3

>  <EXACT MASS>  (2043) 
140.04734411599998

>  <MW>  (2043) 
140

>  <ID>  (2043) 
JP009049

>  <CONTRIBUTOR>  (2043) 
University of Tokyo Team, {Faculty of Engineering, University of Tokyo

>  <COMMENT>  (2043) 
SMILES=CCOC(=O)c(c1)occ1
cas=614-99-3
InChI=InChI=1S/C7H8O3/c1-2-9-7(8)6-4-3-5-10-6/h3-5H,2H2,1H3
computed SMILES=O=C(OCC)C=1OC=CC1
accession=JP009049
date=2016.01.19 (Created 2008.10.21, modified 2011.05.06)
author=SODA AROMATIC CO., LTD.
license=CC BY-NC-SA
exact mass=140.04734
ionization energy=70 eV
ion type=[M]+*
computed spectral entropy=2.13953697909862
computed normalized entropy=0.7027496176702457
SPLASH=splash10-0002-9200000000-5c100f35c0f33369946d
submitter=submitter = University of Tokyo Team (Faculty of Engineering, University of Tokyo)
MoNA Rating=3.75

>  <NUM PEAKS>  (2043) 
21

>  <MASS SPECTRAL PEAKS>  (2043) 
26 1.7
27 7.41
29 8.47
37 2.7
38 8.22
39 25.04
41 1.11
42 1.03
45 4.49
53 1.33
66 1.19
67 2.23
68 10.31
84 2.63
95 99.99
96 17.07
97 1.79
112 40.8
113 2.42
140 18.31
141 1.25

>  <PREDICTED SPECTRUM>  (2043) 
14 24
15 75
25 17
26 118
27 304
28 145
29 399
36 3
37 120
38 206
39 419
40 235
41 256
42 89
43 119
44 42
45 128
49 1
51 40
52 28
53 68
54 68
56 59
66 104
67 327
68 325
69 148
82 32
84 174
95 999
96 287
97 67
112 543
113 206
114 34
125 43
140 457
141 142

$$$$

     RDKit          2D

  9  9  0  0  0  0  0  0  0  0999 V2000
    4.7678    0.1193    0.0000 C   0  0  0  0  0  0  0  0  0  0  0  0
   -1.1700   -1.2200    0.0000 C   0  0  0  0  0  0  0  0  0  0  0  0
    0.3300   -1.2200    0.0000 C   0  0  0  0  0  0  0  0  0  0  0  0
   -1.6300    0.2000    0.0000 C   0  0  0  0  0  0  0  0  0  0  0  0
    0.8000    0.2000    0.0000 C   0  0  0  0  0  0  0  0  0  0  0  0
    2.2271    0.6621    0.0000 C   0  0  0  0  0  0  0  0  0  0  0  0
    2.5404    2.1290    0.0000 O   0  0  0  0  0  0  0  0  0  0  0  0
    3.3407   -0.3428    0.0000 O   0  0  0  0  0  0  0  0  0  0  0  0
   -0.4200    1.0800    0.0000 O   0  0  0  0  0  0  0  0  0  0  0  0
  3  2  1  0
  4  2  2  0
  5  3  2  0
  6  5  1  0
  7  6  2  0
  8  1  1  0
  8  6  1  0
  9  4  1  0
  9  5  1  0
M  END
>  <NAME>  (2044) 
METHYL 2-FUROATE

>  <SYNONYMS>  (2044) 


>  <SPECTRUM TYPE>  (2044) 
MS1

>  <INSTRUMENT TYPE>  (2044) 
EI-B

>  <INSTRUMENT>  (2044) 
HITACHI M-80B

>  <ION MODE>  (2044) 
P

>  <INCHIKEY>  (2044) 
HDJLSECJEQSPKW-UHFFFAOYSA-N

>  <FORMULA>  (2044) 
C6H6O3

>  <EXACT MASS>  (2044) 
126.03169405199999

>  <MW>  (2044) 
126

>  <ID>  (2044) 
JP009048

>  <CONTRIBUTOR>  (2044) 
University of Tokyo Team, {Faculty of Engineering, University of Tokyo

>  <COMMENT>  (2044) 
SMILES=COC(=O)c(c1)occ1
cas=611-13-2
InChI=InChI=1S/C6H6O3/c1-8-6(7)5-3-2-4-9-5/h2-4H,1H3
computed SMILES=O=C(OC)C=1OC=CC1
accession=JP009048
date=2016.01.19 (Created 2008.10.21, modified 2011.05.06)
author=SODA AROMATIC CO., LTD.
license=CC BY-NC-SA
exact mass=126.03169
ionization energy=70 eV
ion type=[M]+*
computed spectral entropy=1.8335993466855394
computed normalized entropy=0.6343818374492333
SPLASH=splash10-0002-9100000000-aa000da7d8c856d2def3
submitter=submitter = University of Tokyo Team (Faculty of Engineering, University of Tokyo)
MoNA Rating=3.75

>  <NUM PEAKS>  (2044) 
18

>  <MASS SPECTRAL PEAKS>  (2044) 
15 3.37
27 1.38
29 5.15
37 4.69
38 10.65
39 23.92
41 1.08
51 1
53 1.76
59 1.24
66 1.32
67 3.02
68 4.72
81 1.03
95 99.99
96 9.02
126 34.53
127 2.18

>  <PREDICTED SPECTRUM>  (2044) 
14 8
15 72
25 23
26 43
29 78
37 142
38 230
39 413
40 161
41 120
42 39
45 24
49 12
51 41
52 46
53 74
54 6
55 11
57 34
59 130
60 0
67 230
68 155
69 108
82 40
95 999
96 231
97 113
98 6
126 560
127 165
128 9

$$$$

     RDKit          2D

 11 11  0  0  0  0  0  0  0  0999 V2000
    7.3934    0.5249    0.0000 C   0  0  0  0  0  0  0  0  0  0  0  0
    6.0936   -0.2237    0.0000 C   0  0  0  0  0  0  0  0  0  0  0  0
   -0.7342   -2.0170    0.0000 C   0  0  0  0  0  0  0  0  0  0  0  0
    0.7330   -1.7051    0.0000 C   0  0  0  0  0  0  0  0  0  0  0  0
    4.7954    0.5276    0.0000 C   0  0  0  0  0  0  0  0  0  0  0  0
   -1.4794   -0.7237    0.0000 C   0  0  0  0  0  0  0  0  0  0  0  0
    0.8975   -0.2184    0.0000 C   0  0  0  0  0  0  0  0  0  0  0  0
    2.1973    0.5302    0.0000 C   0  0  0  0  0  0  0  0  0  0  0  0
    2.1988    2.0302    0.0000 O   0  0  0  0  0  0  0  0  0  0  0  0
   -0.4788    0.3887    0.0000 O   0  0  0  0  0  0  0  0  0  0  0  0
    3.4955   -0.2211    0.0000 O   0  0  0  0  0  0  0  0  0  0  0  0
  2  1  2  0
  4  3  1  0
  5  2  1  0
  6  3  2  0
  7  4  2  0
  8  7  1  0
  9  8  2  0
 10  6  1  0
 10  7  1  0
 11  5  1  0
 11  8  1  0
M  END
>  <NAME>  (2045) 
ALLYL 2-FUROATE

>  <SYNONYMS>  (2045) 


>  <SPECTRUM TYPE>  (2045) 
MS1

>  <INSTRUMENT TYPE>  (2045) 
EI-B

>  <INSTRUMENT>  (2045) 
HITACHI M-80B

>  <ION MODE>  (2045) 
P

>  <INCHIKEY>  (2045) 
SJRQTHAMRUOPBJ-UHFFFAOYSA-N

>  <FORMULA>  (2045) 
C8H8O3

>  <EXACT MASS>  (2045) 
152.04734411599998

>  <MW>  (2045) 
152

>  <ID>  (2045) 
JP009047

>  <CONTRIBUTOR>  (2045) 
University of Tokyo Team, {Faculty of Engineering, University of Tokyo

>  <COMMENT>  (2045) 
SMILES=C=CCOC(=O)c(c1)occ1
cas=4208-49-5
InChI=InChI=1S/C8H8O3/c1-2-5-11-8(9)7-4-3-6-10-7/h2-4,6H,1,5H2
computed SMILES=O=C(OCC=C)C=1OC=CC1
accession=JP009047
date=2016.01.19 (Created 2008.10.21, modified 2011.05.06)
author=SODA AROMATIC CO., LTD.
license=CC BY-NC-SA
exact mass=152.04734
ionization energy=70 eV
ion type=[M]+*
computed spectral entropy=1.9480203352156145
computed normalized entropy=0.6212801558743594
SPLASH=splash10-0002-9000000000-1ca056e42ef08abc1140
submitter=submitter = University of Tokyo Team (Faculty of Engineering, University of Tokyo)
MoNA Rating=3.75

>  <NUM PEAKS>  (2045) 
23

>  <MASS SPECTRAL PEAKS>  (2045) 
26 1.24
27 3.26
29 2.54
37 2.23
38 6.06
39 26.3
41 12.8
53 1.02
57 2.33
66 1.12
67 1.65
68 4.97
77 1.07
79 3.84
80 1.11
81 1.08
95 99.99
96 7.66
107 1.09
108 3.41
112 1.2
123 1.89
152 8.38

>  <PREDICTED SPECTRUM>  (2045) 
25 29
26 94
27 187
28 31
29 143
36 54
37 190
38 280
39 663
40 253
41 543
42 180
43 46
44 49
49 14
50 101
51 215
52 109
53 147
54 35
55 108
56 78
57 38
61 64
62 32
63 16
64 30
66 95
67 204
68 109
69 118
77 78
78 14
81 0
82 40
83 1
93 41
94 26
95 999
96 226
107 33
108 41
112 102
124 22
135 0
152 191
153 33

$$$$

     RDKit          2D

 13 13  0  0  0  0  0  0  0  0999 V2000
    9.9412    0.2499    0.0000 C   0  0  0  0  0  0  0  0  0  0  0  0
    8.6414   -0.4987    0.0000 C   0  0  0  0  0  0  0  0  0  0  0  0
   -0.7846   -2.2893    0.0000 C   0  0  0  0  0  0  0  0  0  0  0  0
    0.6827   -1.9774    0.0000 C   0  0  0  0  0  0  0  0  0  0  0  0
    2.1470    0.2579    0.0000 C   0  0  0  0  0  0  0  0  0  0  0  0
    3.4452   -0.4934    0.0000 C   0  0  0  0  0  0  0  0  0  0  0  0
    7.3431    0.2526    0.0000 C   0  0  0  0  0  0  0  0  0  0  0  0
   -1.5297   -0.9960    0.0000 C   0  0  0  0  0  0  0  0  0  0  0  0
    0.8472   -0.4908    0.0000 C   0  0  0  0  0  0  0  0  0  0  0  0
    4.7450    0.2553    0.0000 C   0  0  0  0  0  0  0  0  0  0  0  0
    4.7466    1.7553    0.0000 O   0  0  0  0  0  0  0  0  0  0  0  0
   -0.5291    0.1164    0.0000 O   0  0  0  0  0  0  0  0  0  0  0  0
    6.0433   -0.4961    0.0000 O   0  0  0  0  0  0  0  0  0  0  0  0
  2  1  1  0
  4  3  1  0
  5  6  2  0
  7  2  1  0
  8  3  2  0
  9  4  2  0
  9  5  1  0
 10  6  1  0
 11 10  2  0
 12  8  1  0
 12  9  1  0
 13  7  1  0
 13 10  1  0
M  END
>  <NAME>  (2046) 
PROPYL 3-(2-FURYL)ACRYLATE

>  <SYNONYMS>  (2046) 


>  <SPECTRUM TYPE>  (2046) 
MS1

>  <INSTRUMENT TYPE>  (2046) 
EI-B

>  <INSTRUMENT>  (2046) 
HITACHI M-80B

>  <ION MODE>  (2046) 
P

>  <INCHIKEY>  (2046) 
RRFBKGHLBNBFGL-AATRIKPKSA-N

>  <FORMULA>  (2046) 
C10H12O3

>  <EXACT MASS>  (2046) 
180.07864424399997

>  <MW>  (2046) 
180

>  <ID>  (2046) 
JP009046

>  <CONTRIBUTOR>  (2046) 
University of Tokyo Team, {Faculty of Engineering, University of Tokyo

>  <COMMENT>  (2046) 
SMILES=CCCOC(=O)C=Cc(c1)occ1
InChI=InChI=1S/C10H12O3/c1-2-7-13-10(11)6-5-9-4-3-8-12-9/h3-6,8H,2,7H2,1H3/b6-5+
computed SMILES=O=C(OCCC)C=CC=1OC=CC1
accession=JP009046
date=2016.01.19 (Created 2008.10.21, modified 2011.05.06)
author=SODA AROMATIC CO., LTD.
license=CC BY-NC-SA
exact mass=180.07864
ionization energy=70 eV
ion type=[M]+*
computed spectral entropy=2.819644053794802
computed normalized entropy=0.7496660552651456
SPLASH=splash10-00dr-6900000000-84d4b50350f22c04ed86
submitter=submitter = University of Tokyo Team (Faculty of Engineering, University of Tokyo)
MoNA Rating=3.75

>  <NUM PEAKS>  (2046) 
43

>  <MASS SPECTRAL PEAKS>  (2046) 
26 1.38
27 4.91
28 12.76
29 3.27
31 5.76
32 7.12
38 2.49
39 14.15
41 4.53
42 2.83
43 4.34
44 1.1
53 1.64
54 1.08
55 1.84
58 1.29
59 2.02
60 1.03
62 1.21
63 6.29
64 3.67
65 27.72
66 6.96
81 2.76
82 4.19
84 1.31
92 6.1
93 4.16
94 19.3
95 1.89
96 1.25
109 2.16
110 9.94
111 1.17
120 1.26
121 99.99
122 6.93
123 1.18
138 62.2
139 4.64
151 1.81
180 28.34
181 2.79

>  <PREDICTED SPECTRUM>  (2046) 
15 0
25 14
26 84
27 226
28 44
29 174
31 80
37 46
38 128
39 333
40 78
41 225
42 58
43 267
44 32
45 67
50 76
51 48
52 43
53 172
54 56
55 67
59 62
60 36
62 5
63 187
64 167
65 473
66 237
67 107
77 21
81 195
82 150
83 88
91 14
92 227
93 378
94 342
95 14
109 45
110 297
111 124
120 31
121 999
122 359
123 73
137 76
138 757
139 246
151 25
180 524
181 141

$$$$

     RDKit          2D

 12 12  0  0  0  0  0  0  0  0999 V2000
   -1.8335    0.5083    0.0000 C   0  0  0  0  0  0  0  0  0  0  0  0
   -0.5353   -0.2431    0.0000 C   0  0  0  0  0  0  0  0  0  0  0  0
    7.5924    2.2989    0.0000 C   0  0  0  0  0  0  0  0  0  0  0  0
    6.1252    1.9870    0.0000 C   0  0  0  0  0  0  0  0  0  0  0  0
    4.6609   -0.2484    0.0000 C   0  0  0  0  0  0  0  0  0  0  0  0
    3.3626    0.5030    0.0000 C   0  0  0  0  0  0  0  0  0  0  0  0
    8.3376    1.0055    0.0000 C   0  0  0  0  0  0  0  0  0  0  0  0
    5.9607    0.5003    0.0000 C   0  0  0  0  0  0  0  0  0  0  0  0
    2.0628   -0.2457    0.0000 C   0  0  0  0  0  0  0  0  0  0  0  0
    2.0613   -1.7457    0.0000 O   0  0  0  0  0  0  0  0  0  0  0  0
    0.7645    0.5056    0.0000 O   0  0  0  0  0  0  0  0  0  0  0  0
    7.3370   -0.1068    0.0000 O   0  0  0  0  0  0  0  0  0  0  0  0
  2  1  1  0
  4  3  1  0
  5  6  2  0
  7  3  2  0
  8  4  2  0
  8  5  1  0
  9  6  1  0
 10  9  2  0
 11  2  1  0
 11  9  1  0
 12  7  1  0
 12  8  1  0
M  END
>  <NAME>  (2047) 
ETHYL 3-(2-FURYL)ACRYLATE

>  <SYNONYMS>  (2047) 


>  <SPECTRUM TYPE>  (2047) 
MS1

>  <INSTRUMENT TYPE>  (2047) 
EI-B

>  <INSTRUMENT>  (2047) 
HITACHI M-80B

>  <ION MODE>  (2047) 
P

>  <INCHIKEY>  (2047) 
MWZBTMXISMOMAE-AATRIKPKSA-N

>  <FORMULA>  (2047) 
C9H10O3

>  <EXACT MASS>  (2047) 
166.06299417999998

>  <MW>  (2047) 
166

>  <ID>  (2047) 
JP009045

>  <CONTRIBUTOR>  (2047) 
University of Tokyo Team, {Faculty of Engineering, University of Tokyo

>  <COMMENT>  (2047) 
SMILES=CCOC(=O)C=Cc(c1)occ1
InChI=InChI=1S/C9H10O3/c1-2-11-9(10)6-5-8-4-3-7-12-8/h3-7H,2H2,1H3/b6-5+
computed SMILES=O=C(OCC)C=CC=1OC=CC1
accession=JP009045
date=2016.01.19 (Created 2008.10.21, modified 2011.05.06)
author=SODA AROMATIC CO., LTD.
license=CC BY-NC-SA
exact mass=166.06299
ionization energy=70 eV
ion type=[M]+*
computed spectral entropy=2.639540373041738
computed normalized entropy=0.7485168786957901
SPLASH=splash10-00xr-6900000000-4b5cde75189715149acf
submitter=submitter = University of Tokyo Team (Faculty of Engineering, University of Tokyo)
MoNA Rating=3.75

>  <NUM PEAKS>  (2047) 
34

>  <MASS SPECTRAL PEAKS>  (2047) 
26 1.05
27 3.5
29 5.21
31 1.77
32 2.39
38 2.92
39 17.53
43 1.27
45 1.62
51 1.32
53 2.05
55 2.39
62 2.36
63 9.57
64 4.11
65 33.29
66 6.75
81 2.91
82 4
84 1.08
92 7.05
93 4.49
94 26.81
95 1.87
109 4.66
110 11.44
120 1.31
121 99.99
122 6.73
137 1.27
138 26.97
139 1.79
166 44.27
167 3.47

>  <PREDICTED SPECTRUM>  (2047) 
25 32
26 130
27 289
28 77
29 351
31 7
34 14
36 44
37 147
38 236
39 595
40 200
41 354
42 132
43 218
44 114
45 201
46 0
49 54
50 130
51 239
52 154
53 293
54 151
55 194
57 23
61 89
62 95
63 287
64 245
65 557
66 442
67 284
68 178
69 215
71 35
74 27
78 60
79 66
80 10
81 251
82 189
83 117
84 72
91 140
92 381
93 684
94 590
95 336
96 132
97 123
98 13
105 139
109 208
110 256
111 53
112 87
119 95
120 196
121 999
122 288
123 173
124 73
125 23
137 172
138 301
139 79
151 66
166 752
167 231
168 59

$$$$

     RDKit          2D

 16 17  0  0  0  0  0  0  0  0999 V2000
   10.0025    1.7233    0.0000 C   0  0  0  0  0  0  0  0  0  0  0  0
    8.7037    2.4754    0.0000 C   0  0  0  0  0  0  0  0  0  0  0  0
   10.0014    0.2225    0.0000 C   0  0  0  0  0  0  0  0  0  0  0  0
   -0.7248   -2.3160    0.0000 C   0  0  0  0  0  0  0  0  0  0  0  0
    7.4039    1.7268    0.0000 C   0  0  0  0  0  0  0  0  0  0  0  0
    8.7016   -0.5262    0.0000 C   0  0  0  0  0  0  0  0  0  0  0  0
    0.7424   -2.0041    0.0000 C   0  0  0  0  0  0  0  0  0  0  0  0
    6.1031   -0.5227    0.0000 C   0  0  0  0  0  0  0  0  0  0  0  0
   -1.4700   -1.0226    0.0000 C   0  0  0  0  0  0  0  0  0  0  0  0
    4.8048    0.2286    0.0000 C   0  0  0  0  0  0  0  0  0  0  0  0
    7.4029    0.2259    0.0000 C   0  0  0  0  0  0  0  0  0  0  0  0
    0.9069   -0.5174    0.0000 C   0  0  0  0  0  0  0  0  0  0  0  0
    2.2067    0.2313    0.0000 C   0  0  0  0  0  0  0  0  0  0  0  0
    2.2082    1.7313    0.0000 O   0  0  0  0  0  0  0  0  0  0  0  0
   -0.4694    0.0897    0.0000 O   0  0  0  0  0  0  0  0  0  0  0  0
    3.5050   -0.5201    0.0000 O   0  0  0  0  0  0  0  0  0  0  0  0
  2  1  2  0
  3  1  1  0
  5  2  1  0
  6  3  2  0
  7  4  1  0
  9  4  2  0
 10  8  1  0
 11  5  2  0
 11  6  1  0
 11  8  1  0
 12  7  2  0
 13 12  1  0
 14 13  2  0
 15  9  1  0
 15 12  1  0
 16 10  1  0
 16 13  1  0
M  END
>  <NAME>  (2048) 
PHENYLETHYL 2-FUROATE

>  <SYNONYMS>  (2048) 


>  <SPECTRUM TYPE>  (2048) 
MS1

>  <INSTRUMENT TYPE>  (2048) 
EI-B

>  <INSTRUMENT>  (2048) 
HITACHI M-80B

>  <ION MODE>  (2048) 
P

>  <INCHIKEY>  (2048) 
QKPSYARWSBJEDY-UHFFFAOYSA-N

>  <FORMULA>  (2048) 
C13H12O3

>  <EXACT MASS>  (2048) 
216.07864424399997

>  <MW>  (2048) 
216

>  <ID>  (2048) 
JP009044

>  <CONTRIBUTOR>  (2048) 
University of Tokyo Team, {Faculty of Engineering, University of Tokyo

>  <COMMENT>  (2048) 
SMILES=O=C(OCCc(c2)cccc2)c(c1)occ1
InChI=InChI=1S/C13H12O3/c14-13(12-7-4-9-15-12)16-10-8-11-5-2-1-3-6-11/h1-7,9H,8,10H2
computed SMILES=O=C(OCCC=1C=CC=CC1)C=2OC=CC2
accession=JP009044
date=2016.01.19 (Created 2008.10.21, modified 2011.05.06)
author=SODA AROMATIC CO., LTD.
license=CC BY-NC-SA
exact mass=216.07864
ionization energy=70 eV
ion type=[M]+*
computed spectral entropy=1.9001606667108513
computed normalized entropy=0.6574104737633939
SPLASH=splash10-0udj-8900000000-25d5d3ade6100e5acda9
submitter=submitter = University of Tokyo Team (Faculty of Engineering, University of Tokyo)
MoNA Rating=3.75

>  <NUM PEAKS>  (2048) 
18

>  <MASS SPECTRAL PEAKS>  (2048) 
27 1.66
38 2.49
39 17.01
50 1.11
51 4.96
52 1.09
63 1.44
65 5.07
67 1.42
77 6.44
78 4.33
79 2.44
91 10.42
95 51.89
96 2.44
103 4.78
104 99.99
105 12.33

>  <PREDICTED SPECTRUM>  (2048) 
26 77
27 168
28 59
29 32
36 47
37 93
38 182
39 424
40 136
41 213
42 128
43 34
44 37
50 212
51 304
52 155
53 124
55 81
56 85
57 22
62 88
63 213
64 158
65 338
66 144
67 170
68 174
69 150
74 52
75 152
76 74
77 258
78 231
79 164
81 112
89 185
90 74
91 490
92 200
94 30
95 700
96 96
97 8
102 86
103 221
104 999
105 549
106 120
112 90
113 184

$$$$

     RDKit          2D

 14 14  0  0  0  0  0  0  0  0999 V2000
   11.2516   -0.6172    0.0000 C   0  0  0  0  0  0  0  0  0  0  0  0
    9.9534    0.1342    0.0000 C   0  0  0  0  0  0  0  0  0  0  0  0
    8.6535   -0.6145    0.0000 C   0  0  0  0  0  0  0  0  0  0  0  0
    7.3553    0.1368    0.0000 C   0  0  0  0  0  0  0  0  0  0  0  0
    6.0555   -0.6118    0.0000 C   0  0  0  0  0  0  0  0  0  0  0  0
   -0.7724   -2.4051    0.0000 C   0  0  0  0  0  0  0  0  0  0  0  0
    0.6948   -2.0932    0.0000 C   0  0  0  0  0  0  0  0  0  0  0  0
    4.7572    0.1395    0.0000 C   0  0  0  0  0  0  0  0  0  0  0  0
   -1.5176   -1.1118    0.0000 C   0  0  0  0  0  0  0  0  0  0  0  0
    0.8593   -0.6065    0.0000 C   0  0  0  0  0  0  0  0  0  0  0  0
    2.1591    0.1421    0.0000 C   0  0  0  0  0  0  0  0  0  0  0  0
    2.1607    1.6421    0.0000 O   0  0  0  0  0  0  0  0  0  0  0  0
   -0.5170    0.0006    0.0000 O   0  0  0  0  0  0  0  0  0  0  0  0
    3.4574   -0.6092    0.0000 O   0  0  0  0  0  0  0  0  0  0  0  0
  2  1  1  0
  3  2  1  0
  4  3  1  0
  5  4  1  0
  7  6  1  0
  8  5  1  0
  9  6  2  0
 10  7  2  0
 11 10  1  0
 12 11  2  0
 13  9  1  0
 13 10  1  0
 14  8  1  0
 14 11  1  0
M  END
>  <NAME>  (2049) 
HEXYL 2-FUROATE

>  <SYNONYMS>  (2049) 


>  <SPECTRUM TYPE>  (2049) 
MS1

>  <INSTRUMENT TYPE>  (2049) 
EI-B

>  <INSTRUMENT>  (2049) 
HITACHI M-80B

>  <ION MODE>  (2049) 
P

>  <INCHIKEY>  (2049) 
KMLFVAGUWNPADU-UHFFFAOYSA-N

>  <FORMULA>  (2049) 
C11H16O3

>  <EXACT MASS>  (2049) 
196.10994437199997

>  <MW>  (2049) 
196

>  <ID>  (2049) 
JP009043

>  <CONTRIBUTOR>  (2049) 
University of Tokyo Team, {Faculty of Engineering, University of Tokyo

>  <COMMENT>  (2049) 
SMILES=CCCCCCOC(=O)c(c1)occ1
InChI=InChI=1S/C11H16O3/c1-2-3-4-5-8-14-11(12)10-7-6-9-13-10/h6-7,9H,2-5,8H2,1H3
computed SMILES=O=C(OCCCCCC)C=1OC=CC1
accession=JP009043
date=2016.01.19 (Created 2008.10.21, modified 2011.05.06)
author=SODA AROMATIC CO., LTD.
license=CC BY-NC-SA
exact mass=196.10994
ionization energy=70 eV
ion type=[M]+*
computed spectral entropy=2.5288153570055707
computed normalized entropy=0.7672756449476068
SPLASH=splash10-03dj-9500000000-d4f648bf12a127d40665
submitter=submitter = University of Tokyo Team (Faculty of Engineering, University of Tokyo)
MoNA Rating=3.75

>  <NUM PEAKS>  (2049) 
27

>  <MASS SPECTRAL PEAKS>  (2049) 
27 9.93
29 9.02
37 1.16
38 5.24
39 28.46
41 20.19
42 12.55
43 18.73
53 1.91
54 1.37
55 19.81
56 22.9
57 1.99
66 1.3
67 3.63
68 4.35
69 9.37
83 1.78
84 8.84
95 99.99
96 7.27
97 1.17
112 63.97
113 96.6
114 5.93
196 9.98
197 1.21

>  <PREDICTED SPECTRUM>  (2049) 
25 20
26 157
27 443
28 177
29 455
36 76
37 148
38 262
39 661
40 311
41 660
42 430
43 510
44 252
50 97
51 211
52 117
53 198
54 201
55 516
56 513
57 209
61 10
66 135
67 241
68 257
69 387
70 114
77 14
81 8
82 97
83 102
84 356
85 75
95 999
96 188
112 732
113 883
114 285
196 165
197 42

$$$$

     RDKit          2D

 11 11  0  0  0  0  0  0  0  0999 V2000
    7.3934    0.5249    0.0000 C   0  0  0  0  0  0  0  0  0  0  0  0
    6.0936   -0.2237    0.0000 C   0  0  0  0  0  0  0  0  0  0  0  0
   -0.7342   -2.0170    0.0000 C   0  0  0  0  0  0  0  0  0  0  0  0
    0.7330   -1.7051    0.0000 C   0  0  0  0  0  0  0  0  0  0  0  0
    4.7954    0.5276    0.0000 C   0  0  0  0  0  0  0  0  0  0  0  0
   -1.4794   -0.7237    0.0000 C   0  0  0  0  0  0  0  0  0  0  0  0
    0.8975   -0.2184    0.0000 C   0  0  0  0  0  0  0  0  0  0  0  0
    2.1973    0.5302    0.0000 C   0  0  0  0  0  0  0  0  0  0  0  0
    2.1988    2.0302    0.0000 O   0  0  0  0  0  0  0  0  0  0  0  0
   -0.4788    0.3887    0.0000 O   0  0  0  0  0  0  0  0  0  0  0  0
    3.4955   -0.2211    0.0000 O   0  0  0  0  0  0  0  0  0  0  0  0
  2  1  1  0
  4  3  1  0
  5  2  1  0
  6  3  2  0
  7  4  2  0
  8  7  1  0
  9  8  2  0
 10  6  1  0
 10  7  1  0
 11  5  1  0
 11  8  1  0
M  END
>  <NAME>  (2050) 
PROPYL 2-FUROATE

>  <SYNONYMS>  (2050) 


>  <SPECTRUM TYPE>  (2050) 
MS1

>  <INSTRUMENT TYPE>  (2050) 
EI-B

>  <INSTRUMENT>  (2050) 
HITACHI M-80B

>  <ION MODE>  (2050) 
P

>  <INCHIKEY>  (2050) 
HSCVIIISAAEVQT-UHFFFAOYSA-N

>  <FORMULA>  (2050) 
C8H10O3

>  <EXACT MASS>  (2050) 
154.06299417999998

>  <MW>  (2050) 
154

>  <ID>  (2050) 
JP009042

>  <CONTRIBUTOR>  (2050) 
University of Tokyo Team, {Faculty of Engineering, University of Tokyo

>  <COMMENT>  (2050) 
computed SMILES=O=C(OCCC)C=1OC=CC1
SMILES=CCCOC(=O)c(c1)occ1
cas=615-10-1
InChI=InChI=1S/C8H10O3/c1-2-5-11-8(9)7-4-3-6-10-7/h3-4,6H,2,5H2,1H3
accession=JP009042
date=2016.01.19 (Created 2008.10.21, modified 2011.05.06)
author=SODA AROMATIC CO., LTD.
license=CC BY-NC-SA
exact mass=154.06299
ionization energy=70 eV
ion type=[M]+*
computed spectral entropy=2.1397115220131004
computed normalized entropy=0.6922297426515039
SPLASH=splash10-01ot-9400000000-b53ecd36fdd710dc8fbd
submitter=submitter = University of Tokyo Team (Faculty of Engineering, University of Tokyo)
MoNA Rating=3.75

>  <NUM PEAKS>  (2050) 
22

>  <MASS SPECTRAL PEAKS>  (2050) 
26 1.21
27 8.4
29 3.2
37 1.96
38 7.01
39 26.54
41 8.47
42 2.1
43 4.64
53 1.05
59 2.8
66 1.17
67 2.27
68 3.5
84 2.92
95 99.99
96 9.33
97 1.51
112 61.1
113 18.14
114 1.12
154 10.37

>  <PREDICTED SPECTRUM>  (2050) 
14 9
15 73
25 45
26 161
27 390
28 149
29 313
31 106
36 102
37 146
38 258
39 583
40 224
41 479
42 247
43 314
44 163
45 70
49 25
50 44
51 188
52 49
53 32
54 52
56 33
59 50
66 99
67 199
68 234
69 188
73 17
79 20
84 76
85 6
95 999
96 218
97 121
112 525
113 527
114 126
125 7
126 56
139 24
154 207
155 53

$$$$

     RDKit          2D

  8  8  0  0  0  0  0  0  0  0999 V2000
    3.5281    0.5404    0.0000 C   0  0  0  0  0  0  0  0  0  0  0  0
    2.2289    1.2902    0.0000 C   0  0  0  0  0  0  0  0  0  0  0  0
   -1.6700   -0.9600    0.0000 C   0  0  0  0  0  0  0  0  0  0  0  0
   -1.6700    0.5400    0.0000 C   0  0  0  0  0  0  0  0  0  0  0  0
    0.9300   -0.9600    0.0000 C   0  0  0  0  0  0  0  0  0  0  0  0
    0.9300    0.5400    0.0000 C   0  0  0  0  0  0  0  0  0  0  0  0
   -0.3700   -1.7100    0.0000 N   0  0  0  0  0  0  0  0  0  0  0  0
   -0.3700    1.2900    0.0000 N   0  0  0  0  0  0  0  0  0  0  0  0
  2  1  1  0
  4  3  2  0
  6  2  1  0
  6  5  1  0
  7  3  1  0
  7  5  2  0
  8  4  1  0
  8  6  2  0
M  END
>  <NAME>  (2051) 
2-ETHYLPYRAZINE

>  <SYNONYMS>  (2051) 


>  <SPECTRUM TYPE>  (2051) 
MS1

>  <INSTRUMENT TYPE>  (2051) 
EI-B

>  <INSTRUMENT>  (2051) 
HITACHI M-80B

>  <ION MODE>  (2051) 
P

>  <INCHIKEY>  (2051) 
KVFIJIWMDBAGDP-UHFFFAOYSA-N

>  <FORMULA>  (2051) 
C6H8N2

>  <EXACT MASS>  (2051) 
108.06874825599999

>  <MW>  (2051) 
108

>  <ID>  (2051) 
JP009041

>  <CONTRIBUTOR>  (2051) 
University of Tokyo Team, {Faculty of Engineering, University of Tokyo

>  <COMMENT>  (2051) 
SMILES=CCc(c1)nccn1
cas=13925-00-3
InChI=InChI=1S/C6H8N2/c1-2-6-5-7-3-4-8-6/h3-5H,2H2,1H3
computed SMILES=N=1C=CN=C(C1)CC
exact mass=108.06875
accession=JP009041
date=2016.01.19 (Created 2008.10.21, modified 2011.05.06)
author=SODA AROMATIC CO., LTD.
license=CC BY-NC-SA
ionization energy=70 eV
ion type=[M]+*
computed spectral entropy=2.6137465813482565
computed normalized entropy=0.7930448889349924
SPLASH=splash10-0a4i-9700000000-f6a542b90b45a0c8ac2d
submitter=submitter = University of Tokyo Team (Faculty of Engineering, University of Tokyo)
MoNA Rating=3.75

>  <NUM PEAKS>  (2051) 
27

>  <MASS SPECTRAL PEAKS>  (2051) 
26 16.46
27 12.33
28 13.59
29 1.97
37 1.95
38 6.04
39 18.45
40 6.01
41 5.59
42 1.99
50 4.24
51 8.35
52 20.09
53 20.93
54 8.4
55 4.03
56 9.98
64 1.19
65 1.03
66 4.2
79 5.07
80 25.33
81 9.67
93 1.78
107 99.99
108 68.84
109 5.06

>  <PREDICTED SPECTRUM>  (2051) 
14 25
15 59
25 40
26 167
27 259
28 263
36 1
37 214
38 418
39 735
40 511
41 549
42 451
49 54
50 306
51 544
52 747
53 458
54 416
55 224
56 30
62 71
63 194
64 332
65 281
66 648
67 309
68 182
78 7
79 249
80 513
81 208
82 60
92 89
93 999
94 255
107 897
108 949
109 243

$$$$

     RDKit          2D

  7  7  0  0  0  0  0  0  0  0999 V2000
    2.2289    1.2902    0.0000 C   0  0  0  0  0  0  0  0  0  0  0  0
   -1.6700   -0.9600    0.0000 C   0  0  0  0  0  0  0  0  0  0  0  0
   -1.6700    0.5400    0.0000 C   0  0  0  0  0  0  0  0  0  0  0  0
    0.9300   -0.9600    0.0000 C   0  0  0  0  0  0  0  0  0  0  0  0
    0.9300    0.5400    0.0000 C   0  0  0  0  0  0  0  0  0  0  0  0
   -0.3700   -1.7100    0.0000 N   0  0  0  0  0  0  0  0  0  0  0  0
   -0.3700    1.2900    0.0000 N   0  0  0  0  0  0  0  0  0  0  0  0
  3  2  2  0
  5  1  1  0
  5  4  1  0
  6  2  1  0
  6  4  2  0
  7  3  1  0
  7  5  2  0
M  END
>  <NAME>  (2052) 
2-METHYLPYRAZINE

>  <SYNONYMS>  (2052) 


>  <SPECTRUM TYPE>  (2052) 
MS1

>  <INSTRUMENT TYPE>  (2052) 
EI-B

>  <INSTRUMENT>  (2052) 
HITACHI M-80B

>  <ION MODE>  (2052) 
P

>  <INCHIKEY>  (2052) 
CAWHJQAVHZEVTJ-UHFFFAOYSA-N

>  <FORMULA>  (2052) 
C5H6N2

>  <EXACT MASS>  (2052) 
94.053098192

>  <MW>  (2052) 
94

>  <ID>  (2052) 
JP009040

>  <CONTRIBUTOR>  (2052) 
University of Tokyo Team, {Faculty of Engineering, University of Tokyo

>  <COMMENT>  (2052) 
SMILES=Cc(c1)nccn1
cas=109-08-0
InChI=InChI=1S/C5H6N2/c1-5-4-6-2-3-7-5/h2-4H,1H3
computed SMILES=N=1C=CN=C(C1)C
accession=JP009040
date=2016.01.19 (Created 2008.10.21, modified 2011.05.06)
author=SODA AROMATIC CO., LTD.
license=CC BY-NC-SA
exact mass=94.0531
ionization energy=70 eV
ion type=[M]+*
computed spectral entropy=2.518416906232146
computed normalized entropy=0.792439977631348
SPLASH=splash10-0006-9000000000-a2eaa2efdc4e61c4335c
submitter=submitter = University of Tokyo Team (Faculty of Engineering, University of Tokyo)
MoNA Rating=3.75

>  <NUM PEAKS>  (2052) 
24

>  <MASS SPECTRAL PEAKS>  (2052) 
15 2.79
25 1.33
26 35.2
27 7.18
28 13.28
37 8.53
38 16.42
39 36.79
40 30.04
41 12.67
42 18.87
51 5.58
52 11.46
53 21.03
63 1.07
64 2.42
65 1.34
66 3.64
67 60.42
68 2.54
79 1.18
93 1.22
94 99.99
95 6.52

>  <PREDICTED SPECTRUM>  (2052) 
25 19
26 121
27 83
28 142
37 110
38 221
39 464
40 289
41 326
42 341
49 41
50 182
51 341
52 367
53 347
54 192
63 38
64 46
65 165
66 420
67 285
68 66
79 103
92 45
93 521
94 999
95 225

$$$$

     RDKit          2D

  6  6  0  0  0  0  0  0  0  0999 V2000
    1.3000   -0.7500    0.0000 C   0  0  0  0  0  0  0  0  0  0  0  0
    1.3000    0.7500    0.0000 C   0  0  0  0  0  0  0  0  0  0  0  0
   -1.3000   -0.7500    0.0000 C   0  0  0  0  0  0  0  0  0  0  0  0
   -1.3000    0.7500    0.0000 C   0  0  0  0  0  0  0  0  0  0  0  0
   -0.0000   -1.5000    0.0000 N   0  0  0  0  0  0  0  0  0  0  0  0
    0.0000    1.5000    0.0000 N   0  0  0  0  0  0  0  0  0  0  0  0
  2  1  2  0
  4  3  1  0
  5  1  1  0
  5  3  2  0
  6  2  1  0
  6  4  2  0
M  END
>  <NAME>  (2053) 
PYRAZINE

>  <SYNONYMS>  (2053) 


>  <SPECTRUM TYPE>  (2053) 
MS1

>  <INSTRUMENT TYPE>  (2053) 
EI-B

>  <INSTRUMENT>  (2053) 
HITACHI M-80B

>  <ION MODE>  (2053) 
P

>  <INCHIKEY>  (2053) 
KYQCOXFCLRTKLS-UHFFFAOYSA-N

>  <FORMULA>  (2053) 
C4H4N2

>  <EXACT MASS>  (2053) 
80.037448128

>  <MW>  (2053) 
80

>  <ID>  (2053) 
JP009039

>  <CONTRIBUTOR>  (2053) 
University of Tokyo Team, {Faculty of Engineering, University of Tokyo

>  <COMMENT>  (2053) 
SMILES=c(c1)nccn1
cas=290-37-9
InChI=InChI=1S/C4H4N2/c1-2-6-4-3-5-1/h1-4H
computed SMILES=N=1C=CN=CC1
accession=JP009039
date=2016.01.19 (Created 2008.10.21, modified 2011.05.06)
author=SODA AROMATIC CO., LTD.
license=CC BY-NC-SA
exact mass=80.03745
ionization energy=70 eV
ion type=[M]+*
computed spectral entropy=1.711791100303417
computed normalized entropy=0.6321120264338884
SPLASH=splash10-0f89-9000000000-0df782a68a2c1241b0fa
submitter=submitter = University of Tokyo Team (Faculty of Engineering, University of Tokyo)
MoNA Rating=3.75

>  <NUM PEAKS>  (2053) 
15

>  <MASS SPECTRAL PEAKS>  (2053) 
27 4.74
28 14.6
38 2
39 4.49
40 1.65
50 2.44
51 12.01
52 13.93
53 52.96
54 2.17
76 1
77 1.13
79 1.01
80 99.99
81 4.47

>  <PREDICTED SPECTRUM>  (2053) 
14 19
19 2
25 42
26 216
27 269
28 264
31 9
32 25
33 27
38 235
39 132
40 333
41 376
42 68
50 94
51 268
52 515
53 490
54 288
61 109
77 45
78 55
79 703
80 999
81 217

$$$$

     RDKit          2D

  9  9  0  0  0  0  0  0  0  0999 V2000
    2.5989    1.5002    0.0000 C   0  0  0  0  0  0  0  0  0  0  0  0
   -2.5989   -1.5002    0.0000 C   0  0  0  0  0  0  0  0  0  0  0  0
   -2.5989    1.5002    0.0000 C   0  0  0  0  0  0  0  0  0  0  0  0
    1.3000   -0.7500    0.0000 C   0  0  0  0  0  0  0  0  0  0  0  0
    1.3000    0.7500    0.0000 C   0  0  0  0  0  0  0  0  0  0  0  0
   -1.3000   -0.7500    0.0000 C   0  0  0  0  0  0  0  0  0  0  0  0
   -1.3000    0.7500    0.0000 C   0  0  0  0  0  0  0  0  0  0  0  0
   -0.0000   -1.5000    0.0000 N   0  0  0  0  0  0  0  0  0  0  0  0
    0.0000    1.5000    0.0000 N   0  0  0  0  0  0  0  0  0  0  0  0
  5  1  1  0
  5  4  2  0
  6  2  1  0
  7  3  1  0
  7  6  1  0
  8  4  1  0
  8  6  2  0
  9  5  1  0
  9  7  2  0
M  END
>  <NAME>  (2054) 
2,3,5-TRIMETHYLPYRAZINE

>  <SYNONYMS>  (2054) 


>  <SPECTRUM TYPE>  (2054) 
MS1

>  <INSTRUMENT TYPE>  (2054) 
EI-B

>  <INSTRUMENT>  (2054) 
HITACHI M-80B

>  <ION MODE>  (2054) 
P

>  <INCHIKEY>  (2054) 
IAEGWXHKWJGQAZ-UHFFFAOYSA-N

>  <FORMULA>  (2054) 
C7H10N2

>  <EXACT MASS>  (2054) 
122.08439831999999

>  <MW>  (2054) 
122

>  <ID>  (2054) 
JP009038

>  <CONTRIBUTOR>  (2054) 
University of Tokyo Team, {Faculty of Engineering, University of Tokyo

>  <COMMENT>  (2054) 
SMILES=Cc(c1)nc(C)c(C)n1
cas=14667-55-1
InChI=InChI=1S/C7H10N2/c1-5-4-8-6(2)7(3)9-5/h4H,1-3H3
computed SMILES=N=1C=C(N=C(C1C)C)C
accession=JP009038
date=2016.01.19 (Created 2008.10.21, modified 2011.05.06)
author=SODA AROMATIC CO., LTD.
license=CC BY-NC-SA
exact mass=122.0844
ionization energy=70 eV
ion type=[M]+*
computed spectral entropy=2.2679897219586063
computed normalized entropy=0.7233276688684711
SPLASH=splash10-0006-9200000000-40504210dd3941e2c04a
submitter=submitter = University of Tokyo Team (Faculty of Engineering, University of Tokyo)
MoNA Rating=3.75

>  <NUM PEAKS>  (2054) 
23

>  <MASS SPECTRAL PEAKS>  (2054) 
15 2.86
26 2.25
27 11.15
28 5.43
37 1.07
38 5.1
39 25.23
40 12.87
41 4.82
42 99.99
43 2
50 1.89
51 5.03
52 6.53
53 8.2
54 9.38
66 1.26
80 2.11
81 13.49
107 1
121 1.38
122 47.56
123 4.17

>  <PREDICTED SPECTRUM>  (2054) 
14 8
15 38
25 8
26 81
27 118
28 73
36 11
37 48
38 170
39 441
40 325
41 328
42 682
43 58
44 46
50 54
51 256
52 416
53 370
54 376
55 57
63 77
64 88
65 155
66 313
67 182
68 19
77 31
78 32
79 30
80 333
81 343
82 76
83 32
92 56
93 110
94 222
95 193
96 148
106 89
107 343
108 74
119 101
120 205
121 761
122 999
123 279

$$$$

     RDKit          2D

 10 11  0  0  0  0  0  0  0  0999 V2000
   -2.6000    0.7500    0.0000 C   0  0  0  0  0  0  0  0  0  0  0  0
   -2.6000   -0.7500    0.0000 C   0  0  0  0  0  0  0  0  0  0  0  0
   -1.3000    1.5000    0.0000 C   0  0  0  0  0  0  0  0  0  0  0  0
   -1.3000   -1.5000    0.0000 C   0  0  0  0  0  0  0  0  0  0  0  0
    2.6000    0.7500    0.0000 C   0  0  0  0  0  0  0  0  0  0  0  0
    2.6000   -0.7500    0.0000 C   0  0  0  0  0  0  0  0  0  0  0  0
    0.0000    0.7500    0.0000 C   0  0  0  0  0  0  0  0  0  0  0  0
    0.0000   -0.7500    0.0000 C   0  0  0  0  0  0  0  0  0  0  0  0
    1.3000    1.5000    0.0000 N   0  0  0  0  0  0  0  0  0  0  0  0
    1.3000   -1.5000    0.0000 N   0  0  0  0  0  0  0  0  0  0  0  0
  2  1  2  0
  3  1  1  0
  4  2  1  0
  6  5  1  0
  7  3  2  0
  8  4  2  0
  8  7  1  0
  9  5  2  0
  9  7  1  0
 10  6  2  0
 10  8  1  0
M  END
>  <NAME>  (2055) 
QUINOXALINE

>  <SYNONYMS>  (2055) 


>  <SPECTRUM TYPE>  (2055) 
MS1

>  <INSTRUMENT TYPE>  (2055) 
EI-B

>  <INSTRUMENT>  (2055) 
HITACHI M-80B

>  <ION MODE>  (2055) 
P

>  <INCHIKEY>  (2055) 
XSCHRSMBECNVNS-UHFFFAOYSA-N

>  <FORMULA>  (2055) 
C8H6N2

>  <EXACT MASS>  (2055) 
130.053098192

>  <MW>  (2055) 
130

>  <ID>  (2055) 
JP009037

>  <CONTRIBUTOR>  (2055) 
University of Tokyo Team, {Faculty of Engineering, University of Tokyo

>  <COMMENT>  (2055) 
SMILES=c(c2)cc(n1)c(c2)ncc1
cas=91-19-0
InChI=InChI=1S/C8H6N2/c1-2-4-8-7(3-1)9-5-6-10-8/h1-6H
computed SMILES=N1=CC=NC2=CC=CC=C12
accession=JP009037
date=2016.01.19 (Created 2008.10.21, modified 2011.05.06)
author=SODA AROMATIC CO., LTD.
license=CC BY-NC-SA
exact mass=130.0531
ionization energy=70 eV
ion type=[M]+*
computed spectral entropy=2.3320139462713096
computed normalized entropy=0.7157596219317224
SPLASH=splash10-0fai-8900000000-c9e91790e5de9878169c
submitter=submitter = University of Tokyo Team (Faculty of Engineering, University of Tokyo)
MoNA Rating=3.75

>  <NUM PEAKS>  (2055) 
26

>  <MASS SPECTRAL PEAKS>  (2055) 
26 3.24
27 1.71
28 4.72
37 3.38
38 3.43
39 2.43
49 1.7
50 27.86
51 11.14
52 8.09
53 1.1
62 1.28
63 1.65
64 2.56
65 2.74
73 1.15
74 6.83
75 13.64
76 56.52
77 6.73
102 3.91
103 55.92
104 3.7
129 1.65
130 99.99
131 9.86

>  <PREDICTED SPECTRUM>  (2055) 
25 1
26 24
27 81
37 30
38 65
39 32
40 6
44 26
49 13
50 218
51 188
52 128
53 31
57 16
62 29
63 100
64 32
69 39
74 102
75 305
76 429
77 232
78 160
79 39
100 95
102 93
103 651
104 221
129 156
130 999
131 312
132 41

$$$$

     RDKit          2D

 10 11  0  0  0  0  0  0  0  0999 V2000
   -2.6000    0.7500    0.0000 C   0  0  0  0  0  0  0  0  0  0  0  0
   -2.6000   -0.7500    0.0000 C   0  0  0  0  0  0  0  0  0  0  0  0
   -1.3000    1.5000    0.0000 C   0  0  0  0  0  0  0  0  0  0  0  0
   -1.3000   -1.5000    0.0000 C   0  0  0  0  0  0  0  0  0  0  0  0
    1.3000    1.5000    0.0000 C   0  0  0  0  0  0  0  0  0  0  0  0
    2.6000    0.7500    0.0000 C   0  0  0  0  0  0  0  0  0  0  0  0
    1.3000   -1.5000    0.0000 C   0  0  0  0  0  0  0  0  0  0  0  0
    0.0000    0.7500    0.0000 C   0  0  0  0  0  0  0  0  0  0  0  0
    0.0000   -0.7500    0.0000 C   0  0  0  0  0  0  0  0  0  0  0  0
    2.6000   -0.7500    0.0000 N   0  0  0  0  0  0  0  0  0  0  0  0
  2  1  2  0
  3  1  1  0
  4  2  1  0
  6  5  2  0
  8  3  2  0
  8  5  1  0
  9  4  2  0
  9  7  1  0
  9  8  1  0
 10  6  1  0
 10  7  2  0
M  END
>  <NAME>  (2056) 
ISOQUINOLINE

>  <SYNONYMS>  (2056) 


>  <SPECTRUM TYPE>  (2056) 
MS1

>  <INSTRUMENT TYPE>  (2056) 
EI-B

>  <INSTRUMENT>  (2056) 
HITACHI M-80B

>  <ION MODE>  (2056) 
P

>  <INCHIKEY>  (2056) 
AWJUIBRHMBBTKR-UHFFFAOYSA-N

>  <FORMULA>  (2056) 
C9H7N

>  <EXACT MASS>  (2056) 
129.057849224

>  <MW>  (2056) 
129

>  <ID>  (2056) 
JP009036

>  <CONTRIBUTOR>  (2056) 
University of Tokyo Team, {Faculty of Engineering, University of Tokyo

>  <COMMENT>  (2056) 
SMILES=c(c2)cc(c1)c(c2)cnc1
cas=119-65-3
InChI=InChI=1S/C9H7N/c1-2-4-9-7-10-6-5-8(9)3-1/h1-7H
computed SMILES=N=1C=CC=2C=CC=CC2C1
accession=JP009036
date=2016.01.19 (Created 2008.10.21, modified 2011.05.06)
author=SODA AROMATIC CO., LTD.
license=CC BY-NC-SA
exact mass=129.05785
ionization energy=70 eV
ion type=[M]+*
computed spectral entropy=2.439503003141191
computed normalized entropy=0.740177108977695
SPLASH=splash10-004i-5900000000-938e708f6f6371c89a90
submitter=submitter = University of Tokyo Team (Faculty of Engineering, University of Tokyo)
MoNA Rating=3.75

>  <NUM PEAKS>  (2056) 
27

>  <MASS SPECTRAL PEAKS>  (2056) 
27 1.07
28 1.21
37 1.31
38 2.08
39 4.18
49 1.17
50 12.19
51 17.4
52 4.03
61 1.57
62 2.85
63 6.64
64 2.37
74 8.91
75 11.86
76 10.2
77 4.15
78 2.3
87 1.07
98 1.13
101 6.5
102 26.67
103 8.2
127 1.02
128 17.44
129 99.99
130 10.98

>  <PREDICTED SPECTRUM>  (2056) 
26 35
38 13
39 77
49 41
50 243
51 291
52 131
57 9
61 23
62 127
63 261
64 82
74 200
75 326
76 223
77 249
78 122
84 48
86 13
87 33
89 121
98 11
99 66
100 60
101 289
102 610
103 307
104 0
127 137
128 549
129 999
130 329
131 30

$$$$

     RDKit          2D

  8  8  0  0  0  0  0  0  0  0999 V2000
    3.8981   -0.7504    0.0000 C   0  0  0  0  0  0  0  0  0  0  0  0
   -0.0000    1.5000    0.0000 C   0  0  0  0  0  0  0  0  0  0  0  0
   -1.3000    0.7500    0.0000 C   0  0  0  0  0  0  0  0  0  0  0  0
    1.3000    0.7500    0.0000 C   0  0  0  0  0  0  0  0  0  0  0  0
   -1.3000   -0.7500    0.0000 C   0  0  0  0  0  0  0  0  0  0  0  0
    1.3000   -0.7500    0.0000 C   0  0  0  0  0  0  0  0  0  0  0  0
   -0.0000   -1.5000    0.0000 N   0  0  0  0  0  0  0  0  0  0  0  0
    2.5989   -1.5002    0.0000 O   0  0  0  0  0  0  0  0  0  0  0  0
  3  2  2  0
  4  2  1  0
  5  3  1  0
  6  4  2  0
  7  5  2  0
  7  6  1  0
  8  1  1  0
  8  6  1  0
M  END
>  <NAME>  (2057) 
2-METHOXYPYRIDINE

>  <SYNONYMS>  (2057) 


>  <SPECTRUM TYPE>  (2057) 
MS1

>  <INSTRUMENT TYPE>  (2057) 
EI-B

>  <INSTRUMENT>  (2057) 
HITACHI M-80B

>  <ION MODE>  (2057) 
P

>  <INCHIKEY>  (2057) 
IWTFOFMTUOBLHG-UHFFFAOYSA-N

>  <FORMULA>  (2057) 
C6H7NO

>  <EXACT MASS>  (2057) 
109.052763844

>  <MW>  (2057) 
109

>  <ID>  (2057) 
JP009035

>  <CONTRIBUTOR>  (2057) 
University of Tokyo Team, {Faculty of Engineering, University of Tokyo

>  <COMMENT>  (2057) 
SMILES=COc(c1)nccc1
cas=1628-89-3
InChI=InChI=1S/C6H7NO/c1-8-6-4-2-3-5-7-6/h2-5H,1H3
computed SMILES=N=1C=CC=CC1OC
accession=JP009035
date=2016.01.19 (Created 2008.10.21, modified 2011.05.06)
author=SODA AROMATIC CO., LTD.
license=CC BY-NC-SA
exact mass=109.05276
ionization energy=70 eV
ion type=[M]+*
computed spectral entropy=2.7007515783610465
computed normalized entropy=0.7792721817549045
SPLASH=splash10-0pdi-9300000000-b6ad8290f43d79efbb0c
submitter=submitter = University of Tokyo Team (Faculty of Engineering, University of Tokyo)
MoNA Rating=3.75

>  <NUM PEAKS>  (2057) 
32

>  <MASS SPECTRAL PEAKS>  (2057) 
15 6.97
26 5.29
27 7.76
28 4.8
29 4.47
37 6.72
38 19.41
39 41.98
40 5.53
41 1.82
42 3.93
49 2.03
50 11.86
51 24.55
52 54.64
53 11.34
54 1.32
55 1.42
64 4.34
65 3.43
66 9.06
67 1.08
75 1.4
76 2.17
78 21.23
79 99.99
80 30.96
81 2.16
93 1.47
108 81.41
109 71.39
110 5.11

>  <PREDICTED SPECTRUM>  (2057) 
14 13
15 54
25 1
26 84
28 46
29 68
37 32
38 112
39 264
40 73
41 17
42 44
49 62
50 230
51 410
52 379
53 252
54 95
62 1
63 91
64 106
65 186
66 447
67 157
78 613
79 540
80 828
81 265
94 413
95 41
107 131
108 941
109 999
110 248

$$$$

     RDKit          2D

  8  8  0  0  0  0  0  0  0  0999 V2000
   -2.9228    0.8825    0.0000 C   0  0  0  0  0  0  0  0  0  0  0  0
   -1.6238    1.6325    0.0000 C   0  0  0  0  0  0  0  0  0  0  0  0
    0.9748    1.6333    0.0000 C   0  0  0  0  0  0  0  0  0  0  0  0
   -0.3252   -0.6183    0.0000 C   0  0  0  0  0  0  0  0  0  0  0  0
    2.2738    0.8833    0.0000 C   0  0  0  0  0  0  0  0  0  0  0  0
    0.9738   -1.3683    0.0000 C   0  0  0  0  0  0  0  0  0  0  0  0
   -0.3248    0.8825    0.0000 C   0  0  0  0  0  0  0  0  0  0  0  0
    2.2733   -0.6175    0.0000 N   0  0  0  0  0  0  0  0  0  0  0  0
  2  1  1  0
  5  3  2  0
  6  4  1  0
  7  2  1  0
  7  3  1  0
  7  4  2  0
  8  5  1  0
  8  6  2  0
M  END
>  <NAME>  (2058) 
4-ETHYLPYRIDINE

>  <SYNONYMS>  (2058) 


>  <SPECTRUM TYPE>  (2058) 
MS1

>  <INSTRUMENT TYPE>  (2058) 
EI-B

>  <INSTRUMENT>  (2058) 
HITACHI M-80B

>  <ION MODE>  (2058) 
P

>  <INCHIKEY>  (2058) 
VJXRKZJMGVSXPX-UHFFFAOYSA-N

>  <FORMULA>  (2058) 
C7H9N

>  <EXACT MASS>  (2058) 
107.073499288

>  <MW>  (2058) 
107

>  <ID>  (2058) 
JP009034

>  <CONTRIBUTOR>  (2058) 
University of Tokyo Team, {Faculty of Engineering, University of Tokyo

>  <COMMENT>  (2058) 
SMILES=CCc(c1)ccnc1
cas=536-75-4
InChI=InChI=1S/C7H9N/c1-2-7-3-5-8-6-4-7/h3-6H,2H2,1H3
computed SMILES=N=1C=CC(=CC1)CC
accession=JP009034
date=2016.01.19 (Created 2008.10.21, modified 2011.05.06)
author=SODA AROMATIC CO., LTD.
license=CC BY-NC-SA
exact mass=107.0735
ionization energy=70 eV
ion type=[M]+*
computed spectral entropy=2.7818643486513177
computed normalized entropy=0.7762940273031822
SPLASH=splash10-0a4i-9600000000-8f4501cc7cb4f728840d
submitter=submitter = University of Tokyo Team (Faculty of Engineering, University of Tokyo)
MoNA Rating=3.75

>  <NUM PEAKS>  (2058) 
36

>  <MASS SPECTRAL PEAKS>  (2058) 
15 1.55
26 4.41
27 11.2
28 6.92
29 1.2
37 1.77
38 5.26
39 25.04
40 2.26
41 4.63
49 1.42
50 14.42
51 25.34
52 15.38
53 6.81
54 7.25
62 1.77
63 6.69
64 2.79
65 26.93
66 3.88
67 1
74 1.05
75 1.32
76 1.53
77 10.12
78 7.62
79 24.53
80 11.1
92 45.53
93 2.47
104 1.74
105 1.04
106 83.53
107 99.99
108 7.99

>  <PREDICTED SPECTRUM>  (2058) 
14 8
15 36
25 16
26 158
27 356
28 281
29 156
37 119
38 209
39 439
40 179
41 308
42 153
43 34
44 81
49 116
50 317
51 493
52 457
53 282
54 139
56 77
61 71
62 160
63 312
64 237
65 518
66 224
67 248
75 41
76 97
77 278
78 416
79 464
80 341
81 55
90 155
91 202
92 999
93 391
104 120
105 115
106 545
107 877
108 277

$$$$

     RDKit          2D

  6  6  0  0  0  0  0  0  0  0999 V2000
    0.0000    1.5000    0.0000 C   0  0  0  0  0  0  0  0  0  0  0  0
   -1.3000    0.7500    0.0000 C   0  0  0  0  0  0  0  0  0  0  0  0
    1.3000    0.7500    0.0000 C   0  0  0  0  0  0  0  0  0  0  0  0
   -1.3000   -0.7500    0.0000 C   0  0  0  0  0  0  0  0  0  0  0  0
    1.3000   -0.7500    0.0000 C   0  0  0  0  0  0  0  0  0  0  0  0
   -0.0000   -1.5000    0.0000 N   0  0  0  0  0  0  0  0  0  0  0  0
  2  1  2  0
  3  1  1  0
  4  2  1  0
  5  3  2  0
  6  4  2  0
  6  5  1  0
M  END
>  <NAME>  (2059) 
PYRIDINE

>  <SYNONYMS>  (2059) 


>  <SPECTRUM TYPE>  (2059) 
MS1

>  <INSTRUMENT TYPE>  (2059) 
EI-B

>  <INSTRUMENT>  (2059) 
HITACHI M-80B

>  <ION MODE>  (2059) 
P

>  <INCHIKEY>  (2059) 
JUJWROOIHBZHMG-UHFFFAOYSA-N

>  <FORMULA>  (2059) 
C5H5N

>  <EXACT MASS>  (2059) 
79.04219916

>  <MW>  (2059) 
79

>  <ID>  (2059) 
JP009032

>  <CONTRIBUTOR>  (2059) 
University of Tokyo Team, {Faculty of Engineering, University of Tokyo

>  <COMMENT>  (2059) 
SMILES=c(c1)ccnc1
cas=110-86-1
InChI=InChI=1S/C5H5N/c1-2-4-6-5-3-1/h1-5H
computed SMILES=N=1C=CC=CC1
accession=JP009032
date=2016.01.19 (Created 2008.10.21, modified 2011.05.06)
author=SODA AROMATIC CO., LTD.
license=CC BY-NC-SA
exact mass=79.0422
ionization energy=70 eV
ion type=[M]+*
computed spectral entropy=2.10992640050146
computed normalized entropy=0.729984437032151
SPLASH=splash10-0ufr-9000000000-b315c8dbb33ca0192ce6
submitter=submitter = University of Tokyo Team (Faculty of Engineering, University of Tokyo)
MoNA Rating=3.75

>  <NUM PEAKS>  (2059) 
18

>  <MASS SPECTRAL PEAKS>  (2059) 
25 1.29
26 12.41
27 3.79
28 4.89
37 4.17
38 5.03
39 10.26
40 1.24
49 6.19
50 28.99
51 36.13
52 72.1
53 8.18
75 1.64
76 1.38
78 11.32
79 99.99
80 5.61

>  <PREDICTED SPECTRUM>  (2059) 
25 24
26 94
27 37
36 16
37 15
38 97
39 57
40 127
41 115
42 8
49 86
50 430
51 738
52 473
53 303
54 37
67 59
75 35
76 162
77 274
78 999
79 965
80 404
81 13

$$$$

     RDKit          2D

  6  6  0  0  0  0  0  0  0  0999 V2000
    0.0000    1.5000    0.0000 C   0  0  0  0  0  0  0  0  0  0  0  0
   -1.3000    0.7500    0.0000 C   0  0  0  0  0  0  0  0  0  0  0  0
    1.3000    0.7500    0.0000 C   0  0  0  0  0  0  0  0  0  0  0  0
   -1.3000   -0.7500    0.0000 C   0  0  0  0  0  0  0  0  0  0  0  0
    1.3000   -0.7500    0.0000 C   0  0  0  0  0  0  0  0  0  0  0  0
   -0.0000   -1.5000    0.0000 N   0  0  0  0  0  0  0  0  0  0  0  0
  2  1  1  0
  3  1  1  0
  4  2  1  0
  5  3  1  0
  6  4  1  0
  6  5  1  0
M  END
>  <NAME>  (2060) 
PIPERIDINE

>  <SYNONYMS>  (2060) 


>  <SPECTRUM TYPE>  (2060) 
MS1

>  <INSTRUMENT TYPE>  (2060) 
EI-B

>  <INSTRUMENT>  (2060) 
HITACHI M-80B

>  <ION MODE>  (2060) 
P

>  <INCHIKEY>  (2060) 
NQRYJNQNLNOLGT-UHFFFAOYSA-N

>  <FORMULA>  (2060) 
C5H11N

>  <EXACT MASS>  (2060) 
85.08914935199999

>  <MW>  (2060) 
85

>  <ID>  (2060) 
JP009031

>  <CONTRIBUTOR>  (2060) 
University of Tokyo Team, {Faculty of Engineering, University of Tokyo

>  <COMMENT>  (2060) 
SMILES=C(C1)CCNC1
cas=110-89-4
InChI=InChI=1S/C5H11N/c1-2-4-6-5-3-1/h6H,1-5H2
computed SMILES=N1CCCCC1
accession=JP009031
date=2016.01.19 (Created 2008.10.21, modified 2011.05.06)
author=SODA AROMATIC CO., LTD.
license=CC BY-NC-SA
exact mass=85.08915
ionization energy=70 eV
ion type=[M]+*
computed spectral entropy=2.806108599295235
computed normalized entropy=0.8171575583130198
SPLASH=splash10-0563-9000000000-c08d3d67e81c397678d2
submitter=submitter = University of Tokyo Team (Faculty of Engineering, University of Tokyo)
MoNA Rating=3.75

>  <NUM PEAKS>  (2060) 
31

>  <MASS SPECTRAL PEAKS>  (2060) 
15 5.91
26 5.65
27 29.73
28 63.63
29 49.36
30 41.78
38 1.82
39 20.28
40 2.75
41 21.7
42 36.76
43 32.93
44 44.99
45 1.05
50 1.63
51 2.32
52 2.2
53 3.44
54 4.64
55 9.52
56 57.97
57 50.49
58 1.68
67 2.21
68 2.28
70 9.66
80 1.24
82 1.87
84 99.99
85 53.05
86 2.45

>  <PREDICTED SPECTRUM>  (2060) 
14 67
15 228
16 45
17 59
18 120
19 16
25 29
26 209
27 596
28 580
29 642
30 821
31 228
32 63
34 20
35 6
36 39
37 68
38 145
39 531
40 279
41 830
42 919
43 779
44 739
45 179
50 111
51 174
52 107
53 259
54 279
55 527
56 999
57 818
58 308
59 98
64 53
65 19
66 57
67 157
68 294
69 321
70 964
71 338
72 180
81 39
82 271
83 195
84 732
85 770
86 253
87 15

$$$$

     RDKit          2D

 12 11  0  0  0  0  0  0  0  0999 V2000
   -6.8200    5.0625    0.0000 C   0  0  0  0  0  0  0  0  0  0  0  0
   -5.5209    2.8125    0.0000 C   0  0  0  0  0  0  0  0  0  0  0  0
    3.5724    5.0625    0.0000 C   0  0  0  0  0  0  0  0  0  0  0  0
   -4.2219    5.0625    0.0000 C   0  0  0  0  0  0  0  0  0  0  0  0
   -2.9228    4.3125    0.0000 C   0  0  0  0  0  0  0  0  0  0  0  0
    0.9743    5.0625    0.0000 C   0  0  0  0  0  0  0  0  0  0  0  0
   -5.5209    4.3125    0.0000 C   0  0  0  0  0  0  0  0  0  0  0  0
    2.2733    4.3125    0.0000 C   0  0  0  0  0  0  0  0  0  0  0  0
   -0.3248    4.3125    0.0000 C   0  0  0  0  0  0  0  0  0  0  0  0
    2.2733    2.8125    0.0000 O   0  0  0  0  0  0  0  0  0  0  0  0
   -0.3248    2.8125    0.0000 O   0  0  0  0  0  0  0  0  0  0  0  0
   -1.6238    5.0625    0.0000 O   0  0  0  0  0  0  0  0  0  0  0  0
  5  4  1  0
  7  1  1  0
  7  2  1  0
  7  4  1  0
  8  3  1  0
  8  6  1  0
  9  6  1  0
 10  8  2  0
 11  9  2  0
 12  5  1  0
 12  9  1  0
M  END
>  <NAME>  (2061) 
ISOPENTYL ACETOACETATE

>  <SYNONYMS>  (2061) 


>  <SPECTRUM TYPE>  (2061) 
MS1

>  <INSTRUMENT TYPE>  (2061) 
EI-B

>  <INSTRUMENT>  (2061) 
HITACHI M-80B

>  <ION MODE>  (2061) 
P

>  <INCHIKEY>  (2061) 
XHRGPLDMNNGHCX-UHFFFAOYSA-N

>  <FORMULA>  (2061) 
C9H16O3

>  <EXACT MASS>  (2061) 
172.109944372

>  <MW>  (2061) 
172

>  <ID>  (2061) 
JP009030

>  <CONTRIBUTOR>  (2061) 
University of Tokyo Team, {Faculty of Engineering, University of Tokyo

>  <COMMENT>  (2061) 
SMILES=CC(C)CCOC(=O)CC(C)=O
InChI=InChI=1S/C9H16O3/c1-7(2)4-5-12-9(11)6-8(3)10/h7H,4-6H2,1-3H3
computed SMILES=O=C(OCCC(C)C)CC(=O)C
date=2016.01.19 (Created 2008.10.21, modified 2011.05.06)
author=SODA AROMATIC CO., LTD.
license=CC BY-NC-SA
exact mass=172.10994
ionization energy=70 eV
ion type=[M]+*
computed spectral entropy=2.5090100290900983
computed normalized entropy=0.7529579956538073
accession=JP009030
SPLASH=splash10-006x-9000000000-ea4087a7ea2378ba8ee9
submitter=submitter = University of Tokyo Team (Faculty of Engineering, University of Tokyo)
MoNA Rating=3.75

>  <NUM PEAKS>  (2061) 
28

>  <MASS SPECTRAL PEAKS>  (2061) 
15 4.25
26 1.62
27 12.62
29 10.77
31 4.57
39 7.94
41 21.42
42 16.99
43 99.99
44 2.87
45 1.57
53 1.46
55 29.77
56 2.74
57 3.62
58 5.35
59 1.09
60 1.6
61 1.28
69 3.73
70 55.44
71 17.9
73 1.2
84 2.63
85 19.52
87 1.59
102 1.43
103 9.04

>  <PREDICTED SPECTRUM>  (2061) 
14 15
15 21
25 6
26 63
27 221
28 66
29 181
31 94
34 10
38 24
39 272
40 112
41 472
42 436
43 999
44 188
45 177
51 7
53 118
54 119
55 442
56 289
57 249
58 145
59 175
60 142
61 135
67 20
68 95
69 400
70 735
71 538
72 101
73 78
74 4
83 104
84 188
85 522
86 123
87 81
89 48
97 1
99 3
100 5
101 51
102 165
103 231
114 122
115 213
116 97
129 244
130 15
172 93

$$$$

     RDKit          2D

 11 10  0  0  0  0  0  0  0  0999 V2000
    2.5981    4.5000    0.0000 C   0  0  0  0  0  0  0  0  0  0  0  0
   -7.7942    4.5000    0.0000 C   0  0  0  0  0  0  0  0  0  0  0  0
    1.2990    5.2500    0.0000 C   0  0  0  0  0  0  0  0  0  0  0  0
    0.0000    4.5000    0.0000 C   0  0  0  0  0  0  0  0  0  0  0  0
   -1.2990    5.2500    0.0000 C   0  0  0  0  0  0  0  0  0  0  0  0
   -5.1962    4.5000    0.0000 C   0  0  0  0  0  0  0  0  0  0  0  0
   -6.4952    5.2500    0.0000 C   0  0  0  0  0  0  0  0  0  0  0  0
   -3.8971    5.2500    0.0000 C   0  0  0  0  0  0  0  0  0  0  0  0
   -6.4952    6.7500    0.0000 O   0  0  0  0  0  0  0  0  0  0  0  0
   -3.8971    6.7500    0.0000 O   0  0  0  0  0  0  0  0  0  0  0  0
   -2.5981    4.5000    0.0000 O   0  0  0  0  0  0  0  0  0  0  0  0
  3  1  1  0
  4  3  1  0
  5  4  1  0
  7  2  1  0
  7  6  1  0
  8  6  1  0
  9  7  2  0
 10  8  2  0
 11  5  1  0
 11  8  1  0
M  END
>  <NAME>  (2062) 
BUTYL ACETOACETATE

>  <SYNONYMS>  (2062) 


>  <SPECTRUM TYPE>  (2062) 
MS1

>  <INSTRUMENT TYPE>  (2062) 
EI-B

>  <INSTRUMENT>  (2062) 
HITACHI M-80B

>  <ION MODE>  (2062) 
P

>  <INCHIKEY>  (2062) 
REIYHFWZISXFKU-UHFFFAOYSA-N

>  <FORMULA>  (2062) 
C8H14O3

>  <EXACT MASS>  (2062) 
158.09429430799997

>  <MW>  (2062) 
158

>  <ID>  (2062) 
JP009029

>  <CONTRIBUTOR>  (2062) 
University of Tokyo Team, {Faculty of Engineering, University of Tokyo

>  <COMMENT>  (2062) 
SMILES=CCCCOC(=O)CC(C)=O
cas=591-60-6
InChI=InChI=1S/C8H14O3/c1-3-4-5-11-8(10)6-7(2)9/h3-6H2,1-2H3
computed SMILES=O=C(OCCCC)CC(=O)C
accession=JP009029
date=2016.01.19 (Created 2008.10.21, modified 2011.05.06)
author=SODA AROMATIC CO., LTD.
license=CC BY-NC-SA
exact mass=158.09429
ionization energy=70 eV
ion type=[M]+*
computed spectral entropy=2.538411150250332
computed normalized entropy=0.7886017629630896
SPLASH=splash10-0006-9000000000-5e338755179443d54e95
submitter=submitter = University of Tokyo Team (Faculty of Engineering, University of Tokyo)
MoNA Rating=3.75

>  <NUM PEAKS>  (2062) 
25

>  <MASS SPECTRAL PEAKS>  (2062) 
15 4.25
26 2.01
27 14.5
29 18.92
31 4.58
32 2.39
39 6.84
41 24.21
42 15.27
43 99.99
44 1.99
55 3.3
56 34.67
57 19.42
58 4.19
60 12.82
61 3.68
69 2.63
73 1.59
84 4.63
85 26.27
86 1.04
87 1.91
102 3.24
103 18.26

>  <PREDICTED SPECTRUM>  (2062) 
14 31
15 29
16 1
25 19
26 78
27 311
28 157
29 410
30 143
31 101
33 23
38 26
39 347
40 187
41 722
42 457
43 999
44 249
45 243
53 103
54 157
55 168
56 955
57 568
58 225
59 166
60 271
61 87
68 8
69 490
70 8
74 113
75 106
83 155
84 541
85 761
86 191
87 89
100 27
101 220
102 115
103 564
158 104

$$$$

     RDKit          2D

  9  8  0  0  0  0  0  0  0  0999 V2000
    1.9486    3.3750    0.0000 C   0  0  0  0  0  0  0  0  0  0  0  0
   -5.8457    3.3750    0.0000 C   0  0  0  0  0  0  0  0  0  0  0  0
    0.6495    4.1250    0.0000 C   0  0  0  0  0  0  0  0  0  0  0  0
   -3.2476    3.3750    0.0000 C   0  0  0  0  0  0  0  0  0  0  0  0
   -4.5466    4.1250    0.0000 C   0  0  0  0  0  0  0  0  0  0  0  0
   -1.9486    4.1250    0.0000 C   0  0  0  0  0  0  0  0  0  0  0  0
   -4.5466    5.6250    0.0000 O   0  0  0  0  0  0  0  0  0  0  0  0
   -1.9486    5.6250    0.0000 O   0  0  0  0  0  0  0  0  0  0  0  0
   -0.6495    3.3750    0.0000 O   0  0  0  0  0  0  0  0  0  0  0  0
  3  1  1  0
  5  2  1  0
  5  4  1  0
  6  4  1  0
  7  5  2  0
  8  6  2  0
  9  3  1  0
  9  6  1  0
M  END
>  <NAME>  (2063) 
ETHYL ACETOACETATE

>  <SYNONYMS>  (2063) 


>  <SPECTRUM TYPE>  (2063) 
MS1

>  <INSTRUMENT TYPE>  (2063) 
EI-B

>  <INSTRUMENT>  (2063) 
HITACHI M-80B

>  <ION MODE>  (2063) 
P

>  <INCHIKEY>  (2063) 
XYIBRDXRRQCHLP-UHFFFAOYSA-N

>  <FORMULA>  (2063) 
C6H10O3

>  <EXACT MASS>  (2063) 
130.06299417999998

>  <MW>  (2063) 
130

>  <ID>  (2063) 
JP009028

>  <CONTRIBUTOR>  (2063) 
University of Tokyo Team, {Faculty of Engineering, University of Tokyo

>  <COMMENT>  (2063) 
SMILES=CCOC(=O)CC(C)=O
cas=141-97-9
InChI=InChI=1S/C6H10O3/c1-3-9-6(8)4-5(2)7/h3-4H2,1-2H3
computed SMILES=O=C(OCC)CC(=O)C
accession=JP009028
date=2016.01.19 (Created 2008.10.21, modified 2011.05.06)
author=SODA AROMATIC CO., LTD.
license=CC BY-NC-SA
exact mass=130.06299
ionization energy=70 eV
ion type=[M]+*
computed spectral entropy=2.348770791069015
computed normalized entropy=0.7296866728821971
SPLASH=splash10-0006-9000000000-4a1188d69a9a3efd5ef8
submitter=submitter = University of Tokyo Team (Faculty of Engineering, University of Tokyo)
MoNA Rating=3.75

>  <NUM PEAKS>  (2063) 
25

>  <MASS SPECTRAL PEAKS>  (2063) 
14 1.24
15 6.35
26 2.46
27 14.3
29 21.44
31 5.33
39 1.39
41 1.52
42 15.7
43 99.99
44 2.05
45 4.88
58 2.38
60 10.03
61 4.07
69 4.74
70 1.37
73 1.33
84 2.56
85 14.88
87 3.69
88 17.95
102 3.42
115 1.36
130 5.73

>  <PREDICTED SPECTRUM>  (2063) 
14 74
15 151
16 16
17 8
18 16
19 0
25 26
26 111
27 329
28 221
29 414
30 56
31 175
38 20
39 212
40 119
41 310
42 476
43 999
44 207
45 299
46 100
47 34
55 39
56 224
57 257
58 209
59 131
60 264
61 167
68 2
69 60
70 23
71 27
72 80
73 181
84 170
85 477
86 112
87 241
88 398
89 72
102 21
103 80
115 115
130 320
131 87

$$$$

     RDKit          2D

 14 13  0  0  0  0  0  0  0  0999 V2000
    3.5724    6.5625    0.0000 C   0  0  0  0  0  0  0  0  0  0  0  0
  -10.7171    7.3125    0.0000 C   0  0  0  0  0  0  0  0  0  0  0  0
    2.2733    7.3125    0.0000 C   0  0  0  0  0  0  0  0  0  0  0  0
    0.9743    6.5625    0.0000 C   0  0  0  0  0  0  0  0  0  0  0  0
   -0.3248    7.3125    0.0000 C   0  0  0  0  0  0  0  0  0  0  0  0
   -1.6238    6.5625    0.0000 C   0  0  0  0  0  0  0  0  0  0  0  0
   -8.1190    7.3125    0.0000 C   0  0  0  0  0  0  0  0  0  0  0  0
   -6.8200    6.5625    0.0000 C   0  0  0  0  0  0  0  0  0  0  0  0
   -2.9228    7.3125    0.0000 C   0  0  0  0  0  0  0  0  0  0  0  0
   -9.4180    6.5625    0.0000 C   0  0  0  0  0  0  0  0  0  0  0  0
   -5.5209    7.3125    0.0000 C   0  0  0  0  0  0  0  0  0  0  0  0
   -9.4180    5.0625    0.0000 O   0  0  0  0  0  0  0  0  0  0  0  0
   -5.5209    8.8125    0.0000 O   0  0  0  0  0  0  0  0  0  0  0  0
   -4.2219    6.5625    0.0000 O   0  0  0  0  0  0  0  0  0  0  0  0
  3  1  1  0
  4  3  1  0
  5  4  1  0
  6  5  1  0
  8  7  1  0
  9  6  1  0
 10  2  1  0
 10  7  1  0
 11  8  1  0
 12 10  2  0
 13 11  2  0
 14  9  1  0
 14 11  1  0
M  END
>  <NAME>  (2064) 
HEXYL LEVULINATE

>  <SYNONYMS>  (2064) 


>  <SPECTRUM TYPE>  (2064) 
MS1

>  <INSTRUMENT TYPE>  (2064) 
EI-B

>  <INSTRUMENT>  (2064) 
HITACHI M-80B

>  <ION MODE>  (2064) 
P

>  <INCHIKEY>  (2064) 
HBBVKEXMLPMFQQ-UHFFFAOYSA-N

>  <FORMULA>  (2064) 
C11H20O3

>  <EXACT MASS>  (2064) 
200.14124449999997

>  <MW>  (2064) 
200

>  <ID>  (2064) 
JP009027

>  <CONTRIBUTOR>  (2064) 
University of Tokyo Team, {Faculty of Engineering, University of Tokyo

>  <COMMENT>  (2064) 
SMILES=CCCCCCOC(=O)CCC(C)=O
InChI=InChI=1S/C11H20O3/c1-3-4-5-6-9-14-11(13)8-7-10(2)12/h3-9H2,1-2H3
computed SMILES=O=C(OCCCCCC)CCC(=O)C
accession=JP009027
date=2016.01.19 (Created 2008.10.21, modified 2011.05.06)
author=SODA AROMATIC CO., LTD.
license=CC BY-NC-SA
exact mass=200.14124
ionization energy=70 eV
ion type=[M]+*
computed spectral entropy=2.6064633822413454
computed normalized entropy=0.7740523891694467
SPLASH=splash10-0007-9000000000-30250a27cf1d4371cebd
submitter=submitter = University of Tokyo Team (Faculty of Engineering, University of Tokyo)
MoNA Rating=3.75

>  <NUM PEAKS>  (2064) 
29

>  <MASS SPECTRAL PEAKS>  (2064) 
15 2.54
26 1.2
27 12.83
29 9.69
31 1.05
39 5.47
41 19.94
42 8.67
43 99.99
44 2.32
53 1.42
55 12.68
56 13.74
57 6.92
58 1.3
69 3.1
71 7.41
72 2.38
73 2.49
74 26.88
75 10.15
84 8.44
85 10.53
98 3.86
99 78.71
100 3.94
101 11.94
117 13.21
158 1.67

>  <PREDICTED SPECTRUM>  (2064) 
25 7
26 79
27 247
28 111
29 253
30 11
31 65
37 8
38 34
39 213
40 88
41 458
42 365
43 999
44 191
45 53
53 109
54 109
55 411
56 416
57 171
58 88
61 84
68 37
69 267
70 160
71 159
72 131
73 161
74 127
75 27
81 6
82 67
83 59
84 332
85 390
86 94
88 55
89 36
98 105
99 656
100 178
101 499
102 65
113 48
117 201
118 2
143 105
157 34

$$$$

     RDKit          2D

 13 12  0  0  0  0  0  0  0  0999 V2000
    3.2476    4.8750    0.0000 C   0  0  0  0  0  0  0  0  0  0  0  0
    1.9486    7.1250    0.0000 C   0  0  0  0  0  0  0  0  0  0  0  0
   -8.4437    5.6250    0.0000 C   0  0  0  0  0  0  0  0  0  0  0  0
   -5.8457    5.6250    0.0000 C   0  0  0  0  0  0  0  0  0  0  0  0
   -4.5466    4.8750    0.0000 C   0  0  0  0  0  0  0  0  0  0  0  0
    0.6495    4.8750    0.0000 C   0  0  0  0  0  0  0  0  0  0  0  0
   -0.6495    5.6250    0.0000 C   0  0  0  0  0  0  0  0  0  0  0  0
    1.9486    5.6250    0.0000 C   0  0  0  0  0  0  0  0  0  0  0  0
   -7.1447    4.8750    0.0000 C   0  0  0  0  0  0  0  0  0  0  0  0
   -3.2476    5.6250    0.0000 C   0  0  0  0  0  0  0  0  0  0  0  0
   -7.1447    3.3750    0.0000 O   0  0  0  0  0  0  0  0  0  0  0  0
   -3.2476    7.1250    0.0000 O   0  0  0  0  0  0  0  0  0  0  0  0
   -1.9486    4.8750    0.0000 O   0  0  0  0  0  0  0  0  0  0  0  0
  5  4  1  0
  7  6  1  0
  8  1  1  0
  8  2  1  0
  8  6  1  0
  9  3  1  0
  9  4  1  0
 10  5  1  0
 11  9  2  0
 12 10  2  0
 13  7  1  0
 13 10  1  0
M  END
>  <NAME>  (2065) 
ISOPENTYL LEVULINATE

>  <SYNONYMS>  (2065) 


>  <SPECTRUM TYPE>  (2065) 
MS1

>  <INSTRUMENT TYPE>  (2065) 
EI-B

>  <INSTRUMENT>  (2065) 
HITACHI M-80B

>  <ION MODE>  (2065) 
P

>  <INCHIKEY>  (2065) 
NYIALINCMIXBSP-UHFFFAOYSA-N

>  <FORMULA>  (2065) 
C10H18O3

>  <EXACT MASS>  (2065) 
186.12559443599997

>  <MW>  (2065) 
186

>  <ID>  (2065) 
JP009026

>  <CONTRIBUTOR>  (2065) 
University of Tokyo Team, {Faculty of Engineering, University of Tokyo

>  <COMMENT>  (2065) 
SMILES=CC(C)CCOC(=O)CCC(C)=O
InChI=InChI=1S/C10H18O3/c1-8(2)6-7-13-10(12)5-4-9(3)11/h8H,4-7H2,1-3H3
computed SMILES=O=C(OCCC(C)C)CCC(=O)C
accession=JP009026
date=2016.01.19 (Created 2008.10.21, modified 2011.05.06)
author=SODA AROMATIC CO., LTD.
license=CC BY-NC-SA
exact mass=186.12559
ionization energy=70 eV
ion type=[M]+*
computed spectral entropy=2.461211369654759
computed normalized entropy=0.7467637112265756
SPLASH=splash10-006y-9000000000-0260b458dec69db6a257
submitter=submitter = University of Tokyo Team (Faculty of Engineering, University of Tokyo)
MoNA Rating=3.75

>  <NUM PEAKS>  (2065) 
27

>  <MASS SPECTRAL PEAKS>  (2065) 
15 2.77
26 1.29
27 13.38
29 9.45
39 7.57
41 16.56
42 7.42
43 99.99
44 2.3
45 1.09
53 1.58
55 18.86
56 7.14
57 3.01
58 1.57
69 1.77
70 34.63
71 44.8
72 4.32
73 1.57
74 6.58
98 2.9
99 78.76
100 5.12
101 5.2
117 8.31
144 2.83

>  <PREDICTED SPECTRUM>  (2065) 
14 11
25 11
26 95
27 271
28 92
29 260
31 45
36 4
37 6
38 44
39 301
40 137
41 548
42 417
43 999
44 191
45 91
50 21
52 18
53 158
54 132
55 611
56 259
57 162
58 121
60 53
61 50
63 13
67 10
68 58
69 218
70 809
71 895
72 237
73 187
74 98
76 2
83 87
85 85
86 22
87 98
97 58
98 104
99 729
100 196
101 430
102 49
114 11
115 90
116 62
117 159
128 52
129 201
130 95
131 39
143 374
144 60
171 24

$$$$

     RDKit          2D

 13 12  0  0  0  0  0  0  0  0999 V2000
    3.2476    5.6250    0.0000 C   0  0  0  0  0  0  0  0  0  0  0  0
   -9.7428    5.6250    0.0000 C   0  0  0  0  0  0  0  0  0  0  0  0
    1.9486    6.3750    0.0000 C   0  0  0  0  0  0  0  0  0  0  0  0
    0.6495    5.6250    0.0000 C   0  0  0  0  0  0  0  0  0  0  0  0
   -0.6495    6.3750    0.0000 C   0  0  0  0  0  0  0  0  0  0  0  0
   -7.1447    5.6250    0.0000 C   0  0  0  0  0  0  0  0  0  0  0  0
   -5.8457    6.3750    0.0000 C   0  0  0  0  0  0  0  0  0  0  0  0
   -1.9486    5.6250    0.0000 C   0  0  0  0  0  0  0  0  0  0  0  0
   -8.4437    6.3750    0.0000 C   0  0  0  0  0  0  0  0  0  0  0  0
   -4.5466    5.6250    0.0000 C   0  0  0  0  0  0  0  0  0  0  0  0
   -8.4437    7.8750    0.0000 O   0  0  0  0  0  0  0  0  0  0  0  0
   -4.5466    4.1250    0.0000 O   0  0  0  0  0  0  0  0  0  0  0  0
   -3.2476    6.3750    0.0000 O   0  0  0  0  0  0  0  0  0  0  0  0
  3  1  1  0
  4  3  1  0
  5  4  1  0
  7  6  1  0
  8  5  1  0
  9  2  1  0
  9  6  1  0
 10  7  1  0
 11  9  2  0
 12 10  2  0
 13  8  1  0
 13 10  1  0
M  END
>  <NAME>  (2066) 
PENTYL LEVULINATE

>  <SYNONYMS>  (2066) 


>  <SPECTRUM TYPE>  (2066) 
MS1

>  <INSTRUMENT TYPE>  (2066) 
EI-B

>  <INSTRUMENT>  (2066) 
HITACHI M-80B

>  <ION MODE>  (2066) 
P

>  <INCHIKEY>  (2066) 
NLDFWNCRMVSDMC-UHFFFAOYSA-N

>  <FORMULA>  (2066) 
C10H18O3

>  <EXACT MASS>  (2066) 
186.12559443599997

>  <MW>  (2066) 
186

>  <ID>  (2066) 
JP009025

>  <CONTRIBUTOR>  (2066) 
University of Tokyo Team, {Faculty of Engineering, University of Tokyo

>  <COMMENT>  (2066) 
SMILES=CCCCCOC(=O)CCC(C)=O
InChI=InChI=1S/C10H18O3/c1-3-4-5-8-13-10(12)7-6-9(2)11/h3-8H2,1-2H3
computed SMILES=O=C(OCCCCC)CCC(=O)C
accession=JP009025
date=2016.01.19 (Created 2008.10.21, modified 2011.05.06)
author=SODA AROMATIC CO., LTD.
license=CC BY-NC-SA
exact mass=186.12559
ionization energy=70 eV
ion type=[M]+*
computed spectral entropy=2.6023954147444193
computed normalized entropy=0.757834918937793
SPLASH=splash10-006y-9000000000-57c4dda3455331e66dad
submitter=submitter = University of Tokyo Team (Faculty of Engineering, University of Tokyo)
MoNA Rating=3.75

>  <NUM PEAKS>  (2066) 
31

>  <MASS SPECTRAL PEAKS>  (2066) 
15 2.77
26 1.44
27 14.09
29 11.61
31 1.03
39 6.14
41 16.2
42 10.04
43 99.99
44 2.55
45 1.08
53 1.27
55 11.97
56 5.94
57 2.65
58 1.3
61 1.1
69 1.27
70 11.32
71 16.06
72 2.56
73 3.26
74 32.2
75 9.84
98 4.48
99 75.04
100 4.45
101 14.52
117 10.67
144 2.89
171 1.33

>  <PREDICTED SPECTRUM>  (2066) 
14 12
25 6
26 104
27 306
28 156
29 330
31 84
37 9
38 52
39 235
40 107
41 469
42 455
43 999
44 190
45 94
53 109
54 110
55 522
56 194
57 123
58 140
59 35
60 65
61 98
67 2
68 115
69 322
70 624
71 738
72 218
73 210
74 132
85 79
86 76
87 104
89 71
90 17
98 168
99 689
100 202
101 390
102 55
115 26
116 112
117 269
129 186
131 40
141 6
143 107

$$$$

     RDKit          2D

 12 11  0  0  0  0  0  0  0  0999 V2000
   -6.8200    5.0625    0.0000 C   0  0  0  0  0  0  0  0  0  0  0  0
   -5.5209    2.8125    0.0000 C   0  0  0  0  0  0  0  0  0  0  0  0
    3.5724    5.0625    0.0000 C   0  0  0  0  0  0  0  0  0  0  0  0
    0.9743    5.0625    0.0000 C   0  0  0  0  0  0  0  0  0  0  0  0
   -0.3248    4.3125    0.0000 C   0  0  0  0  0  0  0  0  0  0  0  0
   -4.2219    5.0625    0.0000 C   0  0  0  0  0  0  0  0  0  0  0  0
   -5.5209    4.3125    0.0000 C   0  0  0  0  0  0  0  0  0  0  0  0
    2.2733    4.3125    0.0000 C   0  0  0  0  0  0  0  0  0  0  0  0
   -1.6238    5.0625    0.0000 C   0  0  0  0  0  0  0  0  0  0  0  0
    2.2733    2.8125    0.0000 O   0  0  0  0  0  0  0  0  0  0  0  0
   -1.6238    6.5625    0.0000 O   0  0  0  0  0  0  0  0  0  0  0  0
   -2.9228    4.3125    0.0000 O   0  0  0  0  0  0  0  0  0  0  0  0
  5  4  1  0
  7  1  1  0
  7  2  1  0
  7  6  1  0
  8  3  1  0
  8  4  1  0
  9  5  1  0
 10  8  2  0
 11  9  2  0
 12  6  1  0
 12  9  1  0
M  END
>  <NAME>  (2067) 
ISOBUTYL LEVULINATE

>  <SYNONYMS>  (2067) 


>  <SPECTRUM TYPE>  (2067) 
MS1

>  <INSTRUMENT TYPE>  (2067) 
EI-B

>  <INSTRUMENT>  (2067) 
HITACHI M-80B

>  <ION MODE>  (2067) 
P

>  <INCHIKEY>  (2067) 
WETOYPNHZMSVFZ-UHFFFAOYSA-N

>  <FORMULA>  (2067) 
C9H16O3

>  <EXACT MASS>  (2067) 
172.109944372

>  <MW>  (2067) 
172

>  <ID>  (2067) 
JP009024

>  <CONTRIBUTOR>  (2067) 
University of Tokyo Team, {Faculty of Engineering, University of Tokyo

>  <COMMENT>  (2067) 
SMILES=CC(C)COC(=O)CCC(C)=O
InChI=InChI=1S/C9H16O3/c1-7(2)6-12-9(11)5-4-8(3)10/h7H,4-6H2,1-3H3
computed SMILES=O=C(OCC(C)C)CCC(=O)C
accession=JP009024
date=2016.01.19 (Created 2008.10.21, modified 2011.05.06)
author=SODA AROMATIC CO., LTD.
license=CC BY-NC-SA
exact mass=172.10994
ionization energy=70 eV
ion type=[M]+*
computed spectral entropy=2.4673084478992346
computed normalized entropy=0.7572852489501545
SPLASH=splash10-0007-9000000000-4e4a38b1475d3f910215
submitter=submitter = University of Tokyo Team (Faculty of Engineering, University of Tokyo)
MoNA Rating=3.75

>  <NUM PEAKS>  (2067) 
26

>  <MASS SPECTRAL PEAKS>  (2067) 
15 3.96
26 1.48
27 13.67
29 13.15
31 1.23
39 8.99
41 22.23
42 5.92
43 87.42
44 1.66
55 6.65
56 16.74
57 34.98
58 2.39
71 9.63
72 1.83
73 3.1
74 16.76
75 1.91
98 3.09
99 99.99
100 6.25
101 8.97
117 11.29
130 3.3
157 1.17

>  <PREDICTED SPECTRUM>  (2067) 
25 0
26 65
27 235
28 92
29 299
31 43
37 29
38 61
39 278
40 150
41 608
42 314
43 821
44 187
45 181
50 20
51 24
52 42
53 129
54 165
55 352
56 698
57 686
58 173
60 77
61 47
67 84
68 29
69 184
70 163
71 469
72 142
73 273
74 126
81 64
83 55
84 72
85 214
88 40
97 25
98 67
99 999
100 242
101 537
102 117
115 189
116 195
117 485
118 93
119 52
129 174
157 25

$$$$

     RDKit          2D

 12 11  0  0  0  0  0  0  0  0999 V2000
    2.9228    5.4375    0.0000 C   0  0  0  0  0  0  0  0  0  0  0  0
   -8.7685    6.1875    0.0000 C   0  0  0  0  0  0  0  0  0  0  0  0
    1.6238    6.1875    0.0000 C   0  0  0  0  0  0  0  0  0  0  0  0
    0.3248    5.4375    0.0000 C   0  0  0  0  0  0  0  0  0  0  0  0
   -6.1704    6.1875    0.0000 C   0  0  0  0  0  0  0  0  0  0  0  0
   -4.8714    5.4375    0.0000 C   0  0  0  0  0  0  0  0  0  0  0  0
   -0.9743    6.1875    0.0000 C   0  0  0  0  0  0  0  0  0  0  0  0
   -7.4695    5.4375    0.0000 C   0  0  0  0  0  0  0  0  0  0  0  0
   -3.5724    6.1875    0.0000 C   0  0  0  0  0  0  0  0  0  0  0  0
   -7.4695    3.9375    0.0000 O   0  0  0  0  0  0  0  0  0  0  0  0
   -3.5724    7.6875    0.0000 O   0  0  0  0  0  0  0  0  0  0  0  0
   -2.2733    5.4375    0.0000 O   0  0  0  0  0  0  0  0  0  0  0  0
  3  1  1  0
  4  3  1  0
  6  5  1  0
  7  4  1  0
  8  2  1  0
  8  5  1  0
  9  6  1  0
 10  8  2  0
 11  9  2  0
 12  7  1  0
 12  9  1  0
M  END
>  <NAME>  (2068) 
BUTYL LEVULINATE

>  <SYNONYMS>  (2068) 


>  <SPECTRUM TYPE>  (2068) 
MS1

>  <INSTRUMENT TYPE>  (2068) 
EI-B

>  <INSTRUMENT>  (2068) 
HITACHI M-80B

>  <ION MODE>  (2068) 
P

>  <INCHIKEY>  (2068) 
ISBWNEKJSSLXOD-UHFFFAOYSA-N

>  <FORMULA>  (2068) 
C9H16O3

>  <EXACT MASS>  (2068) 
172.10994437199997

>  <MW>  (2068) 
172

>  <ID>  (2068) 
JP009023

>  <CONTRIBUTOR>  (2068) 
University of Tokyo Team, {Faculty of Engineering, University of Tokyo

>  <COMMENT>  (2068) 
SMILES=CCCCOC(=O)CCC(C)=O
cas=2052-15-5
InChI=InChI=1S/C9H16O3/c1-3-4-7-12-9(11)6-5-8(2)10/h3-7H2,1-2H3
computed SMILES=O=C(OCCCC)CCC(=O)C
accession=JP009023
date=2016.01.19 (Created 2008.10.21, modified 2011.05.06)
author=SODA AROMATIC CO., LTD.
license=CC BY-NC-SA
exact mass=172.10994
ionization energy=70 eV
ion type=[M]+*
computed spectral entropy=2.644538467618024
computed normalized entropy=0.785359707355634
SPLASH=splash10-0007-9000000000-dd754b510d9a5b964618
submitter=submitter = University of Tokyo Team (Faculty of Engineering, University of Tokyo)
MoNA Rating=3.75

>  <NUM PEAKS>  (2068) 
29

>  <MASS SPECTRAL PEAKS>  (2068) 
15 4.23
26 1.91
27 15.78
29 20.41
31 1.35
39 7.46
41 20.03
42 5.89
43 99.99
44 1.97
45 1.38
53 1.21
55 9.61
56 16.3
57 18.18
58 2.04
61 1.53
71 9.39
72 2.36
73 5.91
74 37.65
75 8.6
98 5.04
99 78.89
100 5.39
101 18.59
117 8.77
130 6.19
157 2.69

>  <PREDICTED SPECTRUM>  (2068) 
26 49
27 190
28 58
29 218
37 9
38 22
39 228
40 117
41 590
42 309
43 867
44 207
45 292
52 10
53 119
54 154
55 496
56 827
57 516
58 137
60 136
61 147
67 81
69 120
70 165
71 455
72 171
73 435
74 267
81 39
84 24
85 74
97 17
99 999
100 339
101 835
102 113
115 186
116 117
117 618
118 71
119 51
129 79
172 6

$$$$

     RDKit          2D

 11 10  0  0  0  0  0  0  0  0999 V2000
    2.5981    4.5000    0.0000 C   0  0  0  0  0  0  0  0  0  0  0  0
   -7.7942    4.5000    0.0000 C   0  0  0  0  0  0  0  0  0  0  0  0
    1.2990    5.2500    0.0000 C   0  0  0  0  0  0  0  0  0  0  0  0
   -5.1962    4.5000    0.0000 C   0  0  0  0  0  0  0  0  0  0  0  0
   -3.8971    5.2500    0.0000 C   0  0  0  0  0  0  0  0  0  0  0  0
    0.0000    4.5000    0.0000 C   0  0  0  0  0  0  0  0  0  0  0  0
   -6.4952    5.2500    0.0000 C   0  0  0  0  0  0  0  0  0  0  0  0
   -2.5981    4.5000    0.0000 C   0  0  0  0  0  0  0  0  0  0  0  0
   -6.4952    6.7500    0.0000 O   0  0  0  0  0  0  0  0  0  0  0  0
   -2.5981    3.0000    0.0000 O   0  0  0  0  0  0  0  0  0  0  0  0
   -1.2990    5.2500    0.0000 O   0  0  0  0  0  0  0  0  0  0  0  0
  3  1  2  0
  5  4  1  0
  6  3  1  0
  7  2  1  0
  7  4  1  0
  8  5  1  0
  9  7  2  0
 10  8  2  0
 11  6  1  0
 11  8  1  0
M  END
>  <NAME>  (2069) 
ALLYL LEVULINATE

>  <SYNONYMS>  (2069) 


>  <SPECTRUM TYPE>  (2069) 
MS1

>  <INSTRUMENT TYPE>  (2069) 
EI-B

>  <INSTRUMENT>  (2069) 
HITACHI M-80B

>  <ION MODE>  (2069) 
P

>  <INCHIKEY>  (2069) 
NETFSRNRGBJVMU-UHFFFAOYSA-N

>  <FORMULA>  (2069) 
C8H12O3

>  <EXACT MASS>  (2069) 
156.07864424399997

>  <MW>  (2069) 
156

>  <ID>  (2069) 
JP009022

>  <CONTRIBUTOR>  (2069) 
University of Tokyo Team, {Faculty of Engineering, University of Tokyo

>  <COMMENT>  (2069) 
SMILES=C=CCOC(=O)CCC(C)=O
InChI=InChI=1S/C8H12O3/c1-3-6-11-8(10)5-4-7(2)9/h3H,1,4-6H2,2H3
computed SMILES=O=C(OCC=C)CCC(=O)C
accession=JP009022
date=2016.01.19 (Created 2008.10.21, modified 2011.05.06)
author=SODA AROMATIC CO., LTD.
license=CC BY-NC-SA
exact mass=156.07864
ionization energy=70 eV
ion type=[M]+*
computed spectral entropy=2.346860284417951
computed normalized entropy=0.7120680967632784
SPLASH=splash10-0006-9000000000-bc7dba27fb5eb2aad6ca
submitter=submitter = University of Tokyo Team (Faculty of Engineering, University of Tokyo)
MoNA Rating=3.75

>  <NUM PEAKS>  (2069) 
27

>  <MASS SPECTRAL PEAKS>  (2069) 
15 5.73
26 3.09
27 11.13
29 4.25
38 1.62
39 17.39
41 48.46
42 6.3
43 99.99
44 2.11
45 1.05
54 1.01
55 11.09
56 5.14
57 7.27
58 5.38
60 6.05
68 3.87
69 1.14
71 9.25
72 2.91
73 2.01
99 66.11
100 4.98
101 1.45
114 1.2
141 1.25

>  <PREDICTED SPECTRUM>  (2069) 
14 12
15 16
25 24
26 120
27 327
28 150
29 262
31 68
37 83
38 147
39 449
40 221
41 720
42 288
43 999
44 177
45 19
51 42
52 32
53 257
54 210
55 323
56 254
57 342
58 342
59 15
65 1
67 126
68 131
69 126
71 635
72 134
73 12
85 93
86 121
97 78
98 160
99 930
100 334
113 261
114 91
141 31

$$$$

     RDKit          2D

 18 17  0  0  0  0  0  0  0  0999 V2000
    5.1962    8.2500    0.0000 C   0  0  0  0  0  0  0  0  0  0  0  0
  -14.2894    9.0000    0.0000 C   0  0  0  0  0  0  0  0  0  0  0  0
    3.8971    9.0000    0.0000 C   0  0  0  0  0  0  0  0  0  0  0  0
  -12.9904    8.2500    0.0000 C   0  0  0  0  0  0  0  0  0  0  0  0
    2.5981    8.2500    0.0000 C   0  0  0  0  0  0  0  0  0  0  0  0
  -11.6913    9.0000    0.0000 C   0  0  0  0  0  0  0  0  0  0  0  0
   -3.8971    9.0000    0.0000 C   0  0  0  0  0  0  0  0  0  0  0  0
   -5.1962    8.2500    0.0000 C   0  0  0  0  0  0  0  0  0  0  0  0
   -2.5981    8.2500    0.0000 C   0  0  0  0  0  0  0  0  0  0  0  0
   -6.4952    9.0000    0.0000 C   0  0  0  0  0  0  0  0  0  0  0  0
    1.2990    9.0000    0.0000 C   0  0  0  0  0  0  0  0  0  0  0  0
  -10.3923    8.2500    0.0000 C   0  0  0  0  0  0  0  0  0  0  0  0
   -1.2990    9.0000    0.0000 C   0  0  0  0  0  0  0  0  0  0  0  0
   -7.7942    8.2500    0.0000 C   0  0  0  0  0  0  0  0  0  0  0  0
   -1.2990   10.5000    0.0000 O   0  0  0  0  0  0  0  0  0  0  0  0
   -7.7942    6.7500    0.0000 O   0  0  0  0  0  0  0  0  0  0  0  0
    0.0000    8.2500    0.0000 O   0  0  0  0  0  0  0  0  0  0  0  0
   -9.0933    9.0000    0.0000 O   0  0  0  0  0  0  0  0  0  0  0  0
  3  1  1  0
  4  2  1  0
  5  3  1  0
  6  4  1  0
  8  7  1  0
  9  7  1  0
 10  8  1  0
 11  5  1  0
 12  6  1  0
 13  9  1  0
 14 10  1  0
 15 13  2  0
 16 14  2  0
 17 11  1  0
 17 13  1  0
 18 12  1  0
 18 14  1  0
M  END
>  <NAME>  (2070) 
DIBUTYL ADIPATE

>  <SYNONYMS>  (2070) 


>  <SPECTRUM TYPE>  (2070) 
MS1

>  <INSTRUMENT TYPE>  (2070) 
EI-B

>  <INSTRUMENT>  (2070) 
HITACHI M-80B

>  <ION MODE>  (2070) 
P

>  <INCHIKEY>  (2070) 
XTJFFFGAUHQWII-UHFFFAOYSA-N

>  <FORMULA>  (2070) 
C14H26O4

>  <EXACT MASS>  (2070) 
258.183109312

>  <MW>  (2070) 
258

>  <ID>  (2070) 
JP009019

>  <CONTRIBUTOR>  (2070) 
University of Tokyo Team, {Faculty of Engineering, University of Tokyo

>  <COMMENT>  (2070) 
SMILES=CCCCOC(=O)CCCCC(=O)OCCCC
cas=105-99-7
InChI=InChI=1S/C14H26O4/c1-3-5-11-17-13(15)9-7-8-10-14(16)18-12-6-4-2/h3-12H2,1-2H3
computed SMILES=O=C(OCCCC)CCCCC(=O)OCCCC
accession=JP009019
date=2016.01.19 (Created 2008.10.21, modified 2011.05.06)
author=SODA AROMATIC CO., LTD.
license=CC BY-NC-SA
exact mass=258.18311
ionization energy=70 eV
ion type=[M]+*
computed spectral entropy=3.2276039170818036
computed normalized entropy=0.8129386925089209
SPLASH=splash10-0570-9800000000-3b60744c05ba28ab9a9e
submitter=submitter = University of Tokyo Team (Faculty of Engineering, University of Tokyo)
MoNA Rating=3.75

>  <NUM PEAKS>  (2070) 
53

>  <MASS SPECTRAL PEAKS>  (2070) 
26 1.44
27 19.1
28 13.74
29 55.97
30 1.4
31 2.86
39 11.45
40 1.96
41 61.23
42 9.52
43 18.97
44 1.71
45 3.45
53 2.34
54 3.33
55 58.88
56 49.31
57 42.57
58 2.44
59 8.72
60 8.28
61 3.02
68 1.88
69 3.36
73 11.04
74 1.61
82 1.41
83 19.96
84 7.75
85 1.83
87 34.3
88 1.47
99 2
100 25.87
101 35.84
102 4.99
103 1.5
110 1.86
111 54.01
112 8.44
128 3.02
129 98.7
130 6.94
143 26.84
144 1.94
156 27
157 3.41
158 2.53
184 1.75
185 99.99
186 10.48
187 1.27
203 2.02

>  <PREDICTED SPECTRUM>  (2070) 
26 19
27 104
28 7
29 185
31 13
39 129
40 75
41 396
42 147
43 196
44 54
49 32
52 12
53 82
54 117
55 412
56 490
57 383
58 53
59 96
60 145
61 97
68 62
69 83
70 92
71 55
72 4
73 285
74 68
75 26
76 18
82 90
83 360
84 180
85 63
86 124
87 366
88 126
89 20
99 85
100 233
101 494
102 146
103 10
110 146
111 694
112 218
113 68
114 12
115 54
116 0
117 9
127 4
128 270
129 729
130 309
131 89
139 44
142 19
143 347
144 68
147 37
156 360
157 229
158 196
171 26
184 195
185 999
186 359
187 97
188 13
203 88

$$$$

     RDKit          2D

 16 15  0  0  0  0  0  0  0  0999 V2000
    4.5466    7.1250    0.0000 C   0  0  0  0  0  0  0  0  0  0  0  0
  -12.3409    7.8750    0.0000 C   0  0  0  0  0  0  0  0  0  0  0  0
    3.2476    7.8750    0.0000 C   0  0  0  0  0  0  0  0  0  0  0  0
  -11.0418    7.1250    0.0000 C   0  0  0  0  0  0  0  0  0  0  0  0
   -3.2476    7.1250    0.0000 C   0  0  0  0  0  0  0  0  0  0  0  0
   -4.5466    7.8750    0.0000 C   0  0  0  0  0  0  0  0  0  0  0  0
   -1.9486    7.8750    0.0000 C   0  0  0  0  0  0  0  0  0  0  0  0
   -5.8457    7.1250    0.0000 C   0  0  0  0  0  0  0  0  0  0  0  0
    1.9486    7.1250    0.0000 C   0  0  0  0  0  0  0  0  0  0  0  0
   -9.7428    7.8750    0.0000 C   0  0  0  0  0  0  0  0  0  0  0  0
   -0.6495    7.1250    0.0000 C   0  0  0  0  0  0  0  0  0  0  0  0
   -7.1447    7.8750    0.0000 C   0  0  0  0  0  0  0  0  0  0  0  0
   -0.6495    5.6250    0.0000 O   0  0  0  0  0  0  0  0  0  0  0  0
   -7.1447    9.3750    0.0000 O   0  0  0  0  0  0  0  0  0  0  0  0
    0.6495    7.8750    0.0000 O   0  0  0  0  0  0  0  0  0  0  0  0
   -8.4437    7.1250    0.0000 O   0  0  0  0  0  0  0  0  0  0  0  0
  3  1  2  0
  4  2  2  0
  6  5  1  0
  7  5  1  0
  8  6  1  0
  9  3  1  0
 10  4  1  0
 11  7  1  0
 12  8  1  0
 13 11  2  0
 14 12  2  0
 15  9  1  0
 15 11  1  0
 16 10  1  0
 16 12  1  0
M  END
>  <NAME>  (2071) 
DIALLYL ADIPATE

>  <SYNONYMS>  (2071) 


>  <SPECTRUM TYPE>  (2071) 
MS1

>  <INSTRUMENT TYPE>  (2071) 
EI-B

>  <INSTRUMENT>  (2071) 
HITACHI M-80B

>  <ION MODE>  (2071) 
P

>  <INCHIKEY>  (2071) 
FPODCVUTIPDRTE-UHFFFAOYSA-N

>  <FORMULA>  (2071) 
C12H18O4

>  <EXACT MASS>  (2071) 
226.120509056

>  <MW>  (2071) 
226

>  <ID>  (2071) 
JP009018

>  <CONTRIBUTOR>  (2071) 
University of Tokyo Team, {Faculty of Engineering, University of Tokyo

>  <COMMENT>  (2071) 
SMILES=C=CCOC(=O)CCCCC(=O)OCC=C
cas=2998-04-1
InChI=InChI=1S/C12H18O4/c1-3-9-15-11(13)7-5-6-8-12(14)16-10-4-2/h3-4H,1-2,5-10H2
computed SMILES=O=C(OCC=C)CCCCC(=O)OCC=C
accession=JP009018
date=2016.01.19 (Created 2008.10.21, modified 2011.05.06)
author=SODA AROMATIC CO., LTD.
license=CC BY-NC-SA
exact mass=226.12051
ionization energy=70 eV
ion type=[M]+*
computed spectral entropy=3.026100591751355
computed normalized entropy=0.7903849638480954
SPLASH=splash10-01ox-9500000000-eef5608754f745558d0f
submitter=submitter = University of Tokyo Team (Faculty of Engineering, University of Tokyo)
MoNA Rating=3.75

>  <NUM PEAKS>  (2071) 
46

>  <MASS SPECTRAL PEAKS>  (2071) 
29 8.32
30 1.06
31 4.52
38 1.61
39 25.56
40 1.22
41 99.99
42 7.76
43 9.1
44 1.52
45 1.1
53 1.57
54 1.83
55 34.7
56 8.95
57 14.7
58 3.96
59 3.92
67 2.24
68 1.48
69 2.17
71 1
79 1.09
80 1.78
81 11.77
82 1.21
83 12.59
84 8.15
85 4.7
95 4.33
99 6.39
100 4.94
101 10.17
109 1.54
111 63.69
112 16.48
113 4.38
127 6.27
129 7.28
140 3.75
141 6.35
142 1.47
153 7.23
168 1.39
169 29.8
170 3.41

>  <PREDICTED SPECTRUM>  (2071) 
26 117
27 272
28 112
29 226
31 88
33 6
37 10
38 48
39 469
40 212
41 929
42 338
43 327
44 98
45 152
51 3
52 43
53 249
54 291
55 735
56 199
57 230
58 202
59 197
60 117
61 79
66 11
67 169
68 267
69 213
70 265
71 197
72 13
73 133
81 105
82 92
83 557
84 246
85 160
86 46
96 55
97 111
98 75
99 215
100 253
101 287
102 61
109 93
110 102
111 999
112 531
113 284
114 133
115 4
122 30
123 101
125 47
126 28
128 66
129 824
130 179
140 73
141 781
142 308
143 54
153 25
167 178
168 148
169 341
170 117
195 7

$$$$

     RDKit          2D

 16 15  0  0  0  0  0  0  0  0999 V2000
    3.8971    6.0000    0.0000 C   0  0  0  0  0  0  0  0  0  0  0  0
    2.5981    8.2500    0.0000 C   0  0  0  0  0  0  0  0  0  0  0  0
  -10.3923    6.7500    0.0000 C   0  0  0  0  0  0  0  0  0  0  0  0
   -9.0933    4.5000    0.0000 C   0  0  0  0  0  0  0  0  0  0  0  0
   -2.5981    6.7500    0.0000 C   0  0  0  0  0  0  0  0  0  0  0  0
   -3.8971    6.0000    0.0000 C   0  0  0  0  0  0  0  0  0  0  0  0
   -1.2990    6.0000    0.0000 C   0  0  0  0  0  0  0  0  0  0  0  0
   -5.1962    6.7500    0.0000 C   0  0  0  0  0  0  0  0  0  0  0  0
    2.5981    6.7500    0.0000 C   0  0  0  0  0  0  0  0  0  0  0  0
   -9.0933    6.0000    0.0000 C   0  0  0  0  0  0  0  0  0  0  0  0
    0.0000    6.7500    0.0000 C   0  0  0  0  0  0  0  0  0  0  0  0
   -6.4952    6.0000    0.0000 C   0  0  0  0  0  0  0  0  0  0  0  0
    0.0000    8.2500    0.0000 O   0  0  0  0  0  0  0  0  0  0  0  0
   -6.4952    4.5000    0.0000 O   0  0  0  0  0  0  0  0  0  0  0  0
    1.2990    6.0000    0.0000 O   0  0  0  0  0  0  0  0  0  0  0  0
   -7.7942    6.7500    0.0000 O   0  0  0  0  0  0  0  0  0  0  0  0
  6  5  1  0
  7  5  1  0
  8  6  1  0
  9  1  1  0
  9  2  1  0
 10  3  1  0
 10  4  1  0
 11  7  1  0
 12  8  1  0
 13 11  2  0
 14 12  2  0
 15  9  1  0
 15 11  1  0
 16 10  1  0
 16 12  1  0
M  END
>  <NAME>  (2072) 
DIISOPROPYL ADIPATE

>  <SYNONYMS>  (2072) 


>  <SPECTRUM TYPE>  (2072) 
MS1

>  <INSTRUMENT TYPE>  (2072) 
EI-B

>  <INSTRUMENT>  (2072) 
HITACHI M-80B

>  <ION MODE>  (2072) 
P

>  <INCHIKEY>  (2072) 
ZDQWESQEGGJUCH-UHFFFAOYSA-N

>  <FORMULA>  (2072) 
C12H22O4

>  <EXACT MASS>  (2072) 
230.151809184

>  <MW>  (2072) 
230

>  <ID>  (2072) 
JP009016

>  <CONTRIBUTOR>  (2072) 
University of Tokyo Team, {Faculty of Engineering, University of Tokyo

>  <COMMENT>  (2072) 
SMILES=CC(C)OC(=O)CCCCC(=O)OC(C)C
InChI=InChI=1S/C12H22O4/c1-9(2)15-11(13)7-5-6-8-12(14)16-10(3)4/h9-10H,5-8H2,1-4H3
computed SMILES=O=C(OC(C)C)CCCCC(=O)OC(C)C
accession=JP009016
date=2016.01.19 (Created 2008.10.21, modified 2011.05.06)
author=SODA AROMATIC CO., LTD.
license=CC BY-NC-SA
exact mass=230.15181
ionization energy=70 eV
ion type=[M]+*
computed spectral entropy=2.9478782737494282
computed normalized entropy=0.8163791991579057
SPLASH=splash10-004i-5900000000-94c538c8026f18458559
submitter=submitter = University of Tokyo Team (Faculty of Engineering, University of Tokyo)
MoNA Rating=3.75

>  <NUM PEAKS>  (2072) 
37

>  <MASS SPECTRAL PEAKS>  (2072) 
27 4.19
29 1.8
39 4.05
41 16.46
42 6.18
43 37.78
44 1.02
45 9.7
55 20.94
56 3.77
57 1.25
58 1.11
59 8.18
60 6.25
69 2.22
73 10.78
74 1.11
83 10.01
84 3.46
87 16.41
100 25.58
101 17.26
102 13.91
103 1.43
111 21.02
112 2.72
128 17.75
129 99.99
130 6.16
142 9.41
144 2.46
146 2.73
147 1.6
170 2.19
171 29.51
172 2.33
188 2.07

>  <PREDICTED SPECTRUM>  (2072) 
15 30
26 79
27 242
28 134
29 128
31 47
33 4
39 191
40 99
41 381
42 197
43 519
44 130
45 120
49 38
53 65
54 162
55 351
56 202
57 197
58 182
59 312
60 344
61 168
66 18
67 16
68 90
69 153
71 101
73 271
74 62
82 106
83 335
84 150
85 109
86 140
87 312
88 113
99 74
100 412
101 605
102 355
103 115
104 37
110 34
111 710
112 256
113 50
114 80
116 44
117 38
128 321
129 999
130 345
131 90
142 384
143 73
144 110
146 107
147 150
170 359
171 700
172 240
173 75
188 69

$$$$

     RDKit          2D

 16 15  0  0  0  0  0  0  0  0999 V2000
    4.5466    7.1250    0.0000 C   0  0  0  0  0  0  0  0  0  0  0  0
  -12.3409    7.8750    0.0000 C   0  0  0  0  0  0  0  0  0  0  0  0
    3.2476    7.8750    0.0000 C   0  0  0  0  0  0  0  0  0  0  0  0
  -11.0418    7.1250    0.0000 C   0  0  0  0  0  0  0  0  0  0  0  0
   -3.2476    7.1250    0.0000 C   0  0  0  0  0  0  0  0  0  0  0  0
   -4.5466    7.8750    0.0000 C   0  0  0  0  0  0  0  0  0  0  0  0
   -1.9486    7.8750    0.0000 C   0  0  0  0  0  0  0  0  0  0  0  0
   -5.8457    7.1250    0.0000 C   0  0  0  0  0  0  0  0  0  0  0  0
    1.9486    7.1250    0.0000 C   0  0  0  0  0  0  0  0  0  0  0  0
   -9.7428    7.8750    0.0000 C   0  0  0  0  0  0  0  0  0  0  0  0
   -0.6495    7.1250    0.0000 C   0  0  0  0  0  0  0  0  0  0  0  0
   -7.1447    7.8750    0.0000 C   0  0  0  0  0  0  0  0  0  0  0  0
   -0.6495    5.6250    0.0000 O   0  0  0  0  0  0  0  0  0  0  0  0
   -7.1447    9.3750    0.0000 O   0  0  0  0  0  0  0  0  0  0  0  0
    0.6495    7.8750    0.0000 O   0  0  0  0  0  0  0  0  0  0  0  0
   -8.4437    7.1250    0.0000 O   0  0  0  0  0  0  0  0  0  0  0  0
  3  1  1  0
  4  2  1  0
  6  5  1  0
  7  5  1  0
  8  6  1  0
  9  3  1  0
 10  4  1  0
 11  7  1  0
 12  8  1  0
 13 11  2  0
 14 12  2  0
 15  9  1  0
 15 11  1  0
 16 10  1  0
 16 12  1  0
M  END
>  <NAME>  (2073) 
DIPROPYL ADIPATE

>  <SYNONYMS>  (2073) 


>  <SPECTRUM TYPE>  (2073) 
MS1

>  <INSTRUMENT TYPE>  (2073) 
EI-B

>  <INSTRUMENT>  (2073) 
HITACHI M-80B

>  <ION MODE>  (2073) 
P

>  <INCHIKEY>  (2073) 
NKOUWLLFHNBUDW-UHFFFAOYSA-N

>  <FORMULA>  (2073) 
C12H22O4

>  <EXACT MASS>  (2073) 
230.151809184

>  <MW>  (2073) 
230

>  <ID>  (2073) 
JP009015

>  <CONTRIBUTOR>  (2073) 
University of Tokyo Team, {Faculty of Engineering, University of Tokyo

>  <COMMENT>  (2073) 
SMILES=CCCOC(=O)CCCCC(=O)OCCC
cas=106-19-4
InChI=InChI=1S/C12H22O4/c1-3-9-15-11(13)7-5-6-8-12(14)16-10-4-2/h3-10H2,1-2H3
computed SMILES=O=C(OCCC)CCCCC(=O)OCCC
accession=JP009015
date=2016.01.19 (Created 2008.10.21, modified 2011.05.06)
author=SODA AROMATIC CO., LTD.
license=CC BY-NC-SA
exact mass=230.15181
ionization energy=70 eV
ion type=[M]+*
computed spectral entropy=3.0980562398070464
computed normalized entropy=0.7960429831025521
SPLASH=splash10-024l-5900000000-fc76702babe73dc56312
submitter=submitter = University of Tokyo Team (Faculty of Engineering, University of Tokyo)
MoNA Rating=3.75

>  <NUM PEAKS>  (2073) 
49

>  <MASS SPECTRAL PEAKS>  (2073) 
26 1.08
27 8.05
28 5.2
29 3.34
31 11.38
32 2.47
39 4.84
41 19.35
42 11.37
43 29.21
45 1.86
54 1.77
55 26.23
56 8.14
57 2.89
58 2.36
59 7.64
60 8.42
61 7.62
68 1.35
69 2.37
73 7.02
74 1.63
82 1.57
83 11.98
84 4.23
85 1.3
87 23.01
88 1.23
99 1.66
100 15.75
101 26.81
102 3.99
103 1.32
110 2.41
111 54.5
112 5.9
115 2.22
128 2.19
129 74.04
130 4.74
142 26.82
143 3.15
144 1.76
170 3.28
171 99.99
172 8.79
173 1.15
189 1.08

>  <PREDICTED SPECTRUM>  (2073) 
15 1
26 58
27 247
28 124
29 215
30 1
31 74
39 131
40 96
41 384
42 161
43 451
44 65
45 98
48 8
53 60
54 105
55 389
56 170
57 148
58 91
59 199
60 233
61 228
65 1
66 7
67 13
68 143
69 220
70 3
71 43
73 321
74 80
76 31
81 84
82 164
83 412
84 143
85 102
86 118
87 380
88 105
89 47
96 88
99 165
100 422
101 602
102 289
103 105
110 59
111 827
112 227
113 83
114 45
115 89
116 30
126 101
127 69
128 275
129 798
130 222
131 0
142 370
143 327
144 117
156 46
170 160
171 999
172 344
173 97
174 72
189 11

$$$$

     RDKit          2D

 14 13  0  0  0  0  0  0  0  0999 V2000
    3.8971    6.0000    0.0000 C   0  0  0  0  0  0  0  0  0  0  0  0
  -10.3923    6.7500    0.0000 C   0  0  0  0  0  0  0  0  0  0  0  0
    2.5981    6.7500    0.0000 C   0  0  0  0  0  0  0  0  0  0  0  0
   -9.0933    6.0000    0.0000 C   0  0  0  0  0  0  0  0  0  0  0  0
   -2.5981    6.7500    0.0000 C   0  0  0  0  0  0  0  0  0  0  0  0
   -3.8971    6.0000    0.0000 C   0  0  0  0  0  0  0  0  0  0  0  0
   -1.2990    6.0000    0.0000 C   0  0  0  0  0  0  0  0  0  0  0  0
   -5.1962    6.7500    0.0000 C   0  0  0  0  0  0  0  0  0  0  0  0
    0.0000    6.7500    0.0000 C   0  0  0  0  0  0  0  0  0  0  0  0
   -6.4952    6.0000    0.0000 C   0  0  0  0  0  0  0  0  0  0  0  0
    0.0000    8.2500    0.0000 O   0  0  0  0  0  0  0  0  0  0  0  0
   -6.4952    4.5000    0.0000 O   0  0  0  0  0  0  0  0  0  0  0  0
    1.2990    6.0000    0.0000 O   0  0  0  0  0  0  0  0  0  0  0  0
   -7.7942    6.7500    0.0000 O   0  0  0  0  0  0  0  0  0  0  0  0
  3  1  1  0
  4  2  1  0
  6  5  1  0
  7  5  1  0
  8  6  1  0
  9  7  1  0
 10  8  1  0
 11  9  2  0
 12 10  2  0
 13  3  1  0
 13  9  1  0
 14  4  1  0
 14 10  1  0
M  END
>  <NAME>  (2074) 
DIETHYL ADIPATE

>  <SYNONYMS>  (2074) 


>  <SPECTRUM TYPE>  (2074) 
MS1

>  <INSTRUMENT TYPE>  (2074) 
EI-B

>  <INSTRUMENT>  (2074) 
HITACHI M-80B

>  <ION MODE>  (2074) 
P

>  <INCHIKEY>  (2074) 
VIZORQUEIQEFRT-UHFFFAOYSA-N

>  <FORMULA>  (2074) 
C10H18O4

>  <EXACT MASS>  (2074) 
202.120509056

>  <MW>  (2074) 
202

>  <ID>  (2074) 
JP009014

>  <CONTRIBUTOR>  (2074) 
University of Tokyo Team, {Faculty of Engineering, University of Tokyo

>  <COMMENT>  (2074) 
SMILES=CCOC(=O)CCCCC(=O)OCC
cas=141-28-6
InChI=InChI=1S/C10H18O4/c1-3-13-9(11)7-5-6-8-10(12)14-4-2/h3-8H2,1-2H3
computed SMILES=O=C(OCC)CCCCC(=O)OCC
accession=JP009014
date=2016.01.19 (Created 2008.10.21, modified 2011.05.06)
author=SODA AROMATIC CO., LTD.
license=CC BY-NC-SA
exact mass=202.12051
ionization energy=70 eV
ion type=[M]+*
computed spectral entropy=3.1919057595100826
computed normalized entropy=0.8159220319208601
SPLASH=splash10-0bvi-7900000000-4940c26e9caf839d0016
submitter=submitter = University of Tokyo Team (Faculty of Engineering, University of Tokyo)
MoNA Rating=3.75

>  <NUM PEAKS>  (2074) 
50

>  <MASS SPECTRAL PEAKS>  (2074) 
26 1.5
27 13.51
28 3.59
29 36.28
30 1.39
31 4.69
39 3.81
41 11.74
42 9.85
43 16.92
45 12.99
46 1.29
53 1.9
54 3.36
55 49.1
56 13.42
57 3.56
58 1.35
59 6.86
60 14.34
61 6.73
68 2.34
69 4.84
70 4.67
73 24.77
74 3.14
82 2.14
83 21.9
84 5.17
85 1.9
86 1.25
87 10.02
88 18.01
99 3.76
100 6.32
101 33.47
102 3.11
110 3.62
111 99.99
112 6.62
114 1.5
115 53.86
116 2.81
127 1.13
128 61.19
129 17.8
130 3.08
156 9.35
157 89.53
158 5.99

>  <PREDICTED SPECTRUM>  (2074) 
19 6
26 122
27 373
28 194
29 528
30 166
31 185
33 3
36 24
37 6
38 43
39 191
40 104
41 263
42 227
43 317
44 125
45 193
46 46
47 38
49 6
51 10
52 3
53 83
54 169
55 553
56 227
57 124
58 88
59 227
60 282
61 188
63 2
65 48
67 118
68 161
69 201
70 206
71 127
72 46
73 269
74 175
75 76
76 6
81 81
82 270
83 483
84 302
85 188
86 165
87 196
88 397
89 172
97 36
98 20
99 97
100 176
101 519
102 147
103 141
109 85
110 289
111 999
112 310
113 51
114 100
115 378
116 15
117 23
126 3
127 139
128 556
129 170
130 175
131 57
139 49
155 25
156 223
157 796
158 242
159 65
175 15
202 7
203 20

$$$$

     RDKit          2D

 12 11  0  0  0  0  0  0  0  0999 V2000
   -8.4437    5.6250    0.0000 C   0  0  0  0  0  0  0  0  0  0  0  0
    3.2476    4.8750    0.0000 C   0  0  0  0  0  0  0  0  0  0  0  0
   -3.2476    5.6250    0.0000 C   0  0  0  0  0  0  0  0  0  0  0  0
   -1.9486    4.8750    0.0000 C   0  0  0  0  0  0  0  0  0  0  0  0
   -4.5466    4.8750    0.0000 C   0  0  0  0  0  0  0  0  0  0  0  0
   -0.6495    5.6250    0.0000 C   0  0  0  0  0  0  0  0  0  0  0  0
   -5.8457    5.6250    0.0000 C   0  0  0  0  0  0  0  0  0  0  0  0
    0.6495    4.8750    0.0000 C   0  0  0  0  0  0  0  0  0  0  0  0
   -5.8457    7.1250    0.0000 O   0  0  0  0  0  0  0  0  0  0  0  0
    0.6495    3.3750    0.0000 O   0  0  0  0  0  0  0  0  0  0  0  0
   -7.1447    4.8750    0.0000 O   0  0  0  0  0  0  0  0  0  0  0  0
    1.9486    5.6250    0.0000 O   0  0  0  0  0  0  0  0  0  0  0  0
  4  3  1  0
  5  3  1  0
  6  4  1  0
  7  5  1  0
  8  6  1  0
  9  7  2  0
 10  8  2  0
 11  1  1  0
 11  7  1  0
 12  2  1  0
 12  8  1  0
M  END
>  <NAME>  (2075) 
DIMETHYL ADIPATE

>  <SYNONYMS>  (2075) 


>  <SPECTRUM TYPE>  (2075) 
MS1

>  <INSTRUMENT TYPE>  (2075) 
EI-B

>  <INSTRUMENT>  (2075) 
HITACHI M-80B

>  <ION MODE>  (2075) 
P

>  <INCHIKEY>  (2075) 
UDSFAEKRVUSQDD-UHFFFAOYSA-N

>  <FORMULA>  (2075) 
C8H14O4

>  <EXACT MASS>  (2075) 
174.089208928

>  <MW>  (2075) 
174

>  <ID>  (2075) 
JP009013

>  <CONTRIBUTOR>  (2075) 
University of Tokyo Team, {Faculty of Engineering, University of Tokyo

>  <COMMENT>  (2075) 
SMILES=COC(=O)CCCCC(=O)OC
cas=627-93-0
InChI=InChI=1S/C8H14O4/c1-11-7(9)5-3-4-6-8(10)12-2/h3-6H2,1-2H3
computed SMILES=O=C(OC)CCCCC(=O)OC
accession=JP009013
date=2016.01.19 (Created 2008.10.21, modified 2011.05.06)
author=SODA AROMATIC CO., LTD.
license=CC BY-NC-SA
exact mass=174.08921
ionization energy=70 eV
ion type=[M]+*
computed spectral entropy=3.1154202078206414
computed normalized entropy=0.7963706255044578
SPLASH=splash10-08fu-9700000000-533cdf131d0e41342a94
submitter=submitter = University of Tokyo Team (Faculty of Engineering, University of Tokyo)
MoNA Rating=3.75

>  <NUM PEAKS>  (2075) 
50

>  <MASS SPECTRAL PEAKS>  (2075) 
15 4.18
26 1.41
27 7.83
29 9.88
30 1.39
31 5.65
39 8.12
41 22.15
42 13.95
43 24.56
44 1.2
45 5.08
51 1
53 4.17
54 6.94
55 66.47
56 7.72
57 3.61
58 1.4
59 92.4
60 2.87
68 3.63
69 7.49
71 4.2
72 7
73 33.37
74 48.2
75 1.77
81 1.47
82 8
83 25.05
84 2.37
85 1.24
87 16.74
88 3.2
97 4.52
99 2.61
100 2.83
101 79.83
102 3.67
110 3.6
111 72.51
112 4.47
113 2.24
114 99.99
115 23.7
116 1.57
142 17.35
143 70.19
144 4.49

>  <PREDICTED SPECTRUM>  (2075) 
14 1
15 100
26 108
27 316
28 200
29 306
30 89
31 182
32 17
33 48
37 14
38 23
39 339
40 126
41 455
42 332
43 398
44 235
45 252
47 56
49 48
51 46
52 59
53 122
54 155
55 842
56 341
57 165
58 84
59 696
60 135
61 99
62 6
63 61
65 7
68 3
69 297
70 133
71 100
72 85
73 316
74 353
75 100
79 41
81 1
82 174
83 509
84 261
85 158
86 56
87 556
88 194
97 144
98 181
99 133
100 220
101 356
102 46
110 165
111 999
112 265
113 82
114 464
115 632
116 141
125 80
129 173
142 449
143 670
144 216

$$$$

     RDKit          2D

 16 15  0  0  0  0  0  0  0  0999 V2000
    4.5466    7.1250    0.0000 C   0  0  0  0  0  0  0  0  0  0  0  0
  -12.3409    7.8750    0.0000 C   0  0  0  0  0  0  0  0  0  0  0  0
    3.2476    7.8750    0.0000 C   0  0  0  0  0  0  0  0  0  0  0  0
  -11.0418    7.1250    0.0000 C   0  0  0  0  0  0  0  0  0  0  0  0
    1.9486    7.1250    0.0000 C   0  0  0  0  0  0  0  0  0  0  0  0
   -9.7428    7.8750    0.0000 C   0  0  0  0  0  0  0  0  0  0  0  0
   -3.2476    7.1250    0.0000 C   0  0  0  0  0  0  0  0  0  0  0  0
   -4.5466    7.8750    0.0000 C   0  0  0  0  0  0  0  0  0  0  0  0
    0.6495    7.8750    0.0000 C   0  0  0  0  0  0  0  0  0  0  0  0
   -8.4437    7.1250    0.0000 C   0  0  0  0  0  0  0  0  0  0  0  0
   -1.9486    7.8750    0.0000 C   0  0  0  0  0  0  0  0  0  0  0  0
   -5.8457    7.1250    0.0000 C   0  0  0  0  0  0  0  0  0  0  0  0
   -1.9486    9.3750    0.0000 O   0  0  0  0  0  0  0  0  0  0  0  0
   -5.8457    5.6250    0.0000 O   0  0  0  0  0  0  0  0  0  0  0  0
   -0.6495    7.1250    0.0000 O   0  0  0  0  0  0  0  0  0  0  0  0
   -7.1447    7.8750    0.0000 O   0  0  0  0  0  0  0  0  0  0  0  0
  3  1  1  0
  4  2  1  0
  5  3  1  0
  6  4  1  0
  8  7  1  0
  9  5  1  0
 10  6  1  0
 11  7  1  0
 12  8  1  0
 13 11  2  0
 14 12  2  0
 15  9  1  0
 15 11  1  0
 16 10  1  0
 16 12  1  0
M  END
>  <NAME>  (2076) 
DIBUTYL SUCCINATE

>  <SYNONYMS>  (2076) 


>  <SPECTRUM TYPE>  (2076) 
MS1

>  <INSTRUMENT TYPE>  (2076) 
EI-B

>  <INSTRUMENT>  (2076) 
HITACHI M-80B

>  <ION MODE>  (2076) 
P

>  <INCHIKEY>  (2076) 
YUXIBTJKHLUKBD-UHFFFAOYSA-N

>  <FORMULA>  (2076) 
C12H22O4

>  <EXACT MASS>  (2076) 
230.151809184

>  <MW>  (2076) 
230

>  <ID>  (2076) 
JP009012

>  <CONTRIBUTOR>  (2076) 
University of Tokyo Team, {Faculty of Engineering, University of Tokyo

>  <COMMENT>  (2076) 
SMILES=CCCCOC(=O)CCC(=O)OCCCC
cas=141-03-7
InChI=InChI=1S/C12H22O4/c1-3-5-9-15-11(13)7-8-12(14)16-10-6-4-2/h3-10H2,1-2H3
computed SMILES=O=C(OCCCC)CCC(=O)OCCCC
accession=JP009012
date=2016.01.19 (Created 2008.10.21, modified 2011.05.06)
author=SODA AROMATIC CO., LTD.
license=CC BY-NC-SA
exact mass=230.15181
ionization energy=70 eV
ion type=[M]+*
computed spectral entropy=1.8599075793115627
computed normalized entropy=0.6434838612820335
SPLASH=splash10-0udi-3900000000-d36f8861e8991054528c
submitter=submitter = University of Tokyo Team (Faculty of Engineering, University of Tokyo)
MoNA Rating=3.75

>  <NUM PEAKS>  (2076) 
18

>  <MASS SPECTRAL PEAKS>  (2076) 
27 2.23
29 6.46
39 1.37
41 9.34
43 1.78
55 5.12
56 11.4
57 12.9
73 2.57
74 2.83
100 1.82
101 99.99
102 4.41
119 2.6
130 1.39
157 17.65
158 1.22
175 3.33

>  <PREDICTED SPECTRUM>  (2076) 
26 9
27 77
28 15
29 172
30 6
39 96
40 28
41 238
42 85
43 117
45 64
53 69
54 17
55 171
56 295
57 300
58 64
61 18
70 43
71 30
73 143
74 179
75 105
83 26
84 56
85 11
100 156
101 999
102 131
103 98
119 17
128 11
130 60
157 519
158 77
175 158

$$$$

     RDKit          2D

 12 11  0  0  0  0  0  0  0  0999 V2000
    3.2476    4.8750    0.0000 C   0  0  0  0  0  0  0  0  0  0  0  0
   -8.4437    5.6250    0.0000 C   0  0  0  0  0  0  0  0  0  0  0  0
    1.9486    5.6250    0.0000 C   0  0  0  0  0  0  0  0  0  0  0  0
   -7.1447    4.8750    0.0000 C   0  0  0  0  0  0  0  0  0  0  0  0
   -1.9486    4.8750    0.0000 C   0  0  0  0  0  0  0  0  0  0  0  0
   -3.2476    5.6250    0.0000 C   0  0  0  0  0  0  0  0  0  0  0  0
   -0.6495    5.6250    0.0000 C   0  0  0  0  0  0  0  0  0  0  0  0
   -4.5466    4.8750    0.0000 C   0  0  0  0  0  0  0  0  0  0  0  0
   -0.6495    7.1250    0.0000 O   0  0  0  0  0  0  0  0  0  0  0  0
   -4.5466    3.3750    0.0000 O   0  0  0  0  0  0  0  0  0  0  0  0
    0.6495    4.8750    0.0000 O   0  0  0  0  0  0  0  0  0  0  0  0
   -5.8457    5.6250    0.0000 O   0  0  0  0  0  0  0  0  0  0  0  0
  3  1  1  0
  4  2  1  0
  6  5  1  0
  7  5  1  0
  8  6  1  0
  9  7  2  0
 10  8  2  0
 11  3  1  0
 11  7  1  0
 12  4  1  0
 12  8  1  0
M  END
>  <NAME>  (2077) 
DIETHYL SUCCINATE

>  <SYNONYMS>  (2077) 


>  <SPECTRUM TYPE>  (2077) 
MS1

>  <INSTRUMENT TYPE>  (2077) 
EI-B

>  <INSTRUMENT>  (2077) 
HITACHI M-80B

>  <ION MODE>  (2077) 
P

>  <INCHIKEY>  (2077) 
DKMROQRQHGEIOW-UHFFFAOYSA-N

>  <FORMULA>  (2077) 
C8H14O4

>  <EXACT MASS>  (2077) 
174.089208928

>  <MW>  (2077) 
174

>  <ID>  (2077) 
JP009011

>  <CONTRIBUTOR>  (2077) 
University of Tokyo Team, {Faculty of Engineering, University of Tokyo

>  <COMMENT>  (2077) 
SMILES=CCOC(=O)CCC(=O)OCC
cas=123-25-1
InChI=InChI=1S/C8H14O4/c1-3-11-7(9)5-6-8(10)12-4-2/h3-6H2,1-2H3
computed SMILES=O=C(OCC)CCC(=O)OCC
accession=JP009011
date=2016.01.19 (Created 2008.10.21, modified 2011.05.06)
author=SODA AROMATIC CO., LTD.
license=CC BY-NC-SA
exact mass=174.08921
ionization energy=70 eV
ion type=[M]+*
computed spectral entropy=2.2188991648274063
computed normalized entropy=0.7288168210994083
SPLASH=splash10-0ufr-3900000000-7f6aa2df583c7cd0c94b
submitter=submitter = University of Tokyo Team (Faculty of Engineering, University of Tokyo)
MoNA Rating=3.75

>  <NUM PEAKS>  (2077) 
21

>  <MASS SPECTRAL PEAKS>  (2077) 
26 1.09
27 8.38
29 17.54
31 1.94
42 1.34
43 2.76
45 7.06
55 14.26
56 8.33
57 2.68
73 13.4
74 8.83
75 1.73
100 5.33
101 99.99
102 12.74
103 1.04
128 15.69
129 69.72
130 5.38
147 2

>  <PREDICTED SPECTRUM>  (2077) 
26 72
27 265
28 159
29 463
30 53
31 134
39 34
40 21
41 137
42 140
43 156
44 81
45 211
46 33
47 8
53 92
54 70
55 387
56 204
57 131
61 3
67 7
69 99
71 44
73 321
74 251
75 155
81 79
82 113
83 248
84 135
99 62
100 157
101 891
102 288
103 90
128 307
129 999
130 307
131 35
147 24

$$$$

     RDKit          2D

 10  9  0  0  0  0  0  0  0  0999 V2000
   -6.4952    4.5000    0.0000 C   0  0  0  0  0  0  0  0  0  0  0  0
    2.5981    3.7500    0.0000 C   0  0  0  0  0  0  0  0  0  0  0  0
   -2.5981    3.7500    0.0000 C   0  0  0  0  0  0  0  0  0  0  0  0
   -1.2990    4.5000    0.0000 C   0  0  0  0  0  0  0  0  0  0  0  0
   -3.8971    4.5000    0.0000 C   0  0  0  0  0  0  0  0  0  0  0  0
    0.0000    3.7500    0.0000 C   0  0  0  0  0  0  0  0  0  0  0  0
   -3.8971    6.0000    0.0000 O   0  0  0  0  0  0  0  0  0  0  0  0
   -0.0000    2.2500    0.0000 O   0  0  0  0  0  0  0  0  0  0  0  0
   -5.1962    3.7500    0.0000 O   0  0  0  0  0  0  0  0  0  0  0  0
    1.2990    4.5000    0.0000 O   0  0  0  0  0  0  0  0  0  0  0  0
  4  3  1  0
  5  3  1  0
  6  4  1  0
  7  5  2  0
  8  6  2  0
  9  1  1  0
  9  5  1  0
 10  2  1  0
 10  6  1  0
M  END
>  <NAME>  (2078) 
DIMETHYL SUCCINATE

>  <SYNONYMS>  (2078) 


>  <SPECTRUM TYPE>  (2078) 
MS1

>  <INSTRUMENT TYPE>  (2078) 
EI-B

>  <INSTRUMENT>  (2078) 
HITACHI M-80B

>  <ION MODE>  (2078) 
P

>  <INCHIKEY>  (2078) 
MUXOBHXGJLMRAB-UHFFFAOYSA-N

>  <FORMULA>  (2078) 
C6H10O4

>  <EXACT MASS>  (2078) 
146.0579088

>  <MW>  (2078) 
146

>  <ID>  (2078) 
JP009010

>  <CONTRIBUTOR>  (2078) 
University of Tokyo Team, {Faculty of Engineering, University of Tokyo

>  <COMMENT>  (2078) 
SMILES=COC(=O)CCC(=O)OC
cas=106-65-0
InChI=InChI=1S/C6H10O4/c1-9-5(7)3-4-6(8)10-2/h3-4H2,1-2H3
computed SMILES=O=C(OC)CCC(=O)OC
accession=JP009010
date=2016.01.19 (Created 2008.10.21, modified 2011.05.06)
author=SODA AROMATIC CO., LTD.
license=CC BY-NC-SA
exact mass=146.05791
ionization energy=70 eV
ion type=[M]+*
computed spectral entropy=1.9476559943381604
computed normalized entropy=0.6874371103835643
SPLASH=splash10-066r-8900000000-cbb2443772e2180e08e1
submitter=submitter = University of Tokyo Team (Faculty of Engineering, University of Tokyo)
MoNA Rating=3.75

>  <NUM PEAKS>  (2078) 
17

>  <MASS SPECTRAL PEAKS>  (2078) 
15 2
26 1.31
27 4
29 2.93
31 1.55
41 1.44
42 1.98
43 1.5
45 4.17
55 41.29
56 4.62
57 4.33
59 33.68
87 14.21
114 26.45
115 99.99
116 6.29

>  <PREDICTED SPECTRUM>  (2078) 
14 1
15 142
26 118
27 342
28 210
29 303
31 238
32 35
33 73
37 60
38 27
39 233
40 167
41 512
42 415
43 429
44 286
45 585
46 77
47 83
50 1
51 10
52 49
53 165
54 334
55 870
56 517
57 256
58 200
59 999
60 338
61 115
69 141
70 27
71 169
72 120
73 101
74 156
75 117
82 107
83 694
84 328
85 338
86 171
87 756
88 326
89 135
100 114
101 239
114 740
115 953
116 287
117 27
146 167

$$$$

     RDKit          2D

 15 14  0  0  0  0  0  0  0  0999 V2000
   -3.0492    1.9414    0.0000 C   0  0  0  0  0  0  0  0  0  0  0  0
   -0.1567    3.6114    0.0000 C   0  0  0  0  0  0  0  0  0  0  0  0
    2.5981    4.5000    0.0000 C   0  0  0  0  0  0  0  0  0  0  0  0
   -7.7942    4.5000    0.0000 C   0  0  0  0  0  0  0  0  0  0  0  0
   -3.5623    3.3509    0.0000 C   0  0  0  0  0  0  0  0  0  0  0  0
   -1.6339    3.3509    0.0000 C   0  0  0  0  0  0  0  0  0  0  0  0
    1.2990    5.2500    0.0000 C   0  0  0  0  0  0  0  0  0  0  0  0
   -6.4952    5.2500    0.0000 C   0  0  0  0  0  0  0  0  0  0  0  0
   -1.2990    5.2500    0.0000 C   0  0  0  0  0  0  0  0  0  0  0  0
   -3.8971    5.2500    0.0000 C   0  0  0  0  0  0  0  0  0  0  0  0
   -2.5981    4.5000    0.0000 C   0  0  0  0  0  0  0  0  0  0  0  0
   -1.2990    6.7500    0.0000 O   0  0  0  0  0  0  0  0  0  0  0  0
   -3.8971    6.7500    0.0000 O   0  0  0  0  0  0  0  0  0  0  0  0
    0.0000    4.5000    0.0000 O   0  0  0  0  0  0  0  0  0  0  0  0
   -5.1962    4.5000    0.0000 O   0  0  0  0  0  0  0  0  0  0  0  0
  5  1  1  0
  6  2  1  0
  7  3  1  0
  8  4  1  0
 11  5  1  0
 11  6  1  0
 11  9  1  0
 11 10  1  0
 12  9  2  0
 13 10  2  0
 14  7  1  0
 14  9  1  0
 15  8  1  0
 15 10  1  0
M  END
>  <NAME>  (2079) 
DIETHYL DIETHYLMALONATE

>  <SYNONYMS>  (2079) 


>  <SPECTRUM TYPE>  (2079) 
MS1

>  <INSTRUMENT TYPE>  (2079) 
EI-B

>  <INSTRUMENT>  (2079) 
HITACHI M-80B

>  <ION MODE>  (2079) 
P

>  <INCHIKEY>  (2079) 
ZKBBUZRGPULIRN-UHFFFAOYSA-N

>  <FORMULA>  (2079) 
C11H20O4

>  <EXACT MASS>  (2079) 
216.13615912

>  <MW>  (2079) 
216

>  <ID>  (2079) 
JP009009

>  <CONTRIBUTOR>  (2079) 
University of Tokyo Team, {Faculty of Engineering, University of Tokyo

>  <COMMENT>  (2079) 
SMILES=CCOC(=O)C(CC)(CC)C(=O)OCC
InChI=InChI=1S/C11H20O4/c1-5-11(6-2,9(12)14-7-3)10(13)15-8-4/h5-8H2,1-4H3
computed SMILES=O=C(OCC)C(C(=O)OCC)(CC)CC
accession=JP009009
date=2016.01.19 (Created 2008.10.21, modified 2011.05.06)
author=SODA AROMATIC CO., LTD.
license=CC BY-NC-SA
exact mass=216.13616
ionization energy=70 eV
ion type=[M]+*
computed spectral entropy=3.4512317202313985
computed normalized entropy=0.8429265460643915
SPLASH=splash10-004i-9600000000-bebdad332459d93d6f69
submitter=submitter = University of Tokyo Team (Faculty of Engineering, University of Tokyo)
MoNA Rating=3.75

>  <NUM PEAKS>  (2079) 
60

>  <MASS SPECTRAL PEAKS>  (2079) 
15 1.26
26 2.12
27 26.16
28 3.22
29 99.99
30 2.31
31 2.19
39 8.42
40 1.92
41 30.77
42 4.01
43 15.34
45 24.2
53 4.81
54 1.58
55 24.21
56 1.29
57 7.94
59 4.49
67 2.68
68 1.82
69 34.46
70 3.38
71 4.81
73 21.25
81 1.22
83 15.82
84 1.05
85 1.36
86 3.28
87 8.28
95 1.33
96 1.89
97 8.9
98 8.61
99 15.27
100 1.37
101 29.92
102 1.43
113 4.73
114 8.64
115 30.85
116 6.64
127 4.87
129 27.69
130 1.67
141 6.19
142 19.45
143 26.17
144 8.84
145 1.25
157 2.17
170 2.46
171 24.45
172 1.89
173 15.69
174 1.43
187 2.16
188 46.16
189 3.89

>  <PREDICTED SPECTRUM>  (2079) 
25 15
26 110
27 335
28 275
29 587
30 184
31 172
36 0
37 12
38 30
39 216
40 108
41 458
42 178
43 485
44 192
45 405
46 61
47 30
51 23
52 19
53 155
54 73
55 468
56 88
57 378
58 131
59 295
60 59
66 1
67 148
68 168
69 620
70 213
71 286
72 160
73 651
74 138
75 18
81 157
82 20
83 362
84 18
85 164
86 206
87 366
88 108
89 9
95 132
96 124
97 463
98 338
99 324
100 209
101 449
102 58
113 254
114 401
115 771
116 288
117 141
118 48
124 15
125 47
127 199
128 111
129 500
130 95
131 55
132 67
133 76
141 310
142 782
143 786
144 604
145 332
146 159
157 15
158 45
159 101
160 536
161 45
170 178
171 999
172 253
173 370
174 46
187 102
188 505
189 140
190 67

$$$$

     RDKit          2D

 15 14  0  0  0  0  0  0  0  0999 V2000
    1.9486    5.6250    0.0000 C   0  0  0  0  0  0  0  0  0  0  0  0
   -8.4437    5.6250    0.0000 C   0  0  0  0  0  0  0  0  0  0  0  0
   -5.8457    1.1250    0.0000 C   0  0  0  0  0  0  0  0  0  0  0  0
    0.6495    6.3750    0.0000 C   0  0  0  0  0  0  0  0  0  0  0  0
   -7.1447    6.3750    0.0000 C   0  0  0  0  0  0  0  0  0  0  0  0
   -4.5466    1.8750    0.0000 C   0  0  0  0  0  0  0  0  0  0  0  0
   -0.6495    5.6250    0.0000 C   0  0  0  0  0  0  0  0  0  0  0  0
   -1.9486    6.3750    0.0000 C   0  0  0  0  0  0  0  0  0  0  0  0
   -3.2476    5.6250    0.0000 C   0  0  0  0  0  0  0  0  0  0  0  0
   -4.5466    6.3750    0.0000 C   0  0  0  0  0  0  0  0  0  0  0  0
   -3.2476    4.1250    0.0000 C   0  0  0  0  0  0  0  0  0  0  0  0
   -4.5466    7.8750    0.0000 O   0  0  0  0  0  0  0  0  0  0  0  0
   -1.9486    3.3750    0.0000 O   0  0  0  0  0  0  0  0  0  0  0  0
   -5.8457    5.6250    0.0000 O   0  0  0  0  0  0  0  0  0  0  0  0
   -4.5466    3.3750    0.0000 O   0  0  0  0  0  0  0  0  0  0  0  0
  4  1  1  0
  5  2  1  0
  6  3  1  0
  7  4  1  0
  8  7  1  0
  9  8  1  0
 10  9  1  0
 11  9  1  0
 12 10  2  0
 13 11  2  0
 14  5  1  0
 14 10  1  0
 15  6  1  0
 15 11  1  0
M  END
>  <NAME>  (2080) 
DIETHYL BUTYLMALONATE

>  <SYNONYMS>  (2080) 


>  <SPECTRUM TYPE>  (2080) 
MS1

>  <INSTRUMENT TYPE>  (2080) 
EI-B

>  <INSTRUMENT>  (2080) 
HITACHI M-80B

>  <ION MODE>  (2080) 
P

>  <INCHIKEY>  (2080) 
RPNFNBGRHCUORR-UHFFFAOYSA-N

>  <FORMULA>  (2080) 
C11H20O4

>  <EXACT MASS>  (2080) 
216.13615912

>  <MW>  (2080) 
216

>  <ID>  (2080) 
JP009008

>  <CONTRIBUTOR>  (2080) 
University of Tokyo Team, {Faculty of Engineering, University of Tokyo

>  <COMMENT>  (2080) 
SMILES=CCCCC(C(=O)OCC)C(=O)OCC
cas=133-08-4
InChI=InChI=1S/C11H20O4/c1-4-7-8-9(10(12)14-5-2)11(13)15-6-3/h9H,4-8H2,1-3H3
computed SMILES=O=C(OCC)C(C(=O)OCC)CCCC
license=CC BY-NC-SA
accession=JP009008
date=2016.01.19 (Created 2008.10.21, modified 2011.05.06)
author=SODA AROMATIC CO., LTD.
exact mass=216.13616
ionization energy=70 eV
ion type=[M]+*
computed spectral entropy=3.418600367461502
computed normalized entropy=0.8101893885080185
SPLASH=splash10-0200-9600000000-e596ab5322e0dc486bbb
submitter=submitter = University of Tokyo Team (Faculty of Engineering, University of Tokyo)
MoNA Rating=3.75

>  <NUM PEAKS>  (2080) 
68

>  <MASS SPECTRAL PEAKS>  (2080) 
15 1.6
26 2.29
27 33.95
28 5.34
29 82.94
30 1.86
31 2.83
39 7.81
40 1.58
41 25.81
42 8.35
43 14.36
44 1.18
45 12.09
53 2.57
54 1.4
55 42.86
56 3.89
57 6.19
58 2.32
59 1.55
60 2.15
67 1.91
68 3.69
69 26.02
70 4.97
71 2.16
73 41.15
74 1.79
80 1.04
81 1.89
83 1.82
85 2.41
86 14.21
87 6.72
88 15.51
89 1.01
95 1.7
96 3.36
97 17.3
98 3.24
99 5.33
101 25.02
102 2.09
104 5.27
105 3.37
113 2.6
114 15.53
115 18.78
116 1.24
123 1.27
124 3.32
127 3.83
128 1.53
129 2.25
132 10.76
133 24.61
134 1.59
142 3.28
143 4.35
144 2.19
160 99.99
161 6.25
162 1.2
171 36.79
172 2.91
173 9.6
174 1.33

>  <PREDICTED SPECTRUM>  (2080) 
15 14
25 6
26 106
27 406
28 129
29 685
30 73
31 117
37 26
38 37
39 213
40 114
41 436
42 239
43 388
44 177
45 337
46 35
50 35
51 84
52 59
53 197
54 135
55 486
56 223
57 345
58 84
59 35
60 132
61 30
62 22
65 27
66 37
67 183
68 155
69 317
70 176
71 144
72 61
73 521
74 166
75 13
76 66
77 6
78 6
79 75
80 5
81 161
82 89
83 145
85 55
86 236
87 381
88 475
89 82
95 40
96 141
97 250
98 175
99 275
100 189
101 451
102 125
103 21
104 237
105 82
107 12
111 8
112 23
113 200
114 354
115 482
116 160
117 55
123 9
124 100
125 310
126 87
127 166
128 84
129 87
130 18
132 307
133 498
134 47
141 130
142 262
143 262
144 134
148 54
155 34
159 116
160 999
161 344
162 15
170 12
171 581
172 226
173 488
174 18
187 37
188 6

$$$$

     RDKit          2D

 13 12  0  0  0  0  0  0  0  0999 V2000
   -3.8971    2.2500    0.0000 C   0  0  0  0  0  0  0  0  0  0  0  0
    2.5981    4.5000    0.0000 C   0  0  0  0  0  0  0  0  0  0  0  0
   -7.7942    4.5000    0.0000 C   0  0  0  0  0  0  0  0  0  0  0  0
   -2.5981    3.0000    0.0000 C   0  0  0  0  0  0  0  0  0  0  0  0
    1.2990    5.2500    0.0000 C   0  0  0  0  0  0  0  0  0  0  0  0
   -6.4952    5.2500    0.0000 C   0  0  0  0  0  0  0  0  0  0  0  0
   -2.5981    4.5000    0.0000 C   0  0  0  0  0  0  0  0  0  0  0  0
   -1.2990    5.2500    0.0000 C   0  0  0  0  0  0  0  0  0  0  0  0
   -3.8971    5.2500    0.0000 C   0  0  0  0  0  0  0  0  0  0  0  0
   -1.2990    6.7500    0.0000 O   0  0  0  0  0  0  0  0  0  0  0  0
   -3.8971    6.7500    0.0000 O   0  0  0  0  0  0  0  0  0  0  0  0
    0.0000    4.5000    0.0000 O   0  0  0  0  0  0  0  0  0  0  0  0
   -5.1962    4.5000    0.0000 O   0  0  0  0  0  0  0  0  0  0  0  0
  4  1  1  0
  5  2  1  0
  6  3  1  0
  7  4  1  0
  8  7  1  0
  9  7  1  0
 10  8  2  0
 11  9  2  0
 12  5  1  0
 12  8  1  0
 13  6  1  0
 13  9  1  0
M  END
>  <NAME>  (2081) 
DIETHYL ETHYLMALONATE

>  <SYNONYMS>  (2081) 


>  <SPECTRUM TYPE>  (2081) 
MS1

>  <INSTRUMENT TYPE>  (2081) 
EI-B

>  <INSTRUMENT>  (2081) 
HITACHI M-80B

>  <ION MODE>  (2081) 
P

>  <INCHIKEY>  (2081) 
VQAZCUCWHIIFGE-UHFFFAOYSA-N

>  <FORMULA>  (2081) 
C9H16O4

>  <EXACT MASS>  (2081) 
188.104858992

>  <MW>  (2081) 
188

>  <ID>  (2081) 
JP009007

>  <CONTRIBUTOR>  (2081) 
University of Tokyo Team, {Faculty of Engineering, University of Tokyo

>  <COMMENT>  (2081) 
SMILES=CCOC(=O)C(CC)C(=O)OCC
cas=133-13-1
InChI=InChI=1S/C9H16O4/c1-4-7(8(10)12-5-2)9(11)13-6-3/h7H,4-6H2,1-3H3
computed SMILES=O=C(OCC)C(C(=O)OCC)CC
accession=JP009007
date=2016.01.19 (Created 2008.10.21, modified 2011.05.06)
author=SODA AROMATIC CO., LTD.
license=CC BY-NC-SA
exact mass=188.10486
ionization energy=70 eV
ion type=[M]+*
computed spectral entropy=3.0750945154615192
computed normalized entropy=0.8031816503581175
SPLASH=splash10-00bc-9400000000-defa2f0e55db86b37aff
submitter=submitter = University of Tokyo Team (Faculty of Engineering, University of Tokyo)
MoNA Rating=3.75

>  <NUM PEAKS>  (2081) 
46

>  <MASS SPECTRAL PEAKS>  (2081) 
15 1.65
26 2.69
27 33.11
28 3.9
29 99.99
30 2.14
31 3.81
39 8.98
40 1.87
41 15.72
42 5.54
43 31.07
44 1.15
45 14.13
55 30.98
56 1.03
59 1.34
60 1.12
68 1.99
69 13.02
70 16.77
71 6.81
73 49.84
74 1.82
85 1.12
86 8.38
87 14.88
88 13.15
89 2.15
99 3.12
101 21.68
102 1.06
104 1.77
105 1.34
114 4.8
115 7.11
116 7.55
129 2.17
132 3.67
133 6.33
142 3.46
143 53.97
144 3.93
160 50.53
161 5.24
173 1.14

>  <PREDICTED SPECTRUM>  (2081) 
14 6
15 13
16 3
19 16
25 20
26 169
27 545
28 269
29 844
30 174
31 293
38 6
39 246
40 197
41 536
42 375
43 544
44 160
45 461
46 66
47 97
50 6
53 161
54 94
55 254
56 58
57 170
58 41
59 102
60 188
61 183
62 14
67 53
68 174
69 552
70 383
71 354
72 186
73 650
74 38
75 17
83 85
85 292
86 427
87 782
88 568
89 198
96 190
97 411
98 201
99 179
100 107
101 437
102 12
104 178
105 121
113 230
114 500
115 965
116 363
117 112
131 61
132 183
133 462
141 92
142 216
143 999
144 327
145 142
159 18
160 585
161 193
162 21
189 21

$$$$

     RDKit          2D

 15 14  0  0  0  0  0  0  0  0999 V2000
   -1.2353    2.0858    0.0000 C   0  0  0  0  0  0  0  0  0  0  0  0
    0.2647    4.6839    0.0000 C   0  0  0  0  0  0  0  0  0  0  0  0
   -1.7844    4.1349    0.0000 C   0  0  0  0  0  0  0  0  0  0  0  0
    8.0589    2.0858    0.0000 C   0  0  0  0  0  0  0  0  0  0  0  0
    8.6079    4.1349    0.0000 C   0  0  0  0  0  0  0  0  0  0  0  0
    6.5589    4.6839    0.0000 C   0  0  0  0  0  0  0  0  0  0  0  0
    3.4118    2.6349    0.0000 C   0  0  0  0  0  0  0  0  0  0  0  0
    2.1127    3.3849    0.0000 C   0  0  0  0  0  0  0  0  0  0  0  0
    4.7108    3.3849    0.0000 C   0  0  0  0  0  0  0  0  0  0  0  0
   -0.4853    3.3849    0.0000 C   0  0  0  0  0  0  0  0  0  0  0  0
    7.3089    3.3849    0.0000 C   0  0  0  0  0  0  0  0  0  0  0  0
    2.1127    4.8849    0.0000 O   0  0  0  0  0  0  0  0  0  0  0  0
    4.7108    4.8849    0.0000 O   0  0  0  0  0  0  0  0  0  0  0  0
    0.8137    2.6349    0.0000 O   0  0  0  0  0  0  0  0  0  0  0  0
    6.0099    2.6349    0.0000 O   0  0  0  0  0  0  0  0  0  0  0  0
  8  7  1  0
  9  7  1  0
 10  1  1  0
 10  2  1  0
 10  3  1  0
 11  4  1  0
 11  5  1  0
 11  6  1  0
 12  8  2  0
 13  9  2  0
 14  8  1  0
 14 10  1  0
 15  9  1  0
 15 11  1  0
M  END
>  <NAME>  (2082) 
DI-TERT-BUTYL MALONATE

>  <SYNONYMS>  (2082) 


>  <SPECTRUM TYPE>  (2082) 
MS1

>  <INSTRUMENT TYPE>  (2082) 
EI-B

>  <INSTRUMENT>  (2082) 
HITACHI M-80B

>  <ION MODE>  (2082) 
P

>  <INCHIKEY>  (2082) 
CLPHAYNBNTVRDI-UHFFFAOYSA-N

>  <FORMULA>  (2082) 
C11H20O4

>  <EXACT MASS>  (2082) 
216.13615912

>  <MW>  (2082) 
216

>  <ID>  (2082) 
JP009006

>  <CONTRIBUTOR>  (2082) 
University of Tokyo Team, {Faculty of Engineering, University of Tokyo

>  <COMMENT>  (2082) 
SMILES=O=C(CC(=O)OC(C)(C)C)OC(C)(C)C
cas=541-16-2
InChI=InChI=1S/C11H20O4/c1-10(2,3)14-8(12)7-9(13)15-11(4,5)6/h7H2,1-6H3
computed SMILES=O=C(OC(C)(C)C)CC(=O)OC(C)(C)C
ion type=[M]+*
accession=JP009006
date=2016.01.19 (Created 2008.10.21, modified 2011.05.06)
author=SODA AROMATIC CO., LTD.
license=CC BY-NC-SA
exact mass=216.13616
ionization energy=70 eV
computed spectral entropy=2.482766322824483
computed normalized entropy=0.7533037658609714
SPLASH=splash10-0a4l-9000000000-1cf9c357da30947c55e2
submitter=submitter = University of Tokyo Team (Faculty of Engineering, University of Tokyo)
MoNA Rating=3.75

>  <NUM PEAKS>  (2082) 
27

>  <MASS SPECTRAL PEAKS>  (2082) 
27 13.97
29 12.12
31 1.44
37 2
38 4.94
39 36.59
41 80.61
42 9.17
43 12.4
44 11.16
45 1.67
50 3.76
51 3.06
53 3.72
54 1.18
55 12.28
56 37.05
57 99.99
58 5.02
59 26.95
60 1.43
69 1.07
87 1.25
105 10.62
115 1.67
145 6.92
161 1.06

>  <PREDICTED SPECTRUM>  (2082) 
14 9
15 33
26 38
27 142
28 64
29 263
30 37
31 114
37 11
38 40
39 243
40 79
41 532
42 192
43 272
44 111
45 58
49 15
50 13
53 80
55 110
56 292
57 999
58 115
59 352
60 81
69 63
74 9
87 221
88 75
89 137
101 1
104 176
105 136
143 142
145 143
201 39

$$$$

     RDKit          2D

 15 14  0  0  0  0  0  0  0  0999 V2000
    3.8971    6.7500    0.0000 C   0  0  0  0  0  0  0  0  0  0  0  0
  -11.6913    6.7500    0.0000 C   0  0  0  0  0  0  0  0  0  0  0  0
    2.5981    7.5000    0.0000 C   0  0  0  0  0  0  0  0  0  0  0  0
  -10.3923    7.5000    0.0000 C   0  0  0  0  0  0  0  0  0  0  0  0
    1.2990    6.7500    0.0000 C   0  0  0  0  0  0  0  0  0  0  0  0
   -9.0933    6.7500    0.0000 C   0  0  0  0  0  0  0  0  0  0  0  0
    0.0000    7.5000    0.0000 C   0  0  0  0  0  0  0  0  0  0  0  0
   -7.7942    7.5000    0.0000 C   0  0  0  0  0  0  0  0  0  0  0  0
   -3.8971    6.7500    0.0000 C   0  0  0  0  0  0  0  0  0  0  0  0
   -2.5981    7.5000    0.0000 C   0  0  0  0  0  0  0  0  0  0  0  0
   -5.1962    7.5000    0.0000 C   0  0  0  0  0  0  0  0  0  0  0  0
   -2.5981    9.0000    0.0000 O   0  0  0  0  0  0  0  0  0  0  0  0
   -5.1962    9.0000    0.0000 O   0  0  0  0  0  0  0  0  0  0  0  0
   -1.2990    6.7500    0.0000 O   0  0  0  0  0  0  0  0  0  0  0  0
   -6.4952    6.7500    0.0000 O   0  0  0  0  0  0  0  0  0  0  0  0
  3  1  1  0
  4  2  1  0
  5  3  1  0
  6  4  1  0
  7  5  1  0
  8  6  1  0
 10  9  1  0
 11  9  1  0
 12 10  2  0
 13 11  2  0
 14  7  1  0
 14 10  1  0
 15  8  1  0
 15 11  1  0
M  END
>  <NAME>  (2083) 
DIBUTYL MALONATE

>  <SYNONYMS>  (2083) 


>  <SPECTRUM TYPE>  (2083) 
MS1

>  <INSTRUMENT TYPE>  (2083) 
EI-B

>  <INSTRUMENT>  (2083) 
HITACHI M-80B

>  <ION MODE>  (2083) 
P

>  <INCHIKEY>  (2083) 
NFKGQHYUYGYHIS-UHFFFAOYSA-N

>  <FORMULA>  (2083) 
C11H20O4

>  <EXACT MASS>  (2083) 
216.13615912

>  <MW>  (2083) 
216

>  <ID>  (2083) 
JP009005

>  <CONTRIBUTOR>  (2083) 
University of Tokyo Team, {Faculty of Engineering, University of Tokyo

>  <COMMENT>  (2083) 
SMILES=CCCCOC(=O)CC(=O)OCCCC
cas=1190-39-2
InChI=InChI=1S/C11H20O4/c1-3-5-7-14-10(12)9-11(13)15-8-6-4-2/h3-9H2,1-2H3
computed SMILES=O=C(OCCCC)CC(=O)OCCCC
accession=JP009005
date=2016.01.19 (Created 2008.10.21, modified 2011.05.06)
author=SODA AROMATIC CO., LTD.
license=CC BY-NC-SA
exact mass=216.13616
ionization energy=70 eV
ion type=[M]+*
computed spectral entropy=2.571122809179529
computed normalized entropy=0.7635571506023149
SPLASH=splash10-0a4i-9300000000-1f00b573142085b01e28
submitter=submitter = University of Tokyo Team (Faculty of Engineering, University of Tokyo)
MoNA Rating=3.75

>  <NUM PEAKS>  (2083) 
29

>  <MASS SPECTRAL PEAKS>  (2083) 
29 26.1
30 1.01
31 10.57
39 10.59
41 46.7
42 22.08
43 17.16
44 1.99
45 1.37
53 1.11
55 10.1
56 51.77
57 76.96
58 2.6
60 4.87
61 1.89
69 3.6
71 2.75
72 1.65
73 3.98
83 2.45
87 36.51
88 1.18
105 99.99
106 3.13
116 1.01
143 26.71
144 1.87
161 5.67

>  <PREDICTED SPECTRUM>  (2083) 
26 27
27 99
28 15
29 152
30 51
31 10
39 204
40 82
41 525
42 256
43 293
44 131
45 157
53 33
54 23
55 324
56 701
57 754
58 173
59 54
60 264
61 232
62 8
69 122
70 119
71 163
72 36
73 313
74 15
83 127
85 97
86 91
87 656
88 152
89 147
90 54
97 20
99 2
100 51
101 12
103 39
104 22
105 999
106 270
107 125
111 17
114 116
116 53
117 26
118 279
125 194
142 29
143 758
144 299
145 114
161 270
162 4

$$$$

     RDKit          2D

 13 12  0  0  0  0  0  0  0  0999 V2000
    3.2476    5.6250    0.0000 C   0  0  0  0  0  0  0  0  0  0  0  0
   -9.7428    5.6250    0.0000 C   0  0  0  0  0  0  0  0  0  0  0  0
    1.9486    6.3750    0.0000 C   0  0  0  0  0  0  0  0  0  0  0  0
   -8.4437    6.3750    0.0000 C   0  0  0  0  0  0  0  0  0  0  0  0
    0.6495    5.6250    0.0000 C   0  0  0  0  0  0  0  0  0  0  0  0
   -7.1447    5.6250    0.0000 C   0  0  0  0  0  0  0  0  0  0  0  0
   -3.2476    6.3750    0.0000 C   0  0  0  0  0  0  0  0  0  0  0  0
   -1.9486    5.6250    0.0000 C   0  0  0  0  0  0  0  0  0  0  0  0
   -4.5466    5.6250    0.0000 C   0  0  0  0  0  0  0  0  0  0  0  0
   -1.9486    4.1250    0.0000 O   0  0  0  0  0  0  0  0  0  0  0  0
   -4.5466    4.1250    0.0000 O   0  0  0  0  0  0  0  0  0  0  0  0
   -0.6495    6.3750    0.0000 O   0  0  0  0  0  0  0  0  0  0  0  0
   -5.8457    6.3750    0.0000 O   0  0  0  0  0  0  0  0  0  0  0  0
  3  1  1  0
  4  2  1  0
  5  3  1  0
  6  4  1  0
  8  7  1  0
  9  7  1  0
 10  8  2  0
 11  9  2  0
 12  5  1  0
 12  8  1  0
 13  6  1  0
 13  9  1  0
M  END
>  <NAME>  (2084) 
DIPROPYL MALONATE

>  <SYNONYMS>  (2084) 


>  <SPECTRUM TYPE>  (2084) 
MS1

>  <INSTRUMENT TYPE>  (2084) 
EI-B

>  <INSTRUMENT>  (2084) 
HITACHI M-80B

>  <ION MODE>  (2084) 
P

>  <INCHIKEY>  (2084) 
LWIWFCDNJNZEKB-UHFFFAOYSA-N

>  <FORMULA>  (2084) 
C9H16O4

>  <EXACT MASS>  (2084) 
188.104858992

>  <MW>  (2084) 
188

>  <ID>  (2084) 
JP009004

>  <CONTRIBUTOR>  (2084) 
University of Tokyo Team, {Faculty of Engineering, University of Tokyo

>  <COMMENT>  (2084) 
SMILES=CCCOC(=O)CC(=O)OCCC
InChI=InChI=1S/C9H16O4/c1-3-5-12-8(10)7-9(11)13-6-4-2/h3-7H2,1-2H3
computed SMILES=O=C(OCCC)CC(=O)OCCC
accession=JP009004
date=2016.01.19 (Created 2008.10.21, modified 2011.05.06)
author=SODA AROMATIC CO., LTD.
license=CC BY-NC-SA
exact mass=188.10486
ionization energy=70 eV
ion type=[M]+*
computed spectral entropy=2.431007602678729
computed normalized entropy=0.786468526188477
SPLASH=splash10-0006-9400000000-fed9a401809145c541bd
submitter=submitter = University of Tokyo Team (Faculty of Engineering, University of Tokyo)
MoNA Rating=3.75

>  <NUM PEAKS>  (2084) 
22

>  <MASS SPECTRAL PEAKS>  (2084) 
15 1.88
26 1.54
27 25.1
29 6.74
31 12.72
39 8.05
41 26.97
42 28.15
43 99.99
44 1.31
57 4.5
59 4.79
60 9.78
61 7.9
69 3.44
87 30.24
102 1.77
105 59.52
106 1.68
129 50.41
130 3.19
147 6.78

>  <PREDICTED SPECTRUM>  (2084) 
14 10
15 56
26 81
27 267
28 110
29 153
30 6
31 188
33 31
37 2
39 242
40 140
41 474
42 405
43 789
44 141
45 161
50 4
53 12
55 86
57 71
58 96
59 351
60 287
61 207
62 16
63 81
66 3
69 259
70 7
73 123
86 7
87 390
88 52
100 93
101 250
102 167
104 46
105 711
106 149
119 44
129 999
130 348
131 153
147 380
148 152
149 4

$$$$

     RDKit          2D

 12 12  0  0  0  0  0  0  0  0999 V2000
    2.9223    3.1883    0.0000 C   0  0  0  0  0  0  0  0  0  0  0  0
   -3.5733    0.9379    0.0000 C   0  0  0  0  0  0  0  0  0  0  0  0
    1.6239   -2.0632    0.0000 C   0  0  0  0  0  0  0  0  0  0  0  0
    2.9229   -1.3132    0.0000 C   0  0  0  0  0  0  0  0  0  0  0  0
    0.3244   -1.3123    0.0000 C   0  0  0  0  0  0  0  0  0  0  0  0
    2.9224    0.1877    0.0000 C   0  0  0  0  0  0  0  0  0  0  0  0
    0.3239    0.1885    0.0000 C   0  0  0  0  0  0  0  0  0  0  0  0
    1.6229    0.9385    0.0000 C   0  0  0  0  0  0  0  0  0  0  0  0
   -0.9753    0.9383    0.0000 C   0  0  0  0  0  0  0  0  0  0  0  0
   -0.9755    2.4383    0.0000 O   0  0  0  0  0  0  0  0  0  0  0  0
    1.6232    2.4385    0.0000 O   0  0  0  0  0  0  0  0  0  0  0  0
   -2.2742    0.1881    0.0000 O   0  0  0  0  0  0  0  0  0  0  0  0
  4  3  2  0
  5  3  1  0
  6  4  1  0
  7  5  2  0
  8  6  2  0
  8  7  1  0
  9  7  1  0
 10  9  2  0
 11  1  1  0
 11  8  1  0
 12  2  1  0
 12  9  1  0
M  END
>  <NAME>  (2085) 
METHYL ORTHO-METHOXYBENZOATE

>  <SYNONYMS>  (2085) 
METHYL 2-METHOXYBENZOATE

>  <SPECTRUM TYPE>  (2085) 
MS1

>  <INSTRUMENT TYPE>  (2085) 
EI-B

>  <INSTRUMENT>  (2085) 
HITACHI M-80B

>  <ION MODE>  (2085) 
P

>  <INCHIKEY>  (2085) 
PFYHAAAQPNMZHO-UHFFFAOYSA-N

>  <FORMULA>  (2085) 
C9H10O3

>  <EXACT MASS>  (2085) 
166.06299417999998

>  <MW>  (2085) 
166

>  <ID>  (2085) 
JP008998

>  <CONTRIBUTOR>  (2085) 
University of Tokyo Team, {Faculty of Engineering, University of Tokyo

>  <COMMENT>  (2085) 
SMILES=COC(=O)c(c1)c(OC)ccc1
cas=606-45-1
InChI=InChI=1S/C9H10O3/c1-11-8-6-4-3-5-7(8)9(10)12-2/h3-6H,1-2H3
computed SMILES=O=C(OC)C=1C=CC=CC1OC
accession=JP008998
date=2016.01.19 (Created 2008.10.21, modified 2011.05.06)
author=SODA AROMATIC CO., LTD.
license=CC BY-NC-SA
exact mass=166.06299
ionization energy=70 eV
ion type=[M]+*
computed spectral entropy=2.9722280271549613
computed normalized entropy=0.7902339507949538
SPLASH=splash10-002r-8900000000-57666b6c4d6c08c15eee
submitter=submitter = University of Tokyo Team (Faculty of Engineering, University of Tokyo)
MoNA Rating=3.75

>  <NUM PEAKS>  (2085) 
43

>  <MASS SPECTRAL PEAKS>  (2085) 
15 10.01
27 1.43
29 5.68
30 1.5
31 1.36
37 1.52
38 7.27
39 5.8
45 2.29
50 10.36
51 14.35
52 1.82
53 3.3
59 2.1
61 1.33
62 3.42
63 17.33
64 16.1
65 2.86
74 2.85
75 2.25
76 7.02
77 57.93
78 5.36
79 6.45
91 2.7
92 27.62
93 2.43
95 1.27
104 1.51
105 17.66
106 2.33
107 2.66
120 3.48
121 2.06
133 38.58
134 7.5
135 99.99
136 9.27
137 8.77
151 1.69
166 29.46
167 2.43

>  <PREDICTED SPECTRUM>  (2085) 
14 36
15 124
16 32
17 18
18 20
25 4
26 54
27 63
28 72
29 140
30 85
31 61
32 1
37 86
38 174
39 241
40 77
41 63
42 3
44 69
49 54
50 297
51 378
52 178
53 166
54 8
59 24
60 25
61 125
62 170
63 394
64 350
65 239
66 73
67 52
68 13
74 109
75 105
76 229
77 702
78 283
79 251
80 52
85 9
86 7
89 14
90 129
91 114
92 459
93 194
94 10
95 76
105 387
106 222
107 182
108 51
120 272
121 121
122 26
123 130
133 381
134 185
135 999
136 258
137 175
138 5
149 29
166 605
167 204
168 62

$$$$

     RDKit          2D

 18 19  0  0  0  0  0  0  0  0999 V2000
    4.2228    2.7576    0.0000 C   0  0  0  0  0  0  0  0  0  0  0  0
    4.2233    4.2584    0.0000 C   0  0  0  0  0  0  0  0  0  0  0  0
    2.9233    2.0067    0.0000 C   0  0  0  0  0  0  0  0  0  0  0  0
   -6.1701    7.2594    0.0000 C   0  0  0  0  0  0  0  0  0  0  0  0
   -7.4693    6.5096    0.0000 C   0  0  0  0  0  0  0  0  0  0  0  0
    2.9242    5.0084    0.0000 C   0  0  0  0  0  0  0  0  0  0  0  0
    1.6242    2.7567    0.0000 C   0  0  0  0  0  0  0  0  0  0  0  0
   -4.8707    6.5084    0.0000 C   0  0  0  0  0  0  0  0  0  0  0  0
   -7.4690    5.0088    0.0000 C   0  0  0  0  0  0  0  0  0  0  0  0
    0.3257    5.0076    0.0000 C   0  0  0  0  0  0  0  0  0  0  0  0
   -0.9733    4.2576    0.0000 C   0  0  0  0  0  0  0  0  0  0  0  0
    1.6247    4.2576    0.0000 C   0  0  0  0  0  0  0  0  0  0  0  0
   -4.8705    5.0076    0.0000 C   0  0  0  0  0  0  0  0  0  0  0  0
   -6.1696    4.2578    0.0000 C   0  0  0  0  0  0  0  0  0  0  0  0
   -3.5714    4.2576    0.0000 C   0  0  0  0  0  0  0  0  0  0  0  0
   -6.1701    2.7578    0.0000 O   0  0  0  0  0  0  0  0  0  0  0  0
   -3.5714    2.7576    0.0000 O   0  0  0  0  0  0  0  0  0  0  0  0
   -2.2724    5.0076    0.0000 O   0  0  0  0  0  0  0  0  0  0  0  0
  2  1  2  0
  3  1  1  0
  5  4  2  0
  6  2  1  0
  7  3  2  0
  8  4  1  0
  9  5  1  0
 11 10  1  0
 12  6  2  0
 12  7  1  0
 12 10  1  0
 13  8  2  0
 14  9  2  0
 14 13  1  0
 15 13  1  0
 16 14  1  0
 17 15  2  0
 18 11  1  0
 18 15  1  0
M  END
>  <NAME>  (2086) 
PHENYLETHYL SALICYLATE

>  <SYNONYMS>  (2086) 


>  <SPECTRUM TYPE>  (2086) 
MS1

>  <INSTRUMENT TYPE>  (2086) 
EI-B

>  <INSTRUMENT>  (2086) 
HITACHI M-80B

>  <ION MODE>  (2086) 
P

>  <INCHIKEY>  (2086) 
YNMSDIQQNIRGDP-UHFFFAOYSA-N

>  <FORMULA>  (2086) 
C15H14O3

>  <EXACT MASS>  (2086) 
242.094294308

>  <MW>  (2086) 
242

>  <ID>  (2086) 
JP008997

>  <CONTRIBUTOR>  (2086) 
University of Tokyo Team, {Faculty of Engineering, University of Tokyo

>  <COMMENT>  (2086) 
SMILES=Oc(c2)c(ccc2)C(=O)OCCc(c1)cccc1
InChI=InChI=1S/C15H14O3/c16-14-9-5-4-8-13(14)15(17)18-11-10-12-6-2-1-3-7-12/h1-9,16H,10-11H2
computed SMILES=O=C(OCCC=1C=CC=CC1)C=2C=CC=CC2O
accession=JP008997
date=2016.01.19 (Created 2008.10.21, modified 2011.05.06)
author=SODA AROMATIC CO., LTD.
license=CC BY-NC-SA
exact mass=242.09429
ionization energy=70 eV
ion type=[M]+*
computed spectral entropy=2.588230246247829
computed normalized entropy=0.7767321118329987
SPLASH=splash10-0pb9-4900000000-eadf56160c35c6a08145
submitter=submitter = University of Tokyo Team (Faculty of Engineering, University of Tokyo)
MoNA Rating=3.75

>  <NUM PEAKS>  (2086) 
28

>  <MASS SPECTRAL PEAKS>  (2086) 
27 2.69
38 1.63
39 13.79
50 1.89
51 6.45
52 1.45
53 2.46
62 1.2
63 6.18
64 4.91
65 21.58
66 1.42
77 14.5
78 6.25
79 12.29
89 1.24
91 12.78
92 13.36
93 8.66
103 8.83
104 84.35
105 99.99
106 8.47
120 16.82
121 32.29
122 2.26
138 8.47
242 6.08

>  <PREDICTED SPECTRUM>  (2086) 
26 28
27 89
28 17
29 37
36 9
37 33
38 68
39 211
40 90
41 42
42 42
43 12
44 54
45 75
49 23
50 159
51 233
52 138
53 145
54 50
55 7
56 6
57 1
61 32
62 72
63 176
64 110
65 289
66 97
69 40
74 71
75 93
76 104
77 245
78 189
79 176
81 29
89 97
91 274
92 187
93 132
94 99
102 69
103 181
104 999
105 553
106 100
110 42
115 4
120 87
121 206
122 86
138 184
182 10
242 63

$$$$

     RDKit          2D

 17 18  0  0  0  0  0  0  0  0999 V2000
   -7.1453    3.6965    0.0000 C   0  0  0  0  0  0  0  0  0  0  0  0
   -7.1458    2.1957    0.0000 C   0  0  0  0  0  0  0  0  0  0  0  0
   -5.8458    4.4473    0.0000 C   0  0  0  0  0  0  0  0  0  0  0  0
    3.2489    2.1961    0.0000 C   0  0  0  0  0  0  0  0  0  0  0  0
    3.2491    3.6961    0.0000 C   0  0  0  0  0  0  0  0  0  0  0  0
   -5.8468    1.4457    0.0000 C   0  0  0  0  0  0  0  0  0  0  0  0
   -4.5468    3.6973    0.0000 C   0  0  0  0  0  0  0  0  0  0  0  0
    1.9488    1.4463    0.0000 C   0  0  0  0  0  0  0  0  0  0  0  0
    1.9492    4.4463    0.0000 C   0  0  0  0  0  0  0  0  0  0  0  0
   -3.2482    1.4465    0.0000 C   0  0  0  0  0  0  0  0  0  0  0  0
   -4.5473    2.1965    0.0000 C   0  0  0  0  0  0  0  0  0  0  0  0
    0.6489    2.1965    0.0000 C   0  0  0  0  0  0  0  0  0  0  0  0
    0.6491    3.6965    0.0000 C   0  0  0  0  0  0  0  0  0  0  0  0
   -0.6502    1.4465    0.0000 C   0  0  0  0  0  0  0  0  0  0  0  0
   -0.6497    4.4469    0.0000 O   0  0  0  0  0  0  0  0  0  0  0  0
   -0.6502   -0.0535    0.0000 O   0  0  0  0  0  0  0  0  0  0  0  0
   -1.9492    2.1965    0.0000 O   0  0  0  0  0  0  0  0  0  0  0  0
  2  1  2  0
  3  1  1  0
  5  4  2  0
  6  2  1  0
  7  3  2  0
  8  4  1  0
  9  5  1  0
 11  6  2  0
 11  7  1  0
 11 10  1  0
 12  8  2  0
 13  9  2  0
 13 12  1  0
 14 12  1  0
 15 13  1  0
 16 14  2  0
 17 10  1  0
 17 14  1  0
M  END
>  <NAME>  (2087) 
BENZYL SALICYLATE

>  <SYNONYMS>  (2087) 


>  <SPECTRUM TYPE>  (2087) 
MS1

>  <INSTRUMENT TYPE>  (2087) 
EI-B

>  <INSTRUMENT>  (2087) 
HITACHI M-80B

>  <ION MODE>  (2087) 
P

>  <INCHIKEY>  (2087) 
ZCTQGTTXIYCGGC-UHFFFAOYSA-N

>  <FORMULA>  (2087) 
C14H12O3

>  <EXACT MASS>  (2087) 
228.07864424399997

>  <MW>  (2087) 
228

>  <ID>  (2087) 
JP008996

>  <CONTRIBUTOR>  (2087) 
University of Tokyo Team, {Faculty of Engineering, University of Tokyo

>  <COMMENT>  (2087) 
SMILES=Oc(c2)c(ccc2)C(=O)OCc(c1)cccc1
cas=118-58-1
InChI=InChI=1S/C14H12O3/c15-13-9-5-4-8-12(13)14(16)17-10-11-6-2-1-3-7-11/h1-9,15H,10H2
computed SMILES=O=C(OCC=1C=CC=CC1)C=2C=CC=CC2O
accession=JP008996
date=2016.01.19 (Created 2008.10.21, modified 2011.05.06)
author=SODA AROMATIC CO., LTD.
license=CC BY-NC-SA
exact mass=228.07864
ionization energy=70 eV
ion type=[M]+*
computed spectral entropy=1.255604910447838
computed normalized entropy=0.5052925873714249
SPLASH=splash10-0006-9000000000-f1bb87f256bac665a791
submitter=submitter = University of Tokyo Team (Faculty of Engineering, University of Tokyo)
MoNA Rating=3.75

>  <NUM PEAKS>  (2087) 
12

>  <MASS SPECTRAL PEAKS>  (2087) 
53 1.05
63 2.67
64 1.63
65 12.38
77 1.56
89 1.58
91 99.99
92 9.82
93 1.29
121 2.49
228 10.79
229 1.49

>  <PREDICTED SPECTRUM>  (2087) 
26 16
27 42
29 11
36 22
37 26
38 108
39 261
40 105
41 126
42 29
43 32
44 49
49 35
50 131
51 197
52 132
53 177
54 25
57 5
61 11
62 70
63 158
64 128
65 391
66 90
67 4
69 101
70 19
74 10
75 44
76 100
77 208
78 81
79 208
80 61
81 93
82 23
89 161
90 83
91 999
92 421
93 170
94 140
95 37
98 26
104 79
105 135
107 256
108 127
119 4
120 234
121 355
122 300
123 54
168 61
182 108
183 141
184 27
209 0
210 110
211 45
212 5
228 279
229 100

$$$$

     RDKit          2D

 16 17  0  0  0  0  0  0  0  0999 V2000
    7.4270    2.7908    0.0000 C   0  0  0  0  0  0  0  0  0  0  0  0
    7.4270    1.2908    0.0000 C   0  0  0  0  0  0  0  0  0  0  0  0
    6.1270    3.5408    0.0000 C   0  0  0  0  0  0  0  0  0  0  0  0
   -1.6700    0.5402    0.0000 C   0  0  0  0  0  0  0  0  0  0  0  0
   -1.6700   -0.9598    0.0000 C   0  0  0  0  0  0  0  0  0  0  0  0
    6.1270    0.5408    0.0000 C   0  0  0  0  0  0  0  0  0  0  0  0
    4.8270    2.7908    0.0000 C   0  0  0  0  0  0  0  0  0  0  0  0
   -0.3700    1.2902    0.0000 C   0  0  0  0  0  0  0  0  0  0  0  0
   -0.3700   -1.7098    0.0000 C   0  0  0  0  0  0  0  0  0  0  0  0
    4.8270    1.2908    0.0000 C   0  0  0  0  0  0  0  0  0  0  0  0
    0.9300    0.5402    0.0000 C   0  0  0  0  0  0  0  0  0  0  0  0
    0.9300   -0.9598    0.0000 C   0  0  0  0  0  0  0  0  0  0  0  0
    2.2289    1.2904    0.0000 C   0  0  0  0  0  0  0  0  0  0  0  0
    2.2289   -1.7100    0.0000 O   0  0  0  0  0  0  0  0  0  0  0  0
    2.2287    2.7904    0.0000 O   0  0  0  0  0  0  0  0  0  0  0  0
    3.5281    0.5406    0.0000 O   0  0  0  0  0  0  0  0  0  0  0  0
  2  1  2  0
  3  1  1  0
  5  4  2  0
  6  2  1  0
  7  3  2  0
  8  4  1  0
  9  5  1  0
 10  6  2  0
 10  7  1  0
 11  8  2  0
 12  9  2  0
 12 11  1  0
 13 11  1  0
 14 12  1  0
 15 13  2  0
 16 10  1  0
 16 13  1  0
M  END
>  <NAME>  (2088) 
PHENYL SALICYLATE

>  <SYNONYMS>  (2088) 
SALOL

>  <SPECTRUM TYPE>  (2088) 
MS1

>  <INSTRUMENT TYPE>  (2088) 
EI-B

>  <INSTRUMENT>  (2088) 
HITACHI M-80B

>  <ION MODE>  (2088) 
P

>  <INCHIKEY>  (2088) 
ZQBAKBUEJOMQEX-UHFFFAOYSA-N

>  <FORMULA>  (2088) 
C13H10O3

>  <EXACT MASS>  (2088) 
214.06299417999998

>  <MW>  (2088) 
214

>  <ID>  (2088) 
JP008995

>  <CONTRIBUTOR>  (2088) 
University of Tokyo Team, {Faculty of Engineering, University of Tokyo

>  <COMMENT>  (2088) 
SMILES=Oc(c2)c(ccc2)C(=O)Oc(c1)cccc1
cas=118-55-8
InChI=InChI=1S/C13H10O3/c14-12-9-5-4-8-11(12)13(15)16-10-6-2-1-3-7-10/h1-9,14H
computed SMILES=O=C(OC=1C=CC=CC1)C=2C=CC=CC2O
accession=JP008995
date=2016.01.19 (Created 2008.10.21, modified 2011.05.06)
author=SODA AROMATIC CO., LTD.
license=CC BY-NC-SA
exact mass=214.06299
ionization energy=70 eV
ion type=[M]+*
computed spectral entropy=1.7040043811012633
computed normalized entropy=0.6014387814020732
SPLASH=splash10-00di-4900000000-fcc0d5e766dfb52cf2d9
submitter=submitter = University of Tokyo Team (Faculty of Engineering, University of Tokyo)
MoNA Rating=3.75

>  <NUM PEAKS>  (2088) 
17

>  <MASS SPECTRAL PEAKS>  (2088) 
40 1.75
50 1.58
51 2.47
53 2.32
62 1.28
63 4.45
64 3.45
65 18.1
66 2.54
92 4.53
93 7.9
94 2.94
120 2.44
121 99.99
122 6.69
214 7.68
215 1.28

>  <PREDICTED SPECTRUM>  (2088) 
26 29
27 139
28 19
29 76
37 77
38 199
39 545
40 154
42 30
44 29
50 127
51 296
52 73
53 198
61 1
62 139
63 351
64 272
65 737
66 301
74 41
75 46
76 39
77 262
78 46
87 9
89 110
92 167
93 507
94 756
95 218
115 153
120 354
121 999
122 312
139 90
214 442
215 181

$$$$

     RDKit          2D

 20 21  0  0  0  0  0  0  0  0999 V2000
    3.6060   -5.8308    0.0000 C   0  0  0  0  0  0  0  0  0  0  0  0
    4.9051   -3.5808    0.0000 C   0  0  0  0  0  0  0  0  0  0  0  0
   -1.5901   -1.3308    0.0000 C   0  0  0  0  0  0  0  0  0  0  0  0
    7.5060    0.9188    0.0000 C   0  0  0  0  0  0  0  0  0  0  0  0
    7.5065    2.4188    0.0000 C   0  0  0  0  0  0  0  0  0  0  0  0
    6.2058    0.1692    0.0000 C   0  0  0  0  0  0  0  0  0  0  0  0
    6.2068    3.1692    0.0000 C   0  0  0  0  0  0  0  0  0  0  0  0
   -0.2916   -3.5817    0.0000 C   0  0  0  0  0  0  0  0  0  0  0  0
    1.0075   -4.3317    0.0000 C   0  0  0  0  0  0  0  0  0  0  0  0
    1.0084   -1.3300    0.0000 C   0  0  0  0  0  0  0  0  0  0  0  0
    3.6060   -4.3308    0.0000 C   0  0  0  0  0  0  0  0  0  0  0  0
   -0.2911   -2.0808    0.0000 C   0  0  0  0  0  0  0  0  0  0  0  0
    2.3070   -3.5808    0.0000 C   0  0  0  0  0  0  0  0  0  0  0  0
    4.9060    0.9196    0.0000 C   0  0  0  0  0  0  0  0  0  0  0  0
    4.9065    2.4196    0.0000 C   0  0  0  0  0  0  0  0  0  0  0  0
    2.3075   -2.0800    0.0000 C   0  0  0  0  0  0  0  0  0  0  0  0
    3.6069    0.1698    0.0000 C   0  0  0  0  0  0  0  0  0  0  0  0
    3.6078    3.1702    0.0000 O   0  0  0  0  0  0  0  0  0  0  0  0
    2.3080    0.9200    0.0000 O   0  0  0  0  0  0  0  0  0  0  0  0
    3.6066   -1.3302    0.0000 O   0  0  0  0  0  0  0  0  0  0  0  0
  5  4  2  0
  6  4  1  0
  7  5  1  0
  9  8  1  0
 11  1  1  0
 11  2  1  0
 12  3  1  0
 12  8  1  0
 12 10  1  0
 13  9  1  0
 13 11  1  0
 14  6  2  0
 15  7  2  0
 15 14  1  0
 16 10  1  0
 16 13  1  0
 17 14  1  0
 18 15  1  0
 19 17  2  0
 20 16  1  0
 20 17  1  0
M  END
>  <NAME>  (2089) 
MENTHYL SALICYLATE

>  <SYNONYMS>  (2089) 


>  <SPECTRUM TYPE>  (2089) 
MS1

>  <INSTRUMENT TYPE>  (2089) 
EI-B

>  <INSTRUMENT>  (2089) 
HITACHI M-80B

>  <ION MODE>  (2089) 
P

>  <INCHIKEY>  (2089) 
SJOXEWUZWQYCGL-UHFFFAOYSA-N

>  <FORMULA>  (2089) 
C17H24O3

>  <EXACT MASS>  (2089) 
276.17254462799997

>  <MW>  (2089) 
276

>  <ID>  (2089) 
JP008994

>  <CONTRIBUTOR>  (2089) 
University of Tokyo Team, {Faculty of Engineering, University of Tokyo

>  <COMMENT>  (2089) 
SMILES=CC(C1)CC(OC(=O)c(c2)c(O)ccc2)C(C1)C(C)C
InChI=InChI=1S/C17H24O3/c1-11(2)13-9-8-12(3)10-16(13)20-17(19)14-6-4-5-7-15(14)18/h4-7,11-13,16,18H,8-10H2,1-3H3
computed SMILES=O=C(OC1CC(C)CCC1C(C)C)C=2C=CC=CC2O
accession=JP008994
date=2016.01.19 (Created 2008.10.21, modified 2011.05.06)
author=SODA AROMATIC CO., LTD.
license=CC BY-NC-SA
exact mass=276.17254
ionization energy=70 eV
ion type=[M]+*
computed spectral entropy=3.227903662321278
computed normalized entropy=0.8338248655200303
SPLASH=splash10-008l-9300000000-a48ed66b887fd4c13167
submitter=submitter = University of Tokyo Team (Faculty of Engineering, University of Tokyo)
MoNA Rating=3.75

>  <NUM PEAKS>  (2089) 
48

>  <MASS SPECTRAL PEAKS>  (2089) 
38 1.14
39 21.72
41 46.94
42 3.16
43 37.15
51 1.38
53 9.51
54 5.48
55 66.19
56 3.91
57 24.04
63 3.26
64 4.25
65 29.5
66 2.63
67 20.9
68 5.25
69 42.88
70 3.09
71 3.99
77 3.08
79 5.15
80 5.48
81 62.95
82 20.69
83 86.27
84 5.02
91 1.73
92 14.82
93 15.59
94 8.68
95 57.93
96 14.61
97 16.13
98 1.21
109 4.55
110 1.49
120 57.93
121 68.61
122 4.5
123 23.37
124 2.18
137 1.35
138 99.99
139 15.89
140 1.3
276 6.63
277 1.27

>  <PREDICTED SPECTRUM>  (2089) 
26 0
27 163
28 30
29 169
30 42
38 36
39 308
40 105
41 556
42 188
43 409
44 53
50 59
51 143
52 122
53 283
54 186
55 542
56 139
57 262
58 18
62 27
63 181
64 145
65 359
66 151
67 392
68 149
69 384
70 164
71 213
76 84
77 292
78 84
79 166
80 295
81 590
82 313
83 392
84 7
91 162
92 346
93 427
94 333
95 645
96 276
97 110
98 4
103 57
104 3
105 45
107 29
108 52
109 152
110 170
119 109
120 661
121 613
122 210
123 324
132 29
137 764
138 999
139 327
140 45
189 189
276 117

$$$$

     RDKit          2D

 18 18  0  0  0  0  0  0  0  0999 V2000
   -4.8730    4.6877    0.0000 C   0  0  0  0  0  0  0  0  0  0  0  0
   -0.9755    2.4383    0.0000 C   0  0  0  0  0  0  0  0  0  0  0  0
   -3.5741    5.4379    0.0000 C   0  0  0  0  0  0  0  0  0  0  0  0
    0.3234    3.1885    0.0000 C   0  0  0  0  0  0  0  0  0  0  0  0
   -2.2749    4.6881    0.0000 C   0  0  0  0  0  0  0  0  0  0  0  0
    6.8193    2.4377    0.0000 C   0  0  0  0  0  0  0  0  0  0  0  0
    8.1184    3.1877    0.0000 C   0  0  0  0  0  0  0  0  0  0  0  0
   -0.9760    5.4383    0.0000 C   0  0  0  0  0  0  0  0  0  0  0  0
    5.5198    3.1885    0.0000 C   0  0  0  0  0  0  0  0  0  0  0  0
    8.1179    4.6885    0.0000 C   0  0  0  0  0  0  0  0  0  0  0  0
    1.6221    5.4387    0.0000 C   0  0  0  0  0  0  0  0  0  0  0  0
    0.3232    4.6885    0.0000 C   0  0  0  0  0  0  0  0  0  0  0  0
    5.5193    4.6893    0.0000 C   0  0  0  0  0  0  0  0  0  0  0  0
    6.8184    5.4393    0.0000 C   0  0  0  0  0  0  0  0  0  0  0  0
    4.2202    5.4391    0.0000 C   0  0  0  0  0  0  0  0  0  0  0  0
    6.8186    6.9393    0.0000 O   0  0  0  0  0  0  0  0  0  0  0  0
    4.2199    6.9391    0.0000 O   0  0  0  0  0  0  0  0  0  0  0  0
    2.9212    4.6889    0.0000 O   0  0  0  0  0  0  0  0  0  0  0  0
  3  1  1  0
  4  2  1  0
  5  3  1  0
  7  6  2  0
  8  5  1  0
  9  6  1  0
 10  7  1  0
 12  4  1  0
 12  8  1  0
 12 11  1  0
 13  9  2  0
 14 10  2  0
 14 13  1  0
 15 13  1  0
 16 14  1  0
 17 15  2  0
 18 11  1  0
 18 15  1  0
M  END
>  <NAME>  (2090) 
2-ETHYLHEXYL SALICYLATE

>  <SYNONYMS>  (2090) 


>  <SPECTRUM TYPE>  (2090) 
MS1

>  <INSTRUMENT TYPE>  (2090) 
EI-B

>  <INSTRUMENT>  (2090) 
HITACHI M-80B

>  <ION MODE>  (2090) 
P

>  <INCHIKEY>  (2090) 
FMRHJJZUHUTGKE-UHFFFAOYSA-N

>  <FORMULA>  (2090) 
C15H22O3

>  <EXACT MASS>  (2090) 
250.15689456399997

>  <MW>  (2090) 
250

>  <ID>  (2090) 
JP008993

>  <CONTRIBUTOR>  (2090) 
University of Tokyo Team, {Faculty of Engineering, University of Tokyo

>  <COMMENT>  (2090) 
SMILES=CCCCC(CC)COC(=O)c(c1)c(O)ccc1
InChI=InChI=1S/C15H22O3/c1-3-5-8-12(4-2)11-18-15(17)13-9-6-7-10-14(13)16/h6-7,9-10,12,16H,3-5,8,11H2,1-2H3
computed SMILES=O=C(OCC(CC)CCCC)C=1C=CC=CC1O
accession=JP008993
date=2016.01.19 (Created 2008.10.21, modified 2011.05.06)
author=SODA AROMATIC CO., LTD.
license=CC BY-NC-SA
exact mass=250.15689
ionization energy=70 eV
ion type=[M]+*
computed spectral entropy=2.817576950422536
computed normalized entropy=0.8129808587395283
SPLASH=splash10-00di-9800000000-e6bf91bd63e14169eb92
submitter=submitter = University of Tokyo Team (Faculty of Engineering, University of Tokyo)
MoNA Rating=3.75

>  <NUM PEAKS>  (2090) 
32

>  <MASS SPECTRAL PEAKS>  (2090) 
41 31.7
42 4.91
43 31.2
53 3.02
54 1.01
55 19.19
56 7.9
57 33.88
58 1.25
63 2.49
64 3.18
65 18.42
66 1.22
67 1.24
69 7.36
70 27.19
71 20.82
72 1.05
83 15.16
84 4.24
92 14.85
93 9.86
112 17.1
113 1.62
120 99.99
121 46.95
122 3.16
138 74.94
139 12.56
140 1.04
250 10.02
251 1.61

>  <PREDICTED SPECTRUM>  (2090) 
16 0
25 1
26 15
27 157
28 69
29 215
37 34
38 88
39 286
40 106
41 544
42 245
43 469
44 87
45 26
50 77
51 52
52 47
53 221
54 172
55 537
56 313
57 506
58 163
59 3
62 31
63 164
64 211
65 382
66 50
67 125
68 86
69 316
70 560
71 442
72 97
75 20
76 120
77 126
78 0
79 55
80 60
81 126
82 96
83 321
84 240
92 497
93 346
94 79
95 47
96 5
105 24
107 5
108 44
112 338
113 265
119 64
120 999
121 715
122 198
123 94
136 40
137 25
138 657
139 308
140 74
233 5
250 348
251 129
252 12

$$$$

     RDKit          2D

 16 16  0  0  0  0  0  0  0  0999 V2000
   -4.8730    4.6877    0.0000 C   0  0  0  0  0  0  0  0  0  0  0  0
   -3.5741    5.4379    0.0000 C   0  0  0  0  0  0  0  0  0  0  0  0
   -2.2749    4.6881    0.0000 C   0  0  0  0  0  0  0  0  0  0  0  0
   -0.9760    5.4383    0.0000 C   0  0  0  0  0  0  0  0  0  0  0  0
    6.8193    2.4377    0.0000 C   0  0  0  0  0  0  0  0  0  0  0  0
    8.1184    3.1877    0.0000 C   0  0  0  0  0  0  0  0  0  0  0  0
    0.3232    4.6885    0.0000 C   0  0  0  0  0  0  0  0  0  0  0  0
    5.5198    3.1885    0.0000 C   0  0  0  0  0  0  0  0  0  0  0  0
    8.1179    4.6885    0.0000 C   0  0  0  0  0  0  0  0  0  0  0  0
    1.6221    5.4387    0.0000 C   0  0  0  0  0  0  0  0  0  0  0  0
    5.5193    4.6893    0.0000 C   0  0  0  0  0  0  0  0  0  0  0  0
    6.8184    5.4393    0.0000 C   0  0  0  0  0  0  0  0  0  0  0  0
    4.2202    5.4391    0.0000 C   0  0  0  0  0  0  0  0  0  0  0  0
    6.8186    6.9393    0.0000 O   0  0  0  0  0  0  0  0  0  0  0  0
    4.2199    6.9391    0.0000 O   0  0  0  0  0  0  0  0  0  0  0  0
    2.9212    4.6889    0.0000 O   0  0  0  0  0  0  0  0  0  0  0  0
  2  1  1  0
  3  2  1  0
  4  3  1  0
  6  5  2  0
  7  4  1  0
  8  5  1  0
  9  6  1  0
 10  7  1  0
 11  8  2  0
 12  9  2  0
 12 11  1  0
 13 11  1  0
 14 12  1  0
 15 13  2  0
 16 10  1  0
 16 13  1  0
M  END
>  <NAME>  (2091) 
HEXYL  SALICYLATE

>  <SYNONYMS>  (2091) 


>  <SPECTRUM TYPE>  (2091) 
MS1

>  <INSTRUMENT TYPE>  (2091) 
EI-B

>  <INSTRUMENT>  (2091) 
HITACHI M-80B

>  <ION MODE>  (2091) 
P

>  <INCHIKEY>  (2091) 
DUKPKQFHJQGTGU-UHFFFAOYSA-N

>  <FORMULA>  (2091) 
C13H18O3

>  <EXACT MASS>  (2091) 
222.12559443599997

>  <MW>  (2091) 
222

>  <ID>  (2091) 
JP008992

>  <CONTRIBUTOR>  (2091) 
University of Tokyo Team, {Faculty of Engineering, University of Tokyo

>  <COMMENT>  (2091) 
SMILES=CCCCCCOC(=O)c(c1)c(O)ccc1
InChI=InChI=1S/C13H18O3/c1-2-3-4-7-10-16-13(15)11-8-5-6-9-12(11)14/h5-6,8-9,14H,2-4,7,10H2,1H3
computed SMILES=O=C(OCCCCCC)C=1C=CC=CC1O
accession=JP008992
date=2016.01.19 (Created 2008.10.21, modified 2011.05.06)
author=SODA AROMATIC CO., LTD.
license=CC BY-NC-SA
exact mass=222.12559
ionization energy=70 eV
ion type=[M]+*
computed spectral entropy=2.4509828083125123
computed normalized entropy=0.7712213005668846
SPLASH=splash10-00di-6900000000-f18343c179237dba8858
submitter=submitter = University of Tokyo Team (Faculty of Engineering, University of Tokyo)
MoNA Rating=3.75

>  <NUM PEAKS>  (2091) 
24

>  <MASS SPECTRAL PEAKS>  (2091) 
27 7.84
29 5.12
39 10.77
41 14.09
42 2.82
43 23.71
53 2.13
55 7.23
56 2.74
57 1.71
63 2.56
64 3.03
65 12.5
69 2.35
84 1.31
92 14.1
93 6.46
120 99.99
121 28.2
122 1.94
138 42.02
139 5.79
222 13
223 1.54

>  <PREDICTED SPECTRUM>  (2091) 
16 6
17 1
18 1
26 13
27 154
28 30
29 209
30 1
31 45
37 13
38 71
39 273
40 100
41 491
42 248
43 411
44 92
45 83
50 76
51 53
52 64
53 156
54 81
55 358
56 203
57 298
58 4
62 37
63 198
64 233
65 348
66 68
67 34
69 179
70 120
71 1
76 74
77 60
78 1
80 12
81 52
82 18
83 69
84 137
85 23
92 474
93 285
94 53
106 31
107 46
108 11
119 118
120 999
121 456
122 44
134 3
138 594
139 225
165 8
222 279
223 59

$$$$

     RDKit          2D

 16 16  0  0  0  0  0  0  0  0999 V2000
    1.9486    5.2490    0.0000 C   0  0  0  0  0  0  0  0  0  0  0  0
    3.2477    4.4992    0.0000 C   0  0  0  0  0  0  0  0  0  0  0  0
    3.2480    2.9992    0.0000 C   0  0  0  0  0  0  0  0  0  0  0  0
    4.5471    2.2494    0.0000 C   0  0  0  0  0  0  0  0  0  0  0  0
   12.3415    5.2525    0.0000 C   0  0  0  0  0  0  0  0  0  0  0  0
   13.6407    4.5029    0.0000 C   0  0  0  0  0  0  0  0  0  0  0  0
    5.8460    2.9996    0.0000 C   0  0  0  0  0  0  0  0  0  0  0  0
   11.0422    4.5012    0.0000 C   0  0  0  0  0  0  0  0  0  0  0  0
   13.6407    3.0021    0.0000 C   0  0  0  0  0  0  0  0  0  0  0  0
    7.1452    2.2498    0.0000 C   0  0  0  0  0  0  0  0  0  0  0  0
   11.0422    3.0004    0.0000 C   0  0  0  0  0  0  0  0  0  0  0  0
   12.3415    2.2508    0.0000 C   0  0  0  0  0  0  0  0  0  0  0  0
    9.7433    2.2502    0.0000 C   0  0  0  0  0  0  0  0  0  0  0  0
   12.3422    0.7508    0.0000 O   0  0  0  0  0  0  0  0  0  0  0  0
    9.7435    0.7502    0.0000 O   0  0  0  0  0  0  0  0  0  0  0  0
    8.4441    3.0000    0.0000 O   0  0  0  0  0  0  0  0  0  0  0  0
  2  1  1  0
  3  2  1  0
  3  4  2  0
  6  5  2  0
  7  4  1  0
  8  5  1  0
  9  6  1  0
 10  7  1  0
 11  8  2  0
 12  9  2  0
 12 11  1  0
 13 11  1  0
 14 12  1  0
 15 13  2  0
 16 10  1  0
 16 13  1  0
M  END
>  <NAME>  (2092) 
CIS-3-HEXENYL SALICYLATE

>  <SYNONYMS>  (2092) 


>  <SPECTRUM TYPE>  (2092) 
MS1

>  <INSTRUMENT TYPE>  (2092) 
EI-B

>  <INSTRUMENT>  (2092) 
HITACHI M-80B

>  <ION MODE>  (2092) 
P

>  <INCHIKEY>  (2092) 
IEPWIPZLLIOZLU-ARJAWSKDSA-N

>  <FORMULA>  (2092) 
C13H16O3

>  <EXACT MASS>  (2092) 
220.10994437199997

>  <MW>  (2092) 
220

>  <ID>  (2092) 
JP008991

>  <CONTRIBUTOR>  (2092) 
University of Tokyo Team, {Faculty of Engineering, University of Tokyo

>  <COMMENT>  (2092) 
SMILES=CCC=CCCOC(=O)c(c1)c(O)ccc1
InChI=InChI=1S/C13H16O3/c1-2-3-4-7-10-16-13(15)11-8-5-6-9-12(11)14/h3-6,8-9,14H,2,7,10H2,1H3/b4-3-
computed SMILES=O=C(OCCC=CCC)C=1C=CC=CC1O
accession=JP008991
date=2016.01.19 (Created 2008.10.21, modified 2011.05.06)
author=SODA AROMATIC CO., LTD.
license=CC BY-NC-SA
exact mass=220.10994
ionization energy=70 eV
ion type=[M]+*
computed spectral entropy=2.9115886822496355
computed normalized entropy=0.7947426475887394
SPLASH=splash10-00yi-9300000000-fd064cad5f590089b816
submitter=submitter = University of Tokyo Team (Faculty of Engineering, University of Tokyo)
MoNA Rating=3.75

>  <NUM PEAKS>  (2092) 
39

>  <MASS SPECTRAL PEAKS>  (2092) 
26 1.27
27 17.24
29 6.37
38 3.58
39 46.76
41 68.05
42 4.28
43 4.95
50 1.94
51 3.13
52 1.66
53 13.61
54 8.34
55 95.43
56 3.49
62 1.53
63 9.66
64 9.37
65 43.23
66 3.77
67 67.76
68 3.77
69 1.23
77 1.42
79 2.04
81 7.22
82 94.81
83 30.99
84 1.67
92 24.97
93 18.69
94 1.37
120 99.99
121 92.92
122 7.49
138 48.42
139 8.87
220 8.56
221 1.16

>  <PREDICTED SPECTRUM>  (2092) 
26 12
27 122
28 12
29 137
31 31
38 58
39 367
40 134
41 566
42 217
43 219
44 185
45 39
50 161
51 202
52 175
53 356
54 151
55 587
56 239
57 235
62 27
63 198
64 147
65 395
66 164
67 791
68 238
69 145
70 84
74 4
75 34
76 144
77 230
78 11
79 110
80 40
81 564
82 999
83 162
84 72
90 33
91 163
92 304
93 405
103 11
105 81
119 34
120 820
121 461
122 193
138 529
139 126
220 144
221 1

$$$$

     RDKit          2D

 15 15  0  0  0  0  0  0  0  0999 V2000
   -3.2489    3.0002    0.0000 C   0  0  0  0  0  0  0  0  0  0  0  0
   -1.9502    5.2504    0.0000 C   0  0  0  0  0  0  0  0  0  0  0  0
    5.8453    0.7498    0.0000 C   0  0  0  0  0  0  0  0  0  0  0  0
    7.1443    1.4998    0.0000 C   0  0  0  0  0  0  0  0  0  0  0  0
    4.5458    1.5006    0.0000 C   0  0  0  0  0  0  0  0  0  0  0  0
    7.1439    3.0006    0.0000 C   0  0  0  0  0  0  0  0  0  0  0  0
   -0.6508    3.0006    0.0000 C   0  0  0  0  0  0  0  0  0  0  0  0
    0.6481    3.7508    0.0000 C   0  0  0  0  0  0  0  0  0  0  0  0
   -1.9500    3.7504    0.0000 C   0  0  0  0  0  0  0  0  0  0  0  0
    4.5453    3.0015    0.0000 C   0  0  0  0  0  0  0  0  0  0  0  0
    5.8443    3.7515    0.0000 C   0  0  0  0  0  0  0  0  0  0  0  0
    3.2462    3.7512    0.0000 C   0  0  0  0  0  0  0  0  0  0  0  0
    5.8446    5.2515    0.0000 O   0  0  0  0  0  0  0  0  0  0  0  0
    3.2459    5.2512    0.0000 O   0  0  0  0  0  0  0  0  0  0  0  0
    1.9472    3.0010    0.0000 O   0  0  0  0  0  0  0  0  0  0  0  0
  4  3  2  0
  5  3  1  0
  6  4  1  0
  8  7  1  0
  9  1  1  0
  9  2  1  0
  9  7  1  0
 10  5  2  0
 11  6  2  0
 11 10  1  0
 12 10  1  0
 13 11  1  0
 14 12  2  0
 15  8  1  0
 15 12  1  0
M  END
>  <NAME>  (2093) 
ISOPENTYL SALICYLATE

>  <SYNONYMS>  (2093) 


>  <SPECTRUM TYPE>  (2093) 
MS1

>  <INSTRUMENT TYPE>  (2093) 
EI-B

>  <INSTRUMENT>  (2093) 
HITACHI M-80B

>  <ION MODE>  (2093) 
P

>  <INCHIKEY>  (2093) 
PMGCQNGBLMMXEW-UHFFFAOYSA-N

>  <FORMULA>  (2093) 
C12H16O3

>  <EXACT MASS>  (2093) 
208.10994437199997

>  <MW>  (2093) 
208

>  <ID>  (2093) 
JP008990

>  <CONTRIBUTOR>  (2093) 
University of Tokyo Team, {Faculty of Engineering, University of Tokyo

>  <COMMENT>  (2093) 
SMILES=CC(C)CCOC(=O)c(c1)c(O)ccc1
cas=87-20-7
InChI=InChI=1S/C12H16O3/c1-9(2)7-8-15-12(14)10-5-3-4-6-11(10)13/h3-6,9,13H,7-8H2,1-2H3
computed SMILES=O=C(OCCC(C)C)C=1C=CC=CC1O
accession=JP008990
date=2016.01.19 (Created 2008.10.21, modified 2011.05.06)
author=SODA AROMATIC CO., LTD.
license=CC BY-NC-SA
exact mass=208.10994
ionization energy=70 eV
ion type=[M]+*
computed spectral entropy=2.6928756607986526
computed normalized entropy=0.8265180694841944
SPLASH=splash10-00di-9700000000-e62a29f19910b38602dc
submitter=submitter = University of Tokyo Team (Faculty of Engineering, University of Tokyo)
MoNA Rating=3.75

>  <NUM PEAKS>  (2093) 
26

>  <MASS SPECTRAL PEAKS>  (2093) 
27 8.63
29 5.31
38 1.57
39 17.1
41 15.91
42 4.3
43 43.4
53 3.62
55 14.34
63 5.38
64 5.93
65 18.84
66 1.36
69 1.72
70 21.13
71 11.21
81 1.37
92 18.89
93 8.22
120 99.99
121 37.39
122 2.49
138 36.47
139 7.62
208 19.14
209 2.11

>  <PREDICTED SPECTRUM>  (2093) 
15 1
16 11
17 0
26 33
27 188
29 186
37 23
38 82
39 324
40 104
41 489
42 293
43 544
44 95
50 76
51 92
52 81
53 258
54 115
55 426
56 80
57 21
62 46
63 218
64 235
65 366
66 83
67 42
68 74
69 184
70 565
71 291
75 13
76 70
77 76
81 73
91 6
92 446
93 230
94 121
95 98
96 12
103 7
119 106
120 999
121 677
122 205
123 16
138 807
139 346
140 61
147 3
149 18
151 106
165 87
208 323
209 89

$$$$

     RDKit          2D

 15 15  0  0  0  0  0  0  0  0999 V2000
   -4.2236    4.3129    0.0000 C   0  0  0  0  0  0  0  0  0  0  0  0
   -2.9244    3.5631    0.0000 C   0  0  0  0  0  0  0  0  0  0  0  0
   -1.6255    4.3133    0.0000 C   0  0  0  0  0  0  0  0  0  0  0  0
    6.1698    1.3127    0.0000 C   0  0  0  0  0  0  0  0  0  0  0  0
    7.4688    2.0627    0.0000 C   0  0  0  0  0  0  0  0  0  0  0  0
   -0.3264    3.5635    0.0000 C   0  0  0  0  0  0  0  0  0  0  0  0
    4.8703    2.0635    0.0000 C   0  0  0  0  0  0  0  0  0  0  0  0
    7.4684    3.5635    0.0000 C   0  0  0  0  0  0  0  0  0  0  0  0
    0.9726    4.3137    0.0000 C   0  0  0  0  0  0  0  0  0  0  0  0
    4.8698    3.5643    0.0000 C   0  0  0  0  0  0  0  0  0  0  0  0
    6.1688    4.3143    0.0000 C   0  0  0  0  0  0  0  0  0  0  0  0
    3.5706    4.3141    0.0000 C   0  0  0  0  0  0  0  0  0  0  0  0
    6.1691    5.8143    0.0000 O   0  0  0  0  0  0  0  0  0  0  0  0
    3.5704    5.8141    0.0000 O   0  0  0  0  0  0  0  0  0  0  0  0
    2.2717    3.5639    0.0000 O   0  0  0  0  0  0  0  0  0  0  0  0
  2  1  1  0
  3  2  1  0
  5  4  2  0
  6  3  1  0
  7  4  1  0
  8  5  1  0
  9  6  1  0
 10  7  2  0
 11  8  2  0
 11 10  1  0
 12 10  1  0
 13 11  1  0
 14 12  2  0
 15  9  1  0
 15 12  1  0
M  END
>  <NAME>  (2094) 
AMYL SALICYLATE

>  <SYNONYMS>  (2094) 


>  <SPECTRUM TYPE>  (2094) 
MS1

>  <INSTRUMENT TYPE>  (2094) 
EI-B

>  <INSTRUMENT>  (2094) 
HITACHI M-80B

>  <ION MODE>  (2094) 
P

>  <INCHIKEY>  (2094) 
RANVDUNFZBMTBK-UHFFFAOYSA-N

>  <FORMULA>  (2094) 
C12H16O3

>  <EXACT MASS>  (2094) 
208.109944372

>  <MW>  (2094) 
208

>  <ID>  (2094) 
JP008989

>  <CONTRIBUTOR>  (2094) 
University of Tokyo Team, {Faculty of Engineering, University of Tokyo

>  <COMMENT>  (2094) 
SMILES=CCCCCOC(=O)c(c1)c(O)ccc1
InChI=InChI=1S/C12H16O3/c1-2-3-6-9-15-12(14)10-7-4-5-8-11(10)13/h4-5,7-8,13H,2-3,6,9H2,1H3
computed SMILES=O=C(OCCCCC)C=1C=CC=CC1O
accession=JP008989
date=2016.01.19 (Created 2008.10.21, modified 2011.05.06)
author=SODA AROMATIC CO., LTD.
license=CC BY-NC-SA
exact mass=208.10994
ionization energy=70 eV
ion type=[M]+*
computed spectral entropy=2.301027695682143
computed normalized entropy=0.7557926547595961
SPLASH=splash10-00di-5900000000-88d42e919ce3ddaf593c
submitter=submitter = University of Tokyo Team (Faculty of Engineering, University of Tokyo)
MoNA Rating=3.75

>  <NUM PEAKS>  (2094) 
21

>  <MASS SPECTRAL PEAKS>  (2094) 
38 1.14
39 13.09
41 12.2
42 2.96
43 17.19
53 2.28
55 6.44
63 2.96
64 3.97
65 13.83
66 1.08
70 1.77
92 16.63
93 6.3
120 99.99
121 26.52
122 1.76
138 29.65
139 3.01
208 12.46
209 1.4

>  <PREDICTED SPECTRUM>  (2094) 
15 3
16 9
17 11
18 3
26 9
27 117
28 5
29 142
31 18
37 2
38 47
39 227
40 61
41 349
42 222
43 370
44 83
45 22
50 45
51 69
52 75
53 147
54 57
55 235
56 7
57 68
62 34
63 196
64 219
65 365
66 88
67 14
69 66
70 149
71 49
76 33
77 70
81 37
91 74
92 484
93 286
94 104
95 55
118 10
119 98
120 999
121 483
122 157
137 243
138 623
139 228
151 72
208 304
209 71

$$$$

     RDKit          2D

 14 14  0  0  0  0  0  0  0  0999 V2000
   -3.5739    3.1880    0.0000 C   0  0  0  0  0  0  0  0  0  0  0  0
   -2.2745    0.9382    0.0000 C   0  0  0  0  0  0  0  0  0  0  0  0
    4.2214    0.1873    0.0000 C   0  0  0  0  0  0  0  0  0  0  0  0
    5.5205    0.9373    0.0000 C   0  0  0  0  0  0  0  0  0  0  0  0
    2.9219    0.9382    0.0000 C   0  0  0  0  0  0  0  0  0  0  0  0
    5.5200    2.4382    0.0000 C   0  0  0  0  0  0  0  0  0  0  0  0
   -0.9758    3.1884    0.0000 C   0  0  0  0  0  0  0  0  0  0  0  0
   -2.2747    2.4382    0.0000 C   0  0  0  0  0  0  0  0  0  0  0  0
    2.9214    2.4390    0.0000 C   0  0  0  0  0  0  0  0  0  0  0  0
    4.2205    3.1890    0.0000 C   0  0  0  0  0  0  0  0  0  0  0  0
    1.6223    3.1888    0.0000 C   0  0  0  0  0  0  0  0  0  0  0  0
    4.2207    4.6890    0.0000 O   0  0  0  0  0  0  0  0  0  0  0  0
    1.6220    4.6888    0.0000 O   0  0  0  0  0  0  0  0  0  0  0  0
    0.3233    2.4386    0.0000 O   0  0  0  0  0  0  0  0  0  0  0  0
  4  3  2  0
  5  3  1  0
  6  4  1  0
  8  1  1  0
  8  2  1  0
  8  7  1  0
  9  5  2  0
 10  6  2  0
 10  9  1  0
 11  9  1  0
 12 10  1  0
 13 11  2  0
 14  7  1  0
 14 11  1  0
M  END
>  <NAME>  (2095) 
ISOBUTYL SALICYLATE

>  <SYNONYMS>  (2095) 


>  <SPECTRUM TYPE>  (2095) 
MS1

>  <INSTRUMENT TYPE>  (2095) 
EI-B

>  <INSTRUMENT>  (2095) 
HITACHI M-80B

>  <ION MODE>  (2095) 
P

>  <INCHIKEY>  (2095) 
PTXDBYSCVQQBNF-UHFFFAOYSA-N

>  <FORMULA>  (2095) 
C11H14O3

>  <EXACT MASS>  (2095) 
194.094294308

>  <MW>  (2095) 
194

>  <ID>  (2095) 
JP008988

>  <CONTRIBUTOR>  (2095) 
University of Tokyo Team, {Faculty of Engineering, University of Tokyo

>  <COMMENT>  (2095) 
SMILES=CC(C)COC(=O)c(c1)c(O)ccc1
cas=87-19-4
InChI=InChI=1S/C11H14O3/c1-8(2)7-14-11(13)9-5-3-4-6-10(9)12/h3-6,8,12H,7H2,1-2H3
computed SMILES=O=C(OCC(C)C)C=1C=CC=CC1O
accession=JP008988
date=2016.01.19 (Created 2008.10.21, modified 2011.05.06)
author=SODA AROMATIC CO., LTD.
license=CC BY-NC-SA
exact mass=194.09429
ionization energy=70 eV
ion type=[M]+*
computed spectral entropy=2.392277433607489
computed normalized entropy=0.7629666230778164
SPLASH=splash10-00di-5900000000-246d919341a3efd623a4
submitter=submitter = University of Tokyo Team (Faculty of Engineering, University of Tokyo)
MoNA Rating=3.75

>  <NUM PEAKS>  (2095) 
23

>  <MASS SPECTRAL PEAKS>  (2095) 
27 5.68
29 6.1
38 1.62
39 15.63
41 13.66
43 2.61
53 2.35
55 1.47
56 1.7
57 9.94
63 3.93
64 5
65 15.8
66 1.22
92 17.23
93 7.43
120 99.99
121 33.67
122 2.55
138 29.65
139 2.52
194 12.61
195 1.5

>  <PREDICTED SPECTRUM>  (2095) 
14 10
15 42
16 17
17 21
18 31
25 1
26 44
27 191
28 88
29 232
31 58
36 13
37 31
38 88
39 270
40 85
41 341
42 100
43 119
44 37
45 3
49 35
50 51
51 55
52 62
53 127
54 57
55 141
56 156
57 145
62 40
63 168
64 199
65 353
66 95
67 9
68 26
76 62
77 40
78 29
80 1
81 36
91 149
92 448
93 240
94 95
95 49
104 14
105 10
106 2
109 0
119 85
120 999
121 452
122 149
123 29
135 24
137 4
138 441
139 79
140 18
149 8
151 52
194 267
195 86

$$$$

     RDKit          2D

 14 14  0  0  0  0  0  0  0  0999 V2000
   -4.2233    3.5628    0.0000 C   0  0  0  0  0  0  0  0  0  0  0  0
   -2.9244    4.3130    0.0000 C   0  0  0  0  0  0  0  0  0  0  0  0
   -1.6252    3.5632    0.0000 C   0  0  0  0  0  0  0  0  0  0  0  0
    4.8709    1.3123    0.0000 C   0  0  0  0  0  0  0  0  0  0  0  0
    6.1700    2.0623    0.0000 C   0  0  0  0  0  0  0  0  0  0  0  0
    3.5714    2.0632    0.0000 C   0  0  0  0  0  0  0  0  0  0  0  0
    6.1695    3.5632    0.0000 C   0  0  0  0  0  0  0  0  0  0  0  0
   -0.3263    4.3134    0.0000 C   0  0  0  0  0  0  0  0  0  0  0  0
    3.5709    3.5640    0.0000 C   0  0  0  0  0  0  0  0  0  0  0  0
    4.8700    4.3140    0.0000 C   0  0  0  0  0  0  0  0  0  0  0  0
    2.2718    4.3138    0.0000 C   0  0  0  0  0  0  0  0  0  0  0  0
    4.8702    5.8140    0.0000 O   0  0  0  0  0  0  0  0  0  0  0  0
    2.2715    5.8138    0.0000 O   0  0  0  0  0  0  0  0  0  0  0  0
    0.9729    3.5636    0.0000 O   0  0  0  0  0  0  0  0  0  0  0  0
  2  1  1  0
  3  2  1  0
  5  4  2  0
  6  4  1  0
  7  5  1  0
  8  3  1  0
  9  6  2  0
 10  7  2  0
 10  9  1  0
 11  9  1  0
 12 10  1  0
 13 11  2  0
 14  8  1  0
 14 11  1  0
M  END
>  <NAME>  (2096) 
BUTYL SALICYLATE

>  <SYNONYMS>  (2096) 


>  <SPECTRUM TYPE>  (2096) 
MS1

>  <INSTRUMENT TYPE>  (2096) 
EI-B

>  <INSTRUMENT>  (2096) 
HITACHI M-80B

>  <ION MODE>  (2096) 
P

>  <INCHIKEY>  (2096) 
YFDUWSBGVPBWKF-UHFFFAOYSA-N

>  <FORMULA>  (2096) 
C11H14O3

>  <EXACT MASS>  (2096) 
194.09429430799997

>  <MW>  (2096) 
194

>  <ID>  (2096) 
JP008987

>  <CONTRIBUTOR>  (2096) 
University of Tokyo Team, {Faculty of Engineering, University of Tokyo

>  <COMMENT>  (2096) 
SMILES=CCCCOC(=O)c(c1)c(O)ccc1
cas=2052-14-4
InChI=InChI=1S/C11H14O3/c1-2-3-8-14-11(13)9-6-4-5-7-10(9)12/h4-7,12H,2-3,8H2,1H3
computed SMILES=O=C(OCCCC)C=1C=CC=CC1O
accession=JP008987
date=2016.01.19 (Created 2008.10.21, modified 2011.05.06)
author=SODA AROMATIC CO., LTD.
license=CC BY-NC-SA
exact mass=194.09429
ionization energy=70 eV
ion type=[M]+*
computed spectral entropy=2.1626978999945794
computed normalized entropy=0.7103570245360917
SPLASH=splash10-00di-4900000000-ecc73d6f1204d08019f2
submitter=submitter = University of Tokyo Team (Faculty of Engineering, University of Tokyo)
MoNA Rating=3.75

>  <NUM PEAKS>  (2096) 
21

>  <MASS SPECTRAL PEAKS>  (2096) 
38 1.19
39 12.06
41 9.43
53 2.14
55 1.44
56 1.35
57 2.37
63 3.46
64 3.97
65 13.42
66 1.15
81 1.04
92 19.2
93 6.2
120 99.99
121 26.08
122 1.91
138 20.07
139 1.96
194 15.45
195 1.65

>  <PREDICTED SPECTRUM>  (2096) 
14 6
15 32
16 20
17 19
18 35
26 38
27 186
28 78
29 223
31 45
36 7
37 36
38 95
39 288
40 93
41 354
42 105
43 61
44 45
45 35
49 41
50 74
51 68
52 65
53 148
54 70
55 136
56 140
57 99
62 48
63 184
64 211
65 387
66 110
67 23
68 27
75 11
76 76
77 59
78 23
80 3
81 53
82 2
90 1
91 115
92 451
93 297
94 69
95 30
105 0
119 73
120 999
121 494
122 102
123 2
138 451
139 60
140 4
149 9
151 47
177 6
194 298
195 99

$$$$

     RDKit          2D

 13 13  0  0  0  0  0  0  0  0999 V2000
    3.2474    5.2504    0.0000 C   0  0  0  0  0  0  0  0  0  0  0  0
    4.5468    3.0006    0.0000 C   0  0  0  0  0  0  0  0  0  0  0  0
   -1.9500    0.7500    0.0000 C   0  0  0  0  0  0  0  0  0  0  0  0
   -1.9500   -0.7500    0.0000 C   0  0  0  0  0  0  0  0  0  0  0  0
   -0.6500    1.5000    0.0000 C   0  0  0  0  0  0  0  0  0  0  0  0
   -0.6500   -1.5000    0.0000 C   0  0  0  0  0  0  0  0  0  0  0  0
    3.2476    3.7504    0.0000 C   0  0  0  0  0  0  0  0  0  0  0  0
    0.6500    0.7500    0.0000 C   0  0  0  0  0  0  0  0  0  0  0  0
    0.6500   -0.7500    0.0000 C   0  0  0  0  0  0  0  0  0  0  0  0
    1.9489    1.5002    0.0000 C   0  0  0  0  0  0  0  0  0  0  0  0
    1.9489   -1.5002    0.0000 O   0  0  0  0  0  0  0  0  0  0  0  0
    3.2481    0.7504    0.0000 O   0  0  0  0  0  0  0  0  0  0  0  0
    1.9487    3.0002    0.0000 O   0  0  0  0  0  0  0  0  0  0  0  0
  4  3  2  0
  5  3  1  0
  6  4  1  0
  7  1  1  0
  7  2  1  0
  8  5  2  0
  9  6  2  0
  9  8  1  0
 10  8  1  0
 11  9  1  0
 12 10  2  0
 13  7  1  0
 13 10  1  0
M  END
>  <NAME>  (2097) 
ISOPROPYL SALICYLATE

>  <SYNONYMS>  (2097) 


>  <SPECTRUM TYPE>  (2097) 
MS1

>  <INSTRUMENT TYPE>  (2097) 
EI-B

>  <INSTRUMENT>  (2097) 
HITACHI M-80B

>  <ION MODE>  (2097) 
P

>  <INCHIKEY>  (2097) 
YEULQIJMIOWCHB-UHFFFAOYSA-N

>  <FORMULA>  (2097) 
C10H12O3

>  <EXACT MASS>  (2097) 
180.07864424399997

>  <MW>  (2097) 
180

>  <ID>  (2097) 
JP008986

>  <CONTRIBUTOR>  (2097) 
University of Tokyo Team, {Faculty of Engineering, University of Tokyo

>  <COMMENT>  (2097) 
SMILES=CC(C)OC(=O)c(c1)c(O)ccc1
cas=607-85-2
InChI=InChI=1S/C10H12O3/c1-7(2)13-10(12)8-5-3-4-6-9(8)11/h3-7,11H,1-2H3
computed SMILES=O=C(OC(C)C)C=1C=CC=CC1O
accession=JP008986
date=2016.01.19 (Created 2008.10.21, modified 2011.05.06)
author=SODA AROMATIC CO., LTD.
license=CC BY-NC-SA
exact mass=180.07864
ionization energy=70 eV
ion type=[M]+*
computed spectral entropy=2.3174691249006663
computed normalized entropy=0.7497370741002966
SPLASH=splash10-00di-5900000000-a9be86146f9d22494aae
submitter=submitter = University of Tokyo Team (Faculty of Engineering, University of Tokyo)
MoNA Rating=3.75

>  <NUM PEAKS>  (2097) 
22

>  <MASS SPECTRAL PEAKS>  (2097) 
27 6.4
29 1.37
38 2.18
39 16.17
41 7.97
43 8.25
53 2.37
62 1.06
63 5.78
64 7.05
65 14.03
66 1.15
81 1.26
92 28.11
93 6.64
120 99.99
121 28.27
122 2.08
138 28.42
139 1.64
180 14.1
181 1.25

>  <PREDICTED SPECTRUM>  (2097) 
15 16
26 10
27 134
29 9
31 15
38 53
39 252
40 76
41 313
42 222
43 363
44 53
45 166
50 52
51 126
52 99
53 127
54 57
59 23
63 158
64 158
65 358
66 157
67 43
75 2
76 45
77 149
90 36
91 151
92 385
93 310
94 194
95 72
103 2
104 75
119 37
120 999
121 569
122 225
123 128
137 130
138 491
139 66
180 437
181 121

$$$$

     RDKit          2D

 13 13  0  0  0  0  0  0  0  0999 V2000
   -3.5739    3.1880    0.0000 C   0  0  0  0  0  0  0  0  0  0  0  0
   -2.2747    2.4382    0.0000 C   0  0  0  0  0  0  0  0  0  0  0  0
    4.2214    0.1873    0.0000 C   0  0  0  0  0  0  0  0  0  0  0  0
    5.5205    0.9373    0.0000 C   0  0  0  0  0  0  0  0  0  0  0  0
    2.9219    0.9382    0.0000 C   0  0  0  0  0  0  0  0  0  0  0  0
    5.5200    2.4382    0.0000 C   0  0  0  0  0  0  0  0  0  0  0  0
   -0.9758    3.1884    0.0000 C   0  0  0  0  0  0  0  0  0  0  0  0
    2.9214    2.4390    0.0000 C   0  0  0  0  0  0  0  0  0  0  0  0
    4.2205    3.1890    0.0000 C   0  0  0  0  0  0  0  0  0  0  0  0
    1.6223    3.1888    0.0000 C   0  0  0  0  0  0  0  0  0  0  0  0
    4.2207    4.6890    0.0000 O   0  0  0  0  0  0  0  0  0  0  0  0
    1.6220    4.6888    0.0000 O   0  0  0  0  0  0  0  0  0  0  0  0
    0.3233    2.4386    0.0000 O   0  0  0  0  0  0  0  0  0  0  0  0
  2  1  1  0
  4  3  2  0
  5  3  1  0
  6  4  1  0
  7  2  1  0
  8  5  2  0
  9  6  2  0
  9  8  1  0
 10  8  1  0
 11  9  1  0
 12 10  2  0
 13  7  1  0
 13 10  1  0
M  END
>  <NAME>  (2098) 
PROPYL SALICYLATE

>  <SYNONYMS>  (2098) 


>  <SPECTRUM TYPE>  (2098) 
MS1

>  <INSTRUMENT TYPE>  (2098) 
EI-B

>  <INSTRUMENT>  (2098) 
HITACHI M-80B

>  <ION MODE>  (2098) 
P

>  <INCHIKEY>  (2098) 
LZFIOSVZIQOVFW-UHFFFAOYSA-N

>  <FORMULA>  (2098) 
C10H12O3

>  <EXACT MASS>  (2098) 
180.078644244

>  <MW>  (2098) 
180

>  <ID>  (2098) 
JP008985

>  <CONTRIBUTOR>  (2098) 
University of Tokyo Team, {Faculty of Engineering, University of Tokyo

>  <COMMENT>  (2098) 
SMILES=CCCOC(=O)c(c1)c(O)ccc1
InChI=InChI=1S/C10H12O3/c1-2-7-13-10(12)8-5-3-4-6-9(8)11/h3-6,11H,2,7H2,1H3
computed SMILES=O=C(OCCC)C=1C=CC=CC1O
accession=JP008985
date=2016.01.19 (Created 2008.10.21, modified 2011.05.06)
author=SODA AROMATIC CO., LTD.
license=CC BY-NC-SA
exact mass=180.07864
ionization energy=70 eV
ion type=[M]+*
computed spectral entropy=2.3141980864071225
computed normalized entropy=0.748678842599791
SPLASH=splash10-00di-6900000000-43c71bc96fc885196550
submitter=submitter = University of Tokyo Team (Faculty of Engineering, University of Tokyo)
MoNA Rating=3.75

>  <NUM PEAKS>  (2098) 
22

>  <MASS SPECTRAL PEAKS>  (2098) 
27 9.26
29 1.87
38 2.08
39 15.21
41 7.42
42 1.03
43 6.13
53 2.88
62 1.17
63 4.53
64 6.5
65 15.4
66 1.19
81 1.14
92 26.97
93 6.93
120 99.99
121 26.17
122 1.95
138 14.75
180 19.07
181 1.94

>  <PREDICTED SPECTRUM>  (2098) 
14 12
15 44
16 21
17 26
18 35
26 36
27 186
28 36
29 135
31 94
36 6
37 32
38 104
39 292
40 89
41 336
42 206
43 352
44 65
45 161
49 4
50 89
51 96
52 76
53 131
54 50
60 7
61 31
62 46
63 228
64 232
65 384
66 132
67 50
68 17
74 4
75 28
76 83
77 86
90 20
91 129
92 440
93 326
94 160
95 52
103 4
119 46
120 999
121 524
122 191
123 85
137 47
138 548
139 44
162 62
180 366
181 92

$$$$

     RDKit          2D

 12 12  0  0  0  0  0  0  0  0999 V2000
   -3.5732    2.4377    0.0000 C   0  0  0  0  0  0  0  0  0  0  0  0
   -2.2743    3.1879    0.0000 C   0  0  0  0  0  0  0  0  0  0  0  0
    2.9229    0.1868    0.0000 C   0  0  0  0  0  0  0  0  0  0  0  0
    4.2220    0.9368    0.0000 C   0  0  0  0  0  0  0  0  0  0  0  0
    1.6234    0.9377    0.0000 C   0  0  0  0  0  0  0  0  0  0  0  0
    4.2215    2.4377    0.0000 C   0  0  0  0  0  0  0  0  0  0  0  0
    1.6229    2.4385    0.0000 C   0  0  0  0  0  0  0  0  0  0  0  0
    2.9220    3.1885    0.0000 C   0  0  0  0  0  0  0  0  0  0  0  0
    0.3238    3.1883    0.0000 C   0  0  0  0  0  0  0  0  0  0  0  0
    2.9222    4.6885    0.0000 O   0  0  0  0  0  0  0  0  0  0  0  0
    0.3235    4.6883    0.0000 O   0  0  0  0  0  0  0  0  0  0  0  0
   -0.9752    2.4381    0.0000 O   0  0  0  0  0  0  0  0  0  0  0  0
  2  1  1  0
  4  3  2  0
  5  3  1  0
  6  4  1  0
  7  5  2  0
  8  6  2  0
  8  7  1  0
  9  7  1  0
 10  8  1  0
 11  9  2  0
 12  2  1  0
 12  9  1  0
M  END
>  <NAME>  (2099) 
ETHYL SALICYLATE

>  <SYNONYMS>  (2099) 


>  <SPECTRUM TYPE>  (2099) 
MS1

>  <INSTRUMENT TYPE>  (2099) 
EI-B

>  <INSTRUMENT>  (2099) 
HITACHI M-80B

>  <ION MODE>  (2099) 
P

>  <INCHIKEY>  (2099) 
GYCKQBWUSACYIF-UHFFFAOYSA-N

>  <FORMULA>  (2099) 
C9H10O3

>  <EXACT MASS>  (2099) 
166.06299417999998

>  <MW>  (2099) 
166

>  <ID>  (2099) 
JP008984

>  <CONTRIBUTOR>  (2099) 
University of Tokyo Team, {Faculty of Engineering, University of Tokyo

>  <COMMENT>  (2099) 
SMILES=CCOC(=O)c(c1)c(O)ccc1
cas=118-61-6
InChI=InChI=1S/C9H10O3/c1-2-12-9(11)7-5-3-4-6-8(7)10/h3-6,10H,2H2,1H3
computed SMILES=O=C(OCC)C=1C=CC=CC1O
accession=JP008984
date=2016.01.19 (Created 2008.10.21, modified 2011.05.06)
author=SODA AROMATIC CO., LTD.
license=CC BY-NC-SA
exact mass=166.06299
ionization energy=70 eV
ion type=[M]+*
computed spectral entropy=2.1681854257495576
computed normalized entropy=0.7237580757433066
SPLASH=splash10-00di-6900000000-8e32263351a87a3cac48
submitter=submitter = University of Tokyo Team (Faculty of Engineering, University of Tokyo)
MoNA Rating=3.75

>  <NUM PEAKS>  (2099) 
20

>  <MASS SPECTRAL PEAKS>  (2099) 
37 1.07
38 2.66
39 17.73
50 1.43
51 1
53 3.58
62 2.11
63 9.84
64 10.14
65 17.4
66 1.64
81 2.04
92 42.83
93 8.89
120 99.99
121 28.19
122 2.24
138 1.05
166 31.11
167 2.62

>  <PREDICTED SPECTRUM>  (2099) 
14 51
15 97
16 18
17 20
18 41
19 4
25 18
26 124
27 291
28 146
29 422
31 39
32 4
36 74
37 142
38 217
39 374
40 137
41 183
42 91
43 99
44 42
45 164
49 75
50 101
51 130
52 171
53 315
54 91
55 34
61 13
62 98
63 327
64 364
65 613
66 233
67 79
69 36
74 51
75 126
76 45
80 31
81 0
84 0
92 705
93 466
94 176
95 31
120 999
121 883
122 256
123 89
137 20
138 259
139 68
166 549
167 183
168 1

$$$$

     RDKit          2D

 11 11  0  0  0  0  0  0  0  0999 V2000
    3.2476    3.7504    0.0000 C   0  0  0  0  0  0  0  0  0  0  0  0
   -1.9500    0.7500    0.0000 C   0  0  0  0  0  0  0  0  0  0  0  0
   -1.9500   -0.7500    0.0000 C   0  0  0  0  0  0  0  0  0  0  0  0
   -0.6500    1.5000    0.0000 C   0  0  0  0  0  0  0  0  0  0  0  0
   -0.6500   -1.5000    0.0000 C   0  0  0  0  0  0  0  0  0  0  0  0
    0.6500    0.7500    0.0000 C   0  0  0  0  0  0  0  0  0  0  0  0
    0.6500   -0.7500    0.0000 C   0  0  0  0  0  0  0  0  0  0  0  0
    1.9489    1.5002    0.0000 C   0  0  0  0  0  0  0  0  0  0  0  0
    1.9489   -1.5002    0.0000 O   0  0  0  0  0  0  0  0  0  0  0  0
    3.2481    0.7504    0.0000 O   0  0  0  0  0  0  0  0  0  0  0  0
    1.9487    3.0002    0.0000 O   0  0  0  0  0  0  0  0  0  0  0  0
  3  2  2  0
  4  2  1  0
  5  3  1  0
  6  4  2  0
  7  5  2  0
  7  6  1  0
  8  6  1  0
  9  7  1  0
 10  8  2  0
 11  1  1  0
 11  8  1  0
M  END
>  <NAME>  (2100) 
METHYL SALICY LATE

>  <SYNONYMS>  (2100) 


>  <SPECTRUM TYPE>  (2100) 
MS1

>  <INSTRUMENT TYPE>  (2100) 
EI-B

>  <INSTRUMENT>  (2100) 
HITACHI M-80B

>  <ION MODE>  (2100) 
P

>  <INCHIKEY>  (2100) 
OSWPMRLSEDHDFF-UHFFFAOYSA-N

>  <FORMULA>  (2100) 
C8H8O3

>  <EXACT MASS>  (2100) 
152.04734411599998

>  <MW>  (2100) 
152

>  <ID>  (2100) 
JP008983

>  <CONTRIBUTOR>  (2100) 
University of Tokyo Team, {Faculty of Engineering, University of Tokyo

>  <COMMENT>  (2100) 
SMILES=COC(=O)c(c1)c(O)ccc1
cas=119-36-8
InChI=InChI=1S/C8H8O3/c1-11-8(10)6-4-2-3-5-7(6)9/h2-5,9H,1H3
computed SMILES=O=C(OC)C=1C=CC=CC1O
accession=JP008983
date=2016.01.19 (Created 2008.10.21, modified 2011.05.06)
author=SODA AROMATIC CO., LTD.
license=CC BY-NC-SA
exact mass=152.04734
ionization energy=70 eV
ion type=[M]+*
computed spectral entropy=2.491246043277462
computed normalized entropy=0.7476269945827769
SPLASH=splash10-00dl-9700000000-8449a003796d4c61d429
submitter=submitter = University of Tokyo Team (Faculty of Engineering, University of Tokyo)
MoNA Rating=3.75

>  <NUM PEAKS>  (2100) 
28

>  <MASS SPECTRAL PEAKS>  (2100) 
15 6.01
27 1.98
29 4.06
30 1
31 1.58
37 2.29
38 7.14
39 25.07
50 2.94
51 1.94
53 8.83
61 1.62
62 4.2
63 15.77
64 15.64
65 25.24
66 2.37
74 1.33
76 1.38
77 1.07
81 1.57
92 64.72
93 13.69
120 99.99
121 30.11
122 1.79
152 44.49
153 3.16

>  <PREDICTED SPECTRUM>  (2100) 
14 31
15 125
16 24
25 8
26 81
27 157
28 84
29 168
31 85
32 22
33 2
36 44
37 162
38 292
39 485
40 171
41 172
42 93
44 58
45 114
49 94
50 268
51 325
52 158
53 271
54 29
55 15
59 29
61 99
62 143
63 490
64 483
65 455
66 225
67 43
74 46
75 117
76 9
77 107
91 73
92 794
93 526
94 175
95 16
119 315
120 999
121 779
122 261
123 100
151 32
152 782
153 264
154 55

$$$$

     RDKit          2D

 17 18  0  0  0  0  0  0  0  0999 V2000
    4.5476    2.1949    0.0000 C   0  0  0  0  0  0  0  0  0  0  0  0
   -7.1444    5.9470    0.0000 C   0  0  0  0  0  0  0  0  0  0  0  0
    4.5481    3.6958    0.0000 C   0  0  0  0  0  0  0  0  0  0  0  0
    3.2481    1.4441    0.0000 C   0  0  0  0  0  0  0  0  0  0  0  0
   -5.8453    6.6968    0.0000 C   0  0  0  0  0  0  0  0  0  0  0  0
   -7.1442    4.4462    0.0000 C   0  0  0  0  0  0  0  0  0  0  0  0
    3.2491    4.4458    0.0000 C   0  0  0  0  0  0  0  0  0  0  0  0
    1.9491    2.1941    0.0000 C   0  0  0  0  0  0  0  0  0  0  0  0
   -4.5459    5.9458    0.0000 C   0  0  0  0  0  0  0  0  0  0  0  0
   -5.8448    3.6952    0.0000 C   0  0  0  0  0  0  0  0  0  0  0  0
    0.6505    4.4449    0.0000 C   0  0  0  0  0  0  0  0  0  0  0  0
   -0.6485    3.6949    0.0000 C   0  0  0  0  0  0  0  0  0  0  0  0
    1.9495    3.6949    0.0000 C   0  0  0  0  0  0  0  0  0  0  0  0
   -4.5456    4.4449    0.0000 C   0  0  0  0  0  0  0  0  0  0  0  0
   -1.9476    4.4449    0.0000 C   0  0  0  0  0  0  0  0  0  0  0  0
   -1.9476    5.9449    0.0000 O   0  0  0  0  0  0  0  0  0  0  0  0
   -3.2466    3.6949    0.0000 O   0  0  0  0  0  0  0  0  0  0  0  0
  3  1  2  0
  4  1  1  0
  5  2  1  0
  6  2  1  0
  7  3  1  0
  8  4  2  0
  9  5  1  0
 10  6  1  0
 11 12  2  0
 13  7  2  0
 13  8  1  0
 13 11  1  0
 14  9  1  0
 14 10  1  0
 15 12  1  0
 16 15  2  0
 17 14  1  0
 17 15  1  0
M  END
>  <NAME>  (2101) 
CYCLOHEXYL CINNAMATE

>  <SYNONYMS>  (2101) 


>  <SPECTRUM TYPE>  (2101) 
MS1

>  <INSTRUMENT TYPE>  (2101) 
EI-B

>  <INSTRUMENT>  (2101) 
HITACHI M-80B

>  <ION MODE>  (2101) 
P

>  <INCHIKEY>  (2101) 
GCFAUZGWPDYAJN-VAWYXSNFSA-N

>  <FORMULA>  (2101) 
C15H18O2

>  <EXACT MASS>  (2101) 
230.130679816

>  <MW>  (2101) 
230

>  <ID>  (2101) 
JP008982

>  <CONTRIBUTOR>  (2101) 
University of Tokyo Team, {Faculty of Engineering, University of Tokyo

>  <COMMENT>  (2101) 
SMILES=O=C(C=Cc(c2)cccc2)OC(C1)CCCC1
InChI=InChI=1S/C15H18O2/c16-15(17-14-9-5-2-6-10-14)12-11-13-7-3-1-4-8-13/h1,3-4,7-8,11-12,14H,2,5-6,9-10H2/b12-11+
computed SMILES=O=C(OC1CCCCC1)C=CC=2C=CC=CC2
accession=JP008982
date=2016.01.19 (Created 2008.10.21, modified 2011.05.06)
author=SODA AROMATIC CO., LTD.
license=CC BY-NC-SA
exact mass=230.13068
ionization energy=70 eV
ion type=[M]+*
computed spectral entropy=2.9450331821280535
computed normalized entropy=0.7879329857625683
SPLASH=splash10-000t-5900000000-787411443511e76756e9
submitter=submitter = University of Tokyo Team (Faculty of Engineering, University of Tokyo)
MoNA Rating=3.75

>  <NUM PEAKS>  (2101) 
42

>  <MASS SPECTRAL PEAKS>  (2101) 
27 10.11
29 2.88
39 12.01
41 27.08
42 2.51
43 2.25
50 3.24
51 13.46
52 2.05
55 24.02
56 1.27
63 2.24
65 1.17
67 21.27
68 1.07
74 1.26
75 1.83
76 3.22
77 34.01
78 2.8
79 1.64
81 4.6
82 13.36
83 3.06
91 3.08
99 2.42
101 1.2
102 10.8
103 45.47
104 14.2
105 1.02
120 1.8
130 1.38
131 99.99
132 10.98
139 1.04
146 1.12
147 28.52
148 40.63
149 54.9
150 4.98
230 3.06

>  <PREDICTED SPECTRUM>  (2101) 
25 29
26 182
27 456
28 68
29 445
30 9
31 23
36 14
37 80
38 152
39 585
40 247
41 804
42 293
43 422
44 164
45 92
47 67
49 59
50 379
51 535
52 274
53 375
54 522
55 997
56 154
57 237
58 129
59 32
61 17
62 176
63 284
64 119
65 331
66 186
67 826
68 69
69 213
70 46
71 180
74 161
75 288
76 274
77 601
78 229
79 237
80 10
81 418
82 937
83 999
84 79
89 159
90 141
91 207
92 139
99 456
100 35
101 180
102 483
103 463
104 275
105 97
113 5
115 128
116 113
117 781
118 211
130 442
131 908
132 563
133 225
134 10
147 195
148 603
149 703
150 80
216 224
230 233
231 115

$$$$

     RDKit          2D

  6  5  0  0  0  0  0  0  0  0999 V2000
    0.0000    1.5000    0.0000 C   0  0  0  0  0  0  0  0  0  0  0  0
    0.0000    0.0000    0.0000 H   0  0  0  0  0  0  0  0  0  0  0  0
    1.2990    2.2500    0.0000 H   0  0  0  0  0  0  0  0  0  0  0  0
   -2.5981    4.5000    0.0000 C   0  0  0  0  0  0  0  0  0  0  0  0
   -1.2990    2.2500    0.0000 C   0  0  0  0  0  0  0  0  0  0  0  0
   -1.2990    3.7500    0.0000 C   0  0  0  0  0  0  0  0  0  0  0  0
  1  2  1  0
  1  3  1  0
  5  1  1  0
  6  4  1  0
  6  5  1  0
M  ISO  2   2   2   3   2
M  END
>  <NAME>  (2102) 
BUTANE (1-D1)

>  <SYNONYMS>  (2102) 


>  <SPECTRUM TYPE>  (2102) 
MS1

>  <INSTRUMENT TYPE>  (2102) 
EI-B

>  <INSTRUMENT>  (2102) 
HITACHI RMU-6M

>  <ION MODE>  (2102) 
P

>  <INCHIKEY>  (2102) 
IJDNQMDRQITEOD-DICFDUPASA-N

>  <FORMULA>  (2102) 
C4H10

>  <EXACT MASS>  (2102) 
60.090803812

>  <MW>  (2102) 
60

>  <ID>  (2102) 
JP008981

>  <CONTRIBUTOR>  (2102) 
University of Tokyo Team, {Faculty of Engineering, University of Tokyo

>  <COMMENT>  (2102) 
SMILES=CCCC([2H])([H])[2H]
InChI=InChI=1S/C4H10/c1-3-4-2/h3-4H2,1-2H3/i1D2
computed SMILES=[H]C([H])CCC
accession=JP008981
date=2016.01.19 (Created 2008.10.21, modified 2011.05.06)
author=YAMAMOTO M, DEP. CHEMISTRY, FAC. SCIENCE, NARA WOMEN'S UNIV.
license=CC BY-NC-SA
exact mass=58.07825
ionization energy=70 eV
ion type=[M]+*
computed spectral entropy=2.2433742548459716
computed normalized entropy=0.7619021045160401
SPLASH=splash10-0006-9000000000-5d0a15a022bf60e47d87
submitter=submitter = University of Tokyo Team (Faculty of Engineering, University of Tokyo)
MoNA Rating=3.75

>  <NUM PEAKS>  (2102) 
19

>  <MASS SPECTRAL PEAKS>  (2102) 
26 4.1
27 26.5
28 31
29 4.14
30 20.3
38 1.6
39 10.4
40 0.7
41 19.1
42 26.2
43 23
44 99.99
45 3.2
50 1.3
51 1.4
52 0.1
56 4
58 3.4
59 18.6

>  <PREDICTED SPECTRUM>  (2102) 
14 53
15 76
16 19
19 13
25 19
26 156
27 606
28 309
29 543
30 194
31 329
32 108
33 29
37 13
38 74
39 509
40 207
41 890
42 566
43 999
44 117
45 299
46 23
51 78
53 148
54 47
55 570
56 387
57 570
58 45
59 78
60 296
61 56

$$$$

     RDKit          2D

 17 17  0  0  0  0  0  0  0  0999 V2000
   -1.6700    0.5394    0.0000 C   0  0  0  0  0  0  0  0  0  0  0  0
    4.4901    1.6894    0.0000 C   0  0  0  0  0  0  0  0  0  0  0  0
   -0.3708   -0.2104    0.0000 C   0  0  0  0  0  0  0  0  0  0  0  0
    8.7242    2.0406    0.0000 C   0  0  0  0  0  0  0  0  0  0  0  0
    7.4242    2.7906    0.0000 C   0  0  0  0  0  0  0  0  0  0  0  0
    8.7242    0.5406    0.0000 C   0  0  0  0  0  0  0  0  0  0  0  0
    6.1242    2.0406    0.0000 C   0  0  0  0  0  0  0  0  0  0  0  0
    7.4242   -0.2094    0.0000 C   0  0  0  0  0  0  0  0  0  0  0  0
    2.5618    1.6891    0.0000 C   0  0  0  0  0  0  0  0  0  0  0  0
    1.0846    1.4284    0.0000 C   0  0  0  0  0  0  0  0  0  0  0  0
    6.1242    0.5406    0.0000 C   0  0  0  0  0  0  0  0  0  0  0  0
    2.2272   -0.2100    0.0000 C   0  0  0  0  0  0  0  0  0  0  0  0
    3.5262    0.5402    0.0000 C   0  0  0  0  0  0  0  0  0  0  0  0
    0.1203    2.5773    0.0000 Br  0  0  0  0  0  0  0  0  0  0  0  0
    2.2275   -1.7100    0.0000 O   0  0  0  0  0  0  0  0  0  0  0  0
    0.9281    0.5398    0.0000 O   0  0  0  0  0  0  0  0  0  0  0  0
    4.8253   -0.2096    0.0000 S   0  0  0  0  0  0  0  0  0  0  0  0
  3  1  1  0
  5  4  2  0
  6  4  1  0
  7  5  1  0
  8  6  2  0
 10  9  1  0
 11  7  2  0
 11  8  1  0
 13  2  1  0
 13  9  1  0
 13 12  1  0
 14 10  1  0
 15 12  2  0
 16  3  1  0
 16 12  1  0
 17 11  1  0
 17 13  1  0
M  END
>  <NAME>  (2103) 
ETHYL 4-BROMO-2-METHYL-2-PHENYLTHIOBUTYRATE

>  <SYNONYMS>  (2103) 


>  <SPECTRUM TYPE>  (2103) 
MS1

>  <INSTRUMENT TYPE>  (2103) 
EI-B

>  <INSTRUMENT>  (2103) 
JEOL JMS-DX-300

>  <ION MODE>  (2103) 
P

>  <INCHIKEY>  (2103) 
ZFYZGJXPPJKWJM-UHFFFAOYSA-N

>  <FORMULA>  (2103) 
C13H17BrO2S

>  <EXACT MASS>  (2103) 
316.013262884

>  <MW>  (2103) 
316

>  <ID>  (2103) 
JP008979

>  <CONTRIBUTOR>  (2103) 
University of Tokyo Team, {Faculty of Engineering, University of Tokyo

>  <COMMENT>  (2103) 
SMILES=CCOC(=O)C(C)(CCBr)Sc(c1)cccc1
InChI=InChI=1S/C13H17BrO2S/c1-3-16-12(15)13(2,9-10-14)17-11-7-5-4-6-8-11/h4-8H,3,9-10H2,1-2H3
computed SMILES=O=C(OCC)C(SC=1C=CC=CC1)(C)CCBr
accession=JP008979
date=2016.01.19 (Created 2008.10.21, modified 2011.05.06)
author=YAMAMOTO M, DEP. CHEMISTRY, FAC. SCIENCE, NARA WOMEN'S UNIV.
license=CC BY-NC-SA
exact mass=316.01326
ionization energy=70 eV
ion type=[M]+*
computed spectral entropy=3.495132064724341
computed normalized entropy=0.8607760423299221
SPLASH=splash10-08fv-9751000000-cb9de0b1b4f3317354e1
submitter=submitter = University of Tokyo Team (Faculty of Engineering, University of Tokyo)
MoNA Rating=3.75

>  <NUM PEAKS>  (2103) 
58

>  <MASS SPECTRAL PEAKS>  (2103) 
31 7.63
36 2.61
39 20.66
40 3.66
41 18.43
43 10.46
44 4.5
50 2.86
51 7.93
53 14.46
54 2.72
55 34.32
56 2.34
57 3.02
59 13.9
65 17.34
66 10.39
69 14.34
71 4.6
73 2.05
77 5.85
79 2.03
80 10.73
81 5.01
82 9.76
83 2.32
84 3.19
87 2.64
91 3.13
98 4.81
99 13.12
105 2.69
108 8.83
109 28.7
110 99.99
111 10.27
112 5.07
130 7.11
131 9.24
133 2.21
135 14.75
136 2.77
137 3.23
138 2.26
149 4.73
163 8.49
179 3.52
208 25.52
209 10.03
243 56.98
244 6.86
245 60.79
246 7.7
247 3.1
316 15.68
317 3.73
318 16.38
319 2.95

>  <PREDICTED SPECTRUM>  (2103) 
26 3
27 96
29 142
36 18
37 30
38 97
39 340
40 122
41 302
42 141
43 198
44 80
45 175
47 57
49 20
50 73
51 171
52 66
53 158
54 59
55 264
56 58
57 75
58 37
59 195
60 11
61 52
62 29
63 125
64 63
65 316
66 227
67 62
68 21
69 293
70 49
71 172
72 9
73 80
74 42
75 18
76 24
77 278
78 67
79 160
80 141
81 176
82 209
83 148
84 69
85 60
86 60
89 25
91 144
92 95
93 84
94 10
95 20
96 55
97 170
98 129
99 128
100 57
103 3
105 70
106 26
107 67
108 121
109 508
110 999
111 412
112 173
113 5
115 6
127 8
129 149
130 125
131 63
133 119
134 67
135 226
136 110
137 84
143 2
145 68
147 94
149 26
150 86
151 69
162 57
163 165
164 139
165 136
166 0
167 65
173 9
177 65
179 132
180 9
181 67
191 37
206 30
207 212
208 252
209 305
210 89
241 38
243 780
244 273
245 771
246 235
247 215
316 393
317 143
318 339
319 134
320 67

$$$$

     RDKit          2D

 10 10  0  0  0  0  0  0  0  0999 V2000
   -2.5989   -1.5002    0.0000 C   0  0  0  0  0  0  0  0  0  0  0  0
   -1.3000    0.7500    0.0000 C   0  0  0  0  0  0  0  0  0  0  0  0
   -0.0000   -1.5000    0.0000 C   0  0  0  0  0  0  0  0  0  0  0  0
    0.0000    1.5000    0.0000 C   0  0  0  0  0  0  0  0  0  0  0  0
    1.3000   -0.7500    0.0000 C   0  0  0  0  0  0  0  0  0  0  0  0
   -1.3000   -0.7500    0.0000 C   0  0  0  0  0  0  0  0  0  0  0  0
    1.3000    0.7500    0.0000 C   0  0  0  0  0  0  0  0  0  0  0  0
    2.5989    1.5002    0.0000 C   0  0  0  0  0  0  0  0  0  0  0  0
    3.8981    0.7504    0.0000 O   0  0  0  0  0  0  0  0  0  0  0  0
    2.5987    3.0002    0.0000 O   0  0  0  0  0  0  0  0  0  0  0  0
  4  2  2  0
  5  3  1  0
  6  1  1  0
  6  2  1  0
  6  3  2  0
  7  4  1  0
  7  5  2  0
  8  7  1  0
  9  8  1  0
 10  8  2  0
M  END
>  <NAME>  (2104) 
4-TOLUIC ACID

>  <SYNONYMS>  (2104) 


>  <SPECTRUM TYPE>  (2104) 
MS1

>  <INSTRUMENT TYPE>  (2104) 
EI-B

>  <INSTRUMENT>  (2104) 
HITACHI M-80

>  <ION MODE>  (2104) 
P

>  <INCHIKEY>  (2104) 
LPNBBFKOUUSUDB-UHFFFAOYSA-N

>  <FORMULA>  (2104) 
C8H8O2

>  <EXACT MASS>  (2104) 
136.052429496

>  <MW>  (2104) 
136

>  <ID>  (2104) 
JP008978

>  <CONTRIBUTOR>  (2104) 
University of Tokyo Team, {Faculty of Engineering, University of Tokyo

>  <COMMENT>  (2104) 
SMILES=Cc(c1)ccc(c1)C(O)=O
cas=99-94-5
InChI=InChI=1S/C8H8O2/c1-6-2-4-7(5-3-6)8(9)10/h2-5H,1H3,(H,9,10)
computed SMILES=O=C(O)C1=CC=C(C=C1)C
accession=JP008978
date=2016.01.19 (Created 2008.10.21, modified 2011.05.06)
author=YAMAMOTO M, DEP. CHEMISTRY, FAC. SCIENCE, NARA WOMEN'S UNIV.
license=CC BY-NC-SA
exact mass=136.05243
ionization energy=70 eV
ion type=[M]+*
computed spectral entropy=3.1294790967458583
computed normalized entropy=0.7740389348122219
SPLASH=splash10-00ko-9400000000-c8a3887fcb4e16259702
submitter=submitter = University of Tokyo Team (Faculty of Engineering, University of Tokyo)
MoNA Rating=3.75

>  <NUM PEAKS>  (2104) 
57

>  <MASS SPECTRAL PEAKS>  (2104) 
18 1.5
26 1.3
27 6.4
28 17.4
29 1.1
32 4.3
37 2.6
38 5.9
39 28.4
40 3
41 5.8
43 3.5
44 1.9
45 7.2
45.5 3.9
49 1.3
50 9.9
51 13.6
52 3.3
53 3.6
54 1.1
55 1.1
59 6.3
59.5 1.1
61 3.1
62 7.6
63 17.7
64 4.5
65 33.1
66 2.6
73 0.8
74 2.6
75 2.1
76 1.5
77 6.9
78 1.4
79 2.2
85 1.1
86 1.9
87 1.6
89 10.2
90 8.9
91 99.99
92 22.8
93 1.9
105 2
106 0.8
107 5.3
108 1.4
118 2.7
119 62.8
120 8.2
121 1.6
135 2.8
136 67.8
137 8.6
138 0.8

>  <PREDICTED SPECTRUM>  (2104) 
14 19
15 56
16 16
17 55
18 59
25 9
26 53
27 122
28 54
29 90
36 33
37 109
38 179
39 435
40 124
41 234
43 184
44 100
45 262
46 10
49 23
50 240
51 394
52 144
53 225
55 27
57 18
58 28
60 59
61 149
62 222
63 386
64 166
65 607
66 130
67 72
69 53
74 90
75 91
77 334
78 155
79 268
81 64
86 70
87 23
89 333
90 245
91 990
92 337
93 119
105 27
106 2
107 202
108 7
118 82
119 634
120 140
121 352
122 2
133 4
134 66
135 484
136 999
137 257
138 42

$$$$

     RDKit          2D

  9  9  0  0  0  0  0  0  0  0999 V2000
    0.4278    4.4596    0.0000 C   0  0  0  0  0  0  0  0  0  0  0  0
   -2.6304    0.8291    0.0000 C   0  0  0  0  0  0  0  0  0  0  0  0
    0.4935    0.5858    0.0000 C   0  0  0  0  0  0  0  0  0  0  0  0
    0.7433    2.9932    0.0000 C   0  0  0  0  0  0  0  0  0  0  0  0
   -0.2565    1.8848    0.0000 C   0  0  0  0  0  0  0  0  0  0  0  0
    1.9533    0.8974    0.0000 C   0  0  0  0  0  0  0  0  0  0  0  0
   -1.7482    2.0423    0.0000 N   0  0  0  0  0  0  0  0  0  0  0  0
    3.0655   -0.1091    0.0000 O   0  0  0  0  0  0  0  0  0  0  0  0
    2.1190    2.3903    0.0000 O   0  0  0  0  0  0  0  0  0  0  0  0
  4  1  1  0
  5  3  2  0
  5  4  1  0
  6  3  1  0
  7  2  1  0
  7  5  1  0
  8  6  2  0
  9  4  1  0
  9  6  1  0
M  END
>  <NAME>  (2105) 
3-METHYLAMINO-2-METHYL-2-BUTEN-4-OLIDE

>  <SYNONYMS>  (2105) 


>  <SPECTRUM TYPE>  (2105) 
MS1

>  <INSTRUMENT TYPE>  (2105) 
EI-B

>  <INSTRUMENT>  (2105) 
JEOL JMS-HX-100

>  <ION MODE>  (2105) 
P

>  <INCHIKEY>  (2105) 
USTBRJZDDHHMQT-UHFFFAOYSA-N

>  <FORMULA>  (2105) 
C6H9NO2

>  <EXACT MASS>  (2105) 
127.063328528

>  <MW>  (2105) 
127

>  <ID>  (2105) 
JP008977

>  <CONTRIBUTOR>  (2105) 
University of Tokyo Team, {Faculty of Engineering, University of Tokyo

>  <COMMENT>  (2105) 
SMILES=CNC(=C1)C(C)OC(=O)1
InChI=InChI=1S/C6H9NO2/c1-4-5(7-2)3-6(8)9-4/h3-4,7H,1-2H3
computed SMILES=O=C1OC(C(=C1)NC)C
accession=JP008977
date=2016.01.19 (Created 2008.10.21, modified 2011.05.06)
author=YAMAMOTO M, DEP. CHEMISTRY, FAC. SCIENCE, NARA WOMEN'S UNIV.
license=CC BY-NC-SA
exact mass=127.06333
ionization energy=70 eV
ion type=[M]+*
computed spectral entropy=3.085387665540235
computed normalized entropy=0.7505430153013708
SPLASH=splash10-0059-9300000000-93b326ab0156a0d63656
submitter=submitter = University of Tokyo Team (Faculty of Engineering, University of Tokyo)
MoNA Rating=3.75

>  <NUM PEAKS>  (2105) 
61

>  <MASS SPECTRAL PEAKS>  (2105) 
35 0.16
37 1.6
38 2.94
39 11.13
40 4.55
41 13.3
42 21.11
43 2.64
44 3.14
45 0.22
46 0.12
48 0.25
49 0.4
50 2.83
51 4.12
52 10.57
53 8.16
54 35.3
55 15.23
56 5.44
58 2.51
59 0.2
60 0.16
63 0.21
64 0.45
65 0.73
66 4.05
67 5.58
68 16.2
69 24.19
70 14.43
71 0.92
72 14.66
73 0.73
74 0.04
78 0.15
79 0.1
80 3.66
81 16.87
82 52.38
83 6.06
84 2.15
86 0.45
87 0.17
98 27.76
99 3.18
100 0.27
107 0.04
108 1.66
109 6.7
110 2.38
112 2.02
113 0.05
115 0.05
124 0.49
125 0.66
126 22.87
127 99.99
128 10.42
129 0.94
130 0.13

>  <PREDICTED SPECTRUM>  (2105) 
14 1
15 8
17 10
18 19
25 10
26 57
27 138
28 110
29 128
30 17
34 16
36 20
37 68
38 154
39 363
40 228
41 477
42 542
43 236
44 199
45 100
46 1
49 33
50 140
51 130
52 265
53 351
54 437
55 430
56 279
57 166
58 177
59 40
63 24
64 39
65 15
66 218
67 159
68 318
69 464
70 403
71 247
72 202
73 73
74 28
80 272
81 416
82 875
83 322
84 187
85 96
86 172
95 30
96 148
97 89
98 449
99 258
100 90
108 2
109 112
110 176
111 3
112 213
113 27
125 22
126 482
127 999
128 295
129 95

$$$$

     RDKit          2D

 12 13  0  0  0  0  0  0  0  0999 V2000
   -4.8635    0.7201    0.0000 C   0  0  0  0  0  0  0  0  0  0  0  0
   -3.3718   -3.6232    0.0000 C   0  0  0  0  0  0  0  0  0  0  0  0
   -2.0718   -2.8732    0.0000 C   0  0  0  0  0  0  0  0  0  0  0  0
   -4.6718   -2.8732    0.0000 C   0  0  0  0  0  0  0  0  0  0  0  0
   -2.0718   -1.3732    0.0000 C   0  0  0  0  0  0  0  0  0  0  0  0
   -4.6718   -1.3732    0.0000 C   0  0  0  0  0  0  0  0  0  0  0  0
   -2.3846    3.0941    0.0000 C   0  0  0  0  0  0  0  0  0  0  0  0
   -1.2699    2.0904    0.0000 C   0  0  0  0  0  0  0  0  0  0  0  0
   -3.3718   -0.6232    0.0000 C   0  0  0  0  0  0  0  0  0  0  0  0
   -3.3718    0.8768    0.0000 C   0  0  0  0  0  0  0  0  0  0  0  0
   -3.6836    2.3441    0.0000 O   0  0  0  0  0  0  0  0  0  0  0  0
   -1.8800    0.7201    0.0000 O   0  0  0  0  0  0  0  0  0  0  0  0
  3  2  1  0
  4  2  1  0
  5  3  1  0
  6  4  1  0
  8  7  1  0
  9  5  2  0
  9  6  1  0
 10  1  1  0
 10  9  1  0
 11  7  1  0
 11 10  1  0
 12  8  1  0
 12 10  1  0
M  END
>  <NAME>  (2106) 
1-ACETYLCYCLOHEXENE ETHYLENEACETAL

>  <SYNONYMS>  (2106) 


>  <SPECTRUM TYPE>  (2106) 
MS1

>  <INSTRUMENT TYPE>  (2106) 
EI-B

>  <INSTRUMENT>  (2106) 
JEOL JMS-DX-300

>  <ION MODE>  (2106) 
P

>  <INCHIKEY>  (2106) 
SKSVOXIMUGXIMZ-UHFFFAOYSA-N

>  <FORMULA>  (2106) 
C10H16O2

>  <EXACT MASS>  (2106) 
168.115029752

>  <MW>  (2106) 
168

>  <ID>  (2106) 
JP008973

>  <CONTRIBUTOR>  (2106) 
University of Tokyo Team, {Faculty of Engineering, University of Tokyo

>  <COMMENT>  (2106) 
SMILES=[H]C(C2)=C(CCC2)C(C)(O1)OCC1
InChI=InChI=1S/C10H16O2/c1-10(11-7-8-12-10)9-5-3-2-4-6-9/h5H,2-4,6-8H2,1H3
computed SMILES=O1CCOC1(C2=CCCCC2)C
accession=JP008973
date=2016.01.19 (Created 2008.10.21, modified 2011.05.06)
author=YAMAMOTO M, DEP. CHEMISTRY, FAC. SCIENCE, NARA WOMEN'S UNIV.
license=CC BY-NC-SA
exact mass=168.11503
ionization energy=70 eV
ion type=[M]+*
computed spectral entropy=2.5361804353035415
computed normalized entropy=0.7317869873624063
SPLASH=splash10-000i-9200000000-f73cdc34e982cffb2844
submitter=submitter = University of Tokyo Team (Faculty of Engineering, University of Tokyo)
MoNA Rating=3.75

>  <NUM PEAKS>  (2106) 
32

>  <MASS SPECTRAL PEAKS>  (2106) 
39 10.78
41 11.22
42 3.08
43 8.55
44 2.18
45 3.32
50 1.34
51 3.99
52 2.7
53 9.47
54 1.48
55 3.39
65 3.05
66 1.82
67 3.51
73 2.42
77 6.45
78 1.72
79 9.16
80 0.19
81 16.48
82 1.29
86 2.78
87 99.99
88 4.96
91 2.72
93 1.78
95 3.04
109 8.16
125 1.99
153 40.39
154 4.1

>  <PREDICTED SPECTRUM>  (2106) 
14 4
26 44
27 167
28 62
29 144
31 5
37 13
38 51
39 271
40 110
41 305
42 152
43 657
44 52
45 80
50 48
51 118
52 101
53 230
54 70
55 261
56 19
59 2
63 36
64 20
65 141
66 74
67 233
68 27
69 12
77 164
78 66
79 312
80 76
81 306
82 64
87 999
88 190
91 85
93 132
95 157
96 22
97 50
109 246
110 21
111 3
112 4
123 53
124 5
125 90
153 682
154 238
168 81
169 6

$$$$

     RDKit          2D

 14 14  0  0  0  0  0  0  0  0999 V2000
   -1.9498    2.7991    0.0000 C   0  0  0  0  0  0  0  0  0  0  0  0
   -1.4013   -1.1526    0.0000 C   0  0  0  0  0  0  0  0  0  0  0  0
   -1.9500   -3.2017    0.0000 C   0  0  0  0  0  0  0  0  0  0  0  0
    0.0991   -3.7504    0.0000 C   0  0  0  0  0  0  0  0  0  0  0  0
    3.2478   -1.7013    0.0000 C   0  0  0  0  0  0  0  0  0  0  0  0
    3.2478   -0.2013    0.0000 C   0  0  0  0  0  0  0  0  0  0  0  0
    1.9478   -2.4513    0.0000 C   0  0  0  0  0  0  0  0  0  0  0  0
    1.9478    0.5487    0.0000 C   0  0  0  0  0  0  0  0  0  0  0  0
   -0.6508    2.0489    0.0000 C   0  0  0  0  0  0  0  0  0  0  0  0
    0.6478   -1.7013    0.0000 C   0  0  0  0  0  0  0  0  0  0  0  0
    0.6478   -0.2013    0.0000 C   0  0  0  0  0  0  0  0  0  0  0  0
   -0.6511   -2.4515    0.0000 C   0  0  0  0  0  0  0  0  0  0  0  0
    0.6483    2.7987    0.0000 O   0  0  0  0  0  0  0  0  0  0  0  0
   -0.6511    0.5489    0.0000 O   0  0  0  0  0  0  0  0  0  0  0  0
  6  5  1  0
  7  5  1  0
  8  6  1  0
  9  1  1  0
 10  7  1  0
 11  8  1  0
 11 10  1  0
 12  2  1  0
 12  3  1  0
 12  4  1  0
 12 10  1  0
 13  9  2  0
 14  9  1  0
 14 11  1  0
M  END
>  <NAME>  (2107) 
TERT-BUTYLCYCLOHEXYL ACETATE

>  <SYNONYMS>  (2107) 


>  <SPECTRUM TYPE>  (2107) 
MS1

>  <INSTRUMENT TYPE>  (2107) 
EI-B

>  <INSTRUMENT>  (2107) 
HITACHI RMU-6M

>  <ION MODE>  (2107) 
P

>  <INCHIKEY>  (2107) 
FINOAUDUYKVGDS-UHFFFAOYSA-N

>  <FORMULA>  (2107) 
C12H22O2

>  <EXACT MASS>  (2107) 
198.161979944

>  <MW>  (2107) 
198

>  <ID>  (2107) 
JP008962

>  <CONTRIBUTOR>  (2107) 
University of Tokyo Team, {Faculty of Engineering, University of Tokyo

>  <COMMENT>  (2107) 
SMILES=CC(=O)OC(C1)C(CCC1)C(C)(C)C
InChI=InChI=1S/C12H22O2/c1-9(13)14-11-8-6-5-7-10(11)12(2,3)4/h10-11H,5-8H2,1-4H3
computed SMILES=O=C(OC1CCCCC1C(C)(C)C)C
accession=JP008962
date=2016.01.19 (Created 2008.10.21, modified 2011.05.06)
author=YAMAMOTO M, DEP. CHEMISTRY, FAC. SCIENCE, NARA WOMEN'S UNIV.
license=CC BY-NC-SA
exact mass=198.16198
ionization energy=70 eV
ion type=[M]+*
computed spectral entropy=2.7784874816951985
computed normalized entropy=0.7139300555691328
SPLASH=splash10-053r-9000000000-5100216c41146d7384ed
submitter=submitter = University of Tokyo Team (Faculty of Engineering, University of Tokyo)
MoNA Rating=3.75

>  <NUM PEAKS>  (2107) 
49

>  <MASS SPECTRAL PEAKS>  (2107) 
15 4.3
27 7.8
29 16.2
39 0.8
40 1.6
41 32.9
42 2.6
43 5.65
44 1.5
53 4.4
54 9.2
55 1.27
56 7.7
57 99.99
58 4.9
59 0.12
61 14.1
65 1.3
66 1.3
67 4.05
68 3.3
69 7.1
70 1.6
71 0.14
77 1.9
79 3.4
80 15.3
81 1.76
82 80.3
83 12.3
84 1.3
85 0.13
91 1.3
93 1.1
95 5
96 0.17
97 1.4
98 1.3
99 2.7
109 0.16
110 1.2
117 8.7
123 15.5
124 0.17
138 6.2
139 1.4
141 2.1
142 0.2
143 1.4

>  <PREDICTED SPECTRUM>  (2107) 
15 45
26 28
27 210
28 115
29 311
30 87
31 58
39 240
40 82
41 548
42 148
43 591
44 89
45 58
50 1
51 28
52 29
53 155
54 253
55 380
56 380
57 999
58 192
59 72
60 39
61 420
65 113
66 86
67 515
68 249
69 156
70 146
71 105
73 56
77 58
79 174
80 391
81 687
82 801
83 375
93 21
95 198
96 177
97 41
98 6
99 95
100 54
101 38
117 86
123 501
124 99
125 32
138 376
139 11
141 124
142 93
143 81

$$$$

     RDKit          2D

 13 13  0  0  0  0  0  0  0  0999 V2000
   -3.8986    0.3754    0.0000 C   0  0  0  0  0  0  0  0  0  0  0  0
    2.5974    4.1258    0.0000 C   0  0  0  0  0  0  0  0  0  0  0  0
   -2.5994   -0.3744    0.0000 C   0  0  0  0  0  0  0  0  0  0  0  0
    1.2987   -2.6256    0.0000 C   0  0  0  0  0  0  0  0  0  0  0  0
    2.5977   -1.8756    0.0000 C   0  0  0  0  0  0  0  0  0  0  0  0
   -1.3005    0.3758    0.0000 C   0  0  0  0  0  0  0  0  0  0  0  0
   -0.0008   -1.8748    0.0000 C   0  0  0  0  0  0  0  0  0  0  0  0
    2.5972   -0.3748    0.0000 C   0  0  0  0  0  0  0  0  0  0  0  0
    2.5971    2.6258    0.0000 C   0  0  0  0  0  0  0  0  0  0  0  0
   -0.0013   -0.3740    0.0000 C   0  0  0  0  0  0  0  0  0  0  0  0
    1.2977    0.3760    0.0000 C   0  0  0  0  0  0  0  0  0  0  0  0
    3.8960    1.8756    0.0000 O   0  0  0  0  0  0  0  0  0  0  0  0
    1.2980    1.8760    0.0000 O   0  0  0  0  0  0  0  0  0  0  0  0
  3  1  1  0
  5  4  1  0
  6  3  1  0
  7  4  1  0
  8  5  1  0
  9  2  1  0
 10  6  1  0
 10  7  1  0
 11  8  1  0
 11 10  1  0
 12  9  2  0
 13  9  1  0
 13 11  1  0
M  END
>  <NAME>  (2108) 
2-PROPYLCYCLOHEXYL ACETATE

>  <SYNONYMS>  (2108) 


>  <SPECTRUM TYPE>  (2108) 
MS1

>  <INSTRUMENT TYPE>  (2108) 
EI-B

>  <INSTRUMENT>  (2108) 
HITACHI RMU-6M

>  <ION MODE>  (2108) 
P

>  <INCHIKEY>  (2108) 
AZQJVKFEQQZYBC-UHFFFAOYSA-N

>  <FORMULA>  (2108) 
C11H20O2

>  <EXACT MASS>  (2108) 
184.14632988

>  <MW>  (2108) 
184

>  <ID>  (2108) 
JP008961

>  <CONTRIBUTOR>  (2108) 
University of Tokyo Team, {Faculty of Engineering, University of Tokyo

>  <COMMENT>  (2108) 
SMILES=CCCC(C1)C(CCC1)OC(C)=O
InChI=InChI=1S/C11H20O2/c1-3-6-10-7-4-5-8-11(10)13-9(2)12/h10-11H,3-8H2,1-2H3
computed SMILES=O=C(OC1CCCCC1CCC)C
accession=JP008961
date=2016.01.19 (Created 2008.10.21, modified 2011.05.06)
author=YAMAMOTO M, DEP. CHEMISTRY, FAC. SCIENCE, NARA WOMEN'S UNIV.
license=CC BY-NC-SA
exact mass=184.14633
ionization energy=70 eV
ion type=[M]+*
computed spectral entropy=2.966042917353004
computed normalized entropy=0.7506605840091966
SPLASH=splash10-000x-9100000000-6486087f1e64e80a3577
submitter=submitter = University of Tokyo Team (Faculty of Engineering, University of Tokyo)
MoNA Rating=3.75

>  <NUM PEAKS>  (2108) 
52

>  <MASS SPECTRAL PEAKS>  (2108) 
15 6.2
27 13.4
29 14.2
31 0.14
39 11.6
40 2.3
41 34.8
42 0.49
43 99.99
44 3.5
45 1.3
51 0.19
53 6.1
54 9.9
55 26
56 0.41
57 8.6
58 2.4
59 1.3
61 0.13
65 2.1
66 3.8
67 26.1
68 1.29
69 12.9
70 1.9
71 6.8
72 0.17
77 2.9
79 4.3
80 4.6
81 5.23
82 81.5
83 12.3
84 1.2
85 0.2
86 1.6
91 1.3
93 1.3
94 0.21
95 31.5
96 19.5
97 2.8
98 0.17
99 3.4
100 2.3
107 3.8
123 0.24
124 55.6
125 6.5
141 1.2
142 2.3

>  <PREDICTED SPECTRUM>  (2108) 
14 2
15 43
26 54
27 300
28 117
29 267
30 32
31 106
38 52
39 342
40 160
41 503
42 205
43 999
44 255
45 99
50 60
51 98
52 76
53 214
54 308
55 397
56 139
57 356
58 146
59 118
60 44
61 71
62 17
63 30
64 13
65 143
66 196
67 503
68 366
69 273
70 224
71 330
72 199
73 22
74 46
75 11
77 99
78 109
79 170
80 199
81 686
82 467
83 247
84 71
85 203
86 26
87 11
91 42
92 79
93 134
94 51
95 447
96 398
97 169
98 121
99 257
100 121
105 55
106 50
107 31
109 272
110 118
111 39
112 19
113 77
114 10
123 309
124 484
125 197
126 59
127 20
128 75
140 5
141 385
142 163
143 12

$$$$

     RDKit          2D

 12 12  0  0  0  0  0  0  0  0999 V2000
   -1.6244    2.4383    0.0000 C   0  0  0  0  0  0  0  0  0  0  0  0
    4.8713    0.1879    0.0000 C   0  0  0  0  0  0  0  0  0  0  0  0
   -0.3252    1.6885    0.0000 C   0  0  0  0  0  0  0  0  0  0  0  0
   -1.6250   -2.0632    0.0000 C   0  0  0  0  0  0  0  0  0  0  0  0
   -0.3259   -2.8132    0.0000 C   0  0  0  0  0  0  0  0  0  0  0  0
   -1.6245   -0.5623    0.0000 C   0  0  0  0  0  0  0  0  0  0  0  0
    0.9736   -2.0623    0.0000 C   0  0  0  0  0  0  0  0  0  0  0  0
    3.5721   -0.5619    0.0000 C   0  0  0  0  0  0  0  0  0  0  0  0
   -0.3250    0.1885    0.0000 C   0  0  0  0  0  0  0  0  0  0  0  0
    0.9741   -0.5615    0.0000 C   0  0  0  0  0  0  0  0  0  0  0  0
    3.5719   -2.0619    0.0000 O   0  0  0  0  0  0  0  0  0  0  0  0
    2.2732    0.1883    0.0000 O   0  0  0  0  0  0  0  0  0  0  0  0
  3  1  1  0
  5  4  1  0
  6  4  1  0
  7  5  1  0
  8  2  1  0
  9  3  1  0
  9  6  1  0
 10  7  1  0
 10  9  1  0
 11  8  2  0
 12  8  1  0
 12 10  1  0
M  END
>  <NAME>  (2109) 
2-ETHYLCYCLOHEXYL ACETATE

>  <SYNONYMS>  (2109) 


>  <SPECTRUM TYPE>  (2109) 
MS1

>  <INSTRUMENT TYPE>  (2109) 
EI-B

>  <INSTRUMENT>  (2109) 
HITACHI RMU-6M

>  <ION MODE>  (2109) 
P

>  <INCHIKEY>  (2109) 
FTTKPCQDOGXTPC-UHFFFAOYSA-N

>  <FORMULA>  (2109) 
C10H18O2

>  <EXACT MASS>  (2109) 
170.130679816

>  <MW>  (2109) 
170

>  <ID>  (2109) 
JP008960

>  <CONTRIBUTOR>  (2109) 
University of Tokyo Team, {Faculty of Engineering, University of Tokyo

>  <COMMENT>  (2109) 
SMILES=CCC(C1)C(CCC1)OC(C)=O
InChI=InChI=1S/C10H18O2/c1-3-9-6-4-5-7-10(9)12-8(2)11/h9-10H,3-7H2,1-2H3
computed SMILES=O=C(OC1CCCCC1CC)C
accession=JP008960
date=2016.01.19 (Created 2008.10.21, modified 2011.05.06)
author=YAMAMOTO M, DEP. CHEMISTRY, FAC. SCIENCE, NARA WOMEN'S UNIV.
license=CC BY-NC-SA
computed spectral entropy=2.810564511619434
exact mass=170.13068
ionization energy=70 eV
ion type=[M]+*
computed normalized entropy=0.7221722218222376
SPLASH=splash10-01po-9200000000-2dfbe544c3fd60e21872
submitter=submitter = University of Tokyo Team (Faculty of Engineering, University of Tokyo)
MoNA Rating=3.75

>  <NUM PEAKS>  (2109) 
49

>  <MASS SPECTRAL PEAKS>  (2109) 
15 6
27 12.3
29 12.6
31 0.15
39 11.4
40 2.2
41 30.7
42 0.52
43 99.99
44 3.7
45 1.5
51 0.15
52 1.1
53 5.8
54 5.6
55 1.91
56 2.8
57 8.4
58 2.4
59 0.21
61 1
65 1.6
66 5.1
67 2.96
68 15
69 16.1
70 1.9
71 0.49
72 2.3
77 1.8
79 2.9
80 0.43
81 65
82 29
83 4.4
84 0.13
85 3.9
86 5.4
93 1.3
95 1.29
96 1.7
97 1.1
98 1.3
99 0.23
109 4.8
110 70.5
111 9.2
127 0.16
128 3.5

>  <PREDICTED SPECTRUM>  (2109) 
14 10
15 61
25 12
26 88
27 308
28 144
29 286
31 85
32 10
37 25
38 69
39 295
40 149
41 448
42 170
43 999
44 185
45 205
50 102
51 125
52 109
53 213
54 284
55 268
56 88
57 198
58 113
59 39
60 119
61 117
62 30
63 65
64 14
65 98
66 144
67 400
68 412
69 404
70 163
71 205
72 88
77 98
78 53
79 148
80 122
81 731
82 452
83 147
84 55
85 112
86 112
92 31
93 60
95 242
96 31
99 107
100 39
109 141
110 871
111 379
112 102
113 42
114 11
127 119
128 102

$$$$

     RDKit          2D

 11 11  0  0  0  0  0  0  0  0999 V2000
   -4.5648    2.6125    0.0000 C   0  0  0  0  0  0  0  0  0  0  0  0
    1.9623   -2.6414    0.0000 C   0  0  0  0  0  0  0  0  0  0  0  0
   -1.9705    2.6061    0.0000 C   0  0  0  0  0  0  0  0  0  0  0  0
   -3.2840    0.3812    0.0000 C   0  0  0  0  0  0  0  0  0  0  0  0
   -0.6859    1.8812    0.0000 C   0  0  0  0  0  0  0  0  0  0  0  0
   -1.9595   -0.4129    0.0000 C   0  0  0  0  0  0  0  0  0  0  0  0
   -3.2695    1.8561    0.0000 C   0  0  0  0  0  0  0  0  0  0  0  0
    0.6571   -1.9021    0.0000 C   0  0  0  0  0  0  0  0  0  0  0  0
   -0.6605    0.3371    0.0000 C   0  0  0  0  0  0  0  0  0  0  0  0
   -0.6357   -2.6628    0.0000 O   0  0  0  0  0  0  0  0  0  0  0  0
    0.6447   -0.4022    0.0000 O   0  0  0  0  0  0  0  0  0  0  0  0
  5  3  1  0
  6  4  1  0
  7  1  1  0
  7  3  1  0
  7  4  1  0
  8  2  1  0
  9  5  1  0
  9  6  1  0
 10  8  2  0
 11  8  1  0
 11  9  1  0
M  END
>  <NAME>  (2110) 
4-METHYLCYCLOHEXYL ACETATE

>  <SYNONYMS>  (2110) 


>  <SPECTRUM TYPE>  (2110) 
MS1

>  <INSTRUMENT TYPE>  (2110) 
EI-B

>  <INSTRUMENT>  (2110) 
HITACHI RMU-6M

>  <ION MODE>  (2110) 
P

>  <INCHIKEY>  (2110) 
VJBFCCCTSQEGMH-UHFFFAOYSA-N

>  <FORMULA>  (2110) 
C9H16O2

>  <EXACT MASS>  (2110) 
156.115029752

>  <MW>  (2110) 
156

>  <ID>  (2110) 
JP008959

>  <CONTRIBUTOR>  (2110) 
University of Tokyo Team, {Faculty of Engineering, University of Tokyo

>  <COMMENT>  (2110) 
SMILES=CC(=O)OC(C1)CCC(C)C1
InChI=InChI=1S/C9H16O2/c1-7-3-5-9(6-4-7)11-8(2)10/h7,9H,3-6H2,1-2H3
computed SMILES=O=C(OC1CCC(C)CC1)C
license=CC BY-NC-SA
accession=JP008959
date=2016.01.19 (Created 2008.10.21, modified 2011.05.06)
author=YAMAMOTO M, DEP. CHEMISTRY, FAC. SCIENCE, NARA WOMEN'S UNIV.
exact mass=156.11503
ionization energy=70 eV
ion type=[M]+*
computed spectral entropy=2.444965442211289
computed normalized entropy=0.7054679037246236
SPLASH=splash10-000y-9000000000-597bc76202a7dec0e76a
submitter=submitter = University of Tokyo Team (Faculty of Engineering, University of Tokyo)
MoNA Rating=3.75

>  <NUM PEAKS>  (2110) 
32

>  <MASS SPECTRAL PEAKS>  (2110) 
15 6.3
27 12.1
29 13.3
39 1.21
40 1.8
41 22.9
42 2.8
43 99.99
44 3
51 1
53 4.7
54 2.26
55 33.9
56 3.5
57 7.1
58 0.57
61 4.7
66 1.1
67 13.3
68 1.54
69 3.7
70 3
71 2
77 0.11
79 1.8
81 77.1
82 5.1
95 0.78
96 66.6
97 8.7
113 1.8
114 0.8

>  <PREDICTED SPECTRUM>  (2110) 
14 3
15 48
26 31
27 185
28 92
29 155
31 64
37 0
38 38
39 250
40 118
41 414
42 183
43 863
44 152
45 87
50 50
51 78
52 76
53 234
54 393
55 522
56 132
57 214
58 141
59 79
60 62
61 118
62 8
63 50
65 50
66 111
67 390
68 449
69 220
70 90
71 162
72 119
77 55
79 131
80 85
81 999
82 240
86 16
95 159
96 938
97 207
98 23
99 96
113 43
114 82

$$$$

     RDKit          2D

 11 11  0  0  0  0  0  0  0  0999 V2000
    3.8910    2.2482    0.0000 C   0  0  0  0  0  0  0  0  0  0  0  0
   -3.9051    2.2411    0.0000 C   0  0  0  0  0  0  0  0  0  0  0  0
    1.2969   -0.7445    0.0000 C   0  0  0  0  0  0  0  0  0  0  0  0
    2.5914   -0.0024    0.0000 C   0  0  0  0  0  0  0  0  0  0  0  0
   -0.0022    0.0055    0.0000 C   0  0  0  0  0  0  0  0  0  0  0  0
    1.2928    2.2485    0.0000 C   0  0  0  0  0  0  0  0  0  0  0  0
    2.5919    1.4985    0.0000 C   0  0  0  0  0  0  0  0  0  0  0  0
   -2.6048    1.4933    0.0000 C   0  0  0  0  0  0  0  0  0  0  0  0
   -0.0067    1.4976    0.0000 C   0  0  0  0  0  0  0  0  0  0  0  0
   -2.6023   -0.0067    0.0000 O   0  0  0  0  0  0  0  0  0  0  0  0
   -1.3070    2.2454    0.0000 O   0  0  0  0  0  0  0  0  0  0  0  0
  4  3  1  0
  5  3  1  0
  7  1  1  0
  7  4  1  0
  7  6  1  0
  8  2  1  0
  9  5  1  0
  9  6  1  0
 10  8  2  0
 11  8  1  0
 11  9  1  0
M  END
>  <NAME>  (2111) 
3-METHYLCYCLOHEXYL ACETATE

>  <SYNONYMS>  (2111) 


>  <SPECTRUM TYPE>  (2111) 
MS1

>  <INSTRUMENT TYPE>  (2111) 
EI-B

>  <INSTRUMENT>  (2111) 
HITACHI RMU-6M

>  <ION MODE>  (2111) 
P

>  <INCHIKEY>  (2111) 
POTQUGZZORQESZ-UHFFFAOYSA-N

>  <FORMULA>  (2111) 
C9H16O2

>  <EXACT MASS>  (2111) 
156.115029752

>  <MW>  (2111) 
156

>  <ID>  (2111) 
JP008958

>  <CONTRIBUTOR>  (2111) 
University of Tokyo Team, {Faculty of Engineering, University of Tokyo

>  <COMMENT>  (2111) 
SMILES=CC(=O)OC(C1)CC(C)CC1
InChI=InChI=1S/C9H16O2/c1-7-4-3-5-9(6-7)11-8(2)10/h7,9H,3-6H2,1-2H3
computed SMILES=O=C(OC1CCCC(C)C1)C
accession=JP008958
date=2016.01.19 (Created 2008.10.21, modified 2011.05.06)
author=YAMAMOTO M, DEP. CHEMISTRY, FAC. SCIENCE, NARA WOMEN'S UNIV.
license=CC BY-NC-SA
exact mass=156.11503
ionization energy=70 eV
ion type=[M]+*
computed spectral entropy=2.5504180094922093
computed normalized entropy=0.7011292372203353
SPLASH=splash10-000y-9000000000-842c7eb71f2d274569ba
submitter=submitter = University of Tokyo Team (Faculty of Engineering, University of Tokyo)
MoNA Rating=3.75

>  <NUM PEAKS>  (2111) 
38

>  <MASS SPECTRAL PEAKS>  (2111) 
15 7.3
27 12.3
29 9.7
39 1.28
40 3
41 23.7
42 4.9
43 99.99
44 3.7
51 1.3
53 4.9
54 1.41
55 34.9
56 3.3
57 3.5
58 0.43
59 1
61 3
65 1.3
66 0.15
67 13.5
68 19
70 4.9
71 0.81
72 1.6
73 1
77 1.3
79 0.2
80 1.3
81 80.9
82 5.4
85 0.14
95 7.6
96 72
97 10.7
98 0.1
113 2.3
114 0.9

>  <PREDICTED SPECTRUM>  (2111) 
14 7
15 27
16 1
26 13
27 132
28 25
29 74
31 30
38 1
39 199
40 82
41 401
42 216
43 999
44 179
45 67
50 41
51 84
52 50
53 203
54 239
55 359
56 182
57 238
58 186
59 85
60 84
61 98
62 10
63 10
65 67
66 79
67 417
68 369
69 173
70 194
71 298
72 179
77 55
79 74
80 128
81 661
82 269
83 12
85 28
86 54
95 257
96 792
97 311
98 103
99 227
100 46
112 42
113 208
114 179
115 34
156 43

$$$$

     RDKit          2D

 11 11  0  0  0  0  0  0  0  0999 V2000
    1.9489    1.5002    0.0000 C   0  0  0  0  0  0  0  0  0  0  0  0
    3.2476   -3.7504    0.0000 C   0  0  0  0  0  0  0  0  0  0  0  0
   -1.9500    0.7500    0.0000 C   0  0  0  0  0  0  0  0  0  0  0  0
   -1.9500   -0.7500    0.0000 C   0  0  0  0  0  0  0  0  0  0  0  0
   -0.6500    1.5000    0.0000 C   0  0  0  0  0  0  0  0  0  0  0  0
   -0.6500   -1.5000    0.0000 C   0  0  0  0  0  0  0  0  0  0  0  0
    0.6500    0.7500    0.0000 C   0  0  0  0  0  0  0  0  0  0  0  0
    1.9487   -3.0002    0.0000 C   0  0  0  0  0  0  0  0  0  0  0  0
    0.6500   -0.7500    0.0000 C   0  0  0  0  0  0  0  0  0  0  0  0
    0.6495   -3.7500    0.0000 O   0  0  0  0  0  0  0  0  0  0  0  0
    1.9489   -1.5002    0.0000 O   0  0  0  0  0  0  0  0  0  0  0  0
  4  3  1  0
  5  3  1  0
  6  4  1  0
  7  1  1  0
  7  5  1  0
  8  2  1  0
  9  6  1  0
  9  7  1  0
 10  8  2  0
 11  8  1  0
 11  9  1  0
M  END
>  <NAME>  (2112) 
2-METHYLCYCLOHEXYL ACETATE

>  <SYNONYMS>  (2112) 


>  <SPECTRUM TYPE>  (2112) 
MS1

>  <INSTRUMENT TYPE>  (2112) 
EI-B

>  <INSTRUMENT>  (2112) 
HITACHI RMU-6M

>  <ION MODE>  (2112) 
P

>  <INCHIKEY>  (2112) 
AKIIJALHGMKJEJ-UHFFFAOYSA-N

>  <FORMULA>  (2112) 
C9H16O2

>  <EXACT MASS>  (2112) 
156.115029752

>  <MW>  (2112) 
156

>  <ID>  (2112) 
JP008957

>  <CONTRIBUTOR>  (2112) 
University of Tokyo Team, {Faculty of Engineering, University of Tokyo

>  <COMMENT>  (2112) 
SMILES=CC(=O)OC(C1)C(C)CCC1
InChI=InChI=1S/C9H16O2/c1-7-5-3-4-6-9(7)11-8(2)10/h7,9H,3-6H2,1-2H3
computed SMILES=O=C(OC1CCCCC1C)C
accession=JP008957
date=2016.01.19 (Created 2008.10.21, modified 2011.05.06)
author=YAMAMOTO M, DEP. CHEMISTRY, FAC. SCIENCE, NARA WOMEN'S UNIV.
license=CC BY-NC-SA
exact mass=156.11503
ionization energy=70 eV
ion type=[M]+*
computed spectral entropy=2.7506614320608884
computed normalized entropy=0.745663138705516
SPLASH=splash10-0006-9000000000-600b6cce25b2ab4e95da
submitter=submitter = University of Tokyo Team (Faculty of Engineering, University of Tokyo)
MoNA Rating=3.75

>  <NUM PEAKS>  (2112) 
40

>  <MASS SPECTRAL PEAKS>  (2112) 
15 6.7
27 12.8
29 10.4
39 1.15
40 2.2
41 23
42 4.4
43 99.99
44 3.9
45 2.7
51 1.4
53 0.44
54 6.1
55 25.4
56 3.8
57 0.77
58 3.8
61 1.6
66 2.5
67 1.97
68 25.7
69 7.7
70 1.6
71 0.57
72 7.8
77 1.2
79 1.8
80 0.13
81 45
82 4.1
83 1.2
84 0.13
85 2.2
86 1.4
95 8.7
96 6.8
97 10
112 1.5
113 2.3
114 5.5

>  <PREDICTED SPECTRUM>  (2112) 
15 27
26 8
27 119
28 22
29 90
31 18
39 169
40 93
41 368
42 168
43 999
44 211
45 84
50 30
51 14
52 18
53 157
54 277
55 442
56 28
57 234
58 165
61 30
65 22
66 80
67 407
68 396
69 175
70 72
71 209
72 173
77 41
79 29
81 779
82 135
86 5
95 121
96 925
97 238
99 76
113 82
114 140

$$$$

     RDKit          2D

 14 13  0  0  0  0  0  0  0  0999 V2000
    3.3750    0.8505    0.0000 C   0  0  0  0  0  0  0  0  0  0  0  0
    4.6740    1.6005    0.0000 H   0  0  0  0  0  0  0  0  0  0  0  0
    2.0760    0.1005    0.0000 H   0  0  0  0  0  0  0  0  0  0  0  0
    4.1250   -0.4486    0.0000 H   0  0  0  0  0  0  0  0  0  0  0  0
    0.3750    3.4486    0.0000 C   0  0  0  0  0  0  0  0  0  0  0  0
    1.6740    4.1986    0.0000 H   0  0  0  0  0  0  0  0  0  0  0  0
   -0.3750    4.7476    0.0000 H   0  0  0  0  0  0  0  0  0  0  0  0
   -0.9240    2.6986    0.0000 H   0  0  0  0  0  0  0  0  0  0  0  0
    2.6250    2.1495    0.0000 C   0  0  0  0  0  0  0  0  0  0  0  0
    4.0345    2.6625    0.0000 H   0  0  0  0  0  0  0  0  0  0  0  0
    2.3645    3.6267    0.0000 H   0  0  0  0  0  0  0  0  0  0  0  0
    1.1250    2.1495    0.0000 C   0  0  0  0  0  0  0  0  0  0  0  0
   -0.2845    1.6365    0.0000 H   0  0  0  0  0  0  0  0  0  0  0  0
    1.3855    0.6723    0.0000 H   0  0  0  0  0  0  0  0  0  0  0  0
  1  2  1  0
  1  3  1  0
  1  4  1  0
  5  6  1  0
  5  7  1  0
  5  8  1  0
  9 10  1  0
  9 11  1  0
 12 13  1  0
 12 14  1  0
  9  1  1  0
 12  5  1  0
 12  9  1  0
M  ISO  8   2   2   3   2   4   2   6   2   7   2   8   2  10   2  11   2
M  ISO  2  13   2  14   2
M  END
>  <NAME>  (2113) 
BUTANE (D10)

>  <SYNONYMS>  (2113) 


>  <SPECTRUM TYPE>  (2113) 
MS1

>  <INSTRUMENT TYPE>  (2113) 
EI-B

>  <INSTRUMENT>  (2113) 
HITACHI RMU-6M

>  <ION MODE>  (2113) 
P

>  <INCHIKEY>  (2113) 
IJDNQMDRQITEOD-MWUKXHIBSA-N

>  <FORMULA>  (2113) 
C4H10

>  <EXACT MASS>  (2113) 
68.14101778

>  <MW>  (2113) 
68

>  <ID>  (2113) 
JP008956

>  <CONTRIBUTOR>  (2113) 
University of Tokyo Team, {Faculty of Engineering, University of Tokyo

>  <COMMENT>  (2113) 
SMILES=[2H]C([2H])([2H])C([2H])([2H])C([2H])([2H])C([2H])([2H])[2H]
InChI=InChI=1S/C4H10/c1-3-4-2/h3-4H2,1-2H3/i1D3,2D3,3D2,4D2
computed SMILES=[H]C([H])(C([H])([H])C([H])([H])[H])C([H])([H])[H]
accession=JP008956
date=2016.01.19 (Created 2008.10.21, modified 2011.05.06)
author=YAMAMOTO M, DEP. CHEMISTRY, FAC. SCIENCE, NARA WOMEN'S UNIV.
license=CC BY-NC-SA
exact mass=58.07825
ionization energy=70 eV
ion type=[M]+*
computed spectral entropy=2.0466685362134127
computed normalized entropy=0.6722461660502108
SPLASH=splash10-0udi-9000000000-7f105779e8c3a49c8430
submitter=submitter = University of Tokyo Team (Faculty of Engineering, University of Tokyo)
MoNA Rating=3.75

>  <NUM PEAKS>  (2113) 
21

>  <MASS SPECTRAL PEAKS>  (2113) 
18 2
28 24.7
29 1.7
30 2.91
31 2.2
32 22.6
33 3.4
34 3.2
40 1.7
42 9.3
44 2.2
45 0.22
46 24.6
47 2.3
48 12.2
49 1.17
50 99.99
51 3.2
66 1.6
67 0.16
68 10.8

>  <PREDICTED SPECTRUM>  (2113) 
4 80
14 25
15 22
16 27
32 74
36 364
37 44
38 301
39 196
47 158
49 293
50 613
51 131
52 143
54 214
62 297
63 165
64 415
65 272
66 758
67 230
68 999
69 216
70 340
71 256
72 164

$$$$

     RDKit          2D

  5  4  0  0  0  0  0  0  0  0999 V2000
    0.0000    0.0000    0.0000 C   0  0  0  0  0  0  0  0  0  0  0  0
   -1.2990    3.7500    0.0000 C   0  0  0  0  0  0  0  0  0  0  0  0
    0.0000    1.5000    0.0000 C   0  0  0  0  0  0  0  0  0  0  0  0
    1.2990    2.2500    0.0000 H   0  0  0  0  0  0  0  0  0  0  0  0
   -1.2990    2.2500    0.0000 C   0  0  0  0  0  0  0  0  0  0  0  0
  3  4  1  0
  3  1  1  0
  5  2  1  0
  5  3  1  0
M  ISO  1   4   2
M  END
>  <NAME>  (2114) 
BUTANE (2-D1)

>  <SYNONYMS>  (2114) 


>  <SPECTRUM TYPE>  (2114) 
MS1

>  <INSTRUMENT TYPE>  (2114) 
EI-B

>  <INSTRUMENT>  (2114) 
HITACHI RMU-6M

>  <ION MODE>  (2114) 
P

>  <INCHIKEY>  (2114) 
IJDNQMDRQITEOD-WFVSFCRTSA-N

>  <FORMULA>  (2114) 
C4H10

>  <EXACT MASS>  (2114) 
59.08452706599999

>  <MW>  (2114) 
59

>  <ID>  (2114) 
JP008955

>  <CONTRIBUTOR>  (2114) 
University of Tokyo Team, {Faculty of Engineering, University of Tokyo

>  <COMMENT>  (2114) 
SMILES=CCC([H])([2H])C
InChI=InChI=1S/C4H10/c1-3-4-2/h3-4H2,1-2H3/i3D
computed SMILES=[H]C(C)CC
accession=JP008955
date=2016.01.19 (Created 2008.10.21, modified 2011.05.06)
author=YAMAMOTO M, DEP. CHEMISTRY, FAC. SCIENCE, NARA WOMEN'S UNIV.
license=CC BY-NC-SA
exact mass=58.07825
ionization energy=70 eV
ion type=[M]+*
computed spectral entropy=2.2429694677833787
computed normalized entropy=0.7256352837685766
SPLASH=splash10-0006-9000000000-4328d076a4cc5022d4a7
submitter=submitter = University of Tokyo Team (Faculty of Engineering, University of Tokyo)
MoNA Rating=3.75

>  <NUM PEAKS>  (2114) 
22

>  <MASS SPECTRAL PEAKS>  (2114) 
15 2
26 6.2
27 42.2
28 4.79
29 54.2
30 36.3
37 1.5
38 0.3
39 17.4
40 9.1
41 33
42 3.77
43 95.1
44 99.99
45 2.9
50 0.22
51 1
54 1.2
56 2.2
57 0.58
59 28.7
60 1.2

>  <PREDICTED SPECTRUM>  (2114) 
14 86
15 134
16 29
19 24
25 33
26 271
27 777
28 380
29 757
30 388
31 366
32 82
37 48
38 137
39 631
40 248
41 999
42 321
43 614
44 622
45 121
46 19
53 226
54 69
56 459
57 543
58 142
59 641
60 140

$$$$

     RDKit          2D

  4  3  0  0  0  0  0  0  0  0999 V2000
   -2.5981    2.2500    0.0000 C   0  0  0  0  0  0  0  0  0  0  0  0
    1.2990    1.5000    0.0000 C   0  0  0  0  0  0  0  0  0  0  0  0
   -1.2990    1.5000    0.0000 C   0  0  0  0  0  0  0  0  0  0  0  0
    0.0000    2.2500    0.0000 C   0  0  0  0  0  0  0  0  0  0  0  0
  3  1  1  0
  4  2  1  0
  4  3  1  0
M  END
>  <NAME>  (2115) 
BUTANE

>  <SYNONYMS>  (2115) 


>  <SPECTRUM TYPE>  (2115) 
MS1

>  <INSTRUMENT TYPE>  (2115) 
EI-B

>  <INSTRUMENT>  (2115) 
HITACHI RMU-6M

>  <ION MODE>  (2115) 
P

>  <INCHIKEY>  (2115) 
IJDNQMDRQITEOD-UHFFFAOYSA-N

>  <FORMULA>  (2115) 
C4H10

>  <EXACT MASS>  (2115) 
58.078250319999995

>  <MW>  (2115) 
58

>  <ID>  (2115) 
JP008954

>  <CONTRIBUTOR>  (2115) 
University of Tokyo Team, {Faculty of Engineering, University of Tokyo

>  <COMMENT>  (2115) 
SMILES=CCCC
InChI=InChI=1S/C4H10/c1-3-4-2/h3-4H2,1-2H3
computed SMILES=CCCC
accession=JP008954
date=2016.01.19 (Created 2008.10.21, modified 2011.05.06)
author=YAMAMOTO M, DEP. CHEMISTRY, FAC. SCIENCE, NARA WOMEN'S UNIV.
license=CC BY-NC-SA
exact mass=58.07825
ionization energy=70 eV
ion type=[M]+*
computed spectral entropy=1.9388249497809924
computed normalized entropy=0.6584700730764903
SPLASH=splash10-0006-9000000000-8ea252b3301613570d5c
submitter=submitter = University of Tokyo Team (Faculty of Engineering, University of Tokyo)
MoNA Rating=3.75

>  <NUM PEAKS>  (2115) 
19

>  <MASS SPECTRAL PEAKS>  (2115) 
14 1
15 1.3
26 4.1
27 2.71
28 26.4
29 36.7
38 1.7
39 1.09
40 1.1
41 28.2
42 28.2
43 99.99
44 3.2
50 1.1
51 1.1
55 0.1
57 2.6
58 13.9
59 0.8

>  <PREDICTED SPECTRUM>  (2115) 
14 63
15 150
16 0
25 25
26 204
27 590
28 282
29 511
30 92
31 48
32 21
37 50
38 151
39 627
40 300
41 999
42 522
43 893
44 180
55 18
56 204
57 413
58 762
59 238

$$$$

     RDKit          2D

  6  6  0  0  0  0  0  0  0  0999 V2000
   -0.2055    1.5881    0.0000 C   0  0  0  0  0  0  0  0  0  0  0  0
    1.2542    1.2765    0.0000 C   0  0  0  0  0  0  0  0  0  0  0  0
    0.0442   -0.8193    0.0000 C   0  0  0  0  0  0  0  0  0  0  0  0
   -0.9555    0.2891    0.0000 C   0  0  0  0  0  0  0  0  0  0  0  0
   -2.4472    0.1316    0.0000 O   0  0  0  0  0  0  0  0  0  0  0  0
    1.4200   -0.2164    0.0000 O   0  0  0  0  0  0  0  0  0  0  0  0
  2  1  1  0
  4  1  1  0
  4  3  1  0
  5  4  1  0
  6  2  1  0
  6  3  1  0
M  END
>  <NAME>  (2116) 
3-HYDROXYTETRAHYDROFURAN

>  <SYNONYMS>  (2116) 


>  <SPECTRUM TYPE>  (2116) 
MS1

>  <INSTRUMENT TYPE>  (2116) 
EI-B

>  <INSTRUMENT>  (2116) 
HITACHI RMU-6M

>  <ION MODE>  (2116) 
P

>  <INCHIKEY>  (2116) 
XDPCNPCKDGQBAN-UHFFFAOYSA-N

>  <FORMULA>  (2116) 
C4H8O2

>  <EXACT MASS>  (2116) 
88.052429496

>  <MW>  (2116) 
88

>  <ID>  (2116) 
JP008952

>  <CONTRIBUTOR>  (2116) 
University of Tokyo Team, {Faculty of Engineering, University of Tokyo

>  <COMMENT>  (2116) 
SMILES=OC(C1)COC1
InChI=InChI=1S/C4H8O2/c5-4-1-2-6-3-4/h4-5H,1-3H2
computed SMILES=OC1COCC1
accession=JP008952
date=2016.01.19 (Created 2008.10.21, modified 2011.05.06)
author=YAMAMOTO M, DEP. CHEMISTRY, FAC. SCIENCE, NARA WOMEN'S UNIV.
license=CC BY-NC-SA
exact mass=88.05243
ionization energy=70 eV
ion type=[M]+*
computed spectral entropy=2.614809999214588
computed normalized entropy=0.7544746837467521
SPLASH=splash10-0a4i-9000000000-ece2550529c83fa8c0bf
submitter=submitter = University of Tokyo Team (Faculty of Engineering, University of Tokyo)
MoNA Rating=3.75

>  <NUM PEAKS>  (2116) 
32

>  <MASS SPECTRAL PEAKS>  (2116) 
14 2.9
15 9.6
26 5.9
27 2.04
28 20.9
29 31.7
30 21.6
31 5.72
32 9.6
33 1.5
37 1.8
38 0.3
39 16.5
40 10.2
41 15.5
42 0.87
43 24.9
44 16.3
45 5.2
55 0.24
56 2.8
57 99.99
58 76.1
59 0.45
60 4.8
61 1
69 1.7
70 1.66
71 1.9
87 1.6
88 14.5
89 1

>  <PREDICTED SPECTRUM>  (2116) 
14 96
15 239
16 42
17 17
18 36
19 80
25 44
26 214
27 552
28 412
29 789
30 638
31 796
32 105
33 64
36 43
37 107
38 233
39 519
40 314
41 745
42 641
43 809
44 483
45 234
46 1
50 109
51 126
53 109
54 51
55 161
56 59
57 864
58 999
59 434
60 118
61 163
69 138
70 306
71 56
72 47
87 157
88 403
89 101

$$$$

     RDKit          2D

  7  7  0  0  0  0  0  0  0  0999 V2000
    3.3407   -0.3428    0.0000 C   0  0  0  0  0  0  0  0  0  0  0  0
    2.2271    0.6621    0.0000 C   0  0  0  0  0  0  0  0  0  0  0  0
   -1.1700   -1.2200    0.0000 C   0  0  0  0  0  0  0  0  0  0  0  0
    0.3300   -1.2200    0.0000 C   0  0  0  0  0  0  0  0  0  0  0  0
   -1.6300    0.2000    0.0000 C   0  0  0  0  0  0  0  0  0  0  0  0
    0.8000    0.2000    0.0000 C   0  0  0  0  0  0  0  0  0  0  0  0
   -0.4200    1.0800    0.0000 O   0  0  0  0  0  0  0  0  0  0  0  0
  2  1  1  0
  4  3  1  0
  5  3  1  0
  6  2  1  0
  6  4  1  0
  7  5  1  0
  7  6  1  0
M  END
>  <NAME>  (2117) 
2-ETHYLTETRAHYDROFURAN

>  <SYNONYMS>  (2117) 


>  <SPECTRUM TYPE>  (2117) 
MS1

>  <INSTRUMENT TYPE>  (2117) 
EI-B

>  <INSTRUMENT>  (2117) 
HITACHI RMU-6M

>  <ION MODE>  (2117) 
P

>  <INCHIKEY>  (2117) 
IHMXVSZXHFTOFN-UHFFFAOYSA-N

>  <FORMULA>  (2117) 
C6H12O

>  <EXACT MASS>  (2117) 
100.088815004

>  <MW>  (2117) 
100

>  <ID>  (2117) 
JP008951

>  <CONTRIBUTOR>  (2117) 
University of Tokyo Team, {Faculty of Engineering, University of Tokyo

>  <COMMENT>  (2117) 
SMILES=CCC(C1)OCC1
InChI=InChI=1S/C6H12O/c1-2-6-4-3-5-7-6/h6H,2-5H2,1H3
computed SMILES=O1CCCC1CC
accession=JP008951
date=2016.01.19 (Created 2008.10.21, modified 2011.05.06)
author=YAMAMOTO M, DEP. CHEMISTRY, FAC. SCIENCE, NARA WOMEN'S UNIV.
license=CC BY-NC-SA
exact mass=100.08882
ionization energy=70 eV
ion type=[M]+*
computed spectral entropy=2.2024355175403674
computed normalized entropy=0.7024205327349691
SPLASH=splash10-00dl-9000000000-bdb562318e1e8fa23165
submitter=submitter = University of Tokyo Team (Faculty of Engineering, University of Tokyo)
MoNA Rating=3.75

>  <NUM PEAKS>  (2117) 
23

>  <MASS SPECTRAL PEAKS>  (2117) 
15 2.5
26 2.3
27 22.2
28 0.39
29 17
31 4.6
38 1.8
39 1.62
40 3.3
41 31.3
42 22.9
43 5.87
44 2.3
53 2
55 8
57 0.82
58 1.6
59 3.7
70 7.3
71 99.99
73 4.5
99 1.2
100 4.8

>  <PREDICTED SPECTRUM>  (2117) 
14 19
15 43
26 81
27 225
28 145
29 235
30 103
31 116
32 5
36 7
37 59
38 108
39 357
40 150
41 469
42 391
43 599
44 149
45 24
50 82
51 92
52 73
53 122
54 87
55 155
56 208
57 165
59 42
67 44
68 52
69 161
70 316
71 999
72 273
100 129
101 7

$$$$

     RDKit          2D

  6  6  0  0  0  0  0  0  0  0999 V2000
   -1.6300   -0.8021    0.0000 C   0  0  0  0  0  0  0  0  0  0  0  0
    1.7671    1.0800    0.0000 C   0  0  0  0  0  0  0  0  0  0  0  0
    0.2671    1.0800    0.0000 C   0  0  0  0  0  0  0  0  0  0  0  0
    2.2271   -0.3400    0.0000 C   0  0  0  0  0  0  0  0  0  0  0  0
   -0.2029   -0.3400    0.0000 C   0  0  0  0  0  0  0  0  0  0  0  0
    1.0171   -1.2200    0.0000 O   0  0  0  0  0  0  0  0  0  0  0  0
  3  2  1  0
  4  2  1  0
  5  1  1  0
  5  3  1  0
  6  4  1  0
  6  5  1  0
M  END
>  <NAME>  (2118) 
2-METHYLTETRAHYDROFURAN

>  <SYNONYMS>  (2118) 


>  <SPECTRUM TYPE>  (2118) 
MS1

>  <INSTRUMENT TYPE>  (2118) 
EI-B

>  <INSTRUMENT>  (2118) 
HITACHI RMU-6M

>  <ION MODE>  (2118) 
P

>  <INCHIKEY>  (2118) 
JWUJQDFVADABEY-UHFFFAOYSA-N

>  <FORMULA>  (2118) 
C5H10O

>  <EXACT MASS>  (2118) 
86.07316494

>  <MW>  (2118) 
86

>  <ID>  (2118) 
JP008950

>  <CONTRIBUTOR>  (2118) 
University of Tokyo Team, {Faculty of Engineering, University of Tokyo

>  <COMMENT>  (2118) 
SMILES=CC(C1)OCC1
InChI=InChI=1S/C5H10O/c1-5-3-2-4-6-5/h5H,2-4H2,1H3
computed SMILES=O1CCCC1C
accession=JP008950
date=2016.01.19 (Created 2008.10.21, modified 2011.05.06)
author=YAMAMOTO M, DEP. CHEMISTRY, FAC. SCIENCE, NARA WOMEN'S UNIV.
license=CC BY-NC-SA
exact mass=86.07316
ionization energy=70 eV
ion type=[M]+*
computed spectral entropy=2.501542112218277
computed normalized entropy=0.7284657639233488
SPLASH=splash10-006x-9000000000-41022bbc836da7b6c5df
submitter=submitter = University of Tokyo Team (Faculty of Engineering, University of Tokyo)
MoNA Rating=3.75

>  <NUM PEAKS>  (2118) 
31

>  <MASS SPECTRAL PEAKS>  (2118) 
14 1.5
15 7.4
26 5.6
27 3.26
28 10.6
29 14.5
31 3
37 0.13
38 3
39 23.9
40 8.1
41 6.76
42 52.3
43 58.8
44 2.7
45 2.47
50 2
51 1.9
53 2.7
54 0.13
55 6.9
56 23.2
57 3
58 0.2
67 1.3
70 1.7
71 99.99
72 0.45
85 4.9
86 19.8
87 1.7

>  <PREDICTED SPECTRUM>  (2118) 
14 101
15 245
16 27
19 38
25 23
26 275
27 780
28 547
29 692
30 240
31 324
32 40
36 79
37 84
38 174
39 691
40 347
41 999
42 828
43 882
44 151
45 98
50 138
51 144
52 88
53 324
54 277
55 455
56 525
57 372
58 231
59 23
71 592
72 65
85 251
86 285
87 67

$$$$

     RDKit          2D

  5  5  0  0  0  0  0  0  0  0999 V2000
   -0.7500    1.0300    0.0000 C   0  0  0  0  0  0  0  0  0  0  0  0
    0.7500    1.0300    0.0000 C   0  0  0  0  0  0  0  0  0  0  0  0
   -1.2100   -0.3900    0.0000 C   0  0  0  0  0  0  0  0  0  0  0  0
    1.2100   -0.3900    0.0000 C   0  0  0  0  0  0  0  0  0  0  0  0
   -0.0000   -1.2800    0.0000 O   0  0  0  0  0  0  0  0  0  0  0  0
  2  1  1  0
  3  1  1  0
  4  2  1  0
  5  3  1  0
  5  4  1  0
M  END
>  <NAME>  (2119) 
TETRAHYDROFURAN

>  <SYNONYMS>  (2119) 


>  <SPECTRUM TYPE>  (2119) 
MS1

>  <INSTRUMENT TYPE>  (2119) 
EI-B

>  <INSTRUMENT>  (2119) 
HITACHI RMU-6M

>  <ION MODE>  (2119) 
P

>  <INCHIKEY>  (2119) 
WYURNTSHIVDZCO-UHFFFAOYSA-N

>  <FORMULA>  (2119) 
C4H8O

>  <EXACT MASS>  (2119) 
72.057514876

>  <MW>  (2119) 
72

>  <ID>  (2119) 
JP008949

>  <CONTRIBUTOR>  (2119) 
University of Tokyo Team, {Faculty of Engineering, University of Tokyo

>  <COMMENT>  (2119) 
SMILES=C(C1)COC1
InChI=InChI=1S/C4H8O/c1-2-4-5-3-1/h1-4H2
computed SMILES=O1CCCC1
accession=JP008949
date=2016.01.19 (Created 2008.10.21, modified 2011.05.06)
author=YAMAMOTO M, DEP. CHEMISTRY, FAC. SCIENCE, NARA WOMEN'S UNIV.
license=CC BY-NC-SA
exact mass=72.05751
ionization energy=70 eV
ion type=[M]+*
computed spectral entropy=2.118855535910002
computed normalized entropy=0.7196126497788187
SPLASH=splash10-0006-9000000000-5fecd52ae1047ea6ca80
submitter=submitter = University of Tokyo Team (Faculty of Engineering, University of Tokyo)
MoNA Rating=3.75

>  <NUM PEAKS>  (2119) 
19

>  <MASS SPECTRAL PEAKS>  (2119) 
14 1.8
15 4.7
26 4
27 2.48
28 3.2
29 12.7
31 3.7
37 0.19
38 3.6
39 20.9
40 11.2
41 5.3
42 99.99
43 17
44 4.2
45 0.12
71 27
72 29.5
73 1.6

>  <PREDICTED SPECTRUM>  (2119) 
14 57
15 125
16 16
17 19
18 18
19 27
25 34
26 243
27 585
28 399
29 546
30 176
31 349
32 38
37 48
38 171
39 596
40 395
41 999
42 819
43 724
44 414
45 312
50 71
51 189
52 20
53 303
54 463
55 174
56 801
57 447
58 87
67 92
71 386
72 486
73 166

$$$$

     RDKit          2D

  7  7  0  0  0  0  0  0  0  0999 V2000
   -1.8037    1.1774    0.0000 C   0  0  0  0  0  0  0  0  0  0  0  0
   -1.1855   -0.1893    0.0000 C   0  0  0  0  0  0  0  0  0  0  0  0
    1.0472   -1.6190    0.0000 C   0  0  0  0  0  0  0  0  0  0  0  0
    2.5169   -1.3247    0.0000 C   0  0  0  0  0  0  0  0  0  0  0  0
    1.2969    0.7884    0.0000 C   0  0  0  0  0  0  0  0  0  0  0  0
    0.3072   -0.3373    0.0000 C   0  0  0  0  0  0  0  0  0  0  0  0
    2.6640    0.1805    0.0000 O   0  0  0  0  0  0  0  0  0  0  0  0
  2  1  1  0
  4  3  1  0
  6  2  1  0
  6  3  1  0
  6  5  1  0
  7  4  1  0
  7  5  1  0
M  END
>  <NAME>  (2120) 
3-ETHYLTETRAHYDROFURAN

>  <SYNONYMS>  (2120) 


>  <SPECTRUM TYPE>  (2120) 
MS1

>  <INSTRUMENT TYPE>  (2120) 
EI-B

>  <INSTRUMENT>  (2120) 
HITACHI RMU-6M

>  <ION MODE>  (2120) 
P

>  <INCHIKEY>  (2120) 
AIUUAKHKOQFCKF-UHFFFAOYSA-N

>  <FORMULA>  (2120) 
C6H12O

>  <EXACT MASS>  (2120) 
100.088815004

>  <MW>  (2120) 
100

>  <ID>  (2120) 
JP008948

>  <CONTRIBUTOR>  (2120) 
University of Tokyo Team, {Faculty of Engineering, University of Tokyo

>  <COMMENT>  (2120) 
SMILES=CCC(C1)COC1
InChI=InChI=1S/C6H12O/c1-2-6-3-4-7-5-6/h6H,2-5H2,1H3
computed SMILES=O1CCC(C1)CC
accession=JP008948
date=2016.01.19 (Created 2008.10.21, modified 2011.05.06)
author=YAMAMOTO M, DEP. CHEMISTRY, FAC. SCIENCE, NARA WOMEN'S UNIV.
license=CC BY-NC-SA
exact mass=100.08882
ionization energy=70 eV
ion type=[M]+*
computed spectral entropy=2.804014304895787
computed normalized entropy=0.7708447805142026
SPLASH=splash10-05mo-9000000000-fb9e96ae921b56721506
submitter=submitter = University of Tokyo Team (Faculty of Engineering, University of Tokyo)
MoNA Rating=3.75

>  <NUM PEAKS>  (2120) 
38

>  <MASS SPECTRAL PEAKS>  (2120) 
15 4.2
26 4.5
27 36.9
28 0.7
29 22.9
31 3.7
37 1.7
38 0.44
39 45.3
40 14
41 53.2
42 99.99
43 15.8
44 8.8
45 9.4
50 0.25
51 3.5
52 2.1
53 20.4
54 0.57
55 81.4
56 4.3
57 4.9
65 0.21
66 2.6
67 37.9
68 40.6
69 0.55
70 69.2
71 4.5
72 2.3
81 0.17
82 5.5
83 1.5
98 3.6
99 0.63
100 20.9
101 1.5

>  <PREDICTED SPECTRUM>  (2120) 
14 77
15 161
16 17
19 12
25 34
26 274
27 715
28 473
29 737
30 337
31 392
32 86
37 74
38 177
39 669
40 301
41 999
42 835
43 517
44 186
45 172
50 86
51 151
52 103
53 327
54 349
55 611
56 801
57 611
58 215
67 61
68 81
69 14
70 792
71 938
72 345
85 11
100 449
101 125

$$$$

     RDKit          2D

 11 11  0  0  0  0  0  0  0  0999 V2000
    0.0000    2.7800    0.0000 C   0  0  0  0  0  0  0  0  0  0  0  0
   -2.2174   -1.3410    0.0000 C   0  0  0  0  0  0  0  0  0  0  0  0
   -0.5936   -2.5218    0.0000 C   0  0  0  0  0  0  0  0  0  0  0  0
    1.2100    0.3900    0.0000 C   0  0  0  0  0  0  0  0  0  0  0  0
    2.5795   -0.2220    0.0000 H   0  0  0  0  0  0  0  0  0  0  0  0
    1.9647    1.6863    0.0000 H   0  0  0  0  0  0  0  0  0  0  0  0
   -1.2100    0.3900    0.0000 C   0  0  0  0  0  0  0  0  0  0  0  0
    0.0000    1.2800    0.0000 C   0  0  0  0  0  0  0  0  0  0  0  0
    0.7500   -1.0300    0.0000 C   0  0  0  0  0  0  0  0  0  0  0  0
   -0.7500   -1.0300    0.0000 C   0  0  0  0  0  0  0  0  0  0  0  0
    1.6322   -2.2431    0.0000 O   0  0  0  0  0  0  0  0  0  0  0  0
  4  5  1  0
  4  6  1  0
  8  1  1  0
  8  4  1  0
  8  7  1  0
  9  4  1  0
 10  2  1  0
 10  3  1  0
 10  7  1  0
 10  9  1  0
 11  9  2  0
M  ISO  2   5   2   6   2
M  END
>  <NAME>  (2121) 
2,2,4-TRIMETHYLCYCLOPENTANONE (5,5-D2)

>  <SYNONYMS>  (2121) 


>  <SPECTRUM TYPE>  (2121) 
MS1

>  <INSTRUMENT TYPE>  (2121) 
EI-B

>  <INSTRUMENT>  (2121) 
HITACHI RMU-6M

>  <ION MODE>  (2121) 
P

>  <INCHIKEY>  (2121) 
PJXIBUIXCXSNCM-APZFVMQVSA-N

>  <FORMULA>  (2121) 
C8H14O

>  <EXACT MASS>  (2121) 
128.11701856

>  <MW>  (2121) 
128

>  <ID>  (2121) 
JP008947

>  <CONTRIBUTOR>  (2121) 
University of Tokyo Team, {Faculty of Engineering, University of Tokyo

>  <COMMENT>  (2121) 
SMILES=CC(C1)C([2H])([2H])C(=O)C(C)(C)1
InChI=InChI=1S/C8H14O/c1-6-4-7(9)8(2,3)5-6/h6H,4-5H2,1-3H3/i4D2
computed SMILES=[H]C1([H])C(=O)C(C)(C)CC1C
accession=JP008947
date=2016.01.19 (Created 2008.10.21, modified 2011.05.06)
author=YAMAMOTO M, DEP. CHEMISTRY, FAC. SCIENCE, NARA WOMEN'S UNIV.
license=CC BY-NC-SA
exact mass=126.10447
ionization energy=70 eV
ion type=[M]+*
computed spectral entropy=2.785105305667054
computed normalized entropy=0.7404831489944488
SPLASH=splash10-0a4i-9100000000-85a74e1774e66f35c46f
submitter=submitter = University of Tokyo Team (Faculty of Engineering, University of Tokyo)
MoNA Rating=3.75

>  <NUM PEAKS>  (2121) 
43

>  <MASS SPECTRAL PEAKS>  (2121) 
27 9.8
28 5.5
29 6.9
30 0.2
31 1.1
38 1.2
39 16.1
40 0.86
41 36.1
42 9.8
43 9.2
44 0.84
45 1.8
51 1.5
52 1
53 0.27
54 2
55 9.6
56 99.99
57 1.37
58 3.7
67 2.5
68 1.2
69 1.36
70 14.2
71 1.7
72 1.6
73 0.23
82 10.7
83 13.1
84 6.8
85 0.36
94 1.4
95 4.1
99 1.6
109 0.11
110 4.4
112 4.7
113 21.3
114 0.18
127 3.1
128 18.5
129 1.7

>  <PREDICTED SPECTRUM>  (2121) 
15 31
26 11
27 237
28 69
29 176
30 56
32 10
38 40
39 411
40 186
41 999
42 695
43 698
44 563
45 330
49 6
50 78
51 143
52 124
53 337
54 114
55 521
56 989
57 707
58 210
59 40
60 7
65 108
67 259
68 98
69 595
70 967
71 471
72 266
73 97
77 114
79 43
81 35
83 459
84 467
85 349
86 66
95 63
97 17
99 172
100 170
101 8
113 65
128 836
129 244

$$$$

     RDKit          2D

 11 11  0  0  0  0  0  0  0  0999 V2000
    0.0000    2.7800    0.0000 C   0  0  0  0  0  0  0  0  0  0  0  0
    2.2174   -1.3410    0.0000 C   0  0  0  0  0  0  0  0  0  0  0  0
    1.2100    0.3900    0.0000 C   0  0  0  0  0  0  0  0  0  0  0  0
   -1.2100    0.3900    0.0000 C   0  0  0  0  0  0  0  0  0  0  0  0
   -1.9647    1.6863    0.0000 H   0  0  0  0  0  0  0  0  0  0  0  0
   -2.5795   -0.2220    0.0000 H   0  0  0  0  0  0  0  0  0  0  0  0
    0.0000    1.2800    0.0000 C   0  0  0  0  0  0  0  0  0  0  0  0
    0.7500   -1.0300    0.0000 C   0  0  0  0  0  0  0  0  0  0  0  0
    0.5936   -2.5218    0.0000 H   0  0  0  0  0  0  0  0  0  0  0  0
   -0.7500   -1.0300    0.0000 C   0  0  0  0  0  0  0  0  0  0  0  0
   -1.6322   -2.2431    0.0000 O   0  0  0  0  0  0  0  0  0  0  0  0
  4  5  1  0
  4  6  1  0
  8  9  1  0
  7  1  1  0
  7  3  1  0
  7  4  1  0
  8  2  1  0
  8  3  1  0
 10  4  1  0
 10  8  1  0
 11 10  2  0
M  ISO  3   5   2   6   2   9   2
M  END
>  <NAME>  (2122) 
2,4-DIMETHYLCYCLOPENTANONE (2,5,5-D3)

>  <SYNONYMS>  (2122) 


>  <SPECTRUM TYPE>  (2122) 
MS1

>  <INSTRUMENT TYPE>  (2122) 
EI-B

>  <INSTRUMENT>  (2122) 
HITACHI RMU-6M

>  <ION MODE>  (2122) 
P

>  <INCHIKEY>  (2122) 
UKJQTRVEZWBIRE-HRMNUFNHSA-N

>  <FORMULA>  (2122) 
C7H12O

>  <EXACT MASS>  (2122) 
115.107645242

>  <MW>  (2122) 
115

>  <ID>  (2122) 
JP008946

>  <CONTRIBUTOR>  (2122) 
University of Tokyo Team, {Faculty of Engineering, University of Tokyo

>  <COMMENT>  (2122) 
SMILES=CC(C1)C([2H])([2H])C(=O)C([2H])(C)1
InChI=InChI=1S/C7H12O/c1-5-3-6(2)7(8)4-5/h5-6H,3-4H2,1-2H3/i4D2,6D
computed SMILES=[H]C1(C(=O)C([H])([H])C(C)C1)C
accession=JP008946
date=2016.01.19 (Created 2008.10.21, modified 2011.05.06)
author=YAMAMOTO M, DEP. CHEMISTRY, FAC. SCIENCE, NARA WOMEN'S UNIV.
license=CC BY-NC-SA
exact mass=112.08882
ionization energy=70 eV
ion type=[M]+*
computed spectral entropy=2.9976129870662014
computed normalized entropy=0.7550107277588844
SPLASH=splash10-0006-9000000000-0f23aa9b94bc89b92ec5
submitter=submitter = University of Tokyo Team (Faculty of Engineering, University of Tokyo)
MoNA Rating=3.75

>  <NUM PEAKS>  (2122) 
53

>  <MASS SPECTRAL PEAKS>  (2122) 
26 2.1
27 15.6
28 23
29 1.49
30 9.3
31 4.1
37 1.2
38 0.27
39 20
40 28.9
41 33.6
42 5.15
43 99.99
44 80.4
45 11.2
46 0.12
50 1.2
51 2.5
52 2.6
53 0.31
54 4.8
55 9.7
56 40.1
57 3.03
58 18.7
59 3.6
66 1.5
67 0.16
68 2.9
69 28.3
70 88.1
71 2.75
72 17.9
73 2.6
80 1
81 0.2
82 2
83 1
84 1.5
85 0.65
86 13.4
87 3.7
95 1
96 0.44
97 2.2
98 1.7
99 4.2
100 3.09
101 2.6
113 1.5
114 7
115 4.99
116 5

>  <PREDICTED SPECTRUM>  (2122) 
27 85
28 128
30 52
31 86
32 6
38 16
39 289
40 153
41 795
42 485
43 258
44 411
45 104
50 26
51 14
52 76
53 142
54 210
55 36
56 999
57 317
58 458
59 238
60 111
67 123
68 118
69 927
70 580
71 35
72 226
73 302
74 161
82 140
83 16
84 11
86 226
87 260
88 6
100 246
115 762
116 131

$$$$

     RDKit          2D

 11 11  0  0  0  0  0  0  0  0999 V2000
    2.4514    0.6951    0.0000 C   0  0  0  0  0  0  0  0  0  0  0  0
   -0.0400    1.6460    0.0000 C   0  0  0  0  0  0  0  0  0  0  0  0
   -1.4158    1.0431    0.0000 C   0  0  0  0  0  0  0  0  0  0  0  0
   -1.8765    2.4706    0.0000 H   0  0  0  0  0  0  0  0  0  0  0  0
   -2.8824    0.7284    0.0000 H   0  0  0  0  0  0  0  0  0  0  0  0
    0.2097   -0.7614    0.0000 C   0  0  0  0  0  0  0  0  0  0  0  0
   -0.2546   -2.1877    0.0000 H   0  0  0  0  0  0  0  0  0  0  0  0
    1.5799   -1.3719    0.0000 H   0  0  0  0  0  0  0  0  0  0  0  0
    0.9597    0.5377    0.0000 C   0  0  0  0  0  0  0  0  0  0  0  0
   -1.2500   -0.4498    0.0000 C   0  0  0  0  0  0  0  0  0  0  0  0
   -2.3622   -1.4562    0.0000 O   0  0  0  0  0  0  0  0  0  0  0  0
  3  4  1  0
  3  5  1  0
  6  7  1  0
  6  8  1  0
  3  2  1  0
  9  1  1  0
  9  2  1  0
  9  6  1  0
 10  3  1  0
 10  6  1  0
 11 10  2  0
M  ISO  4   4   2   5   2   7   2   8   2
M  END
>  <NAME>  (2123) 
3-METHYLCYCLOPENTANONE (2,2,5,5-D4)

>  <SYNONYMS>  (2123) 


>  <SPECTRUM TYPE>  (2123) 
MS1

>  <INSTRUMENT TYPE>  (2123) 
EI-B

>  <INSTRUMENT>  (2123) 
HITACHI RMU-6M

>  <ION MODE>  (2123) 
P

>  <INCHIKEY>  (2123) 
AOKRXIIIYJGNNU-KHORGVISSA-N

>  <FORMULA>  (2123) 
C6H10O

>  <EXACT MASS>  (2123) 
102.098271924

>  <MW>  (2123) 
102

>  <ID>  (2123) 
JP008945

>  <CONTRIBUTOR>  (2123) 
University of Tokyo Team, {Faculty of Engineering, University of Tokyo

>  <COMMENT>  (2123) 
SMILES=CC(C1)C([2H])([2H])C(=O)C([2H])([2H])1
InChI=InChI=1S/C6H10O/c1-5-2-3-6(7)4-5/h5H,2-4H2,1H3/i3D2,4D2
computed SMILES=[H]C1([H])C(=O)C([H])([H])C(C)C1
accession=JP008945
date=2016.01.19 (Created 2008.10.21, modified 2011.05.06)
author=YAMAMOTO M, DEP. CHEMISTRY, FAC. SCIENCE, NARA WOMEN'S UNIV.
license=CC BY-NC-SA
exact mass=98.07316
ionization energy=70 eV
ion type=[M]+*
computed spectral entropy=2.9142507607471946
computed normalized entropy=0.7900097568916612
SPLASH=splash10-0596-9100000000-70bfccdcd6575ab1802c
submitter=submitter = University of Tokyo Team (Faculty of Engineering, University of Tokyo)
MoNA Rating=3.75

>  <NUM PEAKS>  (2123) 
40

>  <MASS SPECTRAL PEAKS>  (2123) 
26 2.5
27 13.4
28 22.2
29 3.09
30 43.6
31 9.8
32 4
37 0.13
38 2.8
39 12.1
40 22.1
41 2.61
42 39.2
43 48.8
44 99.4
45 0.88
46 3
51 2.7
52 3
53 0.25
54 3.3
55 12.5
56 65.4
57 2.94
58 53.7
59 16.9
60 1.5
69 0.67
70 99.99
71 6.7
72 9.9
73 1.55
74 10
85 1.7
86 3.9
87 0.57
100 4.3
101 28.4
102 49.4
103 3.4

>  <PREDICTED SPECTRUM>  (2123) 
28 82
30 65
31 0
32 4
39 85
40 74
41 419
42 359
43 251
44 172
45 144
46 12
47 33
48 1
50 27
51 78
52 152
53 301
54 381
55 481
56 656
57 424
58 275
59 240
60 235
61 84
68 121
69 264
70 453
71 129
73 182
74 116
83 38
84 467
85 136
86 203
87 112
102 999
103 207
104 16

$$$$

     RDKit          2D

 10 10  0  0  0  0  0  0  0  0999 V2000
   -1.5498   -2.3970    0.0000 C   0  0  0  0  0  0  0  0  0  0  0  0
   -0.1851    1.1908    0.0000 C   0  0  0  0  0  0  0  0  0  0  0  0
   -1.5608    0.5879    0.0000 C   0  0  0  0  0  0  0  0  0  0  0  0
    0.8147    0.0824    0.0000 C   0  0  0  0  0  0  0  0  0  0  0  0
    2.0285   -0.7989    0.0000 H   0  0  0  0  0  0  0  0  0  0  0  0
    1.8177    1.1977    0.0000 H   0  0  0  0  0  0  0  0  0  0  0  0
   -1.3951   -0.9050    0.0000 C   0  0  0  0  0  0  0  0  0  0  0  0
   -2.8950   -0.9104    0.0000 H   0  0  0  0  0  0  0  0  0  0  0  0
    0.0647   -1.2166    0.0000 C   0  0  0  0  0  0  0  0  0  0  0  0
    0.6742   -2.5872    0.0000 O   0  0  0  0  0  0  0  0  0  0  0  0
  4  5  1  0
  4  6  1  0
  7  8  1  0
  3  2  1  0
  4  2  1  0
  7  1  1  0
  7  3  1  0
  9  4  1  0
  9  7  1  0
 10  9  2  0
M  ISO  3   5   2   6   2   8   2
M  END
>  <NAME>  (2124) 
2-METHYLCYCLOPENTANONE (2,5,5-D3)

>  <SYNONYMS>  (2124) 


>  <SPECTRUM TYPE>  (2124) 
MS1

>  <INSTRUMENT TYPE>  (2124) 
EI-B

>  <INSTRUMENT>  (2124) 
HITACHI RMU-6M

>  <ION MODE>  (2124) 
P

>  <INCHIKEY>  (2124) 
ZIXLDMFVRPABBX-AFBAWBIXSA-N

>  <FORMULA>  (2124) 
C6H10O

>  <EXACT MASS>  (2124) 
101.091995178

>  <MW>  (2124) 
101

>  <ID>  (2124) 
JP008944

>  <CONTRIBUTOR>  (2124) 
University of Tokyo Team, {Faculty of Engineering, University of Tokyo

>  <COMMENT>  (2124) 
SMILES=[2H]C([2H])(C1)C(=O)C([2H])(C)C1
InChI=InChI=1S/C6H10O/c1-5-3-2-4-6(5)7/h5H,2-4H2,1H3/i4D2,5D
computed SMILES=[H]C1(C(=O)C([H])([H])CC1)C
accession=JP008944
date=2016.01.19 (Created 2008.10.21, modified 2011.05.06)
author=YAMAMOTO M, DEP. CHEMISTRY, FAC. SCIENCE, NARA WOMEN'S UNIV.
license=CC BY-NC-SA
exact mass=98.07316
ionization energy=70 eV
ion type=[M]+*
computed spectral entropy=2.8583176667025545
computed normalized entropy=0.774847132376441
SPLASH=splash10-0006-9100000000-e63dd085d61c104055e9
submitter=submitter = University of Tokyo Team (Faculty of Engineering, University of Tokyo)
MoNA Rating=3.75

>  <NUM PEAKS>  (2124) 
40

>  <MASS SPECTRAL PEAKS>  (2124) 
26 2
27 9.2
28 16
29 1.18
30 18.2
31 3.4
32 1
38 0.18
39 8.9
40 14.3
41 16.7
42 2.92
43 99.99
44 21.5
45 6.4
46 0.15
50 1
51 1.4
52 1.6
53 0.14
54 2.3
55 6.6
56 25.3
57 1.83
58 15.1
59 1.5
69 20
70 0.87
71 18.4
72 7.4
73 7.1
82 0.22
83 4.1
84 1.1
85 3.5
86 0.93
99 1.2
100 6.4
101 42.1
102 3.1

>  <PREDICTED SPECTRUM>  (2124) 
26 34
27 142
28 46
29 38
38 53
39 369
40 213
41 731
42 307
43 211
44 311
45 251
46 196
47 95
49 10
50 69
51 153
52 223
53 434
54 287
55 426
56 352
57 135
58 269
59 209
60 63
61 127
62 15
63 130
65 73
67 652
68 812
69 718
70 414
71 26
72 442
73 359
74 81
82 124
83 196
84 13
86 285
87 17
100 34
101 999
102 246
103 121

$$$$

     RDKit          2D

 10 10  0  0  0  0  0  0  0  0999 V2000
    0.7700   -1.4900    0.0000 C   0  0  0  0  0  0  0  0  0  0  0  0
   -0.7300   -1.4900    0.0000 C   0  0  0  0  0  0  0  0  0  0  0  0
    1.2000   -0.0500    0.0000 C   0  0  0  0  0  0  0  0  0  0  0  0
    2.5819   -0.6333    0.0000 H   0  0  0  0  0  0  0  0  0  0  0  0
    1.9305    1.2601    0.0000 H   0  0  0  0  0  0  0  0  0  0  0  0
   -1.2100   -0.0900    0.0000 C   0  0  0  0  0  0  0  0  0  0  0  0
   -1.9800    1.1973    0.0000 H   0  0  0  0  0  0  0  0  0  0  0  0
   -2.5705   -0.7217    0.0000 H   0  0  0  0  0  0  0  0  0  0  0  0
   -0.0100    0.8100    0.0000 C   0  0  0  0  0  0  0  0  0  0  0  0
   -0.0292    2.3099    0.0000 O   0  0  0  0  0  0  0  0  0  0  0  0
  3  4  1  0
  3  5  1  0
  6  7  1  0
  6  8  1  0
  2  1  1  0
  3  1  1  0
  6  2  1  0
  9  3  1  0
  9  6  1  0
 10  9  2  0
M  ISO  4   4   2   5   2   7   2   8   2
M  END
>  <NAME>  (2125) 
CYCLOPENTANONE (2,2,5,5-D4)

>  <SYNONYMS>  (2125) 


>  <SPECTRUM TYPE>  (2125) 
MS1

>  <INSTRUMENT TYPE>  (2125) 
EI-B

>  <INSTRUMENT>  (2125) 
HITACHI RMU-6M

>  <ION MODE>  (2125) 
P

>  <INCHIKEY>  (2125) 
BGTOWKSIORTVQH-KHORGVISSA-N

>  <FORMULA>  (2125) 
C5H8O

>  <EXACT MASS>  (2125) 
88.08262186

>  <MW>  (2125) 
88

>  <ID>  (2125) 
JP008943

>  <CONTRIBUTOR>  (2125) 
University of Tokyo Team, {Faculty of Engineering, University of Tokyo

>  <COMMENT>  (2125) 
SMILES=[2H]C([2H])(C1)C(=O)C([2H])([2H])C1
InChI=InChI=1S/C5H8O/c6-5-3-1-2-4-5/h1-4H2/i3D2,4D2
computed SMILES=[H]C1([H])C(=O)C([H])([H])CC1
accession=JP008943
date=2016.01.19 (Created 2008.10.21, modified 2011.05.06)
author=YAMAMOTO M, DEP. CHEMISTRY, FAC. SCIENCE, NARA WOMEN'S UNIV.
license=CC BY-NC-SA
exact mass=84.05751
ionization energy=70 eV
ion type=[M]+*
computed spectral entropy=2.4620257907489904
computed normalized entropy=0.755663855265653
SPLASH=splash10-0a5c-9000000000-b716805bbbc2ee7bbdd9
submitter=submitter = University of Tokyo Team (Faculty of Engineering, University of Tokyo)
MoNA Rating=3.75

>  <NUM PEAKS>  (2125) 
26

>  <MASS SPECTRAL PEAKS>  (2125) 
26 2.8
27 9.3
28 14.7
29 1.62
30 65.8
31 6.9
32 4.4
38 0.21
39 6.2
40 9.3
41 12.8
42 1.26
43 25.5
44 20.7
45 3.2
46 0.21
55 5.1
56 99.99
57 5.8
58 2.8
59 9.7
60 10.4
86 3
87 0.85
88 49.5
89 3.4

>  <PREDICTED SPECTRUM>  (2125) 
26 31
27 16
28 59
30 34
40 155
42 259
43 250
51 74
52 209
53 244
54 438
55 464
56 385
57 86
58 2
59 119
60 100
67 637
68 188
70 164
72 108
88 999
89 159
90 1

$$$$

     RDKit          2D

  2  1  0  0  0  0  0  0  0  0999 V2000
    0.0000    0.0000    0.0000 C   0  0  0  0  0  0  0  0  0  0  0  0
    1.5000    0.0000    0.0000 I   0  0  0  0  0  0  0  0  0  0  0  0
  2  1  1  0
M  END
>  <NAME>  (2126) 
METHYL IODIDE

>  <SYNONYMS>  (2126) 


>  <SPECTRUM TYPE>  (2126) 
MS1

>  <INSTRUMENT TYPE>  (2126) 
EI-B

>  <INSTRUMENT>  (2126) 
HITACHI RMU-6M

>  <ION MODE>  (2126) 
P

>  <INCHIKEY>  (2126) 
INQOMBQAUSQDDS-UHFFFAOYSA-N

>  <FORMULA>  (2126) 
CH3I

>  <EXACT MASS>  (2126) 
141.927948096

>  <MW>  (2126) 
142

>  <ID>  (2126) 
JP008923

>  <CONTRIBUTOR>  (2126) 
University of Tokyo Team, {Faculty of Engineering, University of Tokyo

>  <COMMENT>  (2126) 
SMILES=CI
InChI=InChI=1S/CH3I/c1-2/h1H3
computed SMILES=IC
accession=JP008923
date=2016.01.19 (Created 2008.10.21, modified 2011.05.06)
author=YAMAMOTO M, DEP. CHEMISTRY, FAC. SCIENCE, NARA WOMEN'S UNIV.
license=CC BY-NC-SA
exact mass=141.92794
ionization energy=70 eV
ion type=[M]+*
computed spectral entropy=1.2030898893873008
computed normalized entropy=0.5224953001944983
SPLASH=splash10-0006-3900000000-01af917e6a69759330f0
submitter=submitter = University of Tokyo Team (Faculty of Engineering, University of Tokyo)
MoNA Rating=3.75

>  <NUM PEAKS>  (2126) 
10

>  <MASS SPECTRAL PEAKS>  (2126) 
14 2.6
15 48.9
63.5 1.3
127 4.11
128 2.8
139 5
140 4.2
141 1.47
142 99.99
143 1.4

>  <PREDICTED SPECTRUM>  (2126) 
14 80
15 164
19 0
25 51
26 87
27 207
28 124
29 83
31 144
36 12
37 47
38 100
41 13
53 38
111 236
113 2
123 47
125 96
127 555
140 38
141 296
142 999
143 155
144 6

$$$$

     RDKit          2D

  5  4  0  0  0  0  0  0  0  0999 V2000
   -0.0000   -0.0000    0.0000 C   0  0  0  0  0  0  0  0  0  0  0  0
   -1.2990    3.7500    0.0000 C   0  0  0  0  0  0  0  0  0  0  0  0
    0.0000    1.5000    0.0000 C   0  0  0  0  0  0  0  0  0  0  0  0
   -1.2990    2.2500    0.0000 C   0  0  0  0  0  0  0  0  0  0  0  0
   -2.5981    1.5000    0.0000 Br  0  0  0  0  0  0  0  0  0  0  0  0
  3  1  1  0
  4  2  1  0
  4  3  1  0
  5  4  1  0
M  END
>  <NAME>  (2127) 
SEC-BUTYL BROMIDE

>  <SYNONYMS>  (2127) 


>  <SPECTRUM TYPE>  (2127) 
MS1

>  <INSTRUMENT TYPE>  (2127) 
EI-B

>  <INSTRUMENT>  (2127) 
HITACHI RMU-6M

>  <ION MODE>  (2127) 
P

>  <INCHIKEY>  (2127) 
UPSXAPQYNGXVBF-UHFFFAOYSA-N

>  <FORMULA>  (2127) 
C4H9Br

>  <EXACT MASS>  (2127) 
135.988762388

>  <MW>  (2127) 
136

>  <ID>  (2127) 
JP008922

>  <CONTRIBUTOR>  (2127) 
University of Tokyo Team, {Faculty of Engineering, University of Tokyo

>  <COMMENT>  (2127) 
SMILES=CCC(C)Br
InChI=InChI=1S/C4H9Br/c1-3-4(2)5/h4H,3H2,1-2H3
computed SMILES=BrC(C)CC
accession=JP008922
date=2016.01.19 (Created 2008.10.21, modified 2011.05.06)
author=YAMAMOTO M, DEP. CHEMISTRY, FAC. SCIENCE, NARA WOMEN'S UNIV.
license=CC BY-NC-SA
exact mass=135.98876
ionization energy=70 eV
ion type=[M]+*
computed spectral entropy=1.7926708819538197
computed normalized entropy=0.5799567327217203
SPLASH=splash10-0a6u-9000000000-615dd4e1e3d4c1a514a7
submitter=submitter = University of Tokyo Team (Faculty of Engineering, University of Tokyo)
MoNA Rating=3.75

>  <NUM PEAKS>  (2127) 
22

>  <MASS SPECTRAL PEAKS>  (2127) 
15 1.2
26 4.2
27 19.9
28 0.57
29 48.2
30 1.3
38 2
39 1.31
40 1.6
41 54.6
42 2.5
50 0.18
51 1.3
53 1.6
55 4.7
56 0.89
57 99.99
58 4.1
107 1.2
109 0.1
136 1.2
138 1.2

>  <PREDICTED SPECTRUM>  (2127) 
14 50
15 183
25 20
26 239
27 707
28 317
29 511
38 90
39 546
40 189
41 944
42 422
43 168
44 17
50 23
51 38
52 65
53 252
54 86
56 373
57 925
58 113
78 7
80 11
81 16
92 81
94 187
95 5
96 62
107 999
108 437
109 914
110 204
121 11
123 182
136 467
137 131
138 477
139 40

$$$$

     RDKit          2D

  3  2  0  0  0  0  0  0  0  0999 V2000
   -1.2990    0.0000    0.0000 C   0  0  0  0  0  0  0  0  0  0  0  0
   -0.0000    0.7500    0.0000 C   0  0  0  0  0  0  0  0  0  0  0  0
    0.0000    2.2500    0.0000 Br  0  0  0  0  0  0  0  0  0  0  0  0
  2  1  1  0
  3  2  1  0
M  END
>  <NAME>  (2128) 
ETHYL BROMIDE

>  <SYNONYMS>  (2128) 


>  <SPECTRUM TYPE>  (2128) 
MS1

>  <INSTRUMENT TYPE>  (2128) 
EI-B

>  <INSTRUMENT>  (2128) 
HITACHI RMU-6M

>  <ION MODE>  (2128) 
P

>  <INCHIKEY>  (2128) 
RDHPKYGYEGBMSE-UHFFFAOYSA-N

>  <FORMULA>  (2128) 
C2H5Br

>  <EXACT MASS>  (2128) 
107.95746226

>  <MW>  (2128) 
108

>  <ID>  (2128) 
JP008921

>  <CONTRIBUTOR>  (2128) 
University of Tokyo Team, {Faculty of Engineering, University of Tokyo

>  <COMMENT>  (2128) 
SMILES=CCBr
InChI=InChI=1S/C2H5Br/c1-2-3/h2H2,1H3
computed SMILES=BrCC
accession=JP008921
date=2016.01.19 (Created 2008.10.21, modified 2011.05.06)
author=YAMAMOTO M, DEP. CHEMISTRY, FAC. SCIENCE, NARA WOMEN'S UNIV.
license=CC BY-NC-SA
exact mass=107.95746
ionization energy=70 eV
ion type=[M]+*
computed spectral entropy=1.8210439811005124
computed normalized entropy=0.6184689151262504
SPLASH=splash10-004i-9200000000-a13892a99e7919e54596
submitter=submitter = University of Tokyo Team (Faculty of Engineering, University of Tokyo)
MoNA Rating=3.75

>  <NUM PEAKS>  (2128) 
19

>  <MASS SPECTRAL PEAKS>  (2128) 
14 3.3
15 2.9
25 4
26 2.63
27 81.3
28 19
29 99.99
30 0.24
79 4.3
80 1.7
81 4.1
82 0.16
93 3.4
95 2.9
107 1.2
108 5.71
109 1.7
110 56.3
111 1.6

>  <PREDICTED SPECTRUM>  (2128) 
14 123
15 280
25 89
26 413
27 827
28 548
29 649
37 141
38 204
39 804
40 336
41 796
42 433
50 143
51 197
52 101
53 76
54 78
68 69
79 830
80 782
81 999
82 686
83 31
93 246
95 465
108 852
109 289
110 934
111 71

$$$$

     RDKit          2D

  9  9  0  0  0  0  0  0  0  0999 V2000
    0.9742   -0.9383    0.0000 C   0  0  0  0  0  0  0  0  0  0  0  0
    2.2732   -0.1883    0.0000 C   0  0  0  0  0  0  0  0  0  0  0  0
   -0.3253   -0.1874    0.0000 C   0  0  0  0  0  0  0  0  0  0  0  0
    2.2727    1.3126    0.0000 C   0  0  0  0  0  0  0  0  0  0  0  0
   -1.6250    2.0632    0.0000 C   0  0  0  0  0  0  0  0  0  0  0  0
   -0.3258    1.3134    0.0000 C   0  0  0  0  0  0  0  0  0  0  0  0
    0.9732    2.0634    0.0000 C   0  0  0  0  0  0  0  0  0  0  0  0
   -2.9239    1.3130    0.0000 O   0  0  0  0  0  0  0  0  0  0  0  0
    0.9735    3.5634    0.0000 O   0  0  0  0  0  0  0  0  0  0  0  0
  2  1  2  0
  3  1  1  0
  4  2  1  0
  6  3  2  0
  6  5  1  0
  7  4  2  0
  7  6  1  0
  8  5  2  0
  9  7  1  0
M  END
>  <NAME>  (2129) 
SALICYLALDEHYDE

>  <SYNONYMS>  (2129) 


>  <SPECTRUM TYPE>  (2129) 
MS1

>  <INSTRUMENT TYPE>  (2129) 
EI-B

>  <INSTRUMENT>  (2129) 
HITACHI RMU-6M

>  <ION MODE>  (2129) 
P

>  <INCHIKEY>  (2129) 
SMQUZDBALVYZAC-UHFFFAOYSA-N

>  <FORMULA>  (2129) 
C7H6O2

>  <EXACT MASS>  (2129) 
122.036779432

>  <MW>  (2129) 
122

>  <ID>  (2129) 
JP008920

>  <CONTRIBUTOR>  (2129) 
University of Tokyo Team, {Faculty of Engineering, University of Tokyo

>  <COMMENT>  (2129) 
SMILES=O=Cc(c1)c(O)ccc1
InChI=InChI=1S/C7H6O2/c8-5-6-3-1-2-4-7(6)9/h1-5,9H
computed SMILES=O=CC=1C=CC=CC1O
accession=JP008920
date=2016.01.19 (Created 2008.10.21, modified 2011.05.06)
author=YAMAMOTO M, DEP. CHEMISTRY, FAC. SCIENCE, NARA WOMEN'S UNIV.
license=CC BY-NC-SA
exact mass=122.03678
ionization energy=70 eV
ion type=[M]+*
computed spectral entropy=2.8992133533095306
computed normalized entropy=0.753013560316969
SPLASH=splash10-00dr-9500000000-e18d8d6fc6476767e239
submitter=submitter = University of Tokyo Team (Faculty of Engineering, University of Tokyo)
MoNA Rating=3.75

>  <NUM PEAKS>  (2129) 
47

>  <MASS SPECTRAL PEAKS>  (2129) 
25 1
26 2.9
27 5.7
28 0.34
29 8.6
31 1.4
37 8.4
38 1.58
39 53.9
40 9.8
41 1.4
42 0.14
43 1.9
46 1.4
47 4.5
49 0.27
50 13.7
51 8.7
52 1.2
53 0.98
54 1
55 3.9
60 1
61 0.6
62 7.9
63 14.9
64 6.8
65 4.54
66 15.4
67 1.7
68 1.4
70 0.1
73 1.7
74 4.8
75 3.3
76 2.71
77 3.3
92 4.3
93 24.3
94 1.03
104 17.1
105 1.7
120 5
121 9.52
122 99.99
123 7.7
124 1

>  <PREDICTED SPECTRUM>  (2129) 
25 5
26 53
27 85
28 26
29 163
37 130
38 214
39 377
40 102
44 56
45 5
49 46
50 297
51 409
52 115
53 230
54 19
61 108
62 185
63 331
64 194
65 493
66 247
67 35
68 37
73 82
74 148
75 161
76 229
77 376
78 176
92 212
93 683
94 317
95 26
104 69
105 40
120 37
121 910
122 999
123 306
124 38

$$$$

     RDKit          2D

 10  9  0  0  0  0  0  0  0  0999 V2000
   -2.9228    1.3125    0.0000 C   0  0  0  0  0  0  0  0  0  0  0  0
    2.2733    2.8125    0.0000 C   0  0  0  0  0  0  0  0  0  0  0  0
    0.9743    5.0625    0.0000 C   0  0  0  0  0  0  0  0  0  0  0  0
   -5.5209    2.8125    0.0000 C   0  0  0  0  0  0  0  0  0  0  0  0
   -4.2219    5.0625    0.0000 C   0  0  0  0  0  0  0  0  0  0  0  0
   -1.6238    3.5625    0.0000 C   0  0  0  0  0  0  0  0  0  0  0  0
   -0.3248    2.8125    0.0000 C   0  0  0  0  0  0  0  0  0  0  0  0
   -2.9228    2.8125    0.0000 C   0  0  0  0  0  0  0  0  0  0  0  0
    0.9743    3.5625    0.0000 N   0  0  0  0  0  0  0  0  0  0  0  0
   -4.2219    3.5625    0.0000 N   0  0  0  0  0  0  0  0  0  0  0  0
  7  6  1  0
  8  1  1  0
  8  6  1  0
  9  2  1  0
  9  3  1  0
  9  7  1  0
 10  4  1  0
 10  5  1  0
 10  8  1  0
M  END
>  <NAME>  (2130) 
N,N,N',N'-TETRAMETHYL-1,3-DIAMINOBUTANE

>  <SYNONYMS>  (2130) 


>  <SPECTRUM TYPE>  (2130) 
MS1

>  <INSTRUMENT TYPE>  (2130) 
EI-B

>  <INSTRUMENT>  (2130) 
HITACHI RMU-6M

>  <ION MODE>  (2130) 
P

>  <INCHIKEY>  (2130) 
AXFVIWBTKYFOCY-UHFFFAOYSA-N

>  <FORMULA>  (2130) 
C8H20N2

>  <EXACT MASS>  (2130) 
144.16264864

>  <MW>  (2130) 
144

>  <ID>  (2130) 
JP008914

>  <CONTRIBUTOR>  (2130) 
University of Tokyo Team, {Faculty of Engineering, University of Tokyo

>  <COMMENT>  (2130) 
SMILES=CN(C)CCC(C)N(C)C
InChI=InChI=1S/C8H20N2/c1-8(10(4)5)6-7-9(2)3/h8H,6-7H2,1-5H3
computed SMILES=N(C)(C)CCC(N(C)C)C
accession=JP008914
date=2016.01.19 (Created 2008.10.21, modified 2011.05.06)
author=YAMAMOTO M, DEP. CHEMISTRY, FAC. SCIENCE, NARA WOMEN'S UNIV.
license=CC BY-NC-SA
exact mass=144.16265
ionization energy=70 eV
ion type=[M]+*
computed spectral entropy=2.4118700952676395
computed normalized entropy=0.7238061433212651
SPLASH=splash10-05fr-9000000000-8e1cad5e61b3faab039b
submitter=submitter = University of Tokyo Team (Faculty of Engineering, University of Tokyo)
MoNA Rating=3.75

>  <NUM PEAKS>  (2130) 
28

>  <MASS SPECTRAL PEAKS>  (2130) 
15 6.1
27 3.6
28 4.3
29 0.5
30 6.8
39 2.5
41 3.6
42 2.73
43 6.5
44 14
45 3.1
55 0.36
56 12.8
57 8.6
58 89.8
59 0.36
68 1.6
70 8.3
71 10.4
72 99.99
73 5.4
84 51.8
85 4.1
86 0.36
98 7.2
99 42.3
100 3.2
144 5.8

>  <PREDICTED SPECTRUM>  (2130) 
14 4
15 39
26 0
27 39
28 70
29 77
30 141
39 66
40 60
41 183
42 343
43 150
44 181
45 137
46 47
52 6
53 15
54 95
55 159
56 218
57 189
58 999
59 131
68 14
69 84
70 191
71 198
72 527
73 131
81 6
82 100
83 77
84 184
85 99
86 102
87 33
98 47
99 105
100 86
101 26
129 76
143 39
144 113
145 23

$$$$

     RDKit          2D

 12 11  0  0  0  0  0  0  0  0999 V2000
    3.2476    4.8750    0.0000 C   0  0  0  0  0  0  0  0  0  0  0  0
    1.9486    7.1250    0.0000 C   0  0  0  0  0  0  0  0  0  0  0  0
   -8.4437    5.6250    0.0000 C   0  0  0  0  0  0  0  0  0  0  0  0
   -7.1447    3.3750    0.0000 C   0  0  0  0  0  0  0  0  0  0  0  0
   -1.9486    4.8750    0.0000 C   0  0  0  0  0  0  0  0  0  0  0  0
   -3.2476    5.6250    0.0000 C   0  0  0  0  0  0  0  0  0  0  0  0
   -0.6495    5.6250    0.0000 C   0  0  0  0  0  0  0  0  0  0  0  0
   -4.5466    4.8750    0.0000 C   0  0  0  0  0  0  0  0  0  0  0  0
    0.6495    4.8750    0.0000 C   0  0  0  0  0  0  0  0  0  0  0  0
   -5.8457    5.6250    0.0000 C   0  0  0  0  0  0  0  0  0  0  0  0
    1.9486    5.6250    0.0000 N   0  0  0  0  0  0  0  0  0  0  0  0
   -7.1447    4.8750    0.0000 N   0  0  0  0  0  0  0  0  0  0  0  0
  6  5  1  0
  7  5  1  0
  8  6  1  0
  9  7  1  0
 10  8  1  0
 11  1  1  0
 11  2  1  0
 11  9  1  0
 12  3  1  0
 12  4  1  0
 12 10  1  0
M  END
>  <NAME>  (2131) 
N,N,N',N'-TETRAMETHYL-1,6-DIAMINOHEXANE

>  <SYNONYMS>  (2131) 


>  <SPECTRUM TYPE>  (2131) 
MS1

>  <INSTRUMENT TYPE>  (2131) 
EI-B

>  <INSTRUMENT>  (2131) 
HITACHI RMU-6M

>  <ION MODE>  (2131) 
P

>  <INCHIKEY>  (2131) 
TXXWBTOATXBWDR-UHFFFAOYSA-N

>  <FORMULA>  (2131) 
C10H24N2

>  <EXACT MASS>  (2131) 
172.19394876799998

>  <MW>  (2131) 
172

>  <ID>  (2131) 
JP008913

>  <CONTRIBUTOR>  (2131) 
University of Tokyo Team, {Faculty of Engineering, University of Tokyo

>  <COMMENT>  (2131) 
SMILES=CN(C)CCCCCCN(C)C
InChI=InChI=1S/C10H24N2/c1-11(2)9-7-5-6-8-10-12(3)4/h5-10H2,1-4H3
computed SMILES=N(C)(C)CCCCCCN(C)C
accession=JP008913
date=2016.01.19 (Created 2008.10.21, modified 2011.05.06)
license=CC BY-NC-SA
author=YAMAMOTO M, DEP. CHEMISTRY, FAC. SCIENCE, NARA WOMEN'S UNIV.
exact mass=172.19395
ionization energy=70 eV
ion type=[M]+*
computed spectral entropy=1.626185222305649
computed normalized entropy=0.5052028443415442
SPLASH=splash10-0a4i-9000000000-a6a8bae13b1fbfdce177
submitter=submitter = University of Tokyo Team (Faculty of Engineering, University of Tokyo)
MoNA Rating=3.75

>  <NUM PEAKS>  (2131) 
25

>  <MASS SPECTRAL PEAKS>  (2131) 
15 1.4
27 1.1
28 2
29 0.2
30 3.1
41 2.9
42 8.3
43 0.23
44 4.1
45 3.5
46 1.3
55 0.16
56 2
57 1.7
58 99.99
59 0.38
70 1.4
71 1.6
84 5.7
112 0.2
114 4.4
126 1.6
127 2.1
128 0.44
172 3.3

>  <PREDICTED SPECTRUM>  (2131) 
15 25
26 21
27 73
28 65
29 97
30 173
39 133
40 92
41 218
42 393
43 230
44 250
45 179
46 85
49 15
52 2
53 93
54 99
55 180
56 226
57 199
58 999
59 245
67 68
68 79
69 128
70 220
71 238
72 145
73 58
81 78
82 125
83 136
84 292
85 138
86 86
87 17
96 78
97 69
98 163
99 62
100 202
101 106
108 6
112 21
113 4
114 174
115 79
124 47
126 78
127 100
128 172
129 79
157 159
158 49
171 86
172 166
173 131
174 55

$$$$

     RDKit          2D

  9  8  0  0  0  0  0  0  0  0999 V2000
    2.2733    2.8125    0.0000 C   0  0  0  0  0  0  0  0  0  0  0  0
    0.9743    5.0625    0.0000 C   0  0  0  0  0  0  0  0  0  0  0  0
   -5.5209    2.8125    0.0000 C   0  0  0  0  0  0  0  0  0  0  0  0
   -4.2219    5.0625    0.0000 C   0  0  0  0  0  0  0  0  0  0  0  0
   -1.6238    3.5625    0.0000 C   0  0  0  0  0  0  0  0  0  0  0  0
   -0.3248    2.8125    0.0000 C   0  0  0  0  0  0  0  0  0  0  0  0
   -2.9228    2.8125    0.0000 C   0  0  0  0  0  0  0  0  0  0  0  0
    0.9743    3.5625    0.0000 N   0  0  0  0  0  0  0  0  0  0  0  0
   -4.2219    3.5625    0.0000 N   0  0  0  0  0  0  0  0  0  0  0  0
  6  5  1  0
  7  5  1  0
  8  1  1  0
  8  2  1  0
  8  6  1  0
  9  3  1  0
  9  4  1  0
  9  7  1  0
M  END
>  <NAME>  (2132) 
N,N,N',N'-TETRAMETHYL-1,3-DIAMINOPROPANE

>  <SYNONYMS>  (2132) 


>  <SPECTRUM TYPE>  (2132) 
MS1

>  <INSTRUMENT TYPE>  (2132) 
EI-B

>  <INSTRUMENT>  (2132) 
HITACHI RMU-6M

>  <ION MODE>  (2132) 
P

>  <INCHIKEY>  (2132) 
DMQSHEKGGUOYJS-UHFFFAOYSA-N

>  <FORMULA>  (2132) 
C7H18N2

>  <EXACT MASS>  (2132) 
130.146998576

>  <MW>  (2132) 
130

>  <ID>  (2132) 
JP008911

>  <CONTRIBUTOR>  (2132) 
University of Tokyo Team, {Faculty of Engineering, University of Tokyo

>  <COMMENT>  (2132) 
SMILES=CN(C)CCCN(C)C
InChI=InChI=1S/C7H18N2/c1-8(2)6-5-7-9(3)4/h5-7H2,1-4H3
computed SMILES=N(C)(C)CCCN(C)C
accession=JP008911
date=2016.01.19 (Created 2008.10.21, modified 2011.05.06)
author=YAMAMOTO M, DEP. CHEMISTRY, FAC. SCIENCE, NARA WOMEN'S UNIV.
license=CC BY-NC-SA
exact mass=130.147
ionization energy=70 eV
ion type=[M]+*
computed spectral entropy=2.0742742222999984
computed normalized entropy=0.6813134948846233
SPLASH=splash10-0a4i-9000000000-767f2fa77b6acd700e7f
submitter=submitter = University of Tokyo Team (Faculty of Engineering, University of Tokyo)
MoNA Rating=3.75

>  <NUM PEAKS>  (2132) 
21

>  <MASS SPECTRAL PEAKS>  (2132) 
15 5.1
27 1.9
28 3.5
29 0.23
30 6.3
39 1.9
41 3.4
42 2.14
43 6.5
44 13.3
56 3.3
57 0.61
58 99.99
59 4.3
70 27.4
71 0.4
72 6.3
84 14.9
85 34.6
86 0.25
130 4.1

>  <PREDICTED SPECTRUM>  (2132) 
14 0
15 29
26 48
27 115
28 119
29 144
30 182
32 4
38 28
39 139
40 112
41 233
42 441
43 232
44 253
45 159
46 70
49 0
52 41
53 72
54 143
55 169
56 292
57 158
58 999
59 244
67 5
68 93
69 49
70 272
71 210
72 294
73 80
80 0
81 66
82 82
83 72
84 393
85 291
86 202
87 55
88 16
96 9
97 48
114 7
115 40
127 1
128 3
129 73
130 305
131 61

$$$$

     RDKit          2D

 12 11  0  0  0  0  0  0  0  0999 V2000
    3.2476    5.6250    0.0000 C   0  0  0  0  0  0  0  0  0  0  0  0
   -9.7428    5.6250    0.0000 C   0  0  0  0  0  0  0  0  0  0  0  0
    1.9486    6.3750    0.0000 C   0  0  0  0  0  0  0  0  0  0  0  0
   -8.4437    6.3750    0.0000 C   0  0  0  0  0  0  0  0  0  0  0  0
    0.6495    5.6250    0.0000 C   0  0  0  0  0  0  0  0  0  0  0  0
   -7.1447    5.6250    0.0000 C   0  0  0  0  0  0  0  0  0  0  0  0
   -0.6495    6.3750    0.0000 C   0  0  0  0  0  0  0  0  0  0  0  0
   -5.8457    6.3750    0.0000 C   0  0  0  0  0  0  0  0  0  0  0  0
   -1.9486    5.6250    0.0000 C   0  0  0  0  0  0  0  0  0  0  0  0
   -4.5466    5.6250    0.0000 C   0  0  0  0  0  0  0  0  0  0  0  0
   -3.2476    6.3750    0.0000 C   0  0  0  0  0  0  0  0  0  0  0  0
   -3.2476    7.8750    0.0000 O   0  0  0  0  0  0  0  0  0  0  0  0
  3  1  1  0
  4  2  1  0
  5  3  1  0
  6  4  1  0
  7  5  1  0
  8  6  1  0
  9  7  1  0
 10  8  1  0
 11  9  1  0
 11 10  1  0
 12 11  2  0
M  END
>  <NAME>  (2133) 
6-UNDECANONE

>  <SYNONYMS>  (2133) 
DIPENTYL KETONE

>  <SPECTRUM TYPE>  (2133) 
MS1

>  <INSTRUMENT TYPE>  (2133) 
EI-B

>  <INSTRUMENT>  (2133) 
HITACHI RMU-6M

>  <ION MODE>  (2133) 
P

>  <INCHIKEY>  (2133) 
ZPQAKYPOZRXKFA-UHFFFAOYSA-N

>  <FORMULA>  (2133) 
C11H22O

>  <EXACT MASS>  (2133) 
170.167065324

>  <MW>  (2133) 
170

>  <ID>  (2133) 
JP008910

>  <CONTRIBUTOR>  (2133) 
University of Tokyo Team, {Faculty of Engineering, University of Tokyo

>  <COMMENT>  (2133) 
SMILES=CCCCCC(=O)CCCCC
InChI=InChI=1S/C11H22O/c1-3-5-7-9-11(12)10-8-6-4-2/h3-10H2,1-2H3
computed SMILES=O=C(CCCCC)CCCCC
accession=JP008910
date=2016.01.19 (Created 2008.10.21, modified 2011.05.06)
author=YAMAMOTO M, DEP. CHEMISTRY, FAC. SCIENCE, NARA WOMEN'S UNIV.
license=CC BY-NC-SA
exact mass=170.16707
ionization energy=70 eV
ion type=[M]+*
computed spectral entropy=2.6041528546935777
computed normalized entropy=0.7159013533550113
SPLASH=splash10-05bg-9000000000-22e85b5da08a296e5364
submitter=submitter = University of Tokyo Team (Faculty of Engineering, University of Tokyo)
MoNA Rating=3.75

>  <NUM PEAKS>  (2133) 
38

>  <MASS SPECTRAL PEAKS>  (2133) 
15 1.3
26 1.1
27 21.5
28 0.55
29 31
39 11.5
40 2.1
41 3.09
42 7.1
43 99.99
44 3.2
53 0.31
54 1.2
55 14.5
56 2.6
57 0.36
58 50.7
59 16.2
67 1.8
69 0.19
70 1.8
71 49.8
72 10.5
81 0.19
83 1.2
85 6.5
86 1.6
96 0.19
98 1.3
99 58.5
100 4.4
114 1.21
115 3.2
127 6.9
128 1.3
141 0.12
170 8.4
171 1.6

>  <PREDICTED SPECTRUM>  (2133) 
14 19
15 37
26 68
27 332
28 121
29 357
30 133
31 53
38 48
39 360
40 156
41 639
42 418
43 999
44 278
45 172
51 22
52 6
53 157
54 116
55 365
56 76
57 307
58 404
59 207
66 5
67 118
68 62
69 163
70 15
71 812
72 432
73 216
79 17
81 8
82 46
84 2
85 128
86 161
87 18
99 787
100 125
109 2
113 98
114 432
115 117
127 314
141 182
170 172
171 40

$$$$

     RDKit          2D

 13 13  0  0  0  0  0  0  0  0999 V2000
    8.4306   -2.4575    0.0000 C   0  0  0  0  0  0  0  0  0  0  0  0
    7.1336   -3.2111    0.0000 C   0  0  0  0  0  0  0  0  0  0  0  0
    5.8325   -2.4646    0.0000 C   0  0  0  0  0  0  0  0  0  0  0  0
    4.5356   -3.2182    0.0000 C   0  0  0  0  0  0  0  0  0  0  0  0
    3.2345   -2.4717    0.0000 C   0  0  0  0  0  0  0  0  0  0  0  0
    1.9375   -3.2253    0.0000 C   0  0  0  0  0  0  0  0  0  0  0  0
    0.6364   -2.4789    0.0000 C   0  0  0  0  0  0  0  0  0  0  0  0
   -0.8088   -4.7208    0.0000 C   0  0  0  0  0  0  0  0  0  0  0  0
   -2.2853   -5.0376    0.0000 C   0  0  0  0  0  0  0  0  0  0  0  0
   -0.6606   -3.2324    0.0000 C   0  0  0  0  0  0  0  0  0  0  0  0
   -3.0287   -3.7324    0.0000 C   0  0  0  0  0  0  0  0  0  0  0  0
   -4.5201   -3.5719    0.0000 O   0  0  0  0  0  0  0  0  0  0  0  0
   -2.0309   -2.6223    0.0000 O   0  0  0  0  0  0  0  0  0  0  0  0
  2  1  1  0
  3  2  1  0
  4  3  1  0
  5  4  1  0
  6  5  1  0
  7  6  1  0
  9  8  1  0
 10  7  1  0
 10  8  1  0
 11  9  1  0
 12 11  2  0
 13 10  1  0
 13 11  1  0
M  END
>  <NAME>  (2134) 
GAMMA-UNDECALACTONE

>  <SYNONYMS>  (2134) 


>  <SPECTRUM TYPE>  (2134) 
MS1

>  <INSTRUMENT TYPE>  (2134) 
EI-B

>  <INSTRUMENT>  (2134) 
HITACHI RMU-6M

>  <ION MODE>  (2134) 
P

>  <INCHIKEY>  (2134) 
PHXATPHONSXBIL-UHFFFAOYSA-N

>  <FORMULA>  (2134) 
C11H20O2

>  <EXACT MASS>  (2134) 
184.14632988

>  <MW>  (2134) 
184

>  <ID>  (2134) 
JP008909

>  <CONTRIBUTOR>  (2134) 
University of Tokyo Team, {Faculty of Engineering, University of Tokyo

>  <COMMENT>  (2134) 
SMILES=CCCCCCCC(C1)OC(=O)C1
InChI=InChI=1S/C11H20O2/c1-2-3-4-5-6-7-10-8-9-11(12)13-10/h10H,2-9H2,1H3
computed SMILES=O=C1OC(CC1)CCCCCCC
accession=JP008909
date=2016.01.19 (Created 2008.10.21, modified 2011.05.06)
author=YAMAMOTO M, DEP. CHEMISTRY, FAC. SCIENCE, NARA WOMEN'S UNIV.
license=CC BY-NC-SA
exact mass=184.14633
ionization energy=70 eV
ion type=[M]+*
computed spectral entropy=2.781921585787632
computed normalized entropy=0.711120967828554
SPLASH=splash10-000i-9100000000-7b954a533af11294131f
submitter=submitter = University of Tokyo Team (Faculty of Engineering, University of Tokyo)
MoNA Rating=3.75

>  <NUM PEAKS>  (2134) 
50

>  <MASS SPECTRAL PEAKS>  (2134) 
26 1.1
27 14.5
28 9.4
29 3.38
39 8.1
40 1.6
41 23.8
42 0.72
43 13.4
44 1.1
53 2.3
54 0.32
55 16.1
56 8.1
57 7.2
58 0.14
60 1.6
67 3
68 3.3
69 0.84
70 4.1
71 1.7
72 2.5
73 0.1
81 2.8
82 2.8
83 3.7
84 0.39
85 99.99
86 4.7
87 1.4
95 0.17
96 2.2
97 1.5
98 1.7
99 0.13
100 5.3
101 2.4
110 1.8
111 0.12
114 3
122 1.7
123 1.3
124 0.19
125 1.9
127 2.3
128 10.9
129 0.11
148 1.2
166 1.4

>  <PREDICTED SPECTRUM>  (2134) 
26 31
27 134
28 85
29 154
31 66
32 4
38 26
39 180
40 96
41 401
42 253
43 454
44 131
45 45
50 14
51 18
53 151
54 168
55 372
56 338
57 326
58 110
60 38
61 33
65 37
66 65
67 304
68 270
69 308
70 134
71 207
72 99
73 112
80 21
81 204
82 193
83 207
84 261
85 999
86 335
87 61
91 44
93 58
94 36
95 215
96 102
97 73
99 217
100 176
101 100
108 38
109 149
110 34
111 12
112 4
113 28
114 54
115 35
119 0
122 54
123 95
124 122
125 18
127 55
128 24
129 40
137 62
138 67
139 10
155 22
156 0
166 84
167 14
168 10
184 49
185 2

$$$$

     RDKit          2D

 11 12  0  0  0  0  0  0  0  0999 V2000
   -2.7200   -1.0200    0.0000 C   0  0  0  0  0  0  0  0  0  0  0  0
   -2.7200    0.4800    0.0000 C   0  0  0  0  0  0  0  0  0  0  0  0
    2.4800   -1.0200    0.0000 C   0  0  0  0  0  0  0  0  0  0  0  0
   -1.4200   -1.7700    0.0000 C   0  0  0  0  0  0  0  0  0  0  0  0
    1.1800   -1.7700    0.0000 C   0  0  0  0  0  0  0  0  0  0  0  0
   -1.4200    1.2300    0.0000 C   0  0  0  0  0  0  0  0  0  0  0  0
    2.4800    0.4800    0.0000 C   0  0  0  0  0  0  0  0  0  0  0  0
   -0.1200   -1.0200    0.0000 C   0  0  0  0  0  0  0  0  0  0  0  0
   -0.1200    0.4800    0.0000 C   0  0  0  0  0  0  0  0  0  0  0  0
    1.1800    1.2300    0.0000 C   0  0  0  0  0  0  0  0  0  0  0  0
    1.1800    2.7300    0.0000 O   0  0  0  0  0  0  0  0  0  0  0  0
  2  1  2  0
  4  1  1  0
  5  3  1  0
  6  2  1  0
  7  3  1  0
  8  4  2  0
  8  5  1  0
  9  6  2  0
  9  8  1  0
 10  7  1  0
 10  9  1  0
 11 10  2  0
M  END
>  <NAME>  (2135) 
ALPHA-TETRALONE

>  <SYNONYMS>  (2135) 
1,2,3,4-TETRAHYDRO-1-NAPHTHALENONE

>  <SPECTRUM TYPE>  (2135) 
MS1

>  <INSTRUMENT TYPE>  (2135) 
EI-B

>  <INSTRUMENT>  (2135) 
HITACHI RMU-6M

>  <ION MODE>  (2135) 
P

>  <INCHIKEY>  (2135) 
XHLHPRDBBAGVEG-UHFFFAOYSA-N

>  <FORMULA>  (2135) 
C10H10O

>  <EXACT MASS>  (2135) 
146.07316494

>  <MW>  (2135) 
146

>  <ID>  (2135) 
JP008907

>  <CONTRIBUTOR>  (2135) 
University of Tokyo Team, {Faculty of Engineering, University of Tokyo

>  <COMMENT>  (2135) 
SMILES=O=C(C1)c(c2)c(ccc2)CC1
InChI=InChI=1S/C10H10O/c11-10-7-3-5-8-4-1-2-6-9(8)10/h1-2,4,6H,3,5,7H2
computed SMILES=O=C1C=2C=CC=CC2CCC1
accession=JP008907
date=2016.01.19 (Created 2008.10.21, modified 2011.05.06)
author=YAMAMOTO M, DEP. CHEMISTRY, FAC. SCIENCE, NARA WOMEN'S UNIV.
license=CC BY-NC-SA
exact mass=146.07316
ionization energy=70 eV
ion type=[M]+*
computed spectral entropy=2.75448559671962
computed normalized entropy=0.7041077194325341
SPLASH=splash10-014m-7900000000-f5226cbbcd0f300e6e49
submitter=submitter = University of Tokyo Team (Faculty of Engineering, University of Tokyo)
MoNA Rating=3.75

>  <NUM PEAKS>  (2135) 
50

>  <MASS SPECTRAL PEAKS>  (2135) 
26 1
27 5.1
28 1.3
37 0.12
38 3.3
39 14.6
40 1.9
41 0.19
45 1.1
50 7.8
51 12
52 0.21
55 2.4
57 1.4
57.5 3.1
58 0.34
59 1.4
61 1.6
62 5.6
63 1.62
64 5.3
65 6.8
72 1.4
74 0.35
75 3.2
76 2.6
77 5.6
78 0.21
86 1.6
87 2.1
88 1.3
89 2.33
90 67.5
91 13.3
92 1.1
102 0.24
103 3.4
104 3.7
115 13.4
116 0.46
117 9.3
118 99.99
119 8.7
128 0.31
129 1.8
131 12
132 1.4
145 0.63
146 57.6
147 6.6

>  <PREDICTED SPECTRUM>  (2135) 
14 37
15 71
16 8
17 5
18 16
25 7
26 104
27 249
28 136
29 142
31 27
37 62
38 130
39 311
40 86
41 108
42 42
43 0
45 2
49 79
50 320
51 410
52 140
53 146
55 119
57 25
58 69
59 8
61 118
62 292
63 419
64 238
65 296
66 111
69 24
70 5
71 46
72 54
73 61
74 237
75 244
76 262
77 395
78 261
79 94
85 33
86 123
87 136
88 76
89 579
90 858
91 492
92 181
99 17
101 95
102 195
103 393
104 422
105 211
106 8
113 86
114 117
115 704
116 314
117 654
118 999
119 360
120 91
127 208
128 370
129 252
130 103
131 419
132 149
145 342
146 979
147 351
148 110

$$$$

     RDKit          2D

  8  7  0  0  0  0  0  0  0  0999 V2000
    1.9486    3.3750    0.0000 C   0  0  0  0  0  0  0  0  0  0  0  0
   -5.8457    3.3750    0.0000 C   0  0  0  0  0  0  0  0  0  0  0  0
    0.6495    4.1250    0.0000 C   0  0  0  0  0  0  0  0  0  0  0  0
   -0.6495    3.3750    0.0000 C   0  0  0  0  0  0  0  0  0  0  0  0
   -1.9486    4.1250    0.0000 C   0  0  0  0  0  0  0  0  0  0  0  0
   -3.2476    3.3750    0.0000 C   0  0  0  0  0  0  0  0  0  0  0  0
   -3.2476    1.8750    0.0000 O   0  0  0  0  0  0  0  0  0  0  0  0
   -4.5466    4.1250    0.0000 O   0  0  0  0  0  0  0  0  0  0  0  0
  3  1  1  0
  4  3  1  0
  5  4  1  0
  6  5  1  0
  7  6  2  0
  8  2  1  0
  8  6  1  0
M  END
>  <NAME>  (2136) 
METHYL VALERATE

>  <SYNONYMS>  (2136) 


>  <SPECTRUM TYPE>  (2136) 
MS1

>  <INSTRUMENT TYPE>  (2136) 
EI-B

>  <INSTRUMENT>  (2136) 
HITACHI RMU-6M

>  <ION MODE>  (2136) 
P

>  <INCHIKEY>  (2136) 
HNBDRPTVWVGKBR-UHFFFAOYSA-N

>  <FORMULA>  (2136) 
C6H12O2

>  <EXACT MASS>  (2136) 
116.083729624

>  <MW>  (2136) 
116

>  <ID>  (2136) 
JP008905

>  <CONTRIBUTOR>  (2136) 
University of Tokyo Team, {Faculty of Engineering, University of Tokyo

>  <COMMENT>  (2136) 
SMILES=CCCCC(=O)OC
InChI=InChI=1S/C6H12O2/c1-3-4-5-6(7)8-2/h3-5H2,1-2H3
computed SMILES=O=C(OC)CCCC
ionization energy=70 eV
ion type=[M]+*
accession=JP008905
date=2016.01.19 (Created 2008.10.21, modified 2011.05.06)
author=YAMAMOTO M, DEP. CHEMISTRY, FAC. SCIENCE, NARA WOMEN'S UNIV.
license=CC BY-NC-SA
exact mass=116.08373
computed spectral entropy=2.5273094328536145
computed normalized entropy=0.7359693797206595
SPLASH=splash10-00fr-9000000000-d6018f997a3de662f274
submitter=submitter = University of Tokyo Team (Faculty of Engineering, University of Tokyo)
MoNA Rating=3.75

>  <NUM PEAKS>  (2136) 
31

>  <MASS SPECTRAL PEAKS>  (2136) 
15 20.5
26 4.1
27 28.6
28 1.26
29 38.1
31 4.7
38 1.4
39 1.5
40 1.9
41 35.1
42 7.1
43 3.83
44 3
45 2.5
50 1
51 0.13
53 2
55 10.6
56 4.9
57 3.73
58 1.6
59 16.9
73 1.7
74 99.99
75 3.7
85 33.7
86 1.9
87 2.89
88 2.9
101 2.1
116 1.5

>  <PREDICTED SPECTRUM>  (2136) 
14 4
15 81
26 15
27 175
28 12
29 233
31 127
32 46
33 62
39 280
40 118
41 682
42 415
43 620
44 172
45 218
53 97
54 111
55 395
56 284
57 801
58 134
59 714
60 68
61 57
69 307
71 50
73 117
74 942
75 288
76 7
83 26
84 131
85 999
86 123
87 590
88 160
89 113
101 52
116 311
117 34

$$$$

     RDKit          2D

 12 11  0  0  0  0  0  0  0  0999 V2000
    3.8971    6.0000    0.0000 C   0  0  0  0  0  0  0  0  0  0  0  0
    2.5981    6.7500    0.0000 C   0  0  0  0  0  0  0  0  0  0  0  0
    1.2990    6.0000    0.0000 C   0  0  0  0  0  0  0  0  0  0  0  0
    0.0000    6.7500    0.0000 C   0  0  0  0  0  0  0  0  0  0  0  0
   -1.2990    6.0000    0.0000 C   0  0  0  0  0  0  0  0  0  0  0  0
   -2.5981    6.7500    0.0000 C   0  0  0  0  0  0  0  0  0  0  0  0
   -3.8971    6.0000    0.0000 C   0  0  0  0  0  0  0  0  0  0  0  0
   -5.1962    6.7500    0.0000 C   0  0  0  0  0  0  0  0  0  0  0  0
   -6.4952    6.0000    0.0000 C   0  0  0  0  0  0  0  0  0  0  0  0
   -7.7942    6.7500    0.0000 C   0  0  0  0  0  0  0  0  0  0  0  0
   -9.0933    6.0000    0.0000 C   0  0  0  0  0  0  0  0  0  0  0  0
  -10.3923    6.7500    0.0000 O   0  0  0  0  0  0  0  0  0  0  0  0
  2  1  1  0
  3  2  1  0
  4  3  1  0
  5  4  1  0
  6  5  1  0
  7  6  1  0
  8  7  1  0
  9  8  1  0
 10  9  1  0
 11 10  1  0
 12 11  1  0
M  END
>  <NAME>  (2137) 
1-UNDECANOL

>  <SYNONYMS>  (2137) 


>  <SPECTRUM TYPE>  (2137) 
MS1

>  <INSTRUMENT TYPE>  (2137) 
EI-B

>  <INSTRUMENT>  (2137) 
HITACHI RMU-6M

>  <ION MODE>  (2137) 
P

>  <INCHIKEY>  (2137) 
KJIOQYGWTQBHNH-UHFFFAOYSA-N

>  <FORMULA>  (2137) 
C11H24O

>  <EXACT MASS>  (2137) 
172.182715388

>  <MW>  (2137) 
172

>  <ID>  (2137) 
JP008904

>  <CONTRIBUTOR>  (2137) 
University of Tokyo Team, {Faculty of Engineering, University of Tokyo

>  <COMMENT>  (2137) 
SMILES=CCCCCCCCCCCO
InChI=InChI=1S/C11H24O/c1-2-3-4-5-6-7-8-9-10-11-12/h12H,2-11H2,1H3
computed SMILES=OCCCCCCCCCCC
accession=JP008904
date=2016.01.19 (Created 2008.10.21, modified 2011.05.06)
author=YAMAMOTO M, DEP. CHEMISTRY, FAC. SCIENCE, NARA WOMEN'S UNIV.
license=CC BY-NC-SA
exact mass=172.18272
ionization energy=70 eV
ion type=[M]+*
computed spectral entropy=3.0571196497746542
computed normalized entropy=0.8128043060029854
SPLASH=splash10-052f-9000000000-20374066c5383835f838
submitter=submitter = University of Tokyo Team (Faculty of Engineering, University of Tokyo)
MoNA Rating=3.75

>  <NUM PEAKS>  (2137) 
43

>  <MASS SPECTRAL PEAKS>  (2137) 
27 28.4
28 7.8
29 49.3
30 0.16
31 29.5
32 1.6
39 19
40 0.39
41 97.3
42 37.4
43 99.99
44 0.36
45 3.2
53 5.9
54 9.6
55 9.33
56 75.1
57 50.3
58 2.3
65 0.1
67 9.4
68 27.8
69 66.7
70 6.44
71 14.3
73 2
81 3.3
82 2.42
83 49.6
84 41.9
85 8.4
96 0.59
97 33
98 18.5
99 1.7
110 0.21
111 12.4
112 7.7
125 5.8
126 1.8
127 1.8
154 8.6
155 1.1

>  <PREDICTED SPECTRUM>  (2137) 
16 2
17 0
18 4
19 6
25 11
26 72
27 327
28 169
29 502
30 110
31 297
32 43
33 22
36 13
37 40
38 79
39 435
40 198
41 964
42 546
43 896
44 322
45 248
46 81
47 73
49 3
50 76
51 116
52 55
53 268
54 349
55 999
56 880
57 857
58 129
59 151
60 51
61 26
65 59
66 129
67 423
68 503
69 921
70 766
71 530
72 144
73 91
74 77
76 29
77 26
78 46
79 137
80 46
81 334
82 488
83 765
84 507
85 264
86 43
87 48
95 254
96 345
97 573
98 371
99 143
100 23
101 57
110 106
111 335
112 238
113 100
114 15
124 133
125 156
126 347
127 59
140 45
141 17
142 2
143 3
144 39
153 2
154 162

$$$$

     RDKit          2D

 11 10  0  0  0  0  0  0  0  0999 V2000
    3.2476    5.6250    0.0000 C   0  0  0  0  0  0  0  0  0  0  0  0
   -9.7428    5.6250    0.0000 C   0  0  0  0  0  0  0  0  0  0  0  0
    1.9486    6.3750    0.0000 C   0  0  0  0  0  0  0  0  0  0  0  0
   -8.4437    6.3750    0.0000 C   0  0  0  0  0  0  0  0  0  0  0  0
    0.6495    5.6250    0.0000 C   0  0  0  0  0  0  0  0  0  0  0  0
   -7.1447    5.6250    0.0000 C   0  0  0  0  0  0  0  0  0  0  0  0
   -0.6495    6.3750    0.0000 C   0  0  0  0  0  0  0  0  0  0  0  0
   -5.8457    6.3750    0.0000 C   0  0  0  0  0  0  0  0  0  0  0  0
   -1.9486    5.6250    0.0000 C   0  0  0  0  0  0  0  0  0  0  0  0
   -4.5466    5.6250    0.0000 C   0  0  0  0  0  0  0  0  0  0  0  0
   -3.2476    6.3750    0.0000 C   0  0  0  0  0  0  0  0  0  0  0  0
  3  1  1  0
  4  2  1  0
  5  3  1  0
  6  4  1  0
  7  5  1  0
  8  6  1  0
  9  7  1  0
 10  8  1  0
 11  9  1  0
 11 10  1  0
M  END
>  <NAME>  (2138) 
UNDECANE

>  <SYNONYMS>  (2138) 


>  <SPECTRUM TYPE>  (2138) 
MS1

>  <INSTRUMENT TYPE>  (2138) 
EI-B

>  <INSTRUMENT>  (2138) 
HITACHI RMU-6M

>  <ION MODE>  (2138) 
P

>  <INCHIKEY>  (2138) 
RSJKGSCJYJTIGS-UHFFFAOYSA-N

>  <FORMULA>  (2138) 
C11H24

>  <EXACT MASS>  (2138) 
156.187800768

>  <MW>  (2138) 
156

>  <ID>  (2138) 
JP008903

>  <CONTRIBUTOR>  (2138) 
University of Tokyo Team, {Faculty of Engineering, University of Tokyo

>  <COMMENT>  (2138) 
SMILES=CCCCCCCCCCC
InChI=InChI=1S/C11H24/c1-3-5-7-9-11-10-8-6-4-2/h3-11H2,1-2H3
computed SMILES=CCCCCCCCCCC
accession=JP008903
date=2016.01.19 (Created 2008.10.21, modified 2011.05.06)
author=YAMAMOTO M, DEP. CHEMISTRY, FAC. SCIENCE, NARA WOMEN'S UNIV.
license=CC BY-NC-SA
exact mass=156.1878
ionization energy=70 eV
ion type=[M]+*
computed spectral entropy=2.4977039009176463
computed normalized entropy=0.7143424851825795
SPLASH=splash10-052f-9000000000-f52ef10aa893b46474af
submitter=submitter = University of Tokyo Team (Faculty of Engineering, University of Tokyo)
MoNA Rating=3.75

>  <NUM PEAKS>  (2138) 
33

>  <MASS SPECTRAL PEAKS>  (2138) 
27 19
28 3.7
29 32.9
30 0.1
39 11.1
40 2.5
41 48.2
42 1.55
43 99.99
44 3.7
53 2.6
54 0.2
55 16.7
56 17.4
57 99.1
58 0.41
67 1.2
69 4.9
70 12.4
71 4.31
72 2.5
83 2
84 9
85 2.56
86 1.8
98 6.9
99 7.4
112 0.31
113 6.7
126 1.4
127 3.9
156 1.34
157 1.8

>  <PREDICTED SPECTRUM>  (2138) 
15 21
25 1
26 55
27 322
28 84
29 447
30 61
37 24
38 28
39 313
40 129
41 647
42 373
43 957
44 215
51 38
52 8
53 148
54 163
55 495
56 567
57 999
58 219
65 24
66 4
67 122
68 154
69 333
70 423
71 724
72 185
81 16
82 117
83 244
84 292
85 476
86 101
96 58
97 112
98 234
99 211
111 69
112 154
113 101
114 30
126 106
127 94
128 31
156 91
157 4

$$$$

     RDKit          2D

  7  7  0  0  0  0  0  0  0  0999 V2000
   -1.1700   -1.2200    0.0000 C   0  0  0  0  0  0  0  0  0  0  0  0
    0.3300   -1.2200    0.0000 C   0  0  0  0  0  0  0  0  0  0  0  0
   -1.6300    0.2000    0.0000 C   0  0  0  0  0  0  0  0  0  0  0  0
    2.2271    0.6621    0.0000 C   0  0  0  0  0  0  0  0  0  0  0  0
    0.8000    0.2000    0.0000 C   0  0  0  0  0  0  0  0  0  0  0  0
    3.3407   -0.3428    0.0000 O   0  0  0  0  0  0  0  0  0  0  0  0
   -0.4200    1.0800    0.0000 O   0  0  0  0  0  0  0  0  0  0  0  0
  2  1  1  0
  3  1  1  0
  5  2  1  0
  5  4  1  0
  6  4  1  0
  7  3  1  0
  7  5  1  0
M  END
>  <NAME>  (2139) 
TETRAHYDROFURFURYL ALCOHOL

>  <SYNONYMS>  (2139) 


>  <SPECTRUM TYPE>  (2139) 
MS1

>  <INSTRUMENT TYPE>  (2139) 
EI-B

>  <INSTRUMENT>  (2139) 
HITACHI RMU-6M

>  <ION MODE>  (2139) 
P

>  <INCHIKEY>  (2139) 
BSYVTEYKTMYBMK-UHFFFAOYSA-N

>  <FORMULA>  (2139) 
C5H10O2

>  <EXACT MASS>  (2139) 
102.06807956

>  <MW>  (2139) 
102

>  <ID>  (2139) 
JP008902

>  <CONTRIBUTOR>  (2139) 
University of Tokyo Team, {Faculty of Engineering, University of Tokyo

>  <COMMENT>  (2139) 
SMILES=OCC(C1)OCC1
InChI=InChI=1S/C5H10O2/c6-4-5-2-1-3-7-5/h5-6H,1-4H2
computed SMILES=OCC1OCCC1
accession=JP008902
date=2016.01.19 (Created 2008.10.21, modified 2011.05.06)
author=YAMAMOTO M, DEP. CHEMISTRY, FAC. SCIENCE, NARA WOMEN'S UNIV.
license=CC BY-NC-SA
exact mass=102.06808
ionization energy=70 eV
ion type=[M]+*
computed spectral entropy=2.1384339786014652
computed normalized entropy=0.7023873275181063
SPLASH=splash10-00dl-9000000000-c623d7fe47c3ac9514e4
submitter=submitter = University of Tokyo Team (Faculty of Engineering, University of Tokyo)
MoNA Rating=3.75

>  <NUM PEAKS>  (2139) 
21

>  <MASS SPECTRAL PEAKS>  (2139) 
15 4
26 2.4
27 28.7
28 0.27
29 14.7
31 21.4
38 1.6
39 1.42
40 3
41 41.4
42 12.9
43 7.2
44 8.2
45 1.3
53 1.8
55 0.18
57 3.9
61 1.9
70 4.9
71 99.99
72 4.3

>  <PREDICTED SPECTRUM>  (2139) 
14 39
15 103
16 11
17 2
18 9
19 20
26 111
27 304
28 196
29 316
30 80
31 321
32 117
33 26
36 13
37 45
38 100
39 355
40 146
41 483
42 376
43 636
44 213
45 61
50 8
52 41
53 161
54 58
55 208
56 149
57 225
58 77
59 76
61 1
68 14
69 70
70 106
71 999
72 316
73 112
74 17
83 13
101 15
102 153
103 36

$$$$

     RDKit          2D

 10 10  0  0  0  0  0  0  0  0999 V2000
   -0.0000   -3.0000    0.0000 C   0  0  0  0  0  0  0  0  0  0  0  0
    2.5989    1.5002    0.0000 C   0  0  0  0  0  0  0  0  0  0  0  0
   -2.5989    1.5002    0.0000 C   0  0  0  0  0  0  0  0  0  0  0  0
    0.0000    3.0000    0.0000 C   0  0  0  0  0  0  0  0  0  0  0  0
    1.3000   -0.7500    0.0000 C   0  0  0  0  0  0  0  0  0  0  0  0
   -1.3000   -0.7500    0.0000 C   0  0  0  0  0  0  0  0  0  0  0  0
   -0.0000   -1.5000    0.0000 C   0  0  0  0  0  0  0  0  0  0  0  0
    1.3000    0.7500    0.0000 C   0  0  0  0  0  0  0  0  0  0  0  0
   -1.3000    0.7500    0.0000 C   0  0  0  0  0  0  0  0  0  0  0  0
   -0.0000    1.5000    0.0000 C   0  0  0  0  0  0  0  0  0  0  0  0
  7  1  1  0
  7  5  2  0
  7  6  1  0
  8  2  1  0
  8  5  1  0
  9  3  1  0
  9  6  2  0
 10  4  1  0
 10  8  2  0
 10  9  1  0
M  END
>  <NAME>  (2140) 
1,2,3,5-TETRAMETHYLBENZENE

>  <SYNONYMS>  (2140) 


>  <SPECTRUM TYPE>  (2140) 
MS1

>  <INSTRUMENT TYPE>  (2140) 
EI-B

>  <INSTRUMENT>  (2140) 
HITACHI RMU-6M

>  <ION MODE>  (2140) 
P

>  <INCHIKEY>  (2140) 
BFIMMTCNYPIMRN-UHFFFAOYSA-N

>  <FORMULA>  (2140) 
C10H14

>  <EXACT MASS>  (2140) 
134.109550448

>  <MW>  (2140) 
134

>  <ID>  (2140) 
JP008901

>  <CONTRIBUTOR>  (2140) 
University of Tokyo Team, {Faculty of Engineering, University of Tokyo

>  <COMMENT>  (2140) 
SMILES=Cc(c1)cc(C)c(C)c(C)1
InChI=InChI=1S/C10H14/c1-7-5-8(2)10(4)9(3)6-7/h5-6H,1-4H3
computed SMILES=C=1C(=CC(=C(C1C)C)C)C
accession=JP008901
date=2016.01.19 (Created 2008.10.21, modified 2011.05.06)
author=YAMAMOTO M, DEP. CHEMISTRY, FAC. SCIENCE, NARA WOMEN'S UNIV.
license=CC BY-NC-SA
exact mass=134.10955
ionization energy=70 eV
ion type=[M]+*
computed spectral entropy=2.5143658185665205
computed normalized entropy=0.6816069350714166
SPLASH=splash10-0159-3900000000-7c2a123567f711eb34db
submitter=submitter = University of Tokyo Team (Faculty of Engineering, University of Tokyo)
MoNA Rating=3.75

>  <NUM PEAKS>  (2140) 
40

>  <MASS SPECTRAL PEAKS>  (2140) 
27 5.6
29 1
38 1.1
39 1.1
40 1.5
41 8.3
50 2.6
51 0.76
52 2.6
53 4.1
57.5 1.1
58 0.1
62 1.5
63 4.1
64 2.2
65 0.69
66 2.1
67 1.7
74 1.1
75 0.12
77 9.5
78 3.2
79 4.3
89 0.15
91 16
92 1.8
93 1.8
102 0.12
103 4.1
104 2.8
105 4.3
115 0.65
116 2.5
117 6.9
118 2.6
119 99.99
120 10.1
133 10.7
134 54.7
135 6.6

>  <PREDICTED SPECTRUM>  (2140) 
14 16
15 61
18 15
26 45
27 188
28 100
29 74
32 4
33 6
34 9
36 19
37 32
38 101
39 303
40 147
41 270
42 101
44 52
50 139
51 240
52 134
53 223
54 67
55 49
58 80
59 31
60 31
61 42
62 80
63 146
64 125
65 236
66 96
67 81
71 41
72 34
73 48
74 68
75 95
76 71
77 306
78 152
79 224
80 63
86 22
88 6
89 94
90 9
91 386
92 180
93 111
94 38
97 23
99 3
100 16
101 77
102 128
103 204
104 120
105 256
106 80
107 68
108 13
115 280
116 165
117 288
118 179
119 999
120 312
121 86
129 22
130 23
131 88
132 87
133 308
134 702
135 246
136 18

$$$$

     RDKit          2D

 10 10  0  0  0  0  0  0  0  0999 V2000
    2.5989    0.0004    0.0000 C   0  0  0  0  0  0  0  0  0  0  0  0
   -2.5989   -3.0000    0.0000 C   0  0  0  0  0  0  0  0  0  0  0  0
    0.0000    1.5002    0.0000 C   0  0  0  0  0  0  0  0  0  0  0  0
   -2.5989    0.0004    0.0000 C   0  0  0  0  0  0  0  0  0  0  0  0
    1.3000   -2.2498    0.0000 C   0  0  0  0  0  0  0  0  0  0  0  0
   -0.0000   -2.9998    0.0000 C   0  0  0  0  0  0  0  0  0  0  0  0
    1.3000   -0.7498    0.0000 C   0  0  0  0  0  0  0  0  0  0  0  0
   -1.3000   -2.2498    0.0000 C   0  0  0  0  0  0  0  0  0  0  0  0
    0.0000    0.0002    0.0000 C   0  0  0  0  0  0  0  0  0  0  0  0
   -1.3000   -0.7498    0.0000 C   0  0  0  0  0  0  0  0  0  0  0  0
  6  5  2  0
  7  1  1  0
  7  5  1  0
  8  2  1  0
  8  6  1  0
  9  3  1  0
  9  7  2  0
 10  4  1  0
 10  8  2  0
 10  9  1  0
M  END
>  <NAME>  (2141) 
1,2,3,4-TETRAMETHYLBENZENE

>  <SYNONYMS>  (2141) 


>  <SPECTRUM TYPE>  (2141) 
MS1

>  <INSTRUMENT TYPE>  (2141) 
EI-B

>  <INSTRUMENT>  (2141) 
HITACHI RMU-6M

>  <ION MODE>  (2141) 
P

>  <INCHIKEY>  (2141) 
UOHMMEJUHBCKEE-UHFFFAOYSA-N

>  <FORMULA>  (2141) 
C10H14

>  <EXACT MASS>  (2141) 
134.109550448

>  <MW>  (2141) 
134

>  <ID>  (2141) 
JP008900

>  <CONTRIBUTOR>  (2141) 
University of Tokyo Team, {Faculty of Engineering, University of Tokyo

>  <COMMENT>  (2141) 
SMILES=Cc(c1)c(C)c(C)c(C)c1
InChI=InChI=1S/C10H14/c1-7-5-6-8(2)10(4)9(7)3/h5-6H,1-4H3
computed SMILES=C=1C=C(C(=C(C1C)C)C)C
accession=JP008900
date=2016.01.19 (Created 2008.10.21, modified 2011.05.06)
author=YAMAMOTO M, DEP. CHEMISTRY, FAC. SCIENCE, NARA WOMEN'S UNIV.
license=CC BY-NC-SA
exact mass=134.10955
ionization energy=70 eV
ion type=[M]+*
computed spectral entropy=2.6097409777930936
computed normalized entropy=0.6855719373089354
SPLASH=splash10-014i-4900000000-28da1a5b7cbbccda1f38
submitter=submitter = University of Tokyo Team (Faculty of Engineering, University of Tokyo)
MoNA Rating=3.75

>  <NUM PEAKS>  (2141) 
45

>  <MASS SPECTRAL PEAKS>  (2141) 
27 6.1
29 1.3
38 1
39 0.99
40 1.6
41 8
50 2.5
51 0.71
52 2.2
53 4.9
55 1.2
57.5 0.14
58 1.2
62 1.2
63 4.1
64 0.2
65 6.6
66 2
67 1.4
74 0.1
75 1.2
77 9.7
78 3.5
79 0.43
89 1.8
91 16.8
92 2.2
93 0.19
102 1.4
103 4.6
104 3.2
105 0.48
106 1.2
115 6.8
116 2.6
117 0.68
118 2.5
119 99.99
120 10.6
128 0.1
131 1.2
132 1
133 9.3
134 5.3
135 7

>  <PREDICTED SPECTRUM>  (2141) 
14 35
15 105
16 6
17 4
18 23
26 66
27 217
28 119
29 51
32 47
34 2
37 33
38 87
39 256
40 81
41 169
49 18
50 145
51 239
52 105
53 177
54 57
55 4
56 7
58 136
60 49
61 92
62 94
63 166
64 132
65 149
66 56
67 95
72 31
74 82
75 118
76 131
77 261
78 161
79 244
80 105
82 44
86 3
87 33
88 10
89 102
91 332
92 144
93 112
94 73
99 43
102 113
103 215
104 206
105 180
106 65
107 55
108 2
115 331
116 200
117 327
118 203
119 999
120 271
121 78
128 108
129 89
130 59
131 112
132 105
133 225
134 755
135 202
136 5

$$$$

     RDKit          2D

 10 10  0  0  0  0  0  0  0  0999 V2000
   -1.6300    1.2517    0.0000 C   0  0  0  0  0  0  0  0  0  0  0  0
    5.4215    1.5862    0.0000 C   0  0  0  0  0  0  0  0  0  0  0  0
    3.9215    1.5862    0.0000 C   0  0  0  0  0  0  0  0  0  0  0  0
    5.8815    0.1662    0.0000 C   0  0  0  0  0  0  0  0  0  0  0  0
    2.0244   -0.2959    0.0000 C   0  0  0  0  0  0  0  0  0  0  0  0
   -0.5163    0.2469    0.0000 C   0  0  0  0  0  0  0  0  0  0  0  0
    3.4515    0.1662    0.0000 C   0  0  0  0  0  0  0  0  0  0  0  0
   -0.8297   -1.2200    0.0000 O   0  0  0  0  0  0  0  0  0  0  0  0
    4.6715   -0.7138    0.0000 O   0  0  0  0  0  0  0  0  0  0  0  0
    0.9107    0.7090    0.0000 O   0  0  0  0  0  0  0  0  0  0  0  0
  3  2  1  0
  4  2  1  0
  6  1  1  0
  7  3  1  0
  7  5  1  0
  8  6  2  0
  9  4  1  0
  9  7  1  0
 10  5  1  0
 10  6  1  0
M  END
>  <NAME>  (2142) 
TETRAHYDROFURFURYL ACETATE

>  <SYNONYMS>  (2142) 


>  <SPECTRUM TYPE>  (2142) 
MS1

>  <INSTRUMENT TYPE>  (2142) 
EI-B

>  <INSTRUMENT>  (2142) 
HITACHI RMU-6M

>  <ION MODE>  (2142) 
P

>  <INCHIKEY>  (2142) 
AAQDYYFAFXGBFZ-UHFFFAOYSA-N

>  <FORMULA>  (2142) 
C7H12O3

>  <EXACT MASS>  (2142) 
144.07864424399997

>  <MW>  (2142) 
144

>  <ID>  (2142) 
JP008899

>  <CONTRIBUTOR>  (2142) 
University of Tokyo Team, {Faculty of Engineering, University of Tokyo

>  <COMMENT>  (2142) 
SMILES=CC(=O)OCC(C1)OCC1
InChI=InChI=1S/C7H12O3/c1-6(8)10-5-7-3-2-4-9-7/h7H,2-5H2,1H3
computed SMILES=O=C(OCC1OCCC1)C
accession=JP008899
date=2016.01.19 (Created 2008.10.21, modified 2011.05.06)
author=YAMAMOTO M, DEP. CHEMISTRY, FAC. SCIENCE, NARA WOMEN'S UNIV.
license=CC BY-NC-SA
exact mass=144.07864
ionization energy=70 eV
ion type=[M]+*
computed spectral entropy=2.0473129684691003
computed normalized entropy=0.6283770123375029
SPLASH=splash10-00di-9000000000-b13249bb1064320d2085
submitter=submitter = University of Tokyo Team (Faculty of Engineering, University of Tokyo)
MoNA Rating=3.75

>  <NUM PEAKS>  (2142) 
26

>  <MASS SPECTRAL PEAKS>  (2142) 
14 1.4
15 9.5
26 1.4
27 1.54
28 2.4
29 7
31 3.4
39 0.89
40 1.9
41 22
42 9.5
43 6.15
44 2.4
53 1.4
54 2.4
55 0.34
56 1.4
57 1.1
70 2.3
71 99.99
72 5.1
73 1.5
74 1.1
93 0.12
94 13.6
95 1.8

>  <PREDICTED SPECTRUM>  (2142) 
14 10
15 45
26 57
27 195
28 38
29 203
30 32
31 164
33 20
36 29
37 30
38 67
39 225
40 91
41 341
42 225
43 644
44 112
45 31
53 88
54 81
55 100
60 4
61 30
67 89
68 64
69 120
70 150
71 999
72 220
73 34
83 21
84 110
85 79
99 17

$$$$

     RDKit          2D

  8  8  0  0  0  0  0  0  0  0999 V2000
   -0.0000    1.5000    0.0000 C   0  0  0  0  0  0  0  0  0  0  0  0
    1.3000    0.7500    0.0000 C   0  0  0  0  0  0  0  0  0  0  0  0
   -1.3000    0.7500    0.0000 C   0  0  0  0  0  0  0  0  0  0  0  0
    1.3000   -0.7500    0.0000 C   0  0  0  0  0  0  0  0  0  0  0  0
   -2.5989   -1.5002    0.0000 C   0  0  0  0  0  0  0  0  0  0  0  0
   -1.3000   -0.7500    0.0000 C   0  0  0  0  0  0  0  0  0  0  0  0
   -3.8981   -0.7504    0.0000 O   0  0  0  0  0  0  0  0  0  0  0  0
   -0.0000   -1.5000    0.0000 O   0  0  0  0  0  0  0  0  0  0  0  0
  2  1  1  0
  3  1  1  0
  4  2  1  0
  6  3  1  0
  6  5  1  0
  7  5  1  0
  8  4  1  0
  8  6  1  0
M  END
>  <NAME>  (2143) 
TETRAHYDROPYRAN-2-METHANOL

>  <SYNONYMS>  (2143) 


>  <SPECTRUM TYPE>  (2143) 
MS1

>  <INSTRUMENT TYPE>  (2143) 
EI-B

>  <INSTRUMENT>  (2143) 
HITACHI RMU-6M

>  <ION MODE>  (2143) 
P

>  <INCHIKEY>  (2143) 
ROTONRWJLXYJBD-UHFFFAOYSA-N

>  <FORMULA>  (2143) 
C6H12O2

>  <EXACT MASS>  (2143) 
116.083729624

>  <MW>  (2143) 
116

>  <ID>  (2143) 
JP008898

>  <CONTRIBUTOR>  (2143) 
University of Tokyo Team, {Faculty of Engineering, University of Tokyo

>  <COMMENT>  (2143) 
SMILES=OCC(C1)OCCC1
InChI=InChI=1S/C6H12O2/c7-5-6-3-1-2-4-8-6/h6-7H,1-5H2
computed SMILES=OCC1OCCCC1
accession=JP008898
date=2016.01.19 (Created 2008.10.21, modified 2011.05.06)
author=YAMAMOTO M, DEP. CHEMISTRY, FAC. SCIENCE, NARA WOMEN'S UNIV.
license=CC BY-NC-SA
exact mass=116.08373
ionization energy=70 eV
ion type=[M]+*
computed spectral entropy=2.319631574582823
computed normalized entropy=0.6888707413010815
SPLASH=splash10-002r-9000000000-f0198f34ec8d423a4645
submitter=submitter = University of Tokyo Team (Faculty of Engineering, University of Tokyo)
MoNA Rating=3.75

>  <NUM PEAKS>  (2143) 
29

>  <MASS SPECTRAL PEAKS>  (2143) 
15 2.9
26 2.7
27 20.1
28 1.09
29 37.2
30 1.5
31 24.3
32 0.35
38 1
39 13.4
40 2.5
41 5.49
42 3.2
43 27.7
44 3.4
45 0.18
51 1.3
53 3.1
54 1.2
55 1.5
56 5
57 26.8
58 1.5
59 0.1
60 1.5
84 5
85 99.99
86 0.59
116 0.6

>  <PREDICTED SPECTRUM>  (2143) 
15 7
19 5
26 60
27 231
28 99
29 366
30 98
31 418
32 43
33 34
37 29
38 85
39 445
40 205
41 888
42 537
43 877
44 354
45 256
46 45
50 61
51 58
52 83
53 258
54 209
55 487
56 654
57 885
58 320
59 97
61 42
65 43
67 341
68 207
69 321
70 324
71 557
72 175
73 75
74 72
83 278
84 127
85 999
86 263
87 180
98 50
101 30
115 63
116 375
117 112

$$$$

     RDKit          2D

  6  6  0  0  0  0  0  0  0  0999 V2000
    0.0000    1.5000    0.0000 C   0  0  0  0  0  0  0  0  0  0  0  0
    1.3000    0.7500    0.0000 C   0  0  0  0  0  0  0  0  0  0  0  0
   -1.3000    0.7500    0.0000 C   0  0  0  0  0  0  0  0  0  0  0  0
    1.3000   -0.7500    0.0000 C   0  0  0  0  0  0  0  0  0  0  0  0
   -1.3000   -0.7500    0.0000 C   0  0  0  0  0  0  0  0  0  0  0  0
   -0.0000   -1.5000    0.0000 O   0  0  0  0  0  0  0  0  0  0  0  0
  2  1  1  0
  3  1  1  0
  4  2  1  0
  5  3  1  0
  6  4  1  0
  6  5  1  0
M  END
>  <NAME>  (2144) 
TETRAHYDROPYRAN

>  <SYNONYMS>  (2144) 


>  <SPECTRUM TYPE>  (2144) 
MS1

>  <INSTRUMENT TYPE>  (2144) 
EI-B

>  <INSTRUMENT>  (2144) 
HITACHI RMU-6M

>  <ION MODE>  (2144) 
P

>  <INCHIKEY>  (2144) 
DHXVGJBLRPWPCS-UHFFFAOYSA-N

>  <FORMULA>  (2144) 
C5H10O

>  <EXACT MASS>  (2144) 
86.07316494

>  <MW>  (2144) 
86

>  <ID>  (2144) 
JP008897

>  <CONTRIBUTOR>  (2144) 
University of Tokyo Team, {Faculty of Engineering, University of Tokyo

>  <COMMENT>  (2144) 
SMILES=C(C1)CCOC1
InChI=InChI=1S/C5H10O/c1-2-4-6-5-3-1/h1-5H2
computed SMILES=O1CCCCC1
accession=JP008897
date=2016.01.19 (Created 2008.10.21, modified 2011.05.06)
author=YAMAMOTO M, DEP. CHEMISTRY, FAC. SCIENCE, NARA WOMEN'S UNIV.
license=CC BY-NC-SA
exact mass=86.07316
ionization energy=70 eV
ion type=[M]+*
computed spectral entropy=2.4490585548213395
computed normalized entropy=0.7004299323734833
SPLASH=splash10-054y-9000000000-ee80206a469b752e3bd2
submitter=submitter = University of Tokyo Team (Faculty of Engineering, University of Tokyo)
MoNA Rating=3.75

>  <NUM PEAKS>  (2144) 
33

>  <MASS SPECTRAL PEAKS>  (2144) 
14 1
15 3.6
26 7
27 3.16
28 48.4
29 26.6
30 3.1
31 0.52
37 1.1
38 2.3
39 21
40 0.59
41 99.99
42 4.3
43 6
44 0.2
45 51.5
46 1.3
50 2.3
51 0.23
52 1
53 3.7
54 2.9
55 2
56 57.2
57 6.3
58 1.7
67 0.4
68 1.1
71 2.6
85 44.9
86 3.75
87 2.3

>  <PREDICTED SPECTRUM>  (2144) 
14 14
15 49
19 0
25 12
26 162
27 452
28 241
29 413
30 101
31 280
32 41
33 19
37 36
38 118
39 562
40 334
41 999
42 751
43 642
44 378
45 386
46 14
50 123
51 180
52 105
53 333
54 599
55 839
56 911
57 626
58 272
59 87
67 702
68 580
69 126
70 111
71 181
72 58
85 212
86 302
87 48

$$$$

     RDKit          2D

  5  4  0  0  0  0  0  0  0  0999 V2000
   -3.8971    2.2500    0.0000 C   0  0  0  0  0  0  0  0  0  0  0  0
   -2.5981    1.5000    0.0000 C   0  0  0  0  0  0  0  0  0  0  0  0
   -1.2990    2.2500    0.0000 C   0  0  0  0  0  0  0  0  0  0  0  0
    0.0000    1.5000    0.0000 C   0  0  0  0  0  0  0  0  0  0  0  0
    1.2990    2.2500    0.0000 O   0  0  0  0  0  0  0  0  0  0  0  0
  2  1  1  0
  2  3  2  0
  4  3  1  0
  5  4  1  0
M  END
>  <NAME>  (2145) 
TRANS-CROTONYL ALCOHOL

>  <SYNONYMS>  (2145) 
TRANS-BUT-2-EN-1-OL

>  <SPECTRUM TYPE>  (2145) 
MS1

>  <INSTRUMENT TYPE>  (2145) 
EI-B

>  <INSTRUMENT>  (2145) 
HITACHI RMU-7M

>  <ION MODE>  (2145) 
P

>  <INCHIKEY>  (2145) 
WCASXYBKJHWFMY-NSCUHMNNSA-N

>  <FORMULA>  (2145) 
C4H8O

>  <EXACT MASS>  (2145) 
72.057514876

>  <MW>  (2145) 
72

>  <ID>  (2145) 
JP008896

>  <CONTRIBUTOR>  (2145) 
University of Tokyo Team, {Faculty of Engineering, University of Tokyo

>  <COMMENT>  (2145) 
SMILES=CC=CCO
InChI=InChI=1S/C4H8O/c1-2-3-4-5/h2-3,5H,4H2,1H3/b3-2+
computed SMILES=OCC=CC
accession=JP008896
date=2016.01.19 (Created 2008.10.21, modified 2011.05.06)
author=TAJIMA S, GUNMA COLLEGE OF TECHNOLOGY
license=CC BY-NC-SA
exact mass=72.05751
ionization energy=70 eV
ion type=[M]+*
computed spectral entropy=2.736200220048408
computed normalized entropy=0.8301989240643485
SPLASH=splash10-0a6u-9000000000-6a6e999935ce0da214db
submitter=submitter = University of Tokyo Team (Faculty of Engineering, University of Tokyo)
MoNA Rating=3.75

>  <NUM PEAKS>  (2145) 
27

>  <MASS SPECTRAL PEAKS>  (2145) 
15 3.67
26 7.7
27 35.52
28 4.71
29 49.02
30 1.84
31 26.11
37 4.14
38 7.93
39 44.17
40 5.33
41 29.9
42 6.75
43 31.32
44 9.77
45 4.14
50 5.39
51 4.74
53 14.8
54 8.41
55 9.71
57 99.99
58 3.61
69 2.84
71 7.04
72 30.2
73 1.36

>  <PREDICTED SPECTRUM>  (2145) 
14 58
15 118
16 35
17 40
18 65
19 22
25 73
26 289
27 704
28 343
29 573
30 202
31 448
32 51
33 19
35 1
36 66
37 232
38 322
39 885
40 372
41 999
42 416
43 793
44 331
45 204
49 69
50 298
51 334
52 224
53 527
54 340
55 396
56 454
57 619
58 118
61 111
63 117
64 20
69 203
70 226
71 357
72 446
73 104
74 29

$$$$

     RDKit          2D

 22 24  0  0  0  0  0  0  0  0999 V2000
   -0.5550    1.6487    0.0000 C   0  0  0  0  0  0  0  0  0  0  0  0
    8.5422    3.9001    0.0000 C   0  0  0  0  0  0  0  0  0  0  0  0
    6.1853   -4.0795    0.0000 C   0  0  0  0  0  0  0  0  0  0  0  0
   -0.5545    0.1487    0.0000 C   0  0  0  0  0  0  0  0  0  0  0  0
    0.7448    2.3991    0.0000 C   0  0  0  0  0  0  0  0  0  0  0  0
    8.5422    2.4001    0.0000 C   0  0  0  0  0  0  0  0  0  0  0  0
    7.2422    4.6501    0.0000 C   0  0  0  0  0  0  0  0  0  0  0  0
    4.7072   -3.8189    0.0000 C   0  0  0  0  0  0  0  0  0  0  0  0
    7.1491   -2.9301    0.0000 C   0  0  0  0  0  0  0  0  0  0  0  0
    0.7457   -0.6009    0.0000 C   0  0  0  0  0  0  0  0  0  0  0  0
    2.0450    1.6495    0.0000 C   0  0  0  0  0  0  0  0  0  0  0  0
    7.2422    1.6501    0.0000 C   0  0  0  0  0  0  0  0  0  0  0  0
    5.9422    3.9001    0.0000 C   0  0  0  0  0  0  0  0  0  0  0  0
    4.1930   -2.4089    0.0000 C   0  0  0  0  0  0  0  0  0  0  0  0
    6.6349   -1.5201    0.0000 C   0  0  0  0  0  0  0  0  0  0  0  0
    2.0455    0.1495    0.0000 C   0  0  0  0  0  0  0  0  0  0  0  0
    5.9422    2.4001    0.0000 C   0  0  0  0  0  0  0  0  0  0  0  0
    5.1568   -1.2595    0.0000 C   0  0  0  0  0  0  0  0  0  0  0  0
    6.1207    0.4106    0.0000 O   0  0  0  0  0  0  0  0  0  0  0  0
    3.3446   -0.6003    0.0000 O   0  0  0  0  0  0  0  0  0  0  0  0
    4.6433    1.6499    0.0000 O   0  0  0  0  0  0  0  0  0  0  0  0
    4.6436    0.1499    0.0000 P   0  0  0  0  0  0  0  0  0  0  0  0
  4  1  2  0
  5  1  1  0
  6  2  2  0
  7  2  1  0
  8  3  2  0
  9  3  1  0
 10  4  1  0
 11  5  2  0
 12  6  1  0
 13  7  2  0
 14  8  1  0
 15  9  2  0
 16 10  2  0
 16 11  1  0
 17 12  2  0
 17 13  1  0
 18 14  2  0
 18 15  1  0
 20 16  1  0
 21 17  1  0
 22 18  1  0
 22 19  2  0
 22 20  1  0
 22 21  1  0
M  END
>  <NAME>  (2146) 
TRIPHENYLPHOSPHITE

>  <SYNONYMS>  (2146) 
PHOSPHONIC ACID TRIPHENYL ESTER

>  <SPECTRUM TYPE>  (2146) 
MS1

>  <INSTRUMENT TYPE>  (2146) 
EI-B

>  <INSTRUMENT>  (2146) 
HITACHI RMU-7M

>  <ION MODE>  (2146) 
P

>  <INCHIKEY>  (2146) 
CDOMXXVCZQOOMT-UHFFFAOYSA-N

>  <FORMULA>  (2146) 
C18H15O3P

>  <EXACT MASS>  (2146) 
310.07588097

>  <MW>  (2146) 
310

>  <ID>  (2146) 
JP008895

>  <CONTRIBUTOR>  (2146) 
University of Tokyo Team, {Faculty of Engineering, University of Tokyo

>  <COMMENT>  (2146) 
SMILES=c(c3)ccc(c3)OP(=O)(Oc(c2)cccc2)c(c1)cccc1
InChI=InChI=1S/C18H15O3P/c19-22(18-14-8-3-9-15-18,20-16-10-4-1-5-11-16)21-17-12-6-2-7-13-17/h1-15H
computed SMILES=O=P(OC=1C=CC=CC1)(OC=2C=CC=CC2)C=3C=CC=CC3
accession=JP008895
date=2016.01.19 (Created 2008.10.21, modified 2011.05.06)
author=TAJIMA S, GUNMA COLLEGE OF TECHNOLOGY
license=CC BY-NC-SA
exact mass=310.07588
ionization energy=70 eV
ion type=[M]+*
computed spectral entropy=2.6264135987439063
computed normalized entropy=0.757822774846234
SPLASH=splash10-0006-9000000000-8920391dfdb4c66992a9
submitter=submitter = University of Tokyo Team (Faculty of Engineering, University of Tokyo)
MoNA Rating=3.75

>  <NUM PEAKS>  (2146) 
32

>  <MASS SPECTRAL PEAKS>  (2146) 
15 1.54
19 2.63
26 2.37
27 3.85
28 2.95
29 3.85
31 2.95
37 4.17
38 7.76
39 22.37
40 11.22
41 1.92
43 1.92
47 3.97
50 5.26
51 6.41
53 2.76
55 7.69
61 2.12
62 3.21
63 5.83
64 2.44
65 21.73
66 28.97
67 2.5
74 2.05
77 6.28
93 1.99
94 99.99
95 7.12
217 5.83
310 1.79

>  <PREDICTED SPECTRUM>  (2146) 
26 25
27 87
28 31
29 80
38 76
39 420
40 138
41 145
42 75
43 87
44 145
45 32
47 314
50 191
51 532
52 133
53 154
54 54
55 152
56 6
57 102
62 40
63 192
64 109
65 450
66 203
68 29
70 3
74 7
75 72
76 91
77 877
78 279
79 142
80 27
81 125
82 85
83 114
89 82
91 211
92 194
93 79
94 369
95 93
96 54
97 86
98 43
99 29
100 88
101 37
102 14
103 62
104 48
105 27
106 23
107 146
108 47
109 122
110 38
111 68
114 8
115 336
116 39
117 33
118 63
121 21
123 263
124 99
125 88
126 29
127 36
128 39
133 65
139 203
140 144
141 478
142 101
145 11
151 38
152 299
153 197
154 399
155 358
156 142
157 86
165 131
166 148
168 126
169 320
170 491
171 189
173 87
174 78
178 7
183 90
184 81
185 65
186 83
189 109
193 25
199 88
201 219
202 29
204 25
207 19
214 15
215 79
217 999
218 502
219 206
229 22
233 141
235 105
267 62
268 27
309 813
310 917
311 488
312 146

$$$$

     RDKit          2D

 16 15  0  0  0  0  0  0  0  0999 V2000
    3.8188    4.6357    0.0000 C   0  0  0  0  0  0  0  0  0  0  0  0
   -9.1716    4.6357    0.0000 C   0  0  0  0  0  0  0  0  0  0  0  0
   -1.7741   10.5029    0.0000 C   0  0  0  0  0  0  0  0  0  0  0  0
    2.5197    5.3857    0.0000 C   0  0  0  0  0  0  0  0  0  0  0  0
   -7.8726    5.3857    0.0000 C   0  0  0  0  0  0  0  0  0  0  0  0
   -1.2611    9.0934    0.0000 C   0  0  0  0  0  0  0  0  0  0  0  0
    1.2207    4.6357    0.0000 C   0  0  0  0  0  0  0  0  0  0  0  0
   -6.5735    4.6357    0.0000 C   0  0  0  0  0  0  0  0  0  0  0  0
   -2.2253    7.9443    0.0000 C   0  0  0  0  0  0  0  0  0  0  0  0
   -0.0783    5.3857    0.0000 C   0  0  0  0  0  0  0  0  0  0  0  0
   -5.2745    5.3857    0.0000 C   0  0  0  0  0  0  0  0  0  0  0  0
   -1.7122    6.5348    0.0000 C   0  0  0  0  0  0  0  0  0  0  0  0
   -3.6406    6.5348    0.0000 O   0  0  0  0  0  0  0  0  0  0  0  0
   -1.3774    4.6357    0.0000 O   0  0  0  0  0  0  0  0  0  0  0  0
   -3.9755    4.6357    0.0000 O   0  0  0  0  0  0  0  0  0  0  0  0
   -2.6764    5.3857    0.0000 P   0  0  0  0  0  0  0  0  0  0  0  0
  4  1  1  0
  5  2  1  0
  6  3  1  0
  7  4  1  0
  8  5  1  0
  9  6  1  0
 10  7  1  0
 11  8  1  0
 12  9  1  0
 14 10  1  0
 15 11  1  0
 16 12  1  0
 16 13  2  0
 16 14  1  0
 16 15  1  0
M  END
>  <NAME>  (2147) 
TRIBUTYLPHOSPHITE

>  <SYNONYMS>  (2147) 
PHOSPHONIC ACID TRIBUTYL ESTER

>  <SPECTRUM TYPE>  (2147) 
MS1

>  <INSTRUMENT TYPE>  (2147) 
EI-B

>  <INSTRUMENT>  (2147) 
HITACHI RMU-7M

>  <ION MODE>  (2147) 
P

>  <INCHIKEY>  (2147) 
JPGXOMADPRULAC-UHFFFAOYSA-N

>  <FORMULA>  (2147) 
C12H27O3P

>  <EXACT MASS>  (2147) 
250.169781354

>  <MW>  (2147) 
250

>  <ID>  (2147) 
JP008894

>  <CONTRIBUTOR>  (2147) 
University of Tokyo Team, {Faculty of Engineering, University of Tokyo

>  <COMMENT>  (2147) 
SMILES=CCCCOP(=O)(CCCC)OCCCC
InChI=InChI=1S/C12H27O3P/c1-4-7-10-14-16(13,12-9-6-3)15-11-8-5-2/h4-12H2,1-3H3
computed SMILES=O=P(OCCCC)(OCCCC)CCCC
accession=JP008894
date=2016.01.19 (Created 2008.10.21, modified 2011.05.06)
author=TAJIMA S, GUNMA COLLEGE OF TECHNOLOGY
license=CC BY-NC-SA
exact mass=250.16978
ionization energy=70 eV
ion type=[M]+*
computed spectral entropy=2.7939838936755885
computed normalized entropy=0.7626414302669864
SPLASH=splash10-056u-9000000000-2d33bf5229df5f6a0f20
submitter=submitter = University of Tokyo Team (Faculty of Engineering, University of Tokyo)
MoNA Rating=3.75

>  <NUM PEAKS>  (2147) 
39

>  <MASS SPECTRAL PEAKS>  (2147) 
15 3.37
26 3.95
27 48.7
28 16.17
29 99.99
30 2.79
31 5.17
38 1.44
39 28.08
40 3.64
41 96.05
42 6.42
43 11.77
47 7.64
50 1.57
51 2.79
53 3.19
54 1.57
55 14.73
56 14.6
57 55.53
58 2.52
65 10.33
77 5.35
78 1.75
79 1.8
82 7.05
83 77.45
96 2.47
97 4
99 3.41
109 4.04
111 1.71
121 3.55
123 5.17
137 2.07
139 15.23
177 3.41
195 4.49

>  <PREDICTED SPECTRUM>  (2147) 
27 56
29 107
39 80
40 17
41 237
42 31
43 116
44 30
47 67
53 40
54 8
55 203
56 167
57 245
58 22
63 38
64 7
65 229
66 34
67 17
68 38
69 105
70 9
79 104
80 93
81 21
82 128
83 243
91 18
92 48
96 242
97 497
98 68
99 19
103 50
105 43
109 287
110 151
111 122
121 390
122 142
123 190
124 55
125 44
135 11
136 3
137 218
138 178
139 999
140 178
141 48
149 10
150 4
151 98
152 11
153 373
165 211
166 6
167 22
177 185
178 97
179 57
193 52
195 404
196 41
207 83
221 102
250 11

$$$$

     RDKit          2D

  6  5  0  0  0  0  0  0  0  0999 V2000
   -4.5466    3.3750    0.0000 C   0  0  0  0  0  0  0  0  0  0  0  0
   -3.2476    2.6250    0.0000 C   0  0  0  0  0  0  0  0  0  0  0  0
    0.6495    3.3750    0.0000 C   0  0  0  0  0  0  0  0  0  0  0  0
   -0.6495    2.6250    0.0000 C   0  0  0  0  0  0  0  0  0  0  0  0
    1.9486    2.6250    0.0000 N   0  0  0  0  0  0  0  0  0  0  0  0
   -1.9486    3.3750    0.0000 O   0  0  0  0  0  0  0  0  0  0  0  0
  2  1  1  0
  4  3  1  0
  5  3  1  0
  6  2  1  0
  6  4  1  0
M  END
>  <NAME>  (2148) 
2-ETHOXYETHYLAMINE

>  <SYNONYMS>  (2148) 
2-AMINOETHYL ETHYL ETHER

>  <SPECTRUM TYPE>  (2148) 
MS1

>  <INSTRUMENT TYPE>  (2148) 
EI-B

>  <INSTRUMENT>  (2148) 
HITACHI RMU-7M

>  <ION MODE>  (2148) 
P

>  <INCHIKEY>  (2148) 
BPGIOCZAQDIBPI-UHFFFAOYSA-N

>  <FORMULA>  (2148) 
C4H11NO

>  <EXACT MASS>  (2148) 
89.084063972

>  <MW>  (2148) 
89

>  <ID>  (2148) 
JP008893

>  <CONTRIBUTOR>  (2148) 
University of Tokyo Team, {Faculty of Engineering, University of Tokyo

>  <COMMENT>  (2148) 
SMILES=CCOCCN
InChI=InChI=1S/C4H11NO/c1-2-6-4-3-5/h2-5H2,1H3
computed SMILES=O(CC)CCN
accession=JP008893
date=2016.01.19 (Created 2008.10.21, modified 2011.05.06)
author=TAJIMA S, GUNMA COLLEGE OF TECHNOLOGY
license=CC BY-NC-SA
exact mass=89.08406
ionization energy=70 eV
ion type=[M]+*
computed spectral entropy=2.0537358109969324
computed normalized entropy=0.7248786312917289
SPLASH=splash10-001i-9000000000-ac64281c63a912ef06f4
submitter=submitter = University of Tokyo Team (Faculty of Engineering, University of Tokyo)
MoNA Rating=3.75

>  <NUM PEAKS>  (2148) 
17

>  <MASS SPECTRAL PEAKS>  (2148) 
14 1.57
15 5.33
17 1.21
18 7.26
26 4
27 14.16
28 14.32
29 13.01
30 99.99
31 10.29
41 3.45
42 9.99
43 6.05
44 8.1
45 19.07
59 1.21
60 1

>  <PREDICTED SPECTRUM>  (2148) 
14 41
15 166
16 35
17 55
18 125
19 32
25 16
26 118
27 339
28 336
29 443
30 999
31 512
32 62
33 26
38 79
39 183
40 125
41 310
42 302
43 328
44 300
45 487
46 194
47 25
52 42
54 59
56 58
57 19
59 691
60 213
61 22
62 22
70 57
71 78
72 253
73 81
74 30
88 20
89 123
90 23

$$$$

     RDKit          2D

  5  4  0  0  0  0  0  0  0  0999 V2000
   -1.2990    0.7500    0.0000 C   0  0  0  0  0  0  0  0  0  0  0  0
    0.7500    0.2010    0.0000 C   0  0  0  0  0  0  0  0  0  0  0  0
    1.2990    2.2500    0.0000 C   0  0  0  0  0  0  0  0  0  0  0  0
    0.0000    1.5000    0.0000 C   0  0  0  0  0  0  0  0  0  0  0  0
   -0.7500    2.7990    0.0000 O   0  0  0  0  0  0  0  0  0  0  0  0
  4  1  1  0
  4  2  1  0
  4  3  1  0
  5  4  1  0
M  END
>  <NAME>  (2149) 
TERT-BUTANOL

>  <SYNONYMS>  (2149) 
1,1-DIMETHYL ETHANOL

>  <SPECTRUM TYPE>  (2149) 
MS1

>  <INSTRUMENT TYPE>  (2149) 
EI-B

>  <INSTRUMENT>  (2149) 
HITACHI RMU-7M

>  <ION MODE>  (2149) 
P

>  <INCHIKEY>  (2149) 
DKGAVHZHDRPRBM-UHFFFAOYSA-N

>  <FORMULA>  (2149) 
C4H10O

>  <EXACT MASS>  (2149) 
74.07316494

>  <MW>  (2149) 
74

>  <ID>  (2149) 
JP008892

>  <CONTRIBUTOR>  (2149) 
University of Tokyo Team, {Faculty of Engineering, University of Tokyo

>  <COMMENT>  (2149) 
SMILES=CC(C)(C)O
InChI=InChI=1S/C4H10O/c1-4(2,3)5/h5H,1-3H3
computed SMILES=OC(C)(C)C
accession=JP008892
date=2016.01.19 (Created 2008.10.21, modified 2011.05.06)
author=TAJIMA S, GUNMA COLLEGE OF TECHNOLOGY
license=CC BY-NC-SA
exact mass=74.07316
ionization energy=70 eV
ion type=[M]+*
computed spectral entropy=2.0981385212355805
computed normalized entropy=0.7003758445832181
SPLASH=splash10-0a4i-9000000000-6712497b9eeb1353c71a
submitter=submitter = University of Tokyo Team (Faculty of Engineering, University of Tokyo)
MoNA Rating=3.75

>  <NUM PEAKS>  (2149) 
20

>  <MASS SPECTRAL PEAKS>  (2149) 
14 2
15 11.8
26 1.94
27 7.99
28 1.94
29 8.43
31 29.21
38 1.81
39 9.11
40 1.19
41 21.1
42 3.12
43 15.04
44 1.19
55 2.75
56 1.31
57 9.74
58 1
59 99.99
60 3.68

>  <PREDICTED SPECTRUM>  (2149) 
14 56
15 145
16 18
17 11
18 23
19 19
25 18
26 92
27 262
28 134
29 253
31 311
32 37
33 16
37 19
38 57
39 279
40 110
41 352
42 147
43 594
44 6
45 27
50 22
53 142
54 21
55 164
56 170
57 229
58 40
59 999
60 182
61 25

$$$$

     RDKit          2D

  5  4  0  0  0  0  0  0  0  0999 V2000
   -1.2990    0.7500    0.0000 C   0  0  0  0  0  0  0  0  0  0  0  0
    0.7500    0.2010    0.0000 C   0  0  0  0  0  0  0  0  0  0  0  0
    1.2990    2.2500    0.0000 C   0  0  0  0  0  0  0  0  0  0  0  0
   -0.7500    2.7990    0.0000 C   0  0  0  0  0  0  0  0  0  0  0  0
    0.0000    1.5000    0.0000 Si  0  0  0  0  0  4  0  0  0  0  0  0
  5  1  1  0
  5  2  1  0
  5  3  1  0
  5  4  1  0
M  END
>  <NAME>  (2150) 
TETRAMETHYLSILANE

>  <SYNONYMS>  (2150) 


>  <SPECTRUM TYPE>  (2150) 
MS1

>  <INSTRUMENT TYPE>  (2150) 
EI-B

>  <INSTRUMENT>  (2150) 
HITACHI RMU-7M

>  <ION MODE>  (2150) 
P

>  <INCHIKEY>  (2150) 
CZDYPVPMEAXLPK-UHFFFAOYSA-N

>  <FORMULA>  (2150) 
C4H12Si

>  <EXACT MASS>  (2150) 
88.070826914

>  <MW>  (2150) 
88

>  <ID>  (2150) 
JP008891

>  <CONTRIBUTOR>  (2150) 
University of Tokyo Team, {Faculty of Engineering, University of Tokyo

>  <COMMENT>  (2150) 
SMILES=C[Si](C)(C)C
InChI=InChI=1S/C4H12Si/c1-5(2,3)4/h1-4H3
computed SMILES=C[Si](C)(C)C
accession=JP008891
date=2016.01.19 (Created 2008.10.21, modified 2011.05.06)
author=TAJIMA S, GUNMA COLLEGE OF TECHNOLOGY
license=CC BY-NC-SA
exact mass=88.07083
ionization energy=70 eV
ion type=[M]+*
computed spectral entropy=1.6205946261779254
computed normalized entropy=0.5606872616820472
SPLASH=splash10-00di-9000000000-c242e467cf90a192a2e5
submitter=submitter = University of Tokyo Team (Faculty of Engineering, University of Tokyo)
MoNA Rating=3.75

>  <NUM PEAKS>  (2150) 
18

>  <MASS SPECTRAL PEAKS>  (2150) 
15 6.92
27 1.31
28 1.12
29 2.87
31 1.87
42 2.37
43 9.66
44 2.43
45 12.59
53 1.75
55 1.75
57 1.25
58 1.62
59 1.87
73 99.99
74 8.29
75 3.62
88 1

>  <PREDICTED SPECTRUM>  (2150) 
14 36
15 124
27 95
29 132
31 149
32 8
33 4
39 62
40 52
41 49
42 195
43 486
44 113
45 456
46 170
47 80
49 4
50 15
53 146
54 5
55 29
56 11
57 223
58 161
59 642
60 115
61 59
69 83
70 45
71 125
72 104
73 999
74 318
75 405
76 39
87 12
88 72
89 140

$$$$

     RDKit          2D

  4  3  0  0  0  0  0  0  0  0999 V2000
   -2.5981    2.2500    0.0000 C   0  0  0  0  0  0  0  0  0  0  0  0
   -1.2990    1.5000    0.0000 C   0  0  0  0  0  0  0  0  0  0  0  0
    0.0000    2.2500    0.0000 C   0  0  0  0  0  0  0  0  0  0  0  0
    1.2990    1.5000    0.0000 Cl  0  0  0  0  0  0  0  0  0  0  0  0
  2  1  2  0
  3  2  1  0
  4  3  1  0
M  END
>  <NAME>  (2151) 
3-CHLOROPROPENE

>  <SYNONYMS>  (2151) 
ALLYL CHLORIDE

>  <SPECTRUM TYPE>  (2151) 
MS1

>  <INSTRUMENT TYPE>  (2151) 
EI-B

>  <INSTRUMENT>  (2151) 
HITACHI RMU-7M

>  <ION MODE>  (2151) 
P

>  <INCHIKEY>  (2151) 
OSDWBNJEKMUWAV-UHFFFAOYSA-N

>  <FORMULA>  (2151) 
C3H5Cl

>  <EXACT MASS>  (2151) 
76.00797784

>  <MW>  (2151) 
76

>  <ID>  (2151) 
JP008890

>  <CONTRIBUTOR>  (2151) 
University of Tokyo Team, {Faculty of Engineering, University of Tokyo

>  <COMMENT>  (2151) 
SMILES=C=CCCl
InChI=InChI=1S/C3H5Cl/c1-2-3-4/h2H,1,3H2
computed SMILES=ClCC=C
accession=JP008890
date=2016.01.19 (Created 2008.10.21, modified 2011.05.06)
author=TAJIMA S, GUNMA COLLEGE OF TECHNOLOGY
license=CC BY-NC-SA
exact mass=76.00798
ionization energy=70 eV
ion type=[M]+*
computed spectral entropy=2.0934010916616126
computed normalized entropy=0.6875958822714335
SPLASH=splash10-000f-9000000000-7c6965a473a2f3372248
submitter=submitter = University of Tokyo Team (Faculty of Engineering, University of Tokyo)
MoNA Rating=3.75

>  <NUM PEAKS>  (2151) 
21

>  <MASS SPECTRAL PEAKS>  (2151) 
14 1.66
15 2.69
25 1.27
26 4.69
27 8.36
28 1.37
35 2.44
36 2.54
37 8.7
38 11.05
39 57.33
40 9.53
41 99.99
42 4.2
49 3.91
51 1.22
61 1
75 3.96
76 29.18
77 2.2
78 9.43

>  <PREDICTED SPECTRUM>  (2151) 
14 139
15 201
16 10
19 13
25 116
26 334
27 631
28 268
29 198
31 124
32 27
33 41
35 232
36 267
37 341
38 394
39 840
40 375
41 999
42 299
43 82
47 61
48 108
49 446
50 313
51 462
52 79
57 32
61 71
64 2
75 269
76 440
77 110
78 196

$$$$

     RDKit          2D

  2  1  0  0  0  0  0  0  0  0999 V2000
    0.0000    0.0000    0.0000 C   0  0  0  0  0  0  0  0  0  0  0  0
    1.5000    0.0000    0.0000 O   0  0  0  0  0  0  0  0  0  0  0  0
  2  1  1  0
M  END
>  <NAME>  (2152) 
METHANOL

>  <SYNONYMS>  (2152) 
METHYL ALCOHOL

>  <SPECTRUM TYPE>  (2152) 
MS1

>  <INSTRUMENT TYPE>  (2152) 
EI-B

>  <INSTRUMENT>  (2152) 
HITACHI RMU-7M

>  <ION MODE>  (2152) 
P

>  <INCHIKEY>  (2152) 
OKKJLVBELUTLKV-UHFFFAOYSA-N

>  <FORMULA>  (2152) 
CH4O

>  <EXACT MASS>  (2152) 
32.026214748

>  <MW>  (2152) 
32

>  <ID>  (2152) 
JP008889

>  <CONTRIBUTOR>  (2152) 
University of Tokyo Team, {Faculty of Engineering, University of Tokyo

>  <COMMENT>  (2152) 
SMILES=CO
InChI=InChI=1S/CH4O/c1-2/h2H,1H3
computed SMILES=OC
accession=JP008889
date=2016.01.19 (Created 2008.10.21, modified 2011.05.06)
author=TAJIMA S, GUNMA COLLEGE OF TECHNOLOGY
license=CC BY-NC-SA
exact mass=32.02621
ionization energy=70 eV
ion type=[M]+*
computed spectral entropy=1.6442394852705196
computed normalized entropy=0.6616906455664231
SPLASH=splash10-001i-9000000000-2173f5595be586c5c940
submitter=submitter = University of Tokyo Team (Faculty of Engineering, University of Tokyo)
MoNA Rating=3.75

>  <NUM PEAKS>  (2152) 
12

>  <MASS SPECTRAL PEAKS>  (2152) 
12 1.3
13 2.53
14 5.13
15 24.73
17 1.53
18 1.38
28 4.98
29 51.23
30 6.97
31 99.99
32 73.74
33 1.61

>  <PREDICTED SPECTRUM>  (2152) 
14 259
15 490
16 130
17 40
18 19
19 148
25 194
26 491
27 869
28 593
29 999
30 399
31 857
32 703
33 653
34 275
36 134
37 271

$$$$

     RDKit          2D

  8  7  0  0  0  0  0  0  0  0999 V2000
    1.9486    3.3750    0.0000 C   0  0  0  0  0  0  0  0  0  0  0  0
   -5.8457    3.3750    0.0000 C   0  0  0  0  0  0  0  0  0  0  0  0
    0.6495    4.1250    0.0000 C   0  0  0  0  0  0  0  0  0  0  0  0
   -4.5466    4.1250    0.0000 C   0  0  0  0  0  0  0  0  0  0  0  0
   -1.9486    5.6250    0.0000 O   0  0  0  0  0  0  0  0  0  0  0  0
   -0.6495    3.3750    0.0000 O   0  0  0  0  0  0  0  0  0  0  0  0
   -3.2476    3.3750    0.0000 O   0  0  0  0  0  0  0  0  0  0  0  0
   -1.9486    4.1250    0.0000 P   0  0  0  0  0  0  0  0  0  0  0  0
  3  1  1  0
  4  2  1  0
  6  3  1  0
  7  4  1  0
  8  5  2  0
  8  6  1  0
  8  7  1  0
M  END
>  <NAME>  (2153) 
DIETHYLPHOSPHITE

>  <SYNONYMS>  (2153) 
PHOSPHONIC ACID DIETHYL ESTER

>  <SPECTRUM TYPE>  (2153) 
MS1

>  <INSTRUMENT TYPE>  (2153) 
EI-B

>  <INSTRUMENT>  (2153) 
HITACHI RMU-7M

>  <ION MODE>  (2153) 
P

>  <INCHIKEY>  (2153) 
MJUJXFBTEFXVKU-UHFFFAOYSA-N

>  <FORMULA>  (2153) 
C4H11O3P

>  <EXACT MASS>  (2153) 
138.044580842

>  <MW>  (2153) 
138

>  <ID>  (2153) 
JP008888

>  <CONTRIBUTOR>  (2153) 
University of Tokyo Team, {Faculty of Engineering, University of Tokyo

>  <COMMENT>  (2153) 
SMILES=CCOP(=O)OCC
InChI=InChI=1S/C4H11O3P/c1-3-6-8(5)7-4-2/h8H,3-4H2,1-2H3
computed SMILES=O=P(OCC)OCC
accession=JP008888
date=2016.01.19 (Created 2008.10.21, modified 2011.05.06)
author=TAJIMA S, GUNMA COLLEGE OF TECHNOLOGY
license=CC BY-NC-SA
exact mass=138.04458
ionization energy=70 eV
ion type=[M]+*
computed spectral entropy=2.8531474972766886
computed normalized entropy=0.8388656044073407
SPLASH=splash10-02e9-9100000000-989d0651b62e458f81dc
submitter=submitter = University of Tokyo Team (Faculty of Engineering, University of Tokyo)
MoNA Rating=3.75

>  <NUM PEAKS>  (2153) 
30

>  <MASS SPECTRAL PEAKS>  (2153) 
15 15.89
19 2.86
26 10.17
27 43.87
28 29.24
29 52.77
30 3.37
31 16.59
42 2.8
43 12.08
44 2.23
45 32.99
47 20.22
65 79.47
66 26.19
67 2.54
81 9.09
82 14.49
83 99.99
91 1.84
92 9.54
93 26.64
94 12.91
95 9.85
109 11.38
110 8.46
111 83.6
123 4.39
137 1.27
139 2.29

>  <PREDICTED SPECTRUM>  (2153) 
14 38
16 10
18 21
19 23
25 43
26 224
27 584
28 324
29 999
30 112
31 112
32 16
35 83
36 174
37 288
38 161
39 129
41 180
42 155
43 85
44 114
45 178
46 71
47 673
48 193
49 164
52 38
54 259
55 698
56 93
63 203
64 375
65 743
66 330
67 209
79 42
80 72
81 659
82 411
83 519
92 651
93 944
94 531
95 85
109 296
110 424
111 351
138 173
139 28

$$$$

     RDKit          2D

 10 10  0  0  0  0  0  0  0  0999 V2000
    1.8487   -2.7991    0.0000 C   0  0  0  0  0  0  0  0  0  0  0  0
    3.8978   -2.2504    0.0000 C   0  0  0  0  0  0  0  0  0  0  0  0
    3.3491   -0.2013    0.0000 C   0  0  0  0  0  0  0  0  0  0  0  0
   -1.3000    0.7500    0.0000 C   0  0  0  0  0  0  0  0  0  0  0  0
    0.0000    1.5000    0.0000 C   0  0  0  0  0  0  0  0  0  0  0  0
   -1.3000   -0.7500    0.0000 C   0  0  0  0  0  0  0  0  0  0  0  0
    1.3000    0.7500    0.0000 C   0  0  0  0  0  0  0  0  0  0  0  0
    0.0000   -1.5000    0.0000 C   0  0  0  0  0  0  0  0  0  0  0  0
    1.3000   -0.7500    0.0000 C   0  0  0  0  0  0  0  0  0  0  0  0
    2.5989   -1.5002    0.0000 Si  0  0  0  0  0  4  0  0  0  0  0  0
  5  4  2  0
  6  4  1  0
  7  5  1  0
  8  6  2  0
  9  7  2  0
  9  8  1  0
 10  1  1  0
 10  2  1  0
 10  3  1  0
 10  9  1  0
M  END
>  <NAME>  (2154) 
TRIMETHYLPHENYLSILANE

>  <SYNONYMS>  (2154) 


>  <SPECTRUM TYPE>  (2154) 
MS1

>  <INSTRUMENT TYPE>  (2154) 
EI-B

>  <INSTRUMENT>  (2154) 
HITACHI RMU-7M

>  <ION MODE>  (2154) 
P

>  <INCHIKEY>  (2154) 
KXFSUVJPEQYUGN-UHFFFAOYSA-N

>  <FORMULA>  (2154) 
C9H14Si

>  <EXACT MASS>  (2154) 
150.086476978

>  <MW>  (2154) 
150

>  <ID>  (2154) 
JP008887

>  <CONTRIBUTOR>  (2154) 
University of Tokyo Team, {Faculty of Engineering, University of Tokyo

>  <COMMENT>  (2154) 
SMILES=c(c1)ccc(c1)[Si](C)(C)C
InChI=InChI=1S/C9H14Si/c1-10(2,3)9-7-5-4-6-8-9/h4-8H,1-3H3
computed SMILES=C=1C=CC(=CC1)[Si](C)(C)C
accession=JP008887
date=2016.01.19 (Created 2008.10.21, modified 2011.05.06)
author=TAJIMA S, GUNMA COLLEGE OF TECHNOLOGY
license=CC BY-NC-SA
exact mass=150.08648
ionization energy=70 eV
ion type=[M]+*
computed spectral entropy=2.5420381314890705
computed normalized entropy=0.7149899496546492
SPLASH=splash10-000i-5900000000-5ebbdad87cc2c0dcc693
submitter=submitter = University of Tokyo Team (Faculty of Engineering, University of Tokyo)
MoNA Rating=3.75

>  <NUM PEAKS>  (2154) 
35

>  <MASS SPECTRAL PEAKS>  (2154) 
15 3.26
27 2.76
28 1.29
29 2.46
39 2.64
43 14
44 1.54
45 3.62
50 3.62
51 8.11
53 6.39
55 2.4
58 2.46
65 2.15
66 1.23
67 2.27
67.5 1.23
73 2.52
74 1.35
77 5.22
78 1.6
79 2.46
91 4.67
92 2.21
93 2.95
105 7.99
107 4.55
109 1.17
121 3.01
123 1.78
135 99.99
136 13.82
137 4.24
150 11.43
151 1.66

>  <PREDICTED SPECTRUM>  (2154) 
27 17
29 64
31 44
38 7
39 57
41 63
42 20
43 216
44 113
45 171
46 3
47 71
49 9
50 53
51 138
52 66
53 137
54 41
55 87
56 6
57 141
58 104
59 190
60 25
61 24
62 6
63 43
65 42
66 43
67 137
68 32
69 56
71 7
72 55
73 244
74 107
75 180
76 21
77 179
78 77
79 116
80 20
81 95
82 20
83 51
91 126
92 9
93 22
95 33
105 222
106 52
107 206
108 39
109 85
117 43
119 157
121 20
133 135
134 22
135 999
136 387
137 183
138 14
150 354
151 131
152 18

$$$$

     RDKit          2D

 10 10  0  0  0  0  0  0  0  0999 V2000
   -1.3000    0.7500    0.0000 C   0  0  0  0  0  0  0  0  0  0  0  0
    0.0000    1.5000    0.0000 C   0  0  0  0  0  0  0  0  0  0  0  0
   -1.3000   -0.7500    0.0000 C   0  0  0  0  0  0  0  0  0  0  0  0
    1.3000    0.7500    0.0000 C   0  0  0  0  0  0  0  0  0  0  0  0
    0.0000   -1.5000    0.0000 C   0  0  0  0  0  0  0  0  0  0  0  0
    1.3000   -0.7500    0.0000 C   0  0  0  0  0  0  0  0  0  0  0  0
    1.8487   -2.7991    0.0000 Cl  0  0  0  0  0  0  0  0  0  0  0  0
    3.8978   -2.2504    0.0000 Cl  0  0  0  0  0  0  0  0  0  0  0  0
    3.3491   -0.2013    0.0000 Cl  0  0  0  0  0  0  0  0  0  0  0  0
    2.5989   -1.5002    0.0000 Si  0  0  0  0  0  4  0  0  0  0  0  0
  2  1  2  0
  3  1  1  0
  4  2  1  0
  5  3  2  0
  6  4  2  0
  6  5  1  0
 10  6  1  0
 10  7  1  0
 10  8  1  0
 10  9  1  0
M  END
>  <NAME>  (2155) 
TRICHLOROPHENYLSILANE

>  <SYNONYMS>  (2155) 


>  <SPECTRUM TYPE>  (2155) 
MS1

>  <INSTRUMENT TYPE>  (2155) 
EI-B

>  <INSTRUMENT>  (2155) 
HITACHI RMU-7M

>  <ION MODE>  (2155) 
P

>  <INCHIKEY>  (2155) 
ORVMIVQULIKXCP-UHFFFAOYSA-N

>  <FORMULA>  (2155) 
C6H5Cl3Si

>  <EXACT MASS>  (2155) 
209.92260972999998

>  <MW>  (2155) 
210

>  <ID>  (2155) 
JP008886

>  <CONTRIBUTOR>  (2155) 
University of Tokyo Team, {Faculty of Engineering, University of Tokyo

>  <COMMENT>  (2155) 
SMILES=c(c1)ccc(c1)[Si](Cl)(Cl)Cl
InChI=InChI=1S/C6H5Cl3Si/c7-10(8,9)6-4-2-1-3-5-6/h1-5H
computed SMILES=Cl[Si](Cl)(Cl)C=1C=CC=CC1
accession=JP008886
date=2016.01.19 (Created 2008.10.21, modified 2011.05.06)
author=TAJIMA S, GUNMA COLLEGE OF TECHNOLOGY
license=CC BY-NC-SA
exact mass=209.92261
ionization energy=70 eV
ion type=[M]+*
computed spectral entropy=3.2318714903043952
computed normalized entropy=0.8304267008097422
SPLASH=splash10-03fr-7960000000-9a4d07f466170df12ca2
submitter=submitter = University of Tokyo Team (Faculty of Engineering, University of Tokyo)
MoNA Rating=3.75

>  <NUM PEAKS>  (2155) 
49

>  <MASS SPECTRAL PEAKS>  (2155) 
26 2.21
27 5.67
28 1.29
35 2.01
36 4.22
37 2.77
38 4.7
39 6.85
49 2.49
50 35.89
51 62.24
52 5.26
53 5.74
63 32.78
65 12.1
73 2.7
74 11.41
75 8.64
76 13.14
77 49.65
78 5.46
91 4.36
98 5.53
100 3.87
112 17.29
114 5.88
123 5.46
125 3.46
133 24.2
135 24.34
137 8.51
139 4.22
142 5.33
144 3.46
147 2.77
149 2.49
174 11.13
175 99.99
176 18.67
177 67.29
178 9.34
179 12.59
210 85.13
211 10.37
212 84.37
213 9.75
214 29.46
215 3.46
216 3.6

>  <PREDICTED SPECTRUM>  (2155) 
35 29
38 26
39 62
43 170
44 11
49 112
50 231
51 364
52 223
53 3
62 87
63 472
64 122
65 173
66 10
74 82
75 217
76 178
77 267
78 166
79 172
80 47
89 91
90 132
98 100
99 77
100 243
101 54
112 260
113 172
114 43
125 58
133 577
134 87
135 538
136 143
137 187
139 322
140 76
141 15
173 0
174 235
175 957
176 561
177 786
178 338
179 336
180 85
210 987
211 481
212 999
213 418
214 606
215 210

$$$$

     RDKit          2D

 17 18  0  0  0  0  0  0  0  0999 V2000
    5.1970   -1.5006    0.0000 C   0  0  0  0  0  0  0  0  0  0  0  0
    5.0402   -2.3892    0.0000 C   0  0  0  0  0  0  0  0  0  0  0  0
   -1.3000    0.7500    0.0000 C   0  0  0  0  0  0  0  0  0  0  0  0
   -0.2941   -4.9491    0.0000 C   0  0  0  0  0  0  0  0  0  0  0  0
    0.0000    1.5000    0.0000 C   0  0  0  0  0  0  0  0  0  0  0  0
   -1.3000   -0.7500    0.0000 C   0  0  0  0  0  0  0  0  0  0  0  0
   -0.8070   -3.5387    0.0000 C   0  0  0  0  0  0  0  0  0  0  0  0
    1.1831   -5.2096    0.0000 C   0  0  0  0  0  0  0  0  0  0  0  0
    1.3000    0.7500    0.0000 C   0  0  0  0  0  0  0  0  0  0  0  0
    0.0000   -1.5000    0.0000 C   0  0  0  0  0  0  0  0  0  0  0  0
    0.1573   -2.3886    0.0000 C   0  0  0  0  0  0  0  0  0  0  0  0
    2.1474   -4.0596    0.0000 C   0  0  0  0  0  0  0  0  0  0  0  0
    1.3000   -0.7500    0.0000 C   0  0  0  0  0  0  0  0  0  0  0  0
    1.6346   -2.6491    0.0000 C   0  0  0  0  0  0  0  0  0  0  0  0
    3.8981   -0.7504    0.0000 O   0  0  0  0  0  0  0  0  0  0  0  0
    3.5629   -2.6494    0.0000 O   0  0  0  0  0  0  0  0  0  0  0  0
    2.5989   -1.5002    0.0000 Si  0  0  0  0  0  4  0  0  0  0  0  0
  5  3  2  0
  6  3  1  0
  7  4  2  0
  8  4  1  0
  9  5  1  0
 10  6  2  0
 11  7  1  0
 12  8  2  0
 13  9  2  0
 13 10  1  0
 14 11  2  0
 14 12  1  0
 15  1  1  0
 16  2  1  0
 17 13  1  0
 17 14  1  0
 17 15  1  0
 17 16  1  0
M  END
>  <NAME>  (2156) 
DIMETHOXYDIPHENYLSILANE

>  <SYNONYMS>  (2156) 


>  <SPECTRUM TYPE>  (2156) 
MS1

>  <INSTRUMENT TYPE>  (2156) 
EI-B

>  <INSTRUMENT>  (2156) 
HITACHI RMU-7M

>  <ION MODE>  (2156) 
P

>  <INCHIKEY>  (2156) 
AHUXYBVKTIBBJW-UHFFFAOYSA-N

>  <FORMULA>  (2156) 
C14H16O2Si

>  <EXACT MASS>  (2156) 
244.091956282

>  <MW>  (2156) 
244

>  <ID>  (2156) 
JP008885

>  <CONTRIBUTOR>  (2156) 
University of Tokyo Team, {Faculty of Engineering, University of Tokyo

>  <COMMENT>  (2156) 
SMILES=CO[Si](OC)(c(c2)cccc2)c(c1)cccc1
InChI=InChI=1S/C14H16O2Si/c1-15-17(16-2,13-9-5-3-6-10-13)14-11-7-4-8-12-14/h3-12H,1-2H3
computed SMILES=O(C)[Si](OC)(C=1C=CC=CC1)C=2C=CC=CC2
accession=JP008885
date=2016.01.19 (Created 2008.10.21, modified 2011.05.06)
author=TAJIMA S, GUNMA COLLEGE OF TECHNOLOGY
license=CC BY-NC-SA
exact mass=244.09196
ionization energy=70 eV
ion type=[M]+*
computed spectral entropy=3.075735559618103
computed normalized entropy=0.8033490842048004
SPLASH=splash10-014i-3910000000-58934656335e8b1a8d1d
submitter=submitter = University of Tokyo Team (Faculty of Engineering, University of Tokyo)
MoNA Rating=3.75

>  <NUM PEAKS>  (2156) 
46

>  <MASS SPECTRAL PEAKS>  (2156) 
15 3.27
29 3.5
31 2.28
39 1.99
45 2.63
50 4.67
51 14.31
52 1.34
53 1.75
59 18.05
60 1.99
75 1.52
76 1.52
77 12.97
78 6.13
79 1.75
90 1.81
91 16.36
92 1.87
105 7.59
106 1.75
107 21.2
108 2.45
127 2.57
136 6.43
137 26.4
138 3.62
139 1.52
152 3.04
153 5.55
154 27.45
155 4.85
165 2.75
166 31.07
167 99.99
168 14.6
169 4.79
181 4.61
183 4.67
206 2.63
208 2.45
211 2.04
213 4.67
244 39.25
245 7.89
246 2.34

>  <PREDICTED SPECTRUM>  (2156) 
26 17
27 67
29 27
39 68
43 22
45 91
47 119
49 18
50 151
51 344
52 117
53 105
57 26
59 125
62 14
63 127
64 3
65 124
66 39
69 25
74 6
75 0
76 68
77 526
78 302
79 137
80 44
81 9
82 6
89 80
90 69
91 324
92 115
93 66
95 28
96 26
97 73
99 10
100 55
101 27
102 137
103 273
104 68
105 424
106 219
107 158
108 128
109 121
110 30
115 107
116 7
117 54
119 7
121 257
122 158
123 264
124 103
125 29
129 89
131 17
135 106
136 122
137 189
138 101
139 261
140 33
141 85
143 32
151 294
152 413
153 318
154 283
155 129
164 28
165 303
166 492
167 736
168 347
169 204
171 107
173 3
181 21
182 52
183 579
184 258
185 162
186 131
197 170
199 256
200 41
212 176
213 123
229 227
230 49
243 136
244 999
245 369
246 181

$$$$

     RDKit          2D

 11 12  0  0  0  0  0  0  0  0999 V2000
   -2.6000   -0.7500    0.0000 C   0  0  0  0  0  0  0  0  0  0  0  0
   -2.6000    0.7500    0.0000 C   0  0  0  0  0  0  0  0  0  0  0  0
    2.6000   -0.7500    0.0000 C   0  0  0  0  0  0  0  0  0  0  0  0
   -1.3000   -1.5000    0.0000 C   0  0  0  0  0  0  0  0  0  0  0  0
    1.3000   -1.5000    0.0000 C   0  0  0  0  0  0  0  0  0  0  0  0
   -1.3000    1.5000    0.0000 C   0  0  0  0  0  0  0  0  0  0  0  0
    2.6000    0.7500    0.0000 C   0  0  0  0  0  0  0  0  0  0  0  0
    0.0000   -0.7500    0.0000 C   0  0  0  0  0  0  0  0  0  0  0  0
    0.0000    0.7500    0.0000 C   0  0  0  0  0  0  0  0  0  0  0  0
    1.3000    1.5000    0.0000 C   0  0  0  0  0  0  0  0  0  0  0  0
    1.3000    3.0000    0.0000 Br  0  0  0  0  0  0  0  0  0  0  0  0
  2  1  2  0
  4  1  1  0
  5  3  2  0
  6  2  1  0
  7  3  1  0
  8  4  2  0
  8  5  1  0
  9  6  2  0
  9  8  1  0
 10  7  2  0
 10  9  1  0
 11 10  1  0
M  END
>  <NAME>  (2157) 
1-BROMONAPHTHALENE

>  <SYNONYMS>  (2157) 


>  <SPECTRUM TYPE>  (2157) 
MS1

>  <INSTRUMENT TYPE>  (2157) 
EI-B

>  <INSTRUMENT>  (2157) 
HITACHI RMU-7M

>  <ION MODE>  (2157) 
P

>  <INCHIKEY>  (2157) 
DLKQHBOKULLWDQ-UHFFFAOYSA-N

>  <FORMULA>  (2157) 
C10H7Br

>  <EXACT MASS>  (2157) 
205.973112324

>  <MW>  (2157) 
206

>  <ID>  (2157) 
JP008884

>  <CONTRIBUTOR>  (2157) 
University of Tokyo Team, {Faculty of Engineering, University of Tokyo

>  <COMMENT>  (2157) 
SMILES=c(c2)cc(c1)c(c2)c(Br)cc1
InChI=InChI=1S/C10H7Br/c11-10-7-3-5-8-4-1-2-6-9(8)10/h1-7H
computed SMILES=BrC1=CC=CC=2C=CC=CC12
accession=JP008884
date=2016.01.19 (Created 2008.10.21, modified 2011.05.06)
author=TAJIMA S, GUNMA COLLEGE OF TECHNOLOGY
license=CC BY-NC-SA
exact mass=205.97311
ionization energy=70 eV
ion type=[M]+*
computed spectral entropy=3.0327918654796746
computed normalized entropy=0.8063362150887391
SPLASH=splash10-0a6r-9670000000-be4fa1fac9eb01e938d9
submitter=submitter = University of Tokyo Team (Faculty of Engineering, University of Tokyo)
MoNA Rating=3.75

>  <NUM PEAKS>  (2157) 
43

>  <MASS SPECTRAL PEAKS>  (2157) 
26 3.88
27 4.79
37 4.3
38 7.82
39 10.01
43 1.41
49 2.68
50 20.16
51 14.73
52 2.26
61 7.96
62 14.38
63 19.03
63.5 4.58
64 2.11
73 3.88
74 26.07
75 20.08
76 9.51
77 15.43
79 2.04
81 2.11
85 3.88
86 7.47
87 12.68
88 2.26
97 1.83
98 10.22
99 7.75
100 5.71
101 11.84
102 1.41
103 5
104 5.07
122 1.76
125 2.82
126 31.22
127 99.99
128 11.98
206 94.36
207 10.5
208 92.18
209 9.94

>  <PREDICTED SPECTRUM>  (2157) 
36 10
37 90
38 143
39 210
40 34
41 51
43 69
44 69
45 17
47 15
48 1
49 132
50 344
51 301
52 109
55 11
56 23
57 143
58 85
61 205
62 297
63 382
64 190
65 68
69 157
70 28
71 144
72 68
73 235
74 331
75 402
76 288
77 183
78 14
79 113
80 28
81 80
82 55
83 45
84 113
85 141
86 232
87 277
88 58
89 81
93 74
95 54
96 60
97 94
98 196
99 217
100 234
101 170
102 95
107 89
111 89
112 40
113 41
117 49
123 62
124 22
125 249
126 479
127 785
128 355
129 75
206 950
207 290
208 999
209 346
210 96

$$$$

     RDKit          2D

 10  9  0  0  0  0  0  0  0  0999 V2000
    2.5981    3.7500    0.0000 C   0  0  0  0  0  0  0  0  0  0  0  0
    1.2990    4.5000    0.0000 C   0  0  0  0  0  0  0  0  0  0  0  0
   -2.5981    3.7500    0.0000 C   0  0  0  0  0  0  0  0  0  0  0  0
   -5.1962    3.7500    0.0000 C   0  0  0  0  0  0  0  0  0  0  0  0
   -3.8971    4.5000    0.0000 C   0  0  0  0  0  0  0  0  0  0  0  0
   -1.2990    4.5000    0.0000 C   0  0  0  0  0  0  0  0  0  0  0  0
   -6.4952    4.5000    0.0000 Cl  0  0  0  0  0  0  0  0  0  0  0  0
   -3.8971    6.0000    0.0000 O   0  0  0  0  0  0  0  0  0  0  0  0
   -1.2990    6.0000    0.0000 O   0  0  0  0  0  0  0  0  0  0  0  0
    0.0000    3.7500    0.0000 O   0  0  0  0  0  0  0  0  0  0  0  0
  2  1  1  0
  5  3  1  0
  5  4  1  0
  6  3  1  0
  7  4  1  0
  8  5  2  0
  9  6  2  0
 10  2  1  0
 10  6  1  0
M  END
>  <NAME>  (2158) 
4-CHLOROACETOACETIC ACID ETHYL ESTER

>  <SYNONYMS>  (2158) 
ETHYL 4-CHLOROACETOACETATE

>  <SPECTRUM TYPE>  (2158) 
MS1

>  <INSTRUMENT TYPE>  (2158) 
EI-B

>  <INSTRUMENT>  (2158) 
HITACHI RMU-7M

>  <ION MODE>  (2158) 
P

>  <INCHIKEY>  (2158) 
OHLRLMWUFVDREV-UHFFFAOYSA-N

>  <FORMULA>  (2158) 
C6H9ClO3

>  <EXACT MASS>  (2158) 
164.02402182799997

>  <MW>  (2158) 
164

>  <ID>  (2158) 
JP008883

>  <CONTRIBUTOR>  (2158) 
University of Tokyo Team, {Faculty of Engineering, University of Tokyo

>  <COMMENT>  (2158) 
SMILES=CCOC(=O)CC(=O)CCl
InChI=InChI=1S/C6H9ClO3/c1-2-10-6(9)3-5(8)4-7/h2-4H2,1H3
computed SMILES=O=C(OCC)CC(=O)CCl
accession=JP008883
date=2016.01.19 (Created 2008.10.21, modified 2011.05.06)
author=TAJIMA S, GUNMA COLLEGE OF TECHNOLOGY
license=CC BY-NC-SA
exact mass=164.02402
ionization energy=70 eV
ion type=[M]+*
computed spectral entropy=3.0940623014223823
computed normalized entropy=0.8278051881009801
SPLASH=splash10-00ou-9100000000-1656628067e06103cf34
submitter=submitter = University of Tokyo Team (Faculty of Engineering, University of Tokyo)
MoNA Rating=3.75

>  <NUM PEAKS>  (2158) 
42

>  <MASS SPECTRAL PEAKS>  (2158) 
14 6.75
15 10.17
25 3.42
26 15.25
27 55.17
28 10.42
29 99.99
30 3.75
31 39.83
37 3.33
38 3.42
39 6.25
41 21.25
42 46.33
43 98.83
44 9.42
45 20.5
46 6.83
49 26.08
51 8.33
53 2.33
55 6.17
60 2.58
69 75.42
70 4.58
73 3
76 2.67
77 26.17
79 8.33
83 2.75
87 10.67
92 4.08
94 1.5
111 8.33
115 66
116 4.25
118 13.67
119 24.33
120 5.92
121 8.17
164 5.83
166 2.33

>  <PREDICTED SPECTRUM>  (2158) 
14 94
15 165
16 33
25 47
26 205
27 566
28 287
29 780
30 250
31 307
32 30
33 103
35 90
36 203
37 81
38 64
39 56
40 177
41 437
42 676
43 999
44 430
45 435
46 79
48 109
49 518
50 129
51 338
52 72
53 101
54 76
55 267
56 231
57 231
58 207
59 322
60 200
61 85
62 39
63 60
64 94
65 193
66 38
67 98
69 232
70 73
71 337
72 221
73 223
74 19
77 296
78 91
79 297
81 32
83 275
84 236
85 132
86 94
87 376
88 387
89 76
90 72
91 76
92 62
93 144
94 58
97 28
100 135
101 332
102 183
103 85
104 103
115 868
116 162
117 56
118 235
119 677
120 333
121 315
122 95
123 14
129 373
130 72
136 97
137 209
138 69
164 195
165 30
166 88

$$$$

     RDKit          2D

  8  8  0  0  0  0  0  0  0  0999 V2000
    1.9458   -1.5018    0.0000 C   0  0  0  0  0  0  0  0  0  0  0  0
    0.6513   -2.2440    0.0000 C   0  0  0  0  0  0  0  0  0  0  0  0
    1.9463   -0.0009    0.0000 C   0  0  0  0  0  0  0  0  0  0  0  0
   -0.6478   -1.4940    0.0000 C   0  0  0  0  0  0  0  0  0  0  0  0
    0.6472    0.7491    0.0000 C   0  0  0  0  0  0  0  0  0  0  0  0
   -0.6523   -0.0018    0.0000 C   0  0  0  0  0  0  0  0  0  0  0  0
    0.6470    2.2491    0.0000 N   0  0  0  0  0  0  0  0  0  0  0  0
   -1.9526    0.7460    0.0000 S   0  0  0  0  0  0  0  0  0  0  0  0
  2  1  2  0
  3  1  1  0
  4  2  1  0
  5  3  2  0
  6  4  2  0
  6  5  1  0
  7  5  1  0
  8  6  1  0
M  END
>  <NAME>  (2159) 
ORTHO-AMINOTHIOPHENOL

>  <SYNONYMS>  (2159) 
2-MERCAPTOANILINE

>  <SPECTRUM TYPE>  (2159) 
MS1

>  <INSTRUMENT TYPE>  (2159) 
EI-B

>  <INSTRUMENT>  (2159) 
HITACHI RMU-7M

>  <ION MODE>  (2159) 
P

>  <INCHIKEY>  (2159) 
VRVRGVPWCUEOGV-UHFFFAOYSA-N

>  <FORMULA>  (2159) 
C6H7NS

>  <EXACT MASS>  (2159) 
125.029920224

>  <MW>  (2159) 
125

>  <ID>  (2159) 
JP008882

>  <CONTRIBUTOR>  (2159) 
University of Tokyo Team, {Faculty of Engineering, University of Tokyo

>  <COMMENT>  (2159) 
SMILES=Nc(c1)c(S)ccc1
InChI=InChI=1S/C6H7NS/c7-5-3-1-2-4-6(5)8/h1-4,8H,7H2
computed SMILES=SC=1C=CC=CC1N
accession=JP008882
date=2016.01.19 (Created 2008.10.21, modified 2011.05.06)
author=TAJIMA S, GUNMA COLLEGE OF TECHNOLOGY
license=CC BY-NC-SA
exact mass=125.02992
ionization energy=70 eV
ion type=[M]+*
computed spectral entropy=3.406325758376878
computed normalized entropy=0.8752525804006308
SPLASH=splash10-0059-9300000000-543f4389ce662bdf4484
submitter=submitter = University of Tokyo Team (Faculty of Engineering, University of Tokyo)
MoNA Rating=3.75

>  <NUM PEAKS>  (2159) 
49

>  <MASS SPECTRAL PEAKS>  (2159) 
27 5.79
28 5.17
29 2.67
37 5.88
38 10.87
39 24.96
40 4.37
41 9.63
42 4.1
43 3.12
44 3.39
45 19.43
50 7.22
51 10.7
52 14.53
53 20.68
54 6.24
57 5.88
58 4.63
60 4.01
61 3.57
61.5 2.67
62 5.88
62.5 4.28
63 13.28
64 6.95
65 16.93
66 8.47
67 2.94
69 15.15
70 8.2
71 3.92
80 41.8
81 21.21
82 4.37
91 3.74
92 4.55
93 26.74
94 4.46
95 3.12
96 3.48
97 16.49
98 9.89
99 3.65
108 4.1
124 20.23
125 99.99
126 10.7
127 4.99

>  <PREDICTED SPECTRUM>  (2159) 
17 11
18 13
25 28
26 65
27 82
28 53
32 18
33 52
34 40
37 101
38 153
39 354
40 117
41 283
42 72
43 30
44 215
45 353
46 114
47 75
48 14
49 78
50 163
51 217
52 291
53 293
54 244
55 107
56 158
57 255
58 176
59 46
60 136
61 77
62 110
63 257
64 210
65 388
66 201
67 143
68 79
69 308
70 211
71 151
72 123
73 35
74 85
75 48
76 27
78 0
79 161
80 476
81 335
82 214
83 129
84 165
90 135
91 122
92 454
93 296
94 70
95 36
96 57
97 290
98 218
99 19
105 31
106 32
107 156
108 212
109 94
110 60
123 98
124 448
125 999
126 294
127 174

$$$$

     RDKit          2D

  8  8  0  0  1  0  0  0  0  0999 V2000
    0.6513   -2.2440    0.0000 C   0  0  0  0  0  0  0  0  0  0  0  0
    1.9458   -1.5018    0.0000 C   0  0  0  0  0  0  0  0  0  0  0  0
   -0.6478   -1.4940    0.0000 C   0  0  0  0  0  0  0  0  0  0  0  0
    1.9463   -0.0009    0.0000 C   0  0  0  0  0  0  0  0  0  0  0  0
   -0.6523   -0.0018    0.0000 C   0  0  0  0  0  0  0  0  0  0  0  0
    0.6472    0.7491    0.0000 C   0  0  0  0  0  0  0  0  0  0  0  0
   -1.9526    0.7460    0.0000 O   0  0  0  0  0  0  0  0  0  0  0  0
    0.6470    2.2491    0.0000 O   0  0  0  0  0  0  0  0  0  0  0  0
  2  1  1  0
  3  1  1  0
  4  2  1  0
  5  3  1  0
  6  4  1  0
  6  5  1  0
  5  7  1  1
  6  8  1  6
M  END
>  <NAME>  (2160) 
TRANS-1,2-CYCLOHEXANEDIOL

>  <SYNONYMS>  (2160) 


>  <SPECTRUM TYPE>  (2160) 
MS1

>  <INSTRUMENT TYPE>  (2160) 
EI-B

>  <INSTRUMENT>  (2160) 
HITACHI RMU-7M

>  <ION MODE>  (2160) 
P

>  <INCHIKEY>  (2160) 
PFURGBBHAOXLIO-PHDIDXHHSA-N

>  <FORMULA>  (2160) 
C6H12O2

>  <EXACT MASS>  (2160) 
116.083729624

>  <MW>  (2160) 
116

>  <ID>  (2160) 
JP008880

>  <CONTRIBUTOR>  (2160) 
University of Tokyo Team, {Faculty of Engineering, University of Tokyo

>  <COMMENT>  (2160) 
SMILES=OC(C1)C(O)CCC1
InChI=InChI=1S/C6H12O2/c7-5-3-1-2-4-6(5)8/h5-8H,1-4H2/t5-,6-/m1/s1
computed SMILES=OC1CCCCC1O
accession=JP008880
date=2016.01.19 (Created 2008.10.21, modified 2011.05.06)
author=TAJIMA S, GUNMA COLLEGE OF TECHNOLOGY
license=CC BY-NC-SA
exact mass=116.08373
ionization energy=70 eV
ion type=[M]+*
computed spectral entropy=3.17048909761603
computed normalized entropy=0.8654116960104873
SPLASH=splash10-05i3-9000000000-fb5f696297452fa045c1
submitter=submitter = University of Tokyo Team (Faculty of Engineering, University of Tokyo)
MoNA Rating=3.75

>  <NUM PEAKS>  (2160) 
39

>  <MASS SPECTRAL PEAKS>  (2160) 
14 1.99
15 7.69
19 2.95
26 5.96
27 40.42
28 13.13
29 41.83
30 5.25
31 22.36
38 3.59
39 33.57
40 5.57
41 36.58
42 24.92
43 29.79
44 29.21
45 5.96
50 2.31
51 3.52
53 5.38
54 6.6
55 21.01
56 8.97
57 56.89
58 3.97
60 3.59
67 5.7
68 3.72
69 22.17
70 99.99
71 6.66
79 3.84
80 9.03
81 4.61
83 33.18
97 7.05
98 30.62
99 4.16
116 8.33

>  <PREDICTED SPECTRUM>  (2160) 
26 116
27 347
28 161
29 382
30 183
31 281
36 16
37 36
38 106
39 544
40 259
41 816
42 475
43 590
44 558
45 272
46 54
47 101
49 17
50 115
51 236
52 164
53 372
54 631
55 684
56 532
57 999
58 373
59 244
60 306
61 74
62 45
63 35
64 12
65 180
66 229
67 553
68 455
69 654
70 885
71 354
72 306
73 280
74 178
75 104
77 178
78 212
79 310
80 395
81 397
82 167
83 757
84 82
85 32
86 35
87 161
88 178
89 13
96 77
97 489
98 616
99 245
100 124
101 152
102 26
116 199
117 90
118 51

$$$$

     RDKit          2D

  4  3  0  0  0  0  0  0  0  0999 V2000
   -2.5981    2.2500    0.0000 C   0  0  0  0  0  0  0  0  0  0  0  0
   -1.2990    1.5000    0.0000 C   0  0  0  0  0  0  0  0  0  0  0  0
    0.0000    2.2500    0.0000 C   0  0  0  0  0  0  0  0  0  0  0  0
    1.2990    1.5000    0.0000 Br  0  0  0  0  0  0  0  0  0  0  0  0
  2  1  2  0
  3  2  1  0
  4  3  1  0
M  END
>  <NAME>  (2161) 
3-BROMOPROPENE

>  <SYNONYMS>  (2161) 
ALLYL BROMIDE

>  <SPECTRUM TYPE>  (2161) 
MS1

>  <INSTRUMENT TYPE>  (2161) 
EI-B

>  <INSTRUMENT>  (2161) 
HITACHI RMU-7M

>  <ION MODE>  (2161) 
P

>  <INCHIKEY>  (2161) 
BHELZAPQIKSEDF-UHFFFAOYSA-N

>  <FORMULA>  (2161) 
C3H5Br

>  <EXACT MASS>  (2161) 
119.95746226

>  <MW>  (2161) 
120

>  <ID>  (2161) 
JP008879

>  <CONTRIBUTOR>  (2161) 
University of Tokyo Team, {Faculty of Engineering, University of Tokyo

>  <COMMENT>  (2161) 
SMILES=C=CCBr
InChI=InChI=1S/C3H5Br/c1-2-3-4/h2H,1,3H2
computed SMILES=BrCC=C
accession=JP008879
date=2016.01.19 (Created 2008.10.21, modified 2011.05.06)
author=TAJIMA S, GUNMA COLLEGE OF TECHNOLOGY
license=CC BY-NC-SA
exact mass=119.95746
ionization energy=70 eV
ion type=[M]+*
computed spectral entropy=2.095485803209536
computed normalized entropy=0.6683111684798866
SPLASH=splash10-000f-9000000000-2b5f82cc0bbf5d1d2aac
submitter=submitter = University of Tokyo Team (Faculty of Engineering, University of Tokyo)
MoNA Rating=3.75

>  <NUM PEAKS>  (2161) 
23

>  <MASS SPECTRAL PEAKS>  (2161) 
14 2.76
15 4.48
25 1.72
26 5.95
27 6.98
28 6.47
29 1.81
36 1.47
37 8.53
38 13.88
39 71.55
40 7.41
41 99.99
42 3.53
43 2.33
55 1.64
57 1.47
79 3.1
81 3.02
93 1.12
95 1.03
120 9.4
122 8.97

>  <PREDICTED SPECTRUM>  (2161) 
14 76
15 118
25 107
26 356
27 521
28 255
29 179
31 13
36 130
37 289
38 388
39 972
40 378
41 999
42 325
49 35
50 193
51 143
53 95
54 290
79 183
80 205
81 158
82 39
92 146
93 101
94 337
95 63
96 43
120 363
121 133
122 374
123 5

$$$$

     RDKit          2D

  6  5  0  0  0  0  0  0  0  0999 V2000
   -0.0000   -0.0000    0.0000 C   0  0  0  0  0  0  0  0  0  0  0  0
   -1.2990    3.7500    0.0000 C   0  0  0  0  0  0  0  0  0  0  0  0
   -0.0000    1.5000    0.0000 C   0  0  0  0  0  0  0  0  0  0  0  0
   -1.2990    2.2500    0.0000 C   0  0  0  0  0  0  0  0  0  0  0  0
    1.2990    2.2500    0.0000 O   0  0  0  0  0  0  0  0  0  0  0  0
   -2.5981    1.5000    0.0000 O   0  0  0  0  0  0  0  0  0  0  0  0
  3  1  1  0
  4  2  1  0
  4  3  1  0
  5  3  2  0
  6  4  2  0
M  END
>  <NAME>  (2162) 
2,3-BUTANEDIONE

>  <SYNONYMS>  (2162) 
DIACETYL

>  <SPECTRUM TYPE>  (2162) 
MS1

>  <INSTRUMENT TYPE>  (2162) 
EI-B

>  <INSTRUMENT>  (2162) 
HITACHI RMU-7M

>  <ION MODE>  (2162) 
P

>  <INCHIKEY>  (2162) 
QSJXEFYPDANLFS-UHFFFAOYSA-N

>  <FORMULA>  (2162) 
C4H6O2

>  <EXACT MASS>  (2162) 
86.036779432

>  <MW>  (2162) 
86

>  <ID>  (2162) 
JP008878

>  <CONTRIBUTOR>  (2162) 
University of Tokyo Team, {Faculty of Engineering, University of Tokyo

>  <COMMENT>  (2162) 
SMILES=CC(=O)C(C)=O
InChI=InChI=1S/C4H6O2/c1-3(5)4(2)6/h1-2H3
computed SMILES=O=C(C(=O)C)C
accession=JP008878
date=2016.01.19 (Created 2008.10.21, modified 2011.05.06)
author=TAJIMA S, GUNMA COLLEGE OF TECHNOLOGY
license=CC BY-NC-SA
exact mass=86.03678
ionization energy=70 eV
ion type=[M]+*
computed spectral entropy=1.6980822933340816
computed normalized entropy=0.5993485442585818
SPLASH=splash10-0006-9000000000-622030119adee3079d84
submitter=submitter = University of Tokyo Team (Faculty of Engineering, University of Tokyo)
MoNA Rating=3.75

>  <NUM PEAKS>  (2162) 
17

>  <MASS SPECTRAL PEAKS>  (2162) 
14 3.17
15 12.69
18 2.06
26 1.59
27 1.67
28 1.19
29 1.43
39 4.84
41 19.98
42 8.88
43 99.99
44 2.38
51 1.19
53 2.22
69 2.38
86 11.02
87 1.27

>  <PREDICTED SPECTRUM>  (2162) 
14 75
15 188
16 31
17 24
18 45
25 26
26 98
27 186
28 144
29 134
37 47
38 90
39 214
40 110
41 210
42 226
43 999
44 201
45 51
50 33
51 2
53 13
71 290
72 19
86 204
87 59

$$$$

     RDKit          2D

 11 10  0  0  0  0  0  0  0  0999 V2000
    2.0490    2.5981    0.0000 C   0  0  0  0  0  0  0  0  0  0  0  0
    2.0490    4.0981    0.0000 H   0  0  0  0  0  0  0  0  0  0  0  0
    2.0490    1.0981    0.0000 H   0  0  0  0  0  0  0  0  0  0  0  0
    3.5490    2.5981    0.0000 H   0  0  0  0  0  0  0  0  0  0  0  0
   -0.2010    1.2990    0.0000 C   0  0  0  0  0  0  0  0  0  0  0  0
   -1.5000    2.0490    0.0000 H   0  0  0  0  0  0  0  0  0  0  0  0
   -0.9510    0.0000    0.0000 H   0  0  0  0  0  0  0  0  0  0  0  0
    1.0981    0.5490    0.0000 H   0  0  0  0  0  0  0  0  0  0  0  0
    0.5490    2.5981    0.0000 C   0  0  0  0  0  0  0  0  0  0  0  0
    0.8095    4.0753    0.0000 H   0  0  0  0  0  0  0  0  0  0  0  0
   -0.8605    3.1111    0.0000 Cl  0  0  0  0  0  0  0  0  0  0  0  0
  1  2  1  0
  1  3  1  0
  1  4  1  0
  5  6  1  0
  5  7  1  0
  5  8  1  0
  9 10  1  0
  9  1  1  0
  9  5  1  0
 11  9  1  0
M  ISO  7   2   2   3   2   4   2   6   2   7   2   8   2  10   2
M  END
>  <NAME>  (2163) 
2-CHLOROPROPANE (1,1,1,2,3,3,3-D7)

>  <SYNONYMS>  (2163) 
ISOPROPYLCHLORIDE (1,1,1,2,3,3,3-D7)

>  <SPECTRUM TYPE>  (2163) 
MS1

>  <INSTRUMENT TYPE>  (2163) 
EI-B

>  <INSTRUMENT>  (2163) 
HITACHI RMU-7M

>  <ION MODE>  (2163) 
P

>  <INCHIKEY>  (2163) 
ULYZAYCEDJDHCC-YYWVXINBSA-N

>  <FORMULA>  (2163) 
C3H7Cl

>  <EXACT MASS>  (2163) 
85.067565126

>  <MW>  (2163) 
85

>  <ID>  (2163) 
JP008877

>  <CONTRIBUTOR>  (2163) 
University of Tokyo Team, {Faculty of Engineering, University of Tokyo

>  <COMMENT>  (2163) 
SMILES=[2H]C([2H])([2H])C([2H])(Cl)C([2H])([2H])[2H]
InChI=InChI=1S/C3H7Cl/c1-3(2)4/h3H,1-2H3/i1D3,2D3,3D
computed SMILES=[H]C(Cl)(C([H])([H])[H])C([H])([H])[H]
accession=JP008877
date=2016.01.19 (Created 2008.10.21, modified 2011.05.06)
author=TAJIMA S, GUNMA COLLEGE OF TECHNOLOGY
license=CC BY-NC-SA
exact mass=78.02363
ionization energy=70 eV
ion type=[M]+*
computed spectral entropy=2.453065941367974
computed normalized entropy=0.7529138295139736
SPLASH=splash10-0uea-9000000000-bd5bb5da355f25d5fc8b
submitter=submitter = University of Tokyo Team (Faculty of Engineering, University of Tokyo)
MoNA Rating=3.75

>  <NUM PEAKS>  (2163) 
26

>  <MASS SPECTRAL PEAKS>  (2163) 
16 2.12
18 7.35
28 13.51
29 2.65
30 58.28
32 3.44
35 2.19
37 1.46
38 3.31
40 6.09
42 21.52
44 3.05
45 2.65
46 36.42
47 1.99
48 6.49
49 14.24
50 99.99
51 3.31
63 1.52
65 2.65
67 17.55
69 5.63
84 1.46
85 15.5
87 5.23

>  <PREDICTED SPECTRUM>  (2163) 
15 61
16 23
19 19
31 6
32 87
33 17
35 104
37 18
39 206
41 78
46 457
47 300
50 93
52 121
53 125
54 259
55 275
56 141
64 168
66 378
67 388
68 110
69 164
70 28
71 58
72 102
79 99
81 277
82 308
83 729
84 116
85 999
86 192
87 396

$$$$

     RDKit          2D

 10  9  0  0  0  0  0  0  0  0999 V2000
    0.4118    1.0613    0.0000 C   0  0  0  0  0  0  0  0  0  0  0  0
    1.1618   -0.2377    0.0000 H   0  0  0  0  0  0  0  0  0  0  0  0
   -0.3382    2.3603    0.0000 H   0  0  0  0  0  0  0  0  0  0  0  0
   -0.8873    0.3113    0.0000 H   0  0  0  0  0  0  0  0  0  0  0  0
    1.7108    3.3113    0.0000 C   0  0  0  0  0  0  0  0  0  0  0  0
    3.2108    3.3113    0.0000 H   0  0  0  0  0  0  0  0  0  0  0  0
    1.7108    4.8113    0.0000 H   0  0  0  0  0  0  0  0  0  0  0  0
    0.2108    3.3113    0.0000 H   0  0  0  0  0  0  0  0  0  0  0  0
    1.7108    1.8113    0.0000 C   0  0  0  0  0  0  0  0  0  0  0  0
    3.0099    1.0613    0.0000 O   0  0  0  0  0  0  0  0  0  0  0  0
  1  2  1  0
  1  3  1  0
  1  4  1  0
  5  6  1  0
  5  7  1  0
  5  8  1  0
  9  1  1  0
  9  5  1  0
 10  9  2  0
M  ISO  6   2   2   3   2   4   2   6   2   7   2   8   2
M  END
>  <NAME>  (2164) 
ACETONE (1,1,1,3,3,3-D6)

>  <SYNONYMS>  (2164) 


>  <SPECTRUM TYPE>  (2164) 
MS1

>  <INSTRUMENT TYPE>  (2164) 
EI-B

>  <INSTRUMENT>  (2164) 
HITACHI RMU-7M

>  <ION MODE>  (2164) 
P

>  <INCHIKEY>  (2164) 
CSCPPACGZOOCGX-WFGJKAKNSA-N

>  <FORMULA>  (2164) 
C3H6O

>  <EXACT MASS>  (2164) 
64.079525288

>  <MW>  (2164) 
64

>  <ID>  (2164) 
JP008876

>  <CONTRIBUTOR>  (2164) 
University of Tokyo Team, {Faculty of Engineering, University of Tokyo

>  <COMMENT>  (2164) 
SMILES=[2H]C([2H])([2H])C(=O)C([2H])([2H])[2H]
InChI=InChI=1S/C3H6O/c1-3(2)4/h1-2H3/i1D3,2D3
computed SMILES=[H]C([H])([H])C(=O)C([H])([H])[H]
accession=JP008876
date=2016.01.19 (Created 2008.10.21, modified 2011.05.06)
author=TAJIMA S, GUNMA COLLEGE OF TECHNOLOGY
license=CC BY-NC-SA
exact mass=58.04186
ionization energy=70 eV
ion type=[M]+*
computed spectral entropy=1.7174054454660204
computed normalized entropy=0.6341852321522751
SPLASH=splash10-0002-9000000000-ac4e03d64a5d08cb0e2d
submitter=submitter = University of Tokyo Team (Faculty of Engineering, University of Tokyo)
MoNA Rating=3.75

>  <NUM PEAKS>  (2164) 
15

>  <MASS SPECTRAL PEAKS>  (2164) 
16 3.6
18 20.15
26 1.1
28 5.45
30 7.95
32 1.45
34 1.85
38 2.4
40 3
42 6.2
44 6.5
45 2.7
46 99.99
47 2.15
64 20.95

>  <PREDICTED SPECTRUM>  (2164) 
14 5
16 82
17 40
18 83
25 50
26 78
28 255
30 10
31 208
32 229
33 51
34 153
36 90
45 699
46 999
47 320
48 178
54 560
59 189
60 74
61 133
62 449
63 323
64 880
65 108

$$$$

     RDKit          2D

  8  7  0  0  0  0  0  0  0  0999 V2000
    1.9486    3.3750    0.0000 C   0  0  0  0  0  0  0  0  0  0  0  0
   -0.6495    3.3750    0.0000 C   0  0  0  0  0  0  0  0  0  0  0  0
   -1.9486    4.1250    0.0000 C   0  0  0  0  0  0  0  0  0  0  0  0
   -4.5466    4.1250    0.0000 C   0  0  0  0  0  0  0  0  0  0  0  0
   -5.8457    3.3750    0.0000 Cl  0  0  0  0  0  0  0  0  0  0  0  0
   -4.5466    5.6250    0.0000 O   0  0  0  0  0  0  0  0  0  0  0  0
    0.6495    4.1250    0.0000 O   0  0  0  0  0  0  0  0  0  0  0  0
   -3.2476    3.3750    0.0000 O   0  0  0  0  0  0  0  0  0  0  0  0
  3  2  1  0
  5  4  1  0
  6  4  2  0
  7  1  1  0
  7  2  1  0
  8  3  1  0
  8  4  1  0
M  END
>  <NAME>  (2165) 
CHLOROFORMIC ACID 2-METHOXYETHYL ESTER

>  <SYNONYMS>  (2165) 
2-METHOXYETHYL CHLOROFORMATE

>  <SPECTRUM TYPE>  (2165) 
MS1

>  <INSTRUMENT TYPE>  (2165) 
EI-B

>  <INSTRUMENT>  (2165) 
HITACHI RMU-7M

>  <ION MODE>  (2165) 
P

>  <INCHIKEY>  (2165) 
NDYYWMXJZWHRLZ-UHFFFAOYSA-N

>  <FORMULA>  (2165) 
C4H7ClO3

>  <EXACT MASS>  (2165) 
138.008371764

>  <MW>  (2165) 
138

>  <ID>  (2165) 
JP008875

>  <CONTRIBUTOR>  (2165) 
University of Tokyo Team, {Faculty of Engineering, University of Tokyo

>  <COMMENT>  (2165) 
SMILES=COCCOC(=O)Cl
InChI=InChI=1S/C4H7ClO3/c1-7-2-3-8-4(5)6/h2-3H2,1H3
computed SMILES=O=C(Cl)OCCOC
accession=JP008875
date=2016.01.19 (Created 2008.10.21, modified 2011.05.06)
author=TAJIMA S, GUNMA COLLEGE OF TECHNOLOGY
license=CC BY-NC-SA
exact mass=138.00837
ionization energy=70 eV
ion type=[M]+*
computed spectral entropy=2.6944230236704403
computed normalized entropy=0.8175231764237755
SPLASH=splash10-054k-9000000000-a405e05850a548ba5b00
submitter=submitter = University of Tokyo Team (Faculty of Engineering, University of Tokyo)
MoNA Rating=3.75

>  <NUM PEAKS>  (2165) 
27

>  <MASS SPECTRAL PEAKS>  (2165) 
14 3.38
15 34.57
26 7.53
27 33.93
28 13.07
29 50.89
30 8.35
31 17.22
33 2.04
35 1.98
42 5.1
43 23.92
44 5.48
45 99.99
46 2.49
49 7.59
50 2.23
51 2.87
58 31.25
59 39.6
62 11.67
63 23.66
64 4.53
65 7.65
77 2.61
89 2.42
103 1.4

>  <PREDICTED SPECTRUM>  (2165) 
14 102
15 306
16 44
17 17
18 41
19 17
25 42
26 179
27 421
28 264
29 603
30 345
31 508
32 74
33 109
34 6
35 41
36 48
37 43
38 68
40 49
42 234
43 417
44 191
45 999
46 186
47 78
48 95
49 204
50 102
51 176
52 68
53 62
58 908
59 493
60 85
61 106
62 192
63 458
64 177
65 178
66 39
68 23
76 51
77 174
78 40
79 56
80 24
81 17
82 3
93 103
95 63
108 70
109 49
138 2

$$$$

     RDKit          2D

  7  6  0  0  0  0  0  0  0  0999 V2000
   -3.5724    3.9375    0.0000 C   0  0  0  0  0  0  0  0  0  0  0  0
    0.3248    3.1875    0.0000 C   0  0  0  0  0  0  0  0  0  0  0  0
   -0.9743    3.9375    0.0000 C   0  0  0  0  0  0  0  0  0  0  0  0
    1.6238    3.9375    0.0000 C   0  0  0  0  0  0  0  0  0  0  0  0
   -2.2733    3.1875    0.0000 C   0  0  0  0  0  0  0  0  0  0  0  0
    2.9228    3.1875    0.0000 O   0  0  0  0  0  0  0  0  0  0  0  0
   -2.2733    1.6875    0.0000 O   0  0  0  0  0  0  0  0  0  0  0  0
  3  2  1  0
  4  2  1  0
  5  1  1  0
  5  3  1  0
  6  4  1  0
  7  5  2  0
M  END
>  <NAME>  (2166) 
5-HYDROXY-2-PENTANONE

>  <SYNONYMS>  (2166) 
3-ACETYLPROPANOL

>  <SPECTRUM TYPE>  (2166) 
MS1

>  <INSTRUMENT TYPE>  (2166) 
EI-B

>  <INSTRUMENT>  (2166) 
HITACHI RMU-7M

>  <ION MODE>  (2166) 
P

>  <INCHIKEY>  (2166) 
JSHPTIGHEWEXRW-UHFFFAOYSA-N

>  <FORMULA>  (2166) 
C5H10O2

>  <EXACT MASS>  (2166) 
102.06807956

>  <MW>  (2166) 
102

>  <ID>  (2166) 
JP008874

>  <CONTRIBUTOR>  (2166) 
University of Tokyo Team, {Faculty of Engineering, University of Tokyo

>  <COMMENT>  (2166) 
SMILES=OCCCC(C)=O
InChI=InChI=1S/C5H10O2/c1-5(7)3-2-4-6/h6H,2-4H2,1H3
computed SMILES=O=C(C)CCCO
accession=JP008874
date=2016.01.19 (Created 2008.10.21, modified 2011.05.06)
author=TAJIMA S, GUNMA COLLEGE OF TECHNOLOGY
license=CC BY-NC-SA
exact mass=102.06808
ionization energy=70 eV
ion type=[M]+*
computed spectral entropy=2.7220444238417905
computed normalized entropy=0.8083769770393843
SPLASH=splash10-0006-9000000000-4bde53f9dab9fdcbca77
submitter=submitter = University of Tokyo Team (Faculty of Engineering, University of Tokyo)
MoNA Rating=3.75

>  <NUM PEAKS>  (2166) 
29

>  <MASS SPECTRAL PEAKS>  (2166) 
15 4.52
17 3.98
18 17.23
26 3.33
27 13.19
28 7.31
29 7.84
31 2.14
37 1.66
38 3.09
39 30.24
40 3.09
41 20.74
42 10.7
43 99.99
44 3.86
50 3.39
51 3.74
52 2.02
53 11.05
54 12.83
55 13.67
56 2.55
58 3.92
68 1.84
69 7.78
83 17.23
84 30.07
85 3.27

>  <PREDICTED SPECTRUM>  (2166) 
14 24
15 41
16 0
17 2
18 3
19 11
26 41
27 100
28 40
29 87
31 168
32 6
33 3
37 16
38 50
39 211
40 110
41 401
42 268
43 999
44 351
45 391
46 26
50 7
51 60
52 8
53 159
54 126
55 174
56 188
57 273
58 521
59 304
60 108
61 4
66 18
67 44
68 51
69 275
70 110
71 154
72 139
73 87
74 86
81 82
82 95
83 258
84 365
85 163
87 204
88 26
101 74
102 119
103 21

$$$$

     RDKit          2D

  6  5  0  0  0  0  0  0  0  0999 V2000
    1.2990    2.2500    0.0000 C   0  0  0  0  0  0  0  0  0  0  0  0
   -3.8971    2.2500    0.0000 C   0  0  0  0  0  0  0  0  0  0  0  0
   -1.2990    0.7500    0.0000 O   0  0  0  0  0  0  0  0  0  0  0  0
    0.0000    3.0000    0.0000 O   0  0  0  0  0  0  0  0  0  0  0  0
   -2.5981    3.0000    0.0000 O   0  0  0  0  0  0  0  0  0  0  0  0
   -1.2990    2.2500    0.0000 P   0  0  0  0  0  0  0  0  0  0  0  0
  4  1  1  0
  5  2  1  0
  6  3  2  0
  6  4  1  0
  6  5  1  0
M  END
>  <NAME>  (2167) 
DIMETHYL PHOSPHITE

>  <SYNONYMS>  (2167) 
PHOSPHONIC ACID DIMETHYL ESTER

>  <SPECTRUM TYPE>  (2167) 
MS1

>  <INSTRUMENT TYPE>  (2167) 
EI-B

>  <INSTRUMENT>  (2167) 
HITACHI RMU-7M

>  <ION MODE>  (2167) 
P

>  <INCHIKEY>  (2167) 
HZCDANOFLILNSA-UHFFFAOYSA-N

>  <FORMULA>  (2167) 
C2H7O3P

>  <EXACT MASS>  (2167) 
110.01328071399999

>  <MW>  (2167) 
110

>  <ID>  (2167) 
JP008873

>  <CONTRIBUTOR>  (2167) 
University of Tokyo Team, {Faculty of Engineering, University of Tokyo

>  <COMMENT>  (2167) 
SMILES=COP(=O)OC
InChI=InChI=1S/C2H7O3P/c1-4-6(3)5-2/h6H,1-2H3
computed SMILES=O=P(OC)OC
accession=JP008873
date=2016.01.19 (Created 2008.10.21, modified 2011.05.06)
author=TAJIMA S, GUNMA COLLEGE OF TECHNOLOGY
license=CC BY-NC-SA
exact mass=110.01328
ionization energy=70 eV
ion type=[M]+*
computed spectral entropy=1.984088623833612
computed normalized entropy=0.7002962300724799
SPLASH=splash10-003r-9000000000-717167cbc38c96c51ef7
submitter=submitter = University of Tokyo Team (Faculty of Engineering, University of Tokyo)
MoNA Rating=3.75

>  <NUM PEAKS>  (2167) 
17

>  <MASS SPECTRAL PEAKS>  (2167) 
15 14.54
29 7.33
31 13.65
32 1.12
47 29.39
48 3.16
49 7.08
65 5.69
77 2.53
79 94.82
80 99.99
81 2.47
93 2.15
95 14.22
109 7.27
110 5.75
111 1.9

>  <PREDICTED SPECTRUM>  (2167) 
14 100
15 327
16 57
17 19
18 34
25 10
26 42
27 115
28 246
29 339
30 292
31 440
32 135
33 193
34 59
36 157
37 66
38 88
39 61
40 101
42 726
43 677
44 196
45 287
47 309
48 111
49 157
50 185
51 457
52 313
53 103
54 51
62 31
63 409
64 68
65 215
66 127
67 150
68 16
77 127
78 407
79 999
80 373
94 86
95 488
96 8
109 30
110 324
111 76

$$$$

     RDKit          2D

  6  5  0  0  0  0  0  0  0  0999 V2000
   -4.5466    3.3750    0.0000 C   0  0  0  0  0  0  0  0  0  0  0  0
   -3.2476    2.6250    0.0000 C   0  0  0  0  0  0  0  0  0  0  0  0
   -1.9486    3.3750    0.0000 C   0  0  0  0  0  0  0  0  0  0  0  0
    0.6495    3.3750    0.0000 C   0  0  0  0  0  0  0  0  0  0  0  0
    1.9486    2.6250    0.0000 O   0  0  0  0  0  0  0  0  0  0  0  0
   -0.6495    2.6250    0.0000 O   0  0  0  0  0  0  0  0  0  0  0  0
  2  1  1  0
  3  2  1  0
  5  4  2  0
  6  3  1  0
  6  4  1  0
M  END
>  <NAME>  (2168) 
PROPYL FORMATE

>  <SYNONYMS>  (2168) 
FORMIC ACID PROPYL ESTER

>  <SPECTRUM TYPE>  (2168) 
MS1

>  <INSTRUMENT TYPE>  (2168) 
EI-B

>  <INSTRUMENT>  (2168) 
HITACHI RMU-7M

>  <ION MODE>  (2168) 
P

>  <INCHIKEY>  (2168) 
KFNNIILCVOLYIR-UHFFFAOYSA-N

>  <FORMULA>  (2168) 
C4H8O2

>  <EXACT MASS>  (2168) 
88.052429496

>  <MW>  (2168) 
88

>  <ID>  (2168) 
JP008872

>  <CONTRIBUTOR>  (2168) 
University of Tokyo Team, {Faculty of Engineering, University of Tokyo

>  <COMMENT>  (2168) 
SMILES=CCCOC=O
InChI=InChI=1S/C4H8O2/c1-2-3-6-4-5/h4H,2-3H2,1H3
computed SMILES=O=COCCC
accession=JP008872
date=2016.01.19 (Created 2008.10.21, modified 2011.05.06)
author=TAJIMA S, GUNMA COLLEGE OF TECHNOLOGY
license=CC BY-NC-SA
exact mass=88.05243
ionization energy=70 eV
ion type=[M]+*
computed spectral entropy=1.9815039835498534
computed normalized entropy=0.6993839654563397
SPLASH=splash10-000x-9000000000-172df0b26fbf2ba1be88
submitter=submitter = University of Tokyo Team (Faculty of Engineering, University of Tokyo)
MoNA Rating=3.75

>  <NUM PEAKS>  (2168) 
17

>  <MASS SPECTRAL PEAKS>  (2168) 
15 1.61
26 2.5
27 17.75
28 6.24
29 13.65
30 1.96
31 97.23
39 7.85
40 2.94
41 23.19
42 99.99
43 14.18
45 2.77
47 10.08
57 5.35
59 5.17
73 1.25

>  <PREDICTED SPECTRUM>  (2168) 
14 54
15 130
16 15
19 32
25 44
26 194
27 583
28 384
29 681
30 275
31 567
32 48
38 31
39 436
40 198
41 821
42 681
43 999
44 218
45 200
46 261
47 349
48 5
59 550
60 305
61 138
88 182

$$$$

     RDKit          2D

  5  4  0  0  0  0  0  0  0  0999 V2000
   -3.8971    2.2500    0.0000 C   0  0  0  0  0  0  0  0  0  0  0  0
   -2.5981    1.5000    0.0000 C   0  0  0  0  0  0  0  0  0  0  0  0
    0.0000    1.5000    0.0000 C   0  0  0  0  0  0  0  0  0  0  0  0
    1.2990    2.2500    0.0000 O   0  0  0  0  0  0  0  0  0  0  0  0
   -1.2990    2.2500    0.0000 O   0  0  0  0  0  0  0  0  0  0  0  0
  2  1  1  0
  4  3  2  0
  5  2  1  0
  5  3  1  0
M  END
>  <NAME>  (2169) 
ETHYL FORMATE

>  <SYNONYMS>  (2169) 
FORMIC ACID ETHYL ESTER

>  <SPECTRUM TYPE>  (2169) 
MS1

>  <INSTRUMENT TYPE>  (2169) 
EI-B

>  <INSTRUMENT>  (2169) 
HITACHI RMU-7M

>  <ION MODE>  (2169) 
P

>  <INCHIKEY>  (2169) 
WBJINCZRORDGAQ-UHFFFAOYSA-N

>  <FORMULA>  (2169) 
C3H6O2

>  <EXACT MASS>  (2169) 
74.036779432

>  <MW>  (2169) 
74

>  <ID>  (2169) 
JP008871

>  <CONTRIBUTOR>  (2169) 
University of Tokyo Team, {Faculty of Engineering, University of Tokyo

>  <COMMENT>  (2169) 
SMILES=CCOC=O
InChI=InChI=1S/C3H6O2/c1-2-5-3-4/h3H,2H2,1H3
computed SMILES=O=COCC
accession=JP008871
date=2016.01.19 (Created 2008.10.21, modified 2011.05.06)
author=TAJIMA S, GUNMA COLLEGE OF TECHNOLOGY
license=CC BY-NC-SA
exact mass=74.03678
ionization energy=70 eV
ion type=[M]+*
computed spectral entropy=1.9943014471446312
computed normalized entropy=0.7364344450974084
SPLASH=splash10-0059-9000000000-639550e9e1c74fbbccb1
submitter=submitter = University of Tokyo Team (Faculty of Engineering, University of Tokyo)
MoNA Rating=3.75

>  <NUM PEAKS>  (2169) 
15

>  <MASS SPECTRAL PEAKS>  (2169) 
14 2
15 4.3
26 7.92
27 36.53
28 99.99
29 40.51
30 3.51
31 98.52
43 7.92
45 32.02
47 10.03
56 3.21
59 1.51
73 1.8
74 11.02

>  <PREDICTED SPECTRUM>  (2169) 
14 81
15 214
16 60
17 44
18 76
19 45
25 64
26 170
27 642
28 447
29 999
30 373
31 463
32 83
41 114
42 269
43 455
44 245
45 403
46 796
47 351
48 70
59 101
74 373
75 103

$$$$

     RDKit          2D

  4  3  0  0  0  0  0  0  0  0999 V2000
   -2.5981    2.2500    0.0000 C   0  0  0  0  0  0  0  0  0  0  0  0
    0.0000    2.2500    0.0000 C   0  0  0  0  0  0  0  0  0  0  0  0
    1.2990    1.5000    0.0000 O   0  0  0  0  0  0  0  0  0  0  0  0
   -1.2990    1.5000    0.0000 O   0  0  0  0  0  0  0  0  0  0  0  0
  3  2  2  0
  4  1  1  0
  4  2  1  0
M  END
>  <NAME>  (2170) 
METHYL FORMATE

>  <SYNONYMS>  (2170) 
FORMIC ACID METHYL ESTER

>  <SPECTRUM TYPE>  (2170) 
MS1

>  <INSTRUMENT TYPE>  (2170) 
EI-B

>  <INSTRUMENT>  (2170) 
HITACHI RMU-7M

>  <ION MODE>  (2170) 
P

>  <INCHIKEY>  (2170) 
TZIHFWKZFHZASV-UHFFFAOYSA-N

>  <FORMULA>  (2170) 
C2H4O2

>  <EXACT MASS>  (2170) 
60.021129368

>  <MW>  (2170) 
60

>  <ID>  (2170) 
JP008870

>  <CONTRIBUTOR>  (2170) 
University of Tokyo Team, {Faculty of Engineering, University of Tokyo

>  <COMMENT>  (2170) 
SMILES=COC=O
InChI=InChI=1S/C2H4O2/c1-4-2-3/h2H,1H3
computed SMILES=O=COC
accession=JP008870
date=2016.01.19 (Created 2008.10.21, modified 2011.05.06)
author=TAJIMA S, GUNMA COLLEGE OF TECHNOLOGY
license=CC BY-NC-SA
exact mass=60.02113
ionization energy=70 eV
ion type=[M]+*
computed spectral entropy=1.6816668887052675
computed normalized entropy=0.7303386501641075
SPLASH=splash10-001i-9000000000-92e3b6b29615dad4af76
submitter=submitter = University of Tokyo Team (Faculty of Engineering, University of Tokyo)
MoNA Rating=3.75

>  <NUM PEAKS>  (2170) 
10

>  <MASS SPECTRAL PEAKS>  (2170) 
14 1.43
15 13.47
28 6.37
29 40.64
30 5.42
31 99.99
32 49.48
44 1.59
60 47.65
61 1.67

>  <PREDICTED SPECTRUM>  (2170) 
14 177
15 446
16 113
17 47
18 60
19 40
25 114
26 283
27 506
28 531
29 999
30 501
31 701
32 329
33 143
35 10
36 83
42 298
43 475
44 91
45 429
59 382
60 412
61 136

$$$$

     RDKit          2D

 10 10  0  0  0  0  0  0  0  0999 V2000
   -1.6700   -0.9600    0.0000 C   0  0  0  0  0  0  0  0  0  0  0  0
   -1.6700    0.5400    0.0000 C   0  0  0  0  0  0  0  0  0  0  0  0
   -0.3700   -1.7100    0.0000 C   0  0  0  0  0  0  0  0  0  0  0  0
   -0.3700    1.2900    0.0000 C   0  0  0  0  0  0  0  0  0  0  0  0
    0.9300   -0.9600    0.0000 C   0  0  0  0  0  0  0  0  0  0  0  0
    0.9300    0.5400    0.0000 C   0  0  0  0  0  0  0  0  0  0  0  0
    3.5281    0.5404    0.0000 C   0  0  0  0  0  0  0  0  0  0  0  0
    4.8270    1.2906    0.0000 Cl  0  0  0  0  0  0  0  0  0  0  0  0
    3.5283   -0.9596    0.0000 O   0  0  0  0  0  0  0  0  0  0  0  0
    2.2289    1.2902    0.0000 O   0  0  0  0  0  0  0  0  0  0  0  0
  2  1  2  0
  3  1  1  0
  4  2  1  0
  5  3  2  0
  6  4  2  0
  6  5  1  0
  8  7  1  0
  9  7  2  0
 10  6  1  0
 10  7  1  0
M  END
>  <NAME>  (2171) 
PHENYL CHLOROFORMATE

>  <SYNONYMS>  (2171) 
CHLOROFORMIC ACID PHENYL ESTER

>  <SPECTRUM TYPE>  (2171) 
MS1

>  <INSTRUMENT TYPE>  (2171) 
EI-B

>  <INSTRUMENT>  (2171) 
HITACHI RMU-7M

>  <ION MODE>  (2171) 
P

>  <INCHIKEY>  (2171) 
AHWALFGBDFAJAI-UHFFFAOYSA-N

>  <FORMULA>  (2171) 
C7H5ClO2

>  <EXACT MASS>  (2171) 
155.99780708

>  <MW>  (2171) 
156

>  <ID>  (2171) 
JP008869

>  <CONTRIBUTOR>  (2171) 
University of Tokyo Team, {Faculty of Engineering, University of Tokyo

>  <COMMENT>  (2171) 
SMILES=O=C(Cl)Oc(c1)cccc1
InChI=InChI=1S/C7H5ClO2/c8-7(9)10-6-4-2-1-3-5-6/h1-5H
computed SMILES=O=C(Cl)OC=1C=CC=CC1
accession=JP008869
date=2016.01.19 (Created 2008.10.21, modified 2011.05.06)
author=TAJIMA S, GUNMA COLLEGE OF TECHNOLOGY
license=CC BY-NC-SA
exact mass=155.99781
ionization energy=70 eV
ion type=[M]+*
computed spectral entropy=2.624663379754393
computed normalized entropy=0.7794573189504813
SPLASH=splash10-05r0-9200000000-70c5973f97ae8a7ddf19
submitter=submitter = University of Tokyo Team (Faculty of Engineering, University of Tokyo)
MoNA Rating=3.75

>  <NUM PEAKS>  (2171) 
29

>  <MASS SPECTRAL PEAKS>  (2171) 
27 1.83
35 1.83
37 4.02
38 10.96
38.5 3.65
39 31.96
44 3.56
50 7.21
51 12.15
61 2.01
62 3.74
63 29.04
64 4.2
65 57.99
66 3.74
74 2.1
77 99.99
78 6.48
93 26.94
94 3.84
112 12.79
114 4.47
121 5.57
128 3.2
130 1.1
156 39.73
157 3.47
158 13.33
159 1

>  <PREDICTED SPECTRUM>  (2171) 
14 42
15 82
16 37
17 36
18 59
25 60
26 186
27 295
28 213
29 176
30 55
35 151
36 212
37 277
38 428
39 686
40 249
41 95
44 244
45 22
46 18
47 166
48 47
49 287
50 600
51 774
52 126
53 267
54 51
55 10
57 109
61 208
62 300
63 573
64 358
65 727
66 462
67 149
72 6
73 277
74 269
75 246
76 324
77 999
78 488
79 3
82 14
84 63
85 9
86 83
87 56
92 42
93 639
94 548
95 18
101 28
102 36
103 54
111 89
112 173
113 55
114 15
121 422
122 126
128 105
129 32
130 33
156 626
157 175
158 394
159 126

$$$$

     RDKit          2D

  9  9  0  0  0  0  0  0  0  0999 V2000
   -2.8539    0.1433    0.0000 C   0  0  0  0  0  0  0  0  0  0  0  0
    2.3428    0.1427    0.0000 C   0  0  0  0  0  0  0  0  0  0  0  0
   -0.2548   -2.8581    0.0000 C   0  0  0  0  0  0  0  0  0  0  0  0
   -1.5543   -2.1073    0.0000 C   0  0  0  0  0  0  0  0  0  0  0  0
    1.0443   -2.1081    0.0000 C   0  0  0  0  0  0  0  0  0  0  0  0
   -1.5548   -0.6065    0.0000 C   0  0  0  0  0  0  0  0  0  0  0  0
    1.0438   -0.6073    0.0000 C   0  0  0  0  0  0  0  0  0  0  0  0
   -0.2557    0.1435    0.0000 C   0  0  0  0  0  0  0  0  0  0  0  0
   -0.2555    1.6435    0.0000 N   0  0  0  0  0  0  0  0  0  0  0  0
  4  3  2  0
  5  3  1  0
  6  1  1  0
  6  4  1  0
  7  2  1  0
  7  5  2  0
  8  6  2  0
  8  7  1  0
  9  8  1  0
M  END
>  <NAME>  (2172) 
2,6-XYLIDINE

>  <SYNONYMS>  (2172) 
2,6-DIMETHYLANILINE

>  <SPECTRUM TYPE>  (2172) 
MS1

>  <INSTRUMENT TYPE>  (2172) 
EI-B

>  <INSTRUMENT>  (2172) 
HITACHI RMU-7M

>  <ION MODE>  (2172) 
P

>  <INCHIKEY>  (2172) 
UFFBMTHBGFGIHF-UHFFFAOYSA-N

>  <FORMULA>  (2172) 
C8H11N

>  <EXACT MASS>  (2172) 
121.08914935199999

>  <MW>  (2172) 
121

>  <ID>  (2172) 
JP008868

>  <CONTRIBUTOR>  (2172) 
University of Tokyo Team, {Faculty of Engineering, University of Tokyo

>  <COMMENT>  (2172) 
SMILES=Cc(c1)c(N)c(C)cc1
InChI=InChI=1S/C8H11N/c1-6-4-3-5-7(2)8(6)9/h3-5H,9H2,1-2H3
computed SMILES=NC=1C(=CC=CC1C)C
accession=JP008868
date=2016.01.19 (Created 2008.10.21, modified 2011.05.06)
author=TAJIMA S, GUNMA COLLEGE OF TECHNOLOGY
license=CC BY-NC-SA
exact mass=121.08915
ionization energy=70 eV
ion type=[M]+*
computed spectral entropy=2.541156683742858
computed normalized entropy=0.7147420280078883
SPLASH=splash10-00di-3900000000-4aea984cccfc0b0c5460
submitter=submitter = University of Tokyo Team (Faculty of Engineering, University of Tokyo)
MoNA Rating=3.75

>  <NUM PEAKS>  (2172) 
35

>  <MASS SPECTRAL PEAKS>  (2172) 
27 2.52
28 2.67
30 1.6
39 5.34
41 2.29
42 2.67
50 1.68
51 4.2
52 3.36
53 4.27
54 1.91
58.5 2.21
59.5 2.44
60.5 2.37
63 2.75
66 1.6
77 13.59
78 7.33
79 4.96
80 2.44
89 1.22
91 9.16
92 2.37
93 3.97
94 1.53
103 7.33
104 4.58
105 2.6
106 54.35
107 4.81
118 2.67
119 2.29
120 54.2
121 99.99
122 10.08

>  <PREDICTED SPECTRUM>  (2172) 
14 4
15 47
25 6
26 85
27 241
28 153
29 32
30 15
36 29
37 93
38 167
39 427
40 149
41 261
42 54
43 39
46 51
48 0
49 12
50 235
51 336
52 263
53 256
54 156
55 65
58 52
61 207
62 153
63 242
64 119
65 312
66 206
67 148
68 51
73 12
74 180
75 215
76 135
77 442
78 331
79 359
80 210
81 91
87 15
89 116
90 86
91 380
92 234
93 298
94 262
95 110
102 149
103 215
104 264
105 307
106 720
107 213
116 22
117 45
118 292
119 237
120 932
121 999
122 288
123 26

$$$$

     RDKit          2D

  6  5  0  0  0  0  0  0  0  0999 V2000
    0.0000    0.0000    0.0000 C   0  0  0  0  0  0  0  0  0  0  0  0
    1.2990    2.2500    0.0000 C   0  0  0  0  0  0  0  0  0  0  0  0
   -1.2990    3.7500    0.0000 C   0  0  0  0  0  0  0  0  0  0  0  0
    0.0000    1.5000    0.0000 C   0  0  0  0  0  0  0  0  0  0  0  0
   -2.5981    4.5000    0.0000 O   0  0  0  0  0  0  0  0  0  0  0  0
   -1.2990    2.2500    0.0000 O   0  0  0  0  0  0  0  0  0  0  0  0
  4  1  1  0
  4  2  1  0
  5  3  2  0
  6  3  1  0
  6  4  1  0
M  END
>  <NAME>  (2173) 
ISOPROPYL FORMATE

>  <SYNONYMS>  (2173) 
FORMIC ACID ISOPROPYL ESTER

>  <SPECTRUM TYPE>  (2173) 
MS1

>  <INSTRUMENT TYPE>  (2173) 
EI-B

>  <INSTRUMENT>  (2173) 
HITACHI RMU-7M

>  <ION MODE>  (2173) 
P

>  <INCHIKEY>  (2173) 
RMOUBSOVHSONPZ-UHFFFAOYSA-N

>  <FORMULA>  (2173) 
C4H8O2

>  <EXACT MASS>  (2173) 
88.052429496

>  <MW>  (2173) 
88

>  <ID>  (2173) 
JP008865

>  <CONTRIBUTOR>  (2173) 
University of Tokyo Team, {Faculty of Engineering, University of Tokyo

>  <COMMENT>  (2173) 
SMILES=O=COC(C)C
InChI=InChI=1S/C4H8O2/c1-4(2)6-3-5/h3-4H,1-2H3
computed SMILES=O=COC(C)C
accession=JP008865
date=2016.01.19 (Created 2008.10.21, modified 2011.05.06)
author=TAJIMA S, GUNMA COLLEGE OF TECHNOLOGY
license=CC BY-NC-SA
exact mass=88.05243
ionization energy=70 eV
ion type=[M]+*
computed spectral entropy=2.208849349984928
computed normalized entropy=0.7796269047718775
SPLASH=splash10-0007-9000000000-f684de40bfbe24a368ed
submitter=submitter = University of Tokyo Team (Faculty of Engineering, University of Tokyo)
MoNA Rating=3.75

>  <NUM PEAKS>  (2173) 
17

>  <MASS SPECTRAL PEAKS>  (2173) 
15 5.04
19 4.97
27 20.78
28 2.61
29 9.57
31 4.35
39 9.48
40 2.61
41 30.26
42 48.26
43 40.17
44 3.04
45 99.99
46 2.61
47 6.96
59 5.13
73 20.43

>  <PREDICTED SPECTRUM>  (2173) 
26 43
27 228
28 25
29 346
31 158
37 5
38 38
39 319
40 155
41 737
42 562
43 999
44 408
45 858
46 238
47 169
55 2
59 79
60 133
61 27
73 322
74 123
88 79

$$$$

     RDKit          2D

 10 10  0  0  0  0  0  0  0  0999 V2000
    2.9231    0.5071    0.0000 C   0  0  0  0  0  0  0  0  0  0  0  0
    2.9236    2.0079    0.0000 C   0  0  0  0  0  0  0  0  0  0  0  0
    1.6236   -0.2437    0.0000 C   0  0  0  0  0  0  0  0  0  0  0  0
    1.6245    2.7579    0.0000 C   0  0  0  0  0  0  0  0  0  0  0  0
    0.3245    0.5063    0.0000 C   0  0  0  0  0  0  0  0  0  0  0  0
   -0.9740    2.7571    0.0000 C   0  0  0  0  0  0  0  0  0  0  0  0
   -3.5721    2.7571    0.0000 C   0  0  0  0  0  0  0  0  0  0  0  0
    0.3250    2.0071    0.0000 C   0  0  0  0  0  0  0  0  0  0  0  0
   -4.8712    2.0071    0.0000 O   0  0  0  0  0  0  0  0  0  0  0  0
   -2.2731    2.0071    0.0000 O   0  0  0  0  0  0  0  0  0  0  0  0
  2  1  2  0
  3  1  1  0
  4  2  1  0
  5  3  2  0
  8  4  2  0
  8  5  1  0
  8  6  1  0
  9  7  2  0
 10  6  1  0
 10  7  1  0
M  END
>  <NAME>  (2174) 
BENZYL FORMATE

>  <SYNONYMS>  (2174) 
FORMIC ACID BENZYL ESTER

>  <SPECTRUM TYPE>  (2174) 
MS1

>  <INSTRUMENT TYPE>  (2174) 
EI-B

>  <INSTRUMENT>  (2174) 
HITACHI RMU-7M

>  <ION MODE>  (2174) 
P

>  <INCHIKEY>  (2174) 
UYWQUFXKFGHYNT-UHFFFAOYSA-N

>  <FORMULA>  (2174) 
C8H8O2

>  <EXACT MASS>  (2174) 
136.052429496

>  <MW>  (2174) 
136

>  <ID>  (2174) 
JP008864

>  <CONTRIBUTOR>  (2174) 
University of Tokyo Team, {Faculty of Engineering, University of Tokyo

>  <COMMENT>  (2174) 
SMILES=O=COCc(c1)cccc1
InChI=InChI=1S/C8H8O2/c9-7-10-6-8-4-2-1-3-5-8/h1-5,7H,6H2
computed SMILES=O=COCC=1C=CC=CC1
accession=JP008864
date=2016.01.19 (Created 2008.10.21, modified 2011.05.06)
author=TAJIMA S, GUNMA COLLEGE OF TECHNOLOGY
license=CC BY-NC-SA
exact mass=136.05243
ionization energy=70 eV
ion type=[M]+*
computed spectral entropy=2.7445302515659176
computed normalized entropy=0.8069306022529846
SPLASH=splash10-0006-9300000000-6a77c8d351ff84dc23ee
submitter=submitter = University of Tokyo Team (Faculty of Engineering, University of Tokyo)
MoNA Rating=3.75

>  <NUM PEAKS>  (2174) 
30

>  <MASS SPECTRAL PEAKS>  (2174) 
27 4.45
29 7.48
31 2.35
38 3.59
39 16.39
40 1.3
41 4.45
43 3.09
50 9.09
51 20.47
52 5.32
53 2.84
62 3.83
63 10.02
64 3.09
65 22.63
77 27.21
78 5.75
79 35.81
80 4.21
89 20.1
90 89.67
91 99.99
92 7.48
105 2.97
107 30.86
108 34.51
109 2.66
136 70.44
137 6.18

>  <PREDICTED SPECTRUM>  (2174) 
17 6
25 10
26 56
27 84
28 42
29 115
30 2
31 56
37 28
38 78
39 231
40 80
41 108
42 0
43 17
44 96
49 40
50 213
51 318
52 215
53 153
54 32
56 7
61 51
62 131
63 257
64 137
65 406
66 107
68 9
74 136
75 108
76 94
77 417
78 278
79 347
80 117
81 38
89 293
90 388
91 999
92 370
93 36
105 192
106 9
107 585
108 471
109 105
136 531
137 196
138 1

$$$$

     RDKit          2D

 10 10  0  0  0  0  0  0  0  0999 V2000
   -2.5981   -0.4300    0.0000 C   0  0  0  0  0  0  0  0  0  0  0  0
   -1.2986   -1.1808    0.0000 C   0  0  0  0  0  0  0  0  0  0  0  0
   -2.5986    1.0708    0.0000 C   0  0  0  0  0  0  0  0  0  0  0  0
    0.0005   -0.4308    0.0000 C   0  0  0  0  0  0  0  0  0  0  0  0
   -1.2995    1.8208    0.0000 C   0  0  0  0  0  0  0  0  0  0  0  0
    0.0000    1.0700    0.0000 C   0  0  0  0  0  0  0  0  0  0  0  0
    1.2990    1.8200    0.0000 C   0  0  0  0  0  0  0  0  0  0  0  0
    2.0490    0.5210    0.0000 F   0  0  0  0  0  0  0  0  0  0  0  0
    2.5981    2.5700    0.0000 F   0  0  0  0  0  0  0  0  0  0  0  0
    0.5490    3.1190    0.0000 F   0  0  0  0  0  0  0  0  0  0  0  0
  2  1  2  0
  3  1  1  0
  4  2  1  0
  5  3  2  0
  6  4  2  0
  6  5  1  0
  7  6  1  0
  8  7  1  0
  9  7  1  0
 10  7  1  0
M  END
>  <NAME>  (2175) 
ALPHA,ALPHA,ALPHA-TRIFLUOROTOLUENE

>  <SYNONYMS>  (2175) 


>  <SPECTRUM TYPE>  (2175) 
MS1

>  <INSTRUMENT TYPE>  (2175) 
EI-B

>  <INSTRUMENT>  (2175) 
HITACHI RMU-7M

>  <ION MODE>  (2175) 
P

>  <INCHIKEY>  (2175) 
GETTZEONDQJALK-UHFFFAOYSA-N

>  <FORMULA>  (2175) 
C7H5F3

>  <EXACT MASS>  (2175) 
146.03433482

>  <MW>  (2175) 
146

>  <ID>  (2175) 
JP008863

>  <CONTRIBUTOR>  (2175) 
University of Tokyo Team, {Faculty of Engineering, University of Tokyo

>  <COMMENT>  (2175) 
SMILES=FC(F)(F)c(c1)cccc1
InChI=InChI=1S/C7H5F3/c8-7(9,10)6-4-2-1-3-5-6/h1-5H
computed SMILES=FC(F)(F)C=1C=CC=CC1
accession=JP008863
date=2016.01.19 (Created 2008.10.21, modified 2011.05.06)
author=TAJIMA S, GUNMA COLLEGE OF TECHNOLOGY
license=CC BY-NC-SA
exact mass=146.03433
ionization energy=70 eV
ion type=[M]+*
computed spectral entropy=2.879776549935095
computed normalized entropy=0.7975192512272524
SPLASH=splash10-0002-8900000000-44c6b8ce8cad5a8c0baa
submitter=submitter = University of Tokyo Team (Faculty of Engineering, University of Tokyo)
MoNA Rating=3.75

>  <NUM PEAKS>  (2175) 
37

>  <MASS SPECTRAL PEAKS>  (2175) 
27 3.31
29 4.22
31 1.88
38 2.64
39 4.89
41 5.95
43 9.71
50 13.1
51 19.13
55 5.27
57 9.79
63 3.69
63.5 2.86
69 6.48
70 4.07
71 4.67
73 2.26
74 6.4
75 9.86
76 3.24
77 16.87
83 2.86
85 3.01
95 4.97
96 37.95
97 4.14
99 2.64
101 2.18
115 1.51
125 4.37
126 4.59
127 50.83
128 6.02
144 2.26
145 38.55
146 99.99
147 7.68

>  <PREDICTED SPECTRUM>  (2175) 
14 18
19 60
25 37
26 109
27 111
28 80
30 58
31 342
32 26
33 60
37 165
38 190
39 186
40 8
43 11
47 5
48 22
49 131
50 437
51 493
57 370
61 76
62 220
63 336
68 80
69 538
70 81
73 81
74 276
75 530
76 241
77 828
78 137
79 2
80 124
81 165
82 80
83 247
85 11
86 65
87 212
88 199
89 86
92 59
93 37
94 60
95 271
96 253
97 5
99 237
100 150
101 85
105 2
106 101
107 377
108 107
119 230
120 24
125 499
126 699
127 775
128 125
145 743
146 999
147 318

$$$$

     RDKit          2D

  8  7  0  0  0  0  0  0  0  0999 V2000
    1.9486    3.3750    0.0000 C   0  0  0  0  0  0  0  0  0  0  0  0
   -5.8457    3.3750    0.0000 C   0  0  0  0  0  0  0  0  0  0  0  0
    0.6495    4.1250    0.0000 C   0  0  0  0  0  0  0  0  0  0  0  0
   -3.2476    3.3750    0.0000 C   0  0  0  0  0  0  0  0  0  0  0  0
   -1.9486    4.1250    0.0000 C   0  0  0  0  0  0  0  0  0  0  0  0
   -4.5466    4.1250    0.0000 C   0  0  0  0  0  0  0  0  0  0  0  0
   -4.5466    5.6250    0.0000 O   0  0  0  0  0  0  0  0  0  0  0  0
   -0.6495    3.3750    0.0000 O   0  0  0  0  0  0  0  0  0  0  0  0
  3  1  1  0
  5  4  1  0
  6  2  1  0
  6  4  1  0
  7  6  2  0
  8  3  1  0
  8  5  1  0
M  END
>  <NAME>  (2176) 
4-ETHOXY-2-BUTANONE

>  <SYNONYMS>  (2176) 
ACETYLETHYL ETHYL ETHER

>  <SPECTRUM TYPE>  (2176) 
MS1

>  <INSTRUMENT TYPE>  (2176) 
EI-B

>  <INSTRUMENT>  (2176) 
HITACHI RMU-7M

>  <ION MODE>  (2176) 
P

>  <INCHIKEY>  (2176) 
YFBGSHHKHHCVDI-UHFFFAOYSA-N

>  <FORMULA>  (2176) 
C6H12O2

>  <EXACT MASS>  (2176) 
116.083729624

>  <MW>  (2176) 
116

>  <ID>  (2176) 
JP008862

>  <CONTRIBUTOR>  (2176) 
University of Tokyo Team, {Faculty of Engineering, University of Tokyo

>  <COMMENT>  (2176) 
SMILES=CCOCCC(C)=O
InChI=InChI=1S/C6H12O2/c1-3-8-5-4-6(2)7/h3-5H2,1-2H3
computed SMILES=O=C(C)CCOCC
accession=JP008862
date=2016.01.19 (Created 2008.10.21, modified 2011.05.06)
author=TAJIMA S, GUNMA COLLEGE OF TECHNOLOGY
license=CC BY-NC-SA
exact mass=116.08373
ionization energy=70 eV
ion type=[M]+*
computed spectral entropy=2.5022778748726493
computed normalized entropy=0.8218950347903353
SPLASH=splash10-054o-9000000000-0252426f964acc0d81ec
submitter=submitter = University of Tokyo Team (Faculty of Engineering, University of Tokyo)
MoNA Rating=3.75

>  <NUM PEAKS>  (2176) 
21

>  <MASS SPECTRAL PEAKS>  (2176) 
15 16.58
26 9.09
27 46.07
28 5.79
29 12.16
31 54.36
39 3.99
41 3.44
42 11.06
43 99.99
44 10.14
45 27.15
46 8.91
55 65.72
59 7.68
70 27.15
71 6.14
72 11.55
73 2.33
87 4.79
101 2.58

>  <PREDICTED SPECTRUM>  (2176) 
14 40
15 79
16 8
19 7
25 12
26 112
27 276
28 200
29 371
30 81
31 405
32 23
33 2
37 13
38 64
39 180
40 106
41 365
42 211
43 999
44 278
45 788
46 208
47 34
53 67
54 97
55 211
56 56
57 373
58 335
59 694
60 120
61 118
69 133
70 232
71 370
72 434
73 288
74 37
83 66
87 216
88 126
97 8
98 152
101 88
116 319
117 109

$$$$

     RDKit          2D

  9  8  0  0  0  0  0  0  0  0999 V2000
    1.9931    3.2978    0.0000 C   0  0  0  0  0  0  0  0  0  0  0  0
   -5.8011    3.2978    0.0000 C   0  0  0  0  0  0  0  0  0  0  0  0
   -0.9398    5.1969    0.0000 C   0  0  0  0  0  0  0  0  0  0  0  0
   -2.8682    5.1969    0.0000 C   0  0  0  0  0  0  0  0  0  0  0  0
    0.6941    4.0478    0.0000 C   0  0  0  0  0  0  0  0  0  0  0  0
   -4.5021    4.0478    0.0000 C   0  0  0  0  0  0  0  0  0  0  0  0
   -0.6050    3.2978    0.0000 O   0  0  0  0  0  0  0  0  0  0  0  0
   -3.2031    3.2978    0.0000 O   0  0  0  0  0  0  0  0  0  0  0  0
   -1.9040    4.0478    0.0000 Si  0  0  0  0  0  4  0  0  0  0  0  0
  5  1  1  0
  6  2  1  0
  7  5  1  0
  8  6  1  0
  9  3  1  0
  9  4  1  0
  9  7  1  0
  9  8  1  0
M  END
>  <NAME>  (2177) 
DIETHOXYDIMETHYLSILANE

>  <SYNONYMS>  (2177) 


>  <SPECTRUM TYPE>  (2177) 
MS1

>  <INSTRUMENT TYPE>  (2177) 
EI-B

>  <INSTRUMENT>  (2177) 
HITACHI RMU-7M

>  <ION MODE>  (2177) 
P

>  <INCHIKEY>  (2177) 
YYLGKUPAFFKGRQ-UHFFFAOYSA-N

>  <FORMULA>  (2177) 
C6H16O2Si

>  <EXACT MASS>  (2177) 
148.091956282

>  <MW>  (2177) 
148

>  <ID>  (2177) 
JP008860

>  <CONTRIBUTOR>  (2177) 
University of Tokyo Team, {Faculty of Engineering, University of Tokyo

>  <COMMENT>  (2177) 
SMILES=CCO[Si](C)(C)OCC
InChI=InChI=1S/C6H16O2Si/c1-5-7-9(3,4)8-6-2/h5-6H2,1-4H3
computed SMILES=O(CC)[Si](OCC)(C)C
accession=JP008860
date=2016.01.19 (Created 2008.10.21, modified 2011.05.06)
author=TAJIMA S, GUNMA COLLEGE OF TECHNOLOGY
license=CC BY-NC-SA
exact mass=148.09196
ionization energy=70 eV
ion type=[M]+*
computed spectral entropy=2.4303351542969205
computed normalized entropy=0.7373954637637481
SPLASH=splash10-001i-7900000000-bb7c11e05563dad8e3f1
submitter=submitter = University of Tokyo Team (Faculty of Engineering, University of Tokyo)
MoNA Rating=3.75

>  <NUM PEAKS>  (2177) 
27

>  <MASS SPECTRAL PEAKS>  (2177) 
27 1.72
28 2.07
29 1.38
43 3.45
45 9.52
47 4.14
58 1.72
59 12.41
61 7.24
63 1.93
66 2.07
73 2.76
75 15.03
76 1.73
77 32.76
78 1.93
89 37.24
90 2.76
91 1.72
103 25.52
104 2.48
105 18.62
106 1.38
133 99.99
134 10.34
135 4.28
147 1.03

>  <PREDICTED SPECTRUM>  (2177) 
14 0
15 37
17 12
18 5
26 46
27 88
28 20
29 131
31 141
41 26
42 52
43 199
44 52
45 407
46 73
47 236
48 19
49 12
50 3
51 53
52 37
53 26
54 15
55 13
58 150
59 274
60 84
61 224
62 79
63 164
64 39
65 12
73 323
74 70
75 420
76 127
77 367
78 106
79 220
81 33
82 36
86 9
87 143
88 67
89 671
90 261
91 295
92 41
93 12
101 2
102 80
103 541
104 337
105 503
106 197
107 242
108 6
117 3
119 275
120 66
121 2
133 999
134 363
135 351
136 82
147 147
148 131
149 49

$$$$

     RDKit          2D

  7  7  0  0  0  0  0  0  0  0999 V2000
    0.0000    1.5000    0.0000 C   0  0  0  0  0  0  0  0  0  0  0  0
    0.0000    0.0000    0.0000 C   0  0  0  0  0  0  0  0  0  0  0  0
   -1.1727    2.4352    0.0000 C   0  0  0  0  0  0  0  0  0  0  0  0
   -1.1727   -0.9352    0.0000 C   0  0  0  0  0  0  0  0  0  0  0  0
   -2.6351    2.1015    0.0000 C   0  0  0  0  0  0  0  0  0  0  0  0
   -2.6351   -0.6015    0.0000 C   0  0  0  0  0  0  0  0  0  0  0  0
   -3.2860    0.7500    0.0000 C   0  0  0  0  0  0  0  0  0  0  0  0
  2  1  2  0
  3  1  1  0
  4  2  1  0
  5  3  1  0
  6  4  1  0
  7  5  1  0
  7  6  1  0
M  END
>  <NAME>  (2178) 
CYCLOHEPTENE

>  <SYNONYMS>  (2178) 


>  <SPECTRUM TYPE>  (2178) 
MS1

>  <INSTRUMENT TYPE>  (2178) 
EI-B

>  <INSTRUMENT>  (2178) 
HITACHI RMU-7M

>  <ION MODE>  (2178) 
P

>  <INCHIKEY>  (2178) 
ZXIJMRYMVAMXQP-UHFFFAOYSA-N

>  <FORMULA>  (2178) 
C7H12

>  <EXACT MASS>  (2178) 
96.093900384

>  <MW>  (2178) 
96

>  <ID>  (2178) 
JP008859

>  <CONTRIBUTOR>  (2178) 
University of Tokyo Team, {Faculty of Engineering, University of Tokyo

>  <COMMENT>  (2178) 
SMILES=C(C1)CCC=CC1
InChI=InChI=1S/C7H12/c1-2-4-6-7-5-3-1/h1-2H,3-7H2
computed SMILES=C1=CCCCCC1
accession=JP008859
date=2016.01.19 (Created 2008.10.21, modified 2011.05.06)
author=TAJIMA S, GUNMA COLLEGE OF TECHNOLOGY
license=CC BY-NC-SA
exact mass=96.0939
ionization energy=70 eV
ion type=[M]+*
computed spectral entropy=2.778986835182424
computed normalized entropy=0.82528740434237
SPLASH=splash10-0gb9-9000000000-e6bbb469d3fdcc39a452
submitter=submitter = University of Tokyo Team (Faculty of Engineering, University of Tokyo)
MoNA Rating=3.75

>  <NUM PEAKS>  (2178) 
29

>  <MASS SPECTRAL PEAKS>  (2178) 
27 20.46
28 2.82
29 18.79
39 39.14
40 7.72
41 27.66
42 7.52
50 2.61
51 5.22
52 2.61
53 20.25
54 97.6
55 56.37
56 5.74
65 6.78
66 8.77
67 99.99
68 58.56
69 5.32
70 2.92
77 6.68
79 11.06
81 70.98
82 5.22
91 9.5
92 5.22
95 7.62
96 57.41
97 5.11

>  <PREDICTED SPECTRUM>  (2178) 
14 8
15 41
25 26
26 158
27 500
28 224
29 346
37 85
38 154
39 669
40 326
41 729
42 318
43 129
49 38
50 174
51 303
52 240
53 473
54 777
55 526
56 158
57 48
62 70
63 191
64 70
65 261
66 219
67 999
68 677
69 250
70 111
76 0
77 262
78 151
79 295
81 678
82 229
91 68
95 117
96 244
97 54

$$$$

     RDKit          2D

 12 11  0  0  0  0  0  0  0  0999 V2000
    2.2841    2.8734    0.0000 C   0  0  0  0  0  0  0  0  0  0  0  0
   -5.5102    2.8734    0.0000 C   0  0  0  0  0  0  0  0  0  0  0  0
   -3.0284    7.3311    0.0000 C   0  0  0  0  0  0  0  0  0  0  0  0
    0.8283    4.5120    0.0000 C   0  0  0  0  0  0  0  0  0  0  0  0
    0.9850    3.6234    0.0000 C   0  0  0  0  0  0  0  0  0  0  0  0
   -4.2111    3.6234    0.0000 C   0  0  0  0  0  0  0  0  0  0  0  0
   -2.0642    6.1820    0.0000 C   0  0  0  0  0  0  0  0  0  0  0  0
   -0.6489    4.7725    0.0000 C   0  0  0  0  0  0  0  0  0  0  0  0
   -0.3140    2.8734    0.0000 O   0  0  0  0  0  0  0  0  0  0  0  0
   -2.9121    2.8734    0.0000 O   0  0  0  0  0  0  0  0  0  0  0  0
   -2.5772    4.7725    0.0000 O   0  0  0  0  0  0  0  0  0  0  0  0
   -1.6131    3.6234    0.0000 Si  0  0  0  0  0  4  0  0  0  0  0  0
  5  1  1  0
  6  2  1  0
  7  3  1  0
  8  4  2  0
  9  5  1  0
 10  6  1  0
 11  7  1  0
 12  8  1  0
 12  9  1  0
 12 10  1  0
 12 11  1  0
M  END
>  <NAME>  (2179) 
VINYLTRIETHOXYSILANE

>  <SYNONYMS>  (2179) 


>  <SPECTRUM TYPE>  (2179) 
MS1

>  <INSTRUMENT TYPE>  (2179) 
EI-B

>  <INSTRUMENT>  (2179) 
HITACHI RMU-7M

>  <ION MODE>  (2179) 
P

>  <INCHIKEY>  (2179) 
FWDBOZPQNFPOLF-UHFFFAOYSA-N

>  <FORMULA>  (2179) 
C8H18O3Si

>  <EXACT MASS>  (2179) 
190.102520966

>  <MW>  (2179) 
190

>  <ID>  (2179) 
JP008858

>  <CONTRIBUTOR>  (2179) 
University of Tokyo Team, {Faculty of Engineering, University of Tokyo

>  <COMMENT>  (2179) 
SMILES=CCO[Si](C=C)(OCC)OCC
InChI=InChI=1S/C8H18O3Si/c1-5-9-12(8-4,10-6-2)11-7-3/h8H,4-7H2,1-3H3
computed SMILES=O(CC)[Si](OCC)(OCC)C=C
accession=JP008858
date=2016.01.19 (Created 2008.10.21, modified 2011.05.06)
author=TAJIMA S, GUNMA COLLEGE OF TECHNOLOGY
license=CC BY-NC-SA
exact mass=190.10252
ionization energy=70 eV
ion type=[M]+*
computed spectral entropy=3.3266034242833515
computed normalized entropy=0.8738897743687455
SPLASH=splash10-0002-3900000000-386fdcd39290e1b5e9d9
submitter=submitter = University of Tokyo Team (Faculty of Engineering, University of Tokyo)
MoNA Rating=3.75

>  <NUM PEAKS>  (2179) 
45

>  <MASS SPECTRAL PEAKS>  (2179) 
27 5.92
29 14.09
31 3.67
41 2.84
43 5.51
44 2.07
45 19.06
47 2.96
55 3.08
57 3.43
61 7.93
62 5.03
63 20.13
71 5.62
73 11.78
77 9.3
79 13.08
80 2.37
87 5.92
89 23.51
90 3.08
91 8.88
101 28.6
102 3.49
103 4.62
105 6.04
107 7.82
115 12.2
116 1.69
117 15.39
118 4.62
119 20.66
131 27.71
132 2.96
133 12.91
135 36.41
136 3.61
145 99.99
146 21.2
147 15.69
161 7.76
163 26.23
175 36.41
176 4.85
189 3.32

>  <PREDICTED SPECTRUM>  (2179) 
14 11
15 3
16 0
17 1
25 22
26 104
27 142
28 52
29 235
30 14
39 31
41 31
42 16
43 86
45 492
46 119
47 110
52 7
53 44
54 10
55 104
56 19
58 14
59 96
60 46
61 90
62 123
63 335
64 103
65 80
66 21
67 60
68 3
69 27
71 16
73 143
75 118
77 122
78 11
79 403
80 118
81 247
82 48
83 34
84 20
85 57
86 32
87 194
88 86
89 383
90 156
91 533
92 218
93 213
94 66
95 53
99 9
100 30
101 211
102 60
103 325
104 64
105 189
106 73
107 534
108 153
109 186
110 18
111 190
112 60
113 122
115 54
117 220
118 173
119 821
120 335
121 360
122 118
127 64
128 58
129 69
130 60
131 488
132 224
133 517
134 196
135 613
136 60
137 13
145 858
146 385
147 573
148 315
149 167
150 57
151 2
155 185
161 429
162 175
163 999
164 380
165 158
175 493
176 171
177 241
178 45
189 210
190 88
191 41

$$$$

     RDKit          2D

  4  3  0  0  0  0  0  0  0  0999 V2000
    0.9743    0.5625    0.0000 C   0  0  0  0  0  0  0  0  0  0  0  0
   -1.6238    0.5625    0.0000 C   0  0  0  0  0  0  0  0  0  0  0  0
   -0.3248    1.3125    0.0000 C   0  0  0  0  0  0  0  0  0  0  0  0
   -0.3248    2.8125    0.0000 Cl  0  0  0  0  0  0  0  0  0  0  0  0
  3  1  1  0
  3  2  1  0
  4  3  1  0
M  END
>  <NAME>  (2180) 
2-CHLOROPROPANE

>  <SYNONYMS>  (2180) 


>  <SPECTRUM TYPE>  (2180) 
MS1

>  <INSTRUMENT TYPE>  (2180) 
EI-B

>  <INSTRUMENT>  (2180) 
HITACHI RMU-7M

>  <ION MODE>  (2180) 
P

>  <INCHIKEY>  (2180) 
ULYZAYCEDJDHCC-UHFFFAOYSA-N

>  <FORMULA>  (2180) 
C3H7Cl

>  <EXACT MASS>  (2180) 
78.023627904

>  <MW>  (2180) 
78

>  <ID>  (2180) 
JP008857

>  <CONTRIBUTOR>  (2180) 
University of Tokyo Team, {Faculty of Engineering, University of Tokyo

>  <COMMENT>  (2180) 
SMILES=CC(C)Cl
InChI=InChI=1S/C3H7Cl/c1-3(2)4/h3H,1-2H3
computed SMILES=ClC(C)C
accession=JP008857
date=2016.01.19 (Created 2008.10.21, modified 2011.05.06)
author=TAJIMA S, GUNMA COLLEGE OF TECHNOLOGY
license=CC BY-NC-SA
exact mass=78.02363
ionization energy=70 eV
ion type=[M]+*
computed spectral entropy=2.216273488013438
computed normalized entropy=0.706833862666426
SPLASH=splash10-0006-9000000000-057ae889807deff47ba1
submitter=submitter = University of Tokyo Team (Faculty of Engineering, University of Tokyo)
MoNA Rating=3.75

>  <NUM PEAKS>  (2180) 
23

>  <MASS SPECTRAL PEAKS>  (2180) 
15 1.22
26 2.1
27 25.36
28 5.32
29 2.33
37 1.75
38 2.62
39 8.75
40 2.92
41 19.94
42 5.25
43 99.99
44 4.02
55 2.62
57 4.2
62 2.22
63 20.99
64 1.22
65 6.76
78 15.63
79 1
80 5.13
81 1

>  <PREDICTED SPECTRUM>  (2180) 
14 102
15 274
16 17
25 80
26 303
27 720
28 373
29 263
35 104
36 211
37 143
38 295
39 748
40 321
41 999
42 486
43 856
44 255
45 54
49 68
50 136
51 137
52 111
53 164
54 58
63 362
64 70
65 195
78 476
79 120
80 233
81 14

$$$$

     RDKit          2D

  6  5  0  0  0  0  0  0  0  0999 V2000
    1.2990    3.0000    0.0000 C   0  0  0  0  0  0  0  0  0  0  0  0
   -2.5981    3.7500    0.0000 C   0  0  0  0  0  0  0  0  0  0  0  0
   -3.8971    3.0000    0.0000 C   0  0  0  0  0  0  0  0  0  0  0  0
   -1.2990    3.0000    0.0000 C   0  0  0  0  0  0  0  0  0  0  0  0
   -5.1962    2.2500    0.0000 N   0  0  0  0  0  0  0  0  0  0  0  0
    0.0000    3.7500    0.0000 O   0  0  0  0  0  0  0  0  0  0  0  0
  3  2  1  0
  4  2  1  0
  5  3  3  0
  6  1  1  0
  6  4  1  0
M  END
>  <NAME>  (2181) 
3-METHOXYPROPIONITRILE

>  <SYNONYMS>  (2181) 
1-METHOXY-2-CYANOETHANE

>  <SPECTRUM TYPE>  (2181) 
MS1

>  <INSTRUMENT TYPE>  (2181) 
EI-B

>  <INSTRUMENT>  (2181) 
HITACHI RMU-7M

>  <ION MODE>  (2181) 
P

>  <INCHIKEY>  (2181) 
OOWFYDWAMOKVSF-UHFFFAOYSA-N

>  <FORMULA>  (2181) 
C4H7NO

>  <EXACT MASS>  (2181) 
85.052763844

>  <MW>  (2181) 
85

>  <ID>  (2181) 
JP008856

>  <CONTRIBUTOR>  (2181) 
University of Tokyo Team, {Faculty of Engineering, University of Tokyo

>  <COMMENT>  (2181) 
SMILES=N#CCCOC
InChI=InChI=1S/C4H7NO/c1-6-4-2-3-5/h2,4H2,1H3
computed SMILES=N#CCCOC
accession=JP008856
date=2016.01.19 (Created 2008.10.21, modified 2011.05.06)
author=TAJIMA S, GUNMA COLLEGE OF TECHNOLOGY
license=CC BY-NC-SA
exact mass=85.05276
ionization energy=70 eV
ion type=[M]+*
computed spectral entropy=2.2244337010186674
computed normalized entropy=0.7094363911494236
SPLASH=splash10-0002-9000000000-319115042fdc22f0d382
submitter=submitter = University of Tokyo Team (Faculty of Engineering, University of Tokyo)
MoNA Rating=3.75

>  <NUM PEAKS>  (2181) 
23

>  <MASS SPECTRAL PEAKS>  (2181) 
15 16.55
26 4.27
27 6.91
28 7
29 17.24
31 4.95
39 2.39
40 2.73
41 5.89
43 7
45 99.99
46 2.56
51 2.39
52 3.5
53 2.13
54 7.68
55 6.06
56 3.41
57 5.97
69 2.05
71 2.82
83 1.54
85 1.79

>  <PREDICTED SPECTRUM>  (2181) 
14 98
15 257
16 35
18 12
19 21
25 51
26 250
27 451
28 434
29 485
30 148
31 321
32 81
33 5
38 135
39 79
40 318
41 455
42 430
43 349
44 173
45 999
46 188
51 75
52 246
53 420
54 524
55 480
56 124
57 192
58 201
70 343
84 268
85 241
86 15

$$$$

     RDKit          2D

  5  5  0  0  0  0  0  0  0  0999 V2000
    0.0000    1.5000    0.0000 C   0  0  0  0  0  0  0  0  0  0  0  0
    0.0000    0.0000    0.0000 C   0  0  0  0  0  0  0  0  0  0  0  0
   -2.3083    0.7500    0.0000 C   0  0  0  0  0  0  0  0  0  0  0  0
   -1.4266    1.9635    0.0000 O   0  0  0  0  0  0  0  0  0  0  0  0
   -1.4266   -0.4635    0.0000 O   0  0  0  0  0  0  0  0  0  0  0  0
  2  1  1  0
  4  1  1  0
  4  3  1  0
  5  2  1  0
  5  3  1  0
M  END
>  <NAME>  (2182) 
1,3-DIOXOLANE

>  <SYNONYMS>  (2182) 
1,3-DIOXACYCLOPENTANE

>  <SPECTRUM TYPE>  (2182) 
MS1

>  <INSTRUMENT TYPE>  (2182) 
EI-B

>  <INSTRUMENT>  (2182) 
HITACHI RMU-7M

>  <ION MODE>  (2182) 
P

>  <INCHIKEY>  (2182) 
WNXJIVFYUVYPPR-UHFFFAOYSA-N

>  <FORMULA>  (2182) 
C3H6O2

>  <EXACT MASS>  (2182) 
74.036779432

>  <MW>  (2182) 
74

>  <ID>  (2182) 
JP008855

>  <CONTRIBUTOR>  (2182) 
University of Tokyo Team, {Faculty of Engineering, University of Tokyo

>  <COMMENT>  (2182) 
SMILES=C(C1)OCO1
InChI=InChI=1S/C3H6O2/c1-2-5-3-4-1/h1-3H2
computed SMILES=O1COCC1
accession=JP008855
date=2016.01.19 (Created 2008.10.21, modified 2011.05.06)
author=TAJIMA S, GUNMA COLLEGE OF TECHNOLOGY
license=CC BY-NC-SA
exact mass=74.03678
ionization energy=70 eV
ion type=[M]+*
computed spectral entropy=2.1106449452046325
computed normalized entropy=0.7302330364385108
SPLASH=splash10-00dl-9000000000-40ce4f986bb39df796b5
submitter=submitter = University of Tokyo Team (Faculty of Engineering, University of Tokyo)
MoNA Rating=3.75

>  <NUM PEAKS>  (2182) 
18

>  <MASS SPECTRAL PEAKS>  (2182) 
14 3.48
15 16.04
29 38.07
30 2.14
31 7.43
41 4.33
42 4.39
43 23.96
44 57.06
45 26.52
55 3.16
56 1.34
57 4.81
69 1.87
71 2.19
73 99.99
74 6.52
75 1

>  <PREDICTED SPECTRUM>  (2182) 
14 231
15 452
16 129
17 66
18 103
19 146
25 129
26 438
27 839
28 759
29 999
30 384
31 595
32 78
36 122
38 107
41 163
42 264
43 831
44 811
45 602
46 55
47 19
57 189
58 181
63 34
73 913
74 505
75 47

$$$$

     RDKit          2D

  6  5  0  0  0  0  0  0  0  0999 V2000
    0.0000    0.0000    0.0000 C   0  0  0  0  0  0  0  0  0  0  0  0
   -1.2990    2.2500    0.0000 C   0  0  0  0  0  0  0  0  0  0  0  0
   -1.2990    3.7500    0.0000 C   0  0  0  0  0  0  0  0  0  0  0  0
    0.0000    1.5000    0.0000 C   0  0  0  0  0  0  0  0  0  0  0  0
   -2.5981    4.5000    0.0000 O   0  0  0  0  0  0  0  0  0  0  0  0
    1.2990    2.2500    0.0000 O   0  0  0  0  0  0  0  0  0  0  0  0
  3  2  1  0
  4  1  1  0
  4  2  1  0
  5  3  1  0
  6  4  2  0
M  END
>  <NAME>  (2183) 
4-HYDROXY-2-BUTANONE

>  <SYNONYMS>  (2183) 
HYDROXYETHYL METHYL KETONE

>  <SPECTRUM TYPE>  (2183) 
MS1

>  <INSTRUMENT TYPE>  (2183) 
EI-B

>  <INSTRUMENT>  (2183) 
HITACHI RMU-7M

>  <ION MODE>  (2183) 
P

>  <INCHIKEY>  (2183) 
LVSQXDHWDCMMRJ-UHFFFAOYSA-N

>  <FORMULA>  (2183) 
C4H8O2

>  <EXACT MASS>  (2183) 
88.052429496

>  <MW>  (2183) 
88

>  <ID>  (2183) 
JP008854

>  <CONTRIBUTOR>  (2183) 
University of Tokyo Team, {Faculty of Engineering, University of Tokyo

>  <COMMENT>  (2183) 
SMILES=OCCC(C)=O
InChI=InChI=1S/C4H8O2/c1-4(6)2-3-5/h5H,2-3H2,1H3
computed SMILES=O=C(C)CCO
accession=JP008854
date=2016.01.19 (Created 2008.10.21, modified 2011.05.06)
author=TAJIMA S, GUNMA COLLEGE OF TECHNOLOGY
license=CC BY-NC-SA
exact mass=88.05243
ionization energy=70 eV
ion type=[M]+*
computed spectral entropy=2.454490322268073
computed normalized entropy=0.7625302918818169
SPLASH=splash10-0006-9000000000-7280da5a63dca61cb6f6
submitter=submitter = University of Tokyo Team (Faculty of Engineering, University of Tokyo)
MoNA Rating=3.75

>  <NUM PEAKS>  (2183) 
25

>  <MASS SPECTRAL PEAKS>  (2183) 
14 1.68
15 9.25
26 2.35
27 10.72
28 6.7
29 7.37
30 1.21
31 13.27
39 3.42
41 5.29
42 10.32
43 99.99
44 3.69
45 8.04
55 14.41
57 4.02
58 4.96
61 10.66
69 2.01
70 19.37
71 3.62
73 5.7
74 1.27
87 1.27
88 4.83

>  <PREDICTED SPECTRUM>  (2183) 
14 39
15 66
16 11
19 18
25 3
26 55
27 143
28 77
29 156
30 189
31 224
32 1
33 2
37 35
38 69
39 207
40 101
41 316
42 277
43 999
44 244
45 394
46 42
50 35
51 47
52 20
53 121
54 72
55 157
56 86
57 249
58 289
59 65
60 67
61 9
67 12
69 236
70 302
71 158
72 42
73 161
87 24
88 159
89 38

$$$$

     RDKit          2D

  6  6  0  0  0  0  0  0  0  0999 V2000
   -1.3000   -0.7500    0.0000 C   0  0  0  0  0  0  0  0  0  0  0  0
    0.0000    1.5000    0.0000 C   0  0  0  0  0  0  0  0  0  0  0  0
    1.3000   -0.7500    0.0000 C   0  0  0  0  0  0  0  0  0  0  0  0
   -1.3000    0.7500    0.0000 O   0  0  0  0  0  0  0  0  0  0  0  0
   -0.0000   -1.5000    0.0000 O   0  0  0  0  0  0  0  0  0  0  0  0
    1.3000    0.7500    0.0000 O   0  0  0  0  0  0  0  0  0  0  0  0
  4  1  1  0
  4  2  1  0
  5  1  1  0
  5  3  1  0
  6  2  1  0
  6  3  1  0
M  END
>  <NAME>  (2184) 
1,3,5-TRIOXANE

>  <SYNONYMS>  (2184) 


>  <SPECTRUM TYPE>  (2184) 
MS1

>  <INSTRUMENT TYPE>  (2184) 
EI-B

>  <INSTRUMENT>  (2184) 
HITACHI RMU-7M

>  <ION MODE>  (2184) 
P

>  <INCHIKEY>  (2184) 
BGJSXRVXTHVRSN-UHFFFAOYSA-N

>  <FORMULA>  (2184) 
C3H6O3

>  <EXACT MASS>  (2184) 
90.03169405199999

>  <MW>  (2184) 
90

>  <ID>  (2184) 
JP008853

>  <CONTRIBUTOR>  (2184) 
University of Tokyo Team, {Faculty of Engineering, University of Tokyo

>  <COMMENT>  (2184) 
SMILES=C(O1)OCOC1
InChI=InChI=1S/C3H6O3/c1-4-2-6-3-5-1/h1-3H2
computed SMILES=O1COCOC1
accession=JP008853
date=2016.01.19 (Created 2008.10.21, modified 2011.05.06)
author=TAJIMA S, GUNMA COLLEGE OF TECHNOLOGY
license=CC BY-NC-SA
exact mass=90.03169
ionization energy=70 eV
ion type=[M]+*
computed spectral entropy=1.6448433013241366
computed normalized entropy=0.6619336390219996
SPLASH=splash10-001i-9000000000-da09301d959dfad0cdf5
submitter=submitter = University of Tokyo Team (Faculty of Engineering, University of Tokyo)
MoNA Rating=3.75

>  <NUM PEAKS>  (2184) 
12

>  <MASS SPECTRAL PEAKS>  (2184) 
18 3.74
28 7.56
29 14.81
30 4.66
31 99.99
32 7.63
41 1.53
43 2.21
55 1.45
57 1.76
61 35.27
89 18.93

>  <PREDICTED SPECTRUM>  (2184) 
14 67
15 209
16 27
18 54
19 8
25 15
27 151
28 51
29 663
30 488
31 999
32 317
33 69
38 114
40 28
44 278
45 36
50 84
59 226
60 256
61 89
89 440
90 303
91 6

$$$$

     RDKit          2D

  5  4  0  0  0  0  0  0  0  0999 V2000
   -0.0000   -0.0000    0.0000 C   0  0  0  0  0  0  0  0  0  0  0  0
   -1.2990    3.7500    0.0000 C   0  0  0  0  0  0  0  0  0  0  0  0
    0.0000    1.5000    0.0000 C   0  0  0  0  0  0  0  0  0  0  0  0
   -1.2990    2.2500    0.0000 C   0  0  0  0  0  0  0  0  0  0  0  0
   -2.5981    1.5000    0.0000 N   0  0  0  0  0  0  0  0  0  0  0  0
  3  1  1  0
  4  2  1  0
  4  3  1  0
  5  4  1  0
M  END
>  <NAME>  (2185) 
1-METHYLPROPYLAMINE

>  <SYNONYMS>  (2185) 
SEC-BUTYLAMINE

>  <SPECTRUM TYPE>  (2185) 
MS1

>  <INSTRUMENT TYPE>  (2185) 
EI-B

>  <INSTRUMENT>  (2185) 
HITACHI RMU-7M

>  <ION MODE>  (2185) 
P

>  <INCHIKEY>  (2185) 
BHRZNVHARXXAHW-UHFFFAOYSA-N

>  <FORMULA>  (2185) 
C4H11N

>  <EXACT MASS>  (2185) 
73.08914935199999

>  <MW>  (2185) 
73

>  <ID>  (2185) 
JP008851

>  <CONTRIBUTOR>  (2185) 
University of Tokyo Team, {Faculty of Engineering, University of Tokyo

>  <COMMENT>  (2185) 
SMILES=CCC(C)N
InChI=InChI=1S/C4H11N/c1-3-4(2)5/h4H,3,5H2,1-2H3
computed SMILES=NC(C)CC
accession=JP008851
date=2016.01.19 (Created 2008.10.21, modified 2011.05.06)
author=TAJIMA S, GUNMA COLLEGE OF TECHNOLOGY
license=CC BY-NC-SA
exact mass=73.08915
ionization energy=70 eV
ion type=[M]+*
computed spectral entropy=1.7745123120354935
computed normalized entropy=0.6263249874063433
SPLASH=splash10-0006-9000000000-52793056741c356b2517
submitter=submitter = University of Tokyo Team (Faculty of Engineering, University of Tokyo)
MoNA Rating=3.75

>  <NUM PEAKS>  (2185) 
17

>  <MASS SPECTRAL PEAKS>  (2185) 
15 2.44
27 5.18
28 5.24
29 3.96
30 4.65
39 2.21
41 10.06
42 6.86
43 3.81
44 99.99
45 8.38
55 2.97
56 2.44
57 2.21
58 9.15
59 1.14
72 1.75

>  <PREDICTED SPECTRUM>  (2185) 
14 26
15 114
16 20
17 33
18 86
26 55
27 255
28 294
29 223
30 351
31 107
32 1
38 15
39 130
40 82
41 288
42 346
43 248
44 999
45 281
46 53
52 85
53 26
54 122
55 71
56 243
57 81
58 278
59 73
72 132
73 35
74 9

$$$$

     RDKit          2D

  8  7  0  0  0  0  0  0  0  0999 V2000
    1.8983    1.9620    0.0000 C   0  0  0  0  0  0  0  0  0  0  0  0
   -1.2488    4.0111    0.0000 C   0  0  0  0  0  0  0  0  0  0  0  0
   -3.2978    3.4620    0.0000 C   0  0  0  0  0  0  0  0  0  0  0  0
   -0.6998    1.9620    0.0000 C   0  0  0  0  0  0  0  0  0  0  0  0
    0.5993    2.7120    0.0000 C   0  0  0  0  0  0  0  0  0  0  0  0
   -1.9988    2.7120    0.0000 C   0  0  0  0  0  0  0  0  0  0  0  0
    0.5993    4.2120    0.0000 O   0  0  0  0  0  0  0  0  0  0  0  0
   -2.7488    1.4130    0.0000 O   0  0  0  0  0  0  0  0  0  0  0  0
  5  1  1  0
  5  4  1  0
  6  2  1  0
  6  3  1  0
  6  4  1  0
  7  5  1  0
  8  6  1  0
M  END
>  <NAME>  (2186) 
2-METHYL-2,4-PENTANEDIOL

>  <SYNONYMS>  (2186) 
2,4-DIHYDROXY-2-METHYLPENTANE

>  <SPECTRUM TYPE>  (2186) 
MS1

>  <INSTRUMENT TYPE>  (2186) 
EI-B

>  <INSTRUMENT>  (2186) 
HITACHI RMU-7M

>  <ION MODE>  (2186) 
P

>  <INCHIKEY>  (2186) 
SVTBMSDMJJWYQN-UHFFFAOYSA-N

>  <FORMULA>  (2186) 
C6H14O2

>  <EXACT MASS>  (2186) 
118.099379688

>  <MW>  (2186) 
118

>  <ID>  (2186) 
JP008850

>  <CONTRIBUTOR>  (2186) 
University of Tokyo Team, {Faculty of Engineering, University of Tokyo

>  <COMMENT>  (2186) 
SMILES=CC(O)CC(C)(C)O
InChI=InChI=1S/C6H14O2/c1-5(7)4-6(2,3)8/h5,7-8H,4H2,1-3H3
computed SMILES=OC(C)CC(O)(C)C
accession=JP008850
date=2016.01.19 (Created 2008.10.21, modified 2011.05.06)
author=TAJIMA S, GUNMA COLLEGE OF TECHNOLOGY
license=CC BY-NC-SA
exact mass=118.09938
ionization energy=70 eV
ion type=[M]+*
computed spectral entropy=2.3552582503127155
computed normalized entropy=0.7619624401320677
SPLASH=splash10-0a4l-9000000000-a819b17eccffc876dbbd
submitter=submitter = University of Tokyo Team (Faculty of Engineering, University of Tokyo)
MoNA Rating=3.75

>  <NUM PEAKS>  (2186) 
22

>  <MASS SPECTRAL PEAKS>  (2186) 
15 3.17
27 4.33
28 1.67
29 5.92
31 9.67
39 4.5
40 1.58
41 17.92
42 14.17
43 64.17
44 3.92
45 17.08
55 3.08
56 27.5
57 13.17
58 3.17
59 99.99
60 4.83
61 9.58
67 1
85 9.08
103 4.42

>  <PREDICTED SPECTRUM>  (2186) 
14 21
15 63
16 0
17 1
18 6
19 14
25 13
26 50
27 136
28 70
29 126
30 10
31 250
32 5
33 36
37 15
38 31
39 184
40 71
41 325
42 230
43 552
44 130
45 287
46 48
50 1
52 0
53 76
54 16
55 143
56 140
57 179
58 47
59 999
60 187
61 134
62 17
67 99
71 24
73 24
83 16
85 248
103 197
104 21

$$$$

     RDKit          2D

  9  8  0  0  0  0  0  0  0  0999 V2000
    0.9926    2.4721    0.0000 C   0  0  0  0  0  0  0  0  0  0  0  0
   -4.2035    2.4721    0.0000 C   0  0  0  0  0  0  0  0  0  0  0  0
   -4.0469    1.5836    0.0000 C   0  0  0  0  0  0  0  0  0  0  0  0
    0.8359    1.5836    0.0000 C   0  0  0  0  0  0  0  0  0  0  0  0
   -0.3064    3.2221    0.0000 C   0  0  0  0  0  0  0  0  0  0  0  0
   -2.9045    3.2221    0.0000 O   0  0  0  0  0  0  0  0  0  0  0  0
   -2.5697    1.3231    0.0000 O   0  0  0  0  0  0  0  0  0  0  0  0
   -0.6413    1.3231    0.0000 O   0  0  0  0  0  0  0  0  0  0  0  0
   -1.6055    2.4721    0.0000 Si  0  0  0  0  0  4  0  0  0  0  0  0
  5  1  2  0
  6  2  1  0
  7  3  1  0
  8  4  1  0
  9  5  1  0
  9  6  1  0
  9  7  1  0
  9  8  1  0
M  END
>  <NAME>  (2187) 
TRIMETHOXYVINYLSILANE

>  <SYNONYMS>  (2187) 


>  <SPECTRUM TYPE>  (2187) 
MS1

>  <INSTRUMENT TYPE>  (2187) 
EI-B

>  <INSTRUMENT>  (2187) 
HITACHI RMU-7M

>  <ION MODE>  (2187) 
P

>  <INCHIKEY>  (2187) 
NKSJNEHGWDZZQF-UHFFFAOYSA-N

>  <FORMULA>  (2187) 
C5H12O3Si

>  <EXACT MASS>  (2187) 
148.055570774

>  <MW>  (2187) 
148

>  <ID>  (2187) 
JP008849

>  <CONTRIBUTOR>  (2187) 
University of Tokyo Team, {Faculty of Engineering, University of Tokyo

>  <COMMENT>  (2187) 
SMILES=C=C[Si](OC)(OC)OC
InChI=InChI=1S/C5H12O3Si/c1-5-9(6-2,7-3)8-4/h5H,1H2,2-4H3
computed SMILES=O(C)[Si](OC)(OC)C=C
accession=JP008849
date=2016.01.19 (Created 2008.10.21, modified 2011.05.06)
author=TAJIMA S, GUNMA COLLEGE OF TECHNOLOGY
license=CC BY-NC-SA
exact mass=148.05557
ionization energy=70 eV
ion type=[M]+*
computed spectral entropy=2.895496844532563
computed normalized entropy=0.790350244984003
SPLASH=splash10-00dl-6900000000-b5bf9b21021459eb629a
submitter=submitter = University of Tokyo Team (Faculty of Engineering, University of Tokyo)
MoNA Rating=3.75

>  <NUM PEAKS>  (2187) 
39

>  <MASS SPECTRAL PEAKS>  (2187) 
15 3.84
27 2.4
29 2.8
31 3.6
45 8.09
47 3.2
55 2
57 2.08
59 21.86
60 5.6
61 17.77
73 1.84
77 3.44
85 2.8
86 4
87 16.49
88 1.68
90 13.61
91 82.31
92 6.81
93 4.16
105 11.93
106 1.68
107 31.63
108 2.64
109 1.52
115 1.92
116 2.24
117 22.58
118 34.43
119 6.57
120 16.49
121 99.99
122 9.21
123 4.24
130 1.68
133 19.54
134 2.56
147 3.84

>  <PREDICTED SPECTRUM>  (2187) 
15 64
27 133
28 19
29 89
31 12
32 13
33 29
39 15
45 45
55 198
56 15
63 129
65 40
71 51
73 19
75 21
85 227
86 179
87 419
88 177
89 785
90 242
91 541
93 44
101 253
102 56
103 701
104 137
105 190
115 144
116 394
117 999
118 546
119 198
120 288
121 842
122 221
133 643
134 16
147 371
148 282

$$$$

     RDKit          2D

 14 14  0  0  0  0  0  0  0  0999 V2000
   -6.8197    3.1321    0.0000 C   0  0  0  0  0  0  0  0  0  0  0  0
   -5.5207    5.3821    0.0000 C   0  0  0  0  0  0  0  0  0  0  0  0
    3.5726    1.6321    0.0000 C   0  0  0  0  0  0  0  0  0  0  0  0
    3.5731    3.1329    0.0000 C   0  0  0  0  0  0  0  0  0  0  0  0
    2.2731    0.8813    0.0000 C   0  0  0  0  0  0  0  0  0  0  0  0
    2.2740    3.8829    0.0000 C   0  0  0  0  0  0  0  0  0  0  0  0
    0.9740    1.6313    0.0000 C   0  0  0  0  0  0  0  0  0  0  0  0
   -0.3245    3.8821    0.0000 C   0  0  0  0  0  0  0  0  0  0  0  0
   -4.2216    3.1321    0.0000 C   0  0  0  0  0  0  0  0  0  0  0  0
   -5.5207    3.8821    0.0000 C   0  0  0  0  0  0  0  0  0  0  0  0
    0.9745    3.1321    0.0000 C   0  0  0  0  0  0  0  0  0  0  0  0
   -1.6236    3.1321    0.0000 C   0  0  0  0  0  0  0  0  0  0  0  0
   -1.6236    1.6321    0.0000 O   0  0  0  0  0  0  0  0  0  0  0  0
   -2.9226    3.8821    0.0000 O   0  0  0  0  0  0  0  0  0  0  0  0
  4  3  2  0
  5  3  1  0
  6  4  1  0
  7  5  2  0
 10  1  1  0
 10  2  1  0
 10  9  1  0
 11  6  2  0
 11  7  1  0
 11  8  1  0
 12  8  1  0
 13 12  2  0
 14  9  1  0
 14 12  1  0
M  END
>  <NAME>  (2188) 
ISOBUTYL PHENYLACETATE

>  <SYNONYMS>  (2188) 
PHENYLACETIC ACID ISOBUTYL ESTER

>  <SPECTRUM TYPE>  (2188) 
MS1

>  <INSTRUMENT TYPE>  (2188) 
EI-B

>  <INSTRUMENT>  (2188) 
HITACHI RMU-7M

>  <ION MODE>  (2188) 
P

>  <INCHIKEY>  (2188) 
RJASFPFZACBKBE-UHFFFAOYSA-N

>  <FORMULA>  (2188) 
C12H16O2

>  <EXACT MASS>  (2188) 
192.115029752

>  <MW>  (2188) 
192

>  <ID>  (2188) 
JP008848

>  <CONTRIBUTOR>  (2188) 
University of Tokyo Team, {Faculty of Engineering, University of Tokyo

>  <COMMENT>  (2188) 
SMILES=CC(C)COC(=O)Cc(c1)cccc1
InChI=InChI=1S/C12H16O2/c1-10(2)9-14-12(13)8-11-6-4-3-5-7-11/h3-7,10H,8-9H2,1-2H3
computed SMILES=O=C(OCC(C)C)CC=1C=CC=CC1
accession=JP008848
date=2016.01.19 (Created 2008.10.21, modified 2011.05.06)
author=TAJIMA S, GUNMA COLLEGE OF TECHNOLOGY
license=CC BY-NC-SA
exact mass=192.11503
ionization energy=70 eV
ion type=[M]+*
computed spectral entropy=2.4736109592754927
computed normalized entropy=0.7592196641225438
SPLASH=splash10-0006-9100000000-0292ab122c6decdbfa95
submitter=submitter = University of Tokyo Team (Faculty of Engineering, University of Tokyo)
MoNA Rating=3.75

>  <NUM PEAKS>  (2188) 
26

>  <MASS SPECTRAL PEAKS>  (2188) 
27 5.27
28 2.97
29 27.67
39 10.39
41 34.87
42 1.85
43 5.12
51 3.12
55 2.23
56 6.31
57 69.14
58 3.12
62 1.04
63 3.78
65 14.61
71 2.15
89 3.56
90 3.12
91 99.99
92 30.04
93 2
119 8.09
136 32.12
137 11.13
138 1.04
192 2.82

>  <PREDICTED SPECTRUM>  (2188) 
26 46
27 186
28 57
29 306
36 20
37 6
38 51
39 257
40 101
41 477
42 152
43 324
44 130
45 4
50 58
51 125
52 70
53 47
54 11
55 178
56 224
57 737
58 170
62 59
63 198
64 124
65 395
66 78
69 3
73 44
74 50
75 89
76 24
77 47
78 69
79 32
89 218
90 315
91 999
92 514
93 116
101 39
102 19
106 1
118 149
119 185
120 61
136 495
137 218
138 86
192 300
193 88

$$$$

     RDKit          2D

  7  6  0  0  0  0  0  0  0  0999 V2000
    1.9486    2.6250    0.0000 C   0  0  0  0  0  0  0  0  0  0  0  0
   -4.5466    3.3750    0.0000 C   0  0  0  0  0  0  0  0  0  0  0  0
    0.6495    3.3750    0.0000 C   0  0  0  0  0  0  0  0  0  0  0  0
   -0.6495    2.6250    0.0000 C   0  0  0  0  0  0  0  0  0  0  0  0
   -1.9486    3.3750    0.0000 C   0  0  0  0  0  0  0  0  0  0  0  0
   -1.9486    4.8750    0.0000 O   0  0  0  0  0  0  0  0  0  0  0  0
   -3.2476    2.6250    0.0000 O   0  0  0  0  0  0  0  0  0  0  0  0
  3  1  1  0
  4  3  1  0
  5  4  1  0
  6  5  2  0
  7  2  1  0
  7  5  1  0
M  END
>  <NAME>  (2189) 
METHYL BUTYRATE

>  <SYNONYMS>  (2189) 
BUTANOIC ACID METHYL ESTER

>  <SPECTRUM TYPE>  (2189) 
MS1

>  <INSTRUMENT TYPE>  (2189) 
EI-B

>  <INSTRUMENT>  (2189) 
HITACHI RMU-7M

>  <ION MODE>  (2189) 
P

>  <INCHIKEY>  (2189) 
UUIQMZJEGPQKFD-UHFFFAOYSA-N

>  <FORMULA>  (2189) 
C5H10O2

>  <EXACT MASS>  (2189) 
102.06807956

>  <MW>  (2189) 
102

>  <ID>  (2189) 
JP008847

>  <CONTRIBUTOR>  (2189) 
University of Tokyo Team, {Faculty of Engineering, University of Tokyo

>  <COMMENT>  (2189) 
SMILES=CCCC(=O)OC
InChI=InChI=1S/C5H10O2/c1-3-4-5(6)7-2/h3-4H2,1-2H3
computed SMILES=O=C(OC)CCC
accession=JP008847
date=2016.01.19 (Created 2008.10.21, modified 2011.05.06)
author=TAJIMA S, GUNMA COLLEGE OF TECHNOLOGY
license=CC BY-NC-SA
exact mass=102.06808
ionization energy=70 eV
ion type=[M]+*
computed spectral entropy=2.488084678662877
computed normalized entropy=0.7388969678594801
SPLASH=splash10-00dl-9000000000-ba948fad382703d250d8
submitter=submitter = University of Tokyo Team (Faculty of Engineering, University of Tokyo)
MoNA Rating=3.75

>  <NUM PEAKS>  (2189) 
29

>  <MASS SPECTRAL PEAKS>  (2189) 
15 16.68
26 2.4
27 22.58
28 3.59
29 7.61
31 3.51
33 1.25
38 1.65
39 11.77
40 2
41 29.14
42 14.32
43 99.99
44 5
45 3.71
55 8.76
57 1.05
59 24.29
69 1.65
70 1.05
71 65.2
72 3
74 81.87
75 2.95
77 1
87 20.23
88 1
101 1
102 1.9

>  <PREDICTED SPECTRUM>  (2189) 
14 61
15 193
16 16
25 11
26 108
27 406
28 193
29 388
30 50
31 261
32 118
33 79
37 8
38 75
39 395
40 153
41 691
42 403
43 999
44 129
45 242
50 16
53 75
54 83
55 322
57 126
59 591
60 192
61 40
69 149
70 178
71 734
72 132
73 154
74 521
75 237
76 57
87 218
88 0
102 287
103 37

$$$$

     RDKit          2D

  7  6  0  0  0  0  0  0  0  0999 V2000
    1.6238    1.6875    0.0000 C   0  0  0  0  0  0  0  0  0  0  0  0
    0.3248    3.9375    0.0000 C   0  0  0  0  0  0  0  0  0  0  0  0
   -3.5724    1.6875    0.0000 C   0  0  0  0  0  0  0  0  0  0  0  0
   -2.2733    3.9375    0.0000 C   0  0  0  0  0  0  0  0  0  0  0  0
   -0.9743    1.6875    0.0000 O   0  0  0  0  0  0  0  0  0  0  0  0
    0.3248    2.4375    0.0000 Si  0  0  0  0  0  4  0  0  0  0  0  0
   -2.2733    2.4375    0.0000 Si  0  0  0  0  0  4  0  0  0  0  0  0
  6  1  1  0
  6  2  1  0
  6  5  1  0
  7  3  1  0
  7  4  1  0
  7  5  1  0
M  END
>  <NAME>  (2190) 
1,1,3,3-TETRAMETHYLDISILOXANE

>  <SYNONYMS>  (2190) 


>  <SPECTRUM TYPE>  (2190) 
MS1

>  <INSTRUMENT TYPE>  (2190) 
EI-B

>  <INSTRUMENT>  (2190) 
HITACHI RMU-7M

>  <ION MODE>  (2190) 
P

>  <INCHIKEY>  (2190) 
NVYQDQZEMGUESH-UHFFFAOYSA-N

>  <FORMULA>  (2190) 
C4H14OSi2

>  <EXACT MASS>  (2190) 
134.058318128

>  <MW>  (2190) 
134

>  <ID>  (2190) 
JP008846

>  <CONTRIBUTOR>  (2190) 
University of Tokyo Team, {Faculty of Engineering, University of Tokyo

>  <COMMENT>  (2190) 
SMILES=C[SiH](C)O[SiH](C)C
InChI=InChI=1S/C4H14OSi2/c1-6(2)5-7(3)4/h6-7H,1-4H3
computed SMILES=O([SiH](C)C)[SiH](C)C
accession=JP008846
date=2016.01.19 (Created 2008.10.21, modified 2011.05.06)
author=TAJIMA S, GUNMA COLLEGE OF TECHNOLOGY
license=CC BY-NC-SA
exact mass=134.05832
ionization energy=70 eV
ion type=[M]+*
computed spectral entropy=2.3862652816242993
computed normalized entropy=0.7508574143198329
SPLASH=splash10-01c0-5900000000-8346a815fe001ddf1841
submitter=submitter = University of Tokyo Team (Faculty of Engineering, University of Tokyo)
MoNA Rating=3.75

>  <NUM PEAKS>  (2190) 
24

>  <MASS SPECTRAL PEAKS>  (2190) 
31 4.95
42 1.77
43 9.34
44 3.96
45 14.72
51 4.18
52 4.25
57 1.77
59 28.31
60 2.05
66 2.41
73 43.17
74 3.54
75 3.89
87 2.41
89 2.41
103 8.7
117 4.25
119 99.99
120 13.45
121 8.49
133 67.94
134 9.55
135 5.1

>  <PREDICTED SPECTRUM>  (2190) 
15 20
28 11
29 66
31 140
32 34
33 8
41 95
43 588
44 204
45 677
46 118
47 48
53 91
54 5
55 41
56 32
57 277
58 372
59 999
60 354
61 219
63 7
67 8
69 145
71 112
72 119
73 692
74 440
75 806
76 95
77 206
78 47
87 4
88 35
89 281
90 84
91 247
101 88
103 152
115 120
117 230
118 127
119 862
120 352
121 268
122 26
132 152
133 539
134 229
135 104
136 10

$$$$

     RDKit          2D

  9  8  0  0  0  0  0  0  0  0999 V2000
    2.0490    4.0981    0.0000 C   0  0  0  0  0  0  0  0  0  0  0  0
    2.0490    1.0981    0.0000 C   0  0  0  0  0  0  0  0  0  0  0  0
    3.5490    2.5981    0.0000 C   0  0  0  0  0  0  0  0  0  0  0  0
   -1.5000    2.0490    0.0000 C   0  0  0  0  0  0  0  0  0  0  0  0
   -0.9510    0.0000    0.0000 C   0  0  0  0  0  0  0  0  0  0  0  0
    1.0981    0.5490    0.0000 C   0  0  0  0  0  0  0  0  0  0  0  0
    0.5490    2.5981    0.0000 O   0  0  0  0  0  0  0  0  0  0  0  0
    2.0490    2.5981    0.0000 Si  0  0  0  0  0  4  0  0  0  0  0  0
   -0.2010    1.2990    0.0000 Si  0  0  0  0  0  4  0  0  0  0  0  0
  8  1  1  0
  8  2  1  0
  8  3  1  0
  8  7  1  0
  9  4  1  0
  9  5  1  0
  9  6  1  0
  9  7  1  0
M  END
>  <NAME>  (2191) 
HEXAMETHYLDISILOXANE

>  <SYNONYMS>  (2191) 


>  <SPECTRUM TYPE>  (2191) 
MS1

>  <INSTRUMENT TYPE>  (2191) 
EI-B

>  <INSTRUMENT>  (2191) 
HITACHI RMU-7M

>  <ION MODE>  (2191) 
P

>  <INCHIKEY>  (2191) 
UQEAIHBTYFGYIE-UHFFFAOYSA-N

>  <FORMULA>  (2191) 
C6H18OSi2

>  <EXACT MASS>  (2191) 
162.089618256

>  <MW>  (2191) 
162

>  <ID>  (2191) 
JP008845

>  <CONTRIBUTOR>  (2191) 
University of Tokyo Team, {Faculty of Engineering, University of Tokyo

>  <COMMENT>  (2191) 
SMILES=C[Si](C)(C)O[Si](C)(C)C
InChI=InChI=1S/C6H18OSi2/c1-8(2,3)7-9(4,5)6/h1-6H3
computed SMILES=O([Si](C)(C)C)[Si](C)(C)C
accession=JP008845
date=2016.01.19 (Created 2008.10.21, modified 2011.05.06)
author=TAJIMA S, GUNMA COLLEGE OF TECHNOLOGY
license=CC BY-NC-SA
exact mass=162.08962
ionization energy=70 eV
ion type=[M]+*
computed spectral entropy=1.7621861834603623
computed normalized entropy=0.5984794373151624
SPLASH=splash10-0002-3900000000-6ab2723d315964c5ef48
submitter=submitter = University of Tokyo Team (Faculty of Engineering, University of Tokyo)
MoNA Rating=3.75

>  <NUM PEAKS>  (2191) 
19

>  <MASS SPECTRAL PEAKS>  (2191) 
43 1.97
44 1.04
45 5.57
52 3.48
59 6.03
66 10.43
66.5 1.45
73 14.49
74 1.16
75 1.28
87 1
117 1
131 4.29
132 1
133 1.16
147 99.99
148 15.48
149 7.65
150 1

>  <PREDICTED SPECTRUM>  (2191) 
14 15
15 89
18 8
27 27
28 14
29 67
31 82
32 20
38 12
39 62
41 40
42 64
43 259
44 134
45 346
46 87
47 118
48 19
49 15
51 1
53 95
54 8
55 54
56 6
57 153
58 48
59 313
60 72
61 67
63 39
65 4
66 73
67 17
69 28
70 30
71 46
72 69
73 596
74 173
75 182
76 15
77 130
78 0
86 12
89 6
92 25
101 6
103 12
115 1
117 126
118 11
119 38
120 89
131 243
132 88
133 97
147 999
148 414
149 287
150 76
151 13
162 123
163 11

$$$$

     RDKit          2D

  7  6  0  0  0  0  0  0  0  0999 V2000
   -3.8971    2.2500    0.0000 C   0  0  0  0  0  0  0  0  0  0  0  0
   -1.2990    3.7500    0.0000 C   0  0  0  0  0  0  0  0  0  0  0  0
    1.2990    2.2500    0.0000 C   0  0  0  0  0  0  0  0  0  0  0  0
   -2.5981    1.5000    0.0000 C   0  0  0  0  0  0  0  0  0  0  0  0
   -1.2990    2.2500    0.0000 C   0  0  0  0  0  0  0  0  0  0  0  0
    0.0000    1.5000    0.0000 C   0  0  0  0  0  0  0  0  0  0  0  0
   -0.0000    0.0000    0.0000 O   0  0  0  0  0  0  0  0  0  0  0  0
  4  1  1  0
  5  2  1  0
  5  4  1  0
  6  3  1  0
  6  5  1  0
  7  6  2  0
M  END
>  <NAME>  (2192) 
3-METHYL-2-PENTANONE

>  <SYNONYMS>  (2192) 


>  <SPECTRUM TYPE>  (2192) 
MS1

>  <INSTRUMENT TYPE>  (2192) 
EI-B

>  <INSTRUMENT>  (2192) 
HITACHI RMU-7M

>  <ION MODE>  (2192) 
P

>  <INCHIKEY>  (2192) 
UIHCLUNTQKBZGK-UHFFFAOYSA-N

>  <FORMULA>  (2192) 
C6H12O

>  <EXACT MASS>  (2192) 
100.088815004

>  <MW>  (2192) 
100

>  <ID>  (2192) 
JP008843

>  <CONTRIBUTOR>  (2192) 
University of Tokyo Team, {Faculty of Engineering, University of Tokyo

>  <COMMENT>  (2192) 
SMILES=CCC(C)C(C)=O
InChI=InChI=1S/C6H12O/c1-4-5(2)6(3)7/h5H,4H2,1-3H3
computed SMILES=O=C(C)C(C)CC
accession=JP008843
date=2016.01.19 (Created 2008.10.21, modified 2011.05.06)
author=TAJIMA S, GUNMA COLLEGE OF TECHNOLOGY
license=CC BY-NC-SA
exact mass=100.08882
ionization energy=70 eV
ion type=[M]+*
computed spectral entropy=2.1991795240868286
computed normalized entropy=0.7341041599414453
SPLASH=splash10-0006-9000000000-378713dba02a64b13065
submitter=submitter = University of Tokyo Team (Faculty of Engineering, University of Tokyo)
MoNA Rating=3.75

>  <NUM PEAKS>  (2192) 
20

>  <MASS SPECTRAL PEAKS>  (2192) 
15 5.52
27 8.55
28 2.27
29 29.42
31 4.07
39 5.52
41 31.34
42 2.97
43 99.99
44 2.79
45 3.49
55 3.43
56 10.93
57 32.67
58 1.4
72 20.06
73 1.05
85 3.26
100 5.58
101 1.1

>  <PREDICTED SPECTRUM>  (2192) 
14 39
15 131
16 12
18 17
25 7
26 108
27 325
28 182
29 280
31 10
32 11
37 42
38 108
39 355
40 143
41 529
42 198
43 999
44 166
45 80
50 75
51 133
52 88
53 221
54 68
55 229
56 177
57 565
58 273
59 90
65 44
67 209
68 29
69 63
71 303
72 203
73 26
74 5
83 70
85 236
86 42
99 56
100 205
101 46

$$$$

     RDKit          2D

  8  7  0  0  0  0  0  0  0  0999 V2000
    1.9486    3.3750    0.0000 C   0  0  0  0  0  0  0  0  0  0  0  0
   -5.8457    3.3750    0.0000 C   0  0  0  0  0  0  0  0  0  0  0  0
    0.6495    4.1250    0.0000 C   0  0  0  0  0  0  0  0  0  0  0  0
   -4.5466    4.1250    0.0000 C   0  0  0  0  0  0  0  0  0  0  0  0
   -0.6495    3.3750    0.0000 C   0  0  0  0  0  0  0  0  0  0  0  0
   -1.9486    4.1250    0.0000 C   0  0  0  0  0  0  0  0  0  0  0  0
   -3.2476    3.3750    0.0000 C   0  0  0  0  0  0  0  0  0  0  0  0
   -3.2476    1.8750    0.0000 O   0  0  0  0  0  0  0  0  0  0  0  0
  3  1  1  0
  4  2  1  0
  5  3  1  0
  6  5  1  0
  7  4  1  0
  7  6  1  0
  8  7  2  0
M  END
>  <NAME>  (2193) 
3-HEPTANONE

>  <SYNONYMS>  (2193) 
BUTYL ETHYL KETONE

>  <SPECTRUM TYPE>  (2193) 
MS1

>  <INSTRUMENT TYPE>  (2193) 
EI-B

>  <INSTRUMENT>  (2193) 
HITACHI RMU-7M

>  <ION MODE>  (2193) 
P

>  <INCHIKEY>  (2193) 
NGAZZOYFWWSOGK-UHFFFAOYSA-N

>  <FORMULA>  (2193) 
C7H14O

>  <EXACT MASS>  (2193) 
114.104465068

>  <MW>  (2193) 
114

>  <ID>  (2193) 
JP008842

>  <CONTRIBUTOR>  (2193) 
University of Tokyo Team, {Faculty of Engineering, University of Tokyo

>  <COMMENT>  (2193) 
SMILES=CCCCC(=O)CC
InChI=InChI=1S/C7H14O/c1-3-5-6-7(8)4-2/h3-6H2,1-2H3
computed SMILES=O=C(CC)CCCC
accession=JP008842
date=2016.01.19 (Created 2008.10.21, modified 2011.05.06)
author=TAJIMA S, GUNMA COLLEGE OF TECHNOLOGY
license=CC BY-NC-SA
exact mass=114.10447
ionization energy=70 eV
ion type=[M]+*
computed spectral entropy=2.1155970369944304
computed normalized entropy=0.7467129298373278
SPLASH=splash10-0a6r-9000000000-884a26b430e5a2b0ca43
submitter=submitter = University of Tokyo Team (Faculty of Engineering, University of Tokyo)
MoNA Rating=3.75

>  <NUM PEAKS>  (2193) 
17

>  <MASS SPECTRAL PEAKS>  (2193) 
27 11.15
28 6.24
29 45.26
39 4.38
41 18.82
42 2.28
43 10.79
55 3.24
56 1.92
57 99.99
58 3.84
72 20.68
73 1.14
85 29.2
86 1.74
114 11.03
115 3.6

>  <PREDICTED SPECTRUM>  (2193) 
14 17
15 31
26 69
27 285
28 155
29 465
30 65
31 62
38 18
39 256
40 76
41 533
42 229
43 370
44 173
45 68
50 3
51 57
53 161
54 90
55 354
56 189
57 999
58 389
59 55
67 46
69 6
71 113
72 332
73 19
85 635
86 189
87 27
114 226
115 42

$$$$

     RDKit          2D

 21 23  0  0  0  0  0  0  0  0999 V2000
   -0.3185    5.9559    0.0000 C   0  0  0  0  0  0  0  0  0  0  0  0
    4.8381    0.6104    0.0000 C   0  0  0  0  0  0  0  0  0  0  0  0
    4.5029    2.5094    0.0000 C   0  0  0  0  0  0  0  0  0  0  0  0
   -2.9500   -0.8900    0.0000 C   0  0  0  0  0  0  0  0  0  0  0  0
   -2.9500    0.6100    0.0000 C   0  0  0  0  0  0  0  0  0  0  0  0
   -1.6500   -1.6400    0.0000 C   0  0  0  0  0  0  0  0  0  0  0  0
   -1.6500    1.3600    0.0000 C   0  0  0  0  0  0  0  0  0  0  0  0
    0.1323    3.3967    0.0000 C   0  0  0  0  0  0  0  0  0  0  0  0
    0.9400   -1.6400    0.0000 C   0  0  0  0  0  0  0  0  0  0  0  0
    2.2400   -0.8900    0.0000 C   0  0  0  0  0  0  0  0  0  0  0  0
    1.0966    2.2478    0.0000 C   0  0  0  0  0  0  0  0  0  0  0  0
    2.1237    5.0683    0.0000 C   0  0  0  0  0  0  0  0  0  0  0  0
    0.9400    1.3600    0.0000 C   0  0  0  0  0  0  0  0  0  0  0  0
    0.6458    4.8069    0.0000 C   0  0  0  0  0  0  0  0  0  0  0  0
   -0.3500   -0.8900    0.0000 C   0  0  0  0  0  0  0  0  0  0  0  0
   -0.3500    0.6100    0.0000 C   0  0  0  0  0  0  0  0  0  0  0  0
    2.2400    0.6100    0.0000 C   0  0  0  0  0  0  0  0  0  0  0  0
    2.5746    2.5091    0.0000 C   0  0  0  0  0  0  0  0  0  0  0  0
    3.0881    3.9194    0.0000 C   0  0  0  0  0  0  0  0  0  0  0  0
    3.5389    1.3602    0.0000 C   0  0  0  0  0  0  0  0  0  0  0  0
    4.5653    4.1798    0.0000 O   0  0  0  0  0  0  0  0  0  0  0  0
  5  4  2  0
  6  4  1  0
  7  5  1  0
 10  9  2  0
 11  8  1  0
 14  1  1  0
 14  8  1  0
 14 12  1  0
 15  6  2  0
 15  9  1  0
 16  7  2  0
 16 13  1  0
 16 15  1  0
 17 10  1  0
 17 13  2  0
 18 11  1  0
 19 12  1  0
 19 18  1  0
 20  2  1  0
 20  3  1  0
 20 17  1  0
 20 18  1  0
 21 19  1  0
M  END
>  <NAME>  (2194) 
8-(2-NAPHTHYL)MENTHOL

>  <SYNONYMS>  (2194) 


>  <SPECTRUM TYPE>  (2194) 
MS1

>  <INSTRUMENT TYPE>  (2194) 
EI-B

>  <INSTRUMENT>  (2194) 
JEOL JMS-DX-300

>  <ION MODE>  (2194) 
P

>  <INCHIKEY>  (2194) 
AKVNKXYVBBUSEZ-UHFFFAOYSA-N

>  <FORMULA>  (2194) 
C20H26O

>  <EXACT MASS>  (2194) 
282.19836545199996

>  <MW>  (2194) 
282

>  <ID>  (2194) 
JP008841

>  <CONTRIBUTOR>  (2194) 
University of Tokyo Team, {Faculty of Engineering, University of Tokyo

>  <COMMENT>  (2194) 
SMILES=CC(C3)CC(O)C(C3)C(C)(C)c(c1)cc(c2)c(ccc2)c1
InChI=InChI=1S/C20H26O/c1-14-8-11-18(19(21)12-14)20(2,3)17-10-9-15-6-4-5-7-16(15)13-17/h4-7,9-10,13-14,18-19,21H,8,11-12H2,1-3H3
computed SMILES=OC1CC(C)CCC1C(C=2C=CC=3C=CC=CC3C2)(C)C
accession=JP008841
date=2016.01.19 (Created 2008.10.21, modified 2011.05.06)
author=HISAHIRO HAGIWARA, CHEMICAL RESEARCH INSTITUTE OF NON-AQUEOUSSOLUTIONS TOHOKU UNIV.
license=CC BY-NC-SA
exact mass=282.19837
ionization energy=70 eV
ion type=[M]+*
computed spectral entropy=2.6988763701505976
computed normalized entropy=0.7049175126783866
SPLASH=splash10-0006-9600000000-f9efbf5c7c0af8aadcaa
submitter=submitter = University of Tokyo Team (Faculty of Engineering, University of Tokyo)
MoNA Rating=3.75

>  <NUM PEAKS>  (2194) 
46

>  <MASS SPECTRAL PEAKS>  (2194) 
37 1.56
38 1.35
39 3.33
40 3.19
41 2.99
42 4.16
43 99.99
44 3.58
45 2.56
58 45.78
59 2.77
67 4.17
69 2.25
71 1.04
77 1.13
81 2.19
82 9.56
91 1.09
95 3.48
107 1.51
109 3.3
124 1.38
126 1.26
127 1.85
128 4.08
129 3.18
134 1.16
141 19.81
142 1.21
148 1.91
150 4.32
152 1.88
153 4.87
155 5.41
156 1.8
164 1.45
168 10.19
170 58.03
171 4.2
178 1.18
182 1.06
264 1.51
280 3.05
281 1.26
282 5.41
283 1.78

>  <PREDICTED SPECTRUM>  (2194) 
27 24
29 27
32 16
39 59
40 4
41 293
42 102
43 412
44 58
45 17
51 14
53 53
54 8
55 341
56 46
57 122
58 51
59 2
63 19
65 11
66 0
67 132
68 23
69 195
70 74
71 104
77 58
78 0
79 31
81 109
82 15
83 20
84 3
85 75
86 3
89 1
91 84
95 72
97 57
98 12
101 18
102 50
113 21
114 66
115 161
124 72
125 63
126 181
127 225
128 212
129 202
130 7
138 58
139 66
140 53
141 522
142 306
150 191
151 135
152 235
153 320
154 111
155 256
156 82
168 300
169 111
170 999
171 131
183 16
186 10
207 55
264 109
282 273
283 133

$$$$

     RDKit          2D

 15 16  0  0  1  0  0  0  0  0999 V2000
   -3.7989   -1.3902    0.0000 C   0  0  0  0  0  0  0  0  0  0  0  0
    1.4000    3.1100    0.0000 C   0  0  0  0  0  0  0  0  0  0  0  0
    2.6990   -3.6400    0.0000 C   0  0  0  0  0  0  0  0  0  0  0  0
   -2.5000    0.8600    0.0000 C   0  0  0  0  0  0  0  0  0  0  0  0
    2.7000    0.8600    0.0000 C   0  0  0  0  0  0  0  0  0  0  0  0
   -1.2000    1.6100    0.0000 C   0  0  0  0  0  0  0  0  0  0  0  0
    2.7000   -0.6400    0.0000 C   0  0  0  0  0  0  0  0  0  0  0  0
   -1.2000   -1.3900    0.0000 C   0  0  0  0  0  0  0  0  0  0  0  0
   -2.5000   -0.6400    0.0000 C   0  0  0  0  0  0  0  0  0  0  0  0
    1.4000    1.6100    0.0000 C   0  0  0  0  0  0  0  0  0  0  0  0
    1.4000   -2.8900    0.0000 C   0  0  0  0  0  0  0  0  0  0  0  0
    0.1000    0.8600    0.0000 C   0  0  0  0  0  0  0  0  0  0  0  0
    1.4000   -1.3900    0.0000 C   0  0  0  0  0  0  0  0  0  0  0  0
    0.1000   -0.6400    0.0000 C   0  0  0  0  0  0  0  0  0  0  0  0
    0.1010   -3.6400    0.0000 O   0  0  0  0  0  0  0  0  0  0  0  0
  6  4  1  0
  7  5  1  0
  9  1  1  0
  9  4  1  0
  9  8  2  0
 10  2  2  0
 10  5  1  0
 11  3  1  0
 12  6  1  6
 12 10  1  0
 13  7  1  0
 13 11  1  6
 14  8  1  1
 14 12  1  0
 14 13  1  0
 15 11  2  0
M  END
>  <NAME>  (2195) 
KHUSITONE

>  <SYNONYMS>  (2195) 


>  <SPECTRUM TYPE>  (2195) 
MS1

>  <INSTRUMENT TYPE>  (2195) 
EI-B

>  <INSTRUMENT>  (2195) 
JEOL JMS-DX-300

>  <ION MODE>  (2195) 
P

>  <INCHIKEY>  (2195) 
YXIJNEOZFSAIAQ-MCIONIFRSA-N

>  <FORMULA>  (2195) 
C14H20O

>  <EXACT MASS>  (2195) 
204.15141526

>  <MW>  (2195) 
204

>  <ID>  (2195) 
JP008840

>  <CONTRIBUTOR>  (2195) 
University of Tokyo Team, {Faculty of Engineering, University of Tokyo

>  <COMMENT>  (2195) 
SMILES=CC(C2)=CC([H])(C(C(C)=O)1)C([H])(C2)C(=C)CC1
InChI=InChI=1S/C14H20O/c1-9-4-6-12-10(2)5-7-13(11(3)15)14(12)8-9/h8,12-14H,2,4-7H2,1,3H3/t12-,13-,14+/m1/s1
computed SMILES=O=C(C)C1CCC(=C)C2CCC(=CC12)C
accession=JP008840
date=2016.01.19 (Created 2008.10.21, modified 2011.05.06)
author=HISAHIRO HAGIWARA, CHEMICAL RESEARCH INSTITUTE OF NON-AQUEOUSSOLUTIONS TOHOKU UNIV.
license=CC BY-NC-SA
exact mass=204.15142
ionization energy=70 eV
ion type=[M]+*
computed spectral entropy=3.315688610930584
computed normalized entropy=0.9050451258090413
SPLASH=splash10-03dl-7900000000-84e5d659ea41adde7984
submitter=submitter = University of Tokyo Team (Faculty of Engineering, University of Tokyo)
MoNA Rating=3.75

>  <NUM PEAKS>  (2195) 
39

>  <MASS SPECTRAL PEAKS>  (2195) 
39 7.47
41 16.68
43 47.35
53 6.76
55 14.62
57 9.56
65 5.93
67 8.97
69 10.67
71 10.41
77 12.64
79 15.33
81 25.87
86 5.46
91 23.61
93 15.84
95 7.21
99 17.73
105 42.36
106 6.21
107 7.11
109 5.01
117 7.11
119 22.47
121 5.38
129 5.09
131 10.76
133 10.71
134 5.46
145 9.69
147 7.13
149 15.05
159 14.92
160 6.27
161 99.99
162 15.99
167 6.18
175 12.95
204 22.19

>  <PREDICTED SPECTRUM>  (2195) 
27 47
29 52
39 167
40 27
41 403
42 25
43 746
44 30
45 48
50 8
51 191
52 88
53 312
54 51
55 363
56 27
57 103
63 49
64 17
65 209
66 89
67 294
68 40
69 213
70 10
71 82
77 490
78 128
79 541
80 130
81 358
82 52
83 84
85 10
91 623
92 177
93 410
94 127
95 201
97 34
103 149
104 61
105 560
106 111
107 288
108 108
109 80
111 17
115 136
116 68
117 239
118 83
119 467
120 143
121 237
122 108
123 46
124 7
127 21
128 110
129 154
130 72
131 242
132 50
133 355
134 154
135 120
136 17
143 188
144 100
145 247
146 122
147 181
148 73
149 73
157 3
159 351
160 79
161 999
162 319
163 1
171 42
175 154
176 85
189 94
202 3
204 490
205 148

$$$$

     RDKit          2D

 15 16  0  0  1  0  0  0  0  0999 V2000
    2.6990   -3.6400    0.0000 C   0  0  0  0  0  0  0  0  0  0  0  0
    1.4000    3.1100    0.0000 C   0  0  0  0  0  0  0  0  0  0  0  0
    1.4000   -2.8900    0.0000 C   0  0  0  0  0  0  0  0  0  0  0  0
    2.7000    0.8600    0.0000 C   0  0  0  0  0  0  0  0  0  0  0  0
   -2.5000    0.8600    0.0000 C   0  0  0  0  0  0  0  0  0  0  0  0
    2.7000   -0.6400    0.0000 C   0  0  0  0  0  0  0  0  0  0  0  0
   -1.2000    1.6100    0.0000 C   0  0  0  0  0  0  0  0  0  0  0  0
   -1.2000   -1.3900    0.0000 C   0  0  0  0  0  0  0  0  0  0  0  0
   -3.7989   -1.3902    0.0000 C   0  0  0  0  0  0  0  0  0  0  0  0
    1.4000    1.6100    0.0000 C   0  0  0  0  0  0  0  0  0  0  0  0
   -2.5000   -0.6400    0.0000 C   0  0  0  0  0  0  0  0  0  0  0  0
    1.4000   -1.3900    0.0000 C   0  0  0  0  0  0  0  0  0  0  0  0
    0.1000    0.8600    0.0000 C   0  0  0  0  0  0  0  0  0  0  0  0
    0.1000   -0.6400    0.0000 C   0  0  0  0  0  0  0  0  0  0  0  0
   -5.0981   -0.6404    0.0000 O   0  0  0  0  0  0  0  0  0  0  0  0
  3  1  2  0
  6  4  1  0
  7  5  1  0
 10  2  2  0
 10  4  1  0
 11  5  1  0
 11  8  2  0
 11  9  1  0
 12  3  1  6
 12  6  1  0
 13  7  1  6
 13 10  1  0
 14  8  1  1
 14 12  1  0
 14 13  1  0
 15  9  2  0
M  END
>  <NAME>  (2196) 
KHUSILAL

>  <SYNONYMS>  (2196) 


>  <SPECTRUM TYPE>  (2196) 
MS1

>  <INSTRUMENT TYPE>  (2196) 
EI-B

>  <INSTRUMENT>  (2196) 
JEOL JMS-DX-300

>  <ION MODE>  (2196) 
P

>  <INCHIKEY>  (2196) 
CYPSKZONDWFFBC-BFHYXJOUSA-N

>  <FORMULA>  (2196) 
C14H18O

>  <EXACT MASS>  (2196) 
202.135765196

>  <MW>  (2196) 
202

>  <ID>  (2196) 
JP008839

>  <CONTRIBUTOR>  (2196) 
University of Tokyo Team, {Faculty of Engineering, University of Tokyo

>  <COMMENT>  (2196) 
SMILES=O=CC(C2)=CC([H])(C(C=C)1)C([H])(C2)C(=C)CC1
InChI=InChI=1S/C14H18O/c1-3-12-6-4-10(2)13-7-5-11(9-15)8-14(12)13/h3,8-9,12-14H,1-2,4-7H2/t12-,13+,14+/m0/s1
computed SMILES=O=CC1=CC2C(C=C)CCC(=C)C2CC1
accession=JP008839
date=2016.01.19 (Created 2008.10.21, modified 2011.05.06)
author=HISAHIRO HAGIWARA, CHEMICAL RESEARCH INSTITUTE OF NON-AQUEOUSSOLUTIONS TOHOKU UNIV.
license=CC BY-NC-SA
exact mass=202.13577
ionization energy=70 eV
ion type=[M]+*
computed spectral entropy=3.7330341933108797
computed normalized entropy=0.9155119345109304
SPLASH=splash10-00nf-8900000000-d003875f2762a0f1c0c2
submitter=submitter = University of Tokyo Team (Faculty of Engineering, University of Tokyo)
MoNA Rating=3.75

>  <NUM PEAKS>  (2196) 
59

>  <MASS SPECTRAL PEAKS>  (2196) 
39 46.9
41 54.93
51 20.38
52 9.72
53 26.6
54 13.24
55 16.57
63 0.86
65 26.72
66 7.94
67 26.98
71 6.71
77 59.9
78 21.03
79 76.75
80 15.56
81 16.5
91 99.99
92 22.46
93 22.32
94 5.94
103 12
104 8.52
105 46.97
106 9.51
107 29.26
115 19.54
116 8.05
117 44.92
118 9.23
119 39.17
120 12.23
121 5.9
128 13.65
129 17.11
130 9.41
131 35.7
132 61.13
133 33.9
134 11.94
141 5.64
143 9.49
144 5.1
145 13.87
146 7.04
148 8.02
155 6
156 8.95
157 5.94
159 31.42
160 7.16
169 12.21
171 6.22
173 12.04
174 7.47
177 20.57
184 7.85
202 28.26
203 1.37

>  <PREDICTED SPECTRUM>  (2196) 
27 69
39 296
40 46
41 343
43 81
50 92
51 286
52 169
53 300
54 81
55 285
62 7
63 159
64 64
65 360
66 228
67 371
68 67
69 19
71 45
74 5
75 39
76 56
77 644
78 412
79 763
80 217
81 367
82 58
83 82
84 2
89 64
90 18
91 999
92 453
93 440
94 245
95 129
96 14
102 109
103 323
104 344
105 678
106 318
107 241
108 117
109 61
115 470
116 246
117 644
118 299
119 500
120 327
121 68
122 174
124 36
127 120
128 331
129 447
130 270
131 738
132 444
133 452
134 221
135 95
141 286
142 170
143 254
144 145
145 443
146 258
147 131
148 176
153 69
154 33
155 159
156 164
157 250
158 152
159 437
160 194
161 59
169 227
170 26
171 115
172 28
173 578
174 373
175 125
184 113
187 142
202 603
203 165

$$$$

     RDKit          2D

 17 18  0  0  0  0  0  0  0  0999 V2000
   -9.0951    1.2510    0.0000 C   0  0  0  0  0  0  0  0  0  0  0  0
   -7.7964   -0.9992    0.0000 C   0  0  0  0  0  0  0  0  0  0  0  0
   -1.3000   -1.7500    0.0000 C   0  0  0  0  0  0  0  0  0  0  0  0
    1.3000   -1.7500    0.0000 C   0  0  0  0  0  0  0  0  0  0  0  0
   -2.6000   -1.0000    0.0000 C   0  0  0  0  0  0  0  0  0  0  0  0
    2.6000   -1.0000    0.0000 C   0  0  0  0  0  0  0  0  0  0  0  0
   -6.4970    1.2506    0.0000 C   0  0  0  0  0  0  0  0  0  0  0  0
   -5.1981    0.5004    0.0000 C   0  0  0  0  0  0  0  0  0  0  0  0
   -1.3000    1.2500    0.0000 C   0  0  0  0  0  0  0  0  0  0  0  0
   -7.7962    0.5008    0.0000 C   0  0  0  0  0  0  0  0  0  0  0  0
    0.0000   -1.0000    0.0000 C   0  0  0  0  0  0  0  0  0  0  0  0
   -2.6000    0.5000    0.0000 C   0  0  0  0  0  0  0  0  0  0  0  0
    0.0000    0.5000    0.0000 C   0  0  0  0  0  0  0  0  0  0  0  0
    2.6000    0.5000    0.0000 C   0  0  0  0  0  0  0  0  0  0  0  0
    3.8989    1.2502    0.0000 O   0  0  0  0  0  0  0  0  0  0  0  0
   -3.8989    1.2502    0.0000 O   0  0  0  0  0  0  0  0  0  0  0  0
    1.3000    1.2500    0.0000 O   0  0  0  0  0  0  0  0  0  0  0  0
  5  3  2  0
  6  4  2  0
  8  7  1  0
 10  1  1  0
 10  2  1  0
 10  7  2  0
 11  3  1  0
 11  4  1  0
 12  5  1  0
 12  9  2  0
 13  9  1  0
 13 11  2  0
 14  6  1  0
 15 14  2  0
 16  8  1  0
 16 12  1  0
 17 13  1  0
 17 14  1  0
M  END
>  <NAME>  (2197) 
7-(3-METHYL-2-BUTENYLOXY)COUMARIN

>  <SYNONYMS>  (2197) 


>  <SPECTRUM TYPE>  (2197) 
MS1

>  <INSTRUMENT TYPE>  (2197) 
EI-B

>  <INSTRUMENT>  (2197) 
JEOL JMS-DX-300

>  <ION MODE>  (2197) 
P

>  <INCHIKEY>  (2197) 
SMHJTSOVVRGDEO-UHFFFAOYSA-N

>  <FORMULA>  (2197) 
C14H14O3

>  <EXACT MASS>  (2197) 
230.09429430799997

>  <MW>  (2197) 
230

>  <ID>  (2197) 
JP008838

>  <CONTRIBUTOR>  (2197) 
University of Tokyo Team, {Faculty of Engineering, University of Tokyo

>  <COMMENT>  (2197) 
SMILES=CC(C)=CCOc(c1)cc(O2)c(C=CC(=O)2)c1
InChI=InChI=1S/C14H14O3/c1-10(2)7-8-16-12-5-3-11-4-6-14(15)17-13(11)9-12/h3-7,9H,8H2,1-2H3
computed SMILES=O=C1OC=2C=C(OCC=C(C)C)C=CC2C=C1
accession=JP008838
date=2016.01.19 (Created 2008.10.21, modified 2011.05.06)
author=HISAHIRO HAGIWARA, CHEMICAL RESEARCH INSTITUTE OF NON-AQUEOUSSOLUTIONS TOHOKU UNIV.
license=CC BY-NC-SA
exact mass=230.09429
ionization energy=70 eV
ion type=[M]+*
computed spectral entropy=2.8392651292781657
computed normalized entropy=0.7863001037315224
SPLASH=splash10-02t9-9500000000-6962d0cb1e7a78d48dfe
submitter=submitter = University of Tokyo Team (Faculty of Engineering, University of Tokyo)
MoNA Rating=3.75

>  <NUM PEAKS>  (2197) 
37

>  <MASS SPECTRAL PEAKS>  (2197) 
38 4.82
39 27.06
41 68.91
42 0.83
44 2.11
50 6.52
51 13.7
52 5.03
53 30.2
54 2.36
55 1.99
62 2.81
63 7.47
64 2.75
65 6.08
66 2.28
67 43.13
68 33.74
69 62.47
70 3.37
77 8.71
78 9.12
79 2.13
89 3.85
105 10.55
106 3.21
133 3.46
134 55.13
135 4.49
155 3.04
161 2.05
162 99.99
163 10.7
164 2.32
175 2.71
213 3.62
230 5.34

>  <PREDICTED SPECTRUM>  (2197) 
38 16
39 198
41 587
43 14
49 20
50 63
51 130
52 65
53 265
54 44
55 3
62 107
63 223
64 116
65 63
67 157
68 92
69 846
70 44
76 68
77 243
78 112
79 148
81 23
89 30
90 13
91 87
92 38
93 3
105 186
106 116
107 38
117 34
119 72
120 45
133 267
134 313
135 100
145 11
146 3
147 65
148 80
161 104
162 999
163 189
187 54
189 35
230 333
231 121

$$$$

     RDKit          2D

 19 20  0  0  0  0  0  0  0  0999 V2000
   11.7031    0.7269    0.0000 C   0  0  0  0  0  0  0  0  0  0  0  0
   -3.9180    0.7286    0.0000 C   0  0  0  0  0  0  0  0  0  0  0  0
    6.4851    0.7054    0.0000 C   0  0  0  0  0  0  0  0  0  0  0  0
    7.7551   -1.5446    0.0000 C   0  0  0  0  0  0  0  0  0  0  0  0
   -0.0100   -1.5190    0.0000 C   0  0  0  0  0  0  0  0  0  0  0  0
    1.3036    0.7059    0.0000 C   0  0  0  0  0  0  0  0  0  0  0  0
    7.7551    1.4554    0.0000 C   0  0  0  0  0  0  0  0  0  0  0  0
    9.1051   -0.7946    0.0000 C   0  0  0  0  0  0  0  0  0  0  0  0
   -1.2945   -0.7941    0.0000 C   0  0  0  0  0  0  0  0  0  0  0  0
   -0.0210    1.5000    0.0000 C   0  0  0  0  0  0  0  0  0  0  0  0
    5.1824   -1.5382    0.0000 C   0  0  0  0  0  0  0  0  0  0  0  0
    2.5844   -1.5254    0.0000 C   0  0  0  0  0  0  0  0  0  0  0  0
    6.4851   -0.7946    0.0000 C   0  0  0  0  0  0  0  0  0  0  0  0
    1.2890   -0.7690    0.0000 C   0  0  0  0  0  0  0  0  0  0  0  0
    9.1051    0.7054    0.0000 C   0  0  0  0  0  0  0  0  0  0  0  0
   -1.3200    0.7500    0.0000 C   0  0  0  0  0  0  0  0  0  0  0  0
   10.3979    1.4661    0.0000 O   0  0  0  0  0  0  0  0  0  0  0  0
   -2.6252    1.4893    0.0000 O   0  0  0  0  0  0  0  0  0  0  0  0
    3.8871   -0.7818    0.0000 O   0  0  0  0  0  0  0  0  0  0  0  0
  7  3  2  0
  8  4  1  0
  9  5  2  0
 10  6  1  0
 13  3  1  0
 13  4  2  0
 13 11  1  0
 14  5  1  0
 14  6  2  0
 14 12  1  0
 15  7  1  0
 15  8  2  0
 16  9  1  0
 16 10  2  0
 17  1  1  0
 17 15  1  0
 18  2  1  0
 18 16  1  0
 19 11  1  0
 19 12  1  0
M  END
>  <NAME>  (2198) 
BIS(4-METHOXYBENZYL) ETHER

>  <SYNONYMS>  (2198) 


>  <SPECTRUM TYPE>  (2198) 
MS1

>  <INSTRUMENT TYPE>  (2198) 
EI-B

>  <INSTRUMENT>  (2198) 
JEOL JMS-DX-300

>  <ION MODE>  (2198) 
P

>  <INCHIKEY>  (2198) 
SDTORDSXCYSNTD-UHFFFAOYSA-N

>  <FORMULA>  (2198) 
C16H18O3

>  <EXACT MASS>  (2198) 
258.125594436

>  <MW>  (2198) 
258

>  <ID>  (2198) 
JP008837

>  <CONTRIBUTOR>  (2198) 
University of Tokyo Team, {Faculty of Engineering, University of Tokyo

>  <COMMENT>  (2198) 
SMILES=COc(c1)ccc(COCc(c2)ccc(OC)c2)c1
InChI=InChI=1S/C16H18O3/c1-17-15-7-3-13(4-8-15)11-19-12-14-5-9-16(18-2)10-6-14/h3-10H,11-12H2,1-2H3
computed SMILES=O(C1=CC=C(C=C1)COCC2=CC=C(OC)C=C2)C
accession=JP008837
date=2016.01.19 (Created 2008.10.21, modified 2011.05.06)
author=HISAHIRO HAGIWARA, CHEMICAL RESEARCH INSTITUTE OF NON-AQUEOUSSOLUTIONS TOHOKU UNIV.
license=CC BY-NC-SA
exact mass=258.12559
ionization energy=70 eV
ion type=[M]+*
computed spectral entropy=3.4811774436818825
computed normalized entropy=0.8370462390757285
SPLASH=splash10-0a6u-1690000000-c9509a0cc0e7f1846c26
submitter=submitter = University of Tokyo Team (Faculty of Engineering, University of Tokyo)
MoNA Rating=3.75

>  <NUM PEAKS>  (2198) 
64

>  <MASS SPECTRAL PEAKS>  (2198) 
41 5.98
55 2.16
65 4.25
76 5.32
77 8.14
78 3.87
79 2.31
82 2.38
90 3.3
91 21.69
98 2.93
99 2.16
113 4.09
115 6.16
119 4.58
121 48.61
122 5.06
127 2.99
128 3.04
133 8.58
135 13.86
139 4.25
141 3.63
148 4.51
149 3.48
151 3.1
152 11.88
153 10.58
154 2.53
155 2.22
165 14.61
166 5.08
167 3.61
168 2.13
169 3.17
170 2.82
178 2.71
179 2.73
180 3.96
181 7.99
183 3.92
185 4.86
193 2.24
194 4.97
195 14.52
196 4.62
197 5.76
205 2.24
209 12.23
210 6
211 5.02
212 0.44
213 2.16
225 30.66
226 10.43
227 42.46
228 9.86
239 2.29
241 50.73
242 10.78
243 2.05
256 99.99
257 18.61
258 2.07

>  <PREDICTED SPECTRUM>  (2198) 
14 5
15 15
16 3
17 7
18 9
26 22
27 41
28 40
29 55
30 48
31 14
37 9
38 55
39 130
40 41
41 20
42 18
43 1
44 4
50 87
51 159
52 139
53 47
62 21
63 81
64 106
65 139
66 85
75 18
76 38
77 319
78 330
79 67
80 1
89 130
90 141
91 178
92 116
93 84
94 93
95 7
103 9
104 48
105 83
106 199
107 183
108 99
109 68
110 11
119 57
120 179
121 999
122 444
123 131
134 35
135 137
136 1
137 417
138 204
139 77
140 15
149 117
150 179
151 113
152 181
193 15
240 9
258 210
259 107
260 10

$$$$

     RDKit          2D

 35 38  0  0  0  0  0  0  0  0999 V2000
   -4.5819    0.6569    0.0000 C   0  0  0  0  0  0  0  0  0  0  0  0
    6.5917   -3.5976    0.0000 C   0  0  0  0  0  0  0  0  0  0  0  0
    5.6634   10.6787    0.0000 C   0  0  0  0  0  0  0  0  0  0  0  0
   10.8670    1.6452    0.0000 C   0  0  0  0  0  0  0  0  0  0  0  0
    0.5605   -0.2281    0.0000 C   0  0  0  0  0  0  0  0  0  0  0  0
   -0.2995    2.2082    0.0000 C   0  0  0  0  0  0  0  0  0  0  0  0
    4.7869    1.2984    0.0000 C   0  0  0  0  0  0  0  0  0  0  0  0
    3.1069   -0.6646    0.0000 C   0  0  0  0  0  0  0  0  0  0  0  0
    3.0730    6.1491    0.0000 C   0  0  0  0  0  0  0  0  0  0  0  0
    5.6566    6.1240    0.0000 C   0  0  0  0  0  0  0  0  0  0  0  0
    6.9590    3.8927    0.0000 C   0  0  0  0  0  0  0  0  0  0  0  0
    5.6455    1.6679    0.0000 C   0  0  0  0  0  0  0  0  0  0  0  0
   -0.8204   -0.7462    0.0000 C   0  0  0  0  0  0  0  0  0  0  0  0
   -1.7592    1.7040    0.0000 C   0  0  0  0  0  0  0  0  0  0  0  0
    5.9260    0.3615    0.0000 C   0  0  0  0  0  0  0  0  0  0  0  0
    4.2734   -1.6766    0.0000 C   0  0  0  0  0  0  0  0  0  0  0  0
    3.0585    7.6240    0.0000 C   0  0  0  0  0  0  0  0  0  0  0  0
    5.6820    7.6681    0.0000 C   0  0  0  0  0  0  0  0  0  0  0  0
    8.2436    3.1679    0.0000 C   0  0  0  0  0  0  0  0  0  0  0  0
    6.9700    0.8738    0.0000 C   0  0  0  0  0  0  0  0  0  0  0  0
    0.8210    1.2491    0.0000 C   0  0  0  0  0  0  0  0  0  0  0  0
    3.3773    0.7854    0.0000 C   0  0  0  0  0  0  0  0  0  0  0  0
    4.3720    5.3991    0.0000 C   0  0  0  0  0  0  0  0  0  0  0  0
    5.6600    3.1427    0.0000 C   0  0  0  0  0  0  0  0  0  0  0  0
   -2.0197    0.2268    0.0000 C   0  0  0  0  0  0  0  0  0  0  0  0
    5.6830   -1.1636    0.0000 C   0  0  0  0  0  0  0  0  0  0  0  0
    4.3830    8.4181    0.0000 C   0  0  0  0  0  0  0  0  0  0  0  0
    8.2690    1.6238    0.0000 C   0  0  0  0  0  0  0  0  0  0  0  0
    2.2330    1.7552    0.0000 C   0  0  0  0  0  0  0  0  0  0  0  0
    4.3647    3.8991    0.0000 C   0  0  0  0  0  0  0  0  0  0  0  0
   -3.4250   -0.2978    0.0000 O   0  0  0  0  0  0  0  0  0  0  0  0
    6.8399   -2.1183    0.0000 O   0  0  0  0  0  0  0  0  0  0  0  0
    4.3706    9.9180    0.0000 O   0  0  0  0  0  0  0  0  0  0  0  0
    9.5742    0.8845    0.0000 O   0  0  0  0  0  0  0  0  0  0  0  0
    2.5008    3.2311    0.0000 O   0  0  0  0  0  0  0  0  0  0  0  0
 13  5  2  0
 14  6  1  0
 15  7  2  0
 16  8  1  0
 17  9  2  0
 18 10  1  0
 19 11  2  0
 20 12  1  0
 21  5  1  0
 21  6  2  0
 22  7  1  0
 22  8  2  0
 23  9  1  0
 23 10  2  0
 24 11  1  0
 24 12  2  0
 25 13  1  0
 25 14  2  0
 26 15  1  0
 26 16  2  0
 27 17  1  0
 27 18  2  0
 28 19  1  0
 28 20  2  0
 29 21  1  0
 29 22  1  0
 30 23  1  0
 30 24  1  0
 31  1  1  0
 31 25  1  0
 32  2  1  0
 32 26  1  0
 33  3  1  0
 33 27  1  0
 34  4  1  0
 34 28  1  0
 35 29  1  0
 35 30  1  0
M  END
>  <NAME>  (2199) 
BIS(DI-4-METHOXYPHENYLMETHYL) ETHER

>  <SYNONYMS>  (2199) 


>  <SPECTRUM TYPE>  (2199) 
MS1

>  <INSTRUMENT TYPE>  (2199) 
EI-B

>  <INSTRUMENT>  (2199) 
JEOL JMS-DX-300

>  <ION MODE>  (2199) 
P

>  <INCHIKEY>  (2199) 
JDGODNFIWJDHSS-UHFFFAOYSA-N

>  <FORMULA>  (2199) 
C30H30O5

>  <EXACT MASS>  (2199) 
470.20932406

>  <MW>  (2199) 
470

>  <ID>  (2199) 
JP008836

>  <CONTRIBUTOR>  (2199) 
University of Tokyo Team, {Faculty of Engineering, University of Tokyo

>  <COMMENT>  (2199) 
SMILES=c(c1)c(ccc(C(c(c4)ccc(c4)OC)OC(c(c3)ccc(c3)OC)c(c2)ccc(c2)OC)1)OC
InChI=InChI=1S/C30H30O5/c1-31-25-13-5-21(6-14-25)29(22-7-15-26(32-2)16-8-22)35-30(23-9-17-27(33-3)18-10-23)24-11-19-28(34-4)20-12-24/h5-20,29-30H,1-4H3
computed SMILES=O(C1=CC=C(C=C1)C(OC(C2=CC=C(OC)C=C2)C3=CC=C(OC)C=C3)C4=CC=C(OC)C=C4)C
accession=JP008836
date=2016.01.19 (Created 2008.10.21, modified 2011.05.06)
author=HISAHIRO HAGIWARA, CHEMICAL RESEARCH INSTITUTE OF NON-AQUEOUSSOLUTIONS TOHOKU UNIV.
license=CC BY-NC-SA
exact mass=470.20932
ionization energy=70 eV
ion type=[M]+*
computed spectral entropy=2.3996497938496026
computed normalized entropy=0.6645539588277078
SPLASH=splash10-004i-0190000000-48cc0361659f87399f8b
submitter=submitter = University of Tokyo Team (Faculty of Engineering, University of Tokyo)
MoNA Rating=3.75

>  <NUM PEAKS>  (2199) 
37

>  <MASS SPECTRAL PEAKS>  (2199) 
64 0.94
77 3.84
91 0.94
92 2.18
107 1.44
108 0.89
115 1.71
121 2.18
135 9.26
136 1.29
141 2.82
152 1.45
153 1.94
165 0.93
168 0.79
169 3.74
181 1.08
183 1.39
184 2.6
195 0.11
196 1.48
197 7.05
198 1.57
211 1.77
212 5.75
213 2.1
226 6.22
227 99.99
228 38.77
229 6.2
242 1.97
243 33.49
244 6.74
245 0.85
362 6.18
363 1.61
470 0.88

>  <PREDICTED SPECTRUM>  (2199) 
15 35
28 16
41 2
63 27
64 35
77 92
78 33
79 61
91 99
92 40
107 62
108 21
113 84
114 0
115 115
116 10
119 15
120 16
121 65
122 15
126 7
127 27
128 53
133 59
135 385
139 75
141 194
151 7
152 193
153 86
164 10
165 3
167 26
168 52
169 121
182 2
183 81
184 70
185 75
194 8
196 78
197 81
198 69
199 4
200 13
201 8
212 131
213 55
226 325
227 999
228 585
229 171
230 61
241 27
242 31
243 599
244 199
245 37
269 17
270 42
271 65
272 44
287 15
291 0
302 35
303 96
304 83
318 30
319 66
320 126
325 18
351 50
362 204
363 112
364 54
438 10
440 1
470 57
472 29

$$$$

     RDKit          2D

 21 22  0  0  0  0  0  0  0  0999 V2000
    3.8980    0.7372    0.0000 C   0  0  0  0  0  0  0  0  0  0  0  0
    3.9202    5.2372    0.0000 C   0  0  0  0  0  0  0  0  0  0  0  0
   -3.9180   -0.7714    0.0000 C   0  0  0  0  0  0  0  0  0  0  0  0
   10.4152    1.4832    0.0000 C   0  0  0  0  0  0  0  0  0  0  0  0
    1.3000   -0.7500    0.0000 C   0  0  0  0  0  0  0  0  0  0  0  0
    0.0300    1.5000    0.0000 C   0  0  0  0  0  0  0  0  0  0  0  0
    6.5072    3.7308    0.0000 C   0  0  0  0  0  0  0  0  0  0  0  0
    5.1936    1.5059    0.0000 C   0  0  0  0  0  0  0  0  0  0  0  0
    0.0300   -1.5000    0.0000 C   0  0  0  0  0  0  0  0  0  0  0  0
   -1.3200    0.7500    0.0000 C   0  0  0  0  0  0  0  0  0  0  0  0
    7.7917    3.0059    0.0000 C   0  0  0  0  0  0  0  0  0  0  0  0
    6.5181    0.7118    0.0000 C   0  0  0  0  0  0  0  0  0  0  0  0
    2.6027    1.4936    0.0000 C   0  0  0  0  0  0  0  0  0  0  0  0
    3.9128    3.7372    0.0000 C   0  0  0  0  0  0  0  0  0  0  0  0
    1.3000    0.7500    0.0000 C   0  0  0  0  0  0  0  0  0  0  0  0
    5.2081    2.9808    0.0000 C   0  0  0  0  0  0  0  0  0  0  0  0
   -1.3200   -0.7500    0.0000 C   0  0  0  0  0  0  0  0  0  0  0  0
    7.8172    1.4618    0.0000 C   0  0  0  0  0  0  0  0  0  0  0  0
   -2.6128   -1.5107    0.0000 O   0  0  0  0  0  0  0  0  0  0  0  0
    9.1224    0.7225    0.0000 O   0  0  0  0  0  0  0  0  0  0  0  0
    2.6101    2.9936    0.0000 O   0  0  0  0  0  0  0  0  0  0  0  0
  9  5  2  0
 10  6  1  0
 11  7  2  0
 12  8  1  0
 13  1  1  0
 14  2  1  0
 15  5  1  0
 15  6  2  0
 15 13  1  0
 16  7  1  0
 16  8  2  0
 16 14  1  0
 17  9  1  0
 17 10  2  0
 18 11  1  0
 18 12  2  0
 19  3  1  0
 19 17  1  0
 20  4  1  0
 20 18  1  0
 21 13  1  0
 21 14  1  0
M  END
>  <NAME>  (2200) 
BIS(1-(4-METHOXYPHENYL)ETHYL) ETHER

>  <SYNONYMS>  (2200) 


>  <SPECTRUM TYPE>  (2200) 
MS1

>  <INSTRUMENT TYPE>  (2200) 
EI-B

>  <INSTRUMENT>  (2200) 
JEOL JMS-DX-300

>  <ION MODE>  (2200) 
P

>  <INCHIKEY>  (2200) 
ADAKWJDMGHHKIK-UHFFFAOYSA-N

>  <FORMULA>  (2200) 
C18H22O3

>  <EXACT MASS>  (2200) 
286.15689456399997

>  <MW>  (2200) 
286

>  <ID>  (2200) 
JP008835

>  <CONTRIBUTOR>  (2200) 
University of Tokyo Team, {Faculty of Engineering, University of Tokyo

>  <COMMENT>  (2200) 
SMILES=COc(c2)ccc(c2)C(C)OC(C)c(c1)ccc(OC)c1
InChI=InChI=1S/C18H22O3/c1-13(15-5-9-17(19-3)10-6-15)21-14(2)16-7-11-18(20-4)12-8-16/h5-14H,1-4H3
computed SMILES=O(C1=CC=C(C=C1)C(OC(C2=CC=C(OC)C=C2)C)C)C
license=CC BY-NC-SA
accession=JP008835
date=2016.01.19 (Created 2008.10.21, modified 2011.05.06)
author=HISAHIRO HAGIWARA, CHEMICAL RESEARCH INSTITUTE OF NON-AQUEOUSSOLUTIONS TOHOKU UNIV.
exact mass=286.15689
ionization energy=70 eV
ion type=[M]+*
computed spectral entropy=2.74209235834808
computed normalized entropy=0.8416240361046049
SPLASH=splash10-0019-3900000000-6f40881cde6ead765a8a
submitter=submitter = University of Tokyo Team (Faculty of Engineering, University of Tokyo)
MoNA Rating=3.75

>  <NUM PEAKS>  (2200) 
26

>  <MASS SPECTRAL PEAKS>  (2200) 
39 8.02
43 9.33
51 6.19
63 5.78
65 15.77
77 15.98
78 5.39
79 7.94
89 5.35
91 28.37
92 5.76
94 7.87
103 7.2
105 10.2
109 13.1
119 43.15
120 6.74
121 10.75
134 82.24
135 99.99
136 24.88
137 25.37
151 5.18
152 9.05
178 7.77
286 4.46

>  <PREDICTED SPECTRUM>  (2200) 
15 24
18 1
26 7
27 59
28 40
29 55
38 44
39 129
40 53
41 106
42 36
43 3
44 20
45 52
50 87
51 130
52 91
53 62
62 36
63 130
64 109
65 180
66 102
67 8
75 66
76 116
77 308
78 198
79 155
80 18
81 30
82 35
83 19
89 123
90 58
91 254
92 189
93 76
94 77
95 47
96 6
102 38
103 214
104 104
105 208
106 70
107 75
108 92
109 188
110 21
119 311
120 153
121 111
122 41
123 77
124 5
134 955
135 999
136 546
137 398
138 24
139 41
150 44
151 174
152 186
153 72
167 11
286 183
287 54
288 8

$$$$

     RDKit          2D

 11 11  0  0  0  0  0  0  0  0999 V2000
   -2.6300   -1.5107    0.0000 C   0  0  0  0  0  0  0  0  0  0  0  0
    3.8980    2.2543    0.0000 C   0  0  0  0  0  0  0  0  0  0  0  0
   -1.3199    2.2329    0.0000 C   0  0  0  0  0  0  0  0  0  0  0  0
   -0.0499   -0.0171    0.0000 C   0  0  0  0  0  0  0  0  0  0  0  0
   -0.0499    2.9829    0.0000 C   0  0  0  0  0  0  0  0  0  0  0  0
    1.3001    0.7329    0.0000 C   0  0  0  0  0  0  0  0  0  0  0  0
   -2.6227   -0.0107    0.0000 C   0  0  0  0  0  0  0  0  0  0  0  0
   -1.3199    0.7329    0.0000 C   0  0  0  0  0  0  0  0  0  0  0  0
    1.3001    2.2329    0.0000 C   0  0  0  0  0  0  0  0  0  0  0  0
   -3.9180    0.7457    0.0000 Cl  0  0  0  0  0  0  0  0  0  0  0  0
    2.5929    2.9936    0.0000 O   0  0  0  0  0  0  0  0  0  0  0  0
  5  3  2  0
  6  4  1  0
  7  1  1  0
  8  3  1  0
  8  4  2  0
  8  7  1  0
  9  5  1  0
  9  6  2  0
 10  7  1  0
 11  2  1  0
 11  9  1  0
M  END
>  <NAME>  (2201) 
1-CHLORO-1-(4-METHOXYPHENYL)ETHANE

>  <SYNONYMS>  (2201) 


>  <SPECTRUM TYPE>  (2201) 
MS1

>  <INSTRUMENT TYPE>  (2201) 
EI-B

>  <INSTRUMENT>  (2201) 
JEOL JMS-DX-300

>  <ION MODE>  (2201) 
P

>  <INCHIKEY>  (2201) 
ZVBHVYBULNCPQB-UHFFFAOYSA-N

>  <FORMULA>  (2201) 
C9H11ClO

>  <EXACT MASS>  (2201) 
170.049842652

>  <MW>  (2201) 
170

>  <ID>  (2201) 
JP008834

>  <CONTRIBUTOR>  (2201) 
University of Tokyo Team, {Faculty of Engineering, University of Tokyo

>  <COMMENT>  (2201) 
SMILES=COc(c1)ccc(c1)C(C)Cl
InChI=InChI=1S/C9H11ClO/c1-7(10)8-3-5-9(11-2)6-4-8/h3-7H,1-2H3
computed SMILES=ClC(C1=CC=C(OC)C=C1)C
accession=JP008834
date=2016.01.19 (Created 2008.10.21, modified 2011.05.06)
author=HISAHIRO HAGIWARA, CHEMICAL RESEARCH INSTITUTE OF NON-AQUEOUSSOLUTIONS TOHOKU UNIV.
license=CC BY-NC-SA
exact mass=170.04984
ionization energy=70 eV
ion type=[M]+*
computed spectral entropy=3.0089147628403166
computed normalized entropy=0.8050242718408714
SPLASH=splash10-000i-5900000000-62a9627913b1e5148e5d
submitter=submitter = University of Tokyo Team (Faculty of Engineering, University of Tokyo)
MoNA Rating=3.75

>  <NUM PEAKS>  (2201) 
42

>  <MASS SPECTRAL PEAKS>  (2201) 
36 11.3
38 4.28
39 10.58
41 0.26
43 2.24
50 3.91
51 7.83
52 1.91
53 1.68
62 2.46
63 7.46
64 3.21
65 14.42
66 1.95
67 1.59
68 2.08
75 1.78
77 11.76
78 3.13
79 8.33
89 4.01
90 1.89
91 26.97
92 5.39
94 1.57
102 1.82
103 10.79
104 2.87
105 18.19
106 1.82
109 3
119 19.76
120 7.51
134 40.21
135 99.99
136 11.96
137 6.47
155 3.41
165 4.01
170 14.25
171 1.59
172 4.8

>  <PREDICTED SPECTRUM>  (2201) 
14 28
15 138
25 1
26 97
27 95
28 67
29 51
32 14
35 14
36 60
37 58
38 145
39 237
40 35
41 149
43 93
49 2
50 260
51 418
52 181
53 69
57 116
62 109
63 299
64 221
65 275
66 46
74 89
75 149
76 194
77 461
78 281
79 111
85 14
89 50
90 0
91 530
92 275
93 161
94 54
101 10
102 126
103 289
104 93
105 187
106 3
115 51
117 54
118 89
119 400
120 445
121 63
127 237
128 79
129 217
130 91
133 103
134 158
135 999
136 337
155 440
156 104
157 228
158 19
170 609
171 158
172 369
173 92

$$$$

     RDKit          2D

 19 20  0  0  0  0  0  0  0  0999 V2000
   -5.8541   -2.6319    0.0000 C   0  0  0  0  0  0  0  0  0  0  0  0
    7.1415   -7.1254    0.0000 C   0  0  0  0  0  0  0  0  0  0  0  0
   -1.9525   -4.8698    0.0000 C   0  0  0  0  0  0  0  0  0  0  0  0
    7.1287   -2.6276    0.0000 C   0  0  0  0  0  0  0  0  0  0  0  0
   -0.6579   -4.1276    0.0000 C   0  0  0  0  0  0  0  0  0  0  0  0
    5.8387   -1.8776    0.0000 C   0  0  0  0  0  0  0  0  0  0  0  0
   -3.2515   -4.1198    0.0000 C   0  0  0  0  0  0  0  0  0  0  0  0
    7.1287   -4.1276    0.0000 C   0  0  0  0  0  0  0  0  0  0  0  0
   -1.9565   -1.8767    0.0000 C   0  0  0  0  0  0  0  0  0  0  0  0
    4.5387   -4.1276    0.0000 C   0  0  0  0  0  0  0  0  0  0  0  0
    0.6417   -1.8770    0.0000 C   0  0  0  0  0  0  0  0  0  0  0  0
    3.2398   -1.8774    0.0000 C   0  0  0  0  0  0  0  0  0  0  0  0
   -0.6575   -2.6267    0.0000 C   0  0  0  0  0  0  0  0  0  0  0  0
    4.5387   -2.6276    0.0000 C   0  0  0  0  0  0  0  0  0  0  0  0
   -3.2560   -2.6276    0.0000 C   0  0  0  0  0  0  0  0  0  0  0  0
    5.8387   -4.8776    0.0000 C   0  0  0  0  0  0  0  0  0  0  0  0
   -4.5563   -1.8798    0.0000 O   0  0  0  0  0  0  0  0  0  0  0  0
    5.8412   -6.3776    0.0000 O   0  0  0  0  0  0  0  0  0  0  0  0
    1.9406   -2.6272    0.0000 O   0  0  0  0  0  0  0  0  0  0  0  0
  5  3  2  0
  6  4  2  0
  7  3  1  0
  8  4  1  0
 13  5  1  0
 13  9  2  0
 13 11  1  0
 14  6  1  0
 14 10  2  0
 14 12  1  0
 15  7  2  0
 15  9  1  0
 16  8  2  0
 16 10  1  0
 17  1  1  0
 17 15  1  0
 18  2  1  0
 18 16  1  0
 19 11  1  0
 19 12  1  0
M  END
>  <NAME>  (2202) 
BIS(3-METHOXYBENZYL) ETHER

>  <SYNONYMS>  (2202) 


>  <SPECTRUM TYPE>  (2202) 
MS1

>  <INSTRUMENT TYPE>  (2202) 
EI-B

>  <INSTRUMENT>  (2202) 
JEOL JMS-DX-300

>  <ION MODE>  (2202) 
P

>  <INCHIKEY>  (2202) 
QBMDJGYKNWADIS-UHFFFAOYSA-N

>  <FORMULA>  (2202) 
C16H18O3

>  <EXACT MASS>  (2202) 
258.125594436

>  <MW>  (2202) 
258

>  <ID>  (2202) 
JP008833

>  <CONTRIBUTOR>  (2202) 
University of Tokyo Team, {Faculty of Engineering, University of Tokyo

>  <COMMENT>  (2202) 
SMILES=COc(c2)cc(cc2)COCc(c1)cc(OC)cc1
InChI=InChI=1S/C16H18O3/c1-17-15-7-3-5-13(9-15)11-19-12-14-6-4-8-16(10-14)18-2/h3-10H,11-12H2,1-2H3
computed SMILES=O(C1=CC=CC(=C1)COCC=2C=CC=C(OC)C2)C
accession=JP008833
date=2016.01.19 (Created 2008.10.21, modified 2011.05.06)
author=HISAHIRO HAGIWARA, CHEMICAL RESEARCH INSTITUTE OF NON-AQUEOUSSOLUTIONS TOHOKU UNIV.
license=CC BY-NC-SA
exact mass=258.12559
ionization energy=70 eV
ion type=[M]+*
computed spectral entropy=2.4926621822165447
computed normalized entropy=0.7650670117129934
SPLASH=splash10-00di-3900000000-e9be678f65385bf6e529
submitter=submitter = University of Tokyo Team (Faculty of Engineering, University of Tokyo)
MoNA Rating=3.75

>  <NUM PEAKS>  (2202) 
26

>  <MASS SPECTRAL PEAKS>  (2202) 
41 6.08
43 8.2
55 6.87
57 0.64
60 4.24
65 4.2
69 6.37
71 7.23
73 5.38
77 7.72
78 4.84
83 0.47
91 17.07
92 4.46
107 5.96
109 4.11
121 45.57
122 99.99
123 11.02
125 0.54
137 3.55
149 12.58
156 6.31
167 5.96
169 5.08
227 4.73

>  <PREDICTED SPECTRUM>  (2202) 
15 38
26 10
27 46
28 30
29 27
38 52
39 143
40 53
41 50
42 32
43 13
50 118
51 231
52 191
53 100
62 61
63 158
64 134
65 284
66 132
67 28
75 33
76 45
77 428
78 398
79 220
80 30
81 18
89 164
90 152
91 476
92 226
93 193
94 189
95 92
96 11
97 9
102 47
103 89
104 88
105 215
106 240
107 258
108 147
109 201
110 47
117 25
119 111
120 81
121 999
122 803
123 328
124 6
134 155
135 203
137 471
138 310
139 144
140 68
149 12
150 124
151 123
152 175
153 43
167 9
171 23
227 9
228 17
258 395
259 167
260 97
261 10

$$$$

     RDKit          2D

 19 20  0  0  0  0  0  0  0  0999 V2000
   -0.6498   -0.7489    0.0000 C   0  0  0  0  0  0  0  0  0  0  0  0
    5.8461    6.0019    0.0000 C   0  0  0  0  0  0  0  0  0  0  0  0
   -4.5485    3.0013    0.0000 C   0  0  0  0  0  0  0  0  0  0  0  0
    4.5476    0.7505    0.0000 C   0  0  0  0  0  0  0  0  0  0  0  0
   -4.5485    1.5013    0.0000 C   0  0  0  0  0  0  0  0  0  0  0  0
    5.8467    1.5005    0.0000 C   0  0  0  0  0  0  0  0  0  0  0  0
   -3.2485    3.7513    0.0000 C   0  0  0  0  0  0  0  0  0  0  0  0
    3.2481    1.5013    0.0000 C   0  0  0  0  0  0  0  0  0  0  0  0
   -3.2485    0.7513    0.0000 C   0  0  0  0  0  0  0  0  0  0  0  0
    5.8462    3.0013    0.0000 C   0  0  0  0  0  0  0  0  0  0  0  0
   -0.6496    3.7515    0.0000 C   0  0  0  0  0  0  0  0  0  0  0  0
    1.9485    3.7519    0.0000 C   0  0  0  0  0  0  0  0  0  0  0  0
   -1.9485    3.0013    0.0000 C   0  0  0  0  0  0  0  0  0  0  0  0
    3.2476    3.0021    0.0000 C   0  0  0  0  0  0  0  0  0  0  0  0
   -1.9485    1.5013    0.0000 C   0  0  0  0  0  0  0  0  0  0  0  0
    4.5467    3.7521    0.0000 C   0  0  0  0  0  0  0  0  0  0  0  0
   -0.6496    0.7511    0.0000 O   0  0  0  0  0  0  0  0  0  0  0  0
    4.5469    5.2521    0.0000 O   0  0  0  0  0  0  0  0  0  0  0  0
    0.6495    3.0017    0.0000 O   0  0  0  0  0  0  0  0  0  0  0  0
  5  3  2  0
  6  4  2  0
  7  3  1  0
  8  4  1  0
  9  5  1  0
 10  6  1  0
 13  7  2  0
 13 11  1  0
 14  8  2  0
 14 12  1  0
 15  9  2  0
 15 13  1  0
 16 10  2  0
 16 14  1  0
 17  1  1  0
 17 15  1  0
 18  2  1  0
 18 16  1  0
 19 11  1  0
 19 12  1  0
M  END
>  <NAME>  (2203) 
BIS(2-METHOXYBENZYL) ETHER

>  <SYNONYMS>  (2203) 


>  <SPECTRUM TYPE>  (2203) 
MS1

>  <INSTRUMENT TYPE>  (2203) 
EI-B

>  <INSTRUMENT>  (2203) 
JEOL JMS-DX-300

>  <ION MODE>  (2203) 
P

>  <INCHIKEY>  (2203) 
UCXQVIZWEKJYRY-UHFFFAOYSA-N

>  <FORMULA>  (2203) 
C16H18O3

>  <EXACT MASS>  (2203) 
258.125594436

>  <MW>  (2203) 
258

>  <ID>  (2203) 
JP008832

>  <CONTRIBUTOR>  (2203) 
University of Tokyo Team, {Faculty of Engineering, University of Tokyo

>  <COMMENT>  (2203) 
SMILES=COc(c2)c(ccc2)COCc(c1)c(OC)ccc1
InChI=InChI=1S/C16H18O3/c1-17-15-9-5-3-7-13(15)11-19-12-14-8-4-6-10-16(14)18-2/h3-10H,11-12H2,1-2H3
computed SMILES=O(C=1C=CC=CC1COCC=2C=CC=CC2OC)C
accession=JP008832
date=2016.01.19 (Created 2008.10.21, modified 2011.05.06)
author=HISAHIRO HAGIWARA, CHEMICAL RESEARCH INSTITUTE OF NON-AQUEOUSSOLUTIONS TOHOKU UNIV.
license=CC BY-NC-SA
exact mass=258.12559
ionization energy=70 eV
ion type=[M]+*
computed spectral entropy=2.7028508759102428
computed normalized entropy=0.743034187295662
SPLASH=splash10-00di-4910000000-c391fb1080f905b9d589
submitter=submitter = University of Tokyo Team (Faculty of Engineering, University of Tokyo)
MoNA Rating=3.75

>  <NUM PEAKS>  (2203) 
38

>  <MASS SPECTRAL PEAKS>  (2203) 
39 3.11
50 1.55
51 3.4
52 1.18
53 1
63 1.57
64 1.5
65 6.26
76 2.53
77 10.87
78 4.45
79 2.92
89 1.08
90 2.32
91 35.15
92 4.81
93 4.11
94 2.38
104 1.92
105 0.54
106 2.43
107 6.17
108 1.22
109 4.05
118 2.23
119 3.66
120 1.49
121 99.99
122 20.3
123 2.48
135 7.65
136 6.81
137 9.53
138 7.5
150 1.08
256 7.38
257 10.67
258 3.11

>  <PREDICTED SPECTRUM>  (2203) 
26 0
27 37
29 34
31 4
33 0
34 0
37 4
38 56
39 200
40 66
41 134
42 98
43 59
44 72
45 53
50 130
51 251
52 202
53 112
55 57
56 7
57 19
61 52
62 87
63 215
64 149
65 390
66 163
67 22
74 11
75 52
76 86
77 386
78 333
79 189
80 11
89 230
90 164
91 960
92 396
93 308
94 154
95 77
96 27
102 6
103 44
104 101
105 139
106 164
107 368
108 245
109 213
110 39
118 89
119 163
120 159
121 999
122 492
123 169
125 16
134 75
135 172
137 734
138 208
139 114
140 107
150 177
151 95
152 119
153 95
167 42
168 44
227 66
228 32
240 23
258 395
259 166
260 81
261 2

$$$$

     RDKit          2D

 19 20  0  0  0  0  0  0  0  0999 V2000
    3.8981   -0.7504    0.0000 C   0  0  0  0  0  0  0  0  0  0  0  0
    2.5987   -3.0002    0.0000 C   0  0  0  0  0  0  0  0  0  0  0  0
   -9.0952   -0.7508    0.0000 C   0  0  0  0  0  0  0  0  0  0  0  0
   -7.7965   -3.0010    0.0000 C   0  0  0  0  0  0  0  0  0  0  0  0
   -1.3000   -0.7500    0.0000 C   0  0  0  0  0  0  0  0  0  0  0  0
    0.0000    1.5000    0.0000 C   0  0  0  0  0  0  0  0  0  0  0  0
   -5.1971    1.5004    0.0000 C   0  0  0  0  0  0  0  0  0  0  0  0
   -3.8986   -0.7504    0.0000 C   0  0  0  0  0  0  0  0  0  0  0  0
    0.0000   -1.5000    0.0000 C   0  0  0  0  0  0  0  0  0  0  0  0
    1.3000    0.7500    0.0000 C   0  0  0  0  0  0  0  0  0  0  0  0
   -6.4966    0.7496    0.0000 C   0  0  0  0  0  0  0  0  0  0  0  0
   -5.1981   -1.5012    0.0000 C   0  0  0  0  0  0  0  0  0  0  0  0
   -2.5989    1.5002    0.0000 C   0  0  0  0  0  0  0  0  0  0  0  0
   -1.3000    0.7500    0.0000 C   0  0  0  0  0  0  0  0  0  0  0  0
   -3.8981    0.7504    0.0000 C   0  0  0  0  0  0  0  0  0  0  0  0
    1.3000   -0.7500    0.0000 C   0  0  0  0  0  0  0  0  0  0  0  0
   -6.4971   -0.7512    0.0000 C   0  0  0  0  0  0  0  0  0  0  0  0
    2.5989   -1.5002    0.0000 N   0  0  0  0  0  0  0  0  0  0  0  0
   -7.7963   -1.5010    0.0000 N   0  0  0  0  0  0  0  0  0  0  0  0
  9  5  2  0
 10  6  1  0
 11  7  2  0
 12  8  1  0
 14  5  1  0
 14  6  2  0
 14 13  1  0
 15  7  1  0
 15  8  2  0
 15 13  1  0
 16  9  1  0
 16 10  2  0
 17 11  1  0
 17 12  2  0
 18  1  1  0
 18  2  1  0
 18 16  1  0
 19  3  1  0
 19  4  1  0
 19 17  1  0
M  END
>  <NAME>  (2204) 
4,4'-METHYLENEBIS(N,N-DIMETHYLANILINE)

>  <SYNONYMS>  (2204) 


>  <SPECTRUM TYPE>  (2204) 
MS1

>  <INSTRUMENT TYPE>  (2204) 
EI-B

>  <INSTRUMENT>  (2204) 
JEOL JMS-DX-300

>  <ION MODE>  (2204) 
P

>  <INCHIKEY>  (2204) 
JNRLEMMIVRBKJE-UHFFFAOYSA-N

>  <FORMULA>  (2204) 
C17H22N2

>  <EXACT MASS>  (2204) 
254.17829870399999

>  <MW>  (2204) 
254

>  <ID>  (2204) 
JP008831

>  <CONTRIBUTOR>  (2204) 
University of Tokyo Team, {Faculty of Engineering, University of Tokyo

>  <COMMENT>  (2204) 
SMILES=CN(C)c(c2)ccc(c2)Cc(c1)ccc(N(C)C)c1
cas=101-61-1
InChI=InChI=1S/C17H22N2/c1-18(2)16-9-5-14(6-10-16)13-15-7-11-17(12-8-15)19(3)4/h5-12H,13H2,1-4H3
computed SMILES=C=1C=C(C=CC1N(C)C)CC2=CC=C(C=C2)N(C)C
accession=JP008831
date=2016.01.19 (Created 2008.10.21, modified 2011.05.06)
author=HISAHIRO HAGIWARA, CHEMICAL RESEARCH INSTITUTE OF NON-AQUEOUSSOLUTIONS TOHOKU UNIV.
license=CC BY-NC-SA
exact mass=254.1783
ionization energy=70 eV
ion type=[M]+*
computed spectral entropy=2.816616201203342
computed normalized entropy=0.7399175022141999
SPLASH=splash10-0udi-0590000000-f38b47966708b4a62b10
submitter=submitter = University of Tokyo Team (Faculty of Engineering, University of Tokyo)
MoNA Rating=3.75

>  <NUM PEAKS>  (2204) 
45

>  <MASS SPECTRAL PEAKS>  (2204) 
42 1.9
77 1.47
89 1.47
90 1.36
91 3.14
92 2.12
97 1.54
104 3.23
105 4.6
110 1.09
111 1.22
112 1.14
117 1.54
118 15.45
119 7.14
120 4.24
125 1.77
126 28.78
127 19.55
128 3.77
132 4.99
133 3.96
134 23.63
135 2.78
152 1.09
165 4.09
166 2.17
194 2.65
195 1.4
208 2.48
209 2.92
210 21.51
211 4.16
221 1.21
223 1.67
224 1.02
237 13.33
238 4.89
239 4
240 1.16
252 1.47
253 69.56
254 99.99
255 20.04
256 1.98

>  <PREDICTED SPECTRUM>  (2204) 
15 4
27 45
28 52
29 29
38 17
39 130
40 49
41 66
42 227
43 28
44 133
45 24
50 17
51 94
52 36
53 18
57 24
63 87
64 36
65 101
66 34
67 18
68 15
72 19
75 24
76 58
77 193
78 138
79 74
81 57
82 30
89 89
90 77
91 203
92 57
93 11
94 31
95 8
97 49
101 40
102 60
103 78
104 179
105 143
106 50
107 11
108 76
109 2
115 86
116 46
117 104
118 289
119 191
120 229
121 181
122 14
126 10
127 8
128 27
130 2
131 83
132 202
133 215
134 347
135 123
139 69
141 43
144 13
145 85
146 93
148 45
151 4
152 87
153 36
154 16
161 107
162 87
163 23
164 56
165 122
166 89
167 69
168 22
178 18
179 39
180 79
181 53
182 47
194 159
195 109
196 169
197 66
206 102
207 108
208 154
209 168
210 242
211 140
221 134
222 156
223 172
224 157
225 86
226 74
227 1
237 269
238 205
239 335
240 156
241 35
251 72
252 131
253 496
254 999
255 417
256 158
257 18

$$$$

     RDKit          2D

 20 21  0  0  0  0  0  0  0  0999 V2000
   -0.0084    0.0027    0.0000 C   0  0  0  0  0  0  0  0  0  0  0  0
    9.1177    3.7549    0.0000 C   0  0  0  0  0  0  0  0  0  0  0  0
   -6.5034    3.7566    0.0000 C   0  0  0  0  0  0  0  0  0  0  0  0
    3.8997    3.7335    0.0000 C   0  0  0  0  0  0  0  0  0  0  0  0
    5.1697    1.4835    0.0000 C   0  0  0  0  0  0  0  0  0  0  0  0
   -2.5954    1.5091    0.0000 C   0  0  0  0  0  0  0  0  0  0  0  0
   -1.2819    3.7339    0.0000 C   0  0  0  0  0  0  0  0  0  0  0  0
    5.1697    4.4835    0.0000 C   0  0  0  0  0  0  0  0  0  0  0  0
    6.5197    2.2335    0.0000 C   0  0  0  0  0  0  0  0  0  0  0  0
   -3.8799    2.2339    0.0000 C   0  0  0  0  0  0  0  0  0  0  0  0
   -2.6064    4.5281    0.0000 C   0  0  0  0  0  0  0  0  0  0  0  0
    2.5970    1.4899    0.0000 C   0  0  0  0  0  0  0  0  0  0  0  0
   -0.0011    1.5027    0.0000 C   0  0  0  0  0  0  0  0  0  0  0  0
    3.8997    2.2335    0.0000 C   0  0  0  0  0  0  0  0  0  0  0  0
   -1.2964    2.2591    0.0000 C   0  0  0  0  0  0  0  0  0  0  0  0
    6.5197    3.7335    0.0000 C   0  0  0  0  0  0  0  0  0  0  0  0
   -3.9054    3.7781    0.0000 C   0  0  0  0  0  0  0  0  0  0  0  0
    7.8125    4.4942    0.0000 O   0  0  0  0  0  0  0  0  0  0  0  0
   -5.2106    4.5173    0.0000 O   0  0  0  0  0  0  0  0  0  0  0  0
    1.3017    2.2463    0.0000 O   0  0  0  0  0  0  0  0  0  0  0  0
  8  4  2  0
  9  5  1  0
 10  6  2  0
 11  7  1  0
 13  1  1  0
 14  4  1  0
 14  5  2  0
 14 12  1  0
 15  6  1  0
 15  7  2  0
 15 13  1  0
 16  8  1  0
 16  9  2  0
 17 10  1  0
 17 11  2  0
 18  2  1  0
 18 16  1  0
 19  3  1  0
 19 17  1  0
 20 12  1  0
 20 13  1  0
M  END
>  <NAME>  (2205) 
2-(4-METHOXYBENZYLOXY)-2-(4-METHOXYPHENYL)ETHANE

>  <SYNONYMS>  (2205) 


>  <SPECTRUM TYPE>  (2205) 
MS1

>  <INSTRUMENT TYPE>  (2205) 
EI-B

>  <INSTRUMENT>  (2205) 
JEOL JMS-DX-300

>  <ION MODE>  (2205) 
P

>  <INCHIKEY>  (2205) 
PIHQWXYOLCJTFL-UHFFFAOYSA-N

>  <FORMULA>  (2205) 
C17H20O3

>  <EXACT MASS>  (2205) 
272.14124449999997

>  <MW>  (2205) 
272

>  <ID>  (2205) 
JP008830

>  <CONTRIBUTOR>  (2205) 
University of Tokyo Team, {Faculty of Engineering, University of Tokyo

>  <COMMENT>  (2205) 
SMILES=COc(c2)ccc(c2)COC(C)c(c1)ccc(OC)c1
InChI=InChI=1S/C17H20O3/c1-13(15-6-10-17(19-3)11-7-15)20-12-14-4-8-16(18-2)9-5-14/h4-11,13H,12H2,1-3H3
computed SMILES=O(C1=CC=C(C=C1)COC(C2=CC=C(OC)C=C2)C)C
accession=JP008830
date=2016.01.19 (Created 2008.10.21, modified 2011.05.06)
author=HISAHIRO HAGIWARA, CHEMICAL RESEARCH INSTITUTE OF NON-AQUEOUSSOLUTIONS TOHOKU UNIV.
license=CC BY-NC-SA
exact mass=272.14124
ionization energy=70 eV
ion type=[M]+*
computed spectral entropy=2.893910438853914
computed normalized entropy=0.7899172221958304
SPLASH=splash10-00dr-2900000000-047817f29ddf8fbc6b85
submitter=submitter = University of Tokyo Team (Faculty of Engineering, University of Tokyo)
MoNA Rating=3.75

>  <NUM PEAKS>  (2205) 
39

>  <MASS SPECTRAL PEAKS>  (2205) 
39 3.74
41 1.58
43 6.34
51 3.52
52 1.7
63 2.62
64 2.23
65 5.54
77 13.4
78 6.07
79 4.53
89 1.96
90 1.84
91 10.86
92 4.45
94 2.41
103 4.39
105 7.81
106 1.78
107 3.69
109 5.51
114 1.65
119 6.54
120 4.96
121 99.99
122 26.11
123 2.75
133 2.26
134 14.4
135 61.73
136 26.74
137 9.15
138 4.62
151 4.27
163 3.66
164 23.76
165 2.88
272 13.67
273 2.69

>  <PREDICTED SPECTRUM>  (2205) 
15 27
26 31
27 93
28 45
29 91
30 1
37 4
38 63
39 178
40 59
41 127
42 79
43 64
44 10
50 108
51 205
52 175
53 119
54 4
55 63
62 44
63 134
64 146
65 211
66 133
67 60
69 45
75 54
76 89
77 361
78 312
79 138
80 9
81 39
89 156
90 106
91 313
92 174
93 101
94 168
95 84
102 5
103 51
104 38
105 126
106 128
107 156
108 119
109 270
110 34
117 18
118 38
119 177
120 260
121 999
122 427
123 93
131 1
134 576
135 597
136 356
137 428
138 132
151 103
152 73
164 146
254 9
271 13
272 297
273 124
274 9

$$$$

     RDKit          2D

 23 24  0  0  0  0  0  0  0  0999 V2000
   11.7048    3.7790    0.0000 C   0  0  0  0  0  0  0  0  0  0  0  0
   -9.1122    3.7378    0.0000 C   0  0  0  0  0  0  0  0  0  0  0  0
    5.1989    6.0051    0.0000 C   0  0  0  0  0  0  0  0  0  0  0  0
    3.8853    3.7803    0.0000 C   0  0  0  0  0  0  0  0  0  0  0  0
   -1.2963    3.7807    0.0000 C   0  0  0  0  0  0  0  0  0  0  0  0
   -2.5663    6.0307    0.0000 C   0  0  0  0  0  0  0  0  0  0  0  0
    6.4834    5.2803    0.0000 C   0  0  0  0  0  0  0  0  0  0  0  0
    5.2098    2.9861    0.0000 C   0  0  0  0  0  0  0  0  0  0  0  0
   -2.5663    3.0307    0.0000 C   0  0  0  0  0  0  0  0  0  0  0  0
   -3.9163    5.2807    0.0000 C   0  0  0  0  0  0  0  0  0  0  0  0
    2.6045    6.0115    0.0000 C   0  0  0  0  0  0  0  0  0  0  0  0
    0.0064    6.0243    0.0000 C   0  0  0  0  0  0  0  0  0  0  0  0
    9.1068    3.7576    0.0000 C   0  0  0  0  0  0  0  0  0  0  0  0
   -6.5143    3.7593    0.0000 C   0  0  0  0  0  0  0  0  0  0  0  0
    3.8998    5.2551    0.0000 C   0  0  0  0  0  0  0  0  0  0  0  0
   -1.2963    5.2807    0.0000 C   0  0  0  0  0  0  0  0  0  0  0  0
    6.5089    3.7361    0.0000 C   0  0  0  0  0  0  0  0  0  0  0  0
   -3.9163    3.7807    0.0000 C   0  0  0  0  0  0  0  0  0  0  0  0
   10.4120    3.0183    0.0000 O   0  0  0  0  0  0  0  0  0  0  0  0
   -7.8071    2.9986    0.0000 O   0  0  0  0  0  0  0  0  0  0  0  0
    1.3018    5.2679    0.0000 O   0  0  0  0  0  0  0  0  0  0  0  0
    7.8140    2.9969    0.0000 O   0  0  0  0  0  0  0  0  0  0  0  0
   -5.2091    3.0200    0.0000 O   0  0  0  0  0  0  0  0  0  0  0  0
  7  3  2  0
  8  4  1  0
  9  5  2  0
 10  6  1  0
 15  3  1  0
 15  4  2  0
 15 11  1  0
 16  5  1  0
 16  6  2  0
 16 12  1  0
 17  7  1  0
 17  8  2  0
 18  9  1  0
 18 10  2  0
 19  1  1  0
 19 13  1  0
 20  2  1  0
 20 14  1  0
 21 11  1  0
 21 12  1  0
 22 13  1  0
 22 17  1  0
 23 14  1  0
 23 18  1  0
M  END
>  <NAME>  (2206) 
BIS(4-METHOXYMETHYLOXY)BENZYL ETHER

>  <SYNONYMS>  (2206) 


>  <SPECTRUM TYPE>  (2206) 
MS1

>  <INSTRUMENT TYPE>  (2206) 
EI-B

>  <INSTRUMENT>  (2206) 
JEOL JMS-DX-300

>  <ION MODE>  (2206) 
P

>  <INCHIKEY>  (2206) 
NWHIUNAHUVUFJR-UHFFFAOYSA-N

>  <FORMULA>  (2206) 
C18H22O5

>  <EXACT MASS>  (2206) 
318.146723804

>  <MW>  (2206) 
318

>  <ID>  (2206) 
JP008829

>  <CONTRIBUTOR>  (2206) 
University of Tokyo Team, {Faculty of Engineering, University of Tokyo

>  <COMMENT>  (2206) 
SMILES=COCOc(c1)ccc(COCc(c2)ccc(OCOC)c2)c1
InChI=InChI=1S/C18H22O5/c1-19-13-22-17-7-3-15(4-8-17)11-21-12-16-5-9-18(10-6-16)23-14-20-2/h3-10H,11-14H2,1-2H3
computed SMILES=O(C1=CC=C(C=C1)COCC2=CC=C(OCOC)C=C2)COC
accession=JP008829
date=2016.01.19 (Created 2008.10.21, modified 2011.05.06)
author=HISAHIRO HAGIWARA, CHEMICAL RESEARCH INSTITUTE OF NON-AQUEOUSSOLUTIONS TOHOKU UNIV.
license=CC BY-NC-SA
exact mass=318.14672
ionization energy=70 eV
ion type=[M]+*
computed spectral entropy=2.550889272790888
computed normalized entropy=0.7174794784289739
SPLASH=splash10-0002-7900000000-4650d17afbc92fbd47b3
submitter=submitter = University of Tokyo Team (Faculty of Engineering, University of Tokyo)
MoNA Rating=3.75

>  <NUM PEAKS>  (2206) 
35

>  <MASS SPECTRAL PEAKS>  (2206) 
30 1.94
45 99.99
46 3.06
51 0.19
52 1.72
77 3.74
78 3.4
89 0.26
90 3.42
91 2.17
106 6.34
107 24.08
108 7.15
109 1.6
110 1.58
119 1.73
120 14.01
121 20.01
122 4.19
123 1.74
135 3.25
136 3.28
137 2.31
148 1.81
151 25
152 18.08
153 2.31
154 1.62
167 7.46
168 2.67
180 3.38
182 0.22
274 1.87
318 1.78
348 1.79

>  <PREDICTED SPECTRUM>  (2206) 
15 35
16 4
17 28
18 47
26 3
27 58
29 131
30 53
31 91
32 12
33 13
34 16
38 26
39 189
40 41
41 135
42 90
43 132
44 67
45 778
46 82
47 25
50 41
51 123
52 113
53 40
54 12
55 65
57 30
59 92
60 54
61 105
62 11
63 111
64 88
65 133
66 72
67 21
69 70
73 52
74 14
75 94
76 40
77 265
78 220
79 148
80 52
81 2
83 5
84 8
89 203
90 145
91 266
92 179
93 87
94 43
95 115
96 65
97 83
103 129
104 105
105 157
106 130
107 680
108 476
109 155
111 0
117 28
118 30
119 69
120 135
121 999
122 471
123 163
124 85
125 5
133 34
134 4
135 226
136 215
137 419
138 149
139 142
140 1
149 59
150 28
151 343
152 259
153 114
154 122
155 50
164 45
165 244
166 110
167 123
168 131
169 27
180 106
181 454
182 165
183 4
197 86
198 3
199 25
211 75
227 7
257 0
273 124
274 81
286 78
318 289
319 81
320 7

$$$$

     RDKit          2D

 14 14  0  0  0  0  0  0  0  0999 V2000
   -1.6700    0.5394    0.0000 C   0  0  0  0  0  0  0  0  0  0  0  0
    3.5259    2.0402    0.0000 C   0  0  0  0  0  0  0  0  0  0  0  0
   -0.3708   -0.2104    0.0000 C   0  0  0  0  0  0  0  0  0  0  0  0
    8.7242    2.0406    0.0000 C   0  0  0  0  0  0  0  0  0  0  0  0
    7.4242    2.7906    0.0000 C   0  0  0  0  0  0  0  0  0  0  0  0
    8.7242    0.5406    0.0000 C   0  0  0  0  0  0  0  0  0  0  0  0
    6.1242    2.0406    0.0000 C   0  0  0  0  0  0  0  0  0  0  0  0
    7.4242   -0.2094    0.0000 C   0  0  0  0  0  0  0  0  0  0  0  0
    3.5262    0.5402    0.0000 C   0  0  0  0  0  0  0  0  0  0  0  0
    6.1242    0.5406    0.0000 C   0  0  0  0  0  0  0  0  0  0  0  0
    2.2272   -0.2100    0.0000 C   0  0  0  0  0  0  0  0  0  0  0  0
    2.2275   -1.7100    0.0000 O   0  0  0  0  0  0  0  0  0  0  0  0
    0.9281    0.5398    0.0000 O   0  0  0  0  0  0  0  0  0  0  0  0
    4.8253   -0.2096    0.0000 S   0  0  0  0  0  0  0  0  0  0  0  0
  3  1  1  0
  5  4  2  0
  6  4  1  0
  7  5  1  0
  8  6  2  0
  9  2  1  0
 10  7  2  0
 10  8  1  0
 11  9  1  0
 12 11  2  0
 13  3  1  0
 13 11  1  0
 14  9  1  0
 14 10  1  0
M  END
>  <NAME>  (2207) 
ETHYL 2-PHENYLTHIOPROPIONATE

>  <SYNONYMS>  (2207) 


>  <SPECTRUM TYPE>  (2207) 
MS1

>  <INSTRUMENT TYPE>  (2207) 
EI-B

>  <INSTRUMENT>  (2207) 
JEOL JMS-DX-300

>  <ION MODE>  (2207) 
P

>  <INCHIKEY>  (2207) 
AFQJVOVRMATZLA-UHFFFAOYSA-N

>  <FORMULA>  (2207) 
C11H14O2S

>  <EXACT MASS>  (2207) 
210.071450688

>  <MW>  (2207) 
210

>  <ID>  (2207) 
JP008826

>  <CONTRIBUTOR>  (2207) 
University of Tokyo Team, {Faculty of Engineering, University of Tokyo

>  <COMMENT>  (2207) 
SMILES=CCOC(=O)C(C)Sc(c1)cccc1
InChI=InChI=1S/C11H14O2S/c1-3-13-11(12)9(2)14-10-7-5-4-6-8-10/h4-9H,3H2,1-2H3
computed SMILES=O=C(OCC)C(SC=1C=CC=CC1)C
accession=JP008826
date=2016.01.19 (Created 2008.10.21, modified 2011.05.06)
author=HISAHIRO HAGIWARA, CHEMICAL RESEARCH INSTITUTE OF NON-AQUEOUSSOLUTIONS TOHOKU UNIV.
license=CC BY-NC-SA
exact mass=210.07145
ionization energy=70 eV
ion type=[M]+*
computed spectral entropy=2.0130944744018504
computed normalized entropy=0.6420341852888108
SPLASH=splash10-000i-1920000000-c759c900a72718ea9e0d
submitter=submitter = University of Tokyo Team (Faculty of Engineering, University of Tokyo)
MoNA Rating=3.75

>  <NUM PEAKS>  (2207) 
23

>  <MASS SPECTRAL PEAKS>  (2207) 
31 1.3
39 3.11
40 1.53
45 1.35
50 1.07
51 2.45
56 1.18
59 0.1
65 5.14
66 1.12
77 4.48
78 1.74
91 1.32
103 4.83
104 3.83
109 20.61
135 4.96
137 99.99
138 9.94
139 5.77
210 36.7
211 4.7
212 2.3

>  <PREDICTED SPECTRUM>  (2207) 
26 10
27 92
28 8
29 112
38 11
39 129
40 6
41 79
43 43
44 22
45 114
50 41
51 153
52 28
53 61
55 59
57 18
59 27
63 48
64 25
65 195
66 71
69 193
73 28
74 20
75 2
76 5
77 238
78 99
79 52
81 90
82 34
89 10
91 229
103 16
104 100
108 3
109 400
110 228
111 80
112 6
125 42
135 191
137 999
138 271
139 231
154 36
165 19
210 501
211 168
212 115

$$$$

     RDKit          2D

  7  7  0  0  0  0  0  0  0  0999 V2000
   -0.3829   -2.2600    0.0000 C   0  0  0  0  0  0  0  0  0  0  0  0
   -1.1300    1.5500    0.0000 C   0  0  0  0  0  0  0  0  0  0  0  0
    0.3700    1.5500    0.0000 C   0  0  0  0  0  0  0  0  0  0  0  0
   -1.5900    0.1200    0.0000 C   0  0  0  0  0  0  0  0  0  0  0  0
    0.8400    0.1200    0.0000 C   0  0  0  0  0  0  0  0  0  0  0  0
   -0.3800   -0.7600    0.0000 N   0  0  0  0  0  0  0  0  0  0  0  0
    2.2666   -0.3436    0.0000 O   0  0  0  0  0  0  0  0  0  0  0  0
  3  2  1  0
  4  2  1  0
  5  3  1  0
  6  1  1  0
  6  4  1  0
  6  5  1  0
  7  5  2  0
M  END
>  <NAME>  (2208) 
1-METHYL-2-PYRROLIDINONE

>  <SYNONYMS>  (2208) 


>  <SPECTRUM TYPE>  (2208) 
MS1

>  <INSTRUMENT TYPE>  (2208) 
EI-B

>  <INSTRUMENT>  (2208) 
JEOL JMS-DX-300

>  <ION MODE>  (2208) 
P

>  <INCHIKEY>  (2208) 
SECXISVLQFMRJM-UHFFFAOYSA-N

>  <FORMULA>  (2208) 
C5H9NO

>  <EXACT MASS>  (2208) 
99.068413908

>  <MW>  (2208) 
99

>  <ID>  (2208) 
JP008824

>  <CONTRIBUTOR>  (2208) 
University of Tokyo Team, {Faculty of Engineering, University of Tokyo

>  <COMMENT>  (2208) 
SMILES=CN(C1)C(=O)CC1
cas=108-27-0
InChI=InChI=1S/C5H9NO/c1-6-4-2-3-5(6)7/h2-4H2,1H3
computed SMILES=O=C1N(C)CCC1
accession=JP008824
date=2016.01.19 (Created 2008.10.21, modified 2011.05.06)
author=HISAHIRO HAGIWARA, CHEMICAL RESEARCH INSTITUTE OF NON-AQUEOUSSOLUTIONS TOHOKU UNIV.
license=CC BY-NC-SA
exact mass=99.06841
ionization energy=70 eV
ion type=[M]+*
computed spectral entropy=2.2639104971193706
computed normalized entropy=0.7688766903093626
SPLASH=splash10-0005-9000000000-47ce7569060cdb946f8c
submitter=submitter = University of Tokyo Team (Faculty of Engineering, University of Tokyo)
MoNA Rating=3.75

>  <NUM PEAKS>  (2208) 
19

>  <MASS SPECTRAL PEAKS>  (2208) 
30 5.17
39 8.78
40 2.71
41 33.02
42 42.95
43 14.65
44 67.7
45 0.24
55 3.43
56 6.69
57 2.42
58 5.53
68 4.04
69 4.37
70 9.48
71 12.87
98 70.96
99 99.99
100 8.45

>  <PREDICTED SPECTRUM>  (2208) 
14 98
15 248
16 42
17 51
18 70
19 1
25 60
26 275
27 613
28 607
29 489
30 547
31 93
32 35
36 84
37 74
38 184
39 510
40 375
41 732
42 960
43 583
44 323
45 192
51 69
52 48
53 38
54 363
55 435
56 688
57 310
58 352
59 170
68 284
69 485
70 513
71 662
72 189
73 0
84 233
97 51
98 390
99 999
100 318
101 55

$$$$

     RDKit          2D

 26 27  0  0  0  0  0  0  0  0999 V2000
    6.4962    0.7508    0.0000 C   0  0  0  0  0  0  0  0  0  0  0  0
    2.5989    1.5002    0.0000 C   0  0  0  0  0  0  0  0  0  0  0  0
    7.7951    1.5010    0.0000 C   0  0  0  0  0  0  0  0  0  0  0  0
    1.3000    0.7500    0.0000 C   0  0  0  0  0  0  0  0  0  0  0  0
    9.0951    0.7510    0.0000 C   0  0  0  0  0  0  0  0  0  0  0  0
    7.7951    3.0010    0.0000 C   0  0  0  0  0  0  0  0  0  0  0  0
    0.0000    1.5000    0.0000 C   0  0  0  0  0  0  0  0  0  0  0  0
    1.3000   -0.7500    0.0000 C   0  0  0  0  0  0  0  0  0  0  0  0
   10.3951    1.5010    0.0000 C   0  0  0  0  0  0  0  0  0  0  0  0
    9.0951    3.7510    0.0000 C   0  0  0  0  0  0  0  0  0  0  0  0
   -1.3000    0.7500    0.0000 C   0  0  0  0  0  0  0  0  0  0  0  0
   -0.0000   -1.5000    0.0000 C   0  0  0  0  0  0  0  0  0  0  0  0
   10.3951    3.0010    0.0000 C   0  0  0  0  0  0  0  0  0  0  0  0
   -1.3000   -0.7500    0.0000 C   0  0  0  0  0  0  0  0  0  0  0  0
    9.0951   -0.7490    0.0000 F   0  0  0  0  0  0  0  0  0  0  0  0
    6.4962    3.7512    0.0000 F   0  0  0  0  0  0  0  0  0  0  0  0
    0.0000    3.0000    0.0000 F   0  0  0  0  0  0  0  0  0  0  0  0
    2.5989   -1.5002    0.0000 F   0  0  0  0  0  0  0  0  0  0  0  0
   11.6940    0.7508    0.0000 F   0  0  0  0  0  0  0  0  0  0  0  0
    9.0951    5.2510    0.0000 F   0  0  0  0  0  0  0  0  0  0  0  0
   -2.5989    1.5002    0.0000 F   0  0  0  0  0  0  0  0  0  0  0  0
   -0.0000   -3.0000    0.0000 F   0  0  0  0  0  0  0  0  0  0  0  0
   11.6940    3.7512    0.0000 F   0  0  0  0  0  0  0  0  0  0  0  0
   -2.5989   -1.5002    0.0000 F   0  0  0  0  0  0  0  0  0  0  0  0
    5.1970    1.5006    0.0000 N   0  0  0  0  0  0  0  0  0  0  0  0
    3.8981    0.7504    0.0000 O   0  0  0  0  0  0  0  0  0  0  0  0
  3  1  1  0
  4  2  1  0
  5  3  2  0
  6  3  1  0
  7  4  2  0
  8  4  1  0
  9  5  1  0
 10  6  2  0
 11  7  1  0
 12  8  2  0
 13  9  2  0
 13 10  1  0
 14 11  2  0
 14 12  1  0
 15  5  1  0
 16  6  1  0
 17  7  1  0
 18  8  1  0
 19  9  1  0
 20 10  1  0
 21 11  1  0
 22 12  1  0
 23 13  1  0
 24 14  1  0
  1 25  2  0
 26  2  1  0
 26 25  1  0
M  END
>  <NAME>  (2209) 
2,3,4,5,6-PENTAFLUOROBENZALDEHYDE 2',3',4',5',6'-PENTAFLUOROBENZYLOXIME

>  <SYNONYMS>  (2209) 


>  <SPECTRUM TYPE>  (2209) 
MS1

>  <INSTRUMENT TYPE>  (2209) 
EI-B

>  <INSTRUMENT>  (2209) 
HP 5970

>  <ION MODE>  (2209) 
P

>  <INCHIKEY>  (2209) 
CBUMHWYKQJKMTE-WDOSQBGKSA-N

>  <FORMULA>  (2209) 
C14H3F10NO

>  <EXACT MASS>  (2209) 
391.005495916

>  <MW>  (2209) 
391

>  <ID>  (2209) 
JP008822

>  <CONTRIBUTOR>  (2209) 
University of Tokyo Team, {Faculty of Engineering, University of Tokyo

>  <COMMENT>  (2209) 
SMILES=Fc(c(F)1)c(F)c(F)c(C=NOCc(c(F)2)c(F)c(F)c(F)c(F)2)c(F)1
InChI=InChI=1S/C14H3F10NO/c15-5-3(6(16)10(20)13(23)9(5)19)1-25-26-2-4-7(17)11(21)14(24)12(22)8(4)18/h1H,2H2/b25-1+
computed SMILES=FC=1C(F)=C(F)C(C=NOCC=2C(F)=C(F)C(F)=C(F)C2F)=C(F)C1F
accession=JP008822
date=2016.01.19 (Created 2008.10.21, modified 2011.05.06)
author=UOEH
license=CC BY-NC-SA
exact mass=391.0055
ionization energy=70 eV
ion type=[M]+*
computed spectral entropy=2.3737510961658606
computed normalized entropy=0.5821531080514453
SPLASH=splash10-001i-1900000000-4f822ec68de35f42add7
submitter=submitter = University of Tokyo Team (Faculty of Engineering, University of Tokyo)
MoNA Rating=3.75

>  <NUM PEAKS>  (2209) 
59

>  <MASS SPECTRAL PEAKS>  (2209) 
44 0.87
51 0.86
55 0.42
56 0.2
61 0.41
62 0.49
68 0.52
69 2.95
74 0.87
75 1.91
79 1.45
80 1.08
81 1.52
86 0.78
92 0.36
93 5.39
98 2.45
99 3.86
100 0.41
105 0.35
106 0.11
111 0.9
112 0.94
113 0.2
117 10.44
118 0.88
119 1.84
123 0.14
124 3.02
129 0.21
130 2.03
131 1.56
137 0.57
141 0.23
143 1.07
144 0.25
148 0.87
149 0.53
150 0.9
155 1.59
161 7.14
162 2.87
167 5.81
168 1.85
169 0.36
174 2.32
177 0.31
178 0.11
179 0.57
181 99.99
182 7.2
183 0.13
193 2.15
194 1.01
195 2.87
196 0.59
197 0.28
361 0.39
391 0.88

>  <PREDICTED SPECTRUM>  (2209) 
50 31
51 68
52 20
64 0
65 8
66 10
69 97
70 1
74 63
75 135
76 15
77 21
78 35
79 40
80 19
81 69
82 50
83 36
84 49
85 13
88 2
93 165
94 50
95 39
96 14
97 4
98 70
99 133
100 25
101 8
105 0
109 2
110 24
111 53
112 120
113 57
115 0
117 270
118 43
119 102
120 7
122 16
124 4
128 5
129 49
130 71
131 194
133 0
137 83
141 57
142 31
143 98
144 19
148 114
150 73
154 9
155 92
161 227
162 154
166 10
167 260
168 134
169 97
173 17
174 24
175 51
176 51
177 37
179 34
180 89
181 999
182 327
183 16
193 6
194 127
195 200
196 94
197 33
198 28
200 4
203 3
210 2
211 35
334 3
361 13
370 1
371 19
372 64
374 45
391 112

$$$$

     RDKit          2D

 13 13  0  0  0  0  0  0  0  0999 V2000
   -1.2998   -1.5002    0.0000 C   0  0  0  0  0  0  0  0  0  0  0  0
   -0.0008   -0.7500    0.0000 C   0  0  0  0  0  0  0  0  0  0  0  0
    1.2992   -1.5000    0.0000 C   0  0  0  0  0  0  0  0  0  0  0  0
   -0.0008    0.7500    0.0000 C   0  0  0  0  0  0  0  0  0  0  0  0
    2.5992   -0.7500    0.0000 C   0  0  0  0  0  0  0  0  0  0  0  0
    1.2992    1.5000    0.0000 C   0  0  0  0  0  0  0  0  0  0  0  0
    2.5992    0.7500    0.0000 C   0  0  0  0  0  0  0  0  0  0  0  0
    1.2992   -3.0000    0.0000 F   0  0  0  0  0  0  0  0  0  0  0  0
   -1.2998    1.5002    0.0000 F   0  0  0  0  0  0  0  0  0  0  0  0
    3.8981   -1.5002    0.0000 F   0  0  0  0  0  0  0  0  0  0  0  0
    1.2992    3.0000    0.0000 F   0  0  0  0  0  0  0  0  0  0  0  0
    3.8981    1.5002    0.0000 F   0  0  0  0  0  0  0  0  0  0  0  0
   -2.5989   -0.7504    0.0000 O   0  0  0  0  0  0  0  0  0  0  0  0
  2  1  1  0
  3  2  2  0
  4  2  1  0
  5  3  1  0
  6  4  2  0
  7  5  2  0
  7  6  1  0
  8  3  1  0
  9  4  1  0
 10  5  1  0
 11  6  1  0
 12  7  1  0
 13  1  1  0
M  END
>  <NAME>  (2210) 
PENTAFLUOROBENZYL ALCOHOL

>  <SYNONYMS>  (2210) 


>  <SPECTRUM TYPE>  (2210) 
MS1

>  <INSTRUMENT TYPE>  (2210) 
EI-B

>  <INSTRUMENT>  (2210) 
HP 5970

>  <ION MODE>  (2210) 
P

>  <INCHIKEY>  (2210) 
PGJYYCIOYBZTPU-UHFFFAOYSA-N

>  <FORMULA>  (2210) 
C7H3F5O

>  <EXACT MASS>  (2210) 
198.010405816

>  <MW>  (2210) 
198

>  <ID>  (2210) 
JP008821

>  <CONTRIBUTOR>  (2210) 
University of Tokyo Team, {Faculty of Engineering, University of Tokyo

>  <COMMENT>  (2210) 
SMILES=OCc(c(F)1)c(F)c(F)c(F)c(F)1
InChI=InChI=1S/C7H3F5O/c8-3-2(1-13)4(9)6(11)7(12)5(3)10/h13H,1H2
computed SMILES=FC=1C(F)=C(F)C(=C(F)C1F)CO
accession=JP008821
author=UOEH
date=2016.01.19 (Created 2008.10.21, modified 2011.05.06)
license=CC BY-NC-SA
exact mass=198.01041
ionization energy=70 eV
ion type=[M]+*
computed spectral entropy=3.0282998134542374
computed normalized entropy=0.8903628556759372
SPLASH=splash10-002b-2900000000-f69d5361bdcb5633af4f
submitter=submitter = University of Tokyo Team (Faculty of Engineering, University of Tokyo)
MoNA Rating=3.75

>  <NUM PEAKS>  (2210) 
30

>  <MASS SPECTRAL PEAKS>  (2210) 
49 15.39
51 2.02
69 14.79
74 7.33
75 18.65
79 9.61
80 7.35
81 22.74
93 20.89
98 14.01
99 55.01
101 5.15
117 33.51
119 32.02
131 9.05
149 23.63
150 47.64
151 19.38
161 28.07
167 6.46
168 9.51
169 15.83
177 80.2
178 43.92
179 2.22
181 67.41
195 13.79
197 44.52
198 99.99
199 1.93

>  <PREDICTED SPECTRUM>  (2210) 
17 11
18 41
19 1
25 6
26 30
27 38
28 13
29 198
30 99
31 468
32 41
33 25
37 36
38 13
46 0
47 39
49 60
50 10
51 177
52 25
53 40
54 27
60 31
61 181
62 139
63 47
64 16
68 128
69 346
71 4
73 31
74 161
75 364
78 72
79 189
80 135
81 315
82 79
83 86
84 42
85 33
86 68
87 21
90 72
91 168
92 110
93 308
94 21
98 322
99 473
100 130
101 220
102 88
103 86
105 62
106 108
110 59
111 317
112 260
116 3
117 392
118 133
119 213
120 203
121 134
122 109
123 121
124 17
125 17
128 31
129 146
130 208
131 345
132 150
133 116
134 169
137 98
139 51
140 50
141 44
143 353
144 91
146 35
147 88
148 69
149 599
150 333
151 327
152 288
153 133
155 313
157 102
158 49
159 159
160 55
161 439
162 63
167 223
168 252
169 296
170 62
177 592
178 423
179 454
180 121
181 954
182 183
195 89
196 99
197 606
198 999
199 295
200 75

$$$$

     RDKit          2D

 13 13  0  0  0  0  0  0  0  0999 V2000
   -1.2998   -1.5002    0.0000 C   0  0  0  0  0  0  0  0  0  0  0  0
   -0.0008   -0.7500    0.0000 C   0  0  0  0  0  0  0  0  0  0  0  0
    1.2992   -1.5000    0.0000 C   0  0  0  0  0  0  0  0  0  0  0  0
   -0.0008    0.7500    0.0000 C   0  0  0  0  0  0  0  0  0  0  0  0
    2.5992   -0.7500    0.0000 C   0  0  0  0  0  0  0  0  0  0  0  0
    1.2992    1.5000    0.0000 C   0  0  0  0  0  0  0  0  0  0  0  0
    2.5992    0.7500    0.0000 C   0  0  0  0  0  0  0  0  0  0  0  0
    1.2992   -3.0000    0.0000 F   0  0  0  0  0  0  0  0  0  0  0  0
   -1.2998    1.5002    0.0000 F   0  0  0  0  0  0  0  0  0  0  0  0
    3.8981   -1.5002    0.0000 F   0  0  0  0  0  0  0  0  0  0  0  0
    1.2992    3.0000    0.0000 F   0  0  0  0  0  0  0  0  0  0  0  0
    3.8981    1.5002    0.0000 F   0  0  0  0  0  0  0  0  0  0  0  0
   -2.5989   -0.7504    0.0000 O   0  0  0  0  0  0  0  0  0  0  0  0
  2  1  1  0
  3  2  2  0
  4  2  1  0
  5  3  1  0
  6  4  2  0
  7  5  2  0
  7  6  1  0
  8  3  1  0
  9  4  1  0
 10  5  1  0
 11  6  1  0
 12  7  1  0
 13  1  2  0
M  END
>  <NAME>  (2211) 
PENTAFLUOROBENZALDEHYDE

>  <SYNONYMS>  (2211) 


>  <SPECTRUM TYPE>  (2211) 
MS1

>  <INSTRUMENT TYPE>  (2211) 
EI-B

>  <INSTRUMENT>  (2211) 
HP 5970

>  <ION MODE>  (2211) 
P

>  <INCHIKEY>  (2211) 
QJXCFMJTJYCLFG-UHFFFAOYSA-N

>  <FORMULA>  (2211) 
C7HF5O

>  <EXACT MASS>  (2211) 
195.994755752

>  <MW>  (2211) 
196

>  <ID>  (2211) 
JP008820

>  <CONTRIBUTOR>  (2211) 
University of Tokyo Team, {Faculty of Engineering, University of Tokyo

>  <COMMENT>  (2211) 
SMILES=O=Cc(c(F)1)c(F)c(F)c(F)c(F)1
InChI=InChI=1S/C7HF5O/c8-3-2(1-13)4(9)6(11)7(12)5(3)10/h1H
computed SMILES=O=CC=1C(F)=C(F)C(F)=C(F)C1F
accession=JP008820
date=2016.01.19 (Created 2008.10.21, modified 2011.05.06)
author=UOEH
license=CC BY-NC-SA
exact mass=195.99476
ionization energy=70 eV
ion type=[M]+*
computed spectral entropy=2.6817673373309474
computed normalized entropy=0.7604915375528296
SPLASH=splash10-0002-3900000000-969027231d52c835802b
submitter=submitter = University of Tokyo Team (Faculty of Engineering, University of Tokyo)
MoNA Rating=3.75

>  <NUM PEAKS>  (2211) 
34

>  <MASS SPECTRAL PEAKS>  (2211) 
43 1.53
55 5.06
56 3.38
57 0.9
60 0.42
61 2.78
68 2.88
69 4.92
74 6.49
75 8.19
79 19.65
80 5.21
86 4.6
87 0.44
93 21.13
98 22.41
99 51.69
100 2.74
110 2.78
117 58.77
118 9.77
124 1.45
129 2.73
130 0.59
137 10.79
148 13.17
149 5.2
161 0.51
167 49.98
168 26.12
169 0.74
195 94.81
196 99.99
197 8.04

>  <PREDICTED SPECTRUM>  (2211) 
25 21
26 34
27 20
28 52
29 177
31 282
33 3
36 35
37 50
38 53
44 49
47 28
49 22
50 80
51 90
52 26
53 33
54 7
56 105
57 111
61 123
62 146
64 3
68 114
69 271
70 51
71 45
72 16
73 189
74 209
75 195
76 36
79 265
80 238
81 385
86 179
87 61
88 33
89 9
90 69
91 112
92 180
93 304
98 230
99 466
100 33
101 91
110 15
111 5
112 73
117 281
118 193
119 142
120 240
121 351
122 168
123 83
129 84
130 43
132 6
137 14
139 89
140 196
141 121
142 81
146 60
147 152
148 231
149 307
150 93
166 18
167 411
168 546
169 48
177 202
178 7
195 757
196 999
197 305
198 63

$$$$

     RDKit          2D

 13 13  0  0  0  0  0  0  0  0999 V2000
    2.5989    1.5002    0.0000 C   0  0  0  0  0  0  0  0  0  0  0  0
    1.3000    0.7500    0.0000 C   0  0  0  0  0  0  0  0  0  0  0  0
    0.0000    1.5000    0.0000 C   0  0  0  0  0  0  0  0  0  0  0  0
    1.3000   -0.7500    0.0000 C   0  0  0  0  0  0  0  0  0  0  0  0
   -1.3000    0.7500    0.0000 C   0  0  0  0  0  0  0  0  0  0  0  0
   -0.0000   -1.5000    0.0000 C   0  0  0  0  0  0  0  0  0  0  0  0
   -1.3000   -0.7500    0.0000 C   0  0  0  0  0  0  0  0  0  0  0  0
    0.0000    3.0000    0.0000 F   0  0  0  0  0  0  0  0  0  0  0  0
    2.5989   -1.5002    0.0000 F   0  0  0  0  0  0  0  0  0  0  0  0
   -2.5989    1.5002    0.0000 F   0  0  0  0  0  0  0  0  0  0  0  0
   -0.0000   -3.0000    0.0000 F   0  0  0  0  0  0  0  0  0  0  0  0
   -2.5989   -1.5002    0.0000 F   0  0  0  0  0  0  0  0  0  0  0  0
    3.8978    2.2504    0.0000 N   0  0  0  0  0  0  0  0  0  0  0  0
  2  1  1  0
  3  2  2  0
  4  2  1  0
  5  3  1  0
  6  4  2  0
  7  5  2  0
  7  6  1  0
  8  3  1  0
  9  4  1  0
 10  5  1  0
 11  6  1  0
 12  7  1  0
 13  1  3  0
M  END
>  <NAME>  (2212) 
PENTAFLUOROBENZONITRILE

>  <SYNONYMS>  (2212) 


>  <SPECTRUM TYPE>  (2212) 
MS1

>  <INSTRUMENT TYPE>  (2212) 
EI-B

>  <INSTRUMENT>  (2212) 
HP 5970

>  <ION MODE>  (2212) 
P

>  <INCHIKEY>  (2212) 
YXWJGZQOGXGSSC-UHFFFAOYSA-N

>  <FORMULA>  (2212) 
C7F5N

>  <EXACT MASS>  (2212) 
192.9950901

>  <MW>  (2212) 
193

>  <ID>  (2212) 
JP008819

>  <CONTRIBUTOR>  (2212) 
University of Tokyo Team, {Faculty of Engineering, University of Tokyo

>  <COMMENT>  (2212) 
SMILES=N#Cc(c(F)1)c(F)c(F)c(F)c(F)1
InChI=InChI=1S/C7F5N/c8-3-2(1-13)4(9)6(11)7(12)5(3)10
computed SMILES=N#CC=1C(F)=C(F)C(F)=C(F)C1F
accession=JP008819
date=2016.01.19 (Created 2008.10.21, modified 2011.05.06)
author=UOEH
license=CC BY-NC-SA
exact mass=192.99509
ionization energy=70 eV
ion type=[M]+*
computed spectral entropy=2.3417475587364516
computed normalized entropy=0.6640692414713741
SPLASH=splash10-0006-2900000000-ca1269f2acbd19ad12a4
submitter=submitter = University of Tokyo Team (Faculty of Engineering, University of Tokyo)
MoNA Rating=3.75

>  <NUM PEAKS>  (2212) 
34

>  <MASS SPECTRAL PEAKS>  (2212) 
43 1.79
50 0.17
55 2.98
56 1.38
57 1.94
60 0.65
62 1.87
69 7.11
74 5.93
79 4.72
81 1.74
86 4.02
93 18.62
94 0.64
96 3.41
98 3.67
100 4.08
105 4.01
110 0.47
112 0.66
117 7.04
118 0.18
124 33.95
125 2.13
131 0.4
143 3.39
148 5.3
162 9.87
163 0.42
167 0.22
174 2.55
191 0.14
193 99.99
194 7.66

>  <PREDICTED SPECTRUM>  (2212) 
19 4
31 352
32 4
36 13
44 17
45 13
55 46
62 1
69 333
74 135
75 77
79 99
80 59
81 108
86 139
87 93
88 0
92 53
93 372
98 238
99 123
100 211
105 89
110 64
112 113
116 48
117 531
118 134
120 40
123 2
124 308
134 55
135 47
136 16
142 18
143 427
144 76
147 57
148 221
149 76
154 49
155 410
162 131
167 32
174 319
175 28
192 16
193 999
194 265
195 10

$$$$

     RDKit          2D

 20 20  0  0  0  0  0  0  0  0999 V2000
   12.9912    1.5019    0.0000 C   0  0  0  0  0  0  0  0  0  0  0  0
   11.6923    0.7517    0.0000 C   0  0  0  0  0  0  0  0  0  0  0  0
   10.3931    1.5015    0.0000 C   0  0  0  0  0  0  0  0  0  0  0  0
    9.0942    0.7512    0.0000 C   0  0  0  0  0  0  0  0  0  0  0  0
    7.7951    1.5010    0.0000 C   0  0  0  0  0  0  0  0  0  0  0  0
    6.4962    0.7508    0.0000 C   0  0  0  0  0  0  0  0  0  0  0  0
    2.5989    1.5002    0.0000 C   0  0  0  0  0  0  0  0  0  0  0  0
    1.3000    0.7500    0.0000 C   0  0  0  0  0  0  0  0  0  0  0  0
   -0.0000    1.5000    0.0000 C   0  0  0  0  0  0  0  0  0  0  0  0
    1.3000   -0.7500    0.0000 C   0  0  0  0  0  0  0  0  0  0  0  0
   -1.3000    0.7500    0.0000 C   0  0  0  0  0  0  0  0  0  0  0  0
    0.0000   -1.5000    0.0000 C   0  0  0  0  0  0  0  0  0  0  0  0
   -1.3000   -0.7500    0.0000 C   0  0  0  0  0  0  0  0  0  0  0  0
    0.0000    3.0000    0.0000 F   0  0  0  0  0  0  0  0  0  0  0  0
    2.5989   -1.5002    0.0000 F   0  0  0  0  0  0  0  0  0  0  0  0
   -2.5989    1.5002    0.0000 F   0  0  0  0  0  0  0  0  0  0  0  0
   -0.0000   -3.0000    0.0000 F   0  0  0  0  0  0  0  0  0  0  0  0
   -2.5989   -1.5002    0.0000 F   0  0  0  0  0  0  0  0  0  0  0  0
    5.1970    1.5006    0.0000 N   0  0  0  0  0  0  0  0  0  0  0  0
    3.8981    0.7504    0.0000 O   0  0  0  0  0  0  0  0  0  0  0  0
  2  1  1  0
  3  2  1  0
  4  3  1  0
  4  5  2  0
  6  5  1  0
  8  7  1  0
  9  8  2  0
 10  8  1  0
 11  9  1  0
 12 10  2  0
 13 11  2  0
 13 12  1  0
 14  9  1  0
 15 10  1  0
 16 11  1  0
 17 12  1  0
 18 13  1  0
  6 19  2  0
 20  7  1  0
 20 19  1  0
M  END
>  <NAME>  (2213) 
2-HEXENAL O-2,3,4,5,6-PENTAFLUOROBENZYLOXIME

>  <SYNONYMS>  (2213) 


>  <SPECTRUM TYPE>  (2213) 
MS1

>  <INSTRUMENT TYPE>  (2213) 
EI-B

>  <INSTRUMENT>  (2213) 
HP 5970

>  <ION MODE>  (2213) 
P

>  <INCHIKEY>  (2213) 
UFLHMANGSVRSPF-QZRSKMOPSA-N

>  <FORMULA>  (2213) 
C13H12F5NO

>  <EXACT MASS>  (2213) 
293.08390510399994

>  <MW>  (2213) 
293

>  <ID>  (2213) 
JP008818

>  <CONTRIBUTOR>  (2213) 
University of Tokyo Team, {Faculty of Engineering, University of Tokyo

>  <COMMENT>  (2213) 
SMILES=CCCC=CC=NOCc(c(F)1)c(F)c(F)c(F)c(F)1
InChI=InChI=1S/C13H12F5NO/c1-2-3-4-5-6-19-20-7-8-9(14)11(16)13(18)12(17)10(8)15/h4-6H,2-3,7H2,1H3/b5-4+,19-6+
computed SMILES=FC=1C(F)=C(F)C(=C(F)C1F)CON=CC=CCCC
accession=JP008818
date=2016.01.19 (Created 2008.10.21, modified 2011.05.06)
author=UOEH
license=CC BY-NC-SA
exact mass=293.08391
ionization energy=70 eV
ion type=[M]+*
computed spectral entropy=2.1243461469756735
computed normalized entropy=0.6520206268245532
SPLASH=splash10-001i-5910000000-7578d910e46c4c7bd626
submitter=submitter = University of Tokyo Team (Faculty of Engineering, University of Tokyo)
MoNA Rating=3.75

>  <NUM PEAKS>  (2213) 
26

>  <MASS SPECTRAL PEAKS>  (2213) 
42 9.72
43 16.02
44 10.45
51 0.72
52 0.6
53 5.58
54 8.18
55 2.41
57 1
67 2.88
69 0.85
70 1.32
71 4.67
80 3.55
81 0.95
93 1.99
99 2.92
112 2.28
117 3.19
150 0.65
161 2.17
167 1.03
181 99.99
182 6.5
195 0.95
250 17.18

>  <PREDICTED SPECTRUM>  (2213) 
37 24
38 52
39 232
40 119
41 412
42 255
43 301
44 100
45 30
46 29
49 36
50 63
51 121
52 113
53 214
54 195
55 313
56 216
57 180
58 110
59 5
61 27
62 48
63 40
65 110
66 112
67 268
68 218
69 274
70 266
71 166
72 201
73 10
74 10
75 93
77 124
78 54
79 132
80 186
81 277
82 233
83 155
84 204
85 128
86 78
87 30
90 23
92 44
93 174
94 102
95 140
96 215
97 129
98 117
99 236
100 39
101 12
105 61
106 58
107 2
110 54
111 126
112 401
113 166
114 34
117 260
118 89
119 167
120 30
123 17
125 9
126 0
127 6
129 42
130 131
131 240
132 68
137 39
140 3
141 8
142 4
143 107
144 26
145 27
148 88
149 69
150 185
151 83
153 34
155 173
157 47
158 45
159 17
161 250
162 143
163 72
164 9
165 25
166 39
167 243
168 222
169 200
170 43
175 17
176 114
177 168
178 145
179 93
180 31
181 999
182 433
183 107
185 1
187 16
188 47
189 74
190 14
192 65
194 15
195 304
196 161
197 201
198 170
201 92
202 24
203 3
204 31
206 37
207 99
208 125
209 43
211 23
212 48
213 12
216 37
217 2
218 13
220 6
221 132
222 66
225 21
231 69
232 40
234 92
235 17
236 88
237 6
238 27
248 101
249 44
250 622
251 275
252 116
253 21
263 24
264 139
265 94
266 88
274 71
275 5
276 110
277 28
278 75
279 5
292 90
293 384
294 171
295 50

$$$$

     RDKit          2D

 21 21  0  0  0  0  0  0  0  0999 V2000
   14.2904    0.7521    0.0000 C   0  0  0  0  0  0  0  0  0  0  0  0
   12.9912    1.5019    0.0000 C   0  0  0  0  0  0  0  0  0  0  0  0
   11.6923    0.7517    0.0000 C   0  0  0  0  0  0  0  0  0  0  0  0
   10.3931    1.5015    0.0000 C   0  0  0  0  0  0  0  0  0  0  0  0
    9.0942    0.7512    0.0000 C   0  0  0  0  0  0  0  0  0  0  0  0
    7.7951    1.5010    0.0000 C   0  0  0  0  0  0  0  0  0  0  0  0
    6.4962    0.7508    0.0000 C   0  0  0  0  0  0  0  0  0  0  0  0
    2.5989    1.5002    0.0000 C   0  0  0  0  0  0  0  0  0  0  0  0
    1.3000    0.7500    0.0000 C   0  0  0  0  0  0  0  0  0  0  0  0
   -0.0000    1.5000    0.0000 C   0  0  0  0  0  0  0  0  0  0  0  0
    1.3000   -0.7500    0.0000 C   0  0  0  0  0  0  0  0  0  0  0  0
   -1.3000    0.7500    0.0000 C   0  0  0  0  0  0  0  0  0  0  0  0
    0.0000   -1.5000    0.0000 C   0  0  0  0  0  0  0  0  0  0  0  0
   -1.3000   -0.7500    0.0000 C   0  0  0  0  0  0  0  0  0  0  0  0
    0.0000    3.0000    0.0000 F   0  0  0  0  0  0  0  0  0  0  0  0
    2.5989   -1.5002    0.0000 F   0  0  0  0  0  0  0  0  0  0  0  0
   -2.5989    1.5002    0.0000 F   0  0  0  0  0  0  0  0  0  0  0  0
   -0.0000   -3.0000    0.0000 F   0  0  0  0  0  0  0  0  0  0  0  0
   -2.5989   -1.5002    0.0000 F   0  0  0  0  0  0  0  0  0  0  0  0
    5.1970    1.5006    0.0000 N   0  0  0  0  0  0  0  0  0  0  0  0
    3.8981    0.7504    0.0000 O   0  0  0  0  0  0  0  0  0  0  0  0
  2  1  1  0
  3  2  1  0
  4  3  1  0
  5  4  1  0
  5  6  2  0
  7  6  1  0
  9  8  1  0
 10  9  2  0
 11  9  1  0
 12 10  1  0
 13 11  2  0
 14 12  2  0
 14 13  1  0
 15 10  1  0
 16 11  1  0
 17 12  1  0
 18 13  1  0
 19 14  1  0
  7 20  2  0
 21  8  1  0
 21 20  1  0
M  END
>  <NAME>  (2214) 
2-HEPTENAL O-2,3,4,5,6-PENTAFLUOROBENZYLOXIME

>  <SYNONYMS>  (2214) 


>  <SPECTRUM TYPE>  (2214) 
MS1

>  <INSTRUMENT TYPE>  (2214) 
EI-B

>  <INSTRUMENT>  (2214) 
HP 5970

>  <ION MODE>  (2214) 
P

>  <INCHIKEY>  (2214) 
PEYJSQOBEFLESI-RGQKVHTQSA-N

>  <FORMULA>  (2214) 
C14H14F5NO

>  <EXACT MASS>  (2214) 
307.099555168

>  <MW>  (2214) 
307

>  <ID>  (2214) 
JP008817

>  <CONTRIBUTOR>  (2214) 
University of Tokyo Team, {Faculty of Engineering, University of Tokyo

>  <COMMENT>  (2214) 
SMILES=CCCCC=CC=NOCc(c(F)1)c(F)c(F)c(F)c(F)1
InChI=InChI=1S/C14H14F5NO/c1-2-3-4-5-6-7-20-21-8-9-10(15)12(17)14(19)13(18)11(9)16/h5-7H,2-4,8H2,1H3/b6-5+,20-7+
computed SMILES=FC=1C(F)=C(F)C(=C(F)C1F)CON=CC=CCCCC
accession=JP008817
date=2016.01.19 (Created 2008.10.21, modified 2011.05.06)
author=UOEH
license=CC BY-NC-SA
exact mass=307.09956
ionization energy=70 eV
ion type=[M]+*
computed spectral entropy=2.0726660485065023
computed normalized entropy=0.6705394959084495
SPLASH=splash10-001i-6910000000-91ef3473ff6e6afb3d20
submitter=submitter = University of Tokyo Team (Faculty of Engineering, University of Tokyo)
MoNA Rating=3.75

>  <NUM PEAKS>  (2214) 
22

>  <MASS SPECTRAL PEAKS>  (2214) 
42 2.71
43 10.02
44 12.18
51 0.88
53 5.24
54 5.7
55 5.34
56 2.84
57 11.5
67 4.32
69 2.95
80 2.61
81 1.32
84 1.49
85 2.72
99 3.04
117 1.34
126 1.57
161 1.43
181 99.99
182 6.23
250 17.17

>  <PREDICTED SPECTRUM>  (2214) 
29 13
37 13
38 29
39 168
40 69
41 340
42 152
43 244
44 44
45 0
49 34
50 54
51 98
52 83
53 160
54 155
55 216
56 144
57 168
58 85
61 12
62 25
63 37
65 83
66 80
67 190
68 163
69 205
70 190
71 119
72 143
73 0
75 71
77 93
79 114
80 141
81 242
82 157
83 131
84 233
85 140
86 67
87 15
88 5
90 11
91 87
92 75
93 191
94 102
95 170
96 191
97 134
98 226
99 197
100 65
105 22
106 26
107 36
108 65
109 97
110 155
111 115
112 116
113 51
114 24
115 34
117 230
118 88
119 168
120 29
123 24
124 28
125 115
126 336
127 137
129 33
130 68
131 188
132 16
137 30
141 8
143 134
144 33
145 4
148 43
149 37
150 82
151 43
153 23
155 137
156 4
157 58
161 214
162 150
163 14
167 200
168 223
169 158
171 8
174 3
175 10
176 125
177 167
178 137
179 108
180 77
181 999
182 419
183 87
184 75
186 1
188 52
189 15
190 6
191 48
193 15
195 296
196 141
197 208
198 150
199 15
202 39
203 69
204 36
205 13
206 106
207 100
208 55
215 98
216 55
218 7
220 78
221 131
222 157
223 87
225 33
226 47
231 43
232 10
234 25
235 92
236 67
239 29
245 70
246 34
247 19
248 93
249 35
250 458
251 234
252 120
255 11
263 8
264 594
265 288
266 143
277 42
278 105
279 40
288 18
289 14
290 37
292 19
293 4
306 34
307 379
308 159

$$$$

     RDKit          2D

 18 18  0  0  0  0  0  0  0  0999 V2000
   10.3931    1.5015    0.0000 C   0  0  0  0  0  0  0  0  0  0  0  0
    9.0942    0.7512    0.0000 C   0  0  0  0  0  0  0  0  0  0  0  0
    7.7951    1.5010    0.0000 C   0  0  0  0  0  0  0  0  0  0  0  0
    6.4962    0.7508    0.0000 C   0  0  0  0  0  0  0  0  0  0  0  0
    2.5989    1.5002    0.0000 C   0  0  0  0  0  0  0  0  0  0  0  0
    1.3000    0.7500    0.0000 C   0  0  0  0  0  0  0  0  0  0  0  0
   -0.0000    1.5000    0.0000 C   0  0  0  0  0  0  0  0  0  0  0  0
    1.3000   -0.7500    0.0000 C   0  0  0  0  0  0  0  0  0  0  0  0
   -1.3000    0.7500    0.0000 C   0  0  0  0  0  0  0  0  0  0  0  0
    0.0000   -1.5000    0.0000 C   0  0  0  0  0  0  0  0  0  0  0  0
   -1.3000   -0.7500    0.0000 C   0  0  0  0  0  0  0  0  0  0  0  0
    0.0000    3.0000    0.0000 F   0  0  0  0  0  0  0  0  0  0  0  0
    2.5989   -1.5002    0.0000 F   0  0  0  0  0  0  0  0  0  0  0  0
   -2.5989    1.5002    0.0000 F   0  0  0  0  0  0  0  0  0  0  0  0
   -0.0000   -3.0000    0.0000 F   0  0  0  0  0  0  0  0  0  0  0  0
   -2.5989   -1.5002    0.0000 F   0  0  0  0  0  0  0  0  0  0  0  0
    5.1970    1.5006    0.0000 N   0  0  0  0  0  0  0  0  0  0  0  0
    3.8981    0.7504    0.0000 O   0  0  0  0  0  0  0  0  0  0  0  0
  2  1  1  0
  2  3  2  0
  4  3  1  0
  6  5  1  0
  7  6  2  0
  8  6  1  0
  9  7  1  0
 10  8  2  0
 11  9  2  0
 11 10  1  0
 12  7  1  0
 13  8  1  0
 14  9  1  0
 15 10  1  0
 16 11  1  0
  4 17  2  0
 18  5  1  0
 18 17  1  0
M  END
>  <NAME>  (2215) 
CROTONALDEHYDE O-2,3,4,5,6-PENTAFLUOROBENZYLOXIME

>  <SYNONYMS>  (2215) 


>  <SPECTRUM TYPE>  (2215) 
MS1

>  <INSTRUMENT TYPE>  (2215) 
EI-B

>  <INSTRUMENT>  (2215) 
HP 5970

>  <ION MODE>  (2215) 
P

>  <INCHIKEY>  (2215) 
QNPFFCQTVXPCLD-GFJWLWTISA-N

>  <FORMULA>  (2215) 
C11H8F5NO

>  <EXACT MASS>  (2215) 
265.052604976

>  <MW>  (2215) 
265

>  <ID>  (2215) 
JP008816

>  <CONTRIBUTOR>  (2215) 
University of Tokyo Team, {Faculty of Engineering, University of Tokyo

>  <COMMENT>  (2215) 
SMILES=CC=CC=NOCc(c(F)1)c(F)c(F)c(F)c(F)1
InChI=InChI=1S/C11H8F5NO/c1-2-3-4-17-18-5-6-7(12)9(14)11(16)10(15)8(6)13/h2-4H,5H2,1H3/b3-2+,17-4+
computed SMILES=FC=1C(F)=C(F)C(=C(F)C1F)CON=CC=CC
accession=JP008816
date=2016.01.19 (Created 2008.10.21, modified 2011.05.06)
author=UOEH
license=CC BY-NC-SA
exact mass=265.0526
ionization energy=70 eV
ion type=[M]+*
computed spectral entropy=1.7068644948024592
computed normalized entropy=0.6024482760478598
SPLASH=splash10-001i-2910000000-5ed9f12747c2890172f4
submitter=submitter = University of Tokyo Team (Faculty of Engineering, University of Tokyo)
MoNA Rating=3.75

>  <NUM PEAKS>  (2215) 
17

>  <MASS SPECTRAL PEAKS>  (2215) 
42 2.94
43 17.02
44 7.2
51 1.43
53 1.07
93 2.1
98 0.96
99 2.24
117 3.84
119 0.9
161 5.09
167 1.15
181 99.99
182 8.05
195 2.35
250 18.98
265 3.68

>  <PREDICTED SPECTRUM>  (2215) 
37 50
38 85
39 297
40 172
41 414
42 380
43 335
44 96
45 78
49 56
50 106
51 215
52 174
53 309
54 277
55 317
56 254
57 163
58 119
60 24
61 49
62 100
63 53
64 5
65 73
66 135
67 322
68 328
69 327
70 147
71 70
72 93
73 29
74 114
75 231
76 22
77 86
78 34
79 118
80 74
81 301
82 86
83 194
84 421
85 164
86 64
87 52
88 40
90 25
91 1
92 49
93 296
94 87
95 28
96 12
97 46
98 156
99 379
100 50
101 32
102 24
104 34
105 44
106 80
111 41
112 154
113 39
115 24
117 254
118 114
119 267
120 41
122 11
123 38
126 24
129 38
130 140
131 231
132 28
133 11
134 1
135 36
136 27
137 138
140 0
141 15
142 45
143 195
144 40
146 13
148 174
149 184
150 232
151 37
155 176
156 91
161 310
162 205
163 104
164 104
165 34
166 4
167 297
168 228
169 205
173 11
176 68
177 110
179 19
180 46
181 999
182 359
183 28
186 45
187 61
188 8
193 19
194 12
195 312
196 188
197 200
198 90
207 127
208 65
216 2
220 18
221 135
222 16
223 21
235 123
236 10
237 11
246 18
248 65
249 18
250 617
251 229
252 55
264 208
265 474
266 180
267 21

$$$$

     RDKit          2D

 17 17  0  0  0  0  0  0  0  0999 V2000
    9.0942    0.7512    0.0000 C   0  0  0  0  0  0  0  0  0  0  0  0
    7.7951    1.5010    0.0000 C   0  0  0  0  0  0  0  0  0  0  0  0
    6.4962    0.7508    0.0000 C   0  0  0  0  0  0  0  0  0  0  0  0
    2.5989    1.5002    0.0000 C   0  0  0  0  0  0  0  0  0  0  0  0
    1.3000    0.7500    0.0000 C   0  0  0  0  0  0  0  0  0  0  0  0
   -0.0000    1.5000    0.0000 C   0  0  0  0  0  0  0  0  0  0  0  0
    1.3000   -0.7500    0.0000 C   0  0  0  0  0  0  0  0  0  0  0  0
   -1.3000    0.7500    0.0000 C   0  0  0  0  0  0  0  0  0  0  0  0
    0.0000   -1.5000    0.0000 C   0  0  0  0  0  0  0  0  0  0  0  0
   -1.3000   -0.7500    0.0000 C   0  0  0  0  0  0  0  0  0  0  0  0
    0.0000    3.0000    0.0000 F   0  0  0  0  0  0  0  0  0  0  0  0
    2.5989   -1.5002    0.0000 F   0  0  0  0  0  0  0  0  0  0  0  0
   -2.5989    1.5002    0.0000 F   0  0  0  0  0  0  0  0  0  0  0  0
   -0.0000   -3.0000    0.0000 F   0  0  0  0  0  0  0  0  0  0  0  0
   -2.5989   -1.5002    0.0000 F   0  0  0  0  0  0  0  0  0  0  0  0
    5.1970    1.5006    0.0000 N   0  0  0  0  0  0  0  0  0  0  0  0
    3.8981    0.7504    0.0000 O   0  0  0  0  0  0  0  0  0  0  0  0
  2  1  2  0
  3  2  1  0
  5  4  1  0
  6  5  2  0
  7  5  1  0
  8  6  1  0
  9  7  2  0
 10  8  2  0
 10  9  1  0
 11  6  1  0
 12  7  1  0
 13  8  1  0
 14  9  1  0
 15 10  1  0
  3 16  2  0
 17  4  1  0
 17 16  1  0
M  END
>  <NAME>  (2216) 
ACROLEIN O-2,3,4,5,6-PENTAFLUOROBENZYLOXIME

>  <SYNONYMS>  (2216) 


>  <SPECTRUM TYPE>  (2216) 
MS1

>  <INSTRUMENT TYPE>  (2216) 
EI-B

>  <INSTRUMENT>  (2216) 
HP 5970

>  <ION MODE>  (2216) 
P

>  <INCHIKEY>  (2216) 
ICDUEGOPUWNJNF-HQYXKAPLSA-N

>  <FORMULA>  (2216) 
C10H6F5NO

>  <EXACT MASS>  (2216) 
251.036954912

>  <MW>  (2216) 
251

>  <ID>  (2216) 
JP008815

>  <CONTRIBUTOR>  (2216) 
University of Tokyo Team, {Faculty of Engineering, University of Tokyo

>  <COMMENT>  (2216) 
SMILES=C=CC=NOCc(c(F)1)c(F)c(F)c(F)c(F)1
InChI=InChI=1S/C10H6F5NO/c1-2-3-16-17-4-5-6(11)8(13)10(15)9(14)7(5)12/h2-3H,1,4H2/b16-3+
computed SMILES=FC=1C(F)=C(F)C(=C(F)C1F)CON=CC=C
accession=JP008815
date=2016.01.19 (Created 2008.10.21, modified 2011.05.06)
author=UOEH
license=CC BY-NC-SA
exact mass=251.03695
ionization energy=70 eV
ion type=[M]+*
computed spectral entropy=2.111362271803315
computed normalized entropy=0.6038489077134392
SPLASH=splash10-001i-2900000000-798e0302bb63189e9d93
submitter=submitter = University of Tokyo Team (Faculty of Engineering, University of Tokyo)
MoNA Rating=3.75

>  <NUM PEAKS>  (2216) 
33

>  <MASS SPECTRAL PEAKS>  (2216) 
42 4.93
43 0.86
44 10.1
49 0.36
51 1.47
52 2.12
53 1.08
55 0.36
56 0.34
57 0.39
69 2.44
70 0.66
75 1.85
81 2.06
93 3.43
98 1.1
99 5.13
112 0.59
117 5.95
119 2.28
131 1.21
155 0.41
161 6.13
162 0.73
167 3.28
168 0.4
181 99.99
182 9.93
195 3.35
197 0.37
221 2.53
250 5.19
251 6.53

>  <PREDICTED SPECTRUM>  (2216) 
37 26
38 30
39 112
40 47
41 74
42 43
43 67
51 84
52 32
53 95
54 105
55 113
56 24
57 10
62 34
63 4
69 73
70 154
71 16
74 70
75 153
79 14
81 158
84 17
85 15
86 20
90 17
92 6
93 135
99 189
101 23
103 3
105 81
111 28
112 144
113 68
117 207
118 40
119 157
130 69
131 95
137 117
143 112
144 22
148 119
149 41
150 110
155 128
161 194
162 144
167 200
168 131
169 4
173 4
181 999
182 325
195 177
196 115
197 33
221 136
222 4
223 8
232 12
234 19
235 3
250 151
251 279
252 89

$$$$

     RDKit          2D

 31 32  0  0  0  0  0  0  0  0999 V2000
    7.7948    3.0010    0.0000 C   0  0  0  0  0  0  0  0  0  0  0  0
    6.4962    0.7508    0.0000 C   0  0  0  0  0  0  0  0  0  0  0  0
    2.5989    1.5002    0.0000 C   0  0  0  0  0  0  0  0  0  0  0  0
   11.6923    0.7517    0.0000 C   0  0  0  0  0  0  0  0  0  0  0  0
    7.7951    1.5010    0.0000 C   0  0  0  0  0  0  0  0  0  0  0  0
    1.3000    0.7500    0.0000 C   0  0  0  0  0  0  0  0  0  0  0  0
   12.9912    1.5019    0.0000 C   0  0  0  0  0  0  0  0  0  0  0  0
   -0.0000    1.5000    0.0000 C   0  0  0  0  0  0  0  0  0  0  0  0
    1.3000   -0.7500    0.0000 C   0  0  0  0  0  0  0  0  0  0  0  0
   14.2912    0.7519    0.0000 C   0  0  0  0  0  0  0  0  0  0  0  0
   12.9912    3.0019    0.0000 C   0  0  0  0  0  0  0  0  0  0  0  0
   -1.3000    0.7500    0.0000 C   0  0  0  0  0  0  0  0  0  0  0  0
   -0.0000   -1.5000    0.0000 C   0  0  0  0  0  0  0  0  0  0  0  0
   15.5912    1.5019    0.0000 C   0  0  0  0  0  0  0  0  0  0  0  0
   14.2912    3.7519    0.0000 C   0  0  0  0  0  0  0  0  0  0  0  0
   -1.3000   -0.7500    0.0000 C   0  0  0  0  0  0  0  0  0  0  0  0
   15.5912    3.0019    0.0000 C   0  0  0  0  0  0  0  0  0  0  0  0
    0.0000    3.0000    0.0000 F   0  0  0  0  0  0  0  0  0  0  0  0
    2.5989   -1.5002    0.0000 F   0  0  0  0  0  0  0  0  0  0  0  0
   14.2912   -0.7481    0.0000 F   0  0  0  0  0  0  0  0  0  0  0  0
   11.6923    3.7521    0.0000 F   0  0  0  0  0  0  0  0  0  0  0  0
   -2.5989    1.5002    0.0000 F   0  0  0  0  0  0  0  0  0  0  0  0
   -0.0000   -3.0000    0.0000 F   0  0  0  0  0  0  0  0  0  0  0  0
   16.8901    0.7517    0.0000 F   0  0  0  0  0  0  0  0  0  0  0  0
   14.2912    5.2519    0.0000 F   0  0  0  0  0  0  0  0  0  0  0  0
   -2.5989   -1.5002    0.0000 F   0  0  0  0  0  0  0  0  0  0  0  0
   16.8901    3.7521    0.0000 F   0  0  0  0  0  0  0  0  0  0  0  0
    5.1970    1.5006    0.0000 N   0  0  0  0  0  0  0  0  0  0  0  0
    9.0942    0.7512    0.0000 N   0  0  0  0  0  0  0  0  0  0  0  0
    3.8981    0.7504    0.0000 O   0  0  0  0  0  0  0  0  0  0  0  0
   10.3931    1.5015    0.0000 O   0  0  0  0  0  0  0  0  0  0  0  0
  5  1  1  0
  5  2  1  0
  6  3  1  0
  7  4  1  0
  8  6  2  0
  9  6  1  0
 10  7  2  0
 11  7  1  0
 12  8  1  0
 13  9  2  0
 14 10  1  0
 15 11  2  0
 16 12  2  0
 16 13  1  0
 17 14  2  0
 17 15  1  0
 18  8  1  0
 19  9  1  0
 20 10  1  0
 21 11  1  0
 22 12  1  0
 23 13  1  0
 24 14  1  0
 25 15  1  0
 26 16  1  0
 27 17  1  0
 28  2  2  3
 29  5  2  3
 30  3  1  0
 30 28  1  0
 31  4  1  0
 31 29  1  0
M  END
>  <NAME>  (2217) 
PYRUVALDEHYDE BIS(O-2,3,4,5,6-PENTAFLUOROBENZYLOXIME)

>  <SYNONYMS>  (2217) 


>  <SPECTRUM TYPE>  (2217) 
MS1

>  <INSTRUMENT TYPE>  (2217) 
EI-B

>  <INSTRUMENT>  (2217) 
HP 5970

>  <ION MODE>  (2217) 
P

>  <INCHIKEY>  (2217) 
ULNZDMZUVMUJSZ-UHFFFAOYSA-N

>  <FORMULA>  (2217) 
C17H8F10N2O2

>  <EXACT MASS>  (2217) 
462.042609696

>  <MW>  (2217) 
462

>  <ID>  (2217) 
JP008814

>  <CONTRIBUTOR>  (2217) 
University of Tokyo Team, {Faculty of Engineering, University of Tokyo

>  <COMMENT>  (2217) 
SMILES=CC(C=NOCc(c(F)2)c(F)c(F)c(F)c(F)2)=NOCc(c(F)1)c(F)c(F)c(F)c(F)1
InChI=InChI=1S/C17H8F10N2O2/c1-5(29-31-4-7-10(20)14(24)17(27)15(25)11(7)21)2-28-30-3-6-8(18)12(22)16(26)13(23)9(6)19/h2H,3-4H2,1H3
computed SMILES=FC=1C(F)=C(F)C(=C(F)C1F)CON=CC(=NOCC=2C(F)=C(F)C(F)=C(F)C2F)C
computed InChI=InChI=1S/C17H8F10N2O2/c1-5(29-31-4-7-10(20)14(24)17(27)15(25)11(7)21)2-28-30-3-6-8(18)12(22)16(26)13(23)9(6)19/h2H,3-4H2,1H3/b28-2+,29-5?
accession=JP008814
date=2016.01.19 (Created 2008.10.21, modified 2011.05.06)
author=UOEH
license=CC BY-NC-SA
exact mass=462.04261
ionization energy=70 eV
ion type=[M]+*
computed spectral entropy=1.98952379728016
computed normalized entropy=0.4879228761598986
SPLASH=splash10-001i-1900000000-cfef677c3ba9a1b7e8f8
submitter=submitter = University of Tokyo Team (Faculty of Engineering, University of Tokyo)
MoNA Rating=3.75

>  <NUM PEAKS>  (2217) 
59

>  <MASS SPECTRAL PEAKS>  (2217) 
42 2.31
43 1.07
44 2.99
51 0.76
53 0.24
54 1.08
55 0.59
56 0.09
57 0.83
62 0.21
68 0.16
69 1.82
70 0.07
71 0.55
72 0.28
74 0.13
75 1.17
79 0.46
80 0.37
81 1.54
84 0.86
86 0.29
93 1.62
98 0.69
99 2.69
100 0.06
105 0.11
111 0.31
112 0.79
117 2.74
118 0.38
119 1.68
130 0.1
131 1.36
137 0.35
143 0.62
148 0.26
149 1.3
150 0.75
155 0.77
161 3.78
162 1.03
163 0.08
167 2.2
168 1.08
169 0.23
177 0.26
181 99.99
182 7.19
195 2.42
196 0.66
197 0.49
198 0.24
248 0.25
249 0.23
265 4.34
266 0.44
267 0.54
432 0.21

>  <PREDICTED SPECTRUM>  (2217) 
39 71
41 24
42 6
43 91
46 5
50 15
51 56
52 37
53 76
54 76
55 145
56 79
57 49
65 1
66 66
67 132
68 133
69 98
70 79
71 32
72 77
73 30
74 68
75 145
78 19
79 66
80 37
81 135
82 32
83 31
84 87
85 77
86 35
88 1
91 28
92 22
93 89
94 24
95 36
96 40
97 12
98 111
99 161
100 60
103 15
105 89
106 66
107 46
108 15
109 16
112 128
113 88
116 31
117 193
118 80
119 136
121 1
122 76
123 0
129 6
130 15
131 105
136 16
137 88
140 5
143 95
144 17
145 29
147 22
148 210
149 80
150 209
151 31
154 29
155 130
156 28
158 8
161 254
162 131
167 199
168 212
169 143
176 39
177 164
178 115
181 999
182 380
184 13
186 12
190 4
191 35
192 0
193 25
195 260
196 211
197 103
198 170
205 1
206 13
213 7
221 24
222 49
223 42
228 3
236 50
237 0
239 28
240 12
246 43
247 30
248 96
249 82
250 138
251 195
252 68
253 16
254 27
255 0
264 55
265 239
266 149
281 83
334 12
346 31
356 7
429 6
431 15
433 8
445 53
446 46
447 53
448 45
449 27
462 306
463 107
464 17
465 19

$$$$

     RDKit          2D

 30 31  0  0  0  0  0  0  0  0999 V2000
    7.1455    1.8759    0.0000 C   0  0  0  0  0  0  0  0  0  0  0  0
    7.1457    0.3759    0.0000 C   0  0  0  0  0  0  0  0  0  0  0  0
   11.0425    2.6266    0.0000 C   0  0  0  0  0  0  0  0  0  0  0  0
    3.2487   -0.3747    0.0000 C   0  0  0  0  0  0  0  0  0  0  0  0
   12.3416    1.8768    0.0000 C   0  0  0  0  0  0  0  0  0  0  0  0
    1.9496    0.3751    0.0000 C   0  0  0  0  0  0  0  0  0  0  0  0
   13.6414    2.6272    0.0000 C   0  0  0  0  0  0  0  0  0  0  0  0
   12.3421    0.3768    0.0000 C   0  0  0  0  0  0  0  0  0  0  0  0
    0.6498   -0.3753    0.0000 C   0  0  0  0  0  0  0  0  0  0  0  0
    1.9491    1.8751    0.0000 C   0  0  0  0  0  0  0  0  0  0  0  0
   14.9416    1.8776    0.0000 C   0  0  0  0  0  0  0  0  0  0  0  0
   13.6424   -0.3728    0.0000 C   0  0  0  0  0  0  0  0  0  0  0  0
   -0.6504    0.3743    0.0000 C   0  0  0  0  0  0  0  0  0  0  0  0
    0.6489    2.6247    0.0000 C   0  0  0  0  0  0  0  0  0  0  0  0
   14.9421    0.3776    0.0000 C   0  0  0  0  0  0  0  0  0  0  0  0
   -0.6509    1.8743    0.0000 C   0  0  0  0  0  0  0  0  0  0  0  0
   13.6409    4.1272    0.0000 F   0  0  0  0  0  0  0  0  0  0  0  0
   11.0434   -0.3739    0.0000 F   0  0  0  0  0  0  0  0  0  0  0  0
    0.6503   -1.8753    0.0000 F   0  0  0  0  0  0  0  0  0  0  0  0
    3.2478    2.6257    0.0000 F   0  0  0  0  0  0  0  0  0  0  0  0
   16.2403    2.6282    0.0000 F   0  0  0  0  0  0  0  0  0  0  0  0
   13.6428   -1.8728    0.0000 F   0  0  0  0  0  0  0  0  0  0  0  0
   -1.9491   -0.3764    0.0000 F   0  0  0  0  0  0  0  0  0  0  0  0
    0.6484    4.1247    0.0000 F   0  0  0  0  0  0  0  0  0  0  0  0
   16.2413   -0.3722    0.0000 F   0  0  0  0  0  0  0  0  0  0  0  0
   -1.9501    2.6241    0.0000 F   0  0  0  0  0  0  0  0  0  0  0  0
    8.4444    2.6261    0.0000 N   0  0  0  0  0  0  0  0  0  0  0  0
    5.8468   -0.3743    0.0000 N   0  0  0  0  0  0  0  0  0  0  0  0
    9.7436    1.8764    0.0000 O   0  0  0  0  0  0  0  0  0  0  0  0
    4.5477    0.3755    0.0000 O   0  0  0  0  0  0  0  0  0  0  0  0
  2  1  1  0
  5  3  1  0
  6  4  1  0
  7  5  2  0
  8  5  1  0
  9  6  2  0
 10  6  1  0
 11  7  1  0
 12  8  2  0
 13  9  1  0
 14 10  2  0
 15 11  2  0
 15 12  1  0
 16 13  2  0
 16 14  1  0
 17  7  1  0
 18  8  1  0
 19  9  1  0
 20 10  1  0
 21 11  1  0
 22 12  1  0
 23 13  1  0
 24 14  1  0
 25 15  1  0
 26 16  1  0
  1 27  2  0
  2 28  2  0
 29  3  1  0
 29 27  1  0
 30  4  1  0
 30 28  1  0
M  END
>  <NAME>  (2218) 
GLYOXAL BIS(O-2,3,4,5,6-PENTAFLUOROBENZYLOXIME)

>  <SYNONYMS>  (2218) 


>  <SPECTRUM TYPE>  (2218) 
MS1

>  <INSTRUMENT TYPE>  (2218) 
EI-B

>  <INSTRUMENT>  (2218) 
HP 5970

>  <ION MODE>  (2218) 
P

>  <INCHIKEY>  (2218) 
VNVBOBJSRGZDCW-OFELNDECSA-N

>  <FORMULA>  (2218) 
C16H6F10N2O2

>  <EXACT MASS>  (2218) 
448.026959632

>  <MW>  (2218) 
448

>  <ID>  (2218) 
JP008813

>  <CONTRIBUTOR>  (2218) 
University of Tokyo Team, {Faculty of Engineering, University of Tokyo

>  <COMMENT>  (2218) 
SMILES=C(C=NOCc(c(F)2)c(F)c(F)c(F)c(F)2)=NOCc(c(F)1)c(F)c(F)c(F)c(F)1
InChI=InChI=1S/C16H6F10N2O2/c17-7-5(8(18)12(22)15(25)11(7)21)3-29-27-1-2-28-30-4-6-9(19)13(23)16(26)14(24)10(6)20/h1-2H,3-4H2/b27-1-,28-2-
computed SMILES=FC=1C(F)=C(F)C(=C(F)C1F)CON=CC=NOCC=2C(F)=C(F)C(F)=C(F)C2F
accession=JP008813
date=2016.01.19 (Created 2008.10.21, modified 2011.05.06)
author=UOEH
license=CC BY-NC-SA
exact mass=448.02696
ionization energy=70 eV
ion type=[M]+*
computed spectral entropy=2.4257700873910046
computed normalized entropy=0.5653870222210327
SPLASH=splash10-001i-2900000000-c32b2ccf9723ef4f0a45
submitter=submitter = University of Tokyo Team (Faculty of Engineering, University of Tokyo)
MoNA Rating=3.75

>  <NUM PEAKS>  (2218) 
73

>  <MASS SPECTRAL PEAKS>  (2218) 
42 0.25
43 2.81
44 2.7
51 1.12
53 0.22
54 0.16
55 2.71
56 0.9
57 2.37
61 0.1
62 0.23
67 1.14
68 0.66
69 3.69
70 0.64
71 1.13
74 0.28
75 1.26
79 1.19
80 0.56
81 2.96
82 0.23
83 0.95
85 0.56
86 0.13
91 0.74
93 2.46
95 1.44
97 0.9
98 0.98
99 3.23
105 0.72
107 0.45
109 0.76
111 1
112 0.95
113 0.3
117 3.84
118 0.71
119 2.51
123 0.63
124 0.16
129 0.38
130 0.33
131 1.86
137 0.93
143 0.84
148 0.49
149 0.97
150 1.08
151 0.36
155 1.08
161 0.43
162 1
167 2.65
168 1.38
169 0.4
177 0.67
178 0.33
179 0.17
181 99.99
182 7.15
183 0.16
195 2.86
196 0.67
197 0.79
198 0.68
235 0.36
251 0.63
253 0.17
418 0.08
448 1.96
449 0.11

>  <PREDICTED SPECTRUM>  (2218) 
29 36
39 21
41 73
42 57
43 83
44 26
51 28
52 20
53 62
54 33
55 30
56 48
57 46
63 7
65 13
66 8
68 2
69 40
70 26
71 66
73 28
74 47
75 127
77 35
79 21
80 16
81 109
82 51
84 23
86 19
91 17
92 2
93 69
99 39
101 0
102 23
103 33
105 81
106 55
107 71
108 74
109 23
112 68
113 58
115 12
116 10
117 103
118 44
119 68
127 6
129 56
130 24
131 53
134 54
135 51
136 6
141 31
143 45
144 2
145 9
148 188
150 156
151 74
154 16
155 38
158 5
161 242
162 143
167 201
168 185
169 128
170 24
176 6
177 30
178 75
181 999
182 386
192 17
194 18
195 187
196 135
197 137
198 106
199 27
200 16
208 33
209 31
210 22
213 15
226 14
232 21
233 22
234 23
235 2
236 35
237 67
238 54
239 14
240 54
250 4
251 174
252 108
267 53
268 24
298 4
346 63
417 4
418 1
429 22
448 161
449 21

$$$$

     RDKit          2D

 21 22  0  0  0  0  0  0  0  0999 V2000
    4.8723    3.1326    0.0000 C   0  0  0  0  0  0  0  0  0  0  0  0
    4.8728    4.6334    0.0000 C   0  0  0  0  0  0  0  0  0  0  0  0
    3.5728    2.3817    0.0000 C   0  0  0  0  0  0  0  0  0  0  0  0
    3.5738    5.3834    0.0000 C   0  0  0  0  0  0  0  0  0  0  0  0
    2.2738    3.1317    0.0000 C   0  0  0  0  0  0  0  0  0  0  0  0
    0.9752    5.3826    0.0000 C   0  0  0  0  0  0  0  0  0  0  0  0
   -2.9219    4.6326    0.0000 C   0  0  0  0  0  0  0  0  0  0  0  0
    2.2742    4.6326    0.0000 C   0  0  0  0  0  0  0  0  0  0  0  0
   -4.2209    5.3826    0.0000 C   0  0  0  0  0  0  0  0  0  0  0  0
   -4.2212    6.8834    0.0000 C   0  0  0  0  0  0  0  0  0  0  0  0
   -5.5201    4.6328    0.0000 C   0  0  0  0  0  0  0  0  0  0  0  0
   -5.5206    7.6344    0.0000 C   0  0  0  0  0  0  0  0  0  0  0  0
   -6.8195    5.3838    0.0000 C   0  0  0  0  0  0  0  0  0  0  0  0
   -6.8197    6.8846    0.0000 C   0  0  0  0  0  0  0  0  0  0  0  0
   -2.9220    7.6332    0.0000 F   0  0  0  0  0  0  0  0  0  0  0  0
   -5.5206    3.1328    0.0000 F   0  0  0  0  0  0  0  0  0  0  0  0
   -5.5201    9.1344    0.0000 F   0  0  0  0  0  0  0  0  0  0  0  0
   -8.1187    4.6340    0.0000 F   0  0  0  0  0  0  0  0  0  0  0  0
   -8.1188    7.6346    0.0000 F   0  0  0  0  0  0  0  0  0  0  0  0
   -0.3238    4.6326    0.0000 N   0  0  0  0  0  0  0  0  0  0  0  0
   -1.6229    5.3826    0.0000 O   0  0  0  0  0  0  0  0  0  0  0  0
  2  1  2  0
  3  1  1  0
  4  2  1  0
  5  3  2  0
  8  4  2  0
  8  5  1  0
  8  6  1  0
  9  7  1  0
 10  9  2  0
 11  9  1  0
 12 10  1  0
 13 11  2  0
 14 12  2  0
 14 13  1  0
 15 10  1  0
 16 11  1  0
 17 12  1  0
 18 13  1  0
 19 14  1  0
  6 20  2  0
 21  7  1  0
 21 20  1  0
M  END
>  <NAME>  (2219) 
BENZALDEHYDE O-2,3,4,5,6-PENTAFLUOROBENZYLOXIME

>  <SYNONYMS>  (2219) 


>  <SPECTRUM TYPE>  (2219) 
MS1

>  <INSTRUMENT TYPE>  (2219) 
EI-B

>  <INSTRUMENT>  (2219) 
HP 5970

>  <ION MODE>  (2219) 
P

>  <INCHIKEY>  (2219) 
UKSAZCDAGVHMRF-CGOBSMCZSA-N

>  <FORMULA>  (2219) 
C14H8F5NO

>  <EXACT MASS>  (2219) 
301.052604976

>  <MW>  (2219) 
301

>  <ID>  (2219) 
JP008812

>  <CONTRIBUTOR>  (2219) 
University of Tokyo Team, {Faculty of Engineering, University of Tokyo

>  <COMMENT>  (2219) 
SMILES=c(c2)ccc(c2)C=NOCc(c(F)1)c(F)c(F)c(F)c(F)1
InChI=InChI=1S/C14H8F5NO/c15-10-9(11(16)13(18)14(19)12(10)17)7-21-20-6-8-4-2-1-3-5-8/h1-6H,7H2/b20-6+
computed SMILES=FC=1C(F)=C(F)C(=C(F)C1F)CON=CC=2C=CC=CC2
accession=JP008812
date=2016.01.19 (Created 2008.10.21, modified 2011.05.06)
author=UOEH
license=CC BY-NC-SA
exact mass=301.0526
ionization energy=70 eV
ion type=[M]+*
computed spectral entropy=2.813081553571731
computed normalized entropy=0.6988411869815971
SPLASH=splash10-001i-7901000000-9dd18da2d981e1de5425
submitter=submitter = University of Tokyo Team (Faculty of Engineering, University of Tokyo)
MoNA Rating=3.75

>  <NUM PEAKS>  (2219) 
56

>  <MASS SPECTRAL PEAKS>  (2219) 
43 0.17
44 3.09
49 0.23
50 6.45
51 15.31
52 2.26
53 0.21
57 0.18
62 1.3
63 4.59
64 2.79
65 14.74
66 1.3
69 1.75
74 1.95
75 3.18
76 4.87
77 14.33
78 1.54
79 0.5
80 0.46
81 1.18
88 0.19
89 8.99
90 3.35
92 3.78
93 2.82
98 0.61
99 3.85
102 0.9
103 6.54
104 1.88
112 0.58
117 3.83
119 1.49
120 0.81
131 0.97
137 0.19
143 0.41
150 0.52
155 0.78
161 3.91
167 2.31
168 0.74
177 0.28
181 99.99
182 7.22
195 2.46
198 0.25
258 1.18
271 6.9
272 0.81
284 0.32
300 2.66
301 13.64
302 1.69

>  <PREDICTED SPECTRUM>  (2219) 
37 45
38 88
39 188
40 61
41 51
43 38
44 22
46 7
49 25
50 177
51 297
52 158
53 109
54 44
55 47
56 24
57 59
58 2
61 71
62 129
63 212
64 148
65 174
66 52
67 53
69 138
70 69
73 12
74 118
75 197
76 171
77 311
78 177
79 169
80 65
81 147
84 8
85 16
86 68
87 64
88 104
89 194
90 229
91 130
92 148
93 205
94 39
95 0
98 162
99 187
100 17
102 98
103 168
104 163
105 144
106 62
107 32
109 26
110 29
111 12
112 88
115 13
116 0
117 327
118 76
119 189
120 214
121 57
125 8
130 75
131 88
134 28
135 35
137 114
140 21
142 67
143 175
144 70
148 83
150 68
151 55
152 26
155 120
156 2
161 269
162 114
163 52
165 51
166 43
167 301
168 188
169 152
176 3
177 40
178 50
180 82
181 999
182 354
183 32
186 4
195 278
196 97
197 82
198 93
207 62
218 15
223 34
225 6
226 26
252 23
258 29
271 203
272 64
273 11
274 9
280 33
282 4
283 18
284 128
285 78
300 306
301 627
302 259
303 45

$$$$

     RDKit          2D

 18 18  0  0  0  0  0  0  0  0999 V2000
   10.3928    6.0026    0.0000 C   0  0  0  0  0  0  0  0  0  0  0  0
   10.3932    3.0026    0.0000 C   0  0  0  0  0  0  0  0  0  0  0  0
    9.0938    5.2523    0.0000 C   0  0  0  0  0  0  0  0  0  0  0  0
    5.1971    3.0017    0.0000 C   0  0  0  0  0  0  0  0  0  0  0  0
    9.0941    3.7523    0.0000 C   0  0  0  0  0  0  0  0  0  0  0  0
    3.8979    3.7515    0.0000 C   0  0  0  0  0  0  0  0  0  0  0  0
    2.5982    3.0011    0.0000 C   0  0  0  0  0  0  0  0  0  0  0  0
    3.8974    5.2515    0.0000 C   0  0  0  0  0  0  0  0  0  0  0  0
    1.2979    3.7507    0.0000 C   0  0  0  0  0  0  0  0  0  0  0  0
    2.5972    6.0011    0.0000 C   0  0  0  0  0  0  0  0  0  0  0  0
    1.2974    5.2507    0.0000 C   0  0  0  0  0  0  0  0  0  0  0  0
    2.5986    1.5011    0.0000 F   0  0  0  0  0  0  0  0  0  0  0  0
    5.1961    6.0021    0.0000 F   0  0  0  0  0  0  0  0  0  0  0  0
   -0.0008    3.0001    0.0000 F   0  0  0  0  0  0  0  0  0  0  0  0
    2.5967    7.5011    0.0000 F   0  0  0  0  0  0  0  0  0  0  0  0
   -0.0017    6.0005    0.0000 F   0  0  0  0  0  0  0  0  0  0  0  0
    7.7952    3.0021    0.0000 N   0  0  0  0  0  0  0  0  0  0  0  0
    6.4960    3.7519    0.0000 O   0  0  0  0  0  0  0  0  0  0  0  0
  3  1  1  0
  5  2  1  0
  5  3  1  0
  6  4  1  0
  7  6  2  0
  8  6  1  0
  9  7  1  0
 10  8  2  0
 11  9  2  0
 11 10  1  0
 12  7  1  0
 13  8  1  0
 14  9  1  0
 15 10  1  0
 16 11  1  0
  5 17  2  0
 18  4  1  0
 18 17  1  0
M  END
>  <NAME>  (2220) 
METHYL ETHYL KETONE O-2,3,4,5,6-PENTAFLUOROBENZYLOXIME

>  <SYNONYMS>  (2220) 


>  <SPECTRUM TYPE>  (2220) 
MS1

>  <INSTRUMENT TYPE>  (2220) 
EI-B

>  <INSTRUMENT>  (2220) 
HP 5970

>  <ION MODE>  (2220) 
P

>  <INCHIKEY>  (2220) 
LNDQFOSWZJYEIC-ZWSORDCHSA-N

>  <FORMULA>  (2220) 
C11H10F5NO

>  <EXACT MASS>  (2220) 
267.06825504

>  <MW>  (2220) 
267

>  <ID>  (2220) 
JP008810

>  <CONTRIBUTOR>  (2220) 
University of Tokyo Team, {Faculty of Engineering, University of Tokyo

>  <COMMENT>  (2220) 
SMILES=CCC(C)=NOCc(c(F)1)c(F)c(F)c(F)c(F)1
InChI=InChI=1S/C11H10F5NO/c1-3-5(2)17-18-4-6-7(12)9(14)11(16)10(15)8(6)13/h3-4H2,1-2H3/b17-5-
computed SMILES=FC=1C(F)=C(F)C(=C(F)C1F)CON=C(C)CC
accession=JP008810
date=2016.01.19 (Created 2008.10.21, modified 2011.05.06)
author=UOEH
license=CC BY-NC-SA
exact mass=267.06825
ionization energy=70 eV
ion type=[M]+*
computed spectral entropy=2.5337409422796515
computed normalized entropy=0.6294458563984293
SPLASH=splash10-001i-4910000000-b46d0436bc0343a256d2
submitter=submitter = University of Tokyo Team (Faculty of Engineering, University of Tokyo)
MoNA Rating=3.75

>  <NUM PEAKS>  (2220) 
56

>  <MASS SPECTRAL PEAKS>  (2220) 
41 7.68
42 12.54
43 1.25
44 0.96
51 0.7
52 0.18
53 0.51
54 0.91
55 3.35
56 22.42
57 1.23
68 2.92
69 1.78
70 0.44
71 0.48
75 1.07
79 0.23
81 1.13
86 4.41
93 1.62
98 0.58
99 2.87
111 0.2
112 0.5
117 2.82
118 0.22
119 1.75
130 0.19
131 1.13
137 0.67
143 0.42
148 0.23
149 0.26
150 0.89
155 1.01
161 3.38
162 0.65
167 3.18
168 1.43
169 0.88
177 0.65
181 99.99
182 7.5
190 0.56
195 8.57
196 1.55
197 1.02
217 0.18
220 0.89
234 1.28
237 0.88
250 17.49
251 2.15
252 0.7
267 3.63
268 0.24

>  <PREDICTED SPECTRUM>  (2220) 
33 9
37 39
38 45
39 196
40 113
41 329
42 361
43 227
44 201
45 84
46 18
49 23
50 57
51 114
52 98
53 203
54 196
55 276
56 308
57 173
58 186
59 79
60 51
62 33
64 3
67 130
68 169
69 170
70 211
71 108
72 198
73 8
74 56
75 106
79 37
80 40
81 183
83 31
85 29
86 358
87 105
88 9
91 29
92 7
93 195
94 16
98 72
99 213
100 13
105 34
106 24
108 31
111 5
112 150
113 36
117 250
118 64
119 185
120 20
122 10
124 10
125 6
127 1
128 27
130 27
131 153
136 30
137 64
143 128
144 33
148 106
149 101
150 174
155 148
161 245
162 143
163 59
164 13
167 219
168 163
169 159
171 38
175 24
176 29
177 171
178 84
181 999
182 350
183 23
188 4
189 33
190 20
193 8
195 283
196 132
197 149
198 48
207 57
208 3
218 18
219 10
221 47
222 24
234 59
236 43
237 52
238 39
239 65
240 4
248 10
250 263
251 103
252 162
253 100
266 129
267 347
268 137
269 9

$$$$

     RDKit          2D

 17 17  0  0  0  0  0  0  0  0999 V2000
    7.7951    1.5010    0.0000 C   0  0  0  0  0  0  0  0  0  0  0  0
    6.4964   -0.7492    0.0000 C   0  0  0  0  0  0  0  0  0  0  0  0
    2.5989    1.5002    0.0000 C   0  0  0  0  0  0  0  0  0  0  0  0
    6.4962    0.7508    0.0000 C   0  0  0  0  0  0  0  0  0  0  0  0
    1.3000    0.7500    0.0000 C   0  0  0  0  0  0  0  0  0  0  0  0
   -0.0000    1.5000    0.0000 C   0  0  0  0  0  0  0  0  0  0  0  0
    1.3000   -0.7500    0.0000 C   0  0  0  0  0  0  0  0  0  0  0  0
   -1.3000    0.7500    0.0000 C   0  0  0  0  0  0  0  0  0  0  0  0
    0.0000   -1.5000    0.0000 C   0  0  0  0  0  0  0  0  0  0  0  0
   -1.3000   -0.7500    0.0000 C   0  0  0  0  0  0  0  0  0  0  0  0
    0.0000    3.0000    0.0000 F   0  0  0  0  0  0  0  0  0  0  0  0
    2.5989   -1.5002    0.0000 F   0  0  0  0  0  0  0  0  0  0  0  0
   -2.5989    1.5002    0.0000 F   0  0  0  0  0  0  0  0  0  0  0  0
   -0.0000   -3.0000    0.0000 F   0  0  0  0  0  0  0  0  0  0  0  0
   -2.5989   -1.5002    0.0000 F   0  0  0  0  0  0  0  0  0  0  0  0
    5.1970    1.5006    0.0000 N   0  0  0  0  0  0  0  0  0  0  0  0
    3.8981    0.7504    0.0000 O   0  0  0  0  0  0  0  0  0  0  0  0
  4  1  1  0
  4  2  1  0
  5  3  1  0
  6  5  2  0
  7  5  1  0
  8  6  1  0
  9  7  2  0
 10  8  2  0
 10  9  1  0
 11  6  1  0
 12  7  1  0
 13  8  1  0
 14  9  1  0
 15 10  1  0
 16  4  2  0
 17  3  1  0
 17 16  1  0
M  END
>  <NAME>  (2221) 
ACETONE O-2,3,4,5,6-PENTAFLUOROBENZYLOXIME

>  <SYNONYMS>  (2221) 


>  <SPECTRUM TYPE>  (2221) 
MS1

>  <INSTRUMENT TYPE>  (2221) 
EI-B

>  <INSTRUMENT>  (2221) 
HP 5970

>  <ION MODE>  (2221) 
P

>  <INCHIKEY>  (2221) 
DLIFNTQMBOCKTL-UHFFFAOYSA-N

>  <FORMULA>  (2221) 
C10H8F5NO

>  <EXACT MASS>  (2221) 
253.052604976

>  <MW>  (2221) 
253

>  <ID>  (2221) 
JP008809

>  <CONTRIBUTOR>  (2221) 
University of Tokyo Team, {Faculty of Engineering, University of Tokyo

>  <COMMENT>  (2221) 
SMILES=CC(C)=NOCc(c(F)1)c(F)c(F)c(F)c(F)1
InChI=InChI=1S/C10H8F5NO/c1-4(2)16-17-3-5-6(11)8(13)10(15)9(14)7(5)12/h3H2,1-2H3
computed SMILES=FC=1C(F)=C(F)C(=C(F)C1F)CON=C(C)C
accession=JP008809
date=2016.01.19 (Created 2008.10.21, modified 2011.05.06)
author=UOEH
license=CC BY-NC-SA
exact mass=253.0526
ionization energy=70 eV
ion type=[M]+*
computed spectral entropy=2.4797378088246815
computed normalized entropy=0.5627174479890303
SPLASH=splash10-001i-2910000000-6d03966b1e1e7cbb4cd5
submitter=submitter = University of Tokyo Team (Faculty of Engineering, University of Tokyo)
MoNA Rating=3.75

>  <NUM PEAKS>  (2221) 
82

>  <MASS SPECTRAL PEAKS>  (2221) 
41 5.22
42 4.34
43 0.26
44 0.19
50 0.11
51 0.77
52 0.26
54 1.08
55 0.64
56 2.51
57 0.35
61 0.24
62 0.28
68 0.23
69 1.66
70 0.42
72 6.68
73 0.23
74 0.31
75 1.05
79 0.41
80 0.35
81 1.1
86 0.21
87 0.1
92 0.16
93 1.68
98 0.73
99 2.38
100 0.22
105 0.18
106 0.09
110 0.08
111 0.34
112 0.73
113 0.23
117 2.99
118 0.37
119 1.45
120 0.1
123 0.1
124 0.12
129 0.18
130 0.33
131 1.23
132 0.1
137 0.59
141 0.15
143 0.65
148 0.45
149 0.38
150 0.69
155 1.06
161 3.81
162 0.74
163 0.31
164 0.11
167 2.67
168 1.22
169 0.55
176 0.63
177 0.22
178 0.15
181 99.99
182 7.3
183 0.23
194 0.26
195 3.55
196 0.6
197 0.48
203 0.21
206 5.11
207 0.52
223 5.71
224 0.62
233 0.7
234 0.36
236 3.94
237 0.47
238 0.25
253 6.55
254 0.74

>  <PREDICTED SPECTRUM>  (2221) 
37 18
38 37
39 140
40 69
41 198
42 266
43 134
44 117
45 45
46 1
51 45
53 68
54 102
55 156
56 235
57 110
58 111
62 26
65 6
67 59
68 18
70 5
71 26
72 242
73 76
74 24
75 41
77 22
80 0
81 80
93 98
94 11
99 186
105 46
112 103
113 64
117 234
118 53
119 101
130 48
131 121
137 33
143 97
144 18
148 80
149 36
150 107
155 90
161 231
162 126
167 204
168 129
169 70
175 29
177 65
181 999
182 342
195 259
196 141
197 27
198 51
207 15
218 20
220 0
223 79
234 25
236 104
237 9
238 32
239 25
252 42
253 308
254 120
255 37

$$$$

     RDKit          2D

 28 28  0  0  0  0  0  0  0  0999 V2000
   23.3835    1.5035    0.0000 C   0  0  0  0  0  0  0  0  0  0  0  0
   22.0846    0.7533    0.0000 C   0  0  0  0  0  0  0  0  0  0  0  0
   20.7855    1.5031    0.0000 C   0  0  0  0  0  0  0  0  0  0  0  0
   19.4865    0.7529    0.0000 C   0  0  0  0  0  0  0  0  0  0  0  0
   18.1874    1.5027    0.0000 C   0  0  0  0  0  0  0  0  0  0  0  0
   16.8885    0.7525    0.0000 C   0  0  0  0  0  0  0  0  0  0  0  0
   15.5893    1.5023    0.0000 C   0  0  0  0  0  0  0  0  0  0  0  0
   14.2904    0.7521    0.0000 C   0  0  0  0  0  0  0  0  0  0  0  0
   12.9912    1.5019    0.0000 C   0  0  0  0  0  0  0  0  0  0  0  0
   11.6923    0.7517    0.0000 C   0  0  0  0  0  0  0  0  0  0  0  0
   10.3931    1.5015    0.0000 C   0  0  0  0  0  0  0  0  0  0  0  0
    9.0942    0.7512    0.0000 C   0  0  0  0  0  0  0  0  0  0  0  0
    7.7951    1.5010    0.0000 C   0  0  0  0  0  0  0  0  0  0  0  0
    6.4962    0.7508    0.0000 C   0  0  0  0  0  0  0  0  0  0  0  0
    2.5989    1.5002    0.0000 C   0  0  0  0  0  0  0  0  0  0  0  0
    1.3000    0.7500    0.0000 C   0  0  0  0  0  0  0  0  0  0  0  0
   -0.0000    1.5000    0.0000 C   0  0  0  0  0  0  0  0  0  0  0  0
    1.3000   -0.7500    0.0000 C   0  0  0  0  0  0  0  0  0  0  0  0
   -1.3000    0.7500    0.0000 C   0  0  0  0  0  0  0  0  0  0  0  0
   -0.0000   -1.5000    0.0000 C   0  0  0  0  0  0  0  0  0  0  0  0
   -1.3000   -0.7500    0.0000 C   0  0  0  0  0  0  0  0  0  0  0  0
   -0.0000    3.0000    0.0000 F   0  0  0  0  0  0  0  0  0  0  0  0
    2.5989   -1.5002    0.0000 F   0  0  0  0  0  0  0  0  0  0  0  0
   -2.5989    1.5002    0.0000 F   0  0  0  0  0  0  0  0  0  0  0  0
   -0.0000   -3.0000    0.0000 F   0  0  0  0  0  0  0  0  0  0  0  0
   -2.5989   -1.5002    0.0000 F   0  0  0  0  0  0  0  0  0  0  0  0
    5.1970    1.5006    0.0000 N   0  0  0  0  0  0  0  0  0  0  0  0
    3.8981    0.7504    0.0000 O   0  0  0  0  0  0  0  0  0  0  0  0
  2  1  1  0
  3  2  1  0
  4  3  1  0
  5  4  1  0
  6  5  1  0
  7  6  1  0
  8  7  1  0
  9  8  1  0
 10  9  1  0
 11 10  1  0
 12 11  1  0
 13 12  1  0
 14 13  1  0
 16 15  1  0
 17 16  2  0
 18 16  1  0
 19 17  1  0
 20 18  2  0
 21 19  2  0
 21 20  1  0
 22 17  1  0
 23 18  1  0
 24 19  1  0
 25 20  1  0
 26 21  1  0
 14 27  2  0
 28 15  1  0
 28 27  1  0
M  END
>  <NAME>  (2222) 
TETRADECANAL O-2,3,4,5,6-PENTAFLUOROBENZYLOXIME

>  <SYNONYMS>  (2222) 


>  <SPECTRUM TYPE>  (2222) 
MS1

>  <INSTRUMENT TYPE>  (2222) 
EI-B

>  <INSTRUMENT>  (2222) 
HP 5970

>  <ION MODE>  (2222) 
P

>  <INCHIKEY>  (2222) 
XGPWCYWECONRBN-MZJWZYIUSA-N

>  <FORMULA>  (2222) 
C21H30F5NO

>  <EXACT MASS>  (2222) 
407.22475568

>  <MW>  (2222) 
407

>  <ID>  (2222) 
JP008808

>  <CONTRIBUTOR>  (2222) 
University of Tokyo Team, {Faculty of Engineering, University of Tokyo

>  <COMMENT>  (2222) 
SMILES=CCCCCCCCCCCCCC=NOCc(c(F)1)c(F)c(F)c(F)c(F)1
InChI=InChI=1S/C21H30F5NO/c1-2-3-4-5-6-7-8-9-10-11-12-13-14-27-28-15-16-17(22)19(24)21(26)20(25)18(16)23/h14H,2-13,15H2,1H3/b27-14+
computed SMILES=FC=1C(F)=C(F)C(=C(F)C1F)CON=CCCCCCCCCCCCCC
accession=JP008808
date=2016.01.19 (Created 2008.10.21, modified 2011.05.06)
author=UOEH
license=CC BY-NC-SA
exact mass=407.22476
ionization energy=70 eV
ion type=[M]+*
computed spectral entropy=3.450750695657805
computed normalized entropy=0.8122289184895629
SPLASH=splash10-001u-9640000000-eb1ad779360798f25f91
submitter=submitter = University of Tokyo Team (Faculty of Engineering, University of Tokyo)
MoNA Rating=3.75

>  <NUM PEAKS>  (2222) 
70

>  <MASS SPECTRAL PEAKS>  (2222) 
41 34.16
42 7.19
43 35.88
44 2.6
46 1.51
53 2.31
54 4.57
55 20.55
56 8.16
57 17.99
58 2.95
67 4.99
68 2.79
69 12.49
70 5.76
71 6.34
72 1.95
79 2.91
80 1.34
81 4.97
82 6.09
83 8.27
84 3.11
85 2.78
86 1.7
93 2.88
95 3.39
96 7.5
97 9.88
98 4.61
99 4.13
100 1.75
110 6.31
111 4.51
112 1.56
117 3.17
119 2.39
124 4.03
131 1.51
138 1.91
149 1.7
150 2.65
151 1.27
152 1.88
161 3.6
166 1.83
167 2.9
168 1.71
176 1.47
177 6.02
178 2.53
179 1.22
181 99.99
182 7.14
194 1.93
195 3.79
196 1.96
197 3.55
198 5.65
202 2.06
207 9.59
208 2.52
210 1.91
219 1.87
222 6.45
226 14.95
227 2.55
239 61.55
240 6.89
252 2.75

>  <PREDICTED SPECTRUM>  (2222) 
29 79
33 1
36 15
37 45
38 66
39 207
40 104
41 419
42 215
43 467
44 108
45 57
49 3
50 51
51 85
52 50
53 163
54 219
55 439
56 214
57 545
58 194
59 4
61 31
62 55
63 48
64 47
65 57
66 68
67 216
68 218
69 388
70 250
71 319
72 168
73 17
75 51
77 72
78 25
79 124
80 126
81 294
82 278
83 356
84 201
85 159
86 124
87 52
88 27
89 12
90 29
91 32
92 58
93 177
94 70
95 216
96 233
97 339
98 233
99 241
100 125
105 34
106 28
107 48
108 32
109 107
110 174
111 235
112 206
113 116
114 17
115 43
117 213
118 71
119 120
120 26
121 5
122 11
123 59
124 155
125 107
126 73
127 35
128 28
129 41
130 5
131 142
132 37
134 12
135 44
136 3
137 119
138 164
139 13
140 35
142 51
143 125
144 27
145 17
148 57
149 127
150 198
151 116
152 131
153 50
154 28
155 88
156 29
157 14
158 11
159 4
161 183
162 99
163 75
164 24
165 28
166 105
167 193
168 180
169 140
170 39
176 96
177 232
178 127
179 136
180 42
181 999
182 377
183 57
184 118
185 46
191 21
192 40
193 36
194 169
195 205
196 167
197 140
198 250
202 46
207 348
208 137
209 88
210 72
212 1
213 10
215 5
219 101
222 247
223 74
224 13
225 19
226 308
227 128
238 95
239 823
240 297
251 60
252 206
253 62
258 12
263 1
266 34
267 84
272 25
336 30
350 21
390 9
407 54
409 0

$$$$

     RDKit          2D

 27 27  0  0  0  0  0  0  0  0999 V2000
   -2.5989   -0.7533    0.0000 C   0  0  0  0  0  0  0  0  0  0  0  0
   -1.2998   -1.5031    0.0000 C   0  0  0  0  0  0  0  0  0  0  0  0
   -0.0008   -0.7529    0.0000 C   0  0  0  0  0  0  0  0  0  0  0  0
    1.2983   -1.5027    0.0000 C   0  0  0  0  0  0  0  0  0  0  0  0
    2.5972   -0.7525    0.0000 C   0  0  0  0  0  0  0  0  0  0  0  0
    3.8964   -1.5023    0.0000 C   0  0  0  0  0  0  0  0  0  0  0  0
    5.1953   -0.7521    0.0000 C   0  0  0  0  0  0  0  0  0  0  0  0
    6.4945   -1.5019    0.0000 C   0  0  0  0  0  0  0  0  0  0  0  0
    7.7934   -0.7517    0.0000 C   0  0  0  0  0  0  0  0  0  0  0  0
    9.0925   -1.5015    0.0000 C   0  0  0  0  0  0  0  0  0  0  0  0
   10.3915   -0.7512    0.0000 C   0  0  0  0  0  0  0  0  0  0  0  0
   11.6906   -1.5010    0.0000 C   0  0  0  0  0  0  0  0  0  0  0  0
   12.9895   -0.7508    0.0000 C   0  0  0  0  0  0  0  0  0  0  0  0
   16.8868   -1.5002    0.0000 C   0  0  0  0  0  0  0  0  0  0  0  0
   18.1857   -0.7500    0.0000 C   0  0  0  0  0  0  0  0  0  0  0  0
   19.4857   -1.5000    0.0000 C   0  0  0  0  0  0  0  0  0  0  0  0
   18.1857    0.7500    0.0000 C   0  0  0  0  0  0  0  0  0  0  0  0
   20.7857   -0.7500    0.0000 C   0  0  0  0  0  0  0  0  0  0  0  0
   19.4857    1.5000    0.0000 C   0  0  0  0  0  0  0  0  0  0  0  0
   20.7857    0.7500    0.0000 C   0  0  0  0  0  0  0  0  0  0  0  0
   19.4857   -3.0000    0.0000 F   0  0  0  0  0  0  0  0  0  0  0  0
   16.8868    1.5002    0.0000 F   0  0  0  0  0  0  0  0  0  0  0  0
   22.0846   -1.5002    0.0000 F   0  0  0  0  0  0  0  0  0  0  0  0
   19.4857    3.0000    0.0000 F   0  0  0  0  0  0  0  0  0  0  0  0
   22.0846    1.5002    0.0000 F   0  0  0  0  0  0  0  0  0  0  0  0
   14.2887   -1.5006    0.0000 N   0  0  0  0  0  0  0  0  0  0  0  0
   15.5876   -0.7504    0.0000 O   0  0  0  0  0  0  0  0  0  0  0  0
  2  1  1  0
  3  2  1  0
  4  3  1  0
  5  4  1  0
  6  5  1  0
  7  6  1  0
  8  7  1  0
  9  8  1  0
 10  9  1  0
 11 10  1  0
 12 11  1  0
 13 12  1  0
 15 14  1  0
 16 15  2  0
 17 15  1  0
 18 16  1  0
 19 17  2  0
 20 18  2  0
 20 19  1  0
 21 16  1  0
 22 17  1  0
 23 18  1  0
 24 19  1  0
 25 20  1  0
 13 26  2  0
 27 14  1  0
 27 26  1  0
M  END
>  <NAME>  (2223) 
TRIDECANAL O-2,3,4,5,6-PENTAFLUOROBENZYLOXIME

>  <SYNONYMS>  (2223) 


>  <SPECTRUM TYPE>  (2223) 
MS1

>  <INSTRUMENT TYPE>  (2223) 
EI-B

>  <INSTRUMENT>  (2223) 
HP 5970

>  <ION MODE>  (2223) 
P

>  <INCHIKEY>  (2223) 
RBTHWMFPSLXCNJ-LGJNPRDNSA-N

>  <FORMULA>  (2223) 
C20H28F5NO

>  <EXACT MASS>  (2223) 
393.20910561599993

>  <MW>  (2223) 
393

>  <ID>  (2223) 
JP008807

>  <CONTRIBUTOR>  (2223) 
University of Tokyo Team, {Faculty of Engineering, University of Tokyo

>  <COMMENT>  (2223) 
SMILES=CCCCCCCCCCCCC=NOCc(c(F)1)c(F)c(F)c(F)c(F)1
InChI=InChI=1S/C20H28F5NO/c1-2-3-4-5-6-7-8-9-10-11-12-13-26-27-14-15-16(21)18(23)20(25)19(24)17(15)22/h13H,2-12,14H2,1H3/b26-13+
computed SMILES=FC=1C(F)=C(F)C(=C(F)C1F)CON=CCCCCCCCCCCCC
accession=JP008807
date=2016.01.19 (Created 2008.10.21, modified 2011.05.06)
author=UOEH
license=CC BY-NC-SA
exact mass=393.20911
ionization energy=70 eV
ion type=[M]+*
computed spectral entropy=3.441933376728437
computed normalized entropy=0.7810648202435934
SPLASH=splash10-001u-9740000000-15f38fa673bc4a96fe8c
submitter=submitter = University of Tokyo Team (Faculty of Engineering, University of Tokyo)
MoNA Rating=3.75

>  <NUM PEAKS>  (2223) 
82

>  <MASS SPECTRAL PEAKS>  (2223) 
41 32.56
42 6.28
43 32.12
44 2.33
46 1.52
49 0.77
51 0.9
53 2.06
54 4.28
55 18.31
56 7.18
57 15.86
58 3.36
59 1.1
67 3.95
68 2.38
69 10.93
70 4.13
71 5.15
72 1.67
75 1.22
79 2.02
80 1.28
81 4.1
82 5.54
83 6.34
84 2.68
85 1.85
86 1.59
93 2.15
95 3.12
96 5.82
97 7.67
98 3.32
99 3.57
100 1.67
109 1.53
110 4.43
111 3.04
112 1.24
117 2.33
123 0.77
124 2.4
125 0.92
130 0.69
131 1.33
137 0.62
138 1.42
149 1.14
150 2.27
151 0.85
152 1.3
161 3.34
166 0.89
167 2.15
168 1.33
169 1.19
176 1.43
177 4.43
178 2.04
179 1.22
181 99.99
182 7.3
184 0.94
189 0.76
190 0.7
194 2.59
195 3.54
196 2.4
197 2.55
198 3.94
202 1.82
207 8.25
208 1.01
212 12.25
213 1.74
219 1.45
222 6.08
226 1.19
239 52.05
240 5.16
252 2.53

>  <PREDICTED SPECTRUM>  (2223) 
29 74
36 17
37 43
38 64
39 214
40 103
41 423
42 219
43 461
44 119
45 37
46 14
49 7
50 59
51 101
52 56
53 167
54 215
55 433
56 221
57 528
58 194
59 13
62 55
63 60
64 48
65 52
66 75
67 207
68 213
69 381
70 240
71 312
72 164
73 43
75 62
77 39
78 29
79 135
80 115
81 287
82 263
83 345
84 211
85 177
86 127
87 40
88 24
89 8
90 32
91 35
92 37
93 172
94 70
95 207
96 234
97 325
98 228
99 236
100 111
101 11
105 37
106 41
107 57
108 44
109 94
110 180
111 230
112 202
113 101
114 39
115 42
117 218
118 81
119 118
120 51
121 9
122 19
123 100
124 201
125 98
126 66
127 23
128 19
129 29
130 25
131 145
132 31
134 6
135 64
136 30
137 115
138 156
139 14
140 60
141 53
142 50
143 117
144 31
145 19
146 2
148 68
149 121
150 195
151 99
152 108
153 50
154 27
155 90
156 43
161 191
162 101
163 37
165 23
166 94
167 183
168 191
169 136
170 115
171 44
176 103
177 241
178 154
179 141
180 48
181 999
182 378
183 54
184 100
194 140
195 205
196 194
197 159
198 249
199 20
202 68
206 15
207 351
208 107
211 2
212 417
213 122
215 11
219 77
222 244
223 82
224 19
225 13
226 86
227 3
233 6
238 86
239 820
240 298
251 54
252 208
253 13
258 36
263 3
266 48
267 70
272 18
274 2
294 45
322 12
336 2
350 4
365 0
393 74
394 0

$$$$

     RDKit          2D

 26 26  0  0  0  0  0  0  0  0999 V2000
   20.7855    1.5031    0.0000 C   0  0  0  0  0  0  0  0  0  0  0  0
   19.4865    0.7529    0.0000 C   0  0  0  0  0  0  0  0  0  0  0  0
   18.1874    1.5027    0.0000 C   0  0  0  0  0  0  0  0  0  0  0  0
   16.8885    0.7525    0.0000 C   0  0  0  0  0  0  0  0  0  0  0  0
   15.5893    1.5023    0.0000 C   0  0  0  0  0  0  0  0  0  0  0  0
   14.2904    0.7521    0.0000 C   0  0  0  0  0  0  0  0  0  0  0  0
   12.9912    1.5019    0.0000 C   0  0  0  0  0  0  0  0  0  0  0  0
   11.6923    0.7517    0.0000 C   0  0  0  0  0  0  0  0  0  0  0  0
   10.3931    1.5015    0.0000 C   0  0  0  0  0  0  0  0  0  0  0  0
    9.0942    0.7512    0.0000 C   0  0  0  0  0  0  0  0  0  0  0  0
    7.7951    1.5010    0.0000 C   0  0  0  0  0  0  0  0  0  0  0  0
    6.4962    0.7508    0.0000 C   0  0  0  0  0  0  0  0  0  0  0  0
    3.8976    3.7504    0.0000 C   0  0  0  0  0  0  0  0  0  0  0  0
    3.8974    5.2504    0.0000 C   0  0  0  0  0  0  0  0  0  0  0  0
    2.5976    6.0008    0.0000 C   0  0  0  0  0  0  0  0  0  0  0  0
    5.1962    6.0008    0.0000 C   0  0  0  0  0  0  0  0  0  0  0  0
    2.5966    7.5017    0.0000 C   0  0  0  0  0  0  0  0  0  0  0  0
    5.1952    7.5017    0.0000 C   0  0  0  0  0  0  0  0  0  0  0  0
    3.8954    8.2521    0.0000 C   0  0  0  0  0  0  0  0  0  0  0  0
    1.2988    5.2504    0.0000 F   0  0  0  0  0  0  0  0  0  0  0  0
    6.4956    5.2515    0.0000 F   0  0  0  0  0  0  0  0  0  0  0  0
    1.2972    8.2510    0.0000 F   0  0  0  0  0  0  0  0  0  0  0  0
    6.4940    8.2521    0.0000 F   0  0  0  0  0  0  0  0  0  0  0  0
    3.8952    9.7521    0.0000 F   0  0  0  0  0  0  0  0  0  0  0  0
    5.1970    1.5006    0.0000 N   0  0  0  0  0  0  0  0  0  0  0  0
    5.1968    3.0006    0.0000 O   0  0  0  0  0  0  0  0  0  0  0  0
  2  1  1  0
  3  2  1  0
  4  3  1  0
  5  4  1  0
  6  5  1  0
  7  6  1  0
  8  7  1  0
  9  8  1  0
 10  9  1  0
 11 10  1  0
 12 11  1  0
 14 13  1  0
 15 14  2  0
 16 14  1  0
 17 15  1  0
 18 16  2  0
 19 17  2  0
 19 18  1  0
 20 15  1  0
 21 16  1  0
 22 17  1  0
 23 18  1  0
 24 19  1  0
 12 25  2  0
 26 13  1  0
 26 25  1  0
M  END
>  <NAME>  (2224) 
DODECANAL O-2,3,4,5,6-PENTAFLUOROBENZYLOXIME

>  <SYNONYMS>  (2224) 


>  <SPECTRUM TYPE>  (2224) 
MS1

>  <INSTRUMENT TYPE>  (2224) 
EI-B

>  <INSTRUMENT>  (2224) 
HP 5970

>  <ION MODE>  (2224) 
P

>  <INCHIKEY>  (2224) 
KVESFPFADCWDQR-ROTLSHHCSA-N

>  <FORMULA>  (2224) 
C19H26F5NO

>  <EXACT MASS>  (2224) 
379.193455552

>  <MW>  (2224) 
379

>  <ID>  (2224) 
JP008806

>  <CONTRIBUTOR>  (2224) 
University of Tokyo Team, {Faculty of Engineering, University of Tokyo

>  <COMMENT>  (2224) 
SMILES=CCCCCCCCCCCC=NOCc(c(F)1)c(F)c(F)c(F)c(F)1
InChI=InChI=1S/C19H26F5NO/c1-2-3-4-5-6-7-8-9-10-11-12-25-26-13-14-15(20)17(22)19(24)18(23)16(14)21/h12H,2-11,13H2,1H3/b25-12-
computed SMILES=FC=1C(F)=C(F)C(=C(F)C1F)CON=CCCCCCCCCCCC
ionization energy=70 eV
ion type=[M]+*
accession=JP008806
date=2016.01.19 (Created 2008.10.21, modified 2011.05.06)
author=UOEH
license=CC BY-NC-SA
exact mass=379.19346
computed spectral entropy=3.2776311724406613
computed normalized entropy=0.7741022028807997
SPLASH=splash10-001l-9830000000-f02b600a2eee8ade6fd7
submitter=submitter = University of Tokyo Team (Faculty of Engineering, University of Tokyo)
MoNA Rating=3.75

>  <NUM PEAKS>  (2224) 
69

>  <MASS SPECTRAL PEAKS>  (2224) 
41 30.26
42 5.57
43 28.27
44 1.99
46 1.61
51 0.77
53 2.19
54 4.04
55 16.52
56 5.45
57 12.48
58 3.03
59 0.97
67 3.45
68 2.47
69 8.93
70 3.12
71 4.32
72 1.6
79 1.78
80 1.03
81 3.76
82 4.87
83 5.93
84 1.73
85 1.81
86 1.66
93 1.79
95 2.75
96 4.95
97 5.91
98 2.94
99 3.31
100 1.27
109 1.45
110 3.22
111 2.61
112 1.18
117 2.13
118 2.02
124 1.93
131 1.26
138 1.36
149 1.18
150 1.96
161 3.03
167 2.24
168 1.17
176 1.25
177 3.92
178 1.45
179 0.75
181 99.99
182 8.69
194 1.15
195 2.87
196 1.6
197 1.89
198 11.57
199 1.48
202 1.78
207 7.32
208 0.76
219 1.22
222 5.69
226 1.15
239 46.07
240 4.94
252 2.9

>  <PREDICTED SPECTRUM>  (2224) 
29 61
33 5
36 19
37 43
38 64
39 221
40 106
41 429
42 228
43 458
44 122
45 45
46 7
49 11
50 58
51 102
52 62
53 167
54 209
55 425
56 217
57 510
58 193
59 32
61 22
62 56
63 39
64 49
65 68
66 55
67 204
68 197
69 368
70 248
71 304
72 174
73 23
75 57
77 37
78 7
79 118
80 114
81 276
82 258
83 331
84 207
85 133
86 115
87 54
88 34
89 10
90 33
91 40
92 53
93 174
94 77
95 198
96 234
97 306
98 213
99 228
100 115
101 5
105 39
106 52
107 63
108 59
109 112
110 196
111 220
112 192
113 95
114 30
115 29
117 219
118 78
119 126
120 26
121 14
122 36
123 85
124 189
125 99
126 97
127 43
128 24
129 27
130 28
131 149
132 43
134 17
135 49
137 108
138 137
139 27
140 59
141 89
142 57
143 107
144 21
148 74
149 92
150 193
151 98
152 90
153 30
154 44
155 93
156 120
157 48
161 197
162 106
163 84
164 52
165 48
166 110
167 180
168 195
169 120
170 102
171 4
176 94
177 240
178 142
179 136
180 44
181 999
182 376
183 59
185 12
194 48
195 202
196 108
197 168
198 258
199 166
202 81
203 6
207 346
208 100
210 17
213 12
219 100
222 257
223 95
224 17
225 18
226 107
238 91
239 811
240 295
249 2
251 49
252 208
253 7
258 5
260 10
266 12
267 66
272 19
280 61
281 22
294 40
349 11
350 21
351 3
362 72
379 21
380 27

$$$$

     RDKit          2D

 25 25  0  0  0  0  0  0  0  0999 V2000
   19.4865    0.7529    0.0000 C   0  0  0  0  0  0  0  0  0  0  0  0
   18.1874    1.5027    0.0000 C   0  0  0  0  0  0  0  0  0  0  0  0
   16.8885    0.7525    0.0000 C   0  0  0  0  0  0  0  0  0  0  0  0
   15.5893    1.5023    0.0000 C   0  0  0  0  0  0  0  0  0  0  0  0
   14.2904    0.7521    0.0000 C   0  0  0  0  0  0  0  0  0  0  0  0
   12.9912    1.5019    0.0000 C   0  0  0  0  0  0  0  0  0  0  0  0
   11.6923    0.7517    0.0000 C   0  0  0  0  0  0  0  0  0  0  0  0
   10.3931    1.5015    0.0000 C   0  0  0  0  0  0  0  0  0  0  0  0
    9.0942    0.7512    0.0000 C   0  0  0  0  0  0  0  0  0  0  0  0
    7.7951    1.5010    0.0000 C   0  0  0  0  0  0  0  0  0  0  0  0
    6.4962    0.7508    0.0000 C   0  0  0  0  0  0  0  0  0  0  0  0
    3.8976    3.7504    0.0000 C   0  0  0  0  0  0  0  0  0  0  0  0
    3.8974    5.2504    0.0000 C   0  0  0  0  0  0  0  0  0  0  0  0
    2.5976    6.0008    0.0000 C   0  0  0  0  0  0  0  0  0  0  0  0
    5.1962    6.0008    0.0000 C   0  0  0  0  0  0  0  0  0  0  0  0
    2.5966    7.5017    0.0000 C   0  0  0  0  0  0  0  0  0  0  0  0
    5.1952    7.5017    0.0000 C   0  0  0  0  0  0  0  0  0  0  0  0
    3.8954    8.2521    0.0000 C   0  0  0  0  0  0  0  0  0  0  0  0
    1.2988    5.2504    0.0000 F   0  0  0  0  0  0  0  0  0  0  0  0
    6.4956    5.2515    0.0000 F   0  0  0  0  0  0  0  0  0  0  0  0
    1.2972    8.2510    0.0000 F   0  0  0  0  0  0  0  0  0  0  0  0
    6.4940    8.2521    0.0000 F   0  0  0  0  0  0  0  0  0  0  0  0
    3.8952    9.7521    0.0000 F   0  0  0  0  0  0  0  0  0  0  0  0
    5.1970    1.5006    0.0000 N   0  0  0  0  0  0  0  0  0  0  0  0
    5.1968    3.0006    0.0000 O   0  0  0  0  0  0  0  0  0  0  0  0
  2  1  1  0
  3  2  1  0
  4  3  1  0
  5  4  1  0
  6  5  1  0
  7  6  1  0
  8  7  1  0
  9  8  1  0
 10  9  1  0
 11 10  1  0
 13 12  1  0
 14 13  2  0
 15 13  1  0
 16 14  1  0
 17 15  2  0
 18 16  2  0
 18 17  1  0
 19 14  1  0
 20 15  1  0
 21 16  1  0
 22 17  1  0
 23 18  1  0
 11 24  2  0
 25 12  1  0
 25 24  1  0
M  END
>  <NAME>  (2225) 
UNDECANAL O-2,3,4,5,6-PENTAFLUOROBENZYLOXIME

>  <SYNONYMS>  (2225) 


>  <SPECTRUM TYPE>  (2225) 
MS1

>  <INSTRUMENT TYPE>  (2225) 
EI-B

>  <INSTRUMENT>  (2225) 
HP 5970

>  <ION MODE>  (2225) 
P

>  <INCHIKEY>  (2225) 
XJDXRHQPJGTNHN-MYKKPKGFSA-N

>  <FORMULA>  (2225) 
C18H24F5NO

>  <EXACT MASS>  (2225) 
365.177805488

>  <MW>  (2225) 
365

>  <ID>  (2225) 
JP008805

>  <CONTRIBUTOR>  (2225) 
University of Tokyo Team, {Faculty of Engineering, University of Tokyo

>  <COMMENT>  (2225) 
SMILES=CCCCCCCCCCC=NOCc(c(F)1)c(F)c(F)c(F)c(F)1
InChI=InChI=1S/C18H24F5NO/c1-2-3-4-5-6-7-8-9-10-11-24-25-12-13-14(19)16(21)18(23)17(22)15(13)20/h11H,2-10,12H2,1H3/b24-11-
computed SMILES=FC=1C(F)=C(F)C(=C(F)C1F)CON=CCCCCCCCCCC
accession=JP008805
date=2016.01.19 (Created 2008.10.21, modified 2011.05.06)
author=UOEH
license=CC BY-NC-SA
exact mass=365.17781
ionization energy=70 eV
ion type=[M]+*
computed spectral entropy=3.1738414620108304
computed normalized entropy=0.8032512515199393
SPLASH=splash10-001l-9830000000-9dec79c43e9711920c31
submitter=submitter = University of Tokyo Team (Faculty of Engineering, University of Tokyo)
MoNA Rating=3.75

>  <NUM PEAKS>  (2225) 
52

>  <MASS SPECTRAL PEAKS>  (2225) 
41 26.95
42 4.67
43 25.25
44 2.1
54 5.02
55 14.88
56 6.02
57 11.11
58 2.14
67 3
68 2.52
69 9.56
70 2.62
71 3.29
79 2.19
81 3.86
82 5.59
83 7.61
85 2.04
86 1.95
93 2.31
95 2.98
96 5.45
97 6.31
98 3.18
99 4.21
110 3.99
111 2.23
117 2.55
119 2.22
124 2.94
149 1.65
150 3.01
161 4.25
167 2.45
168 2.53
177 4.58
178 2.44
181 99.99
182 7.78
184 7.14
194 1.62
195 3.84
196 1.85
197 2.47
198 4.77
202 1.6
207 7.42
222 4.72
239 38.06
240 4.08
252 1.98

>  <PREDICTED SPECTRUM>  (2225) 
29 59
36 16
37 39
38 63
39 223
40 107
41 434
42 235
43 455
44 116
45 60
46 19
49 13
50 58
51 107
52 54
53 167
54 197
55 414
56 225
57 490
58 191
59 15
62 55
63 34
64 39
65 33
66 50
67 191
68 199
69 351
70 236
71 287
72 169
73 42
75 62
77 44
78 30
79 119
80 116
81 263
82 250
83 314
84 195
85 81
86 114
87 54
88 28
89 13
90 40
91 23
92 64
93 170
94 83
95 207
96 238
97 279
98 183
99 221
100 104
105 46
106 40
107 71
108 80
109 98
110 187
111 209
112 202
113 110
114 33
115 26
117 215
118 78
119 123
120 45
121 3
123 50
124 164
125 122
126 97
127 58
128 40
129 1
130 17
131 151
132 37
134 3
137 108
138 124
139 2
140 76
141 110
142 104
143 104
144 21
148 75
149 125
150 197
151 110
152 92
153 35
154 44
155 86
156 106
157 15
161 203
162 104
163 48
166 75
167 171
168 209
169 124
171 11
176 103
177 243
178 150
179 131
180 31
181 999
182 375
183 59
184 432
185 152
189 9
194 54
195 202
196 139
197 161
198 247
199 26
202 97
205 10
206 20
207 336
208 112
209 47
212 3
215 12
218 19
219 74
222 265
223 88
224 15
225 15
226 95
238 97
239 800
240 294
246 15
251 31
252 201
253 20
266 112
267 90
272 16
280 65
281 26
294 49
336 10
337 18
348 88
349 6
350 30
365 88

$$$$

     RDKit          2D

 24 24  0  0  0  0  0  0  0  0999 V2000
   18.1874    1.5027    0.0000 C   0  0  0  0  0  0  0  0  0  0  0  0
   16.8885    0.7525    0.0000 C   0  0  0  0  0  0  0  0  0  0  0  0
   15.5893    1.5023    0.0000 C   0  0  0  0  0  0  0  0  0  0  0  0
   14.2904    0.7521    0.0000 C   0  0  0  0  0  0  0  0  0  0  0  0
   12.9912    1.5019    0.0000 C   0  0  0  0  0  0  0  0  0  0  0  0
   11.6923    0.7517    0.0000 C   0  0  0  0  0  0  0  0  0  0  0  0
   10.3931    1.5015    0.0000 C   0  0  0  0  0  0  0  0  0  0  0  0
    9.0942    0.7512    0.0000 C   0  0  0  0  0  0  0  0  0  0  0  0
    7.7951    1.5010    0.0000 C   0  0  0  0  0  0  0  0  0  0  0  0
    6.4962    0.7508    0.0000 C   0  0  0  0  0  0  0  0  0  0  0  0
    2.5989    1.5002    0.0000 C   0  0  0  0  0  0  0  0  0  0  0  0
    1.3000    0.7500    0.0000 C   0  0  0  0  0  0  0  0  0  0  0  0
   -0.0000    1.5000    0.0000 C   0  0  0  0  0  0  0  0  0  0  0  0
    1.3000   -0.7500    0.0000 C   0  0  0  0  0  0  0  0  0  0  0  0
   -1.3000    0.7500    0.0000 C   0  0  0  0  0  0  0  0  0  0  0  0
    0.0000   -1.5000    0.0000 C   0  0  0  0  0  0  0  0  0  0  0  0
   -1.3000   -0.7500    0.0000 C   0  0  0  0  0  0  0  0  0  0  0  0
    0.0000    3.0000    0.0000 F   0  0  0  0  0  0  0  0  0  0  0  0
    2.5989   -1.5002    0.0000 F   0  0  0  0  0  0  0  0  0  0  0  0
   -2.5989    1.5002    0.0000 F   0  0  0  0  0  0  0  0  0  0  0  0
   -0.0000   -3.0000    0.0000 F   0  0  0  0  0  0  0  0  0  0  0  0
   -2.5989   -1.5002    0.0000 F   0  0  0  0  0  0  0  0  0  0  0  0
    5.1970    1.5006    0.0000 N   0  0  0  0  0  0  0  0  0  0  0  0
    3.8981    0.7504    0.0000 O   0  0  0  0  0  0  0  0  0  0  0  0
  2  1  1  0
  3  2  1  0
  4  3  1  0
  5  4  1  0
  6  5  1  0
  7  6  1  0
  8  7  1  0
  9  8  1  0
 10  9  1  0
 12 11  1  0
 13 12  2  0
 14 12  1  0
 15 13  1  0
 16 14  2  0
 17 15  2  0
 17 16  1  0
 18 13  1  0
 19 14  1  0
 20 15  1  0
 21 16  1  0
 22 17  1  0
 10 23  2  0
 24 11  1  0
 24 23  1  0
M  END
>  <NAME>  (2226) 
DECANAL O-2,3,4,5,6-PENTAFLUOROBENZYLOXIME

>  <SYNONYMS>  (2226) 


>  <SPECTRUM TYPE>  (2226) 
MS1

>  <INSTRUMENT TYPE>  (2226) 
EI-B

>  <INSTRUMENT>  (2226) 
HP 5970

>  <ION MODE>  (2226) 
P

>  <INCHIKEY>  (2226) 
NUGDFCWVLOJWOP-AUEPDCJTSA-N

>  <FORMULA>  (2226) 
C17H22F5NO

>  <EXACT MASS>  (2226) 
351.162155424

>  <MW>  (2226) 
351

>  <ID>  (2226) 
JP008804

>  <CONTRIBUTOR>  (2226) 
University of Tokyo Team, {Faculty of Engineering, University of Tokyo

>  <COMMENT>  (2226) 
SMILES=CCCCCCCCCC=NOCc(c(F)1)c(F)c(F)c(F)c(F)1
InChI=InChI=1S/C17H22F5NO/c1-2-3-4-5-6-7-8-9-10-23-24-11-12-13(18)15(20)17(22)16(21)14(12)19/h10H,2-9,11H2,1H3/b23-10+
computed SMILES=FC=1C(F)=C(F)C(=C(F)C1F)CON=CCCCCCCCCC
accession=JP008804
date=2016.01.19 (Created 2008.10.21, modified 2011.05.06)
author=UOEH
license=CC BY-NC-SA
exact mass=351.16216
ionization energy=70 eV
ion type=[M]+*
computed spectral entropy=3.0514563517824476
computed normalized entropy=0.7685722909609397
SPLASH=splash10-001l-9830000000-4feacf9a1a4883f63d8b
submitter=submitter = University of Tokyo Team (Faculty of Engineering, University of Tokyo)
MoNA Rating=3.75

>  <NUM PEAKS>  (2226) 
53

>  <MASS SPECTRAL PEAKS>  (2226) 
41 28.77
42 4.83
43 25.78
44 0.87
54 4.7
55 15.59
56 5.48
57 10.94
58 2.16
67 3.02
68 1.77
69 9.65
70 2.9
71 3.38
79 1.49
81 3.79
82 5.87
83 6.67
84 0.6
85 0.84
86 0.81
93 0.96
95 2.68
96 6.25
97 5.8
98 3.2
99 3.83
110 3.86
111 0.92
117 2.71
119 0.92
124 2.06
149 0.68
150 1.25
161 3.89
167 1.01
168 1.87
177 4.46
178 1.69
181 99.99
182 6.86
184 6.56
194 0.67
195 4.08
196 1.48
197 2.53
198 4.72
202 0.66
207 7.44
222 4.71
239 39.19
240 3.05
252 1.58

>  <PREDICTED SPECTRUM>  (2226) 
29 82
33 2
36 12
37 37
38 54
39 225
40 105
41 430
42 236
43 443
44 120
45 48
49 15
50 48
51 95
52 51
53 162
54 190
55 395
56 221
57 450
58 183
59 31
61 6
62 53
63 38
64 44
65 45
66 52
67 172
68 198
69 332
70 220
71 258
72 174
73 31
75 64
76 3
77 28
78 43
79 109
80 116
81 250
82 244
83 292
84 169
85 39
86 100
87 47
88 35
89 13
90 32
91 40
92 42
93 166
94 91
95 189
96 219
97 245
98 183
99 218
100 96
105 44
106 47
107 59
108 32
109 71
110 168
111 199
112 196
113 122
114 48
115 4
117 206
118 74
119 125
120 15
123 39
124 143
125 77
126 112
127 65
128 108
129 49
130 21
131 153
132 29
134 7
135 50
137 112
138 137
139 33
140 77
141 3
142 92
143 98
144 25
148 73
149 85
150 197
151 89
152 62
153 21
154 76
155 89
157 13
161 206
162 104
163 80
167 161
168 162
169 122
170 453
171 151
175 8
176 94
177 238
178 148
179 121
180 28
181 999
182 373
183 57
185 7
191 5
194 93
195 203
196 127
197 169
198 244
202 114
206 12
207 318
208 117
209 10
210 0
215 1
216 19
218 20
219 76
221 22
222 260
223 77
224 5
225 12
226 92
232 17
233 3
238 83
239 784
240 290
242 6
251 37
252 200
253 57
266 124
267 88
272 7
280 65
281 22
294 0
301 1
323 11
334 71
336 34
350 25
351 62

$$$$

     RDKit          2D

 23 23  0  0  0  0  0  0  0  0999 V2000
   16.8885    0.7525    0.0000 C   0  0  0  0  0  0  0  0  0  0  0  0
   15.5893    1.5023    0.0000 C   0  0  0  0  0  0  0  0  0  0  0  0
   14.2904    0.7521    0.0000 C   0  0  0  0  0  0  0  0  0  0  0  0
   12.9912    1.5019    0.0000 C   0  0  0  0  0  0  0  0  0  0  0  0
   11.6923    0.7517    0.0000 C   0  0  0  0  0  0  0  0  0  0  0  0
   10.3931    1.5015    0.0000 C   0  0  0  0  0  0  0  0  0  0  0  0
    9.0942    0.7512    0.0000 C   0  0  0  0  0  0  0  0  0  0  0  0
    7.7951    1.5010    0.0000 C   0  0  0  0  0  0  0  0  0  0  0  0
    6.4962    0.7508    0.0000 C   0  0  0  0  0  0  0  0  0  0  0  0
    3.8976    3.7504    0.0000 C   0  0  0  0  0  0  0  0  0  0  0  0
    3.8974    5.2504    0.0000 C   0  0  0  0  0  0  0  0  0  0  0  0
    2.5976    6.0008    0.0000 C   0  0  0  0  0  0  0  0  0  0  0  0
    5.1962    6.0008    0.0000 C   0  0  0  0  0  0  0  0  0  0  0  0
    2.5966    7.5017    0.0000 C   0  0  0  0  0  0  0  0  0  0  0  0
    5.1952    7.5017    0.0000 C   0  0  0  0  0  0  0  0  0  0  0  0
    3.8954    8.2521    0.0000 C   0  0  0  0  0  0  0  0  0  0  0  0
    1.2988    5.2504    0.0000 F   0  0  0  0  0  0  0  0  0  0  0  0
    6.4956    5.2515    0.0000 F   0  0  0  0  0  0  0  0  0  0  0  0
    1.2972    8.2510    0.0000 F   0  0  0  0  0  0  0  0  0  0  0  0
    6.4940    8.2521    0.0000 F   0  0  0  0  0  0  0  0  0  0  0  0
    3.8952    9.7521    0.0000 F   0  0  0  0  0  0  0  0  0  0  0  0
    5.1970    1.5006    0.0000 N   0  0  0  0  0  0  0  0  0  0  0  0
    5.1968    3.0006    0.0000 O   0  0  0  0  0  0  0  0  0  0  0  0
  2  1  1  0
  3  2  1  0
  4  3  1  0
  5  4  1  0
  6  5  1  0
  7  6  1  0
  8  7  1  0
  9  8  1  0
 11 10  1  0
 12 11  2  0
 13 11  1  0
 14 12  1  0
 15 13  2  0
 16 14  2  0
 16 15  1  0
 17 12  1  0
 18 13  1  0
 19 14  1  0
 20 15  1  0
 21 16  1  0
  9 22  2  0
 23 10  1  0
 23 22  1  0
M  END
>  <NAME>  (2227) 
NONANAL O-2,3,4,5,6-PENTAFLUOROBENZYLOXIME

>  <SYNONYMS>  (2227) 


>  <SPECTRUM TYPE>  (2227) 
MS1

>  <INSTRUMENT TYPE>  (2227) 
EI-B

>  <INSTRUMENT>  (2227) 
HP 5970

>  <ION MODE>  (2227) 
P

>  <INCHIKEY>  (2227) 
DYTJHXNVXCBNHN-AFPJDJCSSA-N

>  <FORMULA>  (2227) 
C16H20F5NO

>  <EXACT MASS>  (2227) 
337.14650536

>  <MW>  (2227) 
337

>  <ID>  (2227) 
JP008803

>  <CONTRIBUTOR>  (2227) 
University of Tokyo Team, {Faculty of Engineering, University of Tokyo

>  <COMMENT>  (2227) 
SMILES=CCCCCCCCC=NOCc(c(F)1)c(F)c(F)c(F)c(F)1
InChI=InChI=1S/C16H20F5NO/c1-2-3-4-5-6-7-8-9-22-23-10-11-12(17)14(19)16(21)15(20)13(11)18/h9H,2-8,10H2,1H3/b22-9-
computed SMILES=FC=1C(F)=C(F)C(=C(F)C1F)CON=CCCCCCCCC
accession=JP008803
date=2016.01.19 (Created 2008.10.21, modified 2011.05.06)
author=UOEH
license=CC BY-NC-SA
exact mass=337.14651
ionization energy=70 eV
ion type=[M]+*
computed spectral entropy=3.101503304891047
computed normalized entropy=0.7161612274853173
SPLASH=splash10-001i-8930000000-b74673754b6453d0aedc
submitter=submitter = University of Tokyo Team (Faculty of Engineering, University of Tokyo)
MoNA Rating=3.75

>  <NUM PEAKS>  (2227) 
76

>  <MASS SPECTRAL PEAKS>  (2227) 
41 27.31
42 4.89
43 22.05
44 1.72
46 0.6
51 0.4
53 1.64
54 4.24
55 12.56
56 4.24
57 8
58 2.47
59 0.33
67 2.75
68 1.92
69 9.47
70 2.12
71 2.99
72 0.99
79 1.47
80 0.65
81 3.41
82 5.08
83 4.88
84 1.55
85 1.09
86 1.27
93 1.64
95 1.87
96 4.26
97 2.73
98 2.14
99 2.94
100 0.8
110 2.54
111 0.81
112 0.73
117 2.28
119 1.85
124 0.88
131 0.73
137 0.43
143 0.27
149 0.8
150 1.85
154 0.37
155 0.33
161 3.48
162 0.36
167 1.51
168 1.23
169 0.4
170 5.8
171 0.31
176 0.96
177 3.75
178 1.52
179 0.33
181 99.99
182 0.74
189 0.35
194 0.92
195 3.29
196 0.97
197 1.89
198 3.29
202 1.26
207 0.61
208 0.37
219 0.82
222 4.79
223 0.3
226 0.34
239 38.24
240 3.91
252 1.7

>  <PREDICTED SPECTRUM>  (2227) 
29 93
36 2
37 30
38 50
39 222
40 106
41 420
42 235
43 425
44 102
45 56
46 31
49 15
50 53
51 97
52 50
53 155
54 182
55 376
56 212
57 394
58 178
59 22
61 12
62 51
63 24
64 46
65 43
66 61
67 169
68 203
69 311
70 190
71 222
72 169
73 17
75 64
77 39
78 17
79 104
80 116
81 228
82 222
83 268
84 174
85 70
86 95
87 45
88 29
89 12
90 33
91 27
92 56
93 156
94 63
95 152
96 187
97 218
98 165
99 218
100 102
105 43
106 26
107 24
109 53
110 150
111 163
112 195
113 120
114 99
115 46
117 194
118 67
119 116
120 27
123 62
124 159
125 119
126 111
127 8
128 92
129 24
130 34
131 155
132 25
137 97
138 99
139 20
140 121
141 62
142 4
143 94
144 19
148 75
149 103
150 200
151 80
152 7
155 89
156 460
157 151
161 206
162 101
163 60
167 160
168 170
169 115
171 3
176 92
177 237
178 150
179 118
180 31
181 999
182 372
183 63
184 14
194 114
195 205
196 137
197 167
198 239
202 131
206 2
207 301
208 107
209 5
218 54
219 70
222 254
223 53
225 9
226 94
233 3
238 92
239 763
240 283
251 37
252 186
253 69
266 131
267 62
280 17
281 28
320 57
322 28
336 24
337 66

$$$$

     RDKit          2D

 22 22  0  0  0  0  0  0  0  0999 V2000
   15.5893    1.5023    0.0000 C   0  0  0  0  0  0  0  0  0  0  0  0
   14.2904    0.7521    0.0000 C   0  0  0  0  0  0  0  0  0  0  0  0
   12.9912    1.5019    0.0000 C   0  0  0  0  0  0  0  0  0  0  0  0
   11.6923    0.7517    0.0000 C   0  0  0  0  0  0  0  0  0  0  0  0
   10.3931    1.5015    0.0000 C   0  0  0  0  0  0  0  0  0  0  0  0
    9.0942    0.7512    0.0000 C   0  0  0  0  0  0  0  0  0  0  0  0
    7.7951    1.5010    0.0000 C   0  0  0  0  0  0  0  0  0  0  0  0
    6.4962    0.7508    0.0000 C   0  0  0  0  0  0  0  0  0  0  0  0
    3.8976    3.7504    0.0000 C   0  0  0  0  0  0  0  0  0  0  0  0
    3.8974    5.2504    0.0000 C   0  0  0  0  0  0  0  0  0  0  0  0
    2.5976    6.0008    0.0000 C   0  0  0  0  0  0  0  0  0  0  0  0
    5.1962    6.0008    0.0000 C   0  0  0  0  0  0  0  0  0  0  0  0
    2.5966    7.5017    0.0000 C   0  0  0  0  0  0  0  0  0  0  0  0
    5.1952    7.5017    0.0000 C   0  0  0  0  0  0  0  0  0  0  0  0
    3.8954    8.2521    0.0000 C   0  0  0  0  0  0  0  0  0  0  0  0
    1.2988    5.2504    0.0000 F   0  0  0  0  0  0  0  0  0  0  0  0
    6.4956    5.2515    0.0000 F   0  0  0  0  0  0  0  0  0  0  0  0
    1.2972    8.2510    0.0000 F   0  0  0  0  0  0  0  0  0  0  0  0
    6.4940    8.2521    0.0000 F   0  0  0  0  0  0  0  0  0  0  0  0
    3.8952    9.7521    0.0000 F   0  0  0  0  0  0  0  0  0  0  0  0
    5.1970    1.5006    0.0000 N   0  0  0  0  0  0  0  0  0  0  0  0
    5.1968    3.0006    0.0000 O   0  0  0  0  0  0  0  0  0  0  0  0
  2  1  1  0
  3  2  1  0
  4  3  1  0
  5  4  1  0
  6  5  1  0
  7  6  1  0
  8  7  1  0
 10  9  1  0
 11 10  2  0
 12 10  1  0
 13 11  1  0
 14 12  2  0
 15 13  2  0
 15 14  1  0
 16 11  1  0
 17 12  1  0
 18 13  1  0
 19 14  1  0
 20 15  1  0
  8 21  2  0
 22  9  1  0
 22 21  1  0
M  END
>  <NAME>  (2228) 
OCTANAL O-2,3,4,5,6-PENTAFLUOROBENZYLOXIME

>  <SYNONYMS>  (2228) 


>  <SPECTRUM TYPE>  (2228) 
MS1

>  <INSTRUMENT TYPE>  (2228) 
EI-B

>  <INSTRUMENT>  (2228) 
HP 5970

>  <ION MODE>  (2228) 
P

>  <INCHIKEY>  (2228) 
RLSQIXNUITTXKZ-WNFQYIGGSA-N

>  <FORMULA>  (2228) 
C15H18F5NO

>  <EXACT MASS>  (2228) 
323.130855296

>  <MW>  (2228) 
323

>  <ID>  (2228) 
JP008802

>  <CONTRIBUTOR>  (2228) 
University of Tokyo Team, {Faculty of Engineering, University of Tokyo

>  <COMMENT>  (2228) 
SMILES=CCCCCCCC=NOCc(c(F)1)c(F)c(F)c(F)c(F)1
InChI=InChI=1S/C15H18F5NO/c1-2-3-4-5-6-7-8-21-22-9-10-11(16)13(18)15(20)14(19)12(10)17/h8H,2-7,9H2,1H3/b21-8-
computed SMILES=FC=1C(F)=C(F)C(=C(F)C1F)CON=CCCCCCCC
accession=JP008802
date=2016.01.19 (Created 2008.10.21, modified 2011.05.06)
author=UOEH
license=CC BY-NC-SA
exact mass=323.13086
ionization energy=70 eV
ion type=[M]+*
computed spectral entropy=2.914404045884468
computed normalized entropy=0.693131296314975
SPLASH=splash10-001i-6920000000-ce2f69f257e756174b77
submitter=submitter = University of Tokyo Team (Faculty of Engineering, University of Tokyo)
MoNA Rating=3.75

>  <NUM PEAKS>  (2228) 
67

>  <MASS SPECTRAL PEAKS>  (2228) 
41 22.74
42 3.79
43 14.45
44 0.78
46 0.64
51 0.54
53 0.99
54 3.57
55 10.87
56 3.05
57 6.66
58 2.23
67 2.24
68 0.96
69 6.67
70 0.86
71 0.53
72 0.65
75 0.7
79 1.02
80 0.3
81 2.03
82 5.68
83 2.73
84 0.34
86 0.66
93 1.34
96 2.52
97 0.77
98 0.97
99 3.17
109 0.92
110 0.62
111 0.77
112 0.29
114 0.32
117 2.6
119 1.5
131 0.86
142 2.85
143 0.62
149 0.63
150 1.78
155 0.31
161 3.55
162 0.27
167 2.11
168 0.8
169 0.26
176 0.92
177 3.36
178 1.27
179 0.57
181 99.99
182 7.16
194 0.99
195 3.42
196 1.16
197 1.11
198 3.02
202 0.86
207 5.99
219 0.3
222 4.21
239 32
240 2.62
252 1.44

>  <PREDICTED SPECTRUM>  (2228) 
29 78
37 28
38 48
39 213
40 101
41 402
42 224
43 397
44 99
45 49
46 6
49 13
50 56
51 95
52 53
53 151
54 174
55 352
56 184
57 316
58 167
59 14
61 14
62 48
63 30
64 32
65 51
66 66
67 145
68 183
69 285
70 187
71 199
72 171
73 15
75 63
77 29
78 37
79 84
80 95
81 197
82 186
83 245
84 155
85 104
86 99
87 39
88 16
89 4
90 25
91 23
92 31
93 146
94 31
95 119
96 163
97 161
98 158
99 211
100 134
101 7
105 31
106 24
107 51
108 38
109 66
110 150
111 157
112 190
113 66
114 84
115 21
117 184
118 62
119 120
124 101
125 83
126 159
127 46
129 15
130 34
131 156
132 29
135 31
137 88
138 5
141 48
142 328
143 99
144 25
147 5
148 77
149 70
150 200
151 75
153 0
155 86
157 0
161 204
162 95
163 78
167 162
168 156
169 117
170 2
176 96
177 233
178 146
179 113
180 33
181 999
182 368
183 66
194 94
195 210
196 133
197 164
198 232
202 127
204 30
207 282
208 97
212 2
218 28
219 69
221 4
222 248
223 44
225 1
226 61
238 85
239 736
240 271
242 6
251 37
252 170
253 34
255 7
266 97
267 71
281 25
294 7
306 23
308 14
322 7
323 94
324 6

$$$$

     RDKit          2D

 21 21  0  0  0  0  0  0  0  0999 V2000
   14.2904    0.7521    0.0000 C   0  0  0  0  0  0  0  0  0  0  0  0
   12.9912    1.5019    0.0000 C   0  0  0  0  0  0  0  0  0  0  0  0
   11.6923    0.7517    0.0000 C   0  0  0  0  0  0  0  0  0  0  0  0
   10.3931    1.5015    0.0000 C   0  0  0  0  0  0  0  0  0  0  0  0
    9.0942    0.7512    0.0000 C   0  0  0  0  0  0  0  0  0  0  0  0
    7.7951    1.5010    0.0000 C   0  0  0  0  0  0  0  0  0  0  0  0
    6.4962    0.7508    0.0000 C   0  0  0  0  0  0  0  0  0  0  0  0
    3.8976    3.7504    0.0000 C   0  0  0  0  0  0  0  0  0  0  0  0
    3.8974    5.2504    0.0000 C   0  0  0  0  0  0  0  0  0  0  0  0
    2.5976    6.0008    0.0000 C   0  0  0  0  0  0  0  0  0  0  0  0
    5.1962    6.0008    0.0000 C   0  0  0  0  0  0  0  0  0  0  0  0
    2.5966    7.5017    0.0000 C   0  0  0  0  0  0  0  0  0  0  0  0
    5.1952    7.5017    0.0000 C   0  0  0  0  0  0  0  0  0  0  0  0
    3.8954    8.2521    0.0000 C   0  0  0  0  0  0  0  0  0  0  0  0
    1.2988    5.2504    0.0000 F   0  0  0  0  0  0  0  0  0  0  0  0
    6.4956    5.2515    0.0000 F   0  0  0  0  0  0  0  0  0  0  0  0
    1.2972    8.2510    0.0000 F   0  0  0  0  0  0  0  0  0  0  0  0
    6.4940    8.2521    0.0000 F   0  0  0  0  0  0  0  0  0  0  0  0
    3.8952    9.7521    0.0000 F   0  0  0  0  0  0  0  0  0  0  0  0
    5.1970    1.5006    0.0000 N   0  0  0  0  0  0  0  0  0  0  0  0
    5.1968    3.0006    0.0000 O   0  0  0  0  0  0  0  0  0  0  0  0
  2  1  1  0
  3  2  1  0
  4  3  1  0
  5  4  1  0
  6  5  1  0
  7  6  1  0
  9  8  1  0
 10  9  2  0
 11  9  1  0
 12 10  1  0
 13 11  2  0
 14 12  2  0
 14 13  1  0
 15 10  1  0
 16 11  1  0
 17 12  1  0
 18 13  1  0
 19 14  1  0
  7 20  2  0
 21  8  1  0
 21 20  1  0
M  END
>  <NAME>  (2229) 
HEPTANAL O-2,3,4,5,6-PENTAFLUOROBENZYLOXIME

>  <SYNONYMS>  (2229) 


>  <SPECTRUM TYPE>  (2229) 
MS1

>  <INSTRUMENT TYPE>  (2229) 
EI-B

>  <INSTRUMENT>  (2229) 
HP 5970

>  <ION MODE>  (2229) 
P

>  <INCHIKEY>  (2229) 
OZZBQOMRSSEYJF-SCDVKCJHSA-N

>  <FORMULA>  (2229) 
C14H16F5NO

>  <EXACT MASS>  (2229) 
309.115205232

>  <MW>  (2229) 
309

>  <ID>  (2229) 
JP008801

>  <CONTRIBUTOR>  (2229) 
University of Tokyo Team, {Faculty of Engineering, University of Tokyo

>  <COMMENT>  (2229) 
SMILES=CCCCCCC=NOCc(c(F)1)c(F)c(F)c(F)c(F)1
InChI=InChI=1S/C14H16F5NO/c1-2-3-4-5-6-7-20-21-8-9-10(15)12(17)14(19)13(18)11(9)16/h7H,2-6,8H2,1H3/b20-7-
computed SMILES=FC=1C(F)=C(F)C(=C(F)C1F)CON=CCCCCCC
accession=JP008801
date=2016.01.19 (Created 2008.10.21, modified 2011.05.06)
author=UOEH
license=CC BY-NC-SA
exact mass=309.11521
ionization energy=70 eV
ion type=[M]+*
computed spectral entropy=3.014605414582922
computed normalized entropy=0.6940010248655345
SPLASH=splash10-001i-5920000000-74fca531d030c6ca1992
submitter=submitter = University of Tokyo Team (Faculty of Engineering, University of Tokyo)
MoNA Rating=3.75

>  <NUM PEAKS>  (2229) 
77

>  <MASS SPECTRAL PEAKS>  (2229) 
41 21.17
42 3.56
43 16.45
44 1.57
45 0.42
46 0.96
51 0.9
52 0.44
53 1.36
54 2.25
55 7.63
56 2.54
57 2.82
58 2.76
59 0.42
60 0.53
67 1.15
68 1.53
69 3.89
70 1.03
71 1.31
72 1.08
75 1.01
79 0.61
80 0.59
81 1.46
82 3.45
83 1.83
84 0.59
86 0.98
93 1.79
95 1.87
96 0.6
97 1.47
98 1.04
99 2.44
100 1.4
111 0.54
112 0.99
117 2.31
119 1.78
128 4.47
129 0.54
131 1.17
137 0.57
143 0.79
149 0.82
150 1.24
155 0.94
161 3.77
162 0.84
163 0.5
167 2.25
168 1.02
169 0.64
176 0.54
177 2.36
178 1.05
179 0.68
181 99.99
182 7.16
189 0.54
190 0.62
194 0.9
195 3
196 0.99
197 1.37
198 1.58
202 1.39
207 6.53
208 0.82
219 0.88
222 3.58
239 29.95
240 2.94
252 1.21
281 0.78

>  <PREDICTED SPECTRUM>  (2229) 
1 2
27 3
29 61
37 20
38 46
39 201
40 96
41 383
42 210
43 371
44 81
45 34
46 41
49 6
50 46
51 89
52 50
53 134
54 164
55 329
56 198
57 273
58 158
59 13
61 9
62 41
63 16
64 30
65 32
66 37
67 113
68 158
69 261
70 164
71 185
72 187
73 23
75 60
77 14
78 1
79 45
80 70
81 170
82 163
83 217
84 160
85 103
86 131
87 50
90 9
92 33
93 146
94 59
95 120
96 165
97 154
98 148
99 195
100 119
105 25
109 7
110 98
111 115
112 214
113 99
115 10
117 180
118 64
119 129
120 10
127 31
128 411
129 138
130 56
131 163
132 11
137 77
140 2
143 89
144 3
148 85
149 80
150 208
151 78
152 0
153 1
155 94
161 198
162 89
163 67
166 8
167 165
168 161
169 116
176 109
177 239
178 147
179 110
180 33
181 999
182 365
183 66
190 17
194 77
195 218
196 127
197 169
198 226
202 135
205 18
207 261
208 94
219 38
221 16
222 240
223 38
226 55
238 78
239 706
240 258
251 6
252 154
253 95
254 10
266 44
267 38
279 0
280 26
281 54
294 51
308 5

$$$$

     RDKit          2D

 20 20  0  0  0  0  0  0  0  0999 V2000
   12.9912    1.5019    0.0000 C   0  0  0  0  0  0  0  0  0  0  0  0
   11.6923    0.7517    0.0000 C   0  0  0  0  0  0  0  0  0  0  0  0
   10.3931    1.5015    0.0000 C   0  0  0  0  0  0  0  0  0  0  0  0
    9.0942    0.7512    0.0000 C   0  0  0  0  0  0  0  0  0  0  0  0
    7.7951    1.5010    0.0000 C   0  0  0  0  0  0  0  0  0  0  0  0
    6.4962    0.7508    0.0000 C   0  0  0  0  0  0  0  0  0  0  0  0
    3.8976    3.7504    0.0000 C   0  0  0  0  0  0  0  0  0  0  0  0
    3.8974    5.2504    0.0000 C   0  0  0  0  0  0  0  0  0  0  0  0
    2.5976    6.0008    0.0000 C   0  0  0  0  0  0  0  0  0  0  0  0
    5.1962    6.0008    0.0000 C   0  0  0  0  0  0  0  0  0  0  0  0
    2.5966    7.5017    0.0000 C   0  0  0  0  0  0  0  0  0  0  0  0
    5.1952    7.5017    0.0000 C   0  0  0  0  0  0  0  0  0  0  0  0
    3.8954    8.2521    0.0000 C   0  0  0  0  0  0  0  0  0  0  0  0
    1.2988    5.2504    0.0000 F   0  0  0  0  0  0  0  0  0  0  0  0
    6.4956    5.2515    0.0000 F   0  0  0  0  0  0  0  0  0  0  0  0
    1.2972    8.2510    0.0000 F   0  0  0  0  0  0  0  0  0  0  0  0
    6.4940    8.2521    0.0000 F   0  0  0  0  0  0  0  0  0  0  0  0
    3.8952    9.7521    0.0000 F   0  0  0  0  0  0  0  0  0  0  0  0
    5.1970    1.5006    0.0000 N   0  0  0  0  0  0  0  0  0  0  0  0
    5.1968    3.0006    0.0000 O   0  0  0  0  0  0  0  0  0  0  0  0
  2  1  1  0
  3  2  1  0
  4  3  1  0
  5  4  1  0
  6  5  1  0
  8  7  1  0
  9  8  2  0
 10  8  1  0
 11  9  1  0
 12 10  2  0
 13 11  2  0
 13 12  1  0
 14  9  1  0
 15 10  1  0
 16 11  1  0
 17 12  1  0
 18 13  1  0
  6 19  2  0
 20  7  1  0
 20 19  1  0
M  END
>  <NAME>  (2230) 
HEXANAL O-2,3,4,5,6-PENTAFLUOROBENZYLOXIME

>  <SYNONYMS>  (2230) 


>  <SPECTRUM TYPE>  (2230) 
MS1

>  <INSTRUMENT TYPE>  (2230) 
EI-B

>  <INSTRUMENT>  (2230) 
HP 5970

>  <ION MODE>  (2230) 
P

>  <INCHIKEY>  (2230) 
GPAVMFOMYSGJDM-SWNXQHNESA-N

>  <FORMULA>  (2230) 
C13H14F5NO

>  <EXACT MASS>  (2230) 
295.099555168

>  <MW>  (2230) 
295

>  <ID>  (2230) 
JP008800

>  <CONTRIBUTOR>  (2230) 
University of Tokyo Team, {Faculty of Engineering, University of Tokyo

>  <COMMENT>  (2230) 
SMILES=CCCCCC=NOCc(c(F)1)c(F)c(F)c(F)c(F)1
InChI=InChI=1S/C13H14F5NO/c1-2-3-4-5-6-19-20-7-8-9(14)11(16)13(18)12(17)10(8)15/h6H,2-5,7H2,1H3/b19-6-
computed SMILES=FC=1C(F)=C(F)C(=C(F)C1F)CON=CCCCCC
accession=JP008800
date=2016.01.19 (Created 2008.10.21, modified 2011.05.06)
author=UOEH
license=CC BY-NC-SA
exact mass=295.09956
ionization energy=70 eV
ion type=[M]+*
computed spectral entropy=2.5162859849970416
computed normalized entropy=0.6050388853356055
SPLASH=splash10-001i-3920000000-f356f6363e8b091d8378
submitter=submitter = University of Tokyo Team (Faculty of Engineering, University of Tokyo)
MoNA Rating=3.75

>  <NUM PEAKS>  (2230) 
64

>  <MASS SPECTRAL PEAKS>  (2230) 
41 13.65
42 2.82
43 9.3
44 0.56
51 0.58
53 0.79
54 1.96
55 5
56 1.09
57 2.23
58 1.05
68 1.26
69 2.3
70 0.19
71 0.87
72 0.15
75 0.58
79 0.43
81 1.44
82 0.57
83 0.91
86 0.48
93 1.07
98 0.69
99 2.1
112 0.23
114 1.94
117 2.03
119 1.33
131 0.78
137 0.16
143 0.25
148 0.16
149 0.24
150 0.74
155 0.61
161 3.22
162 0.58
167 2.11
168 1.02
169 0.26
176 1.53
177 1.7
178 0.27
179 0.45
181 99.99
182 7.49
189 0.47
194 0.18
195 3.44
196 0.74
197 0.76
198 1.21
207 1.9
209 0.29
222 2.94
223 0.67
239 19.5
240 1.8
252 2.35
253 0.22
267 0.21
278 0.57
295 0.33

>  <PREDICTED SPECTRUM>  (2230) 
27 6
29 44
33 0
37 17
38 47
39 194
40 98
41 364
42 202
43 339
44 64
45 22
46 26
50 51
51 80
52 30
53 112
54 147
55 292
56 186
57 248
58 160
59 32
62 30
66 1
67 63
68 132
69 219
70 160
71 163
72 213
73 47
74 4
75 68
79 32
80 74
81 156
82 148
83 181
84 135
86 109
87 35
92 3
93 125
94 7
95 39
96 73
97 86
98 170
99 222
100 72
105 32
106 3
107 9
110 8
112 91
113 78
114 334
115 146
117 182
118 63
119 133
126 0
127 0
129 0
130 73
131 175
132 10
137 58
141 14
142 13
143 95
148 106
149 55
150 224
151 52
155 98
161 190
162 89
163 90
167 162
168 179
169 120
176 134
177 253
178 145
179 95
180 40
181 999
182 359
183 68
191 31
194 101
195 243
196 148
197 179
198 209
202 121
207 223
208 92
209 54
218 19
219 58
221 1
222 201
223 31
226 56
227 9
233 16
238 65
239 662
240 231
251 14
252 133
265 21
266 113
267 78
278 39
280 57
281 37
294 38
295 115
296 17

$$$$

     RDKit          2D

 18 18  0  0  0  0  0  0  0  0999 V2000
   10.3931    1.5015    0.0000 C   0  0  0  0  0  0  0  0  0  0  0  0
    9.0942    0.7512    0.0000 C   0  0  0  0  0  0  0  0  0  0  0  0
    7.7951    1.5010    0.0000 C   0  0  0  0  0  0  0  0  0  0  0  0
    6.4962    0.7508    0.0000 C   0  0  0  0  0  0  0  0  0  0  0  0
    2.5989    1.5002    0.0000 C   0  0  0  0  0  0  0  0  0  0  0  0
    1.3000    0.7500    0.0000 C   0  0  0  0  0  0  0  0  0  0  0  0
   -0.0000    1.5000    0.0000 C   0  0  0  0  0  0  0  0  0  0  0  0
    1.3000   -0.7500    0.0000 C   0  0  0  0  0  0  0  0  0  0  0  0
   -1.3000    0.7500    0.0000 C   0  0  0  0  0  0  0  0  0  0  0  0
    0.0000   -1.5000    0.0000 C   0  0  0  0  0  0  0  0  0  0  0  0
   -1.3000   -0.7500    0.0000 C   0  0  0  0  0  0  0  0  0  0  0  0
    0.0000    3.0000    0.0000 F   0  0  0  0  0  0  0  0  0  0  0  0
    2.5989   -1.5002    0.0000 F   0  0  0  0  0  0  0  0  0  0  0  0
   -2.5989    1.5002    0.0000 F   0  0  0  0  0  0  0  0  0  0  0  0
   -0.0000   -3.0000    0.0000 F   0  0  0  0  0  0  0  0  0  0  0  0
   -2.5989   -1.5002    0.0000 F   0  0  0  0  0  0  0  0  0  0  0  0
    5.1970    1.5006    0.0000 N   0  0  0  0  0  0  0  0  0  0  0  0
    3.8981    0.7504    0.0000 O   0  0  0  0  0  0  0  0  0  0  0  0
  2  1  1  0
  3  2  1  0
  4  3  1  0
  6  5  1  0
  7  6  2  0
  8  6  1  0
  9  7  1  0
 10  8  2  0
 11  9  2  0
 11 10  1  0
 12  7  1  0
 13  8  1  0
 14  9  1  0
 15 10  1  0
 16 11  1  0
  4 17  2  0
 18  5  1  0
 18 17  1  0
M  END
>  <NAME>  (2231) 
BUTYRALDEHYDE O-2,3,4,5,6-PENTAFLUOROBENZYLOXIME

>  <SYNONYMS>  (2231) 


>  <SPECTRUM TYPE>  (2231) 
MS1

>  <INSTRUMENT TYPE>  (2231) 
EI-B

>  <INSTRUMENT>  (2231) 
HP 5970

>  <ION MODE>  (2231) 
P

>  <INCHIKEY>  (2231) 
MDJOICYRBFIYJJ-HAVNEIBRSA-N

>  <FORMULA>  (2231) 
C11H10F5NO

>  <EXACT MASS>  (2231) 
267.06825504

>  <MW>  (2231) 
267

>  <ID>  (2231) 
JP008798

>  <CONTRIBUTOR>  (2231) 
University of Tokyo Team, {Faculty of Engineering, University of Tokyo

>  <COMMENT>  (2231) 
SMILES=CCCC=NOCc(c(F)1)c(F)c(F)c(F)c(F)1
InChI=InChI=1S/C11H10F5NO/c1-2-3-4-17-18-5-6-7(12)9(14)11(16)10(15)8(6)13/h4H,2-3,5H2,1H3/b17-4+
computed SMILES=FC=1C(F)=C(F)C(=C(F)C1F)CON=CCCC
accession=JP008798
date=2016.01.19 (Created 2008.10.21, modified 2011.05.06)
author=UOEH
license=CC BY-NC-SA
exact mass=267.06825
ionization energy=70 eV
ion type=[M]+*
computed spectral entropy=2.3330500646391656
computed normalized entropy=0.5631122854339661
SPLASH=splash10-001i-2910000000-80fad4928f823ddb34ae
submitter=submitter = University of Tokyo Team (Faculty of Engineering, University of Tokyo)
MoNA Rating=3.75

>  <NUM PEAKS>  (2231) 
63

>  <MASS SPECTRAL PEAKS>  (2231) 
41 12.14
42 2.48
43 7.29
44 1.46
45 0.73
51 0.74
53 0.23
54 0.33
55 1.16
56 0.65
57 0.53
58 0.42
62 0.18
68 0.45
69 2.18
70 0.28
74 0.11
75 0.85
79 0.37
80 0.35
81 0.99
86 2.33
93 1.36
98 0.52
99 2.14
111 0.21
112 0.64
117 2.36
118 0.21
119 1.29
130 0.2
131 1.17
137 0.44
143 0.64
148 0.35
149 0.5
150 0.85
151 0.2
155 0.88
161 3.39
162 0.68
163 0.24
167 1.94
168 1.04
169 0.44
176 0.3
177 0.99
178 0.47
179 0.49
181 99.99
182 7.59
183 0.11
195 5.33
196 1.03
197 0.54
198 0.8
207 0.53
222 0.62
239 16.51
240 1.54
250 1.41
252 0.34
267 0.63

>  <PREDICTED SPECTRUM>  (2231) 
29 54
37 30
38 32
39 179
40 80
41 291
42 174
43 298
44 128
45 37
49 7
50 46
51 96
52 44
53 133
54 131
55 204
56 176
57 143
58 125
59 16
62 41
67 59
68 112
69 176
70 209
71 155
72 159
73 8
74 15
75 80
79 29
80 31
81 108
83 69
85 46
86 256
87 81
88 2
93 113
97 13
98 32
99 220
100 17
105 28
106 4
111 53
112 101
113 60
117 192
118 68
119 146
120 1
125 6
130 64
131 180
132 57
137 27
143 115
144 7
148 89
149 86
150 173
151 24
155 113
161 185
162 117
163 67
167 170
168 133
169 124
175 25
176 78
177 154
178 111
179 30
180 37
181 999
182 342
183 96
189 6
195 261
196 143
197 184
198 152
199 15
202 4
207 140
208 47
218 55
219 37
221 34
222 126
223 25
238 59
239 508
240 154
250 112
251 21
252 108
253 42
266 100
267 134
268 34

$$$$

     RDKit          2D

 17 17  0  0  0  0  0  0  0  0999 V2000
    9.0942    0.7512    0.0000 C   0  0  0  0  0  0  0  0  0  0  0  0
    7.7951    1.5010    0.0000 C   0  0  0  0  0  0  0  0  0  0  0  0
    6.4962    0.7508    0.0000 C   0  0  0  0  0  0  0  0  0  0  0  0
    2.5989    1.5002    0.0000 C   0  0  0  0  0  0  0  0  0  0  0  0
    1.3000    0.7500    0.0000 C   0  0  0  0  0  0  0  0  0  0  0  0
   -0.0000    1.5000    0.0000 C   0  0  0  0  0  0  0  0  0  0  0  0
    1.3000   -0.7500    0.0000 C   0  0  0  0  0  0  0  0  0  0  0  0
   -1.3000    0.7500    0.0000 C   0  0  0  0  0  0  0  0  0  0  0  0
    0.0000   -1.5000    0.0000 C   0  0  0  0  0  0  0  0  0  0  0  0
   -1.3000   -0.7500    0.0000 C   0  0  0  0  0  0  0  0  0  0  0  0
    0.0000    3.0000    0.0000 F   0  0  0  0  0  0  0  0  0  0  0  0
    2.5989   -1.5002    0.0000 F   0  0  0  0  0  0  0  0  0  0  0  0
   -2.5989    1.5002    0.0000 F   0  0  0  0  0  0  0  0  0  0  0  0
   -0.0000   -3.0000    0.0000 F   0  0  0  0  0  0  0  0  0  0  0  0
   -2.5989   -1.5002    0.0000 F   0  0  0  0  0  0  0  0  0  0  0  0
    5.1970    1.5006    0.0000 N   0  0  0  0  0  0  0  0  0  0  0  0
    3.8981    0.7504    0.0000 O   0  0  0  0  0  0  0  0  0  0  0  0
  2  1  1  0
  3  2  1  0
  5  4  1  0
  6  5  2  0
  7  5  1  0
  8  6  1  0
  9  7  2  0
 10  8  2  0
 10  9  1  0
 11  6  1  0
 12  7  1  0
 13  8  1  0
 14  9  1  0
 15 10  1  0
  3 16  2  0
 17  4  1  0
 17 16  1  0
M  END
>  <NAME>  (2232) 
PROPYRALDEHYDE O-2,3,4,5,6-PENTAFLUOROBENZYLOXIME

>  <SYNONYMS>  (2232) 


>  <SPECTRUM TYPE>  (2232) 
MS1

>  <INSTRUMENT TYPE>  (2232) 
EI-B

>  <INSTRUMENT>  (2232) 
HP 5970

>  <ION MODE>  (2232) 
P

>  <INCHIKEY>  (2232) 
BOPZGAUHLLBMFA-HQYXKAPLSA-N

>  <FORMULA>  (2232) 
C10H8F5NO

>  <EXACT MASS>  (2232) 
253.052604976

>  <MW>  (2232) 
253

>  <ID>  (2232) 
JP008797

>  <CONTRIBUTOR>  (2232) 
University of Tokyo Team, {Faculty of Engineering, University of Tokyo

>  <COMMENT>  (2232) 
SMILES=CCC=NOCc(c(F)1)c(F)c(F)c(F)c(F)1
InChI=InChI=1S/C10H8F5NO/c1-2-3-16-17-4-5-6(11)8(13)10(15)9(14)7(5)12/h3H,2,4H2,1H3/b16-3+
computed SMILES=FC=1C(F)=C(F)C(=C(F)C1F)CON=CCC
accession=JP008797
date=2016.01.19 (Created 2008.10.21, modified 2011.05.06)
author=UOEH
license=CC BY-NC-SA
exact mass=253.0526
ionization energy=70 eV
ion type=[M]+*
computed spectral entropy=2.272340738037844
computed normalized entropy=0.542369449979731
SPLASH=splash10-001i-1910000000-352313446d1354af92f4
submitter=submitter = University of Tokyo Team (Faculty of Engineering, University of Tokyo)
MoNA Rating=3.75

>  <NUM PEAKS>  (2232) 
66

>  <MASS SPECTRAL PEAKS>  (2232) 
41 2.65
42 1.59
43 0.25
44 3.1
45 0.41
49 0.15
50 0.1
51 0.91
52 0.25
54 1.36
55 0.27
56 0.49
57 0.29
61 0.25
62 0.27
68 0.21
69 1.83
72 1.11
74 0.36
75 1.24
79 0.57
80 0.44
81 1.35
86 0.25
92 0.19
93 2
98 0.94
99 3.31
100 0.14
111 0.33
112 0.88
113 0.22
117 3.67
118 0.36
119 2.04
129 0.21
130 0.36
131 1.45
137 0.66
143 0.79
148 0.64
149 0.71
150 1.19
151 0.17
155 1.15
161 4.77
162 1
163 0.16
167 3.09
168 1.4
169 0.65
177 1.01
178 0.55
179 0.33
181 99.99
182 0.73
183 0.13
195 3.89
196 0.61
197 0.67
198 0.42
223 3.21
224 0.22
236 14.3
237 1.57
253 1.14

>  <PREDICTED SPECTRUM>  (2232) 
29 70
31 17
37 46
38 58
39 182
40 88
41 229
42 156
43 178
44 85
49 20
50 53
51 73
52 20
53 104
54 82
55 146
56 140
57 118
58 85
62 72
66 0
67 29
68 30
69 88
71 50
72 174
73 30
74 20
75 94
79 15
81 102
83 70
86 66
87 46
88 14
93 131
94 2
97 8
98 93
99 196
100 17
105 26
106 3
107 8
111 48
112 120
113 29
117 222
118 72
119 101
130 77
131 156
132 4
135 14
137 56
143 100
144 30
148 104
149 69
150 183
155 103
161 202
162 125
167 234
168 127
169 127
175 29
176 72
177 128
178 28
180 8
181 999
182 343
183 29
185 9
195 256
196 138
197 184
198 164
204 25
207 130
208 48
222 64
223 71
225 19
226 75
234 6
238 53
239 350
252 102
253 211
254 61
255 3

$$$$

     RDKit          2D

 16 16  0  0  0  0  0  0  0  0999 V2000
    7.7951    1.5010    0.0000 C   0  0  0  0  0  0  0  0  0  0  0  0
    6.4962    0.7508    0.0000 C   0  0  0  0  0  0  0  0  0  0  0  0
    2.5989    1.5002    0.0000 C   0  0  0  0  0  0  0  0  0  0  0  0
    1.3000    0.7500    0.0000 C   0  0  0  0  0  0  0  0  0  0  0  0
   -0.0000    1.5000    0.0000 C   0  0  0  0  0  0  0  0  0  0  0  0
    1.3000   -0.7500    0.0000 C   0  0  0  0  0  0  0  0  0  0  0  0
   -1.3000    0.7500    0.0000 C   0  0  0  0  0  0  0  0  0  0  0  0
    0.0000   -1.5000    0.0000 C   0  0  0  0  0  0  0  0  0  0  0  0
   -1.3000   -0.7500    0.0000 C   0  0  0  0  0  0  0  0  0  0  0  0
    0.0000    3.0000    0.0000 F   0  0  0  0  0  0  0  0  0  0  0  0
    2.5989   -1.5002    0.0000 F   0  0  0  0  0  0  0  0  0  0  0  0
   -2.5989    1.5002    0.0000 F   0  0  0  0  0  0  0  0  0  0  0  0
   -0.0000   -3.0000    0.0000 F   0  0  0  0  0  0  0  0  0  0  0  0
   -2.5989   -1.5002    0.0000 F   0  0  0  0  0  0  0  0  0  0  0  0
    5.1970    1.5006    0.0000 N   0  0  0  0  0  0  0  0  0  0  0  0
    3.8981    0.7504    0.0000 O   0  0  0  0  0  0  0  0  0  0  0  0
  2  1  1  0
  4  3  1  0
  5  4  2  0
  6  4  1  0
  7  5  1  0
  8  6  2  0
  9  7  2  0
  9  8  1  0
 10  5  1  0
 11  6  1  0
 12  7  1  0
 13  8  1  0
 14  9  1  0
  2 15  2  0
 16  3  1  0
 16 15  1  0
M  END
>  <NAME>  (2233) 
ACETALDEHYDE O-2,3,4,5,6-PENTAFLUOROBENZYLOXIME

>  <SYNONYMS>  (2233) 


>  <SPECTRUM TYPE>  (2233) 
MS1

>  <INSTRUMENT TYPE>  (2233) 
EI-B

>  <INSTRUMENT>  (2233) 
HP 5970

>  <ION MODE>  (2233) 
P

>  <INCHIKEY>  (2233) 
AKDRYEADQPNLOH-RSSMCMFDSA-N

>  <FORMULA>  (2233) 
C9H6F5NO

>  <EXACT MASS>  (2233) 
239.036954912

>  <MW>  (2233) 
239

>  <ID>  (2233) 
JP008796

>  <CONTRIBUTOR>  (2233) 
University of Tokyo Team, {Faculty of Engineering, University of Tokyo

>  <COMMENT>  (2233) 
SMILES=CC=NOCc(c(F)1)c(F)c(F)c(F)c(F)1
InChI=InChI=1S/C9H6F5NO/c1-2-15-16-3-4-5(10)7(12)9(14)8(13)6(4)11/h2H,3H2,1H3/b15-2+
computed SMILES=FC=1C(F)=C(F)C(=C(F)C1F)CON=CC
accession=JP008796
date=2016.01.19 (Created 2008.10.21, modified 2011.05.06)
author=UOEH
license=CC BY-NC-SA
exact mass=239.03695
ionization energy=70 eV
ion type=[M]+*
computed spectral entropy=2.0930457836987726
computed normalized entropy=0.5133112356397941
SPLASH=splash10-001i-1900000000-a71c1412bd3f5006d93c
submitter=submitter = University of Tokyo Team (Faculty of Engineering, University of Tokyo)
MoNA Rating=3.75

>  <NUM PEAKS>  (2233) 
59

>  <MASS SPECTRAL PEAKS>  (2233) 
41 2.42
42 2.32
44 0.33
49 0.11
51 0.86
56 0.17
57 0.43
58 1.52
61 0.23
62 0.32
68 0.25
69 2.14
74 0.36
75 1.29
79 0.65
80 0.53
81 1.52
86 0.23
92 0.21
93 2.13
98 1.1
99 3.01
100 0.13
105 0.12
111 0.47
112 1
113 0.24
117 3.71
118 0.43
119 1.67
129 0.21
130 0.38
131 1.77
137 0.68
143 0.81
148 0.53
149 0.48
150 1.13
155 1.36
161 4.98
162 1.13
163 0.11
167 2.94
168 1.31
169 0.42
177 0.61
178 0.41
179 0.46
181 99.99
182 7.27
183 0.16
192 0.39
195 3.13
196 0.78
197 0.4
198 0.45
209 1.16
210 1.14
239 1.09

>  <PREDICTED SPECTRUM>  (2233) 
37 26
38 35
39 125
40 64
41 110
42 150
43 124
44 15
49 21
50 50
51 131
52 36
53 96
54 6
55 24
57 55
58 82
59 0
62 78
63 38
64 13
67 46
69 104
72 51
73 1
74 90
75 162
76 2
78 5
79 12
80 21
81 140
86 7
90 15
92 3
93 162
94 20
97 5
98 94
99 217
100 72
105 17
106 5
111 16
112 154
113 3
117 268
118 84
119 149
130 137
131 222
132 14
133 2
135 13
136 3
137 97
143 154
144 49
148 120
149 75
150 188
155 161
161 246
162 164
163 14
167 259
168 159
169 102
176 40
177 77
178 24
180 38
181 999
182 341
190 10
194 11
195 255
196 143
197 142
198 58
209 137
211 17
218 27
220 9
221 30
222 96
223 42
238 109
239 420
240 155
241 16

$$$$

     RDKit          2D

 15 15  0  0  0  0  0  0  0  0999 V2000
    6.4962    0.7508    0.0000 C   0  0  0  0  0  0  0  0  0  0  0  0
    2.5989    1.5002    0.0000 C   0  0  0  0  0  0  0  0  0  0  0  0
    1.3000    0.7500    0.0000 C   0  0  0  0  0  0  0  0  0  0  0  0
    0.0000    1.5000    0.0000 C   0  0  0  0  0  0  0  0  0  0  0  0
    1.3000   -0.7500    0.0000 C   0  0  0  0  0  0  0  0  0  0  0  0
   -1.3000    0.7500    0.0000 C   0  0  0  0  0  0  0  0  0  0  0  0
   -0.0000   -1.5000    0.0000 C   0  0  0  0  0  0  0  0  0  0  0  0
   -1.3000   -0.7500    0.0000 C   0  0  0  0  0  0  0  0  0  0  0  0
    0.0000    3.0000    0.0000 F   0  0  0  0  0  0  0  0  0  0  0  0
    2.5989   -1.5002    0.0000 F   0  0  0  0  0  0  0  0  0  0  0  0
   -2.5989    1.5002    0.0000 F   0  0  0  0  0  0  0  0  0  0  0  0
   -0.0000   -3.0000    0.0000 F   0  0  0  0  0  0  0  0  0  0  0  0
   -2.5989   -1.5002    0.0000 F   0  0  0  0  0  0  0  0  0  0  0  0
    5.1970    1.5006    0.0000 N   0  0  0  0  0  0  0  0  0  0  0  0
    3.8981    0.7504    0.0000 O   0  0  0  0  0  0  0  0  0  0  0  0
  3  2  1  0
  4  3  2  0
  5  3  1  0
  6  4  1  0
  7  5  2  0
  8  6  2  0
  8  7  1  0
  9  4  1  0
 10  5  1  0
 11  6  1  0
 12  7  1  0
 13  8  1  0
 14  1  2  0
 15  2  1  0
 15 14  1  0
M  END
>  <NAME>  (2234) 
FORMALDEHYDE O-2,3,4,5,6-PENTAFLUOROBENZYLOXIME

>  <SYNONYMS>  (2234) 


>  <SPECTRUM TYPE>  (2234) 
MS1

>  <INSTRUMENT TYPE>  (2234) 
EI-B

>  <INSTRUMENT>  (2234) 
HP 5970

>  <ION MODE>  (2234) 
P

>  <INCHIKEY>  (2234) 
SRTQFRQWTUMMTC-UHFFFAOYSA-N

>  <FORMULA>  (2234) 
C8H4F5NO

>  <EXACT MASS>  (2234) 
225.021304848

>  <MW>  (2234) 
225

>  <ID>  (2234) 
JP008795

>  <CONTRIBUTOR>  (2234) 
University of Tokyo Team, {Faculty of Engineering, University of Tokyo

>  <COMMENT>  (2234) 
SMILES=C=NOCc(c(F)1)c(F)c(F)c(F)c(F)1
InChI=InChI=1S/C8H4F5NO/c1-14-15-2-3-4(9)6(11)8(13)7(12)5(3)10/h1-2H2
computed SMILES=FC=1C(F)=C(F)C(=C(F)C1F)CON=C
accession=JP008795
date=2016.01.19 (Created 2008.10.21, modified 2011.05.06)
author=UOEH
license=CC BY-NC-SA
exact mass=225.0213
ionization energy=70 eV
ion type=[M]+*
computed spectral entropy=2.337351252285782
computed normalized entropy=0.5620141767480511
SPLASH=splash10-001i-1900000000-f686f67591265a2e3c97
submitter=submitter = University of Tokyo Team (Faculty of Engineering, University of Tokyo)
MoNA Rating=3.75

>  <NUM PEAKS>  (2234) 
64

>  <MASS SPECTRAL PEAKS>  (2234) 
43 0.62
44 3.06
49 0.18
50 0.11
51 1.17
55 0.28
56 0.31
57 0.41
61 0.49
62 0.51
68 0.47
69 2.94
74 0.75
75 1.9
79 1.23
80 0.8
81 2
86 0.49
92 0.35
93 3.28
98 1.66
99 4.54
100 0.26
105 0.31
110 0.17
111 0.68
112 1.22
113 0.36
117 5.71
118 0.66
119 2.52
120 0.11
123 0.18
124 0.13
129 0.37
130 0.66
131 2.45
132 0.14
137 0.93
141 0.16
143 1.02
148 0.8
149 0.89
150 1.46
151 0.2
155 1.82
161 7.22
162 1.69
163 0.15
167 4.28
168 1.81
169 0.57
176 0.1
177 0.64
178 0.47
179 0.37
181 99.99
182 7.46
183 0.18
195 11.38
196 1.38
197 0.61
198 0.57
225 0.13

>  <PREDICTED SPECTRUM>  (2234) 
31 30
37 13
39 8
44 192
49 26
50 29
51 58
62 38
64 18
69 63
74 56
75 160
76 16
79 47
81 99
86 61
87 25
92 13
93 208
94 23
98 145
99 142
105 48
106 14
111 13
112 154
113 40
116 24
117 285
118 74
119 148
120 13
129 32
130 106
131 156
137 94
143 123
144 28
147 32
148 117
149 25
150 127
155 101
161 249
162 157
167 232
168 109
169 40
176 46
177 14
178 35
180 109
181 999
182 302
188 2
195 180
196 74
197 90
204 52
206 118
207 33
208 137
209 51
225 341
226 180
227 32

$$$$

     RDKit          2D

  5  4  0  0  0  0  0  0  0  0999 V2000
    0.0000    0.0000    0.0000 C   0  0  0  0  0  0  0  0  0  0  0  0
   -1.2990    2.2500    0.0000 C   0  0  0  0  0  0  0  0  0  0  0  0
    0.0000    1.5000    0.0000 C   0  0  0  0  0  0  0  0  0  0  0  0
   -1.2990    3.7500    0.0000 Br  0  0  0  0  0  0  0  0  0  0  0  0
    1.2990    2.2500    0.0000 Br  0  0  0  0  0  0  0  0  0  0  0  0
  3  1  1  0
  3  2  1  0
  4  2  1  0
  5  3  1  0
M  END
>  <NAME>  (2235) 
1,2-DIBROMOPROPANE

>  <SYNONYMS>  (2235) 


>  <SPECTRUM TYPE>  (2235) 
MS1

>  <INSTRUMENT TYPE>  (2235) 
EI-B

>  <INSTRUMENT>  (2235) 
HP 5970

>  <ION MODE>  (2235) 
P

>  <INCHIKEY>  (2235) 
XFNJYAKDBJUJAJ-UHFFFAOYSA-N

>  <FORMULA>  (2235) 
C3H6Br2

>  <EXACT MASS>  (2235) 
199.883624392

>  <MW>  (2235) 
200

>  <ID>  (2235) 
JP008794

>  <CONTRIBUTOR>  (2235) 
University of Tokyo Team, {Faculty of Engineering, University of Tokyo

>  <COMMENT>  (2235) 
SMILES=CC(Br)CBr
InChI=InChI=1S/C3H6Br2/c1-3(5)2-4/h3H,2H2,1H3
computed SMILES=BrCC(Br)C
accession=JP008794
date=2016.01.19 (Created 2008.10.21, modified 2011.05.06)
author=UOEH
license=CC BY-NC-SA
exact mass=199.88363
ionization energy=70 eV
ion type=[M]+*
computed spectral entropy=2.2734043356454032
computed normalized entropy=0.5841493598121885
SPLASH=splash10-0076-9300000000-0ea9c767a7764678a1f1
submitter=submitter = University of Tokyo Team (Faculty of Engineering, University of Tokyo)
MoNA Rating=3.75

>  <NUM PEAKS>  (2235) 
49

>  <MASS SPECTRAL PEAKS>  (2235) 
36 1.35
37 8.55
38 14.78
39 66.26
40 8.57
41 99.99
42 8.16
43 0.22
79 7.9
80 3.77
81 7.86
82 3.44
83 0.28
91 0.73
92 0.59
93 4.62
94 0.7
95 4.11
96 0.1
104 0.33
105 1.66
106 0.77
107 2.41
108 0.42
109 0.78
110 0.02
115 0.03
116 0.09
117 0.2
118 0.1
119 0.62
121 38.34
123 37.72
124 1.27
125 0.02
158 0.25
160 0.46
161 0.03
162 0.24
171 0.03
184 0.02
185 0.1
186 0.04
187 0.2
189 0.1
200 0.25
201 0.04
202 0.43
204 0.18

>  <PREDICTED SPECTRUM>  (2235) 
14 33
15 117
25 37
26 125
27 301
28 1
32 27
37 156
38 218
39 501
40 189
41 927
42 379
43 261
44 48
50 54
55 27
67 11
79 127
80 76
81 230
82 110
83 27
93 83
94 18
95 105
96 31
105 65
106 66
107 116
108 76
109 3
119 27
120 83
121 865
122 177
123 999
124 124
125 51
187 55
189 62
200 60
202 147
204 64

$$$$

     RDKit          2D

  6  6  0  0  0  0  0  0  0  0999 V2000
   -1.3000    0.7500    0.0000 C   0  0  0  0  0  0  0  0  0  0  0  0
    0.0000    1.5000    0.0000 C   0  0  0  0  0  0  0  0  0  0  0  0
   -1.3000   -0.7500    0.0000 C   0  0  0  0  0  0  0  0  0  0  0  0
    1.3000    0.7500    0.0000 C   0  0  0  0  0  0  0  0  0  0  0  0
   -0.0000   -1.5000    0.0000 C   0  0  0  0  0  0  0  0  0  0  0  0
    1.3000   -0.7500    0.0000 C   0  0  0  0  0  0  0  0  0  0  0  0
  2  1  2  0
  3  1  1  0
  4  2  1  0
  5  3  2  0
  6  4  2  0
  6  5  1  0
M  END
>  <NAME>  (2236) 
BENZENE

>  <SYNONYMS>  (2236) 


>  <SPECTRUM TYPE>  (2236) 
MS1

>  <INSTRUMENT TYPE>  (2236) 
EI-B

>  <INSTRUMENT>  (2236) 
HP 5970

>  <ION MODE>  (2236) 
P

>  <INCHIKEY>  (2236) 
UHOVQNZJYSORNB-UHFFFAOYSA-N

>  <FORMULA>  (2236) 
C6H6

>  <EXACT MASS>  (2236) 
78.046950192

>  <MW>  (2236) 
78

>  <ID>  (2236) 
JP008793

>  <CONTRIBUTOR>  (2236) 
University of Tokyo Team, {Faculty of Engineering, University of Tokyo

>  <COMMENT>  (2236) 
SMILES=c(c1)cccc1
InChI=InChI=1S/C6H6/c1-2-4-6-5-3-1/h1-6H
computed SMILES=C=1C=CC=CC1
accession=JP008793
date=2016.01.19 (Created 2008.10.21, modified 2011.05.06)
author=UOEH
license=CC BY-NC-SA
exact mass=78.04695
ionization energy=70 eV
ion type=[M]+*
computed spectral entropy=2.321312793926065
computed normalized entropy=0.7883718461651462
SPLASH=splash10-0fb9-9000000000-2aae37aac9f2a02d5e8b
submitter=submitter = University of Tokyo Team (Faculty of Engineering, University of Tokyo)
MoNA Rating=3.75

>  <NUM PEAKS>  (2236) 
19

>  <MASS SPECTRAL PEAKS>  (2236) 
36 1.82
37 6.5
38 7.38
39 15.17
49 6.91
50 19.13
51 25.18
52 20.47
61 2.61
62 9.85
63 6.45
64 3.76
73 2.58
74 7.34
75 2.37
76 5.9
77 22.89
78 99.99
79 7.4

>  <PREDICTED SPECTRUM>  (2236) 
25 17
26 73
27 34
29 19
31 13
32 2
36 39
37 102
38 156
39 273
40 6
41 22
42 114
43 77
44 7
45 58
46 14
47 12
48 25
49 129
50 420
51 823
52 310
53 200
55 28
57 263
58 40
59 125
61 82
62 132
63 241
64 59
65 93
67 33
73 67
74 184
75 185
76 258
77 999
78 737
79 385
81 109

$$$$

     RDKit          2D

  5  4  0  0  0  0  0  0  0  0999 V2000
    0.0000    1.5000    0.0000 C   0  0  0  0  0  0  0  0  0  0  0  0
   -1.2990    2.2500    0.0000 C   0  0  0  0  0  0  0  0  0  0  0  0
   -0.0000   -0.0000    0.0000 Cl  0  0  0  0  0  0  0  0  0  0  0  0
   -1.2990    3.7500    0.0000 Cl  0  0  0  0  0  0  0  0  0  0  0  0
   -2.5981    1.5000    0.0000 Cl  0  0  0  0  0  0  0  0  0  0  0  0
  2  1  2  0
  3  1  1  0
  4  2  1  0
  5  2  1  0
M  END
>  <NAME>  (2237) 
TRICHLOROETHYLENE

>  <SYNONYMS>  (2237) 


>  <SPECTRUM TYPE>  (2237) 
MS1

>  <INSTRUMENT TYPE>  (2237) 
EI-B

>  <INSTRUMENT>  (2237) 
HP 5970

>  <ION MODE>  (2237) 
P

>  <INCHIKEY>  (2237) 
XSTXAVWGXDQKEL-UHFFFAOYSA-N

>  <FORMULA>  (2237) 
C2HCl3

>  <EXACT MASS>  (2237) 
129.914383072

>  <MW>  (2237) 
130

>  <ID>  (2237) 
JP008791

>  <CONTRIBUTOR>  (2237) 
University of Tokyo Team, {Faculty of Engineering, University of Tokyo

>  <COMMENT>  (2237) 
SMILES=ClC=C(Cl)Cl
InChI=InChI=1S/C2HCl3/c3-1-2(4)5/h1H
computed SMILES=ClC=C(Cl)Cl
accession=JP008791
date=2016.01.19 (Created 2008.10.21, modified 2011.05.06)
author=UOEH
license=CC BY-NC-SA
exact mass=129.91438
ionization energy=70 eV
ion type=[M]+*
computed spectral entropy=3.1203559707494377
computed normalized entropy=0.8924207701243237
SPLASH=splash10-03ea-9200000000-655b220bf877474e22b4
submitter=submitter = University of Tokyo Team (Faculty of Engineering, University of Tokyo)
MoNA Rating=3.75

>  <NUM PEAKS>  (2237) 
33

>  <MASS SPECTRAL PEAKS>  (2237) 
35 26.73
36 11.23
37 18.29
38 18.64
39 52.34
40 10.74
41 60.29
42 7.8
47 16.2
48 9.16
49 18.39
51 5.64
59 13.38
60 51.77
61 18.19
62 80.88
63 92.92
64 23.56
65 30.48
66 4.24
75 4.91
76 34.66
77 9.78
78 12.76
93 12.04
95 88.24
96 12.66
97 64.55
99 11.29
130 99.99
132 88
134 29.98
136 5.61

>  <PREDICTED SPECTRUM>  (2237) 
25 82
26 39
32 10
35 205
36 153
37 83
44 76
47 232
48 96
49 248
50 63
51 10
57 27
58 24
59 357
60 466
61 403
62 257
63 161
68 3
70 70
71 29
72 167
83 117
85 167
86 54
93 59
94 174
95 446
96 237
97 808
98 142
99 436
100 12
101 17
107 77
130 999
131 234
132 805
133 242
134 563
135 159

$$$$

     RDKit          2D

 12 13  0  0  0  0  0  0  0  0999 V2000
   -2.7200   -1.0200    0.0000 C   0  0  0  0  0  0  0  0  0  0  0  0
   -2.7200    0.4800    0.0000 C   0  0  0  0  0  0  0  0  0  0  0  0
    2.4800   -1.0200    0.0000 C   0  0  0  0  0  0  0  0  0  0  0  0
   -1.4200   -1.7700    0.0000 C   0  0  0  0  0  0  0  0  0  0  0  0
    1.1800   -1.7700    0.0000 C   0  0  0  0  0  0  0  0  0  0  0  0
    2.4800    0.4800    0.0000 C   0  0  0  0  0  0  0  0  0  0  0  0
   -1.4200    1.2300    0.0000 C   0  0  0  0  0  0  0  0  0  0  0  0
    1.1800    2.7300    0.0000 C   0  0  0  0  0  0  0  0  0  0  0  0
   -0.1200   -1.0200    0.0000 C   0  0  0  0  0  0  0  0  0  0  0  0
    1.1800    1.2300    0.0000 C   0  0  0  0  0  0  0  0  0  0  0  0
   -0.1200    0.4800    0.0000 C   0  0  0  0  0  0  0  0  0  0  0  0
    2.4790    3.4800    0.0000 O   0  0  0  0  0  0  0  0  0  0  0  0
  2  1  2  0
  4  1  1  0
  5  3  2  0
  6  3  1  0
  7  2  1  0
  9  4  2  0
  9  5  1  0
 10  6  2  0
 10  8  1  0
 11  7  2  0
 11  9  1  0
 11 10  1  0
 12  8  2  0
M  END
>  <NAME>  (2238) 
1-NAPHTHALDEHYDE

>  <SYNONYMS>  (2238) 


>  <SPECTRUM TYPE>  (2238) 
MS1

>  <INSTRUMENT TYPE>  (2238) 
EI-B

>  <INSTRUMENT>  (2238) 
HP 5970

>  <ION MODE>  (2238) 
P

>  <INCHIKEY>  (2238) 
SQAINHDHICKHLX-UHFFFAOYSA-N

>  <FORMULA>  (2238) 
C11H8O

>  <EXACT MASS>  (2238) 
156.057514876

>  <MW>  (2238) 
156

>  <ID>  (2238) 
JP008790

>  <CONTRIBUTOR>  (2238) 
University of Tokyo Team, {Faculty of Engineering, University of Tokyo

>  <COMMENT>  (2238) 
SMILES=O=Cc(c1)c(c2)c(ccc2)cc1
InChI=InChI=1S/C11H8O/c12-8-10-6-3-5-9-4-1-2-7-11(9)10/h1-8H
computed SMILES=O=CC1=CC=CC=2C=CC=CC12
accession=JP008790
date=2016.01.19 (Created 2008.10.21, modified 2011.05.06)
author=UOEH
license=CC BY-NC-SA
exact mass=156.05751
ionization energy=70 eV
ion type=[M]+*
computed spectral entropy=2.7530078551788986
computed normalized entropy=0.8016942671140949
SPLASH=splash10-056r-3900000000-de63e9b7d2191c00b8c9
submitter=submitter = University of Tokyo Team (Faculty of Engineering, University of Tokyo)
MoNA Rating=3.75

>  <NUM PEAKS>  (2238) 
31

>  <MASS SPECTRAL PEAKS>  (2238) 
37 2
38 2.5
39 4.4
50 12.46
51 17.63
52 3.04
61 3.27
62 6.52
63 17.92
64 10.29
74 15.09
75 18.77
76 10.1
77 20.42
78 7.82
85 1.48
86 3.8
87 6.24
97 1.72
98 6.42
99 3.61
100 2.38
101 11.45
102 12.5
126 28
127 93.95
128 94.72
129 10.46
155 57.5
156 99.99
157 12.33

>  <PREDICTED SPECTRUM>  (2238) 
26 41
27 60
28 26
29 130
36 22
37 66
38 118
39 239
40 76
41 76
43 44
44 22
49 77
50 265
51 269
52 99
53 58
55 35
57 110
61 122
62 241
63 382
64 162
65 72
68 13
69 62
70 81
71 38
72 49
73 83
74 287
75 285
76 295
77 221
78 31
81 74
82 67
83 23
84 38
85 84
86 171
87 223
88 139
89 164
90 23
96 6
97 71
98 184
99 206
100 99
101 223
102 147
110 52
111 15
113 46
114 60
115 168
125 106
126 351
127 999
128 543
129 181
139 11
154 23
155 863
156 791
157 302
158 74

$$$$

     RDKit          2D

 11 11  0  0  0  0  0  0  0  0999 V2000
    0.0000    3.0000    0.0000 C   0  0  0  0  0  0  0  0  0  0  0  0
   -2.5989   -1.5002    0.0000 C   0  0  0  0  0  0  0  0  0  0  0  0
    2.5989   -1.5002    0.0000 C   0  0  0  0  0  0  0  0  0  0  0  0
   -1.3000    0.7500    0.0000 C   0  0  0  0  0  0  0  0  0  0  0  0
    1.3000    0.7500    0.0000 C   0  0  0  0  0  0  0  0  0  0  0  0
   -0.0000   -3.0000    0.0000 C   0  0  0  0  0  0  0  0  0  0  0  0
    0.0000    1.5000    0.0000 C   0  0  0  0  0  0  0  0  0  0  0  0
   -1.3000   -0.7500    0.0000 C   0  0  0  0  0  0  0  0  0  0  0  0
    1.3000   -0.7500    0.0000 C   0  0  0  0  0  0  0  0  0  0  0  0
    0.0000   -1.5000    0.0000 C   0  0  0  0  0  0  0  0  0  0  0  0
    1.2990   -3.7500    0.0000 O   0  0  0  0  0  0  0  0  0  0  0  0
  7  1  1  0
  7  4  2  0
  7  5  1  0
  8  2  1  0
  8  4  1  0
  9  3  1  0
  9  5  2  0
 10  6  1  0
 10  8  2  0
 10  9  1  0
 11  6  2  0
M  END
>  <NAME>  (2239) 
MESITYLALDEHYDE

>  <SYNONYMS>  (2239) 
2,4,6-TRIMETHYLBENZALDEHYDE

>  <SPECTRUM TYPE>  (2239) 
MS1

>  <INSTRUMENT TYPE>  (2239) 
EI-B

>  <INSTRUMENT>  (2239) 
HP 5970

>  <ION MODE>  (2239) 
P

>  <INCHIKEY>  (2239) 
HIKRJHFHGKZKRI-UHFFFAOYSA-N

>  <FORMULA>  (2239) 
C10H12O

>  <EXACT MASS>  (2239) 
148.088815004

>  <MW>  (2239) 
148

>  <ID>  (2239) 
JP008789

>  <CONTRIBUTOR>  (2239) 
University of Tokyo Team, {Faculty of Engineering, University of Tokyo

>  <COMMENT>  (2239) 
InChI=InChI=1S/C10H12O/c1-7-4-8(2)10(6-11)9(3)5-7/h4-6H,1-3H3
SMILES=O=Cc(c(C)1)c(C)cc(C)c1
cas=487-68-3
computed SMILES=O=CC=1C(=CC(=CC1C)C)C
accession=JP008789
date=2016.01.19 (Created 2008.10.21, modified 2011.05.06)
author=UOEH
license=CC BY-NC-SA
exact mass=148.08882
ionization energy=70 eV
ion type=[M]+*
computed spectral entropy=2.901452291150023
computed normalized entropy=0.7919758342855373
SPLASH=splash10-0002-5900000000-65fb57ab90261d73ba23
submitter=submitter = University of Tokyo Team (Faculty of Engineering, University of Tokyo)
MoNA Rating=3.75

>  <NUM PEAKS>  (2239) 
39

>  <MASS SPECTRAL PEAKS>  (2239) 
38 3.27
39 18.31
40 3.3
41 12.04
50 5.88
51 15.47
52 4.85
53 5.87
57 2.48
61 1.3
62 2.95
63 9.57
64 2.74
65 10.38
66 2.45
73 2.24
74 2.77
75 2.57
76 1.67
77 19.61
78 7.92
79 7.35
89 3.44
91 29.57
92 2.51
93 2.46
102 2.41
103 8.93
104 4.77
105 19.56
106 2.45
115 8.91
116 2.54
117 9.91
119 71.45
120 10.38
147 99.99
148 72.22
149 6.73

>  <PREDICTED SPECTRUM>  (2239) 
14 20
15 72
16 12
17 5
18 34
26 65
27 196
28 87
29 154
36 0
37 50
38 129
39 364
40 125
41 220
42 72
43 178
44 47
49 19
50 218
51 364
52 193
53 237
54 41
55 45
58 48
61 103
62 171
63 305
64 145
65 330
66 117
67 88
71 2
72 27
73 35
74 147
75 160
76 99
77 476
78 260
79 286
80 26
81 12
82 55
85 12
86 132
87 95
88 37
89 213
90 110
91 577
92 169
93 61
94 9
98 9
99 38
101 155
102 155
103 330
104 226
105 420
106 115
113 47
115 507
116 241
117 308
118 234
119 999
120 272
121 97
127 6
128 134
129 99
130 141
131 149
132 38
133 363
134 108
147 821
148 921
149 322
150 68

$$$$

     RDKit          2D

 10 10  0  0  0  0  0  0  0  0999 V2000
   -3.9008    0.7413    0.0000 C   0  0  0  0  0  0  0  0  0  0  0  0
    0.0072   -1.5063    0.0000 C   0  0  0  0  0  0  0  0  0  0  0  0
    1.3207    0.7186    0.0000 C   0  0  0  0  0  0  0  0  0  0  0  0
   -1.2773   -0.7814    0.0000 C   0  0  0  0  0  0  0  0  0  0  0  0
   -0.0038    1.5127    0.0000 C   0  0  0  0  0  0  0  0  0  0  0  0
    2.6016   -1.5127    0.0000 C   0  0  0  0  0  0  0  0  0  0  0  0
    1.3062   -0.7563    0.0000 C   0  0  0  0  0  0  0  0  0  0  0  0
   -1.3028    0.7627    0.0000 C   0  0  0  0  0  0  0  0  0  0  0  0
    3.9043   -0.7691    0.0000 O   0  0  0  0  0  0  0  0  0  0  0  0
   -2.6080    1.5020    0.0000 O   0  0  0  0  0  0  0  0  0  0  0  0
  4  2  2  0
  5  3  1  0
  7  2  1  0
  7  3  2  0
  7  6  1  0
  8  4  1  0
  8  5  2  0
  9  6  2  0
 10  1  1  0
 10  8  1  0
M  END
>  <NAME>  (2240) 
ANISALDEHYDE

>  <SYNONYMS>  (2240) 
4-METHOXYBENZALDEHYDE

>  <SPECTRUM TYPE>  (2240) 
MS1

>  <INSTRUMENT TYPE>  (2240) 
EI-B

>  <INSTRUMENT>  (2240) 
HP 5970

>  <ION MODE>  (2240) 
P

>  <INCHIKEY>  (2240) 
ZRSNZINYAWTAHE-UHFFFAOYSA-N

>  <FORMULA>  (2240) 
C8H8O2

>  <EXACT MASS>  (2240) 
136.052429496

>  <MW>  (2240) 
136

>  <ID>  (2240) 
JP008788

>  <CONTRIBUTOR>  (2240) 
University of Tokyo Team, {Faculty of Engineering, University of Tokyo

>  <COMMENT>  (2240) 
SMILES=O=Cc(c1)ccc(OC)c1
cas=123-11-5
InChI=InChI=1S/C8H8O2/c1-10-8-4-2-7(6-9)3-5-8/h2-6H,1H3
computed SMILES=O=CC1=CC=C(OC)C=C1
accession=JP008788
date=2016.01.19 (Created 2008.10.21, modified 2011.05.06)
author=UOEH
license=CC BY-NC-SA
exact mass=136.05243
ionization energy=70 eV
ion type=[M]+*
computed spectral entropy=3.379615183597692
computed normalized entropy=0.9042038298585301
SPLASH=splash10-002r-9400000000-bc00e3079ed91b21f4ba
submitter=submitter = University of Tokyo Team (Faculty of Engineering, University of Tokyo)
MoNA Rating=3.75

>  <NUM PEAKS>  (2240) 
42

>  <MASS SPECTRAL PEAKS>  (2240) 
37 8.03
38 21.15
39 54.14
40 3.01
41 3.84
43 2.88
49 4.43
50 35.41
51 42.49
52 6.29
53 9.94
61 6.41
62 12.14
63 36.59
64 26.03
65 48.02
66 6.13
73 4.02
74 12.99
75 8.68
76 47.52
77 90.69
78 40.35
79 36.89
89 4.12
90 25.82
91 26.68
92 40.46
93 14.7
94 13.5
104 28.17
105 21.62
107 14.82
108 3.51
118 37.81
119 30.33
120 8.28
121 18
135 51
136 99.99
137 10.22
149 7.84

>  <PREDICTED SPECTRUM>  (2240) 
14 36
15 130
16 19
18 9
25 9
26 76
27 145
28 87
29 240
30 34
31 72
37 96
38 173
39 271
40 8
41 18
43 77
49 47
50 398
51 525
52 227
53 221
55 11
61 69
62 230
63 403
64 280
65 395
66 170
67 62
74 140
75 147
76 221
77 688
78 262
79 315
80 73
92 260
93 326
94 76
95 58
105 398
106 267
107 449
108 218
109 5
121 260
122 63
135 926
136 999
137 312
138 12

$$$$

     RDKit          2D

  9  9  0  0  0  0  0  0  0  0999 V2000
    3.8981    1.5002    0.0000 C   0  0  0  0  0  0  0  0  0  0  0  0
    2.5992   -0.7500    0.0000 C   0  0  0  0  0  0  0  0  0  0  0  0
    1.2992    1.5000    0.0000 C   0  0  0  0  0  0  0  0  0  0  0  0
    1.2992   -1.5000    0.0000 C   0  0  0  0  0  0  0  0  0  0  0  0
   -0.0008    0.7500    0.0000 C   0  0  0  0  0  0  0  0  0  0  0  0
   -1.2998   -1.5002    0.0000 C   0  0  0  0  0  0  0  0  0  0  0  0
    2.5992    0.7500    0.0000 C   0  0  0  0  0  0  0  0  0  0  0  0
   -0.0008   -0.7500    0.0000 C   0  0  0  0  0  0  0  0  0  0  0  0
   -2.5989   -0.7504    0.0000 O   0  0  0  0  0  0  0  0  0  0  0  0
  4  2  2  0
  5  3  1  0
  7  1  1  0
  7  2  1  0
  7  3  2  0
  8  4  1  0
  8  5  2  0
  8  6  1  0
  9  6  2  0
M  END
>  <NAME>  (2241) 
TOLUALDEHYDE

>  <SYNONYMS>  (2241) 
4-METHYLBENZALDEHYDE

>  <SPECTRUM TYPE>  (2241) 
MS1

>  <INSTRUMENT TYPE>  (2241) 
EI-B

>  <INSTRUMENT>  (2241) 
HP 5970

>  <ION MODE>  (2241) 
P

>  <INCHIKEY>  (2241) 
FXLOVSHXALFLKQ-UHFFFAOYSA-N

>  <FORMULA>  (2241) 
C8H8O

>  <EXACT MASS>  (2241) 
120.057514876

>  <MW>  (2241) 
120

>  <ID>  (2241) 
JP008787

>  <CONTRIBUTOR>  (2241) 
University of Tokyo Team, {Faculty of Engineering, University of Tokyo

>  <COMMENT>  (2241) 
SMILES=O=Cc(c1)ccc(C)c1
cas=104-87-0
InChI=InChI=1S/C8H8O/c1-7-2-4-8(6-9)5-3-7/h2-6H,1H3
computed SMILES=O=CC1=CC=C(C=C1)C
accession=JP008787
date=2016.01.19 (Created 2008.10.21, modified 2011.05.06)
author=UOEH
license=CC BY-NC-SA
exact mass=120.05751
ionization energy=70 eV
ion type=[M]+*
computed spectral entropy=2.3878191383046796
computed normalized entropy=0.7724963905657111
SPLASH=splash10-00r6-9500000000-8499fc6c52a970ddef6f
submitter=submitter = University of Tokyo Team (Faculty of Engineering, University of Tokyo)
MoNA Rating=3.75

>  <NUM PEAKS>  (2241) 
22

>  <MASS SPECTRAL PEAKS>  (2241) 
37 3.07
38 5.84
39 25.67
41 5.37
43 3.47
44 2.98
50 8.56
51 12.98
52 2.77
53 2.89
61 3.27
62 8.56
63 16.8
64 5.25
65 28.25
74 2.41
89 9.72
91 99.99
92 10.02
119 74.19
120 74.79
121 8.3

>  <PREDICTED SPECTRUM>  (2241) 
14 19
15 55
16 4
17 4
18 31
25 12
26 99
27 183
28 130
29 145
36 8
37 133
38 198
39 411
40 111
41 136
43 31
49 48
50 293
51 419
52 225
53 154
54 19
61 143
62 254
63 449
64 190
65 511
66 146
73 33
74 194
75 89
76 64
77 396
78 143
79 74
86 68
87 140
89 438
90 265
91 999
92 309
93 84
105 133
106 21
117 54
118 129
119 846
120 837
121 262
122 8

$$$$

     RDKit          2D

 23 25  0  0  0  0  0  0  0  0999 V2000
    3.9000    0.7500    0.0000 C   0  0  0  0  0  0  0  0  0  0  0  0
    5.1989    1.5002    0.0000 H   0  0  0  0  0  0  0  0  0  0  0  0
   -3.9000    0.7500    0.0000 C   0  0  0  0  0  0  0  0  0  0  0  0
   -5.1989    1.5002    0.0000 H   0  0  0  0  0  0  0  0  0  0  0  0
    3.9000   -0.7500    0.0000 C   0  0  0  0  0  0  0  0  0  0  0  0
    5.1989   -1.5002    0.0000 H   0  0  0  0  0  0  0  0  0  0  0  0
   -3.9000   -0.7500    0.0000 C   0  0  0  0  0  0  0  0  0  0  0  0
   -5.1989   -1.5002    0.0000 H   0  0  0  0  0  0  0  0  0  0  0  0
    2.6000    1.5000    0.0000 C   0  0  0  0  0  0  0  0  0  0  0  0
    2.6000    3.0000    0.0000 H   0  0  0  0  0  0  0  0  0  0  0  0
   -2.6000    1.5000    0.0000 C   0  0  0  0  0  0  0  0  0  0  0  0
   -2.6000    3.0000    0.0000 H   0  0  0  0  0  0  0  0  0  0  0  0
    2.6000   -1.5000    0.0000 C   0  0  0  0  0  0  0  0  0  0  0  0
    2.6000   -3.0000    0.0000 H   0  0  0  0  0  0  0  0  0  0  0  0
   -2.6000   -1.5000    0.0000 C   0  0  0  0  0  0  0  0  0  0  0  0
   -2.6000   -3.0000    0.0000 H   0  0  0  0  0  0  0  0  0  0  0  0
    0.0000    1.5000    0.0000 C   0  0  0  0  0  0  0  0  0  0  0  0
    0.0000    3.0000    0.0000 H   0  0  0  0  0  0  0  0  0  0  0  0
    1.3000    0.7500    0.0000 C   0  0  0  0  0  0  0  0  0  0  0  0
   -1.3000    0.7500    0.0000 C   0  0  0  0  0  0  0  0  0  0  0  0
    1.3000   -0.7500    0.0000 C   0  0  0  0  0  0  0  0  0  0  0  0
   -1.3000   -0.7500    0.0000 C   0  0  0  0  0  0  0  0  0  0  0  0
    0.0000   -1.5000    0.0000 N   0  0  0  0  0  0  0  0  0  0  0  0
  1  2  1  0
  3  4  1  0
  5  6  1  0
  7  8  1  0
  9 10  1  0
 11 12  1  0
 13 14  1  0
 15 16  1  0
 17 18  1  0
  5  1  2  0
  7  3  1  0
  9  1  1  0
 11  3  2  0
 13  5  1  0
 15  7  2  0
 19  9  2  0
 19 17  1  0
 20 11  1  0
 20 17  2  0
 21 13  2  0
 21 19  1  0
 22 15  1  0
 22 20  1  0
 23 21  1  0
 23 22  2  0
M  ISO  8   2   2   4   2   6   2   8   2  10   2  12   2  14   2  16   2
M  ISO  1  18   2
M  END
>  <NAME>  (2242) 
ACRIDINE (1,2,3,4,5,6,7,8,9-D9)

>  <SYNONYMS>  (2242) 


>  <SPECTRUM TYPE>  (2242) 
MS1

>  <INSTRUMENT TYPE>  (2242) 
EI-B

>  <INSTRUMENT>  (2242) 
HP 5970

>  <ION MODE>  (2242) 
P

>  <INCHIKEY>  (2242) 
DZBUGLKDJFMEHC-LOIXRAQWSA-N

>  <FORMULA>  (2242) 
C13H9N

>  <EXACT MASS>  (2242) 
188.129990002

>  <MW>  (2242) 
188

>  <ID>  (2242) 
JP008786

>  <CONTRIBUTOR>  (2242) 
University of Tokyo Team, {Faculty of Engineering, University of Tokyo

>  <COMMENT>  (2242) 
SMILES=[2H]c(c([2H])3)c([2H])c(n1)c(c([2H])3)c([2H])c(c([2H])2)c(c([2H])c([2H])c([2H])2)1
InChI=InChI=1S/C13H9N/c1-3-7-12-10(5-1)9-11-6-2-4-8-13(11)14-12/h1-9H/i1D,2D,3D,4D,5D,6D,7D,8D,9D
computed SMILES=[H]C=1C=2C(N=C3C1C([H])=C([H])C([H])=C3[H])=C([H])C([H])=C([H])C2[H]
accession=JP008786
author=UOEH
date=2016.01.19 (Created 2008.10.21, modified 2011.05.06)
license=CC BY-NC-SA
exact mass=179.0735
ionization energy=70 eV
ion type=[M]+*
computed spectral entropy=2.469982066944733
computed normalized entropy=0.7126861758131676
SPLASH=splash10-000i-2900000000-810da35b7e1a93e931e6
submitter=submitter = University of Tokyo Team (Faculty of Engineering, University of Tokyo)
MoNA Rating=3.75

>  <NUM PEAKS>  (2242) 
32

>  <MASS SPECTRAL PEAKS>  (2242) 
40 1.35
42 3.52
52 4.52
54 3.72
64 1.9
66 6.11
76 2.52
78 4.66
79 2.46
80 4.85
82 1.16
88 0.93
90 1.27
93 9.89
102 1.03
106 1.32
118 1.44
130 1.4
132 3.8
156 2.82
157 1.39
158 9.78
159 2.58
160 8.99
161 1.32
184 4.39
185 3.91
186 19.93
187 17.5
188 99.99
189 14.39
190 1.1

>  <PREDICTED SPECTRUM>  (2242) 
26 30
27 76
28 129
29 28
30 25
37 13
38 75
39 167
40 83
41 167
42 144
43 13
44 42
50 62
51 58
52 190
53 137
54 146
55 91
56 119
57 96
62 43
64 113
65 18
66 48
67 52
68 49
75 15
76 167
77 92
78 151
79 78
84 69
90 113
91 66
92 75
93 31
94 32
95 137
100 26
102 11
104 154
105 99
106 154
108 46
110 12
116 44
117 85
118 131
119 38
122 8
128 58
131 8
132 315
133 182
134 123
135 23
136 1
143 65
144 65
145 47
146 6
149 17
154 1
156 116
157 74
158 171
159 189
160 246
161 19
170 115
173 8
182 175
183 121
184 379
185 250
186 313
187 468
188 999
189 365
190 67

$$$$

     RDKit          2D

 24 26  0  0  0  0  0  0  0  0999 V2000
    3.9000   -0.7500    0.0000 C   0  0  0  0  0  0  0  0  0  0  0  0
    5.1989   -1.5002    0.0000 H   0  0  0  0  0  0  0  0  0  0  0  0
    3.9000    0.7500    0.0000 C   0  0  0  0  0  0  0  0  0  0  0  0
    5.1989    1.5002    0.0000 H   0  0  0  0  0  0  0  0  0  0  0  0
   -3.9000   -0.7500    0.0000 C   0  0  0  0  0  0  0  0  0  0  0  0
   -5.1989   -1.5002    0.0000 H   0  0  0  0  0  0  0  0  0  0  0  0
   -3.9000    0.7500    0.0000 C   0  0  0  0  0  0  0  0  0  0  0  0
   -5.1989    1.5002    0.0000 H   0  0  0  0  0  0  0  0  0  0  0  0
    2.6000   -1.5000    0.0000 C   0  0  0  0  0  0  0  0  0  0  0  0
    2.6000   -3.0000    0.0000 H   0  0  0  0  0  0  0  0  0  0  0  0
    2.6000    1.5000    0.0000 C   0  0  0  0  0  0  0  0  0  0  0  0
    2.6000    3.0000    0.0000 H   0  0  0  0  0  0  0  0  0  0  0  0
   -2.6000   -1.5000    0.0000 C   0  0  0  0  0  0  0  0  0  0  0  0
   -2.6000   -3.0000    0.0000 H   0  0  0  0  0  0  0  0  0  0  0  0
   -2.6000    1.5000    0.0000 C   0  0  0  0  0  0  0  0  0  0  0  0
   -2.6000    3.0000    0.0000 H   0  0  0  0  0  0  0  0  0  0  0  0
   -0.0000   -1.5000    0.0000 C   0  0  0  0  0  0  0  0  0  0  0  0
   -0.0000   -3.0000    0.0000 H   0  0  0  0  0  0  0  0  0  0  0  0
   -0.0000    1.5000    0.0000 C   0  0  0  0  0  0  0  0  0  0  0  0
    0.0000    3.0000    0.0000 H   0  0  0  0  0  0  0  0  0  0  0  0
    1.3000   -0.7500    0.0000 C   0  0  0  0  0  0  0  0  0  0  0  0
    1.3000    0.7500    0.0000 C   0  0  0  0  0  0  0  0  0  0  0  0
   -1.3000   -0.7500    0.0000 C   0  0  0  0  0  0  0  0  0  0  0  0
   -1.3000    0.7500    0.0000 C   0  0  0  0  0  0  0  0  0  0  0  0
  1  2  1  0
  3  4  1  0
  5  6  1  0
  7  8  1  0
  9 10  1  0
 11 12  1  0
 13 14  1  0
 15 16  1  0
 17 18  1  0
 19 20  1  0
  3  1  2  0
  7  5  1  0
  9  1  1  0
 11  3  1  0
 13  5  2  0
 15  7  2  0
 21  9  2  0
 21 17  1  0
 22 11  2  0
 22 19  1  0
 22 21  1  0
 23 13  1  0
 23 17  2  0
 24 15  1  0
 24 19  2  0
 24 23  1  0
M  ISO  8   2   2   4   2   6   2   8   2  10   2  12   2  14   2  16   2
M  ISO  2  18   2  20   2
M  END
>  <NAME>  (2243) 
ANTHRACENE (1,2,3,4,5,6,7,8,9,10-D10)

>  <SYNONYMS>  (2243) 


>  <SPECTRUM TYPE>  (2243) 
MS1

>  <INSTRUMENT TYPE>  (2243) 
EI-B

>  <INSTRUMENT>  (2243) 
HP 5970

>  <ION MODE>  (2243) 
P

>  <INCHIKEY>  (2243) 
MWPLVEDNUUSJAV-LHNTUAQVSA-N

>  <FORMULA>  (2243) 
C14H10

>  <EXACT MASS>  (2243) 
188.14101778

>  <MW>  (2243) 
188

>  <ID>  (2243) 
JP008785

>  <CONTRIBUTOR>  (2243) 
University of Tokyo Team, {Faculty of Engineering, University of Tokyo

>  <COMMENT>  (2243) 
SMILES=[2H]c(c([2H])3)c([2H])c(c([2H])1)c(c([2H])3)c([2H])c(c([2H])2)c(c([2H])c([2H])c([2H])2)1
InChI=InChI=1S/C14H10/c1-2-6-12-10-14-8-4-3-7-13(14)9-11(12)5-1/h1-10H/i1D,2D,3D,4D,5D,6D,7D,8D,9D,10D
computed SMILES=[H]C=1C=2C(C([H])=C3C1C([H])=C([H])C([H])=C3[H])=C([H])C([H])=C([H])C2[H]
accession=JP008785
date=2016.01.19 (Created 2008.10.21, modified 2011.05.06)
author=UOEH
license=CC BY-NC-SA
exact mass=178.07825
ionization energy=70 eV
ion type=[M]+*
computed spectral entropy=2.515145063894686
computed normalized entropy=0.7257174621594437
SPLASH=splash10-000i-3900000000-ed716f06921a89f3fbc0
submitter=submitter = University of Tokyo Team (Faculty of Engineering, University of Tokyo)
MoNA Rating=3.75

>  <NUM PEAKS>  (2243) 
32

>  <MASS SPECTRAL PEAKS>  (2243) 
40 1.08
42 2.36
52 2.71
54 2.28
64 2.23
66 7.14
76 2.78
78 5.26
80 15.41
82 1.14
88 1.36
90 2.1
92 6.91
94 14.56
100 1.51
132 1.6
146 1.21
156 4.31
157 1.44
158 7.4
159 2.18
160 8.78
180 1.02
182 1.51
183 2.17
184 13.75
185 2.81
186 6.49
187 16.45
188 99.99
189 15.04
190 0.94

>  <PREDICTED SPECTRUM>  (2243) 
26 38
27 74
28 172
29 20
32 11
36 8
37 3
38 80
39 222
40 102
41 89
42 87
50 43
51 2
52 166
53 92
54 124
55 205
56 81
57 81
62 11
64 75
76 96
78 118
84 18
90 78
91 17
92 11
93 62
95 147
100 35
102 47
106 57
108 55
110 110
118 181
122 8
132 46
136 208
149 8
154 138
156 174
157 37
158 162
159 98
160 161
170 77
182 471
183 348
184 702
185 366
186 564
187 349
188 999
189 383
190 128

$$$$

     RDKit          2D

 13 14  0  0  0  0  0  0  0  0999 V2000
   -3.5723   -0.6174    0.0000 C   0  0  0  0  0  0  0  0  0  0  0  0
   -2.2728   -1.3683    0.0000 C   0  0  0  0  0  0  0  0  0  0  0  0
   -3.5728    0.8834    0.0000 C   0  0  0  0  0  0  0  0  0  0  0  0
    2.9184    1.6360    0.0000 C   0  0  0  0  0  0  0  0  0  0  0  0
    2.9254    3.1282    0.0000 C   0  0  0  0  0  0  0  0  0  0  0  0
   -0.9738   -0.6183    0.0000 C   0  0  0  0  0  0  0  0  0  0  0  0
   -2.2738    1.6334    0.0000 C   0  0  0  0  0  0  0  0  0  0  0  0
    1.6181    0.8882    0.0000 C   0  0  0  0  0  0  0  0  0  0  0  0
    1.6271    3.8812    0.0000 C   0  0  0  0  0  0  0  0  0  0  0  0
   -0.9742    0.8826    0.0000 C   0  0  0  0  0  0  0  0  0  0  0  0
    0.3248    1.6326    0.0000 C   0  0  0  0  0  0  0  0  0  0  0  0
    0.3268    3.1334    0.0000 C   0  0  0  0  0  0  0  0  0  0  0  0
   -0.9711    3.8854    0.0000 F   0  0  0  0  0  0  0  0  0  0  0  0
  2  1  2  0
  3  1  1  0
  5  4  2  0
  6  2  1  0
  7  3  2  0
  8  4  1  0
  9  5  1  0
 10  6  2  0
 10  7  1  0
 11  8  2  0
 11 10  1  0
 12  9  2  0
 12 11  1  0
 13 12  1  0
M  END
>  <NAME>  (2244) 
2-FLUOROBIPHENYL

>  <SYNONYMS>  (2244) 


>  <SPECTRUM TYPE>  (2244) 
MS1

>  <INSTRUMENT TYPE>  (2244) 
EI-B

>  <INSTRUMENT>  (2244) 
HP 5970

>  <ION MODE>  (2244) 
P

>  <INCHIKEY>  (2244) 
KLECYOQFQXJYBC-UHFFFAOYSA-N

>  <FORMULA>  (2244) 
C12H9F

>  <EXACT MASS>  (2244) 
172.068828508

>  <MW>  (2244) 
172

>  <ID>  (2244) 
JP008784

>  <CONTRIBUTOR>  (2244) 
University of Tokyo Team, {Faculty of Engineering, University of Tokyo

>  <COMMENT>  (2244) 
SMILES=Fc(c2)c(ccc2)c(c1)cccc1
InChI=InChI=1S/C12H9F/c13-12-9-5-4-8-11(12)10-6-2-1-3-7-10/h1-9H
computed SMILES=FC=1C=CC=CC1C=2C=CC=CC2
accession=JP008784
date=2016.01.19 (Created 2008.10.21, modified 2011.05.06)
author=UOEH
license=CC BY-NC-SA
exact mass=172.06883
ionization energy=70 eV
ion type=[M]+*
computed spectral entropy=2.7821306933633725
computed normalized entropy=0.7351985398476643
SPLASH=splash10-00di-2900000000-c5315b909ebc965a4dcb
submitter=submitter = University of Tokyo Team (Faculty of Engineering, University of Tokyo)
MoNA Rating=3.75

>  <NUM PEAKS>  (2244) 
44

>  <MASS SPECTRAL PEAKS>  (2244) 
39 3.59
50 5.48
51 5.62
52 1.34
57 1.95
60 1.16
61 1.11
62 2.18
63 5
70 1.4
72 1.52
73 4.54
74 4.75
75 5.25
77 1
81 1.28
83 1.78
85 9.32
86 5.57
87 1.37
94 2.2
96 1.11
98 1.42
99 2.08
100 1.24
107 1.51
120 3.48
125 12.09
126 1.78
133 4.73
145 1.39
146 6.13
150 3
151 5.66
152 5.19
153 1.77
157 1.53
168 1.53
169 4.2
170 23.47
171 36.8
172 99.99
173 12.48
174 0.7

>  <PREDICTED SPECTRUM>  (2244) 
26 6
27 11
28 9
31 132
37 21
38 47
39 107
43 35
49 18
50 158
51 188
52 18
55 19
56 66
57 189
61 68
62 140
63 176
64 17
68 52
69 96
70 120
73 94
74 165
75 248
76 199
77 116
78 30
81 126
82 81
83 209
84 19
85 146
86 49
87 118
88 43
89 125
92 39
94 107
95 103
96 131
97 78
98 193
99 165
100 82
101 189
102 85
103 24
107 49
110 58
111 39
114 16
115 161
116 0
117 20
118 104
119 30
120 81
121 56
122 176
123 97
124 83
125 156
126 172
127 62
128 46
129 2
131 91
132 119
133 150
134 4
139 27
142 0
143 30
144 98
145 236
146 93
150 20
151 411
152 407
153 343
154 123
157 112
168 4
169 222
170 478
171 869
172 999
173 316
174 49
175 185

$$$$

     RDKit          2D

 12 12  0  0  0  0  0  0  0  0999 V2000
   -1.6700   -0.9600    0.0000 C   0  0  0  0  0  0  0  0  0  0  0  0
   -2.9689   -1.7102    0.0000 H   0  0  0  0  0  0  0  0  0  0  0  0
   -1.6700    0.5400    0.0000 C   0  0  0  0  0  0  0  0  0  0  0  0
   -2.9689    1.2902    0.0000 H   0  0  0  0  0  0  0  0  0  0  0  0
   -0.3700   -1.7100    0.0000 C   0  0  0  0  0  0  0  0  0  0  0  0
   -0.3700   -3.2100    0.0000 H   0  0  0  0  0  0  0  0  0  0  0  0
   -0.3700    1.2900    0.0000 C   0  0  0  0  0  0  0  0  0  0  0  0
   -0.3700    2.7900    0.0000 H   0  0  0  0  0  0  0  0  0  0  0  0
    0.9300   -0.9600    0.0000 C   0  0  0  0  0  0  0  0  0  0  0  0
    2.2289   -1.7102    0.0000 H   0  0  0  0  0  0  0  0  0  0  0  0
    0.9300    0.5400    0.0000 C   0  0  0  0  0  0  0  0  0  0  0  0
    2.2289    1.2902    0.0000 O   0  0  0  0  0  0  0  0  0  0  0  0
  1  2  1  0
  3  4  1  0
  5  6  1  0
  7  8  1  0
  9 10  1  0
  3  1  2  0
  5  1  1  0
  7  3  1  0
  9  5  2  0
 11  7  2  0
 11  9  1  0
 12 11  1  0
M  ISO  5   2   2   4   2   6   2   8   2  10   2
M  END
>  <NAME>  (2245) 
PHENOL (2,3,4,5,6-D5)

>  <SYNONYMS>  (2245) 


>  <SPECTRUM TYPE>  (2245) 
MS1

>  <INSTRUMENT TYPE>  (2245) 
EI-B

>  <INSTRUMENT>  (2245) 
HP 5970

>  <ION MODE>  (2245) 
P

>  <INCHIKEY>  (2245) 
ISWSIDIOOBJBQZ-RALIUCGRSA-N

>  <FORMULA>  (2245) 
C6H6O

>  <EXACT MASS>  (2245) 
99.073248542

>  <MW>  (2245) 
99

>  <ID>  (2245) 
JP008782

>  <CONTRIBUTOR>  (2245) 
University of Tokyo Team, {Faculty of Engineering, University of Tokyo

>  <COMMENT>  (2245) 
SMILES=[2H]c(c([2H])1)c([2H])c([2H])c(O)c([2H])1
InChI=InChI=1S/C6H6O/c7-6-4-2-1-3-5-6/h1-5,7H/i1D,2D,3D,4D,5D
computed SMILES=[H]C=1C(O)=C([H])C([H])=C([H])C1[H]
accession=JP008782
date=2016.01.19 (Created 2008.10.21, modified 2011.05.06)
author=UOEH
license=CC BY-NC-SA
exact mass=94.04186
ionization energy=70 eV
ion type=[M]+*
computed spectral entropy=2.7350825668646173
computed normalized entropy=0.7271834740865072
SPLASH=splash10-006w-9000000000-c8b41f2899ca8cc9d4bc
submitter=submitter = University of Tokyo Team (Faculty of Engineering, University of Tokyo)
MoNA Rating=3.75

>  <NUM PEAKS>  (2245) 
43

>  <MASS SPECTRAL PEAKS>  (2245) 
34 0.56
35 1.15
38 6.26
39 2.03
40 11.78
41 10.02
42 29.15
43 13.57
44 6.38
45 0.84
46 0.37
48 1.15
49 5.75
52 8.55
53 2.04
54 8.96
55 0.67
56 1.25
57 2.08
58 7.87
60 0.6
61 0.32
62 2.09
64 3.32
65 1.06
66 5.82
67 0.92
68 2.79
69 14.13
70 18.79
71 40.24
72 2.68
74 0.41
76 1.89
78 0.56
80 0.54
81 0.65
82 1.44
96 0.45
98 8.91
99 99.99
100 6.19
101 0.44

>  <PREDICTED SPECTRUM>  (2245) 
14 35
15 73
16 16
17 14
18 30
25 20
26 97
27 229
28 260
29 193
30 168
31 35
32 31
33 4
37 65
38 108
39 69
40 180
41 302
42 337
43 277
44 174
45 112
46 65
47 78
48 41
50 164
51 5
52 284
53 216
54 329
55 218
56 138
57 117
58 67
59 8
60 28
61 45
65 119
66 152
67 212
68 94
69 257
70 277
71 238
72 97
73 65
78 119
79 109
80 169
81 209
82 119
83 120
84 80
95 123
96 166
97 270
98 567
99 999
100 140
101 46

$$$$

     RDKit          2D

  7  6  0  0  0  0  0  0  0  0999 V2000
    1.9486    3.3750    0.0000 C   0  0  0  0  0  0  0  0  0  0  0  0
    0.6495    4.1250    0.0000 C   0  0  0  0  0  0  0  0  0  0  0  0
   -0.6495    3.3750    0.0000 C   0  0  0  0  0  0  0  0  0  0  0  0
   -1.9486    4.1250    0.0000 C   0  0  0  0  0  0  0  0  0  0  0  0
   -3.2476    3.3750    0.0000 C   0  0  0  0  0  0  0  0  0  0  0  0
   -4.5466    4.1250    0.0000 C   0  0  0  0  0  0  0  0  0  0  0  0
   -5.8457    3.3750    0.0000 O   0  0  0  0  0  0  0  0  0  0  0  0
  2  1  1  0
  3  2  1  0
  4  3  1  0
  5  4  1  0
  6  5  1  0
  7  6  1  0
M  END
>  <NAME>  (2246) 
1-HEXANOL

>  <SYNONYMS>  (2246) 


>  <SPECTRUM TYPE>  (2246) 
MS1

>  <INSTRUMENT TYPE>  (2246) 
EI-B

>  <INSTRUMENT>  (2246) 
HP 5970

>  <ION MODE>  (2246) 
P

>  <INCHIKEY>  (2246) 
ZSIAUFGUXNUGDI-UHFFFAOYSA-N

>  <FORMULA>  (2246) 
C6H14O

>  <EXACT MASS>  (2246) 
102.104465068

>  <MW>  (2246) 
102

>  <ID>  (2246) 
JP008781

>  <CONTRIBUTOR>  (2246) 
University of Tokyo Team, {Faculty of Engineering, University of Tokyo

>  <COMMENT>  (2246) 
SMILES=CCCCCCO
cas=111-27-3
InChI=InChI=1S/C6H14O/c1-2-3-4-5-6-7/h7H,2-6H2,1H3
computed SMILES=OCCCCCC
accession=JP008781
date=2016.01.19 (Created 2008.10.21, modified 2011.05.06)
author=UOEH
license=CC BY-NC-SA
exact mass=102.10447
ionization energy=70 eV
ion type=[M]+*
computed spectral entropy=2.243025567599824
computed normalized entropy=0.6731356256047706
SPLASH=splash10-052f-9000000000-003fe1ca0e7fdfcbdd97
submitter=submitter = University of Tokyo Team (Faculty of Engineering, University of Tokyo)
MoNA Rating=3.75

>  <NUM PEAKS>  (2246) 
28

>  <MASS SPECTRAL PEAKS>  (2246) 
37 0.39
38 0.75
39 22.22
40 5.45
41 58.94
42 48
43 65.18
44 5.88
45 3.62
50 0.66
51 1.1
52 0.37
53 3.36
54 1.5
55 52.85
56 99.99
57 8.49
58 0.11
59 0.08
65 0.11
67 1.09
68 0.14
69 28.17
70 2.41
71 0.98
73 0.99
83 0.81
84 4.23

>  <PREDICTED SPECTRUM>  (2246) 
14 38
15 71
16 14
19 32
25 10
26 120
27 439
28 217
29 494
30 174
31 392
32 43
37 58
38 129
39 543
40 220
41 955
42 689
43 841
44 348
45 260
46 42
47 49
49 32
50 130
51 182
52 49
53 269
54 333
55 999
56 978
57 615
58 163
59 175
60 42
65 52
66 6
67 204
68 171
69 491
70 296
71 184
72 85
73 194
74 76
81 135
83 364
84 286
85 111

$$$$

     RDKit          2D

 16 18  0  0  0  0  0  0  0  0999 V2000
    3.9000   -0.7500    0.0000 C   0  0  0  0  0  0  0  0  0  0  0  0
    3.9000    0.7500    0.0000 C   0  0  0  0  0  0  0  0  0  0  0  0
   -3.9000   -0.7500    0.0000 C   0  0  0  0  0  0  0  0  0  0  0  0
   -3.9000    0.7500    0.0000 C   0  0  0  0  0  0  0  0  0  0  0  0
    2.6000   -1.5000    0.0000 C   0  0  0  0  0  0  0  0  0  0  0  0
    2.6000    1.5000    0.0000 C   0  0  0  0  0  0  0  0  0  0  0  0
   -2.6000   -1.5000    0.0000 C   0  0  0  0  0  0  0  0  0  0  0  0
   -2.6000    1.5000    0.0000 C   0  0  0  0  0  0  0  0  0  0  0  0
    1.3000   -0.7500    0.0000 C   0  0  0  0  0  0  0  0  0  0  0  0
    1.3000    0.7500    0.0000 C   0  0  0  0  0  0  0  0  0  0  0  0
   -1.3000   -0.7500    0.0000 C   0  0  0  0  0  0  0  0  0  0  0  0
   -1.3000    0.7500    0.0000 C   0  0  0  0  0  0  0  0  0  0  0  0
   -0.0000   -1.5000    0.0000 C   0  0  0  0  0  0  0  0  0  0  0  0
   -0.0000    1.5000    0.0000 C   0  0  0  0  0  0  0  0  0  0  0  0
   -0.0000   -3.0000    0.0000 Br  0  0  0  0  0  0  0  0  0  0  0  0
    0.0000    3.0000    0.0000 Br  0  0  0  0  0  0  0  0  0  0  0  0
  2  1  2  0
  4  3  1  0
  5  1  1  0
  6  2  1  0
  7  3  2  0
  8  4  2  0
  9  5  2  0
 10  6  2  0
 10  9  1  0
 11  7  1  0
 12  8  1  0
 12 11  1  0
 13  9  1  0
 13 11  2  0
 14 10  1  0
 14 12  2  0
 15 13  1  0
 16 14  1  0
M  END
>  <NAME>  (2247) 
9,10-DIBROMOANTHRACENE

>  <SYNONYMS>  (2247) 


>  <SPECTRUM TYPE>  (2247) 
MS1

>  <INSTRUMENT TYPE>  (2247) 
EI-B

>  <INSTRUMENT>  (2247) 
HP 5970

>  <ION MODE>  (2247) 
P

>  <INCHIKEY>  (2247) 
BRUOAURMAFDGLP-UHFFFAOYSA-N

>  <FORMULA>  (2247) 
C14H8Br2

>  <EXACT MASS>  (2247) 
333.899274456

>  <MW>  (2247) 
334

>  <ID>  (2247) 
JP008779

>  <CONTRIBUTOR>  (2247) 
University of Tokyo Team, {Faculty of Engineering, University of Tokyo

>  <COMMENT>  (2247) 
SMILES=c(c3)cc(c(Br)1)c(c3)c(Br)c(c2)c(ccc2)1
cas=523-27-3
InChI=InChI=1S/C14H8Br2/c15-13-9-5-1-2-6-10(9)14(16)12-8-4-3-7-11(12)13/h1-8H
computed SMILES=BrC=1C=2C=CC=CC2C(Br)=C3C=CC=CC13
author=UOEH
accession=JP008779
date=2016.01.19 (Created 2008.10.21, modified 2011.05.06)
license=CC BY-NC-SA
exact mass=333.89928
ionization energy=70 eV
ion type=[M]+*
computed spectral entropy=2.838201048504441
computed normalized entropy=0.8930626100168051
SPLASH=splash10-002r-7908000000-ea2eaf25e408bd2ba03c
submitter=submitter = University of Tokyo Team (Faculty of Engineering, University of Tokyo)
MoNA Rating=3.75

>  <NUM PEAKS>  (2247) 
24

>  <MASS SPECTRAL PEAKS>  (2247) 
43 6.1
44 12.03
62 13.79
63 9.68
74 17.08
75 21.53
86 10.52
87 21.06
88 51.64
89 5.76
98 13.18
111 7.24
149 9.45
150 17.46
168 15.75
174 18.78
175 24.89
176 99.99
177 16.42
334 47.69
336 79.33
337 17.46
338 42.15
339 8.19

>  <PREDICTED SPECTRUM>  (2247) 
43 6
49 44
50 49
51 74
61 114
62 152
63 132
69 27
73 36
74 241
75 195
76 129
77 44
79 7
80 28
81 36
82 26
84 50
85 65
86 229
87 191
88 176
89 67
90 113
91 126
92 21
93 54
94 80
95 44
96 46
97 52
98 259
99 285
100 152
101 114
102 90
103 50
105 27
106 34
108 9
109 82
110 159
111 167
112 73
113 24
114 45
116 37
117 1
119 105
120 35
122 264
123 250
124 144
125 120
126 145
127 67
128 25
129 33
130 94
131 6
132 45
133 78
134 24
135 34
136 62
137 108
138 87
139 53
140 81
146 82
147 157
148 144
149 256
150 256
151 207
152 13
155 14
156 36
158 17
159 29
160 33
161 103
162 10
163 35
172 12
173 99
174 220
175 404
176 704
177 197
178 117
179 41
186 73
194 17
229 72
230 31
254 70
255 388
256 210
257 410
258 114
309 12
334 737
335 164
336 999
337 321
338 678
339 260

$$$$

     RDKit          2D

 14 15  0  0  0  0  0  0  0  0999 V2000
   -1.3000    0.7500    0.0000 C   0  0  0  0  0  0  0  0  0  0  0  0
   -0.0000   -1.5000    0.0000 C   0  0  0  0  0  0  0  0  0  0  0  0
   -2.5989   -3.0002    0.0000 C   0  0  0  0  0  0  0  0  0  0  0  0
   -3.8989   -0.7502    0.0000 C   0  0  0  0  0  0  0  0  0  0  0  0
    0.0000    1.5000    0.0000 C   0  0  0  0  0  0  0  0  0  0  0  0
    1.3000   -0.7500    0.0000 C   0  0  0  0  0  0  0  0  0  0  0  0
   -3.8989   -3.7502    0.0000 C   0  0  0  0  0  0  0  0  0  0  0  0
   -5.1989   -1.5002    0.0000 C   0  0  0  0  0  0  0  0  0  0  0  0
   -1.3000   -0.7500    0.0000 C   0  0  0  0  0  0  0  0  0  0  0  0
   -2.5989   -1.5002    0.0000 C   0  0  0  0  0  0  0  0  0  0  0  0
    1.3000    0.7500    0.0000 C   0  0  0  0  0  0  0  0  0  0  0  0
   -5.1989   -3.0002    0.0000 C   0  0  0  0  0  0  0  0  0  0  0  0
    2.5989    1.5002    0.0000 Br  0  0  0  0  0  0  0  0  0  0  0  0
   -6.4978   -3.7504    0.0000 Br  0  0  0  0  0  0  0  0  0  0  0  0
  5  1  2  0
  6  2  1  0
  7  3  2  0
  8  4  1  0
  9  1  1  0
  9  2  2  0
 10  3  1  0
 10  4  2  0
 10  9  1  0
 11  5  1  0
 11  6  2  0
 12  7  1  0
 12  8  2  0
 13 11  1  0
 14 12  1  0
M  END
>  <NAME>  (2248) 
4,4'-DIBROMOBIPHENYL

>  <SYNONYMS>  (2248) 


>  <SPECTRUM TYPE>  (2248) 
MS1

>  <INSTRUMENT TYPE>  (2248) 
EI-B

>  <INSTRUMENT>  (2248) 
HP 5970

>  <ION MODE>  (2248) 
P

>  <INCHIKEY>  (2248) 
HQJQYILBCQPYBI-UHFFFAOYSA-N

>  <FORMULA>  (2248) 
C12H8Br2

>  <EXACT MASS>  (2248) 
309.899274456

>  <MW>  (2248) 
310

>  <ID>  (2248) 
JP008778

>  <CONTRIBUTOR>  (2248) 
University of Tokyo Team, {Faculty of Engineering, University of Tokyo

>  <COMMENT>  (2248) 
SMILES=Brc(c2)ccc(c2)c(c1)ccc(Br)c1
cas=92-86-4
InChI=InChI=1S/C12H8Br2/c13-11-5-1-9(2-6-11)10-3-7-12(14)8-4-10/h1-8H
computed SMILES=BrC=1C=CC(=CC1)C2=CC=C(Br)C=C2
accession=JP008778
date=2016.01.19 (Created 2008.10.21, modified 2011.05.06)
author=UOEH
license=CC BY-NC-SA
exact mass=309.89928
ionization energy=70 eV
ion type=[M]+*
computed spectral entropy=2.696650828601206
computed normalized entropy=0.8724082147986623
SPLASH=splash10-0ik9-7709000000-7a9c40cb5dbdb65c71e5
submitter=submitter = University of Tokyo Team (Faculty of Engineering, University of Tokyo)
MoNA Rating=3.75

>  <NUM PEAKS>  (2248) 
22

>  <MASS SPECTRAL PEAKS>  (2248) 
44 8.66
50 21.48
51 16.04
62 10.85
63 17.94
74 14.34
75 21.07
76 41.87
98 9.32
102 7.13
115.5 5.98
125 6.61
126 11.38
150 12.78
151 24.61
152 99.99
153 13.75
310 47.49
311 8.21
312 94.71
313 11.09
314 44.96

>  <PREDICTED SPECTRUM>  (2248) 
18 9
37 24
38 55
39 110
43 96
44 11
49 95
50 387
51 362
52 104
55 97
56 9
61 155
62 290
63 370
64 77
65 52
69 73
70 58
73 157
74 420
75 493
76 409
77 208
78 60
79 49
80 6
82 46
83 19
84 10
85 100
86 246
87 296
88 242
89 123
97 7
98 256
99 225
100 225
101 319
102 257
103 86
110 2
111 167
112 25
113 213
114 105
115 140
116 81
122 182
123 125
124 131
125 289
126 235
127 141
128 16
129 11
131 9
148 11
149 165
150 463
151 607
152 995
153 402
154 263
155 71
180 19
205 103
206 41
230 148
231 183
232 182
233 189
234 53
310 701
311 227
312 999
313 384
314 752
315 285

$$$$

     RDKit          2D

 22 23  0  0  0  0  0  0  0  0999 V2000
    2.5989    1.5002    0.0000 C   0  0  0  0  0  0  0  0  0  0  0  0
    1.3000    0.7500    0.0000 C   0  0  0  0  0  0  0  0  0  0  0  0
    3.8989    0.7502    0.0000 C   0  0  0  0  0  0  0  0  0  0  0  0
    2.5989    3.0002    0.0000 C   0  0  0  0  0  0  0  0  0  0  0  0
    0.0000    1.5000    0.0000 C   0  0  0  0  0  0  0  0  0  0  0  0
    1.3000   -0.7500    0.0000 C   0  0  0  0  0  0  0  0  0  0  0  0
    5.1989    1.5002    0.0000 C   0  0  0  0  0  0  0  0  0  0  0  0
    3.8989    3.7502    0.0000 C   0  0  0  0  0  0  0  0  0  0  0  0
   -1.3000    0.7500    0.0000 C   0  0  0  0  0  0  0  0  0  0  0  0
   -0.0000   -1.5000    0.0000 C   0  0  0  0  0  0  0  0  0  0  0  0
    5.1989    3.0002    0.0000 C   0  0  0  0  0  0  0  0  0  0  0  0
   -1.3000   -0.7500    0.0000 C   0  0  0  0  0  0  0  0  0  0  0  0
    3.8989   -0.7498    0.0000 F   0  0  0  0  0  0  0  0  0  0  0  0
    1.3000    3.7504    0.0000 F   0  0  0  0  0  0  0  0  0  0  0  0
    0.0000    3.0000    0.0000 F   0  0  0  0  0  0  0  0  0  0  0  0
    2.5989   -1.5002    0.0000 F   0  0  0  0  0  0  0  0  0  0  0  0
    6.4978    0.7500    0.0000 F   0  0  0  0  0  0  0  0  0  0  0  0
    3.8989    5.2502    0.0000 F   0  0  0  0  0  0  0  0  0  0  0  0
   -2.5989    1.5002    0.0000 F   0  0  0  0  0  0  0  0  0  0  0  0
   -0.0000   -3.0000    0.0000 F   0  0  0  0  0  0  0  0  0  0  0  0
    6.4978    3.7504    0.0000 F   0  0  0  0  0  0  0  0  0  0  0  0
   -2.5989   -1.5002    0.0000 F   0  0  0  0  0  0  0  0  0  0  0  0
  2  1  1  0
  3  1  2  0
  4  1  1  0
  5  2  2  0
  6  2  1  0
  7  3  1  0
  8  4  2  0
  9  5  1  0
 10  6  2  0
 11  7  2  0
 11  8  1  0
 12  9  2  0
 12 10  1  0
 13  3  1  0
 14  4  1  0
 15  5  1  0
 16  6  1  0
 17  7  1  0
 18  8  1  0
 19  9  1  0
 20 10  1  0
 21 11  1  0
 22 12  1  0
M  END
>  <NAME>  (2249) 
DECAFLUOROBIPHENYL

>  <SYNONYMS>  (2249) 


>  <SPECTRUM TYPE>  (2249) 
MS1

>  <INSTRUMENT TYPE>  (2249) 
EI-B

>  <INSTRUMENT>  (2249) 
HP 5970

>  <ION MODE>  (2249) 
P

>  <INCHIKEY>  (2249) 
ONUFSRWQCKNVSL-UHFFFAOYSA-N

>  <FORMULA>  (2249) 
C12F10

>  <EXACT MASS>  (2249) 
333.9840322

>  <MW>  (2249) 
334

>  <ID>  (2249) 
JP008777

>  <CONTRIBUTOR>  (2249) 
University of Tokyo Team, {Faculty of Engineering, University of Tokyo

>  <COMMENT>  (2249) 
SMILES=Fc(c(F)2)c(F)c(F)c(c(F)2)c(c(F)1)c(F)c(F)c(F)c(F)1
cas=434-90-2
InChI=InChI=1S/C12F10/c13-3-1(4(14)8(18)11(21)7(3)17)2-5(15)9(19)12(22)10(20)6(2)16
computed SMILES=FC=1C(F)=C(F)C(=C(F)C1F)C=2C(F)=C(F)C(F)=C(F)C2F
accession=JP008777
date=2016.01.19 (Created 2008.10.21, modified 2011.05.06)
author=UOEH
license=CC BY-NC-SA
exact mass=333.98403
ionization energy=70 eV
ion type=[M]+*
computed spectral entropy=2.9174746135286758
computed normalized entropy=0.7154991593980646
SPLASH=splash10-001i-1469000000-af49bd422b83230152df
submitter=submitter = University of Tokyo Team (Faculty of Engineering, University of Tokyo)
MoNA Rating=3.75

>  <NUM PEAKS>  (2249) 
59

>  <MASS SPECTRAL PEAKS>  (2249) 
44 1.39
55 0.72
69 4.09
74 2.39
79 2.28
86 0.89
93 9.34
98 3.43
103 1.92
110 1.23
117 8.4
122 2.47
124 2.12
127 0.95
129 1.01
132 2.1
134 1.76
141 5.55
142 1.14
146 1.49
148 2.41
153 1.05
158 0.77
160 1.61
165 5.76
166 0.25
167 7.42
172 1.1
177 1.2
179 1.64
184 1.34
189 0.28
191 0.93
196 2.55
203 4.33
204 0.15
210 1.16
215 3.73
222 0.69
227 2.72
234 9.07
235 0.76
241 2.98
242 0.16
246 2.77
253 2.2
258 0.39
265 38.22
266 4.14
272 1.63
284 4.09
296 10.36
297 1.09
303 1.35
315 10.79
316 1.31
334 99.99
335 13.02
336 0.55

>  <PREDICTED SPECTRUM>  (2249) 
27 13
31 239
39 7
46 49
49 6
50 27
63 12
64 3
69 308
74 121
77 72
79 135
81 28
86 91
87 44
88 22
93 389
98 282
99 40
100 84
110 196
111 14
115 72
116 30
117 495
118 106
127 106
129 259
130 74
131 154
141 41
146 149
147 28
148 211
153 72
155 306
158 44
160 73
165 284
166 94
167 399
168 133
169 46
177 50
180 119
182 6
186 61
196 216
197 107
198 87
203 23
214 37
215 334
216 162
217 347
218 61
221 63
226 83
227 292
228 50
234 239
236 33
239 39
245 59
246 243
258 114
259 149
264 89
265 345
266 84
273 30
277 20
284 474
285 259
294 0
295 62
296 145
302 22
308 10
314 86
315 351
316 83
334 999
335 225
336 72

$$$$

     RDKit          2D

  8  8  0  0  0  0  0  0  0  0999 V2000
   -1.3000    0.7500    0.0000 C   0  0  0  0  0  0  0  0  0  0  0  0
    0.0000    1.5000    0.0000 C   0  0  0  0  0  0  0  0  0  0  0  0
   -1.3000   -0.7500    0.0000 C   0  0  0  0  0  0  0  0  0  0  0  0
    1.3000   -0.7500    0.0000 C   0  0  0  0  0  0  0  0  0  0  0  0
    1.3000    0.7500    0.0000 C   0  0  0  0  0  0  0  0  0  0  0  0
   -0.0000   -1.5000    0.0000 C   0  0  0  0  0  0  0  0  0  0  0  0
    2.5989    1.5002    0.0000 Br  0  0  0  0  0  0  0  0  0  0  0  0
   -0.0000   -3.0000    0.0000 Br  0  0  0  0  0  0  0  0  0  0  0  0
  2  1  2  0
  3  1  1  0
  5  2  1  0
  5  4  2  0
  6  3  2  0
  6  4  1  0
  7  5  1  0
  8  6  1  0
M  END
>  <NAME>  (2250) 
1,3-DIBROMOBENZENE

>  <SYNONYMS>  (2250) 


>  <SPECTRUM TYPE>  (2250) 
MS1

>  <INSTRUMENT TYPE>  (2250) 
EI-B

>  <INSTRUMENT>  (2250) 
HP 5970

>  <ION MODE>  (2250) 
P

>  <INCHIKEY>  (2250) 
JSRLURSZEMLAFO-UHFFFAOYSA-N

>  <FORMULA>  (2250) 
C6H4Br2

>  <EXACT MASS>  (2250) 
233.867974328

>  <MW>  (2250) 
234

>  <ID>  (2250) 
JP008776

>  <CONTRIBUTOR>  (2250) 
University of Tokyo Team, {Faculty of Engineering, University of Tokyo

>  <COMMENT>  (2250) 
SMILES=Brc(c1)cc(Br)cc1
cas=108-36-1
InChI=InChI=1S/C6H4Br2/c7-5-2-1-3-6(8)4-5/h1-4H
computed SMILES=BrC1=CC=CC(Br)=C1
accession=JP008776
date=2016.01.19 (Created 2008.10.21, modified 2011.05.06)
author=UOEH
license=CC BY-NC-SA
exact mass=233.86798
ionization energy=70 eV
ion type=[M]+*
computed spectral entropy=2.636240221019327
computed normalized entropy=0.8799986047791314
SPLASH=splash10-0550-9460000000-e1704a5f18fb48e87971
submitter=submitter = University of Tokyo Team (Faculty of Engineering, University of Tokyo)
MoNA Rating=3.75

>  <NUM PEAKS>  (2250) 
20

>  <MASS SPECTRAL PEAKS>  (2250) 
49 11.09
50 74.12
51 6.95
73 14.8
74 52.57
75 56.28
76 44.38
77 12.38
78 9.63
79 8.69
81 12.48
117 7.03
118 7.4
155 57.84
156 7.67
157 61.92
234 62.77
236 99.99
237 7.28
238 50.74

>  <PREDICTED SPECTRUM>  (2250) 
25 22
26 41
27 8
31 24
32 24
36 35
37 117
38 148
39 104
44 18
48 57
49 223
50 595
51 336
52 26
60 5
61 191
62 122
63 302
69 105
73 255
74 553
75 722
76 780
77 383
78 357
79 167
80 44
81 103
84 67
85 63
86 193
89 14
92 57
93 108
98 57
103 20
154 54
155 541
156 259
157 612
158 181
234 730
235 185
236 999
237 317
238 758
239 224

$$$$

     RDKit          2D

  8  8  0  0  0  0  0  0  0  0999 V2000
    2.2733   -0.6175    0.0000 C   0  0  0  0  0  0  0  0  0  0  0  0
    2.2738    0.8833    0.0000 C   0  0  0  0  0  0  0  0  0  0  0  0
    0.9738   -1.3683    0.0000 C   0  0  0  0  0  0  0  0  0  0  0  0
    0.9748    1.6333    0.0000 C   0  0  0  0  0  0  0  0  0  0  0  0
   -0.3252   -0.6183    0.0000 C   0  0  0  0  0  0  0  0  0  0  0  0
   -1.6238    1.6325    0.0000 C   0  0  0  0  0  0  0  0  0  0  0  0
   -0.3248    0.8825    0.0000 C   0  0  0  0  0  0  0  0  0  0  0  0
   -2.9228    0.8825    0.0000 O   0  0  0  0  0  0  0  0  0  0  0  0
  2  1  2  0
  3  1  1  0
  4  2  1  0
  5  3  2  0
  7  4  2  0
  7  5  1  0
  7  6  1  0
  8  6  2  0
M  END
>  <NAME>  (2251) 
BENZALDEHYDE

>  <SYNONYMS>  (2251) 


>  <SPECTRUM TYPE>  (2251) 
MS1

>  <INSTRUMENT TYPE>  (2251) 
EI-B

>  <INSTRUMENT>  (2251) 
HP 5970

>  <ION MODE>  (2251) 
P

>  <INCHIKEY>  (2251) 
HUMNYLRZRPPJDN-UHFFFAOYSA-N

>  <FORMULA>  (2251) 
C7H6O

>  <EXACT MASS>  (2251) 
106.041864812

>  <MW>  (2251) 
106

>  <ID>  (2251) 
JP008775

>  <CONTRIBUTOR>  (2251) 
University of Tokyo Team, {Faculty of Engineering, University of Tokyo

>  <COMMENT>  (2251) 
SMILES=O=Cc(c1)cccc1
cas=100-52-7
InChI=InChI=1S/C7H6O/c8-6-7-4-2-1-3-5-7/h1-6H
computed SMILES=O=CC=1C=CC=CC1
accession=JP008775
date=2016.01.19 (Created 2008.10.21, modified 2011.05.06)
author=UOEH
license=CC BY-NC-SA
exact mass=106.04186
ionization energy=70 eV
ion type=[M]+*
computed spectral entropy=2.244395800026992
computed normalized entropy=0.762249045032807
SPLASH=splash10-0pdi-9500000000-eee2fac3cee7076204ca
submitter=submitter = University of Tokyo Team (Faculty of Engineering, University of Tokyo)
MoNA Rating=3.75

>  <NUM PEAKS>  (2251) 
19

>  <MASS SPECTRAL PEAKS>  (2251) 
37 6.88
38 8.25
39 10.54
49 5.52
50 37.84
51 58.08
52 14.22
53 1.94
61 1.56
62 2.15
63 2.91
73 2.61
74 10.38
75 4.56
77 99.99
78 17.78
105 83.82
106 86.21
107 6.16

>  <PREDICTED SPECTRUM>  (2251) 
14 8
15 21
16 0
25 25
26 116
27 188
28 138
29 250
31 6
37 109
38 193
39 308
40 9
49 206
50 522
51 648
52 178
53 79
61 111
62 191
63 390
64 67
73 10
74 260
75 235
76 426
77 908
78 398
79 127
87 36
104 187
105 999
106 726
107 378
108 48

$$$$

     RDKit          2D

  7  6  0  0  0  0  0  0  0  0999 V2000
    1.6238    3.1875    0.0000 C   0  0  0  0  0  0  0  0  0  0  0  0
   -4.8714    3.9375    0.0000 C   0  0  0  0  0  0  0  0  0  0  0  0
    0.3248    3.9375    0.0000 C   0  0  0  0  0  0  0  0  0  0  0  0
   -0.9743    3.1875    0.0000 C   0  0  0  0  0  0  0  0  0  0  0  0
   -2.2733    3.9375    0.0000 C   0  0  0  0  0  0  0  0  0  0  0  0
   -3.5724    3.1875    0.0000 C   0  0  0  0  0  0  0  0  0  0  0  0
   -3.5724    1.6875    0.0000 O   0  0  0  0  0  0  0  0  0  0  0  0
  3  1  1  0
  4  3  1  0
  5  4  1  0
  6  2  1  0
  6  5  1  0
  7  6  2  0
M  END
>  <NAME>  (2252) 
2-HEXANONE

>  <SYNONYMS>  (2252) 


>  <SPECTRUM TYPE>  (2252) 
MS1

>  <INSTRUMENT TYPE>  (2252) 
EI-B

>  <INSTRUMENT>  (2252) 
HP 5970

>  <ION MODE>  (2252) 
P

>  <INCHIKEY>  (2252) 
QQZOPKMRPOGIEB-UHFFFAOYSA-N

>  <FORMULA>  (2252) 
C6H12O

>  <EXACT MASS>  (2252) 
100.088815004

>  <MW>  (2252) 
100

>  <ID>  (2252) 
JP008774

>  <CONTRIBUTOR>  (2252) 
University of Tokyo Team, {Faculty of Engineering, University of Tokyo

>  <COMMENT>  (2252) 
SMILES=CCCCC(C)=O
cas=591-78-6
InChI=InChI=1S/C6H12O/c1-3-4-5-6(2)7/h3-5H2,1-2H3
computed SMILES=O=C(C)CCCC
accession=JP008774
date=2016.01.19 (Created 2008.10.21, modified 2011.05.06)
author=UOEH
license=CC BY-NC-SA
exact mass=100.08882
ionization energy=70 eV
ion type=[M]+*
computed spectral entropy=1.7019593821514085
computed normalized entropy=0.600716986499425
SPLASH=splash10-0006-9000000000-858b1e62ef5dfd041baf
submitter=submitter = University of Tokyo Team (Faculty of Engineering, University of Tokyo)
MoNA Rating=3.75

>  <NUM PEAKS>  (2252) 
17

>  <MASS SPECTRAL PEAKS>  (2252) 
38 0.78
39 9
40 0.82
41 17.07
43 99.99
44 2.53
45 0.51
50 0.29
53 0.35
55 1.46
57 13.67
58 41.16
59 2.24
71 4.32
72 0.57
85 5.1
100 5.72

>  <PREDICTED SPECTRUM>  (2252) 
14 47
15 131
16 6
26 81
27 314
28 177
29 321
30 67
31 102
37 14
38 86
39 301
40 125
41 477
42 297
43 999
44 251
45 163
51 19
53 126
54 81
55 186
56 72
57 424
58 574
59 216
60 4
67 40
69 148
71 405
72 204
73 52
85 484
86 152
100 373
101 102

$$$$

     RDKit          2D

 12 11  0  0  0  0  0  0  0  0999 V2000
    3.8971    6.0000    0.0000 C   0  0  0  0  0  0  0  0  0  0  0  0
    2.5981    6.7500    0.0000 C   0  0  0  0  0  0  0  0  0  0  0  0
    1.2990    6.0000    0.0000 C   0  0  0  0  0  0  0  0  0  0  0  0
    0.0000    6.7500    0.0000 C   0  0  0  0  0  0  0  0  0  0  0  0
   -1.2990    6.0000    0.0000 C   0  0  0  0  0  0  0  0  0  0  0  0
   -2.5981    6.7500    0.0000 C   0  0  0  0  0  0  0  0  0  0  0  0
   -3.8971    6.0000    0.0000 C   0  0  0  0  0  0  0  0  0  0  0  0
   -5.1962    6.7500    0.0000 C   0  0  0  0  0  0  0  0  0  0  0  0
   -6.4952    6.0000    0.0000 C   0  0  0  0  0  0  0  0  0  0  0  0
   -7.7942    6.7500    0.0000 C   0  0  0  0  0  0  0  0  0  0  0  0
   -9.0933    6.0000    0.0000 C   0  0  0  0  0  0  0  0  0  0  0  0
  -10.3923    6.7500    0.0000 O   0  0  0  0  0  0  0  0  0  0  0  0
  2  1  2  0
  3  2  1  0
  4  3  1  0
  5  4  1  0
  6  5  1  0
  7  6  1  0
  8  7  1  0
  9  8  1  0
 10  9  1  0
 11 10  1  0
 12 11  2  0
M  END
>  <NAME>  (2253) 
10-UNDECENAL

>  <SYNONYMS>  (2253) 
10-UNDECENYL ALDEHYDE

>  <SPECTRUM TYPE>  (2253) 
MS1

>  <INSTRUMENT TYPE>  (2253) 
EI-B

>  <INSTRUMENT>  (2253) 
HP 5970

>  <ION MODE>  (2253) 
P

>  <INCHIKEY>  (2253) 
OFHHDSQXFXLTKC-UHFFFAOYSA-N

>  <FORMULA>  (2253) 
C11H20O

>  <EXACT MASS>  (2253) 
168.15141526

>  <MW>  (2253) 
168

>  <ID>  (2253) 
JP008773

>  <CONTRIBUTOR>  (2253) 
University of Tokyo Team, {Faculty of Engineering, University of Tokyo

>  <COMMENT>  (2253) 
SMILES=C=CCCCCCCCCC=O
cas=112-45-8
InChI=InChI=1S/C11H20O/c1-2-3-4-5-6-7-8-9-10-11-12/h2,11H,1,3-10H2
computed SMILES=O=CCCCCCCCCC=C
accession=JP008773
date=2016.01.19 (Created 2008.10.21, modified 2011.05.06)
author=UOEH
license=CC BY-NC-SA
exact mass=168.15142
ionization energy=70 eV
ion type=[M]+*
computed spectral entropy=3.3630572807560077
computed normalized entropy=0.8354691811144116
SPLASH=splash10-05mo-9000000000-b85716e58a562f12a6f5
submitter=submitter = University of Tokyo Team (Faculty of Engineering, University of Tokyo)
MoNA Rating=3.75

>  <NUM PEAKS>  (2253) 
56

>  <MASS SPECTRAL PEAKS>  (2253) 
36 0.49
39 39.59
41 99.99
42 17.59
43 30.35
44 14.7
45 2.91
50 0.82
51 1.95
52 1.66
53 11.27
54 29.06
55 82.49
56 14.23
57 27.23
58 3.59
59 1.03
65 3
66 4.36
67 46.45
68 25.86
69 24.43
70 15.86
71 6.96
72 1.86
73 0.54
77 1.46
79 16.98
80 11.73
81 22.7
82 25.3
83 19.82
84 10.87
85 2.75
86 2.33
91 1.19
93 11.67
94 7.99
95 10.9
96 6.09
97 12.19
98 14.54
99 1.38
100 0.86
107 5.63
108 4.13
109 3.77
110 0.85
111 6.85
112 3.47
121 10
122 2.52
124 3.24
125 2.19
135 1.66
150 1.01

>  <PREDICTED SPECTRUM>  (2253) 
16 7
17 2
18 8
19 0
26 67
27 275
28 92
29 320
30 60
31 106
32 16
36 1
37 30
38 54
39 417
40 196
41 999
42 487
43 697
44 377
45 214
46 15
49 4
50 85
51 172
52 156
53 384
54 686
55 973
56 490
57 580
58 260
59 133
60 59
61 8
62 31
63 65
64 9
65 224
66 270
67 858
68 830
69 650
70 414
71 391
72 187
73 81
75 13
77 208
78 118
79 425
80 275
81 800
82 707
83 586
84 389
85 228
86 149
87 26
91 197
92 111
93 363
94 304
95 684
96 629
97 475
98 379
99 152
100 62
101 54
105 59
106 85
107 306
108 283
109 381
110 328
111 308
112 217
113 119
114 2
115 26
116 31
117 9
121 274
122 200
123 158
124 347
125 200
126 160
127 40
128 20
135 164
136 47
137 116
138 46
139 82
140 95
141 22
149 44
150 194
151 51
152 9
153 28
167 32
168 78

$$$$

     RDKit          2D

 15 14  0  0  0  0  0  0  0  0999 V2000
    4.5466    7.8750    0.0000 C   0  0  0  0  0  0  0  0  0  0  0  0
    3.2476    8.6250    0.0000 C   0  0  0  0  0  0  0  0  0  0  0  0
    1.9486    7.8750    0.0000 C   0  0  0  0  0  0  0  0  0  0  0  0
    0.6495    8.6250    0.0000 C   0  0  0  0  0  0  0  0  0  0  0  0
   -0.6495    7.8750    0.0000 C   0  0  0  0  0  0  0  0  0  0  0  0
   -1.9486    8.6250    0.0000 C   0  0  0  0  0  0  0  0  0  0  0  0
   -3.2476    7.8750    0.0000 C   0  0  0  0  0  0  0  0  0  0  0  0
   -4.5466    8.6250    0.0000 C   0  0  0  0  0  0  0  0  0  0  0  0
   -5.8457    7.8750    0.0000 C   0  0  0  0  0  0  0  0  0  0  0  0
   -7.1447    8.6250    0.0000 C   0  0  0  0  0  0  0  0  0  0  0  0
   -8.4437    7.8750    0.0000 C   0  0  0  0  0  0  0  0  0  0  0  0
   -9.7428    8.6250    0.0000 C   0  0  0  0  0  0  0  0  0  0  0  0
  -11.0418    7.8750    0.0000 C   0  0  0  0  0  0  0  0  0  0  0  0
  -12.3409    8.6250    0.0000 C   0  0  0  0  0  0  0  0  0  0  0  0
  -13.6399    7.8750    0.0000 O   0  0  0  0  0  0  0  0  0  0  0  0
  2  1  1  0
  3  2  1  0
  4  3  1  0
  5  4  1  0
  6  5  1  0
  7  6  1  0
  8  7  1  0
  9  8  1  0
 10  9  1  0
 11 10  1  0
 12 11  1  0
 13 12  1  0
 14 13  1  0
 15 14  2  0
M  END
>  <NAME>  (2254) 
TETRADECANAL

>  <SYNONYMS>  (2254) 


>  <SPECTRUM TYPE>  (2254) 
MS1

>  <INSTRUMENT TYPE>  (2254) 
EI-B

>  <INSTRUMENT>  (2254) 
HP 5970

>  <ION MODE>  (2254) 
P

>  <INCHIKEY>  (2254) 
UHUFTBALEZWWIH-UHFFFAOYSA-N

>  <FORMULA>  (2254) 
C14H28O

>  <EXACT MASS>  (2254) 
212.21401551600002

>  <MW>  (2254) 
212

>  <ID>  (2254) 
JP008772

>  <CONTRIBUTOR>  (2254) 
University of Tokyo Team, {Faculty of Engineering, University of Tokyo

>  <COMMENT>  (2254) 
SMILES=CCCCCCCCCCCCCC=O
cas=124-25-4
InChI=InChI=1S/C14H28O/c1-2-3-4-5-6-7-8-9-10-11-12-13-14-15/h14H,2-13H2,1H3
computed SMILES=O=CCCCCCCCCCCCCC
accession=JP008772
date=2016.01.19 (Created 2008.10.21, modified 2011.05.06)
author=UOEH
license=CC BY-NC-SA
exact mass=212.21402
ionization energy=70 eV
ion type=[M]+*
computed spectral entropy=3.226737939345011
computed normalized entropy=0.8870547109151421
SPLASH=splash10-052f-9000000000-f8f83eee05782910ff11
submitter=submitter = University of Tokyo Team (Faculty of Engineering, University of Tokyo)
MoNA Rating=3.75

>  <NUM PEAKS>  (2254) 
38

>  <MASS SPECTRAL PEAKS>  (2254) 
39 19
40 6.51
41 99.99
42 19.73
43 79.6
44 28.7
45 9.07
53 7.09
54 11.23
55 59.2
56 23.25
57 75.19
58 6.61
66 7.58
67 31.84
68 28.62
69 32.71
70 18.13
71 24.49
72 5.92
81 26.08
82 46.86
83 22.08
84 10.6
85 9.78
95 19.96
96 29.33
97 16.2
98 4.78
99 3.56
109 8.7
110 8.8
111 7.45
123 4.13
124 6.11
125 3.57
138 5.17
168 3.9

>  <PREDICTED SPECTRUM>  (2254) 
17 3
18 7
25 10
26 80
27 323
28 139
29 481
30 102
31 134
32 24
37 6
38 45
39 342
40 168
41 913
42 481
43 940
44 400
45 265
46 38
50 31
51 63
52 67
53 308
54 415
55 917
56 648
57 999
58 281
59 104
60 44
61 56
62 21
63 21
65 120
66 217
67 636
68 637
69 787
70 618
71 644
72 245
73 65
77 50
78 55
79 146
80 160
81 616
82 754
83 788
84 493
85 449
86 142
87 75
88 31
91 63
93 116
94 117
95 551
96 589
97 625
98 460
99 281
100 162
101 42
102 2
105 24
107 51
108 49
109 353
110 342
111 439
112 314
113 154
114 63
121 14
122 35
123 279
124 272
125 170
126 185
127 74
128 13
136 2
137 183
138 207
139 68
140 106
141 34
142 12
147 26
148 62
150 59
151 61
152 52
153 15
154 10
155 42
165 48
166 188
167 35
168 180
169 67
180 19
183 66
184 44
194 173
195 70
196 5
207 25
212 67

$$$$

     RDKit          2D

 14 13  0  0  0  0  0  0  0  0999 V2000
    4.5466    7.1250    0.0000 C   0  0  0  0  0  0  0  0  0  0  0  0
    3.2476    7.8750    0.0000 C   0  0  0  0  0  0  0  0  0  0  0  0
    1.9486    7.1250    0.0000 C   0  0  0  0  0  0  0  0  0  0  0  0
    0.6495    7.8750    0.0000 C   0  0  0  0  0  0  0  0  0  0  0  0
   -0.6495    7.1250    0.0000 C   0  0  0  0  0  0  0  0  0  0  0  0
   -1.9486    7.8750    0.0000 C   0  0  0  0  0  0  0  0  0  0  0  0
   -3.2476    7.1250    0.0000 C   0  0  0  0  0  0  0  0  0  0  0  0
   -4.5466    7.8750    0.0000 C   0  0  0  0  0  0  0  0  0  0  0  0
   -5.8457    7.1250    0.0000 C   0  0  0  0  0  0  0  0  0  0  0  0
   -7.1447    7.8750    0.0000 C   0  0  0  0  0  0  0  0  0  0  0  0
   -8.4437    7.1250    0.0000 C   0  0  0  0  0  0  0  0  0  0  0  0
   -9.7428    7.8750    0.0000 C   0  0  0  0  0  0  0  0  0  0  0  0
  -11.0418    7.1250    0.0000 C   0  0  0  0  0  0  0  0  0  0  0  0
  -12.3409    7.8750    0.0000 O   0  0  0  0  0  0  0  0  0  0  0  0
  2  1  1  0
  3  2  1  0
  4  3  1  0
  5  4  1  0
  6  5  1  0
  7  6  1  0
  8  7  1  0
  9  8  1  0
 10  9  1  0
 11 10  1  0
 12 11  1  0
 13 12  1  0
 14 13  2  0
M  END
>  <NAME>  (2255) 
TRIDECANAL

>  <SYNONYMS>  (2255) 


>  <SPECTRUM TYPE>  (2255) 
MS1

>  <INSTRUMENT TYPE>  (2255) 
EI-B

>  <INSTRUMENT>  (2255) 
HP 5970

>  <ION MODE>  (2255) 
P

>  <INCHIKEY>  (2255) 
BGEHHAVMRVXCGR-UHFFFAOYSA-N

>  <FORMULA>  (2255) 
C13H26O

>  <EXACT MASS>  (2255) 
198.198365452

>  <MW>  (2255) 
198

>  <ID>  (2255) 
JP008771

>  <CONTRIBUTOR>  (2255) 
University of Tokyo Team, {Faculty of Engineering, University of Tokyo

>  <COMMENT>  (2255) 
SMILES=CCCCCCCCCCCCC=O
cas=10486-19-8
InChI=InChI=1S/C13H26O/c1-2-3-4-5-6-7-8-9-10-11-12-13-14/h13H,2-12H2,1H3
computed SMILES=O=CCCCCCCCCCCCC
accession=JP008771
date=2016.01.19 (Created 2008.10.21, modified 2011.05.06)
author=UOEH
license=CC BY-NC-SA
exact mass=198.19837
ionization energy=70 eV
ion type=[M]+*
computed spectral entropy=3.2291853548105376
computed normalized entropy=0.8814333336582438
SPLASH=splash10-052f-9000000000-588dc92dd3c8395a37bd
submitter=submitter = University of Tokyo Team (Faculty of Engineering, University of Tokyo)
MoNA Rating=3.75

>  <NUM PEAKS>  (2255) 
39

>  <MASS SPECTRAL PEAKS>  (2255) 
39 20.79
41 99.99
42 22.51
43 84.18
44 31.81
45 10.92
53 6.73
54 15.39
55 66.29
56 28
57 82.14
58 5.87
66 7.35
67 32.51
68 33.32
69 36.45
70 27.32
71 30.05
72 6.69
79 3.66
80 2.83
81 31.05
82 48.37
83 24.29
84 9.75
85 10.76
95 20.18
96 26.51
97 12.56
98 5.18
99 3.63
109 8.73
110 9.21
111 6.12
112 2.74
123 6.12
124 7.28
125 3
154 4.17

>  <PREDICTED SPECTRUM>  (2255) 
17 6
18 10
25 12
26 95
27 376
28 169
29 550
30 103
31 159
32 32
36 1
37 10
38 54
39 388
40 190
41 953
42 505
43 953
44 405
45 265
46 32
47 0
50 41
51 77
52 78
53 318
54 429
55 925
56 674
57 999
58 291
59 116
60 20
65 98
66 208
67 615
68 610
69 794
70 638
71 622
72 251
73 140
74 75
75 15
77 63
78 34
79 204
80 163
81 595
82 688
83 767
84 510
85 455
86 164
87 62
88 45
91 59
92 22
93 115
94 131
95 530
96 555
97 602
98 455
99 259
100 116
105 25
107 37
108 19
109 353
110 321
111 413
112 291
113 162
114 37
116 2
122 27
123 259
124 257
125 173
126 206
127 57
128 24
134 60
136 82
137 117
138 149
139 42
140 39
141 35
142 24
151 112
152 234
153 78
154 181
155 125
156 10
169 24
170 2
180 104
181 48
182 46
183 52

$$$$

     RDKit          2D

 13 12  0  0  0  0  0  0  0  0999 V2000
    3.8971    6.7500    0.0000 C   0  0  0  0  0  0  0  0  0  0  0  0
    2.5981    7.5000    0.0000 C   0  0  0  0  0  0  0  0  0  0  0  0
    1.2990    6.7500    0.0000 C   0  0  0  0  0  0  0  0  0  0  0  0
    0.0000    7.5000    0.0000 C   0  0  0  0  0  0  0  0  0  0  0  0
   -1.2990    6.7500    0.0000 C   0  0  0  0  0  0  0  0  0  0  0  0
   -2.5981    7.5000    0.0000 C   0  0  0  0  0  0  0  0  0  0  0  0
   -3.8971    6.7500    0.0000 C   0  0  0  0  0  0  0  0  0  0  0  0
   -5.1962    7.5000    0.0000 C   0  0  0  0  0  0  0  0  0  0  0  0
   -6.4952    6.7500    0.0000 C   0  0  0  0  0  0  0  0  0  0  0  0
   -7.7942    7.5000    0.0000 C   0  0  0  0  0  0  0  0  0  0  0  0
   -9.0933    6.7500    0.0000 C   0  0  0  0  0  0  0  0  0  0  0  0
  -10.3923    7.5000    0.0000 C   0  0  0  0  0  0  0  0  0  0  0  0
  -11.6913    6.7500    0.0000 O   0  0  0  0  0  0  0  0  0  0  0  0
  2  1  1  0
  3  2  1  0
  4  3  1  0
  5  4  1  0
  6  5  1  0
  7  6  1  0
  8  7  1  0
  9  8  1  0
 10  9  1  0
 11 10  1  0
 12 11  1  0
 13 12  2  0
M  END
>  <NAME>  (2256) 
DODECANAL

>  <SYNONYMS>  (2256) 


>  <SPECTRUM TYPE>  (2256) 
MS1

>  <INSTRUMENT TYPE>  (2256) 
EI-B

>  <INSTRUMENT>  (2256) 
HP 5970

>  <ION MODE>  (2256) 
P

>  <INCHIKEY>  (2256) 
HFJRKMMYBMWEAD-UHFFFAOYSA-N

>  <FORMULA>  (2256) 
C12H24O

>  <EXACT MASS>  (2256) 
184.182715388

>  <MW>  (2256) 
184

>  <ID>  (2256) 
JP008770

>  <CONTRIBUTOR>  (2256) 
University of Tokyo Team, {Faculty of Engineering, University of Tokyo

>  <COMMENT>  (2256) 
SMILES=CCCCCCCCCCCC=O
cas=112-54-9
InChI=InChI=1S/C12H24O/c1-2-3-4-5-6-7-8-9-10-11-12-13/h12H,2-11H2,1H3
computed SMILES=O=CCCCCCCCCCCC
accession=JP008770
date=2016.01.19 (Created 2008.10.21, modified 2011.05.06)
author=UOEH
license=CC BY-NC-SA
exact mass=184.18272
ionization energy=70 eV
ion type=[M]+*
computed spectral entropy=3.2137320165664156
computed normalized entropy=0.8968089946668428
SPLASH=splash10-052f-9000000000-d6c6fff4af8756f0fdb0
submitter=submitter = University of Tokyo Team (Faculty of Engineering, University of Tokyo)
MoNA Rating=3.75

>  <NUM PEAKS>  (2256) 
36

>  <MASS SPECTRAL PEAKS>  (2256) 
39 29.53
41 99.99
42 26.25
43 78.93
44 34.89
45 10.4
53 7.48
54 12.56
55 66.69
56 37.55
57 77.67
58 4.34
66 7.32
67 35.75
68 33.76
69 30.85
70 24.25
71 27.28
72 6.25
80 3.57
81 28.42
82 44.35
83 20.69
84 10.32
85 14.07
95 19.45
96 22.83
97 13.35
98 6.54
109 8.26
110 13.43
111 7.48
123 4.06
124 4.22
138 5.56
140 7.19

>  <PREDICTED SPECTRUM>  (2256) 
15 18
16 0
17 13
18 27
19 1
25 14
26 110
27 439
28 205
29 613
30 121
31 165
32 40
36 7
37 25
38 61
39 434
40 209
41 998
42 535
43 975
44 413
45 266
46 19
50 50
51 81
52 87
53 330
54 425
55 936
56 703
57 999
58 309
59 181
60 102
61 53
63 9
65 117
66 197
67 588
68 571
69 800
70 671
71 612
72 274
73 113
74 68
77 70
78 61
79 216
80 179
81 576
82 629
83 751
84 528
85 421
86 147
87 25
91 38
92 6
93 97
94 107
95 514
96 521
97 560
98 417
99 252
100 99
101 17
109 334
110 301
111 399
112 308
113 145
114 45
120 43
122 110
123 186
124 186
125 125
126 103
127 51
128 46
137 148
138 289
139 90
140 252
141 119
142 45
155 64
156 55
166 156
167 13

$$$$

     RDKit          2D

 12 11  0  0  0  0  0  0  0  0999 V2000
    3.8971    6.0000    0.0000 C   0  0  0  0  0  0  0  0  0  0  0  0
    2.5981    6.7500    0.0000 C   0  0  0  0  0  0  0  0  0  0  0  0
    1.2990    6.0000    0.0000 C   0  0  0  0  0  0  0  0  0  0  0  0
    0.0000    6.7500    0.0000 C   0  0  0  0  0  0  0  0  0  0  0  0
   -1.2990    6.0000    0.0000 C   0  0  0  0  0  0  0  0  0  0  0  0
   -2.5981    6.7500    0.0000 C   0  0  0  0  0  0  0  0  0  0  0  0
   -3.8971    6.0000    0.0000 C   0  0  0  0  0  0  0  0  0  0  0  0
   -5.1962    6.7500    0.0000 C   0  0  0  0  0  0  0  0  0  0  0  0
   -6.4952    6.0000    0.0000 C   0  0  0  0  0  0  0  0  0  0  0  0
   -7.7942    6.7500    0.0000 C   0  0  0  0  0  0  0  0  0  0  0  0
   -9.0933    6.0000    0.0000 C   0  0  0  0  0  0  0  0  0  0  0  0
  -10.3923    6.7500    0.0000 O   0  0  0  0  0  0  0  0  0  0  0  0
  2  1  1  0
  3  2  1  0
  4  3  1  0
  5  4  1  0
  6  5  1  0
  7  6  1  0
  8  7  1  0
  9  8  1  0
 10  9  1  0
 11 10  1  0
 12 11  2  0
M  END
>  <NAME>  (2257) 
UNDECANAL

>  <SYNONYMS>  (2257) 


>  <SPECTRUM TYPE>  (2257) 
MS1

>  <INSTRUMENT TYPE>  (2257) 
EI-B

>  <INSTRUMENT>  (2257) 
HP 5970

>  <ION MODE>  (2257) 
P

>  <INCHIKEY>  (2257) 
KMPQYAYAQWNLME-UHFFFAOYSA-N

>  <FORMULA>  (2257) 
C11H22O

>  <EXACT MASS>  (2257) 
170.167065324

>  <MW>  (2257) 
170

>  <ID>  (2257) 
JP008769

>  <CONTRIBUTOR>  (2257) 
University of Tokyo Team, {Faculty of Engineering, University of Tokyo

>  <COMMENT>  (2257) 
SMILES=CCCCCCCCCCC=O
cas=112-45-8
InChI=InChI=1S/C11H22O/c1-2-3-4-5-6-7-8-9-10-11-12/h11H,2-10H2,1H3
computed SMILES=O=CCCCCCCCCCC
accession=JP008769
date=2016.01.19 (Created 2008.10.21, modified 2011.05.06)
author=UOEH
license=CC BY-NC-SA
exact mass=170.16707
ionization energy=70 eV
ion type=[M]+*
computed spectral entropy=3.223611822989603
computed normalized entropy=0.8995660071433679
SPLASH=splash10-052f-9000000000-0e1bd3711b82727e6689
submitter=submitter = University of Tokyo Team (Faculty of Engineering, University of Tokyo)
MoNA Rating=3.75

>  <NUM PEAKS>  (2257) 
36

>  <MASS SPECTRAL PEAKS>  (2257) 
39 31.9
40 7.92
41 99.99
42 24.48
43 94.19
44 38.09
45 16.86
46 3.89
51 3.12
53 10.52
54 15.1
55 56.83
56 34.81
57 70.05
58 4.95
66 6.83
67 30.37
68 38.93
69 27.08
70 22.86
71 32.25
72 7.85
81 23.36
82 45.21
83 16.91
84 13.83
85 13.68
95 17.96
96 21.64
97 16.45
98 7.94
109 7.02
110 6.94
123 4.73
124 5.98
126 9.34

>  <PREDICTED SPECTRUM>  (2257) 
14 6
15 46
16 3
17 18
18 35
19 11
25 16
26 127
27 494
28 239
29 655
30 133
31 189
32 48
36 6
37 19
38 72
39 470
40 218
41 999
42 543
43 955
44 408
45 287
46 63
47 13
50 54
51 111
52 98
53 332
54 401
55 904
56 707
57 959
58 310
59 166
60 83
62 9
63 27
64 8
65 126
66 186
67 544
68 510
69 763
70 691
71 565
72 260
73 87
74 6
77 75
78 48
79 204
80 160
81 552
82 549
83 696
84 469
85 384
86 137
87 61
88 27
93 28
94 75
95 487
96 462
97 490
98 430
99 221
100 90
105 14
106 33
108 100
109 253
110 228
111 321
112 195
113 145
114 66
115 28
123 209
124 285
125 153
126 306
127 109
128 49
137 26
138 41
141 73
142 109
152 182
153 19

$$$$

     RDKit          2D

 11 10  0  0  0  0  0  0  0  0999 V2000
    3.2476    5.6250    0.0000 C   0  0  0  0  0  0  0  0  0  0  0  0
    1.9486    6.3750    0.0000 C   0  0  0  0  0  0  0  0  0  0  0  0
    0.6495    5.6250    0.0000 C   0  0  0  0  0  0  0  0  0  0  0  0
   -0.6495    6.3750    0.0000 C   0  0  0  0  0  0  0  0  0  0  0  0
   -1.9486    5.6250    0.0000 C   0  0  0  0  0  0  0  0  0  0  0  0
   -3.2476    6.3750    0.0000 C   0  0  0  0  0  0  0  0  0  0  0  0
   -4.5466    5.6250    0.0000 C   0  0  0  0  0  0  0  0  0  0  0  0
   -5.8457    6.3750    0.0000 C   0  0  0  0  0  0  0  0  0  0  0  0
   -7.1447    5.6250    0.0000 C   0  0  0  0  0  0  0  0  0  0  0  0
   -8.4437    6.3750    0.0000 C   0  0  0  0  0  0  0  0  0  0  0  0
   -9.7428    5.6250    0.0000 O   0  0  0  0  0  0  0  0  0  0  0  0
  2  1  1  0
  3  2  1  0
  4  3  1  0
  5  4  1  0
  6  5  1  0
  7  6  1  0
  8  7  1  0
  9  8  1  0
 10  9  1  0
 11 10  2  0
M  END
>  <NAME>  (2258) 
DECANAL

>  <SYNONYMS>  (2258) 


>  <SPECTRUM TYPE>  (2258) 
MS1

>  <INSTRUMENT TYPE>  (2258) 
EI-B

>  <INSTRUMENT>  (2258) 
HP 5970

>  <ION MODE>  (2258) 
P

>  <INCHIKEY>  (2258) 
KSMVZQYAVGTKIV-UHFFFAOYSA-N

>  <FORMULA>  (2258) 
C10H20O

>  <EXACT MASS>  (2258) 
156.15141526

>  <MW>  (2258) 
156

>  <ID>  (2258) 
JP008768

>  <CONTRIBUTOR>  (2258) 
University of Tokyo Team, {Faculty of Engineering, University of Tokyo

>  <COMMENT>  (2258) 
SMILES=CCCCCCCCCC=O
cas=112-31-2
InChI=InChI=1S/C10H20O/c1-2-3-4-5-6-7-8-9-10-11/h10H,2-9H2,1H3
computed SMILES=O=CCCCCCCCCC
accession=JP008768
date=2016.01.19 (Created 2008.10.21, modified 2011.05.06)
author=UOEH
license=CC BY-NC-SA
exact mass=156.15142
ionization energy=70 eV
ion type=[M]+*
computed spectral entropy=3.158828305678483
computed normalized entropy=0.8506172086978927
SPLASH=splash10-052f-9000000000-68c403b2d9fe194c1c55
submitter=submitter = University of Tokyo Team (Faculty of Engineering, University of Tokyo)
MoNA Rating=3.75

>  <NUM PEAKS>  (2258) 
41

>  <MASS SPECTRAL PEAKS>  (2258) 
39 34.46
41 99.99
42 29.68
43 80.3
44 43.28
45 13.16
51 1.36
52 1.12
53 7.91
54 13.2
55 56.91
56 33.72
57 71.08
58 5
65 1.57
66 5.74
67 25.91
68 29.6
69 22.19
70 31.85
71 30.08
72 6.15
77 0.9
79 3.1
80 2.07
81 22.93
82 31.59
83 22.75
84 10.16
85 2.83
95 14.88
96 11.84
97 3.87
99 2.44
100 1.22
109 6.35
110 9.06
112 12.37
113 1.86
128 2.52
138 1.23

>  <PREDICTED SPECTRUM>  (2258) 
14 14
15 70
16 9
17 24
18 44
19 15
25 18
26 144
27 556
28 263
29 706
30 193
31 246
32 57
36 1
37 43
38 87
39 515
40 229
41 999
42 560
43 911
44 410
45 256
46 42
50 75
51 123
52 107
53 335
54 387
55 877
56 711
57 919
58 303
59 142
60 17
63 26
65 132
66 164
67 510
68 449
69 719
70 684
71 514
72 259
73 131
74 56
77 74
78 11
79 163
80 135
81 531
82 492
83 648
84 475
85 315
86 129
88 5
91 53
92 42
93 43
94 145
95 434
96 397
97 407
98 334
99 215
100 120
101 41
109 248
110 332
111 275
112 363
113 188
114 34
123 65
124 13
127 72
128 118
129 14
137 8
138 238
139 31
140 11

$$$$

     RDKit          2D

 10  9  0  0  0  0  0  0  0  0999 V2000
   -8.4437    5.6250    0.0000 C   0  0  0  0  0  0  0  0  0  0  0  0
   -7.1447    4.8750    0.0000 C   0  0  0  0  0  0  0  0  0  0  0  0
   -5.8457    5.6250    0.0000 C   0  0  0  0  0  0  0  0  0  0  0  0
   -4.5466    4.8750    0.0000 C   0  0  0  0  0  0  0  0  0  0  0  0
   -3.2476    5.6250    0.0000 C   0  0  0  0  0  0  0  0  0  0  0  0
   -1.9486    4.8750    0.0000 C   0  0  0  0  0  0  0  0  0  0  0  0
   -0.6495    5.6250    0.0000 C   0  0  0  0  0  0  0  0  0  0  0  0
    0.6495    4.8750    0.0000 C   0  0  0  0  0  0  0  0  0  0  0  0
    1.9486    5.6250    0.0000 C   0  0  0  0  0  0  0  0  0  0  0  0
    3.2476    4.8750    0.0000 O   0  0  0  0  0  0  0  0  0  0  0  0
  2  1  1  0
  3  2  1  0
  4  3  1  0
  5  4  1  0
  6  5  1  0
  7  6  1  0
  8  7  1  0
  9  8  1  0
 10  9  2  0
M  END
>  <NAME>  (2259) 
NONANAL

>  <SYNONYMS>  (2259) 


>  <SPECTRUM TYPE>  (2259) 
MS1

>  <INSTRUMENT TYPE>  (2259) 
EI-B

>  <INSTRUMENT>  (2259) 
HP 5970

>  <ION MODE>  (2259) 
P

>  <INCHIKEY>  (2259) 
GYHFUZHODSMOHU-UHFFFAOYSA-N

>  <FORMULA>  (2259) 
C9H18O

>  <EXACT MASS>  (2259) 
142.135765196

>  <MW>  (2259) 
142

>  <ID>  (2259) 
JP008767

>  <CONTRIBUTOR>  (2259) 
University of Tokyo Team, {Faculty of Engineering, University of Tokyo

>  <COMMENT>  (2259) 
SMILES=CCCCCCCCC=O
cas=124-19-6
InChI=InChI=1S/C9H18O/c1-2-3-4-5-6-7-8-9-10/h9H,2-8H2,1H3
computed SMILES=O=CCCCCCCCC
accession=JP008767
date=2016.01.19 (Created 2008.10.21, modified 2011.05.06)
author=UOEH
license=CC BY-NC-SA
exact mass=142.13577
ionization energy=70 eV
ion type=[M]+*
computed spectral entropy=3.047634764679434
computed normalized entropy=0.8504586740073009
SPLASH=splash10-052f-9000000000-858f5f7c138a343dc472
submitter=submitter = University of Tokyo Team (Faculty of Engineering, University of Tokyo)
MoNA Rating=3.75

>  <NUM PEAKS>  (2259) 
36

>  <MASS SPECTRAL PEAKS>  (2259) 
39 36.76
40 8.18
41 99.99
42 27.94
43 67.13
44 49.68
45 14.2
51 2.16
52 1.47
53 7.79
54 12.59
55 49.28
56 50.5
57 81.16
58 5.2
65 1.9
66 3.37
67 18.39
68 25.62
69 24.6
70 30.07
71 11.86
72 5.1
79 2.19
81 18.29
82 22.67
83 6.73
85 2.17
86 1.96
95 14.51
96 13.48
97 1.86
98 19.41
99 3.2
114 4.23
124 2.13

>  <PREDICTED SPECTRUM>  (2259) 
14 21
15 89
16 17
17 31
18 54
19 20
25 19
26 161
27 609
28 297
29 742
30 218
31 239
32 59
34 0
36 23
37 54
38 109
39 563
40 248
41 999
42 582
43 858
44 404
45 227
46 0
50 76
51 134
52 104
53 338
54 366
55 850
56 694
57 878
58 316
59 176
60 84
63 24
65 128
66 147
67 490
68 427
69 668
70 675
71 433
72 256
73 51
74 29
77 96
78 70
79 132
80 187
81 489
82 402
83 576
84 343
85 312
86 137
87 67
94 18
95 402
96 431
97 366
98 452
99 223
100 71
109 96
110 34
111 72
112 41
113 153
114 110
115 16
123 29
124 245
125 46
142 7

$$$$

     RDKit          2D

  9  8  0  0  0  0  0  0  0  0999 V2000
    2.5981    4.5000    0.0000 C   0  0  0  0  0  0  0  0  0  0  0  0
    1.2990    5.2500    0.0000 C   0  0  0  0  0  0  0  0  0  0  0  0
    0.0000    4.5000    0.0000 C   0  0  0  0  0  0  0  0  0  0  0  0
   -1.2990    5.2500    0.0000 C   0  0  0  0  0  0  0  0  0  0  0  0
   -2.5981    4.5000    0.0000 C   0  0  0  0  0  0  0  0  0  0  0  0
   -3.8971    5.2500    0.0000 C   0  0  0  0  0  0  0  0  0  0  0  0
   -5.1962    4.5000    0.0000 C   0  0  0  0  0  0  0  0  0  0  0  0
   -6.4952    5.2500    0.0000 C   0  0  0  0  0  0  0  0  0  0  0  0
   -7.7942    4.5000    0.0000 O   0  0  0  0  0  0  0  0  0  0  0  0
  2  1  1  0
  3  2  1  0
  4  3  1  0
  5  4  1  0
  6  5  1  0
  7  6  1  0
  8  7  1  0
  9  8  2  0
M  END
>  <NAME>  (2260) 
OCTANAL

>  <SYNONYMS>  (2260) 


>  <SPECTRUM TYPE>  (2260) 
MS1

>  <INSTRUMENT TYPE>  (2260) 
EI-B

>  <INSTRUMENT>  (2260) 
HP 5970

>  <ION MODE>  (2260) 
P

>  <INCHIKEY>  (2260) 
NUJGJRNETVAIRJ-UHFFFAOYSA-N

>  <FORMULA>  (2260) 
C8H16O

>  <EXACT MASS>  (2260) 
128.120115132

>  <MW>  (2260) 
128

>  <ID>  (2260) 
JP008766

>  <CONTRIBUTOR>  (2260) 
University of Tokyo Team, {Faculty of Engineering, University of Tokyo

>  <COMMENT>  (2260) 
SMILES=CCCCCCCC=O
cas=124-13-0
InChI=InChI=1S/C8H16O/c1-2-3-4-5-6-7-8-9/h8H,2-7H2,1H3
computed SMILES=O=CCCCCCCC
accession=JP008766
date=2016.01.19 (Created 2008.10.21, modified 2011.05.06)
author=UOEH
license=CC BY-NC-SA
exact mass=128.12012
ionization energy=70 eV
ion type=[M]+*
computed spectral entropy=2.9292606073519973
computed normalized entropy=0.888775969941514
SPLASH=splash10-052f-9000000000-b395bc62397f2d3ead7d
submitter=submitter = University of Tokyo Team (Faculty of Engineering, University of Tokyo)
MoNA Rating=3.75

>  <NUM PEAKS>  (2260) 
27

>  <MASS SPECTRAL PEAKS>  (2260) 
38 5.09
39 45.81
40 9.4
41 99.99
42 39.53
43 79.38
44 62.3
45 17.13
53 8.31
54 8.79
55 52.5
56 52.64
57 57.26
58 6.37
66 5.44
67 17.42
68 20.56
69 29.92
71 11.3
72 10.96
81 20.32
82 22.93
83 5.23
84 34.77
85 8.79
100 7.77
110 5.44

>  <PREDICTED SPECTRUM>  (2260) 
14 27
15 107
16 20
17 28
18 55
19 18
25 21
26 181
27 662
28 339
29 753
30 271
31 234
32 52
36 17
37 62
38 130
39 619
40 272
41 999
42 611
43 810
44 406
45 235
46 42
50 79
51 146
52 105
53 357
54 385
55 838
56 714
57 822
58 304
59 91
60 33
63 40
64 10
65 137
66 177
67 453
68 378
69 638
70 605
71 401
72 260
73 118
77 56
79 46
80 115
81 456
82 451
83 493
84 485
85 307
86 87
95 251
96 212
97 197
98 98
99 198
100 134
101 16
109 54
110 294
111 82
112 14
113 1
128 14

$$$$

     RDKit          2D

  8  7  0  0  0  0  0  0  0  0999 V2000
   -6.4952    4.5000    0.0000 C   0  0  0  0  0  0  0  0  0  0  0  0
   -5.1962    3.7500    0.0000 C   0  0  0  0  0  0  0  0  0  0  0  0
   -3.8971    4.5000    0.0000 C   0  0  0  0  0  0  0  0  0  0  0  0
   -2.5981    3.7500    0.0000 C   0  0  0  0  0  0  0  0  0  0  0  0
   -1.2990    4.5000    0.0000 C   0  0  0  0  0  0  0  0  0  0  0  0
    0.0000    3.7500    0.0000 C   0  0  0  0  0  0  0  0  0  0  0  0
    1.2990    4.5000    0.0000 C   0  0  0  0  0  0  0  0  0  0  0  0
    2.5981    3.7500    0.0000 O   0  0  0  0  0  0  0  0  0  0  0  0
  2  1  1  0
  3  2  1  0
  4  3  1  0
  5  4  1  0
  6  5  1  0
  7  6  1  0
  8  7  2  0
M  END
>  <NAME>  (2261) 
HEPTANAL

>  <SYNONYMS>  (2261) 


>  <SPECTRUM TYPE>  (2261) 
MS1

>  <INSTRUMENT TYPE>  (2261) 
EI-B

>  <INSTRUMENT>  (2261) 
HP 5970

>  <ION MODE>  (2261) 
P

>  <INCHIKEY>  (2261) 
FXHGMKSSBGDXIY-UHFFFAOYSA-N

>  <FORMULA>  (2261) 
C7H14O

>  <EXACT MASS>  (2261) 
114.104465068

>  <MW>  (2261) 
114

>  <ID>  (2261) 
JP008765

>  <CONTRIBUTOR>  (2261) 
University of Tokyo Team, {Faculty of Engineering, University of Tokyo

>  <COMMENT>  (2261) 
SMILES=CCCCCCC=O
cas=111-71-7
InChI=InChI=1S/C7H14O/c1-2-3-4-5-6-7-8/h7H,2-6H2,1H3
computed SMILES=O=CCCCCCC
author=UOEH
accession=JP008765
date=2016.01.19 (Created 2008.10.21, modified 2011.05.06)
license=CC BY-NC-SA
exact mass=114.10447
ionization energy=70 eV
ion type=[M]+*
computed spectral entropy=2.816514394992286
computed normalized entropy=0.7635148911822626
SPLASH=splash10-0006-9000000000-a85809c1e2c6b7471781
submitter=submitter = University of Tokyo Team (Faculty of Engineering, University of Tokyo)
MoNA Rating=3.75

>  <NUM PEAKS>  (2261) 
40

>  <MASS SPECTRAL PEAKS>  (2261) 
37 1.4
38 4.51
39 51.08
40 9.34
41 99.99
42 55.55
43 87.81
44 90.95
45 18.93
46 0.59
50 2.09
51 3.22
52 1.38
53 6.93
54 8.33
55 57.23
56 7.81
57 50.52
58 5.24
63 0.59
65 1.12
66 1.33
67 9.07
68 14.87
70 71.86
71 21.74
72 9.07
73 0.71
76 0.91
77 0.49
79 0.81
81 19.88
82 1.61
83 0.73
85 3.44
86 12.6
87 0.75
95 1.42
96 9.19
114 0.76

>  <PREDICTED SPECTRUM>  (2261) 
14 28
15 108
16 23
17 18
18 44
19 11
25 24
26 194
27 676
28 330
29 737
30 409
31 256
32 37
36 2
37 71
38 149
39 671
40 296
41 999
42 649
43 766
44 385
45 203
46 19
50 106
51 161
52 119
53 319
54 351
55 826
56 721
57 727
58 298
59 138
63 25
65 123
66 127
67 420
68 402
69 612
70 651
71 388
72 194
73 31
80 70
81 369
82 189
83 184
84 221
85 297
86 124
87 38
95 156
96 371
97 192
98 21
99 15
114 5

$$$$

     RDKit          2D

  7  6  0  0  0  0  0  0  0  0999 V2000
    1.9486    3.3750    0.0000 C   0  0  0  0  0  0  0  0  0  0  0  0
    0.6495    4.1250    0.0000 C   0  0  0  0  0  0  0  0  0  0  0  0
   -0.6495    3.3750    0.0000 C   0  0  0  0  0  0  0  0  0  0  0  0
   -1.9486    4.1250    0.0000 C   0  0  0  0  0  0  0  0  0  0  0  0
   -3.2476    3.3750    0.0000 C   0  0  0  0  0  0  0  0  0  0  0  0
   -4.5466    4.1250    0.0000 C   0  0  0  0  0  0  0  0  0  0  0  0
   -5.8457    3.3750    0.0000 O   0  0  0  0  0  0  0  0  0  0  0  0
  2  1  1  0
  3  2  1  0
  4  3  1  0
  4  5  2  0
  6  5  1  0
  7  6  2  0
M  END
>  <NAME>  (2262) 
2-HEXENAL

>  <SYNONYMS>  (2262) 


>  <SPECTRUM TYPE>  (2262) 
MS1

>  <INSTRUMENT TYPE>  (2262) 
EI-B

>  <INSTRUMENT>  (2262) 
HP 5970

>  <ION MODE>  (2262) 
P

>  <INCHIKEY>  (2262) 
MBDOYVRWFFCFHM-SNAWJCMRSA-N

>  <FORMULA>  (2262) 
C6H10O

>  <EXACT MASS>  (2262) 
98.07316494

>  <MW>  (2262) 
98

>  <ID>  (2262) 
JP008764

>  <CONTRIBUTOR>  (2262) 
University of Tokyo Team, {Faculty of Engineering, University of Tokyo

>  <COMMENT>  (2262) 
SMILES=CCCC=CC=O
cas=6728-26-3
InChI=InChI=1S/C6H10O/c1-2-3-4-5-6-7/h4-6H,2-3H2,1H3/b5-4+
computed SMILES=O=CC=CCCC
accession=JP008764
date=2016.01.19 (Created 2008.10.21, modified 2011.05.06)
author=UOEH
license=CC BY-NC-SA
exact mass=98.07316
ionization energy=70 eV
ion type=[M]+*
computed spectral entropy=2.777996981675738
computed normalized entropy=0.8249934433847758
SPLASH=splash10-052f-9000000000-f330c324a8f7835bccc7
submitter=submitter = University of Tokyo Team (Faculty of Engineering, University of Tokyo)
MoNA Rating=3.75

>  <NUM PEAKS>  (2262) 
29

>  <MASS SPECTRAL PEAKS>  (2262) 
37 4.5
38 10.31
39 70.85
40 14.29
41 99.99
42 59.06
43 24.47
44 2.69
50 5.91
51 6.08
53 11.79
54 9.65
55 72.81
56 17.93
57 33.75
62 2.37
63 2.39
65 2.45
67 5.23
68 6.1
69 57.17
70 14.41
79 5.35
80 7.76
81 3.15
83 35.92
84 2.18
97 6.36
98 12.81

>  <PREDICTED SPECTRUM>  (2262) 
14 24
15 92
16 1
18 0
25 22
26 169
27 561
28 241
29 439
30 110
31 111
32 26
36 23
37 116
38 200
39 727
40 322
41 999
42 632
43 532
44 170
45 60
49 27
50 200
51 290
52 210
53 409
54 476
55 928
56 646
57 366
58 66
59 35
60 11
61 36
62 36
63 103
64 7
65 207
66 118
67 447
68 290
69 797
70 632
71 221
77 139
78 17
79 236
80 202
81 235
82 94
83 419
84 117
97 174
98 300
99 27

$$$$

     RDKit          2D

 15 14  0  0  0  0  0  0  0  0999 V2000
   -7.3825    3.7868    0.0000 C   0  0  0  0  0  0  0  0  0  0  0  0
   -3.4853    7.5368    0.0000 C   0  0  0  0  0  0  0  0  0  0  0  0
   -0.8873    1.5368    0.0000 C   0  0  0  0  0  0  0  0  0  0  0  0
    1.1618    2.4877    0.0000 C   0  0  0  0  0  0  0  0  0  0  0  0
    1.7108    4.5368    0.0000 C   0  0  0  0  0  0  0  0  0  0  0  0
   -0.3382    5.0858    0.0000 C   0  0  0  0  0  0  0  0  0  0  0  0
   -6.0834    3.0368    0.0000 C   0  0  0  0  0  0  0  0  0  0  0  0
   -3.4853    6.0368    0.0000 C   0  0  0  0  0  0  0  0  0  0  0  0
   -4.7844    3.7868    0.0000 C   0  0  0  0  0  0  0  0  0  0  0  0
   -3.4853    3.0368    0.0000 C   0  0  0  0  0  0  0  0  0  0  0  0
   -0.8873    3.0368    0.0000 C   0  0  0  0  0  0  0  0  0  0  0  0
   -2.1863    5.2868    0.0000 C   0  0  0  0  0  0  0  0  0  0  0  0
    0.4118    3.7868    0.0000 C   0  0  0  0  0  0  0  0  0  0  0  0
   -2.1863    3.7868    0.0000 N   0  0  0  0  0  0  0  0  0  0  0  0
   -0.8873    6.0368    0.0000 O   0  0  0  0  0  0  0  0  0  0  0  0
  7  1  1  0
  8  2  1  0
  9  7  1  0
  9 10  2  0
 11  3  1  0
 12  8  1  0
 13  4  1  0
 13  5  1  0
 13  6  1  0
 13 11  1  0
 14 10  1  0
 14 11  1  0
 14 12  1  0
 15 12  2  0
M  END
>  <NAME>  (2263) 
N-1-BUTENYL-N-(1,2,2-TRIMETHYLPROPYL)PROPIONAMIDE

>  <SYNONYMS>  (2263) 


>  <SPECTRUM TYPE>  (2263) 
MS1

>  <INSTRUMENT TYPE>  (2263) 
EI-B

>  <INSTRUMENT>  (2263) 
SHIMADZU LKB-9000B

>  <ION MODE>  (2263) 
P

>  <INCHIKEY>  (2263) 
HVLRNHJPLZLMAS-MDZDMXLPSA-N

>  <FORMULA>  (2263) 
C13H25NO

>  <EXACT MASS>  (2263) 
211.19361442

>  <MW>  (2263) 
211

>  <ID>  (2263) 
JP008763

>  <CONTRIBUTOR>  (2263) 
University of Tokyo Team, {Faculty of Engineering, University of Tokyo

>  <COMMENT>  (2263) 
SMILES=CCC=CN(C(=O)CC)C(C)C(C)(C)C
InChI=InChI=1S/C13H25NO/c1-7-9-10-14(12(15)8-2)11(3)13(4,5)6/h9-11H,7-8H2,1-6H3/b10-9+
computed SMILES=O=C(N(C=CCC)C(C)C(C)(C)C)CC
accession=JP008763
date=2016.01.19 (Created 2008.10.21, modified 2011.05.06)
author=TSUNODA T, FACULTY OF PHARMACEUTICAL SCIENCES, TOKUSHIMA BUNRI UNIV.
license=CC BY-NC-SA
exact mass=211.19361
ionization energy=70 eV
ion type=[M]+*
computed spectral entropy=2.914223335548398
computed normalized entropy=0.8842134650558188
SPLASH=splash10-0pbd-9100000000-592765e02bef7bfe5448
submitter=submitter = University of Tokyo Team (Faculty of Engineering, University of Tokyo)
MoNA Rating=3.75

>  <NUM PEAKS>  (2263) 
27

>  <MASS SPECTRAL PEAKS>  (2263) 
27 13.3
29 58.8
39 18
41 65.2
42 24.7
43 47.2
44 8
53 12.5
54 8
55 45.6
56 28.2
57 99.99
68 8.3
69 8.3
70 20.8
71 6.8
82 32.1
85 6.8
96 10.3
98 90.4
99 46
140 20.1
154 94.7
155 14.4
182 6.1
211 7.7
212 10.4

>  <PREDICTED SPECTRUM>  (2263) 
26 25
27 178
28 68
29 302
30 65
31 4
38 1
39 205
40 82
41 505
42 286
43 420
44 28
51 38
52 42
53 167
54 149
55 451
56 329
57 655
58 95
59 40
65 31
66 23
67 75
68 146
69 276
70 296
71 224
72 268
79 31
80 100
81 94
82 195
83 44
84 316
85 70
86 21
94 0
96 112
97 74
98 999
99 372
100 80
108 52
109 82
110 13
122 86
123 1
124 64
138 42
139 23
140 159
141 58
152 22
153 68
154 656
155 227
156 22
182 50
196 74
197 23
211 222
212 88

$$$$

     RDKit          2D

 15 14  0  0  0  0  0  0  0  0999 V2000
    2.2733    5.0625    0.0000 C   0  0  0  0  0  0  0  0  0  0  0  0
   -8.1190    5.0625    0.0000 C   0  0  0  0  0  0  0  0  0  0  0  0
   -0.3248    0.5625    0.0000 C   0  0  0  0  0  0  0  0  0  0  0  0
    0.9743    5.8125    0.0000 C   0  0  0  0  0  0  0  0  0  0  0  0
   -6.8200    5.8125    0.0000 C   0  0  0  0  0  0  0  0  0  0  0  0
   -0.3248    5.0625    0.0000 C   0  0  0  0  0  0  0  0  0  0  0  0
   -5.5209    5.0625    0.0000 C   0  0  0  0  0  0  0  0  0  0  0  0
   -1.6238    5.8125    0.0000 C   0  0  0  0  0  0  0  0  0  0  0  0
   -4.2219    5.8125    0.0000 C   0  0  0  0  0  0  0  0  0  0  0  0
   -1.6238    2.8125    0.0000 C   0  0  0  0  0  0  0  0  0  0  0  0
   -1.6238    1.3125    0.0000 C   0  0  0  0  0  0  0  0  0  0  0  0
   -2.9228    3.5625    0.0000 C   0  0  0  0  0  0  0  0  0  0  0  0
   -2.9228    5.0625    0.0000 N   0  0  0  0  0  0  0  0  0  0  0  0
   -2.9228    0.5625    0.0000 O   0  0  0  0  0  0  0  0  0  0  0  0
   -4.2219    2.8125    0.0000 O   0  0  0  0  0  0  0  0  0  0  0  0
  4  1  1  0
  5  2  1  0
  4  6  2  0
  7  5  1  0
  8  6  1  0
  9  7  1  0
 11  3  1  0
 11 10  1  0
 12 10  1  0
 13  8  1  0
 13  9  1  0
 13 12  1  0
 14 11  2  0
 15 12  2  0
M  END
>  <NAME>  (2264) 
N-2-BUTENYL-N-BUTYL-3-OXOBUTANAMIDE

>  <SYNONYMS>  (2264) 


>  <SPECTRUM TYPE>  (2264) 
MS1

>  <INSTRUMENT TYPE>  (2264) 
EI-B

>  <INSTRUMENT>  (2264) 
SHIMADZU LKB-9000B

>  <ION MODE>  (2264) 
P

>  <INCHIKEY>  (2264) 
ONPFXSVFNBDDME-GQCTYLIASA-N

>  <FORMULA>  (2264) 
C12H21NO2

>  <EXACT MASS>  (2264) 
211.157228912

>  <MW>  (2264) 
211

>  <ID>  (2264) 
JP008762

>  <CONTRIBUTOR>  (2264) 
University of Tokyo Team, {Faculty of Engineering, University of Tokyo

>  <COMMENT>  (2264) 
SMILES=CCCCN(CC=CC)C(=O)CC(C)=O
InChI=InChI=1S/C12H21NO2/c1-4-6-8-13(9-7-5-2)12(15)10-11(3)14/h4,6H,5,7-10H2,1-3H3/b6-4+
computed SMILES=O=C(N(CC=CC)CCCC)CC(=O)C
accession=JP008762
date=2016.01.19 (Created 2008.10.21, modified 2011.05.06)
author=TSUNODA T, FACULTY OF PHARMACEUTICAL SCIENCES, TOKUSHIMA BUNRI UNIV.
license=CC BY-NC-SA
exact mass=211.15723
ionization energy=70 eV
ion type=[M]+*
computed spectral entropy=2.8542212854697593
computed normalized entropy=0.8760395071666658
SPLASH=splash10-001l-9100000000-212771459baf10826021
submitter=submitter = University of Tokyo Team (Faculty of Engineering, University of Tokyo)
MoNA Rating=3.75

>  <NUM PEAKS>  (2264) 
26

>  <MASS SPECTRAL PEAKS>  (2264) 
27 13.3
29 20.3
30 47.2
39 13.5
41 20.1
42 15.8
43 41.8
44 7.1
53 6.3
54 5.1
55 62.6
56 10.9
57 10.4
68 7.1
69 13.9
70 18.5
72 9.2
82 6.1
84 99.99
85 12.6
112 8.7
126 36.8
127 12.3
128 6.3
168 7.7
212 5.1

>  <PREDICTED SPECTRUM>  (2264) 
14 33
15 95
16 11
17 7
18 34
25 18
26 119
27 590
28 301
29 682
30 373
31 119
37 53
38 132
39 652
40 226
41 998
42 547
43 999
44 340
45 77
46 0
50 93
51 235
52 112
53 317
54 275
55 911
56 450
57 620
58 195
63 4
65 60
66 109
67 163
68 198
69 475
70 467
71 262
72 211
74 38
77 84
80 56
82 157
83 262
84 975
85 356
86 226
88 55
95 14
98 62
100 87
110 85
112 643
113 59
114 86
126 801
127 122
128 261
139 0
140 49
154 212
156 134
168 529
169 73
196 0
211 210
212 100

$$$$

     RDKit          2D

 13 12  0  0  0  0  0  0  0  0999 V2000
    2.5981    4.5000    0.0000 C   0  0  0  0  0  0  0  0  0  0  0  0
   -7.7942    4.5000    0.0000 C   0  0  0  0  0  0  0  0  0  0  0  0
   -1.2990    2.2500    0.0000 C   0  0  0  0  0  0  0  0  0  0  0  0
    1.2990    5.2500    0.0000 C   0  0  0  0  0  0  0  0  0  0  0  0
   -6.4952    5.2500    0.0000 C   0  0  0  0  0  0  0  0  0  0  0  0
    0.0000    4.5000    0.0000 C   0  0  0  0  0  0  0  0  0  0  0  0
   -5.1962    4.5000    0.0000 C   0  0  0  0  0  0  0  0  0  0  0  0
   -1.2990    5.2500    0.0000 C   0  0  0  0  0  0  0  0  0  0  0  0
   -3.8971    5.2500    0.0000 C   0  0  0  0  0  0  0  0  0  0  0  0
   -2.5981    3.0000    0.0000 C   0  0  0  0  0  0  0  0  0  0  0  0
   -2.5981    4.5000    0.0000 N   0  0  0  0  0  0  0  0  0  0  0  0
   -3.8971    2.2500    0.0000 O   0  0  0  0  0  0  0  0  0  0  0  0
    0.0000    3.0000    0.0000 H   0  0  0  0  0  0  0  0  0  0  0  0
  4  1  1  0
  5  2  1  0
  4  6  2  0
  7  5  1  0
  8  6  1  0
  9  7  1  0
 10  3  1  0
 11  8  1  0
 11  9  1  0
 11 10  1  0
 12 10  2  0
 13  6  1  0
M  ISO  1  13   2
M  END
>  <NAME>  (2265) 
N-2-BUTENYL-N-BUTYLACETOAMIDE (2-D)

>  <SYNONYMS>  (2265) 


>  <SPECTRUM TYPE>  (2265) 
MS1

>  <INSTRUMENT TYPE>  (2265) 
EI-B

>  <INSTRUMENT>  (2265) 
SHIMADZU LKB-9000B

>  <ION MODE>  (2265) 
P

>  <INCHIKEY>  (2265) 
WJCKRGOUNCVHKN-DRXCQHCBSA-N

>  <FORMULA>  (2265) 
C10H19NO

>  <EXACT MASS>  (2265) 
170.152940974

>  <MW>  (2265) 
170

>  <ID>  (2265) 
JP008761

>  <CONTRIBUTOR>  (2265) 
University of Tokyo Team, {Faculty of Engineering, University of Tokyo

>  <COMMENT>  (2265) 
SMILES=CCCCN(CC([2H])=CC)C(C)=O
InChI=InChI=1S/C10H19NO/c1-4-6-8-11(10(3)12)9-7-5-2/h4,6H,5,7-9H2,1-3H3/b6-4+/i6D
computed SMILES=[H]C(=CC)CN(C(=O)C)CCCC
accession=JP008761
date=2016.01.19 (Created 2008.10.21, modified 2011.05.06)
author=TSUNODA T, FACULTY OF PHARMACEUTICAL SCIENCES, TOKUSHIMA BUNRI UNIV.
license=CC BY-NC-SA
exact mass=169.14666
ionization energy=70 eV
ion type=[M]+*
computed spectral entropy=2.5839716986816526
computed normalized entropy=0.8487280851225545
SPLASH=splash10-00di-4900000000-2ecf55e4adc3714ebc67
submitter=submitter = University of Tokyo Team (Faculty of Engineering, University of Tokyo)
MoNA Rating=3.75

>  <NUM PEAKS>  (2265) 
21

>  <MASS SPECTRAL PEAKS>  (2265) 
27 7.5
29 7.5
30 6.9
31 6.5
39 6.7
41 6.5
43 19.7
44 11.5
55 10
70 14.4
84 16.6
112 5.9
126 14.3
127 9.6
128 5.4
140 12.4
141 8.2
169 32
170 99.99
171 55.2
172 11.1

>  <PREDICTED SPECTRUM>  (2265) 
14 2
15 92
18 32
26 43
27 253
28 154
29 294
30 291
31 27
38 45
39 278
40 102
41 490
42 378
43 538
44 564
45 68
46 10
50 15
51 78
52 67
53 201
54 188
55 341
56 307
57 353
58 162
59 85
60 115
65 14
67 143
68 145
69 261
70 207
71 291
72 376
73 262
74 96
79 54
80 43
81 126
82 190
83 234
84 158
85 399
86 999
87 254
88 29
96 150
97 81
98 51
99 80
100 25
101 115
111 17
113 224
114 5
115 64
125 45
126 9
127 232
128 111
129 0
141 85
155 268
156 44
170 243
171 79

$$$$

     RDKit          2D

 17 17  0  0  1  0  0  0  0  0999 V2000
   -7.4692    4.2571    0.0000 C   0  0  0  0  0  0  0  0  0  0  0  0
   -4.8712    5.7571    0.0000 C   0  0  0  0  0  0  0  0  0  0  0  0
   -3.5721    2.0071    0.0000 C   0  0  0  0  0  0  0  0  0  0  0  0
    0.3250    5.7571    0.0000 C   0  0  0  0  0  0  0  0  0  0  0  0
   -6.1702    3.5071    0.0000 C   0  0  0  0  0  0  0  0  0  0  0  0
    4.2221    2.0071    0.0000 C   0  0  0  0  0  0  0  0  0  0  0  0
    4.2226    3.5079    0.0000 C   0  0  0  0  0  0  0  0  0  0  0  0
    2.9226    1.2563    0.0000 C   0  0  0  0  0  0  0  0  0  0  0  0
    2.9236    4.2579    0.0000 C   0  0  0  0  0  0  0  0  0  0  0  0
    1.6236    2.0063    0.0000 C   0  0  0  0  0  0  0  0  0  0  0  0
   -4.8712    4.2571    0.0000 C   0  0  0  0  0  0  0  0  0  0  0  0
   -3.5721    3.5071    0.0000 C   0  0  0  0  0  0  0  0  0  0  0  0
    0.3250    4.2571    0.0000 C   0  0  0  0  0  0  0  0  0  0  0  0
    1.6240    3.5071    0.0000 C   0  0  0  0  0  0  0  0  0  0  0  0
   -2.2731    4.2571    0.0000 C   0  0  0  0  0  0  0  0  0  0  0  0
   -0.9740    3.5071    0.0000 N   0  0  0  0  0  0  0  0  0  0  0  0
   -2.2731    5.7571    0.0000 O   0  0  0  0  0  0  0  0  0  0  0  0
  5  1  2  0
  7  6  2  0
  8  6  1  0
  9  7  1  0
 10  8  2  0
 11  2  1  6
 11  5  1  0
 12  3  1  1
 12 11  1  0
 13  4  1  6
 14  9  2  0
 14 10  1  0
 14 13  1  0
 15 12  1  0
 16 13  1  0
 16 15  2  3
 17 15  1  0
M  END
>  <NAME>  (2266) 
N-1'(S)-PHENYLETHYL-2(R),3(S)-DIMETHYL-4-PENTENAMIDE

>  <SYNONYMS>  (2266) 


>  <SPECTRUM TYPE>  (2266) 
MS1

>  <INSTRUMENT TYPE>  (2266) 
EI-B

>  <INSTRUMENT>  (2266) 
SHIMADZU LKB-9000B

>  <ION MODE>  (2266) 
P

>  <INCHIKEY>  (2266) 
WBTKZEUGXDCOIT-RWMBFGLXSA-N

>  <FORMULA>  (2266) 
C15H21NO

>  <EXACT MASS>  (2266) 
231.162314292

>  <MW>  (2266) 
231

>  <ID>  (2266) 
JP008760

>  <CONTRIBUTOR>  (2266) 
University of Tokyo Team, {Faculty of Engineering, University of Tokyo

>  <COMMENT>  (2266) 
SMILES=C=CC([H])(C)C([H])(C)C(=O)NC([H])(C)c(c1)cccc1
InChI=InChI=1S/C15H21NO/c1-5-11(2)12(3)15(17)16-13(4)14-9-7-6-8-10-14/h5-13H,1H2,2-4H3,(H,16,17)/t11-,12-,13+/m0/s1
computed SMILES=OC(=NC(C=1C=CC=CC1)C)C(C)C(C=C)C
accession=JP008760
date=2016.01.19 (Created 2008.10.21, modified 2011.05.06)
author=TSUNODA T, FACULTY OF PHARMACEUTICAL SCIENCES, TOKUSHIMA BUNRI UNIV.
license=CC BY-NC-SA
exact mass=231.16231
ionization energy=70 eV
ion type=[M]+*
computed spectral entropy=2.7631543164931043
computed normalized entropy=0.8812500123443191
SPLASH=splash10-0a4i-5910000000-64afed50b7de1076fc75
submitter=submitter = University of Tokyo Team (Faculty of Engineering, University of Tokyo)
MoNA Rating=3.75

>  <NUM PEAKS>  (2266) 
23

>  <MASS SPECTRAL PEAKS>  (2266) 
27 5.8
29 6.4
39 5.6
41 13.9
42 7.3
55 35.6
73 8.9
77 17.9
79 13.7
83 12.7
84 5.1
91 15.4
103 8.2
104 15.8
105 99.99
106 26.3
112 9.4
120 18
133 5.6
176 30.8
177 9.3
216 14.1
231 13.7

>  <PREDICTED SPECTRUM>  (2266) 
14 41
15 67
16 25
17 46
18 75
25 9
26 81
27 295
28 244
29 211
30 121
31 72
32 10
33 3
36 5
37 41
38 113
39 408
40 153
41 530
42 349
43 558
44 353
45 143
46 17
49 40
50 216
51 373
52 220
53 211
54 131
55 391
56 312
57 261
58 168
59 128
60 38
62 35
63 193
64 130
65 323
66 105
67 105
68 144
69 232
70 240
71 145
72 90
73 108
74 221
75 91
76 80
77 503
78 318
79 418
80 164
81 83
82 94
83 243
84 227
85 145
86 145
87 32
88 36
89 86
90 13
91 456
92 211
93 94
94 60
95 42
96 12
97 94
98 174
99 185
100 14
101 4
102 83
103 261
104 331
105 999
106 830
107 101
108 109
109 34
110 77
111 153
112 103
113 2
114 80
115 261
116 162
117 204
118 164
119 96
120 113
124 26
125 187
126 705
127 337
128 260
129 188
130 83
131 97
132 167
133 46
134 52
139 83
140 183
141 127
142 35
143 156
144 227
145 172
146 226
147 46
148 86
152 50
154 9
157 67
158 67
170 15
175 12
176 64
182 15
183 53
184 21
185 121
186 220
187 70
188 51
189 33
198 103
199 73
214 23
216 76
217 5
231 131
232 69

$$$$

     RDKit          2D

 21 21  0  0  0  0  0  0  0  0999 V2000
    5.5216    5.0079    0.0000 C   0  0  0  0  0  0  0  0  0  0  0  0
   -6.1697    2.7579    0.0000 C   0  0  0  0  0  0  0  0  0  0  0  0
    1.2897    6.1570    0.0000 C   0  0  0  0  0  0  0  0  0  0  0  0
   -0.6387    6.1570    0.0000 C   0  0  0  0  0  0  0  0  0  0  0  0
    4.2226    4.2579    0.0000 C   0  0  0  0  0  0  0  0  0  0  0  0
  -10.0668    6.5079    0.0000 C   0  0  0  0  0  0  0  0  0  0  0  0
  -10.0673    5.0071    0.0000 C   0  0  0  0  0  0  0  0  0  0  0  0
   -8.7673    7.2587    0.0000 C   0  0  0  0  0  0  0  0  0  0  0  0
   -8.7683    4.2571    0.0000 C   0  0  0  0  0  0  0  0  0  0  0  0
   -7.4683    6.5087    0.0000 C   0  0  0  0  0  0  0  0  0  0  0  0
   -0.9736    4.2579    0.0000 C   0  0  0  0  0  0  0  0  0  0  0  0
   -6.1697    4.2579    0.0000 C   0  0  0  0  0  0  0  0  0  0  0  0
   -7.4687    5.0079    0.0000 C   0  0  0  0  0  0  0  0  0  0  0  0
    1.6245    4.2579    0.0000 C   0  0  0  0  0  0  0  0  0  0  0  0
   -3.5716    4.2579    0.0000 C   0  0  0  0  0  0  0  0  0  0  0  0
    0.3255    5.0079    0.0000 C   0  0  0  0  0  0  0  0  0  0  0  0
   -4.8707    5.0079    0.0000 N   0  0  0  0  0  0  0  0  0  0  0  0
    1.6245    2.7579    0.0000 O   0  0  0  0  0  0  0  0  0  0  0  0
   -3.5716    2.7579    0.0000 O   0  0  0  0  0  0  0  0  0  0  0  0
    2.9236    5.0079    0.0000 O   0  0  0  0  0  0  0  0  0  0  0  0
   -2.2726    5.0079    0.0000 O   0  0  0  0  0  0  0  0  0  0  0  0
  5  1  1  0
  7  6  2  0
  8  6  1  0
  9  7  1  0
 10  8  2  0
 12  2  1  0
 13  9  2  0
 13 10  1  0
 13 12  1  0
 16  3  1  0
 16  4  1  0
 16 11  1  0
 16 14  1  0
 17 12  1  0
 17 15  2  3
 18 14  2  0
 19 15  1  0
 20  5  1  0
 20 14  1  0
 21 11  1  0
 21 15  1  0
M  END
>  <NAME>  (2267) 
ETHYL 2,2-DIMETHYL-3-(1-PHENYLETHYLAMINOCARBONYLOXY)PROPIONATE

>  <SYNONYMS>  (2267) 


>  <SPECTRUM TYPE>  (2267) 
MS1

>  <INSTRUMENT TYPE>  (2267) 
EI-B

>  <INSTRUMENT>  (2267) 
SHIMADZU LKB-9000B

>  <ION MODE>  (2267) 
P

>  <INCHIKEY>  (2267) 
ZLDKFUYLNNFVFL-UHFFFAOYSA-N

>  <FORMULA>  (2267) 
C16H23NO4

>  <EXACT MASS>  (2267) 
293.162708216

>  <MW>  (2267) 
293

>  <ID>  (2267) 
JP008759

>  <CONTRIBUTOR>  (2267) 
University of Tokyo Team, {Faculty of Engineering, University of Tokyo

>  <COMMENT>  (2267) 
SMILES=CCOC(=O)C(C)(C)COC(=O)NC(C)c(c1)cccc1
InChI=InChI=1S/C16H23NO4/c1-5-20-14(18)16(3,4)11-21-15(19)17-12(2)13-9-7-6-8-10-13/h6-10,12H,5,11H2,1-4H3,(H,17,19)
computed SMILES=O=C(OCC)C(C)(C)COC(O)=NC(C=1C=CC=CC1)C
accession=JP008759
date=2016.01.19 (Created 2008.10.21, modified 2011.05.06)
author=TSUNODA T, FACULTY OF PHARMACEUTICAL SCIENCES, TOKUSHIMA BUNRI UNIV.
license=CC BY-NC-SA
exact mass=293.16271
ionization energy=70 eV
ion type=[M]+*
computed spectral entropy=3.210921269526054
computed normalized entropy=0.8892257722842394
SPLASH=splash10-0ae9-6900000000-61b8f5639ee229bf9168
submitter=submitter = University of Tokyo Team (Faculty of Engineering, University of Tokyo)
MoNA Rating=3.75

>  <NUM PEAKS>  (2267) 
37

>  <MASS SPECTRAL PEAKS>  (2267) 
27 15.1
29 64.9
39 10.6
41 24.7
42 18.3
43 15.6
44 5.4
45 8.5
51 8.3
55 22.8
56 21.4
57 9.9
59 8.1
73 35.4
77 25.3
78 10
79 17.8
88 5.8
101 28
103 9.9
104 22.9
105 99.99
106 38.3
116 9.9
119 7.5
120 48
121 5.3
129 11.5
132 90
133 7.7
147 26.4
150 7.5
164 26.6
248 6.4
278 6.2
293 4.1
294 1.1

>  <PREDICTED SPECTRUM>  (2267) 
14 26
15 51
16 15
17 0
25 13
26 107
27 330
28 262
29 391
30 28
31 194
33 0
37 32
38 38
39 367
40 125
41 600
42 323
43 888
44 339
45 549
46 204
47 216
48 23
49 24
50 226
51 380
52 209
53 180
54 53
55 186
56 197
57 195
58 170
59 334
60 158
61 157
62 114
63 244
64 82
65 286
66 70
67 24
69 40
70 259
71 152
72 94
73 352
74 378
75 351
76 175
77 606
78 380
79 345
80 41
83 16
85 121
86 267
87 216
88 149
89 160
90 123
91 446
92 227
93 117
98 68
99 80
100 111
101 136
102 353
103 673
104 366
105 999
106 384
107 132
113 63
114 144
115 524
116 321
117 435
118 323
119 189
120 227
121 145
122 57
127 116
128 474
129 21
130 103
131 560
132 428
133 396
134 291
135 192
136 42
144 85
145 123
146 191
147 176
148 231
149 133
150 52
158 21
160 141
161 127
162 162
163 306
164 143
174 110
175 166
176 124
177 231
178 94
179 32
188 176
189 198
190 148
191 24
192 40
202 72
203 186
204 153
205 268
206 158
207 84
219 137
247 98
248 493
249 164

$$$$

     RDKit          2D

 10 10  0  0  0  0  0  0  0  0999 V2000
   -3.8981   -3.0002    0.0000 C   0  0  0  0  0  0  0  0  0  0  0  0
   -1.2992   -3.0000    0.0000 C   0  0  0  0  0  0  0  0  0  0  0  0
   -2.5992   -0.7500    0.0000 C   0  0  0  0  0  0  0  0  0  0  0  0
    0.0008   -2.2500    0.0000 C   0  0  0  0  0  0  0  0  0  0  0  0
   -1.2992    0.0000    0.0000 C   0  0  0  0  0  0  0  0  0  0  0  0
   -2.5992   -2.2500    0.0000 C   0  0  0  0  0  0  0  0  0  0  0  0
    0.0008   -0.7500    0.0000 C   0  0  0  0  0  0  0  0  0  0  0  0
    2.5989   -0.7496    0.0000 N   0  0  0  0  0  0  0  0  0  0  0  0
    1.2995    1.5002    0.0000 O   0  0  0  0  0  0  0  0  0  0  0  0
    1.2998    0.0002    0.0000 S   0  0  0  0  0  0  0  0  0  0  0  0
  4  2  2  0
  5  3  1  0
  6  1  1  0
  6  2  1  0
  6  3  2  0
  7  4  1  0
  7  5  2  0
 10  7  1  0
 10  8  1  0
 10  9  2  0
M  END
>  <NAME>  (2268) 
PARA-TOLENESULFINAMIDE

>  <SYNONYMS>  (2268) 


>  <SPECTRUM TYPE>  (2268) 
MS1

>  <INSTRUMENT TYPE>  (2268) 
EI-B

>  <INSTRUMENT>  (2268) 
SHIMADZU LKB-9000B

>  <ION MODE>  (2268) 
P

>  <INCHIKEY>  (2268) 
YNJDSRPIGAUCEE-UHFFFAOYSA-N

>  <FORMULA>  (2268) 
C7H9NOS

>  <EXACT MASS>  (2268) 
155.040484908

>  <MW>  (2268) 
155

>  <ID>  (2268) 
JP008758

>  <CONTRIBUTOR>  (2268) 
University of Tokyo Team, {Faculty of Engineering, University of Tokyo

>  <COMMENT>  (2268) 
SMILES=Cc(c1)ccc(c1)S(N)=O
InChI=InChI=1S/C7H9NOS/c1-6-2-4-7(5-3-6)10(8)9/h2-5H,8H2,1H3
computed SMILES=O=S(N)C1=CC=C(C=C1)C
accession=JP008758
date=2016.01.19 (Created 2008.10.21, modified 2011.05.06)
author=TSUNODA T, FACULTY OF PHARMACEUTICAL SCIENCES, TOKUSHIMA BUNRI UNIV.
license=CC BY-NC-SA
exact mass=155.04048
ionization energy=70 eV
ion type=[M]+*
computed spectral entropy=2.866413625329707
computed normalized entropy=0.8697073738375805
SPLASH=splash10-052r-9800000000-4f3bfa59d0b1bb73e974
submitter=submitter = University of Tokyo Team (Faculty of Engineering, University of Tokyo)
MoNA Rating=3.75

>  <NUM PEAKS>  (2268) 
27

>  <MASS SPECTRAL PEAKS>  (2268) 
39 24.6
41 5.7
45 7.5
48 5.3
50 8.5
51 14.2
62 7.3
63 21.7
64 14.6
65 39.9
67 11
77 31.5
78 10.7
79 12.3
89 14.9
90 6.8
91 58.4
92 7.1
106 14.6
107 65.7
108 52.9
109 10.9
111 11.9
139 99.99
140 9.9
141 5
155 1.69

>  <PREDICTED SPECTRUM>  (2268) 
39 72
50 15
51 89
52 10
63 128
65 287
77 124
78 51
79 32
84 2
89 29
90 16
91 563
92 202
106 62
107 511
123 135
139 999
140 222
155 598
156 129

$$$$

     RDKit          2D

 22 22  0  0  0  0  0  0  0  0999 V2000
   -3.8971    7.8200    0.0000 C   0  0  0  0  0  0  0  0  0  0  0  0
   -7.7942    2.5700    0.0000 C   0  0  0  0  0  0  0  0  0  0  0  0
   -2.9329    4.4691    0.0000 C   0  0  0  0  0  0  0  0  0  0  0  0
   -4.8613    4.4691    0.0000 C   0  0  0  0  0  0  0  0  0  0  0  0
   -2.5981    7.0700    0.0000 C   0  0  0  0  0  0  0  0  0  0  0  0
   -2.5981    5.5700    0.0000 C   0  0  0  0  0  0  0  0  0  0  0  0
    0.0000   -1.9300    0.0000 C   0  0  0  0  0  0  0  0  0  0  0  0
    1.3000   -1.1800    0.0000 C   0  0  0  0  0  0  0  0  0  0  0  0
   -1.3000   -1.1800    0.0000 C   0  0  0  0  0  0  0  0  0  0  0  0
    1.3000    0.3200    0.0000 C   0  0  0  0  0  0  0  0  0  0  0  0
   -1.3000    0.3200    0.0000 C   0  0  0  0  0  0  0  0  0  0  0  0
   -1.2990    4.8200    0.0000 C   0  0  0  0  0  0  0  0  0  0  0  0
   -6.4952    3.3200    0.0000 C   0  0  0  0  0  0  0  0  0  0  0  0
    0.0000    1.0700    0.0000 C   0  0  0  0  0  0  0  0  0  0  0  0
    0.0000    2.5700    0.0000 C   0  0  0  0  0  0  0  0  0  0  0  0
   -2.5981    2.5700    0.0000 C   0  0  0  0  0  0  0  0  0  0  0  0
   -3.8971    3.3200    0.0000 C   0  0  0  0  0  0  0  0  0  0  0  0
   -1.2990    3.3200    0.0000 N   0  0  0  0  0  0  0  0  0  0  0  0
   -6.4952    4.8200    0.0000 O   0  0  0  0  0  0  0  0  0  0  0  0
    1.2990    3.3200    0.0000 O   0  0  0  0  0  0  0  0  0  0  0  0
   -2.5981    1.0700    0.0000 O   0  0  0  0  0  0  0  0  0  0  0  0
   -5.1962    2.5700    0.0000 O   0  0  0  0  0  0  0  0  0  0  0  0
  5  1  1  0
  6  5  1  0
  8  7  2  0
  9  7  1  0
 10  8  1  0
 11  9  2  0
 12  6  1  0
 13  2  1  0
 14 10  2  0
 14 11  1  0
 15 14  1  0
 17  3  1  0
 17  4  1  0
 17 16  1  0
 18 12  1  0
 18 15  1  0
 18 16  1  0
 19 13  2  0
 20 15  2  0
 21 16  2  0
 22 13  1  0
 22 17  1  0
M  END
>  <NAME>  (2269) 
N-(2-ACETOXY-2-METHYLPROPIONYL)-N-BUTYLBENZAMIDE

>  <SYNONYMS>  (2269) 


>  <SPECTRUM TYPE>  (2269) 
MS1

>  <INSTRUMENT TYPE>  (2269) 
EI-B

>  <INSTRUMENT>  (2269) 
SHIMADZU LKB-9000B

>  <ION MODE>  (2269) 
P

>  <INCHIKEY>  (2269) 
QSFHHPHMJZXYCC-UHFFFAOYSA-N

>  <FORMULA>  (2269) 
C17H23NO4

>  <EXACT MASS>  (2269) 
305.162708216

>  <MW>  (2269) 
305

>  <ID>  (2269) 
JP008757

>  <CONTRIBUTOR>  (2269) 
University of Tokyo Team, {Faculty of Engineering, University of Tokyo

>  <COMMENT>  (2269) 
SMILES=CCCCN(C(=O)c(c1)cccc1)C(=O)C(C)(C)OC(C)=O
InChI=InChI=1S/C17H23NO4/c1-5-6-12-18(15(20)14-10-8-7-9-11-14)16(21)17(3,4)22-13(2)19/h7-11H,5-6,12H2,1-4H3
computed SMILES=O=C(OC(C(=O)N(C(=O)C=1C=CC=CC1)CCCC)(C)C)C
accession=JP008757
date=2016.01.19 (Created 2008.10.21, modified 2011.05.06)
author=TSUNODA T, FACULTY OF PHARMACEUTICAL SCIENCES, TOKUSHIMA BUNRI UNIV.
license=CC BY-NC-SA
exact mass=305.16271
ionization energy=70 eV
ion type=[M]+*
computed spectral entropy=2.078778954355661
computed normalized entropy=0.767629401223645
SPLASH=splash10-0a4i-5910000000-2909a1519ff79d85cb4d
submitter=submitter = University of Tokyo Team (Faculty of Engineering, University of Tokyo)
MoNA Rating=3.75

>  <NUM PEAKS>  (2269) 
15

>  <MASS SPECTRAL PEAKS>  (2269) 
41 5.1
43 54.9
51 5.3
59 13.1
77 26.2
101 16.7
105 99.99
106 7
129 5.8
135 10.9
160 7
177 10.5
205 20.1
305 0.3
306 0.6

>  <PREDICTED SPECTRUM>  (2269) 
14 6
15 43
26 21
27 102
28 63
29 76
37 23
38 38
39 109
40 24
41 136
42 70
43 515
44 38
49 4
50 65
51 198
52 12
53 20
54 23
55 53
57 5
65 9
66 18
68 4
69 26
70 40
71 16
72 0
73 13
74 32
75 1
76 25
77 481
78 80
79 10
99 6
103 10
104 48
105 999
106 272
110 12
113 1
114 14
115 0
119 14
123 3
124 2
132 41
133 54
135 14
146 31
147 15
160 78
161 56
162 1
163 17
175 7
176 85
177 180
178 3
203 31
204 29
205 113
206 12
220 3
263 49
305 35

$$$$

     RDKit          2D

 13 12  0  0  0  0  0  0  0  0999 V2000
   -8.4437    5.6250    0.0000 C   0  0  0  0  0  0  0  0  0  0  0  0
    3.2476    4.8750    0.0000 C   0  0  0  0  0  0  0  0  0  0  0  0
    0.6495    3.3750    0.0000 C   0  0  0  0  0  0  0  0  0  0  0  0
   -7.1447    4.8750    0.0000 C   0  0  0  0  0  0  0  0  0  0  0  0
    1.9486    5.6250    0.0000 C   0  0  0  0  0  0  0  0  0  0  0  0
   -5.8457    5.6250    0.0000 C   0  0  0  0  0  0  0  0  0  0  0  0
   -4.5466    4.8750    0.0000 C   0  0  0  0  0  0  0  0  0  0  0  0
    0.6495    4.8750    0.0000 C   0  0  0  0  0  0  0  0  0  0  0  0
   -0.6495    5.6250    0.0000 C   0  0  0  0  0  0  0  0  0  0  0  0
   -1.9486    4.8750    0.0000 C   0  0  0  0  0  0  0  0  0  0  0  0
   -3.2476    5.6250    0.0000 N   0  0  0  0  0  0  0  0  0  0  0  0
   -0.6495    7.1250    0.0000 O   0  0  0  0  0  0  0  0  0  0  0  0
   -1.9486    3.3750    0.0000 O   0  0  0  0  0  0  0  0  0  0  0  0
  4  1  1  0
  5  2  2  0
  6  4  1  0
  7  6  1  0
  8  3  1  0
  8  5  1  0
  9  8  1  0
 10  9  1  0
 11  7  1  0
 11 10  2  3
 12  9  1  0
 13 10  1  0
M  END
>  <NAME>  (2270) 
N-BUTYL-2-HYDROXY-3-METHYL-4-PENTENAMIDE

>  <SYNONYMS>  (2270) 


>  <SPECTRUM TYPE>  (2270) 
MS1

>  <INSTRUMENT TYPE>  (2270) 
EI-B

>  <INSTRUMENT>  (2270) 
SHIMADZU LKB-9000B

>  <ION MODE>  (2270) 
P

>  <INCHIKEY>  (2270) 
PYKIEYOLXBNQDR-UHFFFAOYSA-N

>  <FORMULA>  (2270) 
C10H19NO2

>  <EXACT MASS>  (2270) 
185.141578848

>  <MW>  (2270) 
185

>  <ID>  (2270) 
JP008756

>  <CONTRIBUTOR>  (2270) 
University of Tokyo Team, {Faculty of Engineering, University of Tokyo

>  <COMMENT>  (2270) 
SMILES=CCCCNC(=O)C(O)C(C)C=C
InChI=InChI=1S/C10H19NO2/c1-4-6-7-11-10(13)9(12)8(3)5-2/h5,8-9,12H,2,4,6-7H2,1,3H3,(H,11,13)
computed SMILES=OC(=NCCCC)C(O)C(C=C)C
accession=JP008756
date=2016.01.19 (Created 2008.10.21, modified 2011.05.06)
author=TSUNODA T, FACULTY OF PHARMACEUTICAL SCIENCES, TOKUSHIMA BUNRI UNIV.
license=CC BY-NC-SA
exact mass=185.14158
ionization energy=70 eV
ion type=[M]+*
computed spectral entropy=3.0246617216248324
computed normalized entropy=0.8650522466927686
SPLASH=splash10-053u-9200000000-93585647421fd5449873
submitter=submitter = University of Tokyo Team (Faculty of Engineering, University of Tokyo)
MoNA Rating=3.75

>  <NUM PEAKS>  (2270) 
33

>  <MASS SPECTRAL PEAKS>  (2270) 
27 13.4
29 37.3
30 44.3
39 18.7
41 51.9
42 6.9
43 55.9
44 8.2
46 10.4
53 7.7
55 25.8
56 12
57 99.99
58 11.4
59 15.2
67 7.2
68 6.7
69 5.5
71 6.4
72 8.2
73 5
74 24.7
85 5
95 14.8
96 5.9
100 15.7
102 16
110 5
130 92.6
131 20.2
167 8.8
185 3.2
186 4.1

>  <PREDICTED SPECTRUM>  (2270) 
14 24
15 57
16 5
17 25
18 60
25 34
26 153
27 471
28 306
29 539
30 357
31 334
33 82
34 33
35 6
36 10
37 63
38 114
39 599
40 245
41 999
42 619
43 858
44 295
45 447
46 189
50 115
51 141
52 151
53 316
54 342
55 625
56 786
57 781
58 235
59 127
60 84
61 168
62 44
64 102
65 63
66 76
67 224
68 327
69 286
70 300
71 482
72 460
73 243
74 135
76 185
77 97
78 105
80 111
81 163
82 276
83 227
84 619
85 248
86 202
87 74
92 5
93 79
94 461
95 257
96 395
97 219
98 426
99 179
100 114
101 10
102 131
104 4
108 107
109 77
110 453
111 530
112 474
113 141
114 76
115 55
122 4
124 171
126 129
127 64
128 433
129 200
130 109
138 63
140 293
141 168
142 136
143 0
154 133
168 116
184 44
185 172
186 46

$$$$

     RDKit          2D

 19 19  0  0  0  0  0  0  0  0999 V2000
   10.0236   -1.7085    0.0000 C   0  0  0  0  0  0  0  0  0  0  0  0
   11.3223    0.5417    0.0000 C   0  0  0  0  0  0  0  0  0  0  0  0
    8.7245   -0.9588    0.0000 C   0  0  0  0  0  0  0  0  0  0  0  0
   10.0231    1.2915    0.0000 C   0  0  0  0  0  0  0  0  0  0  0  0
    7.4256   -1.7090    0.0000 C   0  0  0  0  0  0  0  0  0  0  0  0
    8.7242    0.5412    0.0000 C   0  0  0  0  0  0  0  0  0  0  0  0
   -0.3700   -1.7100    0.0000 C   0  0  0  0  0  0  0  0  0  0  0  0
   -1.6700   -0.9600    0.0000 C   0  0  0  0  0  0  0  0  0  0  0  0
    0.9300   -0.9600    0.0000 C   0  0  0  0  0  0  0  0  0  0  0  0
    6.1264   -0.9592    0.0000 C   0  0  0  0  0  0  0  0  0  0  0  0
    7.4251    1.2910    0.0000 C   0  0  0  0  0  0  0  0  0  0  0  0
   -1.6700    0.5400    0.0000 C   0  0  0  0  0  0  0  0  0  0  0  0
    3.5281    0.5404    0.0000 C   0  0  0  0  0  0  0  0  0  0  0  0
    4.8270    1.2906    0.0000 C   0  0  0  0  0  0  0  0  0  0  0  0
    0.9300    0.5400    0.0000 C   0  0  0  0  0  0  0  0  0  0  0  0
    6.1262    0.5408    0.0000 N   0  0  0  0  0  0  0  0  0  0  0  0
    4.8268    2.7906    0.0000 O   0  0  0  0  0  0  0  0  0  0  0  0
   -0.3700    1.2900    0.0000 O   0  0  0  0  0  0  0  0  0  0  0  0
    2.2289    1.2902    0.0000 O   0  0  0  0  0  0  0  0  0  0  0  0
  3  1  1  0
  4  2  1  0
  3  5  2  0
  6  4  1  0
  8  7  1  0
  9  7  1  0
 10  5  1  0
 11  6  1  0
 12  8  1  0
 14 13  1  0
 15  9  1  0
 16 10  1  0
 16 11  1  0
 16 14  1  0
 17 14  2  0
 18 12  1  0
 18 15  1  0
 19 13  1  0
 19 15  1  0
M  END
>  <NAME>  (2271) 
N-2-BUTENYL-N-BUTYL-2-OXANYLOXYACETAMIDE

>  <SYNONYMS>  (2271) 


>  <SPECTRUM TYPE>  (2271) 
MS1

>  <INSTRUMENT TYPE>  (2271) 
EI-B

>  <INSTRUMENT>  (2271) 
SHIMADZU LKB-9000B

>  <ION MODE>  (2271) 
P

>  <INCHIKEY>  (2271) 
AWBUGUYQGYOYJN-HWKANZROSA-N

>  <FORMULA>  (2271) 
C15H27NO3

>  <EXACT MASS>  (2271) 
269.199093724

>  <MW>  (2271) 
269

>  <ID>  (2271) 
JP008755

>  <CONTRIBUTOR>  (2271) 
University of Tokyo Team, {Faculty of Engineering, University of Tokyo

>  <COMMENT>  (2271) 
SMILES=CCCCN(CC=CC)C(=O)COC(C1)OCCC1
InChI=InChI=1S/C15H27NO3/c1-3-5-10-16(11-6-4-2)14(17)13-19-15-9-7-8-12-18-15/h3,5,15H,4,6-13H2,1-2H3/b5-3+
computed SMILES=O=C(N(CC=CC)CCCC)COC1OCCCC1
accession=JP008755
date=2016.01.19 (Created 2008.10.21, modified 2011.05.06)
author=TSUNODA T, FACULTY OF PHARMACEUTICAL SCIENCES, TOKUSHIMA BUNRI UNIV.
license=CC BY-NC-SA
exact mass=269.19909
ionization energy=70 eV
ion type=[M]+*
computed spectral entropy=2.733808573281479
computed normalized entropy=0.8602146845895845
SPLASH=splash10-000i-6900000000-4c0d81876ba4e1d0ada1
submitter=submitter = University of Tokyo Team (Faculty of Engineering, University of Tokyo)
MoNA Rating=3.75

>  <NUM PEAKS>  (2271) 
24

>  <MASS SPECTRAL PEAKS>  (2271) 
41 10.2
55 45.2
56 6.8
57 14.2
67 9.5
70 6.8
84 16
85 98.8
86 10.8
112 7.9
126 23.6
127 12.7
128 5.4
140 26.5
142 5.4
154 30.4
156 10.2
168 5
169 10.5
184 10.5
185 19.4
186 99.99
187 19.9
271 18.9

>  <PREDICTED SPECTRUM>  (2271) 
26 62
27 202
28 108
29 299
30 118
31 77
36 5
37 10
38 43
39 200
40 84
41 455
42 206
43 349
44 133
45 112
46 22
47 40
48 8
50 32
51 60
52 55
53 141
54 265
55 604
56 333
57 475
58 121
59 72
60 15
61 29
65 60
66 88
67 345
68 240
69 166
70 158
71 55
72 101
73 110
74 17
76 23
77 59
79 49
80 89
81 189
82 171
83 445
84 436
85 999
86 388
87 15
88 4
93 28
94 105
95 118
96 158
97 54
98 206
99 15
100 84
101 236
102 102
108 85
109 95
110 186
111 89
112 130
113 93
114 58
115 46
116 4
122 108
123 83
124 142
125 104
126 116
127 33
128 70
130 62
138 81
140 206
141 88
142 80
150 63
152 44
154 7
156 5
167 4
168 235
169 96
170 57
172 8
184 74
185 18
186 176
187 48
197 8
269 32
270 1

$$$$

     RDKit          2D

 20 20  0  0  0  0  0  0  0  0999 V2000
   -3.8971    7.8200    0.0000 C   0  0  0  0  0  0  0  0  0  0  0  0
   -7.7942    2.5700    0.0000 C   0  0  0  0  0  0  0  0  0  0  0  0
   -2.5981    7.0700    0.0000 C   0  0  0  0  0  0  0  0  0  0  0  0
   -2.5981    5.5700    0.0000 C   0  0  0  0  0  0  0  0  0  0  0  0
    0.0000   -1.9300    0.0000 C   0  0  0  0  0  0  0  0  0  0  0  0
    1.3000   -1.1800    0.0000 C   0  0  0  0  0  0  0  0  0  0  0  0
   -1.3000   -1.1800    0.0000 C   0  0  0  0  0  0  0  0  0  0  0  0
    1.3000    0.3200    0.0000 C   0  0  0  0  0  0  0  0  0  0  0  0
   -1.3000    0.3200    0.0000 C   0  0  0  0  0  0  0  0  0  0  0  0
   -1.2990    4.8200    0.0000 C   0  0  0  0  0  0  0  0  0  0  0  0
   -3.8971    3.3200    0.0000 C   0  0  0  0  0  0  0  0  0  0  0  0
   -6.4952    3.3200    0.0000 C   0  0  0  0  0  0  0  0  0  0  0  0
    0.0000    1.0700    0.0000 C   0  0  0  0  0  0  0  0  0  0  0  0
   -2.5981    2.5700    0.0000 C   0  0  0  0  0  0  0  0  0  0  0  0
    0.0000    2.5700    0.0000 C   0  0  0  0  0  0  0  0  0  0  0  0
   -1.2990    3.3200    0.0000 N   0  0  0  0  0  0  0  0  0  0  0  0
   -6.4952    4.8200    0.0000 O   0  0  0  0  0  0  0  0  0  0  0  0
   -2.5981    1.0700    0.0000 O   0  0  0  0  0  0  0  0  0  0  0  0
    1.2990    3.3200    0.0000 O   0  0  0  0  0  0  0  0  0  0  0  0
   -5.1962    2.5700    0.0000 O   0  0  0  0  0  0  0  0  0  0  0  0
  3  1  1  0
  4  3  1  0
  6  5  2  0
  7  5  1  0
  8  6  1  0
  9  7  2  0
 10  4  1  0
 12  2  1  0
 13  8  2  0
 13  9  1  0
 14 11  1  0
 15 13  1  0
 16 10  1  0
 16 14  1  0
 16 15  1  0
 17 12  2  0
 18 14  2  0
 19 15  2  0
 20 11  1  0
 20 12  1  0
M  END
>  <NAME>  (2272) 
N-(ACETOXYACETYL)-N-BUTYLBENZAMIDE

>  <SYNONYMS>  (2272) 


>  <SPECTRUM TYPE>  (2272) 
MS1

>  <INSTRUMENT TYPE>  (2272) 
EI-B

>  <INSTRUMENT>  (2272) 
SHIMADZU LKB-9000B

>  <ION MODE>  (2272) 
P

>  <INCHIKEY>  (2272) 
SYAZCNUTZALLGP-UHFFFAOYSA-N

>  <FORMULA>  (2272) 
C15H19NO4

>  <EXACT MASS>  (2272) 
277.131408088

>  <MW>  (2272) 
277

>  <ID>  (2272) 
JP008754

>  <CONTRIBUTOR>  (2272) 
University of Tokyo Team, {Faculty of Engineering, University of Tokyo

>  <COMMENT>  (2272) 
SMILES=CCCCN(C(=O)COC(C)=O)C(=O)c(c1)cccc1
InChI=InChI=1S/C15H19NO4/c1-3-4-10-16(14(18)11-20-12(2)17)15(19)13-8-6-5-7-9-13/h5-9H,3-4,10-11H2,1-2H3
computed SMILES=O=C(OCC(=O)N(C(=O)C=1C=CC=CC1)CCCC)C
accession=JP008754
date=2016.01.19 (Created 2008.10.21, modified 2011.05.06)
author=TSUNODA T, FACULTY OF PHARMACEUTICAL SCIENCES, TOKUSHIMA BUNRI UNIV.
license=CC BY-NC-SA
exact mass=277.13141
ionization energy=70 eV
ion type=[M]+*
computed spectral entropy=2.63923536927544
computed normalized entropy=0.7920388323154486
SPLASH=splash10-0a6u-9510000000-df12766f01ac2e57130b
submitter=submitter = University of Tokyo Team (Faculty of Engineering, University of Tokyo)
MoNA Rating=3.75

>  <NUM PEAKS>  (2272) 
28

>  <MASS SPECTRAL PEAKS>  (2272) 
27 9.1
28 8.8
29 8.9
39 5.4
41 8.4
42 5.4
43 85.9
50 6.2
51 27.7
72 5.2
73 7.1
76 6
77 98.3
78 9
101 5.7
104 7
105 99.99
106 28.8
148 11.8
160 6.1
162 7.7
178 6.6
204 11.8
216 15.8
217 13.1
218 8.7
277 0.3
278 0.6

>  <PREDICTED SPECTRUM>  (2272) 
14 11
15 53
26 7
27 70
28 49
29 89
30 9
32 9
33 3
37 6
38 49
39 107
40 36
41 88
42 128
43 638
44 130
45 59
50 177
51 321
52 96
53 76
54 19
55 25
56 1
57 16
58 41
60 37
61 7
62 48
63 71
65 40
66 37
68 21
69 16
70 55
71 70
72 47
73 109
74 112
75 64
76 162
77 629
78 181
79 6
82 0
84 64
85 38
86 4
88 4
98 29
102 64
103 13
104 76
105 999
106 330
112 40
113 50
114 46
115 41
116 59
119 23
120 9
121 1
122 59
123 58
129 24
130 45
132 40
134 53
140 0
146 58
147 76
148 133
149 11
158 14
160 98
161 92
162 207
163 12
164 9
172 34
174 28
175 109
176 239
177 136
178 38
188 13
189 10
190 72
204 264
205 92
206 86
216 37
217 182
218 114
219 54
234 18
235 15
277 30
278 10

$$$$

     RDKit          2D

  6  5  0  0  0  0  0  0  0  0999 V2000
    0.0000    0.0000    0.0000 C   0  0  0  0  0  0  0  0  0  0  0  0
    1.2990    2.2500    0.0000 C   0  0  0  0  0  0  0  0  0  0  0  0
   -2.5981    4.5000    0.0000 C   0  0  0  0  0  0  0  0  0  0  0  0
   -1.2990    2.2500    0.0000 C   0  0  0  0  0  0  0  0  0  0  0  0
    0.0000    1.5000    0.0000 C   0  0  0  0  0  0  0  0  0  0  0  0
   -1.2990    3.7500    0.0000 S   0  0  0  0  0  0  0  0  0  0  0  0
  5  1  1  0
  5  2  1  0
  5  4  1  0
  6  3  1  0
  6  4  1  0
M  END
>  <NAME>  (2273) 
ISOBUTYL METHYL SULFIDE

>  <SYNONYMS>  (2273) 


>  <SPECTRUM TYPE>  (2273) 
MS1

>  <INSTRUMENT TYPE>  (2273) 
EI-B

>  <INSTRUMENT>  (2273) 
HITACHI M-80B

>  <ION MODE>  (2273) 
P

>  <INCHIKEY>  (2273) 
UYVGFIKOUAFDOZ-UHFFFAOYSA-N

>  <FORMULA>  (2273) 
C5H12S

>  <EXACT MASS>  (2273) 
104.065971384

>  <MW>  (2273) 
104

>  <ID>  (2273) 
JP008753

>  <CONTRIBUTOR>  (2273) 
University of Tokyo Team, {Faculty of Engineering, University of Tokyo

>  <COMMENT>  (2273) 
SMILES=CC(C)CSC
InChI=InChI=1S/C5H12S/c1-5(2)4-6-3/h5H,4H2,1-3H3
computed SMILES=S(C)CC(C)C
accession=JP008753
date=2016.01.19 (Created 2008.10.21, modified 2011.05.06)
author=SODA AROMATIC CO., LTD.
license=CC BY-NC-SA
exact mass=104.06597
ionization energy=70 eV
ion type=[M]+*
computed spectral entropy=2.8072916728606816
computed normalized entropy=0.8100131549529975
SPLASH=splash10-08fr-9100000000-a03106d837acefb88ab5
submitter=submitter = University of Tokyo Team (Faculty of Engineering, University of Tokyo)
MoNA Rating=3.75

>  <NUM PEAKS>  (2273) 
32

>  <MASS SPECTRAL PEAKS>  (2273) 
15 4.75
27 18.17
28 2.3
29 15.01
35 6.39
38 1.85
39 22.06
40 2.32
41 43.43
42 2.28
43 9.91
45 16.85
46 11.27
47 18.51
48 4.37
49 4.36
53 1.84
55 8.68
56 45.62
57 23.39
58 1.43
59 2.14
61 99.99
62 21.1
63 5.27
71 1.4
73 1.55
75 6.75
89 4.57
104 46.96
105 2.95
106 1.71

>  <PREDICTED SPECTRUM>  (2273) 
14 51
15 207
16 10
25 39
26 201
27 631
28 316
29 707
30 236
31 158
32 49
33 88
34 76
35 225
36 14
37 108
38 162
39 538
40 205
41 999
42 346
43 435
44 65
45 527
46 477
47 605
48 413
49 229
50 98
51 51
53 181
54 33
55 406
56 667
57 610
58 99
59 137
60 45
61 715
62 266
63 167
70 28
75 196
76 103
77 30
89 474
90 83
91 27
104 770
105 190
106 79

$$$$

     RDKit          2D

  5  4  0  0  0  0  0  0  0  0999 V2000
   -3.8971    2.2500    0.0000 C   0  0  0  0  0  0  0  0  0  0  0  0
    1.2990    2.2500    0.0000 C   0  0  0  0  0  0  0  0  0  0  0  0
   -2.5981    1.5000    0.0000 C   0  0  0  0  0  0  0  0  0  0  0  0
   -1.2990    2.2500    0.0000 C   0  0  0  0  0  0  0  0  0  0  0  0
    0.0000    1.5000    0.0000 S   0  0  0  0  0  0  0  0  0  0  0  0
  3  1  1  0
  4  3  1  0
  5  2  1  0
  5  4  1  0
M  END
>  <NAME>  (2274) 
METHYL PROPYL SULFIDE

>  <SYNONYMS>  (2274) 


>  <SPECTRUM TYPE>  (2274) 
MS1

>  <INSTRUMENT TYPE>  (2274) 
EI-B

>  <INSTRUMENT>  (2274) 
HITACHI M-80B

>  <ION MODE>  (2274) 
P

>  <INCHIKEY>  (2274) 
ZOASGOXWEHUTKZ-UHFFFAOYSA-N

>  <FORMULA>  (2274) 
C4H10S

>  <EXACT MASS>  (2274) 
90.05032132

>  <MW>  (2274) 
90

>  <ID>  (2274) 
JP008752

>  <CONTRIBUTOR>  (2274) 
University of Tokyo Team, {Faculty of Engineering, University of Tokyo

>  <COMMENT>  (2274) 
SMILES=CCCSC
InChI=InChI=1S/C4H10S/c1-3-4-5-2/h3-4H2,1-2H3
computed SMILES=S(C)CCC
accession=JP008752
date=2016.01.19 (Created 2008.10.21, modified 2011.05.06)
author=SODA AROMATIC CO., LTD.
license=CC BY-NC-SA
exact mass=90.05032
ionization energy=70 eV
ion type=[M]+*
computed spectral entropy=2.6862597745186414
computed normalized entropy=0.8150463398922102
SPLASH=splash10-01ow-9000000000-a40c801d9aee15105a44
submitter=submitter = University of Tokyo Team (Faculty of Engineering, University of Tokyo)
MoNA Rating=3.75

>  <NUM PEAKS>  (2274) 
27

>  <MASS SPECTRAL PEAKS>  (2274) 
15 5.05
26 2.7
27 28.81
29 2.35
35 11.24
37 1.31
38 2.36
39 21.23
40 2.52
41 34.99
42 9.6
43 18.08
45 25.11
46 11.98
47 23.27
48 40.89
49 18.77
50 1.71
58 2.44
59 3.02
61 99.99
62 4.13
63 3.85
75 9.77
90 45.43
91 1.97
92 1.83

>  <PREDICTED SPECTRUM>  (2274) 
14 32
15 417
25 37
26 160
27 562
28 190
29 436
31 162
32 56
33 87
34 34
35 262
37 39
38 108
39 514
40 165
41 850
42 278
43 706
44 229
45 607
46 607
47 865
48 459
49 278
50 103
57 40
59 235
61 790
62 21
63 124
75 192
90 999
91 272
92 201

$$$$

     RDKit          2D

  5  4  0  0  0  0  0  0  0  0999 V2000
   -3.8971    2.2500    0.0000 C   0  0  0  0  0  0  0  0  0  0  0  0
    1.2990    2.2500    0.0000 C   0  0  0  0  0  0  0  0  0  0  0  0
   -2.5981    1.5000    0.0000 C   0  0  0  0  0  0  0  0  0  0  0  0
    0.0000    1.5000    0.0000 C   0  0  0  0  0  0  0  0  0  0  0  0
   -1.2990    2.2500    0.0000 S   0  0  0  0  0  0  0  0  0  0  0  0
  3  1  1  0
  4  2  1  0
  5  3  1  0
  5  4  1  0
M  END
>  <NAME>  (2275) 
DIETHYL SULFIDE

>  <SYNONYMS>  (2275) 


>  <SPECTRUM TYPE>  (2275) 
MS1

>  <INSTRUMENT TYPE>  (2275) 
EI-B

>  <INSTRUMENT>  (2275) 
HITACHI M-80B

>  <ION MODE>  (2275) 
P

>  <INCHIKEY>  (2275) 
LJSQFQKUNVCTIA-UHFFFAOYSA-N

>  <FORMULA>  (2275) 
C4H10S

>  <EXACT MASS>  (2275) 
90.05032132

>  <MW>  (2275) 
90

>  <ID>  (2275) 
JP008751

>  <CONTRIBUTOR>  (2275) 
University of Tokyo Team, {Faculty of Engineering, University of Tokyo

>  <COMMENT>  (2275) 
SMILES=CCSCC
InChI=InChI=1S/C4H10S/c1-3-5-4-2/h3-4H2,1-2H3
computed SMILES=S(CC)CC
accession=JP008751
date=2016.01.19 (Created 2008.10.21, modified 2011.05.06)
author=SODA AROMATIC CO., LTD.
license=CC BY-NC-SA
exact mass=90.05032
ionization energy=70 eV
ion type=[M]+*
computed spectral entropy=2.7193256730378055
computed normalized entropy=0.8075695781824814
SPLASH=splash10-004j-9000000000-87e7e650df07337181fe
submitter=submitter = University of Tokyo Team (Faculty of Engineering, University of Tokyo)
MoNA Rating=3.75

>  <NUM PEAKS>  (2275) 
29

>  <MASS SPECTRAL PEAKS>  (2275) 
15 2.33
26 13.88
27 75.12
28 13.35
29 49.68
33 1.56
34 5.12
35 16.86
41 8.06
45 28.66
46 19.09
47 81.13
48 2.12
49 3.23
57 3.95
58 12.81
59 15.38
60 12.18
61 57.12
62 50.92
63 3.17
64 2.21
75 99.99
76 2.9
77 3.52
89 2.33
90 68.99
91 2.87
92 2.18

>  <PREDICTED SPECTRUM>  (2275) 
14 30
15 214
18 14
25 42
26 151
27 490
28 306
29 586
30 143
31 187
32 73
33 88
34 131
35 310
36 21
38 6
39 257
40 127
41 531
42 127
43 13
44 172
45 417
46 342
47 575
48 255
49 152
50 13
51 15
57 185
58 303
59 536
61 546
62 448
63 347
64 21
75 999
77 55
89 84
90 864
91 256
92 116

$$$$

     RDKit          2D

  3  2  0  0  0  0  0  0  0  0999 V2000
   -1.2990    0.0000    0.0000 C   0  0  0  0  0  0  0  0  0  0  0  0
    0.0000    2.2500    0.0000 C   0  0  0  0  0  0  0  0  0  0  0  0
   -0.0000    0.7500    0.0000 S   0  0  0  0  0  0  0  0  0  0  0  0
  3  1  1  0
  3  2  1  0
M  END
>  <NAME>  (2276) 
DIMETHYL SULFIDE

>  <SYNONYMS>  (2276) 


>  <SPECTRUM TYPE>  (2276) 
MS1

>  <INSTRUMENT TYPE>  (2276) 
EI-B

>  <INSTRUMENT>  (2276) 
HITACHI M-80B

>  <ION MODE>  (2276) 
P

>  <INCHIKEY>  (2276) 
QMMFVYPAHWMCMS-UHFFFAOYSA-N

>  <FORMULA>  (2276) 
C2H6S

>  <EXACT MASS>  (2276) 
62.019021192

>  <MW>  (2276) 
62

>  <ID>  (2276) 
JP008750

>  <CONTRIBUTOR>  (2276) 
University of Tokyo Team, {Faculty of Engineering, University of Tokyo

>  <COMMENT>  (2276) 
SMILES=CSC
InChI=InChI=1S/C2H6S/c1-3-2/h1-2H3
computed SMILES=S(C)C
accession=JP008750
date=2016.01.19 (Created 2008.10.21, modified 2011.05.06)
author=SODA AROMATIC CO., LTD.
license=CC BY-NC-SA
exact mass=62.01902
ionization energy=70 eV
ion type=[M]+*
computed spectral entropy=2.2026636427316877
computed normalized entropy=0.7125957265124476
SPLASH=splash10-01ot-9000000000-b8e506cefc1462c55765
submitter=submitter = University of Tokyo Team (Faculty of Engineering, University of Tokyo)
MoNA Rating=3.75

>  <NUM PEAKS>  (2276) 
22

>  <MASS SPECTRAL PEAKS>  (2276) 
13 1
14 2.6
15 8.65
27 18.17
32 1.3
33 1.02
34 1.13
35 28.26
37 1.05
44 4.89
45 64.56
46 42.74
47 99.99
48 3.16
49 3.91
57 2.55
58 3.25
59 2.58
61 31.79
62 91.89
63 3
64 3.77

>  <PREDICTED SPECTRUM>  (2276) 
14 105
15 542
16 8
25 35
26 14
27 183
28 81
29 81
31 4
32 78
33 78
34 82
35 115
37 54
41 5
42 50
43 231
44 281
45 679
46 513
47 674
48 337
49 208
50 31
58 163
59 114
60 164
61 118
62 999
63 197
64 204

$$$$

     RDKit          2D

  4  3  0  0  0  0  0  0  0  0999 V2000
   -2.5981    2.2500    0.0000 C   0  0  0  0  0  0  0  0  0  0  0  0
    1.2990    1.5000    0.0000 C   0  0  0  0  0  0  0  0  0  0  0  0
   -1.2990    1.5000    0.0000 C   0  0  0  0  0  0  0  0  0  0  0  0
    0.0000    2.2500    0.0000 S   0  0  0  0  0  0  0  0  0  0  0  0
  3  1  1  0
  4  2  1  0
  4  3  1  0
M  END
>  <NAME>  (2277) 
METHYL ETHYL SULFIDE

>  <SYNONYMS>  (2277) 


>  <SPECTRUM TYPE>  (2277) 
MS1

>  <INSTRUMENT TYPE>  (2277) 
EI-B

>  <INSTRUMENT>  (2277) 
HITACHI M-80B

>  <ION MODE>  (2277) 
P

>  <INCHIKEY>  (2277) 
WXEHBUMAEPOYKP-UHFFFAOYSA-N

>  <FORMULA>  (2277) 
C3H8S

>  <EXACT MASS>  (2277) 
76.034671256

>  <MW>  (2277) 
76

>  <ID>  (2277) 
JP008749

>  <CONTRIBUTOR>  (2277) 
University of Tokyo Team, {Faculty of Engineering, University of Tokyo

>  <COMMENT>  (2277) 
SMILES=CCSC
InChI=InChI=1S/C3H8S/c1-3-4-2/h3H2,1-2H3
computed SMILES=S(C)CC
accession=JP008749
date=2016.01.19 (Created 2008.10.21, modified 2011.05.06)
author=SODA AROMATIC CO., LTD.
license=CC BY-NC-SA
exact mass=76.03467
ionization energy=70 eV
ion type=[M]+*
computed spectral entropy=2.477041215783127
computed normalized entropy=0.7602725047819915
SPLASH=splash10-01r2-9000000000-a9039cc3178f977b148a
submitter=submitter = University of Tokyo Team (Faculty of Engineering, University of Tokyo)
MoNA Rating=3.75

>  <NUM PEAKS>  (2277) 
26

>  <MASS SPECTRAL PEAKS>  (2277) 
14 1.23
15 3.35
26 5.65
27 34.62
28 2.01
29 16.25
35 16.5
41 4.68
44 1.27
45 30.47
46 10.68
47 38.51
48 51.57
49 4.93
50 1.91
57 2.31
58 4.68
59 5.44
60 2.59
61 99.99
62 2.62
63 3.78
75 3.06
76 63.59
77 2.35
78 2.34

>  <PREDICTED SPECTRUM>  (2277) 
14 43
15 409
25 66
26 148
27 439
28 221
29 386
30 65
31 125
32 47
33 90
34 2
35 325
37 15
38 24
41 148
44 58
45 505
46 385
47 584
48 366
49 184
50 10
57 136
58 70
59 182
60 177
61 871
62 110
63 234
75 35
76 999
77 253
78 228

$$$$

     RDKit          2D

  7  7  0  0  0  0  0  0  0  0999 V2000
   -1.8372   -1.0620    0.0000 C   0  0  0  0  0  0  0  0  0  0  0  0
   -1.0872    0.2371    0.0000 C   0  0  0  0  0  0  0  0  0  0  0  0
   -0.8287   -2.1754    0.0000 C   0  0  0  0  0  0  0  0  0  0  0  0
    1.4972    0.9228    0.0000 C   0  0  0  0  0  0  0  0  0  0  0  0
    0.3813   -0.0796    0.0000 C   0  0  0  0  0  0  0  0  0  0  0  0
    2.9232    0.4575    0.0000 O   0  0  0  0  0  0  0  0  0  0  0  0
    0.5384   -1.5675    0.0000 S   0  0  0  0  0  0  0  0  0  0  0  0
  2  1  1  0
  3  1  2  0
  5  2  2  0
  5  4  1  0
  6  4  1  0
  7  3  1  0
  7  5  1  0
M  END
>  <NAME>  (2278) 
2-THIOPHENEMETHANOL

>  <SYNONYMS>  (2278) 


>  <SPECTRUM TYPE>  (2278) 
MS1

>  <INSTRUMENT TYPE>  (2278) 
EI-B

>  <INSTRUMENT>  (2278) 
HITACHI M-80B

>  <ION MODE>  (2278) 
P

>  <INCHIKEY>  (2278) 
ZPHGMBGIFODUMF-UHFFFAOYSA-N

>  <FORMULA>  (2278) 
C5H6OS

>  <EXACT MASS>  (2278) 
114.013935812

>  <MW>  (2278) 
114

>  <ID>  (2278) 
JP008748

>  <CONTRIBUTOR>  (2278) 
University of Tokyo Team, {Faculty of Engineering, University of Tokyo

>  <COMMENT>  (2278) 
SMILES=OCc(c1)scc1
InChI=InChI=1S/C5H6OS/c6-4-5-2-1-3-7-5/h1-3,6H,4H2
computed SMILES=OCC=1SC=CC1
exact mass=114.01394
accession=JP008748
date=2016.01.19 (Created 2008.10.21, modified 2011.05.06)
author=SODA AROMATIC CO., LTD.
license=CC BY-NC-SA
ionization energy=70 eV
ion type=[M]+*
computed spectral entropy=3.064182568526841
computed normalized entropy=0.764643823433185
SPLASH=splash10-01p2-9200000000-47c937806f652ce016bb
submitter=submitter = University of Tokyo Team (Faculty of Engineering, University of Tokyo)
MoNA Rating=3.75

>  <NUM PEAKS>  (2278) 
55

>  <MASS SPECTRAL PEAKS>  (2278) 
15 1.12
25 1.15
26 3.69
27 8.68
29 10.98
30 1.14
31 8.37
32 1.54
37 5.84
38 8.76
39 39.93
40 1.71
41 6.4
42 1.07
44 1.44
45 73.27
46 2.26
47 4.29
49 2.59
50 7.97
51 8.89
52 3.8
53 20.87
54 1.33
55 2.8
56 1.2
57 15.76
58 18.12
59 5.61
60 1.68
61 2.07
62 2.29
63 2.55
68 1.48
69 9.19
70 3.64
71 4.08
81 31.77
82 4.2
83 3.26
84 3.45
85 93.43
86 6.28
87 4.6
93 1.22
95 2.34
96 2.62
97 73.12
98 4.35
99 2.71
111 4.63
113 4.45
114 99.99
115 6.84
116 4.34

>  <PREDICTED SPECTRUM>  (2278) 
14 6
15 4
17 19
18 42
25 22
26 63
27 121
28 30
29 108
31 71
32 18
33 18
34 18
37 80
38 110
39 297
40 64
41 153
42 3
43 87
44 63
45 371
46 48
47 169
48 60
49 63
50 166
51 226
52 111
53 267
54 62
55 189
56 17
57 198
58 251
59 214
60 90
61 88
62 17
63 67
64 12
65 156
66 69
67 68
68 110
69 256
70 222
71 236
72 49
73 30
74 44
77 60
78 88
79 51
80 91
81 184
82 101
83 150
84 169
85 415
86 127
87 32
95 135
96 196
97 999
98 207
99 137
111 25
112 109
113 385
114 855
115 262
116 158
117 27

$$$$

     RDKit          2D

  9  8  0  0  0  0  0  0  0  0999 V2000
    1.9486    3.3750    0.0000 C   0  0  0  0  0  0  0  0  0  0  0  0
   -3.2476    6.3750    0.0000 C   0  0  0  0  0  0  0  0  0  0  0  0
    0.6495    4.1250    0.0000 C   0  0  0  0  0  0  0  0  0  0  0  0
   -0.6495    3.3750    0.0000 C   0  0  0  0  0  0  0  0  0  0  0  0
   -3.2476    3.3750    0.0000 C   0  0  0  0  0  0  0  0  0  0  0  0
   -4.5466    4.1250    0.0000 C   0  0  0  0  0  0  0  0  0  0  0  0
   -1.9486    4.1250    0.0000 C   0  0  0  0  0  0  0  0  0  0  0  0
   -5.8457    3.3750    0.0000 O   0  0  0  0  0  0  0  0  0  0  0  0
   -1.9486    5.6250    0.0000 S   0  0  0  0  0  0  0  0  0  0  0  0
  3  1  1  0
  4  3  1  0
  6  5  1  0
  7  4  1  0
  7  5  1  0
  8  6  1  0
  9  2  1  0
  9  7  1  0
M  END
>  <NAME>  (2279) 
3-(METHYLTHIO)HEXANOL

>  <SYNONYMS>  (2279) 


>  <SPECTRUM TYPE>  (2279) 
MS1

>  <INSTRUMENT TYPE>  (2279) 
EI-B

>  <INSTRUMENT>  (2279) 
HITACHI M-80B

>  <ION MODE>  (2279) 
P

>  <INCHIKEY>  (2279) 
JSASXSHMJYRPCM-UHFFFAOYSA-N

>  <FORMULA>  (2279) 
C7H16OS

>  <EXACT MASS>  (2279) 
148.092186132

>  <MW>  (2279) 
148

>  <ID>  (2279) 
JP008747

>  <CONTRIBUTOR>  (2279) 
University of Tokyo Team, {Faculty of Engineering, University of Tokyo

>  <COMMENT>  (2279) 
SMILES=CCCC(SC)CCO
InChI=InChI=1S/C7H16OS/c1-3-4-7(9-2)5-6-8/h7-8H,3-6H2,1-2H3
computed SMILES=OCCC(SC)CCC
accession=JP008747
date=2016.01.19 (Created 2008.10.21, modified 2011.05.06)
author=SODA AROMATIC CO., LTD.
license=CC BY-NC-SA
exact mass=148.09219
ionization energy=70 eV
ion type=[M]+*
computed spectral entropy=3.4942430452065594
computed normalized entropy=0.8281162849685382
SPLASH=splash10-0a7l-9100000000-e71355bc4f59e4a54158
submitter=submitter = University of Tokyo Team (Faculty of Engineering, University of Tokyo)
MoNA Rating=3.75

>  <NUM PEAKS>  (2279) 
68

>  <MASS SPECTRAL PEAKS>  (2279) 
14 1.15
15 3.88
19 1
26 1.66
27 39.47
28 3.96
29 28.86
31 43.2
35 2.52
38 1.56
39 27.34
40 3.82
41 84.63
42 16.98
43 22.36
44 14.58
45 23.67
46 5.11
47 25.37
48 10.2
49 15.59
50 1.58
51 2.49
53 9.03
54 5.64
55 99.99
56 17.33
57 66.15
58 6.94
59 8.63
60 2.33
61 73.14
62 2.75
63 3.39
65 1.83
67 33.43
68 2.47
69 9.66
70 5.33
71 16.17
72 9.05
73 3.82
74 1.62
75 63.94
76 2.54
77 3.84
79 1.27
81 5.17
82 51.77
83 22.14
84 1.77
85 2.19
87 3.08
88 1.08
89 3.53
100 8.08
101 3.06
102 1.4
103 20.35
104 1.28
105 24.93
106 1.52
115 2.78
117 1.34
133 3.63
148 61.69
149 4.51
150 2.72

>  <PREDICTED SPECTRUM>  (2279) 
15 41
18 0
25 15
26 95
27 454
28 156
29 427
30 76
31 218
32 53
33 59
34 72
35 178
36 11
37 23
38 44
39 443
40 150
41 885
42 401
43 551
44 222
45 512
46 178
47 519
48 227
49 179
50 74
51 123
52 35
53 271
54 223
55 999
56 292
57 413
58 152
59 227
60 151
61 710
62 169
63 202
64 20
65 98
66 45
67 438
68 138
69 136
70 220
71 206
72 166
73 231
74 144
75 322
76 87
77 203
78 88
79 63
81 99
82 448
83 462
84 70
85 130
86 48
87 177
89 87
90 27
91 93
92 32
99 1
100 101
101 235
102 88
103 218
104 89
105 441
106 117
115 101
117 31
119 19
133 37
148 734
149 243
150 127
151 0

$$$$

     RDKit          2D

  6  5  0  0  0  0  0  0  0  0999 V2000
   -4.5466    3.3750    0.0000 C   0  0  0  0  0  0  0  0  0  0  0  0
   -0.6495    2.6250    0.0000 C   0  0  0  0  0  0  0  0  0  0  0  0
    0.6495    3.3750    0.0000 C   0  0  0  0  0  0  0  0  0  0  0  0
   -1.9486    3.3750    0.0000 C   0  0  0  0  0  0  0  0  0  0  0  0
    1.9486    2.6250    0.0000 O   0  0  0  0  0  0  0  0  0  0  0  0
   -3.2476    2.6250    0.0000 S   0  0  0  0  0  0  0  0  0  0  0  0
  3  2  1  0
  4  2  1  0
  5  3  1  0
  6  1  1  0
  6  4  1  0
M  END
>  <NAME>  (2280) 
3-(METHYLTHIO)PROPANOL

>  <SYNONYMS>  (2280) 


>  <SPECTRUM TYPE>  (2280) 
MS1

>  <INSTRUMENT TYPE>  (2280) 
EI-B

>  <INSTRUMENT>  (2280) 
HITACHI M-80B

>  <ION MODE>  (2280) 
P

>  <INCHIKEY>  (2280) 
CZUGFKJYCPYHHV-UHFFFAOYSA-N

>  <FORMULA>  (2280) 
C4H10OS

>  <EXACT MASS>  (2280) 
106.04523594

>  <MW>  (2280) 
106

>  <ID>  (2280) 
JP008746

>  <CONTRIBUTOR>  (2280) 
University of Tokyo Team, {Faculty of Engineering, University of Tokyo

>  <COMMENT>  (2280) 
SMILES=OCCCSC
InChI=InChI=1S/C4H10OS/c1-6-4-2-3-5/h5H,2-4H2,1H3
computed SMILES=OCCCSC
accession=JP008746
date=2016.01.19 (Created 2008.10.21, modified 2011.05.06)
author=SODA AROMATIC CO., LTD.
license=CC BY-NC-SA
exact mass=106.04524
ionization energy=70 eV
ion type=[M]+*
computed spectral entropy=3.14132706840799
computed normalized entropy=0.8158978286995431
SPLASH=splash10-0a4j-9100000000-a11a6dbaea6cd0cb9f50
submitter=submitter = University of Tokyo Team (Faculty of Engineering, University of Tokyo)
MoNA Rating=3.75

>  <NUM PEAKS>  (2280) 
47

>  <MASS SPECTRAL PEAKS>  (2280) 
14 1.37
15 6.64
26 4.87
27 37.97
28 11.36
29 26.1
30 11.2
31 78.94
34 1.18
35 16.63
37 1.63
38 1.69
39 14.61
40 4
41 38.53
42 3.06
43 6.47
44 1.87
45 54.24
46 29.13
47 60.91
48 43.6
49 50.43
50 2.2
51 1.85
55 2.2
56 1
57 67.41
58 74.52
59 27.83
60 5.34
61 99.99
62 12.19
63 4.61
71 1.12
72 1.63
73 32.23
74 1.71
75 18.33
76 1.41
77 1.4
87 1.46
88 9.01
89 1.12
106 93.41
107 4.41
108 3.62

>  <PREDICTED SPECTRUM>  (2280) 
14 19
15 187
19 6
25 28
26 133
27 372
28 178
29 337
30 155
31 265
32 71
33 92
34 98
35 310
36 49
37 63
38 72
39 296
40 140
41 605
42 229
43 173
44 212
45 537
46 416
47 577
48 343
49 227
50 52
51 26
53 93
54 114
55 173
56 119
57 207
58 253
59 350
60 352
61 999
62 326
63 218
73 130
74 86
75 371
76 142
77 100
78 2
88 216
89 157
90 107
91 42
106 714
107 190
108 144

$$$$

     RDKit          2D

 14 13  0  0  0  0  0  0  0  0999 V2000
    4.5466    7.1250    0.0000 C   0  0  0  0  0  0  0  0  0  0  0  0
    3.2476    7.8750    0.0000 C   0  0  0  0  0  0  0  0  0  0  0  0
    1.9486    7.1250    0.0000 C   0  0  0  0  0  0  0  0  0  0  0  0
    0.6495    7.8750    0.0000 C   0  0  0  0  0  0  0  0  0  0  0  0
   -0.6495    7.1250    0.0000 C   0  0  0  0  0  0  0  0  0  0  0  0
   -1.9486    7.8750    0.0000 C   0  0  0  0  0  0  0  0  0  0  0  0
   -3.2476    7.1250    0.0000 C   0  0  0  0  0  0  0  0  0  0  0  0
   -4.5466    7.8750    0.0000 C   0  0  0  0  0  0  0  0  0  0  0  0
   -5.8457    7.1250    0.0000 C   0  0  0  0  0  0  0  0  0  0  0  0
   -7.1447    7.8750    0.0000 C   0  0  0  0  0  0  0  0  0  0  0  0
   -8.4437    7.1250    0.0000 C   0  0  0  0  0  0  0  0  0  0  0  0
   -9.7428    7.8750    0.0000 C   0  0  0  0  0  0  0  0  0  0  0  0
  -11.0418    7.1250    0.0000 C   0  0  0  0  0  0  0  0  0  0  0  0
  -12.3409    7.8750    0.0000 S   0  0  0  0  0  0  0  0  0  0  0  0
  2  1  1  0
  3  2  1  0
  4  3  1  0
  5  4  1  0
  6  5  1  0
  7  6  1  0
  8  7  1  0
  9  8  1  0
 10  9  1  0
 11 10  1  0
 12 11  1  0
 13 12  1  0
 14 13  1  0
M  END
>  <NAME>  (2281) 
TRIDECANETHIOL

>  <SYNONYMS>  (2281) 


>  <SPECTRUM TYPE>  (2281) 
MS1

>  <INSTRUMENT TYPE>  (2281) 
EI-B

>  <INSTRUMENT>  (2281) 
HITACHI M-80B

>  <ION MODE>  (2281) 
P

>  <INCHIKEY>  (2281) 
IPBROXKVGHZHJV-UHFFFAOYSA-N

>  <FORMULA>  (2281) 
C13H28S

>  <EXACT MASS>  (2281) 
216.191171896

>  <MW>  (2281) 
216

>  <ID>  (2281) 
JP008745

>  <CONTRIBUTOR>  (2281) 
University of Tokyo Team, {Faculty of Engineering, University of Tokyo

>  <COMMENT>  (2281) 
SMILES=CCCCCCCCCCCCCS
InChI=InChI=1S/C13H28S/c1-2-3-4-5-6-7-8-9-10-11-12-13-14/h14H,2-13H2,1H3
computed SMILES=SCCCCCCCCCCCCC
accession=JP008745
date=2016.01.19 (Created 2008.10.21, modified 2011.05.06)
author=SODA AROMATIC CO., LTD.
license=CC BY-NC-SA
exact mass=216.19117
ionization energy=70 eV
ion type=[M]+*
computed spectral entropy=3.4459389980296447
computed normalized entropy=0.8138526969711679
SPLASH=splash10-0a4l-9000000000-b404a156eb62b7742119
submitter=submitter = University of Tokyo Team (Faculty of Engineering, University of Tokyo)
MoNA Rating=3.75

>  <NUM PEAKS>  (2281) 
69

>  <MASS SPECTRAL PEAKS>  (2281) 
27 24
28 4.08
29 45.98
30 1.14
35 2.44
39 12.7
40 2.8
41 97.82
42 24.41
43 95.56
44 2.68
45 4.38
46 2.04
47 28.47
48 1.25
49 1.14
53 6.07
54 9.51
55 99.99
56 57.76
57 63.35
58 3.04
59 2.14
60 3.8
61 12.03
62 1.1
65 1.02
67 10.99
68 29.5
69 74.73
70 53.5
71 23.71
72 1.37
73 1.51
81 3.82
82 27.51
83 66.04
84 32.5
85 9.45
87 2.65
88 3.37
89 23.3
90 1.33
91 1.04
95 1.27
96 10.27
97 46.44
98 20.81
99 2.61
101 1.08
103 1.96
110 3.33
111 21.56
112 10.7
113 1.55
124 1.61
125 8.65
126 5.58
139 2.07
140 2.79
153 1.67
154 7.05
155 1
182 10.23
183 1.96
215 1.87
216 21.74
217 3.21
218 1.18

>  <PREDICTED SPECTRUM>  (2281) 
25 17
26 65
27 332
28 107
29 424
30 64
31 48
32 49
33 50
34 71
35 118
36 21
37 39
38 61
39 373
40 176
41 999
42 477
43 915
44 170
45 224
46 185
47 437
48 135
49 145
50 58
51 132
52 69
53 290
54 353
55 982
56 726
57 697
58 135
59 73
60 214
61 468
62 183
63 227
64 72
65 154
66 129
67 396
68 435
69 822
70 667
71 400
72 60
73 162
74 14
75 171
76 116
77 148
78 55
79 148
80 37
81 251
82 450
83 748
84 478
85 295
86 50
87 137
88 139
89 209
90 39
91 87
94 17
95 211
96 334
97 673
98 374
99 176
100 45
101 85
103 77
108 51
109 147
110 310
111 515
112 380
113 177
114 37
115 115
116 9
117 48
123 82
124 190
125 345
126 250
127 118
128 32
138 130
139 146
140 185
141 61
153 175
154 247
155 18
159 16
168 15
181 76
182 407
183 228
184 90
187 45
188 12
214 3
215 186
216 585
217 236
218 122
219 12

$$$$

     RDKit          2D

  9  8  0  0  0  0  0  0  0  0999 V2000
   -6.3212    3.8505    0.0000 C   0  0  0  0  0  0  0  0  0  0  0  0
   -0.5760    1.8014    0.0000 C   0  0  0  0  0  0  0  0  0  0  0  0
    1.4731    2.3505    0.0000 C   0  0  0  0  0  0  0  0  0  0  0  0
   -5.0221    3.1005    0.0000 C   0  0  0  0  0  0  0  0  0  0  0  0
   -3.7231    3.8505    0.0000 C   0  0  0  0  0  0  0  0  0  0  0  0
   -2.4240    3.1005    0.0000 C   0  0  0  0  0  0  0  0  0  0  0  0
   -1.1250    3.8505    0.0000 C   0  0  0  0  0  0  0  0  0  0  0  0
    0.1740    3.1005    0.0000 C   0  0  0  0  0  0  0  0  0  0  0  0
    0.9240    4.3995    0.0000 S   0  0  0  0  0  0  0  0  0  0  0  0
  4  1  1  0
  5  4  1  0
  6  5  1  0
  7  6  1  0
  8  2  1  0
  8  3  1  0
  8  7  1  0
  9  8  1  0
M  END
>  <NAME>  (2282) 
2-METHYLHEPTANE-2-THIOL

>  <SYNONYMS>  (2282) 


>  <SPECTRUM TYPE>  (2282) 
MS1

>  <INSTRUMENT TYPE>  (2282) 
EI-B

>  <INSTRUMENT>  (2282) 
HITACHI M-80B

>  <ION MODE>  (2282) 
P

>  <INCHIKEY>  (2282) 
KSTAKRCVPORMCA-UHFFFAOYSA-N

>  <FORMULA>  (2282) 
C8H18S

>  <EXACT MASS>  (2282) 
146.112921576

>  <MW>  (2282) 
146

>  <ID>  (2282) 
JP008744

>  <CONTRIBUTOR>  (2282) 
University of Tokyo Team, {Faculty of Engineering, University of Tokyo

>  <COMMENT>  (2282) 
SMILES=CCCCCC(C)(C)S
InChI=InChI=1S/C8H18S/c1-4-5-6-7-8(2,3)9/h9H,4-7H2,1-3H3
computed SMILES=SC(C)(C)CCCCC
accession=JP008744
date=2016.01.19 (Created 2008.10.21, modified 2011.05.06)
author=SODA AROMATIC CO., LTD.
license=CC BY-NC-SA
exact mass=146.11292
ionization energy=70 eV
ion type=[M]+*
computed spectral entropy=2.439614480984122
computed normalized entropy=0.7321322786565251
SPLASH=splash10-0a4i-9000000000-81fb4d03ffa2bf3fb9c8
submitter=submitter = University of Tokyo Team (Faculty of Engineering, University of Tokyo)
MoNA Rating=3.75

>  <NUM PEAKS>  (2282) 
28

>  <MASS SPECTRAL PEAKS>  (2282) 
15 1.07
27 7.63
28 1.02
29 14.09
39 11.24
40 1.4
41 35.07
42 1.49
43 6.69
45 1.26
47 2.52
53 2.15
55 14.94
56 10.83
57 99.99
58 4.63
59 4.8
69 1.54
71 1.02
74 3.97
75 40.14
76 1.62
77 1.63
88 3.03
89 7.8
97 3.37
113 10.7
146 2.46

>  <PREDICTED SPECTRUM>  (2282) 
14 12
15 76
16 3
17 4
18 16
25 6
26 93
27 428
28 199
29 446
30 45
31 45
32 84
33 47
34 66
35 57
36 38
37 47
38 76
39 441
40 197
41 958
42 496
43 999
44 235
45 246
46 88
47 255
48 123
49 113
50 87
51 128
52 47
53 309
54 213
55 858
56 721
57 775
58 259
59 200
60 215
61 331
62 134
63 133
64 16
65 103
66 30
67 228
68 269
69 852
70 661
71 635
72 324
73 218
74 163
75 430
76 395
77 217
78 82
79 81
80 4
81 182
82 39
83 243
84 256
85 155
86 69
87 65
88 179
89 392
90 162
91 107
95 66
97 195
98 40
99 133
101 36
102 61
103 256
104 20
110 25
111 142
112 320
113 385
114 147
115 62
117 66
118 1
131 104
146 268
147 61
148 1

$$$$

     RDKit          2D

  6  5  0  0  0  0  0  0  0  0999 V2000
    1.2990    2.2500    0.0000 C   0  0  0  0  0  0  0  0  0  0  0  0
   -1.2990    0.7500    0.0000 C   0  0  0  0  0  0  0  0  0  0  0  0
    0.0000    3.0000    0.0000 C   0  0  0  0  0  0  0  0  0  0  0  0
   -2.5981    3.0000    0.0000 C   0  0  0  0  0  0  0  0  0  0  0  0
   -1.2990    2.2500    0.0000 C   0  0  0  0  0  0  0  0  0  0  0  0
   -3.8971    2.2500    0.0000 S   0  0  0  0  0  0  0  0  0  0  0  0
  3  1  1  0
  5  2  1  0
  5  3  1  0
  5  4  1  0
  6  4  1  0
M  END
>  <NAME>  (2283) 
2-METHYLBUTANETHIOL

>  <SYNONYMS>  (2283) 


>  <SPECTRUM TYPE>  (2283) 
MS1

>  <INSTRUMENT TYPE>  (2283) 
EI-B

>  <INSTRUMENT>  (2283) 
HITACHI M-80B

>  <ION MODE>  (2283) 
P

>  <INCHIKEY>  (2283) 
WGQKBCSACFQGQY-UHFFFAOYSA-N

>  <FORMULA>  (2283) 
C5H12S

>  <EXACT MASS>  (2283) 
104.065971384

>  <MW>  (2283) 
104

>  <ID>  (2283) 
JP008743

>  <CONTRIBUTOR>  (2283) 
University of Tokyo Team, {Faculty of Engineering, University of Tokyo

>  <COMMENT>  (2283) 
SMILES=CCC(C)CS
InChI=InChI=1S/C5H12S/c1-3-5(2)4-6/h5-6H,3-4H2,1-2H3
computed SMILES=SCC(C)CC
accession=JP008743
date=2016.01.19 (Created 2008.10.21, modified 2011.05.06)
author=SODA AROMATIC CO., LTD.
license=CC BY-NC-SA
exact mass=104.06597
ionization energy=70 eV
ion type=[M]+*
computed spectral entropy=2.8890068159254603
computed normalized entropy=0.7885787370269963
SPLASH=splash10-0a6u-9000000000-4003a7b64aa50746bc0b
submitter=submitter = University of Tokyo Team (Faculty of Engineering, University of Tokyo)
MoNA Rating=3.75

>  <NUM PEAKS>  (2283) 
39

>  <MASS SPECTRAL PEAKS>  (2283) 
15 3.11
26 2.57
27 32.58
28 3.7
29 60.92
30 1.24
33 1.66
34 1.27
35 1.18
37 1.05
38 2.15
39 33.83
40 3.5
41 99.99
42 26.59
43 18.72
45 16.32
46 5.5
47 36.92
48 5.25
49 3.85
50 1.41
51 2.11
53 3.8
54 1.59
55 48.21
56 27.7
57 51.14
58 2.34
59 2.45
61 2.51
69 1.81
70 55.63
71 4.74
74 1.69
75 10.53
104 32.52
105 1.69
106 1.23

>  <PREDICTED SPECTRUM>  (2283) 
14 10
15 43
26 134
27 541
28 192
29 500
31 22
32 90
33 86
34 217
35 144
37 31
38 84
39 528
40 191
41 999
42 502
43 837
44 146
45 252
46 249
47 577
48 275
49 138
50 62
51 107
52 53
53 277
54 187
55 871
56 754
57 517
58 41
59 177
60 67
61 342
62 34
63 121
69 115
70 699
71 284
72 26
73 75
74 59
75 464
76 111
77 6
89 21
102 113
103 14
104 797
105 223
106 155

$$$$

     RDKit          2D

  5  4  0  0  0  0  0  0  0  0999 V2000
   -3.8971    2.2500    0.0000 C   0  0  0  0  0  0  0  0  0  0  0  0
   -2.5981    1.5000    0.0000 C   0  0  0  0  0  0  0  0  0  0  0  0
   -1.2990    2.2500    0.0000 C   0  0  0  0  0  0  0  0  0  0  0  0
    0.0000    1.5000    0.0000 C   0  0  0  0  0  0  0  0  0  0  0  0
    1.2990    2.2500    0.0000 S   0  0  0  0  0  0  0  0  0  0  0  0
  2  1  1  0
  3  2  1  0
  4  3  1  0
  5  4  1  0
M  END
>  <NAME>  (2284) 
BUTANETHIOL

>  <SYNONYMS>  (2284) 


>  <SPECTRUM TYPE>  (2284) 
MS1

>  <INSTRUMENT TYPE>  (2284) 
EI-B

>  <INSTRUMENT>  (2284) 
HITACHI M-80B

>  <ION MODE>  (2284) 
P

>  <INCHIKEY>  (2284) 
WQAQPCDUOCURKW-UHFFFAOYSA-N

>  <FORMULA>  (2284) 
C4H10S

>  <EXACT MASS>  (2284) 
90.05032132

>  <MW>  (2284) 
90

>  <ID>  (2284) 
JP008742

>  <CONTRIBUTOR>  (2284) 
University of Tokyo Team, {Faculty of Engineering, University of Tokyo

>  <COMMENT>  (2284) 
SMILES=CCCCS
InChI=InChI=1S/C4H10S/c1-2-3-4-5/h5H,2-4H2,1H3
computed SMILES=SCCCC
accession=JP008742
date=2016.01.19 (Created 2008.10.21, modified 2011.05.06)
author=SODA AROMATIC CO., LTD.
license=CC BY-NC-SA
exact mass=90.05032
ionization energy=70 eV
ion type=[M]+*
computed spectral entropy=2.7859413177904413
computed normalized entropy=0.7835917242441094
SPLASH=splash10-054o-9000000000-a6dc170a091918ad8ebd
submitter=submitter = University of Tokyo Team (Faculty of Engineering, University of Tokyo)
MoNA Rating=3.75

>  <NUM PEAKS>  (2284) 
35

>  <MASS SPECTRAL PEAKS>  (2284) 
15 2.3
26 5.68
27 44.66
28 14.98
29 31.36
33 2.14
34 1.77
35 7.26
37 1
38 1.84
39 21.14
40 4.01
41 82.96
42 4.97
43 11.34
45 16.02
46 9.69
47 37.82
48 6.02
49 2.22
50 1.67
51 1.45
53 1.86
54 1.01
55 12.43
56 99.99
57 16.71
58 4.66
59 4.82
60 2.16
61 19.67
62 1.13
90 51.4
91 2.42
92 1.91

>  <PREDICTED SPECTRUM>  (2284) 
14 52
15 140
19 0
25 29
26 218
27 739
28 325
29 749
30 0
31 17
32 83
33 172
34 181
35 228
36 9
37 60
38 115
39 536
40 217
41 999
42 433
43 527
44 89
45 305
46 347
47 587
48 345
49 135
50 56
51 81
52 3
53 146
54 98
55 522
56 835
57 640
58 173
59 0
61 425
62 54
63 58
75 12
90 786
91 206
92 152

$$$$

     RDKit          2D

  3  2  0  0  0  0  0  0  0  0999 V2000
   -1.2990    0.0000    0.0000 C   0  0  0  0  0  0  0  0  0  0  0  0
   -0.0000    0.7500    0.0000 C   0  0  0  0  0  0  0  0  0  0  0  0
    0.0000    2.2500    0.0000 S   0  0  0  0  0  0  0  0  0  0  0  0
  2  1  1  0
  3  2  1  0
M  END
>  <NAME>  (2285) 
ETHANETHIOL

>  <SYNONYMS>  (2285) 


>  <SPECTRUM TYPE>  (2285) 
MS1

>  <INSTRUMENT TYPE>  (2285) 
EI-B

>  <INSTRUMENT>  (2285) 
HITACHI M-80B

>  <ION MODE>  (2285) 
P

>  <INCHIKEY>  (2285) 
DNJIEGIFACGWOD-UHFFFAOYSA-N

>  <FORMULA>  (2285) 
C2H6S

>  <EXACT MASS>  (2285) 
62.019021192

>  <MW>  (2285) 
62

>  <ID>  (2285) 
JP008741

>  <CONTRIBUTOR>  (2285) 
University of Tokyo Team, {Faculty of Engineering, University of Tokyo

>  <COMMENT>  (2285) 
SMILES=CCS
InChI=InChI=1S/C2H6S/c1-2-3/h3H,2H2,1H3
computed SMILES=SCC
accession=JP008741
date=2016.01.19 (Created 2008.10.21, modified 2011.05.06)
author=SODA AROMATIC CO., LTD.
license=CC BY-NC-SA
exact mass=62.01902
ionization energy=70 eV
ion type=[M]+*
computed spectral entropy=2.549979898146798
computed normalized entropy=0.7736972434677076
SPLASH=splash10-004j-9000000000-0ec9d334fa1f93950072
submitter=submitter = University of Tokyo Team (Faculty of Engineering, University of Tokyo)
MoNA Rating=3.75

>  <NUM PEAKS>  (2285) 
27

>  <MASS SPECTRAL PEAKS>  (2285) 
14 1.3
15 2.79
25 2.29
26 25.49
27 90.3
28 42.36
29 99.99
30 1.64
32 5.69
33 11.35
34 22.21
35 13.62
44 1.5
45 29.2
46 16.28
47 86.2
48 1.81
49 2.83
56 1.42
57 9.15
58 13.26
59 9.18
60 1.21
61 14.55
62 98.6
63 4.15
64 3.73

>  <PREDICTED SPECTRUM>  (2285) 
14 49
15 99
25 48
26 163
27 416
28 217
29 428
31 77
32 79
33 503
34 472
35 124
38 41
42 61
43 2
45 394
47 115
48 27
56 105
57 515
58 2
59 124
60 116
61 133
62 999
63 220
64 113

$$$$

     RDKit          2D

 16 16  0  0  0  0  0  0  0  0999 V2000
   12.9912   -1.5019    0.0000 C   0  0  0  0  0  0  0  0  0  0  0  0
   11.6923   -0.7517    0.0000 C   0  0  0  0  0  0  0  0  0  0  0  0
   10.3931   -1.5015    0.0000 C   0  0  0  0  0  0  0  0  0  0  0  0
    9.0942   -0.7512    0.0000 C   0  0  0  0  0  0  0  0  0  0  0  0
    7.7951   -1.5010    0.0000 C   0  0  0  0  0  0  0  0  0  0  0  0
    6.4962   -0.7508    0.0000 C   0  0  0  0  0  0  0  0  0  0  0  0
    5.1970   -1.5006    0.0000 C   0  0  0  0  0  0  0  0  0  0  0  0
    3.8981   -0.7504    0.0000 C   0  0  0  0  0  0  0  0  0  0  0  0
   -0.0000    1.5000    0.0000 C   0  0  0  0  0  0  0  0  0  0  0  0
    2.5989   -1.5002    0.0000 C   0  0  0  0  0  0  0  0  0  0  0  0
    1.3000    0.7500    0.0000 C   0  0  0  0  0  0  0  0  0  0  0  0
   -1.3000    0.7500    0.0000 C   0  0  0  0  0  0  0  0  0  0  0  0
    1.3000   -0.7500    0.0000 C   0  0  0  0  0  0  0  0  0  0  0  0
   -1.3000   -0.7500    0.0000 C   0  0  0  0  0  0  0  0  0  0  0  0
   -2.5989   -1.5002    0.0000 O   0  0  0  0  0  0  0  0  0  0  0  0
   -0.0000   -1.5000    0.0000 O   0  0  0  0  0  0  0  0  0  0  0  0
  2  1  1  0
  3  2  1  0
  4  3  1  0
  5  4  1  0
  6  5  1  0
  7  6  1  0
  8  7  1  0
 10  8  1  0
 11  9  1  0
 12  9  1  0
 13 10  1  0
 13 11  1  0
 14 12  1  0
 15 14  2  0
 16 13  1  0
 16 14  1  0
M  END
>  <NAME>  (2286) 
DELTA-TETRADECALACTONE

>  <SYNONYMS>  (2286) 


>  <SPECTRUM TYPE>  (2286) 
MS1

>  <INSTRUMENT TYPE>  (2286) 
EI-B

>  <INSTRUMENT>  (2286) 
HITACHI M-80B

>  <ION MODE>  (2286) 
P

>  <INCHIKEY>  (2286) 
SKQYTJLYRIFFCO-UHFFFAOYSA-N

>  <FORMULA>  (2286) 
C14H26O2

>  <EXACT MASS>  (2286) 
226.193280072

>  <MW>  (2286) 
226

>  <ID>  (2286) 
JP008740

>  <CONTRIBUTOR>  (2286) 
University of Tokyo Team, {Faculty of Engineering, University of Tokyo

>  <COMMENT>  (2286) 
SMILES=CCCCCCCCCC(C1)OC(=O)CC1
InChI=InChI=1S/C14H26O2/c1-2-3-4-5-6-7-8-10-13-11-9-12-14(15)16-13/h13H,2-12H2,1H3
computed SMILES=O=C1OC(CCC1)CCCCCCCCC
accession=JP008740
date=2016.01.19 (Created 2008.10.21, modified 2011.05.06)
author=SODA AROMATIC CO., LTD.
license=CC BY-NC-SA
exact mass=226.19328
ionization energy=70 eV
ion type=[M]+*
computed spectral entropy=3.309749640217999
computed normalized entropy=0.7988515601810103
SPLASH=splash10-006y-9100000000-b53603437a251aaca7a3
submitter=submitter = University of Tokyo Team (Faculty of Engineering, University of Tokyo)
MoNA Rating=3.75

>  <NUM PEAKS>  (2286) 
63

>  <MASS SPECTRAL PEAKS>  (2286) 
27 14.82
28 2.61
29 23.45
39 9.86
40 2.69
41 51.66
42 31.38
43 45.9
44 2.34
53 3.6
54 4.8
55 43.97
56 13.55
57 12.12
58 2.3
60 2.53
67 5.87
68 7.79
69 20.09
70 33.66
71 40.22
72 1.85
73 3.67
79 1.4
81 5.02
82 4.75
83 11.2
84 8.32
85 2.76
86 2.69
87 1.38
95 3.45
96 5.31
97 8.79
98 5.88
99 99.99
100 5.59
101 2.28
109 1.72
110 3.26
111 2.94
112 3.67
113 1.36
114 10.35
115 2.42
123 1.59
124 2.41
125 1.75
126 1.01
127 1.79
128 1.05
134 1.64
137 1.74
138 1.18
139 1.16
142 1.27
151 1.56
155 1.57
164 4.18
165 1.64
166 1.87
190 1.02
208 3.04

>  <PREDICTED SPECTRUM>  (2286) 
17 7
18 2
26 55
27 264
28 134
29 342
30 24
31 138
32 6
37 1
38 45
39 350
40 190
41 863
42 609
43 987
44 231
45 130
46 34
50 43
51 67
52 58
53 248
54 332
55 940
56 673
57 657
58 203
59 117
60 234
61 89
63 0
65 66
66 71
67 431
68 434
69 732
70 607
71 730
72 283
73 339
74 50
75 30
77 90
78 56
79 149
80 117
81 375
82 382
83 582
84 647
85 622
86 186
87 26
89 1
91 133
92 4
93 118
94 117
95 394
96 384
97 457
98 360
99 999
100 190
101 209
102 70
103 35
105 28
106 78
107 143
108 130
109 275
110 211
111 218
112 181
113 386
114 304
115 244
116 31
117 3
119 80
120 114
121 97
122 101
123 199
124 259
125 228
126 158
127 271
128 132
129 131
133 55
134 25
135 91
136 66
137 249
138 166
139 72
140 27
141 154
142 83
144 36
148 33
149 65
150 46
151 254
152 127
153 124
154 93
155 148
156 85
157 55
162 37
164 306
165 156
166 260
167 130
168 52
169 41
170 57
171 25
179 122
180 104
181 30
182 21
183 9
190 85
191 50
193 1
197 58
198 16
208 387
209 183
210 32
226 108
227 37

$$$$

     RDKit          2D

 15 15  0  0  0  0  0  0  0  0999 V2000
   11.6923   -0.7517    0.0000 C   0  0  0  0  0  0  0  0  0  0  0  0
   10.3931   -1.5015    0.0000 C   0  0  0  0  0  0  0  0  0  0  0  0
    9.0942   -0.7512    0.0000 C   0  0  0  0  0  0  0  0  0  0  0  0
    7.7951   -1.5010    0.0000 C   0  0  0  0  0  0  0  0  0  0  0  0
    6.4962   -0.7508    0.0000 C   0  0  0  0  0  0  0  0  0  0  0  0
    5.1970   -1.5006    0.0000 C   0  0  0  0  0  0  0  0  0  0  0  0
    3.8981   -0.7504    0.0000 C   0  0  0  0  0  0  0  0  0  0  0  0
    0.0000    1.5000    0.0000 C   0  0  0  0  0  0  0  0  0  0  0  0
    2.5989   -1.5002    0.0000 C   0  0  0  0  0  0  0  0  0  0  0  0
    1.3000    0.7500    0.0000 C   0  0  0  0  0  0  0  0  0  0  0  0
   -1.3000    0.7500    0.0000 C   0  0  0  0  0  0  0  0  0  0  0  0
    1.3000   -0.7500    0.0000 C   0  0  0  0  0  0  0  0  0  0  0  0
   -1.3000   -0.7500    0.0000 C   0  0  0  0  0  0  0  0  0  0  0  0
   -2.5989   -1.5002    0.0000 O   0  0  0  0  0  0  0  0  0  0  0  0
   -0.0000   -1.5000    0.0000 O   0  0  0  0  0  0  0  0  0  0  0  0
  2  1  1  0
  3  2  1  0
  4  3  1  0
  5  4  1  0
  6  5  1  0
  7  6  1  0
  9  7  1  0
 10  8  1  0
 11  8  1  0
 12  9  1  0
 12 10  1  0
 13 11  1  0
 14 13  2  0
 15 12  1  0
 15 13  1  0
M  END
>  <NAME>  (2287) 
DELTA-TRIDECALACTONE

>  <SYNONYMS>  (2287) 


>  <SPECTRUM TYPE>  (2287) 
MS1

>  <INSTRUMENT TYPE>  (2287) 
EI-B

>  <INSTRUMENT>  (2287) 
HITACHI M-80B

>  <ION MODE>  (2287) 
P

>  <INCHIKEY>  (2287) 
RZZLMGATMUAJPX-UHFFFAOYSA-N

>  <FORMULA>  (2287) 
C13H24O2

>  <EXACT MASS>  (2287) 
212.177630008

>  <MW>  (2287) 
212

>  <ID>  (2287) 
JP008739

>  <CONTRIBUTOR>  (2287) 
University of Tokyo Team, {Faculty of Engineering, University of Tokyo

>  <COMMENT>  (2287) 
SMILES=CCCCCCCCC(C1)OC(=O)CC1
InChI=InChI=1S/C13H24O2/c1-2-3-4-5-6-7-9-12-10-8-11-13(14)15-12/h12H,2-11H2,1H3
computed SMILES=O=C1OC(CCC1)CCCCCCCC
accession=JP008739
date=2016.01.19 (Created 2008.10.21, modified 2011.05.06)
author=SODA AROMATIC CO., LTD.
license=CC BY-NC-SA
exact mass=212.17763
ionization energy=70 eV
ion type=[M]+*
computed spectral entropy=3.1818890696786255
computed normalized entropy=0.7940165997188077
SPLASH=splash10-006y-9000000000-c87bb6f0150dea0c3ff2
submitter=submitter = University of Tokyo Team (Faculty of Engineering, University of Tokyo)
MoNA Rating=3.75

>  <NUM PEAKS>  (2287) 
55

>  <MASS SPECTRAL PEAKS>  (2287) 
27 18.7
28 2.41
29 22.95
39 12.63
40 2.3
41 49.85
42 33.02
43 38.65
44 2.03
53 3.04
54 4.98
55 38.85
56 16.54
57 13.82
58 2.04
60 1.9
67 5.08
68 6.59
69 18.77
70 31.88
71 37.03
72 1.46
73 2.67
81 3.62
82 3.48
83 7.01
84 5.97
85 1.41
86 2.28
87 1.13
95 2.27
96 4.63
97 6.06
98 6.28
99 99.99
100 5.06
109 1.29
110 3.13
111 2.63
112 1.42
114 12.65
115 2.2
123 1.5
124 1.35
125 1.28
127 1.1
134 1.02
137 1.2
141 2.05
142 1.3
150 3.91
151 1.39
152 2.16
176 1.3
194 2.01

>  <PREDICTED SPECTRUM>  (2287) 
17 1
26 56
27 275
28 148
29 338
30 44
31 140
32 6
37 10
38 54
39 367
40 206
41 859
42 615
43 999
44 227
45 150
46 17
50 38
51 56
52 44
53 248
54 321
55 926
56 664
57 636
58 225
59 147
60 250
61 97
63 9
65 87
66 80
67 430
68 419
69 711
70 581
71 713
72 263
73 292
74 16
75 12
77 65
78 11
79 72
80 89
81 369
82 352
83 557
84 658
85 606
86 211
87 120
88 35
91 98
92 48
93 181
94 143
95 380
96 332
97 410
98 338
99 992
100 205
101 221
105 59
106 89
107 75
108 99
109 282
110 255
111 266
112 163
113 317
114 288
115 228
116 25
117 12
119 88
120 37
121 124
122 80
123 201
124 181
125 107
126 68
127 239
128 92
129 24
134 11
135 58
136 74
137 277
138 128
139 144
140 73
141 131
142 106
143 64
147 12
148 52
149 27
150 290
151 187
152 263
153 144
154 74
155 121
156 81
157 32
165 105
166 103
167 32
168 25
169 11
176 64
177 39
179 4
183 52
184 18
194 305
195 161
196 33
212 89
213 32

$$$$

     RDKit          2D

 14 14  0  0  0  0  0  0  0  0999 V2000
   10.3931   -1.5015    0.0000 C   0  0  0  0  0  0  0  0  0  0  0  0
    9.0942   -0.7512    0.0000 C   0  0  0  0  0  0  0  0  0  0  0  0
    7.7951   -1.5010    0.0000 C   0  0  0  0  0  0  0  0  0  0  0  0
    6.4962   -0.7508    0.0000 C   0  0  0  0  0  0  0  0  0  0  0  0
    5.1970   -1.5006    0.0000 C   0  0  0  0  0  0  0  0  0  0  0  0
    3.8981   -0.7504    0.0000 C   0  0  0  0  0  0  0  0  0  0  0  0
   -0.0000    1.5000    0.0000 C   0  0  0  0  0  0  0  0  0  0  0  0
    2.5989   -1.5002    0.0000 C   0  0  0  0  0  0  0  0  0  0  0  0
    1.3000    0.7500    0.0000 C   0  0  0  0  0  0  0  0  0  0  0  0
   -1.3000    0.7500    0.0000 C   0  0  0  0  0  0  0  0  0  0  0  0
    1.3000   -0.7500    0.0000 C   0  0  0  0  0  0  0  0  0  0  0  0
   -1.3000   -0.7500    0.0000 C   0  0  0  0  0  0  0  0  0  0  0  0
   -2.5989   -1.5002    0.0000 O   0  0  0  0  0  0  0  0  0  0  0  0
   -0.0000   -1.5000    0.0000 O   0  0  0  0  0  0  0  0  0  0  0  0
  2  1  1  0
  3  2  1  0
  4  3  1  0
  5  4  1  0
  6  5  1  0
  8  6  1  0
  9  7  1  0
 10  7  1  0
 11  8  1  0
 11  9  1  0
 12 10  1  0
 13 12  2  0
 14 11  1  0
 14 12  1  0
M  END
>  <NAME>  (2288) 
DELTA-DODECALACTONE

>  <SYNONYMS>  (2288) 


>  <SPECTRUM TYPE>  (2288) 
MS1

>  <INSTRUMENT TYPE>  (2288) 
EI-B

>  <INSTRUMENT>  (2288) 
HITACHI M-80B

>  <ION MODE>  (2288) 
P

>  <INCHIKEY>  (2288) 
QRPLZGZHJABGRS-UHFFFAOYSA-N

>  <FORMULA>  (2288) 
C12H22O2

>  <EXACT MASS>  (2288) 
198.161979944

>  <MW>  (2288) 
198

>  <ID>  (2288) 
JP008738

>  <CONTRIBUTOR>  (2288) 
University of Tokyo Team, {Faculty of Engineering, University of Tokyo

>  <COMMENT>  (2288) 
SMILES=CCCCCCCC(C1)OC(=O)CC1
InChI=InChI=1S/C12H22O2/c1-2-3-4-5-6-8-11-9-7-10-12(13)14-11/h11H,2-10H2,1H3
computed SMILES=O=C1OC(CCC1)CCCCCCC
accession=JP008738
date=2016.01.19 (Created 2008.10.21, modified 2011.05.06)
author=SODA AROMATIC CO., LTD.
license=CC BY-NC-SA
exact mass=198.16198
ionization energy=70 eV
ion type=[M]+*
computed spectral entropy=3.152152053026595
computed normalized entropy=0.7939345825598105
SPLASH=splash10-006y-9000000000-6dde1f4e9eb6e77e2909
submitter=submitter = University of Tokyo Team (Faculty of Engineering, University of Tokyo)
MoNA Rating=3.75

>  <NUM PEAKS>  (2288) 
53

>  <MASS SPECTRAL PEAKS>  (2288) 
26 1.04
27 22.19
28 2.55
29 23.44
39 13.5
40 2.86
41 44.86
42 31.68
43 35.78
44 2.18
53 3.04
54 4.47
55 36.32
56 15.75
57 8.55
58 1.81
60 2.18
67 4.55
68 5.69
69 13.9
70 30.28
71 38.74
72 2
73 2.64
79 1.09
81 3.55
82 2.62
83 5.5
84 7.12
85 1.48
86 2.55
87 1.01
95 2.13
96 4.78
97 5.31
98 4.1
99 99.99
100 5.77
101 1.3
109 1.13
110 2.25
111 2.1
114 10.67
115 2.3
123 1.24
124 1.08
127 2.86
136 3.11
137 1.45
138 2.41
142 1.36
162 2.1
180 2.07

>  <PREDICTED SPECTRUM>  (2288) 
26 63
27 279
28 150
29 322
30 28
31 143
32 5
36 0
37 6
38 55
39 382
40 209
41 849
42 618
43 999
44 264
45 180
46 16
47 11
50 39
51 72
52 50
53 262
54 309
55 880
56 656
57 588
58 174
59 84
60 261
61 99
65 59
66 69
67 425
68 404
69 677
70 533
71 673
72 271
73 313
74 65
75 8
76 2
77 48
78 53
79 156
80 119
81 341
82 276
83 502
84 680
85 666
86 256
87 162
91 108
92 42
93 93
94 125
95 376
96 321
97 407
98 248
99 894
100 204
101 226
102 0
105 70
106 15
107 115
108 84
109 261
110 181
111 152
112 84
113 278
114 237
115 125
116 46
117 16
120 29
121 86
122 85
123 232
124 137
125 171
126 115
127 187
128 102
129 95
134 21
135 2
136 266
137 195
138 263
139 158
140 60
141 83
142 98
143 23
147 30
151 114
152 100
153 34
154 24
155 87
162 41
163 34
165 13
169 46
170 22
180 303
181 124
182 33
198 105
199 29

$$$$

     RDKit          2D

 13 13  0  0  0  0  0  0  0  0999 V2000
    9.0942   -0.7512    0.0000 C   0  0  0  0  0  0  0  0  0  0  0  0
    7.7951   -1.5010    0.0000 C   0  0  0  0  0  0  0  0  0  0  0  0
    6.4962   -0.7508    0.0000 C   0  0  0  0  0  0  0  0  0  0  0  0
    5.1970   -1.5006    0.0000 C   0  0  0  0  0  0  0  0  0  0  0  0
    3.8981   -0.7504    0.0000 C   0  0  0  0  0  0  0  0  0  0  0  0
   -0.0000    1.5000    0.0000 C   0  0  0  0  0  0  0  0  0  0  0  0
    2.5989   -1.5002    0.0000 C   0  0  0  0  0  0  0  0  0  0  0  0
    1.3000    0.7500    0.0000 C   0  0  0  0  0  0  0  0  0  0  0  0
   -1.3000    0.7500    0.0000 C   0  0  0  0  0  0  0  0  0  0  0  0
    1.3000   -0.7500    0.0000 C   0  0  0  0  0  0  0  0  0  0  0  0
   -1.3000   -0.7500    0.0000 C   0  0  0  0  0  0  0  0  0  0  0  0
   -2.5989   -1.5002    0.0000 O   0  0  0  0  0  0  0  0  0  0  0  0
   -0.0000   -1.5000    0.0000 O   0  0  0  0  0  0  0  0  0  0  0  0
  2  1  1  0
  3  2  1  0
  4  3  1  0
  5  4  1  0
  7  5  1  0
  8  6  1  0
  9  6  1  0
 10  7  1  0
 10  8  1  0
 11  9  1  0
 12 11  2  0
 13 10  1  0
 13 11  1  0
M  END
>  <NAME>  (2289) 
DELTA-UNDECALACTONE

>  <SYNONYMS>  (2289) 


>  <SPECTRUM TYPE>  (2289) 
MS1

>  <INSTRUMENT TYPE>  (2289) 
EI-B

>  <INSTRUMENT>  (2289) 
HITACHI M-80B

>  <ION MODE>  (2289) 
P

>  <INCHIKEY>  (2289) 
YZRXRLLRSPQHDK-UHFFFAOYSA-N

>  <FORMULA>  (2289) 
C11H20O2

>  <EXACT MASS>  (2289) 
184.14632988

>  <MW>  (2289) 
184

>  <ID>  (2289) 
JP008737

>  <CONTRIBUTOR>  (2289) 
University of Tokyo Team, {Faculty of Engineering, University of Tokyo

>  <COMMENT>  (2289) 
SMILES=CCCCCCC(C1)OC(=O)CC1
InChI=InChI=1S/C11H20O2/c1-2-3-4-5-7-10-8-6-9-11(12)13-10/h10H,2-9H2,1H3
computed SMILES=O=C1OC(CCC1)CCCCCC
accession=JP008737
date=2016.01.19 (Created 2008.10.21, modified 2011.05.06)
author=SODA AROMATIC CO., LTD.
license=CC BY-NC-SA
exact mass=184.14633
ionization energy=70 eV
ion type=[M]+*
computed spectral entropy=3.091748823662474
computed normalized entropy=0.7787207819931716
SPLASH=splash10-006y-9000000000-1835014547e93eed9e19
submitter=submitter = University of Tokyo Team (Faculty of Engineering, University of Tokyo)
MoNA Rating=3.75

>  <NUM PEAKS>  (2289) 
53

>  <MASS SPECTRAL PEAKS>  (2289) 
26 1.41
27 21.68
28 1.85
29 20.01
31 1.19
39 11.65
40 2.98
41 46.5
42 34.26
43 38.16
44 3.55
51 1.13
53 3.47
54 4.19
55 34.06
56 8.63
57 4.11
58 1.09
60 2.13
67 3.05
68 6.01
69 9.66
70 34.12
71 41.9
72 2.2
73 1.92
81 2.15
82 3.26
83 5.47
84 4.97
85 2.07
86 2.95
87 1.13
95 2.03
96 4.1
97 4.43
98 2.86
99 99.99
100 5.72
101 1.39
110 1.3
112 1.51
113 3.06
114 10.94
115 2.11
122 3.07
123 1.5
124 2.26
125 1.14
141 1.06
142 1.38
148 2.54
166 2.37

>  <PREDICTED SPECTRUM>  (2289) 
26 74
27 305
28 159
29 329
30 30
31 140
37 15
38 67
39 404
40 208
41 836
42 610
43 999
44 260
45 155
46 11
47 15
50 40
51 78
52 46
53 283
54 307
55 849
56 641
57 506
58 169
59 99
60 264
61 87
65 79
66 84
67 418
68 366
69 627
70 495
71 691
72 285
73 320
77 63
78 46
79 50
80 98
81 345
82 274
83 452
84 716
85 753
86 283
87 149
91 99
93 151
94 108
95 372
96 249
97 308
98 126
99 765
100 208
101 148
102 32
105 7
106 18
107 77
108 78
109 276
110 133
111 206
112 158
113 225
114 221
115 163
116 11
119 23
120 28
121 23
122 236
123 187
124 249
125 160
126 51
127 122
128 86
129 44
133 35
137 117
138 102
139 44
140 16
141 77
142 12
148 24
149 1
151 16
155 71
156 40
166 296
167 78
168 34
184 121
185 32

$$$$

     RDKit          2D

 12 12  0  0  0  0  0  0  0  0999 V2000
    7.7951   -1.5010    0.0000 C   0  0  0  0  0  0  0  0  0  0  0  0
    6.4962   -0.7508    0.0000 C   0  0  0  0  0  0  0  0  0  0  0  0
    5.1970   -1.5006    0.0000 C   0  0  0  0  0  0  0  0  0  0  0  0
    3.8981   -0.7504    0.0000 C   0  0  0  0  0  0  0  0  0  0  0  0
   -0.0000    1.5000    0.0000 C   0  0  0  0  0  0  0  0  0  0  0  0
    2.5989   -1.5002    0.0000 C   0  0  0  0  0  0  0  0  0  0  0  0
    1.3000    0.7500    0.0000 C   0  0  0  0  0  0  0  0  0  0  0  0
   -1.3000    0.7500    0.0000 C   0  0  0  0  0  0  0  0  0  0  0  0
    1.3000   -0.7500    0.0000 C   0  0  0  0  0  0  0  0  0  0  0  0
   -1.3000   -0.7500    0.0000 C   0  0  0  0  0  0  0  0  0  0  0  0
   -2.5989   -1.5002    0.0000 O   0  0  0  0  0  0  0  0  0  0  0  0
   -0.0000   -1.5000    0.0000 O   0  0  0  0  0  0  0  0  0  0  0  0
  2  1  1  0
  3  2  1  0
  4  3  1  0
  6  4  1  0
  7  5  1  0
  8  5  1  0
  9  6  1  0
  9  7  1  0
 10  8  1  0
 11 10  2  0
 12  9  1  0
 12 10  1  0
M  END
>  <NAME>  (2290) 
DELTA-DECALACTONE

>  <SYNONYMS>  (2290) 


>  <SPECTRUM TYPE>  (2290) 
MS1

>  <INSTRUMENT TYPE>  (2290) 
EI-B

>  <INSTRUMENT>  (2290) 
HITACHI M-80B

>  <ION MODE>  (2290) 
P

>  <INCHIKEY>  (2290) 
GHBSPIPJMLAMEP-UHFFFAOYSA-N

>  <FORMULA>  (2290) 
C10H18O2

>  <EXACT MASS>  (2290) 
170.130679816

>  <MW>  (2290) 
170

>  <ID>  (2290) 
JP008736

>  <CONTRIBUTOR>  (2290) 
University of Tokyo Team, {Faculty of Engineering, University of Tokyo

>  <COMMENT>  (2290) 
SMILES=CCCCCC(C1)OC(=O)CC1
InChI=InChI=1S/C10H18O2/c1-2-3-4-6-9-7-5-8-10(11)12-9/h9H,2-8H2,1H3
computed SMILES=O=C1OC(CCC1)CCCCC
accession=JP008736
date=2016.01.19 (Created 2008.10.21, modified 2011.05.06)
author=SODA AROMATIC CO., LTD.
license=CC BY-NC-SA
exact mass=170.13068
ionization energy=70 eV
ion type=[M]+*
computed spectral entropy=2.8850570304629906
computed normalized entropy=0.7768953930718783
SPLASH=splash10-006y-9000000000-ac2a38db48be894bcefb
submitter=submitter = University of Tokyo Team (Faculty of Engineering, University of Tokyo)
MoNA Rating=3.75

>  <NUM PEAKS>  (2290) 
41

>  <MASS SPECTRAL PEAKS>  (2290) 
15 1.29
26 1.29
27 23.44
28 3.99
29 19.03
39 15.81
40 3.05
41 36.84
42 37.32
43 31.15
44 2.69
53 2.92
54 2.77
55 33.78
56 15.08
57 3.92
58 1.03
60 1.67
67 1.9
68 5.4
69 8.68
70 29.78
71 41.07
72 2.3
73 1.22
81 1.58
82 1.55
83 2.82
84 3.37
86 2.41
96 2.45
97 2.64
98 2.12
99 99.99
108 1.97
110 1.92
111 1.11
114 11.05
115 1.19
134 1.85
152 2.98

>  <PREDICTED SPECTRUM>  (2290) 
26 97
27 358
28 173
29 346
30 19
31 111
37 17
38 83
39 449
40 226
41 858
42 629
43 999
44 296
45 206
46 23
47 12
50 77
51 125
52 70
53 303
54 305
55 855
56 598
57 501
58 222
59 89
60 232
61 50
63 8
65 53
66 88
67 426
68 367
69 527
70 383
71 725
72 271
73 336
77 69
78 22
79 167
80 104
81 352
82 257
83 397
84 707
85 854
86 358
87 110
91 91
93 136
94 87
95 366
96 196
97 294
98 240
99 643
100 201
101 171
105 48
107 9
108 189
109 200
110 232
111 157
112 34
113 148
114 260
115 142
119 47
121 18
123 73
124 119
125 44
126 64
127 124
128 19
137 10
141 78
142 92
152 262
153 34
154 23
170 175
171 59

$$$$

     RDKit          2D

 11 11  0  0  0  0  0  0  0  0999 V2000
    6.4962   -0.7508    0.0000 C   0  0  0  0  0  0  0  0  0  0  0  0
    5.1970   -1.5006    0.0000 C   0  0  0  0  0  0  0  0  0  0  0  0
    3.8981   -0.7504    0.0000 C   0  0  0  0  0  0  0  0  0  0  0  0
   -0.0000    1.5000    0.0000 C   0  0  0  0  0  0  0  0  0  0  0  0
    2.5989   -1.5002    0.0000 C   0  0  0  0  0  0  0  0  0  0  0  0
    1.3000    0.7500    0.0000 C   0  0  0  0  0  0  0  0  0  0  0  0
   -1.3000    0.7500    0.0000 C   0  0  0  0  0  0  0  0  0  0  0  0
    1.3000   -0.7500    0.0000 C   0  0  0  0  0  0  0  0  0  0  0  0
   -1.3000   -0.7500    0.0000 C   0  0  0  0  0  0  0  0  0  0  0  0
   -2.5989   -1.5002    0.0000 O   0  0  0  0  0  0  0  0  0  0  0  0
   -0.0000   -1.5000    0.0000 O   0  0  0  0  0  0  0  0  0  0  0  0
  2  1  1  0
  3  2  1  0
  5  3  1  0
  6  4  1  0
  7  4  1  0
  8  5  1  0
  8  6  1  0
  9  7  1  0
 10  9  2  0
 11  8  1  0
 11  9  1  0
M  END
>  <NAME>  (2291) 
DELTA-NONALACTONE

>  <SYNONYMS>  (2291) 


>  <SPECTRUM TYPE>  (2291) 
MS1

>  <INSTRUMENT TYPE>  (2291) 
EI-B

>  <INSTRUMENT>  (2291) 
HITACHI M-80B

>  <ION MODE>  (2291) 
P

>  <INCHIKEY>  (2291) 
PXRBWNLUQYZAAX-UHFFFAOYSA-N

>  <FORMULA>  (2291) 
C9H16O2

>  <EXACT MASS>  (2291) 
156.115029752

>  <MW>  (2291) 
156

>  <ID>  (2291) 
JP008735

>  <CONTRIBUTOR>  (2291) 
University of Tokyo Team, {Faculty of Engineering, University of Tokyo

>  <COMMENT>  (2291) 
SMILES=CCCCC(C1)OC(=O)CC1
InChI=InChI=1S/C9H16O2/c1-2-3-5-8-6-4-7-9(10)11-8/h8H,2-7H2,1H3
computed SMILES=O=C1OC(CCC1)CCCC
accession=JP008735
date=2016.01.19 (Created 2008.10.21, modified 2011.05.06)
author=SODA AROMATIC CO., LTD.
license=CC BY-NC-SA
exact mass=156.11503
ionization energy=70 eV
ion type=[M]+*
computed spectral entropy=2.938849567030433
computed normalized entropy=0.7813595332958005
SPLASH=splash10-006y-9000000000-726e12b176464d011270
submitter=submitter = University of Tokyo Team (Faculty of Engineering, University of Tokyo)
MoNA Rating=3.75

>  <NUM PEAKS>  (2291) 
43

>  <MASS SPECTRAL PEAKS>  (2291) 
15 2.31
17 1.15
26 2.36
27 24.55
28 1.17
29 21.37
39 14.95
40 3.29
41 38.72
42 41.72
43 28.78
44 3.58
53 2.99
54 4.04
55 30.82
56 14.49
57 7.05
58 1.63
60 2.08
67 2.17
68 3.96
69 8.6
70 29.46
71 48.03
72 2.85
81 1.42
83 2.69
84 3.95
85 3.44
86 3.14
95 1.13
96 3.05
97 1.54
99 99.99
100 5.74
101 1.15
113 1.23
114 10.72
115 1.24
127 1.15
128 1.07
138 4.61
156 1.85

>  <PREDICTED SPECTRUM>  (2291) 
26 59
27 219
28 83
29 220
31 116
37 20
38 60
39 350
40 170
41 726
42 486
43 731
44 288
45 209
46 0
50 48
51 77
52 47
53 237
54 246
55 784
56 609
57 453
58 135
59 69
60 189
61 79
65 72
66 31
67 333
68 273
69 557
70 208
71 308
72 197
73 214
79 61
80 51
81 336
82 234
83 256
84 575
85 999
86 223
87 55
94 91
95 240
96 235
97 237
98 88
99 324
100 130
101 99
105 26
107 10
109 109
110 138
111 45
112 105
113 100
114 39
123 6
127 124
128 99
138 162
139 64
140 51
156 95
157 24

$$$$

     RDKit          2D

 10 10  0  0  0  0  0  0  0  0999 V2000
   -2.5989    1.5000    0.0000 C   0  0  0  0  0  0  0  0  0  0  0  0
   -1.3000    0.7498    0.0000 C   0  0  0  0  0  0  0  0  0  0  0  0
    2.5981   -1.5006    0.0000 C   0  0  0  0  0  0  0  0  0  0  0  0
   -0.0008    1.4996    0.0000 C   0  0  0  0  0  0  0  0  0  0  0  0
    1.2981   -0.7506    0.0000 C   0  0  0  0  0  0  0  0  0  0  0  0
    3.8981   -0.7506    0.0000 C   0  0  0  0  0  0  0  0  0  0  0  0
    1.2981    0.7494    0.0000 C   0  0  0  0  0  0  0  0  0  0  0  0
    3.8981    0.7494    0.0000 C   0  0  0  0  0  0  0  0  0  0  0  0
    5.1970    1.4996    0.0000 O   0  0  0  0  0  0  0  0  0  0  0  0
    2.5981    1.4994    0.0000 O   0  0  0  0  0  0  0  0  0  0  0  0
  2  1  1  0
  4  2  1  0
  5  3  1  0
  6  3  1  0
  7  4  1  0
  7  5  1  0
  8  6  1  0
  9  8  2  0
 10  7  1  0
 10  8  1  0
M  END
>  <NAME>  (2292) 
DELTA-OCTALACTONE

>  <SYNONYMS>  (2292) 


>  <SPECTRUM TYPE>  (2292) 
MS1

>  <INSTRUMENT TYPE>  (2292) 
EI-B

>  <INSTRUMENT>  (2292) 
HITACHI M-80B

>  <ION MODE>  (2292) 
P

>  <INCHIKEY>  (2292) 
FYTRVXSHONWYNE-UHFFFAOYSA-N

>  <FORMULA>  (2292) 
C8H14O2

>  <EXACT MASS>  (2292) 
142.099379688

>  <MW>  (2292) 
142

>  <ID>  (2292) 
JP008734

>  <CONTRIBUTOR>  (2292) 
University of Tokyo Team, {Faculty of Engineering, University of Tokyo

>  <COMMENT>  (2292) 
SMILES=CCCC(C1)OC(=O)CC1
InChI=InChI=1S/C8H14O2/c1-2-4-7-5-3-6-8(9)10-7/h7H,2-6H2,1H3
computed SMILES=O=C1OC(CCC)CCC1
accession=JP008734
date=2016.01.19 (Created 2008.10.21, modified 2011.05.06)
author=SODA AROMATIC CO., LTD.
license=CC BY-NC-SA
exact mass=142.09938
ionization energy=70 eV
ion type=[M]+*
computed spectral entropy=2.7001649057591774
computed normalized entropy=0.7722462652495148
SPLASH=splash10-006y-9000000000-b4b0181c1887ad4c1088
submitter=submitter = University of Tokyo Team (Faculty of Engineering, University of Tokyo)
MoNA Rating=3.75

>  <NUM PEAKS>  (2292) 
33

>  <MASS SPECTRAL PEAKS>  (2292) 
15 2.76
26 2.82
27 29.52
28 3.32
29 14.32
31 1.58
38 1.72
39 21.87
40 4.41
41 39.55
42 55.89
43 34.58
44 3.73
51 1.52
53 2.91
54 2.77
55 38.29
56 7.63
57 2.23
67 2.26
68 2.24
69 5.16
70 40.58
71 56.37
72 3.12
73 1.2
83 1.28
86 1.57
99 99.99
100 4.96
114 7.27
124 2.73
142 1.69

>  <PREDICTED SPECTRUM>  (2292) 
14 22
15 31
25 13
26 124
27 338
28 161
29 265
30 55
31 113
36 29
37 62
38 126
39 503
40 246
41 848
42 677
43 999
44 385
45 189
49 21
50 94
51 141
52 74
53 272
54 274
55 690
56 469
57 360
58 132
59 137
60 224
61 68
63 22
65 81
66 35
67 335
68 215
69 327
70 461
71 656
72 391
73 288
77 37
79 107
80 53
81 147
82 228
83 251
84 189
85 305
86 153
87 108
88 11
91 8
93 6
95 28
96 116
97 117
98 106
99 220
100 117
101 109
113 201
114 219
115 92
124 74
142 169
143 39

$$$$

     RDKit          2D

  8  8  0  0  0  0  0  0  0  0999 V2000
   -2.5989    1.5000    0.0000 C   0  0  0  0  0  0  0  0  0  0  0  0
   -0.0000   -1.5002    0.0000 C   0  0  0  0  0  0  0  0  0  0  0  0
   -1.3000   -0.7502    0.0000 C   0  0  0  0  0  0  0  0  0  0  0  0
    1.3000   -0.7502    0.0000 C   0  0  0  0  0  0  0  0  0  0  0  0
   -1.3000    0.7498    0.0000 C   0  0  0  0  0  0  0  0  0  0  0  0
    1.3000    0.7498    0.0000 C   0  0  0  0  0  0  0  0  0  0  0  0
    2.5989    1.5000    0.0000 O   0  0  0  0  0  0  0  0  0  0  0  0
   -0.0000    1.4998    0.0000 O   0  0  0  0  0  0  0  0  0  0  0  0
  3  2  1  0
  4  2  1  0
  5  1  1  0
  5  3  1  0
  6  4  1  0
  7  6  2  0
  8  5  1  0
  8  6  1  0
M  END
>  <NAME>  (2293) 
DELTA-HEXALACTONE

>  <SYNONYMS>  (2293) 


>  <SPECTRUM TYPE>  (2293) 
MS1

>  <INSTRUMENT TYPE>  (2293) 
EI-B

>  <INSTRUMENT>  (2293) 
HITACHI M-80B

>  <ION MODE>  (2293) 
P

>  <INCHIKEY>  (2293) 
RZTOWFMDBDPERY-UHFFFAOYSA-N

>  <FORMULA>  (2293) 
C6H10O2

>  <EXACT MASS>  (2293) 
114.06807956

>  <MW>  (2293) 
114

>  <ID>  (2293) 
JP008733

>  <CONTRIBUTOR>  (2293) 
University of Tokyo Team, {Faculty of Engineering, University of Tokyo

>  <COMMENT>  (2293) 
SMILES=CC(C1)OC(=O)CC1
InChI=InChI=1S/C6H10O2/c1-5-3-2-4-6(7)8-5/h5H,2-4H2,1H3
computed SMILES=O=C1OC(C)CCC1
accession=JP008733
date=2016.01.19 (Created 2008.10.21, modified 2011.05.06)
author=SODA AROMATIC CO., LTD.
license=CC BY-NC-SA
exact mass=114.06808
ionization energy=70 eV
ion type=[M]+*
computed spectral entropy=2.189409770424048
computed normalized entropy=0.7574837957929915
SPLASH=splash10-0006-9000000000-ec974c9bdaa10e2a4003
submitter=submitter = University of Tokyo Team (Faculty of Engineering, University of Tokyo)
MoNA Rating=3.75

>  <NUM PEAKS>  (2293) 
18

>  <MASS SPECTRAL PEAKS>  (2293) 
15 3.31
26 2.55
27 12.48
28 2.72
29 6.16
39 13.41
40 4.7
41 19.82
42 99.99
43 22.94
44 1.69
53 2.33
55 19.39
70 51.07
71 12.36
85 1.61
99 4.96
114 5.44

>  <PREDICTED SPECTRUM>  (2293) 
14 27
15 78
16 5
25 11
26 132
27 388
28 259
29 243
30 34
31 54
36 25
37 89
38 169
39 495
40 238
41 860
42 837
43 678
44 106
45 396
49 41
50 100
51 59
53 187
54 246
55 771
56 999
57 237
59 93
60 67
69 168
70 762
71 137
72 37
85 92
86 97
99 38
114 137
115 22

$$$$

     RDKit          2D

 14 14  0  0  0  0  0  0  0  0999 V2000
    9.0501   -3.6466    0.0000 C   0  0  0  0  0  0  0  0  0  0  0  0
    7.7490   -2.9001    0.0000 C   0  0  0  0  0  0  0  0  0  0  0  0
    6.4520   -3.6537    0.0000 C   0  0  0  0  0  0  0  0  0  0  0  0
    5.1509   -2.9073    0.0000 C   0  0  0  0  0  0  0  0  0  0  0  0
    3.8540   -3.6608    0.0000 C   0  0  0  0  0  0  0  0  0  0  0  0
    2.5529   -2.9144    0.0000 C   0  0  0  0  0  0  0  0  0  0  0  0
    1.2559   -3.6679    0.0000 C   0  0  0  0  0  0  0  0  0  0  0  0
   -0.0452   -2.9215    0.0000 C   0  0  0  0  0  0  0  0  0  0  0  0
   -1.4904   -5.1634    0.0000 C   0  0  0  0  0  0  0  0  0  0  0  0
   -2.9669   -5.4803    0.0000 C   0  0  0  0  0  0  0  0  0  0  0  0
   -1.3422   -3.6750    0.0000 C   0  0  0  0  0  0  0  0  0  0  0  0
   -3.7103   -4.1751    0.0000 C   0  0  0  0  0  0  0  0  0  0  0  0
   -5.2017   -4.0146    0.0000 O   0  0  0  0  0  0  0  0  0  0  0  0
   -2.7125   -3.0649    0.0000 O   0  0  0  0  0  0  0  0  0  0  0  0
  2  1  1  0
  3  2  1  0
  4  3  1  0
  5  4  1  0
  6  5  1  0
  7  6  1  0
  8  7  1  0
 10  9  1  0
 11  8  1  0
 11  9  1  0
 12 10  1  0
 13 12  2  0
 14 11  1  0
 14 12  1  0
M  END
>  <NAME>  (2294) 
GAMMA-DODECALACTONE

>  <SYNONYMS>  (2294) 


>  <SPECTRUM TYPE>  (2294) 
MS1

>  <INSTRUMENT TYPE>  (2294) 
EI-B

>  <INSTRUMENT>  (2294) 
HITACHI M-80B

>  <ION MODE>  (2294) 
P

>  <INCHIKEY>  (2294) 
WGPCZPLRVAWXPW-UHFFFAOYSA-N

>  <FORMULA>  (2294) 
C12H22O2

>  <EXACT MASS>  (2294) 
198.161979944

>  <MW>  (2294) 
198

>  <ID>  (2294) 
JP008732

>  <CONTRIBUTOR>  (2294) 
University of Tokyo Team, {Faculty of Engineering, University of Tokyo

>  <COMMENT>  (2294) 
SMILES=CCCCCCCCC(C1)OC(=O)C1
InChI=InChI=1S/C12H22O2/c1-2-3-4-5-6-7-8-11-9-10-12(13)14-11/h11H,2-10H2,1H3
computed SMILES=O=C1OC(CC1)CCCCCCCC
accession=JP008732
date=2016.01.19 (Created 2008.10.21, modified 2011.05.06)
author=SODA AROMATIC CO., LTD.
license=CC BY-NC-SA
exact mass=198.16198
ionization energy=70 eV
ion type=[M]+*
computed spectral entropy=2.8658219658969735
computed normalized entropy=0.7619434961568159
SPLASH=splash10-000i-9000000000-a490bf6e0f9a2e81e23b
submitter=submitter = University of Tokyo Team (Faculty of Engineering, University of Tokyo)
MoNA Rating=3.75

>  <NUM PEAKS>  (2294) 
43

>  <MASS SPECTRAL PEAKS>  (2294) 
27 9.57
28 4.97
29 27.54
39 5.25
41 23.09
42 4.93
43 14.11
53 1.6
54 3.06
55 16.65
56 11.62
57 8.23
58 1.37
60 1.41
67 2.52
68 2.93
69 7.27
70 4.65
71 2.64
72 2.11
73 1.65
81 2.5
82 1.77
83 4.8
84 4.34
85 99.99
86 3.79
87 1.29
95 1.91
96 3.28
97 2.84
98 3.02
100 4.29
110 2.12
111 1.34
114 2.41
123 1.14
128 6.59
136 2.05
138 1.73
139 1.2
141 1.28
180 1.12

>  <PREDICTED SPECTRUM>  (2294) 
26 35
27 156
28 103
29 184
31 78
32 6
38 17
39 198
40 107
41 481
42 299
43 532
44 123
45 69
47 0
50 20
51 40
52 22
53 178
54 197
55 436
56 403
57 370
58 177
59 41
60 68
61 50
65 46
66 61
67 348
68 333
69 351
70 193
71 180
72 105
73 82
77 38
78 49
79 146
80 126
81 230
82 126
83 253
84 280
85 999
86 326
87 113
91 33
93 8
94 87
95 289
96 241
97 200
98 124
99 120
100 202
101 150
105 53
106 1
107 45
108 16
109 156
110 61
111 48
113 201
114 146
115 61
122 59
123 155
124 55
125 19
126 16
127 39
128 42
129 13
136 115
137 120
138 152
139 40
141 44
142 43
143 28
151 47
152 72
154 25
169 14
170 9
180 114
181 34
182 3
198 70
199 16

$$$$

     RDKit          2D

 12 12  0  0  0  0  0  0  0  0999 V2000
    7.2193   -3.0815    0.0000 C   0  0  0  0  0  0  0  0  0  0  0  0
    6.0034   -2.2032    0.0000 C   0  0  0  0  0  0  0  0  0  0  0  0
    4.6347   -2.8170    0.0000 C   0  0  0  0  0  0  0  0  0  0  0  0
    3.4188   -1.9387    0.0000 C   0  0  0  0  0  0  0  0  0  0  0  0
    2.0502   -2.5525    0.0000 C   0  0  0  0  0  0  0  0  0  0  0  0
    0.8342   -1.6742    0.0000 C   0  0  0  0  0  0  0  0  0  0  0  0
   -0.8374   -3.7528    0.0000 C   0  0  0  0  0  0  0  0  0  0  0  0
   -2.3389   -3.9135    0.0000 C   0  0  0  0  0  0  0  0  0  0  0  0
   -0.5344   -2.2880    0.0000 C   0  0  0  0  0  0  0  0  0  0  0  0
   -2.9418   -2.5378    0.0000 C   0  0  0  0  0  0  0  0  0  0  0  0
   -4.4083   -2.2223    0.0000 O   0  0  0  0  0  0  0  0  0  0  0  0
   -1.8335   -1.5380    0.0000 O   0  0  0  0  0  0  0  0  0  0  0  0
  2  1  1  0
  3  2  1  0
  4  3  1  0
  5  4  1  0
  6  5  1  0
  8  7  1  0
  9  6  1  0
  9  7  1  0
 10  8  1  0
 11 10  2  0
 12  9  1  0
 12 10  1  0
M  END
>  <NAME>  (2295) 
GAMMA-DECALACTONE

>  <SYNONYMS>  (2295) 


>  <SPECTRUM TYPE>  (2295) 
MS1

>  <INSTRUMENT TYPE>  (2295) 
EI-B

>  <INSTRUMENT>  (2295) 
HITACHI M-80B

>  <ION MODE>  (2295) 
P

>  <INCHIKEY>  (2295) 
IFYYFLINQYPWGJ-UHFFFAOYSA-N

>  <FORMULA>  (2295) 
C10H18O2

>  <EXACT MASS>  (2295) 
170.130679816

>  <MW>  (2295) 
170

>  <ID>  (2295) 
JP008730

>  <CONTRIBUTOR>  (2295) 
University of Tokyo Team, {Faculty of Engineering, University of Tokyo

>  <COMMENT>  (2295) 
SMILES=CCCCCCC(C1)OC(=O)C1
InChI=InChI=1S/C10H18O2/c1-2-3-4-5-6-9-7-8-10(11)12-9/h9H,2-8H2,1H3
computed SMILES=O=C1OC(CC1)CCCCCC
accession=JP008730
date=2016.01.19 (Created 2008.10.21, modified 2011.05.06)
author=SODA AROMATIC CO., LTD.
license=CC BY-NC-SA
exact mass=170.13068
ionization energy=70 eV
ion type=[M]+*
computed spectral entropy=2.4490706504347064
computed normalized entropy=0.7004333917148844
SPLASH=splash10-000i-9000000000-4b166790a11e7c302d92
submitter=submitter = University of Tokyo Team (Faculty of Engineering, University of Tokyo)
MoNA Rating=3.75

>  <NUM PEAKS>  (2295) 
33

>  <MASS SPECTRAL PEAKS>  (2295) 
26 1.03
27 11.36
28 5.9
29 23.41
39 5.03
40 1.02
41 15.67
42 4.09
43 10.45
53 1.37
54 1.62
55 10.9
56 6.57
57 4.87
58 1.25
67 1.13
68 1.5
69 3.07
70 3.13
71 1.05
72 1.55
81 1.3
83 1.47
84 2.4
85 99.99
86 3.68
97 1.11
100 3.56
110 1.59
111 1.24
113 1.8
114 1.42
128 7.83

>  <PREDICTED SPECTRUM>  (2295) 
26 28
27 120
28 75
29 140
31 53
32 1
38 26
39 177
40 98
41 346
42 220
43 363
44 116
45 7
50 19
51 22
53 119
54 86
55 320
56 272
57 308
58 92
59 14
61 24
66 32
67 263
68 279
69 281
70 92
71 86
72 66
73 63
77 19
79 48
81 124
82 35
83 82
84 187
85 999
86 340
87 103
94 21
95 198
96 65
97 14
98 2
99 20
100 63
101 48
108 15
109 67
110 106
111 17
113 79
114 48
115 44
123 49
124 66
125 5
141 20
142 21
152 54
170 16

$$$$

     RDKit          2D

 11 11  0  0  0  0  0  0  0  0999 V2000
    6.6495   -1.8301    0.0000 C   0  0  0  0  0  0  0  0  0  0  0  0
    5.2809   -2.4440    0.0000 C   0  0  0  0  0  0  0  0  0  0  0  0
    4.0649   -1.5656    0.0000 C   0  0  0  0  0  0  0  0  0  0  0  0
    2.6963   -2.1795    0.0000 C   0  0  0  0  0  0  0  0  0  0  0  0
    1.4804   -1.3011    0.0000 C   0  0  0  0  0  0  0  0  0  0  0  0
   -0.1912   -3.3797    0.0000 C   0  0  0  0  0  0  0  0  0  0  0  0
   -1.6928   -3.5405    0.0000 C   0  0  0  0  0  0  0  0  0  0  0  0
    0.1117   -1.9150    0.0000 C   0  0  0  0  0  0  0  0  0  0  0  0
   -2.2957   -2.1647    0.0000 C   0  0  0  0  0  0  0  0  0  0  0  0
   -3.7621   -1.8492    0.0000 O   0  0  0  0  0  0  0  0  0  0  0  0
   -1.1873   -1.1650    0.0000 O   0  0  0  0  0  0  0  0  0  0  0  0
  2  1  1  0
  3  2  1  0
  4  3  1  0
  5  4  1  0
  7  6  1  0
  8  5  1  0
  8  6  1  0
  9  7  1  0
 10  9  2  0
 11  8  1  0
 11  9  1  0
M  END
>  <NAME>  (2296) 
GAMMA-NONALACTONE

>  <SYNONYMS>  (2296) 


>  <SPECTRUM TYPE>  (2296) 
MS1

>  <INSTRUMENT TYPE>  (2296) 
EI-B

>  <INSTRUMENT>  (2296) 
HITACHI M-80B

>  <ION MODE>  (2296) 
P

>  <INCHIKEY>  (2296) 
OALYTRUKMRCXNH-UHFFFAOYSA-N

>  <FORMULA>  (2296) 
C9H16O2

>  <EXACT MASS>  (2296) 
156.115029752

>  <MW>  (2296) 
156

>  <ID>  (2296) 
JP008729

>  <CONTRIBUTOR>  (2296) 
University of Tokyo Team, {Faculty of Engineering, University of Tokyo

>  <COMMENT>  (2296) 
SMILES=CCCCCC(C1)OC(=O)C1
InChI=InChI=1S/C9H16O2/c1-2-3-4-5-8-6-7-9(10)11-8/h8H,2-7H2,1H3
computed SMILES=O=C1OC(CC1)CCCCC
accession=JP008729
date=2016.01.19 (Created 2008.10.21, modified 2011.05.06)
author=SODA AROMATIC CO., LTD.
license=CC BY-NC-SA
exact mass=156.11503
ionization energy=70 eV
ion type=[M]+*
computed spectral entropy=2.3782298740593983
computed normalized entropy=0.6925564169118573
SPLASH=splash10-000i-9000000000-b49a9ba5068e6a6f37e2
submitter=submitter = University of Tokyo Team (Faculty of Engineering, University of Tokyo)
MoNA Rating=3.75

>  <NUM PEAKS>  (2296) 
31

>  <MASS SPECTRAL PEAKS>  (2296) 
26 1.2
27 13.16
28 5.41
29 23.83
39 5.77
41 12.21
42 4.42
43 7.41
44 1.29
53 1.28
54 1.6
55 8
56 8.1
57 5.14
67 1.21
69 2.08
70 2.25
71 1.62
72 1.95
83 1.62
84 1.96
85 99.99
86 4.14
96 1.49
97 1.1
99 2.09
100 4.17
101 1.59
114 2.41
128 2.26
138 1.14

>  <PREDICTED SPECTRUM>  (2296) 
26 56
27 179
28 100
29 178
31 49
37 7
38 52
39 240
40 116
41 384
42 263
43 432
44 154
45 41
50 35
51 37
53 152
54 167
55 366
56 240
57 243
58 95
59 3
61 13
65 21
66 42
67 253
68 250
69 213
70 78
71 243
72 111
73 98
79 18
80 7
81 144
82 80
83 69
84 202
85 999
86 350
87 76
91 7
95 186
96 145
97 39
99 129
100 159
101 65
109 17
110 63
111 21
112 7
113 31
114 10
127 59
128 76
138 50
156 12

$$$$

     RDKit          2D

 10 10  0  0  0  0  0  0  0  0999 V2000
    5.3954   -1.7640    0.0000 C   0  0  0  0  0  0  0  0  0  0  0  0
    4.1795   -0.8856    0.0000 C   0  0  0  0  0  0  0  0  0  0  0  0
    2.8108   -1.4995    0.0000 C   0  0  0  0  0  0  0  0  0  0  0  0
    1.5949   -0.6211    0.0000 C   0  0  0  0  0  0  0  0  0  0  0  0
   -0.0767   -2.6997    0.0000 C   0  0  0  0  0  0  0  0  0  0  0  0
   -1.5783   -2.8605    0.0000 C   0  0  0  0  0  0  0  0  0  0  0  0
    0.2263   -1.2350    0.0000 C   0  0  0  0  0  0  0  0  0  0  0  0
   -2.1812   -1.4847    0.0000 C   0  0  0  0  0  0  0  0  0  0  0  0
   -3.6476   -1.1692    0.0000 O   0  0  0  0  0  0  0  0  0  0  0  0
   -1.0728   -0.4850    0.0000 O   0  0  0  0  0  0  0  0  0  0  0  0
  2  1  1  0
  3  2  1  0
  4  3  1  0
  6  5  1  0
  7  4  1  0
  7  5  1  0
  8  6  1  0
  9  8  2  0
 10  7  1  0
 10  8  1  0
M  END
>  <NAME>  (2297) 
GAMMA-OCTALACTONE

>  <SYNONYMS>  (2297) 


>  <SPECTRUM TYPE>  (2297) 
MS1

>  <INSTRUMENT TYPE>  (2297) 
EI-B

>  <INSTRUMENT>  (2297) 
HITACHI M-80B

>  <ION MODE>  (2297) 
P

>  <INCHIKEY>  (2297) 
IPBFYZQJXZJBFQ-UHFFFAOYSA-N

>  <FORMULA>  (2297) 
C8H14O2

>  <EXACT MASS>  (2297) 
142.099379688

>  <MW>  (2297) 
142

>  <ID>  (2297) 
JP008728

>  <CONTRIBUTOR>  (2297) 
University of Tokyo Team, {Faculty of Engineering, University of Tokyo

>  <COMMENT>  (2297) 
SMILES=CCCCC(C1)OC(=O)C1
InChI=InChI=1S/C8H14O2/c1-2-3-4-7-5-6-8(9)10-7/h7H,2-6H2,1H3
computed SMILES=O=C1OC(CC1)CCCC
accession=JP008728
date=2016.01.19 (Created 2008.10.21, modified 2011.05.06)
author=SODA AROMATIC CO., LTD.
license=CC BY-NC-SA
exact mass=142.09938
ionization energy=70 eV
ion type=[M]+*
computed spectral entropy=2.2370279982762686
computed normalized entropy=0.6643396099490476
SPLASH=splash10-000i-9000000000-b38e079f829f45a525dd
submitter=submitter = University of Tokyo Team (Faculty of Engineering, University of Tokyo)
MoNA Rating=3.75

>  <NUM PEAKS>  (2297) 
29

>  <MASS SPECTRAL PEAKS>  (2297) 
26 1.44
27 12.89
28 5.62
29 24.29
39 6.02
40 1.04
41 9.42
42 4.41
43 2.01
44 1.82
53 1.37
54 1.36
55 6.42
56 7.64
57 6.73
58 1.46
67 1.02
69 2.1
70 2.76
72 1.57
82 1.08
84 1.1
85 99.99
86 3.86
87 1.41
96 1.04
100 4.17
114 1.48
124 1.47

>  <PREDICTED SPECTRUM>  (2297) 
14 6
26 41
27 133
28 85
29 162
31 100
37 3
38 43
39 203
40 120
41 367
42 255
43 345
44 137
45 66
49 27
50 44
51 57
53 95
54 67
55 302
56 286
57 321
58 90
59 75
60 20
61 67
67 192
68 185
69 251
70 63
72 18
73 41
74 18
77 19
81 41
82 61
83 53
84 97
85 999
86 328
87 106
95 55
96 27
97 6
98 10
99 2
100 98
101 43
113 111
114 115
115 0
125 7

$$$$

     RDKit          2D

  9  9  0  0  0  0  0  0  0  0999 V2000
   -3.2165   -1.1686    0.0000 C   0  0  0  0  0  0  0  0  0  0  0  0
   -1.8478   -0.5547    0.0000 C   0  0  0  0  0  0  0  0  0  0  0  0
   -0.6319   -1.4331    0.0000 C   0  0  0  0  0  0  0  0  0  0  0  0
    1.0397    0.6455    0.0000 C   0  0  0  0  0  0  0  0  0  0  0  0
    2.5413    0.8063    0.0000 C   0  0  0  0  0  0  0  0  0  0  0  0
    0.7368   -0.8192    0.0000 C   0  0  0  0  0  0  0  0  0  0  0  0
    3.1442   -0.5695    0.0000 C   0  0  0  0  0  0  0  0  0  0  0  0
    4.6106   -0.8850    0.0000 O   0  0  0  0  0  0  0  0  0  0  0  0
    2.0358   -1.5692    0.0000 O   0  0  0  0  0  0  0  0  0  0  0  0
  2  1  1  0
  3  2  1  0
  5  4  1  0
  6  3  1  0
  6  4  1  0
  7  5  1  0
  8  7  2  0
  9  6  1  0
  9  7  1  0
M  END
>  <NAME>  (2298) 
GAMMA-HEPTALACTONE

>  <SYNONYMS>  (2298) 


>  <SPECTRUM TYPE>  (2298) 
MS1

>  <INSTRUMENT TYPE>  (2298) 
EI-B

>  <INSTRUMENT>  (2298) 
HITACHI M-80B

>  <ION MODE>  (2298) 
P

>  <INCHIKEY>  (2298) 
VLSVVMPLPMNWBH-UHFFFAOYSA-N

>  <FORMULA>  (2298) 
C7H12O2

>  <EXACT MASS>  (2298) 
128.083729624

>  <MW>  (2298) 
128

>  <ID>  (2298) 
JP008727

>  <CONTRIBUTOR>  (2298) 
University of Tokyo Team, {Faculty of Engineering, University of Tokyo

>  <COMMENT>  (2298) 
SMILES=CCCC(C1)OC(=O)C1
InChI=InChI=1S/C7H12O2/c1-2-3-6-4-5-7(8)9-6/h6H,2-5H2,1H3
computed SMILES=O=C1OC(CC1)CCC
accession=JP008727
date=2016.01.19 (Created 2008.10.21, modified 2011.05.06)
author=SODA AROMATIC CO., LTD.
license=CC BY-NC-SA
exact mass=128.08373
ionization energy=70 eV
ion type=[M]+*
computed spectral entropy=2.2943641235241072
computed normalized entropy=0.7127842912728862
SPLASH=splash10-000i-9000000000-c224bc120cc60670620f
submitter=submitter = University of Tokyo Team (Faculty of Engineering, University of Tokyo)
MoNA Rating=3.75

>  <NUM PEAKS>  (2298) 
25

>  <MASS SPECTRAL PEAKS>  (2298) 
15 1.5
26 2.81
27 19.98
28 9.24
29 28.18
39 7.89
40 1.2
41 10.87
42 6.17
43 7.57
44 2.56
53 1.42
55 6.89
56 13.85
57 6.27
58 1.03
69 1.72
71 3.44
72 1.04
73 1
84 1.85
85 99.99
86 4.06
100 3.07
110 2.1

>  <PREDICTED SPECTRUM>  (2298) 
14 37
15 70
25 29
26 172
27 421
28 270
29 375
30 25
31 156
36 14
37 74
38 149
39 462
40 207
41 671
42 484
43 887
44 284
45 108
49 62
50 131
51 121
52 21
53 207
54 209
55 479
56 555
57 401
58 213
59 1
61 116
63 7
65 69
66 1
67 244
68 251
69 262
70 46
71 142
72 77
73 147
74 63
75 92
82 59
83 55
84 46
85 999
86 314
87 66
99 87
100 341
101 32
128 12

$$$$

     RDKit          2D

  8  8  0  0  0  0  0  0  0  0999 V2000
    3.5715   -0.4465    0.0000 C   0  0  0  0  0  0  0  0  0  0  0  0
    2.3556    0.4319    0.0000 C   0  0  0  0  0  0  0  0  0  0  0  0
    0.6840   -1.6467    0.0000 C   0  0  0  0  0  0  0  0  0  0  0  0
   -0.8176   -1.8075    0.0000 C   0  0  0  0  0  0  0  0  0  0  0  0
    0.9869   -0.1820    0.0000 C   0  0  0  0  0  0  0  0  0  0  0  0
   -1.4205   -0.4317    0.0000 C   0  0  0  0  0  0  0  0  0  0  0  0
   -2.8869   -0.1162    0.0000 O   0  0  0  0  0  0  0  0  0  0  0  0
   -0.3121    0.5680    0.0000 O   0  0  0  0  0  0  0  0  0  0  0  0
  2  1  1  0
  4  3  1  0
  5  2  1  0
  5  3  1  0
  6  4  1  0
  7  6  2  0
  8  5  1  0
  8  6  1  0
M  END
>  <NAME>  (2299) 
GAMMA-HEXALACTONE

>  <SYNONYMS>  (2299) 


>  <SPECTRUM TYPE>  (2299) 
MS1

>  <INSTRUMENT TYPE>  (2299) 
EI-B

>  <INSTRUMENT>  (2299) 
HITACHI M-80B

>  <ION MODE>  (2299) 
P

>  <INCHIKEY>  (2299) 
JBFHTYHTHYHCDJ-UHFFFAOYSA-N

>  <FORMULA>  (2299) 
C6H10O2

>  <EXACT MASS>  (2299) 
114.06807956

>  <MW>  (2299) 
114

>  <ID>  (2299) 
JP008726

>  <CONTRIBUTOR>  (2299) 
University of Tokyo Team, {Faculty of Engineering, University of Tokyo

>  <COMMENT>  (2299) 
SMILES=CCC(C1)OC(=O)C1
InChI=InChI=1S/C6H10O2/c1-2-5-3-4-6(7)8-5/h5H,2-4H2,1H3
computed SMILES=O=C1OC(CC)CC1
accession=JP008726
date=2016.01.19 (Created 2008.10.21, modified 2011.05.06)
author=SODA AROMATIC CO., LTD.
license=CC BY-NC-SA
exact mass=114.06808
ionization energy=70 eV
ion type=[M]+*
computed spectral entropy=2.3981659958732426
computed normalized entropy=0.7648446562873302
SPLASH=splash10-002r-9000000000-043fff98e80d69a0aef2
submitter=submitter = University of Tokyo Team (Faculty of Engineering, University of Tokyo)
MoNA Rating=3.75

>  <NUM PEAKS>  (2299) 
23

>  <MASS SPECTRAL PEAKS>  (2299) 
15 1.51
26 4.86
27 21.93
28 19.02
29 41.11
30 1.55
31 1.44
38 1.11
39 10.44
40 1.79
41 9.91
42 19.04
43 1.77
53 1.43
55 11.97
56 18
57 16.55
58 1.62
59 1.4
70 12.93
85 99.99
86 9.54
114 1.66

>  <PREDICTED SPECTRUM>  (2299) 
14 40
15 58
25 32
26 246
27 533
28 398
29 593
30 227
31 225
36 25
37 90
38 203
39 544
40 295
41 691
42 566
43 425
44 199
49 26
50 134
51 136
52 36
53 198
54 255
55 559
56 623
57 737
58 260
59 165
60 93
65 43
66 75
67 212
68 191
69 47
70 113
71 143
72 109
73 11
85 999
86 620
87 241
88 8
114 303
115 68

$$$$

     RDKit          2D

  7  7  0  0  0  0  0  0  0  0999 V2000
    3.0017    0.8049    0.0000 C   0  0  0  0  0  0  0  0  0  0  0  0
    1.3301   -1.2737    0.0000 C   0  0  0  0  0  0  0  0  0  0  0  0
   -0.1714   -1.4344    0.0000 C   0  0  0  0  0  0  0  0  0  0  0  0
    1.6331    0.1911    0.0000 C   0  0  0  0  0  0  0  0  0  0  0  0
   -0.7743   -0.0587    0.0000 C   0  0  0  0  0  0  0  0  0  0  0  0
   -2.2408    0.2569    0.0000 O   0  0  0  0  0  0  0  0  0  0  0  0
    0.3340    0.9411    0.0000 O   0  0  0  0  0  0  0  0  0  0  0  0
  3  2  1  0
  4  1  1  0
  4  2  1  0
  5  3  1  0
  6  5  2  0
  7  4  1  0
  7  5  1  0
M  END
>  <NAME>  (2300) 
GAMMA-VALEROLACTONE

>  <SYNONYMS>  (2300) 


>  <SPECTRUM TYPE>  (2300) 
MS1

>  <INSTRUMENT TYPE>  (2300) 
EI-B

>  <INSTRUMENT>  (2300) 
HITACHI M-80B

>  <ION MODE>  (2300) 
P

>  <INCHIKEY>  (2300) 
GAEKPEKOJKCEMS-UHFFFAOYSA-N

>  <FORMULA>  (2300) 
C5H8O2

>  <EXACT MASS>  (2300) 
100.052429496

>  <MW>  (2300) 
100

>  <ID>  (2300) 
JP008725

>  <CONTRIBUTOR>  (2300) 
University of Tokyo Team, {Faculty of Engineering, University of Tokyo

>  <COMMENT>  (2300) 
SMILES=CC(C1)OC(=O)C1
InChI=InChI=1S/C5H8O2/c1-4-2-3-5(6)7-4/h4H,2-3H2,1H3
computed SMILES=O=C1OC(C)CC1
accession=JP008725
date=2016.01.19 (Created 2008.10.21, modified 2011.05.06)
author=SODA AROMATIC CO., LTD.
license=CC BY-NC-SA
exact mass=100.05243
ionization energy=70 eV
ion type=[M]+*
computed spectral entropy=2.644141875838336
computed normalized entropy=0.7774150039319833
SPLASH=splash10-056u-9000000000-7c79f68cacbc95c0ea48
submitter=submitter = University of Tokyo Team (Faculty of Engineering, University of Tokyo)
MoNA Rating=3.75

>  <NUM PEAKS>  (2300) 
30

>  <MASS SPECTRAL PEAKS>  (2300) 
14 3.65
15 8.93
25 1.34
26 14.18
27 34.19
28 67.66
29 48.12
30 1.4
31 1.65
37 1.73
38 3.54
39 16.8
40 4.37
41 65.15
42 8.8
43 38.21
44 4.44
45 4.5
50 2.74
51 3.06
53 3.17
54 2.06
55 9.84
56 99.99
57 11.34
71 1.83
85 57.58
86 1.58
99 3.41
100 7.08

>  <PREDICTED SPECTRUM>  (2300) 
14 30
15 121
16 8
25 10
26 115
27 319
28 273
29 230
37 68
38 140
39 372
40 194
41 631
42 472
43 520
45 302
50 80
51 44
53 123
54 193
55 99
56 999
57 254
58 178
72 55
85 133
100 23

$$$$

     RDKit          2D

  6  6  0  0  0  0  0  0  0  0999 V2000
   -1.1900   -1.1800    0.0000 C   0  0  0  0  0  0  0  0  0  0  0  0
    0.3100   -1.1800    0.0000 C   0  0  0  0  0  0  0  0  0  0  0  0
   -1.6500    0.2500    0.0000 C   0  0  0  0  0  0  0  0  0  0  0  0
    0.7700    0.2500    0.0000 C   0  0  0  0  0  0  0  0  0  0  0  0
    2.1960    0.7153    0.0000 O   0  0  0  0  0  0  0  0  0  0  0  0
   -0.4400    1.1300    0.0000 O   0  0  0  0  0  0  0  0  0  0  0  0
  2  1  1  0
  3  1  1  0
  4  2  1  0
  5  4  2  0
  6  3  1  0
  6  4  1  0
M  END
>  <NAME>  (2301) 
GAMMA-BUTYROLACTONE

>  <SYNONYMS>  (2301) 


>  <SPECTRUM TYPE>  (2301) 
MS1

>  <INSTRUMENT TYPE>  (2301) 
EI-B

>  <INSTRUMENT>  (2301) 
HITACHI M-80B

>  <ION MODE>  (2301) 
P

>  <INCHIKEY>  (2301) 
YEJRWHAVMIAJKC-UHFFFAOYSA-N

>  <FORMULA>  (2301) 
C4H6O2

>  <EXACT MASS>  (2301) 
86.036779432

>  <MW>  (2301) 
86

>  <ID>  (2301) 
JP008724

>  <CONTRIBUTOR>  (2301) 
University of Tokyo Team, {Faculty of Engineering, University of Tokyo

>  <COMMENT>  (2301) 
SMILES=O=C(C1)OCC1
InChI=InChI=1S/C4H6O2/c5-4-2-1-3-6-4/h1-3H2
computed SMILES=O=C1OCCC1
accession=JP008724
date=2016.01.19 (Created 2008.10.21, modified 2011.05.06)
author=SODA AROMATIC CO., LTD.
license=CC BY-NC-SA
exact mass=86.03678
ionization energy=70 eV
ion type=[M]+*
computed spectral entropy=2.4609335700998676
computed normalized entropy=0.7743523871747745
SPLASH=splash10-002f-9000000000-d3df175d3315ed446e14
submitter=submitter = University of Tokyo Team (Faculty of Engineering, University of Tokyo)
MoNA Rating=3.75

>  <NUM PEAKS>  (2301) 
24

>  <MASS SPECTRAL PEAKS>  (2301) 
13 1.02
14 2.64
15 2.1
26 15.16
27 31.8
28 70.11
29 28.31
30 3.18
31 2.5
37 3.06
38 3.81
39 14.38
40 11.36
41 40.86
42 99.99
43 3.03
44 2.17
53 2.27
55 5.71
56 19.91
57 5.12
85 7.09
86 21.52
87 1.47

>  <PREDICTED SPECTRUM>  (2301) 
14 112
15 241
16 81
17 25
18 34
19 14
25 79
26 316
27 735
28 603
29 562
30 247
31 363
32 2
36 2
37 74
38 201
39 548
40 319
41 859
42 999
43 610
44 333
45 99
50 69
51 38
53 193
54 549
55 269
56 949
57 387
58 271
59 124
60 441
68 25
72 83
86 461
87 86

$$$$

     RDKit          2D

 11 12  0  0  0  0  0  0  0  0999 V2000
   -2.9400   -0.8900    0.0000 C   0  0  0  0  0  0  0  0  0  0  0  0
   -2.9400    0.6100    0.0000 C   0  0  0  0  0  0  0  0  0  0  0  0
   -1.6400   -1.6400    0.0000 C   0  0  0  0  0  0  0  0  0  0  0  0
   -1.6400    1.3700    0.0000 C   0  0  0  0  0  0  0  0  0  0  0  0
    0.9500   -1.6200    0.0000 C   0  0  0  0  0  0  0  0  0  0  0  0
    2.2300   -0.8800    0.0000 C   0  0  0  0  0  0  0  0  0  0  0  0
   -0.3600   -0.8700    0.0000 C   0  0  0  0  0  0  0  0  0  0  0  0
   -0.3600    0.5900    0.0000 C   0  0  0  0  0  0  0  0  0  0  0  0
    2.2300    0.6000    0.0000 C   0  0  0  0  0  0  0  0  0  0  0  0
    3.5314    1.3458    0.0000 O   0  0  0  0  0  0  0  0  0  0  0  0
    0.9500    1.3500    0.0000 O   0  0  0  0  0  0  0  0  0  0  0  0
  2  1  2  0
  3  1  1  0
  4  2  1  0
  6  5  1  0
  7  3  2  0
  7  5  1  0
  8  4  2  0
  8  7  1  0
  9  6  1  0
 10  9  2  0
 11  8  1  0
 11  9  1  0
M  END
>  <NAME>  (2302) 
3,4-DIHYDROCOUMARIN

>  <SYNONYMS>  (2302) 


>  <SPECTRUM TYPE>  (2302) 
MS1

>  <INSTRUMENT TYPE>  (2302) 
EI-B

>  <INSTRUMENT>  (2302) 
HITACHI M-80B

>  <ION MODE>  (2302) 
P

>  <INCHIKEY>  (2302) 
VMUXSMXIQBNMGZ-UHFFFAOYSA-N

>  <FORMULA>  (2302) 
C9H8O2

>  <EXACT MASS>  (2302) 
148.052429496

>  <MW>  (2302) 
148

>  <ID>  (2302) 
JP008723

>  <CONTRIBUTOR>  (2302) 
University of Tokyo Team, {Faculty of Engineering, University of Tokyo

>  <COMMENT>  (2302) 
SMILES=O=C(C1)Oc(c2)c(ccc2)C1
InChI=InChI=1S/C9H8O2/c10-9-6-5-7-3-1-2-4-8(7)11-9/h1-4H,5-6H2
computed SMILES=O=C1OC=2C=CC=CC2CC1
accession=JP008723
date=2016.01.19 (Created 2008.10.21, modified 2011.05.06)
author=SODA AROMATIC CO., LTD.
license=CC BY-NC-SA
exact mass=148.05243
ionization energy=70 eV
ion type=[M]+*
computed spectral entropy=3.1617215313308895
computed normalized entropy=0.7963448532685284
SPLASH=splash10-0ffw-9500000000-19f4cacfc3593f445e42
submitter=submitter = University of Tokyo Team (Faculty of Engineering, University of Tokyo)
MoNA Rating=3.75

>  <NUM PEAKS>  (2302) 
53

>  <MASS SPECTRAL PEAKS>  (2302) 
14 1.44
15 1.22
26 4.57
27 14.75
28 1.7
29 1.57
37 3.25
38 10.82
39 37.77
40 4.19
41 2.38
42 9.64
43 1.37
45 2.3
46 2.05
49 1.49
50 16.88
51 33.56
52 18.87
53 5.2
55 4.53
60 3.36
61 2.83
62 7.14
63 20.59
64 4.78
65 18.02
66 3.2
74 3.62
75 2.85
76 3.15
77 16.28
78 64.19
79 4.79
89 6.2
90 4.11
91 74.08
92 22.21
93 1.52
94 2.11
102 2.84
103 4.7
105 2.27
106 11.41
107 4.25
118 1.5
119 21.06
120 96.34
121 8.27
131 1.84
147 3.67
148 99.99
149 10.83

>  <PREDICTED SPECTRUM>  (2302) 
26 60
27 116
28 29
29 51
36 3
37 48
38 114
39 297
40 123
41 244
42 184
43 210
44 118
45 75
46 29
47 71
49 79
50 270
51 405
52 254
53 268
54 118
55 253
56 15
57 58
59 44
60 43
61 74
62 129
63 281
64 186
65 258
66 110
67 56
68 25
69 98
70 76
71 71
73 86
74 148
75 149
76 127
77 451
78 388
79 405
80 152
81 110
86 36
87 44
89 189
90 147
91 471
92 336
93 98
94 37
95 20
102 140
103 175
104 75
105 321
106 298
107 712
108 180
118 44
119 344
120 999
121 302
122 90
129 55
130 115
131 246
132 83
133 72
146 75
147 139
148 913
149 315
150 87
151 6

$$$$

     RDKit          2D

 19 19  0  0  0  0  0  0  0  0999 V2000
   -3.9000   -2.2500    0.0000 C   0  0  0  0  0  0  0  0  0  0  0  0
   -3.9000   -0.7500    0.0000 C   0  0  0  0  0  0  0  0  0  0  0  0
   -2.6000   -3.0000    0.0000 C   0  0  0  0  0  0  0  0  0  0  0  0
   -5.2000    0.0000    0.0000 C   0  0  0  0  0  0  0  0  0  0  0  0
   -0.0000   -3.0000    0.0000 C   0  0  0  0  0  0  0  0  0  0  0  0
   -5.2000    1.5000    0.0000 C   0  0  0  0  0  0  0  0  0  0  0  0
    1.3000   -2.2500    0.0000 C   0  0  0  0  0  0  0  0  0  0  0  0
   -3.9000    2.2500    0.0000 C   0  0  0  0  0  0  0  0  0  0  0  0
    1.3000   -0.7500    0.0000 C   0  0  0  0  0  0  0  0  0  0  0  0
   -3.9000    3.7500    0.0000 C   0  0  0  0  0  0  0  0  0  0  0  0
    2.6000   -0.0000    0.0000 C   0  0  0  0  0  0  0  0  0  0  0  0
    0.0000    4.5000    0.0000 C   0  0  0  0  0  0  0  0  0  0  0  0
    1.3000    3.7500    0.0000 C   0  0  0  0  0  0  0  0  0  0  0  0
   -2.6000    4.5000    0.0000 C   0  0  0  0  0  0  0  0  0  0  0  0
    2.6000    1.5000    0.0000 C   0  0  0  0  0  0  0  0  0  0  0  0
   -2.6000    6.0000    0.0000 O   0  0  0  0  0  0  0  0  0  0  0  0
    3.8989    2.2502    0.0000 O   0  0  0  0  0  0  0  0  0  0  0  0
   -1.3000    3.7500    0.0000 O   0  0  0  0  0  0  0  0  0  0  0  0
    1.3000    2.2500    0.0000 O   0  0  0  0  0  0  0  0  0  0  0  0
  2  1  1  0
  3  1  1  0
  4  2  1  0
  5  3  1  0
  6  4  1  0
  7  5  1  0
  8  6  1  0
  9  7  1  0
 10  8  1  0
 11  9  1  0
 13 12  1  0
 14 10  1  0
 15 11  1  0
 16 14  2  0
 17 15  2  0
 18 12  1  0
 18 14  1  0
 19 13  1  0
 19 15  1  0
M  END
>  <NAME>  (2303) 
ETHYLENE TRIDECANEDIOATE

>  <SYNONYMS>  (2303) 


>  <SPECTRUM TYPE>  (2303) 
MS1

>  <INSTRUMENT TYPE>  (2303) 
EI-B

>  <INSTRUMENT>  (2303) 
HITACHI M-80B

>  <ION MODE>  (2303) 
P

>  <INCHIKEY>  (2303) 
XRHCAGNSDHCHFJ-UHFFFAOYSA-N

>  <FORMULA>  (2303) 
C15H26O4

>  <EXACT MASS>  (2303) 
270.183109312

>  <MW>  (2303) 
270

>  <ID>  (2303) 
JP008722

>  <CONTRIBUTOR>  (2303) 
University of Tokyo Team, {Faculty of Engineering, University of Tokyo

>  <COMMENT>  (2303) 
SMILES=O=C(C1)OCCOC(=O)CCCCCCCCCC1
InChI=InChI=1S/C15H26O4/c16-14-10-8-6-4-2-1-3-5-7-9-11-15(17)19-13-12-18-14/h1-13H2
computed SMILES=O=C1OCCOC(=O)CCCCCCCCCCC1
accession=JP008722
date=2016.01.19 (Created 2008.10.21, modified 2011.05.06)
author=SODA AROMATIC CO., LTD.
license=CC BY-NC-SA
exact mass=270.18311
ionization energy=70 eV
ion type=[M]+*
computed spectral entropy=3.696683276198656
computed normalized entropy=0.8155768630744238
SPLASH=splash10-052g-9100000000-c138c1e80c441c9c94e9
submitter=submitter = University of Tokyo Team (Faculty of Engineering, University of Tokyo)
MoNA Rating=3.75

>  <NUM PEAKS>  (2303) 
93

>  <MASS SPECTRAL PEAKS>  (2303) 
15 3.36
26 1.79
27 28.31
28 11.07
29 37.16
30 1.2
31 4.04
39 22.4
41 99.99
42 33.51
43 34.77
44 4.16
45 10.62
51 1.08
53 6.55
54 7.93
55 90.94
56 16.13
57 9.22
58 5.51
59 2.36
60 3.7
61 2.4
65 1.06
66 1.16
67 18.41
68 7.77
69 31.37
70 6.7
71 6.28
73 3.25
74 1.24
77 1.09
79 4.08
80 2.9
81 11.68
82 4.94
83 19.5
84 32.19
85 4.87
86 48
87 13.08
91 1.1
93 3.1
94 2.68
95 6.23
96 4.68
97 14.07
98 60.15
99 32.04
100 2.86
101 1.56
104 1.99
105 1.25
107 3.1
108 1.72
109 2.61
110 2.23
111 6.51
112 18.1
113 3.16
117 1.68
121 2.01
122 1.3
123 2.43
124 2.29
125 7.6
126 1.97
127 1.58
135 1.16
137 1.7
138 1.5
139 1.86
141 2.05
149 2.68
152 1.76
155 3.83
159 1.89
163 1.21
166 1.38
167 1.02
173 2.81
180 2.19
181 1.26
187 8.13
188 1.09
208 2.38
209 1.07
211 7.81
212 1.04
227 20.13
228 2.28
270 1.74

>  <PREDICTED SPECTRUM>  (2303) 
26 88
27 307
28 127
29 339
30 67
31 146
36 20
38 22
39 319
40 181
41 856
42 581
43 615
44 239
45 239
46 1
50 10
51 62
52 49
53 264
54 465
55 999
56 519
57 420
58 242
59 163
60 221
61 80
63 2
65 95
66 151
67 504
68 444
69 631
70 409
71 304
72 100
73 273
74 44
75 15
76 34
77 95
78 38
79 189
80 215
81 457
82 471
83 527
84 645
85 240
86 246
87 211
88 108
89 11
91 111
92 32
93 148
94 238
95 407
96 436
97 504
98 888
99 522
100 339
101 282
102 77
103 98
105 121
106 34
107 136
108 165
109 344
110 256
111 429
112 211
113 298
114 178
115 219
116 107
117 131
118 48
119 167
120 59
121 215
122 169
123 238
124 301
125 305
126 276
127 273
128 220
129 323
130 87
131 64
132 29
133 97
134 51
135 143
136 183
137 236
138 392
139 253
140 246
141 204
142 174
143 151
144 57
145 113
146 82
147 167
148 138
149 133
150 17
151 124
152 184
153 162
154 143
155 169
156 56
157 136
158 45
159 59
162 38
163 63
164 168
165 141
166 497
167 223
168 207
169 204
170 142
171 167
172 99
173 160
174 56
175 72
180 2
181 123
182 87
183 124
184 85
185 172
186 112
187 68
188 36
190 2
191 51
192 100
193 52
194 3
195 125
196 53
197 111
198 70
199 123
200 35
201 14
202 33
208 75
209 201
210 191
211 202
212 32
213 154
214 46
215 57
216 6
223 83
224 121
225 73
226 91
227 495
228 50
229 89
230 27
234 64
237 2
240 2
241 80
242 101
252 329
253 149
254 46
270 182
271 56

$$$$

     RDKit          2D

 18 18  0  0  0  0  0  0  0  0999 V2000
    1.3000   -0.7500    0.0000 C   0  0  0  0  0  0  0  0  0  0  0  0
    0.0000    0.0000    0.0000 C   0  0  0  0  0  0  0  0  0  0  0  0
    2.6000   -0.0000    0.0000 C   0  0  0  0  0  0  0  0  0  0  0  0
   -1.3000   -0.7500    0.0000 C   0  0  0  0  0  0  0  0  0  0  0  0
    2.6000    1.5000    0.0000 C   0  0  0  0  0  0  0  0  0  0  0  0
   -2.6000    0.0000    0.0000 C   0  0  0  0  0  0  0  0  0  0  0  0
    1.3000    2.2500    0.0000 C   0  0  0  0  0  0  0  0  0  0  0  0
   -3.9000   -0.7500    0.0000 C   0  0  0  0  0  0  0  0  0  0  0  0
    1.3000    3.7500    0.0000 C   0  0  0  0  0  0  0  0  0  0  0  0
   -5.2000    0.0000    0.0000 C   0  0  0  0  0  0  0  0  0  0  0  0
   -2.6000    4.5000    0.0000 C   0  0  0  0  0  0  0  0  0  0  0  0
   -3.9000    3.7500    0.0000 C   0  0  0  0  0  0  0  0  0  0  0  0
    0.0000    4.5000    0.0000 C   0  0  0  0  0  0  0  0  0  0  0  0
   -5.2000    1.5000    0.0000 C   0  0  0  0  0  0  0  0  0  0  0  0
    0.0000    6.0000    0.0000 O   0  0  0  0  0  0  0  0  0  0  0  0
   -6.4989    2.2502    0.0000 O   0  0  0  0  0  0  0  0  0  0  0  0
   -1.3000    3.7500    0.0000 O   0  0  0  0  0  0  0  0  0  0  0  0
   -3.9000    2.2500    0.0000 O   0  0  0  0  0  0  0  0  0  0  0  0
  2  1  1  0
  3  1  1  0
  4  2  1  0
  5  3  1  0
  6  4  1  0
  7  5  1  0
  8  6  1  0
  9  7  1  0
 10  8  1  0
 12 11  1  0
 13  9  1  0
 14 10  1  0
 15 13  2  0
 16 14  2  0
 17 11  1  0
 17 13  1  0
 18 12  1  0
 18 14  1  0
M  END
>  <NAME>  (2304) 
ETHYLENE DODECANEDIOATE

>  <SYNONYMS>  (2304) 


>  <SPECTRUM TYPE>  (2304) 
MS1

>  <INSTRUMENT TYPE>  (2304) 
EI-B

>  <INSTRUMENT>  (2304) 
HITACHI M-80B

>  <ION MODE>  (2304) 
P

>  <INCHIKEY>  (2304) 
GJJSUPSPZIZYPM-UHFFFAOYSA-N

>  <FORMULA>  (2304) 
C14H24O4

>  <EXACT MASS>  (2304) 
256.167459248

>  <MW>  (2304) 
256

>  <ID>  (2304) 
JP008721

>  <CONTRIBUTOR>  (2304) 
University of Tokyo Team, {Faculty of Engineering, University of Tokyo

>  <COMMENT>  (2304) 
SMILES=O=C(C1)OCCOC(=O)CCCCCCCCC1
InChI=InChI=1S/C14H24O4/c15-13-9-7-5-3-1-2-4-6-8-10-14(16)18-12-11-17-13/h1-12H2
computed SMILES=O=C1OCCOC(=O)CCCCCCCCCC1
accession=JP008721
date=2016.01.19 (Created 2008.10.21, modified 2011.05.06)
author=SODA AROMATIC CO., LTD.
license=CC BY-NC-SA
exact mass=256.16746
ionization energy=70 eV
ion type=[M]+*
computed spectral entropy=3.741508050903502
computed normalized entropy=0.8178676354604454
SPLASH=splash10-052f-9100000000-8523f4d0bacbd3e98cab
submitter=submitter = University of Tokyo Team (Faculty of Engineering, University of Tokyo)
MoNA Rating=3.75

>  <NUM PEAKS>  (2304) 
97

>  <MASS SPECTRAL PEAKS>  (2304) 
15 3.27
26 1.92
27 30.36
28 15.37
29 35.69
30 1.33
31 3.87
39 24.86
40 1.07
41 99.99
42 34.16
43 33.13
44 3.9
45 11.77
53 7.32
54 8.51
55 86.73
56 16.56
57 7.42
58 4.34
59 2.29
60 3.41
61 2.42
65 1.04
66 1.04
67 16.48
68 8.03
69 33.43
70 7.01
71 5.13
73 3.16
74 1.19
79 3.82
80 2.86
81 9.98
82 4.92
83 19.84
84 32
85 3.92
86 47.35
87 13.2
91 1.18
93 3.9
94 2.52
95 4.56
96 4.68
97 14.7
98 65.59
99 29.57
100 2.75
101 1.73
104 2.38
105 1.08
106 1
107 2.11
108 2.22
109 3.42
110 3.55
111 13.99
112 16.44
113 3.6
115 1.32
117 1.25
121 1.44
122 1.18
123 2.64
124 2
125 5.31
126 1.8
127 1.27
129 1.41
135 5.82
137 1.83
138 2.87
141 1.68
145 1.41
148 1.29
149 2.57
150 1.23
151 1.13
152 2.43
153 1.78
155 3.51
159 3.26
166 5.14
167 2.21
168 1
173 9.69
174 1.21
194 3.11
195 1.57
196 1.18
197 7.08
198 1.08
213 22.69
214 2.71
256 1.45

>  <PREDICTED SPECTRUM>  (2304) 
26 102
27 336
28 150
29 366
30 91
31 164
36 21
37 5
38 42
39 348
40 201
41 868
42 613
43 632
44 268
45 262
50 17
51 58
52 54
53 269
54 480
55 999
56 548
57 393
58 187
59 70
60 204
61 65
62 3
63 12
65 97
66 164
67 504
68 453
69 612
70 387
71 269
72 105
73 343
74 97
75 34
76 57
77 95
78 32
79 180
80 224
81 450
82 461
83 521
84 638
85 282
86 266
87 185
88 91
89 51
91 130
92 43
93 136
94 221
95 372
96 422
97 488
98 903
99 542
100 313
101 281
102 92
103 77
105 107
106 22
107 153
108 161
109 335
110 241
111 391
112 237
113 294
114 189
115 177
116 88
117 84
118 48
119 124
120 45
121 191
122 163
123 210
124 286
125 323
126 291
127 264
128 223
129 319
130 90
131 103
132 106
133 149
134 105
135 161
136 132
137 231
138 395
139 214
140 203
141 186
142 121
143 120
144 17
145 42
147 103
148 99
149 106
150 116
151 105
152 196
153 220
154 209
155 228
156 178
157 180
158 141
159 164
160 70
161 79
164 49
165 80
166 503
167 190
168 87
169 109
170 84
171 155
172 93
173 113
174 64
175 6
176 35
177 90
178 123
179 66
181 84
182 55
183 99
184 103
185 121
186 67
187 26
188 21
193 0
194 104
195 274
196 243
197 216
198 105
199 151
200 24
201 44
202 16
209 78
210 85
211 86
212 39
213 626
214 221
215 108
220 52
226 12
227 95
228 24
238 268
239 112
240 18
256 190
257 30

$$$$

     RDKit          2D

 18 18  0  0  0  0  0  0  0  0999 V2000
   -3.9000   -0.7500    0.0000 C   0  0  0  0  0  0  0  0  0  0  0  0
   -5.2000    0.0000    0.0000 C   0  0  0  0  0  0  0  0  0  0  0  0
   -3.9000   -2.2500    0.0000 C   0  0  0  0  0  0  0  0  0  0  0  0
   -5.2000    1.5000    0.0000 C   0  0  0  0  0  0  0  0  0  0  0  0
   -2.6000   -3.0000    0.0000 C   0  0  0  0  0  0  0  0  0  0  0  0
   -3.9000    2.2500    0.0000 C   0  0  0  0  0  0  0  0  0  0  0  0
   -0.0000   -3.0000    0.0000 C   0  0  0  0  0  0  0  0  0  0  0  0
   -3.9000    3.7500    0.0000 C   0  0  0  0  0  0  0  0  0  0  0  0
    1.3000   -2.2500    0.0000 C   0  0  0  0  0  0  0  0  0  0  0  0
   -2.6000    4.5000    0.0000 C   0  0  0  0  0  0  0  0  0  0  0  0
    1.3000   -0.7500    0.0000 C   0  0  0  0  0  0  0  0  0  0  0  0
   -1.3000    3.7500    0.0000 C   0  0  0  0  0  0  0  0  0  0  0  0
    2.6000   -0.0000    0.0000 C   0  0  0  0  0  0  0  0  0  0  0  0
    0.0000    4.5000    0.0000 C   0  0  0  0  0  0  0  0  0  0  0  0
    2.6000    1.5000    0.0000 C   0  0  0  0  0  0  0  0  0  0  0  0
    1.3000    3.7500    0.0000 C   0  0  0  0  0  0  0  0  0  0  0  0
    2.5989    4.5002    0.0000 O   0  0  0  0  0  0  0  0  0  0  0  0
    1.3000    2.2500    0.0000 O   0  0  0  0  0  0  0  0  0  0  0  0
  2  1  1  0
  3  1  1  0
  4  2  1  0
  5  3  1  0
  6  4  1  0
  7  5  1  0
  8  6  1  0
  9  7  1  0
 10  8  1  0
 11  9  1  0
 12 10  1  0
 13 11  1  0
 14 12  1  0
 15 13  1  0
 16 14  1  0
 17 16  2  0
 18 15  1  0
 18 16  1  0
M  END
>  <NAME>  (2305) 
CYCLOHEXADECANOLIDE

>  <SYNONYMS>  (2305) 


>  <SPECTRUM TYPE>  (2305) 
MS1

>  <INSTRUMENT TYPE>  (2305) 
EI-B

>  <INSTRUMENT>  (2305) 
HITACHI M-80B

>  <ION MODE>  (2305) 
P

>  <INCHIKEY>  (2305) 
LOKPJYNMYCVCRM-UHFFFAOYSA-N

>  <FORMULA>  (2305) 
C16H30O2

>  <EXACT MASS>  (2305) 
254.2245802

>  <MW>  (2305) 
254

>  <ID>  (2305) 
JP008720

>  <CONTRIBUTOR>  (2305) 
University of Tokyo Team, {Faculty of Engineering, University of Tokyo

>  <COMMENT>  (2305) 
SMILES=O=C(C1)OCCCCCCCCCCCCCC1
InChI=InChI=1S/C16H30O2/c17-16-14-12-10-8-6-4-2-1-3-5-7-9-11-13-15-18-16/h1-15H2
computed SMILES=O=C1OCCCCCCCCCCCCCCC1
accession=JP008720
date=2016.01.19 (Created 2008.10.21, modified 2011.05.06)
author=SODA AROMATIC CO., LTD.
license=CC BY-NC-SA
exact mass=254.22458
ionization energy=70 eV
ion type=[M]+*
computed spectral entropy=3.8802838870353358
computed normalized entropy=0.8425929401787736
SPLASH=splash10-0536-9200000000-49fcef62c52ad36c82ba
submitter=submitter = University of Tokyo Team (Faculty of Engineering, University of Tokyo)
MoNA Rating=3.75

>  <NUM PEAKS>  (2305) 
100

>  <MASS SPECTRAL PEAKS>  (2305) 
27 11.4
28 4.72
29 31.21
31 2.46
39 10.9
40 3.11
41 86.51
42 26.23
43 44.8
44 2.03
45 2.8
53 5.72
54 11.06
55 99.99
56 28.32
57 21.58
58 6.37
59 3.37
60 8.39
61 3.7
65 1.23
66 2.16
67 18.86
68 19.47
69 60.25
70 19.38
71 14.07
72 1.49
73 12.91
74 1.53
79 3.25
80 3.1
81 17.42
82 33.96
83 45.74
84 22.51
85 6.05
87 4.99
93 2.22
94 3.3
95 13.97
96 29.59
97 36.03
98 20.5
99 3.42
100 3.69
101 5.97
102 1.64
107 1.66
108 2.62
109 8.24
110 12.49
111 13.14
112 6.66
113 3.81
114 6.27
115 3.87
116 4.59
121 1.32
122 1.94
123 7.1
124 7.97
125 6.63
126 3.23
127 4.78
128 1.56
129 5.72
133 1.56
134 1.91
135 1.87
136 1.73
137 5.05
138 6.09
139 4.06
140 1.76
141 1.8
143 1.7
147 1.36
148 1.31
149 1.29
151 3.64
152 5.33
153 2.56
154 1.28
155 1.41
158 1.3
165 2.82
166 3.41
167 1.43
172 1.79
179 1.77
185 2.03
192 3.13
193 1.9
194 6.19
208 2.14
236 9.42
237 2.01
254 8.62
255 1.89

>  <PREDICTED SPECTRUM>  (2305) 
17 18
18 27
25 2
26 75
27 291
28 145
29 377
30 81
31 106
32 22
34 8
38 12
39 328
40 152
41 902
42 454
43 720
44 190
45 219
46 29
50 9
51 74
52 54
53 297
54 498
55 999
56 574
57 520
58 391
59 359
60 254
61 135
62 5
63 40
65 135
66 168
67 581
68 507
69 738
70 540
71 507
72 256
73 391
74 157
75 31
76 32
77 129
78 68
79 271
80 243
81 485
82 575
83 663
84 590
85 295
86 139
87 237
88 121
89 39
91 69
92 51
93 182
94 290
95 499
96 561
97 569
98 647
99 267
100 177
101 233
102 98
103 47
105 72
106 56
107 152
108 205
109 329
110 341
111 451
112 239
113 251
114 202
115 193
116 113
117 59
119 39
120 61
121 123
122 164
123 280
124 282
125 319
126 186
127 164
128 152
129 163
130 125
131 60
132 27
133 47
134 31
135 244
136 88
137 202
138 239
139 141
140 138
141 94
142 97
143 108
144 91
146 10
147 87
148 135
149 107
150 130
151 178
152 201
153 118
154 100
155 167
156 84
157 143
158 101
159 7
161 13
162 47
163 61
164 19
165 173
166 310
167 152
168 93
169 86
170 72
171 140
172 118
178 65
179 120
180 136
181 68
182 55
183 51
184 48
185 84
186 57
187 0
192 107
193 153
194 181
195 83
196 110
197 73
198 41
199 50
200 8
207 37
208 129
209 10
210 39
211 98
212 6
213 32
218 50
219 1
221 41
225 73
226 59
235 0
236 308
237 154
238 68
239 103
254 260
255 113
256 4

$$$$

     RDKit          2D

 17 17  0  0  0  0  0  0  0  0999 V2000
    1.8700    3.4200    0.0000 C   0  0  0  0  0  0  0  0  0  0  0  0
    1.8700    1.9200    0.0000 C   0  0  0  0  0  0  0  0  0  0  0  0
    0.5700    4.1700    0.0000 C   0  0  0  0  0  0  0  0  0  0  0  0
    3.1700    1.1700    0.0000 C   0  0  0  0  0  0  0  0  0  0  0  0
   -0.7300    3.4200    0.0000 C   0  0  0  0  0  0  0  0  0  0  0  0
    3.1700   -0.3300    0.0000 C   0  0  0  0  0  0  0  0  0  0  0  0
   -0.7300    1.9200    0.0000 C   0  0  0  0  0  0  0  0  0  0  0  0
    1.8700   -1.0800    0.0000 C   0  0  0  0  0  0  0  0  0  0  0  0
   -2.0300    1.1700    0.0000 C   0  0  0  0  0  0  0  0  0  0  0  0
    1.8700   -2.5800    0.0000 C   0  0  0  0  0  0  0  0  0  0  0  0
   -2.0300   -0.3300    0.0000 C   0  0  0  0  0  0  0  0  0  0  0  0
    0.5700   -3.3300    0.0000 C   0  0  0  0  0  0  0  0  0  0  0  0
   -3.3300   -1.0800    0.0000 C   0  0  0  0  0  0  0  0  0  0  0  0
   -0.7300   -2.5800    0.0000 C   0  0  0  0  0  0  0  0  0  0  0  0
   -3.3300   -2.5800    0.0000 C   0  0  0  0  0  0  0  0  0  0  0  0
   -4.6289   -3.3302    0.0000 O   0  0  0  0  0  0  0  0  0  0  0  0
   -2.0300   -3.3300    0.0000 O   0  0  0  0  0  0  0  0  0  0  0  0
  2  1  1  0
  3  1  1  0
  4  2  1  0
  5  3  1  0
  6  4  1  0
  7  5  1  0
  8  6  1  0
  9  7  1  0
 10  8  1  0
 11  9  1  0
 12 10  1  0
 13 11  1  0
 14 12  1  0
 15 13  1  0
 16 15  2  0
 17 14  1  0
 17 15  1  0
M  END
>  <NAME>  (2306) 
CYCLOPENTADECANOLIDE

>  <SYNONYMS>  (2306) 


>  <SPECTRUM TYPE>  (2306) 
MS1

>  <INSTRUMENT TYPE>  (2306) 
EI-B

>  <INSTRUMENT>  (2306) 
HITACHI M-80B

>  <ION MODE>  (2306) 
P

>  <INCHIKEY>  (2306) 
FKUPPRZPSYCDRS-UHFFFAOYSA-N

>  <FORMULA>  (2306) 
C15H28O2

>  <EXACT MASS>  (2306) 
240.208930136

>  <MW>  (2306) 
240

>  <ID>  (2306) 
JP008719

>  <CONTRIBUTOR>  (2306) 
University of Tokyo Team, {Faculty of Engineering, University of Tokyo

>  <COMMENT>  (2306) 
SMILES=O=C(C1)OCCCCCCCCCCCCC1
InChI=InChI=1S/C15H28O2/c16-15-13-11-9-7-5-3-1-2-4-6-8-10-12-14-17-15/h1-14H2
computed SMILES=O=C1OCCCCCCCCCCCCCC1
accession=JP008719
date=2016.01.19 (Created 2008.10.21, modified 2011.05.06)
author=SODA AROMATIC CO., LTD.
license=CC BY-NC-SA
exact mass=240.20893
ionization energy=70 eV
ion type=[M]+*
computed spectral entropy=3.733108605276117
computed normalized entropy=0.8296147790184477
SPLASH=splash10-052f-9100000000-d4c22e0ccf95d372054e
submitter=submitter = University of Tokyo Team (Faculty of Engineering, University of Tokyo)
MoNA Rating=3.75

>  <NUM PEAKS>  (2306) 
90

>  <MASS SPECTRAL PEAKS>  (2306) 
27 19.08
29 33.72
30 1.13
31 2.7
39 17.99
41 99.99
42 29.71
43 40.8
44 1.58
45 2.79
53 7.31
54 14.16
55 98.81
56 29.3
57 21.49
58 5.47
59 3
60 7.71
61 3.14
65 1.15
66 1.66
67 21.32
68 23.75
69 55.28
70 18.32
71 13.37
72 1.29
73 13.35
74 1.51
79 3.21
80 2.64
81 19.4
82 30.35
83 40.37
84 22.7
85 4.75
87 3.94
93 1.8
94 2.9
95 13.3
96 26.59
97 26.68
98 22.53
99 2.81
100 3.3
101 4.76
102 1.05
107 1.25
108 1.9
109 6.99
110 14.42
111 11.29
112 5.23
113 2.57
114 6.1
115 3.47
116 3.62
121 1.42
122 1.64
123 6.23
124 6.94
125 5.31
126 1.9
127 3.23
128 1.37
129 3.78
133 1.12
134 1.15
135 1.41
136 1.18
137 4.12
138 6.27
139 3.02
140 1.14
141 1.53
151 2.92
152 3.81
153 1.5
155 1.02
158 1.1
165 1.67
172 1.52
178 2.75
179 1.67
180 5.74
181 1.42
194 1.52
222 5.7
223 1.14
240 4.15

>  <PREDICTED SPECTRUM>  (2306) 
17 15
18 25
25 1
26 71
27 283
28 141
29 359
30 57
31 118
32 21
34 6
36 0
38 27
39 328
40 155
41 896
42 467
43 700
44 191
45 218
46 42
50 14
51 83
52 61
53 300
54 504
55 999
56 567
57 510
58 363
59 327
60 260
61 125
62 8
63 38
64 9
65 135
66 167
67 574
68 510
69 726
70 534
71 472
72 236
73 381
74 151
75 26
76 0
77 133
78 66
79 274
80 248
81 476
82 563
83 654
84 613
85 303
86 134
87 230
88 89
89 45
91 101
92 48
93 172
94 283
95 481
96 551
97 546
98 676
99 268
100 193
101 246
102 120
103 58
105 55
106 64
107 143
108 189
109 336
110 343
111 451
112 273
113 235
114 180
115 156
116 121
117 68
118 35
119 87
120 41
121 174
122 173
123 276
124 276
125 310
126 196
127 192
128 176
129 200
130 121
131 4
132 20
133 62
134 92
135 217
136 113
137 209
138 236
139 157
140 146
141 96
142 91
143 167
144 95
145 35
147 86
148 161
149 127
150 75
151 197
152 208
153 121
154 85
155 115
156 77
157 128
158 152
162 25
163 22
164 44
165 161
166 283
167 136
168 75
169 54
170 55
171 82
172 84
173 1
178 122
179 146
180 192
181 86
182 92
183 112
184 37
185 44
186 15
193 133
194 152
195 33
196 57
197 68
198 56
199 35
204 47
207 15
211 68
212 8
222 318
223 147
224 78
225 75
226 33
240 106
241 110
242 3

$$$$

     RDKit          2D

 16 16  0  0  0  0  0  0  0  0999 V2000
   -9.0933    3.3200    0.0000 C   0  0  0  0  0  0  0  0  0  0  0  0
   -7.7942    2.5700    0.0000 C   0  0  0  0  0  0  0  0  0  0  0  0
   -6.4952    3.3200    0.0000 C   0  0  0  0  0  0  0  0  0  0  0  0
   -5.1962    2.5700    0.0000 C   0  0  0  0  0  0  0  0  0  0  0  0
    0.0000   -1.9300    0.0000 C   0  0  0  0  0  0  0  0  0  0  0  0
   -3.8971    3.3200    0.0000 C   0  0  0  0  0  0  0  0  0  0  0  0
    1.3000   -1.1800    0.0000 C   0  0  0  0  0  0  0  0  0  0  0  0
   -1.3000   -1.1800    0.0000 C   0  0  0  0  0  0  0  0  0  0  0  0
    1.3000    0.3200    0.0000 C   0  0  0  0  0  0  0  0  0  0  0  0
   -1.3000    0.3200    0.0000 C   0  0  0  0  0  0  0  0  0  0  0  0
   -2.5981    2.5700    0.0000 C   0  0  0  0  0  0  0  0  0  0  0  0
    0.0000    2.5700    0.0000 C   0  0  0  0  0  0  0  0  0  0  0  0
   -1.2990    4.8200    0.0000 C   0  0  0  0  0  0  0  0  0  0  0  0
    0.0000    1.0700    0.0000 C   0  0  0  0  0  0  0  0  0  0  0  0
   -1.2990    3.3200    0.0000 C   0  0  0  0  0  0  0  0  0  0  0  0
    0.0000    5.5700    0.0000 O   0  0  0  0  0  0  0  0  0  0  0  0
  2  1  1  0
  3  2  1  0
  4  3  1  0
  6  4  1  0
  7  5  2  0
  8  5  1  0
  9  7  1  0
 10  8  2  0
 11  6  1  0
 14  9  2  0
 14 10  1  0
 14 12  1  0
 15 11  1  0
 12 15  2  0
 15 13  1  0
 16 13  2  0
M  END
>  <NAME>  (2307) 
ALPHA-HEXYLCINNAMALDEHYDE

>  <SYNONYMS>  (2307) 


>  <SPECTRUM TYPE>  (2307) 
MS1

>  <INSTRUMENT TYPE>  (2307) 
EI-B

>  <INSTRUMENT>  (2307) 
HITACHI M-80B

>  <ION MODE>  (2307) 
P

>  <INCHIKEY>  (2307) 
GUUHFMWKWLOQMM-NTCAYCPXSA-N

>  <FORMULA>  (2307) 
C15H20O

>  <EXACT MASS>  (2307) 
216.15141526

>  <MW>  (2307) 
216

>  <ID>  (2307) 
JP008718

>  <CONTRIBUTOR>  (2307) 
University of Tokyo Team, {Faculty of Engineering, University of Tokyo

>  <COMMENT>  (2307) 
SMILES=CCCCCCC(C=O)=Cc(c1)cccc1
InChI=InChI=1S/C15H20O/c1-2-3-4-6-11-15(13-16)12-14-9-7-5-8-10-14/h5,7-10,12-13H,2-4,6,11H2,1H3/b15-12+
computed SMILES=O=CC(=CC=1C=CC=CC1)CCCCCC
accession=JP008718
date=2016.01.19 (Created 2008.10.21, modified 2011.05.06)
author=SODA AROMATIC CO., LTD.
license=CC BY-NC-SA
exact mass=216.15142
ionization energy=70 eV
ion type=[M]+*
computed spectral entropy=3.5606827939343937
computed normalized entropy=0.8661620160535964
SPLASH=splash10-014l-5910000000-b22a42c164a28ba714e4
submitter=submitter = University of Tokyo Team (Faculty of Engineering, University of Tokyo)
MoNA Rating=3.75

>  <NUM PEAKS>  (2307) 
61

>  <MASS SPECTRAL PEAKS>  (2307) 
16 1.61
17 1.86
27 21.72
29 25.58
39 25.17
40 2.29
41 33.89
42 5.91
43 27.18
50 1.43
51 13.02
52 2.3
53 7.13
55 15.16
57 4.53
63 8.29
65 13.4
67 7.58
69 4.55
76 2.12
77 19.55
78 14.99
79 4.88
82 13.1
83 11.66
89 7.98
91 96.95
92 11.9
95 7.63
102 7.49
103 9.56
104 15.02
105 9.63
115 78.81
116 35.62
117 99.79
118 19.23
125 3.86
127 9.42
128 20.83
129 99.99
130 17.11
131 42.25
132 5.08
133 2.41
141 15.37
142 5.22
143 4.93
145 52.56
146 12.06
155 5.78
158 3.67
159 14.85
160 4.01
173 15.92
174 10.3
185 1.79
187 1.1
215 24.93
216 50.43
217 8

>  <PREDICTED SPECTRUM>  (2307) 
14 0
25 4
26 71
27 252
28 83
29 299
32 28
36 1
38 61
39 347
40 137
41 478
42 198
43 548
44 121
45 101
50 188
51 355
52 189
53 191
54 51
55 385
56 87
57 206
58 94
62 91
63 246
64 126
65 333
66 88
67 154
68 12
69 184
70 107
71 188
72 27
73 15
74 119
75 118
76 184
77 433
78 287
79 290
80 60
81 179
82 56
83 34
84 81
85 32
86 78
87 9
89 221
90 124
91 955
92 413
93 161
94 42
95 161
96 57
97 168
98 112
99 48
100 37
101 44
102 295
103 349
104 378
105 348
106 59
109 39
111 123
112 19
113 17
115 757
116 528
117 999
118 458
119 164
124 58
125 138
126 92
127 291
128 545
129 920
130 464
131 572
132 263
133 110
139 67
141 191
142 157
143 178
144 174
145 871
146 487
147 139
153 30
154 2
155 94
156 95
157 146
158 80
159 238
160 42
169 117
170 36
171 133
172 55
173 185
174 63
187 312
188 123
189 11
200 5
201 8
215 425
216 726
217 306
218 105

$$$$

     RDKit          2D

 15 15  0  0  0  0  0  0  0  0999 V2000
    3.8974    2.7991    0.0000 C   0  0  0  0  0  0  0  0  0  0  0  0
   -4.6488    1.0972    0.0000 C   0  0  0  0  0  0  0  0  0  0  0  0
   -5.1975   -0.9519    0.0000 C   0  0  0  0  0  0  0  0  0  0  0  0
   -3.1483   -1.5006    0.0000 C   0  0  0  0  0  0  0  0  0  0  0  0
    0.0004    0.5485    0.0000 C   0  0  0  0  0  0  0  0  0  0  0  0
   -1.2996    2.7985    0.0000 C   0  0  0  0  0  0  0  0  0  0  0  0
   -1.2996   -0.2015    0.0000 C   0  0  0  0  0  0  0  0  0  0  0  0
   -2.5996    2.0485    0.0000 C   0  0  0  0  0  0  0  0  0  0  0  0
    1.2993    2.7987    0.0000 C   0  0  0  0  0  0  0  0  0  0  0  0
    2.5987    0.5489    0.0000 C   0  0  0  0  0  0  0  0  0  0  0  0
    2.5984    2.0489    0.0000 C   0  0  0  0  0  0  0  0  0  0  0  0
    0.0004    2.0485    0.0000 C   0  0  0  0  0  0  0  0  0  0  0  0
   -2.5996    0.5485    0.0000 C   0  0  0  0  0  0  0  0  0  0  0  0
   -3.8986   -0.2017    0.0000 C   0  0  0  0  0  0  0  0  0  0  0  0
    3.8978   -0.2009    0.0000 O   0  0  0  0  0  0  0  0  0  0  0  0
  7  5  2  0
  8  6  1  0
 11  1  1  0
 11  9  1  0
 11 10  1  0
 12  5  1  0
 12  6  2  0
 12  9  1  0
 13  7  1  0
 13  8  2  0
 14  2  1  0
 14  3  1  0
 14  4  1  0
 14 13  1  0
 15 10  2  0
M  END
>  <NAME>  (2308) 
2-METHYL-3-(4-T-BUTYLPHENYL)PROPIONALDEHYDE

>  <SYNONYMS>  (2308) 
LILY ALDEHYDE

>  <SPECTRUM TYPE>  (2308) 
MS1

>  <INSTRUMENT TYPE>  (2308) 
EI-B

>  <INSTRUMENT>  (2308) 
HITACHI M-80B

>  <ION MODE>  (2308) 
P

>  <INCHIKEY>  (2308) 
SDQFDHOLCGWZPU-UHFFFAOYSA-N

>  <FORMULA>  (2308) 
C14H20O

>  <EXACT MASS>  (2308) 
204.15141526

>  <MW>  (2308) 
204

>  <ID>  (2308) 
JP008717

>  <CONTRIBUTOR>  (2308) 
University of Tokyo Team, {Faculty of Engineering, University of Tokyo

>  <COMMENT>  (2308) 
SMILES=O=CC(C)Cc(c1)ccc(c1)C(C)(C)C
InChI=InChI=1S/C14H20O/c1-11(10-15)9-12-5-7-13(8-6-12)14(2,3)4/h5-8,10-11H,9H2,1-4H3
computed SMILES=O=CC(C)CC1=CC=C(C=C1)C(C)(C)C
accession=JP008717
date=2016.01.19 (Created 2008.10.21, modified 2011.05.06)
author=SODA AROMATIC CO., LTD.
license=CC BY-NC-SA
exact mass=204.15142
ionization energy=70 eV
ion type=[M]+*
computed spectral entropy=3.1910763282239474
computed normalized entropy=0.807613135382498
SPLASH=splash10-000l-3900000000-63ac003c22ef7601bf05
submitter=submitter = University of Tokyo Team (Faculty of Engineering, University of Tokyo)
MoNA Rating=3.75

>  <NUM PEAKS>  (2308) 
52

>  <MASS SPECTRAL PEAKS>  (2308) 
27 4.18
29 8.99
39 5.53
41 16.83
43 2.82
51 2.88
52 1.02
53 2.34
55 2.45
57 14.23
63 2.22
64 1.94
65 5.03
66 1.03
77 4.98
78 2.6
79 2.37
89 2.25
90 1.08
91 25.7
92 3.65
102 1.32
103 3.01
104 3.21
105 9
107 1.02
115 12.85
116 4.54
117 24.84
118 2.76
119 16.22
120 1.82
127 1.86
128 4.59
129 3.95
130 5.08
131 29.98
132 17.84
133 3.14
134 1.08
143 1.01
145 8.7
146 1.88
147 41.21
148 7.86
159 1.32
161 2.22
187 1.59
189 99.99
190 14.34
204 23.16
205 3.05

>  <PREDICTED SPECTRUM>  (2308) 
15 1
18 8
26 39
27 188
28 62
29 246
34 7
38 55
39 398
40 158
41 793
42 151
43 234
44 90
45 71
46 2
50 117
51 280
52 136
53 299
54 64
55 458
56 64
57 726
58 223
59 125
60 0
62 92
63 263
64 158
65 360
66 95
67 158
69 262
70 58
71 141
72 48
74 52
75 62
76 95
77 456
78 234
79 281
80 43
81 109
83 29
84 21
85 27
86 132
87 54
88 18
89 188
90 139
91 886
92 273
93 162
94 26
95 118
96 10
97 6
100 7
101 4
102 126
103 209
104 171
105 595
106 221
107 147
108 4
109 65
113 12
115 623
116 300
117 638
118 380
119 624
120 149
121 163
122 30
123 11
125 28
126 67
127 297
128 421
129 384
130 159
131 582
132 620
133 341
134 153
135 88
139 22
141 165
142 95
143 243
144 117
145 475
146 548
147 930
148 193
149 111
150 5
157 85
158 103
159 276
160 87
161 560
162 201
163 99
171 160
172 157
173 87
174 34
175 283
176 119
185 18
186 83
187 126
188 85
189 999
190 411
191 87
203 79
204 793
205 301
206 93

$$$$

     RDKit          2D

 15 15  0  0  0  0  0  0  0  0999 V2000
   -7.7942    2.5700    0.0000 C   0  0  0  0  0  0  0  0  0  0  0  0
   -6.4952    3.3200    0.0000 C   0  0  0  0  0  0  0  0  0  0  0  0
   -5.1962    2.5700    0.0000 C   0  0  0  0  0  0  0  0  0  0  0  0
    0.0000   -1.9300    0.0000 C   0  0  0  0  0  0  0  0  0  0  0  0
   -3.8971    3.3200    0.0000 C   0  0  0  0  0  0  0  0  0  0  0  0
    1.3000   -1.1800    0.0000 C   0  0  0  0  0  0  0  0  0  0  0  0
   -1.3000   -1.1800    0.0000 C   0  0  0  0  0  0  0  0  0  0  0  0
    1.3000    0.3200    0.0000 C   0  0  0  0  0  0  0  0  0  0  0  0
   -1.3000    0.3200    0.0000 C   0  0  0  0  0  0  0  0  0  0  0  0
   -2.5981    2.5700    0.0000 C   0  0  0  0  0  0  0  0  0  0  0  0
    0.0000    2.5700    0.0000 C   0  0  0  0  0  0  0  0  0  0  0  0
   -1.2990    4.8200    0.0000 C   0  0  0  0  0  0  0  0  0  0  0  0
    0.0000    1.0700    0.0000 C   0  0  0  0  0  0  0  0  0  0  0  0
   -1.2990    3.3200    0.0000 C   0  0  0  0  0  0  0  0  0  0  0  0
   -2.5981    5.5700    0.0000 O   0  0  0  0  0  0  0  0  0  0  0  0
  2  1  1  0
  3  2  1  0
  5  3  1  0
  6  4  2  0
  7  4  1  0
  8  6  1  0
  9  7  2  0
 10  5  1  0
 13  8  2  0
 13  9  1  0
 13 11  1  0
 14 10  1  0
 11 14  2  0
 14 12  1  0
 15 12  2  0
M  END
>  <NAME>  (2309) 
ALPHA-AMYLCINNAMALDEHYDE

>  <SYNONYMS>  (2309) 


>  <SPECTRUM TYPE>  (2309) 
MS1

>  <INSTRUMENT TYPE>  (2309) 
EI-B

>  <INSTRUMENT>  (2309) 
HITACHI M-80B

>  <ION MODE>  (2309) 
P

>  <INCHIKEY>  (2309) 
HMKKIXGYKWDQSV-SDNWHVSQSA-N

>  <FORMULA>  (2309) 
C14H18O

>  <EXACT MASS>  (2309) 
202.135765196

>  <MW>  (2309) 
202

>  <ID>  (2309) 
JP008716

>  <CONTRIBUTOR>  (2309) 
University of Tokyo Team, {Faculty of Engineering, University of Tokyo

>  <COMMENT>  (2309) 
SMILES=CCCCCC(C=O)=Cc(c1)cccc1
InChI=InChI=1S/C14H18O/c1-2-3-5-10-14(12-15)11-13-8-6-4-7-9-13/h4,6-9,11-12H,2-3,5,10H2,1H3/b14-11+
computed SMILES=O=CC(=CC=1C=CC=CC1)CCCCC
accession=JP008716
date=2016.01.19 (Created 2008.10.21, modified 2011.05.06)
author=SODA AROMATIC CO., LTD.
license=CC BY-NC-SA
exact mass=202.13577
ionization energy=70 eV
ion type=[M]+*
computed spectral entropy=3.5760689382351196
computed normalized entropy=0.8232571653057749
SPLASH=splash10-016u-6910000000-76423c557f3f4dd7528d
submitter=submitter = University of Tokyo Team (Faculty of Engineering, University of Tokyo)
MoNA Rating=3.75

>  <NUM PEAKS>  (2309) 
77

>  <MASS SPECTRAL PEAKS>  (2309) 
14 1.6
27 24.43
29 31.64
39 25.26
40 1.03
41 32.12
42 2.77
43 7.03
50 3.77
51 14.16
52 4.12
53 7.17
54 2.72
55 9.15
57 3.95
62 2.12
63 8.87
64 2.19
65 14.4
67 6.11
68 2.03
69 3.01
75 2.78
76 3.75
77 17.61
78 13.88
79 3.83
81 3.52
82 2.17
83 2.07
85 1.93
87 1.09
89 8.15
90 1.44
91 99.69
92 9.72
93 2.07
95 6.68
96 1.23
102 7.42
103 8.14
104 11.75
105 7.99
111 6.93
114 1.95
115 85.28
116 30.56
117 99.99
118 15.85
119 1.23
120 1.51
127 8.58
128 16.52
129 91.3
130 12.79
131 39.14
132 6.16
133 1.94
141 12.27
142 3.63
143 3.15
144 2.71
145 53.16
146 10.23
147 1.25
155 5.61
156 1.41
157 1.36
158 2.88
159 8.95
160 1.95
171 3.13
173 14.62
174 3
201 23.11
202 51.37
203 6.72

>  <PREDICTED SPECTRUM>  (2309) 
14 1
15 15
18 9
25 0
26 71
27 245
28 65
29 259
32 8
36 5
37 17
38 110
39 434
40 173
41 527
42 190
43 577
44 139
45 84
50 220
51 387
52 233
53 224
54 68
55 412
56 69
57 238
58 90
59 32
62 134
63 298
64 172
65 360
66 133
67 181
68 23
69 186
70 121
71 233
72 65
73 22
74 149
75 164
76 205
77 459
78 291
79 294
80 73
81 209
82 68
83 68
84 52
85 172
86 77
87 30
88 14
89 251
90 190
91 831
92 348
93 139
94 56
95 242
96 56
97 125
98 45
99 106
100 55
101 62
102 334
103 389
104 323
105 324
106 27
107 113
109 75
110 71
111 118
112 27
113 47
114 54
115 785
116 521
117 813
118 276
119 132
126 32
127 185
128 399
129 651
130 217
131 999
132 471
133 183
134 4
141 177
142 179
143 155
144 123
145 368
146 241
147 68
155 89
156 70
157 154
158 70
159 350
160 154
173 317
174 94
175 0
187 49
201 416
202 633
203 267
204 68

$$$$

     RDKit          2D

 14 14  0  0  0  0  0  0  0  0999 V2000
    3.8981    0.7504    0.0000 C   0  0  0  0  0  0  0  0  0  0  0  0
    2.5987    3.0002    0.0000 C   0  0  0  0  0  0  0  0  0  0  0  0
   -5.1970   -1.5006    0.0000 C   0  0  0  0  0  0  0  0  0  0  0  0
   -1.3000    0.7500    0.0000 C   0  0  0  0  0  0  0  0  0  0  0  0
    0.0000   -1.5000    0.0000 C   0  0  0  0  0  0  0  0  0  0  0  0
    0.0000    1.5000    0.0000 C   0  0  0  0  0  0  0  0  0  0  0  0
    1.3000   -0.7500    0.0000 C   0  0  0  0  0  0  0  0  0  0  0  0
   -2.5989   -1.5002    0.0000 C   0  0  0  0  0  0  0  0  0  0  0  0
   -3.8983    0.7496    0.0000 C   0  0  0  0  0  0  0  0  0  0  0  0
    2.5989    1.5002    0.0000 C   0  0  0  0  0  0  0  0  0  0  0  0
   -3.8981   -0.7504    0.0000 C   0  0  0  0  0  0  0  0  0  0  0  0
   -1.3000   -0.7500    0.0000 C   0  0  0  0  0  0  0  0  0  0  0  0
    1.3000    0.7500    0.0000 C   0  0  0  0  0  0  0  0  0  0  0  0
   -5.1975    1.4994    0.0000 O   0  0  0  0  0  0  0  0  0  0  0  0
  6  4  2  0
  7  5  1  0
 10  1  1  0
 10  2  1  0
 11  3  1  0
 11  8  1  0
 11  9  1  0
 12  4  1  0
 12  5  2  0
 12  8  1  0
 13  6  1  0
 13  7  2  0
 13 10  1  0
 14  9  2  0
M  END
>  <NAME>  (2310) 
2-METHYL-3-(4-ISOPROPYLPHENYL)PROPIONALDEHYDE

>  <SYNONYMS>  (2310) 
CYCLAMEN ALDEHYDE

>  <SPECTRUM TYPE>  (2310) 
MS1

>  <INSTRUMENT TYPE>  (2310) 
EI-B

>  <INSTRUMENT>  (2310) 
HITACHI M-80B

>  <ION MODE>  (2310) 
P

>  <INCHIKEY>  (2310) 
ZFNVDHOSLNRHNN-UHFFFAOYSA-N

>  <FORMULA>  (2310) 
C13H18O

>  <EXACT MASS>  (2310) 
190.135765196

>  <MW>  (2310) 
190

>  <ID>  (2310) 
JP008715

>  <CONTRIBUTOR>  (2310) 
University of Tokyo Team, {Faculty of Engineering, University of Tokyo

>  <COMMENT>  (2310) 
SMILES=O=CC(C)Cc(c1)ccc(C(C)C)c1
InChI=InChI=1S/C13H18O/c1-10(2)13-6-4-12(5-7-13)8-11(3)9-14/h4-7,9-11H,8H2,1-3H3
computed SMILES=O=CC(C)CC1=CC=C(C=C1)C(C)C
accession=JP008715
date=2016.01.19 (Created 2008.10.21, modified 2011.05.06)
author=SODA AROMATIC CO., LTD.
license=CC BY-NC-SA
exact mass=190.13577
ionization energy=70 eV
ion type=[M]+*
computed spectral entropy=3.4428244937732324
computed normalized entropy=0.837492126376779
SPLASH=splash10-00lu-4900000000-390e75a8bec4be806299
submitter=submitter = University of Tokyo Team (Faculty of Engineering, University of Tokyo)
MoNA Rating=3.75

>  <NUM PEAKS>  (2310) 
61

>  <MASS SPECTRAL PEAKS>  (2310) 
15 2.13
27 9.78
29 9.3
32 4.43
39 9.07
41 13.37
42 1.14
43 11.2
44 2.77
50 2.15
51 5.91
52 2.17
53 3.4
55 2.88
58 1.63
63 4
64 2.06
65 5.38
67 1.35
69 1.68
75 1.69
76 1.57
77 8.44
78 4.36
79 4.53
89 3.94
90 1.15
91 33.14
92 7.52
93 2.91
102 2.22
103 6.09
104 3.24
105 32.79
106 4.24
115 14.99
116 5.53
117 28.69
118 12.05
119 7.65
120 7.73
121 1.28
127 2.26
128 4.24
129 5.88
130 2.69
131 8.71
132 6.4
133 99.99
134 10.96
135 1.24
145 3.92
146 1.62
147 16.53
148 3.21
157 1.44
160 1.14
175 19.59
176 3.23
190 28.04
191 4.64

>  <PREDICTED SPECTRUM>  (2310) 
17 15
18 18
26 28
27 192
28 61
29 136
36 5
38 52
39 312
40 133
41 529
42 61
43 334
44 128
45 86
46 15
50 105
51 247
52 108
53 252
54 61
55 249
56 65
57 125
58 72
59 38
60 10
62 54
63 210
64 143
65 305
66 93
67 86
68 7
69 58
71 8
72 4
73 17
74 49
75 59
76 48
77 418
78 229
79 321
80 73
81 67
86 39
87 14
88 30
89 147
90 103
91 714
92 246
93 74
95 92
96 7
100 11
101 89
102 187
103 321
104 147
105 513
106 199
107 159
108 52
109 48
113 26
115 524
116 266
117 653
118 332
119 895
120 264
121 85
127 241
128 319
129 353
130 211
131 358
132 296
133 999
134 35
135 63
141 63
142 3
143 94
144 126
145 274
146 345
147 799
148 319
149 59
156 6
157 292
158 233
160 19
161 205
162 87
172 26
173 23
175 339
176 117
188 66
189 79
190 774
191 299
192 73

$$$$

     RDKit          2D

 14 14  0  0  0  0  0  0  0  0999 V2000
   -6.4952    3.3200    0.0000 C   0  0  0  0  0  0  0  0  0  0  0  0
   -5.1962    2.5700    0.0000 C   0  0  0  0  0  0  0  0  0  0  0  0
   -3.8971    3.3200    0.0000 C   0  0  0  0  0  0  0  0  0  0  0  0
    0.0000   -1.9300    0.0000 C   0  0  0  0  0  0  0  0  0  0  0  0
    1.3000   -1.1800    0.0000 C   0  0  0  0  0  0  0  0  0  0  0  0
   -1.3000   -1.1800    0.0000 C   0  0  0  0  0  0  0  0  0  0  0  0
   -2.5981    2.5700    0.0000 C   0  0  0  0  0  0  0  0  0  0  0  0
    1.3000    0.3200    0.0000 C   0  0  0  0  0  0  0  0  0  0  0  0
   -1.3000    0.3200    0.0000 C   0  0  0  0  0  0  0  0  0  0  0  0
    0.0000    2.5700    0.0000 C   0  0  0  0  0  0  0  0  0  0  0  0
   -1.2990    4.8200    0.0000 C   0  0  0  0  0  0  0  0  0  0  0  0
    0.0000    1.0700    0.0000 C   0  0  0  0  0  0  0  0  0  0  0  0
   -1.2990    3.3200    0.0000 C   0  0  0  0  0  0  0  0  0  0  0  0
   -2.5981    5.5700    0.0000 O   0  0  0  0  0  0  0  0  0  0  0  0
  2  1  1  0
  3  2  1  0
  5  4  2  0
  6  4  1  0
  7  3  1  0
  8  5  1  0
  9  6  2  0
 12  8  2  0
 12  9  1  0
 12 10  1  0
 13  7  1  0
 10 13  2  0
 13 11  1  0
 14 11  2  0
M  END
>  <NAME>  (2311) 
ALPHA-BUTYLCINNAMALDEHYDE

>  <SYNONYMS>  (2311) 


>  <SPECTRUM TYPE>  (2311) 
MS1

>  <INSTRUMENT TYPE>  (2311) 
EI-B

>  <INSTRUMENT>  (2311) 
HITACHI M-80B

>  <ION MODE>  (2311) 
P

>  <INCHIKEY>  (2311) 
GFBCBQNBXRPRQD-JLHYYAGUSA-N

>  <FORMULA>  (2311) 
C13H16O

>  <EXACT MASS>  (2311) 
188.120115132

>  <MW>  (2311) 
188

>  <ID>  (2311) 
JP008714

>  <CONTRIBUTOR>  (2311) 
University of Tokyo Team, {Faculty of Engineering, University of Tokyo

>  <COMMENT>  (2311) 
SMILES=CCCCC(C=O)=Cc(c1)cccc1
InChI=InChI=1S/C13H16O/c1-2-3-7-13(11-14)10-12-8-5-4-6-9-12/h4-6,8-11H,2-3,7H2,1H3/b13-10+
computed SMILES=O=CC(=CC=1C=CC=CC1)CCCC
accession=JP008714
date=2016.01.19 (Created 2008.10.21, modified 2011.05.06)
author=SODA AROMATIC CO., LTD.
license=CC BY-NC-SA
exact mass=188.12012
ionization energy=70 eV
ion type=[M]+*
computed spectral entropy=3.518572737968255
computed normalized entropy=0.8254367767373754
SPLASH=splash10-014r-4900000000-2a9aef18b1630a173707
submitter=submitter = University of Tokyo Team (Faculty of Engineering, University of Tokyo)
MoNA Rating=3.75

>  <NUM PEAKS>  (2311) 
71

>  <MASS SPECTRAL PEAKS>  (2311) 
27 19.78
29 10.17
39 21.2
41 15.81
42 2.4
43 5.18
50 4.86
51 14.55
52 3.85
53 6.02
54 1.38
55 5.61
62 1.84
63 10.03
64 2.32
65 12.06
66 1.15
67 4.42
68 1.07
69 2
71 1.48
74 2.63
75 3.95
76 3.64
77 17.58
78 13.48
79 4.38
81 3.4
87 1.42
89 9.06
90 1.1
91 75.68
92 7.24
95 4.68
97 7.8
101 1.54
102 7.47
103 8.22
104 9.96
105 5.46
110 1.65
113 1.49
114 1.82
115 82.28
116 30.38
117 99.99
118 16.53
119 2.35
127 8.83
128 15.88
129 76.84
130 10.35
131 36.64
132 6.64
133 2.02
141 13.43
142 3.04
143 1.26
144 2.74
145 39.02
146 8.11
147 1.18
155 3.64
157 5.33
158 2.66
159 7.58
160 2.78
173 2.82
187 34.11
188 57.86
189 7.65

>  <PREDICTED SPECTRUM>  (2311) 
15 10
26 46
27 158
28 31
29 168
38 71
39 312
40 120
41 334
42 126
43 389
44 71
50 183
51 356
52 182
53 173
54 83
55 276
56 69
57 188
58 84
59 11
62 122
63 281
64 165
65 335
66 108
67 128
68 44
69 113
70 32
71 130
74 135
75 130
76 158
77 450
78 292
79 217
80 48
81 139
82 76
83 42
84 17
86 60
87 52
88 52
89 280
90 167
91 863
92 322
93 105
94 4
95 85
96 56
97 147
98 34
101 71
102 258
103 293
104 273
105 352
106 70
107 18
109 25
110 20
111 61
113 48
114 53
115 879
116 583
117 999
118 368
119 170
120 14
126 20
127 232
128 511
129 850
130 345
131 613
132 261
133 80
141 176
142 174
143 202
144 145
145 688
146 355
147 79
155 1
157 35
158 0
159 497
160 173
161 21
172 20
173 60
187 560
188 757
189 295
190 88

$$$$

     RDKit          2D

 11 11  0  0  0  0  0  0  0  0999 V2000
    3.8981    0.7504    0.0000 C   0  0  0  0  0  0  0  0  0  0  0  0
    2.5987    3.0002    0.0000 C   0  0  0  0  0  0  0  0  0  0  0  0
   -1.3000    0.7500    0.0000 C   0  0  0  0  0  0  0  0  0  0  0  0
   -0.0000   -1.5000    0.0000 C   0  0  0  0  0  0  0  0  0  0  0  0
    0.0000    1.5000    0.0000 C   0  0  0  0  0  0  0  0  0  0  0  0
    1.3000   -0.7500    0.0000 C   0  0  0  0  0  0  0  0  0  0  0  0
   -2.5989   -1.5002    0.0000 C   0  0  0  0  0  0  0  0  0  0  0  0
    2.5989    1.5002    0.0000 C   0  0  0  0  0  0  0  0  0  0  0  0
   -1.3000   -0.7500    0.0000 C   0  0  0  0  0  0  0  0  0  0  0  0
    1.3000    0.7500    0.0000 C   0  0  0  0  0  0  0  0  0  0  0  0
   -3.8981   -0.7504    0.0000 O   0  0  0  0  0  0  0  0  0  0  0  0
  5  3  2  0
  6  4  1  0
  8  1  1  0
  8  2  1  0
  9  3  1  0
  9  4  2  0
  9  7  1  0
 10  5  1  0
 10  6  2  0
 10  8  1  0
 11  7  2  0
M  END
>  <NAME>  (2312) 
4-ISOPROPYLBENZALDEHYDE

>  <SYNONYMS>  (2312) 
CUMINIC ALDEHYDE

>  <SPECTRUM TYPE>  (2312) 
MS1

>  <INSTRUMENT TYPE>  (2312) 
EI-B

>  <INSTRUMENT>  (2312) 
HITACHI M-80B

>  <ION MODE>  (2312) 
P

>  <INCHIKEY>  (2312) 
WTWBUQJHJGUZCY-UHFFFAOYSA-N

>  <FORMULA>  (2312) 
C10H12O

>  <EXACT MASS>  (2312) 
148.088815004

>  <MW>  (2312) 
148

>  <ID>  (2312) 
JP008712

>  <CONTRIBUTOR>  (2312) 
University of Tokyo Team, {Faculty of Engineering, University of Tokyo

>  <COMMENT>  (2312) 
SMILES=O=Cc(c1)ccc(C(C)C)c1
InChI=InChI=1S/C10H12O/c1-8(2)10-5-3-9(7-11)4-6-10/h3-8H,1-2H3
computed SMILES=O=CC1=CC=C(C=C1)C(C)C
accession=JP008712
date=2016.01.19 (Created 2008.10.21, modified 2011.05.06)
author=SODA AROMATIC CO., LTD.
license=CC BY-NC-SA
exact mass=148.08882
ionization energy=70 eV
ion type=[M]+*
computed spectral entropy=3.038153286181944
computed normalized entropy=0.7981146987279282
SPLASH=splash10-0561-6900000000-5b0379bb7c7e6a17d117
submitter=submitter = University of Tokyo Team (Faculty of Engineering, University of Tokyo)
MoNA Rating=3.75

>  <NUM PEAKS>  (2312) 
45

>  <MASS SPECTRAL PEAKS>  (2312) 
15 2.28
27 13.94
29 9.86
32 1.04
38 2.02
39 16.88
41 14.84
43 1.05
50 8.91
51 24.13
52 4.01
53 3.39
62 2.53
63 7.44
64 1.35
65 6
66 1.38
74 3.61
75 3.88
76 4.52
77 42.02
78 10.86
79 24.89
80 1.47
89 2.75
90 1.3
91 27.3
92 1.99
102 3.48
103 22.3
104 6.9
105 74.57
106 5.51
115 4.42
116 1.01
117 1.75
119 26.11
120 2.4
131 3.03
132 1.46
133 99.99
134 8.24
147 7.67
148 65.68
149 6.6

>  <PREDICTED SPECTRUM>  (2312) 
14 23
15 91
16 4
17 5
18 30
26 67
27 251
28 94
29 133
31 3
37 96
38 181
39 468
40 160
41 429
42 130
43 465
44 60
48 4
49 65
50 343
51 516
52 252
53 256
54 46
55 221
57 10
58 28
61 45
62 165
63 305
64 196
65 376
66 168
67 73
71 31
72 15
73 20
74 190
75 226
76 199
77 664
78 387
79 426
80 56
86 26
87 19
89 151
90 65
91 671
92 214
93 26
101 52
102 206
103 409
104 314
105 709
106 230
107 8
115 473
116 170
117 247
118 163
119 226
120 72
121 38
128 152
129 38
130 48
131 134
132 32
133 999
134 318
135 28
146 56
147 346
148 667
149 219
150 29

$$$$

     RDKit          2D

 11 11  0  0  0  0  0  0  0  0999 V2000
   -2.2731    0.5071    0.0000 C   0  0  0  0  0  0  0  0  0  0  0  0
    2.9231    0.5071    0.0000 C   0  0  0  0  0  0  0  0  0  0  0  0
    2.9236    2.0079    0.0000 C   0  0  0  0  0  0  0  0  0  0  0  0
    1.6236   -0.2437    0.0000 C   0  0  0  0  0  0  0  0  0  0  0  0
    1.6245    2.7579    0.0000 C   0  0  0  0  0  0  0  0  0  0  0  0
    0.3245    0.5063    0.0000 C   0  0  0  0  0  0  0  0  0  0  0  0
   -0.9740    2.7571    0.0000 C   0  0  0  0  0  0  0  0  0  0  0  0
   -3.5721    2.7571    0.0000 C   0  0  0  0  0  0  0  0  0  0  0  0
   -2.2731    2.0071    0.0000 C   0  0  0  0  0  0  0  0  0  0  0  0
    0.3250    2.0071    0.0000 C   0  0  0  0  0  0  0  0  0  0  0  0
   -4.8712    2.0071    0.0000 O   0  0  0  0  0  0  0  0  0  0  0  0
  3  2  2  0
  4  2  1  0
  5  3  1  0
  6  4  2  0
  9  1  1  0
  7  9  2  0
  9  8  1  0
 10  5  2  0
 10  6  1  0
 10  7  1  0
 11  8  2  0
M  END
>  <NAME>  (2313) 
ALPHA-METHYLCINNAMALDEHYDE

>  <SYNONYMS>  (2313) 


>  <SPECTRUM TYPE>  (2313) 
MS1

>  <INSTRUMENT TYPE>  (2313) 
EI-B

>  <INSTRUMENT>  (2313) 
HITACHI M-80B

>  <ION MODE>  (2313) 
P

>  <INCHIKEY>  (2313) 
VLUMOWNVWOXZAU-VQHVLOKHSA-N

>  <FORMULA>  (2313) 
C10H10O

>  <EXACT MASS>  (2313) 
146.07316494

>  <MW>  (2313) 
146

>  <ID>  (2313) 
JP008711

>  <CONTRIBUTOR>  (2313) 
University of Tokyo Team, {Faculty of Engineering, University of Tokyo

>  <COMMENT>  (2313) 
SMILES=O=CC(C)=Cc(c1)cccc1
InChI=InChI=1S/C10H10O/c1-9(8-11)7-10-5-3-2-4-6-10/h2-8H,1H3/b9-7+
computed SMILES=O=CC(=CC=1C=CC=CC1)C
accession=JP008711
date=2016.01.19 (Created 2008.10.21, modified 2011.05.06)
author=SODA AROMATIC CO., LTD.
license=CC BY-NC-SA
exact mass=146.07316
ionization energy=70 eV
ion type=[M]+*
computed spectral entropy=3.0373734547459272
computed normalized entropy=0.7804505917759075
SPLASH=splash10-00kb-6900000000-1f699bf3fa26740328df
submitter=submitter = University of Tokyo Team (Faculty of Engineering, University of Tokyo)
MoNA Rating=3.75

>  <NUM PEAKS>  (2313) 
49

>  <MASS SPECTRAL PEAKS>  (2313) 
18 1.01
26 1.31
27 5.8
29 12.2
37 1.07
38 4.1
39 30.16
40 2.38
41 3.78
50 11.11
51 26.37
52 5.14
53 1.73
58 2.23
61 2.04
62 6.64
63 17.83
64 3.16
65 14.2
68 1.07
74 5
75 4.62
76 3.99
77 11.09
78 41.92
79 2.97
86 2
87 2.65
88 1.28
89 10.28
90 2.46
91 46.49
92 3.82
102 5.34
103 9.94
105 2.72
113 1.58
114 1.53
115 66.11
116 15.05
117 83.66
118 11.32
127 1.48
128 2.31
129 1.29
131 7.69
145 99.99
146 87.68
147 7.78

>  <PREDICTED SPECTRUM>  (2313) 
14 27
15 46
16 16
17 24
18 41
25 8
26 121
27 282
28 141
29 199
31 113
32 1
36 7
37 108
38 206
39 487
40 150
41 130
42 22
43 415
44 91
45 18
49 93
50 389
51 583
52 256
53 186
54 16
55 157
57 55
58 146
61 161
62 264
63 416
64 221
65 418
66 137
67 61
68 39
69 95
70 42
71 29
73 131
74 298
75 191
76 190
77 540
78 401
79 199
85 20
86 172
87 157
88 73
89 351
90 290
91 636
92 273
93 58
97 35
98 143
99 53
101 108
102 305
103 524
104 249
105 183
106 15
113 61
114 63
115 942
116 357
117 953
118 547
119 257
126 22
127 30
128 63
129 5
130 35
131 302
132 28
143 24
144 102
145 999
146 951
147 276
148 12

$$$$

     RDKit          2D

 10 10  0  0  0  0  0  0  0  0999 V2000
   -3.5794    0.1813    0.0000 C   0  0  0  0  0  0  0  0  0  0  0  0
    0.3223   -2.0565    0.0000 C   0  0  0  0  0  0  0  0  0  0  0  0
    1.6168   -1.3143    0.0000 C   0  0  0  0  0  0  0  0  0  0  0  0
   -0.9768   -1.3065    0.0000 C   0  0  0  0  0  0  0  0  0  0  0  0
    0.3182    0.9365    0.0000 C   0  0  0  0  0  0  0  0  0  0  0  0
    2.9164    0.9363    0.0000 C   0  0  0  0  0  0  0  0  0  0  0  0
    1.6173    0.1865    0.0000 C   0  0  0  0  0  0  0  0  0  0  0  0
   -0.9813    0.1857    0.0000 C   0  0  0  0  0  0  0  0  0  0  0  0
    4.2153    0.1861    0.0000 O   0  0  0  0  0  0  0  0  0  0  0  0
   -2.2816    0.9335    0.0000 O   0  0  0  0  0  0  0  0  0  0  0  0
  3  2  2  0
  4  2  1  0
  7  3  1  0
  7  5  2  0
  7  6  1  0
  8  4  2  0
  8  5  1  0
  9  6  2  0
 10  1  1  0
 10  8  1  0
M  END
>  <NAME>  (2314) 
M-METHOXYBENZALDEHYDE

>  <SYNONYMS>  (2314) 


>  <SPECTRUM TYPE>  (2314) 
MS1

>  <INSTRUMENT TYPE>  (2314) 
EI-B

>  <INSTRUMENT>  (2314) 
HITACHI M-80B

>  <ION MODE>  (2314) 
P

>  <INCHIKEY>  (2314) 
WMPDAIZRQDCGFH-UHFFFAOYSA-N

>  <FORMULA>  (2314) 
C8H8O2

>  <EXACT MASS>  (2314) 
136.052429496

>  <MW>  (2314) 
136

>  <ID>  (2314) 
JP008710

>  <CONTRIBUTOR>  (2314) 
University of Tokyo Team, {Faculty of Engineering, University of Tokyo

>  <COMMENT>  (2314) 
SMILES=O=Cc(c1)cc(OC)cc1
InChI=InChI=1S/C8H8O2/c1-10-8-4-2-3-7(5-8)6-9/h2-6H,1H3
computed SMILES=O=CC=1C=CC=C(OC)C1
accession=JP008710
date=2016.01.19 (Created 2008.10.21, modified 2011.05.06)
author=SODA AROMATIC CO., LTD.
license=CC BY-NC-SA
exact mass=136.05243
ionization energy=70 eV
ion type=[M]+*
computed spectral entropy=2.771095807208897
computed normalized entropy=0.7794161807179081
SPLASH=splash10-000i-9800000000-8c6402d697d352358d8e
submitter=submitter = University of Tokyo Team (Faculty of Engineering, University of Tokyo)
MoNA Rating=3.75

>  <NUM PEAKS>  (2314) 
35

>  <MASS SPECTRAL PEAKS>  (2314) 
15 2.77
18 2.21
27 2.24
29 9.17
37 2.56
38 7.53
39 21.58
49 1.16
50 12.34
51 12.7
52 2.01
53 2.74
61 1.99
62 5.27
63 22.21
64 14.18
65 26.76
66 1.65
73 1.04
74 5.18
75 3.07
76 5.41
77 40.31
78 9.55
79 3.74
92 20.84
93 3.54
105 2.33
106 1.56
107 35.94
108 5.49
119 1.1
135 88.41
136 99.99
137 7.95

>  <PREDICTED SPECTRUM>  (2314) 
14 43
15 149
16 38
17 4
18 21
25 14
26 88
27 129
28 99
29 212
30 59
31 61
36 5
37 144
38 229
39 326
40 61
41 82
43 18
44 54
49 79
50 411
51 459
52 187
53 217
54 8
55 39
57 29
61 162
62 308
63 523
64 367
65 439
66 166
67 39
69 8
73 41
74 238
75 239
76 266
77 633
78 227
79 266
80 73
86 5
89 39
90 40
91 40
92 377
93 280
94 92
95 165
104 5
105 301
106 217
107 587
108 197
109 17
120 97
121 203
122 51
135 999
136 962
137 318
138 48

$$$$

     RDKit          2D

 10 10  0  0  0  0  0  0  0  0999 V2000
    1.9487   -3.0002    0.0000 C   0  0  0  0  0  0  0  0  0  0  0  0
   -1.9500    0.7500    0.0000 C   0  0  0  0  0  0  0  0  0  0  0  0
   -1.9500   -0.7500    0.0000 C   0  0  0  0  0  0  0  0  0  0  0  0
   -0.6500    1.5000    0.0000 C   0  0  0  0  0  0  0  0  0  0  0  0
   -0.6500   -1.5000    0.0000 C   0  0  0  0  0  0  0  0  0  0  0  0
    1.9489    1.5002    0.0000 C   0  0  0  0  0  0  0  0  0  0  0  0
    0.6500    0.7500    0.0000 C   0  0  0  0  0  0  0  0  0  0  0  0
    0.6500   -0.7500    0.0000 C   0  0  0  0  0  0  0  0  0  0  0  0
    1.9487    3.0002    0.0000 O   0  0  0  0  0  0  0  0  0  0  0  0
    1.9489   -1.5002    0.0000 O   0  0  0  0  0  0  0  0  0  0  0  0
  3  2  2  0
  4  2  1  0
  5  3  1  0
  7  4  2  0
  7  6  1  0
  8  5  2  0
  8  7  1  0
  9  6  2  0
 10  1  1  0
 10  8  1  0
M  END
>  <NAME>  (2315) 
O-METHOXYBENZALDEHYDE

>  <SYNONYMS>  (2315) 


>  <SPECTRUM TYPE>  (2315) 
MS1

>  <INSTRUMENT TYPE>  (2315) 
EI-B

>  <INSTRUMENT>  (2315) 
HITACHI M-80B

>  <ION MODE>  (2315) 
P

>  <INCHIKEY>  (2315) 
PKZJLOCLABXVMC-UHFFFAOYSA-N

>  <FORMULA>  (2315) 
C8H8O2

>  <EXACT MASS>  (2315) 
136.052429496

>  <MW>  (2315) 
136

>  <ID>  (2315) 
JP008709

>  <CONTRIBUTOR>  (2315) 
University of Tokyo Team, {Faculty of Engineering, University of Tokyo

>  <COMMENT>  (2315) 
SMILES=O=Cc(c1)c(OC)ccc1
InChI=InChI=1S/C8H8O2/c1-10-8-5-3-2-4-7(8)6-9/h2-6H,1H3
computed SMILES=O=CC=1C=CC=CC1OC
accession=JP008709
date=2016.01.19 (Created 2008.10.21, modified 2011.05.06)
author=SODA AROMATIC CO., LTD.
license=CC BY-NC-SA
exact mass=136.05243
ionization energy=70 eV
ion type=[M]+*
computed spectral entropy=3.3361487395055667
computed normalized entropy=0.8664989202034236
SPLASH=splash10-002r-9500000000-ab1452f1184986cd6973
submitter=submitter = University of Tokyo Team (Faculty of Engineering, University of Tokyo)
MoNA Rating=3.75

>  <NUM PEAKS>  (2315) 
47

>  <MASS SPECTRAL PEAKS>  (2315) 
15 4.7
26 1.3
27 3.49
28 2.91
29 10.26
31 3.03
37 4.29
38 11.43
39 36.15
49 1.77
50 23.93
51 28.99
52 3.95
53 6.47
61 3.46
62 7.32
63 27.23
64 14.83
65 34.04
66 3.18
73 1.82
74 8.45
75 5.45
76 39.03
77 69.5
78 32.13
79 20.87
80 1.59
89 1.64
90 15.49
91 14.72
92 28.73
93 8.36
94 8.18
104 22.37
105 16.52
106 1.23
107 11.24
108 1.59
118 22.41
119 26.39
120 5.43
121 14.73
122 1.23
135 48.43
136 99.99
137 7.75

>  <PREDICTED SPECTRUM>  (2315) 
14 40
15 139
16 31
17 3
18 11
25 32
26 132
27 232
28 106
29 255
30 36
31 159
37 152
38 235
39 415
40 72
41 197
42 58
43 114
44 23
49 76
50 386
51 499
52 296
53 236
54 45
55 89
56 6
57 14
61 179
62 262
63 455
64 318
65 477
66 218
67 102
73 39
74 204
75 203
76 235
77 613
78 393
79 331
80 137
81 44
86 58
89 121
90 252
91 219
92 309
93 319
94 127
95 74
103 0
104 105
105 473
106 305
107 703
108 310
109 100
117 54
118 270
119 100
120 215
121 200
122 56
133 77
134 32
135 826
136 999
137 336
138 87

$$$$

     RDKit          2D

 10 10  0  0  0  0  0  0  0  0999 V2000
   -0.9743   -0.6175    0.0000 C   0  0  0  0  0  0  0  0  0  0  0  0
    2.9228    3.1325    0.0000 C   0  0  0  0  0  0  0  0  0  0  0  0
    1.6233    3.8833    0.0000 C   0  0  0  0  0  0  0  0  0  0  0  0
    2.9233    1.6317    0.0000 C   0  0  0  0  0  0  0  0  0  0  0  0
    0.3243    3.1333    0.0000 C   0  0  0  0  0  0  0  0  0  0  0  0
    1.6243    0.8817    0.0000 C   0  0  0  0  0  0  0  0  0  0  0  0
   -2.2733    1.6325    0.0000 C   0  0  0  0  0  0  0  0  0  0  0  0
   -0.9743    0.8825    0.0000 C   0  0  0  0  0  0  0  0  0  0  0  0
    0.3248    1.6325    0.0000 C   0  0  0  0  0  0  0  0  0  0  0  0
   -3.5724    0.8825    0.0000 O   0  0  0  0  0  0  0  0  0  0  0  0
  3  2  2  0
  4  2  1  0
  5  3  1  0
  6  4  2  0
  8  1  1  0
  8  7  1  0
  9  5  2  0
  9  6  1  0
  9  8  1  0
 10  7  2  0
M  END
>  <NAME>  (2316) 
2-PHENYLPROPIONALDEHYDE

>  <SYNONYMS>  (2316) 
HYDRATROPALDEHYDE

>  <SPECTRUM TYPE>  (2316) 
MS1

>  <INSTRUMENT TYPE>  (2316) 
EI-B

>  <INSTRUMENT>  (2316) 
HITACHI M-80B

>  <ION MODE>  (2316) 
P

>  <INCHIKEY>  (2316) 
IQVAERDLDAZARL-UHFFFAOYSA-N

>  <FORMULA>  (2316) 
C9H10O

>  <EXACT MASS>  (2316) 
134.07316494

>  <MW>  (2316) 
134

>  <ID>  (2316) 
JP008707

>  <CONTRIBUTOR>  (2316) 
University of Tokyo Team, {Faculty of Engineering, University of Tokyo

>  <COMMENT>  (2316) 
computed SMILES=O=CC(C=1C=CC=CC1)C
SMILES=O=CC(C)c(c1)cccc1
InChI=InChI=1S/C9H10O/c1-8(7-10)9-5-3-2-4-6-9/h2-8H,1H3
accession=JP008707
date=2016.01.19 (Created 2008.10.21, modified 2011.05.06)
author=SODA AROMATIC CO., LTD.
license=CC BY-NC-SA
exact mass=134.07316
ionization energy=70 eV
ion type=[M]+*
computed spectral entropy=2.291101922516356
computed normalized entropy=0.7209135039306485
SPLASH=splash10-0a4i-6900000000-1cec9c93971f4a126413
submitter=submitter = University of Tokyo Team (Faculty of Engineering, University of Tokyo)
MoNA Rating=3.75

>  <NUM PEAKS>  (2316) 
24

>  <MASS SPECTRAL PEAKS>  (2316) 
27 5.36
29 4.3
39 5.68
50 4.3
51 11.82
52 2.37
53 1.5
62 1.49
63 3.62
65 2.47
74 1.48
75 1.27
76 1.05
77 22.26
78 5.34
79 18.39
89 1.69
91 8.79
102 1.34
103 10.83
104 3.21
105 99.99
106 10.28
134 10.02

>  <PREDICTED SPECTRUM>  (2316) 
17 5
18 9
25 6
26 111
27 302
28 117
29 208
31 40
32 0
37 58
38 135
39 351
40 116
41 186
42 13
43 158
44 34
49 56
50 303
51 472
52 241
53 192
54 17
55 148
57 78
58 47
61 38
62 149
63 277
64 142
65 258
66 86
71 14
74 181
75 129
76 153
77 671
78 419
79 344
80 65
86 42
87 70
88 14
89 233
90 97
91 552
92 126
101 3
102 123
103 242
104 75
105 999
106 425
107 163
115 305
116 165
117 130
119 52
120 5
133 41
134 384
135 112

$$$$

     RDKit          2D

 10 10  0  0  0  0  0  0  0  0999 V2000
    2.9231    0.5071    0.0000 C   0  0  0  0  0  0  0  0  0  0  0  0
    2.9236    2.0079    0.0000 C   0  0  0  0  0  0  0  0  0  0  0  0
    1.6236   -0.2437    0.0000 C   0  0  0  0  0  0  0  0  0  0  0  0
   -2.2731    2.0071    0.0000 C   0  0  0  0  0  0  0  0  0  0  0  0
    1.6245    2.7579    0.0000 C   0  0  0  0  0  0  0  0  0  0  0  0
    0.3245    0.5063    0.0000 C   0  0  0  0  0  0  0  0  0  0  0  0
   -0.9740    2.7571    0.0000 C   0  0  0  0  0  0  0  0  0  0  0  0
   -3.5721    2.7571    0.0000 C   0  0  0  0  0  0  0  0  0  0  0  0
    0.3250    2.0071    0.0000 C   0  0  0  0  0  0  0  0  0  0  0  0
   -4.8712    2.0071    0.0000 O   0  0  0  0  0  0  0  0  0  0  0  0
  2  1  2  0
  3  1  1  0
  5  2  1  0
  6  3  2  0
  7  4  1  0
  8  4  1  0
  9  5  2  0
  9  6  1  0
  9  7  1  0
 10  8  2  0
M  END
>  <NAME>  (2317) 
3-PHENYLPROPANAL

>  <SYNONYMS>  (2317) 


>  <SPECTRUM TYPE>  (2317) 
MS1

>  <INSTRUMENT TYPE>  (2317) 
EI-B

>  <INSTRUMENT>  (2317) 
HITACHI M-80B

>  <ION MODE>  (2317) 
P

>  <INCHIKEY>  (2317) 
YGCZTXZTJXYWCO-UHFFFAOYSA-N

>  <FORMULA>  (2317) 
C9H10O

>  <EXACT MASS>  (2317) 
134.07316494

>  <MW>  (2317) 
134

>  <ID>  (2317) 
JP008706

>  <CONTRIBUTOR>  (2317) 
University of Tokyo Team, {Faculty of Engineering, University of Tokyo

>  <COMMENT>  (2317) 
SMILES=O=CCCc(c1)cccc1
InChI=InChI=1S/C9H10O/c10-8-4-7-9-5-2-1-3-6-9/h1-3,5-6,8H,4,7H2
computed SMILES=O=CCCC=1C=CC=CC1
accession=JP008706
date=2016.01.19 (Created 2008.10.21, modified 2011.05.06)
author=SODA AROMATIC CO., LTD.
license=CC BY-NC-SA
exact mass=134.07316
ionization energy=70 eV
ion type=[M]+*
computed spectral entropy=2.9564578764019536
computed normalized entropy=0.781265782745869
SPLASH=splash10-002f-9200000000-79841a7270e9c9570f25
submitter=submitter = University of Tokyo Team (Faculty of Engineering, University of Tokyo)
MoNA Rating=3.75

>  <NUM PEAKS>  (2317) 
44

>  <MASS SPECTRAL PEAKS>  (2317) 
15 1.2
26 1.9
27 12.27
29 11.71
38 2.77
39 19.11
41 2.35
42 1.14
50 8.72
51 26.54
52 5.23
53 2.85
55 3.29
56 2.56
57 1.01
62 2.93
63 8.64
64 1.8
65 19.13
66 1.34
74 2.89
75 2.47
76 2.24
77 32.15
78 53.27
79 20.82
80 1.31
89 4.23
90 1.86
91 99.99
92 73.4
93 4
102 2.12
103 12.5
104 4.25
105 32.7
106 3.67
107 1.18
115 4.46
116 3.62
117 1.43
133 6.2
134 54.93
135 4.26

>  <PREDICTED SPECTRUM>  (2317) 
26 20
27 70
28 14
29 76
31 9
37 17
38 70
39 234
40 77
41 168
42 60
43 113
44 31
49 26
50 142
51 241
52 117
53 95
55 46
57 0
61 6
62 80
63 164
64 86
65 337
66 83
74 79
75 98
76 52
77 272
78 224
79 98
89 74
90 61
91 999
92 418
102 7
103 166
104 192
105 404
106 299
107 71
115 85
116 48
117 33
134 248
135 55

$$$$

     RDKit          2D

 10 10  0  0  0  0  0  0  0  0999 V2000
    2.9231    0.5071    0.0000 C   0  0  0  0  0  0  0  0  0  0  0  0
    2.9236    2.0079    0.0000 C   0  0  0  0  0  0  0  0  0  0  0  0
    1.6236   -0.2437    0.0000 C   0  0  0  0  0  0  0  0  0  0  0  0
   -2.2731    2.0071    0.0000 C   0  0  0  0  0  0  0  0  0  0  0  0
    1.6245    2.7579    0.0000 C   0  0  0  0  0  0  0  0  0  0  0  0
    0.3245    0.5063    0.0000 C   0  0  0  0  0  0  0  0  0  0  0  0
   -0.9740    2.7571    0.0000 C   0  0  0  0  0  0  0  0  0  0  0  0
   -3.5721    2.7571    0.0000 C   0  0  0  0  0  0  0  0  0  0  0  0
    0.3250    2.0071    0.0000 C   0  0  0  0  0  0  0  0  0  0  0  0
   -4.8712    2.0071    0.0000 O   0  0  0  0  0  0  0  0  0  0  0  0
  2  1  2  0
  3  1  1  0
  5  2  1  0
  6  3  2  0
  4  7  2  0
  8  4  1  0
  9  5  2  0
  9  6  1  0
  9  7  1  0
 10  8  2  0
M  END
>  <NAME>  (2318) 
CINNAMALDEHYDE

>  <SYNONYMS>  (2318) 


>  <SPECTRUM TYPE>  (2318) 
MS1

>  <INSTRUMENT TYPE>  (2318) 
EI-B

>  <INSTRUMENT>  (2318) 
HITACHI M-80B

>  <ION MODE>  (2318) 
P

>  <INCHIKEY>  (2318) 
KJPRLNWUNMBNBZ-QPJJXVBHSA-N

>  <FORMULA>  (2318) 
C9H8O

>  <EXACT MASS>  (2318) 
132.057514876

>  <MW>  (2318) 
132

>  <ID>  (2318) 
JP008705

>  <CONTRIBUTOR>  (2318) 
University of Tokyo Team, {Faculty of Engineering, University of Tokyo

>  <COMMENT>  (2318) 
SMILES=O=CC=Cc(c1)cccc1
InChI=InChI=1S/C9H8O/c10-8-4-7-9-5-2-1-3-6-9/h1-8H/b7-4+
computed SMILES=O=CC=CC=1C=CC=CC1
accession=JP008705
date=2016.01.19 (Created 2008.10.21, modified 2011.05.06)
author=SODA AROMATIC CO., LTD.
license=CC BY-NC-SA
exact mass=132.05751
ionization energy=70 eV
ion type=[M]+*
computed spectral entropy=2.7992778979662196
computed normalized entropy=0.7640864733157976
SPLASH=splash10-0ugi-8900000000-14f14e29c81360ebdd4b
submitter=submitter = University of Tokyo Team (Faculty of Engineering, University of Tokyo)
MoNA Rating=3.75

>  <NUM PEAKS>  (2318) 
39

>  <MASS SPECTRAL PEAKS>  (2318) 
15 1.32
26 2.7
27 6.45
29 10.28
37 1.88
38 3.99
39 10.49
49 1.43
50 19.29
51 48.35
52 9.56
53 2.34
54 1.5
55 1.17
61 2.1
62 5.18
63 10.12
64 1.38
65 1.79
66 1.46
73 1.56
74 8.84
75 7.79
76 8.05
77 54.98
78 43.29
79 2.33
87 1.26
89 1.66
91 2.36
101 1.71
102 10.82
103 63.66
104 35.15
105 3.84
130 1.54
131 99.99
132 75.18
133 6.36

>  <PREDICTED SPECTRUM>  (2318) 
14 0
25 23
26 123
27 223
28 124
29 184
31 3
36 6
37 82
38 156
39 91
40 33
41 33
43 18
49 87
50 358
51 505
52 224
53 118
54 103
55 229
61 84
62 188
63 316
64 144
65 100
66 33
73 75
74 225
75 235
76 290
77 586
78 344
79 107
86 80
87 30
89 246
91 22
92 61
101 69
102 340
103 739
104 398
105 180
106 5
114 2
130 50
131 999
132 781
133 251
134 1

$$$$

     RDKit          2D

  9  9  0  0  0  0  0  0  0  0999 V2000
    3.2511   -1.1212    0.0000 C   0  0  0  0  0  0  0  0  0  0  0  0
    0.6473    1.8688    0.0000 C   0  0  0  0  0  0  0  0  0  0  0  0
    1.9463    1.1188    0.0000 C   0  0  0  0  0  0  0  0  0  0  0  0
   -0.6473    1.1266    0.0000 C   0  0  0  0  0  0  0  0  0  0  0  0
    0.6513   -1.1242    0.0000 C   0  0  0  0  0  0  0  0  0  0  0  0
   -1.9469   -1.1240    0.0000 C   0  0  0  0  0  0  0  0  0  0  0  0
    1.9508   -0.3734    0.0000 C   0  0  0  0  0  0  0  0  0  0  0  0
   -0.6477   -0.3742    0.0000 C   0  0  0  0  0  0  0  0  0  0  0  0
   -3.2458   -0.3738    0.0000 O   0  0  0  0  0  0  0  0  0  0  0  0
  3  2  2  0
  4  2  1  0
  7  1  1  0
  7  3  1  0
  7  5  2  0
  8  4  2  0
  8  5  1  0
  8  6  1  0
  9  6  2  0
M  END
>  <NAME>  (2319) 
M-METHYLBENZALDEHYDE

>  <SYNONYMS>  (2319) 


>  <SPECTRUM TYPE>  (2319) 
MS1

>  <INSTRUMENT TYPE>  (2319) 
EI-B

>  <INSTRUMENT>  (2319) 
HITACHI M-80B

>  <ION MODE>  (2319) 
P

>  <INCHIKEY>  (2319) 
OVWYEQOVUDKZNU-UHFFFAOYSA-N

>  <FORMULA>  (2319) 
C8H8O

>  <EXACT MASS>  (2319) 
120.057514876

>  <MW>  (2319) 
120

>  <ID>  (2319) 
JP008703

>  <CONTRIBUTOR>  (2319) 
University of Tokyo Team, {Faculty of Engineering, University of Tokyo

>  <COMMENT>  (2319) 
SMILES=O=Cc(c1)cc(C)cc1
InChI=InChI=1S/C8H8O/c1-7-3-2-4-8(5-7)6-9/h2-6H,1H3
computed SMILES=O=CC1=CC=CC(=C1)C
accession=JP008703
date=2016.01.19 (Created 2008.10.21, modified 2011.05.06)
author=SODA AROMATIC CO., LTD.
license=CC BY-NC-SA
exact mass=120.05751
ionization energy=70 eV
ion type=[M]+*
computed spectral entropy=2.371735642088052
computed normalized entropy=0.6973237292476663
SPLASH=splash10-01bc-9600000000-7f4acd144c76cb1a232a
submitter=submitter = University of Tokyo Team (Faculty of Engineering, University of Tokyo)
MoNA Rating=3.75

>  <NUM PEAKS>  (2319) 
30

>  <MASS SPECTRAL PEAKS>  (2319) 
27 2.11
29 5.7
37 1.72
38 3.57
39 19.99
40 1.08
41 2.84
50 6.75
51 10.33
52 2.23
53 1.01
61 2.16
62 5.99
63 16.09
64 3.25
65 28.36
66 1.61
74 2.32
75 1.44
77 1.08
85 1.01
86 1.44
87 1.13
89 10.2
90 3.75
91 99.99
92 11.4
119 86.15
120 85.48
121 6.29

>  <PREDICTED SPECTRUM>  (2319) 
14 13
15 59
16 11
17 2
18 11
26 84
27 185
28 95
29 162
36 7
37 119
38 189
39 426
40 132
41 143
43 87
44 13
49 36
50 296
51 435
52 227
53 173
54 29
57 36
61 113
62 243
63 419
64 187
65 438
66 101
73 71
74 227
75 181
76 149
77 515
78 212
79 204
86 113
87 145
89 391
90 237
91 866
92 251
93 53
102 25
105 95
106 2
117 51
118 129
119 999
120 876
121 284
122 32

$$$$

     RDKit          2D

  9  9  0  0  0  0  0  0  0  0999 V2000
   -0.3325    2.4400    0.0000 C   0  0  0  0  0  0  0  0  0  0  0  0
   -1.6200   -1.3100    0.0000 C   0  0  0  0  0  0  0  0  0  0  0  0
   -0.3300   -2.0600    0.0000 C   0  0  0  0  0  0  0  0  0  0  0  0
   -1.6200    0.1900    0.0000 C   0  0  0  0  0  0  0  0  0  0  0  0
    0.9700   -1.3100    0.0000 C   0  0  0  0  0  0  0  0  0  0  0  0
    2.2689    0.9402    0.0000 C   0  0  0  0  0  0  0  0  0  0  0  0
   -0.3300    0.9400    0.0000 C   0  0  0  0  0  0  0  0  0  0  0  0
    0.9700    0.1900    0.0000 C   0  0  0  0  0  0  0  0  0  0  0  0
    3.5681    0.1904    0.0000 O   0  0  0  0  0  0  0  0  0  0  0  0
  3  2  2  0
  4  2  1  0
  5  3  1  0
  7  1  1  0
  7  4  2  0
  8  5  2  0
  8  6  1  0
  8  7  1  0
  9  6  2  0
M  END
>  <NAME>  (2320) 
O-METHYLBENZALDEHYDE

>  <SYNONYMS>  (2320) 


>  <SPECTRUM TYPE>  (2320) 
MS1

>  <INSTRUMENT TYPE>  (2320) 
EI-B

>  <INSTRUMENT>  (2320) 
HITACHI M-80B

>  <ION MODE>  (2320) 
P

>  <INCHIKEY>  (2320) 
BTFQKIATRPGRBS-UHFFFAOYSA-N

>  <FORMULA>  (2320) 
C8H8O

>  <EXACT MASS>  (2320) 
120.057514876

>  <MW>  (2320) 
120

>  <ID>  (2320) 
JP008702

>  <CONTRIBUTOR>  (2320) 
University of Tokyo Team, {Faculty of Engineering, University of Tokyo

>  <COMMENT>  (2320) 
SMILES=O=Cc(c1)c(C)ccc1
InChI=InChI=1S/C8H8O/c1-7-4-2-3-5-8(7)6-9/h2-6H,1H3
computed SMILES=O=CC=1C=CC=CC1C
accession=JP008702
date=2016.01.19 (Created 2008.10.21, modified 2011.05.06)
author=SODA AROMATIC CO., LTD.
license=CC BY-NC-SA
exact mass=120.05751
ionization energy=70 eV
ion type=[M]+*
computed spectral entropy=2.289550367073736
computed normalized entropy=0.6799373986344802
SPLASH=splash10-00r6-9700000000-72d2bc27d082e353fdb5
submitter=submitter = University of Tokyo Team (Faculty of Engineering, University of Tokyo)
MoNA Rating=3.75

>  <NUM PEAKS>  (2320) 
29

>  <MASS SPECTRAL PEAKS>  (2320) 
27 1.83
29 3.68
37 1.36
38 3.12
39 16.24
41 1.68
50 5.5
51 7.31
52 1.61
53 1.23
60 1.15
61 2.22
62 5.6
63 15.4
64 3.07
65 24.34
66 1.52
74 2.17
75 1.2
77 1.53
86 1.41
87 1.06
89 8.08
90 4.37
91 99.99
92 11.14
119 86.03
120 89.03
121 6.65

>  <PREDICTED SPECTRUM>  (2320) 
14 7
16 4
25 20
26 92
27 131
28 90
29 90
37 118
38 175
39 378
40 77
41 144
43 117
44 19
49 64
50 301
51 460
52 263
53 206
56 1
61 146
62 222
63 386
64 158
65 462
66 151
73 86
74 224
75 138
76 62
77 567
78 380
79 204
86 74
89 399
90 235
91 999
92 305
93 76
101 46
102 278
103 112
105 116
115 80
116 156
117 114
118 156
119 811
120 851
121 255

$$$$

     RDKit          2D

  8  8  0  0  0  0  0  0  0  0999 V2000
    2.6360    0.5353    0.0000 C   0  0  0  0  0  0  0  0  0  0  0  0
    0.7500   -1.3600    0.0000 C   0  0  0  0  0  0  0  0  0  0  0  0
   -0.7500   -1.3600    0.0000 C   0  0  0  0  0  0  0  0  0  0  0  0
   -2.6360    0.5353    0.0000 C   0  0  0  0  0  0  0  0  0  0  0  0
    1.2100    0.0700    0.0000 C   0  0  0  0  0  0  0  0  0  0  0  0
   -1.2100    0.0700    0.0000 C   0  0  0  0  0  0  0  0  0  0  0  0
   -3.7520   -0.4670    0.0000 O   0  0  0  0  0  0  0  0  0  0  0  0
    0.0000    0.9500    0.0000 O   0  0  0  0  0  0  0  0  0  0  0  0
  3  2  1  0
  5  1  1  0
  5  2  2  0
  6  3  2  0
  6  4  1  0
  7  4  2  0
  8  5  1  0
  8  6  1  0
M  END
>  <NAME>  (2321) 
5-METHYLFURFURAL

>  <SYNONYMS>  (2321) 


>  <SPECTRUM TYPE>  (2321) 
MS1

>  <INSTRUMENT TYPE>  (2321) 
EI-B

>  <INSTRUMENT>  (2321) 
HITACHI M-80B

>  <ION MODE>  (2321) 
P

>  <INCHIKEY>  (2321) 
OUDFNZMQXZILJD-UHFFFAOYSA-N

>  <FORMULA>  (2321) 
C6H6O2

>  <EXACT MASS>  (2321) 
110.036779432

>  <MW>  (2321) 
110

>  <ID>  (2321) 
JP008701

>  <CONTRIBUTOR>  (2321) 
University of Tokyo Team, {Faculty of Engineering, University of Tokyo

>  <COMMENT>  (2321) 
SMILES=O=Cc(c1)oc(C)c1
InChI=InChI=1S/C6H6O2/c1-5-2-3-6(4-7)8-5/h2-4H,1H3
computed SMILES=O=CC=1OC(=CC1)C
accession=JP008701
date=2016.01.19 (Created 2008.10.21, modified 2011.05.06)
author=SODA AROMATIC CO., LTD.
license=CC BY-NC-SA
exact mass=110.03678
ionization energy=70 eV
ion type=[M]+*
computed spectral entropy=2.4215001035131904
computed normalized entropy=0.7522813041762307
SPLASH=splash10-114i-9700000000-9e971b7e848b7697026f
submitter=submitter = University of Tokyo Team (Faculty of Engineering, University of Tokyo)
MoNA Rating=3.75

>  <NUM PEAKS>  (2321) 
25

>  <MASS SPECTRAL PEAKS>  (2321) 
15 2.32
26 4.62
27 25.46
28 4.06
29 13.15
37 4.58
38 6.34
39 15.56
41 1.45
42 2.39
43 11.45
49 2.89
50 16.41
51 19.36
52 10.77
53 66.36
54 5.33
55 1.03
79 1.99
80 1.44
81 12.31
95 1.02
109 87.05
110 99.99
111 5.88

>  <PREDICTED SPECTRUM>  (2321) 
14 7
25 3
26 8
37 64
38 202
39 317
40 226
41 82
43 409
49 8
50 196
51 293
52 100
53 349
54 129
55 90
62 59
63 212
64 3
65 101
66 112
67 548
68 119
69 36
79 51
80 14
81 291
82 108
83 17
95 468
96 89
109 738
110 999
111 296
112 5

$$$$

     RDKit          2D

  7  7  0  0  0  0  0  0  0  0999 V2000
   -1.1700   -1.2200    0.0000 C   0  0  0  0  0  0  0  0  0  0  0  0
    0.3300   -1.2200    0.0000 C   0  0  0  0  0  0  0  0  0  0  0  0
   -1.6300    0.2000    0.0000 C   0  0  0  0  0  0  0  0  0  0  0  0
    2.2271    0.6621    0.0000 C   0  0  0  0  0  0  0  0  0  0  0  0
    0.8000    0.2000    0.0000 C   0  0  0  0  0  0  0  0  0  0  0  0
    3.3407   -0.3428    0.0000 O   0  0  0  0  0  0  0  0  0  0  0  0
   -0.4200    1.0800    0.0000 O   0  0  0  0  0  0  0  0  0  0  0  0
  2  1  1  0
  3  1  2  0
  5  2  2  0
  5  4  1  0
  6  4  2  0
  7  3  1  0
  7  5  1  0
M  END
>  <NAME>  (2322) 
FURFURAL

>  <SYNONYMS>  (2322) 


>  <SPECTRUM TYPE>  (2322) 
MS1

>  <INSTRUMENT TYPE>  (2322) 
EI-B

>  <INSTRUMENT>  (2322) 
HITACHI M-80B

>  <ION MODE>  (2322) 
P

>  <INCHIKEY>  (2322) 
HYBBIBNJHNGZAN-UHFFFAOYSA-N

>  <FORMULA>  (2322) 
C5H4O2

>  <EXACT MASS>  (2322) 
96.021129368

>  <MW>  (2322) 
96

>  <ID>  (2322) 
JP008700

>  <CONTRIBUTOR>  (2322) 
University of Tokyo Team, {Faculty of Engineering, University of Tokyo

>  <COMMENT>  (2322) 
SMILES=O=Cc(c1)occ1
InChI=InChI=1S/C5H4O2/c6-4-5-2-1-3-7-5/h1-4H
computed SMILES=O=CC=1OC=CC1
accession=JP008700
date=2016.01.19 (Created 2008.10.21, modified 2011.05.06)
author=SODA AROMATIC CO., LTD.
license=CC BY-NC-SA
exact mass=96.02113
ionization energy=70 eV
ion type=[M]+*
computed spectral entropy=2.035468896516952
computed normalized entropy=0.6794562099176409
SPLASH=splash10-000b-9000000000-0ba2bcde82e913fd4d05
submitter=submitter = University of Tokyo Team (Faculty of Engineering, University of Tokyo)
MoNA Rating=3.75

>  <NUM PEAKS>  (2322) 
20

>  <MASS SPECTRAL PEAKS>  (2322) 
25 1.32
26 2.21
29 24.7
36 1.94
37 14.91
38 24.49
39 76.07
40 5.16
41 2.32
42 5.21
49 2.03
50 3.17
51 3.12
53 2.16
66 1.32
67 4.68
68 1.56
95 89.21
96 99.99
97 4.93

>  <PREDICTED SPECTRUM>  (2322) 
25 38
26 95
27 138
28 66
29 208
37 230
38 325
39 771
40 380
41 188
49 81
50 347
51 176
55 85
61 134
62 44
65 19
66 40
67 787
68 263
69 23
74 110
95 592
96 999
97 277
98 20

$$$$

     RDKit          2D

 13 12  0  0  0  0  0  0  0  0999 V2000
   -0.6495    7.1250    0.0000 C   0  0  0  0  0  0  0  0  0  0  0  0
   -4.8815    6.7741    0.0000 C   0  0  0  0  0  0  0  0  0  0  0  0
   -6.8099    6.7741    0.0000 C   0  0  0  0  0  0  0  0  0  0  0  0
   -8.4437    5.6250    0.0000 C   0  0  0  0  0  0  0  0  0  0  0  0
   -3.2476    5.6250    0.0000 C   0  0  0  0  0  0  0  0  0  0  0  0
   -1.9486    4.8750    0.0000 C   0  0  0  0  0  0  0  0  0  0  0  0
    0.6495    4.8750    0.0000 C   0  0  0  0  0  0  0  0  0  0  0  0
   -4.5466    4.8750    0.0000 C   0  0  0  0  0  0  0  0  0  0  0  0
    1.9486    5.6250    0.0000 C   0  0  0  0  0  0  0  0  0  0  0  0
   -0.6495    5.6250    0.0000 C   0  0  0  0  0  0  0  0  0  0  0  0
   -5.8457    5.6250    0.0000 C   0  0  0  0  0  0  0  0  0  0  0  0
    3.2476    4.8750    0.0000 O   0  0  0  0  0  0  0  0  0  0  0  0
   -7.1447    4.8750    0.0000 O   0  0  0  0  0  0  0  0  0  0  0  0
  6  5  1  0
  8  5  1  0
  9  7  1  0
 10  1  1  0
 10  6  1  0
 10  7  1  0
 11  2  1  0
 11  3  1  0
 11  8  1  0
 12  9  2  0
 13  4  1  0
 13 11  1  0
M  END
>  <NAME>  (2323) 
METHOXYCITRONELLAL

>  <SYNONYMS>  (2323) 
3,7-DIMETHYL-7-METHOXYOCTANAL

>  <SPECTRUM TYPE>  (2323) 
MS1

>  <INSTRUMENT TYPE>  (2323) 
EI-B

>  <INSTRUMENT>  (2323) 
HITACHI M-80B

>  <ION MODE>  (2323) 
P

>  <INCHIKEY>  (2323) 
IDWULKZGRNHZNR-UHFFFAOYSA-N

>  <FORMULA>  (2323) 
C11H22O2

>  <EXACT MASS>  (2323) 
186.161979944

>  <MW>  (2323) 
186

>  <ID>  (2323) 
JP008699

>  <CONTRIBUTOR>  (2323) 
University of Tokyo Team, {Faculty of Engineering, University of Tokyo

>  <COMMENT>  (2323) 
SMILES=O=CCC(C)CCCC(C)(C)OC
InChI=InChI=1S/C11H22O2/c1-10(7-9-12)6-5-8-11(2,3)13-4/h9-10H,5-8H2,1-4H3
computed SMILES=O=CCC(C)CCCC(OC)(C)C
accession=JP008699
date=2016.01.19 (Created 2008.10.21, modified 2011.05.06)
author=SODA AROMATIC CO., LTD.
license=CC BY-NC-SA
exact mass=186.16198
ionization energy=70 eV
ion type=[M]+*
computed spectral entropy=1.7687084948413907
computed normalized entropy=0.5904094002175572
SPLASH=splash10-00di-9000000000-449028fc7b4e21f48c8d
submitter=submitter = University of Tokyo Team (Faculty of Engineering, University of Tokyo)
MoNA Rating=3.75

>  <NUM PEAKS>  (2323) 
20

>  <MASS SPECTRAL PEAKS>  (2323) 
27 2.79
29 3.87
39 2.87
41 9.98
42 2.85
43 7.88
45 1.53
53 1.04
55 7.1
56 1.64
57 1.09
59 2.89
69 5.48
72 1.24
73 99.99
74 4.82
81 3.73
85 2.59
95 2.03
171 1.51

>  <PREDICTED SPECTRUM>  (2323) 
15 15
27 160
28 63
29 252
31 141
32 24
33 38
38 14
39 236
40 84
41 633
42 260
43 545
44 125
45 338
51 18
52 35
53 173
54 41
55 494
56 250
57 319
58 20
59 256
65 11
67 210
68 71
69 772
70 238
71 219
72 44
73 999
74 289
77 25
79 35
81 234
82 94
83 309
84 107
85 137
86 138
87 162
88 376
91 114
92 29
93 86
94 14
95 225
96 71
97 226
98 140
99 138
100 82
101 230
102 87
107 81
108 12
109 274
110 23
111 163
112 64
121 82
123 131
124 16
125 179
127 27
129 99
130 56
139 257
141 95
155 79
171 20

$$$$

     RDKit          2D

 11 10  0  0  0  0  0  0  0  0999 V2000
   -6.8200    5.0625    0.0000 C   0  0  0  0  0  0  0  0  0  0  0  0
   -5.5209    2.8125    0.0000 C   0  0  0  0  0  0  0  0  0  0  0  0
   -0.3248    2.8125    0.0000 C   0  0  0  0  0  0  0  0  0  0  0  0
   -2.9228    4.3125    0.0000 C   0  0  0  0  0  0  0  0  0  0  0  0
   -4.2219    5.0625    0.0000 C   0  0  0  0  0  0  0  0  0  0  0  0
   -1.6238    5.0625    0.0000 C   0  0  0  0  0  0  0  0  0  0  0  0
    0.9743    5.0625    0.0000 C   0  0  0  0  0  0  0  0  0  0  0  0
    2.2733    4.3125    0.0000 C   0  0  0  0  0  0  0  0  0  0  0  0
   -5.5209    4.3125    0.0000 C   0  0  0  0  0  0  0  0  0  0  0  0
   -0.3248    4.3125    0.0000 C   0  0  0  0  0  0  0  0  0  0  0  0
    3.5724    5.0625    0.0000 O   0  0  0  0  0  0  0  0  0  0  0  0
  5  4  1  0
  6  4  1  0
  8  7  1  0
  9  1  1  0
  9  2  1  0
  9  5  2  0
 10  3  1  0
 10  6  1  0
 10  7  1  0
 11  8  2  0
M  END
>  <NAME>  (2324) 
CITRONELLAL

>  <SYNONYMS>  (2324) 
3,7-DIMETHYL-6-OCTENAL

>  <SPECTRUM TYPE>  (2324) 
MS1

>  <INSTRUMENT TYPE>  (2324) 
EI-B

>  <INSTRUMENT>  (2324) 
HITACHI M-80B

>  <ION MODE>  (2324) 
P

>  <INCHIKEY>  (2324) 
NEHNMFOYXAPHSD-UHFFFAOYSA-N

>  <FORMULA>  (2324) 
C10H18O

>  <EXACT MASS>  (2324) 
154.135765196

>  <MW>  (2324) 
154

>  <ID>  (2324) 
JP008698

>  <CONTRIBUTOR>  (2324) 
University of Tokyo Team, {Faculty of Engineering, University of Tokyo

>  <COMMENT>  (2324) 
SMILES=O=CCC(C)CCC=C(C)C
InChI=InChI=1S/C10H18O/c1-9(2)5-4-6-10(3)7-8-11/h5,8,10H,4,6-7H2,1-3H3
computed SMILES=O=CCC(C)CCC=C(C)C
accession=JP008698
date=2016.01.19 (Created 2008.10.21, modified 2011.05.06)
author=SODA AROMATIC CO., LTD.
license=CC BY-NC-SA
exact mass=154.13577
ionization energy=70 eV
ion type=[M]+*
computed spectral entropy=3.2817210607492115
computed normalized entropy=0.8346557979162817
SPLASH=splash10-066u-9100000000-95b49c5f5088a3eddc72
submitter=submitter = University of Tokyo Team (Faculty of Engineering, University of Tokyo)
MoNA Rating=3.75

>  <NUM PEAKS>  (2324) 
51

>  <MASS SPECTRAL PEAKS>  (2324) 
15 1.54
27 19.77
29 17.43
39 24.59
40 3.54
41 99.99
42 9.82
43 15.75
44 2.03
51 2.48
52 1.13
53 12.93
54 2.78
55 40.87
56 25.99
57 8.88
59 1.76
65 2.17
66 1.05
67 20.09
68 10.4
69 83.62
70 12.99
71 11.15
72 2.06
77 2.21
79 3.56
80 1.82
81 10.42
82 4.34
83 11.54
84 12.6
85 2.61
91 1.21
93 5.08
94 1.64
95 42.55
96 4.57
97 8.77
98 6.04
107 1.57
109 12.6
110 14.31
111 16.16
112 6.12
121 20.43
122 1.52
123 2.06
136 5.2
139 4.89
154 8.86

>  <PREDICTED SPECTRUM>  (2324) 
26 46
27 295
28 85
29 294
30 9
31 52
32 10
36 2
37 15
38 56
39 376
40 148
41 894
42 328
43 607
44 161
45 72
50 93
51 163
52 108
53 341
54 241
55 738
56 528
57 333
58 192
59 116
60 5
61 0
62 23
63 60
65 153
66 128
67 535
68 376
69 999
70 434
71 356
72 197
76 2
77 187
78 87
79 239
80 190
81 384
82 368
83 371
84 315
85 199
86 71
89 4
91 144
92 53
93 247
94 198
95 563
96 409
97 238
98 173
99 128
100 7
103 27
105 53
107 143
108 16
109 411
110 354
111 317
112 192
113 52
119 57
121 362
122 119
123 112
125 87
126 45
136 226
137 107
139 105
140 15
154 186
155 37

$$$$

     RDKit          2D

 11 10  0  0  0  0  0  0  0  0999 V2000
   -6.8200    5.0625    0.0000 C   0  0  0  0  0  0  0  0  0  0  0  0
   -5.5209    2.8125    0.0000 C   0  0  0  0  0  0  0  0  0  0  0  0
   -0.3248    2.8125    0.0000 C   0  0  0  0  0  0  0  0  0  0  0  0
   -2.9228    4.3125    0.0000 C   0  0  0  0  0  0  0  0  0  0  0  0
   -4.2219    5.0625    0.0000 C   0  0  0  0  0  0  0  0  0  0  0  0
   -1.6238    5.0625    0.0000 C   0  0  0  0  0  0  0  0  0  0  0  0
    0.9743    5.0625    0.0000 C   0  0  0  0  0  0  0  0  0  0  0  0
    2.2733    4.3125    0.0000 C   0  0  0  0  0  0  0  0  0  0  0  0
   -5.5209    4.3125    0.0000 C   0  0  0  0  0  0  0  0  0  0  0  0
   -0.3248    4.3125    0.0000 C   0  0  0  0  0  0  0  0  0  0  0  0
    3.5724    5.0625    0.0000 O   0  0  0  0  0  0  0  0  0  0  0  0
  5  4  1  0
  6  4  1  0
  8  7  1  0
  9  1  1  0
  9  2  1  0
  9  5  2  0
 10  3  1  0
 10  6  1  0
  7 10  2  0
 11  8  2  0
M  END
>  <NAME>  (2325) 
GERANAL

>  <SYNONYMS>  (2325) 
TRANS-3,7-DIMETHYL-2,6-OCTADIENAL

>  <SPECTRUM TYPE>  (2325) 
MS1

>  <INSTRUMENT TYPE>  (2325) 
EI-B

>  <INSTRUMENT>  (2325) 
HITACHI M-80B

>  <ION MODE>  (2325) 
P

>  <INCHIKEY>  (2325) 
WTEVQBCEXWBHNA-JXMROGBWSA-N

>  <FORMULA>  (2325) 
C10H16O

>  <EXACT MASS>  (2325) 
152.120115132

>  <MW>  (2325) 
152

>  <ID>  (2325) 
JP008697

>  <CONTRIBUTOR>  (2325) 
University of Tokyo Team, {Faculty of Engineering, University of Tokyo

>  <COMMENT>  (2325) 
SMILES=O=CC=C(C)CCC=C(C)C
InChI=InChI=1S/C10H16O/c1-9(2)5-4-6-10(3)7-8-11/h5,7-8H,4,6H2,1-3H3/b10-7+
computed SMILES=O=CC=C(C)CCC=C(C)C
accession=JP008697
date=2016.01.19 (Created 2008.10.21, modified 2011.05.06)
author=SODA AROMATIC CO., LTD.
license=CC BY-NC-SA
exact mass=152.12012
ionization energy=70 eV
ion type=[M]+*
computed spectral entropy=2.7082719318455832
computed normalized entropy=0.7292902583277721
SPLASH=splash10-00kf-9000000000-90723459c49195367705
submitter=submitter = University of Tokyo Team (Faculty of Engineering, University of Tokyo)
MoNA Rating=3.75

>  <NUM PEAKS>  (2325) 
41

>  <MASS SPECTRAL PEAKS>  (2325) 
27 14.26
29 7.66
39 23.59
40 2.12
41 87.5
42 3.89
43 3.69
50 1.15
51 2.86
52 1.32
53 10.37
54 2.33
55 5.49
56 2.85
59 3.1
65 2.4
67 6.92
68 2.19
69 99.99
70 5.33
77 2.95
79 2.69
80 1.57
81 5.24
82 3.68
83 7.19
84 25.02
85 1.41
91 2.77
93 1.46
94 13.03
95 3.22
107 1.12
108 1.22
109 6.37
110 1.04
119 1.85
123 5.49
134 1.19
137 4.45
152 4.39

>  <PREDICTED SPECTRUM>  (2325) 
15 20
25 2
26 59
27 260
28 88
29 235
30 8
31 21
32 10
36 10
37 54
38 96
39 431
40 179
41 782
42 240
43 220
44 56
45 35
50 101
51 187
52 135
53 294
54 137
55 236
56 157
57 126
58 25
59 49
60 2
61 29
62 47
63 91
64 50
65 163
66 92
67 309
68 178
69 999
70 301
71 67
72 57
73 27
74 34
75 18
76 27
77 173
78 103
79 181
80 111
81 236
82 210
83 242
84 207
85 61
86 8
87 37
88 2
89 8
91 162
92 77
93 102
94 105
95 198
96 162
97 51
98 17
103 14
105 65
107 66
108 119
109 298
110 151
111 61
112 37
115 26
117 9
119 65
120 10
121 38
122 12
123 149
124 51
133 8
134 52
135 26
136 30
137 144
138 51
151 13
152 149
153 35

$$$$

     RDKit          2D

 11 11  0  0  0  0  0  0  0  0999 V2000
    2.5987    3.0002    0.0000 C   0  0  0  0  0  0  0  0  0  0  0  0
    3.8981    0.7504    0.0000 C   0  0  0  0  0  0  0  0  0  0  0  0
   -1.3000    0.7500    0.0000 C   0  0  0  0  0  0  0  0  0  0  0  0
   -0.0000   -1.5000    0.0000 C   0  0  0  0  0  0  0  0  0  0  0  0
    0.0000    1.5000    0.0000 C   0  0  0  0  0  0  0  0  0  0  0  0
    1.3000   -0.7500    0.0000 C   0  0  0  0  0  0  0  0  0  0  0  0
   -2.5989   -1.5002    0.0000 C   0  0  0  0  0  0  0  0  0  0  0  0
    2.5989    1.5002    0.0000 C   0  0  0  0  0  0  0  0  0  0  0  0
   -1.3000   -0.7500    0.0000 C   0  0  0  0  0  0  0  0  0  0  0  0
    1.3000    0.7500    0.0000 C   0  0  0  0  0  0  0  0  0  0  0  0
   -3.8981   -0.7504    0.0000 O   0  0  0  0  0  0  0  0  0  0  0  0
  5  3  1  0
  6  4  1  0
  8  1  2  0
  8  2  1  0
  9  3  2  0
  9  4  1  0
  9  7  1  0
 10  5  1  0
 10  6  1  0
 10  8  1  0
 11  7  2  0
M  END
>  <NAME>  (2326) 
PERILLA ALDEHYDE

>  <SYNONYMS>  (2326) 


>  <SPECTRUM TYPE>  (2326) 
MS1

>  <INSTRUMENT TYPE>  (2326) 
EI-B

>  <INSTRUMENT>  (2326) 
HITACHI M-80B

>  <ION MODE>  (2326) 
P

>  <INCHIKEY>  (2326) 
RUMOYJJNUMEFDD-UHFFFAOYSA-N

>  <FORMULA>  (2326) 
C10H14O

>  <EXACT MASS>  (2326) 
150.104465068

>  <MW>  (2326) 
150

>  <ID>  (2326) 
JP008695

>  <CONTRIBUTOR>  (2326) 
University of Tokyo Team, {Faculty of Engineering, University of Tokyo

>  <COMMENT>  (2326) 
SMILES=O=CC(C1)=CCC(C(C)=C)C1
InChI=InChI=1S/C10H14O/c1-8(2)10-5-3-9(7-11)4-6-10/h3,7,10H,1,4-6H2,2H3
computed SMILES=O=CC1=CCC(C(=C)C)CC1
accession=JP008695
date=2016.01.19 (Created 2008.10.21, modified 2011.05.06)
author=SODA AROMATIC CO., LTD.
license=CC BY-NC-SA
exact mass=150.10447
ionization energy=70 eV
ion type=[M]+*
computed spectral entropy=3.4071648881534835
computed normalized entropy=0.8709470479661944
SPLASH=splash10-016r-9200000000-489825eb61952c9dac22
submitter=submitter = University of Tokyo Team (Faculty of Engineering, University of Tokyo)
MoNA Rating=3.75

>  <NUM PEAKS>  (2326) 
50

>  <MASS SPECTRAL PEAKS>  (2326) 
26 1.43
27 23.08
29 13.82
38 2.71
39 50.24
40 6.99
41 41.28
42 5.18
43 6.06
50 4.63
51 13.68
52 6.75
53 45.46
54 4.51
55 12.56
63 3.72
65 10.38
66 8.89
67 59.89
68 99.99
69 6.88
77 32.91
78 8.02
79 67.17
80 11.26
81 11.98
82 2.38
91 22.48
92 7.54
93 28.34
94 11.55
95 13.48
103 2.53
104 1.35
105 11.26
106 13.31
107 39.72
108 15.45
109 6.51
115 2.16
117 7.41
119 4.05
121 16.19
122 21.72
123 2.06
132 3.62
135 17.19
145 1.02
150 17.92
151 2.34

>  <PREDICTED SPECTRUM>  (2326) 
25 16
26 145
27 473
28 131
29 344
30 39
31 72
37 111
38 179
39 767
40 346
41 853
42 322
43 284
44 154
49 92
50 274
51 445
52 357
53 642
54 327
55 465
56 215
57 174
58 75
59 76
60 28
61 92
62 153
63 249
64 154
65 438
66 378
67 883
68 708
69 404
70 214
71 120
72 2
74 98
75 138
76 91
77 623
78 378
79 999
80 524
81 682
82 459
83 313
84 223
85 30
86 34
87 0
88 14
89 125
90 71
91 703
92 399
93 645
94 523
95 541
96 226
97 134
98 100
99 2
101 40
102 66
103 241
104 254
105 455
106 575
107 931
108 549
109 330
110 168
112 10
115 134
116 94
117 420
118 185
119 333
120 157
121 703
122 460
123 206
130 75
131 271
132 264
133 234
134 96
135 444
136 144
148 16
149 161
150 406
151 131

$$$$

     RDKit          2D

 11 12  0  0  0  0  0  0  0  0999 V2000
    1.3259   -2.1785    0.0000 C   0  0  0  0  0  0  0  0  0  0  0  0
    2.2869   -0.5080    0.0000 C   0  0  0  0  0  0  0  0  0  0  0  0
   -1.7800    0.7300    0.0000 C   0  0  0  0  0  0  0  0  0  0  0  0
   -1.7800   -0.7700    0.0000 C   0  0  0  0  0  0  0  0  0  0  0  0
   -0.4800   -0.0200    0.0000 C   0  0  0  0  0  0  0  0  0  0  0  0
   -0.4775    2.9800    0.0000 C   0  0  0  0  0  0  0  0  0  0  0  0
   -0.4800    1.4800    0.0000 C   0  0  0  0  0  0  0  0  0  0  0  0
   -0.4800   -1.5200    0.0000 C   0  0  0  0  0  0  0  0  0  0  0  0
    0.8100    0.7300    0.0000 C   0  0  0  0  0  0  0  0  0  0  0  0
    0.8100   -0.7700    0.0000 C   0  0  0  0  0  0  0  0  0  0  0  0
   -1.7753    3.7322    0.0000 O   0  0  0  0  0  0  0  0  0  0  0  0
  4  3  1  0
  7  3  2  0
  7  6  1  0
  8  4  1  0
  8  5  1  0
  9  5  1  0
  9  7  1  0
 10  1  1  0
 10  2  1  0
 10  8  1  0
 10  9  1  0
 11  6  2  0
M  END
>  <NAME>  (2327) 
MYRTENAL

>  <SYNONYMS>  (2327) 


>  <SPECTRUM TYPE>  (2327) 
MS1

>  <INSTRUMENT TYPE>  (2327) 
EI-B

>  <INSTRUMENT>  (2327) 
HITACHI M-80B

>  <ION MODE>  (2327) 
P

>  <INCHIKEY>  (2327) 
KMRMUZKLFIEVAO-UHFFFAOYSA-N

>  <FORMULA>  (2327) 
C10H14O

>  <EXACT MASS>  (2327) 
150.104465068

>  <MW>  (2327) 
150

>  <ID>  (2327) 
JP008694

>  <CONTRIBUTOR>  (2327) 
University of Tokyo Team, {Faculty of Engineering, University of Tokyo

>  <COMMENT>  (2327) 
SMILES=O=CC(=C2)C([H])(C1)C(C)(C)C([H])(C2)1
InChI=InChI=1S/C10H14O/c1-10(2)8-4-3-7(6-11)9(10)5-8/h3,6,8-9H,4-5H2,1-2H3
computed SMILES=O=CC1=CCC2CC1C2(C)C
accession=JP008694
date=2016.01.19 (Created 2008.10.21, modified 2011.05.06)
author=SODA AROMATIC CO., LTD.
license=CC BY-NC-SA
exact mass=150.10447
ionization energy=70 eV
ion type=[M]+*
computed spectral entropy=3.2863480272798062
computed normalized entropy=0.8358325964223204
SPLASH=splash10-0a6r-9400000000-fcdf2367f56405b75648
submitter=submitter = University of Tokyo Team (Faculty of Engineering, University of Tokyo)
MoNA Rating=3.75

>  <NUM PEAKS>  (2327) 
51

>  <MASS SPECTRAL PEAKS>  (2327) 
15 1.19
27 20.8
29 13.06
38 1.61
39 30.92
40 3.32
41 33.22
42 1.84
43 13.21
50 3.63
51 13.89
52 4.92
53 18.09
54 2.15
55 6.12
59 2.19
63 3.51
65 10.89
66 13.76
67 10.62
68 2.92
69 3.2
77 37.96
78 9.57
79 99.99
80 11.61
81 6.41
82 1.65
83 1.04
90 1.36
91 32.05
92 5.51
93 12.04
94 11.19
95 4.55
96 1.68
103 2.41
104 1.09
105 24.63
106 32.54
107 67.97
108 34.93
109 5.98
115 1.88
117 5.87
119 1.7
121 6.19
122 2.22
135 13.61
136 1.1
150 2.46

>  <PREDICTED SPECTRUM>  (2327) 
14 0
25 8
26 107
27 503
28 145
29 424
30 53
31 35
32 4
37 50
38 123
39 624
40 249
41 802
42 166
43 399
44 119
45 83
46 38
47 44
49 40
50 191
51 387
52 190
53 441
54 132
55 401
56 142
57 201
58 68
59 75
60 18
61 50
62 113
63 247
64 159
65 400
66 247
67 506
68 223
69 469
70 191
71 72
72 73
74 93
75 85
76 71
77 690
78 315
79 806
80 337
81 440
82 382
83 206
84 73
89 134
90 127
91 983
92 473
93 667
94 292
95 231
96 95
102 87
103 230
104 103
105 720
106 619
107 999
108 474
109 232
110 61
115 4
116 41
117 272
118 23
119 96
120 12
121 324
122 172
123 57
132 95
133 63
134 75
135 288
136 40
148 25
149 67
150 262
151 81

$$$$

     RDKit          2D

 13 12  0  0  0  0  0  0  0  0999 V2000
    3.8971    6.0000    0.0000 C   0  0  0  0  0  0  0  0  0  0  0  0
   -9.0933    6.0000    0.0000 C   0  0  0  0  0  0  0  0  0  0  0  0
    2.5981    6.7500    0.0000 C   0  0  0  0  0  0  0  0  0  0  0  0
    1.2990    6.0000    0.0000 C   0  0  0  0  0  0  0  0  0  0  0  0
    0.0000    6.7500    0.0000 C   0  0  0  0  0  0  0  0  0  0  0  0
   -1.2990    6.0000    0.0000 C   0  0  0  0  0  0  0  0  0  0  0  0
   -2.5981    6.7500    0.0000 C   0  0  0  0  0  0  0  0  0  0  0  0
   -3.8971    6.0000    0.0000 C   0  0  0  0  0  0  0  0  0  0  0  0
   -5.1962    6.7500    0.0000 C   0  0  0  0  0  0  0  0  0  0  0  0
   -6.4952    6.0000    0.0000 C   0  0  0  0  0  0  0  0  0  0  0  0
   -7.7942    8.2500    0.0000 C   0  0  0  0  0  0  0  0  0  0  0  0
   -7.7942    6.7500    0.0000 C   0  0  0  0  0  0  0  0  0  0  0  0
   -9.0933    9.0000    0.0000 O   0  0  0  0  0  0  0  0  0  0  0  0
  3  1  1  0
  4  3  1  0
  5  4  1  0
  6  5  1  0
  7  6  1  0
  8  7  1  0
  9  8  1  0
 10  9  1  0
 12  2  1  0
 12 10  1  0
 12 11  1  0
 13 11  2  0
M  END
>  <NAME>  (2328) 
2-METHYLUNDECANAL

>  <SYNONYMS>  (2328) 


>  <SPECTRUM TYPE>  (2328) 
MS1

>  <INSTRUMENT TYPE>  (2328) 
EI-B

>  <INSTRUMENT>  (2328) 
HITACHI M-80B

>  <ION MODE>  (2328) 
P

>  <INCHIKEY>  (2328) 
NFAVNWJJYQAGNB-UHFFFAOYSA-N

>  <FORMULA>  (2328) 
C12H24O

>  <EXACT MASS>  (2328) 
184.182715388

>  <MW>  (2328) 
184

>  <ID>  (2328) 
JP008693

>  <CONTRIBUTOR>  (2328) 
University of Tokyo Team, {Faculty of Engineering, University of Tokyo

>  <COMMENT>  (2328) 
SMILES=CCCCCCCCCC(C)C=O
InChI=InChI=1S/C12H24O/c1-3-4-5-6-7-8-9-10-12(2)11-13/h11-12H,3-10H2,1-2H3
computed SMILES=O=CC(C)CCCCCCCCC
accession=JP008693
date=2016.01.19 (Created 2008.10.21, modified 2011.05.06)
author=SODA AROMATIC CO., LTD.
license=CC BY-NC-SA
exact mass=184.18272
ionization energy=70 eV
ion type=[M]+*
computed spectral entropy=2.405133735955808
computed normalized entropy=0.7217845509216205
SPLASH=splash10-0a4i-9000000000-131946dcf67c5d7db311
submitter=submitter = University of Tokyo Team (Faculty of Engineering, University of Tokyo)
MoNA Rating=3.75

>  <NUM PEAKS>  (2328) 
28

>  <MASS SPECTRAL PEAKS>  (2328) 
27 9.39
29 15.99
39 4.96
41 25.58
42 4.16
43 29.02
53 1.66
54 1.44
55 13.25
56 3.55
57 20.04
58 99.99
59 3.08
67 2.21
68 1.95
69 3.72
70 1.75
71 12.81
72 1.01
81 2.87
82 2.55
83 1.74
85 2.86
95 2.09
96 1.03
97 1.2
126 3.41
142 1.21

>  <PREDICTED SPECTRUM>  (2328) 
15 51
18 10
26 39
27 386
28 177
29 564
30 309
31 110
32 35
39 303
40 99
41 902
42 412
43 999
44 407
45 117
51 41
52 51
53 255
54 178
55 764
56 470
57 893
58 517
59 349
65 73
66 76
67 261
68 190
69 592
70 363
71 662
72 349
73 17
79 94
80 47
81 278
82 203
83 410
84 108
85 401
86 394
87 26
95 155
96 249
97 299
98 123
99 201
109 9
110 7
112 28
113 145
114 38
127 113
128 46
140 50
141 16
155 165
156 60
184 17

$$$$

     RDKit          2D

 11 10  0  0  0  0  0  0  0  0999 V2000
    3.2476    5.6250    0.0000 C   0  0  0  0  0  0  0  0  0  0  0  0
    1.9486    6.3750    0.0000 C   0  0  0  0  0  0  0  0  0  0  0  0
    0.6495    5.6250    0.0000 C   0  0  0  0  0  0  0  0  0  0  0  0
   -0.6495    6.3750    0.0000 C   0  0  0  0  0  0  0  0  0  0  0  0
   -1.9486    5.6250    0.0000 C   0  0  0  0  0  0  0  0  0  0  0  0
   -3.2476    6.3750    0.0000 C   0  0  0  0  0  0  0  0  0  0  0  0
   -4.5466    5.6250    0.0000 C   0  0  0  0  0  0  0  0  0  0  0  0
   -5.8457    6.3750    0.0000 C   0  0  0  0  0  0  0  0  0  0  0  0
   -7.1447    5.6250    0.0000 C   0  0  0  0  0  0  0  0  0  0  0  0
   -8.4437    6.3750    0.0000 C   0  0  0  0  0  0  0  0  0  0  0  0
   -9.7428    5.6250    0.0000 O   0  0  0  0  0  0  0  0  0  0  0  0
  2  1  1  0
  3  2  1  0
  4  3  1  0
  5  4  1  0
  6  5  1  0
  7  6  1  0
  8  7  1  0
  8  9  2  0
 10  9  1  0
 11 10  2  0
M  END
>  <NAME>  (2329) 
TRANS-2-DECENAL

>  <SYNONYMS>  (2329) 


>  <SPECTRUM TYPE>  (2329) 
MS1

>  <INSTRUMENT TYPE>  (2329) 
EI-B

>  <INSTRUMENT>  (2329) 
HITACHI M-80B

>  <ION MODE>  (2329) 
P

>  <INCHIKEY>  (2329) 
MMFCJPPRCYDLLZ-CMDGGOBGSA-N

>  <FORMULA>  (2329) 
C10H18O

>  <EXACT MASS>  (2329) 
154.135765196

>  <MW>  (2329) 
154

>  <ID>  (2329) 
JP008686

>  <CONTRIBUTOR>  (2329) 
University of Tokyo Team, {Faculty of Engineering, University of Tokyo

>  <COMMENT>  (2329) 
SMILES=CCCCCCCC=CC=O
InChI=InChI=1S/C10H18O/c1-2-3-4-5-6-7-8-9-10-11/h8-10H,2-7H2,1H3/b9-8+
computed SMILES=O=CC=CCCCCCCC
accession=JP008686
date=2016.01.19 (Created 2008.10.21, modified 2011.05.06)
author=SODA AROMATIC CO., LTD.
license=CC BY-NC-SA
exact mass=154.13577
ionization energy=70 eV
ion type=[M]+*
computed spectral entropy=3.314483742827849
computed normalized entropy=0.8197976041503623
SPLASH=splash10-054o-9000000000-9813bb4d7d8bd9566af9
submitter=submitter = University of Tokyo Team (Faculty of Engineering, University of Tokyo)
MoNA Rating=3.75

>  <NUM PEAKS>  (2329) 
57

>  <MASS SPECTRAL PEAKS>  (2329) 
15 1.62
26 2.57
27 49.05
28 1.34
29 54.14
30 1.26
38 1.87
39 49.31
40 6.93
41 99.99
42 22.34
43 90.99
44 3.3
50 1.11
51 3.63
52 1.87
53 14.59
54 14.27
55 72.14
56 31.66
57 47.1
58 2.58
65 2.49
66 3.09
67 17.49
68 18.62
69 33.27
70 75.14
71 7.52
72 5.68
77 2.76
78 1.11
79 8.13
80 4
81 19.68
82 7.64
83 42.47
84 14.75
85 2.33
86 7.7
91 1.16
93 5.46
94 3.91
95 6.86
96 2.23
97 16.58
98 19.38
99 1.4
107 6.27
108 3.27
110 9.98
111 6.26
112 3.53
121 3.36
123 1.94
125 1.67
136 3.41

>  <PREDICTED SPECTRUM>  (2329) 
14 26
15 99
16 14
17 26
18 50
19 15
25 28
26 179
27 653
28 313
29 736
30 89
31 223
32 48
37 78
38 135
39 621
40 256
41 999
42 586
43 772
44 218
45 116
47 6
49 1
50 110
51 200
52 160
53 376
54 444
55 891
56 711
57 690
58 229
59 109
60 25
61 18
62 37
63 82
64 33
65 190
66 198
67 460
68 431
69 674
70 791
71 379
72 153
73 15
77 141
78 84
79 315
80 182
81 434
82 431
83 622
84 480
85 181
86 56
89 17
91 105
92 58
93 219
94 174
95 304
96 235
97 361
98 260
99 121
100 37
102 4
107 308
108 202
109 141
110 210
111 214
112 117
113 10
121 121
123 8
124 6
125 135
126 93
136 233
137 1
154 13

$$$$

     RDKit          2D

 10  9  0  0  0  0  0  0  0  0999 V2000
   -8.4437    5.6250    0.0000 C   0  0  0  0  0  0  0  0  0  0  0  0
   -7.1447    4.8750    0.0000 C   0  0  0  0  0  0  0  0  0  0  0  0
   -5.8457    5.6250    0.0000 C   0  0  0  0  0  0  0  0  0  0  0  0
   -4.5466    4.8750    0.0000 C   0  0  0  0  0  0  0  0  0  0  0  0
   -3.2476    5.6250    0.0000 C   0  0  0  0  0  0  0  0  0  0  0  0
   -1.9486    4.8750    0.0000 C   0  0  0  0  0  0  0  0  0  0  0  0
   -0.6495    5.6250    0.0000 C   0  0  0  0  0  0  0  0  0  0  0  0
    0.6495    4.8750    0.0000 C   0  0  0  0  0  0  0  0  0  0  0  0
    1.9486    5.6250    0.0000 C   0  0  0  0  0  0  0  0  0  0  0  0
    3.2476    4.8750    0.0000 O   0  0  0  0  0  0  0  0  0  0  0  0
  2  1  1  0
  3  2  1  0
  4  3  1  0
  5  4  1  0
  6  5  1  0
  7  6  1  0
  7  8  2  0
  9  8  1  0
 10  9  2  0
M  END
>  <NAME>  (2330) 
TRANS-2-NONENAL

>  <SYNONYMS>  (2330) 


>  <SPECTRUM TYPE>  (2330) 
MS1

>  <INSTRUMENT TYPE>  (2330) 
EI-B

>  <INSTRUMENT>  (2330) 
HITACHI M-80B

>  <ION MODE>  (2330) 
P

>  <INCHIKEY>  (2330) 
BSAIUMLZVGUGKX-BQYQJAHWSA-N

>  <FORMULA>  (2330) 
C9H16O

>  <EXACT MASS>  (2330) 
140.120115132

>  <MW>  (2330) 
140

>  <ID>  (2330) 
JP008684

>  <CONTRIBUTOR>  (2330) 
University of Tokyo Team, {Faculty of Engineering, University of Tokyo

>  <COMMENT>  (2330) 
SMILES=CCCCCCC=CC=O
InChI=InChI=1S/C9H16O/c1-2-3-4-5-6-7-8-9-10/h7-9H,2-6H2,1H3/b8-7+
computed SMILES=O=CC=CCCCCCC
accession=JP008684
date=2016.01.19 (Created 2008.10.21, modified 2011.05.06)
author=SODA AROMATIC CO., LTD.
license=CC BY-NC-SA
exact mass=140.12012
ionization energy=70 eV
ion type=[M]+*
computed spectral entropy=3.2396857200165017
computed normalized entropy=0.8281356514318194
SPLASH=splash10-054o-9000000000-17c8fee9e98238a754e9
submitter=submitter = University of Tokyo Team (Faculty of Engineering, University of Tokyo)
MoNA Rating=3.75

>  <NUM PEAKS>  (2330) 
50

>  <MASS SPECTRAL PEAKS>  (2330) 
15 2.41
26 3.72
27 56.28
28 6.35
29 56.41
30 1.18
38 2.51
39 57.17
40 7.23
41 99.99
42 30.34
43 88.19
44 2.89
50 1.78
51 4.28
52 2.32
53 15.19
54 15.76
55 71.05
56 27.21
57 43.55
58 5.97
65 2.61
66 2.66
67 17.09
68 11.11
69 35.24
70 65.18
71 7.59
72 8.11
77 2.42
79 5.65
80 2.94
81 15.96
82 4.7
83 43.94
84 22.67
85 2.66
93 7.65
94 4.17
95 2.08
96 18.35
97 11.73
98 10.38
99 1.08
107 2.65
109 2.24
111 4.59
112 1.79
122 3

>  <PREDICTED SPECTRUM>  (2330) 
14 35
15 124
16 18
17 22
18 50
19 11
25 30
26 200
27 703
28 350
29 766
30 59
31 229
32 47
36 2
37 82
38 154
39 673
40 279
41 999
42 618
43 733
44 216
45 103
47 7
49 6
50 120
51 214
52 162
53 348
54 433
55 926
56 724
57 621
58 210
59 76
61 2
62 17
63 81
64 23
65 181
66 190
67 433
68 448
69 657
70 797
71 303
72 107
75 12
77 146
78 106
79 263
80 194
81 431
82 366
83 606
84 499
85 181
91 62
93 321
94 197
95 244
96 295
97 336
98 163
99 43
107 125
109 3
111 208
112 140
113 24
122 261
123 12
125 1
140 31

$$$$

     RDKit          2D

  9  8  0  0  0  0  0  0  0  0999 V2000
    1.6238    3.9375    0.0000 C   0  0  0  0  0  0  0  0  0  0  0  0
   -6.1704    3.9375    0.0000 C   0  0  0  0  0  0  0  0  0  0  0  0
    0.3248    4.6875    0.0000 C   0  0  0  0  0  0  0  0  0  0  0  0
   -4.8714    4.6875    0.0000 C   0  0  0  0  0  0  0  0  0  0  0  0
   -0.9743    3.9375    0.0000 C   0  0  0  0  0  0  0  0  0  0  0  0
   -2.2733    4.6875    0.0000 C   0  0  0  0  0  0  0  0  0  0  0  0
   -3.5724    2.4375    0.0000 C   0  0  0  0  0  0  0  0  0  0  0  0
   -3.5724    3.9375    0.0000 C   0  0  0  0  0  0  0  0  0  0  0  0
   -4.8714    1.6875    0.0000 O   0  0  0  0  0  0  0  0  0  0  0  0
  3  1  1  0
  4  2  1  0
  5  3  1  0
  6  5  1  0
  8  4  1  0
  8  6  1  0
  8  7  1  0
  9  7  2  0
M  END
>  <NAME>  (2331) 
2-ETHYLHEXANAL

>  <SYNONYMS>  (2331) 


>  <SPECTRUM TYPE>  (2331) 
MS1

>  <INSTRUMENT TYPE>  (2331) 
EI-B

>  <INSTRUMENT>  (2331) 
HITACHI M-80B

>  <ION MODE>  (2331) 
P

>  <INCHIKEY>  (2331) 
LGYNIFWIKSEESD-UHFFFAOYSA-N

>  <FORMULA>  (2331) 
C8H16O

>  <EXACT MASS>  (2331) 
128.120115132

>  <MW>  (2331) 
128

>  <ID>  (2331) 
JP008683

>  <CONTRIBUTOR>  (2331) 
University of Tokyo Team, {Faculty of Engineering, University of Tokyo

>  <COMMENT>  (2331) 
SMILES=CCCCC(CC)C=O
InChI=InChI=1S/C8H16O/c1-3-5-6-8(4-2)7-9/h7-8H,3-6H2,1-2H3
computed SMILES=O=CC(CC)CCCC
accession=JP008683
date=2016.01.19 (Created 2008.10.21, modified 2011.05.06)
author=SODA AROMATIC CO., LTD.
license=CC BY-NC-SA
exact mass=128.12012
ionization energy=70 eV
ion type=[M]+*
computed spectral entropy=2.313391209665458
computed normalized entropy=0.710043788656518
SPLASH=splash10-0adl-9000000000-d67f0da9f8a00bcaccea
submitter=submitter = University of Tokyo Team (Faculty of Engineering, University of Tokyo)
MoNA Rating=3.75

>  <NUM PEAKS>  (2331) 
26

>  <MASS SPECTRAL PEAKS>  (2331) 
15 1.38
26 1.31
27 25.88
29 30.05
31 1.05
39 17.65
40 1.2
41 48.81
42 7.01
43 41.34
44 2.54
51 1.08
53 3.02
54 2.9
55 14.38
56 3.38
57 91.39
58 4.19
67 1.51
69 1.67
70 1.04
71 4.15
72 99.99
73 3.88
82 2.04
85 2.17

>  <PREDICTED SPECTRUM>  (2331) 
14 7
15 88
18 14
25 22
26 144
27 509
28 284
29 734
30 137
31 202
32 32
33 5
35 37
37 60
38 120
39 449
40 178
41 857
42 394
43 757
44 291
45 99
47 32
50 48
51 90
52 40
53 271
54 189
55 561
56 517
57 999
58 247
59 69
60 0
63 12
67 21
69 308
70 253
71 796
72 234
73 63
74 6
82 102
83 19
84 34
85 63
98 62
99 693
100 220
101 27
128 209
129 60

$$$$

     RDKit          2D

  9  8  0  0  0  0  0  0  0  0999 V2000
    1.6238    3.9375    0.0000 C   0  0  0  0  0  0  0  0  0  0  0  0
   -4.8714    1.6875    0.0000 C   0  0  0  0  0  0  0  0  0  0  0  0
    0.3248    4.6875    0.0000 C   0  0  0  0  0  0  0  0  0  0  0  0
   -3.5724    2.4375    0.0000 C   0  0  0  0  0  0  0  0  0  0  0  0
   -0.9743    3.9375    0.0000 C   0  0  0  0  0  0  0  0  0  0  0  0
   -2.2733    4.6875    0.0000 C   0  0  0  0  0  0  0  0  0  0  0  0
   -4.8714    4.6875    0.0000 C   0  0  0  0  0  0  0  0  0  0  0  0
   -3.5724    3.9375    0.0000 C   0  0  0  0  0  0  0  0  0  0  0  0
   -6.1704    3.9375    0.0000 O   0  0  0  0  0  0  0  0  0  0  0  0
  3  1  1  0
  4  2  1  0
  5  3  1  0
  6  5  1  0
  8  4  1  0
  6  8  2  0
  8  7  1  0
  9  7  2  0
M  END
>  <NAME>  (2332) 
2-ETHYL-2-HEXENAL

>  <SYNONYMS>  (2332) 


>  <SPECTRUM TYPE>  (2332) 
MS1

>  <INSTRUMENT TYPE>  (2332) 
EI-B

>  <INSTRUMENT>  (2332) 
HITACHI M-80B

>  <ION MODE>  (2332) 
P

>  <INCHIKEY>  (2332) 
PYLMCYQHBRSDND-SOFGYWHQSA-N

>  <FORMULA>  (2332) 
C8H14O

>  <EXACT MASS>  (2332) 
126.104465068

>  <MW>  (2332) 
126

>  <ID>  (2332) 
JP008681

>  <CONTRIBUTOR>  (2332) 
University of Tokyo Team, {Faculty of Engineering, University of Tokyo

>  <COMMENT>  (2332) 
SMILES=CCCC=C(CC)C=O
InChI=InChI=1S/C8H14O/c1-3-5-6-8(4-2)7-9/h6-7H,3-5H2,1-2H3/b8-6+
computed SMILES=O=CC(=CCCC)CC
accession=JP008681
date=2016.01.19 (Created 2008.10.21, modified 2011.05.06)
author=SODA AROMATIC CO., LTD.
license=CC BY-NC-SA
exact mass=126.10447
ion type=[M]+*
ionization energy=70 eV
computed spectral entropy=3.142892321888239
computed normalized entropy=0.80339310825302
SPLASH=splash10-056u-9000000000-a2b1bf5f5659fd1dc002
submitter=submitter = University of Tokyo Team (Faculty of Engineering, University of Tokyo)
MoNA Rating=3.75

>  <NUM PEAKS>  (2332) 
50

>  <MASS SPECTRAL PEAKS>  (2332) 
15 1.98
26 2.15
27 41.6
28 2.78
29 30.34
31 1.06
38 2.41
39 42.22
40 4.89
41 82.48
42 12.16
43 25.56
44 1.52
45 1.17
50 2.81
51 5.82
52 2.62
53 19.78
54 3.09
55 99.99
56 13.43
57 11.99
63 1.82
65 3.34
66 2.17
67 19.84
68 3.64
69 18.68
70 4.39
71 3.82
72 1.4
77 5.56
78 1.11
79 5.6
81 4.36
82 1.01
83 15.07
84 4.25
85 7.04
91 2.66
93 13.02
95 3.18
96 1
97 40.56
98 3.36
111 19.27
112 1.08
125 1.61
126 37.07
127 2.85

>  <PREDICTED SPECTRUM>  (2332) 
14 0
15 70
25 8
26 124
27 514
28 200
29 517
31 3
32 8
37 77
38 132
39 612
40 271
41 999
42 345
43 659
44 170
45 38
50 178
51 290
52 189
53 475
54 260
55 949
56 339
57 352
58 132
60 47
62 35
63 91
64 22
65 268
66 179
67 601
68 235
69 687
70 296
71 226
72 30
77 301
78 145
79 375
80 64
81 287
82 259
83 435
84 233
85 88
91 118
92 39
93 159
94 12
95 218
96 1
97 863
98 369
99 57
108 24
109 99
111 421
112 111
125 95
126 543
127 174
128 33

$$$$

     RDKit          2D

  8  7  0  0  0  0  0  0  0  0999 V2000
   -3.5724    2.0625    0.0000 C   0  0  0  0  0  0  0  0  0  0  0  0
   -2.2733    2.8125    0.0000 C   0  0  0  0  0  0  0  0  0  0  0  0
   -2.2733    4.3125    0.0000 C   0  0  0  0  0  0  0  0  0  0  0  0
   -0.9743    5.0625    0.0000 C   0  0  0  0  0  0  0  0  0  0  0  0
    0.3248    4.3125    0.0000 C   0  0  0  0  0  0  0  0  0  0  0  0
    1.6238    5.0625    0.0000 C   0  0  0  0  0  0  0  0  0  0  0  0
    2.9228    4.3125    0.0000 C   0  0  0  0  0  0  0  0  0  0  0  0
    4.2219    5.0625    0.0000 O   0  0  0  0  0  0  0  0  0  0  0  0
  2  1  1  0
  3  2  1  0
  3  4  2  0
  5  4  1  0
  6  5  1  0
  7  6  1  0
  8  7  2  0
M  END
>  <NAME>  (2333) 
CIS-4-HEPTENAL

>  <SYNONYMS>  (2333) 


>  <SPECTRUM TYPE>  (2333) 
MS1

>  <INSTRUMENT TYPE>  (2333) 
EI-B

>  <INSTRUMENT>  (2333) 
HITACHI M-80B

>  <ION MODE>  (2333) 
P

>  <INCHIKEY>  (2333) 
VVGOCOMZRGWHPI-ARJAWSKDSA-N

>  <FORMULA>  (2333) 
C7H12O

>  <EXACT MASS>  (2333) 
112.088815004

>  <MW>  (2333) 
112

>  <ID>  (2333) 
JP008679

>  <CONTRIBUTOR>  (2333) 
University of Tokyo Team, {Faculty of Engineering, University of Tokyo

>  <COMMENT>  (2333) 
SMILES=CCC=CCCC=O
InChI=InChI=1S/C7H12O/c1-2-3-4-5-6-7-8/h3-4,7H,2,5-6H2,1H3/b4-3-
computed SMILES=O=CCCC=CCC
accession=JP008679
date=2016.01.19 (Created 2008.10.21, modified 2011.05.06)
author=SODA AROMATIC CO., LTD.
license=CC BY-NC-SA
exact mass=112.08882
ionization energy=70 eV
ion type=[M]+*
computed spectral entropy=3.0227786349372296
computed normalized entropy=0.8194300389962992
SPLASH=splash10-069u-9000000000-a21983533c6d768fcdeb
submitter=submitter = University of Tokyo Team (Faculty of Engineering, University of Tokyo)
MoNA Rating=3.75

>  <NUM PEAKS>  (2333) 
40

>  <MASS SPECTRAL PEAKS>  (2333) 
15 2.93
26 3.36
27 36.49
29 31.4
31 1.56
37 1.06
38 3.32
39 49.63
40 8.51
41 99.99
42 27.66
43 11.39
44 1.28
50 3.89
51 7.92
52 3
53 22.59
54 6.48
55 68.46
56 28.27
57 13.28
58 1.11
63 1.65
65 3.3
66 2.72
67 35.26
68 68.54
69 17.12
70 9.96
71 1.14
77 3.29
79 10.36
81 3.82
83 32.71
84 49.33
85 2.23
94 11.86
95 1.17
97 2.68
112 2.82

>  <PREDICTED SPECTRUM>  (2333) 
26 114
27 368
28 165
29 267
30 79
31 39
37 50
38 152
39 652
40 294
41 903
42 442
43 254
44 170
50 136
51 189
52 183
53 431
54 313
55 873
56 511
57 355
58 90
62 33
63 76
65 180
66 289
67 909
68 999
69 618
70 475
71 105
77 108
78 11
79 218
80 49
81 308
83 481
84 441
85 39
93 87
94 350
95 83
97 85
112 220
113 14

$$$$

     RDKit          2D

  8  7  0  0  0  0  0  0  0  0999 V2000
   -6.4952    4.5000    0.0000 C   0  0  0  0  0  0  0  0  0  0  0  0
   -5.1962    3.7500    0.0000 C   0  0  0  0  0  0  0  0  0  0  0  0
   -3.8971    4.5000    0.0000 C   0  0  0  0  0  0  0  0  0  0  0  0
   -2.5981    3.7500    0.0000 C   0  0  0  0  0  0  0  0  0  0  0  0
   -1.2990    4.5000    0.0000 C   0  0  0  0  0  0  0  0  0  0  0  0
    0.0000    3.7500    0.0000 C   0  0  0  0  0  0  0  0  0  0  0  0
    1.2990    4.5000    0.0000 C   0  0  0  0  0  0  0  0  0  0  0  0
    2.5981    3.7500    0.0000 O   0  0  0  0  0  0  0  0  0  0  0  0
  2  1  1  0
  3  2  1  0
  4  3  1  0
  5  4  1  0
  5  6  2  0
  7  6  1  0
  8  7  2  0
M  END
>  <NAME>  (2334) 
TRANS-2-HEPTENAL

>  <SYNONYMS>  (2334) 


>  <SPECTRUM TYPE>  (2334) 
MS1

>  <INSTRUMENT TYPE>  (2334) 
EI-B

>  <INSTRUMENT>  (2334) 
HITACHI M-80B

>  <ION MODE>  (2334) 
P

>  <INCHIKEY>  (2334) 
NDFKTBCGKNOHPJ-AATRIKPKSA-N

>  <FORMULA>  (2334) 
C7H12O

>  <EXACT MASS>  (2334) 
112.088815004

>  <MW>  (2334) 
112

>  <ID>  (2334) 
JP008678

>  <CONTRIBUTOR>  (2334) 
University of Tokyo Team, {Faculty of Engineering, University of Tokyo

>  <COMMENT>  (2334) 
SMILES=CCCCC=CC=O
InChI=InChI=1S/C7H12O/c1-2-3-4-5-6-7-8/h5-7H,2-4H2,1H3/b6-5+
computed SMILES=O=CC=CCCCC
accession=JP008678
date=2016.01.19 (Created 2008.10.21, modified 2011.05.06)
author=SODA AROMATIC CO., LTD.
license=CC BY-NC-SA
exact mass=112.08882
ionization energy=70 eV
ion type=[M]+*
computed spectral entropy=3.031146039625372
computed normalized entropy=0.8162346078597661
SPLASH=splash10-0a6u-9000000000-1e3da23b690c3ef7c024
submitter=submitter = University of Tokyo Team (Faculty of Engineering, University of Tokyo)
MoNA Rating=3.75

>  <NUM PEAKS>  (2334) 
41

>  <MASS SPECTRAL PEAKS>  (2334) 
15 3.14
26 5.34
27 66.48
28 9.53
29 35.18
31 1.07
37 1.77
38 5.1
39 61.57
40 8.96
41 99.99
42 21.82
43 36.55
44 1.9
50 4.06
51 7.22
52 2.61
53 14.46
54 4.85
55 59.16
56 45.37
57 50.13
58 2.23
63 1.25
65 1.84
66 1.38
67 4.8
68 28.46
69 31.51
70 35.44
71 5.28
77 1.57
79 4.49
81 4.12
82 1.28
83 65.23
84 13.37
94 3.61
97 5
111 1.4
112 4.75

>  <PREDICTED SPECTRUM>  (2334) 
14 38
15 92
16 2
18 5
19 1
25 24
26 205
27 651
28 322
29 590
30 150
31 142
32 18
37 85
38 179
39 768
40 326
41 999
42 599
43 548
44 186
49 23
50 203
51 303
52 203
53 442
54 357
55 990
56 748
57 629
58 106
63 82
64 2
65 179
66 213
67 330
68 547
69 550
70 574
71 222
77 127
79 290
81 395
82 19
83 599
84 461
85 59
93 48
94 248
95 57
97 165
111 24
112 147

$$$$

     RDKit          2D

  7  6  0  0  0  0  0  0  0  0999 V2000
    1.9486    3.3750    0.0000 C   0  0  0  0  0  0  0  0  0  0  0  0
    0.6495    4.1250    0.0000 C   0  0  0  0  0  0  0  0  0  0  0  0
   -0.6495    3.3750    0.0000 C   0  0  0  0  0  0  0  0  0  0  0  0
   -1.9486    4.1250    0.0000 C   0  0  0  0  0  0  0  0  0  0  0  0
   -3.2476    3.3750    0.0000 C   0  0  0  0  0  0  0  0  0  0  0  0
   -4.5466    4.1250    0.0000 C   0  0  0  0  0  0  0  0  0  0  0  0
   -5.8457    3.3750    0.0000 O   0  0  0  0  0  0  0  0  0  0  0  0
  2  1  1  0
  3  2  1  0
  4  3  1  0
  5  4  1  0
  6  5  1  0
  7  6  2  0
M  END
>  <NAME>  (2335) 
HEXANAL

>  <SYNONYMS>  (2335) 


>  <SPECTRUM TYPE>  (2335) 
MS1

>  <INSTRUMENT TYPE>  (2335) 
EI-B

>  <INSTRUMENT>  (2335) 
HITACHI M-80B

>  <ION MODE>  (2335) 
P

>  <INCHIKEY>  (2335) 
JARKCYVAAOWBJS-UHFFFAOYSA-N

>  <FORMULA>  (2335) 
C6H12O

>  <EXACT MASS>  (2335) 
100.088815004

>  <MW>  (2335) 
100

>  <ID>  (2335) 
JP008677

>  <CONTRIBUTOR>  (2335) 
University of Tokyo Team, {Faculty of Engineering, University of Tokyo

>  <COMMENT>  (2335) 
SMILES=CCCCCC=O
InChI=InChI=1S/C6H12O/c1-2-3-4-5-6-7/h6H,2-5H2,1H3
computed SMILES=O=CCCCCC
accession=JP008677
date=2016.01.19 (Created 2008.10.21, modified 2011.05.06)
author=SODA AROMATIC CO., LTD.
license=CC BY-NC-SA
exact mass=100.08882
ionization energy=70 eV
ion type=[M]+*
computed spectral entropy=2.7392981362619664
computed normalized entropy=0.7977019054363851
SPLASH=splash10-052f-9000000000-89f4d5edf8639a778ef4
submitter=submitter = University of Tokyo Team (Faculty of Engineering, University of Tokyo)
MoNA Rating=3.75

>  <NUM PEAKS>  (2335) 
31

>  <MASS SPECTRAL PEAKS>  (2335) 
15 4.45
26 4.87
27 53.04
28 6.12
29 47.33
30 1.42
31 1.95
37 1.16
38 2.61
39 37.8
40 4.67
41 83.43
42 15.06
43 59.64
44 99.99
45 20.35
50 1.36
51 1.69
53 3.27
54 2.88
55 16.92
56 83.13
57 52.43
58 9.28
67 10.77
69 1.25
71 8.25
72 20.55
81 1.41
82 15.37
83 1.52

>  <PREDICTED SPECTRUM>  (2335) 
14 29
15 95
16 23
17 6
18 26
19 3
25 30
26 210
27 669
28 330
29 681
30 389
31 179
32 9
36 11
37 93
38 172
39 669
40 283
41 999
42 682
43 683
44 353
45 202
47 8
49 28
50 136
51 195
52 116
53 337
54 411
55 840
56 793
57 576
58 243
59 33
65 107
66 77
67 348
68 244
69 386
70 415
71 386
72 223
73 119
79 21
81 212
82 460
83 237
84 56
85 47
99 41
100 102
101 17

$$$$

     RDKit          2D

  7  6  0  0  0  0  0  0  0  0999 V2000
    1.9486    2.6250    0.0000 C   0  0  0  0  0  0  0  0  0  0  0  0
   -1.9486    4.8750    0.0000 C   0  0  0  0  0  0  0  0  0  0  0  0
    0.6495    3.3750    0.0000 C   0  0  0  0  0  0  0  0  0  0  0  0
   -0.6495    2.6250    0.0000 C   0  0  0  0  0  0  0  0  0  0  0  0
   -3.2476    2.6250    0.0000 C   0  0  0  0  0  0  0  0  0  0  0  0
   -1.9486    3.3750    0.0000 C   0  0  0  0  0  0  0  0  0  0  0  0
   -4.5466    3.3750    0.0000 O   0  0  0  0  0  0  0  0  0  0  0  0
  3  1  1  0
  4  3  1  0
  6  2  1  0
  4  6  2  0
  6  5  1  0
  7  5  2  0
M  END
>  <NAME>  (2336) 
2-METHYL-2-PENTENAL

>  <SYNONYMS>  (2336) 


>  <SPECTRUM TYPE>  (2336) 
MS1

>  <INSTRUMENT TYPE>  (2336) 
EI-B

>  <INSTRUMENT>  (2336) 
HITACHI M-80B

>  <ION MODE>  (2336) 
P

>  <INCHIKEY>  (2336) 
IDEYZABHVQLHAF-GQCTYLIASA-N

>  <FORMULA>  (2336) 
C6H10O

>  <EXACT MASS>  (2336) 
98.07316494

>  <MW>  (2336) 
98

>  <ID>  (2336) 
JP008676

>  <CONTRIBUTOR>  (2336) 
University of Tokyo Team, {Faculty of Engineering, University of Tokyo

>  <COMMENT>  (2336) 
SMILES=CCC=C(C)C=O
InChI=InChI=1S/C6H10O/c1-3-4-6(2)5-7/h4-5H,3H2,1-2H3/b6-4+
computed SMILES=O=CC(=CCC)C
accession=JP008676
date=2016.01.19 (Created 2008.10.21, modified 2011.05.06)
author=SODA AROMATIC CO., LTD.
license=CC BY-NC-SA
exact mass=98.07316
ionization energy=70 eV
ion type=[M]+*
computed spectral entropy=2.735641389708922
computed normalized entropy=0.7893392533167307
SPLASH=splash10-0006-9000000000-25bfcbbae5ab1359a2bc
submitter=submitter = University of Tokyo Team (Faculty of Engineering, University of Tokyo)
MoNA Rating=3.75

>  <NUM PEAKS>  (2336) 
32

>  <MASS SPECTRAL PEAKS>  (2336) 
15 2.03
26 3.22
27 26.38
28 3.93
29 15.11
37 1.65
38 4.92
39 42.96
40 5.21
41 99.99
42 11.83
43 12.56
50 4.21
51 5.68
52 1.95
53 12.83
54 3.44
55 26.89
56 4.66
57 1.93
58 1.75
62 1.22
63 1.54
65 2.09
67 5.04
69 35.32
70 2.87
79 4.76
83 16.03
97 5.32
98 51.72
99 3.63

>  <PREDICTED SPECTRUM>  (2336) 
15 14
25 18
26 131
27 375
28 129
29 279
37 73
38 140
39 509
40 228
41 650
42 228
43 335
44 93
49 21
50 141
51 220
52 154
53 373
54 189
55 444
56 208
57 42
63 54
65 176
66 110
67 355
68 176
69 999
70 257
71 99
77 18
78 26
79 171
80 72
81 86
82 11
83 210
84 0
96 9
97 83
98 387
99 78

$$$$

     RDKit          2D

  7  6  0  0  0  0  0  0  0  0999 V2000
    2.9228    5.0625    0.0000 C   0  0  0  0  0  0  0  0  0  0  0  0
    1.6238    4.3125    0.0000 C   0  0  0  0  0  0  0  0  0  0  0  0
    1.6238    2.8125    0.0000 C   0  0  0  0  0  0  0  0  0  0  0  0
    0.3248    2.0625    0.0000 C   0  0  0  0  0  0  0  0  0  0  0  0
   -0.9743    2.8125    0.0000 C   0  0  0  0  0  0  0  0  0  0  0  0
   -2.2733    2.0625    0.0000 C   0  0  0  0  0  0  0  0  0  0  0  0
   -3.5724    2.8125    0.0000 O   0  0  0  0  0  0  0  0  0  0  0  0
  2  1  1  0
  3  2  1  0
  3  4  2  0
  5  4  1  0
  6  5  1  0
  7  6  2  0
M  END
>  <NAME>  (2337) 
CIS-3-HEXENAL

>  <SYNONYMS>  (2337) 


>  <SPECTRUM TYPE>  (2337) 
MS1

>  <INSTRUMENT TYPE>  (2337) 
EI-B

>  <INSTRUMENT>  (2337) 
HITACHI M-80B

>  <ION MODE>  (2337) 
P

>  <INCHIKEY>  (2337) 
GXANMBISFKBPEX-ARJAWSKDSA-N

>  <FORMULA>  (2337) 
C6H10O

>  <EXACT MASS>  (2337) 
98.07316494

>  <MW>  (2337) 
98

>  <ID>  (2337) 
JP008675

>  <CONTRIBUTOR>  (2337) 
University of Tokyo Team, {Faculty of Engineering, University of Tokyo

>  <COMMENT>  (2337) 
SMILES=CCC=CCC=O
InChI=InChI=1S/C6H10O/c1-2-3-4-5-6-7/h3-4,6H,2,5H2,1H3/b4-3-
computed SMILES=O=CCC=CCC
accession=JP008675
date=2016.01.19 (Created 2008.10.21, modified 2011.05.06)
author=SODA AROMATIC CO., LTD.
license=CC BY-NC-SA
exact mass=98.07316
ionization energy=70 eV
ion type=[M]+*
computed spectral entropy=2.545232367047356
computed normalized entropy=0.755868357149238
SPLASH=splash10-0006-9000000000-e5a3c79d27472fedbaa8
submitter=submitter = University of Tokyo Team (Faculty of Engineering, University of Tokyo)
MoNA Rating=3.75

>  <NUM PEAKS>  (2337) 
29

>  <MASS SPECTRAL PEAKS>  (2337) 
15 1.84
26 2.48
27 24.44
28 1.78
29 16
37 1.2
38 3.11
39 33.82
40 3.37
41 99.99
42 17.55
43 9.49
50 2.17
51 2.73
52 1.06
53 8.93
54 3.22
55 22.95
56 3.22
57 1.29
65 1.25
67 2.73
68 30.86
70 8.01
79 1.09
80 5.73
83 7.2
97 1.11
98 5.64

>  <PREDICTED SPECTRUM>  (2337) 
14 4
15 30
18 12
25 13
26 137
27 459
28 220
29 410
30 100
31 109
32 38
37 85
38 165
39 660
40 289
41 999
42 426
43 420
44 119
50 139
51 188
52 142
53 341
54 335
55 581
56 469
57 311
58 61
62 32
63 91
64 6
65 161
66 141
67 353
68 301
69 791
70 421
71 106
72 1
77 56
79 199
80 218
81 120
83 282
84 20
96 0
97 115
98 311
99 62

$$$$

     RDKit          2D

  6  5  0  0  0  0  0  0  0  0999 V2000
   -4.5466    3.3750    0.0000 C   0  0  0  0  0  0  0  0  0  0  0  0
   -3.2476    2.6250    0.0000 C   0  0  0  0  0  0  0  0  0  0  0  0
   -1.9486    3.3750    0.0000 C   0  0  0  0  0  0  0  0  0  0  0  0
   -0.6495    2.6250    0.0000 C   0  0  0  0  0  0  0  0  0  0  0  0
    0.6495    3.3750    0.0000 C   0  0  0  0  0  0  0  0  0  0  0  0
    1.9486    2.6250    0.0000 O   0  0  0  0  0  0  0  0  0  0  0  0
  2  1  1  0
  3  2  1  0
  4  3  1  0
  5  4  1  0
  6  5  2  0
M  END
>  <NAME>  (2338) 
PENTANAL

>  <SYNONYMS>  (2338) 


>  <SPECTRUM TYPE>  (2338) 
MS1

>  <INSTRUMENT TYPE>  (2338) 
EI-B

>  <INSTRUMENT>  (2338) 
HITACHI M-80B

>  <ION MODE>  (2338) 
P

>  <INCHIKEY>  (2338) 
HGBOYTHUEUWSSQ-UHFFFAOYSA-N

>  <FORMULA>  (2338) 
C5H10O

>  <EXACT MASS>  (2338) 
86.07316494

>  <MW>  (2338) 
86

>  <ID>  (2338) 
JP008673

>  <CONTRIBUTOR>  (2338) 
University of Tokyo Team, {Faculty of Engineering, University of Tokyo

>  <COMMENT>  (2338) 
SMILES=CCCCC=O
InChI=InChI=1S/C5H10O/c1-2-3-4-5-6/h5H,2-4H2,1H3
computed SMILES=O=CCCCC
accession=JP008673
date=2016.01.19 (Created 2008.10.21, modified 2011.05.06)
author=SODA AROMATIC CO., LTD.
license=CC BY-NC-SA
exact mass=86.07316
ionization energy=70 eV
ion type=[M]+*
computed spectral entropy=2.3466519807468633
computed normalized entropy=0.7833316753512521
SPLASH=splash10-002f-9000000000-d38a485c600fbb15d429
submitter=submitter = University of Tokyo Team (Faculty of Engineering, University of Tokyo)
MoNA Rating=3.75

>  <NUM PEAKS>  (2338) 
20

>  <MASS SPECTRAL PEAKS>  (2338) 
15 3.42
26 5.56
27 38.31
28 3.03
29 53.5
31 2.35
38 2.68
39 17.29
41 44.81
42 10.89
43 16.85
44 99.99
45 10.21
50 1.67
51 1.86
53 2.56
55 4.95
57 20.07
58 30.28
71 1.6

>  <PREDICTED SPECTRUM>  (2338) 
14 22
15 58
16 17
18 6
25 28
26 194
27 578
28 278
29 496
30 450
31 282
32 2
35 10
37 77
38 168
39 671
40 305
41 999
42 648
43 581
44 340
45 207
49 32
50 146
51 185
52 44
53 324
54 206
55 276
56 649
57 605
58 395
59 109
65 42
67 183
68 317
69 185
70 145
71 146
72 15
86 111

$$$$

     RDKit          2D

 13 14  0  0  0  0  0  0  0  0999 V2000
   -3.1045   -0.7778    0.0000 C   0  0  0  0  0  0  0  0  0  0  0  0
   -7.0017    2.9722    0.0000 C   0  0  0  0  0  0  0  0  0  0  0  0
   -7.0021    1.4714    0.0000 C   0  0  0  0  0  0  0  0  0  0  0  0
   -5.7021    3.7230    0.0000 C   0  0  0  0  0  0  0  0  0  0  0  0
   -5.7031    0.7214    0.0000 C   0  0  0  0  0  0  0  0  0  0  0  0
   -4.4031    2.9730    0.0000 C   0  0  0  0  0  0  0  0  0  0  0  0
   -0.1815    3.2759    0.0000 C   0  0  0  0  0  0  0  0  0  0  0  0
    0.5685    1.9768    0.0000 C   0  0  0  0  0  0  0  0  0  0  0  0
   -3.1045    0.7222    0.0000 C   0  0  0  0  0  0  0  0  0  0  0  0
   -4.4036    1.4722    0.0000 C   0  0  0  0  0  0  0  0  0  0  0  0
   -1.8055    1.4722    0.0000 C   0  0  0  0  0  0  0  0  0  0  0  0
   -1.6487    2.9640    0.0000 O   0  0  0  0  0  0  0  0  0  0  0  0
   -0.4352    0.8621    0.0000 O   0  0  0  0  0  0  0  0  0  0  0  0
  3  2  2  0
  4  2  1  0
  5  3  1  0
  6  4  2  0
  8  7  1  0
  9  1  1  0
 10  5  2  0
 10  6  1  0
 10  9  1  0
 11  9  1  0
 12  7  1  0
 12 11  1  0
 13  8  1  0
 13 11  1  0
M  END
>  <NAME>  (2339) 
2-PHENYLPROPANAL ETHYLENE GLYCOL ACETAL

>  <SYNONYMS>  (2339) 


>  <SPECTRUM TYPE>  (2339) 
MS1

>  <INSTRUMENT TYPE>  (2339) 
EI-B

>  <INSTRUMENT>  (2339) 
HITACHI M-80B

>  <ION MODE>  (2339) 
P

>  <INCHIKEY>  (2339) 
SATZAQAJSHXNSJ-UHFFFAOYSA-N

>  <FORMULA>  (2339) 
C11H14O2

>  <EXACT MASS>  (2339) 
178.099379688

>  <MW>  (2339) 
178

>  <ID>  (2339) 
JP008672

>  <CONTRIBUTOR>  (2339) 
University of Tokyo Team, {Faculty of Engineering, University of Tokyo

>  <COMMENT>  (2339) 
SMILES=CC(c(c2)cccc2)C(O1)OCC1
InChI=InChI=1S/C11H14O2/c1-9(11-12-7-8-13-11)10-5-3-2-4-6-10/h2-6,9,11H,7-8H2,1H3
computed SMILES=O1CCOC1C(C=2C=CC=CC2)C
accession=JP008672
date=2016.01.19 (Created 2008.10.21, modified 2011.05.06)
author=SODA AROMATIC CO., LTD.
license=CC BY-NC-SA
exact mass=178.09938
ionization energy=70 eV
ion type=[M]+*
computed spectral entropy=1.6322216699037981
computed normalized entropy=0.5647099427417098
SPLASH=splash10-00di-9100000000-a0eb98b64abb483fd18b
submitter=submitter = University of Tokyo Team (Faculty of Engineering, University of Tokyo)
MoNA Rating=3.75

>  <NUM PEAKS>  (2339) 
18

>  <MASS SPECTRAL PEAKS>  (2339) 
27 3.05
29 1.76
39 1.75
43 1.23
45 18.68
51 3.49
65 1.01
73 99.99
74 3.74
77 6.66
78 1.85
79 2.83
91 3.07
103 3
104 1.34
105 9.67
117 1.3
118 1.35

>  <PREDICTED SPECTRUM>  (2339) 
14 35
16 10
17 17
18 57
19 23
25 6
26 91
27 214
28 192
29 204
30 98
31 131
32 1
37 35
38 71
39 332
40 125
41 284
42 98
43 373
44 110
45 580
46 69
47 62
50 184
51 336
52 198
53 78
55 0
57 128
58 203
59 119
60 17
61 64
62 65
63 111
65 128
66 85
72 233
73 894
74 288
75 241
76 94
77 481
78 323
79 132
88 52
89 142
90 131
91 183
92 65
102 8
103 217
104 369
105 999
106 498
119 138
134 20
178 282
179 97

$$$$

     RDKit          2D

 11 11  0  0  0  0  0  0  0  0999 V2000
    0.6709   -0.6434    0.0000 C   0  0  0  0  0  0  0  0  0  0  0  0
   -0.6282   -1.3934    0.0000 C   0  0  0  0  0  0  0  0  0  0  0  0
   -1.9272   -0.6434    0.0000 C   0  0  0  0  0  0  0  0  0  0  0  0
   -3.2262   -1.3934    0.0000 C   0  0  0  0  0  0  0  0  0  0  0  0
   -4.5253   -0.6434    0.0000 C   0  0  0  0  0  0  0  0  0  0  0  0
   -5.8243   -1.3934    0.0000 C   0  0  0  0  0  0  0  0  0  0  0  0
   -9.4974   -0.1388    0.0000 C   0  0  0  0  0  0  0  0  0  0  0  0
   -8.7474    1.1603    0.0000 C   0  0  0  0  0  0  0  0  0  0  0  0
   -7.1234   -0.6434    0.0000 C   0  0  0  0  0  0  0  0  0  0  0  0
   -8.4937   -1.2535    0.0000 O   0  0  0  0  0  0  0  0  0  0  0  0
   -7.2801    0.8484    0.0000 O   0  0  0  0  0  0  0  0  0  0  0  0
  2  1  1  0
  3  2  1  0
  4  3  1  0
  5  4  1  0
  6  5  1  0
  8  7  1  0
  9  6  1  0
 10  7  1  0
 10  9  1  0
 11  8  1  0
 11  9  1  0
M  END
>  <NAME>  (2340) 
HEPTANAL ETHYLENE GLYCOL ACETAL

>  <SYNONYMS>  (2340) 


>  <SPECTRUM TYPE>  (2340) 
MS1

>  <INSTRUMENT TYPE>  (2340) 
EI-B

>  <INSTRUMENT>  (2340) 
HITACHI M-80B

>  <ION MODE>  (2340) 
P

>  <INCHIKEY>  (2340) 
DDSSJDFXTAYRNO-UHFFFAOYSA-N

>  <FORMULA>  (2340) 
C9H18O2

>  <EXACT MASS>  (2340) 
158.130679816

>  <MW>  (2340) 
158

>  <ID>  (2340) 
JP008671

>  <CONTRIBUTOR>  (2340) 
University of Tokyo Team, {Faculty of Engineering, University of Tokyo

>  <COMMENT>  (2340) 
SMILES=CCCCCCC(O1)OCC1
InChI=InChI=1S/C9H18O2/c1-2-3-4-5-6-9-10-7-8-11-9/h9H,2-8H2,1H3
computed SMILES=O1CCOC1CCCCCC
accession=JP008671
date=2016.01.19 (Created 2008.10.21, modified 2011.05.06)
author=SODA AROMATIC CO., LTD.
license=CC BY-NC-SA
exact mass=158.13068
ionization energy=70 eV
ion type=[M]+*
computed spectral entropy=1.5287038903430734
computed normalized entropy=0.5513633803964044
SPLASH=splash10-00di-9000000000-6a14e14b68129ce406f0
submitter=submitter = University of Tokyo Team (Faculty of Engineering, University of Tokyo)
MoNA Rating=3.75

>  <NUM PEAKS>  (2340) 
16

>  <MASS SPECTRAL PEAKS>  (2340) 
15 1.01
27 7.4
29 5.2
31 1.12
39 4.09
41 7.54
42 1.68
43 4.68
44 1.16
45 18.24
55 1.96
57 1.14
71 1.22
73 99.99
74 3.46
157 1.21

>  <PREDICTED SPECTRUM>  (2340) 
14 4
15 27
26 59
27 166
28 102
29 202
30 30
31 143
32 23
37 3
38 27
39 132
40 56
41 211
42 101
43 147
44 83
45 197
51 12
52 52
53 67
54 45
55 175
56 59
57 159
58 58
59 184
60 70
66 15
67 61
68 27
70 58
71 38
72 22
73 999
74 216
75 103
78 0
86 49
87 61
99 78
101 11
143 26
157 74
158 57
159 12

$$$$

     RDKit          2D

 12 12  0  0  0  0  0  0  0  0999 V2000
    0.7425    0.9229    0.0000 C   0  0  0  0  0  0  0  0  0  0  0  0
   -5.7527   -1.3271    0.0000 C   0  0  0  0  0  0  0  0  0  0  0  0
   -0.5565    1.6729    0.0000 C   0  0  0  0  0  0  0  0  0  0  0  0
   -4.4537   -0.5771    0.0000 C   0  0  0  0  0  0  0  0  0  0  0  0
   -1.8556    0.9229    0.0000 C   0  0  0  0  0  0  0  0  0  0  0  0
   -3.1546    1.6729    0.0000 C   0  0  0  0  0  0  0  0  0  0  0  0
   -8.1267    2.1775    0.0000 C   0  0  0  0  0  0  0  0  0  0  0  0
   -7.3767    3.4766    0.0000 C   0  0  0  0  0  0  0  0  0  0  0  0
   -4.4537    0.9229    0.0000 C   0  0  0  0  0  0  0  0  0  0  0  0
   -5.7527    1.6729    0.0000 C   0  0  0  0  0  0  0  0  0  0  0  0
   -7.1230    1.0628    0.0000 O   0  0  0  0  0  0  0  0  0  0  0  0
   -5.9095    3.1647    0.0000 O   0  0  0  0  0  0  0  0  0  0  0  0
  3  1  1  0
  4  2  1  0
  5  3  1  0
  6  5  1  0
  8  7  1  0
  9  4  1  0
  9  6  1  0
 10  9  1  0
 11  7  1  0
 11 10  1  0
 12  8  1  0
 12 10  1  0
M  END
>  <NAME>  (2341) 
2-ETHYLHEXANAL ETHYLENE GLYCOL ACETAL

>  <SYNONYMS>  (2341) 


>  <SPECTRUM TYPE>  (2341) 
MS1

>  <INSTRUMENT TYPE>  (2341) 
EI-B

>  <INSTRUMENT>  (2341) 
HITACHI M-80B

>  <ION MODE>  (2341) 
P

>  <INCHIKEY>  (2341) 
LQSZQAHPRJMRET-UHFFFAOYSA-N

>  <FORMULA>  (2341) 
C10H20O2

>  <EXACT MASS>  (2341) 
172.14632988

>  <MW>  (2341) 
172

>  <ID>  (2341) 
JP008670

>  <CONTRIBUTOR>  (2341) 
University of Tokyo Team, {Faculty of Engineering, University of Tokyo

>  <COMMENT>  (2341) 
SMILES=CCCCC(CC)C(O1)OCC1
InChI=InChI=1S/C10H20O2/c1-3-5-6-9(4-2)10-11-7-8-12-10/h9-10H,3-8H2,1-2H3
computed SMILES=O1CCOC1C(CC)CCCC
accession=JP008670
date=2016.01.19 (Created 2008.10.21, modified 2011.05.06)
author=SODA AROMATIC CO., LTD.
license=CC BY-NC-SA
exact mass=172.14633
ionization energy=70 eV
ion type=[M]+*
computed spectral entropy=1.1764034302938124
computed normalized entropy=0.49059833581511525
SPLASH=splash10-00di-9000000000-09456ce1d0bece760616
submitter=submitter = University of Tokyo Team (Faculty of Engineering, University of Tokyo)
MoNA Rating=3.75

>  <NUM PEAKS>  (2341) 
11

>  <MASS SPECTRAL PEAKS>  (2341) 
27 3.73
29 3.68
39 1.72
41 5.87
43 2.61
45 11.65
55 2.92
57 2
70 1.1
73 99.99
74 3.63

>  <PREDICTED SPECTRUM>  (2341) 
27 31
28 19
29 63
39 84
40 49
41 182
42 88
43 83
45 187
52 10
53 23
54 56
55 145
56 36
57 38
67 34
68 27
69 41
70 24
71 60
73 999
74 202
100 11

$$$$

     RDKit          2D

 13 13  0  0  0  0  0  0  0  0999 V2000
   -4.5466    1.4450    0.0000 C   0  0  0  0  0  0  0  0  0  0  0  0
   -1.9486    5.9450    0.0000 C   0  0  0  0  0  0  0  0  0  0  0  0
   -3.2476    2.1950    0.0000 C   0  0  0  0  0  0  0  0  0  0  0  0
   -1.9486    4.4450    0.0000 C   0  0  0  0  0  0  0  0  0  0  0  0
    3.2476   -0.0550    0.0000 C   0  0  0  0  0  0  0  0  0  0  0  0
    3.2481    1.4458    0.0000 C   0  0  0  0  0  0  0  0  0  0  0  0
    1.9481   -0.8058    0.0000 C   0  0  0  0  0  0  0  0  0  0  0  0
    1.9490    2.1958    0.0000 C   0  0  0  0  0  0  0  0  0  0  0  0
    0.6490   -0.0558    0.0000 C   0  0  0  0  0  0  0  0  0  0  0  0
    0.6495    1.4450    0.0000 C   0  0  0  0  0  0  0  0  0  0  0  0
   -0.6495    2.1950    0.0000 C   0  0  0  0  0  0  0  0  0  0  0  0
   -1.9486    1.4450    0.0000 O   0  0  0  0  0  0  0  0  0  0  0  0
   -0.6495    3.6950    0.0000 O   0  0  0  0  0  0  0  0  0  0  0  0
  3  1  1  0
  4  2  1  0
  6  5  2  0
  7  5  1  0
  8  6  1  0
  9  7  2  0
 10  8  2  0
 10  9  1  0
 11 10  1  0
 12  3  1  0
 12 11  1  0
 13  4  1  0
 13 11  1  0
M  END
>  <NAME>  (2342) 
BENZALDEHYDE DIETHYL ACETAL

>  <SYNONYMS>  (2342) 


>  <SPECTRUM TYPE>  (2342) 
MS1

>  <INSTRUMENT TYPE>  (2342) 
EI-B

>  <INSTRUMENT>  (2342) 
HITACHI M-80B

>  <ION MODE>  (2342) 
P

>  <INCHIKEY>  (2342) 
MAQMEXSLUSZDQM-UHFFFAOYSA-N

>  <FORMULA>  (2342) 
C11H16O2

>  <EXACT MASS>  (2342) 
180.115029752

>  <MW>  (2342) 
180

>  <ID>  (2342) 
JP008669

>  <CONTRIBUTOR>  (2342) 
University of Tokyo Team, {Faculty of Engineering, University of Tokyo

>  <COMMENT>  (2342) 
SMILES=CCOC(OCC)c(c1)cccc1
InChI=InChI=1S/C11H16O2/c1-3-12-11(13-4-2)10-8-6-5-7-9-10/h5-9,11H,3-4H2,1-2H3
computed SMILES=O(CC)C(OCC)C=1C=CC=CC1
accession=JP008669
date=2016.01.19 (Created 2008.10.21, modified 2011.05.06)
author=SODA AROMATIC CO., LTD.
license=CC BY-NC-SA
exact mass=180.11503
ionization energy=70 eV
ion type=[M]+*
computed spectral entropy=2.409921570252205
computed normalized entropy=0.7396716279363713
SPLASH=splash10-0550-6900000000-dfa47991c27d1a7e71c0
submitter=submitter = University of Tokyo Team (Faculty of Engineering, University of Tokyo)
MoNA Rating=3.75

>  <NUM PEAKS>  (2342) 
26

>  <MASS SPECTRAL PEAKS>  (2342) 
27 8.33
29 14.25
39 1.83
43 1.77
47 8.56
50 3.29
51 10.68
52 2.68
63 1.35
75 5.93
76 1.1
77 30.84
78 5.6
79 44.65
80 2.95
89 1.82
90 1.52
91 2.06
103 4.84
105 17.9
106 2.98
107 63
108 4.81
123 1.36
135 99.99
136 10.29

>  <PREDICTED SPECTRUM>  (2342) 
26 27
27 123
28 16
29 214
31 3
39 63
42 4
45 123
46 42
47 357
49 50
50 67
51 191
52 72
63 120
64 15
65 44
74 0
75 54
76 19
77 619
78 274
79 566
80 41
89 103
90 127
92 46
103 71
104 49
105 417
106 231
107 918
108 284
109 46
123 1
135 999
136 346
137 99

$$$$

     RDKit          2D

 17 17  0  0  0  0  0  0  0  0999 V2000
    5.5216    5.0079    0.0000 C   0  0  0  0  0  0  0  0  0  0  0  0
   -3.5716    2.7579    0.0000 C   0  0  0  0  0  0  0  0  0  0  0  0
    4.2226    4.2579    0.0000 C   0  0  0  0  0  0  0  0  0  0  0  0
    2.9236    5.0079    0.0000 C   0  0  0  0  0  0  0  0  0  0  0  0
    1.6245    4.2579    0.0000 C   0  0  0  0  0  0  0  0  0  0  0  0
  -10.0668    6.5079    0.0000 C   0  0  0  0  0  0  0  0  0  0  0  0
  -10.0673    5.0071    0.0000 C   0  0  0  0  0  0  0  0  0  0  0  0
   -8.7673    7.2587    0.0000 C   0  0  0  0  0  0  0  0  0  0  0  0
    0.3255    5.0079    0.0000 C   0  0  0  0  0  0  0  0  0  0  0  0
   -8.7683    4.2571    0.0000 C   0  0  0  0  0  0  0  0  0  0  0  0
   -7.4683    6.5087    0.0000 C   0  0  0  0  0  0  0  0  0  0  0  0
   -0.9736    4.2579    0.0000 C   0  0  0  0  0  0  0  0  0  0  0  0
   -6.1697    4.2579    0.0000 C   0  0  0  0  0  0  0  0  0  0  0  0
   -3.5716    4.2579    0.0000 C   0  0  0  0  0  0  0  0  0  0  0  0
   -7.4687    5.0079    0.0000 C   0  0  0  0  0  0  0  0  0  0  0  0
   -2.2726    5.0079    0.0000 O   0  0  0  0  0  0  0  0  0  0  0  0
   -4.8707    5.0079    0.0000 O   0  0  0  0  0  0  0  0  0  0  0  0
  3  1  1  0
  4  3  1  0
  5  4  1  0
  7  6  2  0
  8  6  1  0
  9  5  1  0
 10  7  1  0
 11  8  2  0
 12  9  1  0
 14  2  1  0
 15 10  2  0
 15 11  1  0
 15 13  1  0
 16 12  1  0
 16 14  1  0
 17 13  1  0
 17 14  1  0
M  END
>  <NAME>  (2343) 
ACETALDEHYDE BENZYL HEXYL ACETAL

>  <SYNONYMS>  (2343) 


>  <SPECTRUM TYPE>  (2343) 
MS1

>  <INSTRUMENT TYPE>  (2343) 
EI-B

>  <INSTRUMENT>  (2343) 
HITACHI M-80B

>  <ION MODE>  (2343) 
P

>  <INCHIKEY>  (2343) 
NDKDGYQWVJSTOP-UHFFFAOYSA-N

>  <FORMULA>  (2343) 
C15H24O2

>  <EXACT MASS>  (2343) 
236.177630008

>  <MW>  (2343) 
236

>  <ID>  (2343) 
JP008668

>  <CONTRIBUTOR>  (2343) 
University of Tokyo Team, {Faculty of Engineering, University of Tokyo

>  <COMMENT>  (2343) 
SMILES=CCCCCCOC(C)OCc(c1)cccc1
InChI=InChI=1S/C15H24O2/c1-3-4-5-9-12-16-14(2)17-13-15-10-7-6-8-11-15/h6-8,10-11,14H,3-5,9,12-13H2,1-2H3
computed SMILES=O(CC=1C=CC=CC1)C(OCCCCCC)C
accession=JP008668
date=2016.01.19 (Created 2008.10.21, modified 2011.05.06)
author=SODA AROMATIC CO., LTD.
license=CC BY-NC-SA
exact mass=236.17763
ionization energy=70 eV
ion type=[M]+*
computed spectral entropy=3.006852356642274
computed normalized entropy=0.7945828955534902
SPLASH=splash10-0006-9100000000-ca401fd08b77f936762c
submitter=submitter = University of Tokyo Team (Faculty of Engineering, University of Tokyo)
MoNA Rating=3.75

>  <NUM PEAKS>  (2343) 
44

>  <MASS SPECTRAL PEAKS>  (2343) 
15 1.06
26 1.24
27 11.77
29 10.76
31 3.92
38 1
39 7.43
41 20.37
42 6.86
43 59.87
44 3.84
45 5.11
50 2.24
51 5.59
52 1.51
53 1.89
55 10.93
56 13.83
57 5.98
63 1.8
65 6.55
69 4.56
77 11.63
78 2.05
79 12.92
80 1.04
82 2.58
83 1.53
84 2.34
85 18.42
89 2.05
90 2.46
91 99.99
92 17.67
93 1
105 4.03
106 2.4
107 6.4
108 10.23
113 2.99
129 1.68
133 2.22
134 18.13
135 5.14

>  <PREDICTED SPECTRUM>  (2343) 
26 61
27 233
28 95
29 246
30 7
31 91
37 25
38 62
39 256
40 97
41 328
42 183
43 468
44 85
45 186
50 119
51 205
52 99
53 117
54 60
55 301
56 195
57 241
58 94
59 51
62 38
63 141
64 67
65 285
66 53
67 50
68 52
69 140
70 124
71 145
72 18
73 59
74 37
76 14
77 263
78 147
79 276
80 65
82 44
83 112
84 105
85 164
86 18
87 22
89 119
90 141
91 999
92 452
93 77
101 33
102 0
105 250
106 168
107 467
108 242
109 1
117 19
119 35
120 11
121 64
129 57
130 29
132 23
133 25
134 349
135 126
136 67
145 5
148 31
149 14
152 6

$$$$

     RDKit          2D

 16 16  0  0  0  0  0  0  0  0999 V2000
    4.8721    3.8829    0.0000 C   0  0  0  0  0  0  0  0  0  0  0  0
    3.5731    1.6329    0.0000 C   0  0  0  0  0  0  0  0  0  0  0  0
   -1.6231    1.6329    0.0000 C   0  0  0  0  0  0  0  0  0  0  0  0
   -8.1183    5.3829    0.0000 C   0  0  0  0  0  0  0  0  0  0  0  0
   -8.1187    3.8821    0.0000 C   0  0  0  0  0  0  0  0  0  0  0  0
   -6.8187    6.1337    0.0000 C   0  0  0  0  0  0  0  0  0  0  0  0
   -6.8197    3.1321    0.0000 C   0  0  0  0  0  0  0  0  0  0  0  0
   -5.5197    5.3837    0.0000 C   0  0  0  0  0  0  0  0  0  0  0  0
    2.2740    3.8829    0.0000 C   0  0  0  0  0  0  0  0  0  0  0  0
    0.9750    3.1329    0.0000 C   0  0  0  0  0  0  0  0  0  0  0  0
   -4.2212    3.1329    0.0000 C   0  0  0  0  0  0  0  0  0  0  0  0
    3.5731    3.1329    0.0000 C   0  0  0  0  0  0  0  0  0  0  0  0
   -1.6231    3.1329    0.0000 C   0  0  0  0  0  0  0  0  0  0  0  0
   -5.5202    3.8829    0.0000 C   0  0  0  0  0  0  0  0  0  0  0  0
   -0.3240    3.8829    0.0000 O   0  0  0  0  0  0  0  0  0  0  0  0
   -2.9221    3.8829    0.0000 O   0  0  0  0  0  0  0  0  0  0  0  0
  5  4  2  0
  6  4  1  0
  7  5  1  0
  8  6  2  0
 10  9  1  0
 12  1  1  0
 12  2  1  0
 12  9  1  0
 13  3  1  0
 14  7  2  0
 14  8  1  0
 14 11  1  0
 15 10  1  0
 15 13  1  0
 16 11  1  0
 16 13  1  0
M  END
>  <NAME>  (2344) 
ACETALDEHYDE BENZYL ISOAMYL ACETAL

>  <SYNONYMS>  (2344) 


>  <SPECTRUM TYPE>  (2344) 
MS1

>  <INSTRUMENT TYPE>  (2344) 
EI-B

>  <INSTRUMENT>  (2344) 
HITACHI M-80B

>  <ION MODE>  (2344) 
P

>  <INCHIKEY>  (2344) 
UROVAOQFAZWTNI-UHFFFAOYSA-N

>  <FORMULA>  (2344) 
C14H22O2

>  <EXACT MASS>  (2344) 
222.161979944

>  <MW>  (2344) 
222

>  <ID>  (2344) 
JP008667

>  <CONTRIBUTOR>  (2344) 
University of Tokyo Team, {Faculty of Engineering, University of Tokyo

>  <COMMENT>  (2344) 
SMILES=CC(C)CCOC(C)OCc(c1)cccc1
InChI=InChI=1S/C14H22O2/c1-12(2)9-10-15-13(3)16-11-14-7-5-4-6-8-14/h4-8,12-13H,9-11H2,1-3H3
computed SMILES=O(CC=1C=CC=CC1)C(OCCC(C)C)C
accession=JP008667
date=2016.01.19 (Created 2008.10.21, modified 2011.05.06)
author=SODA AROMATIC CO., LTD.
license=CC BY-NC-SA
exact mass=222.16198
ionization energy=70 eV
ion type=[M]+*
computed spectral entropy=2.8188204399545014
computed normalized entropy=0.774915099238922
SPLASH=splash10-0006-9100000000-7ccd91e6ad7a48d02362
submitter=submitter = University of Tokyo Team (Faculty of Engineering, University of Tokyo)
MoNA Rating=3.75

>  <NUM PEAKS>  (2344) 
38

>  <MASS SPECTRAL PEAKS>  (2344) 
15 1.58
27 7.77
29 6.24
31 2.51
39 7.36
41 13.33
42 4.48
43 44.07
44 3.58
45 3.2
50 2.25
51 4.94
52 1.18
53 1.33
55 8.43
57 1.86
63 1.84
65 7.35
69 1.29
70 7.04
71 29.19
72 1.53
77 7.98
78 2.15
79 8.05
89 2.13
90 2.41
91 99.99
92 18.99
93 1.04
105 4
106 2.34
107 5.63
108 6.85
115 2.38
133 1.99
134 18.4
135 5.02

>  <PREDICTED SPECTRUM>  (2344) 
14 0
15 15
26 65
27 221
28 93
29 193
31 64
38 30
39 187
40 55
41 259
42 145
43 481
44 101
45 133
50 85
51 157
52 96
53 108
54 53
55 219
56 77
57 69
58 12
59 69
62 12
63 106
64 86
65 272
66 32
68 12
69 53
70 150
71 470
72 116
73 85
74 9
76 9
77 180
78 101
79 209
80 16
87 22
88 31
89 169
90 133
91 999
92 441
93 56
101 12
105 238
106 172
107 320
108 196
115 10
116 3
119 3
131 2
133 25
134 419
135 160
149 16
151 18

$$$$

     RDKit          2D

 20 20  0  0  0  0  0  0  0  0999 V2000
   -2.9381    6.9356    0.0000 C   0  0  0  0  0  0  0  0  0  0  0  0
    8.7642    0.1912    0.0000 C   0  0  0  0  0  0  0  0  0  0  0  0
    7.4648    2.4410    0.0000 C   0  0  0  0  0  0  0  0  0  0  0  0
   -2.9356    5.4356    0.0000 C   0  0  0  0  0  0  0  0  0  0  0  0
    7.4651    0.9410    0.0000 C   0  0  0  0  0  0  0  0  0  0  0  0
    6.1657    3.1908    0.0000 C   0  0  0  0  0  0  0  0  0  0  0  0
   -1.6353    4.6878    0.0000 C   0  0  0  0  0  0  0  0  0  0  0  0
   -1.6328    3.1878    0.0000 C   0  0  0  0  0  0  0  0  0  0  0  0
   -1.6200   -1.3100    0.0000 C   0  0  0  0  0  0  0  0  0  0  0  0
   -0.3300   -2.0600    0.0000 C   0  0  0  0  0  0  0  0  0  0  0  0
   -0.3325    2.4400    0.0000 C   0  0  0  0  0  0  0  0  0  0  0  0
   -1.6200    0.1900    0.0000 C   0  0  0  0  0  0  0  0  0  0  0  0
    0.9700   -1.3100    0.0000 C   0  0  0  0  0  0  0  0  0  0  0  0
    2.2689    0.9402    0.0000 C   0  0  0  0  0  0  0  0  0  0  0  0
    3.5681    0.1904    0.0000 C   0  0  0  0  0  0  0  0  0  0  0  0
   -0.3300    0.9400    0.0000 C   0  0  0  0  0  0  0  0  0  0  0  0
    0.9700    0.1900    0.0000 C   0  0  0  0  0  0  0  0  0  0  0  0
    4.8670    0.9406    0.0000 C   0  0  0  0  0  0  0  0  0  0  0  0
    6.1662    0.1908    0.0000 O   0  0  0  0  0  0  0  0  0  0  0  0
    4.8668    2.4406    0.0000 O   0  0  0  0  0  0  0  0  0  0  0  0
  4  1  1  0
  5  2  1  0
  6  3  1  0
  7  4  1  0
  8  7  1  0
 10  9  2  0
 11  8  1  0
 12  9  1  0
 13 10  1  0
 14 15  2  0
 16 11  1  0
 16 12  2  0
 17 13  2  0
 17 14  1  0
 17 16  1  0
 18 15  1  0
 19  5  1  0
 19 18  1  0
 20  6  1  0
 20 18  1  0
M  END
>  <NAME>  (2345) 
2-AMYLCINNAMIC ALDEHYDE DIETHYL ACETAL

>  <SYNONYMS>  (2345) 


>  <SPECTRUM TYPE>  (2345) 
MS1

>  <INSTRUMENT TYPE>  (2345) 
EI-B

>  <INSTRUMENT>  (2345) 
HITACHI M-80B

>  <ION MODE>  (2345) 
P

>  <INCHIKEY>  (2345) 
PQARPKGSMQTPKR-CCEZHUSRSA-N

>  <FORMULA>  (2345) 
C18H28O2

>  <EXACT MASS>  (2345) 
276.208930136

>  <MW>  (2345) 
276

>  <ID>  (2345) 
JP008666

>  <CONTRIBUTOR>  (2345) 
University of Tokyo Team, {Faculty of Engineering, University of Tokyo

>  <COMMENT>  (2345) 
SMILES=CCCCCc(c1)c(ccc1)C([H])=C([H])C(OCC)OCC
InChI=InChI=1S/C18H28O2/c1-4-7-8-11-16-12-9-10-13-17(16)14-15-18(19-5-2)20-6-3/h9-10,12-15,18H,4-8,11H2,1-3H3/b15-14+
computed SMILES=O(CC)C(OCC)C=CC=1C=CC=CC1CCCCC
accession=JP008666
date=2016.01.19 (Created 2008.10.21, modified 2011.05.06)
author=SODA AROMATIC CO., LTD.
license=CC BY-NC-SA
exact mass=276.20893
ionization energy=70 eV
ion type=[M]+*
computed spectral entropy=3.584014295887251
computed normalized entropy=0.792609878771955
SPLASH=splash10-0ke9-9850000000-05f0fee1ad3bd033f490
submitter=submitter = University of Tokyo Team (Faculty of Engineering, University of Tokyo)
MoNA Rating=3.75

>  <NUM PEAKS>  (2345) 
92

>  <MASS SPECTRAL PEAKS>  (2345) 
15 1.01
19 1.61
27 21.5
29 68.43
30 1.25
31 4.22
39 6.32
41 25.13
42 1.3
43 15.32
45 2.95
47 72.15
51 3.26
53 3.13
55 11.6
57 4.1
59 3.85
63 1.99
65 4.47
67 2.32
69 5.41
71 3.06
75 57.79
76 1.2
77 8.29
78 4.43
79 5.31
81 3.48
83 1.61
85 1.38
89 2.42
91 74.5
92 4.77
93 1
95 2.24
99 2.56
102 2.97
103 86.01
104 7.36
105 15.6
106 1.25
107 4.71
113 1.05
114 1.05
115 37.72
116 15.45
117 42.69
118 4.83
119 6.41
120 1.21
127 4.65
128 11.43
129 44.08
130 7.79
131 25.17
132 2.54
133 3.32
135 7.57
136 1.03
141 3.92
142 1.56
143 4.71
144 1.39
145 10.96
146 1.5
147 4.59
149 5.24
155 1.57
157 2.11
158 1.06
159 2.46
161 3.18
173 6.85
174 2.27
175 3.8
177 5.78
178 1.21
185 2.06
201 3.89
202 1.7
203 4.91
204 1.31
205 93.07
206 14.37
207 1.25
230 1.26
231 99.99
232 19.15
233 1.71
247 1.27
276 9.75
277 2.44

>  <PREDICTED SPECTRUM>  (2345) 
15 18
17 4
18 7
25 14
26 90
27 336
28 39
29 499
30 35
31 103
38 20
39 322
40 102
41 417
42 93
43 414
44 107
45 133
47 290
50 66
51 186
52 47
53 158
54 34
55 279
56 17
57 265
58 9
59 156
60 10
61 79
62 36
63 100
65 260
66 20
67 134
68 12
69 151
70 39
71 156
73 69
74 39
75 490
76 193
77 369
78 156
79 180
81 169
82 27
83 164
85 84
87 77
88 21
89 168
90 62
91 664
92 191
93 182
95 74
97 31
98 15
99 163
101 111
102 222
103 739
104 323
105 328
106 36
107 146
111 58
113 81
115 549
116 303
117 529
118 161
119 296
120 108
121 36
123 35
127 163
128 250
129 667
130 309
131 449
132 234
133 172
134 125
135 191
137 22
141 205
142 121
143 235
144 160
145 310
146 181
147 242
148 43
149 181
150 66
155 48
156 31
157 208
158 93
159 355
160 141
161 213
162 2
163 74
171 63
173 258
174 67
175 190
176 32
177 218
178 67
185 126
186 65
187 92
189 84
191 6
201 99
202 97
203 241
204 163
205 999
206 406
207 93
215 23
217 14
219 31
230 35
231 833
232 388
233 98
247 158
275 39
276 279
277 110
278 21

$$$$

     RDKit          2D

 13 13  0  0  0  0  0  0  0  0999 V2000
   -1.2988    4.8196    0.0000 C   0  0  0  0  0  0  0  0  0  0  0  0
   -5.1959    2.5696    0.0000 C   0  0  0  0  0  0  0  0  0  0  0  0
   -3.8969    0.3196    0.0000 C   0  0  0  0  0  0  0  0  0  0  0  0
    2.5983    1.0696    0.0000 C   0  0  0  0  0  0  0  0  0  0  0  0
    2.5988    2.5704    0.0000 C   0  0  0  0  0  0  0  0  0  0  0  0
    1.2988    0.3188    0.0000 C   0  0  0  0  0  0  0  0  0  0  0  0
    1.2998    3.3204    0.0000 C   0  0  0  0  0  0  0  0  0  0  0  0
   -0.0002    1.0688    0.0000 C   0  0  0  0  0  0  0  0  0  0  0  0
   -1.2988    3.3196    0.0000 C   0  0  0  0  0  0  0  0  0  0  0  0
    0.0002    2.5696    0.0000 C   0  0  0  0  0  0  0  0  0  0  0  0
   -2.5978    2.5696    0.0000 C   0  0  0  0  0  0  0  0  0  0  0  0
   -3.8969    3.3196    0.0000 O   0  0  0  0  0  0  0  0  0  0  0  0
   -2.5978    1.0696    0.0000 O   0  0  0  0  0  0  0  0  0  0  0  0
  5  4  2  0
  6  4  1  0
  7  5  1  0
  8  6  2  0
  9  1  1  0
 10  7  2  0
 10  8  1  0
 10  9  1  0
 11  9  1  0
 12  2  1  0
 12 11  1  0
 13  3  1  0
 13 11  1  0
M  END
>  <NAME>  (2346) 
2-PHENYLPROPANAL DIMETHYL ACETAL

>  <SYNONYMS>  (2346) 


>  <SPECTRUM TYPE>  (2346) 
MS1

>  <INSTRUMENT TYPE>  (2346) 
EI-B

>  <INSTRUMENT>  (2346) 
HITACHI M-80B

>  <ION MODE>  (2346) 
P

>  <INCHIKEY>  (2346) 
UFOUDYPOSJJEDJ-UHFFFAOYSA-N

>  <FORMULA>  (2346) 
C11H16O2

>  <EXACT MASS>  (2346) 
180.115029752

>  <MW>  (2346) 
180

>  <ID>  (2346) 
JP008665

>  <CONTRIBUTOR>  (2346) 
University of Tokyo Team, {Faculty of Engineering, University of Tokyo

>  <COMMENT>  (2346) 
SMILES=COC(OC)C(C)c(c1)cccc1
InChI=InChI=1S/C11H16O2/c1-9(11(12-2)13-3)10-7-5-4-6-8-10/h4-9,11H,1-3H3
computed SMILES=O(C)C(OC)C(C=1C=CC=CC1)C
accession=JP008665
date=2016.01.19 (Created 2008.10.21, modified 2011.05.06)
author=SODA AROMATIC CO., LTD.
license=CC BY-NC-SA
exact mass=180.11503
ionization energy=70 eV
ion type=[M]+*
computed spectral entropy=1.7051564269662391
computed normalized entropy=0.5791108048192469
SPLASH=splash10-004i-9100000000-b9de4d0d90a10aed6bd7
submitter=submitter = University of Tokyo Team (Faculty of Engineering, University of Tokyo)
MoNA Rating=3.75

>  <NUM PEAKS>  (2346) 
19

>  <MASS SPECTRAL PEAKS>  (2346) 
15 2.41
27 1.35
29 1.71
31 4.36
39 1.59
43 1.68
47 11.23
51 3
65 1.23
75 99.99
76 3.78
78 1.56
79 2.7
91 5.19
103 2.33
105 7.21
115 1.41
117 3.92
149 7.05

>  <PREDICTED SPECTRUM>  (2346) 
15 19
27 63
28 19
29 120
31 113
32 46
33 30
38 32
39 214
40 17
41 60
43 112
45 14
47 245
50 131
51 241
52 51
58 6
59 108
61 150
65 14
73 104
74 165
75 999
76 280
77 479
78 111
79 48
85 87
88 78
89 68
91 173
92 64
93 20
103 66
105 694
106 38
117 88
118 24
133 139
134 1
148 349
149 213
180 117
181 7

$$$$

     RDKit          2D

 12 12  0  0  0  0  0  0  0  0999 V2000
   -5.1959    2.5696    0.0000 C   0  0  0  0  0  0  0  0  0  0  0  0
   -3.8969    0.3196    0.0000 C   0  0  0  0  0  0  0  0  0  0  0  0
    2.5983    1.0696    0.0000 C   0  0  0  0  0  0  0  0  0  0  0  0
    2.5988    2.5704    0.0000 C   0  0  0  0  0  0  0  0  0  0  0  0
    1.2988    0.3188    0.0000 C   0  0  0  0  0  0  0  0  0  0  0  0
    1.2998    3.3204    0.0000 C   0  0  0  0  0  0  0  0  0  0  0  0
   -0.0002    1.0688    0.0000 C   0  0  0  0  0  0  0  0  0  0  0  0
   -1.2988    3.3196    0.0000 C   0  0  0  0  0  0  0  0  0  0  0  0
    0.0002    2.5696    0.0000 C   0  0  0  0  0  0  0  0  0  0  0  0
   -2.5978    2.5696    0.0000 C   0  0  0  0  0  0  0  0  0  0  0  0
   -3.8969    3.3196    0.0000 O   0  0  0  0  0  0  0  0  0  0  0  0
   -2.5978    1.0696    0.0000 O   0  0  0  0  0  0  0  0  0  0  0  0
  4  3  2  0
  5  3  1  0
  6  4  1  0
  7  5  2  0
  9  6  2  0
  9  7  1  0
  9  8  1  0
 10  8  1  0
 11  1  1  0
 11 10  1  0
 12  2  1  0
 12 10  1  0
M  END
>  <NAME>  (2347) 
PHENYLACETALDEHYDE DIMETHYL ACETAL

>  <SYNONYMS>  (2347) 


>  <SPECTRUM TYPE>  (2347) 
MS1

>  <INSTRUMENT TYPE>  (2347) 
EI-B

>  <INSTRUMENT>  (2347) 
HITACHI M-80B

>  <ION MODE>  (2347) 
P

>  <INCHIKEY>  (2347) 
WNJSKZBEWNVKGU-UHFFFAOYSA-N

>  <FORMULA>  (2347) 
C10H14O2

>  <EXACT MASS>  (2347) 
166.099379688

>  <MW>  (2347) 
166

>  <ID>  (2347) 
JP008664

>  <CONTRIBUTOR>  (2347) 
University of Tokyo Team, {Faculty of Engineering, University of Tokyo

>  <COMMENT>  (2347) 
SMILES=COC(OC)Cc(c1)cccc1
InChI=InChI=1S/C10H14O2/c1-11-10(12-2)8-9-6-4-3-5-7-9/h3-7,10H,8H2,1-2H3
computed SMILES=O(C)C(OC)CC=1C=CC=CC1
accession=JP008664
date=2016.01.19 (Created 2008.10.21, modified 2011.05.06)
author=SODA AROMATIC CO., LTD.
license=CC BY-NC-SA
exact mass=166.09938
ionization energy=70 eV
ion type=[M]+*
computed spectral entropy=1.9888976427235237
computed normalized entropy=0.653270811237885
SPLASH=splash10-004i-9100000000-d5f5d18ae8fc6a82df92
submitter=submitter = University of Tokyo Team (Faculty of Engineering, University of Tokyo)
MoNA Rating=3.75

>  <NUM PEAKS>  (2347) 
21

>  <MASS SPECTRAL PEAKS>  (2347) 
15 2.15
29 1.56
31 5.2
39 3.91
47 12.78
51 3.19
63 1.89
65 6.98
75 99.99
76 3.97
77 3.86
89 1.47
91 20.13
92 1.98
103 8.91
104 1.03
105 3.09
117 1.04
134 1.36
135 14.9
136 1.29

>  <PREDICTED SPECTRUM>  (2347) 
14 2
15 44
26 37
27 105
28 25
29 146
30 39
31 130
32 46
33 47
37 15
38 81
39 220
40 64
41 40
42 62
43 132
44 114
45 279
46 16
47 289
50 137
51 218
52 77
57 74
58 143
59 138
61 85
62 61
63 131
64 67
65 265
66 61
71 72
74 82
75 999
76 298
77 322
78 149
79 11
80 4
85 33
89 171
90 22
91 466
92 214
93 76
94 2
103 240
104 98
105 89
106 40
121 18
132 24
133 14
134 203
135 271
136 49
166 87
167 23

$$$$

     RDKit          2D

 13 13  0  0  0  0  0  0  0  0999 V2000
   -5.5207    3.1321    0.0000 C   0  0  0  0  0  0  0  0  0  0  0  0
   -4.2216    5.3821    0.0000 C   0  0  0  0  0  0  0  0  0  0  0  0
    3.5726    0.8821    0.0000 C   0  0  0  0  0  0  0  0  0  0  0  0
    3.5731    2.3829    0.0000 C   0  0  0  0  0  0  0  0  0  0  0  0
    2.2731    0.1313    0.0000 C   0  0  0  0  0  0  0  0  0  0  0  0
    2.2740    3.1329    0.0000 C   0  0  0  0  0  0  0  0  0  0  0  0
    0.9740    0.8813    0.0000 C   0  0  0  0  0  0  0  0  0  0  0  0
   -0.3245    3.1321    0.0000 C   0  0  0  0  0  0  0  0  0  0  0  0
   -1.6236    2.3821    0.0000 C   0  0  0  0  0  0  0  0  0  0  0  0
    0.9745    2.3821    0.0000 C   0  0  0  0  0  0  0  0  0  0  0  0
   -2.9226    3.1321    0.0000 C   0  0  0  0  0  0  0  0  0  0  0  0
   -4.2216    2.3821    0.0000 O   0  0  0  0  0  0  0  0  0  0  0  0
   -2.9226    4.6321    0.0000 O   0  0  0  0  0  0  0  0  0  0  0  0
  4  3  2  0
  5  3  1  0
  6  4  1  0
  7  5  2  0
  9  8  1  0
 10  6  2  0
 10  7  1  0
 10  8  1  0
 11  9  1  0
 12  1  1  0
 12 11  1  0
 13  2  1  0
 13 11  1  0
M  END
>  <NAME>  (2348) 
3-PHENYLPROPANAL DIMETHYL ACETAL

>  <SYNONYMS>  (2348) 


>  <SPECTRUM TYPE>  (2348) 
MS1

>  <INSTRUMENT TYPE>  (2348) 
EI-B

>  <INSTRUMENT>  (2348) 
HITACHI M-80B

>  <ION MODE>  (2348) 
P

>  <INCHIKEY>  (2348) 
PQAOFUQAZBGCQK-UHFFFAOYSA-N

>  <FORMULA>  (2348) 
C11H16O2

>  <EXACT MASS>  (2348) 
180.115029752

>  <MW>  (2348) 
180

>  <ID>  (2348) 
JP008662

>  <CONTRIBUTOR>  (2348) 
University of Tokyo Team, {Faculty of Engineering, University of Tokyo

>  <COMMENT>  (2348) 
SMILES=COC(OC)CCc(c1)cccc1
InChI=InChI=1S/C11H16O2/c1-12-11(13-2)9-8-10-6-4-3-5-7-10/h3-7,11H,8-9H2,1-2H3
computed SMILES=O(C)C(OC)CCC=1C=CC=CC1
accession=JP008662
date=2016.01.19 (Created 2008.10.21, modified 2011.05.06)
author=SODA AROMATIC CO., LTD.
license=CC BY-NC-SA
exact mass=180.11503
ionization energy=70 eV
ion type=[M]+*
computed spectral entropy=2.715999948162783
computed normalized entropy=0.7466489668981687
SPLASH=splash10-004l-9300000000-f71185a80e44685294ef
submitter=submitter = University of Tokyo Team (Faculty of Engineering, University of Tokyo)
MoNA Rating=3.75

>  <NUM PEAKS>  (2348) 
38

>  <MASS SPECTRAL PEAKS>  (2348) 
15 2.82
27 2.21
29 3.36
31 5.01
39 5.56
41 1.73
43 3.65
45 3.28
47 12.72
50 1.43
51 5.65
52 1.26
57 1.04
58 6.4
63 2.32
65 9.82
75 99.99
76 4.03
77 7.5
78 3.93
79 2.16
89 3.27
90 1.1
91 66.03
92 6.98
102 3.02
103 3.25
104 1.86
105 5.7
115 3.73
116 4.8
117 17.17
118 3.04
121 1.81
133 1.77
147 4.38
148 29.67
149 8.57

>  <PREDICTED SPECTRUM>  (2348) 
15 50
26 42
27 115
28 14
29 149
30 31
31 129
32 53
33 71
34 7
36 9
37 21
38 91
39 291
40 97
41 214
42 139
43 135
44 59
45 240
46 14
47 315
49 1
50 134
51 254
52 102
53 118
55 59
56 82
57 183
58 179
59 253
60 52
61 212
62 60
63 134
64 22
65 323
66 88
71 60
72 2
73 83
74 93
75 999
76 245
77 368
78 242
79 208
80 110
81 98
82 2
83 3
85 147
88 165
89 367
90 146
91 724
92 308
93 73
94 2
97 67
99 4
101 137
102 47
103 156
104 174
105 393
106 170
107 62
115 137
116 127
117 295
118 107
121 7
130 27
131 242
132 116
134 6
146 5
147 144
148 405
149 212

$$$$

     RDKit          2D

 16 15  0  0  0  0  0  0  0  0999 V2000
    3.5724    5.0625    0.0000 C   0  0  0  0  0  0  0  0  0  0  0  0
    2.2733    7.3125    0.0000 C   0  0  0  0  0  0  0  0  0  0  0  0
   -9.4180    5.0625    0.0000 C   0  0  0  0  0  0  0  0  0  0  0  0
   -8.1190    7.3125    0.0000 C   0  0  0  0  0  0  0  0  0  0  0  0
   -2.9228    7.3125    0.0000 C   0  0  0  0  0  0  0  0  0  0  0  0
    2.2733    5.8125    0.0000 C   0  0  0  0  0  0  0  0  0  0  0  0
    0.9743    8.0625    0.0000 C   0  0  0  0  0  0  0  0  0  0  0  0
   -5.5209    5.8125    0.0000 C   0  0  0  0  0  0  0  0  0  0  0  0
   -6.8200    5.0625    0.0000 C   0  0  0  0  0  0  0  0  0  0  0  0
   -4.2219    5.0625    0.0000 C   0  0  0  0  0  0  0  0  0  0  0  0
   -1.6238    5.0625    0.0000 C   0  0  0  0  0  0  0  0  0  0  0  0
   -8.1190    5.8125    0.0000 C   0  0  0  0  0  0  0  0  0  0  0  0
   -2.9228    5.8125    0.0000 C   0  0  0  0  0  0  0  0  0  0  0  0
   -0.3248    5.8125    0.0000 C   0  0  0  0  0  0  0  0  0  0  0  0
    0.9743    5.0625    0.0000 O   0  0  0  0  0  0  0  0  0  0  0  0
   -0.3248    7.3125    0.0000 O   0  0  0  0  0  0  0  0  0  0  0  0
  6  1  1  0
  7  2  1  0
  9  8  1  0
 10  8  1  0
 12  3  1  0
 12  4  1  0
 12  9  2  0
 13  5  1  0
 13 10  1  0
 13 11  1  0
 14 11  1  0
 15  6  1  0
 15 14  1  0
 16  7  1  0
 16 14  1  0
M  END
>  <NAME>  (2349) 
CITRONELLAL DIETHYL ACETAL

>  <SYNONYMS>  (2349) 


>  <SPECTRUM TYPE>  (2349) 
MS1

>  <INSTRUMENT TYPE>  (2349) 
EI-B

>  <INSTRUMENT>  (2349) 
HITACHI M-80B

>  <ION MODE>  (2349) 
P

>  <INCHIKEY>  (2349) 
HYNXWFKVWMABRM-UHFFFAOYSA-N

>  <FORMULA>  (2349) 
C14H28O2

>  <EXACT MASS>  (2349) 
228.208930136

>  <MW>  (2349) 
228

>  <ID>  (2349) 
JP008661

>  <CONTRIBUTOR>  (2349) 
University of Tokyo Team, {Faculty of Engineering, University of Tokyo

>  <COMMENT>  (2349) 
SMILES=CCOC(OCC)CC(C)CCC=C(C)C
InChI=InChI=1S/C14H28O2/c1-6-15-14(16-7-2)11-13(5)10-8-9-12(3)4/h9,13-14H,6-8,10-11H2,1-5H3
computed SMILES=O(CC)C(OCC)CC(C)CCC=C(C)C
accession=JP008661
date=2016.01.19 (Created 2008.10.21, modified 2011.05.06)
author=SODA AROMATIC CO., LTD.
license=CC BY-NC-SA
exact mass=228.20893
ionization energy=70 eV
ion type=[M]+*
computed spectral entropy=3.6602127340770947
computed normalized entropy=0.8329173020890092
SPLASH=splash10-0fdk-9400000000-1a6a8d0e34318736d26d
submitter=submitter = University of Tokyo Team (Faculty of Engineering, University of Tokyo)
MoNA Rating=3.75

>  <NUM PEAKS>  (2349) 
81

>  <MASS SPECTRAL PEAKS>  (2349) 
19 1.76
26 1.1
27 19.32
29 50.13
30 1.31
31 6.86
39 10.61
40 2.9
41 81.12
42 6.03
43 24.1
44 10.95
45 8.98
47 96.76
48 1.68
51 1.57
53 11.23
54 2.62
55 33.22
56 8.27
57 21.47
58 1.36
59 8.26
60 1.32
61 1.13
65 1.61
66 1.65
67 27.15
68 7.08
69 61.49
70 5.78
71 26.14
72 5.35
73 76.95
76 2.39
77 2.88
79 3.65
80 9.08
81 72.99
82 26.57
83 22.73
84 3.71
85 5.28
87 4.15
91 1.48
92 1.04
93 7.86
94 2.87
95 48.56
96 5.12
97 10.16
98 2.44
99 33.34
100 29.57
101 3.87
103 99.99
104 4.95
105 1.06
107 3.66
108 1.26
109 10.57
110 7.2
111 6.53
112 10.81
113 2.73
115 2.59
121 93.71
122 8.73
123 8.66
125 5.62
126 2.06
136 13.42
137 14.47
138 10.61
139 24.43
140 2.34
143 10.21
144 1.22
167 5.35
182 9.01
183 3.93

>  <PREDICTED SPECTRUM>  (2349) 
14 4
15 90
17 11
18 29
19 25
25 20
26 117
27 440
28 202
29 512
30 130
31 299
32 27
37 21
38 44
39 345
40 160
41 804
42 244
43 562
44 194
45 363
46 80
47 553
50 23
51 70
52 88
53 343
54 212
55 520
56 174
57 291
58 84
59 343
60 77
61 105
62 51
63 43
65 168
66 173
67 509
68 309
69 847
70 269
71 466
72 317
73 734
74 89
75 437
76 129
77 271
78 85
79 303
80 306
81 699
82 455
83 364
84 200
85 279
86 134
87 165
89 35
91 268
92 181
93 384
94 294
95 705
96 418
97 295
98 228
99 308
100 147
101 207
102 74
103 999
104 317
105 110
107 171
108 119
109 391
110 313
111 257
112 225
113 239
114 77
115 168
116 53
119 42
120 32
121 902
122 369
123 266
124 41
125 156
126 101
127 105
128 108
129 164
130 55
136 391
137 351
138 383
139 354
140 196
141 111
142 50
143 192
144 64
153 58
155 36
156 6
157 43
158 47
167 202
182 234
183 194
184 46
228 50
229 11

$$$$

     RDKit          2D

 14 13  0  0  0  0  0  0  0  0999 V2000
   -7.4695    6.1875    0.0000 C   0  0  0  0  0  0  0  0  0  0  0  0
   -6.1704    3.9375    0.0000 C   0  0  0  0  0  0  0  0  0  0  0  0
   -0.9743    3.9375    0.0000 C   0  0  0  0  0  0  0  0  0  0  0  0
    4.2219    5.4375    0.0000 C   0  0  0  0  0  0  0  0  0  0  0  0
    2.9228    3.1875    0.0000 C   0  0  0  0  0  0  0  0  0  0  0  0
   -3.5724    5.4375    0.0000 C   0  0  0  0  0  0  0  0  0  0  0  0
   -4.8714    6.1875    0.0000 C   0  0  0  0  0  0  0  0  0  0  0  0
   -2.2733    6.1875    0.0000 C   0  0  0  0  0  0  0  0  0  0  0  0
    0.3248    6.1875    0.0000 C   0  0  0  0  0  0  0  0  0  0  0  0
   -6.1704    5.4375    0.0000 C   0  0  0  0  0  0  0  0  0  0  0  0
   -0.9743    5.4375    0.0000 C   0  0  0  0  0  0  0  0  0  0  0  0
    1.6238    5.4375    0.0000 C   0  0  0  0  0  0  0  0  0  0  0  0
    2.9228    6.1875    0.0000 O   0  0  0  0  0  0  0  0  0  0  0  0
    1.6238    3.9375    0.0000 O   0  0  0  0  0  0  0  0  0  0  0  0
  7  6  1  0
  8  6  1  0
 10  1  1  0
 10  2  1  0
 10  7  2  0
 11  3  1  0
 11  8  1  0
 11  9  1  0
 12  9  1  0
 13  4  1  0
 13 12  1  0
 14  5  1  0
 14 12  1  0
M  END
>  <NAME>  (2350) 
CITRONELLAL DIMETHYL ACETAL

>  <SYNONYMS>  (2350) 
3,7-DIMETHYL-6-OCTENAL DIMETHYL ACETAL

>  <SPECTRUM TYPE>  (2350) 
MS1

>  <INSTRUMENT TYPE>  (2350) 
EI-B

>  <INSTRUMENT>  (2350) 
HITACHI M-80B

>  <ION MODE>  (2350) 
P

>  <INCHIKEY>  (2350) 
SEXUFKWNUNQRSS-UHFFFAOYSA-N

>  <FORMULA>  (2350) 
C12H24O2

>  <EXACT MASS>  (2350) 
200.177630008

>  <MW>  (2350) 
200

>  <ID>  (2350) 
JP008660

>  <CONTRIBUTOR>  (2350) 
University of Tokyo Team, {Faculty of Engineering, University of Tokyo

>  <COMMENT>  (2350) 
SMILES=COC(OC)CC(C)CCC=C(C)C
InChI=InChI=1S/C12H24O2/c1-10(2)7-6-8-11(3)9-12(13-4)14-5/h7,11-12H,6,8-9H2,1-5H3
computed SMILES=O(C)C(OC)CC(C)CCC=C(C)C
accession=JP008660
date=2016.01.19 (Created 2008.10.21, modified 2011.05.06)
author=SODA AROMATIC CO., LTD.
license=CC BY-NC-SA
exact mass=200.17763
ionization energy=70 eV
ion type=[M]+*
computed spectral entropy=3.458571722808988
computed normalized entropy=0.8316107121758877
SPLASH=splash10-00bl-9200000000-4d27dcac94e54119d8e9
submitter=submitter = University of Tokyo Team (Faculty of Engineering, University of Tokyo)
MoNA Rating=3.75

>  <NUM PEAKS>  (2350) 
64

>  <MASS SPECTRAL PEAKS>  (2350) 
15 4.46
27 8.6
29 9.75
31 8.8
33 1.03
39 14.97
41 56.91
42 3.67
43 8.53
45 9.15
47 14.37
51 1.18
53 10.6
54 1.92
55 25.23
56 2.59
57 1.87
58 8.4
59 3.93
65 1.71
67 16.47
68 4.77
69 33.43
70 2.23
71 6.59
73 3.12
75 99.99
76 2.61
77 2.31
79 3.25
80 2.32
81 27.45
82 4.8
83 4.47
84 1.02
85 50.66
86 19.45
87 1.54
91 1.37
93 6.51
94 1.61
95 31.05
96 2.07
97 4.11
98 16.27
99 4.78
101 1.13
107 2.47
108 1.17
109 6.85
110 4.06
111 14.05
112 3.59
115 7.66
121 55.14
122 4.16
123 3.09
125 5.98
136 7.81
137 5.67
139 1.58
153 3.16
168 8.15
169 3.25

>  <PREDICTED SPECTRUM>  (2350) 
15 49
26 60
27 236
28 92
29 294
30 49
31 237
32 40
33 85
34 0
38 39
39 300
40 103
41 538
42 140
43 267
44 81
45 385
46 5
47 358
48 8
49 0
50 19
51 90
52 55
53 219
54 173
55 404
56 114
57 179
58 268
59 222
61 63
65 127
66 96
67 416
68 218
69 600
70 173
71 353
72 117
73 172
74 9
75 999
76 144
77 111
78 89
79 219
80 164
81 471
82 292
83 292
84 229
85 283
86 139
87 83
88 51
91 26
93 248
94 166
95 525
96 201
97 216
98 145
99 180
100 179
101 146
102 70
104 41
105 88
106 13
107 134
108 132
109 301
110 206
111 197
112 106
113 25
114 32
115 50
117 21
119 47
120 13
121 335
122 147
123 238
124 2
125 283
126 6
127 27
128 33
129 51
135 70
136 356
137 292
138 75
139 40
153 123
154 27
168 339
169 186
200 3

$$$$

     RDKit          2D

 14 13  0  0  0  0  0  0  0  0999 V2000
    3.8971    6.7500    0.0000 C   0  0  0  0  0  0  0  0  0  0  0  0
    2.5981    4.5000    0.0000 C   0  0  0  0  0  0  0  0  0  0  0  0
   -2.5981    4.5000    0.0000 C   0  0  0  0  0  0  0  0  0  0  0  0
   -5.1962   10.5000    0.0000 C   0  0  0  0  0  0  0  0  0  0  0  0
   -2.5981   10.5000    0.0000 C   0  0  0  0  0  0  0  0  0  0  0  0
    0.0000    6.0000    0.0000 C   0  0  0  0  0  0  0  0  0  0  0  0
    1.2990    6.7500    0.0000 C   0  0  0  0  0  0  0  0  0  0  0  0
   -1.2990    6.7500    0.0000 C   0  0  0  0  0  0  0  0  0  0  0  0
   -3.8971    6.7500    0.0000 C   0  0  0  0  0  0  0  0  0  0  0  0
    2.5981    6.0000    0.0000 C   0  0  0  0  0  0  0  0  0  0  0  0
   -2.5981    6.0000    0.0000 C   0  0  0  0  0  0  0  0  0  0  0  0
   -3.8971    8.2500    0.0000 C   0  0  0  0  0  0  0  0  0  0  0  0
   -5.1962    9.0000    0.0000 O   0  0  0  0  0  0  0  0  0  0  0  0
   -2.5981    9.0000    0.0000 O   0  0  0  0  0  0  0  0  0  0  0  0
  7  6  1  0
  8  6  1  0
 10  1  1  0
 10  2  1  0
 10  7  2  0
 11  3  1  0
 11  8  1  0
  9 11  2  0
 12  9  1  0
 13  4  1  0
 13 12  1  0
 14  5  1  0
 14 12  1  0
M  END
>  <NAME>  (2351) 
NERAL DIMETHYL ACETAL

>  <SYNONYMS>  (2351) 
CIS-3,7-DIMETHYL-2,6-OCTADIENAL DIMETHYL ACETAL

>  <SPECTRUM TYPE>  (2351) 
MS1

>  <INSTRUMENT TYPE>  (2351) 
EI-B

>  <INSTRUMENT>  (2351) 
HITACHI M-80B

>  <ION MODE>  (2351) 
P

>  <INCHIKEY>  (2351) 
ZSKAJFSSXURRGL-LUAWRHEFSA-N

>  <FORMULA>  (2351) 
C12H22O2

>  <EXACT MASS>  (2351) 
198.161979944

>  <MW>  (2351) 
198

>  <ID>  (2351) 
JP008659

>  <CONTRIBUTOR>  (2351) 
University of Tokyo Team, {Faculty of Engineering, University of Tokyo

>  <COMMENT>  (2351) 
SMILES=COC(OC)C=C(C)CCC=C(C)C
InChI=InChI=1S/C12H22O2/c1-10(2)7-6-8-11(3)9-12(13-4)14-5/h7,9,12H,6,8H2,1-5H3/b11-9-
computed SMILES=O(C)C(OC)C=C(C)CCC=C(C)C
accession=JP008659
date=2016.01.19 (Created 2008.10.21, modified 2011.05.06)
author=SODA AROMATIC CO., LTD.
license=CC BY-NC-SA
exact mass=198.16198
ionization energy=70 eV
ion type=[M]+*
computed spectral entropy=3.640594491950301
computed normalized entropy=0.8308015435468117
SPLASH=splash10-00xu-9200000000-3a4f5968d8c2a3615e4d
submitter=submitter = University of Tokyo Team (Faculty of Engineering, University of Tokyo)
MoNA Rating=3.75

>  <NUM PEAKS>  (2351) 
80

>  <MASS SPECTRAL PEAKS>  (2351) 
15 7.39
27 19.47
29 20.66
30 1.37
31 20.58
38 1.23
39 31.89
40 3.17
41 99.99
42 4.23
43 12.16
45 26.26
47 1.73
50 1.5
51 5.62
52 2.8
53 22.49
54 3.94
55 20.02
56 1.57
57 1.35
58 1.75
59 4.38
63 1.49
65 5.73
66 2.2
67 15.97
68 3.7
69 75.6
70 3.42
71 5.2
73 46.3
74 1.86
75 14.84
77 11.22
78 2.45
79 12.09
80 3.66
81 6.66
82 3.6
83 28.27
84 3.01
85 4.59
86 29.17
87 3.35
91 21.04
92 3.48
93 14.81
94 2.9
95 4.99
97 2.79
98 24.38
99 3.54
103 1.24
105 5.4
106 1.52
107 5.7
108 2.95
109 6.14
110 3.75
111 3.58
115 5.19
117 1.59
119 18.91
120 1.71
121 4.94
122 1.3
123 81.96
124 5.84
125 1.14
128 2.27
129 2.09
134 4.76
135 4.02
136 1.38
137 1.43
141 3.7
151 8.18
166 7.58
167 1.35

>  <PREDICTED SPECTRUM>  (2351) 
15 19
26 57
27 297
28 72
29 300
31 202
32 27
33 81
37 52
38 105
39 532
40 204
41 880
42 251
43 358
44 89
45 497
46 70
47 249
48 3
49 14
50 107
51 244
52 145
53 372
54 161
55 415
56 187
57 178
58 145
59 309
60 11
62 8
63 45
65 247
66 118
67 461
68 241
69 999
70 276
71 331
72 150
73 726
74 51
75 564
76 107
77 367
78 170
79 402
80 174
81 394
82 218
83 407
84 256
85 248
86 179
87 110
88 2
91 423
92 213
93 489
94 203
95 317
96 130
97 304
98 281
99 178
100 55
101 33
102 33
103 98
104 38
105 318
106 193
107 335
108 257
109 287
110 148
111 121
112 12
113 98
115 184
116 67
117 45
119 335
120 78
121 322
122 179
123 716
124 179
125 192
126 24
127 23
128 40
129 223
130 17
133 97
134 199
135 233
136 97
137 167
138 54
139 34
141 45
142 2
151 264
155 17
166 243
167 189
183 3

$$$$

     RDKit          2D

 20 19  0  0  0  0  0  0  0  0999 V2000
    4.5466    7.8750    0.0000 C   0  0  0  0  0  0  0  0  0  0  0  0
  -13.6399    7.8750    0.0000 C   0  0  0  0  0  0  0  0  0  0  0  0
   -7.1447   14.6250    0.0000 C   0  0  0  0  0  0  0  0  0  0  0  0
    3.2476    8.6250    0.0000 C   0  0  0  0  0  0  0  0  0  0  0  0
  -12.3409    8.6250    0.0000 C   0  0  0  0  0  0  0  0  0  0  0  0
   -7.1447   13.1250    0.0000 C   0  0  0  0  0  0  0  0  0  0  0  0
    1.9486    7.8750    0.0000 C   0  0  0  0  0  0  0  0  0  0  0  0
  -11.0418    7.8750    0.0000 C   0  0  0  0  0  0  0  0  0  0  0  0
   -5.8457   12.3750    0.0000 C   0  0  0  0  0  0  0  0  0  0  0  0
    0.6495    8.6250    0.0000 C   0  0  0  0  0  0  0  0  0  0  0  0
   -9.7428    8.6250    0.0000 C   0  0  0  0  0  0  0  0  0  0  0  0
   -5.8457   10.8750    0.0000 C   0  0  0  0  0  0  0  0  0  0  0  0
   -0.6495    7.8750    0.0000 C   0  0  0  0  0  0  0  0  0  0  0  0
   -8.4437    7.8750    0.0000 C   0  0  0  0  0  0  0  0  0  0  0  0
   -4.5466   10.1250    0.0000 C   0  0  0  0  0  0  0  0  0  0  0  0
   -1.9486    8.6250    0.0000 C   0  0  0  0  0  0  0  0  0  0  0  0
   -7.1447    8.6250    0.0000 C   0  0  0  0  0  0  0  0  0  0  0  0
   -4.5466    8.6250    0.0000 C   0  0  0  0  0  0  0  0  0  0  0  0
   -3.2476    7.8750    0.0000 O   0  0  0  0  0  0  0  0  0  0  0  0
   -5.8457    7.8750    0.0000 O   0  0  0  0  0  0  0  0  0  0  0  0
  4  1  1  0
  5  2  1  0
  6  3  1  0
  7  4  1  0
  8  5  1  0
  9  6  1  0
 10  7  1  0
 11  8  1  0
 12  9  1  0
 13 10  1  0
 14 11  1  0
 15 12  1  0
 16 13  1  0
 17 14  1  0
 18 15  1  0
 19 16  1  0
 19 18  1  0
 20 17  1  0
 20 18  1  0
M  END
>  <NAME>  (2352) 
HEXANAL DIHEXYL ACETAL

>  <SYNONYMS>  (2352) 


>  <SPECTRUM TYPE>  (2352) 
MS1

>  <INSTRUMENT TYPE>  (2352) 
EI-B

>  <INSTRUMENT>  (2352) 
HITACHI M-80B

>  <ION MODE>  (2352) 
P

>  <INCHIKEY>  (2352) 
JAMIQGJXDPTFJL-UHFFFAOYSA-N

>  <FORMULA>  (2352) 
C18H38O2

>  <EXACT MASS>  (2352) 
286.287180456

>  <MW>  (2352) 
286

>  <ID>  (2352) 
JP008657

>  <CONTRIBUTOR>  (2352) 
University of Tokyo Team, {Faculty of Engineering, University of Tokyo

>  <COMMENT>  (2352) 
SMILES=CCCCCCOC(CCCCC)OCCCCCC
InChI=InChI=1S/C18H38O2/c1-4-7-10-13-16-19-18(15-12-9-6-3)20-17-14-11-8-5-2/h18H,4-17H2,1-3H3
computed SMILES=O(CCCCCC)C(OCCCCCC)CCCCC
accession=JP008657
date=2016.01.19 (Created 2008.10.21, modified 2011.05.06)
author=SODA AROMATIC CO., LTD.
license=CC BY-NC-SA
exact mass=286.28718
ionization energy=70 eV
ion type=[M]+*
computed spectral entropy=2.6589327402652296
computed normalized entropy=0.7742989655850743
SPLASH=splash10-000f-9100000000-73516d92d4f0236c340f
submitter=submitter = University of Tokyo Team (Faculty of Engineering, University of Tokyo)
MoNA Rating=3.75

>  <NUM PEAKS>  (2352) 
31

>  <MASS SPECTRAL PEAKS>  (2352) 
27 10.22
29 15.95
31 3.71
39 4.33
41 26.88
42 11.27
43 99.99
44 3.49
45 1.17
53 1.03
55 21.13
56 15.56
57 24.25
58 1.47
67 1.45
69 3.89
71 2.89
82 5.3
83 21.27
84 2.51
85 85.09
86 5.67
101 21.85
102 1.26
113 1.18
131 7.75
184 1.22
185 20.84
186 2.27
215 9.83
216 1.09

>  <PREDICTED SPECTRUM>  (2352) 
26 6
27 342
28 33
29 489
31 87
39 325
40 8
41 614
42 315
43 991
44 169
45 122
47 129
50 7
51 0
53 86
54 51
55 585
56 400
57 698
58 67
59 112
63 11
65 32
67 149
69 294
70 29
71 124
72 68
75 111
77 11
79 23
81 104
82 162
83 617
84 189
85 999
86 260
87 28
99 45
100 122
101 705
102 103
113 15
117 19
157 76
184 174
185 426
186 176
187 22
199 97
215 538
216 63

$$$$

     RDKit          2D

 17 16  0  0  0  0  0  0  0  0999 V2000
    4.5466    7.8750    0.0000 C   0  0  0  0  0  0  0  0  0  0  0  0
  -13.6399    7.8750    0.0000 C   0  0  0  0  0  0  0  0  0  0  0  0
   -5.8457   10.8750    0.0000 C   0  0  0  0  0  0  0  0  0  0  0  0
    3.2476    8.6250    0.0000 C   0  0  0  0  0  0  0  0  0  0  0  0
  -12.3409    8.6250    0.0000 C   0  0  0  0  0  0  0  0  0  0  0  0
   -4.5466   10.1250    0.0000 C   0  0  0  0  0  0  0  0  0  0  0  0
    1.9486    7.8750    0.0000 C   0  0  0  0  0  0  0  0  0  0  0  0
  -11.0418    7.8750    0.0000 C   0  0  0  0  0  0  0  0  0  0  0  0
    0.6495    8.6250    0.0000 C   0  0  0  0  0  0  0  0  0  0  0  0
   -9.7428    8.6250    0.0000 C   0  0  0  0  0  0  0  0  0  0  0  0
   -0.6495    7.8750    0.0000 C   0  0  0  0  0  0  0  0  0  0  0  0
   -8.4437    7.8750    0.0000 C   0  0  0  0  0  0  0  0  0  0  0  0
   -1.9486    8.6250    0.0000 C   0  0  0  0  0  0  0  0  0  0  0  0
   -7.1447    8.6250    0.0000 C   0  0  0  0  0  0  0  0  0  0  0  0
   -4.5466    8.6250    0.0000 C   0  0  0  0  0  0  0  0  0  0  0  0
   -3.2476    7.8750    0.0000 O   0  0  0  0  0  0  0  0  0  0  0  0
   -5.8457    7.8750    0.0000 O   0  0  0  0  0  0  0  0  0  0  0  0
  4  1  1  0
  5  2  1  0
  6  3  1  0
  7  4  1  0
  8  5  1  0
  9  7  1  0
 10  8  1  0
 11  9  1  0
 12 10  1  0
 13 11  1  0
 14 12  1  0
 15  6  1  0
 16 13  1  0
 16 15  1  0
 17 14  1  0
 17 15  1  0
M  END
>  <NAME>  (2353) 
PROPANAL DIHEXYL ACETAL

>  <SYNONYMS>  (2353) 


>  <SPECTRUM TYPE>  (2353) 
MS1

>  <INSTRUMENT TYPE>  (2353) 
EI-B

>  <INSTRUMENT>  (2353) 
HITACHI M-80B

>  <ION MODE>  (2353) 
P

>  <INCHIKEY>  (2353) 
GAGIWYOKONINOF-UHFFFAOYSA-N

>  <FORMULA>  (2353) 
C15H32O2

>  <EXACT MASS>  (2353) 
244.240230264

>  <MW>  (2353) 
244

>  <ID>  (2353) 
JP008656

>  <CONTRIBUTOR>  (2353) 
University of Tokyo Team, {Faculty of Engineering, University of Tokyo

>  <COMMENT>  (2353) 
SMILES=CCCCCCOC(CC)OCCCCCC
InChI=InChI=1S/C15H32O2/c1-4-7-9-11-13-16-15(6-3)17-14-12-10-8-5-2/h15H,4-14H2,1-3H3
computed SMILES=O(CCCCCC)C(OCCCCCC)CC
accession=JP008656
date=2016.01.19 (Created 2008.10.21, modified 2011.05.06)
author=SODA AROMATIC CO., LTD.
license=CC BY-NC-SA
exact mass=244.24023
ionization energy=70 eV
ion type=[M]+*
computed spectral entropy=2.396167563276917
computed normalized entropy=0.7642072981999917
SPLASH=splash10-000f-9100000000-739aad222e2e2ec7f572
submitter=submitter = University of Tokyo Team (Faculty of Engineering, University of Tokyo)
MoNA Rating=3.75

>  <NUM PEAKS>  (2353) 
23

>  <MASS SPECTRAL PEAKS>  (2353) 
27 9.75
29 16.14
31 4.47
39 4.6
41 24.61
42 9.08
43 94.38
44 2.49
55 11.19
56 10.45
57 15.47
58 6.23
59 39.16
60 1.03
69 2.26
71 1.25
75 1.13
85 99.99
86 6.31
131 5.78
143 35.9
144 2.74
215 6.3

>  <PREDICTED SPECTRUM>  (2353) 
15 4
26 50
27 318
28 55
29 407
31 186
39 233
40 44
41 472
42 256
43 865
44 61
46 8
47 65
53 66
54 64
55 339
56 275
57 470
58 98
59 338
60 49
61 10
63 2
65 13
67 87
69 139
72 8
73 5
75 83
82 21
83 160
84 173
85 999
86 289
101 200
114 5
115 63
125 21
142 201
143 509
144 150
145 3
161 1
215 187

$$$$

     RDKit          2D

 16 15  0  0  0  0  0  0  0  0999 V2000
    4.5466    7.8750    0.0000 C   0  0  0  0  0  0  0  0  0  0  0  0
  -13.6399    7.8750    0.0000 C   0  0  0  0  0  0  0  0  0  0  0  0
   -4.5466   10.1250    0.0000 C   0  0  0  0  0  0  0  0  0  0  0  0
    3.2476    8.6250    0.0000 C   0  0  0  0  0  0  0  0  0  0  0  0
  -12.3409    8.6250    0.0000 C   0  0  0  0  0  0  0  0  0  0  0  0
    1.9486    7.8750    0.0000 C   0  0  0  0  0  0  0  0  0  0  0  0
  -11.0418    7.8750    0.0000 C   0  0  0  0  0  0  0  0  0  0  0  0
    0.6495    8.6250    0.0000 C   0  0  0  0  0  0  0  0  0  0  0  0
   -9.7428    8.6250    0.0000 C   0  0  0  0  0  0  0  0  0  0  0  0
   -0.6495    7.8750    0.0000 C   0  0  0  0  0  0  0  0  0  0  0  0
   -8.4437    7.8750    0.0000 C   0  0  0  0  0  0  0  0  0  0  0  0
   -1.9486    8.6250    0.0000 C   0  0  0  0  0  0  0  0  0  0  0  0
   -7.1447    8.6250    0.0000 C   0  0  0  0  0  0  0  0  0  0  0  0
   -4.5466    8.6250    0.0000 C   0  0  0  0  0  0  0  0  0  0  0  0
   -3.2476    7.8750    0.0000 O   0  0  0  0  0  0  0  0  0  0  0  0
   -5.8457    7.8750    0.0000 O   0  0  0  0  0  0  0  0  0  0  0  0
  4  1  1  0
  5  2  1  0
  6  4  1  0
  7  5  1  0
  8  6  1  0
  9  7  1  0
 10  8  1  0
 11  9  1  0
 12 10  1  0
 13 11  1  0
 14  3  1  0
 15 12  1  0
 15 14  1  0
 16 13  1  0
 16 14  1  0
M  END
>  <NAME>  (2354) 
ACETALDEHYDE DIHEXYL ACETAL

>  <SYNONYMS>  (2354) 


>  <SPECTRUM TYPE>  (2354) 
MS1

>  <INSTRUMENT TYPE>  (2354) 
EI-B

>  <INSTRUMENT>  (2354) 
HITACHI M-80B

>  <ION MODE>  (2354) 
P

>  <INCHIKEY>  (2354) 
VSFOOCQEJQKBSO-UHFFFAOYSA-N

>  <FORMULA>  (2354) 
C14H30O2

>  <EXACT MASS>  (2354) 
230.2245802

>  <MW>  (2354) 
230

>  <ID>  (2354) 
JP008655

>  <CONTRIBUTOR>  (2354) 
University of Tokyo Team, {Faculty of Engineering, University of Tokyo

>  <COMMENT>  (2354) 
SMILES=CCCCCCOC(C)OCCCCCC
InChI=InChI=1S/C14H30O2/c1-4-6-8-10-12-15-14(3)16-13-11-9-7-5-2/h14H,4-13H2,1-3H3
computed SMILES=O(CCCCCC)C(OCCCCCC)C
accession=JP008655
date=2016.01.19 (Created 2008.10.21, modified 2011.05.06)
author=SODA AROMATIC CO., LTD.
license=CC BY-NC-SA
exact mass=230.22458
ionization energy=70 eV
ion type=[M]+*
computed spectral entropy=2.368860881864254
computed normalized entropy=0.7270689662568356
SPLASH=splash10-002o-9200000000-09f4b144ce6965a79fa2
submitter=submitter = University of Tokyo Team (Faculty of Engineering, University of Tokyo)
MoNA Rating=3.75

>  <NUM PEAKS>  (2354) 
26

>  <MASS SPECTRAL PEAKS>  (2354) 
27 9
28 2.34
29 15.59
31 2.09
39 3.59
40 1.06
41 24.25
42 9.25
43 83.64
44 2.71
45 17.7
53 1.03
55 10.85
56 8.68
57 12.67
58 1.09
69 2.09
71 1.79
83 1
85 99.99
86 6.7
111 1.06
129 63.06
130 4.25
131 2.94
215 8.01

>  <PREDICTED SPECTRUM>  (2354) 
14 12
15 71
19 0
25 1
26 75
27 332
28 122
29 425
31 249
38 21
39 266
40 74
41 535
42 388
43 999
44 313
45 355
46 8
53 95
54 89
55 400
56 370
57 527
58 51
59 72
67 77
68 35
69 205
70 78
71 343
72 97
73 9
82 58
83 193
84 220
85 670
86 176
88 29
89 25
99 72
100 36
101 339
102 76
103 90
111 75
113 173
114 22
115 2
128 160
129 635
130 162
131 83
143 246
145 3
155 11
157 35
158 1
173 1
215 317
216 42

$$$$

     RDKit          2D

 16 15  0  0  0  0  0  0  0  0999 V2000
   11.3666    6.1875    0.0000 C   0  0  0  0  0  0  0  0  0  0  0  0
   -4.2219    6.1875    0.0000 C   0  0  0  0  0  0  0  0  0  0  0  0
    3.5724   10.6875    0.0000 C   0  0  0  0  0  0  0  0  0  0  0  0
   10.0675    6.9375    0.0000 C   0  0  0  0  0  0  0  0  0  0  0  0
   -2.9228    6.9375    0.0000 C   0  0  0  0  0  0  0  0  0  0  0  0
   10.0675    8.4375    0.0000 C   0  0  0  0  0  0  0  0  0  0  0  0
   -2.9228    8.4375    0.0000 C   0  0  0  0  0  0  0  0  0  0  0  0
    8.7685    9.1875    0.0000 C   0  0  0  0  0  0  0  0  0  0  0  0
   -1.6238    9.1875    0.0000 C   0  0  0  0  0  0  0  0  0  0  0  0
    7.4695    8.4375    0.0000 C   0  0  0  0  0  0  0  0  0  0  0  0
   -0.3248    8.4375    0.0000 C   0  0  0  0  0  0  0  0  0  0  0  0
    6.1704    9.1875    0.0000 C   0  0  0  0  0  0  0  0  0  0  0  0
    0.9743    9.1875    0.0000 C   0  0  0  0  0  0  0  0  0  0  0  0
    3.5724    9.1875    0.0000 C   0  0  0  0  0  0  0  0  0  0  0  0
    4.8714    8.4375    0.0000 O   0  0  0  0  0  0  0  0  0  0  0  0
    2.2733    8.4375    0.0000 O   0  0  0  0  0  0  0  0  0  0  0  0
  4  1  1  0
  5  2  1  0
  6  4  1  0
  7  5  1  0
  6  8  2  0
  7  9  2  0
 10  8  1  0
 11  9  1  0
 12 10  1  0
 13 11  1  0
 14  3  1  0
 15 12  1  0
 15 14  1  0
 16 13  1  0
 16 14  1  0
M  END
>  <NAME>  (2355) 
ACETALDEHYDE DI-CIS-3-HEXENYL ACETAL

>  <SYNONYMS>  (2355) 


>  <SPECTRUM TYPE>  (2355) 
MS1

>  <INSTRUMENT TYPE>  (2355) 
EI-B

>  <INSTRUMENT>  (2355) 
HITACHI M-80B

>  <ION MODE>  (2355) 
P

>  <INCHIKEY>  (2355) 
KCPFRJBAXWUXIG-VRHVFUOLSA-N

>  <FORMULA>  (2355) 
C14H26O2

>  <EXACT MASS>  (2355) 
226.193280072

>  <MW>  (2355) 
226

>  <ID>  (2355) 
JP008654

>  <CONTRIBUTOR>  (2355) 
University of Tokyo Team, {Faculty of Engineering, University of Tokyo

>  <COMMENT>  (2355) 
SMILES=CCC=CCCOC(C)OCCC=CCC
InChI=InChI=1S/C14H26O2/c1-4-6-8-10-12-15-14(3)16-13-11-9-7-5-2/h6-9,14H,4-5,10-13H2,1-3H3/b8-6-,9-7-
computed SMILES=O(CCC=CCC)C(OCCC=CCC)C
accession=JP008654
date=2016.01.19 (Created 2008.10.21, modified 2011.05.06)
author=SODA AROMATIC CO., LTD.
license=CC BY-NC-SA
exact mass=226.19328
ionization energy=70 eV
ion type=[M]+*
computed spectral entropy=2.107907983930304
computed normalized entropy=0.6819408066169169
SPLASH=splash10-053r-9100000000-38ccc0731acd50b42f5e
submitter=submitter = University of Tokyo Team (Faculty of Engineering, University of Tokyo)
MoNA Rating=3.75

>  <NUM PEAKS>  (2355) 
22

>  <MASS SPECTRAL PEAKS>  (2355) 
27 2.78
29 3.79
39 4.77
40 1.38
41 23.13
42 1.84
43 3.7
45 1.98
53 3.16
54 2.72
55 55.2
56 3.08
58 1.87
67 8.12
68 1.33
69 3.41
81 1.24
82 6.37
83 99.99
84 6.66
127 34.27
128 2.92

>  <PREDICTED SPECTRUM>  (2355) 
26 40
27 254
28 105
29 290
31 134
33 0
39 285
40 65
41 615
42 156
43 250
44 57
45 190
50 3
51 34
53 205
54 176
55 701
56 243
57 126
59 112
63 19
65 111
66 29
67 564
68 54
69 90
70 27
73 26
77 42
81 143
82 633
83 999
84 169
97 44
99 102
101 109
125 30
126 33
127 449
128 36
129 3

$$$$

     RDKit          2D

 15 14  0  0  0  0  0  0  0  0999 V2000
    3.8971    6.7500    0.0000 C   0  0  0  0  0  0  0  0  0  0  0  0
  -11.6913    6.7500    0.0000 C   0  0  0  0  0  0  0  0  0  0  0  0
  -10.3923    9.0000    0.0000 C   0  0  0  0  0  0  0  0  0  0  0  0
   -5.1962    9.0000    0.0000 C   0  0  0  0  0  0  0  0  0  0  0  0
    2.5981    7.5000    0.0000 C   0  0  0  0  0  0  0  0  0  0  0  0
    1.2990    6.7500    0.0000 C   0  0  0  0  0  0  0  0  0  0  0  0
    0.0000    7.5000    0.0000 C   0  0  0  0  0  0  0  0  0  0  0  0
   -1.2990    6.7500    0.0000 C   0  0  0  0  0  0  0  0  0  0  0  0
   -9.0933    6.7500    0.0000 C   0  0  0  0  0  0  0  0  0  0  0  0
   -2.5981    7.5000    0.0000 C   0  0  0  0  0  0  0  0  0  0  0  0
   -7.7942    7.5000    0.0000 C   0  0  0  0  0  0  0  0  0  0  0  0
  -10.3923    7.5000    0.0000 C   0  0  0  0  0  0  0  0  0  0  0  0
   -5.1962    7.5000    0.0000 C   0  0  0  0  0  0  0  0  0  0  0  0
   -3.8971    6.7500    0.0000 O   0  0  0  0  0  0  0  0  0  0  0  0
   -6.4952    6.7500    0.0000 O   0  0  0  0  0  0  0  0  0  0  0  0
  5  1  1  0
  6  5  1  0
  7  6  1  0
  8  7  1  0
 10  8  1  0
 11  9  1  0
 12  2  1  0
 12  3  1  0
 12  9  1  0
 13  4  1  0
 14 10  1  0
 14 13  1  0
 15 11  1  0
 15 13  1  0
M  END
>  <NAME>  (2356) 
ACETALDEHYDE HEXYL ISOAMYL ACETAL

>  <SYNONYMS>  (2356) 
ACETALDEHYDE HEXYL 3-METHYLBUTYL ACETAL

>  <SPECTRUM TYPE>  (2356) 
MS1

>  <INSTRUMENT TYPE>  (2356) 
EI-B

>  <INSTRUMENT>  (2356) 
HITACHI M-80B

>  <ION MODE>  (2356) 
P

>  <INCHIKEY>  (2356) 
PUXHYFFHRDAFHP-UHFFFAOYSA-N

>  <FORMULA>  (2356) 
C13H28O2

>  <EXACT MASS>  (2356) 
216.208930136

>  <MW>  (2356) 
216

>  <ID>  (2356) 
JP008653

>  <CONTRIBUTOR>  (2356) 
University of Tokyo Team, {Faculty of Engineering, University of Tokyo

>  <COMMENT>  (2356) 
SMILES=CCCCCCOC(C)OCCC(C)C
InChI=InChI=1S/C13H28O2/c1-5-6-7-8-10-14-13(4)15-11-9-12(2)3/h12-13H,5-11H2,1-4H3
computed SMILES=O(CCCCCC)C(OCCC(C)C)C
accession=JP008653
date=2016.01.19 (Created 2008.10.21, modified 2011.05.06)
author=SODA AROMATIC CO., LTD.
license=CC BY-NC-SA
exact mass=216.20893
ionization energy=70 eV
ion type=[M]+*
computed spectral entropy=2.717906071284894
computed normalized entropy=0.7991027177483775
SPLASH=splash10-006x-9100000000-d2dd67a93bb3771e285b
submitter=submitter = University of Tokyo Team (Faculty of Engineering, University of Tokyo)
MoNA Rating=3.75

>  <NUM PEAKS>  (2356) 
30

>  <MASS SPECTRAL PEAKS>  (2356) 
15 1.48
27 15.42
29 16.54
31 5.86
39 7.34
41 28.59
42 14.99
43 99.99
44 5.35
45 13.16
53 1.41
54 1.07
55 21.82
56 16.06
57 9.43
69 4.35
70 6.55
71 65.51
72 3.2
82 1.15
84 1.71
85 38.12
86 2.24
113 1.68
115 30.73
116 2.33
117 1.49
129 22.58
130 1.68
201 5.83

>  <PREDICTED SPECTRUM>  (2356) 
14 13
15 71
26 75
27 311
28 101
29 367
31 194
38 19
39 256
40 78
41 535
42 349
43 999
44 276
45 323
50 3
53 114
54 75
55 389
56 263
57 277
58 82
59 41
67 54
68 44
69 143
70 200
71 942
72 245
73 45
82 13
83 79
84 81
85 413
86 137
87 122
88 68
89 68
99 34
100 10
113 91
114 97
115 384
116 71
117 77
128 33
129 518
130 139
131 23
141 16
143 123
144 33
201 291
202 41
203 0

$$$$

     RDKit          2D

 14 13  0  0  0  0  0  0  0  0999 V2000
    3.5724    6.5625    0.0000 C   0  0  0  0  0  0  0  0  0  0  0  0
  -10.7171    7.3125    0.0000 C   0  0  0  0  0  0  0  0  0  0  0  0
   -9.4180    5.0625    0.0000 C   0  0  0  0  0  0  0  0  0  0  0  0
   -5.5209    8.8125    0.0000 C   0  0  0  0  0  0  0  0  0  0  0  0
    2.2733    7.3125    0.0000 C   0  0  0  0  0  0  0  0  0  0  0  0
    0.9743    6.5625    0.0000 C   0  0  0  0  0  0  0  0  0  0  0  0
   -0.3248    7.3125    0.0000 C   0  0  0  0  0  0  0  0  0  0  0  0
   -1.6238    6.5625    0.0000 C   0  0  0  0  0  0  0  0  0  0  0  0
   -2.9228    7.3125    0.0000 C   0  0  0  0  0  0  0  0  0  0  0  0
   -8.1190    7.3125    0.0000 C   0  0  0  0  0  0  0  0  0  0  0  0
   -9.4180    6.5625    0.0000 C   0  0  0  0  0  0  0  0  0  0  0  0
   -5.5209    7.3125    0.0000 C   0  0  0  0  0  0  0  0  0  0  0  0
   -4.2219    6.5625    0.0000 O   0  0  0  0  0  0  0  0  0  0  0  0
   -6.8200    6.5625    0.0000 O   0  0  0  0  0  0  0  0  0  0  0  0
  5  1  1  0
  6  5  1  0
  7  6  1  0
  8  7  1  0
  9  8  1  0
 11  2  1  0
 11  3  1  0
 11 10  1  0
 12  4  1  0
 13  9  1  0
 13 12  1  0
 14 10  1  0
 14 12  1  0
M  END
>  <NAME>  (2357) 
ACETALDEHYDE HEXYL ISOBUTYL ACETAL

>  <SYNONYMS>  (2357) 
ACETALDEHYDE HEXYL 2-METHYLPROPYL ACETAL

>  <SPECTRUM TYPE>  (2357) 
MS1

>  <INSTRUMENT TYPE>  (2357) 
EI-B

>  <INSTRUMENT>  (2357) 
HITACHI M-80B

>  <ION MODE>  (2357) 
P

>  <INCHIKEY>  (2357) 
IXOVHJJQWYROLC-UHFFFAOYSA-N

>  <FORMULA>  (2357) 
C12H26O2

>  <EXACT MASS>  (2357) 
202.193280072

>  <MW>  (2357) 
202

>  <ID>  (2357) 
JP008652

>  <CONTRIBUTOR>  (2357) 
University of Tokyo Team, {Faculty of Engineering, University of Tokyo

>  <COMMENT>  (2357) 
SMILES=CCCCCCOC(C)OCC(C)C
InChI=InChI=1S/C12H26O2/c1-5-6-7-8-9-13-12(4)14-10-11(2)3/h11-12H,5-10H2,1-4H3
computed SMILES=O(CCCCCC)C(OCC(C)C)C
accession=JP008652
date=2016.01.19 (Created 2008.10.21, modified 2011.05.06)
author=SODA AROMATIC CO., LTD.
license=CC BY-NC-SA
exact mass=202.19328
ionization energy=70 eV
ion type=[M]+*
computed spectral entropy=2.7360671506932146
computed normalized entropy=0.7758897967447701
SPLASH=splash10-054o-9100000000-21121da3b58b3be9e0c9
submitter=submitter = University of Tokyo Team (Faculty of Engineering, University of Tokyo)
MoNA Rating=3.75

>  <NUM PEAKS>  (2357) 
34

>  <MASS SPECTRAL PEAKS>  (2357) 
15 1.65
26 1.05
27 17.19
29 28.89
31 9.93
33 2.45
39 12.11
41 49.38
42 14.61
43 84.83
44 4.95
45 37.45
53 1.41
55 14.41
56 25.13
57 99.99
58 5.08
59 1.31
61 1.19
69 4.08
71 1.39
82 1.48
83 2.26
84 1.93
85 66.31
86 3.61
101 43.26
102 2.82
103 1.03
113 1.62
129 42.01
130 3.16
131 2.08
187 4.77

>  <PREDICTED SPECTRUM>  (2357) 
14 9
15 61
19 4
26 65
27 293
28 96
29 448
31 207
39 269
40 56
41 620
42 287
43 740
44 244
45 685
46 30
53 84
54 58
55 273
56 385
57 999
58 193
59 86
60 7
67 85
69 135
71 152
72 144
73 227
74 79
83 210
84 137
85 539
86 131
100 44
101 350
102 7
103 112
115 95
117 7
127 73
128 46
129 717
130 227
131 69
143 14
145 132
187 331
188 54

$$$$

     RDKit          2D

 13 12  0  0  0  0  0  0  0  0999 V2000
    3.2476    4.8750    0.0000 C   0  0  0  0  0  0  0  0  0  0  0  0
    1.9486    7.1250    0.0000 C   0  0  0  0  0  0  0  0  0  0  0  0
   -8.4437    5.6250    0.0000 C   0  0  0  0  0  0  0  0  0  0  0  0
   -7.1447    3.3750    0.0000 C   0  0  0  0  0  0  0  0  0  0  0  0
   -3.2476    7.1250    0.0000 C   0  0  0  0  0  0  0  0  0  0  0  0
    0.6495    4.8750    0.0000 C   0  0  0  0  0  0  0  0  0  0  0  0
   -0.6495    5.6250    0.0000 C   0  0  0  0  0  0  0  0  0  0  0  0
   -5.8457    5.6250    0.0000 C   0  0  0  0  0  0  0  0  0  0  0  0
    1.9486    5.6250    0.0000 C   0  0  0  0  0  0  0  0  0  0  0  0
   -7.1447    4.8750    0.0000 C   0  0  0  0  0  0  0  0  0  0  0  0
   -3.2476    5.6250    0.0000 C   0  0  0  0  0  0  0  0  0  0  0  0
   -1.9486    4.8750    0.0000 O   0  0  0  0  0  0  0  0  0  0  0  0
   -4.5466    4.8750    0.0000 O   0  0  0  0  0  0  0  0  0  0  0  0
  7  6  1  0
  9  1  1  0
  9  2  1  0
  9  6  1  0
 10  3  1  0
 10  4  1  0
 10  8  1  0
 11  5  1  0
 12  7  1  0
 12 11  1  0
 13  8  1  0
 13 11  1  0
M  END
>  <NAME>  (2358) 
ACETALDEHYDE ISOAMYL ISOBUTYL ACETAL

>  <SYNONYMS>  (2358) 
ACETALDEHYDE 3-METHYLBUTYL 2-METHYLPROPYLACETAL

>  <SPECTRUM TYPE>  (2358) 
MS1

>  <INSTRUMENT TYPE>  (2358) 
EI-B

>  <INSTRUMENT>  (2358) 
HITACHI M-80B

>  <ION MODE>  (2358) 
P

>  <INCHIKEY>  (2358) 
PFGKDSOUFDQBLI-UHFFFAOYSA-N

>  <FORMULA>  (2358) 
C11H24O2

>  <EXACT MASS>  (2358) 
188.177630008

>  <MW>  (2358) 
188

>  <ID>  (2358) 
JP008651

>  <CONTRIBUTOR>  (2358) 
University of Tokyo Team, {Faculty of Engineering, University of Tokyo

>  <COMMENT>  (2358) 
SMILES=CC(C)CCOC(C)OCC(C)C
InChI=InChI=1S/C11H24O2/c1-9(2)6-7-12-11(5)13-8-10(3)4/h9-11H,6-8H2,1-5H3
computed SMILES=O(CCC(C)C)C(OCC(C)C)C
accession=JP008651
date=2016.01.19 (Created 2008.10.21, modified 2011.05.06)
author=SODA AROMATIC CO., LTD.
license=CC BY-NC-SA
exact mass=188.17763
ionization energy=70 eV
ion type=[M]+*
computed spectral entropy=2.6838806910399797
computed normalized entropy=0.7744042726602046
SPLASH=splash10-0596-9200000000-7a2ede783e3fc5f38233
submitter=submitter = University of Tokyo Team (Faculty of Engineering, University of Tokyo)
MoNA Rating=3.75

>  <NUM PEAKS>  (2358) 
32

>  <MASS SPECTRAL PEAKS>  (2358) 
15 2.12
26 1.3
27 17.12
29 25.58
31 6.81
33 2
39 13.65
41 44.47
42 12.47
43 81.56
44 5.26
45 35.67
46 1.02
53 1.98
55 18.49
56 12.19
57 96.77
58 6.05
59 1.16
69 1.05
70 6.34
71 99.99
72 5.64
83 1.42
99 1.23
100 1.15
101 46.15
102 2.5
115 55.53
116 3.78
117 2.63
173 8.06

>  <PREDICTED SPECTRUM>  (2358) 
14 17
15 86
26 67
27 319
28 147
29 418
30 45
31 142
39 272
40 55
41 595
42 253
43 785
44 190
45 426
46 7
53 79
54 60
55 238
56 287
57 807
58 103
59 142
60 4
65 15
67 5
69 48
70 138
71 999
72 311
73 12
87 124
89 51
100 39
101 615
102 113
103 36
113 27
114 86
115 669
116 213
117 148
130 1
145 0
173 300
174 47

$$$$

     RDKit          2D

 16 15  0  0  0  0  0  0  0  0999 V2000
    3.8971    6.7500    0.0000 C   0  0  0  0  0  0  0  0  0  0  0  0
  -11.6913    6.7500    0.0000 C   0  0  0  0  0  0  0  0  0  0  0  0
   -6.4952   11.2500    0.0000 C   0  0  0  0  0  0  0  0  0  0  0  0
    2.5981    7.5000    0.0000 C   0  0  0  0  0  0  0  0  0  0  0  0
  -10.3923    7.5000    0.0000 C   0  0  0  0  0  0  0  0  0  0  0  0
   -6.4952    9.7500    0.0000 C   0  0  0  0  0  0  0  0  0  0  0  0
    1.2990    6.7500    0.0000 C   0  0  0  0  0  0  0  0  0  0  0  0
   -9.0933    6.7500    0.0000 C   0  0  0  0  0  0  0  0  0  0  0  0
    0.0000    7.5000    0.0000 C   0  0  0  0  0  0  0  0  0  0  0  0
   -7.7942    7.5000    0.0000 C   0  0  0  0  0  0  0  0  0  0  0  0
   -1.2990    6.7500    0.0000 C   0  0  0  0  0  0  0  0  0  0  0  0
   -6.4952    6.7500    0.0000 C   0  0  0  0  0  0  0  0  0  0  0  0
   -2.5981    7.5000    0.0000 C   0  0  0  0  0  0  0  0  0  0  0  0
   -5.1962    7.5000    0.0000 C   0  0  0  0  0  0  0  0  0  0  0  0
   -5.1962    9.0000    0.0000 O   0  0  0  0  0  0  0  0  0  0  0  0
   -3.8971    6.7500    0.0000 O   0  0  0  0  0  0  0  0  0  0  0  0
  4  1  1  0
  5  2  1  0
  6  3  1  0
  7  4  1  0
  8  5  1  0
  9  7  1  0
 10  8  1  0
 11  9  1  0
 12 10  1  0
 13 11  1  0
 14 12  1  0
 15  6  1  0
 15 14  1  0
 16 13  1  0
 16 14  1  0
M  END
>  <NAME>  (2359) 
HEXANAL ETHYL HEXYL ACETAL

>  <SYNONYMS>  (2359) 


>  <SPECTRUM TYPE>  (2359) 
MS1

>  <INSTRUMENT TYPE>  (2359) 
EI-B

>  <INSTRUMENT>  (2359) 
HITACHI M-80B

>  <ION MODE>  (2359) 
P

>  <INCHIKEY>  (2359) 
DQPCKTBYQXJOFX-UHFFFAOYSA-N

>  <FORMULA>  (2359) 
C14H30O2

>  <EXACT MASS>  (2359) 
230.2245802

>  <MW>  (2359) 
230

>  <ID>  (2359) 
JP008650

>  <CONTRIBUTOR>  (2359) 
University of Tokyo Team, {Faculty of Engineering, University of Tokyo

>  <COMMENT>  (2359) 
SMILES=CCCCCCOC(OCC)CCCCC
InChI=InChI=1S/C14H30O2/c1-4-7-9-11-13-16-14(15-6-3)12-10-8-5-2/h14H,4-13H2,1-3H3
computed SMILES=O(CC)C(OCCCCCC)CCCCC
accession=JP008650
date=2016.01.19 (Created 2008.10.21, modified 2011.05.06)
author=SODA AROMATIC CO., LTD.
license=CC BY-NC-SA
exact mass=230.22458
ionization energy=70 eV
ion type=[M]+*
computed spectral entropy=2.9316656089791406
computed normalized entropy=0.8002228137955003
SPLASH=splash10-004l-9100000000-c8b2afb69f5145e80c63
submitter=submitter = University of Tokyo Team (Faculty of Engineering, University of Tokyo)
MoNA Rating=3.75

>  <NUM PEAKS>  (2359) 
39

>  <MASS SPECTRAL PEAKS>  (2359) 
27 18.91
29 30.55
31 9.14
39 7.88
41 36.56
42 11.55
43 92.4
44 7
45 3.94
47 24.95
53 1.76
54 1.02
55 32.36
56 14
57 37.77
58 2.39
59 3.21
67 2.19
69 2.76
71 3.88
72 2.8
75 99.99
76 2.84
81 1.05
82 5.19
83 31.8
84 2.76
85 25.4
86 1.53
99 1.64
100 1.3
101 9.91
128 1.71
129 47.28
130 3.49
159 22.29
160 1.97
184 1.2
185 4.44

>  <PREDICTED SPECTRUM>  (2359) 
26 64
27 403
28 123
29 571
30 43
31 244
33 21
39 287
40 45
41 643
42 280
43 804
44 65
45 43
46 52
47 480
48 3
53 137
54 95
55 622
56 342
57 575
58 187
59 172
67 148
68 2
69 139
70 24
71 316
72 135
75 999
76 164
77 20
79 0
81 82
82 101
83 678
84 162
85 619
86 196
87 42
98 0
99 192
100 167
101 546
113 50
115 45
128 41
129 957
130 126
131 86
143 29
145 26
159 483
160 93
185 233
201 36

$$$$

     RDKit          2D

 12 11  0  0  0  0  0  0  0  0999 V2000
    3.2476    5.6250    0.0000 C   0  0  0  0  0  0  0  0  0  0  0  0
   -9.7428    5.6250    0.0000 C   0  0  0  0  0  0  0  0  0  0  0  0
   -5.8457    7.8750    0.0000 C   0  0  0  0  0  0  0  0  0  0  0  0
    1.9486    6.3750    0.0000 C   0  0  0  0  0  0  0  0  0  0  0  0
   -8.4437    6.3750    0.0000 C   0  0  0  0  0  0  0  0  0  0  0  0
    0.6495    5.6250    0.0000 C   0  0  0  0  0  0  0  0  0  0  0  0
   -0.6495    6.3750    0.0000 C   0  0  0  0  0  0  0  0  0  0  0  0
   -1.9486    5.6250    0.0000 C   0  0  0  0  0  0  0  0  0  0  0  0
   -3.2476    6.3750    0.0000 C   0  0  0  0  0  0  0  0  0  0  0  0
   -5.8457    6.3750    0.0000 C   0  0  0  0  0  0  0  0  0  0  0  0
   -7.1447    5.6250    0.0000 O   0  0  0  0  0  0  0  0  0  0  0  0
   -4.5466    5.6250    0.0000 O   0  0  0  0  0  0  0  0  0  0  0  0
  4  1  1  0
  5  2  1  0
  6  4  1  0
  7  6  1  0
  8  7  1  0
  9  8  1  0
 10  3  1  0
 11  5  1  0
 11 10  1  0
 12  9  1  0
 12 10  1  0
M  END
>  <NAME>  (2360) 
ACETALDEHYDE ETHYL HEXYL ACETAL

>  <SYNONYMS>  (2360) 


>  <SPECTRUM TYPE>  (2360) 
MS1

>  <INSTRUMENT TYPE>  (2360) 
EI-B

>  <INSTRUMENT>  (2360) 
HITACHI M-80B

>  <ION MODE>  (2360) 
P

>  <INCHIKEY>  (2360) 
YJYLJPSYBMNHTG-UHFFFAOYSA-N

>  <FORMULA>  (2360) 
C10H22O2

>  <EXACT MASS>  (2360) 
174.161979944

>  <MW>  (2360) 
174

>  <ID>  (2360) 
JP008649

>  <CONTRIBUTOR>  (2360) 
University of Tokyo Team, {Faculty of Engineering, University of Tokyo

>  <COMMENT>  (2360) 
SMILES=CCCCCCOC(C)OCC
InChI=InChI=1S/C10H22O2/c1-4-6-7-8-9-12-10(3)11-5-2/h10H,4-9H2,1-3H3
computed SMILES=O(CC)C(OCCCCCC)C
accession=JP008649
date=2016.01.19 (Created 2008.10.21, modified 2011.05.06)
author=SODA AROMATIC CO., LTD.
license=CC BY-NC-SA
exact mass=174.16198
ionization energy=70 eV
ion type=[M]+*
computed spectral entropy=2.5991688175814582
computed normalized entropy=0.7718860916333267
SPLASH=splash10-00fv-9000000000-1d0c7482cc053b1dc6fd
submitter=submitter = University of Tokyo Team (Faculty of Engineering, University of Tokyo)
MoNA Rating=3.75

>  <NUM PEAKS>  (2360) 
29

>  <MASS SPECTRAL PEAKS>  (2360) 
15 1.69
26 1.06
27 13.81
29 17.18
31 5.22
39 4.05
41 18.09
42 7.11
43 53.66
44 7.65
45 62.24
46 1.72
47 5.55
55 8.72
56 9.46
57 6.43
61 1.59
69 2.6
72 2.48
73 99.99
74 3.95
75 20.98
84 1.19
85 23.92
86 1.47
103 1.08
113 1.34
129 9.47
159 9.25

>  <PREDICTED SPECTRUM>  (2360) 
14 24
15 76
16 3
19 34
25 12
26 94
27 341
28 147
29 438
30 117
31 335
32 17
33 12
37 9
38 36
39 249
40 101
41 383
42 235
43 538
44 295
45 868
46 137
47 228
53 78
54 68
55 415
56 281
57 356
58 121
59 113
60 8
61 88
67 34
69 47
71 79
72 166
73 999
74 244
75 346
76 58
82 19
83 163
84 175
85 379
86 91
87 55
99 20
101 111
102 23
103 51
113 110
115 24
120 2
128 33
129 315
130 57
131 31
157 46
159 406
160 107

$$$$

     RDKit          2D

 12 11  0  0  0  0  0  0  0  0999 V2000
    3.2476    5.6250    0.0000 C   0  0  0  0  0  0  0  0  0  0  0  0
   -9.7428    5.6250    0.0000 C   0  0  0  0  0  0  0  0  0  0  0  0
   -5.8457    7.8750    0.0000 C   0  0  0  0  0  0  0  0  0  0  0  0
    1.9486    6.3750    0.0000 C   0  0  0  0  0  0  0  0  0  0  0  0
   -8.4437    6.3750    0.0000 C   0  0  0  0  0  0  0  0  0  0  0  0
    0.6495    5.6250    0.0000 C   0  0  0  0  0  0  0  0  0  0  0  0
   -0.6495    6.3750    0.0000 C   0  0  0  0  0  0  0  0  0  0  0  0
   -1.9486    5.6250    0.0000 C   0  0  0  0  0  0  0  0  0  0  0  0
   -3.2476    6.3750    0.0000 C   0  0  0  0  0  0  0  0  0  0  0  0
   -5.8457    6.3750    0.0000 C   0  0  0  0  0  0  0  0  0  0  0  0
   -7.1447    5.6250    0.0000 O   0  0  0  0  0  0  0  0  0  0  0  0
   -4.5466    5.6250    0.0000 O   0  0  0  0  0  0  0  0  0  0  0  0
  4  1  1  0
  5  2  1  0
  6  4  1  0
  6  7  2  0
  8  7  1  0
  9  8  1  0
 10  3  1  0
 11  5  1  0
 11 10  1  0
 12  9  1  0
 12 10  1  0
M  END
>  <NAME>  (2361) 
1-ETHOXY-1-(TRANS-3-HEXENYLOXY)ETHANE

>  <SYNONYMS>  (2361) 
ACETALDEHYDE ETHYL TRANS-3-HEXENYL ACETAL

>  <SPECTRUM TYPE>  (2361) 
MS1

>  <INSTRUMENT TYPE>  (2361) 
EI-B

>  <INSTRUMENT>  (2361) 
HITACHI M-80B

>  <ION MODE>  (2361) 
P

>  <INCHIKEY>  (2361) 
PAEBAEDUARAOSG-VOTSOKGWSA-N

>  <FORMULA>  (2361) 
C10H20O2

>  <EXACT MASS>  (2361) 
172.14632988

>  <MW>  (2361) 
172

>  <ID>  (2361) 
JP008648

>  <CONTRIBUTOR>  (2361) 
University of Tokyo Team, {Faculty of Engineering, University of Tokyo

>  <COMMENT>  (2361) 
SMILES=CCOC(C)OCCC([H])=C([H])CC
InChI=InChI=1S/C10H20O2/c1-4-6-7-8-9-12-10(3)11-5-2/h6-7,10H,4-5,8-9H2,1-3H3/b7-6+
computed SMILES=O(CC)C(OCCC=CCC)C
accession=JP008648
date=2016.01.19 (Created 2008.10.21, modified 2011.05.06)
author=SODA AROMATIC CO., LTD.
license=CC BY-NC-SA
exact mass=172.14633
ionization energy=70 eV
ion type=[M]+*
computed spectral entropy=2.448414598027162
computed normalized entropy=0.7271159772252612
SPLASH=splash10-00dj-9000000000-6cf806fbe71972cdc865
submitter=submitter = University of Tokyo Team (Faculty of Engineering, University of Tokyo)
MoNA Rating=3.75

>  <NUM PEAKS>  (2361) 
29

>  <MASS SPECTRAL PEAKS>  (2361) 
15 2.1
26 1.01
27 12.44
29 13.15
31 6.21
39 9.21
41 24.74
42 2.56
43 9.91
44 5.42
45 77.24
46 1.6
53 2.99
54 2.2
55 30.68
56 2.09
57 1.1
67 9
69 2.18
70 2.32
72 1.77
73 99.99
74 3.32
82 5.44
83 21.79
84 1.31
89 2.38
103 3.13
127 1.55

>  <PREDICTED SPECTRUM>  (2361) 
19 22
25 2
26 85
27 368
28 126
29 461
30 27
31 299
32 12
37 8
38 40
39 328
40 135
41 516
42 174
43 459
44 369
45 818
46 103
47 275
50 5
51 29
52 27
53 236
54 295
55 620
56 79
57 188
59 82
60 47
65 30
66 24
67 518
69 55
72 372
73 999
74 144
75 51
81 224
82 454
83 753
84 184
85 141
91 36
99 108
100 33
101 100
113 16
126 39
127 179
128 81

$$$$

     RDKit          2D

 15 14  0  0  0  0  0  0  0  0999 V2000
   -0.6495    0.3750    0.0000 C   0  0  0  0  0  0  0  0  0  0  0  0
   -9.7428    5.6250    0.0000 C   0  0  0  0  0  0  0  0  0  0  0  0
    3.2476    5.6250    0.0000 C   0  0  0  0  0  0  0  0  0  0  0  0
   -1.9486    1.1250    0.0000 C   0  0  0  0  0  0  0  0  0  0  0  0
   -8.4437    4.8750    0.0000 C   0  0  0  0  0  0  0  0  0  0  0  0
    1.9486    4.8750    0.0000 C   0  0  0  0  0  0  0  0  0  0  0  0
   -1.9486    2.6250    0.0000 C   0  0  0  0  0  0  0  0  0  0  0  0
   -7.1447    5.6250    0.0000 C   0  0  0  0  0  0  0  0  0  0  0  0
    0.6495    5.6250    0.0000 C   0  0  0  0  0  0  0  0  0  0  0  0
   -3.2476    3.3750    0.0000 C   0  0  0  0  0  0  0  0  0  0  0  0
   -5.8457    4.8750    0.0000 C   0  0  0  0  0  0  0  0  0  0  0  0
   -0.6495    4.8750    0.0000 C   0  0  0  0  0  0  0  0  0  0  0  0
   -3.2476    4.8750    0.0000 C   0  0  0  0  0  0  0  0  0  0  0  0
   -4.5466    5.6250    0.0000 O   0  0  0  0  0  0  0  0  0  0  0  0
   -1.9486    5.6250    0.0000 O   0  0  0  0  0  0  0  0  0  0  0  0
  4  1  1  0
  5  2  1  0
  6  3  1  0
  7  4  1  0
  8  5  1  0
  9  6  1  0
 10  7  1  0
 11  8  1  0
 12  9  1  0
 13 10  1  0
 14 11  1  0
 14 13  1  0
 15 12  1  0
 15 13  1  0
M  END
>  <NAME>  (2362) 
VALERALDEHYDE DIBUTYL ACETAL

>  <SYNONYMS>  (2362) 
PENTANAL DIBUTYL ACETAL

>  <SPECTRUM TYPE>  (2362) 
MS1

>  <INSTRUMENT TYPE>  (2362) 
EI-B

>  <INSTRUMENT>  (2362) 
HITACHI M-80B

>  <ION MODE>  (2362) 
P

>  <INCHIKEY>  (2362) 
LDJYPEMHNQONGS-UHFFFAOYSA-N

>  <FORMULA>  (2362) 
C13H28O2

>  <EXACT MASS>  (2362) 
216.208930136

>  <MW>  (2362) 
216

>  <ID>  (2362) 
JP008647

>  <CONTRIBUTOR>  (2362) 
University of Tokyo Team, {Faculty of Engineering, University of Tokyo

>  <COMMENT>  (2362) 
SMILES=CCCCOC(CCCC)OCCCC
InChI=InChI=1S/C13H28O2/c1-4-7-10-13(14-11-8-5-2)15-12-9-6-3/h13H,4-12H2,1-3H3
computed SMILES=O(CCCC)C(OCCCC)CCCC
accession=JP008647
date=2016.01.19 (Created 2008.10.21, modified 2011.05.06)
author=SODA AROMATIC CO., LTD.
license=CC BY-NC-SA
exact mass=216.20893
ionization energy=70 eV
ion type=[M]+*
computed spectral entropy=2.433873709598399
computed normalized entropy=0.7658377861182826
SPLASH=splash10-0a4l-9200000000-ff04dd88736c97af0a14
submitter=submitter = University of Tokyo Team (Faculty of Engineering, University of Tokyo)
MoNA Rating=3.75

>  <NUM PEAKS>  (2362) 
24

>  <MASS SPECTRAL PEAKS>  (2362) 
27 8.26
29 28.07
31 2.76
39 3.68
41 30.69
42 2.33
43 5.55
44 2.15
45 2.04
47 1.34
55 4.16
56 5.9
57 99.99
58 5.07
69 29.43
70 1.58
85 1.48
87 34.6
88 1.8
103 18.09
143 31.36
144 2.74
159 15.8
160 1.42

>  <PREDICTED SPECTRUM>  (2362) 
27 145
28 40
29 247
30 45
31 110
33 1
39 270
40 106
41 695
42 229
43 357
44 24
45 119
47 89
53 25
55 254
56 356
57 999
58 188
59 12
67 17
69 182
70 11
71 58
85 110
86 76
87 582
88 124
102 16
103 204
104 16
117 16
143 614
144 185
159 319
173 27

$$$$

     RDKit          2D

 11 10  0  0  0  0  0  0  0  0999 V2000
    2.5981    4.5000    0.0000 C   0  0  0  0  0  0  0  0  0  0  0  0
   -7.7942    4.5000    0.0000 C   0  0  0  0  0  0  0  0  0  0  0  0
   -6.4952    6.7500    0.0000 C   0  0  0  0  0  0  0  0  0  0  0  0
   -1.2990    6.7500    0.0000 C   0  0  0  0  0  0  0  0  0  0  0  0
    1.2990    5.2500    0.0000 C   0  0  0  0  0  0  0  0  0  0  0  0
   -5.1962    4.5000    0.0000 C   0  0  0  0  0  0  0  0  0  0  0  0
   -3.8971    5.2500    0.0000 C   0  0  0  0  0  0  0  0  0  0  0  0
   -6.4952    5.2500    0.0000 C   0  0  0  0  0  0  0  0  0  0  0  0
   -1.2990    5.2500    0.0000 C   0  0  0  0  0  0  0  0  0  0  0  0
    0.0000    4.5000    0.0000 O   0  0  0  0  0  0  0  0  0  0  0  0
   -2.5981    4.5000    0.0000 O   0  0  0  0  0  0  0  0  0  0  0  0
  5  1  1  0
  7  6  1  0
  8  2  1  0
  8  3  1  0
  8  6  1  0
  9  4  1  0
 10  5  1  0
 10  9  1  0
 11  7  1  0
 11  9  1  0
M  END
>  <NAME>  (2363) 
ACETALDEHYDE ETHYL ISOAMYL ACETAL

>  <SYNONYMS>  (2363) 
ACETALDEHYDE ETHYL 3-METHYLBUTYL ACETAL

>  <SPECTRUM TYPE>  (2363) 
MS1

>  <INSTRUMENT TYPE>  (2363) 
EI-B

>  <INSTRUMENT>  (2363) 
HITACHI M-80B

>  <ION MODE>  (2363) 
P

>  <INCHIKEY>  (2363) 
RGNYZOOSNYMRQE-UHFFFAOYSA-N

>  <FORMULA>  (2363) 
C9H20O2

>  <EXACT MASS>  (2363) 
160.14632988

>  <MW>  (2363) 
160

>  <ID>  (2363) 
JP008646

>  <CONTRIBUTOR>  (2363) 
University of Tokyo Team, {Faculty of Engineering, University of Tokyo

>  <COMMENT>  (2363) 
SMILES=CCOC(C)OCCC(C)C
InChI=InChI=1S/C9H20O2/c1-5-10-9(4)11-7-6-8(2)3/h8-9H,5-7H2,1-4H3
computed SMILES=O(CC)C(OCCC(C)C)C
accession=JP008646
date=2016.01.19 (Created 2008.10.21, modified 2011.05.06)
author=SODA AROMATIC CO., LTD.
license=CC BY-NC-SA
exact mass=160.14633
ionization energy=70 eV
ion type=[M]+*
computed spectral entropy=2.454841771570064
computed normalized entropy=0.7448310918817301
SPLASH=splash10-00dj-9000000000-c6b8b96d0fecd87e6509
submitter=submitter = University of Tokyo Team (Faculty of Engineering, University of Tokyo)
MoNA Rating=3.75

>  <NUM PEAKS>  (2363) 
27

>  <MASS SPECTRAL PEAKS>  (2363) 
15 2.49
26 1.22
27 16.37
29 17.64
31 8.27
39 6.54
41 17.34
42 4.48
43 59.17
44 8.81
45 78.01
46 1.81
47 3.38
53 1.15
55 12.23
56 1.1
57 1.37
61 1.44
69 1.01
70 3.47
71 53.05
72 3.94
73 99.99
74 3.27
75 3.7
115 10.12
145 10.18

>  <PREDICTED SPECTRUM>  (2363) 
14 52
15 137
16 20
17 1
19 38
25 19
26 153
27 511
28 161
29 516
31 335
32 3
33 4
38 18
39 321
40 86
41 470
42 302
43 803
44 352
45 967
46 40
47 179
53 82
54 14
55 410
56 116
57 85
60 56
61 88
69 106
70 145
71 891
72 381
73 999
74 120
75 12
87 6
88 16
101 45
115 454
116 119
117 35
143 4
145 370
146 44

$$$$

     RDKit          2D

 16 15  0  0  0  0  0  0  0  0999 V2000
    3.8971    6.0000    0.0000 C   0  0  0  0  0  0  0  0  0  0  0  0
  -10.3923    6.7500    0.0000 C   0  0  0  0  0  0  0  0  0  0  0  0
   -7.7942   11.2500    0.0000 C   0  0  0  0  0  0  0  0  0  0  0  0
    2.5981    6.7500    0.0000 C   0  0  0  0  0  0  0  0  0  0  0  0
   -9.0933    6.0000    0.0000 C   0  0  0  0  0  0  0  0  0  0  0  0
   -6.4952   10.5000    0.0000 C   0  0  0  0  0  0  0  0  0  0  0  0
    1.2990    6.0000    0.0000 C   0  0  0  0  0  0  0  0  0  0  0  0
    0.0000    6.7500    0.0000 C   0  0  0  0  0  0  0  0  0  0  0  0
   -1.2990    6.0000    0.0000 C   0  0  0  0  0  0  0  0  0  0  0  0
   -2.5981    6.7500    0.0000 C   0  0  0  0  0  0  0  0  0  0  0  0
   -3.8971    6.0000    0.0000 C   0  0  0  0  0  0  0  0  0  0  0  0
   -7.7942    6.7500    0.0000 C   0  0  0  0  0  0  0  0  0  0  0  0
   -6.4952    9.0000    0.0000 C   0  0  0  0  0  0  0  0  0  0  0  0
   -5.1962    6.7500    0.0000 C   0  0  0  0  0  0  0  0  0  0  0  0
   -6.4952    6.0000    0.0000 O   0  0  0  0  0  0  0  0  0  0  0  0
   -5.1962    8.2500    0.0000 O   0  0  0  0  0  0  0  0  0  0  0  0
  4  1  1  0
  5  2  2  0
  6  3  2  0
  7  4  1  0
  8  7  1  0
  9  8  1  0
 10  9  1  0
 11 10  1  0
 12  5  1  0
 13  6  1  0
 14 11  1  0
 15 12  1  0
 15 14  1  0
 16 13  1  0
 16 14  1  0
M  END
>  <NAME>  (2364) 
OCTANAL DIALLYL ACETAL

>  <SYNONYMS>  (2364) 


>  <SPECTRUM TYPE>  (2364) 
MS1

>  <INSTRUMENT TYPE>  (2364) 
EI-B

>  <INSTRUMENT>  (2364) 
HITACHI M-80B

>  <ION MODE>  (2364) 
P

>  <INCHIKEY>  (2364) 
GPLKLPLXSJSSJE-UHFFFAOYSA-N

>  <FORMULA>  (2364) 
C14H26O2

>  <EXACT MASS>  (2364) 
226.193280072

>  <MW>  (2364) 
226

>  <ID>  (2364) 
JP008645

>  <CONTRIBUTOR>  (2364) 
University of Tokyo Team, {Faculty of Engineering, University of Tokyo

>  <COMMENT>  (2364) 
SMILES=CCCCCCCC(OCC=C)OCC=C
InChI=InChI=1S/C14H26O2/c1-4-7-8-9-10-11-14(15-12-5-2)16-13-6-3/h5-6,14H,2-4,7-13H2,1H3
computed SMILES=O(CC=C)C(OCC=C)CCCCCCC
accession=JP008645
date=2016.01.19 (Created 2008.10.21, modified 2011.05.06)
author=SODA AROMATIC CO., LTD.
license=CC BY-NC-SA
exact mass=226.19328
ionization energy=70 eV
ion type=[M]+*
computed spectral entropy=2.6312344827966805
computed normalized entropy=0.7525321872014219
SPLASH=splash10-002f-9200000000-a7e283353a85169fc51c
submitter=submitter = University of Tokyo Team (Faculty of Engineering, University of Tokyo)
MoNA Rating=3.75

>  <NUM PEAKS>  (2364) 
33

>  <MASS SPECTRAL PEAKS>  (2364) 
27 9.76
29 12.96
31 2.23
39 14.75
41 99.99
42 7.38
43 14.13
44 1.52
53 1.54
54 1.24
55 19.07
56 2.89
57 23.31
58 1.55
59 1.23
67 6.88
68 1.26
69 5.45
70 1.06
71 2.36
79 1.29
81 45.31
82 3.47
83 3.81
84 2.49
85 1.16
97 3.69
109 8.54
111 1.06
127 45.67
128 3
169 12.17
170 1.18

>  <PREDICTED SPECTRUM>  (2364) 
26 3
27 158
28 66
29 219
31 45
37 29
38 7
39 401
40 109
41 999
42 283
43 401
44 135
45 63
53 139
54 178
55 521
56 255
57 565
67 293
68 74
69 154
70 51
71 129
79 62
80 1
81 455
82 198
83 335
84 126
85 140
95 19
96 1
97 75
98 21
99 43
100 6
109 129
110 0
111 133
125 57
126 20
127 356
128 186
129 105
141 24
167 18
168 50
169 293
170 68

$$$$

     RDKit          2D

 14 13  0  0  0  0  0  0  0  0999 V2000
    3.2476    5.6250    0.0000 C   0  0  0  0  0  0  0  0  0  0  0  0
   -9.7428    5.6250    0.0000 C   0  0  0  0  0  0  0  0  0  0  0  0
   -7.1447   10.1250    0.0000 C   0  0  0  0  0  0  0  0  0  0  0  0
    1.9486    6.3750    0.0000 C   0  0  0  0  0  0  0  0  0  0  0  0
   -8.4437    6.3750    0.0000 C   0  0  0  0  0  0  0  0  0  0  0  0
   -7.1447    8.6250    0.0000 C   0  0  0  0  0  0  0  0  0  0  0  0
    0.6495    5.6250    0.0000 C   0  0  0  0  0  0  0  0  0  0  0  0
   -0.6495    6.3750    0.0000 C   0  0  0  0  0  0  0  0  0  0  0  0
   -1.9486    5.6250    0.0000 C   0  0  0  0  0  0  0  0  0  0  0  0
   -3.2476    6.3750    0.0000 C   0  0  0  0  0  0  0  0  0  0  0  0
   -4.5466    5.6250    0.0000 C   0  0  0  0  0  0  0  0  0  0  0  0
   -5.8457    6.3750    0.0000 C   0  0  0  0  0  0  0  0  0  0  0  0
   -7.1447    5.6250    0.0000 O   0  0  0  0  0  0  0  0  0  0  0  0
   -5.8457    7.8750    0.0000 O   0  0  0  0  0  0  0  0  0  0  0  0
  4  1  1  0
  5  2  1  0
  6  3  1  0
  7  4  1  0
  8  7  1  0
  9  8  1  0
 10  9  1  0
 11 10  1  0
 12 11  1  0
 13  5  1  0
 13 12  1  0
 14  6  1  0
 14 12  1  0
M  END
>  <NAME>  (2365) 
OCTANAL DIETHYL ACETAL

>  <SYNONYMS>  (2365) 


>  <SPECTRUM TYPE>  (2365) 
MS1

>  <INSTRUMENT TYPE>  (2365) 
EI-B

>  <INSTRUMENT>  (2365) 
HITACHI M-80B

>  <ION MODE>  (2365) 
P

>  <INCHIKEY>  (2365) 
BRKIPAWFUDCCOO-UHFFFAOYSA-N

>  <FORMULA>  (2365) 
C12H26O2

>  <EXACT MASS>  (2365) 
202.193280072

>  <MW>  (2365) 
202

>  <ID>  (2365) 
JP008644

>  <CONTRIBUTOR>  (2365) 
University of Tokyo Team, {Faculty of Engineering, University of Tokyo

>  <COMMENT>  (2365) 
SMILES=CCCCCCCC(OCC)OCC
InChI=InChI=1S/C12H26O2/c1-4-7-8-9-10-11-12(13-5-2)14-6-3/h12H,4-11H2,1-3H3
computed SMILES=O(CC)C(OCC)CCCCCCC
accession=JP008644
date=2016.01.19 (Created 2008.10.21, modified 2011.05.06)
author=SODA AROMATIC CO., LTD.
license=CC BY-NC-SA
exact mass=202.19328
ionization energy=70 eV
ion type=[M]+*
computed spectral entropy=2.908829304540611
computed normalized entropy=0.7885400812695593
SPLASH=splash10-0zi0-9300000000-c52b707990b9a8be9219
submitter=submitter = University of Tokyo Team (Faculty of Engineering, University of Tokyo)
MoNA Rating=3.75

>  <NUM PEAKS>  (2365) 
40

>  <MASS SPECTRAL PEAKS>  (2365) 
15 1.1
26 1.09
27 15.79
29 30.49
30 1.06
31 10.52
39 4.37
41 18.51
42 3.42
43 13.22
44 6.71
45 6.92
46 1.22
47 40.65
53 1.3
55 15.83
56 1.93
57 40.53
58 1.97
59 3.21
67 3
68 2.13
69 29.1
70 2.01
71 1.63
72 3.67
75 31.59
81 2.04
82 1.88
83 2.36
85 27.36
86 1.44
99 1.57
103 99.99
104 5.82
111 2.64
113 1.76
156 2.97
157 24.31
158 2.05

>  <PREDICTED SPECTRUM>  (2365) 
15 42
26 49
27 250
28 37
29 347
30 40
31 170
33 0
35 1
38 4
39 171
40 81
41 429
42 200
43 453
44 153
45 162
46 53
47 639
49 21
52 4
53 132
54 72
55 318
56 113
57 472
58 202
59 194
60 32
61 152
67 92
68 50
69 222
70 66
71 302
72 125
73 16
75 788
76 127
81 137
82 77
83 217
84 78
85 317
86 133
87 92
97 21
99 243
100 67
101 90
103 999
104 185
111 105
112 35
127 121
128 6
129 291
130 11
131 60
156 71
157 593
158 93
159 42
173 184

$$$$

     RDKit          2D

 14 13  0  0  0  0  0  0  0  0999 V2000
    3.2476    5.6250    0.0000 C   0  0  0  0  0  0  0  0  0  0  0  0
   -9.7428    5.6250    0.0000 C   0  0  0  0  0  0  0  0  0  0  0  0
   -7.1447   10.1250    0.0000 C   0  0  0  0  0  0  0  0  0  0  0  0
    1.9486    6.3750    0.0000 C   0  0  0  0  0  0  0  0  0  0  0  0
   -8.4437    6.3750    0.0000 C   0  0  0  0  0  0  0  0  0  0  0  0
   -7.1447    8.6250    0.0000 C   0  0  0  0  0  0  0  0  0  0  0  0
    0.6495    5.6250    0.0000 C   0  0  0  0  0  0  0  0  0  0  0  0
   -0.6495    6.3750    0.0000 C   0  0  0  0  0  0  0  0  0  0  0  0
   -1.9486    5.6250    0.0000 C   0  0  0  0  0  0  0  0  0  0  0  0
   -3.2476    6.3750    0.0000 C   0  0  0  0  0  0  0  0  0  0  0  0
   -4.5466    5.6250    0.0000 C   0  0  0  0  0  0  0  0  0  0  0  0
   -5.8457    6.3750    0.0000 C   0  0  0  0  0  0  0  0  0  0  0  0
   -7.1447    5.6250    0.0000 O   0  0  0  0  0  0  0  0  0  0  0  0
   -5.8457    7.8750    0.0000 O   0  0  0  0  0  0  0  0  0  0  0  0
  4  1  1  0
  5  2  1  0
  6  3  1  0
  7  4  1  0
  8  7  1  0
  9  8  1  0
 10  9  1  0
 10 11  2  0
 12 11  1  0
 13  5  1  0
 13 12  1  0
 14  6  1  0
 14 12  1  0
M  END
>  <NAME>  (2366) 
TRANS-2-OCTENAL DIETHYL ACETAL

>  <SYNONYMS>  (2366) 


>  <SPECTRUM TYPE>  (2366) 
MS1

>  <INSTRUMENT TYPE>  (2366) 
EI-B

>  <INSTRUMENT>  (2366) 
HITACHI M-80B

>  <ION MODE>  (2366) 
P

>  <INCHIKEY>  (2366) 
VTQPINQQQFJLGG-ZHACJKMWSA-N

>  <FORMULA>  (2366) 
C12H24O2

>  <EXACT MASS>  (2366) 
200.177630008

>  <MW>  (2366) 
200

>  <ID>  (2366) 
JP008643

>  <CONTRIBUTOR>  (2366) 
University of Tokyo Team, {Faculty of Engineering, University of Tokyo

>  <COMMENT>  (2366) 
SMILES=CCCCCC=CC(OCC)OCC
InChI=InChI=1S/C12H24O2/c1-4-7-8-9-10-11-12(13-5-2)14-6-3/h10-12H,4-9H2,1-3H3/b11-10+
computed SMILES=O(CC)C(OCC)C=CCCCCC
accession=JP008643
date=2016.01.19 (Created 2008.10.21, modified 2011.05.06)
author=SODA AROMATIC CO., LTD.
license=CC BY-NC-SA
exact mass=200.17763
ionization energy=70 eV
ion type=[M]+*
computed spectral entropy=3.2628575940849083
computed normalized entropy=0.8035718234710112
SPLASH=splash10-0a4i-9400000000-7dff7aafcf5923c4de15
submitter=submitter = University of Tokyo Team (Faculty of Engineering, University of Tokyo)
MoNA Rating=3.75

>  <NUM PEAKS>  (2366) 
58

>  <MASS SPECTRAL PEAKS>  (2366) 
27 14.2
29 34.73
31 3.66
39 7.17
40 1.34
41 22.02
42 3.71
43 13.77
44 1.24
45 4.31
47 15.54
51 1
53 4.29
54 1.45
55 23.36
56 2.39
57 61.29
58 2.38
59 4.06
60 1.1
65 1.07
67 15.74
68 1.99
69 11.76
70 13.34
71 3.94
73 13.31
75 9.54
77 1
79 1.76
81 3.94
82 1.43
83 12.6
84 1.73
85 54.36
86 3.47
87 2.96
95 1.43
97 1.67
98 5.48
99 2.77
101 5.31
103 16.33
109 16.29
110 2.01
111 3.13
115 1.23
116 2.04
127 2.26
129 26.33
130 2.35
143 3.72
154 1.45
155 99.99
156 10.1
157 1.19
199 1
200 1.05

>  <PREDICTED SPECTRUM>  (2366) 
15 30
25 4
26 65
27 326
28 62
29 509
30 62
31 181
38 11
39 269
40 109
41 564
42 173
43 454
44 198
45 182
46 50
47 436
48 2
49 6
51 71
52 41
53 218
54 154
55 495
56 157
57 671
58 146
59 246
61 9
65 87
66 34
67 270
68 157
69 434
70 234
71 320
72 58
73 215
74 95
75 375
76 50
79 121
80 40
81 322
82 111
83 450
84 182
85 477
86 86
87 118
88 26
95 81
97 248
98 155
99 268
100 19
101 236
102 65
103 410
109 206
110 58
111 103
112 43
113 73
115 79
116 144
125 99
126 27
127 215
128 68
129 364
130 106
131 14
139 1
143 91
153 38
154 57
155 999
156 324
157 91
171 8
199 27
200 132
201 36

$$$$

     RDKit          2D

 13 12  0  0  0  0  0  0  0  0999 V2000
    7.4695    6.1875    0.0000 C   0  0  0  0  0  0  0  0  0  0  0  0
   -2.9228    3.1875    0.0000 C   0  0  0  0  0  0  0  0  0  0  0  0
   -0.3248    7.6875    0.0000 C   0  0  0  0  0  0  0  0  0  0  0  0
    6.1704    5.4375    0.0000 C   0  0  0  0  0  0  0  0  0  0  0  0
   -1.6238    3.9375    0.0000 C   0  0  0  0  0  0  0  0  0  0  0  0
   -0.3248    6.1875    0.0000 C   0  0  0  0  0  0  0  0  0  0  0  0
    6.1704    3.9375    0.0000 C   0  0  0  0  0  0  0  0  0  0  0  0
    4.8714    3.1875    0.0000 C   0  0  0  0  0  0  0  0  0  0  0  0
    3.5724    3.9375    0.0000 C   0  0  0  0  0  0  0  0  0  0  0  0
    2.2733    3.1875    0.0000 C   0  0  0  0  0  0  0  0  0  0  0  0
    0.9743    3.9375    0.0000 C   0  0  0  0  0  0  0  0  0  0  0  0
   -0.3248    3.1875    0.0000 O   0  0  0  0  0  0  0  0  0  0  0  0
    0.9743    5.4375    0.0000 O   0  0  0  0  0  0  0  0  0  0  0  0
  4  1  1  0
  5  2  1  0
  6  3  1  0
  7  4  1  0
  7  8  2  0
  9  8  1  0
 10  9  1  0
 11 10  1  0
 12  5  1  0
 12 11  1  0
 13  6  1  0
 13 11  1  0
M  END
>  <NAME>  (2367) 
CIS-4-HEPTENAL DIETHYL ACETAL

>  <SYNONYMS>  (2367) 


>  <SPECTRUM TYPE>  (2367) 
MS1

>  <INSTRUMENT TYPE>  (2367) 
EI-B

>  <INSTRUMENT>  (2367) 
HITACHI M-80B

>  <ION MODE>  (2367) 
P

>  <INCHIKEY>  (2367) 
BOALWZNGHWYCRG-FPLPWBNLSA-N

>  <FORMULA>  (2367) 
C11H22O2

>  <EXACT MASS>  (2367) 
186.161979944

>  <MW>  (2367) 
186

>  <ID>  (2367) 
JP008642

>  <CONTRIBUTOR>  (2367) 
University of Tokyo Team, {Faculty of Engineering, University of Tokyo

>  <COMMENT>  (2367) 
SMILES=CCC=CCCC(OCC)OCC
InChI=InChI=1S/C11H22O2/c1-4-7-8-9-10-11(12-5-2)13-6-3/h7-8,11H,4-6,9-10H2,1-3H3/b8-7-
computed SMILES=O(CC)C(OCC)CCC=CCC
accession=JP008642
date=2016.01.19 (Created 2008.10.21, modified 2011.05.06)
author=SODA AROMATIC CO., LTD.
license=CC BY-NC-SA
exact mass=186.16198
ionization energy=70 eV
ion type=[M]+*
computed spectral entropy=3.456751874388581
computed normalized entropy=0.8250684333756441
SPLASH=splash10-0fba-9100000000-cf38b6f752351324c139
submitter=submitter = University of Tokyo Team (Faculty of Engineering, University of Tokyo)
MoNA Rating=3.75

>  <NUM PEAKS>  (2367) 
66

>  <MASS SPECTRAL PEAKS>  (2367) 
15 2.96
19 2.08
26 3.46
27 37.98
29 60.34
30 2.29
31 25.59
39 26.35
41 67.46
42 6.46
43 26.18
44 15.58
45 21.24
46 3.3
47 88.9
51 2.74
52 1.24
53 11
54 3.65
55 41.95
56 3.93
57 21.7
58 3.19
59 5.09
60 1.31
61 1.23
65 2.56
66 2.1
67 14.51
68 33.56
69 48.25
70 6.86
71 2.31
72 17.39
73 6.93
74 1.13
75 68
76 2.14
77 3.18
79 6.8
81 6.04
83 40.34
84 4.64
85 3.18
86 1.7
91 1.28
93 2.44
94 21.84
95 51.49
96 5.85
97 4.02
98 1.31
101 3.22
103 99.99
104 4.36
111 33.7
112 3.35
113 3.63
116 1.12
125 1.09
129 8.52
130 1
140 11.83
141 13.75
142 1.49
143 1

>  <PREDICTED SPECTRUM>  (2367) 
15 38
19 16
25 12
26 83
27 354
28 104
29 515
30 92
31 259
33 13
38 12
39 270
40 113
41 464
42 207
43 369
44 171
45 227
47 616
49 15
51 42
52 64
53 202
54 208
55 398
56 201
57 555
58 205
59 174
60 68
61 91
62 3
65 32
66 59
67 244
68 210
69 255
70 127
71 277
72 162
75 511
76 36
77 42
79 71
81 150
82 192
83 426
84 211
85 481
86 164
87 203
88 57
94 65
95 312
96 211
97 88
98 12
99 61
101 64
103 999
104 150
111 295
112 92
113 199
116 45
125 13
127 6
129 152
130 49
139 1
140 84
141 475
142 76
143 57
157 198
185 4

$$$$

     RDKit          2D

 12 11  0  0  0  0  0  0  0  0999 V2000
    2.5981    4.5000    0.0000 C   0  0  0  0  0  0  0  0  0  0  0  0
   -7.7942    4.5000    0.0000 C   0  0  0  0  0  0  0  0  0  0  0  0
   -5.1962    9.0000    0.0000 C   0  0  0  0  0  0  0  0  0  0  0  0
    1.2990    5.2500    0.0000 C   0  0  0  0  0  0  0  0  0  0  0  0
   -6.4952    5.2500    0.0000 C   0  0  0  0  0  0  0  0  0  0  0  0
   -5.1962    7.5000    0.0000 C   0  0  0  0  0  0  0  0  0  0  0  0
    0.0000    4.5000    0.0000 C   0  0  0  0  0  0  0  0  0  0  0  0
   -1.2990    5.2500    0.0000 C   0  0  0  0  0  0  0  0  0  0  0  0
   -2.5981    4.5000    0.0000 C   0  0  0  0  0  0  0  0  0  0  0  0
   -3.8971    5.2500    0.0000 C   0  0  0  0  0  0  0  0  0  0  0  0
   -5.1962    4.5000    0.0000 O   0  0  0  0  0  0  0  0  0  0  0  0
   -3.8971    6.7500    0.0000 O   0  0  0  0  0  0  0  0  0  0  0  0
  4  1  1  0
  5  2  1  0
  6  3  1  0
  7  4  1  0
  8  7  1  0
  9  8  1  0
 10  9  1  0
 11  5  1  0
 11 10  1  0
 12  6  1  0
 12 10  1  0
M  END
>  <NAME>  (2368) 
HEXANAL DIETHYL ACETAL

>  <SYNONYMS>  (2368) 


>  <SPECTRUM TYPE>  (2368) 
MS1

>  <INSTRUMENT TYPE>  (2368) 
EI-B

>  <INSTRUMENT>  (2368) 
HITACHI M-80B

>  <ION MODE>  (2368) 
P

>  <INCHIKEY>  (2368) 
WNHOMUCDFNTSEV-UHFFFAOYSA-N

>  <FORMULA>  (2368) 
C10H22O2

>  <EXACT MASS>  (2368) 
174.161979944

>  <MW>  (2368) 
174

>  <ID>  (2368) 
JP008641

>  <CONTRIBUTOR>  (2368) 
University of Tokyo Team, {Faculty of Engineering, University of Tokyo

>  <COMMENT>  (2368) 
SMILES=CCCCCC(OCC)OCC
InChI=InChI=1S/C10H22O2/c1-4-7-8-9-10(11-5-2)12-6-3/h10H,4-9H2,1-3H3
computed SMILES=O(CC)C(OCC)CCCCC
accession=JP008641
date=2016.01.19 (Created 2008.10.21, modified 2011.05.06)
author=SODA AROMATIC CO., LTD.
license=CC BY-NC-SA
exact mass=174.16198
ionization energy=70 eV
ion type=[M]+*
computed spectral entropy=2.76730952881233
computed normalized entropy=0.7783512277706626
SPLASH=splash10-0fb9-9300000000-861aea6444feccb324ea
submitter=submitter = University of Tokyo Team (Faculty of Engineering, University of Tokyo)
MoNA Rating=3.75

>  <NUM PEAKS>  (2368) 
35

>  <MASS SPECTRAL PEAKS>  (2368) 
15 1.72
18 2.32
19 1.93
26 1.44
27 23.03
28 3.07
29 45.54
30 1.32
31 6.28
39 4.8
41 20.37
42 4.83
43 13.3
44 13.19
45 6.1
47 65.98
53 1.4
55 35.11
56 2.68
57 9.03
58 1.76
59 4.65
70 1.23
71 1.15
72 6.19
75 40.87
76 1.21
83 34.27
84 1.77
85 3.34
101 1.42
103 99.99
104 4.41
129 38.83
130 3.03

>  <PREDICTED SPECTRUM>  (2368) 
15 44
19 2
26 46
27 249
28 50
29 386
30 115
31 158
33 14
36 14
39 161
40 54
41 284
42 170
43 438
44 159
45 127
46 17
47 692
48 31
49 12
52 2
53 126
54 41
55 202
56 79
57 365
58 242
59 311
60 86
61 2
67 17
69 63
71 277
72 147
73 148
75 811
76 156
77 58
81 2
82 32
83 189
84 44
85 184
86 87
87 25
89 10
99 179
100 12
101 344
102 52
103 999
104 166
115 9
116 4
117 27
128 36
129 620
130 130
131 79
145 152

$$$$

     RDKit          2D

 12 11  0  0  0  0  0  0  0  0999 V2000
    2.5981    4.5000    0.0000 C   0  0  0  0  0  0  0  0  0  0  0  0
   -7.7942    4.5000    0.0000 C   0  0  0  0  0  0  0  0  0  0  0  0
   -5.1962    9.0000    0.0000 C   0  0  0  0  0  0  0  0  0  0  0  0
    1.2990    5.2500    0.0000 C   0  0  0  0  0  0  0  0  0  0  0  0
   -6.4952    5.2500    0.0000 C   0  0  0  0  0  0  0  0  0  0  0  0
   -5.1962    7.5000    0.0000 C   0  0  0  0  0  0  0  0  0  0  0  0
    0.0000    4.5000    0.0000 C   0  0  0  0  0  0  0  0  0  0  0  0
   -1.2990    5.2500    0.0000 C   0  0  0  0  0  0  0  0  0  0  0  0
   -2.5981    4.5000    0.0000 C   0  0  0  0  0  0  0  0  0  0  0  0
   -3.8971    5.2500    0.0000 C   0  0  0  0  0  0  0  0  0  0  0  0
   -5.1962    4.5000    0.0000 O   0  0  0  0  0  0  0  0  0  0  0  0
   -3.8971    6.7500    0.0000 O   0  0  0  0  0  0  0  0  0  0  0  0
  4  1  1  0
  5  2  1  0
  6  3  1  0
  7  4  1  0
  8  7  1  0
  8  9  2  0
 10  9  1  0
 11  5  1  0
 11 10  1  0
 12  6  1  0
 12 10  1  0
M  END
>  <NAME>  (2369) 
TRANS-2-HEXENAL DIETHYL ACETAL

>  <SYNONYMS>  (2369) 


>  <SPECTRUM TYPE>  (2369) 
MS1

>  <INSTRUMENT TYPE>  (2369) 
EI-B

>  <INSTRUMENT>  (2369) 
HITACHI M-80B

>  <ION MODE>  (2369) 
P

>  <INCHIKEY>  (2369) 
WMQKYHTZGYIHHD-CMDGGOBGSA-N

>  <FORMULA>  (2369) 
C10H20O2

>  <EXACT MASS>  (2369) 
172.14632988

>  <MW>  (2369) 
172

>  <ID>  (2369) 
JP008640

>  <CONTRIBUTOR>  (2369) 
University of Tokyo Team, {Faculty of Engineering, University of Tokyo

>  <COMMENT>  (2369) 
SMILES=CCCC=CC(OCC)OCC
InChI=InChI=1S/C10H20O2/c1-4-7-8-9-10(11-5-2)12-6-3/h8-10H,4-7H2,1-3H3/b9-8+
computed SMILES=O(CC)C(OCC)C=CCCC
accession=JP008640
date=2016.01.19 (Created 2008.10.21, modified 2011.05.06)
author=SODA AROMATIC CO., LTD.
license=CC BY-NC-SA
exact mass=172.14633
ionization energy=70 eV
ion type=[M]+*
computed spectral entropy=2.9313005032544543
computed normalized entropy=0.7700447599785287
SPLASH=splash10-056r-9200000000-df0ab4050243adc6680b
submitter=submitter = University of Tokyo Team (Faculty of Engineering, University of Tokyo)
MoNA Rating=3.75

>  <NUM PEAKS>  (2369) 
45

>  <MASS SPECTRAL PEAKS>  (2369) 
15 1.58
26 1.27
27 23.03
28 1.55
29 42.12
30 1.22
31 3.25
39 8.06
40 1.85
41 22.03
42 4.82
43 14.19
44 1.11
45 3.72
47 17.09
51 1.15
53 3.66
55 13.99
56 1.18
57 99.99
58 2.77
67 1.69
68 1.03
69 9.48
70 7.38
71 3.24
73 9.85
75 7.41
81 6.94
83 3.99
85 24.62
86 1.28
87 2.39
97 1.7
98 2.36
99 8.75
101 2.68
103 7.63
115 2.12
116 1.67
127 80.49
128 5.92
129 8.28
130 1.17
143 1.88

>  <PREDICTED SPECTRUM>  (2369) 
15 101
25 13
26 85
27 357
28 81
29 508
30 123
31 207
37 6
38 16
39 286
40 93
41 600
42 216
43 485
44 140
45 255
46 80
47 413
48 21
49 23
51 68
52 58
53 232
54 104
55 521
56 193
57 759
58 165
59 148
60 13
61 73
65 64
67 173
68 51
69 376
70 221
71 301
72 106
73 352
74 76
75 388
80 43
81 311
82 139
83 408
84 105
85 536
86 106
87 150
88 70
97 139
98 125
99 354
100 144
101 234
102 97
103 345
104 24
111 99
113 64
114 13
115 108
116 137
125 81
126 158
127 999
128 327
129 273
130 54
143 120
144 26
171 12
172 97
173 33

$$$$

     RDKit          2D

 11 10  0  0  0  0  0  0  0  0999 V2000
    2.5981    2.2500    0.0000 C   0  0  0  0  0  0  0  0  0  0  0  0
    0.0000    6.7500    0.0000 C   0  0  0  0  0  0  0  0  0  0  0  0
   -5.1962    2.2500    0.0000 C   0  0  0  0  0  0  0  0  0  0  0  0
   -3.8971    4.5000    0.0000 C   0  0  0  0  0  0  0  0  0  0  0  0
    1.2990    3.0000    0.0000 C   0  0  0  0  0  0  0  0  0  0  0  0
    0.0000    5.2500    0.0000 C   0  0  0  0  0  0  0  0  0  0  0  0
   -2.5981    2.2500    0.0000 C   0  0  0  0  0  0  0  0  0  0  0  0
   -3.8971    3.0000    0.0000 C   0  0  0  0  0  0  0  0  0  0  0  0
   -1.2990    3.0000    0.0000 C   0  0  0  0  0  0  0  0  0  0  0  0
    0.0000    2.2500    0.0000 O   0  0  0  0  0  0  0  0  0  0  0  0
   -1.2990    4.5000    0.0000 O   0  0  0  0  0  0  0  0  0  0  0  0
  5  1  1  0
  6  2  1  0
  8  3  1  0
  8  4  1  0
  8  7  1  0
  9  7  1  0
 10  5  1  0
 10  9  1  0
 11  6  1  0
 11  9  1  0
M  END
>  <NAME>  (2370) 
ISOVALERALDEHYDE DIETHYL ACETAL

>  <SYNONYMS>  (2370) 
3-METHYLBUTANAL DIETHYL ACETAL

>  <SPECTRUM TYPE>  (2370) 
MS1

>  <INSTRUMENT TYPE>  (2370) 
EI-B

>  <INSTRUMENT>  (2370) 
HITACHI M-80B

>  <ION MODE>  (2370) 
P

>  <INCHIKEY>  (2370) 
DDGBOLJFAMEBOE-UHFFFAOYSA-N

>  <FORMULA>  (2370) 
C9H20O2

>  <EXACT MASS>  (2370) 
160.14632988

>  <MW>  (2370) 
160

>  <ID>  (2370) 
JP008639

>  <CONTRIBUTOR>  (2370) 
University of Tokyo Team, {Faculty of Engineering, University of Tokyo

>  <COMMENT>  (2370) 
SMILES=CCOC(OCC)CC(C)C
InChI=InChI=1S/C9H20O2/c1-5-10-9(11-6-2)7-8(3)4/h8-9H,5-7H2,1-4H3
computed SMILES=O(CC)C(OCC)CC(C)C
accession=JP008639
date=2016.01.19 (Created 2008.10.21, modified 2011.05.06)
author=SODA AROMATIC CO., LTD.
license=CC BY-NC-SA
exact mass=160.14633
ionization energy=70 eV
ion type=[M]+*
computed spectral entropy=2.904499196827115
computed normalized entropy=0.8105159332793878
SPLASH=splash10-0fvj-9200000000-6411138c03f16d03262b
submitter=submitter = University of Tokyo Team (Faculty of Engineering, University of Tokyo)
MoNA Rating=3.75

>  <NUM PEAKS>  (2370) 
36

>  <MASS SPECTRAL PEAKS>  (2370) 
15 3.11
19 2.17
26 2
27 29.95
29 45.34
30 1.62
31 15.01
39 12.26
41 29.9
42 3.56
43 38.64
44 12.83
45 34.13
46 1.65
47 88.92
53 2.84
55 2.7
57 7.5
59 21.14
61 1.8
68 1
69 45.99
70 2.2
71 33.37
72 3.94
73 3.72
75 55.87
76 1.54
85 1.39
87 4
99 14.02
103 99.99
104 4.39
114 3.74
115 45.14
116 2.74

>  <PREDICTED SPECTRUM>  (2370) 
14 24
15 179
18 15
19 26
25 20
26 106
27 388
28 117
29 513
30 38
31 247
32 18
33 32
35 2
37 3
38 40
39 266
40 126
41 442
42 232
43 578
44 252
45 466
46 113
47 934
48 88
49 63
50 5
51 60
52 6
53 158
54 68
55 149
56 17
57 341
58 213
59 320
60 62
61 131
62 23
63 13
65 29
69 248
70 90
71 291
72 190
73 17
75 828
76 171
77 157
85 344
86 101
87 233
88 10
89 149
99 65
101 25
103 999
104 75
113 47
114 83
115 439
116 81
117 101
131 133
145 5

$$$$

     RDKit          2D

 11 10  0  0  0  0  0  0  0  0999 V2000
   -8.4437    3.3750    0.0000 C   0  0  0  0  0  0  0  0  0  0  0  0
    0.6495    2.6250    0.0000 C   0  0  0  0  0  0  0  0  0  0  0  0
   -1.9486    7.1250    0.0000 C   0  0  0  0  0  0  0  0  0  0  0  0
   -7.1447    2.6250    0.0000 C   0  0  0  0  0  0  0  0  0  0  0  0
   -0.6495    3.3750    0.0000 C   0  0  0  0  0  0  0  0  0  0  0  0
   -1.9486    5.6250    0.0000 C   0  0  0  0  0  0  0  0  0  0  0  0
   -5.8457    3.3750    0.0000 C   0  0  0  0  0  0  0  0  0  0  0  0
   -4.5466    2.6250    0.0000 C   0  0  0  0  0  0  0  0  0  0  0  0
   -3.2476    3.3750    0.0000 C   0  0  0  0  0  0  0  0  0  0  0  0
   -1.9486    2.6250    0.0000 O   0  0  0  0  0  0  0  0  0  0  0  0
   -3.2476    4.8750    0.0000 O   0  0  0  0  0  0  0  0  0  0  0  0
  4  1  1  0
  5  2  1  0
  6  3  1  0
  7  4  1  0
  8  7  1  0
  9  8  1  0
 10  5  1  0
 10  9  1  0
 11  6  1  0
 11  9  1  0
M  END
>  <NAME>  (2371) 
VALERALDEHYDE DIETHYL ACETAL

>  <SYNONYMS>  (2371) 


>  <SPECTRUM TYPE>  (2371) 
MS1

>  <INSTRUMENT TYPE>  (2371) 
EI-B

>  <INSTRUMENT>  (2371) 
HITACHI M-80B

>  <ION MODE>  (2371) 
P

>  <INCHIKEY>  (2371) 
XCWKYQWOLSOBCC-UHFFFAOYSA-N

>  <FORMULA>  (2371) 
C9H20O2

>  <EXACT MASS>  (2371) 
160.14632988

>  <MW>  (2371) 
160

>  <ID>  (2371) 
JP008638

>  <CONTRIBUTOR>  (2371) 
University of Tokyo Team, {Faculty of Engineering, University of Tokyo

>  <COMMENT>  (2371) 
SMILES=CCCCC(OCC)OCC
InChI=InChI=1S/C9H20O2/c1-4-7-8-9(10-5-2)11-6-3/h9H,4-8H2,1-3H3
computed SMILES=O(CC)C(OCC)CCCC
accession=JP008638
date=2016.01.19 (Created 2008.10.21, modified 2011.05.06)
author=SODA AROMATIC CO., LTD.
license=CC BY-NC-SA
exact mass=160.14633
ionization energy=70 eV
ion type=[M]+*
computed spectral entropy=2.8288656027039063
computed normalized entropy=0.7834200807495975
SPLASH=splash10-0gdj-9300000000-7ff997e019a72bfc9e85
submitter=submitter = University of Tokyo Team (Faculty of Engineering, University of Tokyo)
MoNA Rating=3.75

>  <NUM PEAKS>  (2371) 
37

>  <MASS SPECTRAL PEAKS>  (2371) 
15 1.95
19 1.68
26 2.1
27 27.43
29 48.84
30 1.87
31 14.13
39 7.85
41 27.47
42 2.68
43 11.32
44 10.02
45 13.83
46 1.24
47 74.27
53 1.08
55 3.29
57 38.22
58 6.37
59 5.36
60 1
67 1.13
69 67.6
70 3.4
71 1.25
72 2.41
75 50.36
76 1.29
85 16.62
86 1.31
87 11.38
88 1.85
103 99.99
104 5.55
114 3.65
115 61.83
116 3.92

>  <PREDICTED SPECTRUM>  (2371) 
14 3
15 102
18 0
19 16
25 7
26 70
27 320
28 91
29 476
30 88
31 193
32 0
33 19
39 161
40 57
41 403
42 204
43 429
44 226
45 275
46 42
47 784
48 44
49 26
53 123
54 69
55 190
56 78
57 495
58 213
59 254
60 48
61 97
62 5
69 190
70 25
71 195
72 127
75 758
76 115
85 376
86 128
87 353
88 42
89 68
99 22
103 999
104 132
113 20
114 76
115 790
116 146
117 138
131 144
160 6

$$$$

     RDKit          2D

 12 11  0  0  0  0  0  0  0  0999 V2000
   -3.8971    2.2500    0.0000 C   0  0  0  0  0  0  0  0  0  0  0  0
    5.1962    4.5000    0.0000 C   0  0  0  0  0  0  0  0  0  0  0  0
    2.5981    9.0000    0.0000 C   0  0  0  0  0  0  0  0  0  0  0  0
   -2.5981    3.0000    0.0000 C   0  0  0  0  0  0  0  0  0  0  0  0
    3.8971    5.2500    0.0000 C   0  0  0  0  0  0  0  0  0  0  0  0
    2.5981    7.5000    0.0000 C   0  0  0  0  0  0  0  0  0  0  0  0
   -2.5981    4.5000    0.0000 C   0  0  0  0  0  0  0  0  0  0  0  0
   -1.2990    5.2500    0.0000 C   0  0  0  0  0  0  0  0  0  0  0  0
    0.0000    4.5000    0.0000 C   0  0  0  0  0  0  0  0  0  0  0  0
    1.2990    5.2500    0.0000 C   0  0  0  0  0  0  0  0  0  0  0  0
    2.5981    4.5000    0.0000 O   0  0  0  0  0  0  0  0  0  0  0  0
    1.2990    6.7500    0.0000 O   0  0  0  0  0  0  0  0  0  0  0  0
  4  1  1  0
  5  2  1  0
  6  3  1  0
  7  4  1  0
  7  8  2  0
  9  8  1  0
 10  9  1  0
 11  5  1  0
 11 10  1  0
 12  6  1  0
 12 10  1  0
M  END
>  <NAME>  (2372) 
CIS-3-HEXENAL DIETHYL ACETAL

>  <SYNONYMS>  (2372) 


>  <SPECTRUM TYPE>  (2372) 
MS1

>  <INSTRUMENT TYPE>  (2372) 
EI-B

>  <INSTRUMENT>  (2372) 
HITACHI M-80B

>  <ION MODE>  (2372) 
P

>  <INCHIKEY>  (2372) 
IOBHVJHSBREPFR-FPLPWBNLSA-N

>  <FORMULA>  (2372) 
C10H20O2

>  <EXACT MASS>  (2372) 
172.14632988

>  <MW>  (2372) 
172

>  <ID>  (2372) 
JP008637

>  <CONTRIBUTOR>  (2372) 
University of Tokyo Team, {Faculty of Engineering, University of Tokyo

>  <COMMENT>  (2372) 
SMILES=CCC=CCC(OCC)OCC
InChI=InChI=1S/C10H20O2/c1-4-7-8-9-10(11-5-2)12-6-3/h7-8,10H,4-6,9H2,1-3H3/b8-7-
computed SMILES=O(CC)C(OCC)CC=CCC
accession=JP008637
date=2016.01.19 (Created 2008.10.21, modified 2011.05.06)
author=SODA AROMATIC CO., LTD.
license=CC BY-NC-SA
exact mass=172.14633
ionization energy=70 eV
ion type=[M]+*
computed spectral entropy=2.7277988499224626
computed normalized entropy=0.7672382008021256
SPLASH=splash10-0fba-9200000000-c08490ba12f429228ca6
submitter=submitter = University of Tokyo Team (Faculty of Engineering, University of Tokyo)
MoNA Rating=3.75

>  <NUM PEAKS>  (2372) 
35

>  <MASS SPECTRAL PEAKS>  (2372) 
15 1.31
19 1.88
26 1.14
27 20.4
28 3.41
29 39.98
31 4.42
39 11.1
40 29.55
41 29.55
42 3.53
43 10.03
44 2.79
45 4.97
47 99.99
53 4.67
54 1.66
55 20
56 1.2
57 9.67
59 1.93
67 2.31
69 6.9
70 1.08
72 1.13
75 55.98
76 1.49
81 16.98
82 1.12
83 4.64
85 4.52
103 85.86
104 4.64
127 17.07
128 1.3

>  <PREDICTED SPECTRUM>  (2372) 
14 19
15 52
19 21
25 37
26 146
27 476
28 151
29 606
30 72
31 326
32 16
33 24
37 21
38 97
39 347
40 189
41 554
42 276
43 459
44 203
45 202
46 13
47 891
48 73
49 67
50 31
51 112
52 165
53 298
54 277
55 443
56 174
57 384
58 152
59 115
60 22
65 97
67 249
68 123
69 438
70 251
71 367
72 156
73 220
74 115
75 721
76 147
77 72
80 149
81 497
82 309
83 131
84 26
85 194
86 51
87 68
88 20
97 324
98 184
99 534
100 98
103 999
104 267
115 123
116 94
117 10
126 75
127 522
128 131
129 14
143 248
144 33

$$$$

     RDKit          2D

  9  8  0  0  0  0  0  0  0  0999 V2000
   -3.2476    6.3750    0.0000 C   0  0  0  0  0  0  0  0  0  0  0  0
    1.9486    3.3750    0.0000 C   0  0  0  0  0  0  0  0  0  0  0  0
   -5.8457    3.3750    0.0000 C   0  0  0  0  0  0  0  0  0  0  0  0
   -1.9486    5.6250    0.0000 C   0  0  0  0  0  0  0  0  0  0  0  0
    0.6495    4.1250    0.0000 C   0  0  0  0  0  0  0  0  0  0  0  0
   -4.5466    4.1250    0.0000 C   0  0  0  0  0  0  0  0  0  0  0  0
   -1.9486    4.1250    0.0000 C   0  0  0  0  0  0  0  0  0  0  0  0
   -0.6495    3.3750    0.0000 O   0  0  0  0  0  0  0  0  0  0  0  0
   -3.2476    3.3750    0.0000 O   0  0  0  0  0  0  0  0  0  0  0  0
  4  1  1  0
  5  2  1  0
  6  3  1  0
  7  4  1  0
  8  5  1  0
  8  7  1  0
  9  6  1  0
  9  7  1  0
M  END
>  <NAME>  (2373) 
PROPANAL DIETHYL ACETAL

>  <SYNONYMS>  (2373) 


>  <SPECTRUM TYPE>  (2373) 
MS1

>  <INSTRUMENT TYPE>  (2373) 
EI-B

>  <INSTRUMENT>  (2373) 
HITACHI M-80B

>  <ION MODE>  (2373) 
P

>  <INCHIKEY>  (2373) 
MBNMGGKBGCIEGF-UHFFFAOYSA-N

>  <FORMULA>  (2373) 
C7H16O2

>  <EXACT MASS>  (2373) 
132.115029752

>  <MW>  (2373) 
132

>  <ID>  (2373) 
JP008636

>  <CONTRIBUTOR>  (2373) 
University of Tokyo Team, {Faculty of Engineering, University of Tokyo

>  <COMMENT>  (2373) 
SMILES=CCOC(CC)OCC
InChI=InChI=1S/C7H16O2/c1-4-7(8-5-2)9-6-3/h7H,4-6H2,1-3H3
computed SMILES=O(CC)C(OCC)CC
accession=JP008636
date=2016.01.19 (Created 2008.10.21, modified 2011.05.06)
author=SODA AROMATIC CO., LTD.
license=CC BY-NC-SA
exact mass=132.11503
ionization energy=70 eV
ion type=[M]+*
computed spectral entropy=2.5171171581662963
computed normalized entropy=0.781986412374066
SPLASH=splash10-0a71-9100000000-0dfc839fd0b04b6474be
submitter=submitter = University of Tokyo Team (Faculty of Engineering, University of Tokyo)
MoNA Rating=3.75

>  <NUM PEAKS>  (2373) 
25

>  <MASS SPECTRAL PEAKS>  (2373) 
15 2.44
19 1.63
26 2.56
27 22.83
29 38.72
30 3.03
31 30.05
39 2.75
41 11.24
42 1.57
43 4.8
45 8.43
47 62.24
57 17.45
58 9.71
59 99.99
60 2.83
75 36.15
76 1.15
78 1.28
86 4.45
87 67.39
88 3.65
103 48.17
104 2.14

>  <PREDICTED SPECTRUM>  (2373) 
14 44
15 215
18 19
19 38
25 27
26 139
27 424
28 163
29 649
30 184
31 425
32 33
33 52
35 21
36 4
39 27
40 45
41 286
42 151
43 475
44 208
45 189
46 16
47 999
48 83
49 30
53 78
54 16
57 345
58 171
59 616
60 151
61 196
71 84
72 4
73 59
75 814
76 98
85 87
86 86
87 417
88 71
89 27
103 917
104 27
117 21

$$$$

     RDKit          2D

  8  7  0  0  0  0  0  0  0  0999 V2000
    1.9486    3.3750    0.0000 C   0  0  0  0  0  0  0  0  0  0  0  0
   -5.8457    3.3750    0.0000 C   0  0  0  0  0  0  0  0  0  0  0  0
   -1.9486    5.6250    0.0000 C   0  0  0  0  0  0  0  0  0  0  0  0
    0.6495    4.1250    0.0000 C   0  0  0  0  0  0  0  0  0  0  0  0
   -4.5466    4.1250    0.0000 C   0  0  0  0  0  0  0  0  0  0  0  0
   -1.9486    4.1250    0.0000 C   0  0  0  0  0  0  0  0  0  0  0  0
   -0.6495    3.3750    0.0000 O   0  0  0  0  0  0  0  0  0  0  0  0
   -3.2476    3.3750    0.0000 O   0  0  0  0  0  0  0  0  0  0  0  0
  4  1  1  0
  5  2  1  0
  6  3  1  0
  7  4  1  0
  7  6  1  0
  8  5  1  0
  8  6  1  0
M  END
>  <NAME>  (2374) 
ACETALDEHYDE DIETHYL ACETAL

>  <SYNONYMS>  (2374) 


>  <SPECTRUM TYPE>  (2374) 
MS1

>  <INSTRUMENT TYPE>  (2374) 
EI-B

>  <INSTRUMENT>  (2374) 
HITACHI M-80B

>  <ION MODE>  (2374) 
P

>  <INCHIKEY>  (2374) 
DHKHKXVYLBGOIT-UHFFFAOYSA-N

>  <FORMULA>  (2374) 
C6H14O2

>  <EXACT MASS>  (2374) 
118.099379688

>  <MW>  (2374) 
118

>  <ID>  (2374) 
JP008635

>  <CONTRIBUTOR>  (2374) 
University of Tokyo Team, {Faculty of Engineering, University of Tokyo

>  <COMMENT>  (2374) 
SMILES=CCOC(C)OCC
InChI=InChI=1S/C6H14O2/c1-4-7-6(3)8-5-2/h6H,4-5H2,1-3H3
computed SMILES=O(CC)C(OCC)C
accession=JP008635
date=2016.01.19 (Created 2008.10.21, modified 2011.05.06)
author=SODA AROMATIC CO., LTD.
license=CC BY-NC-SA
exact mass=118.09938
ionization energy=70 eV
ion type=[M]+*
computed spectral entropy=2.132107837794585
computed normalized entropy=0.7241134399050024
SPLASH=splash10-0002-9000000000-1f9d4f5641ee98603aa4
submitter=submitter = University of Tokyo Team (Faculty of Engineering, University of Tokyo)
MoNA Rating=3.75

>  <NUM PEAKS>  (2374) 
19

>  <MASS SPECTRAL PEAKS>  (2374) 
15 4.56
19 1.44
26 2.07
27 14.14
29 16.43
30 1.11
31 5.57
42 1.38
43 18.92
44 7.02
45 99.99
46 2.79
47 19.54
61 3.37
72 1.54
73 59.64
74 2.7
75 6.23
103 15.33

>  <PREDICTED SPECTRUM>  (2374) 
14 31
15 87
16 7
19 36
25 22
26 113
27 335
28 221
29 557
30 192
31 336
32 28
39 62
40 44
41 107
42 47
43 424
44 323
45 892
46 177
47 480
48 7
49 49
50 6
55 24
57 109
59 173
60 115
61 146
71 8
72 279
73 999
74 228
75 354
76 111
103 417
104 99
105 28

$$$$

     RDKit          2D

 16 15  0  0  0  0  0  0  0  0999 V2000
    3.5724    7.3125    0.0000 C   0  0  0  0  0  0  0  0  0  0  0  0
   -8.1190    9.5625    0.0000 C   0  0  0  0  0  0  0  0  0  0  0  0
  -12.0161    7.3125    0.0000 C   0  0  0  0  0  0  0  0  0  0  0  0
  -10.7171    5.0625    0.0000 C   0  0  0  0  0  0  0  0  0  0  0  0
    2.2733    8.0625    0.0000 C   0  0  0  0  0  0  0  0  0  0  0  0
    0.9743    7.3125    0.0000 C   0  0  0  0  0  0  0  0  0  0  0  0
   -0.3248    8.0625    0.0000 C   0  0  0  0  0  0  0  0  0  0  0  0
   -1.6238    7.3125    0.0000 C   0  0  0  0  0  0  0  0  0  0  0  0
   -2.9228    8.0625    0.0000 C   0  0  0  0  0  0  0  0  0  0  0  0
   -4.2219    7.3125    0.0000 C   0  0  0  0  0  0  0  0  0  0  0  0
   -5.5209    8.0625    0.0000 C   0  0  0  0  0  0  0  0  0  0  0  0
   -6.8200    7.3125    0.0000 C   0  0  0  0  0  0  0  0  0  0  0  0
   -8.1190    8.0625    0.0000 C   0  0  0  0  0  0  0  0  0  0  0  0
   -9.4180    7.3125    0.0000 C   0  0  0  0  0  0  0  0  0  0  0  0
  -10.7171    8.0625    0.0000 O   0  0  0  0  0  0  0  0  0  0  0  0
   -9.4180    5.8125    0.0000 O   0  0  0  0  0  0  0  0  0  0  0  0
  5  1  1  0
  6  5  1  0
  7  6  1  0
  8  7  1  0
  9  8  1  0
 10  9  1  0
 11 10  1  0
 12 11  1  0
 13  2  1  0
 13 12  1  0
 14 13  1  0
 15  3  1  0
 15 14  1  0
 16  4  1  0
 16 14  1  0
M  END
>  <NAME>  (2375) 
2-METHYLUNDECANAL DIMETHYL ACETAL

>  <SYNONYMS>  (2375) 


>  <SPECTRUM TYPE>  (2375) 
MS1

>  <INSTRUMENT TYPE>  (2375) 
EI-B

>  <INSTRUMENT>  (2375) 
HITACHI M-80B

>  <ION MODE>  (2375) 
P

>  <INCHIKEY>  (2375) 
NJXYRZMLVYMJHM-UHFFFAOYSA-N

>  <FORMULA>  (2375) 
C14H30O2

>  <EXACT MASS>  (2375) 
230.2245802

>  <MW>  (2375) 
230

>  <ID>  (2375) 
JP008634

>  <CONTRIBUTOR>  (2375) 
University of Tokyo Team, {Faculty of Engineering, University of Tokyo

>  <COMMENT>  (2375) 
SMILES=CCCCCCCCCC(C)C(OC)OC
InChI=InChI=1S/C14H30O2/c1-5-6-7-8-9-10-11-12-13(2)14(15-3)16-4/h13-14H,5-12H2,1-4H3
computed SMILES=O(C)C(OC)C(C)CCCCCCCCC
accession=JP008634
date=2016.01.19 (Created 2008.10.21, modified 2011.05.06)
author=SODA AROMATIC CO., LTD.
license=CC BY-NC-SA
exact mass=230.22458
ionization energy=70 eV
ion type=[M]+*
computed spectral entropy=1.7436532990134221
computed normalized entropy=0.564098787164505
SPLASH=splash10-004i-9000000000-ce4f91c50e5d17394c68
submitter=submitter = University of Tokyo Team (Faculty of Engineering, University of Tokyo)
MoNA Rating=3.75

>  <NUM PEAKS>  (2375) 
22

>  <MASS SPECTRAL PEAKS>  (2375) 
27 1.46
29 4.18
31 1.79
39 1.04
41 7.67
42 1.56
43 4.94
45 3.57
47 4.82
55 5.22
56 1
57 1.64
59 1.29
69 2.72
71 1.58
72 3.32
75 99.99
76 3.25
83 1.12
85 6.08
97 1.15
199 1.64

>  <PREDICTED SPECTRUM>  (2375) 
15 17
27 50
28 9
29 141
31 105
32 3
33 30
39 64
40 15
41 204
42 47
43 259
44 20
45 76
47 192
53 29
54 23
55 284
56 40
57 170
58 127
59 106
61 22
67 38
69 146
71 289
75 999
76 163
81 23
83 17
85 80
86 0
97 126
109 23
111 93
117 104
125 17
127 3
171 26
199 124
215 68

$$$$

     RDKit          2D

 16 15  0  0  0  0  0  0  0  0999 V2000
    4.5466    7.1250    0.0000 C   0  0  0  0  0  0  0  0  0  0  0  0
  -12.3409    7.8750    0.0000 C   0  0  0  0  0  0  0  0  0  0  0  0
  -11.0418   10.1250    0.0000 C   0  0  0  0  0  0  0  0  0  0  0  0
    3.2476    7.8750    0.0000 C   0  0  0  0  0  0  0  0  0  0  0  0
    1.9486    7.1250    0.0000 C   0  0  0  0  0  0  0  0  0  0  0  0
    0.6495    7.8750    0.0000 C   0  0  0  0  0  0  0  0  0  0  0  0
   -0.6495    7.1250    0.0000 C   0  0  0  0  0  0  0  0  0  0  0  0
   -1.9486    7.8750    0.0000 C   0  0  0  0  0  0  0  0  0  0  0  0
   -3.2476    7.1250    0.0000 C   0  0  0  0  0  0  0  0  0  0  0  0
   -4.5466    7.8750    0.0000 C   0  0  0  0  0  0  0  0  0  0  0  0
   -5.8457    7.1250    0.0000 C   0  0  0  0  0  0  0  0  0  0  0  0
   -7.1447    7.8750    0.0000 C   0  0  0  0  0  0  0  0  0  0  0  0
   -8.4437    7.1250    0.0000 C   0  0  0  0  0  0  0  0  0  0  0  0
   -9.7428    7.8750    0.0000 C   0  0  0  0  0  0  0  0  0  0  0  0
  -11.0418    7.1250    0.0000 O   0  0  0  0  0  0  0  0  0  0  0  0
   -9.7428    9.3750    0.0000 O   0  0  0  0  0  0  0  0  0  0  0  0
  4  1  1  0
  5  4  1  0
  6  5  1  0
  7  6  1  0
  8  7  1  0
  9  8  1  0
 10  9  1  0
 11 10  1  0
 12 11  1  0
 13 12  1  0
 14 13  1  0
 15  2  1  0
 15 14  1  0
 16  3  1  0
 16 14  1  0
M  END
>  <NAME>  (2376) 
DODECANAL DIMETHYL ACETAL

>  <SYNONYMS>  (2376) 


>  <SPECTRUM TYPE>  (2376) 
MS1

>  <INSTRUMENT TYPE>  (2376) 
EI-B

>  <INSTRUMENT>  (2376) 
HITACHI M-80B

>  <ION MODE>  (2376) 
P

>  <INCHIKEY>  (2376) 
AJUWUYJULVYGRA-UHFFFAOYSA-N

>  <FORMULA>  (2376) 
C14H30O2

>  <EXACT MASS>  (2376) 
230.2245802

>  <MW>  (2376) 
230

>  <ID>  (2376) 
JP008633

>  <CONTRIBUTOR>  (2376) 
University of Tokyo Team, {Faculty of Engineering, University of Tokyo

>  <COMMENT>  (2376) 
SMILES=CCCCCCCCCCCC(OC)OC
InChI=InChI=1S/C14H30O2/c1-4-5-6-7-8-9-10-11-12-13-14(15-2)16-3/h14H,4-13H2,1-3H3
computed SMILES=O(C)C(OC)CCCCCCCCCCC
accession=JP008633
date=2016.01.19 (Created 2008.10.21, modified 2011.05.06)
author=SODA AROMATIC CO., LTD.
license=CC BY-NC-SA
exact mass=230.22458
ionization energy=70 eV
ion type=[M]+*
computed spectral entropy=2.1063662874834788
computed normalized entropy=0.6390990735039348
SPLASH=splash10-004i-9000000000-2befc0e83f7324116d00
submitter=submitter = University of Tokyo Team (Faculty of Engineering, University of Tokyo)
MoNA Rating=3.75

>  <NUM PEAKS>  (2376) 
27

>  <MASS SPECTRAL PEAKS>  (2376) 
27 2.72
29 5.59
31 2.7
39 1.58
41 9.55
42 1.85
43 6.02
45 3.94
47 4.42
55 8.71
56 1.25
57 2.22
58 1
59 1.47
67 1.15
69 3.12
71 2.8
72 3.72
75 99.99
76 3.32
81 1.07
83 1.35
85 26.19
86 1.18
97 1.43
198 1.54
199 2.45

>  <PREDICTED SPECTRUM>  (2376) 
15 24
27 101
28 43
29 197
31 106
32 20
33 40
36 18
39 106
40 24
41 213
42 89
43 202
44 0
45 106
47 183
53 43
54 37
55 272
56 69
57 166
58 198
59 83
61 53
67 77
68 38
69 190
71 347
72 39
75 999
76 150
77 7
81 100
82 10
83 129
84 3
85 73
86 6
87 0
88 14
89 71
90 3
95 23
96 21
97 125
99 35
103 8
109 43
111 37
117 25
199 223
200 2
215 20

$$$$

     RDKit          2D

 14 13  0  0  0  0  0  0  0  0999 V2000
    3.8971    6.0000    0.0000 C   0  0  0  0  0  0  0  0  0  0  0  0
  -10.3923    6.7500    0.0000 C   0  0  0  0  0  0  0  0  0  0  0  0
   -9.0933    9.0000    0.0000 C   0  0  0  0  0  0  0  0  0  0  0  0
    2.5981    6.7500    0.0000 C   0  0  0  0  0  0  0  0  0  0  0  0
    1.2990    6.0000    0.0000 C   0  0  0  0  0  0  0  0  0  0  0  0
    0.0000    6.7500    0.0000 C   0  0  0  0  0  0  0  0  0  0  0  0
   -1.2990    6.0000    0.0000 C   0  0  0  0  0  0  0  0  0  0  0  0
   -2.5981    6.7500    0.0000 C   0  0  0  0  0  0  0  0  0  0  0  0
   -3.8971    6.0000    0.0000 C   0  0  0  0  0  0  0  0  0  0  0  0
   -5.1962    6.7500    0.0000 C   0  0  0  0  0  0  0  0  0  0  0  0
   -6.4952    6.0000    0.0000 C   0  0  0  0  0  0  0  0  0  0  0  0
   -7.7942    6.7500    0.0000 C   0  0  0  0  0  0  0  0  0  0  0  0
   -9.0933    6.0000    0.0000 O   0  0  0  0  0  0  0  0  0  0  0  0
   -7.7942    8.2500    0.0000 O   0  0  0  0  0  0  0  0  0  0  0  0
  4  1  1  0
  5  4  1  0
  6  5  1  0
  7  6  1  0
  8  7  1  0
  9  8  1  0
 10  9  1  0
 11 10  1  0
 12 11  1  0
 13  2  1  0
 13 12  1  0
 14  3  1  0
 14 12  1  0
M  END
>  <NAME>  (2377) 
DECANAL DIMETHYL ACETAL

>  <SYNONYMS>  (2377) 


>  <SPECTRUM TYPE>  (2377) 
MS1

>  <INSTRUMENT TYPE>  (2377) 
EI-B

>  <INSTRUMENT>  (2377) 
HITACHI M-80B

>  <ION MODE>  (2377) 
P

>  <INCHIKEY>  (2377) 
NCRNCSZWOOYBQF-UHFFFAOYSA-N

>  <FORMULA>  (2377) 
C12H26O2

>  <EXACT MASS>  (2377) 
202.193280072

>  <MW>  (2377) 
202

>  <ID>  (2377) 
JP008632

>  <CONTRIBUTOR>  (2377) 
University of Tokyo Team, {Faculty of Engineering, University of Tokyo

>  <COMMENT>  (2377) 
SMILES=CCCCCCCCCC(OC)OC
InChI=InChI=1S/C12H26O2/c1-4-5-6-7-8-9-10-11-12(13-2)14-3/h12H,4-11H2,1-3H3
computed SMILES=O(C)C(OC)CCCCCCCCC
accession=JP008632
date=2016.01.19 (Created 2008.10.21, modified 2011.05.06)
author=SODA AROMATIC CO., LTD.
license=CC BY-NC-SA
exact mass=202.19328
ionization energy=70 eV
ion type=[M]+*
computed spectral entropy=2.2836046295895427
computed normalized entropy=0.6928755039863502
SPLASH=splash10-004i-9000000000-362896b800f5af033836
submitter=submitter = University of Tokyo Team (Faculty of Engineering, University of Tokyo)
MoNA Rating=3.75

>  <NUM PEAKS>  (2377) 
27

>  <MASS SPECTRAL PEAKS>  (2377) 
15 1.11
27 4.01
29 6.16
31 3.43
39 2.66
41 13.59
42 1.65
43 6.32
45 6.2
47 5.09
55 7.3
57 2.54
58 5.74
67 1.76
68 1.62
69 4.8
71 23.58
72 1.11
75 99.99
76 3.22
81 1.56
82 1.66
83 5.95
85 1.22
95 1.26
97 2.46
171 5.69

>  <PREDICTED SPECTRUM>  (2377) 
15 27
26 10
27 118
28 48
29 211
31 111
32 25
33 46
36 21
39 101
40 16
41 222
42 106
43 162
44 34
45 117
47 190
53 32
54 18
55 274
56 90
57 147
58 180
59 135
60 24
61 72
67 79
68 35
69 183
71 336
72 50
74 18
75 999
76 139
77 0
81 86
83 118
85 55
89 115
97 93
99 50
101 16
110 11
111 33
171 234
187 12

$$$$

     RDKit          2D

 13 12  0  0  0  0  0  0  0  0999 V2000
    2.9228    6.1875    0.0000 C   0  0  0  0  0  0  0  0  0  0  0  0
  -10.0675    6.1875    0.0000 C   0  0  0  0  0  0  0  0  0  0  0  0
   -8.7685    3.9375    0.0000 C   0  0  0  0  0  0  0  0  0  0  0  0
    1.6238    6.9375    0.0000 C   0  0  0  0  0  0  0  0  0  0  0  0
    0.3248    6.1875    0.0000 C   0  0  0  0  0  0  0  0  0  0  0  0
   -0.9743    6.9375    0.0000 C   0  0  0  0  0  0  0  0  0  0  0  0
   -2.2733    6.1875    0.0000 C   0  0  0  0  0  0  0  0  0  0  0  0
   -3.5724    6.9375    0.0000 C   0  0  0  0  0  0  0  0  0  0  0  0
   -4.8714    6.1875    0.0000 C   0  0  0  0  0  0  0  0  0  0  0  0
   -6.1704    6.9375    0.0000 C   0  0  0  0  0  0  0  0  0  0  0  0
   -7.4695    6.1875    0.0000 C   0  0  0  0  0  0  0  0  0  0  0  0
   -8.7685    6.9375    0.0000 O   0  0  0  0  0  0  0  0  0  0  0  0
   -7.4695    4.6875    0.0000 O   0  0  0  0  0  0  0  0  0  0  0  0
  4  1  1  0
  5  4  1  0
  6  5  1  0
  7  6  1  0
  8  7  1  0
  9  8  1  0
 10  9  1  0
 11 10  1  0
 12  2  1  0
 12 11  1  0
 13  3  1  0
 13 11  1  0
M  END
>  <NAME>  (2378) 
NONANAL DIMETHYL ACETAL

>  <SYNONYMS>  (2378) 


>  <SPECTRUM TYPE>  (2378) 
MS1

>  <INSTRUMENT TYPE>  (2378) 
EI-B

>  <INSTRUMENT>  (2378) 
HITACHI M-80B

>  <ION MODE>  (2378) 
P

>  <INCHIKEY>  (2378) 
LYLVOCPDQAOQKL-UHFFFAOYSA-N

>  <FORMULA>  (2378) 
C11H24O2

>  <EXACT MASS>  (2378) 
188.177630008

>  <MW>  (2378) 
188

>  <ID>  (2378) 
JP008631

>  <CONTRIBUTOR>  (2378) 
University of Tokyo Team, {Faculty of Engineering, University of Tokyo

>  <COMMENT>  (2378) 
SMILES=CCCCCCCCC(OC)OC
InChI=InChI=1S/C11H24O2/c1-4-5-6-7-8-9-10-11(12-2)13-3/h11H,4-10H2,1-3H3
computed SMILES=O(C)C(OC)CCCCCCCC
accession=JP008631
date=2016.01.19 (Created 2008.10.21, modified 2011.05.06)
author=SODA AROMATIC CO., LTD.
license=CC BY-NC-SA
exact mass=188.17763
ionization energy=70 eV
ion type=[M]+*
computed spectral entropy=2.1824190871516955
computed normalized entropy=0.6960367128296466
SPLASH=splash10-004i-9000000000-323f734751d631abb1c2
submitter=submitter = University of Tokyo Team (Faculty of Engineering, University of Tokyo)
MoNA Rating=3.75

>  <NUM PEAKS>  (2378) 
23

>  <MASS SPECTRAL PEAKS>  (2378) 
15 1.16
27 4.51
29 6.17
31 3.69
39 3.05
41 13.37
42 1.43
43 4.93
45 7.02
47 5.66
55 7.01
57 2.71
58 5.44
67 1.41
68 1.06
69 8.84
71 20.19
75 99.99
76 3.19
81 1.28
82 1.22
83 4.64
157 6.32

>  <PREDICTED SPECTRUM>  (2378) 
15 33
26 9
27 121
28 45
29 208
31 106
32 27
33 47
36 27
39 109
41 224
42 107
43 194
44 63
45 182
47 207
53 46
54 36
55 268
56 98
57 141
58 166
59 132
61 80
67 69
68 9
69 171
71 317
72 24
75 999
76 161
77 26
81 61
83 86
85 79
86 7
87 0
89 0
96 0
97 76
111 17
157 245
173 2

$$$$

     RDKit          2D

 12 11  0  0  0  0  0  0  0  0999 V2000
   -8.4437    5.6250    0.0000 C   0  0  0  0  0  0  0  0  0  0  0  0
    3.2476    4.8750    0.0000 C   0  0  0  0  0  0  0  0  0  0  0  0
    1.9486    2.6250    0.0000 C   0  0  0  0  0  0  0  0  0  0  0  0
   -7.1447    4.8750    0.0000 C   0  0  0  0  0  0  0  0  0  0  0  0
   -5.8457    5.6250    0.0000 C   0  0  0  0  0  0  0  0  0  0  0  0
   -4.5466    4.8750    0.0000 C   0  0  0  0  0  0  0  0  0  0  0  0
   -3.2476    5.6250    0.0000 C   0  0  0  0  0  0  0  0  0  0  0  0
   -1.9486    4.8750    0.0000 C   0  0  0  0  0  0  0  0  0  0  0  0
   -0.6495    5.6250    0.0000 C   0  0  0  0  0  0  0  0  0  0  0  0
    0.6495    4.8750    0.0000 C   0  0  0  0  0  0  0  0  0  0  0  0
    1.9486    5.6250    0.0000 O   0  0  0  0  0  0  0  0  0  0  0  0
    0.6495    3.3750    0.0000 O   0  0  0  0  0  0  0  0  0  0  0  0
  4  1  1  0
  5  4  1  0
  6  5  1  0
  7  6  1  0
  8  7  1  0
  9  8  1  0
 10  9  1  0
 11  2  1  0
 11 10  1  0
 12  3  1  0
 12 10  1  0
M  END
>  <NAME>  (2379) 
OCTANAL DIMETHYL ACETAL

>  <SYNONYMS>  (2379) 


>  <SPECTRUM TYPE>  (2379) 
MS1

>  <INSTRUMENT TYPE>  (2379) 
EI-B

>  <INSTRUMENT>  (2379) 
HITACHI M-80B

>  <ION MODE>  (2379) 
P

>  <INCHIKEY>  (2379) 
BZOOCKAFKVYAOZ-UHFFFAOYSA-N

>  <FORMULA>  (2379) 
C10H22O2

>  <EXACT MASS>  (2379) 
174.161979944

>  <MW>  (2379) 
174

>  <ID>  (2379) 
JP008630

>  <CONTRIBUTOR>  (2379) 
University of Tokyo Team, {Faculty of Engineering, University of Tokyo

>  <COMMENT>  (2379) 
SMILES=CCCCCCCC(OC)OC
InChI=InChI=1S/C10H22O2/c1-4-5-6-7-8-9-10(11-2)12-3/h10H,4-9H2,1-3H3
computed SMILES=O(C)C(OC)CCCCCCC
accession=JP008630
date=2016.01.19 (Created 2008.10.21, modified 2011.05.06)
author=SODA AROMATIC CO., LTD.
license=CC BY-NC-SA
exact mass=174.16198
ionization energy=70 eV
ion type=[M]+*
computed spectral entropy=1.8627900305978917
computed normalized entropy=0.6444811209869328
SPLASH=splash10-004i-9000000000-62ad737f155339544622
submitter=submitter = University of Tokyo Team (Faculty of Engineering, University of Tokyo)
MoNA Rating=3.75

>  <NUM PEAKS>  (2379) 
18

>  <MASS SPECTRAL PEAKS>  (2379) 
27 2.83
29 3.91
31 2.03
39 1.75
41 8.78
43 3.9
45 7.89
47 6.28
55 6.75
57 1.29
58 3.42
67 1.04
69 11.88
71 7
75 99.99
76 3.16
111 1.15
143 8.25

>  <PREDICTED SPECTRUM>  (2379) 
15 17
26 7
27 121
28 35
29 212
31 107
32 35
33 50
36 34
39 113
40 25
41 221
42 116
43 183
44 93
45 213
47 225
53 47
54 14
55 242
56 100
57 134
58 155
59 91
61 192
62 0
67 49
69 143
71 288
72 14
73 11
74 20
75 999
76 152
81 37
82 2
83 83
86 0
97 70
99 22
111 65
143 249

$$$$

     RDKit          2D

 11 10  0  0  0  0  0  0  0  0999 V2000
    2.2733    5.0625    0.0000 C   0  0  0  0  0  0  0  0  0  0  0  0
   -8.1190    5.0625    0.0000 C   0  0  0  0  0  0  0  0  0  0  0  0
   -6.8200    2.8125    0.0000 C   0  0  0  0  0  0  0  0  0  0  0  0
    0.9743    5.8125    0.0000 C   0  0  0  0  0  0  0  0  0  0  0  0
   -0.3248    5.0625    0.0000 C   0  0  0  0  0  0  0  0  0  0  0  0
   -1.6238    5.8125    0.0000 C   0  0  0  0  0  0  0  0  0  0  0  0
   -2.9228    5.0625    0.0000 C   0  0  0  0  0  0  0  0  0  0  0  0
   -4.2219    5.8125    0.0000 C   0  0  0  0  0  0  0  0  0  0  0  0
   -5.5209    5.0625    0.0000 C   0  0  0  0  0  0  0  0  0  0  0  0
   -6.8200    5.8125    0.0000 O   0  0  0  0  0  0  0  0  0  0  0  0
   -5.5209    3.5625    0.0000 O   0  0  0  0  0  0  0  0  0  0  0  0
  4  1  1  0
  5  4  1  0
  6  5  1  0
  7  6  1  0
  8  7  1  0
  9  8  1  0
 10  2  1  0
 10  9  1  0
 11  3  1  0
 11  9  1  0
M  END
>  <NAME>  (2380) 
HEPTANAL DIMETHYL ACETAL

>  <SYNONYMS>  (2380) 


>  <SPECTRUM TYPE>  (2380) 
MS1

>  <INSTRUMENT TYPE>  (2380) 
EI-B

>  <INSTRUMENT>  (2380) 
HITACHI M-80B

>  <ION MODE>  (2380) 
P

>  <INCHIKEY>  (2380) 
BBMCNYFBAIUERL-UHFFFAOYSA-N

>  <FORMULA>  (2380) 
C9H20O2

>  <EXACT MASS>  (2380) 
160.14632988

>  <MW>  (2380) 
160

>  <ID>  (2380) 
JP008629

>  <CONTRIBUTOR>  (2380) 
University of Tokyo Team, {Faculty of Engineering, University of Tokyo

>  <COMMENT>  (2380) 
SMILES=CCCCCCC(OC)OC
InChI=InChI=1S/C9H20O2/c1-4-5-6-7-8-9(10-2)11-3/h9H,4-8H2,1-3H3
computed SMILES=O(C)C(OC)CCCCCC
accession=JP008629
date=2016.01.19 (Created 2008.10.21, modified 2011.05.06)
author=SODA AROMATIC CO., LTD.
license=CC BY-NC-SA
exact mass=160.14633
ionization energy=70 eV
ion type=[M]+*
computed spectral entropy=2.199062683217223
computed normalized entropy=0.7013448380945485
SPLASH=splash10-004i-9000000000-7e9df771ae8c3f98881f
submitter=submitter = University of Tokyo Team (Faculty of Engineering, University of Tokyo)
MoNA Rating=3.75

>  <NUM PEAKS>  (2380) 
23

>  <MASS SPECTRAL PEAKS>  (2380) 
15 1.82
27 3.98
29 5.34
31 3.69
39 2.98
41 12.02
42 1.43
43 5.59
45 10.79
47 7.35
55 14.9
56 1.22
57 1.1
58 5.19
59 1.09
69 1.88
71 17.4
75 99.99
76 3.19
85 1.22
97 6.61
128 1.23
129 11.72

>  <PREDICTED SPECTRUM>  (2380) 
15 37
26 25
27 144
28 61
29 223
30 43
31 126
32 40
33 58
35 1
36 37
38 6
39 117
40 13
41 204
42 115
43 170
44 102
45 224
47 268
53 30
55 208
56 106
57 121
58 172
59 126
61 102
67 27
68 3
69 115
71 241
75 999
76 115
81 29
83 75
85 42
97 110
99 30
129 288
130 18

$$$$

     RDKit          2D

 10  9  0  0  0  0  0  0  0  0999 V2000
   -6.4952    4.5000    0.0000 C   0  0  0  0  0  0  0  0  0  0  0  0
    2.5981    3.7500    0.0000 C   0  0  0  0  0  0  0  0  0  0  0  0
    1.2990    1.5000    0.0000 C   0  0  0  0  0  0  0  0  0  0  0  0
   -5.1962    3.7500    0.0000 C   0  0  0  0  0  0  0  0  0  0  0  0
   -3.8971    4.5000    0.0000 C   0  0  0  0  0  0  0  0  0  0  0  0
   -2.5981    3.7500    0.0000 C   0  0  0  0  0  0  0  0  0  0  0  0
   -1.2990    4.5000    0.0000 C   0  0  0  0  0  0  0  0  0  0  0  0
    0.0000    3.7500    0.0000 C   0  0  0  0  0  0  0  0  0  0  0  0
    1.2990    4.5000    0.0000 O   0  0  0  0  0  0  0  0  0  0  0  0
   -0.0000    2.2500    0.0000 O   0  0  0  0  0  0  0  0  0  0  0  0
  4  1  1  0
  5  4  1  0
  6  5  1  0
  7  6  1  0
  8  7  1  0
  9  2  1  0
  9  8  1  0
 10  3  1  0
 10  8  1  0
M  END
>  <NAME>  (2381) 
HEXANAL DIMETHYL ACETAL

>  <SYNONYMS>  (2381) 


>  <SPECTRUM TYPE>  (2381) 
MS1

>  <INSTRUMENT TYPE>  (2381) 
EI-B

>  <INSTRUMENT>  (2381) 
HITACHI M-80B

>  <ION MODE>  (2381) 
P

>  <INCHIKEY>  (2381) 
ZQUJUCJLDXTKKW-UHFFFAOYSA-N

>  <FORMULA>  (2381) 
C8H18O2

>  <EXACT MASS>  (2381) 
146.130679816

>  <MW>  (2381) 
146

>  <ID>  (2381) 
JP008628

>  <CONTRIBUTOR>  (2381) 
University of Tokyo Team, {Faculty of Engineering, University of Tokyo

>  <COMMENT>  (2381) 
SMILES=CCCCCC(OC)OC
InChI=InChI=1S/C8H18O2/c1-4-5-6-7-8(9-2)10-3/h8H,4-7H2,1-3H3
computed SMILES=O(C)C(OC)CCCCC
license=CC BY-NC-SA
exact mass=146.13068
accession=JP008628
date=2016.01.19 (Created 2008.10.21, modified 2011.05.06)
author=SODA AROMATIC CO., LTD.
ionization energy=70 eV
ion type=[M]+*
computed spectral entropy=2.3044881511379525
computed normalized entropy=0.7692570432550769
SPLASH=splash10-004i-9000000000-418af211949e27265ed4
submitter=submitter = University of Tokyo Team (Faculty of Engineering, University of Tokyo)
MoNA Rating=3.75

>  <NUM PEAKS>  (2381) 
20

>  <MASS SPECTRAL PEAKS>  (2381) 
15 4.5
27 8.96
29 10.14
31 7.44
39 5.35
41 14.85
42 1.45
43 5.3
45 18.27
47 11.11
53 1.1
55 13.12
57 1.43
58 7.95
59 1.63
71 11.28
75 99.99
76 3.35
83 8.63
115 11.76

>  <PREDICTED SPECTRUM>  (2381) 
14 0
15 63
26 36
27 198
28 71
29 271
30 8
31 180
32 36
33 78
36 30
38 12
39 145
40 17
41 228
42 135
43 224
44 66
45 266
46 48
47 308
48 14
53 36
54 18
55 196
56 90
57 127
58 214
59 63
69 70
71 292
72 15
75 999
76 211
77 21
83 127
84 26
85 61
115 309
116 16

$$$$

     RDKit          2D

  8  7  0  0  0  0  0  0  0  0999 V2000
    1.9486    2.6250    0.0000 C   0  0  0  0  0  0  0  0  0  0  0  0
   -4.5466    3.3750    0.0000 C   0  0  0  0  0  0  0  0  0  0  0  0
   -3.2476    5.6250    0.0000 C   0  0  0  0  0  0  0  0  0  0  0  0
   -0.6495    2.6250    0.0000 C   0  0  0  0  0  0  0  0  0  0  0  0
   -1.9486    3.3750    0.0000 C   0  0  0  0  0  0  0  0  0  0  0  0
    0.6495    3.3750    0.0000 O   0  0  0  0  0  0  0  0  0  0  0  0
   -3.2476    2.6250    0.0000 O   0  0  0  0  0  0  0  0  0  0  0  0
   -1.9486    4.8750    0.0000 O   0  0  0  0  0  0  0  0  0  0  0  0
  5  4  1  0
  6  1  1  0
  6  4  1  0
  7  2  1  0
  7  5  1  0
  8  3  1  0
  8  5  1  0
M  END
>  <NAME>  (2382) 
METHOXYACETALDEHYDE DIMETHYL ACETAL

>  <SYNONYMS>  (2382) 


>  <SPECTRUM TYPE>  (2382) 
MS1

>  <INSTRUMENT TYPE>  (2382) 
EI-B

>  <INSTRUMENT>  (2382) 
HITACHI M-80B

>  <ION MODE>  (2382) 
P

>  <INCHIKEY>  (2382) 
DYOZNCVZPFIXLU-UHFFFAOYSA-N

>  <FORMULA>  (2382) 
C5H12O3

>  <EXACT MASS>  (2382) 
120.078644244

>  <MW>  (2382) 
120

>  <ID>  (2382) 
JP008627

>  <CONTRIBUTOR>  (2382) 
University of Tokyo Team, {Faculty of Engineering, University of Tokyo

>  <COMMENT>  (2382) 
SMILES=COCC(OC)OC
InChI=InChI=1S/C5H12O3/c1-6-4-5(7-2)8-3/h5H,4H2,1-3H3
computed SMILES=O(C)CC(OC)OC
accession=JP008627
date=2016.01.19 (Created 2008.10.21, modified 2011.05.06)
author=SODA AROMATIC CO., LTD.
license=CC BY-NC-SA
exact mass=120.07864
ionization energy=70 eV
ion type=[M]+*
computed spectral entropy=1.9259042989781772
computed normalized entropy=0.7111774730742842
SPLASH=splash10-004i-9000000000-52cd10bdee39d140e84d
submitter=submitter = University of Tokyo Team (Faculty of Engineering, University of Tokyo)
MoNA Rating=3.75

>  <NUM PEAKS>  (2382) 
15

>  <MASS SPECTRAL PEAKS>  (2382) 
15 6.65
27 1.29
29 11.04
31 16.94
42 1.45
43 6.03
45 14.63
47 18.56
58 2.19
59 16.2
73 1.06
74 1.32
75 99.99
76 3.76
89 14.98

>  <PREDICTED SPECTRUM>  (2382) 
14 25
15 147
17 2
18 16
26 28
27 96
28 95
29 271
30 151
31 298
32 61
33 94
38 44
39 77
41 59
42 34
43 244
44 65
45 621
46 76
47 401
48 16
49 29
57 178
58 326
59 308
60 62
61 143
62 21
71 195
73 92
74 73
75 999
76 186
77 35
88 74
89 371
90 69
105 46
106 12

$$$$

     RDKit          2D

  6  5  0  0  0  0  0  0  0  0999 V2000
   -1.2990    0.7500    0.0000 C   0  0  0  0  0  0  0  0  0  0  0  0
    1.2990    2.2500    0.0000 C   0  0  0  0  0  0  0  0  0  0  0  0
   -3.8971    2.2500    0.0000 C   0  0  0  0  0  0  0  0  0  0  0  0
   -1.2990    2.2500    0.0000 C   0  0  0  0  0  0  0  0  0  0  0  0
    0.0000    3.0000    0.0000 O   0  0  0  0  0  0  0  0  0  0  0  0
   -2.5981    3.0000    0.0000 O   0  0  0  0  0  0  0  0  0  0  0  0
  4  1  1  0
  5  2  1  0
  5  4  1  0
  6  3  1  0
  6  4  1  0
M  END
>  <NAME>  (2383) 
ACETALDEHYDE DIMETHYL ACETAL

>  <SYNONYMS>  (2383) 


>  <SPECTRUM TYPE>  (2383) 
MS1

>  <INSTRUMENT TYPE>  (2383) 
EI-B

>  <INSTRUMENT>  (2383) 
HITACHI M-80B

>  <ION MODE>  (2383) 
P

>  <INCHIKEY>  (2383) 
SPEUIVXLLWOEMJ-UHFFFAOYSA-N

>  <FORMULA>  (2383) 
C4H10O2

>  <EXACT MASS>  (2383) 
90.06807956

>  <MW>  (2383) 
90

>  <ID>  (2383) 
JP008626

>  <CONTRIBUTOR>  (2383) 
University of Tokyo Team, {Faculty of Engineering, University of Tokyo

>  <COMMENT>  (2383) 
SMILES=COC(C)OC
InChI=InChI=1S/C4H10O2/c1-4(5-2)6-3/h4H,1-3H3
computed SMILES=O(C)C(OC)C
accession=JP008626
date=2016.01.19 (Created 2008.10.21, modified 2011.05.06)
author=SODA AROMATIC CO., LTD.
license=CC BY-NC-SA
exact mass=90.06808
ionization energy=70 eV
ion type=[M]+*
computed spectral entropy=2.0595068389105378
computed normalized entropy=0.7125404658705929
SPLASH=splash10-0a6r-9000000000-888c99470f47c81f0c57
submitter=submitter = University of Tokyo Team (Faculty of Engineering, University of Tokyo)
MoNA Rating=3.75

>  <NUM PEAKS>  (2383) 
18

>  <MASS SPECTRAL PEAKS>  (2383) 
14 1.26
15 15.82
26 1.96
27 7.14
29 32.02
30 1.88
31 36.42
33 1.18
41 1.55
42 2.32
43 25.2
45 1.44
47 11.07
58 2.37
59 99.99
60 2.71
75 34.44
89 1.23

>  <PREDICTED SPECTRUM>  (2383) 
14 86
15 322
16 37
17 18
18 77
19 15
25 24
26 101
27 227
28 326
29 589
30 263
31 558
32 141
33 129
40 9
41 252
42 405
43 533
44 210
45 437
46 30
47 48
59 999
60 251
61 63
75 663
76 94
77 41
89 195
90 62

$$$$

     RDKit          2D

 14 14  0  0  0  0  0  0  0  0999 V2000
   -5.4764    3.0553    0.0000 C   0  0  0  0  0  0  0  0  0  0  0  0
    0.6840    4.2044    0.0000 C   0  0  0  0  0  0  0  0  0  0  0  0
   -1.2444    4.2044    0.0000 C   0  0  0  0  0  0  0  0  0  0  0  0
   -4.1773    2.3053    0.0000 C   0  0  0  0  0  0  0  0  0  0  0  0
    3.6169    0.8053    0.0000 C   0  0  0  0  0  0  0  0  0  0  0  0
    3.6174    2.3062    0.0000 C   0  0  0  0  0  0  0  0  0  0  0  0
    2.3174    0.0545    0.0000 C   0  0  0  0  0  0  0  0  0  0  0  0
    2.3183    3.0562    0.0000 C   0  0  0  0  0  0  0  0  0  0  0  0
    1.0183    0.8045    0.0000 C   0  0  0  0  0  0  0  0  0  0  0  0
   -1.5793    2.3053    0.0000 C   0  0  0  0  0  0  0  0  0  0  0  0
    1.0188    2.3053    0.0000 C   0  0  0  0  0  0  0  0  0  0  0  0
   -2.8783    3.0553    0.0000 C   0  0  0  0  0  0  0  0  0  0  0  0
   -0.2802    3.0553    0.0000 C   0  0  0  0  0  0  0  0  0  0  0  0
   -2.8783    4.5553    0.0000 O   0  0  0  0  0  0  0  0  0  0  0  0
  4  1  1  0
  6  5  2  0
  7  5  1  0
  8  6  1  0
  9  7  2  0
 11  8  2  0
 11  9  1  0
 12  4  1  0
 12 10  1  0
 13  2  1  0
 13  3  1  0
 13 10  1  0
 13 11  1  0
 14 12  2  0
M  END
>  <NAME>  (2384) 
5-METHYL-5-PHENYL-3-HEXANONE

>  <SYNONYMS>  (2384) 


>  <SPECTRUM TYPE>  (2384) 
MS1

>  <INSTRUMENT TYPE>  (2384) 
EI-B

>  <INSTRUMENT>  (2384) 
HITACHI M-80B

>  <ION MODE>  (2384) 
P

>  <INCHIKEY>  (2384) 
VEZKFOIEZCNFBT-UHFFFAOYSA-N

>  <FORMULA>  (2384) 
C13H18O

>  <EXACT MASS>  (2384) 
190.135765196

>  <MW>  (2384) 
190

>  <ID>  (2384) 
JP008625

>  <CONTRIBUTOR>  (2384) 
University of Tokyo Team, {Faculty of Engineering, University of Tokyo

>  <COMMENT>  (2384) 
SMILES=CCC(=O)CC(C)(C)c(c1)cccc1
InChI=InChI=1S/C13H18O/c1-4-12(14)10-13(2,3)11-8-6-5-7-9-11/h5-9H,4,10H2,1-3H3
computed SMILES=O=C(CC)CC(C=1C=CC=CC1)(C)C
accession=JP008625
date=2016.01.19 (Created 2008.10.21, modified 2011.05.06)
author=SODA AROMATIC CO., LTD.
license=CC BY-NC-SA
exact mass=190.13577
ionization energy=70 eV
ion type=[M]+*
computed spectral entropy=2.5513550668523113
computed normalized entropy=0.7501343734439403
SPLASH=splash10-014l-8900000000-17537446a7eead6f74a2
submitter=submitter = University of Tokyo Team (Faculty of Engineering, University of Tokyo)
MoNA Rating=3.75

>  <NUM PEAKS>  (2384) 
30

>  <MASS SPECTRAL PEAKS>  (2384) 
27 7.76
29 21.87
39 6.17
41 10.99
42 1.77
50 1.15
51 5.21
52 1.04
53 1.12
55 2.58
57 34.12
58 1.09
63 1.41
65 3.42
77 8.48
78 3.91
79 4.7
91 38.62
92 2.64
102 1.06
103 6.13
104 1.02
105 2.15
115 4.36
117 5.19
118 17.58
119 99.99
120 9.71
190 12.28
191 1.43

>  <PREDICTED SPECTRUM>  (2384) 
15 9
26 18
27 103
28 47
29 143
38 12
39 183
40 56
41 289
42 54
43 139
44 46
46 1
50 94
51 193
52 97
53 111
54 49
55 79
56 40
57 204
58 8
62 34
63 99
64 34
65 171
66 42
69 7
70 31
71 86
72 34
74 20
75 45
76 57
77 225
78 158
79 155
81 4
89 52
91 665
92 148
99 3
102 62
103 175
104 131
105 131
106 12
113 29
115 199
116 98
117 172
118 171
119 999
120 371
128 33
129 26
133 46
143 33
161 32
190 231
191 97
192 0

$$$$

     RDKit          2D

 13 13  0  0  0  0  0  0  0  0999 V2000
   -4.8268    1.9303    0.0000 C   0  0  0  0  0  0  0  0  0  0  0  0
    0.0344    3.8294    0.0000 C   0  0  0  0  0  0  0  0  0  0  0  0
   -1.8939    3.8294    0.0000 C   0  0  0  0  0  0  0  0  0  0  0  0
    2.9674    0.4303    0.0000 C   0  0  0  0  0  0  0  0  0  0  0  0
    2.9679    1.9312    0.0000 C   0  0  0  0  0  0  0  0  0  0  0  0
    1.6679   -0.3205    0.0000 C   0  0  0  0  0  0  0  0  0  0  0  0
    1.6688    2.6812    0.0000 C   0  0  0  0  0  0  0  0  0  0  0  0
    0.3688    0.4295    0.0000 C   0  0  0  0  0  0  0  0  0  0  0  0
   -2.2288    1.9303    0.0000 C   0  0  0  0  0  0  0  0  0  0  0  0
   -3.5278    2.6803    0.0000 C   0  0  0  0  0  0  0  0  0  0  0  0
    0.3693    1.9303    0.0000 C   0  0  0  0  0  0  0  0  0  0  0  0
   -0.9297    2.6803    0.0000 C   0  0  0  0  0  0  0  0  0  0  0  0
   -3.5278    4.1803    0.0000 O   0  0  0  0  0  0  0  0  0  0  0  0
  5  4  2  0
  6  4  1  0
  7  5  1  0
  8  6  2  0
 10  1  1  0
 10  9  1  0
 11  7  2  0
 11  8  1  0
 12  2  1  0
 12  3  1  0
 12  9  1  0
 12 11  1  0
 13 10  2  0
M  END
>  <NAME>  (2385) 
4-PHENYL-4-METHYL-2-PENTANONE

>  <SYNONYMS>  (2385) 


>  <SPECTRUM TYPE>  (2385) 
MS1

>  <INSTRUMENT TYPE>  (2385) 
EI-B

>  <INSTRUMENT>  (2385) 
HITACHI M-80B

>  <ION MODE>  (2385) 
P

>  <INCHIKEY>  (2385) 
PFDVPCSDZXZDMF-UHFFFAOYSA-N

>  <FORMULA>  (2385) 
C12H16O

>  <EXACT MASS>  (2385) 
176.120115132

>  <MW>  (2385) 
176

>  <ID>  (2385) 
JP008624

>  <CONTRIBUTOR>  (2385) 
University of Tokyo Team, {Faculty of Engineering, University of Tokyo

>  <COMMENT>  (2385) 
SMILES=CC(=O)CC(C)(C)c(c1)cccc1
InChI=InChI=1S/C12H16O/c1-10(13)9-12(2,3)11-7-5-4-6-8-11/h4-8H,9H2,1-3H3
computed SMILES=O=C(C)CC(C=1C=CC=CC1)(C)C
accession=JP008624
date=2016.01.19 (Created 2008.10.21, modified 2011.05.06)
author=SODA AROMATIC CO., LTD.
license=CC BY-NC-SA
exact mass=176.12012
ionization energy=70 eV
ion type=[M]+*
computed spectral entropy=2.617746694376449
computed normalized entropy=0.7304961238754482
SPLASH=splash10-00kf-9700000000-482f6e75a87a2ee4a39f
submitter=submitter = University of Tokyo Team (Faculty of Engineering, University of Tokyo)
MoNA Rating=3.75

>  <NUM PEAKS>  (2385) 
36

>  <MASS SPECTRAL PEAKS>  (2385) 
15 2.9
27 4.26
29 2.37
39 8.61
41 13.48
42 2.09
43 78.44
44 1.27
50 2.11
51 7.9
52 1.62
53 1.5
55 3.4
63 2.95
65 4.64
75 1.01
76 1.09
77 12.64
78 6.07
79 6.51
89 1.27
91 54.1
92 4.57
102 1.62
103 7.77
104 1.15
105 1.99
115 6.39
116 1.51
117 7.47
118 22.14
119 99.99
120 9.3
161 1.23
176 15.41
177 1.59

>  <PREDICTED SPECTRUM>  (2385) 
14 17
15 25
18 12
26 4
27 85
28 59
29 72
38 8
39 128
40 47
41 204
42 57
43 571
44 8
50 66
51 157
52 81
53 78
54 23
55 8
57 61
58 69
59 33
62 36
63 96
64 27
65 145
66 42
67 11
74 13
75 14
76 36
77 140
78 96
79 102
89 58
90 39
91 498
92 82
93 12
102 26
103 77
104 19
115 215
116 133
117 144
118 254
119 999
120 240
121 4
133 12
161 197
162 36
176 305
177 139

$$$$

     RDKit          2D

 17 17  0  0  0  0  0  0  0  0999 V2000
   -5.2000    0.0000    0.0000 C   0  0  0  0  0  0  0  0  0  0  0  0
   -5.2000    1.5000    0.0000 C   0  0  0  0  0  0  0  0  0  0  0  0
   -3.9000   -0.7500    0.0000 C   0  0  0  0  0  0  0  0  0  0  0  0
   -3.9000    2.2500    0.0000 C   0  0  0  0  0  0  0  0  0  0  0  0
   -2.6000    0.0000    0.0000 C   0  0  0  0  0  0  0  0  0  0  0  0
   -3.9000    3.7500    0.0000 C   0  0  0  0  0  0  0  0  0  0  0  0
   -1.3000   -0.7500    0.0000 C   0  0  0  0  0  0  0  0  0  0  0  0
   -2.6000    4.5000    0.0000 C   0  0  0  0  0  0  0  0  0  0  0  0
    0.0000    0.0000    0.0000 C   0  0  0  0  0  0  0  0  0  0  0  0
   -1.3000    3.7500    0.0000 C   0  0  0  0  0  0  0  0  0  0  0  0
    1.3000   -0.7500    0.0000 C   0  0  0  0  0  0  0  0  0  0  0  0
    0.0000    4.5000    0.0000 C   0  0  0  0  0  0  0  0  0  0  0  0
    2.6000   -0.0000    0.0000 C   0  0  0  0  0  0  0  0  0  0  0  0
    1.3000    3.7500    0.0000 C   0  0  0  0  0  0  0  0  0  0  0  0
    2.6000    1.5000    0.0000 C   0  0  0  0  0  0  0  0  0  0  0  0
    1.3000    2.2500    0.0000 C   0  0  0  0  0  0  0  0  0  0  0  0
    0.0011    1.4998    0.0000 O   0  0  0  0  0  0  0  0  0  0  0  0
  2  1  1  0
  3  1  1  0
  4  2  1  0
  5  3  1  0
  6  4  1  0
  7  5  1  0
  6  8  2  0
  9  7  1  0
 10  8  1  0
 11  9  1  0
 12 10  1  0
 13 11  1  0
 14 12  1  0
 15 13  1  0
 16 14  1  0
 16 15  1  0
 17 16  2  0
M  END
>  <NAME>  (2386) 
5-CYCLOHEXADECENONE

>  <SYNONYMS>  (2386) 


>  <SPECTRUM TYPE>  (2386) 
MS1

>  <INSTRUMENT TYPE>  (2386) 
EI-B

>  <INSTRUMENT>  (2386) 
HITACHI M-80B

>  <ION MODE>  (2386) 
P

>  <INCHIKEY>  (2386) 
ABRIMXGLNHCLIP-VURMDHGXSA-N

>  <FORMULA>  (2386) 
C16H28O

>  <EXACT MASS>  (2386) 
236.21401551600002

>  <MW>  (2386) 
236

>  <ID>  (2386) 
JP008623

>  <CONTRIBUTOR>  (2386) 
University of Tokyo Team, {Faculty of Engineering, University of Tokyo

>  <COMMENT>  (2386) 
SMILES=O=C(C1)CCCC=CCCCCCCCCC1
InChI=InChI=1S/C16H28O/c17-16-14-12-10-8-6-4-2-1-3-5-7-9-11-13-15-16/h6,8H,1-5,7,9-15H2/b8-6-
computed SMILES=O=C1CCCC=CCCCCCCCCCC1
accession=JP008623
date=2016.01.19 (Created 2008.10.21, modified 2011.05.06)
author=SODA AROMATIC CO., LTD.
license=CC BY-NC-SA
exact mass=236.21402
ionization energy=70 eV
ion type=[M]+*
computed spectral entropy=3.826784283798684
computed normalized entropy=0.8504324769624791
SPLASH=splash10-05nf-9100000000-a8132656cf02452a93ff
submitter=submitter = University of Tokyo Team (Faculty of Engineering, University of Tokyo)
MoNA Rating=3.75

>  <NUM PEAKS>  (2386) 
90

>  <MASS SPECTRAL PEAKS>  (2386) 
15 1.1
27 17.12
29 24.87
31 1.08
39 21.96
41 99.99
42 16.2
43 35.23
51 1.85
52 1.81
53 16.18
54 38.32
55 80.31
56 9.13
57 7.79
58 15.14
59 3.83
65 4.5
66 4.8
67 58.65
68 44.26
69 23.32
70 7.23
71 26.19
72 2.22
77 4.72
78 2.39
79 16.63
80 17.18
81 45.22
82 31.21
83 18.04
84 20.39
85 5.1
91 4.13
92 2.61
93 9.51
94 12.25
95 31.83
96 17.89
97 22.56
98 14.17
99 2.84
105 2.05
106 1.41
107 6.48
108 8.82
109 13.23
110 8.59
111 10.58
112 4.49
113 1.35
119 2.36
120 1.71
121 7.85
122 7.01
123 8.44
124 5.54
125 5.3
126 1.94
133 2.84
134 1.98
135 6.89
136 4.21
137 5.3
138 2.54
139 2.6
140 1.36
147 2.63
148 1.46
149 3.46
150 1.89
151 3.05
152 2.82
153 1.27
154 1.47
161 2.07
163 1.37
164 1.21
165 2.96
175 1.85
176 1.23
178 2.37
179 1.69
189 1.44
193 2.39
194 1.09
207 2.16
236 30.59
237 5.04

>  <PREDICTED SPECTRUM>  (2386) 
17 1
18 3
26 83
27 374
28 167
29 378
30 39
31 70
32 10
33 2
34 2
38 11
39 411
40 166
41 964
42 386
43 646
44 171
45 130
46 0
50 39
51 143
52 101
53 394
54 535
55 999
56 373
57 486
58 362
59 295
60 110
62 18
63 88
64 9
65 203
66 235
67 777
68 582
69 588
70 405
71 480
72 239
73 146
74 44
76 19
77 315
78 180
79 525
80 446
81 704
82 539
83 577
84 415
85 294
86 131
87 56
91 241
92 162
93 426
94 397
95 640
96 624
97 550
98 565
99 252
100 92
101 62
103 12
104 37
105 179
106 177
107 366
108 308
109 404
110 338
111 478
112 342
113 227
114 40
115 56
117 65
118 39
119 213
120 181
121 364
122 313
123 334
124 262
125 338
126 262
127 118
128 70
129 47
132 85
133 188
134 182
135 332
136 205
137 253
138 233
139 172
140 136
141 87
143 10
144 9
147 169
148 195
149 260
150 162
151 194
152 147
153 120
154 131
155 38
160 26
161 223
162 174
163 147
164 109
165 181
166 187
167 113
168 74
169 2
174 37
175 162
176 189
177 93
178 189
179 173
180 129
181 94
182 97
189 120
190 37
191 18
192 53
193 189
194 117
195 92
203 26
204 21
205 11
206 3
207 97
208 94
209 61
210 69
211 57
218 123
219 14
221 88
222 16
234 48
235 32
236 505
237 246
238 72

$$$$

     RDKit          2D

 12 13  0  0  0  0  0  0  0  0999 V2000
   -1.9087    3.1302    0.0000 C   0  0  0  0  0  0  0  0  0  0  0  0
   -2.0872   -0.3597    0.0000 C   0  0  0  0  0  0  0  0  0  0  0  0
   -1.1227   -2.0296    0.0000 C   0  0  0  0  0  0  0  0  0  0  0  0
    1.9900    0.8800    0.0000 C   0  0  0  0  0  0  0  0  0  0  0  0
    1.9900   -0.6200    0.0000 C   0  0  0  0  0  0  0  0  0  0  0  0
    1.2400    0.1300    0.0000 C   0  0  0  0  0  0  0  0  0  0  0  0
   -1.9089    1.6302    0.0000 C   0  0  0  0  0  0  0  0  0  0  0  0
    0.6900    1.6300    0.0000 C   0  0  0  0  0  0  0  0  0  0  0  0
    0.6900   -1.3700    0.0000 C   0  0  0  0  0  0  0  0  0  0  0  0
   -0.6100    0.8800    0.0000 C   0  0  0  0  0  0  0  0  0  0  0  0
   -0.6100   -0.6200    0.0000 C   0  0  0  0  0  0  0  0  0  0  0  0
   -3.2081    0.8804    0.0000 O   0  0  0  0  0  0  0  0  0  0  0  0
  5  4  1  0
  7  1  1  0
  8  4  1  0
  8  6  1  0
  9  5  1  0
  9  6  1  0
 10  7  1  0
 10  8  1  0
 11  2  1  0
 11  3  1  0
 11  9  1  0
 11 10  1  0
 12  7  2  0
M  END
>  <NAME>  (2387) 
2-ACETYL-3,3-DIMETHYLNORBORNANE

>  <SYNONYMS>  (2387) 


>  <SPECTRUM TYPE>  (2387) 
MS1

>  <INSTRUMENT TYPE>  (2387) 
EI-B

>  <INSTRUMENT>  (2387) 
HITACHI M-80B

>  <ION MODE>  (2387) 
P

>  <INCHIKEY>  (2387) 
NGTMQRCBACIUES-UHFFFAOYSA-N

>  <FORMULA>  (2387) 
C11H18O

>  <EXACT MASS>  (2387) 
166.135765196

>  <MW>  (2387) 
166

>  <ID>  (2387) 
JP008622

>  <CONTRIBUTOR>  (2387) 
University of Tokyo Team, {Faculty of Engineering, University of Tokyo

>  <COMMENT>  (2387) 
SMILES=CC(=O)C(C21)C(C)(C)C(CC2)C1
InChI=InChI=1S/C11H18O/c1-7(12)10-8-4-5-9(6-8)11(10,2)3/h8-10H,4-6H2,1-3H3
computed SMILES=O=C(C)C1C2CCC(C2)C1(C)C
accession=JP008622
date=2016.01.19 (Created 2008.10.21, modified 2011.05.06)
author=SODA AROMATIC CO., LTD.
license=CC BY-NC-SA
exact mass=166.13577
ionization energy=70 eV
ion type=[M]+*
computed spectral entropy=3.284926852305995
computed normalized entropy=0.8090070082929051
SPLASH=splash10-052f-9300000000-c788ea2dc609ab8d5ed5
submitter=submitter = University of Tokyo Team (Faculty of Engineering, University of Tokyo)
MoNA Rating=3.75

>  <NUM PEAKS>  (2387) 
58

>  <MASS SPECTRAL PEAKS>  (2387) 
15 3.71
27 13.44
29 7.74
39 23.66
41 41.44
42 2.98
43 99.99
44 1.54
45 2.3
50 1.09
51 3.77
52 2.16
53 14.44
54 2.91
55 21.53
56 1.61
57 3.39
63 1.19
65 5.35
66 5.06
67 49.62
68 3.77
69 15.61
70 1.3
71 2.36
77 10.79
78 2.13
79 16.63
80 4.15
81 47.11
82 5.41
83 12.88
84 6.91
85 5.58
91 5.74
92 1.11
93 21.32
94 2.3
95 11.61
96 2.93
97 3.86
98 1.4
99 68.39
100 4.43
105 2.77
106 1.96
107 8.47
108 64.49
109 16.62
110 2.28
121 1.16
123 75.4
124 5.97
133 2.46
148 11.28
149 1.37
151 5.7
166 3.71

>  <PREDICTED SPECTRUM>  (2387) 
26 36
27 265
28 63
29 193
38 59
39 381
40 205
41 685
42 126
43 999
44 145
45 61
50 80
51 230
52 174
53 424
54 213
55 504
56 164
57 173
58 57
59 136
60 6
63 99
64 20
65 247
66 152
67 616
68 200
69 360
70 121
71 325
72 57
77 369
78 136
79 438
80 294
81 615
82 170
83 232
84 179
85 26
86 6
91 363
92 131
93 435
94 169
95 388
96 161
97 106
98 107
99 8
105 422
106 166
107 303
108 511
109 305
110 124
111 89
119 39
121 139
122 136
123 865
124 244
125 47
133 166
137 83
138 51
148 182
151 167
166 199
167 47

$$$$

     RDKit          2D

 13 13  0  0  0  0  0  0  0  0999 V2000
   -4.8268    1.9303    0.0000 C   0  0  0  0  0  0  0  0  0  0  0  0
    0.0344    3.8294    0.0000 C   0  0  0  0  0  0  0  0  0  0  0  0
   -1.8939    3.8294    0.0000 C   0  0  0  0  0  0  0  0  0  0  0  0
    2.9674    0.4303    0.0000 C   0  0  0  0  0  0  0  0  0  0  0  0
    2.9679    1.9312    0.0000 C   0  0  0  0  0  0  0  0  0  0  0  0
    1.6679   -0.3205    0.0000 C   0  0  0  0  0  0  0  0  0  0  0  0
    1.6688    2.6812    0.0000 C   0  0  0  0  0  0  0  0  0  0  0  0
    0.3688    0.4295    0.0000 C   0  0  0  0  0  0  0  0  0  0  0  0
   -2.2288    1.9303    0.0000 C   0  0  0  0  0  0  0  0  0  0  0  0
   -3.5278    2.6803    0.0000 C   0  0  0  0  0  0  0  0  0  0  0  0
    0.3693    1.9303    0.0000 C   0  0  0  0  0  0  0  0  0  0  0  0
   -0.9297    2.6803    0.0000 C   0  0  0  0  0  0  0  0  0  0  0  0
   -3.5278    4.1803    0.0000 O   0  0  0  0  0  0  0  0  0  0  0  0
  5  4  1  0
  6  4  1  0
  7  5  1  0
  8  6  1  0
 10  1  1  0
 10  9  1  0
 11  7  1  0
 11  8  1  0
 12  2  1  0
 12  3  1  0
 12  9  1  0
 12 11  1  0
 13 10  2  0
M  END
>  <NAME>  (2388) 
4-CYCLOHEXYL-4-METHYL-2-PENTANONE

>  <SYNONYMS>  (2388) 


>  <SPECTRUM TYPE>  (2388) 
MS1

>  <INSTRUMENT TYPE>  (2388) 
EI-B

>  <INSTRUMENT>  (2388) 
HITACHI M-80B

>  <ION MODE>  (2388) 
P

>  <INCHIKEY>  (2388) 
OAFJAALOFJVHMK-UHFFFAOYSA-N

>  <FORMULA>  (2388) 
C12H22O

>  <EXACT MASS>  (2388) 
182.167065324

>  <MW>  (2388) 
182

>  <ID>  (2388) 
JP008621

>  <CONTRIBUTOR>  (2388) 
University of Tokyo Team, {Faculty of Engineering, University of Tokyo

>  <COMMENT>  (2388) 
SMILES=CC(=O)CC(C)(C)C(C1)CCCC1
InChI=InChI=1S/C12H22O/c1-10(13)9-12(2,3)11-7-5-4-6-8-11/h11H,4-9H2,1-3H3
computed SMILES=O=C(C)CC(C)(C)C1CCCCC1
accession=JP008621
date=2016.01.19 (Created 2008.10.21, modified 2011.05.06)
author=SODA AROMATIC CO., LTD.
license=CC BY-NC-SA
exact mass=182.16707
ionization energy=70 eV
ion type=[M]+*
computed spectral entropy=2.906191821633692
computed normalized entropy=0.7989341541403632
SPLASH=splash10-0006-9200000000-c2513f2e2687e901af85
submitter=submitter = University of Tokyo Team (Faculty of Engineering, University of Tokyo)
MoNA Rating=3.75

>  <NUM PEAKS>  (2388) 
38

>  <MASS SPECTRAL PEAKS>  (2388) 
27 6.7
29 7.37
39 9.74
41 30.37
42 2.24
43 99.99
44 1.78
53 5.64
54 3.98
55 24.97
56 6.95
57 6.63
58 4.64
59 1.03
65 1.07
66 1.39
67 13.86
68 3.71
69 11.68
77 1.45
79 2.16
80 4.89
81 25.04
82 13.51
83 14.07
85 24.6
86 1.08
95 4.07
96 1.06
98 1.15
99 13.55
100 4.05
109 16.2
110 1.14
123 1.02
124 58.38
125 10.92
149 1.38

>  <PREDICTED SPECTRUM>  (2388) 
15 16
26 25
27 199
28 87
29 195
31 4
32 9
38 12
39 244
40 77
41 496
42 143
43 926
44 72
45 65
50 43
51 105
52 74
53 222
54 144
55 463
56 191
57 325
58 307
59 235
60 18
63 29
65 77
66 64
67 324
68 154
69 352
70 117
71 98
77 115
78 22
79 139
80 115
81 448
82 236
83 429
84 224
85 492
86 36
93 17
95 7
96 89
97 160
98 111
99 350
100 111
101 49
107 43
109 320
110 51
111 27
124 999
125 407
126 112
138 14
139 62
167 73
182 37
183 4

$$$$

     RDKit          2D

 12 12  0  0  0  0  0  0  0  0999 V2000
   -3.1275    2.5540    0.0000 C   0  0  0  0  0  0  0  0  0  0  0  0
    0.4404    3.6856    0.0000 C   0  0  0  0  0  0  0  0  0  0  0  0
   -1.4880    3.6951    0.0000 C   0  0  0  0  0  0  0  0  0  0  0  0
   -1.8322    1.7977    0.0000 C   0  0  0  0  0  0  0  0  0  0  0  0
    2.0649    2.5349    0.0000 C   0  0  0  0  0  0  0  0  0  0  0  0
    0.7513    0.3100    0.0000 C   0  0  0  0  0  0  0  0  0  0  0  0
    3.3494    1.8100    0.0000 C   0  0  0  0  0  0  0  0  0  0  0  0
    2.0759   -0.4841    0.0000 C   0  0  0  0  0  0  0  0  0  0  0  0
    0.7659    1.7849    0.0000 C   0  0  0  0  0  0  0  0  0  0  0  0
    3.3749    0.2659    0.0000 C   0  0  0  0  0  0  0  0  0  0  0  0
   -0.5295    2.5413    0.0000 C   0  0  0  0  0  0  0  0  0  0  0  0
    4.6801   -0.4734    0.0000 O   0  0  0  0  0  0  0  0  0  0  0  0
  4  1  1  0
  7  5  1  0
  8  6  1  0
  9  5  1  0
  9  6  1  0
 10  7  1  0
 10  8  1  0
 11  2  1  0
 11  3  1  0
 11  4  1  0
 11  9  1  0
 12 10  2  0
M  END
>  <NAME>  (2389) 
4-TERT-AMYLCYCLOHEXANONE

>  <SYNONYMS>  (2389) 
4-(1,1-DIMETHYLPROPYL)CYCLOHEXANONE

>  <SPECTRUM TYPE>  (2389) 
MS1

>  <INSTRUMENT TYPE>  (2389) 
EI-B

>  <INSTRUMENT>  (2389) 
HITACHI M-80B

>  <ION MODE>  (2389) 
P

>  <INCHIKEY>  (2389) 
DCSKAMGZSIRJAQ-UHFFFAOYSA-N

>  <FORMULA>  (2389) 
C11H20O

>  <EXACT MASS>  (2389) 
168.15141526

>  <MW>  (2389) 
168

>  <ID>  (2389) 
JP008620

>  <CONTRIBUTOR>  (2389) 
University of Tokyo Team, {Faculty of Engineering, University of Tokyo

>  <COMMENT>  (2389) 
SMILES=CCC(C)(C)C(C1)CCC(=O)C1
InChI=InChI=1S/C11H20O/c1-4-11(2,3)9-5-7-10(12)8-6-9/h9H,4-8H2,1-3H3
computed SMILES=O=C1CCC(CC1)C(C)(C)CC
accession=JP008620
date=2016.01.19 (Created 2008.10.21, modified 2011.05.06)
author=SODA AROMATIC CO., LTD.
license=CC BY-NC-SA
exact mass=168.15142
ionization energy=70 eV
ion type=[M]+*
computed spectral entropy=2.9152084114960477
computed normalized entropy=0.765817410745007
SPLASH=splash10-006y-9000000000-d0a2fa7b15363d59135b
submitter=submitter = University of Tokyo Team (Faculty of Engineering, University of Tokyo)
MoNA Rating=3.75

>  <NUM PEAKS>  (2389) 
45

>  <MASS SPECTRAL PEAKS>  (2389) 
15 1.48
26 1.51
27 25.04
29 26.23
39 23.91
40 2.55
41 58.85
42 8.49
43 96.87
44 1.94
51 1.87
52 1.23
53 8.89
54 4.14
55 51.69
56 5.43
57 6.41
65 2.07
66 1.1
67 9.21
68 4.74
69 25.74
70 16.35
71 99.99
72 4.99
77 1.73
79 4.95
80 1.23
81 4.29
82 1.61
83 30.12
84 1.8
93 2.99
95 3.85
96 2.07
97 16.2
98 93.57
99 7.77
111 1.29
121 2.26
135 1.45
138 4.6
153 1.82
168 8.85
169 1.21

>  <PREDICTED SPECTRUM>  (2389) 
26 21
27 105
28 39
29 96
38 10
39 226
40 108
41 633
42 343
43 980
44 101
50 41
51 145
52 118
53 293
54 154
55 829
56 420
57 344
58 151
59 4
65 109
66 57
67 292
68 196
69 446
70 685
71 999
72 382
73 38
77 145
78 70
79 233
80 79
81 268
82 125
83 454
84 210
85 151
86 82
91 40
93 3
94 7
95 281
96 307
97 740
98 386
99 168
107 41
109 121
110 50
111 54
123 39
125 70
139 184
140 100
141 15
153 201
154 48
168 379
169 106

$$$$

     RDKit          2D

 11 11  0  0  0  0  0  0  0  0999 V2000
    2.6991    0.2013    0.0000 C   0  0  0  0  0  0  0  0  0  0  0  0
    3.2478    2.2504    0.0000 C   0  0  0  0  0  0  0  0  0  0  0  0
    1.1987    2.7991    0.0000 C   0  0  0  0  0  0  0  0  0  0  0  0
   -1.9500    0.7500    0.0000 C   0  0  0  0  0  0  0  0  0  0  0  0
   -1.9500   -0.7500    0.0000 C   0  0  0  0  0  0  0  0  0  0  0  0
   -0.6500    1.5000    0.0000 C   0  0  0  0  0  0  0  0  0  0  0  0
   -0.6500   -1.5000    0.0000 C   0  0  0  0  0  0  0  0  0  0  0  0
    0.6500    0.7500    0.0000 C   0  0  0  0  0  0  0  0  0  0  0  0
    0.6500   -0.7500    0.0000 C   0  0  0  0  0  0  0  0  0  0  0  0
    1.9489    1.5002    0.0000 C   0  0  0  0  0  0  0  0  0  0  0  0
    1.9489   -1.5002    0.0000 O   0  0  0  0  0  0  0  0  0  0  0  0
  5  4  1  0
  6  4  1  0
  7  5  1  0
  8  6  1  0
  9  7  1  0
  9  8  1  0
 10  1  1  0
 10  2  1  0
 10  3  1  0
 10  8  1  0
 11  9  2  0
M  END
>  <NAME>  (2390) 
2-TERT-BUTYLCYCLOHEXANONE

>  <SYNONYMS>  (2390) 
2-(1,1-DIMETHYLETHYL)CYCLOHEXANONE

>  <SPECTRUM TYPE>  (2390) 
MS1

>  <INSTRUMENT TYPE>  (2390) 
EI-B

>  <INSTRUMENT>  (2390) 
HITACHI M-80B

>  <ION MODE>  (2390) 
P

>  <INCHIKEY>  (2390) 
ZRYDPLOWJSFQAE-UHFFFAOYSA-N

>  <FORMULA>  (2390) 
C10H18O

>  <EXACT MASS>  (2390) 
154.135765196

>  <MW>  (2390) 
154

>  <ID>  (2390) 
JP008619

>  <CONTRIBUTOR>  (2390) 
University of Tokyo Team, {Faculty of Engineering, University of Tokyo

>  <COMMENT>  (2390) 
SMILES=O=C(C1)C(CCC1)C(C)(C)C
InChI=InChI=1S/C10H18O/c1-10(2,3)8-6-4-5-7-9(8)11/h8H,4-7H2,1-3H3
computed SMILES=O=C1CCCCC1C(C)(C)C
accession=JP008619
date=2016.01.19 (Created 2008.10.21, modified 2011.05.06)
author=SODA AROMATIC CO., LTD.
license=CC BY-NC-SA
exact mass=154.13577
ionization energy=70 eV
ion type=[M]+*
computed spectral entropy=2.8227702747545718
computed normalized entropy=0.7817320534676727
SPLASH=splash10-052b-9000000000-c37003efcd68c1a2d11d
submitter=submitter = University of Tokyo Team (Faculty of Engineering, University of Tokyo)
MoNA Rating=3.75

>  <NUM PEAKS>  (2390) 
37

>  <MASS SPECTRAL PEAKS>  (2390) 
15 1.03
27 11.65
29 12.5
39 14.67
40 1.01
41 39.68
42 6.97
43 8.23
51 1.44
53 5.54
54 1.35
55 26.23
56 5.16
57 31.03
58 1.18
65 1.1
67 6.72
68 1.44
69 23
70 20.5
71 1.95
77 1.27
79 1.76
81 2.11
83 20.58
84 1.58
93 1.17
95 9.28
96 1.28
97 9.55
98 99.99
99 7.13
110 1.75
111 1.63
121 1.08
139 11.07
154 2.15

>  <PREDICTED SPECTRUM>  (2390) 
26 24
27 217
28 61
29 214
38 31
39 386
40 216
41 848
42 301
43 461
44 146
50 62
51 175
52 137
53 316
54 122
55 671
56 295
57 813
58 113
59 39
65 176
66 101
67 360
68 168
69 628
70 547
71 300
72 82
77 113
78 61
79 206
81 226
82 117
83 498
84 203
85 110
86 70
87 30
91 27
93 106
95 118
96 78
97 999
98 886
99 392
100 5
109 12
110 134
111 512
112 230
113 116
121 45
125 56
126 315
127 63
139 417
140 75
154 519
155 150

$$$$

     RDKit          2D

 11 10  0  0  0  0  0  0  0  0999 V2000
   -8.4437    5.6250    0.0000 C   0  0  0  0  0  0  0  0  0  0  0  0
    3.2476    4.8750    0.0000 C   0  0  0  0  0  0  0  0  0  0  0  0
   -7.1447    4.8750    0.0000 C   0  0  0  0  0  0  0  0  0  0  0  0
    1.9486    5.6250    0.0000 C   0  0  0  0  0  0  0  0  0  0  0  0
   -5.8457    5.6250    0.0000 C   0  0  0  0  0  0  0  0  0  0  0  0
   -4.5466    4.8750    0.0000 C   0  0  0  0  0  0  0  0  0  0  0  0
   -3.2476    5.6250    0.0000 C   0  0  0  0  0  0  0  0  0  0  0  0
    0.6495    4.8750    0.0000 C   0  0  0  0  0  0  0  0  0  0  0  0
   -1.9486    4.8750    0.0000 C   0  0  0  0  0  0  0  0  0  0  0  0
   -1.9486    3.3750    0.0000 O   0  0  0  0  0  0  0  0  0  0  0  0
   -0.6495    5.6250    0.0000 O   0  0  0  0  0  0  0  0  0  0  0  0
  3  1  1  0
  4  2  2  0
  5  3  1  0
  6  5  1  0
  7  6  1  0
  8  4  1  0
  9  7  1  0
 10  9  2  0
 11  8  1  0
 11  9  1  0
M  END
>  <NAME>  (2391) 
ALLYL HEXANOATE

>  <SYNONYMS>  (2391) 


>  <SPECTRUM TYPE>  (2391) 
MS1

>  <INSTRUMENT TYPE>  (2391) 
EI-B

>  <INSTRUMENT>  (2391) 
HITACHI M-80B

>  <ION MODE>  (2391) 
P

>  <INCHIKEY>  (2391) 
RCSBILYQLVXLJG-UHFFFAOYSA-N

>  <FORMULA>  (2391) 
C9H16O2

>  <EXACT MASS>  (2391) 
156.115029752

>  <MW>  (2391) 
156

>  <ID>  (2391) 
JP008618

>  <CONTRIBUTOR>  (2391) 
University of Tokyo Team, {Faculty of Engineering, University of Tokyo

>  <COMMENT>  (2391) 
SMILES=CCCCCC(=O)OCC=C
InChI=InChI=1S/C9H16O2/c1-3-5-6-7-9(10)11-8-4-2/h4H,2-3,5-8H2,1H3
computed SMILES=O=C(OCC=C)CCCCC
accession=JP008618
date=2016.01.19 (Created 2008.10.21, modified 2011.05.06)
author=SODA AROMATIC CO., LTD.
license=CC BY-NC-SA
exact mass=156.11503
ionization energy=70 eV
ion type=[M]+*
computed spectral entropy=2.763028702553047
computed normalized entropy=0.7710378401804805
SPLASH=splash10-0006-9000000000-149d79e35c1f7b309b58
submitter=submitter = University of Tokyo Team (Faculty of Engineering, University of Tokyo)
MoNA Rating=3.75

>  <NUM PEAKS>  (2391) 
36

>  <MASS SPECTRAL PEAKS>  (2391) 
15 1.49
26 2.36
27 25.62
29 26.55
31 1.69
38 1.91
39 36.55
40 4.69
41 96.82
42 17.79
43 99.99
44 3.58
45 2.22
53 2.03
54 7.5
55 30.68
56 9.06
57 11.83
58 6.78
60 1.42
67 1.2
69 26.97
70 4.71
71 57.32
72 3.74
73 7.97
81 1.56
82 2.42
85 1.48
97 5.99
98 1.04
99 94.66
100 29.05
101 1.66
113 8.91
127 2.09

>  <PREDICTED SPECTRUM>  (2391) 
14 26
15 34
25 33
26 163
27 447
28 150
29 473
30 80
31 159
32 10
36 9
37 88
38 152
39 542
40 253
41 939
42 517
43 915
44 198
45 145
50 69
51 170
52 116
53 240
54 206
55 514
56 86
57 354
58 246
59 156
60 156
61 25
64 36
65 103
66 44
67 160
68 230
69 471
70 333
71 561
72 166
73 180
80 18
81 211
82 93
83 93
85 134
86 35
87 128
93 33
95 46
97 119
98 25
99 999
100 505
101 145
113 192
114 80
127 140
156 71

$$$$

     RDKit          2D

 11 11  0  0  0  0  0  0  0  0999 V2000
   -3.8969    2.5696    0.0000 C   0  0  0  0  0  0  0  0  0  0  0  0
    2.5983    0.3196    0.0000 C   0  0  0  0  0  0  0  0  0  0  0  0
    2.5988    1.8204    0.0000 C   0  0  0  0  0  0  0  0  0  0  0  0
    1.2988   -0.4312    0.0000 C   0  0  0  0  0  0  0  0  0  0  0  0
    1.2998    2.5704    0.0000 C   0  0  0  0  0  0  0  0  0  0  0  0
   -0.0002    0.3188    0.0000 C   0  0  0  0  0  0  0  0  0  0  0  0
   -2.5978    1.8196    0.0000 C   0  0  0  0  0  0  0  0  0  0  0  0
    0.0002    1.8196    0.0000 C   0  0  0  0  0  0  0  0  0  0  0  0
   -1.2988    2.5696    0.0000 C   0  0  0  0  0  0  0  0  0  0  0  0
   -2.5978    0.3196    0.0000 O   0  0  0  0  0  0  0  0  0  0  0  0
   -1.2988    4.0696    0.0000 O   0  0  0  0  0  0  0  0  0  0  0  0
  3  2  2  0
  4  2  1  0
  5  3  1  0
  6  4  2  0
  7  1  1  0
  8  5  2  0
  8  6  1  0
  9  7  1  0
  9  8  1  0
 10  7  2  0
 11  9  2  0
M  END
>  <NAME>  (2392) 
1-PHENYL-1,2-PROPANEDIONE

>  <SYNONYMS>  (2392) 


>  <SPECTRUM TYPE>  (2392) 
MS1

>  <INSTRUMENT TYPE>  (2392) 
EI-B

>  <INSTRUMENT>  (2392) 
HITACHI M-80B

>  <ION MODE>  (2392) 
P

>  <INCHIKEY>  (2392) 
BVQVLAIMHVDZEL-UHFFFAOYSA-N

>  <FORMULA>  (2392) 
C9H8O2

>  <EXACT MASS>  (2392) 
148.052429496

>  <MW>  (2392) 
148

>  <ID>  (2392) 
JP008617

>  <CONTRIBUTOR>  (2392) 
University of Tokyo Team, {Faculty of Engineering, University of Tokyo

>  <COMMENT>  (2392) 
SMILES=CC(=O)C(=O)c(c1)cccc1
InChI=InChI=1S/C9H8O2/c1-7(10)9(11)8-5-3-2-4-6-8/h2-6H,1H3
computed SMILES=O=C(C=1C=CC=CC1)C(=O)C
accession=JP008617
date=2016.01.19 (Created 2008.10.21, modified 2011.05.06)
author=SODA AROMATIC CO., LTD.
license=CC BY-NC-SA
exact mass=148.05243
ionization energy=70 eV
ion type=[M]+*
computed spectral entropy=1.8592987946730226
computed normalized entropy=0.6562508956742125
SPLASH=splash10-0a6r-9500000000-0ad1ba839fdf36b66932
submitter=submitter = University of Tokyo Team (Faculty of Engineering, University of Tokyo)
MoNA Rating=3.75

>  <NUM PEAKS>  (2392) 
17

>  <MASS SPECTRAL PEAKS>  (2392) 
15 5.19
27 1.96
38 1.33
39 1.84
42 1.5
43 18.42
50 12.2
51 33.51
52 1.49
74 3.8
75 1.73
76 2.58
77 78.91
78 5.44
105 99.99
106 7.94
148 1.62

>  <PREDICTED SPECTRUM>  (2392) 
14 11
15 29
25 1
26 18
28 28
29 65
37 43
38 79
39 174
40 19
43 911
44 106
49 38
50 317
51 596
52 136
53 13
62 103
63 157
64 17
66 26
74 132
75 138
76 167
77 883
78 276
79 60
89 12
102 37
105 999
106 271
133 66
147 224
148 363
149 130

$$$$

     RDKit          2D

 15 15  0  0  0  0  0  0  0  0999 V2000
   -4.5417    2.6398    0.0000 C   0  0  0  0  0  0  0  0  0  0  0  0
   -3.2538    0.3834    0.0000 C   0  0  0  0  0  0  0  0  0  0  0  0
    7.1567    0.3603    0.0000 C   0  0  0  0  0  0  0  0  0  0  0  0
    3.2487    2.6078    0.0000 C   0  0  0  0  0  0  0  0  0  0  0  0
    1.9352    0.3830    0.0000 C   0  0  0  0  0  0  0  0  0  0  0  0
    0.6544    2.6142    0.0000 C   0  0  0  0  0  0  0  0  0  0  0  0
    4.5332    1.8830    0.0000 C   0  0  0  0  0  0  0  0  0  0  0  0
    3.2597   -0.4112    0.0000 C   0  0  0  0  0  0  0  0  0  0  0  0
   -0.6484    1.8706    0.0000 C   0  0  0  0  0  0  0  0  0  0  0  0
   -3.2464    1.8834    0.0000 C   0  0  0  0  0  0  0  0  0  0  0  0
    1.9497    1.8578    0.0000 C   0  0  0  0  0  0  0  0  0  0  0  0
    4.5587    0.3388    0.0000 C   0  0  0  0  0  0  0  0  0  0  0  0
   -1.9437    2.6270    0.0000 C   0  0  0  0  0  0  0  0  0  0  0  0
   -1.9363    4.1270    0.0000 O   0  0  0  0  0  0  0  0  0  0  0  0
    5.8639   -0.4004    0.0000 O   0  0  0  0  0  0  0  0  0  0  0  0
  7  4  2  0
  8  5  1  0
  6  9  2  0
 10  1  1  0
 10  2  1  0
 11  4  1  0
 11  5  2  0
 11  6  1  0
 12  7  1  0
 12  8  2  0
 13  9  1  0
 13 10  1  0
 14 13  2  0
 15  3  1  0
 15 12  1  0
M  END
>  <NAME>  (2393) 
ISOPROPYL P-METHOXYSTYRYL KETONE

>  <SYNONYMS>  (2393) 
5-(4-METHOXYPHENYL)-2-METHYL-4-PENTEN-3-ONE

>  <SPECTRUM TYPE>  (2393) 
MS1

>  <INSTRUMENT TYPE>  (2393) 
EI-B

>  <INSTRUMENT>  (2393) 
HITACHI M-80B

>  <ION MODE>  (2393) 
P

>  <INCHIKEY>  (2393) 
ZIXVMEYRFPMOAV-RMKNXTFCSA-N

>  <FORMULA>  (2393) 
C13H16O2

>  <EXACT MASS>  (2393) 
204.115029752

>  <MW>  (2393) 
204

>  <ID>  (2393) 
JP008616

>  <CONTRIBUTOR>  (2393) 
University of Tokyo Team, {Faculty of Engineering, University of Tokyo

>  <COMMENT>  (2393) 
SMILES=COc(c1)ccc(C=CC(=O)C(C)C)c1
InChI=InChI=1S/C13H16O2/c1-10(2)13(14)9-6-11-4-7-12(15-3)8-5-11/h4-10H,1-3H3/b9-6+
computed SMILES=O=C(C=CC1=CC=C(OC)C=C1)C(C)C
accession=JP008616
date=2016.01.19 (Created 2008.10.21, modified 2011.05.06)
author=SODA AROMATIC CO., LTD.
license=CC BY-NC-SA
exact mass=204.11503
ionization energy=70 eV
ion type=[M]+*
computed spectral entropy=2.3851191717221227
computed normalized entropy=0.6945626263857092
SPLASH=splash10-03di-4900000000-d7d829dc70b2b49b3982
submitter=submitter = University of Tokyo Team (Faculty of Engineering, University of Tokyo)
MoNA Rating=3.75

>  <NUM PEAKS>  (2393) 
31

>  <MASS SPECTRAL PEAKS>  (2393) 
15 1.65
27 6
39 4.64
41 5.65
43 4.66
50 1.36
51 2.85
53 1.03
62 1.22
63 4.52
64 3.14
65 1.43
75 1.31
76 1.62
77 6.33
79 2.61
89 6.42
90 7.22
91 1.53
92 2.82
101 1.05
102 2.8
103 3
117 1.19
118 6.15
133 20.99
134 1.77
161 99.99
162 10.45
204 7.54
205 1.13

>  <PREDICTED SPECTRUM>  (2393) 
14 8
15 47
26 12
27 134
28 71
29 70
33 20
34 15
37 30
38 139
39 359
40 152
41 384
42 191
43 976
44 196
45 108
50 221
51 384
52 221
53 192
54 29
55 181
56 29
57 109
61 7
62 151
63 357
64 262
65 258
66 50
67 52
69 35
71 338
72 135
74 171
75 205
76 208
77 529
78 268
79 185
80 42
81 46
82 2
83 3
87 18
88 123
89 429
90 415
91 441
92 252
93 21
94 19
95 45
101 77
102 310
103 332
104 133
105 279
106 76
107 111
108 326
114 7
115 258
116 157
117 236
118 495
119 332
120 50
121 371
122 147
128 89
129 161
130 114
131 254
132 236
133 571
134 779
135 255
136 137
143 5
144 16
145 179
146 106
147 179
159 74
160 35
161 999
162 300
163 61
175 12
189 4
203 36
204 802
205 323
206 120

$$$$

     RDKit          2D

 14 14  0  0  0  0  0  0  0  0999 V2000
   -4.5473    2.6302    0.0000 C   0  0  0  0  0  0  0  0  0  0  0  0
    7.1512    0.3507    0.0000 C   0  0  0  0  0  0  0  0  0  0  0  0
   -3.2519    1.8738    0.0000 C   0  0  0  0  0  0  0  0  0  0  0  0
    0.6488    2.6046    0.0000 C   0  0  0  0  0  0  0  0  0  0  0  0
    3.2432    2.5982    0.0000 C   0  0  0  0  0  0  0  0  0  0  0  0
    1.9296    0.3734    0.0000 C   0  0  0  0  0  0  0  0  0  0  0  0
   -0.6539    1.8610    0.0000 C   0  0  0  0  0  0  0  0  0  0  0  0
    4.5277    1.8734    0.0000 C   0  0  0  0  0  0  0  0  0  0  0  0
    3.2542   -0.4208    0.0000 C   0  0  0  0  0  0  0  0  0  0  0  0
    1.9442    1.8482    0.0000 C   0  0  0  0  0  0  0  0  0  0  0  0
   -1.9492    2.6174    0.0000 C   0  0  0  0  0  0  0  0  0  0  0  0
    4.5532    0.3292    0.0000 C   0  0  0  0  0  0  0  0  0  0  0  0
   -1.9418    4.1174    0.0000 O   0  0  0  0  0  0  0  0  0  0  0  0
    5.8584   -0.4100    0.0000 O   0  0  0  0  0  0  0  0  0  0  0  0
  3  1  1  0
  4  7  2  0
  8  5  2  0
  9  6  1  0
 10  4  1  0
 10  5  1  0
 10  6  2  0
 11  3  1  0
 11  7  1  0
 12  8  1  0
 12  9  2  0
 13 11  2  0
 14  2  1  0
 14 12  1  0
M  END
>  <NAME>  (2394) 
ALPHA-METHYLANISALACETONE

>  <SYNONYMS>  (2394) 
5-(4-METHOXYPHENYL)-4-PENTEN-3-ONE

>  <SPECTRUM TYPE>  (2394) 
MS1

>  <INSTRUMENT TYPE>  (2394) 
EI-B

>  <INSTRUMENT>  (2394) 
HITACHI M-80B

>  <ION MODE>  (2394) 
P

>  <INCHIKEY>  (2394) 
SLDQOBRACOQXGE-QPJJXVBHSA-N

>  <FORMULA>  (2394) 
C12H14O2

>  <EXACT MASS>  (2394) 
190.099379688

>  <MW>  (2394) 
190

>  <ID>  (2394) 
JP008615

>  <CONTRIBUTOR>  (2394) 
University of Tokyo Team, {Faculty of Engineering, University of Tokyo

>  <COMMENT>  (2394) 
SMILES=CCC(=O)C=Cc(c1)ccc(OC)c1
InChI=InChI=1S/C12H14O2/c1-3-11(13)7-4-10-5-8-12(14-2)9-6-10/h4-9H,3H2,1-2H3/b7-4+
computed SMILES=O=C(C=CC1=CC=C(OC)C=C1)CC
accession=JP008615
date=2016.01.19 (Created 2008.10.21, modified 2011.05.06)
author=SODA AROMATIC CO., LTD.
license=CC BY-NC-SA
exact mass=190.09938
ionization energy=70 eV
ion type=[M]+*
computed spectral entropy=2.794216713414348
computed normalized entropy=0.72574275130992
SPLASH=splash10-03di-3900000000-9e477ebf4e87fe2634e2
submitter=submitter = University of Tokyo Team (Faculty of Engineering, University of Tokyo)
MoNA Rating=3.75

>  <NUM PEAKS>  (2394) 
47

>  <MASS SPECTRAL PEAKS>  (2394) 
15 2.02
26 1.16
27 5.54
29 5.27
38 1.19
39 3.01
44 1.82
50 1.9
51 3.13
53 1.06
55 2.01
57 1.9
62 1.8
63 6.18
64 3.32
65 1.43
75 1.77
76 1.74
77 7.19
78 1.39
79 2.16
89 7.96
90 8.07
91 2.32
92 3.74
101 1.14
102 3.16
103 3.84
108 1.1
115 1.76
117 1.73
118 7.1
119 1.33
132 1.01
133 29.08
134 2.67
146 1.22
157 1.72
159 1.07
161 99.99
162 8.55
173 1.53
187 2.38
188 3.9
189 1.39
190 19.26
191 2.01

>  <PREDICTED SPECTRUM>  (2394) 
15 34
17 2
26 51
27 195
28 81
29 297
30 24
31 5
37 7
38 83
39 259
40 59
41 141
42 39
43 30
44 18
50 155
51 205
52 89
53 137
55 138
56 22
57 175
62 94
63 199
64 187
65 178
66 99
67 35
69 21
74 67
75 59
76 113
77 296
78 128
79 131
80 9
81 38
82 41
88 29
89 275
90 261
91 285
92 194
94 11
101 89
102 249
103 219
104 69
105 222
106 34
107 95
108 30
115 118
116 57
117 182
118 268
119 197
120 30
121 110
122 4
131 134
132 112
133 575
134 211
135 15
145 61
146 182
147 209
148 26
159 92
161 999
162 365
163 65
175 96
176 6
189 139
190 537
191 176
192 15

$$$$

     RDKit          2D

 13 13  0  0  0  0  0  0  0  0999 V2000
    4.5813   -0.0176    0.0000 C   0  0  0  0  0  0  0  0  0  0  0  0
   -1.9139    3.7324    0.0000 C   0  0  0  0  0  0  0  0  0  0  0  0
   -3.2134   -0.0180    0.0000 C   0  0  0  0  0  0  0  0  0  0  0  0
    1.9837    1.4833    0.0000 C   0  0  0  0  0  0  0  0  0  0  0  0
    0.6847    2.2333    0.0000 C   0  0  0  0  0  0  0  0  0  0  0  0
    0.6837   -0.7684    0.0000 C   0  0  0  0  0  0  0  0  0  0  0  0
    3.2823   -0.7676    0.0000 C   0  0  0  0  0  0  0  0  0  0  0  0
    1.9832   -0.0176    0.0000 C   0  0  0  0  0  0  0  0  0  0  0  0
   -0.6148    1.4824    0.0000 C   0  0  0  0  0  0  0  0  0  0  0  0
   -0.6153   -0.0184    0.0000 C   0  0  0  0  0  0  0  0  0  0  0  0
    3.2823   -2.2676    0.0000 O   0  0  0  0  0  0  0  0  0  0  0  0
   -1.9139    2.2324    0.0000 O   0  0  0  0  0  0  0  0  0  0  0  0
   -1.9145   -0.7682    0.0000 O   0  0  0  0  0  0  0  0  0  0  0  0
  5  4  2  0
  7  1  1  0
  8  4  1  0
  8  6  2  0
  8  7  1  0
  9  5  1  0
 10  6  1  0
 10  9  2  0
 11  7  2  0
 12  2  1  0
 12  9  1  0
 13  3  1  0
 13 10  1  0
M  END
>  <NAME>  (2395) 
3,4-DIMETHOXYACETOPHENONE

>  <SYNONYMS>  (2395) 


>  <SPECTRUM TYPE>  (2395) 
MS1

>  <INSTRUMENT TYPE>  (2395) 
EI-B

>  <INSTRUMENT>  (2395) 
HITACHI M-80B

>  <ION MODE>  (2395) 
P

>  <INCHIKEY>  (2395) 
IQZLUWLMQNGTIW-UHFFFAOYSA-N

>  <FORMULA>  (2395) 
C10H12O3

>  <EXACT MASS>  (2395) 
180.07864424399997

>  <MW>  (2395) 
180

>  <ID>  (2395) 
JP008614

>  <CONTRIBUTOR>  (2395) 
University of Tokyo Team, {Faculty of Engineering, University of Tokyo

>  <COMMENT>  (2395) 
SMILES=COc(c1)c(OC)cc(C(C)=O)c1
InChI=InChI=1S/C10H12O3/c1-7(11)8-4-5-9(12-2)10(6-8)13-3/h4-6H,1-3H3
computed SMILES=O=C(C1=CC=C(OC)C(OC)=C1)C
accession=JP008614
date=2016.01.19 (Created 2008.10.21, modified 2011.05.06)
author=SODA AROMATIC CO., LTD.
license=CC BY-NC-SA
exact mass=180.07864
ionization energy=70 eV
ion type=[M]+*
computed spectral entropy=2.8104398875995265
computed normalized entropy=0.7618681831593194
SPLASH=splash10-014i-6900000000-fab3be00362e31d8eccf
submitter=submitter = University of Tokyo Team (Faculty of Engineering, University of Tokyo)
MoNA Rating=3.75

>  <NUM PEAKS>  (2395) 
40

>  <MASS SPECTRAL PEAKS>  (2395) 
14 1.23
15 7.95
29 1.26
38 1.26
39 3.32
41 1.5
43 24.03
50 5.23
51 14.05
52 2.05
53 3.86
62 2.07
63 6.27
64 1.97
65 3.75
66 4.56
74 1.21
75 1.5
76 4.4
77 15.28
78 2.2
79 16.82
80 1.38
91 2.93
92 6.17
94 6.54
95 1.2
105 1.37
107 5.85
109 4.5
119 3.45
120 1.71
121 1.72
122 8.07
137 10.27
165 99.99
166 9.2
167 1.01
180 49.18
181 4.88

>  <PREDICTED SPECTRUM>  (2395) 
14 34
15 135
16 14
17 0
18 14
26 33
27 55
28 62
29 81
32 3
37 64
38 125
39 166
40 85
41 91
42 75
43 499
44 102
49 64
50 282
51 369
52 208
53 276
54 72
55 94
58 10
59 1
61 59
62 200
63 320
64 214
65 297
66 234
67 120
68 63
74 149
75 164
76 227
77 391
78 227
79 365
80 140
81 86
82 29
83 58
84 9
88 12
89 97
90 107
91 158
92 209
93 165
94 273
95 157
96 22
103 50
104 136
105 207
106 163
107 323
108 168
109 226
110 53
117 12
118 12
119 173
120 80
121 200
122 349
123 135
124 65
133 112
134 100
135 177
136 64
137 249
138 84
147 23
149 30
150 173
151 117
163 86
164 12
165 999
166 333
167 115
180 693
181 212
182 38

$$$$

     RDKit          2D

 13 13  0  0  0  0  0  0  0  0999 V2000
   -3.5850    1.3225    0.0000 C   0  0  0  0  0  0  0  0  0  0  0  0
    6.8181   -0.2006    0.0000 C   0  0  0  0  0  0  0  0  0  0  0  0
   -0.9870    1.3097    0.0000 C   0  0  0  0  0  0  0  0  0  0  0  0
    0.3158    2.0533    0.0000 C   0  0  0  0  0  0  0  0  0  0  0  0
    2.9101    2.0469    0.0000 C   0  0  0  0  0  0  0  0  0  0  0  0
    1.5966   -0.1779    0.0000 C   0  0  0  0  0  0  0  0  0  0  0  0
    4.1946    1.3221    0.0000 C   0  0  0  0  0  0  0  0  0  0  0  0
    2.9211   -0.9721    0.0000 C   0  0  0  0  0  0  0  0  0  0  0  0
   -2.2823    2.0661    0.0000 C   0  0  0  0  0  0  0  0  0  0  0  0
    1.6111    1.2969    0.0000 C   0  0  0  0  0  0  0  0  0  0  0  0
    4.2201   -0.2221    0.0000 C   0  0  0  0  0  0  0  0  0  0  0  0
   -2.2749    3.5661    0.0000 O   0  0  0  0  0  0  0  0  0  0  0  0
    5.5253   -0.9613    0.0000 O   0  0  0  0  0  0  0  0  0  0  0  0
  4  3  1  0
  7  5  2  0
  8  6  1  0
  9  1  1  0
  9  3  1  0
 10  4  1  0
 10  5  1  0
 10  6  2  0
 11  7  1  0
 11  8  2  0
 12  9  2  0
 13  2  1  0
 13 11  1  0
M  END
>  <NAME>  (2396) 
ANISYLACETONE

>  <SYNONYMS>  (2396) 
4-(4-METHOXYPHENYL)-2-BUTANONE

>  <SPECTRUM TYPE>  (2396) 
MS1

>  <INSTRUMENT TYPE>  (2396) 
EI-B

>  <INSTRUMENT>  (2396) 
HITACHI M-80B

>  <ION MODE>  (2396) 
P

>  <INCHIKEY>  (2396) 
PCBSXBYCASFXTM-UHFFFAOYSA-N

>  <FORMULA>  (2396) 
C11H14O2

>  <EXACT MASS>  (2396) 
178.099379688

>  <MW>  (2396) 
178

>  <ID>  (2396) 
JP008613

>  <CONTRIBUTOR>  (2396) 
University of Tokyo Team, {Faculty of Engineering, University of Tokyo

>  <COMMENT>  (2396) 
SMILES=COc(c1)ccc(CCC(C)=O)c1
InChI=InChI=1S/C11H14O2/c1-9(12)3-4-10-5-7-11(13-2)8-6-10/h5-8H,3-4H2,1-2H3
computed SMILES=O=C(C)CCC1=CC=C(OC)C=C1
accession=JP008613
date=2016.01.19 (Created 2008.10.21, modified 2011.05.06)
author=SODA AROMATIC CO., LTD.
license=CC BY-NC-SA
exact mass=178.09938
ionization energy=70 eV
ion type=[M]+*
computed spectral entropy=2.4940028139091
computed normalized entropy=0.7132839755287368
SPLASH=splash10-00di-5900000000-47c1f7655edcdfde74c6
submitter=submitter = University of Tokyo Team (Faculty of Engineering, University of Tokyo)
MoNA Rating=3.75

>  <NUM PEAKS>  (2396) 
33

>  <MASS SPECTRAL PEAKS>  (2396) 
15 3.11
27 2.34
39 4.36
41 1.79
42 1.41
43 28.19
50 1.69
51 4.09
52 2.29
53 1.23
55 2.34
63 3
64 1.8
65 5.07
77 8.04
78 5.95
79 2.68
89 1.96
90 1.17
91 8.85
92 2.37
103 2.63
105 3.13
108 8.12
119 1.65
120 1.64
121 99.99
122 7.33
134 1.4
135 5.93
163 2.6
178 28.34
179 2.98

>  <PREDICTED SPECTRUM>  (2396) 
0 9
14 5
15 42
18 3
26 10
27 76
28 35
29 55
38 56
39 174
40 78
41 144
42 91
43 832
44 93
45 39
50 122
51 242
52 166
53 146
54 38
55 136
57 6
58 27
59 0
62 78
63 180
64 125
65 237
66 81
67 37
69 97
71 79
72 21
74 73
75 73
76 100
77 382
78 297
79 171
80 26
81 0
88 2
89 182
90 131
91 402
92 153
93 21
94 60
95 41
102 94
103 163
104 105
105 197
106 135
107 157
108 233
109 55
117 69
118 66
119 128
120 134
121 999
122 449
123 6
133 47
134 95
135 325
136 131
145 14
147 39
149 33
160 25
163 67
177 12
178 642
179 243
180 52

$$$$

     RDKit          2D

 16 17  0  0  0  0  0  0  0  0999 V2000
    3.2481    2.1950    0.0000 C   0  0  0  0  0  0  0  0  0  0  0  0
   -7.1442    2.1950    0.0000 C   0  0  0  0  0  0  0  0  0  0  0  0
    3.2486    3.6958    0.0000 C   0  0  0  0  0  0  0  0  0  0  0  0
    1.9486    1.4442    0.0000 C   0  0  0  0  0  0  0  0  0  0  0  0
   -5.8447    1.4442    0.0000 C   0  0  0  0  0  0  0  0  0  0  0  0
   -7.1447    3.6958    0.0000 C   0  0  0  0  0  0  0  0  0  0  0  0
    1.9495    4.4458    0.0000 C   0  0  0  0  0  0  0  0  0  0  0  0
    0.6495    2.1942    0.0000 C   0  0  0  0  0  0  0  0  0  0  0  0
   -4.5457    2.1942    0.0000 C   0  0  0  0  0  0  0  0  0  0  0  0
   -5.8457    4.4458    0.0000 C   0  0  0  0  0  0  0  0  0  0  0  0
   -0.6490    4.4450    0.0000 C   0  0  0  0  0  0  0  0  0  0  0  0
   -1.9481    3.6950    0.0000 C   0  0  0  0  0  0  0  0  0  0  0  0
    0.6500    3.6950    0.0000 C   0  0  0  0  0  0  0  0  0  0  0  0
   -4.5462    3.6950    0.0000 C   0  0  0  0  0  0  0  0  0  0  0  0
   -3.2471    4.4450    0.0000 C   0  0  0  0  0  0  0  0  0  0  0  0
   -3.2471    5.9450    0.0000 O   0  0  0  0  0  0  0  0  0  0  0  0
  3  1  2  0
  4  1  1  0
  5  2  2  0
  6  2  1  0
  7  3  1  0
  8  4  2  0
  9  5  1  0
 10  6  2  0
 12 11  1  0
 13  7  2  0
 13  8  1  0
 13 11  1  0
 14  9  2  0
 14 10  1  0
 15 12  1  0
 15 14  1  0
 16 15  2  0
M  END
>  <NAME>  (2397) 
BENZYLACETOPHENONE

>  <SYNONYMS>  (2397) 
3-PHENYLPROPIOPHENONE

>  <SPECTRUM TYPE>  (2397) 
MS1

>  <INSTRUMENT TYPE>  (2397) 
EI-B

>  <INSTRUMENT>  (2397) 
HITACHI M-80B

>  <ION MODE>  (2397) 
P

>  <INCHIKEY>  (2397) 
QGGZBXOADPVUPN-UHFFFAOYSA-N

>  <FORMULA>  (2397) 
C15H14O

>  <EXACT MASS>  (2397) 
210.104465068

>  <MW>  (2397) 
210

>  <ID>  (2397) 
JP008611

>  <CONTRIBUTOR>  (2397) 
University of Tokyo Team, {Faculty of Engineering, University of Tokyo

>  <COMMENT>  (2397) 
SMILES=O=C(CCc(c2)cccc2)c(c1)cccc1
InChI=InChI=1S/C15H14O/c16-15(14-9-5-2-6-10-14)12-11-13-7-3-1-4-8-13/h1-10H,11-12H2
computed SMILES=O=C(C=1C=CC=CC1)CCC=2C=CC=CC2
accession=JP008611
date=2016.01.19 (Created 2008.10.21, modified 2011.05.06)
author=SODA AROMATIC CO., LTD.
license=CC BY-NC-SA
exact mass=210.10447
ionization energy=70 eV
ion type=[M]+*
computed spectral entropy=2.0321697373762255
computed normalized entropy=0.6674839088707141
SPLASH=splash10-0a4i-7930000000-932c5f7279d2b7703686
submitter=submitter = University of Tokyo Team (Faculty of Engineering, University of Tokyo)
MoNA Rating=3.75

>  <NUM PEAKS>  (2397) 
21

>  <MASS SPECTRAL PEAKS>  (2397) 
18 1.71
27 2.4
39 2.95
50 2.93
51 10.54
52 1.47
63 1.61
65 3.42
76 1.57
77 43.43
78 4.69
79 2.53
89 1.03
91 9.02
103 2.96
104 4.27
105 99.99
106 6.79
209 1.71
210 32.89
211 4.9

>  <PREDICTED SPECTRUM>  (2397) 
18 11
26 44
27 109
28 55
37 48
38 109
39 281
40 102
41 160
42 59
43 38
44 45
49 53
50 246
51 469
52 267
53 206
54 77
55 88
61 10
62 134
63 241
64 128
65 350
66 107
67 0
68 47
69 31
70 65
74 127
75 146
76 153
77 669
78 361
79 365
80 115
81 35
89 212
90 71
91 764
92 256
93 68
94 21
95 5
102 79
103 290
104 249
105 999
106 312
107 137
109 1
115 194
117 17
118 53
119 235
120 199
121 134
122 29
131 67
132 67
133 300
134 95
136 22
165 3
167 101
181 19
182 27
192 91
193 42
209 56
210 614
211 236
212 48

$$$$

     RDKit          2D

 15 15  0  0  0  0  0  0  0  0999 V2000
   -3.9180    3.0020    0.0000 C   0  0  0  0  0  0  0  0  0  0  0  0
   -1.3421   -1.5107    0.0000 C   0  0  0  0  0  0  0  0  0  0  0  0
    6.4961    4.4979    0.0000 C   0  0  0  0  0  0  0  0  0  0  0  0
   -2.6227    2.2457    0.0000 C   0  0  0  0  0  0  0  0  0  0  0  0
   -1.3347   -0.0107    0.0000 C   0  0  0  0  0  0  0  0  0  0  0  0
    1.2781    4.4765    0.0000 C   0  0  0  0  0  0  0  0  0  0  0  0
    2.5481    2.2265    0.0000 C   0  0  0  0  0  0  0  0  0  0  0  0
    2.5481    5.2265    0.0000 C   0  0  0  0  0  0  0  0  0  0  0  0
    3.8981    2.9765    0.0000 C   0  0  0  0  0  0  0  0  0  0  0  0
    1.2781    2.9765    0.0000 C   0  0  0  0  0  0  0  0  0  0  0  0
    3.8981    4.4765    0.0000 C   0  0  0  0  0  0  0  0  0  0  0  0
   -0.0246    2.2329    0.0000 C   0  0  0  0  0  0  0  0  0  0  0  0
    5.1909    5.2372    0.0000 O   0  0  0  0  0  0  0  0  0  0  0  0
   -1.3199    2.9893    0.0000 O   0  0  0  0  0  0  0  0  0  0  0  0
   -0.0320    0.7329    0.0000 O   0  0  0  0  0  0  0  0  0  0  0  0
  4  1  1  0
  5  2  1  0
  8  6  2  0
  9  7  1  0
 10  6  1  0
 10  7  2  0
 11  8  1  0
 11  9  2  0
 12 10  1  0
 13  3  1  0
 13 11  1  0
 14  4  1  0
 14 12  1  0
 15  5  1  0
 15 12  1  0
M  END
>  <NAME>  (2398) 
PARA-ANISALDEHYDE DIETHYL ACETAL

>  <SYNONYMS>  (2398) 


>  <SPECTRUM TYPE>  (2398) 
MS1

>  <INSTRUMENT TYPE>  (2398) 
EI-B

>  <INSTRUMENT>  (2398) 
HITACHI M-80B

>  <ION MODE>  (2398) 
P

>  <INCHIKEY>  (2398) 
FTTLMNXOYOVHAG-UHFFFAOYSA-N

>  <FORMULA>  (2398) 
C12H18O3

>  <EXACT MASS>  (2398) 
210.125594436

>  <MW>  (2398) 
210

>  <ID>  (2398) 
JP008608

>  <CONTRIBUTOR>  (2398) 
University of Tokyo Team, {Faculty of Engineering, University of Tokyo

>  <COMMENT>  (2398) 
SMILES=CCOC(OCC)c(c1)ccc(OC)c1
InChI=InChI=1S/C12H18O3/c1-4-14-12(15-5-2)10-6-8-11(13-3)9-7-10/h6-9,12H,4-5H2,1-3H3
computed SMILES=O(C1=CC=C(C=C1)C(OCC)OCC)C
accession=JP008608
date=2016.01.19 (Created 2008.10.21, modified 2011.05.06)
author=SODA AROMATIC CO., LTD.
license=CC BY-NC-SA
exact mass=210.12559
ionization energy=70 eV
ion type=[M]+*
computed spectral entropy=2.4622642429349684
computed normalized entropy=0.7042067547831251
SPLASH=splash10-014r-3900000000-583a2a2090f1339e40c5
submitter=submitter = University of Tokyo Team (Faculty of Engineering, University of Tokyo)
MoNA Rating=3.75

>  <NUM PEAKS>  (2398) 
33

>  <MASS SPECTRAL PEAKS>  (2398) 
27 5.22
29 14.52
31 1.65
39 2.44
47 4.1
51 2.79
63 1.9
64 1.96
65 3.63
66 3.08
75 1.91
77 16.15
78 2.36
79 2.21
91 1.33
92 3.62
93 1.27
94 7.4
105 1.17
107 1.95
108 1.01
109 19.72
110 1.48
121 2.04
122 1.15
135 15.24
136 3.31
137 60.83
138 4.65
153 1.12
165 99.99
166 10.17
210 3.66

>  <PREDICTED SPECTRUM>  (2398) 
14 2
15 34
26 38
27 128
28 60
29 238
31 27
38 40
39 103
41 56
42 83
43 13
44 8
47 113
50 91
51 179
52 105
53 108
55 13
56 6
62 42
63 159
64 93
65 194
66 80
67 6
69 91
74 2
75 46
76 70
77 352
78 149
79 189
80 30
81 60
83 17
91 24
92 47
93 119
94 84
107 200
108 62
109 404
110 90
111 33
122 78
135 254
136 131
137 999
138 249
165 892
166 362
167 1
181 71
210 73

$$$$

     RDKit          2D

 14 14  0  0  0  0  0  0  0  0999 V2000
   -6.1702    4.2571    0.0000 C   0  0  0  0  0  0  0  0  0  0  0  0
   -3.5721   -0.2429    0.0000 C   0  0  0  0  0  0  0  0  0  0  0  0
   -4.8712    3.5071    0.0000 C   0  0  0  0  0  0  0  0  0  0  0  0
   -3.5721    1.2571    0.0000 C   0  0  0  0  0  0  0  0  0  0  0  0
    2.9231    2.0071    0.0000 C   0  0  0  0  0  0  0  0  0  0  0  0
    2.9236    3.5079    0.0000 C   0  0  0  0  0  0  0  0  0  0  0  0
    1.6236    1.2563    0.0000 C   0  0  0  0  0  0  0  0  0  0  0  0
    1.6245    4.2579    0.0000 C   0  0  0  0  0  0  0  0  0  0  0  0
    0.3245    2.0063    0.0000 C   0  0  0  0  0  0  0  0  0  0  0  0
   -0.9740    4.2571    0.0000 C   0  0  0  0  0  0  0  0  0  0  0  0
    0.3250    3.5071    0.0000 C   0  0  0  0  0  0  0  0  0  0  0  0
   -2.2731    3.5071    0.0000 C   0  0  0  0  0  0  0  0  0  0  0  0
   -3.5721    4.2571    0.0000 O   0  0  0  0  0  0  0  0  0  0  0  0
   -2.2731    2.0071    0.0000 O   0  0  0  0  0  0  0  0  0  0  0  0
  3  1  1  0
  4  2  1  0
  6  5  2  0
  7  5  1  0
  8  6  1  0
  9  7  2  0
 11  8  2  0
 11  9  1  0
 11 10  1  0
 12 10  1  0
 13  3  1  0
 13 12  1  0
 14  4  1  0
 14 12  1  0
M  END
>  <NAME>  (2399) 
PHENYLACETALDEHYDE DIETHYL ACETAL

>  <SYNONYMS>  (2399) 


>  <SPECTRUM TYPE>  (2399) 
MS1

>  <INSTRUMENT TYPE>  (2399) 
EI-B

>  <INSTRUMENT>  (2399) 
HITACHI M-80B

>  <ION MODE>  (2399) 
P

>  <INCHIKEY>  (2399) 
FYERTDTXGGOMGT-UHFFFAOYSA-N

>  <FORMULA>  (2399) 
C12H18O2

>  <EXACT MASS>  (2399) 
194.130679816

>  <MW>  (2399) 
194

>  <ID>  (2399) 
JP008607

>  <CONTRIBUTOR>  (2399) 
University of Tokyo Team, {Faculty of Engineering, University of Tokyo

>  <COMMENT>  (2399) 
SMILES=CCOC(OCC)Cc(c1)cccc1
InChI=InChI=1S/C12H18O2/c1-3-13-12(14-4-2)10-11-8-6-5-7-9-11/h5-9,12H,3-4,10H2,1-2H3
computed SMILES=O(CC)C(OCC)CC=1C=CC=CC1
accession=JP008607
date=2016.01.19 (Created 2008.10.21, modified 2011.05.06)
author=SODA AROMATIC CO., LTD.
license=CC BY-NC-SA
exact mass=194.13068
ionization energy=70 eV
ion type=[M]+*
computed spectral entropy=2.5653159382747748
computed normalized entropy=0.7002245863625337
SPLASH=splash10-0f95-9500000000-2d490d3461d03d9fd6fe
submitter=submitter = University of Tokyo Team (Faculty of Engineering, University of Tokyo)
MoNA Rating=3.75

>  <NUM PEAKS>  (2399) 
39

>  <MASS SPECTRAL PEAKS>  (2399) 
19 1.27
26 1.02
27 6.71
29 19.23
31 2.12
39 4.75
41 2.19
43 1.89
44 1.29
45 2.3
47 87.72
48 1.1
50 1.13
51 3.96
52 1.07
63 2.81
64 1.05
65 11.88
75 52.36
76 2
77 6.16
78 1.89
79 2.58
89 2.47
90 1.66
91 53.13
92 6.55
93 1.61
103 99.99
104 5.49
105 1.52
119 1.45
120 2.69
121 23.81
122 1.88
131 3.61
148 2.17
149 15.06
150 1.55

>  <PREDICTED SPECTRUM>  (2399) 
14 20
15 68
17 4
18 19
19 26
25 16
26 95
27 310
28 109
29 391
30 69
31 212
32 6
33 14
34 4
35 55
37 14
38 72
39 281
40 98
41 168
42 115
43 219
44 111
45 281
46 137
47 820
48 152
49 73
50 125
51 235
52 95
53 59
57 127
58 27
59 49
60 27
61 88
62 88
63 191
64 42
65 355
66 34
73 131
74 140
75 721
76 189
77 395
78 187
79 150
80 13
85 118
89 65
91 519
92 244
93 125
102 110
103 999
104 340
105 247
106 31
119 171
120 72
121 185
131 75
148 146
149 227
150 54
194 44
195 7

$$$$

     RDKit          2D

 20 19  0  0  0  0  0  0  0  0999 V2000
    4.5466    7.8750    0.0000 C   0  0  0  0  0  0  0  0  0  0  0  0
  -13.6399    7.8750    0.0000 C   0  0  0  0  0  0  0  0  0  0  0  0
   -7.1447   14.6250    0.0000 C   0  0  0  0  0  0  0  0  0  0  0  0
    3.2476    8.6250    0.0000 C   0  0  0  0  0  0  0  0  0  0  0  0
  -12.3409    8.6250    0.0000 C   0  0  0  0  0  0  0  0  0  0  0  0
   -7.1447   13.1250    0.0000 C   0  0  0  0  0  0  0  0  0  0  0  0
    1.9486    7.8750    0.0000 C   0  0  0  0  0  0  0  0  0  0  0  0
  -11.0418    7.8750    0.0000 C   0  0  0  0  0  0  0  0  0  0  0  0
   -5.8457   12.3750    0.0000 C   0  0  0  0  0  0  0  0  0  0  0  0
    0.6495    8.6250    0.0000 C   0  0  0  0  0  0  0  0  0  0  0  0
   -9.7428    8.6250    0.0000 C   0  0  0  0  0  0  0  0  0  0  0  0
   -5.8457   10.8750    0.0000 C   0  0  0  0  0  0  0  0  0  0  0  0
   -0.6495    7.8750    0.0000 C   0  0  0  0  0  0  0  0  0  0  0  0
   -8.4437    7.8750    0.0000 C   0  0  0  0  0  0  0  0  0  0  0  0
   -4.5466   10.1250    0.0000 C   0  0  0  0  0  0  0  0  0  0  0  0
   -1.9486    8.6250    0.0000 C   0  0  0  0  0  0  0  0  0  0  0  0
   -7.1447    8.6250    0.0000 C   0  0  0  0  0  0  0  0  0  0  0  0
   -4.5466    8.6250    0.0000 C   0  0  0  0  0  0  0  0  0  0  0  0
   -3.2476    7.8750    0.0000 O   0  0  0  0  0  0  0  0  0  0  0  0
   -5.8457    7.8750    0.0000 O   0  0  0  0  0  0  0  0  0  0  0  0
  4  1  1  0
  5  2  1  0
  6  3  1  0
  7  4  1  0
  8  5  1  0
  9  6  1  0
 10  7  1  0
 11  8  1  0
 12  9  1  0
 10 13  2  0
 14 11  1  0
 15 12  1  0
 16 13  1  0
 17 14  1  0
 18 15  1  0
 19 16  1  0
 19 18  1  0
 20 17  1  0
 20 18  1  0
M  END
>  <NAME>  (2400) 
HEXANAL TRANS-2-HEXENYL HEXYL ACETAL

>  <SYNONYMS>  (2400) 


>  <SPECTRUM TYPE>  (2400) 
MS1

>  <INSTRUMENT TYPE>  (2400) 
EI-B

>  <INSTRUMENT>  (2400) 
HITACHI M-80B

>  <ION MODE>  (2400) 
P

>  <INCHIKEY>  (2400) 
QXRVBRBGBSCHQO-JLHYYAGUSA-N

>  <FORMULA>  (2400) 
C18H36O2

>  <EXACT MASS>  (2400) 
284.271530392

>  <MW>  (2400) 
284

>  <ID>  (2400) 
JP008606

>  <CONTRIBUTOR>  (2400) 
University of Tokyo Team, {Faculty of Engineering, University of Tokyo

>  <COMMENT>  (2400) 
SMILES=CCCCCCOC(CCCCC)OCC=CCCC
InChI=InChI=1S/C18H36O2/c1-4-7-10-13-16-19-18(15-12-9-6-3)20-17-14-11-8-5-2/h10,13,18H,4-9,11-12,14-17H2,1-3H3/b13-10+
computed SMILES=O(CC=CCCC)C(OCCCCCC)CCCCC
accession=JP008606
date=2016.01.19 (Created 2008.10.21, modified 2011.05.06)
author=SODA AROMATIC CO., LTD.
license=CC BY-NC-SA
exact mass=284.27153
ionization energy=70 eV
ion type=[M]+*
computed spectral entropy=2.752193959868175
computed normalized entropy=0.7460785840531751
SPLASH=splash10-053u-9000000000-bccc801630b6fe874155
submitter=submitter = University of Tokyo Team (Faculty of Engineering, University of Tokyo)
MoNA Rating=3.75

>  <NUM PEAKS>  (2400) 
40

>  <MASS SPECTRAL PEAKS>  (2400) 
27 6.89
29 6.83
31 1.49
39 5.58
41 32.19
42 4.47
43 43.14
44 1.57
45 1.72
51 1.27
53 2.32
54 6.87
55 42.91
56 8.24
57 18.35
58 2.27
67 5.21
68 1.27
69 2.05
70 1.44
71 2.44
81 2.26
82 7.7
83 99.99
84 6.84
85 19.9
86 2.16
98 1.13
99 1.72
100 1.78
101 10.11
102 1.21
111 1.55
113 2.06
117 1.68
131 1.62
139 3.7
141 1.8
184 1.29
185 4.79

>  <PREDICTED SPECTRUM>  (2400) 
26 2
27 255
28 19
29 367
31 111
38 11
39 300
40 24
41 630
42 220
43 571
44 92
45 198
53 116
54 204
55 829
56 290
57 500
65 22
67 323
68 44
69 90
70 97
71 60
73 5
77 14
79 35
81 140
82 219
83 999
84 213
85 140
86 75
96 7
97 86
100 63
101 430
102 18
115 196
116 20
125 9
139 47
185 148

$$$$

     RDKit          2D

 20 19  0  0  0  0  0  0  0  0999 V2000
   -9.0933   15.7500    0.0000 C   0  0  0  0  0  0  0  0  0  0  0  0
    6.4952   15.7500    0.0000 C   0  0  0  0  0  0  0  0  0  0  0  0
    1.2990    6.7500    0.0000 C   0  0  0  0  0  0  0  0  0  0  0  0
   -7.7942   15.0000    0.0000 C   0  0  0  0  0  0  0  0  0  0  0  0
    5.1962   15.0000    0.0000 C   0  0  0  0  0  0  0  0  0  0  0  0
    1.2990    8.2500    0.0000 C   0  0  0  0  0  0  0  0  0  0  0  0
   -7.7942   13.5000    0.0000 C   0  0  0  0  0  0  0  0  0  0  0  0
    5.1962   13.5000    0.0000 C   0  0  0  0  0  0  0  0  0  0  0  0
    0.0000    9.0000    0.0000 C   0  0  0  0  0  0  0  0  0  0  0  0
   -6.4952   12.7500    0.0000 C   0  0  0  0  0  0  0  0  0  0  0  0
    3.8971   12.7500    0.0000 C   0  0  0  0  0  0  0  0  0  0  0  0
    0.0000   10.5000    0.0000 C   0  0  0  0  0  0  0  0  0  0  0  0
   -5.1962   13.5000    0.0000 C   0  0  0  0  0  0  0  0  0  0  0  0
    2.5981   13.5000    0.0000 C   0  0  0  0  0  0  0  0  0  0  0  0
   -1.2990   11.2500    0.0000 C   0  0  0  0  0  0  0  0  0  0  0  0
   -3.8971   12.7500    0.0000 C   0  0  0  0  0  0  0  0  0  0  0  0
    1.2990   12.7500    0.0000 C   0  0  0  0  0  0  0  0  0  0  0  0
   -1.2990   12.7500    0.0000 C   0  0  0  0  0  0  0  0  0  0  0  0
   -2.5981   13.5000    0.0000 O   0  0  0  0  0  0  0  0  0  0  0  0
   -0.0000   13.5000    0.0000 O   0  0  0  0  0  0  0  0  0  0  0  0
  4  1  1  0
  5  2  1  0
  6  3  1  0
  7  4  1  0
  8  5  1  0
  9  6  1  0
  7 10  2  0
  8 11  2  0
 12  9  1  0
 13 10  1  0
 14 11  1  0
 15 12  1  0
 16 13  1  0
 17 14  1  0
 18 15  1  0
 19 16  1  0
 19 18  1  0
 20 17  1  0
 20 18  1  0
M  END
>  <NAME>  (2401) 
HEXANAL DI-CIS-3-HEXENYL ACETAL

>  <SYNONYMS>  (2401) 


>  <SPECTRUM TYPE>  (2401) 
MS1

>  <INSTRUMENT TYPE>  (2401) 
EI-B

>  <INSTRUMENT>  (2401) 
HITACHI M-80B

>  <ION MODE>  (2401) 
P

>  <INCHIKEY>  (2401) 
UDANAIGXCGUZTC-DEFDFUCDSA-N

>  <FORMULA>  (2401) 
C18H34O2

>  <EXACT MASS>  (2401) 
282.255880328

>  <MW>  (2401) 
282

>  <ID>  (2401) 
JP008605

>  <CONTRIBUTOR>  (2401) 
University of Tokyo Team, {Faculty of Engineering, University of Tokyo

>  <COMMENT>  (2401) 
SMILES=CCC=CCCOC(CCCCC)OCCC=CCC
InChI=InChI=1S/C18H34O2/c1-4-7-10-13-16-19-18(15-12-9-6-3)20-17-14-11-8-5-2/h7-8,10-11,18H,4-6,9,12-17H2,1-3H3/b10-7-,11-8-
computed SMILES=O(CCC=CCC)C(OCCC=CCC)CCCCC
accession=JP008605
date=2016.01.19 (Created 2008.10.21, modified 2011.05.06)
author=SODA AROMATIC CO., LTD.
license=CC BY-NC-SA
exact mass=282.25588
ionization energy=70 eV
ion type=[M]+*
computed spectral entropy=2.2655383775098166
computed normalized entropy=0.6953564300723857
SPLASH=splash10-053r-9000000000-272f0839cc2bab2e900e
submitter=submitter = University of Tokyo Team (Faculty of Engineering, University of Tokyo)
MoNA Rating=3.75

>  <NUM PEAKS>  (2401) 
26

>  <MASS SPECTRAL PEAKS>  (2401) 
27 5.48
29 6.21
31 2.37
39 5.89
41 31.7
42 3.52
43 4.99
53 3.26
54 2.86
55 60.83
56 4.07
57 3.23
67 11.52
68 1.09
69 2.77
70 1.23
71 1.4
81 1.35
82 8.94
83 99.99
84 6.49
101 1.9
113 1.17
125 3.91
183 10.27
184 1.14

>  <PREDICTED SPECTRUM>  (2401) 
27 127
29 163
31 17
39 233
40 14
41 549
42 147
43 235
44 37
45 57
50 21
51 7
53 124
54 169
55 675
56 148
57 112
63 28
65 61
67 331
68 34
70 57
71 7
79 7
81 21
82 367
83 999
84 208
85 19
87 7
101 150
113 19
183 203

$$$$

     RDKit          2D

 12 11  0  0  0  0  0  0  0  0999 V2000
    3.2476    5.6250    0.0000 C   0  0  0  0  0  0  0  0  0  0  0  0
   -9.7428    5.6250    0.0000 C   0  0  0  0  0  0  0  0  0  0  0  0
   -3.2476    7.8750    0.0000 C   0  0  0  0  0  0  0  0  0  0  0  0
    1.9486    6.3750    0.0000 C   0  0  0  0  0  0  0  0  0  0  0  0
   -8.4437    6.3750    0.0000 C   0  0  0  0  0  0  0  0  0  0  0  0
    0.6495    5.6250    0.0000 C   0  0  0  0  0  0  0  0  0  0  0  0
   -7.1447    5.6250    0.0000 C   0  0  0  0  0  0  0  0  0  0  0  0
   -0.6495    6.3750    0.0000 C   0  0  0  0  0  0  0  0  0  0  0  0
   -5.8457    6.3750    0.0000 C   0  0  0  0  0  0  0  0  0  0  0  0
   -3.2476    6.3750    0.0000 C   0  0  0  0  0  0  0  0  0  0  0  0
   -1.9486    5.6250    0.0000 O   0  0  0  0  0  0  0  0  0  0  0  0
   -4.5466    5.6250    0.0000 O   0  0  0  0  0  0  0  0  0  0  0  0
  4  1  1  0
  5  2  1  0
  6  4  1  0
  7  5  1  0
  8  6  1  0
  9  7  1  0
 10  3  1  0
 11  8  1  0
 11 10  1  0
 12  9  1  0
 12 10  1  0
M  END
>  <NAME>  (2402) 
ACETALDEHYDE DIBUTYL ACETAL

>  <SYNONYMS>  (2402) 
1,1-DIBUTOXYETHANE

>  <SPECTRUM TYPE>  (2402) 
MS1

>  <INSTRUMENT TYPE>  (2402) 
EI-B

>  <INSTRUMENT>  (2402) 
HITACHI M-80B

>  <ION MODE>  (2402) 
P

>  <INCHIKEY>  (2402) 
SWTCCCJQNPGXLQ-UHFFFAOYSA-N

>  <FORMULA>  (2402) 
C10H22O2

>  <EXACT MASS>  (2402) 
174.161979944

>  <MW>  (2402) 
174

>  <ID>  (2402) 
JP008604

>  <CONTRIBUTOR>  (2402) 
University of Tokyo Team, {Faculty of Engineering, University of Tokyo

>  <COMMENT>  (2402) 
SMILES=CCCCOC(C)OCCCC
InChI=InChI=1S/C10H22O2/c1-4-6-8-11-10(3)12-9-7-5-2/h10H,4-9H2,1-3H3
computed SMILES=O(CCCC)C(OCCCC)C
accession=JP008604
date=2016.01.19 (Created 2008.10.21, modified 2011.05.06)
computed normalized entropy=0.7356335702304843
author=SODA AROMATIC CO., LTD.
license=CC BY-NC-SA
exact mass=174.16198
ionization energy=70 eV
ion type=[M]+*
computed spectral entropy=2.451281500558307
SPLASH=splash10-0pba-9200000000-fda0e8e84e9701e91907
submitter=submitter = University of Tokyo Team (Faculty of Engineering, University of Tokyo)
MoNA Rating=3.75

>  <NUM PEAKS>  (2402) 
28

>  <MASS SPECTRAL PEAKS>  (2402) 
15 1.71
18 1.24
26 1.4
27 17.37
29 35.27
31 9.13
39 8.04
41 42.43
42 3.72
43 13.04
44 4.2
45 81.12
46 1.62
53 1.12
55 6.54
56 20.34
57 99.99
58 4.8
61 1.93
72 1.01
83 2.58
85 3.26
100 1.33
101 81.29
102 4.52
103 4.14
159 13.84
160 1.19

>  <PREDICTED SPECTRUM>  (2402) 
14 18
15 110
19 26
25 5
26 59
27 239
28 122
29 357
30 11
31 116
33 14
38 7
39 243
40 86
41 606
42 203
43 423
44 165
45 565
46 67
47 21
53 73
54 9
55 183
56 351
57 821
58 151
59 130
71 149
72 69
73 150
75 28
83 4
85 36
87 109
88 11
89 18
100 7
101 999
102 244
103 289
104 43
114 34
115 154
116 19
117 73
131 73
159 291
160 75
173 67

$$$$

     RDKit          2D

  9  8  0  0  0  0  0  0  0  0999 V2000
   -3.5724    3.9375    0.0000 C   0  0  0  0  0  0  0  0  0  0  0  0
    2.9228    3.1875    0.0000 C   0  0  0  0  0  0  0  0  0  0  0  0
    1.6238    0.9375    0.0000 C   0  0  0  0  0  0  0  0  0  0  0  0
   -0.9743    3.9375    0.0000 C   0  0  0  0  0  0  0  0  0  0  0  0
   -2.2733    3.1875    0.0000 C   0  0  0  0  0  0  0  0  0  0  0  0
    0.3248    3.1875    0.0000 C   0  0  0  0  0  0  0  0  0  0  0  0
   -2.2733    1.6875    0.0000 O   0  0  0  0  0  0  0  0  0  0  0  0
    1.6238    3.9375    0.0000 O   0  0  0  0  0  0  0  0  0  0  0  0
    0.3248    1.6875    0.0000 O   0  0  0  0  0  0  0  0  0  0  0  0
  5  1  1  0
  5  4  1  0
  6  4  1  0
  7  5  2  0
  8  2  1  0
  8  6  1  0
  9  3  1  0
  9  6  1  0
M  END
>  <NAME>  (2403) 
1,1-DIMETHOXY-3-BUTANONE

>  <SYNONYMS>  (2403) 


>  <SPECTRUM TYPE>  (2403) 
MS1

>  <INSTRUMENT TYPE>  (2403) 
EI-B

>  <INSTRUMENT>  (2403) 
HITACHI M-80B

>  <ION MODE>  (2403) 
P

>  <INCHIKEY>  (2403) 
PJCCSZUMZMCWSX-UHFFFAOYSA-N

>  <FORMULA>  (2403) 
C6H12O3

>  <EXACT MASS>  (2403) 
132.078644244

>  <MW>  (2403) 
132

>  <ID>  (2403) 
JP008603

>  <CONTRIBUTOR>  (2403) 
University of Tokyo Team, {Faculty of Engineering, University of Tokyo

>  <COMMENT>  (2403) 
SMILES=COC(OC)CC(C)=O
InChI=InChI=1S/C6H12O3/c1-5(7)4-6(8-2)9-3/h6H,4H2,1-3H3
computed SMILES=O=C(C)CC(OC)OC
accession=JP008603
date=2016.01.19 (Created 2008.10.21, modified 2011.05.06)
author=SODA AROMATIC CO., LTD.
license=CC BY-NC-SA
exact mass=132.07864
ionization energy=70 eV
ion type=[M]+*
computed spectral entropy=2.2030227113757648
computed normalized entropy=0.7127118907675477
SPLASH=splash10-002f-9000000000-248141bca8e1165eafd7
submitter=submitter = University of Tokyo Team (Faculty of Engineering, University of Tokyo)
MoNA Rating=3.75

>  <NUM PEAKS>  (2403) 
22

>  <MASS SPECTRAL PEAKS>  (2403) 
14 1.84
15 13.54
26 1.29
27 6.03
28 1.01
29 10.56
31 10.98
33 1.16
39 1.45
41 1.01
42 5.91
43 99.99
44 2.15
45 1.38
47 11.47
58 7.45
59 5.78
75 45.99
76 1.14
85 10.84
101 9.29
117 7.7

>  <PREDICTED SPECTRUM>  (2403) 
14 29
15 107
25 4
26 52
27 135
28 58
29 216
30 13
31 198
32 60
33 76
38 31
39 123
40 40
41 140
42 74
43 454
44 84
45 150
46 26
47 329
48 51
49 17
53 75
54 27
55 157
57 29
58 248
59 146
61 21
69 35
71 37
75 999
76 147
85 102
100 2
101 154
117 140

$$$$

     RDKit          2D

 12 12  0  0  0  0  0  0  0  0999 V2000
    5.1978   -0.7723    0.0000 C   0  0  0  0  0  0  0  0  0  0  0  0
   -3.9026    1.4945    0.0000 C   0  0  0  0  0  0  0  0  0  0  0  0
    0.0053   -0.7531    0.0000 C   0  0  0  0  0  0  0  0  0  0  0  0
    1.3189    1.4718    0.0000 C   0  0  0  0  0  0  0  0  0  0  0  0
   -1.2792   -0.0282    0.0000 C   0  0  0  0  0  0  0  0  0  0  0  0
   -0.0056    2.2659    0.0000 C   0  0  0  0  0  0  0  0  0  0  0  0
    2.5997   -0.7595    0.0000 C   0  0  0  0  0  0  0  0  0  0  0  0
    3.9024   -0.0159    0.0000 C   0  0  0  0  0  0  0  0  0  0  0  0
    1.3044   -0.0031    0.0000 C   0  0  0  0  0  0  0  0  0  0  0  0
   -1.3047    1.5159    0.0000 C   0  0  0  0  0  0  0  0  0  0  0  0
    3.9098    1.4841    0.0000 O   0  0  0  0  0  0  0  0  0  0  0  0
   -2.6098    2.2552    0.0000 O   0  0  0  0  0  0  0  0  0  0  0  0
  5  3  2  0
  6  4  1  0
  8  1  1  0
  8  7  1  0
  9  3  1  0
  9  4  2  0
  9  7  1  0
 10  5  1  0
 10  6  2  0
 11  8  2  0
 12  2  1  0
 12 10  1  0
M  END
>  <NAME>  (2404) 
4-METHOXYPHENYLACETONE

>  <SYNONYMS>  (2404) 


>  <SPECTRUM TYPE>  (2404) 
MS1

>  <INSTRUMENT TYPE>  (2404) 
EI-B

>  <INSTRUMENT>  (2404) 
HITACHI M-80B

>  <ION MODE>  (2404) 
P

>  <INCHIKEY>  (2404) 
WFWKNGZODAOLEO-UHFFFAOYSA-N

>  <FORMULA>  (2404) 
C10H12O2

>  <EXACT MASS>  (2404) 
164.083729624

>  <MW>  (2404) 
164

>  <ID>  (2404) 
JP008602

>  <CONTRIBUTOR>  (2404) 
University of Tokyo Team, {Faculty of Engineering, University of Tokyo

>  <COMMENT>  (2404) 
SMILES=COc(c1)ccc(CC(C)=O)c1
InChI=InChI=1S/C10H12O2/c1-8(11)7-9-3-5-10(12-2)6-4-9/h3-6H,7H2,1-2H3
computed SMILES=O=C(C)CC1=CC=C(OC)C=C1
accession=JP008602
date=2016.01.19 (Created 2008.10.21, modified 2011.05.06)
author=SODA AROMATIC CO., LTD.
license=CC BY-NC-SA
exact mass=164.08373
ionization energy=70 eV
ion type=[M]+*
computed spectral entropy=1.9938448709431065
computed normalized entropy=0.6450396269313156
SPLASH=splash10-00di-5900000000-44778fdb56d419362f0b
submitter=submitter = University of Tokyo Team (Faculty of Engineering, University of Tokyo)
MoNA Rating=3.75

>  <NUM PEAKS>  (2404) 
22

>  <MASS SPECTRAL PEAKS>  (2404) 
15 2.86
27 1.16
39 3.18
41 1.42
43 14.48
50 2.25
51 5.33
52 4.12
53 1.17
63 2.51
65 1.82
77 10.03
78 12.74
79 1.24
89 1.95
90 1.33
91 4.3
106 1.38
121 99.99
122 9.02
164 11.42
165 1.12

>  <PREDICTED SPECTRUM>  (2404) 
14 25
15 79
26 48
27 119
28 17
29 0
37 48
38 123
39 256
40 109
41 29
42 87
43 768
44 133
45 48
50 216
51 355
52 250
53 155
54 36
55 54
58 5
62 105
63 241
64 137
65 250
66 104
74 83
75 67
76 136
77 457
78 391
79 238
80 72
81 5
89 223
90 204
91 342
92 141
94 49
102 13
103 127
104 143
105 340
106 275
107 163
108 47
120 19
121 999
122 436
123 78
149 28
150 14
163 36
164 494
165 158

$$$$

     RDKit          2D

  7  7  0  0  0  0  0  0  0  0999 V2000
   -0.0000    1.5000    0.0000 C   0  0  0  0  0  0  0  0  0  0  0  0
   -1.3000    0.7500    0.0000 C   0  0  0  0  0  0  0  0  0  0  0  0
    1.3000    0.7500    0.0000 C   0  0  0  0  0  0  0  0  0  0  0  0
   -1.3000   -0.7500    0.0000 C   0  0  0  0  0  0  0  0  0  0  0  0
    1.3000   -0.7500    0.0000 C   0  0  0  0  0  0  0  0  0  0  0  0
   -0.0000   -1.5000    0.0000 N   0  0  0  0  0  0  0  0  0  0  0  0
    2.5989   -1.5002    0.0000 O   0  0  0  0  0  0  0  0  0  0  0  0
  2  1  1  0
  3  1  1  0
  4  2  1  0
  5  3  1  0
  6  4  1  0
  6  5  2  0
  7  5  1  0
M  END
>  <NAME>  (2405) 
DELTA-VALEROLACTAM

>  <SYNONYMS>  (2405) 
2-PIPERIDONE

>  <SPECTRUM TYPE>  (2405) 
MS1

>  <INSTRUMENT TYPE>  (2405) 
EI-B

>  <INSTRUMENT>  (2405) 
HITACHI M-80B

>  <ION MODE>  (2405) 
P

>  <INCHIKEY>  (2405) 
XUWHAWMETYGRKB-UHFFFAOYSA-N

>  <FORMULA>  (2405) 
C5H9NO

>  <EXACT MASS>  (2405) 
99.068413908

>  <MW>  (2405) 
99

>  <ID>  (2405) 
JP008601

>  <CONTRIBUTOR>  (2405) 
University of Tokyo Team, {Faculty of Engineering, University of Tokyo

>  <COMMENT>  (2405) 
SMILES=O=C(C1)NCCC1
InChI=InChI=1S/C5H9NO/c7-5-3-1-2-4-6-5/h1-4H2,(H,6,7)
computed SMILES=OC1=NCCCC1
accession=JP008601
date=2016.01.19 (Created 2008.10.21, modified 2011.05.06)
author=SODA AROMATIC CO., LTD.
license=CC BY-NC-SA
exact mass=99.06841
ionization energy=70 eV
ion type=[M]+*
computed spectral entropy=2.744807470883118
computed normalized entropy=0.7993062604595942
SPLASH=splash10-0006-9000000000-a80b6b7cda436e704e7b
submitter=submitter = University of Tokyo Team (Faculty of Engineering, University of Tokyo)
MoNA Rating=3.75

>  <NUM PEAKS>  (2405) 
31

>  <MASS SPECTRAL PEAKS>  (2405) 
14 1.1
15 6.84
18 2.62
26 9.11
27 34.07
28 69.12
29 13.97
30 92.3
37 2.44
38 4.61
39 28.89
40 7.09
41 65.97
42 77.98
43 73.25
44 5.05
50 1.72
51 1.68
52 2.23
53 3.19
54 4.8
55 30.5
56 12.6
58 5.66
68 2.5
70 21.05
71 9.3
82 1.85
98 13.97
99 99.99
100 6.05

>  <PREDICTED SPECTRUM>  (2405) 
14 16
15 19
26 118
27 222
28 257
29 81
30 109
31 3
37 1
38 65
39 254
40 214
41 597
42 612
43 333
44 283
45 60
50 44
51 84
52 117
53 202
54 281
55 367
56 450
57 257
58 282
59 92
66 29
67 61
68 343
69 376
70 501
71 459
72 172
82 280
83 72
84 332
85 36
97 127
98 686
99 999
100 230

$$$$

     RDKit          2D

  8  7  0  0  0  0  0  0  0  0999 V2000
    1.9486    2.6250    0.0000 C   0  0  0  0  0  0  0  0  0  0  0  0
   -4.5466    3.3750    0.0000 C   0  0  0  0  0  0  0  0  0  0  0  0
    0.6495    3.3750    0.0000 C   0  0  0  0  0  0  0  0  0  0  0  0
   -3.2476    2.6250    0.0000 C   0  0  0  0  0  0  0  0  0  0  0  0
   -0.6495    2.6250    0.0000 C   0  0  0  0  0  0  0  0  0  0  0  0
   -1.9486    3.3750    0.0000 C   0  0  0  0  0  0  0  0  0  0  0  0
   -0.6495    1.1250    0.0000 O   0  0  0  0  0  0  0  0  0  0  0  0
   -1.9486    4.8750    0.0000 O   0  0  0  0  0  0  0  0  0  0  0  0
  3  1  1  0
  4  2  1  0
  5  3  1  0
  6  4  1  0
  6  5  1  0
  7  5  1  0
  8  6  2  0
M  END
>  <NAME>  (2406) 
4-HYDROXY-3-HEXANONE

>  <SYNONYMS>  (2406) 


>  <SPECTRUM TYPE>  (2406) 
MS1

>  <INSTRUMENT TYPE>  (2406) 
EI-B

>  <INSTRUMENT>  (2406) 
HITACHI M-80B

>  <ION MODE>  (2406) 
P

>  <INCHIKEY>  (2406) 
SKCYVGUCBRYGTE-UHFFFAOYSA-N

>  <FORMULA>  (2406) 
C6H12O2

>  <EXACT MASS>  (2406) 
116.083729624

>  <MW>  (2406) 
116

>  <ID>  (2406) 
JP008600

>  <CONTRIBUTOR>  (2406) 
University of Tokyo Team, {Faculty of Engineering, University of Tokyo

>  <COMMENT>  (2406) 
SMILES=CCC(O)C(=O)CC
InChI=InChI=1S/C6H12O2/c1-3-5(7)6(8)4-2/h5,7H,3-4H2,1-2H3
computed SMILES=O=C(CC)C(O)CC
accession=JP008600
date=2016.01.19 (Created 2008.10.21, modified 2011.05.06)
author=SODA AROMATIC CO., LTD.
license=CC BY-NC-SA
exact mass=116.08373
ionization energy=70 eV
ion type=[M]+*
computed spectral entropy=2.1782299778583845
computed normalized entropy=0.7271110296095447
SPLASH=splash10-0a4i-9000000000-1305f4ba1ce44486bae5
submitter=submitter = University of Tokyo Team (Faculty of Engineering, University of Tokyo)
MoNA Rating=3.75

>  <NUM PEAKS>  (2406) 
20

>  <MASS SPECTRAL PEAKS>  (2406) 
15 1.62
26 3.99
27 21.99
28 1.67
29 37.46
30 2.8
31 55.56
39 6.5
41 23.89
42 2.7
43 4.58
45 1.09
55 1.76
56 1.2
57 40.79
58 21.48
59 99.99
60 3.46
87 1.01
116 1.56

>  <PREDICTED SPECTRUM>  (2406) 
14 18
15 51
18 24
19 27
25 12
26 135
27 448
28 206
29 605
30 181
31 365
32 21
33 11
37 28
38 77
39 366
40 130
41 543
42 210
43 263
44 121
45 244
50 37
51 71
53 146
54 58
55 291
56 209
57 999
58 297
59 310
65 66
67 52
68 16
69 286
70 73
71 45
72 1
83 18
87 194
98 131

$$$$

     RDKit          2D

  8  7  0  0  0  0  0  0  0  0999 V2000
    1.8983    1.9620    0.0000 C   0  0  0  0  0  0  0  0  0  0  0  0
   -1.2488    4.0111    0.0000 C   0  0  0  0  0  0  0  0  0  0  0  0
   -3.2978    3.4620    0.0000 C   0  0  0  0  0  0  0  0  0  0  0  0
   -0.6998    1.9620    0.0000 C   0  0  0  0  0  0  0  0  0  0  0  0
    0.5993    2.7120    0.0000 C   0  0  0  0  0  0  0  0  0  0  0  0
   -1.9988    2.7120    0.0000 C   0  0  0  0  0  0  0  0  0  0  0  0
    0.5993    4.2120    0.0000 O   0  0  0  0  0  0  0  0  0  0  0  0
   -2.7488    1.4130    0.0000 O   0  0  0  0  0  0  0  0  0  0  0  0
  5  1  1  0
  5  4  1  0
  6  2  1  0
  6  3  1  0
  6  4  1  0
  7  5  2  0
  8  6  1  0
M  END
>  <NAME>  (2407) 
3-HYDROXY-3-METHYL-2-PENTANONE

>  <SYNONYMS>  (2407) 
DIACETONE ALCOHOL

>  <SPECTRUM TYPE>  (2407) 
MS1

>  <INSTRUMENT TYPE>  (2407) 
EI-B

>  <INSTRUMENT>  (2407) 
HITACHI M-80B

>  <ION MODE>  (2407) 
P

>  <INCHIKEY>  (2407) 
SWXVUIWOUIDPGS-UHFFFAOYSA-N

>  <FORMULA>  (2407) 
C6H12O2

>  <EXACT MASS>  (2407) 
116.083729624

>  <MW>  (2407) 
116

>  <ID>  (2407) 
JP008599

>  <CONTRIBUTOR>  (2407) 
University of Tokyo Team, {Faculty of Engineering, University of Tokyo

>  <COMMENT>  (2407) 
SMILES=CC(=O)CC(C)(C)O
InChI=InChI=1S/C6H12O2/c1-5(7)4-6(2,3)8/h8H,4H2,1-3H3
computed SMILES=O=C(C)CC(O)(C)C
accession=JP008599
date=2016.01.19 (Created 2008.10.21, modified 2011.05.06)
author=SODA AROMATIC CO., LTD.
license=CC BY-NC-SA
exact mass=116.08373
ionization energy=70 eV
ion type=[M]+*
computed spectral entropy=1.9791550264598663
computed normalized entropy=0.6721671056739501
SPLASH=splash10-052f-9000000000-8448b11a23b1992dae6d
submitter=submitter = University of Tokyo Team (Faculty of Engineering, University of Tokyo)
MoNA Rating=3.75

>  <NUM PEAKS>  (2407) 
19

>  <MASS SPECTRAL PEAKS>  (2407) 
15 8.39
26 1.34
27 5.85
29 3.42
31 8.35
39 5.26
41 6.43
42 4.84
43 99.99
44 1.86
55 1.36
56 3.57
57 1.15
58 14.94
59 40.2
60 1.16
83 1.09
98 2.24
101 11.95

>  <PREDICTED SPECTRUM>  (2407) 
14 39
15 106
16 8
17 5
18 18
25 7
26 45
27 119
28 55
29 82
31 172
32 8
39 114
40 74
41 217
42 90
43 932
44 116
45 106
50 12
51 9
52 11
53 85
54 21
55 75
56 54
57 57
58 510
59 999
60 196
61 114
76 12
83 153
98 26
101 301
102 59

$$$$

     RDKit          2D

  8  7  0  0  0  0  0  0  0  0999 V2000
    0.0000    0.0000    0.0000 C   0  0  0  0  0  0  0  0  0  0  0  0
    1.2990    2.2500    0.0000 C   0  0  0  0  0  0  0  0  0  0  0  0
   -2.5981    6.0000    0.0000 C   0  0  0  0  0  0  0  0  0  0  0  0
   -1.2990    2.2500    0.0000 C   0  0  0  0  0  0  0  0  0  0  0  0
   -1.2990    3.7500    0.0000 C   0  0  0  0  0  0  0  0  0  0  0  0
    0.0000    1.5000    0.0000 C   0  0  0  0  0  0  0  0  0  0  0  0
   -2.5981    4.5000    0.0000 C   0  0  0  0  0  0  0  0  0  0  0  0
   -3.8971    3.7500    0.0000 O   0  0  0  0  0  0  0  0  0  0  0  0
  5  4  1  0
  6  1  1  0
  6  2  1  0
  6  4  1  0
  7  3  1  0
  7  5  1  0
  8  7  2  0
M  END
>  <NAME>  (2408) 
5-METHYL-2-HEXANONE

>  <SYNONYMS>  (2408) 
ISOPENTYL METHYL KETONE

>  <SPECTRUM TYPE>  (2408) 
MS1

>  <INSTRUMENT TYPE>  (2408) 
EI-B

>  <INSTRUMENT>  (2408) 
HITACHI M-80B

>  <ION MODE>  (2408) 
P

>  <INCHIKEY>  (2408) 
FFWSICBKRCICMR-UHFFFAOYSA-N

>  <FORMULA>  (2408) 
C7H14O

>  <EXACT MASS>  (2408) 
114.104465068

>  <MW>  (2408) 
114

>  <ID>  (2408) 
JP008598

>  <CONTRIBUTOR>  (2408) 
University of Tokyo Team, {Faculty of Engineering, University of Tokyo

>  <COMMENT>  (2408) 
SMILES=CC(C)CCC(C)=O
InChI=InChI=1S/C7H14O/c1-6(2)4-5-7(3)8/h6H,4-5H2,1-3H3
computed SMILES=O=C(C)CCC(C)C
accession=JP008598
date=2016.01.19 (Created 2008.10.21, modified 2011.05.06)
author=SODA AROMATIC CO., LTD.
license=CC BY-NC-SA
exact mass=114.10447
ionization energy=70 eV
ion type=[M]+*
computed spectral entropy=2.074242668472737
computed normalized entropy=0.7176387130154257
SPLASH=splash10-0006-9000000000-40a76a6003700e807547
submitter=submitter = University of Tokyo Team (Faculty of Engineering, University of Tokyo)
MoNA Rating=3.75

>  <NUM PEAKS>  (2408) 
18

>  <MASS SPECTRAL PEAKS>  (2408) 
15 6.24
26 1.05
27 12.04
29 6.51
39 9.31
41 14.37
42 3.36
43 99.99
44 1.89
53 1.32
55 4.07
56 3.03
57 11.98
58 38.6
59 9.59
71 7.95
81 3.32
114 1.82

>  <PREDICTED SPECTRUM>  (2408) 
14 24
15 44
26 28
27 163
28 56
29 127
31 67
37 5
38 39
39 232
40 112
41 485
42 256
43 999
44 335
45 155
51 75
52 23
53 104
54 50
55 265
56 407
57 404
58 644
59 173
67 1
68 1
69 45
70 160
71 385
72 205
73 4
81 33
85 53
86 64
95 29
96 56
99 102
114 156
115 1

$$$$

     RDKit          2D

 11 10  0  0  0  0  0  0  0  0999 V2000
    2.5981    4.5000    0.0000 C   0  0  0  0  0  0  0  0  0  0  0  0
   -7.7942    4.5000    0.0000 C   0  0  0  0  0  0  0  0  0  0  0  0
    1.2990    5.2500    0.0000 C   0  0  0  0  0  0  0  0  0  0  0  0
    0.0000    4.5000    0.0000 C   0  0  0  0  0  0  0  0  0  0  0  0
   -1.2990    5.2500    0.0000 C   0  0  0  0  0  0  0  0  0  0  0  0
   -2.5981    4.5000    0.0000 C   0  0  0  0  0  0  0  0  0  0  0  0
   -3.8971    5.2500    0.0000 C   0  0  0  0  0  0  0  0  0  0  0  0
   -6.4952    5.2500    0.0000 C   0  0  0  0  0  0  0  0  0  0  0  0
   -5.1962    4.5000    0.0000 C   0  0  0  0  0  0  0  0  0  0  0  0
   -6.4952    6.7500    0.0000 O   0  0  0  0  0  0  0  0  0  0  0  0
   -5.1962    3.0000    0.0000 O   0  0  0  0  0  0  0  0  0  0  0  0
  3  1  1  0
  4  3  1  0
  5  4  1  0
  6  5  1  0
  7  6  1  0
  8  2  1  0
  9  7  1  0
  9  8  1  0
 10  8  2  0
 11  9  2  0
M  END
>  <NAME>  (2409) 
2,3-NONANEDIONE

>  <SYNONYMS>  (2409) 


>  <SPECTRUM TYPE>  (2409) 
MS1

>  <INSTRUMENT TYPE>  (2409) 
EI-B

>  <INSTRUMENT>  (2409) 
HITACHI M-80B

>  <ION MODE>  (2409) 
P

>  <INCHIKEY>  (2409) 
WNVKJGIJHKADAE-UHFFFAOYSA-N

>  <FORMULA>  (2409) 
C9H16O2

>  <EXACT MASS>  (2409) 
156.115029752

>  <MW>  (2409) 
156

>  <ID>  (2409) 
JP008597

>  <CONTRIBUTOR>  (2409) 
University of Tokyo Team, {Faculty of Engineering, University of Tokyo

>  <COMMENT>  (2409) 
SMILES=CCCCCCC(=O)C(C)=O
InChI=InChI=1S/C9H16O2/c1-3-4-5-6-7-9(11)8(2)10/h3-7H2,1-2H3
computed SMILES=O=C(C(=O)CCCCCC)C
accession=JP008597
date=2016.01.19 (Created 2008.10.21, modified 2011.05.06)
author=SODA AROMATIC CO., LTD.
license=CC BY-NC-SA
exact mass=156.11503
ionization energy=70 eV
ion type=[M]+*
computed spectral entropy=1.9973016210660677
computed normalized entropy=0.7049598383602832
SPLASH=splash10-0006-9000000000-2cbbffc2c3b98a8f3a86
submitter=submitter = University of Tokyo Team (Faculty of Engineering, University of Tokyo)
MoNA Rating=3.75

>  <NUM PEAKS>  (2409) 
17

>  <MASS SPECTRAL PEAKS>  (2409) 
15 4.93
27 12.46
29 11.37
39 7.02
41 19.91
42 4.98
43 99.99
44 2.45
53 1.05
55 6.19
56 1.11
57 10.61
69 1.29
85 11.78
95 1.36
113 20.46
114 1.2

>  <PREDICTED SPECTRUM>  (2409) 
14 35
15 107
16 4
18 7
25 14
26 85
27 269
28 124
29 210
30 49
31 63
32 13
36 7
37 20
38 58
39 228
40 99
41 374
42 118
43 999
44 113
50 15
51 52
52 27
53 124
54 54
55 208
56 51
57 329
58 149
59 54
65 11
66 1
67 64
68 13
69 84
70 12
71 217
72 87
81 3
83 38
84 58
85 250
86 95
95 89
96 4
99 108
100 56
113 289
114 76
127 42
128 31
141 50
156 59
157 11

$$$$

     RDKit          2D

 13 12  0  0  0  0  0  0  0  0999 V2000
    3.8971    6.0000    0.0000 C   0  0  0  0  0  0  0  0  0  0  0  0
  -10.3923    6.7500    0.0000 C   0  0  0  0  0  0  0  0  0  0  0  0
    2.5981    6.7500    0.0000 C   0  0  0  0  0  0  0  0  0  0  0  0
   -9.0933    6.0000    0.0000 C   0  0  0  0  0  0  0  0  0  0  0  0
    1.2990    6.0000    0.0000 C   0  0  0  0  0  0  0  0  0  0  0  0
    0.0000    6.7500    0.0000 C   0  0  0  0  0  0  0  0  0  0  0  0
   -1.2990    6.0000    0.0000 C   0  0  0  0  0  0  0  0  0  0  0  0
   -2.5981    6.7500    0.0000 C   0  0  0  0  0  0  0  0  0  0  0  0
   -3.8971    6.0000    0.0000 C   0  0  0  0  0  0  0  0  0  0  0  0
   -5.1962    6.7500    0.0000 C   0  0  0  0  0  0  0  0  0  0  0  0
   -6.4952    6.0000    0.0000 C   0  0  0  0  0  0  0  0  0  0  0  0
   -7.7942    6.7500    0.0000 C   0  0  0  0  0  0  0  0  0  0  0  0
   -7.7942    8.2500    0.0000 O   0  0  0  0  0  0  0  0  0  0  0  0
  3  1  1  0
  4  2  1  0
  5  3  1  0
  6  5  1  0
  7  6  1  0
  8  7  1  0
  9  8  1  0
 10  9  1  0
 11 10  1  0
 12  4  1  0
 12 11  1  0
 13 12  2  0
M  END
>  <NAME>  (2410) 
3-DODECANONE

>  <SYNONYMS>  (2410) 


>  <SPECTRUM TYPE>  (2410) 
MS1

>  <INSTRUMENT TYPE>  (2410) 
EI-B

>  <INSTRUMENT>  (2410) 
HITACHI M-80B

>  <ION MODE>  (2410) 
P

>  <INCHIKEY>  (2410) 
PERIHWAPLOBAJM-UHFFFAOYSA-N

>  <FORMULA>  (2410) 
C12H24O

>  <EXACT MASS>  (2410) 
184.182715388

>  <MW>  (2410) 
184

>  <ID>  (2410) 
JP008596

>  <CONTRIBUTOR>  (2410) 
University of Tokyo Team, {Faculty of Engineering, University of Tokyo

>  <COMMENT>  (2410) 
SMILES=CCCCCCCCCC(=O)CC
InChI=InChI=1S/C12H24O/c1-3-5-6-7-8-9-10-11-12(13)4-2/h3-11H2,1-2H3
computed SMILES=O=C(CC)CCCCCCCCC
accession=JP008596
date=2016.01.19 (Created 2008.10.21, modified 2011.05.06)
author=SODA AROMATIC CO., LTD.
license=CC BY-NC-SA
exact mass=184.18272
ionization energy=70 eV
ion type=[M]+*
computed spectral entropy=2.70618366487031
computed normalized entropy=0.7611585752132044
SPLASH=splash10-05i3-9000000000-2e9e147fc157b6a88b7e
submitter=submitter = University of Tokyo Team (Faculty of Engineering, University of Tokyo)
MoNA Rating=3.75

>  <NUM PEAKS>  (2410) 
35

>  <MASS SPECTRAL PEAKS>  (2410) 
26 1.11
27 21.67
29 62.99
30 1.23
39 9.79
41 38.54
42 9.46
43 56.38
44 1.34
53 2.78
54 1.86
55 19.21
56 5.02
57 89.02
58 2.48
67 3.62
68 1.6
69 5.26
70 1.97
71 27.99
72 99.99
73 24.16
81 4.74
82 1.07
83 1.87
84 1.1
85 29.72
86 1.82
95 4.81
96 1.4
99 2.09
110 2.1
155 25.54
156 2.25
184 1.83

>  <PREDICTED SPECTRUM>  (2410) 
15 40
26 35
27 268
28 89
29 434
30 76
31 45
39 183
40 41
41 548
42 194
43 692
44 227
45 40
51 0
53 157
54 113
55 372
56 219
57 999
58 522
59 172
66 24
67 169
68 107
69 170
70 78
71 395
72 629
73 158
74 6
77 18
79 12
81 190
82 111
83 121
84 33
85 322
86 167
95 174
96 146
97 110
98 22
99 164
100 48
101 7
109 87
110 92
112 15
113 82
114 35
123 64
126 34
127 138
128 95
137 36
155 369
156 96
157 5
166 29
184 174
185 47

$$$$

     RDKit          2D

 17 16  0  0  0  0  0  0  0  0999 V2000
    4.8714    8.8125    0.0000 C   0  0  0  0  0  0  0  0  0  0  0  0
  -14.6142    9.5625    0.0000 C   0  0  0  0  0  0  0  0  0  0  0  0
    3.5724    9.5625    0.0000 C   0  0  0  0  0  0  0  0  0  0  0  0
    2.2733    8.8125    0.0000 C   0  0  0  0  0  0  0  0  0  0  0  0
    0.9743    9.5625    0.0000 C   0  0  0  0  0  0  0  0  0  0  0  0
   -0.3248    8.8125    0.0000 C   0  0  0  0  0  0  0  0  0  0  0  0
   -1.6238    9.5625    0.0000 C   0  0  0  0  0  0  0  0  0  0  0  0
   -2.9228    8.8125    0.0000 C   0  0  0  0  0  0  0  0  0  0  0  0
   -4.2219    9.5625    0.0000 C   0  0  0  0  0  0  0  0  0  0  0  0
   -5.5209    8.8125    0.0000 C   0  0  0  0  0  0  0  0  0  0  0  0
   -6.8200    9.5625    0.0000 C   0  0  0  0  0  0  0  0  0  0  0  0
   -8.1190    8.8125    0.0000 C   0  0  0  0  0  0  0  0  0  0  0  0
   -9.4180    9.5625    0.0000 C   0  0  0  0  0  0  0  0  0  0  0  0
  -10.7171    8.8125    0.0000 C   0  0  0  0  0  0  0  0  0  0  0  0
  -12.0161    9.5625    0.0000 C   0  0  0  0  0  0  0  0  0  0  0  0
  -13.3151    8.8125    0.0000 C   0  0  0  0  0  0  0  0  0  0  0  0
  -13.3151    7.3125    0.0000 O   0  0  0  0  0  0  0  0  0  0  0  0
  3  1  1  0
  4  3  1  0
  5  4  1  0
  6  5  1  0
  7  6  1  0
  8  7  1  0
  9  8  1  0
 10  9  1  0
 11 10  1  0
 12 11  1  0
 13 12  1  0
 14 13  1  0
 15 14  1  0
 16  2  1  0
 16 15  1  0
 17 16  2  0
M  END
>  <NAME>  (2411) 
2-HEXADECANONE

>  <SYNONYMS>  (2411) 


>  <SPECTRUM TYPE>  (2411) 
MS1

>  <INSTRUMENT TYPE>  (2411) 
EI-B

>  <INSTRUMENT>  (2411) 
HITACHI M-80B

>  <ION MODE>  (2411) 
P

>  <INCHIKEY>  (2411) 
XCXKZBWAKKPFCJ-UHFFFAOYSA-N

>  <FORMULA>  (2411) 
C16H32O

>  <EXACT MASS>  (2411) 
240.245315644

>  <MW>  (2411) 
240

>  <ID>  (2411) 
JP008595

>  <CONTRIBUTOR>  (2411) 
University of Tokyo Team, {Faculty of Engineering, University of Tokyo

>  <COMMENT>  (2411) 
SMILES=CCCCCCCCCCCCCCC(C)=O
InChI=InChI=1S/C16H32O/c1-3-4-5-6-7-8-9-10-11-12-13-14-15-16(2)17/h3-15H2,1-2H3
computed SMILES=O=C(C)CCCCCCCCCCCCCC
accession=JP008595
date=2016.01.19 (Created 2008.10.21, modified 2011.05.06)
author=SODA AROMATIC CO., LTD.
license=CC BY-NC-SA
exact mass=240.24532
ionization energy=70 eV
ion type=[M]+*
computed spectral entropy=2.629113827794001
computed normalized entropy=0.717638757511155
SPLASH=splash10-0a4l-9000000000-5d631cf5b1a8da2be734
submitter=submitter = University of Tokyo Team (Faculty of Engineering, University of Tokyo)
MoNA Rating=3.75

>  <NUM PEAKS>  (2411) 
39

>  <MASS SPECTRAL PEAKS>  (2411) 
15 1.09
27 6.05
29 13.54
39 4.02
41 27.2
42 5.28
43 78.09
44 1.51
53 1.3
54 1.76
55 16.33
56 4.82
57 15.91
58 99.99
59 52.42
60 1.62
67 2.5
68 1.94
69 6.8
70 2.44
71 33.9
72 1.94
81 2.12
82 5.48
83 4.27
84 1.47
85 8.01
95 2
96 4.6
97 2.58
100 1.06
109 1.12
110 1.27
111 1.16
113 1.04
127 1.22
180 1.37
182 1.9
240 2.38

>  <PREDICTED SPECTRUM>  (2411) 
15 49
17 11
18 15
26 36
27 228
28 102
29 287
30 49
31 56
32 12
39 124
40 39
41 528
42 226
43 999
44 194
45 104
51 31
52 10
53 153
54 184
55 438
56 249
57 479
58 913
59 588
60 10
65 1
66 68
67 225
68 252
69 325
70 207
71 604
72 319
73 77
74 6
78 18
79 29
80 47
81 229
82 276
83 266
84 178
85 355
86 187
87 47
88 6
92 30
93 62
94 39
95 214
96 249
97 231
98 126
99 193
100 213
101 10
107 7
108 33
109 199
110 224
111 227
112 122
113 199
114 107
115 34
121 4
122 46
123 116
124 132
125 128
126 30
127 39
128 45
136 4
137 31
138 98
139 44
140 23
141 82
142 4
151 30
152 79
153 17
154 75
155 93
164 61
165 52
166 37
169 25
170 33
180 119
181 39
182 186
183 299
184 128
185 4
194 31
195 8
197 97
198 45
211 54
222 130
223 95
224 4
225 171
226 83
239 79
240 417
241 184
242 34

$$$$

     RDKit          2D

 15 14  0  0  0  0  0  0  0  0999 V2000
    4.2219    7.6875    0.0000 C   0  0  0  0  0  0  0  0  0  0  0  0
  -12.6656    8.4375    0.0000 C   0  0  0  0  0  0  0  0  0  0  0  0
    2.9228    8.4375    0.0000 C   0  0  0  0  0  0  0  0  0  0  0  0
    1.6238    7.6875    0.0000 C   0  0  0  0  0  0  0  0  0  0  0  0
    0.3248    8.4375    0.0000 C   0  0  0  0  0  0  0  0  0  0  0  0
   -0.9743    7.6875    0.0000 C   0  0  0  0  0  0  0  0  0  0  0  0
   -2.2733    8.4375    0.0000 C   0  0  0  0  0  0  0  0  0  0  0  0
   -3.5724    7.6875    0.0000 C   0  0  0  0  0  0  0  0  0  0  0  0
   -4.8714    8.4375    0.0000 C   0  0  0  0  0  0  0  0  0  0  0  0
   -6.1704    7.6875    0.0000 C   0  0  0  0  0  0  0  0  0  0  0  0
   -7.4695    8.4375    0.0000 C   0  0  0  0  0  0  0  0  0  0  0  0
   -8.7685    7.6875    0.0000 C   0  0  0  0  0  0  0  0  0  0  0  0
  -10.0675    8.4375    0.0000 C   0  0  0  0  0  0  0  0  0  0  0  0
  -11.3666    7.6875    0.0000 C   0  0  0  0  0  0  0  0  0  0  0  0
  -11.3666    6.1875    0.0000 O   0  0  0  0  0  0  0  0  0  0  0  0
  3  1  1  0
  4  3  1  0
  5  4  1  0
  6  5  1  0
  7  6  1  0
  8  7  1  0
  9  8  1  0
 10  9  1  0
 11 10  1  0
 12 11  1  0
 13 12  1  0
 14  2  1  0
 14 13  1  0
 15 14  2  0
M  END
>  <NAME>  (2412) 
2-TETRADECANONE

>  <SYNONYMS>  (2412) 


>  <SPECTRUM TYPE>  (2412) 
MS1

>  <INSTRUMENT TYPE>  (2412) 
EI-B

>  <INSTRUMENT>  (2412) 
HITACHI M-80B

>  <ION MODE>  (2412) 
P

>  <INCHIKEY>  (2412) 
POQLVOYRGNFGRM-UHFFFAOYSA-N

>  <FORMULA>  (2412) 
C14H28O

>  <EXACT MASS>  (2412) 
212.214015516

>  <MW>  (2412) 
212

>  <ID>  (2412) 
JP008594

>  <CONTRIBUTOR>  (2412) 
University of Tokyo Team, {Faculty of Engineering, University of Tokyo

>  <COMMENT>  (2412) 
SMILES=CCCCCCCCCCCCC(C)=O
InChI=InChI=1S/C14H28O/c1-3-4-5-6-7-8-9-10-11-12-13-14(2)15/h3-13H2,1-2H3
computed SMILES=O=C(C)CCCCCCCCCCCC
accession=JP008594
date=2016.01.19 (Created 2008.10.21, modified 2011.05.06)
author=SODA AROMATIC CO., LTD.
license=CC BY-NC-SA
exact mass=212.21402
ionization energy=70 eV
ion type=[M]+*
computed spectral entropy=2.5622714811758684
computed normalized entropy=0.7095900663384378
SPLASH=splash10-0a4l-9000000000-c05a27adb85136b8c278
submitter=submitter = University of Tokyo Team (Faculty of Engineering, University of Tokyo)
MoNA Rating=3.75

>  <NUM PEAKS>  (2412) 
37

>  <MASS SPECTRAL PEAKS>  (2412) 
15 1.47
27 7.93
29 15.22
39 5.54
41 27.53
42 6.23
43 83.2
44 1.73
53 1.57
54 1.61
55 14.76
56 4.59
57 14.39
58 99.99
59 42.8
60 1.23
67 2.12
68 1.56
69 4.86
70 2.2
71 30.87
72 1.8
81 1.73
82 4.16
83 2.14
84 1.31
85 7.3
95 1.76
96 2.6
97 2.08
110 1.01
111 1.05
113 1.02
127 1.04
152 1.51
154 2.13
212 1.9

>  <PREDICTED SPECTRUM>  (2412) 
0 4
15 56
17 0
18 2
26 33
27 234
28 90
29 267
30 48
31 14
32 5
39 149
40 57
41 536
42 247
43 999
44 139
45 91
53 142
54 177
55 429
56 273
57 442
58 903
59 501
65 2
66 50
67 193
68 210
69 242
70 113
71 520
72 339
73 46
78 0
79 31
80 22
81 221
82 259
83 251
84 142
85 302
86 175
87 75
88 22
93 5
94 32
95 172
96 223
97 191
98 47
99 88
100 81
101 6
109 78
110 123
111 132
112 55
113 144
114 25
123 85
124 85
125 79
126 90
127 83
136 51
137 68
138 34
141 49
142 51
152 93
154 147
155 320
156 123
169 82
170 44
183 48
194 52
195 49
197 203
198 26
211 56
212 316
213 150

$$$$

     RDKit          2D

  9  8  0  0  0  0  0  0  0  0999 V2000
    2.5981    4.5000    0.0000 C   0  0  0  0  0  0  0  0  0  0  0  0
    1.2990    5.2500    0.0000 C   0  0  0  0  0  0  0  0  0  0  0  0
    0.0000    4.5000    0.0000 C   0  0  0  0  0  0  0  0  0  0  0  0
   -1.2990    5.2500    0.0000 C   0  0  0  0  0  0  0  0  0  0  0  0
   -2.5981    4.5000    0.0000 C   0  0  0  0  0  0  0  0  0  0  0  0
   -3.8971    5.2500    0.0000 C   0  0  0  0  0  0  0  0  0  0  0  0
   -5.1962    4.5000    0.0000 C   0  0  0  0  0  0  0  0  0  0  0  0
   -6.4952    5.2500    0.0000 C   0  0  0  0  0  0  0  0  0  0  0  0
   -7.7942    4.5000    0.0000 O   0  0  0  0  0  0  0  0  0  0  0  0
  2  1  1  0
  3  2  1  0
  4  3  1  0
  5  4  1  0
  6  5  1  0
  6  7  2  0
  8  7  1  0
  9  8  2  0
M  END
>  <NAME>  (2413) 
TRANS-2-OCTENAL

>  <SYNONYMS>  (2413) 


>  <SPECTRUM TYPE>  (2413) 
MS1

>  <INSTRUMENT TYPE>  (2413) 
EI-B

>  <INSTRUMENT>  (2413) 
HITACHI M-80B

>  <ION MODE>  (2413) 
P

>  <INCHIKEY>  (2413) 
LVBXEMGDVWVTGY-VOTSOKGWSA-N

>  <FORMULA>  (2413) 
C8H14O

>  <EXACT MASS>  (2413) 
126.104465068

>  <MW>  (2413) 
126

>  <ID>  (2413) 
JP008593

>  <CONTRIBUTOR>  (2413) 
University of Tokyo Team, {Faculty of Engineering, University of Tokyo

>  <COMMENT>  (2413) 
SMILES=CCCCCC=CC=O
InChI=InChI=1S/C8H14O/c1-2-3-4-5-6-7-8-9/h6-8H,2-5H2,1H3/b7-6+
computed SMILES=O=CC=CCCCCC
accession=JP008593
date=2016.01.19 (Created 2008.10.21, modified 2011.05.06)
author=SODA AROMATIC CO., LTD.
license=CC BY-NC-SA
exact mass=126.10447
ionization energy=70 eV
ion type=[M]+*
computed spectral entropy=3.1164496946946247
computed normalized entropy=0.8186829547062524
SPLASH=splash10-05bf-9000000000-99a25373b09ae940cc4d
submitter=submitter = University of Tokyo Team (Faculty of Engineering, University of Tokyo)
MoNA Rating=3.75

>  <NUM PEAKS>  (2413) 
45

>  <MASS SPECTRAL PEAKS>  (2413) 
15 2.45
26 4.17
27 52.26
28 6.37
29 65.98
30 1.57
37 1.12
38 3.9
39 57.47
40 7.42
41 99.99
42 37.9
43 15.51
44 1.25
50 2.46
51 4.63
52 2.01
53 13.23
54 5.03
55 73.26
56 13.78
57 49.61
58 13.77
63 1.17
65 2.13
66 1.82
67 18.78
68 13.42
69 33.74
70 70.14
71 8.28
77 1.9
79 4.93
80 2.17
81 3.74
82 25.82
83 49.34
84 13.84
85 1.72
93 5.65
95 3.29
97 11.14
98 6.81
108 3.38
111 1.78

>  <PREDICTED SPECTRUM>  (2413) 
14 38
15 130
16 13
17 8
18 35
19 4
25 27
26 203
27 699
28 351
29 729
30 84
31 139
32 24
36 14
37 88
38 164
39 695
40 284
41 999
42 659
43 705
44 201
45 78
49 22
50 154
51 273
52 186
53 376
54 455
55 960
56 775
57 565
58 143
62 13
63 140
64 73
65 199
66 201
67 468
68 451
69 707
70 757
71 322
72 67
73 31
77 141
78 40
79 327
80 217
81 414
82 454
83 647
84 511
85 111
90 16
91 80
93 172
95 113
96 77
97 376
98 263
99 63
107 19
108 308
109 55
111 15
126 102

$$$$

     RDKit          2D

  6  5  0  0  0  0  0  0  0  0999 V2000
    0.0000    0.0000    0.0000 C   0  0  0  0  0  0  0  0  0  0  0  0
   -0.5490    3.5490    0.0000 C   0  0  0  0  0  0  0  0  0  0  0  0
   -2.5981    3.0000    0.0000 C   0  0  0  0  0  0  0  0  0  0  0  0
    0.0000    1.5000    0.0000 C   0  0  0  0  0  0  0  0  0  0  0  0
   -1.2990    2.2500    0.0000 C   0  0  0  0  0  0  0  0  0  0  0  0
   -2.0490    0.9510    0.0000 O   0  0  0  0  0  0  0  0  0  0  0  0
  4  1  1  0
  5  2  1  0
  5  3  1  0
  5  4  1  0
  6  5  1  0
M  END
>  <NAME>  (2414) 
2-METHYL-2-BUTANOL

>  <SYNONYMS>  (2414) 
1,1-DIMETHYLPROPANOL

>  <SPECTRUM TYPE>  (2414) 
MS1

>  <INSTRUMENT TYPE>  (2414) 
EI-B

>  <INSTRUMENT>  (2414) 
HITACHI M-80B

>  <ION MODE>  (2414) 
P

>  <INCHIKEY>  (2414) 
MSXVEPNJUHWQHW-UHFFFAOYSA-N

>  <FORMULA>  (2414) 
C5H12O

>  <EXACT MASS>  (2414) 
88.088815004

>  <MW>  (2414) 
88

>  <ID>  (2414) 
JP008592

>  <CONTRIBUTOR>  (2414) 
University of Tokyo Team, {Faculty of Engineering, University of Tokyo

>  <COMMENT>  (2414) 
SMILES=CCC(C)(C)O
InChI=InChI=1S/C5H12O/c1-4-5(2,3)6/h6H,4H2,1-3H3
computed SMILES=OC(C)(C)CC
accession=JP008592
date=2016.01.19 (Created 2008.10.21, modified 2011.05.06)
author=SODA AROMATIC CO., LTD.
license=CC BY-NC-SA
exact mass=88.08882
ionization energy=70 eV
ion type=[M]+*
computed spectral entropy=2.274727403144791
computed normalized entropy=0.7471540938439412
SPLASH=splash10-0a4i-9000000000-3c51f1bef3465a1ccd85
submitter=submitter = University of Tokyo Team (Faculty of Engineering, University of Tokyo)
MoNA Rating=3.75

>  <NUM PEAKS>  (2414) 
21

>  <MASS SPECTRAL PEAKS>  (2414) 
15 3.77
26 1.52
27 13.04
29 9.82
31 22.72
39 7.95
41 14.59
42 3
43 29.07
44 1.18
45 11.21
53 1.61
55 34.05
56 1.58
57 2
58 1.43
59 99.99
60 3.11
71 6.2
73 61.47
74 2.38

>  <PREDICTED SPECTRUM>  (2414) 
14 57
15 123
18 4
19 34
25 15
26 110
27 316
28 163
29 322
30 130
31 398
32 47
33 55
37 31
38 87
39 323
40 131
41 358
42 125
43 558
45 75
50 25
51 42
52 14
53 148
54 88
55 311
56 59
57 193
58 35
59 999
60 170
61 17
69 79
70 148
71 50
73 271
74 35

$$$$

     RDKit          2D

 14 14  0  0  0  0  0  0  0  0999 V2000
   -6.8197    3.1321    0.0000 C   0  0  0  0  0  0  0  0  0  0  0  0
   -5.5207    5.3821    0.0000 C   0  0  0  0  0  0  0  0  0  0  0  0
   -0.3245    5.3821    0.0000 C   0  0  0  0  0  0  0  0  0  0  0  0
    3.5726    1.6321    0.0000 C   0  0  0  0  0  0  0  0  0  0  0  0
    3.5731    3.1329    0.0000 C   0  0  0  0  0  0  0  0  0  0  0  0
    2.2731    0.8813    0.0000 C   0  0  0  0  0  0  0  0  0  0  0  0
    2.2740    3.8829    0.0000 C   0  0  0  0  0  0  0  0  0  0  0  0
    0.9740    1.6313    0.0000 C   0  0  0  0  0  0  0  0  0  0  0  0
   -4.2216    3.1321    0.0000 C   0  0  0  0  0  0  0  0  0  0  0  0
   -2.9226    3.8821    0.0000 C   0  0  0  0  0  0  0  0  0  0  0  0
   -5.5207    3.8821    0.0000 C   0  0  0  0  0  0  0  0  0  0  0  0
   -0.3245    3.8821    0.0000 C   0  0  0  0  0  0  0  0  0  0  0  0
    0.9745    3.1321    0.0000 C   0  0  0  0  0  0  0  0  0  0  0  0
   -1.6236    3.1321    0.0000 O   0  0  0  0  0  0  0  0  0  0  0  0
  5  4  2  0
  6  4  1  0
  7  5  1  0
  8  6  2  0
 10  9  1  0
 11  1  1  0
 11  2  1  0
 11  9  1  0
 12  3  1  0
 13  7  2  0
 13  8  1  0
 13 12  1  0
 14 10  1  0
 14 12  1  0
M  END
>  <NAME>  (2415) 
1-PHENYLETHYL 3-METHYLBUTYL ETHER

>  <SYNONYMS>  (2415) 


>  <SPECTRUM TYPE>  (2415) 
MS1

>  <INSTRUMENT TYPE>  (2415) 
EI-B

>  <INSTRUMENT>  (2415) 
HITACHI M-80B

>  <ION MODE>  (2415) 
P

>  <INCHIKEY>  (2415) 
IZFQCPDKIZRKSB-UHFFFAOYSA-N

>  <FORMULA>  (2415) 
C13H20O

>  <EXACT MASS>  (2415) 
192.15141526

>  <MW>  (2415) 
192

>  <ID>  (2415) 
JP008591

>  <CONTRIBUTOR>  (2415) 
University of Tokyo Team, {Faculty of Engineering, University of Tokyo

>  <COMMENT>  (2415) 
SMILES=CC(C)CCOC(C)c(c1)cccc1
InChI=InChI=1S/C13H20O/c1-11(2)9-10-14-12(3)13-7-5-4-6-8-13/h4-8,11-12H,9-10H2,1-3H3
computed SMILES=O(CCC(C)C)C(C=1C=CC=CC1)C
accession=JP008591
date=2016.01.19 (Created 2008.10.21, modified 2011.05.06)
author=SODA AROMATIC CO., LTD.
license=CC BY-NC-SA
exact mass=192.15142
ionization energy=70 eV
ion type=[M]+*
computed spectral entropy=2.922891152521568
computed normalized entropy=0.7820089657533694
SPLASH=splash10-0a4i-7900000000-d4ea86735245c1b82204
submitter=submitter = University of Tokyo Team (Faculty of Engineering, University of Tokyo)
MoNA Rating=3.75

>  <NUM PEAKS>  (2415) 
42

>  <MASS SPECTRAL PEAKS>  (2415) 
27 8.82
29 5.61
31 1.12
38 1.01
39 7.8
41 14.65
42 2.82
43 44.71
44 1.85
45 1.43
50 4.86
51 12.81
52 3.5
53 1.68
55 4.42
57 1.35
62 1.02
63 3.02
65 1.89
69 1.35
70 1.74
71 36.5
72 1.89
74 1.7
75 1.58
76 1.7
77 26.95
78 18.91
79 18.83
80 1.09
89 1.24
91 6.02
102 2.4
103 20.82
104 40.32
105 99.99
106 22.63
107 63.35
108 3.85
121 1.38
177 45.8
178 4.99

>  <PREDICTED SPECTRUM>  (2415) 
26 51
27 257
28 36
29 207
31 6
38 43
39 248
40 87
41 327
42 204
43 567
44 122
45 33
50 140
51 258
52 139
53 125
54 23
55 190
56 66
62 41
63 92
64 6
65 99
66 13
69 74
70 188
71 537
72 90
74 29
75 52
76 91
77 481
78 270
79 509
80 148
83 20
87 50
89 160
90 93
91 214
92 86
93 19
102 83
103 331
104 202
105 999
106 506
107 874
108 235
120 9
123 17
177 527
178 181

$$$$

     RDKit          2D

 11 11  0  0  0  0  0  0  0  0999 V2000
    2.6027    1.4936    0.0000 C   0  0  0  0  0  0  0  0  0  0  0  0
    1.3000   -0.7500    0.0000 C   0  0  0  0  0  0  0  0  0  0  0  0
    0.0300    1.5000    0.0000 C   0  0  0  0  0  0  0  0  0  0  0  0
    0.0300   -1.5000    0.0000 C   0  0  0  0  0  0  0  0  0  0  0  0
   -1.3200    0.7500    0.0000 C   0  0  0  0  0  0  0  0  0  0  0  0
   -5.2108   -1.5321    0.0000 C   0  0  0  0  0  0  0  0  0  0  0  0
   -3.9180   -0.7714    0.0000 C   0  0  0  0  0  0  0  0  0  0  0  0
    1.3000    0.7500    0.0000 C   0  0  0  0  0  0  0  0  0  0  0  0
   -1.3200   -0.7500    0.0000 C   0  0  0  0  0  0  0  0  0  0  0  0
   -6.5160   -0.7929    0.0000 O   0  0  0  0  0  0  0  0  0  0  0  0
   -2.6128   -1.5107    0.0000 O   0  0  0  0  0  0  0  0  0  0  0  0
  4  2  2  0
  5  3  1  0
  7  6  1  0
  8  1  1  0
  8  2  1  0
  8  3  2  0
  9  4  1  0
  9  5  2  0
 10  6  1  0
 11  7  1  0
 11  9  1  0
M  END
>  <NAME>  (2416) 
ETHYLENE GLYCOL MONO-PARA-TOLYL ETHER

>  <SYNONYMS>  (2416) 
2-(PARA-METHYLPHENOXY)ETHANOL

>  <SPECTRUM TYPE>  (2416) 
MS1

>  <INSTRUMENT TYPE>  (2416) 
EI-B

>  <INSTRUMENT>  (2416) 
HITACHI M-80B

>  <ION MODE>  (2416) 
P

>  <INCHIKEY>  (2416) 
FFWXHQFJNOGDJE-UHFFFAOYSA-N

>  <FORMULA>  (2416) 
C9H12O2

>  <EXACT MASS>  (2416) 
152.083729624

>  <MW>  (2416) 
152

>  <ID>  (2416) 
JP008590

>  <CONTRIBUTOR>  (2416) 
University of Tokyo Team, {Faculty of Engineering, University of Tokyo

>  <COMMENT>  (2416) 
SMILES=OCCOc(c1)ccc(C)c1
InChI=InChI=1S/C9H12O2/c1-8-2-4-9(5-3-8)11-7-6-10/h2-5,10H,6-7H2,1H3
computed SMILES=OCCOC1=CC=C(C=C1)C
accession=JP008590
date=2016.01.19 (Created 2008.10.21, modified 2011.05.06)
author=SODA AROMATIC CO., LTD.
license=CC BY-NC-SA
exact mass=152.08373
ionization energy=70 eV
ion type=[M]+*
computed spectral entropy=2.699207343326013
computed normalized entropy=0.7788266097095025
SPLASH=splash10-0a4i-6900000000-3d9fd380d648a1ac2172
submitter=submitter = University of Tokyo Team (Faculty of Engineering, University of Tokyo)
MoNA Rating=3.75

>  <NUM PEAKS>  (2416) 
32

>  <MASS SPECTRAL PEAKS>  (2416) 
15 1.33
19 1.42
27 9.05
29 3.91
31 6.03
39 8.12
41 1.54
43 2.81
45 11.53
50 3
51 8.44
52 3.81
53 3.95
62 1.21
63 4.85
64 1.24
65 11.98
77 13.9
78 4.06
79 9.25
80 6.73
89 2.9
90 7.03
91 23.25
92 1.66
93 2.03
107 48.36
108 99.99
109 11.26
121 4.34
152 39.61
153 3.06

>  <PREDICTED SPECTRUM>  (2416) 
14 19
15 77
17 4
18 39
19 46
25 6
26 77
27 218
28 62
29 92
31 72
33 0
38 73
39 283
40 53
41 136
42 81
43 146
44 109
45 346
46 38
47 8
50 183
51 309
52 194
53 224
54 54
55 29
62 78
63 209
64 128
65 376
66 91
74 109
75 20
76 18
77 361
78 233
79 264
80 174
89 215
90 243
91 511
92 124
93 101
95 6
105 48
106 19
107 435
108 999
109 378
110 41
119 1
121 206
122 26
133 9
134 3
152 603
153 183
154 22

$$$$

     RDKit          2D

 11 11  0  0  0  0  0  0  0  0999 V2000
    3.5726    0.8821    0.0000 C   0  0  0  0  0  0  0  0  0  0  0  0
    3.5731    2.3829    0.0000 C   0  0  0  0  0  0  0  0  0  0  0  0
    2.2731    0.1313    0.0000 C   0  0  0  0  0  0  0  0  0  0  0  0
    2.2740    3.1329    0.0000 C   0  0  0  0  0  0  0  0  0  0  0  0
    0.9740    0.8813    0.0000 C   0  0  0  0  0  0  0  0  0  0  0  0
   -4.2216    2.3821    0.0000 C   0  0  0  0  0  0  0  0  0  0  0  0
   -2.9226    3.1321    0.0000 C   0  0  0  0  0  0  0  0  0  0  0  0
   -0.3245    3.1321    0.0000 C   0  0  0  0  0  0  0  0  0  0  0  0
    0.9745    2.3821    0.0000 C   0  0  0  0  0  0  0  0  0  0  0  0
   -5.5207    3.1321    0.0000 O   0  0  0  0  0  0  0  0  0  0  0  0
   -1.6236    2.3821    0.0000 O   0  0  0  0  0  0  0  0  0  0  0  0
  2  1  2  0
  3  1  1  0
  4  2  1  0
  5  3  2  0
  7  6  1  0
  9  4  2  0
  9  5  1  0
  9  8  1  0
 10  6  1  0
 11  7  1  0
 11  8  1  0
M  END
>  <NAME>  (2417) 
ETHYLENE GLYCOL MONOBENZYL ETHER

>  <SYNONYMS>  (2417) 
2-BENZYLOXYETHANOL

>  <SPECTRUM TYPE>  (2417) 
MS1

>  <INSTRUMENT TYPE>  (2417) 
EI-B

>  <INSTRUMENT>  (2417) 
HITACHI M-80B

>  <ION MODE>  (2417) 
P

>  <INCHIKEY>  (2417) 
CUZKCNWZBXLAJX-UHFFFAOYSA-N

>  <FORMULA>  (2417) 
C9H12O2

>  <EXACT MASS>  (2417) 
152.083729624

>  <MW>  (2417) 
152

>  <ID>  (2417) 
JP008589

>  <CONTRIBUTOR>  (2417) 
University of Tokyo Team, {Faculty of Engineering, University of Tokyo

>  <COMMENT>  (2417) 
SMILES=OCCOCc(c1)cccc1
InChI=InChI=1S/C9H12O2/c10-6-7-11-8-9-4-2-1-3-5-9/h1-5,10H,6-8H2
computed SMILES=OCCOCC=1C=CC=CC1
accession=JP008589
date=2016.01.19 (Created 2008.10.21, modified 2011.05.06)
author=SODA AROMATIC CO., LTD.
license=CC BY-NC-SA
exact mass=152.08373
ionization energy=70 eV
ion type=[M]+*
computed spectral entropy=2.189020570466643
computed normalized entropy=0.6800574764502679
SPLASH=splash10-0006-9100000000-27d8a665c2b8f5edeccc
submitter=submitter = University of Tokyo Team (Faculty of Engineering, University of Tokyo)
MoNA Rating=3.75

>  <NUM PEAKS>  (2417) 
25

>  <MASS SPECTRAL PEAKS>  (2417) 
27 2.18
29 2.5
31 7.33
39 6.48
41 1.38
43 1.13
45 2.37
50 1.73
51 5.63
52 1.29
63 2.65
65 12.82
77 5.39
78 1.26
79 6.08
89 2.57
90 1.54
91 99.99
92 23.67
93 1.18
105 2.04
107 18.12
108 1.54
152 13.62
153 1.2

>  <PREDICTED SPECTRUM>  (2417) 
1 5
14 2
15 10
16 4
17 1
18 16
19 20
25 6
26 48
27 122
28 115
29 112
30 65
31 141
32 3
33 14
34 0
36 3
37 17
38 72
39 198
40 58
41 128
42 49
43 176
44 120
45 266
46 192
47 62
49 13
50 145
51 243
52 133
53 72
57 43
61 43
62 84
63 179
64 78
65 371
66 79
70 14
74 81
75 66
76 49
77 329
78 253
79 419
80 117
89 224
90 213
91 999
92 473
93 119
105 287
106 137
107 739
108 385
120 56
121 115
122 82
123 0
133 40
134 75
135 20
136 3
151 150
152 244
153 75

$$$$

     RDKit          2D

 12 12  0  0  0  0  0  0  0  0999 V2000
   -6.8197    3.1321    0.0000 C   0  0  0  0  0  0  0  0  0  0  0  0
   -5.5207    3.8821    0.0000 C   0  0  0  0  0  0  0  0  0  0  0  0
   -4.2216    3.1321    0.0000 C   0  0  0  0  0  0  0  0  0  0  0  0
    3.5726    1.6321    0.0000 C   0  0  0  0  0  0  0  0  0  0  0  0
    3.5731    3.1329    0.0000 C   0  0  0  0  0  0  0  0  0  0  0  0
    2.2731    0.8813    0.0000 C   0  0  0  0  0  0  0  0  0  0  0  0
    2.2740    3.8829    0.0000 C   0  0  0  0  0  0  0  0  0  0  0  0
    0.9740    1.6313    0.0000 C   0  0  0  0  0  0  0  0  0  0  0  0
   -2.9226    3.8821    0.0000 C   0  0  0  0  0  0  0  0  0  0  0  0
   -0.3245    3.8821    0.0000 C   0  0  0  0  0  0  0  0  0  0  0  0
    0.9745    3.1321    0.0000 C   0  0  0  0  0  0  0  0  0  0  0  0
   -1.6236    3.1321    0.0000 O   0  0  0  0  0  0  0  0  0  0  0  0
  2  1  1  0
  3  2  1  0
  5  4  2  0
  6  4  1  0
  7  5  1  0
  8  6  2  0
  9  3  1  0
 11  7  2  0
 11  8  1  0
 11 10  1  0
 12  9  1  0
 12 10  1  0
M  END
>  <NAME>  (2418) 
BENZYL BUTYL ETHER

>  <SYNONYMS>  (2418) 


>  <SPECTRUM TYPE>  (2418) 
MS1

>  <INSTRUMENT TYPE>  (2418) 
EI-B

>  <INSTRUMENT>  (2418) 
HITACHI M-80B

>  <ION MODE>  (2418) 
P

>  <INCHIKEY>  (2418) 
MAYUYFCAPVDYBQ-UHFFFAOYSA-N

>  <FORMULA>  (2418) 
C11H16O

>  <EXACT MASS>  (2418) 
164.120115132

>  <MW>  (2418) 
164

>  <ID>  (2418) 
JP008588

>  <CONTRIBUTOR>  (2418) 
University of Tokyo Team, {Faculty of Engineering, University of Tokyo

>  <COMMENT>  (2418) 
SMILES=CCCCOCc(c1)cccc1
InChI=InChI=1S/C11H16O/c1-2-3-9-12-10-11-7-5-4-6-8-11/h4-8H,2-3,9-10H2,1H3
computed SMILES=O(CC=1C=CC=CC1)CCCC
computed spectral entropy=2.0198457113424353
computed normalized entropy=0.6634359748232955
accession=JP008588
date=2016.01.19 (Created 2008.10.21, modified 2011.05.06)
author=SODA AROMATIC CO., LTD.
license=CC BY-NC-SA
exact mass=164.12012
ionization energy=70 eV
ion type=[M]+*
SPLASH=splash10-0006-9000000000-4c4bbf1c0ee9e3e9d307
submitter=submitter = University of Tokyo Team (Faculty of Engineering, University of Tokyo)
MoNA Rating=3.75

>  <NUM PEAKS>  (2418) 
21

>  <MASS SPECTRAL PEAKS>  (2418) 
27 5.63
29 6.35
39 7.22
41 7.97
43 1.66
50 1.18
51 3.53
57 1.93
63 1.86
65 11.22
77 4.52
78 1.59
79 7.79
89 2
90 1.43
91 99.99
92 59.29
93 3.51
105 1.45
107 7.01
108 6.03

>  <PREDICTED SPECTRUM>  (2418) 
26 13
27 112
28 36
29 150
30 34
31 17
38 29
39 162
40 53
41 269
42 76
43 133
45 12
50 92
51 163
52 100
53 39
55 134
56 147
57 288
58 91
62 15
63 78
64 55
65 285
66 36
73 50
74 34
76 29
77 165
78 174
79 267
80 85
89 123
90 207
91 999
92 535
93 111
104 71
105 216
106 44
107 495
108 326
109 53
164 229
165 57

$$$$

     RDKit          2D

  9  9  0  0  0  0  0  0  0  0999 V2000
   -3.5724    2.0075    0.0000 C   0  0  0  0  0  0  0  0  0  0  0  0
    2.9228   -0.2425    0.0000 C   0  0  0  0  0  0  0  0  0  0  0  0
    2.9233    1.2583    0.0000 C   0  0  0  0  0  0  0  0  0  0  0  0
    1.6233   -0.9933    0.0000 C   0  0  0  0  0  0  0  0  0  0  0  0
    1.6243    2.0083    0.0000 C   0  0  0  0  0  0  0  0  0  0  0  0
    0.3243   -0.2433    0.0000 C   0  0  0  0  0  0  0  0  0  0  0  0
   -0.9743    2.0075    0.0000 C   0  0  0  0  0  0  0  0  0  0  0  0
    0.3248    1.2575    0.0000 C   0  0  0  0  0  0  0  0  0  0  0  0
   -2.2733    1.2575    0.0000 O   0  0  0  0  0  0  0  0  0  0  0  0
  3  2  2  0
  4  2  1  0
  5  3  1  0
  6  4  2  0
  8  5  2  0
  8  6  1  0
  8  7  1  0
  9  1  1  0
  9  7  1  0
M  END
>  <NAME>  (2419) 
BENZYL METHYL ETHER

>  <SYNONYMS>  (2419) 


>  <SPECTRUM TYPE>  (2419) 
MS1

>  <INSTRUMENT TYPE>  (2419) 
EI-B

>  <INSTRUMENT>  (2419) 
HITACHI M-80B

>  <ION MODE>  (2419) 
P

>  <INCHIKEY>  (2419) 
GQKZBCPTCWJTAS-UHFFFAOYSA-N

>  <FORMULA>  (2419) 
C8H10O

>  <EXACT MASS>  (2419) 
122.07316494

>  <MW>  (2419) 
122

>  <ID>  (2419) 
JP008587

>  <CONTRIBUTOR>  (2419) 
University of Tokyo Team, {Faculty of Engineering, University of Tokyo

>  <COMMENT>  (2419) 
SMILES=COCc(c1)cccc1
InChI=InChI=1S/C8H10O/c1-9-7-8-5-3-2-4-6-8/h2-6H,7H2,1H3
computed SMILES=O(C)CC=1C=CC=CC1
accession=JP008587
date=2016.01.19 (Created 2008.10.21, modified 2011.05.06)
author=SODA AROMATIC CO., LTD.
license=CC BY-NC-SA
exact mass=122.07316
ionization energy=70 eV
ion type=[M]+*
computed spectral entropy=2.648948913816521
computed normalized entropy=0.7713916086689888
SPLASH=splash10-006x-9300000000-4fd9754dab9f2307278e
submitter=submitter = University of Tokyo Team (Faculty of Engineering, University of Tokyo)
MoNA Rating=3.75

>  <NUM PEAKS>  (2419) 
31

>  <MASS SPECTRAL PEAKS>  (2419) 
15 4.97
27 2.65
29 10.37
30 1.48
38 2.66
39 16.2
41 2.51
45 6.99
50 7.86
51 17.85
52 3.54
53 1.25
62 2.44
63 8.74
64 1.79
65 18.34
74 1.4
75 1.01
77 30.31
78 3.8
79 10.55
89 6.3
90 2.71
91 99.99
92 21.39
93 1.33
105 3.3
107 1.82
121 49.66
122 56.81
123 4.48

>  <PREDICTED SPECTRUM>  (2419) 
14 13
15 57
16 10
25 15
26 70
27 118
28 48
29 110
30 99
31 87
32 13
33 9
34 0
36 8
37 83
38 146
39 301
40 99
41 113
42 53
43 156
44 42
45 370
46 50
49 32
50 204
51 292
52 166
53 115
54 17
55 36
58 63
61 58
62 118
63 214
64 134
65 378
66 123
67 15
70 25
72 18
74 116
75 80
76 84
77 267
78 191
79 192
80 42
87 43
89 183
90 191
91 999
92 422
93 185
94 16
103 76
104 83
105 150
106 86
107 156
108 21
119 49
120 82
121 432
122 361
123 77

$$$$

     RDKit          2D

  9  9  0  0  0  0  0  0  0  0999 V2000
    2.5989    3.0000    0.0000 C   0  0  0  0  0  0  0  0  0  0  0  0
   -0.0000   -1.5002    0.0000 C   0  0  0  0  0  0  0  0  0  0  0  0
   -2.5989    3.0000    0.0000 C   0  0  0  0  0  0  0  0  0  0  0  0
    1.3000    2.2498    0.0000 C   0  0  0  0  0  0  0  0  0  0  0  0
   -0.0000   -0.0002    0.0000 C   0  0  0  0  0  0  0  0  0  0  0  0
   -1.3000    2.2498    0.0000 C   0  0  0  0  0  0  0  0  0  0  0  0
    1.3000    0.7498    0.0000 O   0  0  0  0  0  0  0  0  0  0  0  0
   -0.0000    2.9998    0.0000 O   0  0  0  0  0  0  0  0  0  0  0  0
   -1.3000    0.7498    0.0000 O   0  0  0  0  0  0  0  0  0  0  0  0
  4  1  1  0
  5  2  1  0
  6  3  1  0
  7  4  1  0
  7  5  1  0
  8  4  1  0
  8  6  1  0
  9  5  1  0
  9  6  1  0
M  END
>  <NAME>  (2420) 
PARAACETALDEHYDE

>  <SYNONYMS>  (2420) 
PARALDEHYDE

>  <SPECTRUM TYPE>  (2420) 
MS1

>  <INSTRUMENT TYPE>  (2420) 
EI-B

>  <INSTRUMENT>  (2420) 
HITACHI M-80B

>  <ION MODE>  (2420) 
P

>  <INCHIKEY>  (2420) 
SQYNKIJPMDEDEG-UHFFFAOYSA-N

>  <FORMULA>  (2420) 
C6H12O3

>  <EXACT MASS>  (2420) 
132.078644244

>  <MW>  (2420) 
132

>  <ID>  (2420) 
JP008586

>  <CONTRIBUTOR>  (2420) 
University of Tokyo Team, {Faculty of Engineering, University of Tokyo

>  <COMMENT>  (2420) 
SMILES=CC(O1)OC(C)OC(C)1
InChI=InChI=1S/C6H12O3/c1-4-7-5(2)9-6(3)8-4/h4-6H,1-3H3
computed SMILES=O1C(OC(OC1C)C)C
accession=JP008586
date=2016.01.19 (Created 2008.10.21, modified 2011.05.06)
author=SODA AROMATIC CO., LTD.
license=CC BY-NC-SA
exact mass=132.07864
ionization energy=70 eV
ion type=[M]+*
computed spectral entropy=1.6403539140497043
computed normalized entropy=0.660126976677233
SPLASH=splash10-0005-9000000000-a3f03c0baa80a3369e84
submitter=submitter = University of Tokyo Team (Faculty of Engineering, University of Tokyo)
MoNA Rating=3.75

>  <NUM PEAKS>  (2420) 
12

>  <MASS SPECTRAL PEAKS>  (2420) 
15 3.6
27 3.59
29 7.17
42 2.51
43 51.17
44 3.25
45 99.99
46 2.22
87 9.25
89 16.12
117 8.1
131 3.16

>  <PREDICTED SPECTRUM>  (2420) 
14 27
15 47
19 24
25 8
26 116
27 244
28 234
29 313
30 42
31 150
32 12
38 4
39 62
40 103
41 124
42 113
43 999
44 430
45 797
46 139
47 215
48 18
50 27
54 138
55 108
57 307
58 90
60 99
61 111
69 230
71 99
73 71
74 157
75 160
87 425
88 206
89 172
116 112
117 867
118 252
132 26

$$$$

     RDKit          2D

 19 18  0  0  0  0  0  0  0  0999 V2000
    5.8457   10.1250    0.0000 C   0  0  0  0  0  0  0  0  0  0  0  0
    4.5466   10.8750    0.0000 C   0  0  0  0  0  0  0  0  0  0  0  0
    3.2476   10.1250    0.0000 C   0  0  0  0  0  0  0  0  0  0  0  0
    1.9486   10.8750    0.0000 C   0  0  0  0  0  0  0  0  0  0  0  0
    0.6495   10.1250    0.0000 C   0  0  0  0  0  0  0  0  0  0  0  0
   -0.6495   10.8750    0.0000 C   0  0  0  0  0  0  0  0  0  0  0  0
   -1.9486   10.1250    0.0000 C   0  0  0  0  0  0  0  0  0  0  0  0
   -3.2476   10.8750    0.0000 C   0  0  0  0  0  0  0  0  0  0  0  0
   -4.5466   10.1250    0.0000 C   0  0  0  0  0  0  0  0  0  0  0  0
   -5.8457   10.8750    0.0000 C   0  0  0  0  0  0  0  0  0  0  0  0
   -7.1447   10.1250    0.0000 C   0  0  0  0  0  0  0  0  0  0  0  0
   -8.4437   10.8750    0.0000 C   0  0  0  0  0  0  0  0  0  0  0  0
   -9.7428   10.1250    0.0000 C   0  0  0  0  0  0  0  0  0  0  0  0
  -11.0418   10.8750    0.0000 C   0  0  0  0  0  0  0  0  0  0  0  0
  -12.3409   10.1250    0.0000 C   0  0  0  0  0  0  0  0  0  0  0  0
  -13.6399   10.8750    0.0000 C   0  0  0  0  0  0  0  0  0  0  0  0
  -14.9389   10.1250    0.0000 C   0  0  0  0  0  0  0  0  0  0  0  0
  -16.2380   10.8750    0.0000 C   0  0  0  0  0  0  0  0  0  0  0  0
  -17.5370   10.1250    0.0000 O   0  0  0  0  0  0  0  0  0  0  0  0
  2  1  1  0
  3  2  1  0
  4  3  1  0
  5  4  1  0
  6  5  1  0
  7  6  1  0
  8  7  1  0
  9  8  1  0
 10  9  1  0
 11 10  1  0
 12 11  1  0
 13 12  1  0
 14 13  1  0
 15 14  1  0
 16 15  1  0
 17 16  1  0
 18 17  1  0
 19 18  1  0
M  END
>  <NAME>  (2421) 
OCTADECANOL

>  <SYNONYMS>  (2421) 


>  <SPECTRUM TYPE>  (2421) 
MS1

>  <INSTRUMENT TYPE>  (2421) 
EI-B

>  <INSTRUMENT>  (2421) 
HITACHI M-80B

>  <ION MODE>  (2421) 
P

>  <INCHIKEY>  (2421) 
GLDOVTGHNKAZLK-UHFFFAOYSA-N

>  <FORMULA>  (2421) 
C18H38O

>  <EXACT MASS>  (2421) 
270.292265836

>  <MW>  (2421) 
270

>  <ID>  (2421) 
JP008585

>  <CONTRIBUTOR>  (2421) 
University of Tokyo Team, {Faculty of Engineering, University of Tokyo

>  <COMMENT>  (2421) 
SMILES=CCCCCCCCCCCCCCCCCCO
InChI=InChI=1S/C18H38O/c1-2-3-4-5-6-7-8-9-10-11-12-13-14-15-16-17-18-19/h19H,2-18H2,1H3
computed SMILES=OCCCCCCCCCCCCCCCCCC
accession=JP008585
date=2016.01.19 (Created 2008.10.21, modified 2011.05.06)
author=SODA AROMATIC CO., LTD.
license=CC BY-NC-SA
exact mass=270.29227
ionization energy=70 eV
ion type=[M]+*
computed spectral entropy=3.2559042083967236
computed normalized entropy=0.8240200909615506
SPLASH=splash10-0a5c-9100000000-ef18c1dfe45ef2070173
submitter=submitter = University of Tokyo Team (Faculty of Engineering, University of Tokyo)
MoNA Rating=3.75

>  <NUM PEAKS>  (2421) 
52

>  <MASS SPECTRAL PEAKS>  (2421) 
27 7.91
29 24.41
31 15.42
39 5.8
41 70.66
42 15.82
43 99.99
44 2.26
45 1.75
53 2.7
54 8.22
55 96.57
56 50.07
57 92.15
58 3.66
67 12.31
68 36.29
69 85.53
70 48.75
71 40.18
72 2
73 1.74
81 7.28
82 41.53
83 98.85
84 30.82
85 19.5
95 3.74
96 12.62
97 74.41
98 19
99 4.73
109 1
110 5.94
111 36.09
112 12.49
113 2.91
124 3.38
125 15.82
126 7.75
127 1.08
138 2.42
139 6.46
140 5.33
153 3.51
154 3.76
167 2.04
168 2.76
182 1.99
196 1.57
224 4.66
252 2.83

>  <PREDICTED SPECTRUM>  (2421) 
17 9
18 20
25 6
26 66
27 232
28 143
29 404
30 22
31 220
32 20
38 19
39 248
40 115
41 804
42 403
43 925
44 258
45 71
46 6
47 22
50 24
51 52
52 24
53 245
54 403
55 991
56 659
57 988
58 175
59 160
61 10
63 14
65 99
66 199
67 591
68 642
69 999
70 626
71 664
72 147
73 25
75 14
76 15
77 39
78 48
79 170
80 121
81 560
82 852
83 990
84 487
85 476
86 125
87 38
91 35
93 44
94 49
95 454
96 627
97 862
98 421
99 221
100 34
101 30
107 5
108 23
109 357
110 363
111 593
112 311
113 146
114 78
119 9
122 15
123 247
124 326
125 398
126 277
127 102
136 20
137 143
138 231
139 230
140 188
141 49
143 37
151 94
152 207
153 203
154 185
155 41
157 60
158 13
165 65
166 87
167 96
168 150
169 46
180 85
181 138
182 132
183 78
184 2
194 79
195 144
196 178
197 57
207 9
209 0
210 44
211 21
223 77
224 274
225 83
236 48
239 47
252 310
253 156

$$$$

     RDKit          2D

  9  9  0  0  0  0  0  0  0  0999 V2000
   -2.6324   -0.3599    0.0000 C   0  0  0  0  0  0  0  0  0  0  0  0
   -1.6683    0.7893    0.0000 C   0  0  0  0  0  0  0  0  0  0  0  0
    2.4070    2.0290    0.0000 C   0  0  0  0  0  0  0  0  0  0  0  0
    2.4074    0.5282    0.0000 C   0  0  0  0  0  0  0  0  0  0  0  0
    1.1074    2.7798    0.0000 C   0  0  0  0  0  0  0  0  0  0  0  0
    1.1084   -0.2218    0.0000 C   0  0  0  0  0  0  0  0  0  0  0  0
   -0.1916    2.0298    0.0000 C   0  0  0  0  0  0  0  0  0  0  0  0
   -0.1911    0.5290    0.0000 C   0  0  0  0  0  0  0  0  0  0  0  0
   -0.7043   -0.8805    0.0000 O   0  0  0  0  0  0  0  0  0  0  0  0
  2  1  2  0
  4  3  1  0
  5  3  1  0
  6  4  1  0
  7  5  1  0
  8  2  1  0
  8  6  1  0
  8  7  1  0
  9  8  1  0
M  END
>  <NAME>  (2422) 
1-VINYLCYCLOHEXANOL

>  <SYNONYMS>  (2422) 


>  <SPECTRUM TYPE>  (2422) 
MS1

>  <INSTRUMENT TYPE>  (2422) 
EI-B

>  <INSTRUMENT>  (2422) 
HITACHI M-80B

>  <ION MODE>  (2422) 
P

>  <INCHIKEY>  (2422) 
ZXKHOVDDJMJXQP-UHFFFAOYSA-N

>  <FORMULA>  (2422) 
C8H14O

>  <EXACT MASS>  (2422) 
126.104465068

>  <MW>  (2422) 
126

>  <ID>  (2422) 
JP008584

>  <CONTRIBUTOR>  (2422) 
University of Tokyo Team, {Faculty of Engineering, University of Tokyo

>  <COMMENT>  (2422) 
SMILES=C=CC(O)(C1)CCCC1
InChI=InChI=1S/C8H14O/c1-2-8(9)6-4-3-5-7-8/h2,9H,1,3-7H2
computed SMILES=OC1(C=C)CCCCC1
accession=JP008584
date=2016.01.19 (Created 2008.10.21, modified 2011.05.06)
author=SODA AROMATIC CO., LTD.
license=CC BY-NC-SA
exact mass=126.10447
ionization energy=70 eV
ion type=[M]+*
computed spectral entropy=3.064611887229477
computed normalized entropy=0.8004437004833513
SPLASH=splash10-001i-9000000000-6d0de085d89286a7a23f
submitter=submitter = University of Tokyo Team (Faculty of Engineering, University of Tokyo)
MoNA Rating=3.75

>  <NUM PEAKS>  (2422) 
46

>  <MASS SPECTRAL PEAKS>  (2422) 
15 1.17
26 1.74
27 22.11
29 9.95
31 2.29
38 1
39 17.13
40 2.31
41 19.71
42 8.35
43 14.51
44 1.15
50 1.21
51 2.4
52 1.51
53 7.32
54 2.11
55 49.71
56 3.9
57 7.03
58 2.69
65 2.14
67 5.91
68 6.47
69 6.32
70 42.68
71 7.22
72 2.53
77 2.34
79 5.96
80 1.4
81 8.05
82 5.52
83 99.99
84 12.97
85 1.07
91 1.29
93 2.74
95 1.02
97 12.28
98 13.88
99 5.45
108 1.82
111 23.25
112 1.47
126 5.62

>  <PREDICTED SPECTRUM>  (2422) 
14 5
18 4
25 21
26 188
27 562
28 285
29 473
30 123
31 210
32 41
37 74
38 185
39 651
40 348
41 882
42 460
43 815
44 299
45 133
46 10
50 174
51 304
52 213
53 521
54 415
55 999
56 472
57 486
58 398
59 262
60 53
61 20
62 63
63 114
64 28
65 247
66 294
67 759
68 625
69 728
70 503
71 636
72 211
75 32
77 268
78 175
79 434
80 296
81 687
82 321
83 516
84 285
85 336
89 0
91 150
92 61
93 333
94 175
95 197
96 136
97 674
98 323
99 182
105 28
107 173
108 361
109 149
110 71
111 341
112 42
125 203
126 551
127 144

$$$$

     RDKit          2D

 10 10  0  0  0  0  0  0  0  0999 V2000
   -0.2900    3.1700    0.0000 C   0  0  0  0  0  0  0  0  0  0  0  0
    3.6081   -0.5804    0.0000 C   0  0  0  0  0  0  0  0  0  0  0  0
   -1.5900    0.9200    0.0000 C   0  0  0  0  0  0  0  0  0  0  0  0
   -1.5900   -0.5800    0.0000 C   0  0  0  0  0  0  0  0  0  0  0  0
    1.0100    0.9200    0.0000 C   0  0  0  0  0  0  0  0  0  0  0  0
   -0.2900    1.6700    0.0000 C   0  0  0  0  0  0  0  0  0  0  0  0
   -0.2900   -1.3300    0.0000 C   0  0  0  0  0  0  0  0  0  0  0  0
    1.0100   -0.5800    0.0000 C   0  0  0  0  0  0  0  0  0  0  0  0
   -0.2900   -2.8300    0.0000 O   0  0  0  0  0  0  0  0  0  0  0  0
    2.3089   -1.3302    0.0000 O   0  0  0  0  0  0  0  0  0  0  0  0
  4  3  2  0
  6  1  1  0
  6  3  1  0
  6  5  2  0
  7  4  1  0
  8  5  1  0
  8  7  2  0
  9  7  1  0
 10  2  1  0
 10  8  1  0
M  END
>  <NAME>  (2423) 
CREOSOL

>  <SYNONYMS>  (2423) 
2-METHOXY-4-METHYLPHENOL

>  <SPECTRUM TYPE>  (2423) 
MS1

>  <INSTRUMENT TYPE>  (2423) 
EI-B

>  <INSTRUMENT>  (2423) 
HITACHI M-80B

>  <ION MODE>  (2423) 
P

>  <INCHIKEY>  (2423) 
PETRWTHZSKVLRE-UHFFFAOYSA-N

>  <FORMULA>  (2423) 
C8H10O2

>  <EXACT MASS>  (2423) 
138.06807956

>  <MW>  (2423) 
138

>  <ID>  (2423) 
JP008583

>  <CONTRIBUTOR>  (2423) 
University of Tokyo Team, {Faculty of Engineering, University of Tokyo

>  <COMMENT>  (2423) 
SMILES=COc(c1)c(O)ccc(C)1
InChI=InChI=1S/C8H10O2/c1-6-3-4-7(9)8(5-6)10-2/h3-5,9H,1-2H3
computed SMILES=OC1=CC=C(C=C1OC)C
accession=JP008583
date=2016.01.19 (Created 2008.10.21, modified 2011.05.06)
author=SODA AROMATIC CO., LTD.
license=CC BY-NC-SA
exact mass=138.06808
ionization energy=70 eV
ion type=[M]+*
computed spectral entropy=2.7688860898978858
computed normalized entropy=0.7557907733920797
SPLASH=splash10-0079-8900000000-c42e8911b7e5bb460b86
submitter=submitter = University of Tokyo Team (Faculty of Engineering, University of Tokyo)
MoNA Rating=3.75

>  <NUM PEAKS>  (2423) 
39

>  <MASS SPECTRAL PEAKS>  (2423) 
15 4.03
26 1.07
27 4.49
28 2.28
29 2.11
32 1.46
38 2.67
39 16
40 3.04
41 10.18
43 2.21
50 4.53
51 12.44
52 3.8
53 5.29
55 18.23
62 1.69
63 3.28
65 9.22
66 8.95
67 16.72
68 1.42
69 1.26
77 16.34
78 4.66
79 2.55
91 1.59
94 5.02
95 34.86
96 2.25
106 2.03
107 3.12
109 1.62
122 1.97
123 86.06
124 6.26
137 5.17
138 99.99
139 10.22

>  <PREDICTED SPECTRUM>  (2423) 
14 7
15 69
26 38
27 124
28 41
29 41
37 27
38 84
39 276
40 84
41 151
42 47
49 36
50 178
51 328
52 245
53 275
54 43
55 178
61 41
62 84
63 160
64 71
65 310
66 186
67 258
68 68
69 83
74 48
75 13
76 9
77 477
78 269
79 308
80 171
81 73
89 95
90 5
91 262
92 92
93 170
94 179
95 538
96 143
97 10
105 157
106 72
107 301
108 182
109 182
110 12
111 25
121 84
122 58
123 859
124 276
125 36
135 36
137 257
138 999
139 313
140 42

$$$$

     RDKit          2D

 14 13  0  0  0  0  0  0  0  0999 V2000
   -3.2476    7.1250    0.0000 C   0  0  0  0  0  0  0  0  0  0  0  0
   -4.5466    7.8750    0.0000 C   0  0  0  0  0  0  0  0  0  0  0  0
   -1.9486    7.8750    0.0000 C   0  0  0  0  0  0  0  0  0  0  0  0
   -5.8457    7.1250    0.0000 C   0  0  0  0  0  0  0  0  0  0  0  0
   -0.6495    7.1250    0.0000 C   0  0  0  0  0  0  0  0  0  0  0  0
   -7.1447    7.8750    0.0000 C   0  0  0  0  0  0  0  0  0  0  0  0
    0.6495    7.8750    0.0000 C   0  0  0  0  0  0  0  0  0  0  0  0
   -8.4437    7.1250    0.0000 C   0  0  0  0  0  0  0  0  0  0  0  0
    1.9486    7.1250    0.0000 C   0  0  0  0  0  0  0  0  0  0  0  0
   -9.7428    7.8750    0.0000 C   0  0  0  0  0  0  0  0  0  0  0  0
    3.2476    7.8750    0.0000 C   0  0  0  0  0  0  0  0  0  0  0  0
  -11.0418    7.1250    0.0000 C   0  0  0  0  0  0  0  0  0  0  0  0
    4.5466    7.1250    0.0000 O   0  0  0  0  0  0  0  0  0  0  0  0
  -12.3409    7.8750    0.0000 O   0  0  0  0  0  0  0  0  0  0  0  0
  2  1  1  0
  3  1  1  0
  4  2  1  0
  5  3  1  0
  6  4  1  0
  7  5  1  0
  8  6  1  0
  9  7  1  0
 10  8  1  0
 11  9  1  0
 12 10  1  0
 13 11  1  0
 14 12  1  0
M  END
>  <NAME>  (2424) 
1,12-DODECANEDIOL

>  <SYNONYMS>  (2424) 
1,12-DIHYDROXYDODECANE

>  <SPECTRUM TYPE>  (2424) 
MS1

>  <INSTRUMENT TYPE>  (2424) 
EI-B

>  <INSTRUMENT>  (2424) 
HITACHI M-80B

>  <ION MODE>  (2424) 
P

>  <INCHIKEY>  (2424) 
GHLKSLMMWAKNBM-UHFFFAOYSA-N

>  <FORMULA>  (2424) 
C12H26O2

>  <EXACT MASS>  (2424) 
202.193280072

>  <MW>  (2424) 
202

>  <ID>  (2424) 
JP008582

>  <CONTRIBUTOR>  (2424) 
University of Tokyo Team, {Faculty of Engineering, University of Tokyo

>  <COMMENT>  (2424) 
SMILES=OCCCCCCCCCCCCO
InChI=InChI=1S/C12H26O2/c13-11-9-7-5-3-1-2-4-6-8-10-12-14/h13-14H,1-12H2
computed SMILES=OCCCCCCCCCCCCO
accession=JP008582
date=2016.01.19 (Created 2008.10.21, modified 2011.05.06)
author=SODA AROMATIC CO., LTD.
license=CC BY-NC-SA
exact mass=202.19328
ionization energy=70 eV
ion type=[M]+*
computed spectral entropy=3.1601972506136575
computed normalized entropy=0.8687621713546885
SPLASH=splash10-05o3-9000000000-5ae7ecc08ed83bbd0832
submitter=submitter = University of Tokyo Team (Faculty of Engineering, University of Tokyo)
MoNA Rating=3.75

>  <NUM PEAKS>  (2424) 
38

>  <MASS SPECTRAL PEAKS>  (2424) 
16 1.17
18 9.69
27 11.59
29 15.79
31 38.24
39 8.95
41 65.32
42 15.6
43 27.07
44 2.02
45 4.42
53 4.4
54 24.18
55 99.99
56 18.09
57 16.83
66 3.62
67 36.93
68 46.15
69 37.02
70 12.13
71 7.33
73 1.8
81 28.99
82 63.01
83 23.91
84 5.92
85 4.87
95 23.81
96 24.56
97 11.82
98 3.39
109 10.4
110 9.6
111 3.96
123 3.6
124 1.1
138 1.88

>  <PREDICTED SPECTRUM>  (2424) 
18 7
26 48
27 208
28 90
29 295
30 49
31 273
32 46
39 297
40 113
41 899
42 365
43 578
44 199
45 126
46 44
47 32
51 16
52 19
53 260
54 591
55 999
56 424
57 507
58 90
59 42
60 44
61 5
63 9
65 84
66 186
67 875
68 837
69 825
70 327
71 354
72 60
73 27
75 13
77 68
79 241
80 207
81 841
82 862
83 596
84 257
85 144
86 58
87 0
88 10
89 22
91 35
93 129
94 64
95 690
96 651
97 389
98 184
99 114
100 6
101 15
104 34
107 112
108 103
109 462
110 282
111 80
112 46
113 29
114 25
115 7
116 16
117 11
121 68
123 226
124 173
125 11
127 63
128 12
137 80
138 71
143 72
144 3
154 4
155 82
157 12
184 76

$$$$

     RDKit          2D

 10 10  0  0  0  0  0  0  0  0999 V2000
    2.9228   -0.2425    0.0000 C   0  0  0  0  0  0  0  0  0  0  0  0
    2.9233    1.2583    0.0000 C   0  0  0  0  0  0  0  0  0  0  0  0
    1.6233   -0.9933    0.0000 C   0  0  0  0  0  0  0  0  0  0  0  0
    1.6243    2.0083    0.0000 C   0  0  0  0  0  0  0  0  0  0  0  0
    0.3243   -0.2433    0.0000 C   0  0  0  0  0  0  0  0  0  0  0  0
   -2.2733    1.2575    0.0000 C   0  0  0  0  0  0  0  0  0  0  0  0
    0.3248    1.2575    0.0000 C   0  0  0  0  0  0  0  0  0  0  0  0
   -0.9743    2.0075    0.0000 C   0  0  0  0  0  0  0  0  0  0  0  0
   -3.5724    2.0075    0.0000 O   0  0  0  0  0  0  0  0  0  0  0  0
   -0.9743    3.5075    0.0000 O   0  0  0  0  0  0  0  0  0  0  0  0
  2  1  2  0
  3  1  1  0
  4  2  1  0
  5  3  2  0
  7  4  2  0
  7  5  1  0
  8  6  1  0
  8  7  1  0
  9  6  1  0
 10  8  1  0
M  END
>  <NAME>  (2425) 
PHENYLETHYLENE GLYCOL

>  <SYNONYMS>  (2425) 
STYRENE GLYCOL

>  <SPECTRUM TYPE>  (2425) 
MS1

>  <INSTRUMENT TYPE>  (2425) 
EI-B

>  <INSTRUMENT>  (2425) 
HITACHI M-80B

>  <ION MODE>  (2425) 
P

>  <INCHIKEY>  (2425) 
PWMWNFMRSKOCEY-UHFFFAOYSA-N

>  <FORMULA>  (2425) 
C8H10O2

>  <EXACT MASS>  (2425) 
138.06807956

>  <MW>  (2425) 
138

>  <ID>  (2425) 
JP008580

>  <CONTRIBUTOR>  (2425) 
University of Tokyo Team, {Faculty of Engineering, University of Tokyo

>  <COMMENT>  (2425) 
SMILES=OCC(O)c(c1)cccc1
InChI=InChI=1S/C8H10O2/c9-6-8(10)7-4-2-1-3-5-7/h1-5,8-10H,6H2
computed SMILES=OCC(O)C=1C=CC=CC1
accession=JP008580
date=2016.01.19 (Created 2008.10.21, modified 2011.05.06)
author=SODA AROMATIC CO., LTD.
license=CC BY-NC-SA
exact mass=138.06808
ionization energy=70 eV
ion type=[M]+*
computed spectral entropy=2.4625712351472435
computed normalized entropy=0.7042945544537617
SPLASH=splash10-056r-9300000000-61822d25222e868a93ae
submitter=submitter = University of Tokyo Team (Faculty of Engineering, University of Tokyo)
MoNA Rating=3.75

>  <NUM PEAKS>  (2425) 
33

>  <MASS SPECTRAL PEAKS>  (2425) 
15 1.16
27 4.74
28 3.45
29 11.31
30 1.67
31 10.26
32 1.03
38 1.77
39 7.21
41 1.29
43 1.85
50 6.6
51 23.68
52 5.18
53 3.32
62 1.3
63 3.91
65 2.85
74 1.93
75 1.55
76 1.33
77 64.59
78 12.31
79 88.58
80 4.95
89 2.39
90 1.04
91 5.52
105 8.5
106 3.83
107 99.99
108 6.55
138 4.06

>  <PREDICTED SPECTRUM>  (2425) 
14 26
15 44
16 3
17 0
19 7
25 22
26 82
27 193
28 91
29 174
30 27
31 296
32 124
33 40
34 9
37 63
38 110
39 159
40 73
41 25
42 97
43 232
44 130
45 37
46 28
49 138
50 325
51 539
52 277
53 204
55 144
60 66
61 139
62 130
63 253
64 122
65 257
66 91
75 100
76 130
77 857
78 502
79 792
80 160
86 22
89 147
90 108
91 224
92 160
93 89
103 185
104 141
105 415
106 228
107 999
108 406
109 137
119 33
120 49
138 272
139 76

$$$$

     RDKit          2D

  9  9  0  0  0  0  0  0  0  0999 V2000
    0.6396    2.6142    0.0000 C   0  0  0  0  0  0  0  0  0  0  0  0
   -0.6740    0.3893    0.0000 C   0  0  0  0  0  0  0  0  0  0  0  0
    1.9241    1.8893    0.0000 C   0  0  0  0  0  0  0  0  0  0  0  0
    0.6506   -0.4048    0.0000 C   0  0  0  0  0  0  0  0  0  0  0  0
   -1.9548    2.6206    0.0000 C   0  0  0  0  0  0  0  0  0  0  0  0
   -0.6594    1.8642    0.0000 C   0  0  0  0  0  0  0  0  0  0  0  0
    1.9496    0.3452    0.0000 C   0  0  0  0  0  0  0  0  0  0  0  0
   -3.2575    1.8770    0.0000 O   0  0  0  0  0  0  0  0  0  0  0  0
    3.2548   -0.3941    0.0000 O   0  0  0  0  0  0  0  0  0  0  0  0
  3  1  2  0
  4  2  1  0
  6  1  1  0
  6  2  2  0
  6  5  1  0
  7  3  1  0
  7  4  2  0
  8  5  1  0
  9  7  1  0
M  END
>  <NAME>  (2426) 
PARA-HYDROXYBENZYL ALCOHOL

>  <SYNONYMS>  (2426) 
PARA-HYDROXYMETHYLPHENOL

>  <SPECTRUM TYPE>  (2426) 
MS1

>  <INSTRUMENT TYPE>  (2426) 
EI-B

>  <INSTRUMENT>  (2426) 
HITACHI M-80B

>  <ION MODE>  (2426) 
P

>  <INCHIKEY>  (2426) 
BVJSUAQZOZWCKN-UHFFFAOYSA-N

>  <FORMULA>  (2426) 
C7H8O2

>  <EXACT MASS>  (2426) 
124.052429496

>  <MW>  (2426) 
124

>  <ID>  (2426) 
JP008579

>  <CONTRIBUTOR>  (2426) 
University of Tokyo Team, {Faculty of Engineering, University of Tokyo

>  <COMMENT>  (2426) 
SMILES=OCc(c1)ccc(O)c1
InChI=InChI=1S/C7H8O2/c8-5-6-1-3-7(9)4-2-6/h1-4,8-9H,5H2
computed SMILES=OC1=CC=C(C=C1)CO
accession=JP008579
date=2016.01.19 (Created 2008.10.21, modified 2011.05.06)
author=SODA AROMATIC CO., LTD.
license=CC BY-NC-SA
exact mass=124.05243
ionization energy=70 eV
ion type=[M]+*
computed spectral entropy=3.0776586493517435
computed normalized entropy=0.8727577988319108
SPLASH=splash10-05i1-9400000000-f08047b4457dc23151d9
submitter=submitter = University of Tokyo Team (Faculty of Engineering, University of Tokyo)
MoNA Rating=3.75

>  <NUM PEAKS>  (2426) 
34

>  <MASS SPECTRAL PEAKS>  (2426) 
26 4.81
27 18.22
29 13
31 8.64
38 14.39
39 57.13
41 25.07
44 4.39
50 20.43
51 39.49
52 20.7
53 15.35
55 11.81
62 4.08
63 15.48
64 2.31
65 29.45
66 13.58
67 16.63
74 1.47
77 93.83
78 52.54
79 16.01
93 4.84
94 3.04
95 94.01
96 5.49
105 20.27
106 41.09
107 53.14
121 7.36
123 62.53
124 99.99
125 6.86

>  <PREDICTED SPECTRUM>  (2426) 
14 7
17 29
18 33
19 4
25 20
26 93
27 186
28 89
29 203
30 66
31 212
32 24
34 8
36 26
37 98
38 175
39 376
40 139
41 234
42 149
43 115
44 45
45 57
46 65
47 47
49 52
50 315
51 471
52 285
53 359
54 142
55 314
56 100
57 109
60 72
61 100
62 169
63 273
64 146
65 403
66 258
67 175
68 117
69 70
70 4
74 191
75 183
76 101
77 677
78 469
79 336
80 157
81 174
83 50
89 97
90 110
91 158
92 151
93 368
94 256
95 489
96 97
97 28
103 117
104 8
105 269
106 471
107 953
108 354
109 23
121 215
122 264
123 430
124 999
125 316
126 111

$$$$

     RDKit          2D

 11 11  0  0  0  0  0  0  0  0999 V2000
   -4.8712    2.0071    0.0000 C   0  0  0  0  0  0  0  0  0  0  0  0
    2.9231    0.5071    0.0000 C   0  0  0  0  0  0  0  0  0  0  0  0
    2.9236    2.0079    0.0000 C   0  0  0  0  0  0  0  0  0  0  0  0
    1.6236   -0.2437    0.0000 C   0  0  0  0  0  0  0  0  0  0  0  0
    1.6245    2.7579    0.0000 C   0  0  0  0  0  0  0  0  0  0  0  0
    0.3245    0.5063    0.0000 C   0  0  0  0  0  0  0  0  0  0  0  0
   -2.2731    2.0071    0.0000 C   0  0  0  0  0  0  0  0  0  0  0  0
   -0.9740    2.7571    0.0000 C   0  0  0  0  0  0  0  0  0  0  0  0
   -3.5721    2.7571    0.0000 C   0  0  0  0  0  0  0  0  0  0  0  0
    0.3250    2.0071    0.0000 C   0  0  0  0  0  0  0  0  0  0  0  0
   -3.5721    4.2571    0.0000 O   0  0  0  0  0  0  0  0  0  0  0  0
  3  2  2  0
  4  2  1  0
  5  3  1  0
  6  4  2  0
  8  7  1  0
  9  1  1  0
  9  7  1  0
 10  5  2  0
 10  6  1  0
 10  8  1  0
 11  9  1  0
M  END
>  <NAME>  (2427) 
1-PHENYL-3-BUTANOL

>  <SYNONYMS>  (2427) 


>  <SPECTRUM TYPE>  (2427) 
MS1

>  <INSTRUMENT TYPE>  (2427) 
EI-B

>  <INSTRUMENT>  (2427) 
HITACHI M-80B

>  <ION MODE>  (2427) 
P

>  <INCHIKEY>  (2427) 
GDWRKZLROIFUML-UHFFFAOYSA-N

>  <FORMULA>  (2427) 
C10H14O

>  <EXACT MASS>  (2427) 
150.104465068

>  <MW>  (2427) 
150

>  <ID>  (2427) 
JP008578

>  <CONTRIBUTOR>  (2427) 
University of Tokyo Team, {Faculty of Engineering, University of Tokyo

>  <COMMENT>  (2427) 
SMILES=CC(O)CCc(c1)cccc1
InChI=InChI=1S/C10H14O/c1-9(11)7-8-10-5-3-2-4-6-10/h2-6,9,11H,7-8H2,1H3
computed SMILES=OC(C)CCC=1C=CC=CC1
accession=JP008578
date=2016.01.19 (Created 2008.10.21, modified 2011.05.06)
author=SODA AROMATIC CO., LTD.
license=CC BY-NC-SA
exact mass=150.10447
ionization energy=70 eV
ion type=[M]+*
computed spectral entropy=2.915402893400616
computed normalized entropy=0.7572184744568567
SPLASH=splash10-00kf-9600000000-1f41f661aea293fbf718
submitter=submitter = University of Tokyo Team (Faculty of Engineering, University of Tokyo)
MoNA Rating=3.75

>  <NUM PEAKS>  (2427) 
47

>  <MASS SPECTRAL PEAKS>  (2427) 
15 1.35
19 1.13
27 6.79
29 2.92
31 2.39
39 9.28
41 2.54
43 9.51
44 1.79
45 34.72
50 2.88
51 10.92
52 2.8
53 1.55
54 1.79
57 1.31
59 1.47
62 1.2
63 4.04
64 1.37
65 15.06
66 1.03
74 1.01
75 1.01
76 1.2
77 15.6
78 27.94
79 10.04
89 2.89
90 1.18
91 95.72
92 47.17
93 2.91
102 1.23
103 7.73
104 7.58
105 13.3
106 2.48
115 5.63
116 1.48
117 99.99
118 10.01
131 9.81
132 60.19
133 7
150 11.01
151 1.08

>  <PREDICTED SPECTRUM>  (2427) 
14 8
15 14
16 9
17 8
18 21
19 18
26 59
27 220
28 72
29 182
31 161
32 11
37 32
38 88
39 295
40 87
41 292
42 77
43 373
44 75
45 302
46 30
49 16
50 148
51 241
52 136
53 173
54 33
55 72
57 71
58 182
59 146
62 78
63 190
64 128
65 354
66 92
67 36
68 5
71 31
72 4
74 46
75 95
76 89
77 286
78 266
79 232
80 64
85 4
86 0
87 41
89 186
90 147
91 999
92 630
93 180
94 72
102 39
103 186
104 291
105 461
106 191
107 108
108 6
115 247
116 134
117 651
118 352
119 27
129 65
130 16
131 214
132 445
133 133
135 72
136 1
150 255
151 85

$$$$

     RDKit          2D

 11 12  0  0  0  0  0  0  0  0999 V2000
   -2.7200   -1.0200    0.0000 C   0  0  0  0  0  0  0  0  0  0  0  0
   -2.7200    0.4800    0.0000 C   0  0  0  0  0  0  0  0  0  0  0  0
    2.4800   -1.0200    0.0000 C   0  0  0  0  0  0  0  0  0  0  0  0
   -1.4200   -1.7700    0.0000 C   0  0  0  0  0  0  0  0  0  0  0  0
    1.1800   -1.7700    0.0000 C   0  0  0  0  0  0  0  0  0  0  0  0
   -1.4200    1.2300    0.0000 C   0  0  0  0  0  0  0  0  0  0  0  0
    2.4800    0.4800    0.0000 C   0  0  0  0  0  0  0  0  0  0  0  0
   -0.1200   -1.0200    0.0000 C   0  0  0  0  0  0  0  0  0  0  0  0
   -0.1200    0.4800    0.0000 C   0  0  0  0  0  0  0  0  0  0  0  0
    1.1800    1.2300    0.0000 C   0  0  0  0  0  0  0  0  0  0  0  0
    1.1800    2.7300    0.0000 O   0  0  0  0  0  0  0  0  0  0  0  0
  2  1  2  0
  4  1  1  0
  5  3  2  0
  6  2  1  0
  7  3  1  0
  8  4  2  0
  8  5  1  0
  9  6  2  0
  9  8  1  0
 10  7  2  0
 10  9  1  0
 11 10  1  0
M  END
>  <NAME>  (2428) 
1-NAPHTHOL

>  <SYNONYMS>  (2428) 


>  <SPECTRUM TYPE>  (2428) 
MS1

>  <INSTRUMENT TYPE>  (2428) 
EI-B

>  <INSTRUMENT>  (2428) 
HITACHI M-80B

>  <ION MODE>  (2428) 
P

>  <INCHIKEY>  (2428) 
KJCVRFUGPWSIIH-UHFFFAOYSA-N

>  <FORMULA>  (2428) 
C10H8O

>  <EXACT MASS>  (2428) 
144.057514876

>  <MW>  (2428) 
144

>  <ID>  (2428) 
JP008575

>  <CONTRIBUTOR>  (2428) 
University of Tokyo Team, {Faculty of Engineering, University of Tokyo

>  <COMMENT>  (2428) 
SMILES=Oc(c1)c(c2)c(ccc2)cc1
InChI=InChI=1S/C10H8O/c11-10-7-3-5-8-4-1-2-6-9(8)10/h1-7,11H
computed SMILES=OC1=CC=CC=2C=CC=CC12
accession=JP008575
date=2016.01.19 (Created 2008.10.21, modified 2011.05.06)
author=SODA AROMATIC CO., LTD.
license=CC BY-NC-SA
exact mass=144.05751
ionization energy=70 eV
ion type=[M]+*
computed spectral entropy=2.5027924563195025
computed normalized entropy=0.6984175329621064
SPLASH=splash10-014l-3900000000-61210a72d0e1913d7c72
submitter=submitter = University of Tokyo Team (Faculty of Engineering, University of Tokyo)
MoNA Rating=3.75

>  <NUM PEAKS>  (2428) 
36

>  <MASS SPECTRAL PEAKS>  (2428) 
26 1.02
27 2.01
29 1.76
37 1
38 2.49
39 7.66
50 5.22
51 5.27
52 1.04
53 1.53
57 4.92
58 5.02
61 1.96
62 6.09
63 13.97
64 2.27
65 4.47
72 6.5
74 4.31
75 3.72
76 1.86
77 2.03
85 1.09
86 2.62
87 3.95
88 3.1
89 11.39
90 1.98
113 2.95
114 4.56
115 89.27
116 42.36
117 3.16
143 1.64
144 99.99
145 9.94

>  <PREDICTED SPECTRUM>  (2428) 
14 19
16 5
17 2
25 14
26 67
27 127
28 77
29 136
36 3
37 49
38 98
39 201
40 44
41 81
44 37
49 46
50 200
51 239
52 134
53 7
55 68
56 41
57 105
58 83
61 84
62 163
63 273
64 114
65 136
66 41
67 46
68 31
69 25
70 86
71 14
72 2
73 80
74 219
75 189
76 158
77 168
78 41
81 8
83 6
84 39
85 49
86 104
87 80
88 79
89 252
90 140
96 3
97 28
98 69
101 7
113 123
114 183
115 788
116 427
117 153
142 22
143 122
144 999
145 352
146 100

$$$$

     RDKit          2D

 13 15  0  0  0  0  0  0  0  0999 V2000
    3.6900    0.1600    0.0000 C   0  0  0  0  0  0  0  0  0  0  0  0
   -3.6800    0.1600    0.0000 C   0  0  0  0  0  0  0  0  0  0  0  0
    3.2200   -1.2700    0.0000 C   0  0  0  0  0  0  0  0  0  0  0  0
   -3.2200   -1.2700    0.0000 C   0  0  0  0  0  0  0  0  0  0  0  0
    2.6800    1.2700    0.0000 C   0  0  0  0  0  0  0  0  0  0  0  0
   -2.6800    1.2700    0.0000 C   0  0  0  0  0  0  0  0  0  0  0  0
    1.7500   -1.5800    0.0000 C   0  0  0  0  0  0  0  0  0  0  0  0
   -1.7500   -1.5800    0.0000 C   0  0  0  0  0  0  0  0  0  0  0  0
   -0.0000    1.8400    0.0000 C   0  0  0  0  0  0  0  0  0  0  0  0
    1.2100    0.9600    0.0000 C   0  0  0  0  0  0  0  0  0  0  0  0
   -1.2100    0.9600    0.0000 C   0  0  0  0  0  0  0  0  0  0  0  0
    0.7500   -0.4700    0.0000 C   0  0  0  0  0  0  0  0  0  0  0  0
   -0.7500   -0.4700    0.0000 C   0  0  0  0  0  0  0  0  0  0  0  0
  3  1  2  0
  4  2  2  0
  5  1  1  0
  6  2  1  0
  7  3  1  0
  8  4  1  0
 10  5  2  0
 10  9  1  0
 11  6  2  0
 11  9  1  0
 12  7  2  0
 12 10  1  0
 13  8  2  0
 13 11  1  0
 13 12  1  0
M  END
>  <NAME>  (2429) 
FLUORENE

>  <SYNONYMS>  (2429) 


>  <SPECTRUM TYPE>  (2429) 
MS1

>  <INSTRUMENT TYPE>  (2429) 
EI-B

>  <INSTRUMENT>  (2429) 
HITACHI M-80B

>  <ION MODE>  (2429) 
P

>  <INCHIKEY>  (2429) 
NIHNNTQXNPWCJQ-UHFFFAOYSA-N

>  <FORMULA>  (2429) 
C13H10

>  <EXACT MASS>  (2429) 
166.07825032

>  <MW>  (2429) 
166

>  <ID>  (2429) 
JP008574

>  <CONTRIBUTOR>  (2429) 
University of Tokyo Team, {Faculty of Engineering, University of Tokyo

>  <COMMENT>  (2429) 
SMILES=c(c3)cc(C1)c(c3)c(c2)c(ccc2)1
InChI=InChI=1S/C13H10/c1-3-7-12-10(5-1)9-11-6-2-4-8-13(11)12/h1-8H,9H2
computed SMILES=C=1C=CC2=C(C1)C=3C=CC=CC3C2
accession=JP008574
date=2016.01.19 (Created 2008.10.21, modified 2011.05.06)
author=SODA AROMATIC CO., LTD.
license=CC BY-NC-SA
exact mass=166.07825
ionization energy=70 eV
ion type=[M]+*
computed spectral entropy=2.7282686377532874
computed normalized entropy=0.7209650946927726
SPLASH=splash10-014i-4900000000-aff7675602d75a9d711e
submitter=submitter = University of Tokyo Team (Faculty of Engineering, University of Tokyo)
MoNA Rating=3.75

>  <NUM PEAKS>  (2429) 
44

>  <MASS SPECTRAL PEAKS>  (2429) 
17 1.06
27 2.17
38 2.61
39 7.65
41 1.05
50 6.05
51 5.27
52 1.2
61 1.57
62 6.39
63 12.25
64 1.34
65 1.44
69 1.13
70 7.52
74 5.97
75 4.24
76 1.53
77 1.23
81 2.67
82 7.87
83 11.44
85 1.07
86 4.7
87 6.43
88 1.93
89 4.47
98 2.32
99 1.17
110 1.9
111 1.88
113 3.29
115 6.46
126 1.35
137 1.91
138 1.1
139 12.26
140 1.28
162 1.83
163 14.01
164 10.29
165 89.2
166 99.99
167 11.74

>  <PREDICTED SPECTRUM>  (2429) 
37 20
38 54
39 169
40 26
41 24
44 18
49 53
50 169
51 198
52 71
53 13
54 28
55 47
56 20
57 89
61 73
62 167
63 235
64 87
65 44
67 13
68 29
69 80
70 4
74 161
75 193
76 243
81 140
82 204
83 149
84 36
85 10
86 115
87 226
88 180
89 252
90 76
95 51
96 86
97 38
98 62
99 48
100 79
101 3
102 18
107 12
109 12
110 92
111 76
113 106
114 39
115 198
116 28
126 76
127 41
137 167
138 166
139 285
140 124
149 2
150 1
151 181
152 85
161 7
162 148
163 361
164 437
165 930
166 999
167 439
168 75

$$$$

     RDKit          2D

 11 11  0  0  0  0  0  0  0  0999 V2000
   -5.5207    3.1321    0.0000 C   0  0  0  0  0  0  0  0  0  0  0  0
   -4.2216    2.3821    0.0000 C   0  0  0  0  0  0  0  0  0  0  0  0
   -2.9226    3.1321    0.0000 C   0  0  0  0  0  0  0  0  0  0  0  0
    3.5726    0.8821    0.0000 C   0  0  0  0  0  0  0  0  0  0  0  0
   -1.6236    2.3821    0.0000 C   0  0  0  0  0  0  0  0  0  0  0  0
    3.5731    2.3829    0.0000 C   0  0  0  0  0  0  0  0  0  0  0  0
    2.2731    0.1313    0.0000 C   0  0  0  0  0  0  0  0  0  0  0  0
   -0.3245    3.1321    0.0000 C   0  0  0  0  0  0  0  0  0  0  0  0
    2.2740    3.1329    0.0000 C   0  0  0  0  0  0  0  0  0  0  0  0
    0.9740    0.8813    0.0000 C   0  0  0  0  0  0  0  0  0  0  0  0
    0.9745    2.3821    0.0000 C   0  0  0  0  0  0  0  0  0  0  0  0
  2  1  1  0
  3  2  1  0
  5  3  1  0
  6  4  2  0
  7  4  1  0
  8  5  1  0
  9  6  1  0
 10  7  2  0
 11  8  1  0
 11  9  2  0
 11 10  1  0
M  END
>  <NAME>  (2430) 
PENTYL BENZENE

>  <SYNONYMS>  (2430) 


>  <SPECTRUM TYPE>  (2430) 
MS1

>  <INSTRUMENT TYPE>  (2430) 
EI-B

>  <INSTRUMENT>  (2430) 
HITACHI M-80B

>  <ION MODE>  (2430) 
P

>  <INCHIKEY>  (2430) 
PWATWSYOIIXYMA-UHFFFAOYSA-N

>  <FORMULA>  (2430) 
C11H16

>  <EXACT MASS>  (2430) 
148.125200512

>  <MW>  (2430) 
148

>  <ID>  (2430) 
JP008572

>  <CONTRIBUTOR>  (2430) 
University of Tokyo Team, {Faculty of Engineering, University of Tokyo

>  <COMMENT>  (2430) 
SMILES=CCCCCc(c1)cccc1
InChI=InChI=1S/C11H16/c1-2-3-5-8-11-9-6-4-7-10-11/h4,6-7,9-10H,2-3,5,8H2,1H3
computed SMILES=C=1C=CC(=CC1)CCCCC
accession=JP008572
date=2016.01.19 (Created 2008.10.21, modified 2011.05.06)
author=SODA AROMATIC CO., LTD.
license=CC BY-NC-SA
exact mass=148.1252
ionization energy=70 eV
ion type=[M]+*
computed spectral entropy=2.291648281732716
computed normalized entropy=0.680560425171174
SPLASH=splash10-0006-9100000000-2d0366b3b374b5ee38c0
submitter=submitter = University of Tokyo Team (Faculty of Engineering, University of Tokyo)
MoNA Rating=3.75

>  <NUM PEAKS>  (2430) 
29

>  <MASS SPECTRAL PEAKS>  (2430) 
27 5.65
29 6.77
39 7.3
41 8.33
43 1.09
50 1.52
51 4.29
52 1.34
57 2.54
63 2.45
65 12.89
77 5.39
78 5.75
79 2.62
89 2.13
90 1.26
91 99.99
92 66.52
93 4.25
103 2.4
104 1.8
105 8.06
106 1.66
115 1.47
117 1.14
119 1.43
133 1.49
148 23.23
149 2.29

>  <PREDICTED SPECTRUM>  (2430) 
26 19
27 192
28 38
29 209
38 37
39 218
40 67
41 330
42 91
43 217
44 7
50 120
51 226
52 160
53 121
55 98
56 83
57 187
58 98
62 39
63 137
64 86
65 340
66 123
67 22
75 21
76 57
77 246
78 311
79 248
80 0
89 86
90 121
91 999
92 643
93 166
94 6
102 22
103 147
104 327
105 371
106 96
115 155
116 16
117 148
119 105
146 81
148 450
149 156

$$$$

     RDKit          2D

  6  5  0  0  0  0  0  0  0  0999 V2000
   -0.0000   -0.0000    0.0000 C   0  0  0  0  0  0  0  0  0  0  0  0
    1.2990    2.2500    0.0000 C   0  0  0  0  0  0  0  0  0  0  0  0
   -2.5981    1.5000    0.0000 C   0  0  0  0  0  0  0  0  0  0  0  0
   -1.2990    3.7500    0.0000 C   0  0  0  0  0  0  0  0  0  0  0  0
   -0.0000    1.5000    0.0000 C   0  0  0  0  0  0  0  0  0  0  0  0
   -1.2990    2.2500    0.0000 C   0  0  0  0  0  0  0  0  0  0  0  0
  5  1  2  0
  5  2  1  0
  6  3  2  0
  6  4  1  0
  6  5  1  0
M  END
>  <NAME>  (2431) 
2,3-DIMETHYL-1,3-BUTADIENE

>  <SYNONYMS>  (2431) 


>  <SPECTRUM TYPE>  (2431) 
MS1

>  <INSTRUMENT TYPE>  (2431) 
EI-B

>  <INSTRUMENT>  (2431) 
HITACHI M-80B

>  <ION MODE>  (2431) 
P

>  <INCHIKEY>  (2431) 
SDJHPPZKZZWAKF-UHFFFAOYSA-N

>  <FORMULA>  (2431) 
C6H10

>  <EXACT MASS>  (2431) 
82.07825032

>  <MW>  (2431) 
82

>  <ID>  (2431) 
JP008571

>  <CONTRIBUTOR>  (2431) 
University of Tokyo Team, {Faculty of Engineering, University of Tokyo

>  <COMMENT>  (2431) 
SMILES=CC(=C)C(C)=C
InChI=InChI=1S/C6H10/c1-5(2)6(3)4/h1,3H2,2,4H3
computed SMILES=C=C(C(=C)C)C
accession=JP008571
date=2016.01.19 (Created 2008.10.21, modified 2011.05.06)
author=SODA AROMATIC CO., LTD.
license=CC BY-NC-SA
exact mass=82.07825
ionization energy=70 eV
ion type=[M]+*
computed spectral entropy=2.676230317126711
computed normalized entropy=0.7793361354495656
SPLASH=splash10-014u-9000000000-0da5b0a1646eced62e3e
submitter=submitter = University of Tokyo Team (Faculty of Engineering, University of Tokyo)
MoNA Rating=3.75

>  <NUM PEAKS>  (2431) 
31

>  <MASS SPECTRAL PEAKS>  (2431) 
15 4.59
26 2.91
27 23.3
28 2.09
29 3.77
37 3.76
38 11.58
39 89.82
40 17.55
41 71.71
42 12.88
43 3.4
50 6.25
51 10.48
52 4.57
53 19.86
54 30.13
55 5.06
56 1.83
61 1.16
62 1.93
63 3.56
65 13.69
66 3.77
67 99.99
68 4.66
77 2.25
79 5.26
81 10.96
82 54.34
83 3.11

>  <PREDICTED SPECTRUM>  (2431) 
25 19
26 122
27 383
28 121
29 112
36 14
37 119
38 190
39 737
40 303
41 811
42 177
49 59
50 209
51 391
52 206
53 449
54 204
55 162
56 29
62 78
63 156
64 43
65 333
66 183
67 999
68 225
69 130
74 68
77 367
79 277
80 51
81 296
82 712
83 98

$$$$

     RDKit          2D

  6  5  0  0  0  0  0  0  0  0999 V2000
   -0.0000    1.5000    0.0000 C   0  0  0  0  0  0  0  0  0  0  0  0
   -1.2990    2.2500    0.0000 C   0  0  0  0  0  0  0  0  0  0  0  0
   -0.0000   -0.0000    0.0000 Cl  0  0  0  0  0  0  0  0  0  0  0  0
    1.2990    2.2500    0.0000 Cl  0  0  0  0  0  0  0  0  0  0  0  0
   -1.2990    3.7500    0.0000 Cl  0  0  0  0  0  0  0  0  0  0  0  0
   -2.5981    1.5000    0.0000 Cl  0  0  0  0  0  0  0  0  0  0  0  0
  2  1  1  0
  3  1  1  0
  4  1  1  0
  5  2  1  0
  6  2  1  0
M  END
>  <NAME>  (2432) 
1,1,2,2-TETRACHLOROETHANE

>  <SYNONYMS>  (2432) 


>  <SPECTRUM TYPE>  (2432) 
MS1

>  <INSTRUMENT TYPE>  (2432) 
EI-B

>  <INSTRUMENT>  (2432) 
HITACHI M-80B

>  <ION MODE>  (2432) 
P

>  <INCHIKEY>  (2432) 
QPFMBZIOSGYJDE-UHFFFAOYSA-N

>  <FORMULA>  (2432) 
C2H2Cl4

>  <EXACT MASS>  (2432) 
165.891060784

>  <MW>  (2432) 
166

>  <ID>  (2432) 
JP008570

>  <CONTRIBUTOR>  (2432) 
University of Tokyo Team, {Faculty of Engineering, University of Tokyo

>  <COMMENT>  (2432) 
SMILES=ClC(Cl)C(Cl)Cl
InChI=InChI=1S/C2H2Cl4/c3-1(4)2(5)6/h1-2H
computed SMILES=ClC(Cl)C(Cl)Cl
accession=JP008570
date=2016.01.19 (Created 2008.10.21, modified 2011.05.06)
author=SODA AROMATIC CO., LTD.
license=CC BY-NC-SA
exact mass=165.89106
ionization energy=70 eV
ion type=[M]+*
computed spectral entropy=2.6035960950363988
computed normalized entropy=0.7446276174916714
SPLASH=splash10-001r-9100000000-b52fc89aeb135702ad1c
submitter=submitter = University of Tokyo Team (Faculty of Engineering, University of Tokyo)
MoNA Rating=3.75

>  <NUM PEAKS>  (2432) 
33

>  <MASS SPECTRAL PEAKS>  (2432) 
25 2.79
26 7.88
35 7.3
36 1.02
37 2.15
47 3.74
48 3.28
49 1.61
50 1
59 1.17
60 10.61
61 10.73
62 3.33
63 2.75
83 99.99
84 1.86
85 63.88
86 1.01
87 10.4
94 1.28
95 14.6
96 10.31
97 9.64
98 5.92
99 1.39
130 2.04
131 9.86
132 2.23
133 9.54
135 2.49
166 7.69
168 10.38
170 3.89

>  <PREDICTED SPECTRUM>  (2432) 
14 5
25 64
26 85
27 92
28 26
31 49
32 3
35 234
36 183
37 139
38 116
39 3
46 15
47 258
48 201
49 254
50 198
51 158
52 15
57 54
59 72
60 245
61 452
62 192
63 296
64 18
67 12
71 6
72 191
73 4
74 42
75 75
81 69
82 11
83 999
84 210
85 710
86 132
87 357
88 58
89 91
95 281
96 316
97 310
98 325
99 329
100 161
101 116
102 0
131 203
132 197
133 205
134 38
135 85
137 19
168 26

$$$$

     RDKit          2D

  6  5  0  0  0  0  0  0  0  0999 V2000
    1.2990    2.2500    0.0000 C   0  0  0  0  0  0  0  0  0  0  0  0
   -3.8971    2.2500    0.0000 C   0  0  0  0  0  0  0  0  0  0  0  0
   -2.5981    4.5000    0.0000 C   0  0  0  0  0  0  0  0  0  0  0  0
    0.0000    3.0000    0.0000 C   0  0  0  0  0  0  0  0  0  0  0  0
   -1.2990    2.2500    0.0000 C   0  0  0  0  0  0  0  0  0  0  0  0
   -2.5981    3.0000    0.0000 C   0  0  0  0  0  0  0  0  0  0  0  0
  4  1  1  0
  5  4  1  0
  6  2  1  0
  6  3  1  0
  6  5  1  0
M  END
>  <NAME>  (2433) 
2-METHYLPENTANE

>  <SYNONYMS>  (2433) 
ISOHEXANE

>  <SPECTRUM TYPE>  (2433) 
MS1

>  <INSTRUMENT TYPE>  (2433) 
EI-B

>  <INSTRUMENT>  (2433) 
HITACHI M-80B

>  <ION MODE>  (2433) 
P

>  <INCHIKEY>  (2433) 
AFABGHUZZDYHJO-UHFFFAOYSA-N

>  <FORMULA>  (2433) 
C6H14

>  <EXACT MASS>  (2433) 
86.109550448

>  <MW>  (2433) 
86

>  <ID>  (2433) 
JP008569

>  <CONTRIBUTOR>  (2433) 
University of Tokyo Team, {Faculty of Engineering, University of Tokyo

>  <COMMENT>  (2433) 
SMILES=CCCC(C)C
InChI=InChI=1S/C6H14/c1-4-5-6(2)3/h6H,4-5H2,1-3H3
computed SMILES=CCCC(C)C
accession=JP008569
date=2016.01.19 (Created 2008.10.21, modified 2011.05.06)
author=SODA AROMATIC CO., LTD.
license=CC BY-NC-SA
exact mass=86.10955
ionization energy=70 eV
ion type=[M]+*
computed spectral entropy=2.265785118341482
computed normalized entropy=0.7563376535158347
SPLASH=splash10-0006-9000000000-b52721b6aaea54e0c25b
submitter=submitter = University of Tokyo Team (Faculty of Engineering, University of Tokyo)
MoNA Rating=3.75

>  <NUM PEAKS>  (2433) 
20

>  <MASS SPECTRAL PEAKS>  (2433) 
15 1.21
27 16.72
28 1.4
29 11.75
38 1.05
39 16
40 2.6
41 34.02
42 53.4
43 99.99
44 3.41
53 1.64
55 7.64
56 6.12
57 14.36
70 11.01
71 44.23
72 2.45
85 1.12
86 5.82

>  <PREDICTED SPECTRUM>  (2433) 
14 41
15 127
26 112
27 530
28 201
29 449
30 21
31 11
37 18
38 65
39 443
40 185
41 728
42 398
43 999
44 268
45 91
50 11
51 122
52 55
53 204
54 107
55 419
56 439
57 852
58 166
67 36
69 69
70 276
71 585
72 229
86 325
87 84

$$$$

     RDKit          2D

  7  6  0  0  0  0  0  0  0  0999 V2000
    1.9486    3.3750    0.0000 C   0  0  0  0  0  0  0  0  0  0  0  0
   -5.8457    3.3750    0.0000 C   0  0  0  0  0  0  0  0  0  0  0  0
    0.6495    4.1250    0.0000 C   0  0  0  0  0  0  0  0  0  0  0  0
   -4.5466    4.1250    0.0000 C   0  0  0  0  0  0  0  0  0  0  0  0
   -0.6495    3.3750    0.0000 C   0  0  0  0  0  0  0  0  0  0  0  0
   -3.2476    3.3750    0.0000 C   0  0  0  0  0  0  0  0  0  0  0  0
   -1.9486    4.1250    0.0000 C   0  0  0  0  0  0  0  0  0  0  0  0
  3  1  1  0
  4  2  1  0
  5  3  1  0
  6  4  1  0
  7  5  1  0
  7  6  1  0
M  END
>  <NAME>  (2434) 
HEPTANE

>  <SYNONYMS>  (2434) 


>  <SPECTRUM TYPE>  (2434) 
MS1

>  <INSTRUMENT TYPE>  (2434) 
EI-B

>  <INSTRUMENT>  (2434) 
HITACHI M-80B

>  <ION MODE>  (2434) 
P

>  <INCHIKEY>  (2434) 
IMNFDUFMRHMDMM-UHFFFAOYSA-N

>  <FORMULA>  (2434) 
C7H16

>  <EXACT MASS>  (2434) 
100.12520051199999

>  <MW>  (2434) 
100

>  <ID>  (2434) 
JP008568

>  <CONTRIBUTOR>  (2434) 
University of Tokyo Team, {Faculty of Engineering, University of Tokyo

>  <COMMENT>  (2434) 
SMILES=CCCCCCC
InChI=InChI=1S/C7H16/c1-3-5-7-6-4-2/h3-7H2,1-2H3
computed SMILES=CCCCCCC
accession=JP008568
date=2016.01.19 (Created 2008.10.21, modified 2011.05.06)
author=SODA AROMATIC CO., LTD.
license=CC BY-NC-SA
exact mass=100.1252
ionization energy=70 eV
ion type=[M]+*
computed spectral entropy=2.49652683770373
computed normalized entropy=0.8076650111975446
SPLASH=splash10-0006-9000000000-701ce932ab165d8e8bb5
submitter=submitter = University of Tokyo Team (Faculty of Engineering, University of Tokyo)
MoNA Rating=3.75

>  <NUM PEAKS>  (2434) 
22

>  <MASS SPECTRAL PEAKS>  (2434) 
15 1.59
26 1.66
27 33.02
28 13.17
29 44.16
39 20.54
40 2.37
41 55.47
42 23.79
43 99.99
44 2.69
51 1.51
53 2.19
55 9.05
56 24.67
57 46.32
58 1.75
70 17.72
71 38.96
72 1.91
85 1.25
100 9.03

>  <PREDICTED SPECTRUM>  (2434) 
14 13
15 43
25 4
26 111
27 515
28 199
29 592
30 298
37 41
38 66
39 407
40 166
41 733
42 495
43 999
44 181
51 48
52 9
53 148
54 185
55 482
56 604
57 777
58 155
67 20
68 114
69 177
70 392
71 305
72 101
83 63
85 78
98 116
99 43
100 107
101 49

$$$$

     RDKit          2D

  9  9  0  0  0  0  0  0  0  0999 V2000
   -2.7872    0.5824    0.0000 C   0  0  0  0  0  0  0  0  0  0  0  0
   -1.3100    0.3221    0.0000 C   0  0  0  0  0  0  0  0  0  0  0  0
    2.7653    1.5618    0.0000 C   0  0  0  0  0  0  0  0  0  0  0  0
    2.7658    0.0609    0.0000 C   0  0  0  0  0  0  0  0  0  0  0  0
    1.4658    2.3126    0.0000 C   0  0  0  0  0  0  0  0  0  0  0  0
    1.4668   -0.6891    0.0000 C   0  0  0  0  0  0  0  0  0  0  0  0
    0.1668    1.5626    0.0000 C   0  0  0  0  0  0  0  0  0  0  0  0
    0.1673    0.0618    0.0000 C   0  0  0  0  0  0  0  0  0  0  0  0
   -0.3459   -1.3477    0.0000 O   0  0  0  0  0  0  0  0  0  0  0  0
  2  1  3  0
  4  3  1  0
  5  3  1  0
  6  4  1  0
  7  5  1  0
  8  2  1  0
  8  6  1  0
  8  7  1  0
  9  8  1  0
M  END
>  <NAME>  (2435) 
1-ETHYNYLCYCLOHEXANOL

>  <SYNONYMS>  (2435) 


>  <SPECTRUM TYPE>  (2435) 
MS1

>  <INSTRUMENT TYPE>  (2435) 
EI-B

>  <INSTRUMENT>  (2435) 
HITACHI M-80B

>  <ION MODE>  (2435) 
P

>  <INCHIKEY>  (2435) 
QYLFHLNFIHBCPR-UHFFFAOYSA-N

>  <FORMULA>  (2435) 
C8H12O

>  <EXACT MASS>  (2435) 
124.088815004

>  <MW>  (2435) 
124

>  <ID>  (2435) 
JP008566

>  <CONTRIBUTOR>  (2435) 
University of Tokyo Team, {Faculty of Engineering, University of Tokyo

>  <COMMENT>  (2435) 
SMILES=C#CC(O)(C1)CCCC1
InChI=InChI=1S/C8H12O/c1-2-8(9)6-4-3-5-7-8/h1,9H,3-7H2
computed SMILES=C#CC1(O)CCCCC1
accession=JP008566
date=2016.01.19 (Created 2008.10.21, modified 2011.05.06)
author=SODA AROMATIC CO., LTD.
license=CC BY-NC-SA
exact mass=124.08882
ionization energy=70 eV
ion type=[M]+*
computed spectral entropy=3.1581233373612525
computed normalized entropy=0.8157993678092669
SPLASH=splash10-00l2-9000000000-bf0c06da1e3bfab1c0ae
submitter=submitter = University of Tokyo Team (Faculty of Engineering, University of Tokyo)
MoNA Rating=3.75

>  <NUM PEAKS>  (2435) 
48

>  <MASS SPECTRAL PEAKS>  (2435) 
15 2.12
26 3.88
27 28.27
28 9.67
29 11.58
31 2.19
32 1.61
37 1.18
38 3.64
39 44.97
40 12.38
41 29.07
42 7.92
43 10.79
50 5.6
51 12.17
52 3.63
53 40.38
54 7.01
55 26.09
56 3.54
57 2.31
62 1.79
63 3.64
64 1.75
65 4.81
66 4.25
67 20.34
68 82.09
69 10.52
70 2.7
77 6.21
78 3.73
79 5.22
80 2.54
81 99.99
82 15.31
83 4.31
91 6.1
93 1.56
94 1.16
95 68.93
96 35.95
97 4.01
105 1.51
109 21.94
110 1.78
123 7.67

>  <PREDICTED SPECTRUM>  (2435) 
14 33
15 98
16 8
19 3
25 58
26 241
27 637
28 275
29 470
30 6
31 110
32 16
36 66
37 206
38 317
39 989
40 500
41 902
42 508
43 380
44 164
45 22
46 5
49 82
50 359
51 488
52 427
53 821
54 615
55 566
56 322
57 165
58 14
61 42
62 118
63 320
64 207
65 423
66 250
67 839
68 843
69 436
70 210
71 95
75 99
76 65
77 427
78 315
79 358
80 229
81 999
82 471
83 214
84 126
85 86
86 36
87 2
89 65
90 79
91 411
92 100
93 148
94 76
95 485
96 421
97 95
105 212
106 192
107 128
108 21
109 384
110 98
121 6
123 391
124 107

$$$$

     RDKit          2D

  8  8  0  0  0  0  0  0  0  0999 V2000
   -0.6520   -2.2491    0.0000 C   0  0  0  0  0  0  0  0  0  0  0  0
   -1.9467    1.4939    0.0000 C   0  0  0  0  0  0  0  0  0  0  0  0
   -1.9512    0.0017    0.0000 C   0  0  0  0  0  0  0  0  0  0  0  0
   -0.6477    2.2439    0.0000 C   0  0  0  0  0  0  0  0  0  0  0  0
    0.6473    0.0009    0.0000 C   0  0  0  0  0  0  0  0  0  0  0  0
   -0.6517   -0.7491    0.0000 C   0  0  0  0  0  0  0  0  0  0  0  0
    0.6468    1.5017    0.0000 C   0  0  0  0  0  0  0  0  0  0  0  0
    1.9446    2.2539    0.0000 O   0  0  0  0  0  0  0  0  0  0  0  0
  3  2  1  0
  4  2  1  0
  6  1  1  0
  6  3  1  0
  6  5  2  0
  7  4  1  0
  7  5  1  0
  8  7  2  0
M  END
>  <NAME>  (2436) 
3-METHYL-2-CYCLOHEXEN-1-ONE

>  <SYNONYMS>  (2436) 


>  <SPECTRUM TYPE>  (2436) 
MS1

>  <INSTRUMENT TYPE>  (2436) 
EI-B

>  <INSTRUMENT>  (2436) 
HITACHI M-80B

>  <ION MODE>  (2436) 
P

>  <INCHIKEY>  (2436) 
IITQJMYAYSNIMI-UHFFFAOYSA-N

>  <FORMULA>  (2436) 
C7H10O

>  <EXACT MASS>  (2436) 
110.07316494

>  <MW>  (2436) 
110

>  <ID>  (2436) 
JP008565

>  <CONTRIBUTOR>  (2436) 
University of Tokyo Team, {Faculty of Engineering, University of Tokyo

>  <COMMENT>  (2436) 
SMILES=CC(C1)=CC(=O)CC1
InChI=InChI=1S/C7H10O/c1-6-3-2-4-7(8)5-6/h5H,2-4H2,1H3
computed SMILES=O=C1C=C(C)CCC1
accession=JP008565
date=2016.01.19 (Created 2008.10.21, modified 2011.05.06)
author=SODA AROMATIC CO., LTD.
license=CC BY-NC-SA
exact mass=110.07316
ionization energy=70 eV
ion type=[M]+*
computed spectral entropy=2.361979542427686
computed normalized entropy=0.7088339071672092
SPLASH=splash10-001i-9100000000-1f14f50705992aa13677
submitter=submitter = University of Tokyo Team (Faculty of Engineering, University of Tokyo)
MoNA Rating=3.75

>  <NUM PEAKS>  (2436) 
28

>  <MASS SPECTRAL PEAKS>  (2436) 
15 1.16
26 1.75
27 11.21
28 3.13
29 1.37
37 1.14
38 3.88
39 32.16
40 3.92
41 7.96
42 4.87
50 3.19
51 4.43
52 2.55
53 9.29
54 26.99
55 2.73
63 1.08
65 1.77
66 1.23
67 8.09
77 1.39
79 1.61
81 1.09
82 99.99
83 5.56
110 35.33
111 2.29

>  <PREDICTED SPECTRUM>  (2436) 
14 9
15 25
25 18
26 199
27 443
28 191
29 251
33 6
37 130
38 233
39 724
40 363
41 767
42 421
43 269
49 67
50 254
51 375
52 290
53 659
54 507
55 319
56 135
62 77
63 181
64 58
65 340
66 228
67 827
68 405
69 291
70 158
77 223
78 62
79 397
80 61
81 538
82 636
83 194
91 114
92 64
93 115
95 519
96 151
109 337
110 999
111 308

$$$$

     RDKit          2D

 18 17  0  0  0  0  0  0  0  0999 V2000
  -15.5885    9.0000    0.0000 C   0  0  0  0  0  0  0  0  0  0  0  0
    5.1962    9.0000    0.0000 C   0  0  0  0  0  0  0  0  0  0  0  0
  -14.2894    8.2500    0.0000 C   0  0  0  0  0  0  0  0  0  0  0  0
    3.8971    8.2500    0.0000 C   0  0  0  0  0  0  0  0  0  0  0  0
  -12.9904    9.0000    0.0000 C   0  0  0  0  0  0  0  0  0  0  0  0
  -11.6913    8.2500    0.0000 C   0  0  0  0  0  0  0  0  0  0  0  0
  -10.3923    9.0000    0.0000 C   0  0  0  0  0  0  0  0  0  0  0  0
   -9.0933    8.2500    0.0000 C   0  0  0  0  0  0  0  0  0  0  0  0
   -7.7942    9.0000    0.0000 C   0  0  0  0  0  0  0  0  0  0  0  0
   -6.4952    8.2500    0.0000 C   0  0  0  0  0  0  0  0  0  0  0  0
   -5.1962    9.0000    0.0000 C   0  0  0  0  0  0  0  0  0  0  0  0
   -3.8971    8.2500    0.0000 C   0  0  0  0  0  0  0  0  0  0  0  0
   -2.5981    9.0000    0.0000 C   0  0  0  0  0  0  0  0  0  0  0  0
    2.5981    9.0000    0.0000 C   0  0  0  0  0  0  0  0  0  0  0  0
   -1.2990    8.2500    0.0000 C   0  0  0  0  0  0  0  0  0  0  0  0
    1.2990    8.2500    0.0000 C   0  0  0  0  0  0  0  0  0  0  0  0
    1.2990    6.7500    0.0000 O   0  0  0  0  0  0  0  0  0  0  0  0
    0.0000    9.0000    0.0000 O   0  0  0  0  0  0  0  0  0  0  0  0
  3  1  1  0
  4  2  1  0
  5  3  1  0
  6  5  1  0
  7  6  1  0
  8  7  1  0
  9  8  1  0
 10  9  1  0
 11 10  1  0
 12 11  1  0
 13 12  1  0
 14  4  1  0
 15 13  1  0
 16 14  1  0
 17 16  2  0
 18 15  1  0
 18 16  1  0
M  END
>  <NAME>  (2437) 
DODECYL BUTYRATE

>  <SYNONYMS>  (2437) 
BUTYRIC ACID DODECYL ESTER

>  <SPECTRUM TYPE>  (2437) 
MS1

>  <INSTRUMENT TYPE>  (2437) 
EI-B

>  <INSTRUMENT>  (2437) 
HITACHI M-80B

>  <ION MODE>  (2437) 
P

>  <INCHIKEY>  (2437) 
JEPXJYKYHMEESP-UHFFFAOYSA-N

>  <FORMULA>  (2437) 
C16H32O2

>  <EXACT MASS>  (2437) 
256.240230264

>  <MW>  (2437) 
256

>  <ID>  (2437) 
JP008564

>  <CONTRIBUTOR>  (2437) 
University of Tokyo Team, {Faculty of Engineering, University of Tokyo

>  <COMMENT>  (2437) 
SMILES=CCCCCCCCCCCCOC(=O)CCC
InChI=InChI=1S/C16H32O2/c1-3-5-6-7-8-9-10-11-12-13-15-18-16(17)14-4-2/h3-15H2,1-2H3
computed SMILES=O=C(OCCCCCCCCCCCC)CCC
accession=JP008564
date=2016.01.19 (Created 2008.10.21, modified 2011.05.06)
author=SODA AROMATIC CO., LTD.
license=CC BY-NC-SA
exact mass=256.24023
ionization energy=70 eV
ion type=[M]+*
computed spectral entropy=3.2056101676139135
computed normalized entropy=0.8112914302246051
SPLASH=splash10-059f-9000000000-c02c4e78a0b037a0f45b
submitter=submitter = University of Tokyo Team (Faculty of Engineering, University of Tokyo)
MoNA Rating=3.75

>  <NUM PEAKS>  (2437) 
52

>  <MASS SPECTRAL PEAKS>  (2437) 
27 13.29
28 1.63
29 22.81
39 6.27
40 1.33
41 52.04
42 17.07
43 99.99
44 3.01
45 1.17
53 2.31
54 5.15
55 44.73
56 33.25
57 38.28
58 1.83
60 3.04
61 1.93
67 5.15
68 10.93
69 34.77
70 31.76
71 81.95
72 3.67
73 2.36
81 2.27
82 13.35
83 31.86
84 21.2
85 9.68
86 1.44
88 6.69
89 95.04
90 3.31
95 1.08
96 4.52
97 25.12
98 13.12
99 2.19
101 1.64
110 1.85
111 14.06
112 6.1
125 5
126 3.58
139 1.61
140 7.63
141 1
144 3.22
168 12.89
169 1.59
213 1.52

>  <PREDICTED SPECTRUM>  (2437) 
26 61
27 267
28 129
29 355
30 41
31 68
36 24
38 37
39 269
40 141
41 633
42 398
43 812
44 134
45 54
51 21
52 0
53 118
54 247
55 633
56 529
57 616
58 152
59 63
60 140
61 30
65 28
66 54
67 247
68 311
69 522
70 549
71 771
72 220
73 187
79 28
81 142
82 350
83 526
84 400
85 247
86 125
87 76
88 436
89 999
90 271
91 17
95 136
96 238
97 445
98 323
99 129
102 18
110 146
111 332
112 227
113 55
115 7
124 23
125 178
126 213
127 14
138 47
139 91
140 258
141 73
143 14
168 326
169 50
170 11
213 60

$$$$

     RDKit          2D

 11 10  0  0  0  0  0  0  0  0999 V2000
    2.5981    4.5000    0.0000 C   0  0  0  0  0  0  0  0  0  0  0  0
   -7.7942    4.5000    0.0000 C   0  0  0  0  0  0  0  0  0  0  0  0
   -1.2990    6.7500    0.0000 C   0  0  0  0  0  0  0  0  0  0  0  0
    1.2990    5.2500    0.0000 C   0  0  0  0  0  0  0  0  0  0  0  0
   -6.4952    5.2500    0.0000 C   0  0  0  0  0  0  0  0  0  0  0  0
    0.0000    4.5000    0.0000 C   0  0  0  0  0  0  0  0  0  0  0  0
   -5.1962    4.5000    0.0000 C   0  0  0  0  0  0  0  0  0  0  0  0
   -1.2990    5.2500    0.0000 C   0  0  0  0  0  0  0  0  0  0  0  0
   -3.8971    5.2500    0.0000 C   0  0  0  0  0  0  0  0  0  0  0  0
   -3.8971    6.7500    0.0000 O   0  0  0  0  0  0  0  0  0  0  0  0
   -2.5981    4.5000    0.0000 O   0  0  0  0  0  0  0  0  0  0  0  0
  4  1  1  0
  5  2  1  0
  6  4  1  0
  7  5  1  0
  8  3  1  0
  8  6  1  0
  9  7  1  0
 10  9  2  0
 11  8  1  0
 11  9  1  0
M  END
>  <NAME>  (2438) 
2-PENTYL BUTYRATE

>  <SYNONYMS>  (2438) 
1-METHYLBUTYL BUTYRATE

>  <SPECTRUM TYPE>  (2438) 
MS1

>  <INSTRUMENT TYPE>  (2438) 
EI-B

>  <INSTRUMENT>  (2438) 
HITACHI M-80B

>  <ION MODE>  (2438) 
P

>  <INCHIKEY>  (2438) 
DJOCFLQKCMWABC-UHFFFAOYSA-N

>  <FORMULA>  (2438) 
C9H18O2

>  <EXACT MASS>  (2438) 
158.130679816

>  <MW>  (2438) 
158

>  <ID>  (2438) 
JP008563

>  <CONTRIBUTOR>  (2438) 
University of Tokyo Team, {Faculty of Engineering, University of Tokyo

>  <COMMENT>  (2438) 
SMILES=CCCC(C)OC(=O)CCC
InChI=InChI=1S/C9H18O2/c1-4-6-8(3)11-9(10)7-5-2/h8H,4-7H2,1-3H3
computed SMILES=O=C(OC(C)CCC)CCC
accession=JP008563
date=2016.01.19 (Created 2008.10.21, modified 2011.05.06)
author=SODA AROMATIC CO., LTD.
license=CC BY-NC-SA
exact mass=158.13068
ionization energy=70 eV
ion type=[M]+*
computed spectral entropy=2.2858460760299932
computed normalized entropy=0.7630341657060619
SPLASH=splash10-00dl-9000000000-20b64b354a214dfa86bc
submitter=submitter = University of Tokyo Team (Faculty of Engineering, University of Tokyo)
MoNA Rating=3.75

>  <NUM PEAKS>  (2438) 
20

>  <MASS SPECTRAL PEAKS>  (2438) 
27 12.43
29 8.11
39 7.16
40 1.09
41 17.2
42 10.2
43 56.47
44 1.83
45 3.79
55 12.19
60 3.5
70 21.84
71 99.99
72 4.3
73 2.37
87 2.82
88 7.21
89 13.63
114 1.69
115 10.91

>  <PREDICTED SPECTRUM>  (2438) 
26 56
27 288
28 47
29 262
31 31
39 277
40 63
41 513
42 402
43 973
44 187
45 300
53 95
54 56
55 511
57 5
58 4
59 39
60 180
69 178
70 771
71 999
72 205
73 186
86 78
87 174
88 322
89 457
90 3
115 163
116 2

$$$$

     RDKit          2D

 12 12  0  0  0  0  0  0  0  0999 V2000
    7.4251    1.2910    0.0000 C   0  0  0  0  0  0  0  0  0  0  0  0
    6.1262    0.5408    0.0000 C   0  0  0  0  0  0  0  0  0  0  0  0
   -1.6700   -0.9600    0.0000 C   0  0  0  0  0  0  0  0  0  0  0  0
   -1.6700    0.5400    0.0000 C   0  0  0  0  0  0  0  0  0  0  0  0
   -0.3700   -1.7100    0.0000 C   0  0  0  0  0  0  0  0  0  0  0  0
    4.8270    1.2906    0.0000 C   0  0  0  0  0  0  0  0  0  0  0  0
   -0.3700    1.2900    0.0000 C   0  0  0  0  0  0  0  0  0  0  0  0
    0.9300   -0.9600    0.0000 C   0  0  0  0  0  0  0  0  0  0  0  0
    0.9300    0.5400    0.0000 C   0  0  0  0  0  0  0  0  0  0  0  0
    3.5281    0.5404    0.0000 C   0  0  0  0  0  0  0  0  0  0  0  0
    3.5283   -0.9596    0.0000 O   0  0  0  0  0  0  0  0  0  0  0  0
    2.2289    1.2902    0.0000 O   0  0  0  0  0  0  0  0  0  0  0  0
  2  1  1  0
  4  3  2  0
  5  3  1  0
  6  2  1  0
  7  4  1  0
  8  5  2  0
  9  7  2  0
  9  8  1  0
 10  6  1  0
 11 10  2  0
 12  9  1  0
 12 10  1  0
M  END
>  <NAME>  (2439) 
PHENYL BUTYRATE

>  <SYNONYMS>  (2439) 
BUTYRIC ACID PHENYL ESTER

>  <SPECTRUM TYPE>  (2439) 
MS1

>  <INSTRUMENT TYPE>  (2439) 
EI-B

>  <INSTRUMENT>  (2439) 
HITACHI M-80B

>  <ION MODE>  (2439) 
P

>  <INCHIKEY>  (2439) 
IGVPBCZDHMIOJH-UHFFFAOYSA-N

>  <FORMULA>  (2439) 
C10H12O2

>  <EXACT MASS>  (2439) 
164.083729624

>  <MW>  (2439) 
164

>  <ID>  (2439) 
JP008562

>  <CONTRIBUTOR>  (2439) 
University of Tokyo Team, {Faculty of Engineering, University of Tokyo

>  <COMMENT>  (2439) 
SMILES=CCCC(=O)Oc(c1)cccc1
InChI=InChI=1S/C10H12O2/c1-2-6-10(11)12-9-7-4-3-5-8-9/h3-5,7-8H,2,6H2,1H3
computed SMILES=O=C(OC=1C=CC=CC1)CCC
accession=JP008562
date=2016.01.19 (Created 2008.10.21, modified 2011.05.06)
author=SODA AROMATIC CO., LTD.
license=CC BY-NC-SA
exact mass=164.08373
ionization energy=70 eV
ion type=[M]+*
computed spectral entropy=2.4281700243012576
computed normalized entropy=0.7367385350128152
SPLASH=splash10-0006-9000000000-1fad10cfe43dc1f09a35
submitter=submitter = University of Tokyo Team (Faculty of Engineering, University of Tokyo)
MoNA Rating=3.75

>  <NUM PEAKS>  (2439) 
27

>  <MASS SPECTRAL PEAKS>  (2439) 
26 1.15
27 15.55
28 1.88
29 1.74
38 2.68
39 23.51
40 2.47
41 15.34
42 2.91
43 71.6
44 1.99
50 1.75
51 5.91
55 7.51
63 2.9
64 1.48
65 15.33
66 7.18
70 2.24
71 48.57
72 1.86
77 8.87
93 1.61
94 99.99
95 8.07
164 15.74
165 1.5

>  <PREDICTED SPECTRUM>  (2439) 
14 5
15 28
25 5
26 95
27 314
28 70
29 189
30 16
31 16
36 2
37 89
38 159
39 406
40 202
41 451
42 270
43 999
44 219
45 68
50 126
51 243
52 86
53 103
54 31
55 160
60 66
61 53
62 98
63 182
64 112
65 285
66 248
67 72
68 1
69 130
70 166
71 941
72 250
73 59
74 107
75 16
76 37
77 309
78 104
79 74
91 18
93 180
94 825
95 271
96 86
164 300
165 140

$$$$

     RDKit          2D

 13 12  0  0  0  0  0  0  0  0999 V2000
    2.5981    4.5000    0.0000 C   0  0  0  0  0  0  0  0  0  0  0  0
   -1.2990    2.2500    0.0000 C   0  0  0  0  0  0  0  0  0  0  0  0
   -7.7942    4.5000    0.0000 C   0  0  0  0  0  0  0  0  0  0  0  0
   -6.4952    6.7500    0.0000 C   0  0  0  0  0  0  0  0  0  0  0  0
    1.2990    5.2500    0.0000 C   0  0  0  0  0  0  0  0  0  0  0  0
   -2.5981    3.0000    0.0000 C   0  0  0  0  0  0  0  0  0  0  0  0
    0.0000    4.5000    0.0000 C   0  0  0  0  0  0  0  0  0  0  0  0
   -1.2990    5.2500    0.0000 C   0  0  0  0  0  0  0  0  0  0  0  0
   -6.4952    5.2500    0.0000 C   0  0  0  0  0  0  0  0  0  0  0  0
   -2.5981    4.5000    0.0000 C   0  0  0  0  0  0  0  0  0  0  0  0
   -5.1962    4.5000    0.0000 C   0  0  0  0  0  0  0  0  0  0  0  0
   -5.1962    3.0000    0.0000 O   0  0  0  0  0  0  0  0  0  0  0  0
   -3.8971    5.2500    0.0000 O   0  0  0  0  0  0  0  0  0  0  0  0
  5  1  1  0
  6  2  1  0
  7  5  1  0
  8  7  1  0
  9  3  1  0
  9  4  1  0
 10  6  1  0
 10  8  1  0
 11  9  1  0
 12 11  2  0
 13 10  1  0
 13 11  1  0
M  END
>  <NAME>  (2440) 
3-HEPTYL ISOBUTYRATE

>  <SYNONYMS>  (2440) 
1-ETHYLPENTYL 2-METHYLPROPIONATE

>  <SPECTRUM TYPE>  (2440) 
MS1

>  <INSTRUMENT TYPE>  (2440) 
EI-B

>  <INSTRUMENT>  (2440) 
HITACHI M-80B

>  <ION MODE>  (2440) 
P

>  <INCHIKEY>  (2440) 
BEOJRFPSYLJBFR-UHFFFAOYSA-N

>  <FORMULA>  (2440) 
C11H22O2

>  <EXACT MASS>  (2440) 
186.161979944

>  <MW>  (2440) 
186

>  <ID>  (2440) 
JP008561

>  <CONTRIBUTOR>  (2440) 
University of Tokyo Team, {Faculty of Engineering, University of Tokyo

>  <COMMENT>  (2440) 
SMILES=CCCCC(CC)OC(=O)C(C)C
InChI=InChI=1S/C11H22O2/c1-5-7-8-10(6-2)13-11(12)9(3)4/h9-10H,5-8H2,1-4H3
computed SMILES=O=C(OC(CC)CCCC)C(C)C
accession=JP008561
date=2016.01.19 (Created 2008.10.21, modified 2011.05.06)
author=SODA AROMATIC CO., LTD.
license=CC BY-NC-SA
exact mass=186.16198
ionization energy=70 eV
ion type=[M]+*
computed spectral entropy=2.4965315416497997
computed normalized entropy=0.7574803132402732
SPLASH=splash10-0596-9000000000-9bcc05cf9304d5f2cba9
submitter=submitter = University of Tokyo Team (Faculty of Engineering, University of Tokyo)
MoNA Rating=3.75

>  <NUM PEAKS>  (2440) 
27

>  <MASS SPECTRAL PEAKS>  (2440) 
27 15.01
28 1.73
29 14.87
31 1.54
39 7.41
41 27.87
42 6.96
43 73.11
44 3.89
45 1
54 1.21
55 9.66
56 12.54
57 52.61
58 2.51
59 5.02
69 9.02
70 5.56
71 99.99
72 4.67
73 1.05
85 1.68
89 6.97
98 13.35
99 2.86
129 6.89
157 2.59

>  <PREDICTED SPECTRUM>  (2440) 
26 23
27 196
28 59
29 249
31 24
39 213
40 74
41 529
42 249
43 999
44 185
45 104
51 25
52 15
53 107
54 81
55 431
56 340
57 618
58 66
59 33
63 2
65 27
67 35
68 71
69 341
70 327
71 995
72 226
73 117
82 15
83 53
86 43
88 30
89 320
90 74
97 92
98 265
99 107
115 46
129 133
131 89

$$$$

     RDKit          2D

 11 10  0  0  0  0  0  0  0  0999 V2000
    2.5981    4.5000    0.0000 C   0  0  0  0  0  0  0  0  0  0  0  0
   -7.7942    4.5000    0.0000 C   0  0  0  0  0  0  0  0  0  0  0  0
   -5.1962    3.0000    0.0000 C   0  0  0  0  0  0  0  0  0  0  0  0
    1.2990    5.2500    0.0000 C   0  0  0  0  0  0  0  0  0  0  0  0
   -6.4952    5.2500    0.0000 C   0  0  0  0  0  0  0  0  0  0  0  0
    0.0000    4.5000    0.0000 C   0  0  0  0  0  0  0  0  0  0  0  0
   -3.8971    5.2500    0.0000 C   0  0  0  0  0  0  0  0  0  0  0  0
   -5.1962    4.5000    0.0000 C   0  0  0  0  0  0  0  0  0  0  0  0
   -1.2990    5.2500    0.0000 C   0  0  0  0  0  0  0  0  0  0  0  0
   -1.2990    6.7500    0.0000 O   0  0  0  0  0  0  0  0  0  0  0  0
   -2.5981    4.5000    0.0000 O   0  0  0  0  0  0  0  0  0  0  0  0
  4  1  1  0
  5  2  1  0
  6  4  1  0
  8  3  1  0
  8  5  1  0
  8  7  1  0
  9  6  1  0
 10  9  2  0
 11  7  1  0
 11  9  1  0
M  END
>  <NAME>  (2441) 
2-METHYLBUTYL BUTYRATE

>  <SYNONYMS>  (2441) 
BUTYRIC ACID 2-METHYLBUTYL ESTER

>  <SPECTRUM TYPE>  (2441) 
MS1

>  <INSTRUMENT TYPE>  (2441) 
EI-B

>  <INSTRUMENT>  (2441) 
HITACHI M-80B

>  <ION MODE>  (2441) 
P

>  <INCHIKEY>  (2441) 
MBZKQDXXFMITAC-UHFFFAOYSA-N

>  <FORMULA>  (2441) 
C9H18O2

>  <EXACT MASS>  (2441) 
158.130679816

>  <MW>  (2441) 
158

>  <ID>  (2441) 
JP008560

>  <CONTRIBUTOR>  (2441) 
University of Tokyo Team, {Faculty of Engineering, University of Tokyo

>  <COMMENT>  (2441) 
SMILES=CCCC(=O)OCC(C)CC
InChI=InChI=1S/C9H18O2/c1-4-6-9(10)11-7-8(3)5-2/h8H,4-7H2,1-3H3
computed SMILES=O=C(OCC(C)CC)CCC
accession=JP008560
author=SODA AROMATIC CO., LTD.
date=2016.01.19 (Created 2008.10.21, modified 2011.05.06)
license=CC BY-NC-SA
exact mass=158.13068
ionization energy=70 eV
ion type=[M]+*
computed spectral entropy=2.280276131157381
computed normalized entropy=0.7377045658754819
SPLASH=splash10-00dl-9000000000-a1dedd594d776b76155e
submitter=submitter = University of Tokyo Team (Faculty of Engineering, University of Tokyo)
MoNA Rating=3.75

>  <NUM PEAKS>  (2441) 
22

>  <MASS SPECTRAL PEAKS>  (2441) 
27 13.97
29 11.85
39 8.28
41 20.44
42 12.11
43 53.68
44 1.74
45 1.78
55 14.13
56 3.17
60 2.95
69 1.46
70 45.93
71 99.99
72 4.25
73 1.93
85 2.12
87 1.73
88 3.28
89 6.46
100 1.5
101 5.47

>  <PREDICTED SPECTRUM>  (2441) 
26 75
27 301
28 55
29 341
31 48
36 8
38 26
39 292
40 111
41 555
42 440
43 971
44 180
45 251
53 107
54 113
55 495
56 9
57 112
58 53
60 154
68 74
69 138
70 971
71 999
72 249
73 150
86 16
87 81
88 164
89 326
101 75
102 77
103 38
129 9

$$$$

     RDKit          2D

 17 17  0  0  0  0  0  0  0  0999 V2000
    4.8721    3.8829    0.0000 C   0  0  0  0  0  0  0  0  0  0  0  0
   -2.5873    1.9838    0.0000 C   0  0  0  0  0  0  0  0  0  0  0  0
   -0.6589    1.9838    0.0000 C   0  0  0  0  0  0  0  0  0  0  0  0
    3.5731    3.1329    0.0000 C   0  0  0  0  0  0  0  0  0  0  0  0
   -8.1183    5.3829    0.0000 C   0  0  0  0  0  0  0  0  0  0  0  0
   -8.1187    3.8821    0.0000 C   0  0  0  0  0  0  0  0  0  0  0  0
   -6.8187    6.1337    0.0000 C   0  0  0  0  0  0  0  0  0  0  0  0
    2.2740    3.8829    0.0000 C   0  0  0  0  0  0  0  0  0  0  0  0
   -6.8197    3.1321    0.0000 C   0  0  0  0  0  0  0  0  0  0  0  0
   -5.5197    5.3837    0.0000 C   0  0  0  0  0  0  0  0  0  0  0  0
   -4.2212    3.1329    0.0000 C   0  0  0  0  0  0  0  0  0  0  0  0
   -2.9221    3.8829    0.0000 C   0  0  0  0  0  0  0  0  0  0  0  0
   -5.5202    3.8829    0.0000 C   0  0  0  0  0  0  0  0  0  0  0  0
    0.9750    3.1329    0.0000 C   0  0  0  0  0  0  0  0  0  0  0  0
   -1.6231    3.1329    0.0000 C   0  0  0  0  0  0  0  0  0  0  0  0
    0.9750    1.6329    0.0000 O   0  0  0  0  0  0  0  0  0  0  0  0
   -0.3240    3.8829    0.0000 O   0  0  0  0  0  0  0  0  0  0  0  0
  4  1  1  0
  6  5  2  0
  7  5  1  0
  8  4  1  0
  9  6  1  0
 10  7  2  0
 12 11  1  0
 13  9  2  0
 13 10  1  0
 13 11  1  0
 14  8  1  0
 15  2  1  0
 15  3  1  0
 15 12  1  0
 16 14  2  0
 17 14  1  0
 17 15  1  0
M  END
>  <NAME>  (2442) 
1,1-DIMETHYL-3-PHENYLPROPYL BUTYRATE

>  <SYNONYMS>  (2442) 
DIMETHYL PHENYLETHYL CARBINYL BUTYRATE

>  <SPECTRUM TYPE>  (2442) 
MS1

>  <INSTRUMENT TYPE>  (2442) 
EI-B

>  <INSTRUMENT>  (2442) 
HITACHI M-80B

>  <ION MODE>  (2442) 
P

>  <INCHIKEY>  (2442) 
AIDHEBLAMCYZRU-UHFFFAOYSA-N

>  <FORMULA>  (2442) 
C15H22O2

>  <EXACT MASS>  (2442) 
234.161979944

>  <MW>  (2442) 
234

>  <ID>  (2442) 
JP008559

>  <CONTRIBUTOR>  (2442) 
University of Tokyo Team, {Faculty of Engineering, University of Tokyo

>  <COMMENT>  (2442) 
SMILES=CCCC(=O)OC(C)(C)CCc(c1)cccc1
InChI=InChI=1S/C15H22O2/c1-4-8-14(16)17-15(2,3)12-11-13-9-6-5-7-10-13/h5-7,9-10H,4,8,11-12H2,1-3H3
computed SMILES=O=C(OC(C)(C)CCC=1C=CC=CC1)CCC
accession=JP008559
date=2016.01.19 (Created 2008.10.21, modified 2011.05.06)
author=SODA AROMATIC CO., LTD.
license=CC BY-NC-SA
exact mass=234.16198
ionization energy=70 eV
ion type=[M]+*
computed spectral entropy=2.7168859445396314
computed normalized entropy=0.7268930167742966
SPLASH=splash10-000x-9600000000-0f4c61b474acfb1cf00c
submitter=submitter = University of Tokyo Team (Faculty of Engineering, University of Tokyo)
MoNA Rating=3.75

>  <NUM PEAKS>  (2442) 
42

>  <MASS SPECTRAL PEAKS>  (2442) 
18 1.11
27 12.76
28 1.46
29 2.98
39 7.99
40 1.37
41 17.82
42 2.57
43 43.07
44 1.22
51 3.46
52 1.2
53 1.69
55 2.01
56 3.9
59 2.63
60 1.15
63 1.93
65 11.65
68 2.19
71 41.97
72 1.62
77 5.27
78 2.93
79 2.82
89 2.21
90 1.15
91 84.82
92 5.73
103 2.73
104 3.36
105 9.45
115 1.82
116 1.36
117 2.37
129 2.03
131 99.99
132 11.46
145 2.31
146 51.69
147 12.03
148 1.09

>  <PREDICTED SPECTRUM>  (2442) 
15 0
25 6
26 65
27 242
28 111
29 234
30 75
31 124
37 15
38 59
39 281
40 108
41 405
42 121
43 686
44 98
50 112
51 196
52 116
53 107
55 211
56 45
57 33
59 115
60 51
61 21
62 25
63 96
64 30
65 256
66 37
69 31
70 102
71 647
72 106
75 32
76 14
77 212
78 175
79 119
81 4
87 52
89 129
90 66
91 857
92 268
102 27
103 167
104 218
105 144
115 226
116 63
117 34
128 55
129 65
130 42
131 999
132 469
145 91
146 705
147 437
148 221
149 98
164 70

$$$$

     RDKit          2D

 15 15  0  0  0  0  0  0  0  0999 V2000
   -6.8197    3.1321    0.0000 C   0  0  0  0  0  0  0  0  0  0  0  0
   -2.5877    1.9830    0.0000 C   0  0  0  0  0  0  0  0  0  0  0  0
   -0.6594    1.9830    0.0000 C   0  0  0  0  0  0  0  0  0  0  0  0
   -5.5207    3.8821    0.0000 C   0  0  0  0  0  0  0  0  0  0  0  0
    3.5726    1.6321    0.0000 C   0  0  0  0  0  0  0  0  0  0  0  0
    3.5731    3.1329    0.0000 C   0  0  0  0  0  0  0  0  0  0  0  0
    2.2731    0.8813    0.0000 C   0  0  0  0  0  0  0  0  0  0  0  0
    2.2740    3.8829    0.0000 C   0  0  0  0  0  0  0  0  0  0  0  0
    0.9740    1.6313    0.0000 C   0  0  0  0  0  0  0  0  0  0  0  0
   -0.3245    3.8821    0.0000 C   0  0  0  0  0  0  0  0  0  0  0  0
    0.9745    3.1321    0.0000 C   0  0  0  0  0  0  0  0  0  0  0  0
   -4.2216    3.1321    0.0000 C   0  0  0  0  0  0  0  0  0  0  0  0
   -1.6236    3.1321    0.0000 C   0  0  0  0  0  0  0  0  0  0  0  0
   -4.2216    1.6321    0.0000 O   0  0  0  0  0  0  0  0  0  0  0  0
   -2.9226    3.8821    0.0000 O   0  0  0  0  0  0  0  0  0  0  0  0
  4  1  1  0
  6  5  2  0
  7  5  1  0
  8  6  1  0
  9  7  2  0
 11  8  2  0
 11  9  1  0
 11 10  1  0
 12  4  1  0
 13  2  1  0
 13  3  1  0
 13 10  1  0
 14 12  2  0
 15 12  1  0
 15 13  1  0
M  END
>  <NAME>  (2443) 
1,1-DIMETHYL-2-PHENYLETHYL PROPIONATE

>  <SYNONYMS>  (2443) 
DIMETHYL BENZYL CARBINYL PROPIONATE

>  <SPECTRUM TYPE>  (2443) 
MS1

>  <INSTRUMENT TYPE>  (2443) 
EI-B

>  <INSTRUMENT>  (2443) 
HITACHI M-80B

>  <ION MODE>  (2443) 
P

>  <INCHIKEY>  (2443) 
BLKIYRRGHOQSPP-UHFFFAOYSA-N

>  <FORMULA>  (2443) 
C13H18O2

>  <EXACT MASS>  (2443) 
206.130679816

>  <MW>  (2443) 
206

>  <ID>  (2443) 
JP008557

>  <CONTRIBUTOR>  (2443) 
University of Tokyo Team, {Faculty of Engineering, University of Tokyo

>  <COMMENT>  (2443) 
SMILES=CCC(=O)OC(C)(C)Cc(c1)cccc1
InChI=InChI=1S/C13H18O2/c1-4-12(14)15-13(2,3)10-11-8-6-5-7-9-11/h5-9H,4,10H2,1-3H3
computed SMILES=O=C(OC(C)(C)CC=1C=CC=CC1)CC
accession=JP008557
date=2016.01.19 (Created 2008.10.21, modified 2011.05.06)
author=SODA AROMATIC CO., LTD.
license=CC BY-NC-SA
exact mass=206.13068
ionization energy=70 eV
ion type=[M]+*
computed spectral entropy=2.224069053439692
computed normalized entropy=0.6909458998875044
SPLASH=splash10-0a4i-9200000000-26d966d0e8a9b49aecbd
submitter=submitter = University of Tokyo Team (Faculty of Engineering, University of Tokyo)
MoNA Rating=3.75

>  <NUM PEAKS>  (2443) 
25

>  <MASS SPECTRAL PEAKS>  (2443) 
27 5.42
28 1.47
29 22.31
39 4
41 2.2
43 6.01
51 2.15
55 2.55
57 99.99
58 2.9
59 3.05
63 1.48
65 6.16
77 1.46
78 1.02
89 1.3
91 25.24
92 2.5
105 1.47
115 6.07
116 1.02
117 6.65
132 23.19
133 7.5
148 2.1

>  <PREDICTED SPECTRUM>  (2443) 
27 115
29 283
31 9
38 1
39 240
40 59
41 417
42 49
43 76
50 49
51 148
52 98
53 126
54 37
55 168
56 122
57 999
58 175
59 169
63 68
64 76
65 265
66 61
67 32
75 40
76 2
77 187
78 143
79 81
81 32
88 20
89 110
90 46
91 887
92 350
103 71
104 276
105 332
106 124
107 55
115 387
116 190
117 225
121 35
131 164
132 376
133 156
134 36
149 7
150 411
151 39
206 74

$$$$

     RDKit          2D

 11 10  0  0  0  0  0  0  0  0999 V2000
   -7.4695    3.9375    0.0000 C   0  0  0  0  0  0  0  0  0  0  0  0
   -0.9743    6.1875    0.0000 C   0  0  0  0  0  0  0  0  0  0  0  0
    1.6238    3.1875    0.0000 C   0  0  0  0  0  0  0  0  0  0  0  0
   -6.1704    3.1875    0.0000 C   0  0  0  0  0  0  0  0  0  0  0  0
   -2.2733    5.4375    0.0000 C   0  0  0  0  0  0  0  0  0  0  0  0
   -4.8714    3.9375    0.0000 C   0  0  0  0  0  0  0  0  0  0  0  0
   -3.5724    3.1875    0.0000 C   0  0  0  0  0  0  0  0  0  0  0  0
    0.3248    3.9375    0.0000 C   0  0  0  0  0  0  0  0  0  0  0  0
   -2.2733    3.9375    0.0000 C   0  0  0  0  0  0  0  0  0  0  0  0
    0.3248    5.4375    0.0000 O   0  0  0  0  0  0  0  0  0  0  0  0
   -0.9743    3.1875    0.0000 O   0  0  0  0  0  0  0  0  0  0  0  0
  4  1  1  0
  5  2  1  0
  6  4  1  0
  7  6  1  0
  8  3  1  0
  9  5  1  0
  9  7  1  0
 10  8  2  0
 11  8  1  0
 11  9  1  0
M  END
>  <NAME>  (2444) 
1-ETHYLPENTYL ACETATE

>  <SYNONYMS>  (2444) 
3-HEPTYL ACETATE

>  <SPECTRUM TYPE>  (2444) 
MS1

>  <INSTRUMENT TYPE>  (2444) 
EI-B

>  <INSTRUMENT>  (2444) 
HITACHI M-80B

>  <ION MODE>  (2444) 
P

>  <INCHIKEY>  (2444) 
QICIMADZMWGDTQ-UHFFFAOYSA-N

>  <FORMULA>  (2444) 
C9H18O2

>  <EXACT MASS>  (2444) 
158.130679816

>  <MW>  (2444) 
158

>  <ID>  (2444) 
JP008556

>  <CONTRIBUTOR>  (2444) 
University of Tokyo Team, {Faculty of Engineering, University of Tokyo

>  <COMMENT>  (2444) 
SMILES=CCCCC(CC)OC(C)=O
InChI=InChI=1S/C9H18O2/c1-4-6-7-9(5-2)11-8(3)10/h9H,4-7H2,1-3H3
computed SMILES=O=C(OC(CC)CCCC)C
accession=JP008556
date=2016.01.19 (Created 2008.10.21, modified 2011.05.06)
author=SODA AROMATIC CO., LTD.
license=CC BY-NC-SA
exact mass=158.13068
ionization energy=70 eV
ion type=[M]+*
computed spectral entropy=2.103617643960406
computed normalized entropy=0.6909515981538998
SPLASH=splash10-0006-9100000000-a8948f9763f7c40c7da0
submitter=submitter = University of Tokyo Team (Faculty of Engineering, University of Tokyo)
MoNA Rating=3.75

>  <NUM PEAKS>  (2444) 
21

>  <MASS SPECTRAL PEAKS>  (2444) 
15 1.73
27 6.89
29 8.77
31 1
39 3.07
41 10.63
42 2.4
43 99.99
44 2.73
55 5.89
56 9.17
57 6.82
58 2.44
59 1.77
61 1.55
69 6.66
70 2.89
73 1.32
98 6.19
101 13.91
129 8.44

>  <PREDICTED SPECTRUM>  (2444) 
15 8
27 164
28 25
29 178
31 69
39 197
40 52
41 398
42 171
43 999
44 174
45 166
50 1
51 21
53 60
54 29
55 278
56 153
57 198
58 109
59 109
60 6
61 177
67 41
68 23
69 320
70 60
71 52
73 6
83 4
87 30
98 174
99 74
100 83
101 393
102 44
103 6
129 116

$$$$

     RDKit          2D

 12 11  0  0  0  0  0  0  0  0999 V2000
    2.5981    4.5000    0.0000 C   0  0  0  0  0  0  0  0  0  0  0  0
   -3.8971    2.2500    0.0000 C   0  0  0  0  0  0  0  0  0  0  0  0
   -7.7942    4.5000    0.0000 C   0  0  0  0  0  0  0  0  0  0  0  0
    1.2990    5.2500    0.0000 C   0  0  0  0  0  0  0  0  0  0  0  0
   -2.5981    3.0000    0.0000 C   0  0  0  0  0  0  0  0  0  0  0  0
   -6.4952    5.2500    0.0000 C   0  0  0  0  0  0  0  0  0  0  0  0
    0.0000    4.5000    0.0000 C   0  0  0  0  0  0  0  0  0  0  0  0
   -1.2990    5.2500    0.0000 C   0  0  0  0  0  0  0  0  0  0  0  0
   -2.5981    4.5000    0.0000 C   0  0  0  0  0  0  0  0  0  0  0  0
   -5.1962    4.5000    0.0000 C   0  0  0  0  0  0  0  0  0  0  0  0
   -5.1962    3.0000    0.0000 O   0  0  0  0  0  0  0  0  0  0  0  0
   -3.8971    5.2500    0.0000 O   0  0  0  0  0  0  0  0  0  0  0  0
  4  1  1  0
  5  2  1  0
  6  3  1  0
  7  4  1  0
  8  7  1  0
  9  5  1  0
  9  8  1  0
 10  6  1  0
 11 10  2  0
 12  9  1  0
 12 10  1  0
M  END
>  <NAME>  (2445) 
1-ETHYLPENTYL PROPIONATE

>  <SYNONYMS>  (2445) 
3-HEPTYL PROPIONATE

>  <SPECTRUM TYPE>  (2445) 
MS1

>  <INSTRUMENT TYPE>  (2445) 
EI-B

>  <INSTRUMENT>  (2445) 
HITACHI M-80B

>  <ION MODE>  (2445) 
P

>  <INCHIKEY>  (2445) 
WTSWAVWDIUHBBL-UHFFFAOYSA-N

>  <FORMULA>  (2445) 
C10H20O2

>  <EXACT MASS>  (2445) 
172.14632988

>  <MW>  (2445) 
172

>  <ID>  (2445) 
JP008555

>  <CONTRIBUTOR>  (2445) 
University of Tokyo Team, {Faculty of Engineering, University of Tokyo

>  <COMMENT>  (2445) 
SMILES=CCCCC(CC)OC(=O)CC
InChI=InChI=1S/C10H20O2/c1-4-7-8-9(5-2)12-10(11)6-3/h9H,4-8H2,1-3H3
computed SMILES=O=C(OC(CC)CCCC)CC
accession=JP008555
date=2016.01.19 (Created 2008.10.21, modified 2011.05.06)
author=SODA AROMATIC CO., LTD.
license=CC BY-NC-SA
exact mass=172.14633
ionization energy=70 eV
ion type=[M]+*
computed spectral entropy=2.0545681176589086
computed normalized entropy=0.6858316865617197
SPLASH=splash10-0a4i-9000000000-737c01f4d3a6d91e3445
submitter=submitter = University of Tokyo Team (Faculty of Engineering, University of Tokyo)
MoNA Rating=3.75

>  <NUM PEAKS>  (2445) 
20

>  <MASS SPECTRAL PEAKS>  (2445) 
27 8.13
28 2.15
29 24.76
39 2.64
41 10.2
42 2.51
43 5.15
44 1.08
55 5.98
56 9.3
57 99.99
58 3.8
69 5.41
70 3.88
72 1.11
75 2.52
85 1.46
98 6.41
115 7.11
143 3.94

>  <PREDICTED SPECTRUM>  (2445) 
26 58
27 244
28 77
29 416
30 100
31 58
38 4
39 193
40 74
41 409
42 182
43 195
44 61
45 105
47 8
53 99
54 92
55 274
56 282
57 999
58 273
59 91
67 43
68 29
69 228
70 167
71 67
72 90
73 136
74 52
75 165
82 0
83 161
85 13
86 9
98 108
99 55
100 22
101 19
115 301
116 65
117 41
143 98

$$$$

     RDKit          2D

 13 12  0  0  0  0  0  0  0  0999 V2000
   -8.4437    5.6250    0.0000 C   0  0  0  0  0  0  0  0  0  0  0  0
   -0.6495    2.6250    0.0000 C   0  0  0  0  0  0  0  0  0  0  0  0
    3.2476    4.8750    0.0000 C   0  0  0  0  0  0  0  0  0  0  0  0
   -7.1447    4.8750    0.0000 C   0  0  0  0  0  0  0  0  0  0  0  0
   -1.9486    3.3750    0.0000 C   0  0  0  0  0  0  0  0  0  0  0  0
    1.9486    5.6250    0.0000 C   0  0  0  0  0  0  0  0  0  0  0  0
   -5.8457    5.6250    0.0000 C   0  0  0  0  0  0  0  0  0  0  0  0
   -4.5466    4.8750    0.0000 C   0  0  0  0  0  0  0  0  0  0  0  0
   -3.2476    5.6250    0.0000 C   0  0  0  0  0  0  0  0  0  0  0  0
   -1.9486    4.8750    0.0000 C   0  0  0  0  0  0  0  0  0  0  0  0
    0.6495    4.8750    0.0000 C   0  0  0  0  0  0  0  0  0  0  0  0
    0.6495    3.3750    0.0000 O   0  0  0  0  0  0  0  0  0  0  0  0
   -0.6495    5.6250    0.0000 O   0  0  0  0  0  0  0  0  0  0  0  0
  4  1  1  0
  5  2  1  0
  6  3  1  0
  7  4  1  0
  8  7  1  0
  9  8  1  0
 10  5  1  0
 10  9  1  0
 11  6  1  0
 12 11  2  0
 13 10  1  0
 13 11  1  0
M  END
>  <NAME>  (2446) 
1-ETHYLHEXYL PROPIONATE

>  <SYNONYMS>  (2446) 
3-OCTYL PROPIONATE

>  <SPECTRUM TYPE>  (2446) 
MS1

>  <INSTRUMENT TYPE>  (2446) 
EI-B

>  <INSTRUMENT>  (2446) 
HITACHI M-80B

>  <ION MODE>  (2446) 
P

>  <INCHIKEY>  (2446) 
SBHJWJMMXVWHCU-UHFFFAOYSA-N

>  <FORMULA>  (2446) 
C11H22O2

>  <EXACT MASS>  (2446) 
186.161979944

>  <MW>  (2446) 
186

>  <ID>  (2446) 
JP008554

>  <CONTRIBUTOR>  (2446) 
University of Tokyo Team, {Faculty of Engineering, University of Tokyo

>  <COMMENT>  (2446) 
SMILES=CCCCCC(CC)OC(=O)CC
InChI=InChI=1S/C11H22O2/c1-4-7-8-9-10(5-2)13-11(12)6-3/h10H,4-9H2,1-3H3
computed SMILES=O=C(OC(CC)CCCCC)CC
accession=JP008554
date=2016.01.19 (Created 2008.10.21, modified 2011.05.06)
author=SODA AROMATIC CO., LTD.
license=CC BY-NC-SA
exact mass=186.16198
ionization energy=70 eV
ion type=[M]+*
computed spectral entropy=2.2557678668479832
computed normalized entropy=0.7194297649755113
SPLASH=splash10-0a4i-9000000000-b451f0970c1620564026
submitter=submitter = University of Tokyo Team (Faculty of Engineering, University of Tokyo)
MoNA Rating=3.75

>  <NUM PEAKS>  (2446) 
23

>  <MASS SPECTRAL PEAKS>  (2446) 
27 8.94
28 2.08
29 27.16
31 1.09
39 3.06
41 11.88
42 3.75
43 8.61
55 7.89
56 6.87
57 99.99
58 3.86
69 3.49
70 6.28
71 5.67
72 1.65
75 3.71
83 3.93
84 1.94
99 1.33
112 5.76
115 7.51
157 2.89

>  <PREDICTED SPECTRUM>  (2446) 
15 13
26 63
27 270
28 121
29 504
30 13
31 59
38 14
39 228
40 103
41 438
42 197
43 300
44 91
45 53
52 12
53 109
54 79
55 284
56 271
57 999
58 254
59 80
67 67
68 42
69 153
70 217
71 212
72 96
73 78
74 38
75 149
82 35
83 149
84 111
85 62
86 33
87 3
97 34
98 30
99 13
100 57
101 65
102 12
112 139
113 65
114 64
115 170
128 2
129 103
157 22

$$$$

     RDKit          2D

 12 11  0  0  0  0  0  0  0  0999 V2000
    2.9228    5.4375    0.0000 C   0  0  0  0  0  0  0  0  0  0  0  0
   -4.8714    3.9375    0.0000 C   0  0  0  0  0  0  0  0  0  0  0  0
   -8.7685    6.1875    0.0000 C   0  0  0  0  0  0  0  0  0  0  0  0
    1.6238    6.1875    0.0000 C   0  0  0  0  0  0  0  0  0  0  0  0
    0.3248    5.4375    0.0000 C   0  0  0  0  0  0  0  0  0  0  0  0
   -0.9743    6.1875    0.0000 C   0  0  0  0  0  0  0  0  0  0  0  0
   -2.2733    5.4375    0.0000 C   0  0  0  0  0  0  0  0  0  0  0  0
   -3.5724    6.1875    0.0000 C   0  0  0  0  0  0  0  0  0  0  0  0
   -4.8714    5.4375    0.0000 C   0  0  0  0  0  0  0  0  0  0  0  0
   -7.4695    5.4375    0.0000 C   0  0  0  0  0  0  0  0  0  0  0  0
   -7.4695    3.9375    0.0000 O   0  0  0  0  0  0  0  0  0  0  0  0
   -6.1704    6.1875    0.0000 O   0  0  0  0  0  0  0  0  0  0  0  0
  4  1  1  0
  5  4  1  0
  6  5  1  0
  7  6  1  0
  8  7  1  0
  9  2  1  0
  9  8  1  0
 10  3  1  0
 11 10  2  0
 12  9  1  0
 12 10  1  0
M  END
>  <NAME>  (2447) 
1-METHYLHEPTYL ACETATE

>  <SYNONYMS>  (2447) 
ACETIC ACID 1-METHYLHEPTYL ESTER

>  <SPECTRUM TYPE>  (2447) 
MS1

>  <INSTRUMENT TYPE>  (2447) 
EI-B

>  <INSTRUMENT>  (2447) 
HITACHI M-80B

>  <ION MODE>  (2447) 
P

>  <INCHIKEY>  (2447) 
SJFUDWKNZGXSLV-UHFFFAOYSA-N

>  <FORMULA>  (2447) 
C10H20O2

>  <EXACT MASS>  (2447) 
172.14632988

>  <MW>  (2447) 
172

>  <ID>  (2447) 
JP008553

>  <CONTRIBUTOR>  (2447) 
University of Tokyo Team, {Faculty of Engineering, University of Tokyo

>  <COMMENT>  (2447) 
SMILES=CCCCCCC(C)OC(C)=O
InChI=InChI=1S/C10H20O2/c1-4-5-6-7-8-9(2)12-10(3)11/h9H,4-8H2,1-3H3
computed SMILES=O=C(OC(C)CCCCCC)C
accession=JP008553
date=2016.01.19 (Created 2008.10.21, modified 2011.05.06)
author=SODA AROMATIC CO., LTD.
license=CC BY-NC-SA
exact mass=172.14633
ionization energy=70 eV
ion type=[M]+*
computed spectral entropy=2.5157733187834785
computed normalized entropy=0.7633185200193019
SPLASH=splash10-0006-9000000000-d8a2a75a383822ce4738
submitter=submitter = University of Tokyo Team (Faculty of Engineering, University of Tokyo)
MoNA Rating=3.75

>  <NUM PEAKS>  (2447) 
27

>  <MASS SPECTRAL PEAKS>  (2447) 
15 3.75
27 9.27
28 2.24
29 11
39 5.88
41 17.87
42 8.2
43 99.99
44 3.78
45 5.6
53 1.07
55 11.86
56 9.21
57 6.88
58 5.86
59 2.15
61 3.36
69 5.03
70 10.39
71 3.55
82 1.06
83 4.43
84 2.52
87 18.84
97 1.45
102 1.45
112 4.44

>  <PREDICTED SPECTRUM>  (2447) 
14 1
15 21
19 6
26 8
27 127
28 36
29 189
31 45
36 9
38 1
39 178
40 80
41 457
42 304
43 999
44 199
45 243
46 10
51 27
52 27
53 158
54 95
55 488
56 438
57 390
58 189
59 177
61 198
66 21
67 133
68 157
69 372
70 395
71 304
72 66
73 120
74 39
79 31
81 67
82 130
83 320
84 231
85 101
86 98
87 382
95 1
96 30
97 274
98 59
99 20
100 59
101 71
102 5
111 50
112 363
113 146
114 31
115 79
129 94
157 18

$$$$

     RDKit          2D

 13 12  0  0  0  0  0  0  0  0999 V2000
   -0.0000   -0.0000    0.0000 C   0  0  0  0  0  0  0  0  0  0  0  0
    1.2990    2.2500    0.0000 C   0  0  0  0  0  0  0  0  0  0  0  0
   -5.1962    4.5000    0.0000 C   0  0  0  0  0  0  0  0  0  0  0  0
   -3.8971    2.2500    0.0000 C   0  0  0  0  0  0  0  0  0  0  0  0
    1.2990    6.7500    0.0000 C   0  0  0  0  0  0  0  0  0  0  0  0
   -1.2990    2.2500    0.0000 C   0  0  0  0  0  0  0  0  0  0  0  0
   -2.5981    4.5000    0.0000 C   0  0  0  0  0  0  0  0  0  0  0  0
   -0.0000    1.5000    0.0000 C   0  0  0  0  0  0  0  0  0  0  0  0
   -3.8971    3.7500    0.0000 C   0  0  0  0  0  0  0  0  0  0  0  0
    0.0000    6.0000    0.0000 C   0  0  0  0  0  0  0  0  0  0  0  0
   -1.2990    3.7500    0.0000 C   0  0  0  0  0  0  0  0  0  0  0  0
   -1.2990    6.7500    0.0000 O   0  0  0  0  0  0  0  0  0  0  0  0
    0.0000    4.5000    0.0000 O   0  0  0  0  0  0  0  0  0  0  0  0
  8  1  1  0
  8  2  1  0
  8  6  1  0
  9  3  1  0
  9  4  1  0
  9  7  1  0
 10  5  1  0
 11  6  1  0
 11  7  1  0
 12 10  2  0
 13 10  1  0
 13 11  1  0
M  END
>  <NAME>  (2448) 
DIISOBUTYL CARBINYL ACETATE

>  <SYNONYMS>  (2448) 
1-(2-METHYLPROPYL)-3-METHYLBUTYL ACETATE

>  <SPECTRUM TYPE>  (2448) 
MS1

>  <INSTRUMENT TYPE>  (2448) 
EI-B

>  <INSTRUMENT>  (2448) 
HITACHI M-80B

>  <ION MODE>  (2448) 
P

>  <INCHIKEY>  (2448) 
XLJDNKNPKUBQMX-UHFFFAOYSA-N

>  <FORMULA>  (2448) 
C11H22O2

>  <EXACT MASS>  (2448) 
186.161979944

>  <MW>  (2448) 
186

>  <ID>  (2448) 
JP008552

>  <CONTRIBUTOR>  (2448) 
University of Tokyo Team, {Faculty of Engineering, University of Tokyo

>  <COMMENT>  (2448) 
SMILES=CC(C)CC(CC(C)C)OC(C)=O
InChI=InChI=1S/C11H22O2/c1-8(2)6-11(7-9(3)4)13-10(5)12/h8-9,11H,6-7H2,1-5H3
computed SMILES=O=C(OC(CC(C)C)CC(C)C)C
accession=JP008552
date=2016.01.19 (Created 2008.10.21, modified 2011.05.06)
author=SODA AROMATIC CO., LTD.
license=CC BY-NC-SA
exact mass=186.16198
ionization energy=70 eV
ion type=[M]+*
computed spectral entropy=2.3666153338311835
computed normalized entropy=0.6828608411620054
SPLASH=splash10-0006-9100000000-6e37007092ffa9442bb0
submitter=submitter = University of Tokyo Team (Faculty of Engineering, University of Tokyo)
MoNA Rating=3.75

>  <NUM PEAKS>  (2448) 
32

>  <MASS SPECTRAL PEAKS>  (2448) 
15 1.37
18 1.59
27 3.92
29 4.2
39 3.03
41 12.19
42 2.34
43 99.99
44 3.1
45 1.29
55 6.58
56 11.28
57 6.76
58 2.02
59 1.16
61 1.43
67 1.3
68 1.35
69 20.43
70 6.23
71 2.77
83 2.56
84 1.18
85 2.18
86 1.23
87 1
98 1.27
101 1.5
111 1.84
126 5.03
129 16.58
130 1.03

>  <PREDICTED SPECTRUM>  (2448) 
15 36
26 11
27 169
28 80
29 131
30 7
31 7
38 3
39 167
40 57
41 416
42 153
43 999
44 208
45 114
47 18
53 56
54 62
55 240
56 180
57 253
58 127
59 83
60 15
61 76
65 40
66 6
67 110
68 85
69 380
70 209
71 141
72 108
73 61
81 66
82 98
83 245
84 190
85 115
86 81
87 177
88 66
93 6
97 108
98 19
99 27
100 11
101 51
103 8
110 22
111 132
112 71
126 80
127 39
128 3
129 204
130 49

$$$$

     RDKit          2D

  8  7  0  0  0  0  0  0  0  0999 V2000
    0.0000    0.0000    0.0000 C   0  0  0  0  0  0  0  0  0  0  0  0
   -2.5981    6.0000    0.0000 C   0  0  0  0  0  0  0  0  0  0  0  0
   -1.2990    2.2500    0.0000 C   0  0  0  0  0  0  0  0  0  0  0  0
    0.0000    1.5000    0.0000 C   0  0  0  0  0  0  0  0  0  0  0  0
   -2.5981    4.5000    0.0000 C   0  0  0  0  0  0  0  0  0  0  0  0
    1.2990    2.2500    0.0000 O   0  0  0  0  0  0  0  0  0  0  0  0
   -3.8971    3.7500    0.0000 O   0  0  0  0  0  0  0  0  0  0  0  0
   -1.2990    3.7500    0.0000 O   0  0  0  0  0  0  0  0  0  0  0  0
  4  1  1  0
  4  3  1  0
  5  2  1  0
  6  4  2  0
  7  5  2  0
  8  3  1  0
  8  5  1  0
M  END
>  <NAME>  (2449) 
ACETOL ACETATE

>  <SYNONYMS>  (2449) 
ACETYLMETHYL ACETATE

>  <SPECTRUM TYPE>  (2449) 
MS1

>  <INSTRUMENT TYPE>  (2449) 
EI-B

>  <INSTRUMENT>  (2449) 
HITACHI M-80B

>  <ION MODE>  (2449) 
P

>  <INCHIKEY>  (2449) 
DBERHVIZRVGDFO-UHFFFAOYSA-N

>  <FORMULA>  (2449) 
C5H8O3

>  <EXACT MASS>  (2449) 
116.04734411599999

>  <MW>  (2449) 
116

>  <ID>  (2449) 
JP008551

>  <CONTRIBUTOR>  (2449) 
University of Tokyo Team, {Faculty of Engineering, University of Tokyo

>  <COMMENT>  (2449) 
SMILES=CC(=O)COC(C)=O
InChI=InChI=1S/C5H8O3/c1-4(6)3-8-5(2)7/h3H2,1-2H3
computed SMILES=O=C(OCC(=O)C)C
accession=JP008551
date=2016.01.19 (Created 2008.10.21, modified 2011.05.06)
author=SODA AROMATIC CO., LTD.
license=CC BY-NC-SA
exact mass=116.04734
ionization energy=70 eV
ion type=[M]+*
computed spectral entropy=1.271990642186524
computed normalized entropy=0.5118866909125314
SPLASH=splash10-0006-9000000000-081dd10fc4cec8f7a8d2
submitter=submitter = University of Tokyo Team (Faculty of Engineering, University of Tokyo)
MoNA Rating=3.75

>  <NUM PEAKS>  (2449) 
12

>  <MASS SPECTRAL PEAKS>  (2449) 
14 1.22
15 7.58
18 1.3
27 2.31
29 3.53
42 5.93
43 99.99
44 2.34
73 3.68
74 1.09
86 9.15
116 5.08

>  <PREDICTED SPECTRUM>  (2449) 
14 80
15 169
16 15
17 4
18 13
25 6
26 77
27 146
28 115
29 77
31 13
37 5
38 35
39 92
40 65
41 177
42 216
43 999
44 163
45 53
52 3
53 30
54 67
55 74
56 265
57 32
58 35
60 30
61 75
72 82
73 91
74 103

$$$$

     RDKit          2D

  9  8  0  0  0  0  0  0  0  0999 V2000
    1.9486    2.6250    0.0000 C   0  0  0  0  0  0  0  0  0  0  0  0
   -0.6495    1.1250    0.0000 C   0  0  0  0  0  0  0  0  0  0  0  0
   -4.5466    3.3750    0.0000 C   0  0  0  0  0  0  0  0  0  0  0  0
    0.6495    3.3750    0.0000 C   0  0  0  0  0  0  0  0  0  0  0  0
   -0.6495    2.6250    0.0000 C   0  0  0  0  0  0  0  0  0  0  0  0
   -3.2476    2.6250    0.0000 C   0  0  0  0  0  0  0  0  0  0  0  0
    0.6495    4.8750    0.0000 O   0  0  0  0  0  0  0  0  0  0  0  0
   -3.2476    1.1250    0.0000 O   0  0  0  0  0  0  0  0  0  0  0  0
   -1.9486    3.3750    0.0000 O   0  0  0  0  0  0  0  0  0  0  0  0
  4  1  1  0
  5  2  1  0
  5  4  1  0
  6  3  1  0
  7  4  2  0
  8  6  2  0
  9  5  1  0
  9  6  1  0
M  END
>  <NAME>  (2450) 
ACETOIN ACETATE

>  <SYNONYMS>  (2450) 
1-ACETYLETHYL ACETATE

>  <SPECTRUM TYPE>  (2450) 
MS1

>  <INSTRUMENT TYPE>  (2450) 
EI-B

>  <INSTRUMENT>  (2450) 
HITACHI M-80B

>  <ION MODE>  (2450) 
P

>  <INCHIKEY>  (2450) 
ZKPTYCJWRHHBOW-UHFFFAOYSA-N

>  <FORMULA>  (2450) 
C6H10O3

>  <EXACT MASS>  (2450) 
130.06299417999998

>  <MW>  (2450) 
130

>  <ID>  (2450) 
JP008550

>  <CONTRIBUTOR>  (2450) 
University of Tokyo Team, {Faculty of Engineering, University of Tokyo

>  <COMMENT>  (2450) 
SMILES=CC(=O)OC(C)C(C)=O
InChI=InChI=1S/C6H10O3/c1-4(7)5(2)9-6(3)8/h5H,1-3H3
computed SMILES=O=C(OC(C(=O)C)C)C
accession=JP008550
date=2016.01.19 (Created 2008.10.21, modified 2011.05.06)
author=SODA AROMATIC CO., LTD.
license=CC BY-NC-SA
exact mass=130.06299
ionization energy=70 eV
ion type=[M]+*
computed spectral entropy=1.0508474594958084
computed normalized entropy=0.45637725298108045
SPLASH=splash10-0006-9000000000-e7ac49abd7363a6c2ff9
submitter=submitter = University of Tokyo Team (Faculty of Engineering, University of Tokyo)
MoNA Rating=3.75

>  <NUM PEAKS>  (2450) 
10

>  <MASS SPECTRAL PEAKS>  (2450) 
15 4.45
27 2.25
42 2.65
43 99.99
44 2.36
45 3.74
86 1.41
87 14.37
88 1.1
130 2.56

>  <PREDICTED SPECTRUM>  (2450) 
14 67
15 132
16 12
19 2
26 60
27 187
28 35
29 130
39 130
40 36
41 132
42 187
43 999
44 214
45 236
55 36
57 33
58 17
61 24
70 53
71 124
86 192
87 421
88 129
130 35

$$$$

     RDKit          2D

  9  8  0  0  0  0  0  0  0  0999 V2000
   -7.4695    3.9375    0.0000 C   0  0  0  0  0  0  0  0  0  0  0  0
    1.6238    3.1875    0.0000 C   0  0  0  0  0  0  0  0  0  0  0  0
   -6.1704    3.1875    0.0000 C   0  0  0  0  0  0  0  0  0  0  0  0
   -3.5724    3.1875    0.0000 C   0  0  0  0  0  0  0  0  0  0  0  0
   -2.2733    3.9375    0.0000 C   0  0  0  0  0  0  0  0  0  0  0  0
    0.3248    3.9375    0.0000 C   0  0  0  0  0  0  0  0  0  0  0  0
    0.3248    5.4375    0.0000 O   0  0  0  0  0  0  0  0  0  0  0  0
   -4.8714    3.9375    0.0000 O   0  0  0  0  0  0  0  0  0  0  0  0
   -0.9743    3.1875    0.0000 O   0  0  0  0  0  0  0  0  0  0  0  0
  3  1  1  0
  5  4  1  0
  6  2  1  0
  7  6  2  0
  8  3  1  0
  8  4  1  0
  9  5  1  0
  9  6  1  0
M  END
>  <NAME>  (2451) 
2-ETHOXYETHYL ACETATE

>  <SYNONYMS>  (2451) 
ACETIC ACID 2-ETHOXYETHYL ESTER

>  <SPECTRUM TYPE>  (2451) 
MS1

>  <INSTRUMENT TYPE>  (2451) 
EI-B

>  <INSTRUMENT>  (2451) 
HITACHI M-80B

>  <ION MODE>  (2451) 
P

>  <INCHIKEY>  (2451) 
SVONRAPFKPVNKG-UHFFFAOYSA-N

>  <FORMULA>  (2451) 
C6H12O3

>  <EXACT MASS>  (2451) 
132.07864424399997

>  <MW>  (2451) 
132

>  <ID>  (2451) 
JP008549

>  <CONTRIBUTOR>  (2451) 
University of Tokyo Team, {Faculty of Engineering, University of Tokyo

>  <COMMENT>  (2451) 
SMILES=CCOCCOC(C)=O
InChI=InChI=1S/C6H12O3/c1-3-8-4-5-9-6(2)7/h3-5H2,1-2H3
computed SMILES=O=C(OCCOCC)C
accession=JP008549
date=2016.01.19 (Created 2008.10.21, modified 2011.05.06)
author=SODA AROMATIC CO., LTD.
license=CC BY-NC-SA
exact mass=132.07864
ionization energy=70 eV
ion type=[M]+*
computed spectral entropy=2.3147076452014375
computed normalized entropy=0.7602859537249089
SPLASH=splash10-0006-9000000000-391f2e28a3aa1dd252cd
submitter=submitter = University of Tokyo Team (Faculty of Engineering, University of Tokyo)
MoNA Rating=3.75

>  <NUM PEAKS>  (2451) 
21

>  <MASS SPECTRAL PEAKS>  (2451) 
15 7.69
26 1.55
27 10.09
28 3.47
29 17.64
31 34.87
41 1.65
42 4.21
43 99.99
44 20.16
45 10.48
58 1.89
59 38.52
60 1.48
61 3.43
72 33.25
73 4.16
74 1.76
87 8.38
88 6.41
89 1.25

>  <PREDICTED SPECTRUM>  (2451) 
14 60
15 190
16 29
17 17
18 37
19 53
26 92
27 284
28 180
29 354
30 171
31 453
32 50
33 21
38 17
39 75
40 82
41 280
42 285
43 999
44 392
45 607
46 112
47 77
53 1
54 23
57 297
58 228
59 926
60 279
61 286
62 86
70 26
71 61
72 822
73 457
74 156
75 194
86 11
87 540
88 280
89 265
90 19
103 76
132 20

$$$$

     RDKit          2D

  9  8  0  0  0  0  0  0  0  0999 V2000
    1.6238    3.1875    0.0000 C   0  0  0  0  0  0  0  0  0  0  0  0
   -4.8714    3.9375    0.0000 C   0  0  0  0  0  0  0  0  0  0  0  0
   -1.9385    2.0384    0.0000 C   0  0  0  0  0  0  0  0  0  0  0  0
   -0.0101    2.0384    0.0000 C   0  0  0  0  0  0  0  0  0  0  0  0
    0.3248    3.9375    0.0000 C   0  0  0  0  0  0  0  0  0  0  0  0
   -3.5724    3.1875    0.0000 C   0  0  0  0  0  0  0  0  0  0  0  0
   -0.9743    3.1875    0.0000 C   0  0  0  0  0  0  0  0  0  0  0  0
   -3.5724    1.6875    0.0000 O   0  0  0  0  0  0  0  0  0  0  0  0
   -2.2733    3.9375    0.0000 O   0  0  0  0  0  0  0  0  0  0  0  0
  5  1  2  0
  6  2  1  0
  7  3  1  0
  7  4  1  0
  7  5  1  0
  8  6  2  0
  9  6  1  0
  9  7  1  0
M  END
>  <NAME>  (2452) 
1,1-DIMETHYL-2-PROPENYL ACETATE

>  <SYNONYMS>  (2452) 
DIMETHYL VINYL CARBINYL ACETATE

>  <SPECTRUM TYPE>  (2452) 
MS1

>  <INSTRUMENT TYPE>  (2452) 
EI-B

>  <INSTRUMENT>  (2452) 
HITACHI M-80B

>  <ION MODE>  (2452) 
P

>  <INCHIKEY>  (2452) 
ZJVWGOLNVKJRDF-UHFFFAOYSA-N

>  <FORMULA>  (2452) 
C7H12O2

>  <EXACT MASS>  (2452) 
128.083729624

>  <MW>  (2452) 
128

>  <ID>  (2452) 
JP008548

>  <CONTRIBUTOR>  (2452) 
University of Tokyo Team, {Faculty of Engineering, University of Tokyo

>  <COMMENT>  (2452) 
SMILES=C=CC(C)(C)OC(C)=O
InChI=InChI=1S/C7H12O2/c1-5-7(3,4)9-6(2)8/h5H,1H2,2-4H3
computed SMILES=O=C(OC(C=C)(C)C)C
accession=JP008548
date=2016.01.19 (Created 2008.10.21, modified 2011.05.06)
author=SODA AROMATIC CO., LTD.
license=CC BY-NC-SA
exact mass=128.08373
ionization energy=70 eV
ion type=[M]+*
computed spectral entropy=2.5437393547051017
computed normalized entropy=0.7478952466622162
SPLASH=splash10-00kf-9000000000-d4f70bf5df428344a151
submitter=submitter = University of Tokyo Team (Faculty of Engineering, University of Tokyo)
MoNA Rating=3.75

>  <NUM PEAKS>  (2452) 
30

>  <MASS SPECTRAL PEAKS>  (2452) 
15 10.06
18 1.37
26 1.79
27 15.57
28 1.3
29 2.84
31 1.31
38 1.17
39 14.74
40 3.41
41 47.03
42 5.54
43 99.99
44 2.14
45 1.02
50 1.34
51 2.33
53 9.75
54 1.5
55 3.17
57 2.34
59 4.85
67 10.85
68 28.72
69 33.08
70 1.67
71 35.67
72 1.3
85 11.75
113 2.75

>  <PREDICTED SPECTRUM>  (2452) 
14 22
15 50
25 11
26 102
27 313
28 84
29 156
31 58
37 36
38 84
39 376
40 165
41 598
42 245
43 999
44 55
45 60
50 74
51 134
52 55
53 290
54 77
59 36
60 24
61 20
67 233
68 498
69 444
70 86
71 470
85 274
86 130
113 72

$$$$

     RDKit          2D

 10  9  0  0  0  0  0  0  0  0999 V2000
   -6.4952    4.5000    0.0000 C   0  0  0  0  0  0  0  0  0  0  0  0
    2.5981    3.7500    0.0000 C   0  0  0  0  0  0  0  0  0  0  0  0
   -3.8971    6.0000    0.0000 C   0  0  0  0  0  0  0  0  0  0  0  0
   -0.0000    2.2500    0.0000 C   0  0  0  0  0  0  0  0  0  0  0  0
   -5.1962    3.7500    0.0000 C   0  0  0  0  0  0  0  0  0  0  0  0
    1.2990    4.5000    0.0000 C   0  0  0  0  0  0  0  0  0  0  0  0
   -3.8971    4.5000    0.0000 C   0  0  0  0  0  0  0  0  0  0  0  0
    0.0000    3.7500    0.0000 C   0  0  0  0  0  0  0  0  0  0  0  0
   -2.5981    3.7500    0.0000 S   0  0  0  0  0  0  0  0  0  0  0  0
   -1.2990    4.5000    0.0000 S   0  0  0  0  0  0  0  0  0  0  0  0
  5  1  1  0
  6  2  1  0
  7  3  1  0
  7  5  1  0
  8  4  1  0
  8  6  1  0
  9  7  1  0
 10  8  1  0
 10  9  1  0
M  END
>  <NAME>  (2453) 
DI-SEC-BUTYL DISULFIDE

>  <SYNONYMS>  (2453) 
DI-SEC-BUTYL DISULFANE

>  <SPECTRUM TYPE>  (2453) 
MS1

>  <INSTRUMENT TYPE>  (2453) 
EI-B

>  <INSTRUMENT>  (2453) 
HITACHI M-80B

>  <ION MODE>  (2453) 
P

>  <INCHIKEY>  (2453) 
QTWKINKGAHTPFJ-UHFFFAOYSA-N

>  <FORMULA>  (2453) 
C8H18S2

>  <EXACT MASS>  (2453) 
178.084992576

>  <MW>  (2453) 
178

>  <ID>  (2453) 
JP008547

>  <CONTRIBUTOR>  (2453) 
University of Tokyo Team, {Faculty of Engineering, University of Tokyo

>  <COMMENT>  (2453) 
SMILES=CCC(C)SSC(C)CC
InChI=InChI=1S/C8H18S2/c1-5-7(3)9-10-8(4)6-2/h7-8H,5-6H2,1-4H3
computed SMILES=S(SC(C)CC)C(C)CC
accession=JP008547
date=2016.01.19 (Created 2008.10.21, modified 2011.05.06)
author=SODA AROMATIC CO., LTD.
license=CC BY-NC-SA
exact mass=178.08499
ionization energy=70 eV
ion type=[M]+*
computed spectral entropy=2.2582653778288804
computed normalized entropy=0.6931241451796388
SPLASH=splash10-0a6r-9200000000-433b24eb442935834bae
submitter=submitter = University of Tokyo Team (Faculty of Engineering, University of Tokyo)
MoNA Rating=3.75

>  <NUM PEAKS>  (2453) 
26

>  <MASS SPECTRAL PEAKS>  (2453) 
27 8.93
28 1.83
29 31.33
39 7.59
41 28.83
42 1.09
45 2.76
47 1.2
53 1.41
55 5.59
56 4.27
57 99.99
58 4.02
59 5.33
60 1.73
61 2.57
64 1.01
66 1.51
88 1.25
93 1.66
122 28.57
123 1.54
124 2.31
178 19.76
179 1.79
180 1.59

>  <PREDICTED SPECTRUM>  (2453) 
26 40
27 247
28 19
29 384
34 42
35 28
38 0
39 233
40 88
41 656
42 184
43 134
44 32
45 295
46 35
47 170
48 29
49 133
50 8
51 59
52 5
53 169
55 314
56 265
57 999
58 279
59 514
60 277
61 366
62 33
63 160
64 141
65 116
66 309
67 210
68 42
73 224
75 30
76 24
77 109
78 45
79 7
80 17
87 303
88 140
89 273
90 177
93 285
94 229
95 97
103 184
121 344
122 573
123 223
124 45
149 147
151 13
178 515
179 188
180 157
181 24

$$$$

     RDKit          2D

 17 18  0  0  0  0  0  0  0  0999 V2000
    2.6027    1.4936    0.0000 C   0  0  0  0  0  0  0  0  0  0  0  0
   -9.1263    0.6856    0.0000 C   0  0  0  0  0  0  0  0  0  0  0  0
   -9.1144   -0.8151    0.0000 C   0  0  0  0  0  0  0  0  0  0  0  0
   -7.8331    1.4472    0.0000 C   0  0  0  0  0  0  0  0  0  0  0  0
   -7.8093   -1.5544    0.0000 C   0  0  0  0  0  0  0  0  0  0  0  0
   -6.5279    0.7079    0.0000 C   0  0  0  0  0  0  0  0  0  0  0  0
    1.3000   -0.7500    0.0000 C   0  0  0  0  0  0  0  0  0  0  0  0
    0.0300    1.5000    0.0000 C   0  0  0  0  0  0  0  0  0  0  0  0
    0.0300   -1.5000    0.0000 C   0  0  0  0  0  0  0  0  0  0  0  0
   -1.3200    0.7500    0.0000 C   0  0  0  0  0  0  0  0  0  0  0  0
   -5.2108   -1.5321    0.0000 C   0  0  0  0  0  0  0  0  0  0  0  0
    1.3000    0.7500    0.0000 C   0  0  0  0  0  0  0  0  0  0  0  0
   -6.5160   -0.7929    0.0000 C   0  0  0  0  0  0  0  0  0  0  0  0
   -1.3200   -0.7500    0.0000 C   0  0  0  0  0  0  0  0  0  0  0  0
   -3.9180   -0.7714    0.0000 C   0  0  0  0  0  0  0  0  0  0  0  0
   -3.9304    0.7285    0.0000 O   0  0  0  0  0  0  0  0  0  0  0  0
   -2.6128   -1.5107    0.0000 O   0  0  0  0  0  0  0  0  0  0  0  0
  3  2  2  0
  4  2  1  0
  5  3  1  0
  6  4  2  0
  9  7  2  0
 10  8  1  0
 12  1  1  0
 12  7  1  0
 12  8  2  0
 13  5  2  0
 13  6  1  0
 13 11  1  0
 14  9  1  0
 14 10  2  0
 15 11  1  0
 16 15  2  0
 17 14  1  0
 17 15  1  0
M  END
>  <NAME>  (2454) 
PARA-CRESYL PHENYLACETATE

>  <SYNONYMS>  (2454) 
PHENYLACETIC ACID PARA-CRESYL ESTER

>  <SPECTRUM TYPE>  (2454) 
MS1

>  <INSTRUMENT TYPE>  (2454) 
EI-B

>  <INSTRUMENT>  (2454) 
HITACHI M-80B

>  <ION MODE>  (2454) 
P

>  <INCHIKEY>  (2454) 
OJEQSSJFSNLMLB-UHFFFAOYSA-N

>  <FORMULA>  (2454) 
C15H14O2

>  <EXACT MASS>  (2454) 
226.099379688

>  <MW>  (2454) 
226

>  <ID>  (2454) 
JP008545

>  <CONTRIBUTOR>  (2454) 
University of Tokyo Team, {Faculty of Engineering, University of Tokyo

>  <COMMENT>  (2454) 
SMILES=Cc(c2)ccc(c2)OC(=O)Cc(c1)cccc1
InChI=InChI=1S/C15H14O2/c1-12-7-9-14(10-8-12)17-15(16)11-13-5-3-2-4-6-13/h2-10H,11H2,1H3
computed SMILES=O=C(OC1=CC=C(C=C1)C)CC=2C=CC=CC2
accession=JP008545
date=2016.01.19 (Created 2008.10.21, modified 2011.05.06)
author=SODA AROMATIC CO., LTD.
license=CC BY-NC-SA
exact mass=226.09938
ionization energy=70 eV
ion type=[M]+*
computed spectral entropy=2.2397427816306634
computed normalized entropy=0.7047529403822111
SPLASH=splash10-014l-9700000000-76bc90418ec85695d94a
submitter=submitter = University of Tokyo Team (Faculty of Engineering, University of Tokyo)
MoNA Rating=3.75

>  <NUM PEAKS>  (2454) 
24

>  <MASS SPECTRAL PEAKS>  (2454) 
27 2.59
28 1.89
39 7.6
41 2.14
50 2.21
51 5.66
52 3.05
53 2.67
63 4.77
64 1.49
65 14.74
77 9.23
78 3.54
79 3.58
89 5.08
90 9.46
91 84.76
92 6.22
107 6.88
108 27.86
109 2.17
118 99.99
119 8
226 2.25

>  <PREDICTED SPECTRUM>  (2454) 
26 24
27 57
38 11
39 157
40 12
41 95
42 18
50 77
51 117
52 104
53 82
54 25
62 44
63 183
64 97
65 298
66 65
77 149
78 103
79 81
80 26
89 163
90 297
91 806
92 240
106 7
107 338
108 472
109 58
118 999
119 401
226 148
227 45

$$$$

     RDKit          2D

 17 18  0  0  0  0  0  0  0  0999 V2000
   -0.9736   -2.8671    0.0000 C   0  0  0  0  0  0  0  0  0  0  0  0
    4.2226    3.1329    0.0000 C   0  0  0  0  0  0  0  0  0  0  0  0
   -3.5716    3.1329    0.0000 C   0  0  0  0  0  0  0  0  0  0  0  0
    2.9231    3.8837    0.0000 C   0  0  0  0  0  0  0  0  0  0  0  0
    4.2231    1.6321    0.0000 C   0  0  0  0  0  0  0  0  0  0  0  0
   -3.5721    1.6321    0.0000 C   0  0  0  0  0  0  0  0  0  0  0  0
   -2.2721    3.8837    0.0000 C   0  0  0  0  0  0  0  0  0  0  0  0
    1.6240    3.1337    0.0000 C   0  0  0  0  0  0  0  0  0  0  0  0
    2.9240    0.8821    0.0000 C   0  0  0  0  0  0  0  0  0  0  0  0
   -2.2731    0.8821    0.0000 C   0  0  0  0  0  0  0  0  0  0  0  0
   -0.9731    3.1337    0.0000 C   0  0  0  0  0  0  0  0  0  0  0  0
   -0.9736   -1.3671    0.0000 C   0  0  0  0  0  0  0  0  0  0  0  0
    1.6245    1.6329    0.0000 C   0  0  0  0  0  0  0  0  0  0  0  0
   -0.9736    1.6329    0.0000 C   0  0  0  0  0  0  0  0  0  0  0  0
    0.3255    0.8829    0.0000 C   0  0  0  0  0  0  0  0  0  0  0  0
   -2.2726   -0.6171    0.0000 O   0  0  0  0  0  0  0  0  0  0  0  0
    0.3255   -0.6171    0.0000 O   0  0  0  0  0  0  0  0  0  0  0  0
  4  2  2  0
  5  2  1  0
  6  3  2  0
  7  3  1  0
  8  4  1  0
  9  5  2  0
 10  6  1  0
 11  7  2  0
 12  1  1  0
 13  8  2  0
 13  9  1  0
 14 10  2  0
 14 11  1  0
 15 13  1  0
 15 14  1  0
 16 12  2  0
 17 12  1  0
 17 15  1  0
M  END
>  <NAME>  (2455) 
DIPHENYLMETHYL ACETATE

>  <SYNONYMS>  (2455) 
ALPHA-PHENYLBENZYL ACETATE

>  <SPECTRUM TYPE>  (2455) 
MS1

>  <INSTRUMENT TYPE>  (2455) 
EI-B

>  <INSTRUMENT>  (2455) 
HITACHI M-80B

>  <ION MODE>  (2455) 
P

>  <INCHIKEY>  (2455) 
QBKMWJRMLACRJD-UHFFFAOYSA-N

>  <FORMULA>  (2455) 
C15H14O2

>  <EXACT MASS>  (2455) 
226.099379688

>  <MW>  (2455) 
226

>  <ID>  (2455) 
JP008544

>  <CONTRIBUTOR>  (2455) 
University of Tokyo Team, {Faculty of Engineering, University of Tokyo

>  <COMMENT>  (2455) 
SMILES=CC(=O)OC(c(c2)cccc2)c(c1)cccc1
InChI=InChI=1S/C15H14O2/c1-12(16)17-15(13-8-4-2-5-9-13)14-10-6-3-7-11-14/h2-11,15H,1H3
computed SMILES=O=C(OC(C=1C=CC=CC1)C=2C=CC=CC2)C
accession=JP008544
date=2016.01.19 (Created 2008.10.21, modified 2011.05.06)
author=SODA AROMATIC CO., LTD.
license=CC BY-NC-SA
exact mass=226.09938
ionization energy=70 eV
ion type=[M]+*
computed spectral entropy=1.4274571837167684
computed normalized entropy=0.5271162193137245
SPLASH=splash10-0006-9000000000-c8776d5c7623a6af3f84
submitter=submitter = University of Tokyo Team (Faculty of Engineering, University of Tokyo)
MoNA Rating=3.75

>  <NUM PEAKS>  (2455) 
15

>  <MASS SPECTRAL PEAKS>  (2455) 
39 5.79
41 1.95
50 1.13
51 3.9
52 1.24
63 3.31
64 1.03
65 14.85
77 2.95
89 3.02
90 2.14
91 99.99
92 7.68
108 1.12
226 1.97

>  <PREDICTED SPECTRUM>  (2455) 
14 9
15 47
26 40
27 158
28 84
31 11
38 56
39 190
40 50
41 125
42 150
43 586
44 192
45 95
50 170
51 390
52 163
53 111
54 59
55 115
57 32
59 26
60 66
61 23
62 136
63 318
64 155
65 188
66 34
67 10
69 65
70 54
71 14
74 147
75 112
76 183
77 507
78 300
79 175
80 75
81 11
82 137
83 208
84 7
86 6
87 130
88 5
89 292
90 171
91 96
92 67
94 26
97 92
99 57
101 61
102 184
103 16
104 90
105 498
106 352
107 230
108 79
113 121
115 316
121 39
122 38
126 177
127 132
128 289
137 37
138 111
139 219
140 77
141 91
149 90
150 7
151 156
152 527
153 405
154 179
155 193
163 98
164 168
165 976
166 862
167 999
168 549
169 88
181 184
182 32
183 611
184 490
185 176
226 495
227 157
228 33

$$$$

     RDKit          2D

 15 15  0  0  0  0  0  0  0  0999 V2000
   -6.8197    3.1321    0.0000 C   0  0  0  0  0  0  0  0  0  0  0  0
   -1.9584    5.0312    0.0000 C   0  0  0  0  0  0  0  0  0  0  0  0
   -3.8868    5.0312    0.0000 C   0  0  0  0  0  0  0  0  0  0  0  0
    3.5726    1.6321    0.0000 C   0  0  0  0  0  0  0  0  0  0  0  0
    3.5731    3.1329    0.0000 C   0  0  0  0  0  0  0  0  0  0  0  0
    2.2731    0.8813    0.0000 C   0  0  0  0  0  0  0  0  0  0  0  0
    2.2740    3.8829    0.0000 C   0  0  0  0  0  0  0  0  0  0  0  0
    0.9740    1.6313    0.0000 C   0  0  0  0  0  0  0  0  0  0  0  0
   -0.3245    3.8821    0.0000 C   0  0  0  0  0  0  0  0  0  0  0  0
   -1.6236    3.1321    0.0000 C   0  0  0  0  0  0  0  0  0  0  0  0
   -5.5207    3.8821    0.0000 C   0  0  0  0  0  0  0  0  0  0  0  0
    0.9745    3.1321    0.0000 C   0  0  0  0  0  0  0  0  0  0  0  0
   -2.9226    3.8821    0.0000 C   0  0  0  0  0  0  0  0  0  0  0  0
   -5.5207    5.3821    0.0000 O   0  0  0  0  0  0  0  0  0  0  0  0
   -4.2216    3.1321    0.0000 O   0  0  0  0  0  0  0  0  0  0  0  0
  5  4  2  0
  6  4  1  0
  7  5  1  0
  8  6  2  0
 10  9  1  0
 11  1  1  0
 12  7  2  0
 12  8  1  0
 12  9  1  0
 13  2  1  0
 13  3  1  0
 13 10  1  0
 14 11  2  0
 15 11  1  0
 15 13  1  0
M  END
>  <NAME>  (2456) 
1,1-DIMETHYL-3-PHENYLPROPYL ACETATE

>  <SYNONYMS>  (2456) 
DIMETHYL PHENYLETHYL CARBINYL ACETATE

>  <SPECTRUM TYPE>  (2456) 
MS1

>  <INSTRUMENT TYPE>  (2456) 
EI-B

>  <INSTRUMENT>  (2456) 
HITACHI M-80B

>  <ION MODE>  (2456) 
P

>  <INCHIKEY>  (2456) 
ZXFNOEJFYLQUSB-UHFFFAOYSA-N

>  <FORMULA>  (2456) 
C13H18O2

>  <EXACT MASS>  (2456) 
206.130679816

>  <MW>  (2456) 
206

>  <ID>  (2456) 
JP008543

>  <CONTRIBUTOR>  (2456) 
University of Tokyo Team, {Faculty of Engineering, University of Tokyo

>  <COMMENT>  (2456) 
SMILES=CC(=O)OC(C)(C)CCc(c1)cccc1
InChI=InChI=1S/C13H18O2/c1-11(14)15-13(2,3)10-9-12-7-5-4-6-8-12/h4-8H,9-10H2,1-3H3
computed SMILES=O=C(OC(C)(C)CCC=1C=CC=CC1)C
accession=JP008543
date=2016.01.19 (Created 2008.10.21, modified 2011.05.06)
author=SODA AROMATIC CO., LTD.
license=CC BY-NC-SA
exact mass=206.13068
ionization energy=70 eV
ion type=[M]+*
computed spectral entropy=2.7397305916445873
computed normalized entropy=0.7239940004824202
SPLASH=splash10-000x-9600000000-3b359589af1982a1b9a8
submitter=submitter = University of Tokyo Team (Faculty of Engineering, University of Tokyo)
MoNA Rating=3.75

>  <NUM PEAKS>  (2456) 
44

>  <MASS SPECTRAL PEAKS>  (2456) 
15 3.77
18 3.27
27 4.4
28 1.33
29 2.38
31 1.51
39 9.06
41 8.84
42 1.31
43 75.56
44 1.53
50 1.51
51 6.22
52 1.36
53 1.59
55 1.68
56 2.45
59 12.36
63 2.63
65 14.48
66 1.04
68 2.12
77 9.05
78 3.64
79 3.35
89 2.21
91 70.05
92 5.13
101 1.62
103 3.66
104 4.15
105 9.44
115 2.24
116 1.76
117 2.27
128 1.42
129 2.47
130 1.07
131 99.99
132 11.39
145 2.27
146 42.45
147 6.27
149 4.44

>  <PREDICTED SPECTRUM>  (2456) 
14 2
15 3
26 6
27 110
28 59
29 90
31 73
32 10
37 13
38 59
39 288
40 108
41 282
42 96
43 937
44 121
45 60
50 117
51 239
52 139
53 154
55 191
56 9
57 70
59 21
60 60
61 37
62 27
63 152
64 24
65 301
66 67
67 10
71 12
75 6
77 249
78 209
79 149
89 79
91 849
92 268
102 29
103 187
104 297
105 281
115 263
116 38
117 99
128 70
129 262
131 999
132 362
146 608
147 156

$$$$

     RDKit          2D

 14 14  0  0  0  0  0  0  0  0999 V2000
   -5.8454    3.6946    0.0000 C   0  0  0  0  0  0  0  0  0  0  0  0
   -2.9125    1.7955    0.0000 C   0  0  0  0  0  0  0  0  0  0  0  0
   -0.9841    1.7955    0.0000 C   0  0  0  0  0  0  0  0  0  0  0  0
    3.2478    1.4446    0.0000 C   0  0  0  0  0  0  0  0  0  0  0  0
    3.2483    2.9454    0.0000 C   0  0  0  0  0  0  0  0  0  0  0  0
    1.9483    0.6938    0.0000 C   0  0  0  0  0  0  0  0  0  0  0  0
    1.9493    3.6954    0.0000 C   0  0  0  0  0  0  0  0  0  0  0  0
    0.6493    1.4438    0.0000 C   0  0  0  0  0  0  0  0  0  0  0  0
   -0.6493    3.6946    0.0000 C   0  0  0  0  0  0  0  0  0  0  0  0
   -4.5464    2.9446    0.0000 C   0  0  0  0  0  0  0  0  0  0  0  0
    0.6498    2.9446    0.0000 C   0  0  0  0  0  0  0  0  0  0  0  0
   -1.9483    2.9446    0.0000 C   0  0  0  0  0  0  0  0  0  0  0  0
   -4.5464    1.4446    0.0000 O   0  0  0  0  0  0  0  0  0  0  0  0
   -3.2474    3.6946    0.0000 O   0  0  0  0  0  0  0  0  0  0  0  0
  5  4  2  0
  6  4  1  0
  7  5  1  0
  8  6  2  0
 10  1  1  0
 11  7  2  0
 11  8  1  0
 11  9  1  0
 12  2  1  0
 12  3  1  0
 12  9  1  0
 13 10  2  0
 14 10  1  0
 14 12  1  0
M  END
>  <NAME>  (2457) 
1,1-DIMETHYL-2-PHENYLETHYL ACETATE

>  <SYNONYMS>  (2457) 
DIMETHYL BENZYL CARBINYL ACETATE

>  <SPECTRUM TYPE>  (2457) 
MS1

>  <INSTRUMENT TYPE>  (2457) 
EI-B

>  <INSTRUMENT>  (2457) 
HITACHI M-80B

>  <ION MODE>  (2457) 
P

>  <INCHIKEY>  (2457) 
FLUWAIIVLCVEKF-UHFFFAOYSA-N

>  <FORMULA>  (2457) 
C12H16O2

>  <EXACT MASS>  (2457) 
192.115029752

>  <MW>  (2457) 
192

>  <ID>  (2457) 
JP008542

>  <CONTRIBUTOR>  (2457) 
University of Tokyo Team, {Faculty of Engineering, University of Tokyo

>  <COMMENT>  (2457) 
SMILES=CC(=O)OC(C)(C)Cc(c1)cccc1
InChI=InChI=1S/C12H16O2/c1-10(13)14-12(2,3)9-11-7-5-4-6-8-11/h4-8H,9H2,1-3H3
computed SMILES=O=C(OC(C)(C)CC=1C=CC=CC1)C
accession=JP008542
date=2016.01.19 (Created 2008.10.21, modified 2011.05.06)
author=SODA AROMATIC CO., LTD.
license=CC BY-NC-SA
exact mass=192.11503
ionization energy=70 eV
ion type=[M]+*
computed spectral entropy=2.2827336802212765
computed normalized entropy=0.7006341443791269
SPLASH=splash10-0006-9200000000-c6be4e527c151768a762
submitter=submitter = University of Tokyo Team (Faculty of Engineering, University of Tokyo)
MoNA Rating=3.75

>  <NUM PEAKS>  (2457) 
26

>  <MASS SPECTRAL PEAKS>  (2457) 
15 2.37
27 1.62
29 1.63
31 1.18
39 5.44
41 2.34
43 99.99
44 2.09
51 2.51
55 2.02
59 23.9
63 1.84
65 7.84
77 1.48
78 1.03
89 1.59
91 27.14
92 5.87
101 7.84
105 1.33
115 2.36
117 7.95
132 22.32
133 5.24
134 4.18
135 5.39

>  <PREDICTED SPECTRUM>  (2457) 
15 3
26 2
27 113
29 19
38 34
39 257
40 69
41 264
42 89
43 999
45 102
50 99
51 215
52 108
53 99
55 86
57 25
58 47
62 25
63 155
64 85
65 299
66 68
71 4
75 39
76 14
77 184
78 182
79 125
89 117
90 106
91 946
92 357
102 36
103 31
105 41
106 11
115 279
117 516
131 288
132 635
133 130
134 138
135 41
192 27

$$$$

     RDKit          2D

 11 11  0  0  0  0  0  0  0  0999 V2000
    2.6360    0.5353    0.0000 C   0  0  0  0  0  0  0  0  0  0  0  0
   -6.2939   -1.0041    0.0000 C   0  0  0  0  0  0  0  0  0  0  0  0
    0.7500   -1.3600    0.0000 C   0  0  0  0  0  0  0  0  0  0  0  0
   -0.7500   -1.3600    0.0000 C   0  0  0  0  0  0  0  0  0  0  0  0
   -2.6360    0.5353    0.0000 C   0  0  0  0  0  0  0  0  0  0  0  0
    1.2100    0.0700    0.0000 C   0  0  0  0  0  0  0  0  0  0  0  0
   -5.1780   -0.0018    0.0000 C   0  0  0  0  0  0  0  0  0  0  0  0
   -1.2100    0.0700    0.0000 C   0  0  0  0  0  0  0  0  0  0  0  0
   -5.4880    1.4658    0.0000 O   0  0  0  0  0  0  0  0  0  0  0  0
   -3.7520   -0.4670    0.0000 O   0  0  0  0  0  0  0  0  0  0  0  0
    0.0000    0.9500    0.0000 O   0  0  0  0  0  0  0  0  0  0  0  0
  4  3  1  0
  6  1  1  0
  6  3  2  0
  7  2  1  0
  8  4  2  0
  8  5  1  0
  9  7  2  0
 10  5  1  0
 10  7  1  0
 11  6  1  0
 11  8  1  0
M  END
>  <NAME>  (2458) 
5-METHYL-2-FURFURYL ACETATE

>  <SYNONYMS>  (2458) 


>  <SPECTRUM TYPE>  (2458) 
MS1

>  <INSTRUMENT TYPE>  (2458) 
EI-B

>  <INSTRUMENT>  (2458) 
HITACHI M-80B

>  <ION MODE>  (2458) 
P

>  <INCHIKEY>  (2458) 
WCAYUXKMYBPHIN-UHFFFAOYSA-N

>  <FORMULA>  (2458) 
C8H10O3

>  <EXACT MASS>  (2458) 
154.06299417999998

>  <MW>  (2458) 
154

>  <ID>  (2458) 
JP008541

>  <CONTRIBUTOR>  (2458) 
University of Tokyo Team, {Faculty of Engineering, University of Tokyo

>  <COMMENT>  (2458) 
SMILES=CC(=O)OCc(c1)oc(C)c1
InChI=InChI=1S/C8H10O3/c1-6-3-4-8(11-6)5-10-7(2)9/h3-4H,5H2,1-2H3
computed SMILES=O=C(OCC=1OC(=CC1)C)C
accession=JP008541
date=2016.01.19 (Created 2008.10.21, modified 2011.05.06)
author=SODA AROMATIC CO., LTD.
license=CC BY-NC-SA
exact mass=154.06299
ionization energy=70 eV
ion type=[M]+*
computed spectral entropy=2.6336747628875474
computed normalized entropy=0.7599179039464562
SPLASH=splash10-0005-9100000000-5fb77e65edbb7363cf5a
submitter=submitter = University of Tokyo Team (Faculty of Engineering, University of Tokyo)
MoNA Rating=3.75

>  <NUM PEAKS>  (2458) 
32

>  <MASS SPECTRAL PEAKS>  (2458) 
15 7.13
26 1.31
27 6.45
29 3.2
38 1
39 6.65
40 1.37
41 7.43
42 3.75
43 46.91
50 4.39
51 7.69
52 6.8
53 6.46
55 4.25
65 3.07
66 1.77
67 3.75
69 1.11
79 23.91
80 2.79
83 1.79
84 1
94 20.36
95 99.99
96 6.41
97 3.49
109 2.39
111 4.37
112 13.79
154 21.62
155 1.6

>  <PREDICTED SPECTRUM>  (2458) 
14 20
15 54
26 46
27 94
28 43
29 53
37 63
38 168
39 306
40 175
41 197
42 174
43 999
44 140
45 77
50 180
51 368
52 325
53 325
54 57
55 238
61 21
62 15
63 140
64 87
65 343
66 234
67 292
68 117
69 231
70 61
77 385
78 63
79 379
80 166
81 294
82 139
83 349
84 35
93 314
94 471
95 513
96 205
97 181
109 42
110 37
111 988
112 400
139 97
152 1
153 187
154 691
155 229
156 16

$$$$

     RDKit          2D

 14 13  0  0  0  0  0  0  0  0999 V2000
    2.9228    5.4375    0.0000 C   0  0  0  0  0  0  0  0  0  0  0  0
   -4.4202    2.8789    0.0000 C   0  0  0  0  0  0  0  0  0  0  0  0
   -8.7685    6.1875    0.0000 C   0  0  0  0  0  0  0  0  0  0  0  0
   -5.8356    4.2884    0.0000 C   0  0  0  0  0  0  0  0  0  0  0  0
    1.6238    6.1875    0.0000 C   0  0  0  0  0  0  0  0  0  0  0  0
   -3.9072    4.2884    0.0000 C   0  0  0  0  0  0  0  0  0  0  0  0
    0.3248    5.4375    0.0000 C   0  0  0  0  0  0  0  0  0  0  0  0
   -0.9743    6.1875    0.0000 C   0  0  0  0  0  0  0  0  0  0  0  0
   -2.2733    5.4375    0.0000 C   0  0  0  0  0  0  0  0  0  0  0  0
   -3.5724    6.1875    0.0000 C   0  0  0  0  0  0  0  0  0  0  0  0
   -7.4695    5.4375    0.0000 C   0  0  0  0  0  0  0  0  0  0  0  0
   -4.8714    5.4375    0.0000 C   0  0  0  0  0  0  0  0  0  0  0  0
   -7.4695    3.9375    0.0000 O   0  0  0  0  0  0  0  0  0  0  0  0
   -6.1704    6.1875    0.0000 O   0  0  0  0  0  0  0  0  0  0  0  0
  5  1  1  0
  6  2  1  0
  7  5  1  0
  8  7  1  0
  9  8  1  0
 10  9  1  0
 11  3  1  0
 12  4  1  0
 12  6  1  0
 12 10  1  0
 13 11  2  0
 14 11  1  0
 14 12  1  0
M  END
>  <NAME>  (2459) 
1-ETHYL-1-METHYLHEPTYL ACETATE

>  <SYNONYMS>  (2459) 
ETHYL HEXYL METHYL CARBINYL ACETATE

>  <SPECTRUM TYPE>  (2459) 
MS1

>  <INSTRUMENT TYPE>  (2459) 
EI-B

>  <INSTRUMENT>  (2459) 
HITACHI M-80B

>  <ION MODE>  (2459) 
P

>  <INCHIKEY>  (2459) 
HVPKIOUHNVOKDK-UHFFFAOYSA-N

>  <FORMULA>  (2459) 
C12H24O2

>  <EXACT MASS>  (2459) 
200.177630008

>  <MW>  (2459) 
200

>  <ID>  (2459) 
JP008539

>  <CONTRIBUTOR>  (2459) 
University of Tokyo Team, {Faculty of Engineering, University of Tokyo

>  <COMMENT>  (2459) 
SMILES=CCCCCCC(C)(CC)OC(C)=O
InChI=InChI=1S/C12H24O2/c1-5-7-8-9-10-12(4,6-2)14-11(3)13/h5-10H2,1-4H3
computed SMILES=O=C(OC(C)(CC)CCCCCC)C
accession=JP008539
date=2016.01.19 (Created 2008.10.21, modified 2011.05.06)
author=SODA AROMATIC CO., LTD.
license=CC BY-NC-SA
exact mass=200.17763
ionization energy=70 eV
ion type=[M]+*
computed spectral entropy=2.902915841672496
computed normalized entropy=0.7980335624244979
SPLASH=splash10-006x-9200000000-0c5ef419b07427da5489
submitter=submitter = University of Tokyo Team (Faculty of Engineering, University of Tokyo)
MoNA Rating=3.75

>  <NUM PEAKS>  (2459) 
38

>  <MASS SPECTRAL PEAKS>  (2459) 
15 2.09
27 9.92
28 1.48
29 16.72
39 6.08
41 22.82
42 4.9
43 99.99
44 2.16
45 3.81
53 2.18
54 1.08
55 27.64
56 4.54
57 12.81
58 4.37
59 1.53
67 1.95
68 1.27
69 18.32
70 23.75
71 10.61
72 1.36
73 47.58
74 2.01
83 8.26
84 1.53
85 5.12
111 7.7
112 1.03
115 31.22
116 1.92
129 36.15
130 4.35
140 5.53
141 2.18
143 5.86
171 3.47

>  <PREDICTED SPECTRUM>  (2459) 
15 2
27 184
28 99
29 221
31 7
38 2
39 253
40 85
41 645
42 305
43 999
44 75
45 6
51 15
52 10
53 147
54 60
55 650
56 354
57 466
58 201
59 187
60 47
61 99
65 48
67 143
68 64
69 485
70 437
71 360
72 255
73 771
74 71
83 390
84 39
85 32
86 14
87 54
96 10
97 186
98 18
99 85
101 117
110 8
111 319
112 246
115 471
116 55
125 88
128 47
129 880
130 144
140 404
141 183
143 184
158 88
171 165

$$$$

     RDKit          2D

 16 15  0  0  0  0  0  0  0  0999 V2000
    4.5466    7.8750    0.0000 C   0  0  0  0  0  0  0  0  0  0  0  0
  -13.6399    7.8750    0.0000 C   0  0  0  0  0  0  0  0  0  0  0  0
    3.2476    8.6250    0.0000 C   0  0  0  0  0  0  0  0  0  0  0  0
    1.9486    7.8750    0.0000 C   0  0  0  0  0  0  0  0  0  0  0  0
    0.6495    8.6250    0.0000 C   0  0  0  0  0  0  0  0  0  0  0  0
   -0.6495    7.8750    0.0000 C   0  0  0  0  0  0  0  0  0  0  0  0
   -1.9486    8.6250    0.0000 C   0  0  0  0  0  0  0  0  0  0  0  0
   -3.2476    7.8750    0.0000 C   0  0  0  0  0  0  0  0  0  0  0  0
   -4.5466    8.6250    0.0000 C   0  0  0  0  0  0  0  0  0  0  0  0
   -5.8457    7.8750    0.0000 C   0  0  0  0  0  0  0  0  0  0  0  0
   -7.1447    8.6250    0.0000 C   0  0  0  0  0  0  0  0  0  0  0  0
   -8.4437    7.8750    0.0000 C   0  0  0  0  0  0  0  0  0  0  0  0
   -9.7428    8.6250    0.0000 C   0  0  0  0  0  0  0  0  0  0  0  0
  -12.3409    8.6250    0.0000 C   0  0  0  0  0  0  0  0  0  0  0  0
  -12.3409   10.1250    0.0000 O   0  0  0  0  0  0  0  0  0  0  0  0
  -11.0418    7.8750    0.0000 O   0  0  0  0  0  0  0  0  0  0  0  0
  3  1  2  0
  4  3  1  0
  5  4  1  0
  6  5  1  0
  7  6  1  0
  8  7  1  0
  9  8  1  0
 10  9  1  0
 11 10  1  0
 12 11  1  0
 13 12  1  0
 14  2  1  0
 15 14  2  0
 16 13  1  0
 16 14  1  0
M  END
>  <NAME>  (2460) 
11-DODECENYL ACETATE

>  <SYNONYMS>  (2460) 
ACETIC ACID 11-DODECENYL ESTER

>  <SPECTRUM TYPE>  (2460) 
MS1

>  <INSTRUMENT TYPE>  (2460) 
EI-B

>  <INSTRUMENT>  (2460) 
HITACHI M-80B

>  <ION MODE>  (2460) 
P

>  <INCHIKEY>  (2460) 
ANBOMSJGDBBKMR-UHFFFAOYSA-N

>  <FORMULA>  (2460) 
C14H26O2

>  <EXACT MASS>  (2460) 
226.193280072

>  <MW>  (2460) 
226

>  <ID>  (2460) 
JP008538

>  <CONTRIBUTOR>  (2460) 
University of Tokyo Team, {Faculty of Engineering, University of Tokyo

>  <COMMENT>  (2460) 
SMILES=C=CCCCCCCCCCCOC(C)=O
InChI=InChI=1S/C14H26O2/c1-3-4-5-6-7-8-9-10-11-12-13-16-14(2)15/h3H,1,4-13H2,2H3
computed SMILES=O=C(OCCCCCCCCCCC=C)C
accession=JP008538
date=2016.01.19 (Created 2008.10.21, modified 2011.05.06)
author=SODA AROMATIC CO., LTD.
license=CC BY-NC-SA
exact mass=226.19328
ionization energy=70 eV
ion type=[M]+*
computed spectral entropy=3.072939528954918
computed normalized entropy=0.807252951164664
SPLASH=splash10-00kf-9000000000-bf191117f05af0eef16d
submitter=submitter = University of Tokyo Team (Faculty of Engineering, University of Tokyo)
MoNA Rating=3.75

>  <NUM PEAKS>  (2460) 
45

>  <MASS SPECTRAL PEAKS>  (2460) 
15 3.06
27 7.85
28 1.42
29 15.42
31 1.08
39 11.49
40 2.33
41 53.1
42 10.59
43 99.99
44 2.61
53 5.13
54 37.8
55 60.74
56 8.71
57 5.5
58 1.01
61 10.54
65 1.05
66 2.79
67 34.48
68 42.12
69 29.86
70 3.6
71 1.57
72 1.14
73 3.06
79 1.8
80 1.75
81 29.67
82 40.92
83 15.64
84 1.49
94 1.11
95 20.06
96 21.87
97 4.42
109 8.17
110 7.98
111 1.25
123 3.25
124 3.72
137 1.55
138 2.3
166 1.9

>  <PREDICTED SPECTRUM>  (2460) 
26 14
27 84
28 27
29 106
30 16
31 3
38 12
39 218
40 100
41 770
42 393
43 999
44 208
45 123
47 3
50 28
51 73
52 82
53 259
54 558
55 827
56 399
57 398
58 104
59 131
60 113
61 284
62 32
63 29
65 112
66 213
67 680
68 731
69 635
70 308
71 231
72 94
73 180
74 101
75 51
77 120
78 64
79 233
80 196
81 597
82 725
83 489
84 249
85 150
86 90
87 118
88 57
89 36
91 106
92 17
93 112
94 146
95 574
96 671
97 410
98 194
99 107
100 70
101 109
102 31
103 19
105 28
106 11
107 121
108 129
109 421
110 430
111 255
112 95
113 87
114 77
115 112
116 79
117 21
121 60
122 54
123 312
124 258
125 128
126 74
127 79
128 80
129 76
130 13
133 10
135 52
136 18
137 196
138 224
139 85
140 77
141 70
143 59
145 1
147 3
149 42
150 74
151 157
152 147
153 78
154 54
155 62
156 38
157 20
165 64
166 350
167 169
168 110
169 14
170 3
171 1
182 0
183 88
184 66
185 101
186 24
197 32
226 101
227 23

$$$$

     RDKit          2D

 11 11  0  0  1  0  0  0  0  0999 V2000
   -2.2386    2.7951    0.0000 C   0  0  0  0  0  0  0  0  0  0  0  0
   -3.5376    0.5451    0.0000 C   0  0  0  0  0  0  0  0  0  0  0  0
    2.9576   -1.7049    0.0000 C   0  0  0  0  0  0  0  0  0  0  0  0
    0.3590   -1.7058    0.0000 C   0  0  0  0  0  0  0  0  0  0  0  0
   -0.9400   -0.9558    0.0000 C   0  0  0  0  0  0  0  0  0  0  0  0
    0.3600    1.2959    0.0000 C   0  0  0  0  0  0  0  0  0  0  0  0
   -2.2386    1.2951    0.0000 C   0  0  0  0  0  0  0  0  0  0  0  0
    1.6585   -0.9549    0.0000 C   0  0  0  0  0  0  0  0  0  0  0  0
   -0.9395    0.5451    0.0000 C   0  0  0  0  0  0  0  0  0  0  0  0
    1.6590    0.5459    0.0000 C   0  0  0  0  0  0  0  0  0  0  0  0
    2.9582    1.2957    0.0000 O   0  0  0  0  0  0  0  0  0  0  0  0
  5  4  1  0
  7  1  2  0
  7  2  1  0
  8  3  1  0
  8  4  2  0
  9  5  1  0
  9  6  1  0
  9  7  1  6
 10  6  1  0
 10  8  1  0
 10 11  1  6
M  END
>  <NAME>  (2461) 
L-CIS-CARVEOL

>  <SYNONYMS>  (2461) 


>  <SPECTRUM TYPE>  (2461) 
MS1

>  <INSTRUMENT TYPE>  (2461) 
EI-B

>  <INSTRUMENT>  (2461) 
HITACHI M-80B

>  <ION MODE>  (2461) 
P

>  <INCHIKEY>  (2461) 
BAVONGHXFVOKBV-UWVGGRQHSA-N

>  <FORMULA>  (2461) 
C10H16O

>  <EXACT MASS>  (2461) 
152.120115132

>  <MW>  (2461) 
152

>  <ID>  (2461) 
JP008537

>  <CONTRIBUTOR>  (2461) 
University of Tokyo Team, {Faculty of Engineering, University of Tokyo

>  <COMMENT>  (2461) 
SMILES=CC(=C)C(C1)CC(O)C(C)=C1
InChI=InChI=1S/C10H16O/c1-7(2)9-5-4-8(3)10(11)6-9/h4,9-11H,1,5-6H2,2-3H3/t9-,10-/m0/s1
computed SMILES=OC1C(=CCC(C(=C)C)C1)C
accession=JP008537
date=2016.01.19 (Created 2008.10.21, modified 2011.05.06)
author=SODA AROMATIC CO., LTD.
license=CC BY-NC-SA
exact mass=152.12012
ionization energy=70 eV
ion type=[M]+*
computed spectral entropy=3.6746354996952597
computed normalized entropy=0.862048196367443
SPLASH=splash10-001i-9200000000-d4716ca54826ec99b28b
submitter=submitter = University of Tokyo Team (Faculty of Engineering, University of Tokyo)
MoNA Rating=3.75

>  <NUM PEAKS>  (2461) 
71

>  <MASS SPECTRAL PEAKS>  (2461) 
15 1.58
18 2.32
26 1.24
27 23.13
28 3.92
29 15.04
31 2.76
38 2.31
39 37.55
40 5.78
41 49.58
42 4.36
43 28.18
44 3.55
45 2.31
50 2.6
51 9.12
52 3.3
53 22.91
54 4.59
55 42.02
56 19.11
57 3.72
59 2.25
62 1.03
63 3.42
64 1.01
65 9.63
66 4.3
67 20.82
68 7.2
69 33.75
70 2.25
71 2.5
72 2.3
77 18.45
78 4
79 21.69
80 20.84
81 22.06
82 9.12
83 39.67
84 99.99
85 4.98
91 21.04
92 12.76
93 21.81
94 18.67
95 21.78
96 5.5
97 5.16
103 1.49
105 8.6
106 4.21
107 4.9
108 6.66
109 51.68
110 5.94
111 1.68
115 1.12
117 1.25
119 22.16
120 1.91
121 2.29
123 10.5
124 2.14
134 48.13
135 5.15
137 9.78
138 1.02
152 3.19

>  <PREDICTED SPECTRUM>  (2461) 
26 34
27 279
28 33
29 172
31 82
37 22
38 91
39 574
40 247
41 925
42 286
43 773
44 184
45 92
46 23
49 31
50 189
51 372
52 269
53 605
54 301
55 664
56 321
57 348
58 94
59 173
60 122
61 54
62 99
63 216
64 116
65 433
66 319
67 794
68 440
69 605
70 300
71 321
72 136
73 38
74 46
75 80
76 27
77 626
78 301
79 810
80 414
81 794
82 462
83 390
84 308
85 92
86 8
88 4
89 98
90 54
91 863
92 450
93 815
94 570
95 522
96 407
97 289
98 101
103 117
104 79
105 531
106 256
107 609
108 553
109 999
110 332
111 83
112 20
115 95
116 32
117 221
118 55
119 846
120 257
121 136
122 67
123 346
124 238
125 73
133 169
134 551
135 196
136 47
137 409
138 123
150 39
151 36
152 558
153 166

$$$$

     RDKit          2D

 16 15  0  0  0  0  0  0  0  0999 V2000
    4.5466    7.8750    0.0000 C   0  0  0  0  0  0  0  0  0  0  0  0
  -13.6399    7.8750    0.0000 C   0  0  0  0  0  0  0  0  0  0  0  0
    3.2476    8.6250    0.0000 C   0  0  0  0  0  0  0  0  0  0  0  0
    1.9486    7.8750    0.0000 C   0  0  0  0  0  0  0  0  0  0  0  0
    0.6495    8.6250    0.0000 C   0  0  0  0  0  0  0  0  0  0  0  0
   -0.6495    7.8750    0.0000 C   0  0  0  0  0  0  0  0  0  0  0  0
   -1.9486    8.6250    0.0000 C   0  0  0  0  0  0  0  0  0  0  0  0
   -3.2476    7.8750    0.0000 C   0  0  0  0  0  0  0  0  0  0  0  0
   -4.5466    8.6250    0.0000 C   0  0  0  0  0  0  0  0  0  0  0  0
   -5.8457    7.8750    0.0000 C   0  0  0  0  0  0  0  0  0  0  0  0
   -7.1447    8.6250    0.0000 C   0  0  0  0  0  0  0  0  0  0  0  0
   -8.4437    7.8750    0.0000 C   0  0  0  0  0  0  0  0  0  0  0  0
   -9.7428    8.6250    0.0000 C   0  0  0  0  0  0  0  0  0  0  0  0
  -12.3409    8.6250    0.0000 C   0  0  0  0  0  0  0  0  0  0  0  0
  -12.3409   10.1250    0.0000 O   0  0  0  0  0  0  0  0  0  0  0  0
  -11.0418    7.8750    0.0000 O   0  0  0  0  0  0  0  0  0  0  0  0
  3  1  1  0
  4  3  1  0
  5  4  1  0
  6  5  1  0
  7  6  1  0
  8  7  1  0
  9  8  1  0
 10  9  1  0
 11 10  1  0
 11 12  2  0
 13 12  1  0
 14  2  1  0
 15 14  2  0
 16 13  1  0
 16 14  1  0
M  END
>  <NAME>  (2462) 
TRANS-2-DODECENYL ACETATE

>  <SYNONYMS>  (2462) 
ACETIC ACID TRANS-2-DODECENYL ESTER

>  <SPECTRUM TYPE>  (2462) 
MS1

>  <INSTRUMENT TYPE>  (2462) 
EI-B

>  <INSTRUMENT>  (2462) 
HITACHI M-80B

>  <ION MODE>  (2462) 
P

>  <INCHIKEY>  (2462) 
AMIUTTABDVIFDZ-VAWYXSNFSA-N

>  <FORMULA>  (2462) 
C14H26O2

>  <EXACT MASS>  (2462) 
226.193280072

>  <MW>  (2462) 
226

>  <ID>  (2462) 
JP008536

>  <CONTRIBUTOR>  (2462) 
University of Tokyo Team, {Faculty of Engineering, University of Tokyo

>  <COMMENT>  (2462) 
SMILES=CCCCCCCCCC=CCOC(C)=O
InChI=InChI=1S/C14H26O2/c1-3-4-5-6-7-8-9-10-11-12-13-16-14(2)15/h11-12H,3-10,13H2,1-2H3/b12-11+
computed SMILES=O=C(OCC=CCCCCCCCCC)C
accession=JP008536
date=2016.01.19 (Created 2008.10.21, modified 2011.05.06)
author=SODA AROMATIC CO., LTD.
license=CC BY-NC-SA
exact mass=226.19328
ionization energy=70 eV
ion type=[M]+*
computed spectral entropy=3.2261066587360627
computed normalized entropy=0.8246645416603284
SPLASH=splash10-0006-9100000000-7cff861bfa886e930e3c
submitter=submitter = University of Tokyo Team (Faculty of Engineering, University of Tokyo)
MoNA Rating=3.75

>  <NUM PEAKS>  (2462) 
50

>  <MASS SPECTRAL PEAKS>  (2462) 
15 1.59
27 6.87
29 13.05
39 7.35
41 24.21
42 5.49
43 99.99
44 2.3
53 4.78
54 24.75
55 21.46
56 5.29
57 12.94
58 2.22
61 1.38
66 1.97
67 16.36
68 14.23
69 12.14
70 4.81
71 7.08
72 2.56
73 1.17
79 1.83
80 1.39
81 16.32
82 20.45
83 8.33
84 2.09
85 1.93
86 1.45
95 10.92
96 16.71
97 4.88
99 2.29
100 3.89
109 5.93
110 4.95
111 1.39
113 2.22
114 4.16
115 1.69
123 1.85
124 3.12
137 1.22
138 7.84
155 1.67
166 3.21
183 1.13
184 4.28

>  <PREDICTED SPECTRUM>  (2462) 
15 30
26 23
27 151
28 48
29 210
30 57
31 22
38 16
39 153
40 75
41 551
42 248
43 999
44 195
45 80
51 33
52 59
53 198
54 411
55 519
56 252
57 413
58 162
59 119
60 73
61 142
65 70
66 161
67 463
68 443
69 375
70 286
71 334
72 148
73 114
74 14
77 24
78 2
79 143
80 109
81 465
82 496
83 369
84 197
85 229
86 126
87 59
88 8
91 11
93 20
94 51
95 355
96 469
97 249
98 140
99 139
100 130
101 127
102 52
103 7
107 7
108 38
109 260
110 241
111 202
112 93
113 154
114 120
115 108
116 28
123 169
124 169
125 77
126 33
127 101
128 97
129 11
137 128
138 179
139 72
140 74
141 83
151 51
155 120
156 86
166 174
167 56
168 4
169 30
170 2
183 48
184 200
185 71

$$$$

     RDKit          2D

 14 13  0  0  0  0  0  0  0  0999 V2000
    3.8971    6.7500    0.0000 C   0  0  0  0  0  0  0  0  0  0  0  0
  -11.6913    6.7500    0.0000 C   0  0  0  0  0  0  0  0  0  0  0  0
    2.5981    7.5000    0.0000 C   0  0  0  0  0  0  0  0  0  0  0  0
    1.2990    6.7500    0.0000 C   0  0  0  0  0  0  0  0  0  0  0  0
    0.0000    7.5000    0.0000 C   0  0  0  0  0  0  0  0  0  0  0  0
   -1.2990    6.7500    0.0000 C   0  0  0  0  0  0  0  0  0  0  0  0
   -2.5981    7.5000    0.0000 C   0  0  0  0  0  0  0  0  0  0  0  0
   -3.8971    6.7500    0.0000 C   0  0  0  0  0  0  0  0  0  0  0  0
   -5.1962    7.5000    0.0000 C   0  0  0  0  0  0  0  0  0  0  0  0
   -6.4952    6.7500    0.0000 C   0  0  0  0  0  0  0  0  0  0  0  0
   -7.7942    7.5000    0.0000 C   0  0  0  0  0  0  0  0  0  0  0  0
  -10.3923    7.5000    0.0000 C   0  0  0  0  0  0  0  0  0  0  0  0
  -10.3923    9.0000    0.0000 O   0  0  0  0  0  0  0  0  0  0  0  0
   -9.0933    6.7500    0.0000 O   0  0  0  0  0  0  0  0  0  0  0  0
  3  1  1  0
  4  3  1  0
  5  4  1  0
  6  5  1  0
  7  6  1  0
  8  7  1  0
  9  8  1  0
  9 10  2  0
 11 10  1  0
 12  2  1  0
 13 12  2  0
 14 11  1  0
 14 12  1  0
M  END
>  <NAME>  (2463) 
TRANS-2-DECENYL ACETATE

>  <SYNONYMS>  (2463) 
ACETIC ACID TRANS-2-DECENYL ESTER

>  <SPECTRUM TYPE>  (2463) 
MS1

>  <INSTRUMENT TYPE>  (2463) 
EI-B

>  <INSTRUMENT>  (2463) 
HITACHI M-80B

>  <ION MODE>  (2463) 
P

>  <INCHIKEY>  (2463) 
LUMRROIRFJRWNX-MDZDMXLPSA-N

>  <FORMULA>  (2463) 
C12H22O2

>  <EXACT MASS>  (2463) 
198.161979944

>  <MW>  (2463) 
198

>  <ID>  (2463) 
JP008535

>  <CONTRIBUTOR>  (2463) 
University of Tokyo Team, {Faculty of Engineering, University of Tokyo

>  <COMMENT>  (2463) 
SMILES=CCCCCCCC=CCOC(C)=O
InChI=InChI=1S/C12H22O2/c1-3-4-5-6-7-8-9-10-11-14-12(2)13/h9-10H,3-8,11H2,1-2H3/b10-9+
computed SMILES=O=C(OCC=CCCCCCCC)C
accession=JP008535
date=2016.01.19 (Created 2008.10.21, modified 2011.05.06)
author=SODA AROMATIC CO., LTD.
license=CC BY-NC-SA
exact mass=198.16198
ionization energy=70 eV
ion type=[M]+*
computed spectral entropy=3.0928793052210066
computed normalized entropy=0.8173161507285639
SPLASH=splash10-0006-9000000000-2bf61755f9bb11b3e414
submitter=submitter = University of Tokyo Team (Faculty of Engineering, University of Tokyo)
MoNA Rating=3.75

>  <NUM PEAKS>  (2463) 
44

>  <MASS SPECTRAL PEAKS>  (2463) 
15 2.28
27 9.25
29 11.2
39 8.59
40 1.24
41 23.99
42 4.93
43 99.99
44 2.4
53 5.61
54 26.33
55 22.34
56 5.45
57 9.68
58 1.86
61 1.51
66 1.72
67 16.67
68 13.49
69 8.19
70 2.66
71 6.13
72 2.3
73 1.19
79 1.5
81 13.24
82 13.14
83 6.89
84 1.56
85 1.46
86 1.44
95 9.08
96 13.29
97 2.58
99 2.22
100 4.01
109 5.02
110 9.76
113 2.09
114 3.65
127 1.36
138 5
155 1.18
156 5.14

>  <PREDICTED SPECTRUM>  (2463) 
14 8
15 51
25 0
26 53
27 242
28 99
29 309
30 98
31 37
32 9
38 23
39 236
40 112
41 524
42 235
43 999
44 198
45 72
50 12
51 45
52 73
53 233
54 458
55 455
56 220
57 356
58 154
59 29
60 43
61 118
65 67
66 171
67 459
68 459
69 285
70 237
71 289
72 141
73 128
74 51
75 7
77 21
79 108
80 97
81 504
82 455
83 298
84 124
85 215
86 117
87 76
88 2
95 373
96 447
97 212
98 64
99 167
100 114
101 51
109 230
110 255
111 133
112 90
113 130
114 56
115 27
123 90
125 5
126 17
127 170
128 130
129 13
137 27
138 200
139 51
141 44
142 10
155 73
156 203
157 57

$$$$

     RDKit          2D

 13 12  0  0  0  0  0  0  0  0999 V2000
    3.5724    6.5625    0.0000 C   0  0  0  0  0  0  0  0  0  0  0  0
  -10.7171    7.3125    0.0000 C   0  0  0  0  0  0  0  0  0  0  0  0
    2.2733    7.3125    0.0000 C   0  0  0  0  0  0  0  0  0  0  0  0
    0.9743    6.5625    0.0000 C   0  0  0  0  0  0  0  0  0  0  0  0
   -0.3248    7.3125    0.0000 C   0  0  0  0  0  0  0  0  0  0  0  0
   -1.6238    6.5625    0.0000 C   0  0  0  0  0  0  0  0  0  0  0  0
   -2.9228    7.3125    0.0000 C   0  0  0  0  0  0  0  0  0  0  0  0
   -4.2219    6.5625    0.0000 C   0  0  0  0  0  0  0  0  0  0  0  0
   -5.5209    7.3125    0.0000 C   0  0  0  0  0  0  0  0  0  0  0  0
   -6.8200    6.5625    0.0000 C   0  0  0  0  0  0  0  0  0  0  0  0
   -9.4180    6.5625    0.0000 C   0  0  0  0  0  0  0  0  0  0  0  0
   -9.4180    5.0625    0.0000 O   0  0  0  0  0  0  0  0  0  0  0  0
   -8.1190    7.3125    0.0000 O   0  0  0  0  0  0  0  0  0  0  0  0
  3  1  1  0
  4  3  1  0
  5  4  1  0
  6  5  1  0
  7  6  1  0
  8  7  1  0
  8  9  2  0
 10  9  1  0
 11  2  1  0
 12 11  2  0
 13 10  1  0
 13 11  1  0
M  END
>  <NAME>  (2464) 
TRANS-2-NONENYL ACETATE

>  <SYNONYMS>  (2464) 
ACETIC ACID TRANS-2-NONENYL ESTER

>  <SPECTRUM TYPE>  (2464) 
MS1

>  <INSTRUMENT TYPE>  (2464) 
EI-B

>  <INSTRUMENT>  (2464) 
HITACHI M-80B

>  <ION MODE>  (2464) 
P

>  <INCHIKEY>  (2464) 
WFCCNPHGLLPSDJ-CMDGGOBGSA-N

>  <FORMULA>  (2464) 
C11H20O2

>  <EXACT MASS>  (2464) 
184.14632988

>  <MW>  (2464) 
184

>  <ID>  (2464) 
JP008534

>  <CONTRIBUTOR>  (2464) 
University of Tokyo Team, {Faculty of Engineering, University of Tokyo

>  <COMMENT>  (2464) 
SMILES=CCCCCCC=CCOC(C)=O
InChI=InChI=1S/C11H20O2/c1-3-4-5-6-7-8-9-10-13-11(2)12/h8-9H,3-7,10H2,1-2H3/b9-8+
computed SMILES=O=C(OCC=CCCCCCC)C
accession=JP008534
author=SODA AROMATIC CO., LTD.
date=2016.01.19 (Created 2008.10.21, modified 2011.05.06)
license=CC BY-NC-SA
exact mass=184.14633
ionization energy=70 eV
ion type=[M]+*
computed spectral entropy=3.0223587067404254
computed normalized entropy=0.808621150450566
SPLASH=splash10-0006-9000000000-363b5158324756197ef1
submitter=submitter = University of Tokyo Team (Faculty of Engineering, University of Tokyo)
MoNA Rating=3.75

>  <NUM PEAKS>  (2464) 
42

>  <MASS SPECTRAL PEAKS>  (2464) 
15 2.28
27 9.51
29 12.08
39 10.25
40 1.47
41 22.86
42 5.5
43 99.99
44 2.71
53 4.82
54 30.11
55 19.04
56 4.32
57 9.24
58 1.88
61 1.62
66 1.76
67 16.07
68 13.83
69 9.79
70 2.91
71 6.13
72 2.76
73 1.02
79 1.46
81 12.94
82 16.36
83 5.18
84 1.02
85 1.38
86 1.54
95 10.95
96 11.5
97 1.07
99 2.47
100 3.68
109 1.31
113 2.72
114 2.7
124 7.19
141 1.59
142 5.63

>  <PREDICTED SPECTRUM>  (2464) 
14 17
15 93
25 2
26 76
27 299
28 110
29 331
30 72
31 23
32 8
37 2
38 43
39 297
40 135
41 515
42 237
43 999
44 195
45 57
50 31
51 66
52 97
53 257
54 510
55 414
56 155
57 300
58 145
59 46
60 69
61 112
62 21
63 7
65 101
66 207
67 503
68 499
69 253
70 203
71 289
72 120
73 119
74 19
77 57
78 15
79 95
80 44
81 563
82 444
83 255
84 59
85 193
86 105
87 18
93 28
94 1
95 356
96 473
97 185
98 85
99 175
100 98
101 29
109 106
112 9
113 211
114 131
115 23
123 48
124 239
125 61
127 56
128 61
141 115
142 226
143 51
155 5

$$$$

     RDKit          2D

 11 10  0  0  0  0  0  0  0  0999 V2000
    2.9228    5.4375    0.0000 C   0  0  0  0  0  0  0  0  0  0  0  0
   -8.7685    6.1875    0.0000 C   0  0  0  0  0  0  0  0  0  0  0  0
    1.6238    6.1875    0.0000 C   0  0  0  0  0  0  0  0  0  0  0  0
    0.3248    5.4375    0.0000 C   0  0  0  0  0  0  0  0  0  0  0  0
   -0.9743    6.1875    0.0000 C   0  0  0  0  0  0  0  0  0  0  0  0
   -2.2733    5.4375    0.0000 C   0  0  0  0  0  0  0  0  0  0  0  0
   -3.5724    6.1875    0.0000 C   0  0  0  0  0  0  0  0  0  0  0  0
   -4.8714    5.4375    0.0000 C   0  0  0  0  0  0  0  0  0  0  0  0
   -7.4695    5.4375    0.0000 C   0  0  0  0  0  0  0  0  0  0  0  0
   -7.4695    3.9375    0.0000 O   0  0  0  0  0  0  0  0  0  0  0  0
   -6.1704    6.1875    0.0000 O   0  0  0  0  0  0  0  0  0  0  0  0
  3  1  1  0
  4  3  1  0
  5  4  1  0
  6  5  1  0
  6  7  2  0
  8  7  1  0
  9  2  1  0
 10  9  2  0
 11  8  1  0
 11  9  1  0
M  END
>  <NAME>  (2465) 
TRANS-2-HEPTENYL ACETATE

>  <SYNONYMS>  (2465) 
ACETIC ACID TRANS-2-HEPTENYL ESTER

>  <SPECTRUM TYPE>  (2465) 
MS1

>  <INSTRUMENT TYPE>  (2465) 
EI-B

>  <INSTRUMENT>  (2465) 
HITACHI M-80B

>  <ION MODE>  (2465) 
P

>  <INCHIKEY>  (2465) 
AWCPMVVOGVEPRC-VOTSOKGWSA-N

>  <FORMULA>  (2465) 
C9H16O2

>  <EXACT MASS>  (2465) 
156.115029752

>  <MW>  (2465) 
156

>  <ID>  (2465) 
JP008533

>  <CONTRIBUTOR>  (2465) 
University of Tokyo Team, {Faculty of Engineering, University of Tokyo

>  <COMMENT>  (2465) 
SMILES=CCCCC=CCOC(C)=O
InChI=InChI=1S/C9H16O2/c1-3-4-5-6-7-8-11-9(2)10/h6-7H,3-5,8H2,1-2H3/b7-6+
computed SMILES=O=C(OCC=CCCCC)C
accession=JP008533
date=2016.01.19 (Created 2008.10.21, modified 2011.05.06)
author=SODA AROMATIC CO., LTD.
license=CC BY-NC-SA
exact mass=156.11503
ionization energy=70 eV
ion type=[M]+*
computed spectral entropy=2.714348174543015
computed normalized entropy=0.7831953301318436
SPLASH=splash10-0006-9000000000-0d9b135bf773498753dd
submitter=submitter = University of Tokyo Team (Faculty of Engineering, University of Tokyo)
MoNA Rating=3.75

>  <NUM PEAKS>  (2465) 
32

>  <MASS SPECTRAL PEAKS>  (2465) 
15 3.59
27 10.79
29 6.16
39 12.19
40 1.54
41 18.51
42 4.77
43 99.99
44 3.14
53 5.16
54 29.61
55 22.11
56 1.93
57 9.59
58 1.79
61 1.58
67 13.12
68 6.41
69 1.95
70 2.7
71 5.66
72 3.26
81 16.22
85 1.56
86 1.26
95 2.11
96 15.72
97 2.99
99 1.78
100 1.88
113 2.9
114 11.15

>  <PREDICTED SPECTRUM>  (2465) 
14 44
15 121
16 7
25 12
26 140
27 439
28 181
29 424
30 103
31 115
32 21
37 45
38 107
39 422
40 181
41 525
42 243
43 999
44 206
45 75
50 98
51 144
52 108
53 294
54 453
55 416
56 115
57 302
58 93
60 7
61 53
62 53
63 19
65 90
66 190
67 532
68 459
69 110
70 163
71 313
72 152
73 81
77 104
78 11
79 131
81 375
82 22
83 0
84 20
85 188
86 102
95 195
96 469
97 117
99 83
100 59
101 0
102 12
113 164
114 263
115 29
127 63

$$$$

     RDKit          2D

  8  7  0  0  0  0  0  0  0  0999 V2000
    1.6238    3.1875    0.0000 C   0  0  0  0  0  0  0  0  0  0  0  0
   -0.9743    1.6875    0.0000 C   0  0  0  0  0  0  0  0  0  0  0  0
   -4.8714    3.9375    0.0000 C   0  0  0  0  0  0  0  0  0  0  0  0
    0.3248    3.9375    0.0000 C   0  0  0  0  0  0  0  0  0  0  0  0
   -0.9743    3.1875    0.0000 C   0  0  0  0  0  0  0  0  0  0  0  0
   -3.5724    3.1875    0.0000 C   0  0  0  0  0  0  0  0  0  0  0  0
   -3.5724    1.6875    0.0000 O   0  0  0  0  0  0  0  0  0  0  0  0
   -2.2733    3.9375    0.0000 O   0  0  0  0  0  0  0  0  0  0  0  0
  4  1  1  0
  5  2  1  0
  5  4  1  0
  6  3  1  0
  7  6  2  0
  8  5  1  0
  8  6  1  0
M  END
>  <NAME>  (2466) 
SEC-BUTYL ACETATE

>  <SYNONYMS>  (2466) 
ACETIC ACID 1-METHYLPROPYL ESTER

>  <SPECTRUM TYPE>  (2466) 
MS1

>  <INSTRUMENT TYPE>  (2466) 
EI-B

>  <INSTRUMENT>  (2466) 
HITACHI M-80B

>  <ION MODE>  (2466) 
P

>  <INCHIKEY>  (2466) 
DCKVNWZUADLDEH-UHFFFAOYSA-N

>  <FORMULA>  (2466) 
C6H12O2

>  <EXACT MASS>  (2466) 
116.083729624

>  <MW>  (2466) 
116

>  <ID>  (2466) 
JP008532

>  <CONTRIBUTOR>  (2466) 
University of Tokyo Team, {Faculty of Engineering, University of Tokyo

>  <COMMENT>  (2466) 
SMILES=CCC(C)OC(C)=O
InChI=InChI=1S/C6H12O2/c1-4-5(2)8-6(3)7/h5H,4H2,1-3H3
computed SMILES=O=C(OC(C)CC)C
accession=JP008532
date=2016.01.19 (Created 2008.10.21, modified 2011.05.06)
author=SODA AROMATIC CO., LTD.
license=CC BY-NC-SA
exact mass=116.08373
ionization energy=70 eV
ion type=[M]+*
computed spectral entropy=1.9750492588083648
computed normalized entropy=0.6971057308309699
SPLASH=splash10-0006-9000000000-e1a3e83cd1aa51bf49ee
submitter=submitter = University of Tokyo Team (Faculty of Engineering, University of Tokyo)
MoNA Rating=3.75

>  <NUM PEAKS>  (2466) 
17

>  <MASS SPECTRAL PEAKS>  (2466) 
15 3.71
27 6.01
28 1.47
29 8.61
39 3.58
41 11.66
42 2.39
43 99.99
44 2.85
45 2.63
55 2.38
56 19.36
57 8.08
61 5.2
73 5.37
87 18.85
101 3.77

>  <PREDICTED SPECTRUM>  (2466) 
14 60
15 149
16 16
18 4
26 101
27 299
28 147
29 402
31 168
32 17
33 26
37 7
38 26
39 253
40 124
41 661
42 209
43 999
44 188
45 282
53 61
54 43
55 171
56 471
57 816
58 145
59 479
60 180
61 277
62 37
73 177
74 0
87 546
88 90
101 46

$$$$

     RDKit          2D

 15 14  0  0  0  0  0  0  0  0999 V2000
    4.2219    7.6875    0.0000 C   0  0  0  0  0  0  0  0  0  0  0  0
  -12.6656    8.4375    0.0000 C   0  0  0  0  0  0  0  0  0  0  0  0
    2.9228    8.4375    0.0000 C   0  0  0  0  0  0  0  0  0  0  0  0
    1.6238    7.6875    0.0000 C   0  0  0  0  0  0  0  0  0  0  0  0
    0.3248    8.4375    0.0000 C   0  0  0  0  0  0  0  0  0  0  0  0
   -0.9743    7.6875    0.0000 C   0  0  0  0  0  0  0  0  0  0  0  0
   -2.2733    8.4375    0.0000 C   0  0  0  0  0  0  0  0  0  0  0  0
   -3.5724    7.6875    0.0000 C   0  0  0  0  0  0  0  0  0  0  0  0
   -4.8714    8.4375    0.0000 C   0  0  0  0  0  0  0  0  0  0  0  0
   -6.1704    7.6875    0.0000 C   0  0  0  0  0  0  0  0  0  0  0  0
   -7.4695    8.4375    0.0000 C   0  0  0  0  0  0  0  0  0  0  0  0
   -8.7685    7.6875    0.0000 C   0  0  0  0  0  0  0  0  0  0  0  0
  -11.3666    7.6875    0.0000 C   0  0  0  0  0  0  0  0  0  0  0  0
  -11.3666    6.1875    0.0000 O   0  0  0  0  0  0  0  0  0  0  0  0
  -10.0675    8.4375    0.0000 O   0  0  0  0  0  0  0  0  0  0  0  0
  3  1  1  0
  4  3  1  0
  5  4  1  0
  6  5  1  0
  7  6  1  0
  8  7  1  0
  9  8  1  0
 10  9  1  0
 11 10  1  0
 12 11  1  0
 13  2  1  0
 14 13  2  0
 15 12  1  0
 15 13  1  0
M  END
>  <NAME>  (2467) 
UNDECYL ACETATE

>  <SYNONYMS>  (2467) 
ACETIC ACID UNDECYL ESTER

>  <SPECTRUM TYPE>  (2467) 
MS1

>  <INSTRUMENT TYPE>  (2467) 
EI-B

>  <INSTRUMENT>  (2467) 
HITACHI M-80B

>  <ION MODE>  (2467) 
P

>  <INCHIKEY>  (2467) 
CKQGCFFDQIFZFA-UHFFFAOYSA-N

>  <FORMULA>  (2467) 
C13H26O2

>  <EXACT MASS>  (2467) 
214.193280072

>  <MW>  (2467) 
214

>  <ID>  (2467) 
JP008531

>  <CONTRIBUTOR>  (2467) 
University of Tokyo Team, {Faculty of Engineering, University of Tokyo

>  <COMMENT>  (2467) 
SMILES=CCCCCCCCCCCOC(C)=O
InChI=InChI=1S/C13H26O2/c1-3-4-5-6-7-8-9-10-11-12-15-13(2)14/h3-12H2,1-2H3
computed SMILES=O=C(OCCCCCCCCCCC)C
accession=JP008531
date=2016.01.19 (Created 2008.10.21, modified 2011.05.06)
author=SODA AROMATIC CO., LTD.
license=CC BY-NC-SA
exact mass=214.19328
ionization energy=70 eV
ion type=[M]+*
computed spectral entropy=3.1230794285766272
computed normalized entropy=0.8466200827174458
SPLASH=splash10-052f-9000000000-d3b2c7d92e9063a1785c
submitter=submitter = University of Tokyo Team (Faculty of Engineering, University of Tokyo)
MoNA Rating=3.75

>  <NUM PEAKS>  (2467) 
40

>  <MASS SPECTRAL PEAKS>  (2467) 
15 2.52
27 8.93
28 1.84
29 14.87
39 5.54
40 1.19
41 33.79
42 12.67
43 99.99
44 2.91
53 2.3
54 4.56
55 36.57
56 31.73
57 23.07
58 2.68
61 31.84
67 4.42
68 10.86
69 32.54
70 29.35
71 9.39
73 4.35
81 1.86
82 13.5
83 28.13
84 20.43
85 3.71
96 3.73
97 20.63
98 11.61
99 1.04
110 1.42
111 7.78
112 3.85
116 3.64
125 3.29
126 10.56
127 1.14
154 6.12

>  <PREDICTED SPECTRUM>  (2467) 
15 7
26 33
27 171
28 95
29 271
30 25
31 75
33 5
37 29
38 30
39 226
40 104
41 613
42 418
43 999
44 212
45 93
47 32
49 18
52 24
53 155
54 290
55 675
56 652
57 631
58 111
59 58
60 90
61 535
62 82
65 31
66 70
67 296
68 421
69 620
70 581
71 436
72 107
73 263
74 103
75 33
79 26
80 5
81 201
82 403
83 591
84 457
85 258
86 97
87 22
88 22
90 12
95 180
96 348
97 515
98 343
99 127
100 6
101 24
102 8
109 27
110 129
111 357
112 241
113 128
114 20
115 9
116 52
123 5
124 102
125 171
126 253
127 37
137 13
141 8
154 177
155 112
157 10

$$$$

     RDKit          2D

 11 11  0  0  0  0  0  0  0  0999 V2000
   -2.5989   -1.5002    0.0000 C   0  0  0  0  0  0  0  0  0  0  0  0
   -1.3000    0.7500    0.0000 C   0  0  0  0  0  0  0  0  0  0  0  0
   -0.0000   -1.5000    0.0000 C   0  0  0  0  0  0  0  0  0  0  0  0
    0.0000    1.5000    0.0000 C   0  0  0  0  0  0  0  0  0  0  0  0
    1.3000   -0.7500    0.0000 C   0  0  0  0  0  0  0  0  0  0  0  0
    2.5989    1.5002    0.0000 C   0  0  0  0  0  0  0  0  0  0  0  0
    5.1970    1.5006    0.0000 C   0  0  0  0  0  0  0  0  0  0  0  0
   -1.3000   -0.7500    0.0000 C   0  0  0  0  0  0  0  0  0  0  0  0
    1.3000    0.7500    0.0000 C   0  0  0  0  0  0  0  0  0  0  0  0
    6.4962    0.7508    0.0000 O   0  0  0  0  0  0  0  0  0  0  0  0
    3.8981    0.7504    0.0000 O   0  0  0  0  0  0  0  0  0  0  0  0
  4  2  2  0
  5  3  1  0
  8  1  1  0
  8  2  1  0
  8  3  2  0
  9  4  1  0
  9  5  2  0
  9  6  1  0
 10  7  2  0
 11  6  1  0
 11  7  1  0
M  END
>  <NAME>  (2468) 
PARA-METHYLBENZYL FORMATE

>  <SYNONYMS>  (2468) 
FORMIC ACID PARA-METHYLBENZYL ESTER

>  <SPECTRUM TYPE>  (2468) 
MS1

>  <INSTRUMENT TYPE>  (2468) 
EI-B

>  <INSTRUMENT>  (2468) 
HITACHI M-80B

>  <ION MODE>  (2468) 
P

>  <INCHIKEY>  (2468) 
MWCCNIVWHAWABQ-UHFFFAOYSA-N

>  <FORMULA>  (2468) 
C9H10O2

>  <EXACT MASS>  (2468) 
150.06807956

>  <MW>  (2468) 
150

>  <ID>  (2468) 
JP008530

>  <CONTRIBUTOR>  (2468) 
University of Tokyo Team, {Faculty of Engineering, University of Tokyo

>  <COMMENT>  (2468) 
SMILES=O=COCc(c1)ccc(C)c1
InChI=InChI=1S/C9H10O2/c1-8-2-4-9(5-3-8)6-11-7-10/h2-5,7H,6H2,1H3
computed SMILES=O=COCC1=CC=C(C=C1)C
accession=JP008530
date=2016.01.19 (Created 2008.10.21, modified 2011.05.06)
author=SODA AROMATIC CO., LTD.
license=CC BY-NC-SA
exact mass=150.06808
ionization energy=70 eV
ion type=[M]+*
computed spectral entropy=2.896645626415261
computed normalized entropy=0.7852372685111314
SPLASH=splash10-0zfr-5900000000-5fcd73d048c2ef5274d1
submitter=submitter = University of Tokyo Team (Faculty of Engineering, University of Tokyo)
MoNA Rating=3.75

>  <NUM PEAKS>  (2468) 
40

>  <MASS SPECTRAL PEAKS>  (2468) 
27 6.9
29 13.38
31 1.56
38 1.6
39 14.07
40 1.24
41 3.12
50 5.49
51 12.19
52 3.97
53 4.19
62 2.59
63 8.66
64 1.72
65 13.37
66 1.12
74 1.42
75 1.13
76 1.27
77 29.92
78 24.93
79 19.88
80 1.01
89 4.31
90 1.36
91 19.61
92 1.82
93 6.46
102 1.86
103 24.14
104 80.54
105 99.99
106 8.37
107 18.56
108 1.19
119 3.17
121 5.48
122 9.63
150 65.28
151 6.84

>  <PREDICTED SPECTRUM>  (2468) 
14 3
15 19
26 57
27 183
28 87
29 162
30 19
31 26
32 13
37 19
38 70
39 227
40 63
41 41
44 62
45 12
49 11
50 179
51 303
52 197
53 178
54 30
55 42
58 8
61 60
62 108
63 203
64 108
65 302
66 147
67 58
68 2
74 107
75 143
76 129
77 557
78 415
79 387
80 45
83 33
86 56
87 8
89 249
90 109
91 345
92 140
93 204
94 113
102 208
103 498
104 776
105 999
106 334
107 345
108 104
109 1
119 141
120 46
121 312
122 368
123 123
132 13
133 10
135 53
136 16
150 671
151 248
152 78

$$$$

     RDKit          2D

 10  9  0  0  0  0  0  0  0  0999 V2000
    0.0000    0.0000    0.0000 C   0  0  0  0  0  0  0  0  0  0  0  0
   -3.8971    6.7500    0.0000 C   0  0  0  0  0  0  0  0  0  0  0  0
    0.0000    1.5000    0.0000 C   0  0  0  0  0  0  0  0  0  0  0  0
   -2.5981    6.0000    0.0000 C   0  0  0  0  0  0  0  0  0  0  0  0
   -1.2990    2.2500    0.0000 C   0  0  0  0  0  0  0  0  0  0  0  0
   -1.2990    3.7500    0.0000 C   0  0  0  0  0  0  0  0  0  0  0  0
   -5.1962    4.5000    0.0000 C   0  0  0  0  0  0  0  0  0  0  0  0
   -2.5981    4.5000    0.0000 C   0  0  0  0  0  0  0  0  0  0  0  0
   -6.4952    3.7500    0.0000 O   0  0  0  0  0  0  0  0  0  0  0  0
   -3.8971    3.7500    0.0000 O   0  0  0  0  0  0  0  0  0  0  0  0
  3  1  1  0
  4  2  1  0
  5  3  1  0
  6  5  1  0
  8  4  1  0
  8  6  1  0
  9  7  2  0
 10  7  1  0
 10  8  1  0
M  END
>  <NAME>  (2469) 
3-HEPTYL FORMATE

>  <SYNONYMS>  (2469) 
FORMIC ACID 1-ETHYLPENTYL ESTER

>  <SPECTRUM TYPE>  (2469) 
MS1

>  <INSTRUMENT TYPE>  (2469) 
EI-B

>  <INSTRUMENT>  (2469) 
HITACHI M-80B

>  <ION MODE>  (2469) 
P

>  <INCHIKEY>  (2469) 
RJJVYSJFEOFICB-UHFFFAOYSA-N

>  <FORMULA>  (2469) 
C8H16O2

>  <EXACT MASS>  (2469) 
144.115029752

>  <MW>  (2469) 
144

>  <ID>  (2469) 
JP008529

>  <CONTRIBUTOR>  (2469) 
University of Tokyo Team, {Faculty of Engineering, University of Tokyo

>  <COMMENT>  (2469) 
SMILES=CCCCC(CC)OC=O
InChI=InChI=1S/C8H16O2/c1-3-5-6-8(4-2)10-7-9/h7-8H,3-6H2,1-2H3
computed SMILES=O=COC(CC)CCCC
accession=JP008529
date=2016.01.19 (Created 2008.10.21, modified 2011.05.06)
author=SODA AROMATIC CO., LTD.
license=CC BY-NC-SA
exact mass=144.11503
ionization energy=70 eV
ion type=[M]+*
computed spectral entropy=2.9070630046026276
computed normalized entropy=0.8050759045014751
SPLASH=splash10-0aor-9000000000-de59c75b0a313afa42b0
submitter=submitter = University of Tokyo Team (Faculty of Engineering, University of Tokyo)
MoNA Rating=3.75

>  <NUM PEAKS>  (2469) 
37

>  <MASS SPECTRAL PEAKS>  (2469) 
15 1.45
18 4.77
26 1.52
27 24.62
28 3.39
29 30.06
30 1.5
31 31.58
39 14.75
40 1.73
41 70.05
42 7.62
43 23.63
44 3.88
45 8.08
46 1.02
53 2.4
54 2.89
55 22.84
56 36.43
57 32.33
58 6.62
59 87.51
60 2.61
67 1.69
68 2.31
69 99.99
70 24.95
71 1.56
83 3.24
85 1.89
86 2.45
87 38.15
88 1.77
98 30.17
99 3.93
115 13.42

>  <PREDICTED SPECTRUM>  (2469) 
15 3
19 1
25 1
26 83
27 395
28 182
29 532
30 196
31 342
32 2
33 34
36 2
37 13
38 71
39 341
40 152
41 774
42 420
43 532
44 230
45 384
46 53
47 133
50 29
51 72
52 21
53 212
54 194
55 613
56 522
57 598
58 258
59 803
60 31
67 63
68 138
69 999
70 531
71 115
72 65
83 139
84 22
85 173
86 160
87 727
88 176
89 28
97 12
98 504
99 243
100 5
114 17
115 407
116 47

$$$$

     RDKit          2D

 17 17  0  0  0  0  0  0  0  0999 V2000
   -6.4952   12.3200    0.0000 C   0  0  0  0  0  0  0  0  0  0  0  0
   -5.1962   11.5700    0.0000 C   0  0  0  0  0  0  0  0  0  0  0  0
   -5.1962   10.0700    0.0000 C   0  0  0  0  0  0  0  0  0  0  0  0
   -3.8971    9.3200    0.0000 C   0  0  0  0  0  0  0  0  0  0  0  0
    7.7942   11.5700    0.0000 C   0  0  0  0  0  0  0  0  0  0  0  0
    7.7947   10.0692    0.0000 C   0  0  0  0  0  0  0  0  0  0  0  0
    6.4947   12.3208    0.0000 C   0  0  0  0  0  0  0  0  0  0  0  0
   -2.5981   10.0700    0.0000 C   0  0  0  0  0  0  0  0  0  0  0  0
    6.4957    9.3192    0.0000 C   0  0  0  0  0  0  0  0  0  0  0  0
    5.1957   11.5708    0.0000 C   0  0  0  0  0  0  0  0  0  0  0  0
    3.8971    9.3200    0.0000 C   0  0  0  0  0  0  0  0  0  0  0  0
    2.5981   10.0700    0.0000 C   0  0  0  0  0  0  0  0  0  0  0  0
   -1.2990    9.3200    0.0000 C   0  0  0  0  0  0  0  0  0  0  0  0
    5.1962   10.0700    0.0000 C   0  0  0  0  0  0  0  0  0  0  0  0
    1.2990    9.3200    0.0000 C   0  0  0  0  0  0  0  0  0  0  0  0
    1.2990    7.8200    0.0000 O   0  0  0  0  0  0  0  0  0  0  0  0
    0.0000   10.0700    0.0000 O   0  0  0  0  0  0  0  0  0  0  0  0
  2  1  1  0
  3  2  1  0
  3  4  2  0
  6  5  2  0
  7  5  1  0
  8  4  1  0
  9  6  1  0
 10  7  2  0
 11 12  2  0
 13  8  1  0
 14  9  2  0
 14 10  1  0
 14 11  1  0
 15 12  1  0
 16 15  2  0
 17 13  1  0
 17 15  1  0
M  END
>  <NAME>  (2470) 
CIS-3-HEXENYL 3-PHENYLPROPENOATE

>  <SYNONYMS>  (2470) 
CIS-3-HEXENYL CINNAMATE

>  <SPECTRUM TYPE>  (2470) 
MS1

>  <INSTRUMENT TYPE>  (2470) 
EI-B

>  <INSTRUMENT>  (2470) 
HITACHI M-80B

>  <ION MODE>  (2470) 
P

>  <INCHIKEY>  (2470) 
FKWGVMQNGUQXDN-FECXASIGSA-N

>  <FORMULA>  (2470) 
C15H18O2

>  <EXACT MASS>  (2470) 
230.130679816

>  <MW>  (2470) 
230

>  <ID>  (2470) 
JP008528

>  <CONTRIBUTOR>  (2470) 
University of Tokyo Team, {Faculty of Engineering, University of Tokyo

>  <COMMENT>  (2470) 
SMILES=CCC=CCCOC(=O)C=Cc(c1)cccc1
InChI=InChI=1S/C15H18O2/c1-2-3-4-8-13-17-15(16)12-11-14-9-6-5-7-10-14/h3-7,9-12H,2,8,13H2,1H3/b4-3-,12-11+
computed SMILES=O=C(OCCC=CCC)C=CC=1C=CC=CC1
accession=JP008528
date=2016.01.19 (Created 2008.10.21, modified 2011.05.06)
author=SODA AROMATIC CO., LTD.
license=CC BY-NC-SA
exact mass=230.13068
ionization energy=70 eV
ion type=[M]+*
computed spectral entropy=2.5894195240768827
computed normalized entropy=0.7471485412333557
SPLASH=splash10-001i-9500000000-066414433e78dcbf98fe
submitter=submitter = University of Tokyo Team (Faculty of Engineering, University of Tokyo)
MoNA Rating=3.75

>  <NUM PEAKS>  (2470) 
32

>  <MASS SPECTRAL PEAKS>  (2470) 
27 8.06
29 2.14
39 10.6
41 20.51
42 1.67
50 2.81
51 12.28
52 1.79
53 5.04
55 7.43
63 1.75
65 1.21
67 48.58
68 2.22
74 1.18
75 1.72
76 2.82
77 33.49
78 2.19
79 1.31
81 3.21
82 99.99
83 6.02
92 1.13
102 9.21
103 45.81
104 3.52
131 90.4
132 8.36
147 6.77
148 5.52
149 11.26

>  <PREDICTED SPECTRUM>  (2470) 
26 97
27 233
29 199
31 8
37 41
38 91
39 340
40 137
41 345
42 106
43 144
44 23
45 47
50 194
51 306
52 196
53 329
54 369
55 309
56 96
57 139
58 11
62 94
63 201
64 78
65 303
66 170
67 861
68 124
69 28
70 29
71 8
74 42
75 158
76 132
77 387
78 125
79 3
81 382
82 999
83 381
89 126
90 26
91 194
92 31
97 2
99 136
102 149
103 424
104 296
105 93
115 158
116 60
117 294
130 95
131 629
132 256
148 40
149 74

$$$$

     RDKit          2D

 16 16  0  0  0  0  0  0  0  0999 V2000
    4.8721    3.8829    0.0000 C   0  0  0  0  0  0  0  0  0  0  0  0
    3.5731    1.6329    0.0000 C   0  0  0  0  0  0  0  0  0  0  0  0
   -8.1183    5.3829    0.0000 C   0  0  0  0  0  0  0  0  0  0  0  0
   -8.1187    3.8821    0.0000 C   0  0  0  0  0  0  0  0  0  0  0  0
   -6.8187    6.1337    0.0000 C   0  0  0  0  0  0  0  0  0  0  0  0
   -6.8197    3.1321    0.0000 C   0  0  0  0  0  0  0  0  0  0  0  0
   -5.5197    5.3837    0.0000 C   0  0  0  0  0  0  0  0  0  0  0  0
   -4.2212    3.1329    0.0000 C   0  0  0  0  0  0  0  0  0  0  0  0
   -2.9221    3.8829    0.0000 C   0  0  0  0  0  0  0  0  0  0  0  0
    2.2740    3.8829    0.0000 C   0  0  0  0  0  0  0  0  0  0  0  0
    0.9750    3.1329    0.0000 C   0  0  0  0  0  0  0  0  0  0  0  0
    3.5731    3.1329    0.0000 C   0  0  0  0  0  0  0  0  0  0  0  0
   -5.5202    3.8829    0.0000 C   0  0  0  0  0  0  0  0  0  0  0  0
   -1.6231    3.1329    0.0000 C   0  0  0  0  0  0  0  0  0  0  0  0
   -1.6231    1.6329    0.0000 O   0  0  0  0  0  0  0  0  0  0  0  0
   -0.3240    3.8829    0.0000 O   0  0  0  0  0  0  0  0  0  0  0  0
  4  3  2  0
  5  3  1  0
  6  4  1  0
  7  5  2  0
  8  9  2  0
 11 10  1  0
 12  1  1  0
 12  2  1  0
 12 10  1  0
 13  6  2  0
 13  7  1  0
 13  8  1  0
 14  9  1  0
 15 14  2  0
 16 11  1  0
 16 14  1  0
M  END
>  <NAME>  (2471) 
3-METHYLBUTYL 3-PHENYLPROPENOATE

>  <SYNONYMS>  (2471) 
ISOAMYL CINNAMATE

>  <SPECTRUM TYPE>  (2471) 
MS1

>  <INSTRUMENT TYPE>  (2471) 
EI-B

>  <INSTRUMENT>  (2471) 
HITACHI M-80B

>  <ION MODE>  (2471) 
P

>  <INCHIKEY>  (2471) 
JFHCDEYLWGVZMX-CMDGGOBGSA-N

>  <FORMULA>  (2471) 
C14H18O2

>  <EXACT MASS>  (2471) 
218.130679816

>  <MW>  (2471) 
218

>  <ID>  (2471) 
JP008527

>  <CONTRIBUTOR>  (2471) 
University of Tokyo Team, {Faculty of Engineering, University of Tokyo

>  <COMMENT>  (2471) 
SMILES=CC(C)CCOC(=O)C=Cc(c1)cccc1
InChI=InChI=1S/C14H18O2/c1-12(2)10-11-16-14(15)9-8-13-6-4-3-5-7-13/h3-9,12H,10-11H2,1-2H3/b9-8+
computed SMILES=O=C(OCCC(C)C)C=CC=1C=CC=CC1
accession=JP008527
date=2016.01.19 (Created 2008.10.21, modified 2011.05.06)
author=SODA AROMATIC CO., LTD.
license=CC BY-NC-SA
exact mass=218.13068
ionization energy=70 eV
ion type=[M]+*
computed spectral entropy=2.8879236331995957
computed normalized entropy=0.7939120907082023
SPLASH=splash10-000t-5900000000-fcac44db117af2817d1b
submitter=submitter = University of Tokyo Team (Faculty of Engineering, University of Tokyo)
MoNA Rating=3.75

>  <NUM PEAKS>  (2471) 
38

>  <MASS SPECTRAL PEAKS>  (2471) 
14 2.01
27 10.15
29 4.26
39 8.2
41 15.53
42 5.65
43 18.38
50 2.92
51 12.51
52 1.81
53 1.79
55 16.96
63 1.95
69 2.98
70 46.91
71 2.81
74 1.22
75 2.17
76 3.29
77 36.86
78 2.75
91 2.2
101 1.08
102 13.15
103 49.86
104 10.45
105 1.12
107 1.09
120 2.02
130 1.7
131 99.99
132 10.27
147 34.31
148 51.8
149 35.52
150 3.1
218 7.38
219 1.01

>  <PREDICTED SPECTRUM>  (2471) 
26 55
27 185
28 46
29 177
37 8
38 73
39 286
40 127
41 404
42 199
43 629
44 135
45 54
50 221
51 326
52 212
53 117
54 53
55 393
56 46
57 163
62 96
63 185
64 64
65 153
66 81
69 151
70 664
71 487
72 104
73 39
74 147
75 259
76 266
77 479
78 230
79 158
87 28
89 83
90 111
91 275
92 121
94 46
101 53
102 462
103 700
104 418
105 204
106 31
117 62
118 112
119 61
120 9
121 16
130 174
131 999
132 446
133 95
147 460
148 718
149 498
150 187
218 172
219 72

$$$$

     RDKit          2D

 16 16  0  0  0  0  0  0  0  0999 V2000
    5.5216    4.2579    0.0000 C   0  0  0  0  0  0  0  0  0  0  0  0
    4.2226    5.0079    0.0000 C   0  0  0  0  0  0  0  0  0  0  0  0
    2.9236    4.2579    0.0000 C   0  0  0  0  0  0  0  0  0  0  0  0
   -8.7678    6.5079    0.0000 C   0  0  0  0  0  0  0  0  0  0  0  0
   -8.7683    5.0071    0.0000 C   0  0  0  0  0  0  0  0  0  0  0  0
   -7.4683    7.2587    0.0000 C   0  0  0  0  0  0  0  0  0  0  0  0
    1.6245    5.0079    0.0000 C   0  0  0  0  0  0  0  0  0  0  0  0
   -7.4692    4.2571    0.0000 C   0  0  0  0  0  0  0  0  0  0  0  0
   -6.1692    6.5087    0.0000 C   0  0  0  0  0  0  0  0  0  0  0  0
   -4.8707    4.2579    0.0000 C   0  0  0  0  0  0  0  0  0  0  0  0
   -3.5716    5.0079    0.0000 C   0  0  0  0  0  0  0  0  0  0  0  0
    0.3255    4.2579    0.0000 C   0  0  0  0  0  0  0  0  0  0  0  0
   -6.1697    5.0079    0.0000 C   0  0  0  0  0  0  0  0  0  0  0  0
   -2.2726    4.2579    0.0000 C   0  0  0  0  0  0  0  0  0  0  0  0
   -2.2726    2.7579    0.0000 O   0  0  0  0  0  0  0  0  0  0  0  0
   -0.9736    5.0079    0.0000 O   0  0  0  0  0  0  0  0  0  0  0  0
  2  1  1  0
  3  2  1  0
  5  4  2  0
  6  4  1  0
  7  3  1  0
  8  5  1  0
  9  6  2  0
 10 11  2  0
 12  7  1  0
 13  8  2  0
 13  9  1  0
 13 10  1  0
 14 11  1  0
 15 14  2  0
 16 12  1  0
 16 14  1  0
M  END
>  <NAME>  (2472) 
PENTYL 3-PHENYLPROPENOATE

>  <SYNONYMS>  (2472) 
AMYL CINNAMATE

>  <SPECTRUM TYPE>  (2472) 
MS1

>  <INSTRUMENT TYPE>  (2472) 
EI-B

>  <INSTRUMENT>  (2472) 
HITACHI M-80B

>  <ION MODE>  (2472) 
P

>  <INCHIKEY>  (2472) 
QDRJCWZGTMRXCL-ZHACJKMWSA-N

>  <FORMULA>  (2472) 
C14H18O2

>  <EXACT MASS>  (2472) 
218.130679816

>  <MW>  (2472) 
218

>  <ID>  (2472) 
JP008526

>  <CONTRIBUTOR>  (2472) 
University of Tokyo Team, {Faculty of Engineering, University of Tokyo

>  <COMMENT>  (2472) 
SMILES=CCCCCOC(=O)C=Cc(c1)cccc1
InChI=InChI=1S/C14H18O2/c1-2-3-7-12-16-14(15)11-10-13-8-5-4-6-9-13/h4-6,8-11H,2-3,7,12H2,1H3/b11-10+
computed SMILES=O=C(OCCCCC)C=CC=1C=CC=CC1
accession=JP008526
date=2016.01.19 (Created 2008.10.21, modified 2011.05.06)
author=SODA AROMATIC CO., LTD.
license=CC BY-NC-SA
exact mass=218.13068
ionization energy=70 eV
ion type=[M]+*
computed spectral entropy=2.797063673686796
computed normalized entropy=0.7634820821540541
SPLASH=splash10-000t-3900000000-8731a1cf399f3af91eeb
submitter=submitter = University of Tokyo Team (Faculty of Engineering, University of Tokyo)
MoNA Rating=3.75

>  <NUM PEAKS>  (2472) 
39

>  <MASS SPECTRAL PEAKS>  (2472) 
14 2.62
27 10.11
29 7.3
39 5.27
41 14.44
42 6.98
43 10.49
50 2.98
51 12.13
52 1.72
53 1.32
55 5.08
63 2.32
69 2.56
70 3.72
74 1.56
75 1.97
76 3.4
77 37.01
78 3.22
91 2.94
101 1.47
102 13.89
103 50.54
104 11.7
105 1.45
107 1.11
120 2.38
130 2.14
131 99.99
132 11.09
133 1.19
146 1.77
147 47.28
148 93.11
149 22.57
150 2.94
218 15.72
219 2.17

>  <PREDICTED SPECTRUM>  (2472) 
26 62
27 209
28 34
29 230
37 14
38 91
39 289
40 143
41 362
42 204
43 486
44 111
50 205
51 300
52 187
53 116
54 116
55 349
56 46
57 221
58 20
62 36
63 136
64 52
65 126
66 99
67 44
69 125
70 352
71 361
72 76
73 23
74 127
75 183
76 228
77 483
78 215
79 128
81 35
85 83
91 212
92 134
93 55
94 48
99 120
100 18
101 114
102 433
103 679
104 355
105 127
106 34
112 32
115 18
117 26
118 51
119 134
120 58
121 44
130 303
131 999
132 509
133 35
147 478
148 636
149 369
150 180
218 348
219 184
220 30

$$$$

     RDKit          2D

 15 15  0  0  0  0  0  0  0  0999 V2000
   -7.7940    4.8196    0.0000 C   0  0  0  0  0  0  0  0  0  0  0  0
   -6.4949    2.5696    0.0000 C   0  0  0  0  0  0  0  0  0  0  0  0
    3.8974    2.5696    0.0000 C   0  0  0  0  0  0  0  0  0  0  0  0
    3.8978    4.0704    0.0000 C   0  0  0  0  0  0  0  0  0  0  0  0
    2.5978    1.8188    0.0000 C   0  0  0  0  0  0  0  0  0  0  0  0
    2.5988    4.8204    0.0000 C   0  0  0  0  0  0  0  0  0  0  0  0
    1.2988    2.5688    0.0000 C   0  0  0  0  0  0  0  0  0  0  0  0
    0.0002    4.8196    0.0000 C   0  0  0  0  0  0  0  0  0  0  0  0
   -1.2988    4.0696    0.0000 C   0  0  0  0  0  0  0  0  0  0  0  0
   -5.1959    4.8196    0.0000 C   0  0  0  0  0  0  0  0  0  0  0  0
   -6.4949    4.0696    0.0000 C   0  0  0  0  0  0  0  0  0  0  0  0
    1.2993    4.0696    0.0000 C   0  0  0  0  0  0  0  0  0  0  0  0
   -2.5978    4.8196    0.0000 C   0  0  0  0  0  0  0  0  0  0  0  0
   -2.5978    6.3196    0.0000 O   0  0  0  0  0  0  0  0  0  0  0  0
   -3.8969    4.0696    0.0000 O   0  0  0  0  0  0  0  0  0  0  0  0
  4  3  2  0
  5  3  1  0
  6  4  1  0
  7  5  2  0
  8  9  2  0
 11  1  1  0
 11  2  1  0
 11 10  1  0
 12  6  2  0
 12  7  1  0
 12  8  1  0
 13  9  1  0
 14 13  2  0
 15 10  1  0
 15 13  1  0
M  END
>  <NAME>  (2473) 
2-METHYLPROPYL 3-PHENYLPROPENOATE

>  <SYNONYMS>  (2473) 
ISOBUTYL CINNAMATE

>  <SPECTRUM TYPE>  (2473) 
MS1

>  <INSTRUMENT TYPE>  (2473) 
EI-B

>  <INSTRUMENT>  (2473) 
HITACHI M-80B

>  <ION MODE>  (2473) 
P

>  <INCHIKEY>  (2473) 
IQZUZPKOFSOVET-CMDGGOBGSA-N

>  <FORMULA>  (2473) 
C13H16O2

>  <EXACT MASS>  (2473) 
204.115029752

>  <MW>  (2473) 
204

>  <ID>  (2473) 
JP008525

>  <CONTRIBUTOR>  (2473) 
University of Tokyo Team, {Faculty of Engineering, University of Tokyo

>  <COMMENT>  (2473) 
SMILES=CC(C)COC(=O)C=Cc(c1)cccc1
InChI=InChI=1S/C13H16O2/c1-11(2)10-15-13(14)9-8-12-6-4-3-5-7-12/h3-9,11H,10H2,1-2H3/b9-8+
computed SMILES=O=C(OCC(C)C)C=CC=1C=CC=CC1
accession=JP008525
date=2016.01.19 (Created 2008.10.21, modified 2011.05.06)
author=SODA AROMATIC CO., LTD.
license=CC BY-NC-SA
exact mass=204.11503
ionization energy=70 eV
ion type=[M]+*
computed spectral entropy=2.5493558074351017
computed normalized entropy=0.7495465629781353
SPLASH=splash10-001j-3900000000-845254dc895cdbf67b44
submitter=submitter = University of Tokyo Team (Faculty of Engineering, University of Tokyo)
MoNA Rating=3.75

>  <NUM PEAKS>  (2473) 
30

>  <MASS SPECTRAL PEAKS>  (2473) 
14 2.15
27 5.53
29 4.42
39 5.81
41 9.97
43 4.47
50 2.47
51 10
52 1.61
56 3.04
57 2.07
63 1.78
74 1.15
75 1.8
76 2.76
77 27.38
78 1.92
91 1.51
102 9.51
103 38.21
104 6.72
120 1.17
130 1.07
131 99.99
132 10.78
147 25.28
148 52.45
149 13.95
150 1.14
204 5

>  <PREDICTED SPECTRUM>  (2473) 
26 67
27 231
28 75
29 400
37 23
38 109
39 403
40 137
41 548
42 58
43 207
44 33
50 268
51 397
52 220
53 150
54 48
55 219
56 309
57 611
58 68
62 125
63 279
64 173
65 215
66 87
67 12
69 48
71 0
73 8
74 144
75 214
76 279
77 551
78 248
79 159
80 90
81 85
82 42
89 214
90 144
91 42
92 180
93 34
99 42
101 77
102 477
103 531
104 399
105 194
106 17
107 45
117 185
118 176
119 112
120 40
129 166
130 388
131 999
132 345
147 541
148 786
149 367
150 54
203 74
204 285
205 105

$$$$

     RDKit          2D

 15 15  0  0  0  0  0  0  0  0999 V2000
    4.8721    3.8829    0.0000 C   0  0  0  0  0  0  0  0  0  0  0  0
    3.5731    3.1329    0.0000 C   0  0  0  0  0  0  0  0  0  0  0  0
    2.2740    3.8829    0.0000 C   0  0  0  0  0  0  0  0  0  0  0  0
   -8.1183    5.3829    0.0000 C   0  0  0  0  0  0  0  0  0  0  0  0
   -8.1187    3.8821    0.0000 C   0  0  0  0  0  0  0  0  0  0  0  0
   -6.8187    6.1337    0.0000 C   0  0  0  0  0  0  0  0  0  0  0  0
   -6.8197    3.1321    0.0000 C   0  0  0  0  0  0  0  0  0  0  0  0
   -5.5197    5.3837    0.0000 C   0  0  0  0  0  0  0  0  0  0  0  0
   -4.2212    3.1329    0.0000 C   0  0  0  0  0  0  0  0  0  0  0  0
   -2.9221    3.8829    0.0000 C   0  0  0  0  0  0  0  0  0  0  0  0
    0.9750    3.1329    0.0000 C   0  0  0  0  0  0  0  0  0  0  0  0
   -5.5202    3.8829    0.0000 C   0  0  0  0  0  0  0  0  0  0  0  0
   -1.6231    3.1329    0.0000 C   0  0  0  0  0  0  0  0  0  0  0  0
   -1.6231    1.6329    0.0000 O   0  0  0  0  0  0  0  0  0  0  0  0
   -0.3240    3.8829    0.0000 O   0  0  0  0  0  0  0  0  0  0  0  0
  2  1  1  0
  3  2  1  0
  5  4  2  0
  6  4  1  0
  7  5  1  0
  8  6  2  0
  9 10  2  0
 11  3  1  0
 12  7  2  0
 12  8  1  0
 12  9  1  0
 13 10  1  0
 14 13  2  0
 15 11  1  0
 15 13  1  0
M  END
>  <NAME>  (2474) 
BUTYL CINNAMATE

>  <SYNONYMS>  (2474) 


>  <SPECTRUM TYPE>  (2474) 
MS1

>  <INSTRUMENT TYPE>  (2474) 
EI-B

>  <INSTRUMENT>  (2474) 
HITACHI M-80B

>  <ION MODE>  (2474) 
P

>  <INCHIKEY>  (2474) 
OHHIVLJVBNCSHV-MDZDMXLPSA-N

>  <FORMULA>  (2474) 
C13H16O2

>  <EXACT MASS>  (2474) 
204.115029752

>  <MW>  (2474) 
204

>  <ID>  (2474) 
JP008524

>  <CONTRIBUTOR>  (2474) 
University of Tokyo Team, {Faculty of Engineering, University of Tokyo

>  <COMMENT>  (2474) 
SMILES=CCCCOC(=O)C=Cc(c1)cccc1
InChI=InChI=1S/C13H16O2/c1-2-3-11-15-13(14)10-9-12-7-5-4-6-8-12/h4-10H,2-3,11H2,1H3/b10-9+
computed SMILES=O=C(OCCCC)C=CC=1C=CC=CC1
accession=JP008524
date=2016.01.19 (Created 2008.10.21, modified 2011.05.06)
author=SODA AROMATIC CO., LTD.
license=CC BY-NC-SA
exact mass=204.11503
ionization energy=70 eV
ion type=[M]+*
computed spectral entropy=2.702219049998902
computed normalized entropy=0.7540685835368016
SPLASH=splash10-0f7k-3900000000-d8f6db7350cbe26a7677
submitter=submitter = University of Tokyo Team (Faculty of Engineering, University of Tokyo)
MoNA Rating=3.75

>  <NUM PEAKS>  (2474) 
36

>  <MASS SPECTRAL PEAKS>  (2474) 
26 1.02
27 9.53
29 7.24
39 5.02
42 11.81
43 1.89
50 3.42
51 14.32
52 1.88
53 1.18
55 2.27
56 4.03
57 1.52
63 2.25
74 1.53
75 2.24
76 3.78
77 36.88
78 3.07
91 2.78
101 1.12
102 12.58
103 48.44
104 10.48
105 1.32
120 2.29
130 1.81
131 99.99
132 10.16
133 1.23
147 39.36
148 69.31
149 11.66
150 1.09
204 17.6
205 2.41

>  <PREDICTED SPECTRUM>  (2474) 
26 59
27 158
28 53
29 356
38 39
39 278
40 59
41 373
43 59
50 207
51 373
52 180
53 90
54 21
55 214
56 279
57 420
58 4
62 57
63 203
64 111
65 161
66 60
67 29
69 62
74 96
75 175
76 230
77 550
78 261
79 177
80 49
81 116
82 20
89 168
91 87
92 100
93 67
99 110
101 97
102 513
103 538
104 378
105 188
106 54
107 71
117 220
118 75
119 132
120 128
121 22
129 180
130 483
131 974
132 253
147 640
148 999
149 463
150 106
159 5
161 46
203 45
204 411
205 145

$$$$

     RDKit          2D

 14 14  0  0  0  0  0  0  0  0999 V2000
   -6.8197    3.1321    0.0000 C   0  0  0  0  0  0  0  0  0  0  0  0
   -5.5207    5.3821    0.0000 C   0  0  0  0  0  0  0  0  0  0  0  0
    3.5726    1.6321    0.0000 C   0  0  0  0  0  0  0  0  0  0  0  0
    3.5731    3.1329    0.0000 C   0  0  0  0  0  0  0  0  0  0  0  0
    2.2731    0.8813    0.0000 C   0  0  0  0  0  0  0  0  0  0  0  0
    2.2740    3.8829    0.0000 C   0  0  0  0  0  0  0  0  0  0  0  0
    0.9740    1.6313    0.0000 C   0  0  0  0  0  0  0  0  0  0  0  0
   -0.3245    3.8821    0.0000 C   0  0  0  0  0  0  0  0  0  0  0  0
   -1.6236    3.1321    0.0000 C   0  0  0  0  0  0  0  0  0  0  0  0
   -5.5207    3.8821    0.0000 C   0  0  0  0  0  0  0  0  0  0  0  0
    0.9745    3.1321    0.0000 C   0  0  0  0  0  0  0  0  0  0  0  0
   -2.9226    3.8821    0.0000 C   0  0  0  0  0  0  0  0  0  0  0  0
   -2.9226    5.3821    0.0000 O   0  0  0  0  0  0  0  0  0  0  0  0
   -4.2216    3.1321    0.0000 O   0  0  0  0  0  0  0  0  0  0  0  0
  4  3  2  0
  5  3  1  0
  6  4  1  0
  7  5  2  0
  8  9  2  0
 10  1  1  0
 10  2  1  0
 11  6  2  0
 11  7  1  0
 11  8  1  0
 12  9  1  0
 13 12  2  0
 14 10  1  0
 14 12  1  0
M  END
>  <NAME>  (2475) 
1-METHYLETHYL 3-PHENYLPROPENOATE

>  <SYNONYMS>  (2475) 
ISOPROPYL CINNAMATE

>  <SPECTRUM TYPE>  (2475) 
MS1

>  <INSTRUMENT TYPE>  (2475) 
EI-B

>  <INSTRUMENT>  (2475) 
HITACHI M-80B

>  <ION MODE>  (2475) 
P

>  <INCHIKEY>  (2475) 
RGACABDFLVLVCT-CMDGGOBGSA-N

>  <FORMULA>  (2475) 
C12H14O2

>  <EXACT MASS>  (2475) 
190.099379688

>  <MW>  (2475) 
190

>  <ID>  (2475) 
JP008523

>  <CONTRIBUTOR>  (2475) 
University of Tokyo Team, {Faculty of Engineering, University of Tokyo

>  <COMMENT>  (2475) 
SMILES=CC(C)OC(=O)C([H])=C([H])c(c1)cccc1
InChI=InChI=1S/C12H14O2/c1-10(2)14-12(13)9-8-11-6-4-3-5-7-11/h3-10H,1-2H3/b9-8+
computed SMILES=O=C(OC(C)C)C=CC=1C=CC=CC1
accession=JP008523
date=2016.01.19 (Created 2008.10.21, modified 2011.05.06)
author=SODA AROMATIC CO., LTD.
license=CC BY-NC-SA
exact mass=190.09938
ionization energy=70 eV
ion type=[M]+*
computed spectral entropy=2.9180550763431445
computed normalized entropy=0.7965077043062483
SPLASH=splash10-0uea-3900000000-0086a638ccdd7dbf65b6
submitter=submitter = University of Tokyo Team (Faculty of Engineering, University of Tokyo)
MoNA Rating=3.75

>  <NUM PEAKS>  (2475) 
39

>  <MASS SPECTRAL PEAKS>  (2475) 
15 1.56
27 11.02
29 1.15
39 7.79
41 14.04
42 1.47
43 19.23
50 6.72
51 18.74
52 2.29
59 8.34
63 3.18
74 2.26
75 2.95
76 4.89
77 40.66
78 3.4
91 6.25
92 1.23
101 1.37
102 17.44
103 46.29
104 29.74
105 2.62
107 1
119 1.52
120 3.91
130 3.1
131 99.99
132 13.21
133 1.01
145 9.83
146 2.21
147 64.32
148 41.17
149 3.67
175 2.44
190 29.35
191 3.38

>  <PREDICTED SPECTRUM>  (2475) 
14 12
15 105
18 4
25 14
26 96
27 241
28 93
29 139
31 63
32 5
37 46
38 126
39 353
40 156
41 279
42 218
43 687
44 106
45 152
49 33
50 294
51 394
52 217
53 109
54 78
55 27
57 170
58 19
59 116
60 114
61 59
62 95
63 242
64 118
65 244
66 80
69 100
71 27
74 134
75 138
76 241
77 487
78 313
79 148
82 68
84 32
85 44
87 36
89 107
90 122
91 504
92 194
93 0
94 0
99 174
100 22
101 167
102 416
103 531
104 598
105 234
106 65
107 160
113 56
115 206
116 173
117 98
118 35
119 148
120 267
129 90
130 184
131 999
132 379
133 82
147 620
148 712
149 255
150 48
190 387
191 148

$$$$

     RDKit          2D

 14 14  0  0  0  0  0  0  0  0999 V2000
   -7.4692    4.2571    0.0000 C   0  0  0  0  0  0  0  0  0  0  0  0
   -6.1702    3.5071    0.0000 C   0  0  0  0  0  0  0  0  0  0  0  0
    4.2221    2.0071    0.0000 C   0  0  0  0  0  0  0  0  0  0  0  0
    4.2226    3.5079    0.0000 C   0  0  0  0  0  0  0  0  0  0  0  0
    2.9226    1.2563    0.0000 C   0  0  0  0  0  0  0  0  0  0  0  0
    2.9236    4.2579    0.0000 C   0  0  0  0  0  0  0  0  0  0  0  0
    1.6236    2.0063    0.0000 C   0  0  0  0  0  0  0  0  0  0  0  0
    0.3250    4.2571    0.0000 C   0  0  0  0  0  0  0  0  0  0  0  0
   -0.9740    3.5071    0.0000 C   0  0  0  0  0  0  0  0  0  0  0  0
   -4.8712    4.2571    0.0000 C   0  0  0  0  0  0  0  0  0  0  0  0
    1.6240    3.5071    0.0000 C   0  0  0  0  0  0  0  0  0  0  0  0
   -2.2731    4.2571    0.0000 C   0  0  0  0  0  0  0  0  0  0  0  0
   -2.2731    5.7571    0.0000 O   0  0  0  0  0  0  0  0  0  0  0  0
   -3.5721    3.5071    0.0000 O   0  0  0  0  0  0  0  0  0  0  0  0
  2  1  1  0
  4  3  2  0
  5  3  1  0
  6  4  1  0
  7  5  2  0
  8  9  2  0
 10  2  1  0
 11  6  2  0
 11  7  1  0
 11  8  1  0
 12  9  1  0
 13 12  2  0
 14 10  1  0
 14 12  1  0
M  END
>  <NAME>  (2476) 
PROPYL CINNAMATE

>  <SYNONYMS>  (2476) 


>  <SPECTRUM TYPE>  (2476) 
MS1

>  <INSTRUMENT TYPE>  (2476) 
EI-B

>  <INSTRUMENT>  (2476) 
HITACHI M-80B

>  <ION MODE>  (2476) 
P

>  <INCHIKEY>  (2476) 
OLLPXZHNCXACMM-CMDGGOBGSA-N

>  <FORMULA>  (2476) 
C12H14O2

>  <EXACT MASS>  (2476) 
190.099379688

>  <MW>  (2476) 
190

>  <ID>  (2476) 
JP008522

>  <CONTRIBUTOR>  (2476) 
University of Tokyo Team, {Faculty of Engineering, University of Tokyo

>  <COMMENT>  (2476) 
computed SMILES=O=C(OCCC)C=CC=1C=CC=CC1
SMILES=CCCOC(=O)C=Cc(c1)cccc1
InChI=InChI=1S/C12H14O2/c1-2-10-14-12(13)9-8-11-6-4-3-5-7-11/h3-9H,2,10H2,1H3/b9-8+
accession=JP008522
date=2016.01.19 (Created 2008.10.21, modified 2011.05.06)
author=SODA AROMATIC CO., LTD.
license=CC BY-NC-SA
exact mass=190.09938
ionization energy=70 eV
ion type=[M]+*
computed spectral entropy=2.665084505256834
computed normalized entropy=0.7622132823699839
SPLASH=splash10-0f8a-3900000000-38ffea49b62d2233a8d1
submitter=submitter = University of Tokyo Team (Faculty of Engineering, University of Tokyo)
MoNA Rating=3.75

>  <NUM PEAKS>  (2476) 
33

>  <MASS SPECTRAL PEAKS>  (2476) 
26 1
27 12.51
29 3.3
39 4.64
41 7.65
42 1.58
43 3.6
50 4
51 16.41
52 2.17
63 2.68
74 1.96
75 2.61
76 3.76
77 37.27
78 3.03
91 3.08
101 1.25
102 14.32
103 49.72
104 12.18
105 1.39
120 1.89
130 1.84
131 99.99
132 10.57
133 1.5
146 1.15
147 33.19
148 49.21
149 4.62
190 16.51
191 1.77

>  <PREDICTED SPECTRUM>  (2476) 
15 50
25 5
26 83
27 236
28 71
29 142
31 93
32 12
37 16
38 113
39 295
40 124
41 285
42 170
43 452
44 87
45 51
49 33
50 295
51 415
52 201
53 86
54 46
55 37
57 139
59 32
60 15
62 45
63 165
64 107
65 148
66 45
68 15
69 107
70 8
74 121
75 195
76 237
77 501
78 240
79 64
81 0
82 30
83 148
84 147
89 40
91 207
92 129
93 3
99 117
101 133
102 395
103 566
104 384
105 62
107 22
116 117
118 12
119 10
120 184
129 44
130 186
131 999
132 362
133 41
145 21
147 423
148 469
149 161
150 30
189 69
190 360
191 141

$$$$

     RDKit          2D

 14 14  0  0  0  0  0  0  0  0999 V2000
   -7.4692    4.2571    0.0000 C   0  0  0  0  0  0  0  0  0  0  0  0
   -6.1702    3.5071    0.0000 C   0  0  0  0  0  0  0  0  0  0  0  0
    4.2221    2.0071    0.0000 C   0  0  0  0  0  0  0  0  0  0  0  0
    4.2226    3.5079    0.0000 C   0  0  0  0  0  0  0  0  0  0  0  0
    2.9226    1.2563    0.0000 C   0  0  0  0  0  0  0  0  0  0  0  0
    2.9236    4.2579    0.0000 C   0  0  0  0  0  0  0  0  0  0  0  0
    1.6236    2.0063    0.0000 C   0  0  0  0  0  0  0  0  0  0  0  0
    0.3250    4.2571    0.0000 C   0  0  0  0  0  0  0  0  0  0  0  0
   -0.9740    3.5071    0.0000 C   0  0  0  0  0  0  0  0  0  0  0  0
   -4.8712    4.2571    0.0000 C   0  0  0  0  0  0  0  0  0  0  0  0
    1.6240    3.5071    0.0000 C   0  0  0  0  0  0  0  0  0  0  0  0
   -2.2731    4.2571    0.0000 C   0  0  0  0  0  0  0  0  0  0  0  0
   -2.2731    5.7571    0.0000 O   0  0  0  0  0  0  0  0  0  0  0  0
   -3.5721    3.5071    0.0000 O   0  0  0  0  0  0  0  0  0  0  0  0
  2  1  2  0
  4  3  2  0
  5  3  1  0
  6  4  1  0
  7  5  2  0
  8  9  2  0
 10  2  1  0
 11  6  2  0
 11  7  1  0
 11  8  1  0
 12  9  1  0
 13 12  2  0
 14 10  1  0
 14 12  1  0
M  END
>  <NAME>  (2477) 
ALLYL CINNAMATE

>  <SYNONYMS>  (2477) 
2-PROPENYL 3-PHENYLPROPENOATE

>  <SPECTRUM TYPE>  (2477) 
MS1

>  <INSTRUMENT TYPE>  (2477) 
EI-B

>  <INSTRUMENT>  (2477) 
HITACHI M-80B

>  <ION MODE>  (2477) 
P

>  <INCHIKEY>  (2477) 
KCMITHMNVLRGJU-CMDGGOBGSA-N

>  <FORMULA>  (2477) 
C12H12O2

>  <EXACT MASS>  (2477) 
188.083729624

>  <MW>  (2477) 
188

>  <ID>  (2477) 
JP008521

>  <CONTRIBUTOR>  (2477) 
University of Tokyo Team, {Faculty of Engineering, University of Tokyo

>  <COMMENT>  (2477) 
SMILES=C=CCOC(=O)C=Cc(c1)cccc1
InChI=InChI=1S/C12H12O2/c1-2-10-14-12(13)9-8-11-6-4-3-5-7-11/h2-9H,1,10H2/b9-8+
computed SMILES=O=C(OCC=C)C=CC=1C=CC=CC1
accession=JP008521
date=2016.01.19 (Created 2008.10.21, modified 2011.05.06)
author=SODA AROMATIC CO., LTD.
license=CC BY-NC-SA
exact mass=188.08373
ionization energy=70 eV
ion type=[M]+*
computed spectral entropy=2.891106994835523
computed normalized entropy=0.7735052292190947
SPLASH=splash10-0ue9-4900000000-c9ecf6a54baed4395aa3
submitter=submitter = University of Tokyo Team (Faculty of Engineering, University of Tokyo)
MoNA Rating=3.75

>  <NUM PEAKS>  (2477) 
42

>  <MASS SPECTRAL PEAKS>  (2477) 
26 1.95
27 7.68
29 3.3
38 1.92
39 18.09
41 16.98
50 7.68
51 22.1
52 2.61
53 1.16
55 1.36
62 1.26
63 3.39
69 2.67
74 2.67
75 3.16
76 5.81
77 46.7
78 3.76
91 5.81
97 2.06
101 1.4
102 13
103 59.88
104 39.46
105 4.54
115 1.3
116 1.55
128 4.96
129 8.29
130 1.32
131 99.99
132 11.5
133 1.43
141 1.04
142 3.73
143 15.6
144 2.11
147 5.01
173 2.7
188 11.96
189 1.47

>  <PREDICTED SPECTRUM>  (2477) 
25 18
26 75
27 164
28 32
29 117
36 5
37 67
38 140
39 379
40 149
41 542
42 134
44 32
49 52
50 193
51 317
52 162
53 141
54 61
55 99
57 109
61 40
62 88
63 174
64 97
65 119
66 18
67 7
69 4
74 95
75 261
76 159
77 450
78 163
79 106
81 56
82 12
86 6
90 8
91 220
92 67
93 18
101 71
102 307
103 574
104 239
105 72
115 58
116 42
118 0
128 71
129 345
130 231
131 999
132 329
143 183
144 272
145 65
146 39
147 280
148 117
158 86
159 231
188 339
189 104

$$$$

     RDKit          2D

 14 14  0  0  0  0  0  0  0  0999 V2000
   10.0231    1.2915    0.0000 C   0  0  0  0  0  0  0  0  0  0  0  0
    8.7242    0.5412    0.0000 C   0  0  0  0  0  0  0  0  0  0  0  0
   -1.6700   -0.9600    0.0000 C   0  0  0  0  0  0  0  0  0  0  0  0
   -1.6700    0.5400    0.0000 C   0  0  0  0  0  0  0  0  0  0  0  0
   -0.3700   -1.7100    0.0000 C   0  0  0  0  0  0  0  0  0  0  0  0
   -0.3700    1.2900    0.0000 C   0  0  0  0  0  0  0  0  0  0  0  0
    0.9300   -0.9600    0.0000 C   0  0  0  0  0  0  0  0  0  0  0  0
    7.4251    1.2910    0.0000 C   0  0  0  0  0  0  0  0  0  0  0  0
    3.5281    0.5404    0.0000 C   0  0  0  0  0  0  0  0  0  0  0  0
    0.9300    0.5400    0.0000 C   0  0  0  0  0  0  0  0  0  0  0  0
    4.8270    1.2906    0.0000 C   0  0  0  0  0  0  0  0  0  0  0  0
    4.8268    2.7906    0.0000 O   0  0  0  0  0  0  0  0  0  0  0  0
    6.1262    0.5408    0.0000 O   0  0  0  0  0  0  0  0  0  0  0  0
    2.2289    1.2902    0.0000 O   0  0  0  0  0  0  0  0  0  0  0  0
  2  1  2  0
  4  3  2  0
  5  3  1  0
  6  4  1  0
  7  5  2  0
  8  2  1  0
 10  6  2  0
 10  7  1  0
 11  9  1  0
 12 11  2  0
 13  8  1  0
 13 11  1  0
 14  9  1  0
 14 10  1  0
M  END
>  <NAME>  (2478) 
2-PROPENYL PHENOXYACETATE

>  <SYNONYMS>  (2478) 
ALLYL PHENOXYACETATE

>  <SPECTRUM TYPE>  (2478) 
MS1

>  <INSTRUMENT TYPE>  (2478) 
EI-B

>  <INSTRUMENT>  (2478) 
HITACHI M-80B

>  <ION MODE>  (2478) 
P

>  <INCHIKEY>  (2478) 
VUFZVGQUAVDKMC-UHFFFAOYSA-N

>  <FORMULA>  (2478) 
C11H12O3

>  <EXACT MASS>  (2478) 
192.07864424399997

>  <MW>  (2478) 
192

>  <ID>  (2478) 
JP008518

>  <CONTRIBUTOR>  (2478) 
University of Tokyo Team, {Faculty of Engineering, University of Tokyo

>  <COMMENT>  (2478) 
SMILES=C=CCOC(=O)COc(c1)cccc1
InChI=InChI=1S/C11H12O3/c1-2-8-13-11(12)9-14-10-6-4-3-5-7-10/h2-7H,1,8-9H2
computed SMILES=O=C(OCC=C)COC=1C=CC=CC1
accession=JP008518
date=2016.01.19 (Created 2008.10.21, modified 2011.05.06)
author=SODA AROMATIC CO., LTD.
license=CC BY-NC-SA
exact mass=192.07864
ionization energy=70 eV
ion type=[M]+*
computed spectral entropy=2.576316322605602
computed normalized entropy=0.7305878978117332
SPLASH=splash10-056u-9400000000-59e1f1260e32b874c5f0
submitter=submitter = University of Tokyo Team (Faculty of Engineering, University of Tokyo)
MoNA Rating=3.75

>  <NUM PEAKS>  (2478) 
34

>  <MASS SPECTRAL PEAKS>  (2478) 
15 1.03
26 1.65
27 6.56
28 2.61
29 4.31
38 3.73
39 28.05
40 2.48
41 40.15
42 5.33
43 1.24
50 5.89
51 25.45
52 1.89
55 1.94
57 1.45
63 3.12
64 1.43
65 9.97
66 1.97
74 1.18
75 1.45
76 2.17
77 99.99
78 9.09
79 24.67
80 1.6
91 1.01
94 7.75
105 1.39
107 88.14
108 8.46
192 31.84
193 3.51

>  <PREDICTED SPECTRUM>  (2478) 
25 2
26 53
27 169
29 100
31 28
36 7
37 79
38 173
39 630
40 230
41 999
42 282
43 226
44 130
49 4
50 260
51 522
52 240
53 161
54 12
55 200
56 4
57 155
58 91
61 61
62 92
63 262
64 137
65 325
66 98
67 63
69 58
71 75
74 44
75 104
76 146
77 918
78 365
79 347
80 100
85 0
87 12
88 9
89 93
91 203
92 141
93 141
94 172
95 97
103 66
104 58
105 593
106 205
107 504
108 10
115 221
116 67
117 15
118 55
119 94
120 28
123 69
124 15
131 63
133 330
134 131
135 32
147 59
151 319
152 232
192 672
193 207
194 2

$$$$

     RDKit          2D

 14 14  0  0  0  0  0  0  0  0999 V2000
    7.4614    0.9233    0.0000 C   0  0  0  0  0  0  0  0  0  0  0  0
    6.1754   -1.3341    0.0000 C   0  0  0  0  0  0  0  0  0  0  0  0
   -0.3006   -2.0967    0.0000 C   0  0  0  0  0  0  0  0  0  0  0  0
   -1.5835   -1.3690    0.0000 C   0  0  0  0  0  0  0  0  0  0  0  0
    0.9765   -1.3443    0.0000 C   0  0  0  0  0  0  0  0  0  0  0  0
   -1.6197    0.1306    0.0000 C   0  0  0  0  0  0  0  0  0  0  0  0
    4.8634    0.9083    0.0000 C   0  0  0  0  0  0  0  0  0  0  0  0
    6.1667    0.1659    0.0000 C   0  0  0  0  0  0  0  0  0  0  0  0
    0.9706    0.1359    0.0000 C   0  0  0  0  0  0  0  0  0  0  0  0
   -0.3123    0.8636    0.0000 C   0  0  0  0  0  0  0  0  0  0  0  0
    2.2653    0.8933    0.0000 C   0  0  0  0  0  0  0  0  0  0  0  0
   -0.3085    2.3636    0.0000 N   0  0  0  0  0  0  0  0  0  0  0  0
    2.2567    2.3933    0.0000 O   0  0  0  0  0  0  0  0  0  0  0  0
    3.5687    0.1509    0.0000 O   0  0  0  0  0  0  0  0  0  0  0  0
  4  3  2  0
  5  3  1  0
  6  4  1  0
  8  1  1  0
  8  2  1  0
  8  7  1  0
  9  5  2  0
 10  6  2  0
 10  9  1  0
 11  9  1  0
 12 10  1  0
 13 11  2  0
 14  7  1  0
 14 11  1  0
M  END
>  <NAME>  (2479) 
2-METHYLPROPYL 2-AMINOBENZOATE

>  <SYNONYMS>  (2479) 
ISOBUTYL ANTHRANILATE

>  <SPECTRUM TYPE>  (2479) 
MS1

>  <INSTRUMENT TYPE>  (2479) 
EI-B

>  <INSTRUMENT>  (2479) 
HITACHI M-80B

>  <ION MODE>  (2479) 
P

>  <INCHIKEY>  (2479) 
ILCLJQFCMRCPNM-UHFFFAOYSA-N

>  <FORMULA>  (2479) 
C11H15NO2

>  <EXACT MASS>  (2479) 
193.11027872

>  <MW>  (2479) 
193

>  <ID>  (2479) 
JP008517

>  <CONTRIBUTOR>  (2479) 
University of Tokyo Team, {Faculty of Engineering, University of Tokyo

>  <COMMENT>  (2479) 
SMILES=CC(C)COC(=O)c(c1)c(N)ccc1
InChI=InChI=1S/C11H15NO2/c1-8(2)7-14-11(13)9-5-3-4-6-10(9)12/h3-6,8H,7,12H2,1-2H3
computed SMILES=O=C(OCC(C)C)C=1C=CC=CC1N
accession=JP008517
date=2016.01.19 (Created 2008.10.21, modified 2011.05.06)
author=SODA AROMATIC CO., LTD.
license=CC BY-NC-SA
exact mass=193.11028
ionization energy=70 eV
ion type=[M]+*
computed spectral entropy=2.394879889929626
computed normalized entropy=0.7440112698437773
SPLASH=splash10-014l-4900000000-f08f03c20e688b33bece
submitter=submitter = University of Tokyo Team (Faculty of Engineering, University of Tokyo)
MoNA Rating=3.75

>  <NUM PEAKS>  (2479) 
25

>  <MASS SPECTRAL PEAKS>  (2479) 
27 4.23
29 3.82
38 1.35
39 10.99
41 10.76
42 1.18
43 2.79
52 2.56
53 1.07
57 3.25
63 2.84
64 3.62
65 22.96
66 2.91
90 1.37
91 4.32
92 29.97
93 4.76
119 99.99
120 40.92
121 2.93
137 48.14
138 3.36
193 35.68
194 3.89

>  <PREDICTED SPECTRUM>  (2479) 
15 20
16 18
17 6
18 33
25 11
26 73
27 233
28 163
29 293
31 38
36 20
37 91
38 180
39 393
40 120
41 506
42 92
43 209
44 80
50 132
51 180
52 207
53 139
54 89
55 204
56 183
57 286
62 99
63 286
64 301
65 548
66 218
67 4
74 55
75 14
76 86
77 138
78 97
79 46
80 64
81 42
83 26
84 4
89 17
90 265
91 346
92 671
93 287
118 144
119 999
120 964
121 82
136 43
137 613
138 171
164 0
193 695
194 263
195 28

$$$$

     RDKit          2D

 14 14  0  0  0  0  0  0  0  0999 V2000
   -1.6211    0.2101    0.0000 C   0  0  0  0  0  0  0  0  0  0  0  0
   -0.3178   -0.5324    0.0000 C   0  0  0  0  0  0  0  0  0  0  0  0
    0.9769    0.2251    0.0000 C   0  0  0  0  0  0  0  0  0  0  0  0
    7.4442    2.4876    0.0000 C   0  0  0  0  0  0  0  0  0  0  0  0
    8.7271    1.7599    0.0000 C   0  0  0  0  0  0  0  0  0  0  0  0
    6.1671    1.7352    0.0000 C   0  0  0  0  0  0  0  0  0  0  0  0
    8.7633    0.2603    0.0000 C   0  0  0  0  0  0  0  0  0  0  0  0
    2.2802   -0.5174    0.0000 C   0  0  0  0  0  0  0  0  0  0  0  0
    6.1730    0.2551    0.0000 C   0  0  0  0  0  0  0  0  0  0  0  0
    7.4559   -0.4726    0.0000 C   0  0  0  0  0  0  0  0  0  0  0  0
    4.8783   -0.5024    0.0000 C   0  0  0  0  0  0  0  0  0  0  0  0
    7.4521   -1.9726    0.0000 N   0  0  0  0  0  0  0  0  0  0  0  0
    4.8869   -2.0024    0.0000 O   0  0  0  0  0  0  0  0  0  0  0  0
    3.5749    0.2401    0.0000 O   0  0  0  0  0  0  0  0  0  0  0  0
  2  1  1  0
  3  2  1  0
  5  4  2  0
  6  4  1  0
  7  5  1  0
  8  3  1  0
  9  6  2  0
 10  7  2  0
 10  9  1  0
 11  9  1  0
 12 10  1  0
 13 11  2  0
 14  8  1  0
 14 11  1  0
M  END
>  <NAME>  (2480) 
BUTYL 2-AMINOBENZOATE

>  <SYNONYMS>  (2480) 
BUTYL ANTHRANILATE

>  <SPECTRUM TYPE>  (2480) 
MS1

>  <INSTRUMENT TYPE>  (2480) 
EI-B

>  <INSTRUMENT>  (2480) 
HITACHI M-80B

>  <ION MODE>  (2480) 
P

>  <INCHIKEY>  (2480) 
HUIYGGQINIVDNW-UHFFFAOYSA-N

>  <FORMULA>  (2480) 
C11H15NO2

>  <EXACT MASS>  (2480) 
193.11027872

>  <MW>  (2480) 
193

>  <ID>  (2480) 
JP008516

>  <CONTRIBUTOR>  (2480) 
University of Tokyo Team, {Faculty of Engineering, University of Tokyo

>  <COMMENT>  (2480) 
SMILES=CCCCOC(=O)c(c1)c(N)ccc1
InChI=InChI=1S/C11H15NO2/c1-2-3-8-14-11(13)9-6-4-5-7-10(9)12/h4-7H,2-3,8,12H2,1H3
computed SMILES=O=C(OCCCC)C=1C=CC=CC1N
accession=JP008516
date=2016.01.19 (Created 2008.10.21, modified 2011.05.06)
author=SODA AROMATIC CO., LTD.
license=CC BY-NC-SA
exact mass=193.11028
ionization energy=70 eV
ion type=[M]+*
computed spectral entropy=2.4322742947764273
computed normalized entropy=0.7653345174805086
SPLASH=splash10-014l-5900000000-4452e06b242602a8f0eb
submitter=submitter = University of Tokyo Team (Faculty of Engineering, University of Tokyo)
MoNA Rating=3.75

>  <NUM PEAKS>  (2480) 
24

>  <MASS SPECTRAL PEAKS>  (2480) 
27 7.48
29 10.12
38 1.16
39 10.46
41 9.09
42 1.01
52 3.15
55 1.23
57 1.32
63 3.54
64 4.73
65 23.81
66 3.39
90 1.25
91 5.63
92 31.24
93 5.89
119 99.99
120 33.97
121 3.03
137 29.17
138 2.46
193 36.12
194 4.52

>  <PREDICTED SPECTRUM>  (2480) 
15 8
16 18
17 10
18 37
25 10
26 66
27 222
28 159
29 293
30 2
31 51
37 74
38 163
39 374
40 111
41 461
42 69
43 115
44 28
50 130
51 167
52 198
53 125
54 70
55 164
56 153
57 220
62 102
63 272
64 279
65 558
66 228
74 57
75 22
76 89
77 123
78 80
79 12
80 64
81 5
90 229
91 291
92 654
93 317
118 124
119 897
120 999
121 95
136 51
137 583
138 177
148 17
164 21
193 634
194 238
195 36

$$$$

     RDKit          2D

 13 13  0  0  0  0  0  0  0  0999 V2000
    7.4614    0.9233    0.0000 C   0  0  0  0  0  0  0  0  0  0  0  0
    6.1667    0.1659    0.0000 C   0  0  0  0  0  0  0  0  0  0  0  0
   -0.3006   -2.0967    0.0000 C   0  0  0  0  0  0  0  0  0  0  0  0
   -1.5835   -1.3690    0.0000 C   0  0  0  0  0  0  0  0  0  0  0  0
    0.9765   -1.3443    0.0000 C   0  0  0  0  0  0  0  0  0  0  0  0
   -1.6197    0.1306    0.0000 C   0  0  0  0  0  0  0  0  0  0  0  0
    4.8634    0.9083    0.0000 C   0  0  0  0  0  0  0  0  0  0  0  0
    0.9706    0.1359    0.0000 C   0  0  0  0  0  0  0  0  0  0  0  0
   -0.3123    0.8636    0.0000 C   0  0  0  0  0  0  0  0  0  0  0  0
    2.2653    0.8933    0.0000 C   0  0  0  0  0  0  0  0  0  0  0  0
   -0.3085    2.3636    0.0000 N   0  0  0  0  0  0  0  0  0  0  0  0
    2.2567    2.3933    0.0000 O   0  0  0  0  0  0  0  0  0  0  0  0
    3.5687    0.1509    0.0000 O   0  0  0  0  0  0  0  0  0  0  0  0
  2  1  2  0
  4  3  2  0
  5  3  1  0
  6  4  1  0
  7  2  1  0
  8  5  2  0
  9  6  2  0
  9  8  1  0
 10  8  1  0
 11  9  1  0
 12 10  2  0
 13  7  1  0
 13 10  1  0
M  END
>  <NAME>  (2481) 
2-PROPENYL 2-AMINOBENZOATE

>  <SYNONYMS>  (2481) 
ALLYL ANTHRANILATE

>  <SPECTRUM TYPE>  (2481) 
MS1

>  <INSTRUMENT TYPE>  (2481) 
EI-B

>  <INSTRUMENT>  (2481) 
HITACHI M-80B

>  <ION MODE>  (2481) 
P

>  <INCHIKEY>  (2481) 
UCANFCXAKYMFGA-UHFFFAOYSA-N

>  <FORMULA>  (2481) 
C10H11NO2

>  <EXACT MASS>  (2481) 
177.078978592

>  <MW>  (2481) 
177

>  <ID>  (2481) 
JP008515

>  <CONTRIBUTOR>  (2481) 
University of Tokyo Team, {Faculty of Engineering, University of Tokyo

>  <COMMENT>  (2481) 
SMILES=C=CCOC(=O)c(c1)c(N)ccc1
InChI=InChI=1S/C10H11NO2/c1-2-7-13-10(12)8-5-3-4-6-9(8)11/h2-6H,1,7,11H2
computed SMILES=O=C(OCC=C)C=1C=CC=CC1N
accession=JP008515
date=2016.01.19 (Created 2008.10.21, modified 2011.05.06)
author=SODA AROMATIC CO., LTD.
license=CC BY-NC-SA
exact mass=177.07898
ionization energy=70 eV
ion type=[M]+*
computed spectral entropy=2.849423718509929
computed normalized entropy=0.7575836517234865
SPLASH=splash10-01dl-7900000000-b1419121142cd4687b33
submitter=submitter = University of Tokyo Team (Faculty of Engineering, University of Tokyo)
MoNA Rating=3.75

>  <NUM PEAKS>  (2481) 
43

>  <MASS SPECTRAL PEAKS>  (2481) 
15 1.32
26 2.03
27 7.35
29 2.61
37 1.55
38 6.27
39 38.24
41 29.22
42 2.5
50 1.67
51 1.88
52 8.04
53 1.84
54 1.71
55 1.03
56 8
62 2.13
63 9.47
64 10.39
65 48.28
66 7.9
76 1.44
77 2.3
78 1.61
90 2.52
91 10.63
92 55.59
93 19.08
94 1.06
103 1.4
104 2.47
105 1.69
119 99.99
120 80.11
121 8.27
130 13.14
131 3.03
132 12.26
133 1.34
158 3.1
159 1.69
177 87.7
178 9.33

>  <PREDICTED SPECTRUM>  (2481) 
14 15
15 47
16 17
17 15
18 25
25 18
26 59
27 151
28 100
29 95
30 84
31 7
36 41
37 122
38 191
39 454
40 165
41 508
42 161
43 135
44 123
45 55
49 23
50 191
51 228
52 179
53 82
54 89
55 80
56 35
57 114
58 54
60 18
61 96
62 140
63 291
64 287
65 493
66 170
67 22
68 117
70 24
73 65
74 114
75 95
76 128
77 159
78 104
80 25
89 123
90 341
91 353
92 641
93 273
94 49
102 41
104 41
105 50
106 54
116 40
117 151
118 313
119 999
120 807
121 49
131 34
132 190
133 170
134 20
135 40
136 269
137 209
148 67
158 5
160 103
177 474
178 160

$$$$

     RDKit          2D

 20 20  0  0  0  0  0  0  0  0999 V2000
   -4.2384    7.6835    0.0000 C   0  0  0  0  0  0  0  0  0  0  0  0
    8.7642    0.1912    0.0000 C   0  0  0  0  0  0  0  0  0  0  0  0
   -2.9381    6.9356    0.0000 C   0  0  0  0  0  0  0  0  0  0  0  0
    7.4651    0.9410    0.0000 C   0  0  0  0  0  0  0  0  0  0  0  0
   -2.9356    5.4356    0.0000 C   0  0  0  0  0  0  0  0  0  0  0  0
    6.1662    0.1908    0.0000 C   0  0  0  0  0  0  0  0  0  0  0  0
   -1.6200   -1.3100    0.0000 C   0  0  0  0  0  0  0  0  0  0  0  0
   -0.3300   -2.0600    0.0000 C   0  0  0  0  0  0  0  0  0  0  0  0
   -1.6200    0.1900    0.0000 C   0  0  0  0  0  0  0  0  0  0  0  0
    0.9700   -1.3100    0.0000 C   0  0  0  0  0  0  0  0  0  0  0  0
   -1.6353    4.6878    0.0000 C   0  0  0  0  0  0  0  0  0  0  0  0
    4.8670    0.9406    0.0000 C   0  0  0  0  0  0  0  0  0  0  0  0
   -0.3300    0.9400    0.0000 C   0  0  0  0  0  0  0  0  0  0  0  0
    0.9700    0.1900    0.0000 C   0  0  0  0  0  0  0  0  0  0  0  0
   -0.3325    2.4400    0.0000 C   0  0  0  0  0  0  0  0  0  0  0  0
    2.2689    0.9402    0.0000 C   0  0  0  0  0  0  0  0  0  0  0  0
    0.9653    3.1922    0.0000 O   0  0  0  0  0  0  0  0  0  0  0  0
    2.2687    2.4402    0.0000 O   0  0  0  0  0  0  0  0  0  0  0  0
   -1.6328    3.1878    0.0000 O   0  0  0  0  0  0  0  0  0  0  0  0
    3.5681    0.1904    0.0000 O   0  0  0  0  0  0  0  0  0  0  0  0
  3  1  1  0
  4  2  1  0
  5  3  1  0
  6  4  1  0
  8  7  2  0
  9  7  1  0
 10  8  1  0
 11  5  1  0
 12  6  1  0
 13  9  2  0
 14 10  2  0
 14 13  1  0
 15 13  1  0
 16 14  1  0
 17 15  2  0
 18 16  2  0
 19 11  1  0
 19 15  1  0
 20 12  1  0
 20 16  1  0
M  END
>  <NAME>  (2482) 
DIBUTYL PHTHALATE

>  <SYNONYMS>  (2482) 


>  <SPECTRUM TYPE>  (2482) 
MS1

>  <INSTRUMENT TYPE>  (2482) 
EI-B

>  <INSTRUMENT>  (2482) 
HITACHI M-80B

>  <ION MODE>  (2482) 
P

>  <INCHIKEY>  (2482) 
DOIRQSBPFJWKBE-UHFFFAOYSA-N

>  <FORMULA>  (2482) 
C16H22O4

>  <EXACT MASS>  (2482) 
278.151809184

>  <MW>  (2482) 
278

>  <ID>  (2482) 
JP008514

>  <CONTRIBUTOR>  (2482) 
University of Tokyo Team, {Faculty of Engineering, University of Tokyo

>  <COMMENT>  (2482) 
SMILES=CCCCOC(=O)c(c1)c(ccc1)C(=O)OCCCC
InChI=InChI=1S/C16H22O4/c1-3-5-11-19-15(17)13-9-7-8-10-14(13)16(18)20-12-6-4-2/h7-10H,3-6,11-12H2,1-2H3
computed SMILES=O=C(OCCCC)C=1C=CC=CC1C(=O)OCCCC
accession=JP008514
date=2016.01.19 (Created 2008.10.21, modified 2011.05.06)
author=SODA AROMATIC CO., LTD.
license=CC BY-NC-SA
exact mass=278.15181
ionization energy=70 eV
ion type=[M]+*
computed spectral entropy=2.1922278262136436
computed normalized entropy=0.6991650040610949
SPLASH=splash10-0002-5900000000-bb309d93583ab774d1f9
submitter=submitter = University of Tokyo Team (Faculty of Engineering, University of Tokyo)
MoNA Rating=3.75

>  <NUM PEAKS>  (2482) 
23

>  <MASS SPECTRAL PEAKS>  (2482) 
27 6.08
29 8.05
31 3.48
39 4.21
41 14.63
42 1.69
43 3.81
50 2.33
55 2.24
56 9.73
57 6.77
65 3.94
76 6.8
77 1.44
93 1.97
104 7.2
105 2.39
121 1.59
122 1.31
149 99.99
150 9.59
205 4.29
223 4.97

>  <PREDICTED SPECTRUM>  (2482) 
27 66
28 31
29 167
39 92
40 15
41 213
42 51
43 85
50 88
51 44
52 8
53 53
55 85
56 124
57 146
58 16
65 190
66 45
69 0
70 5
73 6
74 42
75 2
76 169
77 152
78 10
92 0
93 152
94 12
104 224
105 131
121 168
122 95
123 45
132 43
149 999
150 272
151 79
167 27
205 170
206 130
223 262
224 77

$$$$

     RDKit          2D

 18 18  0  0  0  0  0  0  0  0999 V2000
   -2.9381    6.9356    0.0000 C   0  0  0  0  0  0  0  0  0  0  0  0
    7.4651    0.9410    0.0000 C   0  0  0  0  0  0  0  0  0  0  0  0
   -2.9356    5.4356    0.0000 C   0  0  0  0  0  0  0  0  0  0  0  0
    6.1662    0.1908    0.0000 C   0  0  0  0  0  0  0  0  0  0  0  0
   -1.6200   -1.3100    0.0000 C   0  0  0  0  0  0  0  0  0  0  0  0
   -0.3300   -2.0600    0.0000 C   0  0  0  0  0  0  0  0  0  0  0  0
   -1.6200    0.1900    0.0000 C   0  0  0  0  0  0  0  0  0  0  0  0
    0.9700   -1.3100    0.0000 C   0  0  0  0  0  0  0  0  0  0  0  0
   -1.6353    4.6878    0.0000 C   0  0  0  0  0  0  0  0  0  0  0  0
    4.8670    0.9406    0.0000 C   0  0  0  0  0  0  0  0  0  0  0  0
   -0.3300    0.9400    0.0000 C   0  0  0  0  0  0  0  0  0  0  0  0
    0.9700    0.1900    0.0000 C   0  0  0  0  0  0  0  0  0  0  0  0
   -0.3325    2.4400    0.0000 C   0  0  0  0  0  0  0  0  0  0  0  0
    2.2689    0.9402    0.0000 C   0  0  0  0  0  0  0  0  0  0  0  0
    0.9653    3.1922    0.0000 O   0  0  0  0  0  0  0  0  0  0  0  0
    2.2687    2.4402    0.0000 O   0  0  0  0  0  0  0  0  0  0  0  0
   -1.6328    3.1878    0.0000 O   0  0  0  0  0  0  0  0  0  0  0  0
    3.5681    0.1904    0.0000 O   0  0  0  0  0  0  0  0  0  0  0  0
  3  1  2  0
  4  2  2  0
  6  5  2  0
  7  5  1  0
  8  6  1  0
  9  3  1  0
 10  4  1  0
 11  7  2  0
 12  8  2  0
 12 11  1  0
 13 11  1  0
 14 12  1  0
 15 13  2  0
 16 14  2  0
 17  9  1  0
 17 13  1  0
 18 10  1  0
 18 14  1  0
M  END
>  <NAME>  (2483) 
DIALLYL PHTHALATE

>  <SYNONYMS>  (2483) 


>  <SPECTRUM TYPE>  (2483) 
MS1

>  <INSTRUMENT TYPE>  (2483) 
EI-B

>  <INSTRUMENT>  (2483) 
HITACHI M-80B

>  <ION MODE>  (2483) 
P

>  <INCHIKEY>  (2483) 
QUDWYFHPNIMBFC-UHFFFAOYSA-N

>  <FORMULA>  (2483) 
C14H14O4

>  <EXACT MASS>  (2483) 
246.089208928

>  <MW>  (2483) 
246

>  <ID>  (2483) 
JP008513

>  <CONTRIBUTOR>  (2483) 
University of Tokyo Team, {Faculty of Engineering, University of Tokyo

>  <COMMENT>  (2483) 
SMILES=C=CCOC(=O)c(c1)c(ccc1)C(=O)OCC=C
InChI=InChI=1S/C14H14O4/c1-3-9-17-13(15)11-7-5-6-8-12(11)14(16)18-10-4-2/h3-8H,1-2,9-10H2
computed SMILES=O=C(OCC=C)C=1C=CC=CC1C(=O)OCC=C
accession=JP008513
date=2016.01.19 (Created 2008.10.21, modified 2011.05.06)
author=SODA AROMATIC CO., LTD.
license=CC BY-NC-SA
exact mass=246.08921
ionization energy=70 eV
ion type=[M]+*
computed spectral entropy=2.317459687260374
computed normalized entropy=0.7031475711569184
SPLASH=splash10-0006-9400000000-d4992c723061604dda77
submitter=submitter = University of Tokyo Team (Faculty of Engineering, University of Tokyo)
MoNA Rating=3.75

>  <NUM PEAKS>  (2483) 
27

>  <MASS SPECTRAL PEAKS>  (2483) 
27 2.86
29 2.3
39 16.61
41 99.99
42 3.84
43 1.29
50 5.98
51 1.63
57 1.13
65 4.84
74 1.16
75 1.48
76 10.91
77 2.93
93 2.36
98 6.29
104 11.21
105 2.88
115 1.1
121 1.76
132 9.12
149 37.82
150 3.33
172 1.69
188 4.4
189 12.13
190 1.42

>  <PREDICTED SPECTRUM>  (2483) 
26 1
27 63
34 14
37 64
38 90
39 414
40 129
41 702
42 213
43 80
44 75
49 6
50 216
51 138
52 81
53 115
54 61
55 168
56 77
57 157
58 91
59 43
62 56
63 101
64 88
65 275
66 84
67 78
68 38
69 38
70 62
71 8
74 89
75 222
76 339
77 207
78 56
79 109
81 105
89 60
90 38
91 152
92 80
93 155
103 79
104 468
105 354
106 104
115 19
116 6
119 4
120 32
121 107
122 84
130 2
131 52
132 330
133 284
141 52
142 70
149 999
150 310
151 35
161 315
162 151
163 29
189 366
190 173
191 1

$$$$

     RDKit          2D

 16 16  0  0  0  0  0  0  0  0999 V2000
   -2.9356    5.4356    0.0000 C   0  0  0  0  0  0  0  0  0  0  0  0
    6.1662    0.1908    0.0000 C   0  0  0  0  0  0  0  0  0  0  0  0
   -1.6353    4.6878    0.0000 C   0  0  0  0  0  0  0  0  0  0  0  0
    4.8670    0.9406    0.0000 C   0  0  0  0  0  0  0  0  0  0  0  0
   -1.6200   -1.3100    0.0000 C   0  0  0  0  0  0  0  0  0  0  0  0
   -0.3300   -2.0600    0.0000 C   0  0  0  0  0  0  0  0  0  0  0  0
   -1.6200    0.1900    0.0000 C   0  0  0  0  0  0  0  0  0  0  0  0
    0.9700   -1.3100    0.0000 C   0  0  0  0  0  0  0  0  0  0  0  0
   -0.3300    0.9400    0.0000 C   0  0  0  0  0  0  0  0  0  0  0  0
    0.9700    0.1900    0.0000 C   0  0  0  0  0  0  0  0  0  0  0  0
   -0.3325    2.4400    0.0000 C   0  0  0  0  0  0  0  0  0  0  0  0
    2.2689    0.9402    0.0000 C   0  0  0  0  0  0  0  0  0  0  0  0
    0.9653    3.1922    0.0000 O   0  0  0  0  0  0  0  0  0  0  0  0
    2.2687    2.4402    0.0000 O   0  0  0  0  0  0  0  0  0  0  0  0
   -1.6328    3.1878    0.0000 O   0  0  0  0  0  0  0  0  0  0  0  0
    3.5681    0.1904    0.0000 O   0  0  0  0  0  0  0  0  0  0  0  0
  3  1  1  0
  4  2  1  0
  6  5  2  0
  7  5  1  0
  8  6  1  0
  9  7  2  0
 10  8  2  0
 10  9  1  0
 11  9  1  0
 12 10  1  0
 13 11  2  0
 14 12  2  0
 15  3  1  0
 15 11  1  0
 16  4  1  0
 16 12  1  0
M  END
>  <NAME>  (2484) 
DIETHYL PHTHALATE

>  <SYNONYMS>  (2484) 


>  <SPECTRUM TYPE>  (2484) 
MS1

>  <INSTRUMENT TYPE>  (2484) 
EI-B

>  <INSTRUMENT>  (2484) 
HITACHI M-80B

>  <ION MODE>  (2484) 
P

>  <INCHIKEY>  (2484) 
FLKPEMZONWLCSK-UHFFFAOYSA-N

>  <FORMULA>  (2484) 
C12H14O4

>  <EXACT MASS>  (2484) 
222.089208928

>  <MW>  (2484) 
222

>  <ID>  (2484) 
JP008512

>  <CONTRIBUTOR>  (2484) 
University of Tokyo Team, {Faculty of Engineering, University of Tokyo

>  <COMMENT>  (2484) 
SMILES=CCOC(=O)c(c1)c(ccc1)C(=O)OCC
InChI=InChI=1S/C12H14O4/c1-3-15-11(13)9-7-5-6-8-10(9)12(14)16-4-2/h5-8H,3-4H2,1-2H3
computed SMILES=O=C(OCC)C=1C=CC=CC1C(=O)OCC
accession=JP008512
date=2016.01.19 (Created 2008.10.21, modified 2011.05.06)
author=SODA AROMATIC CO., LTD.
license=CC BY-NC-SA
exact mass=222.08921
ionization energy=70 eV
ion type=[M]+*
computed spectral entropy=2.181589587247554
computed normalized entropy=0.6777489117141947
SPLASH=splash10-0002-1900000000-40ef56b72df55d26c8ce
submitter=submitter = University of Tokyo Team (Faculty of Engineering, University of Tokyo)
MoNA Rating=3.75

>  <NUM PEAKS>  (2484) 
25

>  <MASS SPECTRAL PEAKS>  (2484) 
27 2.22
29 2.7
39 1.18
50 3.37
51 1.6
65 6.89
66 1.61
74 1.06
75 1.47
76 8.24
77 3.14
93 4.87
104 6.5
105 7.21
106 1.23
121 4.31
122 2.75
132 1.45
149 99.99
150 12.55
151 1.14
176 6.06
177 25.93
178 4.61
222 3.6

>  <PREDICTED SPECTRUM>  (2484) 
26 27
27 108
28 55
29 230
30 9
31 66
37 10
38 24
39 128
41 33
42 25
43 105
44 97
45 106
49 36
50 201
51 142
52 30
53 83
62 22
63 111
64 65
65 328
66 85
73 3
74 104
75 128
76 269
77 211
78 54
91 5
92 99
93 282
94 6
103 68
104 260
105 218
106 93
120 5
121 273
122 119
132 187
148 29
149 999
150 319
151 146
176 94
177 587
178 335
179 46
195 57
222 77

$$$$

     RDKit          2D

 14 14  0  0  0  0  0  0  0  0999 V2000
   -1.6353    4.6878    0.0000 C   0  0  0  0  0  0  0  0  0  0  0  0
    4.8670    0.9406    0.0000 C   0  0  0  0  0  0  0  0  0  0  0  0
   -1.6200   -1.3100    0.0000 C   0  0  0  0  0  0  0  0  0  0  0  0
   -0.3300   -2.0600    0.0000 C   0  0  0  0  0  0  0  0  0  0  0  0
   -1.6200    0.1900    0.0000 C   0  0  0  0  0  0  0  0  0  0  0  0
    0.9700   -1.3100    0.0000 C   0  0  0  0  0  0  0  0  0  0  0  0
   -0.3300    0.9400    0.0000 C   0  0  0  0  0  0  0  0  0  0  0  0
    0.9700    0.1900    0.0000 C   0  0  0  0  0  0  0  0  0  0  0  0
   -0.3325    2.4400    0.0000 C   0  0  0  0  0  0  0  0  0  0  0  0
    2.2689    0.9402    0.0000 C   0  0  0  0  0  0  0  0  0  0  0  0
    0.9653    3.1922    0.0000 O   0  0  0  0  0  0  0  0  0  0  0  0
    2.2687    2.4402    0.0000 O   0  0  0  0  0  0  0  0  0  0  0  0
   -1.6328    3.1878    0.0000 O   0  0  0  0  0  0  0  0  0  0  0  0
    3.5681    0.1904    0.0000 O   0  0  0  0  0  0  0  0  0  0  0  0
  4  3  2  0
  5  3  1  0
  6  4  1  0
  7  5  2  0
  8  6  2  0
  8  7  1  0
  9  7  1  0
 10  8  1  0
 11  9  2  0
 12 10  2  0
 13  1  1  0
 13  9  1  0
 14  2  1  0
 14 10  1  0
M  END
>  <NAME>  (2485) 
DIMETHYL PHTHALATE

>  <SYNONYMS>  (2485) 


>  <SPECTRUM TYPE>  (2485) 
MS1

>  <INSTRUMENT TYPE>  (2485) 
EI-B

>  <INSTRUMENT>  (2485) 
HITACHI M-80B

>  <ION MODE>  (2485) 
P

>  <INCHIKEY>  (2485) 
NIQCNGHVCWTJSM-UHFFFAOYSA-N

>  <FORMULA>  (2485) 
C10H10O4

>  <EXACT MASS>  (2485) 
194.0579088

>  <MW>  (2485) 
194

>  <ID>  (2485) 
JP008511

>  <CONTRIBUTOR>  (2485) 
University of Tokyo Team, {Faculty of Engineering, University of Tokyo

>  <COMMENT>  (2485) 
SMILES=COC(=O)c(c1)c(ccc1)C(=O)OC
InChI=InChI=1S/C10H10O4/c1-13-9(11)7-5-3-4-6-8(7)10(12)14-2/h3-6H,1-2H3
computed SMILES=O=C(OC)C=1C=CC=CC1C(=O)OC
accession=JP008511
date=2016.01.19 (Created 2008.10.21, modified 2011.05.06)
author=SODA AROMATIC CO., LTD.
license=CC BY-NC-SA
exact mass=194.05791
ionization energy=70 eV
ion type=[M]+*
computed spectral entropy=1.8464459247811589
computed normalized entropy=0.6388264484445229
SPLASH=splash10-03di-3900000000-cbc240470004eaf36e39
submitter=submitter = University of Tokyo Team (Faculty of Engineering, University of Tokyo)
MoNA Rating=3.75

>  <NUM PEAKS>  (2485) 
18

>  <MASS SPECTRAL PEAKS>  (2485) 
50 5.96
51 1.65
63 1.04
64 1.44
74 2.25
75 2.09
76 8.86
77 16.35
78 1.06
92 7.49
104 4.85
105 2.46
120 1.71
133 2.95
135 5.93
163 99.99
164 9.89
194 8.14

>  <PREDICTED SPECTRUM>  (2485) 
14 10
15 68
28 8
29 22
31 41
34 9
38 26
39 42
44 58
49 37
50 194
51 134
52 30
53 32
59 45
62 42
63 103
64 119
65 99
66 64
74 59
75 148
76 304
77 366
78 67
79 23
91 42
92 221
93 41
104 265
105 170
119 114
120 168
132 33
133 215
135 170
136 29
149 9
163 999
164 388
165 41
194 261
195 59

$$$$

     RDKit          2D

 13 13  0  0  0  0  0  0  0  0999 V2000
   -4.5510    1.8802    0.0000 C   0  0  0  0  0  0  0  0  0  0  0  0
    5.8522    0.3571    0.0000 C   0  0  0  0  0  0  0  0  0  0  0  0
   -3.2482    2.6238    0.0000 C   0  0  0  0  0  0  0  0  0  0  0  0
    1.9442    2.6046    0.0000 C   0  0  0  0  0  0  0  0  0  0  0  0
    0.6306    0.3798    0.0000 C   0  0  0  0  0  0  0  0  0  0  0  0
    3.2287    1.8798    0.0000 C   0  0  0  0  0  0  0  0  0  0  0  0
    1.9551   -0.4144    0.0000 C   0  0  0  0  0  0  0  0  0  0  0  0
    0.6451    1.8546    0.0000 C   0  0  0  0  0  0  0  0  0  0  0  0
    3.2542    0.3356    0.0000 C   0  0  0  0  0  0  0  0  0  0  0  0
   -0.6502    2.6110    0.0000 C   0  0  0  0  0  0  0  0  0  0  0  0
   -0.6428    4.1110    0.0000 O   0  0  0  0  0  0  0  0  0  0  0  0
    4.5594   -0.4036    0.0000 O   0  0  0  0  0  0  0  0  0  0  0  0
   -1.9529    1.8674    0.0000 O   0  0  0  0  0  0  0  0  0  0  0  0
  3  1  1  0
  6  4  2  0
  7  5  1  0
  8  4  1  0
  8  5  2  0
  9  6  1  0
  9  7  2  0
 10  8  1  0
 11 10  2  0
 12  2  1  0
 12  9  1  0
 13  3  1  0
 13 10  1  0
M  END
>  <NAME>  (2486) 
ETHYL 4-METHOXYBENZOATE

>  <SYNONYMS>  (2486) 
ETHYL ANISATE

>  <SPECTRUM TYPE>  (2486) 
MS1

>  <INSTRUMENT TYPE>  (2486) 
EI-B

>  <INSTRUMENT>  (2486) 
HITACHI M-80B

>  <ION MODE>  (2486) 
P

>  <INCHIKEY>  (2486) 
FHUODBDRWMIBQP-UHFFFAOYSA-N

>  <FORMULA>  (2486) 
C10H12O3

>  <EXACT MASS>  (2486) 
180.07864424399997

>  <MW>  (2486) 
180

>  <ID>  (2486) 
JP008510

>  <CONTRIBUTOR>  (2486) 
University of Tokyo Team, {Faculty of Engineering, University of Tokyo

>  <COMMENT>  (2486) 
SMILES=CCOC(=O)c(c1)ccc(OC)c1
InChI=InChI=1S/C10H12O3/c1-3-13-10(11)8-4-6-9(12-2)7-5-8/h4-7H,3H2,1-2H3
computed SMILES=O=C(OCC)C1=CC=C(OC)C=C1
accession=JP008510
date=2016.01.19 (Created 2008.10.21, modified 2011.05.06)
author=SODA AROMATIC CO., LTD.
license=CC BY-NC-SA
exact mass=180.07864
ionization energy=70 eV
ion type=[M]+*
computed spectral entropy=2.209430793271668
computed normalized entropy=0.6781354596120627
SPLASH=splash10-000i-3900000000-83ce4033728cb10b804b
submitter=submitter = University of Tokyo Team (Faculty of Engineering, University of Tokyo)
MoNA Rating=3.75

>  <NUM PEAKS>  (2486) 
26

>  <MASS SPECTRAL PEAKS>  (2486) 
27 3.06
29 2.61
38 1.58
39 1.17
50 2.38
51 1.73
53 1.01
62 1.14
63 6.57
64 8.17
65 1.77
74 1.12
75 1.21
76 2
77 14.45
78 1.25
92 13.15
107 6.72
108 1.21
135 99.99
136 12.08
152 16.63
153 1.39
165 1.61
180 26.81
181 2.7

>  <PREDICTED SPECTRUM>  (2486) 
14 15
15 66
25 0
26 53
27 142
28 58
29 240
30 7
31 1
36 3
37 35
38 111
39 158
40 6
41 20
43 28
45 126
50 213
51 248
52 95
53 117
61 28
62 130
63 291
64 294
65 228
66 93
74 126
75 131
76 229
77 535
78 178
79 125
80 2
89 42
90 5
91 131
92 387
93 103
103 104
104 63
105 138
106 44
107 373
108 185
109 111
119 12
120 36
121 34
135 999
136 337
137 138
152 531
153 224
154 35
165 137
166 6
180 544
181 168
182 62

$$$$

     RDKit          2D

 12 12  0  0  0  0  0  0  0  0999 V2000
    5.1971   -0.7647    0.0000 C   0  0  0  0  0  0  0  0  0  0  0  0
   -3.9033    1.5020    0.0000 C   0  0  0  0  0  0  0  0  0  0  0  0
    1.2891    1.4828    0.0000 C   0  0  0  0  0  0  0  0  0  0  0  0
   -0.0244   -0.7420    0.0000 C   0  0  0  0  0  0  0  0  0  0  0  0
    2.5736    0.7580    0.0000 C   0  0  0  0  0  0  0  0  0  0  0  0
    1.3001   -1.5362    0.0000 C   0  0  0  0  0  0  0  0  0  0  0  0
   -0.0099    0.7328    0.0000 C   0  0  0  0  0  0  0  0  0  0  0  0
    2.5991   -0.7862    0.0000 C   0  0  0  0  0  0  0  0  0  0  0  0
   -1.3052    1.4892    0.0000 C   0  0  0  0  0  0  0  0  0  0  0  0
   -1.2979    2.9892    0.0000 O   0  0  0  0  0  0  0  0  0  0  0  0
    3.9043   -1.5254    0.0000 O   0  0  0  0  0  0  0  0  0  0  0  0
   -2.6080    0.7456    0.0000 O   0  0  0  0  0  0  0  0  0  0  0  0
  5  3  2  0
  6  4  1  0
  7  3  1  0
  7  4  2  0
  8  5  1  0
  8  6  2  0
  9  7  1  0
 10  9  2  0
 11  1  1  0
 11  8  1  0
 12  2  1  0
 12  9  1  0
M  END
>  <NAME>  (2487) 
METHYL 4-METHOXYBENZOATE

>  <SYNONYMS>  (2487) 
METHYL ANISATE

>  <SPECTRUM TYPE>  (2487) 
MS1

>  <INSTRUMENT TYPE>  (2487) 
EI-B

>  <INSTRUMENT>  (2487) 
HITACHI M-80B

>  <ION MODE>  (2487) 
P

>  <INCHIKEY>  (2487) 
DDIZAANNODHTRB-UHFFFAOYSA-N

>  <FORMULA>  (2487) 
C9H10O3

>  <EXACT MASS>  (2487) 
166.06299417999998

>  <MW>  (2487) 
166

>  <ID>  (2487) 
JP008509

>  <CONTRIBUTOR>  (2487) 
University of Tokyo Team, {Faculty of Engineering, University of Tokyo

>  <COMMENT>  (2487) 
SMILES=COc(c1)ccc(c1)C(=O)OC
InChI=InChI=1S/C9H10O3/c1-11-8-5-3-7(4-6-8)9(10)12-2/h3-6H,1-2H3
computed SMILES=O=C(OC)C1=CC=C(OC)C=C1
accession=JP008509
date=2016.01.19 (Created 2008.10.21, modified 2011.05.06)
author=SODA AROMATIC CO., LTD.
license=CC BY-NC-SA
exact mass=166.06299
ionization energy=70 eV
ion type=[M]+*
computed spectral entropy=2.1346398801009037
computed normalized entropy=0.6631631651054163
SPLASH=splash10-000i-4900000000-d64fd9a65666e73ced8a
submitter=submitter = University of Tokyo Team (Faculty of Engineering, University of Tokyo)
MoNA Rating=3.75

>  <NUM PEAKS>  (2487) 
25

>  <MASS SPECTRAL PEAKS>  (2487) 
15 2.2
29 2.16
38 2.31
39 1.3
50 2.92
51 2.04
53 1.06
62 1.64
63 8.21
64 8.45
65 1.12
74 1.64
75 1.53
76 2.37
77 16.62
78 1.28
79 1.11
92 14.88
107 8.04
123 1.23
135 99.99
136 10.31
165 1.27
166 39.28
167 3.56

>  <PREDICTED SPECTRUM>  (2487) 
14 48
15 185
16 33
25 10
26 49
27 49
28 19
29 119
30 21
31 84
37 88
38 182
39 175
40 7
41 5
49 40
50 281
51 240
52 129
53 157
54 26
59 233
61 77
62 219
63 428
64 398
65 207
66 69
74 141
75 191
76 283
77 561
78 152
79 229
80 54
91 83
92 423
93 113
94 42
95 94
104 74
105 85
106 6
107 369
108 157
119 25
120 111
121 122
122 80
123 107
135 999
136 332
137 143
138 27
165 106
166 786
167 266
168 99

$$$$

     RDKit          2D

 17 18  0  0  0  0  0  0  0  0999 V2000
    4.5466    2.1950    0.0000 C   0  0  0  0  0  0  0  0  0  0  0  0
   -7.1447    5.9450    0.0000 C   0  0  0  0  0  0  0  0  0  0  0  0
    4.5471    3.6958    0.0000 C   0  0  0  0  0  0  0  0  0  0  0  0
    3.2471    1.4442    0.0000 C   0  0  0  0  0  0  0  0  0  0  0  0
   -7.1452    4.4442    0.0000 C   0  0  0  0  0  0  0  0  0  0  0  0
   -5.8452    6.6958    0.0000 C   0  0  0  0  0  0  0  0  0  0  0  0
    3.2481    4.4458    0.0000 C   0  0  0  0  0  0  0  0  0  0  0  0
    1.9481    2.1942    0.0000 C   0  0  0  0  0  0  0  0  0  0  0  0
   -5.8462    3.6942    0.0000 C   0  0  0  0  0  0  0  0  0  0  0  0
   -4.5462    5.9458    0.0000 C   0  0  0  0  0  0  0  0  0  0  0  0
    0.6495    4.4450    0.0000 C   0  0  0  0  0  0  0  0  0  0  0  0
   -3.2476    3.6950    0.0000 C   0  0  0  0  0  0  0  0  0  0  0  0
    1.9486    3.6950    0.0000 C   0  0  0  0  0  0  0  0  0  0  0  0
   -4.5466    4.4450    0.0000 C   0  0  0  0  0  0  0  0  0  0  0  0
   -0.6495    3.6950    0.0000 C   0  0  0  0  0  0  0  0  0  0  0  0
   -0.6495    2.1950    0.0000 O   0  0  0  0  0  0  0  0  0  0  0  0
   -1.9486    4.4450    0.0000 O   0  0  0  0  0  0  0  0  0  0  0  0
  3  1  2  0
  4  1  1  0
  5  2  2  0
  6  2  1  0
  7  3  1  0
  8  4  2  0
  9  5  1  0
 10  6  2  0
 13  7  2  0
 13  8  1  0
 13 11  1  0
 14  9  2  0
 14 10  1  0
 14 12  1  0
 15 11  1  0
 16 15  2  0
 17 12  1  0
 17 15  1  0
M  END
>  <NAME>  (2488) 
BENZYL PHENYLACETATE

>  <SYNONYMS>  (2488) 


>  <SPECTRUM TYPE>  (2488) 
MS1

>  <INSTRUMENT TYPE>  (2488) 
EI-B

>  <INSTRUMENT>  (2488) 
HITACHI M-80B

>  <ION MODE>  (2488) 
P

>  <INCHIKEY>  (2488) 
MIYFJEKZLFWKLZ-UHFFFAOYSA-N

>  <FORMULA>  (2488) 
C15H14O2

>  <EXACT MASS>  (2488) 
226.099379688

>  <MW>  (2488) 
226

>  <ID>  (2488) 
JP008508

>  <CONTRIBUTOR>  (2488) 
University of Tokyo Team, {Faculty of Engineering, University of Tokyo

>  <COMMENT>  (2488) 
SMILES=O=C(OCc(c2)cccc2)Cc(c1)cccc1
InChI=InChI=1S/C15H14O2/c16-15(11-13-7-3-1-4-8-13)17-12-14-9-5-2-6-10-14/h1-10H,11-12H2
computed SMILES=O=C(OCC=1C=CC=CC1)CC=2C=CC=CC2
accession=JP008508
date=2016.01.19 (Created 2008.10.21, modified 2011.05.06)
author=SODA AROMATIC CO., LTD.
license=CC BY-NC-SA
exact mass=226.09938
ionization energy=70 eV
ion type=[M]+*
computed spectral entropy=1.2960670839167598
computed normalized entropy=0.5215757638329527
SPLASH=splash10-0006-9000000000-43beb664c9482065b76e
submitter=submitter = University of Tokyo Team (Faculty of Engineering, University of Tokyo)
MoNA Rating=3.75

>  <NUM PEAKS>  (2488) 
12

>  <MASS SPECTRAL PEAKS>  (2488) 
39 4.86
41 1.14
51 3.5
63 2.12
65 11.75
77 2.41
89 2.18
90 1.76
91 99.99
92 9.23
108 1.92
226 5.06

>  <PREDICTED SPECTRUM>  (2488) 
26 8
27 46
28 4
29 22
36 0
37 18
38 59
39 203
40 80
41 172
42 56
43 79
44 89
45 17
49 11
50 119
51 202
52 107
53 70
54 15
57 7
61 22
62 85
63 169
64 123
65 376
66 90
70 13
74 29
75 65
76 55
77 176
78 86
79 138
80 12
81 10
82 20
88 0
89 233
90 227
91 999
92 377
93 95
105 103
106 42
107 159
108 146
109 5
111 10
118 214
119 50
120 17
134 72
135 154
136 57
181 92
182 8
226 364
227 142
228 20

$$$$

     RDKit          2D

 18 18  0  0  0  0  0  0  0  0999 V2000
  -11.3663    6.5071    0.0000 C   0  0  0  0  0  0  0  0  0  0  0  0
  -10.0673    5.7571    0.0000 C   0  0  0  0  0  0  0  0  0  0  0  0
   -8.7683    6.5071    0.0000 C   0  0  0  0  0  0  0  0  0  0  0  0
   -7.4692    5.7571    0.0000 C   0  0  0  0  0  0  0  0  0  0  0  0
   -6.1702    6.5071    0.0000 C   0  0  0  0  0  0  0  0  0  0  0  0
   -4.8712    5.7571    0.0000 C   0  0  0  0  0  0  0  0  0  0  0  0
    5.5212    4.2571    0.0000 C   0  0  0  0  0  0  0  0  0  0  0  0
    5.5216    5.7579    0.0000 C   0  0  0  0  0  0  0  0  0  0  0  0
    4.2216    3.5063    0.0000 C   0  0  0  0  0  0  0  0  0  0  0  0
   -3.5721    6.5071    0.0000 C   0  0  0  0  0  0  0  0  0  0  0  0
    4.2226    6.5079    0.0000 C   0  0  0  0  0  0  0  0  0  0  0  0
    2.9226    4.2563    0.0000 C   0  0  0  0  0  0  0  0  0  0  0  0
   -2.2731    5.7571    0.0000 C   0  0  0  0  0  0  0  0  0  0  0  0
    1.6240    6.5071    0.0000 C   0  0  0  0  0  0  0  0  0  0  0  0
    2.9231    5.7571    0.0000 C   0  0  0  0  0  0  0  0  0  0  0  0
    0.3250    5.7571    0.0000 C   0  0  0  0  0  0  0  0  0  0  0  0
    0.3250    4.2571    0.0000 O   0  0  0  0  0  0  0  0  0  0  0  0
   -0.9740    6.5071    0.0000 O   0  0  0  0  0  0  0  0  0  0  0  0
  2  1  1  0
  3  2  1  0
  4  3  1  0
  5  4  1  0
  6  5  1  0
  8  7  2  0
  9  7  1  0
 10  6  1  0
 11  8  1  0
 12  9  2  0
 13 10  1  0
 15 11  2  0
 15 12  1  0
 15 14  1  0
 16 14  1  0
 17 16  2  0
 18 13  1  0
 18 16  1  0
M  END
>  <NAME>  (2489) 
OCTYL PHENYLACETATE

>  <SYNONYMS>  (2489) 


>  <SPECTRUM TYPE>  (2489) 
MS1

>  <INSTRUMENT TYPE>  (2489) 
EI-B

>  <INSTRUMENT>  (2489) 
HITACHI M-80B

>  <ION MODE>  (2489) 
P

>  <INCHIKEY>  (2489) 
VGYPAVUJUMQTGE-UHFFFAOYSA-N

>  <FORMULA>  (2489) 
C16H24O2

>  <EXACT MASS>  (2489) 
248.177630008

>  <MW>  (2489) 
248

>  <ID>  (2489) 
JP008507

>  <CONTRIBUTOR>  (2489) 
University of Tokyo Team, {Faculty of Engineering, University of Tokyo

>  <COMMENT>  (2489) 
SMILES=CCCCCCCCOC(=O)Cc(c1)cccc1
InChI=InChI=1S/C16H24O2/c1-2-3-4-5-6-10-13-18-16(17)14-15-11-8-7-9-12-15/h7-9,11-12H,2-6,10,13-14H2,1H3
computed SMILES=O=C(OCCCCCCCC)CC=1C=CC=CC1
accession=JP008507
date=2016.01.19 (Created 2008.10.21, modified 2011.05.06)
author=SODA AROMATIC CO., LTD.
license=CC BY-NC-SA
exact mass=248.17763
ionization energy=70 eV
ion type=[M]+*
computed spectral entropy=2.8404941775772863
computed normalized entropy=0.7808733739494281
SPLASH=splash10-0006-9100000000-c9aa0ac707d694f5661f
submitter=submitter = University of Tokyo Team (Faculty of Engineering, University of Tokyo)
MoNA Rating=3.75

>  <NUM PEAKS>  (2489) 
38

>  <MASS SPECTRAL PEAKS>  (2489) 
27 9.74
29 17.22
39 9.62
41 37.35
42 9.86
43 60.05
51 2.15
53 1.56
54 1.04
55 16.23
56 7.2
57 62.68
58 2.23
63 2.55
64 1.05
65 15.54
67 1.03
68 1.26
69 7.88
70 4.78
71 40.9
72 1.74
77 1
83 3.27
84 2.9
89 3.3
90 3.29
91 99.99
92 22.8
93 1.31
112 3.88
118 1
119 2.26
136 35.38
137 16.82
138 1.15
157 13.86
158 1.15

>  <PREDICTED SPECTRUM>  (2489) 
25 11
26 64
27 250
28 76
29 318
30 73
36 33
37 9
38 53
39 280
40 133
41 546
42 281
43 676
44 170
45 8
46 4
50 65
51 143
52 90
53 122
54 97
55 452
56 312
57 718
58 116
61 34
62 78
63 192
64 120
65 366
66 117
67 107
68 107
69 275
70 280
71 478
72 41
77 122
78 68
79 97
80 23
81 95
82 98
83 184
84 226
85 204
86 14
89 250
90 259
91 999
92 523
93 176
94 33
96 34
97 149
99 49
105 65
106 45
107 17
110 8
112 317
113 87
118 91
119 199
120 66
121 31
129 23
135 56
136 861
137 630
138 141
139 31
157 529
158 164
248 248
249 113

$$$$

     RDKit          2D

 17 17  0  0  0  0  0  0  0  0999 V2000
    5.5216    5.0079    0.0000 C   0  0  0  0  0  0  0  0  0  0  0  0
    4.2226    4.2579    0.0000 C   0  0  0  0  0  0  0  0  0  0  0  0
    2.9236    5.0079    0.0000 C   0  0  0  0  0  0  0  0  0  0  0  0
    1.6245    4.2579    0.0000 C   0  0  0  0  0  0  0  0  0  0  0  0
    0.3255    5.0079    0.0000 C   0  0  0  0  0  0  0  0  0  0  0  0
  -10.0668    6.5079    0.0000 C   0  0  0  0  0  0  0  0  0  0  0  0
  -10.0673    5.0071    0.0000 C   0  0  0  0  0  0  0  0  0  0  0  0
   -8.7673    7.2587    0.0000 C   0  0  0  0  0  0  0  0  0  0  0  0
   -0.9736    4.2579    0.0000 C   0  0  0  0  0  0  0  0  0  0  0  0
   -8.7683    4.2571    0.0000 C   0  0  0  0  0  0  0  0  0  0  0  0
   -7.4683    6.5087    0.0000 C   0  0  0  0  0  0  0  0  0  0  0  0
   -2.2726    5.0079    0.0000 C   0  0  0  0  0  0  0  0  0  0  0  0
   -6.1697    4.2579    0.0000 C   0  0  0  0  0  0  0  0  0  0  0  0
   -7.4687    5.0079    0.0000 C   0  0  0  0  0  0  0  0  0  0  0  0
   -4.8707    5.0079    0.0000 C   0  0  0  0  0  0  0  0  0  0  0  0
   -4.8707    6.5079    0.0000 O   0  0  0  0  0  0  0  0  0  0  0  0
   -3.5716    4.2579    0.0000 O   0  0  0  0  0  0  0  0  0  0  0  0
  2  1  1  0
  3  2  1  0
  4  3  1  0
  5  4  1  0
  7  6  2  0
  8  6  1  0
  9  5  1  0
 10  7  1  0
 11  8  2  0
 12  9  1  0
 14 10  2  0
 14 11  1  0
 14 13  1  0
 15 13  1  0
 16 15  2  0
 17 12  1  0
 17 15  1  0
M  END
>  <NAME>  (2490) 
HEPTYL PHENYLACETATE

>  <SYNONYMS>  (2490) 


>  <SPECTRUM TYPE>  (2490) 
MS1

>  <INSTRUMENT TYPE>  (2490) 
EI-B

>  <INSTRUMENT>  (2490) 
HITACHI M-80B

>  <ION MODE>  (2490) 
P

>  <INCHIKEY>  (2490) 
MFCMCQJYPOAXCB-UHFFFAOYSA-N

>  <FORMULA>  (2490) 
C15H22O2

>  <EXACT MASS>  (2490) 
234.161979944

>  <MW>  (2490) 
234

>  <ID>  (2490) 
JP008506

>  <CONTRIBUTOR>  (2490) 
University of Tokyo Team, {Faculty of Engineering, University of Tokyo

>  <COMMENT>  (2490) 
SMILES=CCCCCCCOC(=O)Cc(c1)cccc1
InChI=InChI=1S/C15H22O2/c1-2-3-4-5-9-12-17-15(16)13-14-10-7-6-8-11-14/h6-8,10-11H,2-5,9,12-13H2,1H3
computed SMILES=O=C(OCCCCCCC)CC=1C=CC=CC1
accession=JP008506
date=2016.01.19 (Created 2008.10.21, modified 2011.05.06)
author=SODA AROMATIC CO., LTD.
license=CC BY-NC-SA
exact mass=234.16198
ionization energy=70 eV
ion type=[M]+*
computed spectral entropy=2.608750035585613
computed normalized entropy=0.7670093037384158
SPLASH=splash10-052f-9100000000-bdbd08069a7de34cff94
submitter=submitter = University of Tokyo Team (Faculty of Engineering, University of Tokyo)
MoNA Rating=3.75

>  <NUM PEAKS>  (2490) 
30

>  <MASS SPECTRAL PEAKS>  (2490) 
27 9.49
29 17.37
39 10.11
41 33.93
42 6.94
43 45.29
51 2.3
53 1.45
55 13.55
56 7.57
57 99.99
58 3.16
63 2.7
64 1.04
65 15.11
68 1.04
69 3.71
70 4.24
71 1.26
89 3.27
90 3.01
91 97.39
92 25.37
93 1.39
98 4.71
119 2.06
136 30.67
137 13.71
143 11.53
234 1.08

>  <PREDICTED SPECTRUM>  (2490) 
25 9
26 63
27 248
28 73
29 306
30 72
36 18
38 47
39 281
40 126
41 532
42 275
43 706
44 163
50 66
51 144
52 80
53 114
54 76
55 418
56 312
57 712
58 107
61 21
62 77
63 191
64 114
65 371
66 100
67 80
68 88
69 259
70 293
71 423
72 25
73 5
77 96
78 51
79 88
80 10
81 69
82 84
83 145
84 103
85 19
89 255
90 278
91 999
92 515
93 173
96 1
97 97
98 331
99 93
105 71
106 30
107 6
115 29
116 17
117 12
118 134
119 157
120 42
121 37
136 878
137 627
138 66
143 530
144 109
234 261
235 104

$$$$

     RDKit          2D

 16 16  0  0  0  0  0  0  0  0999 V2000
    5.5216    4.2579    0.0000 C   0  0  0  0  0  0  0  0  0  0  0  0
    4.2226    5.0079    0.0000 C   0  0  0  0  0  0  0  0  0  0  0  0
    2.9236    4.2579    0.0000 C   0  0  0  0  0  0  0  0  0  0  0  0
    1.6245    5.0079    0.0000 C   0  0  0  0  0  0  0  0  0  0  0  0
   -8.7678    6.5079    0.0000 C   0  0  0  0  0  0  0  0  0  0  0  0
   -8.7683    5.0071    0.0000 C   0  0  0  0  0  0  0  0  0  0  0  0
   -7.4683    7.2587    0.0000 C   0  0  0  0  0  0  0  0  0  0  0  0
    0.3255    4.2579    0.0000 C   0  0  0  0  0  0  0  0  0  0  0  0
   -7.4692    4.2571    0.0000 C   0  0  0  0  0  0  0  0  0  0  0  0
   -6.1692    6.5087    0.0000 C   0  0  0  0  0  0  0  0  0  0  0  0
   -0.9736    5.0079    0.0000 C   0  0  0  0  0  0  0  0  0  0  0  0
   -4.8707    4.2579    0.0000 C   0  0  0  0  0  0  0  0  0  0  0  0
   -6.1697    5.0079    0.0000 C   0  0  0  0  0  0  0  0  0  0  0  0
   -3.5716    5.0079    0.0000 C   0  0  0  0  0  0  0  0  0  0  0  0
   -3.5716    6.5079    0.0000 O   0  0  0  0  0  0  0  0  0  0  0  0
   -2.2726    4.2579    0.0000 O   0  0  0  0  0  0  0  0  0  0  0  0
  2  1  1  0
  3  2  1  0
  4  3  1  0
  6  5  2  0
  7  5  1  0
  8  4  1  0
  9  6  1  0
 10  7  2  0
 11  8  1  0
 13  9  2  0
 13 10  1  0
 13 12  1  0
 14 12  1  0
 15 14  2  0
 16 11  1  0
 16 14  1  0
M  END
>  <NAME>  (2491) 
HEXYL PHENYLACETATE

>  <SYNONYMS>  (2491) 


>  <SPECTRUM TYPE>  (2491) 
MS1

>  <INSTRUMENT TYPE>  (2491) 
EI-B

>  <INSTRUMENT>  (2491) 
HITACHI M-80B

>  <ION MODE>  (2491) 
P

>  <INCHIKEY>  (2491) 
MTAHGWGAEGVCLS-UHFFFAOYSA-N

>  <FORMULA>  (2491) 
C14H20O2

>  <EXACT MASS>  (2491) 
220.14632988

>  <MW>  (2491) 
220

>  <ID>  (2491) 
JP008505

>  <CONTRIBUTOR>  (2491) 
University of Tokyo Team, {Faculty of Engineering, University of Tokyo

>  <COMMENT>  (2491) 
SMILES=CCCCCCOC(=O)Cc(c1)cccc1
InChI=InChI=1S/C14H20O2/c1-2-3-4-8-11-16-14(15)12-13-9-6-5-7-10-13/h5-7,9-10H,2-4,8,11-12H2,1H3
computed SMILES=O=C(OCCCCCC)CC=1C=CC=CC1
accession=JP008505
date=2016.01.19 (Created 2008.10.21, modified 2011.05.06)
author=SODA AROMATIC CO., LTD.
license=CC BY-NC-SA
exact mass=220.14633
ionization energy=70 eV
ion type=[M]+*
computed spectral entropy=2.4798803039800936
computed normalized entropy=0.7524281100073222
SPLASH=splash10-0006-9100000000-3b78f236a955e5f6d3db
submitter=submitter = University of Tokyo Team (Faculty of Engineering, University of Tokyo)
MoNA Rating=3.75

>  <NUM PEAKS>  (2491) 
27

>  <MASS SPECTRAL PEAKS>  (2491) 
27 9.01
29 10.61
39 9.03
41 21.56
42 5.42
43 99.99
44 2.8
51 2.25
53 1.01
55 7.89
56 5.03
57 11.1
63 2.63
65 13.94
69 1.76
84 2.67
85 5.93
89 2.97
90 2.58
91 84.95
92 24.28
93 1.48
119 1.81
129 7.96
136 23.33
137 9.95
220 1.42

>  <PREDICTED SPECTRUM>  (2491) 
25 5
26 59
27 250
28 60
29 281
30 77
36 17
37 1
38 52
39 275
40 118
41 493
42 272
43 808
44 182
50 54
51 139
52 66
53 97
54 54
55 353
56 318
57 561
58 71
61 6
62 66
63 185
64 91
65 358
66 77
67 21
68 27
69 236
70 10
71 101
73 33
74 3
77 85
78 47
79 66
81 15
82 58
83 96
84 367
85 189
86 33
89 253
90 293
91 999
92 511
93 149
101 34
102 28
103 6
104 0
105 8
107 4
118 166
119 221
120 48
128 23
129 438
130 109
136 852
137 590
138 20
220 272
221 97

$$$$

     RDKit          2D

 16 16  0  0  0  0  0  0  0  0999 V2000
   -0.0002    7.0696    0.0000 C   0  0  0  0  0  0  0  0  0  0  0  0
   -1.2993    6.3196    0.0000 C   0  0  0  0  0  0  0  0  0  0  0  0
   -1.2993    4.8196    0.0000 C   0  0  0  0  0  0  0  0  0  0  0  0
   -2.5983    4.0696    0.0000 C   0  0  0  0  0  0  0  0  0  0  0  0
  -12.9906    2.5696    0.0000 C   0  0  0  0  0  0  0  0  0  0  0  0
  -12.9911    4.0704    0.0000 C   0  0  0  0  0  0  0  0  0  0  0  0
  -11.6911    1.8188    0.0000 C   0  0  0  0  0  0  0  0  0  0  0  0
   -3.8974    4.8196    0.0000 C   0  0  0  0  0  0  0  0  0  0  0  0
  -11.6921    4.8204    0.0000 C   0  0  0  0  0  0  0  0  0  0  0  0
  -10.3921    2.5688    0.0000 C   0  0  0  0  0  0  0  0  0  0  0  0
   -5.1964    4.0696    0.0000 C   0  0  0  0  0  0  0  0  0  0  0  0
   -9.0935    4.8196    0.0000 C   0  0  0  0  0  0  0  0  0  0  0  0
  -10.3925    4.0696    0.0000 C   0  0  0  0  0  0  0  0  0  0  0  0
   -7.7945    4.0696    0.0000 C   0  0  0  0  0  0  0  0  0  0  0  0
   -7.7945    2.5696    0.0000 O   0  0  0  0  0  0  0  0  0  0  0  0
   -6.4954    4.8196    0.0000 O   0  0  0  0  0  0  0  0  0  0  0  0
  2  1  1  0
  3  2  1  0
  3  4  2  0
  6  5  2  0
  7  5  1  0
  8  4  1  0
  9  6  1  0
 10  7  2  0
 11  8  1  0
 13  9  2  0
 13 10  1  0
 13 12  1  0
 14 12  1  0
 15 14  2  0
 16 11  1  0
 16 14  1  0
M  END
>  <NAME>  (2492) 
CIS-3-HEXENYL PHENYLACETATE

>  <SYNONYMS>  (2492) 


>  <SPECTRUM TYPE>  (2492) 
MS1

>  <INSTRUMENT TYPE>  (2492) 
EI-B

>  <INSTRUMENT>  (2492) 
HITACHI M-80B

>  <ION MODE>  (2492) 
P

>  <INCHIKEY>  (2492) 
FJKFIIYSBXHBCT-ARJAWSKDSA-N

>  <FORMULA>  (2492) 
C14H18O2

>  <EXACT MASS>  (2492) 
218.130679816

>  <MW>  (2492) 
218

>  <ID>  (2492) 
JP008504

>  <CONTRIBUTOR>  (2492) 
University of Tokyo Team, {Faculty of Engineering, University of Tokyo

>  <COMMENT>  (2492) 
SMILES=CCC=CCCOC(=O)Cc(c1)cccc1
InChI=InChI=1S/C14H18O2/c1-2-3-4-8-11-16-14(15)12-13-9-6-5-7-10-13/h3-7,9-10H,2,8,11-12H2,1H3/b4-3-
computed SMILES=O=C(OCCC=CCC)CC=1C=CC=CC1
accession=JP008504
date=2016.01.19 (Created 2008.10.21, modified 2011.05.06)
author=SODA AROMATIC CO., LTD.
license=CC BY-NC-SA
exact mass=218.13068
ionization energy=70 eV
ion type=[M]+*
computed spectral entropy=2.4404319054392047
computed normalized entropy=0.6864115308071566
SPLASH=splash10-000x-9000000000-6d03e0fb21e55893cf72
submitter=submitter = University of Tokyo Team (Faculty of Engineering, University of Tokyo)
MoNA Rating=3.75

>  <NUM PEAKS>  (2492) 
35

>  <MASS SPECTRAL PEAKS>  (2492) 
16 1.51
26 1.16
27 5.57
29 2.26
38 1.04
39 11.96
41 26.14
42 2.34
43 1.67
50 1.49
51 3.32
52 1.55
53 4.01
54 4.16
55 21.07
56 1.2
63 3.25
64 1.53
65 12.03
66 1.79
67 47.29
68 2.78
69 1.67
77 2.13
79 1.19
81 3.81
82 92.12
83 5.33
89 3.21
90 3.3
91 99.99
92 8.1
105 1.01
118 1.08
119 3.45

>  <PREDICTED SPECTRUM>  (2492) 
26 81
27 283
28 74
29 291
31 24
37 12
38 75
39 393
40 158
41 448
42 224
43 280
44 129
49 10
50 174
51 248
52 159
53 304
54 355
55 600
56 136
57 152
62 94
63 282
64 137
65 437
66 173
67 754
68 279
69 312
75 3
76 48
77 223
78 108
79 250
81 563
82 999
83 612
84 61
89 226
90 160
91 925
92 300
95 85
99 127
100 43
103 31
104 11
105 76
107 25
118 179
119 127
136 107
137 82

$$$$

     RDKit          2D

 15 15  0  0  0  0  0  0  0  0999 V2000
    4.8721    3.8829    0.0000 C   0  0  0  0  0  0  0  0  0  0  0  0
    3.5731    3.1329    0.0000 C   0  0  0  0  0  0  0  0  0  0  0  0
    2.2740    3.8829    0.0000 C   0  0  0  0  0  0  0  0  0  0  0  0
   -8.1183    5.3829    0.0000 C   0  0  0  0  0  0  0  0  0  0  0  0
   -8.1187    3.8821    0.0000 C   0  0  0  0  0  0  0  0  0  0  0  0
   -6.8187    6.1337    0.0000 C   0  0  0  0  0  0  0  0  0  0  0  0
    0.9750    3.1329    0.0000 C   0  0  0  0  0  0  0  0  0  0  0  0
   -6.8197    3.1321    0.0000 C   0  0  0  0  0  0  0  0  0  0  0  0
   -5.5197    5.3837    0.0000 C   0  0  0  0  0  0  0  0  0  0  0  0
   -0.3240    3.8829    0.0000 C   0  0  0  0  0  0  0  0  0  0  0  0
   -4.2212    3.1329    0.0000 C   0  0  0  0  0  0  0  0  0  0  0  0
   -5.5202    3.8829    0.0000 C   0  0  0  0  0  0  0  0  0  0  0  0
   -2.9221    3.8829    0.0000 C   0  0  0  0  0  0  0  0  0  0  0  0
   -2.9221    5.3829    0.0000 O   0  0  0  0  0  0  0  0  0  0  0  0
   -1.6231    3.1329    0.0000 O   0  0  0  0  0  0  0  0  0  0  0  0
  2  1  1  0
  3  2  1  0
  5  4  2  0
  6  4  1  0
  7  3  1  0
  8  5  1  0
  9  6  2  0
 10  7  1  0
 12  8  2  0
 12  9  1  0
 12 11  1  0
 13 11  1  0
 14 13  2  0
 15 10  1  0
 15 13  1  0
M  END
>  <NAME>  (2493) 
PENTYL PHENYLACETATE

>  <SYNONYMS>  (2493) 
AMYL PHENYLACETATE

>  <SPECTRUM TYPE>  (2493) 
MS1

>  <INSTRUMENT TYPE>  (2493) 
EI-B

>  <INSTRUMENT>  (2493) 
HITACHI M-80B

>  <ION MODE>  (2493) 
P

>  <INCHIKEY>  (2493) 
LRVLBFSVAFUOGO-UHFFFAOYSA-N

>  <FORMULA>  (2493) 
C13H18O2

>  <EXACT MASS>  (2493) 
206.130679816

>  <MW>  (2493) 
206

>  <ID>  (2493) 
JP008503

>  <CONTRIBUTOR>  (2493) 
University of Tokyo Team, {Faculty of Engineering, University of Tokyo

>  <COMMENT>  (2493) 
SMILES=CCCCCOC(=O)Cc(c1)cccc1
InChI=InChI=1S/C13H18O2/c1-2-3-7-10-15-13(14)11-12-8-5-4-6-9-12/h4-6,8-9H,2-3,7,10-11H2,1H3
computed SMILES=O=C(OCCCCC)CC=1C=CC=CC1
accession=JP008503
date=2016.01.19 (Created 2008.10.21, modified 2011.05.06)
author=SODA AROMATIC CO., LTD.
license=CC BY-NC-SA
exact mass=206.13068
ionization energy=70 eV
ion type=[M]+*
computed spectral entropy=2.459094475588838
computed normalized entropy=0.7639606525329469
SPLASH=splash10-0006-9100000000-a38f711b018fb6ed01fc
submitter=submitter = University of Tokyo Team (Faculty of Engineering, University of Tokyo)
MoNA Rating=3.75

>  <NUM PEAKS>  (2493) 
25

>  <MASS SPECTRAL PEAKS>  (2493) 
27 8.85
29 15.66
39 11.06
41 18.59
42 5.81
43 92.35
44 2.31
51 2.51
55 8.55
63 4.29
64 1.34
65 17.38
69 1.35
70 4.21
71 13.75
89 4.91
90 3.87
91 99.99
92 31.07
93 1.79
115 6.85
119 2.41
136 23.22
137 8.04
206 3.21

>  <PREDICTED SPECTRUM>  (2493) 
26 60
27 208
28 40
29 264
30 48
36 11
38 26
39 219
40 110
41 377
42 216
43 693
44 127
50 39
51 126
52 66
53 93
54 30
55 335
57 102
61 10
62 55
63 167
64 101
65 343
66 91
67 1
68 56
69 208
70 389
71 423
72 1
73 22
74 8
77 54
78 38
79 39
88 25
89 284
90 302
91 999
92 461
93 130
115 287
116 38
118 67
119 366
120 98
136 450
137 397
138 49
206 278
207 94
208 9

$$$$

     RDKit          2D

 14 14  0  0  0  0  0  0  0  0999 V2000
   -7.4692    4.2571    0.0000 C   0  0  0  0  0  0  0  0  0  0  0  0
   -6.1702    3.5071    0.0000 C   0  0  0  0  0  0  0  0  0  0  0  0
   -4.8712    4.2571    0.0000 C   0  0  0  0  0  0  0  0  0  0  0  0
    4.2221    2.0071    0.0000 C   0  0  0  0  0  0  0  0  0  0  0  0
    4.2226    3.5079    0.0000 C   0  0  0  0  0  0  0  0  0  0  0  0
    2.9226    1.2563    0.0000 C   0  0  0  0  0  0  0  0  0  0  0  0
    2.9236    4.2579    0.0000 C   0  0  0  0  0  0  0  0  0  0  0  0
    1.6236    2.0063    0.0000 C   0  0  0  0  0  0  0  0  0  0  0  0
   -3.5721    3.5071    0.0000 C   0  0  0  0  0  0  0  0  0  0  0  0
    0.3250    4.2571    0.0000 C   0  0  0  0  0  0  0  0  0  0  0  0
    1.6240    3.5071    0.0000 C   0  0  0  0  0  0  0  0  0  0  0  0
   -0.9740    3.5071    0.0000 C   0  0  0  0  0  0  0  0  0  0  0  0
   -0.9740    2.0071    0.0000 O   0  0  0  0  0  0  0  0  0  0  0  0
   -2.2731    4.2571    0.0000 O   0  0  0  0  0  0  0  0  0  0  0  0
  2  1  1  0
  3  2  1  0
  5  4  2  0
  6  4  1  0
  7  5  1  0
  8  6  2  0
  9  3  1  0
 11  7  2  0
 11  8  1  0
 11 10  1  0
 12 10  1  0
 13 12  2  0
 14  9  1  0
 14 12  1  0
M  END
>  <NAME>  (2494) 
BUTYL PHENYLACETATE

>  <SYNONYMS>  (2494) 


>  <SPECTRUM TYPE>  (2494) 
MS1

>  <INSTRUMENT TYPE>  (2494) 
EI-B

>  <INSTRUMENT>  (2494) 
HITACHI M-80B

>  <ION MODE>  (2494) 
P

>  <INCHIKEY>  (2494) 
LDOXTQYWWYXYSQ-UHFFFAOYSA-N

>  <FORMULA>  (2494) 
C12H16O2

>  <EXACT MASS>  (2494) 
192.115029752

>  <MW>  (2494) 
192

>  <ID>  (2494) 
JP008501

>  <CONTRIBUTOR>  (2494) 
University of Tokyo Team, {Faculty of Engineering, University of Tokyo

>  <COMMENT>  (2494) 
SMILES=CCCCOC(=O)Cc(c1)cccc1
InChI=InChI=1S/C12H16O2/c1-2-3-9-14-12(13)10-11-7-5-4-6-8-11/h4-8H,2-3,9-10H2,1H3
computed SMILES=O=C(OCCCC)CC=1C=CC=CC1
accession=JP008501
date=2016.01.19 (Created 2008.10.21, modified 2011.05.06)
author=SODA AROMATIC CO., LTD.
license=CC BY-NC-SA
exact mass=192.11503
ionization energy=70 eV
ion type=[M]+*
computed spectral entropy=2.3899870034836286
computed normalized entropy=0.7424912092039115
SPLASH=splash10-0006-9000000000-b71f6b7831b5a6500359
submitter=submitter = University of Tokyo Team (Faculty of Engineering, University of Tokyo)
MoNA Rating=3.75

>  <NUM PEAKS>  (2494) 
25

>  <MASS SPECTRAL PEAKS>  (2494) 
27 8.12
29 25.14
39 9.91
41 29.14
42 1.4
43 1.43
50 1.07
51 2.86
52 1.05
55 2.11
56 2.09
57 42.83
58 1.61
63 4.29
64 1.39
65 16.66
89 4.73
90 2.92
91 99.99
92 32.28
93 1.67
119 3.22
136 18.37
137 3.12
192 6.69

>  <PREDICTED SPECTRUM>  (2494) 
26 39
27 185
28 55
29 292
36 30
38 48
39 249
40 104
41 424
42 136
43 261
44 110
50 57
51 127
52 59
53 38
54 6
55 197
56 234
57 579
58 110
62 70
63 181
64 94
65 358
66 60
73 21
74 32
75 49
76 4
77 52
78 42
79 46
83 17
84 16
89 263
90 342
91 999
92 421
93 65
101 41
102 16
118 106
119 86
136 585
137 216
138 45
192 272
193 85

$$$$

     RDKit          2D

 13 13  0  0  0  0  0  0  0  0999 V2000
   -5.8454    3.6946    0.0000 C   0  0  0  0  0  0  0  0  0  0  0  0
   -4.5464    1.4446    0.0000 C   0  0  0  0  0  0  0  0  0  0  0  0
    3.2478    1.4446    0.0000 C   0  0  0  0  0  0  0  0  0  0  0  0
    3.2483    2.9454    0.0000 C   0  0  0  0  0  0  0  0  0  0  0  0
    1.9483    0.6938    0.0000 C   0  0  0  0  0  0  0  0  0  0  0  0
    1.9493    3.6954    0.0000 C   0  0  0  0  0  0  0  0  0  0  0  0
    0.6493    1.4438    0.0000 C   0  0  0  0  0  0  0  0  0  0  0  0
   -0.6493    3.6946    0.0000 C   0  0  0  0  0  0  0  0  0  0  0  0
   -4.5464    2.9446    0.0000 C   0  0  0  0  0  0  0  0  0  0  0  0
    0.6498    2.9446    0.0000 C   0  0  0  0  0  0  0  0  0  0  0  0
   -1.9483    2.9446    0.0000 C   0  0  0  0  0  0  0  0  0  0  0  0
   -1.9483    1.4446    0.0000 O   0  0  0  0  0  0  0  0  0  0  0  0
   -3.2474    3.6946    0.0000 O   0  0  0  0  0  0  0  0  0  0  0  0
  4  3  2  0
  5  3  1  0
  6  4  1  0
  7  5  2  0
  9  1  1  0
  9  2  1  0
 10  6  2  0
 10  7  1  0
 10  8  1  0
 11  8  1  0
 12 11  2  0
 13  9  1  0
 13 11  1  0
M  END
>  <NAME>  (2495) 
1-METHYLETHYL PHENYLACETATE

>  <SYNONYMS>  (2495) 
ISOPROPYL PHENYLACETATE

>  <SPECTRUM TYPE>  (2495) 
MS1

>  <INSTRUMENT TYPE>  (2495) 
EI-B

>  <INSTRUMENT>  (2495) 
HITACHI M-80B

>  <ION MODE>  (2495) 
P

>  <INCHIKEY>  (2495) 
SSMBXPJYHMZLOJ-UHFFFAOYSA-N

>  <FORMULA>  (2495) 
C11H14O2

>  <EXACT MASS>  (2495) 
178.099379688

>  <MW>  (2495) 
178

>  <ID>  (2495) 
JP008500

>  <CONTRIBUTOR>  (2495) 
University of Tokyo Team, {Faculty of Engineering, University of Tokyo

>  <COMMENT>  (2495) 
SMILES=CC(C)OC(=O)Cc(c1)cccc1
InChI=InChI=1S/C11H14O2/c1-9(2)13-11(12)8-10-6-4-3-5-7-10/h3-7,9H,8H2,1-2H3
computed SMILES=O=C(OC(C)C)CC=1C=CC=CC1
accession=JP008500
author=SODA AROMATIC CO., LTD.
date=2016.01.19 (Created 2008.10.21, modified 2011.05.06)
license=CC BY-NC-SA
exact mass=178.09938
ionization energy=70 eV
ion type=[M]+*
computed spectral entropy=2.1584754120180714
computed normalized entropy=0.6705680894373898
SPLASH=splash10-0006-9000000000-1f974656022600dc0f4a
submitter=submitter = University of Tokyo Team (Faculty of Engineering, University of Tokyo)
MoNA Rating=3.75

>  <NUM PEAKS>  (2495) 
25

>  <MASS SPECTRAL PEAKS>  (2495) 
15 1.07
27 7.54
38 1.15
39 11.41
41 15.18
42 1.56
43 78.6
44 2.22
45 1.12
50 1.23
51 3.57
52 1.03
62 1.07
63 4.62
64 1.49
65 15.42
77 1.03
89 4.75
90 4.08
91 99.99
92 27.52
93 1.52
119 5.06
178 11.81
179 1.36

>  <PREDICTED SPECTRUM>  (2495) 
25 3
26 46
27 178
28 12
38 44
39 232
40 93
41 350
42 170
43 743
44 162
45 81
50 66
51 149
52 89
53 34
58 3
59 3
60 26
62 46
63 183
64 114
65 337
66 109
69 17
71 45
77 88
78 16
79 133
87 27
89 272
90 323
91 999
92 483
93 84
107 33
108 192
109 0
118 179
119 103
135 27
136 442
137 115
178 381
179 96

$$$$

     RDKit          2D

 13 13  0  0  0  0  0  0  0  0999 V2000
   -6.8197    3.1321    0.0000 C   0  0  0  0  0  0  0  0  0  0  0  0
   -5.5207    3.8821    0.0000 C   0  0  0  0  0  0  0  0  0  0  0  0
    3.5726    1.6321    0.0000 C   0  0  0  0  0  0  0  0  0  0  0  0
    3.5731    3.1329    0.0000 C   0  0  0  0  0  0  0  0  0  0  0  0
    2.2731    0.8813    0.0000 C   0  0  0  0  0  0  0  0  0  0  0  0
    2.2740    3.8829    0.0000 C   0  0  0  0  0  0  0  0  0  0  0  0
    0.9740    1.6313    0.0000 C   0  0  0  0  0  0  0  0  0  0  0  0
   -4.2216    3.1321    0.0000 C   0  0  0  0  0  0  0  0  0  0  0  0
   -0.3245    3.8821    0.0000 C   0  0  0  0  0  0  0  0  0  0  0  0
    0.9745    3.1321    0.0000 C   0  0  0  0  0  0  0  0  0  0  0  0
   -1.6236    3.1321    0.0000 C   0  0  0  0  0  0  0  0  0  0  0  0
   -1.6236    1.6321    0.0000 O   0  0  0  0  0  0  0  0  0  0  0  0
   -2.9226    3.8821    0.0000 O   0  0  0  0  0  0  0  0  0  0  0  0
  2  1  1  0
  4  3  2  0
  5  3  1  0
  6  4  1  0
  7  5  2  0
  8  2  1  0
 10  6  2  0
 10  7  1  0
 10  9  1  0
 11  9  1  0
 12 11  2  0
 13  8  1  0
 13 11  1  0
M  END
>  <NAME>  (2496) 
PROPYL PHENYLACETATE

>  <SYNONYMS>  (2496) 


>  <SPECTRUM TYPE>  (2496) 
MS1

>  <INSTRUMENT TYPE>  (2496) 
EI-B

>  <INSTRUMENT>  (2496) 
HITACHI M-80B

>  <ION MODE>  (2496) 
P

>  <INCHIKEY>  (2496) 
GXXFZZLGPFNITM-UHFFFAOYSA-N

>  <FORMULA>  (2496) 
C11H14O2

>  <EXACT MASS>  (2496) 
178.099379688

>  <MW>  (2496) 
178

>  <ID>  (2496) 
JP008499

>  <CONTRIBUTOR>  (2496) 
University of Tokyo Team, {Faculty of Engineering, University of Tokyo

>  <COMMENT>  (2496) 
SMILES=CCCOC(=O)Cc(c1)cccc1
InChI=InChI=1S/C11H14O2/c1-2-8-13-11(12)9-10-6-4-3-5-7-10/h3-7H,2,8-9H2,1H3
computed SMILES=O=C(OCCC)CC=1C=CC=CC1
accession=JP008499
date=2016.01.19 (Created 2008.10.21, modified 2011.05.06)
author=SODA AROMATIC CO., LTD.
license=CC BY-NC-SA
exact mass=178.09938
ionization energy=70 eV
ion type=[M]+*
computed spectral entropy=2.191212976616575
computed normalized entropy=0.6988413391052124
SPLASH=splash10-0006-9000000000-fac61fa526e9faf2280c
submitter=submitter = University of Tokyo Team (Faculty of Engineering, University of Tokyo)
MoNA Rating=3.75

>  <NUM PEAKS>  (2496) 
23

>  <MASS SPECTRAL PEAKS>  (2496) 
27 10.84
29 2.67
38 1.04
39 9.53
41 12.8
42 1.28
43 45.23
50 1.21
51 2.92
52 1.02
63 3.66
64 1.32
65 15.54
89 3.69
90 2.9
91 99.99
92 20.63
93 1.01
105 1.05
119 4.01
136 9.21
137 1.03
178 9.16

>  <PREDICTED SPECTRUM>  (2496) 
25 7
26 57
27 220
28 47
29 93
36 8
37 6
38 56
39 252
40 104
41 350
42 199
43 678
44 112
45 88
50 64
51 147
52 70
53 44
55 2
62 48
63 170
64 88
65 308
66 110
69 36
77 106
78 59
79 108
87 3
89 241
90 301
91 999
92 428
93 80
107 41
108 38
118 229
119 106
135 9
136 259
137 75
138 20
178 317
179 91

$$$$

     RDKit          2D

 11 11  0  0  0  0  0  0  0  0999 V2000
   -4.8712    2.0071    0.0000 C   0  0  0  0  0  0  0  0  0  0  0  0
    2.9231    0.5071    0.0000 C   0  0  0  0  0  0  0  0  0  0  0  0
    2.9236    2.0079    0.0000 C   0  0  0  0  0  0  0  0  0  0  0  0
    1.6236   -0.2437    0.0000 C   0  0  0  0  0  0  0  0  0  0  0  0
    1.6245    2.7579    0.0000 C   0  0  0  0  0  0  0  0  0  0  0  0
    0.3245    0.5063    0.0000 C   0  0  0  0  0  0  0  0  0  0  0  0
   -0.9740    2.7571    0.0000 C   0  0  0  0  0  0  0  0  0  0  0  0
    0.3250    2.0071    0.0000 C   0  0  0  0  0  0  0  0  0  0  0  0
   -2.2731    2.0071    0.0000 C   0  0  0  0  0  0  0  0  0  0  0  0
   -2.2731    0.5071    0.0000 O   0  0  0  0  0  0  0  0  0  0  0  0
   -3.5721    2.7571    0.0000 O   0  0  0  0  0  0  0  0  0  0  0  0
  3  2  2  0
  4  2  1  0
  5  3  1  0
  6  4  2  0
  8  5  2  0
  8  6  1  0
  8  7  1  0
  9  7  1  0
 10  9  2  0
 11  1  1  0
 11  9  1  0
M  END
>  <NAME>  (2497) 
METHYL PHENYLACETATE

>  <SYNONYMS>  (2497) 


>  <SPECTRUM TYPE>  (2497) 
MS1

>  <INSTRUMENT TYPE>  (2497) 
EI-B

>  <INSTRUMENT>  (2497) 
HITACHI M-80B

>  <ION MODE>  (2497) 
P

>  <INCHIKEY>  (2497) 
CRZQGDNQQAALAY-UHFFFAOYSA-N

>  <FORMULA>  (2497) 
C9H10O2

>  <EXACT MASS>  (2497) 
150.06807956

>  <MW>  (2497) 
150

>  <ID>  (2497) 
JP008497

>  <CONTRIBUTOR>  (2497) 
University of Tokyo Team, {Faculty of Engineering, University of Tokyo

>  <COMMENT>  (2497) 
SMILES=COC(=O)Cc(c1)cccc1
InChI=InChI=1S/C9H10O2/c1-11-9(10)7-8-5-3-2-4-6-8/h2-6H,7H2,1H3
computed SMILES=O=C(OC)CC=1C=CC=CC1
accession=JP008497
date=2016.01.19 (Created 2008.10.21, modified 2011.05.06)
author=SODA AROMATIC CO., LTD.
license=CC BY-NC-SA
exact mass=150.06808
ionization energy=70 eV
ion type=[M]+*
computed spectral entropy=1.9893065447177112
computed normalized entropy=0.6435714082659703
SPLASH=splash10-0006-9100000000-1edd67a79f223f827641
submitter=submitter = University of Tokyo Team (Faculty of Engineering, University of Tokyo)
MoNA Rating=3.75

>  <NUM PEAKS>  (2497) 
22

>  <MASS SPECTRAL PEAKS>  (2497) 
15 4.17
29 1.79
38 1.3
39 8.06
41 1.29
50 2.06
51 3.99
52 1.16
59 6.69
62 1.73
63 6.23
64 1.57
65 14.83
77 1.12
89 4.81
90 3.18
91 99.99
92 7.52
105 1.09
119 1.44
150 24
151 2.32

>  <PREDICTED SPECTRUM>  (2497) 
14 5
15 59
26 29
27 111
28 1
29 48
31 71
37 2
38 57
39 235
40 39
41 97
42 26
44 18
50 116
51 179
52 67
53 22
59 168
62 62
63 195
64 88
65 367
66 37
74 43
77 92
78 1
87 23
89 151
90 245
91 999
92 346
105 28
118 213
119 105
120 2
150 586
151 139
152 25

$$$$

     RDKit          2D

 17 18  0  0  0  0  0  0  0  0999 V2000
    4.5466    2.1950    0.0000 C   0  0  0  0  0  0  0  0  0  0  0  0
   -7.1447    5.9450    0.0000 C   0  0  0  0  0  0  0  0  0  0  0  0
    4.5471    3.6958    0.0000 C   0  0  0  0  0  0  0  0  0  0  0  0
    3.2471    1.4442    0.0000 C   0  0  0  0  0  0  0  0  0  0  0  0
   -7.1452    4.4442    0.0000 C   0  0  0  0  0  0  0  0  0  0  0  0
   -5.8452    6.6958    0.0000 C   0  0  0  0  0  0  0  0  0  0  0  0
    3.2481    4.4458    0.0000 C   0  0  0  0  0  0  0  0  0  0  0  0
    1.9481    2.1942    0.0000 C   0  0  0  0  0  0  0  0  0  0  0  0
   -5.8462    3.6942    0.0000 C   0  0  0  0  0  0  0  0  0  0  0  0
   -4.5462    5.9458    0.0000 C   0  0  0  0  0  0  0  0  0  0  0  0
    0.6495    4.4450    0.0000 C   0  0  0  0  0  0  0  0  0  0  0  0
   -0.6495    3.6950    0.0000 C   0  0  0  0  0  0  0  0  0  0  0  0
    1.9486    3.6950    0.0000 C   0  0  0  0  0  0  0  0  0  0  0  0
   -4.5466    4.4450    0.0000 C   0  0  0  0  0  0  0  0  0  0  0  0
   -3.2476    3.6950    0.0000 C   0  0  0  0  0  0  0  0  0  0  0  0
   -3.2476    2.1950    0.0000 O   0  0  0  0  0  0  0  0  0  0  0  0
   -1.9486    4.4450    0.0000 O   0  0  0  0  0  0  0  0  0  0  0  0
  3  1  2  0
  4  1  1  0
  5  2  2  0
  6  2  1  0
  7  3  1  0
  8  4  2  0
  9  5  1  0
 10  6  2  0
 12 11  1  0
 13  7  2  0
 13  8  1  0
 13 11  1  0
 14  9  2  0
 14 10  1  0
 15 14  1  0
 16 15  2  0
 17 12  1  0
 17 15  1  0
M  END
>  <NAME>  (2498) 
2-PHENYLETHYL BENZOATE

>  <SYNONYMS>  (2498) 
PHENETHYL BENZOATE

>  <SPECTRUM TYPE>  (2498) 
MS1

>  <INSTRUMENT TYPE>  (2498) 
EI-B

>  <INSTRUMENT>  (2498) 
HITACHI M-80B

>  <ION MODE>  (2498) 
P

>  <INCHIKEY>  (2498) 
OSORMYZMWHVFOZ-UHFFFAOYSA-N

>  <FORMULA>  (2498) 
C15H14O2

>  <EXACT MASS>  (2498) 
226.099379688

>  <MW>  (2498) 
226

>  <ID>  (2498) 
JP008496

>  <CONTRIBUTOR>  (2498) 
University of Tokyo Team, {Faculty of Engineering, University of Tokyo

>  <COMMENT>  (2498) 
SMILES=O=C(OCCc(c2)cccc2)c(c1)cccc1
InChI=InChI=1S/C15H14O2/c16-15(14-9-5-2-6-10-14)17-12-11-13-7-3-1-4-8-13/h1-10H,11-12H2
computed SMILES=O=C(OCCC=1C=CC=CC1)C=2C=CC=CC2
accession=JP008496
date=2016.01.19 (Created 2008.10.21, modified 2011.05.06)
author=SODA AROMATIC CO., LTD.
license=CC BY-NC-SA
exact mass=226.09938
ionization energy=70 eV
ion type=[M]+*
computed spectral entropy=1.7677539724619742
computed normalized entropy=0.6375824723956639
SPLASH=splash10-0udi-4900000000-47ec2ba2cea1fcfe861f
submitter=submitter = University of Tokyo Team (Faculty of Engineering, University of Tokyo)
MoNA Rating=3.75

>  <NUM PEAKS>  (2498) 
16

>  <MASS SPECTRAL PEAKS>  (2498) 
27 1.67
39 2.48
50 2.78
51 13.24
52 1.13
63 1.11
65 4.08
76 1.47
77 35.49
78 5.44
79 1.5
91 7.35
103 2.66
104 99.99
105 45.19
106 2.58

>  <PREDICTED SPECTRUM>  (2498) 
26 17
27 83
29 15
38 22
39 162
40 54
41 105
42 29
43 14
44 16
49 28
50 138
51 232
52 121
53 85
54 64
55 62
56 28
57 61
62 36
63 110
64 64
65 196
70 5
74 68
75 87
76 110
77 322
78 196
79 172
80 21
89 85
90 3
91 240
92 133
101 18
102 43
103 127
104 999
105 636
106 177
107 38
122 58
153 46

$$$$

     RDKit          2D

 15 16  0  0  0  0  0  0  0  0999 V2000
    3.8981    1.0699    0.0000 C   0  0  0  0  0  0  0  0  0  0  0  0
   -5.1959    4.8220    0.0000 C   0  0  0  0  0  0  0  0  0  0  0  0
    3.8986    2.5708    0.0000 C   0  0  0  0  0  0  0  0  0  0  0  0
    2.5986    0.3191    0.0000 C   0  0  0  0  0  0  0  0  0  0  0  0
   -3.8967    5.5718    0.0000 C   0  0  0  0  0  0  0  0  0  0  0  0
   -5.1956    3.3212    0.0000 C   0  0  0  0  0  0  0  0  0  0  0  0
    2.5995    3.3208    0.0000 C   0  0  0  0  0  0  0  0  0  0  0  0
    1.2995    1.0691    0.0000 C   0  0  0  0  0  0  0  0  0  0  0  0
   -2.5973    4.8208    0.0000 C   0  0  0  0  0  0  0  0  0  0  0  0
   -3.8962    2.5702    0.0000 C   0  0  0  0  0  0  0  0  0  0  0  0
    1.3000    2.5699    0.0000 C   0  0  0  0  0  0  0  0  0  0  0  0
   -2.5971    3.3199    0.0000 C   0  0  0  0  0  0  0  0  0  0  0  0
    0.0010    3.3199    0.0000 C   0  0  0  0  0  0  0  0  0  0  0  0
    0.0010    4.8199    0.0000 O   0  0  0  0  0  0  0  0  0  0  0  0
   -1.2980    2.5699    0.0000 O   0  0  0  0  0  0  0  0  0  0  0  0
  3  1  2  0
  4  1  1  0
  5  2  2  0
  6  2  1  0
  7  3  1  0
  8  4  2  0
  9  5  1  0
 10  6  2  0
 11  7  2  0
 11  8  1  0
 12  9  2  0
 12 10  1  0
 13 11  1  0
 14 13  2  0
 15 12  1  0
 15 13  1  0
M  END
>  <NAME>  (2499) 
PHENYL BENZOATE

>  <SYNONYMS>  (2499) 


>  <SPECTRUM TYPE>  (2499) 
MS1

>  <INSTRUMENT TYPE>  (2499) 
EI-B

>  <INSTRUMENT>  (2499) 
HITACHI M-80B

>  <ION MODE>  (2499) 
P

>  <INCHIKEY>  (2499) 
FCJSHPDYVMKCHI-UHFFFAOYSA-N

>  <FORMULA>  (2499) 
C13H10O2

>  <EXACT MASS>  (2499) 
198.06807956

>  <MW>  (2499) 
198

>  <ID>  (2499) 
JP008494

>  <CONTRIBUTOR>  (2499) 
University of Tokyo Team, {Faculty of Engineering, University of Tokyo

>  <COMMENT>  (2499) 
SMILES=O=C(Oc(c2)cccc2)c(c1)cccc1
InChI=InChI=1S/C13H10O2/c14-13(11-7-3-1-4-8-11)15-12-9-5-2-6-10-12/h1-10H
computed SMILES=O=C(OC=1C=CC=CC1)C=2C=CC=CC2
accession=JP008494
date=2016.01.19 (Created 2008.10.21, modified 2011.05.06)
author=SODA AROMATIC CO., LTD.
license=CC BY-NC-SA
exact mass=198.06808
ionization energy=70 eV
ion type=[M]+*
computed spectral entropy=1.667635439323711
computed normalized entropy=0.6319057265674601
SPLASH=splash10-0a4i-7900000000-d3233245afe6c2f74b31
submitter=submitter = University of Tokyo Team (Faculty of Engineering, University of Tokyo)
MoNA Rating=3.75

>  <NUM PEAKS>  (2499) 
14

>  <MASS SPECTRAL PEAKS>  (2499) 
27 1.04
38 1.44
39 8.74
50 5.83
51 17.53
63 1.65
65 6.26
74 1.12
76 1.68
77 44.93
78 2.32
105 99.99
106 7.32
198 5.32

>  <PREDICTED SPECTRUM>  (2499) 
26 7
27 34
36 10
37 53
38 107
39 209
40 101
41 151
42 50
49 27
50 196
51 408
52 137
53 100
55 95
57 9
62 66
63 106
64 56
65 157
66 79
70 22
71 18
74 104
75 86
76 92
77 707
78 164
93 8
94 143
104 4
105 999
106 224
115 18
116 17
198 211
199 72

$$$$

     RDKit          2D

 17 17  0  0  0  0  0  0  0  0999 V2000
    5.5216    5.0079    0.0000 C   0  0  0  0  0  0  0  0  0  0  0  0
    4.2226    4.2579    0.0000 C   0  0  0  0  0  0  0  0  0  0  0  0
    2.9236    5.0079    0.0000 C   0  0  0  0  0  0  0  0  0  0  0  0
    1.6245    4.2579    0.0000 C   0  0  0  0  0  0  0  0  0  0  0  0
    0.3255    5.0079    0.0000 C   0  0  0  0  0  0  0  0  0  0  0  0
   -0.9736    4.2579    0.0000 C   0  0  0  0  0  0  0  0  0  0  0  0
  -10.0668    6.5079    0.0000 C   0  0  0  0  0  0  0  0  0  0  0  0
  -10.0673    5.0071    0.0000 C   0  0  0  0  0  0  0  0  0  0  0  0
   -8.7673    7.2587    0.0000 C   0  0  0  0  0  0  0  0  0  0  0  0
   -2.2726    5.0079    0.0000 C   0  0  0  0  0  0  0  0  0  0  0  0
   -8.7683    4.2571    0.0000 C   0  0  0  0  0  0  0  0  0  0  0  0
   -7.4683    6.5087    0.0000 C   0  0  0  0  0  0  0  0  0  0  0  0
   -3.5716    4.2579    0.0000 C   0  0  0  0  0  0  0  0  0  0  0  0
   -7.4687    5.0079    0.0000 C   0  0  0  0  0  0  0  0  0  0  0  0
   -6.1697    4.2579    0.0000 C   0  0  0  0  0  0  0  0  0  0  0  0
   -6.1697    2.7579    0.0000 O   0  0  0  0  0  0  0  0  0  0  0  0
   -4.8707    5.0079    0.0000 O   0  0  0  0  0  0  0  0  0  0  0  0
  2  1  1  0
  3  2  1  0
  4  3  1  0
  5  4  1  0
  6  5  1  0
  8  7  2  0
  9  7  1  0
 10  6  1  0
 11  8  1  0
 12  9  2  0
 13 10  1  0
 14 11  2  0
 14 12  1  0
 15 14  1  0
 16 15  2  0
 17 13  1  0
 17 15  1  0
M  END
>  <NAME>  (2500) 
OCTYL BENZOATE

>  <SYNONYMS>  (2500) 


>  <SPECTRUM TYPE>  (2500) 
MS1

>  <INSTRUMENT TYPE>  (2500) 
EI-B

>  <INSTRUMENT>  (2500) 
HITACHI M-80B

>  <ION MODE>  (2500) 
P

>  <INCHIKEY>  (2500) 
VECVSKFWRQYTAL-UHFFFAOYSA-N

>  <FORMULA>  (2500) 
C15H22O2

>  <EXACT MASS>  (2500) 
234.161979944

>  <MW>  (2500) 
234

>  <ID>  (2500) 
JP008493

>  <CONTRIBUTOR>  (2500) 
University of Tokyo Team, {Faculty of Engineering, University of Tokyo

>  <COMMENT>  (2500) 
SMILES=CCCCCCCCOC(=O)c(c1)cccc1
InChI=InChI=1S/C15H22O2/c1-2-3-4-5-6-10-13-17-15(16)14-11-8-7-9-12-14/h7-9,11-12H,2-6,10,13H2,1H3
computed SMILES=O=C(OCCCCCCCC)C=1C=CC=CC1
accession=JP008493
date=2016.01.19 (Created 2008.10.21, modified 2011.05.06)
author=SODA AROMATIC CO., LTD.
license=CC BY-NC-SA
exact mass=234.16198
ionization energy=70 eV
ion type=[M]+*
computed spectral entropy=2.831766419384188
computed normalized entropy=0.8098842543891164
SPLASH=splash10-05fr-9700000000-bf993012ad3dc9dfdb74
submitter=submitter = University of Tokyo Team (Faculty of Engineering, University of Tokyo)
MoNA Rating=3.75

>  <NUM PEAKS>  (2500) 
33

>  <MASS SPECTRAL PEAKS>  (2500) 
27 9.66
29 12.16
39 5.5
41 26.79
42 10.51
43 17.2
50 2.91
51 15.15
52 1.11
53 1.72
54 2.41
55 18.06
56 18.53
57 6.8
67 1.67
68 3.27
69 12.66
70 20.95
71 2.27
76 2.65
77 53.61
78 3.95
79 7.88
82 2.65
83 12.62
84 11.4
97 1.21
105 97.86
106 8.12
112 12.3
122 13.85
123 99.99
124 7.6

>  <PREDICTED SPECTRUM>  (2500) 
25 5
26 44
27 165
28 60
29 216
31 8
36 39
37 36
38 66
39 222
40 92
41 362
42 232
43 262
44 62
50 171
51 333
52 93
53 137
54 145
55 363
56 391
57 145
65 44
66 26
67 176
68 232
69 309
70 375
71 122
74 18
75 47
76 75
77 628
78 215
79 216
80 14
81 34
82 68
83 231
84 218
85 42
91 58
92 4
94 13
95 50
96 48
97 168
98 233
105 937
106 253
107 88
111 117
112 319
113 24
121 3
122 398
123 999
124 281
233 41
234 45

$$$$

     RDKit          2D

 15 15  0  0  0  0  0  0  0  0999 V2000
    4.8721    3.8829    0.0000 C   0  0  0  0  0  0  0  0  0  0  0  0
    3.5731    3.1329    0.0000 C   0  0  0  0  0  0  0  0  0  0  0  0
    2.2740    3.8829    0.0000 C   0  0  0  0  0  0  0  0  0  0  0  0
    0.9750    3.1329    0.0000 C   0  0  0  0  0  0  0  0  0  0  0  0
   -8.1183    5.3829    0.0000 C   0  0  0  0  0  0  0  0  0  0  0  0
   -8.1187    3.8821    0.0000 C   0  0  0  0  0  0  0  0  0  0  0  0
   -6.8187    6.1337    0.0000 C   0  0  0  0  0  0  0  0  0  0  0  0
   -0.3240    3.8829    0.0000 C   0  0  0  0  0  0  0  0  0  0  0  0
   -6.8197    3.1321    0.0000 C   0  0  0  0  0  0  0  0  0  0  0  0
   -5.5197    5.3837    0.0000 C   0  0  0  0  0  0  0  0  0  0  0  0
   -1.6231    3.1329    0.0000 C   0  0  0  0  0  0  0  0  0  0  0  0
   -5.5202    3.8829    0.0000 C   0  0  0  0  0  0  0  0  0  0  0  0
   -4.2212    3.1329    0.0000 C   0  0  0  0  0  0  0  0  0  0  0  0
   -4.2212    1.6329    0.0000 O   0  0  0  0  0  0  0  0  0  0  0  0
   -2.9221    3.8829    0.0000 O   0  0  0  0  0  0  0  0  0  0  0  0
  2  1  1  0
  3  2  1  0
  4  3  1  0
  6  5  2  0
  7  5  1  0
  8  4  1  0
  9  6  1  0
 10  7  2  0
 11  8  1  0
 12  9  2  0
 12 10  1  0
 13 12  1  0
 14 13  2  0
 15 11  1  0
 15 13  1  0
M  END
>  <NAME>  (2501) 
HEXYL BENZOATE

>  <SYNONYMS>  (2501) 


>  <SPECTRUM TYPE>  (2501) 
MS1

>  <INSTRUMENT TYPE>  (2501) 
EI-B

>  <INSTRUMENT>  (2501) 
HITACHI M-80B

>  <ION MODE>  (2501) 
P

>  <INCHIKEY>  (2501) 
UUGLJVMIFJNVFH-UHFFFAOYSA-N

>  <FORMULA>  (2501) 
C13H18O2

>  <EXACT MASS>  (2501) 
206.130679816

>  <MW>  (2501) 
206

>  <ID>  (2501) 
JP008492

>  <CONTRIBUTOR>  (2501) 
University of Tokyo Team, {Faculty of Engineering, University of Tokyo

>  <COMMENT>  (2501) 
SMILES=CCCCCCOC(=O)c(c1)cccc1
InChI=InChI=1S/C13H18O2/c1-2-3-4-8-11-15-13(14)12-9-6-5-7-10-12/h5-7,9-10H,2-4,8,11H2,1H3
computed SMILES=O=C(OCCCCCC)C=1C=CC=CC1
accession=JP008492
date=2016.01.19 (Created 2008.10.21, modified 2011.05.06)
author=SODA AROMATIC CO., LTD.
license=CC BY-NC-SA
exact mass=206.13068
ionization energy=70 eV
ion type=[M]+*
computed spectral entropy=2.5892207772053597
computed normalized entropy=0.7856034392698484
SPLASH=splash10-0ab9-9800000000-dfb349b635d78bc84bca
submitter=submitter = University of Tokyo Team (Faculty of Engineering, University of Tokyo)
MoNA Rating=3.75

>  <NUM PEAKS>  (2501) 
27

>  <MASS SPECTRAL PEAKS>  (2501) 
27 10.19
29 9.12
39 6.8
41 17.23
42 9.74
43 13.12
50 3.93
51 18.41
52 1.06
53 1.27
54 1.25
55 13.63
56 24.26
57 1.56
69 8.51
76 2.78
77 53.6
78 3.61
79 7.45
83 1.24
84 15.63
105 99.99
106 7.92
122 15.57
123 84.36
124 6.65
206 1.12

>  <PREDICTED SPECTRUM>  (2501) 
25 7
26 50
27 177
28 75
29 192
36 11
37 29
38 68
39 195
40 87
41 293
42 226
43 224
44 73
50 195
51 377
52 121
53 114
54 87
55 289
56 410
57 37
63 5
65 50
67 78
68 103
69 171
70 140
74 58
75 61
76 97
77 652
78 247
79 199
83 122
84 414
85 63
91 15
105 999
106 298
107 133
122 433
123 842
124 345
125 31
205 91
206 101
207 40

$$$$

     RDKit          2D

 15 15  0  0  0  0  0  0  0  0999 V2000
   -5.1962   10.0700    0.0000 C   0  0  0  0  0  0  0  0  0  0  0  0
   -3.8971    9.3200    0.0000 C   0  0  0  0  0  0  0  0  0  0  0  0
   -3.8971    7.8200    0.0000 C   0  0  0  0  0  0  0  0  0  0  0  0
   -2.5981    7.0700    0.0000 C   0  0  0  0  0  0  0  0  0  0  0  0
    6.4952    9.3200    0.0000 C   0  0  0  0  0  0  0  0  0  0  0  0
    6.4957    7.8192    0.0000 C   0  0  0  0  0  0  0  0  0  0  0  0
    5.1957   10.0708    0.0000 C   0  0  0  0  0  0  0  0  0  0  0  0
   -1.2990    7.8200    0.0000 C   0  0  0  0  0  0  0  0  0  0  0  0
    5.1966    7.0692    0.0000 C   0  0  0  0  0  0  0  0  0  0  0  0
    3.8966    9.3208    0.0000 C   0  0  0  0  0  0  0  0  0  0  0  0
    0.0000    7.0700    0.0000 C   0  0  0  0  0  0  0  0  0  0  0  0
    3.8971    7.8200    0.0000 C   0  0  0  0  0  0  0  0  0  0  0  0
    2.5981    7.0700    0.0000 C   0  0  0  0  0  0  0  0  0  0  0  0
    2.5981    5.5700    0.0000 O   0  0  0  0  0  0  0  0  0  0  0  0
    1.2990    7.8200    0.0000 O   0  0  0  0  0  0  0  0  0  0  0  0
  2  1  1  0
  3  2  1  0
  3  4  2  0
  6  5  2  0
  7  5  1  0
  8  4  1  0
  9  6  1  0
 10  7  2  0
 11  8  1  0
 12  9  2  0
 12 10  1  0
 13 12  1  0
 14 13  2  0
 15 11  1  0
 15 13  1  0
M  END
>  <NAME>  (2502) 
CIS-3-HEXENYL BENZOATE

>  <SYNONYMS>  (2502) 


>  <SPECTRUM TYPE>  (2502) 
MS1

>  <INSTRUMENT TYPE>  (2502) 
EI-B

>  <INSTRUMENT>  (2502) 
HITACHI M-80B

>  <ION MODE>  (2502) 
P

>  <INCHIKEY>  (2502) 
BCOXBEHFBZOJJZ-ARJAWSKDSA-N

>  <FORMULA>  (2502) 
C13H16O2

>  <EXACT MASS>  (2502) 
204.115029752

>  <MW>  (2502) 
204

>  <ID>  (2502) 
JP008491

>  <CONTRIBUTOR>  (2502) 
University of Tokyo Team, {Faculty of Engineering, University of Tokyo

>  <COMMENT>  (2502) 
SMILES=CCC=CCCOC(=O)c(c1)cccc1
InChI=InChI=1S/C13H16O2/c1-2-3-4-8-11-15-13(14)12-9-6-5-7-10-12/h3-7,9-10H,2,8,11H2,1H3/b4-3-
computed SMILES=O=C(OCCC=CCC)C=1C=CC=CC1
accession=JP008491
date=2016.01.19 (Created 2008.10.21, modified 2011.05.06)
author=SODA AROMATIC CO., LTD.
license=CC BY-NC-SA
exact mass=204.11503
ionization energy=70 eV
ion type=[M]+*
computed spectral entropy=2.3356696131674104
computed normalized entropy=0.7086727007817694
SPLASH=splash10-0arr-9200000000-81473c0496fc70351f74
submitter=submitter = University of Tokyo Team (Faculty of Engineering, University of Tokyo)
MoNA Rating=3.75

>  <NUM PEAKS>  (2502) 
27

>  <MASS SPECTRAL PEAKS>  (2502) 
16 1.22
27 7.66
29 3.06
39 11.17
41 17.32
42 2.06
50 4.67
51 19.91
52 1.66
53 4.18
54 5.51
55 4.89
65 1.65
66 1.05
67 63.27
68 3.4
75 1.22
76 3.06
77 61.22
78 3.79
79 2.31
81 4.06
82 97.45
83 5.33
105 99.99
106 6.13
123 3.76

>  <PREDICTED SPECTRUM>  (2502) 
25 1
26 43
27 137
28 39
29 65
37 26
38 51
39 269
40 132
41 334
42 169
43 90
44 89
50 206
51 324
52 158
53 246
54 251
55 293
56 81
63 53
65 150
67 633
68 171
69 28
71 24
74 32
75 27
76 163
77 582
78 153
79 210
81 315
82 667
83 247
91 3
92 36
105 999
106 221
122 338
123 194
135 5
149 49

$$$$

     RDKit          2D

 14 14  0  0  0  0  0  0  0  0999 V2000
   -6.8197    3.1321    0.0000 C   0  0  0  0  0  0  0  0  0  0  0  0
   -5.5207    5.3821    0.0000 C   0  0  0  0  0  0  0  0  0  0  0  0
    3.5726    1.6321    0.0000 C   0  0  0  0  0  0  0  0  0  0  0  0
    3.5731    3.1329    0.0000 C   0  0  0  0  0  0  0  0  0  0  0  0
    2.2731    0.8813    0.0000 C   0  0  0  0  0  0  0  0  0  0  0  0
    2.2740    3.8829    0.0000 C   0  0  0  0  0  0  0  0  0  0  0  0
    0.9740    1.6313    0.0000 C   0  0  0  0  0  0  0  0  0  0  0  0
   -4.2216    3.1321    0.0000 C   0  0  0  0  0  0  0  0  0  0  0  0
   -2.9226    3.8821    0.0000 C   0  0  0  0  0  0  0  0  0  0  0  0
   -5.5207    3.8821    0.0000 C   0  0  0  0  0  0  0  0  0  0  0  0
    0.9745    3.1321    0.0000 C   0  0  0  0  0  0  0  0  0  0  0  0
   -0.3245    3.8821    0.0000 C   0  0  0  0  0  0  0  0  0  0  0  0
   -0.3245    5.3821    0.0000 O   0  0  0  0  0  0  0  0  0  0  0  0
   -1.6236    3.1321    0.0000 O   0  0  0  0  0  0  0  0  0  0  0  0
  4  3  2  0
  5  3  1  0
  6  4  1  0
  7  5  2  0
  9  8  1  0
 10  1  1  0
 10  2  1  0
 10  8  1  0
 11  6  2  0
 11  7  1  0
 12 11  1  0
 13 12  2  0
 14  9  1  0
 14 12  1  0
M  END
>  <NAME>  (2503) 
3-METHYLBUTYL BENZOATE

>  <SYNONYMS>  (2503) 
ISOAMYL BENZOATE

>  <SPECTRUM TYPE>  (2503) 
MS1

>  <INSTRUMENT TYPE>  (2503) 
EI-B

>  <INSTRUMENT>  (2503) 
HITACHI M-80B

>  <ION MODE>  (2503) 
P

>  <INCHIKEY>  (2503) 
MLLAPOCBLWUFAP-UHFFFAOYSA-N

>  <FORMULA>  (2503) 
C12H16O2

>  <EXACT MASS>  (2503) 
192.115029752

>  <MW>  (2503) 
192

>  <ID>  (2503) 
JP008490

>  <CONTRIBUTOR>  (2503) 
University of Tokyo Team, {Faculty of Engineering, University of Tokyo

>  <COMMENT>  (2503) 
SMILES=CC(C)CCOC(=O)c(c1)cccc1
InChI=InChI=1S/C12H16O2/c1-10(2)8-9-14-12(13)11-6-4-3-5-7-11/h3-7,10H,8-9H2,1-2H3
computed SMILES=O=C(OCCC(C)C)C=1C=CC=CC1
accession=JP008490
date=2016.01.19 (Created 2008.10.21, modified 2011.05.06)
author=SODA AROMATIC CO., LTD.
license=CC BY-NC-SA
exact mass=192.11503
ionization energy=70 eV
ion type=[M]+*
computed spectral entropy=2.426981015132768
computed normalized entropy=0.7449076437147504
SPLASH=splash10-0ab9-9400000000-441289ecb45dc03cf245
submitter=submitter = University of Tokyo Team (Faculty of Engineering, University of Tokyo)
MoNA Rating=3.75

>  <NUM PEAKS>  (2503) 
26

>  <MASS SPECTRAL PEAKS>  (2503) 
27 8.67
29 6.18
39 6.83
41 12.45
42 8.34
43 10.19
50 5.55
51 19.09
52 1.15
53 1.09
55 22.59
56 1.39
69 1.96
70 89.66
71 5.4
74 1.06
75 1.15
76 2.7
77 51.63
78 4.43
79 3.95
105 99.99
106 8.63
122 5.96
123 23.42
124 1.69

>  <PREDICTED SPECTRUM>  (2503) 
25 9
26 80
27 230
28 56
29 190
31 11
36 27
37 23
38 56
39 220
40 89
41 321
42 288
43 334
44 64
45 48
49 16
50 234
51 391
52 152
53 166
54 78
55 394
57 2
59 4
62 4
63 55
65 98
66 18
67 1
69 130
70 830
71 352
72 110
74 52
75 137
76 164
77 695
78 267
79 245
80 38
87 40
91 10
92 91
94 39
104 26
105 999
106 365
107 144
122 278
123 600
124 175
125 7
136 50
149 109

$$$$

     RDKit          2D

 14 14  0  0  0  0  0  0  0  0999 V2000
   -7.4692    4.2571    0.0000 C   0  0  0  0  0  0  0  0  0  0  0  0
   -6.1702    3.5071    0.0000 C   0  0  0  0  0  0  0  0  0  0  0  0
   -4.8712    4.2571    0.0000 C   0  0  0  0  0  0  0  0  0  0  0  0
    4.2221    2.0071    0.0000 C   0  0  0  0  0  0  0  0  0  0  0  0
    4.2226    3.5079    0.0000 C   0  0  0  0  0  0  0  0  0  0  0  0
    2.9226    1.2563    0.0000 C   0  0  0  0  0  0  0  0  0  0  0  0
   -3.5721    3.5071    0.0000 C   0  0  0  0  0  0  0  0  0  0  0  0
    2.9236    4.2579    0.0000 C   0  0  0  0  0  0  0  0  0  0  0  0
    1.6236    2.0063    0.0000 C   0  0  0  0  0  0  0  0  0  0  0  0
   -2.2731    4.2571    0.0000 C   0  0  0  0  0  0  0  0  0  0  0  0
    1.6240    3.5071    0.0000 C   0  0  0  0  0  0  0  0  0  0  0  0
    0.3250    4.2571    0.0000 C   0  0  0  0  0  0  0  0  0  0  0  0
    0.3250    5.7571    0.0000 O   0  0  0  0  0  0  0  0  0  0  0  0
   -0.9740    3.5071    0.0000 O   0  0  0  0  0  0  0  0  0  0  0  0
  2  1  1  0
  3  2  1  0
  5  4  2  0
  6  4  1  0
  7  3  1  0
  8  5  1  0
  9  6  2  0
 10  7  1  0
 11  8  2  0
 11  9  1  0
 12 11  1  0
 13 12  2  0
 14 10  1  0
 14 12  1  0
M  END
>  <NAME>  (2504) 
PENTYL BENZOATE

>  <SYNONYMS>  (2504) 
AMYL BENZOATE

>  <SPECTRUM TYPE>  (2504) 
MS1

>  <INSTRUMENT TYPE>  (2504) 
EI-B

>  <INSTRUMENT>  (2504) 
HITACHI M-80B

>  <ION MODE>  (2504) 
P

>  <INCHIKEY>  (2504) 
QKNZNUNCDJZTCH-UHFFFAOYSA-N

>  <FORMULA>  (2504) 
C12H16O2

>  <EXACT MASS>  (2504) 
192.115029752

>  <MW>  (2504) 
192

>  <ID>  (2504) 
JP008489

>  <CONTRIBUTOR>  (2504) 
University of Tokyo Team, {Faculty of Engineering, University of Tokyo

>  <COMMENT>  (2504) 
SMILES=CCCCCOC(=O)c(c1)cccc1
InChI=InChI=1S/C12H16O2/c1-2-3-7-10-14-12(13)11-8-5-4-6-9-11/h4-6,8-9H,2-3,7,10H2,1H3
computed SMILES=O=C(OCCCCC)C=1C=CC=CC1
accession=JP008489
date=2016.01.19 (Created 2008.10.21, modified 2011.05.06)
author=SODA AROMATIC CO., LTD.
license=CC BY-NC-SA
exact mass=192.11503
ionization energy=70 eV
ion type=[M]+*
computed spectral entropy=2.4777503015461764
computed normalized entropy=0.7697564107331261
SPLASH=splash10-05i0-8900000000-90f57fb3ba7dd293673c
submitter=submitter = University of Tokyo Team (Faculty of Engineering, University of Tokyo)
MoNA Rating=3.75

>  <NUM PEAKS>  (2504) 
25

>  <MASS SPECTRAL PEAKS>  (2504) 
27 10.14
29 9.2
39 7.21
41 11.85
42 12.88
43 6.26
50 5.16
51 19.79
52 1.18
55 11.38
69 2.18
70 21.38
71 1.16
74 1.02
75 1.21
76 2.54
77 54.64
78 4.4
79 6.83
105 99.99
106 8.24
122 16.79
123 73.66
124 5.7
192 1.23

>  <PREDICTED SPECTRUM>  (2504) 
25 10
26 57
27 159
28 25
29 146
36 31
37 46
38 81
39 185
40 79
41 259
42 258
43 189
45 54
49 6
50 211
51 368
52 138
53 112
54 56
55 261
58 2
63 15
65 80
66 24
67 0
68 13
69 89
70 531
71 183
74 38
75 110
76 123
77 654
78 265
79 211
80 29
87 40
92 68
105 999
106 339
107 158
122 354
123 655
124 218
125 32
191 24
192 108
193 23

$$$$

     RDKit          2D

 14 14  0  0  0  0  0  0  0  0999 V2000
   -5.5207    5.3821    0.0000 C   0  0  0  0  0  0  0  0  0  0  0  0
   -6.8197    3.1321    0.0000 C   0  0  0  0  0  0  0  0  0  0  0  0
    3.5726    1.6321    0.0000 C   0  0  0  0  0  0  0  0  0  0  0  0
    3.5731    3.1329    0.0000 C   0  0  0  0  0  0  0  0  0  0  0  0
    2.2731    0.8813    0.0000 C   0  0  0  0  0  0  0  0  0  0  0  0
    2.2740    3.8829    0.0000 C   0  0  0  0  0  0  0  0  0  0  0  0
    0.9740    1.6313    0.0000 C   0  0  0  0  0  0  0  0  0  0  0  0
   -4.2216    3.1321    0.0000 C   0  0  0  0  0  0  0  0  0  0  0  0
   -2.9226    3.8821    0.0000 C   0  0  0  0  0  0  0  0  0  0  0  0
   -5.5207    3.8821    0.0000 C   0  0  0  0  0  0  0  0  0  0  0  0
    0.9745    3.1321    0.0000 C   0  0  0  0  0  0  0  0  0  0  0  0
   -0.3245    3.8821    0.0000 C   0  0  0  0  0  0  0  0  0  0  0  0
   -0.3245    5.3821    0.0000 O   0  0  0  0  0  0  0  0  0  0  0  0
   -1.6236    3.1321    0.0000 O   0  0  0  0  0  0  0  0  0  0  0  0
  4  3  2  0
  5  3  1  0
  6  4  1  0
  7  5  2  0
  9  8  1  0
 10  1  2  0
 10  2  1  0
 10  8  1  0
 11  6  2  0
 11  7  1  0
 12 11  1  0
 13 12  2  0
 14  9  1  0
 14 12  1  0
M  END
>  <NAME>  (2505) 
3-METHYL-3-BUTENYL BENZOATE

>  <SYNONYMS>  (2505) 


>  <SPECTRUM TYPE>  (2505) 
MS1

>  <INSTRUMENT TYPE>  (2505) 
EI-B

>  <INSTRUMENT>  (2505) 
HITACHI M-80B

>  <ION MODE>  (2505) 
P

>  <INCHIKEY>  (2505) 
BBTRQSDRTFFNSW-UHFFFAOYSA-N

>  <FORMULA>  (2505) 
C12H14O2

>  <EXACT MASS>  (2505) 
190.099379688

>  <MW>  (2505) 
190

>  <ID>  (2505) 
JP008488

>  <CONTRIBUTOR>  (2505) 
University of Tokyo Team, {Faculty of Engineering, University of Tokyo

>  <COMMENT>  (2505) 
SMILES=CC(=C)CCOC(=O)c(c1)cccc1
InChI=InChI=1S/C12H14O2/c1-10(2)8-9-14-12(13)11-6-4-3-5-7-11/h3-7H,1,8-9H2,2H3
computed SMILES=O=C(OCCC(=C)C)C=1C=CC=CC1
accession=JP008488
date=2016.01.19 (Created 2008.10.21, modified 2011.05.06)
author=SODA AROMATIC CO., LTD.
license=CC BY-NC-SA
exact mass=190.09938
ionization energy=70 eV
ion type=[M]+*
computed spectral entropy=2.1565783554469315
computed normalized entropy=0.6976864239130329
SPLASH=splash10-066r-9300000000-08620d4fa318940f5a82
submitter=submitter = University of Tokyo Team (Faculty of Engineering, University of Tokyo)
MoNA Rating=3.75

>  <NUM PEAKS>  (2505) 
22

>  <MASS SPECTRAL PEAKS>  (2505) 
27 7.07
29 1.87
39 12.59
41 11.09
42 1.22
50 4.69
51 19.33
52 1.74
53 7.63
55 1.45
66 1.03
67 16.2
68 99.99
69 4.84
74 1.13
76 2.51
77 48.22
78 2.91
79 1.25
105 81.91
106 5.34
123 2.9

>  <PREDICTED SPECTRUM>  (2505) 
25 7
26 65
27 196
28 34
29 89
37 55
38 87
39 320
40 191
41 510
42 165
43 173
44 67
49 12
50 241
51 372
52 194
53 283
60 7
62 26
63 90
65 181
66 33
67 548
68 999
69 534
70 52
71 60
74 35
75 88
76 201
77 545
78 210
85 11
102 25
103 84
104 152
105 916
106 153
107 12
121 19
122 287
123 340
124 127
149 27
190 25

$$$$

     RDKit          2D

 12 12  0  0  0  0  0  0  0  0999 V2000
   -4.8712    2.0071    0.0000 C   0  0  0  0  0  0  0  0  0  0  0  0
   -3.5721    4.2571    0.0000 C   0  0  0  0  0  0  0  0  0  0  0  0
    2.9231    0.5071    0.0000 C   0  0  0  0  0  0  0  0  0  0  0  0
    2.9236    2.0079    0.0000 C   0  0  0  0  0  0  0  0  0  0  0  0
    1.6236   -0.2437    0.0000 C   0  0  0  0  0  0  0  0  0  0  0  0
    1.6245    2.7579    0.0000 C   0  0  0  0  0  0  0  0  0  0  0  0
    0.3245    0.5063    0.0000 C   0  0  0  0  0  0  0  0  0  0  0  0
   -3.5721    2.7571    0.0000 C   0  0  0  0  0  0  0  0  0  0  0  0
    0.3250    2.0071    0.0000 C   0  0  0  0  0  0  0  0  0  0  0  0
   -0.9740    2.7571    0.0000 C   0  0  0  0  0  0  0  0  0  0  0  0
   -0.9740    4.2571    0.0000 O   0  0  0  0  0  0  0  0  0  0  0  0
   -2.2731    2.0071    0.0000 O   0  0  0  0  0  0  0  0  0  0  0  0
  4  3  2  0
  5  3  1  0
  6  4  1  0
  7  5  2  0
  8  1  1  0
  8  2  1  0
  9  6  2  0
  9  7  1  0
 10  9  1  0
 11 10  2  0
 12  8  1  0
 12 10  1  0
M  END
>  <NAME>  (2506) 
1-METHYLETHYL BENZOATE

>  <SYNONYMS>  (2506) 
ISOPROPYL BENZOATE

>  <SPECTRUM TYPE>  (2506) 
MS1

>  <INSTRUMENT TYPE>  (2506) 
EI-B

>  <INSTRUMENT>  (2506) 
HITACHI M-80B

>  <ION MODE>  (2506) 
P

>  <INCHIKEY>  (2506) 
FEXQDZTYJVXMOS-UHFFFAOYSA-N

>  <FORMULA>  (2506) 
C10H12O2

>  <EXACT MASS>  (2506) 
164.083729624

>  <MW>  (2506) 
164

>  <ID>  (2506) 
JP008485

>  <CONTRIBUTOR>  (2506) 
University of Tokyo Team, {Faculty of Engineering, University of Tokyo

>  <COMMENT>  (2506) 
SMILES=CC(C)OC(=O)c(c1)cccc1
InChI=InChI=1S/C10H12O2/c1-8(2)12-10(11)9-6-4-3-5-7-9/h3-8H,1-2H3
computed SMILES=O=C(OC(C)C)C=1C=CC=CC1
accession=JP008485
date=2016.01.19 (Created 2008.10.21, modified 2011.05.06)
author=SODA AROMATIC CO., LTD.
license=CC BY-NC-SA
exact mass=164.08373
ionization energy=70 eV
ion type=[M]+*
computed spectral entropy=2.4833641447145456
computed normalized entropy=0.7622131866671447
SPLASH=splash10-0a4i-7900000000-6d9cfab68ff440cc7b25
submitter=submitter = University of Tokyo Team (Faculty of Engineering, University of Tokyo)
MoNA Rating=3.75

>  <NUM PEAKS>  (2506) 
26

>  <MASS SPECTRAL PEAKS>  (2506) 
15 1.23
27 7.73
32 1.22
39 6.49
41 9.68
42 2.42
43 15.86
50 6.77
51 20.96
52 1.43
59 19.61
74 1.75
75 1.45
76 2.78
77 41.66
78 4.44
79 2.9
105 99.99
106 11.32
122 18.46
123 27.76
124 2.01
146 1.02
149 1.76
164 11.89
165 1.22

>  <PREDICTED SPECTRUM>  (2506) 
14 0
15 15
16 1
25 12
26 64
27 219
29 28
31 44
36 10
37 67
38 109
39 268
40 104
41 358
42 238
43 405
44 176
45 161
49 41
50 273
51 414
52 154
53 89
58 24
59 416
60 82
61 28
62 14
63 53
64 21
65 101
74 124
75 168
76 159
77 685
78 292
79 149
91 53
92 57
94 66
103 7
104 75
105 999
106 360
107 212
119 11
121 159
122 541
123 425
124 48
149 58
163 31
164 403
165 125

$$$$

     RDKit          2D

 12 12  0  0  0  0  0  0  0  0999 V2000
   -5.5207    3.1321    0.0000 C   0  0  0  0  0  0  0  0  0  0  0  0
   -4.2216    2.3821    0.0000 C   0  0  0  0  0  0  0  0  0  0  0  0
    3.5726    0.8821    0.0000 C   0  0  0  0  0  0  0  0  0  0  0  0
    3.5731    2.3829    0.0000 C   0  0  0  0  0  0  0  0  0  0  0  0
    2.2731    0.1313    0.0000 C   0  0  0  0  0  0  0  0  0  0  0  0
    2.2740    3.1329    0.0000 C   0  0  0  0  0  0  0  0  0  0  0  0
    0.9740    0.8813    0.0000 C   0  0  0  0  0  0  0  0  0  0  0  0
   -2.9226    3.1321    0.0000 C   0  0  0  0  0  0  0  0  0  0  0  0
    0.9745    2.3821    0.0000 C   0  0  0  0  0  0  0  0  0  0  0  0
   -0.3245    3.1321    0.0000 C   0  0  0  0  0  0  0  0  0  0  0  0
   -0.3245    4.6321    0.0000 O   0  0  0  0  0  0  0  0  0  0  0  0
   -1.6236    2.3821    0.0000 O   0  0  0  0  0  0  0  0  0  0  0  0
  2  1  1  0
  4  3  2  0
  5  3  1  0
  6  4  1  0
  7  5  2  0
  8  2  1  0
  9  6  2  0
  9  7  1  0
 10  9  1  0
 11 10  2  0
 12  8  1  0
 12 10  1  0
M  END
>  <NAME>  (2507) 
PROPYL BENZOATE

>  <SYNONYMS>  (2507) 


>  <SPECTRUM TYPE>  (2507) 
MS1

>  <INSTRUMENT TYPE>  (2507) 
EI-B

>  <INSTRUMENT>  (2507) 
HITACHI M-80B

>  <ION MODE>  (2507) 
P

>  <INCHIKEY>  (2507) 
UDEWPOVQBGFNGE-UHFFFAOYSA-N

>  <FORMULA>  (2507) 
C10H12O2

>  <EXACT MASS>  (2507) 
164.083729624

>  <MW>  (2507) 
164

>  <ID>  (2507) 
JP008484

>  <CONTRIBUTOR>  (2507) 
University of Tokyo Team, {Faculty of Engineering, University of Tokyo

>  <COMMENT>  (2507) 
SMILES=CCCOC(=O)c(c1)cccc1
InChI=InChI=1S/C10H12O2/c1-2-8-12-10(11)9-6-4-3-5-7-9/h3-7H,2,8H2,1H3
computed SMILES=O=C(OCCC)C=1C=CC=CC1
accession=JP008484
date=2016.01.19 (Created 2008.10.21, modified 2011.05.06)
author=SODA AROMATIC CO., LTD.
license=CC BY-NC-SA
exact mass=164.08373
ionization energy=70 eV
ion type=[M]+*
computed spectral entropy=2.2574269130379943
computed normalized entropy=0.7199588828994362
SPLASH=splash10-0adi-6900000000-c444962e468bef6ef5f8
submitter=submitter = University of Tokyo Team (Faculty of Engineering, University of Tokyo)
MoNA Rating=3.75

>  <NUM PEAKS>  (2507) 
23

>  <MASS SPECTRAL PEAKS>  (2507) 
27 11.04
29 4.51
39 5.75
41 7.3
42 2.34
43 2.44
50 8.2
51 24.31
52 1.33
59 1.43
74 1.56
75 1.53
76 2.7
77 52.75
78 3.89
79 2.7
105 99.99
106 8.44
122 23.86
123 38.31
124 2.33
135 1.19
164 1.4

>  <PREDICTED SPECTRUM>  (2507) 
14 9
16 10
25 21
26 116
27 288
28 26
29 109
31 122
37 85
38 154
39 290
40 131
41 415
42 316
43 412
44 149
49 28
50 362
51 484
52 203
53 93
57 8
59 371
60 112
61 83
62 40
63 154
64 46
65 188
66 31
74 116
75 247
76 276
77 770
78 317
79 239
92 136
105 999
106 301
107 173
121 168
122 549
123 812
124 225
125 19
135 72
163 43
164 287
165 98

$$$$

     RDKit          2D

 12 12  0  0  0  0  0  0  0  0999 V2000
   -5.5207    3.1321    0.0000 C   0  0  0  0  0  0  0  0  0  0  0  0
   -4.2216    2.3821    0.0000 C   0  0  0  0  0  0  0  0  0  0  0  0
    3.5726    0.8821    0.0000 C   0  0  0  0  0  0  0  0  0  0  0  0
    3.5731    2.3829    0.0000 C   0  0  0  0  0  0  0  0  0  0  0  0
    2.2731    0.1313    0.0000 C   0  0  0  0  0  0  0  0  0  0  0  0
    2.2740    3.1329    0.0000 C   0  0  0  0  0  0  0  0  0  0  0  0
    0.9740    0.8813    0.0000 C   0  0  0  0  0  0  0  0  0  0  0  0
   -2.9226    3.1321    0.0000 C   0  0  0  0  0  0  0  0  0  0  0  0
    0.9745    2.3821    0.0000 C   0  0  0  0  0  0  0  0  0  0  0  0
   -0.3245    3.1321    0.0000 C   0  0  0  0  0  0  0  0  0  0  0  0
   -0.3245    4.6321    0.0000 O   0  0  0  0  0  0  0  0  0  0  0  0
   -1.6236    2.3821    0.0000 O   0  0  0  0  0  0  0  0  0  0  0  0
  2  1  2  0
  4  3  2  0
  5  3  1  0
  6  4  1  0
  7  5  2  0
  8  2  1  0
  9  6  2  0
  9  7  1  0
 10  9  1  0
 11 10  2  0
 12  8  1  0
 12 10  1  0
M  END
>  <NAME>  (2508) 
2-PROPENYL BENZOATE

>  <SYNONYMS>  (2508) 
ALLYL BENZOATE

>  <SPECTRUM TYPE>  (2508) 
MS1

>  <INSTRUMENT TYPE>  (2508) 
EI-B

>  <INSTRUMENT>  (2508) 
HITACHI M-80B

>  <ION MODE>  (2508) 
P

>  <INCHIKEY>  (2508) 
LYJHVEDILOKZCG-UHFFFAOYSA-N

>  <FORMULA>  (2508) 
C10H10O2

>  <EXACT MASS>  (2508) 
162.06807956

>  <MW>  (2508) 
162

>  <ID>  (2508) 
JP008483

>  <CONTRIBUTOR>  (2508) 
University of Tokyo Team, {Faculty of Engineering, University of Tokyo

>  <COMMENT>  (2508) 
SMILES=C=CCOC(=O)c(c1)cccc1
InChI=InChI=1S/C10H10O2/c1-2-8-12-10(11)9-6-4-3-5-7-9/h2-7H,1,8H2
computed SMILES=O=C(OCC=C)C=1C=CC=CC1
accession=JP008483
date=2016.01.19 (Created 2008.10.21, modified 2011.05.06)
author=SODA AROMATIC CO., LTD.
license=CC BY-NC-SA
exact mass=162.06808
ionization energy=70 eV
ion type=[M]+*
computed spectral entropy=1.781742562057152
computed normalized entropy=0.6426277896051624
SPLASH=splash10-0a4i-6900000000-ff25aa923c8a2f7b4cc1
submitter=submitter = University of Tokyo Team (Faculty of Engineering, University of Tokyo)
MoNA Rating=3.75

>  <NUM PEAKS>  (2508) 
16

>  <MASS SPECTRAL PEAKS>  (2508) 
26 1.1
27 2.78
38 1.2
39 8.6
41 7.52
50 5.65
51 16.88
74 1.43
75 1.22
76 1.9
77 38.27
78 2.67
105 99.99
106 8.2
117 2.81
162 5.06

>  <PREDICTED SPECTRUM>  (2508) 
25 16
26 65
27 113
28 22
36 16
37 96
38 151
39 308
40 182
41 378
42 120
44 58
49 78
50 268
51 433
52 143
53 69
55 49
57 89
58 8
61 16
62 95
63 130
64 86
65 109
69 4
74 137
75 137
76 108
77 673
78 197
79 3
90 0
92 42
103 1
104 34
105 999
106 280
107 71
118 37
122 299
123 191
135 6
162 166
163 41

$$$$

     RDKit          2D

 10 10  0  0  0  0  0  0  0  0999 V2000
   -3.5724    2.0075    0.0000 C   0  0  0  0  0  0  0  0  0  0  0  0
    2.9228   -0.2425    0.0000 C   0  0  0  0  0  0  0  0  0  0  0  0
    2.9233    1.2583    0.0000 C   0  0  0  0  0  0  0  0  0  0  0  0
    1.6233   -0.9933    0.0000 C   0  0  0  0  0  0  0  0  0  0  0  0
    1.6243    2.0083    0.0000 C   0  0  0  0  0  0  0  0  0  0  0  0
    0.3243   -0.2433    0.0000 C   0  0  0  0  0  0  0  0  0  0  0  0
    0.3248    1.2575    0.0000 C   0  0  0  0  0  0  0  0  0  0  0  0
   -0.9743    2.0075    0.0000 C   0  0  0  0  0  0  0  0  0  0  0  0
   -0.9743    3.5075    0.0000 O   0  0  0  0  0  0  0  0  0  0  0  0
   -2.2733    1.2575    0.0000 O   0  0  0  0  0  0  0  0  0  0  0  0
  3  2  2  0
  4  2  1  0
  5  3  1  0
  6  4  2  0
  7  5  2  0
  7  6  1  0
  8  7  1  0
  9  8  2  0
 10  1  1  0
 10  8  1  0
M  END
>  <NAME>  (2509) 
METHYL BENZOATE

>  <SYNONYMS>  (2509) 


>  <SPECTRUM TYPE>  (2509) 
MS1

>  <INSTRUMENT TYPE>  (2509) 
EI-B

>  <INSTRUMENT>  (2509) 
HITACHI M-80B

>  <ION MODE>  (2509) 
P

>  <INCHIKEY>  (2509) 
QPJVMBTYPHYUOC-UHFFFAOYSA-N

>  <FORMULA>  (2509) 
C8H8O2

>  <EXACT MASS>  (2509) 
136.052429496

>  <MW>  (2509) 
136

>  <ID>  (2509) 
JP008481

>  <CONTRIBUTOR>  (2509) 
University of Tokyo Team, {Faculty of Engineering, University of Tokyo

>  <COMMENT>  (2509) 
SMILES=COC(=O)c(c1)cccc1
InChI=InChI=1S/C8H8O2/c1-10-8(9)7-5-3-2-4-6-7/h2-6H,1H3
computed SMILES=O=C(OC)C=1C=CC=CC1
accession=JP008481
date=2016.01.19 (Created 2008.10.21, modified 2011.05.06)
author=SODA AROMATIC CO., LTD.
license=CC BY-NC-SA
exact mass=136.05243
ionization energy=70 eV
ion type=[M]+*
computed spectral entropy=2.0656868388657754
computed normalized entropy=0.6784928937526297
SPLASH=splash10-0a6r-9800000000-898ce08cbfefd77e3d38
submitter=submitter = University of Tokyo Team (Faculty of Engineering, University of Tokyo)
MoNA Rating=3.75

>  <NUM PEAKS>  (2509) 
21

>  <MASS SPECTRAL PEAKS>  (2509) 
15 3.93
27 1.89
29 3.51
30 1.02
38 1.74
39 2.47
50 14.24
51 31.45
52 1.53
74 4.79
75 2.64
76 4.71
77 67.16
78 5.06
91 1.68
92 1.77
105 99.99
106 7.84
135 1.43
136 34.32
137 2.69

>  <PREDICTED SPECTRUM>  (2509) 
14 32
15 134
16 2
25 1
26 56
27 75
28 50
29 73
37 39
38 51
39 94
49 107
50 421
51 608
52 243
53 119
59 198
61 7
62 99
63 170
64 94
65 140
74 105
75 159
76 139
77 889
78 358
79 101
91 40
105 999
106 271
107 204
121 84
135 289
136 669
137 206

$$$$

     RDKit          2D

 11 10  0  0  0  0  0  0  0  0999 V2000
    2.1998    1.1115    0.0000 C   0  0  0  0  0  0  0  0  0  0  0  0
    5.5478    3.9106    0.0000 C   0  0  0  0  0  0  0  0  0  0  0  0
    4.0478    1.3125    0.0000 C   0  0  0  0  0  0  0  0  0  0  0  0
    6.0969    1.8615    0.0000 C   0  0  0  0  0  0  0  0  0  0  0  0
    0.9007    3.3615    0.0000 C   0  0  0  0  0  0  0  0  0  0  0  0
    3.4988    3.3615    0.0000 C   0  0  0  0  0  0  0  0  0  0  0  0
    2.1998    2.6115    0.0000 C   0  0  0  0  0  0  0  0  0  0  0  0
   -0.3983    2.6115    0.0000 C   0  0  0  0  0  0  0  0  0  0  0  0
    4.7978    2.6115    0.0000 C   0  0  0  0  0  0  0  0  0  0  0  0
   -0.3983    1.1115    0.0000 O   0  0  0  0  0  0  0  0  0  0  0  0
   -1.6974    3.3615    0.0000 O   0  0  0  0  0  0  0  0  0  0  0  0
  7  1  1  0
  7  5  1  0
  7  6  1  0
  8  5  1  0
  9  2  1  0
  9  3  1  0
  9  4  1  0
  9  6  1  0
 10  8  2  0
 11  8  1  0
M  END
>  <NAME>  (2510) 
3,5,5-TRIMETHYLHEXANOIC ACID

>  <SYNONYMS>  (2510) 


>  <SPECTRUM TYPE>  (2510) 
MS1

>  <INSTRUMENT TYPE>  (2510) 
EI-B

>  <INSTRUMENT>  (2510) 
HITACHI M-80B

>  <ION MODE>  (2510) 
P

>  <INCHIKEY>  (2510) 
OILUAKBAMVLXGF-UHFFFAOYSA-N

>  <FORMULA>  (2510) 
C9H18O2

>  <EXACT MASS>  (2510) 
158.130679816

>  <MW>  (2510) 
158

>  <ID>  (2510) 
JP008480

>  <CONTRIBUTOR>  (2510) 
University of Tokyo Team, {Faculty of Engineering, University of Tokyo

>  <COMMENT>  (2510) 
SMILES=OC(=O)CC(C)CC(C)(C)C
InChI=InChI=1S/C9H18O2/c1-7(5-8(10)11)6-9(2,3)4/h7H,5-6H2,1-4H3,(H,10,11)
computed SMILES=O=C(O)CC(C)CC(C)(C)C
accession=JP008480
date=2016.01.19 (Created 2008.10.21, modified 2011.05.06)
author=SODA AROMATIC CO., LTD.
license=CC BY-NC-SA
exact mass=158.13068
ionization energy=70 eV
ion type=[M]+*
computed spectral entropy=2.6564346478848835
computed normalized entropy=0.7888925660254668
SPLASH=splash10-0a4i-9000000000-69b52df2b795916fea4e
submitter=submitter = University of Tokyo Team (Faculty of Engineering, University of Tokyo)
MoNA Rating=3.75

>  <NUM PEAKS>  (2510) 
29

>  <MASS SPECTRAL PEAKS>  (2510) 
15 1.91
27 11.65
29 18.53
31 1.04
39 13.85
41 41.97
42 3.52
43 13.64
45 9.46
53 2.32
55 15.33
56 24.26
57 99.99
58 3.51
59 8.25
60 18.65
61 1.33
67 1.22
69 3.27
83 36.18
84 2.18
87 1.2
97 3.35
99 1.13
101 4.17
102 5.02
103 14.81
125 3.63
143 3.36

>  <PREDICTED SPECTRUM>  (2510) 
14 5
15 43
26 44
27 222
28 45
29 268
31 46
32 0
34 3
37 19
38 48
39 324
40 149
41 616
42 227
43 565
44 46
45 189
46 10
47 18
50 55
51 55
52 56
53 158
54 98
55 417
56 551
57 999
58 236
59 330
60 581
61 321
62 43
63 3
65 22
67 146
68 73
69 362
70 75
71 162
81 36
82 65
83 617
84 88
87 73
97 127
98 2
99 142
100 103
101 426
102 323
103 212
104 9
111 26
115 5
125 86
141 196
143 208
144 33

$$$$

     RDKit          2D

 10  9  0  0  0  0  0  0  0  0999 V2000
    1.9486    3.3750    0.0000 C   0  0  0  0  0  0  0  0  0  0  0  0
    0.6495    1.1250    0.0000 C   0  0  0  0  0  0  0  0  0  0  0  0
   -5.8457    3.3750    0.0000 C   0  0  0  0  0  0  0  0  0  0  0  0
    0.6495    4.1250    0.0000 C   0  0  0  0  0  0  0  0  0  0  0  0
   -0.6495    1.8750    0.0000 C   0  0  0  0  0  0  0  0  0  0  0  0
   -4.5466    4.1250    0.0000 C   0  0  0  0  0  0  0  0  0  0  0  0
   -0.6495    3.3750    0.0000 C   0  0  0  0  0  0  0  0  0  0  0  0
   -1.9486    4.1250    0.0000 C   0  0  0  0  0  0  0  0  0  0  0  0
   -1.9486    5.6250    0.0000 O   0  0  0  0  0  0  0  0  0  0  0  0
   -3.2476    3.3750    0.0000 O   0  0  0  0  0  0  0  0  0  0  0  0
  4  1  1  0
  5  2  1  0
  6  3  1  0
  7  4  1  0
  7  5  1  0
  8  7  1  0
  9  8  2  0
 10  6  1  0
 10  8  1  0
M  END
>  <NAME>  (2511) 
ETHYL 2-ETHYLBUTYRATE

>  <SYNONYMS>  (2511) 


>  <SPECTRUM TYPE>  (2511) 
MS1

>  <INSTRUMENT TYPE>  (2511) 
EI-B

>  <INSTRUMENT>  (2511) 
HITACHI M-80B

>  <ION MODE>  (2511) 
P

>  <INCHIKEY>  (2511) 
MJGSLNIPTRPYJV-UHFFFAOYSA-N

>  <FORMULA>  (2511) 
C8H16O2

>  <EXACT MASS>  (2511) 
144.115029752

>  <MW>  (2511) 
144

>  <ID>  (2511) 
JP008478

>  <CONTRIBUTOR>  (2511) 
University of Tokyo Team, {Faculty of Engineering, University of Tokyo

>  <COMMENT>  (2511) 
SMILES=CCOC(=O)C(CC)CC
InChI=InChI=1S/C8H16O2/c1-4-7(5-2)8(9)10-6-3/h7H,4-6H2,1-3H3
computed SMILES=O=C(OCC)C(CC)CC
accession=JP008478
date=2016.01.19 (Created 2008.10.21, modified 2011.05.06)
author=SODA AROMATIC CO., LTD.
license=CC BY-NC-SA
exact mass=144.11503
ionization energy=70 eV
ion type=[M]+*
computed spectral entropy=2.850956391073634
computed normalized entropy=0.7955745288461943
SPLASH=splash10-00tf-9300000000-19a372f759d83e0a350a
submitter=submitter = University of Tokyo Team (Faculty of Engineering, University of Tokyo)
MoNA Rating=3.75

>  <NUM PEAKS>  (2511) 
36

>  <MASS SPECTRAL PEAKS>  (2511) 
15 1.48
26 1.86
27 27.53
29 45.44
30 1.25
31 1.71
39 14.22
41 27.43
42 8.21
43 96.98
44 2.54
45 9.68
53 2.4
55 24.25
56 1.82
57 1.58
59 1.52
69 5.26
70 11.07
71 82.78
72 4.29
73 22.2
74 1.54
83 1.05
87 22.98
88 18.43
89 2.19
99 41.41
100 2.79
101 39.2
102 3.05
115 23.8
116 99.99
117 10.59
129 3.83
144 1.11

>  <PREDICTED SPECTRUM>  (2511) 
14 24
15 43
19 3
25 28
26 184
27 526
28 284
29 738
30 147
31 288
32 17
37 5
38 57
39 390
40 138
41 619
42 303
43 999
44 237
45 395
46 31
47 125
52 18
53 181
54 169
55 587
56 152
57 512
58 54
59 334
60 146
61 124
67 60
69 267
70 531
71 894
72 188
73 635
74 110
75 106
83 101
85 34
86 61
87 390
88 979
89 390
90 22
97 74
98 123
99 731
100 168
101 576
102 3
114 16
115 473
116 706
117 825
118 188
129 45
144 82
145 42

$$$$

     RDKit          2D

 17 17  0  0  0  0  0  0  0  0999 V2000
    5.5216    5.0079    0.0000 C   0  0  0  0  0  0  0  0  0  0  0  0
    4.2226    4.2579    0.0000 C   0  0  0  0  0  0  0  0  0  0  0  0
    2.9236    5.0079    0.0000 C   0  0  0  0  0  0  0  0  0  0  0  0
  -10.0668    6.5079    0.0000 C   0  0  0  0  0  0  0  0  0  0  0  0
    1.6245    4.2579    0.0000 C   0  0  0  0  0  0  0  0  0  0  0  0
  -10.0673    5.0071    0.0000 C   0  0  0  0  0  0  0  0  0  0  0  0
   -8.7673    7.2587    0.0000 C   0  0  0  0  0  0  0  0  0  0  0  0
   -4.8707    5.0079    0.0000 C   0  0  0  0  0  0  0  0  0  0  0  0
   -8.7683    4.2571    0.0000 C   0  0  0  0  0  0  0  0  0  0  0  0
   -7.4683    6.5087    0.0000 C   0  0  0  0  0  0  0  0  0  0  0  0
   -6.1697    4.2579    0.0000 C   0  0  0  0  0  0  0  0  0  0  0  0
    0.3255    5.0079    0.0000 C   0  0  0  0  0  0  0  0  0  0  0  0
   -3.5716    4.2579    0.0000 C   0  0  0  0  0  0  0  0  0  0  0  0
   -7.4687    5.0079    0.0000 C   0  0  0  0  0  0  0  0  0  0  0  0
   -0.9736    4.2579    0.0000 C   0  0  0  0  0  0  0  0  0  0  0  0
   -0.9736    2.7579    0.0000 O   0  0  0  0  0  0  0  0  0  0  0  0
   -2.2726    5.0079    0.0000 O   0  0  0  0  0  0  0  0  0  0  0  0
  2  1  1  0
  3  2  1  0
  5  3  1  0
  6  4  2  0
  7  4  1  0
  9  6  1  0
 10  7  2  0
  8 11  2  0
 12  5  1  0
 13  8  1  0
 14  9  2  0
 14 10  1  0
 14 11  1  0
 15 12  1  0
 16 15  2  0
 17 13  1  0
 17 15  1  0
M  END
>  <NAME>  (2512) 
CINNAMYL HEXANOATE

>  <SYNONYMS>  (2512) 


>  <SPECTRUM TYPE>  (2512) 
MS1

>  <INSTRUMENT TYPE>  (2512) 
EI-B

>  <INSTRUMENT>  (2512) 
HITACHI M-80B

>  <ION MODE>  (2512) 
P

>  <INCHIKEY>  (2512) 
BHXVENZBMFLCKE-DHZHZOJOSA-N

>  <FORMULA>  (2512) 
C15H20O2

>  <EXACT MASS>  (2512) 
232.14632988

>  <MW>  (2512) 
232

>  <ID>  (2512) 
JP008477

>  <CONTRIBUTOR>  (2512) 
University of Tokyo Team, {Faculty of Engineering, University of Tokyo

>  <COMMENT>  (2512) 
SMILES=CCCCCC(=O)OCC=Cc(c1)cccc1
InChI=InChI=1S/C15H20O2/c1-2-3-5-12-15(16)17-13-8-11-14-9-6-4-7-10-14/h4,6-11H,2-3,5,12-13H2,1H3/b11-8+
computed SMILES=O=C(OCC=CC=1C=CC=CC1)CCCCC
accession=JP008477
date=2016.01.19 (Created 2008.10.21, modified 2011.05.06)
author=SODA AROMATIC CO., LTD.
license=CC BY-NC-SA
exact mass=232.14633
ionization energy=70 eV
ion type=[M]+*
computed spectral entropy=2.8248449375065356
computed normalized entropy=0.7823066061997354
SPLASH=splash10-014m-9400000000-5f892a0d4e1c3ce00577
submitter=submitter = University of Tokyo Team (Faculty of Engineering, University of Tokyo)
MoNA Rating=3.75

>  <NUM PEAKS>  (2512) 
37

>  <MASS SPECTRAL PEAKS>  (2512) 
27 7.53
29 8.26
39 8.77
41 11.69
42 2.78
43 52.29
50 1.11
51 4.62
55 6.46
56 1.02
63 2.07
65 2.73
69 1.37
71 43.18
72 1.88
76 1.01
77 7
78 3.92
79 1.42
89 1.97
91 14.98
92 4.71
99 99.99
100 5.97
102 1.92
103 3.18
104 2.26
105 4.59
115 40.75
116 20.23
117 47.64
118 5.2
131 1.73
133 15.68
134 9.06
232 10.74
233 1.51

>  <PREDICTED SPECTRUM>  (2512) 
15 27
25 25
26 85
27 225
28 113
29 262
30 60
31 24
35 10
36 19
37 53
38 85
39 220
40 91
41 267
42 193
43 467
44 127
45 58
47 13
49 12
50 151
51 198
52 137
53 127
54 112
55 246
56 160
57 194
58 127
60 104
61 83
62 79
63 163
64 109
65 214
66 109
67 60
68 60
69 199
70 140
71 337
72 80
73 70
74 121
75 83
76 97
77 208
78 173
79 119
80 52
81 110
82 50
83 96
84 51
85 45
86 21
87 65
89 125
90 43
91 439
92 307
93 81
95 82
96 50
97 28
98 25
99 410
100 127
101 101
102 181
103 159
104 219
105 225
106 93
107 48
108 71
113 35
114 51
115 604
116 496
117 999
118 284
119 18
120 5
127 52
128 31
130 32
133 378
134 321
135 60
140 24
141 19
144 70
145 23
147 32
161 63
162 109
232 255
233 93
234 26

$$$$

     RDKit          2D

 18 17  0  0  0  0  0  0  0  0999 V2000
    5.1962    6.7500    0.0000 C   0  0  0  0  0  0  0  0  0  0  0  0
   -9.0933   13.5000    0.0000 C   0  0  0  0  0  0  0  0  0  0  0  0
  -10.3923   11.2500    0.0000 C   0  0  0  0  0  0  0  0  0  0  0  0
   -7.7942    6.7500    0.0000 C   0  0  0  0  0  0  0  0  0  0  0  0
    3.8971    7.5000    0.0000 C   0  0  0  0  0  0  0  0  0  0  0  0
    2.5981    6.7500    0.0000 C   0  0  0  0  0  0  0  0  0  0  0  0
    1.2990    7.5000    0.0000 C   0  0  0  0  0  0  0  0  0  0  0  0
   -7.7942    9.7500    0.0000 C   0  0  0  0  0  0  0  0  0  0  0  0
   -7.7942   11.2500    0.0000 C   0  0  0  0  0  0  0  0  0  0  0  0
   -6.4952    9.0000    0.0000 C   0  0  0  0  0  0  0  0  0  0  0  0
    0.0000    6.7500    0.0000 C   0  0  0  0  0  0  0  0  0  0  0  0
   -5.1962    6.7500    0.0000 C   0  0  0  0  0  0  0  0  0  0  0  0
   -3.8971    7.5000    0.0000 C   0  0  0  0  0  0  0  0  0  0  0  0
   -9.0933   12.0000    0.0000 C   0  0  0  0  0  0  0  0  0  0  0  0
   -6.4952    7.5000    0.0000 C   0  0  0  0  0  0  0  0  0  0  0  0
   -1.2990    7.5000    0.0000 C   0  0  0  0  0  0  0  0  0  0  0  0
   -1.2990    9.0000    0.0000 O   0  0  0  0  0  0  0  0  0  0  0  0
   -2.5981    6.7500    0.0000 O   0  0  0  0  0  0  0  0  0  0  0  0
  5  1  1  0
  6  5  1  0
  7  6  1  0
  9  8  1  0
 10  8  1  0
 11  7  1  0
 13 12  1  0
 14  2  1  0
 14  3  1  0
 14  9  2  0
 15  4  1  0
 15 10  1  0
 12 15  2  0
 16 11  1  0
 17 16  2  0
 18 13  1  0
 18 16  1  0
M  END
>  <NAME>  (2513) 
(Z)-3,7-DIMETHYL-2,6-OCTADIENYL HEXANOATE

>  <SYNONYMS>  (2513) 
NERYL HEXANOATE

>  <SPECTRUM TYPE>  (2513) 
MS1

>  <INSTRUMENT TYPE>  (2513) 
EI-B

>  <INSTRUMENT>  (2513) 
HITACHI M-80B

>  <ION MODE>  (2513) 
P

>  <INCHIKEY>  (2513) 
ARVSCQUZFFSNKF-QINSGFPZSA-N

>  <FORMULA>  (2513) 
C16H28O2

>  <EXACT MASS>  (2513) 
252.208930136

>  <MW>  (2513) 
252

>  <ID>  (2513) 
JP008476

>  <CONTRIBUTOR>  (2513) 
University of Tokyo Team, {Faculty of Engineering, University of Tokyo

>  <COMMENT>  (2513) 
SMILES=CCCCCC(=O)OCC([H])=C(C)CCC=C(C)C
InChI=InChI=1S/C16H28O2/c1-5-6-7-11-16(17)18-13-12-15(4)10-8-9-14(2)3/h9,12H,5-8,10-11,13H2,1-4H3/b15-12-
computed SMILES=O=C(OCC=C(C)CCC=C(C)C)CCCCC
accession=JP008476
date=2016.01.19 (Created 2008.10.21, modified 2011.05.06)
author=SODA AROMATIC CO., LTD.
license=CC BY-NC-SA
exact mass=252.20893
ionization energy=70 eV
ion type=[M]+*
computed spectral entropy=3.1725488758114806
computed normalized entropy=0.8109739823639573
SPLASH=splash10-00kf-9100000000-14dc62fff3ebd1344615
submitter=submitter = University of Tokyo Team (Faculty of Engineering, University of Tokyo)
MoNA Rating=3.75

>  <NUM PEAKS>  (2513) 
50

>  <MASS SPECTRAL PEAKS>  (2513) 
27 13.9
29 12.93
39 13.69
40 2.23
41 66.66
42 6.67
43 37.31
45 1.92
51 1.71
52 1.22
53 13.31
54 1.43
55 11.86
56 1.99
57 1.66
60 10.37
65 2.28
66 1.57
67 16.97
68 60.37
69 99.99
70 6.25
71 17.18
73 5.43
77 6.21
78 1.11
79 7.91
80 31.85
81 15.34
82 1.66
83 1.18
84 2.15
85 1
87 1.24
91 6.55
92 16.11
93 75.46
94 12.15
95 4.39
99 25.97
100 1.27
105 2.12
107 8.73
108 2.36
121 28.79
122 2.16
123 2.21
136 19.52
137 4.16
154 2.01

>  <PREDICTED SPECTRUM>  (2513) 
25 2
26 45
27 223
28 91
29 231
31 36
37 8
38 32
39 261
40 139
41 673
42 232
43 474
44 113
45 74
49 2
50 45
51 82
52 83
53 277
54 90
55 317
56 111
57 163
58 46
59 88
60 127
62 10
63 48
64 49
65 159
66 82
67 348
68 663
69 999
70 268
71 258
72 102
73 23
77 201
78 73
79 171
80 530
81 405
82 50
83 46
84 88
85 75
86 20
91 197
92 411
93 873
94 341
95 122
96 1
97 78
98 33
99 461
100 123
101 121
105 149
106 11
107 371
108 177
117 57
119 13
121 554
122 148
123 173
125 25
135 9
136 392
137 204
151 17
153 45
154 122
183 90
209 29

$$$$

     RDKit          2D

 12 12  0  0  0  0  0  0  0  0999 V2000
   -1.8335    0.5083    0.0000 C   0  0  0  0  0  0  0  0  0  0  0  0
   -0.5353   -0.2431    0.0000 C   0  0  0  0  0  0  0  0  0  0  0  0
    7.5924    2.2989    0.0000 C   0  0  0  0  0  0  0  0  0  0  0  0
    0.7645    0.5056    0.0000 C   0  0  0  0  0  0  0  0  0  0  0  0
    6.1252    1.9870    0.0000 C   0  0  0  0  0  0  0  0  0  0  0  0
    8.3376    1.0055    0.0000 C   0  0  0  0  0  0  0  0  0  0  0  0
    4.6609   -0.2484    0.0000 C   0  0  0  0  0  0  0  0  0  0  0  0
    5.9607    0.5003    0.0000 C   0  0  0  0  0  0  0  0  0  0  0  0
    2.0628   -0.2457    0.0000 C   0  0  0  0  0  0  0  0  0  0  0  0
    2.0613   -1.7457    0.0000 O   0  0  0  0  0  0  0  0  0  0  0  0
    7.3370   -0.1068    0.0000 O   0  0  0  0  0  0  0  0  0  0  0  0
    3.3626    0.5030    0.0000 O   0  0  0  0  0  0  0  0  0  0  0  0
  2  1  1  0
  4  2  1  0
  5  3  1  0
  6  3  1  0
  8  5  1  0
  8  7  1  0
  9  4  1  0
 10  9  2  0
 11  6  1  0
 11  8  1  0
 12  7  1  0
 12  9  1  0
M  END
>  <NAME>  (2514) 
TETRAHYDROFURFURYL BUTYRATE

>  <SYNONYMS>  (2514) 


>  <SPECTRUM TYPE>  (2514) 
MS1

>  <INSTRUMENT TYPE>  (2514) 
EI-B

>  <INSTRUMENT>  (2514) 
HITACHI M-80B

>  <ION MODE>  (2514) 
P

>  <INCHIKEY>  (2514) 
DPZVDLFOAZNCBU-UHFFFAOYSA-N

>  <FORMULA>  (2514) 
C9H16O3

>  <EXACT MASS>  (2514) 
172.10994437199997

>  <MW>  (2514) 
172

>  <ID>  (2514) 
JP008475

>  <CONTRIBUTOR>  (2514) 
University of Tokyo Team, {Faculty of Engineering, University of Tokyo

>  <COMMENT>  (2514) 
SMILES=CCCC(=O)OCC(C1)OCC1
InChI=InChI=1S/C9H16O3/c1-2-4-9(10)12-7-8-5-3-6-11-8/h8H,2-7H2,1H3
computed SMILES=O=C(OCC1OCCC1)CCC
accession=JP008475
date=2016.01.19 (Created 2008.10.21, modified 2011.05.06)
author=SODA AROMATIC CO., LTD.
license=CC BY-NC-SA
exact mass=172.10994
ionization energy=70 eV
ion type=[M]+*
computed spectral entropy=1.6415668481510122
computed normalized entropy=0.6399997112518541
SPLASH=splash10-00di-9000000000-a9fd8fcc76090b5c73e9
submitter=submitter = University of Tokyo Team (Faculty of Engineering, University of Tokyo)
MoNA Rating=3.75

>  <NUM PEAKS>  (2514) 
13

>  <MASS SPECTRAL PEAKS>  (2514) 
27 7.83
29 3.44
39 3.92
41 12.38
42 5.33
43 32.85
44 1.28
55 2.3
70 2.11
71 99.99
72 4.04
84 12.58
85 1.47

>  <PREDICTED SPECTRUM>  (2514) 
26 49
27 152
28 17
29 142
31 60
33 6
36 19
38 5
39 151
40 51
41 267
42 148
43 466
44 45
45 53
51 10
53 58
54 47
55 152
56 34
57 86
59 2
60 30
61 21
67 78
68 23
69 66
70 111
71 999
72 176
73 54
81 7
82 5
83 32
84 261
85 31
86 36
89 41
101 26
103 19
127 11
128 45
129 23

$$$$

     RDKit          2D

 15 15  0  0  0  0  0  0  0  0999 V2000
   -7.7951   -1.5010    0.0000 C   0  0  0  0  0  0  0  0  0  0  0  0
    0.0000    3.0000    0.0000 C   0  0  0  0  0  0  0  0  0  0  0  0
    1.8127   -2.1596    0.0000 C   0  0  0  0  0  0  0  0  0  0  0  0
    2.7772   -0.4897    0.0000 C   0  0  0  0  0  0  0  0  0  0  0  0
   -6.4962   -0.7508    0.0000 C   0  0  0  0  0  0  0  0  0  0  0  0
   -5.1970   -1.5006    0.0000 C   0  0  0  0  0  0  0  0  0  0  0  0
   -1.3000    0.7500    0.0000 C   0  0  0  0  0  0  0  0  0  0  0  0
    1.3000    0.7500    0.0000 C   0  0  0  0  0  0  0  0  0  0  0  0
    0.0000   -1.5000    0.0000 C   0  0  0  0  0  0  0  0  0  0  0  0
    0.0000    1.5000    0.0000 C   0  0  0  0  0  0  0  0  0  0  0  0
   -1.3000   -0.7500    0.0000 C   0  0  0  0  0  0  0  0  0  0  0  0
   -3.8981   -0.7504    0.0000 C   0  0  0  0  0  0  0  0  0  0  0  0
    1.3000   -0.7500    0.0000 C   0  0  0  0  0  0  0  0  0  0  0  0
   -3.8983    0.7496    0.0000 O   0  0  0  0  0  0  0  0  0  0  0  0
   -2.5989   -1.5002    0.0000 O   0  0  0  0  0  0  0  0  0  0  0  0
  5  1  1  0
  6  5  1  0
 10  2  1  0
 10  7  1  0
 10  8  1  0
 11  7  1  0
 11  9  1  0
 12  6  1  0
 13  3  1  0
 13  4  1  0
 13  8  1  0
 13  9  1  0
 14 12  2  0
 15 11  1  0
 15 12  1  0
M  END
>  <NAME>  (2515) 
3,3,5-TRIMETHYLCYCLOHEXYL BUTYRATE

>  <SYNONYMS>  (2515) 


>  <SPECTRUM TYPE>  (2515) 
MS1

>  <INSTRUMENT TYPE>  (2515) 
EI-B

>  <INSTRUMENT>  (2515) 
HITACHI M-80B

>  <ION MODE>  (2515) 
P

>  <INCHIKEY>  (2515) 
UIFRJGOCMUXTRV-UHFFFAOYSA-N

>  <FORMULA>  (2515) 
C13H24O2

>  <EXACT MASS>  (2515) 
212.177630008

>  <MW>  (2515) 
212

>  <ID>  (2515) 
JP008474

>  <CONTRIBUTOR>  (2515) 
University of Tokyo Team, {Faculty of Engineering, University of Tokyo

>  <COMMENT>  (2515) 
SMILES=CCCC(=O)OC(C1)CC(C)(C)CC(C)1
InChI=InChI=1S/C13H24O2/c1-5-6-12(14)15-11-7-10(2)8-13(3,4)9-11/h10-11H,5-9H2,1-4H3
computed SMILES=O=C(OC1CC(C)CC(C)(C)C1)CCC
accession=JP008474
date=2016.01.19 (Created 2008.10.21, modified 2011.05.06)
author=SODA AROMATIC CO., LTD.
license=CC BY-NC-SA
exact mass=212.17763
ionization energy=70 eV
ion type=[M]+*
computed spectral entropy=3.0064321642307017
computed normalized entropy=0.8095795935094985
SPLASH=splash10-0avl-9300000000-fc3829aa139cdb6ad022
submitter=submitter = University of Tokyo Team (Faculty of Engineering, University of Tokyo)
MoNA Rating=3.75

>  <NUM PEAKS>  (2515) 
41

>  <MASS SPECTRAL PEAKS>  (2515) 
27 17.6
29 14.06
39 11.03
40 1.66
41 47.17
42 6.16
43 58.48
44 1.9
45 1.35
53 4.21
54 1.01
55 21.94
56 6.37
57 7.78
60 2.35
65 1.08
67 13.74
68 39.65
69 47.17
70 2.83
71 44.19
72 1.78
73 1.2
77 1.37
79 1.89
80 1.87
81 16.02
82 35.95
83 20.52
84 1.52
85 1.43
89 4.1
91 1.09
93 1.51
95 21.02
96 3.61
109 99.99
110 8.69
123 1.46
124 52.15
125 13.52

>  <PREDICTED SPECTRUM>  (2515) 
26 69
27 357
28 121
29 319
31 18
38 18
39 376
40 124
41 685
42 286
43 857
44 138
45 44
50 7
51 113
52 73
53 248
54 230
55 664
56 307
57 367
58 35
63 30
65 162
66 74
67 429
68 325
69 585
70 279
71 829
72 127
77 124
79 74
80 100
81 450
82 530
83 436
84 49
85 292
87 38
88 20
89 86
91 122
93 188
95 337
96 222
97 20
99 118
100 70
101 22
109 999
110 332
123 81
124 623
125 304
126 28

$$$$

     RDKit          2D

 12 12  0  0  0  0  0  0  0  0999 V2000
    6.1262    0.5408    0.0000 C   0  0  0  0  0  0  0  0  0  0  0  0
    4.8268    2.7906    0.0000 C   0  0  0  0  0  0  0  0  0  0  0  0
   -1.6700   -0.9600    0.0000 C   0  0  0  0  0  0  0  0  0  0  0  0
   -1.6700    0.5400    0.0000 C   0  0  0  0  0  0  0  0  0  0  0  0
   -0.3700   -1.7100    0.0000 C   0  0  0  0  0  0  0  0  0  0  0  0
   -0.3700    1.2900    0.0000 C   0  0  0  0  0  0  0  0  0  0  0  0
    0.9300   -0.9600    0.0000 C   0  0  0  0  0  0  0  0  0  0  0  0
    4.8270    1.2906    0.0000 C   0  0  0  0  0  0  0  0  0  0  0  0
    0.9300    0.5400    0.0000 C   0  0  0  0  0  0  0  0  0  0  0  0
    3.5281    0.5404    0.0000 C   0  0  0  0  0  0  0  0  0  0  0  0
    3.5283   -0.9596    0.0000 O   0  0  0  0  0  0  0  0  0  0  0  0
    2.2289    1.2902    0.0000 O   0  0  0  0  0  0  0  0  0  0  0  0
  4  3  1  0
  5  3  1  0
  6  4  1  0
  7  5  1  0
  8  1  1  0
  8  2  1  0
  9  6  1  0
  9  7  1  0
 10  8  1  0
 11 10  2  0
 12  9  1  0
 12 10  1  0
M  END
>  <NAME>  (2516) 
CYCLOHEXYL 2-METHYLPROPIONATE

>  <SYNONYMS>  (2516) 
CYCLOHEXYL ISOBUTYRATE

>  <SPECTRUM TYPE>  (2516) 
MS1

>  <INSTRUMENT TYPE>  (2516) 
EI-B

>  <INSTRUMENT>  (2516) 
HITACHI M-80B

>  <ION MODE>  (2516) 
P

>  <INCHIKEY>  (2516) 
IYYXBWAISHVFEX-UHFFFAOYSA-N

>  <FORMULA>  (2516) 
C10H18O2

>  <EXACT MASS>  (2516) 
170.130679816

>  <MW>  (2516) 
170

>  <ID>  (2516) 
JP008473

>  <CONTRIBUTOR>  (2516) 
University of Tokyo Team, {Faculty of Engineering, University of Tokyo

>  <COMMENT>  (2516) 
SMILES=CC(C)C(=O)OC(C1)CCCC1
InChI=InChI=1S/C10H18O2/c1-8(2)10(11)12-9-6-4-3-5-7-9/h8-9H,3-7H2,1-2H3
computed SMILES=O=C(OC1CCCCC1)C(C)C
accession=JP008473
date=2016.01.19 (Created 2008.10.21, modified 2011.05.06)
author=SODA AROMATIC CO., LTD.
license=CC BY-NC-SA
exact mass=170.13068
ionization energy=70 eV
ion type=[M]+*
computed spectral entropy=2.7932622291513565
computed normalized entropy=0.7856508507302651
SPLASH=splash10-0016-9000000000-f21f9c766a385cd8c337
submitter=submitter = University of Tokyo Team (Faculty of Engineering, University of Tokyo)
MoNA Rating=3.75

>  <NUM PEAKS>  (2516) 
35

>  <MASS SPECTRAL PEAKS>  (2516) 
15 1.67
26 1.27
27 29.29
28 4.36
29 13.79
31 1.12
39 22.05
40 3.82
41 57.71
42 11.05
43 99.99
44 7.62
45 1.38
53 5.97
54 14.71
55 64.44
56 4.98
57 10.21
67 37.1
68 1.81
70 1.83
71 57.9
72 2.39
73 1.46
79 1.43
81 9.87
82 57.22
83 93.98
84 6.34
86 1.53
88 2.14
89 62
90 2.37
99 2.89
127 4.43

>  <PREDICTED SPECTRUM>  (2516) 
25 6
26 80
27 334
28 121
29 262
31 69
36 20
38 38
39 398
40 171
41 676
42 351
43 951
44 227
45 169
51 45
52 10
53 173
54 307
55 705
56 145
57 272
58 91
59 13
65 78
66 98
67 498
68 309
69 185
70 299
71 999
72 282
73 24
77 82
79 43
81 274
82 495
83 446
84 138
85 112
88 201
89 560
90 171
100 36
110 25
127 225
128 27

$$$$

     RDKit          2D

 14 14  0  0  0  0  0  0  0  0999 V2000
   -0.3245    5.3821    0.0000 C   0  0  0  0  0  0  0  0  0  0  0  0
   -6.8197    3.1321    0.0000 C   0  0  0  0  0  0  0  0  0  0  0  0
    3.5726    1.6321    0.0000 C   0  0  0  0  0  0  0  0  0  0  0  0
    3.5731    3.1329    0.0000 C   0  0  0  0  0  0  0  0  0  0  0  0
    2.2731    0.8813    0.0000 C   0  0  0  0  0  0  0  0  0  0  0  0
    2.2740    3.8829    0.0000 C   0  0  0  0  0  0  0  0  0  0  0  0
    0.9740    1.6313    0.0000 C   0  0  0  0  0  0  0  0  0  0  0  0
   -1.6236    3.1321    0.0000 C   0  0  0  0  0  0  0  0  0  0  0  0
   -2.9226    3.8821    0.0000 C   0  0  0  0  0  0  0  0  0  0  0  0
   -0.3245    3.8821    0.0000 C   0  0  0  0  0  0  0  0  0  0  0  0
   -5.5207    3.8821    0.0000 C   0  0  0  0  0  0  0  0  0  0  0  0
    0.9745    3.1321    0.0000 C   0  0  0  0  0  0  0  0  0  0  0  0
   -5.5207    5.3821    0.0000 O   0  0  0  0  0  0  0  0  0  0  0  0
   -4.2216    3.1321    0.0000 O   0  0  0  0  0  0  0  0  0  0  0  0
  4  3  2  0
  5  3  1  0
  6  4  1  0
  7  5  2  0
  9  8  1  0
 10  1  2  0
 10  8  1  0
 11  2  1  0
 12  6  2  0
 12  7  1  0
 12 10  1  0
 13 11  2  0
 14  9  1  0
 14 11  1  0
M  END
>  <NAME>  (2517) 
3-PHENYL-3-BUTENYL ACETATE

>  <SYNONYMS>  (2517) 


>  <SPECTRUM TYPE>  (2517) 
MS1

>  <INSTRUMENT TYPE>  (2517) 
EI-B

>  <INSTRUMENT>  (2517) 
HITACHI M-80B

>  <ION MODE>  (2517) 
P

>  <INCHIKEY>  (2517) 
RIKRCGVPSVKZJW-UHFFFAOYSA-N

>  <FORMULA>  (2517) 
C12H14O2

>  <EXACT MASS>  (2517) 
190.099379688

>  <MW>  (2517) 
190

>  <ID>  (2517) 
JP008472

>  <CONTRIBUTOR>  (2517) 
University of Tokyo Team, {Faculty of Engineering, University of Tokyo

>  <COMMENT>  (2517) 
SMILES=CC(=O)OCCC(=C)c(c1)cccc1
InChI=InChI=1S/C12H14O2/c1-10(8-9-14-11(2)13)12-6-4-3-5-7-12/h3-7H,1,8-9H2,2H3
computed SMILES=O=C(OCCC(=C)C=1C=CC=CC1)C
accession=JP008472
date=2016.01.19 (Created 2008.10.21, modified 2011.05.06)
author=SODA AROMATIC CO., LTD.
license=CC BY-NC-SA
exact mass=190.09938
ionization energy=70 eV
ion type=[M]+*
computed spectral entropy=2.498131244756475
computed normalized entropy=0.6971167971091418
SPLASH=splash10-0036-6900000000-1e3c2c3c34ca47c4534f
submitter=submitter = University of Tokyo Team (Faculty of Engineering, University of Tokyo)
MoNA Rating=3.75

>  <NUM PEAKS>  (2517) 
36

>  <MASS SPECTRAL PEAKS>  (2517) 
15 3.21
27 2.11
39 5.83
41 1.94
42 1.4
43 98.18
44 2.23
50 2.42
51 9.17
52 1.88
53 1.34
63 3.81
65 3.68
73 1.28
74 1.09
75 1.55
76 1.84
77 10.19
78 5.08
79 1.19
89 1.79
91 16.32
92 1.23
102 6.43
103 6.68
115 33.36
116 6.21
117 3.79
118 2.09
119 1.16
127 1.85
128 6.86
129 53.36
130 99.99
131 12.15
190 1.83

>  <PREDICTED SPECTRUM>  (2517) 
14 14
15 14
26 4
27 83
28 14
32 4
38 33
39 207
40 58
41 82
42 15
43 857
44 147
45 106
50 145
51 306
52 140
53 146
55 33
60 34
61 60
62 64
63 184
64 95
65 216
66 54
67 2
71 4
73 110
74 97
75 81
76 65
77 349
78 191
79 127
87 25
89 72
91 358
92 112
93 33
102 224
103 116
104 14
105 53
115 562
116 209
117 206
118 41
119 52
127 208
128 319
129 552
130 999
131 285
132 47
146 19
147 107
148 34

$$$$

     RDKit          2D

 26 25  0  0  0  0  0  0  0  0999 V2000
    7.1447   12.3750    0.0000 C   0  0  0  0  0  0  0  0  0  0  0  0
  -21.4341   12.3750    0.0000 C   0  0  0  0  0  0  0  0  0  0  0  0
  -20.1351   14.6250    0.0000 C   0  0  0  0  0  0  0  0  0  0  0  0
  -14.9389   14.6250    0.0000 C   0  0  0  0  0  0  0  0  0  0  0  0
    5.8457   13.1250    0.0000 C   0  0  0  0  0  0  0  0  0  0  0  0
    4.5466   12.3750    0.0000 C   0  0  0  0  0  0  0  0  0  0  0  0
    3.2476   13.1250    0.0000 C   0  0  0  0  0  0  0  0  0  0  0  0
    1.9486   12.3750    0.0000 C   0  0  0  0  0  0  0  0  0  0  0  0
    0.6495   13.1250    0.0000 C   0  0  0  0  0  0  0  0  0  0  0  0
   -0.6495   12.3750    0.0000 C   0  0  0  0  0  0  0  0  0  0  0  0
   -1.9486   13.1250    0.0000 C   0  0  0  0  0  0  0  0  0  0  0  0
   -3.2476   12.3750    0.0000 C   0  0  0  0  0  0  0  0  0  0  0  0
   -4.5466   13.1250    0.0000 C   0  0  0  0  0  0  0  0  0  0  0  0
   -5.8457   12.3750    0.0000 C   0  0  0  0  0  0  0  0  0  0  0  0
   -7.1447   13.1250    0.0000 C   0  0  0  0  0  0  0  0  0  0  0  0
  -17.5370   13.1250    0.0000 C   0  0  0  0  0  0  0  0  0  0  0  0
  -18.8361   12.3750    0.0000 C   0  0  0  0  0  0  0  0  0  0  0  0
  -16.2380   12.3750    0.0000 C   0  0  0  0  0  0  0  0  0  0  0  0
   -8.4437   12.3750    0.0000 C   0  0  0  0  0  0  0  0  0  0  0  0
  -13.6399   12.3750    0.0000 C   0  0  0  0  0  0  0  0  0  0  0  0
  -12.3409   13.1250    0.0000 C   0  0  0  0  0  0  0  0  0  0  0  0
  -20.1351   13.1250    0.0000 C   0  0  0  0  0  0  0  0  0  0  0  0
  -14.9389   13.1250    0.0000 C   0  0  0  0  0  0  0  0  0  0  0  0
   -9.7428   13.1250    0.0000 C   0  0  0  0  0  0  0  0  0  0  0  0
   -9.7428   14.6250    0.0000 O   0  0  0  0  0  0  0  0  0  0  0  0
  -11.0418   12.3750    0.0000 O   0  0  0  0  0  0  0  0  0  0  0  0
  5  1  1  0
  6  5  1  0
  7  6  1  0
  8  7  1  0
  9  8  1  0
 10  9  1  0
 11 10  1  0
 12 11  1  0
 13 12  1  0
 14 13  1  0
 15 14  1  0
 17 16  1  0
 18 16  1  0
 19 15  1  0
 21 20  1  0
 22  2  1  0
 22  3  1  0
 22 17  2  0
 23  4  1  0
 23 18  1  0
 23 20  1  0
 24 19  1  0
 25 24  2  0
 26 21  1  0
 26 24  1  0
M  END
>  <NAME>  (2518) 
3,7-DIMETHYL-6-OCTENYL TETRADECANOATE

>  <SYNONYMS>  (2518) 
CITRONELLYL MYRISTATE

>  <SPECTRUM TYPE>  (2518) 
MS1

>  <INSTRUMENT TYPE>  (2518) 
EI-B

>  <INSTRUMENT>  (2518) 
HITACHI M-80B

>  <ION MODE>  (2518) 
P

>  <INCHIKEY>  (2518) 
MIBQSCZCOKDSJG-UHFFFAOYSA-N

>  <FORMULA>  (2518) 
C24H46O2

>  <EXACT MASS>  (2518) 
366.349780712

>  <MW>  (2518) 
366

>  <ID>  (2518) 
JP008471

>  <CONTRIBUTOR>  (2518) 
University of Tokyo Team, {Faculty of Engineering, University of Tokyo

>  <COMMENT>  (2518) 
SMILES=CCCCCCCCCCCCCC(=O)OCCC(C)CCC=C(C)C
InChI=InChI=1S/C24H46O2/c1-5-6-7-8-9-10-11-12-13-14-15-19-24(25)26-21-20-23(4)18-16-17-22(2)3/h17,23H,5-16,18-21H2,1-4H3
computed SMILES=O=C(OCCC(C)CCC=C(C)C)CCCCCCCCCCCCC
accession=JP008471
date=2016.01.19 (Created 2008.10.21, modified 2011.05.06)
author=SODA AROMATIC CO., LTD.
license=CC BY-NC-SA
exact mass=366.34978
ionization energy=70 eV
ion type=[M]+*
computed spectral entropy=3.1487517081147263
computed normalized entropy=0.813378509470958
SPLASH=splash10-05o3-9200000000-79da1250df89bc571df4
submitter=submitter = University of Tokyo Team (Faculty of Engineering, University of Tokyo)
MoNA Rating=3.75

>  <NUM PEAKS>  (2518) 
48

>  <MASS SPECTRAL PEAKS>  (2518) 
14 1.3
27 5.22
29 9.8
39 5.5
41 59.65
42 9.73
43 46.56
53 4.84
54 3.08
55 43.95
56 12.81
57 40.71
58 1.67
60 1.12
67 26.5
68 18.61
69 99.33
70 12.35
71 11.09
73 1.83
77 1.07
79 2.88
80 12.68
81 99.99
82 62.96
83 33.45
84 3.58
85 5.08
91 1.2
93 1.6
94 7.26
95 72.39
96 20.24
97 6.92
98 1.65
99 1.59
109 26.79
110 6.33
111 3.26
115 1.04
121 2.15
123 70.54
124 5.55
125 1.17
137 2.6
138 75.82
139 8.41
211 5.06

>  <PREDICTED SPECTRUM>  (2518) 
26 22
27 153
28 20
29 283
31 24
38 15
39 289
40 123
41 719
42 259
43 559
44 149
45 6
50 4
51 61
52 23
53 210
54 115
55 663
56 401
57 661
58 66
59 16
60 65
65 109
66 87
67 538
68 428
69 977
70 347
71 392
72 49
73 110
74 18
75 19
77 124
78 1
79 226
80 306
81 999
82 740
83 584
84 143
85 244
86 19
87 94
91 84
93 51
94 251
95 898
96 448
97 251
98 88
99 64
100 7
101 37
103 6
107 40
108 8
109 559
110 262
111 242
112 64
113 20
115 1
121 33
122 23
123 920
124 280
125 23
127 64
137 128
138 788
139 275
140 41
141 10
142 15
143 54
151 54
152 18
155 3
211 164
212 37

$$$$

     RDKit          2D

 19 18  0  0  0  0  0  0  0  0999 V2000
    4.8714    8.8125    0.0000 C   0  0  0  0  0  0  0  0  0  0  0  0
  -14.6142    9.5625    0.0000 C   0  0  0  0  0  0  0  0  0  0  0  0
  -13.3151    7.3125    0.0000 C   0  0  0  0  0  0  0  0  0  0  0  0
   -8.1190    7.3125    0.0000 C   0  0  0  0  0  0  0  0  0  0  0  0
    3.5724    9.5625    0.0000 C   0  0  0  0  0  0  0  0  0  0  0  0
    2.2733    8.8125    0.0000 C   0  0  0  0  0  0  0  0  0  0  0  0
    0.9743    9.5625    0.0000 C   0  0  0  0  0  0  0  0  0  0  0  0
   -0.3248    8.8125    0.0000 C   0  0  0  0  0  0  0  0  0  0  0  0
  -10.7171    8.8125    0.0000 C   0  0  0  0  0  0  0  0  0  0  0  0
  -12.0161    9.5625    0.0000 C   0  0  0  0  0  0  0  0  0  0  0  0
   -9.4180    9.5625    0.0000 C   0  0  0  0  0  0  0  0  0  0  0  0
   -1.6238    9.5625    0.0000 C   0  0  0  0  0  0  0  0  0  0  0  0
   -6.8200    9.5625    0.0000 C   0  0  0  0  0  0  0  0  0  0  0  0
   -5.5209    8.8125    0.0000 C   0  0  0  0  0  0  0  0  0  0  0  0
  -13.3151    8.8125    0.0000 C   0  0  0  0  0  0  0  0  0  0  0  0
   -8.1190    8.8125    0.0000 C   0  0  0  0  0  0  0  0  0  0  0  0
   -2.9228    8.8125    0.0000 C   0  0  0  0  0  0  0  0  0  0  0  0
   -2.9228    7.3125    0.0000 O   0  0  0  0  0  0  0  0  0  0  0  0
   -4.2219    9.5625    0.0000 O   0  0  0  0  0  0  0  0  0  0  0  0
  5  1  1  0
  6  5  1  0
  7  6  1  0
  8  7  1  0
 10  9  1  0
 11  9  1  0
 12  8  1  0
 14 13  1  0
 15  2  1  0
 15  3  1  0
 15 10  2  0
 16  4  1  0
 16 11  1  0
 13 16  2  0
 17 12  1  0
 18 17  2  0
 19 14  1  0
 19 17  1  0
M  END
>  <NAME>  (2519) 
(E)-3,7-DIMETHYL-2,6-OCTADIENYL HEPTANOATE

>  <SYNONYMS>  (2519) 
GERANYL HEPTANOATE

>  <SPECTRUM TYPE>  (2519) 
MS1

>  <INSTRUMENT TYPE>  (2519) 
EI-B

>  <INSTRUMENT>  (2519) 
HITACHI M-80B

>  <ION MODE>  (2519) 
P

>  <INCHIKEY>  (2519) 
NSMHPPLPBQPIQJ-DTQAZKPQSA-N

>  <FORMULA>  (2519) 
C17H30O2

>  <EXACT MASS>  (2519) 
266.2245802

>  <MW>  (2519) 
266

>  <ID>  (2519) 
JP008470

>  <CONTRIBUTOR>  (2519) 
University of Tokyo Team, {Faculty of Engineering, University of Tokyo

>  <COMMENT>  (2519) 
SMILES=CCCCCCC(=O)OCC([H])=C(C)CCC=C(C)C
InChI=InChI=1S/C17H30O2/c1-5-6-7-8-12-17(18)19-14-13-16(4)11-9-10-15(2)3/h10,13H,5-9,11-12,14H2,1-4H3/b16-13+
computed SMILES=O=C(OCC=C(C)CCC=C(C)C)CCCCCC
accession=JP008470
date=2016.01.19 (Created 2008.10.21, modified 2011.05.06)
author=SODA AROMATIC CO., LTD.
license=CC BY-NC-SA
exact mass=266.22458
ionization energy=70 eV
ion type=[M]+*
computed spectral entropy=3.1717051737531214
computed normalized entropy=0.8066749317048112
SPLASH=splash10-014l-9100000000-4ed7291b21466f25084d
submitter=submitter = University of Tokyo Team (Faculty of Engineering, University of Tokyo)
MoNA Rating=3.75

>  <NUM PEAKS>  (2519) 
51

>  <MASS SPECTRAL PEAKS>  (2519) 
27 12.35
29 12.01
39 12.37
41 64.03
42 5.42
43 40.31
45 1.86
51 1.83
52 1.19
53 11.22
54 1.21
55 12.63
56 1.89
57 5.36
60 11.1
61 1.18
65 2.4
66 1.42
67 14.16
68 56.49
69 99.99
70 7.13
71 1.54
73 5.27
77 5.79
78 1.05
79 7.79
80 22.4
81 10.62
82 1.37
83 1.62
84 1.78
85 10.07
87 1.81
91 6.37
92 12.96
93 60.41
94 9.53
95 3.85
105 1.97
107 7.55
108 2.44
113 22.16
114 1.24
121 24.17
122 1.88
123 2.68
136 17.39
137 2.45
154 1.6
197 1.01

>  <PREDICTED SPECTRUM>  (2519) 
25 5
26 38
27 203
28 81
29 229
31 24
37 7
38 32
39 242
40 130
41 654
42 208
43 415
44 120
45 59
50 38
51 75
52 84
53 262
54 36
55 324
56 143
57 311
58 60
59 22
60 124
61 18
62 6
63 49
64 46
65 155
66 66
67 348
68 672
69 999
70 276
71 114
72 72
73 5
77 177
78 53
79 198
80 533
81 423
82 19
83 69
84 75
85 147
86 56
91 181
92 401
93 819
94 326
95 136
96 15
97 41
98 51
105 106
107 307
108 148
109 53
111 71
112 60
113 379
114 78
115 62
121 526
122 115
123 163
124 5
131 1
136 369
137 166
139 16
153 49
154 171
165 14
197 33

$$$$

     RDKit          2D

 17 16  0  0  0  0  0  0  0  0999 V2000
    4.2219    6.1875    0.0000 C   0  0  0  0  0  0  0  0  0  0  0  0
    2.9228    8.4375    0.0000 C   0  0  0  0  0  0  0  0  0  0  0  0
  -11.3666    6.1875    0.0000 C   0  0  0  0  0  0  0  0  0  0  0  0
  -10.0675    8.4375    0.0000 C   0  0  0  0  0  0  0  0  0  0  0  0
   -2.2733    8.4375    0.0000 C   0  0  0  0  0  0  0  0  0  0  0  0
    0.3248    6.9375    0.0000 C   0  0  0  0  0  0  0  0  0  0  0  0
    1.6238    6.1875    0.0000 C   0  0  0  0  0  0  0  0  0  0  0  0
   -0.9743    6.1875    0.0000 C   0  0  0  0  0  0  0  0  0  0  0  0
   -3.5724    6.1875    0.0000 C   0  0  0  0  0  0  0  0  0  0  0  0
   -4.8714    6.9375    0.0000 C   0  0  0  0  0  0  0  0  0  0  0  0
   -8.7685    6.1875    0.0000 C   0  0  0  0  0  0  0  0  0  0  0  0
    2.9228    6.9375    0.0000 C   0  0  0  0  0  0  0  0  0  0  0  0
  -10.0675    6.9375    0.0000 C   0  0  0  0  0  0  0  0  0  0  0  0
   -2.2733    6.9375    0.0000 C   0  0  0  0  0  0  0  0  0  0  0  0
   -7.4695    6.9375    0.0000 C   0  0  0  0  0  0  0  0  0  0  0  0
   -7.4695    8.4375    0.0000 O   0  0  0  0  0  0  0  0  0  0  0  0
   -6.1704    6.1875    0.0000 O   0  0  0  0  0  0  0  0  0  0  0  0
  7  6  1  0
  8  6  1  0
 10  9  1  0
 12  1  1  0
 12  2  1  0
 12  7  2  0
 13  3  1  0
 13  4  1  0
 13 11  1  0
 14  5  1  0
 14  8  1  0
 14  9  1  0
 15 11  1  0
 16 15  2  0
 17 10  1  0
 17 15  1  0
M  END
>  <NAME>  (2520) 
3,7-DIMETHYL-6-OCTENYL 3-METHYLBUTYRATE

>  <SYNONYMS>  (2520) 
CITRONELLYL ISOVALERATE

>  <SPECTRUM TYPE>  (2520) 
MS1

>  <INSTRUMENT TYPE>  (2520) 
EI-B

>  <INSTRUMENT>  (2520) 
HITACHI M-80B

>  <ION MODE>  (2520) 
P

>  <INCHIKEY>  (2520) 
WZTNQQJXPYEGAF-UHFFFAOYSA-N

>  <FORMULA>  (2520) 
C15H28O2

>  <EXACT MASS>  (2520) 
240.208930136

>  <MW>  (2520) 
240

>  <ID>  (2520) 
JP008468

>  <CONTRIBUTOR>  (2520) 
University of Tokyo Team, {Faculty of Engineering, University of Tokyo

>  <COMMENT>  (2520) 
SMILES=CC(C)=CCCC(C)CCOC(=O)CC(C)C
InChI=InChI=1S/C15H28O2/c1-12(2)7-6-8-14(5)9-10-17-15(16)11-13(3)4/h7,13-14H,6,8-11H2,1-5H3
computed SMILES=O=C(OCCC(C)CCC=C(C)C)CC(C)C
accession=JP008468
date=2016.01.19 (Created 2008.10.21, modified 2011.05.06)
author=SODA AROMATIC CO., LTD.
license=CC BY-NC-SA
exact mass=240.20893
ionization energy=70 eV
ion type=[M]+*
computed spectral entropy=3.5972788894579963
computed normalized entropy=0.8617501580173061
SPLASH=splash10-05o3-9100000000-a9a3921ca5e9af8873b4
submitter=submitter = University of Tokyo Team (Faculty of Engineering, University of Tokyo)
MoNA Rating=3.75

>  <NUM PEAKS>  (2520) 
65

>  <MASS SPECTRAL PEAKS>  (2520) 
17 5.93
18 21.82
20 2.2
27 19.97
28 20.04
29 14.66
30 1.86
31 2.55
32 12.52
34 4.66
41 99.99
42 17.02
43 24.64
44 6.45
45 4.4
51 2.9
52 2.19
53 15.61
54 7.31
55 46.43
56 18.89
57 55.32
58 5.68
59 5.88
60 2.26
61 2.01
63 1.92
65 5.69
66 2.28
67 43.68
68 30.41
69 81.21
70 11.33
71 5.14
77 3.91
79 9.24
80 10.07
81 75.91
82 58.85
83 20.8
84 5.63
85 37.42
86 2.27
91 8.67
93 8.19
94 8.74
95 64.21
96 17.61
97 6.3
103 3.41
107 5.25
108 2.17
109 29.45
110 9.95
111 2.82
119 4.51
120 6.97
122 1.81
123 54.76
124 8.3
134 1.87
137 8.65
138 29.09
139 7.03
152 6.48

>  <PREDICTED SPECTRUM>  (2520) 
26 60
27 230
28 78
29 386
30 42
31 76
37 4
38 27
39 386
40 150
41 785
42 250
43 467
44 107
50 21
51 56
52 14
53 227
54 202
55 584
56 346
57 665
58 96
59 8
60 50
63 21
65 168
66 142
67 623
68 446
69 930
70 307
71 160
73 31
77 217
78 15
79 201
80 308
81 990
82 809
83 426
84 30
85 324
86 66
87 111
91 45
93 163
94 254
95 999
96 511
97 104
98 51
103 163
109 620
110 366
111 29
123 901
124 264
137 51
138 747
139 196
140 64
155 14

$$$$

     RDKit          2D

 19 18  0  0  0  0  0  0  0  0999 V2000
  -15.5885    9.0000    0.0000 C   0  0  0  0  0  0  0  0  0  0  0  0
    5.1962    9.0000    0.0000 C   0  0  0  0  0  0  0  0  0  0  0  0
    3.8971    6.7500    0.0000 C   0  0  0  0  0  0  0  0  0  0  0  0
  -14.2894    8.2500    0.0000 C   0  0  0  0  0  0  0  0  0  0  0  0
  -12.9904    9.0000    0.0000 C   0  0  0  0  0  0  0  0  0  0  0  0
  -11.6913    8.2500    0.0000 C   0  0  0  0  0  0  0  0  0  0  0  0
  -10.3923    9.0000    0.0000 C   0  0  0  0  0  0  0  0  0  0  0  0
   -9.0933    8.2500    0.0000 C   0  0  0  0  0  0  0  0  0  0  0  0
   -7.7942    9.0000    0.0000 C   0  0  0  0  0  0  0  0  0  0  0  0
   -6.4952    8.2500    0.0000 C   0  0  0  0  0  0  0  0  0  0  0  0
   -5.1962    9.0000    0.0000 C   0  0  0  0  0  0  0  0  0  0  0  0
   -3.8971    8.2500    0.0000 C   0  0  0  0  0  0  0  0  0  0  0  0
   -2.5981    9.0000    0.0000 C   0  0  0  0  0  0  0  0  0  0  0  0
   -1.2990    8.2500    0.0000 C   0  0  0  0  0  0  0  0  0  0  0  0
    2.5981    9.0000    0.0000 C   0  0  0  0  0  0  0  0  0  0  0  0
    3.8971    8.2500    0.0000 C   0  0  0  0  0  0  0  0  0  0  0  0
    1.2990    8.2500    0.0000 C   0  0  0  0  0  0  0  0  0  0  0  0
    1.2990    6.7500    0.0000 O   0  0  0  0  0  0  0  0  0  0  0  0
    0.0000    9.0000    0.0000 O   0  0  0  0  0  0  0  0  0  0  0  0
  4  1  1  0
  5  4  1  0
  6  5  1  0
  7  6  1  0
  8  7  1  0
  9  8  1  0
 10  9  1  0
 11 10  1  0
 12 11  1  0
 13 12  1  0
 14 13  1  0
 16  2  1  0
 16  3  1  0
 16 15  1  0
 17 15  1  0
 18 17  2  0
 19 14  1  0
 19 17  1  0
M  END
>  <NAME>  (2521) 
DODECYL 3-METHYLBUTYRATE

>  <SYNONYMS>  (2521) 
DODECYL ISOVALERATE

>  <SPECTRUM TYPE>  (2521) 
MS1

>  <INSTRUMENT TYPE>  (2521) 
EI-B

>  <INSTRUMENT>  (2521) 
HITACHI M-80B

>  <ION MODE>  (2521) 
P

>  <INCHIKEY>  (2521) 
DEHIFZZMFPRYNH-UHFFFAOYSA-N

>  <FORMULA>  (2521) 
C17H34O2

>  <EXACT MASS>  (2521) 
270.255880328

>  <MW>  (2521) 
270

>  <ID>  (2521) 
JP008467

>  <CONTRIBUTOR>  (2521) 
University of Tokyo Team, {Faculty of Engineering, University of Tokyo

>  <COMMENT>  (2521) 
SMILES=CCCCCCCCCCCCOC(=O)CC(C)C
InChI=InChI=1S/C17H34O2/c1-4-5-6-7-8-9-10-11-12-13-14-19-17(18)15-16(2)3/h16H,4-15H2,1-3H3
computed SMILES=O=C(OCCCCCCCCCCCC)CC(C)C
accession=JP008467
date=2016.01.19 (Created 2008.10.21, modified 2011.05.06)
author=SODA AROMATIC CO., LTD.
license=CC BY-NC-SA
exact mass=270.25588
ionization energy=70 eV
ion type=[M]+*
computed spectral entropy=3.2584511589742235
computed normalized entropy=0.8372563246448232
SPLASH=splash10-0pbc-9200000000-f00bd0addee7ce52171c
submitter=submitter = University of Tokyo Team (Faculty of Engineering, University of Tokyo)
MoNA Rating=3.75

>  <NUM PEAKS>  (2521) 
49

>  <MASS SPECTRAL PEAKS>  (2521) 
27 9.91
29 26.1
39 8.23
41 57.42
42 15.25
43 62.33
44 1.73
45 1.13
53 2.2
54 5.81
55 43.66
56 31.54
57 87.57
58 3.74
59 2.37
60 6.69
61 9.13
67 6.36
68 10.34
69 31.45
70 26.93
71 19.42
81 2.33
82 13.88
83 29.62
84 20.21
85 64.49
86 2.8
87 7.92
96 6.63
97 23.89
98 12.12
99 1.82
101 1.17
102 7.06
103 99.99
104 4.88
110 2.13
111 13.72
112 6.97
113 1.2
125 6.04
126 2.88
139 1.58
140 9.75
158 2
168 16.27
169 1.93
213 1.36

>  <PREDICTED SPECTRUM>  (2521) 
25 0
26 52
27 264
28 91
29 421
30 40
31 76
36 37
37 15
38 47
39 277
40 127
41 601
42 311
43 617
44 148
45 49
51 22
52 39
53 163
54 215
55 546
56 537
57 800
58 192
59 186
60 194
61 259
65 49
66 90
67 235
68 274
69 510
70 477
71 395
72 69
73 77
74 30
75 30
79 60
80 29
81 177
82 323
83 508
84 369
85 627
86 139
87 181
95 116
96 220
97 441
98 293
99 117
100 55
101 60
102 233
103 999
104 258
109 77
110 129
111 338
112 255
113 99
115 1
124 75
125 219
126 174
127 44
129 11
138 34
139 122
140 306
141 128
143 65
166 1
167 18
168 379
169 127
170 10
171 20
213 149

$$$$

     RDKit          2D

 15 15  0  0  0  0  0  0  0  0999 V2000
   -6.8197    3.1321    0.0000 C   0  0  0  0  0  0  0  0  0  0  0  0
   -5.5207    5.3821    0.0000 C   0  0  0  0  0  0  0  0  0  0  0  0
   -0.3245    5.3821    0.0000 C   0  0  0  0  0  0  0  0  0  0  0  0
    3.5726    1.6321    0.0000 C   0  0  0  0  0  0  0  0  0  0  0  0
    3.5731    3.1329    0.0000 C   0  0  0  0  0  0  0  0  0  0  0  0
    2.2731    0.8813    0.0000 C   0  0  0  0  0  0  0  0  0  0  0  0
    2.2740    3.8829    0.0000 C   0  0  0  0  0  0  0  0  0  0  0  0
    0.9740    1.6313    0.0000 C   0  0  0  0  0  0  0  0  0  0  0  0
   -4.2216    3.1321    0.0000 C   0  0  0  0  0  0  0  0  0  0  0  0
   -5.5207    3.8821    0.0000 C   0  0  0  0  0  0  0  0  0  0  0  0
   -0.3245    3.8821    0.0000 C   0  0  0  0  0  0  0  0  0  0  0  0
    0.9745    3.1321    0.0000 C   0  0  0  0  0  0  0  0  0  0  0  0
   -2.9226    3.8821    0.0000 C   0  0  0  0  0  0  0  0  0  0  0  0
   -2.9226    5.3821    0.0000 O   0  0  0  0  0  0  0  0  0  0  0  0
   -1.6236    3.1321    0.0000 O   0  0  0  0  0  0  0  0  0  0  0  0
  5  4  2  0
  6  4  1  0
  7  5  1  0
  8  6  2  0
 10  1  1  0
 10  2  1  0
 10  9  1  0
 11  3  1  0
 12  7  2  0
 12  8  1  0
 12 11  1  0
 13  9  1  0
 14 13  2  0
 15 11  1  0
 15 13  1  0
M  END
>  <NAME>  (2522) 
1-PHENYLETHYL 3-METHYLBUTYRATE

>  <SYNONYMS>  (2522) 
METHYL PHENYL CARBINYL ISOVALERATE

>  <SPECTRUM TYPE>  (2522) 
MS1

>  <INSTRUMENT TYPE>  (2522) 
EI-B

>  <INSTRUMENT>  (2522) 
HITACHI M-80B

>  <ION MODE>  (2522) 
P

>  <INCHIKEY>  (2522) 
WYWVAOQKWGNZHN-UHFFFAOYSA-N

>  <FORMULA>  (2522) 
C13H18O2

>  <EXACT MASS>  (2522) 
206.130679816

>  <MW>  (2522) 
206

>  <ID>  (2522) 
JP008466

>  <CONTRIBUTOR>  (2522) 
University of Tokyo Team, {Faculty of Engineering, University of Tokyo

>  <COMMENT>  (2522) 
SMILES=CC(C)CC(=O)OC(C)c(c1)cccc1
InChI=InChI=1S/C13H18O2/c1-10(2)9-13(14)15-11(3)12-7-5-4-6-8-12/h4-8,10-11H,9H2,1-3H3
computed SMILES=O=C(OC(C=1C=CC=CC1)C)CC(C)C
accession=JP008466
date=2016.01.19 (Created 2008.10.21, modified 2011.05.06)
author=SODA AROMATIC CO., LTD.
license=CC BY-NC-SA
exact mass=206.13068
ionization energy=70 eV
ion type=[M]+*
computed spectral entropy=2.6398076619262563
computed normalized entropy=0.7761406839129665
SPLASH=splash10-0pi0-5900000000-3d881535de1381a26949
submitter=submitter = University of Tokyo Team (Faculty of Engineering, University of Tokyo)
MoNA Rating=3.75

>  <NUM PEAKS>  (2522) 
30

>  <MASS SPECTRAL PEAKS>  (2522) 
27 7.33
29 6.01
39 7.52
41 12.72
42 3.15
43 8.97
50 2.55
51 8.96
52 1.82
53 1.13
55 1.11
57 26.25
58 1.08
63 1.52
65 1.16
77 22.7
78 11.38
79 12.48
85 19.74
91 1.19
102 1.18
103 11.93
104 59.35
105 99.99
106 9.04
107 3.73
121 4.02
122 67.23
123 6.01
206 7.78

>  <PREDICTED SPECTRUM>  (2522) 
27 115
28 31
29 117
38 10
39 179
40 59
41 283
42 121
43 321
44 52
45 87
50 98
51 189
52 149
53 176
54 14
55 82
56 49
57 476
58 97
59 3
60 32
62 14
63 115
64 6
65 92
66 28
69 62
75 53
76 42
77 332
78 280
79 362
80 123
85 469
86 139
89 37
91 66
92 44
93 36
102 97
103 357
104 655
105 999
106 341
107 317
121 142
122 798
123 259
206 220
207 50

$$$$

     RDKit          2D

 14 14  0  0  0  0  0  0  0  0999 V2000
   -4.4076    2.1724    0.0000 C   0  0  0  0  0  0  0  0  0  0  0  0
   -3.9161    4.9600    0.0000 C   0  0  0  0  0  0  0  0  0  0  0  0
    0.4537    4.0715    0.0000 C   0  0  0  0  0  0  0  0  0  0  0  0
   -3.1086    2.9224    0.0000 C   0  0  0  0  0  0  0  0  0  0  0  0
   -2.9519    3.8110    0.0000 C   0  0  0  0  0  0  0  0  0  0  0  0
    3.3866    0.6724    0.0000 C   0  0  0  0  0  0  0  0  0  0  0  0
    3.3871    2.1732    0.0000 C   0  0  0  0  0  0  0  0  0  0  0  0
    2.0871   -0.0784    0.0000 C   0  0  0  0  0  0  0  0  0  0  0  0
    2.0880    2.9232    0.0000 C   0  0  0  0  0  0  0  0  0  0  0  0
    0.7880    0.6716    0.0000 C   0  0  0  0  0  0  0  0  0  0  0  0
    0.7885    2.1724    0.0000 C   0  0  0  0  0  0  0  0  0  0  0  0
   -0.5105    2.9224    0.0000 C   0  0  0  0  0  0  0  0  0  0  0  0
   -1.8096    2.1724    0.0000 O   0  0  0  0  0  0  0  0  0  0  0  0
   -1.4747    4.0715    0.0000 O   0  0  0  0  0  0  0  0  0  0  0  0
  4  1  1  0
  5  2  1  0
  7  6  2  0
  8  6  1  0
  9  7  1  0
 10  8  2  0
 11  9  2  0
 11 10  1  0
 12  3  1  0
 12 11  1  0
 13  4  1  0
 13 12  1  0
 14  5  1  0
 14 12  1  0
M  END
>  <NAME>  (2523) 
ACETOPHENONE DIETHYL ACETAL

>  <SYNONYMS>  (2523) 


>  <SPECTRUM TYPE>  (2523) 
MS1

>  <INSTRUMENT TYPE>  (2523) 
EI-B

>  <INSTRUMENT>  (2523) 
HITACHI M-80B

>  <ION MODE>  (2523) 
P

>  <INCHIKEY>  (2523) 
BWZAUXRKSMJLMH-UHFFFAOYSA-N

>  <FORMULA>  (2523) 
C12H18O2

>  <EXACT MASS>  (2523) 
194.130679816

>  <MW>  (2523) 
194

>  <ID>  (2523) 
JP008465

>  <CONTRIBUTOR>  (2523) 
University of Tokyo Team, {Faculty of Engineering, University of Tokyo

>  <COMMENT>  (2523) 
SMILES=CCOC(C)(OCC)c(c1)cccc1
InChI=InChI=1S/C12H18O2/c1-4-13-12(3,14-5-2)11-9-7-6-8-10-11/h6-10H,4-5H2,1-3H3
computed SMILES=O(CC)C(OCC)(C=1C=CC=CC1)C
accession=JP008465
date=2016.01.19 (Created 2008.10.21, modified 2011.05.06)
author=SODA AROMATIC CO., LTD.
license=CC BY-NC-SA
exact mass=194.13068
ionization energy=70 eV
ion type=[M]+*
computed spectral entropy=2.947398078019069
computed normalized entropy=0.8045171236937789
SPLASH=splash10-0pdi-9800000000-1006af7fea3ac35f29e6
submitter=submitter = University of Tokyo Team (Faculty of Engineering, University of Tokyo)
MoNA Rating=3.75

>  <NUM PEAKS>  (2523) 
39

>  <MASS SPECTRAL PEAKS>  (2523) 
15 1.58
26 2.44
27 13.57
29 10.55
38 1.42
39 7.53
41 1.99
42 2.73
43 5.88
50 7.67
51 24.64
52 4.22
53 1.05
62 2.15
63 5.75
64 1.45
65 9
74 3.51
75 2.85
76 4.4
77 38.5
78 47.25
79 3.03
89 2.35
90 1.23
91 29.68
92 4.59
101 1.08
102 5.37
103 16.85
104 35.44
105 99.99
106 6.59
120 20.22
121 1.63
133 1.76
147 17.48
148 26.74
149 2.59

>  <PREDICTED SPECTRUM>  (2523) 
18 19
25 4
26 73
27 200
28 101
29 282
31 90
37 28
38 58
39 191
40 21
41 197
42 55
43 533
44 68
45 84
47 17
49 60
50 211
51 358
52 144
53 117
54 9
57 5
61 20
62 63
63 145
64 64
65 203
66 56
67 38
74 127
75 88
76 130
77 687
78 307
79 281
80 44
81 149
89 30
90 42
91 282
92 89
93 238
94 50
95 83
102 79
103 62
104 117
105 799
106 247
107 97
108 1
109 1
117 102
118 50
119 179
120 169
121 422
122 169
123 95
137 2
148 36
149 999
150 353
151 199
165 94
179 107

$$$$

     RDKit          2D

 15 15  0  0  0  0  0  0  0  0999 V2000
   -6.8197    3.1321    0.0000 C   0  0  0  0  0  0  0  0  0  0  0  0
   -4.2216    7.6321    0.0000 C   0  0  0  0  0  0  0  0  0  0  0  0
   -5.5207    3.8821    0.0000 C   0  0  0  0  0  0  0  0  0  0  0  0
   -4.2216    6.1321    0.0000 C   0  0  0  0  0  0  0  0  0  0  0  0
    3.5726    1.6321    0.0000 C   0  0  0  0  0  0  0  0  0  0  0  0
    3.5731    3.1329    0.0000 C   0  0  0  0  0  0  0  0  0  0  0  0
    2.2731    0.8813    0.0000 C   0  0  0  0  0  0  0  0  0  0  0  0
    2.2740    3.8829    0.0000 C   0  0  0  0  0  0  0  0  0  0  0  0
    0.9740    1.6313    0.0000 C   0  0  0  0  0  0  0  0  0  0  0  0
   -0.3245    3.8821    0.0000 C   0  0  0  0  0  0  0  0  0  0  0  0
   -1.6236    3.1321    0.0000 C   0  0  0  0  0  0  0  0  0  0  0  0
    0.9745    3.1321    0.0000 C   0  0  0  0  0  0  0  0  0  0  0  0
   -2.9226    3.8821    0.0000 C   0  0  0  0  0  0  0  0  0  0  0  0
   -4.2216    3.1321    0.0000 O   0  0  0  0  0  0  0  0  0  0  0  0
   -2.9226    5.3821    0.0000 O   0  0  0  0  0  0  0  0  0  0  0  0
  3  1  1  0
  4  2  1  0
  6  5  2  0
  7  5  1  0
  8  6  1  0
  9  7  2  0
 10 11  2  0
 12  8  2  0
 12  9  1  0
 12 10  1  0
 13 11  1  0
 14  3  1  0
 14 13  1  0
 15  4  1  0
 15 13  1  0
M  END
>  <NAME>  (2524) 
CINNAMALDEHYDE DIETHYL ACETAL

>  <SYNONYMS>  (2524) 


>  <SPECTRUM TYPE>  (2524) 
MS1

>  <INSTRUMENT TYPE>  (2524) 
EI-B

>  <INSTRUMENT>  (2524) 
HITACHI M-80B

>  <ION MODE>  (2524) 
P

>  <INCHIKEY>  (2524) 
VYKDEWVAUWARRX-ZHACJKMWSA-N

>  <FORMULA>  (2524) 
C13H18O2

>  <EXACT MASS>  (2524) 
206.130679816

>  <MW>  (2524) 
206

>  <ID>  (2524) 
JP008464

>  <CONTRIBUTOR>  (2524) 
University of Tokyo Team, {Faculty of Engineering, University of Tokyo

>  <COMMENT>  (2524) 
SMILES=CCOC(OCC)C=Cc(c1)cccc1
InChI=InChI=1S/C13H18O2/c1-3-14-13(15-4-2)11-10-12-8-6-5-7-9-12/h5-11,13H,3-4H2,1-2H3/b11-10+
computed SMILES=O(CC)C(OCC)C=CC=1C=CC=CC1
accession=JP008464
date=2016.01.19 (Created 2008.10.21, modified 2011.05.06)
author=SODA AROMATIC CO., LTD.
license=CC BY-NC-SA
exact mass=206.13068
ionization energy=70 eV
ion type=[M]+*
computed spectral entropy=3.258046057745114
computed normalized entropy=0.813021006027506
SPLASH=splash10-08ir-4900000000-5ff04ad641dee79e456b
submitter=submitter = University of Tokyo Team (Faculty of Engineering, University of Tokyo)
MoNA Rating=3.75

>  <NUM PEAKS>  (2524) 
55

>  <MASS SPECTRAL PEAKS>  (2524) 
15 1.88
26 1.39
27 17.18
29 42.02
30 1.1
31 2.98
39 3.37
43 2.47
45 1.78
47 7.76
50 2.54
51 9.15
52 2.52
53 1.4
55 34.97
56 1.17
63 3.77
65 2.59
74 1.31
75 5.02
76 2.83
77 31.92
78 15.97
79 7.3
88 1.55
89 2.41
91 16.11
92 1.78
101 1.14
102 4.73
103 31.28
104 27.41
105 37.68
106 3.05
107 7.75
115 31.72
116 3.98
117 2.66
118 4.42
119 1.79
121 1.3
129 1.07
131 30.32
132 8.66
133 62.88
134 5.75
135 31.08
136 2.85
160 2.46
161 99.99
162 13.04
177 3.62
178 1.46
206 12.59
207 1.52

>  <PREDICTED SPECTRUM>  (2524) 
14 14
15 19
18 2
25 15
26 145
27 466
28 129
29 638
30 64
31 135
37 39
38 100
39 383
40 90
41 207
42 6
43 218
44 50
45 196
47 302
50 211
51 451
52 171
53 123
55 261
57 182
59 147
61 46
62 110
63 226
64 83
65 335
66 29
73 1
74 75
75 334
76 199
77 743
78 366
79 243
81 32
83 87
87 147
88 10
89 231
90 93
91 408
92 136
93 150
101 44
102 251
103 768
104 484
105 680
106 302
107 309
108 52
115 636
116 197
117 73
118 88
119 16
121 55
128 48
131 581
132 400
133 999
134 375
135 311
136 21
149 165
159 21
160 195
161 996
162 423
163 89
177 347
178 79
205 72
206 313
207 121
208 16

$$$$

     RDKit          2D

 13 13  0  0  0  0  0  0  0  0999 V2000
   -3.9180   -0.7714    0.0000 C   0  0  0  0  0  0  0  0  0  0  0  0
    5.2008    1.4808    0.0000 C   0  0  0  0  0  0  0  0  0  0  0  0
    3.9128    3.7372    0.0000 C   0  0  0  0  0  0  0  0  0  0  0  0
    1.3000   -0.7500    0.0000 C   0  0  0  0  0  0  0  0  0  0  0  0
    0.0300    1.5000    0.0000 C   0  0  0  0  0  0  0  0  0  0  0  0
    0.0300   -1.5000    0.0000 C   0  0  0  0  0  0  0  0  0  0  0  0
   -1.3200    0.7500    0.0000 C   0  0  0  0  0  0  0  0  0  0  0  0
    1.3000    0.7500    0.0000 C   0  0  0  0  0  0  0  0  0  0  0  0
   -1.3200   -0.7500    0.0000 C   0  0  0  0  0  0  0  0  0  0  0  0
    2.6027    1.4936    0.0000 C   0  0  0  0  0  0  0  0  0  0  0  0
   -2.6128   -1.5107    0.0000 O   0  0  0  0  0  0  0  0  0  0  0  0
    3.8980    0.7372    0.0000 O   0  0  0  0  0  0  0  0  0  0  0  0
    2.6101    2.9936    0.0000 O   0  0  0  0  0  0  0  0  0  0  0  0
  6  4  2  0
  7  5  1  0
  8  4  1  0
  8  5  2  0
  9  6  1  0
  9  7  2  0
 10  8  1  0
 11  1  1  0
 11  9  1  0
 12  2  1  0
 12 10  1  0
 13  3  1  0
 13 10  1  0
M  END
>  <NAME>  (2525) 
4-METHOXYBENZALDEHYDE DIMETHYL ACETAL

>  <SYNONYMS>  (2525) 
ANISALDEHYDE DIMETHYL ACETAL

>  <SPECTRUM TYPE>  (2525) 
MS1

>  <INSTRUMENT TYPE>  (2525) 
EI-B

>  <INSTRUMENT>  (2525) 
HITACHI M-80B

>  <ION MODE>  (2525) 
P

>  <INCHIKEY>  (2525) 
NNHYAHOTXLASEA-UHFFFAOYSA-N

>  <FORMULA>  (2525) 
C10H14O3

>  <EXACT MASS>  (2525) 
182.09429430799997

>  <MW>  (2525) 
182

>  <ID>  (2525) 
JP008463

>  <CONTRIBUTOR>  (2525) 
University of Tokyo Team, {Faculty of Engineering, University of Tokyo

>  <COMMENT>  (2525) 
SMILES=COc(c1)ccc(c1)C(OC)OC
InChI=InChI=1S/C10H14O3/c1-11-9-6-4-8(5-7-9)10(12-2)13-3/h4-7,10H,1-3H3
computed SMILES=O(C1=CC=C(C=C1)C(OC)OC)C
accession=JP008463
date=2016.01.19 (Created 2008.10.21, modified 2011.05.06)
author=SODA AROMATIC CO., LTD.
license=CC BY-NC-SA
exact mass=182.09429
ionization energy=70 eV
ion type=[M]+*
computed spectral entropy=2.175273942264626
computed normalized entropy=0.6757868462831101
SPLASH=splash10-0udi-3900000000-8ac1c8e23859fa8c7e8f
submitter=submitter = University of Tokyo Team (Faculty of Engineering, University of Tokyo)
MoNA Rating=3.75

>  <NUM PEAKS>  (2525) 
25

>  <MASS SPECTRAL PEAKS>  (2525) 
15 3.81
29 2.9
31 1.1
39 3.82
47 1.13
50 1.52
51 4.09
59 1.05
63 2.81
64 1.86
65 4.39
75 4.11
77 8.15
78 3.04
79 1.5
91 3.43
92 4.16
107 1.77
108 5.7
121 1.2
135 22.26
136 10.22
151 99.99
152 10.09
182 5.72

>  <PREDICTED SPECTRUM>  (2525) 
14 20
15 93
16 9
17 4
28 9
29 56
30 84
31 91
32 43
37 6
38 59
39 94
40 19
41 13
42 16
44 15
45 79
47 23
49 1
50 150
51 218
52 126
53 181
54 56
59 126
62 49
63 166
64 120
65 160
66 94
67 36
68 0
74 41
75 160
76 79
77 359
78 111
79 145
80 49
81 24
90 45
91 175
92 220
93 144
94 9
95 59
105 60
106 16
107 250
108 173
109 74
119 29
120 62
121 204
122 43
123 33
124 18
134 69
135 434
136 420
137 145
151 999
152 332
153 101
182 205
183 48

$$$$

     RDKit          2D

 13 13  0  0  0  0  0  0  0  0999 V2000
   -5.5207    3.1321    0.0000 C   0  0  0  0  0  0  0  0  0  0  0  0
   -4.2216    5.3821    0.0000 C   0  0  0  0  0  0  0  0  0  0  0  0
    3.5726    0.8821    0.0000 C   0  0  0  0  0  0  0  0  0  0  0  0
    3.5731    2.3829    0.0000 C   0  0  0  0  0  0  0  0  0  0  0  0
    2.2731    0.1313    0.0000 C   0  0  0  0  0  0  0  0  0  0  0  0
    2.2740    3.1329    0.0000 C   0  0  0  0  0  0  0  0  0  0  0  0
    0.9740    0.8813    0.0000 C   0  0  0  0  0  0  0  0  0  0  0  0
   -0.3245    3.1321    0.0000 C   0  0  0  0  0  0  0  0  0  0  0  0
   -1.6236    2.3821    0.0000 C   0  0  0  0  0  0  0  0  0  0  0  0
    0.9745    2.3821    0.0000 C   0  0  0  0  0  0  0  0  0  0  0  0
   -2.9226    3.1321    0.0000 C   0  0  0  0  0  0  0  0  0  0  0  0
   -4.2216    2.3821    0.0000 O   0  0  0  0  0  0  0  0  0  0  0  0
   -2.9226    4.6321    0.0000 O   0  0  0  0  0  0  0  0  0  0  0  0
  4  3  2  0
  5  3  1  0
  6  4  1  0
  7  5  2  0
  8  9  2  0
 10  6  2  0
 10  7  1  0
 10  8  1  0
 11  9  1  0
 12  1  1  0
 12 11  1  0
 13  2  1  0
 13 11  1  0
M  END
>  <NAME>  (2526) 
CINNAMALDEHYDE DIMETHYL ACETAL

>  <SYNONYMS>  (2526) 


>  <SPECTRUM TYPE>  (2526) 
MS1

>  <INSTRUMENT TYPE>  (2526) 
EI-B

>  <INSTRUMENT>  (2526) 
HITACHI M-80B

>  <ION MODE>  (2526) 
P

>  <INCHIKEY>  (2526) 
MBAOABFNWSOOLU-CMDGGOBGSA-N

>  <FORMULA>  (2526) 
C11H14O2

>  <EXACT MASS>  (2526) 
178.099379688

>  <MW>  (2526) 
178

>  <ID>  (2526) 
JP008462

>  <CONTRIBUTOR>  (2526) 
University of Tokyo Team, {Faculty of Engineering, University of Tokyo

>  <COMMENT>  (2526) 
SMILES=COC(OC)C=Cc(c1)cccc1
InChI=InChI=1S/C11H14O2/c1-12-11(13-2)9-8-10-6-4-3-5-7-10/h3-9,11H,1-2H3/b9-8+
computed SMILES=O(C)C(OC)C=CC=1C=CC=CC1
accession=JP008462
date=2016.01.19 (Created 2008.10.21, modified 2011.05.06)
author=SODA AROMATIC CO., LTD.
license=CC BY-NC-SA
exact mass=178.09938
ionization energy=70 eV
ion type=[M]+*
computed spectral entropy=3.2795672781792398
computed normalized entropy=0.8383302638120126
SPLASH=splash10-0ftb-5900000000-1b75a7bd7c6dea7493d9
submitter=submitter = University of Tokyo Team (Faculty of Engineering, University of Tokyo)
MoNA Rating=3.75

>  <NUM PEAKS>  (2526) 
50

>  <MASS SPECTRAL PEAKS>  (2526) 
15 12.29
27 2.92
29 9.3
30 1.24
31 4.67
38 1.25
39 8.42
41 2.33
45 5.71
47 3.81
50 5.23
51 18.26
52 3.83
53 1.45
55 3.58
59 10.96
62 1.93
63 6.36
64 1.23
65 3.19
74 4.41
75 14.94
76 3.84
77 32.29
78 17.39
79 1.86
89 3.07
91 29.85
92 2.42
101 4.43
102 5.76
103 31.12
104 21.01
105 9.48
115 58.33
116 5.88
117 12.69
118 8.23
119 2.25
121 36.46
122 2.64
131 29.08
132 8.7
146 1.81
147 99.99
148 11.13
163 1.6
177 3.8
178 23.3
179 2.44

>  <PREDICTED SPECTRUM>  (2526) 
14 16
15 104
18 21
26 35
27 158
28 74
29 178
30 66
31 141
32 2
33 6
37 41
38 122
39 343
40 101
41 188
42 13
43 20
44 50
45 323
47 76
50 378
51 647
52 296
53 136
55 75
57 161
58 48
59 228
61 68
62 168
63 351
64 160
65 357
66 83
69 51
71 117
73 34
74 148
75 360
76 322
77 857
78 508
79 194
80 1
87 97
88 69
89 436
90 225
91 694
92 161
93 19
101 128
102 163
103 610
104 451
105 623
106 60
115 725
116 248
117 287
118 371
119 182
120 49
121 962
122 127
131 640
132 426
133 22
145 43
146 107
147 999
148 304
149 73
162 46
163 218
164 51
177 286
178 555
179 210
180 26

$$$$

     RDKit          2D

 12 12  0  0  0  0  0  0  0  0999 V2000
    0.1678    3.1570    0.0000 C   0  0  0  0  0  0  0  0  0  0  0  0
   -3.3944    2.0079    0.0000 C   0  0  0  0  0  0  0  0  0  0  0  0
   -3.2377    2.8965    0.0000 C   0  0  0  0  0  0  0  0  0  0  0  0
    3.1008   -0.2421    0.0000 C   0  0  0  0  0  0  0  0  0  0  0  0
    3.1012    1.2587    0.0000 C   0  0  0  0  0  0  0  0  0  0  0  0
    1.8012   -0.9929    0.0000 C   0  0  0  0  0  0  0  0  0  0  0  0
    1.8022    2.0087    0.0000 C   0  0  0  0  0  0  0  0  0  0  0  0
    0.5022   -0.2429    0.0000 C   0  0  0  0  0  0  0  0  0  0  0  0
    0.5027    1.2579    0.0000 C   0  0  0  0  0  0  0  0  0  0  0  0
   -0.7963    2.0079    0.0000 C   0  0  0  0  0  0  0  0  0  0  0  0
   -2.0954    1.2579    0.0000 O   0  0  0  0  0  0  0  0  0  0  0  0
   -1.7605    3.1570    0.0000 O   0  0  0  0  0  0  0  0  0  0  0  0
  5  4  2  0
  6  4  1  0
  7  5  1  0
  8  6  2  0
  9  7  2  0
  9  8  1  0
 10  1  1  0
 10  9  1  0
 11  2  1  0
 11 10  1  0
 12  3  1  0
 12 10  1  0
M  END
>  <NAME>  (2527) 
ACETOPHENONE DIMETHYL ACETAL

>  <SYNONYMS>  (2527) 


>  <SPECTRUM TYPE>  (2527) 
MS1

>  <INSTRUMENT TYPE>  (2527) 
EI-B

>  <INSTRUMENT>  (2527) 
HITACHI M-80B

>  <ION MODE>  (2527) 
P

>  <INCHIKEY>  (2527) 
XKSUVRWJZCEYQQ-UHFFFAOYSA-N

>  <FORMULA>  (2527) 
C10H14O2

>  <EXACT MASS>  (2527) 
166.099379688

>  <MW>  (2527) 
166

>  <ID>  (2527) 
JP008461

>  <CONTRIBUTOR>  (2527) 
University of Tokyo Team, {Faculty of Engineering, University of Tokyo

>  <COMMENT>  (2527) 
SMILES=COC(C)(OC)c(c1)cccc1
InChI=InChI=1S/C10H14O2/c1-10(11-2,12-3)9-7-5-4-6-8-9/h4-8H,1-3H3
computed SMILES=O(C)C(OC)(C=1C=CC=CC1)C
accession=JP008461
date=2016.01.19 (Created 2008.10.21, modified 2011.05.06)
author=SODA AROMATIC CO., LTD.
license=CC BY-NC-SA
exact mass=166.09938
ionization energy=70 eV
ion type=[M]+*
computed spectral entropy=3.171536522758638
computed normalized entropy=0.8331541163109517
SPLASH=splash10-0f7x-9600000000-afa6e2d10eb8e4ac514b
submitter=submitter = University of Tokyo Team (Faculty of Engineering, University of Tokyo)
MoNA Rating=3.75

>  <NUM PEAKS>  (2527) 
45

>  <MASS SPECTRAL PEAKS>  (2527) 
15 15.73
26 1
27 5.46
29 16.07
30 2.64
31 15.74
32 3.12
38 2.29
39 11.74
41 1.58
42 2.66
43 73.04
44 1.09
50 15.26
51 33.57
52 3.81
53 1.09
57 1.43
59 2.49
62 2.79
63 8.82
64 1.83
65 11.86
74 5.27
75 3.65
76 6.23
77 47.47
78 24.28
79 2.38
89 16.09
90 2.29
91 34.29
92 3.35
102 6.81
103 28.35
104 29.25
105 26.45
106 1.64
119 1.87
133 32.67
134 29.7
135 99.99
136 9.24
151 18.69
152 1.5

>  <PREDICTED SPECTRUM>  (2527) 
14 18
15 90
26 55
27 144
28 58
29 139
31 113
32 65
33 51
37 68
38 155
39 450
40 156
41 344
42 74
43 610
44 85
45 234
47 66
49 37
50 408
51 666
52 289
53 243
54 56
55 18
57 5
58 11
59 146
61 27
62 119
63 351
64 145
65 390
66 128
67 63
73 102
74 195
75 334
76 285
77 881
78 482
79 171
85 14
88 30
89 404
90 182
91 782
92 219
101 73
102 208
103 468
104 380
105 935
106 181
108 4
117 65
118 85
119 142
120 118
121 117
131 69
132 110
133 638
134 709
135 999
136 328
147 21
149 42
151 458
152 108
165 78
166 55

$$$$

     RDKit          2D

 19 18  0  0  0  0  0  0  0  0999 V2000
  -13.6399    7.8750    0.0000 C   0  0  0  0  0  0  0  0  0  0  0  0
    4.5466    7.8750    0.0000 C   0  0  0  0  0  0  0  0  0  0  0  0
   -1.9486    2.6250    0.0000 C   0  0  0  0  0  0  0  0  0  0  0  0
  -12.3409    7.1250    0.0000 C   0  0  0  0  0  0  0  0  0  0  0  0
    3.2476    7.1250    0.0000 C   0  0  0  0  0  0  0  0  0  0  0  0
   -3.2476    3.3750    0.0000 C   0  0  0  0  0  0  0  0  0  0  0  0
  -11.0418    7.8750    0.0000 C   0  0  0  0  0  0  0  0  0  0  0  0
    1.9486    7.8750    0.0000 C   0  0  0  0  0  0  0  0  0  0  0  0
   -3.2476    4.8750    0.0000 C   0  0  0  0  0  0  0  0  0  0  0  0
   -9.7428    7.1250    0.0000 C   0  0  0  0  0  0  0  0  0  0  0  0
    0.6495    7.1250    0.0000 C   0  0  0  0  0  0  0  0  0  0  0  0
   -8.4437    7.8750    0.0000 C   0  0  0  0  0  0  0  0  0  0  0  0
   -0.6495    7.8750    0.0000 C   0  0  0  0  0  0  0  0  0  0  0  0
   -4.5466    5.6250    0.0000 C   0  0  0  0  0  0  0  0  0  0  0  0
   -7.1447    7.1250    0.0000 C   0  0  0  0  0  0  0  0  0  0  0  0
   -1.9486    7.1250    0.0000 C   0  0  0  0  0  0  0  0  0  0  0  0
   -4.5466    7.1250    0.0000 C   0  0  0  0  0  0  0  0  0  0  0  0
   -5.8457    7.8750    0.0000 O   0  0  0  0  0  0  0  0  0  0  0  0
   -3.2476    7.8750    0.0000 O   0  0  0  0  0  0  0  0  0  0  0  0
  4  1  1  0
  5  2  1  0
  6  3  1  0
  7  4  1  0
  8  5  1  0
  9  6  1  0
 10  7  1  0
 11  8  1  0
 12 10  1  0
 13 11  1  0
 14  9  1  0
 15 12  1  0
 16 13  1  0
 17 14  1  0
 18 15  1  0
 18 17  1  0
 19 16  1  0
 19 17  1  0
M  END
>  <NAME>  (2528) 
VALERALDEHYDE DIHEXYL ACETAL

>  <SYNONYMS>  (2528) 
PENTANAL DIHEXYL ACETAL

>  <SPECTRUM TYPE>  (2528) 
MS1

>  <INSTRUMENT TYPE>  (2528) 
EI-B

>  <INSTRUMENT>  (2528) 
HITACHI M-80B

>  <ION MODE>  (2528) 
P

>  <INCHIKEY>  (2528) 
JQWXFZZZKPDRKK-UHFFFAOYSA-N

>  <FORMULA>  (2528) 
C17H36O2

>  <EXACT MASS>  (2528) 
272.271530392

>  <MW>  (2528) 
272

>  <ID>  (2528) 
JP008460

>  <CONTRIBUTOR>  (2528) 
University of Tokyo Team, {Faculty of Engineering, University of Tokyo

>  <COMMENT>  (2528) 
SMILES=CCCCCCOC(CCCC)OCCCCCC
InChI=InChI=1S/C17H36O2/c1-4-7-10-12-15-18-17(14-9-6-3)19-16-13-11-8-5-2/h17H,4-16H2,1-3H3
computed SMILES=O(CCCCCC)C(OCCCCCC)CCCC
accession=JP008460
date=2016.01.19 (Created 2008.10.21, modified 2011.05.06)
author=SODA AROMATIC CO., LTD.
license=CC BY-NC-SA
exact mass=272.27153
ionization energy=70 eV
ion type=[M]+*
computed spectral entropy=2.867337940452171
computed normalized entropy=0.8131153693550026
SPLASH=splash10-052o-9000000000-1fe8af2abd8ec0c24c17
submitter=submitter = University of Tokyo Team (Faculty of Engineering, University of Tokyo)
MoNA Rating=3.75

>  <NUM PEAKS>  (2528) 
34

>  <MASS SPECTRAL PEAKS>  (2528) 
26 1.18
27 17.47
29 23.17
31 8.97
39 11.51
41 43.82
42 16.84
43 99.99
44 8.57
45 2.21
53 2.3
54 1.41
55 25.59
56 31.21
57 73.09
58 4.64
67 1.83
68 4.05
69 20.43
70 1.64
71 3.73
83 1.42
84 3.72
85 55.58
86 22.87
87 19.53
88 1.1
113 1.97
131 4.29
141 2.53
170 10.45
171 19.75
172 2.07
215 6.62

>  <PREDICTED SPECTRUM>  (2528) 
26 38
27 324
29 455
31 150
39 314
40 45
41 633
42 342
43 928
44 170
45 171
47 8
53 77
54 68
55 468
56 425
57 732
58 159
59 71
61 3
67 125
68 70
69 408
70 99
71 86
81 9
82 27
83 320
84 172
85 999
86 280
87 321
101 351
102 6
103 72
104 11
113 148
115 1
141 43
143 130
153 112
170 195
171 495
172 143
173 84
215 420
216 12

$$$$

     RDKit          2D

 14 13  0  0  0  0  0  0  0  0999 V2000
   -8.7685    6.1875    0.0000 C   0  0  0  0  0  0  0  0  0  0  0  0
   -7.4695    3.9375    0.0000 C   0  0  0  0  0  0  0  0  0  0  0  0
    4.2219    6.1875    0.0000 C   0  0  0  0  0  0  0  0  0  0  0  0
    2.9228    3.9375    0.0000 C   0  0  0  0  0  0  0  0  0  0  0  0
   -2.2733    3.9375    0.0000 C   0  0  0  0  0  0  0  0  0  0  0  0
   -6.1704    6.1875    0.0000 C   0  0  0  0  0  0  0  0  0  0  0  0
    1.6238    6.1875    0.0000 C   0  0  0  0  0  0  0  0  0  0  0  0
   -4.8714    5.4375    0.0000 C   0  0  0  0  0  0  0  0  0  0  0  0
    0.3248    5.4375    0.0000 C   0  0  0  0  0  0  0  0  0  0  0  0
   -7.4695    5.4375    0.0000 C   0  0  0  0  0  0  0  0  0  0  0  0
    2.9228    5.4375    0.0000 C   0  0  0  0  0  0  0  0  0  0  0  0
   -2.2733    5.4375    0.0000 C   0  0  0  0  0  0  0  0  0  0  0  0
   -3.5724    6.1875    0.0000 O   0  0  0  0  0  0  0  0  0  0  0  0
   -0.9743    6.1875    0.0000 O   0  0  0  0  0  0  0  0  0  0  0  0
  8  6  1  0
  9  7  1  0
 10  1  1  0
 10  2  1  0
 10  6  1  0
 11  3  1  0
 11  4  1  0
 11  7  1  0
 12  5  1  0
 13  8  1  0
 13 12  1  0
 14  9  1  0
 14 12  1  0
M  END
>  <NAME>  (2529) 
ACETALDEHYDE DIISOAMYL ACETAL

>  <SYNONYMS>  (2529) 


>  <SPECTRUM TYPE>  (2529) 
MS1

>  <INSTRUMENT TYPE>  (2529) 
EI-B

>  <INSTRUMENT>  (2529) 
HITACHI M-80B

>  <ION MODE>  (2529) 
P

>  <INCHIKEY>  (2529) 
LXKCTPBHCJDSKC-UHFFFAOYSA-N

>  <FORMULA>  (2529) 
C12H26O2

>  <EXACT MASS>  (2529) 
202.193280072

>  <MW>  (2529) 
202

>  <ID>  (2529) 
JP008459

>  <CONTRIBUTOR>  (2529) 
University of Tokyo Team, {Faculty of Engineering, University of Tokyo

>  <COMMENT>  (2529) 
SMILES=CC(C)CCOC(C)OCCC(C)C
InChI=InChI=1S/C12H26O2/c1-10(2)6-8-13-12(5)14-9-7-11(3)4/h10-12H,6-9H2,1-5H3
computed SMILES=O(CCC(C)C)C(OCCC(C)C)C
accession=JP008459
date=2016.01.19 (Created 2008.10.21, modified 2011.05.06)
author=SODA AROMATIC CO., LTD.
license=CC BY-NC-SA
exact mass=202.19328
ionization energy=70 eV
ion type=[M]+*
computed spectral entropy=2.2157165102808296
computed normalized entropy=0.727771450401153
SPLASH=splash10-00dl-9200000000-e100a89de7c676554608
submitter=submitter = University of Tokyo Team (Faculty of Engineering, University of Tokyo)
MoNA Rating=3.75

>  <NUM PEAKS>  (2529) 
21

>  <MASS SPECTRAL PEAKS>  (2529) 
27 7.92
29 8.57
31 2.86
39 5.82
41 16.41
42 6.28
43 61.05
44 4.02
45 7.21
53 1.1
55 13.56
56 1.49
57 1.55
69 1.35
70 6.68
71 99.99
72 6.75
99 1.13
115 45.88
116 3.87
187 7.25

>  <PREDICTED SPECTRUM>  (2529) 
14 2
15 43
26 87
27 333
28 139
29 324
31 124
39 283
40 79
41 526
42 284
43 911
44 265
45 336
52 22
53 160
54 59
55 347
56 159
57 59
63 23
65 23
69 81
70 191
71 999
72 358
73 19
87 5
88 22
89 53
99 50
101 6
114 46
115 749
116 154
117 43
129 95
130 83
143 54
159 17
185 13
187 287
188 9

$$$$

     RDKit          2D

 10  9  0  0  0  0  0  0  0  0999 V2000
    2.5981    4.5000    0.0000 C   0  0  0  0  0  0  0  0  0  0  0  0
   -7.7942    4.5000    0.0000 C   0  0  0  0  0  0  0  0  0  0  0  0
   -2.5981    3.0000    0.0000 C   0  0  0  0  0  0  0  0  0  0  0  0
    1.2990    5.2500    0.0000 C   0  0  0  0  0  0  0  0  0  0  0  0
   -6.4952    5.2500    0.0000 C   0  0  0  0  0  0  0  0  0  0  0  0
    0.0000    4.5000    0.0000 C   0  0  0  0  0  0  0  0  0  0  0  0
   -5.1962    4.5000    0.0000 C   0  0  0  0  0  0  0  0  0  0  0  0
   -2.5981    4.5000    0.0000 C   0  0  0  0  0  0  0  0  0  0  0  0
   -1.2990    5.2500    0.0000 O   0  0  0  0  0  0  0  0  0  0  0  0
   -3.8971    5.2500    0.0000 O   0  0  0  0  0  0  0  0  0  0  0  0
  4  1  1  0
  5  2  1  0
  6  4  1  0
  7  5  1  0
  8  3  1  0
  9  6  1  0
  9  8  1  0
 10  7  1  0
 10  8  1  0
M  END
>  <NAME>  (2530) 
ACETALDEHYDE DIPROPYL ACETAL

>  <SYNONYMS>  (2530) 


>  <SPECTRUM TYPE>  (2530) 
MS1

>  <INSTRUMENT TYPE>  (2530) 
EI-B

>  <INSTRUMENT>  (2530) 
HITACHI M-80B

>  <ION MODE>  (2530) 
P

>  <INCHIKEY>  (2530) 
MISTZQJSHHTDCF-UHFFFAOYSA-N

>  <FORMULA>  (2530) 
C8H18O2

>  <EXACT MASS>  (2530) 
146.130679816

>  <MW>  (2530) 
146

>  <ID>  (2530) 
JP008458

>  <CONTRIBUTOR>  (2530) 
University of Tokyo Team, {Faculty of Engineering, University of Tokyo

>  <COMMENT>  (2530) 
SMILES=CCCOC(C)OCCC
InChI=InChI=1S/C8H18O2/c1-4-6-9-8(3)10-7-5-2/h8H,4-7H2,1-3H3
computed SMILES=O(CCC)C(OCCC)C
date=2016.01.19 (Created 2008.10.21, modified 2011.05.06)
accession=JP008458
author=SODA AROMATIC CO., LTD.
license=CC BY-NC-SA
exact mass=146.13068
ionization energy=70 eV
ion type=[M]+*
computed spectral entropy=2.20449775040939
computed normalized entropy=0.7240865506834067
SPLASH=splash10-000e-9000000000-8d3189828acb73877576
submitter=submitter = University of Tokyo Team (Faculty of Engineering, University of Tokyo)
MoNA Rating=3.75

>  <NUM PEAKS>  (2530) 
21

>  <MASS SPECTRAL PEAKS>  (2530) 
15 1.87
26 1.41
27 17.85
29 8.4
31 7.92
39 6.61
41 19.01
42 4.95
43 65.74
44 4.78
45 99.99
46 1.95
47 3.05
57 1.09
58 5.11
59 1.63
61 3.09
87 68.27
88 4.14
89 7.04
131 14.24

>  <PREDICTED SPECTRUM>  (2530) 
14 13
15 158
16 6
19 13
26 54
27 288
28 151
29 275
30 49
31 173
32 2
33 27
38 3
39 237
40 99
41 597
42 299
43 949
44 315
45 953
46 124
47 85
55 116
56 49
57 253
58 269
59 258
60 26
61 56
69 56
71 46
72 53
73 294
74 92
75 83
87 999
88 262
89 305
101 48
103 44
131 288

$$$$

     RDKit          2D

 16 15  0  0  0  0  0  0  0  0999 V2000
    3.8971    6.7500    0.0000 C   0  0  0  0  0  0  0  0  0  0  0  0
  -11.6913    6.7500    0.0000 C   0  0  0  0  0  0  0  0  0  0  0  0
  -10.3923    9.0000    0.0000 C   0  0  0  0  0  0  0  0  0  0  0  0
    2.5981    7.5000    0.0000 C   0  0  0  0  0  0  0  0  0  0  0  0
  -10.3923    7.5000    0.0000 C   0  0  0  0  0  0  0  0  0  0  0  0
   -9.0933    9.7500    0.0000 C   0  0  0  0  0  0  0  0  0  0  0  0
    1.2990    6.7500    0.0000 C   0  0  0  0  0  0  0  0  0  0  0  0
    0.0000    7.5000    0.0000 C   0  0  0  0  0  0  0  0  0  0  0  0
   -1.2990    6.7500    0.0000 C   0  0  0  0  0  0  0  0  0  0  0  0
   -2.5981    7.5000    0.0000 C   0  0  0  0  0  0  0  0  0  0  0  0
   -3.8971    6.7500    0.0000 C   0  0  0  0  0  0  0  0  0  0  0  0
   -5.1962    7.5000    0.0000 C   0  0  0  0  0  0  0  0  0  0  0  0
   -6.4952    6.7500    0.0000 C   0  0  0  0  0  0  0  0  0  0  0  0
   -7.7942    7.5000    0.0000 C   0  0  0  0  0  0  0  0  0  0  0  0
   -9.0933    6.7500    0.0000 O   0  0  0  0  0  0  0  0  0  0  0  0
   -7.7942    9.0000    0.0000 O   0  0  0  0  0  0  0  0  0  0  0  0
  4  1  1  0
  5  2  1  0
  6  3  1  0
  7  4  1  0
  8  7  1  0
  9  8  1  0
 10  9  1  0
 11 10  1  0
 12 11  1  0
 13 12  1  0
 14 13  1  0
 15  5  1  0
 15 14  1  0
 16  6  1  0
 16 14  1  0
M  END
>  <NAME>  (2531) 
DECANAL DIETHYL ACETAL

>  <SYNONYMS>  (2531) 


>  <SPECTRUM TYPE>  (2531) 
MS1

>  <INSTRUMENT TYPE>  (2531) 
EI-B

>  <INSTRUMENT>  (2531) 
HITACHI M-80B

>  <ION MODE>  (2531) 
P

>  <INCHIKEY>  (2531) 
GDDPLWAEEWIQKZ-UHFFFAOYSA-N

>  <FORMULA>  (2531) 
C14H30O2

>  <EXACT MASS>  (2531) 
230.2245802

>  <MW>  (2531) 
230

>  <ID>  (2531) 
JP008457

>  <CONTRIBUTOR>  (2531) 
University of Tokyo Team, {Faculty of Engineering, University of Tokyo

>  <COMMENT>  (2531) 
SMILES=CCCCCCCCCC(OCC)OCC
InChI=InChI=1S/C14H30O2/c1-4-7-8-9-10-11-12-13-14(15-5-2)16-6-3/h14H,4-13H2,1-3H3
computed SMILES=O(CC)C(OCC)CCCCCCCCC
accession=JP008457
date=2016.01.19 (Created 2008.10.21, modified 2011.05.06)
author=SODA AROMATIC CO., LTD.
license=CC BY-NC-SA
exact mass=230.22458
ionization energy=70 eV
ion type=[M]+*
computed spectral entropy=3.0519269512331886
computed normalized entropy=0.8017330034996959
SPLASH=splash10-0zi9-9300000000-8bc6e59f3b2a8fc07da9
submitter=submitter = University of Tokyo Team (Faculty of Engineering, University of Tokyo)
MoNA Rating=3.75

>  <NUM PEAKS>  (2531) 
45

>  <MASS SPECTRAL PEAKS>  (2531) 
26 1.09
27 13.73
29 28.84
31 12.79
39 4.08
41 22.09
42 4.05
43 17.02
44 4.69
45 8.01
46 1.55
47 32.24
53 1.54
54 2.32
55 15.85
56 2.61
57 54.9
58 2.26
59 2.7
67 4.1
68 4.51
69 11.14
70 2.18
71 3.51
72 4.5
75 26.8
81 3.94
82 7.01
83 14.86
85 46.79
86 2.3
95 3.27
96 2.65
97 5.36
99 2.97
103 99.99
104 3.82
109 1.42
110 1.41
127 1.26
138 1.05
141 1.72
184 2.36
185 16.07
186 1.69

>  <PREDICTED SPECTRUM>  (2531) 
15 20
26 40
27 234
28 56
29 384
30 63
31 155
39 140
40 53
41 426
42 173
43 471
44 118
45 185
46 35
47 594
49 2
53 121
54 90
55 348
56 101
57 495
58 181
59 148
60 17
61 117
67 141
68 76
69 315
70 80
71 318
72 96
73 107
74 68
75 782
76 144
77 20
81 182
82 102
83 300
84 98
85 348
86 87
87 52
89 135
95 34
96 42
97 104
98 21
99 184
100 29
103 999
104 177
109 33
111 92
112 42
113 99
114 64
115 61
127 175
128 24
129 89
139 80
140 26
155 106
157 277
184 75
185 619
186 81
187 12
201 166

$$$$

     RDKit          2D

 15 14  0  0  0  0  0  0  0  0999 V2000
    3.5221    3.6495    0.0000 C   0  0  0  0  0  0  0  0  0  0  0  0
    0.9240    8.1495    0.0000 C   0  0  0  0  0  0  0  0  0  0  0  0
   -2.9731    5.8995    0.0000 C   0  0  0  0  0  0  0  0  0  0  0  0
   -4.8212    5.6986    0.0000 C   0  0  0  0  0  0  0  0  0  0  0  0
   -6.8702    5.1495    0.0000 C   0  0  0  0  0  0  0  0  0  0  0  0
   -6.3212    3.1005    0.0000 C   0  0  0  0  0  0  0  0  0  0  0  0
    2.2231    4.3995    0.0000 C   0  0  0  0  0  0  0  0  0  0  0  0
    0.9240    6.6495    0.0000 C   0  0  0  0  0  0  0  0  0  0  0  0
   -1.6740    3.6495    0.0000 C   0  0  0  0  0  0  0  0  0  0  0  0
   -4.2721    3.6495    0.0000 C   0  0  0  0  0  0  0  0  0  0  0  0
   -2.9731    4.3995    0.0000 C   0  0  0  0  0  0  0  0  0  0  0  0
   -0.3750    4.3995    0.0000 C   0  0  0  0  0  0  0  0  0  0  0  0
   -5.5712    4.3995    0.0000 C   0  0  0  0  0  0  0  0  0  0  0  0
    0.9240    3.6495    0.0000 O   0  0  0  0  0  0  0  0  0  0  0  0
   -0.3750    5.8995    0.0000 O   0  0  0  0  0  0  0  0  0  0  0  0
  7  1  1  0
  8  2  1  0
 11  3  1  0
 11  9  1  0
 11 10  1  0
 12  9  1  0
 13  4  1  0
 13  5  1  0
 13  6  1  0
 13 10  1  0
 14  7  1  0
 14 12  1  0
 15  8  1  0
 15 12  1  0
M  END
>  <NAME>  (2532) 
ALPINAL DIETHYL ACETAL

>  <SYNONYMS>  (2532) 
3,5,5-TRIMETHYLHEXANAL DIETHYL ACETAL

>  <SPECTRUM TYPE>  (2532) 
MS1

>  <INSTRUMENT TYPE>  (2532) 
EI-B

>  <INSTRUMENT>  (2532) 
HITACHI M-80B

>  <ION MODE>  (2532) 
P

>  <INCHIKEY>  (2532) 
SXOLJHFGARCGQT-UHFFFAOYSA-N

>  <FORMULA>  (2532) 
C13H28O2

>  <EXACT MASS>  (2532) 
216.208930136

>  <MW>  (2532) 
216

>  <ID>  (2532) 
JP008456

>  <CONTRIBUTOR>  (2532) 
University of Tokyo Team, {Faculty of Engineering, University of Tokyo

>  <COMMENT>  (2532) 
SMILES=CCOC(OCC)CC(C)CC(C)(C)C
InChI=InChI=1S/C13H28O2/c1-7-14-12(15-8-2)9-11(3)10-13(4,5)6/h11-12H,7-10H2,1-6H3
computed SMILES=O(CC)C(OCC)CC(C)CC(C)(C)C
accession=JP008456
date=2016.01.19 (Created 2008.10.21, modified 2011.05.06)
author=SODA AROMATIC CO., LTD.
license=CC BY-NC-SA
exact mass=216.20893
ionization energy=70 eV
ion type=[M]+*
computed spectral entropy=3.051277381509076
computed normalized entropy=0.8163582373849464
SPLASH=splash10-0fft-9100000000-2875a5beb7a9d298fd72
submitter=submitter = University of Tokyo Team (Faculty of Engineering, University of Tokyo)
MoNA Rating=3.75

>  <NUM PEAKS>  (2532) 
42

>  <MASS SPECTRAL PEAKS>  (2532) 
15 3
19 1.34
26 2.57
27 28.89
29 50.86
30 1.8
31 25.56
39 13.66
41 47.5
42 3.61
43 25.53
44 8.19
45 14.74
46 3.01
47 38.71
51 1.14
53 8
55 15.01
56 8.68
57 62.78
58 2.34
59 3.11
67 3.19
68 3.76
69 10.77
70 2.85
71 85.47
72 13
73 2.98
75 27.93
83 20.51
84 1.37
85 4.39
99 99.99
100 6.71
103 82.29
104 3.67
109 4.35
113 3.65
155 1.47
170 4.49
171 9.69

>  <PREDICTED SPECTRUM>  (2532) 
14 9
15 111
18 7
19 11
26 69
27 340
28 121
29 500
30 50
31 212
33 21
35 24
38 14
39 267
40 96
41 502
42 173
43 558
44 171
45 267
46 59
47 717
48 17
49 2
51 45
52 12
53 174
54 114
55 371
56 237
57 681
58 143
59 246
60 55
67 90
68 60
69 293
70 175
71 638
72 149
73 132
74 90
75 793
76 118
77 77
81 67
82 28
83 409
84 165
85 471
86 181
87 141
97 115
98 154
99 578
100 236
101 142
102 48
103 999
104 246
111 21
112 0
113 243
114 24
115 65
116 16
117 12
125 103
126 22
127 53
128 0
129 53
143 13
155 69
170 132
171 261

$$$$

     RDKit          2D

 15 14  0  0  0  0  0  0  0  0999 V2000
    3.2476    7.1250    0.0000 C   0  0  0  0  0  0  0  0  0  0  0  0
  -11.0418    7.8750    0.0000 C   0  0  0  0  0  0  0  0  0  0  0  0
   -8.4437    3.3750    0.0000 C   0  0  0  0  0  0  0  0  0  0  0  0
    1.9486    7.8750    0.0000 C   0  0  0  0  0  0  0  0  0  0  0  0
   -9.7428    7.1250    0.0000 C   0  0  0  0  0  0  0  0  0  0  0  0
   -8.4437    4.8750    0.0000 C   0  0  0  0  0  0  0  0  0  0  0  0
    0.6495    7.1250    0.0000 C   0  0  0  0  0  0  0  0  0  0  0  0
   -0.6495    7.8750    0.0000 C   0  0  0  0  0  0  0  0  0  0  0  0
   -1.9486    7.1250    0.0000 C   0  0  0  0  0  0  0  0  0  0  0  0
   -3.2476    7.8750    0.0000 C   0  0  0  0  0  0  0  0  0  0  0  0
   -4.5466    7.1250    0.0000 C   0  0  0  0  0  0  0  0  0  0  0  0
   -5.8457    7.8750    0.0000 C   0  0  0  0  0  0  0  0  0  0  0  0
   -7.1447    7.1250    0.0000 C   0  0  0  0  0  0  0  0  0  0  0  0
   -8.4437    7.8750    0.0000 O   0  0  0  0  0  0  0  0  0  0  0  0
   -7.1447    5.6250    0.0000 O   0  0  0  0  0  0  0  0  0  0  0  0
  4  1  1  0
  5  2  1  0
  6  3  1  0
  7  4  1  0
  8  7  1  0
  9  8  1  0
 10  9  1  0
 11 10  1  0
 12 11  1  0
 13 12  1  0
 14  5  1  0
 14 13  1  0
 15  6  1  0
 15 13  1  0
M  END
>  <NAME>  (2533) 
NONANAL DIETHYL ACETAL

>  <SYNONYMS>  (2533) 


>  <SPECTRUM TYPE>  (2533) 
MS1

>  <INSTRUMENT TYPE>  (2533) 
EI-B

>  <INSTRUMENT>  (2533) 
HITACHI M-80B

>  <ION MODE>  (2533) 
P

>  <INCHIKEY>  (2533) 
RJMSGTVQHHFVLK-UHFFFAOYSA-N

>  <FORMULA>  (2533) 
C13H28O2

>  <EXACT MASS>  (2533) 
216.208930136

>  <MW>  (2533) 
216

>  <ID>  (2533) 
JP008455

>  <CONTRIBUTOR>  (2533) 
University of Tokyo Team, {Faculty of Engineering, University of Tokyo

>  <COMMENT>  (2533) 
SMILES=CCCCCCCCC(OCC)OCC
InChI=InChI=1S/C13H28O2/c1-4-7-8-9-10-11-12-13(14-5-2)15-6-3/h13H,4-12H2,1-3H3
computed SMILES=O(CC)C(OCC)CCCCCCCC
accession=JP008455
date=2016.01.19 (Created 2008.10.21, modified 2011.05.06)
author=SODA AROMATIC CO., LTD.
license=CC BY-NC-SA
exact mass=216.20893
ionization energy=70 eV
ion type=[M]+*
computed spectral entropy=2.9819349527000374
computed normalized entropy=0.7978059211315676
SPLASH=splash10-0zi0-9300000000-28bd6b6048dc32f81deb
submitter=submitter = University of Tokyo Team (Faculty of Engineering, University of Tokyo)
MoNA Rating=3.75

>  <NUM PEAKS>  (2533) 
42

>  <MASS SPECTRAL PEAKS>  (2533) 
26 1.14
27 14.48
29 27.5
31 11.39
39 4.02
41 20.59
42 3.09
43 14.46
44 5.43
45 7.34
46 1.26
47 35.54
53 1.6
54 1.81
55 15.31
56 2.4
57 49.13
58 2.37
59 2.94
67 3.26
68 3.04
69 22.7
70 2.05
71 2.19
72 4.01
75 30.62
81 3.49
82 3.94
83 11.68
85 35.75
86 1.85
95 2.56
96 2.05
97 1.23
99 1.98
103 99.99
104 4.35
127 1.78
141 1.03
170 2.55
171 19.42
172 2.17

>  <PREDICTED SPECTRUM>  (2533) 
15 88
26 44
27 236
28 51
29 358
30 66
31 163
39 157
40 69
41 428
42 182
43 455
44 115
45 135
46 25
47 619
48 20
49 18
52 9
53 127
54 86
55 331
56 110
57 484
58 195
59 196
60 68
61 31
67 116
68 52
69 278
70 88
71 317
72 115
73 55
74 8
75 784
76 139
81 154
82 90
83 239
84 56
85 325
86 99
87 39
95 40
96 39
97 125
98 72
99 193
100 87
101 58
103 999
104 181
113 179
114 37
115 87
125 89
126 41
141 107
143 269
144 3
145 18
170 71
171 606
172 102
173 21
187 177

$$$$

     RDKit          2D

 13 12  0  0  0  0  0  0  0  0999 V2000
    2.5981    6.0000    0.0000 C   0  0  0  0  0  0  0  0  0  0  0  0
   -9.0933    6.7500    0.0000 C   0  0  0  0  0  0  0  0  0  0  0  0
   -6.4952    2.2500    0.0000 C   0  0  0  0  0  0  0  0  0  0  0  0
    1.2990    6.7500    0.0000 C   0  0  0  0  0  0  0  0  0  0  0  0
   -7.7942    6.0000    0.0000 C   0  0  0  0  0  0  0  0  0  0  0  0
   -6.4952    3.7500    0.0000 C   0  0  0  0  0  0  0  0  0  0  0  0
    0.0000    6.0000    0.0000 C   0  0  0  0  0  0  0  0  0  0  0  0
   -1.2990    6.7500    0.0000 C   0  0  0  0  0  0  0  0  0  0  0  0
   -2.5981    6.0000    0.0000 C   0  0  0  0  0  0  0  0  0  0  0  0
   -3.8971    6.7500    0.0000 C   0  0  0  0  0  0  0  0  0  0  0  0
   -5.1962    6.0000    0.0000 C   0  0  0  0  0  0  0  0  0  0  0  0
   -6.4952    6.7500    0.0000 O   0  0  0  0  0  0  0  0  0  0  0  0
   -5.1962    4.5000    0.0000 O   0  0  0  0  0  0  0  0  0  0  0  0
  4  1  1  0
  5  2  1  0
  6  3  1  0
  7  4  1  0
  8  7  1  0
  9  8  1  0
 10  9  1  0
 11 10  1  0
 12  5  1  0
 12 11  1  0
 13  6  1  0
 13 11  1  0
M  END
>  <NAME>  (2534) 
HEPTANAL DIETHYL ACETAL

>  <SYNONYMS>  (2534) 


>  <SPECTRUM TYPE>  (2534) 
MS1

>  <INSTRUMENT TYPE>  (2534) 
EI-B

>  <INSTRUMENT>  (2534) 
HITACHI M-80B

>  <ION MODE>  (2534) 
P

>  <INCHIKEY>  (2534) 
UGOCNHASEZIJFQ-UHFFFAOYSA-N

>  <FORMULA>  (2534) 
C11H24O2

>  <EXACT MASS>  (2534) 
188.177630008

>  <MW>  (2534) 
188

>  <ID>  (2534) 
JP008454

>  <CONTRIBUTOR>  (2534) 
University of Tokyo Team, {Faculty of Engineering, University of Tokyo

>  <COMMENT>  (2534) 
SMILES=CCCCCCC(OCC)OCC
InChI=InChI=1S/C11H24O2/c1-4-7-8-9-10-11(12-5-2)13-6-3/h11H,4-10H2,1-3H3
computed SMILES=O(CC)C(OCC)CCCCCC
accession=JP008454
date=2016.01.19 (Created 2008.10.21, modified 2011.05.06)
author=SODA AROMATIC CO., LTD.
license=CC BY-NC-SA
exact mass=188.17763
ionization energy=70 eV
ion type=[M]+*
computed spectral entropy=2.7500893419908854
computed normalized entropy=0.7674270428652202
SPLASH=splash10-0ufv-9400000000-8fb7540495be524254b7
submitter=submitter = University of Tokyo Team (Faculty of Engineering, University of Tokyo)
MoNA Rating=3.75

>  <NUM PEAKS>  (2534) 
36

>  <MASS SPECTRAL PEAKS>  (2534) 
15 1
19 1.11
27 14.91
28 1.92
29 32.19
30 1.09
31 3.81
39 3.68
41 17.89
42 2.44
43 14.1
44 8.02
45 4.6
47 51.27
53 1.25
55 34.69
56 2.05
57 12.4
58 1.63
59 3.38
67 1.26
69 6.17
70 1.05
72 3.5
73 1.12
75 34.91
76 1.07
85 5.69
88 1.93
97 18.45
98 1.32
103 99.99
104 4.92
113 1.23
143 30.05
144 2.82

>  <PREDICTED SPECTRUM>  (2534) 
15 20
19 4
26 49
27 255
28 57
29 360
30 58
31 171
33 5
35 2
39 171
40 72
41 408
42 203
43 449
44 168
45 120
46 43
47 659
48 4
49 18
52 12
53 135
54 70
55 279
56 104
57 434
58 198
59 210
67 97
68 52
69 198
70 79
71 304
72 158
73 120
74 0
75 794
76 126
81 86
82 24
83 131
85 324
86 135
87 118
89 40
90 2
97 140
98 57
99 101
100 12
103 999
104 179
113 117
114 2
115 281
116 70
117 116
129 7
142 75
143 580
144 114
145 58
159 177
188 2

$$$$

     RDKit          2D

 10  9  0  0  0  0  0  0  0  0999 V2000
   -6.4952    4.5000    0.0000 C   0  0  0  0  0  0  0  0  0  0  0  0
    2.5981    3.7500    0.0000 C   0  0  0  0  0  0  0  0  0  0  0  0
    1.2990    1.5000    0.0000 C   0  0  0  0  0  0  0  0  0  0  0  0
   -5.1962    3.7500    0.0000 C   0  0  0  0  0  0  0  0  0  0  0  0
   -3.8971    4.5000    0.0000 C   0  0  0  0  0  0  0  0  0  0  0  0
   -2.5981    3.7500    0.0000 C   0  0  0  0  0  0  0  0  0  0  0  0
   -1.2990    4.5000    0.0000 C   0  0  0  0  0  0  0  0  0  0  0  0
    0.0000    3.7500    0.0000 C   0  0  0  0  0  0  0  0  0  0  0  0
    1.2990    4.5000    0.0000 O   0  0  0  0  0  0  0  0  0  0  0  0
   -0.0000    2.2500    0.0000 O   0  0  0  0  0  0  0  0  0  0  0  0
  4  1  1  0
  5  4  1  0
  6  5  1  0
  6  7  2  0
  8  7  1  0
  9  2  1  0
  9  8  1  0
 10  3  1  0
 10  8  1  0
M  END
>  <NAME>  (2535) 
TRANS-2-HEXENAL DIMETHYL ACETAL

>  <SYNONYMS>  (2535) 


>  <SPECTRUM TYPE>  (2535) 
MS1

>  <INSTRUMENT TYPE>  (2535) 
EI-B

>  <INSTRUMENT>  (2535) 
HITACHI M-80B

>  <ION MODE>  (2535) 
P

>  <INCHIKEY>  (2535) 
OSVRJMZINDGZFB-VOTSOKGWSA-N

>  <FORMULA>  (2535) 
C8H16O2

>  <EXACT MASS>  (2535) 
144.115029752

>  <MW>  (2535) 
144

>  <ID>  (2535) 
JP008453

>  <CONTRIBUTOR>  (2535) 
University of Tokyo Team, {Faculty of Engineering, University of Tokyo

>  <COMMENT>  (2535) 
SMILES=CCCC=CC(OC)OC
InChI=InChI=1S/C8H16O2/c1-4-5-6-7-8(9-2)10-3/h6-8H,4-5H2,1-3H3/b7-6+
computed SMILES=O(C)C(OC)C=CCCC
accession=JP008453
date=2016.01.19 (Created 2008.10.21, modified 2011.05.06)
author=SODA AROMATIC CO., LTD.
license=CC BY-NC-SA
exact mass=144.11503
ionization energy=70 eV
ion type=[M]+*
computed spectral entropy=2.751024092502001
computed normalized entropy=0.7360265549006676
SPLASH=splash10-0229-9400000000-22c85836a3bc85149cc5
submitter=submitter = University of Tokyo Team (Faculty of Engineering, University of Tokyo)
MoNA Rating=3.75

>  <NUM PEAKS>  (2535) 
42

>  <MASS SPECTRAL PEAKS>  (2535) 
15 1.63
27 5.69
29 7.53
31 2.19
39 11.28
40 1.23
41 25.2
42 2.18
43 2.06
45 8.06
47 3.64
51 1.35
53 4.16
54 1.51
55 11.4
56 1.76
57 1.16
58 1.27
59 3.59
67 2.18
68 1.16
69 11.04
71 99.99
72 4.6
75 34.61
76 1.01
77 1.01
79 2.25
81 7.08
82 1.09
84 4.26
85 1.89
88 2.82
97 2.48
101 39.39
102 3.27
112 1.29
113 71.35
114 5.53
115 17.36
116 1.04
143 2.04

>  <PREDICTED SPECTRUM>  (2535) 
14 8
15 63
18 19
25 9
26 90
27 306
28 110
29 325
30 9
31 258
32 50
33 91
37 11
38 68
39 330
40 116
41 508
42 265
43 422
44 76
45 286
47 314
50 56
51 139
52 87
53 291
54 188
55 498
56 120
57 139
58 267
59 140
65 132
66 32
67 263
68 42
69 394
70 154
71 785
72 100
73 149
74 14
75 999
76 170
77 30
79 23
80 60
81 364
82 79
83 119
84 123
85 199
86 49
87 96
88 51
97 198
99 94
100 36
101 618
102 148
103 66
112 27
113 919
114 243
115 319
116 60
129 57
143 33

$$$$

     RDKit          2D

 13 12  0  0  0  0  0  0  0  0999 V2000
    3.2243    2.1361    0.0000 C   0  0  0  0  0  0  0  0  0  0  0  0
    6.5724    4.9351    0.0000 C   0  0  0  0  0  0  0  0  0  0  0  0
    5.0724    2.3370    0.0000 C   0  0  0  0  0  0  0  0  0  0  0  0
    7.1214    2.8861    0.0000 C   0  0  0  0  0  0  0  0  0  0  0  0
   -1.9719    3.6361    0.0000 C   0  0  0  0  0  0  0  0  0  0  0  0
   -0.6728    1.3861    0.0000 C   0  0  0  0  0  0  0  0  0  0  0  0
    1.9252    4.3861    0.0000 C   0  0  0  0  0  0  0  0  0  0  0  0
    4.5233    4.3861    0.0000 C   0  0  0  0  0  0  0  0  0  0  0  0
    3.2243    3.6361    0.0000 C   0  0  0  0  0  0  0  0  0  0  0  0
    0.6262    3.6361    0.0000 C   0  0  0  0  0  0  0  0  0  0  0  0
    5.8224    3.6361    0.0000 C   0  0  0  0  0  0  0  0  0  0  0  0
   -0.6728    4.3861    0.0000 O   0  0  0  0  0  0  0  0  0  0  0  0
    0.6262    2.1361    0.0000 O   0  0  0  0  0  0  0  0  0  0  0  0
  9  1  1  0
  9  7  1  0
  9  8  1  0
 10  7  1  0
 11  2  1  0
 11  3  1  0
 11  4  1  0
 11  8  1  0
 12  5  1  0
 12 10  1  0
 13  6  1  0
 13 10  1  0
M  END
>  <NAME>  (2536) 
ALPINAL DIMETHYL ACETAL

>  <SYNONYMS>  (2536) 
3,5,5-TRIMETHYLHEXANAL DIMETHYL ACETAL

>  <SPECTRUM TYPE>  (2536) 
MS1

>  <INSTRUMENT TYPE>  (2536) 
EI-B

>  <INSTRUMENT>  (2536) 
HITACHI M-80B

>  <ION MODE>  (2536) 
P

>  <INCHIKEY>  (2536) 
OKMANJUJOSTZGX-UHFFFAOYSA-N

>  <FORMULA>  (2536) 
C11H24O2

>  <EXACT MASS>  (2536) 
188.177630008

>  <MW>  (2536) 
188

>  <ID>  (2536) 
JP008452

>  <CONTRIBUTOR>  (2536) 
University of Tokyo Team, {Faculty of Engineering, University of Tokyo

>  <COMMENT>  (2536) 
SMILES=COC(OC)CC(C)CC(C)(C)C
InChI=InChI=1S/C11H24O2/c1-9(8-11(2,3)4)7-10(12-5)13-6/h9-10H,7-8H2,1-6H3
computed SMILES=O(C)C(OC)CC(C)CC(C)(C)C
accession=JP008452
date=2016.01.19 (Created 2008.10.21, modified 2011.05.06)
author=SODA AROMATIC CO., LTD.
license=CC BY-NC-SA
exact mass=188.17763
ionization energy=70 eV
ion type=[M]+*
computed spectral entropy=2.636494952157726
computed normalized entropy=0.7540366796895889
SPLASH=splash10-004i-9000000000-c7dbe3c3990130826351
submitter=submitter = University of Tokyo Team (Faculty of Engineering, University of Tokyo)
MoNA Rating=3.75

>  <NUM PEAKS>  (2536) 
33

>  <MASS SPECTRAL PEAKS>  (2536) 
15 3.55
27 5.22
29 9.55
31 5.83
39 6.15
41 17.66
42 1.19
43 6.5
45 4.31
47 6.99
53 3
55 10.05
56 2.84
57 25.22
58 10.79
59 3.07
67 1.93
68 1.03
69 4.9
71 2.77
72 1.03
75 99.99
76 3.54
81 1.11
83 14.14
84 1.05
85 36.9
86 1.87
99 2.79
101 1.47
109 2.82
156 1.23
157 4.97

>  <PREDICTED SPECTRUM>  (2536) 
15 33
26 0
27 117
28 36
29 208
31 120
32 18
33 49
39 138
40 41
41 247
42 71
43 254
45 149
47 265
51 48
53 79
54 16
55 260
56 100
57 224
58 206
59 228
65 8
67 51
69 196
70 4
71 285
72 31
73 51
75 999
76 158
77 51
81 63
82 17
83 184
84 26
85 159
86 50
87 40
88 0
93 5
97 78
99 129
100 40
101 53
109 2
111 11
125 69
129 62
141 40
157 78

$$$$

     RDKit          2D

 14 14  0  0  0  0  0  0  0  0999 V2000
    4.8721    3.8829    0.0000 C   0  0  0  0  0  0  0  0  0  0  0  0
    3.5731    3.1329    0.0000 C   0  0  0  0  0  0  0  0  0  0  0  0
    2.2740    3.8829    0.0000 C   0  0  0  0  0  0  0  0  0  0  0  0
   -8.1183    5.3829    0.0000 C   0  0  0  0  0  0  0  0  0  0  0  0
   -8.1187    3.8821    0.0000 C   0  0  0  0  0  0  0  0  0  0  0  0
   -6.8187    6.1337    0.0000 C   0  0  0  0  0  0  0  0  0  0  0  0
    0.9750    3.1329    0.0000 C   0  0  0  0  0  0  0  0  0  0  0  0
   -6.8197    3.1321    0.0000 C   0  0  0  0  0  0  0  0  0  0  0  0
   -5.5197    5.3837    0.0000 C   0  0  0  0  0  0  0  0  0  0  0  0
   -4.2212    3.1329    0.0000 C   0  0  0  0  0  0  0  0  0  0  0  0
   -0.3240    3.8829    0.0000 C   0  0  0  0  0  0  0  0  0  0  0  0
   -2.9221    3.8829    0.0000 C   0  0  0  0  0  0  0  0  0  0  0  0
   -5.5202    3.8829    0.0000 C   0  0  0  0  0  0  0  0  0  0  0  0
   -1.6231    3.1329    0.0000 O   0  0  0  0  0  0  0  0  0  0  0  0
  2  1  1  0
  3  2  1  0
  5  4  2  0
  6  4  1  0
  7  3  1  0
  8  5  1  0
  9  6  2  0
 11  7  1  0
 12 10  1  0
 13  8  2  0
 13  9  1  0
 13 10  1  0
 14 11  1  0
 14 12  1  0
M  END
>  <NAME>  (2537) 
2-PHENYLETHYL PENTYL ETHER

>  <SYNONYMS>  (2537) 
PHENYLETHYL AMYL ETHER

>  <SPECTRUM TYPE>  (2537) 
MS1

>  <INSTRUMENT TYPE>  (2537) 
EI-B

>  <INSTRUMENT>  (2537) 
HITACHI M-80B

>  <ION MODE>  (2537) 
P

>  <INCHIKEY>  (2537) 
HNIRLTDJIGVHOG-UHFFFAOYSA-N

>  <FORMULA>  (2537) 
C13H20O

>  <EXACT MASS>  (2537) 
192.15141526

>  <MW>  (2537) 
192

>  <ID>  (2537) 
JP008451

>  <CONTRIBUTOR>  (2537) 
University of Tokyo Team, {Faculty of Engineering, University of Tokyo

>  <COMMENT>  (2537) 
SMILES=CCCCCOCCc(c1)cccc1
InChI=InChI=1S/C13H20O/c1-2-3-7-11-14-12-10-13-8-5-4-6-9-13/h4-6,8-9H,2-3,7,10-12H2,1H3
computed SMILES=O(CCC=1C=CC=CC1)CCCCC
accession=JP008451
date=2016.01.19 (Created 2008.10.21, modified 2011.05.06)
author=SODA AROMATIC CO., LTD.
license=CC BY-NC-SA
exact mass=192.15142
ionization energy=70 eV
ion type=[M]+*
computed spectral entropy=2.830439692906962
computed normalized entropy=0.7838560059744674
SPLASH=splash10-006x-9200000000-0e09103c6939a58cf8ff
submitter=submitter = University of Tokyo Team (Faculty of Engineering, University of Tokyo)
MoNA Rating=3.75

>  <NUM PEAKS>  (2537) 
37

>  <MASS SPECTRAL PEAKS>  (2537) 
27 9.24
29 12.42
31 1.18
39 7.75
41 14.76
42 3.38
43 74.57
44 2.29
45 1.41
50 1.11
51 5.55
52 1.06
53 1.26
55 6.18
63 1.82
65 7.76
69 13.12
70 1.59
71 99.99
72 5.56
77 13.28
78 8.85
79 9.22
89 1.31
91 28.75
92 15.09
93 1.19
101 9.32
102 1.02
103 7.3
104 6.61
105 26.49
106 23.81
107 1.59
122 1.09
174 2.53
192 6.85

>  <PREDICTED SPECTRUM>  (2537) 
25 4
26 57
27 215
28 35
29 159
31 77
38 38
39 209
40 70
41 403
42 230
43 858
44 120
45 112
50 95
51 194
52 118
53 125
54 22
55 211
59 77
62 18
63 121
64 77
65 223
66 50
67 6
69 332
70 163
71 999
72 230
73 97
74 12
75 45
76 35
77 303
78 242
79 226
80 31
89 149
90 16
91 495
92 236
96 64
101 293
102 162
103 243
104 284
105 546
106 314
107 75
109 4
122 60
192 107
193 18

$$$$

     RDKit          2D

 13 13  0  0  0  0  0  0  0  0999 V2000
   -6.8197    3.1321    0.0000 C   0  0  0  0  0  0  0  0  0  0  0  0
   -5.5207    5.3821    0.0000 C   0  0  0  0  0  0  0  0  0  0  0  0
    3.5726    1.6321    0.0000 C   0  0  0  0  0  0  0  0  0  0  0  0
    3.5731    3.1329    0.0000 C   0  0  0  0  0  0  0  0  0  0  0  0
    2.2731    0.8813    0.0000 C   0  0  0  0  0  0  0  0  0  0  0  0
    2.2740    3.8829    0.0000 C   0  0  0  0  0  0  0  0  0  0  0  0
    0.9740    1.6313    0.0000 C   0  0  0  0  0  0  0  0  0  0  0  0
   -4.2216    3.1321    0.0000 C   0  0  0  0  0  0  0  0  0  0  0  0
   -2.9226    3.8821    0.0000 C   0  0  0  0  0  0  0  0  0  0  0  0
   -0.3245    3.8821    0.0000 C   0  0  0  0  0  0  0  0  0  0  0  0
   -5.5207    3.8821    0.0000 C   0  0  0  0  0  0  0  0  0  0  0  0
    0.9745    3.1321    0.0000 C   0  0  0  0  0  0  0  0  0  0  0  0
   -1.6236    3.1321    0.0000 O   0  0  0  0  0  0  0  0  0  0  0  0
  4  3  2  0
  5  3  1  0
  6  4  1  0
  7  5  2  0
  9  8  1  0
 11  1  1  0
 11  2  1  0
 11  8  1  0
 12  6  2  0
 12  7  1  0
 12 10  1  0
 13  9  1  0
 13 10  1  0
M  END
>  <NAME>  (2538) 
3-METHYLBUTOXYMETHYLBENZENE

>  <SYNONYMS>  (2538) 
BENZYL ISOAMYL ETHER

>  <SPECTRUM TYPE>  (2538) 
MS1

>  <INSTRUMENT TYPE>  (2538) 
EI-B

>  <INSTRUMENT>  (2538) 
HITACHI M-80B

>  <ION MODE>  (2538) 
P

>  <INCHIKEY>  (2538) 
RXXCIBALSKQCAE-UHFFFAOYSA-N

>  <FORMULA>  (2538) 
C12H18O

>  <EXACT MASS>  (2538) 
178.135765196

>  <MW>  (2538) 
178

>  <ID>  (2538) 
JP008450

>  <CONTRIBUTOR>  (2538) 
University of Tokyo Team, {Faculty of Engineering, University of Tokyo

>  <COMMENT>  (2538) 
SMILES=CC(C)CCOCc(c1)cccc1
InChI=InChI=1S/C12H18O/c1-11(2)8-9-13-10-12-6-4-3-5-7-12/h3-7,11H,8-10H2,1-2H3
computed SMILES=O(CC=1C=CC=CC1)CCC(C)C
accession=JP008450
date=2016.01.19 (Created 2008.10.21, modified 2011.05.06)
author=SODA AROMATIC CO., LTD.
license=CC BY-NC-SA
exact mass=178.13577
ion type=[M]+*
ionization energy=70 eV
computed spectral entropy=2.247025794461099
computed normalized entropy=0.6817770071202752
SPLASH=splash10-0006-9000000000-03677ef69de3b719cef0
submitter=submitter = University of Tokyo Team (Faculty of Engineering, University of Tokyo)
MoNA Rating=3.75

>  <NUM PEAKS>  (2538) 
27

>  <MASS SPECTRAL PEAKS>  (2538) 
27 5.78
29 5.47
39 9.38
41 12.25
42 1.59
43 15.79
50 1.03
51 3.79
52 1.03
55 2.13
57 2.46
63 1.98
65 11.2
69 5.07
70 1.72
71 2.23
77 4.64
78 1.71
79 4.29
89 2.11
90 1.43
91 99.99
92 65.64
93 3.7
105 1.95
107 3.01
108 5.03

>  <PREDICTED SPECTRUM>  (2538) 
25 3
26 49
27 182
28 54
29 155
30 2
31 26
38 35
39 190
40 60
41 272
42 158
43 330
44 89
45 66
50 94
51 168
52 107
53 96
54 34
55 211
56 75
57 84
58 19
62 30
63 107
64 77
65 280
66 38
68 14
69 198
70 216
71 227
72 85
74 1
76 15
77 157
78 166
79 202
80 25
86 42
87 171
88 47
89 156
90 185
91 999
92 526
93 99
104 2
105 152
106 87
107 347
108 265
109 12
118 17
178 76

$$$$

     RDKit          2D

 14 14  0  0  0  0  0  0  0  0999 V2000
   10.0231    1.2915    0.0000 C   0  0  0  0  0  0  0  0  0  0  0  0
    8.7242    0.5412    0.0000 C   0  0  0  0  0  0  0  0  0  0  0  0
   -1.6700   -0.9600    0.0000 C   0  0  0  0  0  0  0  0  0  0  0  0
   -1.6700    0.5400    0.0000 C   0  0  0  0  0  0  0  0  0  0  0  0
   -0.3700   -1.7100    0.0000 C   0  0  0  0  0  0  0  0  0  0  0  0
   -0.3700    1.2900    0.0000 C   0  0  0  0  0  0  0  0  0  0  0  0
    0.9300   -0.9600    0.0000 C   0  0  0  0  0  0  0  0  0  0  0  0
    3.5281    0.5404    0.0000 C   0  0  0  0  0  0  0  0  0  0  0  0
    4.8270    1.2906    0.0000 C   0  0  0  0  0  0  0  0  0  0  0  0
    0.9300    0.5400    0.0000 C   0  0  0  0  0  0  0  0  0  0  0  0
    7.4251    1.2910    0.0000 C   0  0  0  0  0  0  0  0  0  0  0  0
    7.4248    2.7910    0.0000 O   0  0  0  0  0  0  0  0  0  0  0  0
    2.2289    1.2902    0.0000 O   0  0  0  0  0  0  0  0  0  0  0  0
    6.1262    0.5408    0.0000 O   0  0  0  0  0  0  0  0  0  0  0  0
  2  1  1  0
  4  3  2  0
  5  3  1  0
  6  4  1  0
  7  5  2  0
  9  8  1  0
 10  6  2  0
 10  7  1  0
 11  2  1  0
 12 11  2  0
 13  8  1  0
 13 10  1  0
 14  9  1  0
 14 11  1  0
M  END
>  <NAME>  (2539) 
2-PHENOXYETHYL PROPIONATE

>  <SYNONYMS>  (2539) 


>  <SPECTRUM TYPE>  (2539) 
MS1

>  <INSTRUMENT TYPE>  (2539) 
EI-B

>  <INSTRUMENT>  (2539) 
HITACHI M-80B

>  <ION MODE>  (2539) 
P

>  <INCHIKEY>  (2539) 
FKTSMIXZGPUSJB-UHFFFAOYSA-N

>  <FORMULA>  (2539) 
C11H14O3

>  <EXACT MASS>  (2539) 
194.09429430799997

>  <MW>  (2539) 
194

>  <ID>  (2539) 
JP008449

>  <CONTRIBUTOR>  (2539) 
University of Tokyo Team, {Faculty of Engineering, University of Tokyo

>  <COMMENT>  (2539) 
SMILES=CCC(=O)OCCOc(c1)cccc1
InChI=InChI=1S/C11H14O3/c1-2-11(12)14-9-8-13-10-6-4-3-5-7-10/h3-7H,2,8-9H2,1H3
computed SMILES=O=C(OCCOC=1C=CC=CC1)CC
accession=JP008449
date=2016.01.19 (Created 2008.10.21, modified 2011.05.06)
author=SODA AROMATIC CO., LTD.
license=CC BY-NC-SA
exact mass=194.09429
ionization energy=70 eV
ion type=[M]+*
computed spectral entropy=2.3536517033285773
computed normalized entropy=0.6920067962002119
SPLASH=splash10-0zi0-9400000000-b0dc2f577ab6870f2792
submitter=submitter = University of Tokyo Team (Faculty of Engineering, University of Tokyo)
MoNA Rating=3.75

>  <NUM PEAKS>  (2539) 
30

>  <MASS SPECTRAL PEAKS>  (2539) 
26 1.87
27 11.92
28 4.41
29 40.81
38 1.63
39 10.28
40 1.05
43 1.68
50 2.4
51 11.21
55 2.02
57 74.61
58 2
63 2.38
64 1.06
65 10.91
66 2.59
77 24.35
78 1.8
79 1.59
91 3.08
93 1.76
94 10.49
101 99.99
102 4.27
107 2.37
119 1.02
120 2.86
121 1.43
194 2.03

>  <PREDICTED SPECTRUM>  (2539) 
14 1
15 27
18 16
26 49
27 92
28 101
29 261
30 51
31 115
33 9
37 25
38 71
39 373
40 117
41 147
42 210
43 386
44 197
45 306
50 268
51 550
52 144
53 71
55 231
56 146
57 935
58 228
59 58
60 11
61 40
62 107
63 248
64 164
65 510
66 265
73 116
74 166
75 8
76 106
77 961
78 260
79 224
90 57
91 251
92 99
93 317
94 679
95 61
100 64
101 999
102 262
103 270
104 221
105 55
106 18
107 254
119 180
120 198
121 550
122 84
138 64
167 3
194 390
195 132

$$$$

     RDKit          2D

 13 13  0  0  0  0  0  0  0  0999 V2000
   -1.8800   -1.2000    0.0000 C   0  0  0  0  0  0  0  0  0  0  0  0
   -2.6300    0.1000    0.0000 C   0  0  0  0  0  0  0  0  0  0  0  0
   -0.3800   -1.2000    0.0000 C   0  0  0  0  0  0  0  0  0  0  0  0
   -1.8800    1.4000    0.0000 C   0  0  0  0  0  0  0  0  0  0  0  0
    0.3700    0.1000    0.0000 C   0  0  0  0  0  0  0  0  0  0  0  0
   -0.3700    1.4000    0.0000 C   0  0  0  0  0  0  0  0  0  0  0  0
    1.8800    0.1000    0.0000 C   0  0  0  0  0  0  0  0  0  0  0  0
    0.3800    2.7000    0.0000 C   0  0  0  0  0  0  0  0  0  0  0  0
    2.6300    1.4000    0.0000 C   0  0  0  0  0  0  0  0  0  0  0  0
    4.1302    3.9987    0.0000 C   0  0  0  0  0  0  0  0  0  0  0  0
    1.8800    2.7000    0.0000 C   0  0  0  0  0  0  0  0  0  0  0  0
    4.8804    5.2976    0.0000 O   0  0  0  0  0  0  0  0  0  0  0  0
    2.6302    3.9989    0.0000 O   0  0  0  0  0  0  0  0  0  0  0  0
  2  1  1  0
  3  1  1  0
  4  2  1  0
  5  3  1  0
  6  4  1  0
  7  5  1  0
  8  6  1  0
  9  7  1  0
 11  8  1  0
 11  9  1  0
 12 10  2  0
 13 10  1  0
 13 11  1  0
M  END
>  <NAME>  (2540) 
CYCLODECYL FORMATE

>  <SYNONYMS>  (2540) 


>  <SPECTRUM TYPE>  (2540) 
MS1

>  <INSTRUMENT TYPE>  (2540) 
EI-B

>  <INSTRUMENT>  (2540) 
HITACHI M-80B

>  <ION MODE>  (2540) 
P

>  <INCHIKEY>  (2540) 
GWTPFNCVVFCJJK-UHFFFAOYSA-N

>  <FORMULA>  (2540) 
C11H20O2

>  <EXACT MASS>  (2540) 
184.14632988

>  <MW>  (2540) 
184

>  <ID>  (2540) 
JP008448

>  <CONTRIBUTOR>  (2540) 
University of Tokyo Team, {Faculty of Engineering, University of Tokyo

>  <COMMENT>  (2540) 
SMILES=O=COC(C1)CCCCCCCC1
InChI=InChI=1S/C11H20O2/c12-10-13-11-8-6-4-2-1-3-5-7-9-11/h10-11H,1-9H2
computed SMILES=O=COC1CCCCCCCCC1
accession=JP008448
date=2016.01.19 (Created 2008.10.21, modified 2011.05.06)
author=SODA AROMATIC CO., LTD.
license=CC BY-NC-SA
exact mass=184.14633
ionization energy=70 eV
ion type=[M]+*
computed spectral entropy=2.8107788805294263
computed normalized entropy=0.8038818252549551
SPLASH=splash10-0a59-9000000000-8d27bb255596fc9e59b5
submitter=submitter = University of Tokyo Team (Faculty of Engineering, University of Tokyo)
MoNA Rating=3.75

>  <NUM PEAKS>  (2540) 
33

>  <MASS SPECTRAL PEAKS>  (2540) 
27 4.91
29 13.07
31 1.02
39 6.82
41 30.3
42 1.76
43 6.57
44 1.74
53 4.62
54 6.22
55 12.23
56 32.08
57 99.99
58 4.62
65 1.03
67 32.71
68 2.41
69 5.49
77 1.44
79 4.87
80 14.77
81 20.52
82 38.05
83 27.77
84 1.71
95 2.26
123 15.13
124 1.26
127 3.19
128 3.57
129 9.62
138 5.11
139 1.53

>  <PREDICTED SPECTRUM>  (2540) 
27 174
29 246
31 29
39 335
40 48
41 932
42 265
43 560
44 57
45 66
47 8
51 50
53 216
54 505
55 999
56 356
57 692
58 245
59 259
65 60
66 148
67 819
68 487
69 360
70 222
71 259
73 32
74 26
77 113
78 32
79 123
80 144
81 803
82 986
83 717
84 170
85 60
91 14
93 74
94 45
95 236
96 295
97 101
98 19
109 156
110 194
113 0
123 175
138 155
139 101
166 233

$$$$

     RDKit          2D

 12 12  0  0  0  0  0  0  0  0999 V2000
    5.1970    0.8306    0.0000 C   0  0  0  0  0  0  0  0  0  0  0  0
    3.8981    0.0804    0.0000 C   0  0  0  0  0  0  0  0  0  0  0  0
   -0.0000   -2.1700    0.0000 C   0  0  0  0  0  0  0  0  0  0  0  0
   -1.3000   -1.4200    0.0000 C   0  0  0  0  0  0  0  0  0  0  0  0
    1.3000   -1.4200    0.0000 C   0  0  0  0  0  0  0  0  0  0  0  0
   -2.5989    0.8302    0.0000 C   0  0  0  0  0  0  0  0  0  0  0  0
   -1.3000    0.0800    0.0000 C   0  0  0  0  0  0  0  0  0  0  0  0
    1.3000    0.0800    0.0000 C   0  0  0  0  0  0  0  0  0  0  0  0
   -0.0000    0.8300    0.0000 C   0  0  0  0  0  0  0  0  0  0  0  0
   -3.8981    0.0804    0.0000 O   0  0  0  0  0  0  0  0  0  0  0  0
    0.0000    2.3300    0.0000 O   0  0  0  0  0  0  0  0  0  0  0  0
    2.5989    0.8302    0.0000 O   0  0  0  0  0  0  0  0  0  0  0  0
  2  1  1  0
  4  3  2  0
  5  3  1  0
  7  4  1  0
  7  6  1  0
  8  5  2  0
  9  7  2  0
  9  8  1  0
 10  6  2  0
 11  9  1  0
 12  2  1  0
 12  8  1  0
M  END
>  <NAME>  (2541) 
3-ETHOXY-2-HYDROXYBENZALDEHYDE

>  <SYNONYMS>  (2541) 
O-ETHYL VANILLIN

>  <SPECTRUM TYPE>  (2541) 
MS1

>  <INSTRUMENT TYPE>  (2541) 
EI-B

>  <INSTRUMENT>  (2541) 
HITACHI M-80B

>  <ION MODE>  (2541) 
P

>  <INCHIKEY>  (2541) 
OFQBYHLLIJGMNP-UHFFFAOYSA-N

>  <FORMULA>  (2541) 
C9H10O3

>  <EXACT MASS>  (2541) 
166.06299417999998

>  <MW>  (2541) 
166

>  <ID>  (2541) 
JP008447

>  <CONTRIBUTOR>  (2541) 
University of Tokyo Team, {Faculty of Engineering, University of Tokyo

>  <COMMENT>  (2541) 
SMILES=CCOc(c1)c(O)c(C=O)cc1
InChI=InChI=1S/C9H10O3/c1-2-12-8-5-3-4-7(6-10)9(8)11/h3-6,11H,2H2,1H3
computed SMILES=O=CC=1C=CC=C(OCC)C1O
accession=JP008447
date=2016.01.19 (Created 2008.10.21, modified 2011.05.06)
author=SODA AROMATIC CO., LTD.
license=CC BY-NC-SA
exact mass=166.06299
ionization energy=70 eV
ion type=[M]+*
computed spectral entropy=3.030917425908964
computed normalized entropy=0.8009422674652441
SPLASH=splash10-000i-5900000000-1bd90f309d66e48552f6
submitter=submitter = University of Tokyo Team (Faculty of Engineering, University of Tokyo)
MoNA Rating=3.75

>  <NUM PEAKS>  (2541) 
44

>  <MASS SPECTRAL PEAKS>  (2541) 
26 4.6
27 25.15
29 16.95
37 1.06
38 3.87
39 11.77
43 1.31
50 6.71
51 12.79
52 11.72
53 18.14
54 2.91
55 13.79
61 1.06
62 3.28
63 12.33
64 9.8
65 8.45
66 2.04
75 1.63
76 1.14
77 1.43
79 4.55
80 3.22
81 23.18
82 3.63
91 2.62
92 26.68
93 4.6
107 2.83
108 5.24
109 18.61
110 8.4
120 28.48
121 4.55
122 4.88
123 1.17
136 5.33
137 99.99
138 96.57
139 7.85
151 2.34
166 71.46
167 7.15

>  <PREDICTED SPECTRUM>  (2541) 
14 10
25 3
26 90
27 219
28 24
29 275
31 28
37 88
38 180
39 420
40 74
41 140
49 21
50 212
51 421
52 210
53 371
54 6
55 153
62 131
63 352
64 310
65 569
66 244
67 74
68 14
69 80
74 95
75 84
76 47
77 116
79 146
80 84
81 278
90 15
91 271
92 473
93 291
94 193
95 80
107 18
108 37
109 541
110 109
119 353
120 559
121 374
122 49
123 88
137 999
138 745
139 156
148 15
149 130
165 85
166 742
167 216

$$$$

     RDKit          2D

 12 12  0  0  0  0  0  0  0  0999 V2000
    5.5560    0.5453    0.0000 C   0  0  0  0  0  0  0  0  0  0  0  0
    4.2568   -0.2045    0.0000 C   0  0  0  0  0  0  0  0  0  0  0  0
   -0.9403   -1.7057    0.0000 C   0  0  0  0  0  0  0  0  0  0  0  0
    0.3587   -2.4557    0.0000 C   0  0  0  0  0  0  0  0  0  0  0  0
    0.3597    0.5459    0.0000 C   0  0  0  0  0  0  0  0  0  0  0  0
   -2.2389    0.5451    0.0000 C   0  0  0  0  0  0  0  0  0  0  0  0
   -0.9398   -0.2049    0.0000 C   0  0  0  0  0  0  0  0  0  0  0  0
    1.6583   -1.7049    0.0000 C   0  0  0  0  0  0  0  0  0  0  0  0
    1.6587   -0.2041    0.0000 C   0  0  0  0  0  0  0  0  0  0  0  0
   -3.5379   -0.2049    0.0000 O   0  0  0  0  0  0  0  0  0  0  0  0
    2.9573   -2.4549    0.0000 O   0  0  0  0  0  0  0  0  0  0  0  0
    2.9579    0.5457    0.0000 O   0  0  0  0  0  0  0  0  0  0  0  0
  2  1  1  0
  4  3  2  0
  7  3  1  0
  7  5  2  0
  7  6  1  0
  8  4  1  0
  9  5  1  0
  9  8  2  0
 10  6  2  0
 11  8  1  0
 12  2  1  0
 12  9  1  0
M  END
>  <NAME>  (2542) 
3-ETHOXY-4-HYDROXYBENZALDEHYDE

>  <SYNONYMS>  (2542) 
ETHYL VANILLIN

>  <SPECTRUM TYPE>  (2542) 
MS1

>  <INSTRUMENT TYPE>  (2542) 
EI-B

>  <INSTRUMENT>  (2542) 
HITACHI M-80B

>  <ION MODE>  (2542) 
P

>  <INCHIKEY>  (2542) 
CBOQJANXLMLOSS-UHFFFAOYSA-N

>  <FORMULA>  (2542) 
C9H10O3

>  <EXACT MASS>  (2542) 
166.06299417999998

>  <MW>  (2542) 
166

>  <ID>  (2542) 
JP008446

>  <CONTRIBUTOR>  (2542) 
University of Tokyo Team, {Faculty of Engineering, University of Tokyo

>  <COMMENT>  (2542) 
SMILES=CCOc(c1)c(O)ccc(C=O)1
InChI=InChI=1S/C9H10O3/c1-2-12-9-5-7(6-10)3-4-8(9)11/h3-6,11H,2H2,1H3
computed SMILES=O=CC1=CC=C(O)C(OCC)=C1
accession=JP008446
date=2016.01.19 (Created 2008.10.21, modified 2011.05.06)
author=SODA AROMATIC CO., LTD.
license=CC BY-NC-SA
exact mass=166.06299
ionization energy=70 eV
ion type=[M]+*
computed spectral entropy=2.5569491829028483
computed normalized entropy=0.7446006728164873
SPLASH=splash10-000i-4900000000-5cc4d780ed9e9279561d
submitter=submitter = University of Tokyo Team (Faculty of Engineering, University of Tokyo)
MoNA Rating=3.75

>  <NUM PEAKS>  (2542) 
31

>  <MASS SPECTRAL PEAKS>  (2542) 
26 1.94
27 12.1
28 10.44
29 11.66
32 2.1
38 1.14
39 4.81
50 3.94
51 7.46
52 6.33
53 7.91
55 3.29
62 2
63 4.89
64 2.56
65 3.17
79 3.29
80 1.61
81 12.95
82 2.7
91 1.48
92 1.16
108 1.47
109 11.57
110 4.41
136 1.5
137 99.99
138 35.53
139 3.05
166 49.31
167 4.33

>  <PREDICTED SPECTRUM>  (2542) 
15 3
25 9
26 70
27 148
28 71
29 196
31 35
33 13
36 22
37 66
38 144
39 263
40 94
41 151
42 65
43 124
44 52
45 119
46 16
47 25
48 9
49 60
50 202
51 305
52 231
53 298
54 101
55 136
56 22
57 9
58 3
59 31
60 11
61 83
62 118
63 269
64 185
65 335
66 169
67 84
68 15
69 115
70 1
71 3
74 30
75 70
76 84
77 77
78 37
79 179
80 171
81 336
82 209
83 129
84 45
89 57
90 57
91 256
92 194
93 188
94 27
107 85
108 101
109 528
110 223
111 60
119 64
120 88
121 154
122 10
135 14
137 999
138 680
139 229
140 83
149 59
165 187
166 830
167 265
168 93

$$$$

     RDKit          2D

 11 11  0  0  0  0  0  0  0  0999 V2000
    3.8981    0.0804    0.0000 C   0  0  0  0  0  0  0  0  0  0  0  0
   -3.8981    0.0804    0.0000 C   0  0  0  0  0  0  0  0  0  0  0  0
    0.0000   -2.1700    0.0000 C   0  0  0  0  0  0  0  0  0  0  0  0
    1.3000   -1.4200    0.0000 C   0  0  0  0  0  0  0  0  0  0  0  0
   -1.3000   -1.4200    0.0000 C   0  0  0  0  0  0  0  0  0  0  0  0
    1.3000    0.0800    0.0000 C   0  0  0  0  0  0  0  0  0  0  0  0
   -1.3000    0.0800    0.0000 C   0  0  0  0  0  0  0  0  0  0  0  0
   -0.0000    0.8300    0.0000 C   0  0  0  0  0  0  0  0  0  0  0  0
    0.0000    2.3300    0.0000 O   0  0  0  0  0  0  0  0  0  0  0  0
    2.5989    0.8302    0.0000 O   0  0  0  0  0  0  0  0  0  0  0  0
   -2.5989    0.8302    0.0000 O   0  0  0  0  0  0  0  0  0  0  0  0
  4  3  2  0
  5  3  1  0
  6  4  1  0
  7  5  2  0
  8  6  2  0
  8  7  1  0
  9  8  1  0
 10  1  1  0
 10  6  1  0
 11  2  1  0
 11  7  1  0
M  END
>  <NAME>  (2543) 
2,6-DIMETHOXYPHENOL

>  <SYNONYMS>  (2543) 


>  <SPECTRUM TYPE>  (2543) 
MS1

>  <INSTRUMENT TYPE>  (2543) 
EI-B

>  <INSTRUMENT>  (2543) 
HITACHI M-80B

>  <ION MODE>  (2543) 
P

>  <INCHIKEY>  (2543) 
KLIDCXVFHGNTTM-UHFFFAOYSA-N

>  <FORMULA>  (2543) 
C8H10O3

>  <EXACT MASS>  (2543) 
154.06299417999998

>  <MW>  (2543) 
154

>  <ID>  (2543) 
JP008440

>  <CONTRIBUTOR>  (2543) 
University of Tokyo Team, {Faculty of Engineering, University of Tokyo

>  <COMMENT>  (2543) 
SMILES=COc(c1)c(O)c(OC)cc1
InChI=InChI=1S/C8H10O3/c1-10-6-4-3-5-7(11-2)8(6)9/h3-5,9H,1-2H3
computed SMILES=OC=1C(OC)=CC=CC1OC
accession=JP008440
date=2016.01.19 (Created 2008.10.21, modified 2011.05.06)
author=SODA AROMATIC CO., LTD.
license=CC BY-NC-SA
exact mass=154.06299
ionization energy=70 eV
ion type=[M]+*
computed spectral entropy=3.1464930618071083
computed normalized entropy=0.8002626148064792
SPLASH=splash10-0udr-8900000000-59569128bf570c85d520
submitter=submitter = University of Tokyo Team (Faculty of Engineering, University of Tokyo)
MoNA Rating=3.75

>  <NUM PEAKS>  (2543) 
51

>  <MASS SPECTRAL PEAKS>  (2543) 
14 2.06
15 7.11
27 1.8
29 4.07
30 1.41
37 1.7
38 4.28
39 16.02
40 3.11
41 2.26
42 2.52
45 1.56
50 5.63
51 11.72
52 7.82
53 8.9
54 2.13
55 6.3
62 1.99
63 2.85
65 14.11
66 3.12
67 2.51
68 10.95
69 1.31
71 1.23
77 1.71
79 7.03
80 1.64
81 7.74
82 1.09
93 16.64
94 2.05
95 7
96 20.75
97 2.09
107 6.01
108 5.35
109 4.58
110 3.65
111 22.96
112 2.12
124 1.61
125 2.81
137 1.8
138 1.57
139 44.06
140 3.61
153 1.96
154 99.99
155 8.14

>  <PREDICTED SPECTRUM>  (2543) 
14 23
15 107
16 10
18 4
25 13
26 64
27 125
28 92
29 123
31 54
36 29
37 79
38 154
39 274
40 132
41 199
42 60
43 18
44 4
45 77
47 15
48 10
49 81
50 194
51 300
52 239
53 352
54 184
55 173
56 70
57 63
61 54
62 81
63 186
64 139
65 283
66 210
67 237
68 305
69 204
70 39
72 28
75 22
76 24
77 160
78 135
79 297
80 184
81 310
82 245
83 246
84 85
91 100
92 123
93 424
94 228
95 332
96 227
97 99
98 1
105 48
106 14
107 213
108 304
109 253
110 218
111 658
112 189
113 14
121 174
122 52
123 68
124 121
125 216
126 102
135 67
136 97
137 99
138 49
139 882
140 241
141 76
153 150
154 999
155 319
156 93

$$$$

     RDKit          2D

 13 13  0  0  0  0  0  0  0  0999 V2000
   -0.5153    0.9424    0.0000 C   0  0  0  0  0  0  0  0  0  0  0  0
   -2.5642    0.3930    0.0000 C   0  0  0  0  0  0  0  0  0  0  0  0
   -2.0149   -1.6559    0.0000 C   0  0  0  0  0  0  0  0  0  0  0  0
    5.2307   -1.1074    0.0000 C   0  0  0  0  0  0  0  0  0  0  0  0
    2.6331   -2.6082    0.0000 C   0  0  0  0  0  0  0  0  0  0  0  0
    1.3341   -3.3582    0.0000 C   0  0  0  0  0  0  0  0  0  0  0  0
    1.3331   -0.3566    0.0000 C   0  0  0  0  0  0  0  0  0  0  0  0
    2.6327   -1.1074    0.0000 C   0  0  0  0  0  0  0  0  0  0  0  0
    0.0341   -1.1066    0.0000 C   0  0  0  0  0  0  0  0  0  0  0  0
    0.0346   -2.6074    0.0000 C   0  0  0  0  0  0  0  0  0  0  0  0
   -1.2651   -0.3568    0.0000 C   0  0  0  0  0  0  0  0  0  0  0  0
   -1.2645   -3.3574    0.0000 O   0  0  0  0  0  0  0  0  0  0  0  0
    3.9317   -0.3574    0.0000 O   0  0  0  0  0  0  0  0  0  0  0  0
  6  5  2  0
  8  5  1  0
  8  7  2  0
  9  7  1  0
 10  6  1  0
 10  9  2  0
 11  1  1  0
 11  2  1  0
 11  3  1  0
 11  9  1  0
 12 10  1  0
 13  4  1  0
 13  8  1  0
M  END
>  <NAME>  (2544) 
2-(1,1-DIMETHYLETHYL)-4-METHOXYPHENOL

>  <SYNONYMS>  (2544) 
BHA

>  <SPECTRUM TYPE>  (2544) 
MS1

>  <INSTRUMENT TYPE>  (2544) 
EI-B

>  <INSTRUMENT>  (2544) 
HITACHI M-80B

>  <ION MODE>  (2544) 
P

>  <INCHIKEY>  (2544) 
MRBKEAMVRSLQPH-UHFFFAOYSA-N

>  <FORMULA>  (2544) 
C11H16O2

>  <EXACT MASS>  (2544) 
180.115029752

>  <MW>  (2544) 
180

>  <ID>  (2544) 
JP008439

>  <CONTRIBUTOR>  (2544) 
University of Tokyo Team, {Faculty of Engineering, University of Tokyo

>  <COMMENT>  (2544) 
SMILES=COc(c1)cc(c(O)c1)C(C)(C)C
InChI=InChI=1S/C11H16O2/c1-11(2,3)9-7-8(13-4)5-6-10(9)12/h5-7,12H,1-4H3
computed SMILES=OC1=CC=C(OC)C=C1C(C)(C)C
author=SODA AROMATIC CO., LTD.
accession=JP008439
date=2016.01.19 (Created 2008.10.21, modified 2011.05.06)
license=CC BY-NC-SA
exact mass=180.11503
ionization energy=70 eV
ion type=[M]+*
computed spectral entropy=3.247879660263672
computed normalized entropy=0.7809499798777552
SPLASH=splash10-014i-4900000000-3f285fdccb9fbe4de2d2
submitter=submitter = University of Tokyo Team (Faculty of Engineering, University of Tokyo)
MoNA Rating=3.75

>  <NUM PEAKS>  (2544) 
64

>  <MASS SPECTRAL PEAKS>  (2544) 
15 7.19
27 5.41
29 4.3
39 9.88
41 10.65
43 3.5
50 1.58
51 6.98
52 4.65
53 7.04
54 2.23
55 5.22
57 1.58
62 1.19
63 3.99
64 1.19
65 6.59
66 2.14
67 3.19
68 1.04
76 1.26
77 13.55
78 5.83
79 6.12
81 1.67
82 1.58
89 1.44
91 12.85
92 1.53
93 2.11
94 2.38
95 1.27
103 4.12
104 2.13
105 4.16
106 1.26
107 5.71
108 1.83
109 3.77
110 2.06
115 5.46
116 1.92
117 1.25
119 1.13
121 3.52
122 3.52
123 1.81
124 7.59
125 5.05
131 2.2
132 1.75
133 1.5
135 1.76
136 1.16
137 54.06
138 5.09
149 4.4
150 4.77
151 1.19
164 1.17
165 99.99
166 10.73
180 52.57
181 6.49

>  <PREDICTED SPECTRUM>  (2544) 
14 5
15 66
16 1
26 14
27 113
28 35
29 133
30 0
31 11
33 17
34 8
36 5
37 33
38 81
39 247
40 121
41 330
42 67
43 133
44 26
45 44
46 4
47 4
48 2
49 4
50 127
51 219
52 179
53 234
54 96
55 220
56 61
57 269
58 90
59 48
61 51
62 94
63 198
64 139
65 253
66 148
67 179
68 91
69 103
70 24
71 69
72 35
73 42
74 63
75 101
76 91
77 332
78 214
79 250
80 133
81 150
82 85
83 97
84 25
85 23
86 38
87 66
88 54
89 144
90 94
91 297
92 154
93 170
94 160
95 145
96 76
97 45
98 12
99 2
101 46
102 84
103 164
104 121
105 238
106 126
107 288
108 139
109 257
110 91
111 44
115 154
116 100
117 142
118 111
119 181
120 83
121 182
122 226
123 135
124 120
125 115
126 1
127 39
128 101
129 8
131 125
132 101
133 167
134 104
135 193
136 102
137 715
138 256
139 103
146 17
147 108
148 80
149 162
150 176
151 101
152 27
153 10
161 1
163 106
164 57
165 999
166 330
167 101
168 20
177 3
179 38
180 647
181 223
182 54

$$$$

     RDKit          2D

 10 10  0  0  0  0  0  0  0  0999 V2000
    4.8670    0.9406    0.0000 C   0  0  0  0  0  0  0  0  0  0  0  0
    3.5681    0.1904    0.0000 C   0  0  0  0  0  0  0  0  0  0  0  0
   -1.6200   -1.3100    0.0000 C   0  0  0  0  0  0  0  0  0  0  0  0
   -0.3300   -2.0600    0.0000 C   0  0  0  0  0  0  0  0  0  0  0  0
   -1.6200    0.1900    0.0000 C   0  0  0  0  0  0  0  0  0  0  0  0
    0.9700   -1.3100    0.0000 C   0  0  0  0  0  0  0  0  0  0  0  0
   -0.3300    0.9400    0.0000 C   0  0  0  0  0  0  0  0  0  0  0  0
    0.9700    0.1900    0.0000 C   0  0  0  0  0  0  0  0  0  0  0  0
   -0.3325    2.4400    0.0000 O   0  0  0  0  0  0  0  0  0  0  0  0
    2.2689    0.9402    0.0000 O   0  0  0  0  0  0  0  0  0  0  0  0
  2  1  1  0
  4  3  2  0
  5  3  1  0
  6  4  1  0
  7  5  2  0
  8  6  2  0
  8  7  1  0
  9  7  1  0
 10  2  1  0
 10  8  1  0
M  END
>  <NAME>  (2545) 
O-ETHOXYPHENOL

>  <SYNONYMS>  (2545) 
PYROCATECHOL MONOETHYL ETHER

>  <SPECTRUM TYPE>  (2545) 
MS1

>  <INSTRUMENT TYPE>  (2545) 
EI-B

>  <INSTRUMENT>  (2545) 
HITACHI M-80B

>  <ION MODE>  (2545) 
P

>  <INCHIKEY>  (2545) 
MOEFFSWKSMRFRQ-UHFFFAOYSA-N

>  <FORMULA>  (2545) 
C8H10O2

>  <EXACT MASS>  (2545) 
138.06807956

>  <MW>  (2545) 
138

>  <ID>  (2545) 
JP008436

>  <CONTRIBUTOR>  (2545) 
University of Tokyo Team, {Faculty of Engineering, University of Tokyo

>  <COMMENT>  (2545) 
SMILES=CCOc(c1)c(O)ccc1
InChI=InChI=1S/C8H10O2/c1-2-10-8-6-4-3-5-7(8)9/h3-6,9H,2H2,1H3
computed SMILES=OC=1C=CC=CC1OCC
accession=JP008436
date=2016.01.19 (Created 2008.10.21, modified 2011.05.06)
author=SODA AROMATIC CO., LTD.
license=CC BY-NC-SA
exact mass=138.06808
ionization energy=70 eV
ion type=[M]+*
computed spectral entropy=2.3573610483831615
computed normalized entropy=0.7323553863652649
SPLASH=splash10-03di-6900000000-3358c52c9698f851ecbb
submitter=submitter = University of Tokyo Team (Faculty of Engineering, University of Tokyo)
MoNA Rating=3.75

>  <NUM PEAKS>  (2545) 
25

>  <MASS SPECTRAL PEAKS>  (2545) 
26 2.62
27 14.66
29 6.41
38 1.64
39 5.87
43 1.3
45 1.13
50 2.77
51 4.52
52 5.56
53 8.42
54 2.22
55 2.33
63 4.78
64 10.84
65 4.04
81 17.07
82 3.76
92 5.03
95 1.22
109 8.38
110 99.99
111 5.75
138 40.99
139 2.97

>  <PREDICTED SPECTRUM>  (2545) 
14 22
17 0
18 3
25 19
26 152
27 362
28 202
29 351
31 55
36 1
37 74
38 190
39 344
40 146
41 278
42 87
43 277
44 36
49 14
50 233
51 378
52 381
53 384
54 257
55 221
56 135
57 77
61 26
62 117
63 275
64 263
65 388
66 186
67 59
68 35
69 17
74 77
75 52
76 106
77 193
78 3
79 119
80 192
81 555
82 375
83 140
84 3
91 98
92 221
93 305
94 119
95 78
109 549
110 999
111 322
112 23
121 38
123 33
137 14
138 937
139 334
140 68

$$$$

     RDKit          2D

 13 13  0  0  0  0  0  0  0  0999 V2000
   -4.5119    1.4826    0.0000 C   0  0  0  0  0  0  0  0  0  0  0  0
    3.2823   -3.0174    0.0000 C   0  0  0  0  0  0  0  0  0  0  0  0
    4.5818    0.7330    0.0000 C   0  0  0  0  0  0  0  0  0  0  0  0
   -3.2129    0.7326    0.0000 C   0  0  0  0  0  0  0  0  0  0  0  0
   -1.9138    1.4826    0.0000 C   0  0  0  0  0  0  0  0  0  0  0  0
   -0.6153   -0.7683    0.0000 C   0  0  0  0  0  0  0  0  0  0  0  0
    0.6838   -1.5183    0.0000 C   0  0  0  0  0  0  0  0  0  0  0  0
    0.6847    1.4834    0.0000 C   0  0  0  0  0  0  0  0  0  0  0  0
   -0.6148    0.7326    0.0000 C   0  0  0  0  0  0  0  0  0  0  0  0
    1.9833   -0.7674    0.0000 C   0  0  0  0  0  0  0  0  0  0  0  0
    1.9838    0.7334    0.0000 C   0  0  0  0  0  0  0  0  0  0  0  0
    3.2823   -1.5174    0.0000 O   0  0  0  0  0  0  0  0  0  0  0  0
    3.2829    1.4832    0.0000 O   0  0  0  0  0  0  0  0  0  0  0  0
  4  1  1  0
  4  5  2  0
  7  6  2  0
  9  5  1  0
  9  6  1  0
  9  8  2  0
 10  7  1  0
 11  8  1  0
 11 10  2  0
 12  2  1  0
 12 10  1  0
 13  3  1  0
 13 11  1  0
M  END
>  <NAME>  (2546) 
(E)-1,2-DIMETHOXY-4-(1-PROPENYL)BENZENE

>  <SYNONYMS>  (2546) 
TRANS-METHYL ISOEUGENOL

>  <SPECTRUM TYPE>  (2546) 
MS1

>  <INSTRUMENT TYPE>  (2546) 
EI-B

>  <INSTRUMENT>  (2546) 
HITACHI M-80B

>  <ION MODE>  (2546) 
P

>  <INCHIKEY>  (2546) 
NNWHUJCUHAELCL-SNAWJCMRSA-N

>  <FORMULA>  (2546) 
C11H14O2

>  <EXACT MASS>  (2546) 
178.099379688

>  <MW>  (2546) 
178

>  <ID>  (2546) 
JP008425

>  <CONTRIBUTOR>  (2546) 
University of Tokyo Team, {Faculty of Engineering, University of Tokyo

>  <COMMENT>  (2546) 
SMILES=COc(c1)c(OC)cc(c1)C([H])=C([H])C
InChI=InChI=1S/C11H14O2/c1-4-5-9-6-7-10(12-2)11(8-9)13-3/h4-8H,1-3H3/b5-4+
computed SMILES=O(C1=CC=C(C=CC)C=C1OC)C
accession=JP008425
date=2016.01.19 (Created 2008.10.21, modified 2011.05.06)
author=SODA AROMATIC CO., LTD.
license=CC BY-NC-SA
exact mass=178.09938
ionization energy=70 eV
ion type=[M]+*
computed spectral entropy=3.1029985809366987
computed normalized entropy=0.7743300687778197
SPLASH=splash10-004i-4900000000-648a0e2f6d12e20248ec
submitter=submitter = University of Tokyo Team (Faculty of Engineering, University of Tokyo)
MoNA Rating=3.75

>  <NUM PEAKS>  (2546) 
55

>  <MASS SPECTRAL PEAKS>  (2546) 
15 4.93
18 1.2
27 2.78
38 1.28
39 5.87
41 6.36
43 1.63
50 3.1
51 5.8
52 2.04
53 2.94
55 3.92
57 1.93
62 1.39
63 4.5
64 1.64
65 7.11
66 2.15
67 1.06
75 1.18
76 1.23
77 9.35
78 3.41
79 8.34
89 3.19
90 1.02
91 23.86
92 3.78
95 1.99
102 1.9
103 13.91
104 3.18
105 5.73
106 1.05
107 27.44
108 1.72
115 6.67
116 1.86
117 3.02
118 1.27
119 2.31
120 2.53
121 1
131 2.35
132 1.19
133 2.21
135 8.15
146 2.16
147 6.65
148 1.25
162 1.49
163 36.13
164 3.33
178 99.99
179 10.06

>  <PREDICTED SPECTRUM>  (2546) 
14 25
15 117
16 13
17 8
18 12
26 65
27 143
28 65
29 66
31 66
32 7
33 1
37 32
38 104
39 244
40 72
41 145
42 48
43 57
44 51
45 24
49 30
50 225
51 375
52 215
53 233
54 71
55 143
56 37
57 79
58 35
59 36
61 41
62 178
63 308
64 174
65 309
66 168
67 104
68 34
69 85
71 10
72 33
73 13
74 150
75 182
76 190
77 442
78 289
79 272
80 93
81 23
82 38
85 64
86 99
87 87
88 105
89 298
90 192
91 485
92 248
93 151
94 93
95 90
101 95
102 254
103 437
104 248
105 335
106 189
107 251
108 156
109 84
110 3
115 361
116 216
117 362
118 209
119 244
120 249
121 135
122 77
123 27
124 33
130 4
131 344
132 369
133 228
134 165
135 467
136 137
137 87
145 162
146 202
147 503
148 195
149 77
150 17
151 82
161 85
162 168
163 587
164 191
165 60
177 170
178 999
179 325
180 83

$$$$

     RDKit          2D

 13 13  0  0  0  0  0  0  0  0999 V2000
   -4.5119    1.4826    0.0000 C   0  0  0  0  0  0  0  0  0  0  0  0
    3.2823   -3.0174    0.0000 C   0  0  0  0  0  0  0  0  0  0  0  0
    4.5818    0.7330    0.0000 C   0  0  0  0  0  0  0  0  0  0  0  0
   -3.2129    0.7326    0.0000 C   0  0  0  0  0  0  0  0  0  0  0  0
   -1.9138    1.4826    0.0000 C   0  0  0  0  0  0  0  0  0  0  0  0
   -0.6153   -0.7683    0.0000 C   0  0  0  0  0  0  0  0  0  0  0  0
    0.6838   -1.5183    0.0000 C   0  0  0  0  0  0  0  0  0  0  0  0
    0.6847    1.4834    0.0000 C   0  0  0  0  0  0  0  0  0  0  0  0
   -0.6148    0.7326    0.0000 C   0  0  0  0  0  0  0  0  0  0  0  0
    1.9833   -0.7674    0.0000 C   0  0  0  0  0  0  0  0  0  0  0  0
    1.9838    0.7334    0.0000 C   0  0  0  0  0  0  0  0  0  0  0  0
    3.2823   -1.5174    0.0000 O   0  0  0  0  0  0  0  0  0  0  0  0
    3.2829    1.4832    0.0000 O   0  0  0  0  0  0  0  0  0  0  0  0
  4  1  2  0
  5  4  1  0
  7  6  2  0
  9  5  1  0
  9  6  1  0
  9  8  2  0
 10  7  1  0
 11  8  1  0
 11 10  2  0
 12  2  1  0
 12 10  1  0
 13  3  1  0
 13 11  1  0
M  END
>  <NAME>  (2547) 
1,2-DIMETHOXY-4-(2-PROPENYL)BENZENE

>  <SYNONYMS>  (2547) 
METHYL EUGENOL

>  <SPECTRUM TYPE>  (2547) 
MS1

>  <INSTRUMENT TYPE>  (2547) 
EI-B

>  <INSTRUMENT>  (2547) 
HITACHI M-80B

>  <ION MODE>  (2547) 
P

>  <INCHIKEY>  (2547) 
ZYEMGPIYFIJGTP-UHFFFAOYSA-N

>  <FORMULA>  (2547) 
C11H14O2

>  <EXACT MASS>  (2547) 
178.099379688

>  <MW>  (2547) 
178

>  <ID>  (2547) 
JP008424

>  <CONTRIBUTOR>  (2547) 
University of Tokyo Team, {Faculty of Engineering, University of Tokyo

>  <COMMENT>  (2547) 
SMILES=C=CCc(c1)cc(OC)c(OC)c1
InChI=InChI=1S/C11H14O2/c1-4-5-9-6-7-10(12-2)11(8-9)13-3/h4,6-8H,1,5H2,2-3H3
computed SMILES=O(C1=CC=C(C=C1OC)CC=C)C
accession=JP008424
date=2016.01.19 (Created 2008.10.21, modified 2011.05.06)
author=SODA AROMATIC CO., LTD.
license=CC BY-NC-SA
exact mass=178.09938
ionization energy=70 eV
ion type=[M]+*
computed spectral entropy=3.5470518376475115
computed normalized entropy=0.8528856826583583
SPLASH=splash10-004i-6900000000-511a7254b57b1693d125
submitter=submitter = University of Tokyo Team (Faculty of Engineering, University of Tokyo)
MoNA Rating=3.75

>  <NUM PEAKS>  (2547) 
64

>  <MASS SPECTRAL PEAKS>  (2547) 
14 1.46
15 10.38
26 2.61
27 5.98
29 2.06
38 2.12
39 14.11
40 1.99
41 12.31
42 1.86
43 3.72
45 5.92
50 5.68
51 14.27
52 3.62
53 4.52
55 8.06
57 3.97
58 1.84
62 1.89
63 7.89
64 3.46
65 12.09
66 2.74
69 1.9
75 2.08
76 2.7
77 15.48
78 8.4
79 12.91
89 5.68
90 2.5
91 32.09
92 6.83
94 1.52
95 2.36
102 2.3
103 27.01
104 6.62
105 7.71
106 2.75
107 21.75
108 3.39
115 11.45
116 3.01
117 5.59
118 1.63
119 4.65
120 4.97
121 2.08
131 5.38
132 2.51
133 1.65
135 12.26
136 1.72
146 2.77
147 26.74
148 5.33
151 10.91
152 1.98
163 26.43
177 2.12
178 99.99
179 11.85

>  <PREDICTED SPECTRUM>  (2547) 
14 22
15 107
16 12
17 8
18 16
25 14
26 99
27 218
28 99
29 135
30 33
31 103
32 3
34 0
37 90
38 168
39 392
40 139
41 276
42 102
43 110
44 85
45 121
49 67
50 276
51 432
52 279
53 314
54 137
55 207
56 54
57 123
58 3
59 76
61 109
62 214
63 341
64 194
65 401
66 230
67 200
68 54
69 92
70 21
71 46
72 42
73 27
74 160
75 212
76 207
77 561
78 415
79 423
80 193
81 124
82 55
83 4
85 84
86 71
87 86
88 82
89 303
90 222
91 620
92 299
93 227
94 187
95 179
96 34
98 11
99 15
101 81
102 266
103 482
104 280
105 395
106 245
107 287
108 225
109 165
110 72
114 3
115 475
116 267
117 335
118 216
119 288
120 228
121 278
122 163
123 127
124 118
125 15
126 2
127 11
128 158
129 142
130 157
131 494
132 279
133 214
134 181
135 413
136 257
137 256
138 145
144 7
145 247
146 225
147 514
148 240
149 205
150 148
151 549
152 190
161 133
162 179
163 473
164 236
165 23
175 19
177 250
178 999
179 354
180 99

$$$$

     RDKit          2D

 16 16  0  0  0  0  0  0  0  0999 V2000
   -5.1857    6.0115    0.0000 C   0  0  0  0  0  0  0  0  0  0  0  0
   -3.8904    5.2551    0.0000 C   0  0  0  0  0  0  0  0  0  0  0  0
   -2.5877    5.9987    0.0000 C   0  0  0  0  0  0  0  0  0  0  0  0
   -1.2923    5.2423    0.0000 C   0  0  0  0  0  0  0  0  0  0  0  0
    0.0104    5.9859    0.0000 C   0  0  0  0  0  0  0  0  0  0  0  0
    1.3057    5.2295    0.0000 C   0  0  0  0  0  0  0  0  0  0  0  0
    2.6084    5.9731    0.0000 C   0  0  0  0  0  0  0  0  0  0  0  0
    3.9037    5.2168    0.0000 C   0  0  0  0  0  0  0  0  0  0  0  0
    5.2065    5.9603    0.0000 C   0  0  0  0  0  0  0  0  0  0  0  0
    7.8008    5.9540    0.0000 C   0  0  0  0  0  0  0  0  0  0  0  0
    6.4873    3.7291    0.0000 C   0  0  0  0  0  0  0  0  0  0  0  0
    9.0854    5.2291    0.0000 C   0  0  0  0  0  0  0  0  0  0  0  0
    7.8118    2.9350    0.0000 C   0  0  0  0  0  0  0  0  0  0  0  0
    6.5018    5.2040    0.0000 C   0  0  0  0  0  0  0  0  0  0  0  0
    9.1108    3.6850    0.0000 C   0  0  0  0  0  0  0  0  0  0  0  0
   10.4160    2.9457    0.0000 O   0  0  0  0  0  0  0  0  0  0  0  0
  2  1  1  0
  3  2  1  0
  4  3  1  0
  5  4  1  0
  6  5  1  0
  7  6  1  0
  8  7  1  0
  9  8  1  0
 12 10  2  0
 13 11  1  0
 14  9  1  0
 14 10  1  0
 14 11  2  0
 15 12  1  0
 15 13  2  0
 16 15  1  0
M  END
>  <NAME>  (2548) 
PARA-NONYLPHENOL

>  <SYNONYMS>  (2548) 


>  <SPECTRUM TYPE>  (2548) 
MS1

>  <INSTRUMENT TYPE>  (2548) 
EI-B

>  <INSTRUMENT>  (2548) 
HITACHI M-60

>  <ION MODE>  (2548) 
P

>  <INCHIKEY>  (2548) 
IGFHQQFPSIBGKE-UHFFFAOYSA-N

>  <FORMULA>  (2548) 
C15H24O

>  <EXACT MASS>  (2548) 
220.182715388

>  <MW>  (2548) 
220

>  <ID>  (2548) 
JP008422

>  <CONTRIBUTOR>  (2548) 
University of Tokyo Team, {Faculty of Engineering, University of Tokyo

>  <COMMENT>  (2548) 
SMILES=CCCCCCCCCc(c1)ccc(O)c1
InChI=InChI=1S/C15H24O/c1-2-3-4-5-6-7-8-9-14-10-12-15(16)13-11-14/h10-13,16H,2-9H2,1H3
computed SMILES=OC1=CC=C(C=C1)CCCCCCCCC
accession=JP008422
date=2016.01.19 (Created 2008.10.21, modified 2011.05.06)
author=UBE SCIENTIFIC ANALYSIS LABORATORY
license=CC BY-NC-SA
exact mass=220.18272
ionization energy=70 eV
ion type=[M]+*
computed spectral entropy=2.6370974876396693
computed normalized entropy=0.74172695388224
SPLASH=splash10-000i-2900000000-7a162fc7755b07f777e5
submitter=submitter = University of Tokyo Team (Faculty of Engineering, University of Tokyo)
MoNA Rating=3.75

>  <NUM PEAKS>  (2548) 
35

>  <MASS SPECTRAL PEAKS>  (2548) 
27 2.8
29 7.52
39 3.4
41 15.24
43 8.26
55 8.82
57 3.66
65 2.25
77 6.55
91 5.49
94 0.99
95 4.47
103 1.82
105 1.32
107 51.17
108 3.09
115 1.35
119 2.84
120 1.77
121 49.27
122 4.77
133 1.78
134 4.28
135 99.99
136 10.07
147 0.58
149 34.4
150 3.54
163 9.4
164 0.48
177 5.03
191 5.53
206 0.92
220 7.25
221 0.42

>  <PREDICTED SPECTRUM>  (2548) 
27 0
29 35
39 84
41 116
42 29
43 114
51 56
52 19
53 68
54 5
55 117
57 99
65 80
66 24
69 43
77 258
78 109
79 45
83 7
90 75
91 133
92 0
93 40
94 69
103 10
105 58
106 18
107 999
108 346
109 1
115 15
120 17
121 112
122 26
220 490
221 195
222 51

$$$$

     RDKit          2D

 41 40  0  0  0  0  0  0  0  0999 V2000
   12.3409   21.3750    0.0000 C   0  0  0  0  0  0  0  0  0  0  0  0
  -37.0226   21.3750    0.0000 C   0  0  0  0  0  0  0  0  0  0  0  0
   11.0418   22.1250    0.0000 C   0  0  0  0  0  0  0  0  0  0  0  0
  -35.7235   22.1250    0.0000 C   0  0  0  0  0  0  0  0  0  0  0  0
    9.7428   21.3750    0.0000 C   0  0  0  0  0  0  0  0  0  0  0  0
  -34.4245   21.3750    0.0000 C   0  0  0  0  0  0  0  0  0  0  0  0
    8.4437   22.1250    0.0000 C   0  0  0  0  0  0  0  0  0  0  0  0
  -33.1255   22.1250    0.0000 C   0  0  0  0  0  0  0  0  0  0  0  0
    7.1447   21.3750    0.0000 C   0  0  0  0  0  0  0  0  0  0  0  0
  -31.8264   21.3750    0.0000 C   0  0  0  0  0  0  0  0  0  0  0  0
    5.8457   22.1250    0.0000 C   0  0  0  0  0  0  0  0  0  0  0  0
  -30.5274   22.1250    0.0000 C   0  0  0  0  0  0  0  0  0  0  0  0
    4.5466   21.3750    0.0000 C   0  0  0  0  0  0  0  0  0  0  0  0
  -29.2284   21.3750    0.0000 C   0  0  0  0  0  0  0  0  0  0  0  0
    3.2476   22.1250    0.0000 C   0  0  0  0  0  0  0  0  0  0  0  0
    1.9486   21.3750    0.0000 C   0  0  0  0  0  0  0  0  0  0  0  0
    0.6495   22.1250    0.0000 C   0  0  0  0  0  0  0  0  0  0  0  0
   -0.6495   21.3750    0.0000 C   0  0  0  0  0  0  0  0  0  0  0  0
   -1.9486   22.1250    0.0000 C   0  0  0  0  0  0  0  0  0  0  0  0
   -3.2476   21.3750    0.0000 C   0  0  0  0  0  0  0  0  0  0  0  0
  -27.9293   22.1250    0.0000 C   0  0  0  0  0  0  0  0  0  0  0  0
   -4.5466   22.1250    0.0000 C   0  0  0  0  0  0  0  0  0  0  0  0
  -26.6303   21.3750    0.0000 C   0  0  0  0  0  0  0  0  0  0  0  0
   -5.8457   21.3750    0.0000 C   0  0  0  0  0  0  0  0  0  0  0  0
  -25.3312   22.1250    0.0000 C   0  0  0  0  0  0  0  0  0  0  0  0
   -7.1447   22.1250    0.0000 C   0  0  0  0  0  0  0  0  0  0  0  0
  -24.0322   21.3750    0.0000 C   0  0  0  0  0  0  0  0  0  0  0  0
   -8.4437   21.3750    0.0000 C   0  0  0  0  0  0  0  0  0  0  0  0
  -18.8361   21.3750    0.0000 C   0  0  0  0  0  0  0  0  0  0  0  0
  -13.6399   21.3750    0.0000 C   0  0  0  0  0  0  0  0  0  0  0  0
  -22.7332   22.1250    0.0000 C   0  0  0  0  0  0  0  0  0  0  0  0
   -9.7428   22.1250    0.0000 C   0  0  0  0  0  0  0  0  0  0  0  0
  -17.5370   22.1250    0.0000 C   0  0  0  0  0  0  0  0  0  0  0  0
  -14.9389   22.1250    0.0000 C   0  0  0  0  0  0  0  0  0  0  0  0
  -20.1351   22.1250    0.0000 C   0  0  0  0  0  0  0  0  0  0  0  0
  -12.3409   22.1250    0.0000 C   0  0  0  0  0  0  0  0  0  0  0  0
  -20.1351   23.6250    0.0000 O   0  0  0  0  0  0  0  0  0  0  0  0
  -12.3409   23.6250    0.0000 O   0  0  0  0  0  0  0  0  0  0  0  0
  -21.4341   21.3750    0.0000 O   0  0  0  0  0  0  0  0  0  0  0  0
  -11.0418   21.3750    0.0000 O   0  0  0  0  0  0  0  0  0  0  0  0
  -16.2380   21.3750    0.0000 S   0  0  0  0  0  0  0  0  0  0  0  0
  3  1  1  0
  4  2  1  0
  5  3  1  0
  6  4  1  0
  7  5  1  0
  8  6  1  0
  9  7  1  0
 10  8  1  0
 11  9  1  0
 12 10  1  0
 13 11  1  0
 14 12  1  0
 15 13  1  0
 16 15  1  0
 17 16  1  0
 18 17  1  0
 19 18  1  0
 20 19  1  0
 21 14  1  0
 22 20  1  0
 23 21  1  0
 24 22  1  0
 25 23  1  0
 26 24  1  0
 27 25  1  0
 28 26  1  0
 31 27  1  0
 32 28  1  0
 33 29  1  0
 34 30  1  0
 35 29  1  0
 36 30  1  0
 37 35  2  0
 38 36  2  0
 39 31  1  0
 39 35  1  0
 40 32  1  0
 40 36  1  0
 41 33  1  0
 41 34  1  0
M  END
>  <NAME>  (2549) 
LAURYL STEARYL THIODIPROPIONATE

>  <SYNONYMS>  (2549) 
DODECYL OCTADECYL 4-THIAHEPTANEDIOATE

>  <SPECTRUM TYPE>  (2549) 
MS1

>  <INSTRUMENT TYPE>  (2549) 
EI-B

>  <INSTRUMENT>  (2549) 
HITACHI M-60

>  <ION MODE>  (2549) 
P

>  <INCHIKEY>  (2549) 
RRZCFXQTVDJDGF-UHFFFAOYSA-N

>  <FORMULA>  (2549) 
C36H70O4S

>  <EXACT MASS>  (2549) 
598.49948172

>  <MW>  (2549) 
598

>  <ID>  (2549) 
JP008421

>  <CONTRIBUTOR>  (2549) 
University of Tokyo Team, {Faculty of Engineering, University of Tokyo

>  <COMMENT>  (2549) 
SMILES=C(CCCCCCOC(CCSCCC(OCCCCCCCCCCCCCCCCCC)=O)=O)CCCCC
InChI=InChI=1S/C36H70O4S/c1-3-5-7-9-11-13-15-16-17-18-19-20-22-24-26-28-32-40-36(38)30-34-41-33-29-35(37)39-31-27-25-23-21-14-12-10-8-6-4-2/h3-34H2,1-2H3
computed SMILES=O=C(OCCCCCCCCCCCC)CCSCCC(=O)OCCCCCCCCCCCCCCCCCC
accession=JP008421
license=CC BY-NC-SA
date=2016.01.19 (Created 2008.10.21, modified 2011.05.06)
author=UBE SCIENTIFIC ANALYSIS LABORATORY
exact mass=598.49948
ionization energy=70 eV
ion type=[M]+*
computed spectral entropy=3.8103473660661016
computed normalized entropy=0.8045159863091792
SPLASH=splash10-0a4l-9300000000-1cbae39ecc46b842cb44
submitter=submitter = University of Tokyo Team (Faculty of Engineering, University of Tokyo)
MoNA Rating=3.75

>  <NUM PEAKS>  (2549) 
114

>  <MASS SPECTRAL PEAKS>  (2549) 
27 6.67
28 6.69
29 16.66
41 36.5
42 6.69
43 92.06
44 1.87
54 3.7
55 99.99
56 17.24
57 83.92
58 2.54
60 3
61 4.85
67 6.15
68 7.4
69 35.71
70 9.82
71 37.73
72 1.18
73 15.67
74 4.85
75 2.13
81 6.03
82 9.44
83 26.67
84 7.26
85 20.17
86 0.74
87 4.16
88 4.06
89 26.24
91 0.84
95 4.02
96 5.81
97 17.23
98 4.7
99 4.95
105 13.12
106 9.81
107 7.09
109 2.65
110 2.47
111 7.95
112 2.48
113 4.37
114 6.93
115 3.49
116 1.15
117 2.01
119 6.35
123 1.08
124 1.56
125 3.09
126 1.53
127 3.66
132 18.39
133 6.17
134 3.21
135 1.27
138 0.54
139 1.18
140 0.91
141 1.28
142 8.73
143 44.03
144 3.9
145 2.21
159 3.74
160 4.4
161 30.1
162 2.28
163 1.08
166 2.61
167 0.62
168 1.29
169 1.53
178 38.52
179 9.81
180 2.29
201 1.09
213 0.83
223 1.17
241 2.03
250 0.43
252 0.26
253 0.64
273 2.68
274 1.26
285 0.91
297 0.3
300 1.11
307 0.54
325 2.09
327 0.98
328 1.94
329 7.4
330 1.55
346 11.54
347 3.99
348 0.92
357 0.87
358 0.77
412 0.91
413 2.82
414 0.68
430 4.15
431 1.57
514 2.53
515 0.65
598 6.16
599 2.52
600 0.75
682 0.63

>  <PREDICTED SPECTRUM>  (2549) 
26 21
27 68
28 7
29 216
30 180
39 239
40 61
41 354
42 125
43 999
44 111
53 13
54 242
55 921
56 412
57 915
58 145
60 62
62 38
66 1
67 348
68 436
69 765
70 529
71 650
72 344
73 240
74 68
76 106
77 36
78 56
79 205
80 135
81 426
82 362
83 549
84 164
85 614
86 439
87 745
88 218
89 152
90 82
93 158
94 200
95 169
96 269
97 560
98 319
99 196
101 51
102 3
103 47
104 500
105 518
106 167
109 96
110 243
111 240
112 173
113 268
114 142
116 201
118 75
120 42
125 208
126 288
127 150
128 8
131 22
132 307
133 155
135 68
137 7
139 103
140 193
144 38
145 44
157 26
166 88
167 57
175 88
185 26
197 30
201 110
226 190
230 72
254 89
255 75
256 8
257 39
287 45
300 247
301 243
310 38
314 22
315 308
316 74
328 168
329 519
330 7
341 17
342 33
343 268
347 22
356 55
357 65
371 21
464 26
580 65
597 83
598 31
599 211
600 8

$$$$

     RDKit          2D

 47 46  0  0  0  0  0  0  0  0999 V2000
   14.2894   24.7500    0.0000 C   0  0  0  0  0  0  0  0  0  0  0  0
  -42.8683   24.7500    0.0000 C   0  0  0  0  0  0  0  0  0  0  0  0
   12.9904   25.5000    0.0000 C   0  0  0  0  0  0  0  0  0  0  0  0
  -41.5692   25.5000    0.0000 C   0  0  0  0  0  0  0  0  0  0  0  0
   11.6913   24.7500    0.0000 C   0  0  0  0  0  0  0  0  0  0  0  0
  -40.2702   24.7500    0.0000 C   0  0  0  0  0  0  0  0  0  0  0  0
   10.3923   25.5000    0.0000 C   0  0  0  0  0  0  0  0  0  0  0  0
  -38.9711   25.5000    0.0000 C   0  0  0  0  0  0  0  0  0  0  0  0
    9.0933   24.7500    0.0000 C   0  0  0  0  0  0  0  0  0  0  0  0
  -37.6721   24.7500    0.0000 C   0  0  0  0  0  0  0  0  0  0  0  0
    7.7942   25.5000    0.0000 C   0  0  0  0  0  0  0  0  0  0  0  0
  -36.3731   25.5000    0.0000 C   0  0  0  0  0  0  0  0  0  0  0  0
    6.4952   24.7500    0.0000 C   0  0  0  0  0  0  0  0  0  0  0  0
  -35.0740   24.7500    0.0000 C   0  0  0  0  0  0  0  0  0  0  0  0
    5.1962   25.5000    0.0000 C   0  0  0  0  0  0  0  0  0  0  0  0
  -33.7750   25.5000    0.0000 C   0  0  0  0  0  0  0  0  0  0  0  0
    3.8971   24.7500    0.0000 C   0  0  0  0  0  0  0  0  0  0  0  0
  -32.4760   24.7500    0.0000 C   0  0  0  0  0  0  0  0  0  0  0  0
    2.5981   25.5000    0.0000 C   0  0  0  0  0  0  0  0  0  0  0  0
  -31.1769   25.5000    0.0000 C   0  0  0  0  0  0  0  0  0  0  0  0
    1.2990   24.7500    0.0000 C   0  0  0  0  0  0  0  0  0  0  0  0
  -29.8779   24.7500    0.0000 C   0  0  0  0  0  0  0  0  0  0  0  0
    0.0000   25.5000    0.0000 C   0  0  0  0  0  0  0  0  0  0  0  0
  -28.5788   25.5000    0.0000 C   0  0  0  0  0  0  0  0  0  0  0  0
   -1.2990   24.7500    0.0000 C   0  0  0  0  0  0  0  0  0  0  0  0
  -27.2798   24.7500    0.0000 C   0  0  0  0  0  0  0  0  0  0  0  0
   -2.5981   25.5000    0.0000 C   0  0  0  0  0  0  0  0  0  0  0  0
  -25.9808   25.5000    0.0000 C   0  0  0  0  0  0  0  0  0  0  0  0
   -3.8971   24.7500    0.0000 C   0  0  0  0  0  0  0  0  0  0  0  0
  -24.6817   24.7500    0.0000 C   0  0  0  0  0  0  0  0  0  0  0  0
   -5.1962   25.5000    0.0000 C   0  0  0  0  0  0  0  0  0  0  0  0
  -23.3827   25.5000    0.0000 C   0  0  0  0  0  0  0  0  0  0  0  0
   -6.4952   24.7500    0.0000 C   0  0  0  0  0  0  0  0  0  0  0  0
  -22.0836   24.7500    0.0000 C   0  0  0  0  0  0  0  0  0  0  0  0
  -11.6913   24.7500    0.0000 C   0  0  0  0  0  0  0  0  0  0  0  0
  -16.8875   24.7500    0.0000 C   0  0  0  0  0  0  0  0  0  0  0  0
   -7.7942   25.5000    0.0000 C   0  0  0  0  0  0  0  0  0  0  0  0
  -20.7846   25.5000    0.0000 C   0  0  0  0  0  0  0  0  0  0  0  0
  -12.9904   25.5000    0.0000 C   0  0  0  0  0  0  0  0  0  0  0  0
  -15.5885   25.5000    0.0000 C   0  0  0  0  0  0  0  0  0  0  0  0
  -10.3923   25.5000    0.0000 C   0  0  0  0  0  0  0  0  0  0  0  0
  -18.1865   25.5000    0.0000 C   0  0  0  0  0  0  0  0  0  0  0  0
  -10.3923   27.0000    0.0000 O   0  0  0  0  0  0  0  0  0  0  0  0
  -18.1865   27.0000    0.0000 O   0  0  0  0  0  0  0  0  0  0  0  0
   -9.0933   24.7500    0.0000 O   0  0  0  0  0  0  0  0  0  0  0  0
  -19.4856   24.7500    0.0000 O   0  0  0  0  0  0  0  0  0  0  0  0
  -14.2894   24.7500    0.0000 S   0  0  0  0  0  0  0  0  0  0  0  0
  3  1  1  0
  4  2  1  0
  5  3  1  0
  6  4  1  0
  7  5  1  0
  8  6  1  0
  9  7  1  0
 10  8  1  0
 11  9  1  0
 12 10  1  0
 13 11  1  0
 14 12  1  0
 15 13  1  0
 16 14  1  0
 17 15  1  0
 18 16  1  0
 19 17  1  0
 20 18  1  0
 21 19  1  0
 22 20  1  0
 23 21  1  0
 24 22  1  0
 25 23  1  0
 26 24  1  0
 27 25  1  0
 28 26  1  0
 29 27  1  0
 30 28  1  0
 31 29  1  0
 32 30  1  0
 33 31  1  0
 34 32  1  0
 37 33  1  0
 38 34  1  0
 39 35  1  0
 40 36  1  0
 41 35  1  0
 42 36  1  0
 43 41  2  0
 44 42  2  0
 45 37  1  0
 45 41  1  0
 46 38  1  0
 46 42  1  0
 47 39  1  0
 47 40  1  0
M  END
>  <NAME>  (2550) 
DISTEARYL THIODIPROPIONATE

>  <SYNONYMS>  (2550) 
DIOCTADECYL 4-THIAHEPTANEDIOATE

>  <SPECTRUM TYPE>  (2550) 
MS1

>  <INSTRUMENT TYPE>  (2550) 
EI-B

>  <INSTRUMENT>  (2550) 
HITACHI M-60

>  <ION MODE>  (2550) 
P

>  <INCHIKEY>  (2550) 
PWWSSIYVTQUJQQ-UHFFFAOYSA-N

>  <FORMULA>  (2550) 
C42H82O4S

>  <EXACT MASS>  (2550) 
682.593382104

>  <MW>  (2550) 
682

>  <ID>  (2550) 
JP008420

>  <CONTRIBUTOR>  (2550) 
University of Tokyo Team, {Faculty of Engineering, University of Tokyo

>  <COMMENT>  (2550) 
SMILES=C(CCCCCCCCCCCCOC(=O)CCSCCC(OCCCCCCCCCCCCCCCCCC)=O)CCCCC
InChI=InChI=1S/C42H82O4S/c1-3-5-7-9-11-13-15-17-19-21-23-25-27-29-31-33-37-45-41(43)35-39-47-40-36-42(44)46-38-34-32-30-28-26-24-22-20-18-16-14-12-10-8-6-4-2/h3-40H2,1-2H3
computed SMILES=O=C(OCCCCCCCCCCCCCCCCCC)CCSCCC(=O)OCCCCCCCCCCCCCCCCCC
accession=JP008420
date=2016.01.19 (Created 2008.10.21, modified 2011.05.06)
author=UBE SCIENTIFIC ANALYSIS LABORATORY
license=CC BY-NC-SA
exact mass=682.59338
ionization energy=70 eV
ion type=[M]+*
computed spectral entropy=3.784145145964083
computed normalized entropy=0.8147774871111029
SPLASH=splash10-0a4l-9300000000-6d0ffc6c3a5332c170ff
submitter=submitter = University of Tokyo Team (Faculty of Engineering, University of Tokyo)
MoNA Rating=3.75

>  <NUM PEAKS>  (2550) 
104

>  <MASS SPECTRAL PEAKS>  (2550) 
27 5.49
28 11.36
29 16.99
41 31.93
42 7.65
43 79.61
44 1.63
54 3.56
55 99.99
56 20.19
57 80.36
58 2.63
60 1.49
61 6.57
67 7.01
68 9.43
69 36.55
70 14
71 42.55
72 1.82
73 19.76
74 3.06
75 1.15
81 6.2
82 11.07
83 35.61
84 7.99
85 21.94
86 0.76
87 2.21
88 6.18
89 24.34
95 4.81
96 6.45
97 22.73
98 5.48
99 5.5
105 7.03
106 19.33
107 10.71
109 2.42
110 3.47
111 10.91
112 3.04
113 6.18
114 4.91
115 3.15
117 1.23
119 4.73
123 1.53
124 1.9
125 5.61
126 1.93
127 5.64
128 0.62
132 10.2
133 4.4
134 1.74
135 0.55
137 0.52
138 0.87
139 2.25
140 1.27
141 2.69
142 4.97
143 36.02
144 3.1
145 1.81
153 1.21
154 0.47
155 0.86
159 1.51
160 2.96
161 21.21
162 1.33
163 0.94
169 0.65
178 25.64
179 6.73
180 2.03
224 0.5
250 1.42
252 1.71
253 1.98
285 2.74
297 0.78
307 1.33
324 0.46
325 4.82
326 0.84
357 2.25
358 1.2
359 0.19
384 0.35
411 0.6
412 2.02
413 5.01
414 1.31
430 8.24
431 3.33
432 0.85
682 8.11
683 3.76
684 1.25

>  <PREDICTED SPECTRUM>  (2550) 
26 20
27 154
28 19
29 198
30 240
31 35
39 224
40 55
41 377
42 222
43 999
44 75
45 118
51 40
53 45
54 235
55 887
56 415
57 914
58 140
59 137
60 42
61 76
62 34
66 11
67 349
68 477
69 767
70 560
71 697
72 402
73 166
74 71
75 55
76 101
77 35
78 67
79 208
80 134
81 478
82 321
83 496
84 158
85 563
86 374
87 721
88 118
90 96
91 13
95 252
96 318
97 567
98 351
99 229
101 187
102 145
103 56
104 231
105 101
106 95
107 126
109 89
110 234
111 239
112 15
113 141
115 122
116 53
119 69
123 69
124 30
125 218
126 157
132 281
133 111
134 104
135 84
137 81
138 83
139 81
140 110
141 21
142 137
143 63
154 42
155 166
156 82
157 36
158 68
161 164
165 21
167 21
169 40
171 145
172 68
173 9
174 136
175 42
178 167
179 123
186 46
190 31
191 126
194 22
195 25
196 16
197 71
203 85
205 82
211 15
218 59
224 22
225 39
229 45
250 26
251 98
252 31
254 70
267 2
282 50
311 215
327 11
342 26
356 47
357 125
359 47
371 0
385 152
386 366
387 25
400 131
414 194
426 17
427 26
432 21
464 71
520 82
580 4
581 47
682 393
683 77
684 31

$$$$

     RDKit          2D

 35 34  0  0  0  0  0  0  0  0999 V2000
  -31.1769   18.0000    0.0000 C   0  0  0  0  0  0  0  0  0  0  0  0
   10.3923   18.0000    0.0000 C   0  0  0  0  0  0  0  0  0  0  0  0
  -29.8779   17.2500    0.0000 C   0  0  0  0  0  0  0  0  0  0  0  0
    9.0933   17.2500    0.0000 C   0  0  0  0  0  0  0  0  0  0  0  0
  -28.5788   18.0000    0.0000 C   0  0  0  0  0  0  0  0  0  0  0  0
    7.7942   18.0000    0.0000 C   0  0  0  0  0  0  0  0  0  0  0  0
  -27.2798   17.2500    0.0000 C   0  0  0  0  0  0  0  0  0  0  0  0
    6.4952   17.2500    0.0000 C   0  0  0  0  0  0  0  0  0  0  0  0
  -25.9808   18.0000    0.0000 C   0  0  0  0  0  0  0  0  0  0  0  0
    5.1962   18.0000    0.0000 C   0  0  0  0  0  0  0  0  0  0  0  0
  -24.6817   17.2500    0.0000 C   0  0  0  0  0  0  0  0  0  0  0  0
    3.8971   17.2500    0.0000 C   0  0  0  0  0  0  0  0  0  0  0  0
  -23.3827   18.0000    0.0000 C   0  0  0  0  0  0  0  0  0  0  0  0
    2.5981   18.0000    0.0000 C   0  0  0  0  0  0  0  0  0  0  0  0
  -22.0836   17.2500    0.0000 C   0  0  0  0  0  0  0  0  0  0  0  0
    1.2990   17.2500    0.0000 C   0  0  0  0  0  0  0  0  0  0  0  0
  -20.7846   18.0000    0.0000 C   0  0  0  0  0  0  0  0  0  0  0  0
    0.0000   18.0000    0.0000 C   0  0  0  0  0  0  0  0  0  0  0  0
  -19.4856   17.2500    0.0000 C   0  0  0  0  0  0  0  0  0  0  0  0
   -1.2990   17.2500    0.0000 C   0  0  0  0  0  0  0  0  0  0  0  0
  -18.1865   18.0000    0.0000 C   0  0  0  0  0  0  0  0  0  0  0  0
   -2.5981   18.0000    0.0000 C   0  0  0  0  0  0  0  0  0  0  0  0
  -12.9904   18.0000    0.0000 C   0  0  0  0  0  0  0  0  0  0  0  0
   -7.7942   18.0000    0.0000 C   0  0  0  0  0  0  0  0  0  0  0  0
  -16.8875   17.2500    0.0000 C   0  0  0  0  0  0  0  0  0  0  0  0
   -3.8971   17.2500    0.0000 C   0  0  0  0  0  0  0  0  0  0  0  0
  -11.6913   17.2500    0.0000 C   0  0  0  0  0  0  0  0  0  0  0  0
   -9.0933   17.2500    0.0000 C   0  0  0  0  0  0  0  0  0  0  0  0
  -14.2894   17.2500    0.0000 C   0  0  0  0  0  0  0  0  0  0  0  0
   -6.4952   17.2500    0.0000 C   0  0  0  0  0  0  0  0  0  0  0  0
  -14.2894   15.7500    0.0000 O   0  0  0  0  0  0  0  0  0  0  0  0
   -6.4952   15.7500    0.0000 O   0  0  0  0  0  0  0  0  0  0  0  0
  -15.5885   18.0000    0.0000 O   0  0  0  0  0  0  0  0  0  0  0  0
   -5.1962   18.0000    0.0000 O   0  0  0  0  0  0  0  0  0  0  0  0
  -10.3923   18.0000    0.0000 S   0  0  0  0  0  0  0  0  0  0  0  0
  3  1  1  0
  4  2  1  0
  5  3  1  0
  6  4  1  0
  7  5  1  0
  8  6  1  0
  9  7  1  0
 10  8  1  0
 11  9  1  0
 12 10  1  0
 13 11  1  0
 14 12  1  0
 15 13  1  0
 16 14  1  0
 17 15  1  0
 18 16  1  0
 19 17  1  0
 20 18  1  0
 21 19  1  0
 22 20  1  0
 25 21  1  0
 26 22  1  0
 27 23  1  0
 28 24  1  0
 29 23  1  0
 30 24  1  0
 31 29  2  0
 32 30  2  0
 33 25  1  0
 33 29  1  0
 34 26  1  0
 34 30  1  0
 35 27  1  0
 35 28  1  0
M  END
>  <NAME>  (2551) 
DILAURYL THIODIPROPIONATE

>  <SYNONYMS>  (2551) 
DIDODECYL 4-THIAHEPTANEDIOATE

>  <SPECTRUM TYPE>  (2551) 
MS1

>  <INSTRUMENT TYPE>  (2551) 
EI-B

>  <INSTRUMENT>  (2551) 
HITACHI M-60

>  <ION MODE>  (2551) 
P

>  <INCHIKEY>  (2551) 
GHKOFFNLGXMVNJ-UHFFFAOYSA-N

>  <FORMULA>  (2551) 
C30H58O4S

>  <EXACT MASS>  (2551) 
514.4055813360001

>  <MW>  (2551) 
514

>  <ID>  (2551) 
JP008418

>  <CONTRIBUTOR>  (2551) 
University of Tokyo Team, {Faculty of Engineering, University of Tokyo

>  <COMMENT>  (2551) 
SMILES=C(CCCCCCCOC(=O)CCSCCC(=O)OCCCCCCCCCCCC)CCCC
InChI=InChI=1S/C30H58O4S/c1-3-5-7-9-11-13-15-17-19-21-25-33-29(31)23-27-35-28-24-30(32)34-26-22-20-18-16-14-12-10-8-6-4-2/h3-28H2,1-2H3
computed SMILES=O=C(OCCCCCCCCCCCC)CCSCCC(=O)OCCCCCCCCCCCC
accession=JP008418
date=2016.01.19 (Created 2008.10.21, modified 2011.05.06)
author=UBE SCIENTIFIC ANALYSIS LABORATORY
license=CC BY-NC-SA
exact mass=514.40558
ionization energy=70 eV
ion type=[M]+*
computed spectral entropy=3.6655799746649897
computed normalized entropy=0.8341386703194705
SPLASH=splash10-0a4l-9300000000-d1a5053622e30ea63f58
submitter=submitter = University of Tokyo Team (Faculty of Engineering, University of Tokyo)
MoNA Rating=3.75

>  <NUM PEAKS>  (2551) 
81

>  <MASS SPECTRAL PEAKS>  (2551) 
27 6.42
28 7.17
29 19.57
41 40.56
42 7.63
43 89.9
54 2.12
55 99.99
56 15.61
57 71.59
60 2.31
61 2.65
67 3.78
68 5.17
69 31.11
70 8.99
71 33.34
73 12.69
74 4.98
75 1.86
81 4.78
82 7.76
83 18.77
84 5.63
85 16.81
87 3.82
88 3.92
89 24.37
95 3.41
96 4.24
97 10.87
98 3.47
99 3.48
105 14.79
106 7.02
107 4.36
109 1.65
110 1.16
111 5.23
112 1.11
113 2.74
114 8.72
115 4.02
117 1.11
119 6.4
125 1.06
127 2.19
132 24.95
133 5.91
134 3.61
142 10.46
143 37.99
144 3.85
145 1.89
159 4.72
160 5.63
161 28.36
162 1.26
166 4.04
168 2.27
169 1.13
178 39.78
179 9.94
180 2.25
201 1.79
213 1.35
223 1.44
241 3.24
273 4.71
274 2.86
300 2.04
327 1.71
328 3.29
329 11.98
330 2.43
346 16.65
347 6
348 1.1
514 13.78
515 4.69
516 1.16

>  <PREDICTED SPECTRUM>  (2551) 
27 114
28 63
29 196
39 153
40 2
41 500
42 152
43 899
44 172
45 60
53 62
54 257
55 963
56 463
57 999
58 32
59 121
60 268
61 323
62 47
67 403
68 443
69 728
70 460
71 697
72 152
73 289
74 153
75 14
76 60
77 23
78 94
79 213
80 117
81 308
82 346
83 585
84 245
85 698
86 443
87 700
88 351
89 90
90 82
91 131
94 57
95 125
96 343
97 602
98 360
99 85
100 30
101 131
103 111
104 577
105 631
106 52
107 23
109 35
110 155
111 315
112 100
113 313
114 282
115 47
116 237
117 178
119 72
122 68
125 319
126 216
127 66
130 132
131 107
132 316
133 12
140 27
142 86
158 106
161 235
171 48
172 66
173 73
174 40
176 160
187 32
188 37
189 237
199 14
200 25
201 47
203 12
215 29
216 60
217 56
218 4
230 78
231 54
244 32
254 44
255 244
257 62
258 268
259 463
272 0
273 186
286 89
287 431
288 49
301 99
310 17
314 194
315 164
316 36
319 83
328 174
356 120
384 48
410 44
412 74
514 208
515 197
516 23

$$$$

     RDKit          2D

 11 11  0  0  0  0  0  0  0  0999 V2000
   -0.3123    3.2070    0.0000 C   0  0  0  0  0  0  0  0  0  0  0  0
   -2.3640    2.6681    0.0000 C   0  0  0  0  0  0  0  0  0  0  0  0
   -1.8251    0.6164    0.0000 C   0  0  0  0  0  0  0  0  0  0  0  0
    1.5257    1.9053    0.0000 C   0  0  0  0  0  0  0  0  0  0  0  0
    0.2121   -0.3195    0.0000 C   0  0  0  0  0  0  0  0  0  0  0  0
    2.8102    1.1805    0.0000 C   0  0  0  0  0  0  0  0  0  0  0  0
    1.5366   -1.1137    0.0000 C   0  0  0  0  0  0  0  0  0  0  0  0
    0.2266    1.1553    0.0000 C   0  0  0  0  0  0  0  0  0  0  0  0
    2.8357   -0.3637    0.0000 C   0  0  0  0  0  0  0  0  0  0  0  0
   -1.0687    1.9117    0.0000 C   0  0  0  0  0  0  0  0  0  0  0  0
    4.1409   -1.1029    0.0000 O   0  0  0  0  0  0  0  0  0  0  0  0
  6  4  1  0
  7  5  1  0
  8  4  1  0
  8  5  1  0
  9  6  1  0
  9  7  1  0
 10  1  1  0
 10  2  1  0
 10  3  1  0
 10  8  1  0
 11  9  1  0
M  END
>  <NAME>  (2552) 
PARA-TERT-BUTYLCYCLOHEXANOL

>  <SYNONYMS>  (2552) 


>  <SPECTRUM TYPE>  (2552) 
MS1

>  <INSTRUMENT TYPE>  (2552) 
EI-B

>  <INSTRUMENT>  (2552) 
HITACHI M-80B

>  <ION MODE>  (2552) 
P

>  <INCHIKEY>  (2552) 
CCOQPGVQAWPUPE-UHFFFAOYSA-N

>  <FORMULA>  (2552) 
C10H20O

>  <EXACT MASS>  (2552) 
156.15141526

>  <MW>  (2552) 
156

>  <ID>  (2552) 
JP008411

>  <CONTRIBUTOR>  (2552) 
University of Tokyo Team, {Faculty of Engineering, University of Tokyo

>  <COMMENT>  (2552) 
SMILES=OC(C1)CCC(C1)C(C)(C)C
InChI=InChI=1S/C10H20O/c1-10(2,3)8-4-6-9(11)7-5-8/h8-9,11H,4-7H2,1-3H3
computed SMILES=OC1CCC(CC1)C(C)(C)C
accession=JP008411
date=2016.01.19 (Created 2008.10.21, modified 2011.05.06)
author=SODA AROMATIC CO., LTD.
license=CC BY-NC-SA
exact mass=156.15142
ionization energy=70 eV
ion type=[M]+*
computed spectral entropy=2.9186642267268614
computed normalized entropy=0.8082887225175287
SPLASH=splash10-0a59-9000000000-1e973475c7a21128795f
submitter=submitter = University of Tokyo Team (Faculty of Engineering, University of Tokyo)
MoNA Rating=3.75

>  <NUM PEAKS>  (2552) 
37

>  <MASS SPECTRAL PEAKS>  (2552) 
27 8.55
28 1.43
29 18.77
31 1.97
39 9.62
40 1.61
41 40.94
42 2.49
43 10.67
44 4.72
51 1.01
53 4.35
54 8.62
55 18.73
56 40.71
57 99.99
58 3.86
67 28.56
68 2.26
69 6.89
70 1.89
77 1.17
79 3.28
80 14.37
81 43.56
82 22.89
83 20.47
84 1.31
95 4.32
96 1.55
99 13.27
101 1.12
110 2.65
123 14.22
124 1.27
138 11.44
139 1.06

>  <PREDICTED SPECTRUM>  (2552) 
29 101
39 110
40 15
41 433
42 6
43 210
51 62
53 164
54 86
55 288
56 441
57 999
58 184
65 4
67 399
68 7
69 238
77 173
79 144
80 238
81 632
82 273
83 129
93 31
95 231
96 66
97 39
98 4
99 139
100 26
101 22
123 619
138 104

$$$$

     RDKit          2D

  7  6  0  0  0  0  0  0  0  0999 V2000
   -3.8971    2.2500    0.0000 C   0  0  0  0  0  0  0  0  0  0  0  0
   -1.2990    3.7500    0.0000 C   0  0  0  0  0  0  0  0  0  0  0  0
    1.2990    2.2500    0.0000 C   0  0  0  0  0  0  0  0  0  0  0  0
   -2.5981    1.5000    0.0000 C   0  0  0  0  0  0  0  0  0  0  0  0
   -1.2990    2.2500    0.0000 C   0  0  0  0  0  0  0  0  0  0  0  0
    0.0000    1.5000    0.0000 C   0  0  0  0  0  0  0  0  0  0  0  0
   -0.0000    0.0000    0.0000 O   0  0  0  0  0  0  0  0  0  0  0  0
  4  1  1  0
  5  2  1  0
  5  4  1  0
  6  3  1  0
  6  5  1  0
  7  6  1  0
M  END
>  <NAME>  (2553) 
3-METHYL-2-PENTANOL

>  <SYNONYMS>  (2553) 


>  <SPECTRUM TYPE>  (2553) 
MS1

>  <INSTRUMENT TYPE>  (2553) 
EI-B

>  <INSTRUMENT>  (2553) 
HITACHI M-80B

>  <ION MODE>  (2553) 
P

>  <INCHIKEY>  (2553) 
ZXNBBWHRUSXUFZ-UHFFFAOYSA-N

>  <FORMULA>  (2553) 
C6H14O

>  <EXACT MASS>  (2553) 
102.104465068

>  <MW>  (2553) 
102

>  <ID>  (2553) 
JP008409

>  <CONTRIBUTOR>  (2553) 
University of Tokyo Team, {Faculty of Engineering, University of Tokyo

>  <COMMENT>  (2553) 
SMILES=CCC(C)C(C)O
InChI=InChI=1S/C6H14O/c1-4-5(2)6(3)7/h5-7H,4H2,1-3H3
computed SMILES=OC(C)C(C)CC
accession=JP008409
date=2016.01.19 (Created 2008.10.21, modified 2011.05.06)
author=SODA AROMATIC CO., LTD.
license=CC BY-NC-SA
exact mass=102.10447
ionization energy=70 eV
ion type=[M]+*
computed spectral entropy=1.95473907557505
computed normalized entropy=0.6899371272819561
SPLASH=splash10-0002-9000000000-a0bd2864076bd1b44d90
submitter=submitter = University of Tokyo Team (Faculty of Engineering, University of Tokyo)
MoNA Rating=3.75

>  <NUM PEAKS>  (2553) 
17

>  <MASS SPECTRAL PEAKS>  (2553) 
15 1.32
27 9.52
28 1.73
29 10.52
31 1.88
39 5.58
41 14.82
42 1.39
43 7.78
44 10.47
45 99.99
46 2.72
55 3.72
56 16.39
57 5.35
69 4.71
87 3.07

>  <PREDICTED SPECTRUM>  (2553) 
14 39
15 60
18 4
19 56
25 16
26 125
27 384
28 224
29 533
31 389
32 45
37 11
38 76
39 303
40 111
41 705
42 148
43 606
44 476
45 999
46 179
50 53
51 64
53 100
54 28
55 428
56 619
57 870
58 239
59 14
69 246
70 116
73 209
84 164
85 40

$$$$

     RDKit          2D

 12 12  0  0  0  0  0  0  0  0999 V2000
   -3.1275    2.5540    0.0000 C   0  0  0  0  0  0  0  0  0  0  0  0
    0.4404    3.6856    0.0000 C   0  0  0  0  0  0  0  0  0  0  0  0
   -1.4880    3.6951    0.0000 C   0  0  0  0  0  0  0  0  0  0  0  0
   -1.8322    1.7977    0.0000 C   0  0  0  0  0  0  0  0  0  0  0  0
    2.0649    2.5349    0.0000 C   0  0  0  0  0  0  0  0  0  0  0  0
    0.7513    0.3100    0.0000 C   0  0  0  0  0  0  0  0  0  0  0  0
    3.3494    1.8100    0.0000 C   0  0  0  0  0  0  0  0  0  0  0  0
    2.0759   -0.4841    0.0000 C   0  0  0  0  0  0  0  0  0  0  0  0
    0.7659    1.7849    0.0000 C   0  0  0  0  0  0  0  0  0  0  0  0
    3.3749    0.2659    0.0000 C   0  0  0  0  0  0  0  0  0  0  0  0
   -0.5295    2.5413    0.0000 C   0  0  0  0  0  0  0  0  0  0  0  0
    4.6801   -0.4734    0.0000 O   0  0  0  0  0  0  0  0  0  0  0  0
  4  1  1  0
  7  5  1  0
  8  6  1  0
  9  5  1  0
  9  6  1  0
 10  7  1  0
 10  8  1  0
 11  2  1  0
 11  3  1  0
 11  4  1  0
 11  9  1  0
 12 10  1  0
M  END
>  <NAME>  (2554) 
PARA-TERT-AMYLCYCLOHEXANOL

>  <SYNONYMS>  (2554) 


>  <SPECTRUM TYPE>  (2554) 
MS1

>  <INSTRUMENT TYPE>  (2554) 
EI-B

>  <INSTRUMENT>  (2554) 
HITACHI M-80B

>  <ION MODE>  (2554) 
P

>  <INCHIKEY>  (2554) 
VDQZABQVXYELSI-UHFFFAOYSA-N

>  <FORMULA>  (2554) 
C11H22O

>  <EXACT MASS>  (2554) 
170.167065324

>  <MW>  (2554) 
170

>  <ID>  (2554) 
JP008407

>  <CONTRIBUTOR>  (2554) 
University of Tokyo Team, {Faculty of Engineering, University of Tokyo

>  <COMMENT>  (2554) 
SMILES=CCC(C)(C)C(C1)CCC(O)C1
InChI=InChI=1S/C11H22O/c1-4-11(2,3)9-5-7-10(12)8-6-9/h9-10,12H,4-8H2,1-3H3
computed SMILES=OC1CCC(CC1)C(C)(C)CC
accession=JP008407
date=2016.01.19 (Created 2008.10.21, modified 2011.05.06)
author=SODA AROMATIC CO., LTD.
license=CC BY-NC-SA
exact mass=170.16707
ionization energy=70 eV
ion type=[M]+*
computed spectral entropy=2.9646707720674357
computed normalized entropy=0.7983339810875135
SPLASH=splash10-00di-9100000000-2871edb850185b2567b2
submitter=submitter = University of Tokyo Team (Faculty of Engineering, University of Tokyo)
MoNA Rating=3.75

>  <NUM PEAKS>  (2554) 
41

>  <MASS SPECTRAL PEAKS>  (2554) 
27 12.24
28 2.21
29 19.71
31 2.34
39 9.76
40 1.37
41 32.23
42 6.29
43 70.26
44 6.8
53 6.55
54 6
55 35.83
56 4.54
57 8.56
65 1.16
67 38.92
68 3.19
69 9.7
70 99.99
71 85.62
72 4.59
77 1.37
79 4.77
80 8.84
81 45.6
82 13.43
83 8.91
93 1.08
95 9.56
96 1.55
97 1.1
99 7.85
107 1.06
109 1.22
122 2.39
123 46.5
124 5.61
137 4.94
141 2.13
152 8.49

>  <PREDICTED SPECTRUM>  (2554) 
26 6
27 148
29 198
31 31
38 1
39 284
40 105
41 713
42 292
43 809
44 240
45 64
50 28
51 113
52 15
53 302
54 187
55 514
56 194
57 420
58 100
59 19
65 106
66 16
67 471
68 195
69 354
70 999
71 931
72 290
73 26
77 194
79 322
80 180
81 705
82 351
83 379
85 46
91 141
93 77
95 233
96 103
97 115
99 262
105 20
109 213
111 19
113 55
122 268
123 815
124 227
137 147
141 153
142 17
152 195

$$$$

     RDKit          2D

 10  9  0  0  0  0  0  0  0  0999 V2000
   -7.4695    3.9375    0.0000 C   0  0  0  0  0  0  0  0  0  0  0  0
   -4.8714    5.4375    0.0000 C   0  0  0  0  0  0  0  0  0  0  0  0
    1.6238    3.1875    0.0000 C   0  0  0  0  0  0  0  0  0  0  0  0
   -6.1704    3.1875    0.0000 C   0  0  0  0  0  0  0  0  0  0  0  0
   -2.2733    3.9375    0.0000 C   0  0  0  0  0  0  0  0  0  0  0  0
   -3.5724    3.1875    0.0000 C   0  0  0  0  0  0  0  0  0  0  0  0
   -0.9743    3.1875    0.0000 C   0  0  0  0  0  0  0  0  0  0  0  0
   -4.8714    3.9375    0.0000 C   0  0  0  0  0  0  0  0  0  0  0  0
    0.3248    3.9375    0.0000 C   0  0  0  0  0  0  0  0  0  0  0  0
    0.3248    5.4375    0.0000 O   0  0  0  0  0  0  0  0  0  0  0  0
  4  1  1  0
  6  5  1  0
  7  5  1  0
  8  2  1  0
  8  4  1  0
  6  8  2  0
  9  3  1  0
  9  7  1  0
 10  9  2  0
M  END
>  <NAME>  (2555) 
6-METHYL-5-OCTEN-2-ONE

>  <SYNONYMS>  (2555) 


>  <SPECTRUM TYPE>  (2555) 
MS1

>  <INSTRUMENT TYPE>  (2555) 
EI-B

>  <INSTRUMENT>  (2555) 
HITACHI M-80B

>  <ION MODE>  (2555) 
P

>  <INCHIKEY>  (2555) 
SAXWRVSDVXCTEL-SOFGYWHQSA-N

>  <FORMULA>  (2555) 
C9H16O

>  <EXACT MASS>  (2555) 
140.120115132

>  <MW>  (2555) 
140

>  <ID>  (2555) 
JP008405

>  <CONTRIBUTOR>  (2555) 
University of Tokyo Team, {Faculty of Engineering, University of Tokyo

>  <COMMENT>  (2555) 
SMILES=CCC(C)=CCCC(C)=O
InChI=InChI=1S/C9H16O/c1-4-8(2)6-5-7-9(3)10/h6H,4-5,7H2,1-3H3/b8-6+
computed SMILES=O=C(C)CCC=C(C)CC
accession=JP008405
date=2016.01.19 (Created 2008.10.21, modified 2011.05.06)
author=SODA AROMATIC CO., LTD.
license=CC BY-NC-SA
exact mass=140.12012
ionization energy=70 eV
ion type=[M]+*
computed spectral entropy=2.814890149360949
computed normalized entropy=0.7795497481413651
SPLASH=splash10-0006-9000000000-af7e9d8d4057c9068905
submitter=submitter = University of Tokyo Team (Faculty of Engineering, University of Tokyo)
MoNA Rating=3.75

>  <NUM PEAKS>  (2555) 
37

>  <MASS SPECTRAL PEAKS>  (2555) 
15 6.02
27 15.83
29 11.2
39 17.93
40 3.1
41 31.88
42 4.17
43 99.99
44 1.71
45 1.34
51 2.92
52 1.25
53 8.59
54 3.57
55 59.2
56 3.59
57 1.69
58 6.43
65 1.82
67 31.48
68 2.63
69 4.65
70 7.08
71 8.75
77 1.45
79 2.49
81 6.9
82 38.81
83 8.82
93 2
97 2.36
107 2.95
111 8.88
122 11.36
123 1
125 1.51
140 1.91

>  <PREDICTED SPECTRUM>  (2555) 
14 1
26 20
27 124
28 31
29 112
30 0
38 17
39 182
40 81
41 428
42 136
43 999
44 155
45 77
49 21
50 24
51 88
52 54
53 190
54 160
55 412
56 135
57 220
58 265
59 148
65 85
66 59
67 244
68 164
69 304
70 205
71 250
72 129
77 29
79 106
80 83
81 185
82 441
83 317
84 150
85 70
86 16
91 8
93 142
94 15
95 112
96 96
97 239
98 100
107 75
108 47
109 56
111 220
112 97
113 71
121 18
122 157
123 72
124 7
125 179
126 31
139 16
140 186
141 48

$$$$

     RDKit          2D

 14 13  0  0  0  0  0  0  0  0999 V2000
   -8.7685    6.1875    0.0000 C   0  0  0  0  0  0  0  0  0  0  0  0
   -7.4695    3.9375    0.0000 C   0  0  0  0  0  0  0  0  0  0  0  0
   -2.2733    3.9375    0.0000 C   0  0  0  0  0  0  0  0  0  0  0  0
    4.2219    6.1875    0.0000 C   0  0  0  0  0  0  0  0  0  0  0  0
   -4.8714    5.4375    0.0000 C   0  0  0  0  0  0  0  0  0  0  0  0
    0.3248    5.4375    0.0000 C   0  0  0  0  0  0  0  0  0  0  0  0
   -6.1704    6.1875    0.0000 C   0  0  0  0  0  0  0  0  0  0  0  0
   -3.5724    6.1875    0.0000 C   0  0  0  0  0  0  0  0  0  0  0  0
   -0.9743    6.1875    0.0000 C   0  0  0  0  0  0  0  0  0  0  0  0
    1.6238    6.1875    0.0000 C   0  0  0  0  0  0  0  0  0  0  0  0
   -7.4695    5.4375    0.0000 C   0  0  0  0  0  0  0  0  0  0  0  0
   -2.2733    5.4375    0.0000 C   0  0  0  0  0  0  0  0  0  0  0  0
    2.9228    5.4375    0.0000 C   0  0  0  0  0  0  0  0  0  0  0  0
    2.9228    3.9375    0.0000 O   0  0  0  0  0  0  0  0  0  0  0  0
  7  5  1  0
  8  5  1  0
  9  6  1  0
 10  6  1  0
 11  1  1  0
 11  2  1  0
 11  7  2  0
 12  3  1  0
 12  8  1  0
  9 12  2  0
 13  4  1  0
 13 10  1  0
 14 13  2  0
M  END
>  <NAME>  (2556) 
GERANYL ACETONE

>  <SYNONYMS>  (2556) 
6,10-DIMETHYL-5,9-UNDECADIEN-2-ONE

>  <SPECTRUM TYPE>  (2556) 
MS1

>  <INSTRUMENT TYPE>  (2556) 
EI-B

>  <INSTRUMENT>  (2556) 
HITACHI M-80B

>  <ION MODE>  (2556) 
P

>  <INCHIKEY>  (2556) 
HNZUNIKWNYHEJJ-FMIVXFBMSA-N

>  <FORMULA>  (2556) 
C13H22O

>  <EXACT MASS>  (2556) 
194.167065324

>  <MW>  (2556) 
194

>  <ID>  (2556) 
JP008403

>  <CONTRIBUTOR>  (2556) 
University of Tokyo Team, {Faculty of Engineering, University of Tokyo

>  <COMMENT>  (2556) 
SMILES=CC(C)=CCCC(C)=CCCC(C)=O
InChI=InChI=1S/C13H22O/c1-11(2)7-5-8-12(3)9-6-10-13(4)14/h7,9H,5-6,8,10H2,1-4H3/b12-9+
computed SMILES=O=C(C)CCC=C(C)CCC=C(C)C
accession=JP008403
date=2016.01.19 (Created 2008.10.21, modified 2011.05.06)
author=SODA AROMATIC CO., LTD.
license=CC BY-NC-SA
exact mass=194.16707
ionization energy=70 eV
ion type=[M]+*
computed spectral entropy=2.488690248678408
computed normalized entropy=0.6944822369909429
SPLASH=splash10-0006-9100000000-c8281af055528616da7a
submitter=submitter = University of Tokyo Team (Faculty of Engineering, University of Tokyo)
MoNA Rating=3.75

>  <NUM PEAKS>  (2556) 
36

>  <MASS SPECTRAL PEAKS>  (2556) 
15 1.62
27 5.1
29 2.83
39 6.93
41 35.27
42 2.01
43 99.99
44 2.1
51 1.15
53 5.46
55 3.6
58 1.86
65 1.38
67 5.98
68 3.8
69 39.47
70 2.05
71 1.54
77 1.71
79 1.99
81 3.03
82 1.5
83 3.02
91 1.69
93 4.07
95 1.51
107 5.53
108 1.71
109 3.06
111 1.19
121 2.17
123 1.09
125 5.59
136 5.99
151 6.49
194 1.05

>  <PREDICTED SPECTRUM>  (2556) 
25 1
26 30
27 207
28 84
29 235
30 23
31 67
37 27
38 45
39 282
40 130
41 786
42 189
43 923
44 87
45 41
50 57
51 124
52 55
53 264
54 99
55 356
56 125
57 162
58 120
59 62
63 25
65 118
66 97
67 381
68 279
69 999
70 262
71 282
72 33
77 199
78 96
79 207
80 145
81 481
82 245
83 280
84 154
85 96
86 26
87 0
91 237
92 93
93 306
94 173
95 389
96 110
97 92
98 37
99 25
105 191
106 116
107 358
108 187
109 401
110 129
111 196
112 102
113 35
119 176
120 80
121 328
122 240
123 334
124 127
125 166
126 86
128 0
133 120
134 40
135 152
136 357
137 192
138 96
139 24
147 46
148 7
149 39
150 67
151 298
152 151
153 31
161 100
175 16
176 111
177 27
179 93
180 21
194 172
195 94

$$$$

     RDKit          2D

 14 14  0  0  0  0  0  0  0  0999 V2000
   -3.8972   -1.4999    0.0000 C   0  0  0  0  0  0  0  0  0  0  0  0
    5.1966   -0.7503    0.0000 C   0  0  0  0  0  0  0  0  0  0  0  0
    3.8979   -3.0005    0.0000 C   0  0  0  0  0  0  0  0  0  0  0  0
   -1.2997    1.5007    0.0000 C   0  0  0  0  0  0  0  0  0  0  0  0
   -2.5981   -0.7499    0.0000 C   0  0  0  0  0  0  0  0  0  0  0  0
    1.2985    1.5009    0.0000 C   0  0  0  0  0  0  0  0  0  0  0  0
    2.5980    0.7501    0.0000 C   0  0  0  0  0  0  0  0  0  0  0  0
    1.2995   -1.5007    0.0000 C   0  0  0  0  0  0  0  0  0  0  0  0
    3.8977   -1.5005    0.0000 C   0  0  0  0  0  0  0  0  0  0  0  0
   -0.0005    0.7509    0.0000 C   0  0  0  0  0  0  0  0  0  0  0  0
    2.5985   -0.7507    0.0000 C   0  0  0  0  0  0  0  0  0  0  0  0
   -0.0001   -0.7499    0.0000 C   0  0  0  0  0  0  0  0  0  0  0  0
   -1.2991   -1.4999    0.0000 C   0  0  0  0  0  0  0  0  0  0  0  0
   -1.2991   -2.9999    0.0000 O   0  0  0  0  0  0  0  0  0  0  0  0
  5  1  1  0
  7  6  1  0
  9  2  1  0
  9  3  1  0
 10  4  1  0
 10  6  2  0
 11  7  1  0
 11  8  1  0
 11  9  1  0
 12  8  1  0
 12 10  1  0
 13  5  1  0
 13 12  1  0
 14 13  2  0
M  END
>  <NAME>  (2557) 
MENTHENYL KETONE

>  <SYNONYMS>  (2557) 
1-(PARA-MENTHEN-6-YL)-1-PROPANONE

>  <SPECTRUM TYPE>  (2557) 
MS1

>  <INSTRUMENT TYPE>  (2557) 
EI-B

>  <INSTRUMENT>  (2557) 
HITACHI M-80B

>  <ION MODE>  (2557) 
P

>  <INCHIKEY>  (2557) 
DZSVIVLGBJKQAP-UHFFFAOYSA-N

>  <FORMULA>  (2557) 
C13H22O

>  <EXACT MASS>  (2557) 
194.167065324

>  <MW>  (2557) 
194

>  <ID>  (2557) 
JP008401

>  <CONTRIBUTOR>  (2557) 
University of Tokyo Team, {Faculty of Engineering, University of Tokyo

>  <COMMENT>  (2557) 
SMILES=CCC(=O)C(C1)C(C)=C([H])CC(C(C)C)1
InChI=InChI=1S/C13H22O/c1-5-13(14)12-8-11(9(2)3)7-6-10(12)4/h6,9,11-12H,5,7-8H2,1-4H3
computed SMILES=O=C(CC)C1C(=CCC(C1)C(C)C)C
accession=JP008401
date=2016.01.19 (Created 2008.10.21, modified 2011.05.06)
author=SODA AROMATIC CO., LTD.
license=CC BY-NC-SA
exact mass=194.16707
ionization energy=70 eV
ion type=[M]+*
computed spectral entropy=2.9159405822276225
computed normalized entropy=0.8137087126666336
SPLASH=splash10-053u-9100000000-c44a159d52a6855d68f1
submitter=submitter = University of Tokyo Team (Faculty of Engineering, University of Tokyo)
MoNA Rating=3.75

>  <NUM PEAKS>  (2557) 
36

>  <MASS SPECTRAL PEAKS>  (2557) 
27 14.79
28 5.49
29 34.01
39 8.05
41 21.37
42 1.72
43 15.3
51 2.03
53 7.22
55 6.67
57 87.2
58 2.78
59 3.81
65 3.71
67 6.68
68 2.72
69 15.39
77 12.69
78 2.83
79 13.15
80 2.11
81 99.99
82 6.34
91 9.35
92 7.68
93 21.44
94 3.51
95 24.44
96 2.42
100 3.96
121 2.74
136 5.84
137 25.36
138 4.85
165 2.42
194 6.48

>  <PREDICTED SPECTRUM>  (2557) 
26 64
27 439
28 145
29 567
30 53
31 31
37 0
38 45
39 460
40 188
41 999
42 205
43 776
44 149
45 45
50 90
51 254
52 167
53 525
54 168
55 774
56 317
57 869
58 113
59 137
63 130
64 10
65 357
66 184
67 635
68 321
69 868
70 308
71 243
72 76
73 73
74 25
75 22
77 559
78 214
79 546
80 286
81 872
82 451
83 458
84 227
85 79
86 20
91 596
92 386
93 743
94 387
95 834
96 333
97 337
98 219
102 7
103 143
104 70
105 464
106 189
107 732
108 566
109 969
110 515
111 373
112 286
113 105
114 17
117 74
118 19
119 203
120 192
121 229
122 307
123 626
124 237
125 245
126 103
133 197
135 111
136 448
137 466
138 616
139 188
140 72
147 68
149 94
150 118
151 676
152 236
153 32
163 46
165 213
166 155
179 317
180 95
194 597
195 263
196 2

$$$$

     RDKit          2D

 10  9  0  0  0  0  0  0  0  0999 V2000
   -7.4695    3.9375    0.0000 C   0  0  0  0  0  0  0  0  0  0  0  0
    1.6238    3.1875    0.0000 C   0  0  0  0  0  0  0  0  0  0  0  0
    0.3248    5.4375    0.0000 C   0  0  0  0  0  0  0  0  0  0  0  0
   -4.8714    5.4375    0.0000 C   0  0  0  0  0  0  0  0  0  0  0  0
   -6.1704    3.1875    0.0000 C   0  0  0  0  0  0  0  0  0  0  0  0
   -2.2733    3.9375    0.0000 C   0  0  0  0  0  0  0  0  0  0  0  0
   -0.9743    3.1875    0.0000 C   0  0  0  0  0  0  0  0  0  0  0  0
   -3.5724    3.1875    0.0000 C   0  0  0  0  0  0  0  0  0  0  0  0
    0.3248    3.9375    0.0000 C   0  0  0  0  0  0  0  0  0  0  0  0
   -4.8714    3.9375    0.0000 C   0  0  0  0  0  0  0  0  0  0  0  0
  5  1  2  0
  7  6  1  0
  8  6  1  0
  9  2  1  0
  9  3  1  0
  9  7  2  0
 10  4  2  0
 10  5  1  0
 10  8  1  0
M  END
>  <NAME>  (2558) 
BETA-MYRCENE

>  <SYNONYMS>  (2558) 
7-METHYL-3-METHYLENE-1,6-OCTADIENE

>  <SPECTRUM TYPE>  (2558) 
MS1

>  <INSTRUMENT TYPE>  (2558) 
EI-B

>  <INSTRUMENT>  (2558) 
HITACHI M-80B

>  <ION MODE>  (2558) 
P

>  <INCHIKEY>  (2558) 
UAHWPYUMFXYFJY-UHFFFAOYSA-N

>  <FORMULA>  (2558) 
C10H16

>  <EXACT MASS>  (2558) 
136.125200512

>  <MW>  (2558) 
136

>  <ID>  (2558) 
JP008399

>  <CONTRIBUTOR>  (2558) 
University of Tokyo Team, {Faculty of Engineering, University of Tokyo

>  <COMMENT>  (2558) 
SMILES=C=CC(=C)CCC=C(C)C
InChI=InChI=1S/C10H16/c1-5-10(4)8-6-7-9(2)3/h5,7H,1,4,6,8H2,2-3H3
computed SMILES=C=CC(=C)CCC=C(C)C
accession=JP008399
date=2016.01.19 (Created 2008.10.21, modified 2011.05.06)
author=SODA AROMATIC CO., LTD.
license=CC BY-NC-SA
exact mass=136.1252
ionization energy=70 eV
ion type=[M]+*
computed spectral entropy=2.6457172572934495
computed normalized entropy=0.7383014580727473
SPLASH=splash10-0006-9000000000-078927c5db5ba8691e12
submitter=submitter = University of Tokyo Team (Faculty of Engineering, University of Tokyo)
MoNA Rating=3.75

>  <NUM PEAKS>  (2558) 
36

>  <MASS SPECTRAL PEAKS>  (2558) 
27 18.94
28 1.06
29 5.39
38 1.24
39 25.87
40 4.9
41 97.95
42 3.91
43 3.11
50 1.91
51 6.41
52 3.26
53 15.22
54 1.62
55 3.3
63 1.54
65 5.88
66 2.26
67 10.64
68 4.57
69 84.59
70 4.02
77 12.34
78 2.01
79 13.86
80 7.44
81 1.63
82 1.36
91 12.49
92 9.11
93 99.99
94 10.25
105 1.52
107 2.22
121 4.06
136 4.23

>  <PREDICTED SPECTRUM>  (2558) 
26 50
27 294
28 56
29 206
37 44
38 87
39 527
40 206
41 920
42 172
43 178
44 13
50 122
51 272
52 175
53 431
54 201
55 176
56 42
62 19
63 137
64 87
65 253
66 178
67 527
68 402
69 999
70 232
75 74
77 347
78 214
79 429
80 277
81 238
82 103
89 57
91 285
92 213
93 515
94 206
95 130
105 110
106 14
107 214
108 119
109 33
115 3
119 42
121 250
122 65
136 179
137 45

$$$$

     RDKit          2D

  8  7  0  0  0  0  0  0  0  0999 V2000
   -6.4952    4.5000    0.0000 C   0  0  0  0  0  0  0  0  0  0  0  0
   -5.1962    3.7500    0.0000 C   0  0  0  0  0  0  0  0  0  0  0  0
   -3.8971    4.5000    0.0000 C   0  0  0  0  0  0  0  0  0  0  0  0
   -2.5981    3.7500    0.0000 C   0  0  0  0  0  0  0  0  0  0  0  0
   -1.2990    4.5000    0.0000 C   0  0  0  0  0  0  0  0  0  0  0  0
    0.0000    3.7500    0.0000 C   0  0  0  0  0  0  0  0  0  0  0  0
    1.2990    4.5000    0.0000 C   0  0  0  0  0  0  0  0  0  0  0  0
    2.5981    3.7500    0.0000 O   0  0  0  0  0  0  0  0  0  0  0  0
  2  1  1  0
  3  2  1  0
  4  3  1  0
  4  5  2  0
  6  5  1  0
  7  6  1  0
  8  7  1  0
M  END
>  <NAME>  (2559) 
TRANS-3-HEPTENOL

>  <SYNONYMS>  (2559) 


>  <SPECTRUM TYPE>  (2559) 
MS1

>  <INSTRUMENT TYPE>  (2559) 
EI-B

>  <INSTRUMENT>  (2559) 
HITACHI M-80B

>  <ION MODE>  (2559) 
P

>  <INCHIKEY>  (2559) 
SDZQUCJFTUULJX-SNAWJCMRSA-N

>  <FORMULA>  (2559) 
C7H14O

>  <EXACT MASS>  (2559) 
114.104465068

>  <MW>  (2559) 
114

>  <ID>  (2559) 
JP008398

>  <CONTRIBUTOR>  (2559) 
University of Tokyo Team, {Faculty of Engineering, University of Tokyo

>  <COMMENT>  (2559) 
SMILES=CCCC=CCCO
InChI=InChI=1S/C7H14O/c1-2-3-4-5-6-7-8/h4-5,8H,2-3,6-7H2,1H3/b5-4+
computed SMILES=OCCC=CCCC
accession=JP008398
date=2016.01.19 (Created 2008.10.21, modified 2011.05.06)
author=SODA AROMATIC CO., LTD.
license=CC BY-NC-SA
exact mass=114.10447
ionization energy=70 eV
ion type=[M]+*
computed spectral entropy=3.0022007152920085
computed normalized entropy=0.7982028668895765
SPLASH=splash10-0a5c-9000000000-e504454fc172a1f0fd79
submitter=submitter = University of Tokyo Team (Faculty of Engineering, University of Tokyo)
MoNA Rating=3.75

>  <NUM PEAKS>  (2559) 
43

>  <MASS SPECTRAL PEAKS>  (2559) 
15 1.44
26 1.68
27 24.14
28 2.88
29 22.57
31 27.37
38 1.35
39 25.88
40 2.94
41 65.21
42 18.44
43 15.57
44 5.31
45 1.29
50 2.08
51 3.36
52 1.41
53 9.77
54 23.61
55 99.99
56 16.9
57 11.24
58 1.38
65 1.95
66 1.53
67 21.76
68 16.7
69 7.74
70 3.73
71 2.32
72 1.17
77 1.31
79 2.62
81 47.73
82 3.53
83 7.66
84 2.36
85 1.15
86 1.78
95 1.8
96 18.13
97 1.19
114 2.51

>  <PREDICTED SPECTRUM>  (2559) 
18 10
19 9
26 73
27 338
28 98
29 280
31 265
32 21
33 12
34 2
37 63
38 147
39 646
40 289
41 945
42 485
43 410
44 247
45 294
46 44
49 50
50 215
51 315
52 237
53 532
54 681
55 958
56 463
57 444
58 207
59 130
60 48
61 55
62 110
63 180
64 84
65 263
66 270
67 999
68 721
69 394
70 520
71 416
72 116
73 63
75 2
76 16
77 298
78 143
79 180
81 611
82 338
83 397
84 73
85 237
86 84
93 80
94 37
95 164
96 418
97 163
98 38
99 72
112 72
113 23
114 185
115 94

$$$$

     RDKit          2D

 16 15  0  0  0  0  0  0  0  0999 V2000
   -7.7942    4.5000    0.0000 C   0  0  0  0  0  0  0  0  0  0  0  0
   -6.4952    2.2500    0.0000 C   0  0  0  0  0  0  0  0  0  0  0  0
    1.2990    6.7500    0.0000 C   0  0  0  0  0  0  0  0  0  0  0  0
   -1.2990    6.7500    0.0000 C   0  0  0  0  0  0  0  0  0  0  0  0
   -3.8971    2.2500    0.0000 C   0  0  0  0  0  0  0  0  0  0  0  0
   -0.0000   -0.0000    0.0000 C   0  0  0  0  0  0  0  0  0  0  0  0
   -5.1962    4.5000    0.0000 C   0  0  0  0  0  0  0  0  0  0  0  0
    0.0000    4.5000    0.0000 C   0  0  0  0  0  0  0  0  0  0  0  0
   -2.5981    4.5000    0.0000 C   0  0  0  0  0  0  0  0  0  0  0  0
   -6.4952    3.7500    0.0000 C   0  0  0  0  0  0  0  0  0  0  0  0
    0.0000    6.0000    0.0000 C   0  0  0  0  0  0  0  0  0  0  0  0
   -3.8971    3.7500    0.0000 C   0  0  0  0  0  0  0  0  0  0  0  0
   -0.0000    1.5000    0.0000 C   0  0  0  0  0  0  0  0  0  0  0  0
   -1.2990    3.7500    0.0000 C   0  0  0  0  0  0  0  0  0  0  0  0
    1.2990    2.2500    0.0000 O   0  0  0  0  0  0  0  0  0  0  0  0
   -1.2990    2.2500    0.0000 O   0  0  0  0  0  0  0  0  0  0  0  0
 10  1  1  0
 10  2  1  0
 10  7  1  0
 11  3  1  0
 11  4  1  0
 11  8  1  0
 12  5  1  0
 12  7  1  0
 12  9  1  0
 13  6  1  0
 14  8  1  0
 14  9  1  0
 15 13  2  0
 16 13  1  0
 16 14  1  0
M  END
>  <NAME>  (2560) 
2,6,8-TRIMETHYL-4-NONYL ACETATE

>  <SYNONYMS>  (2560) 
1-ISOBUTYL-3,5-DIMETHYLHEXYL ACETATE

>  <SPECTRUM TYPE>  (2560) 
MS1

>  <INSTRUMENT TYPE>  (2560) 
EI-B

>  <INSTRUMENT>  (2560) 
HITACHI M-80B

>  <ION MODE>  (2560) 
P

>  <INCHIKEY>  (2560) 
HPFLRIHGHUFYEG-UHFFFAOYSA-N

>  <FORMULA>  (2560) 
C14H28O2

>  <EXACT MASS>  (2560) 
228.208930136

>  <MW>  (2560) 
228

>  <ID>  (2560) 
JP008397

>  <CONTRIBUTOR>  (2560) 
University of Tokyo Team, {Faculty of Engineering, University of Tokyo

>  <COMMENT>  (2560) 
SMILES=CC(C)CC(C)CC(CC(C)C)OC(C)=O
InChI=InChI=1S/C14H28O2/c1-10(2)7-12(5)9-14(8-11(3)4)16-13(6)15/h10-12,14H,7-9H2,1-6H3
computed SMILES=O=C(OC(CC(C)C)CC(C)CC(C)C)C
accession=JP008397
date=2016.01.19 (Created 2008.10.21, modified 2011.05.06)
author=SODA AROMATIC CO., LTD.
license=CC BY-NC-SA
exact mass=228.20893
ionization energy=70 eV
ion type=[M]+*
computed spectral entropy=2.671548092700424
computed normalized entropy=0.7779726404370706
SPLASH=splash10-0006-9100000000-f54225006a3f61edec88
submitter=submitter = University of Tokyo Team (Faculty of Engineering, University of Tokyo)
MoNA Rating=3.75

>  <NUM PEAKS>  (2560) 
31

>  <MASS SPECTRAL PEAKS>  (2560) 
27 5.34
29 5.95
39 3.35
41 18.78
42 2.85
43 99.99
44 2.98
53 1.22
55 12.63
56 9.68
57 15.43
58 3.61
59 1.43
61 1.41
67 1.85
68 1.41
69 30.27
70 7.32
71 3.82
82 1.47
83 19.57
84 11.91
85 5.23
86 1.46
97 4.17
98 1.5
110 2.79
111 20.54
112 9.9
129 6.34
168 2.61

>  <PREDICTED SPECTRUM>  (2560) 
15 24
26 7
27 138
28 57
29 149
30 28
31 8
38 1
39 142
40 66
41 454
42 172
43 999
44 190
45 72
53 102
54 80
55 304
56 215
57 299
58 140
59 43
61 75
66 13
67 132
68 97
69 376
70 201
71 155
72 200
81 116
82 46
83 148
84 222
85 277
86 166
87 104
96 12
97 171
98 53
99 18
100 83
101 101
109 51
110 95
111 197
112 141
113 42
114 17
115 34
125 41
126 132
127 31
128 13
129 111
141 6
142 24
168 29
169 16
170 34
171 96
172 15

$$$$

     RDKit          2D

 15 14  0  0  0  0  0  0  0  0999 V2000
    3.5724    6.5625    0.0000 C   0  0  0  0  0  0  0  0  0  0  0  0
    0.9743    5.0625    0.0000 C   0  0  0  0  0  0  0  0  0  0  0  0
   -4.2219    5.0625    0.0000 C   0  0  0  0  0  0  0  0  0  0  0  0
  -10.7171    7.3125    0.0000 C   0  0  0  0  0  0  0  0  0  0  0  0
    2.2733    7.3125    0.0000 C   0  0  0  0  0  0  0  0  0  0  0  0
   -1.6238    6.5625    0.0000 C   0  0  0  0  0  0  0  0  0  0  0  0
   -6.8200    6.5625    0.0000 C   0  0  0  0  0  0  0  0  0  0  0  0
   -0.3248    7.3125    0.0000 C   0  0  0  0  0  0  0  0  0  0  0  0
   -2.9228    7.3125    0.0000 C   0  0  0  0  0  0  0  0  0  0  0  0
   -5.5209    7.3125    0.0000 C   0  0  0  0  0  0  0  0  0  0  0  0
   -8.1190    7.3125    0.0000 C   0  0  0  0  0  0  0  0  0  0  0  0
    0.9743    6.5625    0.0000 C   0  0  0  0  0  0  0  0  0  0  0  0
   -4.2219    6.5625    0.0000 C   0  0  0  0  0  0  0  0  0  0  0  0
   -9.4180    6.5625    0.0000 C   0  0  0  0  0  0  0  0  0  0  0  0
   -9.4180    5.0625    0.0000 O   0  0  0  0  0  0  0  0  0  0  0  0
  5  1  1  0
  8  6  1  0
  9  6  1  0
 10  7  1  0
 11  7  1  0
 12  2  1  0
 12  5  1  0
  8 12  2  0
 13  3  1  0
 13  9  1  0
 10 13  2  0
 14  4  1  0
 14 11  1  0
 15 14  2  0
M  END
>  <NAME>  (2561) 
ETHYL GERANYL ACETONE

>  <SYNONYMS>  (2561) 
6,10-DIMETHYL-5,9-DODECADIEN-2-ONE

>  <SPECTRUM TYPE>  (2561) 
MS1

>  <INSTRUMENT TYPE>  (2561) 
EI-B

>  <INSTRUMENT>  (2561) 
HITACHI M-80B

>  <ION MODE>  (2561) 
P

>  <INCHIKEY>  (2561) 
HSRQHSFPIKREMB-SDCOAONHSA-N

>  <FORMULA>  (2561) 
C14H24O

>  <EXACT MASS>  (2561) 
208.182715388

>  <MW>  (2561) 
208

>  <ID>  (2561) 
JP008396

>  <CONTRIBUTOR>  (2561) 
University of Tokyo Team, {Faculty of Engineering, University of Tokyo

>  <COMMENT>  (2561) 
SMILES=CCC(C)=CCCC(C)=CCCC(C)=O
InChI=InChI=1S/C14H24O/c1-5-12(2)8-6-9-13(3)10-7-11-14(4)15/h8,10H,5-7,9,11H2,1-4H3/b12-8+,13-10+
computed SMILES=O=C(C)CCC=C(C)CCC=C(C)CC
accession=JP008396
date=2016.01.19 (Created 2008.10.21, modified 2011.05.06)
author=SODA AROMATIC CO., LTD.
license=CC BY-NC-SA
exact mass=208.18272
ionization energy=70 eV
ion type=[M]+*
computed spectral entropy=2.7567588065484308
computed normalized entropy=0.7375608569209364
SPLASH=splash10-0006-9100000000-82e272b37dbeca6a080e
submitter=submitter = University of Tokyo Team (Faculty of Engineering, University of Tokyo)
MoNA Rating=3.75

>  <NUM PEAKS>  (2561) 
42

>  <MASS SPECTRAL PEAKS>  (2561) 
15 1.72
27 5.39
29 5.62
39 9.02
41 26.56
42 2.04
43 99.99
44 2.11
53 5.66
54 1.36
55 53.31
56 2.63
58 2.14
65 1.81
67 11.83
68 2.81
69 2.18
71 2.05
77 2.17
79 2.71
81 4.95
82 6.41
83 31.71
84 2.37
91 1.77
93 4.93
94 1.14
95 2.87
107 7.92
108 2.44
109 1.58
111 1.1
121 2.38
123 2.59
125 10.17
126 1.13
135 1.42
138 1.14
150 5.57
151 9.83
152 1.1
208 1.5

>  <PREDICTED SPECTRUM>  (2561) 
27 90
28 10
29 100
31 8
39 163
40 72
41 542
42 159
43 999
44 61
45 33
49 26
50 32
51 101
52 60
53 241
54 126
55 552
56 101
57 244
58 116
59 97
63 3
65 98
66 103
67 354
68 258
69 291
70 160
71 222
73 27
74 1
76 7
77 163
78 56
79 175
80 129
81 407
82 230
83 420
84 191
85 112
91 94
92 32
93 237
94 110
95 364
96 144
97 245
98 148
99 43
100 46
104 8
105 88
106 2
107 238
108 161
109 208
110 108
111 175
112 98
113 28
115 25
119 134
120 60
121 205
122 157
123 257
124 81
125 208
126 139
127 22
133 80
134 40
135 202
136 111
137 128
138 106
139 61
140 35
147 35
148 17
149 74
150 262
151 211
152 87
153 12
161 45
163 33
164 35
165 71
166 50
175 6
177 38
179 41
180 10
181 37
189 3
190 89
191 55
192 15
193 101
194 8
207 11
208 102
209 70

$$$$

     RDKit          2D

 10  9  0  0  0  0  0  0  0  0999 V2000
   -6.4952    4.5000    0.0000 C   0  0  0  0  0  0  0  0  0  0  0  0
    2.5981    3.7500    0.0000 C   0  0  0  0  0  0  0  0  0  0  0  0
   -5.1962    3.7500    0.0000 C   0  0  0  0  0  0  0  0  0  0  0  0
    1.2990    4.5000    0.0000 C   0  0  0  0  0  0  0  0  0  0  0  0
   -2.5981    3.7500    0.0000 C   0  0  0  0  0  0  0  0  0  0  0  0
   -1.2990    4.5000    0.0000 C   0  0  0  0  0  0  0  0  0  0  0  0
   -2.5981    2.2500    0.0000 O   0  0  0  0  0  0  0  0  0  0  0  0
   -1.2990    6.0000    0.0000 O   0  0  0  0  0  0  0  0  0  0  0  0
   -3.8971    4.5000    0.0000 O   0  0  0  0  0  0  0  0  0  0  0  0
    0.0000    3.7500    0.0000 O   0  0  0  0  0  0  0  0  0  0  0  0
  3  1  1  0
  4  2  1  0
  6  5  1  0
  7  5  2  0
  8  6  2  0
  9  3  1  0
  9  5  1  0
 10  4  1  0
 10  6  1  0
M  END
>  <NAME>  (2562) 
DIETHYL OXALATE

>  <SYNONYMS>  (2562) 


>  <SPECTRUM TYPE>  (2562) 
MS1

>  <INSTRUMENT TYPE>  (2562) 
EI-B

>  <INSTRUMENT>  (2562) 
HITACHI M-80B

>  <ION MODE>  (2562) 
P

>  <INCHIKEY>  (2562) 
WYACBZDAHNBPPB-UHFFFAOYSA-N

>  <FORMULA>  (2562) 
C6H10O4

>  <EXACT MASS>  (2562) 
146.0579088

>  <MW>  (2562) 
146

>  <ID>  (2562) 
JP008395

>  <CONTRIBUTOR>  (2562) 
University of Tokyo Team, {Faculty of Engineering, University of Tokyo

>  <COMMENT>  (2562) 
SMILES=CCOC(=O)C(=O)OCC
cas=95-92-1
InChI=InChI=1S/C6H10O4/c1-3-9-5(7)6(8)10-4-2/h3-4H2,1-2H3
computed SMILES=O=C(OCC)C(=O)OCC
accession=JP008395
date=2016.01.19 (Created 2008.10.21, modified 2011.05.06)
author=SODA AROMATIC CO., LTD.
license=CC BY-NC-SA
exact mass=146.05791
ionization energy=70 eV
ion type=[M]+*
computed spectral entropy=1.7632575463476574
computed normalized entropy=0.6359607294814518
SPLASH=splash10-004i-9000000000-238f3b87595cb2cf3c68
submitter=submitter = University of Tokyo Team (Faculty of Engineering, University of Tokyo)
MoNA Rating=3.75

>  <NUM PEAKS>  (2562) 
16

>  <MASS SPECTRAL PEAKS>  (2562) 
15 1.35
26 2.23
27 19.84
28 9.31
29 99.99
30 4.87
31 13.08
43 5.02
45 13.45
46 1.07
56 1.22
57 1.77
59 1.1
73 2.09
74 10.45
75 1.74

>  <PREDICTED SPECTRUM>  (2562) 
14 53
15 107
16 38
17 13
19 5
25 32
26 193
27 567
28 452
29 999
30 267
31 262
32 48
41 132
42 39
43 209
44 341
45 422
46 228
47 113
55 33
56 164
62 15
72 413
73 299
74 298
90 128
91 56
100 49
101 269
102 119
118 188
119 116

$$$$

     RDKit          2D

 13 13  0  0  0  0  0  0  0  0999 V2000
   -3.9180    0.7457    0.0000 C   0  0  0  0  0  0  0  0  0  0  0  0
    6.4961    2.2415    0.0000 C   0  0  0  0  0  0  0  0  0  0  0  0
    1.2781    2.2201    0.0000 C   0  0  0  0  0  0  0  0  0  0  0  0
    2.5481   -0.0299    0.0000 C   0  0  0  0  0  0  0  0  0  0  0  0
    2.5481    2.9701    0.0000 C   0  0  0  0  0  0  0  0  0  0  0  0
    3.8981    0.7201    0.0000 C   0  0  0  0  0  0  0  0  0  0  0  0
   -0.0246   -0.0235    0.0000 C   0  0  0  0  0  0  0  0  0  0  0  0
   -2.6227   -0.0107    0.0000 C   0  0  0  0  0  0  0  0  0  0  0  0
    1.2781    0.7201    0.0000 C   0  0  0  0  0  0  0  0  0  0  0  0
    3.8981    2.2201    0.0000 C   0  0  0  0  0  0  0  0  0  0  0  0
   -2.6300   -1.5107    0.0000 O   0  0  0  0  0  0  0  0  0  0  0  0
    5.1909    2.9808    0.0000 O   0  0  0  0  0  0  0  0  0  0  0  0
   -1.3199    0.7329    0.0000 O   0  0  0  0  0  0  0  0  0  0  0  0
  5  3  2  0
  6  4  1  0
  8  1  1  0
  9  3  1  0
  9  4  2  0
  9  7  1  0
 10  5  1  0
 10  6  2  0
 11  8  2  0
 12  2  1  0
 12 10  1  0
 13  7  1  0
 13  8  1  0
M  END
>  <NAME>  (2563) 
ANISYL ACETATE

>  <SYNONYMS>  (2563) 
PARA-METHOXYBENZYL ACETATE

>  <SPECTRUM TYPE>  (2563) 
MS1

>  <INSTRUMENT TYPE>  (2563) 
EI-B

>  <INSTRUMENT>  (2563) 
HITACHI M-80B

>  <ION MODE>  (2563) 
P

>  <INCHIKEY>  (2563) 
HFNGYHHRRMSKEU-UHFFFAOYSA-N

>  <FORMULA>  (2563) 
C10H12O3

>  <EXACT MASS>  (2563) 
180.078644244

>  <MW>  (2563) 
180

>  <ID>  (2563) 
JP008394

>  <CONTRIBUTOR>  (2563) 
University of Tokyo Team, {Faculty of Engineering, University of Tokyo

>  <COMMENT>  (2563) 
SMILES=COc(c1)ccc(COC(C)=O)c1
InChI=InChI=1S/C10H12O3/c1-8(11)13-7-9-3-5-10(12-2)6-4-9/h3-6H,7H2,1-2H3
computed SMILES=O=C(OCC1=CC=C(OC)C=C1)C
accession=JP008394
date=2016.01.19 (Created 2008.10.21, modified 2011.05.06)
author=SODA AROMATIC CO., LTD.
license=CC BY-NC-SA
exact mass=180.07864
ionization energy=70 eV
ion type=[M]+*
computed spectral entropy=3.0037576506326187
computed normalized entropy=0.8036445051053442
SPLASH=splash10-00di-7900000000-30a71b31d69064484197
submitter=submitter = University of Tokyo Team (Faculty of Engineering, University of Tokyo)
MoNA Rating=3.75

>  <NUM PEAKS>  (2563) 
42

>  <MASS SPECTRAL PEAKS>  (2563) 
15 8.48
27 1.65
29 1.93
38 1.96
39 5.59
40 1.16
41 1.75
42 1.59
43 31.33
50 4.46
51 11.1
52 6.05
53 2.21
55 1.32
62 1.81
63 6.03
64 3.89
65 4.96
66 3
76 1.48
77 21.34
78 16.67
79 2.83
89 5.04
90 5.33
91 19.42
92 8.3
94 3.77
95 1.13
105 5.21
106 2.41
107 3.11
109 7.63
119 3.49
120 31.1
121 99.99
122 9.1
135 3.24
137 4.49
138 12.61
180 30.33
181 2.77

>  <PREDICTED SPECTRUM>  (2563) 
14 51
15 133
16 4
25 5
26 96
27 186
28 62
29 137
30 26
31 24
37 43
38 120
39 251
40 88
41 188
42 137
43 702
44 125
45 14
49 22
50 237
51 379
52 269
53 216
54 65
55 99
60 5
61 30
62 116
63 272
64 222
65 267
66 153
67 89
69 6
74 113
75 183
76 177
77 588
78 463
79 249
80 68
81 79
82 26
83 19
89 334
90 289
91 433
92 314
93 165
94 226
95 134
103 16
104 84
105 318
106 296
107 406
108 263
109 395
110 122
111 26
118 3
119 129
120 307
121 999
122 394
123 161
124 65
134 0
135 306
136 227
137 515
138 488
139 269
140 85
149 29
180 498
181 164
182 14

$$$$

     RDKit          2D

 18 18  0  0  0  0  0  0  0  0999 V2000
    4.8721    3.8829    0.0000 C   0  0  0  0  0  0  0  0  0  0  0  0
   -0.3240   -0.6171    0.0000 C   0  0  0  0  0  0  0  0  0  0  0  0
    3.5731    3.1329    0.0000 C   0  0  0  0  0  0  0  0  0  0  0  0
    2.2740    3.8829    0.0000 C   0  0  0  0  0  0  0  0  0  0  0  0
   -8.1183    5.3829    0.0000 C   0  0  0  0  0  0  0  0  0  0  0  0
    0.9750    3.1329    0.0000 C   0  0  0  0  0  0  0  0  0  0  0  0
   -8.1187    3.8821    0.0000 C   0  0  0  0  0  0  0  0  0  0  0  0
   -6.8187    6.1337    0.0000 C   0  0  0  0  0  0  0  0  0  0  0  0
   -6.8197    3.1321    0.0000 C   0  0  0  0  0  0  0  0  0  0  0  0
   -5.5197    5.3837    0.0000 C   0  0  0  0  0  0  0  0  0  0  0  0
   -0.3240    3.8829    0.0000 C   0  0  0  0  0  0  0  0  0  0  0  0
   -4.2212    3.1329    0.0000 C   0  0  0  0  0  0  0  0  0  0  0  0
   -2.9221    3.8829    0.0000 C   0  0  0  0  0  0  0  0  0  0  0  0
   -0.3240    0.8829    0.0000 C   0  0  0  0  0  0  0  0  0  0  0  0
   -5.5202    3.8829    0.0000 C   0  0  0  0  0  0  0  0  0  0  0  0
   -1.6231    3.1329    0.0000 C   0  0  0  0  0  0  0  0  0  0  0  0
    0.9750    1.6329    0.0000 O   0  0  0  0  0  0  0  0  0  0  0  0
   -1.6231    1.6329    0.0000 O   0  0  0  0  0  0  0  0  0  0  0  0
  3  1  1  0
  4  3  1  0
  6  4  1  0
  7  5  2  0
  8  5  1  0
  9  7  1  0
 10  8  2  0
 11  6  1  0
 12 13  2  0
 14  2  1  0
 15  9  2  0
 15 10  1  0
 15 12  1  0
 16 11  1  0
 16 13  1  0
 17 14  2  0
 18 14  1  0
 18 16  1  0
M  END
>  <NAME>  (2564) 
AMYL CINNAMYL ACETATE

>  <SYNONYMS>  (2564) 
ALPHA-PENTYLCINNAMYL ACETATE

>  <SPECTRUM TYPE>  (2564) 
MS1

>  <INSTRUMENT TYPE>  (2564) 
EI-B

>  <INSTRUMENT>  (2564) 
HITACHI M-80B

>  <ION MODE>  (2564) 
P

>  <INCHIKEY>  (2564) 
PHOQNPPEIYLGSI-OUKQBFOZSA-N

>  <FORMULA>  (2564) 
C16H22O2

>  <EXACT MASS>  (2564) 
246.161979944

>  <MW>  (2564) 
246

>  <ID>  (2564) 
JP008393

>  <CONTRIBUTOR>  (2564) 
University of Tokyo Team, {Faculty of Engineering, University of Tokyo

>  <COMMENT>  (2564) 
SMILES=CCCCCC(OC(C)=O)C=Cc(c1)cccc1
InChI=InChI=1S/C16H22O2/c1-3-4-6-11-16(18-14(2)17)13-12-15-9-7-5-8-10-15/h5,7-10,12-13,16H,3-4,6,11H2,1-2H3/b13-12+
computed SMILES=O=C(OC(C=CC=1C=CC=CC1)CCCCC)C
accession=JP008393
date=2016.01.19 (Created 2008.10.21, modified 2011.05.06)
author=SODA AROMATIC CO., LTD.
license=CC BY-NC-SA
exact mass=246.16198
ionization energy=70 eV
ion type=[M]+*
computed spectral entropy=3.3570127393586517
computed normalized entropy=0.7983967065456744
SPLASH=splash10-002f-4900000000-f71832a0ba547d114c5a
submitter=submitter = University of Tokyo Team (Faculty of Engineering, University of Tokyo)
MoNA Rating=3.75

>  <NUM PEAKS>  (2564) 
67

>  <MASS SPECTRAL PEAKS>  (2564) 
15 2.92
27 8.02
28 3.42
29 16.93
39 6.77
41 17.99
42 1.89
43 87.27
44 2.25
51 3.94
52 1.49
53 2.69
55 7.56
57 2.55
61 1.17
63 2.78
64 1.46
65 4.76
67 2.59
69 2.06
71 1.69
77 6.9
78 4.55
79 3.05
81 1.21
89 2.79
91 48.73
92 6.99
93 1.06
95 5.61
99 2.55
102 2.76
103 3.56
104 6.91
105 7.41
107 1.59
113 1.35
114 1.05
115 35.9
116 17.46
117 24.64
118 2.99
120 1.03
127 7.76
128 32.97
129 99.99
130 80.9
131 17.36
132 1.9
133 14.01
134 2.72
141 3.8
142 3.51
143 54.33
144 16.13
145 3.51
147 6.58
148 2.98
157 5.12
171 3.36
185 1.77
186 27.72
187 4.7
203 5.75
204 8.33
205 1.31
246 3.44

>  <PREDICTED SPECTRUM>  (2564) 
14 12
15 54
16 25
17 3
26 22
27 137
28 93
29 197
30 96
31 61
38 41
39 257
40 102
41 285
42 126
43 814
44 146
45 13
50 71
51 232
52 131
53 207
54 86
55 229
57 274
58 28
60 20
62 1
63 151
64 47
65 238
66 68
67 87
68 17
69 153
70 29
71 102
74 24
76 16
77 276
78 216
79 66
80 8
81 121
82 38
83 45
84 34
85 22
89 103
91 676
92 208
95 126
96 83
102 128
103 168
104 268
105 219
106 77
107 28
108 44
109 61
110 5
115 587
116 290
117 244
118 74
119 105
120 63
126 23
127 267
128 602
129 990
130 999
131 399
132 58
133 226
134 76
135 20
141 200
142 247
143 659
144 425
145 180
146 104
147 131
148 91
157 138
158 162
171 280
172 72
185 88
186 644
187 264
188 16
203 133
204 250
205 74
246 39

$$$$

     RDKit          2D

 11 12  0  0  0  0  0  0  0  0999 V2000
   -3.6089   -1.5002    0.0000 C   0  0  0  0  0  0  0  0  0  0  0  0
    2.1853    2.6360    0.0000 C   0  0  0  0  0  0  0  0  0  0  0  0
   -2.3100    0.7500    0.0000 C   0  0  0  0  0  0  0  0  0  0  0  0
   -1.0100    1.5000    0.0000 C   0  0  0  0  0  0  0  0  0  0  0  0
   -1.0100   -1.5000    0.0000 C   0  0  0  0  0  0  0  0  0  0  0  0
    2.6000    0.0000    0.0000 C   0  0  0  0  0  0  0  0  0  0  0  0
   -2.3100   -0.7500    0.0000 C   0  0  0  0  0  0  0  0  0  0  0  0
    1.7200    1.2100    0.0000 C   0  0  0  0  0  0  0  0  0  0  0  0
    0.2900    0.7500    0.0000 C   0  0  0  0  0  0  0  0  0  0  0  0
    0.2900   -0.7500    0.0000 C   0  0  0  0  0  0  0  0  0  0  0  0
    1.7200   -1.2100    0.0000 O   0  0  0  0  0  0  0  0  0  0  0  0
  4  3  1  0
  7  1  1  0
  7  3  1  0
  7  5  1  0
  8  2  1  0
  8  6  2  0
  9  4  1  0
  9  8  1  0
 10  5  1  0
 10  9  2  0
 11  6  1  0
 11 10  1  0
M  END
>  <NAME>  (2565) 
MENTHOFURAN

>  <SYNONYMS>  (2565) 
4,5,6,7-TETRAHYDRO-3,6-DIMETHYLBENZOFURAN

>  <SPECTRUM TYPE>  (2565) 
MS1

>  <INSTRUMENT TYPE>  (2565) 
EI-B

>  <INSTRUMENT>  (2565) 
HITACHI M-80B

>  <ION MODE>  (2565) 
P

>  <INCHIKEY>  (2565) 
YGWKXXYGDYYFJU-UHFFFAOYSA-N

>  <FORMULA>  (2565) 
C10H14O

>  <EXACT MASS>  (2565) 
150.104465068

>  <MW>  (2565) 
150

>  <ID>  (2565) 
JP008392

>  <CONTRIBUTOR>  (2565) 
University of Tokyo Team, {Faculty of Engineering, University of Tokyo

>  <COMMENT>  (2565) 
SMILES=CC(C2)Cc(o1)c(C2)c(C)c1
InChI=InChI=1S/C10H14O/c1-7-3-4-9-8(2)6-11-10(9)5-7/h6-7H,3-5H2,1-2H3
computed SMILES=O1C=C(C2=C1CC(C)CC2)C
accession=JP008392
date=2016.01.19 (Created 2008.10.21, modified 2011.05.06)
author=SODA AROMATIC CO., LTD.
license=CC BY-NC-SA
exact mass=150.10447
ionization energy=70 eV
ion type=[M]+*
computed spectral entropy=2.304535458034081
computed normalized entropy=0.6843875840998912
SPLASH=splash10-0a4i-4900000000-ad7d24da86fd955477a7
submitter=submitter = University of Tokyo Team (Faculty of Engineering, University of Tokyo)
MoNA Rating=3.75

>  <NUM PEAKS>  (2565) 
29

>  <MASS SPECTRAL PEAKS>  (2565) 
27 5.42
29 2.55
39 9.11
40 1.24
41 5.81
43 1.46
51 4.16
52 1.72
53 3.71
55 1.41
63 1.64
65 3.9
66 1.36
77 8.11
78 2.09
79 15.55
80 3
91 6
93 1.57
95 1.5
105 2.43
107 1.42
108 99.99
109 8.87
121 1.75
135 1.54
149 1.11
150 29.1
151 3.39

>  <PREDICTED SPECTRUM>  (2565) 
14 1
26 81
27 227
28 88
29 142
32 4
33 15
36 12
37 49
38 134
39 457
40 227
41 517
42 301
43 238
44 105
46 2
49 57
50 249
51 435
52 319
53 425
54 248
55 400
56 185
57 143
58 43
59 5
60 30
61 81
62 164
63 280
64 188
65 383
66 238
67 369
68 215
69 170
70 45
71 3
72 15
73 88
74 132
75 215
76 112
77 447
78 242
79 518
80 424
81 386
82 222
83 92
87 24
88 37
89 208
90 96
91 360
92 176
93 731
94 486
95 362
96 202
97 46
101 102
102 114
103 178
104 109
105 243
106 198
107 518
108 613
109 301
110 74
115 141
116 105
117 174
118 56
119 212
120 119
121 494
122 322
123 44
131 131
132 69
133 84
134 31
135 432
136 142
148 28
149 242
150 999
151 343
152 59

$$$$

     RDKit          2D

 15 14  0  0  0  0  0  0  0  0999 V2000
    3.0502    2.7856    0.0000 C   0  0  0  0  0  0  0  0  0  0  0  0
    8.9964    5.5846    0.0000 C   0  0  0  0  0  0  0  0  0  0  0  0
    7.4964    2.9865    0.0000 C   0  0  0  0  0  0  0  0  0  0  0  0
   -2.1459    4.2856    0.0000 C   0  0  0  0  0  0  0  0  0  0  0  0
   -0.8469    2.0356    0.0000 C   0  0  0  0  0  0  0  0  0  0  0  0
    5.6483    4.2856    0.0000 C   0  0  0  0  0  0  0  0  0  0  0  0
    4.3493    5.0356    0.0000 C   0  0  0  0  0  0  0  0  0  0  0  0
    6.9474    5.0356    0.0000 C   0  0  0  0  0  0  0  0  0  0  0  0
    1.7512    5.0356    0.0000 C   0  0  0  0  0  0  0  0  0  0  0  0
    3.0502    4.2856    0.0000 C   0  0  0  0  0  0  0  0  0  0  0  0
    0.4522    4.2856    0.0000 C   0  0  0  0  0  0  0  0  0  0  0  0
    8.2464    4.2856    0.0000 C   0  0  0  0  0  0  0  0  0  0  0  0
    9.5454    3.5356    0.0000 O   0  0  0  0  0  0  0  0  0  0  0  0
   -0.8469    5.0356    0.0000 O   0  0  0  0  0  0  0  0  0  0  0  0
    0.4522    2.7856    0.0000 O   0  0  0  0  0  0  0  0  0  0  0  0
  7  6  1  0
  8  6  1  0
 10  1  1  0
 10  7  1  0
 10  9  1  0
 11  9  1  0
 12  2  1  0
 12  3  1  0
 12  8  1  0
 13 12  1  0
 14  4  1  0
 14 11  1  0
 15  5  1  0
 15 11  1  0
M  END
>  <NAME>  (2566) 
HYDROXYCITRONELLAL DIMETHYL ACETAL

>  <SYNONYMS>  (2566) 
3,7-DIMETHYL-7-HYDROXYOCTANAL DIMETHYL ACETAL

>  <SPECTRUM TYPE>  (2566) 
MS1

>  <INSTRUMENT TYPE>  (2566) 
EI-B

>  <INSTRUMENT>  (2566) 
HITACHI M-80B

>  <ION MODE>  (2566) 
P

>  <INCHIKEY>  (2566) 
QCJVKUULZGKQDG-UHFFFAOYSA-N

>  <FORMULA>  (2566) 
C12H26O3

>  <EXACT MASS>  (2566) 
218.18819469199997

>  <MW>  (2566) 
218

>  <ID>  (2566) 
JP008391

>  <CONTRIBUTOR>  (2566) 
University of Tokyo Team, {Faculty of Engineering, University of Tokyo

>  <COMMENT>  (2566) 
SMILES=COC(OC)CC(C)CCCC(C)(C)O
InChI=InChI=1S/C12H26O3/c1-10(9-11(14-4)15-5)7-6-8-12(2,3)13/h10-11,13H,6-9H2,1-5H3
computed SMILES=OC(C)(C)CCCC(C)CC(OC)OC
accession=JP008391
date=2016.01.19 (Created 2008.10.21, modified 2011.05.06)
author=SODA AROMATIC CO., LTD.
license=CC BY-NC-SA
exact mass=218.18819
ionization energy=70 eV
ion type=[M]+*
computed spectral entropy=3.0324986957913698
computed normalized entropy=0.7833482909429637
SPLASH=splash10-004r-9000000000-87bc8d37143242ccee74
submitter=submitter = University of Tokyo Team (Faculty of Engineering, University of Tokyo)
MoNA Rating=3.75

>  <NUM PEAKS>  (2566) 
48

>  <MASS SPECTRAL PEAKS>  (2566) 
15 2.73
27 3.65
29 7.33
31 12.36
39 3.87
41 15.74
42 1.79
43 29.66
45 8.76
47 6.07
53 3.44
55 16.24
56 2.21
57 2.45
58 7.29
59 31.91
61 3.41
67 2.71
68 1.22
69 11.1
70 1.27
71 9.88
75 99.99
76 2.52
79 1.01
81 13.01
82 1.12
83 2
85 59.08
86 3.68
93 1.39
95 7.31
96 6.65
97 4.65
98 6.16
99 1.02
110 1.37
111 11.51
112 1.67
113 1.81
121 3.93
127 2.41
128 1.12
137 3.86
139 2.24
153 1.17
168 2.65
169 2.99

>  <PREDICTED SPECTRUM>  (2566) 
25 5
27 100
28 1
29 164
31 218
32 34
33 61
38 13
39 140
40 63
41 338
42 152
43 728
45 254
47 83
49 8
51 21
53 97
55 323
56 107
57 158
58 333
59 999
61 19
67 101
68 52
69 436
70 7
71 402
72 230
73 112
74 141
75 805
76 59
77 42
79 30
80 21
81 115
83 61
84 56
85 213
86 79
89 40
94 0
95 132
97 186
99 66
100 113
101 644
109 110
111 145
112 29
113 201
114 12
115 56
117 23
123 157
124 49
125 40
129 79
155 89
168 1
169 24
187 11

$$$$

     RDKit          2D

 12 11  0  0  0  0  0  0  0  0999 V2000
    1.7010    0.5490    0.0000 C   0  0  0  0  0  0  0  0  0  0  0  0
    7.6471    3.3481    0.0000 C   0  0  0  0  0  0  0  0  0  0  0  0
    6.1471    0.7500    0.0000 C   0  0  0  0  0  0  0  0  0  0  0  0
    4.2990    2.0490    0.0000 C   0  0  0  0  0  0  0  0  0  0  0  0
    3.0000    2.7990    0.0000 C   0  0  0  0  0  0  0  0  0  0  0  0
    0.4019    2.7990    0.0000 C   0  0  0  0  0  0  0  0  0  0  0  0
    5.5981    2.7990    0.0000 C   0  0  0  0  0  0  0  0  0  0  0  0
   -0.8971    2.0490    0.0000 C   0  0  0  0  0  0  0  0  0  0  0  0
    1.7010    2.0490    0.0000 C   0  0  0  0  0  0  0  0  0  0  0  0
    6.8971    2.0490    0.0000 C   0  0  0  0  0  0  0  0  0  0  0  0
   -2.1962    2.7990    0.0000 O   0  0  0  0  0  0  0  0  0  0  0  0
    8.1962    1.2990    0.0000 O   0  0  0  0  0  0  0  0  0  0  0  0
  5  4  1  0
  7  4  1  0
  8  6  1  0
  9  1  1  0
  9  5  1  0
  9  6  1  0
 10  2  1  0
 10  3  1  0
 10  7  1  0
 11  8  2  0
 12 10  1  0
M  END
>  <NAME>  (2567) 
HYDROXYCITRONELLAL

>  <SYNONYMS>  (2567) 
3,7-DIMETHYL-7-HYDROXYOCTANAL

>  <SPECTRUM TYPE>  (2567) 
MS1

>  <INSTRUMENT TYPE>  (2567) 
EI-B

>  <INSTRUMENT>  (2567) 
HITACHI M-80B

>  <ION MODE>  (2567) 
P

>  <INCHIKEY>  (2567) 
WPFVBOQKRVRMJB-UHFFFAOYSA-N

>  <FORMULA>  (2567) 
C10H20O2

>  <EXACT MASS>  (2567) 
172.14632988

>  <MW>  (2567) 
172

>  <ID>  (2567) 
JP008390

>  <CONTRIBUTOR>  (2567) 
University of Tokyo Team, {Faculty of Engineering, University of Tokyo

>  <COMMENT>  (2567) 
SMILES=O=CCC(C)CCCC(C)(C)O
InChI=InChI=1S/C10H20O2/c1-9(6-8-11)5-4-7-10(2,3)12/h8-9,12H,4-7H2,1-3H3
computed SMILES=O=CCC(C)CCCC(O)(C)C
accession=JP008390
date=2016.01.19 (Created 2008.10.21, modified 2011.05.06)
author=SODA AROMATIC CO., LTD.
license=CC BY-NC-SA
exact mass=172.14633
ionization energy=70 eV
ion type=[M]+*
computed spectral entropy=2.701640010138807
computed normalized entropy=0.7539069993872438
SPLASH=splash10-0a4l-9000000000-0b1976e02fea78c4c3f3
submitter=submitter = University of Tokyo Team (Faculty of Engineering, University of Tokyo)
MoNA Rating=3.75

>  <NUM PEAKS>  (2567) 
36

>  <MASS SPECTRAL PEAKS>  (2567) 
15 1.29
27 7.16
29 8.18
31 8.13
39 7.06
41 20.5
42 3.07
43 48.19
44 2.76
45 1.79
53 2.04
55 11.9
56 4.36
57 4.88
58 3.74
59 99.99
60 2.64
67 1.93
68 1.47
69 10.6
70 2.19
71 34.53
72 1.47
81 8.69
83 1.32
85 1.5
93 1.02
95 7.6
96 9.69
97 1.86
110 1.86
111 3.04
113 2.9
114 4.01
121 3.18
139 3.01

>  <PREDICTED SPECTRUM>  (2567) 
15 18
17 13
18 37
19 6
25 5
26 75
27 378
28 158
29 434
30 9
31 318
38 6
39 254
40 61
41 621
42 201
43 861
44 239
45 191
51 63
52 32
53 220
54 90
55 562
56 385
57 390
58 279
59 991
60 303
61 59
65 36
66 29
67 305
68 219
69 999
70 405
71 469
72 278
73 204
74 14
77 52
79 203
80 35
81 287
82 175
83 358
84 258
85 186
86 128
87 164
88 11
93 168
94 52
95 330
96 314
97 500
98 217
99 59
101 79
107 71
108 6
109 498
110 231
111 346
112 218
113 26
115 32
121 224
125 119
126 48
139 367
140 11
154 140
155 33
157 97

$$$$

     RDKit          2D

 13 13  0  0  0  0  0  0  0  0999 V2000
   -6.8197    3.1321    0.0000 C   0  0  0  0  0  0  0  0  0  0  0  0
   -5.5207    3.8821    0.0000 C   0  0  0  0  0  0  0  0  0  0  0  0
    3.5726    1.6321    0.0000 C   0  0  0  0  0  0  0  0  0  0  0  0
    3.5731    3.1329    0.0000 C   0  0  0  0  0  0  0  0  0  0  0  0
    2.2731    0.8813    0.0000 C   0  0  0  0  0  0  0  0  0  0  0  0
    2.2740    3.8829    0.0000 C   0  0  0  0  0  0  0  0  0  0  0  0
    0.9740    1.6313    0.0000 C   0  0  0  0  0  0  0  0  0  0  0  0
   -4.2216    3.1321    0.0000 C   0  0  0  0  0  0  0  0  0  0  0  0
   -0.3245    3.8821    0.0000 C   0  0  0  0  0  0  0  0  0  0  0  0
    0.9745    3.1321    0.0000 C   0  0  0  0  0  0  0  0  0  0  0  0
   -1.6236    3.1321    0.0000 C   0  0  0  0  0  0  0  0  0  0  0  0
   -1.6236    1.6321    0.0000 O   0  0  0  0  0  0  0  0  0  0  0  0
   -2.9226    3.8821    0.0000 O   0  0  0  0  0  0  0  0  0  0  0  0
  2  1  2  0
  4  3  1  0
  5  3  1  0
  6  4  1  0
  7  5  1  0
  8  2  1  0
 10  6  1  0
 10  7  1  0
 10  9  1  0
 11  9  1  0
 12 11  2  0
 13  8  1  0
 13 11  1  0
M  END
>  <NAME>  (2568) 
ALLYL CYCLOHEXYLACETATE

>  <SYNONYMS>  (2568) 


>  <SPECTRUM TYPE>  (2568) 
MS1

>  <INSTRUMENT TYPE>  (2568) 
EI-B

>  <INSTRUMENT>  (2568) 
HITACHI M-80B

>  <ION MODE>  (2568) 
P

>  <INCHIKEY>  (2568) 
UECFOOSFSUDPOR-UHFFFAOYSA-N

>  <FORMULA>  (2568) 
C11H18O2

>  <EXACT MASS>  (2568) 
182.130679816

>  <MW>  (2568) 
182

>  <ID>  (2568) 
JP008385

>  <CONTRIBUTOR>  (2568) 
University of Tokyo Team, {Faculty of Engineering, University of Tokyo

>  <COMMENT>  (2568) 
SMILES=C=CCOC(=O)CC(C1)CCCC1
InChI=InChI=1S/C11H18O2/c1-2-8-13-11(12)9-10-6-4-3-5-7-10/h2,10H,1,3-9H2
computed SMILES=O=C(OCC=C)CC1CCCCC1
accession=JP008385
date=2016.01.19 (Created 2008.10.21, modified 2011.05.06)
author=SODA AROMATIC CO., LTD.
license=CC BY-NC-SA
exact mass=182.13068
ionization energy=70 eV
ion type=[M]+*
computed spectral entropy=3.1128035639984017
computed normalized entropy=0.7998322958307155
SPLASH=splash10-0k96-9100000000-a884ffab5fd7582cb8c7
submitter=submitter = University of Tokyo Team (Faculty of Engineering, University of Tokyo)
MoNA Rating=3.75

>  <NUM PEAKS>  (2568) 
49

>  <MASS SPECTRAL PEAKS>  (2568) 
15 1.59
26 1.52
27 17.55
28 6.61
29 17.34
31 1.29
38 1.33
39 37.68
40 7.04
41 99.99
42 8.94
43 26.42
44 1.13
45 1.25
51 1.4
53 9.21
54 30.33
55 92.53
56 24.5
57 8.76
58 19.73
60 1.56
65 1.48
67 13.18
68 2.94
69 3.6
71 1.25
72 1.4
77 1.65
79 6.78
80 2.26
81 44.27
82 14.6
83 10.56
85 2.85
93 1.13
95 11.26
96 1.39
97 29.39
98 2.04
99 7.29
100 70.77
101 21.22
102 1.19
122 1.54
123 3.54
125 23.41
126 1.87
182 1.5

>  <PREDICTED SPECTRUM>  (2568) 
26 79
27 293
28 79
29 294
31 25
33 4
34 7
37 26
38 83
39 545
40 236
41 958
42 253
43 351
44 98
45 120
50 64
51 121
52 92
53 336
54 371
55 999
56 256
57 303
58 190
59 107
60 105
64 41
65 108
66 77
67 472
68 213
69 321
70 58
71 97
72 29
73 5
77 140
78 63
79 346
80 201
81 576
82 369
83 516
84 46
85 86
93 51
95 219
96 65
97 604
98 97
99 180
100 422
101 446
102 21
109 40
110 22
122 0
123 154
124 62
125 321
126 109
182 76

$$$$

     RDKit          2D

 14 15  0  0  0  0  0  0  0  0999 V2000
    6.1370    1.3606    0.0000 C   0  0  0  0  0  0  0  0  0  0  0  0
   -2.9500   -0.8900    0.0000 C   0  0  0  0  0  0  0  0  0  0  0  0
   -2.9500    0.6100    0.0000 C   0  0  0  0  0  0  0  0  0  0  0  0
   -1.6500   -1.6400    0.0000 C   0  0  0  0  0  0  0  0  0  0  0  0
   -1.6500    1.3600    0.0000 C   0  0  0  0  0  0  0  0  0  0  0  0
    0.9400   -1.6400    0.0000 C   0  0  0  0  0  0  0  0  0  0  0  0
    2.2400   -0.8900    0.0000 C   0  0  0  0  0  0  0  0  0  0  0  0
    0.9400    1.3600    0.0000 C   0  0  0  0  0  0  0  0  0  0  0  0
    4.8381    0.6104    0.0000 C   0  0  0  0  0  0  0  0  0  0  0  0
   -0.3500   -0.8900    0.0000 C   0  0  0  0  0  0  0  0  0  0  0  0
   -0.3500    0.6100    0.0000 C   0  0  0  0  0  0  0  0  0  0  0  0
    2.2400    0.6100    0.0000 C   0  0  0  0  0  0  0  0  0  0  0  0
    4.8383   -0.8896    0.0000 O   0  0  0  0  0  0  0  0  0  0  0  0
    3.5389    1.3602    0.0000 O   0  0  0  0  0  0  0  0  0  0  0  0
  3  2  2  0
  4  2  1  0
  5  3  1  0
  7  6  1  0
  9  1  1  0
 10  4  2  0
 10  6  1  0
 11  5  2  0
 11  8  1  0
 11 10  1  0
 12  7  1  0
 12  8  1  0
 13  9  2  0
 14  9  1  0
 14 12  1  0
M  END
>  <NAME>  (2569) 
TETRAHYDRO-BETA-NAPHTHYLACETATE

>  <SYNONYMS>  (2569) 
1,2,3,4-TETRAHYDR0-2-NAPHTHYL ACETATE

>  <SPECTRUM TYPE>  (2569) 
MS1

>  <INSTRUMENT TYPE>  (2569) 
EI-B

>  <INSTRUMENT>  (2569) 
HITACHI M-80B

>  <ION MODE>  (2569) 
P

>  <INCHIKEY>  (2569) 
DQIGNECJOYIPLE-UHFFFAOYSA-N

>  <FORMULA>  (2569) 
C12H14O2

>  <EXACT MASS>  (2569) 
190.099379688

>  <MW>  (2569) 
190

>  <ID>  (2569) 
JP008384

>  <CONTRIBUTOR>  (2569) 
University of Tokyo Team, {Faculty of Engineering, University of Tokyo

>  <COMMENT>  (2569) 
SMILES=CC(=O)OC(C1)Cc(c2)c(ccc2)C1
InChI=InChI=1S/C12H14O2/c1-9(13)14-12-7-6-10-4-2-3-5-11(10)8-12/h2-5,12H,6-8H2,1H3
computed SMILES=O=C(OC1CC=2C=CC=CC2CC1)C
accession=JP008384
date=2016.01.19 (Created 2008.10.21, modified 2011.05.06)
author=SODA AROMATIC CO., LTD.
license=CC BY-NC-SA
exact mass=190.09938
ionization energy=70 eV
ion type=[M]+*
computed spectral entropy=2.4770834457576805
computed normalized entropy=0.7213432369585858
SPLASH=splash10-001i-3900000000-c519f5043830bb7fc765
submitter=submitter = University of Tokyo Team (Faculty of Engineering, University of Tokyo)
MoNA Rating=3.75

>  <NUM PEAKS>  (2569) 
31

>  <MASS SPECTRAL PEAKS>  (2569) 
15 3.98
27 1.68
39 3.9
41 1.32
43 38.88
50 1.19
51 4.23
52 1.12
53 1.22
63 3.14
64 1.19
65 3.6
77 5.69
78 3.52
79 1.2
89 1.68
91 9.67
92 1
102 1.83
103 3.83
104 5
105 6.97
115 20.9
116 4.05
117 3.58
119 1.52
127 3
128 8.53
129 35.19
130 99.99
131 13.44

>  <PREDICTED SPECTRUM>  (2569) 
14 16
15 34
26 30
27 95
28 26
29 37
38 13
39 130
40 50
41 72
42 12
43 375
44 73
45 57
50 90
51 210
52 109
53 121
54 10
55 73
60 64
61 38
62 44
63 153
64 75
65 162
66 4
69 42
70 12
71 63
74 14
75 22
76 50
77 250
78 180
79 115
86 8
87 8
89 86
90 18
91 356
92 82
102 151
103 150
104 148
105 100
106 1
115 436
116 143
117 85
118 20
119 65
127 157
128 332
129 472
130 999
131 359
132 65
148 14

$$$$

     RDKit          2D

 11 11  0  0  0  0  0  0  0  0999 V2000
   -1.5281    2.0489    0.0000 C   0  0  0  0  0  0  0  0  0  0  0  0
    2.2053   -2.3062    0.0000 C   0  0  0  0  0  0  0  0  0  0  0  0
   -3.5974    0.3667    0.0000 C   0  0  0  0  0  0  0  0  0  0  0  0
   -3.7631   -1.1262    0.0000 C   0  0  0  0  0  0  0  0  0  0  0  0
   -2.1376    0.6783    0.0000 C   0  0  0  0  0  0  0  0  0  0  0  0
    0.7136   -2.1487    0.0000 C   0  0  0  0  0  0  0  0  0  0  0  0
   -2.3874   -1.7291    0.0000 C   0  0  0  0  0  0  0  0  0  0  0  0
   -1.3876   -0.6207    0.0000 C   0  0  0  0  0  0  0  0  0  0  0  0
   -0.1686   -3.3619    0.0000 O   0  0  0  0  0  0  0  0  0  0  0  0
   -2.0719   -3.1955    0.0000 O   0  0  0  0  0  0  0  0  0  0  0  0
    0.1041   -0.7781    0.0000 O   0  0  0  0  0  0  0  0  0  0  0  0
  4  3  1  0
  5  1  1  0
  5  3  1  0
  6  2  1  0
  7  4  1  0
  8  5  2  0
  8  7  1  0
  9  6  2  0
 10  7  2  0
 11  6  1  0
 11  8  1  0
M  END
>  <NAME>  (2570) 
2-ACETOXY-3-METHYL-2-CYCLOPENTEN-1-ONE

>  <SYNONYMS>  (2570) 
2-ACETOXY-3-METHYL-2-CYCLOPENTENONE

>  <SPECTRUM TYPE>  (2570) 
MS1

>  <INSTRUMENT TYPE>  (2570) 
EI-B

>  <INSTRUMENT>  (2570) 
HITACHI M-80B

>  <ION MODE>  (2570) 
P

>  <INCHIKEY>  (2570) 
NNYIMCWMHNKLNZ-UHFFFAOYSA-N

>  <FORMULA>  (2570) 
C8H10O3

>  <EXACT MASS>  (2570) 
154.06299417999998

>  <MW>  (2570) 
154

>  <ID>  (2570) 
JP008383

>  <CONTRIBUTOR>  (2570) 
University of Tokyo Team, {Faculty of Engineering, University of Tokyo

>  <COMMENT>  (2570) 
SMILES=CC(=O)OC(=C(C)1)C(=O)CC1
InChI=InChI=1S/C8H10O3/c1-5-3-4-7(10)8(5)11-6(2)9/h3-4H2,1-2H3
computed SMILES=O=C(OC=1C(=O)CCC1C)C
accession=JP008383
date=2016.01.19 (Created 2008.10.21, modified 2011.05.06)
author=SODA AROMATIC CO., LTD.
license=CC BY-NC-SA
exact mass=154.06299
ionization energy=70 eV
ion type=[M]+*
computed spectral entropy=2.6972805351598517
computed normalized entropy=0.771421336217153
SPLASH=splash10-0006-9100000000-93f6f1abe56abdc0d1cc
submitter=submitter = University of Tokyo Team (Faculty of Engineering, University of Tokyo)
MoNA Rating=3.75

>  <NUM PEAKS>  (2570) 
33

>  <MASS SPECTRAL PEAKS>  (2570) 
14 1.62
15 10.02
26 2.46
27 16.34
28 4.14
29 5.1
38 1.96
39 15.41
40 2.58
41 21.2
42 6.35
43 99.99
44 2.56
50 1.47
51 2.33
52 1.84
53 4.3
54 3.15
55 11.09
56 12.77
66 2.19
67 1.25
69 18.97
70 3.37
83 5.53
84 39.78
85 1.88
97 3.07
111 1.46
112 41.36
113 2.62
154 11.85
155 1.19

>  <PREDICTED SPECTRUM>  (2570) 
14 36
15 98
25 8
26 70
27 179
28 122
29 98
37 13
38 68
39 270
40 168
41 427
42 328
43 999
44 143
45 53
50 21
51 128
52 130
53 246
54 170
55 325
56 278
57 113
58 2
65 24
66 81
67 173
68 127
69 370
70 279
71 154
72 22
79 19
82 65
83 229
84 428
85 63
97 124
111 1
112 814
113 242
154 294
155 83

$$$$

     RDKit          2D

 12 12  0  0  0  0  0  0  0  0999 V2000
    0.2499    1.0433    0.0000 C   0  0  0  0  0  0  0  0  0  0  0  0
   -5.3636   -0.9202    0.0000 C   0  0  0  0  0  0  0  0  0  0  0  0
   -1.0492    0.2933    0.0000 C   0  0  0  0  0  0  0  0  0  0  0  0
   -8.6591    0.0396    0.0000 C   0  0  0  0  0  0  0  0  0  0  0  0
   -8.3472    1.5068    0.0000 C   0  0  0  0  0  0  0  0  0  0  0  0
   -4.9463    1.0433    0.0000 C   0  0  0  0  0  0  0  0  0  0  0  0
   -3.6472    0.2933    0.0000 C   0  0  0  0  0  0  0  0  0  0  0  0
   -6.2453    0.2933    0.0000 C   0  0  0  0  0  0  0  0  0  0  0  0
   -3.6472   -1.2067    0.0000 O   0  0  0  0  0  0  0  0  0  0  0  0
   -2.3482    1.0433    0.0000 O   0  0  0  0  0  0  0  0  0  0  0  0
   -7.3600   -0.7104    0.0000 O   0  0  0  0  0  0  0  0  0  0  0  0
   -6.8554    1.6636    0.0000 O   0  0  0  0  0  0  0  0  0  0  0  0
  3  1  1  0
  5  4  1  0
  7  6  1  0
  8  2  1  0
  8  6  1  0
  9  7  2  0
 10  3  1  0
 10  7  1  0
 11  4  1  0
 11  8  1  0
 12  5  1  0
 12  8  1  0
M  END
>  <NAME>  (2571) 
ETHYL 2-METHYL-1,3-DIOXOLANE-2-ACETATE

>  <SYNONYMS>  (2571) 


>  <SPECTRUM TYPE>  (2571) 
MS1

>  <INSTRUMENT TYPE>  (2571) 
EI-B

>  <INSTRUMENT>  (2571) 
HITACHI M-80B

>  <ION MODE>  (2571) 
P

>  <INCHIKEY>  (2571) 
XWEOGMYZFCHQNT-UHFFFAOYSA-N

>  <FORMULA>  (2571) 
C8H14O4

>  <EXACT MASS>  (2571) 
174.089208928

>  <MW>  (2571) 
174

>  <ID>  (2571) 
JP008382

>  <CONTRIBUTOR>  (2571) 
University of Tokyo Team, {Faculty of Engineering, University of Tokyo

>  <COMMENT>  (2571) 
SMILES=CCOC(=O)CC(C)(O1)OCC1
InChI=InChI=1S/C8H14O4/c1-3-10-7(9)6-8(2)11-4-5-12-8/h3-6H2,1-2H3
computed SMILES=O=C(OCC)CC1(OCCO1)C
accession=JP008382
date=2016.01.19 (Created 2008.10.21, modified 2011.05.06)
author=SODA AROMATIC CO., LTD.
license=CC BY-NC-SA
exact mass=174.08921
ionization energy=70 eV
ion type=[M]+*
computed spectral entropy=2.174362177486683
computed normalized entropy=0.6673719308535561
SPLASH=splash10-000l-9000000000-3aae2deb708e333932ac
submitter=submitter = University of Tokyo Team (Faculty of Engineering, University of Tokyo)
MoNA Rating=3.75

>  <NUM PEAKS>  (2571) 
26

>  <MASS SPECTRAL PEAKS>  (2571) 
15 3.54
27 7.35
28 2.26
29 16.25
31 2.26
39 5.02
40 1.56
41 6.64
42 8.68
43 62.01
44 2.11
45 4.24
58 1.3
59 3.67
69 1.57
71 1
72 1.59
85 2.47
86 2.7
87 99.99
88 4.35
89 5.73
99 1
117 2.49
131 1.12
159 11.21

>  <PREDICTED SPECTRUM>  (2571) 
14 15
15 29
18 4
19 1
25 5
26 58
27 156
28 77
29 192
30 38
31 96
32 4
33 3
37 11
38 31
39 177
40 86
41 227
42 214
43 631
44 112
45 178
46 29
50 3
51 27
52 27
53 77
54 36
55 113
56 54
57 77
58 81
59 93
60 27
61 119
62 0
69 96
70 81
71 112
72 78
73 21
74 9
83 1
85 20
86 32
87 999
88 311
89 58
99 88
100 38
101 36
102 7
113 16
115 101
117 40
118 13
129 105
131 69
132 13
159 419
160 140

$$$$

     RDKit          2D

 12 11  0  0  0  0  0  0  0  0999 V2000
    2.5535    4.5772    0.0000 C   0  0  0  0  0  0  0  0  0  0  0  0
   -7.8388    4.5772    0.0000 C   0  0  0  0  0  0  0  0  0  0  0  0
   -0.0445    3.0772    0.0000 C   0  0  0  0  0  0  0  0  0  0  0  0
   -6.2049    3.4281    0.0000 C   0  0  0  0  0  0  0  0  0  0  0  0
    1.2545    5.3272    0.0000 C   0  0  0  0  0  0  0  0  0  0  0  0
   -6.5397    5.3272    0.0000 C   0  0  0  0  0  0  0  0  0  0  0  0
   -2.6426    4.5772    0.0000 C   0  0  0  0  0  0  0  0  0  0  0  0
   -1.3436    5.3272    0.0000 C   0  0  0  0  0  0  0  0  0  0  0  0
   -3.9417    5.3272    0.0000 C   0  0  0  0  0  0  0  0  0  0  0  0
   -0.0445    4.5772    0.0000 C   0  0  0  0  0  0  0  0  0  0  0  0
   -5.2407    4.5772    0.0000 C   0  0  0  0  0  0  0  0  0  0  0  0
   -4.2765    3.4281    0.0000 O   0  0  0  0  0  0  0  0  0  0  0  0
  5  1  1  0
  6  2  2  0
  8  7  1  0
  9  7  1  0
 10  3  1  0
 10  5  1  0
  8 10  2  0
 11  4  1  0
 11  6  1  0
 11  9  1  0
 12 11  1  0
M  END
>  <NAME>  (2572) 
ETHYLLINALOOL

>  <SYNONYMS>  (2572) 
3,7-DIMETHYL-1,6-NONADIEN-3-OL

>  <SPECTRUM TYPE>  (2572) 
MS1

>  <INSTRUMENT TYPE>  (2572) 
EI-B

>  <INSTRUMENT>  (2572) 
HITACHI M-80B

>  <ION MODE>  (2572) 
P

>  <INCHIKEY>  (2572) 
KRLBLPBPZSSIGH-CSKARUKUSA-N

>  <FORMULA>  (2572) 
C11H20O

>  <EXACT MASS>  (2572) 
168.15141526

>  <MW>  (2572) 
168

>  <ID>  (2572) 
JP008381

>  <CONTRIBUTOR>  (2572) 
University of Tokyo Team, {Faculty of Engineering, University of Tokyo

>  <COMMENT>  (2572) 
SMILES=CCC(C)=CCCC(C)(O)C=C
InChI=InChI=1S/C11H20O/c1-5-10(3)8-7-9-11(4,12)6-2/h6,8,12H,2,5,7,9H2,1,3-4H3/b10-8+
computed SMILES=OC(C=C)(C)CCC=C(C)CC
accession=JP008381
date=2016.01.19 (Created 2008.10.21, modified 2011.05.06)
author=SODA AROMATIC CO., LTD.
license=CC BY-NC-SA
exact mass=168.15142
ionization energy=70 eV
ion type=[M]+*
computed spectral entropy=3.398148386801532
computed normalized entropy=0.8201877590790182
SPLASH=splash10-0596-9000000000-4cf6660fcb0821b14189
submitter=submitter = University of Tokyo Team (Faculty of Engineering, University of Tokyo)
MoNA Rating=3.75

>  <NUM PEAKS>  (2572) 
63

>  <MASS SPECTRAL PEAKS>  (2572) 
15 2.08
18 1.9
26 1.36
27 24.72
28 4.1
29 19.68
31 2.25
39 22.65
40 3.93
41 54.61
42 5.52
43 65.06
44 1.9
45 3.27
50 1
51 3.11
52 1.74
53 16.43
54 3.74
55 99.99
56 5.22
57 8.65
58 2.08
65 3.52
66 1.57
67 20.91
68 10.98
69 16.26
70 9.52
71 85.87
72 11.26
73 16.65
77 3.98
79 12.52
80 28.1
81 19.11
82 12.18
83 17.53
84 2.55
85 3.49
86 1.29
91 3.74
92 10.47
93 62.71
94 15.79
95 8.07
96 4.64
97 10.79
98 1.99
99 1.03
105 2.09
107 5.11
108 1.78
109 1.1
110 1.61
111 3.5
121 24.36
122 2.6
123 2.49
135 4.75
150 5.89
151 1.15
153 1.04

>  <PREDICTED SPECTRUM>  (2572) 
25 8
26 58
27 272
28 58
29 256
31 118
37 0
38 34
39 323
40 151
41 747
42 188
43 999
44 120
45 113
50 32
51 141
52 120
53 402
54 233
55 662
56 207
57 290
58 160
59 347
60 26
61 32
63 49
64 24
65 199
66 199
67 554
68 410
69 430
70 133
71 854
72 277
73 82
77 238
78 101
79 416
80 294
81 544
82 312
83 293
84 163
85 173
86 92
87 27
88 12
91 223
92 256
93 637
94 368
95 358
96 199
97 263
98 131
99 38
100 9
105 89
106 3
107 187
108 92
109 187
110 245
111 222
112 9
113 21
117 48
119 63
121 305
122 205
123 112
125 84
126 39
134 41
135 159
136 52
139 72
140 82
141 119
150 194
151 93
153 51

$$$$

     RDKit          2D

 11 10  0  0  0  0  0  0  0  0999 V2000
   -7.4695    3.9375    0.0000 C   0  0  0  0  0  0  0  0  0  0  0  0
    1.6238    3.1875    0.0000 C   0  0  0  0  0  0  0  0  0  0  0  0
    0.3248    5.4375    0.0000 C   0  0  0  0  0  0  0  0  0  0  0  0
   -3.9072    5.0866    0.0000 C   0  0  0  0  0  0  0  0  0  0  0  0
   -6.1704    3.1875    0.0000 C   0  0  0  0  0  0  0  0  0  0  0  0
   -2.2733    3.9375    0.0000 C   0  0  0  0  0  0  0  0  0  0  0  0
   -0.9743    3.1875    0.0000 C   0  0  0  0  0  0  0  0  0  0  0  0
   -3.5724    3.1875    0.0000 C   0  0  0  0  0  0  0  0  0  0  0  0
    0.3248    3.9375    0.0000 C   0  0  0  0  0  0  0  0  0  0  0  0
   -4.8714    3.9375    0.0000 C   0  0  0  0  0  0  0  0  0  0  0  0
   -5.8356    5.0866    0.0000 O   0  0  0  0  0  0  0  0  0  0  0  0
  5  1  1  0
  7  6  1  0
  8  6  1  0
  9  2  1  0
  9  3  1  0
  9  7  2  0
 10  4  1  0
 10  5  1  0
 10  8  1  0
 11 10  1  0
M  END
>  <NAME>  (2573) 
DIHYDROLINALOOL

>  <SYNONYMS>  (2573) 
3,7-DIMETHYL-6-OCTEN-3-OL

>  <SPECTRUM TYPE>  (2573) 
MS1

>  <INSTRUMENT TYPE>  (2573) 
EI-B

>  <INSTRUMENT>  (2573) 
HITACHI M-80B

>  <ION MODE>  (2573) 
P

>  <INCHIKEY>  (2573) 
JRTBBCBDKSRRCY-UHFFFAOYSA-N

>  <FORMULA>  (2573) 
C10H20O

>  <EXACT MASS>  (2573) 
156.15141526

>  <MW>  (2573) 
156

>  <ID>  (2573) 
JP008380

>  <CONTRIBUTOR>  (2573) 
University of Tokyo Team, {Faculty of Engineering, University of Tokyo

>  <COMMENT>  (2573) 
SMILES=CC(C)=CCCC(C)(O)CC
InChI=InChI=1S/C10H20O/c1-5-10(4,11)8-6-7-9(2)3/h7,11H,5-6,8H2,1-4H3
computed SMILES=OC(C)(CC)CCC=C(C)C
accession=JP008380
date=2016.01.19 (Created 2008.10.21, modified 2011.05.06)
author=SODA AROMATIC CO., LTD.
license=CC BY-NC-SA
exact mass=156.15142
ionization energy=70 eV
ion type=[M]+*
computed spectral entropy=3.02292734986832
computed normalized entropy=0.7941148862006708
SPLASH=splash10-0avl-9300000000-07acd791d38958cbb52d
submitter=submitter = University of Tokyo Team (Faculty of Engineering, University of Tokyo)
MoNA Rating=3.75

>  <NUM PEAKS>  (2573) 
45

>  <MASS SPECTRAL PEAKS>  (2573) 
15 1.26
27 14.92
28 1.58
29 15.07
31 4.35
39 14.54
40 3.38
41 51.03
42 4.01
43 46.55
44 1.28
45 7.83
51 1.67
53 8.83
54 1.43
55 30.06
56 6.54
57 13.63
58 5.14
59 1.28
65 1.4
67 16.83
68 7.78
69 68.41
70 6.09
71 8.71
72 1.88
73 66.25
74 3.17
77 1.17
79 1.12
81 8.83
82 9.88
83 3.44
84 1.9
85 1.56
95 3.91
96 1.03
109 99.99
110 8.76
123 12.85
124 1.08
127 2.65
138 30.19
139 3.52

>  <PREDICTED SPECTRUM>  (2573) 
26 34
27 358
28 147
29 355
31 228
38 32
39 341
40 129
41 957
42 251
43 955
44 172
45 335
50 92
51 170
52 146
53 435
54 248
55 842
56 482
57 389
58 179
59 372
60 9
63 27
65 155
66 99
67 674
68 393
69 999
70 506
71 387
72 141
73 434
74 192
77 142
78 8
79 155
80 162
81 593
82 544
83 697
84 249
85 204
86 45
91 170
92 60
93 170
94 124
95 495
96 292
97 194
98 325
99 83
107 33
109 520
110 224
111 108
112 136
113 76
123 530
124 111
129 10
138 585
139 323
140 98
141 78

$$$$

     RDKit          2D

 11 10  0  0  0  0  0  0  0  0999 V2000
   -6.8200    5.0625    0.0000 C   0  0  0  0  0  0  0  0  0  0  0  0
   -5.5209    2.8125    0.0000 C   0  0  0  0  0  0  0  0  0  0  0  0
   -0.3248    2.8125    0.0000 C   0  0  0  0  0  0  0  0  0  0  0  0
   -2.9228    4.3125    0.0000 C   0  0  0  0  0  0  0  0  0  0  0  0
   -4.2219    5.0625    0.0000 C   0  0  0  0  0  0  0  0  0  0  0  0
   -1.6238    5.0625    0.0000 C   0  0  0  0  0  0  0  0  0  0  0  0
    0.9743    5.0625    0.0000 C   0  0  0  0  0  0  0  0  0  0  0  0
    2.2733    4.3125    0.0000 C   0  0  0  0  0  0  0  0  0  0  0  0
   -5.5209    4.3125    0.0000 C   0  0  0  0  0  0  0  0  0  0  0  0
   -0.3248    4.3125    0.0000 C   0  0  0  0  0  0  0  0  0  0  0  0
    3.5724    5.0625    0.0000 O   0  0  0  0  0  0  0  0  0  0  0  0
  5  4  1  0
  6  4  1  0
  8  7  1  0
  9  1  1  0
  9  2  1  0
  9  5  2  0
 10  3  1  0
 10  6  1  0
 10  7  1  0
 11  8  1  0
M  END
>  <NAME>  (2574) 
CITRONELLOL

>  <SYNONYMS>  (2574) 
3,7-DIMETHYL-6-OCTEN-1-OL

>  <SPECTRUM TYPE>  (2574) 
MS1

>  <INSTRUMENT TYPE>  (2574) 
EI-B

>  <INSTRUMENT>  (2574) 
HITACHI M-80B

>  <ION MODE>  (2574) 
P

>  <INCHIKEY>  (2574) 
QMVPMAAFGQKVCJ-UHFFFAOYSA-N

>  <FORMULA>  (2574) 
C10H20O

>  <EXACT MASS>  (2574) 
156.15141526

>  <MW>  (2574) 
156

>  <ID>  (2574) 
JP008379

>  <CONTRIBUTOR>  (2574) 
University of Tokyo Team, {Faculty of Engineering, University of Tokyo

>  <COMMENT>  (2574) 
SMILES=OCCC(C)CCC=C(C)C
InChI=InChI=1S/C10H20O/c1-9(2)5-4-6-10(3)7-8-11/h5,10-11H,4,6-8H2,1-3H3
computed SMILES=OCCC(C)CCC=C(C)C
accession=JP008379
date=2016.01.19 (Created 2008.10.21, modified 2011.05.06)
author=SODA AROMATIC CO., LTD.
license=CC BY-NC-SA
exact mass=156.15142
ionization energy=70 eV
ion type=[M]+*
computed spectral entropy=3.1947141414158358
computed normalized entropy=0.8297640693039641
SPLASH=splash10-015c-9000000000-9db6e91c321664a95314
submitter=submitter = University of Tokyo Team (Faculty of Engineering, University of Tokyo)
MoNA Rating=3.75

>  <NUM PEAKS>  (2574) 
47

>  <MASS SPECTRAL PEAKS>  (2574) 
15 1.13
27 18.18
28 2.64
29 15.36
31 28.35
39 24.3
40 4.33
41 99.99
42 10.51
43 19.97
44 2.26
45 3.51
51 2.47
52 1.5
53 14.96
54 3.92
55 50.96
56 27.57
57 10.98
65 2.17
66 1.45
67 41.5
68 25.08
69 90.71
70 15.19
71 24.93
72 1.39
77 1.99
79 2.53
80 2.37
81 39.24
82 47.15
83 12.45
84 1.94
85 1.83
86 1.99
91 1
94 1.33
95 33.76
96 8.39
109 13.48
110 4.46
111 1.09
123 19.11
124 1.82
138 6.65
156 7.72

>  <PREDICTED SPECTRUM>  (2574) 
15 28
17 14
18 46
19 21
26 47
27 315
28 135
29 400
30 102
31 216
32 30
33 1
37 35
38 72
39 425
40 168
41 999
42 371
43 469
44 179
45 222
47 26
50 67
51 144
52 82
53 336
54 242
55 707
56 430
57 341
58 127
59 91
60 26
61 4
62 3
63 15
65 142
66 117
67 615
68 489
69 963
70 343
71 345
72 152
73 94
74 23
77 200
78 94
79 164
80 126
81 640
82 684
83 384
84 156
85 150
86 64
87 35
91 123
92 37
93 111
94 134
95 630
96 415
97 123
98 67
99 48
100 33
101 8
107 29
109 487
110 209
111 95
112 114
113 118
114 9
123 352
124 81
125 35
128 5
138 258
139 76
141 11
156 167
157 82

$$$$

     RDKit          2D

 11 11  0  0  1  0  0  0  0  0999 V2000
   -2.5989   -1.5002    0.0000 C   0  0  0  0  0  0  0  0  0  0  0  0
    3.3491    0.2013    0.0000 C   0  0  0  0  0  0  0  0  0  0  0  0
    3.8978    2.2504    0.0000 C   0  0  0  0  0  0  0  0  0  0  0  0
   -1.3000    0.7500    0.0000 C   0  0  0  0  0  0  0  0  0  0  0  0
   -0.0000   -1.5000    0.0000 C   0  0  0  0  0  0  0  0  0  0  0  0
    0.0000    1.5000    0.0000 C   0  0  0  0  0  0  0  0  0  0  0  0
    1.3000   -0.7500    0.0000 C   0  0  0  0  0  0  0  0  0  0  0  0
   -1.3000   -0.7500    0.0000 C   0  0  0  0  0  0  0  0  0  0  0  0
    1.3000    0.7500    0.0000 C   0  0  0  0  0  0  0  0  0  0  0  0
    2.5989    1.5002    0.0000 C   0  0  0  0  0  0  0  0  0  0  0  0
    1.8487    2.7991    0.0000 O   0  0  0  0  0  0  0  0  0  0  0  0
  6  4  1  0
  7  5  1  0
  8  1  1  0
  8  4  2  0
  8  5  1  0
  9  6  1  0
  9  7  1  0
 10  2  1  0
 10  3  1  0
  9 10  1  1
 11 10  1  0
M  END
>  <NAME>  (2575) 
ALPHA-TERPINEOL

>  <SYNONYMS>  (2575) 
ALPHA,ALPHA,4-TRIMETHYL-3-CYCLOHEXENEMETHANOL

>  <SPECTRUM TYPE>  (2575) 
MS1

>  <INSTRUMENT TYPE>  (2575) 
EI-B

>  <INSTRUMENT>  (2575) 
HITACHI M-80B

>  <ION MODE>  (2575) 
P

>  <INCHIKEY>  (2575) 
WUOACPNHFRMFPN-SECBINFHSA-N

>  <FORMULA>  (2575) 
C10H18O

>  <EXACT MASS>  (2575) 
154.135765196

>  <MW>  (2575) 
154

>  <ID>  (2575) 
JP008378

>  <CONTRIBUTOR>  (2575) 
University of Tokyo Team, {Faculty of Engineering, University of Tokyo

>  <COMMENT>  (2575) 
SMILES=CC(C1)=C([H])CC([H])(C1)C(C)(C)O
InChI=InChI=1S/C10H18O/c1-8-4-6-9(7-5-8)10(2,3)11/h4,9,11H,5-7H2,1-3H3/t9-/m1/s1
computed SMILES=OC(C)(C)C1CC=C(C)CC1
accession=JP008378
date=2016.01.19 (Created 2008.10.21, modified 2011.05.06)
author=SODA AROMATIC CO., LTD.
license=CC BY-NC-SA
exact mass=154.13577
ionization energy=70 eV
ion type=[M]+*
computed spectral entropy=3.239272083002898
computed normalized entropy=0.8367615305626327
SPLASH=splash10-052f-9200000000-c699dd9eba0f9966043c
submitter=submitter = University of Tokyo Team (Faculty of Engineering, University of Tokyo)
MoNA Rating=3.75

>  <NUM PEAKS>  (2575) 
48

>  <MASS SPECTRAL PEAKS>  (2575) 
15 1.94
27 11.03
28 2.4
29 7.46
31 9.77
39 15.09
40 3.32
41 23.57
42 2.23
43 43.94
44 1.29
45 2.07
51 4.01
52 1.94
53 12.14
54 5.19
55 15.19
57 1.55
58 1.63
59 99.99
60 3.15
63 1.14
65 4.54
66 1.82
67 18.31
68 13.97
69 4.65
71 10.31
77 10.99
78 2.08
79 16.05
80 6.09
81 35.44
82 2.15
91 7.77
92 16.03
93 55.89
94 7.94
95 14.88
96 6.41
105 2.45
107 6.87
108 3.06
121 52.81
122 5.28
136 43.87
137 5.57
139 7.2

>  <PREDICTED SPECTRUM>  (2575) 
15 10
26 22
27 174
28 28
29 144
31 173
38 22
39 273
40 134
41 477
42 179
43 612
44 145
45 102
50 60
51 156
52 135
53 360
54 228
55 295
56 123
57 80
58 316
59 999
60 133
63 70
65 214
66 186
67 470
68 369
69 274
71 133
77 303
78 156
79 521
80 270
81 591
82 171
83 45
84 129
91 393
92 346
93 790
94 490
95 292
96 344
97 79
105 156
107 144
108 106
109 5
119 200
120 10
121 404
122 110
136 713
137 270
138 44
139 58

$$$$

     RDKit          2D

 11 10  0  0  0  0  0  0  0  0999 V2000
    3.8971    6.7500    0.0000 C   0  0  0  0  0  0  0  0  0  0  0  0
    2.5981    4.5000    0.0000 C   0  0  0  0  0  0  0  0  0  0  0  0
   -2.5981    4.5000    0.0000 C   0  0  0  0  0  0  0  0  0  0  0  0
    0.0000    6.0000    0.0000 C   0  0  0  0  0  0  0  0  0  0  0  0
    1.2990    6.7500    0.0000 C   0  0  0  0  0  0  0  0  0  0  0  0
   -1.2990    6.7500    0.0000 C   0  0  0  0  0  0  0  0  0  0  0  0
   -3.8971    6.7500    0.0000 C   0  0  0  0  0  0  0  0  0  0  0  0
   -3.8971    8.2500    0.0000 C   0  0  0  0  0  0  0  0  0  0  0  0
    2.5981    6.0000    0.0000 C   0  0  0  0  0  0  0  0  0  0  0  0
   -2.5981    6.0000    0.0000 C   0  0  0  0  0  0  0  0  0  0  0  0
   -5.1962    9.0000    0.0000 O   0  0  0  0  0  0  0  0  0  0  0  0
  5  4  1  0
  6  4  1  0
  8  7  1  0
  9  1  1  0
  9  2  1  0
  9  5  2  0
 10  3  1  0
 10  6  1  0
  7 10  2  0
 11  8  1  0
M  END
>  <NAME>  (2576) 
NEROL

>  <SYNONYMS>  (2576) 
(Z)-3,7-DIMETHYL-2,6-OCTADIEN-1-OL

>  <SPECTRUM TYPE>  (2576) 
MS1

>  <INSTRUMENT TYPE>  (2576) 
EI-B

>  <INSTRUMENT>  (2576) 
HITACHI M-80B

>  <ION MODE>  (2576) 
P

>  <INCHIKEY>  (2576) 
GLZPCOQZEFWAFX-YFHOEESVSA-N

>  <FORMULA>  (2576) 
C10H18O

>  <EXACT MASS>  (2576) 
154.135765196

>  <MW>  (2576) 
154

>  <ID>  (2576) 
JP008377

>  <CONTRIBUTOR>  (2576) 
University of Tokyo Team, {Faculty of Engineering, University of Tokyo

>  <COMMENT>  (2576) 
SMILES=OCC=C(C)CCC=C(C)C
InChI=InChI=1S/C10H18O/c1-9(2)5-4-6-10(3)7-8-11/h5,7,11H,4,6,8H2,1-3H3/b10-7-
computed SMILES=OCC=C(C)CCC=C(C)C
accession=JP008377
date=2016.01.19 (Created 2008.10.21, modified 2011.05.06)
license=CC BY-NC-SA
author=SODA AROMATIC CO., LTD.
exact mass=154.13577
ionization energy=70 eV
ion type=[M]+*
computed spectral entropy=3.0184273801899186
computed normalized entropy=0.7839770555417854
SPLASH=splash10-014l-9000000000-41e0055b618413366b81
submitter=submitter = University of Tokyo Team (Faculty of Engineering, University of Tokyo)
MoNA Rating=3.75

>  <NUM PEAKS>  (2576) 
47

>  <MASS SPECTRAL PEAKS>  (2576) 
18 1.12
27 13.72
28 2.09
29 13.12
31 4.14
39 21.58
40 4.25
41 82.45
42 5.35
43 7.97
51 3.36
52 1.54
53 13.17
54 1.6
55 9.44
56 2.98
57 3.23
59 1.2
65 2.08
67 11.75
68 19.53
69 99.99
70 7.58
71 7.22
77 3.42
79 4.08
80 8.36
81 4.74
82 1.26
83 7.67
84 13.43
85 1.83
91 3.2
92 3.33
93 19.27
94 2.53
95 1.83
96 1.31
97 4.73
98 1.29
107 1.9
111 4.56
121 6.71
123 5.21
136 2.79
139 1.77
154 2.95

>  <PREDICTED SPECTRUM>  (2576) 
26 18
27 229
28 51
29 258
30 17
31 121
32 12
33 0
37 30
38 58
39 368
40 163
41 871
42 272
43 419
44 127
45 119
50 91
51 166
52 107
53 312
54 187
55 384
56 172
57 203
58 90
59 123
62 18
63 70
64 20
65 153
66 118
67 439
68 295
69 999
70 297
71 247
72 114
73 18
77 212
78 125
79 251
80 206
81 334
82 220
83 234
84 193
85 268
86 92
89 21
91 199
92 143
93 294
94 142
95 247
96 143
97 115
98 117
99 34
105 129
107 187
108 50
109 199
110 141
111 213
112 121
113 28
117 16
119 44
121 241
122 95
123 236
124 17
125 57
136 198
137 60
139 104
140 4
154 34

$$$$

     RDKit          2D

 11 10  0  0  0  0  0  0  0  0999 V2000
   -7.4695    3.9375    0.0000 C   0  0  0  0  0  0  0  0  0  0  0  0
    1.6238    3.1875    0.0000 C   0  0  0  0  0  0  0  0  0  0  0  0
    0.3248    5.4375    0.0000 C   0  0  0  0  0  0  0  0  0  0  0  0
   -3.9072    5.0866    0.0000 C   0  0  0  0  0  0  0  0  0  0  0  0
   -6.1704    3.1875    0.0000 C   0  0  0  0  0  0  0  0  0  0  0  0
   -2.2733    3.9375    0.0000 C   0  0  0  0  0  0  0  0  0  0  0  0
   -0.9743    3.1875    0.0000 C   0  0  0  0  0  0  0  0  0  0  0  0
   -3.5724    3.1875    0.0000 C   0  0  0  0  0  0  0  0  0  0  0  0
    0.3248    3.9375    0.0000 C   0  0  0  0  0  0  0  0  0  0  0  0
   -4.8714    3.9375    0.0000 C   0  0  0  0  0  0  0  0  0  0  0  0
   -5.8356    5.0866    0.0000 O   0  0  0  0  0  0  0  0  0  0  0  0
  5  1  2  0
  7  6  1  0
  8  6  1  0
  9  2  1  0
  9  3  1  0
  9  7  2  0
 10  4  1  0
 10  5  1  0
 10  8  1  0
 11 10  1  0
M  END
>  <NAME>  (2577) 
LINALOOL

>  <SYNONYMS>  (2577) 
3,7-DIMETHYL-1,6-OCTADIEN-3-OL

>  <SPECTRUM TYPE>  (2577) 
MS1

>  <INSTRUMENT TYPE>  (2577) 
EI-B

>  <INSTRUMENT>  (2577) 
HITACHI M-80B

>  <ION MODE>  (2577) 
P

>  <INCHIKEY>  (2577) 
CDOSHBSSFJOMGT-UHFFFAOYSA-N

>  <FORMULA>  (2577) 
C10H18O

>  <EXACT MASS>  (2577) 
154.135765196

>  <MW>  (2577) 
154

>  <ID>  (2577) 
JP008376

>  <CONTRIBUTOR>  (2577) 
University of Tokyo Team, {Faculty of Engineering, University of Tokyo

>  <COMMENT>  (2577) 
SMILES=CC(C)=CCCC(C)(O)C=C
InChI=InChI=1S/C10H18O/c1-5-10(4,11)8-6-7-9(2)3/h5,7,11H,1,6,8H2,2-4H3
computed SMILES=OC(C=C)(C)CCC=C(C)C
accession=JP008376
date=2016.01.19 (Created 2008.10.21, modified 2011.05.06)
author=SODA AROMATIC CO., LTD.
license=CC BY-NC-SA
exact mass=154.13577
ionization energy=70 eV
ion type=[M]+*
computed spectral entropy=3.290745291720105
computed normalized entropy=0.8139261843895987
SPLASH=splash10-006x-9000000000-fe642a5570c732aea8de
submitter=submitter = University of Tokyo Team (Faculty of Engineering, University of Tokyo)
MoNA Rating=3.75

>  <NUM PEAKS>  (2577) 
57

>  <MASS SPECTRAL PEAKS>  (2577) 
15 2
18 1.15
26 1.04
27 21.16
28 3.01
29 10.19
31 2.24
39 22.09
40 4.97
41 63.43
42 5.86
43 58.84
44 1.63
45 1.58
51 3.62
52 1.45
53 13.41
54 2.5
55 46.66
56 9.02
57 3.48
58 2.51
59 3.42
65 3.06
66 1.17
67 15.88
68 12.86
69 40.64
70 5
71 99.99
72 7.53
77 4.19
79 8.08
80 26.17
81 10.85
82 5.73
83 16.15
84 4.3
85 1.36
86 1.62
91 4.76
92 11.35
93 61.4
94 8.79
95 2.72
96 7.47
97 1.96
105 3.07
107 5.78
108 1.34
109 5.02
111 2.96
121 19.93
122 1.59
136 8.77
137 1.04
139 2.18

>  <PREDICTED SPECTRUM>  (2577) 
25 2
26 58
27 319
28 155
29 269
30 25
31 156
37 28
38 65
39 371
40 173
41 792
42 213
43 999
44 173
45 153
50 64
51 162
52 108
53 393
54 249
55 475
56 172
57 167
58 165
59 455
61 6
62 6
63 85
64 23
65 167
66 97
67 531
68 454
69 685
70 166
71 779
72 274
73 58
77 180
78 81
79 295
80 226
81 561
82 419
83 202
84 220
85 220
86 49
91 218
92 175
93 522
94 183
95 156
96 379
97 163
98 17
99 41
105 52
107 105
108 116
109 237
110 79
111 204
112 82
120 45
121 289
122 49
125 21
127 18
136 285
137 96
139 102

$$$$

     RDKit          2D

 11 11  0  0  0  0  0  0  0  0999 V2000
   -2.2386    2.7951    0.0000 C   0  0  0  0  0  0  0  0  0  0  0  0
   -3.5376    0.5451    0.0000 C   0  0  0  0  0  0  0  0  0  0  0  0
    2.9576   -1.7049    0.0000 C   0  0  0  0  0  0  0  0  0  0  0  0
    0.3590   -1.7058    0.0000 C   0  0  0  0  0  0  0  0  0  0  0  0
   -0.9400   -0.9558    0.0000 C   0  0  0  0  0  0  0  0  0  0  0  0
    0.3600    1.2959    0.0000 C   0  0  0  0  0  0  0  0  0  0  0  0
   -2.2386    1.2951    0.0000 C   0  0  0  0  0  0  0  0  0  0  0  0
    1.6585   -0.9549    0.0000 C   0  0  0  0  0  0  0  0  0  0  0  0
   -0.9395    0.5451    0.0000 C   0  0  0  0  0  0  0  0  0  0  0  0
    1.6590    0.5459    0.0000 C   0  0  0  0  0  0  0  0  0  0  0  0
    2.9582    1.2957    0.0000 O   0  0  0  0  0  0  0  0  0  0  0  0
  5  4  1  0
  7  1  2  0
  7  2  1  0
  8  3  1  0
  8  4  1  0
  9  5  1  0
  9  6  1  0
  9  7  1  0
 10  6  1  0
 10  8  1  0
 11 10  1  0
M  END
>  <NAME>  (2578) 
DIHYDROCARVEOL

>  <SYNONYMS>  (2578) 
2-METHYL-5-(1-METHYLETHENYL)CYCLOHEXANOL

>  <SPECTRUM TYPE>  (2578) 
MS1

>  <INSTRUMENT TYPE>  (2578) 
EI-B

>  <INSTRUMENT>  (2578) 
HITACHI M-80B

>  <ION MODE>  (2578) 
P

>  <INCHIKEY>  (2578) 
KRCZYMFUWVJCLI-UHFFFAOYSA-N

>  <FORMULA>  (2578) 
C10H18O

>  <EXACT MASS>  (2578) 
154.135765196

>  <MW>  (2578) 
154

>  <ID>  (2578) 
JP008374

>  <CONTRIBUTOR>  (2578) 
University of Tokyo Team, {Faculty of Engineering, University of Tokyo

>  <COMMENT>  (2578) 
SMILES=CC(=C)C(C1)CC(O)C(C)C1
InChI=InChI=1S/C10H18O/c1-7(2)9-5-4-8(3)10(11)6-9/h8-11H,1,4-6H2,2-3H3
computed SMILES=OC1CC(C(=C)C)CCC1C
accession=JP008374
date=2016.01.19 (Created 2008.10.21, modified 2011.05.06)
author=SODA AROMATIC CO., LTD.
license=CC BY-NC-SA
exact mass=154.13577
ionization energy=70 eV
ion type=[M]+*
computed spectral entropy=3.7040115003647482
computed normalized entropy=0.8748035733969018
SPLASH=splash10-052o-9200000000-7be55af7aad2302f936a
submitter=submitter = University of Tokyo Team (Faculty of Engineering, University of Tokyo)
MoNA Rating=3.75

>  <NUM PEAKS>  (2578) 
69

>  <MASS SPECTRAL PEAKS>  (2578) 
15 2.61
26 1.31
27 36.05
28 4.59
29 34.83
30 1.9
31 7.69
38 1.55
39 58.81
40 12.6
41 99.99
42 13.17
43 60.97
44 7.58
45 5.82
50 1.97
51 6.75
52 4.25
53 37.38
54 7.12
55 65.16
56 19.45
57 23.13
58 23.52
59 6.67
63 2.36
65 7.72
66 5.59
67 57.53
68 58.54
69 55.62
70 25.57
71 25.28
72 11.52
77 13.9
78 2.94
79 56.7
80 19.55
81 75.06
82 25
83 23.67
84 16.77
85 3.51
91 11.49
92 29.13
93 89.54
94 45.47
95 30.51
96 19.55
97 37.29
98 5.66
99 1.52
105 3.45
106 1.29
107 78.01
108 17.94
109 3.52
110 4.05
111 19.1
112 2.86
121 78.28
122 6.83
123 2.75
125 1.16
135 1.28
136 67.67
137 7.01
139 3.85
154 2.72

>  <PREDICTED SPECTRUM>  (2578) 
16 0
17 10
18 18
26 62
27 378
28 158
29 337
30 6
31 175
32 0
37 56
38 111
39 579
40 263
41 999
42 313
43 770
44 263
45 205
46 9
47 20
49 22
50 153
51 293
52 238
53 549
54 336
55 774
56 349
57 427
58 271
59 203
60 78
61 37
62 92
63 174
64 79
65 310
66 189
67 770
68 597
69 856
70 314
71 413
72 166
73 61
74 34
75 68
76 3
77 442
78 189
79 610
80 450
81 860
82 415
83 400
84 281
85 332
86 85
87 27
89 20
91 483
92 247
93 804
94 501
95 560
96 384
97 318
98 232
99 111
103 72
105 306
106 155
107 602
108 296
109 359
110 183
111 355
112 193
113 32
117 71
119 263
120 123
121 821
122 318
123 211
125 208
126 53
135 138
136 720
137 320
138 83
139 289
140 78
154 262
155 69

$$$$

     RDKit          2D

 12 12  0  0  0  0  0  0  0  0999 V2000
   -5.5207    3.1321    0.0000 C   0  0  0  0  0  0  0  0  0  0  0  0
   -4.2216    2.3821    0.0000 C   0  0  0  0  0  0  0  0  0  0  0  0
    3.5726    0.8821    0.0000 C   0  0  0  0  0  0  0  0  0  0  0  0
    3.5731    2.3829    0.0000 C   0  0  0  0  0  0  0  0  0  0  0  0
    2.2731    0.1313    0.0000 C   0  0  0  0  0  0  0  0  0  0  0  0
    2.2740    3.1329    0.0000 C   0  0  0  0  0  0  0  0  0  0  0  0
    0.9740    0.8813    0.0000 C   0  0  0  0  0  0  0  0  0  0  0  0
   -0.3245    3.1321    0.0000 C   0  0  0  0  0  0  0  0  0  0  0  0
    0.9745    2.3821    0.0000 C   0  0  0  0  0  0  0  0  0  0  0  0
   -2.9226    3.1321    0.0000 C   0  0  0  0  0  0  0  0  0  0  0  0
   -2.9226    4.6321    0.0000 O   0  0  0  0  0  0  0  0  0  0  0  0
   -1.6236    2.3821    0.0000 O   0  0  0  0  0  0  0  0  0  0  0  0
  2  1  1  0
  4  3  2  0
  5  3  1  0
  6  4  1  0
  7  5  2  0
  9  6  2  0
  9  7  1  0
  9  8  1  0
 10  2  1  0
 11 10  2  0
 12  8  1  0
 12 10  1  0
M  END
>  <NAME>  (2579) 
BENZYL PROPIONATE

>  <SYNONYMS>  (2579) 


>  <SPECTRUM TYPE>  (2579) 
MS1

>  <INSTRUMENT TYPE>  (2579) 
EI-B

>  <INSTRUMENT>  (2579) 
HITACHI M-80B

>  <ION MODE>  (2579) 
P

>  <INCHIKEY>  (2579) 
VHOMAPWVLKRQAZ-UHFFFAOYSA-N

>  <FORMULA>  (2579) 
C10H12O2

>  <EXACT MASS>  (2579) 
164.083729624

>  <MW>  (2579) 
164

>  <ID>  (2579) 
JP008373

>  <CONTRIBUTOR>  (2579) 
University of Tokyo Team, {Faculty of Engineering, University of Tokyo

>  <COMMENT>  (2579) 
SMILES=CCC(=O)OCc(c1)cccc1
InChI=InChI=1S/C10H12O2/c1-2-10(11)12-8-9-6-4-3-5-7-9/h3-7H,2,8H2,1H3
computed SMILES=O=C(OCC=1C=CC=CC1)CC
accession=JP008373
date=2016.01.19 (Created 2008.10.21, modified 2011.05.06)
author=SODA AROMATIC CO., LTD.
license=CC BY-NC-SA
exact mass=164.08373
ionization energy=70 eV
ion type=[M]+*
computed spectral entropy=2.6738509675173256
computed normalized entropy=0.786149895896551
SPLASH=splash10-054o-9300000000-a80032bb114fcc1ab469
submitter=submitter = University of Tokyo Team (Faculty of Engineering, University of Tokyo)
MoNA Rating=3.75

>  <NUM PEAKS>  (2579) 
30

>  <MASS SPECTRAL PEAKS>  (2579) 
26 2.2
27 13.57
28 2.06
29 30.91
38 1.26
39 10.94
41 2.25
50 4.36
51 12.31
52 2.56
57 40.82
58 1.27
62 1.34
63 5.74
64 1.75
65 17.69
77 14.3
78 2.92
79 14.25
80 1.04
89 8.18
90 23.98
91 99.99
92 7.52
105 3.21
107 9.93
108 79.65
109 5.96
164 24.75
165 2.44

>  <PREDICTED SPECTRUM>  (2579) 
26 31
27 124
28 7
29 153
30 26
31 35
37 6
38 51
39 192
40 69
41 242
42 26
43 2
44 29
50 157
51 224
52 143
53 90
55 70
56 122
57 400
58 64
62 84
63 165
64 75
65 320
66 22
74 108
75 39
76 21
77 287
78 174
79 353
80 113
87 3
88 23
89 238
90 328
91 999
92 383
104 64
105 236
107 639
108 578
109 140
118 19
135 36
164 330
165 103
166 14

$$$$

     RDKit          2D

 13 13  0  0  0  0  0  0  0  0999 V2000
   -6.8197    3.1321    0.0000 C   0  0  0  0  0  0  0  0  0  0  0  0
   -5.5207    3.8821    0.0000 C   0  0  0  0  0  0  0  0  0  0  0  0
    3.5726    1.6321    0.0000 C   0  0  0  0  0  0  0  0  0  0  0  0
    3.5731    3.1329    0.0000 C   0  0  0  0  0  0  0  0  0  0  0  0
    2.2731    0.8813    0.0000 C   0  0  0  0  0  0  0  0  0  0  0  0
    2.2740    3.8829    0.0000 C   0  0  0  0  0  0  0  0  0  0  0  0
    0.9740    1.6313    0.0000 C   0  0  0  0  0  0  0  0  0  0  0  0
   -0.3245    3.8821    0.0000 C   0  0  0  0  0  0  0  0  0  0  0  0
   -1.6236    3.1321    0.0000 C   0  0  0  0  0  0  0  0  0  0  0  0
    0.9745    3.1321    0.0000 C   0  0  0  0  0  0  0  0  0  0  0  0
   -4.2216    3.1321    0.0000 C   0  0  0  0  0  0  0  0  0  0  0  0
   -4.2216    1.6321    0.0000 O   0  0  0  0  0  0  0  0  0  0  0  0
   -2.9226    3.8821    0.0000 O   0  0  0  0  0  0  0  0  0  0  0  0
  2  1  1  0
  4  3  2  0
  5  3  1  0
  6  4  1  0
  7  5  2  0
  9  8  1  0
 10  6  2  0
 10  7  1  0
 10  8  1  0
 11  2  1  0
 12 11  2  0
 13  9  1  0
 13 11  1  0
M  END
>  <NAME>  (2580) 
PHENYLETHYL PROPIONATE

>  <SYNONYMS>  (2580) 
2-PHENYLETHYL PROPIONATE

>  <SPECTRUM TYPE>  (2580) 
MS1

>  <INSTRUMENT TYPE>  (2580) 
EI-B

>  <INSTRUMENT>  (2580) 
HITACHI M-80B

>  <ION MODE>  (2580) 
P

>  <INCHIKEY>  (2580) 
HVGZQCSMLUDISR-UHFFFAOYSA-N

>  <FORMULA>  (2580) 
C11H14O2

>  <EXACT MASS>  (2580) 
178.099379688

>  <MW>  (2580) 
178

>  <ID>  (2580) 
JP008372

>  <CONTRIBUTOR>  (2580) 
University of Tokyo Team, {Faculty of Engineering, University of Tokyo

>  <COMMENT>  (2580) 
SMILES=CCC(=O)OCCc(c1)cccc1
InChI=InChI=1S/C11H14O2/c1-2-11(12)13-9-8-10-6-4-3-5-7-10/h3-7H,2,8-9H2,1H3
computed SMILES=O=C(OCCC=1C=CC=CC1)CC
accession=JP008372
date=2016.01.19 (Created 2008.10.21, modified 2011.05.06)
author=SODA AROMATIC CO., LTD.
license=CC BY-NC-SA
exact mass=178.09938
ionization energy=70 eV
ion type=[M]+*
computed spectral entropy=2.0916531106921488
computed normalized entropy=0.6870217426468391
SPLASH=splash10-0zfr-9800000000-234d53df7898caf22a51
submitter=submitter = University of Tokyo Team (Faculty of Engineering, University of Tokyo)
MoNA Rating=3.75

>  <NUM PEAKS>  (2580) 
21

>  <MASS SPECTRAL PEAKS>  (2580) 
26 1.02
27 7.88
28 2.07
29 23.89
39 3.36
50 1.25
51 4.65
52 1.11
57 48.76
58 1.62
63 2.01
65 5.88
77 7
78 4.55
79 2.91
89 1.51
91 11.77
92 1.42
103 5.29
104 99.99
105 15.72

>  <PREDICTED SPECTRUM>  (2580) 
26 21
27 118
28 44
29 172
30 32
31 8
38 2
39 154
40 33
41 157
42 79
43 35
44 13
45 4
49 3
50 83
51 150
52 88
53 86
54 59
55 117
56 88
57 365
58 115
59 74
60 4
61 17
62 27
63 113
64 55
65 196
66 27
73 1
74 77
75 54
76 34
77 191
78 192
79 132
80 19
89 82
90 45
91 365
92 174
101 1
102 53
103 135
104 999
105 436
106 114

$$$$

     RDKit          2D

 12 14  0  0  0  0  0  0  0  0999 V2000
   -0.8896    2.5493    0.0000 C   0  0  0  0  0  0  0  0  0  0  0  0
    1.3372   -3.5103    0.0000 C   0  0  0  0  0  0  0  0  0  0  0  0
   -1.4400   -1.0000    0.0000 C   0  0  0  0  0  0  0  0  0  0  0  0
   -1.4400    0.5000    0.0000 C   0  0  0  0  0  0  0  0  0  0  0  0
    1.1600   -1.0000    0.0000 C   0  0  0  0  0  0  0  0  0  0  0  0
   -1.6172   -3.5103    0.0000 C   0  0  0  0  0  0  0  0  0  0  0  0
   -0.1400   -1.7500    0.0000 C   0  0  0  0  0  0  0  0  0  0  0  0
    1.1600    0.5000    0.0000 C   0  0  0  0  0  0  0  0  0  0  0  0
   -0.1400    1.2500    0.0000 C   0  0  0  0  0  0  0  0  0  0  0  0
   -0.1400   -3.2500    0.0000 C   0  0  0  0  0  0  0  0  0  0  0  0
   -0.6530   -4.6604    0.0000 O   0  0  0  0  0  0  0  0  0  0  0  0
    1.1600    2.0000    0.0000 O   0  0  0  0  0  0  0  0  0  0  0  0
  4  3  1  0
  7  3  1  0
  7  5  1  0
  8  5  1  0
  9  1  1  0
  9  4  1  0
  9  8  1  0
 10  2  1  0
 10  6  1  0
 10  7  1  0
 11  6  1  0
 11 10  1  0
 12  8  1  0
 12  9  1  0
M  END
>  <NAME>  (2581) 
LIMONENE DIOXIDE

>  <SYNONYMS>  (2581) 
1,2-EPOXY-4-(1,2-EPOXY-1-METHYLETHYL)-1-METHYLCYCLOHEXANE

>  <SPECTRUM TYPE>  (2581) 
MS1

>  <INSTRUMENT TYPE>  (2581) 
EI-B

>  <INSTRUMENT>  (2581) 
HITACHI M-80B

>  <ION MODE>  (2581) 
P

>  <INCHIKEY>  (2581) 
RBHIUNHSNSQJNG-UHFFFAOYSA-N

>  <FORMULA>  (2581) 
C10H16O2

>  <EXACT MASS>  (2581) 
168.115029752

>  <MW>  (2581) 
168

>  <ID>  (2581) 
JP008371

>  <CONTRIBUTOR>  (2581) 
University of Tokyo Team, {Faculty of Engineering, University of Tokyo

>  <COMMENT>  (2581) 
SMILES=CC(C3)(O3)C(C2)CC(O1)C(C)(C2)1
InChI=InChI=1S/C10H16O2/c1-9-4-3-7(5-8(9)12-9)10(2)6-11-10/h7-8H,3-6H2,1-2H3
computed SMILES=O1CC1(C)C2CCC3(OC3C2)C
accession=JP008371
date=2016.01.19 (Created 2008.10.21, modified 2011.05.06)
author=SODA AROMATIC CO., LTD.
license=CC BY-NC-SA
exact mass=168.11503
ionization energy=70 eV
ion type=[M]+*
computed spectral entropy=3.4336197219022155
computed normalized entropy=0.8492644526225004
SPLASH=splash10-0006-9100000000-a2af02d90ccc82b85c88
submitter=submitter = University of Tokyo Team (Faculty of Engineering, University of Tokyo)
MoNA Rating=3.75

>  <NUM PEAKS>  (2581) 
57

>  <MASS SPECTRAL PEAKS>  (2581) 
14 1.23
15 2.67
27 13.82
29 10.81
31 2.64
39 14.79
40 1.27
41 20.41
42 2.74
43 99.99
44 4.97
45 3.68
51 2.53
53 9.25
54 3.1
55 16.92
56 2.07
57 4.81
58 8.15
59 2.22
65 2.48
66 1.43
67 16.86
68 4.13
69 7.42
70 1.97
71 8.31
77 5.37
79 11
80 4.1
81 9.85
82 10.65
83 8.85
84 3.65
85 3.46
91 5.38
92 6.47
93 13.67
94 6.87
95 21.45
96 2.22
97 6.52
98 1.9
105 3.02
106 1.13
107 16.07
108 4.22
109 5.74
110 4.13
111 4.12
121 2.95
122 1.51
123 7.77
125 2.47
135 1.45
137 2.34
138 1.92

>  <PREDICTED SPECTRUM>  (2581) 
26 40
27 204
28 71
29 170
30 6
31 105
38 21
39 314
40 140
41 622
42 235
43 999
44 251
45 148
47 22
49 12
50 89
51 201
52 166
53 370
54 247
55 556
56 215
57 277
58 229
59 250
60 100
61 57
62 23
63 93
64 63
65 243
66 187
67 570
68 352
69 414
70 246
71 574
72 301
73 114
74 12
76 0
77 349
78 200
79 474
80 314
81 547
82 390
83 385
84 271
85 370
86 116
87 57
91 340
92 236
93 414
94 229
95 630
96 329
97 443
98 283
99 162
100 88
101 66
102 35
103 73
105 143
106 91
107 302
108 195
109 378
110 674
111 445
112 177
113 94
114 25
115 43
116 36
119 4
120 32
121 304
122 178
123 222
124 155
125 289
126 126
127 48
133 10
135 249
136 54
137 79
138 85
139 259
140 162
141 69
149 85
150 270
151 103
152 84
153 387
154 144
168 89
169 16

$$$$

     RDKit          2D

 17 16  0  0  0  0  0  0  0  0999 V2000
    3.2476    5.6250    0.0000 C   0  0  0  0  0  0  0  0  0  0  0  0
   -3.6987    8.9336    0.0000 C   0  0  0  0  0  0  0  0  0  0  0  0
   -9.7428    5.6250    0.0000 C   0  0  0  0  0  0  0  0  0  0  0  0
   -8.4437    7.8750    0.0000 C   0  0  0  0  0  0  0  0  0  0  0  0
    0.6495    4.1250    0.0000 C   0  0  0  0  0  0  0  0  0  0  0  0
   -2.2834    7.5241    0.0000 C   0  0  0  0  0  0  0  0  0  0  0  0
    1.9486    6.3750    0.0000 C   0  0  0  0  0  0  0  0  0  0  0  0
   -4.2118    7.5241    0.0000 C   0  0  0  0  0  0  0  0  0  0  0  0
   -5.8457    6.3750    0.0000 C   0  0  0  0  0  0  0  0  0  0  0  0
   -7.1447    5.6250    0.0000 C   0  0  0  0  0  0  0  0  0  0  0  0
   -4.5466    5.6250    0.0000 C   0  0  0  0  0  0  0  0  0  0  0  0
   -8.4437    6.3750    0.0000 C   0  0  0  0  0  0  0  0  0  0  0  0
    0.6495    5.6250    0.0000 C   0  0  0  0  0  0  0  0  0  0  0  0
   -0.6495    6.3750    0.0000 C   0  0  0  0  0  0  0  0  0  0  0  0
   -3.2476    6.3750    0.0000 C   0  0  0  0  0  0  0  0  0  0  0  0
   -0.6495    7.8750    0.0000 O   0  0  0  0  0  0  0  0  0  0  0  0
   -1.9486    5.6250    0.0000 O   0  0  0  0  0  0  0  0  0  0  0  0
  7  1  1  0
  8  2  2  0
 10  9  1  0
 11  9  1  0
 12  3  1  0
 12  4  1  0
 12 10  2  0
 13  5  1  0
 13  7  1  0
 14 13  1  0
 15  6  1  0
 15  8  1  0
 15 11  1  0
 16 14  2  0
 17 14  1  0
 17 15  1  0
M  END
>  <NAME>  (2582) 
LINALYL METHYL-ETHYL-ACETATE

>  <SYNONYMS>  (2582) 
LINALYL 2-METHYLBUTYRATE

>  <SPECTRUM TYPE>  (2582) 
MS1

>  <INSTRUMENT TYPE>  (2582) 
EI-B

>  <INSTRUMENT>  (2582) 
HITACHI M-80B

>  <ION MODE>  (2582) 
P

>  <INCHIKEY>  (2582) 
MLJNGBGMEMFTPV-UHFFFAOYSA-N

>  <FORMULA>  (2582) 
C15H26O2

>  <EXACT MASS>  (2582) 
238.193280072

>  <MW>  (2582) 
238

>  <ID>  (2582) 
JP008367

>  <CONTRIBUTOR>  (2582) 
University of Tokyo Team, {Faculty of Engineering, University of Tokyo

>  <COMMENT>  (2582) 
SMILES=CCC(C)C(=O)OC(C)(C=C)CCC=C(C)C
InChI=InChI=1S/C15H26O2/c1-7-13(5)14(16)17-15(6,8-2)11-9-10-12(3)4/h8,10,13H,2,7,9,11H2,1,3-6H3
computed SMILES=O=C(OC(C=C)(C)CCC=C(C)C)C(C)CC
accession=JP008367
date=2016.01.19 (Created 2008.10.21, modified 2011.05.06)
author=SODA AROMATIC CO., LTD.
license=CC BY-NC-SA
exact mass=238.19328
ionization energy=70 eV
ion type=[M]+*
computed spectral entropy=3.0423790456674027
computed normalized entropy=0.8247434169404644
SPLASH=splash10-0006-9100000000-db21b3ad039496813d95
submitter=submitter = University of Tokyo Team (Faculty of Engineering, University of Tokyo)
MoNA Rating=3.75

>  <NUM PEAKS>  (2582) 
40

>  <MASS SPECTRAL PEAKS>  (2582) 
27 6.71
29 14.61
39 7.51
40 2.41
41 41.79
42 2.66
43 9.02
53 8.33
55 11.28
56 1.63
57 51.26
58 2.38
65 1.15
67 10.69
68 12.12
69 42.23
70 2.65
71 4.19
77 3.21
79 6.17
80 44.6
81 24.29
82 2.85
83 3.83
85 17.84
91 3.94
92 17.35
93 99.99
94 12.65
95 4.56
105 2.77
107 7.73
108 2.19
109 1.15
121 33.7
122 3.46
136 13.51
137 7.51
154 1.09
238 1.17

>  <PREDICTED SPECTRUM>  (2582) 
25 6
26 41
27 199
28 94
29 266
38 13
39 270
40 137
41 641
42 160
43 309
44 143
45 41
50 55
51 73
52 92
53 317
54 135
55 425
56 173
57 863
58 131
59 168
60 0
63 18
64 29
65 192
66 151
67 395
68 423
69 625
70 176
71 214
72 139
73 94
74 7
77 253
78 105
79 366
80 584
81 523
82 222
83 233
84 51
85 612
86 123
87 28
91 267
92 441
93 999
94 460
95 226
96 110
97 34
98 14
99 17
103 85
104 11
105 192
107 270
108 161
109 126
111 123
112 23
117 0
119 57
120 14
121 673
122 314
123 19
136 463
137 332
138 78
153 50
154 111
238 53
239 6

$$$$

     RDKit          2D

 17 16  0  0  0  0  0  0  0  0999 V2000
    3.8971    6.7500    0.0000 C   0  0  0  0  0  0  0  0  0  0  0  0
  -11.6913    6.7500    0.0000 C   0  0  0  0  0  0  0  0  0  0  0  0
  -10.3923    9.0000    0.0000 C   0  0  0  0  0  0  0  0  0  0  0  0
   -5.1962    9.0000    0.0000 C   0  0  0  0  0  0  0  0  0  0  0  0
    1.2990    5.2500    0.0000 C   0  0  0  0  0  0  0  0  0  0  0  0
    2.5981    7.5000    0.0000 C   0  0  0  0  0  0  0  0  0  0  0  0
   -7.7942    7.5000    0.0000 C   0  0  0  0  0  0  0  0  0  0  0  0
   -9.0933    6.7500    0.0000 C   0  0  0  0  0  0  0  0  0  0  0  0
   -6.4952    6.7500    0.0000 C   0  0  0  0  0  0  0  0  0  0  0  0
   -3.8971    6.7500    0.0000 C   0  0  0  0  0  0  0  0  0  0  0  0
   -2.5981    7.5000    0.0000 C   0  0  0  0  0  0  0  0  0  0  0  0
  -10.3923    7.5000    0.0000 C   0  0  0  0  0  0  0  0  0  0  0  0
   -5.1962    7.5000    0.0000 C   0  0  0  0  0  0  0  0  0  0  0  0
    1.2990    6.7500    0.0000 C   0  0  0  0  0  0  0  0  0  0  0  0
    0.0000    7.5000    0.0000 C   0  0  0  0  0  0  0  0  0  0  0  0
    0.0000    9.0000    0.0000 O   0  0  0  0  0  0  0  0  0  0  0  0
   -1.2990    6.7500    0.0000 O   0  0  0  0  0  0  0  0  0  0  0  0
  6  1  1  0
  8  7  1  0
  9  7  1  0
 11 10  1  0
 12  2  1  0
 12  3  1  0
 12  8  2  0
 13  4  1  0
 13  9  1  0
 10 13  2  0
 14  5  1  0
 14  6  1  0
 15 14  1  0
 16 15  2  0
 17 11  1  0
 17 15  1  0
M  END
>  <NAME>  (2583) 
GERANYL METHYL-ETHYL-ACETATE

>  <SYNONYMS>  (2583) 
GERANYL 2-METHYLBUTYRATE

>  <SPECTRUM TYPE>  (2583) 
MS1

>  <INSTRUMENT TYPE>  (2583) 
EI-B

>  <INSTRUMENT>  (2583) 
HITACHI M-80B

>  <ION MODE>  (2583) 
P

>  <INCHIKEY>  (2583) 
PEQMAZJTEUEQJP-JLHYYAGUSA-N

>  <FORMULA>  (2583) 
C15H26O2

>  <EXACT MASS>  (2583) 
238.193280072

>  <MW>  (2583) 
238

>  <ID>  (2583) 
JP008366

>  <CONTRIBUTOR>  (2583) 
University of Tokyo Team, {Faculty of Engineering, University of Tokyo

>  <COMMENT>  (2583) 
SMILES=CCC(C)C(=O)OCC=C(C)CCC=C(C)C
InChI=InChI=1S/C15H26O2/c1-6-14(5)15(16)17-11-10-13(4)9-7-8-12(2)3/h8,10,14H,6-7,9,11H2,1-5H3/b13-10+
computed SMILES=O=C(OCC=C(C)CCC=C(C)C)C(C)CC
accession=JP008366
date=2016.01.19 (Created 2008.10.21, modified 2011.05.06)
author=SODA AROMATIC CO., LTD.
license=CC BY-NC-SA
exact mass=238.19328
ionization energy=70 eV
ion type=[M]+*
computed spectral entropy=2.914069915743892
computed normalized entropy=0.7847080555865038
SPLASH=splash10-014l-9100000000-34aeff53314662035675
submitter=submitter = University of Tokyo Team (Faculty of Engineering, University of Tokyo)
MoNA Rating=3.75

>  <NUM PEAKS>  (2583) 
41

>  <MASS SPECTRAL PEAKS>  (2583) 
27 5.2
29 14.16
39 7.26
40 1.9
41 48.65
42 2.37
43 3.69
53 8.57
55 6.02
56 1.53
57 65.29
58 2.53
65 1.4
66 1.1
67 12.66
68 51.2
69 99.99
70 5.34
77 1.73
79 3.82
80 19.87
81 11.73
82 1.19
84 1.24
85 28.25
86 1.44
91 1.69
92 9.71
93 41.26
94 7.46
95 2.95
96 1.14
107 7.33
108 2.38
121 22.33
122 2.03
123 2.57
136 20.71
137 4.03
154 1.58
169 1.67

>  <PREDICTED SPECTRUM>  (2583) 
25 9
26 20
27 154
28 57
29 233
30 0
31 6
37 19
38 33
39 242
40 134
41 759
42 200
43 264
44 138
45 55
50 49
51 55
52 68
53 271
54 83
55 294
56 178
57 628
58 92
59 62
60 34
63 26
64 5
65 142
66 79
67 398
68 649
69 999
70 247
71 31
72 92
73 9
77 136
78 42
79 260
80 521
81 534
82 186
83 140
84 85
85 372
86 128
91 164
92 324
93 754
94 320
95 195
96 87
97 68
98 16
99 15
101 21
103 66
105 59
107 290
108 142
109 98
111 17
121 518
122 180
123 118
124 8
136 503
137 257
138 42
153 11
154 79
165 61
169 37
238 21
239 10

$$$$

     RDKit          2D

 15 14  0  0  0  0  0  0  0  0999 V2000
    2.9228    5.4375    0.0000 C   0  0  0  0  0  0  0  0  0  0  0  0
   -4.4202    2.8789    0.0000 C   0  0  0  0  0  0  0  0  0  0  0  0
    0.3248    3.9375    0.0000 C   0  0  0  0  0  0  0  0  0  0  0  0
   -8.7685    6.1875    0.0000 C   0  0  0  0  0  0  0  0  0  0  0  0
   -5.8356    4.2884    0.0000 C   0  0  0  0  0  0  0  0  0  0  0  0
    1.6238    6.1875    0.0000 C   0  0  0  0  0  0  0  0  0  0  0  0
   -3.9072    4.2884    0.0000 C   0  0  0  0  0  0  0  0  0  0  0  0
   -2.2733    5.4375    0.0000 C   0  0  0  0  0  0  0  0  0  0  0  0
   -0.9743    6.1875    0.0000 C   0  0  0  0  0  0  0  0  0  0  0  0
   -3.5724    6.1875    0.0000 C   0  0  0  0  0  0  0  0  0  0  0  0
    0.3248    5.4375    0.0000 C   0  0  0  0  0  0  0  0  0  0  0  0
   -7.4695    5.4375    0.0000 C   0  0  0  0  0  0  0  0  0  0  0  0
   -4.8714    5.4375    0.0000 C   0  0  0  0  0  0  0  0  0  0  0  0
   -7.4695    3.9375    0.0000 O   0  0  0  0  0  0  0  0  0  0  0  0
   -6.1704    6.1875    0.0000 O   0  0  0  0  0  0  0  0  0  0  0  0
  6  1  1  0
  7  2  2  0
  9  8  1  0
 10  8  1  0
 11  3  1  0
 11  6  1  0
  9 11  2  0
 12  4  1  0
 13  5  1  0
 13  7  1  0
 13 10  1  0
 14 12  2  0
 15 12  1  0
 15 13  1  0
M  END
>  <NAME>  (2584) 
TRANS-ETHYL-LINALYL ACETATE

>  <SYNONYMS>  (2584) 
1,5-DIMETHYL-1-VINYL-(E)-4-HEPTENYL ACETATE

>  <SPECTRUM TYPE>  (2584) 
MS1

>  <INSTRUMENT TYPE>  (2584) 
EI-B

>  <INSTRUMENT>  (2584) 
HITACHI M-80B

>  <ION MODE>  (2584) 
P

>  <INCHIKEY>  (2584) 
IVSZEHYDOLAREK-PKNBQFBNSA-N

>  <FORMULA>  (2584) 
C13H22O2

>  <EXACT MASS>  (2584) 
210.161979944

>  <MW>  (2584) 
210

>  <ID>  (2584) 
JP008365

>  <CONTRIBUTOR>  (2584) 
University of Tokyo Team, {Faculty of Engineering, University of Tokyo

>  <COMMENT>  (2584) 
SMILES=CCC(C)=C([H])CCC(C)(C=C)OC(C)=O
InChI=InChI=1S/C13H22O2/c1-6-11(3)9-8-10-13(5,7-2)15-12(4)14/h7,9H,2,6,8,10H2,1,3-5H3/b11-9+
computed SMILES=O=C(OC(C=C)(C)CCC=C(C)CC)C
date=2016.01.19 (Created 2008.10.21, modified 2011.05.06)
author=SODA AROMATIC CO., LTD.
accession=JP008365
license=CC BY-NC-SA
exact mass=210.16198
ionization energy=70 eV
ion type=[M]+*
computed spectral entropy=3.1775653209628087
computed normalized entropy=0.7965851163781055
SPLASH=splash10-0006-9100000000-673e6d4b2c96c5938675
submitter=submitter = University of Tokyo Team (Faculty of Engineering, University of Tokyo)
MoNA Rating=3.75

>  <NUM PEAKS>  (2584) 
54

>  <MASS SPECTRAL PEAKS>  (2584) 
15 1.95
27 8.02
29 8.86
39 8.25
40 2.29
41 27.57
42 3.23
43 66.53
44 1.64
45 1.25
51 1.39
52 1.52
53 8.16
54 2.13
55 48.59
56 2.73
57 4.72
65 1.95
66 1.3
67 14.85
68 6.2
69 4.52
70 1.16
71 14.67
72 2.29
77 4.64
79 12.6
80 44.73
81 13.06
82 10.16
83 10.88
84 1.58
85 1.17
91 4.77
92 14.34
93 99.99
94 12.25
95 8.82
96 1.88
97 2.37
105 3.35
106 1.36
107 8.12
108 2.01
109 1.66
113 1.38
119 1.28
121 36.27
122 4.05
123 1.72
135 6.27
150 7.83
151 1.88
153 1.14

>  <PREDICTED SPECTRUM>  (2584) 
26 26
27 215
28 78
29 191
38 31
39 296
40 149
41 630
42 170
43 999
44 144
45 117
50 45
51 144
52 121
53 330
54 219
55 579
56 200
57 311
58 32
59 158
60 31
61 24
63 31
64 11
65 218
66 228
67 487
68 400
69 380
70 178
71 496
72 221
73 101
74 18
77 317
78 144
79 466
80 485
81 446
82 289
83 324
84 150
85 92
87 45
91 251
92 330
93 978
94 480
95 336
96 144
97 89
98 62
99 70
100 26
101 12
105 144
106 87
107 414
108 204
109 147
110 69
111 144
112 61
113 70
114 12
119 128
120 114
121 620
122 282
123 121
124 24
126 8
135 237
136 77
137 49
138 25
139 2
149 104
150 304
151 83
152 49
153 22
163 17
168 23

$$$$

     RDKit          2D

  8  8  0  0  0  0  0  0  0  0999 V2000
   -3.0958   -1.4497    0.0000 C   0  0  0  0  0  0  0  0  0  0  0  0
   -0.6043   -2.4006    0.0000 C   0  0  0  0  0  0  0  0  0  0  0  0
    0.7714   -1.7978    0.0000 C   0  0  0  0  0  0  0  0  0  0  0  0
   -1.6041   -1.2923    0.0000 C   0  0  0  0  0  0  0  0  0  0  0  0
    0.6057   -0.3049    0.0000 C   0  0  0  0  0  0  0  0  0  0  0  0
   -0.8541    0.0068    0.0000 C   0  0  0  0  0  0  0  0  0  0  0  0
    1.7179    0.7016    0.0000 O   0  0  0  0  0  0  0  0  0  0  0  0
   -1.4636    1.3774    0.0000 O   0  0  0  0  0  0  0  0  0  0  0  0
  3  2  1  0
  4  1  1  0
  4  2  1  0
  5  3  1  0
  6  4  1  0
  6  5  1  0
  7  5  2  0
  8  6  2  0
M  END
>  <NAME>  (2585) 
METHYL-CYCLOPENTENOLONE

>  <SYNONYMS>  (2585) 
3-METHYLCYCLOPENTANE-1,2-DIONE

>  <SPECTRUM TYPE>  (2585) 
MS1

>  <INSTRUMENT TYPE>  (2585) 
EI-B

>  <INSTRUMENT>  (2585) 
HITACHI M-80B

>  <ION MODE>  (2585) 
P

>  <INCHIKEY>  (2585) 
OACYKCIZDVVNJL-UHFFFAOYSA-N

>  <FORMULA>  (2585) 
C6H8O2

>  <EXACT MASS>  (2585) 
112.052429496

>  <MW>  (2585) 
112

>  <ID>  (2585) 
JP008363

>  <CONTRIBUTOR>  (2585) 
University of Tokyo Team, {Faculty of Engineering, University of Tokyo

>  <COMMENT>  (2585) 
SMILES=CC(C1)C(=O)C(=O)C1
InChI=InChI=1S/C6H8O2/c1-4-2-3-5(7)6(4)8/h4H,2-3H2,1H3
computed SMILES=O=C1C(=O)C(C)CC1
accession=JP008363
date=2016.01.19 (Created 2008.10.21, modified 2011.05.06)
author=SODA AROMATIC CO., LTD.
license=CC BY-NC-SA
exact mass=112.05243
ionization energy=70 eV
ion type=[M]+*
computed spectral entropy=3.0932815646910075
computed normalized entropy=0.8174224507581384
SPLASH=splash10-090u-9100000000-c6c4c4dbdc254a0bd933
submitter=submitter = University of Tokyo Team (Faculty of Engineering, University of Tokyo)
MoNA Rating=3.75

>  <NUM PEAKS>  (2585) 
44

>  <MASS SPECTRAL PEAKS>  (2585) 
15 5.19
25 1.02
26 9.52
27 38.33
28 8.66
29 18.93
30 1.2
31 3.02
37 3.35
38 6.28
39 40.85
40 5.35
41 53.88
42 21.45
43 39.35
44 5.63
45 1.25
49 1.85
50 7.55
51 7.54
52 3.63
53 12.05
54 5.64
55 55.94
56 33.37
57 5.2
63 1.23
65 4.03
66 8.39
67 2.36
68 1.15
69 56.32
70 5.61
71 3.01
81 1.15
82 1.94
83 31.42
84 28.09
85 1.36
95 1.21
97 7.4
111 4.24
112 99.99
113 6.3

>  <PREDICTED SPECTRUM>  (2585) 
14 35
15 50
25 46
26 219
27 455
28 327
29 305
30 20
37 104
38 161
39 359
40 330
41 622
42 516
43 366
50 26
53 212
54 298
55 700
56 584
57 235
58 51
66 63
67 106
68 280
69 450
70 476
71 119
83 394
84 735
85 262
97 253
111 149
112 999
113 272

$$$$

     RDKit          2D

 11 11  0  0  1  0  0  0  0  0999 V2000
    2.9236   -0.9382    0.0000 C   0  0  0  0  0  0  0  0  0  0  0  0
    1.6242    1.3116    0.0000 C   0  0  0  0  0  0  0  0  0  0  0  0
   -4.8712   -0.9380    0.0000 C   0  0  0  0  0  0  0  0  0  0  0  0
   -3.5727    1.3128    0.0000 C   0  0  0  0  0  0  0  0  0  0  0  0
   -2.2736    2.0628    0.0000 C   0  0  0  0  0  0  0  0  0  0  0  0
    0.3255   -0.9386    0.0000 C   0  0  0  0  0  0  0  0  0  0  0  0
   -2.2727   -0.9389    0.0000 C   0  0  0  0  0  0  0  0  0  0  0  0
    1.6245   -0.1884    0.0000 C   0  0  0  0  0  0  0  0  0  0  0  0
   -3.5722   -0.1880    0.0000 C   0  0  0  0  0  0  0  0  0  0  0  0
   -0.9736   -0.1889    0.0000 C   0  0  0  0  0  0  0  0  0  0  0  0
   -0.9741    1.3120    0.0000 O   0  0  0  0  0  0  0  0  0  0  0  0
  5  4  1  0
  8  1  1  0
  8  2  1  0
  8  6  2  0
  9  3  1  6
  9  4  1  0
  9  7  1  0
 10  6  1  1
 10  7  1  0
 11  5  1  0
 11 10  1  0
M  END
>  <NAME>  (2586) 
TRANS-ROSE OXIDE

>  <SYNONYMS>  (2586) 
4-METHYL-TRANS-2-(2-METHYL-1-PROPENYL)PERHYDROPYRAN

>  <SPECTRUM TYPE>  (2586) 
MS1

>  <INSTRUMENT TYPE>  (2586) 
EI-B

>  <INSTRUMENT>  (2586) 
HITACHI M-80B

>  <ION MODE>  (2586) 
P

>  <INCHIKEY>  (2586) 
CZCBTSFUTPZVKJ-ZJUUUORDSA-N

>  <FORMULA>  (2586) 
C10H18O

>  <EXACT MASS>  (2586) 
154.135765196

>  <MW>  (2586) 
154

>  <ID>  (2586) 
JP008362

>  <CONTRIBUTOR>  (2586) 
University of Tokyo Team, {Faculty of Engineering, University of Tokyo

>  <COMMENT>  (2586) 
SMILES=CC(C)=CC([H])(O1)CC([H])(C)CC1
InChI=InChI=1S/C10H18O/c1-8(2)6-10-7-9(3)4-5-11-10/h6,9-10H,4-5,7H2,1-3H3/t9-,10+/m1/s1
computed SMILES=O1CCC(C)CC1C=C(C)C
accession=JP008362
date=2016.01.19 (Created 2008.10.21, modified 2011.05.06)
author=SODA AROMATIC CO., LTD.
license=CC BY-NC-SA
exact mass=154.13577
ionization energy=70 eV
ion type=[M]+*
computed spectral entropy=2.864240721812463
computed normalized entropy=0.7764527839526406
SPLASH=splash10-00kr-9300000000-cf7a2855a1450accc836
submitter=submitter = University of Tokyo Team (Faculty of Engineering, University of Tokyo)
MoNA Rating=3.75

>  <NUM PEAKS>  (2586) 
40

>  <MASS SPECTRAL PEAKS>  (2586) 
15 1.06
27 13.65
29 15.17
31 1.23
32 1.05
39 18.85
40 2.42
41 34.6
42 13.98
43 7.27
51 2.07
53 7
54 2.27
55 29.17
56 8.31
57 1.79
65 1.92
66 1.38
67 11.82
68 1.89
69 60.4
70 3.26
71 1.01
77 2.35
79 2.35
81 2.9
82 4.6
83 27.67
84 13.24
85 12.39
93 1.12
97 3.06
99 1.18
109 1.38
112 2.13
139 99.99
140 9.23
153 1.44
154 10.19
155 1.04

>  <PREDICTED SPECTRUM>  (2586) 
26 42
27 319
28 125
29 229
31 8
37 1
38 64
39 508
40 209
41 947
42 377
43 706
44 61
50 134
51 228
52 136
53 442
54 311
55 875
56 325
57 354
58 201
59 107
62 12
63 64
64 19
65 224
66 139
67 887
68 506
69 715
70 332
71 359
72 183
73 149
77 295
78 121
79 346
80 175
81 583
82 638
83 550
84 316
85 355
86 180
87 30
91 196
92 134
93 335
94 116
95 447
96 345
97 530
98 367
99 208
100 68
105 80
106 1
107 205
108 35
109 252
110 350
111 491
112 231
113 140
119 0
121 233
122 83
123 172
124 135
125 268
126 173
136 152
137 163
138 113
139 999
140 303
152 147
153 310
154 808
155 249

$$$$

     RDKit          2D

 11 11  0  0  0  0  0  0  0  0999 V2000
    2.9236   -0.9382    0.0000 C   0  0  0  0  0  0  0  0  0  0  0  0
    1.6242    1.3116    0.0000 C   0  0  0  0  0  0  0  0  0  0  0  0
   -4.8712   -0.9380    0.0000 C   0  0  0  0  0  0  0  0  0  0  0  0
   -3.5727    1.3128    0.0000 C   0  0  0  0  0  0  0  0  0  0  0  0
   -2.2736    2.0628    0.0000 C   0  0  0  0  0  0  0  0  0  0  0  0
    0.3255   -0.9386    0.0000 C   0  0  0  0  0  0  0  0  0  0  0  0
   -2.2727   -0.9389    0.0000 C   0  0  0  0  0  0  0  0  0  0  0  0
    1.6245   -0.1884    0.0000 C   0  0  0  0  0  0  0  0  0  0  0  0
   -3.5722   -0.1880    0.0000 C   0  0  0  0  0  0  0  0  0  0  0  0
   -0.9736   -0.1889    0.0000 C   0  0  0  0  0  0  0  0  0  0  0  0
   -0.9741    1.3120    0.0000 O   0  0  0  0  0  0  0  0  0  0  0  0
  5  4  1  0
  8  1  1  0
  8  2  1  0
  8  6  2  0
  9  3  1  0
  9  4  2  0
  9  7  1  0
 10  6  1  0
 10  7  1  0
 11  5  1  0
 11 10  1  0
M  END
>  <NAME>  (2587) 
NEROL OXIDE

>  <SYNONYMS>  (2587) 
4-METHYL-2-(2-METHYL-1-PROPENYL)-2,3-DIHYDROPYRAN

>  <SPECTRUM TYPE>  (2587) 
MS1

>  <INSTRUMENT TYPE>  (2587) 
EI-B

>  <INSTRUMENT>  (2587) 
HITACHI M-80B

>  <ION MODE>  (2587) 
P

>  <INCHIKEY>  (2587) 
FRISMOQHTLZZRP-UHFFFAOYSA-N

>  <FORMULA>  (2587) 
C10H16O

>  <EXACT MASS>  (2587) 
152.120115132

>  <MW>  (2587) 
152

>  <ID>  (2587) 
JP008360

>  <CONTRIBUTOR>  (2587) 
University of Tokyo Team, {Faculty of Engineering, University of Tokyo

>  <COMMENT>  (2587) 
SMILES=CC(C)=CC(O1)CC(C)=CC1
InChI=InChI=1S/C10H16O/c1-8(2)6-10-7-9(3)4-5-11-10/h4,6,10H,5,7H2,1-3H3
computed SMILES=O1CC=C(C)CC1C=C(C)C
accession=JP008360
date=2016.01.19 (Created 2008.10.21, modified 2011.05.06)
author=SODA AROMATIC CO., LTD.
license=CC BY-NC-SA
exact mass=152.12012
ionization energy=70 eV
ion type=[M]+*
computed spectral entropy=2.8132694334665205
computed normalized entropy=0.7850577830847361
SPLASH=splash10-014i-9000000000-c7728956a05defa6ddc5
submitter=submitter = University of Tokyo Team (Faculty of Engineering, University of Tokyo)
MoNA Rating=3.75

>  <NUM PEAKS>  (2587) 
36

>  <MASS SPECTRAL PEAKS>  (2587) 
15 1.06
27 14.02
29 9.83
39 21.87
40 7.67
41 29.51
42 4.27
43 5
50 1.11
51 3.12
52 1.63
53 20.43
54 1.93
55 14.53
56 3.35
57 1.09
65 2.83
66 2.84
67 52.53
68 99.99
69 14.79
77 3.13
79 3.17
81 6.44
82 5.18
83 64.78
84 5.02
85 24.35
91 3.19
93 1.73
94 1.53
95 5.12
96 7.81
97 2.01
109 4.74
152 5.12

>  <PREDICTED SPECTRUM>  (2587) 
18 9
26 109
27 482
28 217
29 365
30 103
31 51
32 4
37 38
38 123
39 701
40 316
41 942
42 347
43 861
44 145
50 232
51 389
52 297
53 677
54 353
55 613
56 253
57 217
58 42
62 81
63 189
64 68
65 416
66 321
67 999
68 544
69 563
70 383
71 359
72 128
74 7
75 12
76 45
77 461
78 235
79 622
80 286
81 626
82 375
83 367
84 324
85 214
86 35
88 5
89 77
90 31
91 553
92 229
93 448
94 536
95 481
96 205
97 208
98 45
103 85
104 111
105 255
106 94
107 338
108 231
109 546
110 210
111 42
115 19
117 26
119 396
120 210
121 173
122 139
123 199
124 66
125 33
133 152
134 358
135 96
137 733
138 248
151 173
152 563
153 195

$$$$

     RDKit          2D

 14 14  0  0  0  0  0  0  0  0999 V2000
   -1.8622    0.2382    0.0000 C   0  0  0  0  0  0  0  0  0  0  0  0
   -0.5639   -0.5131    0.0000 C   0  0  0  0  0  0  0  0  0  0  0  0
    0.7359    0.2356    0.0000 C   0  0  0  0  0  0  0  0  0  0  0  0
    2.0341   -0.5158    0.0000 C   0  0  0  0  0  0  0  0  0  0  0  0
   10.1618    2.0261    0.0000 C   0  0  0  0  0  0  0  0  0  0  0  0
    8.6946    1.7143    0.0000 C   0  0  0  0  0  0  0  0  0  0  0  0
    3.3339    0.2329    0.0000 C   0  0  0  0  0  0  0  0  0  0  0  0
   10.9070    0.7328    0.0000 C   0  0  0  0  0  0  0  0  0  0  0  0
    7.2303   -0.5211    0.0000 C   0  0  0  0  0  0  0  0  0  0  0  0
    8.5301    0.2276    0.0000 C   0  0  0  0  0  0  0  0  0  0  0  0
    4.6322   -0.5184    0.0000 C   0  0  0  0  0  0  0  0  0  0  0  0
    4.6307   -2.0184    0.0000 O   0  0  0  0  0  0  0  0  0  0  0  0
    9.9064   -0.3795    0.0000 O   0  0  0  0  0  0  0  0  0  0  0  0
    5.9320    0.2302    0.0000 O   0  0  0  0  0  0  0  0  0  0  0  0
  2  1  1  0
  3  2  1  0
  4  3  1  0
  6  5  1  0
  7  4  1  0
  8  5  2  0
 10  6  2  0
 10  9  1  0
 11  7  1  0
 12 11  2  0
 13  8  1  0
 13 10  1  0
 14  9  1  0
 14 11  1  0
M  END
>  <NAME>  (2588) 
FURFURYL HEXANOATE

>  <SYNONYMS>  (2588) 


>  <SPECTRUM TYPE>  (2588) 
MS1

>  <INSTRUMENT TYPE>  (2588) 
EI-B

>  <INSTRUMENT>  (2588) 
HITACHI M-80B

>  <ION MODE>  (2588) 
P

>  <INCHIKEY>  (2588) 
IBIDUABZZSJJNF-UHFFFAOYSA-N

>  <FORMULA>  (2588) 
C11H16O3

>  <EXACT MASS>  (2588) 
196.10994437199997

>  <MW>  (2588) 
196

>  <ID>  (2588) 
JP008359

>  <CONTRIBUTOR>  (2588) 
University of Tokyo Team, {Faculty of Engineering, University of Tokyo

>  <COMMENT>  (2588) 
SMILES=CCCCCC(=O)OCc(c1)occ1
InChI=InChI=1S/C11H16O3/c1-2-3-4-7-11(12)14-9-10-6-5-8-13-10/h5-6,8H,2-4,7,9H2,1H3
computed SMILES=O=C(OCC=1OC=CC1)CCCCC
accession=JP008359
date=2016.01.19 (Created 2008.10.21, modified 2011.05.06)
author=SODA AROMATIC CO., LTD.
license=CC BY-NC-SA
exact mass=196.10994
ionization energy=70 eV
ion type=[M]+*
computed spectral entropy=2.4771010351477556
computed normalized entropy=0.7602908650005824
SPLASH=splash10-001i-9000000000-21a62d33c27139aa3108
submitter=submitter = University of Tokyo Team (Faculty of Engineering, University of Tokyo)
MoNA Rating=3.75

>  <NUM PEAKS>  (2588) 
26

>  <MASS SPECTRAL PEAKS>  (2588) 
26 1.07
27 11.56
29 6.22
38 1.37
39 8.11
41 8.78
42 3.08
43 14.4
50 1.3
51 2.62
52 12
53 15.18
54 1.04
55 2.94
69 2.72
70 1.15
71 6.16
80 8.77
81 99.99
82 11.1
95 2.25
96 1.31
97 4.2
98 23.48
99 8.15
196 9.5

>  <PREDICTED SPECTRUM>  (2588) 
14 1
15 9
25 2
26 71
27 196
28 82
29 214
37 38
38 84
39 266
40 128
41 325
42 162
43 545
44 46
45 18
50 75
51 158
52 195
53 438
54 204
55 282
56 53
57 83
63 20
64 52
65 67
66 51
68 162
69 241
70 31
71 316
72 115
73 11
77 2
78 15
79 122
80 146
81 999
82 171
83 106
84 28
94 129
97 167
98 206
99 186
115 87
125 161
126 38
196 230
197 61

$$$$

     RDKit          2D

 19 19  0  0  0  0  0  0  0  0999 V2000
    4.8721    3.8829    0.0000 C   0  0  0  0  0  0  0  0  0  0  0  0
    0.9750   -1.3671    0.0000 C   0  0  0  0  0  0  0  0  0  0  0  0
    3.5731    3.1329    0.0000 C   0  0  0  0  0  0  0  0  0  0  0  0
   -0.3240   -0.6171    0.0000 C   0  0  0  0  0  0  0  0  0  0  0  0
    2.2740    3.8829    0.0000 C   0  0  0  0  0  0  0  0  0  0  0  0
   -8.1183    5.3829    0.0000 C   0  0  0  0  0  0  0  0  0  0  0  0
    0.9750    3.1329    0.0000 C   0  0  0  0  0  0  0  0  0  0  0  0
   -8.1187    3.8821    0.0000 C   0  0  0  0  0  0  0  0  0  0  0  0
   -6.8187    6.1337    0.0000 C   0  0  0  0  0  0  0  0  0  0  0  0
   -6.8197    3.1321    0.0000 C   0  0  0  0  0  0  0  0  0  0  0  0
   -5.5197    5.3837    0.0000 C   0  0  0  0  0  0  0  0  0  0  0  0
   -0.3240    3.8829    0.0000 C   0  0  0  0  0  0  0  0  0  0  0  0
   -4.2212    3.1329    0.0000 C   0  0  0  0  0  0  0  0  0  0  0  0
   -2.9221    3.8829    0.0000 C   0  0  0  0  0  0  0  0  0  0  0  0
   -5.5202    3.8829    0.0000 C   0  0  0  0  0  0  0  0  0  0  0  0
   -1.6231    3.1329    0.0000 C   0  0  0  0  0  0  0  0  0  0  0  0
   -0.3240    0.8829    0.0000 C   0  0  0  0  0  0  0  0  0  0  0  0
    0.9750    1.6329    0.0000 O   0  0  0  0  0  0  0  0  0  0  0  0
   -1.6231    1.6329    0.0000 O   0  0  0  0  0  0  0  0  0  0  0  0
  3  1  1  0
  4  2  1  0
  5  3  1  0
  7  5  1  0
  8  6  2  0
  9  6  1  0
 10  8  1  0
 11  9  2  0
 12  7  1  0
 13 14  2  0
 15 10  2  0
 15 11  1  0
 15 13  1  0
 16 12  1  0
 16 14  1  0
 17  4  1  0
 18 17  2  0
 19 16  1  0
 19 17  1  0
M  END
>  <NAME>  (2589) 
ALPHA-AMYLCINNAMYL PROPIONATE

>  <SYNONYMS>  (2589) 
2-BENZYLIDENEHEPTYL PROPIONATE

>  <SPECTRUM TYPE>  (2589) 
MS1

>  <INSTRUMENT TYPE>  (2589) 
EI-B

>  <INSTRUMENT>  (2589) 
HITACHI M-80B

>  <ION MODE>  (2589) 
P

>  <INCHIKEY>  (2589) 
RAADGNMQUXTRCK-BUHFOSPRSA-N

>  <FORMULA>  (2589) 
C17H24O2

>  <EXACT MASS>  (2589) 
260.177630008

>  <MW>  (2589) 
260

>  <ID>  (2589) 
JP008358

>  <CONTRIBUTOR>  (2589) 
University of Tokyo Team, {Faculty of Engineering, University of Tokyo

>  <COMMENT>  (2589) 
SMILES=CCCCCC(OC(=O)CC)C([H])=C([H])c(c1)cccc1
InChI=InChI=1S/C17H24O2/c1-3-5-7-12-16(19-17(18)4-2)14-13-15-10-8-6-9-11-15/h6,8-11,13-14,16H,3-5,7,12H2,1-2H3/b14-13+
computed SMILES=O=C(OC(C=CC=1C=CC=CC1)CCCCC)CC
accession=JP008358
date=2016.01.19 (Created 2008.10.21, modified 2011.05.06)
author=SODA AROMATIC CO., LTD.
license=CC BY-NC-SA
exact mass=260.17763
ionization energy=70 eV
ion type=[M]+*
computed spectral entropy=3.2829058977343015
computed normalized entropy=0.7807719124566633
SPLASH=splash10-004i-7900000000-1b34d9ccd82b3e1c4c0d
submitter=submitter = University of Tokyo Team (Faculty of Engineering, University of Tokyo)
MoNA Rating=3.75

>  <NUM PEAKS>  (2589) 
67

>  <MASS SPECTRAL PEAKS>  (2589) 
26 1.31
27 21.48
29 82.28
30 1.9
31 1.21
39 7.38
41 20.41
42 1.4
43 10.33
51 3.57
52 1.16
53 2.92
55 7.48
56 1.52
57 99.99
58 2.92
63 3.19
65 5.02
67 2.43
69 2.38
71 1.31
75 1.67
76 1.19
77 5.33
78 4.57
79 3.46
81 1.22
82 1.47
89 2.5
91 44.56
92 5.71
95 5.58
99 2.74
102 2.25
103 3.13
104 5.55
105 5.82
113 1.03
114 1.01
115 34.67
116 15.9
117 23.81
118 3.01
127 6.88
128 27.26
129 90.62
130 77.52
131 18.1
132 1.45
133 6.5
134 1.06
141 3.26
142 2.79
143 46.8
144 14.93
145 3.36
147 5.22
148 2.11
157 4.28
158 1.08
171 2.29
186 20.99
187 4.74
203 4.5
204 6.51
205 1.13
260 1.26

>  <PREDICTED SPECTRUM>  (2589) 
14 0
15 22
16 19
18 8
26 56
27 238
28 140
29 477
30 67
31 51
38 37
39 280
40 63
41 447
42 121
43 283
44 67
50 106
51 217
52 119
53 143
54 55
55 286
56 179
57 960
58 146
59 28
63 111
64 68
65 233
66 80
67 116
69 165
70 62
71 161
72 30
74 91
75 107
76 143
77 288
78 220
79 97
80 10
81 154
82 40
83 77
84 8
85 93
86 36
89 76
90 13
91 579
92 189
93 50
95 113
96 20
97 2
98 23
99 13
102 202
103 221
104 342
105 206
106 47
107 33
108 5
109 87
113 20
114 21
115 541
116 209
117 460
118 157
119 149
120 63
121 20
127 120
128 420
129 999
130 821
131 449
132 157
133 332
134 122
141 241
142 282
143 674
144 402
145 111
146 38
147 159
148 191
149 69
157 232
158 234
159 186
160 55
161 124
162 38
168 10
169 19
171 84
185 82
186 444
187 216
188 97
189 16
203 109
204 207
205 28
260 130
261 18

$$$$

     RDKit          2D

 16 16  0  0  0  0  0  0  0  0999 V2000
    5.5216    4.2579    0.0000 C   0  0  0  0  0  0  0  0  0  0  0  0
    4.2226    5.0079    0.0000 C   0  0  0  0  0  0  0  0  0  0  0  0
    2.9236    4.2579    0.0000 C   0  0  0  0  0  0  0  0  0  0  0  0
   -8.7678    6.5079    0.0000 C   0  0  0  0  0  0  0  0  0  0  0  0
    1.6245    5.0079    0.0000 C   0  0  0  0  0  0  0  0  0  0  0  0
   -8.7683    5.0071    0.0000 C   0  0  0  0  0  0  0  0  0  0  0  0
   -7.4683    7.2587    0.0000 C   0  0  0  0  0  0  0  0  0  0  0  0
   -7.4692    4.2571    0.0000 C   0  0  0  0  0  0  0  0  0  0  0  0
   -6.1692    6.5087    0.0000 C   0  0  0  0  0  0  0  0  0  0  0  0
    0.3255    4.2579    0.0000 C   0  0  0  0  0  0  0  0  0  0  0  0
   -4.8707    4.2579    0.0000 C   0  0  0  0  0  0  0  0  0  0  0  0
   -3.5716    5.0079    0.0000 C   0  0  0  0  0  0  0  0  0  0  0  0
   -6.1697    5.0079    0.0000 C   0  0  0  0  0  0  0  0  0  0  0  0
   -0.9736    5.0079    0.0000 C   0  0  0  0  0  0  0  0  0  0  0  0
   -0.9736    6.5079    0.0000 O   0  0  0  0  0  0  0  0  0  0  0  0
   -2.2726    4.2579    0.0000 O   0  0  0  0  0  0  0  0  0  0  0  0
  2  1  1  0
  3  2  1  0
  5  3  1  0
  6  4  2  0
  7  4  1  0
  8  6  1  0
  9  7  2  0
  5 10  2  0
 12 11  1  0
 13  8  2  0
 13  9  1  0
 13 11  1  0
 14 10  1  0
 15 14  2  0
 16 12  1  0
 16 14  1  0
M  END
>  <NAME>  (2590) 
PHENYLETHYL TRANS-2-HEXENOATE

>  <SYNONYMS>  (2590) 


>  <SPECTRUM TYPE>  (2590) 
MS1

>  <INSTRUMENT TYPE>  (2590) 
EI-B

>  <INSTRUMENT>  (2590) 
HITACHI M-80B

>  <ION MODE>  (2590) 
P

>  <INCHIKEY>  (2590) 
CPLGJUPSPDLRLM-BJMVGYQFSA-N

>  <FORMULA>  (2590) 
C14H18O2

>  <EXACT MASS>  (2590) 
218.130679816

>  <MW>  (2590) 
218

>  <ID>  (2590) 
JP008357

>  <CONTRIBUTOR>  (2590) 
University of Tokyo Team, {Faculty of Engineering, University of Tokyo

>  <COMMENT>  (2590) 
SMILES=CCCC=CC(=O)OCCc(c1)cccc1
InChI=InChI=1S/C14H18O2/c1-2-3-5-10-14(15)16-12-11-13-8-6-4-7-9-13/h4-10H,2-3,11-12H2,1H3/b10-5+
computed SMILES=O=C(OCCC=1C=CC=CC1)C=CCCC
accession=JP008357
date=2016.01.19 (Created 2008.10.21, modified 2011.05.06)
author=SODA AROMATIC CO., LTD.
license=CC BY-NC-SA
exact mass=218.13068
ionization energy=70 eV
ion type=[M]+*
computed spectral entropy=1.9387035063347684
computed normalized entropy=0.6584288280559335
SPLASH=splash10-0udi-6900000000-265495e62735b4196617
submitter=submitter = University of Tokyo Team (Faculty of Engineering, University of Tokyo)
MoNA Rating=3.75

>  <NUM PEAKS>  (2590) 
19

>  <MASS SPECTRAL PEAKS>  (2590) 
27 4.72
39 5.76
41 8.47
42 1.36
51 2.08
53 1.36
55 22.69
65 2.6
68 2.24
69 1.45
77 4.67
78 2.16
79 2.39
91 5.44
97 16.36
98 1.06
103 2.92
104 99.99
105 14.83

>  <PREDICTED SPECTRUM>  (2590) 
26 29
27 105
29 52
36 4
38 23
39 192
40 77
41 171
42 102
43 171
44 63
45 6
49 4
50 111
51 164
52 109
53 112
54 154
55 234
56 81
57 62
62 21
63 97
64 42
65 200
66 51
67 67
68 125
69 145
70 66
73 47
74 36
75 36
76 47
77 162
78 155
79 120
81 23
82 26
89 97
90 20
91 207
92 101
96 17
97 250
98 29
99 83
102 18
103 170
104 999
105 410
106 56
128 23
161 30
175 43

$$$$

     RDKit          2D

 15 15  0  0  0  0  0  0  0  0999 V2000
    4.8721    3.8829    0.0000 C   0  0  0  0  0  0  0  0  0  0  0  0
    3.5731    3.1329    0.0000 C   0  0  0  0  0  0  0  0  0  0  0  0
    2.2740    3.8829    0.0000 C   0  0  0  0  0  0  0  0  0  0  0  0
   -8.1183    5.3829    0.0000 C   0  0  0  0  0  0  0  0  0  0  0  0
    0.9750    3.1329    0.0000 C   0  0  0  0  0  0  0  0  0  0  0  0
   -8.1187    3.8821    0.0000 C   0  0  0  0  0  0  0  0  0  0  0  0
   -6.8187    6.1337    0.0000 C   0  0  0  0  0  0  0  0  0  0  0  0
   -6.8197    3.1321    0.0000 C   0  0  0  0  0  0  0  0  0  0  0  0
   -5.5197    5.3837    0.0000 C   0  0  0  0  0  0  0  0  0  0  0  0
   -0.3240    3.8829    0.0000 C   0  0  0  0  0  0  0  0  0  0  0  0
   -4.2212    3.1329    0.0000 C   0  0  0  0  0  0  0  0  0  0  0  0
   -5.5202    3.8829    0.0000 C   0  0  0  0  0  0  0  0  0  0  0  0
   -1.6231    3.1329    0.0000 C   0  0  0  0  0  0  0  0  0  0  0  0
   -1.6231    1.6329    0.0000 O   0  0  0  0  0  0  0  0  0  0  0  0
   -2.9221    3.8829    0.0000 O   0  0  0  0  0  0  0  0  0  0  0  0
  2  1  1  0
  3  2  1  0
  5  3  1  0
  6  4  2  0
  7  4  1  0
  8  6  1  0
  9  7  2  0
  5 10  2  0
 12  8  2  0
 12  9  1  0
 12 11  1  0
 13 10  1  0
 14 13  2  0
 15 11  1  0
 15 13  1  0
M  END
>  <NAME>  (2591) 
BENZYL TRANS-2-HEXENOATE

>  <SYNONYMS>  (2591) 


>  <SPECTRUM TYPE>  (2591) 
MS1

>  <INSTRUMENT TYPE>  (2591) 
EI-B

>  <INSTRUMENT>  (2591) 
HITACHI M-80B

>  <ION MODE>  (2591) 
P

>  <INCHIKEY>  (2591) 
DLYYFHZPEQEPLG-BJMVGYQFSA-N

>  <FORMULA>  (2591) 
C13H16O2

>  <EXACT MASS>  (2591) 
204.115029752

>  <MW>  (2591) 
204

>  <ID>  (2591) 
JP008356

>  <CONTRIBUTOR>  (2591) 
University of Tokyo Team, {Faculty of Engineering, University of Tokyo

>  <COMMENT>  (2591) 
SMILES=CCCC=CC(=O)OCc(c1)cccc1
InChI=InChI=1S/C13H16O2/c1-2-3-5-10-13(14)15-11-12-8-6-4-7-9-12/h4-10H,2-3,11H2,1H3/b10-5+
computed SMILES=O=C(OCC=1C=CC=CC1)C=CCCC
accession=JP008356
date=2016.01.19 (Created 2008.10.21, modified 2011.05.06)
author=SODA AROMATIC CO., LTD.
license=CC BY-NC-SA
exact mass=204.11503
ionization energy=70 eV
ion type=[M]+*
computed spectral entropy=3.0933463223219944
computed normalized entropy=0.768466101841913
SPLASH=splash10-0007-9100000000-56b3b52ee5b9e6fd856b
submitter=submitter = University of Tokyo Team (Faculty of Engineering, University of Tokyo)
MoNA Rating=3.75

>  <NUM PEAKS>  (2591) 
56

>  <MASS SPECTRAL PEAKS>  (2591) 
14 7.24
27 10.08
38 1.98
39 14.93
41 15.21
42 3.36
43 1
45 1.14
50 2.01
51 7.35
52 2.86
53 3.72
54 1.35
55 49.12
56 2.54
63 4.06
65 13.56
66 1.69
67 1.78
68 5.26
69 3.71
70 1.26
77 8.5
78 2.42
79 8.76
80 1.07
81 1.93
83 1.51
89 5.43
90 9.08
91 99.99
92 6.83
97 80.26
98 5.83
105 3.16
107 9.71
108 4.19
113 1.23
115 3.68
117 7.03
118 1.31
129 2.58
131 1.82
132 1.37
133 4.08
144 6.76
145 1.54
147 4.04
148 6.75
157 1.16
158 1.31
159 2.94
161 5.79
162 3.22
204 5.38
205 1.09

>  <PREDICTED SPECTRUM>  (2591) 
26 48
27 128
29 92
36 5
37 0
38 67
39 259
40 136
41 321
42 192
43 262
44 60
45 5
50 115
51 201
52 129
53 157
54 153
55 358
56 127
61 25
62 65
63 134
64 80
65 314
66 130
67 174
68 122
69 214
70 170
71 101
72 24
74 2
75 56
76 59
77 221
78 119
79 213
80 63
81 133
82 141
83 91
88 1
89 166
90 199
91 999
92 345
93 75
95 71
96 29
97 458
98 379
99 193
100 37
104 40
105 100
106 43
107 187
108 149
113 124
114 33
115 30
116 36
117 16
118 15
129 3
131 5
132 36
133 16
143 20
144 90
145 7
147 3
158 74
159 199
160 66
161 46
175 60
186 48
187 28
204 196
205 63

$$$$

     RDKit          2D

 13 14  0  0  0  0  0  0  0  0999 V2000
    1.3259   -2.1785    0.0000 C   0  0  0  0  0  0  0  0  0  0  0  0
    2.2869   -0.5080    0.0000 C   0  0  0  0  0  0  0  0  0  0  0  0
   -1.7800    0.7300    0.0000 C   0  0  0  0  0  0  0  0  0  0  0  0
   -1.7800   -0.7700    0.0000 C   0  0  0  0  0  0  0  0  0  0  0  0
   -0.4800   -0.0200    0.0000 C   0  0  0  0  0  0  0  0  0  0  0  0
   -0.4775    2.9800    0.0000 C   0  0  0  0  0  0  0  0  0  0  0  0
   -1.7728    5.2322    0.0000 C   0  0  0  0  0  0  0  0  0  0  0  0
   -0.4800    1.4800    0.0000 C   0  0  0  0  0  0  0  0  0  0  0  0
   -0.4800   -1.5200    0.0000 C   0  0  0  0  0  0  0  0  0  0  0  0
    0.8100    0.7300    0.0000 C   0  0  0  0  0  0  0  0  0  0  0  0
    0.8100   -0.7700    0.0000 C   0  0  0  0  0  0  0  0  0  0  0  0
   -3.0705    5.9843    0.0000 O   0  0  0  0  0  0  0  0  0  0  0  0
   -1.7753    3.7322    0.0000 O   0  0  0  0  0  0  0  0  0  0  0  0
  4  3  1  0
  8  3  2  0
  8  6  1  0
  9  4  1  0
  9  5  1  0
 10  5  1  0
 10  8  1  0
 11  1  1  0
 11  2  1  0
 11  9  1  0
 11 10  1  0
 12  7  2  0
 13  6  1  0
 13  7  1  0
M  END
>  <NAME>  (2592) 
MYRTENYL FORMATE

>  <SYNONYMS>  (2592) 
FORMIC ACID MYRTENYL ESTER

>  <SPECTRUM TYPE>  (2592) 
MS1

>  <INSTRUMENT TYPE>  (2592) 
EI-B

>  <INSTRUMENT>  (2592) 
HITACHI M-80B

>  <ION MODE>  (2592) 
P

>  <INCHIKEY>  (2592) 
QHPJGDWWLWJMPM-UHFFFAOYSA-N

>  <FORMULA>  (2592) 
C11H16O2

>  <EXACT MASS>  (2592) 
180.115029752

>  <MW>  (2592) 
180

>  <ID>  (2592) 
JP008355

>  <CONTRIBUTOR>  (2592) 
University of Tokyo Team, {Faculty of Engineering, University of Tokyo

>  <COMMENT>  (2592) 
SMILES=O=COCC(=C2)C(C1)C(C)(C)C(C2)1
InChI=InChI=1S/C11H16O2/c1-11(2)9-4-3-8(6-13-7-12)10(11)5-9/h3,7,9-10H,4-6H2,1-2H3
computed SMILES=O=COCC1=CCC2CC1C2(C)C
accession=JP008355
date=2016.01.19 (Created 2008.10.21, modified 2011.05.06)
author=SODA AROMATIC CO., LTD.
license=CC BY-NC-SA
exact mass=180.11503
ionization energy=70 eV
ion type=[M]+*
computed spectral entropy=2.974067227709988
computed normalized entropy=0.7812794634938682
SPLASH=splash10-0006-9200000000-3fdb69148a6dde9d4d4e
submitter=submitter = University of Tokyo Team (Faculty of Engineering, University of Tokyo)
MoNA Rating=3.75

>  <NUM PEAKS>  (2592) 
45

>  <MASS SPECTRAL PEAKS>  (2592) 
27 5.98
29 6.17
31 3.23
39 9.22
40 1.53
41 16.45
42 1.15
43 7.32
51 3.28
52 1.52
53 7.3
55 5.52
57 1.05
63 1.29
65 4.97
66 1.59
67 4.53
68 1.99
69 2.14
77 12.17
78 7.08
79 17.41
80 2.13
81 2.22
90 2.43
91 99.99
92 27.46
93 12.49
94 1.15
95 1.24
103 1.7
104 1.1
105 8.22
106 3.09
107 3.17
108 8.64
109 1.13
115 1.04
117 1.88
119 25.55
120 2.22
121 2.17
134 9.56
135 1.7
136 3.58

>  <PREDICTED SPECTRUM>  (2592) 
26 36
27 183
28 32
29 198
30 16
31 26
38 9
39 242
40 99
41 383
42 58
43 130
44 36
45 48
46 0
50 64
51 124
52 58
53 169
54 59
55 119
56 68
57 83
58 40
59 9
62 21
63 121
64 58
65 241
66 111
67 196
68 62
69 98
75 18
77 363
78 129
79 367
80 145
81 144
82 41
83 64
89 88
90 69
91 999
92 558
93 298
94 121
95 113
96 72
102 17
103 87
104 94
105 232
106 143
107 200
108 185
109 96
115 2
117 75
119 534
120 80
121 58
123 15
134 437
135 155
136 162
137 77
151 5
180 6

$$$$

     RDKit          2D

 14 15  0  0  0  0  0  0  0  0999 V2000
    2.5986    1.0700    0.0000 C   0  0  0  0  0  0  0  0  0  0  0  0
   -5.1957    1.0700    0.0000 C   0  0  0  0  0  0  0  0  0  0  0  0
    2.5990    2.5708    0.0000 C   0  0  0  0  0  0  0  0  0  0  0  0
    1.2990    0.3192    0.0000 C   0  0  0  0  0  0  0  0  0  0  0  0
   -3.8962    0.3192    0.0000 C   0  0  0  0  0  0  0  0  0  0  0  0
   -5.1962    2.5708    0.0000 C   0  0  0  0  0  0  0  0  0  0  0  0
    1.3000    3.3208    0.0000 C   0  0  0  0  0  0  0  0  0  0  0  0
    0.0000    1.0692    0.0000 C   0  0  0  0  0  0  0  0  0  0  0  0
   -2.5971    1.0692    0.0000 C   0  0  0  0  0  0  0  0  0  0  0  0
   -3.8971    3.3208    0.0000 C   0  0  0  0  0  0  0  0  0  0  0  0
    0.0005    2.5700    0.0000 C   0  0  0  0  0  0  0  0  0  0  0  0
   -2.5976    2.5700    0.0000 C   0  0  0  0  0  0  0  0  0  0  0  0
   -1.2986    3.3200    0.0000 C   0  0  0  0  0  0  0  0  0  0  0  0
   -1.2986    4.8200    0.0000 O   0  0  0  0  0  0  0  0  0  0  0  0
  3  1  2  0
  4  1  1  0
  5  2  2  0
  6  2  1  0
  7  3  1  0
  8  4  2  0
  9  5  1  0
 10  6  2  0
 11  7  2  0
 11  8  1  0
 12  9  2  0
 12 10  1  0
 13 11  1  0
 13 12  1  0
 14 13  2  0
M  END
>  <NAME>  (2593) 
BENZOPHENONE

>  <SYNONYMS>  (2593) 
DIPHENYL KETONE

>  <SPECTRUM TYPE>  (2593) 
MS1

>  <INSTRUMENT TYPE>  (2593) 
EI-B

>  <INSTRUMENT>  (2593) 
HITACHI M-60

>  <ION MODE>  (2593) 
P

>  <INCHIKEY>  (2593) 
RWCCWEUUXYIKHB-UHFFFAOYSA-N

>  <FORMULA>  (2593) 
C13H10O

>  <EXACT MASS>  (2593) 
182.07316494

>  <MW>  (2593) 
182

>  <ID>  (2593) 
JP008354

>  <CONTRIBUTOR>  (2593) 
University of Tokyo Team, {Faculty of Engineering, University of Tokyo

>  <COMMENT>  (2593) 
SMILES=c(c2)ccc(c2)C(=O)c(c1)cccc1
InChI=InChI=1S/C13H10O/c14-13(11-7-3-1-4-8-11)12-9-5-2-6-10-12/h1-10H
computed SMILES=O=C(C=1C=CC=CC1)C=2C=CC=CC2
accession=JP008354
date=2016.01.19 (Created 2008.10.21, modified 2011.05.06)
author=UBE SCIENTIFIC ANALYSIS LABORATORY
license=CC BY-NC-SA
exact mass=182.07316
ionization energy=70 eV
ion type=[M]+*
computed spectral entropy=2.047351184755518
computed normalized entropy=0.6834226151746999
SPLASH=splash10-0a6r-6900000000-7c028c0aa3b44d2ee6be
submitter=submitter = University of Tokyo Team (Faculty of Engineering, University of Tokyo)
MoNA Rating=3.75

>  <NUM PEAKS>  (2593) 
20

>  <MASS SPECTRAL PEAKS>  (2593) 
27 1.37
39 1.5
50 8.45
51 31.02
52 2.25
63 1.59
74 3.14
75 3.03
76 4.98
77 62.82
78 5.45
105 99.99
106 7.13
151 1.12
152 2.78
153 1.76
154 1.7
181 6.02
182 46.24
183 6.79

>  <PREDICTED SPECTRUM>  (2593) 
26 6
27 57
28 8
29 48
38 40
39 148
49 51
50 282
51 566
52 119
53 68
55 31
62 64
63 117
64 4
65 72
66 3
69 13
74 121
75 143
76 228
77 941
78 227
81 7
85 32
87 9
98 14
104 55
105 999
106 332
107 31
126 12
139 12
151 4
152 117
153 117
154 105
165 67
181 257
182 751
183 366
184 41

$$$$

     RDKit          2D

 37 32  0  0  0  0  0  0  0  0999 V2000
    3.8971    6.7500    0.0000 C   0  0  0  0  0  0  0  0  0  0  0  0
    2.5981    7.5000    0.0000 C   0  0  0  0  0  0  0  0  0  0  0  0
    1.2990    6.7500    0.0000 C   0  0  0  0  0  0  0  0  0  0  0  0
    0.0000    7.5000    0.0000 C   0  0  0  0  0  0  0  0  0  0  0  0
   -1.2990    6.7500    0.0000 C   0  0  0  0  0  0  0  0  0  0  0  0
   -2.5981    7.5000    0.0000 C   0  0  0  0  0  0  0  0  0  0  0  0
   -3.8971    6.7500    0.0000 C   0  0  0  0  0  0  0  0  0  0  0  0
   -5.1962    7.5000    0.0000 C   0  0  0  0  0  0  0  0  0  0  0  0
   -6.4952    6.7500    0.0000 C   0  0  0  0  0  0  0  0  0  0  0  0
   -7.7942    7.5000    0.0000 C   0  0  0  0  0  0  0  0  0  0  0  0
   -9.0933    6.7500    0.0000 C   0  0  0  0  0  0  0  0  0  0  0  0
  -10.3923    7.5000    0.0000 C   0  0  0  0  0  0  0  0  0  0  0  0
  -11.6913    6.7500    0.0000 O   0  0  0  0  0  0  0  0  0  0  0  0
  -10.3923    9.0000    0.0000 O   0  0  0  0  0  0  0  0  0  0  0  0
    3.8971    6.7500    0.0000 C   0  0  0  0  0  0  0  0  0  0  0  0
    2.5981    7.5000    0.0000 C   0  0  0  0  0  0  0  0  0  0  0  0
    1.2990    6.7500    0.0000 C   0  0  0  0  0  0  0  0  0  0  0  0
    0.0000    7.5000    0.0000 C   0  0  0  0  0  0  0  0  0  0  0  0
   -1.2990    6.7500    0.0000 C   0  0  0  0  0  0  0  0  0  0  0  0
   -2.5981    7.5000    0.0000 C   0  0  0  0  0  0  0  0  0  0  0  0
   -3.8971    6.7500    0.0000 C   0  0  0  0  0  0  0  0  0  0  0  0
   -5.1962    7.5000    0.0000 C   0  0  0  0  0  0  0  0  0  0  0  0
   -6.4952    6.7500    0.0000 C   0  0  0  0  0  0  0  0  0  0  0  0
   -7.7942    7.5000    0.0000 C   0  0  0  0  0  0  0  0  0  0  0  0
   -9.0933    6.7500    0.0000 C   0  0  0  0  0  0  0  0  0  0  0  0
  -10.3923    7.5000    0.0000 C   0  0  0  0  0  0  0  0  0  0  0  0
  -11.6913    6.7500    0.0000 O   0  0  0  0  0  0  0  0  0  0  0  0
  -10.3923    9.0000    0.0000 O   0  0  0  0  0  0  0  0  0  0  0  0
   -2.5981    2.2500    0.0000 C   0  0  0  0  0  3  0  0  0  0  0  0
    1.2990    1.5000    0.0000 C   0  0  0  0  0  0  0  0  0  0  0  0
   -1.2990    1.5000    0.0000 C   0  0  0  0  0  0  0  0  0  0  0  0
    0.0000    2.2500    0.0000 C   0  0  0  0  0  0  0  0  0  0  0  0
   -2.5981    2.2500    0.0000 C   0  0  0  0  0  3  0  0  0  0  0  0
    1.2990    1.5000    0.0000 C   0  0  0  0  0  0  0  0  0  0  0  0
   -1.2990    1.5000    0.0000 C   0  0  0  0  0  0  0  0  0  0  0  0
    0.0000    2.2500    0.0000 C   0  0  0  0  0  0  0  0  0  0  0  0
    0.0000    0.0000    0.0000 Sn  0  0  0  0  0 15  0  0  0  0  0  0
  2  1  1  0
  3  2  1  0
  4  3  1  0
  5  4  1  0
  6  5  1  0
  7  6  1  0
  8  7  1  0
  9  8  1  0
 10  9  1  0
 11 10  1  0
 12 11  1  0
 13 12  2  0
 14 12  1  0
 16 15  1  0
 17 16  1  0
 18 17  1  0
 19 18  1  0
 20 19  1  0
 21 20  1  0
 22 21  1  0
 23 22  1  0
 24 23  1  0
 25 24  1  0
 26 25  1  0
 27 26  2  0
 28 26  1  0
 31 29  1  0
 32 30  1  0
 32 31  1  0
 35 33  1  0
 36 34  1  0
 36 35  1  0
M  CHG  3  14  -1  28  -1  37   2
M  RAD  2  29   2  33   2
M  END
>  <NAME>  (2594) 
DIBUTYLTIN DILAURATE

>  <SYNONYMS>  (2594) 


>  <SPECTRUM TYPE>  (2594) 
MS1

>  <INSTRUMENT TYPE>  (2594) 
EI-B

>  <INSTRUMENT>  (2594) 
HITACHI M-60

>  <ION MODE>  (2594) 
P

>  <INCHIKEY>  (2594) 
UKLDJPRMSDWDSL-UHFFFAOYSA-L

>  <FORMULA>  (2594) 
C32H64O4Sn

>  <EXACT MASS>  (2594) 
632.382655228

>  <MW>  (2594) 
632

>  <ID>  (2594) 
JP008353

>  <CONTRIBUTOR>  (2594) 
University of Tokyo Team, {Faculty of Engineering, University of Tokyo

>  <COMMENT>  (2594) 
SMILES=CCCC[Sn](OC(CCCCCCCCCCC)=O)(OC(CCCCCCCCCCC)=O)CCCC
InChI=InChI=1S/2C12H24O2.2C4H9.Sn/c2*1-2-3-4-5-6-7-8-9-10-11-12(13)14;2*1-3-4-2;/h2*2-11H2,1H3,(H,13,14);2*1,3-4H2,2H3;/q;;;;+2/p-2
computed SMILES=[Sn+2].O=C([O-])CCCCCCCCCCC.O=C([O-])CCCCCCCCCCC.[CH2]CCC.[CH2]CCC
accession=JP008353
date=2016.01.19 (Created 2008.10.21, modified 2011.05.06)
author=UBE SCIENTIFIC ANALYSIS LABORATORY
license=CC BY-NC-SA
exact mass=632.38266
ionization energy=70 eV
ion type=[M]+*
computed spectral entropy=4.278509019493885
computed normalized entropy=0.8585166013820028
SPLASH=splash10-055f-9212420000-766b000f9aef7162a43b
submitter=submitter = University of Tokyo Team (Faculty of Engineering, University of Tokyo)
MoNA Rating=3.75

>  <NUM PEAKS>  (2594) 
146

>  <MASS SPECTRAL PEAKS>  (2594) 
27 32.82
28 3.77
29 75.07
39 19.59
40 2.35
41 77.54
42 24.2
43 99.99
44 2.16
45 11.7
53 4.91
54 2.99
55 38.1
56 17.96
57 69.31
58 4.7
59 2.9
60 34.47
61 4.87
67 2.05
69 9.95
70 4.95
71 11.86
73 23.45
74 1.76
81 1.93
83 2.52
84 3.55
85 9.43
87 3.66
91 2.93
97 2.69
99 1.55
101 3.29
112 2.07
115 1.23
119 2.43
120 1.27
121 3.66
129 5.36
130 1.51
133 16.77
134 8.8
135 28.43
136 8.79
137 33.61
139 5.68
141 2.88
143 1.13
155 1.53
173 3.78
174 2.98
175 5.71
176 4.67
177 10.02
178 2.84
179 3.46
181 1.31
183 3.87
189 1.64
191 2.97
201 3.5
229 2.38
231 3.75
232 1.26
233 5.5
235 1.93
247 1.81
259 2.3
261 4.53
263 4.18
271 1.16
273 1.37
275 1.87
287 8.47
288 5.66
289 13.87
290 6.44
291 15.47
292 3.02
293 2.14
295 2.54
303 1.57
305 1.55
313 4.12
314 2.4
315 24.78
316 15.66
317 40.55
318 17.06
319 45.01
320 6.47
321 7.26
323 7.11
345 2.61
347 3.3
373 4
374 2.36
375 6.41
376 1.89
377 5.03
401 9.12
402 6.66
403 15.97
404 7.92
405 20.6
406 3.11
407 3.41
409 3.56
427 1.07
429 30.1
430 20.44
431 50.09
432 26.04
433 63.2
434 13.2
435 9.56
436 1.83
437 10.67
438 2
457 1
459 3.15
460 1.32
461 4.19
489 1.29
491 1.83
515 2.35
516 2.16
517 4.6
518 2.28
519 6.15
543 6.94
545 17.08
547 22.26
549 6.38
551 2.3
571 12.27
573 29.21
575 39.97
577 7.69
578 5.79
579 4.33
580 1.09
601 1.98
602 1.13
603 2.36

>  <PREDICTED SPECTRUM>  (2594) 
25 7
26 30
27 167
28 13
29 208
30 128
32 4
39 184
40 102
41 718
42 431
43 999
44 268
45 141
47 70
51 96
52 97
53 226
54 226
55 843
56 321
57 989
58 557
59 225
60 142
61 9
63 11
65 107
66 44
67 469
68 188
69 798
70 274
71 713
72 125
73 264
74 117
75 62
77 162
78 162
79 265
80 104
81 506
82 266
83 800
84 388
85 282
86 53
87 100
88 4
89 94
90 26
91 201
92 86
93 270
94 77
95 404
96 222
97 554
98 142
99 90
100 25
101 77
102 86
103 142
104 42
105 262
106 112
107 160
108 148
109 413
110 270
111 218
112 255
113 190
114 107
116 26
117 229
118 86
119 190
120 134
121 205
122 153
123 207
124 156
125 153
126 128
127 98
128 123
129 152
130 173
131 157
132 120
133 77
135 214
136 140
137 65
138 96
139 6
140 8
141 49
142 83
143 52
144 76
145 49
146 1
147 76
148 76
149 54
150 109
151 129
152 240
153 247
154 259
155 183
156 203
157 123
158 142
159 52
160 73
162 76
163 106
164 116
165 97
166 179
167 245
168 284
169 273
170 166
171 120
172 33
174 16
175 11
176 71
178 66
179 197
180 246
181 177
182 306
183 164
184 135
185 104
186 85
187 138
188 33
190 22
191 99
192 211
193 234
194 292
195 382
196 329
197 241
198 180
199 205
200 53
201 125
202 93
203 39
204 63
205 19
206 41
207 3
208 138
209 252
210 413
211 273
212 246
213 227
214 158
215 69
216 134
218 57
219 92
220 133
221 109
222 243
223 278
224 256
225 128
226 132
227 143
228 160
229 252
230 175
231 67
232 91
233 18
234 169
235 118
236 160
237 199
238 102
239 268
240 154
241 85
242 91
243 168
247 27
248 141
249 92
250 182
251 131
252 98
253 199
254 143
255 207
256 158
257 158
258 75
261 22
263 5
264 113
265 141
266 239
267 242
268 206
269 187
270 60
271 18
274 32
275 68
276 106
278 135
279 105
280 174
281 118
282 192
283 67
284 69
288 13
290 72
291 15
292 121
293 31
294 48
295 55
296 219
297 180
298 159
299 107
303 72
304 9
305 47
306 145
307 228
308 156
309 155
310 200
311 170
312 31
314 95
315 26
316 76
317 24
318 31
319 132
320 88
321 97
322 278
323 183
324 195
325 37
326 33
330 83
332 34
333 124
334 66
335 120
336 117
337 120
338 124
339 22
340 16
341 37
348 51
349 40
351 196
352 119
353 116
354 30
360 38
361 145
362 134
363 55
364 32
365 148
366 164
367 230
368 66
369 15
374 41
375 1
376 96
377 61
378 35
379 134
380 130
381 1
389 12
390 54
391 89
392 196
393 150
394 149
395 49
396 41
401 27
405 37
406 180
407 383
408 314
409 208
414 4
418 100
419 66
420 272
421 447
422 231
423 61
424 26
425 3
431 8
432 76
433 62
434 167
435 244
436 362
437 208
438 55
442 27
445 98
446 119
447 121
448 142
449 91
450 307
451 101
452 45
459 62
460 212
461 222
462 131
463 157
464 211
465 123
466 35
473 103
474 48
475 37
476 46
477 115
478 241
479 47
488 57
490 9
491 34
492 36
504 40
506 40
507 30
512 5
515 48
516 136
517 156
519 1
520 93
521 16
531 61
532 107
533 270
534 26
544 85
545 30
546 106
547 125
548 19
552 114
553 8
557 80
558 95
561 91
562 83
576 15
577 80
585 3
587 59
588 158
589 222
590 211
591 45
592 4
593 59
596 84
597 66
603 81
604 22
605 19
607 83
614 20
619 5
620 22
623 40
630 128
631 311
632 192
633 96
635 43

$$$$

     RDKit          2D

 17 13  0  0  0  0  0  0  0  0999 V2000
   -1.2990    3.7500    0.0000 C   0  0  0  0  0  0  0  0  0  0  0  0
    0.0000    4.5000    0.0000 C   0  0  0  0  0  0  0  0  0  0  0  0
   -1.2990    2.2500    0.0000 C   0  0  0  0  0  0  0  0  0  0  0  0
    1.2990    3.7500    0.0000 C   0  0  0  0  0  0  0  0  0  0  0  0
   -2.5981    1.5000    0.0000 O   0  0  0  0  0  0  0  0  0  0  0  0
   -0.0000    1.5000    0.0000 O   0  0  0  0  0  0  0  0  0  0  0  0
    2.5981    4.5000    0.0000 O   0  0  0  0  0  0  0  0  0  0  0  0
    1.2990    2.2500    0.0000 O   0  0  0  0  0  0  0  0  0  0  0  0
   -2.5981    2.2500    0.0000 C   0  0  0  0  0  3  0  0  0  0  0  0
    1.2990    1.5000    0.0000 C   0  0  0  0  0  0  0  0  0  0  0  0
   -1.2990    1.5000    0.0000 C   0  0  0  0  0  0  0  0  0  0  0  0
    0.0000    2.2500    0.0000 C   0  0  0  0  0  0  0  0  0  0  0  0
   -2.5981    2.2500    0.0000 C   0  0  0  0  0  3  0  0  0  0  0  0
    1.2990    1.5000    0.0000 C   0  0  0  0  0  0  0  0  0  0  0  0
   -1.2990    1.5000    0.0000 C   0  0  0  0  0  0  0  0  0  0  0  0
    0.0000    2.2500    0.0000 C   0  0  0  0  0  0  0  0  0  0  0  0
    0.0000    0.0000    0.0000 Sn  0  0  0  0  0 15  0  0  0  0  0  0
  1  2  2  0
  3  1  1  0
  4  2  1  0
  5  3  2  0
  6  3  1  0
  7  4  2  0
  8  4  1  0
 11  9  1  0
 12 10  1  0
 12 11  1  0
 15 13  1  0
 16 14  1  0
 16 15  1  0
M  CHG  3   6  -1   8  -1  17   2
M  RAD  2   9   2  13   2
M  END
>  <NAME>  (2595) 
DIBUTYLTIN MALEATE

>  <SYNONYMS>  (2595) 


>  <SPECTRUM TYPE>  (2595) 
MS1

>  <INSTRUMENT TYPE>  (2595) 
EI-B

>  <INSTRUMENT>  (2595) 
HITACHI M-60

>  <ION MODE>  (2595) 
P

>  <INCHIKEY>  (2595) 
ZBBLRPRYYSJUCZ-GRHBHMESSA-L

>  <FORMULA>  (2595) 
C12H20O4Sn

>  <EXACT MASS>  (2595) 
348.03835382

>  <MW>  (2595) 
348

>  <ID>  (2595) 
JP008352

>  <CONTRIBUTOR>  (2595) 
University of Tokyo Team, {Faculty of Engineering, University of Tokyo

>  <COMMENT>  (2595) 
SMILES=CCCC[Sn](CCCC)(O1)OC(=O)C=CC(=O)1
InChI=InChI=1S/C4H4O4.2C4H9.Sn/c5-3(6)1-2-4(7)8;2*1-3-4-2;/h1-2H,(H,5,6)(H,7,8);2*1,3-4H2,2H3;/q;;;+2/p-2/b2-1-;;;
computed SMILES=[Sn+2].O=C([O-])C=CC(=O)[O-].[CH2]CCC.[CH2]CCC
accession=JP008352
date=2016.01.19 (Created 2008.10.21, modified 2011.05.06)
author=UBE SCIENTIFIC ANALYSIS LABORATORY
license=CC BY-NC-SA
exact mass=348.03836
ionization energy=70 eV
ion type=[M]+*
computed spectral entropy=2.40673115752708
computed normalized entropy=0.6665150567670104
SPLASH=splash10-0ufr-9000000000-174c2a5dd00136e0d771
submitter=submitter = University of Tokyo Team (Faculty of Engineering, University of Tokyo)
MoNA Rating=3.75

>  <NUM PEAKS>  (2595) 
37

>  <MASS SPECTRAL PEAKS>  (2595) 
18 1.01
24 1.1
25 7.6
26 60.91
27 3.15
28 3.95
29 5.19
37 1.51
39 1.03
41 7.9
42 1.68
43 3.84
44 5.4
45 1.4
52 2.73
53 10.54
54 99.99
55 5.97
56 1.44
57 6.98
69 2.88
70 1.28
71 1.46
81 1.3
82 1.89
83 1.49
96 1.11
97 1.19
98 28.51
99 2.35
119 1.07
121 1.04
177 1.11
205 1.23
219 5.34
220 1.59
269 1.04

>  <PREDICTED SPECTRUM>  (2595) 
26 19
27 203
28 7
29 68
30 8
31 2
39 374
40 135
41 621
42 499
43 840
44 332
45 40
51 160
52 129
53 364
54 151
55 688
56 220
57 382
58 85
59 21
63 51
65 203
66 119
67 349
68 194
69 272
70 184
71 102
72 242
77 212
78 215
79 202
80 134
81 236
82 77
83 284
84 343
85 189
86 159
87 178
91 144
94 96
95 45
96 74
97 178
98 207
99 120
101 81
105 105
106 73
108 106
112 66
113 34
114 109
115 194
116 180
117 89
118 33
119 22
122 48
124 60
125 139
129 26
130 93
131 59
133 3
134 43
135 24
136 229
137 115
138 26
139 19
140 132
141 116
142 28
143 55
144 22
145 51
147 25
157 38
158 48
161 15
162 40
163 15
164 56
171 29
172 29
174 77
175 14
179 92
181 65
182 93
185 90
186 37
190 47
192 46
193 11
194 134
196 35
199 180
200 183
201 140
202 22
213 15
219 107
220 41
221 75
229 17
231 273
232 119
237 7
242 162
243 242
244 149
245 138
247 42
248 13
249 170
257 107
258 62
259 213
260 44
277 134
278 19
288 28
289 127
290 278
291 110
303 37
305 999
306 513
307 15
348 197
349 35

$$$$

     RDKit          2D

 20 19  0  0  0  0  0  0  0  0999 V2000
   -9.7428    3.3750    0.0000 C   0  0  0  0  0  0  0  0  0  0  0  0
   -8.4437    4.1250    0.0000 C   0  0  0  0  0  0  0  0  0  0  0  0
   -8.4437    5.6250    0.0000 C   0  0  0  0  0  0  0  0  0  0  0  0
   -7.1447    6.3750    0.0000 C   0  0  0  0  0  0  0  0  0  0  0  0
   -7.1447    7.8750    0.0000 C   0  0  0  0  0  0  0  0  0  0  0  0
   -5.8457    8.6250    0.0000 C   0  0  0  0  0  0  0  0  0  0  0  0
   -5.8457   10.1250    0.0000 C   0  0  0  0  0  0  0  0  0  0  0  0
   -4.5466   10.8750    0.0000 C   0  0  0  0  0  0  0  0  0  0  0  0
   -4.5466   12.3750    0.0000 C   0  0  0  0  0  0  0  0  0  0  0  0
   -3.2476   13.1250    0.0000 C   0  0  0  0  0  0  0  0  0  0  0  0
   -1.9486   12.3750    0.0000 C   0  0  0  0  0  0  0  0  0  0  0  0
   -0.6495   13.1250    0.0000 C   0  0  0  0  0  0  0  0  0  0  0  0
    0.6495   12.3750    0.0000 C   0  0  0  0  0  0  0  0  0  0  0  0
    1.9486   13.1250    0.0000 C   0  0  0  0  0  0  0  0  0  0  0  0
    3.2476   12.3750    0.0000 C   0  0  0  0  0  0  0  0  0  0  0  0
    4.5466   13.1250    0.0000 C   0  0  0  0  0  0  0  0  0  0  0  0
    5.8457   12.3750    0.0000 C   0  0  0  0  0  0  0  0  0  0  0  0
    7.1447   13.1250    0.0000 C   0  0  0  0  0  0  0  0  0  0  0  0
    8.4437   12.3750    0.0000 N   0  0  0  0  0  0  0  0  0  0  0  0
    7.1447   14.6250    0.0000 O   0  0  0  0  0  0  0  0  0  0  0  0
  2  1  1  0
  3  2  1  0
  4  3  1  0
  5  4  1  0
  6  5  1  0
  7  6  1  0
  8  7  1  0
  9  8  1  0
  9 10  2  0
 11 10  1  0
 12 11  1  0
 13 12  1  0
 14 13  1  0
 15 14  1  0
 16 15  1  0
 17 16  1  0
 18 17  1  0
 19 18  2  0
 20 18  1  0
M  END
>  <NAME>  (2596) 
OLEYL AMIDE

>  <SYNONYMS>  (2596) 


>  <SPECTRUM TYPE>  (2596) 
MS1

>  <INSTRUMENT TYPE>  (2596) 
EI-B

>  <INSTRUMENT>  (2596) 
HITACHI M-60

>  <ION MODE>  (2596) 
P

>  <INCHIKEY>  (2596) 
FATBGEAMYMYZAF-KTKRTIGZSA-N

>  <FORMULA>  (2596) 
C18H35NO

>  <EXACT MASS>  (2596) 
281.27186474

>  <MW>  (2596) 
281

>  <ID>  (2596) 
JP008351

>  <CONTRIBUTOR>  (2596) 
University of Tokyo Team, {Faculty of Engineering, University of Tokyo

>  <COMMENT>  (2596) 
SMILES=CCCCCCCCC=CCCCCCCCC(N)=O
InChI=InChI=1S/C18H35NO/c1-2-3-4-5-6-7-8-9-10-11-12-13-14-15-16-17-18(19)20/h9-10H,2-8,11-17H2,1H3,(H2,19,20)/b10-9-
computed SMILES=N=C(O)CCCCCCCC=CCCCCCCCC
accession=JP008351
date=2016.01.19 (Created 2008.10.21, modified 2011.05.06)
author=UBE SCIENTIFIC ANALYSIS LABORATORY
license=CC BY-NC-SA
exact mass=281.27186
ionization energy=70 eV
ion type=[M]+*
computed spectral entropy=3.2484673926508343
computed normalized entropy=0.8034692556324438
SPLASH=splash10-0a4i-9000000000-97b84b2740298afd1c1d
submitter=submitter = University of Tokyo Team (Faculty of Engineering, University of Tokyo)
MoNA Rating=3.75

>  <NUM PEAKS>  (2596) 
57

>  <MASS SPECTRAL PEAKS>  (2596) 
27 5.67
29 14.62
39 4.48
41 31
42 4.8
43 27.39
44 12.33
45 1.03
53 2.25
54 6.66
55 30.5
56 7.18
57 12.9
59 99.99
60 11.56
67 9.13
68 3.09
69 17.73
70 4.55
71 4.92
72 45.68
73 6.79
79 1.99
80 1.06
81 8.03
82 3.89
83 8.4
84 3.74
85 2.65
86 4.59
94 1.01
95 4.17
96 2.89
97 6.27
98 6.23
99 1.4
100 2.82
109 2.23
110 2.27
111 2.57
112 4.22
113 1.5
114 3.62
115 1.06
122 2.59
123 1.93
124 1.33
125 1.04
126 4.26
127 1.06
128 3.27
136 2.17
137 1.7
138 1.02
140 1.51
154 1.4
281 2.49

>  <PREDICTED SPECTRUM>  (2596) 
16 8
17 26
18 43
25 2
26 37
27 174
28 117
29 293
30 75
31 74
32 27
33 11
34 17
36 1
38 20
39 186
40 102
41 832
42 420
43 783
44 249
45 199
46 81
47 43
48 37
49 29
50 60
51 110
52 120
53 307
54 466
55 999
56 567
57 680
58 188
59 280
60 260
61 175
62 61
63 60
64 41
65 160
66 191
67 579
68 492
69 804
70 544
71 446
72 242
73 331
74 150
75 106
76 76
77 177
78 128
79 287
80 224
81 515
82 555
83 715
84 558
85 367
86 174
87 229
88 156
89 86
90 18
91 151
92 89
93 169
94 198
95 474
96 573
97 656
98 478
99 296
100 213
101 213
102 108
103 75
104 99
105 151
106 82
107 149
108 196
109 356
110 417
111 454
112 360
113 222
114 271
115 195
116 119
117 78
118 91
119 114
120 84
121 174
122 179
123 321
124 368
125 334
126 292
127 199
128 220
129 153
130 105
131 53
132 100
133 151
134 78
135 102
136 160
137 249
138 256
139 182
140 188
141 212
142 152
143 101
144 48
145 60
146 51
147 140
148 130
149 160
150 200
151 224
152 236
153 206
154 223
155 107
156 96
157 71
158 50
159 12
160 73
161 57
162 74
163 100
164 179
165 144
166 168
167 138
168 172
169 109
170 105
171 88
172 41
173 18
174 73
175 30
177 40
178 133
179 110
180 135
181 88
182 164
183 81
184 68
185 62
188 13
189 59
190 0
191 9
192 133
193 186
194 198
195 59
196 78
197 66
198 63
199 71
202 46
203 14
205 24
206 127
207 129
208 111
209 51
210 92
211 74
212 45
213 75
219 73
220 87
221 114
222 102
223 54
224 31
225 60
226 42
227 11
229 16
231 48
233 24
234 73
235 80
236 87
237 60
238 105
239 58
240 23
241 2
245 66
246 97
247 55
248 67
249 86
250 118
251 57
252 77
253 66
254 12
262 67
263 188
264 204
265 135
266 104
267 64
279 50
280 78
281 184
282 104
283 47
284 37

$$$$

     RDKit          2D

 46 45  0  0  0  0  0  0  0  0999 V2000
   14.2894   24.0000    0.0000 C   0  0  0  0  0  0  0  0  0  0  0  0
  -41.5692   24.7500    0.0000 C   0  0  0  0  0  0  0  0  0  0  0  0
   12.9904   24.7500    0.0000 C   0  0  0  0  0  0  0  0  0  0  0  0
  -40.2702   24.0000    0.0000 C   0  0  0  0  0  0  0  0  0  0  0  0
   11.6913   24.0000    0.0000 C   0  0  0  0  0  0  0  0  0  0  0  0
  -38.9711   24.7500    0.0000 C   0  0  0  0  0  0  0  0  0  0  0  0
   10.3923   24.7500    0.0000 C   0  0  0  0  0  0  0  0  0  0  0  0
  -37.6721   24.0000    0.0000 C   0  0  0  0  0  0  0  0  0  0  0  0
    9.0933   24.0000    0.0000 C   0  0  0  0  0  0  0  0  0  0  0  0
  -36.3731   24.7500    0.0000 C   0  0  0  0  0  0  0  0  0  0  0  0
    7.7942   24.7500    0.0000 C   0  0  0  0  0  0  0  0  0  0  0  0
  -35.0740   24.0000    0.0000 C   0  0  0  0  0  0  0  0  0  0  0  0
    6.4952   24.0000    0.0000 C   0  0  0  0  0  0  0  0  0  0  0  0
  -33.7750   24.7500    0.0000 C   0  0  0  0  0  0  0  0  0  0  0  0
    5.1962   24.7500    0.0000 C   0  0  0  0  0  0  0  0  0  0  0  0
  -32.4760   24.0000    0.0000 C   0  0  0  0  0  0  0  0  0  0  0  0
    3.8971   24.0000    0.0000 C   0  0  0  0  0  0  0  0  0  0  0  0
  -31.1769   24.7500    0.0000 C   0  0  0  0  0  0  0  0  0  0  0  0
    2.5981   24.7500    0.0000 C   0  0  0  0  0  0  0  0  0  0  0  0
  -29.8779   24.0000    0.0000 C   0  0  0  0  0  0  0  0  0  0  0  0
    1.2990   24.0000    0.0000 C   0  0  0  0  0  0  0  0  0  0  0  0
  -28.5788   24.7500    0.0000 C   0  0  0  0  0  0  0  0  0  0  0  0
    0.0000   24.7500    0.0000 C   0  0  0  0  0  0  0  0  0  0  0  0
  -27.2798   24.0000    0.0000 C   0  0  0  0  0  0  0  0  0  0  0  0
   -1.2990   24.0000    0.0000 C   0  0  0  0  0  0  0  0  0  0  0  0
  -25.9808   24.7500    0.0000 C   0  0  0  0  0  0  0  0  0  0  0  0
   -2.5981   24.7500    0.0000 C   0  0  0  0  0  0  0  0  0  0  0  0
  -24.6817   24.0000    0.0000 C   0  0  0  0  0  0  0  0  0  0  0  0
   -3.8971   24.0000    0.0000 C   0  0  0  0  0  0  0  0  0  0  0  0
  -23.3827   24.7500    0.0000 C   0  0  0  0  0  0  0  0  0  0  0  0
   -5.1962   24.7500    0.0000 C   0  0  0  0  0  0  0  0  0  0  0  0
  -22.0836   24.0000    0.0000 C   0  0  0  0  0  0  0  0  0  0  0  0
  -12.9904   24.7500    0.0000 C   0  0  0  0  0  0  0  0  0  0  0  0
  -14.2894   24.0000    0.0000 C   0  0  0  0  0  0  0  0  0  0  0  0
   -6.4952   24.0000    0.0000 C   0  0  0  0  0  0  0  0  0  0  0  0
  -20.7846   24.7500    0.0000 C   0  0  0  0  0  0  0  0  0  0  0  0
  -11.6913   24.0000    0.0000 C   0  0  0  0  0  0  0  0  0  0  0  0
  -15.5885   24.7500    0.0000 C   0  0  0  0  0  0  0  0  0  0  0  0
   -7.7942   24.7500    0.0000 C   0  0  0  0  0  0  0  0  0  0  0  0
  -19.4856   24.0000    0.0000 C   0  0  0  0  0  0  0  0  0  0  0  0
  -10.3923   24.7500    0.0000 C   0  0  0  0  0  0  0  0  0  0  0  0
  -16.8875   24.0000    0.0000 C   0  0  0  0  0  0  0  0  0  0  0  0
   -9.0933   24.0000    0.0000 N   0  0  0  0  0  0  0  0  0  0  0  0
  -18.1865   24.7500    0.0000 N   0  0  0  0  0  0  0  0  0  0  0  0
  -10.3923   26.2500    0.0000 O   0  0  0  0  0  0  0  0  0  0  0  0
  -16.8875   22.5000    0.0000 O   0  0  0  0  0  0  0  0  0  0  0  0
  3  1  1  0
  4  2  1  0
  5  3  1  0
  6  4  1  0
  7  5  1  0
  8  6  1  0
  9  7  1  0
 10  8  1  0
 11  9  1  0
 12 10  1  0
 13 11  1  0
 14 12  1  0
 15 13  1  0
 16 14  1  0
 17 15  1  0
 18 16  1  0
 19 17  1  0
 20 18  1  0
 21 19  1  0
 22 20  1  0
 23 21  1  0
 24 22  1  0
 25 23  1  0
 26 24  1  0
 27 25  1  0
 28 26  1  0
 29 27  1  0
 30 28  1  0
 31 29  1  0
 32 30  1  0
 34 33  1  0
 35 31  1  0
 36 32  1  0
 37 33  1  0
 38 34  1  0
 39 35  1  0
 40 36  1  0
 41 37  1  0
 42 38  1  0
 43 39  1  0
 43 41  2  3
 44 40  1  0
 44 42  2  3
 45 41  1  0
 46 42  1  0
M  END
>  <NAME>  (2597) 
N,N'-DIOCTADECYL ADIPIC AMIDE

>  <SYNONYMS>  (2597) 


>  <SPECTRUM TYPE>  (2597) 
MS1

>  <INSTRUMENT TYPE>  (2597) 
EI-B

>  <INSTRUMENT>  (2597) 
HITACHI M-60

>  <ION MODE>  (2597) 
P

>  <INCHIKEY>  (2597) 
QIJSQGXDFAYEAF-UHFFFAOYSA-N

>  <FORMULA>  (2597) 
C42H84N2O2

>  <EXACT MASS>  (2597) 
648.6532799280001

>  <MW>  (2597) 
648

>  <ID>  (2597) 
JP008350

>  <CONTRIBUTOR>  (2597) 
University of Tokyo Team, {Faculty of Engineering, University of Tokyo

>  <COMMENT>  (2597) 
SMILES=C(CNC(CCCCC(=O)NCCCCCCCCCCCCCCCCCC)=O)CCCCCCCCCCCCCCCC
InChI=InChI=1S/C42H84N2O2/c1-3-5-7-9-11-13-15-17-19-21-23-25-27-29-31-35-39-43-41(45)37-33-34-38-42(46)44-40-36-32-30-28-26-24-22-20-18-16-14-12-10-8-6-4-2/h3-40H2,1-2H3,(H,43,45)(H,44,46)
computed SMILES=OC(=NCCCCCCCCCCCCCCCCCC)CCCCC(O)=NCCCCCCCCCCCCCCCCCC
accession=JP008350
date=2016.01.19 (Created 2008.10.21, modified 2011.05.06)
author=UBE SCIENTIFIC ANALYSIS LABORATORY
license=CC BY-NC-SA
exact mass=648.65328
ionization energy=70 eV
ion type=[M]+*
computed spectral entropy=4.09385735952777
computed normalized entropy=0.8709444654466968
SPLASH=splash10-052f-9101000000-f6637f17e8228e02a003
submitter=submitter = University of Tokyo Team (Faculty of Engineering, University of Tokyo)
MoNA Rating=3.75

>  <NUM PEAKS>  (2597) 
110

>  <MASS SPECTRAL PEAKS>  (2597) 
27 10.96
29 27.51
30 80.07
39 5.6
41 47.98
42 11.58
43 99.99
44 29.13
45 6.91
54 6.77
55 55.62
56 21.27
57 82.42
58 12.1
59 5.43
60 10.46
67 13.71
68 7.48
69 33.71
70 18.17
71 29.64
72 12.33
73 20.94
81 7.88
82 13.08
83 25.78
84 24.34
85 21.86
86 16.15
87 9.37
95 8.18
96 7.92
97 26.69
98 13.26
99 10.14
100 17.32
101 6.81
109 3.11
110 6.63
111 13.2
112 10.83
113 5.45
114 14.04
115 4.85
125 5.7
126 6.41
127 1.52
128 11.12
129 6.56
139 5.23
140 7.31
141 8.26
142 5.66
153 2.74
154 3.4
155 1.9
156 5.44
157 2
167 1.79
168 7.92
170 2.62
182 2.18
184 5.64
196 1.23
198 2.59
212 3.2
224 1.57
226 2.87
227 1.62
240 5.91
241 2.22
252 1.2
254 5.27
255 1.2
267 1.19
268 8.87
269 4.24
270 4.83
280 4.38
281 1.26
282 3.06
283 6.09
284 5.98
296 16.71
297 5.61
307 2.39
308 1.99
309 4.34
310 5.64
311 34.99
312 9.45
324 18.69
325 6.16
338 8.41
339 1.5
340 1.43
350 2.24
352 5.45
353 2.25
366 1.21
368 1.79
380 8.65
381 3.42
408 1.42
479 1.2
507 2.95
534 1.27
535 6.29
536 2.65
648 1.31

>  <PREDICTED SPECTRUM>  (2597) 
14 12
15 29
16 21
17 40
18 68
25 36
26 146
27 401
28 303
29 577
30 277
31 195
32 92
33 39
36 33
37 4
38 49
39 293
40 228
41 888
42 545
43 999
44 565
45 402
46 31
50 65
51 153
52 100
53 263
54 356
55 914
56 554
57 911
58 496
59 310
60 208
61 42
65 99
66 127
67 491
68 318
69 665
70 472
71 672
72 265
73 309
74 174
75 49
76 18
77 189
78 203
79 274
80 206
81 494
82 327
83 560
84 358
85 463
86 361
87 309
88 91
89 49
91 125
92 26
93 135
94 156
95 544
96 376
97 510
98 383
99 387
100 244
101 150
102 96
103 105
104 48
105 117
106 77
107 101
108 106
109 276
110 248
111 341
112 355
113 377
114 179
115 186
116 62
117 101
118 62
119 107
120 65
121 208
122 201
123 213
124 232
125 217
126 249
127 202
128 165
129 241
130 101
131 68
132 101
133 107
134 85
135 118
136 139
137 128
138 189
139 215
140 245
141 231
142 172
143 120
144 51
145 45
146 52
147 134
148 127
149 190
150 64
151 216
152 339
153 255
154 215
155 207
156 123
157 127
158 132
159 113
160 90
161 113
162 43
163 72
164 89
165 118
166 123
167 191
168 137
169 167
170 159
171 205
172 120
173 76
174 34
175 87
176 79
177 90
178 70
179 140
180 183
181 132
182 95
183 91
184 134
185 186
186 153
187 108
188 12
189 39
191 8
192 44
193 22
194 28
195 168
196 116
197 192
198 144
199 190
200 177
201 97
202 94
203 31
204 24
205 40
206 29
207 106
208 111
209 217
210 137
211 145
212 80
213 166
215 107
216 81
217 56
218 38
219 79
220 42
221 61
222 36
223 85
224 137
225 138
226 135
227 195
228 38
229 90
230 37
231 65
232 38
233 60
234 55
235 37
237 150
238 136
239 153
240 120
241 127
242 4
243 25
245 33
246 20
247 68
248 42
249 31
250 62
251 130
252 182
253 126
254 98
255 121
256 67
257 67
259 73
262 28
263 127
264 137
265 145
266 131
267 168
268 162
269 180
270 90
276 39
277 47
278 169
279 169
280 139
281 130
282 138
283 143
284 82
285 73
286 3
287 27
290 44
291 58
292 44
293 98
294 206
295 237
296 124
297 138
298 67
299 49
301 46
304 15
305 67
306 55
307 125
308 187
309 150
310 142
311 190
312 181
313 135
314 39
315 121
316 115
317 109
318 54
319 119
320 184
321 187
322 149
323 234
324 121
325 151
326 57
327 102
328 19
331 50
333 35
334 106
335 188
336 123
337 166
338 41
339 133
340 103
341 103
343 10
347 14
348 142
349 157
350 90
351 138
352 156
353 116
354 82
355 23
356 10
359 35
361 10
362 84
363 29
364 67
365 68
366 165
367 131
368 68
369 50
370 27
374 12
375 25
376 62
377 60
378 64
379 56
380 99
381 108
382 96
389 4
391 35
392 55
393 236
394 144
395 126
396 139
397 48
398 23
399 109
400 43
401 28
404 15
405 35
406 29
407 68
408 135
409 30
410 41
423 30
425 20
426 6
433 41
434 36
436 45
437 67
438 65
439 35
447 16
448 36
449 35
450 96
451 45
452 70
453 3
454 38
460 45
461 57
462 6
463 59
464 75
465 62
466 60
467 33
469 44
470 33
477 112
479 45
480 3
481 10
482 22
489 53
490 36
491 94
492 61
493 65
494 6
495 24
498 4
504 8
505 72
506 34
507 101
508 49
509 51
516 20
517 69
519 27
520 52
521 122
522 95
527 1
531 76
533 87
534 44
535 169
536 33
539 66
547 54
548 99
549 85
550 86
552 50
561 34
562 30
563 88
564 43
569 49
574 26
575 51
576 6
577 38
578 62
585 53
586 19
588 98
589 71
590 101
591 48
595 20
597 13
601 15
604 160
605 83
606 26
609 21
618 105
619 48
620 57
621 22
622 21
628 40
629 7
630 135
631 24
632 0
633 17
634 38
635 34
637 12
645 40
646 36
648 275
649 4
650 15
651 39

$$$$

     RDKit          2D

 20 19  0  0  0  0  0  0  0  0999 V2000
    5.8457   10.1250    0.0000 C   0  0  0  0  0  0  0  0  0  0  0  0
    4.5466   10.8750    0.0000 C   0  0  0  0  0  0  0  0  0  0  0  0
    3.2476   10.1250    0.0000 C   0  0  0  0  0  0  0  0  0  0  0  0
    1.9486   10.8750    0.0000 C   0  0  0  0  0  0  0  0  0  0  0  0
    0.6495   10.1250    0.0000 C   0  0  0  0  0  0  0  0  0  0  0  0
   -0.6495   10.8750    0.0000 C   0  0  0  0  0  0  0  0  0  0  0  0
   -1.9486   10.1250    0.0000 C   0  0  0  0  0  0  0  0  0  0  0  0
   -3.2476   10.8750    0.0000 C   0  0  0  0  0  0  0  0  0  0  0  0
   -4.5466   10.1250    0.0000 C   0  0  0  0  0  0  0  0  0  0  0  0
   -5.8457   10.8750    0.0000 C   0  0  0  0  0  0  0  0  0  0  0  0
   -7.1447   10.1250    0.0000 C   0  0  0  0  0  0  0  0  0  0  0  0
   -8.4437   10.8750    0.0000 C   0  0  0  0  0  0  0  0  0  0  0  0
   -9.7428   10.1250    0.0000 C   0  0  0  0  0  0  0  0  0  0  0  0
  -11.0418   10.8750    0.0000 C   0  0  0  0  0  0  0  0  0  0  0  0
  -12.3409   10.1250    0.0000 C   0  0  0  0  0  0  0  0  0  0  0  0
  -13.6399   10.8750    0.0000 C   0  0  0  0  0  0  0  0  0  0  0  0
  -14.9389   10.1250    0.0000 C   0  0  0  0  0  0  0  0  0  0  0  0
  -16.2380   10.8750    0.0000 C   0  0  0  0  0  0  0  0  0  0  0  0
  -17.5370   10.1250    0.0000 N   0  0  0  0  0  0  0  0  0  0  0  0
  -16.2380   12.3750    0.0000 O   0  0  0  0  0  0  0  0  0  0  0  0
  2  1  1  0
  3  2  1  0
  4  3  1  0
  5  4  1  0
  6  5  1  0
  7  6  1  0
  8  7  1  0
  9  8  1  0
 10  9  1  0
 11 10  1  0
 12 11  1  0
 13 12  1  0
 14 13  1  0
 15 14  1  0
 16 15  1  0
 17 16  1  0
 18 17  1  0
 19 18  2  0
 20 18  1  0
M  END
>  <NAME>  (2598) 
STEARYLAMIDE

>  <SYNONYMS>  (2598) 


>  <SPECTRUM TYPE>  (2598) 
MS1

>  <INSTRUMENT TYPE>  (2598) 
EI-B

>  <INSTRUMENT>  (2598) 
HITACHI M-60

>  <ION MODE>  (2598) 
P

>  <INCHIKEY>  (2598) 
LYRFLYHAGKPMFH-UHFFFAOYSA-N

>  <FORMULA>  (2598) 
C18H37NO

>  <EXACT MASS>  (2598) 
283.287514804

>  <MW>  (2598) 
283

>  <ID>  (2598) 
JP008349

>  <CONTRIBUTOR>  (2598) 
University of Tokyo Team, {Faculty of Engineering, University of Tokyo

>  <COMMENT>  (2598) 
SMILES=CCCCCCCCCCCCCCCCCC(N)=O
InChI=InChI=1S/C18H37NO/c1-2-3-4-5-6-7-8-9-10-11-12-13-14-15-16-17-18(19)20/h2-17H2,1H3,(H2,19,20)
computed SMILES=N=C(O)CCCCCCCCCCCCCCCCC
accession=JP008349
date=2016.01.19 (Created 2008.10.21, modified 2011.05.06)
license=CC BY-NC-SA
author=UBE SCIENTIFIC ANALYSIS LABORATORY
exact mass=283.28751
ionization energy=70 eV
ion type=[M]+*
computed spectral entropy=2.797331183930795
computed normalized entropy=0.7437336748605755
SPLASH=splash10-0a4i-9000000000-9e0257218bfc5bd50b10
submitter=submitter = University of Tokyo Team (Faculty of Engineering, University of Tokyo)
MoNA Rating=3.75

>  <NUM PEAKS>  (2598) 
43

>  <MASS SPECTRAL PEAKS>  (2598) 
27 2.39
29 8.19
39 1.54
41 14.21
42 3.38
43 22.42
44 7.03
54 1.06
55 13.23
56 3.06
57 12.17
58 1.4
59 99.99
60 12.36
61 1.26
67 1.34
69 6.03
70 1.85
71 4.54
72 36.39
73 10.12
74 1.74
81 1.13
83 3.51
84 1.54
85 1.97
86 5.36
87 1.9
97 2.82
98 2.9
100 1.74
101 1.81
111 1.14
114 4.16
115 2.25
128 4.79
129 1.47
142 1.02
170 1.12
184 1.09
240 2.03
283 2.46
284 1.78

>  <PREDICTED SPECTRUM>  (2598) 
16 17
17 34
18 53
26 54
27 200
28 124
29 357
30 130
31 103
32 11
33 2
34 0
38 27
39 188
40 110
41 715
42 349
43 999
44 353
45 308
46 68
47 43
49 4
50 34
51 55
52 53
53 168
54 221
55 810
56 402
57 930
58 337
59 348
60 412
61 171
62 38
64 7
65 54
66 59
67 319
68 253
69 551
70 324
71 598
72 346
73 477
74 295
75 55
76 16
77 119
78 63
79 101
80 71
81 257
82 250
83 541
84 420
85 385
86 329
87 478
88 181
89 69
90 13
91 40
92 61
93 32
94 65
95 316
96 277
97 384
98 358
99 183
100 394
101 283
102 91
103 19
104 51
105 2
107 94
108 26
109 192
110 215
111 337
112 228
113 112
114 301
115 320
116 109
117 94
118 10
119 56
120 41
121 56
123 51
124 109
125 216
126 157
127 72
128 294
129 235
130 16
134 62
135 53
136 50
137 30
138 154
139 129
140 115
141 154
142 233
143 263
148 1
151 15
152 71
153 63
154 60
155 0
156 226
157 140
164 1
165 56
166 46
167 55
168 67
170 142
171 122
172 52
179 10
180 64
181 1
182 17
184 257
185 133
194 89
198 122
199 58
212 89
222 56
223 50
224 67
226 163
227 103
236 38
237 59
238 201
239 67
240 259
241 122
252 61
253 57
254 176
255 134
256 14
264 93
265 41
266 255
267 86
268 67
281 65
282 120
283 793
284 290
285 169
286 21

$$$$

     RDKit          2D

 42 41  0  0  0  0  0  0  0  0999 V2000
   12.9904   21.7500    0.0000 C   0  0  0  0  0  0  0  0  0  0  0  0
  -37.6721   22.5000    0.0000 C   0  0  0  0  0  0  0  0  0  0  0  0
   11.6913   22.5000    0.0000 C   0  0  0  0  0  0  0  0  0  0  0  0
  -36.3731   21.7500    0.0000 C   0  0  0  0  0  0  0  0  0  0  0  0
   10.3923   21.7500    0.0000 C   0  0  0  0  0  0  0  0  0  0  0  0
  -35.0740   22.5000    0.0000 C   0  0  0  0  0  0  0  0  0  0  0  0
    9.0933   22.5000    0.0000 C   0  0  0  0  0  0  0  0  0  0  0  0
  -33.7750   21.7500    0.0000 C   0  0  0  0  0  0  0  0  0  0  0  0
    7.7942   21.7500    0.0000 C   0  0  0  0  0  0  0  0  0  0  0  0
  -32.4760   22.5000    0.0000 C   0  0  0  0  0  0  0  0  0  0  0  0
    6.4952   22.5000    0.0000 C   0  0  0  0  0  0  0  0  0  0  0  0
  -31.1769   21.7500    0.0000 C   0  0  0  0  0  0  0  0  0  0  0  0
    5.1962   21.7500    0.0000 C   0  0  0  0  0  0  0  0  0  0  0  0
  -29.8779   22.5000    0.0000 C   0  0  0  0  0  0  0  0  0  0  0  0
    3.8971   22.5000    0.0000 C   0  0  0  0  0  0  0  0  0  0  0  0
  -28.5788   21.7500    0.0000 C   0  0  0  0  0  0  0  0  0  0  0  0
    2.5981   21.7500    0.0000 C   0  0  0  0  0  0  0  0  0  0  0  0
  -27.2798   22.5000    0.0000 C   0  0  0  0  0  0  0  0  0  0  0  0
    1.2990   22.5000    0.0000 C   0  0  0  0  0  0  0  0  0  0  0  0
  -25.9808   21.7500    0.0000 C   0  0  0  0  0  0  0  0  0  0  0  0
    0.0000   21.7500    0.0000 C   0  0  0  0  0  0  0  0  0  0  0  0
  -24.6817   22.5000    0.0000 C   0  0  0  0  0  0  0  0  0  0  0  0
   -1.2990   22.5000    0.0000 C   0  0  0  0  0  0  0  0  0  0  0  0
  -23.3827   21.7500    0.0000 C   0  0  0  0  0  0  0  0  0  0  0  0
   -2.5981   21.7500    0.0000 C   0  0  0  0  0  0  0  0  0  0  0  0
  -22.0836   22.5000    0.0000 C   0  0  0  0  0  0  0  0  0  0  0  0
   -3.8971   22.5000    0.0000 C   0  0  0  0  0  0  0  0  0  0  0  0
  -20.7846   21.7500    0.0000 C   0  0  0  0  0  0  0  0  0  0  0  0
   -5.1962   21.7500    0.0000 C   0  0  0  0  0  0  0  0  0  0  0  0
  -19.4856   22.5000    0.0000 C   0  0  0  0  0  0  0  0  0  0  0  0
   -6.4952   22.5000    0.0000 C   0  0  0  0  0  0  0  0  0  0  0  0
  -18.1865   21.7500    0.0000 C   0  0  0  0  0  0  0  0  0  0  0  0
   -7.7942   21.7500    0.0000 C   0  0  0  0  0  0  0  0  0  0  0  0
  -16.8875   22.5000    0.0000 C   0  0  0  0  0  0  0  0  0  0  0  0
  -11.6913   22.5000    0.0000 C   0  0  0  0  0  0  0  0  0  0  0  0
  -12.9904   21.7500    0.0000 C   0  0  0  0  0  0  0  0  0  0  0  0
   -9.0933   22.5000    0.0000 C   0  0  0  0  0  0  0  0  0  0  0  0
  -15.5885   21.7500    0.0000 C   0  0  0  0  0  0  0  0  0  0  0  0
  -10.3923   21.7500    0.0000 N   0  0  0  0  0  0  0  0  0  0  0  0
  -14.2894   22.5000    0.0000 N   0  0  0  0  0  0  0  0  0  0  0  0
   -9.0933   24.0000    0.0000 O   0  0  0  0  0  0  0  0  0  0  0  0
  -15.5885   20.2500    0.0000 O   0  0  0  0  0  0  0  0  0  0  0  0
  3  1  1  0
  4  2  1  0
  5  3  1  0
  6  4  1  0
  7  5  1  0
  8  6  1  0
  9  7  1  0
 10  8  1  0
 11  9  1  0
 12 10  1  0
 13 11  1  0
 14 12  1  0
 15 13  1  0
 16 14  1  0
 17 15  1  0
 18 16  1  0
 19 17  1  0
 20 18  1  0
 21 19  1  0
 22 20  1  0
 23 21  1  0
 24 22  1  0
 25 23  1  0
 26 24  1  0
 27 25  1  0
 28 26  1  0
 29 27  1  0
 30 28  1  0
 31 29  1  0
 32 30  1  0
 33 31  1  0
 34 32  1  0
 36 35  1  0
 37 33  1  0
 38 34  1  0
 39 35  1  0
 39 37  2  3
 40 36  1  0
 40 38  2  3
 41 37  1  0
 42 38  1  0
M  END
>  <NAME>  (2599) 
ETHYLENEBIS(STEARYLAMIDE)

>  <SYNONYMS>  (2599) 


>  <SPECTRUM TYPE>  (2599) 
MS1

>  <INSTRUMENT TYPE>  (2599) 
EI-B

>  <INSTRUMENT>  (2599) 
HITACHI M-60

>  <ION MODE>  (2599) 
P

>  <INCHIKEY>  (2599) 
RKISUIUJZGSLEV-UHFFFAOYSA-N

>  <FORMULA>  (2599) 
C38H76N2O2

>  <EXACT MASS>  (2599) 
592.590679672

>  <MW>  (2599) 
592

>  <ID>  (2599) 
JP008348

>  <CONTRIBUTOR>  (2599) 
University of Tokyo Team, {Faculty of Engineering, University of Tokyo

>  <COMMENT>  (2599) 
SMILES=C(CCCCCCCCCCC(NCCNC(CCCCCCCCCCCCCCCCC)=O)=O)CCCCCC
InChI=InChI=1S/C38H76N2O2/c1-3-5-7-9-11-13-15-17-19-21-23-25-27-29-31-33-37(41)39-35-36-40-38(42)34-32-30-28-26-24-22-20-18-16-14-12-10-8-6-4-2/h3-36H2,1-2H3,(H,39,41)(H,40,42)
computed SMILES=OC(=NCCN=C(O)CCCCCCCCCCCCCCCCC)CCCCCCCCCCCCCCCCC
accession=JP008348
date=2016.01.19 (Created 2008.10.21, modified 2011.05.06)
author=UBE SCIENTIFIC ANALYSIS LABORATORY
license=CC BY-NC-SA
exact mass=592.59068
ionization energy=70 eV
ion type=[M]+*
computed spectral entropy=4.272288229857179
computed normalized entropy=0.8572683508460137
SPLASH=splash10-000x-9211000000-169cffbbd7e6d00215f5
submitter=submitter = University of Tokyo Team (Faculty of Engineering, University of Tokyo)
MoNA Rating=3.75

>  <NUM PEAKS>  (2599) 
146

>  <MASS SPECTRAL PEAKS>  (2599) 
27 7.2
29 17.04
30 47.53
39 4.91
41 37.49
42 11
43 99.99
44 81.54
45 4.7
53 1.57
54 4.79
55 44.8
56 11.71
57 55.37
58 10.05
59 11.51
60 6.87
61 9.76
67 7.65
68 5.01
69 18.88
70 9.65
71 24.69
72 8.38
73 32.19
74 1.87
81 6.82
82 4.51
83 17.25
84 69.99
85 33.33
86 25
87 22.31
95 5.35
96 3.56
97 36.93
98 42.27
99 7.98
100 8.83
101 2.93
102 2.75
103 12.12
109 3.57
110 2.2
111 9.81
112 9.9
113 3.64
114 2.49
115 5.44
123 2.25
124 2.12
125 5.01
126 13.14
127 2.58
128 4.28
129 3.39
137 1.06
139 14.14
140 4.75
141 1.2
142 4.96
143 1.21
144 25.25
145 1.95
153 3.52
154 4.7
155 1.27
156 3
157 14.68
158 2.24
167 2.1
168 4.03
170 2.86
171 3
181 2.34
182 3.48
184 2.67
185 1.78
186 1.17
195 1.7
196 2.76
198 2.76
199 2.95
209 3.35
210 2.08
212 2.34
213 3.21
223 2.11
224 2.05
226 2.79
227 1.81
228 1.11
237 2.41
238 3.09
239 3.75
240 2.38
241 1.78
251 2.74
252 3.01
253 2.54
254 2.93
255 2.18
256 8.42
265 1.75
266 2.75
267 4.43
268 2.23
269 3.32
270 1.41
279 5.27
280 6.15
281 12.78
282 7.97
283 3.36
284 12.93
285 2.53
294 1.35
295 1.52
296 2.1
297 6.54
298 1.74
299 2.5
307 9.53
308 10.16
309 26.69
310 15.77
311 5
312 2.65
322 3.7
325 5.21
326 1.82
327 4.66
335 3.46
340 11.01
341 2.3
350 5.05
351 1.12
353 2.69
354 1.24
363 2.02
368 14.19
369 3.54
381 4.05
382 1.05
564 1.92
592 1.72

>  <PREDICTED SPECTRUM>  (2599) 
14 11
15 39
16 27
17 60
18 91
25 31
26 147
27 401
28 339
29 587
30 326
31 205
32 115
33 33
36 5
37 1
38 51
39 308
40 225
41 894
42 551
43 999
44 548
45 365
46 60
50 72
51 133
52 104
53 251
54 362
55 953
56 562
57 959
58 345
59 263
60 278
61 95
65 115
66 134
67 506
68 349
69 728
70 469
71 675
72 191
73 250
74 182
75 29
76 35
77 166
78 184
79 297
80 232
81 505
82 332
83 598
84 462
85 440
86 260
87 301
88 83
89 24
91 154
92 91
93 158
94 128
95 542
96 388
97 573
98 461
99 363
100 122
101 129
102 110
103 78
104 73
105 106
106 28
107 96
108 97
109 265
110 234
111 406
112 375
113 364
114 200
115 239
116 142
117 104
118 31
119 67
120 82
121 146
122 163
123 177
124 208
125 187
126 230
127 83
128 156
129 300
130 195
131 78
132 94
133 65
134 36
135 129
136 69
137 59
138 87
139 169
140 149
141 241
142 187
143 169
144 182
145 70
146 82
147 48
148 77
149 203
150 53
151 108
152 191
153 195
154 159
155 228
156 186
157 154
158 133
159 114
160 86
161 60
162 51
163 98
164 64
165 97
166 114
167 112
168 165
169 131
170 127
171 212
172 46
173 89
174 153
175 74
176 57
177 68
178 90
179 134
180 145
181 155
182 105
183 95
184 101
185 127
187 21
189 53
190 15
191 71
192 46
193 17
194 20
195 166
196 145
197 139
198 69
199 171
200 80
201 45
203 74
204 4
205 57
206 41
207 73
208 103
209 159
210 144
211 82
212 90
213 207
215 54
217 37
219 22
220 35
221 77
222 3
223 122
224 160
225 159
226 114
227 167
228 45
229 91
230 22
231 41
233 69
234 47
235 65
236 0
237 148
238 140
239 149
240 111
241 178
242 103
243 50
245 22
248 34
249 93
250 112
251 127
252 170
253 128
254 110
255 190
256 77
257 87
258 79
259 127
260 55
261 77
262 47
263 126
264 133
265 125
266 156
267 82
268 70
269 206
270 111
276 22
277 39
278 140
279 167
280 119
281 20
282 85
283 116
284 107
285 121
286 24
287 24
290 0
292 72
293 72
294 193
295 222
296 122
297 160
298 118
299 85
300 26
306 9
307 97
308 150
309 174
310 203
311 185
312 262
313 167
314 50
315 59
316 10
317 21
319 66
320 141
321 126
322 130
323 196
324 135
325 179
326 106
327 128
328 34
334 84
335 171
336 105
337 115
338 45
339 165
340 103
341 28
348 137
349 140
350 62
351 89
352 131
353 130
354 100
355 18
362 22
363 64
364 60
366 106
367 77
368 166
369 81
370 47
375 15
376 54
377 47
378 54
380 47
381 97
382 111
385 6
389 20
390 2
392 51
393 88
394 51
395 27
396 178
397 44
398 16
399 64
401 12
405 12
407 69
408 64
409 33
410 63
421 14
423 60
425 2
433 42
434 43
435 0
436 41
437 57
438 64
448 0
449 13
450 51
451 36
452 17
460 47
461 42
463 51
464 35
465 30
466 37
469 22
470 23
476 25
477 103
478 50
479 119
491 19
493 50
494 10
495 38
497 28
504 23
505 41
506 30
507 78
508 18
509 33
516 36
517 53
519 25
520 15
521 2
522 51
527 11
530 0
531 61
533 52
534 103
535 81
539 59
547 64
548 118
549 84
550 76
552 48
561 9
562 3
563 73
564 99
565 23
566 64
569 32
572 64
573 116
574 123
575 56
576 7
577 65
578 36
588 48
589 50
590 92
591 218
592 65
593 128
594 71
595 30
596 27
597 9

$$$$

     RDKit          2D

 23 25  0  0  0  0  0  0  0  0999 V2000
   -1.6700   -0.9600    0.0000 C   0  0  0  0  0  0  0  0  0  0  0  0
    4.8248    5.7923    0.0000 C   0  0  0  0  0  0  0  0  0  0  0  0
    8.9258    0.1725    0.0000 C   0  0  0  0  0  0  0  0  0  0  0  0
   -1.6700    0.5400    0.0000 C   0  0  0  0  0  0  0  0  0  0  0  0
   -0.3700   -1.7100    0.0000 C   0  0  0  0  0  0  0  0  0  0  0  0
    3.5260    5.0419    0.0000 C   0  0  0  0  0  0  0  0  0  0  0  0
    6.1246    5.0419    0.0000 C   0  0  0  0  0  0  0  0  0  0  0  0
    8.4128   -1.2370    0.0000 C   0  0  0  0  0  0  0  0  0  0  0  0
    7.9608    1.3219    0.0000 C   0  0  0  0  0  0  0  0  0  0  0  0
   -0.3700    1.2900    0.0000 C   0  0  0  0  0  0  0  0  0  0  0  0
    0.9300   -0.9600    0.0000 C   0  0  0  0  0  0  0  0  0  0  0  0
    3.5270    3.5410    0.0000 C   0  0  0  0  0  0  0  0  0  0  0  0
    6.1256    3.5410    0.0000 C   0  0  0  0  0  0  0  0  0  0  0  0
    6.9347   -1.4972    0.0000 C   0  0  0  0  0  0  0  0  0  0  0  0
    6.4826    1.0618    0.0000 C   0  0  0  0  0  0  0  0  0  0  0  0
    0.9300    0.5400    0.0000 C   0  0  0  0  0  0  0  0  0  0  0  0
    4.8268    2.7906    0.0000 C   0  0  0  0  0  0  0  0  0  0  0  0
    5.9696   -0.3478    0.0000 C   0  0  0  0  0  0  0  0  0  0  0  0
    2.5641   -0.6088    0.0000 O   0  0  0  0  0  0  0  0  0  0  0  0
    2.2289    1.2902    0.0000 O   0  0  0  0  0  0  0  0  0  0  0  0
    4.8270    1.2906    0.0000 O   0  0  0  0  0  0  0  0  0  0  0  0
    4.4924   -0.6085    0.0000 O   0  0  0  0  0  0  0  0  0  0  0  0
    3.5281    0.5404    0.0000 P   0  0  0  0  0  0  0  0  0  0  0  0
  4  1  2  0
  5  1  1  0
  6  2  2  0
  7  2  1  0
  8  3  2  0
  9  3  1  0
 10  4  1  0
 11  5  2  0
 12  6  1  0
 13  7  2  0
 14  8  1  0
 15  9  2  0
 16 10  2  0
 16 11  1  0
 17 12  2  0
 17 13  1  0
 18 14  2  0
 18 15  1  0
 20 16  1  0
 21 17  1  0
 22 18  1  0
 23 19  2  0
 23 20  1  0
 23 21  1  0
 23 22  1  0
M  END
>  <NAME>  (2600) 
TRIPHENYL PHOSPHATE

>  <SYNONYMS>  (2600) 


>  <SPECTRUM TYPE>  (2600) 
MS1

>  <INSTRUMENT TYPE>  (2600) 
EI-B

>  <INSTRUMENT>  (2600) 
HITACHI M-60

>  <ION MODE>  (2600) 
P

>  <INCHIKEY>  (2600) 
XZZNDPSIHUTMOC-UHFFFAOYSA-N

>  <FORMULA>  (2600) 
C18H15O4P

>  <EXACT MASS>  (2600) 
326.07079559000005

>  <MW>  (2600) 
326

>  <ID>  (2600) 
JP008347

>  <CONTRIBUTOR>  (2600) 
University of Tokyo Team, {Faculty of Engineering, University of Tokyo

>  <COMMENT>  (2600) 
SMILES=c(c3)ccc(c3)OP(=O)(Oc(c2)cccc2)Oc(c1)cccc1
InChI=InChI=1S/C18H15O4P/c19-23(20-16-10-4-1-5-11-16,21-17-12-6-2-7-13-17)22-18-14-8-3-9-15-18/h1-15H
computed SMILES=O=P(OC=1C=CC=CC1)(OC=2C=CC=CC2)OC=3C=CC=CC3
accession=JP008347
date=2016.01.19 (Created 2008.10.21, modified 2011.05.06)
author=UBE SCIENTIFIC ANALYSIS LABORATORY
license=CC BY-NC-SA
exact mass=326.0708
ionization energy=70 eV
ion type=[M]+*
computed spectral entropy=3.1470029146830645
computed normalized entropy=0.8129267650570838
SPLASH=splash10-004i-9336000000-d5f0a955dd67a5d5f186
submitter=submitter = University of Tokyo Team (Faculty of Engineering, University of Tokyo)
MoNA Rating=3.75

>  <NUM PEAKS>  (2600) 
48

>  <MASS SPECTRAL PEAKS>  (2600) 
27 2.54
38 1.51
39 32.89
47 6.72
50 5.25
51 31.62
55 1.14
63 6.3
64 3.59
65 48.18
66 5.71
76 2.31
77 80.48
78 5.46
81 1.33
92 1.87
93 9.24
94 27.02
95 2.32
115 3.7
139 6.33
140 7.75
141 10.34
142 3.83
151 2.11
152 6.34
153 2
156 2.96
168 12.49
169 18.01
170 32.48
171 3.37
215 19.15
216 2.53
227 2.76
228 12.41
229 5.34
231 1.84
232 12.06
233 23.74
234 3.04
245 1.74
246 3.87
249 4.86
325 70.42
326 99.99
327 20.22
328 2.77

>  <PREDICTED SPECTRUM>  (2600) 
26 14
27 50
28 51
29 28
32 5
34 6
36 16
37 20
38 103
39 379
40 183
41 274
42 121
43 69
44 160
45 103
47 163
50 186
51 454
52 139
53 162
54 146
55 249
56 138
57 82
62 73
63 209
64 158
65 413
66 259
67 128
68 119
69 94
70 162
71 35
74 47
75 92
76 113
77 687
78 210
79 119
80 105
81 169
82 75
83 50
84 19
87 51
88 41
89 70
90 36
91 217
92 239
93 262
94 496
95 188
96 30
97 35
98 33
99 11
100 14
102 66
103 67
104 3
105 48
106 55
107 43
108 38
109 128
113 37
114 19
115 302
116 79
117 82
118 105
119 65
120 51
121 79
122 54
123 31
126 35
127 95
128 58
129 62
130 58
131 24
132 26
133 30
134 11
137 26
138 26
139 242
140 142
141 359
142 88
143 34
144 16
149 50
150 3
151 120
152 261
153 174
154 112
155 140
156 118
157 239
158 78
159 19
164 0
165 109
166 177
167 158
168 299
169 403
170 437
171 171
172 79
173 18
176 3
177 31
179 0
185 32
186 86
187 58
188 1
189 27
190 44
194 1
198 22
199 36
201 4
202 84
203 2
205 82
209 59
210 51
211 4
212 42
213 54
214 32
215 447
216 87
217 278
218 217
220 10
223 11
225 46
227 65
228 248
229 164
230 176
231 174
232 248
233 507
234 250
235 66
245 11
246 47
249 193
250 52
251 35
252 17
272 44
283 40
309 1
325 731
326 999
327 517
328 221
329 59

$$$$

     RDKit          2D

 11 10  0  0  0  0  0  0  0  0999 V2000
    2.2841    2.8734    0.0000 C   0  0  0  0  0  0  0  0  0  0  0  0
   -5.5102    2.8734    0.0000 C   0  0  0  0  0  0  0  0  0  0  0  0
   -3.0284    7.3311    0.0000 C   0  0  0  0  0  0  0  0  0  0  0  0
    0.9850    3.6234    0.0000 C   0  0  0  0  0  0  0  0  0  0  0  0
   -4.2111    3.6234    0.0000 C   0  0  0  0  0  0  0  0  0  0  0  0
   -2.0642    6.1820    0.0000 C   0  0  0  0  0  0  0  0  0  0  0  0
   -0.6489    4.7725    0.0000 O   0  0  0  0  0  0  0  0  0  0  0  0
   -0.3140    2.8734    0.0000 O   0  0  0  0  0  0  0  0  0  0  0  0
   -2.9121    2.8734    0.0000 O   0  0  0  0  0  0  0  0  0  0  0  0
   -2.5772    4.7725    0.0000 O   0  0  0  0  0  0  0  0  0  0  0  0
   -1.6131    3.6234    0.0000 P   0  0  0  0  0  0  0  0  0  0  0  0
  4  1  1  0
  5  2  1  0
  6  3  1  0
  8  4  1  0
  9  5  1  0
 10  6  1  0
 11  7  2  0
 11  8  1  0
 11  9  1  0
 11 10  1  0
M  END
>  <NAME>  (2601) 
TRIETHYL PHOSPHATE

>  <SYNONYMS>  (2601) 


>  <SPECTRUM TYPE>  (2601) 
MS1

>  <INSTRUMENT TYPE>  (2601) 
EI-B

>  <INSTRUMENT>  (2601) 
HITACHI M-60

>  <ION MODE>  (2601) 
P

>  <INCHIKEY>  (2601) 
DQWPFSLDHJDLRL-UHFFFAOYSA-N

>  <FORMULA>  (2601) 
C6H15O4P

>  <EXACT MASS>  (2601) 
182.07079559

>  <MW>  (2601) 
182

>  <ID>  (2601) 
JP008345

>  <CONTRIBUTOR>  (2601) 
University of Tokyo Team, {Faculty of Engineering, University of Tokyo

>  <COMMENT>  (2601) 
SMILES=CCOP(=O)(OCC)OCC
InChI=InChI=1S/C6H15O4P/c1-4-8-11(7,9-5-2)10-6-3/h4-6H2,1-3H3
computed SMILES=O=P(OCC)(OCC)OCC
accession=JP008345
date=2016.01.19 (Created 2008.10.21, modified 2011.05.06)
author=UBE SCIENTIFIC ANALYSIS LABORATORY
license=CC BY-NC-SA
exact mass=182.0708
ionization energy=70 eV
ion type=[M]+*
computed spectral entropy=2.9787128106272958
computed normalized entropy=0.8130647436420632
SPLASH=splash10-0a7j-8900000000-71882ad05d1388e48be8
submitter=submitter = University of Tokyo Team (Faculty of Engineering, University of Tokyo)
MoNA Rating=3.75

>  <NUM PEAKS>  (2601) 
39

>  <MASS SPECTRAL PEAKS>  (2601) 
15 6.32
19 1.68
26 4.92
27 20.57
29 34.53
30 1.25
31 7.09
42 1.06
43 3.44
45 21.89
46 1.83
47 2.85
65 5.8
81 46.25
82 32.49
83 9.48
91 9.66
93 2.05
99 90.55
104 2.27
109 36.16
110 8.26
111 14.64
125 17.15
126 6.77
127 58.54
128 1.37
132 2.09
137 9.71
138 11.37
139 9.06
153 4.63
154 2.12
155 99.99
156 4.3
167 3.99
181 2.67
182 12.1
183 11.24

>  <PREDICTED SPECTRUM>  (2601) 
17 0
18 8
26 95
27 140
28 174
29 200
31 212
41 63
42 25
43 177
44 27
45 412
46 160
47 420
48 97
51 28
53 379
54 159
55 196
56 13
62 83
63 140
65 482
66 67
69 323
70 252
71 77
80 6
81 959
82 585
83 365
91 259
92 35
93 248
94 27
96 40
97 8
98 141
99 999
100 127
101 13
109 730
110 239
111 360
113 43
121 81
125 101
126 112
127 805
137 208
138 253
139 245
153 185
154 273
155 816
167 114
181 29
182 484
183 53

$$$$

     RDKit          2D

 18 18  0  0  0  0  0  0  0  0999 V2000
   -2.9356    5.4356    0.0000 C   0  0  0  0  0  0  0  0  0  0  0  0
   -0.3375    5.4400    0.0000 C   0  0  0  0  0  0  0  0  0  0  0  0
    6.1662    0.1908    0.0000 C   0  0  0  0  0  0  0  0  0  0  0  0
    4.8668    2.4406    0.0000 C   0  0  0  0  0  0  0  0  0  0  0  0
   -1.6200   -1.3100    0.0000 C   0  0  0  0  0  0  0  0  0  0  0  0
   -0.3300   -2.0600    0.0000 C   0  0  0  0  0  0  0  0  0  0  0  0
   -1.6200    0.1900    0.0000 C   0  0  0  0  0  0  0  0  0  0  0  0
    0.9700   -1.3100    0.0000 C   0  0  0  0  0  0  0  0  0  0  0  0
   -1.6353    4.6878    0.0000 C   0  0  0  0  0  0  0  0  0  0  0  0
    4.8670    0.9406    0.0000 C   0  0  0  0  0  0  0  0  0  0  0  0
   -0.3300    0.9400    0.0000 C   0  0  0  0  0  0  0  0  0  0  0  0
    0.9700    0.1900    0.0000 C   0  0  0  0  0  0  0  0  0  0  0  0
   -0.3325    2.4400    0.0000 C   0  0  0  0  0  0  0  0  0  0  0  0
    2.2689    0.9402    0.0000 C   0  0  0  0  0  0  0  0  0  0  0  0
    0.9653    3.1922    0.0000 O   0  0  0  0  0  0  0  0  0  0  0  0
    2.2687    2.4402    0.0000 O   0  0  0  0  0  0  0  0  0  0  0  0
   -1.6328    3.1878    0.0000 O   0  0  0  0  0  0  0  0  0  0  0  0
    3.5681    0.1904    0.0000 O   0  0  0  0  0  0  0  0  0  0  0  0
  6  5  2  0
  7  5  1  0
  8  6  1  0
  9  1  1  0
  9  2  1  0
 10  3  1  0
 10  4  1  0
 11  7  2  0
 12  8  2  0
 12 11  1  0
 13 11  1  0
 14 12  1  0
 15 13  2  0
 16 14  2  0
 17  9  1  0
 17 13  1  0
 18 10  1  0
 18 14  1  0
M  END
>  <NAME>  (2602) 
DIISOPROPYL PHTHALATE

>  <SYNONYMS>  (2602) 
PHTHALIC ACID DIISOPROPYL ESTER

>  <SPECTRUM TYPE>  (2602) 
MS1

>  <INSTRUMENT TYPE>  (2602) 
EI-B

>  <INSTRUMENT>  (2602) 
HITACHI M-60

>  <ION MODE>  (2602) 
P

>  <INCHIKEY>  (2602) 
QWDBCIAVABMJPP-UHFFFAOYSA-N

>  <FORMULA>  (2602) 
C14H18O4

>  <EXACT MASS>  (2602) 
250.120509056

>  <MW>  (2602) 
250

>  <ID>  (2602) 
JP008343

>  <CONTRIBUTOR>  (2602) 
University of Tokyo Team, {Faculty of Engineering, University of Tokyo

>  <COMMENT>  (2602) 
SMILES=CC(C)OC(=O)c(c1)c(ccc1)C(=O)OC(C)C
InChI=InChI=1S/C14H18O4/c1-9(2)17-13(15)11-7-5-6-8-12(11)14(16)18-10(3)4/h5-10H,1-4H3
computed SMILES=O=C(OC(C)C)C=1C=CC=CC1C(=O)OC(C)C
accession=JP008343
date=2016.01.19 (Created 2008.10.21, modified 2011.05.06)
author=UBE SCIENTIFIC ANALYSIS LABORATORY
license=CC BY-NC-SA
exact mass=250.12051
ionization energy=70 eV
ion type=[M]+*
computed spectral entropy=2.543155502727383
computed normalized entropy=0.7552515820202226
SPLASH=splash10-0002-5900000000-d74b235e94b9ed720db1
submitter=submitter = University of Tokyo Team (Faculty of Engineering, University of Tokyo)
MoNA Rating=3.75

>  <NUM PEAKS>  (2602) 
29

>  <MASS SPECTRAL PEAKS>  (2602) 
15 1.98
27 7.95
39 5.94
41 11.08
42 2.44
43 18.48
45 2.15
50 4.55
51 1.62
59 4.82
65 7.33
66 1.91
75 1.29
76 9.18
77 2.95
93 4.92
104 7.94
105 7.35
121 3.82
122 7.14
123 1.07
149 99.99
150 11.97
151 1.37
167 4.06
191 4.61
192 5.51
209 7.01
251 1.77

>  <PREDICTED SPECTRUM>  (2602) 
27 103
38 2
39 158
40 38
41 192
42 143
43 308
44 63
45 0
50 106
51 64
52 5
53 38
54 2
59 142
63 44
64 0
65 213
66 80
74 36
75 14
76 209
77 138
78 38
91 4
92 39
93 141
104 259
105 189
106 20
107 21
108 55
120 29
121 213
122 377
123 141
124 37
132 95
146 41
148 89
149 999
150 386
151 116
164 25
167 200
168 34
183 4
190 110
191 274
192 188
208 18
209 236
250 71

$$$$

     RDKit          2D

 11 10  0  0  0  0  0  0  0  0999 V2000
   -1.2990    6.0000    0.0000 C   0  0  0  0  0  0  0  0  0  0  0  0
   -6.4952    4.5000    0.0000 C   0  0  0  0  0  0  0  0  0  0  0  0
    2.5981    3.7500    0.0000 C   0  0  0  0  0  0  0  0  0  0  0  0
   -2.5981    3.7500    0.0000 C   0  0  0  0  0  0  0  0  0  0  0  0
   -1.2990    4.5000    0.0000 C   0  0  0  0  0  0  0  0  0  0  0  0
   -3.8971    4.5000    0.0000 C   0  0  0  0  0  0  0  0  0  0  0  0
   -0.0000    3.7500    0.0000 C   0  0  0  0  0  0  0  0  0  0  0  0
   -3.8971    6.0000    0.0000 O   0  0  0  0  0  0  0  0  0  0  0  0
   -0.0000    2.2500    0.0000 O   0  0  0  0  0  0  0  0  0  0  0  0
   -5.1962    3.7500    0.0000 O   0  0  0  0  0  0  0  0  0  0  0  0
    1.2990    4.5000    0.0000 O   0  0  0  0  0  0  0  0  0  0  0  0
  5  1  1  0
  5  4  1  0
  6  4  1  0
  7  5  1  0
  8  6  2  0
  9  7  2  0
 10  2  1  0
 10  6  1  0
 11  3  1  0
 11  7  1  0
M  END
>  <NAME>  (2603) 
DIMETHYL 2-METHYLSUCCINATE

>  <SYNONYMS>  (2603) 


>  <SPECTRUM TYPE>  (2603) 
MS1

>  <INSTRUMENT TYPE>  (2603) 
EI-B

>  <INSTRUMENT>  (2603) 
HITACHI M-60

>  <ION MODE>  (2603) 
P

>  <INCHIKEY>  (2603) 
NFOQJNGQQXICBY-UHFFFAOYSA-N

>  <FORMULA>  (2603) 
C7H12O4

>  <EXACT MASS>  (2603) 
160.073558864

>  <MW>  (2603) 
160

>  <ID>  (2603) 
JP008339

>  <CONTRIBUTOR>  (2603) 
University of Tokyo Team, {Faculty of Engineering, University of Tokyo

>  <COMMENT>  (2603) 
SMILES=COC(=O)CC(C)C(=O)OC
InChI=InChI=1S/C7H12O4/c1-5(7(9)11-3)4-6(8)10-2/h5H,4H2,1-3H3
computed SMILES=O=C(OC)CC(C(=O)OC)C
accession=JP008339
date=2016.01.19 (Created 2008.10.21, modified 2011.05.06)
author=UBE SCIENTIFIC ANALYSIS LABORATORY
license=CC BY-NC-SA
exact mass=160.07356
ionization energy=70 eV
ion type=[M]+*
computed spectral entropy=2.7871641560451326
computed normalized entropy=0.7053890760871055
SPLASH=splash10-0a6r-9300000000-9fe07ee1cf7b49aa9a9e
submitter=submitter = University of Tokyo Team (Faculty of Engineering, University of Tokyo)
MoNA Rating=3.75

>  <NUM PEAKS>  (2603) 
52

>  <MASS SPECTRAL PEAKS>  (2603) 
14 0.81
15 33.51
16 0.78
26 0.7
27 5.23
28 1.15
29 9.54
30 0.49
31 2.17
32 0.54
38 0.31
39 6.62
40 2.34
41 17.93
42 10.54
43 6.07
44 0.25
45 2.42
53 0.36
55 6.55
56 2.07
57 0.59
58 2.15
59 99.99
60 3.44
68 0.59
69 13.64
70 1.44
71 0.82
72 1.65
73 1.05
74 5.63
75 0.56
79 0.24
82 0.48
83 0.2
85 1.21
87 11.05
88 0.94
91 0.15
98 0.18
99 1.37
100 17.08
101 20.41
102 1.22
113 0.64
115 0.75
128 21.31
129 35.46
130 2.68
131 0.35
142 0.1

>  <PREDICTED SPECTRUM>  (2603) 
14 34
15 280
16 9
26 117
27 420
28 247
29 428
30 134
31 235
32 80
33 132
37 42
38 113
39 402
40 213
41 758
42 568
43 459
44 142
45 375
52 19
53 70
54 73
55 731
56 357
57 494
58 264
59 999
60 188
61 27
66 6
67 76
68 238
69 809
70 350
71 108
72 132
73 151
74 154
75 177
85 288
86 95
87 490
88 243
97 73
99 55
100 596
101 881
102 240
103 32
128 424
129 574
130 40
160 47

$$$$

     RDKit          2D

 13 13  0  0  0  0  0  0  0  0999 V2000
    0.8500    0.5800    0.0000 C   0  0  0  0  0  0  0  0  0  0  0  0
    0.1000   -0.7200    0.0000 C   0  0  0  0  0  0  0  0  0  0  0  0
    2.3500    0.5800    0.0000 C   0  0  0  0  0  0  0  0  0  0  0  0
   -1.4000   -0.7200    0.0000 C   0  0  0  0  0  0  0  0  0  0  0  0
    3.1000    1.8700    0.0000 C   0  0  0  0  0  0  0  0  0  0  0  0
   -2.1500    0.5800    0.0000 C   0  0  0  0  0  0  0  0  0  0  0  0
    0.8500    3.1700    0.0000 C   0  0  0  0  0  0  0  0  0  0  0  0
   -3.6500    0.5800    0.0000 C   0  0  0  0  0  0  0  0  0  0  0  0
    0.1000    4.4700    0.0000 C   0  0  0  0  0  0  0  0  0  0  0  0
   -4.4000    1.8800    0.0000 C   0  0  0  0  0  0  0  0  0  0  0  0
   -1.4000    4.4700    0.0000 C   0  0  0  0  0  0  0  0  0  0  0  0
   -3.6500    3.1700    0.0000 C   0  0  0  0  0  0  0  0  0  0  0  0
   -2.1500    3.1700    0.0000 N   0  0  0  0  0  0  0  0  0  0  0  0
  2  1  1  0
  3  1  1  0
  4  2  1  0
  5  3  1  0
  6  4  1  0
  7  5  1  0
  8  6  1  0
  9  7  1  0
 10  8  1  0
 11  9  1  0
 12 10  1  0
 13 11  1  0
 13 12  1  0
M  END
>  <NAME>  (2604) 
DODECAMETHYLENE IMINE

>  <SYNONYMS>  (2604) 
1-AZACYCLOTRIDECANE

>  <SPECTRUM TYPE>  (2604) 
MS1

>  <INSTRUMENT TYPE>  (2604) 
EI-B

>  <INSTRUMENT>  (2604) 
HITACHI M-60

>  <ION MODE>  (2604) 
P

>  <INCHIKEY>  (2604) 
UFADJPZTTUWZMP-UHFFFAOYSA-N

>  <FORMULA>  (2604) 
C12H25N

>  <EXACT MASS>  (2604) 
183.19869979999999

>  <MW>  (2604) 
183

>  <ID>  (2604) 
JP008337

>  <CONTRIBUTOR>  (2604) 
University of Tokyo Team, {Faculty of Engineering, University of Tokyo

>  <COMMENT>  (2604) 
SMILES=C(C1)CCCCCNCCCCC1
InChI=InChI=1S/C12H25N/c1-2-4-6-8-10-12-13-11-9-7-5-3-1/h13H,1-12H2
computed SMILES=N1CCCCCCCCCCCC1
accession=JP008337
date=2016.01.19 (Created 2008.10.21, modified 2011.05.06)
author=UBE SCIENTIFIC ANALYSIS LABORATORY
license=CC BY-NC-SA
exact mass=183.1987
ionization energy=70 eV
ion type=[M]+*
computed spectral entropy=3.268512072180527
computed normalized entropy=0.835504307527151
SPLASH=splash10-001l-9100000000-d290b57f5726e7233199
submitter=submitter = University of Tokyo Team (Faculty of Engineering, University of Tokyo)
MoNA Rating=3.75

>  <NUM PEAKS>  (2604) 
50

>  <MASS SPECTRAL PEAKS>  (2604) 
15 2.94
27 14.22
29 33.25
30 99.99
31 48.44
39 5.52
41 34.79
42 21.28
43 27.43
44 63.52
45 19.35
54 1.27
55 14.16
56 42.96
57 10.36
58 4.42
59 20.98
67 3.84
68 2.85
69 4.07
70 27.59
71 4.81
72 13.75
73 2.35
74 9.91
81 3.22
82 5.84
83 0.96
84 9.6
85 1.38
86 10.69
95 1.84
96 4.97
97 1.24
98 9.37
99 1.09
100 6.82
109 0.56
110 1.39
112 10.73
114 3.33
126 8.35
128 2.06
140 10.42
142 5.33
154 4.44
168 1.17
182 2.72
183 16.1
184 2

>  <PREDICTED SPECTRUM>  (2604) 
15 3
18 46
26 49
27 257
28 223
29 362
30 655
31 162
38 72
39 463
40 238
41 944
42 622
43 903
44 994
45 276
46 74
51 67
52 93
53 349
54 331
55 868
56 952
57 797
58 567
59 470
60 234
61 27
63 19
64 18
65 115
66 108
67 386
68 367
69 668
70 999
71 711
72 839
73 382
74 136
75 39
78 1
79 208
80 94
81 339
82 326
83 476
84 719
85 465
86 651
87 339
88 186
89 13
93 95
94 126
95 367
96 342
97 414
98 802
99 418
100 343
101 249
103 23
108 44
109 127
110 279
111 299
112 785
113 374
114 479
115 168
122 18
123 107
124 152
125 287
126 775
127 387
128 258
129 101
137 49
138 219
139 203
140 712
141 347
142 185
150 89
151 141
152 190
153 261
154 561
155 173
164 50
166 105
167 81
168 526
169 130
182 385
183 628
184 247

$$$$

     RDKit          2D

  8  8  0  0  0  0  0  0  0  0999 V2000
   -1.3000    0.7500    0.0000 C   0  0  0  0  0  0  0  0  0  0  0  0
   -0.0000   -1.5000    0.0000 C   0  0  0  0  0  0  0  0  0  0  0  0
    0.0000    1.5000    0.0000 C   0  0  0  0  0  0  0  0  0  0  0  0
    1.3000   -0.7500    0.0000 C   0  0  0  0  0  0  0  0  0  0  0  0
   -1.3000   -0.7500    0.0000 C   0  0  0  0  0  0  0  0  0  0  0  0
    1.3000    0.7500    0.0000 C   0  0  0  0  0  0  0  0  0  0  0  0
   -2.5989   -1.5002    0.0000 Cl  0  0  0  0  0  0  0  0  0  0  0  0
    2.5989    1.5002    0.0000 O   0  0  0  0  0  0  0  0  0  0  0  0
  3  1  2  0
  4  2  1  0
  5  1  1  0
  5  2  2  0
  6  3  1  0
  6  4  2  0
  7  5  1  0
  8  6  1  0
M  END
>  <NAME>  (2605) 
PARA-CHLOROPHENOL

>  <SYNONYMS>  (2605) 


>  <SPECTRUM TYPE>  (2605) 
MS1

>  <INSTRUMENT TYPE>  (2605) 
EI-B

>  <INSTRUMENT>  (2605) 
HITACHI M-60

>  <ION MODE>  (2605) 
P

>  <INCHIKEY>  (2605) 
WXNZTHHGJRFXKQ-UHFFFAOYSA-N

>  <FORMULA>  (2605) 
C6H5ClO

>  <EXACT MASS>  (2605) 
128.00289246

>  <MW>  (2605) 
128

>  <ID>  (2605) 
JP008336

>  <CONTRIBUTOR>  (2605) 
University of Tokyo Team, {Faculty of Engineering, University of Tokyo

>  <COMMENT>  (2605) 
SMILES=Oc(c1)ccc(Cl)c1
InChI=InChI=1S/C6H5ClO/c7-5-1-3-6(8)4-2-5/h1-4,8H
computed SMILES=ClC1=CC=C(O)C=C1
accession=JP008336
date=2016.01.19 (Created 2008.10.21, modified 2011.05.06)
author=UBE SCIENTIFIC ANALYSIS LABORATORY
license=CC BY-NC-SA
exact mass=128.00289
ionization energy=70 eV
ion type=[M]+*
computed spectral entropy=3.033827483131313
computed normalized entropy=0.6984261928188881
SPLASH=splash10-004i-9800000000-32ffdbba762c4f0fc609
submitter=submitter = University of Tokyo Team (Faculty of Engineering, University of Tokyo)
MoNA Rating=3.75

>  <NUM PEAKS>  (2605) 
77

>  <MASS SPECTRAL PEAKS>  (2605) 
14 0.58
17 0.7
18 2.23
26 1.32
27 1.61
29 1.64
31 2.24
32 2.28
36 0.9
37 5.97
38 7.7
39 15.47
40 1.23
41 0.37
42 0.95
43 0.51
45 0.2
46 4.41
47 0.74
49 2.52
50 5.33
51 2.58
52 0.71
53 4.81
55 2.04
57 0.42
60 1.2
61 4.76
62 6.57
63 12.44
64 17.41
65 33.08
66 3.54
67 0.57
68 0.64
72 1.42
73 7.64
74 3.12
75 4.74
76 0.47
77 0.66
79 0.28
80 0.28
82 0.38
84 0.59
85 0.4
86 0.26
87 0.28
89 0.64
91 0.66
92 2.79
93 4.15
94 0.5
97 0.37
99 6.09
100 10.32
101 3.03
102 4.19
103 0.1
104 0.2
105 0.29
108 0.25
109 0.15
110 0.84
113 0.29
115 0.21
117 0.11
119 0.23
127 1.51
128 99.99
129 7.26
130 34.22
131 2.27
133 0.18
141 0.1
168 0.11
175 0.17

>  <PREDICTED SPECTRUM>  (2605) 
25 27
26 47
27 36
28 4
29 48
31 24
32 6
35 47
36 82
37 160
38 225
39 292
40 48
41 40
47 15
49 82
50 175
51 108
53 128
54 44
55 23
56 31
57 130
60 94
61 130
62 212
63 469
64 390
65 455
66 134
68 20
72 49
73 335
74 94
75 333
82 96
91 58
92 198
93 413
94 148
98 4
99 379
100 134
101 376
102 50
111 189
126 20
127 218
128 999
129 280
130 511
131 94

$$$$

     RDKit          2D

  8  8  0  0  0  0  0  0  0  0999 V2000
   -1.3000    0.7500    0.0000 C   0  0  0  0  0  0  0  0  0  0  0  0
    0.0000    1.5000    0.0000 C   0  0  0  0  0  0  0  0  0  0  0  0
   -1.3000   -0.7500    0.0000 C   0  0  0  0  0  0  0  0  0  0  0  0
    1.3000    0.7500    0.0000 C   0  0  0  0  0  0  0  0  0  0  0  0
    0.0000   -1.5000    0.0000 C   0  0  0  0  0  0  0  0  0  0  0  0
    1.3000   -0.7500    0.0000 C   0  0  0  0  0  0  0  0  0  0  0  0
   -0.0000   -3.0000    0.0000 Cl  0  0  0  0  0  0  0  0  0  0  0  0
    2.5989   -1.5002    0.0000 O   0  0  0  0  0  0  0  0  0  0  0  0
  2  1  2  0
  3  1  1  0
  4  2  1  0
  5  3  2  0
  6  4  2  0
  6  5  1  0
  7  5  1  0
  8  6  1  0
M  END
>  <NAME>  (2606) 
ORTHO-CHLOROPHENOL

>  <SYNONYMS>  (2606) 


>  <SPECTRUM TYPE>  (2606) 
MS1

>  <INSTRUMENT TYPE>  (2606) 
EI-B

>  <INSTRUMENT>  (2606) 
HITACHI M-60

>  <ION MODE>  (2606) 
P

>  <INCHIKEY>  (2606) 
ISPYQTSUDJAMAB-UHFFFAOYSA-N

>  <FORMULA>  (2606) 
C6H5ClO

>  <EXACT MASS>  (2606) 
128.00289246

>  <MW>  (2606) 
128

>  <ID>  (2606) 
JP008335

>  <CONTRIBUTOR>  (2606) 
University of Tokyo Team, {Faculty of Engineering, University of Tokyo

>  <COMMENT>  (2606) 
SMILES=Oc(c1)c(Cl)ccc1
InChI=InChI=1S/C6H5ClO/c7-5-3-1-2-4-6(5)8/h1-4,8H
computed SMILES=ClC=1C=CC=CC1O
accession=JP008335
date=2016.01.19 (Created 2008.10.21, modified 2011.05.06)
author=UBE SCIENTIFIC ANALYSIS LABORATORY
license=CC BY-NC-SA
exact mass=128.00289
ionization energy=70 eV
ion type=[M]+*
computed spectral entropy=2.7741316881341924
computed normalized entropy=0.7375655649267799
SPLASH=splash10-01t9-9600000000-36ba32f2c81fdba5c49c
submitter=submitter = University of Tokyo Team (Faculty of Engineering, University of Tokyo)
MoNA Rating=3.75

>  <NUM PEAKS>  (2606) 
43

>  <MASS SPECTRAL PEAKS>  (2606) 
14 6.19
26 2.11
27 1.28
31 2.07
32 3.08
37 3.69
38 12.09
39 14.47
41 3.43
46 3.3
50 6.82
51 3.44
52 0.72
53 2.68
54 3.79
61 3.92
62 7.04
63 23.28
64 52.33
65 18.48
70 2.4
71 0.34
73 5.98
75 3.91
82 0.53
85 0.35
87 1.42
88 1.54
89 0.82
92 21.41
97 1.54
99 4.61
100 3.23
108 3.67
109 0.77
111 1.38
115 0.57
128 99.99
129 8.23
130 39.56
131 2.73
142 0.44
149 0.41

>  <PREDICTED SPECTRUM>  (2606) 
17 4
18 28
25 26
26 22
28 12
29 3
35 36
36 91
37 122
38 168
39 127
47 39
49 32
51 5
57 43
60 59
61 15
62 54
63 234
64 249
65 538
66 164
72 76
73 153
74 47
75 132
82 67
83 32
84 4
91 82
92 203
93 587
94 196
99 191
100 119
101 158
102 47
127 52
128 999
129 229
130 553
131 95

$$$$

     RDKit          2D

  5  4  0  0  0  0  0  0  0  0999 V2000
   -0.6495    3.3750    0.0000 C   0  0  0  0  0  0  0  0  0  0  0  0
    0.6495    2.6250    0.0000 C   0  0  0  0  0  0  0  0  0  0  0  0
   -1.9486    2.6250    0.0000 C   0  0  0  0  0  0  0  0  0  0  0  0
    1.9486    1.8750    0.0000 N   0  0  0  0  0  0  0  0  0  0  0  0
   -3.2476    3.3750    0.0000 O   0  0  0  0  0  0  0  0  0  0  0  0
  2  1  1  0
  3  1  1  0
  4  2  3  0
  5  3  1  0
M  END
>  <NAME>  (2607) 
BETA-CYANOETHANOL

>  <SYNONYMS>  (2607) 


>  <SPECTRUM TYPE>  (2607) 
MS1

>  <INSTRUMENT TYPE>  (2607) 
EI-B

>  <INSTRUMENT>  (2607) 
HITACHI M-60

>  <ION MODE>  (2607) 
P

>  <INCHIKEY>  (2607) 
WSGYTJNNHPZFKR-UHFFFAOYSA-N

>  <FORMULA>  (2607) 
C3H5NO

>  <EXACT MASS>  (2607) 
71.03711378

>  <MW>  (2607) 
71

>  <ID>  (2607) 
JP008334

>  <CONTRIBUTOR>  (2607) 
University of Tokyo Team, {Faculty of Engineering, University of Tokyo

>  <COMMENT>  (2607) 
SMILES=N#CCCO
InChI=InChI=1S/C3H5NO/c4-2-1-3-5/h5H,1,3H2
computed SMILES=N#CCCO
accession=JP008334
date=2016.01.19 (Created 2008.10.21, modified 2011.05.06)
author=UBE SCIENTIFIC ANALYSIS LABORATORY
license=CC BY-NC-SA
exact mass=71.03711
ionization energy=70 eV
ion type=[M]+*
computed spectral entropy=1.987024554438358
computed normalized entropy=0.6632850912545162
SPLASH=splash10-001l-9000000000-7071703d473a0f75531d
submitter=submitter = University of Tokyo Team (Faculty of Engineering, University of Tokyo)
MoNA Rating=3.75

>  <NUM PEAKS>  (2607) 
20

>  <MASS SPECTRAL PEAKS>  (2607) 
14 3.55
15 14.87
17 2.12
18 7.63
26 3.86
27 4.25
28 4.55
29 14.49
30 1.76
31 99.99
38 1.63
39 2.52
40 6.31
41 68.95
42 8
43 2.86
45 2.74
51 2.25
52 2.69
59 1.85

>  <PREDICTED SPECTRUM>  (2607) 
14 200
15 249
16 106
17 38
18 48
19 87
25 124
26 451
27 628
28 644
29 344
31 887
32 26
33 21
35 9
38 218
40 696
41 999
42 578
43 191
44 106
51 124
52 385
53 400
54 571
70 46
71 750
72 80

$$$$

     RDKit          2D

  5  4  0  0  0  0  0  0  0  0999 V2000
   -0.0000   -0.0000    0.0000 C   0  0  0  0  0  0  0  0  0  0  0  0
    0.0000    1.5000    0.0000 C   0  0  0  0  0  0  0  0  0  0  0  0
   -1.2990    2.2500    0.0000 C   0  0  0  0  0  0  0  0  0  0  0  0
   -1.2990    3.7500    0.0000 N   0  0  0  0  0  0  0  0  0  0  0  0
   -2.5981    1.5000    0.0000 O   0  0  0  0  0  0  0  0  0  0  0  0
  2  1  2  0
  3  2  1  0
  4  3  2  0
  5  3  1  0
M  END
>  <NAME>  (2608) 
ACRYLAMIDE

>  <SYNONYMS>  (2608) 


>  <SPECTRUM TYPE>  (2608) 
MS1

>  <INSTRUMENT TYPE>  (2608) 
EI-B

>  <INSTRUMENT>  (2608) 
HITACHI M-60

>  <ION MODE>  (2608) 
P

>  <INCHIKEY>  (2608) 
HRPVXLWXLXDGHG-UHFFFAOYSA-N

>  <FORMULA>  (2608) 
C3H5NO

>  <EXACT MASS>  (2608) 
71.03711378

>  <MW>  (2608) 
71

>  <ID>  (2608) 
JP008333

>  <CONTRIBUTOR>  (2608) 
University of Tokyo Team, {Faculty of Engineering, University of Tokyo

>  <COMMENT>  (2608) 
SMILES=C=CC(N)=O
InChI=InChI=1S/C3H5NO/c1-2-3(4)5/h2H,1H2,(H2,4,5)
computed SMILES=N=C(O)C=C
accession=JP008333
date=2016.01.19 (Created 2008.10.21, modified 2011.05.06)
author=UBE SCIENTIFIC ANALYSIS LABORATORY
license=CC BY-NC-SA
exact mass=71.03711
ionization energy=70 eV
ion type=[M]+*
computed spectral entropy=2.315165727589089
computed normalized entropy=0.6947850050978294
SPLASH=splash10-05dl-9000000000-1bf9b49a192db4be5718
submitter=submitter = University of Tokyo Team (Faculty of Engineering, University of Tokyo)
MoNA Rating=3.75

>  <NUM PEAKS>  (2608) 
28

>  <MASS SPECTRAL PEAKS>  (2608) 
14 3.45
15 5.24
16 9.62
25 2.07
26 25.01
27 88.65
28 17.96
29 2.27
30 17.2
32 0.36
41 1.96
42 4.89
43 18.53
44 87.88
45 4.79
52 2.98
53 5.63
54 1.83
55 68.9
56 1.74
57 1.15
70 5.38
71 99.99
72 2.69
87 0.16
131 0.43
177 0.25
219 0.26

>  <PREDICTED SPECTRUM>  (2608) 
14 71
15 54
16 58
17 85
18 63
19 39
25 117
26 415
27 588
28 474
29 376
30 137
31 194
32 7
36 21
37 89
38 224
40 189
41 286
42 438
43 679
44 719
45 518
46 58
50 4
51 119
52 195
53 445
54 581
55 241
56 323
57 11
68 90
69 196
70 951
71 999
72 218
73 43

$$$$

     RDKit          2D

  9  8  0  0  0  0  0  0  0  0999 V2000
    0.0000    6.0000    0.0000 C   0  0  0  0  0  0  0  0  0  0  0  0
   -5.1962    6.0000    0.0000 C   0  0  0  0  0  0  0  0  0  0  0  0
    1.2990    5.2500    0.0000 C   0  0  0  0  0  0  0  0  0  0  0  0
   -6.4952    5.2500    0.0000 C   0  0  0  0  0  0  0  0  0  0  0  0
   -1.2990    5.2500    0.0000 C   0  0  0  0  0  0  0  0  0  0  0  0
   -3.8971    5.2500    0.0000 C   0  0  0  0  0  0  0  0  0  0  0  0
    2.5981    4.5000    0.0000 N   0  0  0  0  0  0  0  0  0  0  0  0
   -7.7942    4.5000    0.0000 N   0  0  0  0  0  0  0  0  0  0  0  0
   -2.5981    6.0000    0.0000 O   0  0  0  0  0  0  0  0  0  0  0  0
  3  1  1  0
  4  2  1  0
  5  1  1  0
  6  2  1  0
  7  3  3  0
  8  4  3  0
  9  5  1  0
  9  6  1  0
M  END
>  <NAME>  (2609) 
BIS(2-CYANOETHYL)ETHER

>  <SYNONYMS>  (2609) 


>  <SPECTRUM TYPE>  (2609) 
MS1

>  <INSTRUMENT TYPE>  (2609) 
EI-B

>  <INSTRUMENT>  (2609) 
HITACHI M-60

>  <ION MODE>  (2609) 
P

>  <INCHIKEY>  (2609) 
BCGCCTGNWPKXJL-UHFFFAOYSA-N

>  <FORMULA>  (2609) 
C6H8N2O

>  <EXACT MASS>  (2609) 
124.063662876

>  <MW>  (2609) 
124

>  <ID>  (2609) 
JP008332

>  <CONTRIBUTOR>  (2609) 
University of Tokyo Team, {Faculty of Engineering, University of Tokyo

>  <COMMENT>  (2609) 
SMILES=N#CCCOCCC#N
InChI=InChI=1S/C6H8N2O/c7-3-1-5-9-6-2-4-8/h1-2,5-6H2
computed SMILES=N#CCCOCCC#N
accession=JP008332
date=2016.01.19 (Created 2008.10.21, modified 2011.05.06)
author=UBE SCIENTIFIC ANALYSIS LABORATORY
license=CC BY-NC-SA
exact mass=124.06366
ionization energy=70 eV
ion type=[M]+*
computed spectral entropy=2.2944822767051747
computed normalized entropy=0.6262982579068024
SPLASH=splash10-0udi-9000000000-f97d6d19e9dc484f2899
submitter=submitter = University of Tokyo Team (Faculty of Engineering, University of Tokyo)
MoNA Rating=3.75

>  <NUM PEAKS>  (2609) 
39

>  <MASS SPECTRAL PEAKS>  (2609) 
13 0.28
14 1.81
15 4.6
16 0.1
25 0.29
26 5.33
27 12.84
28 24.24
29 6.88
30 1.04
31 21.29
32 0.22
35 1.36
37 0.23
38 1.01
39 1.66
40 4.22
41 5.13
42 5.07
43 0.8
44 0.62
50 0.11
51 1.7
52 5.29
53 1.29
54 99.99
55 6.44
56 0.13
57 0.67
67 0.1
68 0.69
70 0.82
84 25.15
85 1.28
86 0.1
97 3.51
98 0.2
123 0.18
125 0.11

>  <PREDICTED SPECTRUM>  (2609) 
14 77
15 78
16 16
25 81
26 331
27 483
28 531
29 256
30 70
37 106
38 273
39 248
40 484
41 680
42 632
43 229
44 139
45 163
46 42
50 91
51 322
52 528
53 260
54 999
55 358
56 456
57 409
58 47
64 110
66 80
67 164
68 122
69 142
70 504
71 391
72 63
81 17
82 60
84 984
85 161
95 24
96 103
97 128
98 71
109 90
123 9
124 243
125 42

$$$$

     RDKit          2D

  8  8  0  0  0  0  0  0  0  0999 V2000
   -0.0005    1.5008    0.0000 C   0  0  0  0  0  0  0  0  0  0  0  0
   -1.2995    0.7508    0.0000 C   0  0  0  0  0  0  0  0  0  0  0  0
    1.2995   -0.7508    0.0000 C   0  0  0  0  0  0  0  0  0  0  0  0
    0.0005   -1.5008    0.0000 C   0  0  0  0  0  0  0  0  0  0  0  0
    1.2990    0.7500    0.0000 C   0  0  0  0  0  0  0  0  0  0  0  0
   -1.2990   -0.7500    0.0000 C   0  0  0  0  0  0  0  0  0  0  0  0
    2.5981    1.5000    0.0000 O   0  0  0  0  0  0  0  0  0  0  0  0
   -2.5981   -1.5000    0.0000 O   0  0  0  0  0  0  0  0  0  0  0  0
  2  1  1  0
  4  3  1  0
  5  1  1  0
  5  3  1  0
  6  2  1  0
  6  4  1  0
  7  5  1  0
  8  6  1  0
M  END
>  <NAME>  (2610) 
1,4-CYCLOHEXANEDIOL

>  <SYNONYMS>  (2610) 


>  <SPECTRUM TYPE>  (2610) 
MS1

>  <INSTRUMENT TYPE>  (2610) 
EI-B

>  <INSTRUMENT>  (2610) 
HITACHI M-60

>  <ION MODE>  (2610) 
P

>  <INCHIKEY>  (2610) 
VKONPUDBRVKQLM-UHFFFAOYSA-N

>  <FORMULA>  (2610) 
C6H12O2

>  <EXACT MASS>  (2610) 
116.083729624

>  <MW>  (2610) 
116

>  <ID>  (2610) 
JP008331

>  <CONTRIBUTOR>  (2610) 
University of Tokyo Team, {Faculty of Engineering, University of Tokyo

>  <COMMENT>  (2610) 
SMILES=OC(C1)CCC(O)C1
InChI=InChI=1S/C6H12O2/c7-5-1-2-6(8)4-3-5/h5-8H,1-4H2
computed SMILES=OC1CCC(O)CC1
accession=JP008331
date=2016.01.19 (Created 2008.10.21, modified 2011.05.06)
author=UBE SCIENTIFIC ANALYSIS LABORATORY
license=CC BY-NC-SA
exact mass=116.08373
ionization energy=70 eV
ion type=[M]+*
computed spectral entropy=3.1889252245022086
computed normalized entropy=0.8426969927509426
SPLASH=splash10-0a4l-9000000000-55e709d246fc79acd05a
submitter=submitter = University of Tokyo Team (Faculty of Engineering, University of Tokyo)
MoNA Rating=3.75

>  <NUM PEAKS>  (2610) 
44

>  <MASS SPECTRAL PEAKS>  (2610) 
15 7.21
19 1.81
26 2.04
27 21.85
28 4.97
29 36.93
30 4.17
31 31.63
38 0.86
39 19.89
40 4.49
41 41.59
42 33.7
43 31.46
44 28.83
45 8.13
47 8.66
51 1.73
53 5.38
54 63.32
55 41.14
56 12.02
57 38.4
58 99.99
59 28.2
60 2.57
67 3.55
68 3.2
69 23.63
70 21.52
71 1.91
73 0.49
77 1.73
79 5.87
80 12.8
81 4.14
82 0.41
83 13.64
84 0.69
97 7.06
98 26.54
99 1.93
110 3.09
116 0.69

>  <PREDICTED SPECTRUM>  (2610) 
26 44
27 166
28 16
29 165
30 0
31 115
33 4
37 23
38 72
39 479
40 243
41 802
42 528
43 667
44 629
45 320
47 250
50 115
51 190
52 116
53 407
54 756
55 681
56 513
57 999
58 313
59 155
60 276
61 10
62 19
63 1
65 181
66 184
67 495
68 95
69 502
70 841
71 325
72 252
73 261
74 5
77 172
78 212
79 309
80 735
81 560
82 77
83 597
84 42
88 9
97 371
98 668
99 208

$$$$

     RDKit          2D

  8  8  0  0  0  0  0  0  0  0999 V2000
   -0.0005    1.5008    0.0000 C   0  0  0  0  0  0  0  0  0  0  0  0
   -1.2995    0.7508    0.0000 C   0  0  0  0  0  0  0  0  0  0  0  0
    1.2995   -0.7508    0.0000 C   0  0  0  0  0  0  0  0  0  0  0  0
    0.0005   -1.5008    0.0000 C   0  0  0  0  0  0  0  0  0  0  0  0
    1.2990    0.7500    0.0000 C   0  0  0  0  0  0  0  0  0  0  0  0
   -1.2990   -0.7500    0.0000 C   0  0  0  0  0  0  0  0  0  0  0  0
    2.5981    1.5000    0.0000 O   0  0  0  0  0  0  0  0  0  0  0  0
   -2.5981   -1.5000    0.0000 O   0  0  0  0  0  0  0  0  0  0  0  0
  2  1  1  0
  4  3  1  0
  5  1  1  0
  5  3  1  0
  6  2  1  0
  6  4  1  0
  7  5  2  0
  8  6  2  0
M  END
>  <NAME>  (2611) 
1,4-CYCLOHEXANEDIONE

>  <SYNONYMS>  (2611) 


>  <SPECTRUM TYPE>  (2611) 
MS1

>  <INSTRUMENT TYPE>  (2611) 
EI-B

>  <INSTRUMENT>  (2611) 
HITACHI M-60

>  <ION MODE>  (2611) 
P

>  <INCHIKEY>  (2611) 
DCZFGQYXRKMVFG-UHFFFAOYSA-N

>  <FORMULA>  (2611) 
C6H8O2

>  <EXACT MASS>  (2611) 
112.052429496

>  <MW>  (2611) 
112

>  <ID>  (2611) 
JP008330

>  <CONTRIBUTOR>  (2611) 
University of Tokyo Team, {Faculty of Engineering, University of Tokyo

>  <COMMENT>  (2611) 
SMILES=O=C(C1)CCC(=O)C1
InChI=InChI=1S/C6H8O2/c7-5-1-2-6(8)4-3-5/h1-4H2
computed SMILES=O=C1CCC(=O)CC1
accession=JP008330
date=2016.01.19 (Created 2008.10.21, modified 2011.05.06)
author=UBE SCIENTIFIC ANALYSIS LABORATORY
license=CC BY-NC-SA
exact mass=112.05243
ionization energy=70 eV
ion type=[M]+*
computed spectral entropy=2.547662083150804
computed normalized entropy=0.7003716121853827
SPLASH=splash10-056r-9100000000-4f4f16f051df208a7363
submitter=submitter = University of Tokyo Team (Faculty of Engineering, University of Tokyo)
MoNA Rating=3.75

>  <NUM PEAKS>  (2611) 
38

>  <MASS SPECTRAL PEAKS>  (2611) 
14 2.76
15 2.23
25 0.46
26 12.4
27 31.45
28 99.99
29 18.92
31 0.7
37 0.87
38 1.76
39 5.86
40 1.55
41 4.52
42 20.52
43 3.55
45 1.73
50 1.16
51 0.97
52 0.36
53 2.97
54 3.03
55 32.86
56 56.2
57 19.32
58 0.86
66 0.68
67 1.22
69 2.03
70 3.5
83 4.81
84 2.41
85 0.47
94 0.48
97 1.2
111 1.17
112 64.88
113 4.55
114 0.27

>  <PREDICTED SPECTRUM>  (2611) 
14 38
15 98
16 17
18 46
25 66
26 301
27 737
28 601
29 544
30 314
31 164
32 42
36 113
37 180
38 327
39 762
40 313
41 556
42 628
43 127
44 87
45 47
48 4
49 65
50 130
51 294
52 224
53 287
54 356
55 947
56 726
57 378
58 131
63 30
65 174
66 49
67 218
68 486
69 156
70 431
71 93
82 0
83 544
84 795
85 173
94 16
95 20
111 93
112 999
113 276
114 20

$$$$

     RDKit          2D

 15 16  0  0  0  0  0  0  0  0999 V2000
    0.2900   -0.7500    0.0000 C   0  0  0  0  0  0  0  0  0  0  0  0
    0.2900    0.7500    0.0000 C   0  0  0  0  0  0  0  0  0  0  0  0
   -1.0100   -1.5000    0.0000 C   0  0  0  0  0  0  0  0  0  0  0  0
   -1.0100    1.5000    0.0000 C   0  0  0  0  0  0  0  0  0  0  0  0
   -2.3100   -0.7500    0.0000 C   0  0  0  0  0  0  0  0  0  0  0  0
   -2.3100    0.7500    0.0000 C   0  0  0  0  0  0  0  0  0  0  0  0
    1.7200   -1.2100    0.0000 C   0  0  0  0  0  0  0  0  0  0  0  0
    1.7200    1.2100    0.0000 C   0  0  0  0  0  0  0  0  0  0  0  0
   -1.0100   -3.0000    0.0000 Cl  0  0  0  0  0  0  0  0  0  0  0  0
   -1.0100    3.0000    0.0000 Cl  0  0  0  0  0  0  0  0  0  0  0  0
   -3.6089   -1.5002    0.0000 Cl  0  0  0  0  0  0  0  0  0  0  0  0
   -3.6089    1.5002    0.0000 Cl  0  0  0  0  0  0  0  0  0  0  0  0
    2.1853   -2.6360    0.0000 O   0  0  0  0  0  0  0  0  0  0  0  0
    2.1853    2.6360    0.0000 O   0  0  0  0  0  0  0  0  0  0  0  0
    2.6000    0.0000    0.0000 O   0  0  0  0  0  0  0  0  0  0  0  0
  2  1  1  0
  3  1  2  0
  4  2  2  0
  5  3  1  0
  6  4  1  0
  6  5  2  0
  7  1  1  0
  8  2  1  0
  9  3  1  0
 10  4  1  0
 11  5  1  0
 12  6  1  0
 13  7  2  0
 14  8  2  0
 15  7  1  0
 15  8  1  0
M  END
>  <NAME>  (2612) 
TETRACHLOROPHTHALIC ANHYDRIDE

>  <SYNONYMS>  (2612) 


>  <SPECTRUM TYPE>  (2612) 
MS1

>  <INSTRUMENT TYPE>  (2612) 
EI-B

>  <INSTRUMENT>  (2612) 
HITACHI M-60

>  <ION MODE>  (2612) 
P

>  <INCHIKEY>  (2612) 
AUHHYELHRWCWEZ-UHFFFAOYSA-N

>  <FORMULA>  (2612) 
C8Cl4O3

>  <EXACT MASS>  (2612) 
283.86015457999997

>  <MW>  (2612) 
284

>  <ID>  (2612) 
JP008329

>  <CONTRIBUTOR>  (2612) 
University of Tokyo Team, {Faculty of Engineering, University of Tokyo

>  <COMMENT>  (2612) 
SMILES=O=c(o2)c(c(Cl)1)c(c(=O)2)c(Cl)c(Cl)c(Cl)1
InChI=InChI=1S/C8Cl4O3/c9-3-1-2(8(14)15-7(1)13)4(10)6(12)5(3)11
computed SMILES=O=C1OC(=O)C=2C(Cl)=C(Cl)C(Cl)=C(Cl)C12
accession=JP008329
date=2016.01.19 (Created 2008.10.21, modified 2011.05.06)
author=UBE SCIENTIFIC ANALYSIS LABORATORY
license=CC BY-NC-SA
exact mass=283.86015
ionization energy=70 eV
ion type=[M]+*
computed spectral entropy=3.5452996807237946
computed normalized entropy=0.8344836180194561
SPLASH=splash10-0006-2490000000-9e5606a5dbd2478484c1
submitter=submitter = University of Tokyo Team (Faculty of Engineering, University of Tokyo)
MoNA Rating=3.75

>  <NUM PEAKS>  (2612) 
70

>  <MASS SPECTRAL PEAKS>  (2612) 
35 1.73
36 17.19
44 1.38
47 9.66
48 1.56
49 1.66
53 4.46
60 8.18
68 7.46
69 1.91
71 40.77
72 23.1
73 7.48
83 3.8
85 3.73
86 0.71
87 2.1
89 14.58
90 13.1
91 4.57
95 7.28
97 2
103 1.31
104 1.87
106 27.63
107 74.47
108 21.02
109 14.53
118 10.48
120 13.31
121 9.01
122 4.74
130 2.23
132 1.08
135 4.05
137 0.52
142 49.56
143 4.4
144 30.47
145 2.03
146 5.06
177 23.1
178 1.21
179 22.81
180 1.11
181 7.32
205 2.55
207 2.45
212 58.62
213 3.64
214 75.09
215 5.19
216 37.93
217 2.52
218 8.14
240 79.86
241 6.23
242 99.99
243 7.61
244 47.91
245 3.67
246 11.04
247 0.39
284 48.45
285 4.09
286 61.37
287 5.64
288 30.85
289 2.57
290 6.26

>  <PREDICTED SPECTRUM>  (2612) 
29 153
33 95
34 49
35 280
36 323
37 219
38 200
39 73
40 158
41 49
42 139
43 251
44 262
45 126
47 302
48 175
49 315
50 193
51 147
52 191
53 256
54 206
55 161
56 109
57 49
58 12
60 194
61 278
62 171
63 267
64 267
65 107
67 121
68 122
69 173
70 139
71 358
72 370
73 232
75 32
76 19
77 32
79 342
80 50
81 70
82 219
83 71
84 33
85 147
86 76
87 126
88 139
89 116
90 54
91 251
92 106
93 10
95 102
96 108
97 88
98 58
99 169
100 104
104 13
105 9
106 320
107 372
108 217
109 307
110 249
111 188
115 0
116 20
117 34
118 428
119 150
120 277
122 207
125 63
126 55
127 164
128 29
129 91
132 77
133 168
134 343
135 253
136 119
139 26
142 437
143 189
144 230
145 0
149 55
150 355
151 281
152 212
153 295
160 55
161 22
162 208
163 73
164 170
165 119
166 183
167 220
168 346
169 182
170 192
171 115
172 93
174 98
176 118
177 335
178 417
179 905
180 492
181 380
183 17
185 139
186 103
193 3
195 35
196 74
197 38
205 165
206 153
207 373
208 336
209 253
210 61
212 266
214 542
215 269
216 572
217 312
218 247
219 28
221 97
223 274
225 121
228 125
230 127
240 831
241 342
242 964
243 371
244 654
245 86
246 290
249 204
250 92
251 192
253 139
256 153
258 210
260 219
284 858
285 200
286 999
287 288
288 666
289 157

$$$$

     RDKit          2D

 11 10  0  0  0  0  0  0  0  0999 V2000
    2.5981    4.5000    0.0000 C   0  0  0  0  0  0  0  0  0  0  0  0
   -7.7942    4.5000    0.0000 C   0  0  0  0  0  0  0  0  0  0  0  0
    1.2990    5.2500    0.0000 C   0  0  0  0  0  0  0  0  0  0  0  0
   -3.8971    5.2500    0.0000 C   0  0  0  0  0  0  0  0  0  0  0  0
   -2.5981    4.5000    0.0000 C   0  0  0  0  0  0  0  0  0  0  0  0
   -5.1962    4.5000    0.0000 C   0  0  0  0  0  0  0  0  0  0  0  0
   -1.2990    5.2500    0.0000 C   0  0  0  0  0  0  0  0  0  0  0  0
   -5.1962    3.0000    0.0000 O   0  0  0  0  0  0  0  0  0  0  0  0
   -1.2990    6.7500    0.0000 O   0  0  0  0  0  0  0  0  0  0  0  0
   -6.4952    5.2500    0.0000 O   0  0  0  0  0  0  0  0  0  0  0  0
    0.0000    4.5000    0.0000 O   0  0  0  0  0  0  0  0  0  0  0  0
  3  1  1  0
  5  4  1  0
  6  4  1  0
  7  5  1  0
  8  6  2  0
  9  7  2  0
 10  2  1  0
 10  6  1  0
 11  3  1  0
 11  7  1  0
M  END
>  <NAME>  (2613) 
METHYL ETHYL SUCCINATE

>  <SYNONYMS>  (2613) 


>  <SPECTRUM TYPE>  (2613) 
MS1

>  <INSTRUMENT TYPE>  (2613) 
EI-B

>  <INSTRUMENT>  (2613) 
HITACHI M-60

>  <ION MODE>  (2613) 
P

>  <INCHIKEY>  (2613) 
HXXRQBBSGZDQNP-UHFFFAOYSA-N

>  <FORMULA>  (2613) 
C7H12O4

>  <EXACT MASS>  (2613) 
160.073558864

>  <MW>  (2613) 
160

>  <ID>  (2613) 
JP008325

>  <CONTRIBUTOR>  (2613) 
University of Tokyo Team, {Faculty of Engineering, University of Tokyo

>  <COMMENT>  (2613) 
SMILES=CCOC(=O)CCC(=O)OC
InChI=InChI=1S/C7H12O4/c1-3-11-7(9)5-4-6(8)10-2/h3-5H2,1-2H3
computed SMILES=O=C(OC)CCC(=O)OCC
accession=JP008325
date=2016.01.19 (Created 2008.10.21, modified 2011.05.06)
author=UBE SCIENTIFIC ANALYSIS LABORATORY
license=CC BY-NC-SA
exact mass=160.07356
ionization energy=70 eV
ion type=[M]+*
computed spectral entropy=2.883209891689128
computed normalized entropy=0.7296967985372098
SPLASH=splash10-0690-9700000000-4bd9a24c302157ef73bd
submitter=submitter = University of Tokyo Team (Faculty of Engineering, University of Tokyo)
MoNA Rating=3.75

>  <NUM PEAKS>  (2613) 
52

>  <MASS SPECTRAL PEAKS>  (2613) 
14 0.73
15 18.76
26 2.47
27 15.08
28 13.26
29 33.79
30 1.44
31 2.71
33 0.32
39 0.28
41 2.01
42 2.94
43 4.4
44 0.47
45 8.45
53 0.21
54 0.21
55 41.36
56 9.01
57 10.33
58 0.97
59 19.55
60 1.49
61 0.2
71 0.19
72 0.45
73 7.31
74 0.94
83 1.16
84 0.58
85 0.46
86 0.72
87 10.92
88 10.83
89 0.91
99 0.58
100 2.68
101 38.35
102 1.76
103 0.23
114 7.73
115 99.99
116 5.28
117 0.81
128 9.73
129 14.02
130 1.14
131 0.28
132 0.32
133 3.37
134 0.18
160 0.62

>  <PREDICTED SPECTRUM>  (2613) 
14 15
15 100
26 106
27 308
28 189
29 471
30 42
31 228
32 38
33 38
37 8
38 22
39 86
40 46
41 241
42 236
43 292
44 118
45 307
46 22
51 85
52 7
54 47
55 495
56 314
57 142
58 111
59 360
60 105
61 130
68 4
69 224
70 73
71 103
72 7
73 259
74 253
75 7
82 16
83 172
84 84
85 160
86 64
87 266
88 183
98 54
99 121
100 290
101 999
102 235
114 255
115 554
116 172
117 24
128 306
129 994
130 155
131 44
133 75
160 31

$$$$

     RDKit          2D

 20 20  0  0  0  0  0  0  0  0999 V2000
   -2.2251    7.7569    0.0000 C   0  0  0  0  0  0  0  0  0  0  0  0
   -8.6802   -1.1526    0.0000 C   0  0  0  0  0  0  0  0  0  0  0  0
   -2.9725    6.4564    0.0000 C   0  0  0  0  0  0  0  0  0  0  0  0
   -7.6766   -0.0379    0.0000 C   0  0  0  0  0  0  0  0  0  0  0  0
  -10.4600    6.3600    0.0000 C   0  0  0  0  0  0  0  0  0  0  0  0
  -11.3400    5.1500    0.0000 C   0  0  0  0  0  0  0  0  0  0  0  0
   -9.0300    5.9000    0.0000 C   0  0  0  0  0  0  0  0  0  0  0  0
  -10.4600    3.9300    0.0000 C   0  0  0  0  0  0  0  0  0  0  0  0
   -6.7200    5.1500    0.0000 C   0  0  0  0  0  0  0  0  0  0  0  0
   -7.6000    3.9300    0.0000 C   0  0  0  0  0  0  0  0  0  0  0  0
   -5.2200    5.1529    0.0000 C   0  0  0  0  0  0  0  0  0  0  0  0
   -7.1364    2.5034    0.0000 C   0  0  0  0  0  0  0  0  0  0  0  0
   -9.0300    7.4000    0.0000 O   0  0  0  0  0  0  0  0  0  0  0  0
  -10.9236    2.5034    0.0000 O   0  0  0  0  0  0  0  0  0  0  0  0
   -4.4675    3.8554    0.0000 O   0  0  0  0  0  0  0  0  0  0  0  0
   -5.6692    2.1916    0.0000 O   0  0  0  0  0  0  0  0  0  0  0  0
   -4.4725    6.4534    0.0000 O   0  0  0  0  0  0  0  0  0  0  0  0
   -8.1401    1.3887    0.0000 O   0  0  0  0  0  0  0  0  0  0  0  0
   -7.6000    6.3600    0.0000 O   0  0  0  0  0  0  0  0  0  0  0  0
   -9.0300    4.4000    0.0000 O   0  0  0  0  0  0  0  0  0  0  0  0
  3  1  1  0
  4  2  1  0
  6  5  1  0
  7  5  1  0
  8  6  1  0
 10  9  1  0
 11  9  1  0
 12 10  1  0
 13  7  2  0
 14  8  2  0
 15 11  2  0
 16 12  2  0
 17  3  1  0
 17 11  1  0
 18  4  1  0
 18 12  1  0
 19  7  1  0
 19  9  1  0
 20  8  1  0
 20 10  1  0
M  END
>  <NAME>  (2614) 
DIETHYL SUCCINYLSUCCINATE

>  <SYNONYMS>  (2614) 
DIETHYL 3,8-DIOXA-4,7-DIOXOCYCLOOCTANE-1,2-DICARBOXYLATE

>  <SPECTRUM TYPE>  (2614) 
MS1

>  <INSTRUMENT TYPE>  (2614) 
EI-B

>  <INSTRUMENT>  (2614) 
HITACHI M-60

>  <ION MODE>  (2614) 
P

>  <INCHIKEY>  (2614) 
PIHBRGVADPXIIF-UHFFFAOYSA-N

>  <FORMULA>  (2614) 
C12H16O8

>  <EXACT MASS>  (2614) 
288.084517472

>  <MW>  (2614) 
288

>  <ID>  (2614) 
JP008324

>  <CONTRIBUTOR>  (2614) 
University of Tokyo Team, {Faculty of Engineering, University of Tokyo

>  <COMMENT>  (2614) 
SMILES=CCOC(=O)C(O1)C(OC(=O)CCC(=O)1)C(=O)OCC
InChI=InChI=1S/C12H16O8/c1-3-17-11(15)9-10(12(16)18-4-2)20-8(14)6-5-7(13)19-9/h9-10H,3-6H2,1-2H3
computed SMILES=O=C1OC(C(=O)OCC)C(OC(=O)CC1)C(=O)OCC
accession=JP008324
date=2016.01.19 (Created 2008.10.21, modified 2011.05.06)
author=UBE SCIENTIFIC ANALYSIS LABORATORY
license=CC BY-NC-SA
exact mass=288.08452
ionization energy=70 eV
ion type=[M]+*
computed spectral entropy=3.7727481895036634
computed normalized entropy=0.8821703833105564
SPLASH=splash10-06vu-6930000000-fc77550128c304271138
submitter=submitter = University of Tokyo Team (Faculty of Engineering, University of Tokyo)
MoNA Rating=3.75

>  <NUM PEAKS>  (2614) 
72

>  <MASS SPECTRAL PEAKS>  (2614) 
27 61.54
29 96.21
31 18.3
39 7.74
40 0.48
41 13.25
43 8.89
45 20.32
52 7.04
53 22.39
54 13.56
55 60.01
56 3.11
68 5.61
69 14.98
71 5.87
72 6.89
73 28.88
80 7.27
81 18.83
82 7.79
83 10.6
87 2.92
96 34.89
97 5.79
98 6.73
99 24.65
100 6.76
101 25.5
107 3.45
108 16.77
109 22.97
110 10.23
111 15.9
114 48.55
115 4.68
125 2.2
126 9.86
127 13.31
128 1.23
129 4.22
135 9.75
136 64.3
137 93.19
138 11.74
139 1.8
142 99.99
143 7.83
153 10.76
154 12.22
155 19.29
163 6.55
164 32.94
165 38.15
166 3.91
181 36.05
182 27.32
183 20.46
184 0.86
192 26.9
193 3.82
199 9.56
209 8.8
210 90.76
211 36.8
212 3.69
227 35.62
228 4.76
238 10.69
255 0.93
256 76.21
257 9.74

>  <PREDICTED SPECTRUM>  (2614) 
18 21
25 25
26 153
27 392
28 215
29 647
30 119
31 175
38 60
39 281
40 144
41 280
42 260
43 232
44 180
45 173
46 15
51 27
53 138
54 129
55 512
56 415
57 312
58 97
59 50
60 13
61 43
63 38
67 148
68 79
69 240
70 111
71 195
72 26
73 119
74 7
75 120
76 51
77 69
79 55
82 83
83 125
84 92
85 331
86 218
87 237
88 84
89 119
90 8
91 69
96 10
97 203
98 79
99 167
100 316
101 373
102 130
103 260
104 106
105 74
112 21
113 365
114 250
115 352
116 205
117 69
121 68
123 1
127 156
129 329
130 213
131 250
132 77
141 446
142 294
143 427
144 105
145 48
146 7
155 19
157 205
158 186
159 617
160 392
161 104
162 31
169 250
170 54
171 165
173 442
174 91
184 21
185 69
186 67
187 765
188 429
189 136
197 231
201 57
202 45
203 51
204 66
205 27
215 999
216 448
217 4
230 87
231 211
232 68
233 24
243 214
244 174
245 52
259 10
288 124
289 40

$$$$

     RDKit          2D

 18 18  0  0  0  0  0  0  0  0999 V2000
   -2.9725    6.4564    0.0000 C   0  0  0  0  0  0  0  0  0  0  0  0
   -7.6766   -0.0379    0.0000 C   0  0  0  0  0  0  0  0  0  0  0  0
  -10.4600    6.3600    0.0000 C   0  0  0  0  0  0  0  0  0  0  0  0
  -11.3400    5.1500    0.0000 C   0  0  0  0  0  0  0  0  0  0  0  0
   -9.0300    5.9000    0.0000 C   0  0  0  0  0  0  0  0  0  0  0  0
  -10.4600    3.9300    0.0000 C   0  0  0  0  0  0  0  0  0  0  0  0
   -6.7200    5.1500    0.0000 C   0  0  0  0  0  0  0  0  0  0  0  0
   -7.6000    3.9300    0.0000 C   0  0  0  0  0  0  0  0  0  0  0  0
   -5.2200    5.1529    0.0000 C   0  0  0  0  0  0  0  0  0  0  0  0
   -7.1364    2.5034    0.0000 C   0  0  0  0  0  0  0  0  0  0  0  0
   -9.0300    7.4000    0.0000 O   0  0  0  0  0  0  0  0  0  0  0  0
  -10.9236    2.5034    0.0000 O   0  0  0  0  0  0  0  0  0  0  0  0
   -4.4675    3.8554    0.0000 O   0  0  0  0  0  0  0  0  0  0  0  0
   -5.6692    2.1916    0.0000 O   0  0  0  0  0  0  0  0  0  0  0  0
   -4.4725    6.4534    0.0000 O   0  0  0  0  0  0  0  0  0  0  0  0
   -8.1401    1.3887    0.0000 O   0  0  0  0  0  0  0  0  0  0  0  0
   -7.6000    6.3600    0.0000 O   0  0  0  0  0  0  0  0  0  0  0  0
   -9.0300    4.4000    0.0000 O   0  0  0  0  0  0  0  0  0  0  0  0
  4  3  1  0
  5  3  1  0
  6  4  1  0
  8  7  1  0
  9  7  1  0
 10  8  1  0
 11  5  2  0
 12  6  2  0
 13  9  2  0
 14 10  2  0
 15  1  1  0
 15  9  1  0
 16  2  1  0
 16 10  1  0
 17  5  1  0
 17  7  1  0
 18  6  1  0
 18  8  1  0
M  END
>  <NAME>  (2615) 
DIMETHYL SUCCINYLSUCCINATE

>  <SYNONYMS>  (2615) 
DIMETHYL 3,8-DIOXA-4,7-DIOXOCYCLOOCTANE-1,2-DICARBOXYLATE

>  <SPECTRUM TYPE>  (2615) 
MS1

>  <INSTRUMENT TYPE>  (2615) 
EI-B

>  <INSTRUMENT>  (2615) 
HITACHI M-60

>  <ION MODE>  (2615) 
P

>  <INCHIKEY>  (2615) 
QAMRXMRHRZVZGF-UHFFFAOYSA-N

>  <FORMULA>  (2615) 
C10H12O8

>  <EXACT MASS>  (2615) 
260.053217344

>  <MW>  (2615) 
260

>  <ID>  (2615) 
JP008323

>  <CONTRIBUTOR>  (2615) 
University of Tokyo Team, {Faculty of Engineering, University of Tokyo

>  <COMMENT>  (2615) 
SMILES=COC(=O)C(O1)C(OC(=O)CCC(=O)1)C(=O)OC
InChI=InChI=1S/C10H12O8/c1-15-9(13)7-8(10(14)16-2)18-6(12)4-3-5(11)17-7/h7-8H,3-4H2,1-2H3
computed SMILES=O=C1OC(C(=O)OC)C(OC(=O)CC1)C(=O)OC
accession=JP008323
date=2016.01.19 (Created 2008.10.21, modified 2011.05.06)
author=UBE SCIENTIFIC ANALYSIS LABORATORY
license=CC BY-NC-SA
exact mass=260.05322
ionization energy=70 eV
ion type=[M]+*
computed spectral entropy=3.8762450859770907
computed normalized entropy=0.8679634652100418
SPLASH=splash10-004r-6910000000-90bee0d5fdef1a122026
submitter=submitter = University of Tokyo Team (Faculty of Engineering, University of Tokyo)
MoNA Rating=3.75

>  <NUM PEAKS>  (2615) 
87

>  <MASS SPECTRAL PEAKS>  (2615) 
15 36.09
26 2.79
27 22.49
29 8.87
31 10.24
39 9.31
40 6.67
41 12.73
42 5.37
43 7.45
45 6.35
51 4.34
52 8.64
53 23.33
54 12.79
55 53.51
56 3.93
57 3.23
59 21.96
63 1.08
68 9.86
69 16.77
70 2.17
71 1.91
79 3
80 7.2
81 12.6
82 7.92
83 9.99
85 5.72
86 5.16
87 20.97
95 0.86
96 38.03
97 5.17
98 4.67
99 3.94
101 3.15
107 4.99
108 15.25
109 15.61
110 7.16
111 1.24
112 3.62
113 22.6
114 5.07
115 7.16
119 2.2
125 3.16
128 99.99
129 6.56
135 6.37
136 42.74
137 54.97
138 4.95
139 1.42
140 7.26
141 5.59
142 0.36
151 2.23
155 0.55
162 1.96
163 3.7
164 14.61
165 25.38
166 2.41
167 12.4
168 14.14
169 12.89
170 0.69
178 29.15
179 4.46
181 4.81
194 1.91
195 6.2
196 56.42
197 21.24
198 1.79
199 11.25
200 1.75
210 10.45
211 1.07
213 9
227 2.08
228 62.99
229 6.91
230 0.45

>  <PREDICTED SPECTRUM>  (2615) 
15 146
18 8
25 5
26 71
27 219
28 236
29 226
31 119
32 25
33 71
37 32
38 38
39 278
40 135
41 348
42 296
43 482
44 260
45 197
52 14
53 135
55 723
56 272
57 291
59 788
63 10
65 32
69 138
70 73
71 166
73 310
83 297
84 259
85 624
86 211
87 322
88 161
89 151
91 62
98 156
99 577
100 595
101 826
102 209
103 26
105 2
111 7
113 682
114 341
115 447
116 269
117 390
118 99
125 40
127 227
129 103
130 13
131 451
132 104
133 80
141 383
142 61
145 489
146 27
155 35
157 285
159 216
169 642
170 7
173 606
174 73
183 327
201 999
202 365
216 54
260 66
261 42

$$$$

     RDKit          2D

 12 12  0  0  0  0  0  0  0  0999 V2000
    1.6300   -0.9300    0.0000 C   0  0  0  0  0  0  0  0  0  0  0  0
    0.2600   -1.6900    0.0000 C   0  0  0  0  0  0  0  0  0  0  0  0
    0.2600    1.3500    0.0000 C   0  0  0  0  0  0  0  0  0  0  0  0
    2.9226    1.3511    0.0000 C   0  0  0  0  0  0  0  0  0  0  0  0
    1.6300    0.5900    0.0000 C   0  0  0  0  0  0  0  0  0  0  0  0
   -1.0300    0.5900    0.0000 C   0  0  0  0  0  0  0  0  0  0  0  0
   -1.0300   -0.9300    0.0000 C   0  0  0  0  0  0  0  0  0  0  0  0
    4.2280    0.6122    0.0000 C   0  0  0  0  0  0  0  0  0  0  0  0
   -2.3323    1.3343    0.0000 Cl  0  0  0  0  0  0  0  0  0  0  0  0
   -2.3323   -1.6743    0.0000 O   0  0  0  0  0  0  0  0  0  0  0  0
    4.2408   -0.8877    0.0000 O   0  0  0  0  0  0  0  0  0  0  0  0
    5.5206    1.3733    0.0000 O   0  0  0  0  0  0  0  0  0  0  0  0
  2  1  2  0
  5  1  1  0
  5  3  2  0
  5  4  1  0
  6  3  1  0
  7  2  1  0
  7  6  2  0
  8  4  1  0
  9  6  1  0
 10  7  1  0
 11  8  2  0
 12  8  1  0
M  END
>  <NAME>  (2616) 
3-CHLORO-4-HYDROXYPHENYLACETIC ACID

>  <SYNONYMS>  (2616) 


>  <SPECTRUM TYPE>  (2616) 
MS1

>  <INSTRUMENT TYPE>  (2616) 
EI-B

>  <INSTRUMENT>  (2616) 
HITACHI M-60

>  <ION MODE>  (2616) 
P

>  <INCHIKEY>  (2616) 
IYTUKSIOQKTZEG-UHFFFAOYSA-N

>  <FORMULA>  (2616) 
C8H7ClO3

>  <EXACT MASS>  (2616) 
186.008371764

>  <MW>  (2616) 
186

>  <ID>  (2616) 
JP008322

>  <CONTRIBUTOR>  (2616) 
University of Tokyo Team, {Faculty of Engineering, University of Tokyo

>  <COMMENT>  (2616) 
SMILES=OC(=O)Cc(c1)cc(Cl)c(O)c1
InChI=InChI=1S/C8H7ClO3/c9-6-3-5(4-8(11)12)1-2-7(6)10/h1-3,10H,4H2,(H,11,12)
computed SMILES=O=C(O)CC1=CC=C(O)C(Cl)=C1
accession=JP008322
date=2016.01.19 (Created 2008.10.21, modified 2011.05.06)
author=UBE SCIENTIFIC ANALYSIS LABORATORY
license=CC BY-NC-SA
exact mass=186.00837
ionization energy=70 eV
ion type=[M]+*
computed spectral entropy=3.177581503699457
computed normalized entropy=0.6696790212667497
SPLASH=splash10-0006-6900000000-b5948335ed82c09c23ea
submitter=submitter = University of Tokyo Team (Faculty of Engineering, University of Tokyo)
MoNA Rating=3.75

>  <NUM PEAKS>  (2616) 
115

>  <MASS SPECTRAL PEAKS>  (2616) 
15 0.19
16 0.24
17 0.66
18 1.56
26 1.13
27 3.05
28 10.33
29 1.11
31 0.18
32 0.42
36 0.49
37 1.87
38 5.04
39 3.72
40 0.4
41 0.64
42 0.51
43 1.31
44 6.29
45 3.05
47 0.27
49 1.17
50 6.86
51 22.13
52 5.64
53 4.79
54 0.37
55 1.9
56 2.1
57 0.91
60 0.63
61 1.37
62 2.1
63 2.52
64 0.46
65 1.17
66 0.59
67 0.52
68 0.12
69 0.32
70 0.39
71 2.58
72 1.11
73 2.19
74 2.02
75 3.32
76 1.43
77 32.52
78 5.57
79 1.38
80 0.16
81 0.35
82 0.13
83 0.14
84 0.47
85 0.87
86 0.69
87 0.81
88 0.24
89 0.64
91 0.34
93 0.62
94 0.43
95 0.39
96 0.1
97 0.29
98 0.14
99 0.31
101 0.16
103 0.12
104 0.25
105 7.47
106 1.42
107 6.22
108 0.55
109 0.33
111 0.5
112 2.58
113 0.91
114 0.93
115 0.53
117 0.12
121 0.21
123 0.33
125 0.1
127 0.27
128 0.11
129 0.34
130 0.13
133 0.16
135 0.19
139 0.38
140 4.38
141 99.99
142 10.02
143 37.4
144 3.19
145 0.49
150 0.15
151 0.2
152 0.49
155 0.34
156 0.25
157 0.33
168 0.23
170 0.12
185 0.19
186 34.23
187 2.9
188 10.77
189 0.85
190 0.1
197 0.13
243 0.21
269 0.12

>  <PREDICTED SPECTRUM>  (2616) 
14 23
15 3
16 11
17 38
18 62
26 40
27 77
28 50
29 52
35 26
36 92
37 81
38 148
39 230
40 91
41 217
42 136
43 149
44 219
45 339
46 16
47 35
48 5
49 137
50 245
51 398
52 278
53 268
54 118
55 124
56 45
57 85
59 41
60 100
61 146
62 178
63 224
64 110
65 97
66 55
67 72
68 30
69 156
70 36
71 63
72 28
73 49
74 123
75 210
76 121
77 438
78 273
79 218
80 125
81 48
83 53
84 72
85 147
86 141
87 132
88 1
89 163
90 21
95 45
96 58
97 84
98 17
99 101
101 20
103 94
104 52
105 254
106 146
107 215
108 69
109 38
111 62
112 84
113 172
114 39
115 23
124 69
139 75
141 999
142 238
143 491
144 119
151 45
186 520
187 150
188 294
189 76

$$$$

     RDKit          2D

 18 20  0  0  0  0  0  0  0  0999 V2000
    5.1971   -5.2500    0.0000 C   0  0  0  0  0  0  0  0  0  0  0  0
    3.8976   -6.0008    0.0000 C   0  0  0  0  0  0  0  0  0  0  0  0
    5.1976   -3.7492    0.0000 C   0  0  0  0  0  0  0  0  0  0  0  0
    2.5986   -5.2508    0.0000 C   0  0  0  0  0  0  0  0  0  0  0  0
    3.8986   -2.9992    0.0000 C   0  0  0  0  0  0  0  0  0  0  0  0
   -2.6000   -0.7500    0.0000 C   0  0  0  0  0  0  0  0  0  0  0  0
   -1.3000   -1.5000    0.0000 C   0  0  0  0  0  0  0  0  0  0  0  0
   -1.3000    1.5000    0.0000 C   0  0  0  0  0  0  0  0  0  0  0  0
    2.6000    0.7500    0.0000 C   0  0  0  0  0  0  0  0  0  0  0  0
   -2.6000    0.7500    0.0000 C   0  0  0  0  0  0  0  0  0  0  0  0
    2.5990   -3.7500    0.0000 C   0  0  0  0  0  0  0  0  0  0  0  0
    0.0000   -0.7500    0.0000 C   0  0  0  0  0  0  0  0  0  0  0  0
    0.0000    0.7500    0.0000 C   0  0  0  0  0  0  0  0  0  0  0  0
    1.3000   -1.5000    0.0000 C   0  0  0  0  0  0  0  0  0  0  0  0
   -3.8989    1.5002    0.0000 Cl  0  0  0  0  0  0  0  0  0  0  0  0
    1.3000    1.5000    0.0000 N   0  0  0  0  0  0  0  0  0  0  0  0
    2.6000   -0.7500    0.0000 N   0  0  0  0  0  0  0  0  0  0  0  0
    1.3000   -3.0000    0.0000 N   0  0  0  0  0  0  0  0  0  0  0  0
  2  1  2  0
  3  1  1  0
  4  2  1  0
  5  3  2  0
  7  6  2  0
 10  6  1  0
 10  8  2  0
 11  4  2  0
 11  5  1  0
 12  7  1  0
 13  8  1  0
 13 12  2  0
 14 12  1  0
 15 10  1  0
 16  9  2  0
 16 13  1  0
 17  9  1  0
 17 14  2  0
 18 11  1  0
 18 14  1  0
M  END
>  <NAME>  (2617) 
4-ANILINO-7-CHLORO QUINAZOLINE

>  <SYNONYMS>  (2617) 


>  <SPECTRUM TYPE>  (2617) 
MS1

>  <INSTRUMENT TYPE>  (2617) 
EI-B

>  <INSTRUMENT>  (2617) 
HITACHI M-60

>  <ION MODE>  (2617) 
P

>  <INCHIKEY>  (2617) 
GZLRRAAMOVHEKU-UHFFFAOYSA-N

>  <FORMULA>  (2617) 
C14H10ClN3

>  <EXACT MASS>  (2617) 
255.056325

>  <MW>  (2617) 
255

>  <ID>  (2617) 
JP008321

>  <CONTRIBUTOR>  (2617) 
University of Tokyo Team, {Faculty of Engineering, University of Tokyo

>  <COMMENT>  (2617) 
SMILES=Clc(c3)cc(n2)c(c3)c(nc2)Nc(c1)cccc1
InChI=InChI=1S/C14H10ClN3/c15-10-6-7-12-13(8-10)16-9-17-14(12)18-11-4-2-1-3-5-11/h1-9H,(H,16,17,18)
computed SMILES=ClC=1C=CC=2C(=NC=NC2NC=3C=CC=CC3)C1
accession=JP008321
date=2016.01.19 (Created 2008.10.21, modified 2011.05.06)
author=UBE SCIENTIFIC ANALYSIS LABORATORY
license=CC BY-NC-SA
exact mass=255.05633
ionization energy=70 eV
ion type=[M]+*
computed spectral entropy=2.9170849308079383
computed normalized entropy=0.7215057978649682
SPLASH=splash10-0zfr-3290000000-9d936bd8386a11d803ae
submitter=submitter = University of Tokyo Team (Faculty of Engineering, University of Tokyo)
MoNA Rating=3.75

>  <NUM PEAKS>  (2617) 
57

>  <MASS SPECTRAL PEAKS>  (2617) 
39 4.75
50 2.75
51 9.13
52 1.38
63 2.59
64 1.59
65 7.56
66 2.5
74 1.66
75 3.38
76 1.21
77 14.38
78 1.24
83 1.81
88 0.47
90 1.15
91 0.81
92 10.92
93 4.77
96 3.83
97 4.2
100 8.38
101 1.37
102 0.7
109 1.38
110 1.34
113 1.68
114 5.25
115 1.8
127 6.6
128 2.47
136 6.57
137 1.07
138 2.16
139 0.69
141 0.1
142 0.21
152 0.62
163 2.87
164 0.38
165 1.41
166 0.33
191 0.9
192 1.96
193 0.54
202 1.38
218 1.1
219 5.13
220 1.16
237 1.98
239 0.33
253 6.15
254 99.99
255 38
256 35.26
257 11.59
258 1.56

>  <PREDICTED SPECTRUM>  (2617) 
33 10
36 21
37 25
38 60
39 163
40 57
41 86
42 44
43 60
44 48
49 35
50 169
51 331
52 144
53 61
55 50
57 64
61 47
62 110
63 191
64 148
65 132
66 47
67 21
68 33
69 43
70 40
71 43
72 2
73 52
74 112
75 204
76 96
77 459
78 120
79 21
80 4
81 48
82 22
83 81
84 42
85 37
86 49
87 52
88 53
89 117
90 99
91 56
92 55
93 77
94 2
95 24
96 52
97 91
98 59
99 107
100 91
101 101
102 144
103 88
104 32
105 5
106 4
108 23
109 37
110 15
111 52
113 58
114 91
115 89
116 63
117 88
118 83
119 51
122 3
123 39
124 61
125 75
126 56
127 44
128 27
136 41
137 65
138 84
139 70
140 14
141 1
142 31
143 12
144 27
149 6
150 18
151 79
152 111
153 38
154 7
162 1
163 139
164 102
165 117
166 28
167 14
173 23
176 10
177 52
178 63
179 45
180 34
190 14
191 77
192 123
193 88
194 23
198 1
199 21
200 35
201 5
202 4
213 36
218 89
219 120
220 94
226 30
227 70
228 52
229 41
238 27
239 26
252 59
253 61
254 999
255 648
256 478
257 312
258 119

$$$$

     RDKit          2D

  5  4  0  0  0  0  0  0  0  0999 V2000
   -1.2990    3.7500    0.0000 C   0  0  0  0  0  0  0  0  0  0  0  0
    0.0000    3.0000    0.0000 C   0  0  0  0  0  0  0  0  0  0  0  0
   -2.5981    3.0000    0.0000 C   0  0  0  0  0  0  0  0  0  0  0  0
    1.2990    2.2500    0.0000 N   0  0  0  0  0  0  0  0  0  0  0  0
   -3.8971    2.2500    0.0000 N   0  0  0  0  0  0  0  0  0  0  0  0
  2  1  1  0
  3  1  1  0
  4  2  3  0
  5  3  3  0
M  END
>  <NAME>  (2618) 
MALONONITRILE

>  <SYNONYMS>  (2618) 


>  <SPECTRUM TYPE>  (2618) 
MS1

>  <INSTRUMENT TYPE>  (2618) 
EI-B

>  <INSTRUMENT>  (2618) 
HITACHI M-60

>  <ION MODE>  (2618) 
P

>  <INCHIKEY>  (2618) 
CUONGYYJJVDODC-UHFFFAOYSA-N

>  <FORMULA>  (2618) 
C3H2N2

>  <EXACT MASS>  (2618) 
66.021798064

>  <MW>  (2618) 
66

>  <ID>  (2618) 
JP008320

>  <CONTRIBUTOR>  (2618) 
University of Tokyo Team, {Faculty of Engineering, University of Tokyo

>  <COMMENT>  (2618) 
SMILES=N#CCC#N
InChI=InChI=1S/C3H2N2/c4-2-1-3-5/h1H2
computed SMILES=N#CCC#N
accession=JP008320
date=2016.01.19 (Created 2008.10.21, modified 2011.05.06)
author=UBE SCIENTIFIC ANALYSIS LABORATORY
license=CC BY-NC-SA
exact mass=66.0218
ionization energy=70 eV
ion type=[M]+*
computed spectral entropy=1.8164603854701238
computed normalized entropy=0.5643151473681033
SPLASH=splash10-014i-9000000000-149c443e0938100437ce
submitter=submitter = University of Tokyo Team (Faculty of Engineering, University of Tokyo)
MoNA Rating=3.75

>  <NUM PEAKS>  (2618) 
25

>  <MASS SPECTRAL PEAKS>  (2618) 
12 1.5
13 0.77
14 1.34
18 0.32
24 0.95
25 1.2
26 3.34
27 1.56
28 11.39
29 0.28
32 0.21
36 0.33
37 0.46
38 25.79
39 22.14
40 4.76
50 1.49
51 1.05
52 0.25
53 0.23
64 5.24
65 8.43
66 99.99
67 4.17
69 0.1

>  <PREDICTED SPECTRUM>  (2618) 
14 124
15 164
16 1
18 1
25 160
26 506
27 690
28 730
36 152
37 233
38 559
39 999
40 748
41 815
42 239
49 107
50 206
51 532
52 681
62 88
63 189
64 77
65 299
66 655
67 117

$$$$

     RDKit          2D

 10  9  0  0  0  0  0  0  0  0999 V2000
    1.3260   -0.6495    0.0000 C   0  0  0  0  0  0  0  0  0  0  0  0
   -0.1740    1.9486    0.0000 C   0  0  0  0  0  0  0  0  0  0  0  0
   -0.7231   -0.1005    0.0000 C   0  0  0  0  0  0  0  0  0  0  0  0
    3.9240    2.3505    0.0000 C   0  0  0  0  0  0  0  0  0  0  0  0
    4.4731    4.3995    0.0000 C   0  0  0  0  0  0  0  0  0  0  0  0
    2.4240    4.9486    0.0000 C   0  0  0  0  0  0  0  0  0  0  0  0
    0.5760    0.6495    0.0000 C   0  0  0  0  0  0  0  0  0  0  0  0
    3.1740    3.6495    0.0000 C   0  0  0  0  0  0  0  0  0  0  0  0
    1.8750    1.3995    0.0000 O   0  0  0  0  0  0  0  0  0  0  0  0
    1.8750    2.8995    0.0000 O   0  0  0  0  0  0  0  0  0  0  0  0
  7  1  1  0
  7  2  1  0
  7  3  1  0
  8  4  1  0
  8  5  1  0
  8  6  1  0
  9  7  1  0
 10  8  1  0
 10  9  1  0
M  END
>  <NAME>  (2619) 
DI-TERT-BUTYL PEROXIDE

>  <SYNONYMS>  (2619) 


>  <SPECTRUM TYPE>  (2619) 
MS1

>  <INSTRUMENT TYPE>  (2619) 
EI-B

>  <INSTRUMENT>  (2619) 
HITACHI M-60

>  <ION MODE>  (2619) 
P

>  <INCHIKEY>  (2619) 
LSXWFXONGKSEMY-UHFFFAOYSA-N

>  <FORMULA>  (2619) 
C8H18O2

>  <EXACT MASS>  (2619) 
146.130679816

>  <MW>  (2619) 
146

>  <ID>  (2619) 
JP008319

>  <CONTRIBUTOR>  (2619) 
University of Tokyo Team, {Faculty of Engineering, University of Tokyo

>  <COMMENT>  (2619) 
SMILES=CC(C)(C)OOC(C)(C)C
InChI=InChI=1S/C8H18O2/c1-7(2,3)9-10-8(4,5)6/h1-6H3
computed SMILES=O(OC(C)(C)C)C(C)(C)C
accession=JP008319
date=2016.01.19 (Created 2008.10.21, modified 2011.05.06)
author=UBE SCIENTIFIC ANALYSIS LABORATORY
license=CC BY-NC-SA
exact mass=146.13068
ionization energy=70 eV
ion type=[M]+*
computed spectral entropy=2.216993427047152
computed normalized entropy=0.6975946744125561
SPLASH=splash10-0a4l-9000000000-6e5db1e17bcdf366f700
submitter=submitter = University of Tokyo Team (Faculty of Engineering, University of Tokyo)
MoNA Rating=3.75

>  <NUM PEAKS>  (2619) 
24

>  <MASS SPECTRAL PEAKS>  (2619) 
14 5.13
15 36.89
16 1.44
26 2.48
27 7.59
29 15.15
31 2.98
37 0.55
38 1.04
39 4.59
40 0.51
41 22.64
42 6.11
43 82.33
44 1.92
45 2.9
55 2.02
56 3.41
57 99.99
58 22.55
59 5.06
73 7.57
146 4.34
147 0.25

>  <PREDICTED SPECTRUM>  (2619) 
14 43
15 157
26 37
27 203
28 138
29 327
30 106
31 133
38 26
39 286
40 154
41 718
42 303
43 435
44 220
45 196
53 67
55 90
56 258
57 999
58 226
59 544
72 1
73 343
74 15
75 430
76 49
131 185
132 32
146 26

$$$$

     RDKit          2D

 13 12  0  0  0  0  0  0  0  0999 V2000
    4.5466    6.3750    0.0000 C   0  0  0  0  0  0  0  0  0  0  0  0
    3.2476    7.1250    0.0000 C   0  0  0  0  0  0  0  0  0  0  0  0
    1.9486    6.3750    0.0000 C   0  0  0  0  0  0  0  0  0  0  0  0
    0.6495    7.1250    0.0000 C   0  0  0  0  0  0  0  0  0  0  0  0
   -0.6495    6.3750    0.0000 C   0  0  0  0  0  0  0  0  0  0  0  0
   -1.9486    7.1250    0.0000 C   0  0  0  0  0  0  0  0  0  0  0  0
   -3.2476    6.3750    0.0000 C   0  0  0  0  0  0  0  0  0  0  0  0
   -4.5466    7.1250    0.0000 C   0  0  0  0  0  0  0  0  0  0  0  0
   -5.8457    6.3750    0.0000 C   0  0  0  0  0  0  0  0  0  0  0  0
   -7.1447    7.1250    0.0000 C   0  0  0  0  0  0  0  0  0  0  0  0
   -8.4437    6.3750    0.0000 C   0  0  0  0  0  0  0  0  0  0  0  0
   -9.7428    7.1250    0.0000 C   0  0  0  0  0  0  0  0  0  0  0  0
  -11.0418    7.8750    0.0000 N   0  0  0  0  0  0  0  0  0  0  0  0
  2  1  1  0
  3  2  1  0
  4  3  1  0
  5  4  1  0
  6  5  1  0
  7  6  1  0
  8  7  1  0
  9  8  1  0
 10  9  1  0
 11 10  1  0
 12 11  1  0
 13 12  3  0
M  END
>  <NAME>  (2620) 
N-UNDECYL CYANIDE

>  <SYNONYMS>  (2620) 


>  <SPECTRUM TYPE>  (2620) 
MS1

>  <INSTRUMENT TYPE>  (2620) 
EI-B

>  <INSTRUMENT>  (2620) 
HITACHI M-60

>  <ION MODE>  (2620) 
P

>  <INCHIKEY>  (2620) 
VXCUURYYWGCLIH-UHFFFAOYSA-N

>  <FORMULA>  (2620) 
C12H23N

>  <EXACT MASS>  (2620) 
181.183049736

>  <MW>  (2620) 
181

>  <ID>  (2620) 
JP008318

>  <CONTRIBUTOR>  (2620) 
University of Tokyo Team, {Faculty of Engineering, University of Tokyo

>  <COMMENT>  (2620) 
SMILES=CCCCCCCCCCCC#N
InChI=InChI=1S/C12H23N/c1-2-3-4-5-6-7-8-9-10-11-12-13/h2-11H2,1H3
computed SMILES=N#CCCCCCCCCCCC
accession=JP008318
date=2016.01.19 (Created 2008.10.21, modified 2011.05.06)
author=UBE SCIENTIFIC ANALYSIS LABORATORY
license=CC BY-NC-SA
exact mass=181.18305
ionization energy=70 eV
ion type=[M]+*
computed spectral entropy=3.475401725854725
computed normalized entropy=0.8074696015499745
SPLASH=splash10-0537-9100000000-3b4e31a5c64705882194
submitter=submitter = University of Tokyo Team (Faculty of Engineering, University of Tokyo)
MoNA Rating=3.75

>  <NUM PEAKS>  (2620) 
74

>  <MASS SPECTRAL PEAKS>  (2620) 
18 0.72
27 35.38
28 10.33
29 51.95
30 6.38
39 23.28
40 6.78
41 99.99
42 27.31
43 89.59
44 8.64
51 2.38
52 2.5
53 7.95
54 48.4
55 61.39
56 26.04
57 62.89
58 4.78
65 2.45
66 3.09
67 7.07
68 13.04
69 51.9
70 32.52
71 15.82
72 1.93
77 1.26
79 6.91
80 2.73
81 8.65
82 61.19
83 54.93
84 10.39
85 7.95
91 1.8
93 4.36
94 1.93
95 6.46
96 73.49
97 92.06
98 11.24
99 1.37
105 0.97
106 0.19
107 3.43
108 1.07
109 2.18
110 62.17
111 33.13
112 5.23
120 0.42
121 1.55
122 2.06
124 48.77
125 9.39
126 2.07
128 0.82
129 1.09
134 0.84
135 1.06
136 1.97
137 1.58
138 23.48
139 4.45
141 0.26
144 1.15
146 0.73
149 1.09
150 1.14
152 4.4
153 0.6
166 3.64
168 1.28

>  <PREDICTED SPECTRUM>  (2620) 
14 14
15 60
25 24
26 169
27 589
28 330
29 629
30 78
31 6
32 12
36 39
37 58
38 113
39 554
40 257
41 999
42 592
43 777
44 196
45 15
47 19
49 50
50 92
51 174
52 180
53 294
54 505
55 940
56 688
57 572
58 129
59 3
60 15
63 40
64 60
65 157
66 155
67 306
68 548
69 805
70 593
71 302
72 73
73 24
77 56
78 40
79 197
80 171
81 202
82 622
83 584
84 449
85 214
86 16
93 123
94 124
95 135
96 561
97 476
98 216
99 81
105 14
106 31
107 35
108 109
109 124
110 498
111 405
112 198
113 132
114 18
120 29
122 102
123 26
124 498
125 303
126 112
127 93
136 119
137 72
138 544
139 248
140 135
150 9
152 413
153 251
154 49
166 234
167 31
180 111
181 7
182 5

$$$$

     RDKit          2D

 11 10  0  0  0  0  0  0  0  0999 V2000
   -9.0933    6.7500    0.0000 C   0  0  0  0  0  0  0  0  0  0  0  0
   -7.7942    6.0000    0.0000 C   0  0  0  0  0  0  0  0  0  0  0  0
   -6.4952    6.7500    0.0000 C   0  0  0  0  0  0  0  0  0  0  0  0
   -5.1962    6.0000    0.0000 C   0  0  0  0  0  0  0  0  0  0  0  0
   -3.8971    6.7500    0.0000 C   0  0  0  0  0  0  0  0  0  0  0  0
   -2.5981    6.0000    0.0000 C   0  0  0  0  0  0  0  0  0  0  0  0
   -1.2990    6.7500    0.0000 C   0  0  0  0  0  0  0  0  0  0  0  0
    0.0000    6.0000    0.0000 C   0  0  0  0  0  0  0  0  0  0  0  0
    1.2990    6.7500    0.0000 C   0  0  0  0  0  0  0  0  0  0  0  0
    2.5981    6.0000    0.0000 C   0  0  0  0  0  0  0  0  0  0  0  0
    3.8971    5.2500    0.0000 N   0  0  0  0  0  0  0  0  0  0  0  0
  2  1  1  0
  3  2  1  0
  4  3  1  0
  5  4  1  0
  6  5  1  0
  7  6  1  0
  8  7  1  0
  9  8  1  0
 10  9  1  0
 11 10  3  0
M  END
>  <NAME>  (2621) 
N-NONYL CYANIDE

>  <SYNONYMS>  (2621) 


>  <SPECTRUM TYPE>  (2621) 
MS1

>  <INSTRUMENT TYPE>  (2621) 
EI-B

>  <INSTRUMENT>  (2621) 
HITACHI M-60

>  <ION MODE>  (2621) 
P

>  <INCHIKEY>  (2621) 
HBZDPWBWBJMYRY-UHFFFAOYSA-N

>  <FORMULA>  (2621) 
C10H19N

>  <EXACT MASS>  (2621) 
153.151749608

>  <MW>  (2621) 
153

>  <ID>  (2621) 
JP008317

>  <CONTRIBUTOR>  (2621) 
University of Tokyo Team, {Faculty of Engineering, University of Tokyo

>  <COMMENT>  (2621) 
SMILES=CCCCCCCCCC#N
InChI=InChI=1S/C10H19N/c1-2-3-4-5-6-7-8-9-10-11/h2-9H2,1H3
computed SMILES=N#CCCCCCCCCC
accession=JP008317
date=2016.01.19 (Created 2008.10.21, modified 2011.05.06)
author=UBE SCIENTIFIC ANALYSIS LABORATORY
license=CC BY-NC-SA
exact mass=153.15175
ionization energy=70 eV
ion type=[M]+*
computed spectral entropy=3.07107662007349
computed normalized entropy=0.878326892216255
SPLASH=splash10-000y-9000000000-e84c6f9d6b16cb7c971d
submitter=submitter = University of Tokyo Team (Faculty of Engineering, University of Tokyo)
MoNA Rating=3.75

>  <NUM PEAKS>  (2621) 
33

>  <MASS SPECTRAL PEAKS>  (2621) 
27 34.76
28 6.85
29 50.48
39 21.71
41 99.99
42 32.91
43 69.07
53 2.98
54 59.77
55 28.51
56 13.55
57 55.59
67 10.51
68 13.68
69 58.82
70 15.64
71 11.48
79 0.77
80 1.09
81 5.8
82 73.77
83 70.29
84 10.91
93 6.34
95 3.44
96 78.32
97 53.78
98 6.21
109 5.17
110 44.58
111 20.16
124 10.99
138 3.49

>  <PREDICTED SPECTRUM>  (2621) 
14 32
15 95
18 10
25 27
26 211
27 664
28 387
29 657
30 154
31 46
32 27
36 25
37 78
38 136
39 597
40 285
41 999
42 663
43 728
44 193
45 37
49 55
50 112
51 210
52 199
53 327
54 577
55 946
56 740
57 498
58 74
62 19
63 25
64 80
65 162
66 134
67 249
68 634
69 758
70 636
71 224
72 47
77 65
78 51
79 173
80 160
81 181
82 571
83 525
84 342
85 156
86 18
92 12
93 70
94 145
95 77
96 565
97 364
98 163
99 121
100 17
106 28
107 4
108 160
109 70
110 622
111 324
112 168
113 30
122 5
124 497
125 292
126 63
138 276
139 54
152 123

$$$$

     RDKit          2D

 14 13  0  0  0  0  0  0  0  0999 V2000
   -2.5981    8.2500    0.0000 C   0  0  0  0  0  0  0  0  0  0  0  0
   -3.8971    7.5000    0.0000 C   0  0  0  0  0  0  0  0  0  0  0  0
   -1.2990    7.5000    0.0000 C   0  0  0  0  0  0  0  0  0  0  0  0
   -5.1962    8.2500    0.0000 C   0  0  0  0  0  0  0  0  0  0  0  0
    0.0000    8.2500    0.0000 C   0  0  0  0  0  0  0  0  0  0  0  0
   -6.4952    7.5000    0.0000 C   0  0  0  0  0  0  0  0  0  0  0  0
    1.2990    7.5000    0.0000 C   0  0  0  0  0  0  0  0  0  0  0  0
   -7.7942    8.2500    0.0000 C   0  0  0  0  0  0  0  0  0  0  0  0
    2.5981    8.2500    0.0000 C   0  0  0  0  0  0  0  0  0  0  0  0
   -9.0933    7.5000    0.0000 C   0  0  0  0  0  0  0  0  0  0  0  0
    3.8971    7.5000    0.0000 C   0  0  0  0  0  0  0  0  0  0  0  0
  -10.3923    8.2500    0.0000 C   0  0  0  0  0  0  0  0  0  0  0  0
    5.1962    6.7500    0.0000 N   0  0  0  0  0  0  0  0  0  0  0  0
  -11.6913    9.0000    0.0000 N   0  0  0  0  0  0  0  0  0  0  0  0
  2  1  1  0
  3  1  1  0
  4  2  1  0
  5  3  1  0
  6  4  1  0
  7  5  1  0
  8  6  1  0
  9  7  1  0
 10  8  1  0
 11  9  1  0
 12 10  1  0
 13 11  3  0
 14 12  3  0
M  END
>  <NAME>  (2622) 
1,10-DICYANODECANE

>  <SYNONYMS>  (2622) 


>  <SPECTRUM TYPE>  (2622) 
MS1

>  <INSTRUMENT TYPE>  (2622) 
EI-B

>  <INSTRUMENT>  (2622) 
HITACHI M-60

>  <ION MODE>  (2622) 
P

>  <INCHIKEY>  (2622) 
AVQYXBDAZWIFTO-UHFFFAOYSA-N

>  <FORMULA>  (2622) 
C12H20N2

>  <EXACT MASS>  (2622) 
192.16264864

>  <MW>  (2622) 
192

>  <ID>  (2622) 
JP008316

>  <CONTRIBUTOR>  (2622) 
University of Tokyo Team, {Faculty of Engineering, University of Tokyo

>  <COMMENT>  (2622) 
SMILES=N#CCCCCCCCCCCC#N
InChI=InChI=1S/C12H20N2/c13-11-9-7-5-3-1-2-4-6-8-10-12-14/h1-10H2
computed SMILES=N#CCCCCCCCCCCC#N
accession=JP008316
date=2016.01.19 (Created 2008.10.21, modified 2011.05.06)
license=CC BY-NC-SA
author=UBE SCIENTIFIC ANALYSIS LABORATORY
exact mass=192.16265
ionization energy=70 eV
ion type=[M]+*
computed spectral entropy=3.1769024714130456
computed normalized entropy=0.8206503517801016
SPLASH=splash10-001j-9100000000-0cb68a64a6f638730839
submitter=submitter = University of Tokyo Team (Faculty of Engineering, University of Tokyo)
MoNA Rating=3.75

>  <NUM PEAKS>  (2622) 
48

>  <MASS SPECTRAL PEAKS>  (2622) 
27 23.86
28 10.72
29 29.05
39 20.15
40 4.72
41 83.31
42 18.3
43 20.04
53 9.08
54 38.64
55 61.89
56 10.94
57 11.86
67 11.55
68 10.13
69 52.87
70 7.08
77 3.52
79 7.02
80 4.05
81 11.41
82 70.51
83 99.99
84 8.5
91 1.76
93 3.74
94 2.51
95 5.77
96 62.81
97 94.97
98 8.85
107 2.5
108 1.95
109 3.78
110 32.14
111 6.11
122 1.59
124 9.1
135 1.74
138 2.83
141 1.04
142 1.05
149 2.79
152 16.82
153 2.39
163 4.28
171 0.11
191 2.29

>  <PREDICTED SPECTRUM>  (2622) 
14 7
15 10
18 9
25 17
26 166
27 454
28 274
29 413
30 28
31 2
36 25
37 77
38 129
39 448
40 242
41 795
42 404
43 142
49 39
50 63
51 171
52 217
53 402
54 638
55 999
56 409
57 343
62 9
63 14
64 66
65 140
66 121
67 421
68 292
69 709
70 396
71 154
74 38
75 24
77 87
78 6
79 264
80 158
81 279
82 528
83 509
84 205
85 75
91 63
92 38
93 201
94 177
95 235
96 464
97 611
98 201
99 140
100 10
105 9
106 9
107 206
108 170
109 224
110 278
111 217
112 109
120 18
121 233
122 234
123 102
124 265
125 137
135 223
136 133
137 79
138 131
139 58
148 6
149 206
150 65
151 20
152 511
153 146
163 298
164 193
177 97
191 214
192 55

$$$$

     RDKit          2D

 14 13  0  0  0  0  0  0  0  0999 V2000
   -3.8971    7.5000    0.0000 C   0  0  0  0  0  0  0  0  0  0  0  0
   -5.1962    8.2500    0.0000 C   0  0  0  0  0  0  0  0  0  0  0  0
   -2.5981    8.2500    0.0000 C   0  0  0  0  0  0  0  0  0  0  0  0
   -6.4952    7.5000    0.0000 C   0  0  0  0  0  0  0  0  0  0  0  0
   -1.2990    7.5000    0.0000 C   0  0  0  0  0  0  0  0  0  0  0  0
   -7.7942    8.2500    0.0000 C   0  0  0  0  0  0  0  0  0  0  0  0
    0.0000    8.2500    0.0000 C   0  0  0  0  0  0  0  0  0  0  0  0
   -9.0933    7.5000    0.0000 C   0  0  0  0  0  0  0  0  0  0  0  0
    1.2990    7.5000    0.0000 C   0  0  0  0  0  0  0  0  0  0  0  0
  -10.3923    8.2500    0.0000 C   0  0  0  0  0  0  0  0  0  0  0  0
    2.5981    8.2500    0.0000 C   0  0  0  0  0  0  0  0  0  0  0  0
  -11.6913    7.5000    0.0000 C   0  0  0  0  0  0  0  0  0  0  0  0
    3.8971    7.5000    0.0000 N   0  0  0  0  0  0  0  0  0  0  0  0
  -12.9904    6.7500    0.0000 N   0  0  0  0  0  0  0  0  0  0  0  0
  2  1  1  0
  3  1  1  0
  4  2  1  0
  5  3  1  0
  6  4  1  0
  7  5  1  0
  8  6  1  0
  9  7  1  0
 10  8  1  0
 11  9  1  0
 12 10  1  0
 13 11  1  0
 14 12  3  0
M  END
>  <NAME>  (2623) 
1-AMINO-11-CYANOUNDECANE

>  <SYNONYMS>  (2623) 


>  <SPECTRUM TYPE>  (2623) 
MS1

>  <INSTRUMENT TYPE>  (2623) 
EI-B

>  <INSTRUMENT>  (2623) 
HITACHI M-60

>  <ION MODE>  (2623) 
P

>  <INCHIKEY>  (2623) 
BVJKISUCBKDPOW-UHFFFAOYSA-N

>  <FORMULA>  (2623) 
C12H24N2

>  <EXACT MASS>  (2623) 
196.19394876799998

>  <MW>  (2623) 
196

>  <ID>  (2623) 
JP008315

>  <CONTRIBUTOR>  (2623) 
University of Tokyo Team, {Faculty of Engineering, University of Tokyo

>  <COMMENT>  (2623) 
SMILES=NCCCCCCCCCCCC#N
InChI=InChI=1S/C12H24N2/c13-11-9-7-5-3-1-2-4-6-8-10-12-14/h1-11,13H2
computed SMILES=N#CCCCCCCCCCCCN
accession=JP008315
date=2016.01.19 (Created 2008.10.21, modified 2011.05.06)
author=UBE SCIENTIFIC ANALYSIS LABORATORY
license=CC BY-NC-SA
exact mass=196.19395
ionization energy=70 eV
ion type=[M]+*
computed spectral entropy=2.6306506667255674
computed normalized entropy=0.6759435084920743
SPLASH=splash10-001i-9000000000-741492e2ef016c342b4c
submitter=submitter = University of Tokyo Team (Faculty of Engineering, University of Tokyo)
MoNA Rating=3.75

>  <NUM PEAKS>  (2623) 
49

>  <MASS SPECTRAL PEAKS>  (2623) 
18 3.98
27 3.4
28 1.97
29 5.36
30 99.99
31 3.55
32 1.93
39 3.13
41 9.25
42 4.38
43 2.89
44 3.43
45 13.12
54 2.55
55 5.62
56 2.36
57 0.49
59 4.18
67 1.76
69 2.6
70 0.41
72 2.67
73 1.77
77 1.03
81 1.03
82 0.98
83 4.3
84 0.38
86 7.21
87 2
95 0.76
96 1.09
97 2.27
98 0.91
100 2.82
101 0.77
102 1.74
110 1
114 1.31
122 0.63
128 0.78
136 0.61
142 0.84
143 0.58
153 0.51
156 6.72
157 1.19
195 1.02
196 0.71

>  <PREDICTED SPECTRUM>  (2623) 
15 52
18 15
27 92
28 158
29 190
30 999
31 61
39 150
40 52
41 581
42 263
43 425
44 189
45 266
46 71
51 107
52 55
53 216
54 269
55 450
56 488
57 260
58 84
59 333
60 61
65 18
66 6
67 259
68 139
69 353
70 134
71 151
72 132
73 65
74 77
79 11
81 2
82 137
83 256
85 53
86 169
87 159
88 27
95 67
96 113
97 317
98 109
100 88
101 112
102 16
109 72
110 37
113 20
114 209
122 9
124 12
125 108
126 128
127 88
128 142
129 96
137 10
138 35
139 123
151 78
152 87
153 112
156 347
167 147
177 32
179 80
181 29
195 128
196 115
197 22

$$$$

     RDKit          2D

 14 13  0  0  0  0  0  0  0  0999 V2000
   -3.2476    7.1250    0.0000 C   0  0  0  0  0  0  0  0  0  0  0  0
   -4.5466    7.8750    0.0000 C   0  0  0  0  0  0  0  0  0  0  0  0
   -1.9486    7.8750    0.0000 C   0  0  0  0  0  0  0  0  0  0  0  0
   -5.8457    7.1250    0.0000 C   0  0  0  0  0  0  0  0  0  0  0  0
   -0.6495    7.1250    0.0000 C   0  0  0  0  0  0  0  0  0  0  0  0
   -7.1447    7.8750    0.0000 C   0  0  0  0  0  0  0  0  0  0  0  0
    0.6495    7.8750    0.0000 C   0  0  0  0  0  0  0  0  0  0  0  0
   -8.4437    7.1250    0.0000 C   0  0  0  0  0  0  0  0  0  0  0  0
    1.9486    7.1250    0.0000 C   0  0  0  0  0  0  0  0  0  0  0  0
   -9.7428    7.8750    0.0000 C   0  0  0  0  0  0  0  0  0  0  0  0
    3.2476    7.8750    0.0000 C   0  0  0  0  0  0  0  0  0  0  0  0
  -11.0418    7.1250    0.0000 C   0  0  0  0  0  0  0  0  0  0  0  0
    4.5466    7.1250    0.0000 N   0  0  0  0  0  0  0  0  0  0  0  0
  -12.3409    7.8750    0.0000 N   0  0  0  0  0  0  0  0  0  0  0  0
  2  1  1  0
  3  1  1  0
  4  2  1  0
  5  3  1  0
  6  4  1  0
  7  5  1  0
  8  6  1  0
  9  7  1  0
 10  8  1  0
 11  9  1  0
 12 10  1  0
 13 11  1  0
 14 12  1  0
M  END
>  <NAME>  (2624) 
1,12-DIAMINODODECANE

>  <SYNONYMS>  (2624) 


>  <SPECTRUM TYPE>  (2624) 
MS1

>  <INSTRUMENT TYPE>  (2624) 
EI-B

>  <INSTRUMENT>  (2624) 
HITACHI M-60

>  <ION MODE>  (2624) 
P

>  <INCHIKEY>  (2624) 
QFTYSVGGYOXFRQ-UHFFFAOYSA-N

>  <FORMULA>  (2624) 
C12H28N2

>  <EXACT MASS>  (2624) 
200.22524889599998

>  <MW>  (2624) 
200

>  <ID>  (2624) 
JP008314

>  <CONTRIBUTOR>  (2624) 
University of Tokyo Team, {Faculty of Engineering, University of Tokyo

>  <COMMENT>  (2624) 
SMILES=NCCCCCCCCCCCCN
InChI=InChI=1S/C12H28N2/c13-11-9-7-5-3-1-2-4-6-8-10-12-14/h1-14H2
computed SMILES=NCCCCCCCCCCCCN
accession=JP008314
date=2016.01.19 (Created 2008.10.21, modified 2011.05.06)
author=UBE SCIENTIFIC ANALYSIS LABORATORY
license=CC BY-NC-SA
exact mass=200.22525
ionization energy=70 eV
ion type=[M]+*
computed spectral entropy=3.0115768785335804
computed normalized entropy=0.7416867742538045
SPLASH=splash10-001i-9100000000-bc4a8ee49352a0c80adf
submitter=submitter = University of Tokyo Team (Faculty of Engineering, University of Tokyo)
MoNA Rating=3.75

>  <NUM PEAKS>  (2624) 
58

>  <MASS SPECTRAL PEAKS>  (2624) 
18 15.8
27 2.52
28 1.47
29 4.4
30 99.99
31 1.25
41 9.83
42 3.02
43 6.03
44 25.45
45 6.61
55 8.61
56 9.17
57 2.82
59 3.58
67 1.69
68 1.24
69 5.43
70 4.18
72 4.71
73 3.04
77 1.18
81 1.36
82 1.89
83 3.12
84 2.4
86 5.45
87 2.3
96 0.68
97 2.31
98 1.82
100 4.39
101 0.83
102 4.29
110 0.71
111 0.95
112 0.96
114 2.53
115 0.7
126 0.8
128 3.86
129 0.75
141 0.5
142 4.44
143 0.68
154 0.8
156 5.38
157 0.94
166 0.43
170 1.75
171 8.04
172 1.13
182 0.7
183 0.43
184 5.79
185 0.95
199 0.68
200 1.55

>  <PREDICTED SPECTRUM>  (2624) 
15 29
16 11
17 39
18 71
27 4
28 140
29 141
30 999
31 55
32 8
39 107
40 29
41 327
42 179
43 341
44 326
45 270
46 116
51 15
53 92
54 118
55 308
56 384
57 282
58 167
59 339
60 129
65 48
66 10
67 149
68 112
69 286
70 375
71 93
72 383
73 351
74 84
77 19
79 47
80 28
81 106
82 77
83 233
84 398
85 115
86 368
87 240
88 139
96 91
97 73
98 130
99 79
100 222
101 245
102 59
104 15
112 61
114 260
115 116
116 17
118 11
126 136
127 26
128 260
129 142
130 67
140 0
142 298
143 135
144 72
154 79
155 56
156 352
157 232
158 83
170 339
171 291
172 16
183 97
184 76
185 69
199 13
200 331
201 114

$$$$

     RDKit          2D

 13 12  0  0  0  0  0  0  0  0999 V2000
  -10.3923    6.7500    0.0000 C   0  0  0  0  0  0  0  0  0  0  0  0
    3.8971    6.0000    0.0000 C   0  0  0  0  0  0  0  0  0  0  0  0
   -9.0933    6.0000    0.0000 C   0  0  0  0  0  0  0  0  0  0  0  0
    2.5981    6.7500    0.0000 C   0  0  0  0  0  0  0  0  0  0  0  0
   -7.7942    6.7500    0.0000 C   0  0  0  0  0  0  0  0  0  0  0  0
   -6.4952    6.0000    0.0000 C   0  0  0  0  0  0  0  0  0  0  0  0
   -5.1962    6.7500    0.0000 C   0  0  0  0  0  0  0  0  0  0  0  0
   -3.8971    6.0000    0.0000 C   0  0  0  0  0  0  0  0  0  0  0  0
   -2.5981    6.7500    0.0000 C   0  0  0  0  0  0  0  0  0  0  0  0
   -1.2990    6.0000    0.0000 C   0  0  0  0  0  0  0  0  0  0  0  0
    0.0000    6.7500    0.0000 C   0  0  0  0  0  0  0  0  0  0  0  0
    0.0000    8.2500    0.0000 O   0  0  0  0  0  0  0  0  0  0  0  0
    1.2990    6.0000    0.0000 O   0  0  0  0  0  0  0  0  0  0  0  0
  3  1  1  0
  4  2  1  0
  5  3  1  0
  6  5  1  0
  7  6  1  0
  8  7  1  0
  9  8  1  0
 10  9  1  0
 11 10  1  0
 12 11  2  0
 13  4  1  0
 13 11  1  0
M  END
>  <NAME>  (2625) 
ETHYL PELARGONATE

>  <SYNONYMS>  (2625) 


>  <SPECTRUM TYPE>  (2625) 
MS1

>  <INSTRUMENT TYPE>  (2625) 
EI-B

>  <INSTRUMENT>  (2625) 
HITACHI M-60

>  <ION MODE>  (2625) 
P

>  <INCHIKEY>  (2625) 
BYEVBITUADOIGY-UHFFFAOYSA-N

>  <FORMULA>  (2625) 
C11H22O2

>  <EXACT MASS>  (2625) 
186.161979944

>  <MW>  (2625) 
186

>  <ID>  (2625) 
JP008310

>  <CONTRIBUTOR>  (2625) 
University of Tokyo Team, {Faculty of Engineering, University of Tokyo

>  <COMMENT>  (2625) 
SMILES=CCCCCCCCC(=O)OCC
InChI=InChI=1S/C11H22O2/c1-3-5-6-7-8-9-10-11(12)13-4-2/h3-10H2,1-2H3
computed SMILES=O=C(OCC)CCCCCCCC
accession=JP008310
date=2016.01.19 (Created 2008.10.21, modified 2011.05.06)
author=UBE SCIENTIFIC ANALYSIS LABORATORY
license=CC BY-NC-SA
exact mass=186.16198
ionization energy=70 eV
ion type=[M]+*
computed spectral entropy=3.331020468596882
computed normalized entropy=0.7668438489068867
SPLASH=splash10-000l-9100000000-25aeab30af507c69c9d5
submitter=submitter = University of Tokyo Team (Faculty of Engineering, University of Tokyo)
MoNA Rating=3.75

>  <NUM PEAKS>  (2625) 
77

>  <MASS SPECTRAL PEAKS>  (2625) 
15 0.58
18 0.54
26 0.47
27 11.87
28 3.99
29 32.33
30 0.76
31 0.62
39 5.4
40 1.43
41 24.74
42 9
43 30.4
44 1.39
45 11.12
46 0.3
53 1.66
54 1.29
55 21.65
56 7.53
57 21.72
58 1.28
59 1.87
60 25.47
61 21.11
62 0.63
67 2.11
68 1.71
69 9.22
70 23.59
71 14.12
72 0.79
73 23.43
74 3.36
75 0.59
79 0.35
81 2.79
82 0.37
83 5.05
84 4.52
85 0.78
87 3.24
88 99.99
89 8.16
90 0.62
93 0.18
94 0.34
95 0.52
96 0.73
97 3.93
98 1.83
99 0.29
101 37.77
102 3.48
103 0.35
111 0.96
112 1.13
113 0.12
115 6.82
116 0.72
121 0.24
122 0.15
123 0.96
125 0.24
129 2.88
130 0.51
139 0.89
140 0.21
141 20.26
142 1.96
143 7.87
144 0.96
157 6.43
158 0.85
159 1.09
186 2.78
187 0.62

>  <PREDICTED SPECTRUM>  (2625) 
15 14
26 28
27 229
28 83
29 354
30 50
31 27
39 181
40 70
41 447
42 263
43 507
44 117
45 192
46 38
51 23
52 36
53 130
54 117
55 490
56 232
57 362
58 105
59 182
60 471
61 376
62 36
63 8
65 6
67 162
68 83
69 315
70 301
71 177
73 376
74 50
77 20
79 68
80 40
81 154
82 77
83 292
84 199
85 121
86 5
87 269
88 999
89 284
90 87
93 29
95 130
96 85
97 222
98 206
99 147
100 75
101 722
102 128
103 49
111 94
115 311
116 21
121 22
123 80
125 55
129 254
130 196
139 58
140 3
141 462
142 125
143 290
144 95
157 191
158 37
159 1
171 21
185 20
186 169
187 82

$$$$

     RDKit          2D

 12 12  0  0  0  0  0  0  0  0999 V2000
   -1.3000    0.7500    0.0000 C   0  0  0  0  0  0  0  0  0  0  0  0
   -0.0000   -1.5000    0.0000 C   0  0  0  0  0  0  0  0  0  0  0  0
    0.0000    1.5000    0.0000 C   0  0  0  0  0  0  0  0  0  0  0  0
    1.3000   -0.7500    0.0000 C   0  0  0  0  0  0  0  0  0  0  0  0
   -1.3000   -0.7500    0.0000 C   0  0  0  0  0  0  0  0  0  0  0  0
    1.3000    0.7500    0.0000 C   0  0  0  0  0  0  0  0  0  0  0  0
    3.8981    0.7504    0.0000 C   0  0  0  0  0  0  0  0  0  0  0  0
   -2.5989   -1.5002    0.0000 Cl  0  0  0  0  0  0  0  0  0  0  0  0
    3.1483   -0.5487    0.0000 F   0  0  0  0  0  0  0  0  0  0  0  0
    5.1972    0.0006    0.0000 F   0  0  0  0  0  0  0  0  0  0  0  0
    4.6479    2.0496    0.0000 F   0  0  0  0  0  0  0  0  0  0  0  0
    2.5989    1.5002    0.0000 S   0  0  0  0  0  0  0  0  0  0  0  0
  3  1  2  0
  4  2  1  0
  5  1  1  0
  5  2  2  0
  6  3  1  0
  6  4  2  0
  8  5  1  0
  9  7  1  0
 10  7  1  0
 11  7  1  0
 12  6  1  0
 12  7  1  0
M  END
>  <NAME>  (2626) 
TRIFLUOROMETHYL PARA-CHLOROPHENYL THIOETHER

>  <SYNONYMS>  (2626) 


>  <SPECTRUM TYPE>  (2626) 
MS1

>  <INSTRUMENT TYPE>  (2626) 
EI-B

>  <INSTRUMENT>  (2626) 
HITACHI M-60

>  <ION MODE>  (2626) 
P

>  <INCHIKEY>  (2626) 
ATFBQTUDGRJCNB-UHFFFAOYSA-N

>  <FORMULA>  (2626) 
C7H4ClF3S

>  <EXACT MASS>  (2626) 
211.967433468

>  <MW>  (2626) 
212

>  <ID>  (2626) 
JP008309

>  <CONTRIBUTOR>  (2626) 
University of Tokyo Team, {Faculty of Engineering, University of Tokyo

>  <COMMENT>  (2626) 
SMILES=Clc(c1)ccc(c1)SC(F)(F)F
InChI=InChI=1S/C7H4ClF3S/c8-5-1-3-6(4-2-5)12-7(9,10)11/h1-4H
computed SMILES=FC(F)(F)SC1=CC=C(Cl)C=C1
accession=JP008309
date=2016.01.19 (Created 2008.10.21, modified 2011.05.06)
author=UBE SCIENTIFIC ANALYSIS LABORATORY
license=CC BY-NC-SA
exact mass=211.96743
ionization energy=70 eV
ion type=[M]+*
computed spectral entropy=2.920598852763636
computed normalized entropy=0.7917306296107093
SPLASH=splash10-03dl-6940000000-00d79afecce0b1c7be7f
submitter=submitter = University of Tokyo Team (Faculty of Engineering, University of Tokyo)
MoNA Rating=3.75

>  <NUM PEAKS>  (2626) 
40

>  <MASS SPECTRAL PEAKS>  (2626) 
38 5.11
39 4.67
45 7.49
50 13.51
51 5.09
57 4.87
58 3.36
61 3.98
62 6.6
63 18.11
69 36.26
73 9.06
74 8.47
75 14.23
76 1.61
81 4.91
82 11.03
85 1.24
99 13.77
101 4.64
107 4.52
108 56.51
109 4.84
110 2.57
111 3.45
127 1.4
142 1.97
143 99.99
144 8.5
145 37.87
146 2.71
147 0.81
193 5.14
194 0.91
195 2.18
212 75.21
213 6.55
214 27.65
215 2.6
216 0.95

>  <PREDICTED SPECTRUM>  (2626) 
19 11
25 23
26 32
28 15
31 95
32 60
33 4
35 11
36 72
37 81
38 66
39 85
41 52
44 12
45 198
46 25
47 50
49 2
50 294
51 144
56 17
57 262
58 52
60 20
61 103
62 159
63 418
64 71
65 27
69 712
70 99
71 68
73 225
74 243
75 438
76 177
78 5
79 67
80 43
81 219
82 335
83 311
84 46
85 125
86 13
87 12
89 14
90 14
93 225
94 43
95 42
99 262
100 5
101 275
107 181
108 557
109 304
110 185
111 271
113 97
114 23
115 160
116 1
117 104
126 29
134 154
143 999
144 265
145 661
146 209
148 13
193 221
194 21
195 135
212 951
213 259
214 617
215 189
216 61

$$$$

     RDKit          2D

 11 10  0  0  0  0  0  0  0  0999 V2000
    2.5981    4.5000    0.0000 C   0  0  0  0  0  0  0  0  0  0  0  0
   -7.7942    4.5000    0.0000 C   0  0  0  0  0  0  0  0  0  0  0  0
   -2.5981    4.5000    0.0000 C   0  0  0  0  0  0  0  0  0  0  0  0
   -1.2990    5.2500    0.0000 C   0  0  0  0  0  0  0  0  0  0  0  0
   -3.8971    5.2500    0.0000 C   0  0  0  0  0  0  0  0  0  0  0  0
    0.0000    4.5000    0.0000 C   0  0  0  0  0  0  0  0  0  0  0  0
   -5.1962    4.5000    0.0000 C   0  0  0  0  0  0  0  0  0  0  0  0
    0.0000    3.0000    0.0000 O   0  0  0  0  0  0  0  0  0  0  0  0
   -5.1962    3.0000    0.0000 O   0  0  0  0  0  0  0  0  0  0  0  0
    1.2990    5.2500    0.0000 O   0  0  0  0  0  0  0  0  0  0  0  0
   -6.4952    5.2500    0.0000 O   0  0  0  0  0  0  0  0  0  0  0  0
  4  3  1  0
  5  3  1  0
  6  4  1  0
  7  5  1  0
  8  6  2  0
  9  7  2  0
 10  1  1  0
 10  6  1  0
 11  2  1  0
 11  7  1  0
M  END
>  <NAME>  (2627) 
DIMETHYL GLUTARATE

>  <SYNONYMS>  (2627) 


>  <SPECTRUM TYPE>  (2627) 
MS1

>  <INSTRUMENT TYPE>  (2627) 
EI-B

>  <INSTRUMENT>  (2627) 
HITACHI M-60

>  <ION MODE>  (2627) 
P

>  <INCHIKEY>  (2627) 
XTDYIOOONNVFMA-UHFFFAOYSA-N

>  <FORMULA>  (2627) 
C7H12O4

>  <EXACT MASS>  (2627) 
160.073558864

>  <MW>  (2627) 
160

>  <ID>  (2627) 
JP008307

>  <CONTRIBUTOR>  (2627) 
University of Tokyo Team, {Faculty of Engineering, University of Tokyo

>  <COMMENT>  (2627) 
SMILES=COC(=O)CCCC(=O)OC
InChI=InChI=1S/C7H12O4/c1-10-6(8)4-3-5-7(9)11-2/h3-5H2,1-2H3
computed SMILES=O=C(OC)CCCC(=O)OC
accession=JP008307
date=2016.01.19 (Created 2008.10.21, modified 2011.05.06)
author=UBE SCIENTIFIC ANALYSIS LABORATORY
license=CC BY-NC-SA
exact mass=160.07356
ionization energy=70 eV
ion type=[M]+*
computed spectral entropy=3.0326633595584003
computed normalized entropy=0.7138205851198095
SPLASH=splash10-0pdi-9400000000-bd4cde216ce41f89b1d0
submitter=submitter = University of Tokyo Team (Faculty of Engineering, University of Tokyo)
MoNA Rating=3.75

>  <NUM PEAKS>  (2627) 
70

>  <MASS SPECTRAL PEAKS>  (2627) 
14 0.95
15 48.94
16 0.43
18 0.32
26 0.86
27 7.8
28 3.9
29 11.81
30 0.86
31 3.36
32 0.19
34 0.28
35 1.49
38 0.59
39 8.66
40 2.05
41 21.87
42 24.18
43 18.58
44 1.36
45 3.61
47 0.15
49 2.05
53 0.26
54 0.24
55 41.07
56 3.48
57 0.83
58 8.14
59 99.99
60 3.16
61 0.38
68 1.84
69 4.71
70 2.18
71 0.73
72 4.4
73 1.28
74 9.78
75 0.62
79 2.07
83 0.6
84 0.12
85 3.51
86 0.14
87 16.41
88 1.71
89 0.2
95 0.51
96 0.45
97 8.07
98 1.03
99 1.52
100 53.98
101 35.15
102 2.46
103 0.16
112 0.13
113 0.17
114 0.59
115 0.49
116 0.1
126 0.3
127 0.52
128 30.57
129 53.18
130 3.94
131 0.49
142 0.18
143 0.34

>  <PREDICTED SPECTRUM>  (2627) 
14 9
15 137
16 3
26 89
27 340
28 190
29 376
30 94
31 269
32 53
33 102
35 30
36 43
37 50
38 107
39 425
40 243
41 732
42 626
43 753
44 322
45 642
46 33
47 75
49 85
51 45
54 160
55 890
56 313
57 196
58 218
59 999
60 198
61 138
66 27
67 164
68 481
69 680
70 350
71 226
72 123
73 282
74 574
75 169
83 318
84 147
85 344
86 264
87 854
88 286
89 14
96 227
97 693
98 461
99 279
100 641
101 568
102 118
103 4
113 140
114 187
115 355
116 41
117 49
127 92
128 578
129 941
130 329
131 46
132 55
133 77
145 28
160 78

$$$$

     RDKit          2D

  4  3  0  0  0  0  0  0  0  0999 V2000
   -2.5981    2.2500    0.0000 C   0  0  0  0  0  0  0  0  0  0  0  0
    0.0000    2.2500    0.0000 N   0  0  0  0  0  0  0  0  0  0  0  0
    1.2990    1.5000    0.0000 O   0  0  0  0  0  0  0  0  0  0  0  0
   -1.2990    1.5000    0.0000 O   0  0  0  0  0  0  0  0  0  0  0  0
  3  2  2  0
  4  1  1  0
  4  2  1  0
M  END
>  <NAME>  (2628) 
METHYL NITRITE

>  <SYNONYMS>  (2628) 


>  <SPECTRUM TYPE>  (2628) 
MS1

>  <INSTRUMENT TYPE>  (2628) 
EI-B

>  <INSTRUMENT>  (2628) 
HITACHI M-60

>  <ION MODE>  (2628) 
P

>  <INCHIKEY>  (2628) 
BLLFVUPNHCTMSV-UHFFFAOYSA-N

>  <FORMULA>  (2628) 
CH3NO2

>  <EXACT MASS>  (2628) 
61.016378335999995

>  <MW>  (2628) 
61

>  <ID>  (2628) 
JP008305

>  <CONTRIBUTOR>  (2628) 
University of Tokyo Team, {Faculty of Engineering, University of Tokyo

>  <COMMENT>  (2628) 
SMILES=CON=O
InChI=InChI=1S/CH3NO2/c1-4-2-3/h1H3
computed SMILES=O=NOC
author=UBE SCIENTIFIC ANALYSIS LABORATORY
accession=JP008305
date=2016.01.19 (Created 2008.10.21, modified 2011.05.06)
license=CC BY-NC-SA
exact mass=61.01638
ionization energy=70 eV
ion type=[M]+*
computed spectral entropy=1.680165882035657
computed normalized entropy=0.7296867712501958
SPLASH=splash10-001i-9000000000-058884b0cc08be2c1c4e
submitter=submitter = University of Tokyo Team (Faculty of Engineering, University of Tokyo)
MoNA Rating=3.75

>  <NUM PEAKS>  (2628) 
10

>  <MASS SPECTRAL PEAKS>  (2628) 
15 12.57
17 0.1
18 3.46
28 3.55
29 33.81
30 99.99
31 43.95
32 28.93
60 3.16
61 10.23

>  <PREDICTED SPECTRUM>  (2628) 
14 57
15 80
16 15
29 75
30 591
31 407
32 72
33 55
42 349
43 404
44 331
45 545
46 256
61 999
62 410
63 187

$$$$

     RDKit          2D

 15 16  0  0  0  0  0  0  0  0999 V2000
   -1.6249   -3.1881    0.0000 C   0  0  0  0  0  0  0  0  0  0  0  0
   -0.3249   -0.9365    0.0000 C   0  0  0  0  0  0  0  0  0  0  0  0
    4.8703   -0.9365    0.0000 C   0  0  0  0  0  0  0  0  0  0  0  0
    6.1703   -3.1881    0.0000 C   0  0  0  0  0  0  0  0  0  0  0  0
   -0.3258   -3.9381    0.0000 C   0  0  0  0  0  0  0  0  0  0  0  0
    0.9742   -1.6865    0.0000 C   0  0  0  0  0  0  0  0  0  0  0  0
    3.5713   -1.6865    0.0000 C   0  0  0  0  0  0  0  0  0  0  0  0
    4.8713   -3.9381    0.0000 C   0  0  0  0  0  0  0  0  0  0  0  0
   -1.6244   -1.6873    0.0000 C   0  0  0  0  0  0  0  0  0  0  0  0
    6.1698   -1.6873    0.0000 C   0  0  0  0  0  0  0  0  0  0  0  0
    0.9737   -3.1873    0.0000 C   0  0  0  0  0  0  0  0  0  0  0  0
    3.5718   -3.1873    0.0000 C   0  0  0  0  0  0  0  0  0  0  0  0
   -2.9234   -0.9373    0.0000 O   0  0  0  0  0  0  0  0  0  0  0  0
    7.4689   -0.9373    0.0000 O   0  0  0  0  0  0  0  0  0  0  0  0
    2.2727   -3.9373    0.0000 O   0  0  0  0  0  0  0  0  0  0  0  0
  5  1  2  0
  6  2  1  0
  7  3  2  0
  8  4  1  0
  9  1  1  0
  9  2  2  0
 10  3  1  0
 10  4  2  0
 11  5  1  0
 11  6  2  0
 12  7  1  0
 12  8  2  0
 13  9  1  0
 14 10  1  0
 15 11  1  0
 15 12  1  0
M  END
>  <NAME>  (2629) 
4,4'-DIHYDROXYDIPHENYL ETHER

>  <SYNONYMS>  (2629) 


>  <SPECTRUM TYPE>  (2629) 
MS1

>  <INSTRUMENT TYPE>  (2629) 
EI-B

>  <INSTRUMENT>  (2629) 
HITACHI M-60

>  <ION MODE>  (2629) 
P

>  <INCHIKEY>  (2629) 
NZGQHKSLKRFZFL-UHFFFAOYSA-N

>  <FORMULA>  (2629) 
C12H10O3

>  <EXACT MASS>  (2629) 
202.06299417999998

>  <MW>  (2629) 
202

>  <ID>  (2629) 
JP008301

>  <CONTRIBUTOR>  (2629) 
University of Tokyo Team, {Faculty of Engineering, University of Tokyo

>  <COMMENT>  (2629) 
SMILES=Oc(c2)ccc(c2)Oc(c1)ccc(O)c1
InChI=InChI=1S/C12H10O3/c13-9-1-5-11(6-2-9)15-12-7-3-10(14)4-8-12/h1-8,13-14H
computed SMILES=OC1=CC=C(OC2=CC=C(O)C=C2)C=C1
accession=JP008301
date=2016.01.19 (Created 2008.10.21, modified 2011.05.06)
author=UBE SCIENTIFIC ANALYSIS LABORATORY
license=CC BY-NC-SA
exact mass=202.06299
ionization energy=70 eV
ion type=[M]+*
computed spectral entropy=2.793516445711396
computed normalized entropy=0.7296364836552937
SPLASH=splash10-0udi-7490000000-3e0345c1b056f5199f7d
submitter=submitter = University of Tokyo Team (Faculty of Engineering, University of Tokyo)
MoNA Rating=3.75

>  <NUM PEAKS>  (2629) 
46

>  <MASS SPECTRAL PEAKS>  (2629) 
27 4.38
39 15.74
41 1.04
43 2.99
51 1.85
53 7.37
54 0.94
55 4.25
57 0.94
63 4.41
64 2.22
65 12.59
66 2.05
69 3.64
78 2.26
81 9.54
82 1.62
91 1.17
92 1.73
93 2.9
94 16.85
95 1.37
101 3.54
109 16.74
110 7.08
115 1.26
116 0.44
117 2.09
118 0.78
119 0.87
120 1.29
121 1.47
127 2.15
128 1.43
129 1.01
131 3.25
145 4.7
146 0.51
147 2.44
157 1.64
173 6.04
174 0.66
201 2.55
202 99.99
203 13.48
204 1.34

>  <PREDICTED SPECTRUM>  (2629) 
26 28
27 53
28 19
29 23
36 18
37 29
38 119
39 272
40 111
41 171
42 62
43 39
50 146
51 256
52 221
53 240
54 144
55 162
56 82
57 59
62 64
63 168
64 124
65 289
66 118
67 67
68 29
69 24
74 52
75 67
76 25
77 137
78 74
79 84
80 149
81 267
82 117
83 55
92 136
93 209
94 203
107 80
108 261
109 481
110 279
111 9
119 34
120 43
126 96
127 87
128 129
129 70
130 17
131 50
143 24
145 133
146 68
147 25
156 103
157 115
161 1
173 125
174 88
175 61
185 114
186 7
187 44
200 8
201 138
202 999
203 396
204 89

$$$$

     RDKit          2D

 14 15  0  0  0  0  0  0  0  0999 V2000
    2.1668    2.9284    0.0000 C   0  0  0  0  0  0  0  0  0  0  0  0
    3.4626    0.6932    0.0000 C   0  0  0  0  0  0  0  0  0  0  0  0
    3.4281    3.6930    0.0000 C   0  0  0  0  0  0  0  0  0  0  0  0
    4.8039    1.4586    0.0000 C   0  0  0  0  0  0  0  0  0  0  0  0
    2.1841    1.4285    0.0000 C   0  0  0  0  0  0  0  0  0  0  0  0
    4.7867    2.9585    0.0000 C   0  0  0  0  0  0  0  0  0  0  0  0
    0.8900    0.6700    0.0000 C   0  0  0  0  0  0  0  0  0  0  0  0
    0.7400   -0.8200    0.0000 C   0  0  0  0  0  0  0  0  0  0  0  0
   -1.4800    0.1400    0.0000 C   0  0  0  0  0  0  0  0  0  0  0  0
   -0.4900    1.2700    0.0000 N   0  0  0  0  0  0  0  0  0  0  0  0
   -0.7200   -1.1500    0.0000 N   0  0  0  0  0  0  0  0  0  0  0  0
    6.0707    3.7340    0.0000 O   0  0  0  0  0  0  0  0  0  0  0  0
    1.8633   -1.8141    0.0000 O   0  0  0  0  0  0  0  0  0  0  0  0
   -2.9734    0.2801    0.0000 O   0  0  0  0  0  0  0  0  0  0  0  0
  3  1  2  0
  4  2  1  0
  5  1  1  0
  5  2  2  0
  6  3  1  0
  6  4  2  0
  7  5  1  0
  8  7  1  0
 10  7  1  0
 10  9  2  0
 11  8  2  0
 11  9  1  0
 12  6  1  0
 13  8  1  0
 14  9  1  0
M  END
>  <NAME>  (2630) 
5-(4-HYDROXYPHENYL)HYDANTOIN

>  <SYNONYMS>  (2630) 


>  <SPECTRUM TYPE>  (2630) 
MS1

>  <INSTRUMENT TYPE>  (2630) 
EI-B

>  <INSTRUMENT>  (2630) 
HITACHI M-60

>  <ION MODE>  (2630) 
P

>  <INCHIKEY>  (2630) 
UMTNMIARZPDSDI-UHFFFAOYSA-N

>  <FORMULA>  (2630) 
C9H8N2O3

>  <EXACT MASS>  (2630) 
192.05349211599997

>  <MW>  (2630) 
192

>  <ID>  (2630) 
JP008300

>  <CONTRIBUTOR>  (2630) 
University of Tokyo Team, {Faculty of Engineering, University of Tokyo

>  <COMMENT>  (2630) 
SMILES=Oc(c2)ccc(c2)C(N1)C(=O)NC(=O)1
InChI=InChI=1S/C9H8N2O3/c12-6-3-1-5(2-4-6)7-8(13)11-9(14)10-7/h1-4,7,12H,(H2,10,11,13,14)
computed SMILES=OC=1N=C(O)C(N1)C2=CC=C(O)C=C2
accession=JP008300
date=2016.01.19 (Created 2008.10.21, modified 2011.05.06)
author=UBE SCIENTIFIC ANALYSIS LABORATORY
license=CC BY-NC-SA
exact mass=192.05349
ionization energy=70 eV
ion type=[M]+*
computed spectral entropy=2.4638124293100656
computed normalized entropy=0.7174786283688154
SPLASH=splash10-00di-2900000000-98ac6fd2ca80e6b21e44
submitter=submitter = University of Tokyo Team (Faculty of Engineering, University of Tokyo)
MoNA Rating=3.75

>  <NUM PEAKS>  (2630) 
31

>  <MASS SPECTRAL PEAKS>  (2630) 
38 2.34
39 20.15
44 2.29
50 2.01
51 7.12
52 1.89
53 1.8
62 1.39
63 4.69
64 2.21
65 21.63
66 3.97
70 3.14
77 4.09
78 1.35
92 3.16
93 7.4
94 9.52
105 1.76
119 3.54
120 99.99
121 77.59
122 5.42
147 1.74
148 3.73
149 4.88
163 10.56
164 20.41
165 1.53
192 87.22
193 8.63

>  <PREDICTED SPECTRUM>  (2630) 
17 2
27 15
28 2
29 78
33 13
34 22
35 5
36 66
37 200
38 338
39 625
40 315
41 308
42 248
43 412
44 417
45 181
46 96
49 87
50 327
51 426
52 349
53 411
54 170
55 207
56 63
57 58
58 67
59 42
60 165
61 138
62 294
63 521
64 409
65 707
66 330
67 118
68 151
69 129
70 33
71 34
72 120
73 43
74 168
75 121
76 138
77 229
78 206
79 132
80 2
81 72
88 12
89 121
90 133
91 326
92 306
93 534
94 289
99 98
104 97
105 136
106 83
107 132
108 42
118 105
119 242
120 999
121 25
134 112
135 173
136 83
137 5
146 28
147 29
163 13
164 117
165 17
166 2
191 182
192 428
193 117
194 7

$$$$

     RDKit          2D

 11 11  0  0  0  0  0  0  0  0999 V2000
   -1.0200    0.4100    0.0000 C   0  0  0  0  0  0  0  0  0  0  0  0
   -0.5600   -1.0200    0.0000 C   0  0  0  0  0  0  0  0  0  0  0  0
   -2.7561    2.3429    0.0000 C   0  0  0  0  0  0  0  0  0  0  0  0
    1.4100    0.4000    0.0000 C   0  0  0  0  0  0  0  0  0  0  0  0
   -4.1821    2.8082    0.0000 N   0  0  0  0  0  0  0  0  0  0  0  0
   -2.4460    0.8753    0.0000 N   0  0  0  0  0  0  0  0  0  0  0  0
    0.1900    1.2900    0.0000 N   0  0  0  0  0  0  0  0  0  0  0  0
    0.9400   -1.0200    0.0000 N   0  0  0  0  0  0  0  0  0  0  0  0
   -1.4435   -2.2322    0.0000 O   0  0  0  0  0  0  0  0  0  0  0  0
   -1.6401    3.3452    0.0000 O   0  0  0  0  0  0  0  0  0  0  0  0
    2.8383    0.8582    0.0000 O   0  0  0  0  0  0  0  0  0  0  0  0
  2  1  1  0
  5  3  2  0
  6  1  1  0
  6  3  1  0
  7  1  1  0
  7  4  2  0
  8  2  2  0
  8  4  1  0
  9  2  1  0
 10  3  1  0
 11  4  1  0
M  END
>  <NAME>  (2631) 
ALLANTOIN

>  <SYNONYMS>  (2631) 


>  <SPECTRUM TYPE>  (2631) 
MS1

>  <INSTRUMENT TYPE>  (2631) 
EI-B

>  <INSTRUMENT>  (2631) 
HITACHI M-60

>  <ION MODE>  (2631) 
P

>  <INCHIKEY>  (2631) 
POJWUDADGALRAB-UHFFFAOYSA-N

>  <FORMULA>  (2631) 
C4H6N4O3

>  <EXACT MASS>  (2631) 
158.043990052

>  <MW>  (2631) 
158

>  <ID>  (2631) 
JP008299

>  <CONTRIBUTOR>  (2631) 
University of Tokyo Team, {Faculty of Engineering, University of Tokyo

>  <COMMENT>  (2631) 
SMILES=NC(=O)NC(N1)C(=O)NC(=O)1
InChI=InChI=1S/C4H6N4O3/c5-3(10)6-1-2(9)8-4(11)7-1/h1H,(H3,5,6,10)(H2,7,8,9,11)
computed SMILES=N=C(O)NC1N=C(O)N=C1O
accession=JP008299
date=2016.01.19 (Created 2008.10.21, modified 2011.05.06)
author=UBE SCIENTIFIC ANALYSIS LABORATORY
license=CC BY-NC-SA
exact mass=158.04399
ionization energy=70 eV
ion type=[M]+*
computed spectral entropy=2.5778082785909175
computed normalized entropy=0.7437982439771265
SPLASH=splash10-0006-9100000000-c9c0d8a7f1e5f105a9c3
submitter=submitter = University of Tokyo Team (Faculty of Engineering, University of Tokyo)
MoNA Rating=3.75

>  <NUM PEAKS>  (2631) 
32

>  <MASS SPECTRAL PEAKS>  (2631) 
16 13.17
17 47.01
27 4.14
29 13.5
30 4.51
41 1.23
42 7.76
43 35.77
44 99.99
45 7.24
55 3.72
56 0.99
57 0.97
60 29.47
70 6.42
71 2.42
72 1.51
73 1.18
74 1.42
87 29.76
88 1.4
98 1.66
99 1.39
100 3.04
113 1.26
114 4.69
115 9.91
130 25.95
131 0.86
140 0.99
141 3.35
158 1.75

>  <PREDICTED SPECTRUM>  (2631) 
14 14
15 30
16 32
17 81
18 122
25 9
26 44
27 95
28 211
29 94
30 187
31 23
33 49
34 41
36 128
37 59
38 177
39 111
40 344
41 554
42 968
43 954
44 999
45 504
46 268
47 192
48 90
49 35
51 66
52 78
53 333
54 358
55 381
56 308
57 485
58 317
59 231
60 196
61 63
63 39
64 3
65 35
67 142
68 383
69 768
70 414
71 326
72 201
73 383
74 129
75 47
80 19
82 78
83 193
84 186
85 266
86 294
87 119
88 184
89 123
90 123
91 31
96 117
97 204
98 145
99 131
100 181
101 61
102 48
105 25
110 19
111 196
112 343
113 597
114 706
115 267
116 222
125 59
126 46
130 444
131 278
132 109
140 273
141 153
142 2
143 70
157 39
158 338
159 72

$$$$

     RDKit          2D

 14 14  0  0  0  0  0  0  0  0999 V2000
    1.5590   -5.1000    0.0000 C   0  0  0  0  0  0  0  0  0  0  0  0
    1.5590   -3.6000    0.0000 C   0  0  0  0  0  0  0  0  0  0  0  0
    0.2600    1.6500    0.0000 C   0  0  0  0  0  0  0  0  0  0  0  0
    1.5600   -0.6000    0.0000 C   0  0  0  0  0  0  0  0  0  0  0  0
    2.8589    1.6502    0.0000 C   0  0  0  0  0  0  0  0  0  0  0  0
   -2.3389    1.6502    0.0000 C   0  0  0  0  0  0  0  0  0  0  0  0
    1.5600    0.9000    0.0000 C   0  0  0  0  0  0  0  0  0  0  0  0
   -1.0400    0.9000    0.0000 C   0  0  0  0  0  0  0  0  0  0  0  0
    0.2600   -1.3500    0.0000 C   0  0  0  0  0  0  0  0  0  0  0  0
   -1.0400   -0.6000    0.0000 C   0  0  0  0  0  0  0  0  0  0  0  0
    4.1581    0.9004    0.0000 O   0  0  0  0  0  0  0  0  0  0  0  0
   -3.6381    0.9004    0.0000 O   0  0  0  0  0  0  0  0  0  0  0  0
   -2.3389   -1.3502    0.0000 O   0  0  0  0  0  0  0  0  0  0  0  0
    0.2600   -2.8500    0.0000 O   0  0  0  0  0  0  0  0  0  0  0  0
  2  1  1  0
  7  3  2  0
  7  4  1  0
  7  5  1  0
  8  3  1  0
  8  6  1  0
  9  4  2  0
 10  8  2  0
 10  9  1  0
 11  5  2  0
 12  6  2  0
 13 10  1  0
 14  2  1  0
 14  9  1  0
M  END
>  <NAME>  (2632) 
2,4-DIFORMYL-6-ETHOXYPHENOL

>  <SYNONYMS>  (2632) 


>  <SPECTRUM TYPE>  (2632) 
MS1

>  <INSTRUMENT TYPE>  (2632) 
EI-B

>  <INSTRUMENT>  (2632) 
HITACHI M-60

>  <ION MODE>  (2632) 
P

>  <INCHIKEY>  (2632) 
WQWNVPGJVKVZDH-UHFFFAOYSA-N

>  <FORMULA>  (2632) 
C10H10O4

>  <EXACT MASS>  (2632) 
194.0579088

>  <MW>  (2632) 
194

>  <ID>  (2632) 
JP008298

>  <CONTRIBUTOR>  (2632) 
University of Tokyo Team, {Faculty of Engineering, University of Tokyo

>  <COMMENT>  (2632) 
SMILES=CCOc(c1)c(O)c(C=O)cc(C=O)1
InChI=InChI=1S/C10H10O4/c1-2-14-9-4-7(5-11)3-8(6-12)10(9)13/h3-6,13H,2H2,1H3
computed SMILES=O=CC=1C=C(OCC)C(O)=C(C=O)C1
accession=JP008298
date=2016.01.19 (Created 2008.10.21, modified 2011.05.06)
author=UBE SCIENTIFIC ANALYSIS LABORATORY
license=CC BY-NC-SA
exact mass=194.05791
ionization energy=70 eV
ion type=[M]+*
computed spectral entropy=3.148030956485133
computed normalized entropy=0.6835862366310546
SPLASH=splash10-014i-4900000000-b353b7eb701cd1085815
submitter=submitter = University of Tokyo Team (Faculty of Engineering, University of Tokyo)
MoNA Rating=3.75

>  <NUM PEAKS>  (2632) 
100

>  <MASS SPECTRAL PEAKS>  (2632) 
15 0.95
17 0.26
18 0.29
26 2.15
27 20.2
28 2.39
29 30.08
30 0.68
31 0.4
32 0.11
37 0.76
38 2.27
39 6.92
40 0.48
41 1.13
42 0.4
43 1.44
45 0.72
49 0.62
50 5.01
51 8.84
52 5.94
53 15.73
54 1.63
55 5.24
56 0.13
57 0.3
61 1.04
62 2.88
63 7.99
64 2.74
65 3.83
66 1.07
67 0.72
69 1.04
70 0.13
73 0.13
74 0.68
75 1.08
76 0.34
77 1.24
78 0.34
79 4
80 1.69
81 13.39
82 1.46
83 0.14
89 0.52
90 0.31
91 2.85
92 1.6
93 1.85
94 0.41
95 0.29
96 0.1
103 0.21
104 0.35
105 0.13
107 0.9
108 1.58
109 4.31
110 1.04
111 0.1
114 0.82
119 3.12
120 7.75
121 1.65
122 0.22
123 0.24
135 1.58
136 1.11
137 12.36
138 3.18
139 0.3
141 0.4
142 2.44
147 0.48
148 7.71
149 2.21
150 3.92
151 0.86
152 0.19
154 0.32
161 0.14
163 1.14
164 7.26
165 99.99
166 75.98
167 5.5
168 0.85
175 0.15
176 0.42
177 0.42
179 2.12
180 0.29
182 0.16
193 1.05
194 62.88
195 7.07
196 0.86

>  <PREDICTED SPECTRUM>  (2632) 
14 6
15 24
18 3
25 2
26 52
27 156
28 62
29 216
31 1
33 4
34 2
36 31
37 101
38 165
39 385
40 151
41 235
42 107
43 254
44 106
45 85
48 11
49 74
50 229
51 346
52 247
53 374
54 125
55 230
56 5
57 71
61 28
62 154
63 324
64 218
65 415
66 187
67 194
68 162
69 157
74 78
75 112
76 121
77 189
78 81
79 224
80 153
81 232
82 107
83 90
91 207
92 243
93 260
94 152
95 151
96 46
97 21
104 16
105 13
107 103
108 109
109 290
110 90
111 19
118 68
119 155
120 254
121 176
122 94
123 31
131 13
135 62
136 89
137 350
138 108
147 117
148 97
149 148
150 41
165 999
166 659
167 193
168 101
193 78
194 654
195 207
196 60

$$$$

     RDKit          2D

 14 14  0  0  0  0  0  0  0  0999 V2000
    2.5989    1.5002    0.0000 C   0  0  0  0  0  0  0  0  0  0  0  0
   -3.8981   -0.7504    0.0000 C   0  0  0  0  0  0  0  0  0  0  0  0
   -1.3000    0.7500    0.0000 C   0  0  0  0  0  0  0  0  0  0  0  0
    0.0000    3.0000    0.0000 C   0  0  0  0  0  0  0  0  0  0  0  0
    2.5989   -1.5002    0.0000 C   0  0  0  0  0  0  0  0  0  0  0  0
    1.3000    0.7500    0.0000 C   0  0  0  0  0  0  0  0  0  0  0  0
    0.0000    1.5000    0.0000 C   0  0  0  0  0  0  0  0  0  0  0  0
    1.3000   -0.7500    0.0000 C   0  0  0  0  0  0  0  0  0  0  0  0
   -1.3000   -0.7500    0.0000 C   0  0  0  0  0  0  0  0  0  0  0  0
   -0.0000   -1.5000    0.0000 C   0  0  0  0  0  0  0  0  0  0  0  0
   -1.2990    3.7500    0.0000 O   0  0  0  0  0  0  0  0  0  0  0  0
    2.5987   -3.0002    0.0000 O   0  0  0  0  0  0  0  0  0  0  0  0
   -0.0000   -3.0000    0.0000 O   0  0  0  0  0  0  0  0  0  0  0  0
   -2.5989   -1.5002    0.0000 O   0  0  0  0  0  0  0  0  0  0  0  0
  6  1  1  0
  7  3  2  0
  7  4  1  0
  7  6  1  0
  8  5  1  0
  8  6  2  0
  9  3  1  0
 10  8  1  0
 10  9  2  0
 11  4  2  0
 12  5  2  0
 13 10  1  0
 14  2  1  0
 14  9  1  0
M  END
>  <NAME>  (2633) 
2,4-DIFORMYL-3-METHYL-6-METHOXYPHENOL

>  <SYNONYMS>  (2633) 


>  <SPECTRUM TYPE>  (2633) 
MS1

>  <INSTRUMENT TYPE>  (2633) 
EI-B

>  <INSTRUMENT>  (2633) 
HITACHI M-60

>  <ION MODE>  (2633) 
P

>  <INCHIKEY>  (2633) 
VYOUKKOYZOVDCQ-UHFFFAOYSA-N

>  <FORMULA>  (2633) 
C10H10O4

>  <EXACT MASS>  (2633) 
194.0579088

>  <MW>  (2633) 
194

>  <ID>  (2633) 
JP008294

>  <CONTRIBUTOR>  (2633) 
University of Tokyo Team, {Faculty of Engineering, University of Tokyo

>  <COMMENT>  (2633) 
SMILES=O=Cc(c1)c(C)c(C=O)c(O)c(OC)1
InChI=InChI=1S/C10H10O4/c1-6-7(4-11)3-9(14-2)10(13)8(6)5-12/h3-5,13H,1-2H3
computed SMILES=O=CC1=CC(OC)=C(O)C(C=O)=C1C
accession=JP008294
date=2016.01.19 (Created 2008.10.21, modified 2011.05.06)
author=UBE SCIENTIFIC ANALYSIS LABORATORY
license=CC BY-NC-SA
exact mass=194.05791
ionization energy=70 eV
ion type=[M]+*
computed spectral entropy=3.7094240253342474
computed normalized entropy=0.8203444194985009
SPLASH=splash10-00kf-6900000000-10001fb900ad54f96201
submitter=submitter = University of Tokyo Team (Faculty of Engineering, University of Tokyo)
MoNA Rating=3.75

>  <NUM PEAKS>  (2633) 
92

>  <MASS SPECTRAL PEAKS>  (2633) 
15 4.33
18 2.34
27 6.32
28 3.99
29 7.38
38 3.27
39 22.06
40 4.58
41 11.56
43 6.89
44 0.56
50 5.88
51 15.27
52 4.95
53 8.82
55 9.94
61 0.63
62 2.94
63 6.22
64 1.71
65 9.35
66 8.38
67 11.57
68 0.97
69 2.31
74 1.45
75 2.38
76 1.36
77 15.01
78 4.2
79 5.57
80 0.88
81 2.11
83 0.57
89 2.43
90 3.45
91 4.05
92 1.91
93 3.24
94 7.74
95 10.27
96 0.58
97 0.83
105 6.34
106 2.2
107 2.49
108 0.63
109 1.44
117 0.49
118 2.65
119 1.67
120 3.45
121 3.01
122 6.94
123 27.77
124 2.25
133 3.31
134 2.85
135 2.29
136 2.28
137 6.44
138 0.67
141 1.4
142 1.24
143 1.01
146 0.35
147 1.08
148 3.67
149 2.94
150 9.2
151 15.91
152 1.58
161 0.45
162 1.62
163 1.09
164 1.98
165 17.83
166 44.42
167 4.78
168 0.45
175 0.8
177 1.21
178 0.99
179 6.53
180 0.62
191 0.24
193 15.06
194 99.99
195 11.71
196 1.33
219 0.27
315 0.21

>  <PREDICTED SPECTRUM>  (2633) 
15 9
25 4
26 32
27 101
28 24
29 145
30 7
36 6
37 61
38 123
39 301
40 116
41 171
42 36
43 131
44 61
49 36
50 234
51 376
52 236
53 362
54 89
55 232
61 48
62 166
63 262
64 163
65 298
66 198
67 261
68 103
69 183
70 1
74 108
75 110
76 121
77 366
78 198
79 250
80 136
81 82
82 13
83 25
84 13
89 4
90 92
91 139
92 197
93 188
94 184
95 335
96 7
97 22
102 60
104 20
105 191
106 115
107 190
108 99
109 45
110 1
111 20
119 81
120 174
121 161
122 262
123 458
124 98
125 60
133 93
134 98
135 197
136 148
137 227
138 24
147 63
148 200
149 172
150 235
151 338
152 46
163 59
164 48
165 610
166 541
167 192
168 23
177 17
178 46
179 107
193 673
194 999
195 348
196 82

$$$$

     RDKit          2D

 12 12  0  0  0  0  0  0  0  0999 V2000
   -2.3016    2.0506    0.0000 C   0  0  0  0  0  0  0  0  0  0  0  0
    4.2216   -0.2030    0.0000 C   0  0  0  0  0  0  0  0  0  0  0  0
    0.3186    2.0688    0.0000 C   0  0  0  0  0  0  0  0  0  0  0  0
    0.3072   -0.9515    0.0000 C   0  0  0  0  0  0  0  0  0  0  0  0
   -2.2740   -0.9607    0.0000 C   0  0  0  0  0  0  0  0  0  0  0  0
   -0.9978    1.3088    0.0000 C   0  0  0  0  0  0  0  0  0  0  0  0
   -0.9787   -0.2043    0.0000 C   0  0  0  0  0  0  0  0  0  0  0  0
    1.6367    1.3057    0.0000 C   0  0  0  0  0  0  0  0  0  0  0  0
    1.6236   -0.1915    0.0000 C   0  0  0  0  0  0  0  0  0  0  0  0
   -3.5767   -0.2172    0.0000 O   0  0  0  0  0  0  0  0  0  0  0  0
    2.9395    2.0492    0.0000 O   0  0  0  0  0  0  0  0  0  0  0  0
    2.9193   -0.9472    0.0000 O   0  0  0  0  0  0  0  0  0  0  0  0
  6  1  1  0
  6  3  2  0
  7  4  2  0
  7  5  1  0
  7  6  1  0
  8  3  1  0
  9  4  1  0
  9  8  2  0
 10  5  2  0
 11  8  1  0
 12  2  1  0
 12  9  1  0
M  END
>  <NAME>  (2634) 
2-METHOXY-4-FORMYL-5-METHYLPHENOL

>  <SYNONYMS>  (2634) 
4-HYDROXY-5-METHOXY-2-METHYLBENZALDHYDE

>  <SPECTRUM TYPE>  (2634) 
MS1

>  <INSTRUMENT TYPE>  (2634) 
EI-B

>  <INSTRUMENT>  (2634) 
HITACHI M-60

>  <ION MODE>  (2634) 
P

>  <INCHIKEY>  (2634) 
MNMCHJAOXXQRID-UHFFFAOYSA-N

>  <FORMULA>  (2634) 
C9H10O3

>  <EXACT MASS>  (2634) 
166.06299417999998

>  <MW>  (2634) 
166

>  <ID>  (2634) 
JP008293

>  <CONTRIBUTOR>  (2634) 
University of Tokyo Team, {Faculty of Engineering, University of Tokyo

>  <COMMENT>  (2634) 
SMILES=O=Cc(c1)c(C)cc(O)c(OC)1
InChI=InChI=1S/C9H10O3/c1-6-3-8(11)9(12-2)4-7(6)5-10/h3-5,11H,1-2H3
computed SMILES=O=CC1=CC(OC)=C(O)C=C1C
accession=JP008293
date=2016.01.19 (Created 2008.10.21, modified 2011.05.06)
author=UBE SCIENTIFIC ANALYSIS LABORATORY
license=CC BY-NC-SA
exact mass=166.06299
ionization energy=70 eV
ion type=[M]+*
computed spectral entropy=3.29776810638587
computed normalized entropy=0.7208691700704413
SPLASH=splash10-014i-5900000000-d5cb03e3ee918d28e0f7
submitter=submitter = University of Tokyo Team (Faculty of Engineering, University of Tokyo)
MoNA Rating=3.75

>  <NUM PEAKS>  (2634) 
97

>  <MASS SPECTRAL PEAKS>  (2634) 
14 0.49
15 3.53
17 0.11
26 0.74
27 5.26
28 0.79
29 4.31
31 0.9
32 0.14
37 1.14
38 3.14
39 17.63
40 4.16
41 8.15
42 0.74
43 2.95
44 0.3
45 0.15
46 0.14
47 0.51
48 0.31
49 0.42
50 4.45
51 9.95
52 3.3
53 8.67
54 0.83
55 10.48
56 0.36
57 0.25
61 1.01
62 2.99
63 4.21
64 1.45
65 8.03
66 9.26
67 9.16
68 0.87
69 1.08
73 1.42
74 0.98
75 1.24
76 0.85
77 10.32
78 2.57
79 3.25
80 0.47
81 1.18
82 0.41
83 3.88
84 0.56
85 0.28
86 0.2
87 0.12
89 0.41
90 0.31
91 1.56
92 0.49
93 3
94 8
95 12.84
96 0.87
100 1.9
105 1.24
106 1.33
107 1.44
108 0.68
109 2.26
110 0.24
114 3.6
117 0.11
119 0.33
120 0.22
121 1.21
122 10.19
123 21.52
124 1.79
125 0.2
133 0.29
134 0.55
135 1.06
136 1.31
137 32.57
138 3.13
139 0.38
141 0.12
149 0.4
150 1.81
151 14.63
152 1.28
153 0.13
163 0.28
164 4.82
165 77.21
166 99.99
167 9.05
168 1.22

>  <PREDICTED SPECTRUM>  (2634) 
14 8
15 19
26 29
27 67
28 20
29 50
32 3
37 32
38 73
39 186
40 69
41 160
42 71
43 173
44 23
45 15
49 53
50 192
51 294
52 218
53 307
54 104
55 204
59 4
61 44
62 116
63 167
64 114
65 244
66 168
67 229
68 67
69 179
70 28
73 4
74 91
75 63
76 77
77 314
78 163
79 238
80 142
81 75
82 26
83 39
89 62
90 17
91 109
92 96
93 162
94 166
95 346
96 105
97 36
104 36
105 159
106 110
107 153
108 131
109 140
119 111
120 160
121 129
122 207
123 364
124 109
125 1
133 86
134 97
135 188
136 117
137 323
138 86
139 13
148 29
149 77
150 121
151 348
152 93
163 62
164 151
165 946
166 999
167 320
168 58

$$$$

     RDKit          2D

 10 10  0  0  0  0  0  0  0  0999 V2000
    2.9576    2.0449    0.0000 C   0  0  0  0  0  0  0  0  0  0  0  0
   -3.5376   -0.2051    0.0000 C   0  0  0  0  0  0  0  0  0  0  0  0
    0.3590    2.0458    0.0000 C   0  0  0  0  0  0  0  0  0  0  0  0
   -0.9400    1.2958    0.0000 C   0  0  0  0  0  0  0  0  0  0  0  0
    1.6590   -0.2059    0.0000 C   0  0  0  0  0  0  0  0  0  0  0  0
    1.6585    1.2949    0.0000 C   0  0  0  0  0  0  0  0  0  0  0  0
    0.3600   -0.9559    0.0000 C   0  0  0  0  0  0  0  0  0  0  0  0
   -0.9395   -0.2051    0.0000 C   0  0  0  0  0  0  0  0  0  0  0  0
    0.3597   -2.4559    0.0000 O   0  0  0  0  0  0  0  0  0  0  0  0
   -2.2386   -0.9551    0.0000 O   0  0  0  0  0  0  0  0  0  0  0  0
  4  3  2  0
  6  1  1  0
  6  3  1  0
  6  5  2  0
  7  5  1  0
  8  4  1  0
  8  7  2  0
  9  7  1  0
 10  2  1  0
 10  8  1  0
M  END
>  <NAME>  (2635) 
2-METHOXY-5-METHYLPHENOL

>  <SYNONYMS>  (2635) 


>  <SPECTRUM TYPE>  (2635) 
MS1

>  <INSTRUMENT TYPE>  (2635) 
EI-B

>  <INSTRUMENT>  (2635) 
HITACHI M-60

>  <ION MODE>  (2635) 
P

>  <INCHIKEY>  (2635) 
IFNDEOYXGHGERA-UHFFFAOYSA-N

>  <FORMULA>  (2635) 
C8H10O2

>  <EXACT MASS>  (2635) 
138.06807956

>  <MW>  (2635) 
138

>  <ID>  (2635) 
JP008292

>  <CONTRIBUTOR>  (2635) 
University of Tokyo Team, {Faculty of Engineering, University of Tokyo

>  <COMMENT>  (2635) 
SMILES=COc(c1)c(O)cc(C)c1
InChI=InChI=1S/C8H10O2/c1-6-3-4-8(10-2)7(9)5-6/h3-5,9H,1-2H3
computed SMILES=OC1=CC(=CC=C1OC)C
accession=JP008292
date=2016.01.19 (Created 2008.10.21, modified 2011.05.06)
author=UBE SCIENTIFIC ANALYSIS LABORATORY
license=CC BY-NC-SA
exact mass=138.06808
ionization energy=70 eV
ion type=[M]+*
computed spectral entropy=2.664306665078183
computed normalized entropy=0.6920011752003535
SPLASH=splash10-0079-6900000000-133349feb1115820e385
submitter=submitter = University of Tokyo Team (Faculty of Engineering, University of Tokyo)
MoNA Rating=3.75

>  <NUM PEAKS>  (2635) 
47

>  <MASS SPECTRAL PEAKS>  (2635) 
15 2.38
18 1.06
27 5.22
29 1.79
31 1.41
32 0.32
38 2.3
39 13.26
40 3.96
41 10.13
43 2.31
50 3.13
51 6.52
52 2.99
53 5.24
55 13.98
62 0.93
63 2.64
65 5.91
66 5.85
67 14.1
68 0.62
69 1.25
77 10.19
78 3.56
79 2.22
81 0.67
91 1.41
94 4.34
95 22.3
96 1.47
105 0.33
106 1.07
107 1.59
109 1.44
110 0.81
121 0.45
122 2.11
123 99.99
124 8.46
125 0.66
137 5.05
138 92.01
139 8.65
140 0.72
167 0.24
219 0.15

>  <PREDICTED SPECTRUM>  (2635) 
14 1
15 33
26 37
27 120
28 10
29 66
37 15
38 83
39 290
40 107
41 198
42 73
49 24
50 173
51 346
52 253
53 315
54 69
55 226
59 25
61 42
62 78
63 171
64 71
65 313
66 194
67 320
68 77
69 100
75 55
76 20
77 478
78 244
79 319
80 129
81 65
82 30
89 55
91 220
92 78
93 187
94 202
95 651
96 161
97 9
105 190
106 58
107 228
108 114
109 180
110 17
111 51
121 124
122 47
123 981
124 304
125 69
137 166
138 999
139 327
140 33

$$$$

     RDKit          2D

 30 33  0  0  1  0  0  0  0  0999 V2000
    9.5655    7.2342    0.0000 C   0  0  0  0  0  0  0  0  0  0  0  0
   10.0746    4.6865    0.0000 C   0  0  0  0  0  0  0  0  0  0  0  0
    8.1228    2.9718    0.0000 C   0  0  0  0  0  0  0  0  0  0  0  0
    3.2009    4.6377    0.0000 C   0  0  0  0  0  0  0  0  0  0  0  0
   -1.6125    0.9400    0.0000 C   0  0  0  0  0  0  0  0  0  0  0  0
    2.4507    3.1203    0.0000 C   0  0  0  0  0  0  0  0  0  0  0  0
    8.0946    6.9403    0.0000 C   0  0  0  0  0  0  0  0  0  0  0  0
    5.6618    3.8047    0.0000 C   0  0  0  0  0  0  0  0  0  0  0  0
    6.1427    5.2256    0.0000 C   0  0  0  0  0  0  0  0  0  0  0  0
   -0.3200   -2.8400    0.0000 C   0  0  0  0  0  0  0  0  0  0  0  0
    1.0100   -2.0900    0.0000 C   0  0  0  0  0  0  0  0  0  0  0  0
    4.5500    0.8800    0.0000 C   0  0  0  0  0  0  0  0  0  0  0  0
    3.7100   -0.3100    0.0000 C   0  0  0  0  0  0  0  0  0  0  0  0
   -4.2000   -0.5600    0.0000 C   0  0  0  0  0  0  0  0  0  0  0  0
   -0.3200    1.6300    0.0000 C   0  0  0  0  0  0  0  0  0  0  0  0
   -2.8900    0.1600    0.0000 C   0  0  0  0  0  0  0  0  0  0  0  0
    1.0100    2.3900    0.0000 C   0  0  0  0  0  0  0  0  0  0  0  0
   -2.8900   -2.8400    0.0000 C   0  0  0  0  0  0  0  0  0  0  0  0
    8.6037    4.3926    0.0000 C   0  0  0  0  0  0  0  0  0  0  0  0
    4.1909    3.5108    0.0000 C   0  0  0  0  0  0  0  0  0  0  0  0
    7.6137    5.5195    0.0000 C   0  0  0  0  0  0  0  0  0  0  0  0
   -1.6200   -2.0900    0.0000 C   0  0  0  0  0  0  0  0  0  0  0  0
   -4.2000   -2.0900    0.0000 C   0  0  0  0  0  0  0  0  0  0  0  0
    1.0100   -0.5600    0.0000 C   0  0  0  0  0  0  0  0  0  0  0  0
    3.7100    2.0900    0.0000 C   0  0  0  0  0  0  0  0  0  0  0  0
    2.2800    0.1600    0.0000 C   0  0  0  0  0  0  0  0  0  0  0  0
   -0.3200    0.1600    0.0000 C   0  0  0  0  0  0  0  0  0  0  0  0
   -1.6200   -0.5600    0.0000 C   0  0  0  0  0  0  0  0  0  0  0  0
    2.2800    1.6300    0.0000 C   0  0  0  0  0  0  0  0  0  0  0  0
   -5.4977   -2.8424    0.0000 O   0  0  0  0  0  0  0  0  0  0  0  0
  7  1  1  0
  8  9  2  0
 11 10  1  0
 13 12  1  0
 16 14  1  0
 17 15  1  0
 19  2  1  0
 19  3  1  0
 20  4  1  6
 20  8  1  0
 21  7  1  1
 21  9  1  0
 21 19  1  0
 22 10  2  0
 22 18  1  0
 23 14  1  0
 23 18  1  0
 24 11  1  6
 25 12  1  1
 25 20  1  0
 26 13  1  1
 26 24  1  0
 27 15  1  1
 27 24  1  0
 28  5  1  1
 28 16  1  0
 28 22  1  0
 28 27  1  0
 29  6  1  1
 29 17  1  0
 29 25  1  0
 29 26  1  0
 23 30  1  1
M  END
>  <NAME>  (2636) 
STIGMASTEROL

>  <SYNONYMS>  (2636) 


>  <SPECTRUM TYPE>  (2636) 
MS1

>  <INSTRUMENT TYPE>  (2636) 
EI-B

>  <INSTRUMENT>  (2636) 
HITACHI M-60

>  <ION MODE>  (2636) 
P

>  <INCHIKEY>  (2636) 
HCXVJBMSMIARIN-PHZDYDNGSA-N

>  <FORMULA>  (2636) 
C29H48O

>  <EXACT MASS>  (2636) 
412.37051615599995

>  <MW>  (2636) 
412

>  <ID>  (2636) 
JP008291

>  <CONTRIBUTOR>  (2636) 
University of Tokyo Team, {Faculty of Engineering, University of Tokyo

>  <COMMENT>  (2636) 
SMILES=CC(C4([H])C(C=CC([H])(CC)C(C)C)([H])C)(C([H])1CC4)CCC(C3(C)2)(C([H])(CC=C2CC([H])(O)CC3)1)[H]
InChI=InChI=1S/C29H48O/c1-7-21(19(2)3)9-8-20(4)25-12-13-26-24-11-10-22-18-23(30)14-16-28(22,5)27(24)15-17-29(25,26)6/h8-10,19-21,23-27,30H,7,11-18H2,1-6H3/b9-8+/t20-,21-,23+,24+,25-,26+,27+,28+,29-/m1/s1
computed SMILES=OC1CC2=CCC3C(CCC4(C)C(CCC34)C(C=CC(CC)C(C)C)C)C2(C)CC1
accession=JP008291
date=2016.01.19 (Created 2008.10.21, modified 2011.05.06)
author=UBE SCIENTIFIC ANALYSIS LABORATORY
license=CC BY-NC-SA
exact mass=412.37052
ionization energy=70 eV
ion type=[M]+*
computed spectral entropy=4.425157077497964
computed normalized entropy=0.8697932748423993
SPLASH=splash10-0a59-9731000000-168578ccead65322e450
submitter=submitter = University of Tokyo Team (Faculty of Engineering, University of Tokyo)
MoNA Rating=3.75

>  <NUM PEAKS>  (2636) 
162

>  <MASS SPECTRAL PEAKS>  (2636) 
29 8.12
41 32.68
43 38.7
53 3.08
55 99.99
57 20.58
67 23.89
68 2.75
69 51.77
70 4.61
71 13.54
77 5.94
79 23.39
80 3.27
81 58.73
82 12.16
83 72.24
84 6.66
85 7.04
91 22.11
92 4.15
93 27.5
94 7.47
95 32.47
96 7.99
97 42.33
98 2.87
105 25.71
106 4.17
107 30.29
108 5.17
109 20.12
110 6.51
111 4.28
117 6.54
118 2.35
119 19.23
120 8.49
121 17.86
122 4.51
123 23.31
124 5.57
125 2.27
129 4.12
130 1.77
131 11.17
132 2.97
133 27.55
134 5.13
135 15.42
136 1.29
137 11.57
138 1.97
139 8.99
143 6.58
144 2.55
145 25.66
146 5.29
147 21.48
148 2.91
149 9
151 12.34
157 6.97
158 6.21
159 28.22
160 6.42
161 14.53
162 2.87
163 11.36
164 1.46
165 1.49
166 3.6
171 4.04
172 0.9
173 9.79
174 2.15
175 7.56
176 3.05
177 5.5
178 2.1
185 5.56
186 0.92
187 6.24
188 0.87
189 3.43
191 2.44
197 1.2
199 7.46
200 0.74
201 3.35
203 2.72
205 1.62
211 3.25
213 15.48
214 3.62
215 7.68
216 0.74
217 4.51
219 0.7
225 1.17
227 3.74
228 2.67
229 6.83
230 2.37
231 6.01
232 1.01
233 0.55
239 2.58
240 1
241 3.82
243 1.97
245 2.34
246 1.43
253 4.62
254 2.28
255 36.71
256 8.14
257 3.05
258 6.01
259 1.68
267 3.13
268 0.14
269 1.75
270 4.71
271 24.41
272 11
273 10.91
274 1.39
281 3.2
282 2.46
283 4.68
285 3.9
286 0.69
299 4.75
300 15.96
301 6.18
302 0.98
303 1.19
309 1.25
313 0.68
314 5.02
315 1.51
327 0.97
329 0.67
351 11.49
352 5.58
353 0.27
367 0.9
369 11.67
370 2.11
379 2.93
380 0.45
394 3.63
395 0.6
396 1.22
397 3.36
398 0.97
399 0.44
400 0.75
412 27.72
413 9.01
414 3.59

>  <PREDICTED SPECTRUM>  (2636) 
41 478
42 98
43 604
44 119
45 31
50 1
51 11
53 225
54 92
55 999
56 222
57 611
58 81
59 43
65 81
66 35
67 668
68 282
69 973
70 404
71 452
77 320
78 87
79 526
80 212
81 865
82 433
83 950
84 298
85 228
91 535
92 254
93 643
94 372
95 900
96 466
97 690
98 201
99 54
104 19
105 593
106 220
107 710
108 249
109 707
110 354
111 454
112 78
113 4
115 36
117 235
118 72
119 487
120 259
121 639
122 355
123 603
124 281
125 46
126 32
128 3
129 66
130 56
131 418
132 237
133 592
134 334
135 570
136 242
137 332
138 289
139 232
140 70
143 305
144 80
145 495
146 224
147 625
148 310
149 587
150 187
151 381
152 95
153 0
155 16
156 6
157 236
158 121
159 534
160 279
161 598
162 238
163 423
164 29
165 82
166 109
167 13
168 9
169 37
171 317
172 9
173 390
174 162
175 432
176 259
177 284
178 131
179 70
181 18
182 3
185 250
186 36
187 377
188 71
189 292
190 113
191 152
192 1
197 47
199 341
200 46
201 340
202 95
203 272
205 19
213 509
214 248
215 314
216 85
217 279
225 84
227 162
228 225
229 485
230 318
231 352
232 217
233 27
239 123
240 19
241 159
243 203
244 51
245 287
246 222
247 44
253 276
254 217
255 929
256 430
257 281
258 329
259 156
267 52
269 56
270 153
271 962
272 576
273 667
274 260
281 85
282 238
283 246
284 39
285 367
286 96
298 9
299 412
300 633
301 464
302 115
309 0
314 123
327 24
341 9
342 58
351 523
352 243
369 505
370 152
379 222
394 292
395 48
397 275
398 49
410 80
411 16
412 868
413 507
414 23

$$$$

     RDKit          2D

 30 33  0  0  1  0  0  0  0  0999 V2000
    9.5655    7.2342    0.0000 C   0  0  0  0  0  0  0  0  0  0  0  0
   10.0746    4.6865    0.0000 C   0  0  0  0  0  0  0  0  0  0  0  0
    8.1228    2.9718    0.0000 C   0  0  0  0  0  0  0  0  0  0  0  0
    3.2009    4.6377    0.0000 C   0  0  0  0  0  0  0  0  0  0  0  0
   -1.6125    0.9400    0.0000 C   0  0  0  0  0  0  0  0  0  0  0  0
    2.4507    3.1203    0.0000 C   0  0  0  0  0  0  0  0  0  0  0  0
    8.0946    6.9403    0.0000 C   0  0  0  0  0  0  0  0  0  0  0  0
    5.6618    3.8047    0.0000 C   0  0  0  0  0  0  0  0  0  0  0  0
    6.1427    5.2256    0.0000 C   0  0  0  0  0  0  0  0  0  0  0  0
   -0.3200   -2.8400    0.0000 C   0  0  0  0  0  0  0  0  0  0  0  0
    1.0100   -2.0900    0.0000 C   0  0  0  0  0  0  0  0  0  0  0  0
    4.5500    0.8800    0.0000 C   0  0  0  0  0  0  0  0  0  0  0  0
    3.7100   -0.3100    0.0000 C   0  0  0  0  0  0  0  0  0  0  0  0
   -4.2000   -0.5600    0.0000 C   0  0  0  0  0  0  0  0  0  0  0  0
   -0.3200    1.6300    0.0000 C   0  0  0  0  0  0  0  0  0  0  0  0
   -2.8900    0.1600    0.0000 C   0  0  0  0  0  0  0  0  0  0  0  0
    1.0100    2.3900    0.0000 C   0  0  0  0  0  0  0  0  0  0  0  0
   -2.8900   -2.8400    0.0000 C   0  0  0  0  0  0  0  0  0  0  0  0
    8.6037    4.3926    0.0000 C   0  0  0  0  0  0  0  0  0  0  0  0
    4.1909    3.5108    0.0000 C   0  0  0  0  0  0  0  0  0  0  0  0
    7.6137    5.5195    0.0000 C   0  0  0  0  0  0  0  0  0  0  0  0
   -1.6200   -2.0900    0.0000 C   0  0  0  0  0  0  0  0  0  0  0  0
   -4.2000   -2.0900    0.0000 C   0  0  0  0  0  0  0  0  0  0  0  0
    1.0100   -0.5600    0.0000 C   0  0  0  0  0  0  0  0  0  0  0  0
    3.7100    2.0900    0.0000 C   0  0  0  0  0  0  0  0  0  0  0  0
    2.2800    0.1600    0.0000 C   0  0  0  0  0  0  0  0  0  0  0  0
   -0.3200    0.1600    0.0000 C   0  0  0  0  0  0  0  0  0  0  0  0
   -1.6200   -0.5600    0.0000 C   0  0  0  0  0  0  0  0  0  0  0  0
    2.2800    1.6300    0.0000 C   0  0  0  0  0  0  0  0  0  0  0  0
   -5.4977   -2.8424    0.0000 O   0  0  0  0  0  0  0  0  0  0  0  0
  7  1  1  0
  8  9  2  0
 11 10  1  0
 13 12  1  0
 16 14  1  0
 17 15  1  0
 19  2  1  0
 19  3  1  0
 20  4  1  6
 20  8  1  0
 21  7  1  1
 21  9  1  0
 21 19  1  0
 22 10  2  0
 22 18  1  0
 23 14  1  0
 23 18  1  0
 24 11  1  6
 25 12  1  1
 25 20  1  0
 26 13  1  1
 26 24  1  0
 27 15  1  1
 27 24  1  0
 28  5  1  1
 28 16  1  0
 28 22  1  0
 28 27  1  0
 29  6  1  1
 29 17  1  0
 29 25  1  0
 29 26  1  0
 30 23  2  0
M  END
>  <NAME>  (2637) 
STIGMASTERONE

>  <SYNONYMS>  (2637) 


>  <SPECTRUM TYPE>  (2637) 
MS1

>  <INSTRUMENT TYPE>  (2637) 
EI-B

>  <INSTRUMENT>  (2637) 
HITACHI M-60

>  <ION MODE>  (2637) 
P

>  <INCHIKEY>  (2637) 
XWDAKKDQJHVMKG-LPJPOILFSA-N

>  <FORMULA>  (2637) 
C29H46O

>  <EXACT MASS>  (2637) 
410.35486609199995

>  <MW>  (2637) 
410

>  <ID>  (2637) 
JP008290

>  <CONTRIBUTOR>  (2637) 
University of Tokyo Team, {Faculty of Engineering, University of Tokyo

>  <COMMENT>  (2637) 
SMILES=CC(C4([H])C(C=CC([H])(CC)C(C)C)([H])C)(C([H])3CC4)CCC(C([H])23)([H])C(C)(C1=CC2)CCC(C1)=O
InChI=InChI=1S/C29H46O/c1-7-21(19(2)3)9-8-20(4)25-12-13-26-24-11-10-22-18-23(30)14-16-28(22,5)27(24)15-17-29(25,26)6/h8-10,19-21,24-27H,7,11-18H2,1-6H3/b9-8+/t20-,21-,24+,25-,26+,27+,28+,29-/m1/s1
computed SMILES=O=C1CC2=CCC3C(CCC4(C)C(CCC34)C(C=CC(CC)C(C)C)C)C2(C)CC1
accession=JP008290
date=2016.01.19 (Created 2008.10.21, modified 2011.05.06)
author=UBE SCIENTIFIC ANALYSIS LABORATORY
license=CC BY-NC-SA
exact mass=410.35487
ionization energy=70 eV
ion type=[M]+*
computed spectral entropy=4.4014270621543226
computed normalized entropy=0.8856322756691544
SPLASH=splash10-060v-9741000000-5544f165344ed92e3610
submitter=submitter = University of Tokyo Team (Faculty of Engineering, University of Tokyo)
MoNA Rating=3.75

>  <NUM PEAKS>  (2637) 
144

>  <MASS SPECTRAL PEAKS>  (2637) 
29 12.87
41 41.31
43 48.89
53 3.85
55 99.99
56 3.43
57 23.16
67 25.61
68 3.08
69 56.28
70 2.77
71 12.81
77 9.13
79 23.72
80 3.74
81 55.86
82 9.66
83 44.94
84 6.25
85 5.52
91 18.11
92 2.1
93 29.24
94 7.78
95 39.02
96 9.29
97 42.08
98 3
105 20.4
106 4.27
107 24.21
108 6.4
109 24.32
110 4.25
111 8.64
117 4.25
119 14.11
120 5.73
121 21.58
122 11.47
123 32.37
124 56.11
125 7.95
129 2.16
131 8.34
132 1.81
133 16.07
134 6.19
135 21.29
136 5.87
137 17.05
138 2.77
139 2.1
143 2.84
145 9.85
146 3.23
147 25.38
148 11.04
149 24.15
150 2.87
151 4.15
157 4.16
159 8.97
160 2.31
161 13.96
162 3.11
163 7.66
165 1.52
166 2.23
171 2.75
173 7.41
174 3.9
175 10.64
176 2.73
177 5.37
185 3.51
187 7.09
188 1.03
189 4.07
191 2.14
197 1.46
199 1.43
201 5.79
202 1.71
203 5.6
211 2.82
213 3.31
215 6.16
217 2.87
225 1.73
227 5.16
228 1.55
229 24.06
230 6.77
231 7.06
241 1.04
243 8.56
244 4.32
245 19
246 3.44
247 1.48
253 12.59
254 2.61
255 4.02
256 7.21
257 7.68
258 1.32
260 4.98
261 8.01
262 1
268 6.32
269 28.05
270 16.54
271 47.91
272 12.06
273 2.2
281 3.41
283 6.45
284 1.47
285 2.44
286 0.96
297 10.59
298 18.66
299 11.31
300 3.23
311 0.46
312 5.67
313 4.19
327 2.23
342 5.3
343 0.72
349 2.88
367 17.61
368 8.45
369 2.43
370 0.67
381 1.03
384 13.86
385 2.45
395 0.9
396 0.64
410 20.04
411 6.54
412 3.48

>  <PREDICTED SPECTRUM>  (2637) 
28 15
40 16
41 476
42 156
43 702
44 98
49 1
51 2
53 224
54 113
55 999
56 229
57 539
58 58
59 20
60 2
65 100
66 80
67 580
68 278
69 856
70 248
71 352
77 280
78 96
79 521
80 237
81 774
82 419
83 826
84 337
85 259
86 4
91 453
92 160
93 528
94 301
95 706
96 409
97 659
98 137
99 125
103 49
105 523
106 165
107 589
108 263
109 598
110 411
111 410
112 78
113 27
115 110
116 33
117 228
118 124
119 361
120 140
121 558
122 473
123 684
124 492
125 165
127 16
128 30
129 105
130 87
131 346
132 112
133 441
134 252
135 521
136 358
137 494
138 347
139 169
140 35
141 41
142 22
143 194
144 85
145 342
146 158
147 463
148 236
149 579
150 180
151 293
152 38
153 25
154 3
155 82
157 195
158 111
159 357
160 162
161 436
162 228
163 417
164 100
165 71
166 216
169 32
171 270
172 16
173 310
174 140
175 491
176 196
177 277
178 67
179 39
180 28
183 56
185 118
186 19
187 219
188 94
189 305
190 76
191 260
197 80
199 190
200 39
201 248
202 83
203 232
205 54
211 93
212 12
213 232
214 31
215 238
216 46
217 196
225 140
227 183
228 94
229 386
230 236
231 247
241 116
242 94
243 301
244 160
245 441
246 188
247 1
253 271
254 106
255 117
256 350
257 351
258 106
259 435
260 190
261 92
267 16
268 176
269 735
270 602
271 825
272 424
273 274
274 47
281 115
282 33
283 378
284 156
285 66
286 0
296 36
297 398
298 665
299 458
300 211
301 49
311 98
312 369
313 156
314 31
325 16
327 117
339 49
340 64
341 65
342 10
349 88
367 543
368 285
369 4
381 59
395 142
396 2
410 735
411 347
412 196

$$$$

     RDKit          2D

  6  6  0  0  0  0  0  0  0  0999 V2000
    2.6377   -0.8500    0.0000 C   0  0  0  0  0  0  0  0  0  0  0  0
   -1.2100   -0.3900    0.0000 C   0  0  0  0  0  0  0  0  0  0  0  0
   -0.7500    1.0300    0.0000 C   0  0  0  0  0  0  0  0  0  0  0  0
    1.2100   -0.3900    0.0000 C   0  0  0  0  0  0  0  0  0  0  0  0
    0.0000   -1.2800    0.0000 N   0  0  0  0  0  0  0  0  0  0  0  0
    0.7500    1.0300    0.0000 N   0  0  0  0  0  0  0  0  0  0  0  0
  3  2  1  0
  4  1  1  0
  5  2  1  0
  5  4  2  0
  6  3  1  0
  6  4  1  0
M  END
>  <NAME>  (2638) 
2-METHYLIMIDAZOLINE

>  <SYNONYMS>  (2638) 


>  <SPECTRUM TYPE>  (2638) 
MS1

>  <INSTRUMENT TYPE>  (2638) 
EI-B

>  <INSTRUMENT>  (2638) 
HITACHI M-60

>  <ION MODE>  (2638) 
P

>  <INCHIKEY>  (2638) 
VWSLLSXLURJCDF-UHFFFAOYSA-N

>  <FORMULA>  (2638) 
C4H8N2

>  <EXACT MASS>  (2638) 
84.06874825599999

>  <MW>  (2638) 
84

>  <ID>  (2638) 
JP008289

>  <CONTRIBUTOR>  (2638) 
University of Tokyo Team, {Faculty of Engineering, University of Tokyo

>  <COMMENT>  (2638) 
SMILES=CC(N1)=NCC1
cas=534-26-9
InChI=InChI=1S/C4H8N2/c1-4-5-2-3-6-4/h2-3H2,1H3,(H,5,6)
computed SMILES=N1=C(NCC1)C
accession=JP008289
date=2016.01.19 (Created 2008.10.21, modified 2011.05.06)
author=UBE SCIENTIFIC ANALYSIS LABORATORY
license=CC BY-NC-SA
exact mass=84.06875
ionization energy=70 eV
ion type=[M]+*
computed spectral entropy=2.1729439236602768
computed normalized entropy=0.7029809381296088
SPLASH=splash10-001l-9000000000-10bd955ad27bd211c586
submitter=submitter = University of Tokyo Team (Faculty of Engineering, University of Tokyo)
MoNA Rating=3.75

>  <NUM PEAKS>  (2638) 
22

>  <MASS SPECTRAL PEAKS>  (2638) 
15 10.77
27 2.15
28 6.48
29 2.26
30 99.99
31 12.82
41 2.28
42 10.41
43 67.64
44 19.69
45 5.16
54 1.95
55 7.98
58 3.89
59 3.18
60 3.32
72 0.71
73 25.42
74 0.82
83 2.21
84 3.33
85 1.47

>  <PREDICTED SPECTRUM>  (2638) 
14 25
15 50
16 2
26 58
27 155
28 285
29 191
30 139
38 21
39 4
40 170
41 280
42 620
43 269
44 34
52 42
53 111
54 291
55 712
56 460
57 108
69 60
83 690
84 999
85 236

$$$$

     RDKit          2D

 19 18  0  0  0  0  0  0  0  0999 V2000
    5.1962    9.0000    0.0000 C   0  0  0  0  0  0  0  0  0  0  0  0
    3.8971    9.7500    0.0000 C   0  0  0  0  0  0  0  0  0  0  0  0
   -6.4952    9.7500    0.0000 C   0  0  0  0  0  0  0  0  0  0  0  0
   -7.7942    9.0000    0.0000 C   0  0  0  0  0  0  0  0  0  0  0  0
   -5.1962    9.0000    0.0000 C   0  0  0  0  0  0  0  0  0  0  0  0
   -9.0933    9.7500    0.0000 C   0  0  0  0  0  0  0  0  0  0  0  0
   -3.8971    9.7500    0.0000 C   0  0  0  0  0  0  0  0  0  0  0  0
  -10.3923    9.0000    0.0000 C   0  0  0  0  0  0  0  0  0  0  0  0
   -2.5981    9.0000    0.0000 C   0  0  0  0  0  0  0  0  0  0  0  0
  -11.6913    9.7500    0.0000 C   0  0  0  0  0  0  0  0  0  0  0  0
   -1.2990    9.7500    0.0000 C   0  0  0  0  0  0  0  0  0  0  0  0
  -12.9904    9.0000    0.0000 C   0  0  0  0  0  0  0  0  0  0  0  0
    0.0000    9.0000    0.0000 C   0  0  0  0  0  0  0  0  0  0  0  0
  -14.2894    9.7500    0.0000 C   0  0  0  0  0  0  0  0  0  0  0  0
    1.2990    9.7500    0.0000 C   0  0  0  0  0  0  0  0  0  0  0  0
  -14.2894   11.2500    0.0000 O   0  0  0  0  0  0  0  0  0  0  0  0
  -15.5885    9.0000    0.0000 O   0  0  0  0  0  0  0  0  0  0  0  0
    1.2990   11.2500    0.0000 O   0  0  0  0  0  0  0  0  0  0  0  0
    2.5981    9.0000    0.0000 O   0  0  0  0  0  0  0  0  0  0  0  0
  2  1  2  0
  4  3  1  0
  5  3  1  0
  6  4  1  0
  7  5  1  0
  8  6  1  0
  9  7  1  0
 10  8  1  0
 11  9  1  0
 12 10  1  0
 13 11  1  0
 14 12  1  0
 15 13  1  0
 16 14  2  0
 17 14  1  0
 18 15  2  0
 19  2  1  0
 19 15  1  0
M  END
>  <NAME>  (2639) 
VINYL BRASSYLATE

>  <SYNONYMS>  (2639) 


>  <SPECTRUM TYPE>  (2639) 
MS1

>  <INSTRUMENT TYPE>  (2639) 
EI-B

>  <INSTRUMENT>  (2639) 
HITACHI M-60

>  <ION MODE>  (2639) 
P

>  <INCHIKEY>  (2639) 
SXFXZRUEZJONJH-UHFFFAOYSA-N

>  <FORMULA>  (2639) 
C15H26O4

>  <EXACT MASS>  (2639) 
270.183109312

>  <MW>  (2639) 
270

>  <ID>  (2639) 
JP008287

>  <CONTRIBUTOR>  (2639) 
University of Tokyo Team, {Faculty of Engineering, University of Tokyo

>  <COMMENT>  (2639) 
SMILES=C=COC(=O)CCCCCCCCCCCC(O)=O
InChI=InChI=1S/C15H26O4/c1-2-19-15(18)13-11-9-7-5-3-4-6-8-10-12-14(16)17/h2H,1,3-13H2,(H,16,17)
computed SMILES=O=C(O)CCCCCCCCCCCC(=O)OC=C
accession=JP008287
date=2016.01.19 (Created 2008.10.21, modified 2011.05.06)
author=UBE SCIENTIFIC ANALYSIS LABORATORY
license=CC BY-NC-SA
exact mass=270.18311
ionization energy=70 eV
ion type=[M]+*
computed spectral entropy=4.078586803507226
computed normalized entropy=0.8340072858950044
SPLASH=splash10-053e-9200000000-d428799b447eea4b0622
submitter=submitter = University of Tokyo Team (Faculty of Engineering, University of Tokyo)
MoNA Rating=3.75

>  <NUM PEAKS>  (2639) 
133

>  <MASS SPECTRAL PEAKS>  (2639) 
15 3.11
27 16.76
28 10.92
29 28.78
30 0.99
31 2.51
39 11.86
40 3.77
41 66.35
42 30.33
43 38.63
44 5.5
45 10.57
53 5.11
54 8.94
55 99.99
56 17.42
57 12.5
58 8.39
59 3.72
60 3.2
61 4.27
65 1.06
66 1.24
67 18.87
68 11.06
69 32.78
70 11.06
71 8.25
72 1.3
73 4.36
74 1.46
77 1.02
79 5.33
80 5.22
81 17.47
82 9.91
83 31.16
84 44.25
85 8.05
86 67.2
87 24.16
88 1.45
89 1.2
91 1.49
92 1.3
93 4.77
94 4.75
95 10.46
96 8.51
97 19.55
98 79.83
99 47.03
100 5.03
101 2.96
104 4.17
105 2.44
106 1.4
107 5.73
108 2.91
109 5.24
110 3.86
111 11.36
112 28.08
113 6.82
114 1.57
115 1.8
117 2.52
119 1.16
120 1.1
121 3.35
122 2.29
123 4.84
124 4.88
125 17.87
126 4.87
127 2.56
129 1.48
133 1.71
134 0.91
135 1.68
136 1.33
137 3.32
138 2.48
139 3.83
140 1.11
141 3.9
143 1.66
144 1.19
145 1.62
146 1.18
147 1.97
149 7.41
150 1.3
151 1.75
152 3.04
153 1.09
155 9.21
156 1.45
159 3.52
162 1.22
163 3.34
164 1.88
165 1.57
166 3.19
167 2.55
169 1.98
171 1.03
173 6.56
174 1.09
180 5.44
181 3.45
182 2.43
183 1.33
187 22.03
188 2.65
191 1.04
197 1.38
208 6.16
209 2.5
210 1.74
211 17.05
212 2.79
227 41.29
228 6.41
229 0.75
240 0.91
241 1.02
242 1.93
252 1.45
269 0.56
270 5.33
271 0.98

>  <PREDICTED SPECTRUM>  (2639) 
14 0
15 64
16 11
17 42
18 67
26 84
27 346
28 173
29 420
30 65
31 145
34 6
38 24
39 383
40 163
41 939
42 473
43 999
44 185
45 293
46 27
47 1
49 10
50 40
51 133
52 81
53 295
54 270
55 915
56 343
57 660
58 199
59 235
60 553
61 217
63 24
65 188
66 104
67 510
68 372
69 893
70 426
71 469
72 164
73 374
74 193
75 43
76 1
77 193
78 95
79 236
80 231
81 446
82 358
83 623
84 713
85 305
86 152
87 274
88 57
89 96
90 26
91 175
92 72
93 243
94 221
95 385
96 217
97 605
98 864
99 185
100 89
101 199
102 136
103 23
105 116
106 89
107 306
108 308
109 233
110 153
111 385
112 518
113 281
114 120
115 173
116 75
117 128
118 75
119 265
120 45
121 358
122 113
123 239
124 118
125 323
126 261
127 158
128 90
129 169
130 57
131 83
132 6
133 158
134 249
135 228
136 297
137 266
138 237
139 316
140 147
141 165
143 132
144 57
145 190
146 72
147 146
148 150
149 337
150 86
151 104
152 40
153 290
154 126
155 152
156 44
157 128
158 70
159 145
160 111
161 119
162 88
163 78
164 33
165 136
166 139
167 212
168 164
169 186
171 166
177 93
178 39
179 163
180 63
181 256
182 125
183 167
184 145
185 169
186 41
192 4
193 43
194 45
195 309
196 76
197 116
199 88
200 88
207 84
208 110
209 320
210 208
211 188
212 111
213 50
214 6
221 3
223 38
224 186
225 130
226 166
227 375
228 176
239 10
252 106
253 62
270 2

$$$$

     RDKit          2D

 11 10  0  0  0  0  0  0  0  0999 V2000
    2.5981    4.5000    0.0000 C   0  0  0  0  0  0  0  0  0  0  0  0
   -7.7942    4.5000    0.0000 C   0  0  0  0  0  0  0  0  0  0  0  0
   -2.5981    4.5000    0.0000 C   0  0  0  0  0  0  0  0  0  0  0  0
   -1.2990    5.2500    0.0000 C   0  0  0  0  0  0  0  0  0  0  0  0
   -3.8971    5.2500    0.0000 C   0  0  0  0  0  0  0  0  0  0  0  0
    0.0000    4.5000    0.0000 C   0  0  0  0  0  0  0  0  0  0  0  0
   -5.1962    4.5000    0.0000 C   0  0  0  0  0  0  0  0  0  0  0  0
    0.0000    3.0000    0.0000 O   0  0  0  0  0  0  0  0  0  0  0  0
   -5.1962    3.0000    0.0000 O   0  0  0  0  0  0  0  0  0  0  0  0
    1.2990    5.2500    0.0000 O   0  0  0  0  0  0  0  0  0  0  0  0
   -6.4952    5.2500    0.0000 O   0  0  0  0  0  0  0  0  0  0  0  0
  3  4  2  0
  5  3  1  0
  6  4  1  0
  7  5  1  0
  8  6  2  0
  9  7  2  0
 10  1  1  0
 10  6  1  0
 11  2  1  0
 11  7  1  0
M  END
>  <NAME>  (2640) 
DIMETHYL GLUTACONATE

>  <SYNONYMS>  (2640) 


>  <SPECTRUM TYPE>  (2640) 
MS1

>  <INSTRUMENT TYPE>  (2640) 
EI-B

>  <INSTRUMENT>  (2640) 
HITACHI M-60

>  <ION MODE>  (2640) 
P

>  <INCHIKEY>  (2640) 
SKCGFFOFYXLNCG-ONEGZZNKSA-N

>  <FORMULA>  (2640) 
C7H10O4

>  <EXACT MASS>  (2640) 
158.0579088

>  <MW>  (2640) 
158

>  <ID>  (2640) 
JP008285

>  <CONTRIBUTOR>  (2640) 
University of Tokyo Team, {Faculty of Engineering, University of Tokyo

>  <COMMENT>  (2640) 
SMILES=COC(=O)CC=CC(=O)OC
cas=5164-76-1
InChI=InChI=1S/C7H10O4/c1-10-6(8)4-3-5-7(9)11-2/h3-4H,5H2,1-2H3/b4-3+
computed SMILES=O=C(OC)C=CCC(=O)OC
accession=JP008285
date=2016.01.19 (Created 2008.10.21, modified 2011.05.06)
author=UBE SCIENTIFIC ANALYSIS LABORATORY
license=CC BY-NC-SA
exact mass=158.05791
ionization energy=70 eV
ion type=[M]+*
computed spectral entropy=3.218248331442716
computed normalized entropy=0.7959949350744698
SPLASH=splash10-0690-9200000000-c655d60149afc91458c7
submitter=submitter = University of Tokyo Team (Faculty of Engineering, University of Tokyo)
MoNA Rating=3.75

>  <NUM PEAKS>  (2640) 
57

>  <MASS SPECTRAL PEAKS>  (2640) 
14 2.12
15 92.9
26 2.65
27 9.67
28 3.24
29 23.05
30 1.79
31 3.66
37 2.72
38 8.81
39 49.74
40 28.25
41 35.55
42 6.81
43 5.05
44 0.71
45 9.68
48 1.44
49 0.83
53 7.32
54 4.9
55 27.72
56 3.19
57 1.69
58 0.97
59 99.99
60 3.07
67 9.68
68 15.79
69 40.64
70 2.5
71 18.51
72 2.6
74 1.11
77 2.03
81 1.56
82 4.8
83 10.07
84 1.27
85 1.83
87 1.03
95 3.81
98 5.59
99 49.59
100 4.42
101 2.39
113 18.07
114 1.42
115 0.94
126 45.58
127 65.27
128 5.81
129 1.08
130 8.23
143 5.64
158 7.66
159 0.74

>  <PREDICTED SPECTRUM>  (2640) 
14 26
15 105
16 6
25 40
26 173
27 347
28 194
29 261
30 62
31 174
32 46
33 81
35 23
36 53
37 131
38 195
39 590
40 305
41 471
42 237
43 230
44 160
45 310
49 48
51 79
52 124
53 202
54 195
55 415
56 206
57 382
58 145
59 817
60 104
61 56
62 10
63 37
66 148
67 654
68 412
69 330
70 99
71 229
72 129
73 53
74 44
82 15
83 261
84 173
85 208
86 37
87 39
94 187
95 250
96 169
97 179
98 461
99 895
100 249
101 82
111 72
113 98
114 53
115 105
116 14
126 999
127 731
128 236
129 121
130 89
131 69
143 23
158 149

$$$$

     RDKit          2D

  6  6  0  0  0  0  0  0  0  0999 V2000
   -1.2100    0.3900    0.0000 C   0  0  0  0  0  0  0  0  0  0  0  0
    0.0000    1.2800    0.0000 N   0  0  0  0  0  0  0  0  0  0  0  0
   -0.7500   -1.0300    0.0000 N   0  0  0  0  0  0  0  0  0  0  0  0
    1.2100    0.3900    0.0000 N   0  0  0  0  0  0  0  0  0  0  0  0
    0.7500   -1.0300    0.0000 N   0  0  0  0  0  0  0  0  0  0  0  0
   -2.6377    0.8500    0.0000 S   0  0  0  0  0  0  0  0  0  0  0  0
  2  1  2  0
  3  1  1  0
  4  2  1  0
  5  3  2  0
  5  4  1  0
  6  1  1  0
M  END
>  <NAME>  (2641) 
5-MERCAPTOTETRAZOLE

>  <SYNONYMS>  (2641) 


>  <SPECTRUM TYPE>  (2641) 
MS1

>  <INSTRUMENT TYPE>  (2641) 
EI-B

>  <INSTRUMENT>  (2641) 
HITACHI M-60

>  <ION MODE>  (2641) 
P

>  <INCHIKEY>  (2641) 
JAAIPIWKKXCNOC-UHFFFAOYSA-N

>  <FORMULA>  (2641) 
CH2N4S

>  <EXACT MASS>  (2641) 
102.00001706399999

>  <MW>  (2641) 
102

>  <ID>  (2641) 
JP008284

>  <CONTRIBUTOR>  (2641) 
University of Tokyo Team, {Faculty of Engineering, University of Tokyo

>  <COMMENT>  (2641) 
SMILES=C1(=S)NNN=N1
InChI=InChI=1S/CH2N4S/c6-1-2-4-5-3-1/h(H2,2,3,4,5,6)
computed SMILES=SC=1N=NNN1
accession=JP008284
date=2016.01.19 (Created 2008.10.21, modified 2011.05.06)
author=UBE SCIENTIFIC ANALYSIS LABORATORY
license=CC BY-NC-SA
exact mass=102.00002
ionization energy=70 eV
ion type=[M]+*
computed spectral entropy=3.0147889236359737
computed normalized entropy=0.7919769435135489
SPLASH=splash10-0006-9000000000-61d929f2c6774b9e1009
submitter=submitter = University of Tokyo Team (Faculty of Engineering, University of Tokyo)
MoNA Rating=3.75

>  <NUM PEAKS>  (2641) 
45

>  <MASS SPECTRAL PEAKS>  (2641) 
14 4.42
15 8.61
16 4.88
17 12.81
18 61.2
20 7.69
27 5.27
28 7.15
29 12.81
32 9.24
33 3.41
34 9.24
36 17.69
38 5.24
39 1.22
41 5.8
42 14.87
43 54.02
44 99.99
45 20.67
46 2
47 5.44
55 4.54
56 2.11
57 4.32
58 3.71
59 38.94
60 14.47
61 3.24
69 4.26
70 0.81
71 3.09
73 7.35
74 11.14
81 1.01
82 1.03
83 1.95
84 1.46
85 1.17
87 0.9
97 0.94
98 0.94
102 37.7
104 1.19
105 0.8

>  <PREDICTED SPECTRUM>  (2641) 
14 37
15 2
16 9
25 8
26 77
27 155
28 196
29 144
30 235
31 75
32 96
33 141
34 86
35 34
36 59
38 87
40 165
41 406
42 592
43 510
44 315
45 490
46 250
47 316
56 14
57 195
58 64
59 64
60 182
68 26
69 157
73 230
74 350
75 51
102 999
103 219
104 124

$$$$

     RDKit          2D

  7  7  0  0  0  0  0  0  0  0999 V2000
    1.6182    1.6093    0.0000 C   0  0  0  0  0  0  0  0  0  0  0  0
   -0.9217    1.0628    0.0000 C   0  0  0  0  0  0  0  0  0  0  0  0
   -0.7560   -0.4300    0.0000 N   0  0  0  0  0  0  0  0  0  0  0  0
   -2.3815    1.3745    0.0000 N   0  0  0  0  0  0  0  0  0  0  0  0
   -2.1317   -1.0329    0.0000 N   0  0  0  0  0  0  0  0  0  0  0  0
   -3.1315    0.0754    0.0000 N   0  0  0  0  0  0  0  0  0  0  0  0
    0.1905    2.0693    0.0000 S   0  0  0  0  0  0  0  0  0  0  0  0
  3  2  2  0
  4  2  1  0
  5  3  1  0
  6  4  2  0
  6  5  1  0
  7  1  1  0
  7  2  1  0
M  END
>  <NAME>  (2642) 
5-METHYLMERCAPTOTETRAZOLE

>  <SYNONYMS>  (2642) 


>  <SPECTRUM TYPE>  (2642) 
MS1

>  <INSTRUMENT TYPE>  (2642) 
EI-B

>  <INSTRUMENT>  (2642) 
HITACHI M-60

>  <ION MODE>  (2642) 
P

>  <INCHIKEY>  (2642) 
ZBXNFTFKKOSPLD-UHFFFAOYSA-N

>  <FORMULA>  (2642) 
C2H4N4S

>  <EXACT MASS>  (2642) 
116.01566712799999

>  <MW>  (2642) 
116

>  <ID>  (2642) 
JP008281

>  <CONTRIBUTOR>  (2642) 
University of Tokyo Team, {Faculty of Engineering, University of Tokyo

>  <COMMENT>  (2642) 
SMILES=CSC1=NNN=N1
InChI=InChI=1S/C2H4N4S/c1-7-2-3-5-6-4-2/h1H3,(H,3,4,5,6)
computed SMILES=N1=NC(=NN1)SC
accession=JP008281
date=2016.01.19 (Created 2008.10.21, modified 2011.05.06)
author=UBE SCIENTIFIC ANALYSIS LABORATORY
license=CC BY-NC-SA
exact mass=116.01567
ionization energy=70 eV
ion type=[M]+*
computed spectral entropy=2.903126398804452
computed normalized entropy=0.8039857091845474
SPLASH=splash10-00kb-9100000000-60f75717223b102fa8b5
submitter=submitter = University of Tokyo Team (Faculty of Engineering, University of Tokyo)
MoNA Rating=3.75

>  <NUM PEAKS>  (2642) 
37

>  <MASS SPECTRAL PEAKS>  (2642) 
13 3.11
14 7.99
15 26.4
16 2.83
29 46.25
32 4.91
33 1.88
34 1.64
41 8.74
42 4.79
43 7.96
44 21.99
45 88.73
46 36.89
47 27.3
48 11.46
55 1.56
56 1.76
57 7.71
58 33.03
59 22.16
60 4.19
61 4.99
69 19.62
70 1.07
71 1.05
72 3.19
73 53.24
74 5.76
75 2.28
87 2.04
88 49.26
89 1.64
90 2.05
116 99.99
117 6.95
118 3.92

>  <PREDICTED SPECTRUM>  (2642) 
14 23
28 52
29 35
30 197
31 26
32 64
33 92
34 2
41 185
42 249
43 295
44 203
45 622
46 622
47 481
48 205
53 4
55 43
57 32
58 72
59 156
60 23
61 49
69 0
70 104
71 18
72 323
73 276
74 5
83 120
87 182
88 610
89 103
90 124
116 999
117 157
118 169

$$$$

     RDKit          2D

 18 17  0  0  0  0  0  0  0  0999 V2000
    2.9228    7.6875    0.0000 C   0  0  0  0  0  0  0  0  0  0  0  0
  -11.3666    8.4375    0.0000 C   0  0  0  0  0  0  0  0  0  0  0  0
   -7.4695    1.6875    0.0000 C   0  0  0  0  0  0  0  0  0  0  0  0
    1.6238    8.4375    0.0000 C   0  0  0  0  0  0  0  0  0  0  0  0
  -10.0675    7.6875    0.0000 C   0  0  0  0  0  0  0  0  0  0  0  0
   -7.4695    3.1875    0.0000 C   0  0  0  0  0  0  0  0  0  0  0  0
    0.3248    7.6875    0.0000 C   0  0  0  0  0  0  0  0  0  0  0  0
   -8.7685    8.4375    0.0000 C   0  0  0  0  0  0  0  0  0  0  0  0
   -6.1704    3.9375    0.0000 C   0  0  0  0  0  0  0  0  0  0  0  0
   -0.9743    8.4375    0.0000 C   0  0  0  0  0  0  0  0  0  0  0  0
   -7.4695    7.6875    0.0000 C   0  0  0  0  0  0  0  0  0  0  0  0
   -6.1704    5.4375    0.0000 C   0  0  0  0  0  0  0  0  0  0  0  0
   -3.5724    8.4375    0.0000 C   0  0  0  0  0  0  0  0  0  0  0  0
   -4.8714    7.6875    0.0000 C   0  0  0  0  0  0  0  0  0  0  0  0
   -3.5724    9.9375    0.0000 O   0  0  0  0  0  0  0  0  0  0  0  0
   -2.2733    7.6875    0.0000 O   0  0  0  0  0  0  0  0  0  0  0  0
   -6.1704    8.4375    0.0000 O   0  0  0  0  0  0  0  0  0  0  0  0
   -4.8714    6.1875    0.0000 O   0  0  0  0  0  0  0  0  0  0  0  0
  4  1  1  0
  5  2  1  0
  6  3  1  0
  7  4  1  0
  8  5  1  0
  9  6  1  0
 10  7  1  0
 11  8  1  0
 12  9  1  0
 14 13  1  0
 15 13  2  0
 16 10  1  0
 16 13  1  0
 17 11  1  0
 17 14  1  0
 18 12  1  0
 18 14  1  0
M  END
>  <NAME>  (2643) 
BUTYL GLYOXYLATE DIBUTYLACETAL

>  <SYNONYMS>  (2643) 


>  <SPECTRUM TYPE>  (2643) 
MS1

>  <INSTRUMENT TYPE>  (2643) 
EI-B

>  <INSTRUMENT>  (2643) 
HITACHI M-60

>  <ION MODE>  (2643) 
P

>  <INCHIKEY>  (2643) 
LEQXXBBCRATLPW-UHFFFAOYSA-N

>  <FORMULA>  (2643) 
C14H28O4

>  <EXACT MASS>  (2643) 
260.198759376

>  <MW>  (2643) 
260

>  <ID>  (2643) 
JP008280

>  <CONTRIBUTOR>  (2643) 
University of Tokyo Team, {Faculty of Engineering, University of Tokyo

>  <COMMENT>  (2643) 
SMILES=CCCCOC(=O)C(OCCCC)OCCCC
InChI=InChI=1S/C14H28O4/c1-4-7-10-16-13(15)14(17-11-8-5-2)18-12-9-6-3/h14H,4-12H2,1-3H3
computed SMILES=O=C(OCCCC)C(OCCCC)OCCCC
accession=JP008280
date=2016.01.19 (Created 2008.10.21, modified 2011.05.06)
author=UBE SCIENTIFIC ANALYSIS LABORATORY
license=CC BY-NC-SA
exact mass=260.19876
ionization energy=70 eV
ion type=[M]+*
computed spectral entropy=1.9952237228951717
computed normalized entropy=0.6660220409242831
SPLASH=splash10-0a4i-9200000000-7e6a2ab44fe95091f1f0
submitter=submitter = University of Tokyo Team (Faculty of Engineering, University of Tokyo)
MoNA Rating=3.75

>  <NUM PEAKS>  (2643) 
20

>  <MASS SPECTRAL PEAKS>  (2643) 
27 4.22
28 1.79
29 25.08
31 1.64
39 2.65
41 24.66
42 1.6
43 2.18
47 1.78
55 3.71
56 6.15
57 99.99
58 6.84
103 26.28
104 1.55
131 1.79
159 17.97
160 2.13
187 0.59
188 0.14

>  <PREDICTED SPECTRUM>  (2643) 
26 18
27 138
28 54
29 166
30 5
31 72
39 207
40 47
41 608
42 175
43 204
44 94
45 118
47 60
54 32
55 205
56 293
57 999
58 179
59 112
61 117
70 20
71 69
72 1
73 48
75 202
76 70
84 5
85 40
86 76
101 96
103 379
104 84
105 98
131 215
159 281
160 185
161 123
187 6

$$$$

     RDKit          2D

 10  9  0  0  0  0  0  0  0  0999 V2000
    1.1654    2.9228    0.0000 C   0  0  0  0  0  0  0  0  0  0  0  0
   -1.8838    0.3642    0.0000 C   0  0  0  0  0  0  0  0  0  0  0  0
    1.0087    2.0343    0.0000 C   0  0  0  0  0  0  0  0  0  0  0  0
   -2.7317    3.6728    0.0000 C   0  0  0  0  0  0  0  0  0  0  0  0
   -4.0307    2.9228    0.0000 C   0  0  0  0  0  0  0  0  0  0  0  0
   -1.4327    2.9228    0.0000 C   0  0  0  0  0  0  0  0  0  0  0  0
   -5.3298    2.1728    0.0000 N   0  0  0  0  0  0  0  0  0  0  0  0
   -0.1336    3.6728    0.0000 O   0  0  0  0  0  0  0  0  0  0  0  0
   -2.3968    1.7738    0.0000 O   0  0  0  0  0  0  0  0  0  0  0  0
   -0.4685    1.7738    0.0000 O   0  0  0  0  0  0  0  0  0  0  0  0
  5  4  1  0
  6  4  1  0
  7  5  3  0
  8  1  1  0
  8  6  1  0
  9  2  1  0
  9  6  1  0
 10  3  1  0
 10  6  1  0
M  END
>  <NAME>  (2644) 
3,3,3-TRIMETHOXYPROPIONITRILE

>  <SYNONYMS>  (2644) 


>  <SPECTRUM TYPE>  (2644) 
MS1

>  <INSTRUMENT TYPE>  (2644) 
EI-B

>  <INSTRUMENT>  (2644) 
HITACHI M-60

>  <ION MODE>  (2644) 
P

>  <INCHIKEY>  (2644) 
IPJDXQYLAATRJK-UHFFFAOYSA-N

>  <FORMULA>  (2644) 
C6H11NO3

>  <EXACT MASS>  (2644) 
145.073893212

>  <MW>  (2644) 
145

>  <ID>  (2644) 
JP008279

>  <CONTRIBUTOR>  (2644) 
University of Tokyo Team, {Faculty of Engineering, University of Tokyo

>  <COMMENT>  (2644) 
SMILES=N#CCC(OC)(OC)OC
InChI=InChI=1S/C6H11NO3/c1-8-6(9-2,10-3)4-5-7/h4H2,1-3H3
computed SMILES=N#CCC(OC)(OC)OC
accession=JP008279
date=2016.01.19 (Created 2008.10.21, modified 2011.05.06)
author=UBE SCIENTIFIC ANALYSIS LABORATORY
license=CC BY-NC-SA
exact mass=145.07389
ionization energy=70 eV
ion type=[M]+*
computed spectral entropy=2.819647562916211
computed normalized entropy=0.7751424816088208
SPLASH=splash10-0900-9400000000-2f18ae517f4db92c2ea0
submitter=submitter = University of Tokyo Team (Faculty of Engineering, University of Tokyo)
MoNA Rating=3.75

>  <NUM PEAKS>  (2644) 
38

>  <MASS SPECTRAL PEAKS>  (2644) 
14 1.85
15 40.63
17 1.47
18 1.77
26 1
27 3.97
28 3.92
29 11.14
30 1.6
31 4.24
39 2.62
40 11.53
41 2.15
42 13.22
43 5.5
45 8.43
47 9.23
53 1.05
54 4.61
55 20.38
56 1.33
57 4.23
58 1.68
59 25.8
61 2.98
67 1.68
68 14.12
69 1.39
70 5.26
72 46.89
73 1.84
75 4.38
82 7.9
105 21.28
106 0.98
114 99.99
115 5.62
116 0.7

>  <PREDICTED SPECTRUM>  (2644) 
14 64
15 276
16 25
17 9
18 38
25 37
26 152
27 310
28 222
29 442
30 92
31 342
32 102
33 122
37 46
38 125
39 245
40 190
41 249
42 458
43 298
44 177
45 140
47 24
50 119
51 151
52 98
53 216
54 314
55 472
56 115
57 87
58 37
59 553
60 112
61 102
62 7
63 45
64 12
66 51
67 55
68 420
69 35
70 185
71 80
72 164
73 82
75 85
82 212
83 112
84 120
86 74
87 20
98 49
99 16
100 73
105 530
114 999
115 187

$$$$

     RDKit          2D

 11 11  0  0  0  0  0  0  0  0999 V2000
   -4.8712    2.0071    0.0000 C   0  0  0  0  0  0  0  0  0  0  0  0
    2.9231    0.5071    0.0000 C   0  0  0  0  0  0  0  0  0  0  0  0
    1.6236   -0.2437    0.0000 C   0  0  0  0  0  0  0  0  0  0  0  0
    2.9236    2.0079    0.0000 C   0  0  0  0  0  0  0  0  0  0  0  0
    0.3245    0.5063    0.0000 C   0  0  0  0  0  0  0  0  0  0  0  0
    1.6245    2.7579    0.0000 C   0  0  0  0  0  0  0  0  0  0  0  0
    0.3250    2.0071    0.0000 C   0  0  0  0  0  0  0  0  0  0  0  0
   -2.2731    2.0071    0.0000 C   0  0  0  0  0  0  0  0  0  0  0  0
   -0.9740    2.7571    0.0000 N   0  0  0  0  0  0  0  0  0  0  0  0
   -2.2731    0.5071    0.0000 S   0  0  0  0  0  0  0  0  0  0  0  0
   -3.5721    2.7571    0.0000 S   0  0  0  0  0  0  0  0  0  0  0  0
  3  2  2  0
  4  2  1  0
  5  3  1  0
  6  4  2  0
  7  5  2  0
  7  6  1  0
  9  7  1  0
  9  8  2  3
 10  8  1  0
 11  1  1  0
 11  8  1  0
M  END
>  <NAME>  (2645) 
METHYL N-PHENYLDITHIOCARBAMATE

>  <SYNONYMS>  (2645) 


>  <SPECTRUM TYPE>  (2645) 
MS1

>  <INSTRUMENT TYPE>  (2645) 
EI-B

>  <INSTRUMENT>  (2645) 
HITACHI M-60

>  <ION MODE>  (2645) 
P

>  <INCHIKEY>  (2645) 
MOOSRNWDPWTOBF-UHFFFAOYSA-N

>  <FORMULA>  (2645) 
C8H9NS2

>  <EXACT MASS>  (2645) 
183.017641288

>  <MW>  (2645) 
183

>  <ID>  (2645) 
JP008278

>  <CONTRIBUTOR>  (2645) 
University of Tokyo Team, {Faculty of Engineering, University of Tokyo

>  <COMMENT>  (2645) 
SMILES=CSC(=S)Nc(c1)cccc1
cas=701-73-5
InChI=InChI=1S/C8H9NS2/c1-11-8(10)9-7-5-3-2-4-6-7/h2-6H,1H3,(H,9,10)
computed SMILES=SC(=NC=1C=CC=CC1)SC
accession=JP008278
date=2016.01.19 (Created 2008.10.21, modified 2011.05.06)
author=UBE SCIENTIFIC ANALYSIS LABORATORY
license=CC BY-NC-SA
exact mass=183.01764
ionization energy=70 eV
ion type=[M]+*
computed spectral entropy=2.936016140241088
computed normalized entropy=0.7855205087895215
SPLASH=splash10-0f9i-9500000000-3f668cb8a340a34523bd
submitter=submitter = University of Tokyo Team (Faculty of Engineering, University of Tokyo)
MoNA Rating=3.75

>  <NUM PEAKS>  (2645) 
42

>  <MASS SPECTRAL PEAKS>  (2645) 
15 3.06
37 4.1
38 6.6
39 13.55
45 19.02
46 5.41
47 29.7
48 24.19
49 2.73
50 24.05
51 53.67
52 4.64
59 1.98
61 0.98
62 1.86
63 6.55
64 6.22
65 7.88
68 3.71
70 1.47
74 6.43
75 4.95
76 6.79
77 99.99
78 8.42
90 0.78
91 23.21
92 1.99
93 1.47
103 1.15
108 3.66
109 14.92
110 3.83
135 99.59
136 48.17
137 8.11
138 1.51
150 2.74
182 0.88
183 25.36
184 3.65
185 2.44

>  <PREDICTED SPECTRUM>  (2645) 
38 4
39 82
41 71
44 10
45 189
46 97
47 338
48 175
49 15
50 225
51 517
52 84
55 0
63 128
64 4
65 145
66 27
74 166
75 8
77 903
78 188
79 0
91 205
92 152
93 145
104 155
135 126
136 999
137 313
138 123
183 365
184 82
185 52

$$$$

     RDKit          2D

 10 10  0  0  0  0  0  0  0  0999 V2000
    2.5987    3.0002    0.0000 C   0  0  0  0  0  0  0  0  0  0  0  0
   -1.3000    0.7500    0.0000 C   0  0  0  0  0  0  0  0  0  0  0  0
    0.0000    1.5000    0.0000 C   0  0  0  0  0  0  0  0  0  0  0  0
   -1.3000   -0.7500    0.0000 C   0  0  0  0  0  0  0  0  0  0  0  0
    2.5989    1.5002    0.0000 C   0  0  0  0  0  0  0  0  0  0  0  0
    1.3000    0.7500    0.0000 C   0  0  0  0  0  0  0  0  0  0  0  0
    1.3000   -0.7500    0.0000 C   0  0  0  0  0  0  0  0  0  0  0  0
    3.8981    0.7504    0.0000 O   0  0  0  0  0  0  0  0  0  0  0  0
    2.5989   -1.5002    0.0000 O   0  0  0  0  0  0  0  0  0  0  0  0
   -0.0000   -1.5000    0.0000 O   0  0  0  0  0  0  0  0  0  0  0  0
  3  2  1  0
  4  2  1  0
  5  1  1  0
  6  3  1  0
  6  5  1  0
  7  6  1  0
  8  5  2  0
  9  7  2  0
 10  4  1  0
 10  7  1  0
M  END
>  <NAME>  (2646) 
ALPHA-ACETYL-DELTA-VALEROLACTONE

>  <SYNONYMS>  (2646) 


>  <SPECTRUM TYPE>  (2646) 
MS1

>  <INSTRUMENT TYPE>  (2646) 
EI-B

>  <INSTRUMENT>  (2646) 
HITACHI M-60

>  <ION MODE>  (2646) 
P

>  <INCHIKEY>  (2646) 
DRBJCTHMAXSQQA-UHFFFAOYSA-N

>  <FORMULA>  (2646) 
C7H10O3

>  <EXACT MASS>  (2646) 
142.06299417999998

>  <MW>  (2646) 
142

>  <ID>  (2646) 
JP008277

>  <CONTRIBUTOR>  (2646) 
University of Tokyo Team, {Faculty of Engineering, University of Tokyo

>  <COMMENT>  (2646) 
SMILES=CC(=O)C(C1)C(=O)OCC1
InChI=InChI=1S/C7H10O3/c1-5(8)6-3-2-4-10-7(6)9/h6H,2-4H2,1H3
computed SMILES=O=C1OCCCC1C(=O)C
accession=JP008277
date=2016.01.19 (Created 2008.10.21, modified 2011.05.06)
author=UBE SCIENTIFIC ANALYSIS LABORATORY
license=CC BY-NC-SA
exact mass=142.06299
ionization energy=70 eV
ion type=[M]+*
computed spectral entropy=3.111367818240448
computed normalized entropy=0.8126558473440749
SPLASH=splash10-0006-9300000000-9a84511aba74074f138f
submitter=submitter = University of Tokyo Team (Faculty of Engineering, University of Tokyo)
MoNA Rating=3.75

>  <NUM PEAKS>  (2646) 
46

>  <MASS SPECTRAL PEAKS>  (2646) 
15 9.96
26 2.37
27 14.35
28 6.99
29 9.93
31 2.24
38 1.27
39 12.02
40 2.52
41 10.61
42 6.57
43 99.99
44 6.07
45 4.06
51 1.18
53 7.25
54 7.97
55 27.57
56 6.71
57 2.27
58 5.29
67 1.2
68 1.24
69 7.04
70 2.14
71 3
72 2.61
73 7.57
81 5.23
82 7.24
83 2.51
84 4.66
85 2.91
95 1.08
96 5.71
97 2.58
98 0.94
99 20.81
100 54.52
101 3.33
109 12.26
124 6.68
127 16.29
128 1.32
142 14.46
143 1.36

>  <PREDICTED SPECTRUM>  (2646) 
14 44
15 112
16 0
17 3
18 9
25 15
26 102
27 266
28 172
29 173
31 11
34 1
37 21
38 94
39 338
40 180
41 323
42 181
43 999
44 148
45 188
46 18
50 19
51 32
52 95
53 288
54 304
55 349
56 126
57 84
58 85
59 62
60 7
61 7
65 51
66 96
67 274
68 104
69 175
70 51
71 203
72 151
73 122
74 1
81 157
82 172
83 128
84 120
85 178
86 47
87 26
95 59
96 165
97 217
98 110
99 485
100 666
101 162
102 88
109 62
113 18
114 22
124 126
125 39
127 277
128 45
142 387
143 103

$$$$

     RDKit          2D

  7  7  0  0  0  0  0  0  0  0999 V2000
   -0.7500    1.7300    0.0000 C   0  0  0  0  0  0  0  0  0  0  0  0
    0.7500    1.7300    0.0000 C   0  0  0  0  0  0  0  0  0  0  0  0
   -1.6900    0.5600    0.0000 C   0  0  0  0  0  0  0  0  0  0  0  0
    1.6900    0.5600    0.0000 C   0  0  0  0  0  0  0  0  0  0  0  0
   -1.3500   -0.9100    0.0000 C   0  0  0  0  0  0  0  0  0  0  0  0
    1.3500   -0.9100    0.0000 C   0  0  0  0  0  0  0  0  0  0  0  0
   -0.0000   -1.5600    0.0000 N   0  0  0  0  0  0  0  0  0  0  0  0
  2  1  1  0
  3  1  1  0
  4  2  1  0
  5  3  1  0
  6  4  1  0
  7  5  1  0
  7  6  1  0
M  END
>  <NAME>  (2647) 
HEXAMETHYLENEIMINE

>  <SYNONYMS>  (2647) 
HOMOPIPERIDINE

>  <SPECTRUM TYPE>  (2647) 
MS1

>  <INSTRUMENT TYPE>  (2647) 
EI-B

>  <INSTRUMENT>  (2647) 
HITACHI M-60

>  <ION MODE>  (2647) 
P

>  <INCHIKEY>  (2647) 
ZSIQJIWKELUFRJ-UHFFFAOYSA-N

>  <FORMULA>  (2647) 
C6H13N

>  <EXACT MASS>  (2647) 
99.10479941599999

>  <MW>  (2647) 
99

>  <ID>  (2647) 
JP008275

>  <CONTRIBUTOR>  (2647) 
University of Tokyo Team, {Faculty of Engineering, University of Tokyo

>  <COMMENT>  (2647) 
SMILES=C(C1)CCNCC1
cas=111-49-9
InChI=InChI=1S/C6H13N/c1-2-4-6-7-5-3-1/h7H,1-6H2
computed SMILES=N1CCCCCC1
accession=JP008275
date=2016.01.19 (Created 2008.10.21, modified 2011.05.06)
author=UBE SCIENTIFIC ANALYSIS LABORATORY
license=CC BY-NC-SA
exact mass=99.1048
ionization energy=70 eV
ion type=[M]+*
computed spectral entropy=2.8077375480324007
computed normalized entropy=0.8426066105662803
SPLASH=splash10-0006-9000000000-067bbf386321375590e7
submitter=submitter = University of Tokyo Team (Faculty of Engineering, University of Tokyo)
MoNA Rating=3.75

>  <NUM PEAKS>  (2647) 
28

>  <MASS SPECTRAL PEAKS>  (2647) 
15 6.84
18 1.32
26 2.76
27 21.67
28 37.42
29 14.82
30 58.95
39 22.87
40 3.88
41 38
42 34.88
43 99.99
44 36.3
53 2.36
54 2.97
55 9.54
56 56.1
57 44.96
58 1.34
67 1.54
68 5.38
69 2.7
70 92.28
71 8
84 10.14
98 16.89
99 45.06
100 8.14

>  <PREDICTED SPECTRUM>  (2647) 
14 60
15 217
16 38
17 54
18 115
19 19
25 24
26 186
27 575
28 535
29 615
30 776
31 211
32 46
34 5
36 26
37 87
38 150
39 524
40 269
41 823
42 846
43 745
44 722
45 200
46 2
49 16
50 110
51 186
52 116
53 257
54 276
55 522
56 966
57 756
58 324
59 163
60 18
64 38
65 48
66 81
67 191
68 304
69 442
70 999
71 404
72 295
78 103
79 70
80 110
81 146
82 280
83 179
84 750
85 148
86 30
95 16
96 82
97 72
98 289
99 652
100 257
101 7

$$$$

     RDKit          2D

 10 10  0  0  0  0  0  0  0  0999 V2000
    2.5989    1.8302    0.0000 C   0  0  0  0  0  0  0  0  0  0  0  0
   -2.5989   -1.1702    0.0000 C   0  0  0  0  0  0  0  0  0  0  0  0
   -1.3000    1.0800    0.0000 C   0  0  0  0  0  0  0  0  0  0  0  0
    1.3000    1.0800    0.0000 C   0  0  0  0  0  0  0  0  0  0  0  0
   -1.3000   -0.4200    0.0000 C   0  0  0  0  0  0  0  0  0  0  0  0
   -0.0000   -1.1700    0.0000 C   0  0  0  0  0  0  0  0  0  0  0  0
   -3.8978   -1.9204    0.0000 N   0  0  0  0  0  0  0  0  0  0  0  0
   -0.0000   -2.6700    0.0000 N   0  0  0  0  0  0  0  0  0  0  0  0
    0.0000    1.8300    0.0000 N   0  0  0  0  0  0  0  0  0  0  0  0
    1.3000   -0.4200    0.0000 N   0  0  0  0  0  0  0  0  0  0  0  0
  4  1  1  0
  5  2  1  0
  5  3  2  0
  6  5  1  0
  7  2  3  0
  8  6  2  0
  9  3  1  0
  9  4  1  0
 10  4  2  0
 10  6  1  0
M  END
>  <NAME>  (2648) 
4-AMINO-5-CYANO-2-METHYLPYRIMIDINE

>  <SYNONYMS>  (2648) 


>  <SPECTRUM TYPE>  (2648) 
MS1

>  <INSTRUMENT TYPE>  (2648) 
EI-B

>  <INSTRUMENT>  (2648) 
HITACHI M-60

>  <ION MODE>  (2648) 
P

>  <INCHIKEY>  (2648) 
YBPNIILOUYAGIF-UHFFFAOYSA-N

>  <FORMULA>  (2648) 
C6H6N4

>  <EXACT MASS>  (2648) 
134.059246192

>  <MW>  (2648) 
134

>  <ID>  (2648) 
JP008274

>  <CONTRIBUTOR>  (2648) 
University of Tokyo Team, {Faculty of Engineering, University of Tokyo

>  <COMMENT>  (2648) 
SMILES=N#Cc(c1)c(N)nc(C)n1
InChI=InChI=1S/C6H6N4/c1-4-9-3-5(2-7)6(8)10-4/h3H,1H3,(H2,8,9,10)
computed SMILES=N#CC1=CNC(=NC1=N)C
accession=JP008274
date=2016.01.19 (Created 2008.10.21, modified 2011.05.06)
author=UBE SCIENTIFIC ANALYSIS LABORATORY
license=CC BY-NC-SA
exact mass=134.05925
ionization energy=70 eV
ion type=[M]+*
computed spectral entropy=2.419234155298259
computed normalized entropy=0.7612313335275985
SPLASH=splash10-000x-9400000000-e1c3212ca954aab57480
submitter=submitter = University of Tokyo Team (Faculty of Engineering, University of Tokyo)
MoNA Rating=3.75

>  <NUM PEAKS>  (2648) 
24

>  <MASS SPECTRAL PEAKS>  (2648) 
15 6.5
27 3.64
28 10.06
38 3.57
39 6.52
40 5.51
41 9.58
42 45.94
43 5.42
51 8.15
52 5.83
53 1.46
65 6.37
66 31.73
67 6
91 2.24
92 12.32
93 3.05
94 73.05
95 4.64
106 0.93
107 4.38
134 99.99
135 10.72

>  <PREDICTED SPECTRUM>  (2648) 
26 24
27 8
28 46
33 9
34 9
36 58
37 175
38 283
39 458
40 364
41 347
42 507
43 212
44 183
45 84
46 44
48 11
49 71
50 260
51 373
52 478
53 365
54 323
55 126
56 61
57 25
60 37
61 97
62 169
63 261
64 282
65 320
66 390
67 266
68 198
74 72
75 78
76 111
77 144
78 181
79 340
80 381
81 164
82 28
90 61
91 67
92 274
93 214
94 198
105 21
106 365
107 423
108 219
117 26
118 4
119 127
132 98
133 747
134 999
135 287
136 49

$$$$

     RDKit          2D

  8  8  0  0  0  0  0  0  0  0999 V2000
    2.5989    1.5002    0.0000 C   0  0  0  0  0  0  0  0  0  0  0  0
   -1.3000   -0.7500    0.0000 C   0  0  0  0  0  0  0  0  0  0  0  0
   -1.3000    0.7500    0.0000 C   0  0  0  0  0  0  0  0  0  0  0  0
    1.3000    0.7500    0.0000 C   0  0  0  0  0  0  0  0  0  0  0  0
   -0.0000   -1.5000    0.0000 C   0  0  0  0  0  0  0  0  0  0  0  0
   -0.0000   -3.0000    0.0000 N   0  0  0  0  0  0  0  0  0  0  0  0
    0.0000    1.5000    0.0000 N   0  0  0  0  0  0  0  0  0  0  0  0
    1.3000   -0.7500    0.0000 N   0  0  0  0  0  0  0  0  0  0  0  0
  3  2  2  0
  4  1  1  0
  5  2  1  0
  6  5  2  0
  7  3  1  0
  7  4  2  0
  8  4  1  0
  8  5  1  0
M  END
>  <NAME>  (2649) 
4-AMINO-2-METHYLPYRIMIDINE

>  <SYNONYMS>  (2649) 


>  <SPECTRUM TYPE>  (2649) 
MS1

>  <INSTRUMENT TYPE>  (2649) 
EI-B

>  <INSTRUMENT>  (2649) 
HITACHI M-60

>  <ION MODE>  (2649) 
P

>  <INCHIKEY>  (2649) 
GKVDLTTVBNOGNJ-UHFFFAOYSA-N

>  <FORMULA>  (2649) 
C5H7N3

>  <EXACT MASS>  (2649) 
109.06399722399999

>  <MW>  (2649) 
109

>  <ID>  (2649) 
JP008273

>  <CONTRIBUTOR>  (2649) 
University of Tokyo Team, {Faculty of Engineering, University of Tokyo

>  <COMMENT>  (2649) 
SMILES=Cc(n1)nc(N)cc1
InChI=InChI=1S/C5H7N3/c1-4-7-3-2-5(6)8-4/h2-3H,1H3,(H2,6,7,8)
computed SMILES=N=C1C=CN=C(N1)C
accession=JP008273
date=2016.01.19 (Created 2008.10.21, modified 2011.05.06)
author=UBE SCIENTIFIC ANALYSIS LABORATORY
license=CC BY-NC-SA
exact mass=109.064
ionization energy=70 eV
ion type=[M]+*
computed spectral entropy=2.3538053241793038
computed normalized entropy=0.7506967521168889
SPLASH=splash10-052f-9400000000-8a82a096f9c976930777
submitter=submitter = University of Tokyo Team (Faculty of Engineering, University of Tokyo)
MoNA Rating=3.75

>  <NUM PEAKS>  (2649) 
23

>  <MASS SPECTRAL PEAKS>  (2649) 
14 1.29
15 5.53
26 4.4
27 1.87
28 6.42
38 1.3
39 3.43
40 19.2
41 62.88
42 37.74
43 4.61
52 4.7
53 1.62
66 3.73
67 9.62
68 11.25
69 18.4
81 4.47
82 11.88
93 4.27
94 1.48
109 99.99
110 9.83

>  <PREDICTED SPECTRUM>  (2649) 
26 11
28 66
37 16
38 112
39 269
40 193
41 255
42 434
43 356
50 76
51 184
52 369
53 288
54 178
55 65
63 18
64 149
65 208
66 281
67 347
68 249
69 63
78 14
79 98
80 84
81 289
82 379
83 101
91 13
92 286
93 146
94 11
107 68
108 629
109 999
110 252

$$$$

     RDKit          2D

  5  5  0  0  0  0  0  0  0  0999 V2000
   -0.7500    1.0300    0.0000 C   0  0  0  0  0  0  0  0  0  0  0  0
    0.7500    1.0300    0.0000 C   0  0  0  0  0  0  0  0  0  0  0  0
   -1.2100   -0.3900    0.0000 C   0  0  0  0  0  0  0  0  0  0  0  0
    1.2100   -0.3900    0.0000 N   0  0  0  0  0  0  0  0  0  0  0  0
   -0.0000   -1.2800    0.0000 O   0  0  0  0  0  0  0  0  0  0  0  0
  2  1  1  0
  3  1  2  0
  4  2  2  0
  5  3  1  0
  5  4  1  0
M  END
>  <NAME>  (2650) 
ISOXAZOLE

>  <SYNONYMS>  (2650) 


>  <SPECTRUM TYPE>  (2650) 
MS1

>  <INSTRUMENT TYPE>  (2650) 
EI-B

>  <INSTRUMENT>  (2650) 
HITACHI M-60

>  <ION MODE>  (2650) 
P

>  <INCHIKEY>  (2650) 
CTAPFRYPJLPFDF-UHFFFAOYSA-N

>  <FORMULA>  (2650) 
C3H3NO

>  <EXACT MASS>  (2650) 
69.021463716

>  <MW>  (2650) 
69

>  <ID>  (2650) 
JP008272

>  <CONTRIBUTOR>  (2650) 
University of Tokyo Team, {Faculty of Engineering, University of Tokyo

>  <COMMENT>  (2650) 
SMILES=c(c1)con1
cas=288-14-2
InChI=InChI=1S/C3H3NO/c1-2-4-5-3-1/h1-3H
computed SMILES=N=1OC=CC1
accession=JP008272
date=2016.01.19 (Created 2008.10.21, modified 2011.05.06)
author=UBE SCIENTIFIC ANALYSIS LABORATORY
license=CC BY-NC-SA
exact mass=69.02146
ionization energy=70 eV
ion type=[M]+*
computed spectral entropy=2.4154337268022608
computed normalized entropy=0.8062915862426878
SPLASH=splash10-014l-9000000000-489fdc25b73cee13cb27
submitter=submitter = University of Tokyo Team (Faculty of Engineering, University of Tokyo)
MoNA Rating=3.75

>  <NUM PEAKS>  (2650) 
20

>  <MASS SPECTRAL PEAKS>  (2650) 
13 4.88
14 49.14
15 4.34
18 30.04
25 4.4
26 8.47
27 4.09
29 34.65
30 3.62
31 1.79
37 5.27
38 15.98
39 19.44
40 84.06
41 40.53
42 11.78
51 1.17
68 72.47
69 99.99
70 6.53

>  <PREDICTED SPECTRUM>  (2650) 
14 65
15 9
16 36
17 1
19 0
25 61
26 150
27 107
28 204
29 189
36 79
37 145
38 244
39 239
40 347
41 410
42 213
43 235
44 258
49 20
50 56
51 103
53 45
68 338
69 999
70 187

$$$$

     RDKit          2D

  8  8  0  0  0  0  0  0  0  0999 V2000
   -0.0000   -2.2000    0.0000 C   0  0  0  0  0  0  0  0  0  0  0  0
   -0.7400    1.5900    0.0000 C   0  0  0  0  0  0  0  0  0  0  0  0
    0.7400    1.5900    0.0000 C   0  0  0  0  0  0  0  0  0  0  0  0
   -1.2100    0.1700    0.0000 C   0  0  0  0  0  0  0  0  0  0  0  0
    1.2100    0.1700    0.0000 C   0  0  0  0  0  0  0  0  0  0  0  0
   -0.0000   -0.7000    0.0000 N   0  0  0  0  0  0  0  0  0  0  0  0
   -2.6367   -0.2931    0.0000 O   0  0  0  0  0  0  0  0  0  0  0  0
    2.6367   -0.2931    0.0000 O   0  0  0  0  0  0  0  0  0  0  0  0
  3  2  1  0
  4  2  1  0
  5  3  1  0
  6  1  1  0
  6  4  1  0
  6  5  1  0
  7  4  2  0
  8  5  2  0
M  END
>  <NAME>  (2651) 
N-METHYLSUCCINIMIDE

>  <SYNONYMS>  (2651) 


>  <SPECTRUM TYPE>  (2651) 
MS1

>  <INSTRUMENT TYPE>  (2651) 
EI-B

>  <INSTRUMENT>  (2651) 
HITACHI M-60

>  <ION MODE>  (2651) 
P

>  <INCHIKEY>  (2651) 
KYEACNNYFNZCST-UHFFFAOYSA-N

>  <FORMULA>  (2651) 
C5H7NO2

>  <EXACT MASS>  (2651) 
113.047678464

>  <MW>  (2651) 
113

>  <ID>  (2651) 
JP008271

>  <CONTRIBUTOR>  (2651) 
University of Tokyo Team, {Faculty of Engineering, University of Tokyo

>  <COMMENT>  (2651) 
SMILES=O=C(C1)N(C)C(=O)C1
cas=1121-07-9
InChI=InChI=1S/C5H7NO2/c1-6-4(7)2-3-5(6)8/h2-3H2,1H3
computed SMILES=O=C1N(C(=O)CC1)C
accession=JP008271
date=2016.01.19 (Created 2008.10.21, modified 2011.05.06)
author=UBE SCIENTIFIC ANALYSIS LABORATORY
license=CC BY-NC-SA
exact mass=113.04768
ionization energy=70 eV
ion type=[M]+*
computed spectral entropy=2.2474857479103845
computed normalized entropy=0.7502291735983726
SPLASH=splash10-056r-9100000000-b4324ada3b763bba303c
submitter=submitter = University of Tokyo Team (Faculty of Engineering, University of Tokyo)
MoNA Rating=3.75

>  <NUM PEAKS>  (2651) 
20

>  <MASS SPECTRAL PEAKS>  (2651) 
14 2.6
15 6.2
26 11.12
27 24.72
28 99.99
29 8.66
30 4.14
41 2.23
42 7.2
43 4.94
53 1.53
54 1.83
55 10.29
56 53.64
57 9.66
58 11.67
84 2.36
85 2.5
113 47.16
114 3.88

>  <PREDICTED SPECTRUM>  (2651) 
14 13
15 47
25 16
26 110
27 190
28 287
29 152
30 254
31 22
40 18
41 143
42 284
43 184
44 49
54 206
55 654
56 787
57 249
58 330
59 21
68 38
69 34
70 221
72 37
84 289
85 151
86 25
113 999
114 249
115 46

$$$$

     RDKit          2D

 15 16  0  0  0  0  0  0  0  0999 V2000
    2.5986    1.0700    0.0000 C   0  0  0  0  0  0  0  0  0  0  0  0
   -5.1957    1.0700    0.0000 C   0  0  0  0  0  0  0  0  0  0  0  0
    1.2990    0.3192    0.0000 C   0  0  0  0  0  0  0  0  0  0  0  0
    2.5990    2.5708    0.0000 C   0  0  0  0  0  0  0  0  0  0  0  0
   -5.1962    2.5708    0.0000 C   0  0  0  0  0  0  0  0  0  0  0  0
   -3.8962    0.3192    0.0000 C   0  0  0  0  0  0  0  0  0  0  0  0
    0.0000    1.0692    0.0000 C   0  0  0  0  0  0  0  0  0  0  0  0
    1.3000    3.3208    0.0000 C   0  0  0  0  0  0  0  0  0  0  0  0
   -3.8971    3.3208    0.0000 C   0  0  0  0  0  0  0  0  0  0  0  0
   -2.5971    1.0692    0.0000 C   0  0  0  0  0  0  0  0  0  0  0  0
    0.0005    2.5700    0.0000 C   0  0  0  0  0  0  0  0  0  0  0  0
   -2.5976    2.5700    0.0000 C   0  0  0  0  0  0  0  0  0  0  0  0
   -1.2986    4.8200    0.0000 N   0  0  0  0  0  0  0  0  0  0  0  0
   -1.2986    3.3200    0.0000 N   0  0  0  0  0  0  0  0  0  0  0  0
   -2.5976    5.5700    0.0000 O   0  0  0  0  0  0  0  0  0  0  0  0
  3  1  1  0
  4  1  1  0
  5  2  1  0
  6  2  1  0
  7  3  1  0
  8  4  1  0
  9  5  1  0
 10  6  1  0
 11  7  1  0
 11  8  1  0
 12  9  1  0
 12 10  1  0
 14 11  1  0
 14 12  1  0
 14 13  1  0
 15 13  2  0
M  END
>  <NAME>  (2652) 
N-NITROSODICYCLOHEXYLAMINE

>  <SYNONYMS>  (2652) 


>  <SPECTRUM TYPE>  (2652) 
MS1

>  <INSTRUMENT TYPE>  (2652) 
EI-B

>  <INSTRUMENT>  (2652) 
HITACHI M-60

>  <ION MODE>  (2652) 
P

>  <INCHIKEY>  (2652) 
CYMNKXLBEMEABS-UHFFFAOYSA-N

>  <FORMULA>  (2652) 
C12H22N2O

>  <EXACT MASS>  (2652) 
210.173213324

>  <MW>  (2652) 
210

>  <ID>  (2652) 
JP008270

>  <CONTRIBUTOR>  (2652) 
University of Tokyo Team, {Faculty of Engineering, University of Tokyo

>  <COMMENT>  (2652) 
SMILES=O=NN(C(C2)CCCC2)C(C1)CCCC1
InChI=InChI=1S/C12H22N2O/c15-13-14(11-7-3-1-4-8-11)12-9-5-2-6-10-12/h11-12H,1-10H2
computed SMILES=O=NN(C1CCCCC1)C2CCCCC2
accession=JP008270
date=2016.01.19 (Created 2008.10.21, modified 2011.05.06)
author=UBE SCIENTIFIC ANALYSIS LABORATORY
license=CC BY-NC-SA
exact mass=210.17321
ionization energy=70 eV
ion type=[M]+*
computed spectral entropy=2.915173020527192
computed normalized entropy=0.775064588657133
SPLASH=splash10-053r-9000000000-37a09fe61bffa1190002
submitter=submitter = University of Tokyo Team (Faculty of Engineering, University of Tokyo)
MoNA Rating=3.75

>  <NUM PEAKS>  (2652) 
43

>  <MASS SPECTRAL PEAKS>  (2652) 
27 9.22
28 4.76
29 11.78
30 7.58
36 2.69
39 10.72
40 1.46
41 43.46
42 5.54
43 6.73
44 12.48
47 5.88
53 5.37
54 11.67
55 79.38
56 11.39
57 1.11
67 13.72
68 3.31
69 2.91
70 2.19
79 2.42
80 2.23
81 10.1
82 12.2
83 99.99
84 5.82
94 1.12
96 1.5
97 0.47
98 14.69
99 1.34
110 1.61
111 3.46
125 1.09
128 6.87
129 16.46
130 1.03
138 1.42
180 0.7
193 2.18
210 11.32
211 1.69

>  <PREDICTED SPECTRUM>  (2652) 
26 65
27 228
28 154
29 246
30 250
31 50
33 22
34 24
37 39
38 82
39 432
40 209
41 759
42 425
43 380
44 343
45 192
46 127
47 30
49 15
50 133
51 192
52 147
53 372
54 455
55 999
56 630
57 264
58 276
59 124
60 39
61 7
62 63
63 1
64 16
65 226
66 169
67 456
68 243
69 189
70 356
71 222
72 120
73 55
75 54
76 73
77 237
78 207
79 313
80 246
81 390
82 479
83 938
84 232
85 310
86 268
87 96
92 42
93 102
94 78
95 91
96 38
97 103
98 417
99 451
100 292
101 179
105 29
107 49
108 144
109 110
110 158
111 115
112 109
113 149
114 30
122 36
123 53
124 91
125 167
126 194
127 545
128 777
129 741
130 224
131 29
135 77
136 41
137 91
138 123
139 138
140 107
141 179
142 63
150 8
151 104
152 125
153 342
154 214
155 184
156 39
165 88
166 15
167 432
168 255
169 105
179 210
180 164
181 414
182 147
193 16
195 130
196 38
209 221
210 637
211 227
212 25

$$$$

     RDKit          2D

  5  4  0  0  0  0  0  0  0  0999 V2000
   -3.8971    2.2500    0.0000 C   0  0  0  0  0  0  0  0  0  0  0  0
   -2.5981    1.5000    0.0000 C   0  0  0  0  0  0  0  0  0  0  0  0
    0.0000    1.5000    0.0000 N   0  0  0  0  0  0  0  0  0  0  0  0
    1.2990    2.2500    0.0000 O   0  0  0  0  0  0  0  0  0  0  0  0
   -1.2990    2.2500    0.0000 O   0  0  0  0  0  0  0  0  0  0  0  0
  2  1  1  0
  4  3  2  0
  5  2  1  0
  5  3  1  0
M  END
>  <NAME>  (2653) 
ETHYL NITRITE

>  <SYNONYMS>  (2653) 


>  <SPECTRUM TYPE>  (2653) 
MS1

>  <INSTRUMENT TYPE>  (2653) 
EI-B

>  <INSTRUMENT>  (2653) 
HITACHI M-60

>  <ION MODE>  (2653) 
P

>  <INCHIKEY>  (2653) 
QQZWEECEMNQSTG-UHFFFAOYSA-N

>  <FORMULA>  (2653) 
C2H5NO2

>  <EXACT MASS>  (2653) 
75.0320284

>  <MW>  (2653) 
75

>  <ID>  (2653) 
JP008266

>  <CONTRIBUTOR>  (2653) 
University of Tokyo Team, {Faculty of Engineering, University of Tokyo

>  <COMMENT>  (2653) 
SMILES=CCON=O
cas=109-95-5
InChI=InChI=1S/C2H5NO2/c1-2-5-3-4/h2H2,1H3
computed SMILES=O=NOCC
accession=JP008266
date=2016.01.19 (Created 2008.10.21, modified 2011.05.06)
author=UBE SCIENTIFIC ANALYSIS LABORATORY
license=CC BY-NC-SA
exact mass=75.03203
ionization energy=70 eV
ion type=[M]+*
computed spectral entropy=1.9831007013726976
computed normalized entropy=0.715252386863454
SPLASH=splash10-003r-9000000000-02ab86d458672b7fbb29
submitter=submitter = University of Tokyo Team (Faculty of Engineering, University of Tokyo)
MoNA Rating=3.75

>  <NUM PEAKS>  (2653) 
16

>  <MASS SPECTRAL PEAKS>  (2653) 
14 6.4
15 17.43
16 0.93
26 3.3
27 15.85
28 3.53
29 48.15
30 99.99
31 8.18
32 0.96
42 1.51
43 10.52
44 1.33
45 10.69
46 1.49
60 32.34

>  <PREDICTED SPECTRUM>  (2653) 
14 130
15 257
16 93
17 11
18 22
19 47
25 74
26 278
27 638
28 540
29 999
30 881
31 514
32 92
41 104
43 192
45 209
46 42
47 143
54 73
58 79
59 80
60 64
75 354
76 115

$$$$

     RDKit          2D

  5  4  0  0  0  0  0  0  0  0999 V2000
    0.9743    1.3125    0.0000 C   0  0  0  0  0  0  0  0  0  0  0  0
   -1.6238    1.3125    0.0000 C   0  0  0  0  0  0  0  0  0  0  0  0
   -0.3248    2.0625    0.0000 C   0  0  0  0  0  0  0  0  0  0  0  0
   -2.9228    0.5625    0.0000 N   0  0  0  0  0  0  0  0  0  0  0  0
   -0.3248    3.5625    0.0000 O   0  0  0  0  0  0  0  0  0  0  0  0
  3  1  1  0
  3  2  1  0
  4  2  3  0
  5  3  1  0
M  END
>  <NAME>  (2654) 
ACETALDEHYDE CYANOHYDRIN

>  <SYNONYMS>  (2654) 


>  <SPECTRUM TYPE>  (2654) 
MS1

>  <INSTRUMENT TYPE>  (2654) 
EI-B

>  <INSTRUMENT>  (2654) 
HITACHI M-60

>  <ION MODE>  (2654) 
P

>  <INCHIKEY>  (2654) 
WOFDVDFSGLBFAC-UHFFFAOYSA-N

>  <FORMULA>  (2654) 
C3H5NO

>  <EXACT MASS>  (2654) 
71.03711378

>  <MW>  (2654) 
71

>  <ID>  (2654) 
JP008265

>  <CONTRIBUTOR>  (2654) 
University of Tokyo Team, {Faculty of Engineering, University of Tokyo

>  <COMMENT>  (2654) 
SMILES=N#CC(C)O
cas=78-97-7
InChI=InChI=1S/C3H5NO/c1-3(5)2-4/h3,5H,1H3
computed SMILES=N#CC(O)C
accession=JP008265
date=2016.01.19 (Created 2008.10.21, modified 2011.05.06)
author=UBE SCIENTIFIC ANALYSIS LABORATORY
license=CC BY-NC-SA
exact mass=71.03711
ionization energy=70 eV
ion type=[M]+*
computed spectral entropy=2.123034971469337
computed normalized entropy=0.7345196913405512
SPLASH=splash10-004i-9000000000-f6226616b0e6db1a9858
submitter=submitter = University of Tokyo Team (Faculty of Engineering, University of Tokyo)
MoNA Rating=3.75

>  <NUM PEAKS>  (2654) 
18

>  <MASS SPECTRAL PEAKS>  (2654) 
13 4.58
14 15.99
15 34.6
16 4.24
22 1.77
25 2.73
26 23.3
27 99.99
29 85.55
30 0.62
40 0.74
41 3.39
42 11.32
43 30.18
44 51.18
45 3.04
56 5.28
70 0.43

>  <PREDICTED SPECTRUM>  (2654) 
14 67
15 165
16 37
17 31
18 34
19 61
25 46
26 179
27 326
28 254
29 243
31 113
32 27
36 3
37 43
38 107
39 160
40 107
41 304
42 134
43 352
44 243
45 999
46 40
51 58
52 66
53 72
54 70
55 63
56 277
57 35

$$$$

     RDKit          2D

 12 12  0  0  0  0  0  0  0  0999 V2000
    3.5726    0.8821    0.0000 C   0  0  0  0  0  0  0  0  0  0  0  0
    3.5731    2.3829    0.0000 C   0  0  0  0  0  0  0  0  0  0  0  0
    2.2731    0.1313    0.0000 C   0  0  0  0  0  0  0  0  0  0  0  0
    2.2740    3.1329    0.0000 C   0  0  0  0  0  0  0  0  0  0  0  0
    0.9740    0.8813    0.0000 C   0  0  0  0  0  0  0  0  0  0  0  0
   -0.3245    3.1321    0.0000 C   0  0  0  0  0  0  0  0  0  0  0  0
   -4.2216    2.3821    0.0000 C   0  0  0  0  0  0  0  0  0  0  0  0
    0.9745    2.3821    0.0000 C   0  0  0  0  0  0  0  0  0  0  0  0
   -2.9226    3.1321    0.0000 C   0  0  0  0  0  0  0  0  0  0  0  0
   -1.6236    2.3821    0.0000 N   0  0  0  0  0  0  0  0  0  0  0  0
   -5.5207    3.1321    0.0000 O   0  0  0  0  0  0  0  0  0  0  0  0
   -2.9226    4.6321    0.0000 O   0  0  0  0  0  0  0  0  0  0  0  0
  2  1  2  0
  3  1  1  0
  4  2  1  0
  5  3  2  0
  8  4  2  0
  8  5  1  0
  8  6  1  0
  9  7  1  0
 10  6  1  0
 10  9  2  3
 11  7  1  0
 12  9  1  0
M  END
>  <NAME>  (2655) 
N-BENZYLGLYCOLAMIDE

>  <SYNONYMS>  (2655) 


>  <SPECTRUM TYPE>  (2655) 
MS1

>  <INSTRUMENT TYPE>  (2655) 
EI-B

>  <INSTRUMENT>  (2655) 
HITACHI M-60

>  <ION MODE>  (2655) 
P

>  <INCHIKEY>  (2655) 
GUDMTEGDXVJZEE-UHFFFAOYSA-N

>  <FORMULA>  (2655) 
C9H11NO2

>  <EXACT MASS>  (2655) 
165.078978592

>  <MW>  (2655) 
165

>  <ID>  (2655) 
JP008264

>  <CONTRIBUTOR>  (2655) 
University of Tokyo Team, {Faculty of Engineering, University of Tokyo

>  <COMMENT>  (2655) 
SMILES=OCC(=O)NCc(c1)cccc1
InChI=InChI=1S/C9H11NO2/c11-7-9(12)10-6-8-4-2-1-3-5-8/h1-5,11H,6-7H2,(H,10,12)
computed SMILES=OC(=NCC=1C=CC=CC1)CO
accession=JP008264
date=2016.01.19 (Created 2008.10.21, modified 2011.05.06)
author=UBE SCIENTIFIC ANALYSIS LABORATORY
license=CC BY-NC-SA
exact mass=165.07898
ionization energy=70 eV
ion type=[M]+*
computed spectral entropy=2.6276010331706865
computed normalized entropy=0.7651749633017749
SPLASH=splash10-0006-9300000000-62703b86aff5dce1f179
submitter=submitter = University of Tokyo Team (Faculty of Engineering, University of Tokyo)
MoNA Rating=3.75

>  <NUM PEAKS>  (2655) 
31

>  <MASS SPECTRAL PEAKS>  (2655) 
28 8.39
29 4.04
30 6.87
31 18.73
39 6.09
41 1.68
42 1.1
50 2.87
51 7.69
52 1.7
60 1.73
63 2.39
65 11.81
74 1.36
77 7.91
78 4.31
79 6.12
89 2.32
90 1.39
91 99.99
92 19.38
104 7.02
106 12.01
107 4.81
118 5.77
119 5.52
146 1.85
147 4.11
149 0.54
165 28.45
166 2.78

>  <PREDICTED SPECTRUM>  (2655) 
14 19
15 31
16 18
17 22
18 28
19 11
26 34
27 66
28 69
29 75
30 125
31 113
32 23
33 33
34 9
36 15
37 56
38 90
39 209
40 80
41 160
42 164
43 135
44 107
45 289
46 62
47 3
49 67
50 181
51 281
52 105
53 52
54 34
55 29
56 19
57 56
58 25
59 12
60 78
61 69
62 95
63 182
64 71
65 377
66 69
70 38
71 18
73 61
74 125
75 117
76 87
77 278
78 211
79 167
80 13
87 8
88 69
89 241
90 176
91 999
92 319
93 36
102 36
103 122
104 211
105 201
106 227
107 105
116 119
117 242
118 163
119 72
120 119
121 100
131 8
132 106
133 158
134 214
135 181
136 27
146 93
147 104
148 44
163 19
164 119
165 315
166 94
167 3

$$$$

     RDKit          2D

  6  6  0  0  0  0  0  0  0  0999 V2000
   -0.7500    1.0300    0.0000 C   0  0  0  0  0  0  0  0  0  0  0  0
    0.7500    1.0300    0.0000 C   0  0  0  0  0  0  0  0  0  0  0  0
   -1.2100   -0.3900    0.0000 C   0  0  0  0  0  0  0  0  0  0  0  0
   -2.6377   -0.8500    0.0000 N   0  0  0  0  0  0  0  0  0  0  0  0
    1.2100   -0.3900    0.0000 N   0  0  0  0  0  0  0  0  0  0  0  0
   -0.0000   -1.2800    0.0000 O   0  0  0  0  0  0  0  0  0  0  0  0
  2  1  1  0
  3  1  2  0
  4  3  1  0
  5  2  2  0
  6  3  1  0
  6  5  1  0
M  END
>  <NAME>  (2656) 
5-AMINOISOXAZOLE

>  <SYNONYMS>  (2656) 


>  <SPECTRUM TYPE>  (2656) 
MS1

>  <INSTRUMENT TYPE>  (2656) 
EI-B

>  <INSTRUMENT>  (2656) 
HITACHI M-60

>  <ION MODE>  (2656) 
P

>  <INCHIKEY>  (2656) 
IAXWZYXUKABJAN-UHFFFAOYSA-N

>  <FORMULA>  (2656) 
C3H4N2O

>  <EXACT MASS>  (2656) 
84.032362748

>  <MW>  (2656) 
84

>  <ID>  (2656) 
JP008263

>  <CONTRIBUTOR>  (2656) 
University of Tokyo Team, {Faculty of Engineering, University of Tokyo

>  <COMMENT>  (2656) 
SMILES=Nc(c1)onc1
InChI=InChI=1S/C3H4N2O/c4-3-1-2-5-6-3/h1-2H,4H2
computed SMILES=N=1OC(N)=CC1
accession=JP008263
date=2016.01.19 (Created 2008.10.21, modified 2011.05.06)
author=UBE SCIENTIFIC ANALYSIS LABORATORY
license=CC BY-NC-SA
exact mass=84.03236
ionization energy=70 eV
ion type=[M]+*
computed spectral entropy=2.7557428261506955
computed normalized entropy=0.8102272573207651
SPLASH=splash10-002f-9000000000-d4a7e727d67cada9f463
submitter=submitter = University of Tokyo Team (Faculty of Engineering, University of Tokyo)
MoNA Rating=3.75

>  <NUM PEAKS>  (2656) 
30

>  <MASS SPECTRAL PEAKS>  (2656) 
16 10.02
17 3.29
25 3.13
26 9.97
27 14.28
28 59.91
29 65.76
30 7.96
38 12.09
39 21.12
40 65.57
41 97.4
42 9
43 6.29
44 76.21
51 2.87
52 15.39
53 12.32
54 2.27
55 1.34
56 6.16
57 11.08
66 2.15
67 10.68
68 48.16
69 1.42
70 2.82
84 99.99
85 15.39
86 3.48

>  <PREDICTED SPECTRUM>  (2656) 
14 51
16 52
17 5
25 70
26 193
27 238
28 299
29 361
30 82
34 37
35 23
36 201
37 279
38 666
39 688
40 742
41 827
42 397
43 530
44 732
52 289
53 119
54 206
55 138
56 573
57 299
67 49
68 89
84 999
85 198

$$$$

     RDKit          2D

 18 18  0  0  0  0  0  0  0  0999 V2000
   -4.8715    2.4373    0.0000 C   0  0  0  0  0  0  0  0  0  0  0  0
    5.5214    2.4376    0.0000 C   0  0  0  0  0  0  0  0  0  0  0  0
   -0.9743   -4.3137    0.0000 C   0  0  0  0  0  0  0  0  0  0  0  0
    0.3251    2.4382    0.0000 C   0  0  0  0  0  0  0  0  0  0  0  0
   -0.9749    0.1865    0.0000 C   0  0  0  0  0  0  0  0  0  0  0  0
    1.6236    0.1873    0.0000 C   0  0  0  0  0  0  0  0  0  0  0  0
   -0.9744    1.6873    0.0000 C   0  0  0  0  0  0  0  0  0  0  0  0
    1.6241    1.6882    0.0000 C   0  0  0  0  0  0  0  0  0  0  0  0
    0.3241   -0.5635    0.0000 C   0  0  0  0  0  0  0  0  0  0  0  0
   -2.2735    2.4373    0.0000 C   0  0  0  0  0  0  0  0  0  0  0  0
    2.9233    2.4380    0.0000 C   0  0  0  0  0  0  0  0  0  0  0  0
    0.3244   -2.0635    0.0000 C   0  0  0  0  0  0  0  0  0  0  0  0
   -2.2735    3.9373    0.0000 O   0  0  0  0  0  0  0  0  0  0  0  0
    2.9235    3.9380    0.0000 O   0  0  0  0  0  0  0  0  0  0  0  0
    1.6235   -2.8133    0.0000 O   0  0  0  0  0  0  0  0  0  0  0  0
   -3.5725    1.6873    0.0000 O   0  0  0  0  0  0  0  0  0  0  0  0
    4.2222    1.6878    0.0000 O   0  0  0  0  0  0  0  0  0  0  0  0
   -0.9745   -2.8137    0.0000 O   0  0  0  0  0  0  0  0  0  0  0  0
  7  4  2  0
  7  5  1  0
  8  4  1  0
  8  6  2  0
  9  5  2  0
  9  6  1  0
 10  7  1  0
 11  8  1  0
 12  9  1  0
 13 10  2  0
 14 11  2  0
 15 12  2  0
 16  1  1  0
 16 10  1  0
 17  2  1  0
 17 11  1  0
 18  3  1  0
 18 12  1  0
M  END
>  <NAME>  (2657) 
TRIMESIC ACID TRIMETHYL ESTER

>  <SYNONYMS>  (2657) 
1,3,5-BENZENETRICARBOXYLIC ACID TRIMETHYLESTER

>  <SPECTRUM TYPE>  (2657) 
MS1

>  <INSTRUMENT TYPE>  (2657) 
EI-B

>  <INSTRUMENT>  (2657) 
HITACHI M-60

>  <ION MODE>  (2657) 
P

>  <INCHIKEY>  (2657) 
RGCHNYAILFZUPL-UHFFFAOYSA-N

>  <FORMULA>  (2657) 
C12H12O6

>  <EXACT MASS>  (2657) 
252.06338810399998

>  <MW>  (2657) 
252

>  <ID>  (2657) 
JP008262

>  <CONTRIBUTOR>  (2657) 
University of Tokyo Team, {Faculty of Engineering, University of Tokyo

>  <COMMENT>  (2657) 
SMILES=COC(=O)c(c1)cc(C(=O)OC)cc(C(=O)OC)1
cas=2672-58-4
InChI=InChI=1S/C12H12O6/c1-16-10(13)7-4-8(11(14)17-2)6-9(5-7)12(15)18-3/h4-6H,1-3H3
computed SMILES=O=C(OC)C=1C=C(C=C(C1)C(=O)OC)C(=O)OC
accession=JP008262
date=2016.01.19 (Created 2008.10.21, modified 2011.05.06)
author=UBE SCIENTIFIC ANALYSIS LABORATORY
license=CC BY-NC-SA
exact mass=252.06339
ionization energy=70 eV
ion type=[M]+*
computed spectral entropy=2.7081443446590923
computed normalized entropy=0.7617100485865204
SPLASH=splash10-00di-3590000000-9c6acb858130c26c3237
submitter=submitter = University of Tokyo Team (Faculty of Engineering, University of Tokyo)
MoNA Rating=3.75

>  <NUM PEAKS>  (2657) 
35

>  <MASS SPECTRAL PEAKS>  (2657) 
15 13.64
29 1.2
51 1.1
59 5.1
63 2.7
74 9.04
75 19.64
76 2.8
77 2.12
91 1.14
95 1.7
102 6.83
103 3.28
119 3.48
120 1.03
133 7.53
134 9.28
135 1.94
147 11.86
148 1.22
161 8.99
162 4.93
163 1.97
165 1.57
177 1.07
178 3.06
193 21.05
194 2.95
207 4.38
221 99.99
222 13.32
223 1.72
251 2.28
252 24.76
253 3.6

>  <PREDICTED SPECTRUM>  (2657) 
14 1
15 89
16 9
27 10
28 22
29 101
30 11
31 63
37 3
38 14
39 47
40 18
41 65
42 7
43 87
44 104
45 149
49 28
50 170
51 78
52 65
53 113
57 68
59 390
61 32
62 111
63 230
64 106
65 57
66 50
74 225
75 322
76 144
77 206
78 99
79 39
80 2
85 24
88 5
89 169
90 156
91 131
92 100
93 11
101 75
102 37
103 232
104 199
105 156
106 64
107 16
117 206
118 98
119 209
120 103
121 49
122 68
123 9
131 65
132 87
133 245
134 205
135 140
146 3
147 182
148 216
149 253
150 229
151 113
161 257
162 265
163 244
164 51
165 128
166 13
175 22
176 56
177 252
178 262
179 81
180 7
190 25
191 83
192 34
193 375
194 104
207 171
221 999
222 415
223 243
224 70
251 83
252 782
253 297
254 86

$$$$

     RDKit          2D

 14 14  0  0  0  0  0  0  0  0999 V2000
   -3.5370    2.7954    0.0000 C   0  0  0  0  0  0  0  0  0  0  0  0
   -3.5374   -1.7051    0.0000 C   0  0  0  0  0  0  0  0  0  0  0  0
    1.6597   -0.2038    0.0000 C   0  0  0  0  0  0  0  0  0  0  0  0
    0.3606    0.5462    0.0000 C   0  0  0  0  0  0  0  0  0  0  0  0
    0.3597   -2.4555    0.0000 C   0  0  0  0  0  0  0  0  0  0  0  0
    2.9582   -2.4546    0.0000 C   0  0  0  0  0  0  0  0  0  0  0  0
   -2.2379    2.0454    0.0000 C   0  0  0  0  0  0  0  0  0  0  0  0
    1.6592   -1.7046    0.0000 C   0  0  0  0  0  0  0  0  0  0  0  0
   -0.9389   -0.2046    0.0000 C   0  0  0  0  0  0  0  0  0  0  0  0
   -0.9394   -1.7055    0.0000 C   0  0  0  0  0  0  0  0  0  0  0  0
    4.2573   -1.7046    0.0000 O   0  0  0  0  0  0  0  0  0  0  0  0
   -0.9389    2.7954    0.0000 O   0  0  0  0  0  0  0  0  0  0  0  0
   -2.2385   -2.4553    0.0000 O   0  0  0  0  0  0  0  0  0  0  0  0
   -2.2379    0.5454    0.0000 O   0  0  0  0  0  0  0  0  0  0  0  0
  4  3  2  0
  7  1  1  0
  8  3  1  0
  8  5  2  0
  8  6  1  0
  9  4  1  0
 10  5  1  0
 10  9  2  0
 11  6  2  0
 12  7  2  0
 13  2  1  0
 13 10  1  0
 14  7  1  0
 14  9  1  0
M  END
>  <NAME>  (2658) 
ACETYLVANILLIN

>  <SYNONYMS>  (2658) 
4-ACETYLOXY-3-METHOXYBENZALDEHYDE

>  <SPECTRUM TYPE>  (2658) 
MS1

>  <INSTRUMENT TYPE>  (2658) 
EI-B

>  <INSTRUMENT>  (2658) 
HITACHI M-60

>  <ION MODE>  (2658) 
P

>  <INCHIKEY>  (2658) 
PZSJOBKRSVRODF-UHFFFAOYSA-N

>  <FORMULA>  (2658) 
C10H10O4

>  <EXACT MASS>  (2658) 
194.0579088

>  <MW>  (2658) 
194

>  <ID>  (2658) 
JP008261

>  <CONTRIBUTOR>  (2658) 
University of Tokyo Team, {Faculty of Engineering, University of Tokyo

>  <COMMENT>  (2658) 
SMILES=O=Cc(c1)cc(OC)c(OC(C)=O)c1
cas=881-68-5
InChI=InChI=1S/C10H10O4/c1-7(12)14-9-4-3-8(6-11)5-10(9)13-2/h3-6H,1-2H3
computed SMILES=O=CC1=CC=C(OC(=O)C)C(OC)=C1
accession=JP008261
date=2016.01.19 (Created 2008.10.21, modified 2011.05.06)
author=UBE SCIENTIFIC ANALYSIS LABORATORY
license=CC BY-NC-SA
exact mass=194.05791
ionization energy=70 eV
ion type=[M]+*
computed spectral entropy=2.443273519000977
computed normalized entropy=0.6872107812638282
SPLASH=splash10-0udi-5900000000-dafb7d592101c808382c
submitter=submitter = University of Tokyo Team (Faculty of Engineering, University of Tokyo)
MoNA Rating=3.75

>  <NUM PEAKS>  (2658) 
35

>  <MASS SPECTRAL PEAKS>  (2658) 
15 8.31
27 1.53
29 1.8
38 1.06
39 3.35
41 2.83
42 1.25
43 46.94
44 0.97
50 3.42
51 8.81
52 5.82
53 3.64
55 1.17
62 1.21
63 3.12
64 0.81
65 4.14
67 1.08
77 2.6
79 6.17
80 2.64
81 4.9
95 2.65
108 1.64
109 7.26
119 1.09
123 1.08
137 3.96
150 4.92
151 61.18
152 99.99
153 9.05
194 7.19
195 0.73

>  <PREDICTED SPECTRUM>  (2658) 
14 22
15 84
25 1
26 52
27 108
28 25
29 85
31 34
37 51
38 105
39 190
40 45
41 179
42 119
43 396
44 69
45 3
49 59
50 167
51 261
52 223
53 247
54 98
55 44
61 102
62 127
63 214
64 114
65 230
66 157
67 149
68 55
69 45
74 50
75 60
76 58
77 185
78 75
79 255
80 161
81 262
82 92
83 26
91 119
92 105
93 180
94 117
95 260
96 44
105 61
106 51
107 80
108 115
109 223
110 49
119 41
121 95
122 135
123 349
124 140
125 7
135 31
137 275
138 20
149 18
151 751
152 999
153 312
154 93
194 174
195 37

$$$$

     RDKit          2D

 22 22  0  0  0  0  0  0  0  0999 V2000
   -5.2000    0.0000    0.0000 C   0  0  0  0  0  0  0  0  0  0  0  0
   -5.2000    1.5000    0.0000 C   0  0  0  0  0  0  0  0  0  0  0  0
   -3.9000   -0.7500    0.0000 C   0  0  0  0  0  0  0  0  0  0  0  0
   -3.9000    2.2500    0.0000 C   0  0  0  0  0  0  0  0  0  0  0  0
   -2.6000    0.0000    0.0000 C   0  0  0  0  0  0  0  0  0  0  0  0
   -3.9000    3.7500    0.0000 C   0  0  0  0  0  0  0  0  0  0  0  0
    5.2000    1.5000    0.0000 C   0  0  0  0  0  0  0  0  0  0  0  0
    3.9000    2.2500    0.0000 C   0  0  0  0  0  0  0  0  0  0  0  0
   -1.3000   -0.7500    0.0000 C   0  0  0  0  0  0  0  0  0  0  0  0
   -2.6000    4.5000    0.0000 C   0  0  0  0  0  0  0  0  0  0  0  0
    5.2000   -0.0000    0.0000 C   0  0  0  0  0  0  0  0  0  0  0  0
    3.9000    3.7500    0.0000 C   0  0  0  0  0  0  0  0  0  0  0  0
   -0.0000   -0.0000    0.0000 C   0  0  0  0  0  0  0  0  0  0  0  0
   -1.3000    3.7500    0.0000 C   0  0  0  0  0  0  0  0  0  0  0  0
    3.9000   -0.7500    0.0000 C   0  0  0  0  0  0  0  0  0  0  0  0
    2.6000    4.5000    0.0000 C   0  0  0  0  0  0  0  0  0  0  0  0
    1.3000   -0.7500    0.0000 C   0  0  0  0  0  0  0  0  0  0  0  0
    0.0000    4.5000    0.0000 C   0  0  0  0  0  0  0  0  0  0  0  0
    1.3000   -2.2500    0.0000 O   0  0  0  0  0  0  0  0  0  0  0  0
    0.0000    6.0000    0.0000 O   0  0  0  0  0  0  0  0  0  0  0  0
    2.6000   -0.0000    0.0000 O   0  0  0  0  0  0  0  0  0  0  0  0
    1.3000    3.7500    0.0000 O   0  0  0  0  0  0  0  0  0  0  0  0
  2  1  1  0
  3  1  1  0
  4  2  1  0
  5  3  1  0
  6  4  1  0
  8  7  1  0
  9  5  1  0
 10  6  1  0
 11  7  1  0
 12  8  1  0
 13  9  1  0
 14 10  1  0
 15 11  1  0
 16 12  1  0
 17 13  1  0
 18 14  1  0
 19 17  2  0
 20 18  2  0
 21 15  1  0
 21 17  1  0
 22 16  1  0
 22 18  1  0
M  END
>  <NAME>  (2659) 
HEXANEDIOL DODECANEDIOATE

>  <SYNONYMS>  (2659) 
2,9-DIOXACYCLOICOSAN-1,10-DIONE

>  <SPECTRUM TYPE>  (2659) 
MS1

>  <INSTRUMENT TYPE>  (2659) 
EI-B

>  <INSTRUMENT>  (2659) 
HITACHI M-60

>  <ION MODE>  (2659) 
P

>  <INCHIKEY>  (2659) 
VPNRJIKJACGVJW-UHFFFAOYSA-N

>  <FORMULA>  (2659) 
C18H32O4

>  <EXACT MASS>  (2659) 
312.230059504

>  <MW>  (2659) 
312

>  <ID>  (2659) 
JP008260

>  <CONTRIBUTOR>  (2659) 
University of Tokyo Team, {Faculty of Engineering, University of Tokyo

>  <COMMENT>  (2659) 
SMILES=O=C(C1)OCCCCCCOC(=O)CCCCCCCCC1
InChI=InChI=1S/C18H32O4/c19-17-13-9-5-3-1-2-4-6-10-14-18(20)22-16-12-8-7-11-15-21-17/h1-16H2
computed SMILES=O=C1OCCCCCCOC(=O)CCCCCCCCCC1
accession=JP008260
date=2016.01.19 (Created 2008.10.21, modified 2011.05.06)
author=UBE SCIENTIFIC ANALYSIS LABORATORY
license=CC BY-NC-SA
exact mass=312.23006
ionization energy=70 eV
ion type=[M]+*
computed spectral entropy=3.8586057674169574
computed normalized entropy=0.8415775652427907
SPLASH=splash10-053u-9200000000-b019585061d054bdbb62
submitter=submitter = University of Tokyo Team (Faculty of Engineering, University of Tokyo)
MoNA Rating=3.75

>  <NUM PEAKS>  (2659) 
98

>  <MASS SPECTRAL PEAKS>  (2659) 
17 2.92
27 9.23
28 2.43
29 19.1
31 2.18
39 10.47
40 1.64
41 61.51
42 23.56
43 27.88
44 1.39
45 4.13
53 6.33
54 25.7
55 99.99
56 14.22
57 10.79
58 5.01
59 2.78
60 3.89
67 26.06
68 8.2
69 26.1
70 7.56
71 9.86
72 1.18
73 7.12
79 3.12
80 2.43
81 16.82
82 65.75
83 51.66
84 27.72
85 8.72
86 1.32
87 1.64
91 1.62
93 3.72
94 3.32
95 5.27
96 5.92
97 14.64
98 45.52
99 14.61
100 3.4
101 14.9
105 1.67
107 2.28
108 2.65
109 5.69
110 3.34
111 9.29
112 18.66
113 3.45
114 2.75
115 7.43
119 2.22
121 1.49
123 4.48
124 3.25
125 6.64
126 2.05
127 2.51
129 8.03
133 2.08
134 2.01
135 6.94
137 2.06
138 1.61
139 1.19
141 1.06
142 3.84
143 2.11
147 1.63
148 1.36
149 5.17
150 1.23
151 1.57
152 19.6
153 5.52
155 1.46
161 1.97
165 1.23
166 5.58
167 3.57
168 1.87
193 1.09
194 5.66
195 2.71
210 1.1
213 36.39
214 5.26
215 4.33
229 8.47
230 1.09
265 7.34
266 1.22
312 1.85

>  <PREDICTED SPECTRUM>  (2659) 
17 10
18 5
26 67
27 253
28 131
29 305
30 50
31 148
32 8
36 24
38 19
39 263
40 134
41 793
42 461
43 470
44 167
45 212
46 41
48 3
51 14
52 7
53 213
54 408
55 999
56 484
57 392
58 172
59 199
60 212
61 83
65 75
66 132
67 487
68 405
69 679
70 361
71 268
72 92
73 314
74 94
75 36
76 19
77 85
78 26
79 195
80 206
81 388
82 480
83 655
84 628
85 264
86 124
87 195
88 136
89 5
91 78
92 17
93 172
94 213
95 373
96 419
97 487
98 823
99 293
100 166
101 300
102 38
103 32
104 0
105 74
106 75
107 146
108 199
109 299
110 236
111 396
112 290
113 229
114 121
115 118
116 86
117 72
118 84
119 178
120 69
121 125
122 139
123 229
124 254
125 287
126 224
127 203
128 156
129 276
130 52
131 83
132 81
133 107
134 106
135 125
136 102
137 171
138 173
139 111
140 119
141 113
142 100
143 114
144 48
145 120
146 7
147 175
148 190
149 168
150 89
151 184
152 265
153 157
154 107
155 213
156 89
157 106
158 53
159 11
160 47
161 108
162 19
163 81
164 135
165 153
166 310
167 198
168 106
169 155
170 52
171 108
172 56
173 43
174 18
175 39
176 1
177 45
178 84
179 47
180 87
181 109
182 120
183 136
184 130
185 84
186 51
187 102
188 59
189 15
190 14
191 6
193 81
194 80
195 96
196 80
197 90
198 94
199 88
200 5
201 35
202 11
208 37
209 43
210 86
211 121
212 58
213 146
214 81
215 139
223 19
224 12
225 22
226 4
227 40
229 130
230 163
232 33
237 12
239 23
240 6
244 36
250 47
251 80
252 72
253 42
255 3
265 96
266 78
267 50
268 4
269 59
270 43
276 87
277 42
284 25
285 28
294 15
295 27
296 52
312 156
313 30

$$$$

     RDKit          2D

 12 13  0  0  0  0  0  0  0  0999 V2000
   -2.6000   -0.7500    0.0000 C   0  0  0  0  0  0  0  0  0  0  0  0
   -1.3000   -1.5000    0.0000 C   0  0  0  0  0  0  0  0  0  0  0  0
   -1.3000    1.5000    0.0000 C   0  0  0  0  0  0  0  0  0  0  0  0
    2.6000    0.7500    0.0000 C   0  0  0  0  0  0  0  0  0  0  0  0
   -2.6000    0.7500    0.0000 C   0  0  0  0  0  0  0  0  0  0  0  0
    0.0000   -0.7500    0.0000 C   0  0  0  0  0  0  0  0  0  0  0  0
    0.0000    0.7500    0.0000 C   0  0  0  0  0  0  0  0  0  0  0  0
    1.3000   -1.5000    0.0000 C   0  0  0  0  0  0  0  0  0  0  0  0
   -3.8989    1.5002    0.0000 Cl  0  0  0  0  0  0  0  0  0  0  0  0
    1.3000    1.5000    0.0000 N   0  0  0  0  0  0  0  0  0  0  0  0
    2.6000   -0.7500    0.0000 N   0  0  0  0  0  0  0  0  0  0  0  0
    1.3000   -3.0000    0.0000 O   0  0  0  0  0  0  0  0  0  0  0  0
  2  1  2  0
  5  1  1  0
  5  3  2  0
  6  2  1  0
  7  3  1  0
  7  6  2  0
  8  6  1  0
  9  5  1  0
 10  4  2  0
 10  7  1  0
 11  4  1  0
 11  8  2  0
 12  8  1  0
M  END
>  <NAME>  (2660) 
7-CHLOR0-4-HYDROXYBENZOPYLIMIDINE

>  <SYNONYMS>  (2660) 


>  <SPECTRUM TYPE>  (2660) 
MS1

>  <INSTRUMENT TYPE>  (2660) 
EI-B

>  <INSTRUMENT>  (2660) 
HITACHI M-60

>  <ION MODE>  (2660) 
P

>  <INCHIKEY>  (2660) 
PMLONMIODRHERC-UHFFFAOYSA-N

>  <FORMULA>  (2660) 
C8H5ClN2O

>  <EXACT MASS>  (2660) 
180.00904046

>  <MW>  (2660) 
180

>  <ID>  (2660) 
JP008259

>  <CONTRIBUTOR>  (2660) 
University of Tokyo Team, {Faculty of Engineering, University of Tokyo

>  <COMMENT>  (2660) 
SMILES=Oc(n2)c(c1)c(nc2)cc(Cl)c1
InChI=InChI=1S/C8H5ClN2O/c9-5-1-2-6-7(3-5)10-4-11-8(6)12/h1-4H,(H,10,11,12)
computed SMILES=ClC=1C=CC=2C(O)=NC=NC2C1
accession=JP008259
date=2016.01.19 (Created 2008.10.21, modified 2011.05.06)
author=UBE SCIENTIFIC ANALYSIS LABORATORY
license=CC BY-NC-SA
exact mass=180.00904
ionization energy=70 eV
ion type=[M]+*
computed spectral entropy=3.1428685617259595
computed normalized entropy=0.8075574720784866
SPLASH=splash10-001i-3900000000-b8eadd67b9da1ad59b5b
submitter=submitter = University of Tokyo Team (Faculty of Engineering, University of Tokyo)
MoNA Rating=3.75

>  <NUM PEAKS>  (2660) 
49

>  <MASS SPECTRAL PEAKS>  (2660) 
28 4.21
29 1.13
37 3.88
38 4.42
39 2.42
45 1.14
49 1.84
50 3.77
52 1.71
53 1.17
61 3.87
62 8.71
63 13.78
64 3.57
73 6.2
74 6.33
75 7.29
76 5.69
77 1.55
87 1.56
88 3.05
89 2.95
90 9.26
91 1.25
97 1.84
98 4.52
99 1.19
100 1.71
110 3.12
116 0.98
117 8.14
118 2.57
124 13.69
125 7.18
126 17.21
127 3.15
128 4.29
145 9.5
151 3.18
152 10.99
153 14.5
154 5.02
155 4.48
178 1.77
179 37.19
180 99.99
181 21.02
182 34.27
183 3.23

>  <PREDICTED SPECTRUM>  (2660) 
25 3
35 10
36 41
37 111
38 109
39 58
40 29
41 3
43 109
44 60
47 31
48 24
49 159
50 300
51 291
52 226
53 171
54 65
55 55
56 42
60 121
61 238
62 302
63 299
64 188
65 113
66 36
67 18
69 6
71 18
72 67
73 237
74 248
75 294
76 286
77 188
78 16
82 6
84 184
85 110
86 114
87 125
88 174
89 331
90 324
91 179
92 50
97 146
98 228
99 165
100 178
104 36
110 70
111 59
116 96
117 280
118 81
123 151
124 340
125 348
126 322
127 210
128 71
129 25
136 33
145 372
146 99
147 37
151 191
152 424
153 305
154 257
155 132
164 28
179 218
180 999
181 362
182 577
183 160
184 29

$$$$

     RDKit          2D

 12 13  0  0  0  0  0  0  0  0999 V2000
   -2.6000   -0.7500    0.0000 C   0  0  0  0  0  0  0  0  0  0  0  0
   -1.3000   -1.5000    0.0000 C   0  0  0  0  0  0  0  0  0  0  0  0
   -1.3000    1.5000    0.0000 C   0  0  0  0  0  0  0  0  0  0  0  0
    2.6000    0.7500    0.0000 C   0  0  0  0  0  0  0  0  0  0  0  0
   -2.6000    0.7500    0.0000 C   0  0  0  0  0  0  0  0  0  0  0  0
    0.0000   -0.7500    0.0000 C   0  0  0  0  0  0  0  0  0  0  0  0
    0.0000    0.7500    0.0000 C   0  0  0  0  0  0  0  0  0  0  0  0
    1.3000   -1.5000    0.0000 C   0  0  0  0  0  0  0  0  0  0  0  0
   -3.8989    1.5002    0.0000 Cl  0  0  0  0  0  0  0  0  0  0  0  0
    1.3000   -3.0000    0.0000 Cl  0  0  0  0  0  0  0  0  0  0  0  0
    1.3000    1.5000    0.0000 N   0  0  0  0  0  0  0  0  0  0  0  0
    2.6000   -0.7500    0.0000 N   0  0  0  0  0  0  0  0  0  0  0  0
  2  1  2  0
  5  1  1  0
  5  3  2  0
  6  2  1  0
  7  3  1  0
  7  6  2  0
  8  6  1  0
  9  5  1  0
 10  8  1  0
 11  4  2  0
 11  7  1  0
 12  4  1  0
 12  8  2  0
M  END
>  <NAME>  (2661) 
4,7-DICHLOROBENZOPYLIMIDINE

>  <SYNONYMS>  (2661) 


>  <SPECTRUM TYPE>  (2661) 
MS1

>  <INSTRUMENT TYPE>  (2661) 
EI-B

>  <INSTRUMENT>  (2661) 
HITACHI M-60

>  <ION MODE>  (2661) 
P

>  <INCHIKEY>  (2661) 
FDPHWQSGEWRZOL-UHFFFAOYSA-N

>  <FORMULA>  (2661) 
C8H4Cl2N2

>  <EXACT MASS>  (2661) 
197.975153488

>  <MW>  (2661) 
198

>  <ID>  (2661) 
JP008258

>  <CONTRIBUTOR>  (2661) 
University of Tokyo Team, {Faculty of Engineering, University of Tokyo

>  <COMMENT>  (2661) 
SMILES=Clc(c2)cc(n1)c(c2)c(Cl)nc1
InChI=InChI=1S/C8H4Cl2N2/c9-5-1-2-6-7(3-5)11-4-12-8(6)10/h1-4H
computed SMILES=ClC=1C=CC=2C(Cl)=NC=NC2C1
accession=JP008258
date=2016.01.19 (Created 2008.10.21, modified 2011.05.06)
author=UBE SCIENTIFIC ANALYSIS LABORATORY
license=CC BY-NC-SA
exact mass=197.97515
ionization energy=70 eV
ion type=[M]+*
computed spectral entropy=2.9491118190805365
computed normalized entropy=0.7840879847832086
SPLASH=splash10-0ik9-3910000000-0b8a100bfc249caa2905
submitter=submitter = University of Tokyo Team (Faculty of Engineering, University of Tokyo)
MoNA Rating=3.75

>  <NUM PEAKS>  (2661) 
43

>  <MASS SPECTRAL PEAKS>  (2661) 
36 1.29
37 4.34
38 2.56
49 2.59
50 15.84
51 3.26
61 3.01
62 3.2
63 2.52
64 4.31
72 1.86
73 4.71
74 9.15
75 13.27
76 4.12
81 8.22
83 2.64
84 2.37
85 3.22
86 2.42
87 1.33
98 1.01
99 9.03
100 25.3
101 5.97
109 3.94
110 2.33
111 1.29
127 1.12
134 1.2
135 1.17
136 23.79
137 2.45
138 7.2
163 99.99
164 9.13
165 29.86
166 2.88
198 49.69
199 5.22
200 32.56
201 3.19
202 5.54

>  <PREDICTED SPECTRUM>  (2661) 
25 4
35 12
36 15
37 71
38 86
39 114
40 19
43 115
44 49
47 62
48 2
49 151
50 245
51 191
52 116
53 32
55 49
56 50
57 48
60 119
61 137
62 199
63 212
64 142
69 32
70 13
71 35
72 121
73 306
74 240
75 303
76 135
77 52
78 0
80 5
81 71
82 42
83 5
84 196
85 110
86 187
87 128
88 22
93 28
96 13
97 38
98 103
99 245
100 286
101 185
102 157
103 34
107 14
108 83
109 69
110 109
111 16
112 32
126 32
127 246
128 119
129 26
134 8
135 220
136 276
137 217
138 161
144 15
163 999
164 341
165 532
166 182
170 8
197 7
198 669
199 197
200 478
201 112
202 165

$$$$

     RDKit          2D

 16 17  0  0  0  0  0  0  0  0999 V2000
    4.8887    1.6383    0.0000 C   0  0  0  0  0  0  0  0  0  0  0  0
    4.8891    3.1391    0.0000 C   0  0  0  0  0  0  0  0  0  0  0  0
    3.5891    0.8875    0.0000 C   0  0  0  0  0  0  0  0  0  0  0  0
    3.5901    3.8891    0.0000 C   0  0  0  0  0  0  0  0  0  0  0  0
    2.2901    1.6375    0.0000 C   0  0  0  0  0  0  0  0  0  0  0  0
   -2.8978    6.1680    0.0000 C   0  0  0  0  0  0  0  0  0  0  0  0
   -4.2296    3.9541    0.0000 C   0  0  0  0  0  0  0  0  0  0  0  0
   -1.6193    5.4326    0.0000 C   0  0  0  0  0  0  0  0  0  0  0  0
   -2.9117    3.1491    0.0000 C   0  0  0  0  0  0  0  0  0  0  0  0
   -5.4920    6.1958    0.0000 C   0  0  0  0  0  0  0  0  0  0  0  0
    0.9915    3.8883    0.0000 C   0  0  0  0  0  0  0  0  0  0  0  0
   -4.2030    5.4288    0.0000 C   0  0  0  0  0  0  0  0  0  0  0  0
    2.2906    3.1383    0.0000 C   0  0  0  0  0  0  0  0  0  0  0  0
   -1.6065    3.8883    0.0000 C   0  0  0  0  0  0  0  0  0  0  0  0
   -6.8008    5.4630    0.0000 O   0  0  0  0  0  0  0  0  0  0  0  0
   -0.3075    3.1383    0.0000 O   0  0  0  0  0  0  0  0  0  0  0  0
  2  1  2  0
  3  1  1  0
  4  2  1  0
  5  3  2  0
  8  6  2  0
  9  7  1  0
 12  6  1  0
 12  7  2  0
 12 10  1  0
 13  4  2  0
 13  5  1  0
 13 11  1  0
 14  8  1  0
 14  9  2  0
 15 10  2  0
 16 11  1  0
 16 14  1  0
M  END
>  <NAME>  (2662) 
4-BENZYLOXYBENZALDEHYDE

>  <SYNONYMS>  (2662) 


>  <SPECTRUM TYPE>  (2662) 
MS1

>  <INSTRUMENT TYPE>  (2662) 
EI-B

>  <INSTRUMENT>  (2662) 
HITACHI M-60

>  <ION MODE>  (2662) 
P

>  <INCHIKEY>  (2662) 
ZVTWZSXLLMNMQC-UHFFFAOYSA-N

>  <FORMULA>  (2662) 
C14H12O2

>  <EXACT MASS>  (2662) 
212.083729624

>  <MW>  (2662) 
212

>  <ID>  (2662) 
JP008257

>  <CONTRIBUTOR>  (2662) 
University of Tokyo Team, {Faculty of Engineering, University of Tokyo

>  <COMMENT>  (2662) 
SMILES=O=Cc(c2)ccc(c2)OCc(c1)cccc1
cas=4397-53-9
InChI=InChI=1S/C14H12O2/c15-10-12-6-8-14(9-7-12)16-11-13-4-2-1-3-5-13/h1-10H,11H2
computed SMILES=O=CC1=CC=C(OCC=2C=CC=CC2)C=C1
accession=JP008257
date=2016.01.19 (Created 2008.10.21, modified 2011.05.06)
author=UBE SCIENTIFIC ANALYSIS LABORATORY
license=CC BY-NC-SA
exact mass=212.08373
ionization energy=70 eV
ion type=[M]+*
computed spectral entropy=1.104770145561586
computed normalized entropy=0.44459221261122195
SPLASH=splash10-0006-9000000000-8bbddd50a3b9e2c3790c
submitter=submitter = University of Tokyo Team (Faculty of Engineering, University of Tokyo)
MoNA Rating=3.75

>  <NUM PEAKS>  (2662) 
12

>  <MASS SPECTRAL PEAKS>  (2662) 
39 5.4
41 1.18
51 2.15
63 2.28
64 0.93
65 10.05
89 1.2
90 0.61
91 99.99
92 7.51
212 3.81
213 0.55

>  <PREDICTED SPECTRUM>  (2662) 
27 6
36 0
37 14
38 66
39 116
40 57
41 115
42 18
49 29
50 108
51 155
52 98
53 55
54 4
62 75
63 152
64 90
65 316
66 58
74 8
75 13
76 34
77 112
78 39
79 38
89 113
90 50
91 999
92 261
93 64
120 15
121 35
212 252
213 90

$$$$

     RDKit          2D

 15 15  0  0  0  0  0  0  0  0999 V2000
    5.2663    0.0452    0.0000 C   0  0  0  0  0  0  0  0  0  0  0  0
   -1.2296    3.7956    0.0000 C   0  0  0  0  0  0  0  0  0  0  0  0
    0.0690   -2.9558    0.0000 C   0  0  0  0  0  0  0  0  0  0  0  0
    1.3686   -2.2050    0.0000 C   0  0  0  0  0  0  0  0  0  0  0  0
   -1.2300   -2.2058    0.0000 C   0  0  0  0  0  0  0  0  0  0  0  0
    1.3690   -0.7042    0.0000 C   0  0  0  0  0  0  0  0  0  0  0  0
   -1.2295   -0.7050    0.0000 C   0  0  0  0  0  0  0  0  0  0  0  0
    0.0700    0.0458    0.0000 C   0  0  0  0  0  0  0  0  0  0  0  0
    2.6682    0.0456    0.0000 C   0  0  0  0  0  0  0  0  0  0  0  0
    0.0698    1.5458    0.0000 C   0  0  0  0  0  0  0  0  0  0  0  0
   -2.5286    0.0450    0.0000 O   0  0  0  0  0  0  0  0  0  0  0  0
    2.6684    1.5456    0.0000 O   0  0  0  0  0  0  0  0  0  0  0  0
    1.3687    2.2960    0.0000 O   0  0  0  0  0  0  0  0  0  0  0  0
    3.9671   -0.7046    0.0000 O   0  0  0  0  0  0  0  0  0  0  0  0
   -1.2294    2.2956    0.0000 O   0  0  0  0  0  0  0  0  0  0  0  0
  4  3  2  0
  5  3  1  0
  6  4  1  0
  7  5  2  0
  8  6  2  0
  8  7  1  0
  9  6  1  0
 10  8  1  0
 11  7  1  0
 12  9  2  0
 13 10  2  0
 14  1  1  0
 14  9  1  0
 15  2  1  0
 15 10  1  0
M  END
>  <NAME>  (2663) 
DIMETHYL 3-HYDROXYPHTHALATE

>  <SYNONYMS>  (2663) 


>  <SPECTRUM TYPE>  (2663) 
MS1

>  <INSTRUMENT TYPE>  (2663) 
EI-B

>  <INSTRUMENT>  (2663) 
HITACHI M-60

>  <ION MODE>  (2663) 
P

>  <INCHIKEY>  (2663) 
BQGDDMMXPRJQHZ-UHFFFAOYSA-N

>  <FORMULA>  (2663) 
C10H10O5

>  <EXACT MASS>  (2663) 
210.05282341999998

>  <MW>  (2663) 
210

>  <ID>  (2663) 
JP008256

>  <CONTRIBUTOR>  (2663) 
University of Tokyo Team, {Faculty of Engineering, University of Tokyo

>  <COMMENT>  (2663) 
SMILES=COC(=O)c(c1)c(C(=O)OC)c(O)cc1
InChI=InChI=1S/C10H10O5/c1-14-9(12)6-4-3-5-7(11)8(6)10(13)15-2/h3-5,11H,1-2H3
computed SMILES=O=C(OC)C=1C=CC=C(O)C1C(=O)OC
accession=JP008256
date=2016.01.19 (Created 2008.10.21, modified 2011.05.06)
author=UBE SCIENTIFIC ANALYSIS LABORATORY
license=CC BY-NC-SA
exact mass=210.05282
ionization energy=70 eV
ion type=[M]+*
computed spectral entropy=2.3240894929679916
computed normalized entropy=0.6833150894148389
SPLASH=splash10-004i-3910000000-3aeb05827c94a5ff1004
submitter=submitter = University of Tokyo Team (Faculty of Engineering, University of Tokyo)
MoNA Rating=3.75

>  <NUM PEAKS>  (2663) 
30

>  <MASS SPECTRAL PEAKS>  (2663) 
15 6.14
29 1.56
39 2.92
51 1.24
52 1.32
53 2.53
59 1.28
62 2.7
63 7.61
64 1.79
65 6.52
69 1.01
80 1.8
92 4.56
93 6.18
95 1.81
107 1.04
108 5.21
119 2.21
120 2.83
121 2.94
136 3.39
149 5.62
151 6.3
152 0.99
179 99.99
180 10.38
181 1.94
210 23.46
211 2.45

>  <PREDICTED SPECTRUM>  (2663) 
14 17
15 120
16 20
17 1
18 8
25 2
26 17
27 8
28 43
29 97
30 50
31 64
36 10
37 80
38 105
39 100
40 0
41 10
44 59
45 17
49 40
50 136
51 126
52 137
53 212
54 66
59 165
61 82
62 161
63 278
64 197
65 208
66 101
67 45
68 28
76 1
77 26
79 63
80 99
81 25
82 18
90 9
91 134
92 291
93 196
94 62
95 37
107 68
108 192
119 144
120 370
121 189
135 7
136 217
147 25
148 133
149 275
151 152
152 53
164 50
165 111
178 139
179 999
180 309
181 94
210 556
211 172
212 52

$$$$

     RDKit          2D

  7  6  0  0  0  0  0  0  0  0999 V2000
    1.2990    2.2500    0.0000 C   0  0  0  0  0  0  0  0  0  0  0  0
   -3.8971    2.2500    0.0000 C   0  0  0  0  0  0  0  0  0  0  0  0
    0.0000    3.0000    0.0000 C   0  0  0  0  0  0  0  0  0  0  0  0
   -2.5981    3.0000    0.0000 C   0  0  0  0  0  0  0  0  0  0  0  0
   -1.2990    0.7500    0.0000 N   0  0  0  0  0  0  0  0  0  0  0  0
   -1.2990    2.2500    0.0000 N   0  0  0  0  0  0  0  0  0  0  0  0
   -0.0000    0.0000    0.0000 O   0  0  0  0  0  0  0  0  0  0  0  0
  3  1  1  0
  4  2  1  0
  6  3  1  0
  6  4  1  0
  6  5  1  0
  7  5  2  0
M  END
>  <NAME>  (2664) 
DIETHYLNITROSAMINE

>  <SYNONYMS>  (2664) 
DIETHYLNITROSAMIDE

>  <SPECTRUM TYPE>  (2664) 
MS1

>  <INSTRUMENT TYPE>  (2664) 
EI-B

>  <INSTRUMENT>  (2664) 
HITACHI M-60

>  <ION MODE>  (2664) 
P

>  <INCHIKEY>  (2664) 
WBNQDOYYEUMPFS-UHFFFAOYSA-N

>  <FORMULA>  (2664) 
C4H10N2O

>  <EXACT MASS>  (2664) 
102.07931294

>  <MW>  (2664) 
102

>  <ID>  (2664) 
JP008254

>  <CONTRIBUTOR>  (2664) 
University of Tokyo Team, {Faculty of Engineering, University of Tokyo

>  <COMMENT>  (2664) 
SMILES=CCN(CC)N=O
cas=55-18-5
InChI=InChI=1S/C4H10N2O/c1-3-6(4-2)5-7/h3-4H2,1-2H3
computed SMILES=O=NN(CC)CC
accession=JP008254
date=2016.01.19 (Created 2008.10.21, modified 2011.05.06)
author=UBE SCIENTIFIC ANALYSIS LABORATORY
license=CC BY-NC-SA
exact mass=102.07931
ionization energy=70 eV
ion type=[M]+*
computed spectral entropy=2.5109130048189536
computed normalized entropy=0.7800589837670314
SPLASH=splash10-0kbf-9100000000-e299edc73489a6d92507
submitter=submitter = University of Tokyo Team (Faculty of Engineering, University of Tokyo)
MoNA Rating=3.75

>  <NUM PEAKS>  (2664) 
25

>  <MASS SPECTRAL PEAKS>  (2664) 
14 3.12
15 12.42
18 33.13
26 6.31
27 35.88
28 27.25
29 65.95
30 8.33
40 1.78
41 7.45
42 87.78
43 4.64
44 98.69
45 4.43
54 0.82
55 1.31
56 49.78
57 49.24
70 2.51
71 4.96
73 1.19
85 2.74
87 3.76
102 99.99
103 5.79

>  <PREDICTED SPECTRUM>  (2664) 
14 115
15 319
16 81
17 55
18 111
19 27
25 55
26 242
27 655
28 668
29 962
30 972
31 253
32 101
36 21
38 105
39 456
40 255
41 594
42 999
43 482
44 767
45 173
54 231
55 251
56 975
57 807
58 370
59 151
70 389
71 374
72 451
73 285
74 111
83 49
85 11
86 13
87 516
88 175
102 653
103 192

$$$$

     RDKit          2D

 15 14  0  0  0  0  0  0  0  0999 V2000
   -3.5724    7.6875    0.0000 C   0  0  0  0  0  0  0  0  0  0  0  0
   -4.8714    8.4375    0.0000 C   0  0  0  0  0  0  0  0  0  0  0  0
   -2.2733    8.4375    0.0000 C   0  0  0  0  0  0  0  0  0  0  0  0
   -6.1704    7.6875    0.0000 C   0  0  0  0  0  0  0  0  0  0  0  0
   -0.9743    7.6875    0.0000 C   0  0  0  0  0  0  0  0  0  0  0  0
   -7.4695    8.4375    0.0000 C   0  0  0  0  0  0  0  0  0  0  0  0
    0.3248    8.4375    0.0000 C   0  0  0  0  0  0  0  0  0  0  0  0
   -8.7685    7.6875    0.0000 C   0  0  0  0  0  0  0  0  0  0  0  0
    1.6238    7.6875    0.0000 C   0  0  0  0  0  0  0  0  0  0  0  0
  -10.0675    8.4375    0.0000 C   0  0  0  0  0  0  0  0  0  0  0  0
    2.9228    8.4375    0.0000 C   0  0  0  0  0  0  0  0  0  0  0  0
  -11.3666    7.6875    0.0000 C   0  0  0  0  0  0  0  0  0  0  0  0
    4.2219    7.6875    0.0000 N   0  0  0  0  0  0  0  0  0  0  0  0
  -12.6656    8.4375    0.0000 N   0  0  0  0  0  0  0  0  0  0  0  0
  -11.3666    6.1875    0.0000 O   0  0  0  0  0  0  0  0  0  0  0  0
  2  1  1  0
  3  1  1  0
  4  2  1  0
  5  3  1  0
  6  4  1  0
  7  5  1  0
  8  6  1  0
  9  7  1  0
 10  8  1  0
 11  9  1  0
 12 10  1  0
 13 11  1  0
 14 12  2  0
 15 12  1  0
M  END
>  <NAME>  (2665) 
12-AMINODODECANAMIDE

>  <SYNONYMS>  (2665) 


>  <SPECTRUM TYPE>  (2665) 
MS1

>  <INSTRUMENT TYPE>  (2665) 
EI-B

>  <INSTRUMENT>  (2665) 
HITACHI M-60

>  <ION MODE>  (2665) 
P

>  <INCHIKEY>  (2665) 
SNNMLPUQKZGXOJ-UHFFFAOYSA-N

>  <FORMULA>  (2665) 
C12H26N2O

>  <EXACT MASS>  (2665) 
214.204513452

>  <MW>  (2665) 
214

>  <ID>  (2665) 
JP008250

>  <CONTRIBUTOR>  (2665) 
University of Tokyo Team, {Faculty of Engineering, University of Tokyo

>  <COMMENT>  (2665) 
computed SMILES=N=C(O)CCCCCCCCCCCN
SMILES=NCCCCCCCCCCCC(N)=O
InChI=InChI=1S/C12H26N2O/c13-11-9-7-5-3-1-2-4-6-8-10-12(14)15/h1-11,13H2,(H2,14,15)
accession=JP008250
date=2016.01.19 (Created 2008.10.21, modified 2011.05.06)
author=UBE SCIENTIFIC ANALYSIS LABORATORY
license=CC BY-NC-SA
exact mass=214.20451
ionization energy=70 eV
ion type=[M]+*
computed spectral entropy=3.014411388816059
computed normalized entropy=0.7786760181975427
SPLASH=splash10-05al-9100000000-dbc0e18b5544c6717ee8
submitter=submitter = University of Tokyo Team (Faculty of Engineering, University of Tokyo)
MoNA Rating=3.75

>  <NUM PEAKS>  (2665) 
48

>  <MASS SPECTRAL PEAKS>  (2665) 
29 7.04
30 99.99
31 2.25
39 2.74
41 16.49
42 4.64
43 13.5
44 40.13
45 18.97
46 2.05
53 1.11
54 1.04
55 17.8
56 6.81
57 3.86
58 2.65
59 40.8
60 3.14
67 1.99
69 7.46
70 1.67
71 1.13
72 66.95
73 9.96
81 1.61
83 4.45
84 1.64
86 17.3
87 3.69
95 1.27
97 1.7
98 1.88
100 8.68
101 3.02
114 9.85
115 2.25
128 8.7
129 1.92
142 9.18
143 3.18
156 30.34
157 3.91
170 2.14
185 2.14
196 1.03
213 0.68
214 2.27
215 0.69

>  <PREDICTED SPECTRUM>  (2665) 
15 11
16 13
17 82
18 112
28 145
29 68
30 999
31 93
39 46
40 14
41 556
42 403
43 583
44 848
45 582
46 302
47 56
51 125
52 54
53 157
54 144
55 375
56 439
57 342
58 237
59 799
60 220
63 23
67 187
68 140
69 409
70 335
71 265
72 408
73 173
74 159
77 49
82 43
83 199
84 322
85 194
86 324
87 363
92 22
95 11
98 90
99 96
100 280
101 167
112 77
113 259
114 155
123 63
124 74
126 63
127 372
128 237
132 60
139 22
141 265
142 226
143 17
155 257
156 300
157 42
167 35
169 202
170 251
171 29
179 24
184 26
185 391
195 227
196 4
197 343
198 131
214 331
215 99

$$$$

     RDKit          2D

 14 14  0  0  0  0  0  0  0  0999 V2000
    0.8500    0.5800    0.0000 C   0  0  0  0  0  0  0  0  0  0  0  0
    0.1000   -0.7200    0.0000 C   0  0  0  0  0  0  0  0  0  0  0  0
    2.3500    0.5800    0.0000 C   0  0  0  0  0  0  0  0  0  0  0  0
   -1.4000   -0.7200    0.0000 C   0  0  0  0  0  0  0  0  0  0  0  0
    3.1000    1.8700    0.0000 C   0  0  0  0  0  0  0  0  0  0  0  0
   -2.1500    0.5800    0.0000 C   0  0  0  0  0  0  0  0  0  0  0  0
    0.8500    3.1700    0.0000 C   0  0  0  0  0  0  0  0  0  0  0  0
   -3.6500    0.5800    0.0000 C   0  0  0  0  0  0  0  0  0  0  0  0
    0.1000    4.4700    0.0000 C   0  0  0  0  0  0  0  0  0  0  0  0
   -4.4000    1.8800    0.0000 C   0  0  0  0  0  0  0  0  0  0  0  0
   -1.4000    4.4700    0.0000 C   0  0  0  0  0  0  0  0  0  0  0  0
   -3.6500    3.1700    0.0000 C   0  0  0  0  0  0  0  0  0  0  0  0
   -2.1500    3.1700    0.0000 N   0  0  0  0  0  0  0  0  0  0  0  0
   -4.3980    4.4702    0.0000 O   0  0  0  0  0  0  0  0  0  0  0  0
  2  1  1  0
  3  1  1  0
  4  2  1  0
  5  3  1  0
  6  4  1  0
  7  5  1  0
  8  6  1  0
  9  7  1  0
 10  8  1  0
 11  9  1  0
 12 10  1  0
 13 11  1  0
 12 13  2  0
 14 12  1  0
M  END
>  <NAME>  (2666) 
2-AZACYCLOTRIDECANONE

>  <SYNONYMS>  (2666) 
LAURYLLACTAM

>  <SPECTRUM TYPE>  (2666) 
MS1

>  <INSTRUMENT TYPE>  (2666) 
EI-B

>  <INSTRUMENT>  (2666) 
HITACHI M-60

>  <ION MODE>  (2666) 
P

>  <INCHIKEY>  (2666) 
JHWNWJKBPDFINM-UHFFFAOYSA-N

>  <FORMULA>  (2666) 
C12H23NO

>  <EXACT MASS>  (2666) 
197.177964356

>  <MW>  (2666) 
197

>  <ID>  (2666) 
JP008249

>  <CONTRIBUTOR>  (2666) 
University of Tokyo Team, {Faculty of Engineering, University of Tokyo

>  <COMMENT>  (2666) 
cas=947-04-6
SMILES=O=C(C1)NCCCCCCCCCC1
InChI=InChI=1S/C12H23NO/c14-12-10-8-6-4-2-1-3-5-7-9-11-13-12/h1-11H2,(H,13,14)
computed SMILES=OC1=NCCCCCCCCCCC1
accession=JP008249
date=2016.01.19 (Created 2008.10.21, modified 2011.05.06)
author=UBE SCIENTIFIC ANALYSIS LABORATORY
license=CC BY-NC-SA
exact mass=197.17796
ionization energy=70 eV
ion type=[M]+*
computed spectral entropy=3.7895234651380134
computed normalized entropy=0.8832442112828139
SPLASH=splash10-000x-9200000000-a66e8c1a88255ecc9623
submitter=submitter = University of Tokyo Team (Faculty of Engineering, University of Tokyo)
MoNA Rating=3.75

>  <NUM PEAKS>  (2666) 
73

>  <MASS SPECTRAL PEAKS>  (2666) 
18 5.6
27 13.97
28 11.65
29 24.65
30 99.99
31 2.41
39 12.13
40 2.67
41 58.52
42 20.43
43 30.94
44 28.29
45 7.66
53 5.17
54 6.87
55 56.12
56 22.5
57 11.04
58 12.43
59 10.59
60 17.5
67 9.48
68 6.84
69 15.74
70 11.5
71 5.53
72 21.19
73 25.61
74 2.3
79 2.27
80 1.17
81 6.63
82 6.1
83 7.5
84 15.3
85 9.17
86 23.79
87 15.77
88 1.24
93 1.11
94 1.2
95 3.71
96 5.4
97 7.02
98 27.24
99 11.21
100 30.33
101 8.92
109 1.69
110 2.35
111 5.21
112 16.38
113 7.84
114 12.37
115 2.51
125 2.62
126 10.81
127 2.86
128 4.63
129 1.46
138 3.09
140 9.03
141 2.28
142 2.59
154 11.38
155 2.43
156 7.73
168 6.49
169 1.64
182 1.75
196 1.62
197 24.44
198 6.24

>  <PREDICTED SPECTRUM>  (2666) 
14 2
16 2
17 18
18 24
26 94
27 365
28 178
29 383
30 233
31 124
32 13
33 37
34 32
36 35
37 20
38 89
39 570
40 245
41 999
42 542
43 728
44 363
45 291
46 157
47 45
50 63
51 157
52 130
53 341
54 420
55 920
56 544
57 450
58 403
59 320
60 313
61 95
62 44
63 94
64 74
65 138
66 113
67 459
68 381
69 646
70 539
71 353
72 345
73 494
74 249
75 98
77 106
78 80
79 269
80 198
81 327
82 402
83 460
84 521
85 328
86 388
87 338
88 156
89 72
92 32
93 174
94 301
95 410
96 577
97 302
98 645
99 319
100 321
101 244
102 125
105 50
106 22
107 83
108 154
109 270
110 384
111 288
112 458
113 197
114 236
115 97
122 188
123 180
124 167
125 6
126 494
127 237
128 228
129 170
130 31
136 146
137 68
138 72
139 61
140 435
141 171
142 123
143 87
150 12
151 42
152 81
154 340
155 152
156 127
157 44
164 181
168 181
169 119
170 13
180 123
182 175
183 27
195 41
196 162
197 678
198 271
199 82

$$$$

     RDKit          2D

  6  5  0  0  0  0  0  0  0  0999 V2000
   -4.2219    2.8125    0.0000 C   0  0  0  0  0  0  0  0  0  0  0  0
   -0.3248    2.0625    0.0000 C   0  0  0  0  0  0  0  0  0  0  0  0
   -1.6238    2.8125    0.0000 C   0  0  0  0  0  0  0  0  0  0  0  0
    0.9743    1.3125    0.0000 N   0  0  0  0  0  0  0  0  0  0  0  0
   -1.6238    4.3125    0.0000 O   0  0  0  0  0  0  0  0  0  0  0  0
   -2.9228    2.0625    0.0000 O   0  0  0  0  0  0  0  0  0  0  0  0
  3  2  1  0
  4  2  3  0
  5  3  2  0
  6  1  1  0
  6  3  1  0
M  END
>  <NAME>  (2667) 
METHYL CYANOFORMATE

>  <SYNONYMS>  (2667) 


>  <SPECTRUM TYPE>  (2667) 
MS1

>  <INSTRUMENT TYPE>  (2667) 
EI-B

>  <INSTRUMENT>  (2667) 
HITACHI M-60

>  <ION MODE>  (2667) 
P

>  <INCHIKEY>  (2667) 
OBWFJXLKRAFEDI-UHFFFAOYSA-N

>  <FORMULA>  (2667) 
C3H3NO2

>  <EXACT MASS>  (2667) 
85.016378336

>  <MW>  (2667) 
85

>  <ID>  (2667) 
JP008248

>  <CONTRIBUTOR>  (2667) 
University of Tokyo Team, {Faculty of Engineering, University of Tokyo

>  <COMMENT>  (2667) 
SMILES=N#CC(=O)OC
cas=17640-15-2
InChI=InChI=1S/C3H3NO2/c1-6-3(5)2-4/h1H3
computed SMILES=N#CC(=O)OC
accession=JP008248
date=2016.01.19 (Created 2008.10.21, modified 2011.05.06)
author=UBE SCIENTIFIC ANALYSIS LABORATORY
license=CC BY-NC-SA
exact mass=85.01638
ionization energy=70 eV
ion type=[M]+*
computed spectral entropy=2.434918522381998
computed normalized entropy=0.7877337691485081
SPLASH=splash10-0ufr-9000000000-76ad646589847d480771
submitter=submitter = University of Tokyo Team (Faculty of Engineering, University of Tokyo)
MoNA Rating=3.75

>  <NUM PEAKS>  (2667) 
22

>  <MASS SPECTRAL PEAKS>  (2667) 
12 1.59
13 1.34
14 6.13
15 36.06
26 10.35
27 7.01
28 12.91
29 30.25
30 5.06
31 47.95
40 1.75
41 38.61
42 2.7
44 5.39
45 28.15
54 99.99
55 11.37
56 1.43
57 0.64
59 20.88
84 9.26
85 0.54

>  <PREDICTED SPECTRUM>  (2667) 
14 132
15 357
16 92
17 19
19 5
25 74
26 316
27 471
28 364
29 537
30 130
31 411
40 172
41 378
42 382
43 216
44 211
45 305
52 91
53 190
54 999
55 511
56 168
57 96
59 543
70 129
85 122

$$$$

     RDKit          2D

  7  6  0  0  0  0  0  0  0  0999 V2000
    1.9486    2.6250    0.0000 C   0  0  0  0  0  0  0  0  0  0  0  0
   -1.9486    3.3750    0.0000 C   0  0  0  0  0  0  0  0  0  0  0  0
   -0.6495    2.6250    0.0000 C   0  0  0  0  0  0  0  0  0  0  0  0
   -3.2476    2.6250    0.0000 N   0  0  0  0  0  0  0  0  0  0  0  0
   -0.6495    1.1250    0.0000 O   0  0  0  0  0  0  0  0  0  0  0  0
   -4.5466    3.3750    0.0000 O   0  0  0  0  0  0  0  0  0  0  0  0
    0.6495    3.3750    0.0000 O   0  0  0  0  0  0  0  0  0  0  0  0
  3  2  1  0
  2  4  2  0
  5  3  2  0
  6  4  1  0
  7  1  1  0
  7  3  1  0
M  END
>  <NAME>  (2668) 
METHYL GLYOXYLATE OXIME

>  <SYNONYMS>  (2668) 


>  <SPECTRUM TYPE>  (2668) 
MS1

>  <INSTRUMENT TYPE>  (2668) 
EI-B

>  <INSTRUMENT>  (2668) 
HITACHI M-60

>  <ION MODE>  (2668) 
P

>  <INCHIKEY>  (2668) 
FOOPJRSDKYBEGG-DUXPYHPUSA-N

>  <FORMULA>  (2668) 
C3H5NO3

>  <EXACT MASS>  (2668) 
103.02694301999999

>  <MW>  (2668) 
103

>  <ID>  (2668) 
JP008245

>  <CONTRIBUTOR>  (2668) 
University of Tokyo Team, {Faculty of Engineering, University of Tokyo

>  <COMMENT>  (2668) 
SMILES=COC(=O)C=NO
InChI=InChI=1S/C3H5NO3/c1-7-3(5)2-4-6/h2,6H,1H3/b4-2+
computed SMILES=O=C(OC)C=NO
accession=JP008245
date=2016.01.19 (Created 2008.10.21, modified 2011.05.06)
author=UBE SCIENTIFIC ANALYSIS LABORATORY
license=CC BY-NC-SA
exact mass=103.02694
ionization energy=70 eV
ion type=[M]+*
computed spectral entropy=2.340720871844598
computed normalized entropy=0.8098338441932311
SPLASH=splash10-00xr-9000000000-48d590f98fc321a06eb8
submitter=submitter = University of Tokyo Team (Faculty of Engineering, University of Tokyo)
MoNA Rating=3.75

>  <NUM PEAKS>  (2668) 
18

>  <MASS SPECTRAL PEAKS>  (2668) 
15 75.34
16 5.75
27 13.93
28 14.81
29 16.5
30 9.16
31 11.21
41 3.13
42 1.81
43 9.65
44 41.45
45 4.01
54 6.12
59 24.3
71 99.99
72 30.05
73 1.56
103 14.88

>  <PREDICTED SPECTRUM>  (2668) 
14 48
15 198
16 64
17 19
25 40
26 149
27 332
28 325
29 427
30 418
31 466
32 80
33 177
40 242
41 338
42 386
43 369
44 760
45 562
46 109
52 27
54 301
55 223
56 28
57 113
58 116
59 748
60 80
71 999
72 635
73 162
74 59
85 131
86 244
87 69
88 136
103 687
104 66

$$$$

     RDKit          2D

 11 10  0  0  0  0  0  0  0  0999 V2000
    1.9486    3.3750    0.0000 C   0  0  0  0  0  0  0  0  0  0  0  0
   -5.8457    3.3750    0.0000 C   0  0  0  0  0  0  0  0  0  0  0  0
   -1.9486    4.1250    0.0000 C   0  0  0  0  0  0  0  0  0  0  0  0
   -0.6495    3.3750    0.0000 C   0  0  0  0  0  0  0  0  0  0  0  0
   -3.2476    3.3750    0.0000 C   0  0  0  0  0  0  0  0  0  0  0  0
   -1.9486    5.6250    0.0000 N   0  0  0  0  0  0  0  0  0  0  0  0
   -0.6495    1.8750    0.0000 O   0  0  0  0  0  0  0  0  0  0  0  0
   -3.2476    1.8750    0.0000 O   0  0  0  0  0  0  0  0  0  0  0  0
   -3.2476    6.3750    0.0000 O   0  0  0  0  0  0  0  0  0  0  0  0
    0.6495    4.1250    0.0000 O   0  0  0  0  0  0  0  0  0  0  0  0
   -4.5466    4.1250    0.0000 O   0  0  0  0  0  0  0  0  0  0  0  0
  4  3  1  0
  5  3  1  0
  6  3  2  3
  7  4  2  0
  8  5  2  0
  9  6  1  0
 10  1  1  0
 10  4  1  0
 11  2  1  0
 11  5  1  0
M  END
>  <NAME>  (2669) 
DIMETHYL OXOMALONATE OXIME

>  <SYNONYMS>  (2669) 


>  <SPECTRUM TYPE>  (2669) 
MS1

>  <INSTRUMENT TYPE>  (2669) 
EI-B

>  <INSTRUMENT>  (2669) 
HITACHI M-60

>  <ION MODE>  (2669) 
P

>  <INCHIKEY>  (2669) 
GLFGXQYUPFIXJV-UHFFFAOYSA-N

>  <FORMULA>  (2669) 
C5H7NO5

>  <EXACT MASS>  (2669) 
161.03242232399998

>  <MW>  (2669) 
161

>  <ID>  (2669) 
JP008244

>  <CONTRIBUTOR>  (2669) 
University of Tokyo Team, {Faculty of Engineering, University of Tokyo

>  <COMMENT>  (2669) 
SMILES=COC(=O)C(=NO)C(=O)OC
InChI=InChI=1S/C5H7NO5/c1-10-4(7)3(6-9)5(8)11-2/h9H,1-2H3
computed SMILES=O=C(OC)C(=NO)C(=O)OC
accession=JP008244
date=2016.01.19 (Created 2008.10.21, modified 2011.05.06)
author=UBE SCIENTIFIC ANALYSIS LABORATORY
license=CC BY-NC-SA
exact mass=161.03242
ionization energy=70 eV
ion type=[M]+*
computed spectral entropy=2.4960535462471527
computed normalized entropy=0.7661079151948367
SPLASH=splash10-0690-9300000000-596144478a38c2609f91
submitter=submitter = University of Tokyo Team (Faculty of Engineering, University of Tokyo)
MoNA Rating=3.75

>  <NUM PEAKS>  (2669) 
26

>  <MASS SPECTRAL PEAKS>  (2669) 
15 99.99
27 10.11
28 6.53
29 14.43
30 8.35
31 14.93
32 1.97
41 3.81
42 6.17
43 2.21
44 9.55
45 6.64
54 18.18
55 1.95
59 57.07
60 1.42
69 2.48
70 6.45
71 1.69
86 3.04
101 8.02
102 13.74
129 74.25
130 10.06
131 0.96
161 8.13

>  <PREDICTED SPECTRUM>  (2669) 
14 55
15 310
16 61
17 25
18 46
25 14
26 161
27 152
28 234
29 433
30 381
31 329
32 77
33 142
40 84
41 206
42 357
43 426
44 380
45 351
46 2
52 44
53 29
54 193
55 32
57 101
58 145
59 999
60 50
68 109
69 37
70 196
71 178
72 69
73 13
74 188
75 56
84 76
85 76
86 68
87 201
100 46
101 385
102 428
103 122
113 7
130 438
131 113
133 165
161 157

$$$$

     RDKit          2D

 18 17  0  0  0  0  0  0  0  0999 V2000
    5.1962    8.2500    0.0000 C   0  0  0  0  0  0  0  0  0  0  0  0
  -14.2894    9.0000    0.0000 C   0  0  0  0  0  0  0  0  0  0  0  0
   -3.8971    9.0000    0.0000 C   0  0  0  0  0  0  0  0  0  0  0  0
   -5.1962    8.2500    0.0000 C   0  0  0  0  0  0  0  0  0  0  0  0
   -2.5981    8.2500    0.0000 C   0  0  0  0  0  0  0  0  0  0  0  0
   -6.4952    9.0000    0.0000 C   0  0  0  0  0  0  0  0  0  0  0  0
   -1.2990    9.0000    0.0000 C   0  0  0  0  0  0  0  0  0  0  0  0
   -7.7942    8.2500    0.0000 C   0  0  0  0  0  0  0  0  0  0  0  0
    0.0000    8.2500    0.0000 C   0  0  0  0  0  0  0  0  0  0  0  0
   -9.0933    9.0000    0.0000 C   0  0  0  0  0  0  0  0  0  0  0  0
    1.2990    9.0000    0.0000 C   0  0  0  0  0  0  0  0  0  0  0  0
  -10.3923    8.2500    0.0000 C   0  0  0  0  0  0  0  0  0  0  0  0
    2.5981    8.2500    0.0000 C   0  0  0  0  0  0  0  0  0  0  0  0
  -11.6913    9.0000    0.0000 C   0  0  0  0  0  0  0  0  0  0  0  0
    2.5981    6.7500    0.0000 O   0  0  0  0  0  0  0  0  0  0  0  0
  -11.6913   10.5000    0.0000 O   0  0  0  0  0  0  0  0  0  0  0  0
    3.8971    9.0000    0.0000 O   0  0  0  0  0  0  0  0  0  0  0  0
  -12.9904    8.2500    0.0000 O   0  0  0  0  0  0  0  0  0  0  0  0
  4  3  1  0
  5  3  1  0
  6  4  1  0
  7  5  1  0
  8  6  1  0
  9  7  1  0
 10  8  1  0
 11  9  1  0
 12 10  1  0
 13 11  1  0
 14 12  1  0
 15 13  2  0
 16 14  2  0
 17  1  1  0
 17 13  1  0
 18  2  1  0
 18 14  1  0
M  END
>  <NAME>  (2670) 
DIMETHYL DODECANEDIOATE

>  <SYNONYMS>  (2670) 


>  <SPECTRUM TYPE>  (2670) 
MS1

>  <INSTRUMENT TYPE>  (2670) 
EI-B

>  <INSTRUMENT>  (2670) 
HITACHI M-60

>  <ION MODE>  (2670) 
P

>  <INCHIKEY>  (2670) 
IZMOTZDBVPMOFE-UHFFFAOYSA-N

>  <FORMULA>  (2670) 
C14H26O4

>  <EXACT MASS>  (2670) 
258.183109312

>  <MW>  (2670) 
258

>  <ID>  (2670) 
JP008243

>  <CONTRIBUTOR>  (2670) 
University of Tokyo Team, {Faculty of Engineering, University of Tokyo

>  <COMMENT>  (2670) 
SMILES=COC(=O)CCCCCCCCCCC(=O)OC
cas=1731-79-9
InChI=InChI=1S/C14H26O4/c1-17-13(15)11-9-7-5-3-4-6-8-10-12-14(16)18-2/h3-12H2,1-2H3
computed SMILES=O=C(OC)CCCCCCCCCCC(=O)OC
accession=JP008243
date=2016.01.19 (Created 2008.10.21, modified 2011.05.06)
author=UBE SCIENTIFIC ANALYSIS LABORATORY
license=CC BY-NC-SA
exact mass=258.18311
ionization energy=70 eV
ion type=[M]+*
computed spectral entropy=3.9072181102056174
computed normalized entropy=0.8161305167985742
SPLASH=splash10-0avm-9200000000-91cca37c2a8c1c55dab9
submitter=submitter = University of Tokyo Team (Faculty of Engineering, University of Tokyo)
MoNA Rating=3.75

>  <NUM PEAKS>  (2670) 
120

>  <MASS SPECTRAL PEAKS>  (2670) 
15 41.91
27 13.17
28 7.23
29 25.87
30 1.09
31 3.28
36 1.19
39 10.96
40 2.73
41 61.17
42 15.49
43 69.61
44 3.08
45 6.22
53 4.8
54 5.86
55 92.78
56 9.42
57 17.46
58 1.8
59 48.27
60 1.89
61 0.75
62 1.42
66 1.05
67 11.91
68 7.45
69 63.45
70 9.25
71 4.71
72 0.93
73 8.56
74 99.99
75 6.83
76 1.12
77 1.16
78 0.86
79 4.59
80 3.96
81 13.47
82 6.31
83 40.29
84 68.41
85 4.42
86 1.61
87 37.26
88 4.37
91 1.28
92 0.8
93 5.2
94 3.5
95 8.27
96 8.66
97 26.03
98 96.14
99 5.32
100 1.31
101 6.59
106 1.12
107 3.76
108 3.07
109 6.17
110 5.02
111 18.34
112 36.77
113 4.26
114 1.92
115 5.3
116 1.28
119 4.76
120 1.14
121 1.83
122 2.13
123 4.49
124 3.95
125 8.24
126 7.14
127 7.32
128 1.99
129 3.89
130 2.08
131 0.99
132 0.84
133 1.56
134 3.1
135 14.63
136 2.24
137 2.23
138 4.34
139 2.92
140 1.79
141 1.4
142 2.72
143 5.07
144 1.27
147 2.09
148 2.45
149 5.7
150 2.3
151 2.35
152 8.35
153 35.25
154 4.06
165 1.21
166 8.64
167 5.36
170 2.89
172 2.34
175 0.95
176 1.02
184 2.22
185 40.99
186 4.42
194 7.04
195 2.31
198 1.3
226 1.39
227 31.67
228 4.47
259 0.26

>  <PREDICTED SPECTRUM>  (2670) 
15 53
26 13
27 127
28 96
29 194
30 5
31 79
32 8
39 140
40 81
41 561
42 298
43 429
44 156
45 123
51 8
52 23
53 195
54 291
55 940
56 359
57 358
58 95
59 603
60 198
61 9
65 3
66 19
67 420
68 302
69 703
70 331
71 231
72 77
73 290
74 918
75 266
76 16
77 65
78 16
79 184
80 143
81 400
82 331
83 647
84 642
85 159
86 44
87 700
88 266
91 39
92 15
93 215
94 191
95 298
96 435
97 607
98 999
99 226
100 124
101 256
102 127
105 109
106 48
107 164
108 135
109 225
110 220
111 495
112 620
113 166
114 170
115 227
116 206
119 92
120 46
121 223
122 59
123 93
124 203
125 287
126 318
127 105
128 168
129 245
130 67
133 68
134 152
135 284
136 121
137 144
138 161
139 210
140 131
141 90
142 116
143 218
144 78
147 45
148 58
149 164
151 125
152 313
153 423
154 194
155 41
157 16
158 35
159 22
162 37
163 32
166 163
167 163
168 85
169 27
170 109
171 57
172 99
173 2
176 51
180 41
181 8
182 65
183 34
184 149
185 605
186 260
187 11
194 107
195 71
198 73
199 90
200 54
208 14
211 59
212 55
226 74
227 559
228 227
258 49
259 42

$$$$

     RDKit          2D

  9  8  0  0  0  0  0  0  0  0999 V2000
    0.0000    6.0000    0.0000 C   0  0  0  0  0  0  0  0  0  0  0  0
   -5.1962    6.0000    0.0000 C   0  0  0  0  0  0  0  0  0  0  0  0
    1.2990    5.2500    0.0000 C   0  0  0  0  0  0  0  0  0  0  0  0
   -6.4952    5.2500    0.0000 C   0  0  0  0  0  0  0  0  0  0  0  0
   -1.2990    5.2500    0.0000 C   0  0  0  0  0  0  0  0  0  0  0  0
   -3.8971    5.2500    0.0000 C   0  0  0  0  0  0  0  0  0  0  0  0
    2.5981    4.5000    0.0000 N   0  0  0  0  0  0  0  0  0  0  0  0
   -7.7942    4.5000    0.0000 N   0  0  0  0  0  0  0  0  0  0  0  0
   -2.5981    6.0000    0.0000 N   0  0  0  0  0  0  0  0  0  0  0  0
  3  1  1  0
  4  2  1  0
  5  1  1  0
  6  2  1  0
  7  3  3  0
  8  4  3  0
  9  5  1  0
  9  6  1  0
M  END
>  <NAME>  (2671) 
3,3'-IMINODIPROPIONITRILE

>  <SYNONYMS>  (2671) 
BIS(2-CYANOETHYL)AMINE

>  <SPECTRUM TYPE>  (2671) 
MS1

>  <INSTRUMENT TYPE>  (2671) 
EI-B

>  <INSTRUMENT>  (2671) 
HITACHI M-60

>  <ION MODE>  (2671) 
P

>  <INCHIKEY>  (2671) 
SBAJRGRUGUQKAF-UHFFFAOYSA-N

>  <FORMULA>  (2671) 
C6H9N3

>  <EXACT MASS>  (2671) 
123.07964728799999

>  <MW>  (2671) 
123

>  <ID>  (2671) 
JP008242

>  <CONTRIBUTOR>  (2671) 
University of Tokyo Team, {Faculty of Engineering, University of Tokyo

>  <COMMENT>  (2671) 
SMILES=N#CCCNCCC#N
cas=111-94-4
InChI=InChI=1S/C6H9N3/c7-3-1-5-9-6-2-4-8/h9H,1-2,5-6H2
computed SMILES=N#CCCNCCC#N
accession=JP008242
date=2016.01.19 (Created 2008.10.21, modified 2011.05.06)
author=UBE SCIENTIFIC ANALYSIS LABORATORY
license=CC BY-NC-SA
exact mass=123.07965
ionization energy=70 eV
ion type=[M]+*
computed spectral entropy=2.311012430880799
computed normalized entropy=0.7093136756114012
SPLASH=splash10-000x-9000000000-e9c221f8d5ab005e7243
submitter=submitter = University of Tokyo Team (Faculty of Engineering, University of Tokyo)
MoNA Rating=3.75

>  <NUM PEAKS>  (2671) 
26

>  <MASS SPECTRAL PEAKS>  (2671) 
15 3.39
26 4.62
27 10.26
28 30.58
29 5.27
30 17.54
38 0.61
39 2.08
40 6.1
41 7.56
42 99.99
43 12.7
51 1.36
52 6.09
53 1.98
54 52.34
55 4.2
56 5.89
57 1.12
66 1.16
67 0.93
81 5.81
82 2.32
83 85.92
84 5.21
123 0.56

>  <PREDICTED SPECTRUM>  (2671) 
14 31
15 81
16 1
18 11
25 18
26 112
27 184
28 249
29 158
30 196
31 10
37 9
38 78
39 153
40 182
41 156
42 286
43 6
46 14
49 20
51 148
52 228
53 234
54 304
55 236
56 138
65 81
66 45
67 203
70 59
77 22
81 47
83 999
84 133
95 16
108 4
123 249
124 63

$$$$

     RDKit          2D

  5  4  0  0  0  0  0  0  0  0999 V2000
   -0.6495    1.8750    0.0000 C   0  0  0  0  0  0  0  0  0  0  0  0
    0.6495    2.6250    0.0000 C   0  0  0  0  0  0  0  0  0  0  0  0
   -1.9486    2.6250    0.0000 C   0  0  0  0  0  0  0  0  0  0  0  0
    1.9486    1.8750    0.0000 N   0  0  0  0  0  0  0  0  0  0  0  0
   -3.2476    3.3750    0.0000 N   0  0  0  0  0  0  0  0  0  0  0  0
  2  1  1  0
  3  1  1  0
  4  2  1  0
  5  3  3  0
M  END
>  <NAME>  (2672) 
3-AMINOPROPIONITRILE

>  <SYNONYMS>  (2672) 


>  <SPECTRUM TYPE>  (2672) 
MS1

>  <INSTRUMENT TYPE>  (2672) 
EI-B

>  <INSTRUMENT>  (2672) 
HITACHI M-60

>  <ION MODE>  (2672) 
P

>  <INCHIKEY>  (2672) 
AGSPXMVUFBBBMO-UHFFFAOYSA-N

>  <FORMULA>  (2672) 
C3H6N2

>  <EXACT MASS>  (2672) 
70.053098192

>  <MW>  (2672) 
70

>  <ID>  (2672) 
JP008241

>  <CONTRIBUTOR>  (2672) 
University of Tokyo Team, {Faculty of Engineering, University of Tokyo

>  <COMMENT>  (2672) 
InChI=InChI=1S/C3H6N2/c4-2-1-3-5/h1-2,4H2
SMILES=NCCC#N
computed SMILES=N#CCCN
accession=JP008241
date=2016.01.19 (Created 2008.10.21, modified 2011.05.06)
author=UBE SCIENTIFIC ANALYSIS LABORATORY
license=CC BY-NC-SA
exact mass=70.0531
ionization energy=70 eV
ion type=[M]+*
computed spectral entropy=1.6202774746237008
computed normalized entropy=0.5408619084313173
SPLASH=splash10-001i-9000000000-f05f2291dfe77fc789cb
submitter=submitter = University of Tokyo Team (Faculty of Engineering, University of Tokyo)
MoNA Rating=3.75

>  <NUM PEAKS>  (2672) 
20

>  <MASS SPECTRAL PEAKS>  (2672) 
14 1.32
15 3.73
17 1.4
26 1.27
27 3.02
28 19.05
29 1.91
30 99.99
31 1.53
38 1.72
39 2.58
40 4.64
41 6.09
42 13.86
43 1.16
51 0.98
52 0.58
69 0.98
70 0.54
71 0.89

>  <PREDICTED SPECTRUM>  (2672) 
14 93
15 212
16 64
17 60
18 81
25 66
26 266
27 416
28 595
29 295
30 999
31 57
36 29
37 41
38 259
39 195
40 390
41 502
42 373
43 40
51 194
52 412
53 355
54 534
55 55
66 55
69 308
70 267
71 69

$$$$

     RDKit          2D

 12 12  0  0  0  0  0  0  0  0999 V2000
    1.6244   -3.1882    0.0000 C   0  0  0  0  0  0  0  0  0  0  0  0
    0.3248   -2.4373    0.0000 C   0  0  0  0  0  0  0  0  0  0  0  0
    2.9234   -2.4382    0.0000 C   0  0  0  0  0  0  0  0  0  0  0  0
    1.6234   -0.1865    0.0000 C   0  0  0  0  0  0  0  0  0  0  0  0
    0.3244   -0.9365    0.0000 C   0  0  0  0  0  0  0  0  0  0  0  0
    2.9229   -0.9373    0.0000 C   0  0  0  0  0  0  0  0  0  0  0  0
   -0.9748   -0.1867    0.0000 N   0  0  0  0  0  0  0  0  0  0  0  0
    4.2220   -0.1873    0.0000 N   0  0  0  0  0  0  0  0  0  0  0  0
   -2.2737   -0.9369    0.0000 O   0  0  0  0  0  0  0  0  0  0  0  0
   -0.9750    1.3133    0.0000 O   0  0  0  0  0  0  0  0  0  0  0  0
    5.5210   -0.9373    0.0000 O   0  0  0  0  0  0  0  0  0  0  0  0
    4.2220    1.3127    0.0000 O   0  0  0  0  0  0  0  0  0  0  0  0
  2  1  2  0
  3  1  1  0
  5  2  1  0
  5  4  2  0
  6  3  2  0
  6  4  1  0
  7  5  1  0
  8  6  1  0
  9  7  1  0
 10  7  2  0
 11  8  1  0
 12  8  2  0
M  CHG  4   7   1   8   1   9  -1  11  -1
M  END
>  <NAME>  (2673) 
1,3-DINITROBENZENE

>  <SYNONYMS>  (2673) 


>  <SPECTRUM TYPE>  (2673) 
MS1

>  <INSTRUMENT TYPE>  (2673) 
EI-B

>  <INSTRUMENT>  (2673) 
HITACHI M-60

>  <ION MODE>  (2673) 
P

>  <INCHIKEY>  (2673) 
WDCYWAQPCXBPJA-UHFFFAOYSA-N

>  <FORMULA>  (2673) 
C6H4N2O4

>  <EXACT MASS>  (2673) 
168.017106608

>  <MW>  (2673) 
168

>  <ID>  (2673) 
JP008239

>  <CONTRIBUTOR>  (2673) 
University of Tokyo Team, {Faculty of Engineering, University of Tokyo

>  <COMMENT>  (2673) 
SMILES=[O-1][N+1](=O)c(c1)cc(cc1)[N+1]([O-1])=O
cas=99-65-0
InChI=InChI=1S/C6H4N2O4/c9-7(10)5-2-1-3-6(4-5)8(11)12/h1-4H
computed SMILES=O=N(=O)C1=CC=CC(=C1)N(=O)=O
license=CC BY-NC-SA
accession=JP008239
date=2016.01.19 (Created 2008.10.21, modified 2011.05.06)
author=UBE SCIENTIFIC ANALYSIS LABORATORY
exact mass=168.01711
ionization energy=70 eV
ion type=[M]+*
computed spectral entropy=2.728531211555487
computed normalized entropy=0.7447755695439251
SPLASH=splash10-00pi-9200000000-97cd4c3ebec0ccbd0bca
submitter=submitter = University of Tokyo Team (Faculty of Engineering, University of Tokyo)
MoNA Rating=3.75

>  <NUM PEAKS>  (2673) 
39

>  <MASS SPECTRAL PEAKS>  (2673) 
29 2.85
30 97.61
32 1.04
37 5.58
38 9.98
39 10.17
44 0.92
45 0.92
46 2.38
49 1.89
50 70.12
51 10.46
52 3.81
53 1.75
54 0.91
55 1.93
61 2.47
62 5.3
63 18.38
64 21.8
65 3.38
66 1.42
73 4
74 23.9
75 82.05
76 72.95
77 7.14
91 1.34
92 45.29
93 3.29
107 0.92
108 0.82
122 36.83
123 2.78
138 2.69
152 4.31
168 99.99
169 8.01
170 1.28

>  <PREDICTED SPECTRUM>  (2673) 
14 22
15 9
16 12
25 20
26 55
28 55
29 74
30 631
31 141
32 16
36 74
37 233
38 334
39 241
40 82
46 316
48 12
49 58
50 701
51 391
52 223
53 36
57 42
62 431
63 609
64 400
65 34
66 18
68 36
69 9
73 24
74 785
75 938
76 827
77 177
80 36
86 33
91 20
92 402
93 36
94 30
122 587
123 168
138 111
139 7
168 999
169 282
170 49

$$$$

     RDKit          2D

  9  9  0  0  0  0  0  0  0  0999 V2000
    2.2733   -0.6175    0.0000 C   0  0  0  0  0  0  0  0  0  0  0  0
    0.9738   -1.3683    0.0000 C   0  0  0  0  0  0  0  0  0  0  0  0
    2.2738    0.8833    0.0000 C   0  0  0  0  0  0  0  0  0  0  0  0
   -0.3252   -0.6183    0.0000 C   0  0  0  0  0  0  0  0  0  0  0  0
    0.9748    1.6333    0.0000 C   0  0  0  0  0  0  0  0  0  0  0  0
   -0.3248    0.8825    0.0000 C   0  0  0  0  0  0  0  0  0  0  0  0
   -1.6238    1.6325    0.0000 N   0  0  0  0  0  0  0  0  0  0  0  0
   -2.9228    0.8825    0.0000 O   0  0  0  0  0  0  0  0  0  0  0  0
   -1.6238    3.1325    0.0000 O   0  0  0  0  0  0  0  0  0  0  0  0
  2  1  2  0
  3  1  1  0
  4  2  1  0
  5  3  2  0
  6  4  2  0
  6  5  1  0
  7  6  1  0
  8  7  1  0
  9  7  2  0
M  CHG  2   7   1   8  -1
M  END
>  <NAME>  (2674) 
NITROBENZENE

>  <SYNONYMS>  (2674) 


>  <SPECTRUM TYPE>  (2674) 
MS1

>  <INSTRUMENT TYPE>  (2674) 
EI-B

>  <INSTRUMENT>  (2674) 
HITACHI M-60

>  <ION MODE>  (2674) 
P

>  <INCHIKEY>  (2674) 
LQNUZADURLCDLV-UHFFFAOYSA-N

>  <FORMULA>  (2674) 
C6H5NO2

>  <EXACT MASS>  (2674) 
123.0320284

>  <MW>  (2674) 
123

>  <ID>  (2674) 
JP008238

>  <CONTRIBUTOR>  (2674) 
University of Tokyo Team, {Faculty of Engineering, University of Tokyo

>  <COMMENT>  (2674) 
SMILES=[O-1][N+1](=O)c(c1)cccc1
cas=98-95-3
InChI=InChI=1S/C6H5NO2/c8-7(9)6-4-2-1-3-5-6/h1-5H
computed SMILES=O=N(=O)C=1C=CC=CC1
accession=JP008238
date=2016.01.19 (Created 2008.10.21, modified 2011.05.06)
author=UBE SCIENTIFIC ANALYSIS LABORATORY
license=CC BY-NC-SA
exact mass=123.03203
ionization energy=70 eV
ion type=[M]+*
computed spectral entropy=2.282657470507042
computed normalized entropy=0.7091474150297511
SPLASH=splash10-0fi0-9200000000-913bbd87a6a1c495c53f
submitter=submitter = University of Tokyo Team (Faculty of Engineering, University of Tokyo)
MoNA Rating=3.75

>  <NUM PEAKS>  (2674) 
25

>  <MASS SPECTRAL PEAKS>  (2674) 
27 4.18
30 11.06
37 2.79
38 3.93
39 7.73
49 1.81
50 19.03
51 55.13
52 2.87
62 1.15
63 1.83
64 1.07
65 12.31
66 0.84
73 1.87
74 6.52
75 4.04
76 3.1
77 99.99
78 7.76
93 12.44
94 0.57
107 1.11
123 54.26
124 4.28

>  <PREDICTED SPECTRUM>  (2674) 
14 8
16 26
25 38
26 93
28 14
29 58
30 292
32 1
36 9
37 173
38 307
39 482
40 27
46 184
49 143
50 772
51 784
52 240
62 189
63 545
64 501
65 421
66 181
74 413
75 447
76 761
77 999
78 350
92 327
93 215
94 4
107 51
122 97
123 612
124 232

$$$$

     RDKit          2D

 10 10  0  0  0  0  0  0  0  0999 V2000
    1.3013    2.6340    0.0000 C   0  0  0  0  0  0  0  0  0  0  0  0
    0.0013    1.8740    0.0000 C   0  0  0  0  0  0  0  0  0  0  0  0
    2.6013    1.8740    0.0000 C   0  0  0  0  0  0  0  0  0  0  0  0
    1.3013   -0.3660    0.0000 C   0  0  0  0  0  0  0  0  0  0  0  0
    0.0013    0.3740    0.0000 C   0  0  0  0  0  0  0  0  0  0  0  0
    2.6013    0.3740    0.0000 C   0  0  0  0  0  0  0  0  0  0  0  0
   -1.2954   -0.3800    0.0000 N   0  0  0  0  0  0  0  0  0  0  0  0
    3.8981   -0.3800    0.0000 O   0  0  0  0  0  0  0  0  0  0  0  0
   -2.5967    0.3660    0.0000 O   0  0  0  0  0  0  0  0  0  0  0  0
   -1.2908   -1.8800    0.0000 O   0  0  0  0  0  0  0  0  0  0  0  0
  2  1  2  0
  3  1  1  0
  5  2  1  0
  5  4  2  0
  6  3  2  0
  6  4  1  0
  7  5  1  0
  8  6  1  0
  9  7  1  0
 10  7  2  0
M  CHG  2   7   1   9  -1
M  END
>  <NAME>  (2675) 
3-NITROPHENOL

>  <SYNONYMS>  (2675) 
3-HYDROXYNITROBENZENE

>  <SPECTRUM TYPE>  (2675) 
MS1

>  <INSTRUMENT TYPE>  (2675) 
EI-B

>  <INSTRUMENT>  (2675) 
HITACHI M-60

>  <ION MODE>  (2675) 
P

>  <INCHIKEY>  (2675) 
RTZZCYNQPHTPPL-UHFFFAOYSA-N

>  <FORMULA>  (2675) 
C6H5NO3

>  <EXACT MASS>  (2675) 
139.02694301999998

>  <MW>  (2675) 
139

>  <ID>  (2675) 
JP008236

>  <CONTRIBUTOR>  (2675) 
University of Tokyo Team, {Faculty of Engineering, University of Tokyo

>  <COMMENT>  (2675) 
SMILES=Oc(c1)cc(cc1)[N+1]([O-1])=O
cas=554-84-7
InChI=InChI=1S/C6H5NO3/c8-6-3-1-2-5(4-6)7(9)10/h1-4,8H
computed SMILES=O=N(=O)C=1C=CC=C(O)C1
accession=JP008236
date=2016.01.19 (Created 2008.10.21, modified 2011.05.06)
author=UBE SCIENTIFIC ANALYSIS LABORATORY
license=CC BY-NC-SA
exact mass=139.02694
ionization energy=70 eV
ion type=[M]+*
computed spectral entropy=2.5468478751149757
computed normalized entropy=0.7488091955046544
SPLASH=splash10-000i-9200000000-e424a07b3976804a39bc
submitter=submitter = University of Tokyo Team (Faculty of Engineering, University of Tokyo)
MoNA Rating=3.75

>  <NUM PEAKS>  (2675) 
30

>  <MASS SPECTRAL PEAKS>  (2675) 
27 6.19
28 1.43
29 3.64
30 10.58
37 3.81
38 11.85
39 70.42
40 1.92
43 2.15
50 5.24
51 4.14
53 17.06
55 1.57
61 2.72
62 7.4
63 17.25
64 8.88
65 78.2
66 6.88
74 2.25
75 1.88
81 18.79
92 1.93
93 62.29
94 4.14
109 6.16
123 2.23
139 99.99
140 7.18
141 1.45

>  <PREDICTED SPECTRUM>  (2675) 
14 8
15 22
16 25
18 24
25 45
26 120
27 174
28 96
29 224
30 273
31 37
33 14
36 48
37 293
38 396
39 584
40 189
41 226
42 62
43 5
44 30
45 52
46 204
49 90
50 364
51 443
52 234
53 449
54 225
55 238
56 101
57 128
61 134
62 313
63 677
64 401
65 842
66 325
67 137
68 51
69 0
73 39
74 137
75 284
76 136
80 216
81 492
82 150
83 43
92 321
93 547
94 374
95 336
109 336
110 59
122 120
123 122
139 999
140 307
141 88

$$$$

     RDKit          2D

 10 10  0  0  0  0  0  0  0  0999 V2000
    2.2781    2.4402    0.0000 C   0  0  0  0  0  0  0  0  0  0  0  0
    3.5681    1.6902    0.0000 C   0  0  0  0  0  0  0  0  0  0  0  0
    0.9781    1.6902    0.0000 C   0  0  0  0  0  0  0  0  0  0  0  0
    3.5681    0.1902    0.0000 C   0  0  0  0  0  0  0  0  0  0  0  0
    0.9781    0.1902    0.0000 C   0  0  0  0  0  0  0  0  0  0  0  0
    2.2781   -0.5598    0.0000 C   0  0  0  0  0  0  0  0  0  0  0  0
   -0.3208   -0.5600    0.0000 N   0  0  0  0  0  0  0  0  0  0  0  0
    2.2806   -2.0598    0.0000 O   0  0  0  0  0  0  0  0  0  0  0  0
   -1.6200    0.1898    0.0000 O   0  0  0  0  0  0  0  0  0  0  0  0
   -0.3206   -2.0600    0.0000 O   0  0  0  0  0  0  0  0  0  0  0  0
  2  1  2  0
  3  1  1  0
  4  2  1  0
  5  3  2  0
  6  4  2  0
  6  5  1  0
  7  5  1  0
  8  6  1  0
  9  7  1  0
 10  7  2  0
M  CHG  2   7   1   9  -1
M  END
>  <NAME>  (2676) 
2-NITROPHENOL

>  <SYNONYMS>  (2676) 
2-HYDROXYNITROBENZENE

>  <SPECTRUM TYPE>  (2676) 
MS1

>  <INSTRUMENT TYPE>  (2676) 
EI-B

>  <INSTRUMENT>  (2676) 
HITACHI M-60

>  <ION MODE>  (2676) 
P

>  <INCHIKEY>  (2676) 
IQUPABOKLQSFBK-UHFFFAOYSA-N

>  <FORMULA>  (2676) 
C6H5NO3

>  <EXACT MASS>  (2676) 
139.02694302

>  <MW>  (2676) 
139

>  <ID>  (2676) 
JP008235

>  <CONTRIBUTOR>  (2676) 
University of Tokyo Team, {Faculty of Engineering, University of Tokyo

>  <COMMENT>  (2676) 
SMILES=[O-1][N+1](=O)c(c1)c(O)ccc1
cas=88-75-5
InChI=InChI=1S/C6H5NO3/c8-6-4-2-1-3-5(6)7(9)10/h1-4,8H
computed SMILES=O=N(=O)C=1C=CC=CC1O
accession=JP008235
date=2016.01.19 (Created 2008.10.21, modified 2011.05.06)
author=UBE SCIENTIFIC ANALYSIS LABORATORY
license=CC BY-NC-SA
exact mass=139.02694
ionization energy=70 eV
ion type=[M]+*
computed spectral entropy=3.1274437883091575
computed normalized entropy=0.7877112958959007
SPLASH=splash10-000i-9300000000-bf9c9dea087904b89a90
submitter=submitter = University of Tokyo Team (Faculty of Engineering, University of Tokyo)
MoNA Rating=3.75

>  <NUM PEAKS>  (2676) 
53

>  <MASS SPECTRAL PEAKS>  (2676) 
18 4.16
26 3.1
27 8.59
28 1.63
29 2.83
30 9.83
37 5.25
38 13.97
39 42.99
40 2.22
41 1.09
42 1.16
43 1.57
44 3.09
45 1.35
50 5.64
51 9.62
52 5.29
53 17.38
54 1.6
55 2.64
61 3.2
62 7.76
63 30.57
64 23.91
65 38.92
66 5.6
67 0.98
73 0.96
74 1.66
75 1.7
76 1.01
77 0.72
78 4.19
79 1.02
80 3.05
81 21.02
82 1.11
91 1.18
92 9.06
93 12.88
94 5.58
95 0.75
106 3.26
108 0.79
109 17.67
110 1.5
119 1.06
122 7.01
123 2.61
139 99.99
140 7.06
141 0.86

>  <PREDICTED SPECTRUM>  (2676) 
18 2
25 30
26 80
27 80
28 25
30 84
36 43
37 190
38 297
39 446
40 165
41 166
42 85
43 12
44 55
46 64
49 95
50 327
51 504
52 359
53 425
54 132
55 153
56 27
61 122
62 220
63 496
64 342
65 723
66 402
67 146
68 62
69 30
70 15
74 97
75 209
76 138
77 65
78 56
79 33
80 219
81 425
82 111
83 51
91 9
92 327
93 461
94 247
95 68
107 4
109 382
110 104
122 182
123 146
139 999
140 301
141 74

$$$$

     RDKit          2D

 13 13  0  0  0  0  0  0  0  0999 V2000
   -5.1948    1.1419    0.0000 C   0  0  0  0  0  0  0  0  0  0  0  0
   -0.0000   -1.8800    0.0000 C   0  0  0  0  0  0  0  0  0  0  0  0
    1.3000   -1.1200    0.0000 C   0  0  0  0  0  0  0  0  0  0  0  0
   -1.3000   -1.1200    0.0000 C   0  0  0  0  0  0  0  0  0  0  0  0
   -0.0000    1.1200    0.0000 C   0  0  0  0  0  0  0  0  0  0  0  0
   -3.8981    0.3879    0.0000 C   0  0  0  0  0  0  0  0  0  0  0  0
    1.3000    0.3800    0.0000 C   0  0  0  0  0  0  0  0  0  0  0  0
   -1.3000    0.3800    0.0000 C   0  0  0  0  0  0  0  0  0  0  0  0
    2.5967    1.1340    0.0000 N   0  0  0  0  0  0  0  0  0  0  0  0
   -3.9026   -1.1121    0.0000 O   0  0  0  0  0  0  0  0  0  0  0  0
    3.8981    0.3879    0.0000 O   0  0  0  0  0  0  0  0  0  0  0  0
    2.5922    2.6340    0.0000 O   0  0  0  0  0  0  0  0  0  0  0  0
   -2.5967    1.1340    0.0000 O   0  0  0  0  0  0  0  0  0  0  0  0
  3  2  2  0
  4  2  1  0
  6  1  1  0
  7  3  1  0
  7  5  2  0
  8  4  2  0
  8  5  1  0
  9  7  1  0
 10  6  2  0
 11  9  1  0
 12  9  2  0
 13  6  1  0
 13  8  1  0
M  CHG  2   9   1  11  -1
M  END
>  <NAME>  (2677) 
3-ACETOXYNITROBENZENE

>  <SYNONYMS>  (2677) 


>  <SPECTRUM TYPE>  (2677) 
MS1

>  <INSTRUMENT TYPE>  (2677) 
EI-B

>  <INSTRUMENT>  (2677) 
HITACHI M-60

>  <ION MODE>  (2677) 
P

>  <INCHIKEY>  (2677) 
HRMRLUUZPLAPAS-UHFFFAOYSA-N

>  <FORMULA>  (2677) 
C8H7NO4

>  <EXACT MASS>  (2677) 
181.037507704

>  <MW>  (2677) 
181

>  <ID>  (2677) 
JP008233

>  <CONTRIBUTOR>  (2677) 
University of Tokyo Team, {Faculty of Engineering, University of Tokyo

>  <COMMENT>  (2677) 
SMILES=CC(=O)Oc(c1)cc(cc1)[N+1]([O-1])=O
InChI=InChI=1S/C8H7NO4/c1-6(10)13-8-4-2-3-7(5-8)9(11)12/h2-5H,1H3
computed SMILES=O=C(OC1=CC=CC(=C1)N(=O)=O)C
accession=JP008233
date=2016.01.19 (Created 2008.10.21, modified 2011.05.06)
author=UBE SCIENTIFIC ANALYSIS LABORATORY
license=CC BY-NC-SA
exact mass=181.03751
ionization energy=70 eV
ion type=[M]+*
computed spectral entropy=1.69082293661782
computed normalized entropy=0.5644105621667954
SPLASH=splash10-0006-9000000000-f3b1f384fbe14fffe733
submitter=submitter = University of Tokyo Team (Faculty of Engineering, University of Tokyo)
MoNA Rating=3.75

>  <NUM PEAKS>  (2677) 
20

>  <MASS SPECTRAL PEAKS>  (2677) 
14 1.46
15 4.92
30 2.22
38 2.3
39 3.8
42 1.36
43 99.99
44 3.58
50 1.28
62 1.43
63 4.61
64 2.63
65 4.75
81 1.83
92 1
93 7.71
109 1.63
123 1.03
139 6.84
181 5.32

>  <PREDICTED SPECTRUM>  (2677) 
14 34
15 98
26 15
27 46
28 3
30 123
33 3
37 77
38 146
39 238
40 88
41 96
42 218
43 999
44 170
46 55
50 227
51 246
52 201
53 147
54 25
55 50
61 25
62 163
63 324
64 241
65 284
66 135
72 3
73 40
74 144
75 113
76 144
77 75
78 81
79 81
80 59
81 185
82 17
86 19
91 57
92 170
93 195
94 117
95 6
107 48
109 216
110 24
111 15
121 36
122 129
123 108
135 2
139 417
140 53
181 254
182 72

$$$$

     RDKit          2D

 13 13  0  0  0  0  0  0  0  0999 V2000
   -1.6353    4.6878    0.0000 C   0  0  0  0  0  0  0  0  0  0  0  0
   -0.3300   -2.0600    0.0000 C   0  0  0  0  0  0  0  0  0  0  0  0
   -1.6200   -1.3100    0.0000 C   0  0  0  0  0  0  0  0  0  0  0  0
    0.9700   -1.3100    0.0000 C   0  0  0  0  0  0  0  0  0  0  0  0
   -1.6200    0.1900    0.0000 C   0  0  0  0  0  0  0  0  0  0  0  0
   -1.6328    3.1878    0.0000 C   0  0  0  0  0  0  0  0  0  0  0  0
    0.9700    0.1900    0.0000 C   0  0  0  0  0  0  0  0  0  0  0  0
   -0.3300    0.9400    0.0000 C   0  0  0  0  0  0  0  0  0  0  0  0
    2.2689    0.9402    0.0000 N   0  0  0  0  0  0  0  0  0  0  0  0
   -2.9306    2.4356    0.0000 O   0  0  0  0  0  0  0  0  0  0  0  0
    3.5681    0.1904    0.0000 O   0  0  0  0  0  0  0  0  0  0  0  0
    2.2687    2.4402    0.0000 O   0  0  0  0  0  0  0  0  0  0  0  0
   -0.3325    2.4400    0.0000 O   0  0  0  0  0  0  0  0  0  0  0  0
  3  2  2  0
  4  2  1  0
  5  3  1  0
  6  1  1  0
  7  4  2  0
  8  5  2  0
  8  7  1  0
  9  7  1  0
 10  6  2  0
 11  9  1  0
 12  9  2  0
 13  6  1  0
 13  8  1  0
M  CHG  2   9   1  11  -1
M  END
>  <NAME>  (2678) 
2-ACETOXYNITROBENZENE

>  <SYNONYMS>  (2678) 


>  <SPECTRUM TYPE>  (2678) 
MS1

>  <INSTRUMENT TYPE>  (2678) 
EI-B

>  <INSTRUMENT>  (2678) 
HITACHI M-60

>  <ION MODE>  (2678) 
P

>  <INCHIKEY>  (2678) 
MRCKRGSNLOHYRA-UHFFFAOYSA-N

>  <FORMULA>  (2678) 
C8H7NO4

>  <EXACT MASS>  (2678) 
181.037507704

>  <MW>  (2678) 
181

>  <ID>  (2678) 
JP008232

>  <CONTRIBUTOR>  (2678) 
University of Tokyo Team, {Faculty of Engineering, University of Tokyo

>  <COMMENT>  (2678) 
SMILES=CC(=O)Oc(c1)c(ccc1)[N+1]([O-1])=O
InChI=InChI=1S/C8H7NO4/c1-6(10)13-8-5-3-2-4-7(8)9(11)12/h2-5H,1H3
computed SMILES=O=C(OC=1C=CC=CC1N(=O)=O)C
accession=JP008232
date=2016.01.19 (Created 2008.10.21, modified 2011.05.06)
author=UBE SCIENTIFIC ANALYSIS LABORATORY
license=CC BY-NC-SA
exact mass=181.03751
ionization energy=70 eV
ion type=[M]+*
computed spectral entropy=2.063373229062192
computed normalized entropy=0.6260544174213633
SPLASH=splash10-0006-9200000000-98eca8b0e16144f9c27a
submitter=submitter = University of Tokyo Team (Faculty of Engineering, University of Tokyo)
MoNA Rating=3.75

>  <NUM PEAKS>  (2678) 
27

>  <MASS SPECTRAL PEAKS>  (2678) 
14 1.2
15 6.8
30 3.6
38 3.33
39 3.97
42 2.33
43 99.99
44 3.01
50 2.01
51 2.17
52 1.81
53 1.73
62 1.8
63 6.84
64 4.74
65 4.74
81 2.95
92 1.32
93 2.13
94 0.92
106 1.35
109 2.51
122 1.24
123 1.5
139 37.27
140 2.7
181 3.04

>  <PREDICTED SPECTRUM>  (2678) 
14 30
15 54
26 10
30 53
33 1
37 117
38 198
39 306
40 125
41 57
42 238
43 999
44 250
46 61
49 35
50 313
51 382
52 323
53 196
54 34
55 47
57 33
60 22
61 71
62 204
63 389
64 303
65 339
66 214
67 48
68 32
73 27
74 88
75 198
76 204
77 42
78 72
79 107
80 69
81 233
91 179
92 311
93 378
94 136
109 325
110 17
121 47
122 134
123 130
139 668
140 135
181 194
182 59

$$$$

     RDKit          2D

  4  3  0  0  0  0  0  0  0  0999 V2000
   -0.6495    1.8750    0.0000 C   0  0  0  0  0  0  0  0  0  0  0  0
    0.6495    2.6250    0.0000 C   0  0  0  0  0  0  0  0  0  0  0  0
   -1.9486    1.1250    0.0000 N   0  0  0  0  0  0  0  0  0  0  0  0
    1.9486    3.3750    0.0000 N   0  0  0  0  0  0  0  0  0  0  0  0
  2  1  1  0
  3  1  3  0
  4  2  3  0
M  END
>  <NAME>  (2679) 
DICYAN

>  <SYNONYMS>  (2679) 
CYANOGEN

>  <SPECTRUM TYPE>  (2679) 
MS1

>  <INSTRUMENT TYPE>  (2679) 
EI-B

>  <INSTRUMENT>  (2679) 
HITACHI M-60

>  <ION MODE>  (2679) 
P

>  <INCHIKEY>  (2679) 
JMANVNJQNLATNU-UHFFFAOYSA-N

>  <FORMULA>  (2679) 
C2N2

>  <EXACT MASS>  (2679) 
52.006147999999996

>  <MW>  (2679) 
52

>  <ID>  (2679) 
JP008231

>  <CONTRIBUTOR>  (2679) 
University of Tokyo Team, {Faculty of Engineering, University of Tokyo

>  <COMMENT>  (2679) 
SMILES=N#CC#N
cas=460-19-5
InChI=InChI=1S/C2N2/c3-1-2-4
computed SMILES=N#CC#N
accession=JP008231
date=2016.01.19 (Created 2008.10.21, modified 2011.05.06)
author=UBE SCIENTIFIC ANALYSIS LABORATORY
license=CC BY-NC-SA
exact mass=52.00615
ionization energy=70 eV
ion type=[M]+*
computed spectral entropy=1.22493396699292
computed normalized entropy=0.4775665310621201
SPLASH=splash10-0udi-9000000000-c482a6f640de951a3bb9
submitter=submitter = University of Tokyo Team (Faculty of Engineering, University of Tokyo)
MoNA Rating=3.75

>  <NUM PEAKS>  (2679) 
13

>  <MASS SPECTRAL PEAKS>  (2679) 
12 2.98
14 1.66
15 0.61
24 3.92
26 14.5
28 1.67
29 1.39
30 5.8
31 0.65
38 2.55
44 3.06
52 99.99
53 2.99

>  <PREDICTED SPECTRUM>  (2679) 
14 22
19 16
25 260
26 270
27 33
28 140
31 114
38 135
51 206
52 999
53 410
54 40

$$$$

     RDKit          2D

 14 14  0  0  0  0  0  0  0  0999 V2000
   -2.5987   -2.7002    0.0000 C   0  0  0  0  0  0  0  0  0  0  0  0
    3.8981   -0.4504    0.0000 C   0  0  0  0  0  0  0  0  0  0  0  0
   -1.2990   -3.4500    0.0000 C   0  0  0  0  0  0  0  0  0  0  0  0
   -1.3000    1.0500    0.0000 C   0  0  0  0  0  0  0  0  0  0  0  0
    1.3000    1.0500    0.0000 C   0  0  0  0  0  0  0  0  0  0  0  0
    0.0000    3.3000    0.0000 C   0  0  0  0  0  0  0  0  0  0  0  0
    0.0000    1.8000    0.0000 C   0  0  0  0  0  0  0  0  0  0  0  0
   -1.3000   -0.4500    0.0000 C   0  0  0  0  0  0  0  0  0  0  0  0
    1.3000   -0.4500    0.0000 C   0  0  0  0  0  0  0  0  0  0  0  0
    0.0000   -1.2000    0.0000 C   0  0  0  0  0  0  0  0  0  0  0  0
   -1.2990    4.0500    0.0000 O   0  0  0  0  0  0  0  0  0  0  0  0
   -2.5989   -1.2002    0.0000 O   0  0  0  0  0  0  0  0  0  0  0  0
    2.5989   -1.2002    0.0000 O   0  0  0  0  0  0  0  0  0  0  0  0
   -0.0000   -2.7000    0.0000 O   0  0  0  0  0  0  0  0  0  0  0  0
  7  4  2  0
  7  5  1  0
  7  6  1  0
  8  4  1  0
  9  5  2  0
 10  8  2  0
 10  9  1  0
 11  6  2  0
 12  1  1  0
 12  8  1  0
 13  2  1  0
 13  9  1  0
 14  3  1  0
 14 10  1  0
M  END
>  <NAME>  (2680) 
3,4,5-TRIMETHOXYBENZALDEHYDE

>  <SYNONYMS>  (2680) 


>  <SPECTRUM TYPE>  (2680) 
MS1

>  <INSTRUMENT TYPE>  (2680) 
EI-B

>  <INSTRUMENT>  (2680) 
HITACHI M-60

>  <ION MODE>  (2680) 
P

>  <INCHIKEY>  (2680) 
OPHQOIGEOHXOGX-UHFFFAOYSA-N

>  <FORMULA>  (2680) 
C10H12O4

>  <EXACT MASS>  (2680) 
196.073558864

>  <MW>  (2680) 
196

>  <ID>  (2680) 
JP008230

>  <CONTRIBUTOR>  (2680) 
University of Tokyo Team, {Faculty of Engineering, University of Tokyo

>  <COMMENT>  (2680) 
SMILES=O=Cc(c1)cc(OC)c(OC)c(OC)1
cas=86-81-7
InChI=InChI=1S/C10H12O4/c1-12-8-4-7(6-11)5-9(13-2)10(8)14-3/h4-6H,1-3H3
computed SMILES=O=CC1=CC(OC)=C(OC)C(OC)=C1
accession=JP008230
date=2016.01.19 (Created 2008.10.21, modified 2011.05.06)
author=UBE SCIENTIFIC ANALYSIS LABORATORY
license=CC BY-NC-SA
exact mass=196.07356
ionization energy=70 eV
ion type=[M]+*
computed spectral entropy=3.5824997046527343
computed normalized entropy=0.810732955230785
SPLASH=splash10-000t-5900000000-40f393144b6202240307
submitter=submitter = University of Tokyo Team (Faculty of Engineering, University of Tokyo)
MoNA Rating=3.75

>  <NUM PEAKS>  (2680) 
83

>  <MASS SPECTRAL PEAKS>  (2680) 
15 10.7
27 2.44
29 5.64
37 1.88
38 6.19
39 22.64
41 2.9
43 2.42
45 1.69
49 1.2
50 7.12
51 10.36
52 2.61
53 8.55
54 1.31
55 1.78
59 1.64
61 1.12
62 2.65
63 3.92
64 1.71
65 11.62
66 7.94
67 7.74
68 0.83
69 1.62
74 1.02
75 2.44
76 1.95
77 10.16
78 3.1
79 7.42
80 1.73
81 3.98
82 5.35
91 1.23
92 2.17
93 21.05
94 3.05
95 15.78
96 2.38
97 3.08
104 1.42
105 2.17
106 1.05
107 3.37
108 2.29
109 3.13
110 22.49
111 1.97
119 2.27
120 1.29
121 4.4
122 2.24
123 5.7
124 1.91
125 31.23
126 3.05
129 2.89
135 6.64
136 7.37
137 3.65
138 6.71
139 1.79
149 1.09
150 1.69
151 1.48
152 2.96
153 9.36
154 1.01
165 2.48
166 3.52
167 5.15
168 0.9
179 2.96
180 2.43
181 77.66
182 8.37
183 1.21
195 10.39
196 99.99
197 17.37
198 2.2

>  <PREDICTED SPECTRUM>  (2680) 
14 24
15 126
26 30
27 38
28 17
29 152
31 12
33 1
36 19
37 126
38 193
39 283
40 142
41 186
42 77
43 98
44 84
45 116
47 40
48 17
49 150
50 335
51 414
52 295
53 498
54 188
55 230
56 39
57 97
59 196
60 50
61 188
62 241
63 281
64 228
65 364
66 329
67 390
68 236
69 336
70 74
71 48
72 59
73 36
74 87
75 207
76 186
77 369
78 267
79 426
80 259
81 311
82 236
83 152
84 79
85 61
86 10
87 33
90 67
91 246
92 263
93 392
94 255
95 450
96 199
97 164
98 41
103 52
104 62
105 192
106 200
107 359
108 228
109 254
110 333
111 93
112 2
119 98
120 199
121 386
122 191
123 428
124 165
125 289
126 47
127 35
133 51
134 121
135 253
136 174
137 148
138 410
139 172
140 75
148 10
149 225
150 266
151 239
152 131
153 496
154 179
155 69
156 5
163 135
164 59
165 72
166 53
167 88
168 21
169 24
179 110
180 115
181 797
182 262
183 84
195 135
196 999
197 342
198 139

$$$$

     RDKit          2D

 13 13  0  0  0  0  0  0  0  0999 V2000
    2.8302    1.6379    0.0000 C   0  0  0  0  0  0  0  0  0  0  0  0
   -3.6598   -0.6066    0.0000 C   0  0  0  0  0  0  0  0  0  0  0  0
    1.5367   -3.6068    0.0000 C   0  0  0  0  0  0  0  0  0  0  0  0
    0.2333    1.6360    0.0000 C   0  0  0  0  0  0  0  0  0  0  0  0
    1.5323    0.8860    0.0000 C   0  0  0  0  0  0  0  0  0  0  0  0
   -1.0612    0.8938    0.0000 C   0  0  0  0  0  0  0  0  0  0  0  0
    1.5369   -0.6062    0.0000 C   0  0  0  0  0  0  0  0  0  0  0  0
   -1.0617   -0.6070    0.0000 C   0  0  0  0  0  0  0  0  0  0  0  0
    0.2373   -1.3570    0.0000 C   0  0  0  0  0  0  0  0  0  0  0  0
   -2.3590    1.6460    0.0000 O   0  0  0  0  0  0  0  0  0  0  0  0
    2.8371   -1.3540    0.0000 O   0  0  0  0  0  0  0  0  0  0  0  0
   -2.3609   -1.3568    0.0000 O   0  0  0  0  0  0  0  0  0  0  0  0
    0.2376   -2.8570    0.0000 O   0  0  0  0  0  0  0  0  0  0  0  0
  5  1  1  0
  5  4  2  0
  6  4  1  0
  7  5  1  0
  8  6  1  0
  9  7  1  0
  9  8  2  0
 10  6  2  0
 11  7  2  0
 12  2  1  0
 12  8  1  0
 13  3  1  0
 13  9  1  0
M  END
>  <NAME>  (2681) 
2,3-DIMETHOXY-5-METHYL-1,4-BENZOQUINONE

>  <SYNONYMS>  (2681) 
COENZYME Q0

>  <SPECTRUM TYPE>  (2681) 
MS1

>  <INSTRUMENT TYPE>  (2681) 
EI-B

>  <INSTRUMENT>  (2681) 
HITACHI M-60

>  <ION MODE>  (2681) 
P

>  <INCHIKEY>  (2681) 
UIXPTCZPFCVOQF-UHFFFAOYSA-N

>  <FORMULA>  (2681) 
C9H10O4

>  <EXACT MASS>  (2681) 
182.0579088

>  <MW>  (2681) 
182

>  <ID>  (2681) 
JP008229

>  <CONTRIBUTOR>  (2681) 
University of Tokyo Team, {Faculty of Engineering, University of Tokyo

>  <COMMENT>  (2681) 
SMILES=COc(c(=O)1)c(OC)c(=O)c(C)c1
cas=605-94-7
InChI=InChI=1S/C9H10O4/c1-5-4-6(10)8(12-2)9(13-3)7(5)11/h4H,1-3H3
computed SMILES=O=C1C=C(C(=O)C(OC)=C1OC)C
accession=JP008229
date=2016.01.19 (Created 2008.10.21, modified 2011.05.06)
author=UBE SCIENTIFIC ANALYSIS LABORATORY
license=CC BY-NC-SA
exact mass=182.05791
ionization energy=70 eV
ion type=[M]+*
computed spectral entropy=3.490023526632023
computed normalized entropy=0.8134381817388485
SPLASH=splash10-015i-9700000000-59c51939f97dd54fba00
submitter=submitter = University of Tokyo Team (Faculty of Engineering, University of Tokyo)
MoNA Rating=3.75

>  <NUM PEAKS>  (2681) 
73

>  <MASS SPECTRAL PEAKS>  (2681) 
14 5.05
15 70.96
26 2.97
27 14.56
29 11.85
37 3.21
38 10.42
39 55.34
40 50.53
41 9.92
42 2.55
43 13.1
50 4.79
51 6.36
52 10.03
53 13.9
54 2.09
55 5.06
56 2.28
59 1.12
63 1.15
65 2.23
66 2.63
67 12.19
68 38.52
69 31.24
70 1.23
71 1.69
78 1.02
79 2.75
80 6.27
81 9.28
82 1.69
83 60.53
84 3.39
86 2.49
93 3.12
94 1.51
95 4.13
96 12.73
97 2.01
99 1.56
107 1.83
108 5.5
109 2.84
111 23.38
112 1.77
121 6.89
122 1.75
123 3.64
125 4.06
126 4.88
135 2.17
136 19.83
137 99.99
138 9.6
139 20.48
140 2.55
141 1.18
151 3.74
152 2.67
153 14.84
154 4.06
164 2.56
167 33
168 1.32
169 10.09
170 1.14
181 2.13
182 97.26
183 14.8
184 16.61
185 1.42

>  <PREDICTED SPECTRUM>  (2681) 
14 4
15 32
18 8
25 22
26 57
27 81
28 45
29 61
33 22
36 17
37 107
38 158
39 338
40 234
41 337
42 190
43 289
44 99
45 45
49 79
50 215
51 340
52 266
53 562
54 227
55 497
56 189
57 180
58 35
59 122
60 17
61 77
62 67
63 128
64 148
65 277
66 273
67 383
68 303
69 608
70 185
71 111
72 72
73 44
74 15
75 85
76 21
77 246
78 205
79 298
80 170
81 274
82 233
83 489
84 205
85 221
86 58
87 3
90 20
91 85
92 107
93 234
94 162
95 286
96 272
97 274
98 161
99 142
105 73
106 106
107 235
108 248
109 337
110 190
111 731
112 194
113 196
119 41
120 53
121 230
122 153
123 245
124 206
125 295
126 122
134 108
135 303
136 344
137 403
138 220
139 538
140 156
149 86
150 60
151 127
152 222
153 562
154 254
155 88
163 45
164 164
165 131
166 53
167 473
168 154
169 47
181 77
182 999
183 347
184 140

$$$$

     RDKit          2D

  8  7  0  0  0  0  0  0  0  0999 V2000
    1.9486    3.3750    0.0000 C   0  0  0  0  0  0  0  0  0  0  0  0
   -5.8457    3.3750    0.0000 C   0  0  0  0  0  0  0  0  0  0  0  0
    0.6495    4.1250    0.0000 C   0  0  0  0  0  0  0  0  0  0  0  0
   -0.6495    3.3750    0.0000 C   0  0  0  0  0  0  0  0  0  0  0  0
   -1.9486    4.1250    0.0000 C   0  0  0  0  0  0  0  0  0  0  0  0
   -3.2476    3.3750    0.0000 C   0  0  0  0  0  0  0  0  0  0  0  0
   -3.2476    1.8750    0.0000 O   0  0  0  0  0  0  0  0  0  0  0  0
   -4.5466    4.1250    0.0000 O   0  0  0  0  0  0  0  0  0  0  0  0
  3  1  1  0
  3  4  2  0
  5  4  1  0
  6  5  1  0
  7  6  2  0
  8  2  1  0
  8  6  1  0
M  END
>  <NAME>  (2682) 
METHYL 3-PENTENOATE

>  <SYNONYMS>  (2682) 


>  <SPECTRUM TYPE>  (2682) 
MS1

>  <INSTRUMENT TYPE>  (2682) 
EI-B

>  <INSTRUMENT>  (2682) 
HITACHI M-60

>  <ION MODE>  (2682) 
P

>  <INCHIKEY>  (2682) 
KJALUUCEMMPKAC-ONEGZZNKSA-N

>  <FORMULA>  (2682) 
C6H10O2

>  <EXACT MASS>  (2682) 
114.06807956

>  <MW>  (2682) 
114

>  <ID>  (2682) 
JP008228

>  <CONTRIBUTOR>  (2682) 
University of Tokyo Team, {Faculty of Engineering, University of Tokyo

>  <COMMENT>  (2682) 
SMILES=CC=CCC(=O)OC
cas=818-58-6
InChI=InChI=1S/C6H10O2/c1-3-4-5-6(7)8-2/h3-4H,5H2,1-2H3/b4-3+
computed SMILES=O=C(OC)CC=CC
accession=JP008228
date=2016.01.19 (Created 2008.10.21, modified 2011.05.06)
author=UBE SCIENTIFIC ANALYSIS LABORATORY
license=CC BY-NC-SA
exact mass=114.06808
ionization energy=70 eV
ion type=[M]+*
computed spectral entropy=2.6119590660708294
computed normalized entropy=0.7925025334270894
SPLASH=splash10-0a4i-9000000000-e69b78d23732260dfa38
submitter=submitter = University of Tokyo Team (Faculty of Engineering, University of Tokyo)
MoNA Rating=3.75

>  <NUM PEAKS>  (2682) 
27

>  <MASS SPECTRAL PEAKS>  (2682) 
15 31.11
16 1.4
26 2.73
27 24.93
28 4.85
29 35.68
39 17.34
40 1.88
41 4.41
42 4.66
43 6.56
50 1.74
51 2.75
53 9.96
54 14.53
55 99.99
56 4.81
59 37.93
71 3.31
72 12.47
74 1.66
81 1.1
82 10.38
83 8.54
99 1.41
114 29.72
115 1.97

>  <PREDICTED SPECTRUM>  (2682) 
14 52
15 145
16 15
25 40
26 208
27 558
28 248
29 397
30 57
31 167
32 40
33 26
37 137
38 220
39 694
40 305
41 694
42 260
43 261
44 85
45 143
46 17
49 79
50 198
51 241
52 197
53 381
54 541
55 999
56 267
57 189
58 40
59 646
60 91
61 61
62 77
63 62
66 28
67 167
71 252
72 257
73 90
74 125
79 40
81 187
82 423
83 472
84 154
85 174
86 67
87 67
98 87
99 247
100 69
113 108
114 544
115 159

$$$$

     RDKit          2D

 12 12  0  0  0  0  0  0  0  0999 V2000
   -3.5381    0.5444    0.0000 C   0  0  0  0  0  0  0  0  0  0  0  0
    1.6590    2.0456    0.0000 C   0  0  0  0  0  0  0  0  0  0  0  0
    0.3600    2.7956    0.0000 C   0  0  0  0  0  0  0  0  0  0  0  0
    0.3590   -0.2060    0.0000 C   0  0  0  0  0  0  0  0  0  0  0  0
    1.6586    0.5448    0.0000 C   0  0  0  0  0  0  0  0  0  0  0  0
   -0.9395    2.0448    0.0000 C   0  0  0  0  0  0  0  0  0  0  0  0
   -0.9400    0.5440    0.0000 C   0  0  0  0  0  0  0  0  0  0  0  0
    2.9576   -0.2052    0.0000 C   0  0  0  0  0  0  0  0  0  0  0  0
   -2.2386    2.7948    0.0000 O   0  0  0  0  0  0  0  0  0  0  0  0
    2.9576   -1.7052    0.0000 O   0  0  0  0  0  0  0  0  0  0  0  0
    4.2566    0.5448    0.0000 O   0  0  0  0  0  0  0  0  0  0  0  0
   -2.2392   -0.2058    0.0000 O   0  0  0  0  0  0  0  0  0  0  0  0
  3  2  2  0
  5  2  1  0
  5  4  2  0
  6  3  1  0
  7  4  1  0
  7  6  2  0
  8  5  1  0
  9  6  1  0
 10  8  2  0
 11  8  1  0
 12  1  1  0
 12  7  1  0
M  END
>  <NAME>  (2683) 
4-HYDROXY-3-METHOXYBENZOIC ACID

>  <SYNONYMS>  (2683) 
VANILLIC ACID

>  <SPECTRUM TYPE>  (2683) 
MS1

>  <INSTRUMENT TYPE>  (2683) 
EI-B

>  <INSTRUMENT>  (2683) 
HITACHI M-80

>  <ION MODE>  (2683) 
P

>  <INCHIKEY>  (2683) 
WKOLLVMJNQIZCI-UHFFFAOYSA-N

>  <FORMULA>  (2683) 
C8H8O4

>  <EXACT MASS>  (2683) 
168.042258736

>  <MW>  (2683) 
168

>  <ID>  (2683) 
JP008196

>  <CONTRIBUTOR>  (2683) 
University of Tokyo Team, {Faculty of Engineering, University of Tokyo

>  <COMMENT>  (2683) 
SMILES=COc(c1)c(O)ccc(C(O)=O)1
cas=121-34-6
InChI=InChI=1S/C8H8O4/c1-12-7-4-5(8(10)11)2-3-6(7)9/h2-4,9H,1H3,(H,10,11)
computed SMILES=O=C(O)C1=CC=C(O)C(OC)=C1
accession=JP008196
date=2016.01.19 (Created 2008.10.21, modified 2011.05.06)
author=NARA WOMEN'S UNIVERSITY
license=CC BY-NC-SA
exact mass=168.04226
ionization energy=70 eV
ion type=[M]+*
computed spectral entropy=2.31134245168931
computed normalized entropy=0.6669124585696613
SPLASH=splash10-0gb9-2900000000-ccd8d4a214bc1a7f08c5
submitter=submitter = University of Tokyo Team (Faculty of Engineering, University of Tokyo)
MoNA Rating=3.75

>  <NUM PEAKS>  (2683) 
32

>  <MASS SPECTRAL PEAKS>  (2683) 
39 1.55
41 1.75
45 1.06
50 1.58
51 3.72
52 3.81
53 2.36
55 1.35
63 1.99
65 2.08
69 1.49
77 1.47
79 3.6
80 1.56
81 1.75
92 1
97 17.39
107 1.73
108 3.02
119 1.23
121 1.19
123 3.5
125 13.6
137 2.6
151 13.78
152 1.35
153 46.24
154 4.83
162 1.02
168 99.99
169 14.34
170 1.6

>  <PREDICTED SPECTRUM>  (2683) 
14 15
15 62
16 8
17 21
18 35
25 7
26 34
27 26
28 30
29 54
31 16
32 1
33 1
36 9
37 57
38 97
39 183
40 30
41 124
42 33
43 90
44 85
45 137
49 96
50 213
51 242
52 195
53 302
54 86
55 98
59 31
60 12
61 89
62 130
63 179
64 111
65 293
66 169
67 128
68 63
69 227
70 7
71 1
74 56
75 40
76 47
77 198
78 116
79 270
80 164
81 227
82 87
89 94
90 90
91 183
92 153
93 215
94 69
95 172
96 133
97 205
98 25
99 45
104 50
105 122
106 65
107 256
108 216
109 174
110 137
111 72
119 94
120 89
121 199
122 213
123 292
124 128
125 275
126 64
135 153
136 173
137 132
138 109
139 110
141 7
149 45
150 71
151 367
152 136
153 320
154 72
155 1
165 31
166 21
167 105
168 999
169 297
170 138
171 17

$$$$

     RDKit          2D

  4  3  0  0  0  0  0  0  0  0999 V2000
    0.0000    0.0000    0.0000 C   0  0  0  0  0  0  0  0  0  0  0  0
   -1.2990    2.2500    0.0000 C   0  0  0  0  0  0  0  0  0  0  0  0
    0.0000    1.5000    0.0000 N   0  0  0  0  0  0  0  0  0  0  0  0
   -2.5981    3.0000    0.0000 S   0  0  0  0  0  0  0  0  0  0  0  0
  3  1  1  0
  3  2  2  0
  4  2  2  0
M  END
>  <NAME>  (2684) 
METHYL ISOTHIOCYANATE

>  <SYNONYMS>  (2684) 


>  <SPECTRUM TYPE>  (2684) 
MS1

>  <INSTRUMENT TYPE>  (2684) 
EI-B

>  <INSTRUMENT>  (2684) 
HITACHI M-80

>  <ION MODE>  (2684) 
P

>  <INCHIKEY>  (2684) 
LGDSHSYDSCRFAB-UHFFFAOYSA-N

>  <FORMULA>  (2684) 
C2H3NS

>  <EXACT MASS>  (2684) 
72.998620096

>  <MW>  (2684) 
73

>  <ID>  (2684) 
JP008195

>  <CONTRIBUTOR>  (2684) 
University of Tokyo Team, {Faculty of Engineering, University of Tokyo

>  <COMMENT>  (2684) 
SMILES=CN=C=S
cas=556-61-6
InChI=InChI=1S/C2H3NS/c1-3-2-4/h1H3
computed SMILES=S=C=NC
accession=JP008195
date=2016.01.19 (Created 2008.10.21, modified 2011.05.06)
author=NARA WOMEN'S UNIVERSITY
license=CC BY-NC-SA
exact mass=72.99862
ionization energy=70 eV
ion type=[M]+*
computed spectral entropy=2.35743012550333
computed normalized entropy=0.7323768463792345
SPLASH=splash10-00di-9000000000-b429ebb7bc29e9080486
submitter=submitter = University of Tokyo Team (Faculty of Engineering, University of Tokyo)
MoNA Rating=3.75

>  <NUM PEAKS>  (2684) 
25

>  <MASS SPECTRAL PEAKS>  (2684) 
12 1.21
14 1.85
15 9.17
26 1.03
27 2.75
28 10.67
29 1.08
32 10.41
35 4.47
38 3.65
39 4.47
40 4.82
41 1.57
44 13.34
45 23.28
46 5.33
47 1.8
57 6.72
58 1.18
70 7.99
71 4.47
72 43.44
73 99.99
74 5.47
75 4.63

>  <PREDICTED SPECTRUM>  (2684) 
14 94
15 166
16 34
25 30
26 100
27 186
28 235
29 187
30 132
31 123
32 157
33 60
34 15
38 48
40 160
41 124
42 266
43 279
44 365
45 673
46 346
47 181
57 63
58 163
59 31
60 131
72 308
73 999
74 126
75 160
76 45

$$$$

     RDKit          2D

  9  8  0  0  0  0  0  0  0  0999 V2000
    1.9931    3.2978    0.0000 C   0  0  0  0  0  0  0  0  0  0  0  0
   -5.8011    3.2978    0.0000 C   0  0  0  0  0  0  0  0  0  0  0  0
    0.6941    4.0478    0.0000 C   0  0  0  0  0  0  0  0  0  0  0  0
   -4.5021    4.0478    0.0000 C   0  0  0  0  0  0  0  0  0  0  0  0
   -0.9398    5.1969    0.0000 Cl  0  0  0  0  0  0  0  0  0  0  0  0
   -0.6050    3.2978    0.0000 O   0  0  0  0  0  0  0  0  0  0  0  0
   -3.2031    3.2978    0.0000 O   0  0  0  0  0  0  0  0  0  0  0  0
   -1.9040    4.0478    0.0000 P   0  0  0  0  0  0  0  0  0  0  0  0
   -2.8682    5.1969    0.0000 S   0  0  0  0  0  0  0  0  0  0  0  0
  3  1  1  0
  4  2  1  0
  6  3  1  0
  7  4  1  0
  8  5  1  0
  8  6  1  0
  8  7  1  0
  9  8  2  0
M  END
>  <NAME>  (2685) 
DIETHYL CHLOROTHIOPHOSPHATE

>  <SYNONYMS>  (2685) 
DIETHYL PHOSPHOROCHLORIDOTHIONATE

>  <SPECTRUM TYPE>  (2685) 
MS1

>  <INSTRUMENT TYPE>  (2685) 
EI-B

>  <INSTRUMENT>  (2685) 
HITACHI M-80

>  <ION MODE>  (2685) 
P

>  <INCHIKEY>  (2685) 
KMJJJTCKNZYTEY-UHFFFAOYSA-N

>  <FORMULA>  (2685) 
C4H10ClO2PS

>  <EXACT MASS>  (2685) 
187.98276486999998

>  <MW>  (2685) 
188

>  <ID>  (2685) 
JP008193

>  <CONTRIBUTOR>  (2685) 
University of Tokyo Team, {Faculty of Engineering, University of Tokyo

>  <COMMENT>  (2685) 
SMILES=CCOP(=S)(Cl)OCC
cas=2524-04-1
InChI=InChI=1S/C4H10ClO2PS/c1-3-6-8(5,9)7-4-2/h3-4H2,1-2H3
computed SMILES=S=P(Cl)(OCC)OCC
accession=JP008193
date=2016.01.19 (Created 2008.10.21, modified 2011.05.06)
author=NARA WOMEN'S UNIVERSITY
license=CC BY-NC-SA
exact mass=187.98276
ionization energy=70 eV
ion type=[M]+*
computed spectral entropy=3.6619914735004646
computed normalized entropy=0.8356844398260936
SPLASH=splash10-00pv-5900000000-1cd2bdbed5b018a377e2
submitter=submitter = University of Tokyo Team (Faculty of Engineering, University of Tokyo)
MoNA Rating=3.75

>  <NUM PEAKS>  (2685) 
80

>  <MASS SPECTRAL PEAKS>  (2685) 
14 1.53
15 4.72
26 12.07
27 55.46
28 16.21
29 58.11
30 1.98
31 1.44
32 2.96
34 1.57
35 1.77
42 1.89
43 11.32
44 1.84
45 31.47
47 19.97
48 2.58
49 1.13
58 1.43
59 2.63
60 4.81
61 3.34
62 4.72
63 8.01
64 3.46
65 14.34
66 1.95
67 2.14
79 9.52
80 5.72
81 1.35
83 17.45
85 5.67
91 1.45
93 3.39
96 5.52
97 61.38
98 2.35
99 9.93
100 5.9
101 2.89
102 1.81
111 12.23
113 4.23
114 4.23
115 32.14
116 49.47
117 13.86
118 18.43
119 1.4
121 2.23
122 1.4
125 21.41
126 1.43
127 3.68
128 1.33
129 1.43
131 6.12
132 64.48
133 37.34
134 24.72
135 13.27
136 1.03
143 7.54
144 58.4
145 7.66
146 21.77
147 1.88
153 12.96
154 1
159 2.18
160 6.83
161 15.36
162 2.89
163 5.43
188 99.99
189 8.62
190 36.32
191 2.93
192 1.63

>  <PREDICTED SPECTRUM>  (2685) 
14 32
15 86
16 21
17 52
18 54
19 44
25 46
26 189
27 613
28 172
29 999
31 339
32 46
33 11
35 98
36 123
37 24
38 100
40 5
41 15
42 133
44 115
45 253
46 34
47 488
48 95
49 160
50 116
51 447
52 297
53 255
54 184
55 131
56 27
57 94
60 24
61 170
62 106
63 564
64 205
65 580
66 12
68 65
69 142
70 159
71 131
72 45
74 5
75 11
76 62
77 4
78 36
79 213
80 307
81 524
82 120
83 272
84 10
85 54
86 53
87 104
88 117
91 241
93 257
96 302
97 557
98 263
99 394
100 163
107 59
108 39
109 291
111 138
113 86
114 117
115 535
116 267
117 217
124 38
125 522
126 148
127 222
129 43
131 111
132 598
133 652
134 327
135 325
143 387
144 412
145 315
146 46
147 4
153 282
154 30
160 544
161 442
162 497
163 392
164 47
173 26
188 438
189 132
190 255
191 63

$$$$

     RDKit          2D

  6  5  0  0  0  0  0  0  0  0999 V2000
    0.0000    3.0000    0.0000 C   0  0  0  0  0  0  0  0  0  0  0  0
   -2.5981    3.0000    0.0000 C   0  0  0  0  0  0  0  0  0  0  0  0
   -1.2990    2.2500    0.0000 C   0  0  0  0  0  0  0  0  0  0  0  0
    1.2990    2.2500    0.0000 O   0  0  0  0  0  0  0  0  0  0  0  0
   -3.8971    2.2500    0.0000 O   0  0  0  0  0  0  0  0  0  0  0  0
   -1.2990    0.7500    0.0000 O   0  0  0  0  0  0  0  0  0  0  0  0
  3  1  1  0
  3  2  1  0
  4  1  1  0
  5  2  1  0
  6  3  1  0
M  END
>  <NAME>  (2686) 
GLYCEROL

>  <SYNONYMS>  (2686) 


>  <SPECTRUM TYPE>  (2686) 
MS1

>  <INSTRUMENT TYPE>  (2686) 
EI-B

>  <INSTRUMENT>  (2686) 
HITACHI M-80

>  <ION MODE>  (2686) 
P

>  <INCHIKEY>  (2686) 
PEDCQBHIVMGVHV-UHFFFAOYSA-N

>  <FORMULA>  (2686) 
C3H8O3

>  <EXACT MASS>  (2686) 
92.04734411599999

>  <MW>  (2686) 
92

>  <ID>  (2686) 
JP008191

>  <CONTRIBUTOR>  (2686) 
University of Tokyo Team, {Faculty of Engineering, University of Tokyo

>  <COMMENT>  (2686) 
SMILES=OCC(O)CO
cas=56-81-5
InChI=InChI=1S/C3H8O3/c4-1-3(6)2-5/h3-6H,1-2H2
computed SMILES=OCC(O)CO
accession=JP008191
date=2016.01.19 (Created 2008.10.21, modified 2011.05.06)
author=NARA WOMEN'S UNIVERSITY
license=CC BY-NC-SA
exact mass=92.04734
ionization energy=70 eV
ion type=[M]+*
computed spectral entropy=2.5356104402669777
computed normalized entropy=0.7877316734859756
SPLASH=splash10-01ox-9000000000-3fe0c184a891364773a8
submitter=submitter = University of Tokyo Team (Faculty of Engineering, University of Tokyo)
MoNA Rating=3.75

>  <NUM PEAKS>  (2686) 
25

>  <MASS SPECTRAL PEAKS>  (2686) 
15 23.76
17 1.75
18 6.51
19 7.67
26 2.15
27 6.71
28 3.01
29 25.52
30 3.43
31 45.01
32 1.94
33 2.11
42 9.61
43 80.03
44 47.21
45 13.93
55 1.65
56 1.38
57 11.49
60 11.34
61 99.99
62 5.79
74 1.5
75 14.85
93 23.15

>  <PREDICTED SPECTRUM>  (2686) 
14 88
15 182
16 42
17 65
18 142
19 75
25 34
26 197
27 463
28 263
29 615
30 453
31 910
32 171
33 101
39 121
40 147
41 291
42 445
43 939
44 999
45 407
46 57
47 27
49 51
55 347
56 261
57 529
61 620
62 394
63 28
73 37
74 15

$$$$

     RDKit          2D

  9  9  0  0  0  0  0  0  0  0999 V2000
    2.2736    0.1321    0.0000 C   0  0  0  0  0  0  0  0  0  0  0  0
    2.2740    1.6329    0.0000 C   0  0  0  0  0  0  0  0  0  0  0  0
    0.9740   -0.6187    0.0000 C   0  0  0  0  0  0  0  0  0  0  0  0
    0.9750    2.3829    0.0000 C   0  0  0  0  0  0  0  0  0  0  0  0
   -0.3250    0.1313    0.0000 C   0  0  0  0  0  0  0  0  0  0  0  0
   -1.6236    2.3821    0.0000 C   0  0  0  0  0  0  0  0  0  0  0  0
   -2.9226    1.6321    0.0000 C   0  0  0  0  0  0  0  0  0  0  0  0
   -0.3245    1.6321    0.0000 C   0  0  0  0  0  0  0  0  0  0  0  0
   -4.2216    0.8821    0.0000 N   0  0  0  0  0  0  0  0  0  0  0  0
  2  1  2  0
  3  1  1  0
  4  2  1  0
  5  3  2  0
  7  6  1  0
  8  4  2  0
  8  5  1  0
  8  6  1  0
  9  7  3  0
M  END
>  <NAME>  (2687) 
BENZYL CYANIDE

>  <SYNONYMS>  (2687) 
PHENYLACETONITRILE

>  <SPECTRUM TYPE>  (2687) 
MS1

>  <INSTRUMENT TYPE>  (2687) 
EI-B

>  <INSTRUMENT>  (2687) 
HITACHI M-80

>  <ION MODE>  (2687) 
P

>  <INCHIKEY>  (2687) 
SUSQOBVLVYHIEX-UHFFFAOYSA-N

>  <FORMULA>  (2687) 
C8H7N

>  <EXACT MASS>  (2687) 
117.057849224

>  <MW>  (2687) 
117

>  <ID>  (2687) 
JP008189

>  <CONTRIBUTOR>  (2687) 
University of Tokyo Team, {Faculty of Engineering, University of Tokyo

>  <COMMENT>  (2687) 
SMILES=N#CCc(c1)cccc1
cas=140-29-4
InChI=InChI=1S/C8H7N/c9-7-6-8-4-2-1-3-5-8/h1-5H,6H2
computed SMILES=N#CCC=1C=CC=CC1
accession=JP008189
date=2016.01.19 (Created 2008.10.21, modified 2011.05.06)
author=NARA WOMEN'S UNIVERSITY
license=CC BY-NC-SA
exact mass=117.05785
ionization energy=70 eV
ion type=[M]+*
computed spectral entropy=2.7008443398611774
computed normalized entropy=0.7536849633686558
SPLASH=splash10-014i-9700000000-44dc07c52f713661d49d
submitter=submitter = University of Tokyo Team (Faculty of Engineering, University of Tokyo)
MoNA Rating=3.75

>  <NUM PEAKS>  (2687) 
36

>  <MASS SPECTRAL PEAKS>  (2687) 
18 1.07
26 2.14
27 3.34
28 3.04
29 2.05
31 3.52
32 2.63
37 2.39
38 4.87
39 9.68
40 2.33
41 1.12
49 1.03
50 8.98
51 12.06
52 2.88
59 1.27
61 2.74
62 5.92
63 12.73
64 4.42
65 4.44
74 2.85
75 2.47
76 2.33
77 6.18
78 1.69
86 1.22
87 1.69
88 2.37
89 21.1
90 36.73
91 8.47
116 34.61
117 99.99
118 9.23

>  <PREDICTED SPECTRUM>  (2687) 
14 36
15 6
18 19
25 39
26 120
27 151
28 121
32 15
33 21
36 38
37 183
38 266
39 463
40 225
41 302
42 51
43 132
44 21
49 81
50 366
51 503
52 290
53 33
55 73
56 32
57 165
58 94
61 219
62 273
63 448
64 297
65 457
66 114
67 5
69 62
70 11
72 19
73 23
74 241
75 243
76 157
77 378
78 236
85 36
86 72
87 179
88 166
89 555
90 500
91 876
92 241
99 23
114 132
115 327
116 726
117 999
118 349
119 13

$$$$

     RDKit          2D

  9  9  0  0  0  0  0  0  0  0999 V2000
   -2.9228    0.8825    0.0000 C   0  0  0  0  0  0  0  0  0  0  0  0
    2.2733   -0.6175    0.0000 C   0  0  0  0  0  0  0  0  0  0  0  0
    0.9738   -1.3683    0.0000 C   0  0  0  0  0  0  0  0  0  0  0  0
    2.2738    0.8833    0.0000 C   0  0  0  0  0  0  0  0  0  0  0  0
   -0.3252   -0.6183    0.0000 C   0  0  0  0  0  0  0  0  0  0  0  0
    0.9748    1.6333    0.0000 C   0  0  0  0  0  0  0  0  0  0  0  0
   -0.3248    0.8825    0.0000 C   0  0  0  0  0  0  0  0  0  0  0  0
   -1.6238    3.1325    0.0000 N   0  0  0  0  0  0  0  0  0  0  0  0
   -1.6238    1.6325    0.0000 N   0  0  0  0  0  0  0  0  0  0  0  0
  3  2  2  0
  4  2  1  0
  5  3  1  0
  6  4  2  0
  7  5  2  0
  7  6  1  0
  9  1  1  0
  9  7  1  0
  9  8  1  0
M  END
>  <NAME>  (2688) 
1-METHYL-1-PHENYLHYDRAZINE

>  <SYNONYMS>  (2688) 


>  <SPECTRUM TYPE>  (2688) 
MS1

>  <INSTRUMENT TYPE>  (2688) 
EI-B

>  <INSTRUMENT>  (2688) 
HITACHI M-80

>  <ION MODE>  (2688) 
P

>  <INCHIKEY>  (2688) 
MWOODERJGVWYJE-UHFFFAOYSA-N

>  <FORMULA>  (2688) 
C7H10N2

>  <EXACT MASS>  (2688) 
122.08439831999999

>  <MW>  (2688) 
122

>  <ID>  (2688) 
JP008188

>  <CONTRIBUTOR>  (2688) 
University of Tokyo Team, {Faculty of Engineering, University of Tokyo

>  <COMMENT>  (2688) 
SMILES=CN(N)c(c1)cccc1
cas=618-40-6
InChI=InChI=1S/C7H10N2/c1-9(8)7-5-3-2-4-6-7/h2-6H,8H2,1H3
computed SMILES=NN(C=1C=CC=CC1)C
accession=JP008188
date=2016.01.19 (Created 2008.10.21, modified 2011.05.06)
author=NARA WOMEN'S UNIVERSITY
license=CC BY-NC-SA
exact mass=122.0844
ionization energy=70 eV
ion type=[M]+*
computed spectral entropy=3.15351556775175
computed normalized entropy=0.7981070752284354
SPLASH=splash10-05di-9600000000-b53d581dcba294c41b1a
submitter=submitter = University of Tokyo Team (Faculty of Engineering, University of Tokyo)
MoNA Rating=3.75

>  <NUM PEAKS>  (2688) 
52

>  <MASS SPECTRAL PEAKS>  (2688) 
14 1.31
15 8.24
16 2.34
17 1.45
18 3.12
26 2.39
27 6.93
28 12.89
29 9.94
30 3.97
37 2.77
38 6.48
39 14.61
40 2.11
41 1.78
42 1.86
43 4.64
44 1.46
45 2.91
50 16.21
51 32.39
52 10.55
53 4.08
54 1.41
61 2.42
62 3
63 8.96
64 6.21
65 11.73
66 3.89
73 1.29
74 5.94
75 3.89
76 4.16
77 99.99
78 27.05
79 25.87
80 3.54
90 1.63
91 6.39
92 7.05
93 7.8
94 1.8
104 12.16
105 10.81
106 48.39
107 81.31
108 7.02
120 2.12
121 9.94
122 92.31
123 8.6

>  <PREDICTED SPECTRUM>  (2688) 
15 29
26 36
27 136
28 82
37 71
38 142
39 287
40 100
41 163
42 309
43 91
44 132
49 79
50 265
51 504
52 350
53 207
54 132
61 32
62 117
63 273
64 252
65 457
66 335
67 127
74 100
75 31
76 144
77 741
78 487
79 357
80 236
81 29
89 16
90 149
91 320
92 472
93 389
94 156
95 13
103 24
104 467
105 409
106 658
107 798
108 270
119 54
120 300
121 225
122 999
123 281
124 28

$$$$

     RDKit          2D

 10 10  0  0  0  0  0  0  0  0999 V2000
   -0.9743    3.5075    0.0000 C   0  0  0  0  0  0  0  0  0  0  0  0
    2.9228   -0.2425    0.0000 C   0  0  0  0  0  0  0  0  0  0  0  0
    2.9233    1.2583    0.0000 C   0  0  0  0  0  0  0  0  0  0  0  0
    1.6233   -0.9933    0.0000 C   0  0  0  0  0  0  0  0  0  0  0  0
    1.6243    2.0083    0.0000 C   0  0  0  0  0  0  0  0  0  0  0  0
    0.3243   -0.2433    0.0000 C   0  0  0  0  0  0  0  0  0  0  0  0
   -2.2733    1.2575    0.0000 C   0  0  0  0  0  0  0  0  0  0  0  0
   -0.9743    2.0075    0.0000 C   0  0  0  0  0  0  0  0  0  0  0  0
    0.3248    1.2575    0.0000 C   0  0  0  0  0  0  0  0  0  0  0  0
   -3.5724    2.0075    0.0000 O   0  0  0  0  0  0  0  0  0  0  0  0
  3  2  2  0
  4  2  1  0
  5  3  1  0
  6  4  2  0
  8  1  1  0
  8  7  1  0
  9  5  2  0
  9  6  1  0
  9  8  1  0
 10  7  1  0
M  END
>  <NAME>  (2689) 
2-PHENYL-1-PROPANOL

>  <SYNONYMS>  (2689) 
BETA-METHYLPHENETHYL ALCOHOL

>  <SPECTRUM TYPE>  (2689) 
MS1

>  <INSTRUMENT TYPE>  (2689) 
EI-B

>  <INSTRUMENT>  (2689) 
HITACHI M-80

>  <ION MODE>  (2689) 
P

>  <INCHIKEY>  (2689) 
RNDNSYIPLPAXAZ-UHFFFAOYSA-N

>  <FORMULA>  (2689) 
C9H12O

>  <EXACT MASS>  (2689) 
136.088815004

>  <MW>  (2689) 
136

>  <ID>  (2689) 
JP008187

>  <CONTRIBUTOR>  (2689) 
University of Tokyo Team, {Faculty of Engineering, University of Tokyo

>  <COMMENT>  (2689) 
SMILES=OCC(C)c(c1)cccc1
cas=1123-85-9
InChI=InChI=1S/C9H12O/c1-8(7-10)9-5-3-2-4-6-9/h2-6,8,10H,7H2,1H3
computed SMILES=OCC(C=1C=CC=CC1)C
accession=JP008187
date=2016.01.19 (Created 2008.10.21, modified 2011.05.06)
author=NARA WOMEN'S UNIVERSITY
license=CC BY-NC-SA
exact mass=136.08882
ionization energy=70 eV
ion type=[M]+*
computed spectral entropy=2.793653514149734
computed normalized entropy=0.7625512503934735
SPLASH=splash10-0a4i-7900000000-a5ffee397c5e0451b263
submitter=submitter = University of Tokyo Team (Faculty of Engineering, University of Tokyo)
MoNA Rating=3.75

>  <NUM PEAKS>  (2689) 
39

>  <MASS SPECTRAL PEAKS>  (2689) 
15 2.6
27 4.47
28 1.61
29 8.46
30 1.26
31 20.15
32 5.78
38 1.18
39 5.44
41 1.09
43 1.66
50 3.98
51 8.94
52 2.57
53 1.51
62 1.35
63 4.3
65 3.64
74 1.85
75 1.42
76 1.5
77 21.15
78 9.36
79 18.18
80 1.19
89 1.69
91 14.47
92 1.23
102 2.05
103 15.88
104 8.92
105 99.99
106 28.8
107 2.14
115 1.25
117 1.42
118 1.45
136 19.6
137 2.03

>  <PREDICTED SPECTRUM>  (2689) 
14 18
15 35
16 9
17 6
18 3
25 11
26 70
27 225
28 51
29 127
31 224
32 31
33 1
36 5
37 46
38 117
39 273
40 93
41 178
42 28
43 205
49 61
50 179
51 325
52 167
53 148
54 4
55 96
57 23
58 20
61 41
62 73
63 160
64 56
65 176
66 60
67 63
74 68
75 91
76 66
77 467
78 295
79 398
80 20
89 89
90 49
91 358
92 135
102 1
103 262
104 175
105 999
106 471
107 166
115 62
117 68
118 177
136 251
137 87

$$$$

     RDKit          2D

 31 34  0  0  1  0  0  0  0  0999 V2000
    9.6794    7.6838    0.0000 C   0  0  0  0  0  0  0  0  0  0  0  0
    7.2143    8.5043    0.0000 C   0  0  0  0  0  0  0  0  0  0  0  0
    3.3280    5.0551    0.0000 C   0  0  0  0  0  0  0  0  0  0  0  0
   -3.7067   -3.5753    0.0000 C   0  0  0  0  0  0  0  0  0  0  0  0
   -1.7818   -3.5657    0.0000 C   0  0  0  0  0  0  0  0  0  0  0  0
   -1.4651    1.3500    0.0000 C   0  0  0  0  0  0  0  0  0  0  0  0
    2.5987    3.5305    0.0000 C   0  0  0  0  0  0  0  0  0  0  0  0
    2.5768   -0.9228    0.0000 C   0  0  0  0  0  0  0  0  0  0  0  0
    6.2669    5.6578    0.0000 C   0  0  0  0  0  0  0  0  0  0  0  0
    7.7363    5.9592    0.0000 C   0  0  0  0  0  0  0  0  0  0  0  0
    5.7931    4.2346    0.0000 C   0  0  0  0  0  0  0  0  0  0  0  0
    1.1600   -1.6800    0.0000 C   0  0  0  0  0  0  0  0  0  0  0  0
   -0.1700   -2.4200    0.0000 C   0  0  0  0  0  0  0  0  0  0  0  0
    4.7000    1.2900    0.0000 C   0  0  0  0  0  0  0  0  0  0  0  0
   -0.1700    2.0400    0.0000 C   0  0  0  0  0  0  0  0  0  0  0  0
   -4.0600   -0.1500    0.0000 C   0  0  0  0  0  0  0  0  0  0  0  0
   -2.7500    0.5700    0.0000 C   0  0  0  0  0  0  0  0  0  0  0  0
    3.8500    0.1000    0.0000 C   0  0  0  0  0  0  0  0  0  0  0  0
    1.1600    2.8100    0.0000 C   0  0  0  0  0  0  0  0  0  0  0  0
    8.2100    7.3824    0.0000 C   0  0  0  0  0  0  0  0  0  0  0  0
    4.3237    3.9332    0.0000 C   0  0  0  0  0  0  0  0  0  0  0  0
    3.8500    2.5100    0.0000 C   0  0  0  0  0  0  0  0  0  0  0  0
   -0.1700    0.5700    0.0000 C   0  0  0  0  0  0  0  0  0  0  0  0
    1.1600   -0.1500    0.0000 C   0  0  0  0  0  0  0  0  0  0  0  0
   -1.4700   -1.6800    0.0000 C   0  0  0  0  0  0  0  0  0  0  0  0
   -4.0600   -1.6800    0.0000 C   0  0  0  0  0  0  0  0  0  0  0  0
   -2.7500   -2.4200    0.0000 C   0  0  0  0  0  0  0  0  0  0  0  0
   -1.4700   -0.1500    0.0000 C   0  0  0  0  0  0  0  0  0  0  0  0
    2.4300    2.0400    0.0000 C   0  0  0  0  0  0  0  0  0  0  0  0
    2.4300    0.5700    0.0000 C   0  0  0  0  0  0  0  0  0  0  0  0
   -5.3555   -2.4361    0.0000 O   0  0  0  0  0  0  0  0  0  0  0  0
 10  9  1  0
 11  9  1  0
 13 12  1  0
 17 16  1  0
 18 14  1  0
 19 15  1  0
 20  1  1  0
 20  2  1  0
 20 10  1  0
 21  3  1  6
 21 11  1  0
 22 14  1  1
 22 21  1  0
 23 15  1  0
 24 12  1  0
 24 23  2  0
 25 13  1  1
 26 16  1  0
 27  4  1  0
 27  5  1  0
 27 25  1  0
 27 26  1  0
 28  6  1  1
 28 17  1  0
 28 23  1  0
 28 25  1  0
 29  7  1  1
 29 19  1  0
 29 22  1  0
 30  8  1  6
 30 18  1  0
 30 24  1  0
 30 29  1  0
 26 31  1  1
M  END
>  <NAME>  (2690) 
DIHYDROLANOSTEROL

>  <SYNONYMS>  (2690) 


>  <SPECTRUM TYPE>  (2690) 
MS1

>  <INSTRUMENT TYPE>  (2690) 
EI-B

>  <INSTRUMENT>  (2690) 
HITACHI M-80

>  <ION MODE>  (2690) 
P

>  <INCHIKEY>  (2690) 
MBZYKEVPFYHDOH-BQNIITSRSA-N

>  <FORMULA>  (2690) 
C30H52O

>  <EXACT MASS>  (2690) 
428.40181628399995

>  <MW>  (2690) 
428

>  <ID>  (2690) 
JP008185

>  <CONTRIBUTOR>  (2690) 
University of Tokyo Team, {Faculty of Engineering, University of Tokyo

>  <COMMENT>  (2690) 
SMILES=C(C4(C)1)CC(O)C(C)(C)C(CCC(=C34)C(C(CC3)(C)2)(C)CCC2([H])C([H])(C)CCCC(C)C)1[H]
cas=79-62-9
InChI=InChI=1S/C30H52O/c1-20(2)10-9-11-21(3)22-14-18-30(8)24-12-13-25-27(4,5)26(31)16-17-28(25,6)23(24)15-19-29(22,30)7/h20-22,25-26,31H,9-19H2,1-8H3/t21-,22-,25+,26+,28-,29-,30+/m1/s1
computed SMILES=OC1CCC2(C3=C(CCC2C1(C)C)C4(C)CCC(C(C)CCCC(C)C)C4(C)CC3)C
accession=JP008185
date=2016.01.19 (Created 2008.10.21, modified 2011.05.06)
author=NARA WOMEN'S UNIVERSITY
license=CC BY-NC-SA
exact mass=428.40182
ionization energy=70 eV
ion type=[M]+*
computed spectral entropy=4.488767969126605
computed normalized entropy=0.8616527306974963
SPLASH=splash10-06r6-9720200000-8c73cf86594c8bf58e5d
submitter=submitter = University of Tokyo Team (Faculty of Engineering, University of Tokyo)
MoNA Rating=3.75

>  <NUM PEAKS>  (2690) 
183

>  <MASS SPECTRAL PEAKS>  (2690) 
27 4.68
29 12.61
39 2.87
41 41.04
42 4.34
43 99.99
53 3.25
54 4.17
55 48.42
56 4.25
57 43.15
58 2.11
65 1.62
67 12.93
68 1.53
69 48.42
70 3.4
71 20.59
72 1.78
77 4.57
78 1.22
79 11.23
80 1.81
81 20.84
82 2.28
83 25.16
84 2.15
85 5.82
91 14.83
92 2.3
93 17.89
94 3.22
95 36.21
96 3.67
97 16.52
98 1.73
99 1.66
103 1.16
105 21.26
106 3.45
107 23.08
108 4.45
109 19.43
110 2.64
111 12.77
112 1.61
113 1.52
115 2.09
116 1.23
117 4.85
118 1.89
119 20.61
120 4.27
121 19.49
122 4.24
123 11.15
124 1.43
125 4.55
127 1.52
128 2.49
129 4.15
130 2.41
131 9.05
132 2.71
133 14.78
134 4.14
135 19.21
136 3.79
137 5.67
139 2.1
141 1.96
142 1.72
143 4.16
144 2.56
145 9.81
146 3.2
147 11.73
148 2.71
149 8.25
150 1.97
151 2.7
152 1.17
153 3.21
155 1.66
156 1.46
157 4.39
158 1.69
159 10.11
160 3.04
161 13.42
162 2.78
163 6.38
164 1.49
165 2.53
169 1.61
171 4.3
172 1.73
173 8.33
174 2.57
175 9.04
176 1.99
177 2.48
179 2.82
183 1.48
185 3.89
186 2
187 10.84
188 2.45
189 8.41
190 1.56
191 3.09
193 2.59
197 1.46
199 3.91
200 1.57
201 4.55
202 1.01
203 3.49
205 3.01
206 1.09
207 2.46
213 3.62
214 3.25
215 6.9
216 1.51
217 1.47
219 3.31
220 1.05
225 1.01
227 5.28
228 1.48
229 6.01
230 1.21
231 1.84
233 2.55
241 5.92
242 1.41
243 3.82
245 3.09
246 1.16
247 4.75
255 4.13
256 1.04
257 1.99
259 6.53
260 1.85
261 5.12
262 1.2
267 1.01
269 1.49
271 1.55
273 11.04
274 4.59
275 5.86
276 1.76
281 1.19
283 2.5
285 1.46
287 2.1
288 2.24
289 1.09
297 1.33
299 4.7
300 1.36
301 1.13
313 1.53
315 1.71
355 1.13
378 7.77
379 1.29
395 27.96
396 8.78
397 2.11
398 1.27
399 2.04
411 1.21
412 1.1
413 61.7
414 24.77
415 4.36
428 23.61
429 7.89
430 1.35

>  <PREDICTED SPECTRUM>  (2690) 
17 14
18 55
26 70
27 226
28 98
29 312
30 62
31 79
34 0
36 11
37 24
38 21
39 234
40 102
41 732
42 243
43 999
44 240
45 126
50 26
51 52
52 39
53 280
54 132
55 778
56 315
57 776
58 203
59 132
60 92
63 53
64 29
65 189
66 119
67 538
68 260
69 772
70 369
71 522
72 115
73 60
74 62
77 277
78 121
79 461
80 197
81 587
82 293
83 615
84 216
85 277
86 78
87 51
88 38
89 36
90 10
91 513
92 256
93 486
94 235
95 698
96 335
97 477
98 127
99 153
100 19
101 26
102 10
103 93
104 100
105 504
106 204
107 570
108 295
109 506
110 208
111 330
112 142
113 123
114 55
115 195
116 149
117 335
118 198
119 470
120 226
121 513
122 245
123 443
124 203
125 298
126 93
127 158
128 171
129 234
130 191
131 413
132 204
133 408
134 218
135 509
136 391
137 298
138 175
139 212
140 49
141 162
142 161
143 317
144 164
145 432
146 227
147 371
148 262
149 426
150 166
151 219
152 147
153 180
154 119
155 189
156 128
157 260
158 195
159 499
160 259
161 404
162 190
163 279
164 166
165 202
166 119
167 88
168 83
169 174
170 94
171 274
172 208
173 421
174 254
175 345
176 197
177 203
178 123
179 178
180 65
181 129
182 59
183 175
184 104
185 285
186 148
187 415
188 179
189 312
190 95
191 233
192 87
193 156
194 89
195 158
196 95
197 181
198 121
199 266
200 121
201 343
202 149
203 250
204 125
205 287
206 200
207 199
208 76
209 68
210 7
211 168
212 81
213 304
214 166
215 244
216 110
217 199
218 47
219 227
220 137
221 108
222 93
223 92
224 10
225 116
226 50
227 283
228 98
229 305
230 103
231 217
232 127
233 252
234 154
235 98
236 54
237 82
238 21
239 143
240 41
241 299
242 138
243 260
244 129
245 241
246 155
247 269
248 139
249 33
253 53
254 41
255 311
256 144
257 259
258 107
259 278
260 175
261 295
262 153
263 44
265 19
267 79
268 47
269 209
270 162
271 258
272 106
273 337
274 259
275 261
276 153
277 65
279 53
280 20
281 81
282 4
283 146
284 15
285 133
286 87
287 192
288 278
289 201
290 51
291 9
295 88
297 228
298 79
299 161
300 58
301 246
302 108
303 85
304 2
309 6
311 116
312 71
313 183
314 82
315 242
316 103
317 53
323 3
324 43
325 169
326 118
327 148
328 54
329 127
330 21
335 2
336 13
337 14
339 82
340 65
341 160
342 141
343 166
344 39
345 48
353 89
354 33
355 37
356 13
358 11
359 19
360 16
365 30
367 166
368 41
369 67
371 55
372 0
375 13
377 185
378 150
379 54
380 26
381 43
382 18
383 81
384 115
385 160
386 97
393 120
394 34
395 741
396 397
397 186
398 53
399 114
400 124
401 23
408 39
409 125
410 253
411 248
412 104
413 837
414 486
415 184
416 51
426 142
427 91
428 563
429 348
430 80

$$$$

     RDKit          2D

 29 32  0  0  1  0  0  0  0  0999 V2000
    9.5655    7.2342    0.0000 C   0  0  0  0  0  0  0  0  0  0  0  0
    7.1046    8.0672    0.0000 C   0  0  0  0  0  0  0  0  0  0  0  0
    8.6037    4.3926    0.0000 C   0  0  0  0  0  0  0  0  0  0  0  0
    3.2009    4.6377    0.0000 C   0  0  0  0  0  0  0  0  0  0  0  0
   -1.6125    0.9400    0.0000 C   0  0  0  0  0  0  0  0  0  0  0  0
    2.4507    3.1203    0.0000 C   0  0  0  0  0  0  0  0  0  0  0  0
    6.1427    5.2256    0.0000 C   0  0  0  0  0  0  0  0  0  0  0  0
    5.6618    3.8047    0.0000 C   0  0  0  0  0  0  0  0  0  0  0  0
   -0.3200   -2.8400    0.0000 C   0  0  0  0  0  0  0  0  0  0  0  0
    1.0100   -2.0900    0.0000 C   0  0  0  0  0  0  0  0  0  0  0  0
    4.5500    0.8800    0.0000 C   0  0  0  0  0  0  0  0  0  0  0  0
    3.7100   -0.3100    0.0000 C   0  0  0  0  0  0  0  0  0  0  0  0
   -4.2000   -0.5600    0.0000 C   0  0  0  0  0  0  0  0  0  0  0  0
   -0.3200    1.6300    0.0000 C   0  0  0  0  0  0  0  0  0  0  0  0
   -2.8900    0.1600    0.0000 C   0  0  0  0  0  0  0  0  0  0  0  0
    1.0100    2.3900    0.0000 C   0  0  0  0  0  0  0  0  0  0  0  0
   -2.8900   -2.8400    0.0000 C   0  0  0  0  0  0  0  0  0  0  0  0
    8.0946    6.9403    0.0000 C   0  0  0  0  0  0  0  0  0  0  0  0
    7.6137    5.5195    0.0000 C   0  0  0  0  0  0  0  0  0  0  0  0
    4.1909    3.5108    0.0000 C   0  0  0  0  0  0  0  0  0  0  0  0
   -1.6200   -2.0900    0.0000 C   0  0  0  0  0  0  0  0  0  0  0  0
   -4.2000   -2.0900    0.0000 C   0  0  0  0  0  0  0  0  0  0  0  0
    1.0100   -0.5600    0.0000 C   0  0  0  0  0  0  0  0  0  0  0  0
    3.7100    2.0900    0.0000 C   0  0  0  0  0  0  0  0  0  0  0  0
    2.2800    0.1600    0.0000 C   0  0  0  0  0  0  0  0  0  0  0  0
   -0.3200    0.1600    0.0000 C   0  0  0  0  0  0  0  0  0  0  0  0
   -1.6200   -0.5600    0.0000 C   0  0  0  0  0  0  0  0  0  0  0  0
    2.2800    1.6300    0.0000 C   0  0  0  0  0  0  0  0  0  0  0  0
   -5.4977   -2.8424    0.0000 O   0  0  0  0  0  0  0  0  0  0  0  0
  8  7  1  0
 10  9  1  0
 12 11  1  0
 15 13  1  0
 16 14  1  0
 18  1  1  0
 18  2  1  0
 19  3  2  0
 19  7  1  0
 19 18  1  0
 20  4  1  0
 20  8  1  0
 21  9  2  0
 21 17  1  0
 22 13  1  0
 22 17  1  0
 23 10  1  6
 24 11  1  0
 24 20  1  1
 25 12  1  1
 25 23  1  0
 26 14  1  1
 26 23  1  0
 27  5  1  1
 27 15  1  0
 27 21  1  0
 27 26  1  0
 28  6  1  1
 28 16  1  0
 28 24  1  0
 28 25  1  0
 22 29  1  1
M  END
>  <NAME>  (2691) 
24-METHYLENECHOLESTEROL

>  <SYNONYMS>  (2691) 


>  <SPECTRUM TYPE>  (2691) 
MS1

>  <INSTRUMENT TYPE>  (2691) 
EI-B

>  <INSTRUMENT>  (2691) 
HITACHI M-80

>  <ION MODE>  (2691) 
P

>  <INCHIKEY>  (2691) 
INDVLXYUCBVVKW-FXSBVPLVSA-N

>  <FORMULA>  (2691) 
C28H46O

>  <EXACT MASS>  (2691) 
398.35486609199995

>  <MW>  (2691) 
398

>  <ID>  (2691) 
JP008184

>  <CONTRIBUTOR>  (2691) 
University of Tokyo Team, {Faculty of Engineering, University of Tokyo

>  <COMMENT>  (2691) 
SMILES=C(C4)C([H])(C(CCC(C(C)C)=C)C)C(C([H])14)(CCC(C3(C)2)(C([H])(CC=C2CC([H])(O)CC3)1)[H])C
cas=474-63-5
InChI=InChI=1S/C28H46O/c1-18(2)19(3)7-8-20(4)24-11-12-25-23-10-9-21-17-22(29)13-15-27(21,5)26(23)14-16-28(24,25)6/h9,18,20,22-26,29H,3,7-8,10-17H2,1-2,4-6H3/t20?,22-,23-,24+,25-,26-,27-,28+/m0/s1
computed SMILES=OC1CC2=CCC3C(CCC4(C)C(CCC34)C(C)CCC(=C)C(C)C)C2(C)CC1
accession=JP008184
date=2016.01.19 (Created 2008.10.21, modified 2011.05.06)
author=NARA WOMEN'S UNIVERSITY
license=CC BY-NC-SA
exact mass=398.35487
ionization energy=70 eV
ion type=[M]+*
computed spectral entropy=4.839774085136085
computed normalized entropy=0.8771754242319235
SPLASH=splash10-07bf-9521000000-648e29625ffd6a9c8462
submitter=submitter = University of Tokyo Team (Faculty of Engineering, University of Tokyo)
MoNA Rating=3.75

>  <NUM PEAKS>  (2691) 
249

>  <MASS SPECTRAL PEAKS>  (2691) 
26 4.85
27 23.65
28 61.47
29 32.26
30 1.49
31 3.63
32 14.8
36 1.24
37 1.52
38 3.02
39 26.39
40 6.58
41 97.36
42 14.72
43 79.07
44 4.58
45 6.04
50 2.79
51 4.81
52 2.2
53 16.62
54 7.34
55 97.69
56 21.04
57 46.88
58 3.44
59 4.42
60 8.97
61 2.56
62 1.09
63 2.66
65 6.59
66 4.04
67 39
68 12.47
69 90.98
70 15.7
71 20.75
72 1.73
73 9.41
74 1.97
75 1.38
76 1.59
77 16.2
78 4.92
79 35.89
80 7.69
81 48.2
82 14.51
83 39.26
84 19.94
85 13.68
86 1.34
87 3.07
89 1.75
91 36.33
92 7.97
93 31.71
94 9.73
95 35.78
96 9.06
97 21.19
98 5.81
99 4.32
100 1.04
101 2.17
102 1.84
103 4.04
104 3.92
105 37.87
106 10.01
107 32.3
108 8.32
109 20.93
110 5.28
111 9.26
112 3.62
113 3.78
114 1.32
115 7.55
116 3.81
117 13.59
118 6.31
119 22.51
120 13.33
121 18.03
122 5.48
123 12.37
124 5.3
125 7.18
126 2.89
127 3.91
128 6
129 11.98
130 5.92
131 17.98
132 6.67
133 20.71
134 7.03
135 13.1
136 3.57
137 6.45
138 2.82
139 2.58
140 1.54
141 4.42
142 3.83
143 13.27
144 6.78
145 25.18
146 6.51
147 14.45
148 4.05
149 11.67
150 3.36
151 5.23
152 2.52
153 2.09
154 1.46
155 4.04
156 2.93
157 11.46
158 10.31
159 19.94
160 8.5
161 14.83
162 4.02
163 7.77
164 2.56
165 3.28
166 1.85
167 2.95
168 1.38
169 3.98
170 1.79
171 9.26
172 3.8
173 10.99
174 4.09
175 7.72
176 4.75
177 4.83
178 2.85
179 2.07
180 1.15
181 1.57
182 1.08
183 3.66
184 1.83
185 8.74
186 3.84
187 7.6
188 2.99
189 5.62
190 2.41
191 2.65
192 1.06
193 1.41
194 1.08
195 1.36
196 1.3
197 5.67
198 2.11
199 8.19
200 2.96
201 4.49
202 3.59
203 6.4
204 1.57
205 1.65
211 8.41
212 3.34
213 16.74
214 5.42
215 5.96
216 2.12
217 4.13
218 1.79
219 1.75
220 1.05
223 1.05
225 3.14
226 1.61
227 5.38
228 6.72
229 19.36
230 6.23
231 10.02
232 4.19
233 1.75
239 4.37
240 1.73
241 3.42
242 1.8
243 2.37
244 2.16
245 2.88
246 3.29
247 1.22
253 6.98
254 3.52
255 6.9
256 5.85
257 4.07
258 3.77
259 2.49
267 2.43
268 1.19
269 1.7
270 8.33
271 44.83
272 17.35
273 4.64
274 1.18
279 1.52
281 19.03
282 5.39
283 4.75
284 3.07
285 3.24
286 2.19
287 4.67
288 1.5
295 1.21
296 9.97
297 3.18
298 1.53
299 27.75
300 17.06
301 5.19
302 1.13
312 1.55
313 4.21
314 99.99
315 24.23
316 3.84
338 1.16
339 1.12
365 5.75
367 1.78
381 3.66
382 1.46
383 12.44
384 4.12
385 1.19
396 1.02
398 20.27
399 7.15
400 2.07

>  <PREDICTED SPECTRUM>  (2691) 
18 0
39 41
40 18
41 541
42 142
43 573
44 138
45 82
49 31
50 31
51 43
52 19
53 283
54 98
55 866
56 202
57 500
58 72
59 13
65 137
66 101
67 588
68 238
69 789
70 274
71 367
72 52
73 21
77 316
78 161
79 546
80 180
81 707
82 354
83 513
84 188
85 134
91 563
92 290
93 586
94 348
95 674
96 331
97 446
98 106
99 71
103 66
104 106
105 670
106 325
107 624
108 317
109 576
110 289
111 299
112 40
115 133
116 74
117 355
118 276
119 557
120 399
121 481
122 273
123 449
124 267
125 231
126 64
127 61
128 129
129 248
130 153
131 422
132 277
133 598
134 325
135 443
136 237
137 269
138 84
139 18
141 137
142 72
143 400
144 242
145 576
146 271
147 473
148 248
149 304
150 172
151 330
152 135
155 71
156 135
157 387
158 388
159 555
160 305
161 436
162 175
163 337
164 131
165 67
166 34
168 12
169 139
170 77
171 315
172 154
173 409
174 231
175 415
176 234
177 276
178 108
179 26
181 14
183 178
184 21
185 308
186 216
187 343
188 149
189 306
190 43
191 43
195 32
197 215
198 71
199 325
200 181
201 386
202 126
203 204
204 90
205 110
211 309
212 189
213 525
214 288
215 265
216 161
217 285
218 158
219 138
225 89
226 98
227 277
228 239
229 428
230 294
231 442
232 252
233 25
239 203
240 68
241 130
242 83
243 128
244 99
245 234
246 172
247 55
253 373
254 256
255 258
256 197
257 173
258 121
259 107
267 109
268 97
269 288
270 315
271 999
272 621
273 349
274 91
275 6
281 392
282 256
283 334
285 203
286 230
287 280
288 141
295 48
296 225
297 80
298 83
299 479
300 404
301 283
302 122
310 2
311 98
312 91
313 344
314 939
315 358
323 16
328 4
337 104
338 105
339 56
341 86
342 58
355 124
356 4
365 278
366 79
371 35
380 258
381 153
382 30
383 455
384 250
385 62
396 69
397 14
398 665
399 393
400 164

$$$$

     RDKit          2D

 16 17  0  0  1  0  0  0  0  0999 V2000
    2.3190    5.4700    0.0000 C   0  0  0  0  0  0  0  0  0  0  0  0
   -2.5900    0.2200    0.0000 C   0  0  0  0  0  0  0  0  0  0  0  0
   -1.7100    1.4300    0.0000 C   0  0  0  0  0  0  0  0  0  0  0  0
   -2.1753   -2.4160    0.0000 C   0  0  0  0  0  0  0  0  0  0  0  0
    2.3200    0.9700    0.0000 C   0  0  0  0  0  0  0  0  0  0  0  0
   -1.7100   -0.9900    0.0000 C   0  0  0  0  0  0  0  0  0  0  0  0
   -0.2800    0.9700    0.0000 C   0  0  0  0  0  0  0  0  0  0  0  0
    1.0200    1.7200    0.0000 C   0  0  0  0  0  0  0  0  0  0  0  0
   -0.2800   -0.5300    0.0000 C   0  0  0  0  0  0  0  0  0  0  0  0
    1.0200    3.2200    0.0000 C   0  0  0  0  0  0  0  0  0  0  0  0
    1.0200   -1.2800    0.0000 C   0  0  0  0  0  0  0  0  0  0  0  0
   -3.6429   -2.7261    0.0000 O   0  0  0  0  0  0  0  0  0  0  0  0
   -0.2790    3.9700    0.0000 O   0  0  0  0  0  0  0  0  0  0  0  0
    1.0200   -2.7800    0.0000 O   0  0  0  0  0  0  0  0  0  0  0  0
    2.3190    3.9700    0.0000 O   0  0  0  0  0  0  0  0  0  0  0  0
    2.3200   -0.5300    0.0000 O   0  0  0  0  0  0  0  0  0  0  0  0
  3  2  1  0
  6  2  2  0
  6  4  1  0
  7  3  1  6
  8  5  2  0
  8  7  1  0
  9  6  1  6
  9  7  1  0
 10  8  1  0
 11  9  1  0
 12  4  1  0
 13 10  2  0
 11 14  1  1
 15  1  1  0
 15 10  1  0
 16  5  1  0
 16 11  1  0
M  END
>  <NAME>  (2692) 
GENIPIN

>  <SYNONYMS>  (2692) 


>  <SPECTRUM TYPE>  (2692) 
MS1

>  <INSTRUMENT TYPE>  (2692) 
EI-B

>  <INSTRUMENT>  (2692) 
HITACHI M-80

>  <ION MODE>  (2692) 
P

>  <INCHIKEY>  (2692) 
AZKVWQKMDGGDSV-BCMRRPTOSA-N

>  <FORMULA>  (2692) 
C11H14O5

>  <EXACT MASS>  (2692) 
226.08412354799998

>  <MW>  (2692) 
226

>  <ID>  (2692) 
JP008182

>  <CONTRIBUTOR>  (2692) 
University of Tokyo Team, {Faculty of Engineering, University of Tokyo

>  <COMMENT>  (2692) 
SMILES=COC(=O)C(=C2)C([H])(C1)C([H])(C(O)O2)C(CO)=C1
cas=6902-77-8
InChI=InChI=1S/C11H14O5/c1-15-10(13)8-5-16-11(14)9-6(4-12)2-3-7(8)9/h2,5,7,9,11-12,14H,3-4H2,1H3/t7-,9-,11-/m1/s1
computed SMILES=O=C(OC)C1=COC(O)C2C(=CCC12)CO
accession=JP008182
date=2016.01.19 (Created 2008.10.21, modified 2011.05.06)
author=NARA WOMEN'S UNIVERSITY
license=CC BY-NC-SA
exact mass=226.08412
ionization energy=70 eV
ion type=[M]+*
computed spectral entropy=4.287024619347642
computed normalized entropy=0.8779845439802008
SPLASH=splash10-004l-9400000000-a1fa3ff13ee4ffa42567
submitter=submitter = University of Tokyo Team (Faculty of Engineering, University of Tokyo)
MoNA Rating=3.75

>  <NUM PEAKS>  (2692) 
132

>  <MASS SPECTRAL PEAKS>  (2692) 
14 3.63
15 41.82
18 2.17
19 2.23
26 4.35
27 30.41
29 51.21
30 3.73
31 33.64
33 6.14
37 1.97
38 7.15
39 61.36
40 12.8
41 49.78
42 15.82
43 27.54
44 3.45
45 7.88
46 1.77
47 2.36
50 12.18
51 36.27
52 14.73
53 38.42
54 8.47
55 25.49
56 1.88
57 5.31
59 20.36
60 2.5
61 5.46
62 4.49
63 14.48
64 4.37
65 34.3
66 20.85
67 36.4
68 14.63
69 13.2
70 4.43
71 19.47
72 1.25
73 1.26
74 8.97
75 3.9
76 2.88
77 57.78
78 77.66
79 47.27
80 11.96
81 32.7
82 9.41
83 6.41
84 1.31
85 2.74
86 1.45
87 1.07
89 6.58
90 6.94
91 99.99
92 20.4
93 10.64
94 7.57
95 30.16
96 39.96
97 7.99
98 3.73
99 3.93
100 1.38
101 1.78
102 6.8
103 14.53
104 7.3
105 20.5
106 19.49
107 19.32
108 6
109 5.77
110 2.42
111 3.64
117 2.35
118 5.83
119 45.57
120 63.24
121 21.25
123 3.76
124 12.36
125 2.9
127 2.12
128 3
129 1.41
130 5.46
131 11.03
132 2.3
133 2.77
134 2.27
135 11.13
136 3.79
137 5.1
138 2.13
139 7.4
140 1.2
146 2.63
147 43.11
148 79.82
149 17.29
150 2.39
151 5.8
152 3.08
158 2.66
159 2.23
161 1.51
162 21.91
163 4.34
164 1.71
165 6.49
166 2.15
175 7.29
176 34.91
177 9.84
178 1.63
179 6.93
180 26.62
181 3.15
190 16.61
191 2.61
194 3.69
195 6.29
208 7.45
209 1.29
226 4.01

>  <PREDICTED SPECTRUM>  (2692) 
27 25
29 41
31 107
33 23
37 18
38 78
39 373
40 146
41 421
42 139
43 129
44 84
45 181
49 37
50 253
51 498
52 417
53 619
54 340
55 501
56 134
57 270
58 69
59 395
60 109
61 24
62 51
63 215
64 118
65 513
66 301
67 579
68 368
69 441
70 180
71 248
73 36
74 80
75 151
76 72
77 794
78 730
79 999
80 532
81 617
82 278
83 176
84 220
85 144
89 69
90 107
91 819
92 530
93 372
94 300
95 509
96 528
97 334
98 92
99 112
100 9
101 28
102 73
103 241
104 237
105 631
106 465
107 508
108 267
109 283
110 144
111 81
115 153
116 90
117 352
118 194
119 553
120 484
121 459
122 174
123 125
124 313
130 184
131 34
132 14
133 130
134 133
135 60
136 57
137 265
138 181
144 43
146 22
147 345
148 760
149 522
150 269
151 150
161 166
162 310
163 134
164 15
165 186
166 96
167 28
175 256
176 594
177 364
178 146
179 221
180 214
190 261
192 32
194 215
195 115
207 1
208 392
209 59
226 150

$$$$

     RDKit          2D

 31 34  0  0  1  0  0  0  0  0999 V2000
    9.6794    7.6838    0.0000 C   0  0  0  0  0  0  0  0  0  0  0  0
    7.2143    8.5043    0.0000 C   0  0  0  0  0  0  0  0  0  0  0  0
    3.3280    5.0551    0.0000 C   0  0  0  0  0  0  0  0  0  0  0  0
   -3.7067   -3.5753    0.0000 C   0  0  0  0  0  0  0  0  0  0  0  0
   -1.7818   -3.5657    0.0000 C   0  0  0  0  0  0  0  0  0  0  0  0
   -1.4651    1.3500    0.0000 C   0  0  0  0  0  0  0  0  0  0  0  0
    2.5987    3.5305    0.0000 C   0  0  0  0  0  0  0  0  0  0  0  0
    2.5768   -0.9228    0.0000 C   0  0  0  0  0  0  0  0  0  0  0  0
    6.2669    5.6578    0.0000 C   0  0  0  0  0  0  0  0  0  0  0  0
    7.7363    5.9592    0.0000 C   0  0  0  0  0  0  0  0  0  0  0  0
    5.7931    4.2346    0.0000 C   0  0  0  0  0  0  0  0  0  0  0  0
    1.1600   -1.6800    0.0000 C   0  0  0  0  0  0  0  0  0  0  0  0
   -0.1700   -2.4200    0.0000 C   0  0  0  0  0  0  0  0  0  0  0  0
    4.7000    1.2900    0.0000 C   0  0  0  0  0  0  0  0  0  0  0  0
   -0.1700    2.0400    0.0000 C   0  0  0  0  0  0  0  0  0  0  0  0
   -4.0600   -0.1500    0.0000 C   0  0  0  0  0  0  0  0  0  0  0  0
   -2.7500    0.5700    0.0000 C   0  0  0  0  0  0  0  0  0  0  0  0
    3.8500    0.1000    0.0000 C   0  0  0  0  0  0  0  0  0  0  0  0
    1.1600    2.8100    0.0000 C   0  0  0  0  0  0  0  0  0  0  0  0
    8.2100    7.3824    0.0000 C   0  0  0  0  0  0  0  0  0  0  0  0
    4.3237    3.9332    0.0000 C   0  0  0  0  0  0  0  0  0  0  0  0
    3.8500    2.5100    0.0000 C   0  0  0  0  0  0  0  0  0  0  0  0
   -0.1700    0.5700    0.0000 C   0  0  0  0  0  0  0  0  0  0  0  0
    1.1600   -0.1500    0.0000 C   0  0  0  0  0  0  0  0  0  0  0  0
   -1.4700   -1.6800    0.0000 C   0  0  0  0  0  0  0  0  0  0  0  0
   -4.0600   -1.6800    0.0000 C   0  0  0  0  0  0  0  0  0  0  0  0
   -2.7500   -2.4200    0.0000 C   0  0  0  0  0  0  0  0  0  0  0  0
   -1.4700   -0.1500    0.0000 C   0  0  0  0  0  0  0  0  0  0  0  0
    2.4300    2.0400    0.0000 C   0  0  0  0  0  0  0  0  0  0  0  0
    2.4300    0.5700    0.0000 C   0  0  0  0  0  0  0  0  0  0  0  0
   -5.3555   -2.4361    0.0000 O   0  0  0  0  0  0  0  0  0  0  0  0
 10  9  1  0
 11  9  1  0
 13 12  1  0
 17 16  1  0
 18 14  1  0
 19 15  1  0
 20  1  1  0
 20  2  1  0
 20 10  2  0
 21  3  1  6
 21 11  1  0
 22 14  1  1
 22 21  1  0
 23 15  1  0
 24 12  1  0
 24 23  2  0
 25 13  1  1
 26 16  1  0
 27  4  1  0
 27  5  1  0
 27 25  1  0
 27 26  1  0
 28  6  1  1
 28 17  1  0
 28 23  1  0
 28 25  1  0
 29  7  1  1
 29 19  1  0
 29 22  1  0
 30  8  1  6
 30 18  1  0
 30 24  1  0
 30 29  1  0
 26 31  1  1
M  END
>  <NAME>  (2693) 
LANOSTEROL

>  <SYNONYMS>  (2693) 


>  <SPECTRUM TYPE>  (2693) 
MS1

>  <INSTRUMENT TYPE>  (2693) 
EI-B

>  <INSTRUMENT>  (2693) 
HITACHI M-80

>  <ION MODE>  (2693) 
P

>  <INCHIKEY>  (2693) 
CAHGCLMLTWQZNJ-BQNIITSRSA-N

>  <FORMULA>  (2693) 
C30H50O

>  <EXACT MASS>  (2693) 
426.38616621999995

>  <MW>  (2693) 
426

>  <ID>  (2693) 
JP008181

>  <CONTRIBUTOR>  (2693) 
University of Tokyo Team, {Faculty of Engineering, University of Tokyo

>  <COMMENT>  (2693) 
SMILES=C(C4(C)1)CC(O)C(C)(C)C(CCC(=C34)C(C(CC3)(C)2)(C)CCC2([H])C([H])(C)CCC=C(C)C)1[H]
cas=79-63-0
InChI=InChI=1S/C30H50O/c1-20(2)10-9-11-21(3)22-14-18-30(8)24-12-13-25-27(4,5)26(31)16-17-28(25,6)23(24)15-19-29(22,30)7/h10,21-22,25-26,31H,9,11-19H2,1-8H3/t21-,22-,25+,26+,28-,29-,30+/m1/s1
computed SMILES=OC1CCC2(C3=C(CCC2C1(C)C)C4(C)CCC(C(C)CCC=C(C)C)C4(C)CC3)C
accession=JP008181
date=2016.01.19 (Created 2008.10.21, modified 2011.05.06)
author=NARA WOMEN'S UNIVERSITY
license=CC BY-NC-SA
exact mass=426.38617
ionization energy=70 eV
ion type=[M]+*
computed spectral entropy=4.53725309655433
computed normalized entropy=0.8604690833295235
SPLASH=splash10-0aou-9820200000-573525b346ad3c9eef59
submitter=submitter = University of Tokyo Team (Faculty of Engineering, University of Tokyo)
MoNA Rating=3.75

>  <NUM PEAKS>  (2693) 
195

>  <MASS SPECTRAL PEAKS>  (2693) 
27 3.6
29 11.08
39 3.94
41 67.25
42 4.55
43 42.98
44 1.66
53 7.27
54 1.22
55 56.03
56 4.06
57 18.68
58 1.31
59 1.8
65 1.87
67 18.49
68 2.93
69 99.99
70 7.42
71 10.33
77 5.83
78 1.68
79 12.72
80 2.1
81 27.74
82 4.61
83 17.38
84 1.82
85 3.42
91 14.15
92 2.34
93 19.05
94 3.36
95 34.39
96 3.1
97 7.3
98 1.1
99 1.01
103 1.4
104 1.11
105 21.76
106 4.85
107 23.61
108 4.55
109 47.46
110 5.55
111 8.12
112 1.03
115 2.36
116 1.5
117 5.55
118 1.96
119 21.1
120 4.86
121 22.04
122 4.58
123 15.89
124 1.77
125 2.09
127 1.83
128 3.06
129 5.91
130 2.75
131 11.53
132 4.04
133 16.66
134 4.44
135 19.21
136 3.87
137 9.12
138 1.31
139 1.78
141 2.75
142 2.17
143 7.45
144 2.9
145 11.09
148 3.11
149 8.72
150 1.61
151 2.57
153 2.16
154 1.38
155 2.79
156 2.28
157 6.28
158 2.83
159 11.98
160 4.18
161 11.76
162 2.24
163 6.67
164 1.24
165 3.54
167 1.2
169 2.74
170 1.61
171 6.64
172 2.45
173 10.55
174 3.05
175 8.44
176 1.79
177 3.49
179 2.29
183 2.15
184 1.27
185 5.72
186 2.13
187 12.57
188 3.37
189 12.42
190 3.22
191 5.56
192 1.33
193 1.74
197 2.24
199 5.38
200 1.67
201 4.95
202 1.24
203 6.81
204 2.19
205 3.79
206 1.21
207 1.04
211 1.61
213 4.25
214 2.62
215 6.66
216 1.42
217 2.72
219 1.54
225 1.89
227 5.25
228 1.62
229 5.25
230 1.43
231 2.85
233 1.32
239 2.02
240 2.27
241 8.03
242 1.81
243 3.81
245 3.19
246 2.34
247 3.81
253 2.62
255 5
256 1.78
257 4.89
258 2.37
259 9.68
260 2.23
261 1.29
267 1.23
269 1.85
270 1.1
271 8.63
272 3.43
273 6.66
274 2.05
281 1.66
283 2.56
285 1.84
286 1.64
287 1.37
288 1.16
295 1.55
297 2.58
299 2.71
309 1.94
311 3
313 1.64
315 1.13
323 1.08
339 1.17
341 2.22
376 3.85
377 1.01
393 20.98
394 7.02
395 1.47
396 1.29
397 2.5
407 1.73
409 1.41
410 1.11
411 59.58
412 19.35
413 3.52
426 46.82
427 15.27
428 2.77

>  <PREDICTED SPECTRUM>  (2693) 
17 3
18 30
25 0
26 36
27 129
28 52
29 204
31 30
38 20
39 124
40 60
41 607
42 89
43 522
44 76
45 84
50 38
51 50
52 9
53 241
54 82
55 652
56 194
57 482
58 98
59 91
60 46
63 55
64 53
65 187
66 96
67 515
68 237
69 999
70 216
71 307
72 85
73 40
74 23
76 48
77 280
78 101
79 453
80 195
81 667
82 309
83 405
84 125
85 170
86 110
87 48
88 26
89 76
90 35
91 467
92 235
93 519
94 235
95 679
96 270
97 288
98 73
99 161
100 68
101 48
102 43
103 113
104 145
105 572
106 253
107 635
108 306
109 637
110 201
111 269
112 91
113 128
114 78
115 207
116 131
117 315
118 233
119 530
120 225
121 550
122 240
123 448
124 141
125 141
126 63
127 122
128 172
129 217
130 161
131 386
132 218
133 462
134 257
135 595
136 290
137 346
138 128
139 130
140 47
141 167
142 231
143 290
144 161
145 459
146 261
147 436
148 248
149 473
150 180
151 224
152 130
153 132
154 100
155 158
156 139
157 263
158 205
159 471
160 312
161 429
162 187
163 291
164 131
165 124
166 75
167 110
168 87
169 148
170 89
171 239
172 229
173 390
174 229
175 434
176 243
177 258
178 108
179 108
180 58
181 131
182 45
183 184
184 77
185 276
186 170
187 420
188 212
189 340
190 165
191 215
192 111
193 111
194 70
195 124
196 50
197 181
198 135
199 256
200 131
201 382
202 184
203 381
204 179
205 244
206 130
207 130
209 67
210 6
211 151
212 116
213 278
214 215
215 363
216 172
217 254
218 170
219 272
220 125
221 81
222 35
223 47
224 55
225 150
226 115
227 372
228 146
229 374
230 155
231 235
232 162
233 162
234 122
235 58
236 6
237 38
238 49
239 185
240 115
241 373
242 152
243 297
244 144
245 313
246 91
247 140
248 60
249 37
250 29
251 34
252 3
253 158
254 140
255 272
256 163
257 322
258 171
259 337
260 153
261 70
262 3
263 23
264 2
265 23
266 48
267 162
268 133
269 239
270 116
271 263
272 145
273 160
274 136
275 84
276 44
277 29
279 66
280 37
281 221
282 95
283 214
284 111
285 140
286 152
287 122
288 9
289 62
290 68
293 13
295 170
296 62
297 207
298 80
299 247
300 129
301 74
309 186
310 67
311 244
312 93
313 274
314 209
315 155
316 112
318 5
321 29
322 53
323 177
324 149
325 353
326 213
327 248
328 77
329 211
330 9
333 22
335 20
337 103
338 91
339 185
340 150
341 214
342 188
343 197
344 105
345 29
351 49
352 71
353 34
354 55
355 59
356 48
357 160
358 74
359 3
361 39
365 159
366 72
367 85
369 12
375 72
381 58
382 32
383 59
384 24
388 9
391 68
393 630
394 347
395 165
396 44
397 6
398 4
407 34
408 138
409 173
410 37
411 866
412 489
413 167
414 14
424 90
425 76
426 697
427 386
428 150

$$$$

     RDKit          2D

 11 11  0  0  0  0  0  0  0  0999 V2000
   -1.3000    0.7500    0.0000 C   0  0  0  0  0  0  0  0  0  0  0  0
   -0.0000   -1.5000    0.0000 C   0  0  0  0  0  0  0  0  0  0  0  0
    0.0000    1.5000    0.0000 C   0  0  0  0  0  0  0  0  0  0  0  0
    1.3000   -0.7500    0.0000 C   0  0  0  0  0  0  0  0  0  0  0  0
   -2.5989   -1.5002    0.0000 C   0  0  0  0  0  0  0  0  0  0  0  0
    2.5989    1.5002    0.0000 C   0  0  0  0  0  0  0  0  0  0  0  0
   -1.3000   -0.7500    0.0000 C   0  0  0  0  0  0  0  0  0  0  0  0
    1.3000    0.7500    0.0000 C   0  0  0  0  0  0  0  0  0  0  0  0
   -3.8978   -2.2504    0.0000 N   0  0  0  0  0  0  0  0  0  0  0  0
    3.8981    0.7504    0.0000 N   0  0  0  0  0  0  0  0  0  0  0  0
    5.1970    1.5006    0.0000 O   0  0  0  0  0  0  0  0  0  0  0  0
  3  1  2  0
  4  2  1  0
  7  1  1  0
  7  2  2  0
  7  5  1  0
  8  3  1  0
  8  4  2  0
  8  6  1  0
  9  5  3  0
  6 10  2  0
 11 10  1  0
M  END
>  <NAME>  (2694) 
4-CYANOBENZALDOXIME

>  <SYNONYMS>  (2694) 


>  <SPECTRUM TYPE>  (2694) 
MS1

>  <INSTRUMENT TYPE>  (2694) 
EI-B

>  <INSTRUMENT>  (2694) 
HITACHI M-80

>  <ION MODE>  (2694) 
P

>  <INCHIKEY>  (2694) 
XUPNOABKAQYYOD-UXBLZVDNSA-N

>  <FORMULA>  (2694) 
C8H6N2O

>  <EXACT MASS>  (2694) 
146.048012812

>  <MW>  (2694) 
146

>  <ID>  (2694) 
JP008180

>  <CONTRIBUTOR>  (2694) 
University of Tokyo Team, {Faculty of Engineering, University of Tokyo

>  <COMMENT>  (2694) 
SMILES=ON=Cc(c1)ccc(C#N)c1
InChI=InChI=1S/C8H6N2O/c9-5-7-1-3-8(4-2-7)6-10-11/h1-4,6,11H/b10-6+
computed SMILES=N#CC1=CC=C(C=NO)C=C1
accession=JP008180
date=2016.01.19 (Created 2008.10.21, modified 2011.05.06)
author=NARA WOMEN'S UNIVERSITY
license=CC BY-NC-SA
exact mass=146.04801
ionization energy=70 eV
ion type=[M]+*
computed spectral entropy=3.401005701621271
computed normalized entropy=0.8411977678044242
SPLASH=splash10-0udi-8900000000-6494796a4c20afc0a9cd
submitter=submitter = University of Tokyo Team (Faculty of Engineering, University of Tokyo)
MoNA Rating=3.75

>  <NUM PEAKS>  (2694) 
57

>  <MASS SPECTRAL PEAKS>  (2694) 
26 2.89
27 5.62
30 3.14
36 1.24
37 7.28
38 9.81
39 10.62
41 2.98
43 2.77
44 4.62
46 1.19
49 4.83
50 28.26
51 26.59
52 9.6
53 1.87
61 4.71
62 10.62
63 14.98
64 16.25
65 3.98
67 3.44
73 2.88
74 11.12
75 31.89
76 27.72
77 3.75
78 1.32
85 1.63
86 2.11
87 3.56
88 8.06
89 5.65
90 7.79
91 26.1
92 5.34
94 10.18
99 4.26
100 5.05
101 16.65
102 54.87
103 76.01
104 6.54
114 3.06
115 2.58
116 1.45
117 3.92
118 4.52
119 35.82
120 4
127 1.26
128 15.49
129 13.91
130 2.62
145 13.38
146 99.99
147 9.21

>  <PREDICTED SPECTRUM>  (2694) 
16 12
17 12
18 8
25 24
26 77
27 121
28 104
29 31
30 8
36 66
37 224
38 275
39 302
40 85
41 75
42 31
43 197
44 129
45 29
48 23
49 218
50 607
51 534
52 334
53 109
54 37
55 41
57 12
60 23
61 223
62 353
63 455
64 375
65 260
66 93
68 58
70 12
73 109
74 311
75 561
76 625
77 364
78 111
86 43
87 77
88 140
89 277
90 334
91 404
92 154
99 135
100 174
101 308
102 821
103 880
104 298
105 101
114 200
115 119
116 244
117 224
118 264
119 510
120 82
121 30
128 448
129 346
130 375
131 80
145 299
146 999
147 283
148 1

$$$$

     RDKit          2D

 30 33  0  0  1  0  0  0  0  0999 V2000
   10.0746    4.6865    0.0000 C   0  0  0  0  0  0  0  0  0  0  0  0
    5.6618    3.8047    0.0000 C   0  0  0  0  0  0  0  0  0  0  0  0
    5.1527    6.3525    0.0000 C   0  0  0  0  0  0  0  0  0  0  0  0
    9.0564    9.7820    0.0000 C   0  0  0  0  0  0  0  0  0  0  0  0
   13.3432   14.0791    0.0000 C   0  0  0  0  0  0  0  0  0  0  0  0
   10.6578   10.3305    0.0000 C   0  0  0  0  0  0  0  0  0  0  0  0
    8.6037    4.3926    0.0000 C   0  0  0  0  0  0  0  0  0  0  0  0
    9.5655    7.2342    0.0000 C   0  0  0  0  0  0  0  0  0  0  0  0
    8.0946    6.9403    0.0000 C   0  0  0  0  0  0  0  0  0  0  0  0
   16.9253   12.3105    0.0000 C   0  0  0  0  0  0  0  0  0  0  0  0
   16.0102   11.0882    0.0000 C   0  0  0  0  0  0  0  0  0  0  0  0
   12.6091    7.9602    0.0000 C   0  0  0  0  0  0  0  0  0  0  0  0
   13.8973    8.6399    0.0000 C   0  0  0  0  0  0  0  0  0  0  0  0
   15.1639   16.4519    0.0000 C   0  0  0  0  0  0  0  0  0  0  0  0
   12.4925   12.8862    0.0000 C   0  0  0  0  0  0  0  0  0  0  0  0
   14.2812   15.2455    0.0000 C   0  0  0  0  0  0  0  0  0  0  0  0
   11.5675   11.6651    0.0000 C   0  0  0  0  0  0  0  0  0  0  0  0
   17.2562   14.8591    0.0000 C   0  0  0  0  0  0  0  0  0  0  0  0
    6.1427    5.2256    0.0000 C   0  0  0  0  0  0  0  0  0  0  0  0
   10.0464    8.6551    0.0000 C   0  0  0  0  0  0  0  0  0  0  0  0
    7.6137    5.5195    0.0000 C   0  0  0  0  0  0  0  0  0  0  0  0
   16.3489   13.6963    0.0000 C   0  0  0  0  0  0  0  0  0  0  0  0
   16.6812   16.2548    0.0000 C   0  0  0  0  0  0  0  0  0  0  0  0
   14.4930   11.2852    0.0000 C   0  0  0  0  0  0  0  0  0  0  0  0
   11.5173    8.9490    0.0000 C   0  0  0  0  0  0  0  0  0  0  0  0
   13.6154   10.1185    0.0000 C   0  0  0  0  0  0  0  0  0  0  0  0
   13.9502   12.6969    0.0000 C   0  0  0  0  0  0  0  0  0  0  0  0
   14.8317   13.8933    0.0000 C   0  0  0  0  0  0  0  0  0  0  0  0
   12.1576   10.3078    0.0000 C   0  0  0  0  0  0  0  0  0  0  0  0
   17.5944   17.4448    0.0000 O   0  0  0  0  0  0  0  0  0  0  0  0
  7  1  1  0
  9  8  1  0
 11 10  1  0
 13 12  1  0
 16 14  1  0
 17 15  1  0
 19  2  1  0
 19  3  1  0
 20  4  1  1
 20  8  1  0
  7 21  2  0
 21  9  1  0
 21 19  1  0
 22 10  2  0
 22 18  1  0
 23 14  1  0
 23 18  1  0
 24 11  1  1
 25 12  1  6
 25 20  1  0
 26 13  1  6
 26 24  1  0
 27 15  1  6
 27 24  1  0
 28  5  1  6
 28 16  1  0
 28 22  1  0
 28 27  1  0
 29  6  1  6
 29 17  1  0
 29 25  1  0
 29 26  1  0
 23 30  1  6
M  END
>  <NAME>  (2695) 
ISOFUCOSTEROL

>  <SYNONYMS>  (2695) 


>  <SPECTRUM TYPE>  (2695) 
MS1

>  <INSTRUMENT TYPE>  (2695) 
EI-B

>  <INSTRUMENT>  (2695) 
HITACHI M-80

>  <ION MODE>  (2695) 
P

>  <INCHIKEY>  (2695) 
OSELKOCHBMDKEJ-JUGJNGJRSA-N

>  <FORMULA>  (2695) 
C29H48O

>  <EXACT MASS>  (2695) 
412.37051615599995

>  <MW>  (2695) 
412

>  <ID>  (2695) 
JP008179

>  <CONTRIBUTOR>  (2695) 
University of Tokyo Team, {Faculty of Engineering, University of Tokyo

>  <COMMENT>  (2695) 
SMILES=CC(C4([H])C([H])(C)CCC(=CC)C(C)C)(C([H])3CC4)CCC(C([H])23)([H])C(C)(C1=CC2)CCC(C1)O
cas=17605-67-3
InChI=InChI=1S/C29H48O/c1-7-21(19(2)3)9-8-20(4)25-12-13-26-24-11-10-22-18-23(30)14-16-28(22,5)27(24)15-17-29(25,26)6/h7,10,19-20,23-27,30H,8-9,11-18H2,1-6H3/b21-7+/t20-,23+,24+,25-,26+,27+,28+,29-/m1/s1
computed SMILES=OC1CC2=CCC3C(CCC4(C)C(CCC34)C(C)CCC(=CC)C(C)C)C2(C)CC1
accession=JP008179
date=2016.01.19 (Created 2008.10.21, modified 2011.05.06)
author=NARA WOMEN'S UNIVERSITY
license=CC BY-NC-SA
exact mass=412.37052
ionization energy=70 eV
ion type=[M]+*
computed spectral entropy=3.831708574586922
computed normalized entropy=0.8216486797103739
SPLASH=splash10-03di-3589000000-2cb2e378478814cf2589
submitter=submitter = University of Tokyo Team (Faculty of Engineering, University of Tokyo)
MoNA Rating=3.75

>  <NUM PEAKS>  (2695) 
106

>  <MASS SPECTRAL PEAKS>  (2695) 
28 1.48
41 3.2
43 2.89
55 8.23
56 1.19
57 1.7
67 2.46
69 6.82
79 2.23
81 4.62
82 3.25
83 5.34
91 2.23
93 2.85
94 1.09
95 4.49
97 3.26
98 1.46
105 3.16
107 4.14
108 1.21
109 2.85
110 1.18
111 1.19
117 1.04
119 2.47
120 2.29
121 2.75
123 1.94
131 2.31
132 1.19
133 3.33
134 1.32
135 2.2
137 1.32
143 1.77
144 1.18
145 4.22
146 1.2
147 2.67
149 1.29
157 1.69
158 3.4
159 3.96
160 1.68
161 3.02
163 1.44
171 1.7
172 1
173 2.17
174 1
175 2.03
176 2.65
177 1.23
185 1.72
186 1.13
187 1.83
188 1.2
189 1.81
190 1.01
197 1.39
199 2.09
201 1.42
202 2.22
203 2.23
211 4.61
212 1.56
213 4.8
214 2.05
215 1.92
217 1.23
225 1.18
227 1.71
228 2.87
229 15.17
230 4.02
231 5.44
232 2.62
239 1.04
241 1.12
245 1.29
246 2.27
253 1.6
254 1.11
255 2.4
256 1.32
257 1.07
258 2.46
270 1.62
271 8.14
272 4.19
273 1.21
281 14.53
282 3.56
283 1.11
296 8.84
297 2.44
299 16.95
300 5.7
301 1.51
314 99.99
315 24.73
316 3.23
397 1.65
412 11.31
413 3.75

>  <PREDICTED SPECTRUM>  (2695) 
26 1
39 68
40 26
41 483
42 168
43 332
44 110
45 107
47 2
49 23
50 25
51 63
52 27
53 269
54 174
55 847
56 199
57 293
58 66
59 98
64 17
65 149
66 145
67 519
68 284
69 720
70 190
71 277
72 30
73 76
75 5
77 288
78 174
79 458
80 157
81 529
82 395
83 478
84 181
85 100
86 43
91 514
92 270
93 468
94 323
95 513
96 334
97 425
98 238
99 124
101 68
103 61
104 90
105 494
106 260
107 448
108 160
109 371
110 208
111 274
112 86
114 18
115 120
116 71
117 363
118 261
119 399
120 264
121 330
122 194
123 232
124 166
125 136
126 2
128 54
129 188
130 187
131 368
132 251
133 454
134 175
135 242
136 143
137 182
138 108
139 134
140 61
141 71
142 52
143 238
144 185
145 381
146 215
147 322
148 209
149 234
150 90
151 172
152 73
155 70
156 37
157 235
158 201
159 407
160 272
161 297
162 191
163 230
164 164
165 13
169 74
170 81
171 225
172 114
173 226
174 147
175 203
176 192
177 236
178 45
181 9
183 99
184 85
185 227
186 153
187 234
188 128
189 215
190 102
191 81
192 15
197 110
198 94
199 290
200 109
201 243
202 124
203 236
204 32
205 8
211 132
212 208
213 463
214 342
215 354
216 227
217 237
218 86
219 76
225 119
226 94
227 266
228 266
229 464
230 290
231 471
232 289
233 90
237 72
238 14
239 113
240 46
241 97
242 66
243 187
244 89
245 156
246 178
247 37
253 344
254 162
255 164
256 222
257 216
258 158
259 93
260 42
267 121
268 105
269 40
270 100
271 821
272 575
273 206
274 65
281 425
282 284
283 296
284 98
285 169
286 137
287 32
295 65
296 463
297 231
298 162
299 553
300 461
301 328
302 129
312 11
313 112
314 999
315 550
316 311
327 28
329 8
341 50
379 117
380 6
394 151
395 22
397 191
398 68
399 6
411 14
412 276
413 126
414 7
415 3

$$$$

     RDKit          2D

 13 14  0  0  0  0  0  0  0  0999 V2000
    3.3989    1.3902    0.0000 C   0  0  0  0  0  0  0  0  0  0  0  0
   -3.1000   -0.8600    0.0000 C   0  0  0  0  0  0  0  0  0  0  0  0
   -3.1000    0.6400    0.0000 C   0  0  0  0  0  0  0  0  0  0  0  0
   -1.8000   -1.6100    0.0000 C   0  0  0  0  0  0  0  0  0  0  0  0
   -1.8000    1.3900    0.0000 C   0  0  0  0  0  0  0  0  0  0  0  0
    2.1000   -0.8600    0.0000 C   0  0  0  0  0  0  0  0  0  0  0  0
    2.1000    0.6400    0.0000 C   0  0  0  0  0  0  0  0  0  0  0  0
   -0.5000   -0.8600    0.0000 C   0  0  0  0  0  0  0  0  0  0  0  0
   -0.5000    0.6400    0.0000 C   0  0  0  0  0  0  0  0  0  0  0  0
    0.8000   -1.6100    0.0000 C   0  0  0  0  0  0  0  0  0  0  0  0
    0.8000    1.3900    0.0000 C   0  0  0  0  0  0  0  0  0  0  0  0
    0.8000   -3.1100    0.0000 O   0  0  0  0  0  0  0  0  0  0  0  0
    0.8000    2.8900    0.0000 O   0  0  0  0  0  0  0  0  0  0  0  0
  3  2  2  0
  4  2  1  0
  5  3  1  0
  7  1  1  0
  7  6  2  0
  8  4  2  0
  9  5  2  0
  9  8  1  0
 10  6  1  0
 10  8  1  0
 11  7  1  0
 11  9  1  0
 12 10  2  0
 13 11  2  0
M  END
>  <NAME>  (2696) 
2-METHYL-1,4-NAPHTHOQUINONE

>  <SYNONYMS>  (2696) 
VITAMIN K3

>  <SPECTRUM TYPE>  (2696) 
MS1

>  <INSTRUMENT TYPE>  (2696) 
EI-B

>  <INSTRUMENT>  (2696) 
HITACHI M-80

>  <ION MODE>  (2696) 
P

>  <INCHIKEY>  (2696) 
MJVAVZPDRWSRRC-UHFFFAOYSA-N

>  <FORMULA>  (2696) 
C11H8O2

>  <EXACT MASS>  (2696) 
172.052429496

>  <MW>  (2696) 
172

>  <ID>  (2696) 
JP008178

>  <CONTRIBUTOR>  (2696) 
University of Tokyo Team, {Faculty of Engineering, University of Tokyo

>  <COMMENT>  (2696) 
SMILES=Cc(c1)c(=O)c(c2)c(ccc2)c(=O)1
cas=58-27-5
InChI=InChI=1S/C11H8O2/c1-7-6-10(12)8-4-2-3-5-9(8)11(7)13/h2-6H,1H3
computed SMILES=O=C1C=C(C(=O)C=2C=CC=CC12)C
accession=JP008178
date=2016.01.19 (Created 2008.10.21, modified 2011.05.06)
author=NARA WOMEN'S UNIVERSITY
license=CC BY-NC-SA
exact mass=172.05243
ionization energy=70 eV
ion type=[M]+*
computed spectral entropy=3.142171535653212
computed normalized entropy=0.7805955297981323
SPLASH=splash10-0g4i-6900000000-0c6c7737ff416205089c
submitter=submitter = University of Tokyo Team (Faculty of Engineering, University of Tokyo)
MoNA Rating=3.75

>  <NUM PEAKS>  (2696) 
56

>  <MASS SPECTRAL PEAKS>  (2696) 
17 1.55
18 5.88
26 1.42
27 2.61
28 5.13
29 1.73
37 3.27
38 9.43
39 25.1
40 4.7
49 1.6
50 25.14
51 7.3
52 1.88
53 2.59
57 1.71
58 2.19
61 1.85
62 4.21
63 6.93
64 1.16
65 2.22
66 2.72
67 2.62
72 1.06
73 2.29
74 15.07
75 14.34
76 48.39
77 9.78
85 1.02
86 2.17
87 2.83
88 1.69
89 6.33
90 1.04
101 2.89
102 1.04
104 55.42
105 15.44
106 1.08
113 1.55
114 2.72
115 43.47
116 41.35
117 3.89
129 3.49
132 1.29
143 2.68
144 37.35
145 4.42
157 1.24
171 2.71
172 99.99
173 12.81
174 1.93

>  <PREDICTED SPECTRUM>  (2696) 
14 8
17 8
25 7
26 51
27 90
28 88
29 135
30 4
37 69
38 140
39 283
40 88
41 55
42 6
44 18
49 44
50 509
51 401
52 155
53 152
61 38
62 204
63 343
64 201
65 155
66 111
67 86
68 77
69 9
74 301
75 365
76 746
77 535
78 49
86 73
87 144
88 238
89 282
90 93
91 68
92 155
98 34
99 51
101 187
102 177
103 172
104 646
105 510
106 48
113 2
114 127
115 438
116 432
117 122
126 134
127 207
128 150
129 156
130 69
143 367
144 673
145 209
153 7
155 11
157 62
170 25
171 286
172 999
173 405
174 129

$$$$

     RDKit          2D

 13 13  0  0  0  0  0  0  0  0999 V2000
    3.2476    1.1250    0.0000 C   0  0  0  0  0  0  0  0  0  0  0  0
   -1.9492    1.1256    0.0000 C   0  0  0  0  0  0  0  0  0  0  0  0
    0.6498   -3.3758    0.0000 C   0  0  0  0  0  0  0  0  0  0  0  0
    0.6490    1.1258    0.0000 C   0  0  0  0  0  0  0  0  0  0  0  0
    1.9490   -1.1258    0.0000 C   0  0  0  0  0  0  0  0  0  0  0  0
    1.9486    0.3750    0.0000 C   0  0  0  0  0  0  0  0  0  0  0  0
   -0.6500    0.3758    0.0000 C   0  0  0  0  0  0  0  0  0  0  0  0
    0.6500   -1.8758    0.0000 C   0  0  0  0  0  0  0  0  0  0  0  0
   -0.6495   -1.1250    0.0000 C   0  0  0  0  0  0  0  0  0  0  0  0
   -2.6986   -0.5760    0.0000 O   0  0  0  0  0  0  0  0  0  0  0  0
   -3.2476   -2.6250    0.0000 O   0  0  0  0  0  0  0  0  0  0  0  0
   -1.1986   -3.1740    0.0000 O   0  0  0  0  0  0  0  0  0  0  0  0
   -1.9486   -1.8750    0.0000 S   0  0  0  0  0  0  0  0  0  0  0  0
  6  1  1  0
  6  4  2  0
  6  5  1  0
  7  2  1  0
  7  4  1  0
  8  3  1  0
  8  5  2  0
  9  7  2  0
  9  8  1  0
 13  9  1  0
 13 10  1  0
 13 11  2  0
 13 12  2  0
M  END
>  <NAME>  (2697) 
2-MESITYLENESULFONIC ACID

>  <SYNONYMS>  (2697) 
2,4,6-TRIMETHYLBENZENESULFONIC ACID

>  <SPECTRUM TYPE>  (2697) 
MS1

>  <INSTRUMENT TYPE>  (2697) 
EI-B

>  <INSTRUMENT>  (2697) 
HITACHI M-80

>  <ION MODE>  (2697) 
P

>  <INCHIKEY>  (2697) 
LXFQSRIDYRFTJW-UHFFFAOYSA-N

>  <FORMULA>  (2697) 
C9H12O3S

>  <EXACT MASS>  (2697) 
200.05071524399997

>  <MW>  (2697) 
200

>  <ID>  (2697) 
JP008176

>  <CONTRIBUTOR>  (2697) 
University of Tokyo Team, {Faculty of Engineering, University of Tokyo

>  <COMMENT>  (2697) 
SMILES=Cc(c1)cc(C)c(c(C)1)S(O)(=O)=O
cas=3453-83-6
InChI=InChI=1S/C9H12O3S/c1-6-4-7(2)9(8(3)5-6)13(10,11)12/h4-5H,1-3H3,(H,10,11,12)
computed SMILES=O=S(=O)(O)C=1C(=CC(=CC1C)C)C
accession=JP008176
date=2016.01.19 (Created 2008.10.21, modified 2011.05.06)
author=NARA WOMEN'S UNIVERSITY
license=CC BY-NC-SA
exact mass=200.05071
ionization energy=70 eV
ion type=[M]+*
computed spectral entropy=3.1766871107794445
computed normalized entropy=0.7891700787513765
SPLASH=splash10-0gb9-3920000000-ca7810617a8f037fc7ac
submitter=submitter = University of Tokyo Team (Faculty of Engineering, University of Tokyo)
MoNA Rating=3.75

>  <NUM PEAKS>  (2697) 
56

>  <MASS SPECTRAL PEAKS>  (2697) 
17 1.63
18 7.14
27 3.72
39 8.85
40 1.19
41 4.75
48 1.57
50 2.23
51 6.93
52 2.57
53 4
62 1.22
63 5.8
64 1.78
65 11.49
66 1.5
67 1.09
74 1.01
75 1.34
76 1.24
77 13.21
78 7.67
79 5.86
81 1.29
82 2.5
89 2.95
90 1.32
91 36.39
92 5.43
93 1.66
102 3.64
103 32.61
104 7.14
105 15.83
106 3.4
107 2.13
115 17.63
116 5.69
117 74.37
118 99.99
119 38.64
120 19.9
121 4.95
134 38.15
135 19.11
136 4.04
164 4.36
165 3.77
166 1.08
182 3.12
183 6.61
184 1.64
199 2.11
200 86.57
201 18.07
202 5.69

>  <PREDICTED SPECTRUM>  (2697) 
17 13
18 40
26 53
27 177
28 70
32 19
33 31
34 67
36 19
37 17
38 115
39 537
40 216
41 385
42 43
43 194
44 140
45 301
46 39
48 247
49 49
50 313
51 558
52 399
53 427
54 122
55 193
56 48
57 36
58 79
59 147
60 93
61 115
62 144
63 381
64 333
65 604
66 329
67 234
69 107
70 15
71 23
74 127
75 191
76 165
77 805
78 560
79 528
80 171
81 135
82 83
83 91
84 85
85 16
86 78
87 116
89 313
90 152
91 764
92 369
93 369
94 149
95 50
97 180
98 1
101 131
102 335
103 729
104 769
105 555
106 288
107 205
108 107
110 3
115 523
116 433
117 863
118 724
119 999
120 684
121 704
122 330
125 48
133 146
134 586
135 574
136 379
137 211
151 0
165 327
166 306
167 179
168 154
181 321
182 622
183 410
184 120
199 75
200 674
201 300
202 201

$$$$

     RDKit          2D

 13 13  0  0  0  0  0  0  0  0999 V2000
    2.8670   -1.5973    0.0000 C   0  0  0  0  0  0  0  0  0  0  0  0
    1.5724   -2.3395    0.0000 C   0  0  0  0  0  0  0  0  0  0  0  0
    2.8674   -0.0965    0.0000 C   0  0  0  0  0  0  0  0  0  0  0  0
    0.2734   -1.5895    0.0000 C   0  0  0  0  0  0  0  0  0  0  0  0
    1.5684    0.6535    0.0000 C   0  0  0  0  0  0  0  0  0  0  0  0
    0.2689   -0.0973    0.0000 C   0  0  0  0  0  0  0  0  0  0  0  0
    1.5682    2.1535    0.0000 N   0  0  0  0  0  0  0  0  0  0  0  0
    2.8671    2.9037    0.0000 O   0  0  0  0  0  0  0  0  0  0  0  0
    0.2690    2.9033    0.0000 O   0  0  0  0  0  0  0  0  0  0  0  0
   -0.2836    1.9508    0.0000 O   0  0  0  0  0  0  0  0  0  0  0  0
   -2.3317    1.3983    0.0000 O   0  0  0  0  0  0  0  0  0  0  0  0
   -1.7792   -0.6498    0.0000 O   0  0  0  0  0  0  0  0  0  0  0  0
   -1.0314    0.6505    0.0000 S   0  0  0  0  0  0  0  0  0  0  0  0
  2  1  2  0
  3  1  1  0
  4  2  1  0
  5  3  2  0
  6  4  2  0
  6  5  1  0
  7  5  1  0
  8  7  1  0
  9  7  2  0
 13  6  1  0
 13 10  1  0
 13 11  2  0
 13 12  2  0
M  CHG  2   7   1   8  -1
M  END
>  <NAME>  (2698) 
2-NITROBENZENESULFONIC ACID

>  <SYNONYMS>  (2698) 


>  <SPECTRUM TYPE>  (2698) 
MS1

>  <INSTRUMENT TYPE>  (2698) 
EI-B

>  <INSTRUMENT>  (2698) 
HITACHI M-80

>  <ION MODE>  (2698) 
P

>  <INCHIKEY>  (2698) 
HWTDMFJYBAURQR-UHFFFAOYSA-N

>  <FORMULA>  (2698) 
C6H5NO5S

>  <EXACT MASS>  (2698) 
202.98884326

>  <MW>  (2698) 
203

>  <ID>  (2698) 
JP008175

>  <CONTRIBUTOR>  (2698) 
University of Tokyo Team, {Faculty of Engineering, University of Tokyo

>  <COMMENT>  (2698) 
SMILES=[O-1][N+1](=O)c(c1)c(ccc1)S(O)(=O)=O
InChI=InChI=1S/C6H5NO5S/c8-7(9)5-3-1-2-4-6(5)13(10,11)12/h1-4H,(H,10,11,12)
computed SMILES=O=N(=O)C=1C=CC=CC1S(=O)(=O)O
accession=JP008175
date=2016.01.19 (Created 2008.10.21, modified 2011.05.06)
author=NARA WOMEN'S UNIVERSITY
license=CC BY-NC-SA
exact mass=202.98884
ionization energy=70 eV
ion type=[M]+*
computed spectral entropy=3.4065598658568925
computed normalized entropy=0.8354453914208271
SPLASH=splash10-053i-9610000000-b678ccd5a36c7838a06e
submitter=submitter = University of Tokyo Team (Faculty of Engineering, University of Tokyo)
MoNA Rating=3.75

>  <NUM PEAKS>  (2698) 
59

>  <MASS SPECTRAL PEAKS>  (2698) 
27 1.68
30 52.37
37 1.64
38 4.52
39 19.49
46 14
48 2.72
49 1.17
50 28.86
51 6.42
52 7.55
53 6.83
55 1.07
61 1.14
62 3.19
63 30.88
64 20.98
65 61.96
66 4.44
67 1.07
69 2.97
70 1.76
73 1.6
74 17.39
75 11.69
76 19.24
77 7.76
78 7.95
79 17.64
80 4.19
81 31.6
82 2.04
92 50.61
93 16.43
94 5.57
95 4.29
96 1.73
106 2.09
107 4.23
108 4.68
109 77.98
110 8.51
122 11.42
123 21.84
124 2.65
139 26.08
140 2.23
170 5.25
173 1.23
183 1.32
186 99.99
187 42.27
188 9.88
189 2.52
200 2.31
203 41.85
204 18.47
205 3.47
206 1.02

>  <PREDICTED SPECTRUM>  (2698) 
14 31
15 9
16 65
17 45
18 55
25 18
26 82
27 125
28 152
29 116
30 382
31 64
32 89
33 15
34 43
36 112
37 246
38 416
39 621
40 256
41 123
42 149
43 92
44 133
45 180
46 228
47 59
48 313
49 175
50 755
51 548
52 303
53 430
54 204
55 237
56 146
57 56
61 144
62 342
63 631
64 760
65 999
66 412
67 164
68 34
69 214
70 72
72 3
73 116
74 449
75 627
76 723
77 483
78 232
79 54
80 264
81 515
82 135
86 5
91 125
92 880
93 737
94 573
95 202
96 3
103 40
105 149
106 124
108 32
109 508
110 153
111 18
121 173
122 471
123 585
124 153
125 137
139 661
140 179
156 74
157 88
173 198
187 139
188 7
189 20
203 817
204 262
205 219
206 76

$$$$

     RDKit          2D

 14 16  0  0  0  0  0  0  0  0999 V2000
   -3.8400    0.7500    0.0000 C   0  0  0  0  0  0  0  0  0  0  0  0
    3.8400    0.7500    0.0000 C   0  0  0  0  0  0  0  0  0  0  0  0
   -3.8400   -0.7500    0.0000 C   0  0  0  0  0  0  0  0  0  0  0  0
    3.8400   -0.7500    0.0000 C   0  0  0  0  0  0  0  0  0  0  0  0
   -2.5400    1.4900    0.0000 C   0  0  0  0  0  0  0  0  0  0  0  0
    2.5400    1.4900    0.0000 C   0  0  0  0  0  0  0  0  0  0  0  0
   -2.5400   -1.4900    0.0000 C   0  0  0  0  0  0  0  0  0  0  0  0
    2.5400   -1.4900    0.0000 C   0  0  0  0  0  0  0  0  0  0  0  0
    0.0000    1.4400    0.0000 C   0  0  0  0  0  0  0  0  0  0  0  0
   -1.2500    0.7200    0.0000 C   0  0  0  0  0  0  0  0  0  0  0  0
    1.2500    0.7200    0.0000 C   0  0  0  0  0  0  0  0  0  0  0  0
   -1.2500   -0.7200    0.0000 C   0  0  0  0  0  0  0  0  0  0  0  0
    1.2500   -0.7200    0.0000 C   0  0  0  0  0  0  0  0  0  0  0  0
    0.0000   -1.4400    0.0000 S   0  0  0  0  0  0  0  0  0  0  0  0
  3  1  2  0
  4  2  2  0
  5  1  1  0
  6  2  1  0
  7  3  1  0
  8  4  1  0
 10  5  2  0
 10  9  1  0
 11  6  2  0
 11  9  1  0
 12  7  2  0
 12 10  1  0
 13  8  2  0
 13 11  1  0
 14 12  1  0
 14 13  1  0
M  END
>  <NAME>  (2699) 
9H-THIOXANTHENE

>  <SYNONYMS>  (2699) 


>  <SPECTRUM TYPE>  (2699) 
MS1

>  <INSTRUMENT TYPE>  (2699) 
EI-B

>  <INSTRUMENT>  (2699) 
HITACHI M-80

>  <ION MODE>  (2699) 
P

>  <INCHIKEY>  (2699) 
PQJUJGAVDBINPI-UHFFFAOYSA-N

>  <FORMULA>  (2699) 
C13H10S

>  <EXACT MASS>  (2699) 
198.05032132

>  <MW>  (2699) 
198

>  <ID>  (2699) 
JP008172

>  <CONTRIBUTOR>  (2699) 
University of Tokyo Team, {Faculty of Engineering, University of Tokyo

>  <COMMENT>  (2699) 
SMILES=c(c3)cc(C1)c(c3)Sc(c2)c(ccc2)1
cas=261-31-4
InChI=InChI=1S/C13H10S/c1-3-7-12-10(5-1)9-11-6-2-4-8-13(11)14-12/h1-8H,9H2
computed SMILES=S1C=2C=CC=CC2CC=3C=CC=CC13
accession=JP008172
date=2016.01.19 (Created 2008.10.21, modified 2011.05.06)
author=NARA WOMEN'S UNIVERSITY
license=CC BY-NC-SA
exact mass=198.05032
ionization energy=70 eV
ion type=[M]+*
computed spectral entropy=1.8531501748717756
computed normalized entropy=0.5831084914848297
SPLASH=splash10-0002-0900000000-cf046d3bcf84017b5311
submitter=submitter = University of Tokyo Team (Faculty of Engineering, University of Tokyo)
MoNA Rating=3.75

>  <NUM PEAKS>  (2699) 
24

>  <MASS SPECTRAL PEAKS>  (2699) 
39 2.1
45 1.22
50 0.91
51 0.95
63 2.38
69 2.3
89 1.05
121 1.03
139 1.47
151 1.08
152 5.08
153 2.55
163 2.56
164 1.74
165 17.14
166 2.53
171 3.3
195 3.51
196 1.54
197 90.1
198 99.99
199 19.47
200 5.96
201 0.77

>  <PREDICTED SPECTRUM>  (2699) 
33 8
34 9
37 24
38 68
39 197
40 50
41 24
43 63
44 34
45 203
49 35
50 198
51 251
52 91
53 80
54 12
55 43
57 90
58 90
61 50
62 151
63 257
64 108
65 124
68 52
69 338
70 107
71 71
74 122
75 158
76 188
77 121
78 62
79 24
81 115
82 188
83 103
84 21
85 92
86 88
87 109
88 61
89 212
90 77
91 68
92 25
93 114
94 4
95 108
96 54
97 24
98 27
99 97
100 54
101 42
102 49
104 9
106 40
107 28
108 74
110 12
111 57
113 137
114 57
115 228
120 62
121 82
126 100
127 116
128 43
137 68
138 43
139 148
140 40
145 43
146 2
150 11
151 194
152 196
153 235
154 102
158 44
162 11
163 91
164 238
165 465
166 377
167 128
168 52
169 14
170 108
171 213
172 196
173 42
195 108
196 296
197 805
198 999
199 467
200 239
201 66

$$$$

     RDKit          2D

 10 10  0  0  0  0  0  0  0  0999 V2000
   -0.3325    2.8100    0.0000 C   0  0  0  0  0  0  0  0  0  0  0  0
   -1.6200   -0.9400    0.0000 C   0  0  0  0  0  0  0  0  0  0  0  0
   -1.6200    0.5600    0.0000 C   0  0  0  0  0  0  0  0  0  0  0  0
   -0.3300   -1.6900    0.0000 C   0  0  0  0  0  0  0  0  0  0  0  0
    0.9700    0.5600    0.0000 C   0  0  0  0  0  0  0  0  0  0  0  0
   -0.3300    1.3100    0.0000 C   0  0  0  0  0  0  0  0  0  0  0  0
    0.9700   -0.9400    0.0000 C   0  0  0  0  0  0  0  0  0  0  0  0
    2.2689   -1.6902    0.0000 N   0  0  0  0  0  0  0  0  0  0  0  0
    2.2687   -3.1902    0.0000 O   0  0  0  0  0  0  0  0  0  0  0  0
    3.5681   -0.9404    0.0000 O   0  0  0  0  0  0  0  0  0  0  0  0
  3  2  2  0
  4  2  1  0
  6  1  1  0
  6  3  1  0
  6  5  2  0
  7  4  2  0
  7  5  1  0
  8  7  1  0
  9  8  1  0
 10  8  2  0
M  CHG  2   8   1   9  -1
M  END
>  <NAME>  (2700) 
3-NITROTOLUENE

>  <SYNONYMS>  (2700) 


>  <SPECTRUM TYPE>  (2700) 
MS1

>  <INSTRUMENT TYPE>  (2700) 
EI-B

>  <INSTRUMENT>  (2700) 
HITACHI M-80

>  <ION MODE>  (2700) 
P

>  <INCHIKEY>  (2700) 
QZYHIOPPLUPUJF-UHFFFAOYSA-N

>  <FORMULA>  (2700) 
C7H7NO2

>  <EXACT MASS>  (2700) 
137.047678464

>  <MW>  (2700) 
137

>  <ID>  (2700) 
JP008171

>  <CONTRIBUTOR>  (2700) 
University of Tokyo Team, {Faculty of Engineering, University of Tokyo

>  <COMMENT>  (2700) 
SMILES=Cc(c1)cc(cc1)[N+1]([O-1])=O
cas=99-08-1
InChI=InChI=1S/C7H7NO2/c1-6-3-2-4-7(5-6)8(9)10/h2-5H,1H3
computed SMILES=O=N(=O)C1=CC=CC(=C1)C
author=NARA WOMEN'S UNIVERSITY
accession=JP008171
date=2016.01.19 (Created 2008.10.21, modified 2011.05.06)
license=CC BY-NC-SA
exact mass=137.04768
ionization energy=70 eV
ion type=[M]+*
computed spectral entropy=2.1243057370025147
computed normalized entropy=0.6520082238853869
SPLASH=splash10-000f-9400000000-20f29a7078360cd9fa11
submitter=submitter = University of Tokyo Team (Faculty of Engineering, University of Tokyo)
MoNA Rating=3.75

>  <NUM PEAKS>  (2700) 
26

>  <MASS SPECTRAL PEAKS>  (2700) 
30 3.43
38 1.02
39 7.61
41 1.99
46 1.28
50 1.88
51 3.37
52 1.13
53 0.99
62 1.89
63 6.36
64 1.65
65 30.76
66 1.6
77 6.22
78 1.42
79 8.6
89 6.07
90 3.55
91 99.99
92 8.07
107 8.68
121 1.18
137 86.54
138 7.66
139 0.61

>  <PREDICTED SPECTRUM>  (2700) 
14 2
15 0
16 12
17 0
18 30
25 22
26 113
27 134
28 121
29 13
30 356
31 42
32 31
36 38
37 144
38 255
39 449
40 107
41 158
43 18
46 85
49 45
50 342
51 501
52 356
53 190
54 28
61 160
62 274
63 579
64 319
65 493
66 75
69 9
74 137
75 130
76 67
77 647
78 362
79 439
80 142
86 102
87 75
89 716
90 543
91 856
92 356
93 18
106 45
107 416
108 85
120 379
121 30
137 999
138 235
139 16

$$$$

     RDKit          2D

  5  4  0  0  0  0  0  0  0  0999 V2000
   -1.2990    0.7500    0.0000 C   0  0  0  0  0  0  0  0  0  0  0  0
    0.7500    0.2010    0.0000 C   0  0  0  0  0  0  0  0  0  0  0  0
    0.0000    1.5000    0.0000 C   0  0  0  0  0  0  0  0  0  0  0  0
    1.2990    2.2500    0.0000 Cl  0  0  0  0  0  0  0  0  0  0  0  0
   -0.7500    2.7990    0.0000 Cl  0  0  0  0  0  0  0  0  0  0  0  0
  3  1  1  0
  3  2  1  0
  4  3  1  0
  5  3  1  0
M  END
>  <NAME>  (2701) 
2,2-DICHLOROPROPANE

>  <SYNONYMS>  (2701) 


>  <SPECTRUM TYPE>  (2701) 
MS1

>  <INSTRUMENT TYPE>  (2701) 
EI-B

>  <INSTRUMENT>  (2701) 
HITACHI M-80

>  <ION MODE>  (2701) 
P

>  <INCHIKEY>  (2701) 
ZEOVXNVKXIPWMS-UHFFFAOYSA-N

>  <FORMULA>  (2701) 
C3H6Cl2

>  <EXACT MASS>  (2701) 
111.98465555199999

>  <MW>  (2701) 
112

>  <ID>  (2701) 
JP008170

>  <CONTRIBUTOR>  (2701) 
University of Tokyo Team, {Faculty of Engineering, University of Tokyo

>  <COMMENT>  (2701) 
SMILES=CC(C)(Cl)Cl
cas=594-20-7
InChI=InChI=1S/C3H6Cl2/c1-3(2,4)5/h1-2H3
computed SMILES=ClC(Cl)(C)C
accession=JP008170
date=2016.01.19 (Created 2008.10.21, modified 2011.05.06)
author=NARA WOMEN'S UNIVERSITY
license=CC BY-NC-SA
exact mass=111.98466
ionization energy=70 eV
ion type=[M]+*
computed spectral entropy=2.364079939580187
computed normalized entropy=0.7172927652958299
SPLASH=splash10-004i-9000000000-68a2af4d20e4462ffc3c
submitter=submitter = University of Tokyo Team (Faculty of Engineering, University of Tokyo)
MoNA Rating=3.75

>  <NUM PEAKS>  (2701) 
27

>  <MASS SPECTRAL PEAKS>  (2701) 
15 2.49
26 1.58
27 2.85
29 2.81
31 6.08
32 6.29
35 1.87
36 1.52
37 2.8
38 4.03
39 14.55
40 2.13
41 42.45
42 1.84
49 2.85
61 9.52
62 1.87
63 4.35
76 2.88
77 99.99
78 4.39
79 34.22
80 1.22
97 18.84
98 0.92
99 12.47
101 2.08

>  <PREDICTED SPECTRUM>  (2701) 
14 75
15 125
25 69
26 205
27 424
28 137
29 356
31 62
32 10
33 23
35 140
36 194
37 161
38 209
39 535
40 174
41 851
42 320
43 108
44 25
47 192
48 79
49 307
50 228
51 258
53 180
54 100
55 162
56 330
57 999
58 161
59 136
61 442
62 203
63 223
64 51
65 70
69 12
72 35
74 9
75 118
76 88
77 877
78 252
79 370
80 31
81 62
83 225
84 51
85 52
97 556
98 24
99 362
100 57
101 60
112 349
113 42
114 192

$$$$

     RDKit          2D

  7  6  0  0  0  0  0  0  0  0999 V2000
    1.9486    2.6250    0.0000 C   0  0  0  0  0  0  0  0  0  0  0  0
   -4.5466    3.3750    0.0000 C   0  0  0  0  0  0  0  0  0  0  0  0
    0.6495    3.3750    0.0000 C   0  0  0  0  0  0  0  0  0  0  0  0
   -3.2476    2.6250    0.0000 C   0  0  0  0  0  0  0  0  0  0  0  0
   -0.6495    2.6250    0.0000 C   0  0  0  0  0  0  0  0  0  0  0  0
   -0.6495    1.1250    0.0000 O   0  0  0  0  0  0  0  0  0  0  0  0
   -1.9486    3.3750    0.0000 O   0  0  0  0  0  0  0  0  0  0  0  0
  3  1  1  0
  4  2  1  0
  5  3  1  0
  6  5  2  0
  7  4  1  0
  7  5  1  0
M  END
>  <NAME>  (2702) 
ETHYL PROPIONATE

>  <SYNONYMS>  (2702) 


>  <SPECTRUM TYPE>  (2702) 
MS1

>  <INSTRUMENT TYPE>  (2702) 
EI-B

>  <INSTRUMENT>  (2702) 
HITACHI M-80

>  <ION MODE>  (2702) 
P

>  <INCHIKEY>  (2702) 
FKRCODPIKNYEAC-UHFFFAOYSA-N

>  <FORMULA>  (2702) 
C5H10O2

>  <EXACT MASS>  (2702) 
102.06807956

>  <MW>  (2702) 
102

>  <ID>  (2702) 
JP008169

>  <CONTRIBUTOR>  (2702) 
University of Tokyo Team, {Faculty of Engineering, University of Tokyo

>  <COMMENT>  (2702) 
SMILES=CCOC(=O)CC
cas=105-37-3
InChI=InChI=1S/C5H10O2/c1-3-5(6)7-4-2/h3-4H2,1-2H3
computed SMILES=O=C(OCC)CC
accession=JP008169
date=2016.01.19 (Created 2008.10.21, modified 2011.05.06)
author=NARA WOMEN'S UNIVERSITY
license=CC BY-NC-SA
exact mass=102.06808
ionization energy=70 eV
ion type=[M]+*
computed spectral entropy=2.5858974793756424
computed normalized entropy=0.7679448465286846
SPLASH=splash10-056r-9000000000-d935c0913c9a0bf2f62a
submitter=submitter = University of Tokyo Team (Faculty of Engineering, University of Tokyo)
MoNA Rating=3.75

>  <NUM PEAKS>  (2702) 
29

>  <MASS SPECTRAL PEAKS>  (2702) 
14 1.1
15 4.17
26 5.68
27 25.85
28 24.34
29 98.49
30 5.51
31 15.08
32 3.46
41 1.87
42 2.57
43 11.55
44 0.93
45 25.14
46 2.36
55 2.39
56 6.43
57 99.99
58 5.56
59 2.11
73 15.34
74 26.96
75 29.97
76 1.06
84 2.72
87 4.46
101 1.18
102 33.16
103 5.14

>  <PREDICTED SPECTRUM>  (2702) 
14 54
15 115
16 8
19 17
25 35
26 210
27 642
28 373
29 999
30 305
31 296
32 31
41 188
42 298
43 247
44 17
45 231
46 149
47 133
53 11
54 37
55 273
56 517
57 919
58 100
59 147
60 19
71 44
73 254
74 332
75 237
83 52
101 3
102 362
103 99

$$$$

     RDKit          2D

 11 11  0  0  0  0  0  0  0  0999 V2000
   -3.8981    0.7504    0.0000 C   0  0  0  0  0  0  0  0  0  0  0  0
   -2.5989    1.5002    0.0000 C   0  0  0  0  0  0  0  0  0  0  0  0
   -1.3000   -0.7500    0.0000 C   0  0  0  0  0  0  0  0  0  0  0  0
    0.0000    1.5000    0.0000 C   0  0  0  0  0  0  0  0  0  0  0  0
    0.0000   -1.5000    0.0000 C   0  0  0  0  0  0  0  0  0  0  0  0
    1.3000    0.7500    0.0000 C   0  0  0  0  0  0  0  0  0  0  0  0
   -1.3000    0.7500    0.0000 C   0  0  0  0  0  0  0  0  0  0  0  0
    1.3000   -0.7500    0.0000 C   0  0  0  0  0  0  0  0  0  0  0  0
    2.5989   -1.5002    0.0000 N   0  0  0  0  0  0  0  0  0  0  0  0
    3.8981   -0.7504    0.0000 O   0  0  0  0  0  0  0  0  0  0  0  0
    2.5987   -3.0002    0.0000 O   0  0  0  0  0  0  0  0  0  0  0  0
  2  1  1  0
  5  3  2  0
  6  4  1  0
  7  2  1  0
  7  3  1  0
  7  4  2  0
  8  5  1  0
  8  6  2  0
  9  8  1  0
 10  9  1  0
 11  9  2  0
M  CHG  2   9   1  10  -1
M  END
>  <NAME>  (2703) 
4-ETHYLNITROBENZENE

>  <SYNONYMS>  (2703) 


>  <SPECTRUM TYPE>  (2703) 
MS1

>  <INSTRUMENT TYPE>  (2703) 
EI-B

>  <INSTRUMENT>  (2703) 
HITACHI M-80

>  <ION MODE>  (2703) 
P

>  <INCHIKEY>  (2703) 
RESTWAHJFMZUIZ-UHFFFAOYSA-N

>  <FORMULA>  (2703) 
C8H9NO2

>  <EXACT MASS>  (2703) 
151.063328528

>  <MW>  (2703) 
151

>  <ID>  (2703) 
JP008168

>  <CONTRIBUTOR>  (2703) 
University of Tokyo Team, {Faculty of Engineering, University of Tokyo

>  <COMMENT>  (2703) 
SMILES=CCc(c1)ccc(c1)[N+1]([O-1])=O
cas=100-12-9
InChI=InChI=1S/C8H9NO2/c1-2-7-3-5-8(6-4-7)9(10)11/h3-6H,2H2,1H3
computed SMILES=O=N(=O)C1=CC=C(C=C1)CC
accession=JP008168
date=2016.01.19 (Created 2008.10.21, modified 2011.05.06)
author=NARA WOMEN'S UNIVERSITY
license=CC BY-NC-SA
exact mass=151.06333
ionization energy=70 eV
ion type=[M]+*
computed spectral entropy=2.927413851142814
computed normalized entropy=0.7690237469199545
SPLASH=splash10-0zi0-5900000000-d5b6d3ed034277cda546
submitter=submitter = University of Tokyo Team (Faculty of Engineering, University of Tokyo)
MoNA Rating=3.75

>  <NUM PEAKS>  (2703) 
45

>  <MASS SPECTRAL PEAKS>  (2703) 
15 1.15
27 4.17
28 1.02
29 1.69
30 5.84
31 3.4
32 2.97
38 0.87
39 4.72
46 1.65
50 3.54
51 6.36
52 1.73
53 1.92
62 1.6
63 5.29
64 1.52
65 3.2
74 1.58
75 1.59
76 1.53
77 27.28
78 14.08
79 22.44
80 1.55
89 5.85
90 3.98
91 6.11
92 1.12
93 9.11
102 1.6
103 16.01
104 9.15
105 55.85
106 10.65
107 1.27
121 10.03
122 0.96
134 8.02
135 2.77
136 16.65
137 1.34
151 99.99
152 9.63
153 0.86

>  <PREDICTED SPECTRUM>  (2703) 
14 39
15 88
16 7
25 30
26 172
27 413
28 233
29 314
30 300
36 4
37 118
38 255
39 532
40 216
41 383
42 38
43 96
44 26
46 163
49 54
50 428
51 687
52 500
53 445
54 230
55 52
61 118
62 288
63 560
64 340
65 576
66 310
67 39
68 5
69 56
74 216
75 289
76 295
77 999
78 842
79 621
80 268
81 1
85 11
86 38
87 95
89 829
90 504
91 563
92 368
93 335
102 237
103 640
104 553
105 557
106 548
107 154
120 195
121 373
122 62
123 24
134 615
135 306
136 631
137 96
150 67
151 863
152 305

$$$$

     RDKit          2D

 12 12  0  0  0  0  0  0  0  0999 V2000
   -1.3000   -0.7500    0.0000 C   0  0  0  0  0  0  0  0  0  0  0  0
    0.0000    1.5000    0.0000 C   0  0  0  0  0  0  0  0  0  0  0  0
    0.0000   -1.5000    0.0000 C   0  0  0  0  0  0  0  0  0  0  0  0
    1.3000    0.7500    0.0000 C   0  0  0  0  0  0  0  0  0  0  0  0
   -2.5989    1.5002    0.0000 C   0  0  0  0  0  0  0  0  0  0  0  0
   -3.8981    0.7504    0.0000 C   0  0  0  0  0  0  0  0  0  0  0  0
   -1.3000    0.7500    0.0000 C   0  0  0  0  0  0  0  0  0  0  0  0
    1.3000   -0.7500    0.0000 C   0  0  0  0  0  0  0  0  0  0  0  0
   -5.1972    0.0006    0.0000 N   0  0  0  0  0  0  0  0  0  0  0  0
    2.5989   -1.5002    0.0000 N   0  0  0  0  0  0  0  0  0  0  0  0
    3.8981   -0.7504    0.0000 O   0  0  0  0  0  0  0  0  0  0  0  0
    2.5987   -3.0002    0.0000 O   0  0  0  0  0  0  0  0  0  0  0  0
  3  1  2  0
  4  2  1  0
  6  5  1  0
  7  1  1  0
  7  2  2  0
  7  5  1  0
  8  3  1  0
  8  4  2  0
  9  6  3  0
 10  8  1  0
 11 10  1  0
 12 10  2  0
M  CHG  2  10   1  11  -1
M  END
>  <NAME>  (2704) 
4-NITROPHENYLACETONITRILE

>  <SYNONYMS>  (2704) 
4-NITROBENZYL CYANIDE

>  <SPECTRUM TYPE>  (2704) 
MS1

>  <INSTRUMENT TYPE>  (2704) 
EI-B

>  <INSTRUMENT>  (2704) 
HITACHI M-80

>  <ION MODE>  (2704) 
P

>  <INCHIKEY>  (2704) 
PXNJGLAVKOXITN-UHFFFAOYSA-N

>  <FORMULA>  (2704) 
C8H6N2O2

>  <EXACT MASS>  (2704) 
162.042927432

>  <MW>  (2704) 
162

>  <ID>  (2704) 
JP008167

>  <CONTRIBUTOR>  (2704) 
University of Tokyo Team, {Faculty of Engineering, University of Tokyo

>  <COMMENT>  (2704) 
SMILES=N#CCc(c1)ccc(c1)[N+1]([O-1])=O
cas=555-21-5
InChI=InChI=1S/C8H6N2O2/c9-6-5-7-1-3-8(4-2-7)10(11)12/h1-4H,5H2
computed SMILES=N#CCC1=CC=C(C=C1)N(=O)=O
accession=JP008167
date=2016.01.19 (Created 2008.10.21, modified 2011.05.06)
author=NARA WOMEN'S UNIVERSITY
license=CC BY-NC-SA
exact mass=162.04293
ionization energy=70 eV
ion type=[M]+*
computed spectral entropy=2.9452908975099517
computed normalized entropy=0.7649812947955006
SPLASH=splash10-03xr-5900000000-37a4869a061935c99c44
submitter=submitter = University of Tokyo Team (Faculty of Engineering, University of Tokyo)
MoNA Rating=3.75

>  <NUM PEAKS>  (2704) 
47

>  <MASS SPECTRAL PEAKS>  (2704) 
27 1.14
30 22.82
37 1.32
38 2.48
39 8.51
40 1.03
46 4.1
50 7.07
51 5.1
52 1.92
61 2.07
62 6.37
63 18.52
64 4.27
65 3.87
74 3.57
75 3.35
76 4.44
77 14.03
78 3.37
86 1.36
87 2.74
88 5.31
89 74.9
90 13.58
91 1.42
92 0.87
102 1.45
103 2.36
104 31.31
105 3.12
106 1.18
114 2.94
115 3.76
116 85.75
117 10.25
118 0.96
130 1.97
131 1.34
132 40.04
133 4.53
136 5.6
146 20.41
147 4.29
162 99.99
163 39.66
164 3.75

>  <PREDICTED SPECTRUM>  (2704) 
14 59
15 113
16 45
17 41
18 56
25 52
26 172
27 123
28 179
29 175
30 698
31 121
32 47
33 55
34 21
35 26
36 116
37 313
38 432
39 529
40 285
41 152
42 77
43 29
44 111
45 15
46 290
48 18
49 151
50 577
51 662
52 426
53 76
54 85
57 85
58 24
60 8
61 336
62 531
63 807
64 487
65 295
66 145
67 7
69 132
70 87
74 342
75 363
76 395
77 490
78 410
79 40
80 26
84 8
85 93
86 218
87 255
88 291
89 951
90 511
91 124
92 76
94 17
96 22
103 28
104 470
105 184
106 309
114 82
115 203
116 867
117 355
118 40
122 23
132 478
133 159
134 72
135 90
146 28
162 999
163 309
164 58

$$$$

     RDKit          2D

  9  8  0  0  0  0  0  0  0  0999 V2000
    1.9486    3.3750    0.0000 C   0  0  0  0  0  0  0  0  0  0  0  0
   -5.8457    3.3750    0.0000 C   0  0  0  0  0  0  0  0  0  0  0  0
    0.6495    4.1250    0.0000 C   0  0  0  0  0  0  0  0  0  0  0  0
   -4.5466    4.1250    0.0000 C   0  0  0  0  0  0  0  0  0  0  0  0
   -0.6495    3.3750    0.0000 C   0  0  0  0  0  0  0  0  0  0  0  0
   -3.2476    3.3750    0.0000 C   0  0  0  0  0  0  0  0  0  0  0  0
   -0.6495    1.8750    0.0000 O   0  0  0  0  0  0  0  0  0  0  0  0
   -3.2476    1.8750    0.0000 O   0  0  0  0  0  0  0  0  0  0  0  0
   -1.9486    4.1250    0.0000 O   0  0  0  0  0  0  0  0  0  0  0  0
  3  1  1  0
  4  2  1  0
  5  3  1  0
  6  4  1  0
  7  5  2  0
  8  6  2  0
  9  5  1  0
  9  6  1  0
M  END
>  <NAME>  (2705) 
PROPIONIC ANHYDRIDE

>  <SYNONYMS>  (2705) 


>  <SPECTRUM TYPE>  (2705) 
MS1

>  <INSTRUMENT TYPE>  (2705) 
EI-B

>  <INSTRUMENT>  (2705) 
HITACHI M-80

>  <ION MODE>  (2705) 
P

>  <INCHIKEY>  (2705) 
WYVAMUWZEOHJOQ-UHFFFAOYSA-N

>  <FORMULA>  (2705) 
C6H10O3

>  <EXACT MASS>  (2705) 
130.06299418

>  <MW>  (2705) 
130

>  <ID>  (2705) 
JP008166

>  <CONTRIBUTOR>  (2705) 
University of Tokyo Team, {Faculty of Engineering, University of Tokyo

>  <COMMENT>  (2705) 
SMILES=CCC(=O)OC(=O)CC
cas=123-62-6
InChI=InChI=1S/C6H10O3/c1-3-5(7)9-6(8)4-2/h3-4H2,1-2H3
computed SMILES=O=C(OC(=O)CC)CC
accession=JP008166
date=2016.01.19 (Created 2008.10.21, modified 2011.05.06)
author=NARA WOMEN'S UNIVERSITY
license=CC BY-NC-SA
exact mass=130.06299
ionization energy=70 eV
ion type=[M]+*
computed spectral entropy=1.966235618855854
computed normalized entropy=0.7260705942805535
SPLASH=splash10-0a6r-9000000000-a34f86388bc07032a203
submitter=submitter = University of Tokyo Team (Faculty of Engineering, University of Tokyo)
MoNA Rating=3.75

>  <NUM PEAKS>  (2705) 
15

>  <MASS SPECTRAL PEAKS>  (2705) 
26 7.67
27 21.31
28 23.72
29 52.65
30 3.17
42 1.13
45 5.91
54 1.27
55 4.14
56 12.38
57 99.99
58 4.01
73 8.16
74 13.22
79 1.06

>  <PREDICTED SPECTRUM>  (2705) 
14 2
15 13
26 18
27 78
28 52
29 405
30 51
40 53
42 167
44 112
45 54
53 13
55 12
56 148
57 999
58 221
73 39
74 140
75 109
101 50
130 138
131 38

$$$$

     RDKit          2D

 24 27  0  0  1  0  0  0  0  0999 V2000
   -1.6300    0.9100    0.0000 C   0  0  0  0  0  0  0  0  0  0  0  0
    2.4272    3.1517    0.0000 C   0  0  0  0  0  0  0  0  0  0  0  0
    7.5522    5.5961    0.0000 C   0  0  0  0  0  0  0  0  0  0  0  0
   -0.3300   -2.8400    0.0000 C   0  0  0  0  0  0  0  0  0  0  0  0
    0.9700   -2.0900    0.0000 C   0  0  0  0  0  0  0  0  0  0  0  0
    3.6900   -0.3000    0.0000 C   0  0  0  0  0  0  0  0  0  0  0  0
    4.5700    0.9100    0.0000 C   0  0  0  0  0  0  0  0  0  0  0  0
   -4.2300   -0.5900    0.0000 C   0  0  0  0  0  0  0  0  0  0  0  0
   -0.3300    1.6600    0.0000 C   0  0  0  0  0  0  0  0  0  0  0  0
   -2.9300    0.1600    0.0000 C   0  0  0  0  0  0  0  0  0  0  0  0
    0.9700    2.4100    0.0000 C   0  0  0  0  0  0  0  0  0  0  0  0
   -2.9300   -2.8400    0.0000 C   0  0  0  0  0  0  0  0  0  0  0  0
    5.6211    3.8581    0.0000 C   0  0  0  0  0  0  0  0  0  0  0  0
   -1.6300   -2.0900    0.0000 C   0  0  0  0  0  0  0  0  0  0  0  0
   -4.2300   -2.0900    0.0000 C   0  0  0  0  0  0  0  0  0  0  0  0
    0.9700   -0.5900    0.0000 C   0  0  0  0  0  0  0  0  0  0  0  0
    2.2700    0.1600    0.0000 C   0  0  0  0  0  0  0  0  0  0  0  0
   -0.3300    0.1600    0.0000 C   0  0  0  0  0  0  0  0  0  0  0  0
    3.6900    2.1200    0.0000 C   0  0  0  0  0  0  0  0  0  0  0  0
   -1.6300   -0.5900    0.0000 C   0  0  0  0  0  0  0  0  0  0  0  0
    2.2700    1.6600    0.0000 C   0  0  0  0  0  0  0  0  0  0  0  0
   -5.5289   -2.8402    0.0000 O   0  0  0  0  0  0  0  0  0  0  0  0
    6.0849    5.2846    0.0000 O   0  0  0  0  0  0  0  0  0  0  0  0
    4.1538    3.5465    0.0000 O   0  0  0  0  0  0  0  0  0  0  0  0
  5  4  1  0
  7  6  1  0
 10  8  1  0
 11  9  1  0
 14  4  1  0
 14 12  2  0
 15  8  1  0
 15 12  1  0
 16  5  1  6
 17  6  1  1
 17 16  1  0
 18  9  1  1
 18 16  1  0
 19  7  1  0
 20  1  1  1
 20 10  1  0
 20 14  1  0
 20 18  1  0
 21  2  1  1
 21 11  1  0
 21 17  1  0
 21 19  1  0
 22 15  2  0
 23  3  1  0
 23 13  1  0
 24 13  1  0
 19 24  1  1
M  END
>  <NAME>  (2706) 
TESTOSTERONE METHOXYMETHYL ETHER

>  <SYNONYMS>  (2706) 


>  <SPECTRUM TYPE>  (2706) 
MS1

>  <INSTRUMENT TYPE>  (2706) 
EI-B

>  <INSTRUMENT>  (2706) 
HITACHI M-80

>  <ION MODE>  (2706) 
P

>  <INCHIKEY>  (2706) 
DQEDBYWBOBVTFT-PXQJOHHUSA-N

>  <FORMULA>  (2706) 
C21H32O3

>  <EXACT MASS>  (2706) 
332.23514488399996

>  <MW>  (2706) 
332

>  <ID>  (2706) 
JP008165

>  <CONTRIBUTOR>  (2706) 
University of Tokyo Team, {Faculty of Engineering, University of Tokyo

>  <COMMENT>  (2706) 
SMILES=COCOC(C4)C(C)(C3)C([H])(C4)C([H])(C1)C([H])(C3)C(C)(C2)C(=CC(=O)C2)C1
InChI=InChI=1S/C21H32O3/c1-20-10-8-15(22)12-14(20)4-5-16-17-6-7-19(24-13-23-3)21(17,2)11-9-18(16)20/h12,16-19H,4-11,13H2,1-3H3/t16-,17-,18-,19-,20-,21-/m0/s1
computed SMILES=O=C1C=C2CCC3C(CCC4(C)C(OCOC)CCC34)C2(C)CC1
accession=JP008165
date=2016.01.19 (Created 2008.10.21, modified 2011.05.06)
author=NARA WOMEN'S UNIVERSITY
license=CC BY-NC-SA
exact mass=332.23514
ionization energy=70 eV
ion type=[M]+*
computed spectral entropy=3.5799558049973017
computed normalized entropy=0.8079674623270063
SPLASH=splash10-0002-9411000000-61a97ddf49c3d5f5d746
submitter=submitter = University of Tokyo Team (Faculty of Engineering, University of Tokyo)
MoNA Rating=3.75

>  <NUM PEAKS>  (2706) 
84

>  <MASS SPECTRAL PEAKS>  (2706) 
15 1.91
27 1.98
29 3.14
39 3.16
41 10.53
43 1.71
45 99.99
46 2.12
53 4.24
55 9.11
57 1.08
65 2.3
66 1.07
67 6.02
77 6.62
78 1.83
79 9.35
80 1.4
81 5.43
91 9.94
92 1.72
93 6.89
94 1.59
95 5.16
97 1.73
105 6.43
106 1.49
107 5.63
108 1.38
109 2.23
111 1.43
115 1.34
117 2.25
119 4.67
120 1.29
121 4.04
122 2.15
123 5.57
124 4.89
129 1.05
131 2.5
133 4.31
134 1.99
135 2.48
136 1.28
137 1.74
138 1.7
143 1.23
145 4.2
146 1.89
147 6.17
148 2.35
149 3.42
157 1.17
159 2.06
161 2.09
163 1.57
168 1.74
171 1.01
173 1.71
174 1
175 1.32
177 1.11
185 1.19
187 1.22
189 1.25
213 1.05
227 2.55
228 1.44
229 1.11
243 2.13
245 1.21
258 1.84
259 0.99
269 2.41
270 2.93
271 1.84
287 8.65
288 1.85
300 12.31
301 2.79
304 1.85
332 8.13
333 2.2

>  <PREDICTED SPECTRUM>  (2706) 
29 73
33 18
39 46
41 512
42 41
43 392
44 39
45 999
46 34
47 37
53 122
54 4
55 481
56 33
57 89
58 45
59 21
65 105
66 13
67 379
69 149
71 32
77 253
78 112
79 377
80 53
81 234
82 19
83 54
84 86
85 119
86 0
89 37
91 429
92 107
93 361
94 136
95 251
97 91
103 21
104 26
105 365
106 53
107 294
108 140
109 179
110 51
111 81
117 155
119 284
120 94
121 255
122 111
123 196
124 235
125 26
127 16
128 50
129 132
130 49
131 157
133 329
134 116
135 97
137 107
144 37
145 294
146 163
147 459
148 70
149 167
155 17
157 40
158 47
159 191
160 71
161 51
162 13
169 12
170 55
171 0
172 30
173 111
182 74
183 73
184 7
188 9
196 46
198 28
199 58
201 7
212 19
213 147
225 40
226 10
227 120
228 92
229 105
240 8
242 13
243 169
244 35
245 167
246 11
251 21
253 76
254 45
255 66
269 45
270 410
271 361
272 113
285 22
287 461
288 88
300 343
301 10
332 297
333 204
334 3

$$$$

     RDKit          2D

 48 49  0  0  0  0  0  0  0  0999 V2000
   38.2331   -0.7558    0.0000 C   0  0  0  0  0  0  0  0  0  0  0  0
   36.9337   -3.0056    0.0000 C   0  0  0  0  0  0  0  0  0  0  0  0
   31.7375   -3.0048    0.0000 C   0  0  0  0  0  0  0  0  0  0  0  0
   26.5414   -3.0040    0.0000 C   0  0  0  0  0  0  0  0  0  0  0  0
   21.3452   -3.0031    0.0000 C   0  0  0  0  0  0  0  0  0  0  0  0
   16.1491   -3.0023    0.0000 C   0  0  0  0  0  0  0  0  0  0  0  0
   10.9529   -3.0015    0.0000 C   0  0  0  0  0  0  0  0  0  0  0  0
    5.7568   -3.0006    0.0000 C   0  0  0  0  0  0  0  0  0  0  0  0
    3.1589    1.5002    0.0000 C   0  0  0  0  0  0  0  0  0  0  0  0
   -3.3400    0.7500    0.0000 C   0  0  0  0  0  0  0  0  0  0  0  0
   -3.3400   -0.7500    0.0000 C   0  0  0  0  0  0  0  0  0  0  0  0
   34.3358   -1.5052    0.0000 C   0  0  0  0  0  0  0  0  0  0  0  0
   29.1397   -1.5044    0.0000 C   0  0  0  0  0  0  0  0  0  0  0  0
   23.9435   -1.5035    0.0000 C   0  0  0  0  0  0  0  0  0  0  0  0
   18.7474   -1.5027    0.0000 C   0  0  0  0  0  0  0  0  0  0  0  0
   13.5512   -1.5019    0.0000 C   0  0  0  0  0  0  0  0  0  0  0  0
    8.3551   -1.5010    0.0000 C   0  0  0  0  0  0  0  0  0  0  0  0
   35.6350   -0.7554    0.0000 C   0  0  0  0  0  0  0  0  0  0  0  0
   33.0369   -0.7550    0.0000 C   0  0  0  0  0  0  0  0  0  0  0  0
   30.4388   -0.7546    0.0000 C   0  0  0  0  0  0  0  0  0  0  0  0
   27.8408   -0.7542    0.0000 C   0  0  0  0  0  0  0  0  0  0  0  0
   25.2427   -0.7537    0.0000 C   0  0  0  0  0  0  0  0  0  0  0  0
   22.6446   -0.7533    0.0000 C   0  0  0  0  0  0  0  0  0  0  0  0
   20.0465   -0.7529    0.0000 C   0  0  0  0  0  0  0  0  0  0  0  0
   17.4485   -0.7525    0.0000 C   0  0  0  0  0  0  0  0  0  0  0  0
   14.8504   -0.7521    0.0000 C   0  0  0  0  0  0  0  0  0  0  0  0
   12.2523   -0.7517    0.0000 C   0  0  0  0  0  0  0  0  0  0  0  0
    9.6542   -0.7512    0.0000 C   0  0  0  0  0  0  0  0  0  0  0  0
    7.0562   -0.7508    0.0000 C   0  0  0  0  0  0  0  0  0  0  0  0
   -2.0400    1.5000    0.0000 C   0  0  0  0  0  0  0  0  0  0  0  0
   -2.0400   -1.5000    0.0000 C   0  0  0  0  0  0  0  0  0  0  0  0
    4.4581   -0.7504    0.0000 C   0  0  0  0  0  0  0  0  0  0  0  0
    3.1589   -1.5002    0.0000 C   0  0  0  0  0  0  0  0  0  0  0  0
   36.9339   -1.5056    0.0000 C   0  0  0  0  0  0  0  0  0  0  0  0
   31.7378   -1.5048    0.0000 C   0  0  0  0  0  0  0  0  0  0  0  0
   26.5416   -1.5040    0.0000 C   0  0  0  0  0  0  0  0  0  0  0  0
   21.3455   -1.5031    0.0000 C   0  0  0  0  0  0  0  0  0  0  0  0
   16.1493   -1.5023    0.0000 C   0  0  0  0  0  0  0  0  0  0  0  0
   10.9531   -1.5015    0.0000 C   0  0  0  0  0  0  0  0  0  0  0  0
    5.7570   -1.5006    0.0000 C   0  0  0  0  0  0  0  0  0  0  0  0
    1.8600    0.7500    0.0000 C   0  0  0  0  0  0  0  0  0  0  0  0
    1.8600   -0.7500    0.0000 C   0  0  0  0  0  0  0  0  0  0  0  0
   -0.7400    0.7500    0.0000 C   0  0  0  0  0  0  0  0  0  0  0  0
   -0.7400   -0.7500    0.0000 C   0  0  0  0  0  0  0  0  0  0  0  0
    0.5600    1.5000    0.0000 C   0  0  0  0  0  0  0  0  0  0  0  0
    0.5600   -1.5000    0.0000 C   0  0  0  0  0  0  0  0  0  0  0  0
    0.5600    3.0000    0.0000 O   0  0  0  0  0  0  0  0  0  0  0  0
    0.5600   -3.0000    0.0000 O   0  0  0  0  0  0  0  0  0  0  0  0
 11 10  2  0
 18 12  1  0
 19 12  1  0
 20 13  1  0
 21 13  1  0
 22 14  1  0
 23 14  1  0
 24 15  1  0
 25 15  1  0
 26 16  1  0
 27 16  1  0
 28 17  1  0
 29 17  1  0
 30 10  1  0
 31 11  1  0
 33 32  1  0
 34  1  1  0
 34  2  1  0
 34 18  2  0
 35  3  1  0
 35 19  1  0
 20 35  2  0
 36  4  1  0
 36 21  1  0
 22 36  2  0
 37  5  1  0
 37 23  1  0
 24 37  2  0
 38  6  1  0
 38 25  1  0
 26 38  2  0
 39  7  1  0
 39 27  1  0
 28 39  2  0
 40  8  1  0
 40 29  1  0
 32 40  2  0
 41  9  1  0
 42 33  1  0
 42 41  2  0
 43 30  2  0
 44 31  2  0
 44 43  1  0
 45 41  1  0
 45 43  1  0
 46 42  1  0
 46 44  1  0
 47 45  2  0
 48 46  2  0
M  END
>  <NAME>  (2707) 
MENAQUINONE-7

>  <SYNONYMS>  (2707) 


>  <SPECTRUM TYPE>  (2707) 
MS1

>  <INSTRUMENT TYPE>  (2707) 
EI-B

>  <INSTRUMENT>  (2707) 
HITACHI M-80

>  <ION MODE>  (2707) 
P

>  <INCHIKEY>  (2707) 
RAKQPZMEYJZGPI-LJWNYQGCSA-N

>  <FORMULA>  (2707) 
C46H64O2

>  <EXACT MASS>  (2707) 
648.490631288

>  <MW>  (2707) 
648

>  <ID>  (2707) 
JP008164

>  <CONTRIBUTOR>  (2707) 
University of Tokyo Team, {Faculty of Engineering, University of Tokyo

>  <COMMENT>  (2707) 
SMILES=C(C=C(CCC=C(CCC=C(CCC=C(CCC=C(CCC=C(C)C)C)C)C)C)C)CC(C)=CCc(c(=O)1)c(C)c(=O)c(c2)c1ccc2
InChI=InChI=1S/C46H64O2/c1-34(2)18-12-19-35(3)20-13-21-36(4)22-14-23-37(5)24-15-25-38(6)26-16-27-39(7)28-17-29-40(8)32-33-42-41(9)45(47)43-30-10-11-31-44(43)46(42)48/h10-11,18,20,22,24,26,28,30-32H,12-17,19,21,23,25,27,29,33H2,1-9H3/b35-20+,36-22+,37-24+,38-26+,39-28+,40-32+
computed SMILES=O=C1C=2C=CC=CC2C(=O)C(=C1C)CC=C(C)CCC=C(C)CCC=C(C)CCC=C(C)CCC=C(C)CCC=C(C)CCC=C(C)C
accession=JP008164
date=2016.01.19 (Created 2008.10.21, modified 2011.05.06)
author=NARA WOMEN'S UNIVERSITY
license=CC BY-NC-SA
exact mass=648.49063
ionization energy=70 eV
ion type=[M]+*
computed spectral entropy=4.377124901313419
computed normalized entropy=0.8456333621432747
SPLASH=splash10-016r-8961000000-9f4b60b646775c88a22c
submitter=submitter = University of Tokyo Team (Faculty of Engineering, University of Tokyo)
MoNA Rating=3.75

>  <NUM PEAKS>  (2707) 
177

>  <MASS SPECTRAL PEAKS>  (2707) 
39 2.62
40 5.18
41 14.8
42 1.3
43 9.14
44 1.04
53 5.4
54 1.3
55 10.37
56 0.92
57 2.86
65 1.18
67 11.62
68 19.08
69 99.99
70 5.84
71 1.22
76 1.05
77 4.07
78 1.02
79 6.32
80 2.89
81 57.75
82 5.62
83 4.85
91 5.42
92 2.44
93 20.5
94 4.92
95 22.96
96 2.97
97 2.8
104 1.26
105 8.15
106 1.76
107 13.14
108 3.7
109 16.51
110 1.67
111 1.91
115 1.88
117 1.07
119 7.09
120 2.76
121 20.73
122 7.28
123 11.84
124 1.76
127 1.01
128 1.43
129 1.35
131 1.52
132 0.99
133 8.84
134 5.09
135 29.86
136 9.67
137 14.56
138 1.63
141 1.28
143 0.89
145 3.12
146 1.39
147 9.9
148 4.24
149 8.94
150 1.71
151 0.85
152 1.25
153 1.19
157 2.12
158 0.96
159 4.55
160 1.49
161 8.41
162 2.47
163 3.79
165 1.67
171 1.72
172 0.91
173 3.35
174 1.57
175 5.74
176 1.62
177 3.31
178 1.4
179 1.48
181 2.97
185 1.26
186 9.65
187 27.94
188 4.85
189 10.28
190 3.48
191 3.69
192 1.06
193 1.68
195 3.13
196 2.75
197 6.86
198 4.59
199 3.47
200 1.23
201 3.9
202 1.86
203 6.4
204 8.25
205 2.59
209 2.4
210 2.4
211 3.31
212 1.25
213 2.2
215 2.77
217 1.77
221 2.63
222 1.65
223 3.42
224 11.35
225 83.88
226 19.42
227 13.87
228 2.75
229 1.32
237 1.14
238 2.97
239 17.96
240 12.86
241 3.3
242 2.59
243 1.69
251 2.23
252 3.37
253 3.1
254 1.38
255 1.17
257 2.7
258 0.94
259 1.46
265 6.23
266 2.67
267 1.92
269 1.14
271 2.16
272 2.94
273 1.36
279 1.14
291 1.6
292 1.05
293 1.89
294 1.77
307 7.87
308 8.16
309 2.18
310 1.73
320 1.21
322 1.14
325 1.59
333 1.09
339 1.26
340 2.31
375 3.14
376 5.04
378 1.52
388 1.1
390 1.28
409 2.51
430 1.77
443 2.79
444 2.14
461 1.03
462 0.86
498 1.27
511 3.04
512 1.54
579 1.43
580 0.92

>  <PREDICTED SPECTRUM>  (2707) 
0 3
26 13
27 20
28 7
29 87
39 25
40 12
41 412
43 103
44 46
50 3
51 9
53 138
54 6
55 292
56 38
57 91
58 48
59 28
60 23
67 267
68 204
69 857
70 130
71 20
75 16
77 112
79 218
80 81
81 588
82 131
83 124
84 57
91 80
92 11
93 175
94 48
95 304
96 67
97 119
99 102
102 16
103 80
104 92
105 194
106 149
107 274
108 122
109 383
110 148
111 180
112 97
113 80
114 64
115 219
116 176
117 102
118 31
119 190
120 207
121 375
122 135
123 223
124 74
125 77
127 110
128 172
129 151
130 70
131 124
132 49
133 161
134 144
135 264
136 179
137 190
138 47
139 141
141 151
142 39
143 92
144 54
145 115
146 17
147 263
148 121
149 172
150 96
151 203
152 144
153 113
154 207
155 168
156 90
157 99
158 109
159 142
160 83
161 313
162 137
163 81
164 82
165 107
166 74
167 119
168 176
169 157
170 114
171 141
172 72
173 177
174 108
175 167
176 133
177 190
178 161
179 73
180 67
181 135
182 168
183 168
184 159
185 106
186 351
187 495
188 315
189 461
190 258
191 247
192 84
193 145
194 69
195 122
196 159
197 174
198 195
199 68
200 157
201 373
202 233
203 414
204 391
205 241
206 117
207 112
208 144
209 132
210 31
211 174
212 180
213 207
214 147
215 170
216 80
217 165
218 72
219 103
220 110
221 228
222 184
223 266
224 472
225 968
226 452
227 402
228 86
229 139
230 126
231 124
232 63
233 74
234 69
235 68
236 105
237 115
238 322
239 601
240 437
241 228
242 121
243 61
244 89
245 45
246 52
247 79
248 81
249 80
250 88
251 76
252 188
253 132
254 112
255 90
256 104
257 109
258 86
259 83
260 60
261 72
262 4
263 92
264 119
265 232
266 180
267 133
268 70
269 97
270 85
271 221
272 173
273 64
277 85
278 137
279 117
280 93
281 141
282 93
283 104
284 165
285 38
286 25
288 4
289 52
292 26
293 112
294 100
295 121
296 125
297 105
298 53
301 7
305 94
306 6
307 298
308 273
309 218
310 120
311 85
315 11
319 55
320 35
321 58
322 65
323 69
324 133
325 134
326 79
331 15
332 80
333 93
335 3
337 50
338 29
339 78
340 150
341 97
342 12
347 40
350 47
351 7
352 35
353 58
354 42
357 37
359 24
361 40
362 67
363 4
365 34
372 34
373 71
374 22
375 233
376 274
377 98
378 122
380 1
384 47
386 5
388 58
389 22
390 41
391 8
393 22
398 24
407 19
408 68
409 30
422 4
423 51
425 17
427 8
428 17
429 22
430 114
431 13
432 13
442 13
443 175
444 164
445 126
446 153
454 0
461 69
462 15
468 32
469 72
470 11
497 37
498 135
499 16
500 11
501 8
511 210
512 126
513 3
530 8
543 34
546 7
547 19
554 0
556 5
579 137
580 111
613 24
631 1
632 27
633 193
634 76
646 224
647 15
648 999
649 777
650 545
651 277
652 14

$$$$

     RDKit          2D

 43 44  0  0  0  0  0  0  0  0999 V2000
   33.0369   -0.7550    0.0000 C   0  0  0  0  0  0  0  0  0  0  0  0
   31.7375   -3.0048    0.0000 C   0  0  0  0  0  0  0  0  0  0  0  0
   26.5414   -3.0040    0.0000 C   0  0  0  0  0  0  0  0  0  0  0  0
   21.3452   -3.0031    0.0000 C   0  0  0  0  0  0  0  0  0  0  0  0
   16.1491   -3.0023    0.0000 C   0  0  0  0  0  0  0  0  0  0  0  0
   10.9529   -3.0015    0.0000 C   0  0  0  0  0  0  0  0  0  0  0  0
    5.7568   -3.0006    0.0000 C   0  0  0  0  0  0  0  0  0  0  0  0
    3.1589    1.5002    0.0000 C   0  0  0  0  0  0  0  0  0  0  0  0
   -3.3400    0.7500    0.0000 C   0  0  0  0  0  0  0  0  0  0  0  0
   -3.3400   -0.7500    0.0000 C   0  0  0  0  0  0  0  0  0  0  0  0
   29.1397   -1.5044    0.0000 C   0  0  0  0  0  0  0  0  0  0  0  0
   23.9435   -1.5035    0.0000 C   0  0  0  0  0  0  0  0  0  0  0  0
   18.7474   -1.5027    0.0000 C   0  0  0  0  0  0  0  0  0  0  0  0
   13.5512   -1.5019    0.0000 C   0  0  0  0  0  0  0  0  0  0  0  0
    8.3551   -1.5010    0.0000 C   0  0  0  0  0  0  0  0  0  0  0  0
   30.4388   -0.7546    0.0000 C   0  0  0  0  0  0  0  0  0  0  0  0
   27.8408   -0.7542    0.0000 C   0  0  0  0  0  0  0  0  0  0  0  0
   25.2427   -0.7537    0.0000 C   0  0  0  0  0  0  0  0  0  0  0  0
   22.6446   -0.7533    0.0000 C   0  0  0  0  0  0  0  0  0  0  0  0
   20.0465   -0.7529    0.0000 C   0  0  0  0  0  0  0  0  0  0  0  0
   17.4485   -0.7525    0.0000 C   0  0  0  0  0  0  0  0  0  0  0  0
   14.8504   -0.7521    0.0000 C   0  0  0  0  0  0  0  0  0  0  0  0
   12.2523   -0.7517    0.0000 C   0  0  0  0  0  0  0  0  0  0  0  0
    9.6542   -0.7512    0.0000 C   0  0  0  0  0  0  0  0  0  0  0  0
    7.0562   -0.7508    0.0000 C   0  0  0  0  0  0  0  0  0  0  0  0
   -2.0400    1.5000    0.0000 C   0  0  0  0  0  0  0  0  0  0  0  0
   -2.0400   -1.5000    0.0000 C   0  0  0  0  0  0  0  0  0  0  0  0
    4.4581   -0.7504    0.0000 C   0  0  0  0  0  0  0  0  0  0  0  0
    3.1589   -1.5002    0.0000 C   0  0  0  0  0  0  0  0  0  0  0  0
   31.7378   -1.5048    0.0000 C   0  0  0  0  0  0  0  0  0  0  0  0
   26.5416   -1.5040    0.0000 C   0  0  0  0  0  0  0  0  0  0  0  0
   21.3455   -1.5031    0.0000 C   0  0  0  0  0  0  0  0  0  0  0  0
   16.1493   -1.5023    0.0000 C   0  0  0  0  0  0  0  0  0  0  0  0
   10.9531   -1.5015    0.0000 C   0  0  0  0  0  0  0  0  0  0  0  0
    5.7570   -1.5006    0.0000 C   0  0  0  0  0  0  0  0  0  0  0  0
    1.8600    0.7500    0.0000 C   0  0  0  0  0  0  0  0  0  0  0  0
    1.8600   -0.7500    0.0000 C   0  0  0  0  0  0  0  0  0  0  0  0
   -0.7400    0.7500    0.0000 C   0  0  0  0  0  0  0  0  0  0  0  0
   -0.7400   -0.7500    0.0000 C   0  0  0  0  0  0  0  0  0  0  0  0
    0.5600    1.5000    0.0000 C   0  0  0  0  0  0  0  0  0  0  0  0
    0.5600   -1.5000    0.0000 C   0  0  0  0  0  0  0  0  0  0  0  0
    0.5600    3.0000    0.0000 O   0  0  0  0  0  0  0  0  0  0  0  0
    0.5600   -3.0000    0.0000 O   0  0  0  0  0  0  0  0  0  0  0  0
 10  9  2  0
 16 11  1  0
 17 11  1  0
 18 12  1  0
 19 12  1  0
 20 13  1  0
 21 13  1  0
 22 14  1  0
 23 14  1  0
 24 15  1  0
 25 15  1  0
 26  9  1  0
 27 10  1  0
 29 28  1  0
 30  1  1  0
 30  2  1  0
 30 16  2  0
 31  3  1  0
 31 17  1  0
 18 31  2  0
 32  4  1  0
 32 19  1  0
 20 32  2  0
 33  5  1  0
 33 21  1  0
 22 33  2  0
 34  6  1  0
 34 23  1  0
 24 34  2  0
 35  7  1  0
 35 25  1  0
 28 35  2  0
 36  8  1  0
 37 29  1  0
 37 36  2  0
 38 26  2  0
 39 27  2  0
 39 38  1  0
 40 36  1  0
 40 38  1  0
 41 37  1  0
 41 39  1  0
 42 40  2  0
 43 41  2  0
M  END
>  <NAME>  (2708) 
MENAQUINONE-6

>  <SYNONYMS>  (2708) 


>  <SPECTRUM TYPE>  (2708) 
MS1

>  <INSTRUMENT TYPE>  (2708) 
EI-B

>  <INSTRUMENT>  (2708) 
HITACHI M-80

>  <ION MODE>  (2708) 
P

>  <INCHIKEY>  (2708) 
PFRQBZFETXBLTP-RCIYGOBDSA-N

>  <FORMULA>  (2708) 
C41H56O2

>  <EXACT MASS>  (2708) 
580.4280310319999

>  <MW>  (2708) 
580

>  <ID>  (2708) 
JP008163

>  <CONTRIBUTOR>  (2708) 
University of Tokyo Team, {Faculty of Engineering, University of Tokyo

>  <COMMENT>  (2708) 
SMILES=C(CCC(C)=CCc(c2=O)c(c(=O)c(c21)cccc1)C)=C(C)CCC=C(CCC=C(CCC=C(C)CCC=C(C)C)C)C
InChI=InChI=1S/C41H56O2/c1-30(2)16-11-17-31(3)18-12-19-32(4)20-13-21-33(5)22-14-23-34(6)24-15-25-35(7)28-29-37-36(8)40(42)38-26-9-10-27-39(38)41(37)43/h9-10,16,18,20,22,24,26-28H,11-15,17,19,21,23,25,29H2,1-8H3/b31-18+,32-20+,33-22+,34-24+,35-28+
computed SMILES=O=C1C=2C=CC=CC2C(=O)C(=C1C)CC=C(C)CCC=C(C)CCC=C(C)CCC=C(C)CCC=C(C)CCC=C(C)C
accession=JP008163
date=2016.01.19 (Created 2008.10.21, modified 2011.05.06)
author=NARA WOMEN'S UNIVERSITY
license=CC BY-NC-SA
exact mass=580.42803
ionization energy=70 eV
ion type=[M]+*
computed spectral entropy=4.2743441058866445
computed normalized entropy=0.8361412982288845
SPLASH=splash10-003r-7891050000-fb45abd0445fd13b3287
submitter=submitter = University of Tokyo Team (Faculty of Engineering, University of Tokyo)
MoNA Rating=3.75

>  <NUM PEAKS>  (2708) 
166

>  <MASS SPECTRAL PEAKS>  (2708) 
39 1.09
40 0.95
41 13.97
43 3.69
53 3.99
55 6.24
67 9.21
68 14.38
69 90.68
70 4.22
77 3.46
79 5.75
80 2.61
81 44.38
82 3.32
83 1.23
91 3.9
92 1.65
93 15.17
94 3.4
95 15.31
104 1.03
105 5.93
106 1.06
107 12.19
108 2.82
109 11.22
115 1.6
119 4.66
120 1.99
121 16.3
122 6.68
123 9.09
128 1.46
129 1.07
133 6.96
134 4.48
135 22.27
136 9.79
137 11.64
138 1.16
141 1.35
145 1.93
147 8.41
148 3.54
149 7.22
150 1.56
152 1.23
153 1.31
157 1.88
159 3.67
160 1.13
161 8.1
162 1.91
163 3.07
165 1.76
171 1.91
173 2.78
174 1.91
175 5.01
176 1.6
177 2.95
178 2.35
179 1.57
181 3.96
182 1.35
185 1.28
186 12.01
187 29.46
188 5.62
189 11.13
190 3.57
191 3.87
192 1.23
193 2.02
194 1.04
195 3.88
196 3.61
197 8.85
198 5.45
199 3.78
200 1.68
201 4.92
202 2.18
203 7.03
204 10.01
205 2.77
209 3.04
210 2.98
211 4.08
212 1.5
213 2.48
215 2.52
217 1.48
221 3.5
222 1.91
223 3.78
224 15.41
225 86.2
226 18.66
227 19.3
228 3.48
229 1.52
237 1.57
238 3.93
239 23.45
240 16.96
241 4.22
242 2.74
243 1.71
251 2.8
252 4.48
253 3.74
254 1.91
255 1.32
257 3.63
258 1.2
259 1.52
264 1.04
265 8.25
266 3.06
267 2.43
271 2.7
272 3.16
273 1.38
279 1.21
289 1.14
291 2.1
292 1.47
293 2.71
294 2
295 1.01
307 10.99
308 10.29
309 2.52
310 2.22
320 1.7
322 1.5
325 1.27
333 1.56
340 2.39
362 1.76
375 4.95
376 4.92
377 1.36
378 1.79
388 1.66
390 1.07
393 2.42
394 1.59
430 2.34
443 5.14
444 3.66
445 1.06
446 0.99
456 1.02
498 1.81
511 4.31
512 2.03
565 2.82
566 1.28
578 1.58
580 99.99
581 44.97
582 12.8
583 2.7

>  <PREDICTED SPECTRUM>  (2708) 
26 3
27 35
29 108
39 56
40 41
41 518
42 144
43 206
44 81
45 40
47 36
50 15
51 27
52 10
53 170
54 112
55 323
56 62
57 104
58 82
59 154
60 77
66 31
67 339
68 247
69 952
70 170
71 64
73 82
74 5
75 42
77 171
78 30
79 255
80 144
81 639
82 155
83 136
84 82
85 25
87 29
91 120
92 42
93 237
94 158
95 373
96 72
97 86
99 54
102 19
103 51
104 44
105 209
106 137
107 313
108 129
109 444
110 130
111 182
112 42
113 66
114 66
115 134
116 94
117 40
119 218
120 222
121 388
122 135
123 277
124 83
125 70
127 24
128 52
129 112
130 41
131 119
132 66
133 218
134 198
135 281
136 218
137 246
138 67
139 93
141 140
144 52
145 74
146 21
147 292
148 126
149 234
150 93
151 208
152 121
153 199
154 169
155 94
157 105
158 111
159 147
160 79
161 319
162 161
163 102
164 83
165 162
166 85
167 80
168 128
169 159
170 127
171 181
172 103
173 205
174 132
175 182
176 146
177 156
178 180
179 149
180 96
181 167
182 107
183 107
184 142
185 111
186 385
187 485
188 309
189 429
190 232
191 199
192 70
193 141
194 0
195 204
196 182
197 192
198 223
199 110
200 139
201 309
202 182
203 385
204 380
205 222
206 51
207 70
208 180
209 121
210 191
211 287
212 182
213 230
214 143
215 153
216 75
217 125
218 55
220 54
221 101
222 91
223 210
224 454
225 948
226 440
227 420
228 188
229 175
230 71
232 5
233 50
234 63
235 32
236 35
237 171
238 331
239 623
240 446
241 230
242 144
243 109
244 8
245 25
246 14
247 28
248 79
249 32
250 50
251 206
252 221
253 233
254 120
255 98
256 147
257 161
258 102
259 1
260 11
261 35
262 19
263 104
264 131
265 216
266 161
267 140
268 7
269 130
270 126
271 199
272 162
273 71
277 3
278 22
279 102
280 37
281 7
282 69
284 124
285 90
286 81
287 14
288 40
289 58
290 49
291 153
292 68
293 95
294 114
295 138
297 40
298 11
305 75
306 29
307 271
308 268
309 205
310 113
315 0
316 6
320 92
321 16
322 95
323 27
325 64
326 6
330 3
331 52
332 24
333 102
334 5
336 0
340 134
341 85
346 31
347 9
348 29
349 34
350 37
359 0
361 116
362 90
373 18
374 33
375 258
376 239
377 100
378 111
387 2
388 38
389 29
390 6
392 9
393 64
394 29
406 4
408 55
423 39
425 17
429 9
430 137
432 24
433 5
443 158
444 174
445 125
446 144
453 0
454 21
459 2
461 31
462 1
472 4
473 21
499 6
511 180
512 112
554 0
562 12
565 176
566 61
567 8
578 141
579 160
580 999
581 762
582 507
583 188
584 0

$$$$

     RDKit          2D

 58 59  0  0  0  0  0  0  0  0999 V2000
   48.6254   -0.7575    0.0000 C   0  0  0  0  0  0  0  0  0  0  0  0
   47.3260   -3.0073    0.0000 C   0  0  0  0  0  0  0  0  0  0  0  0
   42.1298   -3.0065    0.0000 C   0  0  0  0  0  0  0  0  0  0  0  0
   36.9337   -3.0056    0.0000 C   0  0  0  0  0  0  0  0  0  0  0  0
   31.7375   -3.0048    0.0000 C   0  0  0  0  0  0  0  0  0  0  0  0
   26.5414   -3.0040    0.0000 C   0  0  0  0  0  0  0  0  0  0  0  0
   21.3452   -3.0031    0.0000 C   0  0  0  0  0  0  0  0  0  0  0  0
   16.1491   -3.0023    0.0000 C   0  0  0  0  0  0  0  0  0  0  0  0
   10.9529   -3.0015    0.0000 C   0  0  0  0  0  0  0  0  0  0  0  0
    5.7568   -3.0006    0.0000 C   0  0  0  0  0  0  0  0  0  0  0  0
    3.1589    1.5002    0.0000 C   0  0  0  0  0  0  0  0  0  0  0  0
   -3.3400    0.7500    0.0000 C   0  0  0  0  0  0  0  0  0  0  0  0
   -3.3400   -0.7500    0.0000 C   0  0  0  0  0  0  0  0  0  0  0  0
   44.7281   -1.5069    0.0000 C   0  0  0  0  0  0  0  0  0  0  0  0
   39.5320   -1.5060    0.0000 C   0  0  0  0  0  0  0  0  0  0  0  0
   34.3358   -1.5052    0.0000 C   0  0  0  0  0  0  0  0  0  0  0  0
   29.1397   -1.5044    0.0000 C   0  0  0  0  0  0  0  0  0  0  0  0
   23.9435   -1.5035    0.0000 C   0  0  0  0  0  0  0  0  0  0  0  0
   18.7474   -1.5027    0.0000 C   0  0  0  0  0  0  0  0  0  0  0  0
   13.5512   -1.5019    0.0000 C   0  0  0  0  0  0  0  0  0  0  0  0
    8.3551   -1.5010    0.0000 C   0  0  0  0  0  0  0  0  0  0  0  0
   46.0273   -0.7571    0.0000 C   0  0  0  0  0  0  0  0  0  0  0  0
   43.4292   -0.7567    0.0000 C   0  0  0  0  0  0  0  0  0  0  0  0
   40.8311   -0.7562    0.0000 C   0  0  0  0  0  0  0  0  0  0  0  0
   38.2331   -0.7558    0.0000 C   0  0  0  0  0  0  0  0  0  0  0  0
   35.6350   -0.7554    0.0000 C   0  0  0  0  0  0  0  0  0  0  0  0
   33.0369   -0.7550    0.0000 C   0  0  0  0  0  0  0  0  0  0  0  0
   30.4388   -0.7546    0.0000 C   0  0  0  0  0  0  0  0  0  0  0  0
   27.8408   -0.7542    0.0000 C   0  0  0  0  0  0  0  0  0  0  0  0
   25.2427   -0.7537    0.0000 C   0  0  0  0  0  0  0  0  0  0  0  0
   22.6446   -0.7533    0.0000 C   0  0  0  0  0  0  0  0  0  0  0  0
   20.0465   -0.7529    0.0000 C   0  0  0  0  0  0  0  0  0  0  0  0
   17.4485   -0.7525    0.0000 C   0  0  0  0  0  0  0  0  0  0  0  0
   14.8504   -0.7521    0.0000 C   0  0  0  0  0  0  0  0  0  0  0  0
   12.2523   -0.7517    0.0000 C   0  0  0  0  0  0  0  0  0  0  0  0
    9.6542   -0.7512    0.0000 C   0  0  0  0  0  0  0  0  0  0  0  0
    7.0562   -0.7508    0.0000 C   0  0  0  0  0  0  0  0  0  0  0  0
   -2.0400    1.5000    0.0000 C   0  0  0  0  0  0  0  0  0  0  0  0
   -2.0400   -1.5000    0.0000 C   0  0  0  0  0  0  0  0  0  0  0  0
    4.4581   -0.7504    0.0000 C   0  0  0  0  0  0  0  0  0  0  0  0
    3.1589   -1.5002    0.0000 C   0  0  0  0  0  0  0  0  0  0  0  0
   47.3262   -1.5073    0.0000 C   0  0  0  0  0  0  0  0  0  0  0  0
   42.1301   -1.5065    0.0000 C   0  0  0  0  0  0  0  0  0  0  0  0
   36.9339   -1.5056    0.0000 C   0  0  0  0  0  0  0  0  0  0  0  0
   31.7378   -1.5048    0.0000 C   0  0  0  0  0  0  0  0  0  0  0  0
   26.5416   -1.5040    0.0000 C   0  0  0  0  0  0  0  0  0  0  0  0
   21.3455   -1.5031    0.0000 C   0  0  0  0  0  0  0  0  0  0  0  0
   16.1493   -1.5023    0.0000 C   0  0  0  0  0  0  0  0  0  0  0  0
   10.9531   -1.5015    0.0000 C   0  0  0  0  0  0  0  0  0  0  0  0
    5.7570   -1.5006    0.0000 C   0  0  0  0  0  0  0  0  0  0  0  0
    1.8600    0.7500    0.0000 C   0  0  0  0  0  0  0  0  0  0  0  0
    1.8600   -0.7500    0.0000 C   0  0  0  0  0  0  0  0  0  0  0  0
   -0.7400    0.7500    0.0000 C   0  0  0  0  0  0  0  0  0  0  0  0
   -0.7400   -0.7500    0.0000 C   0  0  0  0  0  0  0  0  0  0  0  0
    0.5600    1.5000    0.0000 C   0  0  0  0  0  0  0  0  0  0  0  0
    0.5600   -1.5000    0.0000 C   0  0  0  0  0  0  0  0  0  0  0  0
    0.5600    3.0000    0.0000 O   0  0  0  0  0  0  0  0  0  0  0  0
    0.5600   -3.0000    0.0000 O   0  0  0  0  0  0  0  0  0  0  0  0
 13 12  2  0
 22 14  1  0
 23 14  1  0
 24 15  1  0
 25 15  1  0
 26 16  1  0
 27 16  1  0
 28 17  1  0
 29 17  1  0
 30 18  1  0
 31 18  1  0
 32 19  1  0
 33 19  1  0
 34 20  1  0
 35 20  1  0
 36 21  1  0
 37 21  1  0
 38 12  1  0
 39 13  1  0
 41 40  1  0
 42  1  1  0
 42  2  1  0
 42 22  2  0
 43  3  1  0
 43 23  1  0
 24 43  2  0
 44  4  1  0
 44 25  1  0
 26 44  2  0
 45  5  1  0
 45 27  1  0
 28 45  2  0
 46  6  1  0
 46 29  1  0
 30 46  2  0
 47  7  1  0
 47 31  1  0
 32 47  2  0
 48  8  1  0
 48 33  1  0
 34 48  2  0
 49  9  1  0
 49 35  1  0
 36 49  2  0
 50 10  1  0
 50 37  1  0
 40 50  2  0
 51 11  1  0
 52 41  1  0
 52 51  2  0
 53 38  2  0
 54 39  2  0
 54 53  1  0
 55 51  1  0
 55 53  1  0
 56 52  1  0
 56 54  1  0
 57 55  2  0
 58 56  2  0
M  END
>  <NAME>  (2709) 
MENAQUINONE-9

>  <SYNONYMS>  (2709) 


>  <SPECTRUM TYPE>  (2709) 
MS1

>  <INSTRUMENT TYPE>  (2709) 
EI-B

>  <INSTRUMENT>  (2709) 
HITACHI M-80

>  <ION MODE>  (2709) 
P

>  <INCHIKEY>  (2709) 
WCRXHNIUHQUASO-UVZVDVBNSA-N

>  <FORMULA>  (2709) 
C56H80O2

>  <EXACT MASS>  (2709) 
784.6158318

>  <MW>  (2709) 
784

>  <ID>  (2709) 
JP008162

>  <CONTRIBUTOR>  (2709) 
University of Tokyo Team, {Faculty of Engineering, University of Tokyo

>  <COMMENT>  (2709) 
SMILES=CC(=CCCC(=CCCC(C)=CCCC(C)=CCCC(C)=CCCC(C)=CCCC(C)=CCc(c1C)c(=O)c(c2)c(ccc2)c(=O)1)C)CCC=C(C)CCC=C(C)C
InChI=InChI=1S/C56H80O2/c1-42(2)22-14-23-43(3)24-15-25-44(4)26-16-27-45(5)28-17-29-46(6)30-18-31-47(7)32-19-33-48(8)34-20-35-49(9)36-21-37-50(10)40-41-52-51(11)55(57)53-38-12-13-39-54(53)56(52)58/h12-13,22,24,26,28,30,32,34,36,38-40H,14-21,23,25,27,29,31,33,35,37,41H2,1-11H3/b43-24+,44-26+,45-28+,46-30+,47-32+,48-34+,49-36+,50-40+
computed SMILES=O=C1C=2C=CC=CC2C(=O)C(=C1C)CC=C(C)CCC=C(C)CCC=C(C)CCC=C(C)CCC=C(C)CCC=C(C)CCC=C(C)CCC=C(C)CCC=C(C)C
accession=JP008162
date=2016.01.19 (Created 2008.10.21, modified 2011.05.06)
author=NARA WOMEN'S UNIVERSITY
license=CC BY-NC-SA
exact mass=784.61583
ionization energy=70 eV
ion type=[M]+*
computed spectral entropy=4.173720788971209
computed normalized entropy=0.8340858462074594
SPLASH=splash10-017i-9750000100-4b7aa019ba23f6cdfc8b
submitter=submitter = University of Tokyo Team (Faculty of Engineering, University of Tokyo)
MoNA Rating=3.75

>  <NUM PEAKS>  (2709) 
149

>  <MASS SPECTRAL PEAKS>  (2709) 
39 4.27
41 15.88
42 1.58
43 6.94
53 5.59
55 12.7
57 2.85
65 1.32
67 12.1
68 19.41
69 99.99
70 6
71 1.03
76 1.06
77 3.69
79 8.14
80 3.23
81 63.3
82 5.5
83 4.1
91 5.45
92 2.12
93 22.26
94 5.41
95 23.59
96 2.34
97 2.17
104 1.17
105 8.39
106 1.99
107 17.61
108 4.54
109 15.97
110 1.42
111 2.14
115 1.93
119 7.42
120 2.34
121 19.81
122 5.76
123 12.34
124 1.45
128 1.3
129 1.3
131 1.6
133 7.77
134 4.45
135 26.48
136 7.56
137 13.41
138 1.56
141 1.34
145 2.86
146 1.22
147 9.33
148 4.04
149 8.8
150 1.54
152 1.01
157 1.85
159 3.68
160 1.23
161 8.54
162 2.21
163 4.67
165 2.36
166 0.95
171 1.51
173 3.1
174 1.18
175 4.2
176 1.25
177 2.83
178 1.68
181 2.28
185 1.04
186 6.18
187 17.87
188 3.22
189 7.59
190 2.31
191 2.83
193 1.52
194 1.02
195 2.45
196 2.46
197 5.69
198 2.95
199 2.51
200 1.11
201 3.5
202 1.56
203 5.21
204 4.02
205 2.02
209 2.14
210 1.6
211 2.6
213 1.46
215 1.82
217 1.71
221 2.2
222 2.17
223 2.5
224 8.88
225 85.27
226 16.1
227 9.1
228 1.77
229 1.37
237 1.17
238 1.94
239 10.83
240 8.46
241 2.65
242 1.47
243 1.22
251 1.96
252 1.97
253 2.17
257 1.8
259 1
265 4.28
266 1.61
267 1.17
271 2
272 1.62
291 1.22
293 1.11
305 1.09
307 4.33
308 4.67
309 1.31
310 1.24
339 1
340 1.27
375 2.03
376 1.95
409 1.1
443 1.59
444 1.63
511 1.38
513 1.24
769 1.08
782 1.68
784 33.8
785 15.01
786 5.79
787 3.01

>  <PREDICTED SPECTRUM>  (2709) 
0 4
18 5
25 8
26 37
27 347
28 62
29 136
39 65
41 321
42 110
43 181
44 109
45 1
50 57
51 62
52 41
53 121
54 34
55 318
56 87
57 153
58 54
60 0
66 6
67 270
68 246
69 755
70 159
71 59
75 28
77 124
78 18
79 224
80 110
81 537
82 187
83 147
84 46
85 38
91 196
92 33
93 208
94 129
95 319
96 106
97 136
99 30
103 20
104 48
105 264
106 124
107 313
108 156
109 350
110 148
111 147
113 47
115 141
116 55
117 11
118 33
119 310
120 245
121 389
122 170
123 207
124 90
127 70
128 152
129 138
130 18
131 119
132 12
133 145
134 107
135 332
136 214
137 255
138 14
139 87
141 178
142 41
143 110
144 11
145 86
147 229
148 88
149 155
150 69
151 218
152 5
153 24
155 21
156 39
157 319
158 185
159 209
160 69
161 336
162 50
163 110
165 166
166 70
167 51
169 70
170 25
171 123
172 42
173 109
174 126
175 153
176 134
177 229
178 185
179 17
180 31
181 100
183 23
185 81
186 224
187 469
188 265
189 520
190 257
191 131
192 64
193 131
194 65
195 125
196 92
197 173
198 164
199 156
200 23
201 330
202 227
203 376
204 410
205 164
206 5
209 52
210 46
211 16
212 74
213 167
214 107
215 133
216 10
217 157
219 46
220 88
221 125
222 165
223 225
224 397
225 876
226 384
227 322
228 72
229 95
230 36
231 21
233 68
234 72
235 138
236 167
237 214
238 244
239 547
240 385
241 295
242 182
243 142
244 61
245 73
246 83
247 108
248 38
249 91
250 77
251 169
252 197
253 237
254 140
255 155
256 111
257 134
258 73
259 90
260 65
261 87
262 145
263 148
264 166
265 324
266 197
267 202
268 144
269 68
270 69
271 299
272 178
273 153
274 36
275 86
276 41
277 146
278 109
279 153
280 94
281 77
282 100
283 66
284 138
285 68
286 75
288 46
289 122
291 221
292 97
293 280
294 131
295 127
296 67
297 58
298 69
299 56
300 42
301 62
303 46
304 17
305 192
306 10
307 274
308 217
309 193
310 144
311 70
312 41
313 36
314 72
319 61
320 80
321 82
322 80
323 18
324 71
325 90
326 58
327 62
328 94
329 71
331 14
332 11
333 159
334 63
335 63
336 25
337 117
338 102
339 130
340 187
341 120
342 78
346 82
347 50
349 117
350 73
351 41
352 64
353 11
354 45
357 52
361 115
362 45
363 47
365 27
366 8
367 68
368 59
373 101
375 247
376 244
377 68
378 116
379 66
381 10
384 28
385 12
386 57
389 34
390 11
391 46
393 17
394 12
395 15
396 40
406 18
407 74
408 128
409 114
410 10
411 17
419 12
420 29
421 48
422 55
423 70
427 5
430 77
431 80
433 61
434 40
435 22
443 182
444 172
445 55
446 145
448 20
458 36
459 3
461 79
462 8
463 20
469 40
470 30
476 17
477 16
495 2
496 6
498 30
499 33
502 26
503 12
505 14
511 174
512 118
514 5
521 16
525 5
530 23
533 31
535 5
536 11
543 48
545 6
547 48
565 50
566 68
579 74
580 139
581 80
582 68
593 4
597 0
598 27
599 77
600 0
605 30
606 3
613 50
634 23
648 121
649 27
682 80
683 10
716 45
725 16
729 22
731 54
734 29
735 33
751 50
752 27
759 1
761 1
767 21
768 9
769 134
770 7
771 11
780 4
782 170
784 999
785 203
786 221
787 155
789 6
790 17

$$$$

     RDKit          2D

 33 36  0  0  1  0  0  0  0  0999 V2000
    9.5655    7.2342    0.0000 C   0  0  0  0  0  0  0  0  0  0  0  0
   10.0746    4.6865    0.0000 C   0  0  0  0  0  0  0  0  0  0  0  0
    8.1228    2.9718    0.0000 C   0  0  0  0  0  0  0  0  0  0  0  0
    3.2009    4.6377    0.0000 C   0  0  0  0  0  0  0  0  0  0  0  0
   -8.0957   -2.8471    0.0000 C   0  0  0  0  0  0  0  0  0  0  0  0
   -1.6125    0.9400    0.0000 C   0  0  0  0  0  0  0  0  0  0  0  0
    2.4507    3.1203    0.0000 C   0  0  0  0  0  0  0  0  0  0  0  0
    8.0946    6.9403    0.0000 C   0  0  0  0  0  0  0  0  0  0  0  0
    5.6618    3.8047    0.0000 C   0  0  0  0  0  0  0  0  0  0  0  0
    6.1427    5.2256    0.0000 C   0  0  0  0  0  0  0  0  0  0  0  0
   -0.3200   -2.8400    0.0000 C   0  0  0  0  0  0  0  0  0  0  0  0
    1.0100   -2.0900    0.0000 C   0  0  0  0  0  0  0  0  0  0  0  0
    4.5500    0.8800    0.0000 C   0  0  0  0  0  0  0  0  0  0  0  0
    3.7100   -0.3100    0.0000 C   0  0  0  0  0  0  0  0  0  0  0  0
   -4.2000   -0.5600    0.0000 C   0  0  0  0  0  0  0  0  0  0  0  0
   -0.3200    1.6300    0.0000 C   0  0  0  0  0  0  0  0  0  0  0  0
   -2.8900    0.1600    0.0000 C   0  0  0  0  0  0  0  0  0  0  0  0
    1.0100    2.3900    0.0000 C   0  0  0  0  0  0  0  0  0  0  0  0
   -2.8900   -2.8400    0.0000 C   0  0  0  0  0  0  0  0  0  0  0  0
    8.6037    4.3926    0.0000 C   0  0  0  0  0  0  0  0  0  0  0  0
    4.1909    3.5108    0.0000 C   0  0  0  0  0  0  0  0  0  0  0  0
   -6.7981   -2.0947    0.0000 C   0  0  0  0  0  0  0  0  0  0  0  0
    7.6137    5.5195    0.0000 C   0  0  0  0  0  0  0  0  0  0  0  0
   -1.6200   -2.0900    0.0000 C   0  0  0  0  0  0  0  0  0  0  0  0
   -4.2000   -2.0900    0.0000 C   0  0  0  0  0  0  0  0  0  0  0  0
    1.0100   -0.5600    0.0000 C   0  0  0  0  0  0  0  0  0  0  0  0
    3.7100    2.0900    0.0000 C   0  0  0  0  0  0  0  0  0  0  0  0
    2.2800    0.1600    0.0000 C   0  0  0  0  0  0  0  0  0  0  0  0
   -0.3200    0.1600    0.0000 C   0  0  0  0  0  0  0  0  0  0  0  0
   -1.6200   -0.5600    0.0000 C   0  0  0  0  0  0  0  0  0  0  0  0
    2.2800    1.6300    0.0000 C   0  0  0  0  0  0  0  0  0  0  0  0
   -6.8008   -0.5947    0.0000 O   0  0  0  0  0  0  0  0  0  0  0  0
   -5.4977   -2.8424    0.0000 O   0  0  0  0  0  0  0  0  0  0  0  0
  8  1  1  0
 10  9  1  0
 12 11  1  0
 14 13  1  0
 17 15  1  0
 18 16  1  0
 20  2  1  0
 20  3  1  0
 21  4  1  6
 21  9  1  0
 22  5  1  0
 23  8  1  6
 23 10  1  0
 23 20  1  0
 24 11  2  0
 24 19  1  0
 25 15  1  0
 25 19  1  0
 26 12  1  6
 27 13  1  1
 27 21  1  0
 28 14  1  1
 28 26  1  0
 29 16  1  1
 29 26  1  0
 30  6  1  1
 30 17  1  0
 30 24  1  0
 30 29  1  0
 31  7  1  1
 31 18  1  0
 31 27  1  0
 31 28  1  0
 32 22  2  0
 33 22  1  0
 25 33  1  1
M  END
>  <NAME>  (2710) 
CLIONASTERYL-ACETATE

>  <SYNONYMS>  (2710) 


>  <SPECTRUM TYPE>  (2710) 
MS1

>  <INSTRUMENT TYPE>  (2710) 
EI-B

>  <INSTRUMENT>  (2710) 
HITACHI M-80

>  <ION MODE>  (2710) 
P

>  <INCHIKEY>  (2710) 
PBWOIPCULUXTNY-UMKHIFOFSA-N

>  <FORMULA>  (2710) 
C31H52O2

>  <EXACT MASS>  (2710) 
456.396730904

>  <MW>  (2710) 
456

>  <ID>  (2710) 
JP008161

>  <CONTRIBUTOR>  (2710) 
University of Tokyo Team, {Faculty of Engineering, University of Tokyo

>  <COMMENT>  (2710) 
SMILES=C(C41C)(CCC1(C(C(CC4)3[H])([H])CC=C(C3(C)2)CC([H])(CC2)OC(C)=O)[H])(C(CCC([H])(C(C)C)CC)([H])C)[H]
InChI=InChI=1S/C31H52O2/c1-8-23(20(2)3)10-9-21(4)27-13-14-28-26-12-11-24-19-25(33-22(5)32)15-17-30(24,6)29(26)16-18-31(27,28)7/h11,20-21,23,25-29H,8-10,12-19H2,1-7H3/t21-,23+,25+,26+,27-,28+,29+,30+,31-/m1/s1
computed SMILES=O=C(OC1CC2=CCC3C(CCC4(C)C(CCC34)C(C)CCC(CC)C(C)C)C2(C)CC1)C
accession=JP008161
date=2016.01.19 (Created 2008.10.21, modified 2011.05.06)
author=NARA WOMEN'S UNIVERSITY
license=CC BY-NC-SA
exact mass=456.39673
ionization energy=70 eV
ion type=[M]+*
computed spectral entropy=4.132711899096156
computed normalized entropy=0.8490359834452431
SPLASH=splash10-0005-9814000000-76622d264e21b3a06a14
submitter=submitter = University of Tokyo Team (Faculty of Engineering, University of Tokyo)
MoNA Rating=3.75

>  <NUM PEAKS>  (2710) 
130

>  <MASS SPECTRAL PEAKS>  (2710) 
15 1.32
27 2.19
29 6.05
39 1.48
41 21.16
42 7.4
43 75.82
44 1.84
53 2.52
55 26.41
56 2.67
57 27.28
61 0.92
65 1.18
67 13.44
68 1.74
69 16.59
70 1.21
71 10.8
77 4.18
78 1.45
79 12.12
80 2.14
81 27.19
82 2.41
83 5.41
84 0.85
85 10.38
91 15.32
92 3.95
93 16.19
94 4.04
95 16.62
96 1.45
97 4.27
99 1.07
103 0.92
104 1.33
105 18.76
106 6.57
107 17.88
108 6.24
109 9.13
110 1.03
111 3.43
115 1.61
116 1.07
117 6.58
118 3.51
119 11.69
120 12.46
121 11.83
122 2.95
123 4.73
125 1.28
128 1.85
129 3.99
130 2.32
131 9.9
132 2.95
133 13.47
134 3.84
135 7.83
136 1.78
137 1.88
141 1.37
142 1.49
143 9.32
144 3.88
145 22.07
146 8.18
147 27.64
148 6.34
149 5.52
150 0.82
151 0.9
155 0.98
157 4.93
158 5.16
159 10.97
160 6.75
161 7.26
162 2.09
163 4.26
169 0.92
171 2.74
172 1.28
173 3.9
174 1.52
175 2.51
176 0.88
177 2.66
183 0.89
185 2.69
186 1.12
187 1.82
189 1.05
191 1.56
197 1.35
199 3.23
200 1.59
201 2.06
212 1.05
213 9.01
214 2.91
215 1.73
227 1.32
228 2.49
229 1.56
233 1.3
234 1.63
241 1.03
254 1.64
255 10.33
256 2.2
273 1.49
274 1.33
275 7.32
276 2.1
283 1.61
287 1.19
288 7.37
289 2.42
354 1.76
381 12.01
382 3.97
395 1.18
396 99.99
397 32.29
398 5.48

>  <PREDICTED SPECTRUM>  (2710) 
17 0
26 6
27 46
29 84
39 102
40 71
41 427
42 120
43 627
44 149
45 79
46 1
49 2
50 25
51 51
52 25
53 177
54 55
55 544
56 178
57 430
58 84
59 44
60 140
61 48
63 11
65 103
66 44
67 405
68 139
69 494
70 159
71 312
72 129
73 108
74 5
77 282
78 139
79 435
80 145
81 557
82 180
83 385
84 103
85 223
86 62
87 19
91 428
92 217
93 431
94 216
95 488
96 121
97 315
98 96
99 124
100 26
101 36
102 7
103 59
104 113
105 561
106 377
107 584
108 313
109 460
110 132
111 281
112 39
113 90
114 5
115 164
116 68
117 299
118 245
119 464
120 399
121 461
122 263
123 313
124 117
125 159
126 14
127 96
128 118
129 222
130 187
131 357
132 208
133 483
134 260
135 411
136 262
137 236
138 46
139 64
141 165
142 145
143 342
144 263
145 546
146 325
147 610
148 288
149 374
150 150
151 211
152 52
153 31
154 6
155 94
156 56
157 256
158 378
159 396
160 363
161 409
162 272
163 334
164 71
165 102
166 71
167 32
168 65
169 119
170 45
171 235
172 146
173 237
174 200
175 269
176 151
177 201
178 54
179 109
180 14
181 71
183 85
184 35
185 273
186 165
187 209
188 98
189 258
190 47
191 128
192 63
193 34
194 7
197 79
199 244
200 167
201 265
202 131
203 136
204 31
205 108
206 9
207 50
208 30
209 60
211 94
212 25
213 446
214 227
215 248
216 81
217 128
218 33
219 97
220 32
221 9
225 40
226 21
227 166
228 203
229 176
230 31
231 68
232 56
233 75
234 75
235 12
239 52
240 50
241 191
242 99
243 50
244 16
245 54
247 65
248 8
249 40
253 165
254 93
255 439
256 219
257 90
258 8
259 51
260 45
261 16
267 83
268 5
269 80
270 27
273 157
274 225
275 273
276 177
281 31
282 40
283 148
284 16
287 73
288 227
289 129
290 64
291 1
292 17
297 40
302 25
310 56
315 59
327 79
338 10
339 61
352 17
353 76
354 152
357 27
358 46
367 69
368 81
381 376
382 433
383 321
384 74
385 60
394 7
395 63
396 999
397 511
398 146
441 19
442 16
456 147
457 80
458 7

$$$$

     RDKit          2D

  9  9  0  0  0  0  0  0  0  0999 V2000
   -0.7500    0.9500    0.0000 C   0  0  0  0  0  0  0  0  0  0  0  0
    0.7500    0.9500    0.0000 C   0  0  0  0  0  0  0  0  0  0  0  0
   -2.6360   -0.9453    0.0000 C   0  0  0  0  0  0  0  0  0  0  0  0
    2.6360   -0.9453    0.0000 C   0  0  0  0  0  0  0  0  0  0  0  0
   -1.2100   -0.4800    0.0000 C   0  0  0  0  0  0  0  0  0  0  0  0
    1.2100   -0.4800    0.0000 C   0  0  0  0  0  0  0  0  0  0  0  0
   -3.7520    0.0570    0.0000 O   0  0  0  0  0  0  0  0  0  0  0  0
    3.7520    0.0570    0.0000 O   0  0  0  0  0  0  0  0  0  0  0  0
   -0.0000   -1.3600    0.0000 O   0  0  0  0  0  0  0  0  0  0  0  0
  2  1  1  0
  5  1  2  0
  5  3  1  0
  6  2  2  0
  6  4  1  0
  7  3  2  0
  8  4  1  0
  9  5  1  0
  9  6  1  0
M  END
>  <NAME>  (2711) 
5-(HYDROXYMETHYL)FURFURAL

>  <SYNONYMS>  (2711) 


>  <SPECTRUM TYPE>  (2711) 
MS1

>  <INSTRUMENT TYPE>  (2711) 
EI-B

>  <INSTRUMENT>  (2711) 
HITACHI M-80

>  <ION MODE>  (2711) 
P

>  <INCHIKEY>  (2711) 
NOEGNKMFWQHSLB-UHFFFAOYSA-N

>  <FORMULA>  (2711) 
C6H6O3

>  <EXACT MASS>  (2711) 
126.03169405199999

>  <MW>  (2711) 
126

>  <ID>  (2711) 
JP008160

>  <CONTRIBUTOR>  (2711) 
University of Tokyo Team, {Faculty of Engineering, University of Tokyo

>  <COMMENT>  (2711) 
SMILES=OCc(c1)oc(C=O)c1
cas=67-47-0
InChI=InChI=1S/C6H6O3/c7-3-5-1-2-6(4-8)9-5/h1-3,8H,4H2
computed SMILES=O=CC=1OC(=CC1)CO
accession=JP008160
date=2016.01.19 (Created 2008.10.21, modified 2011.05.06)
author=NARA WOMEN'S UNIVERSITY
license=CC BY-NC-SA
exact mass=126.03169
ionization energy=70 eV
ion type=[M]+*
computed spectral entropy=3.2018061787089978
computed normalized entropy=0.7852303560067637
SPLASH=splash10-004m-9200000000-eda1f2db983cad69f22f
submitter=submitter = University of Tokyo Team (Faculty of Engineering, University of Tokyo)
MoNA Rating=3.75

>  <NUM PEAKS>  (2711) 
59

>  <MASS SPECTRAL PEAKS>  (2711) 
14 1.3
15 3.41
17 2.42
18 9.33
25 0.92
26 4.99
27 9.05
28 8.35
29 31.07
30 2.22
31 10.15
36 0.87
37 7.64
38 13.83
39 43.79
40 4.34
41 77.76
42 7.12
43 5.96
44 2.91
45 1.62
49 2.51
50 10.12
51 14.43
52 9.18
53 16.33
54 1.67
55 3.52
56 2.41
57 1.5
58 1.02
59 3.08
66 2.43
67 1.89
68 4.89
69 35.12
70 2.14
71 1.07
79 3.03
80 2.94
81 8.64
82 0.85
84 17.41
85 2.44
86 1.11
95 3.45
97 99.99
98 5.91
99 1.13
102 0.86
109 17.67
110 1.88
113 0.99
123 3
124 0.81
125 13.33
126 78.05
127 19.33
128 1.67

>  <PREDICTED SPECTRUM>  (2711) 
25 20
26 69
27 119
28 2
29 220
31 126
37 111
38 171
39 431
40 203
41 420
42 180
43 146
49 56
50 225
51 307
52 253
53 254
54 43
55 56
56 34
57 38
61 18
62 16
63 17
65 75
66 103
67 342
68 321
69 759
70 308
71 2
79 242
80 283
81 160
95 245
96 211
97 607
98 126
107 23
108 304
109 152
124 85
125 573
126 999
127 266
128 17

$$$$

     RDKit          2D

 34 36  0  0  0  0  0  0  0  0999 V2000
   19.6367  -11.1381    0.0000 C   0  0  0  0  0  0  0  0  0  0  0  0
   17.3863  -12.4364    0.0000 C   0  0  0  0  0  0  0  0  0  0  0  0
   12.8871   -9.8369    0.0000 C   0  0  0  0  0  0  0  0  0  0  0  0
    8.3879   -7.2374    0.0000 C   0  0  0  0  0  0  0  0  0  0  0  0
    3.8888   -4.6378    0.0000 C   0  0  0  0  0  0  0  0  0  0  0  0
    2.3896    2.0593    0.0000 C   0  0  0  0  0  0  0  0  0  0  0  0
   -3.5500    0.7600    0.0000 C   0  0  0  0  0  0  0  0  0  0  0  0
   -3.5500   -0.7400    0.0000 C   0  0  0  0  0  0  0  0  0  0  0  0
   15.8871   -9.8378    0.0000 C   0  0  0  0  0  0  0  0  0  0  0  0
   11.3879   -7.2383    0.0000 C   0  0  0  0  0  0  0  0  0  0  0  0
    6.8888   -4.6388    0.0000 C   0  0  0  0  0  0  0  0  0  0  0  0
   17.3871   -9.8383    0.0000 C   0  0  0  0  0  0  0  0  0  0  0  0
   15.1375   -8.5386    0.0000 C   0  0  0  0  0  0  0  0  0  0  0  0
   12.8879   -7.2388    0.0000 C   0  0  0  0  0  0  0  0  0  0  0  0
   10.6383   -5.9390    0.0000 C   0  0  0  0  0  0  0  0  0  0  0  0
    8.3888   -4.6393    0.0000 C   0  0  0  0  0  0  0  0  0  0  0  0
    6.1392   -3.3395    0.0000 C   0  0  0  0  0  0  0  0  0  0  0  0
   -2.2500    1.5100    0.0000 C   0  0  0  0  0  0  0  0  0  0  0  0
   -2.2500   -1.4900    0.0000 C   0  0  0  0  0  0  0  0  0  0  0  0
    3.8896   -2.0398    0.0000 C   0  0  0  0  0  0  0  0  0  0  0  0
    2.3896   -2.0393    0.0000 C   0  0  0  0  0  0  0  0  0  0  0  0
   18.1367  -11.1376    0.0000 C   0  0  0  0  0  0  0  0  0  0  0  0
   13.6375   -8.5381    0.0000 C   0  0  0  0  0  0  0  0  0  0  0  0
    9.1383   -5.9386    0.0000 C   0  0  0  0  0  0  0  0  0  0  0  0
    4.6392   -3.3390    0.0000 C   0  0  0  0  0  0  0  0  0  0  0  0
   -0.9500    0.7600    0.0000 C   0  0  0  0  0  0  0  0  0  0  0  0
   -0.9500   -0.7400    0.0000 C   0  0  0  0  0  0  0  0  0  0  0  0
    0.3400    1.5100    0.0000 C   0  0  0  0  0  0  0  0  0  0  0  0
    0.3400   -1.4900    0.0000 C   0  0  0  0  0  0  0  0  0  0  0  0
    1.6400    0.7600    0.0000 C   0  0  0  0  0  0  0  0  0  0  0  0
    1.6400   -0.7400    0.0000 C   0  0  0  0  0  0  0  0  0  0  0  0
    0.3375    3.0100    0.0000 O   0  0  0  0  0  0  0  0  0  0  0  0
    0.3375   -2.9900    0.0000 O   0  0  0  0  0  0  0  0  0  0  0  0
    2.9400    0.0100    0.0000 O   0  0  0  0  0  0  0  0  0  0  0  0
  8  7  2  0
 12  9  1  0
 13  9  1  0
 14 10  1  0
 15 10  1  0
 16 11  1  0
 17 11  1  0
 18  7  1  0
 19  8  1  0
 21 20  1  0
 22  1  1  0
 22  2  1  0
 22 12  1  0
 23  3  1  0
 23 13  1  0
 23 14  1  0
 24  4  1  0
 24 15  1  0
 24 16  1  0
 25  5  1  0
 25 17  1  0
 20 25  2  0
 26 18  2  0
 27 19  2  0
 27 26  1  0
 28 26  1  0
 29 27  1  0
 30  6  1  0
 30 28  1  0
 31 21  1  0
 31 29  1  0
 31 30  1  0
 32 28  2  0
 33 29  2  0
 34 30  1  0
 34 31  1  0
M  END
>  <NAME>  (2712) 
PHYLLOQUINONE OXIDE

>  <SYNONYMS>  (2712) 
2-METHYL-3-PHYTYL-1,4-NAPHTHOQUINONE-2,3-OXIDE

>  <SPECTRUM TYPE>  (2712) 
MS1

>  <INSTRUMENT TYPE>  (2712) 
EI-B

>  <INSTRUMENT>  (2712) 
HITACHI M-80

>  <ION MODE>  (2712) 
P

>  <INCHIKEY>  (2712) 
KUTXFBIHPWIDJQ-LKUDQCMESA-N

>  <FORMULA>  (2712) 
C31H46O3

>  <EXACT MASS>  (2712) 
466.34469533199996

>  <MW>  (2712) 
466

>  <ID>  (2712) 
JP008159

>  <CONTRIBUTOR>  (2712) 
University of Tokyo Team, {Faculty of Engineering, University of Tokyo

>  <COMMENT>  (2712) 
SMILES=c(c1)ccc(C3=O)c(C(C(C32C)(CC([H])=C(CCCC(C)CCCC(C)CCCC(C)C)C)O2)=O)1
cas=25486-55-9
InChI=InChI=1S/C31H46O3/c1-22(2)12-9-13-23(3)14-10-15-24(4)16-11-17-25(5)20-21-31-29(33)27-19-8-7-18-26(27)28(32)30(31,6)34-31/h7-8,18-20,22-24H,9-17,21H2,1-6H3/b25-20+
computed SMILES=O=C1C=2C=CC=CC2C(=O)C3(OC13C)CC=C(C)CCCC(C)CCCC(C)CCCC(C)C
accession=JP008159
date=2016.01.19 (Created 2008.10.21, modified 2011.05.06)
author=NARA WOMEN'S UNIVERSITY
license=CC BY-NC-SA
exact mass=466.3447
ionization energy=70 eV
ion type=[M]+*
computed spectral entropy=4.614289646106982
computed normalized entropy=0.8725523161603591
SPLASH=splash10-052f-9840300000-286e5df43908b562355d
submitter=submitter = University of Tokyo Team (Faculty of Engineering, University of Tokyo)
MoNA Rating=3.75

>  <NUM PEAKS>  (2712) 
198

>  <MASS SPECTRAL PEAKS>  (2712) 
38 1.49
39 8.61
40 1.99
41 37.54
42 9.41
43 99.99
44 3.47
50 2.94
51 3.12
52 1.06
53 5.18
54 1.82
55 35.9
56 8.56
57 41.8
58 1.33
65 1.59
66 1.21
67 11.38
68 6.8
69 21.31
70 4.64
71 20.33
72 1.39
74 1.59
75 1.72
76 5.9
77 10.88
78 1.57
79 3.52
80 1.84
81 12.91
82 5.19
83 11.1
84 1.99
85 5.19
89 1.18
91 2.86
93 2.6
94 1.47
95 19.95
96 3.73
97 7.26
98 1.12
99 1.28
102 2.54
103 9.54
104 5.76
105 10
106 1.02
107 2.65
108 1.57
109 6.15
110 4.29
111 4.81
112 1.95
115 3.61
117 1.08
121 2.57
123 7.68
124 2.83
125 3.87
126 3.56
127 2.11
128 2.78
129 3.77
130 1.35
131 12.83
132 4.83
133 6.43
134 0.97
135 1.97
137 2.69
139 1.71
141 2.75
142 1.38
143 2.92
144 1.82
145 1.73
146 0.98
147 6.4
148 0.98
149 2.06
151 3.3
152 2.78
153 2.7
155 2.67
157 3.08
158 2.13
159 38.61
160 13.92
161 10.58
162 1.79
165 3.92
166 2.56
167 2.26
168 1.35
169 2.12
170 1.21
171 6.01
172 6.47
173 10.86
174 2.48
175 2.66
176 2.26
177 1.49
178 1.09
179 2.38
180 1.51
181 5.12
182 2.51
183 3.94
184 1.89
185 3.85
186 3.95
187 36.69
188 12.5
189 9.25
190 4.02
191 1.26
193 1.98
194 1.77
195 7.77
196 5.37
197 10.54
198 5.52
199 11.97
200 2.91
201 4.84
202 21.27
203 3.73
207 1.13
208 1.74
209 5.54
210 3.05
211 8.02
212 3.44
213 21.75
214 7.35
215 4.71
216 1.23
221 1.02
222 0.97
223 3.06
224 2.34
225 9.87
226 4.2
227 13.15
228 2.86
229 1.51
236 1.2
237 4.17
238 1.95
239 2.9
240 2.38
241 39.88
242 7.98
243 2.9
244 1.11
249 1.46
251 2.39
252 1.22
253 1.5
255 9.07
256 4.73
257 1.05
263 1.01
265 1.48
269 1.86
277 0.96
278 1.67
279 1.14
280 0.95
282 1.2
291 1.27
293 0.87
306 27.61
307 6.91
308 0.98
405 3.31
406 6.06
407 2.17
421 6.59
422 3.77
423 35.81
424 14.95
425 6
426 1.78
438 1.23
446 1.24
448 2.34
449 6.52
451 5.7
452 2.03
465 1.11
466 37.42
467 15.62
468 4.12

>  <PREDICTED SPECTRUM>  (2712) 
29 79
39 21
41 456
42 99
43 810
44 60
45 81
50 68
51 113
52 38
53 203
54 28
55 721
56 297
57 784
58 114
59 163
60 44
63 37
64 111
65 200
66 73
67 335
68 165
69 821
70 273
71 526
72 41
73 143
74 66
75 174
76 136
77 213
78 137
79 253
80 115
81 588
82 210
83 560
84 144
85 353
86 82
87 24
89 52
90 23
91 128
92 50
93 218
94 160
95 564
96 159
97 326
98 105
99 136
100 41
101 97
102 48
103 11
104 75
105 147
106 14
107 162
108 125
109 549
110 138
111 259
112 88
113 129
114 84
115 159
116 60
117 97
118 73
120 3
121 218
122 26
123 211
124 46
125 298
126 292
127 166
128 166
129 198
130 78
131 93
132 27
133 75
134 74
135 0
136 103
137 227
138 156
139 143
140 168
141 171
142 137
143 213
144 71
145 149
147 48
148 27
149 96
150 5
151 145
152 131
153 235
154 131
155 175
156 58
157 225
158 208
159 226
160 125
161 97
162 18
163 83
165 134
166 62
167 141
169 119
170 84
171 249
172 105
173 230
174 81
175 98
176 72
177 89
178 177
179 140
180 25
181 118
182 111
183 160
184 159
185 320
186 254
187 292
188 226
189 190
190 29
193 33
195 41
196 30
197 238
198 125
199 397
200 343
201 748
202 448
203 237
204 113
205 19
206 2
207 50
208 123
209 75
210 44
211 143
212 156
213 437
214 265
215 279
216 201
217 96
220 9
222 160
223 108
224 97
225 247
226 56
227 487
228 358
229 274
230 2
239 291
240 183
241 999
242 665
243 504
244 222
253 26
255 490
256 308
257 224
258 30
263 45
267 65
269 335
270 329
271 224
272 13
283 353
284 149
285 183
297 162
298 134
311 186
312 104
325 105
326 234
335 37
339 59
340 21
353 152
354 108
378 49
380 4
381 249
382 98
395 97
396 45
409 197
410 93
411 4
421 2
423 192
424 98
425 30
437 26
448 30
451 336
452 137
465 74
466 837
467 489
468 212
469 14

$$$$

     RDKit          2D

 12 12  0  0  0  0  0  0  0  0999 V2000
   -0.2903    3.6419    0.0000 C   0  0  0  0  0  0  0  0  0  0  0  0
   -2.2187    3.6419    0.0000 C   0  0  0  0  0  0  0  0  0  0  0  0
    2.6426    0.2428    0.0000 C   0  0  0  0  0  0  0  0  0  0  0  0
    2.6431    1.7437    0.0000 C   0  0  0  0  0  0  0  0  0  0  0  0
    1.3431   -0.5080    0.0000 C   0  0  0  0  0  0  0  0  0  0  0  0
    1.3441    2.4937    0.0000 C   0  0  0  0  0  0  0  0  0  0  0  0
    0.0441    0.2420    0.0000 C   0  0  0  0  0  0  0  0  0  0  0  0
    0.0445    1.7428    0.0000 C   0  0  0  0  0  0  0  0  0  0  0  0
   -2.5535    1.7428    0.0000 C   0  0  0  0  0  0  0  0  0  0  0  0
   -1.2545    2.4928    0.0000 C   0  0  0  0  0  0  0  0  0  0  0  0
   -2.5535    0.2428    0.0000 O   0  0  0  0  0  0  0  0  0  0  0  0
   -3.8526    2.4928    0.0000 O   0  0  0  0  0  0  0  0  0  0  0  0
  4  3  2  0
  5  3  1  0
  6  4  1  0
  7  5  2  0
  8  6  2  0
  8  7  1  0
 10  1  1  0
 10  2  1  0
 10  8  1  0
 10  9  1  0
 11  9  2  0
 12  9  1  0
M  END
>  <NAME>  (2713) 
2-PHENYL-2-METHYLPROPIONIC ACID

>  <SYNONYMS>  (2713) 


>  <SPECTRUM TYPE>  (2713) 
MS1

>  <INSTRUMENT TYPE>  (2713) 
EI-B

>  <INSTRUMENT>  (2713) 
HITACHI M-80

>  <ION MODE>  (2713) 
P

>  <INCHIKEY>  (2713) 
YYEROYLAYAVZNW-UHFFFAOYSA-N

>  <FORMULA>  (2713) 
C10H12O2

>  <EXACT MASS>  (2713) 
164.083729624

>  <MW>  (2713) 
164

>  <ID>  (2713) 
JP008158

>  <CONTRIBUTOR>  (2713) 
University of Tokyo Team, {Faculty of Engineering, University of Tokyo

>  <COMMENT>  (2713) 
SMILES=OC(=O)C(C)(C)c(c1)cccc1
InChI=InChI=1S/C10H12O2/c1-10(2,9(11)12)8-6-4-3-5-7-8/h3-7H,1-2H3,(H,11,12)
computed SMILES=O=C(O)C(C=1C=CC=CC1)(C)C
accession=JP008158
date=2016.01.19 (Created 2008.10.21, modified 2011.05.06)
author=NARA WOMEN'S UNIVERSITY
license=CC BY-NC-SA
exact mass=164.08373
ionization energy=70 eV
ion type=[M]+*
computed spectral entropy=2.9664334372394086
computed normalized entropy=0.7936585466860573
SPLASH=splash10-014l-9700000000-dfc0ea83bf35f0df155e
submitter=submitter = University of Tokyo Team (Faculty of Engineering, University of Tokyo)
MoNA Rating=3.75

>  <NUM PEAKS>  (2713) 
42

>  <MASS SPECTRAL PEAKS>  (2713) 
15 2.5
26 1.16
27 6.26
38 1.77
39 14.1
41 22.81
42 1.04
43 7
45 13.66
50 6.82
51 16.08
52 3.86
53 2.04
62 1.9
63 5.41
64 1.01
65 5.14
74 2.5
75 2.27
76 2.37
77 21.39
78 9.63
79 14.83
80 1.02
89 1.89
91 60.68
92 4.79
102 2.8
103 14.74
104 4.64
105 29.74
106 3.05
115 3.54
116 0.87
117 3.75
118 2.5
119 99.99
120 10.42
121 1.33
150 5.66
164 19.94
165 2.35

>  <PREDICTED SPECTRUM>  (2713) 
14 15
15 49
16 15
17 31
18 46
19 18
26 55
27 213
28 80
29 123
31 42
36 9
37 52
38 119
39 318
40 113
41 401
42 87
43 297
44 78
45 340
46 33
47 14
49 38
50 242
51 361
52 201
53 218
54 35
55 184
56 63
57 56
58 124
59 136
60 75
61 53
62 135
63 271
64 169
65 319
66 101
67 157
68 23
69 84
73 138
74 179
75 244
76 121
77 410
78 263
79 322
80 63
81 70
83 62
85 4
86 66
87 98
88 46
89 193
90 96
91 755
92 251
93 120
94 21
99 10
101 77
102 213
103 331
104 236
105 391
106 82
107 75
108 48
110 27
113 2
115 476
116 307
117 322
118 224
119 999
120 291
121 144
122 83
128 96
129 140
130 14
131 184
132 56
136 39
146 14
149 17
164 561
165 186
166 57

$$$$

     RDKit          2D

 12 12  0  0  0  0  0  0  0  0999 V2000
    0.0000    3.0000    0.0000 C   0  0  0  0  0  0  0  0  0  0  0  0
   -2.5989   -1.5002    0.0000 C   0  0  0  0  0  0  0  0  0  0  0  0
    2.5989    1.5002    0.0000 C   0  0  0  0  0  0  0  0  0  0  0  0
   -0.0000   -3.0000    0.0000 C   0  0  0  0  0  0  0  0  0  0  0  0
   -1.3000    0.7500    0.0000 C   0  0  0  0  0  0  0  0  0  0  0  0
    0.0000    1.5000    0.0000 C   0  0  0  0  0  0  0  0  0  0  0  0
   -1.3000   -0.7500    0.0000 C   0  0  0  0  0  0  0  0  0  0  0  0
    1.3000    0.7500    0.0000 C   0  0  0  0  0  0  0  0  0  0  0  0
    0.0000   -1.5000    0.0000 C   0  0  0  0  0  0  0  0  0  0  0  0
    1.3000   -0.7500    0.0000 C   0  0  0  0  0  0  0  0  0  0  0  0
    2.5989   -1.5002    0.0000 N   0  0  0  0  0  0  0  0  0  0  0  0
    3.8981   -0.7504    0.0000 O   0  0  0  0  0  0  0  0  0  0  0  0
  6  1  1  0
  6  5  2  0
  7  2  1  0
  7  5  1  0
  8  3  1  0
  8  6  1  0
  9  4  1  0
  9  7  2  0
 10  8  2  0
 10  9  1  0
 11 10  1  0
 12 11  2  0
M  END
>  <NAME>  (2714) 
NITROSODURENE

>  <SYNONYMS>  (2714) 


>  <SPECTRUM TYPE>  (2714) 
MS1

>  <INSTRUMENT TYPE>  (2714) 
EI-B

>  <INSTRUMENT>  (2714) 
HITACHI M-80

>  <ION MODE>  (2714) 
P

>  <INCHIKEY>  (2714) 
UDOPFAXNNPAWQS-UHFFFAOYSA-N

>  <FORMULA>  (2714) 
C10H13NO

>  <EXACT MASS>  (2714) 
163.099714036

>  <MW>  (2714) 
163

>  <ID>  (2714) 
JP008157

>  <CONTRIBUTOR>  (2714) 
University of Tokyo Team, {Faculty of Engineering, University of Tokyo

>  <COMMENT>  (2714) 
SMILES=O=Nc(c(C)1)c(C)c(C)cc(C)1
InChI=InChI=1S/C10H13NO/c1-6-5-7(2)9(4)10(11-12)8(6)3/h5H,1-4H3
computed SMILES=O=NC=1C(=C(C=C(C1C)C)C)C
accession=JP008157
date=2016.01.19 (Created 2008.10.21, modified 2011.05.06)
author=NARA WOMEN'S UNIVERSITY
license=CC BY-NC-SA
exact mass=163.09971
ionization energy=70 eV
ion type=[M]+*
computed spectral entropy=3.740392790536456
computed normalized entropy=0.8487930772668439
SPLASH=splash10-05nf-8900000000-850a7f6804240b10c092
submitter=submitter = University of Tokyo Team (Faculty of Engineering, University of Tokyo)
MoNA Rating=3.75

>  <NUM PEAKS>  (2714) 
82

>  <MASS SPECTRAL PEAKS>  (2714) 
15 1.46
18 3.68
26 1.34
27 17.23
28 11.96
29 5.2
30 16.06
32 2.94
37 1.05
38 4.03
39 43.4
40 5.99
41 41.7
42 2.63
43 1.11
47 0.98
49 4.92
50 8.35
51 26.04
52 9.81
53 19.01
54 1.88
55 12.14
61 1.19
62 4.8
63 16.73
64 5.48
65 23.61
66 4.05
67 5.02
74 3.32
75 4.66
76 3.34
77 36.57
78 10.95
79 19.24
80 1.94
81 1.04
84 2.62
86 2.11
87 1.6
88 0.87
89 5.84
90 2.18
91 68.84
92 8.19
93 14.21
94 2.18
101 1.08
102 4.36
103 14.58
104 4.19
105 58.37
106 6.33
107 5.2
108 1.06
115 35.85
116 16.27
117 42.47
118 28.78
119 6.33
120 24.53
121 2.71
127 1.88
128 4.25
129 3.35
130 3.61
131 9.91
132 6.37
133 99.99
134 26.51
135 19.71
136 2.08
144 2.68
145 0.91
146 4.6
147 1.53
148 1.54
149 1.75
162 9.77
163 44.79
164 5.18

>  <PREDICTED SPECTRUM>  (2714) 
14 24
15 54
16 20
17 32
18 59
25 1
26 81
27 237
28 112
29 101
30 109
32 3
33 2
34 32
36 27
37 104
38 174
39 519
40 228
41 428
42 121
43 130
44 112
45 65
49 74
50 298
51 488
52 277
53 413
54 139
55 130
56 10
57 103
58 72
60 24
61 118
62 180
63 334
64 204
65 419
66 205
67 282
68 72
69 54
70 19
71 63
72 20
74 162
75 187
76 157
77 625
78 349
79 440
80 140
81 71
82 36
85 7
86 109
87 46
88 18
89 224
90 58
91 648
92 209
93 194
94 100
95 56
96 46
97 17
98 26
99 10
101 27
102 199
103 461
104 300
105 592
106 216
107 125
108 82
115 503
116 331
117 510
118 466
119 456
120 321
121 181
122 80
123 64
127 152
128 234
129 220
130 250
131 334
132 239
133 999
134 477
135 321
136 119
144 63
145 45
146 247
147 141
148 244
149 73
162 104
163 571
164 179
165 40

$$$$

     RDKit          2D

 11 11  0  0  0  0  0  0  0  0999 V2000
    0.0000   -2.1700    0.0000 C   0  0  0  0  0  0  0  0  0  0  0  0
    1.3000   -1.4200    0.0000 C   0  0  0  0  0  0  0  0  0  0  0  0
   -1.3000   -1.4200    0.0000 C   0  0  0  0  0  0  0  0  0  0  0  0
    1.3000    0.0800    0.0000 C   0  0  0  0  0  0  0  0  0  0  0  0
   -1.3000    0.0800    0.0000 C   0  0  0  0  0  0  0  0  0  0  0  0
    0.0000    0.8300    0.0000 C   0  0  0  0  0  0  0  0  0  0  0  0
    0.0000    2.3300    0.0000 C   0  0  0  0  0  0  0  0  0  0  0  0
    2.5989    0.8302    0.0000 Cl  0  0  0  0  0  0  0  0  0  0  0  0
   -2.5989    0.8302    0.0000 Cl  0  0  0  0  0  0  0  0  0  0  0  0
   -1.2990    3.0800    0.0000 N   0  0  0  0  0  0  0  0  0  0  0  0
    1.2990    3.0800    0.0000 S   0  0  0  0  0  0  0  0  0  0  0  0
  2  1  2  0
  3  1  1  0
  4  2  1  0
  5  3  2  0
  6  4  2  0
  6  5  1  0
  7  6  1  0
  8  4  1  0
  9  5  1  0
 10  7  2  0
 11  7  1  0
M  END
>  <NAME>  (2715) 
2,6-DICHLOROTHIOBENZAMIDE

>  <SYNONYMS>  (2715) 


>  <SPECTRUM TYPE>  (2715) 
MS1

>  <INSTRUMENT TYPE>  (2715) 
EI-B

>  <INSTRUMENT>  (2715) 
HITACHI M-80

>  <ION MODE>  (2715) 
P

>  <INCHIKEY>  (2715) 
KGKGSIUWJCAFPX-UHFFFAOYSA-N

>  <FORMULA>  (2715) 
C7H5Cl2NS

>  <EXACT MASS>  (2715) 
204.95197552

>  <MW>  (2715) 
205

>  <ID>  (2715) 
JP008156

>  <CONTRIBUTOR>  (2715) 
University of Tokyo Team, {Faculty of Engineering, University of Tokyo

>  <COMMENT>  (2715) 
SMILES=NC(=S)c(c(Cl)1)c(Cl)ccc1
InChI=InChI=1S/C7H5Cl2NS/c8-4-2-1-3-5(9)6(4)7(10)11/h1-3H,(H2,10,11)
computed SMILES=ClC1=CC=CC(Cl)=C1C(=N)S
accession=JP008156
date=2016.01.19 (Created 2008.10.21, modified 2011.05.06)
author=NARA WOMEN'S UNIVERSITY
license=CC BY-NC-SA
exact mass=204.95198
ionization energy=70 eV
ion type=[M]+*
computed spectral entropy=3.348797951251793
computed normalized entropy=0.7780546712779322
SPLASH=splash10-05fr-3940000000-8ca4a2ae499db498cded
submitter=submitter = University of Tokyo Team (Faculty of Engineering, University of Tokyo)
MoNA Rating=3.75

>  <NUM PEAKS>  (2715) 
74

>  <MASS SPECTRAL PEAKS>  (2715) 
33 1.24
34 0.95
35 0.87
36 2.82
37 2.61
38 1.93
39 0.96
45 2.3
49 1.61
50 4.64
51 2.56
52 1.52
59 2.09
60 29.24
61 2.39
62 2.5
63 3.46
68 0.91
69 2.72
73 2.87
74 7.01
75 10.84
76 3.34
78 1.31
84 2.63
85 3.31
86 2.11
90 3.52
93 1.4
99 1.5
100 6.45
101 1.72
102 2.34
107 2.67
108 3.51
109 3.97
110 1.76
111 5.04
112 0.9
113 1.3
119 1.87
133 1.56
134 10.43
135 6.74
136 9.52
137 4.58
138 4.17
139 1.47
142 1.96
143 4.61
144 1.24
145 2.49
146 3.47
147 0.8
148 2.06
154 2.44
169 1.71
170 99.99
171 12.79
172 45.43
173 6.45
174 7.2
175 1.18
176 0.97
177 0.97
189 7.51
191 5.15
193 1
205 60.54
206 13.4
207 42.28
208 9.28
209 8.67
210 1.79

>  <PREDICTED SPECTRUM>  (2715) 
25 32
26 23
28 22
32 61
33 19
35 109
36 174
37 217
38 178
39 114
40 37
41 117
42 82
43 32
44 106
45 95
47 192
48 33
49 239
50 392
51 162
52 39
53 99
55 101
56 81
57 171
59 11
60 418
61 356
62 293
63 235
64 162
65 7
68 77
69 129
70 116
71 205
72 422
73 575
74 726
75 540
76 127
79 31
80 37
83 20
84 447
85 418
86 220
87 136
88 166
89 34
90 14
91 23
92 51
94 54
96 20
97 190
98 128
99 103
100 216
102 120
103 64
104 106
106 62
107 229
108 251
109 699
110 386
111 293
112 96
113 23
115 183
117 1
118 75
119 115
120 54
122 65
124 2
129 113
131 40
134 94
135 129
136 95
142 157
143 158
144 246
145 889
146 306
147 698
148 183
149 26
157 74
168 12
170 940
171 342
172 992
173 881
174 455
175 211
205 992
206 295
207 999
208 259
209 454
210 69

$$$$

     RDKit          2D

 12 13  0  0  0  0  0  0  0  0999 V2000
    1.9500   -0.9000    0.0000 C   0  0  0  0  0  0  0  0  0  0  0  0
    0.6300   -1.6600    0.0000 C   0  0  0  0  0  0  0  0  0  0  0  0
    0.6300    1.3800    0.0000 C   0  0  0  0  0  0  0  0  0  0  0  0
   -2.9400   -0.2300    0.0000 C   0  0  0  0  0  0  0  0  0  0  0  0
    1.9500    0.6200    0.0000 C   0  0  0  0  0  0  0  0  0  0  0  0
   -0.6600   -0.9000    0.0000 C   0  0  0  0  0  0  0  0  0  0  0  0
   -0.6600    0.6200    0.0000 C   0  0  0  0  0  0  0  0  0  0  0  0
    3.2486    1.3708    0.0000 C   0  0  0  0  0  0  0  0  0  0  0  0
    3.2477    2.8708    0.0000 O   0  0  0  0  0  0  0  0  0  0  0  0
    4.5481    0.6216    0.0000 O   0  0  0  0  0  0  0  0  0  0  0  0
   -2.0600   -1.3400    0.0000 O   0  0  0  0  0  0  0  0  0  0  0  0
   -2.0900    1.0600    0.0000 O   0  0  0  0  0  0  0  0  0  0  0  0
  2  1  2  0
  5  1  1  0
  5  3  2  0
  6  2  1  0
  7  3  1  0
  7  6  2  0
  8  5  1  0
  9  8  2  0
 10  8  1  0
 11  4  1  0
 11  6  1  0
 12  4  1  0
 12  7  1  0
M  END
>  <NAME>  (2716) 
PIPERONYLIC ACID

>  <SYNONYMS>  (2716) 


>  <SPECTRUM TYPE>  (2716) 
MS1

>  <INSTRUMENT TYPE>  (2716) 
EI-B

>  <INSTRUMENT>  (2716) 
HITACHI M-80

>  <ION MODE>  (2716) 
P

>  <INCHIKEY>  (2716) 
VDVJGIYXDVPQLP-UHFFFAOYSA-N

>  <FORMULA>  (2716) 
C8H6O4

>  <EXACT MASS>  (2716) 
166.026608672

>  <MW>  (2716) 
166

>  <ID>  (2716) 
JP008154

>  <CONTRIBUTOR>  (2716) 
University of Tokyo Team, {Faculty of Engineering, University of Tokyo

>  <COMMENT>  (2716) 
SMILES=OC(=O)c(c1)cc(O2)c(OC2)c1
cas=94-53-1
InChI=InChI=1S/C8H6O4/c9-8(10)5-1-2-6-7(3-5)12-4-11-6/h1-3H,4H2,(H,9,10)
computed SMILES=O=C(O)C1=CC=C2OCOC2=C1
accession=JP008154
date=2016.01.19 (Created 2008.10.21, modified 2011.05.06)
author=NARA WOMEN'S UNIVERSITY
license=CC BY-NC-SA
exact mass=166.02661
ionization energy=70 eV
ion type=[M]+*
computed spectral entropy=2.7860260309952456
computed normalized entropy=0.7318815467570765
SPLASH=splash10-014i-4900000000-70cd469c29d2482d95f0
submitter=submitter = University of Tokyo Team (Faculty of Engineering, University of Tokyo)
MoNA Rating=3.75

>  <NUM PEAKS>  (2716) 
45

>  <MASS SPECTRAL PEAKS>  (2716) 
26 1
27 1.3
28 3.8
29 5
37 3
38 5
39 7.2
40 1
41 1.8
42 1
43 1
45 2.8
50 4
51 5.5
52 3
53 6
55 1
57 7.2
60 2.7
61 4
62 10.5
63 21.8
64 3
65 12
66 1
69 5.8
74 9
79 2
80 1
81 3.5
82 1
83 1
91 8.8
92 1.2
93 1
119 14.3
120 2.5
121 13.2
122 1
149 32
150 4
165 94
166 99.99
167 9.5
168 1.5

>  <PREDICTED SPECTRUM>  (2716) 
14 3
17 10
26 4
28 2
29 9
34 9
36 55
37 141
38 181
39 266
40 75
41 14
42 25
43 42
44 110
45 205
46 41
49 49
50 247
51 281
52 127
53 266
54 67
55 93
60 2
61 182
62 302
63 473
64 174
65 605
66 194
67 38
69 31
71 7
74 142
75 100
77 47
78 10
79 151
80 87
81 162
82 83
83 44
84 26
90 12
91 255
92 209
93 196
107 42
108 18
109 113
117 2
119 204
120 39
121 540
122 180
123 41
136 37
137 112
138 120
139 24
147 38
149 737
150 242
151 70
165 410
166 999
167 308
168 96

$$$$

     RDKit          2D

 21 24  0  0  1  0  0  0  0  0999 V2000
    2.3787    3.4316    0.0000 C   0  0  0  0  0  0  0  0  0  0  0  0
   -1.6800    1.1900    0.0000 C   0  0  0  0  0  0  0  0  0  0  0  0
   -4.2800   -1.8100    0.0000 C   0  0  0  0  0  0  0  0  0  0  0  0
   -2.9800   -2.5600    0.0000 C   0  0  0  0  0  0  0  0  0  0  0  0
   -4.2800   -0.3100    0.0000 C   0  0  0  0  0  0  0  0  0  0  0  0
   -0.3800   -2.5600    0.0000 C   0  0  0  0  0  0  0  0  0  0  0  0
    0.9200   -1.8100    0.0000 C   0  0  0  0  0  0  0  0  0  0  0  0
    3.6500   -0.0200    0.0000 C   0  0  0  0  0  0  0  0  0  0  0  0
    4.5300    1.1900    0.0000 C   0  0  0  0  0  0  0  0  0  0  0  0
   -0.3800    1.9400    0.0000 C   0  0  0  0  0  0  0  0  0  0  0  0
    0.9200    2.6900    0.0000 C   0  0  0  0  0  0  0  0  0  0  0  0
   -1.6800   -1.8100    0.0000 C   0  0  0  0  0  0  0  0  0  0  0  0
    0.9200   -0.3100    0.0000 C   0  0  0  0  0  0  0  0  0  0  0  0
    2.2200    0.4400    0.0000 C   0  0  0  0  0  0  0  0  0  0  0  0
   -0.3800    0.4400    0.0000 C   0  0  0  0  0  0  0  0  0  0  0  0
    3.6500    2.4000    0.0000 C   0  0  0  0  0  0  0  0  0  0  0  0
   -2.9800    0.4400    0.0000 C   0  0  0  0  0  0  0  0  0  0  0  0
    2.2200    1.9400    0.0000 C   0  0  0  0  0  0  0  0  0  0  0  0
   -1.6800   -0.3100    0.0000 C   0  0  0  0  0  0  0  0  0  0  0  0
    4.1153    3.8260    0.0000 O   0  0  0  0  0  0  0  0  0  0  0  0
   -2.9800    1.9400    0.0000 O   0  0  0  0  0  0  0  0  0  0  0  0
  4  3  1  0
  5  3  2  0
  7  6  1  0
  9  8  1  0
 11 10  1  0
 12  4  1  1
 12  6  1  0
 13  7  1  6
 14  8  1  1
 14 13  1  0
 15 10  1  1
 15 13  1  0
 16  9  1  0
 17  5  1  0
 18  1  1  1
 18 11  1  0
 18 14  1  0
 18 16  1  0
 19  2  1  1
 19 12  1  0
 19 15  1  0
 19 17  1  0
 16 20  1  1
 17 21  1  6
M  END
>  <NAME>  (2717) 
1ALPHA,17BETA-DIHYDROXY-5ALPHA-ANDROST-2-ENE

>  <SYNONYMS>  (2717) 


>  <SPECTRUM TYPE>  (2717) 
MS1

>  <INSTRUMENT TYPE>  (2717) 
EI-B

>  <INSTRUMENT>  (2717) 
HITACHI M-80

>  <ION MODE>  (2717) 
P

>  <INCHIKEY>  (2717) 
RUUMDVOLWARSAZ-VXZRPZIYSA-N

>  <FORMULA>  (2717) 
C19H30O2

>  <EXACT MASS>  (2717) 
290.2245802

>  <MW>  (2717) 
290

>  <ID>  (2717) 
JP008152

>  <CONTRIBUTOR>  (2717) 
University of Tokyo Team, {Faculty of Engineering, University of Tokyo

>  <COMMENT>  (2717) 
SMILES=[H]C(C4)=C([H])C([H])(O)C(C)(C([H])43)C([H])(C2)C([H])(CC3)C([H])(C1)C(C)(C2)C([H])(O)C1
InChI=InChI=1S/C19H30O2/c1-18-11-10-15-13(14(18)8-9-16(18)20)7-6-12-4-3-5-17(21)19(12,15)2/h3,5,12-17,20-21H,4,6-11H2,1-2H3/t12-,13+,14+,15+,16+,17+,18+,19+/m1/s1
computed SMILES=OC1C=CCC2CCC3C4CCC(O)C4(C)CCC3C12C
accession=JP008152
date=2016.01.19 (Created 2008.10.21, modified 2011.05.06)
author=NARA WOMEN'S UNIVERSITY
license=CC BY-NC-SA
exact mass=290.22458
ionization energy=70 eV
ion type=[M]+*
computed spectral entropy=3.953294692675888
computed normalized entropy=0.8257548848279789
SPLASH=splash10-00di-3590000000-a66f8cf669b520b59577
submitter=submitter = University of Tokyo Team (Faculty of Engineering, University of Tokyo)
MoNA Rating=3.75

>  <NUM PEAKS>  (2717) 
120

>  <MASS SPECTRAL PEAKS>  (2717) 
27 0.98
29 2.35
40 1.45
42 5.77
43 1.88
44 4.48
53 1.93
55 5.3
56 1.95
57 5.23
65 1.01
67 4.8
68 1.29
69 2.87
70 22.43
71 2.23
77 3.29
78 0.97
79 7.26
80 1.61
81 10.09
82 1.22
83 1.35
86 0.91
91 7.76
92 2.74
93 9.89
94 4.08
95 8.12
96 1.56
97 3.27
98 1.13
105 9.91
106 5.68
107 10.71
108 5.21
109 6.48
110 2.17
111 1.5
117 2.07
118 1.6
119 4.74
120 2.84
121 6.7
122 2.37
123 2.97
124 3.74
129 1.13
131 5
132 1.32
133 4.77
134 2.75
135 3.48
136 1.18
137 1.13
143 1.47
144 0.83
145 4.84
146 2.33
147 9.69
148 3.29
149 5.62
150 1.48
151 1.49
157 1.43
158 0.91
159 3.44
160 2.57
161 16.23
162 3.57
163 4.52
164 2.42
165 1.04
168 1.18
171 0.96
173 5.74
174 2.07
175 2.14
176 21.06
177 5.31
178 1.68
185 0.94
187 11.56
188 2.08
189 1.1
191 3.31
192 1.01
199 2.28
200 0.92
201 4.73
202 27.62
203 56.44
204 9.32
205 4.67
206 0.89
213 2.68
214 1
215 1.61
217 1.73
218 1.87
219 9.55
220 51.42
221 99.99
222 16.09
223 1.44
231 1.56
239 1.72
244 1.28
246 1.84
254 1.15
255 1.65
257 4.67
258 1.19
272 13.19
273 8.24
274 1.98
275 1.21
290 42.07
291 8.95
292 1.13

>  <PREDICTED SPECTRUM>  (2717) 
29 14
39 52
40 11
41 197
42 60
43 344
44 19
52 31
53 171
54 91
55 225
56 72
57 238
58 59
64 15
65 124
66 129
67 269
68 146
69 186
70 204
71 139
77 208
78 60
79 314
80 117
81 331
82 83
83 124
84 50
86 30
91 283
92 165
93 298
94 221
95 358
96 122
97 90
98 78
99 22
101 9
103 5
104 28
105 206
106 217
107 342
108 195
109 228
110 8
111 182
115 37
117 126
118 97
119 155
120 162
121 227
122 186
123 164
124 128
125 11
129 90
130 10
131 146
132 96
133 234
134 142
135 116
136 40
137 42
138 25
139 37
143 19
144 1
145 129
146 90
147 202
148 125
149 207
150 74
151 91
159 227
160 213
161 482
162 229
163 298
164 214
165 111
168 14
171 2
173 186
175 84
176 431
177 263
178 128
179 50
185 16
186 6
187 374
188 142
189 15
191 150
199 26
201 248
202 603
203 904
204 339
205 247
213 179
215 138
218 32
219 239
220 793
221 999
222 445
223 126
225 3
231 98
233 1
236 36
239 77
246 68
257 208
258 74
261 13
272 331
273 151
274 34
275 83
290 843
291 361
292 102

$$$$

     RDKit          2D

 24 27  0  0  1  0  0  0  0  0999 V2000
    6.0482    5.5621    0.0000 C   0  0  0  0  0  0  0  0  0  0  0  0
    2.3787    3.4316    0.0000 C   0  0  0  0  0  0  0  0  0  0  0  0
   -1.6800    1.1900    0.0000 C   0  0  0  0  0  0  0  0  0  0  0  0
   -4.2800   -1.8100    0.0000 C   0  0  0  0  0  0  0  0  0  0  0  0
   -2.9800   -2.5600    0.0000 C   0  0  0  0  0  0  0  0  0  0  0  0
   -4.2800   -0.3100    0.0000 C   0  0  0  0  0  0  0  0  0  0  0  0
   -0.3800   -2.5600    0.0000 C   0  0  0  0  0  0  0  0  0  0  0  0
    0.9200   -1.8100    0.0000 C   0  0  0  0  0  0  0  0  0  0  0  0
    3.6500   -0.0200    0.0000 C   0  0  0  0  0  0  0  0  0  0  0  0
    4.5300    1.1900    0.0000 C   0  0  0  0  0  0  0  0  0  0  0  0
   -0.3800    1.9400    0.0000 C   0  0  0  0  0  0  0  0  0  0  0  0
    0.9200    2.6900    0.0000 C   0  0  0  0  0  0  0  0  0  0  0  0
    5.5829    4.1361    0.0000 C   0  0  0  0  0  0  0  0  0  0  0  0
   -1.6800   -1.8100    0.0000 C   0  0  0  0  0  0  0  0  0  0  0  0
    0.9200   -0.3100    0.0000 C   0  0  0  0  0  0  0  0  0  0  0  0
    2.2200    0.4400    0.0000 C   0  0  0  0  0  0  0  0  0  0  0  0
   -0.3800    0.4400    0.0000 C   0  0  0  0  0  0  0  0  0  0  0  0
   -2.9800    0.4400    0.0000 C   0  0  0  0  0  0  0  0  0  0  0  0
    3.6500    2.4000    0.0000 C   0  0  0  0  0  0  0  0  0  0  0  0
    2.2200    1.9400    0.0000 C   0  0  0  0  0  0  0  0  0  0  0  0
   -1.6800   -0.3100    0.0000 C   0  0  0  0  0  0  0  0  0  0  0  0
    6.5852    3.0201    0.0000 O   0  0  0  0  0  0  0  0  0  0  0  0
   -2.9800    1.9400    0.0000 O   0  0  0  0  0  0  0  0  0  0  0  0
    4.1153    3.8260    0.0000 O   0  0  0  0  0  0  0  0  0  0  0  0
  5  4  1  0
  6  4  1  0
  8  7  1  0
 10  9  1  0
 12 11  1  0
 13  1  1  0
 14  5  1  1
 14  7  1  0
 15  8  1  6
 16  9  1  1
 16 15  1  0
 17 11  1  1
 17 15  1  0
 18  6  1  0
 19 10  1  0
 20  2  1  1
 20 12  1  0
 20 16  1  0
 20 19  1  0
 21  3  1  1
 21 14  1  0
 21 17  1  0
 21 18  1  0
 22 13  2  0
 18 23  1  1
 24 13  1  0
 19 24  1  1
M  END
>  <NAME>  (2718) 
17BETA-ACETOXY-1BETA-HYDROXY-5ALPHA-ANDROSTANE

>  <SYNONYMS>  (2718) 


>  <SPECTRUM TYPE>  (2718) 
MS1

>  <INSTRUMENT TYPE>  (2718) 
EI-B

>  <INSTRUMENT>  (2718) 
HITACHI M-80

>  <ION MODE>  (2718) 
P

>  <INCHIKEY>  (2718) 
GJKFQYIGKDMSEN-WKBNOSBISA-N

>  <FORMULA>  (2718) 
C21H34O3

>  <EXACT MASS>  (2718) 
334.25079494799996

>  <MW>  (2718) 
334

>  <ID>  (2718) 
JP008151

>  <CONTRIBUTOR>  (2718) 
University of Tokyo Team, {Faculty of Engineering, University of Tokyo

>  <COMMENT>  (2718) 
SMILES=CC(=O)OC(C4)C(C)(C3)C([H])(C4)C([H])(C1)C([H])(C3)C(C)(C(O)2)C([H])(CCC2)C1
InChI=InChI=1S/C21H34O3/c1-13(22)24-19-10-9-16-15-8-7-14-5-4-6-18(23)21(14,3)17(15)11-12-20(16,19)2/h14-19,23H,4-12H2,1-3H3/t14-,15+,16+,17+,18-,19+,20+,21+/m1/s1
computed SMILES=O=C(OC1CCC2C3CCC4CCCC(O)C4(C)C3CCC12C)C
accession=JP008151
date=2016.01.19 (Created 2008.10.21, modified 2011.05.06)
author=NARA WOMEN'S UNIVERSITY
license=CC BY-NC-SA
exact mass=334.25079
ionization energy=70 eV
ion type=[M]+*
computed spectral entropy=4.173627591985674
computed normalized entropy=0.8560940850790398
SPLASH=splash10-066s-3973000000-77132849d7468ed173d7
submitter=submitter = University of Tokyo Team (Faculty of Engineering, University of Tokyo)
MoNA Rating=3.75

>  <NUM PEAKS>  (2718) 
131

>  <MASS SPECTRAL PEAKS>  (2718) 
29 1.97
39 1.01
41 5.23
43 24.18
44 1.16
53 1.93
55 8.66
57 2.28
65 1.01
67 7.55
68 1.6
69 3.3
71 1.58
77 3.22
78 0.94
79 9.04
80 2.42
81 14.24
82 2.06
83 2.05
91 7.9
92 2.05
93 12.91
94 10.32
95 11.29
96 1.81
97 2.8
104 2.27
105 12.77
106 5.44
107 12.91
108 28.57
109 9.53
110 2.64
111 2.64
117 2.8
118 2.59
119 8.06
120 5.84
121 8.35
122 6.06
123 3.26
124 1.67
129 1.11
130 1.41
131 16.02
132 4.64
133 10.48
134 7.09
135 7.31
136 1.97
137 1.5
143 1.04
144 0.95
145 10.11
146 52.69
147 19.55
148 12.54
149 6.2
150 1.16
157 1.13
158 1.09
159 12.4
160 9.16
161 10.65
162 7.92
163 3.79
164 0.92
165 1.19
171 1.48
173 4.41
174 6.52
175 5.65
176 2.04
177 1.41
179 1.15
185 3.12
186 1.49
187 4.05
188 2.13
189 1.73
199 2.97
200 2.07
201 30.72
202 7.53
203 2.92
206 16.65
207 4.22
208 1.59
213 2.08
214 1.32
215 7.49
216 2.22
217 2.03
219 4.25
220 2.95
221 2.74
227 7.51
228 3.36
229 1.21
230 1.81
231 1.14
233 2.79
234 1.92
241 13.55
242 2.8
245 1.23
246 2.07
247 0.98
248 1.19
255 1.9
256 67.14
257 27.07
258 4.54
259 10.31
260 3.42
261 6.66
262 1.99
273 1.96
274 23.97
275 8.46
287 7.56
288 1.72
301 3.57
302 0.82
316 99.99
317 25.35
318 3.6
319 0.81
334 9.03
335 2.31

>  <PREDICTED SPECTRUM>  (2718) 
27 34
29 63
39 54
40 31
41 363
42 58
43 649
44 41
51 2
53 174
54 41
55 392
56 48
57 106
60 8
61 48
65 75
66 81
67 363
68 180
69 239
70 29
71 154
77 269
78 91
79 405
80 133
81 480
82 135
83 191
84 71
85 114
86 19
91 354
92 178
93 465
94 357
95 443
96 136
97 155
98 21
103 32
104 27
105 399
106 315
107 493
108 420
109 295
110 199
111 216
115 47
116 28
117 149
118 134
119 309
120 311
121 344
122 305
123 267
124 112
125 65
128 48
129 92
130 15
131 302
132 187
133 370
134 248
135 254
136 274
137 144
138 82
141 17
142 87
143 155
144 148
145 367
146 449
147 469
148 417
149 310
150 171
151 46
155 49
156 25
157 96
158 95
159 395
160 389
161 349
162 220
163 178
164 53
165 113
166 6
167 0
170 0
171 146
172 112
173 240
174 304
175 256
176 250
177 139
178 84
179 93
180 0
183 22
185 192
186 123
187 284
188 167
189 115
190 17
191 32
192 61
193 12
199 241
200 291
201 561
202 337
203 182
204 0
205 70
206 169
207 239
208 29
213 173
214 213
215 342
216 191
217 277
218 79
219 87
220 157
221 39
222 28
223 37
225 33
227 185
228 175
229 112
230 169
231 141
232 39
233 172
234 132
235 104
240 12
241 548
242 176
243 44
245 16
246 71
247 59
248 114
255 96
256 830
257 516
258 213
259 515
260 251
261 241
262 139
263 50
264 20
273 95
274 714
275 341
276 82
277 21
287 60
301 262
302 52
316 999
317 513
318 224
319 82
320 22
334 365
335 147

$$$$

     RDKit          2D

 24 27  0  0  1  0  0  0  0  0999 V2000
    6.0482    5.5621    0.0000 C   0  0  0  0  0  0  0  0  0  0  0  0
    2.3787    3.4316    0.0000 C   0  0  0  0  0  0  0  0  0  0  0  0
   -1.6800    1.1900    0.0000 C   0  0  0  0  0  0  0  0  0  0  0  0
   -4.2800   -1.8100    0.0000 C   0  0  0  0  0  0  0  0  0  0  0  0
   -2.9800   -2.5600    0.0000 C   0  0  0  0  0  0  0  0  0  0  0  0
   -4.2800   -0.3100    0.0000 C   0  0  0  0  0  0  0  0  0  0  0  0
   -0.3800   -2.5600    0.0000 C   0  0  0  0  0  0  0  0  0  0  0  0
    0.9200   -1.8100    0.0000 C   0  0  0  0  0  0  0  0  0  0  0  0
    3.6500   -0.0200    0.0000 C   0  0  0  0  0  0  0  0  0  0  0  0
    4.5300    1.1900    0.0000 C   0  0  0  0  0  0  0  0  0  0  0  0
   -0.3800    1.9400    0.0000 C   0  0  0  0  0  0  0  0  0  0  0  0
    0.9200    2.6900    0.0000 C   0  0  0  0  0  0  0  0  0  0  0  0
    5.5829    4.1361    0.0000 C   0  0  0  0  0  0  0  0  0  0  0  0
   -1.6800   -1.8100    0.0000 C   0  0  0  0  0  0  0  0  0  0  0  0
    0.9200   -0.3100    0.0000 C   0  0  0  0  0  0  0  0  0  0  0  0
    2.2200    0.4400    0.0000 C   0  0  0  0  0  0  0  0  0  0  0  0
   -0.3800    0.4400    0.0000 C   0  0  0  0  0  0  0  0  0  0  0  0
   -2.9800    0.4400    0.0000 C   0  0  0  0  0  0  0  0  0  0  0  0
    3.6500    2.4000    0.0000 C   0  0  0  0  0  0  0  0  0  0  0  0
    2.2200    1.9400    0.0000 C   0  0  0  0  0  0  0  0  0  0  0  0
   -1.6800   -0.3100    0.0000 C   0  0  0  0  0  0  0  0  0  0  0  0
    6.5852    3.0201    0.0000 O   0  0  0  0  0  0  0  0  0  0  0  0
   -2.9800    1.9400    0.0000 O   0  0  0  0  0  0  0  0  0  0  0  0
    4.1153    3.8260    0.0000 O   0  0  0  0  0  0  0  0  0  0  0  0
  5  4  1  0
  6  4  1  0
  8  7  1  0
 10  9  1  0
 12 11  1  0
 13  1  1  0
 14  5  1  1
 14  7  1  0
 15  8  1  6
 16  9  1  1
 16 15  1  0
 17 11  1  1
 17 15  1  0
 18  6  1  0
 19 10  1  0
 20  2  1  1
 20 12  1  0
 20 16  1  0
 20 19  1  0
 21  3  1  1
 21 14  1  0
 21 17  1  0
 21 18  1  0
 22 13  2  0
 18 23  1  6
 24 13  1  0
 19 24  1  1
M  END
>  <NAME>  (2719) 
17BETA-ACETOXY-1ALPHA-HYDROXY-5ALPHA-ANDROSTANE

>  <SYNONYMS>  (2719) 


>  <SPECTRUM TYPE>  (2719) 
MS1

>  <INSTRUMENT TYPE>  (2719) 
EI-B

>  <INSTRUMENT>  (2719) 
HITACHI M-80

>  <ION MODE>  (2719) 
P

>  <INCHIKEY>  (2719) 
GJKFQYIGKDMSEN-NDUYDNQLSA-N

>  <FORMULA>  (2719) 
C21H34O3

>  <EXACT MASS>  (2719) 
334.250794948

>  <MW>  (2719) 
334

>  <ID>  (2719) 
JP008150

>  <CONTRIBUTOR>  (2719) 
University of Tokyo Team, {Faculty of Engineering, University of Tokyo

>  <COMMENT>  (2719) 
SMILES=CC(=O)OC([H])(C4)C(C)(C3)C([H])(C4)C([H])(C1)C([H])(C3)C(C)(C([H])(O)2)C([H])(CCC2)C1
InChI=InChI=1S/C21H34O3/c1-13(22)24-19-10-9-16-15-8-7-14-5-4-6-18(23)21(14,3)17(15)11-12-20(16,19)2/h14-19,23H,4-12H2,1-3H3/t14-,15+,16+,17+,18+,19+,20+,21+/m1/s1
computed SMILES=O=C(OC1CCC2C3CCC4CCCC(O)C4(C)C3CCC12C)C
accession=JP008150
date=2016.01.19 (Created 2008.10.21, modified 2011.05.06)
author=NARA WOMEN'S UNIVERSITY
license=CC BY-NC-SA
exact mass=334.25079
ionization energy=70 eV
ion type=[M]+*
computed spectral entropy=4.121493207225056
computed normalized entropy=0.8494368301601625
SPLASH=splash10-066r-3794000000-db7b7829abc65815a1af
submitter=submitter = University of Tokyo Team (Faculty of Engineering, University of Tokyo)
MoNA Rating=3.75

>  <NUM PEAKS>  (2719) 
128

>  <MASS SPECTRAL PEAKS>  (2719) 
29 1.77
41 5.25
43 23.49
44 1.1
53 1.78
55 7.9
57 1.89
65 0.91
67 6.46
68 1.34
69 2.82
71 1.36
77 2.95
79 8.05
80 1.97
81 12.47
82 1.82
83 1.81
91 7.23
92 1.75
93 11.03
94 8.34
95 10.05
96 1.34
97 1.79
105 11.05
106 4.28
107 10.99
108 14.57
109 6.14
110 1.33
111 2.27
117 2.32
118 1.79
119 6.9
120 4.57
121 6.69
122 2.69
123 1.79
124 1.11
129 1.21
131 9.28
132 2.81
133 8.31
134 5.65
135 6.13
136 1.35
137 1.14
143 1.28
144 0.99
145 8.91
146 20.92
147 12.95
148 8.63
149 4.34
150 0.92
157 1.33
158 0.91
159 10.05
160 6.02
161 8.29
162 6.15
163 2.79
165 1.01
171 1.4
173 5.48
174 5.77
175 5.99
176 1.78
177 1.07
179 1.08
180 0.96
185 7.31
186 1.85
187 4.12
188 2.37
189 1.81
199 3.24
200 3.11
201 36.22
202 8.74
203 3.17
206 3.47
207 1.09
213 3.24
214 1.79
215 13.46
216 4.16
217 2.94
218 0.96
219 4.52
220 1.43
221 0.98
227 2.83
228 2.52
229 1.3
230 4.3
231 1.62
233 2.8
234 1.24
241 16.58
242 3.5
245 1.37
246 1.69
247 0.89
248 1.59
255 1.89
256 67.58
257 28.01
258 4.74
259 11.97
260 7.73
261 10.42
262 2.78
273 2.15
274 40.27
275 8.97
276 1.18
287 1.31
301 4.89
302 1.11
315 0.81
316 99.99
317 23.85
318 3.25
319 0.89
334 19.14
335 4.53

>  <PREDICTED SPECTRUM>  (2719) 
27 34
29 63
39 54
40 31
41 363
42 58
43 649
44 41
51 2
53 174
54 41
55 392
56 48
57 106
60 8
61 48
65 75
66 81
67 363
68 180
69 239
70 29
71 154
77 269
78 91
79 405
80 133
81 480
82 135
83 191
84 71
85 114
86 19
91 354
92 178
93 465
94 357
95 443
96 136
97 155
98 21
103 32
104 27
105 399
106 315
107 493
108 420
109 295
110 199
111 216
115 47
116 28
117 149
118 134
119 309
120 311
121 344
122 305
123 267
124 112
125 65
128 48
129 92
130 15
131 302
132 187
133 370
134 248
135 254
136 274
137 144
138 82
141 17
142 87
143 155
144 148
145 367
146 449
147 469
148 417
149 310
150 171
151 46
155 49
156 25
157 96
158 95
159 395
160 389
161 349
162 220
163 178
164 53
165 113
166 6
167 0
170 0
171 146
172 112
173 240
174 304
175 256
176 250
177 139
178 84
179 93
180 0
183 22
185 192
186 123
187 284
188 167
189 115
190 17
191 32
192 61
193 12
199 241
200 291
201 561
202 337
203 182
204 0
205 70
206 169
207 239
208 29
213 173
214 213
215 342
216 191
217 277
218 79
219 87
220 157
221 39
222 28
223 37
225 33
227 185
228 175
229 112
230 169
231 141
232 39
233 172
234 132
235 104
240 12
241 548
242 176
243 44
245 16
246 71
247 59
248 114
255 96
256 830
257 516
258 213
259 515
260 251
261 241
262 139
263 50
264 20
273 95
274 714
275 341
276 82
277 21
287 60
301 262
302 52
316 999
317 513
318 224
319 82
320 22
334 365
335 147

$$$$

     RDKit          2D

 24 27  0  0  1  0  0  0  0  0999 V2000
    6.0482    5.5621    0.0000 C   0  0  0  0  0  0  0  0  0  0  0  0
    2.3787    3.4316    0.0000 C   0  0  0  0  0  0  0  0  0  0  0  0
   -1.6800    1.1900    0.0000 C   0  0  0  0  0  0  0  0  0  0  0  0
   -4.2800   -1.8100    0.0000 C   0  0  0  0  0  0  0  0  0  0  0  0
   -2.9800   -2.5600    0.0000 C   0  0  0  0  0  0  0  0  0  0  0  0
   -4.2800   -0.3100    0.0000 C   0  0  0  0  0  0  0  0  0  0  0  0
   -0.3800   -2.5600    0.0000 C   0  0  0  0  0  0  0  0  0  0  0  0
    0.9200   -1.8100    0.0000 C   0  0  0  0  0  0  0  0  0  0  0  0
    3.6500   -0.0200    0.0000 C   0  0  0  0  0  0  0  0  0  0  0  0
    4.5300    1.1900    0.0000 C   0  0  0  0  0  0  0  0  0  0  0  0
   -0.3800    1.9400    0.0000 C   0  0  0  0  0  0  0  0  0  0  0  0
    0.9200    2.6900    0.0000 C   0  0  0  0  0  0  0  0  0  0  0  0
    5.5829    4.1361    0.0000 C   0  0  0  0  0  0  0  0  0  0  0  0
   -1.6800   -1.8100    0.0000 C   0  0  0  0  0  0  0  0  0  0  0  0
    0.9200   -0.3100    0.0000 C   0  0  0  0  0  0  0  0  0  0  0  0
    2.2200    0.4400    0.0000 C   0  0  0  0  0  0  0  0  0  0  0  0
   -0.3800    0.4400    0.0000 C   0  0  0  0  0  0  0  0  0  0  0  0
   -2.9800    0.4400    0.0000 C   0  0  0  0  0  0  0  0  0  0  0  0
    3.6500    2.4000    0.0000 C   0  0  0  0  0  0  0  0  0  0  0  0
    2.2200    1.9400    0.0000 C   0  0  0  0  0  0  0  0  0  0  0  0
   -1.6800   -0.3100    0.0000 C   0  0  0  0  0  0  0  0  0  0  0  0
    6.5852    3.0201    0.0000 O   0  0  0  0  0  0  0  0  0  0  0  0
   -2.9800    1.9400    0.0000 O   0  0  0  0  0  0  0  0  0  0  0  0
    4.1153    3.8260    0.0000 O   0  0  0  0  0  0  0  0  0  0  0  0
  5  4  1  0
  6  4  2  0
  8  7  1  0
 10  9  1  0
 12 11  1  0
 13  1  1  0
 14  5  1  1
 14  7  1  0
 15  8  1  6
 16  9  1  1
 16 15  1  0
 17 11  1  1
 17 15  1  0
 18  6  1  0
 19 10  1  0
 20  2  1  1
 20 12  1  0
 20 16  1  0
 20 19  1  0
 21  3  1  1
 21 14  1  0
 21 17  1  0
 21 18  1  0
 22 13  2  0
 18 23  1  1
 24 13  1  0
 19 24  1  1
M  END
>  <NAME>  (2720) 
17BETA-ACETOXY-1BETA-HYDROXY-5ALPHA-ANDROST-2-ENE

>  <SYNONYMS>  (2720) 


>  <SPECTRUM TYPE>  (2720) 
MS1

>  <INSTRUMENT TYPE>  (2720) 
EI-B

>  <INSTRUMENT>  (2720) 
HITACHI M-80

>  <ION MODE>  (2720) 
P

>  <INCHIKEY>  (2720) 
DKRVGISYZLHNHZ-WKBNOSBISA-N

>  <FORMULA>  (2720) 
C21H32O3

>  <EXACT MASS>  (2720) 
332.23514488399996

>  <MW>  (2720) 
332

>  <ID>  (2720) 
JP008149

>  <CONTRIBUTOR>  (2720) 
University of Tokyo Team, {Faculty of Engineering, University of Tokyo

>  <COMMENT>  (2720) 
SMILES=CC(=O)OC(C4)C(C)(C3)C([H])(C4)C([H])(C1)C([H])(C3)C(C)(C(O)2)C([H])(CC=C2)C1
InChI=InChI=1S/C21H32O3/c1-13(22)24-19-10-9-16-15-8-7-14-5-4-6-18(23)21(14,3)17(15)11-12-20(16,19)2/h4,6,14-19,23H,5,7-12H2,1-3H3/t14-,15+,16+,17+,18-,19+,20+,21+/m1/s1
computed SMILES=O=C(OC1CCC2C3CCC4CC=CC(O)C4(C)C3CCC12C)C
accession=JP008149
date=2016.01.19 (Created 2008.10.21, modified 2011.05.06)
author=NARA WOMEN'S UNIVERSITY
license=CC BY-NC-SA
exact mass=332.23514
ionization energy=70 eV
ion type=[M]+*
computed spectral entropy=3.805611697765377
computed normalized entropy=0.8228397985031501
SPLASH=splash10-0udi-4692000000-cc4712b98422a877b493
submitter=submitter = University of Tokyo Team (Faculty of Engineering, University of Tokyo)
MoNA Rating=3.75

>  <NUM PEAKS>  (2720) 
102

>  <MASS SPECTRAL PEAKS>  (2720) 
29 1.13
39 0.92
41 3.68
43 17.32
53 1.18
55 4.61
57 1.11
67 3.86
68 0.83
69 2.34
70 18.34
71 1.51
77 2.26
79 6.02
80 1.45
81 10.03
82 1.06
83 1.1
91 6.77
92 2.3
93 9.93
94 5.08
95 8.42
96 1.13
97 1.26
105 7.85
106 4.1
107 12.44
108 4.15
109 5.81
110 1.31
111 1.28
112 0.81
117 1.8
118 1.36
119 4.13
120 3.05
121 7.85
122 2.74
123 2.07
124 2.69
129 0.93
130 0.81
131 6.44
132 1.63
133 5.56
134 3.04
135 3.25
137 0.93
143 1.07
145 5.61
146 4.94
147 9.06
148 2.57
149 3.21
150 1.5
157 1.18
158 0.81
159 5.4
160 3.26
161 8.38
162 2.02
163 2.93
171 0.83
173 6.4
174 2.92
175 1.96
176 1.06
185 0.89
187 15.69
188 2.78
189 1.11
199 1.89
200 0.92
201 6.59
202 29.83
203 99.99
204 16.37
205 1.7
213 1
219 1.22
220 1.12
221 6.48
222 1.13
239 1.61
254 2.06
255 1.5
257 3.21
259 0.85
260 0.8
261 2.46
262 24.97
263 11.88
264 1.93
272 5.24
273 1.34
314 2.62
315 1.07
330 0.98
332 42.81
333 10
334 1.37

>  <PREDICTED SPECTRUM>  (2720) 
29 72
39 52
40 18
41 235
42 0
43 554
44 22
53 87
55 237
56 29
57 136
65 51
66 45
67 191
68 72
69 144
70 119
71 51
77 154
79 226
80 28
81 217
82 19
83 92
84 68
85 28
91 315
92 98
93 276
94 244
95 239
96 69
97 85
98 7
99 2
105 222
106 147
107 309
108 159
109 153
110 40
111 110
113 52
117 87
118 6
119 202
120 74
121 172
122 56
123 98
124 39
125 28
127 47
128 45
129 54
130 24
131 185
132 135
133 259
134 78
135 69
136 52
137 104
138 49
139 81
141 43
145 155
146 170
147 229
148 136
149 213
151 67
152 11
153 115
154 3
155 11
157 69
159 182
160 144
161 333
162 112
163 94
164 67
165 59
166 30
171 49
172 4
173 150
174 94
175 131
176 187
177 89
181 0
185 21
186 67
187 337
188 86
189 68
190 25
199 92
200 55
201 432
202 707
203 999
204 365
205 192
206 26
211 18
213 21
218 25
219 3
220 100
221 120
229 50
230 30
233 60
239 67
240 3
245 6
246 21
247 28
254 96
255 141
257 128
260 36
261 87
262 880
263 587
264 193
272 157
273 110
278 67
299 1
314 230
315 125
332 601
333 230
334 54

$$$$

     RDKit          2D

 24 27  0  0  1  0  0  0  0  0999 V2000
    6.0482    5.5621    0.0000 C   0  0  0  0  0  0  0  0  0  0  0  0
    2.3787    3.4316    0.0000 C   0  0  0  0  0  0  0  0  0  0  0  0
   -1.6800    1.1900    0.0000 C   0  0  0  0  0  0  0  0  0  0  0  0
   -4.2800   -1.8100    0.0000 C   0  0  0  0  0  0  0  0  0  0  0  0
   -2.9800   -2.5600    0.0000 C   0  0  0  0  0  0  0  0  0  0  0  0
   -4.2800   -0.3100    0.0000 C   0  0  0  0  0  0  0  0  0  0  0  0
   -0.3800   -2.5600    0.0000 C   0  0  0  0  0  0  0  0  0  0  0  0
    0.9200   -1.8100    0.0000 C   0  0  0  0  0  0  0  0  0  0  0  0
    3.6500   -0.0200    0.0000 C   0  0  0  0  0  0  0  0  0  0  0  0
    4.5300    1.1900    0.0000 C   0  0  0  0  0  0  0  0  0  0  0  0
   -0.3800    1.9400    0.0000 C   0  0  0  0  0  0  0  0  0  0  0  0
    0.9200    2.6900    0.0000 C   0  0  0  0  0  0  0  0  0  0  0  0
    5.5829    4.1361    0.0000 C   0  0  0  0  0  0  0  0  0  0  0  0
   -1.6800   -1.8100    0.0000 C   0  0  0  0  0  0  0  0  0  0  0  0
    0.9200   -0.3100    0.0000 C   0  0  0  0  0  0  0  0  0  0  0  0
    2.2200    0.4400    0.0000 C   0  0  0  0  0  0  0  0  0  0  0  0
   -0.3800    0.4400    0.0000 C   0  0  0  0  0  0  0  0  0  0  0  0
   -2.9800    0.4400    0.0000 C   0  0  0  0  0  0  0  0  0  0  0  0
    3.6500    2.4000    0.0000 C   0  0  0  0  0  0  0  0  0  0  0  0
    2.2200    1.9400    0.0000 C   0  0  0  0  0  0  0  0  0  0  0  0
   -1.6800   -0.3100    0.0000 C   0  0  0  0  0  0  0  0  0  0  0  0
    6.5852    3.0201    0.0000 O   0  0  0  0  0  0  0  0  0  0  0  0
   -2.9800    1.9400    0.0000 O   0  0  0  0  0  0  0  0  0  0  0  0
    4.1153    3.8260    0.0000 O   0  0  0  0  0  0  0  0  0  0  0  0
  5  4  1  0
  6  4  2  0
  8  7  1  0
 10  9  1  0
 12 11  1  0
 13  1  1  0
 14  5  1  1
 14  7  1  0
 15  8  1  6
 16  9  1  1
 16 15  1  0
 17 11  1  1
 17 15  1  0
 18  6  1  0
 19 10  1  0
 20  2  1  1
 20 12  1  0
 20 16  1  0
 20 19  1  0
 21  3  1  1
 21 14  1  0
 21 17  1  0
 21 18  1  0
 22 13  2  0
 18 23  1  6
 24 13  1  0
 19 24  1  1
M  END
>  <NAME>  (2721) 
17BETA-ACETOXY-1ALPHA-HYDROXY-5ALPHA-ANDROST-2-ENE

>  <SYNONYMS>  (2721) 


>  <SPECTRUM TYPE>  (2721) 
MS1

>  <INSTRUMENT TYPE>  (2721) 
EI-B

>  <INSTRUMENT>  (2721) 
HITACHI M-80

>  <ION MODE>  (2721) 
P

>  <INCHIKEY>  (2721) 
DKRVGISYZLHNHZ-NDUYDNQLSA-N

>  <FORMULA>  (2721) 
C21H32O3

>  <EXACT MASS>  (2721) 
332.23514488399996

>  <MW>  (2721) 
332

>  <ID>  (2721) 
JP008148

>  <CONTRIBUTOR>  (2721) 
University of Tokyo Team, {Faculty of Engineering, University of Tokyo

>  <COMMENT>  (2721) 
SMILES=CC(=O)OC([H])(C4)C(C)(C3)C([H])(C4)C([H])(C1)C([H])(C3)C(C)(C([H])(O)2)C([H])(CC([H])=C([H])2)C1
InChI=InChI=1S/C21H32O3/c1-13(22)24-19-10-9-16-15-8-7-14-5-4-6-18(23)21(14,3)17(15)11-12-20(16,19)2/h4,6,14-19,23H,5,7-12H2,1-3H3/t14-,15+,16+,17+,18+,19+,20+,21+/m1/s1
computed SMILES=O=C(OC1CCC2C3CCC4CC=CC(O)C4(C)C3CCC12C)C
accession=JP008148
date=2016.01.19 (Created 2008.10.21, modified 2011.05.06)
author=NARA WOMEN'S UNIVERSITY
license=CC BY-NC-SA
exact mass=332.23514
ionization energy=70 eV
ion type=[M]+*
computed spectral entropy=3.580512709632757
computed normalized entropy=0.8170905857351608
SPLASH=splash10-0udi-3491000000-d820588b04c2469b5aa1
submitter=submitter = University of Tokyo Team (Faculty of Engineering, University of Tokyo)
MoNA Rating=3.75

>  <NUM PEAKS>  (2721) 
80

>  <MASS SPECTRAL PEAKS>  (2721) 
29 1.29
39 1.06
41 4.43
43 20.14
53 1.33
55 4.21
57 0.94
67 3.14
69 1.85
70 13.67
71 0.99
77 2.84
79 5.88
80 1.28
81 7.64
91 6.49
92 1.89
93 7.96
94 3.99
95 5.63
105 7.32
106 3.52
107 8.67
108 2.91
109 3.63
117 1.75
118 1.17
119 3.28
120 2.15
121 5.37
122 1.52
123 1.25
124 1.92
131 5.14
132 1.31
133 3.95
134 2.04
135 2.17
143 1.06
145 4.28
146 4.24
147 6.49
148 1.87
149 1.97
150 1
157 1.2
159 4.17
160 2.57
161 5.86
162 1.35
163 1.75
173 4.91
174 2.2
175 1.34
187 11.66
188 2.05
199 1.67
201 5.14
202 30.38
203 99.99
204 16.03
205 1.56
220 1
221 5.12
239 2.12
254 2.78
255 3.35
257 2.22
260 1.21
261 3.79
262 40.11
263 20.53
264 3.26
272 8.76
273 1.94
314 5.81
315 3.19
332 36.15
333 8.53
334 1.19

>  <PREDICTED SPECTRUM>  (2721) 
29 72
39 52
40 18
41 235
42 0
43 554
44 22
53 87
55 237
56 29
57 136
65 51
66 45
67 191
68 72
69 144
70 119
71 51
77 154
79 226
80 28
81 217
82 19
83 92
84 68
85 28
91 315
92 98
93 276
94 244
95 239
96 69
97 85
98 7
99 2
105 222
106 147
107 309
108 159
109 153
110 40
111 110
113 52
117 87
118 6
119 202
120 74
121 172
122 56
123 98
124 39
125 28
127 47
128 45
129 54
130 24
131 185
132 135
133 259
134 78
135 69
136 52
137 104
138 49
139 81
141 43
145 155
146 170
147 229
148 136
149 213
151 67
152 11
153 115
154 3
155 11
157 69
159 182
160 144
161 333
162 112
163 94
164 67
165 59
166 30
171 49
172 4
173 150
174 94
175 131
176 187
177 89
181 0
185 21
186 67
187 337
188 86
189 68
190 25
199 92
200 55
201 432
202 707
203 999
204 365
205 192
206 26
211 18
213 21
218 25
219 3
220 100
221 120
229 50
230 30
233 60
239 67
240 3
245 6
246 21
247 28
254 96
255 141
257 128
260 36
261 87
262 880
263 587
264 193
272 157
273 110
278 67
299 1
314 230
315 125
332 601
333 230
334 54

$$$$

     RDKit          2D

 27 26  0  0  0  0  0  0  0  0999 V2000
    8.4437   14.6250    0.0000 C   0  0  0  0  0  0  0  0  0  0  0  0
  -25.3312   14.6250    0.0000 C   0  0  0  0  0  0  0  0  0  0  0  0
    7.1447   15.3750    0.0000 C   0  0  0  0  0  0  0  0  0  0  0  0
  -24.0322   15.3750    0.0000 C   0  0  0  0  0  0  0  0  0  0  0  0
    5.8457   14.6250    0.0000 C   0  0  0  0  0  0  0  0  0  0  0  0
  -22.7332   14.6250    0.0000 C   0  0  0  0  0  0  0  0  0  0  0  0
    4.5466   15.3750    0.0000 C   0  0  0  0  0  0  0  0  0  0  0  0
  -21.4341   15.3750    0.0000 C   0  0  0  0  0  0  0  0  0  0  0  0
    3.2476   14.6250    0.0000 C   0  0  0  0  0  0  0  0  0  0  0  0
  -20.1351   14.6250    0.0000 C   0  0  0  0  0  0  0  0  0  0  0  0
    1.9486   15.3750    0.0000 C   0  0  0  0  0  0  0  0  0  0  0  0
  -18.8361   15.3750    0.0000 C   0  0  0  0  0  0  0  0  0  0  0  0
    0.6495   14.6250    0.0000 C   0  0  0  0  0  0  0  0  0  0  0  0
  -17.5370   14.6250    0.0000 C   0  0  0  0  0  0  0  0  0  0  0  0
   -0.6495   15.3750    0.0000 C   0  0  0  0  0  0  0  0  0  0  0  0
  -16.2380   15.3750    0.0000 C   0  0  0  0  0  0  0  0  0  0  0  0
   -1.9486   14.6250    0.0000 C   0  0  0  0  0  0  0  0  0  0  0  0
  -14.9389   14.6250    0.0000 C   0  0  0  0  0  0  0  0  0  0  0  0
   -3.2476   15.3750    0.0000 C   0  0  0  0  0  0  0  0  0  0  0  0
  -13.6399   15.3750    0.0000 C   0  0  0  0  0  0  0  0  0  0  0  0
   -4.5466   14.6250    0.0000 C   0  0  0  0  0  0  0  0  0  0  0  0
  -12.3409   14.6250    0.0000 C   0  0  0  0  0  0  0  0  0  0  0  0
   -5.8457   15.3750    0.0000 C   0  0  0  0  0  0  0  0  0  0  0  0
  -11.0418   15.3750    0.0000 C   0  0  0  0  0  0  0  0  0  0  0  0
   -7.1447   14.6250    0.0000 C   0  0  0  0  0  0  0  0  0  0  0  0
   -9.7428   14.6250    0.0000 C   0  0  0  0  0  0  0  0  0  0  0  0
   -8.4437   15.3750    0.0000 C   0  0  0  0  0  0  0  0  0  0  0  0
  3  1  1  0
  4  2  1  0
  5  3  1  0
  6  4  1  0
  7  5  1  0
  8  6  1  0
  9  7  1  0
 10  8  1  0
 11  9  1  0
 12 10  1  0
 13 11  1  0
 14 12  1  0
 15 13  1  0
 16 14  1  0
 17 15  1  0
 18 16  1  0
 19 17  1  0
 20 18  1  0
 21 19  1  0
 22 20  1  0
 23 21  1  0
 24 22  1  0
 25 23  1  0
 26 24  1  0
 27 25  1  0
 27 26  1  0
M  END
>  <NAME>  (2722) 
HEPTACOSANE

>  <SYNONYMS>  (2722) 


>  <SPECTRUM TYPE>  (2722) 
MS1

>  <INSTRUMENT TYPE>  (2722) 
EI-B

>  <INSTRUMENT>  (2722) 
HITACHI M-80B

>  <ION MODE>  (2722) 
P

>  <INCHIKEY>  (2722) 
BJQWYEJQWHSSCJ-UHFFFAOYSA-N

>  <FORMULA>  (2722) 
C27H56

>  <EXACT MASS>  (2722) 
380.438201792

>  <MW>  (2722) 
380

>  <ID>  (2722) 
JP008147

>  <CONTRIBUTOR>  (2722) 
University of Tokyo Team, {Faculty of Engineering, University of Tokyo

>  <COMMENT>  (2722) 
SMILES=CCCCCCCCCCCCCCCCCCCCCCCCCCC
InChI=InChI=1S/C27H56/c1-3-5-7-9-11-13-15-17-19-21-23-25-27-26-24-22-20-18-16-14-12-10-8-6-4-2/h3-27H2,1-2H3
computed SMILES=CCCCCCCCCCCCCCCCCCCCCCCCCCC
accession=JP008147
date=2016.01.19 (Created 2008.10.21, modified 2011.05.06)
author=YAMAOKA R, KYOTO INSTITUTE OF TECHNOLOGY
license=CC BY-NC-SA
exact mass=380.4382
ionization energy=70 eV
ion type=[M]+*
computed spectral entropy=3.1634095337053525
computed normalized entropy=0.7930363964303161
SPLASH=splash10-0a4l-9100000000-02c358247c7c4db70fd3
submitter=submitter = University of Tokyo Team (Faculty of Engineering, University of Tokyo)
MoNA Rating=3.75

>  <NUM PEAKS>  (2722) 
54

>  <MASS SPECTRAL PEAKS>  (2722) 
41 20
42 8.52
43 69.12
55 27.55
56 18.8
57 99.99
58 5.08
67 1.54
68 4.14
69 16.39
70 13.65
71 69.81
72 3.56
81 2.27
82 3.96
83 17.57
84 10.64
85 57.71
86 3.21
95 2.35
97 16.16
98 3.75
99 15.17
111 5.6
112 4.23
113 11.2
125 2.56
126 3.63
127 7.16
139 2.04
140 3.41
141 7.08
154 3.4
155 6.98
168 2.39
169 3.37
182 2.62
183 5.77
196 1.66
197 5.85
207 2.84
210 2.26
211 2.7
225 6.11
239 2.58
253 2.73
266 1.09
267 1.42
280 1.09
294 1.35
295 1.54
309 1.68
323 1.38
380 4.63

>  <PREDICTED SPECTRUM>  (2722) 
26 15
27 110
28 34
29 136
30 44
39 111
40 52
41 438
42 243
43 830
44 146
45 21
51 26
52 12
53 127
54 165
55 471
56 400
57 999
58 185
59 12
65 15
66 57
67 193
68 233
69 417
70 314
71 860
72 227
77 1
79 47
80 34
81 161
82 258
83 364
84 283
85 701
86 174
94 18
95 101
96 192
97 369
98 231
99 412
100 74
105 3
107 10
108 0
109 92
110 113
111 294
112 233
113 364
114 77
123 25
124 108
125 167
126 204
127 334
128 71
135 22
137 5
138 58
139 124
140 194
141 275
142 71
150 10
151 0
152 80
153 121
154 171
155 277
156 67
166 32
167 76
168 187
169 218
170 83
180 2
181 79
182 120
183 208
184 29
195 95
196 114
197 147
198 31
209 40
210 142
211 169
212 4
222 56
223 57
224 153
225 106
226 49
237 1
238 99
239 107
240 40
251 10
252 132
253 141
254 7
264 8
266 71
267 74
280 154
281 87
282 36
294 65
295 132
308 95
309 62
310 22
322 98
323 108
324 59
336 100
337 121
338 9
350 43
351 132
352 75
364 79
365 77
366 23
378 51
379 79
380 103
381 28

$$$$

     RDKit          2D

 25 24  0  0  0  0  0  0  0  0999 V2000
  -14.6142    3.9375    0.0000 C   0  0  0  0  0  0  0  0  0  0  0  0
    3.5724   -5.0625    0.0000 C   0  0  0  0  0  0  0  0  0  0  0  0
  -15.9132    3.1875    0.0000 C   0  0  0  0  0  0  0  0  0  0  0  0
    2.2733   -5.8125    0.0000 C   0  0  0  0  0  0  0  0  0  0  0  0
  -15.9132    1.6875    0.0000 C   0  0  0  0  0  0  0  0  0  0  0  0
    0.9743   -5.0625    0.0000 C   0  0  0  0  0  0  0  0  0  0  0  0
  -17.2123    0.9375    0.0000 C   0  0  0  0  0  0  0  0  0  0  0  0
   -0.3248   -5.8125    0.0000 C   0  0  0  0  0  0  0  0  0  0  0  0
  -17.2123   -0.5625    0.0000 C   0  0  0  0  0  0  0  0  0  0  0  0
   -1.6238   -5.0625    0.0000 C   0  0  0  0  0  0  0  0  0  0  0  0
  -18.5113   -1.3125    0.0000 C   0  0  0  0  0  0  0  0  0  0  0  0
   -2.9228   -5.8125    0.0000 C   0  0  0  0  0  0  0  0  0  0  0  0
  -18.5113   -2.8125    0.0000 C   0  0  0  0  0  0  0  0  0  0  0  0
   -4.2219   -5.0625    0.0000 C   0  0  0  0  0  0  0  0  0  0  0  0
  -17.2123   -3.5625    0.0000 C   0  0  0  0  0  0  0  0  0  0  0  0
   -5.5209   -5.8125    0.0000 C   0  0  0  0  0  0  0  0  0  0  0  0
  -17.2123   -5.0625    0.0000 C   0  0  0  0  0  0  0  0  0  0  0  0
   -6.8200   -5.0625    0.0000 C   0  0  0  0  0  0  0  0  0  0  0  0
  -15.9132   -5.8125    0.0000 C   0  0  0  0  0  0  0  0  0  0  0  0
   -8.1190   -5.8125    0.0000 C   0  0  0  0  0  0  0  0  0  0  0  0
  -14.6142   -5.0625    0.0000 C   0  0  0  0  0  0  0  0  0  0  0  0
   -9.4180   -5.0625    0.0000 C   0  0  0  0  0  0  0  0  0  0  0  0
  -13.3151   -5.8125    0.0000 C   0  0  0  0  0  0  0  0  0  0  0  0
  -10.7171   -5.8125    0.0000 C   0  0  0  0  0  0  0  0  0  0  0  0
  -12.0161   -5.0625    0.0000 C   0  0  0  0  0  0  0  0  0  0  0  0
  3  1  1  0
  4  2  1  0
  5  3  1  0
  6  4  1  0
  7  5  1  0
  8  6  1  0
  9  7  1  0
 10  8  1  0
 11  9  1  0
 12 10  1  0
 11 13  2  0
 14 12  1  0
 15 13  1  0
 16 14  1  0
 17 15  1  0
 18 16  1  0
 17 19  2  0
 20 18  1  0
 21 19  1  0
 22 20  1  0
 23 21  1  0
 24 22  1  0
 25 23  1  0
 25 24  1  0
M  END
>  <NAME>  (2723) 
(6Z,9Z)-6,9-PENTACOSADIENE

>  <SYNONYMS>  (2723) 


>  <SPECTRUM TYPE>  (2723) 
MS1

>  <INSTRUMENT TYPE>  (2723) 
EI-B

>  <INSTRUMENT>  (2723) 
HITACHI M-80B

>  <ION MODE>  (2723) 
P

>  <INCHIKEY>  (2723) 
HEDSUJXTHUJEDT-OHNCOSGTSA-N

>  <FORMULA>  (2723) 
C25H48

>  <EXACT MASS>  (2723) 
348.375601536

>  <MW>  (2723) 
348

>  <ID>  (2723) 
JP008146

>  <CONTRIBUTOR>  (2723) 
University of Tokyo Team, {Faculty of Engineering, University of Tokyo

>  <COMMENT>  (2723) 
SMILES=CCCCCCCCCCCCCCCC([H])=C([H])CC([H])=C([H])CCCCC
InChI=InChI=1S/C25H48/c1-3-5-7-9-11-13-15-17-19-21-23-25-24-22-20-18-16-14-12-10-8-6-4-2/h11,13,17,19H,3-10,12,14-16,18,20-25H2,1-2H3/b13-11-,19-17-
computed SMILES=C(=CCCCCC)CC=CCCCCCCCCCCCCCCC
accession=JP008146
date=2016.01.19 (Created 2008.10.21, modified 2011.05.06)
author=YAMAOKA R, KYOTO INSTITUTE OF TECHNOLOGY
license=CC BY-NC-SA
exact mass=348.3756
ionization energy=70 eV
ion type=[M]+*
computed spectral entropy=3.501643315734272
computed normalized entropy=0.8327941261593272
SPLASH=splash10-00lu-9100000000-5c478290be64fe507b59
submitter=submitter = University of Tokyo Team (Faculty of Engineering, University of Tokyo)
MoNA Rating=3.75

>  <NUM PEAKS>  (2723) 
67

>  <MASS SPECTRAL PEAKS>  (2723) 
41 89.37
42 3.13
43 94.88
44 6.13
53 2.33
54 57.65
55 99.99
56 16.72
57 54.16
58 3.8
60 1.57
65 3.41
66 8.07
67 92.34
68 55.17
69 63.63
70 9.25
71 24.12
72 2.86
75 1.95
77 5.53
78 3.59
79 32.17
80 9
81 64.07
82 84.01
83 61.68
84 10.14
85 9.61
91 6.02
92 2.24
93 11.49
95 57.24
96 84.95
97 45.56
98 10.35
99 2.94
107 1.74
108 5.96
109 26.29
110 62.28
111 18.46
113 1.41
121 2.23
123 16.42
124 24.65
125 16.61
126 2.46
131 2.55
137 6.63
138 13.51
151 1.99
153 4.6
166 2.88
181 2.87
193 2
207 3.06
208 1.68
236 3.64
250 3.37
281 7.68
283 1.52
290 1.71
346 1.88
348 21.66
349 5.35
350 4.7

>  <PREDICTED SPECTRUM>  (2723) 
27 112
28 32
29 186
32 5
39 202
40 80
41 841
42 346
43 840
44 190
45 19
50 4
51 43
52 66
53 294
54 636
55 865
56 426
57 675
58 97
65 172
66 262
67 971
68 684
69 716
70 338
71 445
72 56
73 15
75 12
77 265
78 162
79 518
80 423
81 963
82 999
83 756
84 269
85 395
86 21
87 28
91 177
92 74
93 221
94 112
95 828
96 930
97 599
98 220
99 104
101 51
103 20
104 6
105 75
106 39
107 72
108 161
109 613
110 676
111 467
112 115
113 46
120 4
121 104
122 102
123 462
124 482
125 245
126 65
127 0
135 29
136 67
137 303
138 377
139 74
151 160
152 230
153 82
154 29
155 11
165 95
166 212
167 30
179 109
180 133
181 76
182 15
193 42
194 162
207 141
208 131
221 64
222 125
223 22
224 5
235 71
236 221
237 1
238 45
249 78
250 81
263 4
264 31
277 26
278 57
279 14
291 22
292 24
306 8
320 10
333 4
334 9
348 422
349 193
350 130
351 17

$$$$

     RDKit          2D

 23 22  0  0  0  0  0  0  0  0999 V2000
   -2.9228   -7.3125    0.0000 C   0  0  0  0  0  0  0  0  0  0  0  0
  -18.5113    1.6875    0.0000 C   0  0  0  0  0  0  0  0  0  0  0  0
   -1.6238   -6.5625    0.0000 C   0  0  0  0  0  0  0  0  0  0  0  0
  -17.2123    2.4375    0.0000 C   0  0  0  0  0  0  0  0  0  0  0  0
   -1.6238   -5.0625    0.0000 C   0  0  0  0  0  0  0  0  0  0  0  0
  -15.9132    1.6875    0.0000 C   0  0  0  0  0  0  0  0  0  0  0  0
   -0.3248   -4.3125    0.0000 C   0  0  0  0  0  0  0  0  0  0  0  0
  -14.6142    2.4375    0.0000 C   0  0  0  0  0  0  0  0  0  0  0  0
   -0.3248   -2.8125    0.0000 C   0  0  0  0  0  0  0  0  0  0  0  0
  -13.3151    1.6875    0.0000 C   0  0  0  0  0  0  0  0  0  0  0  0
    0.9743   -2.0625    0.0000 C   0  0  0  0  0  0  0  0  0  0  0  0
  -12.0161    2.4375    0.0000 C   0  0  0  0  0  0  0  0  0  0  0  0
    0.9743   -0.5625    0.0000 C   0  0  0  0  0  0  0  0  0  0  0  0
  -10.7171    1.6875    0.0000 C   0  0  0  0  0  0  0  0  0  0  0  0
   -0.3248    0.1875    0.0000 C   0  0  0  0  0  0  0  0  0  0  0  0
   -9.4180    2.4375    0.0000 C   0  0  0  0  0  0  0  0  0  0  0  0
   -0.3248    1.6875    0.0000 C   0  0  0  0  0  0  0  0  0  0  0  0
   -8.1190    1.6875    0.0000 C   0  0  0  0  0  0  0  0  0  0  0  0
   -1.6238    2.4375    0.0000 C   0  0  0  0  0  0  0  0  0  0  0  0
   -6.8200    2.4375    0.0000 C   0  0  0  0  0  0  0  0  0  0  0  0
   -2.9228    1.6875    0.0000 C   0  0  0  0  0  0  0  0  0  0  0  0
   -5.5209    1.6875    0.0000 C   0  0  0  0  0  0  0  0  0  0  0  0
   -4.2219    2.4375    0.0000 C   0  0  0  0  0  0  0  0  0  0  0  0
  3  1  1  0
  4  2  1  0
  5  3  1  0
  6  4  1  0
  7  5  1  0
  8  6  1  0
  9  7  1  0
 10  8  1  0
 11  9  1  0
 12 10  1  0
 11 13  2  0
 14 12  1  0
 15 13  1  0
 16 14  1  0
 17 15  1  0
 18 16  1  0
 17 19  2  0
 20 18  1  0
 21 19  1  0
 22 20  1  0
 23 21  1  0
 23 22  1  0
M  END
>  <NAME>  (2724) 
(6Z,9Z)-6,9-TRICOSADIENE

>  <SYNONYMS>  (2724) 


>  <SPECTRUM TYPE>  (2724) 
MS1

>  <INSTRUMENT TYPE>  (2724) 
EI-B

>  <INSTRUMENT>  (2724) 
HITACHI M-80B

>  <ION MODE>  (2724) 
P

>  <INCHIKEY>  (2724) 
QVTSRBNFHQATMF-OHNCOSGTSA-N

>  <FORMULA>  (2724) 
C23H44

>  <EXACT MASS>  (2724) 
320.344301408

>  <MW>  (2724) 
320

>  <ID>  (2724) 
JP008144

>  <CONTRIBUTOR>  (2724) 
University of Tokyo Team, {Faculty of Engineering, University of Tokyo

>  <COMMENT>  (2724) 
SMILES=CCCCCCCCCCCCCC([H])=C([H])CC([H])=C([H])CCCCC
InChI=InChI=1S/C23H44/c1-3-5-7-9-11-13-15-17-19-21-23-22-20-18-16-14-12-10-8-6-4-2/h11,13,17,19H,3-10,12,14-16,18,20-23H2,1-2H3/b13-11-,19-17-
computed SMILES=C(=CCCCCC)CC=CCCCCCCCCCCCCC
accession=JP008144
date=2016.01.19 (Created 2008.10.21, modified 2011.05.06)
author=YAMAOKA R, KYOTO INSTITUTE OF TECHNOLOGY
license=CC BY-NC-SA
exact mass=320.3443
ionization energy=70 eV
ion type=[M]+*
computed spectral entropy=3.438586569035858
computed normalized entropy=0.826805298469238
SPLASH=splash10-00lv-9100000000-0bf407290f48e729789a
submitter=submitter = University of Tokyo Team (Faculty of Engineering, University of Tokyo)
MoNA Rating=3.75

>  <NUM PEAKS>  (2724) 
64

>  <MASS SPECTRAL PEAKS>  (2724) 
41 54.14
42 7.68
43 55.77
51 1.47
53 9.23
54 55.89
55 73.83
56 7.96
57 34.82
58 1.88
65 2.61
66 5.37
67 99.99
68 49.47
69 28.21
70 5.28
71 7.84
77 11.23
78 2.76
79 29.75
80 25.08
81 87.57
82 83.24
83 33.11
84 3.94
85 5.59
91 7.65
92 1.29
93 5.94
94 4.47
95 63.39
96 80.67
97 32.08
98 2.74
99 1.09
105 1.03
107 1.5
108 1.04
109 33.67
110 57.42
111 10.92
121 1.33
122 1.11
123 18.56
124 20.72
125 6.01
126 1.2
137 9.74
138 18.52
139 2.3
151 5.18
152 4.35
165 1.28
166 5.9
169 1.26
179 1.7
180 3.6
194 3.13
208 1.57
222 3.83
223 1.31
250 1.04
320 16.86
321 4.56

>  <PREDICTED SPECTRUM>  (2724) 
27 136
28 46
29 224
30 19
39 226
40 100
41 891
42 378
43 849
44 208
45 43
50 19
51 75
52 91
53 332
54 672
55 865
56 429
57 637
58 93
59 35
63 8
65 205
66 282
67 999
68 712
69 700
70 342
71 402
72 57
73 81
74 39
75 29
76 2
77 304
78 181
79 554
80 418
81 964
82 965
83 693
84 257
85 354
86 26
91 172
92 74
93 226
94 116
95 815
96 898
97 538
98 215
99 62
103 45
104 19
105 69
106 15
107 80
108 123
109 600
110 668
111 429
112 102
121 97
122 81
123 412
124 457
125 213
126 42
127 16
136 4
137 245
138 355
139 45
151 156
152 211
153 64
154 57
165 82
166 206
167 27
179 133
180 162
181 64
193 70
194 160
195 56
196 12
207 155
208 243
209 61
210 29
221 69
222 79
235 2
236 21
249 36
250 65
251 1
263 19
277 1
278 5
292 35
320 397
321 221
322 5

$$$$

     RDKit          2D

 27 26  0  0  0  0  0  0  0  0999 V2000
  -12.3409    7.8750    0.0000 C   0  0  0  0  0  0  0  0  0  0  0  0
   16.2380   16.8750    0.0000 C   0  0  0  0  0  0  0  0  0  0  0  0
  -11.0418    8.6250    0.0000 C   0  0  0  0  0  0  0  0  0  0  0  0
   14.9389   17.6250    0.0000 C   0  0  0  0  0  0  0  0  0  0  0  0
  -11.0418   10.1250    0.0000 C   0  0  0  0  0  0  0  0  0  0  0  0
   13.6399   16.8750    0.0000 C   0  0  0  0  0  0  0  0  0  0  0  0
   -9.7428   10.8750    0.0000 C   0  0  0  0  0  0  0  0  0  0  0  0
   12.3409   17.6250    0.0000 C   0  0  0  0  0  0  0  0  0  0  0  0
   -9.7428   12.3750    0.0000 C   0  0  0  0  0  0  0  0  0  0  0  0
   11.0418   16.8750    0.0000 C   0  0  0  0  0  0  0  0  0  0  0  0
   -8.4437   13.1250    0.0000 C   0  0  0  0  0  0  0  0  0  0  0  0
    9.7428   17.6250    0.0000 C   0  0  0  0  0  0  0  0  0  0  0  0
   -8.4437   14.6250    0.0000 C   0  0  0  0  0  0  0  0  0  0  0  0
    8.4437   16.8750    0.0000 C   0  0  0  0  0  0  0  0  0  0  0  0
   -7.1447   15.3750    0.0000 C   0  0  0  0  0  0  0  0  0  0  0  0
    7.1447   17.6250    0.0000 C   0  0  0  0  0  0  0  0  0  0  0  0
   -7.1447   16.8750    0.0000 C   0  0  0  0  0  0  0  0  0  0  0  0
    5.8457   16.8750    0.0000 C   0  0  0  0  0  0  0  0  0  0  0  0
   -5.8457   17.6250    0.0000 C   0  0  0  0  0  0  0  0  0  0  0  0
    4.5466   17.6250    0.0000 C   0  0  0  0  0  0  0  0  0  0  0  0
   -4.5466   16.8750    0.0000 C   0  0  0  0  0  0  0  0  0  0  0  0
    3.2476   16.8750    0.0000 C   0  0  0  0  0  0  0  0  0  0  0  0
   -3.2476   17.6250    0.0000 C   0  0  0  0  0  0  0  0  0  0  0  0
    1.9486   17.6250    0.0000 C   0  0  0  0  0  0  0  0  0  0  0  0
   -1.9486   16.8750    0.0000 C   0  0  0  0  0  0  0  0  0  0  0  0
    0.6495   16.8750    0.0000 C   0  0  0  0  0  0  0  0  0  0  0  0
   -0.6495   17.6250    0.0000 C   0  0  0  0  0  0  0  0  0  0  0  0
  3  1  1  0
  4  2  1  0
  5  3  1  0
  6  4  1  0
  7  5  1  0
  8  6  1  0
  9  7  1  0
 10  8  1  0
 11  9  1  0
 12 10  1  0
 13 11  1  0
 14 12  1  0
 15 13  1  0
 16 14  1  0
 17 15  1  0
 18 16  1  0
 17 19  2  0
 20 18  1  0
 21 19  1  0
 22 20  1  0
 23 21  1  0
 24 22  1  0
 25 23  1  0
 26 24  1  0
 27 25  1  0
 27 26  1  0
M  END
>  <NAME>  (2725) 
(Z)-9-HEPTACOSENE

>  <SYNONYMS>  (2725) 


>  <SPECTRUM TYPE>  (2725) 
MS1

>  <INSTRUMENT TYPE>  (2725) 
EI-B

>  <INSTRUMENT>  (2725) 
HITACHI M-80B

>  <ION MODE>  (2725) 
P

>  <INCHIKEY>  (2725) 
WWHBGRQNRIORRZ-ZPHPHTNESA-N

>  <FORMULA>  (2725) 
C27H54

>  <EXACT MASS>  (2725) 
378.422551728

>  <MW>  (2725) 
378

>  <ID>  (2725) 
JP008143

>  <CONTRIBUTOR>  (2725) 
University of Tokyo Team, {Faculty of Engineering, University of Tokyo

>  <COMMENT>  (2725) 
SMILES=CCCCCCCCCCCCCCCCCC([H])=C([H])CCCCCCCC
InChI=InChI=1S/C27H54/c1-3-5-7-9-11-13-15-17-19-21-23-25-27-26-24-22-20-18-16-14-12-10-8-6-4-2/h17,19H,3-16,18,20-27H2,1-2H3/b19-17-
computed SMILES=C(=CCCCCCCCCCCCCCCCCC)CCCCCCCC
accession=JP008143
date=2016.01.19 (Created 2008.10.21, modified 2011.05.06)
author=YAMAOKA R, KYOTO INSTITUTE OF TECHNOLOGY
license=CC BY-NC-SA
exact mass=378.42255
ionization energy=70 eV
ion type=[M]+*
computed spectral entropy=3.360090154193623
computed normalized entropy=0.8141460492222163
SPLASH=splash10-0a4l-9100000000-a1a648eb44f13c880399
submitter=submitter = University of Tokyo Team (Faculty of Engineering, University of Tokyo)
MoNA Rating=3.75

>  <NUM PEAKS>  (2725) 
62

>  <MASS SPECTRAL PEAKS>  (2725) 
41 44.74
42 11.04
43 99.99
53 3.82
54 18.31
55 77.13
56 35.78
57 95.83
58 5.81
65 1.23
66 2.84
67 20.72
68 14.86
69 66.63
70 34.55
71 47.64
72 2.82
79 3.38
80 1.77
81 13.19
82 25.64
83 87.49
84 26.6
85 30.3
86 1.54
93 1.38
95 9.13
96 18.33
97 76.95
98 16.44
99 9.66
109 3.69
110 6.67
111 40.06
112 13.76
113 5.66
123 2.65
124 5.49
125 17.78
126 6.35
127 2.96
137 1.51
138 3.35
139 6.76
140 6.2
141 2.36
152 1.6
153 4.48
154 3.24
166 1.71
167 4.19
168 2.48
180 1.38
181 1.76
182 1.73
195 1.44
196 1.37
210 1.08
223 1.23
224 1.04
378 6.48
379 2.32

>  <PREDICTED SPECTRUM>  (2725) 
25 9
26 16
27 123
28 55
29 196
30 53
32 4
37 2
38 11
39 146
40 65
41 750
42 336
43 981
44 164
51 20
52 5
53 172
54 366
55 974
56 672
57 999
58 191
59 24
63 11
65 93
66 141
67 442
68 410
69 901
70 599
71 768
72 177
77 72
78 23
79 174
80 126
81 404
82 582
83 975
84 481
85 607
86 77
91 59
93 21
94 17
95 336
96 500
97 896
98 391
99 304
100 15
109 238
110 340
111 681
112 331
113 284
114 10
119 8
123 134
124 287
125 539
126 263
127 194
128 0
136 12
137 71
138 179
139 289
140 231
141 108
151 42
152 192
153 231
154 206
155 89
165 37
166 126
167 208
168 171
169 98
179 7
180 100
181 148
182 106
183 45
194 36
195 154
196 115
208 31
209 106
210 81
211 44
222 62
223 75
224 91
225 34
236 24
237 44
238 93
239 32
250 96
251 111
252 117
253 12
265 15
266 100
279 53
280 117
281 27
292 14
293 5
294 42
295 45
306 17
307 35
308 48
321 10
322 11
334 6
335 15
336 30
337 5
349 6
350 85
351 4
363 32
364 22
376 63
377 37
378 243
379 210
380 76
381 5

$$$$

     RDKit          2D

 29 28  0  0  0  0  0  0  0  0999 V2000
    9.0933   15.7500    0.0000 C   0  0  0  0  0  0  0  0  0  0  0  0
  -27.2798   15.7500    0.0000 C   0  0  0  0  0  0  0  0  0  0  0  0
    7.7942   16.5000    0.0000 C   0  0  0  0  0  0  0  0  0  0  0  0
  -25.9808   16.5000    0.0000 C   0  0  0  0  0  0  0  0  0  0  0  0
    6.4952   15.7500    0.0000 C   0  0  0  0  0  0  0  0  0  0  0  0
  -24.6817   15.7500    0.0000 C   0  0  0  0  0  0  0  0  0  0  0  0
    5.1962   16.5000    0.0000 C   0  0  0  0  0  0  0  0  0  0  0  0
  -23.3827   16.5000    0.0000 C   0  0  0  0  0  0  0  0  0  0  0  0
    3.8971   15.7500    0.0000 C   0  0  0  0  0  0  0  0  0  0  0  0
  -22.0836   15.7500    0.0000 C   0  0  0  0  0  0  0  0  0  0  0  0
    2.5981   16.5000    0.0000 C   0  0  0  0  0  0  0  0  0  0  0  0
  -20.7846   16.5000    0.0000 C   0  0  0  0  0  0  0  0  0  0  0  0
    1.2990   15.7500    0.0000 C   0  0  0  0  0  0  0  0  0  0  0  0
  -19.4856   15.7500    0.0000 C   0  0  0  0  0  0  0  0  0  0  0  0
    0.0000   16.5000    0.0000 C   0  0  0  0  0  0  0  0  0  0  0  0
  -18.1865   16.5000    0.0000 C   0  0  0  0  0  0  0  0  0  0  0  0
   -1.2990   15.7500    0.0000 C   0  0  0  0  0  0  0  0  0  0  0  0
  -16.8875   15.7500    0.0000 C   0  0  0  0  0  0  0  0  0  0  0  0
   -2.5981   16.5000    0.0000 C   0  0  0  0  0  0  0  0  0  0  0  0
  -15.5885   16.5000    0.0000 C   0  0  0  0  0  0  0  0  0  0  0  0
   -3.8971   15.7500    0.0000 C   0  0  0  0  0  0  0  0  0  0  0  0
  -14.2894   15.7500    0.0000 C   0  0  0  0  0  0  0  0  0  0  0  0
   -5.1962   16.5000    0.0000 C   0  0  0  0  0  0  0  0  0  0  0  0
  -12.9904   16.5000    0.0000 C   0  0  0  0  0  0  0  0  0  0  0  0
   -6.4952   15.7500    0.0000 C   0  0  0  0  0  0  0  0  0  0  0  0
  -11.6913   15.7500    0.0000 C   0  0  0  0  0  0  0  0  0  0  0  0
   -7.7942   16.5000    0.0000 C   0  0  0  0  0  0  0  0  0  0  0  0
  -10.3923   16.5000    0.0000 C   0  0  0  0  0  0  0  0  0  0  0  0
   -9.0933   15.7500    0.0000 C   0  0  0  0  0  0  0  0  0  0  0  0
  3  1  1  0
  4  2  1  0
  5  3  1  0
  6  4  1  0
  7  5  1  0
  8  6  1  0
  9  7  1  0
 10  8  1  0
 11  9  1  0
 12 10  1  0
 13 11  1  0
 14 12  1  0
 15 13  1  0
 16 14  1  0
 17 15  1  0
 18 16  1  0
 19 17  1  0
 20 18  1  0
 21 19  1  0
 22 20  1  0
 23 21  1  0
 24 22  1  0
 25 23  1  0
 26 24  1  0
 27 25  1  0
 28 26  1  0
 29 27  1  0
 29 28  1  0
M  END
>  <NAME>  (2726) 
NONACOSANE

>  <SYNONYMS>  (2726) 


>  <SPECTRUM TYPE>  (2726) 
MS1

>  <INSTRUMENT TYPE>  (2726) 
EI-B

>  <INSTRUMENT>  (2726) 
HITACHI M-80B

>  <ION MODE>  (2726) 
P

>  <INCHIKEY>  (2726) 
IGGUPRCHHJZPBS-UHFFFAOYSA-N

>  <FORMULA>  (2726) 
C29H60

>  <EXACT MASS>  (2726) 
408.46950191999997

>  <MW>  (2726) 
408

>  <ID>  (2726) 
JP008141

>  <CONTRIBUTOR>  (2726) 
University of Tokyo Team, {Faculty of Engineering, University of Tokyo

>  <COMMENT>  (2726) 
SMILES=CCCCCCCCCCCCCCCCCCCCCCCCCCCCC
InChI=InChI=1S/C29H60/c1-3-5-7-9-11-13-15-17-19-21-23-25-27-29-28-26-24-22-20-18-16-14-12-10-8-6-4-2/h3-29H2,1-2H3
computed SMILES=CCCCCCCCCCCCCCCCCCCCCCCCCCCCC
accession=JP008141
date=2016.01.19 (Created 2008.10.21, modified 2011.05.06)
author=YAMAOKA R, KYOTO INSTITUTE OF TECHNOLOGY
license=CC BY-NC-SA
exact mass=408.4695
ionization energy=70 eV
ion type=[M]+*
computed spectral entropy=3.279672734205582
computed normalized entropy=0.7828026260271964
SPLASH=splash10-0abl-9100000000-1d9663244f481f209c4f
submitter=submitter = University of Tokyo Team (Faculty of Engineering, University of Tokyo)
MoNA Rating=3.75

>  <NUM PEAKS>  (2726) 
66

>  <MASS SPECTRAL PEAKS>  (2726) 
41 33.15
42 10.38
43 98.73
45 1.63
54 1.72
55 29.33
56 18.29
57 95.5
58 10.59
68 5.27
69 29.44
70 11.09
71 99.99
72 7.27
82 3.98
83 12.8
84 10.24
85 94.49
86 7.37
95 1.56
97 14.74
98 8.85
99 21.74
100 1.48
110 2.21
111 9.1
112 9.17
113 13.68
114 2.06
125 3.37
126 7.61
127 16.52
139 2.48
140 4.63
141 11.11
154 3.06
155 10.22
156 1.17
168 5.18
169 4.09
182 2.74
183 7.52
196 1.45
197 5.17
207 6.44
208 1.91
211 5.15
212 1.05
224 2.54
225 1.63
238 3.15
239 4.47
252 2.01
253 3.74
266 1.04
267 3.2
283 1.3
294 1.31
295 2.74
308 1.01
309 1.84
323 2.31
337 2.11
351 1.1
408 5.1
409 1.93

>  <PREDICTED SPECTRUM>  (2726) 
26 13
27 86
28 18
29 136
30 1
39 97
40 43
41 406
42 226
43 800
44 137
45 0
51 13
53 115
54 156
55 466
56 400
57 999
58 194
65 2
66 49
67 183
68 237
69 434
70 312
71 856
72 235
73 5
79 49
80 37
81 168
82 271
83 380
84 282
85 707
86 183
87 10
93 11
94 6
95 109
96 195
97 388
98 233
99 412
100 67
107 2
108 5
109 85
110 114
111 299
112 235
113 368
114 53
122 22
123 62
124 117
125 177
126 206
127 337
128 67
135 41
137 81
138 70
139 159
140 206
141 277
142 54
150 35
151 0
152 105
153 124
154 168
155 283
156 58
166 40
167 88
168 197
169 228
170 84
181 90
182 138
183 222
184 48
194 27
195 98
196 165
197 183
198 45
209 65
210 149
211 167
212 23
223 76
224 185
225 134
226 63
237 32
238 124
239 133
240 17
250 56
251 40
252 167
253 151
254 14
264 34
265 1
266 102
267 74
268 15
280 166
281 86
282 12
294 78
295 88
296 1
308 96
309 79
310 29
322 77
323 121
324 35
336 107
337 112
338 15
350 66
351 62
352 41
364 98
365 107
378 70
379 124
380 57
392 52
393 80
394 63
406 36
407 90
408 96

$$$$

     RDKit          2D

 31 30  0  0  0  0  0  0  0  0999 V2000
  -20.4599    0.5625    0.0000 C   0  0  0  0  0  0  0  0  0  0  0  0
    5.5209   -8.4375    0.0000 C   0  0  0  0  0  0  0  0  0  0  0  0
  -21.7589   -0.1875    0.0000 C   0  0  0  0  0  0  0  0  0  0  0  0
    4.2219   -9.1875    0.0000 C   0  0  0  0  0  0  0  0  0  0  0  0
  -21.7589   -1.6875    0.0000 C   0  0  0  0  0  0  0  0  0  0  0  0
    2.9228   -8.4375    0.0000 C   0  0  0  0  0  0  0  0  0  0  0  0
  -23.0579   -2.4375    0.0000 C   0  0  0  0  0  0  0  0  0  0  0  0
    1.6238   -9.1875    0.0000 C   0  0  0  0  0  0  0  0  0  0  0  0
  -23.0579   -3.9375    0.0000 C   0  0  0  0  0  0  0  0  0  0  0  0
    0.3248   -8.4375    0.0000 C   0  0  0  0  0  0  0  0  0  0  0  0
  -24.3570   -4.6875    0.0000 C   0  0  0  0  0  0  0  0  0  0  0  0
   -0.9743   -9.1875    0.0000 C   0  0  0  0  0  0  0  0  0  0  0  0
  -24.3570   -6.1875    0.0000 C   0  0  0  0  0  0  0  0  0  0  0  0
   -2.2733   -8.4375    0.0000 C   0  0  0  0  0  0  0  0  0  0  0  0
  -23.0579   -6.9375    0.0000 C   0  0  0  0  0  0  0  0  0  0  0  0
   -3.5724   -9.1875    0.0000 C   0  0  0  0  0  0  0  0  0  0  0  0
  -23.0579   -8.4375    0.0000 C   0  0  0  0  0  0  0  0  0  0  0  0
   -4.8714   -8.4375    0.0000 C   0  0  0  0  0  0  0  0  0  0  0  0
  -21.7589   -9.1875    0.0000 C   0  0  0  0  0  0  0  0  0  0  0  0
   -6.1704   -9.1875    0.0000 C   0  0  0  0  0  0  0  0  0  0  0  0
  -20.4599   -8.4375    0.0000 C   0  0  0  0  0  0  0  0  0  0  0  0
   -7.4695   -8.4375    0.0000 C   0  0  0  0  0  0  0  0  0  0  0  0
  -19.1608   -9.1875    0.0000 C   0  0  0  0  0  0  0  0  0  0  0  0
   -8.7685   -9.1875    0.0000 C   0  0  0  0  0  0  0  0  0  0  0  0
  -17.8618   -8.4375    0.0000 C   0  0  0  0  0  0  0  0  0  0  0  0
  -10.0675   -8.4375    0.0000 C   0  0  0  0  0  0  0  0  0  0  0  0
  -16.5627   -9.1875    0.0000 C   0  0  0  0  0  0  0  0  0  0  0  0
  -11.3666   -9.1875    0.0000 C   0  0  0  0  0  0  0  0  0  0  0  0
  -15.2637   -8.4375    0.0000 C   0  0  0  0  0  0  0  0  0  0  0  0
  -12.6656   -8.4375    0.0000 C   0  0  0  0  0  0  0  0  0  0  0  0
  -13.9647   -9.1875    0.0000 C   0  0  0  0  0  0  0  0  0  0  0  0
  3  1  1  0
  4  2  1  0
  5  3  1  0
  6  4  1  0
  7  5  1  0
  8  6  1  0
  9  7  1  0
 10  8  1  0
 11  9  1  0
 12 10  1  0
 11 13  2  0
 14 12  1  0
 15 13  1  0
 16 14  1  0
 17 15  1  0
 18 16  1  0
 17 19  2  0
 20 18  1  0
 21 19  1  0
 22 20  1  0
 23 21  1  0
 24 22  1  0
 25 23  1  0
 26 24  1  0
 27 25  1  0
 28 26  1  0
 29 27  1  0
 30 28  1  0
 31 29  1  0
 31 30  1  0
M  END
>  <NAME>  (2727) 
(6Z,9Z)-6,9-HENTRIACONTADIENE

>  <SYNONYMS>  (2727) 


>  <SPECTRUM TYPE>  (2727) 
MS1

>  <INSTRUMENT TYPE>  (2727) 
EI-B

>  <INSTRUMENT>  (2727) 
HITACHI M-80B

>  <ION MODE>  (2727) 
P

>  <INCHIKEY>  (2727) 
RNAQFDIFLHTKJB-OHNCOSGTSA-N

>  <FORMULA>  (2727) 
C31H60

>  <EXACT MASS>  (2727) 
432.46950191999997

>  <MW>  (2727) 
432

>  <ID>  (2727) 
JP008140

>  <CONTRIBUTOR>  (2727) 
University of Tokyo Team, {Faculty of Engineering, University of Tokyo

>  <COMMENT>  (2727) 
SMILES=C(CCCCCCCCCCCCCCCCC([H])=C([H])CC([H])=C([H])CCCCC)CCCC
InChI=InChI=1S/C31H60/c1-3-5-7-9-11-13-15-17-19-21-23-25-27-29-31-30-28-26-24-22-20-18-16-14-12-10-8-6-4-2/h11,13,17,19H,3-10,12,14-16,18,20-31H2,1-2H3/b13-11-,19-17-
computed SMILES=C(=CCCCCC)CC=CCCCCCCCCCCCCCCCCCCCCC
accession=JP008140
date=2016.01.19 (Created 2008.10.21, modified 2011.05.06)
author=YAMAOKA R, KYOTO INSTITUTE OF TECHNOLOGY
license=CC BY-NC-SA
exact mass=432.4695
ionization energy=70 eV
ion type=[M]+*
computed spectral entropy=3.621975941648414
computed normalized entropy=0.8313559812535238
SPLASH=splash10-0535-9100000000-590079271ebed60b1b1e
submitter=submitter = University of Tokyo Team (Faculty of Engineering, University of Tokyo)
MoNA Rating=3.75

>  <NUM PEAKS>  (2727) 
78

>  <MASS SPECTRAL PEAKS>  (2727) 
41 36.91
42 9.57
43 68.24
44 2.47
53 2.58
54 30.61
55 99.99
56 28.94
57 41.06
58 2.77
66 2.7
67 35.74
68 29.53
69 73.54
70 19.22
71 17.92
72 1.68
73 2.51
77 1.7
79 7.06
80 6.65
81 36.19
82 61.2
83 76.46
84 9.42
85 12.41
86 1.78
91 2.07
94 4.06
95 38.3
96 63.43
97 48.32
98 3.19
109 20.44
110 30.89
111 26.04
113 1.85
121 2.01
122 1.36
123 18
124 21.52
125 7.39
126 1.8
137 11.2
138 11.72
139 3.47
151 3.79
152 6.18
153 1.4
165 1.9
166 7.44
167 1.53
179 1.58
180 3
193 2.94
194 4.39
207 5.39
221 2.19
222 3.91
236 2.7
250 2.05
263 1.06
264 1.35
278 1.47
281 6.09
282 2.79
292 1.91
306 3.84
307 1.03
320 6.87
321 1.59
333 2.03
334 2.86
341 1
348 3.3
432 23.66
433 10.36
434 1.56

>  <PREDICTED SPECTRUM>  (2727) 
27 94
28 37
29 164
30 38
32 14
39 151
40 43
41 695
42 273
43 791
44 138
45 56
52 29
53 213
54 527
55 853
56 413
57 741
58 126
59 55
60 5
65 121
66 231
67 855
68 600
69 735
70 318
71 527
72 104
73 67
74 64
75 42
77 179
78 126
79 406
80 406
81 914
82 999
83 839
84 274
85 462
86 21
88 6
91 152
92 51
93 158
94 167
95 831
96 931
97 692
98 216
99 115
100 6
105 109
106 57
107 126
108 167
109 614
110 662
111 532
112 115
113 88
117 33
119 66
120 84
121 132
122 151
123 541
124 495
125 319
126 89
127 27
133 124
134 131
135 69
136 130
137 237
138 352
139 119
140 32
141 48
147 0
149 26
150 6
151 172
152 272
153 112
154 38
155 18
161 20
162 27
163 44
164 86
165 109
166 217
167 154
168 30
177 8
178 4
179 115
180 168
181 121
182 61
183 46
185 41
190 9
192 81
193 85
194 151
195 40
207 156
208 159
209 37
210 4
219 3
220 68
221 179
222 142
223 19
233 3
234 29
235 88
236 113
248 41
249 109
250 150
251 59
263 26
264 86
277 30
278 105
279 25
291 141
292 102
304 21
305 78
306 116
319 48
320 153
321 1
333 94
334 37
336 6
347 39
348 62
361 23
362 62
375 5
376 24
377 25
389 35
390 34
391 5
404 15
431 16
432 440
433 276
434 121
435 31

$$$$

     RDKit          2D

 30 29  0  0  0  0  0  0  0  0999 V2000
    9.7428   16.1250    0.0000 C   0  0  0  0  0  0  0  0  0  0  0  0
  -27.9293   16.8750    0.0000 C   0  0  0  0  0  0  0  0  0  0  0  0
    8.4437   16.8750    0.0000 C   0  0  0  0  0  0  0  0  0  0  0  0
  -26.6303   16.1250    0.0000 C   0  0  0  0  0  0  0  0  0  0  0  0
    7.1447   16.1250    0.0000 C   0  0  0  0  0  0  0  0  0  0  0  0
  -25.3312   16.8750    0.0000 C   0  0  0  0  0  0  0  0  0  0  0  0
    5.8457   16.8750    0.0000 C   0  0  0  0  0  0  0  0  0  0  0  0
  -24.0322   16.1250    0.0000 C   0  0  0  0  0  0  0  0  0  0  0  0
    4.5466   16.1250    0.0000 C   0  0  0  0  0  0  0  0  0  0  0  0
  -22.7332   16.8750    0.0000 C   0  0  0  0  0  0  0  0  0  0  0  0
    3.2476   16.8750    0.0000 C   0  0  0  0  0  0  0  0  0  0  0  0
  -21.4341   16.1250    0.0000 C   0  0  0  0  0  0  0  0  0  0  0  0
    1.9486   16.1250    0.0000 C   0  0  0  0  0  0  0  0  0  0  0  0
  -20.1351   16.8750    0.0000 C   0  0  0  0  0  0  0  0  0  0  0  0
    0.6495   16.8750    0.0000 C   0  0  0  0  0  0  0  0  0  0  0  0
  -18.8361   16.1250    0.0000 C   0  0  0  0  0  0  0  0  0  0  0  0
   -0.6495   16.1250    0.0000 C   0  0  0  0  0  0  0  0  0  0  0  0
  -17.5370   16.8750    0.0000 C   0  0  0  0  0  0  0  0  0  0  0  0
   -1.9486   16.8750    0.0000 C   0  0  0  0  0  0  0  0  0  0  0  0
  -16.2380   16.1250    0.0000 C   0  0  0  0  0  0  0  0  0  0  0  0
   -3.2476   16.1250    0.0000 C   0  0  0  0  0  0  0  0  0  0  0  0
  -14.9389   16.8750    0.0000 C   0  0  0  0  0  0  0  0  0  0  0  0
   -4.5466   16.8750    0.0000 C   0  0  0  0  0  0  0  0  0  0  0  0
  -13.6399   16.1250    0.0000 C   0  0  0  0  0  0  0  0  0  0  0  0
   -5.8457   16.1250    0.0000 C   0  0  0  0  0  0  0  0  0  0  0  0
  -12.3409   16.8750    0.0000 C   0  0  0  0  0  0  0  0  0  0  0  0
   -7.1447   16.8750    0.0000 C   0  0  0  0  0  0  0  0  0  0  0  0
  -11.0418   16.1250    0.0000 C   0  0  0  0  0  0  0  0  0  0  0  0
   -8.4437   16.1250    0.0000 C   0  0  0  0  0  0  0  0  0  0  0  0
   -9.7428   16.8750    0.0000 C   0  0  0  0  0  0  0  0  0  0  0  0
  3  1  1  0
  4  2  1  0
  5  3  1  0
  6  4  1  0
  7  5  1  0
  8  6  1  0
  9  7  1  0
 10  8  1  0
 11  9  1  0
 12 10  1  0
 13 11  1  0
 14 12  1  0
 15 13  1  0
 16 14  1  0
 17 15  1  0
 18 16  1  0
 19 17  1  0
 20 18  1  0
 21 19  1  0
 22 20  1  0
 23 21  1  0
 24 22  1  0
 25 23  1  0
 26 24  1  0
 27 25  1  0
 28 26  1  0
 29 27  1  0
 30 28  1  0
 30 29  1  0
M  END
>  <NAME>  (2728) 
TRIACONTANE

>  <SYNONYMS>  (2728) 


>  <SPECTRUM TYPE>  (2728) 
MS1

>  <INSTRUMENT TYPE>  (2728) 
EI-B

>  <INSTRUMENT>  (2728) 
HITACHI M-80B

>  <ION MODE>  (2728) 
P

>  <INCHIKEY>  (2728) 
JXTPJDDICSTXJX-UHFFFAOYSA-N

>  <FORMULA>  (2728) 
C30H62

>  <EXACT MASS>  (2728) 
422.485151984

>  <MW>  (2728) 
422

>  <ID>  (2728) 
JP008139

>  <CONTRIBUTOR>  (2728) 
University of Tokyo Team, {Faculty of Engineering, University of Tokyo

>  <COMMENT>  (2728) 
SMILES=C(CCCCCCCCCCCCCCCCCCCCCCCCC)CCCC
InChI=InChI=1S/C30H62/c1-3-5-7-9-11-13-15-17-19-21-23-25-27-29-30-28-26-24-22-20-18-16-14-12-10-8-6-4-2/h3-30H2,1-2H3
computed SMILES=CCCCCCCCCCCCCCCCCCCCCCCCCCCCCC
accession=JP008139
date=2016.01.19 (Created 2008.10.21, modified 2011.05.06)
author=YAMAOKA R, KYOTO INSTITUTE OF TECHNOLOGY
license=CC BY-NC-SA
exact mass=422.48515
ionization energy=70 eV
ion type=[M]+*
computed spectral entropy=3.3077989488121604
computed normalized entropy=0.7709661387515155
SPLASH=splash10-0abc-9100000000-53e5f2ce729aee0ec9dc
submitter=submitter = University of Tokyo Team (Faculty of Engineering, University of Tokyo)
MoNA Rating=3.75

>  <NUM PEAKS>  (2728) 
73

>  <MASS SPECTRAL PEAKS>  (2728) 
41 29.5
42 12.43
43 96.42
44 4.27
53 2.61
54 4.89
55 42.49
56 22.18
57 99.99
58 7.19
59 2.32
60 1.22
67 4.81
68 3.37
69 21.43
70 14.17
71 93.4
72 4.76
78 1.22
79 2.32
81 1.38
82 6.16
83 17.38
84 8.4
85 58.96
86 4.88
95 1.68
96 5.85
97 19.5
98 7.05
99 18.64
103 2.96
111 8.08
112 6.03
113 12.05
114 1.1
115 2.01
125 2.21
126 2.57
127 7.92
132 1.31
135 1.17
139 1
140 4.94
141 7.55
142 1.44
147 1.67
154 2.32
155 3.95
161 1.06
163 1.48
168 2.72
169 3.83
177 1.92
182 1.37
183 4.72
193 1.64
194 1.1
196 1.79
197 3.54
207 9.5
208 5.06
211 2.36
221 1.1
224 1.35
225 2.51
239 1.4
266 1.12
281 7.55
282 1.05
309 1.17
365 1
422 1.3

>  <PREDICTED SPECTRUM>  (2728) 
0 6
26 16
27 79
28 14
29 129
39 91
40 37
41 393
42 217
43 785
44 126
51 14
53 110
54 152
55 466
56 401
57 999
58 186
66 48
67 184
68 240
69 443
70 309
71 851
72 240
79 37
80 24
81 169
82 273
83 389
84 284
85 709
86 183
93 14
94 10
95 98
96 190
97 395
98 225
99 412
100 73
101 17
107 11
108 2
109 84
110 122
111 304
112 242
113 367
114 65
122 2
123 58
124 109
125 165
126 197
127 339
128 53
135 26
136 19
137 63
138 70
139 160
140 211
141 279
142 54
150 40
151 52
152 119
153 142
154 163
155 281
156 48
166 34
167 100
168 212
169 231
170 71
180 39
181 99
182 136
183 233
184 59
195 94
196 171
197 184
198 40
208 29
209 80
210 161
211 173
212 42
222 31
223 74
224 203
225 151
226 63
237 54
238 118
239 86
240 29
250 24
251 40
252 187
253 183
254 10
264 51
265 34
266 92
267 27
280 189
281 104
282 30
293 21
294 68
295 71
308 95
309 96
310 12
322 92
323 83
324 42
336 113
337 138
350 67
351 14
352 8
364 102
365 45
366 20
377 3
378 88
379 107
380 7
392 53
393 117
394 69
406 71
407 65
408 43
420 57
421 103
422 88
423 15

$$$$

     RDKit          2D

 28 27  0  0  0  0  0  0  0  0999 V2000
  -25.9808   15.7500    0.0000 C   0  0  0  0  0  0  0  0  0  0  0  0
    9.0933   15.0000    0.0000 C   0  0  0  0  0  0  0  0  0  0  0  0
  -24.6817   15.0000    0.0000 C   0  0  0  0  0  0  0  0  0  0  0  0
    7.7942   15.7500    0.0000 C   0  0  0  0  0  0  0  0  0  0  0  0
  -23.3827   15.7500    0.0000 C   0  0  0  0  0  0  0  0  0  0  0  0
    6.4952   15.0000    0.0000 C   0  0  0  0  0  0  0  0  0  0  0  0
  -22.0836   15.0000    0.0000 C   0  0  0  0  0  0  0  0  0  0  0  0
    5.1962   15.7500    0.0000 C   0  0  0  0  0  0  0  0  0  0  0  0
  -20.7846   15.7500    0.0000 C   0  0  0  0  0  0  0  0  0  0  0  0
    3.8971   15.0000    0.0000 C   0  0  0  0  0  0  0  0  0  0  0  0
  -19.4856   15.0000    0.0000 C   0  0  0  0  0  0  0  0  0  0  0  0
    2.5981   15.7500    0.0000 C   0  0  0  0  0  0  0  0  0  0  0  0
  -18.1865   15.7500    0.0000 C   0  0  0  0  0  0  0  0  0  0  0  0
    1.2990   15.0000    0.0000 C   0  0  0  0  0  0  0  0  0  0  0  0
  -16.8875   15.0000    0.0000 C   0  0  0  0  0  0  0  0  0  0  0  0
    0.0000   15.7500    0.0000 C   0  0  0  0  0  0  0  0  0  0  0  0
  -15.5885   15.7500    0.0000 C   0  0  0  0  0  0  0  0  0  0  0  0
   -1.2990   15.0000    0.0000 C   0  0  0  0  0  0  0  0  0  0  0  0
  -14.2894   15.0000    0.0000 C   0  0  0  0  0  0  0  0  0  0  0  0
   -2.5981   15.7500    0.0000 C   0  0  0  0  0  0  0  0  0  0  0  0
  -12.9904   15.7500    0.0000 C   0  0  0  0  0  0  0  0  0  0  0  0
   -3.8971   15.0000    0.0000 C   0  0  0  0  0  0  0  0  0  0  0  0
  -11.6913   15.0000    0.0000 C   0  0  0  0  0  0  0  0  0  0  0  0
   -5.1962   15.7500    0.0000 C   0  0  0  0  0  0  0  0  0  0  0  0
  -10.3923   15.7500    0.0000 C   0  0  0  0  0  0  0  0  0  0  0  0
   -6.4952   15.0000    0.0000 C   0  0  0  0  0  0  0  0  0  0  0  0
   -9.0933   15.0000    0.0000 C   0  0  0  0  0  0  0  0  0  0  0  0
   -7.7942   15.7500    0.0000 C   0  0  0  0  0  0  0  0  0  0  0  0
  3  1  1  0
  4  2  1  0
  5  3  1  0
  6  4  1  0
  7  5  1  0
  8  6  1  0
  9  7  1  0
 10  8  1  0
 11  9  1  0
 12 10  1  0
 13 11  1  0
 14 12  1  0
 15 13  1  0
 16 14  1  0
 17 15  1  0
 18 16  1  0
 19 17  1  0
 20 18  1  0
 21 19  1  0
 22 20  1  0
 23 21  1  0
 24 22  1  0
 25 23  1  0
 26 24  1  0
 27 25  1  0
 28 26  1  0
 28 27  1  0
M  END
>  <NAME>  (2729) 
OCTACOSANE

>  <SYNONYMS>  (2729) 


>  <SPECTRUM TYPE>  (2729) 
MS1

>  <INSTRUMENT TYPE>  (2729) 
EI-B

>  <INSTRUMENT>  (2729) 
HITACHI M-80B

>  <ION MODE>  (2729) 
P

>  <INCHIKEY>  (2729) 
ZYURHZPYMFLWSH-UHFFFAOYSA-N

>  <FORMULA>  (2729) 
C28H58

>  <EXACT MASS>  (2729) 
394.453851856

>  <MW>  (2729) 
394

>  <ID>  (2729) 
JP008138

>  <CONTRIBUTOR>  (2729) 
University of Tokyo Team, {Faculty of Engineering, University of Tokyo

>  <COMMENT>  (2729) 
SMILES=CCCCCCCCCCCCCCCCCCCCCCCCCCCC
InChI=InChI=1S/C28H58/c1-3-5-7-9-11-13-15-17-19-21-23-25-27-28-26-24-22-20-18-16-14-12-10-8-6-4-2/h3-28H2,1-2H3
computed SMILES=CCCCCCCCCCCCCCCCCCCCCCCCCCCC
computed normalized entropy=0.7752211909620682
accession=JP008138
date=2016.01.19 (Created 2008.10.21, modified 2011.05.06)
author=YAMAOKA R, KYOTO INSTITUTE OF TECHNOLOGY
license=CC BY-NC-SA
exact mass=394.45385
ionization energy=70 eV
ion type=[M]+*
computed spectral entropy=3.1740226677348846
SPLASH=splash10-0abc-9100000000-d9a900e46caef0fb3acc
submitter=submitter = University of Tokyo Team (Faculty of Engineering, University of Tokyo)
MoNA Rating=3.75

>  <NUM PEAKS>  (2729) 
60

>  <MASS SPECTRAL PEAKS>  (2729) 
41 23.61
42 7.81
43 76.47
44 5.17
53 1.35
54 2.98
55 20.31
56 13.56
57 99.99
58 7.01
67 4.44
68 4.3
69 13.42
70 11.44
71 67.95
73 1.04
81 2.77
82 5.51
83 13.64
84 7.19
85 39.92
86 2.57
96 3.3
97 12.44
98 4.01
99 12.76
100 1.2
111 3.11
112 2.94
113 8.89
117 1.03
125 1.98
126 3.32
127 6.28
135 1.2
139 2.14
140 3.23
141 4.18
154 1.38
155 5.52
168 1.53
169 3.62
177 1.59
182 3.2
183 4.73
196 2.25
197 3.02
208 2.65
210 1.3
211 1.62
225 3.43
239 3.24
240 1.17
252 1.48
253 2.7
267 3.15
295 1.69
324 1.91
338 1.29
394 2.15

>  <PREDICTED SPECTRUM>  (2729) 
26 16
27 94
28 36
29 134
30 20
39 105
40 48
41 422
42 234
43 815
44 153
51 18
52 1
53 119
54 162
55 468
56 404
57 999
58 183
59 11
65 13
66 59
67 187
68 234
69 425
70 313
71 859
72 233
73 16
79 50
80 34
81 167
82 270
83 373
84 286
85 705
86 180
93 0
94 7
95 104
96 191
97 374
98 228
99 411
100 56
108 17
109 87
110 116
111 299
112 239
113 367
114 73
123 81
124 116
125 177
126 204
127 336
128 69
135 35
137 25
138 52
139 131
140 204
141 275
142 59
150 14
152 103
153 122
154 165
155 287
156 73
166 5
167 78
168 195
169 221
170 79
180 30
181 91
182 136
183 224
184 57
195 83
196 139
197 164
198 22
209 76
210 142
211 160
212 32
222 14
223 49
224 175
225 125
226 46
236 43
237 42
238 92
239 75
240 25
250 19
251 17
252 164
253 157
254 23
264 19
266 48
267 52
280 160
281 94
282 19
294 83
295 79
296 12
308 75
309 134
310 0
322 90
323 75
324 45
336 102
337 119
338 42
350 79
351 112
364 86
365 128
366 56
378 71
379 83
380 38
392 38
393 88
394 82

$$$$

     RDKit          2D

 17 16  0  0  0  0  0  0  0  0999 V2000
   -8.1190    3.9375    0.0000 C   0  0  0  0  0  0  0  0  0  0  0  0
   -6.8200    4.6875    0.0000 C   0  0  0  0  0  0  0  0  0  0  0  0
   -6.8200    6.1875    0.0000 C   0  0  0  0  0  0  0  0  0  0  0  0
   -5.5209    6.9375    0.0000 C   0  0  0  0  0  0  0  0  0  0  0  0
   -5.5209    8.4375    0.0000 C   0  0  0  0  0  0  0  0  0  0  0  0
   -4.2219    9.1875    0.0000 C   0  0  0  0  0  0  0  0  0  0  0  0
   -4.2219   10.6875    0.0000 C   0  0  0  0  0  0  0  0  0  0  0  0
   -2.9228   11.4375    0.0000 C   0  0  0  0  0  0  0  0  0  0  0  0
   -1.6238   10.6875    0.0000 C   0  0  0  0  0  0  0  0  0  0  0  0
   -0.3248   11.4375    0.0000 C   0  0  0  0  0  0  0  0  0  0  0  0
    0.9743   10.6875    0.0000 C   0  0  0  0  0  0  0  0  0  0  0  0
    2.2733   11.4375    0.0000 C   0  0  0  0  0  0  0  0  0  0  0  0
    3.5724   10.6875    0.0000 C   0  0  0  0  0  0  0  0  0  0  0  0
    4.8714   11.4375    0.0000 C   0  0  0  0  0  0  0  0  0  0  0  0
    6.1704   10.6875    0.0000 C   0  0  0  0  0  0  0  0  0  0  0  0
    7.4695   11.4375    0.0000 C   0  0  0  0  0  0  0  0  0  0  0  0
    8.7685   10.6875    0.0000 O   0  0  0  0  0  0  0  0  0  0  0  0
  2  1  1  0
  3  2  1  0
  4  3  1  0
  5  4  1  0
  6  5  1  0
  7  6  1  0
  7  8  2  0
  9  8  1  0
 10  9  1  0
 11 10  1  0
 12 11  1  0
 13 12  1  0
 14 13  1  0
 15 14  1  0
 16 15  1  0
 17 16  2  0
M  END
>  <NAME>  (2730) 
(Z)-9-HEXADECENAL

>  <SYNONYMS>  (2730) 


>  <SPECTRUM TYPE>  (2730) 
MS1

>  <INSTRUMENT TYPE>  (2730) 
EI-B

>  <INSTRUMENT>  (2730) 
HITACHI M-80B

>  <ION MODE>  (2730) 
P

>  <INCHIKEY>  (2730) 
QFPVVMKZTVQDTL-FPLPWBNLSA-N

>  <FORMULA>  (2730) 
C16H30O

>  <EXACT MASS>  (2730) 
238.22966558000002

>  <MW>  (2730) 
238

>  <ID>  (2730) 
JP008136

>  <CONTRIBUTOR>  (2730) 
University of Tokyo Team, {Faculty of Engineering, University of Tokyo

>  <COMMENT>  (2730) 
SMILES=CCCCCCC([H])=C([H])CCCCCCCC=O
InChI=InChI=1S/C16H30O/c1-2-3-4-5-6-7-8-9-10-11-12-13-14-15-16-17/h7-8,16H,2-6,9-15H2,1H3/b8-7-
computed SMILES=O=CCCCCCCCC=CCCCCCC
accession=JP008136
date=2016.01.19 (Created 2008.10.21, modified 2011.05.06)
author=YAMAOKA R, KYOTO INSTITUTE OF TECHNOLOGY
license=CC BY-NC-SA
exact mass=238.22967
ionization energy=70 eV
ion type=[M]+*
computed spectral entropy=3.318915728333819
computed normalized entropy=0.8245032939538472
SPLASH=splash10-05mo-9000000000-3e65469d3398f8004fe6
submitter=submitter = University of Tokyo Team (Faculty of Engineering, University of Tokyo)
MoNA Rating=3.75

>  <NUM PEAKS>  (2730) 
56

>  <MASS SPECTRAL PEAKS>  (2730) 
41 99.99
42 12.27
43 54.78
44 8.24
45 1.95
51 1.46
53 11.01
54 30.3
55 94.95
56 29.1
57 15.24
58 2.23
59 1.07
65 3.16
66 2.7
67 40.73
68 19.49
69 53.28
70 26.99
71 8.55
72 1.02
77 2.34
79 10.88
80 9.22
81 30.37
82 20.74
83 25.79
84 12.5
85 4.3
86 1.01
91 1.76
93 5.97
94 4.58
95 17.29
96 15.12
97 15.43
98 22.73
99 1.68
107 4.68
108 2.88
109 7.69
110 7.17
111 9.58
112 4.64
121 5.41
122 2.1
123 2.95
124 1.62
125 1.69
135 4.44
136 1.24
137 1.38
138 1.84
149 1.46
220 1.7
238 1.05

>  <PREDICTED SPECTRUM>  (2730) 
17 1
18 10
26 36
27 233
28 97
29 368
30 74
31 90
32 32
34 0
38 12
39 277
40 134
41 980
42 465
43 796
44 375
45 279
46 57
47 5
48 6
49 11
50 46
51 113
52 113
53 360
54 613
55 999
56 590
57 690
58 243
59 165
60 81
61 37
62 35
63 84
64 23
65 213
66 267
67 764
68 670
69 783
70 562
71 457
72 234
73 182
74 23
76 8
77 199
78 134
79 403
80 366
81 744
82 740
83 696
84 483
85 376
86 197
87 120
88 65
89 6
91 174
92 95
93 306
94 276
95 635
96 672
97 592
98 528
99 282
100 158
101 98
102 5
103 20
104 40
105 122
106 108
107 255
108 226
109 428
110 413
111 437
112 303
113 172
114 103
115 85
117 36
119 104
120 57
121 272
122 184
123 250
124 284
125 267
126 223
127 135
128 121
129 74
130 4
131 21
133 58
135 239
136 132
137 172
138 217
139 157
140 114
141 73
142 51
143 44
145 60
146 11
147 82
148 26
149 199
150 153
151 130
152 123
153 92
154 71
155 53
156 40
157 5
161 9
163 159
164 81
165 77
166 90
167 100
168 108
169 36
170 58
171 27
176 51
177 100
178 45
179 60
180 37
181 75
182 61
183 44
186 3
191 84
192 40
193 29
194 91
195 105
196 74
197 27
206 60
207 133
209 11
210 44
219 18
220 184
221 174
222 63
223 108
224 86
225 12
226 8
238 199
239 75

$$$$

     RDKit          2D

 18 17  0  0  0  0  0  0  0  0999 V2000
   -5.8457   10.1250    0.0000 C   0  0  0  0  0  0  0  0  0  0  0  0
   -4.5466    9.3750    0.0000 C   0  0  0  0  0  0  0  0  0  0  0  0
   -7.1447    9.3750    0.0000 C   0  0  0  0  0  0  0  0  0  0  0  0
   -3.2476   10.1250    0.0000 C   0  0  0  0  0  0  0  0  0  0  0  0
   -8.4437   10.1250    0.0000 C   0  0  0  0  0  0  0  0  0  0  0  0
   -1.9486    9.3750    0.0000 C   0  0  0  0  0  0  0  0  0  0  0  0
   -9.7428    9.3750    0.0000 C   0  0  0  0  0  0  0  0  0  0  0  0
   -0.6495   10.1250    0.0000 C   0  0  0  0  0  0  0  0  0  0  0  0
  -11.0418   10.1250    0.0000 C   0  0  0  0  0  0  0  0  0  0  0  0
    0.6495    9.3750    0.0000 C   0  0  0  0  0  0  0  0  0  0  0  0
  -12.3409    9.3750    0.0000 C   0  0  0  0  0  0  0  0  0  0  0  0
    1.9486   10.1250    0.0000 C   0  0  0  0  0  0  0  0  0  0  0  0
  -13.6399   10.1250    0.0000 C   0  0  0  0  0  0  0  0  0  0  0  0
    3.2476    9.3750    0.0000 C   0  0  0  0  0  0  0  0  0  0  0  0
  -14.9389    9.3750    0.0000 C   0  0  0  0  0  0  0  0  0  0  0  0
    4.5466   10.1250    0.0000 C   0  0  0  0  0  0  0  0  0  0  0  0
  -16.2380   10.1250    0.0000 F   0  0  0  0  0  0  0  0  0  0  0  0
    5.8457    9.3750    0.0000 O   0  0  0  0  0  0  0  0  0  0  0  0
  2  1  1  0
  3  1  1  0
  4  2  1  0
  5  3  1  0
  6  4  1  0
  7  5  1  0
  8  6  1  0
  9  7  1  0
 10  8  1  0
 11  9  1  0
 12 10  1  0
 13 11  1  0
 14 12  1  0
 15 13  1  0
 16 14  1  0
 17 15  1  0
 18 16  1  0
M  END
>  <NAME>  (2731) 
16-FLUOROHEXADECANOL

>  <SYNONYMS>  (2731) 


>  <SPECTRUM TYPE>  (2731) 
MS1

>  <INSTRUMENT TYPE>  (2731) 
EI-B

>  <INSTRUMENT>  (2731) 
HITACHI M-80B

>  <ION MODE>  (2731) 
P

>  <INCHIKEY>  (2731) 
JQVPLGFCCJDSLS-UHFFFAOYSA-N

>  <FORMULA>  (2731) 
C16H33FO

>  <EXACT MASS>  (2731) 
260.251543896

>  <MW>  (2731) 
260

>  <ID>  (2731) 
JP008133

>  <CONTRIBUTOR>  (2731) 
University of Tokyo Team, {Faculty of Engineering, University of Tokyo

>  <COMMENT>  (2731) 
SMILES=OCCCCCCCCCCCCCCCCF
InChI=InChI=1S/C16H33FO/c17-15-13-11-9-7-5-3-1-2-4-6-8-10-12-14-16-18/h18H,1-16H2
computed SMILES=FCCCCCCCCCCCCCCCCO
accession=JP008133
date=2016.01.19 (Created 2008.10.21, modified 2011.05.06)
author=YAMAOKA R, KYOTO INSTITUTE OF TECHNOLOGY
license=CC BY-NC-SA
exact mass=260.25154
ionization energy=70 eV
ion type=[M]+*
computed spectral entropy=3.286412364405554
computed normalized entropy=0.8093728580525742
SPLASH=splash10-0aou-9000000000-8933be72f09fe6181b19
submitter=submitter = University of Tokyo Team (Faculty of Engineering, University of Tokyo)
MoNA Rating=3.75

>  <NUM PEAKS>  (2731) 
58

>  <MASS SPECTRAL PEAKS>  (2731) 
41 69.63
42 20.21
43 56.99
44 3.17
45 2.66
47 6.03
53 5.22
54 13.22
55 99.99
56 44.17
57 37.27
58 2.24
59 2.21
61 7.24
67 12.71
68 33.1
69 67.22
70 34.55
71 12.33
74 2.94
75 2.36
81 9.09
82 30
83 55.89
84 19.13
85 6.44
88 5.24
89 2.85
95 6.18
96 8.57
97 33.91
98 8.3
99 1.38
101 2.43
102 2.81
103 1.92
109 2.8
110 2.86
111 13.47
112 4.6
115 2.71
116 6.2
123 2.3
125 5.64
126 2.15
128 1.22
129 2.3
130 2.99
131 1.16
139 1.25
140 1.12
143 1.9
144 3.25
157 1.57
158 2.09
172 1.81
186 1.47
214 4.56

>  <PREDICTED SPECTRUM>  (2731) 
17 21
18 57
19 6
25 16
26 54
27 158
28 89
29 285
31 206
32 44
33 5
38 11
39 166
40 62
41 700
42 338
43 679
44 186
45 153
46 61
47 165
48 8
49 34
50 51
51 134
52 55
53 263
54 418
55 996
56 573
57 739
58 75
59 106
60 63
61 144
62 8
63 26
65 124
66 227
67 707
68 776
69 999
70 520
71 482
72 106
73 43
74 83
75 116
76 55
77 132
78 130
79 223
80 110
81 724
82 935
83 858
84 395
85 290
86 45
87 98
88 93
89 136
90 32
91 163
92 48
93 117
94 173
95 585
96 681
97 676
98 364
99 172
100 117
101 128
102 41
103 59
104 216
105 55
106 64
107 147
108 93
109 447
110 384
111 421
112 212
113 87
114 48
115 78
116 63
117 125
118 123
119 33
120 18
121 11
122 38
123 248
124 261
125 237
126 178
127 68
129 80
130 85
131 69
132 45
135 27
137 195
138 256
139 166
140 132
141 108
143 194
144 144
145 112
146 39
147 63
148 141
150 93
151 91
152 58
153 112
154 107
155 81
157 222
158 116
159 128
160 41
162 27
164 17
165 76
166 82
167 129
168 101
169 59
171 141
172 73
173 74
184 32
185 161
186 124
187 62
189 170
190 4
194 60
195 163
196 115
197 45
199 69
201 17
207 74
208 44
210 28
213 162
214 164
215 77
224 13
229 12
242 195
243 138
244 9
260 46

$$$$

     RDKit          2D

 17 16  0  0  0  0  0  0  0  0999 V2000
    9.7428   12.3750    0.0000 C   0  0  0  0  0  0  0  0  0  0  0  0
    8.4437   11.6250    0.0000 C   0  0  0  0  0  0  0  0  0  0  0  0
    8.4437   10.1250    0.0000 C   0  0  0  0  0  0  0  0  0  0  0  0
    7.1447    9.3750    0.0000 C   0  0  0  0  0  0  0  0  0  0  0  0
    7.1447    7.8750    0.0000 C   0  0  0  0  0  0  0  0  0  0  0  0
    5.8457    7.1250    0.0000 C   0  0  0  0  0  0  0  0  0  0  0  0
    4.5466    7.8750    0.0000 C   0  0  0  0  0  0  0  0  0  0  0  0
    3.2476    7.1250    0.0000 C   0  0  0  0  0  0  0  0  0  0  0  0
    1.9486    7.8750    0.0000 C   0  0  0  0  0  0  0  0  0  0  0  0
    0.6495    7.1250    0.0000 C   0  0  0  0  0  0  0  0  0  0  0  0
   -0.6495    7.8750    0.0000 C   0  0  0  0  0  0  0  0  0  0  0  0
   -1.9486    7.1250    0.0000 C   0  0  0  0  0  0  0  0  0  0  0  0
   -3.2476    7.8750    0.0000 C   0  0  0  0  0  0  0  0  0  0  0  0
   -4.5466    7.1250    0.0000 C   0  0  0  0  0  0  0  0  0  0  0  0
   -5.8457    7.8750    0.0000 C   0  0  0  0  0  0  0  0  0  0  0  0
   -7.1447    7.1250    0.0000 C   0  0  0  0  0  0  0  0  0  0  0  0
   -8.4437    7.8750    0.0000 O   0  0  0  0  0  0  0  0  0  0  0  0
  2  1  1  0
  3  2  1  0
  4  3  1  0
  5  4  1  0
  5  6  2  0
  7  6  1  0
  8  7  1  0
  9  8  1  0
 10  9  1  0
 11 10  1  0
 12 11  1  0
 13 12  1  0
 14 13  1  0
 15 14  1  0
 16 15  1  0
 17 16  2  0
M  END
>  <NAME>  (2732) 
(Z)-11-HEXADECENAL

>  <SYNONYMS>  (2732) 


>  <SPECTRUM TYPE>  (2732) 
MS1

>  <INSTRUMENT TYPE>  (2732) 
EI-B

>  <INSTRUMENT>  (2732) 
HITACHI M-80B

>  <ION MODE>  (2732) 
P

>  <INCHIKEY>  (2732) 
AMTITFMUKRZZEE-WAYWQWQTSA-N

>  <FORMULA>  (2732) 
C16H30O

>  <EXACT MASS>  (2732) 
238.22966558000002

>  <MW>  (2732) 
238

>  <ID>  (2732) 
JP008132

>  <CONTRIBUTOR>  (2732) 
University of Tokyo Team, {Faculty of Engineering, University of Tokyo

>  <COMMENT>  (2732) 
SMILES=O=CCCCCCCCCCC([H])=C([H])CCCC
InChI=InChI=1S/C16H30O/c1-2-3-4-5-6-7-8-9-10-11-12-13-14-15-16-17/h5-6,16H,2-4,7-15H2,1H3/b6-5-
computed SMILES=O=CCCCCCCCCCC=CCCCC
accession=JP008132
date=2016.01.19 (Created 2008.10.21, modified 2011.05.06)
author=YAMAOKA R, KYOTO INSTITUTE OF TECHNOLOGY
license=CC BY-NC-SA
exact mass=238.22967
ionization energy=70 eV
ion type=[M]+*
computed spectral entropy=3.4568162713457
computed normalized entropy=0.8550018395381772
SPLASH=splash10-0aou-9100000000-ed634e4fae366099e696
submitter=submitter = University of Tokyo Team (Faculty of Engineering, University of Tokyo)
MoNA Rating=3.75

>  <NUM PEAKS>  (2732) 
57

>  <MASS SPECTRAL PEAKS>  (2732) 
41 71.06
42 10.52
43 28.56
44 8.59
51 1.09
53 9.8
54 22.16
55 99.99
56 23.15
57 17.82
58 2.94
65 2.5
66 2.06
67 33.66
68 20
69 39.56
70 17.27
71 7.91
72 1.38
77 1.2
79 8.05
80 7.35
81 30.39
82 24.12
83 22.72
84 14.12
85 4.7
86 1.03
93 7.46
94 6.16
95 23.42
96 19.99
97 17.3
98 23.19
99 2.55
107 4.67
108 4.62
109 8.94
110 6
111 10.86
112 8.05
113 1.38
121 7.81
122 3.07
123 3.91
124 4.79
125 3.94
126 1.17
135 4.69
136 2.91
137 1.52
138 2.92
149 1.55
150 1.35
220 6.7
221 1.04
238 2.86

>  <PREDICTED SPECTRUM>  (2732) 
26 19
27 145
28 49
29 260
30 44
31 66
32 26
34 9
36 14
37 11
38 18
39 200
40 123
41 967
42 493
43 847
44 390
45 287
46 65
47 20
48 17
49 44
50 55
51 111
52 106
53 338
54 580
55 999
56 567
57 695
58 255
59 146
60 91
61 90
62 40
63 83
64 24
65 185
66 251
67 721
68 662
69 756
70 506
71 474
72 269
73 152
74 0
76 8
77 162
78 116
79 337
80 285
81 715
82 749
83 652
84 431
85 367
86 216
87 160
88 77
89 28
91 150
92 69
93 238
94 212
95 605
96 666
97 572
98 457
99 267
100 142
101 79
103 17
104 18
105 107
106 89
107 201
108 203
109 403
110 412
111 394
112 279
113 143
114 91
115 86
116 28
117 32
119 126
120 77
121 221
122 168
123 243
124 270
125 235
126 185
127 140
128 127
129 74
131 32
133 34
134 2
135 198
136 124
137 188
138 185
139 137
140 92
141 90
142 72
143 50
144 2
145 28
147 67
148 35
149 196
150 124
151 126
152 137
153 88
154 83
155 70
156 61
157 34
159 15
161 24
163 142
164 91
165 90
166 119
167 111
168 102
169 49
170 38
171 44
176 14
177 100
178 60
179 65
180 50
181 85
182 79
183 37
186 8
191 70
192 53
193 72
194 143
195 120
196 135
197 39
198 39
205 14
206 88
207 150
209 13
210 64
211 6
212 2
219 55
220 151
221 179
222 96
223 145
224 124
225 68
226 54
237 15
238 150
239 50

$$$$

     RDKit          2D

 26 25  0  0  0  0  0  0  0  0999 V2000
    7.7942   13.5000    0.0000 C   0  0  0  0  0  0  0  0  0  0  0  0
  -23.3827   13.5000    0.0000 C   0  0  0  0  0  0  0  0  0  0  0  0
    6.4952   14.2500    0.0000 C   0  0  0  0  0  0  0  0  0  0  0  0
  -22.0836   14.2500    0.0000 C   0  0  0  0  0  0  0  0  0  0  0  0
    5.1962   13.5000    0.0000 C   0  0  0  0  0  0  0  0  0  0  0  0
  -20.7846   13.5000    0.0000 C   0  0  0  0  0  0  0  0  0  0  0  0
    3.8971   14.2500    0.0000 C   0  0  0  0  0  0  0  0  0  0  0  0
  -19.4856   14.2500    0.0000 C   0  0  0  0  0  0  0  0  0  0  0  0
    2.5981   13.5000    0.0000 C   0  0  0  0  0  0  0  0  0  0  0  0
  -18.1865   13.5000    0.0000 C   0  0  0  0  0  0  0  0  0  0  0  0
    1.2990   14.2500    0.0000 C   0  0  0  0  0  0  0  0  0  0  0  0
  -16.8875   14.2500    0.0000 C   0  0  0  0  0  0  0  0  0  0  0  0
    0.0000   13.5000    0.0000 C   0  0  0  0  0  0  0  0  0  0  0  0
  -15.5885   13.5000    0.0000 C   0  0  0  0  0  0  0  0  0  0  0  0
   -1.2990   14.2500    0.0000 C   0  0  0  0  0  0  0  0  0  0  0  0
  -14.2894   14.2500    0.0000 C   0  0  0  0  0  0  0  0  0  0  0  0
   -2.5981   13.5000    0.0000 C   0  0  0  0  0  0  0  0  0  0  0  0
  -12.9904   13.5000    0.0000 C   0  0  0  0  0  0  0  0  0  0  0  0
   -3.8971   14.2500    0.0000 C   0  0  0  0  0  0  0  0  0  0  0  0
  -11.6913   14.2500    0.0000 C   0  0  0  0  0  0  0  0  0  0  0  0
   -5.1962   13.5000    0.0000 C   0  0  0  0  0  0  0  0  0  0  0  0
  -10.3923   13.5000    0.0000 C   0  0  0  0  0  0  0  0  0  0  0  0
   -6.4952   14.2500    0.0000 C   0  0  0  0  0  0  0  0  0  0  0  0
   -9.0933   14.2500    0.0000 C   0  0  0  0  0  0  0  0  0  0  0  0
   -9.0933   15.7500    0.0000 O   0  0  0  0  0  0  0  0  0  0  0  0
   -7.7942   13.5000    0.0000 O   0  0  0  0  0  0  0  0  0  0  0  0
  3  1  1  0
  4  2  1  0
  5  3  1  0
  6  4  1  0
  7  5  1  0
  8  6  1  0
  9  7  1  0
 10  8  1  0
 11  9  1  0
 12 10  1  0
 13 11  1  0
 14 12  1  0
 15 13  1  0
 16 14  1  0
 17 15  1  0
 18 16  1  0
 19 17  1  0
 20 18  1  0
 21 19  1  0
 22 20  1  0
 23 21  1  0
 24 22  1  0
 25 24  2  0
 26 23  1  0
 26 24  1  0
M  END
>  <NAME>  (2733) 
DODECYL DODECANOATE

>  <SYNONYMS>  (2733) 
LAURYL LAURATE

>  <SPECTRUM TYPE>  (2733) 
MS1

>  <INSTRUMENT TYPE>  (2733) 
EI-B

>  <INSTRUMENT>  (2733) 
HITACHI M-80B

>  <ION MODE>  (2733) 
P

>  <INCHIKEY>  (2733) 
CYUUZGXOQDCCGH-UHFFFAOYSA-N

>  <FORMULA>  (2733) 
C24H48O2

>  <EXACT MASS>  (2733) 
368.365430776

>  <MW>  (2733) 
368

>  <ID>  (2733) 
JP008131

>  <CONTRIBUTOR>  (2733) 
University of Tokyo Team, {Faculty of Engineering, University of Tokyo

>  <COMMENT>  (2733) 
SMILES=CCCCCCCCCCCCOC(=O)CCCCCCCCCCC
InChI=InChI=1S/C24H48O2/c1-3-5-7-9-11-13-15-17-19-21-23-26-24(25)22-20-18-16-14-12-10-8-6-4-2/h3-23H2,1-2H3
computed SMILES=O=C(OCCCCCCCCCCCC)CCCCCCCCCCC
accession=JP008131
date=2016.01.19 (Created 2008.10.21, modified 2011.05.06)
author=YAMAOKA R, KYOTO INSTITUTE OF TECHNOLOGY
license=CC BY-NC-SA
exact mass=368.36543
ionization energy=70 eV
ion type=[M]+*
computed spectral entropy=3.5450503957279333
computed normalized entropy=0.8461438027738979
SPLASH=splash10-0ktf-9220000000-4389552fcb2351f113e1
submitter=submitter = University of Tokyo Team (Faculty of Engineering, University of Tokyo)
MoNA Rating=3.75

>  <NUM PEAKS>  (2733) 
66

>  <MASS SPECTRAL PEAKS>  (2733) 
41 43.88
42 13.01
43 78.9
53 2.44
54 5.29
55 47.32
56 26.01
57 69.94
58 4.21
59 1.05
60 8.58
61 16.8
67 6.73
68 11.27
69 38.7
70 23.44
71 35.11
72 2.11
73 15.48
74 1.04
81 5.45
82 15.36
83 36.8
84 20.92
85 20.75
86 1.03
87 5.41
89 1.03
95 4.98
96 9.32
97 28.79
98 18.46
99 3.06
101 4.09
103 1.11
109 2.2
110 4.15
111 19.78
112 9.05
113 1.81
115 4
116 3.28
124 1
125 8.61
126 5.3
127 1.11
129 6.76
138 1.44
139 3.98
140 14.45
141 1.95
143 1.54
157 5.97
168 39.97
169 5.63
171 2.1
183 19.31
184 3
200 17.38
201 99.99
202 14.62
203 1.27
213 4.44
229 1.07
368 5.45
369 2.02

>  <PREDICTED SPECTRUM>  (2733) 
25 6
26 49
27 213
28 116
29 360
30 24
31 42
35 11
36 28
37 39
38 50
39 231
40 111
41 693
42 382
43 948
44 177
45 125
51 13
52 19
53 161
54 294
55 846
56 666
57 999
58 210
59 144
60 405
61 598
62 81
63 16
65 68
66 77
67 338
68 374
69 749
70 686
71 725
72 146
73 513
74 157
75 63
76 21
77 27
78 6
79 121
80 95
81 297
82 434
83 715
84 564
85 497
86 112
87 279
88 130
89 132
91 54
93 98
94 65
95 281
96 308
97 662
98 550
99 303
100 123
101 247
102 145
103 107
107 76
108 30
109 175
110 228
111 465
112 413
113 192
114 76
115 275
116 268
117 249
118 61
119 17
121 95
122 23
123 135
124 143
125 317
126 268
127 175
128 31
129 419
130 129
131 91
132 4
133 16
135 50
136 17
137 87
138 114
139 186
140 194
141 177
142 13
143 139
144 89
145 140
146 36
147 22
149 86
150 38
151 57
152 113
153 142
154 110
155 93
156 21
157 153
158 111
159 179
160 61
163 4
164 35
165 53
166 76
167 98
168 131
169 124
171 138
172 80
173 127
174 38
180 46
181 112
182 118
183 80
184 6
185 144
186 86
187 189
188 77
192 2
193 8
194 27
195 87
196 87
197 34
199 86
200 72
201 115
202 33
209 15
210 67
211 33
213 95
214 22
222 0
224 30
225 5
227 88
228 56
229 48
238 9
239 28
241 105
242 27
252 70
253 98
255 109
256 68
257 125
258 33
267 7
268 28
269 76
270 81
271 149
272 57
283 6
284 32
285 89
286 45
297 17
298 0
325 40
326 1
368 258
369 151
370 56

$$$$

     RDKit          2D

 32 31  0  0  0  0  0  0  0  0999 V2000
    9.7428   16.8750    0.0000 C   0  0  0  0  0  0  0  0  0  0  0  0
  -29.2284   16.8750    0.0000 C   0  0  0  0  0  0  0  0  0  0  0  0
    8.4437   17.6250    0.0000 C   0  0  0  0  0  0  0  0  0  0  0  0
  -27.9293   17.6250    0.0000 C   0  0  0  0  0  0  0  0  0  0  0  0
    7.1447   16.8750    0.0000 C   0  0  0  0  0  0  0  0  0  0  0  0
  -26.6303   16.8750    0.0000 C   0  0  0  0  0  0  0  0  0  0  0  0
    5.8457   17.6250    0.0000 C   0  0  0  0  0  0  0  0  0  0  0  0
  -25.3312   17.6250    0.0000 C   0  0  0  0  0  0  0  0  0  0  0  0
    4.5466   16.8750    0.0000 C   0  0  0  0  0  0  0  0  0  0  0  0
  -24.0322   16.8750    0.0000 C   0  0  0  0  0  0  0  0  0  0  0  0
    3.2476   17.6250    0.0000 C   0  0  0  0  0  0  0  0  0  0  0  0
  -22.7332   17.6250    0.0000 C   0  0  0  0  0  0  0  0  0  0  0  0
    1.9486   16.8750    0.0000 C   0  0  0  0  0  0  0  0  0  0  0  0
  -21.4341   16.8750    0.0000 C   0  0  0  0  0  0  0  0  0  0  0  0
    0.6495   17.6250    0.0000 C   0  0  0  0  0  0  0  0  0  0  0  0
   -0.6495   16.8750    0.0000 C   0  0  0  0  0  0  0  0  0  0  0  0
   -1.9486   17.6250    0.0000 C   0  0  0  0  0  0  0  0  0  0  0  0
   -3.2476   16.8750    0.0000 C   0  0  0  0  0  0  0  0  0  0  0  0
   -4.5466   17.6250    0.0000 C   0  0  0  0  0  0  0  0  0  0  0  0
   -5.8457   16.8750    0.0000 C   0  0  0  0  0  0  0  0  0  0  0  0
  -20.1351   17.6250    0.0000 C   0  0  0  0  0  0  0  0  0  0  0  0
   -7.1447   17.6250    0.0000 C   0  0  0  0  0  0  0  0  0  0  0  0
  -18.8361   16.8750    0.0000 C   0  0  0  0  0  0  0  0  0  0  0  0
   -8.4437   16.8750    0.0000 C   0  0  0  0  0  0  0  0  0  0  0  0
  -17.5370   17.6250    0.0000 C   0  0  0  0  0  0  0  0  0  0  0  0
   -9.7428   17.6250    0.0000 C   0  0  0  0  0  0  0  0  0  0  0  0
  -16.2380   16.8750    0.0000 C   0  0  0  0  0  0  0  0  0  0  0  0
  -11.0418   16.8750    0.0000 C   0  0  0  0  0  0  0  0  0  0  0  0
  -14.9389   17.6250    0.0000 C   0  0  0  0  0  0  0  0  0  0  0  0
  -12.3409   17.6250    0.0000 C   0  0  0  0  0  0  0  0  0  0  0  0
  -12.3409   19.1250    0.0000 O   0  0  0  0  0  0  0  0  0  0  0  0
  -13.6399   16.8750    0.0000 O   0  0  0  0  0  0  0  0  0  0  0  0
  3  1  1  0
  4  2  1  0
  5  3  1  0
  6  4  1  0
  7  5  1  0
  8  6  1  0
  9  7  1  0
 10  8  1  0
 11  9  1  0
 12 10  1  0
 13 11  1  0
 14 12  1  0
 15 13  1  0
 16 15  1  0
 17 16  1  0
 18 17  1  0
 19 18  1  0
 20 19  1  0
 21 14  1  0
 22 20  1  0
 23 21  1  0
 24 22  1  0
 25 23  1  0
 26 24  1  0
 27 25  1  0
 28 26  1  0
 29 27  1  0
 30 28  1  0
 31 30  2  0
 32 29  1  0
 32 30  1  0
M  END
>  <NAME>  (2734) 
DODECYL OCTADECANOATE

>  <SYNONYMS>  (2734) 
LAURYL STEARATE

>  <SPECTRUM TYPE>  (2734) 
MS1

>  <INSTRUMENT TYPE>  (2734) 
EI-B

>  <INSTRUMENT>  (2734) 
HITACHI M-80B

>  <ION MODE>  (2734) 
P

>  <INCHIKEY>  (2734) 
JRTVEUGOGWTHTR-UHFFFAOYSA-N

>  <FORMULA>  (2734) 
C30H60O2

>  <EXACT MASS>  (2734) 
452.45933116000003

>  <MW>  (2734) 
452

>  <ID>  (2734) 
JP008130

>  <CONTRIBUTOR>  (2734) 
University of Tokyo Team, {Faculty of Engineering, University of Tokyo

>  <COMMENT>  (2734) 
SMILES=C(CCCCCCCCCCCCC(=O)OCCCCCCCCCCCC)CCCC
InChI=InChI=1S/C30H60O2/c1-3-5-7-9-11-13-15-16-17-18-19-20-22-24-26-28-30(31)32-29-27-25-23-21-14-12-10-8-6-4-2/h3-29H2,1-2H3
computed SMILES=O=C(OCCCCCCCCCCCC)CCCCCCCCCCCCCCCCC
accession=JP008130
date=2016.01.19 (Created 2008.10.21, modified 2011.05.06)
author=YAMAOKA R, KYOTO INSTITUTE OF TECHNOLOGY
license=CC BY-NC-SA
exact mass=452.45933
ionization energy=70 eV
ion type=[M]+*
computed spectral entropy=3.5949661609515937
computed normalized entropy=0.8301056376548709
SPLASH=splash10-0a4u-9110000000-4de07d935851c9cea9a3
submitter=submitter = University of Tokyo Team (Faculty of Engineering, University of Tokyo)
MoNA Rating=3.75

>  <NUM PEAKS>  (2734) 
76

>  <MASS SPECTRAL PEAKS>  (2734) 
41 37.47
42 13.03
43 92.73
53 1.83
54 4.31
55 56.93
56 23.82
57 99.99
58 4.85
59 1.18
60 15.91
61 16.31
67 7.78
68 13.44
69 36.68
70 24.57
71 49.89
72 2.66
73 23.07
74 1.96
81 4.16
82 15.42
83 41.69
84 22.18
85 35.94
86 1.41
87 2.42
95 5.43
96 9.62
97 35.59
98 14.91
99 6.44
100 1.52
101 3.8
109 2.95
110 4.41
111 19.53
112 8.55
113 3.55
114 1.87
115 1.93
116 3.37
121 1.03
123 1.16
124 2.04
125 10.32
126 4.53
127 1.65
129 8.46
135 1.02
138 1.25
139 2.94
140 15.04
141 2.15
168 41.73
169 6.5
171 1.5
177 1.2
185 4.26
199 1.23
213 4.71
227 1.01
229 2.81
241 5.23
264 1.39
265 1.51
267 10.85
268 2.68
282 1
283 1.47
284 13.9
285 81.13
286 14.55
287 2.15
452 12.11
453 3.74

>  <PREDICTED SPECTRUM>  (2734) 
11 8
25 0
26 37
27 140
28 97
29 271
30 11
32 1
34 1
36 6
37 28
38 36
39 172
40 103
41 585
42 311
43 925
44 185
45 92
47 6
50 11
51 23
52 22
53 148
54 267
55 770
56 563
57 999
58 214
59 127
60 357
61 492
62 74
63 56
65 69
66 73
67 323
68 370
69 690
70 591
71 737
72 181
73 500
74 150
75 53
76 30
77 65
78 28
79 122
80 94
81 328
82 442
83 696
84 467
85 531
86 147
87 227
88 69
89 90
91 43
92 38
93 92
94 69
95 292
96 330
97 636
98 499
99 285
100 130
101 198
102 114
103 101
104 11
105 44
106 11
107 75
108 16
109 173
110 218
111 486
112 367
113 206
114 89
115 223
116 163
117 88
118 24
119 41
120 26
121 91
122 37
123 135
124 148
125 322
126 230
127 154
128 69
129 350
130 103
131 63
132 29
133 39
134 16
135 66
136 34
137 110
138 132
139 209
140 192
141 155
142 49
143 181
144 120
145 115
146 13
148 0
149 61
150 43
151 54
152 115
153 136
154 121
155 65
156 14
157 152
158 94
159 83
160 30
161 3
163 39
164 15
165 40
166 77
167 120
168 155
169 141
170 38
171 156
172 122
173 83
174 5
177 29
179 31
180 78
181 142
182 114
183 88
184 19
185 159
186 85
187 93
188 71
191 29
192 6
193 29
194 72
195 97
196 144
197 87
198 8
199 147
200 102
201 164
202 68
205 8
207 23
208 41
209 55
210 79
211 60
212 14
213 162
214 53
215 10
219 12
221 3
222 67
223 52
224 91
225 56
227 82
228 83
229 125
230 45
236 46
237 50
238 58
239 64
240 4
241 130
242 62
243 70
249 1
250 28
251 61
252 87
253 13
255 111
256 82
257 101
258 24
264 1
265 35
266 44
267 74
268 12
269 76
270 57
271 18
276 4
280 44
281 18
283 41
284 102
285 178
286 89
294 14
295 18
297 81
298 23
308 1
311 50
312 100
313 56
314 0
325 47
326 32
337 34
339 53
340 76
341 129
342 52
352 32
353 50
354 68
355 19
364 2
367 40
368 42
369 90
370 35
409 56
423 9
451 26
452 463
453 210
454 49

$$$$

     RDKit          2D

 17 16  0  0  0  0  0  0  0  0999 V2000
    3.8971   15.7500    0.0000 C   0  0  0  0  0  0  0  0  0  0  0  0
    2.5981   15.0000    0.0000 C   0  0  0  0  0  0  0  0  0  0  0  0
    2.5981   13.5000    0.0000 C   0  0  0  0  0  0  0  0  0  0  0  0
    1.2990   12.7500    0.0000 C   0  0  0  0  0  0  0  0  0  0  0  0
    1.2990   11.2500    0.0000 C   0  0  0  0  0  0  0  0  0  0  0  0
    0.0000   10.5000    0.0000 C   0  0  0  0  0  0  0  0  0  0  0  0
    0.0000    9.0000    0.0000 C   0  0  0  0  0  0  0  0  0  0  0  0
   -1.2990    8.2500    0.0000 C   0  0  0  0  0  0  0  0  0  0  0  0
   -1.2990    6.7500    0.0000 C   0  0  0  0  0  0  0  0  0  0  0  0
   -2.5981    6.0000    0.0000 C   0  0  0  0  0  0  0  0  0  0  0  0
   -3.8971    6.7500    0.0000 C   0  0  0  0  0  0  0  0  0  0  0  0
   -5.1962    6.0000    0.0000 C   0  0  0  0  0  0  0  0  0  0  0  0
   -6.4952    6.7500    0.0000 C   0  0  0  0  0  0  0  0  0  0  0  0
   -7.7942    6.0000    0.0000 C   0  0  0  0  0  0  0  0  0  0  0  0
   -9.0933    6.7500    0.0000 C   0  0  0  0  0  0  0  0  0  0  0  0
  -10.3923    6.0000    0.0000 C   0  0  0  0  0  0  0  0  0  0  0  0
  -11.6913    6.7500    0.0000 O   0  0  0  0  0  0  0  0  0  0  0  0
  2  1  1  0
  3  2  1  0
  4  3  1  0
  5  4  1  0
  5  6  2  0
  7  6  1  0
  8  7  1  0
  9  8  1  0
  9 10  2  0
 11 10  1  0
 12 11  1  0
 13 12  1  0
 14 13  1  0
 15 14  1  0
 16 15  1  0
 17 16  1  0
M  END
>  <NAME>  (2735) 
(7Z,11Z)-7,11-HEXADECADIENOL

>  <SYNONYMS>  (2735) 


>  <SPECTRUM TYPE>  (2735) 
MS1

>  <INSTRUMENT TYPE>  (2735) 
EI-B

>  <INSTRUMENT>  (2735) 
HITACHI M-80B

>  <ION MODE>  (2735) 
P

>  <INCHIKEY>  (2735) 
ZWMPSFHVSWYKPO-QMRMAQATSA-N

>  <FORMULA>  (2735) 
C16H30O

>  <EXACT MASS>  (2735) 
238.22966558000002

>  <MW>  (2735) 
238

>  <ID>  (2735) 
JP008129

>  <CONTRIBUTOR>  (2735) 
University of Tokyo Team, {Faculty of Engineering, University of Tokyo

>  <COMMENT>  (2735) 
SMILES=OCCCCCCC([H])=C([H])CCC([H])=C([H])CCCC
InChI=InChI=1S/C16H30O/c1-2-3-4-5-6-7-8-9-10-11-12-13-14-15-16-17/h5-6,9-10,17H,2-4,7-8,11-16H2,1H3/b6-5+,10-9-
computed SMILES=OCCCCCCC=CCCC=CCCCC
accession=JP008129
date=2016.01.19 (Created 2008.10.21, modified 2011.05.06)
author=YAMAOKA R, KYOTO INSTITUTE OF TECHNOLOGY
license=CC BY-NC-SA
exact mass=238.22967
ionization energy=70 eV
ion type=[M]+*
computed spectral entropy=3.1435176281865598
computed normalized entropy=0.8077242491675817
SPLASH=splash10-0apj-9000000000-4be0694bd51fb65df73b
submitter=submitter = University of Tokyo Team (Faculty of Engineering, University of Tokyo)
MoNA Rating=3.75

>  <NUM PEAKS>  (2735) 
49

>  <MASS SPECTRAL PEAKS>  (2735) 
41 48.52
42 3.9
43 15.14
51 1.13
52 1.63
53 9.2
54 27.06
55 99.99
56 2.83
57 9.11
65 2.6
66 2.54
67 60.11
68 16.46
69 22.62
70 8.14
71 4.69
73 2.46
77 1.75
79 11.07
80 10.61
81 64.37
82 30.27
83 9.9
84 3.3
85 3.58
91 3.09
93 6.02
94 2.13
95 26.71
96 30.49
97 19.18
98 3.12
99 2.17
107 3.3
109 5.46
110 4.92
111 2.25
121 2.73
122 1.79
123 8.9
124 4.06
136 1.37
137 3.21
138 2.65
163 1.01
168 1.07
222 1.01
238 5.22

>  <PREDICTED SPECTRUM>  (2735) 
27 105
28 22
29 185
30 8
31 45
39 133
40 39
41 791
42 310
43 521
44 160
45 146
47 28
49 29
51 51
52 58
53 278
54 447
55 999
56 273
57 341
58 47
59 26
60 31
61 43
62 6
63 21
65 144
66 184
67 763
68 420
69 574
70 221
71 298
72 74
73 63
75 2
76 2
77 160
78 116
79 351
80 287
81 722
82 439
83 407
84 218
85 272
86 120
87 39
91 163
92 8
93 286
94 193
95 511
96 367
97 324
98 135
99 140
100 49
103 0
105 34
107 200
108 166
109 332
110 314
111 182
112 122
113 100
119 85
121 209
122 111
123 213
124 173
125 73
126 52
127 57
135 217
136 102
137 102
138 84
139 65
140 64
141 16
149 178
150 45
151 6
152 21
153 49
163 68
165 62
166 25
167 21
168 19
177 43
178 63
179 42
180 30
181 67
182 21
183 11
193 52
194 68
195 48
196 34
220 34
221 50
238 164
239 13

$$$$

     RDKit          2D

 17 18  0  0  0  0  0  0  0  0999 V2000
   -4.0054   -1.1220    0.0000 C   0  0  0  0  0  0  0  0  0  0  0  0
   -2.5129   -1.2800    0.0000 C   0  0  0  0  0  0  0  0  0  0  0  0
   -4.6156    0.2492    0.0000 C   0  0  0  0  0  0  0  0  0  0  0  0
   -1.6307   -0.0669    0.0000 C   0  0  0  0  0  0  0  0  0  0  0  0
   -3.7334    1.4623    0.0000 C   0  0  0  0  0  0  0  0  0  0  0  0
    3.3974    2.3600    0.0000 C   0  0  0  0  0  0  0  0  0  0  0  0
    4.8891    2.5174    0.0000 C   0  0  0  0  0  0  0  0  0  0  0  0
   -1.3587    2.5174    0.0000 C   0  0  0  0  0  0  0  0  0  0  0  0
    0.5552    4.9931    0.0000 C   0  0  0  0  0  0  0  0  0  0  0  0
   -2.2409    1.3043    0.0000 C   0  0  0  0  0  0  0  0  0  0  0  0
    2.5152    3.5731    0.0000 C   0  0  0  0  0  0  0  0  0  0  0  0
    1.0152    3.5731    0.0000 C   0  0  0  0  0  0  0  0  0  0  0  0
    2.9752    4.9931    0.0000 C   0  0  0  0  0  0  0  0  0  0  0  0
    6.3808    2.6749    0.0000 N   0  0  0  0  0  0  0  0  0  0  0  0
    0.1330    2.3600    0.0000 N   0  0  0  0  0  0  0  0  0  0  0  0
    4.4029    5.4531    0.0000 O   0  0  0  0  0  0  0  0  0  0  0  0
    1.7652    5.8831    0.0000 O   0  0  0  0  0  0  0  0  0  0  0  0
  2  1  2  0
  3  1  1  0
  4  2  1  0
  5  3  2  0
  7  6  1  0
 10  4  2  0
 10  5  1  0
 10  8  1  0
 11  6  1  0
 12  9  1  0
 12 11  2  0
 13 11  1  0
 14  7  3  0
 15  8  1  0
 15 12  1  0
 16 13  2  0
 17  9  1  0
 17 13  1  0
M  END
>  <NAME>  (2736) 
3-BENZYLAMINO-2-CYANOMETHYL-2-BUTEN-4-OLIDE

>  <SYNONYMS>  (2736) 


>  <SPECTRUM TYPE>  (2736) 
MS1

>  <INSTRUMENT TYPE>  (2736) 
EI-B

>  <INSTRUMENT>  (2736) 
JEOL JMS-HX-100

>  <ION MODE>  (2736) 
P

>  <INCHIKEY>  (2736) 
BZIOKUMHDIBMJI-UHFFFAOYSA-N

>  <FORMULA>  (2736) 
C13H12N2O2

>  <EXACT MASS>  (2736) 
228.089877624

>  <MW>  (2736) 
228

>  <ID>  (2736) 
JP008127

>  <CONTRIBUTOR>  (2736) 
University of Tokyo Team, {Faculty of Engineering, University of Tokyo

>  <COMMENT>  (2736) 
SMILES=N#CCC(C(=O)1)=C(NCc(c2)cccc2)CO1
InChI=InChI=1S/C13H12N2O2/c14-7-6-11-12(9-17-13(11)16)15-8-10-4-2-1-3-5-10/h1-5,15H,6,8-9H2
computed SMILES=N#CCC=1C(=O)OCC1NCC=2C=CC=CC2
accession=JP008127
date=2016.01.19 (Created 2008.10.21, modified 2011.05.06)
author=YAMAMOTO M, DEP. CHEMISTRY, FAC. SCIENCE, NARA WOMEN'S UNIV.
license=CC BY-NC-SA
exact mass=228.08988
ionization energy=70 eV
ion type=[M]+*
computed spectral entropy=1.9486714928156186
computed normalized entropy=0.5437871338989396
SPLASH=splash10-0006-9020000000-5fffe7cf95526e5910e6
submitter=submitter = University of Tokyo Team (Faculty of Engineering, University of Tokyo)
MoNA Rating=3.75

>  <NUM PEAKS>  (2736) 
36

>  <MASS SPECTRAL PEAKS>  (2736) 
39 3.02
41 1.7
43 0.66
50 0.79
51 2.39
52 1.97
55 0.66
57 0.98
63 1.71
64 0.76
65 8.68
66 1.06
69 1.11
71 0.62
77 1.57
78 1.04
80 1.17
81 0.57
89 2.16
90 1.21
91 99.99
92 9.6
93 0.51
104 1.36
105 0.73
115 0.69
116 0.64
149 1.12
156 0.67
183 0.54
200 1.12
201 0.68
227 1.08
228 35.29
229 5.98
230 0.62

>  <PREDICTED SPECTRUM>  (2736) 
16 0
17 7
18 3
24 6
26 7
27 39
28 8
33 4
37 24
38 70
39 193
40 82
41 88
42 104
43 52
44 67
45 62
46 10
49 20
50 125
51 185
52 125
53 77
54 49
55 62
56 23
57 31
61 15
62 72
63 168
64 79
65 346
66 107
67 55
68 52
69 57
70 23
71 23
73 26
74 60
75 71
76 77
77 154
78 99
79 64
80 61
81 22
82 42
83 34
85 17
86 18
87 11
89 161
90 37
91 999
92 287
93 74
94 33
95 76
96 5
102 29
103 38
104 120
105 81
106 82
107 15
108 26
109 85
110 19
112 2
116 24
117 41
118 14
120 6
122 30
123 18
128 25
129 51
130 10
131 30
132 64
137 75
138 15
141 11
151 42
153 4
154 7
155 88
156 47
166 6
167 16
169 6
171 1
172 3
182 36
183 65
184 43
185 1
199 27
200 68
201 14
209 5
210 34
211 77
227 156
228 578
229 208
230 64

$$$$

     RDKit          2D

 12 12  0  0  0  0  0  0  0  0999 V2000
   -4.0061   -0.0669    0.0000 C   0  0  0  0  0  0  0  0  0  0  0  0
    3.1239   -1.2800    0.0000 C   0  0  0  0  0  0  0  0  0  0  0  0
    2.8512    1.3037    0.0000 C   0  0  0  0  0  0  0  0  0  0  0  0
    0.7500   -0.2243    0.0000 C   0  0  0  0  0  0  0  0  0  0  0  0
   -2.0922    2.4088    0.0000 C   0  0  0  0  0  0  0  0  0  0  0  0
   -0.1322    0.9888    0.0000 C   0  0  0  0  0  0  0  0  0  0  0  0
   -1.6322    0.9888    0.0000 C   0  0  0  0  0  0  0  0  0  0  0  0
    0.3278    2.4088    0.0000 C   0  0  0  0  0  0  0  0  0  0  0  0
   -2.5144   -0.2243    0.0000 N   0  0  0  0  0  0  0  0  0  0  0  0
    2.2417   -0.0669    0.0000 N   0  0  0  0  0  0  0  0  0  0  0  0
    1.7555    2.8688    0.0000 O   0  0  0  0  0  0  0  0  0  0  0  0
   -0.8822    3.2988    0.0000 O   0  0  0  0  0  0  0  0  0  0  0  0
  6  4  1  0
  7  5  1  0
  7  6  2  0
  8  6  1  0
  9  1  1  0
  9  7  1  0
 10  2  1  0
 10  3  1  0
 10  4  1  0
 11  8  2  0
 12  5  1  0
 12  8  1  0
M  END
>  <NAME>  (2737) 
2-(N,N-DIMETHYLAMINO)METHYL-3-METHYLAMINO-2-BUTEN-4-OLIDE

>  <SYNONYMS>  (2737) 


>  <SPECTRUM TYPE>  (2737) 
MS1

>  <INSTRUMENT TYPE>  (2737) 
EI-B

>  <INSTRUMENT>  (2737) 
JEOL JMS-HX-100

>  <ION MODE>  (2737) 
P

>  <INCHIKEY>  (2737) 
GILQMCKXNBCQAD-UHFFFAOYSA-N

>  <FORMULA>  (2737) 
C8H14N2O2

>  <EXACT MASS>  (2737) 
170.105527688

>  <MW>  (2737) 
170

>  <ID>  (2737) 
JP008126

>  <CONTRIBUTOR>  (2737) 
University of Tokyo Team, {Faculty of Engineering, University of Tokyo

>  <COMMENT>  (2737) 
SMILES=CNC(C1)=C(CN(C)C)C(=O)O1
InChI=InChI=1S/C8H14N2O2/c1-9-7-5-12-8(11)6(7)4-10(2)3/h9H,4-5H2,1-3H3
computed SMILES=O=C1OCC(NC)=C1CN(C)C
accession=JP008126
date=2016.01.19 (Created 2008.10.21, modified 2011.05.06)
author=YAMAMOTO M, DEP. CHEMISTRY, FAC. SCIENCE, NARA WOMEN'S UNIV.
license=CC BY-NC-SA
exact mass=170.10553
ionization energy=70 eV
ion type=[M]+*
computed spectral entropy=3.3825293094712827
computed normalized entropy=0.7763955416872486
SPLASH=splash10-0abc-9700000000-28de2c7563541f36798a
submitter=submitter = University of Tokyo Team (Faculty of Engineering, University of Tokyo)
MoNA Rating=3.75

>  <NUM PEAKS>  (2737) 
78

>  <MASS SPECTRAL PEAKS>  (2737) 
39 2.61
40 1.21
41 4.12
42 18.97
43 3.58
44 99.99
45 31.09
46 7.54
51 0.65
52 3.1
53 4.82
54 3.51
55 40.48
56 9
57 2.97
58 32.18
59 1.64
63 0.33
65 0.53
66 6.35
67 17.35
68 11.56
69 2.01
70 3.12
71 0.49
72 50.71
73 1.91
74 0.71
79 0.73
80 9.62
81 12.85
82 34.02
83 2.67
84 5.63
85 0.47
86 0.41
93 0.44
94 6.3
95 5.1
96 15.75
97 5.46
98 16.5
99 1.8
100 0.4
108 1.93
109 6.8
110 2.47
111 3.58
112 1.99
113 2.21
114 0.83
118 0.53
121 0.3
122 0.66
123 0.5
124 5.92
125 4.98
126 74.41
127 30.46
128 3.04
136 0.4
137 12.14
138 2.84
139 2.04
140 46.83
141 4.52
142 0.5
153 0.66
154 0.53
155 96.37
156 10.82
157 1.28
167 1.19
168 0.62
169 3.91
170 51.89
171 9.29
172 1.04

>  <PREDICTED SPECTRUM>  (2737) 
18 0
28 34
29 18
30 96
31 24
32 40
36 17
38 47
39 260
40 155
41 332
42 694
43 225
44 882
45 463
46 196
49 28
50 106
51 193
52 243
53 346
54 300
55 329
56 366
57 337
58 792
59 174
60 36
62 15
63 35
64 90
65 151
66 253
67 363
68 456
69 297
70 277
71 155
72 615
73 193
74 44
76 10
77 86
78 124
79 140
80 286
81 410
82 454
83 285
84 295
85 61
86 44
92 105
93 133
94 232
95 266
96 333
97 298
98 318
99 110
100 59
106 75
107 106
108 239
109 309
110 324
111 243
112 213
113 152
114 69
122 167
123 126
124 257
125 428
126 773
127 368
128 216
129 23
136 31
137 204
138 165
139 354
140 304
141 259
142 58
143 31
152 88
153 145
155 999
156 400
157 209
169 231
170 761
171 295
172 116

$$$$

     RDKit          2D

 11 11  0  0  0  0  0  0  0  0999 V2000
    3.1239    2.0857    0.0000 C   0  0  0  0  0  0  0  0  0  0  0  0
   -1.6322    2.2431    0.0000 C   0  0  0  0  0  0  0  0  0  0  0  0
   -3.1239    2.0857    0.0000 C   0  0  0  0  0  0  0  0  0  0  0  0
    1.2100   -0.3900    0.0000 C   0  0  0  0  0  0  0  0  0  0  0  0
   -0.7500    1.0300    0.0000 C   0  0  0  0  0  0  0  0  0  0  0  0
    0.7500    1.0300    0.0000 C   0  0  0  0  0  0  0  0  0  0  0  0
   -1.2100   -0.3900    0.0000 C   0  0  0  0  0  0  0  0  0  0  0  0
   -4.6156    1.9282    0.0000 N   0  0  0  0  0  0  0  0  0  0  0  0
    1.6322    2.2431    0.0000 N   0  0  0  0  0  0  0  0  0  0  0  0
   -2.6377   -0.8500    0.0000 O   0  0  0  0  0  0  0  0  0  0  0  0
   -0.0000   -1.2800    0.0000 O   0  0  0  0  0  0  0  0  0  0  0  0
  3  2  1  0
  5  2  1  0
  6  4  1  0
  6  5  2  0
  7  5  1  0
  8  3  3  0
  9  1  1  0
  9  6  1  0
 10  7  2  0
 11  4  1  0
 11  7  1  0
M  END
>  <NAME>  (2738) 
2-CYANOMETHYL-3-METHYLAMINO-2-BUTEN-4-OLIDE

>  <SYNONYMS>  (2738) 


>  <SPECTRUM TYPE>  (2738) 
MS1

>  <INSTRUMENT TYPE>  (2738) 
EI-B

>  <INSTRUMENT>  (2738) 
JEOL JMS-HX-100

>  <ION MODE>  (2738) 
P

>  <INCHIKEY>  (2738) 
OVJFESRPJIBLLE-UHFFFAOYSA-N

>  <FORMULA>  (2738) 
C7H8N2O2

>  <EXACT MASS>  (2738) 
152.058577496

>  <MW>  (2738) 
152

>  <ID>  (2738) 
JP008125

>  <CONTRIBUTOR>  (2738) 
University of Tokyo Team, {Faculty of Engineering, University of Tokyo

>  <COMMENT>  (2738) 
SMILES=N#CCC(C(=O)1)=C(NC)CO1
InChI=InChI=1S/C7H8N2O2/c1-9-6-4-11-7(10)5(6)2-3-8/h9H,2,4H2,1H3
computed SMILES=N#CCC=1C(=O)OCC1NC
accession=JP008125
license=CC BY-NC-SA
date=2016.01.19 (Created 2008.10.21, modified 2011.05.06)
author=YAMAMOTO M, DEP. CHEMISTRY, FAC. SCIENCE, NARA WOMEN'S UNIV.
exact mass=152.05858
ionization energy=70 eV
ion type=[M]+*
computed spectral entropy=3.29357649040657
computed normalized entropy=0.798029863612155
SPLASH=splash10-0zfr-7900000000-0a81d28288590eb18127
submitter=submitter = University of Tokyo Team (Faculty of Engineering, University of Tokyo)
MoNA Rating=3.75

>  <NUM PEAKS>  (2738) 
62

>  <MASS SPECTRAL PEAKS>  (2738) 
38 0.47
39 4.04
40 0.67
41 3.26
42 10.54
43 0.46
44 1.39
50 0.4
51 1.72
52 7.92
53 4.19
54 3.69
55 5.77
56 2.19
58 2.32
64 1.03
65 2.13
66 11.54
67 12.51
68 13.33
69 2.44
72 10.11
73 0.67
76 0.42
77 1.89
78 3.98
79 24.28
80 12.71
81 4.49
82 4.58
83 1.29
84 0.65
91 1.19
92 1.51
93 7.86
94 9.94
95 4.66
96 7.52
97 2.9
98 0.54
105 3.34
106 25.42
107 38.39
108 9.58
109 1.55
112 1.88
119 1.45
121 3.94
122 0.95
123 7.14
124 7.56
125 3.42
126 1.87
133 3.73
134 8.44
135 1.51
136 0.3
137 1.21
151 7.06
152 99.99
153 10.56
154 1.03

>  <PREDICTED SPECTRUM>  (2738) 
25 1
26 17
30 52
37 59
38 132
39 272
40 170
41 199
42 297
43 75
44 173
45 102
46 14
49 48
50 212
51 295
52 333
53 374
54 319
55 117
56 91
57 53
58 37
60 27
61 32
62 69
63 89
64 144
65 212
66 261
67 393
68 326
69 215
70 71
71 52
72 41
74 32
76 93
77 219
78 271
79 509
80 467
81 267
82 154
83 86
84 32
91 21
92 94
93 240
94 266
95 292
96 214
97 71
104 23
105 202
106 293
107 742
108 410
109 147
110 45
111 36
112 94
119 4
120 5
121 56
122 63
123 285
124 231
125 117
126 29
133 41
134 203
135 145
137 70
151 222
152 999
153 317
154 125

$$$$

     RDKit          2D

 12 12  0  0  0  0  0  0  0  0999 V2000
    3.1239    2.0857    0.0000 C   0  0  0  0  0  0  0  0  0  0  0  0
    1.0227    3.6137    0.0000 C   0  0  0  0  0  0  0  0  0  0  0  0
   -4.0061    3.2988    0.0000 C   0  0  0  0  0  0  0  0  0  0  0  0
   -1.6322    2.2431    0.0000 C   0  0  0  0  0  0  0  0  0  0  0  0
    1.2100   -0.3900    0.0000 C   0  0  0  0  0  0  0  0  0  0  0  0
   -0.7500    1.0300    0.0000 C   0  0  0  0  0  0  0  0  0  0  0  0
    0.7500    1.0300    0.0000 C   0  0  0  0  0  0  0  0  0  0  0  0
   -1.2100   -0.3900    0.0000 C   0  0  0  0  0  0  0  0  0  0  0  0
    1.6322    2.2431    0.0000 N   0  0  0  0  0  0  0  0  0  0  0  0
   -2.6377   -0.8500    0.0000 O   0  0  0  0  0  0  0  0  0  0  0  0
   -3.1239    2.0857    0.0000 O   0  0  0  0  0  0  0  0  0  0  0  0
   -0.0000   -1.2800    0.0000 O   0  0  0  0  0  0  0  0  0  0  0  0
  6  4  1  0
  7  5  1  0
  7  6  2  0
  8  6  1  0
  9  1  1  0
  9  2  1  0
  9  7  1  0
 10  8  2  0
 11  3  1  0
 11  4  1  0
 12  5  1  0
 12  8  1  0
M  END
>  <NAME>  (2739) 
3-DIMETHYLAMINO-2-METHOXYMETHYL-2-BUTEN-4-OLIDE

>  <SYNONYMS>  (2739) 


>  <SPECTRUM TYPE>  (2739) 
MS1

>  <INSTRUMENT TYPE>  (2739) 
EI-B

>  <INSTRUMENT>  (2739) 
JEOL JMS-HX-100

>  <ION MODE>  (2739) 
P

>  <INCHIKEY>  (2739) 
RGWNVTBGNOHVBO-UHFFFAOYSA-N

>  <FORMULA>  (2739) 
C8H13NO3

>  <EXACT MASS>  (2739) 
171.089543276

>  <MW>  (2739) 
171

>  <ID>  (2739) 
JP008124

>  <CONTRIBUTOR>  (2739) 
University of Tokyo Team, {Faculty of Engineering, University of Tokyo

>  <COMMENT>  (2739) 
SMILES=COCC(C(=O)1)=C(CO1)N(C)C
InChI=InChI=1S/C8H13NO3/c1-9(2)7-5-12-8(10)6(7)4-11-3/h4-5H2,1-3H3
computed SMILES=O=C1OCC(=C1COC)N(C)C
date=2016.01.19 (Created 2008.10.21, modified 2011.05.06)
author=YAMAMOTO M, DEP. CHEMISTRY, FAC. SCIENCE, NARA WOMEN'S UNIV.
license=CC BY-NC-SA
accession=JP008124
exact mass=171.08954
ionization energy=70 eV
ion type=[M]+*
computed spectral entropy=2.8756577492946223
computed normalized entropy=0.6768650040684717
SPLASH=splash10-0006-6900000000-9f2ca5802e404aa7f9af
submitter=submitter = University of Tokyo Team (Faculty of Engineering, University of Tokyo)
MoNA Rating=3.75

>  <NUM PEAKS>  (2739) 
70

>  <MASS SPECTRAL PEAKS>  (2739) 
39 1.25
40 0.39
41 2.17
42 6.33
43 1.9
44 4.6
45 8.27
46 0.94
52 0.56
53 1.67
54 0.74
55 3.01
56 3.7
57 1.18
58 3.66
61 0.67
66 1.81
67 3.92
68 2.72
69 2.87
70 1.71
71 0.71
72 1.73
73 0.34
74 0.54
79 0.4
80 0.89
81 2.82
82 6.24
83 2.02
84 1.15
85 0.95
86 67.59
87 3.91
88 0.66
94 3.07
95 1.11
96 16.06
97 1.93
98 1.4
99 0.38
108 0.37
109 0.36
110 1.3
111 2.57
112 2.94
113 0.63
115 0.89
116 0.33
118 1.61
122 0.64
124 0.76
126 2.13
127 2.28
128 1.4
129 0.34
138 2.05
139 5.25
140 99.99
141 44.58
142 4.33
143 0.65
149 1.34
154 1.62
156 4.48
157 0.49
170 3.1
171 50.91
172 5.61
173 0.84

>  <PREDICTED SPECTRUM>  (2739) 
30 33
33 15
38 36
39 173
40 142
41 220
42 400
43 232
44 256
45 350
46 77
50 43
51 89
52 187
53 210
54 182
55 173
56 142
57 127
58 169
59 128
65 52
66 147
67 203
68 211
69 115
70 196
71 209
72 172
73 40
79 37
80 158
81 177
82 185
83 170
84 112
85 98
86 80
93 69
94 173
95 193
96 291
97 224
98 211
99 165
100 7
108 63
109 95
110 240
111 67
112 185
113 226
114 107
115 39
125 18
126 182
127 199
128 83
129 33
138 129
139 184
140 999
141 628
142 227
154 59
156 195
157 61
170 105
171 787
172 266
173 56

$$$$

     RDKit          2D

 15 16  0  0  0  0  0  0  0  0999 V2000
    0.7318    0.7032    0.0000 C   0  0  0  0  0  0  0  0  0  0  0  0
    0.3913    5.4497    0.0000 C   0  0  0  0  0  0  0  0  0  0  0  0
   -3.5075    1.7014    0.0000 C   0  0  0  0  0  0  0  0  0  0  0  0
   -3.5073    3.2023    0.0000 C   0  0  0  0  0  0  0  0  0  0  0  0
   -2.2083    0.9500    0.0000 C   0  0  0  0  0  0  0  0  0  0  0  0
   -2.2080    3.9517    0.0000 C   0  0  0  0  0  0  0  0  0  0  0  0
   -0.9090    1.6995    0.0000 C   0  0  0  0  0  0  0  0  0  0  0  0
    3.0534    3.8051    0.0000 C   0  0  0  0  0  0  0  0  0  0  0  0
    1.8461    1.7074    0.0000 C   0  0  0  0  0  0  0  0  0  0  0  0
   -0.9088    3.2003    0.0000 C   0  0  0  0  0  0  0  0  0  0  0  0
    1.6893    3.1991    0.0000 C   0  0  0  0  0  0  0  0  0  0  0  0
    3.3064    1.3983    0.0000 C   0  0  0  0  0  0  0  0  0  0  0  0
    0.3906    3.9497    0.0000 N   0  0  0  0  0  0  0  0  0  0  0  0
    3.9131    0.0265    0.0000 O   0  0  0  0  0  0  0  0  0  0  0  0
    4.0650    2.6947    0.0000 O   0  0  0  0  0  0  0  0  0  0  0  0
  4  3  2  0
  5  3  1  0
  6  4  1  0
  7  5  2  0
  9  1  1  0
 10  6  2  0
 10  7  1  0
 11  8  1  0
 11  9  2  0
 12  9  1  0
 13  2  1  0
 13 10  1  0
 13 11  1  0
 14 12  2  0
 15  8  1  0
 15 12  1  0
M  END
>  <NAME>  (2740) 
3-METHYLPHENYLAMINO-2-METHYL-2-BUTEN-4-OLIDE

>  <SYNONYMS>  (2740) 


>  <SPECTRUM TYPE>  (2740) 
MS1

>  <INSTRUMENT TYPE>  (2740) 
EI-B

>  <INSTRUMENT>  (2740) 
JEOL JMS-HX-100

>  <ION MODE>  (2740) 
P

>  <INCHIKEY>  (2740) 
KSQNRBUGSVRPHY-UHFFFAOYSA-N

>  <FORMULA>  (2740) 
C12H13NO2

>  <EXACT MASS>  (2740) 
203.094628656

>  <MW>  (2740) 
203

>  <ID>  (2740) 
JP008123

>  <CONTRIBUTOR>  (2740) 
University of Tokyo Team, {Faculty of Engineering, University of Tokyo

>  <COMMENT>  (2740) 
SMILES=O=C(O2)C(C)=C(C2)N(C)c(c1)cccc1
InChI=InChI=1S/C12H13NO2/c1-9-11(8-15-12(9)14)13(2)10-6-4-3-5-7-10/h3-7H,8H2,1-2H3
computed SMILES=O=C1OCC(=C1C)N(C=2C=CC=CC2)C
accession=JP008123
date=2016.01.19 (Created 2008.10.21, modified 2011.05.06)
author=YAMAMOTO M, DEP. CHEMISTRY, FAC. SCIENCE, NARA WOMEN'S UNIV.
license=CC BY-NC-SA
exact mass=203.09463
ionization energy=70 eV
ion type=[M]+*
computed spectral entropy=3.5091734860869948
computed normalized entropy=0.7409261930898514
SPLASH=splash10-0udi-3960000000-bd3f9813720c6b13a034
submitter=submitter = University of Tokyo Team (Faculty of Engineering, University of Tokyo)
MoNA Rating=3.75

>  <NUM PEAKS>  (2740) 
114

>  <MASS SPECTRAL PEAKS>  (2740) 
39 0.7
41 1.74
42 2.35
43 0.76
51 2.17
52 0.38
53 0.77
54 0.43
55 1.37
56 0.97
57 1.71
60 0.38
61 0.39
65 1.14
66 1.91
67 0.84
68 7.89
69 1.76
70 0.6
71 1.29
72 0.6
73 0.61
76 0.42
77 16.05
78 2.71
79 1.49
80 0.44
81 0.85
82 0.84
83 2.83
84 0.36
85 0.86
89 0.53
90 0.42
91 5.42
92 0.91
93 0.58
94 0.35
95 0.66
96 4.54
97 0.8
98 0.43
99 0.45
101 0.37
102 0.66
103 3.49
104 5.58
105 4.5
106 2.54
107 2.86
108 0.47
109 0.52
111 0.5
112 30.48
113 2.09
114 0.39
115 2.38
116 1.43
117 2.62
118 3.34
119 0.6
120 1.07
121 0.38
123 0.45
124 0.3
125 0.36
127 0.49
128 1.59
129 2.69
130 8.11
131 6.23
132 4.97
133 0.91
134 0.48
136 0.36
137 0.42
138 0.3
141 0.39
142 1.33
143 4.21
144 12.97
145 5.1
146 12.9
147 1.79
148 1.39
149 5.52
150 0.68
151 0.3
155 0.32
156 14.6
157 3.19
158 16.58
159 2.86
160 1.61
161 0.39
170 0.36
171 0.35
172 0.81
173 0.89
174 4.96
175 1.58
176 0.31
184 0.92
185 0.45
186 0.42
187 0.43
188 1.58
200 0.73
201 0.57
202 14.57
203 99.99
204 16.85
205 2.21
206 0.63

>  <PREDICTED SPECTRUM>  (2740) 
15 6
26 29
27 98
28 79
29 77
30 52
34 2
37 9
38 64
39 181
40 92
41 159
42 167
43 119
44 93
45 61
49 24
50 103
51 268
52 141
53 136
54 97
55 112
56 58
57 60
58 23
61 20
62 66
63 139
64 109
65 193
66 117
67 133
68 111
69 104
70 104
71 67
72 10
73 50
74 57
75 109
76 105
77 460
78 182
79 124
80 108
81 91
82 83
83 117
84 87
85 86
86 10
87 30
88 30
89 120
90 115
91 334
92 141
93 166
94 78
95 70
96 72
97 152
98 110
99 98
100 7
101 21
102 108
103 187
104 309
105 222
106 173
107 95
108 14
109 27
110 35
111 132
112 186
113 67
114 14
115 180
116 125
117 204
118 169
119 130
120 96
121 2
122 13
124 74
125 80
126 122
127 114
128 149
129 164
130 259
131 206
132 172
133 83
134 9
135 6
140 79
141 84
142 71
143 137
144 193
145 190
146 181
147 85
156 152
157 195
158 308
159 235
160 173
161 79
169 35
170 91
171 96
172 123
173 53
174 322
175 102
176 45
182 32
183 24
184 130
185 140
186 168
187 45
188 202
189 75
200 65
201 20
202 457
203 999
204 388
205 142
206 4

$$$$

     RDKit          2D

 15 16  0  0  0  0  0  0  0  0999 V2000
    5.0962    0.9298    0.0000 C   0  0  0  0  0  0  0  0  0  0  0  0
   -3.0828    0.7599    0.0000 C   0  0  0  0  0  0  0  0  0  0  0  0
   -1.7837    0.0085    0.0000 C   0  0  0  0  0  0  0  0  0  0  0  0
   -3.0827    2.2607    0.0000 C   0  0  0  0  0  0  0  0  0  0  0  0
   -0.4843    0.7579    0.0000 C   0  0  0  0  0  0  0  0  0  0  0  0
   -1.7833    3.0101    0.0000 C   0  0  0  0  0  0  0  0  0  0  0  0
    0.8153    3.0081    0.0000 C   0  0  0  0  0  0  0  0  0  0  0  0
    3.5707    4.4913    0.0000 C   0  0  0  0  0  0  0  0  0  0  0  0
    4.7837    2.3969    0.0000 C   0  0  0  0  0  0  0  0  0  0  0  0
   -0.4841    2.2587    0.0000 C   0  0  0  0  0  0  0  0  0  0  0  0
    3.4133    3.0070    0.0000 C   0  0  0  0  0  0  0  0  0  0  0  0
    5.7815    3.5070    0.0000 C   0  0  0  0  0  0  0  0  0  0  0  0
    2.1140    2.2576    0.0000 N   0  0  0  0  0  0  0  0  0  0  0  0
    7.2728    3.3465    0.0000 O   0  0  0  0  0  0  0  0  0  0  0  0
    5.0381    4.8122    0.0000 O   0  0  0  0  0  0  0  0  0  0  0  0
  3  2  2  0
  4  2  1  0
  5  3  1  0
  6  4  2  0
  9  1  1  0
 10  5  2  0
 10  6  1  0
 10  7  1  0
 11  8  1  0
 11  9  2  0
 12  9  1  0
 13  7  1  0
 13 11  1  0
 14 12  2  0
 15  8  1  0
 15 12  1  0
M  END
>  <NAME>  (2741) 
3-BENZYLAMINO-2-METHYL-2-BUTEN-4-OLIDE

>  <SYNONYMS>  (2741) 


>  <SPECTRUM TYPE>  (2741) 
MS1

>  <INSTRUMENT TYPE>  (2741) 
EI-B

>  <INSTRUMENT>  (2741) 
JEOL JMS-HX-100

>  <ION MODE>  (2741) 
P

>  <INCHIKEY>  (2741) 
ZZOBBYGZFYBUQE-UHFFFAOYSA-N

>  <FORMULA>  (2741) 
C12H13NO2

>  <EXACT MASS>  (2741) 
203.094628656

>  <MW>  (2741) 
203

>  <ID>  (2741) 
JP008122

>  <CONTRIBUTOR>  (2741) 
University of Tokyo Team, {Faculty of Engineering, University of Tokyo

>  <COMMENT>  (2741) 
SMILES=O=C(O1)C(C)=C(NCc(c2)cccc2)C1
InChI=InChI=1S/C12H13NO2/c1-9-11(8-15-12(9)14)13-7-10-5-3-2-4-6-10/h2-6,13H,7-8H2,1H3
computed SMILES=O=C1OCC(NCC=2C=CC=CC2)=C1C
accession=JP008122
date=2016.01.19 (Created 2008.10.21, modified 2011.05.06)
author=YAMAMOTO M, DEP. CHEMISTRY, FAC. SCIENCE, NARA WOMEN'S UNIV.
license=CC BY-NC-SA
exact mass=203.09463
ionization energy=70 eV
ion type=[M]+*
computed spectral entropy=2.503720921650897
computed normalized entropy=0.5220663617074958
SPLASH=splash10-0006-9020000000-219a007130d51babe437
submitter=submitter = University of Tokyo Team (Faculty of Engineering, University of Tokyo)
MoNA Rating=3.75

>  <NUM PEAKS>  (2741) 
121

>  <MASS SPECTRAL PEAKS>  (2741) 
38 0.29
39 3.29
41 2.19
42 0.4
43 1.18
44 0.11
50 0.6
51 1.88
52 1.01
53 1.07
54 0.68
55 1.27
56 0.27
57 1.09
59 0.1
60 0.84
62 0.52
63 1.76
64 0.56
65 9.81
66 0.78
67 0.51
68 0.66
69 1.76
70 0.43
71 0.63
72 0.59
73 0.92
74 0.11
75 0.18
76 0.22
77 1.37
78 0.77
79 0.37
80 0.22
81 0.79
82 0.54
83 1.03
84 0.39
85 0.35
87 0.39
88 0.21
89 2.3
90 0.98
91 99.99
92 9.69
93 0.42
94 0.1
95 0.38
96 0.2
97 0.69
98 0.27
99 0.18
100 0.18
101 0.23
102 0.13
103 0.22
104 1.07
106 0.16
107 0.15
109 0.2
111 0.48
112 0.22
113 0.18
114 0.22
115 0.9
116 0.35
117 0.36
118 0.17
120 0.16
121 0.29
123 0.21
124 0.18
125 0.3
126 0.11
128 0.16
129 0.75
130 0.5
131 0.25
135 0.18
136 0.14
137 0.21
138 0.13
140 0.12
142 0.22
143 0.72
144 0.63
145 0.2
147 0.12
148 0.23
149 0.13
151 0.14
152 0.11
156 0.64
157 0.46
158 0.86
159 0.18
163 0.11
164 0.22
165 0.21
167 0.35
169 0.12
171 0.21
172 0.24
174 0.35
175 0.12
176 0.16
177 0.11
184 0.18
185 0.42
186 0.21
188 0.15
191 0.27
193 0.17
199 0.22
200 0.19
201 0.19
202 0.65
203 40.33
204 6.11
205 0.6

>  <PREDICTED SPECTRUM>  (2741) 
26 18
27 83
28 37
29 47
31 4
33 8
38 45
39 200
40 85
41 158
42 138
43 139
44 58
45 30
49 8
50 78
51 160
52 102
53 107
54 80
55 119
56 72
57 89
58 23
59 58
60 15
62 46
63 134
64 58
65 359
66 122
67 71
68 76
69 97
70 45
71 35
74 21
75 40
76 57
77 142
78 105
79 97
80 68
81 55
82 56
83 84
84 111
85 55
86 22
87 13
89 135
90 34
91 999
92 321
93 24
94 39
95 9
97 28
98 45
99 35
103 27
104 137
105 71
106 75
107 37
108 22
109 9
110 15
111 72
112 167
113 70
114 7
115 39
116 32
117 58
118 71
120 16
125 19
126 98
127 52
128 50
129 3
130 61
131 16
132 9
141 1
142 21
143 10
144 64
145 9
146 51
147 0
154 6
155 0
156 35
157 27
158 68
159 40
160 9
170 46
171 30
172 71
174 10
175 2
184 32
185 59
186 59
187 16
188 40
189 3
202 142
203 580
204 213
205 54

$$$$

     RDKit          2D

 19 20  0  0  0  0  0  0  0  0999 V2000
    5.1970    0.8306    0.0000 C   0  0  0  0  0  0  0  0  0  0  0  0
    3.8981    0.0804    0.0000 C   0  0  0  0  0  0  0  0  0  0  0  0
   -1.2990    7.5800    0.0000 C   0  0  0  0  0  0  0  0  0  0  0  0
   -2.5990    6.8300    0.0000 C   0  0  0  0  0  0  0  0  0  0  0  0
    0.0010    6.8300    0.0000 C   0  0  0  0  0  0  0  0  0  0  0  0
   -0.0000   -2.1700    0.0000 C   0  0  0  0  0  0  0  0  0  0  0  0
   -2.5990    5.3300    0.0000 C   0  0  0  0  0  0  0  0  0  0  0  0
    0.0010    5.3300    0.0000 C   0  0  0  0  0  0  0  0  0  0  0  0
   -1.3000   -1.4200    0.0000 C   0  0  0  0  0  0  0  0  0  0  0  0
    1.3000   -1.4200    0.0000 C   0  0  0  0  0  0  0  0  0  0  0  0
   -2.5989    0.8302    0.0000 C   0  0  0  0  0  0  0  0  0  0  0  0
   -1.2990    3.0800    0.0000 C   0  0  0  0  0  0  0  0  0  0  0  0
   -1.2990    4.5800    0.0000 C   0  0  0  0  0  0  0  0  0  0  0  0
   -1.3000    0.0800    0.0000 C   0  0  0  0  0  0  0  0  0  0  0  0
    1.3000    0.0800    0.0000 C   0  0  0  0  0  0  0  0  0  0  0  0
   -0.0000    0.8300    0.0000 C   0  0  0  0  0  0  0  0  0  0  0  0
   -3.8981    0.0804    0.0000 O   0  0  0  0  0  0  0  0  0  0  0  0
    2.5989    0.8302    0.0000 O   0  0  0  0  0  0  0  0  0  0  0  0
    0.0000    2.3300    0.0000 O   0  0  0  0  0  0  0  0  0  0  0  0
  2  1  1  0
  4  3  2  0
  5  3  1  0
  7  4  1  0
  8  5  2  0
  9  6  2  0
 10  6  1  0
 13  7  2  0
 13  8  1  0
 13 12  1  0
 14  9  1  0
 14 11  1  0
 15 10  2  0
 16 14  2  0
 16 15  1  0
 17 11  2  0
 18  2  1  0
 18 15  1  0
 19 12  1  0
 19 16  1  0
M  END
>  <NAME>  (2742) 
2-BENZYLOXY-3-ETHOXYBENZALDEHYDE

>  <SYNONYMS>  (2742) 


>  <SPECTRUM TYPE>  (2742) 
MS1

>  <INSTRUMENT TYPE>  (2742) 
EI-B

>  <INSTRUMENT>  (2742) 
JEOL JMS-HX-100

>  <ION MODE>  (2742) 
P

>  <INCHIKEY>  (2742) 
QPOIBFQNRYMSCP-UHFFFAOYSA-N

>  <FORMULA>  (2742) 
C16H16O3

>  <EXACT MASS>  (2742) 
256.109944372

>  <MW>  (2742) 
256

>  <ID>  (2742) 
JP008121

>  <CONTRIBUTOR>  (2742) 
University of Tokyo Team, {Faculty of Engineering, University of Tokyo

>  <COMMENT>  (2742) 
SMILES=CCOc(c1)c(OCc(c2)cccc2)c(C=O)cc1
InChI=InChI=1S/C16H16O3/c1-2-18-15-10-6-9-14(11-17)16(15)19-12-13-7-4-3-5-8-13/h3-11H,2,12H2,1H3
computed SMILES=O=CC=1C=CC=C(OCC)C1OCC=2C=CC=CC2
accession=JP008121
date=2016.01.19 (Created 2008.10.21, modified 2011.05.06)
author=YAMAMOTO M, DEP. CHEMISTRY, FAC. SCIENCE, NARA WOMEN'S UNIV.
license=CC BY-NC-SA
exact mass=256.10994
ionization energy=70 eV
ion type=[M]+*
computed spectral entropy=2.632198751828328
computed normalized entropy=0.6096597564625098
SPLASH=splash10-0006-9210000000-3b393d634ff51eb8ee7f
submitter=submitter = University of Tokyo Team (Faculty of Engineering, University of Tokyo)
MoNA Rating=3.75

>  <NUM PEAKS>  (2742) 
75

>  <MASS SPECTRAL PEAKS>  (2742) 
27 1.45
28 0.74
29 1.25
32 0.19
38 0.28
39 2.31
40 0.23
41 1.22
43 0.35
50 0.64
51 2.35
52 1.98
53 1.36
55 1.11
56 0.25
57 0.64
61 0.28
62 0.37
63 2.08
64 0.8
65 8.65
66 0.58
67 0.24
69 0.44
70 0.31
71 0.49
76 0.28
77 0.89
79 0.94
80 0.9
81 2.56
82 0.24
83 0.34
85 0.28
89 1.73
90 0.86
91 99.99
92 9.21
93 0.69
94 0.23
95 0.3
97 0.33
105 0.45
107 0.96
108 1.15
109 3.98
110 0.39
115 0.31
119 0.24
120 0.75
121 0.76
122 0.68
128 0.22
136 3.77
137 2.01
138 0.43
141 0.23
149 4.19
150 0.61
152 0.34
153 0.33
163 0.28
164 9.63
165 5.67
166 0.78
167 0.43
181 0.44
197 0.25
199 0.38
227 10.14
228 4.95
229 0.74
256 12.24
257 2.24
258 0.29

>  <PREDICTED SPECTRUM>  (2742) 
27 56
29 45
38 8
39 99
41 94
43 40
44 8
49 7
50 51
51 115
52 87
53 78
54 4
55 21
62 25
63 115
64 49
65 324
66 50
69 3
76 35
77 88
78 58
79 101
80 80
81 49
82 2
89 125
90 41
91 999
92 284
93 59
94 26
95 30
103 8
104 35
105 77
106 55
107 91
108 98
109 163
115 25
117 2
118 11
119 94
120 56
121 44
122 59
123 18
135 57
136 87
137 172
138 14
149 82
150 22
151 16
152 5
163 106
164 147
165 207
166 74
167 23
179 2
181 31
182 21
183 18
184 13
198 14
199 57
209 14
210 35
211 53
212 12
227 303
228 164
229 34
239 2
255 24
256 342
257 137
258 11

$$$$

     RDKit          2D

 18 19  0  0  0  0  0  0  0  0999 V2000
    4.2220    4.7685    0.0000 C   0  0  0  0  0  0  0  0  0  0  0  0
   -4.8714    4.0175    0.0000 C   0  0  0  0  0  0  0  0  0  0  0  0
   -4.8719    2.5167    0.0000 C   0  0  0  0  0  0  0  0  0  0  0  0
   -3.5719    4.7683    0.0000 C   0  0  0  0  0  0  0  0  0  0  0  0
    4.2219    0.2675    0.0000 C   0  0  0  0  0  0  0  0  0  0  0  0
   -3.5728    1.7667    0.0000 C   0  0  0  0  0  0  0  0  0  0  0  0
   -2.2728    4.0183    0.0000 C   0  0  0  0  0  0  0  0  0  0  0  0
    2.9224   -0.4833    0.0000 C   0  0  0  0  0  0  0  0  0  0  0  0
    4.2224    1.7683    0.0000 C   0  0  0  0  0  0  0  0  0  0  0  0
    0.3242   -0.4831    0.0000 C   0  0  0  0  0  0  0  0  0  0  0  0
   -0.9743    1.7675    0.0000 C   0  0  0  0  0  0  0  0  0  0  0  0
   -2.2733    2.5175    0.0000 C   0  0  0  0  0  0  0  0  0  0  0  0
    1.6233    0.2667    0.0000 C   0  0  0  0  0  0  0  0  0  0  0  0
    2.9233    2.5183    0.0000 C   0  0  0  0  0  0  0  0  0  0  0  0
    1.6238    1.7675    0.0000 C   0  0  0  0  0  0  0  0  0  0  0  0
    0.3239   -1.9831    0.0000 O   0  0  0  0  0  0  0  0  0  0  0  0
    2.9231    4.0183    0.0000 O   0  0  0  0  0  0  0  0  0  0  0  0
    0.3248    2.5175    0.0000 O   0  0  0  0  0  0  0  0  0  0  0  0
  3  2  2  0
  4  2  1  0
  6  3  1  0
  7  4  2  0
  8  5  2  0
  9  5  1  0
 12  6  2  0
 12  7  1  0
 12 11  1  0
 13  8  1  0
 13 10  1  0
 14  9  2  0
 15 13  2  0
 15 14  1  0
 16 10  2  0
 17  1  1  0
 17 14  1  0
 18 11  1  0
 18 15  1  0
M  END
>  <NAME>  (2743) 
2-BENZYLOXY-3-METHOXYBENZALDEHYDE

>  <SYNONYMS>  (2743) 


>  <SPECTRUM TYPE>  (2743) 
MS1

>  <INSTRUMENT TYPE>  (2743) 
EI-B

>  <INSTRUMENT>  (2743) 
JEOL JMS-HX-100

>  <ION MODE>  (2743) 
P

>  <INCHIKEY>  (2743) 
KXBGOVZWCRLLOR-UHFFFAOYSA-N

>  <FORMULA>  (2743) 
C15H14O3

>  <EXACT MASS>  (2743) 
242.09429430799997

>  <MW>  (2743) 
242

>  <ID>  (2743) 
JP008120

>  <CONTRIBUTOR>  (2743) 
University of Tokyo Team, {Faculty of Engineering, University of Tokyo

>  <COMMENT>  (2743) 
SMILES=O=Cc(c1)c(OCc(c2)cccc2)c(OC)cc1
InChI=InChI=1S/C15H14O3/c1-17-14-9-5-8-13(10-16)15(14)18-11-12-6-3-2-4-7-12/h2-10H,11H2,1H3
computed SMILES=O=CC=1C=CC=C(OC)C1OCC=2C=CC=CC2
accession=JP008120
date=2016.01.19 (Created 2008.10.21, modified 2011.05.06)
author=YAMAMOTO M, DEP. CHEMISTRY, FAC. SCIENCE, NARA WOMEN'S UNIV.
license=CC BY-NC-SA
exact mass=242.09429
ionization energy=70 eV
ion type=[M]+*
computed spectral entropy=2.5198805982728048
computed normalized entropy=0.5818600223735318
SPLASH=splash10-0006-9210000000-2d6feb548e16f5c15dcf
submitter=submitter = University of Tokyo Team (Faculty of Engineering, University of Tokyo)
MoNA Rating=3.75

>  <NUM PEAKS>  (2743) 
76

>  <MASS SPECTRAL PEAKS>  (2743) 
15 0.16
26 0.18
27 0.28
28 0.79
29 0.25
32 0.32
38 0.4
39 2.98
40 0.25
41 1.51
43 0.15
50 0.99
51 3.24
52 2.91
53 0.68
54 0.16
55 0.44
57 0.17
61 0.13
62 0.52
63 2.43
64 0.93
65 10.8
66 0.74
67 0.55
69 0.13
74 0.16
75 0.25
76 0.48
77 1.45
78 0.3
79 1.28
80 1.38
81 0.22
89 1.84
90 0.91
91 99.99
92 10.09
93 1.13
94 0.18
95 0.46
104 0.13
105 0.46
106 0.21
107 1.32
108 2.9
109 0.36
115 0.28
119 0.46
120 0.7
121 0.91
122 2.9
123 0.43
128 0.11
135 0.12
136 1.01
137 0.15
139 0.12
141 0.22
149 0.6
150 12.4
151 6.25
152 1.04
153 0.37
165 0.14
169 0.12
181 0.43
182 0.15
187 0.11
197 0.22
213 12.53
214 5.63
215 0.8
242 11.22
243 1.91
244 0.24

>  <PREDICTED SPECTRUM>  (2743) 
26 4
27 46
28 2
29 50
38 32
39 148
40 47
41 129
42 16
43 39
44 19
49 21
50 85
51 164
52 97
53 88
54 30
55 59
56 0
57 0
62 57
63 140
64 70
65 352
66 108
67 51
68 35
69 35
74 7
75 36
76 55
77 140
78 100
79 88
80 81
81 53
82 27
89 124
90 44
91 999
92 296
93 120
94 67
95 86
96 12
103 14
104 69
105 95
106 96
107 69
108 78
109 30
110 11
119 45
120 56
121 89
122 107
123 117
124 1
135 82
136 55
137 51
138 6
149 79
150 112
151 192
152 92
153 44
154 12
165 50
166 5
167 34
168 1
181 70
182 14
196 36
197 31
211 7
213 227
214 135
215 49
225 18
241 17
242 254
243 105

$$$$

     RDKit          2D

 24 26  0  0  0  0  0  0  0  0999 V2000
    4.5482    4.4448    0.0000 C   0  0  0  0  0  0  0  0  0  0  0  0
  -11.0411    4.4471    0.0000 C   0  0  0  0  0  0  0  0  0  0  0  0
    4.5486    5.9457    0.0000 C   0  0  0  0  0  0  0  0  0  0  0  0
    3.2486    3.6940    0.0000 C   0  0  0  0  0  0  0  0  0  0  0  0
   -9.7417    3.6961    0.0000 C   0  0  0  0  0  0  0  0  0  0  0  0
  -11.0414    5.9480    0.0000 C   0  0  0  0  0  0  0  0  0  0  0  0
    3.2496    6.6957    0.0000 C   0  0  0  0  0  0  0  0  0  0  0  0
    1.9496    4.4440    0.0000 C   0  0  0  0  0  0  0  0  0  0  0  0
   -8.4426    4.4459    0.0000 C   0  0  0  0  0  0  0  0  0  0  0  0
   -9.7422    6.6978    0.0000 C   0  0  0  0  0  0  0  0  0  0  0  0
   -3.2467    8.9467    0.0000 C   0  0  0  0  0  0  0  0  0  0  0  0
   -1.9473    8.1957    0.0000 C   0  0  0  0  0  0  0  0  0  0  0  0
   -3.2462    5.9451    0.0000 C   0  0  0  0  0  0  0  0  0  0  0  0
   -5.8449    8.9469    0.0000 C   0  0  0  0  0  0  0  0  0  0  0  0
    0.6511    6.6948    0.0000 C   0  0  0  0  0  0  0  0  0  0  0  0
   -7.1437    6.6965    0.0000 C   0  0  0  0  0  0  0  0  0  0  0  0
    1.9501    5.9448    0.0000 C   0  0  0  0  0  0  0  0  0  0  0  0
   -8.4428    5.9467    0.0000 C   0  0  0  0  0  0  0  0  0  0  0  0
   -4.5458    8.1969    0.0000 C   0  0  0  0  0  0  0  0  0  0  0  0
   -1.9470    6.6948    0.0000 C   0  0  0  0  0  0  0  0  0  0  0  0
   -4.5456    6.6961    0.0000 C   0  0  0  0  0  0  0  0  0  0  0  0
   -7.1439    8.1969    0.0000 O   0  0  0  0  0  0  0  0  0  0  0  0
   -0.6480    5.9448    0.0000 O   0  0  0  0  0  0  0  0  0  0  0  0
   -5.8447    5.9463    0.0000 O   0  0  0  0  0  0  0  0  0  0  0  0
  3  1  2  0
  4  1  1  0
  5  2  2  0
  6  2  1  0
  7  3  1  0
  8  4  2  0
  9  5  1  0
 10  6  2  0
 12 11  2  0
 17  7  2  0
 17  8  1  0
 17 15  1  0
 18  9  2  0
 18 10  1  0
 18 16  1  0
 19 11  1  0
 19 14  1  0
 20 12  1  0
 20 13  2  0
 21 13  1  0
 21 19  2  0
 22 14  2  0
 23 15  1  0
 23 20  1  0
 24 16  1  0
 24 21  1  0
M  END
>  <NAME>  (2744) 
2,4-DIBENZYLOXYBENZALDEHYDE

>  <SYNONYMS>  (2744) 


>  <SPECTRUM TYPE>  (2744) 
MS1

>  <INSTRUMENT TYPE>  (2744) 
EI-B

>  <INSTRUMENT>  (2744) 
JEOL JMS-HX-100

>  <ION MODE>  (2744) 
P

>  <INCHIKEY>  (2744) 
DMYYTMVFUMDOGC-UHFFFAOYSA-N

>  <FORMULA>  (2744) 
C21H18O3

>  <EXACT MASS>  (2744) 
318.125594436

>  <MW>  (2744) 
318

>  <ID>  (2744) 
JP008119

>  <CONTRIBUTOR>  (2744) 
University of Tokyo Team, {Faculty of Engineering, University of Tokyo

>  <COMMENT>  (2744) 
SMILES=O=Cc(c1)c(OCc(c3)cccc3)cc(OCc(c2)cccc2)c1
InChI=InChI=1S/C21H18O3/c22-14-19-11-12-20(23-15-17-7-3-1-4-8-17)13-21(19)24-16-18-9-5-2-6-10-18/h1-14H,15-16H2
computed SMILES=O=CC1=CC=C(OCC=2C=CC=CC2)C=C1OCC=3C=CC=CC3
accession=JP008119
date=2016.01.19 (Created 2008.10.21, modified 2011.05.06)
author=YAMAMOTO M, DEP. CHEMISTRY, FAC. SCIENCE, NARA WOMEN'S UNIV.
license=CC BY-NC-SA
exact mass=318.12559
ionization energy=70 eV
ion type=[M]+*
computed spectral entropy=1.8234403302453521
computed normalized entropy=0.5012775643457222
SPLASH=splash10-0006-9012000000-a0267e69f2dfcf56abdc
submitter=submitter = University of Tokyo Team (Faculty of Engineering, University of Tokyo)
MoNA Rating=3.75

>  <NUM PEAKS>  (2744) 
38

>  <MASS SPECTRAL PEAKS>  (2744) 
44 0.04
50 0.26
51 1.03
52 0.37
63 1.56
64 0.74
65 8.81
66 0.52
77 0.53
89 1.47
90 0.79
91 99.99
92 8.77
93 0.42
121 0.38
128 0.27
129 0.27
141 0.44
153 0.43
167 0.36
180 0.49
181 1.66
182 0.34
197 0.29
199 1.08
200 0.29
209 0.25
210 0.6
211 0.32
226 0.52
227 4.25
228 1.08
289 6.41
290 1.51
301 0.3
318 29.82
319 7
320 0.99

>  <PREDICTED SPECTRUM>  (2744) 
38 15
39 67
40 15
41 96
42 16
43 22
44 34
45 22
49 26
50 73
51 153
52 87
53 48
54 7
55 32
56 2
57 4
62 61
63 150
64 78
65 318
66 60
74 16
75 21
76 29
77 111
78 52
79 54
80 32
81 4
87 0
89 148
90 70
91 999
92 310
93 7
102 9
103 9
104 3
105 41
106 20
107 22
108 21
109 7
115 68
116 1
117 18
127 2
128 0
130 5
131 0
141 15
151 9
152 5
155 11
156 20
157 2
165 0
167 6
169 16
170 1
180 63
181 171
182 52
198 19
199 47
226 33
227 152
228 46
290 6
318 224
319 103

$$$$

     RDKit          2D

 18 21  0  0  0  0  0  0  0  0999 V2000
   -4.4700    0.7100    0.0000 C   0  0  0  0  0  0  0  0  0  0  0  0
   -4.4600   -0.7900    0.0000 C   0  0  0  0  0  0  0  0  0  0  0  0
    4.3900   -0.7700    0.0000 C   0  0  0  0  0  0  0  0  0  0  0  0
   -3.1800    1.4700    0.0000 C   0  0  0  0  0  0  0  0  0  0  0  0
    3.1000   -1.5300    0.0000 C   0  0  0  0  0  0  0  0  0  0  0  0
    4.3700    0.7200    0.0000 C   0  0  0  0  0  0  0  0  0  0  0  0
   -3.1500   -1.5300    0.0000 C   0  0  0  0  0  0  0  0  0  0  0  0
    0.6800    0.5200    0.0000 C   0  0  0  0  0  0  0  0  0  0  0  0
   -0.8100   -1.8300    0.0000 C   0  0  0  0  0  0  0  0  0  0  0  0
    0.7300    1.7700    0.0000 C   0  0  0  0  0  0  0  0  0  0  0  0
    0.6800   -1.8500    0.0000 C   0  0  0  0  0  0  0  0  0  0  0  0
   -0.7700    1.7800    0.0000 C   0  0  0  0  0  0  0  0  0  0  0  0
   -1.8600    0.7400    0.0000 C   0  0  0  0  0  0  0  0  0  0  0  0
    1.7700   -0.8000    0.0000 C   0  0  0  0  0  0  0  0  0  0  0  0
    3.0600    1.4600    0.0000 C   0  0  0  0  0  0  0  0  0  0  0  0
   -1.8600   -0.7600    0.0000 N   0  0  0  0  0  0  0  0  0  0  0  0
    1.7700    0.7000    0.0000 N   0  0  0  0  0  0  0  0  0  0  0  0
    3.0463    2.9599    0.0000 O   0  0  0  0  0  0  0  0  0  0  0  0
  2  1  1  0
  4  1  1  0
  5  3  1  0
  6  3  2  0
  7  2  1  0
 11  8  1  0
 11  9  1  0
 12  8  1  0
 12 10  1  0
 13  4  1  0
 13 12  1  0
 14  5  2  0
 14 11  1  0
 15  6  1  0
 16  7  1  0
 16  9  1  0
 16 13  1  0
 17 10  1  0
 17 14  1  0
 17 15  1  0
 18 15  2  0
M  END
>  <NAME>  (2745) 
ANAGYRINE

>  <SYNONYMS>  (2745) 


>  <SPECTRUM TYPE>  (2745) 
MS1

>  <INSTRUMENT TYPE>  (2745) 
EI-B

>  <INSTRUMENT>  (2745) 
JEOL JMS-HX-100

>  <ION MODE>  (2745) 
P

>  <INCHIKEY>  (2745) 
FQEQMASDZFXSJI-UHFFFAOYSA-N

>  <FORMULA>  (2745) 
C15H20N2O

>  <EXACT MASS>  (2745) 
244.15756326

>  <MW>  (2745) 
244

>  <ID>  (2745) 
JP008118

>  <CONTRIBUTOR>  (2745) 
University of Tokyo Team, {Faculty of Engineering, University of Tokyo

>  <COMMENT>  (2745) 
SMILES=O=C(C=4)N(C1)C(=CC4)C(C2)CC1C(C3)N(CCC3)2
InChI=InChI=1S/C15H20N2O/c18-15-6-3-5-14-11-8-12(10-17(14)15)13-4-1-2-7-16(13)9-11/h3,5-6,11-13H,1-2,4,7-10H2
computed SMILES=O=C1C=CC=C2N1CC3CC2CN4CCCCC43
accession=JP008118
date=2016.01.19 (Created 2008.10.21, modified 2011.05.06)
author=YAMAMOTO M, DEP. CHEMISTRY, FAC. SCIENCE, NARA WOMEN'S UNIV.
license=CC BY-NC-SA
exact mass=244.15756
ionization energy=70 eV
ion type=[M]+*
computed spectral entropy=4.070887012390061
computed normalized entropy=0.775071417769669
SPLASH=splash10-0005-9740000000-116f1f06d17d16cde381
submitter=submitter = University of Tokyo Team (Faculty of Engineering, University of Tokyo)
MoNA Rating=3.75

>  <NUM PEAKS>  (2745) 
191

>  <MASS SPECTRAL PEAKS>  (2745) 
40 0.84
41 11.74
42 7.67
43 2.05
45 0.64
46 0.26
47 0.42
48 0.26
49 0.17
50 0.54
51 1.67
52 1.44
53 3.64
54 3.32
55 6.73
56 2.54
57 1.85
58 0.55
59 0.16
60 0.26
61 0.98
62 0.23
63 0.72
64 0.65
65 3.49
66 2.08
67 4.75
68 6.48
69 4.33
70 6.52
71 0.97
72 0.13
73 0.38
74 0.29
75 0.31
76 0.59
77 4.77
78 3.4
79 3.99
80 4.32
81 2.5
82 3.31
83 2.27
84 3.81
85 0.91
86 0.21
87 0.33
88 0.15
89 1
90 0.89
91 3.38
92 2
93 4.35
94 4.51
95 2.2
96 12.83
97 12.92
98 99.99
99 9.18
100 0.34
101 0.32
102 0.48
103 0.97
104 3.29
105 2.63
106 3.48
107 1.55
108 3.07
109 2.87
110 3.17
111 1.11
112 0.67
113 0.28
114 0.14
115 1.34
116 1.07
117 6.69
118 5.3
119 1.77
120 2.73
121 2.61
122 8.3
123 3.72
124 1.32
125 0.33
126 0.14
127 0.27
128 0.72
129 0.92
130 3.61
131 2.28
132 3.73
133 6.26
134 7.29
135 2.46
136 12.89
137 1.69
138 0.13
139 0.17
140 0.14
141 0.49
142 1.12
143 0.99
144 1.66
145 3.37
146 21.55
147 9.03
148 5.02
149 3.22
150 3.02
151 0.48
152 0.21
153 0.39
154 0.48
155 0.38
156 0.53
157 0.7
158 1.38
159 2.95
160 13.73
161 10.14
162 3.93
163 1.16
164 0.28
165 0.26
166 0.14
167 0.43
168 0.34
169 0.28
170 0.61
171 0.78
172 2.13
173 1.7
174 1.82
175 1.43
176 0.8
177 0.33
178 0.15
179 0.13
180 0.14
181 0.14
182 0.13
183 0.25
184 0.59
185 0.52
186 0.91
187 1.94
188 3.95
189 1.91
190 1.03
191 0.24
194 0.15
195 0.12
196 0.16
197 0.18
198 0.42
199 0.42
200 0.61
201 2.5
202 1.45
203 2.12
204 0.41
205 0.19
209 0.14
210 0.16
211 0.13
212 0.27
213 0.42
214 0.36
215 2.81
216 1.46
217 0.32
223 0.19
224 0.15
225 0.18
226 0.15
227 1.1
228 0.33
229 5.81
230 0.95
231 0.16
238 0.16
239 0.32
240 0.28
241 1.67
242 3.96
243 14.79
244 63.52
245 12.8
246 1.4
247 0.15

>  <PREDICTED SPECTRUM>  (2745) 
33 11
34 5
39 106
40 60
41 356
42 304
43 255
44 244
45 70
51 54
52 26
53 168
54 243
55 328
56 193
57 244
58 283
59 27
63 26
65 146
66 76
67 236
68 324
69 201
70 176
71 65
72 85
77 230
78 126
79 216
80 278
81 184
82 411
83 207
84 260
85 126
86 105
87 10
89 51
90 4
91 151
92 102
93 105
94 215
95 104
96 409
97 516
98 415
99 97
100 72
102 4
103 76
104 228
105 149
106 134
107 139
108 193
109 242
110 240
111 119
112 32
115 61
116 63
117 105
118 166
119 99
120 81
121 101
122 241
123 145
124 5
127 36
128 79
129 86
130 118
131 148
132 286
133 267
134 619
135 236
136 287
137 59
144 98
145 267
146 466
147 423
148 361
149 30
156 46
157 0
158 136
159 203
160 374
161 231
162 198
163 171
164 9
171 24
172 90
173 170
174 162
175 11
184 13
186 119
187 191
188 118
189 19
199 10
200 71
201 321
202 170
203 48
214 108
215 367
216 176
217 23
227 69
229 212
230 45
243 381
244 999
245 427
246 127

$$$$

     RDKit          2D

 17 18  0  0  0  0  0  0  0  0999 V2000
   -4.0061    3.2988    0.0000 C   0  0  0  0  0  0  0  0  0  0  0  0
    5.7706    5.7251    0.0000 C   0  0  0  0  0  0  0  0  0  0  0  0
    4.2781    5.8831    0.0000 C   0  0  0  0  0  0  0  0  0  0  0  0
    6.3808    4.3539    0.0000 C   0  0  0  0  0  0  0  0  0  0  0  0
    3.3959    4.6700    0.0000 C   0  0  0  0  0  0  0  0  0  0  0  0
    5.4986    3.1408    0.0000 C   0  0  0  0  0  0  0  0  0  0  0  0
    3.1239    2.0857    0.0000 C   0  0  0  0  0  0  0  0  0  0  0  0
   -1.6322    2.2431    0.0000 C   0  0  0  0  0  0  0  0  0  0  0  0
    1.2100   -0.3900    0.0000 C   0  0  0  0  0  0  0  0  0  0  0  0
    4.0061    3.2988    0.0000 C   0  0  0  0  0  0  0  0  0  0  0  0
   -0.7500    1.0300    0.0000 C   0  0  0  0  0  0  0  0  0  0  0  0
    0.7500    1.0300    0.0000 C   0  0  0  0  0  0  0  0  0  0  0  0
   -1.2100   -0.3900    0.0000 C   0  0  0  0  0  0  0  0  0  0  0  0
    1.6322    2.2431    0.0000 N   0  0  0  0  0  0  0  0  0  0  0  0
   -2.6377   -0.8500    0.0000 O   0  0  0  0  0  0  0  0  0  0  0  0
   -3.1239    2.0857    0.0000 O   0  0  0  0  0  0  0  0  0  0  0  0
   -0.0000   -1.2800    0.0000 O   0  0  0  0  0  0  0  0  0  0  0  0
  3  2  2  0
  4  2  1  0
  5  3  1  0
  6  4  2  0
 10  5  2  0
 10  6  1  0
 10  7  1  0
 11  8  1  0
 12  9  1  0
 12 11  2  0
 13 11  1  0
 14  7  1  0
 14 12  1  0
 15 13  2  0
 16  1  1  0
 16  8  1  0
 17  9  1  0
 17 13  1  0
M  END
>  <NAME>  (2746) 
3-BENZYLAMINO-2-METHOXYMETHYL-2-BUTEN-4-OLIDE

>  <SYNONYMS>  (2746) 


>  <SPECTRUM TYPE>  (2746) 
MS1

>  <INSTRUMENT TYPE>  (2746) 
EI-B

>  <INSTRUMENT>  (2746) 
JEOL JMS-HX-100

>  <ION MODE>  (2746) 
P

>  <INCHIKEY>  (2746) 
ZGIPNWNTIQGITH-UHFFFAOYSA-N

>  <FORMULA>  (2746) 
C13H15NO3

>  <EXACT MASS>  (2746) 
233.10519333999997

>  <MW>  (2746) 
233

>  <ID>  (2746) 
JP008102

>  <CONTRIBUTOR>  (2746) 
University of Tokyo Team, {Faculty of Engineering, University of Tokyo

>  <COMMENT>  (2746) 
SMILES=COCC(C(=O)1)=C(NCc(c2)cccc2)CO1
InChI=InChI=1S/C13H15NO3/c1-16-8-11-12(9-17-13(11)15)14-7-10-5-3-2-4-6-10/h2-6,14H,7-9H2,1H3
computed SMILES=O=C1OCC(NCC=2C=CC=CC2)=C1COC
accession=JP008102
date=2016.01.19 (Created 2008.10.21, modified 2011.05.06)
author=YAMAMOTO M, DEP. CHEMISTRY, FAC. SCIENCE, NARA WOMEN'S UNIV.
license=CC BY-NC-SA
exact mass=233.10519
ionization energy=70 eV
ion type=[M]+*
computed spectral entropy=3.457800403017052
computed normalized entropy=0.677210600992873
SPLASH=splash10-0f6x-9350000000-4624ddd92409dc0729c0
submitter=submitter = University of Tokyo Team (Faculty of Engineering, University of Tokyo)
MoNA Rating=3.75

>  <NUM PEAKS>  (2746) 
165

>  <MASS SPECTRAL PEAKS>  (2746) 
35 0.13
37 0.13
38 0.36
39 4.11
40 0.32
41 2.69
42 0.91
43 1.8
44 0.48
45 2.81
46 0.13
50 0.67
51 2.55
52 1.92
53 1.72
54 1.03
55 1.83
56 0.55
57 2.42
58 0.3
59 0.41
60 0.7
61 0.12
62 0.37
63 2.11
64 0.82
65 12.46
66 1.22
67 0.64
68 0.96
69 3.26
70 1
71 1.54
72 0.43
73 0.93
74 0.17
75 0.14
76 0.23
77 1.84
78 1.14
79 0.51
80 0.55
81 1.26
82 0.92
83 1.16
84 0.58
85 0.68
86 0.15
87 0.32
88 0.22
89 3.3
90 1.95
91 99.99
92 10.54
93 0.59
94 0.26
95 0.61
96 0.45
97 1.06
98 0.51
99 0.45
100 0.42
101 0.41
102 0.35
103 0.55
104 3.33
105 1.54
106 1.23
107 0.42
108 0.15
109 0.34
110 0.26
111 0.49
112 0.46
113 0.63
114 0.32
115 2.04
116 1.48
117 1.03
118 0.27
121 0.28
122 0.13
123 0.49
124 0.56
125 0.36
126 0.57
127 0.53
128 0.74
129 1.7
130 1.31
131 0.62
132 0.29
135 0.23
136 0.41
137 0.64
138 0.15
139 0.25
140 0.19
141 0.31
142 1.45
143 3.2
144 2.43
145 0.63
146 0.13
147 0.12
148 0.13
150 0.12
152 0.15
153 0.16
154 0.28
155 0.79
156 7.08
157 6.84
158 8.21
159 1.25
160 0.12
163 0.13
165 0.18
166 0.13
167 1.75
168 0.18
170 0.14
171 0.57
172 1.79
173 1.05
174 0.68
175 0.18
180 0.12
182 0.2
183 0.49
184 1.38
185 0.72
186 0.8
187 0.12
188 0.69
189 0.23
190 0.26
191 0.19
192 0.15
194 0.16
195 0.11
196 0.11
197 0.13
198 0.15
199 0.26
200 8.57
201 31.69
202 17.83
203 21.79
204 3.05
211 0.16
213 0.26
214 0.26
216 0.13
217 0.13
218 0.22
220 0.2
225 0.17
227 0.16
230 0.13
232 1.45
233 13.91
234 2.17
235 0.4
236 0.17

>  <PREDICTED SPECTRUM>  (2746) 
26 4
27 23
29 81
30 19
31 36
32 5
33 42
36 4
37 19
38 62
39 190
40 78
41 153
42 124
43 145
44 118
45 374
46 67
47 24
49 7
50 119
51 191
52 134
53 123
54 86
55 125
56 102
57 129
58 74
59 114
60 33
61 40
62 66
63 147
64 79
65 358
66 149
67 84
68 117
69 119
70 73
71 104
72 89
73 89
74 86
75 105
76 100
77 244
78 156
79 145
80 81
81 102
82 92
83 83
84 98
85 107
86 49
87 46
88 33
89 180
90 100
91 999
92 355
93 159
94 92
95 78
96 89
97 97
98 105
99 77
100 60
101 54
102 67
103 70
104 162
105 138
106 189
107 107
108 64
109 111
110 139
111 102
112 44
113 60
114 75
115 157
116 100
117 168
118 102
119 9
122 4
123 43
124 61
125 31
127 57
128 90
129 114
130 106
131 109
132 62
133 69
134 6
136 3
137 46
138 20
139 1
141 139
142 106
143 139
144 133
145 66
146 7
147 13
148 14
154 95
155 109
156 251
157 190
158 145
159 82
160 95
161 3
170 26
171 106
172 138
173 116
174 93
175 73
183 33
184 28
185 42
186 55
187 49
188 147
189 101
200 170
201 462
202 320
203 284
204 79
215 48
216 32
218 51
232 56
233 460
234 152
235 26

$$$$

     RDKit          2D

 25 25  0  0  0  0  0  0  0  0999 V2000
   15.6573   -6.7065    0.0000 C   0  0  0  0  0  0  0  0  0  0  0  0
   -7.7259   -6.7044    0.0000 C   0  0  0  0  0  0  0  0  0  0  0  0
   14.3583   -5.9562    0.0000 C   0  0  0  0  0  0  0  0  0  0  0  0
   13.0592   -6.7060    0.0000 C   0  0  0  0  0  0  0  0  0  0  0  0
   11.7603   -5.9558    0.0000 C   0  0  0  0  0  0  0  0  0  0  0  0
   10.4611   -6.7056    0.0000 C   0  0  0  0  0  0  0  0  0  0  0  0
    9.1622   -5.9554    0.0000 C   0  0  0  0  0  0  0  0  0  0  0  0
    7.8630   -6.7052    0.0000 C   0  0  0  0  0  0  0  0  0  0  0  0
    6.5641   -5.9550    0.0000 C   0  0  0  0  0  0  0  0  0  0  0  0
    5.2650   -6.7048    0.0000 C   0  0  0  0  0  0  0  0  0  0  0  0
    3.9660   -5.9546    0.0000 C   0  0  0  0  0  0  0  0  0  0  0  0
    2.6669   -6.7044    0.0000 C   0  0  0  0  0  0  0  0  0  0  0  0
    1.3680   -5.9542    0.0000 C   0  0  0  0  0  0  0  0  0  0  0  0
    0.0688   -6.7040    0.0000 C   0  0  0  0  0  0  0  0  0  0  0  0
   -3.8293   -8.9552    0.0000 C   0  0  0  0  0  0  0  0  0  0  0  0
   -1.2301   -5.9538    0.0000 C   0  0  0  0  0  0  0  0  0  0  0  0
   -2.5298   -8.2044    0.0000 C   0  0  0  0  0  0  0  0  0  0  0  0
   -5.1283   -8.2052    0.0000 C   0  0  0  0  0  0  0  0  0  0  0  0
   -2.5293   -6.7035    0.0000 C   0  0  0  0  0  0  0  0  0  0  0  0
   -5.1278   -6.7044    0.0000 C   0  0  0  0  0  0  0  0  0  0  0  0
   -3.8283   -5.9535    0.0000 C   0  0  0  0  0  0  0  0  0  0  0  0
   -3.8286   -4.4535    0.0000 C   0  0  0  0  0  0  0  0  0  0  0  0
   -2.5296   -3.7033    0.0000 O   0  0  0  0  0  0  0  0  0  0  0  0
   -5.1277   -3.7038    0.0000 O   0  0  0  0  0  0  0  0  0  0  0  0
   -6.4269   -5.9544    0.0000 O   0  0  0  0  0  0  0  0  0  0  0  0
  3  1  1  0
  4  3  1  0
  5  4  1  0
  6  5  1  0
  7  6  1  0
  8  7  1  0
  9  8  1  0
 10  9  1  0
 11 10  1  0
 12 11  1  0
 13 12  1  0
 14 13  1  0
 16 14  1  0
 17 15  2  0
 18 15  1  0
 19 16  1  0
 19 17  1  0
 20 18  2  0
 21 19  2  0
 21 20  1  0
 22 21  1  0
 23 22  2  0
 24 22  1  0
 25  2  1  0
 25 20  1  0
M  END
>  <NAME>  (2747) 
2-METHOXY-6-TETRADECYLBENZOIC ACID

>  <SYNONYMS>  (2747) 


>  <SPECTRUM TYPE>  (2747) 
MS1

>  <INSTRUMENT TYPE>  (2747) 
EI-B

>  <INSTRUMENT>  (2747) 
JEOL JMS-HX-100

>  <ION MODE>  (2747) 
P

>  <INCHIKEY>  (2747) 
DISDVNGQYZSKAL-UHFFFAOYSA-N

>  <FORMULA>  (2747) 
C22H36O3

>  <EXACT MASS>  (2747) 
348.26644501199996

>  <MW>  (2747) 
348

>  <ID>  (2747) 
JP008101

>  <CONTRIBUTOR>  (2747) 
University of Tokyo Team, {Faculty of Engineering, University of Tokyo

>  <COMMENT>  (2747) 
SMILES=CCCCCCCCCCCCCCc(c1)c(C(O)=O)c(OC)cc1
InChI=InChI=1S/C22H36O3/c1-3-4-5-6-7-8-9-10-11-12-13-14-16-19-17-15-18-20(25-2)21(19)22(23)24/h15,17-18H,3-14,16H2,1-2H3,(H,23,24)
computed SMILES=O=C(O)C=1C(OC)=CC=CC1CCCCCCCCCCCCCC
accession=JP008101
date=2016.01.19 (Created 2008.10.21, modified 2011.05.06)
author=YAMAMOTO M, DEP. CHEMISTRY, FAC. SCIENCE, NARA WOMEN'S UNIV.
license=CC BY-NC-SA
exact mass=348.26645
ionization energy=70 eV
ion type=[M]+*
computed spectral entropy=3.889186737027009
computed normalized entropy=0.7858911774217863
SPLASH=splash10-03di-1901000000-d46979952bd3411bebe4
submitter=submitter = University of Tokyo Team (Faculty of Engineering, University of Tokyo)
MoNA Rating=3.75

>  <NUM PEAKS>  (2747) 
141

>  <MASS SPECTRAL PEAKS>  (2747) 
39 0.92
41 8.49
42 0.82
43 9.61
44 2.32
51 0.38
52 0.36
53 0.52
55 4.12
65 1.22
66 0.66
67 0.32
77 4.23
78 1.53
79 3.94
89 1.01
90 4.38
91 8.21
92 1.54
102 0.5
103 3.37
104 1.74
105 3.52
106 0.66
107 5.97
108 3.73
115 3.02
116 0.78
117 1.83
118 1.34
119 1.32
120 1.21
121 14.39
122 21.2
123 1.23
127 0.37
128 1.25
129 1.17
130 1.53
131 2.86
132 3.34
133 4.52
134 3.43
135 6.28
136 0.74
144 1.42
145 1.86
146 4.05
147 7.84
148 17.03
150 3.79
151 3.46
152 0.32
153 0.6
156 0.55
158 1.11
159 3.64
160 4.46
161 99.99
162 24.13
163 7.58
164 4.03
165 15.12
166 46.19
167 3.9
168 0.53
171 0.88
172 0.98
173 1.93
174 6.86
175 21.54
176 7.67
177 19.11
178 3.71
179 7.98
180 1.18
184 0.38
185 0.72
186 0.57
187 1.88
188 0.98
189 3.82
190 5.29
191 1.68
192 0.78
198 0.34
199 1.27
200 0.61
201 1.11
202 0.52
203 3.25
204 8.08
205 1.11
206 0.54
207 1.42
208 0.68
213 0.56
214 0.39
215 0.74
216 0.32
217 2.33
218 0.9
220 0.32
221 0.52
227 0.33
229 0.37
231 1.46
232 0.5
233 0.38
245 0.66
247 0.35
259 0.54
273 0.67
274 0.36
277 0.34
278 0.37
287 1.12
288 0.3
289 0.31
290 0.67
291 0.34
301 1.11
302 0.96
303 1.27
304 2.96
305 0.83
312 1.43
313 0.79
314 0.42
315 0.83
316 0.32
329 1.52
330 5.66
331 6.99
332 2.03
333 0.76
346 3.32
347 1.36
348 29.04
349 7.26
350 1.22

>  <PREDICTED SPECTRUM>  (2747) 
15 2
16 2
17 32
18 38
26 7
27 73
28 39
29 63
34 5
38 8
39 164
40 69
41 399
42 80
43 453
44 94
45 80
50 37
51 123
52 53
53 112
54 61
55 311
56 79
57 185
60 26
63 78
64 54
65 168
66 55
67 145
68 60
69 201
70 51
71 127
75 7
76 58
77 330
78 190
79 225
80 69
81 118
82 70
83 96
84 46
85 65
89 143
90 140
91 302
92 110
93 104
94 45
95 91
96 11
97 73
98 49
101 38
102 27
103 152
104 149
105 294
106 144
107 289
108 185
109 143
110 36
111 10
115 108
116 76
117 142
118 152
119 130
120 90
121 484
122 256
123 133
124 34
125 51
127 60
128 48
129 100
130 83
131 147
132 146
133 250
134 342
135 320
136 178
137 230
138 91
139 75
141 7
144 70
145 124
146 268
147 363
148 580
149 265
150 166
151 218
152 236
153 74
154 50
155 27
157 54
158 69
159 93
160 321
161 999
162 533
163 339
164 175
165 358
166 437
167 124
170 44
171 107
172 93
173 173
174 275
175 543
176 417
177 303
178 134
179 200
180 146
181 13
182 21
184 11
185 118
186 92
187 131
188 97
189 241
190 190
191 130
192 70
193 133
194 55
199 111
200 116
201 120
202 90
203 143
204 101
205 136
206 14
207 7
208 27
213 83
214 22
215 84
216 55
217 180
218 85
219 61
221 42
227 69
228 14
229 43
230 9
231 143
232 17
233 52
240 8
241 25
243 82
244 10
245 103
249 6
257 53
258 4
259 107
260 59
265 1
269 8
271 24
273 149
274 5
283 24
287 116
288 44
289 4
290 36
291 28
292 10
297 29
301 117
302 104
303 129
304 122
312 106
313 67
314 2
315 28
316 10
317 48
318 17
319 5
329 114
330 302
331 255
332 94
333 30
334 1
346 125
347 88
348 281
349 384
350 138
351 51

$$$$

     RDKit          2D

 27 27  0  0  0  0  0  0  0  0999 V2000
   26.9108    0.5442    0.0000 C   0  0  0  0  0  0  0  0  0  0  0  0
   25.6116    1.2940    0.0000 C   0  0  0  0  0  0  0  0  0  0  0  0
   24.3127    0.5437    0.0000 C   0  0  0  0  0  0  0  0  0  0  0  0
   23.0135    1.2935    0.0000 C   0  0  0  0  0  0  0  0  0  0  0  0
   23.0133    2.7935    0.0000 C   0  0  0  0  0  0  0  0  0  0  0  0
   21.7141    3.5433    0.0000 C   0  0  0  0  0  0  0  0  0  0  0  0
   21.7139    5.0433    0.0000 C   0  0  0  0  0  0  0  0  0  0  0  0
   23.0128    5.7935    0.0000 C   0  0  0  0  0  0  0  0  0  0  0  0
   23.0126    7.2935    0.0000 C   0  0  0  0  0  0  0  0  0  0  0  0
   24.3115    8.0437    0.0000 C   0  0  0  0  0  0  0  0  0  0  0  0
   25.6106    7.2940    0.0000 C   0  0  0  0  0  0  0  0  0  0  0  0
   26.9096    8.0442    0.0000 C   0  0  0  0  0  0  0  0  0  0  0  0
   28.2087    7.2944    0.0000 C   0  0  0  0  0  0  0  0  0  0  0  0
   29.5076    8.0446    0.0000 C   0  0  0  0  0  0  0  0  0  0  0  0
   30.8068    7.2948    0.0000 C   0  0  0  0  0  0  0  0  0  0  0  0
   32.1057    8.0450    0.0000 C   0  0  0  0  0  0  0  0  0  0  0  0
   41.2010    7.2969    0.0000 C   0  0  0  0  0  0  0  0  0  0  0  0
   39.9008    8.0465    0.0000 C   0  0  0  0  0  0  0  0  0  0  0  0
   33.4049    7.2952    0.0000 C   0  0  0  0  0  0  0  0  0  0  0  0
   41.2015    5.7969    0.0000 C   0  0  0  0  0  0  0  0  0  0  0  0
   38.6015    5.7960    0.0000 C   0  0  0  0  0  0  0  0  0  0  0  0
   37.3019    8.0458    0.0000 C   0  0  0  0  0  0  0  0  0  0  0  0
   38.6010    7.2960    0.0000 C   0  0  0  0  0  0  0  0  0  0  0  0
   34.7038    8.0454    0.0000 C   0  0  0  0  0  0  0  0  0  0  0  0
   39.9017    5.0465    0.0000 N   0  0  0  0  0  0  0  0  0  0  0  0
   34.7035    9.5454    0.0000 O   0  0  0  0  0  0  0  0  0  0  0  0
   36.0029    7.2956    0.0000 O   0  0  0  0  0  0  0  0  0  0  0  0
  2  1  1  0
  3  2  1  0
  3  4  2  0
  5  4  1  0
  6  5  1  0
  6  7  2  0
  8  7  1  0
  9  8  1  0
  9 10  2  0
 11 10  1  0
 12 11  1  0
 13 12  1  0
 14 13  1  0
 15 14  1  0
 16 15  1  0
 18 17  2  0
 19 16  1  0
 20 17  1  0
 23 18  1  0
 23 21  2  0
 23 22  1  0
 24 19  1  0
 25 20  2  0
 25 21  1  0
 26 24  2  0
 27 22  1  0
 27 24  1  0
M  END
>  <NAME>  (2748) 
3-PYRIDYLMETHYL OCTADECA-9,12,15-TRIENOATE

>  <SYNONYMS>  (2748) 
LINOLENIC ACID PICOLINYL ESTER

>  <SPECTRUM TYPE>  (2748) 
MS1

>  <INSTRUMENT TYPE>  (2748) 
EI-B

>  <INSTRUMENT>  (2748) 
JEOL JMS-HX-100

>  <ION MODE>  (2748) 
P

>  <INCHIKEY>  (2748) 
VMDODSILOLPSBY-PDBXOOCHSA-N

>  <FORMULA>  (2748) 
C24H35NO2

>  <EXACT MASS>  (2748) 
369.26677936000004

>  <MW>  (2748) 
369

>  <ID>  (2748) 
JP008100

>  <CONTRIBUTOR>  (2748) 
University of Tokyo Team, {Faculty of Engineering, University of Tokyo

>  <COMMENT>  (2748) 
SMILES=CCC=CCC=CCC=CCCCCCCCC(=O)OCc(c1)cncc1
InChI=InChI=1S/C24H35NO2/c1-2-3-4-5-6-7-8-9-10-11-12-13-14-15-16-19-24(26)27-22-23-18-17-20-25-21-23/h3-4,6-7,9-10,17-18,20-21H,2,5,8,11-16,19,22H2,1H3/b4-3-,7-6-,10-9-
computed SMILES=O=C(OCC=1C=NC=CC1)CCCCCCCC=CCC=CCC=CCC
accession=JP008100
date=2016.01.19 (Created 2008.10.21, modified 2011.05.06)
author=YAMAMOTO M, DEP. CHEMISTRY, FAC. SCIENCE, NARA WOMEN'S UNIV.
license=CC BY-NC-SA
exact mass=369.26678
ionization energy=70 eV
ion type=[M]+*
computed spectral entropy=4.504230335290269
computed normalized entropy=0.7887729449278384
SPLASH=splash10-0006-9533000000-8dc860002801afc1216b
submitter=submitter = University of Tokyo Team (Faculty of Engineering, University of Tokyo)
MoNA Rating=3.75

>  <NUM PEAKS>  (2748) 
302

>  <MASS SPECTRAL PEAKS>  (2748) 
40 1.28
41 30.32
42 2.43
43 7.12
44 1
45 0.27
50 0.63
51 2.08
52 1.51
53 7.67
54 5.66
55 23.82
56 1.92
57 2.48
58 0.22
59 0.27
60 0.18
61 0.2
62 0.31
63 1.61
64 2.46
65 20.82
66 5.95
67 36.87
68 4.98
69 11.05
70 0.91
71 1.05
72 0.18
73 1.17
74 0.11
75 0.35
76 0.17
77 14.52
78 7.82
79 46.53
80 15.52
81 18.08
82 3.18
83 3.34
84 0.43
85 0.83
87 0.41
89 0.28
90 0.25
91 21.91
92 99.99
93 57.29
94 11.63
95 24.29
96 1.93
97 2.08
98 0.53
99 0.34
100 0.15
101 0.45
102 0.26
103 0.95
104 0.58
105 8.01
106 3.72
107 11.78
108 49.66
109 20.14
110 8.86
111 1.11
112 0.27
113 0.55
114 0.14
115 0.92
116 0.42
117 2.25
118 1.55
119 5.62
120 2.05
121 8.89
122 1.88
123 1.84
124 0.41
125 0.33
126 0.14
127 0.55
128 0.38
129 0.77
130 1.03
131 2.17
132 1.12
133 4.77
134 2.3
135 7.24
136 1.59
137 0.88
138 0.22
139 0.44
140 0.14
141 0.33
142 0.17
143 0.72
144 1.23
145 1.74
146 1.23
147 3.91
148 1.69
149 4.05
150 1.21
151 16.73
152 2.21
153 0.6
154 0.25
155 0.27
156 0.57
157 0.78
158 1.27
159 1.39
160 1.38
161 3.27
162 2.07
163 1.85
164 50.36
165 7.75
166 0.97
167 0.51
168 0.36
169 0.34
170 1.1
171 0.91
172 1.57
173 1.05
174 0.99
175 1.72
176 0.82
177 1.13
178 10.01
179 2.75
180 0.52
181 0.52
182 0.48
183 0.43
184 1.71
185 1.11
186 1.21
187 1.04
188 0.87
189 0.77
190 1.99
191 0.88
192 4
193 2.09
194 0.45
195 0.57
196 0.39
197 0.3
198 1.07
199 0.57
200 0.99
201 0.55
202 2.05
203 1.15
204 2.01
205 1.18
206 9.05
207 4.78
208 1.12
209 0.54
210 0.28
211 0.18
212 0.68
213 0.54
214 0.78
215 0.43
216 0.98
217 0.76
218 2.46
219 1.22
220 9.94
221 4.07
222 0.93
223 0.22
224 0.33
225 0.19
226 0.61
227 0.41
228 0.85
229 0.32
230 0.92
231 0.67
232 2.07
233 2.02
234 4.45
235 1.22
236 0.42
237 0.15
238 0.25
239 0.21
240 0.73
241 0.73
242 1.19
243 0.57
244 1.2
245 0.96
246 2.35
247 4.12
248 3.23
249 0.36
250 0.1
251 0.17
252 0.18
253 0.11
254 0.82
255 0.34
256 2.69
257 0.89
258 2.65
259 1.62
260 8.93
261 9.44
262 5.47
263 1.04
264 0.32
265 0.47
266 0.15
267 0.39
268 0.5
269 0.2
270 1.26
271 0.6
272 2.8
273 1.69
274 6.34
275 6.22
276 2.66
277 6.17
278 1.27
279 0.35
280 0.35
281 1.97
282 3.58
283 0.74
284 1.52
285 0.93
286 4.28
287 3.98
288 4.18
289 1.78
290 1
291 0.27
294 0.47
295 0.08
296 1.36
297 0.53
298 2.72
299 1.56
300 29.4
301 9.57
302 2.37
303 1.34
304 0.68
305 0.23
306 0.15
308 0.49
309 0.21
310 0.61
311 0.28
312 5.9
313 4.71
314 9.14
315 4.39
316 1.06
317 0.26
322 0.86
323 0.32
324 0.21
325 0.08
326 8.1
327 2.41
328 2.5
329 0.66
330 0.28
336 0.44
337 0.27
339 0.13
340 8.5
341 2.64
342 0.59
343 0.12
350 0.7
351 0.25
352 0.07
353 0.14
354 5.49
355 0.81
356 0.17
357 0.18
358 0.16
366 0.11
367 0.58
368 9.92
369 42.68
370 12.51
371 2.71
372 0.54
373 0.29

>  <PREDICTED SPECTRUM>  (2748) 
39 73
41 14
43 84
50 50
51 180
52 166
53 298
54 235
55 477
56 154
57 155
58 29
59 38
60 32
61 5
62 44
63 153
64 170
65 497
66 261
67 592
68 230
69 251
70 103
71 111
73 35
75 17
76 21
77 288
78 214
79 567
80 307
81 380
82 164
83 164
84 38
85 73
86 6
87 20
89 42
90 1
91 471
92 999
93 747
94 256
95 304
96 101
97 87
99 6
101 25
103 35
104 49
105 198
106 138
107 250
108 705
109 471
110 256
111 82
112 0
113 28
115 34
116 32
117 96
118 95
119 197
120 108
121 192
122 82
123 93
124 0
125 33
127 13
128 29
129 66
130 58
131 97
132 58
133 161
134 84
135 148
136 53
137 85
138 16
141 8
143 32
144 69
145 72
146 47
147 138
148 84
149 99
150 58
151 376
152 91
153 40
155 26
156 21
157 28
158 71
159 50
160 46
161 103
162 89
163 42
164 553
165 212
166 56
167 20
168 15
170 16
171 17
172 13
173 12
174 53
175 62
176 36
177 60
178 230
179 104
181 45
182 20
183 3
184 37
185 17
187 26
188 11
189 6
190 23
191 44
192 148
193 92
194 24
195 18
196 10
198 13
200 26
202 32
203 25
204 72
205 15
206 241
207 172
208 23
209 4
212 41
213 21
214 30
215 13
216 10
218 85
219 77
220 236
221 83
226 39
228 40
229 25
230 3
232 120
233 99
234 221
235 100
236 19
240 46
242 39
243 20
244 29
245 15
246 168
247 104
248 135
249 23
256 75
257 56
258 93
259 111
260 259
261 212
262 242
263 77
268 20
270 49
271 45
272 123
273 76
274 184
275 97
276 60
277 193
278 42
280 24
282 64
283 1
284 66
285 35
286 203
287 103
288 138
289 69
290 73
294 9
298 108
299 12
300 368
301 218
302 138
303 78
308 41
310 31
311 3
312 169
313 95
314 218
315 96
316 33
320 22
322 57
326 171
327 121
328 135
329 29
336 30
340 211
341 74
350 31
354 145
355 80
356 13
368 272
369 407
370 199
371 83

$$$$

     RDKit          2D

 25 25  0  0  0  0  0  0  0  0999 V2000
   24.3127    0.5437    0.0000 C   0  0  0  0  0  0  0  0  0  0  0  0
   23.0135    1.2935    0.0000 C   0  0  0  0  0  0  0  0  0  0  0  0
   21.7146    0.5433    0.0000 C   0  0  0  0  0  0  0  0  0  0  0  0
   20.4155    1.2931    0.0000 C   0  0  0  0  0  0  0  0  0  0  0  0
   19.1165    0.5429    0.0000 C   0  0  0  0  0  0  0  0  0  0  0  0
   17.8174    1.2927    0.0000 C   0  0  0  0  0  0  0  0  0  0  0  0
   16.5185    0.5425    0.0000 C   0  0  0  0  0  0  0  0  0  0  0  0
   15.2193    1.2923    0.0000 C   0  0  0  0  0  0  0  0  0  0  0  0
   13.9204    0.5421    0.0000 C   0  0  0  0  0  0  0  0  0  0  0  0
   12.6212    1.2919    0.0000 C   0  0  0  0  0  0  0  0  0  0  0  0
   11.3223    0.5417    0.0000 C   0  0  0  0  0  0  0  0  0  0  0  0
   10.0231    1.2915    0.0000 C   0  0  0  0  0  0  0  0  0  0  0  0
    8.7242    0.5412    0.0000 C   0  0  0  0  0  0  0  0  0  0  0  0
    7.4251    1.2910    0.0000 C   0  0  0  0  0  0  0  0  0  0  0  0
   -1.6700    0.5400    0.0000 C   0  0  0  0  0  0  0  0  0  0  0  0
   -0.3700    1.2900    0.0000 C   0  0  0  0  0  0  0  0  0  0  0  0
    6.1262    0.5408    0.0000 C   0  0  0  0  0  0  0  0  0  0  0  0
   -1.6700   -0.9600    0.0000 C   0  0  0  0  0  0  0  0  0  0  0  0
    0.9300   -0.9600    0.0000 C   0  0  0  0  0  0  0  0  0  0  0  0
    2.2289    1.2902    0.0000 C   0  0  0  0  0  0  0  0  0  0  0  0
    0.9300    0.5400    0.0000 C   0  0  0  0  0  0  0  0  0  0  0  0
    4.8270    1.2906    0.0000 C   0  0  0  0  0  0  0  0  0  0  0  0
   -0.3700   -1.7100    0.0000 N   0  0  0  0  0  0  0  0  0  0  0  0
    4.8268    2.7906    0.0000 O   0  0  0  0  0  0  0  0  0  0  0  0
    3.5281    0.5404    0.0000 O   0  0  0  0  0  0  0  0  0  0  0  0
  2  1  1  0
  3  2  1  0
  4  3  1  0
  5  4  1  0
  6  5  1  0
  7  6  1  0
  8  7  1  0
  9  8  1  0
 10  9  1  0
 11 10  1  0
 12 11  1  0
 13 12  1  0
 14 13  1  0
 16 15  2  0
 17 14  1  0
 18 15  1  0
 21 16  1  0
 21 19  2  0
 21 20  1  0
 22 17  1  0
 23 18  2  0
 23 19  1  0
 24 22  2  0
 25 20  1  0
 25 22  1  0
M  END
>  <NAME>  (2749) 
3-PYRIDYLMETHYL HEXADECANOATE

>  <SYNONYMS>  (2749) 
PALMITIC ACID PICOLINYL ESTER

>  <SPECTRUM TYPE>  (2749) 
MS1

>  <INSTRUMENT TYPE>  (2749) 
EI-B

>  <INSTRUMENT>  (2749) 
JEOL JMS-HX-100

>  <ION MODE>  (2749) 
P

>  <INCHIKEY>  (2749) 
BCEVKZRDQYYDNQ-UHFFFAOYSA-N

>  <FORMULA>  (2749) 
C22H37NO2

>  <EXACT MASS>  (2749) 
347.282429424

>  <MW>  (2749) 
347

>  <ID>  (2749) 
JP008099

>  <CONTRIBUTOR>  (2749) 
University of Tokyo Team, {Faculty of Engineering, University of Tokyo

>  <COMMENT>  (2749) 
SMILES=CCCCCCCCCCCCCCCC(=O)OCc(c1)cncc1
InChI=InChI=1S/C22H37NO2/c1-2-3-4-5-6-7-8-9-10-11-12-13-14-17-22(24)25-20-21-16-15-18-23-19-21/h15-16,18-19H,2-14,17,20H2,1H3
computed SMILES=O=C(OCC=1C=NC=CC1)CCCCCCCCCCCCCCC
accession=JP008099
date=2016.01.19 (Created 2008.10.21, modified 2011.05.06)
author=YAMAMOTO M, DEP. CHEMISTRY, FAC. SCIENCE, NARA WOMEN'S UNIV.
license=CC BY-NC-SA
exact mass=347.28243
ionization energy=70 eV
ion type=[M]+*
computed spectral entropy=3.796837446712178
computed normalized entropy=0.7462929832735544
SPLASH=splash10-06r6-8952000000-6bbe364020f7d155f8f9
submitter=submitter = University of Tokyo Team (Faculty of Engineering, University of Tokyo)
MoNA Rating=3.75

>  <NUM PEAKS>  (2749) 
162

>  <MASS SPECTRAL PEAKS>  (2749) 
38 0.66
39 8.04
40 0.54
41 21.24
42 4.96
43 33.94
45 0.17
50 0.24
51 1.25
52 0.58
53 1.96
54 1.5
55 16.93
56 4.86
57 18.57
58 1.17
59 0.32
60 0.3
63 1.38
64 2.5
65 14.58
66 1.57
67 3.04
68 1.41
69 8.79
70 2.31
71 6.9
72 0.62
73 1.2
77 0.12
78 1.73
79 1.83
80 3.28
81 2.65
82 0.76
83 4.93
84 1.29
85 3.19
86 0.48
87 0.65
91 4.73
92 99.99
93 70.11
94 9.29
95 2.17
97 3.21
98 2.45
99 0.75
101 0.71
103 0.21
105 0.2
106 1.62
107 2.68
108 98.25
109 47.6
110 11.68
111 2.07
112 0.87
113 0.4
115 0.51
117 0.26
118 0.54
119 0.11
120 1.75
121 1.84
122 0.59
123 0.55
125 0.5
129 0.33
131 0.43
132 0.61
133 0.53
134 0.61
135 0.82
136 0.75
137 0.68
139 1.04
143 0.62
146 0.25
147 0.22
148 1.53
149 0.04
150 0.62
151 76.41
152 7.95
153 1.18
161 0.45
162 0.75
164 96.11
165 14.8
166 1.55
167 0.54
171 0.47
176 0.48
178 14.93
179 4.32
180 0.61
190 0.7
192 6.05
193 4.04
194 0.48
204 1.38
205 0.26
206 21.69
207 3.81
208 0.85
218 0.68
219 0.89
220 21.87
221 5.73
222 0.84
223 0.51
232 0.46
234 23.62
235 5.23
236 1.07
237 1.1
239 1.31
246 0.8
248 24.08
249 5.51
250 0.91
255 0.51
256 0.37
260 0.14
261 0.5
262 30.67
263 7.21
264 1.19
265 0.08
266 0.29
267 0.25
268 0.21
274 0.68
276 29.11
277 6.75
278 1
281 0.67
282 0.8
283 0.29
285 0.55
288 0.98
289 0.49
290 29.24
291 6.23
292 0.76
295 0.29
304 25.9
305 6.69
306 0.97
313 0.04
316 0.53
318 23.68
319 5.24
320 0.91
332 9.45
333 2.14
342 0.04
346 10.55
347 30.78
348 7.94
349 1.28

>  <PREDICTED SPECTRUM>  (2749) 
39 60
42 13
43 15
50 53
51 124
52 127
53 179
54 215
55 483
56 264
57 445
58 134
59 45
60 72
61 60
62 58
63 175
64 167
65 413
66 141
67 248
68 150
69 398
70 160
71 242
72 66
73 116
74 27
75 30
76 13
77 30
78 125
79 156
80 244
81 215
82 134
83 218
84 96
85 142
86 37
87 40
89 1
91 164
92 978
93 687
94 231
95 152
96 91
97 188
98 83
99 80
100 3
101 12
105 46
106 181
107 125
108 999
109 604
110 310
111 126
112 13
113 31
115 27
118 25
119 27
120 115
121 74
122 6
123 71
124 16
125 51
127 29
132 2
133 102
134 59
135 55
136 0
137 10
138 21
139 46
146 7
147 15
148 144
149 51
150 79
151 681
152 200
153 65
160 5
162 84
163 13
164 793
165 304
166 61
167 15
176 47
177 38
178 340
179 186
180 44
181 30
190 55
191 44
192 201
193 183
194 49
195 15
204 75
205 6
206 397
207 207
208 18
218 62
220 388
221 193
222 18
232 16
234 392
235 177
236 51
239 86
246 58
248 389
249 177
250 19
260 34
262 420
263 200
264 57
274 43
276 439
277 219
278 63
288 72
289 13
290 427
291 191
292 56
302 18
304 433
305 197
306 38
318 405
319 222
320 54
328 37
332 234
333 107
346 274
347 426
348 197
349 31

$$$$

     RDKit          2D

 27 27  0  0  0  0  0  0  0  0999 V2000
   29.1819   13.1076    0.0000 C   0  0  0  0  0  0  0  0  0  0  0  0
   27.8829   12.3574    0.0000 C   0  0  0  0  0  0  0  0  0  0  0  0
   27.8832   10.8574    0.0000 C   0  0  0  0  0  0  0  0  0  0  0  0
   26.5843   10.1072    0.0000 C   0  0  0  0  0  0  0  0  0  0  0  0
   26.5845    8.6072    0.0000 C   0  0  0  0  0  0  0  0  0  0  0  0
   25.2856    7.8570    0.0000 C   0  0  0  0  0  0  0  0  0  0  0  0
   25.2858    6.3570    0.0000 C   0  0  0  0  0  0  0  0  0  0  0  0
   23.9869    5.6068    0.0000 C   0  0  0  0  0  0  0  0  0  0  0  0
   23.9871    4.1068    0.0000 C   0  0  0  0  0  0  0  0  0  0  0  0
   22.6882    3.3566    0.0000 C   0  0  0  0  0  0  0  0  0  0  0  0
   21.3891    4.1064    0.0000 C   0  0  0  0  0  0  0  0  0  0  0  0
   20.0902    3.3561    0.0000 C   0  0  0  0  0  0  0  0  0  0  0  0
   18.7910    4.1059    0.0000 C   0  0  0  0  0  0  0  0  0  0  0  0
   17.4921    3.3557    0.0000 C   0  0  0  0  0  0  0  0  0  0  0  0
   16.1929    4.1055    0.0000 C   0  0  0  0  0  0  0  0  0  0  0  0
   14.8940    3.3553    0.0000 C   0  0  0  0  0  0  0  0  0  0  0  0
    5.7987    4.1034    0.0000 C   0  0  0  0  0  0  0  0  0  0  0  0
    7.0989    3.3539    0.0000 C   0  0  0  0  0  0  0  0  0  0  0  0
   13.5948    4.1051    0.0000 C   0  0  0  0  0  0  0  0  0  0  0  0
    5.7982    5.6034    0.0000 C   0  0  0  0  0  0  0  0  0  0  0  0
    8.3982    5.6043    0.0000 C   0  0  0  0  0  0  0  0  0  0  0  0
    9.6978    3.3545    0.0000 C   0  0  0  0  0  0  0  0  0  0  0  0
    8.3987    4.1043    0.0000 C   0  0  0  0  0  0  0  0  0  0  0  0
   12.2959    3.3549    0.0000 C   0  0  0  0  0  0  0  0  0  0  0  0
    7.0980    6.3539    0.0000 N   0  0  0  0  0  0  0  0  0  0  0  0
   12.2962    1.8549    0.0000 O   0  0  0  0  0  0  0  0  0  0  0  0
   10.9968    4.1047    0.0000 O   0  0  0  0  0  0  0  0  0  0  0  0
  2  1  1  0
  3  2  1  0
  4  3  1  0
  5  4  1  0
  6  5  1  0
  7  6  1  0
  8  7  1  0
  9  8  1  0
  9 10  2  0
 11 10  1  0
 12 11  1  0
 13 12  1  0
 14 13  1  0
 15 14  1  0
 16 15  1  0
 18 17  2  0
 19 16  1  0
 20 17  1  0
 23 18  1  0
 23 21  2  0
 23 22  1  0
 24 19  1  0
 25 20  2  0
 25 21  1  0
 26 24  2  0
 27 22  1  0
 27 24  1  0
M  END
>  <NAME>  (2750) 
3-PYRIDYLMETHYL OCTADEC-9-ENOATE

>  <SYNONYMS>  (2750) 
OLEIC ACID PICOLINYL ESTER

>  <SPECTRUM TYPE>  (2750) 
MS1

>  <INSTRUMENT TYPE>  (2750) 
EI-B

>  <INSTRUMENT>  (2750) 
JEOL JMS-HX-100

>  <ION MODE>  (2750) 
P

>  <INCHIKEY>  (2750) 
FBPJZADLPOSZEO-KTKRTIGZSA-N

>  <FORMULA>  (2750) 
C24H39NO2

>  <EXACT MASS>  (2750) 
373.29807948800004

>  <MW>  (2750) 
373

>  <ID>  (2750) 
JP008098

>  <CONTRIBUTOR>  (2750) 
University of Tokyo Team, {Faculty of Engineering, University of Tokyo

>  <COMMENT>  (2750) 
SMILES=CCCCCCCCC=CCCCCCCCC(=O)OCc(c1)cncc1
InChI=InChI=1S/C24H39NO2/c1-2-3-4-5-6-7-8-9-10-11-12-13-14-15-16-19-24(26)27-22-23-18-17-20-25-21-23/h9-10,17-18,20-21H,2-8,11-16,19,22H2,1H3/b10-9-
computed SMILES=O=C(OCC=1C=NC=CC1)CCCCCCCC=CCCCCCCCC
accession=JP008098
date=2016.01.19 (Created 2008.10.21, modified 2011.05.06)
author=YAMAMOTO M, DEP. CHEMISTRY, FAC. SCIENCE, NARA WOMEN'S UNIV.
license=CC BY-NC-SA
exact mass=373.29808
ionization energy=70 eV
ion type=[M]+*
computed spectral entropy=4.006271489774481
computed normalized entropy=0.7690339070369411
SPLASH=splash10-06xx-9654000000-460463f4ad446db7c347
submitter=submitter = University of Tokyo Team (Faculty of Engineering, University of Tokyo)
MoNA Rating=3.75

>  <NUM PEAKS>  (2750) 
183

>  <MASS SPECTRAL PEAKS>  (2750) 
35 0.72
38 0.92
39 7.33
40 0.44
41 23.77
42 3.65
43 17.98
44 0.93
45 0.15
50 0.36
51 1.29
52 0.78
53 3.48
54 8.39
55 33.69
56 5.78
57 9.29
58 0.87
59 0.55
60 0.43
63 0.82
64 1.91
65 12.05
66 1.44
67 12.07
68 4.18
69 18.98
70 3.18
71 2.88
73 0.44
75 0.28
77 0.95
78 2.16
79 3.61
80 2.98
81 9.02
82 2.91
83 10.39
84 1.18
85 1.88
87 0.34
91 3.93
92 99.99
93 48.2
94 5.51
95 5.79
96 0.42
97 6.14
98 2.05
99 0.25
101 0.97
104 0.37
105 0.9
106 1.97
107 1.6
108 69.35
109 29.6
110 8.74
111 2.55
112 1.13
113 0.56
115 0.48
117 0.22
118 1.42
119 0.64
120 1.41
121 1.4
122 0.93
123 0.78
124 0.88
125 0.72
126 0.78
127 0.73
129 0.14
130 0.87
131 0.46
132 1.01
133 0.46
134 1.6
135 1.35
136 0.86
137 1.17
138 0.74
139 0.93
144 1.05
145 0.93
146 0.77
147 1.1
148 2.01
150 0.97
151 28.54
152 4.28
153 0.93
159 0.82
161 1.14
163 0.07
164 76.51
165 11.25
166 1.49
167 0.85
175 0.85
177 0.32
178 13.47
179 3.15
180 0.81
181 0.8
183 0.78
190 1.33
192 4.59
193 0.55
194 0.82
202 0.74
204 2.66
205 0.85
206 12.09
207 1.35
208 0.15
209 0.61
210 0.03
218 1.38
219 0.71
220 16.45
221 5.49
222 1.48
223 0.83
230 0.73
232 1.84
233 1.41
234 5.92
235 1.41
244 0.75
245 1.25
246 3.87
247 4.11
248 3.69
249 0.19
256 1.12
260 10.23
261 6.98
262 2.63
263 1.37
265 0.36
269 0.45
270 0.76
272 0.95
274 42.67
275 12.73
276 3.41
283 0.25
284 0.16
288 47.67
289 14.81
290 2.6
298 0.8
300 0.77
302 12.36
303 4.11
304 1.13
313 0.35
314 0.79
316 12.91
317 4.33
318 1.02
328 0.71
330 11.39
331 3.13
332 1.57
342 0.33
343 0.76
344 9.78
345 3.47
346 0.89
354 0.87
355 0.48
356 0.32
358 2.66
359 1.11
367 0.58
371 0.2
372 10.56
373 88.98
374 23.02
375 4.16

>  <PREDICTED SPECTRUM>  (2750) 
39 69
40 6
41 120
42 72
43 93
44 9
50 44
51 144
52 150
53 231
54 319
55 679
56 282
57 347
58 89
59 44
60 56
61 25
62 62
63 160
64 164
65 456
66 162
67 396
68 219
69 437
70 178
71 222
72 66
73 99
74 50
75 46
76 22
77 133
78 167
79 264
80 217
81 343
82 172
83 335
84 158
85 134
86 36
87 55
88 27
89 29
90 45
91 154
92 999
93 732
94 206
95 240
96 112
97 222
98 88
99 72
100 37
101 45
103 14
104 7
105 87
106 151
107 97
108 821
109 551
110 278
111 165
112 66
113 57
114 23
115 55
116 8
117 15
118 95
119 104
120 133
121 136
122 49
123 95
124 64
125 99
126 33
127 45
129 13
130 67
131 46
132 106
133 172
134 113
135 73
136 45
137 90
138 47
139 85
141 29
144 32
145 53
146 109
147 122
148 126
149 87
150 93
151 460
152 191
153 54
154 8
155 9
156 2
158 37
159 28
160 45
161 57
162 50
164 686
165 258
166 79
167 37
168 6
174 45
175 48
176 27
177 56
178 298
179 163
180 27
181 35
184 4
186 1
188 43
189 24
190 93
191 46
192 216
193 160
194 57
202 35
203 5
204 136
205 73
206 300
207 154
208 46
216 38
217 17
218 113
219 81
220 299
221 126
222 21
228 24
230 40
231 16
232 136
233 105
234 251
235 94
239 2
242 25
244 60
245 36
246 267
247 144
248 218
249 80
256 87
258 33
260 300
261 182
262 162
263 84
265 37
270 35
272 15
274 341
275 226
276 118
277 30
281 18
282 18
284 67
288 386
289 194
290 93
298 61
302 438
303 221
304 70
312 9
314 14
316 399
317 213
318 90
326 3
330 297
331 146
332 58
344 269
345 146
346 48
354 46
356 2
358 138
359 60
372 316
373 624
374 328
375 92

$$$$

     RDKit          2D

 27 27  0  0  0  0  0  0  0  0999 V2000
   26.9108    0.5442    0.0000 C   0  0  0  0  0  0  0  0  0  0  0  0
   25.6116    1.2940    0.0000 C   0  0  0  0  0  0  0  0  0  0  0  0
   24.3127    0.5437    0.0000 C   0  0  0  0  0  0  0  0  0  0  0  0
   23.0135    1.2935    0.0000 C   0  0  0  0  0  0  0  0  0  0  0  0
   21.7146    0.5433    0.0000 C   0  0  0  0  0  0  0  0  0  0  0  0
   20.4155    1.2931    0.0000 C   0  0  0  0  0  0  0  0  0  0  0  0
   19.1165    0.5429    0.0000 C   0  0  0  0  0  0  0  0  0  0  0  0
   17.8174    1.2927    0.0000 C   0  0  0  0  0  0  0  0  0  0  0  0
   16.5185    0.5425    0.0000 C   0  0  0  0  0  0  0  0  0  0  0  0
   15.2193    1.2923    0.0000 C   0  0  0  0  0  0  0  0  0  0  0  0
   13.9204    0.5421    0.0000 C   0  0  0  0  0  0  0  0  0  0  0  0
   12.6212    1.2919    0.0000 C   0  0  0  0  0  0  0  0  0  0  0  0
   11.3223    0.5417    0.0000 C   0  0  0  0  0  0  0  0  0  0  0  0
   10.0231    1.2915    0.0000 C   0  0  0  0  0  0  0  0  0  0  0  0
    8.7242    0.5412    0.0000 C   0  0  0  0  0  0  0  0  0  0  0  0
    7.4251    1.2910    0.0000 C   0  0  0  0  0  0  0  0  0  0  0  0
   -1.6700    0.5400    0.0000 C   0  0  0  0  0  0  0  0  0  0  0  0
   -0.3700    1.2900    0.0000 C   0  0  0  0  0  0  0  0  0  0  0  0
    6.1262    0.5408    0.0000 C   0  0  0  0  0  0  0  0  0  0  0  0
   -1.6700   -0.9600    0.0000 C   0  0  0  0  0  0  0  0  0  0  0  0
    0.9300   -0.9600    0.0000 C   0  0  0  0  0  0  0  0  0  0  0  0
    2.2289    1.2902    0.0000 C   0  0  0  0  0  0  0  0  0  0  0  0
    0.9300    0.5400    0.0000 C   0  0  0  0  0  0  0  0  0  0  0  0
    4.8270    1.2906    0.0000 C   0  0  0  0  0  0  0  0  0  0  0  0
   -0.3700   -1.7100    0.0000 N   0  0  0  0  0  0  0  0  0  0  0  0
    4.8268    2.7906    0.0000 O   0  0  0  0  0  0  0  0  0  0  0  0
    3.5281    0.5404    0.0000 O   0  0  0  0  0  0  0  0  0  0  0  0
  2  1  1  0
  3  2  1  0
  4  3  1  0
  5  4  1  0
  6  5  1  0
  7  6  1  0
  8  7  1  0
  9  8  1  0
 10  9  1  0
 11 10  1  0
 12 11  1  0
 13 12  1  0
 14 13  1  0
 15 14  1  0
 16 15  1  0
 18 17  2  0
 19 16  1  0
 20 17  1  0
 23 18  1  0
 23 21  2  0
 23 22  1  0
 24 19  1  0
 25 20  2  0
 25 21  1  0
 26 24  2  0
 27 22  1  0
 27 24  1  0
M  END
>  <NAME>  (2751) 
3-PYRIDYLMETHYL OCTADECANOATE

>  <SYNONYMS>  (2751) 
STEARIC ACID PICOLINYL ESTER

>  <SPECTRUM TYPE>  (2751) 
MS1

>  <INSTRUMENT TYPE>  (2751) 
EI-B

>  <INSTRUMENT>  (2751) 
JEOL JMS-HX-100

>  <ION MODE>  (2751) 
P

>  <INCHIKEY>  (2751) 
MSCVPMAJZWQQRO-UHFFFAOYSA-N

>  <FORMULA>  (2751) 
C24H41NO2

>  <EXACT MASS>  (2751) 
375.313729552

>  <MW>  (2751) 
375

>  <ID>  (2751) 
JP008097

>  <CONTRIBUTOR>  (2751) 
University of Tokyo Team, {Faculty of Engineering, University of Tokyo

>  <COMMENT>  (2751) 
SMILES=CCCCCCCCCCCCCCCCCC(=O)OCc(c1)cncc1
InChI=InChI=1S/C24H41NO2/c1-2-3-4-5-6-7-8-9-10-11-12-13-14-15-16-19-24(26)27-22-23-18-17-20-25-21-23/h17-18,20-21H,2-16,19,22H2,1H3
computed SMILES=O=C(OCC=1C=NC=CC1)CCCCCCCCCCCCCCCCC
accession=JP008097
date=2016.01.19 (Created 2008.10.21, modified 2011.05.06)
author=YAMAMOTO M, DEP. CHEMISTRY, FAC. SCIENCE, NARA WOMEN'S UNIV.
license=CC BY-NC-SA
exact mass=375.31373
ionization energy=70 eV
ion type=[M]+*
computed spectral entropy=3.913246503658081
computed normalized entropy=0.7292702190064011
SPLASH=splash10-06r6-8943000000-87b8078940b4e77ccbaf
submitter=submitter = University of Tokyo Team (Faculty of Engineering, University of Tokyo)
MoNA Rating=3.75

>  <NUM PEAKS>  (2751) 
214

>  <MASS SPECTRAL PEAKS>  (2751) 
35 0.11
38 0.44
39 7.22
40 0.2
41 20.51
42 4.83
43 38.28
44 0.34
45 0.24
50 0.17
51 1.09
52 0.77
53 1.9
54 1.75
55 19.33
56 5.55
57 23.26
58 1.22
59 0.27
60 0.57
61 0.19
62 0.23
63 1.32
64 2.09
65 14.12
66 1.57
67 3.39
68 1.69
69 9.82
70 2.67
71 8.68
72 0.57
73 0.47
74 0.08
76 0.25
77 0.27
78 1.52
79 1.77
80 3.22
81 3.08
82 1.33
83 5.56
84 1.8
85 4.25
86 0.35
87 0.35
89 0.14
90 0.22
91 4.43
92 94.04
93 72.86
94 11.05
95 2.91
96 0.22
97 3.97
98 4.4
99 0.88
101 0.55
104 0.12
105 0.25
106 1.59
107 3.25
108 99.99
109 48.87
110 11.85
111 2.34
112 1.18
113 0.43
115 0.29
116 0.21
117 0.35
118 0.43
120 1.95
121 1.46
122 0.22
123 0.45
124 0.3
125 0.95
126 0.22
127 0.33
129 0.29
130 0.26
131 0.06
132 0.3
133 0.79
134 0.83
135 0.82
136 0.62
137 0.56
138 0.23
139 0.88
141 0.24
143 0.43
144 0.22
145 0.14
146 0.33
147 0.2
148 1.56
149 0.32
150 0.32
151 72.08
152 6.97
153 1
155 0.23
157 0.33
161 0.1
162 0.93
163 0.26
164 86.19
165 13.59
166 1.57
167 0.44
171 0.37
176 0.47
178 12.8
179 4.62
180 0.54
181 0.39
185 0.36
189 0.13
190 0.7
191 0.35
192 5.58
193 4.31
194 0.61
195 0.02
199 0.32
204 1.43
205 0.32
206 19.56
207 1.7
208 0.43
211 0.11
213 0.28
218 0.57
219 0.38
220 19.39
221 6.04
222 0.79
223 0.12
232 0.59
233 0.24
234 20.29
235 5.04
236 0.66
246 0.61
247 0.71
248 22.57
249 5.03
250 0.61
251 0.05
258 0.26
260 0.37
261 0.3
262 27.14
263 6.44
264 1.02
265 0.11
266 0.07
267 0.07
268 0.03
269 0.04
274 0.8
275 0.33
276 25.68
277 6.37
278 0.99
281 0.43
282 0.06
285 0.17
288 0.59
289 0.28
290 25.03
291 6.3
292 0.82
295 0.07
302 0.66
303 0.29
304 22.84
305 5.73
306 0.86
314 0.25
316 1.04
317 0.47
318 21.72
319 5.66
320 0.79
325 0.08
330 0.43
332 20.42
333 5.51
334 0.82
339 0.24
343 0.17
344 0.21
346 18.08
347 4.93
348 0.87
355 0.06
356 0.04
357 0.15
360 6.83
361 1.81
362 0.28
366 0.18
367 0.07
368 0.11
371 0.25
372 0.31
373 0.66
374 12.87
375 31.81
376 8.14
377 1.49

>  <PREDICTED SPECTRUM>  (2751) 
39 30
42 10
43 29
50 53
51 126
52 131
53 179
54 218
55 502
56 276
57 477
58 148
59 58
60 80
61 69
62 48
63 173
64 161
65 397
66 148
67 265
68 169
69 404
70 185
71 264
72 68
73 113
74 36
75 47
76 17
77 57
78 109
79 162
80 242
81 220
82 144
83 229
84 118
85 165
86 49
87 36
89 30
90 5
91 192
92 948
93 671
94 230
95 166
96 118
97 211
98 75
99 98
101 29
105 35
106 163
107 106
108 999
109 610
110 313
111 127
112 1
113 39
115 9
118 4
120 84
121 51
122 35
123 15
125 29
127 25
128 10
130 10
131 13
132 7
133 98
134 110
135 100
136 6
137 29
139 34
143 21
146 21
147 18
148 138
149 59
150 14
151 662
152 180
153 59
154 27
155 19
160 2
161 9
162 53
163 7
164 758
165 283
166 69
167 39
176 51
177 69
178 315
179 175
180 40
181 54
190 81
191 43
192 189
193 185
194 35
195 2
204 81
205 31
206 385
207 212
208 38
218 66
219 47
220 380
221 170
222 5
223 5
232 60
233 15
234 388
235 169
236 36
246 77
248 379
249 171
250 20
260 14
262 416
263 195
264 51
265 20
267 49
274 58
276 410
277 187
278 65
288 35
289 14
290 415
291 194
292 74
302 38
304 395
305 180
306 38
314 15
316 72
318 384
319 184
320 49
330 19
332 393
333 207
334 44
346 369
347 219
348 71
356 25
360 194
361 112
374 299
375 423
376 111
377 43

$$$$

     RDKit          2D

 24 24  0  0  0  0  0  0  0  0999 V2000
  -18.2125    9.7950    0.0000 C   0  0  0  0  0  0  0  0  0  0  0  0
  -16.9135   10.5450    0.0000 C   0  0  0  0  0  0  0  0  0  0  0  0
  -15.6144    9.7950    0.0000 C   0  0  0  0  0  0  0  0  0  0  0  0
  -14.3154   10.5450    0.0000 C   0  0  0  0  0  0  0  0  0  0  0  0
  -13.0164    9.7950    0.0000 C   0  0  0  0  0  0  0  0  0  0  0  0
  -11.7173   10.5450    0.0000 C   0  0  0  0  0  0  0  0  0  0  0  0
  -10.4183    9.7950    0.0000 C   0  0  0  0  0  0  0  0  0  0  0  0
   -9.1192   10.5450    0.0000 C   0  0  0  0  0  0  0  0  0  0  0  0
   -7.8202    9.7950    0.0000 C   0  0  0  0  0  0  0  0  0  0  0  0
   -6.5212   10.5450    0.0000 C   0  0  0  0  0  0  0  0  0  0  0  0
   -5.2221    9.7950    0.0000 C   0  0  0  0  0  0  0  0  0  0  0  0
   -3.9231   10.5450    0.0000 C   0  0  0  0  0  0  0  0  0  0  0  0
   -2.6241    9.7950    0.0000 C   0  0  0  0  0  0  0  0  0  0  0  0
   -1.3250   10.5450    0.0000 C   0  0  0  0  0  0  0  0  0  0  0  0
   -0.0260    9.7950    0.0000 C   0  0  0  0  0  0  0  0  0  0  0  0
    1.2731   10.5450    0.0000 C   0  0  0  0  0  0  0  0  0  0  0  0
    6.7957    7.9905    0.0000 C   0  0  0  0  0  0  0  0  0  0  0  0
    7.5457    9.2895    0.0000 C   0  0  0  0  0  0  0  0  0  0  0  0
    2.5721    9.7950    0.0000 C   0  0  0  0  0  0  0  0  0  0  0  0
    5.3273    8.3071    0.0000 C   0  0  0  0  0  0  0  0  0  0  0  0
    6.5373   10.4029    0.0000 C   0  0  0  0  0  0  0  0  0  0  0  0
    3.8711   10.5450    0.0000 C   0  0  0  0  0  0  0  0  0  0  0  0
    5.1702    9.7950    0.0000 N   0  0  0  0  0  0  0  0  0  0  0  0
    3.8711   12.0450    0.0000 O   0  0  0  0  0  0  0  0  0  0  0  0
  2  1  1  0
  3  2  1  0
  3  4  2  0
  5  4  1  0
  6  5  1  0
  6  7  2  0
  8  7  1  0
  9  8  1  0
  9 10  2  0
 11 10  1  0
 12 11  1  0
 13 12  1  0
 14 13  1  0
 15 14  1  0
 16 15  1  0
 18 17  1  0
 19 16  1  0
 20 17  1  0
 21 18  1  0
 22 19  1  0
 23 20  1  0
 23 21  1  0
 23 22  1  0
 24 22  2  0
M  END
>  <NAME>  (2752) 
N-OCTADECA-9,12,15-TRIENOYLPYRROLIDINE

>  <SYNONYMS>  (2752) 


>  <SPECTRUM TYPE>  (2752) 
MS1

>  <INSTRUMENT TYPE>  (2752) 
EI-B

>  <INSTRUMENT>  (2752) 
JEOL JMS-HX-100

>  <ION MODE>  (2752) 
P

>  <INCHIKEY>  (2752) 
HCNBGIBBJGULOU-IUQGRGSQSA-N

>  <FORMULA>  (2752) 
C22H37NO

>  <EXACT MASS>  (2752) 
331.287514804

>  <MW>  (2752) 
331

>  <ID>  (2752) 
JP008095

>  <CONTRIBUTOR>  (2752) 
University of Tokyo Team, {Faculty of Engineering, University of Tokyo

>  <COMMENT>  (2752) 
SMILES=CCC=CCC=CCC=CCCCCCCCC(=O)N(C1)CCC1
InChI=InChI=1S/C22H37NO/c1-2-3-4-5-6-7-8-9-10-11-12-13-14-15-16-19-22(24)23-20-17-18-21-23/h3-4,6-7,9-10H,2,5,8,11-21H2,1H3/b4-3+,7-6+,10-9+
computed SMILES=O=C(N1CCCC1)CCCCCCCC=CCC=CCC=CCC
accession=JP008095
date=2016.01.19 (Created 2008.10.21, modified 2011.05.06)
license=CC BY-NC-SA
author=YAMAMOTO M, DEP. CHEMISTRY, FAC. SCIENCE, NARA WOMEN'S UNIV.
exact mass=331.28751
ionization energy=70 eV
ion type=[M]+*
computed spectral entropy=4.053264776797335
computed normalized entropy=0.7671982730383082
SPLASH=splash10-03mi-9721000000-6a8f5c13ba1e5f8b8e33
submitter=submitter = University of Tokyo Team (Faculty of Engineering, University of Tokyo)
MoNA Rating=3.75

>  <NUM PEAKS>  (2752) 
197

>  <MASS SPECTRAL PEAKS>  (2752) 
38 0.17
39 3.53
40 0.43
41 21.49
42 2.78
43 13.67
44 0.54
45 0.14
50 0.19
51 0.6
52 0.53
53 4.07
54 3.08
55 33.67
56 7.05
57 1.46
58 0.32
59 0.25
60 0.14
63 0.21
65 2.43
66 2.31
67 19.28
68 3.86
69 7.72
70 49.52
71 11.58
72 45.44
73 2.2
77 7.16
78 3.05
79 21.39
80 6.55
81 9
82 1.56
83 1.47
84 1.23
85 10.92
86 0.8
87 0.16
91 8.83
92 2
93 10.16
94 3.31
95 10.08
96 1.72
97 1.05
98 26.79
99 3.66
100 0.89
103 0.52
104 0.42
105 3.67
106 1.39
107 4.68
108 4.42
109 2.56
110 0.96
111 0.7
112 3.48
113 99.99
114 9.59
115 0.93
116 0.27
117 0.85
118 0.36
119 1.84
120 0.74
121 2.81
122 1.22
123 0.83
124 0.81
125 0.41
126 66.66
127 14.24
128 1.3
129 0.37
131 0.66
132 0.18
133 1.29
134 0.58
135 1.98
136 0.97
137 0.47
138 0.85
139 0.9
140 10.9
141 2.67
142 0.25
143 0.2
145 0.41
146 0.16
147 1.17
148 0.45
149 1.72
150 0.99
151 0.44
152 2.26
153 1
154 6.27
155 1.3
156 0.15
159 0.26
161 0.7
162 0.43
163 1.03
164 0.56
165 0.36
166 2.41
167 0.81
168 9.93
169 1.69
170 0.15
171 0.21
173 0.42
175 0.6
176 0.45
177 0.53
178 0.48
179 0.4
180 3.53
181 0.89
182 11.57
183 1.75
184 0.19
185 0.16
187 0.15
189 0.43
190 0.24
191 0.48
192 0.92
193 0.45
194 3.13
195 0.7
196 3.26
197 0.51
203 0.28
204 0.54
205 0.27
206 1.66
207 0.33
208 3.62
209 0.84
210 2.36
211 0.53
217 0.17
218 0.49
219 0.3
220 2.58
221 0.8
222 8.19
223 2.13
224 5.72
225 1.09
231 0.17
232 1.19
233 0.35
234 3.71
235 0.84
236 5.14
237 1.89
238 1.54
239 0.37
246 1.63
247 0.37
248 2.82
249 0.96
250 2.71
251 1.25
252 0.69
260 2.26
261 0.81
262 8.9
263 2.13
264 1.09
265 0.22
274 2.47
275 1.36
276 3.27
277 1.07
278 0.23
288 3.87
289 0.95
290 0.43
291 0.15
302 3.03
303 0.74
316 1.58
317 0.41
327 0.22
328 0.2
329 0.79
330 8.17
331 44.58
332 12.06
333 2
334 0.32

>  <PREDICTED SPECTRUM>  (2752) 
26 10
27 5
39 96
40 64
41 203
42 107
43 133
44 35
45 24
50 16
51 99
52 107
53 262
54 238
55 684
56 307
57 193
58 71
59 52
60 15
63 54
64 30
65 235
66 180
67 482
68 250
69 329
70 723
71 432
72 608
73 166
74 1
75 9
77 302
78 159
79 441
80 245
81 325
82 137
83 183
84 111
85 254
86 63
87 34
89 14
91 320
92 138
93 320
94 120
95 278
96 138
97 85
98 507
99 255
100 36
101 37
103 86
104 59
105 267
106 129
107 185
108 177
109 132
110 134
111 95
112 143
113 999
114 257
115 80
116 10
117 54
119 137
120 51
121 169
122 86
123 74
124 80
125 42
126 813
127 304
128 59
129 34
131 3
133 146
134 89
135 99
136 84
137 50
138 128
139 74
140 220
141 80
147 109
148 62
149 78
150 63
151 77
152 184
153 117
154 224
155 68
156 30
161 48
162 37
163 69
164 116
165 36
166 152
167 73
168 252
169 98
174 8
175 40
176 14
177 64
178 92
179 40
180 188
181 95
182 264
183 95
190 5
191 11
192 37
193 33
194 152
195 41
196 177
202 7
204 81
205 57
206 117
207 53
208 225
209 71
210 182
218 36
219 78
220 136
221 88
222 205
223 111
224 117
232 40
233 21
234 174
235 86
236 216
237 114
238 37
246 60
247 8
248 159
249 85
250 109
251 33
252 65
260 62
261 75
262 135
263 113
264 118
274 48
275 66
276 110
277 51
288 112
289 39
298 29
302 127
303 51
312 11
316 15
330 118
331 361
332 179
333 46

$$$$

     RDKit          2D

 26 26  0  0  0  0  0  0  0  0999 V2000
  -20.1611   10.9200    0.0000 C   0  0  0  0  0  0  0  0  0  0  0  0
  -18.8620   11.6700    0.0000 C   0  0  0  0  0  0  0  0  0  0  0  0
  -17.5630   10.9200    0.0000 C   0  0  0  0  0  0  0  0  0  0  0  0
  -16.2640   11.6700    0.0000 C   0  0  0  0  0  0  0  0  0  0  0  0
  -14.9649   10.9200    0.0000 C   0  0  0  0  0  0  0  0  0  0  0  0
  -13.6659   11.6700    0.0000 C   0  0  0  0  0  0  0  0  0  0  0  0
  -12.3668   10.9200    0.0000 C   0  0  0  0  0  0  0  0  0  0  0  0
  -11.0678   11.6700    0.0000 C   0  0  0  0  0  0  0  0  0  0  0  0
   -9.7688   10.9200    0.0000 C   0  0  0  0  0  0  0  0  0  0  0  0
   -8.4697   11.6700    0.0000 C   0  0  0  0  0  0  0  0  0  0  0  0
   -7.1707   10.9200    0.0000 C   0  0  0  0  0  0  0  0  0  0  0  0
   -5.8717   11.6700    0.0000 C   0  0  0  0  0  0  0  0  0  0  0  0
   -4.5726   10.9200    0.0000 C   0  0  0  0  0  0  0  0  0  0  0  0
   -3.2736   11.6700    0.0000 C   0  0  0  0  0  0  0  0  0  0  0  0
   -1.9745   10.9200    0.0000 C   0  0  0  0  0  0  0  0  0  0  0  0
   -0.6755   11.6700    0.0000 C   0  0  0  0  0  0  0  0  0  0  0  0
    0.6235   10.9200    0.0000 C   0  0  0  0  0  0  0  0  0  0  0  0
    1.9226   11.6700    0.0000 C   0  0  0  0  0  0  0  0  0  0  0  0
    7.4452    9.1155    0.0000 C   0  0  0  0  0  0  0  0  0  0  0  0
    8.1952   10.4145    0.0000 C   0  0  0  0  0  0  0  0  0  0  0  0
    3.2216   10.9200    0.0000 C   0  0  0  0  0  0  0  0  0  0  0  0
    5.9768    9.4321    0.0000 C   0  0  0  0  0  0  0  0  0  0  0  0
    7.1868   11.5279    0.0000 C   0  0  0  0  0  0  0  0  0  0  0  0
    4.5207   11.6700    0.0000 C   0  0  0  0  0  0  0  0  0  0  0  0
    5.8197   10.9200    0.0000 N   0  0  0  0  0  0  0  0  0  0  0  0
    4.5207   13.1700    0.0000 O   0  0  0  0  0  0  0  0  0  0  0  0
  2  1  1  0
  3  2  1  0
  4  3  1  0
  5  4  1  0
  6  5  1  0
  6  7  2  0
  8  7  1  0
  9  8  1  0
  9 10  2  0
 11 10  1  0
 12 11  1  0
 12 13  2  0
 14 13  1  0
 15 14  1  0
 15 16  2  0
 17 16  1  0
 18 17  1  0
 20 19  1  0
 21 18  1  0
 22 19  1  0
 23 20  1  0
 24 21  1  0
 25 22  1  0
 25 23  1  0
 25 24  1  0
 26 24  2  0
M  END
>  <NAME>  (2753) 
N-EICOSA-5,8,11,14-TETRAENOYLPYRROLIDINE

>  <SYNONYMS>  (2753) 


>  <SPECTRUM TYPE>  (2753) 
MS1

>  <INSTRUMENT TYPE>  (2753) 
EI-B

>  <INSTRUMENT>  (2753) 
JEOL JMS-HX-100

>  <ION MODE>  (2753) 
P

>  <INCHIKEY>  (2753) 
JCCULSFRZNYFOY-CGRWFSSPSA-N

>  <FORMULA>  (2753) 
C24H39NO

>  <EXACT MASS>  (2753) 
357.303164868

>  <MW>  (2753) 
357

>  <ID>  (2753) 
JP008094

>  <CONTRIBUTOR>  (2753) 
University of Tokyo Team, {Faculty of Engineering, University of Tokyo

>  <COMMENT>  (2753) 
SMILES=CCCCCC=CCC=CCC=CCC=CCCCC(=O)N(C1)CCC1
InChI=InChI=1S/C24H39NO/c1-2-3-4-5-6-7-8-9-10-11-12-13-14-15-16-17-18-21-24(26)25-22-19-20-23-25/h6-7,9-10,12-13,15-16H,2-5,8,11,14,17-23H2,1H3/b7-6+,10-9+,13-12+,16-15+
computed SMILES=O=C(N1CCCC1)CCCC=CCC=CCC=CCC=CCCCCC
accession=JP008094
date=2016.01.19 (Created 2008.10.21, modified 2011.05.06)
author=YAMAMOTO M, DEP. CHEMISTRY, FAC. SCIENCE, NARA WOMEN'S UNIV.
license=CC BY-NC-SA
exact mass=357.30316
ionization energy=70 eV
ion type=[M]+*
computed spectral entropy=3.9137868945777257
computed normalized entropy=0.7379901707386666
SPLASH=splash10-03di-7911000000-c3ea163900150b048aad
submitter=submitter = University of Tokyo Team (Faculty of Engineering, University of Tokyo)
MoNA Rating=3.75

>  <NUM PEAKS>  (2753) 
201

>  <MASS SPECTRAL PEAKS>  (2753) 
39 1.45
40 0.15
41 8.29
42 1.07
43 9.25
44 0.17
51 0.27
52 0.2
53 1.63
54 1.29
55 12.27
56 2.81
57 1.03
58 0.22
59 0.31
60 0.06
63 0.13
65 1.57
66 1.53
67 8.17
68 1.51
69 2.62
70 14.86
71 5.11
72 13.77
73 0.58
77 4.03
78 1.9
79 9.34
80 4.96
81 3.14
82 0.52
83 0.62
84 0.55
85 12.68
86 0.74
87 0.14
91 7.03
92 1.85
93 4.5
94 1.16
95 1.62
96 0.83
97 0.79
98 11.65
99 1.63
100 0.5
103 0.46
104 0.6
105 3.45
106 1.14
107 1.56
108 0.58
109 0.69
110 0.52
111 0.49
112 2.86
113 99.99
114 10.03
115 0.99
116 0.39
117 1.59
118 0.51
119 1.91
120 0.58
121 1
122 0.39
123 0.37
124 0.54
125 0.23
126 15.7
127 4.17
128 0.62
129 0.44
130 0.27
131 1.28
132 0.42
133 1.53
134 0.46
135 0.68
136 0.63
137 0.38
138 0.47
139 0.66
140 1.94
141 0.63
142 0.18
143 0.21
145 0.57
146 0.37
147 0.87
148 0.35
149 0.51
150 1.54
151 0.34
152 0.98
153 0.93
154 1.42
155 0.46
157 0.24
159 0.45
160 0.2
161 0.46
162 0.26
163 0.34
164 0.43
165 0.28
166 3.26
167 1.16
168 2.69
169 0.48
171 0.17
173 0.31
174 0.16
175 0.76
176 0.41
177 0.57
178 0.47
179 0.41
180 4.26
181 0.88
182 0.73
183 0.16
187 0.33
188 0.2
189 0.44
190 0.43
191 0.22
192 0.9
193 0.36
194 0.85
195 0.28
196 0.28
201 0.21
202 0.18
203 0.53
204 0.44
205 0.28
206 2.47
207 0.68
208 2.96
209 0.61
210 0.15
215 0.15
217 0.28
218 0.77
219 0.65
220 2.27
221 0.58
222 0.7
223 0.2
230 0.31
231 0.19
232 4.06
233 0.87
234 0.78
235 0.21
236 0.29
244 0.77
245 0.42
246 3.42
247 1.05
248 0.38
250 0.21
258 0.63
259 0.42
260 1.24
261 0.31
262 0.26
264 0.13
272 1.46
273 0.38
274 0.49
275 0.13
276 0.25
277 0.57
278 0.3
281 0.09
286 1.31
287 0.32
288 0.37
289 0.18
290 0.22
291 0.15
300 1.05
301 0.26
302 0.24
303 0.21
314 0.66
315 0.13
316 0.16
328 0.38
329 0.19
331 0.23
342 0.14
355 0.26
356 2.44
357 10.28
358 2.98
359 1.81
360 0.41

>  <PREDICTED SPECTRUM>  (2753) 
2 2
26 11
27 37
28 18
29 15
37 0
39 75
40 36
41 171
42 86
43 128
44 69
45 24
47 10
49 19
50 8
51 94
52 85
53 185
54 206
55 525
56 260
57 171
59 10
60 25
62 5
63 29
64 14
65 175
66 128
67 357
68 187
69 195
70 582
71 314
72 487
73 105
74 2
75 31
76 11
77 281
78 144
79 354
80 224
81 284
82 148
83 160
84 76
85 299
86 13
87 48
89 35
90 31
91 333
92 118
93 206
94 88
95 171
96 78
97 85
98 466
99 167
100 9
101 30
103 91
104 66
105 216
106 122
107 121
108 56
109 72
110 28
111 50
112 37
113 999
114 307
115 100
116 38
117 103
118 66
119 126
120 72
121 119
122 73
123 35
124 90
125 68
126 450
127 134
128 19
129 81
130 58
131 62
132 56
133 113
134 86
135 109
136 54
137 15
138 62
139 16
140 120
141 44
142 25
143 37
145 63
146 12
147 118
148 42
149 29
150 43
152 117
153 129
154 108
155 61
157 38
159 27
160 0
162 14
163 17
164 42
165 43
166 190
167 90
168 103
169 28
173 30
174 55
175 46
177 18
178 38
180 131
181 61
182 28
183 12
189 9
192 29
194 146
195 39
199 8
201 1
203 49
204 16
205 13
206 72
207 18
208 111
209 4
216 18
218 13
219 2
220 91
231 7
232 101
233 30
234 110
236 6
244 21
245 22
246 91
247 23
248 86
258 5
259 37
260 75
261 10
262 57
272 45
274 28
277 25
286 12
300 10
328 33
356 35
357 71
358 57

$$$$

     RDKit          2D

 27 27  0  0  0  0  0  0  0  0999 V2000
   17.4928   -0.3955    0.0000 C   0  0  0  0  0  0  0  0  0  0  0  0
   16.1939   -1.1457    0.0000 C   0  0  0  0  0  0  0  0  0  0  0  0
   16.1941   -2.6457    0.0000 C   0  0  0  0  0  0  0  0  0  0  0  0
   14.8952   -3.3959    0.0000 C   0  0  0  0  0  0  0  0  0  0  0  0
   14.8954   -4.8959    0.0000 C   0  0  0  0  0  0  0  0  0  0  0  0
   13.5965   -5.6461    0.0000 C   0  0  0  0  0  0  0  0  0  0  0  0
   13.5968   -7.1461    0.0000 C   0  0  0  0  0  0  0  0  0  0  0  0
   14.8959   -7.8959    0.0000 C   0  0  0  0  0  0  0  0  0  0  0  0
   14.8962   -9.3959    0.0000 C   0  0  0  0  0  0  0  0  0  0  0  0
   16.1953  -10.1457    0.0000 C   0  0  0  0  0  0  0  0  0  0  0  0
   17.4942   -9.3955    0.0000 C   0  0  0  0  0  0  0  0  0  0  0  0
   18.7934  -10.1453    0.0000 C   0  0  0  0  0  0  0  0  0  0  0  0
   20.0923   -9.3951    0.0000 C   0  0  0  0  0  0  0  0  0  0  0  0
   21.3915  -10.1449    0.0000 C   0  0  0  0  0  0  0  0  0  0  0  0
   22.6904   -9.3947    0.0000 C   0  0  0  0  0  0  0  0  0  0  0  0
   23.9895  -10.1445    0.0000 C   0  0  0  0  0  0  0  0  0  0  0  0
   33.0846   -9.3934    0.0000 C   0  0  0  0  0  0  0  0  0  0  0  0
   31.7846  -10.1434    0.0000 C   0  0  0  0  0  0  0  0  0  0  0  0
   25.2885   -9.3943    0.0000 C   0  0  0  0  0  0  0  0  0  0  0  0
   33.0846   -7.8934    0.0000 C   0  0  0  0  0  0  0  0  0  0  0  0
   30.4846   -7.8934    0.0000 C   0  0  0  0  0  0  0  0  0  0  0  0
   29.1857  -10.1437    0.0000 C   0  0  0  0  0  0  0  0  0  0  0  0
   30.4846   -9.3934    0.0000 C   0  0  0  0  0  0  0  0  0  0  0  0
   26.5876  -10.1441    0.0000 C   0  0  0  0  0  0  0  0  0  0  0  0
   31.7846   -7.1434    0.0000 N   0  0  0  0  0  0  0  0  0  0  0  0
   26.5879  -11.6441    0.0000 O   0  0  0  0  0  0  0  0  0  0  0  0
   27.8865   -9.3939    0.0000 O   0  0  0  0  0  0  0  0  0  0  0  0
  2  1  1  0
  3  2  1  0
  4  3  1  0
  5  4  1  0
  6  5  1  0
  6  7  2  0
  8  7  1  0
  9  8  1  0
  9 10  2  0
 11 10  1  0
 12 11  1  0
 13 12  1  0
 14 13  1  0
 15 14  1  0
 16 15  1  0
 18 17  2  0
 19 16  1  0
 20 17  1  0
 23 18  1  0
 23 21  2  0
 23 22  1  0
 24 19  1  0
 25 20  2  0
 25 21  1  0
 26 24  2  0
 27 22  1  0
 27 24  1  0
M  END
>  <NAME>  (2754) 
3-PYRIDYLMETHYL OCTADECA-9,12-DIENOATE

>  <SYNONYMS>  (2754) 
LINOLEIC ACID PICOLINYL ESTER

>  <SPECTRUM TYPE>  (2754) 
MS1

>  <INSTRUMENT TYPE>  (2754) 
EI-B

>  <INSTRUMENT>  (2754) 
JEOL JMS-HX-100

>  <ION MODE>  (2754) 
P

>  <INCHIKEY>  (2754) 
CBIJRFCIJWDVAB-HZJYTTRNSA-N

>  <FORMULA>  (2754) 
C24H37NO2

>  <EXACT MASS>  (2754) 
371.28242942400004

>  <MW>  (2754) 
371

>  <ID>  (2754) 
JP008093

>  <CONTRIBUTOR>  (2754) 
University of Tokyo Team, {Faculty of Engineering, University of Tokyo

>  <COMMENT>  (2754) 
SMILES=CCCCCC=CCC=CCCCCCCCC(=O)OCc(c1)cncc1
InChI=InChI=1S/C24H37NO2/c1-2-3-4-5-6-7-8-9-10-11-12-13-14-15-16-19-24(26)27-22-23-18-17-20-25-21-23/h6-7,9-10,17-18,20-21H,2-5,8,11-16,19,22H2,1H3/b7-6-,10-9-
computed SMILES=O=C(OCC=1C=NC=CC1)CCCCCCCC=CCC=CCCCCC
accession=JP008093
date=2016.01.19 (Created 2008.10.21, modified 2011.05.06)
author=YAMAMOTO M, DEP. CHEMISTRY, FAC. SCIENCE, NARA WOMEN'S UNIV.
license=CC BY-NC-SA
exact mass=371.28243
ionization energy=70 eV
ion type=[M]+*
computed spectral entropy=4.207439935395627
computed normalized entropy=0.7700529748235735
SPLASH=splash10-0596-9534000000-7872c0c8b7253398bf11
submitter=submitter = University of Tokyo Team (Faculty of Engineering, University of Tokyo)
MoNA Rating=3.75

>  <NUM PEAKS>  (2754) 
236

>  <MASS SPECTRAL PEAKS>  (2754) 
35 0.26
37 0.48
38 0.47
39 7.69
40 0.61
41 23.51
42 2.35
43 9.97
44 1.81
45 0.01
50 0.27
51 1.34
52 1.16
53 4.67
54 10.76
55 27.4
56 3.26
57 3.76
58 0.24
59 0.26
60 0.29
63 1.23
64 1.77
65 13.77
66 3.04
67 35.77
68 6.46
69 13.18
70 1.52
71 1.02
73 0.21
74 0.12
75 0.25
76 0.02
77 3.99
78 2.42
79 14.32
80 9.23
81 25.2
82 4.19
83 5.07
84 0.59
85 0.62
87 0.24
89 0.18
91 8.05
92 99.99
93 42.04
94 6.48
95 15.52
96 0.64
97 2.82
98 0.9
99 0.11
101 0.69
104 0.08
105 1.31
106 1.72
107 3.36
108 55.9
109 23.24
110 8.49
111 1.3
112 0.21
113 0.24
115 0.11
116 0.49
117 0.81
118 1.28
119 0.99
120 1.09
121 3.43
122 0.91
123 2.32
124 0.98
125 0.21
127 0.55
129 0.2
130 0.92
131 0.83
132 0.75
133 0.48
134 0.94
135 2.06
136 1.16
137 2.66
138 0.75
139 0.63
141 0.56
143 0.48
144 0.74
145 0.61
146 0.54
147 0.64
148 1.84
149 1.07
150 0.75
151 20.79
152 2.79
153 0.76
157 0.39
158 0.74
159 0.76
160 0.76
161 0.83
162 0.73
163 0.49
164 60.69
165 8.99
166 0.99
167 0.75
170 0.77
171 0.47
172 1
173 0.92
174 0.52
175 0.5
178 12.17
179 2.07
180 0.52
181 0.86
184 0.59
185 0.61
186 0.88
188 0.78
189 0.25
190 2.45
192 3.99
193 0.43
194 0.14
195 0.7
200 0.55
202 0.83
203 0.49
204 4.21
205 0.98
206 10.35
207 3.16
208 0.07
209 0.24
210 0.05
211 0.2
214 0.47
216 0.75
218 1.18
219 0.91
220 12.13
221 3.04
222 0.76
228 0.48
230 0.65
232 1
233 1.04
234 5.26
235 1.36
236 0.53
242 0.74
243 0.64
244 1.16
245 0.74
246 2.34
247 5.79
248 3.73
249 0.38
250 0.24
251 0.27
256 0.96
258 1.56
259 0.94
260 18.54
261 10.7
262 4.18
263 1.34
264 0.55
266 0.02
267 0.27
268 0.15
269 0.41
270 0.51
272 2.9
273 1.86
274 20.67
275 7.01
276 1.79
277 0.48
278 0.53
279 3.18
280 1
281 0.97
283 0.35
286 4.1
287 1.32
288 9.47
289 2.62
290 0.57
295 0.28
296 1.15
297 0.53
298 0.64
299 0.46
300 8.76
301 3.23
302 3.09
303 0.85
304 0.6
310 0.66
313 0.26
314 18.53
315 6.06
316 4.4
317 1.11
325 0.2
327 0.08
328 13.88
329 3.82
330 3.07
331 0.71
341 0.15
342 4.47
343 1.37
344 1.67
345 0.76
355 0.28
356 0.79
357 0.21
358 0.58
366 0.45
367 0.08
368 0.27
369 1.34
370 9.01
371 83.23
372 23.83
373 14.62
374 3.81
375 0.63

>  <PREDICTED SPECTRUM>  (2754) 
39 61
40 0
41 84
43 30
50 40
51 164
52 162
53 260
54 293
55 558
56 168
57 232
58 52
59 67
60 60
61 32
62 55
63 156
64 174
65 490
66 217
67 567
68 252
69 354
70 125
71 166
72 59
73 68
74 22
75 44
76 33
77 245
78 169
79 437
80 273
81 418
82 191
83 237
84 93
85 120
86 32
87 67
88 52
89 44
90 30
91 347
92 999
93 748
94 229
95 350
96 146
97 137
98 68
99 59
100 6
101 22
102 23
103 55
104 14
105 138
106 149
107 231
108 716
109 514
110 266
111 102
112 39
113 72
114 41
115 64
116 34
117 97
118 80
119 157
120 85
121 197
122 96
123 158
124 75
125 45
126 8
127 40
128 0
129 50
130 60
131 97
132 73
133 158
134 103
135 191
136 85
137 120
138 31
139 44
141 40
142 5
143 23
144 73
145 83
146 56
147 131
148 112
149 150
150 70
151 404
152 152
153 65
155 11
156 27
157 15
158 56
159 72
160 31
161 61
162 69
163 66
164 622
165 209
166 85
167 67
168 24
170 0
172 61
173 64
174 53
175 47
176 39
177 109
178 244
179 117
180 3
181 47
184 8
185 5
186 67
187 47
188 57
189 11
190 101
191 78
192 184
193 138
194 69
195 50
200 36
201 29
202 51
203 25
204 133
205 82
206 273
207 144
208 47
209 2
214 33
215 5
216 62
217 48
218 139
219 122
220 262
221 98
222 40
228 50
229 4
230 67
231 33
232 184
233 142
234 233
235 104
236 27
240 10
242 61
243 27
244 80
245 57
246 236
247 173
248 182
249 76
254 34
256 67
257 7
258 117
259 125
260 325
261 194
262 140
263 57
268 39
270 50
272 183
273 133
274 235
275 140
276 100
277 30
278 13
279 160
280 51
282 91
283 14
284 52
285 19
286 328
287 149
288 152
289 51
290 53
296 125
298 11
300 374
301 200
302 125
303 49
304 20
310 52
311 22
312 42
314 378
315 184
316 153
317 60
324 34
326 0
328 315
329 176
330 108
331 24
342 237
343 127
344 42
352 3
355 0
356 126
357 54
369 27
370 290
371 713
372 353
373 130
374 12

$$$$

     RDKit          2D

 11 11  0  0  0  0  0  0  0  0999 V2000
    2.0189   -1.8302    0.0000 C   0  0  0  0  0  0  0  0  0  0  0  0
   -1.8800   -1.0800    0.0000 C   0  0  0  0  0  0  0  0  0  0  0  0
   -0.5800   -1.8300    0.0000 C   0  0  0  0  0  0  0  0  0  0  0  0
   -1.8800    0.4200    0.0000 C   0  0  0  0  0  0  0  0  0  0  0  0
    0.7200   -1.0800    0.0000 C   0  0  0  0  0  0  0  0  0  0  0  0
   -0.5800    1.1700    0.0000 C   0  0  0  0  0  0  0  0  0  0  0  0
    0.7200    0.4200    0.0000 C   0  0  0  0  0  0  0  0  0  0  0  0
    2.0189    1.1702    0.0000 C   0  0  0  0  0  0  0  0  0  0  0  0
   -0.5800    2.6700    0.0000 O   0  0  0  0  0  0  0  0  0  0  0  0
    2.0187    2.6702    0.0000 O   0  0  0  0  0  0  0  0  0  0  0  0
    3.3181    0.4204    0.0000 O   0  0  0  0  0  0  0  0  0  0  0  0
  3  2  2  0
  4  2  1  0
  5  1  1  0
  5  3  1  0
  6  4  2  0
  7  5  2  0
  7  6  1  0
  8  7  1  0
  9  6  1  0
 10  8  2  0
 11  8  1  0
M  END
>  <NAME>  (2755) 
6-METHYLSALICYLIC ACID

>  <SYNONYMS>  (2755) 


>  <SPECTRUM TYPE>  (2755) 
MS1

>  <INSTRUMENT TYPE>  (2755) 
EI-B

>  <INSTRUMENT>  (2755) 
JEOL JMS-HX-100

>  <ION MODE>  (2755) 
P

>  <INCHIKEY>  (2755) 
HCJMNOSIAGSZBM-UHFFFAOYSA-N

>  <FORMULA>  (2755) 
C8H8O3

>  <EXACT MASS>  (2755) 
152.04734411599998

>  <MW>  (2755) 
152

>  <ID>  (2755) 
JP008039

>  <CONTRIBUTOR>  (2755) 
University of Tokyo Team, {Faculty of Engineering, University of Tokyo

>  <COMMENT>  (2755) 
SMILES=OC(=O)c(c(C)1)c(O)ccc1
InChI=InChI=1S/C8H8O3/c1-5-3-2-4-6(9)7(5)8(10)11/h2-4,9H,1H3,(H,10,11)
computed SMILES=O=C(O)C=1C(O)=CC=CC1C
accession=JP008039
date=2016.01.19 (Created 2008.10.21, modified 2011.05.06)
author=HAYASHI A, FAC. OF SCIENCE AND TECHNOLOGY, KINKI UNIV.
license=CC BY-NC-SA
exact mass=152.04734
ionization energy=70 eV
ion type=[M]+*
computed spectral entropy=3.1348905252321293
computed normalized entropy=0.6559551201701853
SPLASH=splash10-0kai-5900000000-aba68ee6dffda3922de1
submitter=submitter = University of Tokyo Team (Faculty of Engineering, University of Tokyo)
MoNA Rating=3.75

>  <NUM PEAKS>  (2755) 
119

>  <MASS SPECTRAL PEAKS>  (2755) 
35 0.28
37 1.15
38 2.64
39 10.16
40 0.46
41 2.51
42 0.38
43 1.98
44 0.87
45 1.03
46 0.21
47 0.55
48 0.29
49 0.53
50 4.48
51 11.1
52 7.53
53 4.43
54 0.61
55 2.18
56 1.06
57 3.17
58 0.26
59 1.59
60 0.69
61 1.18
62 2.27
63 4.43
64 1.02
65 1.42
66 1.47
67 2.88
68 0.43
69 1.57
70 0.81
71 1.74
72 0.13
73 0.94
74 1.57
75 1.71
76 2.23
77 17.39
78 30.56
79 4.75
80 0.45
81 0.86
82 0.48
83 2.25
84 0.47
85 1.54
86 0.42
87 0.46
88 0.19
89 0.95
90 0.6
91 0.92
92 0.33
93 0.47
94 0.24
95 0.96
96 0.46
97 1.03
98 0.38
99 0.56
100 0.15
101 0.24
102 0.14
103 0.2
104 0.8
105 33.65
106 41.21
107 5.28
108 1.89
109 0.6
110 0.36
111 0.69
112 0.37
113 0.49
114 0.14
115 0.21
116 0.29
117 0.25
118 0.67
119 0.42
120 0.2
121 0.5
122 0.19
123 0.52
124 0.17
125 0.42
126 0.1
127 0.16
128 0.2
129 0.51
130 0.19
131 0.1
132 0.19
133 0.8
134 99.99
135 12.31
136 1.12
137 0.27
138 0.25
139 0.18
140 0.2
141 0.31
143 0.28
144 0.12
145 0.23
146 0.47
147 0.18
148 0.58
149 4.59
150 0.53
151 0.56
152 48.18
153 5.08
154 0.59
155 0.24

>  <PREDICTED SPECTRUM>  (2755) 
26 6
27 64
28 11
29 57
37 30
38 83
39 227
40 61
41 84
42 47
43 60
44 65
45 195
49 0
50 246
51 304
52 222
53 195
54 35
55 68
57 24
58 55
60 14
61 52
62 79
63 206
64 89
65 145
66 138
67 91
68 23
69 57
71 41
74 86
75 113
76 100
77 422
78 406
79 259
80 100
81 34
89 45
91 146
94 48
95 14
105 266
106 595
107 275
108 143
133 145
134 999
135 303
136 54
151 74
152 654
153 168
154 62

$$$$

     RDKit          2D

 24 24  0  0  0  0  0  0  0  0999 V2000
   15.3326   -6.8939    0.0000 C   0  0  0  0  0  0  0  0  0  0  0  0
   14.0337   -6.1437    0.0000 C   0  0  0  0  0  0  0  0  0  0  0  0
   12.7345   -6.8935    0.0000 C   0  0  0  0  0  0  0  0  0  0  0  0
   11.4356   -6.1433    0.0000 C   0  0  0  0  0  0  0  0  0  0  0  0
   10.1364   -6.8931    0.0000 C   0  0  0  0  0  0  0  0  0  0  0  0
    8.8375   -6.1429    0.0000 C   0  0  0  0  0  0  0  0  0  0  0  0
    7.5384   -6.8927    0.0000 C   0  0  0  0  0  0  0  0  0  0  0  0
    6.2394   -6.1424    0.0000 C   0  0  0  0  0  0  0  0  0  0  0  0
    4.9403   -6.8922    0.0000 C   0  0  0  0  0  0  0  0  0  0  0  0
    3.6414   -6.1420    0.0000 C   0  0  0  0  0  0  0  0  0  0  0  0
    2.3422   -6.8918    0.0000 C   0  0  0  0  0  0  0  0  0  0  0  0
    1.0433   -6.1416    0.0000 C   0  0  0  0  0  0  0  0  0  0  0  0
   -0.2559   -6.8914    0.0000 C   0  0  0  0  0  0  0  0  0  0  0  0
   -4.1539   -9.1427    0.0000 C   0  0  0  0  0  0  0  0  0  0  0  0
   -1.5548   -6.1412    0.0000 C   0  0  0  0  0  0  0  0  0  0  0  0
   -2.8544   -8.3918    0.0000 C   0  0  0  0  0  0  0  0  0  0  0  0
   -5.4530   -8.3927    0.0000 C   0  0  0  0  0  0  0  0  0  0  0  0
   -2.8539   -6.8910    0.0000 C   0  0  0  0  0  0  0  0  0  0  0  0
   -5.4525   -6.8918    0.0000 C   0  0  0  0  0  0  0  0  0  0  0  0
   -4.1530   -6.1410    0.0000 C   0  0  0  0  0  0  0  0  0  0  0  0
   -4.1532   -4.6410    0.0000 C   0  0  0  0  0  0  0  0  0  0  0  0
   -6.7515   -6.1418    0.0000 O   0  0  0  0  0  0  0  0  0  0  0  0
   -2.8543   -3.8908    0.0000 O   0  0  0  0  0  0  0  0  0  0  0  0
   -5.4524   -3.8912    0.0000 O   0  0  0  0  0  0  0  0  0  0  0  0
  2  1  1  0
  3  2  1  0
  4  3  1  0
  5  4  1  0
  6  5  1  0
  7  6  1  0
  8  7  1  0
  9  8  1  0
 10  9  1  0
 11 10  1  0
 12 11  1  0
 13 12  1  0
 15 13  1  0
 16 14  2  0
 17 14  1  0
 18 15  1  0
 18 16  1  0
 19 17  2  0
 20 18  2  0
 20 19  1  0
 21 20  1  0
 22 19  1  0
 23 21  2  0
 24 21  1  0
M  END
>  <NAME>  (2756) 
6-TETRADECYLSALICYLIC ACID

>  <SYNONYMS>  (2756) 


>  <SPECTRUM TYPE>  (2756) 
MS1

>  <INSTRUMENT TYPE>  (2756) 
EI-B

>  <INSTRUMENT>  (2756) 
JEOL JMS-HX-100

>  <ION MODE>  (2756) 
P

>  <INCHIKEY>  (2756) 
DNTSXRMSSGNLFL-UHFFFAOYSA-N

>  <FORMULA>  (2756) 
C21H34O3

>  <EXACT MASS>  (2756) 
334.250794948

>  <MW>  (2756) 
334

>  <ID>  (2756) 
JP008038

>  <CONTRIBUTOR>  (2756) 
University of Tokyo Team, {Faculty of Engineering, University of Tokyo

>  <COMMENT>  (2756) 
SMILES=CCCCCCCCCCCCCCc(c1)c(C(O)=O)c(O)cc1
InChI=InChI=1S/C21H34O3/c1-2-3-4-5-6-7-8-9-10-11-12-13-15-18-16-14-17-19(22)20(18)21(23)24/h14,16-17,22H,2-13,15H2,1H3,(H,23,24)
computed SMILES=O=C(O)C=1C(O)=CC=CC1CCCCCCCCCCCCCC
date=2016.01.19 (Created 2008.10.21, modified 2011.05.06)
author=HAYASHI A, FAC. OF SCIENCE AND TECHNOLOGY, KINKI UNIV.
license=CC BY-NC-SA
accession=JP008038
exact mass=334.25079
ionization energy=70 eV
ion type=[M]+*
computed spectral entropy=4.632385986501369
computed normalized entropy=0.8402005720530175
SPLASH=splash10-01pk-2922000000-f1fbf3e008f890bbc103
submitter=submitter = University of Tokyo Team (Faculty of Engineering, University of Tokyo)
MoNA Rating=3.75

>  <NUM PEAKS>  (2756) 
248

>  <MASS SPECTRAL PEAKS>  (2756) 
39 4.19
40 0.57
41 29.07
42 3.72
43 34.6
44 2.05
45 0.56
50 0.37
51 2.5
52 0.98
53 2.4
54 1.53
55 24.98
56 3.5
57 15.59
58 0.79
60 0.52
63 1.05
64 0.65
65 4
66 3.03
67 7.46
68 1.54
69 14.17
70 1.91
71 4.74
72 0.39
73 0.63
74 0.34
75 0.42
76 0.64
77 12.83
78 6.66
79 5.9
80 1.59
81 6.9
82 1.56
83 7.12
84 1.13
85 2.15
87 0.38
89 1.96
90 2.37
91 12.51
92 2.62
93 3.58
94 2.65
95 7.92
96 1.3
97 4.59
98 0.98
99 0.56
101 0.72
102 1.62
103 6.93
104 2.42
105 28.26
106 7.93
107 32.83
108 31.38
109 5.92
110 0.97
111 1.72
112 0.64
113 0.64
114 0.44
115 4.83
116 2.37
117 3.55
118 6.37
119 7.82
120 11.05
121 14.48
122 7.36
123 3.9
124 1.49
125 0.82
127 2.04
128 1.69
129 2.69
130 2.75
131 7.91
132 14.58
133 27.9
134 62.64
135 17.79
136 12.47
137 1.99
138 0.84
139 1.19
141 1.04
142 0.45
143 1.25
144 9.65
145 22.85
146 43.92
147 79.4
148 54.68
149 18.3
150 7.66
151 28.14
152 57.39
153 6.28
154 0.9
155 0.74
156 0.65
157 9.93
158 13.05
159 23.09
160 35.18
161 88.94
162 34.47
163 24.57
164 5.9
165 5.2
166 2.67
167 0.88
168 0.34
169 1.12
170 0.91
171 10.27
172 13.06
173 15.79
174 15.75
175 31.4
176 15.55
177 5.84
178 2.2
179 1.08
180 1.23
181 0.5
183 1.8
184 1.41
185 23.81
186 12.63
187 10.46
188 8.91
189 17.95
190 6.04
191 2.05
192 0.78
193 0.52
194 0.36
195 0.44
196 0.4
197 1.75
198 1.18
199 21.69
200 11.99
201 6.25
202 3.7
203 8.15
204 2.31
205 1.17
206 0.62
207 0.43
208 0.64
209 0.3
211 1.13
212 0.89
213 12.04
214 5.98
215 3.2
216 1.91
217 5.14
218 1.46
219 0.7
221 0.68
225 0.65
226 0.53
227 12.29
228 6.36
229 2.41
230 1.29
231 8.13
232 2.24
233 0.83
234 0.32
235 0.32
236 0.87
237 0.8
238 0.33
239 0.54
241 8.39
242 5.58
243 2.21
244 0.8
245 14.47
246 4.56
247 1.08
248 0.4
253 0.33
255 8.27
256 5.08
257 1.84
258 0.57
259 24.11
260 8.18
261 1.66
262 0.37
269 7.77
270 2.84
271 1.71
272 0.59
273 32.63
274 10.51
275 1.81
276 0.35
279 0.37
281 2.46
283 4.37
284 1.34
285 2.6
286 0.81
287 32.26
288 8.65
289 1.54
290 7.9
291 1.88
292 0.33
296 2.1
297 1.75
298 31.13
299 11.78
300 2.39
301 3.13
302 1.11
303 0.43
304 0.32
305 0.37
312 0.62
313 0.81
314 8.69
315 5.43
316 66.3
317 17.54
318 3
319 0.59
320 0.58
328 0.36
330 1.2
331 0.85
332 19.13
333 5.8
334 99.99
335 27.52
336 4.49
337 0.5

>  <PREDICTED SPECTRUM>  (2756) 
17 32
18 28
26 10
27 82
28 15
29 78
34 15
36 15
38 21
39 185
40 77
41 487
42 127
43 679
44 196
45 129
49 6
50 70
51 187
52 128
53 176
54 91
55 446
56 115
57 327
58 35
60 80
62 29
63 122
64 71
65 229
66 107
67 259
68 96
69 351
70 72
71 256
73 39
74 64
75 35
76 78
77 425
78 245
79 334
80 143
81 289
82 140
83 219
84 94
85 168
87 1
89 113
90 126
91 431
92 172
93 239
94 169
95 234
96 87
97 197
98 122
99 38
100 38
101 36
102 73
103 220
104 240
105 471
106 348
107 516
108 364
109 281
110 168
111 163
112 83
113 19
114 56
115 223
116 173
117 246
118 218
119 261
120 211
121 416
122 270
123 294
124 137
125 123
126 32
127 94
128 110
129 205
130 141
131 239
132 348
133 510
134 614
135 390
136 268
137 172
138 158
139 87
140 21
141 117
142 116
143 94
144 204
145 338
146 482
147 751
148 617
149 366
150 213
151 473
152 425
153 335
154 99
155 105
156 94
157 203
158 209
159 428
160 437
161 777
162 477
163 331
164 173
165 218
166 167
167 137
168 23
169 8
170 4
171 256
172 243
173 237
174 383
175 474
176 277
177 243
178 92
179 111
180 14
183 13
184 119
185 328
186 310
187 323
188 228
189 416
190 230
191 171
192 68
193 37
194 62
197 18
198 78
199 340
200 277
201 163
202 129
203 207
204 111
205 27
206 2
207 49
211 57
212 63
213 264
214 187
215 193
216 143
217 233
218 102
219 59
227 257
228 127
229 184
230 117
231 255
232 66
233 14
240 32
241 228
242 243
243 143
244 36
245 172
246 120
247 0
248 40
249 26
255 241
256 134
257 90
258 37
259 287
260 173
261 17
263 11
269 230
270 162
271 170
272 124
273 457
274 232
275 102
276 35
277 21
278 14
283 222
284 67
285 1
287 334
288 269
289 118
290 168
291 64
297 62
298 340
299 229
300 104
301 174
302 65
303 37
305 48
306 31
314 166
315 170
316 726
317 459
318 189
319 56
330 66
331 21
332 250
333 143
334 999
335 507
336 209
337 35

$$$$

     RDKit          2D

 12 12  0  0  0  0  0  0  0  0999 V2000
    2.0189   -1.8302    0.0000 C   0  0  0  0  0  0  0  0  0  0  0  0
   -1.8790    3.4200    0.0000 C   0  0  0  0  0  0  0  0  0  0  0  0
   -1.8800   -1.0800    0.0000 C   0  0  0  0  0  0  0  0  0  0  0  0
   -0.5800   -1.8300    0.0000 C   0  0  0  0  0  0  0  0  0  0  0  0
   -1.8800    0.4200    0.0000 C   0  0  0  0  0  0  0  0  0  0  0  0
    0.7200   -1.0800    0.0000 C   0  0  0  0  0  0  0  0  0  0  0  0
   -0.5800    1.1700    0.0000 C   0  0  0  0  0  0  0  0  0  0  0  0
    0.7200    0.4200    0.0000 C   0  0  0  0  0  0  0  0  0  0  0  0
    2.0189    1.1702    0.0000 C   0  0  0  0  0  0  0  0  0  0  0  0
    2.0187    2.6702    0.0000 O   0  0  0  0  0  0  0  0  0  0  0  0
    3.3181    0.4204    0.0000 O   0  0  0  0  0  0  0  0  0  0  0  0
   -0.5800    2.6700    0.0000 O   0  0  0  0  0  0  0  0  0  0  0  0
  4  3  2  0
  5  3  1  0
  6  1  1  0
  6  4  1  0
  7  5  2  0
  8  6  2  0
  8  7  1  0
  9  8  1  0
 10  9  2  0
 11  9  1  0
 12  2  1  0
 12  7  1  0
M  END
>  <NAME>  (2757) 
2-METHOXY-6-METHYLBENZOIC ACID

>  <SYNONYMS>  (2757) 


>  <SPECTRUM TYPE>  (2757) 
MS1

>  <INSTRUMENT TYPE>  (2757) 
EI-B

>  <INSTRUMENT>  (2757) 
JEOL JMS-HX-100

>  <ION MODE>  (2757) 
P

>  <INCHIKEY>  (2757) 
MICCJGFEXKNBLU-UHFFFAOYSA-N

>  <FORMULA>  (2757) 
C9H10O3

>  <EXACT MASS>  (2757) 
166.06299417999998

>  <MW>  (2757) 
166

>  <ID>  (2757) 
JP008037

>  <CONTRIBUTOR>  (2757) 
University of Tokyo Team, {Faculty of Engineering, University of Tokyo

>  <COMMENT>  (2757) 
SMILES=COc(c1)c(C(O)=O)c(C)cc1
InChI=InChI=1S/C9H10O3/c1-6-4-3-5-7(12-2)8(6)9(10)11/h3-5H,1-2H3,(H,10,11)
computed SMILES=O=C(O)C=1C(OC)=CC=CC1C
accession=JP008037
date=2016.01.19 (Created 2008.10.21, modified 2011.05.06)
author=HAYASHI A, FAC. OF SCIENCE AND TECHNOLOGY, KINKI UNIV.
license=CC BY-NC-SA
exact mass=166.06299
ionization energy=70 eV
ion type=[M]+*
computed spectral entropy=2.968337935077858
computed normalized entropy=0.6793393662775751
SPLASH=splash10-00ke-5900000000-e1e3c6e7581751117e37
submitter=submitter = University of Tokyo Team (Faculty of Engineering, University of Tokyo)
MoNA Rating=3.75

>  <NUM PEAKS>  (2757) 
79

>  <MASS SPECTRAL PEAKS>  (2757) 
37 0.47
38 1.33
39 6.66
40 0.15
41 1.36
42 0.23
43 1.22
44 0.17
45 0.59
50 3.2
51 9.61
52 4.71
53 2.28
54 0.25
55 0.74
56 0.03
57 0.12
59 0.14
60 0.21
61 0.61
62 1.86
63 5
64 1.45
65 6.8
66 1.08
67 0.9
68 0.2
69 0.1
71 0.02
73 0.25
74 3.32
75 1.18
76 1.35
77 15.71
78 7.69
79 2.76
80 0.28
81 0.1
86 0.4
88 0.28
89 5.1
90 44.16
91 22.58
92 3.12
93 2.1
94 0.5
95 0.7
97 0.04
103 0.41
104 0.29
105 20.94
106 4.76
107 1.6
108 0.7
109 0.3
118 4.24
119 12.04
120 1.62
121 2.17
122 0.47
123 0.62
129 0.17
131 0.14
132 0.29
133 2.06
134 1.86
135 2.02
136 0.31
137 0.59
146 0.14
147 4.53
148 99.99
149 22.19
150 2.46
151 1.02
165 0.33
166 55.88
167 6.15
168 0.74

>  <PREDICTED SPECTRUM>  (2757) 
14 2
15 18
17 17
18 5
26 40
27 86
28 56
29 31
31 8
36 15
37 59
38 84
39 277
40 102
41 165
42 34
43 85
44 168
45 246
49 63
50 261
51 383
52 244
53 251
54 89
55 103
56 7
58 41
59 25
60 36
61 142
62 230
63 382
64 215
65 411
66 180
67 128
68 54
69 49
71 36
72 25
73 43
74 185
75 222
76 176
77 552
78 332
79 306
80 91
81 51
85 50
86 60
87 75
88 46
89 344
90 305
91 563
92 271
93 254
94 110
95 42
102 124
103 162
104 206
105 474
106 158
107 236
108 74
109 20
116 64
117 187
118 147
119 509
120 487
121 411
122 287
123 174
132 16
133 130
134 51
135 164
136 34
137 185
138 34
139 21
147 318
148 999
149 528
150 230
151 76
165 100
166 633
167 184
168 81

$$$$

     RDKit          2D

 15 17  0  0  0  0  0  0  0  0999 V2000
   -4.3045    1.3073    0.0000 C   0  0  0  0  0  0  0  0  0  0  0  0
    3.3100    0.7300    0.0000 C   0  0  0  0  0  0  0  0  0  0  0  0
    2.0100    1.4900    0.0000 C   0  0  0  0  0  0  0  0  0  0  0  0
    3.3100   -0.7700    0.0000 C   0  0  0  0  0  0  0  0  0  0  0  0
   -1.7900    0.1800    0.0000 C   0  0  0  0  0  0  0  0  0  0  0  0
   -2.9200   -0.7700    0.0000 C   0  0  0  0  0  0  0  0  0  0  0  0
   -0.3500   -1.8300    0.0000 C   0  0  0  0  0  0  0  0  0  0  0  0
   -1.8500    1.7900    0.0000 C   0  0  0  0  0  0  0  0  0  0  0  0
   -1.8500   -1.8300    0.0000 C   0  0  0  0  0  0  0  0  0  0  0  0
   -0.3500    1.7900    0.0000 C   0  0  0  0  0  0  0  0  0  0  0  0
    0.7100    0.7300    0.0000 C   0  0  0  0  0  0  0  0  0  0  0  0
    2.0100   -1.5100    0.0000 C   0  0  0  0  0  0  0  0  0  0  0  0
   -2.9200    0.7300    0.0000 N   0  0  0  0  0  0  0  0  0  0  0  0
    0.7100   -0.7700    0.0000 N   0  0  0  0  0  0  0  0  0  0  0  0
    2.0100   -3.0100    0.0000 O   0  0  0  0  0  0  0  0  0  0  0  0
  3  2  1  0
  4  2  2  0
  9  5  1  0
  9  6  1  0
  9  7  1  0
 10  5  1  0
 10  8  1  0
 11  3  2  0
 11 10  1  0
 12  4  1  0
 13  1  1  0
 13  6  1  0
 13  8  1  0
 14  7  1  0
 14 11  1  0
 14 12  1  0
 15 12  2  0
M  END
>  <NAME>  (2758) 
CAULOPHYLLINE

>  <SYNONYMS>  (2758) 
1,2,3,4,5,6-HEXAHYDRO-3-METHYL-1,5-METHANO-8H-PYRIDO(1,2-A)(1,5)DIAZOCIN-8-ONE

>  <SPECTRUM TYPE>  (2758) 
MS1

>  <INSTRUMENT TYPE>  (2758) 
EI-B

>  <INSTRUMENT>  (2758) 
JEOL JMS-HX-100

>  <ION MODE>  (2758) 
P

>  <INCHIKEY>  (2758) 
CULUKMPMGVXCEI-UHFFFAOYSA-N

>  <FORMULA>  (2758) 
C12H16N2O

>  <EXACT MASS>  (2758) 
204.126263132

>  <MW>  (2758) 
204

>  <ID>  (2758) 
JP008036

>  <CONTRIBUTOR>  (2758) 
University of Tokyo Team, {Faculty of Engineering, University of Tokyo

>  <COMMENT>  (2758) 
SMILES=CN(C2)CC([H])(C3)C(=C([H])1)N(CC([H])23)C(=O)C([H])=C([H])1
InChI=InChI=1S/C12H16N2O/c1-13-6-9-5-10(8-13)11-3-2-4-12(15)14(11)7-9/h2-4,9-10H,5-8H2,1H3
computed SMILES=O=C1C=CC=C2N1CC3CN(C)CC2C3
accession=JP008036
date=2016.01.19 (Created 2008.10.21, modified 2011.05.06)
author=HAYASHI A, FAC. OF SCIENCE AND TECHNOLOGY, KINKI UNIV.
license=CC BY-NC-SA
exact mass=204.12626
ionization energy=70 eV
ion type=[M]+*
computed spectral entropy=3.7778237653988054
computed normalized entropy=0.7443732772381415
SPLASH=splash10-0a4i-9410000000-6abb4fe1c6377dc04826
submitter=submitter = University of Tokyo Team (Faculty of Engineering, University of Tokyo)
MoNA Rating=3.75

>  <NUM PEAKS>  (2758) 
160

>  <MASS SPECTRAL PEAKS>  (2758) 
37 0.25
38 0.87
39 6.4
41 8.49
42 11.03
43 9.98
45 0.13
50 0.7
51 2.03
52 1.48
53 2.41
54 1.09
55 2.84
56 1.39
57 6.84
58 99.99
59 4.4
60 0.37
61 1.01
62 0.5
63 1.04
64 0.65
65 3.29
66 1.84
67 2.46
68 1.61
69 2.25
70 1.89
71 1.87
73 0.42
74 0.22
75 0.23
76 0.54
77 4.35
78 2.71
79 2.36
80 1.69
81 2.05
82 4.78
83 2.37
84 1.74
85 1.72
86 0.36
87 0.27
88 1.79
89 1.29
90 1.05
91 2.54
92 1.44
93 2.03
94 3.34
95 1.75
96 3.62
97 1.78
98 0.74
99 0.54
101 0.63
102 1.14
103 1
104 3.22
105 2.33
106 1.82
107 1
108 1.82
109 2.36
110 0.66
111 1.05
112 0.42
113 0.51
114 0.29
115 1.37
116 0.69
117 7.03
118 3.95
119 1.17
120 0.74
121 1.02
122 1.38
123 1
124 0.32
125 0.55
126 0.21
127 0.48
128 0.58
129 0.47
130 3.06
131 2.07
132 3.18
133 2.4
134 2.82
135 0.68
136 0.32
137 0.35
138 0.36
139 0.41
140 0.24
141 0.4
142 1.11
143 0.55
144 1.11
145 2.85
146 13.21
147 3.7
148 1.13
149 3.71
150 0.63
151 0.29
152 0.36
153 0.27
154 0.28
155 0.45
156 0.28
157 0.3
158 0.98
159 2.35
160 9.6
161 2.82
162 1.31
163 0.52
164 0.23
165 0.22
166 0.23
167 0.83
168 0.37
169 0.32
170 0.66
171 0.6
172 0.68
173 0.81
174 0.55
175 0.35
176 1.01
177 0.47
178 0.25
179 0.37
180 0.25
183 0.34
184 0.41
185 0.47
186 0.54
187 0.75
188 0.7
189 0.93
190 0.82
191 0.24
193 0.28
195 0.32
197 0.23
198 0.31
199 0.41
200 0.41
201 0.59
202 1.2
203 1.02
204 39.49
205 6.23
206 0.66
207 0.01
208 0.25
209 0.29

>  <PREDICTED SPECTRUM>  (2758) 
15 16
30 7
33 23
34 32
38 40
39 315
40 162
41 389
42 724
43 457
44 589
45 145
46 41
50 116
51 221
52 192
53 290
54 270
55 281
56 262
57 385
58 720
59 276
60 142
61 4
62 45
63 125
64 99
65 297
66 191
67 203
68 254
69 150
70 207
71 161
72 103
76 54
77 336
78 251
79 246
80 219
81 292
82 494
83 268
84 19
86 29
87 42
89 56
91 246
92 182
93 225
94 349
95 90
96 321
97 165
98 70
99 40
102 15
103 137
104 154
105 164
106 177
107 91
108 141
109 421
110 216
114 9
115 117
116 51
117 375
118 370
119 213
120 95
121 51
122 63
123 26
128 48
130 300
131 220
132 405
133 188
134 429
135 171
136 21
137 64
144 36
145 35
146 999
147 688
148 480
149 59
159 108
160 617
161 223
162 124
163 30
174 3
175 134
176 35
189 265
190 132
203 168
204 927
205 413
206 107
207 13

$$$$

     RDKit          2D

 15 16  0  0  0  0  0  0  0  0999 V2000
    0.0000    4.8200    0.0000 C   0  0  0  0  0  0  0  0  0  0  0  0
    3.8971    1.0700    0.0000 C   0  0  0  0  0  0  0  0  0  0  0  0
   -5.1962    4.8200    0.0000 C   0  0  0  0  0  0  0  0  0  0  0  0
    3.8976    2.5708    0.0000 C   0  0  0  0  0  0  0  0  0  0  0  0
    2.5976    0.3192    0.0000 C   0  0  0  0  0  0  0  0  0  0  0  0
   -3.8966    5.5708    0.0000 C   0  0  0  0  0  0  0  0  0  0  0  0
   -5.1966    3.3192    0.0000 C   0  0  0  0  0  0  0  0  0  0  0  0
    2.5986    3.3208    0.0000 C   0  0  0  0  0  0  0  0  0  0  0  0
    1.2986    1.0692    0.0000 C   0  0  0  0  0  0  0  0  0  0  0  0
   -2.5976    4.8208    0.0000 C   0  0  0  0  0  0  0  0  0  0  0  0
   -3.8976    2.5692    0.0000 C   0  0  0  0  0  0  0  0  0  0  0  0
    0.0000    3.3200    0.0000 C   0  0  0  0  0  0  0  0  0  0  0  0
    1.2990    2.5700    0.0000 C   0  0  0  0  0  0  0  0  0  0  0  0
   -2.5981    3.3200    0.0000 C   0  0  0  0  0  0  0  0  0  0  0  0
   -1.2990    2.5700    0.0000 N   0  0  0  0  0  0  0  0  0  0  0  0
  4  2  2  0
  5  2  1  0
  6  3  2  0
  7  3  1  0
  8  4  1  0
  9  5  2  0
 10  6  1  0
 11  7  2  0
 12  1  1  0
 13  8  2  0
 13  9  1  0
 13 12  1  0
 14 10  2  0
 14 11  1  0
 15 12  1  0
 15 14  1  0
M  END
>  <NAME>  (2759) 
N-(ALPHA-METHYL)BENZYLANILINE

>  <SYNONYMS>  (2759) 


>  <SPECTRUM TYPE>  (2759) 
MS1

>  <INSTRUMENT TYPE>  (2759) 
EI-B

>  <INSTRUMENT>  (2759) 
JEOL JMS-HX-100

>  <ION MODE>  (2759) 
P

>  <INCHIKEY>  (2759) 
IUERBKSXAYWVGE-UHFFFAOYSA-N

>  <FORMULA>  (2759) 
C14H15N

>  <EXACT MASS>  (2759) 
197.12044948

>  <MW>  (2759) 
197

>  <ID>  (2759) 
JP008035

>  <CONTRIBUTOR>  (2759) 
University of Tokyo Team, {Faculty of Engineering, University of Tokyo

>  <COMMENT>  (2759) 
SMILES=CC(Nc(c2)cccc2)c(c1)cccc1
InChI=InChI=1S/C14H15N/c1-12(13-8-4-2-5-9-13)15-14-10-6-3-7-11-14/h2-12,15H,1H3
computed SMILES=C=1C=CC(=CC1)NC(C=2C=CC=CC2)C
accession=JP008035
date=2016.01.19 (Created 2008.10.21, modified 2011.05.06)
author=HAYASHI A, FAC. OF SCIENCE AND TECHNOLOGY, KINKI UNIV.
license=CC BY-NC-SA
exact mass=197.12045
ionization energy=70 eV
ion type=[M]+*
computed spectral entropy=2.8459090485734135
computed normalized entropy=0.6895605480853079
SPLASH=splash10-053s-3900000000-9a8625f4a8d331044960
submitter=submitter = University of Tokyo Team (Faculty of Engineering, University of Tokyo)
MoNA Rating=3.75

>  <NUM PEAKS>  (2759) 
62

>  <MASS SPECTRAL PEAKS>  (2759) 
15 0.24
27 1.23
28 1.74
32 0.74
39 1.64
41 0.6
42 0.35
43 1.92
44 0.06
50 0.88
51 5.05
52 0.93
53 0.57
58 1.2
63 1.02
64 0.5
65 2.77
66 1.63
75 0.53
76 1.34
77 21.97
78 4.46
79 6.72
83 1.95
89 1.07
90 6.72
91 4.62
92 1.47
93 35.71
94 2.97
97 0.55
98 3.67
99 0.59
102 0.98
103 6.79
104 9.16
105 59.48
106 5.85
115 0.49
118 2.16
119 0.71
120 7.89
121 0.77
149 0.22
151 0.51
152 1.49
153 0.8
154 0.76
165 0.63
167 0.91
168 0.68
180 9.86
181 2.84
182 99.99
183 16.72
184 1.1
194 1.08
195 2.84
196 5.64
197 64.55
198 10.56
199 0.96

>  <PREDICTED SPECTRUM>  (2759) 
14 5
15 26
16 12
17 35
18 55
25 12
26 67
27 187
28 134
29 46
31 38
32 17
33 6
37 69
38 113
39 313
40 111
41 230
42 140
43 136
44 110
45 57
47 50
49 74
50 244
51 455
52 213
53 155
54 47
55 70
57 11
60 20
61 37
62 86
63 186
64 161
65 274
66 138
67 73
68 17
69 91
70 30
74 136
75 165
76 211
77 679
78 330
79 331
80 107
81 14
84 44
85 29
89 86
90 51
91 104
92 299
93 287
94 77
102 64
103 211
104 359
105 999
106 408
107 122
116 3
118 117
119 3
120 217
128 17
152 34
153 10
154 7
166 16
167 38
168 21
169 24
178 30
180 139
181 82
182 324
183 132
184 1
194 32
196 108
197 639
198 256
199 69

$$$$

     RDKit          2D

 12 13  0  0  0  0  0  0  0  0999 V2000
   -4.2081   -0.0153    0.0000 C   0  0  0  0  0  0  0  0  0  0  0  0
   -2.5498    2.4991    0.0000 C   0  0  0  0  0  0  0  0  0  0  0  0
   -2.9075   -0.7627    0.0000 C   0  0  0  0  0  0  0  0  0  0  0  0
    2.6900   -1.2400    0.0000 C   0  0  0  0  0  0  0  0  0  0  0  0
    1.7000   -2.3500    0.0000 C   0  0  0  0  0  0  0  0  0  0  0  0
    2.2400    0.1900    0.0000 C   0  0  0  0  0  0  0  0  0  0  0  0
    0.2300   -2.0300    0.0000 C   0  0  0  0  0  0  0  0  0  0  0  0
    0.0300    1.8000    0.0000 C   0  0  0  0  0  0  0  0  0  0  0  0
   -1.4400    1.4900    0.0000 C   0  0  0  0  0  0  0  0  0  0  0  0
    0.7700    0.5100    0.0000 C   0  0  0  0  0  0  0  0  0  0  0  0
   -0.2400   -0.6000    0.0000 C   0  0  0  0  0  0  0  0  0  0  0  0
   -1.6100   -0.0100    0.0000 N   0  0  0  0  0  0  0  0  0  0  0  0
  3  1  1  0
  5  4  2  0
  6  4  1  0
  7  5  1  0
  9  2  1  0
  9  8  1  0
 10  6  2  0
 10  8  1  0
 11  7  2  0
 11 10  1  0
 12  3  1  0
 12  9  1  0
 12 11  1  0
M  END
>  <NAME>  (2760) 
1-ETHYL-2-METHYL-DIHYDROINDOLE

>  <SYNONYMS>  (2760) 


>  <SPECTRUM TYPE>  (2760) 
MS1

>  <INSTRUMENT TYPE>  (2760) 
EI-B

>  <INSTRUMENT>  (2760) 
JEOL JMS-HX-100

>  <ION MODE>  (2760) 
P

>  <INCHIKEY>  (2760) 
IUPDNKDLTMMZSD-UHFFFAOYSA-N

>  <FORMULA>  (2760) 
C11H15N

>  <EXACT MASS>  (2760) 
161.12044948

>  <MW>  (2760) 
161

>  <ID>  (2760) 
JP008034

>  <CONTRIBUTOR>  (2760) 
University of Tokyo Team, {Faculty of Engineering, University of Tokyo

>  <COMMENT>  (2760) 
SMILES=CCN(C(C)1)c(c2)c(ccc2)C1
InChI=InChI=1S/C11H15N/c1-3-12-9(2)8-10-6-4-5-7-11(10)12/h4-7,9H,3,8H2,1-2H3
computed SMILES=C=1C=CC2=C(C1)N(CC)C(C)C2
accession=JP008034
date=2016.01.19 (Created 2008.10.21, modified 2011.05.06)
author=HAYASHI A, FAC. OF SCIENCE AND TECHNOLOGY, KINKI UNIV.
license=CC BY-NC-SA
exact mass=161.12045
ionization energy=70 eV
ion type=[M]+*
computed spectral entropy=3.1214489153678207
computed normalized entropy=0.6971664283272371
SPLASH=splash10-00kb-1900000000-c19080e7c1ca0959ebf2
submitter=submitter = University of Tokyo Team (Faculty of Engineering, University of Tokyo)
MoNA Rating=3.75

>  <NUM PEAKS>  (2760) 
88

>  <MASS SPECTRAL PEAKS>  (2760) 
28 0.79
29 0.93
37 0.11
38 0.69
39 4.04
41 1.7
42 0.13
45 0.14
50 1.41
51 3.98
52 1.63
53 0.63
54 0.44
55 0.28
56 0.34
64 1.36
65 5.64
66 0.85
67 0.32
68 0.18
69 0.18
70 0.2
71 0.58
72 0.41
73 1.88
74 0.55
75 1.05
76 1.45
77 6.65
78 1.89
79 1.01
80 2.23
81 0.34
82 0.13
86 0.06
87 0.26
88 0.45
89 5.85
90 5.11
91 15.58
92 1.48
93 0.24
94 0.17
95 0.21
96 0.21
97 0.1
102 1.81
103 3.62
104 1.61
105 1.3
106 0.67
107 0.11
113 0.37
114 0.33
115 5.19
116 2.64
117 21.34
118 37.11
119 3.84
120 0.48
121 0.15
126 0.14
127 0.75
128 1.61
129 1.72
130 17.3
131 7.77
132 5.09
133 3.32
134 0.4
140 0.26
141 0.4
142 1.07
143 2.96
144 28.07
145 5.3
146 99.99
147 14.28
148 0.8
149 0.23
157 0.83
158 2.03
159 15.75
160 4.98
161 44.47
162 6.18
163 0.46
165 0.14

>  <PREDICTED SPECTRUM>  (2760) 
26 1
27 42
28 0
37 15
38 67
39 175
40 47
41 120
42 65
43 71
44 55
50 140
51 221
52 123
53 74
54 10
58 5
59 7
62 78
63 193
64 132
65 235
66 68
67 3
74 40
75 139
76 137
77 321
78 213
79 97
80 6
84 11
86 25
87 8
89 233
90 237
91 376
92 111
93 38
101 32
102 123
103 272
104 240
105 141
106 50
115 221
116 214
117 356
118 510
119 223
120 50
127 9
128 169
129 163
130 435
131 329
132 331
133 83
134 2
142 118
143 179
144 404
145 267
146 999
147 378
148 103
157 67
158 113
159 159
160 295
161 647
162 232
163 52

$$$$

     RDKit          2D

 15 16  0  0  0  0  0  0  0  0999 V2000
    3.5756    1.6314    0.0000 C   0  0  0  0  0  0  0  0  0  0  0  0
    3.5761    3.1322    0.0000 C   0  0  0  0  0  0  0  0  0  0  0  0
    2.2761    0.8806    0.0000 C   0  0  0  0  0  0  0  0  0  0  0  0
   -4.2194    6.1258    0.0000 C   0  0  0  0  0  0  0  0  0  0  0  0
    2.2771    3.8822    0.0000 C   0  0  0  0  0  0  0  0  0  0  0  0
    0.9771    1.6306    0.0000 C   0  0  0  0  0  0  0  0  0  0  0  0
   -5.5151    5.3858    0.0000 C   0  0  0  0  0  0  0  0  0  0  0  0
   -2.9216    5.3736    0.0000 C   0  0  0  0  0  0  0  0  0  0  0  0
   -4.2204    3.1328    0.0000 C   0  0  0  0  0  0  0  0  0  0  0  0
   -0.3215    3.8814    0.0000 C   0  0  0  0  0  0  0  0  0  0  0  0
    0.9775    3.1314    0.0000 C   0  0  0  0  0  0  0  0  0  0  0  0
   -5.5181    3.8849    0.0000 C   0  0  0  0  0  0  0  0  0  0  0  0
   -2.9196    3.8814    0.0000 C   0  0  0  0  0  0  0  0  0  0  0  0
   -6.8185    3.1373    0.0000 Cl  0  0  0  0  0  0  0  0  0  0  0  0
   -1.6205    3.1314    0.0000 N   0  0  0  0  0  0  0  0  0  0  0  0
  2  1  2  0
  3  1  1  0
  5  2  1  0
  6  3  2  0
  7  4  2  0
  8  4  1  0
 11  5  2  0
 11  6  1  0
 11 10  1  0
 12  7  1  0
 12  9  2  0
 13  8  2  0
 13  9  1  0
 14 12  1  0
 15 10  1  0
 15 13  1  0
M  END
>  <NAME>  (2761) 
3-CHLORO-N-BENZYLANILINE

>  <SYNONYMS>  (2761) 


>  <SPECTRUM TYPE>  (2761) 
MS1

>  <INSTRUMENT TYPE>  (2761) 
EI-B

>  <INSTRUMENT>  (2761) 
JEOL JMS-HX-100

>  <ION MODE>  (2761) 
P

>  <INCHIKEY>  (2761) 
NQIJQQDDQDHYJK-UHFFFAOYSA-N

>  <FORMULA>  (2761) 
C13H12ClN

>  <EXACT MASS>  (2761) 
217.065827064

>  <MW>  (2761) 
217

>  <ID>  (2761) 
JP008033

>  <CONTRIBUTOR>  (2761) 
University of Tokyo Team, {Faculty of Engineering, University of Tokyo

>  <COMMENT>  (2761) 
SMILES=Clc(c2)cc(cc2)NCc(c1)cccc1
InChI=InChI=1S/C13H12ClN/c14-12-7-4-8-13(9-12)15-10-11-5-2-1-3-6-11/h1-9,15H,10H2
computed SMILES=ClC1=CC=CC(=C1)NCC=2C=CC=CC2
accession=JP008033
date=2016.01.19 (Created 2008.10.21, modified 2011.05.06)
author=HAYASHI A, FAC. OF SCIENCE AND TECHNOLOGY, KINKI UNIV.
license=CC BY-NC-SA
exact mass=217.06583
ionization energy=70 eV
ion type=[M]+*
computed spectral entropy=2.5790650352027016
computed normalized entropy=0.5992160851086736
SPLASH=splash10-014l-8290000000-0482df0a77b47fc69cca
submitter=submitter = University of Tokyo Team (Faculty of Engineering, University of Tokyo)
MoNA Rating=3.75

>  <NUM PEAKS>  (2761) 
74

>  <MASS SPECTRAL PEAKS>  (2761) 
36 0.23
37 0.05
38 0.27
39 0.76
50 0.17
51 2.19
52 0.48
62 0.57
63 2.44
64 0.99
65 6.51
69 0.06
70 0.11
71 0.16
73 0.2
74 0.26
75 3.19
78 0.94
79 0.24
83 0.62
84 0.16
85 0.48
89 2.52
90 2.51
91 99.99
92 8.95
99 1.14
101 0.18
102 0.33
103 0.15
107 0.07
108 1.62
109 0.53
111 7.04
112 1.15
113 2.37
114 0.21
115 0.22
116 0.02
125 0.16
126 0.24
127 0.86
128 0.18
129 0.23
138 3.99
139 1.11
140 9.37
141 1.16
142 2.83
143 0.29
152 1.34
153 0.8
154 0.52
155 0.22
165 0.35
166 0.17
167 0.29
177 0.17
178 0.38
179 0.36
180 2.41
181 0.93
182 0.73
183 0.28
188 0.13
190 0.06
214 5.59
215 5.02
216 17.66
217 65.96
218 15.56
219 24.03
220 3.38
221 0.27

>  <PREDICTED SPECTRUM>  (2761) 
26 5
27 29
36 20
37 0
38 33
39 166
40 27
41 78
43 42
44 55
45 4
47 2
49 14
50 100
51 171
52 68
53 2
61 2
62 65
63 188
64 94
65 364
66 73
73 57
74 63
75 135
76 75
77 123
78 55
79 27
87 2
89 180
90 129
91 999
92 266
93 58
97 2
98 27
99 117
100 32
101 42
102 15
104 92
105 9
106 89
111 89
112 21
113 75
114 32
124 33
125 149
126 190
127 162
128 136
129 32
138 26
139 55
140 146
141 72
142 55
152 60
154 31
180 124
201 6
202 43
203 7
214 137
215 113
216 382
217 817
218 406
219 487
220 180
221 14

$$$$

     RDKit          2D

 14 16  0  0  0  0  0  0  0  0999 V2000
   -3.4029   -3.7064    0.0000 C   0  0  0  0  0  0  0  0  0  0  0  0
   -4.2167   -1.7947    0.0000 C   0  0  0  0  0  0  0  0  0  0  0  0
   -1.3405   -3.4553    0.0000 C   0  0  0  0  0  0  0  0  0  0  0  0
    0.5111   -2.8687    0.0000 C   0  0  0  0  0  0  0  0  0  0  0  0
    2.1145   -2.1499    0.0000 C   0  0  0  0  0  0  0  0  0  0  0  0
   -1.3496    1.3501    0.0000 C   0  0  0  0  0  0  0  0  0  0  0  0
   -2.6486    0.6001    0.0000 C   0  0  0  0  0  0  0  0  0  0  0  0
   -0.0505   -0.8999    0.0000 C   0  0  0  0  0  0  0  0  0  0  0  0
   -1.3496   -1.6499    0.0000 C   0  0  0  0  0  0  0  0  0  0  0  0
   -0.0505    0.6001    0.0000 C   0  0  0  0  0  0  0  0  0  0  0  0
    1.9353   -0.4019    0.0000 C   0  0  0  0  0  0  0  0  0  0  0  0
   -2.6486   -0.8999    0.0000 C   0  0  0  0  0  0  0  0  0  0  0  0
    3.1709    0.4486    0.0000 O   0  0  0  0  0  0  0  0  0  0  0  0
   -5.5439   -0.3894    0.0000 O   0  0  0  0  0  0  0  0  0  0  0  0
  2  1  1  0
  3  1  1  0
  5  4  1  0
  7  2  1  0
  7  6  1  0
  8  3  1  0
  9  4  1  0
  9  8  1  0
 10  6  1  0
 10  8  1  0
 11  5  1  0
 11 10  1  0
 12  7  1  0
 12  9  1  0
 13 11  2  0
 14 12  2  0
M  END
>  <NAME>  (2762) 
TRICYCLO(5.4.1.0(3,8))DODECANE-2,6-DIONE

>  <SYNONYMS>  (2762) 


>  <SPECTRUM TYPE>  (2762) 
MS1

>  <INSTRUMENT TYPE>  (2762) 
EI-B

>  <INSTRUMENT>  (2762) 
JEOL JMS-DX-300

>  <ION MODE>  (2762) 
P

>  <INCHIKEY>  (2762) 
XIIQXOFOUYTYTF-UHFFFAOYSA-N

>  <FORMULA>  (2762) 
C12H16O2

>  <EXACT MASS>  (2762) 
192.115029752

>  <MW>  (2762) 
192

>  <ID>  (2762) 
JP008025

>  <CONTRIBUTOR>  (2762) 
University of Tokyo Team, {Faculty of Engineering, University of Tokyo

>  <COMMENT>  (2762) 
SMILES=O=C(C3)C(C1)C(C2)C(C3)C(=O)C(CC2)1
InChI=InChI=1S/C12H16O2/c13-11-5-4-9-8-3-1-2-7(12(9)14)6-10(8)11/h7-10H,1-6H2
computed SMILES=O=C1CCC2C(=O)C3CCCC2C1C3
accession=JP008025
date=2016.01.19 (Created 2008.10.21, modified 2011.05.06)
author=HISAHIRO HAGIWARA, CHEMICAL RESEARCH INSTITUTE OF NON-AQUEOUSSOLUTIONS TOHOKU UNIV.
license=CC BY-NC-SA
exact mass=192.11503
ionization energy=70 eV
ion type=[M]+*
computed spectral entropy=3.5587256255461663
computed normalized entropy=0.9243088820713118
SPLASH=splash10-004l-9600000000-25c4fbd14ea8f02e88be
submitter=submitter = University of Tokyo Team (Faculty of Engineering, University of Tokyo)
MoNA Rating=3.75

>  <NUM PEAKS>  (2762) 
47

>  <MASS SPECTRAL PEAKS>  (2762) 
31 9.99
39 38.92
41 38.8
43 8.32
53 27.13
54 12.66
55 68.78
65 1.39
66 15.64
67 33.27
68 19.24
69 9.87
77 25.27
78 8.44
79 63.25
80 3.83
81 25.7
82 16.95
83 18.13
84 8.88
91 27.19
92 13.66
93 28.24
94 35.38
95 38.86
96 24.58
97 31.41
98 8.81
104 10.18
105 16.39
107 20.36
108 1.03
109 12.29
110 14.46
112 12.1
119 8.19
120 12.17
121 25.57
122 16.39
125 99.99
135 16.95
136 12.97
145 40.16
148 13.72
163 33.83
191 87.46
192 9.87

>  <PREDICTED SPECTRUM>  (2762) 
26 84
27 295
28 102
29 136
38 65
39 413
40 214
41 558
42 212
43 176
44 71
45 25
50 136
51 294
52 255
53 507
54 453
55 556
56 177
57 160
58 75
59 52
60 37
62 31
63 125
64 49
65 311
66 400
67 737
68 523
69 257
70 151
71 99
76 14
77 412
78 319
79 831
80 559
81 769
82 470
83 389
84 257
85 55
86 43
89 9
90 0
91 457
92 367
93 492
94 553
95 672
96 476
97 203
98 94
99 105
100 78
103 38
104 117
105 293
106 233
107 502
108 444
109 331
110 399
111 220
112 125
113 45
114 65
117 115
118 169
119 272
120 262
121 503
122 511
123 318
124 243
125 43
128 3
130 19
131 103
132 177
133 130
134 116
135 487
136 508
137 304
138 217
145 142
146 200
147 167
148 327
149 345
150 373
151 173
159 41
161 17
163 187
164 677
165 257
173 68
174 211
175 113
177 114
178 7
191 88
192 999
193 390
194 90

$$$$

     RDKit          2D

 15 16  0  0  1  0  0  0  0  0999 V2000
    2.5990   -5.2500    0.0000 C   0  0  0  0  0  0  0  0  0  0  0  0
   -2.6000   -0.7500    0.0000 C   0  0  0  0  0  0  0  0  0  0  0  0
   -2.6000    0.7500    0.0000 C   0  0  0  0  0  0  0  0  0  0  0  0
   -1.3000   -1.5000    0.0000 C   0  0  0  0  0  0  0  0  0  0  0  0
   -1.3000    1.5000    0.0000 C   0  0  0  0  0  0  0  0  0  0  0  0
    2.6000   -0.7500    0.0000 C   0  0  0  0  0  0  0  0  0  0  0  0
    2.6000    0.7500    0.0000 C   0  0  0  0  0  0  0  0  0  0  0  0
    0.0000   -0.7500    0.0000 C   0  0  0  0  0  0  0  0  0  0  0  0
    0.0000    0.7500    0.0000 C   0  0  0  0  0  0  0  0  0  0  0  0
    1.3000   -1.5000    0.0000 C   0  0  0  0  0  0  0  0  0  0  0  0
    1.3000    1.5000    0.0000 C   0  0  0  0  0  0  0  0  0  0  0  0
    1.3000   -3.0000    0.0000 C   0  0  0  0  0  0  0  0  0  0  0  0
    1.3000    3.0000    0.0000 O   0  0  0  0  0  0  0  0  0  0  0  0
    0.0010   -3.7500    0.0000 O   0  0  0  0  0  0  0  0  0  0  0  0
    2.5990   -3.7500    0.0000 O   0  0  0  0  0  0  0  0  0  0  0  0
  3  2  1  0
  4  2  1  0
  5  3  1  0
  7  6  1  0
  8  4  1  6
  9  5  1  6
  9  8  1  0
 10  6  1  0
 10  8  1  0
 11  7  1  0
 11  9  1  0
 10 12  1  6
 13 11  2  0
 14 12  2  0
 15  1  1  0
 15 12  1  0
M  END
>  <NAME>  (2763) 
METHYL 3,4,4ABETA,5,6,7,8,8ABETA-OCTAHYDRONAPHTHALEN-1(2H)-OXO-4ALPHA-CARBOXYLATE

>  <SYNONYMS>  (2763) 


>  <SPECTRUM TYPE>  (2763) 
MS1

>  <INSTRUMENT TYPE>  (2763) 
EI-B

>  <INSTRUMENT>  (2763) 
JEOL JMS-DX-300

>  <ION MODE>  (2763) 
P

>  <INCHIKEY>  (2763) 
JPFUEZPXKCRLTQ-UTLUCORTSA-N

>  <FORMULA>  (2763) 
C12H18O3

>  <EXACT MASS>  (2763) 
210.12559443599997

>  <MW>  (2763) 
210

>  <ID>  (2763) 
JP008021

>  <CONTRIBUTOR>  (2763) 
University of Tokyo Team, {Faculty of Engineering, University of Tokyo

>  <COMMENT>  (2763) 
SMILES=COC(=O)C([H])(C1)C([H])(C2)C([H])(CCC2)C(=O)C1
InChI=InChI=1S/C12H18O3/c1-15-12(14)10-6-7-11(13)9-5-3-2-4-8(9)10/h8-10H,2-7H2,1H3/t8-,9+,10+/m1/s1
computed SMILES=O=C(OC)C1CCC(=O)C2CCCCC12
accession=JP008021
date=2016.01.19 (Created 2008.10.21, modified 2011.05.06)
author=HISAHIRO HAGIWARA, CHEMICAL RESEARCH INSTITUTE OF NON-AQUEOUSSOLUTIONS TOHOKU UNIV.
license=CC BY-NC-SA
exact mass=210.12559
ionization energy=70 eV
ion type=[M]+*
computed spectral entropy=3.4584594480559137
computed normalized entropy=0.9313026342114858
SPLASH=splash10-0r2c-9810000000-012fb542b363f1a6cf2f
submitter=submitter = University of Tokyo Team (Faculty of Engineering, University of Tokyo)
MoNA Rating=3.75

>  <NUM PEAKS>  (2763) 
41

>  <MASS SPECTRAL PEAKS>  (2763) 
39 25.03
40 43.32
41 45.55
42 10.11
43 15.35
44 13.44
53 18.18
55 44.24
59 14.16
67 34.51
68 10.41
77 12.31
79 23.72
80 21.25
81 44.85
83 13.59
87 13.27
91 17.45
93 10.66
94 13.12
95 30.74
96 13.76
100 90.53
101 13.82
108 11.39
109 37.59
122 10.17
124 22.77
128 99.99
129 10.03
132 12.54
133 3.66
150 27
151 23.49
154 16.52
155 41.48
168 10.07
178 18.96
179 17.17
192 12.47
210 61.8

>  <PREDICTED SPECTRUM>  (2763) 
26 63
27 277
28 36
29 149
33 21
38 9
39 385
40 163
41 570
42 191
43 190
44 11
45 74
50 63
51 185
52 151
53 458
54 339
55 601
56 134
57 103
58 3
59 268
60 34
63 80
64 32
65 299
66 353
67 722
68 394
69 327
70 140
71 243
72 13
73 168
74 223
75 68
77 418
78 247
79 757
80 580
81 889
82 426
83 377
84 187
85 160
86 49
87 462
88 52
90 4
91 540
92 291
93 562
94 586
95 674
96 310
97 125
98 196
99 270
100 612
101 259
102 23
103 35
104 2
105 268
106 197
107 543
108 523
109 669
110 285
111 299
113 259
114 54
115 61
116 35
117 109
118 25
119 78
120 45
121 411
122 676
123 641
124 467
125 176
126 91
127 173
128 299
129 153
130 140
131 136
132 504
133 595
134 338
135 158
136 151
137 40
139 246
140 248
141 438
142 461
143 330
144 69
147 1
148 44
149 214
150 999
151 670
152 202
153 245
154 337
155 181
156 42
160 132
161 10
165 18
166 110
167 328
168 106
169 102
177 161
178 564
179 480
180 110
181 113
182 369
183 50
192 323
193 79
194 17
195 74
210 927
211 396
212 120

$$$$

     RDKit          2D

 14 15  0  0  0  0  0  0  0  0999 V2000
    1.2362    2.4975    0.0000 C   0  0  0  0  0  0  0  0  0  0  0  0
    0.2720    4.1675    0.0000 C   0  0  0  0  0  0  0  0  0  0  0  0
   -4.1382   -0.9920    0.0000 C   0  0  0  0  0  0  0  0  0  0  0  0
   -5.4372    1.2580    0.0000 C   0  0  0  0  0  0  0  0  0  0  0  0
   -2.8391   -0.2420    0.0000 C   0  0  0  0  0  0  0  0  0  0  0  0
   -4.1382    2.0080    0.0000 C   0  0  0  0  0  0  0  0  0  0  0  0
   -1.5401    3.5080    0.0000 C   0  0  0  0  0  0  0  0  0  0  0  0
   -0.2410    1.2580    0.0000 C   0  0  0  0  0  0  0  0  0  0  0  0
   -5.4372   -0.2420    0.0000 C   0  0  0  0  0  0  0  0  0  0  0  0
   -0.2410    2.7580    0.0000 C   0  0  0  0  0  0  0  0  0  0  0  0
   -2.8391    1.2580    0.0000 C   0  0  0  0  0  0  0  0  0  0  0  0
   -6.7362   -0.9920    0.0000 O   0  0  0  0  0  0  0  0  0  0  0  0
   -2.8391    2.7580    0.0000 O   0  0  0  0  0  0  0  0  0  0  0  0
   -1.5401    0.5080    0.0000 O   0  0  0  0  0  0  0  0  0  0  0  0
  5  3  1  0
  6  4  1  0
  9  3  1  0
  9  4  1  0
 10  1  1  0
 10  2  1  0
 10  7  1  0
 10  8  1  0
 11  5  1  0
 11  6  1  0
 12  9  2  0
 13  7  1  0
 13 11  1  0
 14  8  1  0
 14 11  1  0
M  END
>  <NAME>  (2764) 
1,4-CYCLOHEXANDIONE MONO-2,2-DIMETHYLTRIMETHYLENE ACETAL

>  <SYNONYMS>  (2764) 


>  <SPECTRUM TYPE>  (2764) 
MS1

>  <INSTRUMENT TYPE>  (2764) 
EI-B

>  <INSTRUMENT>  (2764) 
JEOL JMS-DX-300

>  <ION MODE>  (2764) 
P

>  <INCHIKEY>  (2764) 
COKVDTKAWIFNTH-UHFFFAOYSA-N

>  <FORMULA>  (2764) 
C11H18O3

>  <EXACT MASS>  (2764) 
198.12559443599997

>  <MW>  (2764) 
198

>  <ID>  (2764) 
JP008020

>  <CONTRIBUTOR>  (2764) 
University of Tokyo Team, {Faculty of Engineering, University of Tokyo

>  <COMMENT>  (2764) 
SMILES=O=C(C2)CCC(C2)(O1)OCC(C)(C)C1
InChI=InChI=1S/C11H18O3/c1-10(2)7-13-11(14-8-10)5-3-9(12)4-6-11/h3-8H2,1-2H3
computed SMILES=O=C1CCC2(OCC(C)(C)CO2)CC1
accession=JP008020
date=2016.01.19 (Created 2008.10.21, modified 2011.05.06)
author=HISAHIRO HAGIWARA, CHEMICAL RESEARCH INSTITUTE OF NON-AQUEOUSSOLUTIONS TOHOKU UNIV.
license=CC BY-NC-SA
exact mass=198.12559
ionization energy=70 eV
ion type=[M]+*
computed spectral entropy=2.5486784095498054
computed normalized entropy=0.7568917428796397
SPLASH=splash10-052f-9400000000-9146e716b0e3bb7e4bfb
submitter=submitter = University of Tokyo Team (Faculty of Engineering, University of Tokyo)
MoNA Rating=3.75

>  <NUM PEAKS>  (2764) 
29

>  <MASS SPECTRAL PEAKS>  (2764) 
39 8.25
40 2.02
41 34.52
42 4.73
43 7.08
45 2.98
53 3.1
55 55.34
56 90.75
57 23.62
58 2.09
67 4.34
68 2.19
69 77.94
70 7.73
71 9.44
74 4.07
83 2.96
84 2.31
85 0.32
111 3.28
112 4.36
113 12.06
128 3.35
141 99.99
142 27.42
143 22.41
144 2.03
198 2.15

>  <PREDICTED SPECTRUM>  (2764) 
28 40
29 4
37 4
38 43
39 316
40 202
41 692
42 594
43 505
44 134
45 17
50 20
51 9
52 5
53 207
54 256
55 852
56 999
57 448
58 187
59 62
67 204
68 327
69 568
70 598
71 252
72 126
73 80
74 44
81 53
83 199
84 180
85 413
86 264
87 137
95 3
96 47
97 109
98 32
99 22
100 78
101 77
111 194
112 156
113 909
114 253
115 108
125 12
126 91
127 215
128 49
141 133
142 84
170 123
198 390
199 91

$$$$

     RDKit          2D

 16 16  0  0  0  0  0  0  0  0999 V2000
   -5.8011   -2.5478    0.0000 C   0  0  0  0  0  0  0  0  0  0  0  0
    4.5912    0.4522    0.0000 C   0  0  0  0  0  0  0  0  0  0  0  0
    1.0292   -3.6975    0.0000 C   0  0  0  0  0  0  0  0  0  0  0  0
    2.9577   -3.6978    0.0000 C   0  0  0  0  0  0  0  0  0  0  0  0
   -4.5021   -1.7978    0.0000 C   0  0  0  0  0  0  0  0  0  0  0  0
   -1.9040   -1.7978    0.0000 C   0  0  0  0  0  0  0  0  0  0  0  0
   -0.6049   -2.5478    0.0000 C   0  0  0  0  0  0  0  0  0  0  0  0
    1.9927    0.4530    0.0000 C   0  0  0  0  0  0  0  0  0  0  0  0
    3.2927   -1.7986    0.0000 C   0  0  0  0  0  0  0  0  0  0  0  0
    3.2922   -0.2978    0.0000 C   0  0  0  0  0  0  0  0  0  0  0  0
   -3.2030   -2.5478    0.0000 C   0  0  0  0  0  0  0  0  0  0  0  0
    0.6941   -1.7978    0.0000 C   0  0  0  0  0  0  0  0  0  0  0  0
    0.6936   -0.2970    0.0000 C   0  0  0  0  0  0  0  0  0  0  0  0
    1.9936   -2.5486    0.0000 C   0  0  0  0  0  0  0  0  0  0  0  0
   -3.2030   -4.0478    0.0000 O   0  0  0  0  0  0  0  0  0  0  0  0
   -0.6055    0.4528    0.0000 O   0  0  0  0  0  0  0  0  0  0  0  0
  5  1  2  0
  7  6  1  0
 10  2  1  0
 10  8  2  0
 10  9  1  0
 11  5  1  0
 11  6  1  0
 12  7  1  0
 13  8  1  0
 13 12  1  0
 14  3  1  0
 14  4  1  0
 14  9  1  0
 14 12  1  0
 15 11  2  0
 16 13  2  0
M  END
>  <NAME>  (2765) 
6-(3-OXO-4-PENTENYL)-3,5,5,TRIMETHYL-2-CYCLOHEXEN-1-ONE

>  <SYNONYMS>  (2765) 


>  <SPECTRUM TYPE>  (2765) 
MS1

>  <INSTRUMENT TYPE>  (2765) 
EI-B

>  <INSTRUMENT>  (2765) 
JEOL JMS-DX-300

>  <ION MODE>  (2765) 
P

>  <INCHIKEY>  (2765) 
HYRPKMBIQXSAKW-UHFFFAOYSA-N

>  <FORMULA>  (2765) 
C14H20O2

>  <EXACT MASS>  (2765) 
220.14632988

>  <MW>  (2765) 
220

>  <ID>  (2765) 
JP008019

>  <CONTRIBUTOR>  (2765) 
University of Tokyo Team, {Faculty of Engineering, University of Tokyo

>  <COMMENT>  (2765) 
SMILES=C=CC(=O)CCC(C(=O)1)C(C)(C)CC(C)=C1
InChI=InChI=1S/C14H20O2/c1-5-11(15)6-7-12-13(16)8-10(2)9-14(12,3)4/h5,8,12H,1,6-7,9H2,2-4H3
computed SMILES=O=C(C=C)CCC1C(=O)C=C(C)CC1(C)C
accession=JP008019
date=2016.01.19 (Created 2008.10.21, modified 2011.05.06)
author=HISAHIRO HAGIWARA, CHEMICAL RESEARCH INSTITUTE OF NON-AQUEOUSSOLUTIONS TOHOKU UNIV.
license=CC BY-NC-SA
exact mass=220.14633
ionization energy=70 eV
ion type=[M]+*
computed spectral entropy=3.2307606467688568
computed normalized entropy=0.8137337800631327
SPLASH=splash10-05ar-9500000000-35fb0cde09918f8f850b
submitter=submitter = University of Tokyo Team (Faculty of Engineering, University of Tokyo)
MoNA Rating=3.75

>  <NUM PEAKS>  (2765) 
53

>  <MASS SPECTRAL PEAKS>  (2765) 
31 2.16
39 29.94
40 2.48
41 41.37
43 12.73
52 3.45
53 13.64
54 1.79
55 81.03
56 5.02
57 5.76
65 7.74
66 2.78
67 13.46
68 5.57
69 1.23
70 8.47
77 14.82
78 3.48
79 10.72
80 3.23
81 10.6
82 99.99
83 39.06
84 2.39
91 14.61
92 2.33
93 0.43
94 4.58
95 18.08
96 4.44
97 2.25
105 6.98
107 8.77
108 4.96
109 10.96
110 3.47
122 2.62
123 97.57
124 8.04
135 74.7
136 10.32
137 6.07
138 15.28
150 3.12
151 11.11
165 3.97
177 5.02
191 2.69
205 27.57
206 3.3
220 6.78
221 1.35

>  <PREDICTED SPECTRUM>  (2765) 
27 5
38 20
39 235
40 115
41 494
42 123
43 269
44 68
45 15
50 78
51 176
52 141
53 344
54 210
55 691
56 206
57 54
59 5
63 40
64 68
65 163
66 80
67 417
68 244
69 330
70 91
71 100
73 14
77 251
78 111
79 265
80 148
81 482
82 528
83 416
84 53
85 34
91 202
92 79
93 174
94 144
95 401
96 137
97 73
105 104
106 19
107 244
108 159
109 260
110 182
111 17
115 37
117 68
119 3
120 33
121 13
122 161
123 999
124 463
133 36
135 611
136 179
137 283
138 263
139 101
140 20
146 34
147 4
148 30
149 73
150 81
151 143
152 75
163 16
164 9
165 63
177 144
178 18
192 30
193 25
205 391
206 149
220 236
221 102

$$$$

     RDKit          2D

 21 22  0  0  1  0  0  0  0  0999 V2000
    0.5658   -7.7665    0.0000 C   0  0  0  0  0  0  0  0  0  0  0  0
   -1.8755   -6.8776    0.0000 C   0  0  0  0  0  0  0  0  0  0  0  0
    3.8989    1.5002    0.0000 C   0  0  0  0  0  0  0  0  0  0  0  0
   -2.2641   -2.6492    0.0000 C   0  0  0  0  0  0  0  0  0  0  0  0
   -0.8491   -4.0587    0.0000 C   0  0  0  0  0  0  0  0  0  0  0  0
   -2.6000    0.7500    0.0000 C   0  0  0  0  0  0  0  0  0  0  0  0
    0.1149   -5.2078    0.0000 C   0  0  0  0  0  0  0  0  0  0  0  0
    2.6000   -0.7500    0.0000 C   0  0  0  0  0  0  0  0  0  0  0  0
    1.3000   -1.5000    0.0000 C   0  0  0  0  0  0  0  0  0  0  0  0
   -0.3359   -2.6492    0.0000 C   0  0  0  0  0  0  0  0  0  0  0  0
   -2.6000   -0.7500    0.0000 C   0  0  0  0  0  0  0  0  0  0  0  0
   -1.3000    1.5000    0.0000 C   0  0  0  0  0  0  0  0  0  0  0  0
    0.0000    2.2500    0.0000 C   0  0  0  0  0  0  0  0  0  0  0  0
   -0.3982   -6.6173    0.0000 C   0  0  0  0  0  0  0  0  0  0  0  0
    2.6000    0.7500    0.0000 C   0  0  0  0  0  0  0  0  0  0  0  0
    0.0000   -0.7500    0.0000 C   0  0  0  0  0  0  0  0  0  0  0  0
    1.3000    1.5000    0.0000 C   0  0  0  0  0  0  0  0  0  0  0  0
   -1.3000   -1.5000    0.0000 C   0  0  0  0  0  0  0  0  0  0  0  0
    0.0000    0.7500    0.0000 C   0  0  0  0  0  0  0  0  0  0  0  0
   -1.2990    3.0000    0.0000 O   0  0  0  0  0  0  0  0  0  0  0  0
    1.3000    3.0000    0.0000 O   0  0  0  0  0  0  0  0  0  0  0  0
  7  5  1  0
  9  8  1  0
 10  5  1  0
 11  6  1  0
 12  6  1  0
 14  1  1  0
 14  2  1  0
 14  7  2  0
 15  3  1  0
 15  8  1  0
 16  9  1  1
 17 15  1  0
 18  4  1  1
 18 10  1  0
 18 11  1  0
 18 16  1  0
 19 12  1  0
 19 13  1  1
 19 16  1  0
 19 17  1  0
 20 13  2  0
 21 17  2  0
M  END
>  <NAME>  (2766) 
(2XI,4AS,5S,8AS)-(-)-2,5BETA-DIMETHYL-8ABETA-FORMYL-5ALPHA-(4-METHYL-3-PENTENYL)-3,4,4A,5,6,7,8,8A-OCTAHYDRONAPHTHALEN-1(2H)-ONE

>  <SYNONYMS>  (2766) 


>  <SPECTRUM TYPE>  (2766) 
MS1

>  <INSTRUMENT TYPE>  (2766) 
EI-B

>  <INSTRUMENT>  (2766) 
JEOL JMS-DX-300

>  <ION MODE>  (2766) 
P

>  <INCHIKEY>  (2766) 
QPBPFGSCXQOAFN-KHBMUKGWSA-N

>  <FORMULA>  (2766) 
C19H30O2

>  <EXACT MASS>  (2766) 
290.2245802

>  <MW>  (2766) 
290

>  <ID>  (2766) 
JP008018

>  <CONTRIBUTOR>  (2766) 
University of Tokyo Team, {Faculty of Engineering, University of Tokyo

>  <COMMENT>  (2766) 
SMILES=CC(C)=CCCC(C)(C2)C([H])(C1)C(C=O)(CC2)C(=O)C(C)C1
InChI=InChI=1S/C19H30O2/c1-14(2)7-5-10-18(4)11-6-12-19(13-20)16(18)9-8-15(3)17(19)21/h7,13,15-16H,5-6,8-12H2,1-4H3/t15?,16-,18+,19+/m0/s1
computed SMILES=O=CC12C(=O)C(C)CCC1C(C)(CCC=C(C)C)CCC2
accession=JP008018
date=2016.01.19 (Created 2008.10.21, modified 2011.05.06)
author=HISAHIRO HAGIWARA, CHEMICAL RESEARCH INSTITUTE OF NON-AQUEOUSSOLUTIONS TOHOKU UNIV.
license=CC BY-NC-SA
exact mass=290.22458
ionization energy=70 eV
ion type=[M]+*
computed spectral entropy=3.6588760536006566
computed normalized entropy=0.9401451694408763
SPLASH=splash10-05mp-7910000000-37a6e972442c0476b777
submitter=submitter = University of Tokyo Team (Faculty of Engineering, University of Tokyo)
MoNA Rating=3.75

>  <NUM PEAKS>  (2766) 
49

>  <MASS SPECTRAL PEAKS>  (2766) 
40 99.99
43 35.15
44 26.01
55 29.89
57 39.23
69 54.19
70 26.56
71 29.57
81 33.75
82 17.9
83 31.26
88 2.37
93 15.87
95 24.05
96 14.35
97 1.61
101 12.73
105 15.74
107 16.44
109 26.56
110 11.52
111 11.56
112 14.38
113 15.77
119 10.55
121 27.46
122 12.07
123 15.73
125 14.01
133 11.5
135 21.02
136 10.99
137 12.68
148 12.14
149 96.73
150 14.33
159 11.57
161 21.29
163 13.36
167 41.59
177 19.94
178 46.23
179 23.88
189 10.18
207 23.96
261 19.09
262 16.57
279 19.96
290 20.68

>  <PREDICTED SPECTRUM>  (2766) 
26 47
27 265
28 127
29 268
30 38
31 32
38 7
39 376
40 191
41 999
42 284
43 731
44 154
45 117
46 2
50 59
51 160
52 109
53 454
54 240
55 862
56 226
57 255
58 93
59 113
60 15
63 18
64 22
65 232
66 157
67 641
68 289
69 936
70 260
71 140
72 71
73 71
75 19
77 287
78 136
79 365
80 222
81 743
82 387
83 444
84 262
85 195
86 98
87 65
91 296
92 96
93 323
94 141
95 494
96 178
97 264
98 202
99 241
100 45
101 61
103 30
105 203
106 138
107 294
108 241
109 568
110 199
111 218
112 140
113 100
114 89
115 220
116 71
117 139
118 11
119 144
120 39
121 224
122 140
123 304
124 170
125 178
126 73
127 73
129 47
130 1
131 204
132 83
133 243
134 183
135 372
136 312
137 431
138 211
139 209
140 109
141 55
142 40
143 16
145 64
146 24
147 160
148 123
149 305
150 202
151 295
152 160
153 203
154 136
155 105
156 19
157 53
158 20
159 216
160 67
161 251
162 122
163 275
164 133
165 304
166 219
167 87
171 40
173 126
174 22
175 266
176 165
177 391
178 184
179 153
180 62
187 125
188 48
189 196
190 39
191 199
192 44
193 373
194 44
201 104
202 60
203 183
204 77
205 233
206 177
207 149
208 118
209 19
215 44
216 70
217 105
218 35
219 152
220 21
221 64
222 70
229 132
230 10
231 114
234 24
243 169
244 92
245 7
246 15
247 136
257 76
258 28
259 44
261 375
262 311
263 47
272 51
275 128
276 11
290 190
291 69

$$$$

     RDKit          2D

 24 25  0  0  1  0  0  0  0  0999 V2000
    0.5658   -7.7665    0.0000 C   0  0  0  0  0  0  0  0  0  0  0  0
   -1.8755   -6.8776    0.0000 C   0  0  0  0  0  0  0  0  0  0  0  0
    3.8989    1.5002    0.0000 C   0  0  0  0  0  0  0  0  0  0  0  0
   -2.2641   -2.6492    0.0000 C   0  0  0  0  0  0  0  0  0  0  0  0
   -2.5981    6.7500    0.0000 C   0  0  0  0  0  0  0  0  0  0  0  0
   -0.8491   -4.0587    0.0000 C   0  0  0  0  0  0  0  0  0  0  0  0
   -2.6000    0.7500    0.0000 C   0  0  0  0  0  0  0  0  0  0  0  0
    0.1149   -5.2078    0.0000 C   0  0  0  0  0  0  0  0  0  0  0  0
    2.6000   -0.7500    0.0000 C   0  0  0  0  0  0  0  0  0  0  0  0
    1.3000   -1.5000    0.0000 C   0  0  0  0  0  0  0  0  0  0  0  0
   -0.3359   -2.6492    0.0000 C   0  0  0  0  0  0  0  0  0  0  0  0
   -2.6000   -0.7500    0.0000 C   0  0  0  0  0  0  0  0  0  0  0  0
   -1.3000    1.5000    0.0000 C   0  0  0  0  0  0  0  0  0  0  0  0
    0.0000    2.2500    0.0000 C   0  0  0  0  0  0  0  0  0  0  0  0
   -1.2990    4.5000    0.0000 C   0  0  0  0  0  0  0  0  0  0  0  0
   -0.3982   -6.6173    0.0000 C   0  0  0  0  0  0  0  0  0  0  0  0
    2.6000    0.7500    0.0000 C   0  0  0  0  0  0  0  0  0  0  0  0
    0.0000   -0.7500    0.0000 C   0  0  0  0  0  0  0  0  0  0  0  0
    1.3000    1.5000    0.0000 C   0  0  0  0  0  0  0  0  0  0  0  0
   -1.3000   -1.5000    0.0000 C   0  0  0  0  0  0  0  0  0  0  0  0
    0.0000    0.7500    0.0000 C   0  0  0  0  0  0  0  0  0  0  0  0
    1.3000    3.0000    0.0000 O   0  0  0  0  0  0  0  0  0  0  0  0
   -2.5981    5.2500    0.0000 O   0  0  0  0  0  0  0  0  0  0  0  0
   -1.2990    3.0000    0.0000 O   0  0  0  0  0  0  0  0  0  0  0  0
  8  6  1  0
 10  9  1  0
 11  6  1  0
 12  7  1  0
 13  7  1  0
 16  1  1  0
 16  2  1  0
 16  8  2  0
 17  3  1  0
 17  9  1  0
 18 10  1  1
 19 17  1  0
 20  4  1  1
 20 11  1  0
 20 12  1  0
 20 18  1  0
 21 13  1  0
 21 14  1  1
 21 18  1  0
 21 19  1  0
 22 19  2  0
 23  5  1  0
 23 15  1  0
 24 14  1  0
 24 15  1  0
M  END
>  <NAME>  (2767) 
(2XI,4AS,5S 8AS)-(+)-2,5BETA-DIMETHYL-8ABETA-METHOXYMETHOXYMETHYL-5ALPAH-(4-METHYL-3-PENTENYL)-3,4,4A,5,6,7,8,8A-OCTAHYDRONAPHTHALEN-1(2H)-ONE

>  <SYNONYMS>  (2767) 


>  <SPECTRUM TYPE>  (2767) 
MS1

>  <INSTRUMENT TYPE>  (2767) 
EI-B

>  <INSTRUMENT>  (2767) 
JEOL JMS-DX-300

>  <ION MODE>  (2767) 
P

>  <INCHIKEY>  (2767) 
AHDSEBVMDMJCBB-LSMWDBJESA-N

>  <FORMULA>  (2767) 
C21H36O3

>  <EXACT MASS>  (2767) 
336.26644501199996

>  <MW>  (2767) 
336

>  <ID>  (2767) 
JP008017

>  <CONTRIBUTOR>  (2767) 
University of Tokyo Team, {Faculty of Engineering, University of Tokyo

>  <COMMENT>  (2767) 
SMILES=COCOCC(C1)(C(=O)2)C([H])(CCC(C)2)C(C)(CCC=C(C)C)CC1
InChI=InChI=1S/C21H36O3/c1-16(2)8-6-11-20(4)12-7-13-21(14-24-15-23-5)18(20)10-9-17(3)19(21)22/h8,17-18H,6-7,9-15H2,1-5H3/t17?,18-,20+,21+/m0/s1
computed SMILES=O=C1C(C)CCC2C1(COCOC)CCCC2(C)CCC=C(C)C
accession=JP008017
date=2016.01.19 (Created 2008.10.21, modified 2011.05.06)
author=HISAHIRO HAGIWARA, CHEMICAL RESEARCH INSTITUTE OF NON-AQUEOUSSOLUTIONS TOHOKU UNIV.
license=CC BY-NC-SA
exact mass=336.26645
ionization energy=70 eV
ion type=[M]+*
computed spectral entropy=3.8084284979264575
computed normalized entropy=0.9735189421539839
SPLASH=splash10-05vn-8920000000-75613bec16bed111c32e
submitter=submitter = University of Tokyo Team (Faculty of Engineering, University of Tokyo)
MoNA Rating=3.75

>  <NUM PEAKS>  (2767) 
50

>  <MASS SPECTRAL PEAKS>  (2767) 
41 63.71
43 30.81
45 89.32
55 54.94
56 21.48
67 45.29
68 30.34
69 87.62
79 39.41
80 23.95
81 67.21
82 52.89
83 43.79
91 26.33
93 61.98
94 38.97
95 65.58
96 48.77
97 29.48
105 29.12
106 20.46
107 58.08
108 39.73
109 59.62
119 26.7
120 20.41
121 47.54
122 38.06
123 35.48
133 26.67
135 46.91
136 39.12
137 45.3
147 23.88
149 47.87
151 2.08
161 28.35
163 35.04
176 91.3
178 61.41
179 46.06
191 42.42
193 38.8
209 85.58
222 99.99
254 27.28
261 40.91
291 47.06
306 39.14
336 22.85

>  <PREDICTED SPECTRUM>  (2767) 
26 12
27 119
28 64
29 209
31 110
33 43
39 214
40 95
41 726
42 181
43 462
44 217
45 999
46 207
47 111
50 32
51 124
52 111
53 357
54 153
55 698
56 193
57 275
58 145
59 144
60 7
61 24
63 47
64 5
65 182
66 158
67 718
68 306
69 704
70 211
71 305
72 88
73 111
74 34
75 72
77 255
78 140
79 411
80 267
81 839
82 442
83 315
84 169
85 236
86 126
87 134
88 17
89 38
91 264
92 68
93 522
94 223
95 800
96 217
97 340
98 93
99 139
100 65
101 64
102 10
103 36
104 29
105 250
106 148
107 497
108 498
109 860
110 229
111 168
112 121
113 220
114 89
115 88
116 47
117 143
118 19
119 162
120 88
121 390
122 243
123 351
124 111
125 181
126 126
127 147
128 33
129 78
130 29
131 160
132 97
133 188
134 128
135 595
136 286
137 252
138 102
139 105
140 7
141 78
142 29
143 5
144 2
145 104
147 168
148 80
149 377
150 342
151 347
152 110
153 14
155 47
159 59
161 208
162 279
163 301
164 192
165 133
166 64
167 184
169 47
173 226
174 118
175 460
176 311
177 370
178 280
179 170
180 125
181 197
182 69
185 88
186 31
187 164
188 106
189 279
190 183
191 321
192 187
193 165
194 62
195 83
201 55
202 118
203 45
204 19
205 276
206 92
207 220
208 108
209 66
211 20
214 26
215 22
216 54
217 90
218 26
219 224
220 156
221 110
222 45
223 116
229 184
230 16
231 150
232 162
233 164
234 0
235 57
245 99
246 56
247 63
250 85
252 17
254 21
257 139
258 54
259 241
260 167
261 142
262 112
263 21
272 54
273 223
274 309
275 405
276 109
287 68
288 32
289 17
290 52
291 81
304 97
305 37
336 33
337 84
338 7

$$$$

     RDKit          2D

 20 21  0  0  1  0  0  0  0  0999 V2000
    0.5658   -7.7665    0.0000 C   0  0  0  0  0  0  0  0  0  0  0  0
   -1.8755   -6.8776    0.0000 C   0  0  0  0  0  0  0  0  0  0  0  0
   -2.2641   -2.6492    0.0000 C   0  0  0  0  0  0  0  0  0  0  0  0
    2.6000   -0.7500    0.0000 C   0  0  0  0  0  0  0  0  0  0  0  0
   -0.8491   -4.0587    0.0000 C   0  0  0  0  0  0  0  0  0  0  0  0
   -2.6000    0.7500    0.0000 C   0  0  0  0  0  0  0  0  0  0  0  0
    0.1149   -5.2078    0.0000 C   0  0  0  0  0  0  0  0  0  0  0  0
    1.3000   -1.5000    0.0000 C   0  0  0  0  0  0  0  0  0  0  0  0
    2.6000    0.7500    0.0000 C   0  0  0  0  0  0  0  0  0  0  0  0
   -0.3359   -2.6492    0.0000 C   0  0  0  0  0  0  0  0  0  0  0  0
   -2.6000   -0.7500    0.0000 C   0  0  0  0  0  0  0  0  0  0  0  0
   -1.3000    1.5000    0.0000 C   0  0  0  0  0  0  0  0  0  0  0  0
    0.0000    2.2500    0.0000 C   0  0  0  0  0  0  0  0  0  0  0  0
   -0.3982   -6.6173    0.0000 C   0  0  0  0  0  0  0  0  0  0  0  0
    0.0000   -0.7500    0.0000 C   0  0  0  0  0  0  0  0  0  0  0  0
    1.3000    1.5000    0.0000 C   0  0  0  0  0  0  0  0  0  0  0  0
   -1.3000   -1.5000    0.0000 C   0  0  0  0  0  0  0  0  0  0  0  0
    0.0000    0.7500    0.0000 C   0  0  0  0  0  0  0  0  0  0  0  0
   -1.2990    3.0000    0.0000 O   0  0  0  0  0  0  0  0  0  0  0  0
    1.3000    3.0000    0.0000 O   0  0  0  0  0  0  0  0  0  0  0  0
  7  5  1  0
  8  4  1  0
  9  4  1  0
 10  5  1  0
 11  6  1  0
 12  6  1  0
 14  1  1  0
 14  2  1  0
 14  7  2  0
 15  8  1  1
 16  9  1  0
 17  3  1  1
 17 10  1  0
 17 11  1  0
 17 15  1  0
 18 12  1  0
 18 13  1  1
 18 15  1  0
 18 16  1  0
 19 13  2  0
 20 16  2  0
M  END
>  <NAME>  (2768) 
(4AS,5S,8AS)-8ABETA-FORMYL-5BETA-METHYL-5ALPHA-(4-METHYL-3-PENTENYL)-3,4,4A,5,6,7,8,8A-OCTAHYDRONAPHTHALEN-1(2H)-ONE

>  <SYNONYMS>  (2768) 


>  <SPECTRUM TYPE>  (2768) 
MS1

>  <INSTRUMENT TYPE>  (2768) 
EI-B

>  <INSTRUMENT>  (2768) 
JEOL JMS-DX-300

>  <ION MODE>  (2768) 
P

>  <INCHIKEY>  (2768) 
CWBJWMNSYTUYMG-CGTJXYLNSA-N

>  <FORMULA>  (2768) 
C18H28O2

>  <EXACT MASS>  (2768) 
276.208930136

>  <MW>  (2768) 
276

>  <ID>  (2768) 
JP008016

>  <CONTRIBUTOR>  (2768) 
University of Tokyo Team, {Faculty of Engineering, University of Tokyo

>  <COMMENT>  (2768) 
SMILES=CC(C)=CCCC(C)(C2)C([H])(C1)C(C=O)(CC2)C(=O)CC1
InChI=InChI=1S/C18H28O2/c1-14(2)7-5-10-17(3)11-6-12-18(13-19)15(17)8-4-9-16(18)20/h7,13,15H,4-6,8-12H2,1-3H3/t15-,17+,18+/m0/s1
computed SMILES=O=CC12C(=O)CCCC1C(C)(CCC=C(C)C)CCC2
accession=JP008016
date=2016.01.19 (Created 2008.10.21, modified 2011.05.06)
author=HISAHIRO HAGIWARA, CHEMICAL RESEARCH INSTITUTE OF NON-AQUEOUSSOLUTIONS TOHOKU UNIV.
license=CC BY-NC-SA
exact mass=276.20893
ionization energy=70 eV
ion type=[M]+*
computed spectral entropy=2.912520632499482
computed normalized entropy=0.8563221435493819
SPLASH=splash10-0006-9300000000-a8e278e21815ea365a76
submitter=submitter = University of Tokyo Team (Faculty of Engineering, University of Tokyo)
MoNA Rating=3.75

>  <NUM PEAKS>  (2768) 
30

>  <MASS SPECTRAL PEAKS>  (2768) 
34 9.15
40 99.99
41 29.48
43 7.45
44 32.52
55 14.06
67 7.79
69 18.33
81 10.44
82 7.39
83 7.79
93 7.04
95 8.09
96 5.52
105 5.08
107 6.42
109 7.06
110 6.31
111 7.44
121 7.41
123 5.23
135 6.42
136 5.58
137 0.56
148 8.78
149 7.64
164 19.43
193 6.81
248 5.08
276 10.95

>  <PREDICTED SPECTRUM>  (2768) 
17 9
18 23
26 90
27 354
28 166
29 357
30 46
31 89
33 4
34 17
37 14
38 67
39 494
40 244
41 999
42 417
43 802
44 214
45 170
46 29
47 30
49 0
50 109
51 239
52 177
53 534
54 331
55 954
56 274
57 381
58 86
59 169
60 53
61 3
62 16
63 89
64 61
65 292
66 207
67 685
68 322
69 799
70 336
71 303
72 99
73 114
74 61
75 34
76 35
77 396
78 186
79 511
80 283
81 790
82 527
83 624
84 393
85 200
86 73
87 72
88 23
89 26
90 1
91 397
92 172
93 469
94 261
95 524
96 218
97 293
98 191
99 463
100 183
101 92
102 28
103 116
104 96
105 295
106 151
107 375
108 306
109 533
110 190
111 393
112 265
113 169
114 4
115 100
116 8
117 124
118 79
119 317
120 178
121 348
122 246
123 402
124 234
125 281
126 109
127 169
128 79
129 110
130 1
131 131
132 50
133 267
134 179
135 368
136 288
137 442
138 279
139 280
140 274
141 180
142 68
143 127
144 47
145 221
146 103
147 268
148 139
149 295
150 198
151 303
152 203
153 142
157 52
158 16
159 166
160 68
161 288
162 128
163 253
164 146
165 171
166 128
167 20
168 17
169 43
170 24
171 35
173 159
174 49
175 208
176 135
177 357
178 160
179 278
180 97
185 71
187 188
188 54
189 227
190 81
191 133
192 236
193 161
194 160
195 157
196 27
197 22
199 5
200 13
201 164
202 111
203 144
204 21
205 200
206 37
207 64
208 41
214 15
215 229
216 32
217 127
218 37
219 79
220 138
221 35
229 160
230 102
231 39
232 46
233 200
234 12
243 142
244 31
245 29
247 231
248 264
249 98
258 141
259 19
260 32
261 127
262 9
276 259
277 95

$$$$

     RDKit          2D

 26 28  0  0  1  0  0  0  0  0999 V2000
   -6.9851    5.1158    0.0000 C   0  0  0  0  0  0  0  0  0  0  0  0
   -4.9949    6.7858    0.0000 C   0  0  0  0  0  0  0  0  0  0  0  0
   -1.1382    5.0086    0.0000 C   0  0  0  0  0  0  0  0  0  0  0  0
    8.0005    0.1191    0.0000 C   0  0  0  0  0  0  0  0  0  0  0  0
   -3.0665    4.4877    0.0000 C   0  0  0  0  0  0  0  0  0  0  0  0
   -1.9242   -0.1509    0.0000 C   0  0  0  0  0  0  0  0  0  0  0  0
    1.9729    3.5991    0.0000 C   0  0  0  0  0  0  0  0  0  0  0  0
   -4.5438    4.2272    0.0000 C   0  0  0  0  0  0  0  0  0  0  0  0
   -1.9242    1.3491    0.0000 C   0  0  0  0  0  0  0  0  0  0  0  0
   -2.1024    3.3386    0.0000 C   0  0  0  0  0  0  0  0  0  0  0  0
    0.6739    4.3491    0.0000 C   0  0  0  0  0  0  0  0  0  0  0  0
    1.9729    2.0991    0.0000 C   0  0  0  0  0  0  0  0  0  0  0  0
   -0.6252   -0.9009    0.0000 C   0  0  0  0  0  0  0  0  0  0  0  0
    2.2979   -1.9546    0.0000 C   0  0  0  0  0  0  0  0  0  0  0  0
    3.0479   -0.6555    0.0000 C   0  0  0  0  0  0  0  0  0  0  0  0
    2.8043    0.1191    0.0000 C   0  0  0  0  0  0  0  0  0  0  0  0
    5.4024    0.1191    0.0000 C   0  0  0  0  0  0  0  0  0  0  0  0
   -5.5079    5.3763    0.0000 C   0  0  0  0  0  0  0  0  0  0  0  0
   -0.6252    2.0991    0.0000 C   0  0  0  0  0  0  0  0  0  0  0  0
   -0.6252    3.5991    0.0000 C   0  0  0  0  0  0  0  0  0  0  0  0
    0.6739    1.3491    0.0000 C   0  0  0  0  0  0  0  0  0  0  0  0
    0.6739   -0.1509    0.0000 C   0  0  0  0  0  0  0  0  0  0  0  0
    6.7014    0.8691    0.0000 O   0  0  0  0  0  0  0  0  0  0  0  0
    4.1033    0.8691    0.0000 O   0  0  0  0  0  0  0  0  0  0  0  0
    0.8307   -1.6427    0.0000 O   0  0  0  0  0  0  0  0  0  0  0  0
    2.0442    0.4592    0.0000 O   0  0  0  0  0  0  0  0  0  0  0  0
  8  5  1  0
  9  6  1  0
 10  5  1  0
 11  7  1  0
 12  7  1  0
 13  6  1  0
 15 14  1  0
 18  1  1  0
 18  2  1  0
 18  8  2  0
 19  9  1  1
 20  3  1  1
 20 10  1  0
 20 11  1  0
 20 19  1  0
 21 12  1  0
 21 16  1  1
 21 19  1  0
 22 13  1  0
 22 21  1  0
 23  4  1  0
 23 17  1  0
 24 16  1  0
 24 17  1  0
 25 14  1  0
 25 22  1  0
 26 15  1  0
 26 22  1  0
M  END
>  <NAME>  (2769) 
(4AS,5S,8AS)-(-)-8ABETA-METHOXYMETHOXYMETHYL-5BETA-METHYL-5ALPHA-(4-METHYL-3-PENTENYL)-3,4,4A,5,6,7,8,8A-OCTAHYDRONAPHTHALEN-1(2H)-ONE 1-ETHYLENE ACETAL

>  <SYNONYMS>  (2769) 


>  <SPECTRUM TYPE>  (2769) 
MS1

>  <INSTRUMENT TYPE>  (2769) 
EI-B

>  <INSTRUMENT>  (2769) 
JEOL JMS-DX-300

>  <ION MODE>  (2769) 
P

>  <INCHIKEY>  (2769) 
TXPPLIRRCBCMHO-PWRODBHTSA-N

>  <FORMULA>  (2769) 
C22H38O4

>  <EXACT MASS>  (2769) 
366.277009696

>  <MW>  (2769) 
366

>  <ID>  (2769) 
JP008014

>  <CONTRIBUTOR>  (2769) 
University of Tokyo Team, {Faculty of Engineering, University of Tokyo

>  <COMMENT>  (2769) 
SMILES=COCOCC(C1)(C(O3)(OCC3)2)C([H])(CCC2)C(C)(CCC=C(C)C)CC1
InChI=InChI=1S/C22H38O4/c1-18(2)8-5-10-20(3)11-7-12-21(16-24-17-23-4)19(20)9-6-13-22(21)25-14-15-26-22/h8,19H,5-7,9-17H2,1-4H3/t19-,20+,21+/m0/s1
computed SMILES=O(C)COCC12CCCC(C)(CCC=C(C)C)C2CCCC31OCCO3
accession=JP008014
date=2016.01.19 (Created 2008.10.21, modified 2011.05.06)
author=HISAHIRO HAGIWARA, CHEMICAL RESEARCH INSTITUTE OF NON-AQUEOUSSOLUTIONS TOHOKU UNIV.
license=CC BY-NC-SA
exact mass=366.27701
ionization energy=70 eV
ion type=[M]+*
computed spectral entropy=3.1571254994100277
computed normalized entropy=0.867917723671871
SPLASH=splash10-00kb-9202000000-25520ca550b2f04b6cd0
submitter=submitter = University of Tokyo Team (Faculty of Engineering, University of Tokyo)
MoNA Rating=3.75

>  <NUM PEAKS>  (2769) 
38

>  <MASS SPECTRAL PEAKS>  (2769) 
40 8.75
41 17.38
44 8.45
45 44.04
55 21.09
67 8.88
69 23.77
71 5.04
73 14.42
79 7.11
81 10.71
83 5.91
86 27.72
87 18.65
91 5.1
93 0.08
95 9.91
99 99.99
100 10.63
107 6.72
109 6.88
112 6.64
113 10.06
114 8.25
121 5.65
128 5.53
133 5.66
135 0.65
147 5.36
149 7.77
161 6.59
162 8.21
221 5.88
223 6.68
305 7.7
321 9.55
366 57.97
367 24.14

>  <PREDICTED SPECTRUM>  (2769) 
26 34
27 110
28 8
29 104
31 31
33 9
38 7
39 159
40 116
41 347
42 218
43 322
44 138
45 465
46 68
47 15
50 33
51 64
52 77
53 195
54 125
55 358
56 131
57 208
58 125
59 188
60 84
61 93
63 39
64 13
65 130
66 105
67 245
68 153
69 257
70 146
71 253
72 97
73 85
74 66
75 59
76 36
77 189
78 110
79 203
80 167
81 322
82 189
83 119
84 41
85 95
86 282
87 427
88 35
89 65
91 165
92 96
93 265
94 132
95 284
96 131
97 130
98 75
99 999
100 424
101 120
102 44
103 44
104 13
105 108
106 73
107 156
108 139
109 164
110 59
111 141
112 130
113 194
114 97
115 124
116 42
117 60
118 1
119 115
120 55
121 234
122 99
123 212
124 94
125 337
126 219
127 204
128 116
129 138
130 45
131 91
133 46
134 47
135 112
136 91
137 99
138 104
139 171
140 150
141 232
142 205
143 131
144 77
145 72
147 68
148 51
149 108
150 40
151 140
152 110
153 162
154 154
155 136
156 101
157 170
158 36
159 56
161 78
162 83
163 113
164 51
165 82
166 28
167 105
168 91
169 177
170 73
171 101
172 24
173 35
174 24
175 84
177 65
178 17
179 57
180 104
181 204
182 94
183 107
184 74
185 101
186 43
187 105
188 48
189 71
190 42
191 80
192 82
193 70
194 2
195 46
197 87
198 43
199 90
201 70
203 118
204 29
205 62
206 53
207 67
208 42
209 88
210 51
211 95
212 16
213 102
215 94
216 64
217 59
218 54
219 59
220 33
221 99
222 79
223 84
224 37
225 33
229 37
230 9
231 123
232 45
233 67
235 61
236 53
237 41
238 9
239 14
240 5
241 25
243 1
244 19
246 46
247 59
249 80
250 75
251 24
252 34
257 58
259 12
261 35
262 125
263 14
267 67
271 11
272 6
273 70
274 50
275 54
276 3
278 24
280 56
281 3
284 9
286 26
287 32
289 37
290 36
301 13
304 189
321 45
322 40
323 35
324 13
337 17
338 54
351 28
352 14
365 19
366 248
367 93
368 9

$$$$

     RDKit          2D

 24 26  0  0  1  0  0  0  0  0999 V2000
   -1.6357    4.7213    0.0000 C   0  0  0  0  0  0  0  0  0  0  0  0
    7.5029   -0.1682    0.0000 C   0  0  0  0  0  0  0  0  0  0  0  0
   -2.4217   -0.4382    0.0000 C   0  0  0  0  0  0  0  0  0  0  0  0
    1.4754    3.3118    0.0000 C   0  0  0  0  0  0  0  0  0  0  0  0
   -3.5641    4.2004    0.0000 C   0  0  0  0  0  0  0  0  0  0  0  0
   -2.4217    1.0618    0.0000 C   0  0  0  0  0  0  0  0  0  0  0  0
    0.1763    4.0618    0.0000 C   0  0  0  0  0  0  0  0  0  0  0  0
   -2.5999    3.0513    0.0000 C   0  0  0  0  0  0  0  0  0  0  0  0
    1.4754    1.8118    0.0000 C   0  0  0  0  0  0  0  0  0  0  0  0
   -1.1227   -1.1882    0.0000 C   0  0  0  0  0  0  0  0  0  0  0  0
   -5.0413    3.9399    0.0000 C   0  0  0  0  0  0  0  0  0  0  0  0
    1.8003   -2.2418    0.0000 C   0  0  0  0  0  0  0  0  0  0  0  0
    2.5503   -0.9428    0.0000 C   0  0  0  0  0  0  0  0  0  0  0  0
    2.3068   -0.1682    0.0000 C   0  0  0  0  0  0  0  0  0  0  0  0
    4.9048   -0.1682    0.0000 C   0  0  0  0  0  0  0  0  0  0  0  0
   -1.1227    1.8118    0.0000 C   0  0  0  0  0  0  0  0  0  0  0  0
   -1.1227    3.3118    0.0000 C   0  0  0  0  0  0  0  0  0  0  0  0
    0.1763    1.0618    0.0000 C   0  0  0  0  0  0  0  0  0  0  0  0
    0.1763   -0.4382    0.0000 C   0  0  0  0  0  0  0  0  0  0  0  0
   -6.0055    5.0890    0.0000 O   0  0  0  0  0  0  0  0  0  0  0  0
    6.2039    0.5818    0.0000 O   0  0  0  0  0  0  0  0  0  0  0  0
    3.6058    0.5818    0.0000 O   0  0  0  0  0  0  0  0  0  0  0  0
    0.3331   -1.9300    0.0000 O   0  0  0  0  0  0  0  0  0  0  0  0
    1.5466    0.1719    0.0000 O   0  0  0  0  0  0  0  0  0  0  0  0
  6  3  1  0
  7  4  1  0
  8  5  1  0
  9  4  1  0
 10  3  1  0
 11  5  1  0
 13 12  1  0
 16  6  1  1
 17  1  1  1
 17  7  1  0
 17  8  1  0
 17 16  1  0
 18  9  1  0
 18 14  1  1
 18 16  1  0
 19 10  1  0
 19 18  1  0
 20 11  2  0
 21  2  1  0
 21 15  1  0
 22 14  1  0
 22 15  1  0
 23 12  1  0
 23 19  1  0
 24 13  1  0
 24 19  1  0
M  END
>  <NAME>  (2770) 
(4AS,5S,8AS)-8ABETA-METHOXYMETHOXYMETHYL-5BETA-METHYL-5ALPHA-(3-OXOPROPYL)-3,4,4A,5,6,7,8,8A-OCTAHYDRONAPHTHALEN-1(2H)-ONE 1-ETHYLENE ACETAL

>  <SYNONYMS>  (2770) 


>  <SPECTRUM TYPE>  (2770) 
MS1

>  <INSTRUMENT TYPE>  (2770) 
EI-B

>  <INSTRUMENT>  (2770) 
JEOL JMS-DX-300

>  <ION MODE>  (2770) 
P

>  <INCHIKEY>  (2770) 
PHAHWBNBFFHHAV-OKZBNKHCSA-N

>  <FORMULA>  (2770) 
C19H32O5

>  <EXACT MASS>  (2770) 
340.224974124

>  <MW>  (2770) 
340

>  <ID>  (2770) 
JP008013

>  <CONTRIBUTOR>  (2770) 
University of Tokyo Team, {Faculty of Engineering, University of Tokyo

>  <COMMENT>  (2770) 
SMILES=COCOCC(C1)(C(O3)(OCC3)2)C([H])(CCC2)C(C)(CCC=O)CC1
InChI=InChI=1S/C19H32O5/c1-17(8-5-11-20)7-4-9-18(14-22-15-21-2)16(17)6-3-10-19(18)23-12-13-24-19/h11,16H,3-10,12-15H2,1-2H3/t16-,17-,18+/m0/s1
computed SMILES=O=CCCC1(C)CCCC2(COCOC)C1CCCC32OCCO3
accession=JP008013
date=2016.01.19 (Created 2008.10.21, modified 2011.05.06)
author=HISAHIRO HAGIWARA, CHEMICAL RESEARCH INSTITUTE OF NON-AQUEOUSSOLUTIONS TOHOKU UNIV.
license=CC BY-NC-SA
exact mass=340.22497
ionization energy=70 eV
ion type=[M]+*
computed spectral entropy=3.473456038148834
computed normalized entropy=0.8925016501494437
SPLASH=splash10-000b-9210000000-1e55c7744aaee601321d
submitter=submitter = University of Tokyo Team (Faculty of Engineering, University of Tokyo)
MoNA Rating=3.75

>  <NUM PEAKS>  (2770) 
49

>  <MASS SPECTRAL PEAKS>  (2770) 
40 48
41 15.46
42 12.28
43 9.83
44 9.75
45 54.92
55 26.69
57 7.43
58 33.87
59 5.26
67 10.52
69 9.21
71 14.04
73 17.64
79 6.92
81 11.25
83 5.49
85 5.47
86 49.16
87 30.64
91 7.83
93 9.05
95 11.51
99 99.99
100 17.7
101 5.14
103 7.29
105 6.25
107 8.5
109 5.48
112 6.77
113 14.44
123 5.26
133 6.25
135 7.35
147 5.96
149 6.52
159 7.53
177 5.45
189 5.62
217 5.96
221 9.87
223 12.67
251 14.66
252 7.02
267 5.52
279 9.47
295 14.13
340 0.53

>  <PREDICTED SPECTRUM>  (2770) 
26 38
27 117
28 20
29 99
31 41
33 16
38 9
39 184
40 126
41 325
42 183
43 294
44 152
45 566
46 64
47 9
50 35
51 81
52 95
53 247
54 167
55 406
56 138
57 234
58 79
59 110
60 56
61 64
63 35
64 5
65 155
66 113
67 278
68 163
69 239
70 120
71 241
72 57
73 147
74 37
75 51
76 27
77 208
78 113
79 241
80 166
81 356
82 211
83 169
84 90
85 126
86 401
87 296
88 48
89 79
91 223
92 66
93 235
94 99
95 261
96 118
97 134
98 34
99 999
100 277
101 125
102 36
103 88
104 42
105 159
106 50
107 155
108 168
109 224
110 142
111 213
112 181
113 211
114 158
115 236
116 155
117 119
118 34
119 59
121 128
122 64
123 231
124 131
125 208
126 143
127 158
128 135
129 201
130 77
131 156
132 15
133 100
134 14
135 74
136 104
137 172
138 98
139 125
140 82
141 157
142 143
143 167
144 52
145 130
146 63
147 54
148 33
149 126
150 8
151 76
152 43
153 93
154 68
155 242
156 51
157 87
158 33
159 109
160 41
161 146
162 40
163 93
164 75
165 74
166 118
167 209
168 111
169 157
171 64
172 0
173 107
175 118
176 24
177 68
178 36
179 17
180 59
181 127
182 107
183 80
184 15
185 63
187 112
189 84
190 66
191 86
192 103
193 61
194 43
195 104
196 92
197 125
198 40
199 34
201 7
203 1
204 5
205 91
206 55
207 37
208 51
209 145
210 53
211 81
213 13
217 19
218 29
219 90
220 26
221 88
222 62
223 112
224 115
225 52
226 25
231 62
233 5
235 6
236 72
237 37
238 24
239 34
241 54
247 8
249 27
250 10
252 52
254 18
255 39
261 49
278 240
279 137
280 11
283 0
295 74
296 111
297 11
311 27
312 58
313 0
339 47
340 97
341 51

$$$$

     RDKit          2D

 24 26  0  0  1  0  0  0  0  0999 V2000
   -1.6357    4.7213    0.0000 C   0  0  0  0  0  0  0  0  0  0  0  0
    7.5029   -0.1682    0.0000 C   0  0  0  0  0  0  0  0  0  0  0  0
   -2.4217   -0.4382    0.0000 C   0  0  0  0  0  0  0  0  0  0  0  0
    1.4754    3.3118    0.0000 C   0  0  0  0  0  0  0  0  0  0  0  0
   -3.5641    4.2004    0.0000 C   0  0  0  0  0  0  0  0  0  0  0  0
   -2.4217    1.0618    0.0000 C   0  0  0  0  0  0  0  0  0  0  0  0
    0.1763    4.0618    0.0000 C   0  0  0  0  0  0  0  0  0  0  0  0
   -2.5999    3.0513    0.0000 C   0  0  0  0  0  0  0  0  0  0  0  0
    1.4754    1.8118    0.0000 C   0  0  0  0  0  0  0  0  0  0  0  0
   -1.1227   -1.1882    0.0000 C   0  0  0  0  0  0  0  0  0  0  0  0
   -5.0413    3.9399    0.0000 C   0  0  0  0  0  0  0  0  0  0  0  0
    1.8003   -2.2418    0.0000 C   0  0  0  0  0  0  0  0  0  0  0  0
    2.5503   -0.9428    0.0000 C   0  0  0  0  0  0  0  0  0  0  0  0
    2.3068   -0.1682    0.0000 C   0  0  0  0  0  0  0  0  0  0  0  0
    4.9048   -0.1682    0.0000 C   0  0  0  0  0  0  0  0  0  0  0  0
   -1.1227    1.8118    0.0000 C   0  0  0  0  0  0  0  0  0  0  0  0
   -1.1227    3.3118    0.0000 C   0  0  0  0  0  0  0  0  0  0  0  0
    0.1763    1.0618    0.0000 C   0  0  0  0  0  0  0  0  0  0  0  0
    0.1763   -0.4382    0.0000 C   0  0  0  0  0  0  0  0  0  0  0  0
   -6.0055    5.0890    0.0000 O   0  0  0  0  0  0  0  0  0  0  0  0
    6.2039    0.5818    0.0000 O   0  0  0  0  0  0  0  0  0  0  0  0
    3.6058    0.5818    0.0000 O   0  0  0  0  0  0  0  0  0  0  0  0
    0.3331   -1.9300    0.0000 O   0  0  0  0  0  0  0  0  0  0  0  0
    1.5466    0.1719    0.0000 O   0  0  0  0  0  0  0  0  0  0  0  0
  6  3  1  0
  7  4  1  0
  8  5  1  0
  9  4  1  0
 10  3  1  0
 11  5  1  0
 13 12  1  0
 16  6  1  1
 17  1  1  1
 17  7  1  0
 17  8  1  0
 17 16  1  0
 18  9  1  0
 18 14  1  1
 18 16  1  0
 19 10  1  0
 19 18  1  0
 20 11  1  0
 21  2  1  0
 21 15  1  0
 22 14  1  0
 22 15  1  0
 23 12  1  0
 23 19  1  0
 24 13  1  0
 24 19  1  0
M  END
>  <NAME>  (2771) 
(4AS,5S,8AS)-(-)-5ALPHA-(3-HYDROXYPROPYL)-8A-METHOXYMETHOXYMETHYL-5BETA-METHYL-3,4,4A,5,6,7,8,8A-OCTAHYDRONAPHTHALEN-1(2H)-ONE1-ETHYLENE ACETAL

>  <SYNONYMS>  (2771) 


>  <SPECTRUM TYPE>  (2771) 
MS1

>  <INSTRUMENT TYPE>  (2771) 
EI-B

>  <INSTRUMENT>  (2771) 
JEOL JMS-DX-300

>  <ION MODE>  (2771) 
P

>  <INCHIKEY>  (2771) 
FPQZNWVXFIBKMY-OKZBNKHCSA-N

>  <FORMULA>  (2771) 
C19H34O5

>  <EXACT MASS>  (2771) 
342.24062418799997

>  <MW>  (2771) 
342

>  <ID>  (2771) 
JP008012

>  <CONTRIBUTOR>  (2771) 
University of Tokyo Team, {Faculty of Engineering, University of Tokyo

>  <COMMENT>  (2771) 
SMILES=COCOCC(C1)(C(O3)(OCC3)2)C([H])(CCC2)C(C)(CCCO)CC1
InChI=InChI=1S/C19H34O5/c1-17(8-5-11-20)7-4-9-18(14-22-15-21-2)16(17)6-3-10-19(18)23-12-13-24-19/h16,20H,3-15H2,1-2H3/t16-,17-,18+/m0/s1
computed SMILES=OCCCC1(C)CCCC2(COCOC)C1CCCC32OCCO3
accession=JP008012
date=2016.01.19 (Created 2008.10.21, modified 2011.05.06)
author=HISAHIRO HAGIWARA, CHEMICAL RESEARCH INSTITUTE OF NON-AQUEOUSSOLUTIONS TOHOKU UNIV.
license=CC BY-NC-SA
exact mass=342.24062
ionization energy=70 eV
ion type=[M]+*
computed spectral entropy=3.515167278927511
computed normalized entropy=0.9032193188966174
SPLASH=splash10-000b-9100000000-426a9fef15a2295d798a
submitter=submitter = University of Tokyo Team (Faculty of Engineering, University of Tokyo)
MoNA Rating=3.75

>  <NUM PEAKS>  (2771) 
49

>  <MASS SPECTRAL PEAKS>  (2771) 
39 12.92
40 6.74
41 43.56
42 21.47
43 26.08
44 10.48
45 65.22
53 16.83
54 7.75
55 59.14
57 10.28
65 6.41
66 5.05
67 29.35
68 15.6
69 17.39
71 5.74
73 15.73
77 13.1
78 7.82
79 24.61
81 22.27
83 7.03
85 13.53
86 50.73
87 34.37
91 17.87
93 18.35
95 22.2
97 7.54
99 99.99
105 10.24
107 12.06
109 8.18
112 13.01
113 19.52
114 5.45
119 7
121 8.09
123 5.39
125 6.52
132 6.38
134 6.41
149 6.55
218 5.05
222 5.31
280 10.2
296 7.46
342 1.22

>  <PREDICTED SPECTRUM>  (2771) 
26 37
27 96
28 4
29 93
31 68
33 12
39 135
40 94
41 362
42 235
43 335
44 161
45 692
46 83
47 37
50 40
51 70
52 77
53 237
54 175
55 481
56 165
57 283
58 138
59 162
60 45
61 84
63 37
65 155
66 91
67 324
68 157
69 290
70 157
71 329
72 81
73 169
74 57
75 56
77 158
78 97
79 235
80 120
81 324
82 215
83 199
84 97
85 120
86 482
87 269
88 72
89 122
91 187
92 67
93 219
94 63
95 263
96 96
97 165
98 75
99 999
100 219
101 158
102 38
103 116
104 63
105 169
106 46
107 221
108 120
109 132
110 93
111 162
112 143
113 170
114 124
115 221
116 126
117 200
118 123
119 140
120 39
121 160
122 55
123 200
124 144
125 220
126 91
127 186
128 105
129 230
130 103
131 147
132 74
133 163
134 42
135 111
136 67
137 97
138 110
139 161
140 109
141 197
142 193
143 128
144 63
145 150
146 37
147 111
148 31
149 128
150 81
151 156
152 40
153 117
154 83
155 154
156 110
157 193
158 70
159 102
160 44
161 149
162 28
163 102
164 53
165 121
166 49
167 125
168 115
169 184
170 54
171 26
173 54
175 134
177 83
178 15
179 81
180 65
181 65
182 88
183 105
184 59
185 62
186 16
187 67
189 80
191 18
192 24
193 29
194 75
195 40
196 25
197 111
198 100
199 114
200 21
201 28
203 10
205 19
206 10
207 126
208 14
209 59
210 4
211 132
212 25
213 56
215 4
217 55
219 61
220 66
221 134
222 71
223 127
224 80
225 85
226 56
227 22
228 6
233 95
235 28
237 72
238 111
239 100
241 102
242 2
243 60
249 106
250 53
251 8
252 19
254 30
256 36
257 12
263 14
266 24
267 9
279 131
280 181
281 138
282 37
283 105
297 141
298 89
299 43
308 13
311 36
312 31
313 56
314 21
341 34
342 274
343 132

$$$$

     RDKit          2D

 20 21  0  0  1  0  0  0  0  0999 V2000
    0.1149   -5.2078    0.0000 C   0  0  0  0  0  0  0  0  0  0  0  0
   -2.2641   -2.6492    0.0000 C   0  0  0  0  0  0  0  0  0  0  0  0
   -2.5981    6.7500    0.0000 C   0  0  0  0  0  0  0  0  0  0  0  0
   -0.8491   -4.0587    0.0000 C   0  0  0  0  0  0  0  0  0  0  0  0
    2.6000   -0.7500    0.0000 C   0  0  0  0  0  0  0  0  0  0  0  0
   -2.6000    0.7500    0.0000 C   0  0  0  0  0  0  0  0  0  0  0  0
    1.3000   -1.5000    0.0000 C   0  0  0  0  0  0  0  0  0  0  0  0
    2.6000    0.7500    0.0000 C   0  0  0  0  0  0  0  0  0  0  0  0
   -0.3359   -2.6492    0.0000 C   0  0  0  0  0  0  0  0  0  0  0  0
   -2.6000   -0.7500    0.0000 C   0  0  0  0  0  0  0  0  0  0  0  0
   -1.3000    1.5000    0.0000 C   0  0  0  0  0  0  0  0  0  0  0  0
    0.0000    2.2500    0.0000 C   0  0  0  0  0  0  0  0  0  0  0  0
   -1.2990    4.5000    0.0000 C   0  0  0  0  0  0  0  0  0  0  0  0
    0.0000   -0.7500    0.0000 C   0  0  0  0  0  0  0  0  0  0  0  0
    1.3000    1.5000    0.0000 C   0  0  0  0  0  0  0  0  0  0  0  0
   -1.3000   -1.5000    0.0000 C   0  0  0  0  0  0  0  0  0  0  0  0
    0.0000    0.7500    0.0000 C   0  0  0  0  0  0  0  0  0  0  0  0
    1.3000    3.0000    0.0000 O   0  0  0  0  0  0  0  0  0  0  0  0
   -2.5981    5.2500    0.0000 O   0  0  0  0  0  0  0  0  0  0  0  0
   -1.2990    3.0000    0.0000 O   0  0  0  0  0  0  0  0  0  0  0  0
  4  1  2  0
  7  5  1  0
  8  5  1  0
  9  4  1  0
 10  6  1  0
 11  6  1  0
 14  7  1  1
 15  8  1  0
 16  2  1  1
 16  9  1  0
 16 10  1  0
 16 14  1  0
 17 11  1  0
 17 12  1  1
 17 14  1  0
 17 15  1  0
 18 15  2  0
 19  3  1  0
 19 13  1  0
 20 12  1  0
 20 13  1  0
M  END
>  <NAME>  (2772) 
(4AS,5S,8AS)-5ALPHA-ALLYL-8A-METHOXYMETHOXYMETHYL-5BETA-METHYL-3,4,4A,5,6,7,8,8A-OCTAHYDRONAPHTHALEN-1(2H)-ONE

>  <SYNONYMS>  (2772) 


>  <SPECTRUM TYPE>  (2772) 
MS1

>  <INSTRUMENT TYPE>  (2772) 
EI-B

>  <INSTRUMENT>  (2772) 
JEOL JMS-DX-300

>  <ION MODE>  (2772) 
P

>  <INCHIKEY>  (2772) 
DVXOTRKZFRKQIQ-USXIJHARSA-N

>  <FORMULA>  (2772) 
C17H28O3

>  <EXACT MASS>  (2772) 
280.20384475599997

>  <MW>  (2772) 
280

>  <ID>  (2772) 
JP008011

>  <CONTRIBUTOR>  (2772) 
University of Tokyo Team, {Faculty of Engineering, University of Tokyo

>  <COMMENT>  (2772) 
SMILES=COCOCC(C1)(C(=O)2)C([H])(CCC2)C(C)(CC=C)CC1
InChI=InChI=1S/C17H28O3/c1-4-9-16(2)10-6-11-17(12-20-13-19-3)14(16)7-5-8-15(17)18/h4,14H,1,5-13H2,2-3H3/t14-,16+,17+/m0/s1
computed SMILES=O=C1CCCC2C1(COCOC)CCCC2(C)CC=C
accession=JP008011
date=2016.01.19 (Created 2008.10.21, modified 2011.05.06)
author=HISAHIRO HAGIWARA, CHEMICAL RESEARCH INSTITUTE OF NON-AQUEOUSSOLUTIONS TOHOKU UNIV.
license=CC BY-NC-SA
exact mass=280.20384
ionization energy=70 eV
ion type=[M]+*
computed spectral entropy=3.757784753879949
computed normalized entropy=0.9335295503567951
SPLASH=splash10-0a4j-9630000000-8b3deccc9b80583be067
submitter=submitter = University of Tokyo Team (Faculty of Engineering, University of Tokyo)
MoNA Rating=3.75

>  <NUM PEAKS>  (2772) 
56

>  <MASS SPECTRAL PEAKS>  (2772) 
39 11.85
41 37.36
43 15.34
45 99.99
53 18.09
55 49.26
65 8.33
66 8.38
67 37.98
69 17.04
71 8.15
77 18.99
79 44.37
81 34.43
83 11.33
85 10.41
91 26.11
93 47.51
94 39.31
95 50.77
97 13.05
99 8.89
105 19.53
107 29.88
108 27.88
109 21.33
111 11.54
115 5.42
117 5.29
119 14.93
121 24.08
123 1.96
125 9.17
131 7.22
133 14.21
135 33.53
145 11.59
147 26.39
149 19.42
159 20.63
161 18.32
163 25.08
165 14.65
171 5.88
175 11.54
177 30.4
179 18.6
189 25.13
193 12.28
205 9.64
208 75.62
209 62.38
235 10.02
239 46.66
250 9.56
280 3.85

>  <PREDICTED SPECTRUM>  (2772) 
19 0
26 47
27 203
28 66
29 222
30 8
31 146
33 66
38 10
39 332
40 113
41 626
42 127
43 249
44 88
45 999
46 188
47 177
50 38
51 127
52 111
53 352
54 166
55 472
56 119
57 169
58 156
59 158
60 44
61 80
62 4
63 54
64 19
65 213
66 159
67 534
68 176
69 259
70 86
71 270
72 82
73 174
74 65
75 125
76 1
77 276
78 146
79 415
80 166
81 495
82 226
83 207
84 131
85 205
86 126
87 166
88 20
89 82
91 275
92 157
93 311
94 192
95 363
96 125
97 135
99 129
100 56
101 147
102 13
103 132
104 100
105 219
106 135
107 338
108 330
109 385
110 131
111 127
112 43
113 90
115 131
116 46
117 175
118 64
119 147
120 106
121 143
122 111
123 183
124 94
125 108
127 29
129 174
130 74
131 166
132 99
133 96
134 138
135 353
136 216
137 182
138 62
139 94
140 22
142 7
143 17
144 49
145 144
146 164
147 153
148 122
149 231
150 102
151 145
152 72
153 64
157 13
158 33
159 146
160 69
161 266
162 152
163 236
164 196
165 193
166 89
167 113
168 39
169 57
171 85
172 97
173 192
174 212
175 211
176 136
177 221
178 63
179 186
180 74
181 6
186 24
188 73
189 160
190 139
191 283
192 185
193 198
194 150
195 18
198 30
201 43
203 155
204 100
205 243
206 27
207 165
208 49
209 23
217 82
218 215
219 326
220 259
221 119
222 89
223 31
233 3
235 161
236 9
239 93
248 86
249 71
250 45
251 82
252 56
265 50
280 122
281 33

$$$$

     RDKit          2D

 28 29  0  0  1  0  0  0  0  0999 V2000
    0.5658   -7.7665    0.0000 C   0  0  0  0  0  0  0  0  0  0  0  0
   -1.8755   -6.8776    0.0000 C   0  0  0  0  0  0  0  0  0  0  0  0
   -2.2641   -2.6492    0.0000 C   0  0  0  0  0  0  0  0  0  0  0  0
    4.0772    0.4897    0.0000 C   0  0  0  0  0  0  0  0  0  0  0  0
   -2.5981    6.7500    0.0000 C   0  0  0  0  0  0  0  0  0  0  0  0
    5.1026    3.8301    0.0000 C   0  0  0  0  0  0  0  0  0  0  0  0
   -0.8491   -4.0587    0.0000 C   0  0  0  0  0  0  0  0  0  0  0  0
   -2.6000    0.7500    0.0000 C   0  0  0  0  0  0  0  0  0  0  0  0
    0.1149   -5.2078    0.0000 C   0  0  0  0  0  0  0  0  0  0  0  0
    1.3000   -1.5000    0.0000 C   0  0  0  0  0  0  0  0  0  0  0  0
   -0.3359   -2.6492    0.0000 C   0  0  0  0  0  0  0  0  0  0  0  0
   -2.6000   -0.7500    0.0000 C   0  0  0  0  0  0  0  0  0  0  0  0
   -1.3000    1.5000    0.0000 C   0  0  0  0  0  0  0  0  0  0  0  0
    2.6000   -0.7500    0.0000 C   0  0  0  0  0  0  0  0  0  0  0  0
    0.0000    2.2500    0.0000 C   0  0  0  0  0  0  0  0  0  0  0  0
   -1.2990    4.5000    0.0000 C   0  0  0  0  0  0  0  0  0  0  0  0
   -0.3982   -6.6173    0.0000 C   0  0  0  0  0  0  0  0  0  0  0  0
    0.0000   -0.7500    0.0000 C   0  0  0  0  0  0  0  0  0  0  0  0
    1.3000    1.5000    0.0000 C   0  0  0  0  0  0  0  0  0  0  0  0
    3.1127    2.1596    0.0000 C   0  0  0  0  0  0  0  0  0  0  0  0
   -1.3000   -1.5000    0.0000 C   0  0  0  0  0  0  0  0  0  0  0  0
    2.6000    0.7500    0.0000 C   0  0  0  0  0  0  0  0  0  0  0  0
    0.0000    0.7500    0.0000 C   0  0  0  0  0  0  0  0  0  0  0  0
    1.3000    3.0000    0.0000 O   0  0  0  0  0  0  0  0  0  0  0  0
    2.1483    3.3085    0.0000 O   0  0  0  0  0  0  0  0  0  0  0  0
   -2.5981    5.2500    0.0000 O   0  0  0  0  0  0  0  0  0  0  0  0
    4.5899    2.4204    0.0000 O   0  0  0  0  0  0  0  0  0  0  0  0
   -1.2990    3.0000    0.0000 O   0  0  0  0  0  0  0  0  0  0  0  0
  9  7  1  0
 11  7  1  0
 12  8  1  0
 13  8  1  0
 14 10  1  0
 17  1  1  0
 17  2  1  0
 17  9  2  0
 18 10  1  1
 21  3  1  1
 21 11  1  0
 21 12  1  0
 21 18  1  0
 22  4  1  0
 22 14  1  0
 22 19  1  0
 22 20  1  0
 23 13  1  0
 23 15  1  1
 23 18  1  0
 23 19  1  0
 24 19  2  0
 25 20  2  0
 26  5  1  0
 26 16  1  0
 27  6  1  0
 27 20  1  0
 28 15  1  0
 28 16  1  0
M  END
>  <NAME>  (2773) 
METHYL (2XI,4AS,5S,8AS)-2,5BETA-DIMETHYL-8ABETA-METHOXYMETHOXYMETHYL-5ALPHA-(4-METHYL-3-PENTENYL)-3,4,4A,5,6,7,8,8A-OCTAHYDRONAPHTHALEN-1-OXO-2-CARBOXYLATE

>  <SYNONYMS>  (2773) 


>  <SPECTRUM TYPE>  (2773) 
MS1

>  <INSTRUMENT TYPE>  (2773) 
EI-B

>  <INSTRUMENT>  (2773) 
JEOL JMS-DX-300

>  <ION MODE>  (2773) 
P

>  <INCHIKEY>  (2773) 
SEHBVQAQRDVIAV-GHNMSDBSSA-N

>  <FORMULA>  (2773) 
C23H38O5

>  <EXACT MASS>  (2773) 
394.27192431599997

>  <MW>  (2773) 
394

>  <ID>  (2773) 
JP008010

>  <CONTRIBUTOR>  (2773) 
University of Tokyo Team, {Faculty of Engineering, University of Tokyo

>  <COMMENT>  (2773) 
SMILES=COCOCC(C1)(C(=O)2)C([H])(CCC(C)(C(=O)OC)2)C(C)(CCC=C(C)C)CC1
InChI=InChI=1S/C23H38O5/c1-17(2)9-7-11-21(3)12-8-13-23(15-28-16-26-5)18(21)10-14-22(4,19(23)24)20(25)27-6/h9,18H,7-8,10-16H2,1-6H3/t18-,21+,22?,23+/m0/s1
computed SMILES=O=C(OC)C1(C(=O)C2(COCOC)CCCC(C)(CCC=C(C)C)C2CC1)C
accession=JP008010
date=2016.01.19 (Created 2008.10.21, modified 2011.05.06)
author=HISAHIRO HAGIWARA, CHEMICAL RESEARCH INSTITUTE OF NON-AQUEOUSSOLUTIONS TOHOKU UNIV.
license=CC BY-NC-SA
exact mass=394.27192
ionization energy=70 eV
ion type=[M]+*
computed spectral entropy=3.808361142930665
computed normalized entropy=0.968598686379662
SPLASH=splash10-014s-7931000000-7f2cfe4e3dd97f174207
submitter=submitter = University of Tokyo Team (Faculty of Engineering, University of Tokyo)
MoNA Rating=3.75

>  <NUM PEAKS>  (2773) 
51

>  <MASS SPECTRAL PEAKS>  (2773) 
41 73.22
43 22.15
44 21.75
45 99.99
55 45.3
67 27.2
69 91.78
79 2.54
81 42.63
82 38.95
83 38.99
93 43.04
94 28.65
95 40.32
96 32.28
97 20.71
105 24.66
107 38.12
108 29.5
109 44.33
119 21.91
120 21.51
121 50.29
122 44.63
123 34.51
134 32.86
135 46.56
136 36.32
137 26.58
149 46.4
151 24.5
161 51.31
163 36.55
173 25.75
175 51.58
177 3.86
189 35.34
191 27.52
192 22.25
203 21.63
219 24.04
221 25.73
232 25.84
236 85.27
250 45.14
259 67.1
262 30.8
303 20.36
319 67.11
363 39.8
394 31.1

>  <PREDICTED SPECTRUM>  (2773) 
18 2
26 48
27 139
28 105
29 255
30 118
31 176
32 27
33 59
39 178
40 103
41 630
42 260
43 530
44 181
45 999
46 135
47 152
48 13
49 4
50 21
51 61
52 58
53 265
54 183
55 633
56 222
57 295
58 222
59 307
60 91
61 61
62 9
63 61
64 25
65 174
66 166
67 725
68 317
69 648
70 219
71 484
72 144
73 143
74 52
75 65
77 206
78 154
79 381
80 277
81 857
82 509
83 397
84 199
85 346
86 201
87 176
88 113
89 125
90 16
91 277
92 110
93 324
94 293
95 779
96 259
97 293
98 127
99 232
100 105
101 155
102 40
103 105
104 112
105 250
106 226
107 599
108 514
109 975
110 231
111 207
112 75
113 192
114 59
115 204
116 25
117 72
119 160
120 161
121 381
122 218
123 453
124 160
125 215
126 117
127 152
128 80
129 109
130 24
131 250
132 84
133 176
134 164
135 404
136 162
137 192
138 67
139 178
140 62
141 116
142 55
143 109
144 24
145 173
146 5
147 90
148 24
149 200
150 154
151 120
152 70
153 145
154 31
155 70
156 13
157 53
158 18
159 79
160 79
161 205
162 116
163 177
164 100
165 117
166 25
167 133
168 65
169 150
170 70
171 138
172 111
173 154
174 123
175 398
176 268
177 280
178 104
179 104
180 81
181 104
182 114
183 151
184 61
185 96
187 104
188 108
189 401
190 195
191 157
192 100
193 187
194 109
195 105
196 73
197 14
199 57
200 26
201 87
202 84
203 282
204 126
205 174
206 96
207 171
208 154
209 185
210 150
215 14
216 19
217 37
219 106
220 124
221 235
222 200
223 4
225 18
229 43
231 167
232 145
233 253
234 171
235 145
236 33
237 53
238 7
239 15
245 134
246 73
247 224
248 224
249 314
250 206
251 77
252 19
257 170
258 35
259 149
260 40
261 164
262 78
263 123
273 96
274 98
275 228
276 104
277 169
278 24
279 35
280 24
281 66
287 187
288 148
289 159
290 180
291 72
301 0
302 86
303 166
304 47
308 0
310 44
312 37
314 7
315 147
316 25
317 80
318 112
319 147
321 11
330 155
331 192
332 199
333 159
334 28
335 110
337 22
349 183
363 15
376 26
379 92
393 47
394 164
395 100
396 51

$$$$

     RDKit          2D

 27 28  0  0  1  0  0  0  0  0999 V2000
    0.5658   -7.7665    0.0000 C   0  0  0  0  0  0  0  0  0  0  0  0
   -1.8755   -6.8776    0.0000 C   0  0  0  0  0  0  0  0  0  0  0  0
   -2.2641   -2.6492    0.0000 C   0  0  0  0  0  0  0  0  0  0  0  0
   -2.5981    6.7500    0.0000 C   0  0  0  0  0  0  0  0  0  0  0  0
    5.1976    3.7504    0.0000 C   0  0  0  0  0  0  0  0  0  0  0  0
   -0.8491   -4.0587    0.0000 C   0  0  0  0  0  0  0  0  0  0  0  0
   -2.6000    0.7500    0.0000 C   0  0  0  0  0  0  0  0  0  0  0  0
    0.1149   -5.2078    0.0000 C   0  0  0  0  0  0  0  0  0  0  0  0
    2.6000   -0.7500    0.0000 C   0  0  0  0  0  0  0  0  0  0  0  0
    1.3000   -1.5000    0.0000 C   0  0  0  0  0  0  0  0  0  0  0  0
   -0.3359   -2.6492    0.0000 C   0  0  0  0  0  0  0  0  0  0  0  0
   -2.6000   -0.7500    0.0000 C   0  0  0  0  0  0  0  0  0  0  0  0
   -1.3000    1.5000    0.0000 C   0  0  0  0  0  0  0  0  0  0  0  0
    0.0000    2.2500    0.0000 C   0  0  0  0  0  0  0  0  0  0  0  0
   -1.2990    4.5000    0.0000 C   0  0  0  0  0  0  0  0  0  0  0  0
   -0.3982   -6.6173    0.0000 C   0  0  0  0  0  0  0  0  0  0  0  0
    2.6000    0.7500    0.0000 C   0  0  0  0  0  0  0  0  0  0  0  0
    0.0000   -0.7500    0.0000 C   0  0  0  0  0  0  0  0  0  0  0  0
    1.3000    1.5000    0.0000 C   0  0  0  0  0  0  0  0  0  0  0  0
    3.8989    1.5002    0.0000 C   0  0  0  0  0  0  0  0  0  0  0  0
   -1.3000   -1.5000    0.0000 C   0  0  0  0  0  0  0  0  0  0  0  0
    0.0000    0.7500    0.0000 C   0  0  0  0  0  0  0  0  0  0  0  0
    1.3000    3.0000    0.0000 O   0  0  0  0  0  0  0  0  0  0  0  0
    5.1981    0.7504    0.0000 O   0  0  0  0  0  0  0  0  0  0  0  0
   -2.5981    5.2500    0.0000 O   0  0  0  0  0  0  0  0  0  0  0  0
    3.8987    3.0002    0.0000 O   0  0  0  0  0  0  0  0  0  0  0  0
   -1.2990    3.0000    0.0000 O   0  0  0  0  0  0  0  0  0  0  0  0
  8  6  1  0
 10  9  1  0
 11  6  1  0
 12  7  1  0
 13  7  1  0
 16  1  1  0
 16  2  1  0
 16  8  2  0
 17  9  1  0
 18 10  1  1
 19 17  1  0
 20 17  1  0
 21  3  1  1
 21 11  1  0
 21 12  1  0
 21 18  1  0
 22 13  1  0
 22 14  1  1
 22 18  1  0
 22 19  1  0
 23 19  2  0
 24 20  2  0
 25  4  1  0
 25 15  1  0
 26  5  1  0
 26 20  1  0
 27 14  1  0
 27 15  1  0
M  END
>  <NAME>  (2774) 
METHYL (2XI,4AS,5S,8AS)-(-)-8ABETA-METHOXYMETHOXYMETHYL-5BETA-METHYL-5ALPHA-(4-METHYL-3-PENTENYL)-3,4,4A,5,6,7,8,8A-OCTAHYDRONAPHTHALEN-1-OXO-2-CARBOXYLATE

>  <SYNONYMS>  (2774) 


>  <SPECTRUM TYPE>  (2774) 
MS1

>  <INSTRUMENT TYPE>  (2774) 
EI-B

>  <INSTRUMENT>  (2774) 
JEOL JMS-DX-300

>  <ION MODE>  (2774) 
P

>  <INCHIKEY>  (2774) 
QKTVLWRPCBPYHA-JAIRSQACSA-N

>  <FORMULA>  (2774) 
C22H36O5

>  <EXACT MASS>  (2774) 
380.25627425199997

>  <MW>  (2774) 
380

>  <ID>  (2774) 
JP008009

>  <CONTRIBUTOR>  (2774) 
University of Tokyo Team, {Faculty of Engineering, University of Tokyo

>  <COMMENT>  (2774) 
SMILES=COCOCC(C1)(C(=O)2)C([H])(CCC(C(=O)OC)2)C(C)(CCC=C(C)C)CC1
InChI=InChI=1S/C22H36O5/c1-16(2)8-6-11-21(3)12-7-13-22(14-27-15-25-4)18(21)10-9-17(19(22)23)20(24)26-5/h8,17-18H,6-7,9-15H2,1-5H3/t17?,18-,21+,22+/m0/s1
computed SMILES=O=C(OC)C1C(=O)C2(COCOC)CCCC(C)(CCC=C(C)C)C2CC1
accession=JP008009
date=2016.01.19 (Created 2008.10.21, modified 2011.05.06)
author=HISAHIRO HAGIWARA, CHEMICAL RESEARCH INSTITUTE OF NON-AQUEOUSSOLUTIONS TOHOKU UNIV.
license=CC BY-NC-SA
exact mass=380.25627
ionization energy=70 eV
ion type=[M]+*
computed spectral entropy=3.5230554510750043
computed normalized entropy=0.9201842341008181
SPLASH=splash10-0002-9441000000-1aae6c0937b262d311f4
submitter=submitter = University of Tokyo Team (Faculty of Engineering, University of Tokyo)
MoNA Rating=3.75

>  <NUM PEAKS>  (2774) 
46

>  <MASS SPECTRAL PEAKS>  (2774) 
40 6.21
41 36.31
43 6.65
44 8.82
45 99.99
55 25.34
67 10.97
69 5.36
79 9
81 15.55
82 8.42
83 12.88
91 7.16
93 12.57
95 11.26
96 6.59
105 6.68
107 11.03
109 9.39
119 7.14
121 9.42
133 8.21
135 10.25
137 6.15
147 10.83
149 6.68
161 9.49
175 7.74
178 17.51
181 6.27
189 7.47
191 7.56
203 10.52
205 7.85
217 10.81
219 10.12
222 8.8
235 10.13
236 6.93
247 11.13
248 16.96
264 7.32
266 22.26
273 15.68
305 25.45
380 7.98

>  <PREDICTED SPECTRUM>  (2774) 
26 64
27 230
28 92
29 305
30 78
31 183
32 5
33 63
34 9
39 234
40 93
41 689
42 216
43 500
44 220
45 999
46 180
47 165
48 38
49 41
50 41
51 118
52 89
53 348
54 209
55 642
56 178
57 301
58 187
59 358
60 69
61 147
62 21
63 114
64 79
65 265
66 218
67 745
68 327
69 521
70 230
71 481
72 176
73 171
74 102
75 138
76 26
77 267
78 202
79 431
80 235
81 967
82 527
83 319
84 210
85 274
86 171
87 150
88 41
89 51
91 332
92 183
93 457
94 301
95 749
96 252
97 280
98 157
99 129
100 90
101 94
103 43
104 3
105 180
106 141
107 370
108 330
109 547
110 94
111 172
112 93
113 256
114 82
115 42
117 115
118 29
119 150
120 124
121 287
122 282
123 462
124 143
125 246
126 170
127 133
128 35
129 74
131 95
133 132
134 88
135 333
136 57
137 153
138 51
139 151
140 59
141 102
142 63
143 89
144 47
145 89
146 79
147 129
148 99
149 164
150 155
151 233
152 129
153 177
154 86
155 168
156 90
157 131
158 91
159 115
160 63
161 257
162 119
163 154
164 50
165 132
166 56
167 116
168 79
169 92
170 56
171 102
172 61
173 105
174 108
175 209
176 125
177 199
178 156
179 222
180 142
181 159
182 46
183 113
185 80
186 5
187 36
188 62
189 176
190 33
191 196
192 67
193 172
194 159
195 160
196 86
200 7
202 17
203 103
204 18
205 156
206 159
207 275
208 162
209 113
210 22
211 37
216 19
217 261
218 87
219 185
220 112
221 112
222 111
223 23
224 31
229 23
232 148
233 203
234 166
235 302
236 159
237 82
238 25
244 66
245 101
246 133
247 198
248 73
249 161
250 47
251 91
252 10
257 58
258 45
259 164
260 124
261 201
262 125
263 61
264 125
267 12
272 129
273 274
274 225
275 226
276 174
277 66
286 24
287 78
288 171
289 131
290 80
291 29
296 37
298 11
300 47
301 148
302 98
303 220
304 177
305 43
315 104
316 73
317 267
318 193
319 106
320 122
321 17
332 67
335 17
348 118
349 79
350 51
365 88
380 220
381 93
382 27

$$$$

     RDKit          2D

 15 16  0  0  0  0  0  0  0  0999 V2000
   -7.7126    0.0124    0.0000 C   0  0  0  0  0  0  0  0  0  0  0  0
   -3.3016   -0.6460    0.0000 C   0  0  0  0  0  0  0  0  0  0  0  0
   -5.1137    3.0142    0.0000 C   0  0  0  0  0  0  0  0  0  0  0  0
   -6.4132    2.2632    0.0000 C   0  0  0  0  0  0  0  0  0  0  0  0
   -3.8146    2.2643    0.0000 C   0  0  0  0  0  0  0  0  0  0  0  0
   -0.1947    2.1634    0.0000 C   0  0  0  0  0  0  0  0  0  0  0  0
    0.0657    0.6862    0.0000 C   0  0  0  0  0  0  0  0  0  0  0  0
   -5.1140   -1.4875    0.0000 C   0  0  0  0  0  0  0  0  0  0  0  0
   -6.4135    0.7624    0.0000 C   0  0  0  0  0  0  0  0  0  0  0  0
   -5.1144    0.0125    0.0000 C   0  0  0  0  0  0  0  0  0  0  0  0
   -2.3377    1.0239    0.0000 C   0  0  0  0  0  0  0  0  0  0  0  0
   -3.8149    0.7635    0.0000 C   0  0  0  0  0  0  0  0  0  0  0  0
   -6.4128   -2.2379    0.0000 O   0  0  0  0  0  0  0  0  0  0  0  0
   -1.6801    2.3721    0.0000 O   0  0  0  0  0  0  0  0  0  0  0  0
   -1.2587   -0.0180    0.0000 O   0  0  0  0  0  0  0  0  0  0  0  0
  4  3  1  0
  5  3  1  0
  7  6  1  0
  9  1  1  0
  9  4  1  0
 10  8  1  0
 10  9  2  0
 12  2  1  0
 12  5  1  0
 12 10  1  0
 12 11  1  0
 13  8  2  0
 14  6  1  0
 14 11  1  0
 15  7  1  0
 15 11  1  0
M  END
>  <NAME>  (2775) 
2,6-DIMETHYL-6-ETHYLENEDIOXYMETHYL-1-CYCLOHEXENE-1-CARBALDEHYDE

>  <SYNONYMS>  (2775) 


>  <SPECTRUM TYPE>  (2775) 
MS1

>  <INSTRUMENT TYPE>  (2775) 
EI-B

>  <INSTRUMENT>  (2775) 
JEOL JMS-DX-300

>  <ION MODE>  (2775) 
P

>  <INCHIKEY>  (2775) 
SBAZHOZEPDPTMC-UHFFFAOYSA-N

>  <FORMULA>  (2775) 
C12H18O3

>  <EXACT MASS>  (2775) 
210.125594436

>  <MW>  (2775) 
210

>  <ID>  (2775) 
JP008008

>  <CONTRIBUTOR>  (2775) 
University of Tokyo Team, {Faculty of Engineering, University of Tokyo

>  <COMMENT>  (2775) 
SMILES=O=CC(=C(C)2)C(C)(CCC2)C(O1)OCC1
InChI=InChI=1S/C12H18O3/c1-9-4-3-5-12(2,10(9)8-13)11-14-6-7-15-11/h8,11H,3-7H2,1-2H3
computed SMILES=O=CC1=C(C)CCCC1(C)C2OCCO2
accession=JP008008
date=2016.01.19 (Created 2008.10.21, modified 2011.05.06)
author=HISAHIRO HAGIWARA, CHEMICAL RESEARCH INSTITUTE OF NON-AQUEOUSSOLUTIONS TOHOKU UNIV.
license=CC BY-NC-SA
exact mass=210.12559
ionization energy=70 eV
ion type=[M]+*
computed spectral entropy=3.0446327001628877
computed normalized entropy=0.7823158488692231
SPLASH=splash10-00di-9100000000-567886fcf8c303967671
submitter=submitter = University of Tokyo Team (Faculty of Engineering, University of Tokyo)
MoNA Rating=3.75

>  <NUM PEAKS>  (2775) 
49

>  <MASS SPECTRAL PEAKS>  (2775) 
31 4.1
39 3.96
40 9.15
41 10.08
42 2.98
43 13.75
44 10.22
45 16.19
53 2.96
55 8.14
56 3.4
57 5.91
61 1.52
65 1.77
67 4.17
69 6.71
70 2.53
71 3.45
73 99.99
74 4.74
77 3.55
79 3.58
81 4.01
82 3.15
83 3.9
84 1.64
85 1.86
87 1.58
91 3.23
93 4.77
95 4.01
96 1.99
97 4.07
105 2.06
107 2.77
108 2.08
109 4.82
111 2.29
113 1.77
123 1.84
126 1.76
129 1.62
135 3.34
136 2.29
137 1.91
153 1.85
168 1.81
169 2.66
210 1.9

>  <PREDICTED SPECTRUM>  (2775) 
14 27
15 30
16 11
17 0
18 6
19 16
26 42
27 196
28 131
29 201
30 56
31 89
32 7
33 12
36 32
38 43
39 276
40 136
41 456
42 232
43 381
44 192
45 543
46 100
47 86
49 41
50 49
51 183
52 126
53 287
54 183
55 362
56 115
57 112
58 53
59 58
60 71
61 71
62 51
63 90
64 46
65 194
66 89
67 271
68 165
69 203
70 102
71 38
72 34
73 999
74 262
75 146
77 297
78 140
79 344
80 178
81 335
82 114
83 82
84 31
86 262
87 209
88 5
89 42
91 302
92 102
93 322
94 108
95 212
96 199
97 107
98 48
99 160
100 26
101 85
102 6
103 4
105 132
106 161
107 282
108 157
109 325
110 96
111 4
112 4
113 26
114 21
115 147
117 63
119 120
120 115
121 157
122 156
123 219
124 126
133 80
134 71
135 32
136 58
137 331
138 218
148 32
149 140
150 96
151 111
164 18
165 104
166 1
167 109
179 43
180 40
181 94
182 106
195 121
209 124
210 261
211 85

$$$$

     RDKit          2D

 15 15  0  0  0  0  0  0  0  0999 V2000
   -7.4692    4.2571    0.0000 C   0  0  0  0  0  0  0  0  0  0  0  0
    4.2221    2.0071    0.0000 C   0  0  0  0  0  0  0  0  0  0  0  0
    4.2226    3.5079    0.0000 C   0  0  0  0  0  0  0  0  0  0  0  0
    2.9226    1.2563    0.0000 C   0  0  0  0  0  0  0  0  0  0  0  0
   -2.2731    4.2571    0.0000 C   0  0  0  0  0  0  0  0  0  0  0  0
    2.9236    4.2579    0.0000 C   0  0  0  0  0  0  0  0  0  0  0  0
    1.6236    2.0063    0.0000 C   0  0  0  0  0  0  0  0  0  0  0  0
   -0.9740    3.5071    0.0000 C   0  0  0  0  0  0  0  0  0  0  0  0
   -3.5721    3.5071    0.0000 C   0  0  0  0  0  0  0  0  0  0  0  0
    1.6240    3.5071    0.0000 C   0  0  0  0  0  0  0  0  0  0  0  0
    0.3250    4.2571    0.0000 C   0  0  0  0  0  0  0  0  0  0  0  0
   -4.8712    4.2571    0.0000 C   0  0  0  0  0  0  0  0  0  0  0  0
    0.3250    5.7571    0.0000 O   0  0  0  0  0  0  0  0  0  0  0  0
   -4.8712    5.7571    0.0000 O   0  0  0  0  0  0  0  0  0  0  0  0
   -6.1702    3.5071    0.0000 O   0  0  0  0  0  0  0  0  0  0  0  0
  3  2  2  0
  4  2  1  0
  6  3  1  0
  7  4  2  0
  8  5  1  0
  9  5  1  0
 10  6  2  0
 10  7  1  0
 11  8  1  0
 11 10  1  0
 12  9  1  0
 13 11  2  0
 14 12  2  0
 15  1  1  0
 15 12  1  0
M  END
>  <NAME>  (2776) 
METHYL 5-KETO-5-PHENYLPENTANOATE

>  <SYNONYMS>  (2776) 


>  <SPECTRUM TYPE>  (2776) 
MS1

>  <INSTRUMENT TYPE>  (2776) 
EI-B

>  <INSTRUMENT>  (2776) 
JEOL JMS-DX-300

>  <ION MODE>  (2776) 
P

>  <INCHIKEY>  (2776) 
GRIWFUFDJOESIC-UHFFFAOYSA-N

>  <FORMULA>  (2776) 
C12H14O3

>  <EXACT MASS>  (2776) 
206.094294308

>  <MW>  (2776) 
206

>  <ID>  (2776) 
JP008007

>  <CONTRIBUTOR>  (2776) 
University of Tokyo Team, {Faculty of Engineering, University of Tokyo

>  <COMMENT>  (2776) 
SMILES=COC(=O)CCCC(=O)c(c1)cccc1
InChI=InChI=1S/C12H14O3/c1-15-12(14)9-5-8-11(13)10-6-3-2-4-7-10/h2-4,6-7H,5,8-9H2,1H3
computed SMILES=O=C(OC)CCCC(=O)C=1C=CC=CC1
accession=JP008007
date=2016.01.19 (Created 2008.10.21, modified 2011.05.06)
author=HISAHIRO HAGIWARA, CHEMICAL RESEARCH INSTITUTE OF NON-AQUEOUSSOLUTIONS TOHOKU UNIV.
license=CC BY-NC-SA
exact mass=206.09429
ionization energy=70 eV
ion type=[M]+*
computed spectral entropy=2.4224717896061683
computed normalized entropy=0.7054399580878364
SPLASH=splash10-0a4i-4900000000-d96b4fe0b42bfbe13d77
submitter=submitter = University of Tokyo Team (Faculty of Engineering, University of Tokyo)
MoNA Rating=3.75

>  <NUM PEAKS>  (2776) 
31

>  <MASS SPECTRAL PEAKS>  (2776) 
31 2.5
32 9.01
39 1.69
41 1.47
42 1.94
43 1.06
45 1.17
50 0.21
51 8.83
55 4.38
59 3.64
74 1.24
75 1.46
76 2.19
77 37.89
78 3.78
91 1.54
105 99.99
106 7.9
120 14.66
121 1.47
132 1.16
133 3.41
146 8.28
147 10.27
148 1.41
174 3.99
175 12.05
176 1.63
206 10.44
207 1.73

>  <PREDICTED SPECTRUM>  (2776) 
14 20
15 51
16 3
17 8
18 18
26 44
27 141
28 69
29 101
30 33
31 69
32 11
33 7
37 37
38 83
39 235
40 98
41 202
42 205
43 114
44 29
45 64
49 14
50 175
51 366
52 123
53 77
54 49
55 229
56 24
57 59
59 90
62 28
63 87
64 39
65 122
66 40
67 10
68 40
69 147
70 19
74 86
75 62
76 79
77 665
78 220
79 89
83 24
86 32
87 93
89 15
91 178
92 64
93 21
101 166
103 92
104 34
105 999
106 296
107 38
114 12
115 91
116 60
117 131
118 135
119 277
120 368
121 15
128 77
129 119
130 86
131 91
132 91
133 45
134 16
135 12
136 29
145 66
146 217
147 60
148 51
173 116
174 201
175 232
176 89
178 87
179 32
189 22
205 12
206 201
207 80
208 1

$$$$

     RDKit          2D

 22 24  0  0  1  0  0  0  0  0999 V2000
    4.7282    7.0741    0.0000 C   0  0  0  0  0  0  0  0  0  0  0  0
    5.1794    4.5155    0.0000 C   0  0  0  0  0  0  0  0  0  0  0  0
    1.7119    2.0640    0.0000 C   0  0  0  0  0  0  0  0  0  0  0  0
   -4.4938    1.0945    0.0000 C   0  0  0  0  0  0  0  0  0  0  0  0
    2.2249    3.9945    0.0000 C   0  0  0  0  0  0  0  0  0  0  0  0
   -2.3634    5.3245    0.0000 C   0  0  0  0  0  0  0  0  0  0  0  0
   -1.0644    0.0745    0.0000 C   0  0  0  0  0  0  0  0  0  0  0  0
    2.7380    5.4041    0.0000 C   0  0  0  0  0  0  0  0  0  0  0  0
   -1.0644    4.5745    0.0000 C   0  0  0  0  0  0  0  0  0  0  0  0
    0.7477    3.7340    0.0000 C   0  0  0  0  0  0  0  0  0  0  0  0
    0.2347    0.8245    0.0000 C   0  0  0  0  0  0  0  0  0  0  0  0
   -2.3634    0.8245    0.0000 C   0  0  0  0  0  0  0  0  0  0  0  0
   -3.6624    4.5745    0.0000 C   0  0  0  0  0  0  0  0  0  0  0  0
   -6.0364    2.5699    0.0000 C   0  0  0  0  0  0  0  0  0  0  0  0
   -5.2864    1.2709    0.0000 C   0  0  0  0  0  0  0  0  0  0  0  0
    4.2152    5.6645    0.0000 C   0  0  0  0  0  0  0  0  0  0  0  0
   -1.0644    3.0745    0.0000 C   0  0  0  0  0  0  0  0  0  0  0  0
    0.2347    2.3245    0.0000 C   0  0  0  0  0  0  0  0  0  0  0  0
   -2.3634    2.3245    0.0000 C   0  0  0  0  0  0  0  0  0  0  0  0
   -3.6624    3.0745    0.0000 C   0  0  0  0  0  0  0  0  0  0  0  0
   -5.0327    3.6846    0.0000 O   0  0  0  0  0  0  0  0  0  0  0  0
   -3.8192    1.5827    0.0000 O   0  0  0  0  0  0  0  0  0  0  0  0
  8  5  1  0
  9  6  1  0
 10  5  1  0
 11  7  1  0
 12  7  1  0
 13  6  1  0
 15 14  1  0
 16  1  1  0
 16  2  1  0
 16  8  2  0
 17  9  1  1
 18  3  1  1
 18 10  1  0
 18 11  1  0
 18 17  1  0
 19  4  1  1
 19 12  1  0
 19 17  1  0
 20 13  1  0
 20 19  1  0
 21 14  1  0
 21 20  1  0
 22 15  1  0
 22 20  1  0
M  END
>  <NAME>  (2777) 
(4AS,5S,8AS)-(-)-5BETA,8ABETA-DIMETHYL-5AALPHA-(4-METHYL-3-PENTENYL)-3,4,4A,5,6,7,8,8A-OCTAHYDRONAPHTHALEN-1(2H)-ONE

>  <SYNONYMS>  (2777) 


>  <SPECTRUM TYPE>  (2777) 
MS1

>  <INSTRUMENT TYPE>  (2777) 
EI-B

>  <INSTRUMENT>  (2777) 
JEOL JMS-DX-300

>  <ION MODE>  (2777) 
P

>  <INCHIKEY>  (2777) 
NNNJBVICGSMWIP-OTWHNJEPSA-N

>  <FORMULA>  (2777) 
C20H34O2

>  <EXACT MASS>  (2777) 
306.255880328

>  <MW>  (2777) 
306

>  <ID>  (2777) 
JP008005

>  <CONTRIBUTOR>  (2777) 
University of Tokyo Team, {Faculty of Engineering, University of Tokyo

>  <COMMENT>  (2777) 
SMILES=CC(C)=CCCC(C)(C3)C([H])(C1)C(C)(CC3)C(O2)(OCC2)CC1
InChI=InChI=1S/C20H34O2/c1-16(2)8-5-10-18(3)11-7-12-19(4)17(18)9-6-13-20(19)21-14-15-22-20/h8,17H,5-7,9-15H2,1-4H3/t17-,18+,19-/m0/s1
computed SMILES=O1CCOC12CCCC3C(C)(CCC=C(C)C)CCCC32C
accession=JP008005
date=2016.01.19 (Created 2008.10.21, modified 2011.05.06)
author=HISAHIRO HAGIWARA, CHEMICAL RESEARCH INSTITUTE OF NON-AQUEOUSSOLUTIONS TOHOKU UNIV.
license=CC BY-NC-SA
exact mass=306.25588
ionization energy=70 eV
ion type=[M]+*
computed spectral entropy=3.5554201946449897
computed normalized entropy=0.9088443983360143
SPLASH=splash10-052b-9610000000-649ed096a3637254c8fc
submitter=submitter = University of Tokyo Team (Faculty of Engineering, University of Tokyo)
MoNA Rating=3.75

>  <NUM PEAKS>  (2777) 
50

>  <MASS SPECTRAL PEAKS>  (2777) 
41 12.32
53 6.42
55 28.08
67 15.32
68 6.36
69 35.7
79 7.25
81 23.59
82 10.61
83 9.75
86 25.24
87 9.99
93 9.04
95 20.85
96 10.31
99 99.99
100 14.36
105 5.7
107 9.77
108 0.57
109 27.56
113 8.49
114 5.63
121 0.67
122 7.67
123 10.88
124 5.3
125 10.03
128 8.37
135 8.74
136 11.83
137 7.13
138 19.53
139 5.06
149 7.02
151 7.16
161 7.99
162 23.56
163 10.19
175 8.41
176 7.59
191 8.64
192 6.36
193 1.09
223 12.09
224 5.91
262 7.83
275 18.36
306 29.57
307 6.85

>  <PREDICTED SPECTRUM>  (2777) 
26 23
27 95
28 15
29 93
31 19
39 123
40 96
41 368
42 226
43 351
44 111
45 212
46 11
47 6
50 11
51 54
52 53
53 198
54 98
55 350
56 111
57 115
58 65
59 75
60 37
61 22
63 3
65 93
66 91
67 249
68 171
69 293
70 122
71 200
72 52
73 110
74 46
75 42
76 2
77 163
78 77
79 249
80 184
81 307
82 153
83 168
84 92
85 82
86 193
87 450
88 63
89 30
91 184
92 106
93 263
94 154
95 302
96 129
97 139
98 50
99 999
100 524
101 169
102 26
103 23
104 2
105 143
106 45
107 187
108 163
109 225
110 68
111 96
112 124
113 196
114 57
115 99
116 9
117 70
118 8
119 125
120 92
121 179
122 111
123 151
124 73
125 111
126 371
127 220
128 103
129 62
130 37
131 91
132 17
133 76
134 14
135 104
136 33
137 142
138 74
139 121
140 41
141 127
142 42
143 115
144 37
145 130
146 54
147 70
148 49
149 64
150 70
151 106
152 88
153 92
154 31
155 123
156 73
157 64
158 41
159 58
160 25
161 78
162 44
163 101
164 70
165 36
166 7
167 18
169 47
171 97
172 29
173 45
174 28
175 68
176 41
177 49
179 112
180 48
181 44
182 19
183 7
184 16
185 23
187 102
188 30
189 29
190 49
191 104
192 39
194 2
196 15
199 14
201 35
202 84
203 33
204 20
205 64
206 94
207 116
208 15
209 76
211 64
218 57
219 7
223 70
224 56
229 2
235 37
237 35
238 9
244 117
250 4
261 12
262 27
263 5
278 24
279 5
291 103
292 31
306 263
307 41
308 26
309 3

$$$$

     RDKit          2D

 23 24  0  0  1  0  0  0  0  0999 V2000
    0.5658   -7.7665    0.0000 C   0  0  0  0  0  0  0  0  0  0  0  0
   -1.8755   -6.8776    0.0000 C   0  0  0  0  0  0  0  0  0  0  0  0
   -2.2641   -2.6492    0.0000 C   0  0  0  0  0  0  0  0  0  0  0  0
    0.0000    2.2500    0.0000 C   0  0  0  0  0  0  0  0  0  0  0  0
    5.1976    3.7504    0.0000 C   0  0  0  0  0  0  0  0  0  0  0  0
   -0.8491   -4.0587    0.0000 C   0  0  0  0  0  0  0  0  0  0  0  0
   -2.6000    0.7500    0.0000 C   0  0  0  0  0  0  0  0  0  0  0  0
    0.1149   -5.2078    0.0000 C   0  0  0  0  0  0  0  0  0  0  0  0
    2.6000   -0.7500    0.0000 C   0  0  0  0  0  0  0  0  0  0  0  0
    1.3000   -1.5000    0.0000 C   0  0  0  0  0  0  0  0  0  0  0  0
   -0.3359   -2.6492    0.0000 C   0  0  0  0  0  0  0  0  0  0  0  0
   -2.6000   -0.7500    0.0000 C   0  0  0  0  0  0  0  0  0  0  0  0
   -1.3000    1.5000    0.0000 C   0  0  0  0  0  0  0  0  0  0  0  0
   -0.3982   -6.6173    0.0000 C   0  0  0  0  0  0  0  0  0  0  0  0
    2.6000    0.7500    0.0000 C   0  0  0  0  0  0  0  0  0  0  0  0
    0.0000   -0.7500    0.0000 C   0  0  0  0  0  0  0  0  0  0  0  0
    1.3000    1.5000    0.0000 C   0  0  0  0  0  0  0  0  0  0  0  0
    3.8989    1.5002    0.0000 C   0  0  0  0  0  0  0  0  0  0  0  0
   -1.3000   -1.5000    0.0000 C   0  0  0  0  0  0  0  0  0  0  0  0
    0.0000    0.7500    0.0000 C   0  0  0  0  0  0  0  0  0  0  0  0
    1.3000    3.0000    0.0000 O   0  0  0  0  0  0  0  0  0  0  0  0
    5.1981    0.7504    0.0000 O   0  0  0  0  0  0  0  0  0  0  0  0
    3.8987    3.0002    0.0000 O   0  0  0  0  0  0  0  0  0  0  0  0
  8  6  1  0
 10  9  1  0
 11  6  1  0
 12  7  1  0
 13  7  1  0
 14  1  1  0
 14  2  1  0
 14  8  2  0
 15  9  1  0
 16 10  1  1
 17 15  1  0
 18 15  1  0
 19  3  1  1
 19 11  1  0
 19 12  1  0
 19 16  1  0
 20  4  1  1
 20 13  1  0
 20 16  1  0
 20 17  1  0
 21 17  2  0
 22 18  2  0
 23  5  1  0
 23 18  1  0
M  END
>  <NAME>  (2778) 
(2XI,4AS,5S,8AS)-(+)-2-CARBOMETHOXY-5BETA,8ABETA-DIMETHYL-5ALPHA-(4-METHYL-3-PENTENYL)-3,4,4A,5,6,7,8,8A-OCTAHYDRONAPHTHALEN-1(2H)-ONE

>  <SYNONYMS>  (2778) 


>  <SPECTRUM TYPE>  (2778) 
MS1

>  <INSTRUMENT TYPE>  (2778) 
EI-B

>  <INSTRUMENT>  (2778) 
JEOL JMS-DX-300

>  <ION MODE>  (2778) 
P

>  <INCHIKEY>  (2778) 
JRJJWSRANBMWST-HKPCIYPDSA-N

>  <FORMULA>  (2778) 
C20H32O3

>  <EXACT MASS>  (2778) 
320.23514488399996

>  <MW>  (2778) 
320

>  <ID>  (2778) 
JP008004

>  <CONTRIBUTOR>  (2778) 
University of Tokyo Team, {Faculty of Engineering, University of Tokyo

>  <COMMENT>  (2778) 
SMILES=CC(C)=CCCC(C)(C2)C([H])(C1)C(C)(CC2)C(=O)C(C(=O)OC)C1
InChI=InChI=1S/C20H32O3/c1-14(2)8-6-11-19(3)12-7-13-20(4)16(19)10-9-15(17(20)21)18(22)23-5/h8,15-16H,6-7,9-13H2,1-5H3/t15?,16-,19+,20-/m0/s1
computed SMILES=O=C(OC)C1C(=O)C2(C)CCCC(C)(CCC=C(C)C)C2CC1
accession=JP008004
date=2016.01.19 (Created 2008.10.21, modified 2011.05.06)
author=HISAHIRO HAGIWARA, CHEMICAL RESEARCH INSTITUTE OF NON-AQUEOUSSOLUTIONS TOHOKU UNIV.
license=CC BY-NC-SA
exact mass=320.23514
ionization energy=70 eV
ion type=[M]+*
computed spectral entropy=3.992226236652963
computed normalized entropy=0.9246640944155522
SPLASH=splash10-0600-4922000000-6b76ce06245ef927fcdb
submitter=submitter = University of Tokyo Team (Faculty of Engineering, University of Tokyo)
MoNA Rating=3.75

>  <NUM PEAKS>  (2778) 
75

>  <MASS SPECTRAL PEAKS>  (2778) 
41 31.64
43 7.87
55 28.26
67 11.75
68 5.79
69 60.42
79 6.93
81 23.72
82 12.9
83 20.27
87 14.81
93 11.21
95 17.24
96 12.9
97 6.6
105 5.26
107 12.98
108 6.82
109 27.08
110 6.47
121 12.42
122 13.58
123 24.66
124 6.06
129 10.8
133 5.97
134 6.69
135 2.62
136 26.63
137 12.71
142 14.3
143 7.12
147 5.28
148 5.91
149 16.92
150 9.41
151 5.89
155 11.65
159 19.09
161 14.78
162 5.91
163 11.53
165 6.64
166 14.77
167 10.64
168 87.86
169 14.61
175 7.98
176 13.3
177 12.68
178 7.38
179 5.87
180 15.53
181 14.39
182 16
183 5.35
191 6.56
193 9.38
194 5.53
195 5.33
203 9.21
205 15.77
207 8.02
217 9.88
219 23.73
220 4.61
221 10.26
235 6.96
273 27.22
274 5.18
288 17.62
289 11.72
305 27.06
320 99.99
321 25.26

>  <PREDICTED SPECTRUM>  (2778) 
27 79
28 6
29 135
39 259
40 116
41 999
42 366
43 724
44 321
45 245
51 59
52 40
53 432
54 203
55 837
56 332
57 343
58 150
59 250
60 122
65 266
66 213
67 680
68 192
69 914
70 233
72 72
73 150
74 85
75 14
77 333
78 245
79 582
80 204
81 931
82 504
83 240
84 139
85 203
86 248
87 419
88 209
91 471
92 204
93 643
94 311
95 450
96 264
97 180
98 143
99 169
100 250
101 258
102 37
105 287
106 228
107 333
108 331
109 457
110 77
111 97
112 116
113 229
114 362
115 155
116 50
117 91
118 69
119 283
120 162
121 386
122 179
123 374
124 115
125 234
126 107
127 127
128 126
129 68
131 74
132 102
133 169
134 207
135 421
136 305
137 89
143 87
144 45
145 178
146 183
147 315
148 224
149 184
150 95
151 271
152 127
153 8
155 17
157 125
159 80
160 152
161 259
162 138
163 218
164 129
165 145
166 76
167 7
169 63
171 9
173 84
174 19
175 314
176 210
177 221
178 133
179 104
180 35
185 0
188 8
189 277
190 194
191 450
192 200
193 227
200 10
201 111
202 42
203 266
204 138
205 239
206 135
207 164
217 269
218 105
219 302
220 138
221 86
223 16
232 99
233 175
234 173
235 132
236 101
237 273
238 159
243 75
245 82
246 129
247 61
248 21
249 43
251 24
259 219
260 105
261 253
262 43
273 100
287 87
288 403
289 206
302 9
305 140
320 379
321 211
322 23

$$$$

     RDKit          2D

 19 21  0  0  1  0  0  0  0  0999 V2000
    3.8459    4.7644    0.0000 C   0  0  0  0  0  0  0  0  0  0  0  0
    2.8198    1.4244    0.0000 C   0  0  0  0  0  0  0  0  0  0  0  0
   -3.3859    0.4549    0.0000 C   0  0  0  0  0  0  0  0  0  0  0  0
    3.3328    3.3549    0.0000 C   0  0  0  0  0  0  0  0  0  0  0  0
   -1.2555    4.6849    0.0000 C   0  0  0  0  0  0  0  0  0  0  0  0
    0.0436   -0.5651    0.0000 C   0  0  0  0  0  0  0  0  0  0  0  0
    0.0436    3.9349    0.0000 C   0  0  0  0  0  0  0  0  0  0  0  0
    1.8556    3.0944    0.0000 C   0  0  0  0  0  0  0  0  0  0  0  0
    1.3426    0.1849    0.0000 C   0  0  0  0  0  0  0  0  0  0  0  0
   -1.2555    0.1849    0.0000 C   0  0  0  0  0  0  0  0  0  0  0  0
   -2.5545    3.9349    0.0000 C   0  0  0  0  0  0  0  0  0  0  0  0
   -4.9285    1.9302    0.0000 C   0  0  0  0  0  0  0  0  0  0  0  0
   -4.1785    0.6312    0.0000 C   0  0  0  0  0  0  0  0  0  0  0  0
    0.0436    2.4349    0.0000 C   0  0  0  0  0  0  0  0  0  0  0  0
    1.3426    1.6849    0.0000 C   0  0  0  0  0  0  0  0  0  0  0  0
   -1.2555    1.6849    0.0000 C   0  0  0  0  0  0  0  0  0  0  0  0
   -2.5545    2.4349    0.0000 C   0  0  0  0  0  0  0  0  0  0  0  0
   -3.9248    3.0450    0.0000 O   0  0  0  0  0  0  0  0  0  0  0  0
   -2.7113    0.9431    0.0000 O   0  0  0  0  0  0  0  0  0  0  0  0
  4  1  2  0
  7  5  1  0
  8  4  1  0
  9  6  1  0
 10  6  1  0
 11  5  1  0
 13 12  1  0
 14  7  1  1
 15  2  1  1
 15  8  1  0
 15  9  1  0
 15 14  1  0
 16  3  1  1
 16 10  1  0
 16 14  1  0
 17 11  1  0
 17 16  1  0
 18 12  1  0
 18 17  1  0
 19 13  1  0
 19 17  1  0
M  END
>  <NAME>  (2779) 
(5S,8AS)-(-)-5ALPHA-ALLYL-5BETA,8ABETA-DIMETHYL-3,4,4A,5,6,7,8,8A-OCTAHYDRONAPHTHALEN-1(2H)-ONE ETHYLENE ACETAL

>  <SYNONYMS>  (2779) 


>  <SPECTRUM TYPE>  (2779) 
MS1

>  <INSTRUMENT TYPE>  (2779) 
EI-B

>  <INSTRUMENT>  (2779) 
JEOL JMS-DX-300

>  <ION MODE>  (2779) 
P

>  <INCHIKEY>  (2779) 
UCBVADQAJVJIJU-XHSDSOJGSA-N

>  <FORMULA>  (2779) 
C17H28O2

>  <EXACT MASS>  (2779) 
264.208930136

>  <MW>  (2779) 
264

>  <ID>  (2779) 
JP008003

>  <CONTRIBUTOR>  (2779) 
University of Tokyo Team, {Faculty of Engineering, University of Tokyo

>  <COMMENT>  (2779) 
SMILES=C=CCC(C)(C3)C([H])(C1)C(C)(CC3)C(O2)(OCC2)CC1
InChI=InChI=1S/C17H28O2/c1-4-8-15(2)9-6-10-16(3)14(15)7-5-11-17(16)18-12-13-19-17/h4,14H,1,5-13H2,2-3H3/t14-,15+,16-/m0/s1
computed SMILES=O1CCOC12CCCC3C(C)(CC=C)CCCC32C
accession=JP008003
date=2016.01.19 (Created 2008.10.21, modified 2011.05.06)
author=HISAHIRO HAGIWARA, CHEMICAL RESEARCH INSTITUTE OF NON-AQUEOUSSOLUTIONS TOHOKU UNIV.
license=CC BY-NC-SA
exact mass=264.20893
ionization energy=70 eV
ion type=[M]+*
computed spectral entropy=2.900629395605693
computed normalized entropy=0.9011311878501749
SPLASH=splash10-001j-9100000000-bb9f39c9024fdb3bbbd5
submitter=submitter = University of Tokyo Team (Faculty of Engineering, University of Tokyo)
MoNA Rating=3.75

>  <NUM PEAKS>  (2779) 
25

>  <MASS SPECTRAL PEAKS>  (2779) 
31 73.81
32 74.93
40 15.3
41 19.14
42 6.1
43 49.69
45 35.05
55 16.42
58 18.18
59 47.39
67 7.35
69 8.22
73 7.58
74 33.13
81 6.42
86 25.48
87 23
99 99.99
100 27.86
104 5.35
105 5.48
125 20.42
161 17.87
223 33.45
264 17.25

>  <PREDICTED SPECTRUM>  (2779) 
26 35
27 125
28 35
29 126
31 29
36 1
38 16
39 135
40 100
41 281
42 178
43 222
44 91
45 165
46 20
50 1
51 40
52 61
53 188
54 117
55 343
56 87
57 115
58 61
59 72
60 60
61 37
65 75
66 76
67 216
68 126
69 180
70 84
71 188
72 115
73 264
74 61
75 32
76 20
77 145
78 78
79 196
80 128
81 228
82 107
83 108
84 84
85 120
86 423
87 413
88 128
89 63
91 175
92 70
93 155
94 94
95 222
96 86
97 161
98 65
99 999
100 432
101 142
102 25
103 55
104 41
105 135
106 57
107 121
108 124
109 150
110 62
111 106
112 128
113 363
114 110
115 90
116 44
117 63
118 40
119 63
120 62
121 128
122 91
123 124
124 63
125 75
126 245
127 174
128 36
129 122
130 52
131 94
132 58
133 94
134 70
135 92
136 39
137 176
138 108
139 84
140 53
141 66
142 38
143 63
145 84
146 30
147 45
148 66
149 123
150 90
151 76
152 76
153 71
154 46
155 22
157 64
158 37
159 125
160 70
161 73
162 38
163 131
164 148
165 159
166 94
167 108
168 17
169 69
170 4
173 19
174 38
175 60
176 91
177 46
178 93
179 23
180 10
181 47
182 80
183 20
184 24
187 20
189 77
190 20
191 95
192 61
193 94
194 46
195 65
196 36
202 120
203 4
204 9
205 97
206 80
207 93
208 101
209 50
210 47
219 141
220 83
221 197
222 92
223 84
235 85
236 119
237 60
238 15
249 114
250 43
263 10
264 335
265 46
266 48

$$$$

     RDKit          2D

 22 23  0  0  1  0  0  0  0  0999 V2000
    0.4758   -7.8665    0.0000 C   0  0  0  0  0  0  0  0  0  0  0  0
   -1.9655   -6.9776    0.0000 C   0  0  0  0  0  0  0  0  0  0  0  0
   -2.3541   -2.7492    0.0000 C   0  0  0  0  0  0  0  0  0  0  0  0
   -0.0900    2.1500    0.0000 C   0  0  0  0  0  0  0  0  0  0  0  0
   -0.9391   -4.1587    0.0000 C   0  0  0  0  0  0  0  0  0  0  0  0
   -2.6900    0.6500    0.0000 C   0  0  0  0  0  0  0  0  0  0  0  0
    0.0249   -5.3078    0.0000 C   0  0  0  0  0  0  0  0  0  0  0  0
    2.5100   -0.8500    0.0000 C   0  0  0  0  0  0  0  0  0  0  0  0
    1.2100   -1.6000    0.0000 C   0  0  0  0  0  0  0  0  0  0  0  0
   -0.4259   -2.7492    0.0000 C   0  0  0  0  0  0  0  0  0  0  0  0
   -2.6900   -0.8500    0.0000 C   0  0  0  0  0  0  0  0  0  0  0  0
   -1.3900    1.4000    0.0000 C   0  0  0  0  0  0  0  0  0  0  0  0
    3.8089    1.4002    0.0000 C   0  0  0  0  0  0  0  0  0  0  0  0
    1.2100    2.9000    0.0000 C   0  0  0  0  0  0  0  0  0  0  0  0
   -0.4882   -6.7173    0.0000 C   0  0  0  0  0  0  0  0  0  0  0  0
    2.5100    0.6500    0.0000 C   0  0  0  0  0  0  0  0  0  0  0  0
    1.2100    1.4000    0.0000 C   0  0  0  0  0  0  0  0  0  0  0  0
   -0.0900   -0.8500    0.0000 C   0  0  0  0  0  0  0  0  0  0  0  0
   -1.3900   -1.6000    0.0000 C   0  0  0  0  0  0  0  0  0  0  0  0
   -0.0900    0.6500    0.0000 C   0  0  0  0  0  0  0  0  0  0  0  0
    3.8087    2.9002    0.0000 O   0  0  0  0  0  0  0  0  0  0  0  0
    2.5090    3.6500    0.0000 O   0  0  0  0  0  0  0  0  0  0  0  0
  7  5  1  0
  9  8  1  0
 10  5  1  0
 11  6  1  0
 12  6  1  0
 15  1  1  0
 15  2  1  0
 15  7  2  0
 16  8  2  0
 16 13  1  0
 17 14  1  6
 17 16  1  0
 18  9  1  1
 19  3  1  1
 19 10  1  0
 19 11  1  0
 19 18  1  0
 20  4  1  1
 20 12  1  0
 20 17  1  0
 20 18  1  0
 21 13  2  0
 22 14  2  0
M  END
>  <NAME>  (2780) 
(1S,4AS,5S,8AS)-5BETA,8ABETA-DIMETHYL-1ALPHA,2-DIFORMYL-5AALPHA-(4-METHYL-3-PENTENYL)-1,4,4A,5,6,7,8,8AALPHA)-OCTAHYDRONAPHTHALENE

>  <SYNONYMS>  (2780) 
ISOSACCULATAL

>  <SPECTRUM TYPE>  (2780) 
MS1

>  <INSTRUMENT TYPE>  (2780) 
EI-B

>  <INSTRUMENT>  (2780) 
JEOL JMS-DX-300

>  <ION MODE>  (2780) 
P

>  <INCHIKEY>  (2780) 
CJRSLLMDIKKFIM-IYWMVGAKSA-N

>  <FORMULA>  (2780) 
C20H30O2

>  <EXACT MASS>  (2780) 
302.2245802

>  <MW>  (2780) 
302

>  <ID>  (2780) 
JP008002

>  <CONTRIBUTOR>  (2780) 
University of Tokyo Team, {Faculty of Engineering, University of Tokyo

>  <COMMENT>  (2780) 
SMILES=CC(C)=CCCC(C)(C2)C([H])(C1)C(C)(CC2)C([H])(C=O)C(C=O)=C([H])1
InChI=InChI=1S/C20H30O2/c1-15(2)7-5-10-19(3)11-6-12-20(4)17(14-22)16(13-21)8-9-18(19)20/h7-8,13-14,17-18H,5-6,9-12H2,1-4H3/t17-,18+,19-,20-/m1/s1
computed SMILES=O=CC1=CCC2C(C)(CCC=C(C)C)CCCC2(C)C1C=O
accession=JP008002
date=2016.01.19 (Created 2008.10.21, modified 2011.05.06)
author=HISAHIRO HAGIWARA, CHEMICAL RESEARCH INSTITUTE OF NON-AQUEOUSSOLUTIONS TOHOKU UNIV.
license=CC BY-NC-SA
exact mass=302.22458
ionization energy=70 eV
ion type=[M]+*
computed spectral entropy=4.027713208449215
computed normalized entropy=0.9191439359539549
SPLASH=splash10-0a4l-9510000000-a436ae5f400e4cf03f93
submitter=submitter = University of Tokyo Team (Faculty of Engineering, University of Tokyo)
MoNA Rating=3.75

>  <NUM PEAKS>  (2780) 
80

>  <MASS SPECTRAL PEAKS>  (2780) 
31 45.58
32 29.29
39 9.52
41 93.51
42 5.82
43 53.54
45 58.03
53 12.01
55 51.32
56 5.15
57 12.43
59 99.99
65 6.66
67 22.43
69 70.28
70 6.79
71 7.34
73 8.55
74 6.41
77 15.28
79 19.71
81 25.25
82 7.77
83 20.92
91 33.92
93 20.44
95 20.36
96 5.25
97 7.74
105 4.73
106 19.07
108 5.51
109 21.07
115 5.93
117 8.72
119 16.9
121 25.16
122 12.23
123 10.91
129 8.11
130 5.62
131 21.27
133 20.32
134 12.09
135 14.05
137 5.36
143 8.9
145 19.62
147 19
148 6.76
149 16.49
156 8.71
157 7.62
158 13.74
159 24.2
160 5.97
161 13.24
163 8.92
171 6.14
173 12.87
174 12.31
175 9.68
177 6.29
185 5.76
187 9.47
189 14.35
190 6.02
191 6.27
201 37.9
202 13.37
203 10.71
218 7.66
219 10.34
220 8.76
231 12.5
259 33.47
260 7.77
274 6.97
289 5.78
302 17.54

>  <PREDICTED SPECTRUM>  (2780) 
27 57
29 153
39 183
40 37
41 945
42 74
43 701
44 176
45 7
50 6
51 127
52 40
53 374
54 20
55 710
56 14
57 168
63 1
65 218
66 91
67 672
68 115
69 999
70 138
71 3
73 81
75 25
77 608
78 168
79 694
80 191
81 924
82 204
83 234
84 33
85 73
91 717
92 221
93 796
94 211
95 631
96 94
97 241
98 127
99 32
103 60
105 488
106 54
107 813
108 260
109 867
110 177
111 166
115 116
116 49
117 122
119 265
120 1
121 526
122 272
123 403
124 58
125 22
127 87
128 55
129 66
131 189
133 147
134 49
135 671
136 141
137 204
139 2
140 4
141 103
145 86
147 440
148 149
149 365
150 138
151 193
152 66
153 35
159 143
160 49
161 288
162 142
163 219
164 133
165 85
166 75
168 9
173 44
175 295
176 58
177 400
178 122
179 160
187 151
188 23
189 281
190 108
191 240
192 138
201 358
203 343
204 114
205 331
215 156
216 54
217 200
218 170
219 225
220 124
229 102
230 15
231 305
232 102
241 112
243 83
244 1
256 44
257 80
258 86
259 294
260 6
269 106
270 28
271 3
273 380
274 222
284 101
287 217
302 343
303 73

$$$$

     RDKit          2D

 21 22  0  0  1  0  0  0  0  0999 V2000
    0.5658   -7.7665    0.0000 C   0  0  0  0  0  0  0  0  0  0  0  0
   -1.8755   -6.8776    0.0000 C   0  0  0  0  0  0  0  0  0  0  0  0
   -2.2641   -2.6492    0.0000 C   0  0  0  0  0  0  0  0  0  0  0  0
    0.0000    2.2500    0.0000 C   0  0  0  0  0  0  0  0  0  0  0  0
   -0.8491   -4.0587    0.0000 C   0  0  0  0  0  0  0  0  0  0  0  0
   -2.6000    0.7500    0.0000 C   0  0  0  0  0  0  0  0  0  0  0  0
    0.1149   -5.2078    0.0000 C   0  0  0  0  0  0  0  0  0  0  0  0
    2.6000   -0.7500    0.0000 C   0  0  0  0  0  0  0  0  0  0  0  0
    1.3000   -1.5000    0.0000 C   0  0  0  0  0  0  0  0  0  0  0  0
   -0.3359   -2.6492    0.0000 C   0  0  0  0  0  0  0  0  0  0  0  0
   -2.6000   -0.7500    0.0000 C   0  0  0  0  0  0  0  0  0  0  0  0
   -1.3000    1.5000    0.0000 C   0  0  0  0  0  0  0  0  0  0  0  0
    3.8989    1.5002    0.0000 C   0  0  0  0  0  0  0  0  0  0  0  0
   -0.3982   -6.6173    0.0000 C   0  0  0  0  0  0  0  0  0  0  0  0
    2.6000    0.7500    0.0000 C   0  0  0  0  0  0  0  0  0  0  0  0
    0.0000   -0.7500    0.0000 C   0  0  0  0  0  0  0  0  0  0  0  0
    1.3000    1.5000    0.0000 C   0  0  0  0  0  0  0  0  0  0  0  0
   -1.3000   -1.5000    0.0000 C   0  0  0  0  0  0  0  0  0  0  0  0
    0.0000    0.7500    0.0000 C   0  0  0  0  0  0  0  0  0  0  0  0
    3.8987    3.0002    0.0000 O   0  0  0  0  0  0  0  0  0  0  0  0
    1.3000    3.0000    0.0000 O   0  0  0  0  0  0  0  0  0  0  0  0
  7  5  1  0
  9  8  1  0
 10  5  1  0
 11  6  1  0
 12  6  1  0
 14  1  1  0
 14  2  1  0
 14  7  2  0
 15  8  1  0
 15 13  1  0
 16  9  1  1
 17 15  1  0
 18  3  1  1
 18 10  1  0
 18 11  1  0
 18 16  1  0
 19  4  1  1
 19 12  1  0
 19 16  1  0
 19 17  1  0
 20 13  2  0
 21 17  2  0
M  END
>  <NAME>  (2781) 
(2XI,4AS,5S,8AS)-(+)-5BETA,8ABETA-DIMETHYL2-FORMYL-5ALPHA-(4-METYL-3-PENTENYL)-3,4,4AALPHA,5,6,7,8,8A-OCTAHYDRONAPHTHALEN-1(2H)-ONE

>  <SYNONYMS>  (2781) 


>  <SPECTRUM TYPE>  (2781) 
MS1

>  <INSTRUMENT TYPE>  (2781) 
EI-B

>  <INSTRUMENT>  (2781) 
JEOL JMS-DX-300

>  <ION MODE>  (2781) 
P

>  <INCHIKEY>  (2781) 
DBOUDQHWPFHKMO-ATQPIAHYSA-N

>  <FORMULA>  (2781) 
C19H30O2

>  <EXACT MASS>  (2781) 
290.2245802

>  <MW>  (2781) 
290

>  <ID>  (2781) 
JP008000

>  <CONTRIBUTOR>  (2781) 
University of Tokyo Team, {Faculty of Engineering, University of Tokyo

>  <COMMENT>  (2781) 
SMILES=CC(C)=CCCC(C)(C2)C([H])(C1)C(C)(CC2)C(=O)C(C=O)C1
InChI=InChI=1S/C19H30O2/c1-14(2)7-5-10-18(3)11-6-12-19(4)16(18)9-8-15(13-20)17(19)21/h7,13,15-16H,5-6,8-12H2,1-4H3/t15?,16-,18+,19-/m0/s1
computed SMILES=O=CC1C(=O)C2(C)CCCC(C)(CCC=C(C)C)C2CC1
accession=JP008000
date=2016.01.19 (Created 2008.10.21, modified 2011.05.06)
author=HISAHIRO HAGIWARA, CHEMICAL RESEARCH INSTITUTE OF NON-AQUEOUSSOLUTIONS TOHOKU UNIV.
license=CC BY-NC-SA
exact mass=290.22458
ionization energy=70 eV
ion type=[M]+*
computed spectral entropy=3.1130229399868883
computed normalized entropy=0.7542819422762451
SPLASH=splash10-0006-9300000000-e765ce4fb2600aee0f44
submitter=submitter = University of Tokyo Team (Faculty of Engineering, University of Tokyo)
MoNA Rating=3.75

>  <NUM PEAKS>  (2781) 
62

>  <MASS SPECTRAL PEAKS>  (2781) 
32 14.87
37 1.17
38 1.19
39 0.34
40 1.63
41 12.08
42 7.42
43 99.99
44 2.28
45 2.64
53 1.19
55 4.66
56 1
57 3.81
58 41.13
59 1.11
61 2.64
67 4.49
69 6.39
70 3.62
81 6.15
82 1.06
83 3.12
88 1.22
91 1.39
93 2
95 5.65
97 1.84
107 1.11
109 5.04
111 1.34
112 2.26
120 1.72
121 1.31
123 3.18
125 3.37
135 1.89
136 2.77
137 4.12
138 18.88
139 4.86
140 1.84
149 2.33
150 3.04
151 1.73
152 4.62
161 2.33
162 1.18
163 3.25
164 1.33
165 2.17
177 2.52
179 1.09
187 1.3
189 1.43
193 2.66
205 1.28
206 1.02
207 1.75
275 1.35
290 9.18
291 2.44

>  <PREDICTED SPECTRUM>  (2781) 
27 36
28 34
29 58
39 250
40 94
41 999
42 363
43 753
44 417
45 121
50 35
51 119
52 66
53 413
54 124
55 491
56 252
57 361
58 282
59 131
65 112
66 116
67 452
68 136
69 905
70 293
71 152
72 27
77 212
78 196
79 321
80 152
81 571
82 123
83 281
84 264
85 324
86 110
91 112
93 72
94 67
95 544
96 137
97 255
98 92
99 321
105 114
106 63
107 125
108 178
109 387
110 99
111 14
112 118
115 50
116 26
121 253
122 156
123 289
124 15
125 75
126 201
131 60
133 56
134 51
135 292
136 232
137 657
138 429
139 672
140 214
149 221
150 167
151 202
152 188
153 378
154 238
161 179
162 3
163 232
165 492
166 133
167 19
177 58
179 97
180 49
189 28
191 180
193 505
204 54
205 282
206 68
207 287
208 180
219 133
221 32
247 79
261 10
275 223
290 484
291 241

$$$$

     RDKit          2D

 21 22  0  0  1  0  0  0  0  0999 V2000
    0.5658   -7.7665    0.0000 C   0  0  0  0  0  0  0  0  0  0  0  0
   -1.8755   -6.8776    0.0000 C   0  0  0  0  0  0  0  0  0  0  0  0
   -2.2641   -2.6492    0.0000 C   0  0  0  0  0  0  0  0  0  0  0  0
    0.0000    2.2500    0.0000 C   0  0  0  0  0  0  0  0  0  0  0  0
   -0.8491   -4.0587    0.0000 C   0  0  0  0  0  0  0  0  0  0  0  0
   -2.6000    0.7500    0.0000 C   0  0  0  0  0  0  0  0  0  0  0  0
    0.1149   -5.2078    0.0000 C   0  0  0  0  0  0  0  0  0  0  0  0
    2.6000   -0.7500    0.0000 C   0  0  0  0  0  0  0  0  0  0  0  0
    1.3000   -1.5000    0.0000 C   0  0  0  0  0  0  0  0  0  0  0  0
   -0.3359   -2.6492    0.0000 C   0  0  0  0  0  0  0  0  0  0  0  0
   -2.6000   -0.7500    0.0000 C   0  0  0  0  0  0  0  0  0  0  0  0
   -1.3000    1.5000    0.0000 C   0  0  0  0  0  0  0  0  0  0  0  0
    3.8989    1.5002    0.0000 C   0  0  0  0  0  0  0  0  0  0  0  0
   -0.3982   -6.6173    0.0000 C   0  0  0  0  0  0  0  0  0  0  0  0
    2.6000    0.7500    0.0000 C   0  0  0  0  0  0  0  0  0  0  0  0
    0.0000   -0.7500    0.0000 C   0  0  0  0  0  0  0  0  0  0  0  0
    1.3000    1.5000    0.0000 C   0  0  0  0  0  0  0  0  0  0  0  0
   -1.3000   -1.5000    0.0000 C   0  0  0  0  0  0  0  0  0  0  0  0
    0.0000    0.7500    0.0000 C   0  0  0  0  0  0  0  0  0  0  0  0
    3.8987    3.0002    0.0000 O   0  0  0  0  0  0  0  0  0  0  0  0
    1.3000    3.0000    0.0000 O   0  0  0  0  0  0  0  0  0  0  0  0
  7  5  1  0
  9  8  1  0
 10  5  1  0
 11  6  1  0
 12  6  1  0
 14  1  1  0
 14  2  1  0
 14  7  2  0
 15  8  2  0
 15 13  1  0
 16  9  1  1
 17 15  1  0
 18  3  1  1
 18 10  1  0
 18 11  1  0
 18 16  1  0
 19  4  1  0
 19 12  1  0
 19 16  1  0
 19 17  1  0
 20 13  2  0
 21 17  2  0
M  END
>  <NAME>  (2782) 
(4AS,5S,8AS)-(+)-5BETA,8ABETA-DIMETHYL-2-FORMYL-5ALPHA-(4-METHYL-3-PENTENYL)-4A,5,6,7,8,8A-HEXAHYDRONAPHTHALEN-1(4H)-ONE

>  <SYNONYMS>  (2782) 


>  <SPECTRUM TYPE>  (2782) 
MS1

>  <INSTRUMENT TYPE>  (2782) 
EI-B

>  <INSTRUMENT>  (2782) 
JEOL JMS-DX-300

>  <ION MODE>  (2782) 
P

>  <INCHIKEY>  (2782) 
OJVMWXAYNQWVOS-CXEJCQMISA-N

>  <FORMULA>  (2782) 
C19H28O2

>  <EXACT MASS>  (2782) 
288.208930136

>  <MW>  (2782) 
288

>  <ID>  (2782) 
JP007999

>  <CONTRIBUTOR>  (2782) 
University of Tokyo Team, {Faculty of Engineering, University of Tokyo

>  <COMMENT>  (2782) 
SMILES=CC(C)=CCCC(C)(C2)C([H])(C1)C(C)(CC2)C(=O)C(C=O)=C([H])1
InChI=InChI=1S/C19H28O2/c1-14(2)7-5-10-18(3)11-6-12-19(4)16(18)9-8-15(13-20)17(19)21/h7-8,13,16H,5-6,9-12H2,1-4H3/t16-,18+,19?/m0/s1
computed SMILES=O=CC1=CCC2C(C1=O)(C)CCCC2(C)CCC=C(C)C
accession=JP007999
date=2016.01.19 (Created 2008.10.21, modified 2011.05.06)
author=HISAHIRO HAGIWARA, CHEMICAL RESEARCH INSTITUTE OF NON-AQUEOUSSOLUTIONS TOHOKU UNIV.
license=CC BY-NC-SA
exact mass=288.20893
ionization energy=70 eV
ion type=[M]+*
computed spectral entropy=3.6886684358865676
computed normalized entropy=0.9123476779116408
SPLASH=splash10-052f-9610000000-d360c765c0268ab0d880
submitter=submitter = University of Tokyo Team (Faculty of Engineering, University of Tokyo)
MoNA Rating=3.75

>  <NUM PEAKS>  (2782) 
57

>  <MASS SPECTRAL PEAKS>  (2782) 
32 10.05
39 11.89
41 53.15
42 12.75
43 99.99
53 9.86
55 28.82
57 5.74
58 74.3
67 16.79
68 5.01
69 52.06
77 8.55
79 11.29
81 21.81
82 6.44
83 17.25
91 11.19
93 13.94
95 13.54
97 6.22
105 7.7
107 13.07
108 5.86
109 37
110 6.55
121 13.19
122 10.14
123 15.82
133 7.58
134 5.29
135 14.65
136 10.85
137 22.41
138 17.44
147 0.09
149 17.59
150 22.6
151 7.1
159 6.89
161 12.52
162 18.65
163 15.62
164 5.07
175 17.59
176 6.36
177 12.04
189 16.75
191 7.88
192 5.05
203 5.25
245 30.92
246 5.82
260 7.62
273 29.08
274 6.14
288 12.05

>  <PREDICTED SPECTRUM>  (2782) 
27 74
29 189
39 255
40 81
41 976
42 97
43 593
44 75
51 135
52 60
53 501
54 107
55 641
56 72
57 126
58 17
64 29
65 246
66 112
67 749
68 220
69 999
70 141
71 6
75 26
77 531
78 185
79 634
80 150
81 567
82 193
83 216
84 183
85 99
91 524
92 228
93 392
94 188
95 987
96 258
97 185
103 67
105 337
106 21
107 652
108 335
109 977
110 252
111 94
113 30
115 19
119 74
120 31
121 538
122 286
123 502
124 135
125 95
127 21
128 71
129 43
131 295
132 52
133 301
134 103
135 914
136 405
137 586
138 281
139 162
140 10
145 257
147 299
148 148
149 424
150 276
151 278
152 338
153 80
159 138
160 41
161 252
163 458
164 326
165 398
166 9
175 226
176 149
177 470
178 276
179 235
185 2
187 123
189 399
191 863
192 277
193 33
201 69
203 169
204 150
205 908
206 633
207 153
208 26
215 147
216 97
217 471
218 197
219 65
227 224
229 16
231 35
232 137
244 65
245 439
246 56
255 228
256 96
259 340
260 149
270 25
273 322
274 76
288 608
289 231
290 10

$$$$

     RDKit          2D

 24 26  0  0  1  0  0  0  0  0999 V2000
    0.5658   -7.7665    0.0000 C   0  0  0  0  0  0  0  0  0  0  0  0
   -1.8755   -6.8776    0.0000 C   0  0  0  0  0  0  0  0  0  0  0  0
   -2.2641   -2.6492    0.0000 C   0  0  0  0  0  0  0  0  0  0  0  0
    0.0000    2.2500    0.0000 C   0  0  0  0  0  0  0  0  0  0  0  0
   -0.8491   -4.0587    0.0000 C   0  0  0  0  0  0  0  0  0  0  0  0
   -2.6000    0.7500    0.0000 C   0  0  0  0  0  0  0  0  0  0  0  0
    0.1149   -5.2078    0.0000 C   0  0  0  0  0  0  0  0  0  0  0  0
    2.6000   -0.7500    0.0000 C   0  0  0  0  0  0  0  0  0  0  0  0
    1.3000   -1.5000    0.0000 C   0  0  0  0  0  0  0  0  0  0  0  0
   -0.3359   -2.6492    0.0000 C   0  0  0  0  0  0  0  0  0  0  0  0
   -2.6000   -0.7500    0.0000 C   0  0  0  0  0  0  0  0  0  0  0  0
   -1.3000    1.5000    0.0000 C   0  0  0  0  0  0  0  0  0  0  0  0
    5.5226    3.3041    0.0000 C   0  0  0  0  0  0  0  0  0  0  0  0
    6.2729    2.0052    0.0000 C   0  0  0  0  0  0  0  0  0  0  0  0
   -0.3982   -6.6173    0.0000 C   0  0  0  0  0  0  0  0  0  0  0  0
    2.6000    0.7500    0.0000 C   0  0  0  0  0  0  0  0  0  0  0  0
    0.0000   -0.7500    0.0000 C   0  0  0  0  0  0  0  0  0  0  0  0
    1.3000    1.5000    0.0000 C   0  0  0  0  0  0  0  0  0  0  0  0
    3.8989    1.5002    0.0000 C   0  0  0  0  0  0  0  0  0  0  0  0
   -1.3000   -1.5000    0.0000 C   0  0  0  0  0  0  0  0  0  0  0  0
    0.0000    0.7500    0.0000 C   0  0  0  0  0  0  0  0  0  0  0  0
    1.3000    3.0000    0.0000 O   0  0  0  0  0  0  0  0  0  0  0  0
    4.0555    2.9920    0.0000 O   0  0  0  0  0  0  0  0  0  0  0  0
    5.2693    0.8903    0.0000 O   0  0  0  0  0  0  0  0  0  0  0  0
  7  5  1  0
  9  8  1  0
 10  5  1  0
 11  6  1  0
 12  6  1  0
 14 13  1  0
 15  1  1  0
 15  2  1  0
 15  7  2  0
 16  8  2  0
 17  9  1  1
 18 16  1  0
 19 16  1  0
 20  3  1  1
 20 10  1  0
 20 11  1  0
 20 17  1  0
 21  4  1  0
 21 12  1  0
 21 17  1  0
 21 18  1  0
 22 18  2  0
 23 13  1  0
 23 19  1  0
 24 14  1  0
 24 19  1  0
M  END
>  <NAME>  (2783) 
(4AS,5S,8AS)-(-)-5BETA,8ABETA-DIMETHYL-2-ETHYLENEDIOXYMETHYL-5ALPHA-(4-METHYL-3-PENTENYL)-4A,5,6,7,8,8AALPHA-HEXAHYDRONAPHTHALEN-1(4H)-ONE

>  <SYNONYMS>  (2783) 


>  <SPECTRUM TYPE>  (2783) 
MS1

>  <INSTRUMENT TYPE>  (2783) 
EI-B

>  <INSTRUMENT>  (2783) 
JEOL JMS-DX-300

>  <ION MODE>  (2783) 
P

>  <INCHIKEY>  (2783) 
QKVWYHHJSLEUNS-DVUUQMMQSA-N

>  <FORMULA>  (2783) 
C21H32O3

>  <EXACT MASS>  (2783) 
332.23514488399996

>  <MW>  (2783) 
332

>  <ID>  (2783) 
JP007998

>  <CONTRIBUTOR>  (2783) 
University of Tokyo Team, {Faculty of Engineering, University of Tokyo

>  <COMMENT>  (2783) 
SMILES=CC(C)=CCCC(C)(C3)C([H])(C1)C(C)(CC3)C(=O)C(C(O2)OCC2)=C([H])1
InChI=InChI=1S/C21H32O3/c1-15(2)7-5-10-20(3)11-6-12-21(4)17(20)9-8-16(18(21)22)19-23-13-14-24-19/h7-8,17,19H,5-6,9-14H2,1-4H3/t17-,20+,21?/m0/s1
computed SMILES=O=C1C(=CCC2C1(C)CCCC2(C)CCC=C(C)C)C3OCCO3
accession=JP007998
date=2016.01.19 (Created 2008.10.21, modified 2011.05.06)
author=HISAHIRO HAGIWARA, CHEMICAL RESEARCH INSTITUTE OF NON-AQUEOUSSOLUTIONS TOHOKU UNIV.
license=CC BY-NC-SA
exact mass=332.23514
ionization energy=70 eV
ion type=[M]+*
computed spectral entropy=4.269554777303542
computed normalized entropy=0.9291498190582532
SPLASH=splash10-06ec-6931000000-013b0e0f5a244ca819f3
submitter=submitter = University of Tokyo Team (Faculty of Engineering, University of Tokyo)
MoNA Rating=3.75

>  <NUM PEAKS>  (2783) 
99

>  <MASS SPECTRAL PEAKS>  (2783) 
41 65.71
45 44.85
53 10.2
55 33.86
57 7.2
67 8.36
69 70.12
70 5.03
73 99.99
74 6.75
77 10.1
79 1.55
81 29.63
82 16.57
83 26.07
91 16.14
93 17.74
95 19.73
96 6.53
97 13.63
99 5.3
105 12.42
107 18.65
108 8.03
109 68.09
110 13.65
112 10.61
119 7.26
121 14.03
122 8.25
123 18.23
127 10.81
131 5.7
133 12.71
134 11.07
135 26.86
136 12.38
137 15.47
141 18.37
145 0.64
147 14.36
148 25.41
149 20.47
150 6.04
151 7.1
152 9.03
153 9.43
154 36.59
155 6
159 12.37
160 20.71
161 18.79
162 13.06
163 9.93
165 7.27
166 17.66
167 9.61
173 6.81
175 13.11
176 6.87
177 18.13
178 11.64
179 17.69
180 37.12
181 15.15
182 5.46
184 7.61
187 16.16
188 5.91
189 7.71
191 7.31
192 8.34
193 7.83
194 9.03
201 10.09
202 16.14
203 30.26
204 9.76
205 18.6
206 7.34
207 11.3
215 5.28
217 5.9
219 9.63
231 5.42
233 6.86
243 32.86
244 6.78
247 5.9
249 8.98
261 10.53
271 10.79
286 15.29
287 8.97
289 10.89
317 55.54
318 12.27
332 63.53
333 16.61

>  <PREDICTED SPECTRUM>  (2783) 
26 5
27 175
28 50
29 220
31 34
38 31
39 268
40 131
41 656
42 215
43 413
44 176
45 591
46 81
47 112
49 60
50 15
51 96
52 58
53 288
54 84
55 536
56 70
57 151
58 115
59 151
60 84
61 57
64 26
65 175
66 123
67 381
68 130
69 622
70 143
71 116
72 88
73 999
74 203
75 219
76 18
77 245
78 141
79 349
80 181
81 266
82 157
83 193
84 62
85 146
86 186
87 395
88 38
89 56
91 396
92 243
93 434
94 162
95 370
96 149
97 182
98 98
99 213
100 87
101 162
102 32
103 138
104 100
105 327
106 189
107 317
108 135
109 349
110 85
111 64
112 23
113 204
114 86
115 263
116 43
117 163
118 127
119 332
120 219
121 304
122 164
123 213
125 65
126 137
127 230
128 236
129 205
130 110
131 306
132 110
133 293
134 222
135 361
136 116
137 95
138 61
139 154
140 80
141 192
142 69
143 173
144 2
145 142
146 114
147 289
148 230
149 259
150 154
151 79
153 57
154 3
155 62
156 32
157 226
158 51
159 216
161 180
162 102
163 181
164 66
165 79
167 159
168 1
169 89
170 64
171 120
172 33
173 211
174 135
175 173
176 127
177 162
178 133
179 52
181 136
182 156
183 124
184 25
185 38
187 176
188 68
189 284
190 189
191 213
192 97
193 0
195 86
196 115
197 83
198 0
200 39
201 135
202 38
203 245
204 145
205 172
206 171
207 132
208 131
209 206
210 40
211 55
213 32
215 46
216 3
217 184
218 62
219 56
220 33
221 75
222 84
223 92
224 16
229 145
230 50
231 100
232 20
233 28
235 62
237 4
243 32
244 55
245 38
249 32
250 65
261 56
273 25
287 11
289 30
317 168
318 55
332 382
333 211
334 83

$$$$

     RDKit          2D

 19 20  0  0  1  0  0  0  0  0999 V2000
    0.5658   -7.7665    0.0000 C   0  0  0  0  0  0  0  0  0  0  0  0
   -1.8755   -6.8776    0.0000 C   0  0  0  0  0  0  0  0  0  0  0  0
   -2.2641   -2.6492    0.0000 C   0  0  0  0  0  0  0  0  0  0  0  0
    0.0000    2.2500    0.0000 C   0  0  0  0  0  0  0  0  0  0  0  0
    2.6000   -0.7500    0.0000 C   0  0  0  0  0  0  0  0  0  0  0  0
   -0.8491   -4.0587    0.0000 C   0  0  0  0  0  0  0  0  0  0  0  0
   -2.6000    0.7500    0.0000 C   0  0  0  0  0  0  0  0  0  0  0  0
    0.1149   -5.2078    0.0000 C   0  0  0  0  0  0  0  0  0  0  0  0
    1.3000   -1.5000    0.0000 C   0  0  0  0  0  0  0  0  0  0  0  0
    2.6000    0.7500    0.0000 C   0  0  0  0  0  0  0  0  0  0  0  0
   -0.3359   -2.6492    0.0000 C   0  0  0  0  0  0  0  0  0  0  0  0
   -2.6000   -0.7500    0.0000 C   0  0  0  0  0  0  0  0  0  0  0  0
   -1.3000    1.5000    0.0000 C   0  0  0  0  0  0  0  0  0  0  0  0
   -0.3982   -6.6173    0.0000 C   0  0  0  0  0  0  0  0  0  0  0  0
    0.0000   -0.7500    0.0000 C   0  0  0  0  0  0  0  0  0  0  0  0
    1.3000    1.5000    0.0000 C   0  0  0  0  0  0  0  0  0  0  0  0
   -1.3000   -1.5000    0.0000 C   0  0  0  0  0  0  0  0  0  0  0  0
    0.0000    0.7500    0.0000 C   0  0  0  0  0  0  0  0  0  0  0  0
    1.3000    3.0000    0.0000 O   0  0  0  0  0  0  0  0  0  0  0  0
  8  6  1  0
  9  5  1  0
 10  5  1  0
 11  6  1  0
 12  7  1  0
 13  7  1  0
 14  1  1  0
 14  2  1  0
 14  8  2  0
 15  9  1  1
 16 10  1  0
 17  3  1  1
 17 11  1  0
 17 12  1  0
 17 15  1  0
 18  4  1  1
 18 13  1  0
 18 15  1  0
 18 16  1  0
 19 16  2  0
M  END
>  <NAME>  (2784) 
(4AS,5S,8AS)-(-)-5BETA,8ABETA-DIMETHYL-5ALPHA-(4-METHYL-3-PENTENYL)-3,4,4A,5,6,7,8,8A-OCTAHYDRONAPHTHALEN-1(2H)-ONE

>  <SYNONYMS>  (2784) 


>  <SPECTRUM TYPE>  (2784) 
MS1

>  <INSTRUMENT TYPE>  (2784) 
EI-B

>  <INSTRUMENT>  (2784) 
JEOL JMS-DX-300

>  <ION MODE>  (2784) 
P

>  <INCHIKEY>  (2784) 
XHDVQLNRSVLERR-JQHSSLGASA-N

>  <FORMULA>  (2784) 
C18H30O

>  <EXACT MASS>  (2784) 
262.22966558

>  <MW>  (2784) 
262

>  <ID>  (2784) 
JP007997

>  <CONTRIBUTOR>  (2784) 
University of Tokyo Team, {Faculty of Engineering, University of Tokyo

>  <COMMENT>  (2784) 
SMILES=CC(C)=CCCC(C)(C2)C([H])(C1)C(C)(CC2)C(=O)CC1
InChI=InChI=1S/C18H30O/c1-14(2)8-6-11-17(3)12-7-13-18(4)15(17)9-5-10-16(18)19/h8,15H,5-7,9-13H2,1-4H3/t15-,17+,18-/m0/s1
computed SMILES=O=C1CCCC2C1(C)CCCC2(C)CCC=C(C)C
accession=JP007997
date=2016.01.19 (Created 2008.10.21, modified 2011.05.06)
author=HISAHIRO HAGIWARA, CHEMICAL RESEARCH INSTITUTE OF NON-AQUEOUSSOLUTIONS TOHOKU UNIV.
license=CC BY-NC-SA
exact mass=262.22967
ionization energy=70 eV
ion type=[M]+*
computed spectral entropy=3.7129210093411835
computed normalized entropy=0.9223842522597306
SPLASH=splash10-0ar3-8900000000-15c15ef3b99e578ada1e
submitter=submitter = University of Tokyo Team (Faculty of Engineering, University of Tokyo)
MoNA Rating=3.75

>  <NUM PEAKS>  (2784) 
56

>  <MASS SPECTRAL PEAKS>  (2784) 
39 8.85
41 79.42
42 5.13
43 21.11
53 12.91
55 53.04
57 6.34
67 36.55
68 14.72
69 99.99
70 7.74
77 6.83
79 16.44
80 5.61
81 55.51
82 24.64
83 29.96
84 5.68
91 9.27
93 22.76
94 9.22
95 50.97
96 16.4
97 12.67
105 16.25
107 19.43
108 10.75
109 71.64
110 18.32
111 28.75
112 8.58
119 10.21
121 20.17
122 21.15
123 25.07
124 60.19
125 12.72
133 10.18
134 6.09
135 37.97
136 23.4
137 28.49
138 6.91
149 1.91
151 6.53
159 8.09
161 34.78
162 27.55
163 11.43
177 40.98
178 56.57
179 39.49
180 10.36
247 10.33
262 45.3
263 10.52

>  <PREDICTED SPECTRUM>  (2784) 
27 104
28 42
29 176
38 9
39 318
40 178
41 955
42 330
43 999
44 217
45 95
50 43
51 122
52 82
53 450
54 229
55 760
56 288
57 342
58 182
59 128
60 50
63 86
64 72
65 268
66 183
67 547
68 318
69 814
70 273
71 185
72 110
75 3
76 9
77 352
78 222
79 453
80 198
81 637
82 385
83 324
84 367
85 251
86 118
87 59
88 37
91 457
92 215
93 447
94 253
95 674
96 302
97 316
98 245
99 270
100 99
101 51
103 18
104 57
105 281
106 176
107 434
108 240
109 576
110 402
111 563
112 531
113 237
115 67
117 49
119 211
120 203
121 328
122 216
123 401
124 164
125 163
126 85
127 95
128 15
131 168
132 53
133 257
134 182
135 438
136 195
137 269
138 233
139 16
145 97
147 149
148 94
149 230
150 91
151 229
152 186
154 1
156 15
159 60
160 0
161 179
162 65
163 254
165 251
171 37
173 68
174 12
175 181
176 82
177 273
178 139
179 523
180 304
181 78
187 22
188 92
189 221
190 113
191 374
192 125
193 248
194 63
201 105
202 40
203 96
204 53
205 106
206 11
218 36
219 214
220 31
229 256
230 99
244 35
245 22
247 448
248 129
260 3
262 487
263 173
264 47

$$$$

     RDKit          2D

 28 30  0  0  1  0  0  0  0  0999 V2000
    0.5658   -7.7665    0.0000 C   0  0  0  0  0  0  0  0  0  0  0  0
   -1.8755   -6.8776    0.0000 C   0  0  0  0  0  0  0  0  0  0  0  0
   -1.3000    3.0000    0.0000 C   0  0  0  0  0  0  0  0  0  0  0  0
    3.8989    1.5002    0.0000 C   0  0  0  0  0  0  0  0  0  0  0  0
   -2.2641   -2.6492    0.0000 C   0  0  0  0  0  0  0  0  0  0  0  0
    1.4713    6.0465    0.0000 C   0  0  0  0  0  0  0  0  0  0  0  0
   -0.8491   -4.0587    0.0000 C   0  0  0  0  0  0  0  0  0  0  0  0
    0.1149   -5.2078    0.0000 C   0  0  0  0  0  0  0  0  0  0  0  0
    2.6000   -0.7500    0.0000 C   0  0  0  0  0  0  0  0  0  0  0  0
    1.3000   -1.5000    0.0000 C   0  0  0  0  0  0  0  0  0  0  0  0
   -2.6000    0.7500    0.0000 C   0  0  0  0  0  0  0  0  0  0  0  0
   -0.3359   -2.6492    0.0000 C   0  0  0  0  0  0  0  0  0  0  0  0
   -2.6000   -0.7500    0.0000 C   0  0  0  0  0  0  0  0  0  0  0  0
    1.7509    4.0587    0.0000 C   0  0  0  0  0  0  0  0  0  0  0  0
    2.2641    2.6492    0.0000 C   0  0  0  0  0  0  0  0  0  0  0  0
    4.8962    6.2720    0.0000 C   0  0  0  0  0  0  0  0  0  0  0  0
    5.1052    4.7866    0.0000 C   0  0  0  0  0  0  0  0  0  0  0  0
   -0.3982   -6.6173    0.0000 C   0  0  0  0  0  0  0  0  0  0  0  0
   -1.3000    1.5000    0.0000 C   0  0  0  0  0  0  0  0  0  0  0  0
    2.6000    0.7500    0.0000 C   0  0  0  0  0  0  0  0  0  0  0  0
    0.0000   -0.7500    0.0000 C   0  0  0  0  0  0  0  0  0  0  0  0
    0.0000    0.7500    0.0000 C   0  0  0  0  0  0  0  0  0  0  0  0
   -1.3000   -1.5000    0.0000 C   0  0  0  0  0  0  0  0  0  0  0  0
    2.7149    5.2078    0.0000 C   0  0  0  0  0  0  0  0  0  0  0  0
    1.3000    1.5000    0.0000 C   0  0  0  0  0  0  0  0  0  0  0  0
    0.3359    2.6492    0.0000 O   0  0  0  0  0  0  0  0  0  0  0  0
    3.4190    6.5323    0.0000 O   0  0  0  0  0  0  0  0  0  0  0  0
    3.7570    4.1289    0.0000 O   0  0  0  0  0  0  0  0  0  0  0  0
  8  7  1  0
 10  9  1  0
 12  7  1  0
 13 11  1  0
 15 14  1  0
 17 16  1  0
 18  1  1  0
 18  2  1  0
 18  8  2  0
 19  3  1  1
 19 11  1  0
 20  4  1  6
 20  9  1  0
 21 10  1  6
 22 19  1  6
 22 21  1  0
 23  5  1  1
 23 12  1  0
 23 13  1  0
 23 21  1  0
 24  6  1  0
 24 14  1  0
 25 15  1  0
 25 20  1  0
 22 25  1  0
 25 26  1  1
 27 16  1  0
 27 24  1  0
 28 17  1  0
 28 24  1  0
M  END
>  <NAME>  (2785) 
(1XI,2R,4AS,5S,8AS)-(+)-1-(3,3-ETHYLENEDIOXYMETHYL)-1-HYDROXY-2ALPHA,5BETA,8ABETA-TRIMETHYLDECAHYDRONAPHTHALENE

>  <SYNONYMS>  (2785) 


>  <SPECTRUM TYPE>  (2785) 
MS1

>  <INSTRUMENT TYPE>  (2785) 
EI-B

>  <INSTRUMENT>  (2785) 
JEOL JMS-DX-300

>  <ION MODE>  (2785) 
P

>  <INCHIKEY>  (2785) 
OHSDHPLKGVDPKJ-JHEMSPQDSA-N

>  <FORMULA>  (2785) 
C25H44O3

>  <EXACT MASS>  (2785) 
392.32904526799996

>  <MW>  (2785) 
392

>  <ID>  (2785) 
JP007996

>  <CONTRIBUTOR>  (2785) 
University of Tokyo Team, {Faculty of Engineering, University of Tokyo

>  <COMMENT>  (2785) 
SMILES=C(C1([H])2)(O)(CCC(C)(O3)OCC3)C([H])(C)CCC1([H])C(C)(CCC=C(C)C)CCC2([H])C
InChI=InChI=1S/C25H44O3/c1-18(2)8-7-12-23(5)13-11-19(3)22-21(23)10-9-20(4)25(22,26)15-14-24(6)27-16-17-28-24/h8,19-22,26H,7,9-17H2,1-6H3/t19-,20-,21+,22+,23-,25?/m1/s1
computed SMILES=OC1(CCC2(OCCO2)C)C(C)CCC3C1C(C)CCC3(C)CCC=C(C)C
computed InChI=InChI=1S/C25H44O3/c1-18(2)8-7-12-23(5)13-11-19(3)22-21(23)10-9-20(4)25(22,26)15-14-24(6)27-16-17-28-24/h8,19-22,26H,7,9-17H2,1-6H3/t19-,20-,21+,22+,23-,25+/m1/s1
accession=JP007996
date=2016.01.19 (Created 2008.10.21, modified 2011.05.06)
author=HISAHIRO HAGIWARA, CHEMICAL RESEARCH INSTITUTE OF NON-AQUEOUSSOLUTIONS TOHOKU UNIV.
license=CC BY-NC-SA
exact mass=392.32905
ionization energy=70 eV
ion type=[M]+*
computed spectral entropy=3.765072697411507
computed normalized entropy=0.9158813483002977
SPLASH=splash10-052b-9710000000-48b4394777fdf0c90508
submitter=submitter = University of Tokyo Team (Faculty of Engineering, University of Tokyo)
MoNA Rating=3.75

>  <NUM PEAKS>  (2785) 
61

>  <MASS SPECTRAL PEAKS>  (2785) 
41 41.7
43 7.53
53 6.86
55 32.54
57 5.2
67 17.88
68 7.1
69 43.24
79 8.18
81 27.93
82 12.3
83 10.95
86 27.87
87 11.81
91 5.14
93 10.62
95 23.52
96 11.18
97 5.16
99 99.99
100 15.53
101 6.09
105 6.08
107 11.01
108 5.78
109 32.59
110 5.84
113 9.31
114 6.64
119 5.84
121 7.79
122 9.14
123 12.42
124 5.92
125 11.35
128 7.93
135 10.98
136 13.91
137 8.21
138 22.73
139 6.05
149 8.28
151 8.26
161 9.64
162 26.93
163 12.14
175 10.02
176 8.87
191 10.35
192 7.46
193 12.85
194 5.84
223 14.58
224 6.96
261 5.46
262 6.77
276 20.6
306 33.42
308 1.06
320 4.46
392 0.22

>  <PREDICTED SPECTRUM>  (2785) 
27 85
29 100
39 72
40 73
41 598
42 191
43 608
44 128
45 409
51 4
53 222
54 8
55 488
56 57
57 189
59 110
60 83
61 47
65 37
66 71
67 358
68 88
69 481
70 105
71 154
73 146
74 29
75 131
77 172
78 55
79 307
80 161
81 551
82 141
83 119
84 9
85 106
86 80
87 999
88 100
89 61
91 210
92 64
93 490
94 66
95 347
96 39
97 98
99 901
100 300
101 249
103 109
105 191
106 91
107 373
108 67
109 312
110 42
111 133
112 39
113 440
115 129
117 69
118 44
119 229
120 53
121 228
122 9
123 228
124 33
125 317
126 153
127 200
128 108
131 81
133 99
135 252
136 182
137 212
138 6
139 285
141 115
142 44
145 115
147 148
148 68
149 73
151 158
152 25
153 142
155 101
156 16
157 42
159 221
160 47
161 158
162 65
163 126
164 31
165 133
166 58
167 35
168 62
169 133
170 15
171 12
173 171
175 194
177 100
178 49
179 96
180 70
183 106
189 47
191 132
193 101
194 45
195 17
197 119
206 47
207 151
208 44
209 97
211 60
213 38
217 0
219 50
223 52
231 72
233 209
234 88
235 100
236 16
241 42
245 133
246 75
247 204
249 27
250 92
259 161
261 100
270 19
273 136
275 181
276 84
277 101
291 67
292 87
293 33
316 21
330 179
349 46
374 20
377 76
392 11
393 102

$$$$

     RDKit          2D

 29 30  0  0  1  0  0  0  0  0999 V2000
    6.4062   10.4000    0.0000 C   0  0  0  0  0  0  0  0  0  0  0  0
    0.4758   -7.8665    0.0000 C   0  0  0  0  0  0  0  0  0  0  0  0
   -1.9655   -6.9776    0.0000 C   0  0  0  0  0  0  0  0  0  0  0  0
    1.2100    5.9000    0.0000 C   0  0  0  0  0  0  0  0  0  0  0  0
    3.8089    1.4002    0.0000 C   0  0  0  0  0  0  0  0  0  0  0  0
   -2.3541   -2.7492    0.0000 C   0  0  0  0  0  0  0  0  0  0  0  0
   -0.0900    2.1500    0.0000 C   0  0  0  0  0  0  0  0  0  0  0  0
    5.1071    9.6500    0.0000 C   0  0  0  0  0  0  0  0  0  0  0  0
   -0.9391   -4.1587    0.0000 C   0  0  0  0  0  0  0  0  0  0  0  0
   -2.6900    0.6500    0.0000 C   0  0  0  0  0  0  0  0  0  0  0  0
    0.0249   -5.3078    0.0000 C   0  0  0  0  0  0  0  0  0  0  0  0
    2.5090    3.6500    0.0000 C   0  0  0  0  0  0  0  0  0  0  0  0
    2.5100   -0.8500    0.0000 C   0  0  0  0  0  0  0  0  0  0  0  0
    1.2100    2.9000    0.0000 C   0  0  0  0  0  0  0  0  0  0  0  0
    1.2100   -1.6000    0.0000 C   0  0  0  0  0  0  0  0  0  0  0  0
   -0.4259   -2.7492    0.0000 C   0  0  0  0  0  0  0  0  0  0  0  0
   -2.6900   -0.8500    0.0000 C   0  0  0  0  0  0  0  0  0  0  0  0
   -1.3900    1.4000    0.0000 C   0  0  0  0  0  0  0  0  0  0  0  0
    3.8081    5.9000    0.0000 C   0  0  0  0  0  0  0  0  0  0  0  0
   -0.4882   -6.7173    0.0000 C   0  0  0  0  0  0  0  0  0  0  0  0
    2.5090    5.1500    0.0000 C   0  0  0  0  0  0  0  0  0  0  0  0
    2.5100    0.6500    0.0000 C   0  0  0  0  0  0  0  0  0  0  0  0
    1.2100    1.4000    0.0000 C   0  0  0  0  0  0  0  0  0  0  0  0
   -0.0900   -0.8500    0.0000 C   0  0  0  0  0  0  0  0  0  0  0  0
    3.8081    7.4000    0.0000 C   0  0  0  0  0  0  0  0  0  0  0  0
   -1.3900   -1.6000    0.0000 C   0  0  0  0  0  0  0  0  0  0  0  0
   -0.0900    0.6500    0.0000 C   0  0  0  0  0  0  0  0  0  0  0  0
    2.5090    8.1500    0.0000 O   0  0  0  0  0  0  0  0  0  0  0  0
    5.1071    8.1500    0.0000 O   0  0  0  0  0  0  0  0  0  0  0  0
  8  1  1  0
 11  9  1  0
 14 12  1  0
 15 13  1  0
 16  9  1  0
 17 10  1  0
 18 10  1  0
 20  2  1  0
 20  3  1  0
 20 11  2  0
 21  4  1  0
 21 12  1  0
 19 21  2  0
 22  5  1  0
 22 13  1  0
 23 14  1  0
 23 22  2  0
 24 15  1  1
 25 19  1  0
 26  6  1  1
 26 16  1  0
 26 17  1  0
 26 24  1  0
 27  7  1  1
 27 18  1  0
 27 23  1  0
 27 24  1  0
 28 25  2  0
 29  8  1  0
 29 25  1  0
M  END
>  <NAME>  (2786) 
ETHYL (4'AS,5'S,8'AS)-E-(+)-3-METHYL-5-((5'ALPHA-(4'-METHYL-3'-PENTENYL)-2',5'BETA,8'ABETA-TRIMETHYL-3',4',4'A,5',6',7',8',8'A-OCTAHYDRONAPHTHALENYL)-2-PENTENOATE

>  <SYNONYMS>  (2786) 


>  <SPECTRUM TYPE>  (2786) 
MS1

>  <INSTRUMENT TYPE>  (2786) 
EI-B

>  <INSTRUMENT>  (2786) 
JEOL JMS-DX-300

>  <ION MODE>  (2786) 
P

>  <INCHIKEY>  (2786) 
OZGYOMIOZULOOP-IONFVZKMSA-N

>  <FORMULA>  (2786) 
C27H44O2

>  <EXACT MASS>  (2786) 
400.334130648

>  <MW>  (2786) 
400

>  <ID>  (2786) 
JP007994

>  <CONTRIBUTOR>  (2786) 
University of Tokyo Team, {Faculty of Engineering, University of Tokyo

>  <COMMENT>  (2786) 
SMILES=CC(CCC=C(C)C)(C([H])12)CCCC(C)1C(CCC(C)=CC(=O)OCC)=C(CC2)C
InChI=InChI=1S/C27H44O2/c1-8-29-25(28)19-21(4)12-14-23-22(5)13-15-24-26(6,16-9-11-20(2)3)17-10-18-27(23,24)7/h11,19,24H,8-10,12-18H2,1-7H3/b21-19+/t24-,26+,27+/m0/s1
computed SMILES=O=C(OCC)C=C(C)CCC1=C(C)CCC2C1(C)CCCC2(C)CCC=C(C)C
accession=JP007994
date=2016.01.19 (Created 2008.10.21, modified 2011.05.06)
author=HISAHIRO HAGIWARA, CHEMICAL RESEARCH INSTITUTE OF NON-AQUEOUSSOLUTIONS TOHOKU UNIV.
license=CC BY-NC-SA
exact mass=400.33413
ionization energy=70 eV
ion type=[M]+*
computed spectral entropy=3.6704974086756885
computed normalized entropy=0.9039647642245187
SPLASH=splash10-069r-5910000000-9ba557619cbebdeb71aa
submitter=submitter = University of Tokyo Team (Faculty of Engineering, University of Tokyo)
MoNA Rating=3.75

>  <NUM PEAKS>  (2786) 
58

>  <MASS SPECTRAL PEAKS>  (2786) 
41 13.14
53 5.98
55 31.96
57 8.21
67 17.33
69 95.14
70 5.65
71 7.23
77 7.57
79 17.8
81 31.12
82 1.01
83 21.95
91 19.1
93 27.48
95 42.21
97 11.57
100 9.82
105 22.65
107 31.77
108 7.6
109 33.88
111 5.32
113 5.76
119 50.6
120 7.91
121 30.1
122 11.44
123 15.84
128 99.99
129 9.69
131 6.21
133 57.39
134 10.08
135 24.89
137 0.93
145 8.2
147 24.41
149 18.79
159 8.68
161 17.68
163 15.67
173 11.92
175 16.57
176 6.75
177 11.85
187 5.31
189 16.48
191 16.33
203 5.69
217 6.77
257 6.09
259 6.35
273 63.73
274 11.1
317 5.89
318 6.6
400 8

>  <PREDICTED SPECTRUM>  (2786) 
27 89
28 15
29 178
39 131
40 3
41 699
42 103
43 691
44 57
45 156
51 12
53 265
54 68
55 615
56 76
57 161
65 119
66 23
67 587
68 190
69 898
70 117
71 188
73 61
77 275
78 52
79 449
80 149
81 999
82 338
83 274
84 57
85 63
86 22
87 90
91 354
92 91
93 618
94 154
95 822
96 149
97 127
98 22
99 175
100 22
105 392
106 146
107 683
108 336
109 801
110 143
111 32
112 28
113 0
115 54
117 75
119 187
120 192
121 820
122 214
123 426
124 57
125 119
127 11
128 10
131 212
133 335
134 62
135 564
136 136
137 345
138 102
139 98
143 10
145 208
146 1
147 311
148 62
149 229
150 23
151 35
159 130
161 203
162 11
163 80
171 4
173 212
174 73
175 462
176 68
177 432
178 70
179 42
187 73
188 59
189 90
190 60
191 439
192 142
199 118
201 115
203 91
204 71
205 132
206 82
207 55
215 110
217 4
218 5
220 20
227 29
241 35
243 42
245 44
249 15
255 104
257 22
264 41
271 4
284 46
285 167
286 23
287 2
288 2
316 20
327 6
329 67
330 4
355 69
400 259
401 105

$$$$

     RDKit          2D

 27 28  0  0  1  0  0  0  0  0999 V2000
   -9.7802    9.8974    0.0000 C   0  0  0  0  0  0  0  0  0  0  0  0
  -10.2311    7.3388    0.0000 C   0  0  0  0  0  0  0  0  0  0  0  0
    2.5090    3.6500    0.0000 C   0  0  0  0  0  0  0  0  0  0  0  0
   -0.0884    8.1506    0.0000 C   0  0  0  0  0  0  0  0  0  0  0  0
   -6.7634    4.8880    0.0000 C   0  0  0  0  0  0  0  0  0  0  0  0
   -1.3886    4.3992    0.0000 C   0  0  0  0  0  0  0  0  0  0  0  0
   -7.2766    6.8181    0.0000 C   0  0  0  0  0  0  0  0  0  0  0  0
   -3.9876    2.8975    0.0000 C   0  0  0  0  0  0  0  0  0  0  0  0
   -7.7898    8.2276    0.0000 C   0  0  0  0  0  0  0  0  0  0  0  0
    1.2100    5.9000    0.0000 C   0  0  0  0  0  0  0  0  0  0  0  0
   -2.6866    8.1508    0.0000 C   0  0  0  0  0  0  0  0  0  0  0  0
   -0.0890    5.1500    0.0000 C   0  0  0  0  0  0  0  0  0  0  0  0
   -3.9862    7.4000    0.0000 C   0  0  0  0  0  0  0  0  0  0  0  0
   -5.7993    6.5578    0.0000 C   0  0  0  0  0  0  0  0  0  0  0  0
   -5.2866    3.6475    0.0000 C   0  0  0  0  0  0  0  0  0  0  0  0
   -2.6881    3.6483    0.0000 C   0  0  0  0  0  0  0  0  0  0  0  0
    3.8081    5.9000    0.0000 C   0  0  0  0  0  0  0  0  0  0  0  0
   -9.2670    8.4879    0.0000 C   0  0  0  0  0  0  0  0  0  0  0  0
    2.5090    5.1500    0.0000 C   0  0  0  0  0  0  0  0  0  0  0  0
   -1.3876    7.4008    0.0000 C   0  0  0  0  0  0  0  0  0  0  0  0
   -1.3881    5.9000    0.0000 C   0  0  0  0  0  0  0  0  0  0  0  0
   -3.9866    5.8992    0.0000 C   0  0  0  0  0  0  0  0  0  0  0  0
    3.8081    7.4000    0.0000 C   0  0  0  0  0  0  0  0  0  0  0  0
   -5.2862    5.1483    0.0000 C   0  0  0  0  0  0  0  0  0  0  0  0
   -2.6876    5.1492    0.0000 C   0  0  0  0  0  0  0  0  0  0  0  0
    2.5090    8.1500    0.0000 O   0  0  0  0  0  0  0  0  0  0  0  0
    5.1071    8.1500    0.0000 O   0  0  0  0  0  0  0  0  0  0  0  0
  9  7  1  0
 12 10  1  0
 13 11  1  0
 14  7  1  0
 15  8  1  0
 16  8  1  0
 18  1  1  0
 18  2  1  0
 18  9  2  0
 19  3  1  0
 19 10  1  0
 17 19  2  0
 20  4  1  0
 20 11  1  0
 21 12  1  0
 21 20  2  0
 22 13  1  6
 23 17  1  0
 24  5  1  6
 24 14  1  0
 24 15  1  0
 24 22  1  0
 25  6  1  6
 25 16  1  0
 25 21  1  0
 25 22  1  0
 26 23  2  0
 27 23  1  0
M  END
>  <NAME>  (2787) 
(4'AS,5'S,8'AS)-E-(+)-3-METHYL-5-((5'ALPHA-(4'-METHYL-3'-PENTENYL)-2',5'BETA,8'ABETA,TRIMETHYL-3',4',4'A,5',6',7',8',8'A-OCTAHYDRONAPHTHALENYL))-2-PENTENOIC ACID

>  <SYNONYMS>  (2787) 
DYSIDEAPALAUNIC ACID

>  <SPECTRUM TYPE>  (2787) 
MS1

>  <INSTRUMENT TYPE>  (2787) 
EI-B

>  <INSTRUMENT>  (2787) 
JEOL JMS-DX-300

>  <ION MODE>  (2787) 
P

>  <INCHIKEY>  (2787) 
VMXBEUNFNFIWLY-NHLIJQSASA-N

>  <FORMULA>  (2787) 
C25H40O2

>  <EXACT MASS>  (2787) 
372.30283052

>  <MW>  (2787) 
372

>  <ID>  (2787) 
JP007993

>  <CONTRIBUTOR>  (2787) 
University of Tokyo Team, {Faculty of Engineering, University of Tokyo

>  <COMMENT>  (2787) 
SMILES=CC(C)=CCCC(C)(C2)C([H])(C1)C(C)(CC2)C(CCC(C)=C([H])C(O)=O)=C(C)C1
InChI=InChI=1S/C25H40O2/c1-18(2)9-7-14-24(5)15-8-16-25(6)21(20(4)11-13-22(24)25)12-10-19(3)17-23(26)27/h9,17,22H,7-8,10-16H2,1-6H3,(H,26,27)/b19-17-/t22-,24+,25+/m0/s1
computed SMILES=O=C(O)C=C(C)CCC1=C(C)CCC2C1(C)CCCC2(C)CCC=C(C)C
accession=JP007993
date=2016.01.19 (Created 2008.10.21, modified 2011.05.06)
author=HISAHIRO HAGIWARA, CHEMICAL RESEARCH INSTITUTE OF NON-AQUEOUSSOLUTIONS TOHOKU UNIV.
license=CC BY-NC-SA
exact mass=372.30283
ionization energy=70 eV
ion type=[M]+*
computed spectral entropy=3.5738763373078277
computed normalized entropy=0.9135621984709391
SPLASH=splash10-0159-5910000000-1c9211ed70806d755a52
submitter=submitter = University of Tokyo Team (Faculty of Engineering, University of Tokyo)
MoNA Rating=3.75

>  <NUM PEAKS>  (2787) 
50

>  <MASS SPECTRAL PEAKS>  (2787) 
41 38.55
55 26
67 12.23
69 99.99
77 5.11
79 11.85
81 31.6
83 1.91
91 12.4
93 21.38
95 37.6
97 11.25
100 7.65
105 16.4
107 26.92
108 6.72
109 39.75
111 5.98
119 70.31
120 10.08
121 27.65
122 9.91
123 15.82
133 56.14
134 9.94
135 25.23
137 11.24
145 6.53
147 22.11
148 6
149 14.6
150 6.12
159 5.79
161 20.82
162 5.02
163 15.38
173 10.93
175 14.58
177 8.27
189 20.88
191 11.53
217 5.48
219 8.25
257 11.75
259 14.76
260 6.07
273 36.68
274 8.02
289 6.7
372 8.05

>  <PREDICTED SPECTRUM>  (2787) 
17 13
18 24
27 178
28 67
29 225
30 35
31 30
39 163
40 58
41 715
42 154
43 651
44 138
45 159
51 7
53 315
54 136
55 622
56 55
57 219
58 39
59 33
65 106
66 68
67 617
68 186
69 889
70 142
71 175
72 87
73 132
77 277
78 131
79 535
80 175
81 999
82 306
83 276
84 221
85 125
86 115
87 72
91 368
92 177
93 594
94 146
95 800
96 202
97 133
98 8
99 172
100 8
101 8
103 28
104 6
105 388
106 124
107 556
108 309
109 886
110 283
111 138
112 13
113 19
114 37
115 55
117 135
118 8
119 356
120 142
121 609
122 183
123 360
124 40
125 93
128 29
131 220
132 3
133 188
134 94
135 408
136 190
137 631
138 79
139 80
143 15
144 0
145 151
146 15
147 164
148 112
149 279
150 143
151 297
152 129
153 107
154 32
157 19
159 265
160 99
161 166
162 76
163 183
164 8
165 117
166 85
167 137
168 32
170 1
171 145
172 18
173 146
174 14
175 519
176 203
177 514
178 153
179 140
185 51
186 20
187 160
188 103
189 151
190 67
191 142
192 98
193 111
199 78
201 71
202 28
203 110
204 256
205 407
206 22
215 67
217 26
218 27
219 15
220 184
221 332
222 64
227 40
229 90
236 52
241 0
243 102
255 37
256 71
257 131
258 47
259 99
260 55
285 96
312 1
329 63
354 76
355 13
357 72
372 196
373 176

$$$$

     RDKit          2D

 14 14  0  0  0  0  0  0  0  0999 V2000
   -3.8971    0.7500    0.0000 C   0  0  0  0  0  0  0  0  0  0  0  0
   -1.2993   -3.7508    0.0000 C   0  0  0  0  0  0  0  0  0  0  0  0
    1.2996    0.7506    0.0000 C   0  0  0  0  0  0  0  0  0  0  0  0
    5.1962   -1.5000    0.0000 C   0  0  0  0  0  0  0  0  0  0  0  0
   -2.5986   -1.5008    0.0000 C   0  0  0  0  0  0  0  0  0  0  0  0
   -1.2986    0.7508    0.0000 C   0  0  0  0  0  0  0  0  0  0  0  0
    2.5981   -1.5000    0.0000 C   0  0  0  0  0  0  0  0  0  0  0  0
   -2.5981   -0.0000    0.0000 C   0  0  0  0  0  0  0  0  0  0  0  0
   -1.2995   -2.2508    0.0000 C   0  0  0  0  0  0  0  0  0  0  0  0
    0.0005    0.0008    0.0000 C   0  0  0  0  0  0  0  0  0  0  0  0
    3.8971   -2.2500    0.0000 C   0  0  0  0  0  0  0  0  0  0  0  0
   -0.0000   -1.5000    0.0000 C   0  0  0  0  0  0  0  0  0  0  0  0
    3.8971   -3.7500    0.0000 N   0  0  0  0  0  0  0  0  0  0  0  0
    1.2990   -2.2500    0.0000 O   0  0  0  0  0  0  0  0  0  0  0  0
  8  1  1  0
  8  5  2  0
  8  6  1  0
  9  2  1  0
  9  5  1  0
 10  3  1  0
 10  6  2  0
 11  4  1  0
 11  7  1  0
 12  9  2  0
 12 10  1  0
 13 11  1  0
 14  7  1  0
 14 12  1  0
M  END
>  <NAME>  (2788) 
1-(2,4,6-TRIMETHYLPHENOXY)-2-AMINOPROPANE

>  <SYNONYMS>  (2788) 


>  <SPECTRUM TYPE>  (2788) 
MS1

>  <INSTRUMENT TYPE>  (2788) 
EI-B

>  <INSTRUMENT>  (2788) 
JEOL JMS-D-300

>  <ION MODE>  (2788) 
P

>  <INCHIKEY>  (2788) 
QDZOEZPRNQIPHY-UHFFFAOYSA-N

>  <FORMULA>  (2788) 
C12H19NO

>  <EXACT MASS>  (2788) 
193.146664228

>  <MW>  (2788) 
193

>  <ID>  (2788) 
JP007991

>  <CONTRIBUTOR>  (2788) 
University of Tokyo Team, {Faculty of Engineering, University of Tokyo

>  <COMMENT>  (2788) 
SMILES=CC(N)COc(c(C)1)c(C)cc(C)c1
InChI=InChI=1S/C12H19NO/c1-8-5-9(2)12(10(3)6-8)14-7-11(4)13/h5-6,11H,7,13H2,1-4H3
computed SMILES=O(C=1C(=CC(=CC1C)C)C)CC(N)C
accession=JP007991
date=2016.01.19 (Created 2008.10.21, modified 2011.05.06)
author=HAMAMATSU UNIV. SCHOOL OF MEDICINE
license=CC BY-NC-SA
exact mass=193.14666
ionization energy=70 eV
ion type=[M]+*
computed spectral entropy=1.6527051279810117
computed normalized entropy=0.5612971230427354
SPLASH=splash10-0a4i-9200000000-ab79efed56bac03bef2d
submitter=submitter = University of Tokyo Team (Faculty of Engineering, University of Tokyo)
MoNA Rating=3.75

>  <NUM PEAKS>  (2788) 
19

>  <MASS SPECTRAL PEAKS>  (2788) 
52 1.38
54 1.12
56 1.09
57 2.15
58 99.99
59 4.07
65 2.89
77 3.98
78 1.03
79 2.46
91 8.49
92 1.19
103 1.16
105 1.71
119 2.33
121 7.35
135 4.53
136 11.32
193 2.96

>  <PREDICTED SPECTRUM>  (2788) 
39 20
40 19
41 192
42 233
43 169
50 34
51 111
52 55
53 124
54 40
56 185
57 187
58 999
59 238
63 52
65 134
66 23
67 0
68 12
77 213
78 100
79 157
80 39
89 38
91 236
92 78
93 34
103 86
104 43
105 112
106 2
107 22
108 23
115 83
117 93
119 201
120 93
121 268
122 58
135 148
136 348
137 23
150 94
193 119
194 6

$$$$

     RDKit          2D

 13 13  0  0  0  0  0  0  0  0999 V2000
   -1.9890    0.2624    0.0000 C   0  0  0  0  0  0  0  0  0  0  0  0
    0.5749   -4.2742    0.0000 C   0  0  0  0  0  0  0  0  0  0  0  0
    4.4773   -2.0197    0.0000 C   0  0  0  0  0  0  0  0  0  0  0  0
   -3.3135   -3.4264    0.0000 C   0  0  0  0  0  0  0  0  0  0  0  0
   -3.3011   -1.9588    0.0000 C   0  0  0  0  0  0  0  0  0  0  0  0
   -2.0545   -4.2180    0.0000 C   0  0  0  0  0  0  0  0  0  0  0  0
    1.8793   -2.0106    0.0000 C   0  0  0  0  0  0  0  0  0  0  0  0
   -2.0084   -1.2375    0.0000 C   0  0  0  0  0  0  0  0  0  0  0  0
   -0.7125   -3.5044    0.0000 C   0  0  0  0  0  0  0  0  0  0  0  0
    3.1809   -1.2651    0.0000 C   0  0  0  0  0  0  0  0  0  0  0  0
   -0.7188   -2.0014    0.0000 C   0  0  0  0  0  0  0  0  0  0  0  0
    3.1862    0.2349    0.0000 N   0  0  0  0  0  0  0  0  0  0  0  0
    0.5829   -1.2560    0.0000 O   0  0  0  0  0  0  0  0  0  0  0  0
  5  4  2  0
  6  4  1  0
  8  1  1  0
  8  5  1  0
  9  2  1  0
  9  6  2  0
 10  3  1  0
 10  7  1  0
 11  8  2  0
 11  9  1  0
 12 10  1  0
 13  7  1  0
 13 11  1  0
M  END
>  <NAME>  (2789) 
1-(2,6-DIMETHYLPHENOXY)-2-AMINOPROPANE

>  <SYNONYMS>  (2789) 
MEXILETINE

>  <SPECTRUM TYPE>  (2789) 
MS1

>  <INSTRUMENT TYPE>  (2789) 
EI-B

>  <INSTRUMENT>  (2789) 
JEOL JMS-D-300

>  <ION MODE>  (2789) 
P

>  <INCHIKEY>  (2789) 
VLPIATFUUWWMKC-UHFFFAOYSA-N

>  <FORMULA>  (2789) 
C11H17NO

>  <EXACT MASS>  (2789) 
179.131014164

>  <MW>  (2789) 
179

>  <ID>  (2789) 
JP007989

>  <CONTRIBUTOR>  (2789) 
University of Tokyo Team, {Faculty of Engineering, University of Tokyo

>  <COMMENT>  (2789) 
SMILES=CC(N)COc(c(C)1)c(C)ccc1
InChI=InChI=1S/C11H17NO/c1-8-5-4-6-9(2)11(8)13-7-10(3)12/h4-6,10H,7,12H2,1-3H3
computed SMILES=O(C=1C(=CC=CC1C)C)CC(N)C
accession=JP007989
date=2016.01.19 (Created 2008.10.21, modified 2011.05.06)
author=HAMAMATSU UNIV. SCHOOL OF MEDICINE
license=CC BY-NC-SA
exact mass=179.13101
ionization energy=70 eV
ion type=[M]+*
computed spectral entropy=1.820634322986418
computed normalized entropy=0.5980032534586338
SPLASH=splash10-0a4i-9100000000-6d40293ed4e486f9cf9e
submitter=submitter = University of Tokyo Team (Faculty of Engineering, University of Tokyo)
MoNA Rating=3.75

>  <NUM PEAKS>  (2789) 
21

>  <MASS SPECTRAL PEAKS>  (2789) 
52 3.29
53 1.28
54 2.67
56 2.27
57 4.65
58 99.99
59 3.76
63 1.26
65 3.24
77 10.2
78 2.7
79 3.82
91 6.15
92 1.42
93 1.15
103 2.25
105 3.83
107 4.12
121 3.92
122 3.89
179 1.7

>  <PREDICTED SPECTRUM>  (2789) 
15 22
27 38
28 34
30 13
38 9
39 196
40 81
41 323
42 254
43 252
44 515
45 21
50 149
51 257
52 152
53 212
54 58
55 41
56 173
57 232
58 999
59 319
61 85
62 70
63 147
64 31
65 223
66 51
67 56
74 69
75 87
76 66
77 462
78 218
79 294
80 99
89 24
91 281
92 97
93 12
94 24
103 96
105 213
107 312
108 86
121 183
122 687
123 128
136 12
179 153
180 17

$$$$

     RDKit          2D

 14 15  0  0  0  0  0  0  0  0999 V2000
    2.9518   -0.2853    0.0000 C   0  0  0  0  0  0  0  0  0  0  0  0
   -5.1979    0.4979    0.0000 C   0  0  0  0  0  0  0  0  0  0  0  0
   -4.3156   -0.7162    0.0000 C   0  0  0  0  0  0  0  0  0  0  0  0
   -4.5885    1.8694    0.0000 C   0  0  0  0  0  0  0  0  0  0  0  0
   -2.8239   -0.5588    0.0000 C   0  0  0  0  0  0  0  0  0  0  0  0
   -3.0968    2.0269    0.0000 C   0  0  0  0  0  0  0  0  0  0  0  0
    0.0273    2.2692    0.0000 C   0  0  0  0  0  0  0  0  0  0  0  0
   -2.2145    0.8128    0.0000 C   0  0  0  0  0  0  0  0  0  0  0  0
   -0.7227    0.9702    0.0000 C   0  0  0  0  0  0  0  0  0  0  0  0
    1.4870    1.9576    0.0000 C   0  0  0  0  0  0  0  0  0  0  0  0
    0.2770   -0.1382    0.0000 C   0  0  0  0  0  0  0  0  0  0  0  0
    1.6528    0.4647    0.0000 N   0  0  0  0  0  0  0  0  0  0  0  0
    2.5992    2.9641    0.0000 O   0  0  0  0  0  0  0  0  0  0  0  0
   -0.0385   -1.6046    0.0000 O   0  0  0  0  0  0  0  0  0  0  0  0
  3  2  2  0
  4  2  1  0
  5  3  1  0
  6  4  2  0
  8  5  2  0
  8  6  1  0
  9  7  1  0
  9  8  1  0
 10  7  1  0
 11  9  1  0
 12  1  1  0
 12 10  1  0
 12 11  1  0
 13 10  2  0
 14 11  2  0
M  END
>  <NAME>  (2790) 
PHENSUXIMIDE

>  <SYNONYMS>  (2790) 
1-METHYL-3-PHENYL-2,5-PYRROLIDINEDIONE

>  <SPECTRUM TYPE>  (2790) 
MS1

>  <INSTRUMENT TYPE>  (2790) 
EI-B

>  <INSTRUMENT>  (2790) 
JEOL JMS-D-300

>  <ION MODE>  (2790) 
P

>  <INCHIKEY>  (2790) 
WLWFNJKHKGIJNW-UHFFFAOYSA-N

>  <FORMULA>  (2790) 
C11H11NO2

>  <EXACT MASS>  (2790) 
189.078978592

>  <MW>  (2790) 
189

>  <ID>  (2790) 
JP007976

>  <CONTRIBUTOR>  (2790) 
University of Tokyo Team, {Faculty of Engineering, University of Tokyo

>  <COMMENT>  (2790) 
SMILES=O=C(C1)N(C)C(=O)C1c(c2)cccc2
InChI=InChI=1S/C11H11NO2/c1-12-10(13)7-9(11(12)14)8-5-3-2-4-6-8/h2-6,9H,7H2,1H3
computed SMILES=O=C1N(C(=O)C(C=2C=CC=CC2)C1)C
accession=JP007976
date=2016.01.19 (Created 2008.10.21, modified 2011.05.06)
author=HAMAMATSU UNIV. SCHOOL OF MEDICINE
license=CC BY-NC-SA
exact mass=189.07898
ionization energy=70 eV
ion type=[M]+*
computed spectral entropy=2.013617889070736
computed normalized entropy=0.6514365038509925
SPLASH=splash10-0udi-3900000000-ebb2c45214a57c99d4f6
submitter=submitter = University of Tokyo Team (Faculty of Engineering, University of Tokyo)
MoNA Rating=3.75

>  <NUM PEAKS>  (2790) 
22

>  <MASS SPECTRAL PEAKS>  (2790) 
51 11.98
52 4.04
55 1.79
56 1.33
57 1.78
63 2.49
65 1.1
69 1.02
71 1.27
76 1.77
77 9.52
78 11.56
79 1.16
89 1.21
91 1.11
102 4.76
103 11.39
104 99.99
105 9.54
187 1.32
189 27.18
190 3.45

>  <PREDICTED SPECTRUM>  (2790) 
27 27
28 3
39 138
40 33
41 44
42 185
50 158
51 270
52 140
53 9
55 44
56 68
57 72
58 38
62 1
63 99
64 5
65 52
70 23
75 5
76 113
77 345
78 255
89 127
90 33
91 257
103 217
104 999
105 314
115 66
117 95
118 52
119 16
131 27
132 104
146 164
147 8
160 30
161 188
188 17
189 729
190 227
191 21

$$$$

     RDKit          2D

 15 16  0  0  0  0  0  0  0  0999 V2000
    1.0899   -0.5685    0.0000 C   0  0  0  0  0  0  0  0  0  0  0  0
   -3.5877   -0.7086    0.0000 C   0  0  0  0  0  0  0  0  0  0  0  0
    3.7282    3.1908    0.0000 C   0  0  0  0  0  0  0  0  0  0  0  0
    2.3575    3.8021    0.0000 C   0  0  0  0  0  0  0  0  0  0  0  0
    3.8851    1.6982    0.0000 C   0  0  0  0  0  0  0  0  0  0  0  0
    1.1437    2.9208    0.0000 C   0  0  0  0  0  0  0  0  0  0  0  0
    2.6713    0.8169    0.0000 C   0  0  0  0  0  0  0  0  0  0  0  0
   -0.6632    1.8459    0.0000 C   0  0  0  0  0  0  0  0  0  0  0  0
    1.3006    1.4282    0.0000 C   0  0  0  0  0  0  0  0  0  0  0  0
   -2.1229    1.5343    0.0000 C   0  0  0  0  0  0  0  0  0  0  0  0
   -0.9129   -0.5615    0.0000 C   0  0  0  0  0  0  0  0  0  0  0  0
    0.0868    0.5469    0.0000 C   0  0  0  0  0  0  0  0  0  0  0  0
   -2.2887    0.0414    0.0000 N   0  0  0  0  0  0  0  0  0  0  0  0
   -3.2351    2.5407    0.0000 O   0  0  0  0  0  0  0  0  0  0  0  0
   -0.5974   -2.0280    0.0000 O   0  0  0  0  0  0  0  0  0  0  0  0
  4  3  2  0
  5  3  1  0
  6  4  1  0
  7  5  2  0
  9  6  2  0
  9  7  1  0
 10  8  1  0
 12  1  1  0
 12  8  1  0
 12  9  1  0
 12 11  1  0
 13  2  1  0
 13 10  1  0
 13 11  1  0
 14 10  2  0
 15 11  2  0
M  END
>  <NAME>  (2791) 
METHSUXIMIDE

>  <SYNONYMS>  (2791) 
1,3-DIMETHYL-3-PHENYL-2,5-PYRROLIDINEDIONE

>  <SPECTRUM TYPE>  (2791) 
MS1

>  <INSTRUMENT TYPE>  (2791) 
EI-B

>  <INSTRUMENT>  (2791) 
JEOL JMS-D-300

>  <ION MODE>  (2791) 
P

>  <INCHIKEY>  (2791) 
AJXPJJZHWIXJCJ-UHFFFAOYSA-N

>  <FORMULA>  (2791) 
C12H13NO2

>  <EXACT MASS>  (2791) 
203.094628656

>  <MW>  (2791) 
203

>  <ID>  (2791) 
JP007975

>  <CONTRIBUTOR>  (2791) 
University of Tokyo Team, {Faculty of Engineering, University of Tokyo

>  <COMMENT>  (2791) 
SMILES=O=C(C1)N(C)C(=O)C(C)1c(c2)cccc2
InChI=InChI=1S/C12H13NO2/c1-12(9-6-4-3-5-7-9)8-10(14)13(2)11(12)15/h3-7H,8H2,1-2H3
computed SMILES=O=C1N(C(=O)C(C=2C=CC=CC2)(C)C1)C
accession=JP007975
date=2016.01.19 (Created 2008.10.21, modified 2011.05.06)
author=HAMAMATSU UNIV. SCHOOL OF MEDICINE
license=CC BY-NC-SA
exact mass=203.09463
ionization energy=70 eV
ion type=[M]+*
computed spectral entropy=2.4366971255348906
computed normalized entropy=0.723636190154602
SPLASH=splash10-014i-3910000000-9cae394b5b94a483c401
submitter=submitter = University of Tokyo Team (Faculty of Engineering, University of Tokyo)
MoNA Rating=3.75

>  <NUM PEAKS>  (2791) 
29

>  <MASS SPECTRAL PEAKS>  (2791) 
51 3.24
52 8.5
53 1.48
55 1.66
57 1.29
58 4.22
63 2.82
65 2.57
74 1.04
75 1.72
76 1.95
77 14.27
78 12.76
79 1.51
89 1.58
90 1.29
91 8.34
92 1.03
102 3.36
103 17.88
104 1.83
115 7.97
116 2.56
117 35.14
118 99.99
119 11.06
149 1.26
203 27.12
204 4.27

>  <PREDICTED SPECTRUM>  (2791) 
38 5
39 129
40 41
41 86
42 149
43 90
50 138
51 371
52 136
53 46
55 56
56 97
57 111
58 131
62 51
63 179
64 86
65 155
66 15
69 20
70 27
71 39
74 6
75 81
76 52
77 616
78 339
79 101
83 86
84 13
85 87
89 160
90 123
91 341
92 77
102 60
103 480
104 670
105 108
115 157
117 274
118 999
119 260
120 89
128 25
131 183
132 39
146 19
160 62
174 47
175 3
188 143
203 704
204 251
205 20

$$$$

     RDKit          2D

 11 11  0  0  0  0  0  0  0  0999 V2000
    2.6377   -1.2149    0.0000 C   0  0  0  0  0  0  0  0  0  0  0  0
    0.8082   -2.2431    0.0000 C   0  0  0  0  0  0  0  0  0  0  0  0
   -2.7887    1.6863    0.0000 C   0  0  0  0  0  0  0  0  0  0  0  0
    1.4230   -0.3348    0.0000 C   0  0  0  0  0  0  0  0  0  0  0  0
   -0.4065    0.4732    0.0000 C   0  0  0  0  0  0  0  0  0  0  0  0
   -2.3665   -0.9468    0.0000 C   0  0  0  0  0  0  0  0  0  0  0  0
    0.0535   -0.9468    0.0000 C   0  0  0  0  0  0  0  0  0  0  0  0
   -1.9065    0.4732    0.0000 N   0  0  0  0  0  0  0  0  0  0  0  0
    0.4757    1.6863    0.0000 O   0  0  0  0  0  0  0  0  0  0  0  0
   -3.7942   -1.4068    0.0000 O   0  0  0  0  0  0  0  0  0  0  0  0
   -1.1565   -1.8368    0.0000 O   0  0  0  0  0  0  0  0  0  0  0  0
  4  1  1  0
  7  2  1  0
  7  4  1  0
  7  5  1  0
  8  3  1  0
  8  5  1  0
  8  6  1  0
  9  5  2  0
 10  6  2  0
 11  6  1  0
 11  7  1  0
M  END
>  <NAME>  (2792) 
PARAMETHADIONE

>  <SYNONYMS>  (2792) 
5-METHYL-3,5-DIMETHYL-2,4-OXAZOLIDINEDIONE

>  <SPECTRUM TYPE>  (2792) 
MS1

>  <INSTRUMENT TYPE>  (2792) 
EI-B

>  <INSTRUMENT>  (2792) 
JEOL JMS-D-300

>  <ION MODE>  (2792) 
P

>  <INCHIKEY>  (2792) 
VQASKUSHBVDKGU-UHFFFAOYSA-N

>  <FORMULA>  (2792) 
C7H11NO3

>  <EXACT MASS>  (2792) 
157.073893212

>  <MW>  (2792) 
157

>  <ID>  (2792) 
JP007974

>  <CONTRIBUTOR>  (2792) 
University of Tokyo Team, {Faculty of Engineering, University of Tokyo

>  <COMMENT>  (2792) 
SMILES=CCC(C)(O1)C(=O)N(C)C(=O)1
InChI=InChI=1S/C7H11NO3/c1-4-7(2)5(9)8(3)6(10)11-7/h4H2,1-3H3
computed SMILES=O=C1OC(C(=O)N1C)(C)CC
accession=JP007974
date=2016.01.19 (Created 2008.10.21, modified 2011.05.06)
author=HAMAMATSU UNIV. SCHOOL OF MEDICINE
license=CC BY-NC-SA
exact mass=157.07389
ionization energy=70 eV
ion type=[M]+*
computed spectral entropy=2.0131378666484125
computed normalized entropy=0.67200192901755
SPLASH=splash10-004i-6900000000-cb5c4b22a5f6eea03ccb
submitter=submitter = University of Tokyo Team (Faculty of Engineering, University of Tokyo)
MoNA Rating=3.75

>  <NUM PEAKS>  (2792) 
20

>  <MASS SPECTRAL PEAKS>  (2792) 
51 1.35
53 1.89
54 1.15
55 9.19
56 8.54
57 35.18
58 11.5
69 1.71
70 1.35
71 1.49
72 11.76
73 5.96
83 2.24
87 1.97
100 4.61
128 10.34
129 99.99
130 5.98
142 1.3
157 2.41

>  <PREDICTED SPECTRUM>  (2792) 
26 16
27 19
29 11
38 42
39 315
40 219
41 506
42 568
43 999
44 461
45 22
50 3
51 25
52 144
53 234
54 198
55 594
56 464
57 456
58 474
59 217
70 373
71 179
72 419
73 59
82 79
83 34
84 198
85 333
86 13
98 80
99 88
100 356
101 159
102 41
112 17
113 85
114 216
128 832
129 725
130 271
142 200
157 10

$$$$

     RDKit          2D

 19 21  0  0  0  0  0  0  0  0999 V2000
   -0.2809    5.5055    0.0000 C   0  0  0  0  0  0  0  0  0  0  0  0
   -5.1522    1.9630    0.0000 C   0  0  0  0  0  0  0  0  0  0  0  0
   -1.6520    4.8951    0.0000 C   0  0  0  0  0  0  0  0  0  0  0  0
    0.9338    4.6241    0.0000 C   0  0  0  0  0  0  0  0  0  0  0  0
   -4.6880    0.5358    0.0000 C   0  0  0  0  0  0  0  0  0  0  0  0
   -4.1490    3.0793    0.0000 C   0  0  0  0  0  0  0  0  0  0  0  0
   -1.8084    3.4032    0.0000 C   0  0  0  0  0  0  0  0  0  0  0  0
    0.7774    3.1322    0.0000 C   0  0  0  0  0  0  0  0  0  0  0  0
   -3.2206    0.2248    0.0000 C   0  0  0  0  0  0  0  0  0  0  0  0
   -2.6816    2.7683    0.0000 C   0  0  0  0  0  0  0  0  0  0  0  0
   -0.5936    2.5218    0.0000 C   0  0  0  0  0  0  0  0  0  0  0  0
   -2.2174    1.3410    0.0000 C   0  0  0  0  0  0  0  0  0  0  0  0
   -1.2100   -0.3900    0.0000 C   0  0  0  0  0  0  0  0  0  0  0  0
    1.2100   -0.3900    0.0000 C   0  0  0  0  0  0  0  0  0  0  0  0
   -0.7500    1.0300    0.0000 C   0  0  0  0  0  0  0  0  0  0  0  0
    0.0000   -1.2800    0.0000 N   0  0  0  0  0  0  0  0  0  0  0  0
    0.7500    1.0300    0.0000 N   0  0  0  0  0  0  0  0  0  0  0  0
   -2.6377   -0.8500    0.0000 O   0  0  0  0  0  0  0  0  0  0  0  0
    2.6377   -0.8500    0.0000 O   0  0  0  0  0  0  0  0  0  0  0  0
  3  1  2  0
  4  1  1  0
  5  2  2  0
  6  2  1  0
  7  3  1  0
  8  4  2  0
  9  5  1  0
 10  6  2  0
 11  7  2  0
 11  8  1  0
 12  9  2  0
 12 10  1  0
 15 11  1  0
 15 12  1  0
 15 13  1  0
 16 13  2  0
 16 14  1  0
 17 14  2  0
 17 15  1  0
 18 13  1  0
 19 14  1  0
M  END
>  <NAME>  (2793) 
PHENYTOIN

>  <SYNONYMS>  (2793) 
DIPHENYLHYDANTOIN

>  <SPECTRUM TYPE>  (2793) 
MS1

>  <INSTRUMENT TYPE>  (2793) 
EI-B

>  <INSTRUMENT>  (2793) 
JEOL JMS-D-300

>  <ION MODE>  (2793) 
P

>  <INCHIKEY>  (2793) 
CXOFVDLJLONNDW-UHFFFAOYSA-N

>  <FORMULA>  (2793) 
C15H12N2O2

>  <EXACT MASS>  (2793) 
252.089877624

>  <MW>  (2793) 
252

>  <ID>  (2793) 
JP007973

>  <CONTRIBUTOR>  (2793) 
University of Tokyo Team, {Faculty of Engineering, University of Tokyo

>  <COMMENT>  (2793) 
SMILES=O=C(N3)NC(C(=O)3)(c(c2)cccc2)c(c1)cccc1
InChI=InChI=1S/C15H12N2O2/c18-13-15(17-14(19)16-13,11-7-3-1-4-8-11)12-9-5-2-6-10-12/h1-10H,(H2,16,17,18,19)
computed SMILES=OC=1N=C(O)C(N1)(C=2C=CC=CC2)C=3C=CC=CC3
accession=JP007973
date=2016.01.19 (Created 2008.10.21, modified 2011.05.06)
author=HAMAMATSU UNIV. SCHOOL OF MEDICINE
license=CC BY-NC-SA
exact mass=252.08988
ionization energy=70 eV
ion type=[M]+*
computed spectral entropy=3.178846046891764
computed normalized entropy=0.7969061820715264
SPLASH=splash10-0zgi-5960000000-e1dcb47a1c082f04f456
submitter=submitter = University of Tokyo Team (Faculty of Engineering, University of Tokyo)
MoNA Rating=3.75

>  <NUM PEAKS>  (2793) 
54

>  <MASS SPECTRAL PEAKS>  (2793) 
51 9.86
52 23.82
53 5.18
54 1.52
60 1.57
62 1.02
63 2.57
65 2.24
74 2.35
75 2.32
76 13.32
77 62.26
78 17.81
82 16.7
83 8.67
87 1.35
89 1.44
90 10.5
91 1.55
93 3.18
94 1.99
102 2.1
103 6.62
104 66.58
105 11.58
115 1.55
127 1.38
130 2.38
132 1.33
139 2.63
145 1.13
147 10.72
151 1.8
152 4.1
153 1.82
163 2.68
164 4.18
165 27.23
166 5.15
174 1.13
175 5.65
179 2.1
180 99.99
181 26.1
182 5.18
206 1.24
208 21.86
209 54.53
210 9.06
223 49.79
224 8.81
225 1.24
252 52.17
253 10.64

>  <PREDICTED SPECTRUM>  (2793) 
39 84
41 31
42 176
43 7
44 220
45 28
50 90
51 495
52 61
56 1
57 216
58 32
63 28
69 85
70 197
74 38
76 48
77 990
78 314
82 17
83 50
86 123
90 43
91 120
104 648
105 617
106 69
118 187
120 63
121 125
154 3
156 94
165 753
166 551
175 8
180 130
181 92
184 40
194 252
195 130
223 339
224 270
225 81
251 422
252 999
253 299

$$$$

     RDKit          2D

 15 16  0  0  0  0  0  0  0  0999 V2000
    3.1239    2.0857    0.0000 C   0  0  0  0  0  0  0  0  0  0  0  0
    1.6322    2.2431    0.0000 C   0  0  0  0  0  0  0  0  0  0  0  0
   -5.4932   -1.7699    0.0000 C   0  0  0  0  0  0  0  0  0  0  0  0
   -4.3807   -2.7773    0.0000 C   0  0  0  0  0  0  0  0  0  0  0  0
   -5.1780   -0.3026    0.0000 C   0  0  0  0  0  0  0  0  0  0  0  0
   -2.9530   -2.3173    0.0000 C   0  0  0  0  0  0  0  0  0  0  0  0
   -3.7502    0.1574    0.0000 C   0  0  0  0  0  0  0  0  0  0  0  0
   -2.6377   -0.8500    0.0000 C   0  0  0  0  0  0  0  0  0  0  0  0
   -1.2100   -0.3900    0.0000 C   0  0  0  0  0  0  0  0  0  0  0  0
   -0.7500    1.0300    0.0000 C   0  0  0  0  0  0  0  0  0  0  0  0
    1.2100   -0.3900    0.0000 C   0  0  0  0  0  0  0  0  0  0  0  0
   -0.0000   -1.2800    0.0000 N   0  0  0  0  0  0  0  0  0  0  0  0
    0.7500    1.0300    0.0000 N   0  0  0  0  0  0  0  0  0  0  0  0
   -1.6322    2.2431    0.0000 O   0  0  0  0  0  0  0  0  0  0  0  0
    2.6377   -0.8500    0.0000 O   0  0  0  0  0  0  0  0  0  0  0  0
  2  1  1  0
  4  3  2  0
  5  3  1  0
  6  4  1  0
  7  5  2  0
  8  6  2  0
  8  7  1  0
  9  8  1  0
 10  9  1  0
 12  9  1  0
 12 11  2  0
 13  2  1  0
 13 10  1  0
 13 11  1  0
 14 10  2  0
 15 11  1  0
M  END
>  <NAME>  (2794) 
ETHOTOIN

>  <SYNONYMS>  (2794) 
3-ETHYL-5-PHENYL-2,4-IMIDAZOLIDINEDIONE

>  <SPECTRUM TYPE>  (2794) 
MS1

>  <INSTRUMENT TYPE>  (2794) 
EI-B

>  <INSTRUMENT>  (2794) 
JEOL JMS-D-300

>  <ION MODE>  (2794) 
P

>  <INCHIKEY>  (2794) 
SZQIFWWUIBRPBZ-UHFFFAOYSA-N

>  <FORMULA>  (2794) 
C11H12N2O2

>  <EXACT MASS>  (2794) 
204.089877624

>  <MW>  (2794) 
204

>  <ID>  (2794) 
JP007972

>  <CONTRIBUTOR>  (2794) 
University of Tokyo Team, {Faculty of Engineering, University of Tokyo

>  <COMMENT>  (2794) 
SMILES=CCN(C(=O)2)C(=O)C(N2)c(c1)cccc1
InChI=InChI=1S/C11H12N2O2/c1-2-13-10(14)9(12-11(13)15)8-6-4-3-5-7-8/h3-7,9H,2H2,1H3,(H,12,15)
computed SMILES=O=C1N(C(O)=NC1C=2C=CC=CC2)CC
accession=JP007972
date=2016.01.19 (Created 2008.10.21, modified 2011.05.06)
author=HAMAMATSU UNIV. SCHOOL OF MEDICINE
license=CC BY-NC-SA
exact mass=204.08988
ionization energy=70 eV
ion type=[M]+*
computed spectral entropy=2.5537250860760277
computed normalized entropy=0.7508311925219787
SPLASH=splash10-0zfr-4920000000-137fae4223f8b51dd5cd
submitter=submitter = University of Tokyo Team (Faculty of Engineering, University of Tokyo)
MoNA Rating=3.75

>  <NUM PEAKS>  (2794) 
30

>  <MASS SPECTRAL PEAKS>  (2794) 
51 5.48
52 13.51
53 4.68
56 4.64
62 1.13
63 3.31
64 1.15
70 7.97
72 16.79
75 1.28
76 4.68
77 26.83
78 18.16
79 2.53
89 4.74
90 3.45
91 3.42
103 13.3
104 95
105 99.99
106 9.71
118 3.84
133 23.01
134 2.01
161 3.32
175 1.58
176 3.83
202 3.5
204 71.56
205 9.24

>  <PREDICTED SPECTRUM>  (2794) 
14 19
15 60
25 8
26 65
27 158
28 183
29 258
30 89
31 80
37 79
38 200
39 443
40 196
41 263
42 472
43 430
44 358
45 235
49 11
50 449
51 733
52 388
53 139
54 111
55 80
56 340
57 217
58 95
59 236
60 55
61 46
62 306
63 596
64 388
65 433
66 187
67 62
68 56
69 373
70 322
71 223
72 227
73 9
74 205
75 312
76 377
77 992
78 479
79 264
80 31
83 38
84 8
85 45
86 17
87 132
88 78
89 960
90 919
91 776
92 277
93 97
98 55
99 153
102 276
103 201
104 561
105 494
106 298
107 113
115 97
116 269
117 578
118 909
119 518
120 191
121 175
127 482
128 255
129 162
130 125
131 32
132 645
133 492
134 87
146 130
147 324
148 214
160 127
161 700
162 220
175 573
176 657
177 194
203 61
204 999
205 383

$$$$

     RDKit          2D

 10 10  0  0  0  0  0  0  0  0999 V2000
   -2.9316    1.4561    0.0000 C   0  0  0  0  0  0  0  0  0  0  0  0
   -1.3507    2.8422    0.0000 C   0  0  0  0  0  0  0  0  0  0  0  0
   -1.5614    0.8456    0.0000 C   0  0  0  0  0  0  0  0  0  0  0  0
    0.4023    0.4278    0.0000 C   0  0  0  0  0  0  0  0  0  0  0  0
    1.8621    0.7395    0.0000 C   0  0  0  0  0  0  0  0  0  0  0  0
    0.6521    2.8353    0.0000 C   0  0  0  0  0  0  0  0  0  0  0  0
   -0.3477    1.7269    0.0000 C   0  0  0  0  0  0  0  0  0  0  0  0
    2.0279    2.2324    0.0000 N   0  0  0  0  0  0  0  0  0  0  0  0
    2.9743   -0.2670    0.0000 O   0  0  0  0  0  0  0  0  0  0  0  0
    0.3366    4.3017    0.0000 O   0  0  0  0  0  0  0  0  0  0  0  0
  3  1  1  0
  5  4  1  0
  7  2  1  0
  7  3  1  0
  7  4  1  0
  7  6  1  0
  8  5  2  0
  8  6  1  0
  9  5  1  0
 10  6  2  0
M  END
>  <NAME>  (2795) 
ETHOSUXIMIDE

>  <SYNONYMS>  (2795) 
3-ETHYL-3-METHYL-2,5-PYRROLIDINEDIONE

>  <SPECTRUM TYPE>  (2795) 
MS1

>  <INSTRUMENT TYPE>  (2795) 
EI-B

>  <INSTRUMENT>  (2795) 
JEOL JMS-D-300

>  <ION MODE>  (2795) 
P

>  <INCHIKEY>  (2795) 
HAPOVYFOVVWLRS-UHFFFAOYSA-N

>  <FORMULA>  (2795) 
C7H11NO2

>  <EXACT MASS>  (2795) 
141.078978592

>  <MW>  (2795) 
141

>  <ID>  (2795) 
JP007971

>  <CONTRIBUTOR>  (2795) 
University of Tokyo Team, {Faculty of Engineering, University of Tokyo

>  <COMMENT>  (2795) 
SMILES=CCC(C)(C1)C(=O)NC(=O)1
InChI=InChI=1S/C7H11NO2/c1-3-7(2)4-5(9)8-6(7)10/h3-4H2,1-2H3,(H,8,9,10)
computed SMILES=O=C1N=C(O)CC1(C)CC
accession=JP007971
date=2016.01.19 (Created 2008.10.21, modified 2011.05.06)
author=HAMAMATSU UNIV. SCHOOL OF MEDICINE
license=CC BY-NC-SA
exact mass=141.07898
ionization energy=70 eV
ion type=[M]+*
computed spectral entropy=1.6849531392699744
computed normalized entropy=0.6384678045306501
SPLASH=splash10-08mi-9400000000-44583cdc88d3203a4e84
submitter=submitter = University of Tokyo Team (Faculty of Engineering, University of Tokyo)
MoNA Rating=3.75

>  <NUM PEAKS>  (2795) 
14

>  <MASS SPECTRAL PEAKS>  (2795) 
52 1.61
54 4.5
55 94.66
56 5.19
67 1.83
68 2.06
69 7.25
70 71.7
71 4.52
85 8.14
98 2.48
113 99.99
114 6.32
141 2.74

>  <PREDICTED SPECTRUM>  (2795) 
38 4
39 224
40 131
41 634
42 546
43 257
44 76
45 83
50 30
51 86
52 137
53 255
54 367
55 824
56 576
57 339
58 205
66 78
67 176
68 265
69 402
70 626
71 39
82 414
83 802
84 591
85 243
86 19
94 78
95 20
96 176
97 147
98 367
99 98
112 435
113 999
114 302
124 40
126 380
127 54
140 2
141 262
142 77

$$$$

     RDKit          2D

 10 10  0  0  0  0  0  0  0  0999 V2000
   -1.9647    1.6863    0.0000 C   0  0  0  0  0  0  0  0  0  0  0  0
   -2.5795   -0.2220    0.0000 C   0  0  0  0  0  0  0  0  0  0  0  0
    1.6322   -2.2431    0.0000 C   0  0  0  0  0  0  0  0  0  0  0  0
   -0.7500   -1.0300    0.0000 C   0  0  0  0  0  0  0  0  0  0  0  0
    1.2100    0.3900    0.0000 C   0  0  0  0  0  0  0  0  0  0  0  0
   -1.2100    0.3900    0.0000 C   0  0  0  0  0  0  0  0  0  0  0  0
    0.7500   -1.0300    0.0000 N   0  0  0  0  0  0  0  0  0  0  0  0
   -1.6322   -2.2431    0.0000 O   0  0  0  0  0  0  0  0  0  0  0  0
    2.6377    0.8500    0.0000 O   0  0  0  0  0  0  0  0  0  0  0  0
    0.0000    1.2800    0.0000 O   0  0  0  0  0  0  0  0  0  0  0  0
  6  1  1  0
  6  2  1  0
  6  4  1  0
  7  3  1  0
  7  4  1  0
  7  5  1  0
  8  4  2  0
  9  5  2  0
 10  5  1  0
 10  6  1  0
M  END
>  <NAME>  (2796) 
TRIMETHADIONE

>  <SYNONYMS>  (2796) 
3,5,5-TRIMETHYL-2,4-OXAZOLIDINEDIONE

>  <SPECTRUM TYPE>  (2796) 
MS1

>  <INSTRUMENT TYPE>  (2796) 
EI-B

>  <INSTRUMENT>  (2796) 
JEOL JMS-D-300

>  <ION MODE>  (2796) 
P

>  <INCHIKEY>  (2796) 
IRYJRGCIQBGHIV-UHFFFAOYSA-N

>  <FORMULA>  (2796) 
C6H9NO3

>  <EXACT MASS>  (2796) 
143.058243148

>  <MW>  (2796) 
143

>  <ID>  (2796) 
JP007970

>  <CONTRIBUTOR>  (2796) 
University of Tokyo Team, {Faculty of Engineering, University of Tokyo

>  <COMMENT>  (2796) 
SMILES=O=C(O1)N(C)C(=O)C(C)(C)1
InChI=InChI=1S/C6H9NO3/c1-6(2)4(8)7(3)5(9)10-6/h1-3H3
computed SMILES=O=C1OC(C(=O)N1C)(C)C
accession=JP007970
date=2016.01.19 (Created 2008.10.21, modified 2011.05.06)
author=HAMAMATSU UNIV. SCHOOL OF MEDICINE
license=CC BY-NC-SA
exact mass=143.05824
ionization energy=70 eV
ion type=[M]+*
computed spectral entropy=1.7105830522031802
computed normalized entropy=0.6669071446681892
SPLASH=splash10-0a4l-8900000000-43db0866b0f6797cbff6
submitter=submitter = University of Tokyo Team (Faculty of Engineering, University of Tokyo)
MoNA Rating=3.75

>  <NUM PEAKS>  (2796) 
13

>  <MASS SPECTRAL PEAKS>  (2796) 
56 6.77
57 4.99
58 89.83
59 24.45
69 1.03
70 6.15
100 4.46
115 2.16
127 1.31
128 31.86
129 1.85
143 99.99
144 7.34

>  <PREDICTED SPECTRUM>  (2796) 
14 43
15 138
26 59
27 114
28 164
29 151
30 74
32 8
36 10
37 29
38 198
39 718
40 534
41 999
42 923
43 863
44 261
51 47
52 136
53 337
54 399
56 747
57 436
58 507
59 128
68 189
69 19
70 559
71 209
72 142
84 656
85 297
86 138
98 225
99 635
100 273
115 97
128 776
129 169
143 799
144 217

$$$$

     RDKit          2D

 15 16  0  0  0  0  0  0  0  0999 V2000
    5.1981    0.7504    0.0000 C   0  0  0  0  0  0  0  0  0  0  0  0
    5.1981   -0.7504    0.0000 C   0  0  0  0  0  0  0  0  0  0  0  0
   -1.3000    1.5000    0.0000 C   0  0  0  0  0  0  0  0  0  0  0  0
   -2.6000    0.7500    0.0000 C   0  0  0  0  0  0  0  0  0  0  0  0
    1.3000    1.5000    0.0000 C   0  0  0  0  0  0  0  0  0  0  0  0
   -1.3000   -1.5000    0.0000 C   0  0  0  0  0  0  0  0  0  0  0  0
   -0.0000    0.7500    0.0000 C   0  0  0  0  0  0  0  0  0  0  0  0
   -2.6000   -0.7500    0.0000 C   0  0  0  0  0  0  0  0  0  0  0  0
   -0.0000   -0.7500    0.0000 C   0  0  0  0  0  0  0  0  0  0  0  0
    2.6000    0.7500    0.0000 C   0  0  0  0  0  0  0  0  0  0  0  0
    2.6000   -0.7500    0.0000 C   0  0  0  0  0  0  0  0  0  0  0  0
   -3.8989   -1.5002    0.0000 Br  0  0  0  0  0  0  0  0  0  0  0  0
    1.3000   -1.5000    0.0000 N   0  0  0  0  0  0  0  0  0  0  0  0
    3.8989    1.5002    0.0000 O   0  0  0  0  0  0  0  0  0  0  0  0
    3.8989   -1.5002    0.0000 S   0  0  0  0  0  0  0  0  0  0  0  0
  4  3  2  0
  7  3  1  0
  7  5  2  0
  8  4  1  0
  8  6  2  0
  9  6  1  0
  9  7  1  0
 10  5  1  0
 11 10  2  0
 12  8  1  0
 13  9  2  0
 13 11  1  0
 14  1  1  0
 14 10  1  0
 15  2  1  0
 15 11  1  0
M  END
>  <NAME>  (2797) 
7-BROMO-3-METHOXY-2-METHYLTHIOISOQUINOLINE

>  <SYNONYMS>  (2797) 


>  <SPECTRUM TYPE>  (2797) 
MS1

>  <INSTRUMENT TYPE>  (2797) 
EI-B

>  <INSTRUMENT>  (2797) 
JEOL JMS-D-300

>  <ION MODE>  (2797) 
P

>  <INCHIKEY>  (2797) 
HWNKEJGGLOFWDE-UHFFFAOYSA-N

>  <FORMULA>  (2797) 
C11H10BrNOS

>  <EXACT MASS>  (2797) 
282.96664704

>  <MW>  (2797) 
283

>  <ID>  (2797) 
JP007938

>  <CONTRIBUTOR>  (2797) 
University of Tokyo Team, {Faculty of Engineering, University of Tokyo

>  <COMMENT>  (2797) 
SMILES=COc(c1)c(SC)nc(c2)c(ccc(Br)2)1
InChI=InChI=1S/C11H10BrNOS/c1-14-10-5-7-3-4-8(12)6-9(7)13-11(10)15-2/h3-6H,1-2H3
computed SMILES=BrC=1C=CC2=CC(OC)=C(N=C2C1)SC
computed spectral entropy=4.083455862861757
computed normalized entropy=0.8574772611776047
accession=JP007938
date=2016.01.19 (Created 2008.10.21, modified 2011.05.06)
author=FUJISE Y, HAMAMATSU UNIV. SCHOOL OF MEDICINE
license=CC BY-NC-SA
exact mass=282.96665
ionization energy=70 eV
ion type=[M]+*
SPLASH=splash10-0ff9-1390000000-17dcf3333ea64e14b0e7
submitter=submitter = University of Tokyo Team (Faculty of Engineering, University of Tokyo)
MoNA Rating=3.75

>  <NUM PEAKS>  (2797) 
117

>  <MASS SPECTRAL PEAKS>  (2797) 
51 3.72
61 2.29
62 7.49
63 5.89
64 2.82
66 1.09
69 1.46
72 1.1
73 2.82
74 3.32
75 5.5
76 2.76
77 1.91
80 1.6
82 1.07
86 3.21
87 8.58
88 12.82
89 2.27
93 1.14
94 2.23
99 2.8
100 4.73
101 4.94
102 10.29
103 1.12
114 25.59
115 5.4
116 2.46
117 13.98
118 1.29
119 4.89
120 1.57
126 1.69
127 9.48
128 15.55
129 5.17
130 1.5
132 1.08
133 6.05
134 8.68
135 9.52
140 1.1
141 7.14
142 4.08
143 1.78
145 2.82
146 6.1
156 1.07
157 2.7
158 1.53
159 4.95
160 5.02
161 11.99
162 1.54
167 3.18
169 3.11
171 1.8
173 1.43
174 1.68
179 1.95
180 1.09
181 3.4
182 1.15
183 1.48
189 3.02
193 1.24
194 2.87
195 3.7
196 3.66
197 2.41
198 5.26
200 4.4
206 6.33
207 16.19
208 13.2
209 17.02
210 6.88
211 1.52
220 8.08
221 21.15
222 11.37
223 22.03
224 7.67
225 2.1
226 4.63
227 1.66
236 13.22
237 6.86
238 15.52
239 6.77
240 4.12
241 1
248 4.44
249 1.9
250 33.38
251 5.55
252 38.22
253 8.5
254 10.63
255 5.01
256 1.75
264 11.85
265 7.36
266 13.89
267 8.77
268 30.91
269 5.19
270 29.58
271 3.77
272 1.67
282 11.45
283 96.67
284 23.88
285 99.99
286 13.35
287 5.43

>  <PREDICTED SPECTRUM>  (2797) 
14 29
15 124
16 7
17 15
18 15
27 19
28 52
29 32
31 27
37 5
38 39
39 78
41 116
42 68
43 158
44 67
45 114
46 39
47 54
48 3
49 73
50 210
51 216
52 127
53 100
55 34
56 37
57 99
58 31
60 19
61 117
62 210
63 233
64 117
65 47
66 42
69 110
70 75
71 14
72 10
73 84
74 215
75 300
76 201
77 178
78 70
79 17
80 63
81 6
82 63
83 83
84 74
85 57
86 175
87 189
88 263
89 184
90 103
91 53
92 26
93 38
94 59
95 22
96 33
98 56
99 74
100 167
101 221
102 331
103 191
104 104
105 81
106 59
107 21
108 16
111 7
112 3
113 93
114 251
115 235
116 209
117 222
118 224
119 118
120 56
123 27
124 14
125 97
126 61
127 236
128 243
129 207
130 167
131 168
132 61
133 104
134 41
135 0
136 6
138 22
139 127
140 105
141 151
142 111
143 237
144 142
145 139
146 140
147 20
149 9
150 44
151 48
152 43
153 99
154 19
155 72
156 93
157 103
158 204
159 102
160 121
161 165
162 83
163 19
165 37
166 66
167 141
168 116
169 74
170 121
171 207
172 127
173 158
174 200
175 51
178 20
179 85
180 107
181 100
182 191
183 122
184 176
185 39
186 31
187 109
188 130
189 139
190 58
193 96
194 156
195 99
196 187
197 177
198 148
199 122
200 40
201 48
205 75
206 144
207 217
208 255
209 219
210 238
211 121
212 108
215 7
219 71
220 206
221 285
222 361
223 282
224 294
225 221
226 113
227 166
228 27
234 60
235 203
236 326
237 399
238 322
239 338
240 218
241 90
242 68
243 38
249 6
250 574
251 307
252 561
253 368
254 362
255 241
256 174
257 38
264 159
265 319
266 346
267 293
268 550
269 222
270 473
271 204
281 8
282 236
283 999
284 417
285 955
286 363
287 157
288 3

$$$$

     RDKit          2D

 19 22  0  0  0  0  0  0  0  0999 V2000
    2.5233    1.1606    0.0000 C   0  0  0  0  0  0  0  0  0  0  0  0
    2.0078   -0.2489    0.0000 C   0  0  0  0  0  0  0  0  0  0  0  0
    1.5610    2.3124    0.0000 C   0  0  0  0  0  0  0  0  0  0  0  0
   -2.5884    3.5479    0.0000 C   0  0  0  0  0  0  0  0  0  0  0  0
   -4.0884    3.5479    0.0000 C   0  0  0  0  0  0  0  0  0  0  0  0
    0.5302   -0.5067    0.0000 C   0  0  0  0  0  0  0  0  0  0  0  0
    0.0833    2.0546    0.0000 C   0  0  0  0  0  0  0  0  0  0  0  0
   -1.8384    2.2488    0.0000 C   0  0  0  0  0  0  0  0  0  0  0  0
   -4.8384    2.2488    0.0000 C   0  0  0  0  0  0  0  0  0  0  0  0
   -1.9884   -1.6802    0.0000 C   0  0  0  0  0  0  0  0  0  0  0  0
   -3.3384   -2.3302    0.0000 C   0  0  0  0  0  0  0  0  0  0  0  0
   -0.4321    0.6450    0.0000 C   0  0  0  0  0  0  0  0  0  0  0  0
   -2.5884    0.9498    0.0000 C   0  0  0  0  0  0  0  0  0  0  0  0
   -4.0884    0.9498    0.0000 C   0  0  0  0  0  0  0  0  0  0  0  0
   -1.6584   -0.2202    0.0000 C   0  0  0  0  0  0  0  0  0  0  0  0
   -4.6884   -1.6802    0.0000 C   0  0  0  0  0  0  0  0  0  0  0  0
   -5.0284   -0.2202    0.0000 C   0  0  0  0  0  0  0  0  0  0  0  0
   -3.3284    0.1398    0.0000 N   0  0  0  0  0  0  0  0  0  0  0  0
   -5.8590   -2.6181    0.0000 O   0  0  0  0  0  0  0  0  0  0  0  0
  2  1  2  0
  3  1  1  0
  5  4  2  0
  6  2  1  0
  7  3  2  0
  8  4  1  0
  9  5  1  0
 11 10  2  0
 12  6  2  0
 12  7  1  0
 13  8  2  0
 14  9  2  0
 14 13  1  0
 15 10  1  0
 15 13  1  0
 16 11  1  0
 17 14  1  0
 17 16  1  0
 18 12  1  0
 18 15  1  0
 18 17  1  0
 19 16  2  0
M  END
>  <NAME>  (2798) 
8-AZA-8-PHENYL-6,7-BENZO-BICYCLO(3,2,1)-3-EN-2-ONE

>  <SYNONYMS>  (2798) 


>  <SPECTRUM TYPE>  (2798) 
MS1

>  <INSTRUMENT TYPE>  (2798) 
EI-B

>  <INSTRUMENT>  (2798) 
JEOL JMS-D-300

>  <ION MODE>  (2798) 
P

>  <INCHIKEY>  (2798) 
HBVLHVPIKRRHKB-UHFFFAOYSA-N

>  <FORMULA>  (2798) 
C17H13NO

>  <EXACT MASS>  (2798) 
247.099714036

>  <MW>  (2798) 
247

>  <ID>  (2798) 
JP007937

>  <CONTRIBUTOR>  (2798) 
University of Tokyo Team, {Faculty of Engineering, University of Tokyo

>  <COMMENT>  (2798) 
SMILES=c(c4)ccc(c4)N(C31)C(C(=O)C=C3)c(c2)c(ccc2)1
InChI=InChI=1S/C17H13NO/c19-16-11-10-15-13-8-4-5-9-14(13)17(16)18(15)12-6-2-1-3-7-12/h1-11,15,17H
computed SMILES=O=C1C=CC2C=3C=CC=CC3C1N2C=4C=CC=CC4
accession=JP007937
date=2016.01.19 (Created 2008.10.21, modified 2011.05.06)
author=FUJISE Y, HAMAMATSU UNIV. SCHOOL OF MEDICINE
license=CC BY-NC-SA
exact mass=247.09971
ionization energy=70 eV
ion type=[M]+*
computed spectral entropy=3.3564926370851538
computed normalized entropy=0.7848385970933339
SPLASH=splash10-05mp-3890000000-706eb2e6e799b5e4e8a2
submitter=submitter = University of Tokyo Team (Faculty of Engineering, University of Tokyo)
MoNA Rating=3.75

>  <NUM PEAKS>  (2798) 
72

>  <MASS SPECTRAL PEAKS>  (2798) 
51 18.07
52 1.91
62 1.9
63 6.83
64 2.01
65 2.16
74 1.73
75 2.83
76 3.82
77 19.14
78 1.87
82 1.1
83 1.02
84 1.39
87 1.18
88 1.99
89 13.27
90 16.18
91 2.72
94 1.77
96 4.84
101 1.91
102 5.82
103 5.99
104 2.34
107 1.89
108 19.71
109 4.94
110 3.82
113 1.57
114 2.15
115 10.3
116 7.42
117 1.76
124 2.89
126 1.4
127 5.26
128 8.28
129 1.04
139 1.5
140 2.3
144 3.96
152 1.06
153 1.07
155 3.23
163 1.69
164 2.52
165 22.33
166 5.59
167 1.42
178 1.24
189 2.23
190 3.21
191 3.63
192 10.16
193 99.99
194 16.08
195 1.26
204 1.96
206 86.08
207 14.64
208 1.28
216 4.44
217 13.79
218 50.02
219 27.03
220 3.86
230 2.18
246 3.32
247 69.23
248 13.53
249 1.55

>  <PREDICTED SPECTRUM>  (2798) 
17 40
18 47
26 63
27 133
28 67
29 62
33 2
38 60
39 337
40 52
41 75
43 33
44 9
50 221
51 403
52 139
53 43
54 141
55 22
57 24
62 120
63 318
64 208
65 232
66 28
67 15
71 10
74 80
75 135
76 254
77 525
78 174
79 3
81 79
82 133
83 33
84 86
87 133
88 90
89 318
90 300
91 175
92 42
95 69
96 37
97 64
98 36
99 24
100 20
101 152
102 333
103 224
104 99
109 72
110 124
111 79
112 79
113 112
114 187
115 413
116 293
117 205
118 92
119 17
120 20
121 58
122 5
125 2
126 40
127 147
128 260
129 120
137 132
138 106
139 90
140 47
141 34
142 56
143 14
149 137
150 83
151 209
152 251
153 76
154 0
155 125
161 36
163 59
164 110
165 395
166 317
167 151
168 51
175 15
176 104
177 39
178 216
179 213
180 107
188 10
189 152
190 186
191 343
192 720
193 946
194 475
195 178
202 71
203 153
204 250
205 274
206 773
207 463
208 198
215 7
216 206
217 300
218 985
219 683
220 342
221 126
230 71
231 32
232 43
245 71
246 434
247 999
248 444
249 89

$$$$

     RDKit          2D

 16 18  0  0  1  0  0  0  0  0999 V2000
   -3.2600    1.2600    0.0000 C   0  0  0  0  0  0  0  0  0  0  0  0
   -3.7100   -0.2100    0.0000 C   0  0  0  0  0  0  0  0  0  0  0  0
   -1.8000    1.5900    0.0000 C   0  0  0  0  0  0  0  0  0  0  0  0
   -2.7100   -1.3300    0.0000 C   0  0  0  0  0  0  0  0  0  0  0  0
    1.7800    1.5600    0.0000 C   0  0  0  0  0  0  0  0  0  0  0  0
    2.7100   -1.2300    0.0000 C   0  0  0  0  0  0  0  0  0  0  0  0
   -0.7100    0.4700    0.0000 C   0  0  0  0  0  0  0  0  0  0  0  0
    0.7100    0.4700    0.0000 C   0  0  0  0  0  0  0  0  0  0  0  0
   -1.1700   -1.0000    0.0000 C   0  0  0  0  0  0  0  0  0  0  0  0
    3.2200    1.3000    0.0000 C   0  0  0  0  0  0  0  0  0  0  0  0
    1.2700   -0.9500    0.0000 C   0  0  0  0  0  0  0  0  0  0  0  0
    4.2094    2.4275    0.0000 C   0  0  0  0  0  0  0  0  0  0  0  0
    3.6700   -0.1100    0.0000 N   0  0  0  0  0  0  0  0  0  0  0  0
    0.0000   -1.8100    0.0000 N   0  0  0  0  0  0  0  0  0  0  0  0
    3.7276    3.8480    0.0000 O   0  0  0  0  0  0  0  0  0  0  0  0
    5.6804    2.1344    0.0000 O   0  0  0  0  0  0  0  0  0  0  0  0
  2  1  2  0
  3  1  1  0
  4  2  1  0
  7  3  2  0
  8  5  1  0
  8  7  1  0
  9  4  2  0
  9  7  1  0
 10  5  1  0
 11  6  1  0
 11  8  2  0
 10 12  1  1
 13  6  1  0
 13 10  1  0
 14  9  1  0
 14 11  1  0
 15 12  2  0
 16 12  1  0
M  END
>  <NAME>  (2799) 
1,2,3,4-TETRAHYDRO-1H-PIRIDO(3,4-B)INDOLE-3-CARBOXILIC ACID

>  <SYNONYMS>  (2799) 


>  <SPECTRUM TYPE>  (2799) 
MS1

>  <INSTRUMENT TYPE>  (2799) 
EI-B

>  <INSTRUMENT>  (2799) 
JEOL JMS-D-300

>  <ION MODE>  (2799) 
P

>  <INCHIKEY>  (2799) 
FSNCEEGOMTYXKY-JTQLQIEISA-N

>  <FORMULA>  (2799) 
C12H12N2O2

>  <EXACT MASS>  (2799) 
216.089877624

>  <MW>  (2799) 
216

>  <ID>  (2799) 
JP007934

>  <CONTRIBUTOR>  (2799) 
University of Tokyo Team, {Faculty of Engineering, University of Tokyo

>  <COMMENT>  (2799) 
SMILES=C1[C@H](NCC2=C1C3=CC=CC=C3N2)C(=O)O
InChI=InChI=1S/C12H12N2O2/c15-12(16)10-5-8-7-3-1-2-4-9(7)14-11(8)6-13-10/h1-4,10,13-14H,5-6H2,(H,15,16)/t10-/m0/s1
computed SMILES=O=C(O)C1NCC=2NC=3C=CC=CC3C2C1
accession=JP007934
date=2016.01.19 (Created 2008.10.21, modified 2011.05.06)
author=FUJISE Y, HAMAMATSU UNIV. SCHOOL OF MEDICINE
license=CC BY-NC-SA
exact mass=216.08988
ionization energy=70 eV
ion type=[M]+*
computed spectral entropy=2.950757446056618
computed normalized entropy=0.7542791650157171
SPLASH=splash10-00kf-1910000000-75a38d01d6b92417004c
submitter=submitter = University of Tokyo Team (Faculty of Engineering, University of Tokyo)
MoNA Rating=3.75

>  <NUM PEAKS>  (2799) 
50

>  <MASS SPECTRAL PEAKS>  (2799) 
51 2.58
52 0.97
58 1.72
69 1.06
71 1.58
72 2.08
75 2.08
76 1.86
77 3.41
83 0.98
84 3.47
85 13.28
86 7.85
87 1.04
88 1.02
89 2.72
90 1.97
91 1.16
101 1.77
102 3.05
103 1.53
113 1.61
114 2.14
115 12.45
116 4.97
117 3.79
118 1.22
127 1.03
128 3.92
129 1.19
130 2.43
140 4.12
141 2.81
142 7.34
143 99.99
144 31.63
145 2.98
154 3.71
155 2.88
156 1.96
167 1.32
168 10.15
169 19.1
170 6.09
171 19.66
172 3.5
199 2.71
215 3.12
216 46.29
217 6.23

>  <PREDICTED SPECTRUM>  (2799) 
1 3
39 73
40 31
41 110
42 81
43 82
44 220
45 104
49 17
50 107
51 178
52 83
53 40
55 49
56 18
57 134
58 32
60 5
62 60
63 143
64 100
65 126
66 29
69 76
71 51
73 61
74 97
75 128
76 99
77 241
78 94
83 5
84 93
85 57
86 16
87 63
88 43
89 183
90 120
91 146
92 56
97 4
99 10
101 29
102 151
103 142
104 3
113 44
114 65
115 314
116 94
117 223
118 35
125 45
126 58
127 55
128 91
129 194
130 447
131 64
140 74
141 181
142 144
143 999
144 641
145 31
154 73
155 80
156 12
157 7
167 83
168 195
169 353
170 284
171 96
172 6
187 6
199 43
214 30
215 73
216 607
217 216
218 45

$$$$

     RDKit          2D

  9  9  0  0  0  0  0  0  0  0999 V2000
    0.0000    1.5000    0.0000 C   0  0  0  0  0  0  0  0  0  0  0  0
    0.0000    0.0000    0.0000 C   0  0  0  0  0  0  0  0  0  0  0  0
   -1.1727    2.4352    0.0000 C   0  0  0  0  0  0  0  0  0  0  0  0
   -1.1727   -0.9352    0.0000 C   0  0  0  0  0  0  0  0  0  0  0  0
   -2.6351    2.1015    0.0000 C   0  0  0  0  0  0  0  0  0  0  0  0
   -2.6351   -0.6015    0.0000 C   0  0  0  0  0  0  0  0  0  0  0  0
   -3.2860    0.7500    0.0000 C   0  0  0  0  0  0  0  0  0  0  0  0
   -3.5704   -1.7742    0.0000 O   0  0  0  0  0  0  0  0  0  0  0  0
   -4.7860    0.7500    0.0000 O   0  0  0  0  0  0  0  0  0  0  0  0
  2  1  2  0
  3  1  1  0
  4  2  1  0
  5  3  2  0
  6  4  2  0
  7  5  1  0
  7  6  1  0
  8  6  1  0
  9  7  2  0
M  END
>  <NAME>  (2800) 
TROPOLONE

>  <SYNONYMS>  (2800) 


>  <SPECTRUM TYPE>  (2800) 
MS1

>  <INSTRUMENT TYPE>  (2800) 
EI-B

>  <INSTRUMENT>  (2800) 
JEOL JMS-D-300

>  <ION MODE>  (2800) 
P

>  <INCHIKEY>  (2800) 
MDYOLVRUBBJPFM-UHFFFAOYSA-N

>  <FORMULA>  (2800) 
C7H6O2

>  <EXACT MASS>  (2800) 
122.036779432

>  <MW>  (2800) 
122

>  <ID>  (2800) 
JP007931

>  <CONTRIBUTOR>  (2800) 
University of Tokyo Team, {Faculty of Engineering, University of Tokyo

>  <COMMENT>  (2800) 
SMILES=OC(=C1)C(=O)C=CC=C1
InChI=InChI=1S/C7H6O2/c8-6-4-2-1-3-5-7(6)9/h1-5H,(H,8,9)
computed SMILES=O=C1C=CC=CC=C1O
accession=JP007931
date=2016.01.19 (Created 2008.10.21, modified 2011.05.06)
author=FUJISE Y, HAMAMATSU UNIV. SCHOOL OF MEDICINE
license=CC BY-NC-SA
exact mass=122.03678
ionization energy=70 eV
ion type=[M]+*
computed spectral entropy=1.9473346124598796
computed normalized entropy=0.650036263136978
SPLASH=splash10-00di-9800000000-6817a9337f8a1bc1e793
submitter=submitter = University of Tokyo Team (Faculty of Engineering, University of Tokyo)
MoNA Rating=3.75

>  <NUM PEAKS>  (2800) 
20

>  <MASS SPECTRAL PEAKS>  (2800) 
51 8.93
52 3.38
53 5.66
55 7.02
56 0.86
61 2.97
62 1.3
63 4.19
64 1.66
65 17.32
66 18.72
67 1.58
74 1.44
76 0.9
77 1.27
94 28.25
95 0.98
122 99.99
123 5.73
252 1.04

>  <PREDICTED SPECTRUM>  (2800) 
18 0
25 34
26 75
27 94
28 57
29 60
36 7
37 161
38 234
39 350
40 138
41 86
42 8
44 32
49 84
50 268
51 284
52 253
53 201
54 97
55 48
61 87
62 138
63 236
64 165
65 440
66 416
67 212
68 119
74 149
75 96
76 150
77 156
81 13
82 5
92 17
93 183
94 605
95 295
96 38
105 31
121 46
122 999
123 287
124 21

$$$$

     RDKit          2D

 11 11  0  0  0  0  0  0  0  0999 V2000
   -0.3123    3.2070    0.0000 C   0  0  0  0  0  0  0  0  0  0  0  0
   -2.3640    2.6681    0.0000 C   0  0  0  0  0  0  0  0  0  0  0  0
   -1.8251    0.6164    0.0000 C   0  0  0  0  0  0  0  0  0  0  0  0
    1.5257    1.9053    0.0000 C   0  0  0  0  0  0  0  0  0  0  0  0
    0.2121   -0.3195    0.0000 C   0  0  0  0  0  0  0  0  0  0  0  0
    2.8102    1.1805    0.0000 C   0  0  0  0  0  0  0  0  0  0  0  0
    1.5366   -1.1137    0.0000 C   0  0  0  0  0  0  0  0  0  0  0  0
    0.2266    1.1553    0.0000 C   0  0  0  0  0  0  0  0  0  0  0  0
    2.8357   -0.3637    0.0000 C   0  0  0  0  0  0  0  0  0  0  0  0
   -1.0687    1.9117    0.0000 C   0  0  0  0  0  0  0  0  0  0  0  0
    4.1409   -1.1029    0.0000 O   0  0  0  0  0  0  0  0  0  0  0  0
  6  4  2  0
  7  5  1  0
  8  4  1  0
  8  5  2  0
  9  6  1  0
  9  7  2  0
 10  1  1  0
 10  2  1  0
 10  3  1  0
 10  8  1  0
 11  9  1  0
M  END
>  <NAME>  (2801) 
4-(1,1-DIMETHYLETHYL)PHENOL

>  <SYNONYMS>  (2801) 
PARA-TERT-BUTYLPHENOL

>  <SPECTRUM TYPE>  (2801) 
MS1

>  <INSTRUMENT TYPE>  (2801) 
EI-B

>  <INSTRUMENT>  (2801) 
JEOL JMS-D-300

>  <ION MODE>  (2801) 
P

>  <INCHIKEY>  (2801) 
QHPQWRBYOIRBIT-UHFFFAOYSA-N

>  <FORMULA>  (2801) 
C10H14O

>  <EXACT MASS>  (2801) 
150.104465068

>  <MW>  (2801) 
150

>  <ID>  (2801) 
JP007929

>  <CONTRIBUTOR>  (2801) 
University of Tokyo Team, {Faculty of Engineering, University of Tokyo

>  <COMMENT>  (2801) 
SMILES=Oc(c1)ccc(c1)C(C)(C)C
InChI=InChI=1S/C10H14O/c1-10(2,3)8-4-6-9(11)7-5-8/h4-7,11H,1-3H3
computed SMILES=OC1=CC=C(C=C1)C(C)(C)C
accession=JP007929
date=2016.01.19 (Created 2008.10.21, modified 2011.05.06)
author=FUJISE Y, HAMAMATSU UNIV. SCHOOL OF MEDICINE
license=CC BY-NC-SA
exact mass=150.10447
ionization energy=70 eV
ion type=[M]+*
computed spectral entropy=2.3050674303842187
computed normalized entropy=0.671251024865078
SPLASH=splash10-000i-2900000000-4db3c9778d301443456d
submitter=submitter = University of Tokyo Team (Faculty of Engineering, University of Tokyo)
MoNA Rating=3.75

>  <NUM PEAKS>  (2801) 
31

>  <MASS SPECTRAL PEAKS>  (2801) 
51 3.73
53 1.9
55 2.63
57 1.7
63 1.95
64 1.07
65 4.57
66 3.29
67 1.68
68 0.99
77 9.28
78 1.06
79 2.73
89 1.23
91 7.55
94 1.43
95 15.67
105 1.76
106 1.09
107 36.15
108 2.74
109 1.1
115 1.51
119 2.52
121 1.53
133 1.26
134 1.24
135 99.99
136 9.82
150 26.32
151 3.37

>  <PREDICTED SPECTRUM>  (2801) 
15 33
27 101
28 1
29 103
37 8
38 69
39 231
40 85
41 268
42 31
43 94
50 112
51 189
52 124
53 171
54 44
55 172
56 25
57 179
58 73
59 11
60 13
61 35
62 67
63 143
64 110
65 219
66 119
67 128
69 21
73 3
74 68
75 101
76 52
77 302
78 163
79 222
80 67
81 77
87 8
89 91
90 27
91 297
92 120
93 148
94 101
95 119
96 13
102 52
103 127
104 25
105 158
106 38
107 410
108 177
109 78
115 162
116 75
117 157
118 48
119 186
120 126
121 64
131 67
132 10
133 103
134 52
135 999
136 317
137 76
149 19
150 488
151 156

$$$$

     RDKit          2D

 22 25  0  0  0  0  0  0  0  0999 V2000
   -2.3100    0.7500    0.0000 C   0  0  0  0  0  0  0  0  0  0  0  0
    9.0100   -0.7500    0.0000 C   0  0  0  0  0  0  0  0  0  0  0  0
   -1.0100    1.5000    0.0000 C   0  0  0  0  0  0  0  0  0  0  0  0
    7.7100   -1.5000    0.0000 C   0  0  0  0  0  0  0  0  0  0  0  0
   -1.0100   -1.5000    0.0000 C   0  0  0  0  0  0  0  0  0  0  0  0
    7.7100    1.5000    0.0000 C   0  0  0  0  0  0  0  0  0  0  0  0
   -2.3100   -0.7500    0.0000 C   0  0  0  0  0  0  0  0  0  0  0  0
    9.0100    0.7500    0.0000 C   0  0  0  0  0  0  0  0  0  0  0  0
    0.2900    0.7500    0.0000 C   0  0  0  0  0  0  0  0  0  0  0  0
    6.4100   -0.7500    0.0000 C   0  0  0  0  0  0  0  0  0  0  0  0
    0.2900   -0.7500    0.0000 C   0  0  0  0  0  0  0  0  0  0  0  0
    6.4100    0.7500    0.0000 C   0  0  0  0  0  0  0  0  0  0  0  0
    2.6000   -0.0000    0.0000 C   0  0  0  0  0  0  0  0  0  0  0  0
    4.1000    0.0000    0.0000 C   0  0  0  0  0  0  0  0  0  0  0  0
    1.7200    1.2100    0.0000 C   0  0  0  0  0  0  0  0  0  0  0  0
    4.9800   -1.2100    0.0000 C   0  0  0  0  0  0  0  0  0  0  0  0
   -3.6089   -1.5002    0.0000 Br  0  0  0  0  0  0  0  0  0  0  0  0
   10.3089    1.5002    0.0000 Br  0  0  0  0  0  0  0  0  0  0  0  0
    1.7200   -1.2100    0.0000 N   0  0  0  0  0  0  0  0  0  0  0  0
    4.9800    1.2100    0.0000 N   0  0  0  0  0  0  0  0  0  0  0  0
    2.1853    2.6360    0.0000 O   0  0  0  0  0  0  0  0  0  0  0  0
    4.5147   -2.6360    0.0000 O   0  0  0  0  0  0  0  0  0  0  0  0
  3  1  2  0
  4  2  2  0
  7  1  1  0
  7  5  2  0
  8  2  1  0
  8  6  2  0
  9  3  1  0
 10  4  1  0
 11  5  1  0
 11  9  2  0
 12  6  1  0
 12 10  2  0
 13 14  2  0
 15  9  1  0
 15 13  1  0
 16 10  1  0
 16 14  1  0
 17  7  1  0
 18  8  1  0
 19 11  1  0
 19 13  1  0
 20 12  1  0
 20 14  1  0
 21 15  2  0
 22 16  2  0
M  END
>  <NAME>  (2802) 
6,6'-DIBROMOINDIGOTIN

>  <SYNONYMS>  (2802) 


>  <SPECTRUM TYPE>  (2802) 
MS1

>  <INSTRUMENT TYPE>  (2802) 
EI-B

>  <INSTRUMENT>  (2802) 
JEOL JMS-D-300

>  <ION MODE>  (2802) 
P

>  <INCHIKEY>  (2802) 
ZVAPIIDBWWULJN-BUHFOSPRSA-N

>  <FORMULA>  (2802) 
C16H8Br2N2O2

>  <EXACT MASS>  (2802) 
417.895251696

>  <MW>  (2802) 
418

>  <ID>  (2802) 
JP007928

>  <CONTRIBUTOR>  (2802) 
University of Tokyo Team, {Faculty of Engineering, University of Tokyo

>  <COMMENT>  (2802) 
SMILES=C1=CC2=C(C=C1Br)N/C(=C/3\C(=O)C4=C(N3)C=C(C=C4)Br)/C2=O
InChI=InChI=1S/C16H8Br2N2O2/c17-7-1-3-9-11(5-7)19-13(15(9)21)14-16(22)10-4-2-8(18)6-12(10)20-14/h1-6,19-20H/b14-13+
computed SMILES=O=C1C2=CC=C(Br)C=C2NC1=C3NC4=CC(Br)=CC=C4C3=O
accession=JP007928
date=2016.01.19 (Created 2008.10.21, modified 2011.05.06)
author=FUJISE Y, HAMAMATSU UNIV. SCHOOL OF MEDICINE
license=CC BY-NC-SA
exact mass=417.89525
ionization energy=70 eV
ion type=[M]+*
computed spectral entropy=3.0201308603330292
computed normalized entropy=0.8637564218698122
SPLASH=splash10-00di-5420900000-7e438692bf90f2856af2
submitter=submitter = University of Tokyo Team (Faculty of Engineering, University of Tokyo)
MoNA Rating=3.75

>  <NUM PEAKS>  (2802) 
33

>  <MASS SPECTRAL PEAKS>  (2802) 
73 70.69
74 13.14
75 34.81
76 9.59
88 6.57
102 6.74
103 7.1
154 8.88
155 6.03
156 8.52
157 6.92
177 6.74
182 24.33
183 6.92
184 22.38
204 7.99
210 7.1
211 8.34
235 5.68
236 6.21
237 6.39
239 6.21
283 9.05
285 11.19
313 8.34
390 6.92
392 9.05
418 47.95
419 9.76
420 99.99
421 17.58
422 50.26
423 9.59

>  <PREDICTED SPECTRUM>  (2802) 
33 73
34 45
36 26
37 133
38 273
39 277
40 289
41 221
42 256
43 365
44 315
45 166
49 87
50 725
51 684
52 562
53 409
54 147
55 290
56 201
57 139
58 68
60 70
61 323
62 697
63 999
64 598
65 442
66 192
67 213
68 96
69 334
70 206
71 87
73 241
74 692
75 994
76 769
77 569
78 470
79 391
80 301
81 440
82 420
83 180
84 131
85 234
86 407
87 619
88 566
89 686
90 653
91 532
92 277
93 136
94 4
95 146
96 254
97 238
98 394
99 482
100 478
101 357
102 574
103 324
104 317
105 188
106 223
107 213
108 42
109 289
110 263
111 243
112 179
113 291
114 258
115 388
116 478
117 484
118 267
119 198
120 134
121 122
122 35
123 191
124 338
125 365
126 702
127 471
128 441
129 465
130 337
131 294
132 115
133 183
134 79
135 62
136 104
137 157
138 300
139 238
140 197
141 329
142 228
143 326
144 268
145 255
146 194
147 94
148 100
149 142
150 243
151 314
152 375
153 331
154 481
155 632
156 397
157 418
158 274
159 111
160 108
161 6
162 314
163 181
164 307
165 179
166 132
167 168
168 196
169 473
170 302
171 411
172 170
173 49
174 109
175 22
176 141
177 375
178 164
179 260
180 220
181 290
182 328
183 406
184 224
185 121
186 118
188 145
191 42
192 19
193 26
194 112
195 228
196 107
197 388
198 86
200 29
201 70
202 39
203 168
204 393
205 429
206 266
207 395
208 394
209 272
210 116
211 24
219 57
220 13
221 220
222 28
223 27
229 123
230 145
231 520
232 579
233 347
234 60
235 53
237 141
238 77
247 128
248 38
249 20
256 5
258 64
259 82
260 267
261 240
262 18
263 150
283 101
284 151
285 212
286 181
287 76
310 286
311 562
312 338
313 502
314 389
338 54
339 539
340 281
341 551
342 354
343 141
362 42
363 92
364 144
365 26
366 19
389 205
390 329
391 322
392 597
393 338
394 457
404 1
417 378
418 753
419 637
420 880
421 670
422 830
423 349

$$$$

     RDKit          2D

 16 16  0  0  1  0  0  0  0  0999 V2000
    3.2899    2.4204    0.0000 C   0  0  0  0  0  0  0  0  0  0  0  0
    3.8981   -0.7504    0.0000 C   0  0  0  0  0  0  0  0  0  0  0  0
    2.5987   -3.0002    0.0000 C   0  0  0  0  0  0  0  0  0  0  0  0
   -3.3491   -0.2013    0.0000 C   0  0  0  0  0  0  0  0  0  0  0  0
   -3.8978   -2.2504    0.0000 C   0  0  0  0  0  0  0  0  0  0  0  0
    2.7772    0.4897    0.0000 C   0  0  0  0  0  0  0  0  0  0  0  0
    1.8127    2.1596    0.0000 C   0  0  0  0  0  0  0  0  0  0  0  0
   -1.3000    0.7500    0.0000 C   0  0  0  0  0  0  0  0  0  0  0  0
    0.0000    1.5000    0.0000 C   0  0  0  0  0  0  0  0  0  0  0  0
   -0.0000   -1.5000    0.0000 C   0  0  0  0  0  0  0  0  0  0  0  0
    2.5989   -1.5002    0.0000 C   0  0  0  0  0  0  0  0  0  0  0  0
   -1.3000   -0.7500    0.0000 C   0  0  0  0  0  0  0  0  0  0  0  0
    1.3000   -0.7500    0.0000 C   0  0  0  0  0  0  0  0  0  0  0  0
   -2.5989   -1.5002    0.0000 C   0  0  0  0  0  0  0  0  0  0  0  0
    1.3000    0.7500    0.0000 C   0  0  0  0  0  0  0  0  0  0  0  0
   -1.8487   -2.7991    0.0000 O   0  0  0  0  0  0  0  0  0  0  0  0
  7  1  2  0
  9  8  1  0
 11  2  2  0
 11  3  1  0
 12  8  1  0
 12 10  1  0
 13 10  1  0
 13 11  1  6
 14  4  1  0
 14  5  1  0
 12 14  1  6
 15  6  1  6
 15  7  1  0
 15  9  1  0
 15 13  1  0
 14 16  1  0
M  END
>  <NAME>  (2803) 
ELEMOL

>  <SYNONYMS>  (2803) 


>  <SPECTRUM TYPE>  (2803) 
MS1

>  <INSTRUMENT TYPE>  (2803) 
EI-B

>  <INSTRUMENT>  (2803) 
JEOL JMS-D-300

>  <ION MODE>  (2803) 
P

>  <INCHIKEY>  (2803) 
GFJIQNADMLPFOW-VNHYZAJKSA-N

>  <FORMULA>  (2803) 
C15H26O

>  <EXACT MASS>  (2803) 
222.198365452

>  <MW>  (2803) 
222

>  <ID>  (2803) 
JP007927

>  <CONTRIBUTOR>  (2803) 
University of Tokyo Team, {Faculty of Engineering, University of Tokyo

>  <COMMENT>  (2803) 
SMILES=C=CC(C)(C1)C([H])(C(C)=C)CC([H])(C1)C(C)(C)O
InChI=InChI=1S/C15H26O/c1-7-15(6)9-8-12(14(4,5)16)10-13(15)11(2)3/h7,12-13,16H,1-2,8-10H2,3-6H3/t12-,13+,15-/m1/s1
computed SMILES=OC(C)(C)C1CCC(C=C)(C)C(C(=C)C)C1
accession=JP007927
date=2016.01.19 (Created 2008.10.21, modified 2011.05.06)
author=FUJISE Y, HAMAMATSU UNIV. SCHOOL OF MEDICINE
license=CC BY-NC-SA
exact mass=222.19837
ionization energy=70 eV
ion type=[M]+*
computed spectral entropy=3.7372343224027755
computed normalized entropy=0.8656038474514136
SPLASH=splash10-0aou-9600000000-99b4767c613a86377a88
submitter=submitter = University of Tokyo Team (Faculty of Engineering, University of Tokyo)
MoNA Rating=3.75

>  <NUM PEAKS>  (2803) 
75

>  <MASS SPECTRAL PEAKS>  (2803) 
51 3.21
52 2.07
53 20.54
54 2.4
55 35.02
56 2.6
57 6.91
58 1.53
59 95.39
60 3.08
65 7.92
66 2.57
67 42.24
68 38.06
69 33.58
70 3.77
71 12.13
72 1.81
77 16.99
78 3.21
79 41.17
80 19.85
81 69.19
82 15.17
83 8.39
84 4.7
85 2.18
91 23.94
92 13.15
93 99.99
94 30.16
95 35.67
96 8.82
97 3.21
103 1.39
105 34.95
106 9.29
107 55.66
108 28.36
109 20.12
110 2.91
111 1.54
115 1.24
117 1.69
118 1.35
119 29.49
120 10.12
121 47.39
122 13.98
123 14.57
124 1.97
131 1.47
133 18.66
134 10.18
135 27.53
136 14.75
137 3.23
139 1.2
145 1.47
147 18.75
148 10.51
149 13.28
150 1.95
151 1.03
160 1.35
161 54.38
162 12.22
163 10.97
164 5.44
175 4.36
176 1.87
189 23.32
190 3.48
204 13.88
205 2.73

>  <PREDICTED SPECTRUM>  (2803) 
27 164
29 108
31 126
38 5
39 348
40 157
41 760
42 156
43 983
44 49
45 38
50 55
51 196
52 154
53 529
54 275
55 575
56 153
57 37
58 108
59 999
60 142
63 105
65 235
66 161
67 730
68 659
69 569
70 113
71 369
72 79
75 112
77 436
78 223
79 740
80 411
81 935
82 343
83 190
84 55
89 19
91 441
92 307
93 907
94 586
95 476
96 162
97 61
103 81
104 83
105 371
106 264
107 515
108 329
109 358
110 79
111 102
115 13
117 36
118 89
119 288
120 258
121 644
122 315
123 148
127 48
129 108
131 246
132 3
133 242
134 122
135 309
136 379
137 19
145 10
146 265
147 333
148 215
149 520
150 111
161 174
162 116
163 75
164 268
165 2
171 38
175 29
189 468
190 90
204 364
205 89
207 58

$$$$

     RDKit          2D

 25 25  0  0  0  0  0  0  0  0999 V2000
  -14.9389    8.1950    0.0000 C   0  0  0  0  0  0  0  0  0  0  0  0
  -13.6399    7.4450    0.0000 C   0  0  0  0  0  0  0  0  0  0  0  0
  -12.3409    8.1950    0.0000 C   0  0  0  0  0  0  0  0  0  0  0  0
  -11.0418    7.4450    0.0000 C   0  0  0  0  0  0  0  0  0  0  0  0
   -9.7428    8.1950    0.0000 C   0  0  0  0  0  0  0  0  0  0  0  0
   -8.4437    7.4450    0.0000 C   0  0  0  0  0  0  0  0  0  0  0  0
   -7.1447    8.1950    0.0000 C   0  0  0  0  0  0  0  0  0  0  0  0
   -5.8457    7.4450    0.0000 C   0  0  0  0  0  0  0  0  0  0  0  0
   -4.5466    8.1950    0.0000 C   0  0  0  0  0  0  0  0  0  0  0  0
   -3.2476    7.4450    0.0000 C   0  0  0  0  0  0  0  0  0  0  0  0
    7.1447    5.9450    0.0000 C   0  0  0  0  0  0  0  0  0  0  0  0
    7.1452    7.4458    0.0000 C   0  0  0  0  0  0  0  0  0  0  0  0
    5.8452    5.1942    0.0000 C   0  0  0  0  0  0  0  0  0  0  0  0
   -1.9486    8.1950    0.0000 C   0  0  0  0  0  0  0  0  0  0  0  0
    5.8462    8.1958    0.0000 C   0  0  0  0  0  0  0  0  0  0  0  0
    4.5462    5.9442    0.0000 C   0  0  0  0  0  0  0  0  0  0  0  0
   -0.6495    7.4450    0.0000 C   0  0  0  0  0  0  0  0  0  0  0  0
    0.6495    9.6950    0.0000 C   0  0  0  0  0  0  0  0  0  0  0  0
    3.2476    8.1950    0.0000 C   0  0  0  0  0  0  0  0  0  0  0  0
    4.5466    7.4450    0.0000 C   0  0  0  0  0  0  0  0  0  0  0  0
    0.6495    8.1950    0.0000 C   0  0  0  0  0  0  0  0  0  0  0  0
    1.9486   10.4450    0.0000 C   0  0  0  0  0  0  0  0  0  0  0  0
    1.9486    7.4450    0.0000 N   0  0  0  0  0  0  0  0  0  0  0  0
    3.2476    9.6950    0.0000 O   0  0  0  0  0  0  0  0  0  0  0  0
    1.9486   11.9450    0.0000 O   0  0  0  0  0  0  0  0  0  0  0  0
  2  1  1  0
  3  2  1  0
  4  3  1  0
  5  4  1  0
  6  5  1  0
  7  6  1  0
  8  7  1  0
  9  8  1  0
 10  9  1  0
 12 11  2  0
 13 11  1  0
 14 10  1  0
 15 12  1  0
 16 13  2  0
 17 14  1  0
 20 15  2  0
 20 16  1  0
 20 19  1  0
 21 17  1  0
 21 18  1  0
 22 18  1  0
 23 19  1  0
 23 21  1  0
 24 22  2  0
 25 22  1  0
M  END
>  <NAME>  (2804) 
3-(BENZYLAMINO)PENTADECANOIC ACID

>  <SYNONYMS>  (2804) 


>  <SPECTRUM TYPE>  (2804) 
MS1

>  <INSTRUMENT TYPE>  (2804) 
EI-B

>  <INSTRUMENT>  (2804) 
JEOL JMS-DX-300

>  <ION MODE>  (2804) 
P

>  <INCHIKEY>  (2804) 
URBZNYXWHOGCJC-UHFFFAOYSA-N

>  <FORMULA>  (2804) 
C22H37NO2

>  <EXACT MASS>  (2804) 
347.282429424

>  <MW>  (2804) 
347

>  <ID>  (2804) 
JP007926

>  <CONTRIBUTOR>  (2804) 
University of Tokyo Team, {Faculty of Engineering, University of Tokyo

>  <COMMENT>  (2804) 
SMILES=CCCCCCCCCCCCC(CC(O)=O)NCc(c1)cccc1
InChI=InChI=1S/C22H37NO2/c1-2-3-4-5-6-7-8-9-10-14-17-21(18-22(24)25)23-19-20-15-12-11-13-16-20/h11-13,15-16,21,23H,2-10,14,17-19H2,1H3,(H,24,25)
computed SMILES=O=C(O)CC(NCC=1C=CC=CC1)CCCCCCCCCCCC
accession=JP007926
date=2016.01.19 (Created 2008.10.21, modified 2011.05.06)
author=MASS SPECTROSCOPY SOC. OF JAPAN (MSSJ)
license=CC BY-NC-SA
exact mass=347.28243
ionization energy=70 eV
ion type=[M]+*
computed spectral entropy=2.1685139674418776
computed normalized entropy=0.8217002120821755
SPLASH=splash10-003u-4900000000-1fcebcad55d9fd43229c
submitter=submitter = University of Tokyo Team (Faculty of Engineering, University of Tokyo)
MoNA Rating=3.75

>  <NUM PEAKS>  (2804) 
14

>  <MASS SPECTRAL PEAKS>  (2804) 
55 9.04
57 8
79 8.14
91 99.99
92 8.71
106 29.61
107 16.09
132 23.01
133 93.64
134 10.2
146 15.83
178 72.43
179 8.14
274 11.07

>  <PREDICTED SPECTRUM>  (2804) 
17 12
18 12
26 33
27 64
28 67
29 135
30 103
31 19
36 35
39 135
40 50
41 277
42 176
43 244
44 120
45 70
50 32
51 59
52 35
53 58
54 76
55 183
56 190
57 136
58 29
59 4
60 27
63 32
64 7
65 192
66 21
67 81
68 78
69 145
70 57
71 37
72 1
73 28
74 72
77 83
78 99
79 92
80 36
81 47
82 46
83 80
84 56
85 52
86 38
87 15
88 40
89 75
90 72
91 999
92 350
93 54
96 5
97 56
98 43
100 34
103 31
104 132
105 128
106 204
107 110
108 70
109 4
110 13
111 40
112 15
115 40
116 47
117 160
118 161
119 68
120 253
121 99
122 29
126 1
128 10
129 2
130 38
132 154
133 80
134 183
135 42
136 68
137 32
144 3
146 131
147 29
148 127
149 33
150 124
151 31
152 20
156 0
160 36
161 39
162 64
163 14
164 240
165 97
166 10
174 38
176 109
178 158
179 82
180 10
188 37
190 36
192 316
193 120
194 25
206 306
207 83
220 131
223 25
256 98
257 32
265 30
288 32
302 155
303 86
304 24
329 14
346 58
347 160
348 68

$$$$

     RDKit          2D

 16 16  0  0  0  0  0  0  0  0999 V2000
   -6.8197    3.1321    0.0000 C   0  0  0  0  0  0  0  0  0  0  0  0
   -5.5207    3.8821    0.0000 C   0  0  0  0  0  0  0  0  0  0  0  0
    3.5726    1.6321    0.0000 C   0  0  0  0  0  0  0  0  0  0  0  0
    3.5731    3.1329    0.0000 C   0  0  0  0  0  0  0  0  0  0  0  0
    2.2731    0.8813    0.0000 C   0  0  0  0  0  0  0  0  0  0  0  0
   -4.2216    3.1321    0.0000 C   0  0  0  0  0  0  0  0  0  0  0  0
    2.2740    3.8829    0.0000 C   0  0  0  0  0  0  0  0  0  0  0  0
    0.9740    1.6313    0.0000 C   0  0  0  0  0  0  0  0  0  0  0  0
   -2.9226    5.3821    0.0000 C   0  0  0  0  0  0  0  0  0  0  0  0
   -0.3245    3.8821    0.0000 C   0  0  0  0  0  0  0  0  0  0  0  0
    0.9745    3.1321    0.0000 C   0  0  0  0  0  0  0  0  0  0  0  0
   -2.9226    3.8821    0.0000 C   0  0  0  0  0  0  0  0  0  0  0  0
   -4.2216    6.1321    0.0000 C   0  0  0  0  0  0  0  0  0  0  0  0
   -1.6236    3.1321    0.0000 N   0  0  0  0  0  0  0  0  0  0  0  0
   -5.5207    5.3821    0.0000 O   0  0  0  0  0  0  0  0  0  0  0  0
   -4.2216    7.6321    0.0000 O   0  0  0  0  0  0  0  0  0  0  0  0
  2  1  1  0
  4  3  2  0
  5  3  1  0
  6  2  1  0
  7  4  1  0
  8  5  2  0
 11  7  2  0
 11  8  1  0
 11 10  1  0
 12  6  1  0
 12  9  1  0
 13  9  1  0
 14 10  1  0
 14 12  1  0
 15 13  2  0
 16 13  1  0
M  END
>  <NAME>  (2805) 
3-(BENZYLAMINO)CAPROIC ACID

>  <SYNONYMS>  (2805) 
3-(BENZYLAMINO)HEXANOIC ACID

>  <SPECTRUM TYPE>  (2805) 
MS1

>  <INSTRUMENT TYPE>  (2805) 
EI-B

>  <INSTRUMENT>  (2805) 
JEOL JMS-DX-300

>  <ION MODE>  (2805) 
P

>  <INCHIKEY>  (2805) 
JQKKEYCMOYWIOU-UHFFFAOYSA-N

>  <FORMULA>  (2805) 
C13H19NO2

>  <EXACT MASS>  (2805) 
221.141578848

>  <MW>  (2805) 
221

>  <ID>  (2805) 
JP007924

>  <CONTRIBUTOR>  (2805) 
University of Tokyo Team, {Faculty of Engineering, University of Tokyo

>  <COMMENT>  (2805) 
SMILES=CCCC(CC(O)=O)NCc(c1)cccc1
InChI=InChI=1S/C13H19NO2/c1-2-6-12(9-13(15)16)14-10-11-7-4-3-5-8-11/h3-5,7-8,12,14H,2,6,9-10H2,1H3,(H,15,16)
computed SMILES=O=C(O)CC(NCC=1C=CC=CC1)CCC
accession=JP007924
date=2016.01.19 (Created 2008.10.21, modified 2011.05.06)
author=MASS SPECTROSCOPY SOC. OF JAPAN (MSSJ)
license=CC BY-NC-SA
exact mass=221.14158
ionization energy=70 eV
ion type=[M]+*
computed spectral entropy=1.568730472692253
computed normalized entropy=0.7543998911481711
SPLASH=splash10-0006-9400000000-cd9396e4536c16e849b0
submitter=submitter = University of Tokyo Team (Faculty of Engineering, University of Tokyo)
MoNA Rating=3.75

>  <NUM PEAKS>  (2805) 
8

>  <MASS SPECTRAL PEAKS>  (2805) 
65 12.51
91 99.99
92 9.59
106 11.1
132 7.53
133 19.84
162 7.01
178 21.55

>  <PREDICTED SPECTRUM>  (2805) 
14 24
15 75
16 17
17 30
18 45
19 4
25 3
26 60
27 148
28 125
29 104
30 137
31 91
33 34
34 6
36 24
37 19
38 54
39 261
40 127
41 272
42 272
43 292
44 160
45 185
46 59
49 12
50 122
51 221
52 139
53 132
54 133
55 161
56 214
57 111
58 124
59 132
60 73
62 67
63 160
64 56
65 390
66 123
67 81
68 151
69 96
70 132
71 103
72 100
73 6
74 65
75 31
76 48
77 232
78 192
79 252
80 137
81 44
82 55
83 101
84 144
85 36
86 51
87 33
88 67
89 191
90 85
91 999
92 347
93 136
94 93
96 38
97 2
98 57
99 50
100 18
101 28
102 29
103 44
104 176
105 71
106 540
107 196
108 142
110 46
112 109
113 19
114 17
115 90
116 57
117 157
118 211
119 155
120 130
121 87
130 83
131 58
132 111
133 121
134 121
135 77
140 10
142 22
143 1
144 89
146 101
149 7
160 116
161 130
162 169
163 30
164 17
176 122
177 91
178 224
179 91
180 15
188 63
190 45
203 55
206 26
221 115
222 15

$$$$

     RDKit          2D

 21 23  0  0  0  0  0  0  0  0999 V2000
   -9.9251    0.7010    0.0000 C   0  0  0  0  0  0  0  0  0  0  0  0
   -8.6262   -0.0492    0.0000 C   0  0  0  0  0  0  0  0  0  0  0  0
    3.0600    2.2000    0.0000 C   0  0  0  0  0  0  0  0  0  0  0  0
    1.7600    2.9500    0.0000 C   0  0  0  0  0  0  0  0  0  0  0  0
    3.0600    0.7000    0.0000 C   0  0  0  0  0  0  0  0  0  0  0  0
    0.4600    2.2000    0.0000 C   0  0  0  0  0  0  0  0  0  0  0  0
    1.7600   -1.5500    0.0000 C   0  0  0  0  0  0  0  0  0  0  0  0
    0.4600   -2.3000    0.0000 C   0  0  0  0  0  0  0  0  0  0  0  0
   -4.7289    0.7002    0.0000 C   0  0  0  0  0  0  0  0  0  0  0  0
   -3.4300   -1.5500    0.0000 C   0  0  0  0  0  0  0  0  0  0  0  0
    1.7600   -0.0500    0.0000 C   0  0  0  0  0  0  0  0  0  0  0  0
   -3.4300   -0.0500    0.0000 C   0  0  0  0  0  0  0  0  0  0  0  0
    0.4600    0.7000    0.0000 C   0  0  0  0  0  0  0  0  0  0  0  0
   -0.8300   -1.5500    0.0000 C   0  0  0  0  0  0  0  0  0  0  0  0
   -6.0281   -0.0496    0.0000 C   0  0  0  0  0  0  0  0  0  0  0  0
   -2.1300    0.7000    0.0000 C   0  0  0  0  0  0  0  0  0  0  0  0
   -2.1300   -2.3000    0.0000 N   0  0  0  0  0  0  0  0  0  0  0  0
   -0.8300   -0.0500    0.0000 N   0  0  0  0  0  0  0  0  0  0  0  0
   -6.0283   -1.5496    0.0000 O   0  0  0  0  0  0  0  0  0  0  0  0
   -2.1300    2.2000    0.0000 O   0  0  0  0  0  0  0  0  0  0  0  0
   -7.3270    0.7006    0.0000 O   0  0  0  0  0  0  0  0  0  0  0  0
  2  1  1  0
  4  3  2  0
  5  3  1  0
  6  4  1  0
  8  7  2  0
 11  5  2  0
 11  7  1  0
 12  9  1  0
 12 10  2  0
 13  6  2  0
 13 11  1  0
 14  8  1  0
 15  9  1  0
 16 12  1  0
 17 10  1  0
 17 14  2  0
 18 13  1  0
 18 14  1  0
 18 16  1  0
 19 15  2  0
 20 16  2  0
 21  2  1  0
 21 15  1  0
M  END
>  <NAME>  (2806) 
1-OXO-1H-PYRIMIDO(1,2-A)QUINOLINE-2-ACETICACID ETHYL ESTER

>  <SYNONYMS>  (2806) 


>  <SPECTRUM TYPE>  (2806) 
MS1

>  <INSTRUMENT TYPE>  (2806) 
EI-B

>  <INSTRUMENT>  (2806) 
MS-902

>  <ION MODE>  (2806) 
P

>  <INCHIKEY>  (2806) 
GKZJDLVDRPMCOY-UHFFFAOYSA-N

>  <FORMULA>  (2806) 
C16H14N2O3

>  <EXACT MASS>  (2806) 
282.10044230799997

>  <MW>  (2806) 
282

>  <ID>  (2806) 
JP007919

>  <CONTRIBUTOR>  (2806) 
University of Tokyo Team, {Faculty of Engineering, University of Tokyo

>  <COMMENT>  (2806) 
SMILES=CCOC(=O)CC(=C([H])3)C(=O)N(c21)C(=N3)C([H])=C([H])c(cccc2)1
InChI=InChI=1S/C16H14N2O3/c1-2-21-15(19)9-12-10-17-14-8-7-11-5-3-4-6-13(11)18(14)16(12)20/h3-8,10H,2,9H2,1H3
computed SMILES=O=C(OCC)CC1=CN=C2C=CC=3C=CC=CC3N2C1=O
author=SASAKI S, TOYOHASHI UNIV. OF TECH.
license=CC BY-NC-SA
exact mass=282.10044
accession=JP007919
date=2016.01.19 (Created 2008.10.21, modified 2011.05.06)
ionization energy=70 eV
ion type=[M]+*
computed spectral entropy=1.6206334356490686
computed normalized entropy=0.5984502927565563
SPLASH=splash10-0a4i-0290000000-786ca2e498d86897f8f6
submitter=submitter = University of Tokyo Team (Faculty of Engineering, University of Tokyo)
MoNA Rating=3.75

>  <NUM PEAKS>  (2806) 
15

>  <MASS SPECTRAL PEAKS>  (2806) 
55 3.1
64 2
77 2.6
101 0.43
128 27.1
129 4.3
155 2
180 0.23
181 7.4
209 99.99
210 1.7
236 0.31
237 4.9
282 37.1
283 6.3

>  <PREDICTED SPECTRUM>  (2806) 
29 35
39 15
41 12
44 33
51 26
55 52
57 20
63 65
64 94
65 1
75 25
76 58
77 106
84 0
86 1
89 58
90 66
97 13
100 18
101 108
102 3
114 0
115 12
126 20
127 69
128 585
129 217
130 1
154 109
155 153
156 28
179 80
180 137
181 321
182 161
207 2
208 21
209 999
210 321
211 92
236 248
237 163
282 647
283 259
284 28

$$$$

     RDKit          2D

 21 23  0  0  0  0  0  0  0  0999 V2000
   -9.9251    0.7010    0.0000 C   0  0  0  0  0  0  0  0  0  0  0  0
   -8.6262   -0.0492    0.0000 C   0  0  0  0  0  0  0  0  0  0  0  0
    3.0600    2.2000    0.0000 C   0  0  0  0  0  0  0  0  0  0  0  0
    1.7600    2.9500    0.0000 C   0  0  0  0  0  0  0  0  0  0  0  0
    3.0600    0.7000    0.0000 C   0  0  0  0  0  0  0  0  0  0  0  0
    0.4600    2.2000    0.0000 C   0  0  0  0  0  0  0  0  0  0  0  0
    1.7600   -1.5500    0.0000 C   0  0  0  0  0  0  0  0  0  0  0  0
    0.4600   -2.3000    0.0000 C   0  0  0  0  0  0  0  0  0  0  0  0
   -7.3270    0.7006    0.0000 C   0  0  0  0  0  0  0  0  0  0  0  0
   -3.4300   -1.5500    0.0000 C   0  0  0  0  0  0  0  0  0  0  0  0
    1.7600   -0.0500    0.0000 C   0  0  0  0  0  0  0  0  0  0  0  0
   -3.4300   -0.0500    0.0000 C   0  0  0  0  0  0  0  0  0  0  0  0
    0.4600    0.7000    0.0000 C   0  0  0  0  0  0  0  0  0  0  0  0
   -0.8300   -1.5500    0.0000 C   0  0  0  0  0  0  0  0  0  0  0  0
   -2.1300    0.7000    0.0000 C   0  0  0  0  0  0  0  0  0  0  0  0
   -4.7289    0.7002    0.0000 C   0  0  0  0  0  0  0  0  0  0  0  0
   -2.1300   -2.3000    0.0000 N   0  0  0  0  0  0  0  0  0  0  0  0
   -0.8300   -0.0500    0.0000 N   0  0  0  0  0  0  0  0  0  0  0  0
   -2.1300    2.2000    0.0000 O   0  0  0  0  0  0  0  0  0  0  0  0
   -4.7287    2.2002    0.0000 O   0  0  0  0  0  0  0  0  0  0  0  0
   -6.0281   -0.0496    0.0000 O   0  0  0  0  0  0  0  0  0  0  0  0
  2  1  1  0
  4  3  2  0
  5  3  1  0
  6  4  1  0
  8  7  2  0
  9  2  1  0
 11  5  2  0
 11  7  1  0
 12 10  2  0
 13  6  2  0
 13 11  1  0
 14  8  1  0
 15 12  1  0
 16 12  1  0
 17 10  1  0
 17 14  2  0
 18 13  1  0
 18 14  1  0
 18 15  1  0
 19 15  2  0
 20 16  2  0
 21  9  1  0
 21 16  1  0
M  END
>  <NAME>  (2807) 
1-OXO-1H-PYRIMIDO(1,2-A)QUINOLINE-2-CARBOXYLIC ACID PROPYL ESTER

>  <SYNONYMS>  (2807) 


>  <SPECTRUM TYPE>  (2807) 
MS1

>  <INSTRUMENT TYPE>  (2807) 
EI-B

>  <INSTRUMENT>  (2807) 
MS-902

>  <ION MODE>  (2807) 
P

>  <INCHIKEY>  (2807) 
YTDVVJLYXSIROL-UHFFFAOYSA-N

>  <FORMULA>  (2807) 
C16H14N2O3

>  <EXACT MASS>  (2807) 
282.10044230799997

>  <MW>  (2807) 
282

>  <ID>  (2807) 
JP007918

>  <CONTRIBUTOR>  (2807) 
University of Tokyo Team, {Faculty of Engineering, University of Tokyo

>  <COMMENT>  (2807) 
SMILES=CCCOC(=O)C(=C3)C(=O)N(C1=N3)c(c2)c(ccc2)C=C1
InChI=InChI=1S/C16H14N2O3/c1-2-9-21-16(20)12-10-17-14-8-7-11-5-3-4-6-13(11)18(14)15(12)19/h3-8,10H,2,9H2,1H3
computed SMILES=O=C(OCCC)C1=CN=C2C=CC=3C=CC=CC3N2C1=O
accession=JP007918
date=2016.01.19 (Created 2008.10.21, modified 2011.05.06)
author=SASAKI S, TOYOHASHI UNIV. OF TECH.
license=CC BY-NC-SA
exact mass=282.10044
ionization energy=70 eV
ion type=[M]+*
computed spectral entropy=2.6370192590001826
computed normalized entropy=0.809374193866442
SPLASH=splash10-00pj-1950000000-a6d95291ab3ab5d3dc6c
submitter=submitter = University of Tokyo Team (Faculty of Engineering, University of Tokyo)
MoNA Rating=3.75

>  <NUM PEAKS>  (2807) 
26

>  <MASS SPECTRAL PEAKS>  (2807) 
64 12
69 40
77 8.2
101 1.6
119 12
128 99.99
129 24.8
140 1.2
155 8.9
168 53
169 15
194 0.45
195 23
196 57
197 8
212 2.8
213 4.5
219 5.8
223 58
224 0.97
240 17
241 3.6
254 4.2
268 0.57
282 75
283 16

>  <PREDICTED SPECTRUM>  (2807) 
27 24
39 0
41 134
42 17
43 16
44 19
50 31
51 97
55 52
63 93
64 94
69 240
70 78
75 58
76 91
77 227
90 0
101 291
112 1
114 3
128 911
129 559
139 19
140 355
141 30
144 21
155 80
167 127
168 741
169 417
195 523
196 999
197 327
212 913
213 144
223 880
224 450
225 114
240 484
241 178
254 38
267 29
281 1
282 941
283 414

$$$$

     RDKit          2D

 21 23  0  0  0  0  0  0  0  0999 V2000
   -8.6262   -0.0492    0.0000 C   0  0  0  0  0  0  0  0  0  0  0  0
   -7.3268    2.2006    0.0000 C   0  0  0  0  0  0  0  0  0  0  0  0
    3.0600    2.2000    0.0000 C   0  0  0  0  0  0  0  0  0  0  0  0
    1.7600    2.9500    0.0000 C   0  0  0  0  0  0  0  0  0  0  0  0
    3.0600    0.7000    0.0000 C   0  0  0  0  0  0  0  0  0  0  0  0
    0.4600    2.2000    0.0000 C   0  0  0  0  0  0  0  0  0  0  0  0
    1.7600   -1.5500    0.0000 C   0  0  0  0  0  0  0  0  0  0  0  0
    0.4600   -2.3000    0.0000 C   0  0  0  0  0  0  0  0  0  0  0  0
   -3.4300   -1.5500    0.0000 C   0  0  0  0  0  0  0  0  0  0  0  0
   -7.3270    0.7006    0.0000 C   0  0  0  0  0  0  0  0  0  0  0  0
    1.7600   -0.0500    0.0000 C   0  0  0  0  0  0  0  0  0  0  0  0
   -3.4300   -0.0500    0.0000 C   0  0  0  0  0  0  0  0  0  0  0  0
    0.4600    0.7000    0.0000 C   0  0  0  0  0  0  0  0  0  0  0  0
   -0.8300   -1.5500    0.0000 C   0  0  0  0  0  0  0  0  0  0  0  0
   -2.1300    0.7000    0.0000 C   0  0  0  0  0  0  0  0  0  0  0  0
   -4.7289    0.7002    0.0000 C   0  0  0  0  0  0  0  0  0  0  0  0
   -2.1300   -2.3000    0.0000 N   0  0  0  0  0  0  0  0  0  0  0  0
   -0.8300   -0.0500    0.0000 N   0  0  0  0  0  0  0  0  0  0  0  0
   -2.1300    2.2000    0.0000 O   0  0  0  0  0  0  0  0  0  0  0  0
   -4.7287    2.2002    0.0000 O   0  0  0  0  0  0  0  0  0  0  0  0
   -6.0281   -0.0496    0.0000 O   0  0  0  0  0  0  0  0  0  0  0  0
  4  3  2  0
  5  3  1  0
  6  4  1  0
  8  7  2  0
 10  1  1  0
 10  2  1  0
 11  5  2  0
 11  7  1  0
 12  9  2  0
 13  6  2  0
 13 11  1  0
 14  8  1  0
 15 12  1  0
 16 12  1  0
 17  9  1  0
 17 14  2  0
 18 13  1  0
 18 14  1  0
 18 15  1  0
 19 15  2  0
 20 16  2  0
 21 10  1  0
 21 16  1  0
M  END
>  <NAME>  (2808) 
1-OXO-1H-PYRIMIDO(1,2-A)QUINOLINE-2-CARBOXYLIC ACID ISOPROPYL ESTER

>  <SYNONYMS>  (2808) 


>  <SPECTRUM TYPE>  (2808) 
MS1

>  <INSTRUMENT TYPE>  (2808) 
EI-B

>  <INSTRUMENT>  (2808) 
MS-902

>  <ION MODE>  (2808) 
P

>  <INCHIKEY>  (2808) 
FKFQNAKEKPOTSM-UHFFFAOYSA-N

>  <FORMULA>  (2808) 
C16H14N2O3

>  <EXACT MASS>  (2808) 
282.10044230799997

>  <MW>  (2808) 
282

>  <ID>  (2808) 
JP007917

>  <CONTRIBUTOR>  (2808) 
University of Tokyo Team, {Faculty of Engineering, University of Tokyo

>  <COMMENT>  (2808) 
SMILES=CC(C)OC(=O)C(=C3)C(=O)N(C1=N3)c(c2)c(ccc2)C=C1
InChI=InChI=1S/C16H14N2O3/c1-10(2)21-16(20)12-9-17-14-8-7-11-5-3-4-6-13(11)18(14)15(12)19/h3-10H,1-2H3
computed SMILES=O=C(OC(C)C)C1=CN=C2C=CC=3C=CC=CC3N2C1=O
accession=JP007917
date=2016.01.19 (Created 2008.10.21, modified 2011.05.06)
author=SASAKI S, TOYOHASHI UNIV. OF TECH.
license=CC BY-NC-SA
exact mass=282.10044
ionization energy=70 eV
ion type=[M]+*
computed spectral entropy=2.483325980129761
computed normalized entropy=0.7813983376920576
SPLASH=splash10-003s-1960000000-f7e3559e8121ddd5a055
submitter=submitter = University of Tokyo Team (Faculty of Engineering, University of Tokyo)
MoNA Rating=3.75

>  <NUM PEAKS>  (2808) 
24

>  <MASS SPECTRAL PEAKS>  (2808) 
64 6.5
69 16
77 6.4
101 1.2
128 67
129 15
140 9.8
155 0.52
167 5.2
168 37
169 7.5
194 0.4
195 19
196 79
197 10
212 5
223 37
224 12
239 3.5
240 0.77
254 2.3
268 3.2
282 99.99
283 17

>  <PREDICTED SPECTRUM>  (2808) 
41 135
42 0
43 49
51 56
55 43
63 52
64 33
69 177
70 76
75 12
76 54
77 171
90 33
101 166
112 43
128 863
129 503
140 313
141 4
144 7
154 18
155 66
167 171
168 607
169 344
194 14
195 466
196 999
197 330
212 894
213 89
223 648
224 359
225 51
240 246
241 9
254 32
267 58
282 882
283 382

$$$$

     RDKit          2D

 20 22  0  0  0  0  0  0  0  0999 V2000
   -5.1968   -3.0006    0.0000 C   0  0  0  0  0  0  0  0  0  0  0  0
   -3.8971   -3.7512    0.0000 C   0  0  0  0  0  0  0  0  0  0  0  0
   -5.1975   -1.4998    0.0000 C   0  0  0  0  0  0  0  0  0  0  0  0
    5.1989    1.5002    0.0000 C   0  0  0  0  0  0  0  0  0  0  0  0
    5.1989    3.0002    0.0000 C   0  0  0  0  0  0  0  0  0  0  0  0
   -2.5982   -3.0010    0.0000 C   0  0  0  0  0  0  0  0  0  0  0  0
   -3.8986   -0.7496    0.0000 C   0  0  0  0  0  0  0  0  0  0  0  0
    3.8989    0.7502    0.0000 C   0  0  0  0  0  0  0  0  0  0  0  0
    3.8989    3.7502    0.0000 C   0  0  0  0  0  0  0  0  0  0  0  0
   -0.0000   -1.5000    0.0000 C   0  0  0  0  0  0  0  0  0  0  0  0
   -2.5989   -1.5002    0.0000 C   0  0  0  0  0  0  0  0  0  0  0  0
    2.5989    1.5002    0.0000 C   0  0  0  0  0  0  0  0  0  0  0  0
   -1.3000   -0.7500    0.0000 C   0  0  0  0  0  0  0  0  0  0  0  0
    2.5989    3.0002    0.0000 C   0  0  0  0  0  0  0  0  0  0  0  0
   -1.3000    0.7500    0.0000 C   0  0  0  0  0  0  0  0  0  0  0  0
    1.3000    0.7500    0.0000 C   0  0  0  0  0  0  0  0  0  0  0  0
   -2.5989    1.5002    0.0000 Cl  0  0  0  0  0  0  0  0  0  0  0  0
    1.3000   -0.7500    0.0000 N   0  0  0  0  0  0  0  0  0  0  0  0
    0.0000    1.5000    0.0000 N   0  0  0  0  0  0  0  0  0  0  0  0
    1.3000    3.7504    0.0000 O   0  0  0  0  0  0  0  0  0  0  0  0
  2  1  2  0
  3  1  1  0
  5  4  2  0
  6  2  1  0
  7  3  2  0
  8  4  1  0
  9  5  1  0
 11  6  2  0
 11  7  1  0
 12  8  2  0
 13 10  2  0
 13 11  1  0
 14  9  2  0
 14 12  1  0
 15 13  1  0
 16 12  1  0
 17 15  1  0
 18 10  1  0
 18 16  2  0
 19 15  2  0
 19 16  1  0
 20 14  1  0
M  END
>  <NAME>  (2809) 
4-CHLORO-2-(2-HYDROXYPHENYL)-5-PHENYLPYRIMIDINE

>  <SYNONYMS>  (2809) 


>  <SPECTRUM TYPE>  (2809) 
MS1

>  <INSTRUMENT TYPE>  (2809) 
EI-B

>  <INSTRUMENT>  (2809) 
MS-902

>  <ION MODE>  (2809) 
P

>  <INCHIKEY>  (2809) 
LXVBVEUBEWFAIM-UHFFFAOYSA-N

>  <FORMULA>  (2809) 
C16H11ClN2O

>  <EXACT MASS>  (2809) 
282.055990652

>  <MW>  (2809) 
282

>  <ID>  (2809) 
JP007916

>  <CONTRIBUTOR>  (2809) 
University of Tokyo Team, {Faculty of Engineering, University of Tokyo

>  <COMMENT>  (2809) 
SMILES=Oc(c3)c(ccc3)c(n2)nc(Cl)c(c2)c(c1)cccc1
InChI=InChI=1S/C16H11ClN2O/c17-15-13(11-6-2-1-3-7-11)10-18-16(19-15)12-8-4-5-9-14(12)20/h1-10,20H
computed SMILES=ClC=1N=C(N=CC1C2=CC=CC=C2)C=3C=CC=CC3O
accession=JP007916
date=2016.01.19 (Created 2008.10.21, modified 2011.05.06)
author=SASAKI S, TOYOHASHI UNIV. OF TECH.
license=CC BY-NC-SA
exact mass=282.05599
ionization energy=70 eV
ion type=[M]+*
computed spectral entropy=2.5496545726134237
computed normalized entropy=0.6551316292407469
SPLASH=splash10-001i-2290000000-ea70300f5bc1f37d00cd
submitter=submitter = University of Tokyo Team (Faculty of Engineering, University of Tokyo)
MoNA Rating=3.75

>  <NUM PEAKS>  (2809) 
49

>  <MASS SPECTRAL PEAKS>  (2809) 
50 2.5
51 5.1
52 1.6
63 0.24
64 1.9
65 1.3
74 1.7
75 0.19
77 9.2
78 1.1
82.5 8.3
83 0.69
85 4.2
87 1.6
88 1.1
89 0.11
91 2.9
95.5 1.7
96 1.1
101 0.39
102 5.7
103 1.5
109 1.6
109.5 0.11
120 1.7
126 1.1
127 2.6
128 0.92
129 1.1
136 6.2
138 2.4
139 0.11
141 3.8
142 1.5
149 1.7
153 0.11
192 1.3
217 1.5
218 1.1
219 0.19
246 1.1
247 13.7
248 2.9
254 0.32
256 1.3
282 99.99
283 17.5
284 3.29
285 5.1

>  <PREDICTED SPECTRUM>  (2809) 
18 0
27 20
28 28
29 17
33 13
35 17
36 58
37 31
38 88
39 191
40 76
41 46
43 53
44 52
49 26
50 124
51 206
52 140
53 67
54 34
55 47
56 23
57 21
61 45
62 121
63 188
64 132
65 116
66 57
67 13
68 15
69 22
70 9
71 25
73 10
74 77
75 156
76 171
77 220
78 76
80 24
81 12
82 44
83 44
84 67
85 68
86 73
87 93
88 116
89 177
90 119
91 100
92 63
93 10
94 29
96 37
97 36
98 61
99 78
100 101
101 120
102 220
103 122
104 109
105 15
106 56
107 47
108 74
109 23
110 6
111 7
112 25
113 90
114 155
115 187
116 185
117 69
118 55
119 47
120 17
121 11
122 16
123 61
124 47
125 68
126 74
127 178
128 151
129 106
130 99
131 26
132 18
133 39
134 49
135 43
136 74
137 70
138 71
139 100
140 155
141 119
142 74
143 20
144 14
149 40
150 53
151 144
152 99
153 92
154 50
155 38
156 14
162 18
163 82
164 89
165 119
166 43
168 2
176 39
188 15
189 42
190 91
191 124
192 121
193 27
215 29
216 7
217 135
218 126
219 250
220 59
229 8
230 13
245 38
246 124
247 519
248 249
249 24
253 103
254 109
255 80
256 61
280 14
281 158
282 999
283 422
284 610
285 241
286 65

$$$$

     RDKit          2D

 21 23  0  0  0  0  0  0  0  0999 V2000
   -3.2477    2.2948    0.0000 C   0  0  0  0  0  0  0  0  0  0  0  0
   -1.9482    1.5440    0.0000 C   0  0  0  0  0  0  0  0  0  0  0  0
   -3.2482    3.7957    0.0000 C   0  0  0  0  0  0  0  0  0  0  0  0
   -0.6491    2.2940    0.0000 C   0  0  0  0  0  0  0  0  0  0  0  0
   -1.9491    4.5457    0.0000 C   0  0  0  0  0  0  0  0  0  0  0  0
    1.9486    3.7951    0.0000 C   0  0  0  0  0  0  0  0  0  0  0  0
    5.8462    4.5463    0.0000 C   0  0  0  0  0  0  0  0  0  0  0  0
   -0.6496    3.7948    0.0000 C   0  0  0  0  0  0  0  0  0  0  0  0
    4.5471    3.7963    0.0000 C   0  0  0  0  0  0  0  0  0  0  0  0
    0.6494    4.5448    0.0000 C   0  0  0  0  0  0  0  0  0  0  0  0
    3.2480    4.5461    0.0000 C   0  0  0  0  0  0  0  0  0  0  0  0
    4.5476    2.2955    0.0000 C   0  0  0  0  0  0  0  0  0  0  0  0
    7.1462    2.2946    0.0000 C   0  0  0  0  0  0  0  0  0  0  0  0
    1.9491    6.7967    0.0000 C   0  0  0  0  0  0  0  0  0  0  0  0
    7.1457    3.7955    0.0000 N   0  0  0  0  0  0  0  0  0  0  0  0
    0.6497    6.0457    0.0000 N   0  0  0  0  0  0  0  0  0  0  0  0
    3.2482    6.0469    0.0000 N   0  0  0  0  0  0  0  0  0  0  0  0
    5.8471    1.5446    0.0000 N   0  0  0  0  0  0  0  0  0  0  0  0
    3.2486    1.5455    0.0000 O   0  0  0  0  0  0  0  0  0  0  0  0
    8.4453    1.5448    0.0000 O   0  0  0  0  0  0  0  0  0  0  0  0
    1.9486    8.2967    0.0000 O   0  0  0  0  0  0  0  0  0  0  0  0
  2  1  2  0
  3  1  1  0
  4  2  1  0
  5  3  2  0
  8  4  2  0
  8  5  1  0
  9  7  2  0
 10  6  2  0
 10  8  1  0
 11  6  1  0
 11  9  1  0
 12  9  1  0
 15  7  1  0
 15 13  2  0
 16 10  1  0
 16 14  2  0
 17 11  2  0
 17 14  1  0
 18 12  2  0
 18 13  1  0
 19 12  1  0
 20 13  1  0
 21 14  1  0
M  END
>  <NAME>  (2810) 
4-(2,4-DIOXO-1,2,3,4-TETRAHYDROPYRIMIDIN-5-YL)-6-PHENYL-1,2-DIHYDROPYRIMIDIN-2-ONE

>  <SYNONYMS>  (2810) 


>  <SPECTRUM TYPE>  (2810) 
MS1

>  <INSTRUMENT TYPE>  (2810) 
EI-B

>  <INSTRUMENT>  (2810) 
MS-902

>  <ION MODE>  (2810) 
P

>  <INCHIKEY>  (2810) 
ZBPPVCOFAWPGSG-UHFFFAOYSA-N

>  <FORMULA>  (2810) 
C14H10N4O3

>  <EXACT MASS>  (2810) 
282.07529017999997

>  <MW>  (2810) 
282

>  <ID>  (2810) 
JP007915

>  <CONTRIBUTOR>  (2810) 
University of Tokyo Team, {Faculty of Engineering, University of Tokyo

>  <COMMENT>  (2810) 
SMILES=O=C(N3)NC(=O)C(=C3)C(=N2)C=C(NC(=O)2)c(c1)cccc1
InChI=InChI=1S/C14H10N4O3/c19-12-9(7-15-13(20)18-12)11-6-10(16-14(21)17-11)8-4-2-1-3-5-8/h1-7H,(H,16,17,21)(H2,15,18,19,20)
computed SMILES=OC1=NC=C(C(O)=N1)C=2N=C(O)N=C(C2)C=3C=CC=CC3
accession=JP007915
date=2016.01.19 (Created 2008.10.21, modified 2011.05.06)
author=SASAKI S, TOYOHASHI UNIV. OF TECH.
license=CC BY-NC-SA
exact mass=282.07529
ionization energy=70 eV
ion type=[M]+*
computed spectral entropy=3.476614814678126
computed normalized entropy=0.7533096485761189
SPLASH=splash10-001i-4490000000-8826fcea01d66f3c7c58
submitter=submitter = University of Tokyo Team (Faculty of Engineering, University of Tokyo)
MoNA Rating=3.75

>  <NUM PEAKS>  (2810) 
101

>  <MASS SPECTRAL PEAKS>  (2810) 
60 1.9
62 1.3
63 3.7
64 0.27
65 2.6
66 2.6
67 1.9
68 0.23
69 4
70 1.9
70.5 5.5
71 0.35
72 3.1
73 37
74 1.7
75 0.23
76 5.4
77 21.2
77.5 1.5
78 0.49
79 1.4
80 1.5
81 2.8
82 0.13
83 2.5
88 1
89 2.8
90 0.13
91 2
91.5 2.1
92 2.6
95 0.23
96 1.3
97 2.2
101 2.7
102 0.59
103 4.2
104 19.6
105 13
106 0.19
109 1.4
111 1.1
113 2.4
114 0.23
115 2.5
116 2.4
117 2.2
119 0.14
126 1.4
127 1.8
128 6.3
129 0.38
130 1.8
140 7.8
141 2.8
142 0.12
144 1
150 1.7
152 1.1
153 0.1
154 1.1
155 7.4
156 3.6
167 0.23
168 3.7
169 2.2
171 1.2
172 0.11
178 3.3
182 2.3
183 7.8
184 0.96
185 1.9
195 1.7
196 4.4
197 0.35
198 1.3
209 1.2
210 18.4
211 5.29
212 16.7
213 2.5
214 1.1
223 0.14
236 1.6
237 2.7
238 16.8
239 0.31
240 7
241 1.3
247 1.8
253 0.61
254 8.1
255 1.7
256 1.4
264 0.1
266 1.1
281 59.9
282 99.99
283 2.18
284 3.4

>  <PREDICTED SPECTRUM>  (2810) 
33 10
34 16
36 56
37 33
38 92
39 198
40 150
41 210
42 306
43 308
44 332
45 148
46 18
49 21
50 228
51 324
52 217
53 176
54 120
55 117
56 95
57 66
58 49
60 93
61 74
62 156
63 198
64 114
65 112
66 119
67 137
68 184
69 186
70 150
71 116
72 16
73 83
74 155
75 217
76 297
77 481
78 183
79 87
80 51
81 71
82 121
83 122
84 130
85 104
86 108
87 118
88 121
89 230
90 132
91 65
92 43
93 41
94 109
95 112
96 116
97 72
98 56
99 84
100 156
101 176
102 335
103 263
104 516
105 284
106 47
107 60
108 113
109 133
110 108
111 57
112 60
113 111
114 161
115 196
116 231
117 155
118 87
119 25
120 10
121 10
122 48
123 81
124 49
125 26
126 85
127 162
128 236
129 253
130 161
131 38
132 34
134 29
136 16
138 35
139 69
140 108
141 102
142 178
143 155
144 100
146 25
150 54
151 54
152 68
153 17
154 114
155 179
156 183
157 159
158 102
159 84
160 56
167 24
168 113
169 166
170 151
171 142
172 113
173 18
174 13
177 2
178 7
179 83
181 16
182 143
183 186
184 160
185 119
186 56
187 42
189 34
195 11
196 42
197 149
198 196
199 153
200 5
205 86
206 27
208 101
209 56
210 148
211 188
212 165
213 105
214 9
222 22
223 31
224 112
225 152
226 169
227 123
228 32
237 140
238 191
239 198
240 197
241 103
242 48
252 25
253 146
254 201
255 89
265 125
266 115
267 112
268 62
280 44
281 492
282 999
283 396
284 108

$$$$

     RDKit          2D

 20 22  0  0  0  0  0  0  0  0999 V2000
   -8.6262   -0.0492    0.0000 C   0  0  0  0  0  0  0  0  0  0  0  0
   -7.3270    0.7006    0.0000 C   0  0  0  0  0  0  0  0  0  0  0  0
    3.0600    2.2000    0.0000 C   0  0  0  0  0  0  0  0  0  0  0  0
    1.7600    2.9500    0.0000 C   0  0  0  0  0  0  0  0  0  0  0  0
    3.0600    0.7000    0.0000 C   0  0  0  0  0  0  0  0  0  0  0  0
    0.4600    2.2000    0.0000 C   0  0  0  0  0  0  0  0  0  0  0  0
    1.7600   -1.5500    0.0000 C   0  0  0  0  0  0  0  0  0  0  0  0
    0.4600   -2.3000    0.0000 C   0  0  0  0  0  0  0  0  0  0  0  0
   -3.4300   -1.5500    0.0000 C   0  0  0  0  0  0  0  0  0  0  0  0
    1.7600   -0.0500    0.0000 C   0  0  0  0  0  0  0  0  0  0  0  0
   -3.4300   -0.0500    0.0000 C   0  0  0  0  0  0  0  0  0  0  0  0
    0.4600    0.7000    0.0000 C   0  0  0  0  0  0  0  0  0  0  0  0
   -0.8300   -1.5500    0.0000 C   0  0  0  0  0  0  0  0  0  0  0  0
   -2.1300    0.7000    0.0000 C   0  0  0  0  0  0  0  0  0  0  0  0
   -4.7289    0.7002    0.0000 C   0  0  0  0  0  0  0  0  0  0  0  0
   -2.1300   -2.3000    0.0000 N   0  0  0  0  0  0  0  0  0  0  0  0
   -0.8300   -0.0500    0.0000 N   0  0  0  0  0  0  0  0  0  0  0  0
   -2.1300    2.2000    0.0000 O   0  0  0  0  0  0  0  0  0  0  0  0
   -4.7287    2.2002    0.0000 O   0  0  0  0  0  0  0  0  0  0  0  0
   -6.0281   -0.0496    0.0000 O   0  0  0  0  0  0  0  0  0  0  0  0
  2  1  1  0
  4  3  2  0
  5  3  1  0
  6  4  1  0
  8  7  1  0
 10  5  2  0
 10  7  1  0
 11  9  2  0
 12  6  2  0
 12 10  1  0
 13  8  1  0
 14 11  1  0
 15 11  1  0
 16  9  1  0
 16 13  1  0
 17 12  1  0
 17 13  1  0
 17 14  1  0
 18 14  2  0
 19 15  2  0
 20  2  1  0
 20 15  1  0
M  END
>  <NAME>  (2811) 
1-OXO-4,4A,5,6-TETRAHYDRO-1H-PYRIMIDO(1,2-A)QUINOLINE-2-CARBOXYLIC ACID ETHYL ESTER

>  <SYNONYMS>  (2811) 


>  <SPECTRUM TYPE>  (2811) 
MS1

>  <INSTRUMENT TYPE>  (2811) 
EI-B

>  <INSTRUMENT>  (2811) 
MS-902

>  <ION MODE>  (2811) 
P

>  <INCHIKEY>  (2811) 
SMLHOYYNUFCDHK-UHFFFAOYSA-N

>  <FORMULA>  (2811) 
C15H16N2O3

>  <EXACT MASS>  (2811) 
272.11609237199997

>  <MW>  (2811) 
272

>  <ID>  (2811) 
JP007914

>  <CONTRIBUTOR>  (2811) 
University of Tokyo Team, {Faculty of Engineering, University of Tokyo

>  <COMMENT>  (2811) 
SMILES=CCOC(=O)C(=C3)C(=O)N(C1N3)c(c2)c(ccc2)CC1
InChI=InChI=1S/C15H16N2O3/c1-2-20-15(19)11-9-16-13-8-7-10-5-3-4-6-12(10)17(13)14(11)18/h3-6,9,13,16H,2,7-8H2,1H3
computed SMILES=O=C(OCC)C1=CNC2N(C1=O)C=3C=CC=CC3CC2
accession=JP007914
date=2016.01.19 (Created 2008.10.21, modified 2011.05.06)
author=SASAKI S, TOYOHASHI UNIV. OF TECH.
license=CC BY-NC-SA
exact mass=272.11609
ionization energy=70 eV
ion type=[M]+*
computed spectral entropy=1.9876728209617534
computed normalized entropy=0.6750599469120111
SPLASH=splash10-0089-0950000000-2fe66577603986265a61
submitter=submitter = University of Tokyo Team (Faculty of Engineering, University of Tokyo)
MoNA Rating=3.75

>  <NUM PEAKS>  (2811) 
19

>  <MASS SPECTRAL PEAKS>  (2811) 
77 7
103 5.4
104 4.7
130 5.8
131 99.99
132 21
142 5.2
169 0.69
170 2.2
171 4.9
198 4.8
199 0.85
200 2.6
225 4.4
226 11
227 0.63
243 1.1
272 60
273 10

>  <PREDICTED SPECTRUM>  (2811) 
29 109
39 90
40 30
41 112
43 32
44 12
50 7
51 132
52 44
53 48
54 22
55 124
57 49
63 84
64 67
65 97
67 5
69 85
77 313
78 100
80 11
82 9
83 127
85 51
86 5
89 58
90 112
91 44
97 47
102 59
103 349
104 256
114 1
115 144
117 63
128 27
130 966
131 999
132 783
141 49
142 156
143 84
144 25
154 45
156 10
157 35
158 114
159 63
169 174
170 129
171 280
172 59
197 160
198 217
199 357
200 96
225 200
226 364
227 349
228 62
243 134
244 26
271 25
272 834
273 313
274 34

$$$$

     RDKit          2D

 20 22  0  0  0  0  0  0  0  0999 V2000
   -8.6262   -0.0492    0.0000 C   0  0  0  0  0  0  0  0  0  0  0  0
   -7.3270    0.7006    0.0000 C   0  0  0  0  0  0  0  0  0  0  0  0
    3.0600    2.2000    0.0000 C   0  0  0  0  0  0  0  0  0  0  0  0
    1.7600    2.9500    0.0000 C   0  0  0  0  0  0  0  0  0  0  0  0
    3.0600    0.7000    0.0000 C   0  0  0  0  0  0  0  0  0  0  0  0
    0.4600    2.2000    0.0000 C   0  0  0  0  0  0  0  0  0  0  0  0
    1.7600   -1.5500    0.0000 C   0  0  0  0  0  0  0  0  0  0  0  0
    0.4600   -2.3000    0.0000 C   0  0  0  0  0  0  0  0  0  0  0  0
   -3.4300   -1.5500    0.0000 C   0  0  0  0  0  0  0  0  0  0  0  0
    1.7600   -0.0500    0.0000 C   0  0  0  0  0  0  0  0  0  0  0  0
   -3.4300   -0.0500    0.0000 C   0  0  0  0  0  0  0  0  0  0  0  0
    0.4600    0.7000    0.0000 C   0  0  0  0  0  0  0  0  0  0  0  0
   -0.8300   -1.5500    0.0000 C   0  0  0  0  0  0  0  0  0  0  0  0
   -2.1300    0.7000    0.0000 C   0  0  0  0  0  0  0  0  0  0  0  0
   -4.7289    0.7002    0.0000 C   0  0  0  0  0  0  0  0  0  0  0  0
   -2.1300   -2.3000    0.0000 N   0  0  0  0  0  0  0  0  0  0  0  0
   -0.8300   -0.0500    0.0000 N   0  0  0  0  0  0  0  0  0  0  0  0
   -2.1300    2.2000    0.0000 O   0  0  0  0  0  0  0  0  0  0  0  0
   -4.7287    2.2002    0.0000 O   0  0  0  0  0  0  0  0  0  0  0  0
   -6.0281   -0.0496    0.0000 O   0  0  0  0  0  0  0  0  0  0  0  0
  2  1  1  0
  4  3  2  0
  5  3  1  0
  6  4  1  0
  8  7  1  0
 10  5  2  0
 10  7  1  0
 11  9  2  0
 12  6  2  0
 12 10  1  0
 13  8  1  0
 14 11  1  0
 15 11  1  0
 16  9  1  0
 16 13  2  0
 17 12  1  0
 17 13  1  0
 17 14  1  0
 18 14  2  0
 19 15  2  0
 20  2  1  0
 20 15  1  0
M  END
>  <NAME>  (2812) 
1-OXO-5,6-DIHYDRO-1H-PYRIMIDO(1,2-A)QUINOLINE-2-CARBOXYLIC ACID ETHYL ESTER

>  <SYNONYMS>  (2812) 


>  <SPECTRUM TYPE>  (2812) 
MS1

>  <INSTRUMENT TYPE>  (2812) 
EI-B

>  <INSTRUMENT>  (2812) 
MS-902

>  <ION MODE>  (2812) 
P

>  <INCHIKEY>  (2812) 
MCLUTGHWMIHTGC-UHFFFAOYSA-N

>  <FORMULA>  (2812) 
C15H14N2O3

>  <EXACT MASS>  (2812) 
270.100442308

>  <MW>  (2812) 
270

>  <ID>  (2812) 
JP007913

>  <CONTRIBUTOR>  (2812) 
University of Tokyo Team, {Faculty of Engineering, University of Tokyo

>  <COMMENT>  (2812) 
SMILES=CCOC(=O)C(=C3)C(=O)N(C1=N3)c(c2)c(ccc2)CC1
InChI=InChI=1S/C15H14N2O3/c1-2-20-15(19)11-9-16-13-8-7-10-5-3-4-6-12(10)17(13)14(11)18/h3-6,9H,2,7-8H2,1H3
computed SMILES=O=C(OCC)C1=CN=C2N(C1=O)C=3C=CC=CC3CC2
accession=JP007913
date=2016.01.19 (Created 2008.10.21, modified 2011.05.06)
author=SASAKI S, TOYOHASHI UNIV. OF TECH.
license=CC BY-NC-SA
exact mass=270.10044
ionization energy=70 eV
ion type=[M]+*
computed spectral entropy=2.5136829964806577
computed normalized entropy=0.7464990079267122
SPLASH=splash10-002b-0920000000-2b0e8e22ab9ac21dd61c
submitter=submitter = University of Tokyo Team (Faculty of Engineering, University of Tokyo)
MoNA Rating=3.75

>  <NUM PEAKS>  (2812) 
29

>  <MASS SPECTRAL PEAKS>  (2812) 
77 14
89 4
101 3.2
102 0.5
103 13
104 5.3
115 5.4
116 0.39
117 3.2
128 10
129 4.3
130 5.2
131 6.6
142 5
143 2.9
144 0.26
169 11
170 12
196 4
197 1.7
198 99.99
199 14
225 46
226 0.96
241 4.1
242 1.8
256 1.6
270 5.1
271 8.4

>  <PREDICTED SPECTRUM>  (2812) 
41 13
51 78
52 35
53 11
63 23
64 56
69 99
75 23
76 59
77 278
78 88
89 101
90 59
91 27
101 80
102 158
103 235
104 128
105 16
114 25
115 201
116 159
117 222
128 304
129 234
130 657
131 201
140 48
141 7
142 159
143 150
144 104
145 105
157 34
158 20
167 16
168 63
169 182
170 330
171 137
180 28
183 31
195 28
196 171
197 408
198 999
199 268
214 1
223 8
224 66
225 575
226 212
241 101
242 117
243 7
269 92
270 666
271 246
272 11

$$$$

     RDKit          2D

 20 22  0  0  0  0  0  0  0  0999 V2000
   -8.6262   -0.0492    0.0000 C   0  0  0  0  0  0  0  0  0  0  0  0
   -7.3270    0.7006    0.0000 C   0  0  0  0  0  0  0  0  0  0  0  0
    3.0600    2.2000    0.0000 C   0  0  0  0  0  0  0  0  0  0  0  0
    1.7600    2.9500    0.0000 C   0  0  0  0  0  0  0  0  0  0  0  0
    3.0600    0.7000    0.0000 C   0  0  0  0  0  0  0  0  0  0  0  0
    0.4600    2.2000    0.0000 C   0  0  0  0  0  0  0  0  0  0  0  0
    1.7600   -1.5500    0.0000 C   0  0  0  0  0  0  0  0  0  0  0  0
    0.4600   -2.3000    0.0000 C   0  0  0  0  0  0  0  0  0  0  0  0
   -3.4300   -1.5500    0.0000 C   0  0  0  0  0  0  0  0  0  0  0  0
    1.7600   -0.0500    0.0000 C   0  0  0  0  0  0  0  0  0  0  0  0
   -3.4300   -0.0500    0.0000 C   0  0  0  0  0  0  0  0  0  0  0  0
    0.4600    0.7000    0.0000 C   0  0  0  0  0  0  0  0  0  0  0  0
   -0.8300   -1.5500    0.0000 C   0  0  0  0  0  0  0  0  0  0  0  0
   -2.1300    0.7000    0.0000 C   0  0  0  0  0  0  0  0  0  0  0  0
   -4.7289    0.7002    0.0000 C   0  0  0  0  0  0  0  0  0  0  0  0
   -2.1300   -2.3000    0.0000 N   0  0  0  0  0  0  0  0  0  0  0  0
   -0.8300   -0.0500    0.0000 N   0  0  0  0  0  0  0  0  0  0  0  0
   -2.1300    2.2000    0.0000 O   0  0  0  0  0  0  0  0  0  0  0  0
   -4.7287    2.2002    0.0000 O   0  0  0  0  0  0  0  0  0  0  0  0
   -6.0281   -0.0496    0.0000 O   0  0  0  0  0  0  0  0  0  0  0  0
  2  1  1  0
  4  3  2  0
  5  3  1  0
  6  4  1  0
  8  7  2  0
 10  5  2  0
 10  7  1  0
 11  9  2  0
 12  6  2  0
 12 10  1  0
 13  8  1  0
 14 11  1  0
 15 11  1  0
 16  9  1  0
 16 13  2  0
 17 12  1  0
 17 13  1  0
 17 14  1  0
 18 14  2  0
 19 15  2  0
 20  2  1  0
 20 15  1  0
M  END
>  <NAME>  (2813) 
1-OXO-1H-PYRIMIDO(1,2-A)QUINOLINE-2-CARBOXYLIC ACID ETHYL ESTER

>  <SYNONYMS>  (2813) 


>  <SPECTRUM TYPE>  (2813) 
MS1

>  <INSTRUMENT TYPE>  (2813) 
EI-B

>  <INSTRUMENT>  (2813) 
MS-902

>  <ION MODE>  (2813) 
P

>  <INCHIKEY>  (2813) 
SDMSGNXFHZBVSF-UHFFFAOYSA-N

>  <FORMULA>  (2813) 
C15H12N2O3

>  <EXACT MASS>  (2813) 
268.08479224399997

>  <MW>  (2813) 
268

>  <ID>  (2813) 
JP007912

>  <CONTRIBUTOR>  (2813) 
University of Tokyo Team, {Faculty of Engineering, University of Tokyo

>  <COMMENT>  (2813) 
SMILES=CCOC(=O)C(=C3)C(=O)N(C1=N3)c(c2)c(ccc2)C=C1
InChI=InChI=1S/C15H12N2O3/c1-2-20-15(19)11-9-16-13-8-7-10-5-3-4-6-12(10)17(13)14(11)18/h3-9H,2H2,1H3
computed SMILES=O=C(OCC)C1=CN=C2C=CC=3C=CC=CC3N2C1=O
accession=JP007912
date=2016.01.19 (Created 2008.10.21, modified 2011.05.06)
author=SASAKI S, TOYOHASHI UNIV. OF TECH.
license=CC BY-NC-SA
exact mass=268.08479
ionization energy=70 eV
ion type=[M]+*
computed spectral entropy=2.4524525246512243
computed normalized entropy=0.805529463098677
SPLASH=splash10-014i-1950000000-462acb768f5de0658e18
submitter=submitter = University of Tokyo Team (Faculty of Engineering, University of Tokyo)
MoNA Rating=3.75

>  <NUM PEAKS>  (2813) 
21

>  <MASS SPECTRAL PEAKS>  (2813) 
64 10
69 30
77 9
101 1.6
128 86
129 23
140 12
155 0.7
168 63
169 15
194 4.4
195 2.3
196 35
197 5.3
212 10
223 3.5
224 5.3
240 12
241 11
268 99.99
269 18

>  <PREDICTED SPECTRUM>  (2813) 
27 1
28 0
29 23
43 53
44 53
51 5
55 6
64 62
69 88
75 60
76 68
77 184
81 19
100 9
101 292
102 22
128 981
129 434
138 23
140 428
141 85
152 16
155 169
166 87
167 122
168 769
169 279
170 11
184 72
194 159
195 563
196 576
197 120
212 162
222 83
223 638
224 276
239 1
240 314
241 7
268 999
269 418
270 34

$$$$

     RDKit          2D

 19 20  0  0  0  0  0  0  0  0999 V2000
    2.5990   -3.7500    0.0000 C   0  0  0  0  0  0  0  0  0  0  0  0
    7.7962    0.7508    0.0000 C   0  0  0  0  0  0  0  0  0  0  0  0
   -1.3000    3.0000    0.0000 C   0  0  0  0  0  0  0  0  0  0  0  0
    1.3000   -3.0000    0.0000 C   0  0  0  0  0  0  0  0  0  0  0  0
    6.4970    1.5006    0.0000 C   0  0  0  0  0  0  0  0  0  0  0  0
   -2.6000   -0.7500    0.0000 C   0  0  0  0  0  0  0  0  0  0  0  0
   -2.6000    0.7500    0.0000 C   0  0  0  0  0  0  0  0  0  0  0  0
   -1.3000   -1.5000    0.0000 C   0  0  0  0  0  0  0  0  0  0  0  0
    2.6000   -0.7500    0.0000 C   0  0  0  0  0  0  0  0  0  0  0  0
   -1.3000    1.5000    0.0000 C   0  0  0  0  0  0  0  0  0  0  0  0
    2.6000    0.7500    0.0000 C   0  0  0  0  0  0  0  0  0  0  0  0
    0.0000   -0.7500    0.0000 C   0  0  0  0  0  0  0  0  0  0  0  0
    1.3000    1.5000    0.0000 C   0  0  0  0  0  0  0  0  0  0  0  0
    3.8989    1.5002    0.0000 C   0  0  0  0  0  0  0  0  0  0  0  0
    1.3000   -1.5000    0.0000 N   0  0  0  0  0  0  0  0  0  0  0  0
    0.0000    0.7500    0.0000 N   0  0  0  0  0  0  0  0  0  0  0  0
    1.3000    3.0000    0.0000 O   0  0  0  0  0  0  0  0  0  0  0  0
    3.8987    3.0002    0.0000 O   0  0  0  0  0  0  0  0  0  0  0  0
    5.1981    0.7504    0.0000 O   0  0  0  0  0  0  0  0  0  0  0  0
  4  1  1  0
  5  2  1  0
  7  6  1  0
  8  6  1  0
 10  3  1  0
 10  7  1  0
 11  9  2  0
 12  8  1  0
 13 11  1  0
 14 11  1  0
 15  4  1  0
 15  9  1  0
 15 12  1  0
 16 10  1  0
 16 12  1  0
 16 13  1  0
 17 13  2  0
 18 14  2  0
 19  5  1  0
 19 14  1  0
M  END
>  <NAME>  (2814) 
1-ETHYL-6-METHYL-4-OXO-1,6,7,8,9,9A-HEXAHYDRO-4H-PYRIDO(1,2-A)PYRIMIDINE-3-CARBOXYLIC ACID ETHYL ESTER

>  <SYNONYMS>  (2814) 


>  <SPECTRUM TYPE>  (2814) 
MS1

>  <INSTRUMENT TYPE>  (2814) 
EI-B

>  <INSTRUMENT>  (2814) 
MS-902

>  <ION MODE>  (2814) 
P

>  <INCHIKEY>  (2814) 
DZCPIPIKEVVNLF-UHFFFAOYSA-N

>  <FORMULA>  (2814) 
C14H22N2O3

>  <EXACT MASS>  (2814) 
266.16304256399997

>  <MW>  (2814) 
266

>  <ID>  (2814) 
JP007911

>  <CONTRIBUTOR>  (2814) 
University of Tokyo Team, {Faculty of Engineering, University of Tokyo

>  <COMMENT>  (2814) 
SMILES=CCOC(=O)C(=C([H])1)C(=O)N(C(C)2)C(CCC2)N(CC)1
InChI=InChI=1S/C14H22N2O3/c1-4-15-9-11(14(18)19-5-2)13(17)16-10(3)7-6-8-12(15)16/h9-10,12H,4-8H2,1-3H3
computed SMILES=O=C(OCC)C1=CN(CC)C2N(C1=O)C(C)CCC2
accession=JP007911
date=2016.01.19 (Created 2008.10.21, modified 2011.05.06)
author=SASAKI S, TOYOHASHI UNIV. OF TECH.
license=CC BY-NC-SA
exact mass=266.16304
ionization energy=70 eV
ion type=[M]+*
computed spectral entropy=3.180954715394645
computed normalized entropy=0.8457286550965873
SPLASH=splash10-00r2-6940000000-c0604042f1830aeb3c92
submitter=submitter = University of Tokyo Team (Faculty of Engineering, University of Tokyo)
MoNA Rating=3.75

>  <NUM PEAKS>  (2814) 
43

>  <MASS SPECTRAL PEAKS>  (2814) 
26 15.5
29 34.5
41 24.1
42 1.65
53 13.7
54 15.5
55 22.1
56 5.17
67 6.9
68 12.4
69 27.5
82 0.96
84 13.1
96 21.4
97 27.5
98 5.17
123 9.6
124 96.5
125 9.6
126 0.74
137 10.3
142 5.5
151 58.6
152 1.68
163 8.6
165 13.7
169 6.2
170 2.21
192 5.5
193 7.6
197 99.99
198 1.13
209 7.9
220 10.3
221 19
222 0.34
223 4.5
224 10
237 22
251 0.45
265 14.1
266 72.4
267 11.2

>  <PREDICTED SPECTRUM>  (2814) 
27 67
29 126
39 273
40 86
41 498
42 387
43 73
52 31
53 248
54 278
55 644
56 340
57 51
60 17
65 38
66 102
67 329
68 432
69 667
70 238
78 9
79 5
81 138
82 317
83 177
84 152
85 30
93 1
94 36
95 218
96 482
97 403
98 313
109 84
110 134
111 154
112 47
122 16
123 378
124 600
125 398
126 204
127 6
137 185
138 82
139 13
149 65
151 812
152 367
153 84
154 7
163 273
164 119
165 293
166 24
167 59
169 264
170 309
191 17
192 207
193 379
194 53
195 82
197 999
198 411
199 16
209 144
211 6
219 31
220 231
221 460
222 202
223 236
224 154
237 497
238 169
239 42
251 246
252 23
265 295
266 838
267 287
268 24

$$$$

     RDKit          2D

 18 19  0  0  0  0  0  0  0  0999 V2000
    9.0951   -1.5010    0.0000 C   0  0  0  0  0  0  0  0  0  0  0  0
    7.7962   -0.7508    0.0000 C   0  0  0  0  0  0  0  0  0  0  0  0
   -2.6000    0.7500    0.0000 C   0  0  0  0  0  0  0  0  0  0  0  0
   -1.3000    1.5000    0.0000 C   0  0  0  0  0  0  0  0  0  0  0  0
    3.8989   -1.5002    0.0000 C   0  0  0  0  0  0  0  0  0  0  0  0
    2.6000    0.7500    0.0000 C   0  0  0  0  0  0  0  0  0  0  0  0
   -1.3000   -1.5000    0.0000 C   0  0  0  0  0  0  0  0  0  0  0  0
    2.6000   -0.7500    0.0000 C   0  0  0  0  0  0  0  0  0  0  0  0
   -2.6000   -0.7500    0.0000 C   0  0  0  0  0  0  0  0  0  0  0  0
    0.0000    0.7500    0.0000 C   0  0  0  0  0  0  0  0  0  0  0  0
    5.1981   -0.7504    0.0000 C   0  0  0  0  0  0  0  0  0  0  0  0
    1.3000   -1.5000    0.0000 C   0  0  0  0  0  0  0  0  0  0  0  0
   -3.8989   -1.5002    0.0000 Cl  0  0  0  0  0  0  0  0  0  0  0  0
    1.3000    1.5000    0.0000 N   0  0  0  0  0  0  0  0  0  0  0  0
    0.0000   -0.7500    0.0000 N   0  0  0  0  0  0  0  0  0  0  0  0
    5.1983    0.7496    0.0000 O   0  0  0  0  0  0  0  0  0  0  0  0
    1.3000   -3.0000    0.0000 O   0  0  0  0  0  0  0  0  0  0  0  0
    6.4970   -1.5006    0.0000 O   0  0  0  0  0  0  0  0  0  0  0  0
  2  1  1  0
  4  3  2  0
  8  5  1  0
  8  6  2  0
  9  3  1  0
  9  7  2  0
 10  4  1  0
 11  5  1  0
 12  8  1  0
 13  9  1  0
 14  6  1  0
 14 10  2  0
 15  7  1  0
 15 10  1  0
 15 12  1  0
 16 11  2  0
 17 12  2  0
 18  2  1  0
 18 11  1  0
M  END
>  <NAME>  (2815) 
7-CHLORO-4-OXO-4H-PYRIDO(1,2-A)PYRIMIDINE-3-ACETIC ACID ETHYL ESTER

>  <SYNONYMS>  (2815) 


>  <SPECTRUM TYPE>  (2815) 
MS1

>  <INSTRUMENT TYPE>  (2815) 
EI-B

>  <INSTRUMENT>  (2815) 
MS-902

>  <ION MODE>  (2815) 
P

>  <INCHIKEY>  (2815) 
UGSTZPVMZHXYRW-UHFFFAOYSA-N

>  <FORMULA>  (2815) 
C12H11ClN2O3

>  <EXACT MASS>  (2815) 
266.045819892

>  <MW>  (2815) 
266

>  <ID>  (2815) 
JP007910

>  <CONTRIBUTOR>  (2815) 
University of Tokyo Team, {Faculty of Engineering, University of Tokyo

>  <COMMENT>  (2815) 
SMILES=CCOC(=O)CC(=C1)C(=O)N(C=2)C(C=CC(Cl)2)=N1
InChI=InChI=1S/C12H11ClN2O3/c1-2-18-11(16)5-8-6-14-10-4-3-9(13)7-15(10)12(8)17/h3-4,6-7H,2,5H2,1H3
computed SMILES=O=C(OCC)CC1=CN=C2C=CC(Cl)=CN2C1=O
accession=JP007910
date=2016.01.19 (Created 2008.10.21, modified 2011.05.06)
author=SASAKI S, TOYOHASHI UNIV. OF TECH.
license=CC BY-NC-SA
exact mass=266.04582
ionization energy=70 eV
ion type=[M]+*
computed spectral entropy=2.1255633192318553
computed normalized entropy=0.6523942106769582
SPLASH=splash10-0006-0920000000-bedc4f48081c106c095b
submitter=submitter = University of Tokyo Team (Faculty of Engineering, University of Tokyo)
MoNA Rating=3.75

>  <NUM PEAKS>  (2815) 
26

>  <MASS SPECTRAL PEAKS>  (2815) 
39 2.4
50 1.1
55 9.8
76 0.7
77 1.5
78 1.7
82.5 1.3
96.5 0.13
112 18.5
113 3.3
114 5.7
139 0.57
141 1.7
165 6.5
166 1.6
167 0.23
193 99.99
194 13
195 32.6
196 0.37
221 4.3
233 1.3
266 26.1
267 0.37
268 8
269 1.1

>  <PREDICTED SPECTRUM>  (2815) 
14 1
26 43
27 125
28 56
29 192
35 12
36 6
37 17
38 68
39 159
40 57
41 88
42 11
43 103
44 66
45 106
47 17
50 93
51 168
52 167
53 120
54 58
55 103
57 10
61 34
62 41
63 67
64 96
65 97
66 89
67 58
68 20
73 46
74 10
75 40
76 123
77 46
78 54
80 45
81 19
85 113
86 36
90 31
92 3
98 28
99 36
100 7
111 78
112 306
113 203
114 184
126 8
138 40
139 207
140 77
141 47
153 6
157 47
158 36
159 23
165 171
166 157
167 143
168 44
191 140
193 999
194 366
195 589
196 208
220 82
221 167
222 55
223 95
266 529
267 221
268 320
269 105

$$$$

     RDKit          2D

 19 20  0  0  0  0  0  0  0  0999 V2000
    7.7962    0.7508    0.0000 C   0  0  0  0  0  0  0  0  0  0  0  0
   -1.3000    3.0000    0.0000 C   0  0  0  0  0  0  0  0  0  0  0  0
    6.4970    1.5006    0.0000 C   0  0  0  0  0  0  0  0  0  0  0  0
   -2.6000    0.7500    0.0000 C   0  0  0  0  0  0  0  0  0  0  0  0
   -2.6000   -0.7500    0.0000 C   0  0  0  0  0  0  0  0  0  0  0  0
    2.6000   -0.7500    0.0000 C   0  0  0  0  0  0  0  0  0  0  0  0
   -1.3000    1.5000    0.0000 C   0  0  0  0  0  0  0  0  0  0  0  0
    2.6000    0.7500    0.0000 C   0  0  0  0  0  0  0  0  0  0  0  0
   -1.3000   -1.5000    0.0000 C   0  0  0  0  0  0  0  0  0  0  0  0
    0.0000   -0.7500    0.0000 C   0  0  0  0  0  0  0  0  0  0  0  0
    1.3000    1.5000    0.0000 C   0  0  0  0  0  0  0  0  0  0  0  0
    3.8989    1.5002    0.0000 C   0  0  0  0  0  0  0  0  0  0  0  0
    1.3000   -1.5000    0.0000 N   0  0  0  0  0  0  0  0  0  0  0  0
   -1.3000   -3.0000    0.0000 N   0  0  0  0  0  0  0  0  0  0  0  0
    0.0000    0.7500    0.0000 N   0  0  0  0  0  0  0  0  0  0  0  0
    1.3000    3.0000    0.0000 O   0  0  0  0  0  0  0  0  0  0  0  0
    3.8987    3.0002    0.0000 O   0  0  0  0  0  0  0  0  0  0  0  0
   -2.5990   -3.7500    0.0000 O   0  0  0  0  0  0  0  0  0  0  0  0
    5.1981    0.7504    0.0000 O   0  0  0  0  0  0  0  0  0  0  0  0
  3  1  1  0
  5  4  1  0
  7  2  1  0
  7  4  1  0
  8  6  2  0
  9  5  1  0
 10  9  1  0
 11  8  1  0
 12  8  1  0
 13  6  1  0
 13 10  2  0
  9 14  2  0
 15  7  1  0
 15 10  1  0
 15 11  1  0
 16 11  2  0
 17 12  2  0
 18 14  1  0
 19  3  1  0
 19 12  1  0
M  END
>  <NAME>  (2816) 
9-HYDROXYIMINO-6-METHYL-4-OXO-6,7,8,9-TETRAHYDRO-4H-PYRIDO(1,2-A)PYRIMIDINE-3-CARBOXYLIC ACID ETHYL ESTER

>  <SYNONYMS>  (2816) 


>  <SPECTRUM TYPE>  (2816) 
MS1

>  <INSTRUMENT TYPE>  (2816) 
EI-B

>  <INSTRUMENT>  (2816) 
MS-902

>  <ION MODE>  (2816) 
P

>  <INCHIKEY>  (2816) 
VWYJPUYRCOGBKZ-NTEUORMPSA-N

>  <FORMULA>  (2816) 
C12H15N3O4

>  <EXACT MASS>  (2816) 
265.10625596

>  <MW>  (2816) 
265

>  <ID>  (2816) 
JP007909

>  <CONTRIBUTOR>  (2816) 
University of Tokyo Team, {Faculty of Engineering, University of Tokyo

>  <COMMENT>  (2816) 
SMILES=CCOC(=O)C(=C2)C(=O)N(C(C)1)C(=N2)C(=NO)CC1
InChI=InChI=1S/C12H15N3O4/c1-3-19-12(17)8-6-13-10-9(14-18)5-4-7(2)15(10)11(8)16/h6-7,18H,3-5H2,1-2H3/b14-9+
computed SMILES=O=C(OCC)C1=CN=C2C(=NO)CCC(N2C1=O)C
accession=JP007909
date=2016.01.19 (Created 2008.10.21, modified 2011.05.06)
author=SASAKI S, TOYOHASHI UNIV. OF TECH.
license=CC BY-NC-SA
exact mass=265.10626
ionization energy=70 eV
ion type=[M]+*
computed spectral entropy=3.413011770752824
computed normalized entropy=0.8206558593601265
SPLASH=splash10-0gbc-5980000000-d17feabb964009254e60
submitter=submitter = University of Tokyo Team (Faculty of Engineering, University of Tokyo)
MoNA Rating=3.75

>  <NUM PEAKS>  (2816) 
64

>  <MASS SPECTRAL PEAKS>  (2816) 
39 8
41 11
42 5.5
52 0.5
53 31
54 12
55 23
66 0.6
67 8.5
68 10
69 16
81 0.7
92 5
93 6
94 6.4
95 0.55
96 11.5
107 7.5
119 4
120 0.48
121 4.2
123 4.4
125 4.2
133 0.53
134 11
135 8
146 6.5
147 0.65
148 8.8
151 5.7
160 3.9
161 0.51
162 9
163 11.5
167 3.9
173 0.32
174 6.6
175 4.2
176 5
188 0.45
189 2.3
190 5.6
191 99.99
192 1.2
193 35.4
194 5.8
202 38
203 0.85
204 4.6
218 3.7
219 47
220 5.22
221 9.4
234 2
236 5.7
237 3.2
238 4
248 12.1
249 11
250 0.36
264 3.1
265 77.5
266 11.4
267 1.2

>  <PREDICTED SPECTRUM>  (2816) 
25 1
26 11
27 17
28 12
29 39
31 30
32 14
38 37
39 200
40 139
41 239
42 375
43 198
44 201
45 110
46 26
50 3
51 154
52 304
53 441
54 370
55 223
56 95
57 44
58 62
63 21
64 104
65 191
66 312
67 380
68 494
69 271
70 164
72 10
77 116
78 86
79 179
80 243
81 130
82 91
83 57
91 95
92 173
93 266
94 314
95 266
96 197
97 92
106 135
107 175
108 70
109 67
110 8
111 54
117 81
118 60
119 151
120 83
121 271
122 197
123 187
124 163
125 75
133 123
134 209
135 245
136 156
137 101
145 108
146 201
147 257
148 254
149 81
150 117
151 10
160 111
161 231
162 315
163 311
164 132
165 83
166 33
173 175
174 327
175 272
176 230
177 12
178 62
180 78
188 152
189 217
190 371
191 969
192 539
193 619
194 239
195 58
201 18
202 517
203 306
204 320
205 4
206 49
207 21
208 42
209 156
218 179
219 767
220 851
221 257
222 18
234 27
235 46
236 363
237 703
238 227
239 27
248 494
249 279
250 197
251 109
265 999
266 411
267 122

$$$$

     RDKit          2D

 15 16  0  0  0  0  0  0  0  0999 V2000
    2.5982   -0.7496    0.0000 C   0  0  0  0  0  0  0  0  0  0  0  0
    2.5989    0.7512    0.0000 C   0  0  0  0  0  0  0  0  0  0  0  0
    1.2986   -1.5002    0.0000 C   0  0  0  0  0  0  0  0  0  0  0  0
    1.3000    1.5015    0.0000 C   0  0  0  0  0  0  0  0  0  0  0  0
   -0.0004   -0.7500    0.0000 C   0  0  0  0  0  0  0  0  0  0  0  0
   -2.5986    3.7510    0.0000 C   0  0  0  0  0  0  0  0  0  0  0  0
    0.0004    0.7508    0.0000 C   0  0  0  0  0  0  0  0  0  0  0  0
   -1.2986    3.0010    0.0000 C   0  0  0  0  0  0  0  0  0  0  0  0
   -1.2986    1.5010    0.0000 C   0  0  0  0  0  0  0  0  0  0  0  0
   -3.8986    1.5010    0.0000 C   0  0  0  0  0  0  0  0  0  0  0  0
    0.0004    3.7512    0.0000 Br  0  0  0  0  0  0  0  0  0  0  0  0
   -5.1975    0.7508    0.0000 N   0  0  0  0  0  0  0  0  0  0  0  0
   -2.5986    0.7510    0.0000 N   0  0  0  0  0  0  0  0  0  0  0  0
   -3.8986    3.0010    0.0000 N   0  0  0  0  0  0  0  0  0  0  0  0
   -5.1975    3.7512    0.0000 O   0  0  0  0  0  0  0  0  0  0  0  0
  2  1  2  0
  3  1  1  0
  4  2  1  0
  5  3  2  0
  7  4  2  0
  7  5  1  0
  8  6  1  0
  9  7  1  0
  9  8  2  0
 11  8  1  0
 12 10  2  0
 13  9  1  0
 13 10  1  0
 14  6  2  0
 14 10  1  0
 15 14  1  0
M  CHG  2  14   1  15  -1
M  END
>  <NAME>  (2817) 
2-AMINO-5-BROMO-4-PHENYLPYRIMIDINE-1-OXIDE

>  <SYNONYMS>  (2817) 


>  <SPECTRUM TYPE>  (2817) 
MS1

>  <INSTRUMENT TYPE>  (2817) 
EI-B

>  <INSTRUMENT>  (2817) 
MS-902

>  <ION MODE>  (2817) 
P

>  <INCHIKEY>  (2817) 
FCWOUCCHYBFFKR-UHFFFAOYSA-N

>  <FORMULA>  (2817) 
C10H8BrN3O

>  <EXACT MASS>  (2817) 
264.98507397599997

>  <MW>  (2817) 
265

>  <ID>  (2817) 
JP007908

>  <CONTRIBUTOR>  (2817) 
University of Tokyo Team, {Faculty of Engineering, University of Tokyo

>  <COMMENT>  (2817) 
SMILES=Nc(n1)[n+1]([O-1])cc(Br)c1c(c2)cccc2
InChI=InChI=1S/C10H8BrN3O/c11-8-6-14(15)10(12)13-9(8)7-4-2-1-3-5-7/h1-6H,(H2,12,13)
computed SMILES=O=N1=CC(Br)=C(NC1=N)C=2C=CC=CC2
accession=JP007908
date=2016.01.19 (Created 2008.10.21, modified 2011.05.06)
author=SASAKI S, TOYOHASHI UNIV. OF TECH.
license=CC BY-NC-SA
exact mass=264.98507
ionization energy=70 eV
ion type=[M]+*
computed spectral entropy=3.3785867317325877
computed normalized entropy=0.7565284913990648
SPLASH=splash10-014i-3690000000-28e398669ec19a20c3fd
submitter=submitter = University of Tokyo Team (Faculty of Engineering, University of Tokyo)
MoNA Rating=3.75

>  <NUM PEAKS>  (2817) 
87

>  <MASS SPECTRAL PEAKS>  (2817) 
43 1.3
44 1.6
45 1.3
47 0.13
49 3.6
50 4
51 10.9
52 0.19
57 1.4
62 4.7
63 8.1
64 0.27
68 1.2
71 1.3
74 4
75 0.51
76 2.7
77 21.2
78 5.6
78.5 0.11
79 1.7
83 4.7
84 2.8
84.5 0.51
85 2.7
86 1.9
87 3
88 0.85
89 8.5
90 1.4
99 1.1
101 0.38
102 2.7
103 2.4
104 59.9
105 2.47
106 1.7
113 7.7
114 18
115 0.69
116 14.7
117 8.2
118 2.2
121 0.14
124 3.8
124.5 1.6
125 4.3
125.5 0.11
127 4.7
128 5.7
129 3
132.5 0.34
133.5 3.6
141 2.8
142 4.5
143 0.69
144 1.3
155 3.2
156 2.2
168 0.22
169 11.9
170 20.2
171 4
180 0.14
182 1.7
185 1.3
193 3.7
194 0.13
195 5.7
196 1.4
197 2.8
219 0.21
222 1.3
224 4
226 3.2
235 0.1
247 5.4
248 8.2
249 16.1
250 0.94
251 9.7
252 1.1
264 9.7
265 99.99
266 24.6
267 97.2
268 10.2

>  <PREDICTED SPECTRUM>  (2817) 
36 6
37 55
38 132
39 167
40 112
41 63
42 283
43 257
44 203
45 43
49 47
50 407
51 605
52 362
53 172
54 144
55 159
56 52
57 61
61 143
62 280
63 383
64 233
65 123
66 15
67 61
68 8
71 92
73 65
74 245
75 377
76 483
77 907
78 398
79 115
80 148
81 215
82 264
83 103
84 53
85 53
86 101
87 119
88 179
89 367
90 212
91 71
93 35
96 106
97 39
99 43
100 8
101 96
102 116
103 195
104 579
105 259
106 130
107 40
109 27
110 79
111 99
112 65
113 184
114 254
115 274
116 155
117 118
118 38
119 16
126 92
127 167
128 304
129 308
130 149
131 191
132 116
138 51
139 164
140 427
141 254
142 220
143 250
144 79
154 88
155 155
156 303
157 252
158 258
159 162
168 168
169 253
170 66
182 7
184 29
185 134
186 388
187 189
193 28
194 8
236 18
237 111
238 123
239 24
240 10
248 99
249 150
250 161
251 167
263 37
264 308
265 909
266 427
267 999
268 339
269 102

$$$$

     RDKit          2D

 19 20  0  0  0  0  0  0  0  0999 V2000
   10.3942    0.7512    0.0000 C   0  0  0  0  0  0  0  0  0  0  0  0
   -1.3000    3.0000    0.0000 C   0  0  0  0  0  0  0  0  0  0  0  0
    9.0951    1.5010    0.0000 C   0  0  0  0  0  0  0  0  0  0  0  0
   -2.6000   -0.7500    0.0000 C   0  0  0  0  0  0  0  0  0  0  0  0
   -2.6000    0.7500    0.0000 C   0  0  0  0  0  0  0  0  0  0  0  0
   -1.3000   -1.5000    0.0000 C   0  0  0  0  0  0  0  0  0  0  0  0
    3.8989    1.5002    0.0000 C   0  0  0  0  0  0  0  0  0  0  0  0
    5.1981    0.7504    0.0000 C   0  0  0  0  0  0  0  0  0  0  0  0
    2.6000   -0.7500    0.0000 C   0  0  0  0  0  0  0  0  0  0  0  0
   -1.3000    1.5000    0.0000 C   0  0  0  0  0  0  0  0  0  0  0  0
    2.6000    0.7500    0.0000 C   0  0  0  0  0  0  0  0  0  0  0  0
    0.0000   -0.7500    0.0000 C   0  0  0  0  0  0  0  0  0  0  0  0
    6.4970    1.5006    0.0000 C   0  0  0  0  0  0  0  0  0  0  0  0
    1.3000    1.5000    0.0000 C   0  0  0  0  0  0  0  0  0  0  0  0
    1.3000   -1.5000    0.0000 N   0  0  0  0  0  0  0  0  0  0  0  0
    0.0000    0.7500    0.0000 N   0  0  0  0  0  0  0  0  0  0  0  0
    6.4968    3.0006    0.0000 O   0  0  0  0  0  0  0  0  0  0  0  0
    1.3000    3.0000    0.0000 O   0  0  0  0  0  0  0  0  0  0  0  0
    7.7962    0.7508    0.0000 O   0  0  0  0  0  0  0  0  0  0  0  0
  3  1  1  0
  5  4  1  0
  6  4  2  0
  8  7  1  0
 10  2  1  0
 10  5  2  0
 11  7  1  0
 11  9  2  0
 12  6  1  0
 13  8  1  0
 14 11  1  0
 15  9  1  0
 15 12  2  0
 16 10  1  0
 16 12  1  0
 16 14  1  0
 17 13  2  0
 18 14  2  0
 19  3  1  0
 19 13  1  0
M  END
>  <NAME>  (2818) 
6-METHYL-4-OXO-4H-PYRIDO(1,2-A)PYRIMIDINE-3-PROPIONIC ACID ETHYL ESTER

>  <SYNONYMS>  (2818) 


>  <SPECTRUM TYPE>  (2818) 
MS1

>  <INSTRUMENT TYPE>  (2818) 
EI-B

>  <INSTRUMENT>  (2818) 
MS-902

>  <ION MODE>  (2818) 
P

>  <INCHIKEY>  (2818) 
QFRPXRGYTOYELI-UHFFFAOYSA-N

>  <FORMULA>  (2818) 
C14H16N2O3

>  <EXACT MASS>  (2818) 
260.116092372

>  <MW>  (2818) 
260

>  <ID>  (2818) 
JP007907

>  <CONTRIBUTOR>  (2818) 
University of Tokyo Team, {Faculty of Engineering, University of Tokyo

>  <COMMENT>  (2818) 
SMILES=CCOC(=O)CCC(=C1)C(=O)N(C(C)=2)C(C=CC2)=N1
InChI=InChI=1S/C14H16N2O3/c1-3-19-13(17)8-7-11-9-15-12-6-4-5-10(2)16(12)14(11)18/h4-6,9H,3,7-8H2,1-2H3
computed SMILES=O=C(OCC)CCC1=CN=C2C=CC=C(N2C1=O)C
accession=JP007907
date=2016.01.19 (Created 2008.10.21, modified 2011.05.06)
author=SASAKI S, TOYOHASHI UNIV. OF TECH.
license=CC BY-NC-SA
exact mass=260.11609
ionization energy=70 eV
ion type=[M]+*
computed spectral entropy=2.760180265373625
computed normalized entropy=0.7827277574445017
SPLASH=splash10-0229-4930000000-e890c2a7fec7269cf574
submitter=submitter = University of Tokyo Team (Faculty of Engineering, University of Tokyo)
MoNA Rating=3.75

>  <NUM PEAKS>  (2818) 
34

>  <MASS SPECTRAL PEAKS>  (2818) 
39 8.9
41 2.4
51 2
55 0.57
64 3.4
65 25.7
66 5.9
69 0.4
91 4.6
92 55.7
93 14.3
119 0.69
143 9.7
144 2
145 28.6
146 0.26
157 3.1
158 9.7
159 8.6
160 0.5
172 31.4
173 99.99
174 10.9
185 0.23
186 44.3
187 20
188 2.3
213 0.21
214 15.7
215 20
216 2.1
219 0.2
260 54.3
261 8.9

>  <PREDICTED SPECTRUM>  (2818) 
27 13
29 127
39 196
40 21
41 116
43 51
51 105
52 95
53 101
54 97
55 226
60 31
63 86
64 130
65 405
66 142
67 99
77 83
78 112
79 55
81 14
91 130
92 661
93 336
94 51
95 10
105 51
106 69
117 23
118 64
119 142
127 64
131 24
142 17
143 154
144 197
145 410
146 184
147 7
157 173
158 232
159 201
160 212
170 62
171 160
172 440
173 999
174 355
175 90
185 187
186 589
187 481
188 201
189 2
213 124
214 407
215 403
216 119
231 79
232 31
260 666
261 229
262 76

$$$$

     RDKit          2D

 19 20  0  0  0  0  0  0  0  0999 V2000
    9.0951    1.5010    0.0000 C   0  0  0  0  0  0  0  0  0  0  0  0
   -3.8989   -1.5002    0.0000 C   0  0  0  0  0  0  0  0  0  0  0  0
   -1.3000    3.0000    0.0000 C   0  0  0  0  0  0  0  0  0  0  0  0
    7.7962    0.7508    0.0000 C   0  0  0  0  0  0  0  0  0  0  0  0
   -2.6000    0.7500    0.0000 C   0  0  0  0  0  0  0  0  0  0  0  0
   -1.3000   -1.5000    0.0000 C   0  0  0  0  0  0  0  0  0  0  0  0
    3.8989    1.5002    0.0000 C   0  0  0  0  0  0  0  0  0  0  0  0
    2.6000   -0.7500    0.0000 C   0  0  0  0  0  0  0  0  0  0  0  0
   -2.6000   -0.7500    0.0000 C   0  0  0  0  0  0  0  0  0  0  0  0
   -1.3000    1.5000    0.0000 C   0  0  0  0  0  0  0  0  0  0  0  0
    2.6000    0.7500    0.0000 C   0  0  0  0  0  0  0  0  0  0  0  0
    0.0000   -0.7500    0.0000 C   0  0  0  0  0  0  0  0  0  0  0  0
    5.1981    0.7504    0.0000 C   0  0  0  0  0  0  0  0  0  0  0  0
    1.3000    1.5000    0.0000 C   0  0  0  0  0  0  0  0  0  0  0  0
    1.3000   -1.5000    0.0000 N   0  0  0  0  0  0  0  0  0  0  0  0
    0.0000    0.7500    0.0000 N   0  0  0  0  0  0  0  0  0  0  0  0
    5.1983   -0.7496    0.0000 O   0  0  0  0  0  0  0  0  0  0  0  0
    1.3000    3.0000    0.0000 O   0  0  0  0  0  0  0  0  0  0  0  0
    6.4970    1.5006    0.0000 O   0  0  0  0  0  0  0  0  0  0  0  0
  4  1  1  0
  9  2  1  0
  9  5  1  0
  9  6  2  0
 10  3  1  0
 10  5  2  0
 11  7  1  0
 11  8  2  0
 12  6  1  0
 13  7  1  0
 14 11  1  0
 15  8  1  0
 15 12  2  0
 16 10  1  0
 16 12  1  0
 16 14  1  0
 17 13  2  0
 18 14  2  0
 19  4  1  0
 19 13  1  0
M  END
>  <NAME>  (2819) 
6,8-DIMETHYL-4-OXO-4H-PYRIDO(1,2-A)PYRIMIDINE-3-ACETIC ACID ETHYL ESTER

>  <SYNONYMS>  (2819) 


>  <SPECTRUM TYPE>  (2819) 
MS1

>  <INSTRUMENT TYPE>  (2819) 
EI-B

>  <INSTRUMENT>  (2819) 
MS-902

>  <ION MODE>  (2819) 
P

>  <INCHIKEY>  (2819) 
IAENEZBDQUPXCU-UHFFFAOYSA-N

>  <FORMULA>  (2819) 
C14H16N2O3

>  <EXACT MASS>  (2819) 
260.11609237199997

>  <MW>  (2819) 
260

>  <ID>  (2819) 
JP007906

>  <CONTRIBUTOR>  (2819) 
University of Tokyo Team, {Faculty of Engineering, University of Tokyo

>  <COMMENT>  (2819) 
SMILES=CCOC(=O)CC(=C2)C(=O)N(C(C)=1)C(=N2)C=C(C)C1
InChI=InChI=1S/C14H16N2O3/c1-4-19-13(17)7-11-8-15-12-6-9(2)5-10(3)16(12)14(11)18/h5-6,8H,4,7H2,1-3H3
computed SMILES=O=C(OCC)CC1=CN=C2C=C(C=C(N2C1=O)C)C
accession=JP007906
date=2016.01.19 (Created 2008.10.21, modified 2011.05.06)
author=SASAKI S, TOYOHASHI UNIV. OF TECH.
license=CC BY-NC-SA
exact mass=260.11609
ionization energy=70 eV
ion type=[M]+*
computed spectral entropy=2.401805061143751
computed normalized entropy=0.6702364637644478
SPLASH=splash10-000i-1920000000-3f2822161ec8e805fe12
submitter=submitter = University of Tokyo Team (Faculty of Engineering, University of Tokyo)
MoNA Rating=3.75

>  <NUM PEAKS>  (2819) 
36

>  <MASS SPECTRAL PEAKS>  (2819) 
39 4.1
41 1.3
42 1
51 0.13
52 1.8
53 2.6
65 1.5
66 0.15
77 5.6
78 2.3
79 7.7
79.5 0.21
80 1.8
93 1
93.5 2.6
94 0.32
95 2.3
104 1.5
105 1.9
106 2.38
107 4
122 11.3
133 2.6
157 0.35
158 1.4
159 12.6
160 2.1
173 0.14
186 13.7
187 99.99
188 14.9
189 0.12
214 3.3
215 4.2
260 30
261 4.7

>  <PREDICTED SPECTRUM>  (2819) 
27 26
29 24
38 30
39 221
40 65
41 109
42 148
43 49
44 26
50 45
51 128
52 152
53 179
54 108
55 142
62 20
63 79
64 86
65 209
66 140
67 113
75 6
76 23
77 226
78 147
79 157
80 54
81 30
82 32
89 34
90 0
91 138
92 131
93 40
94 3
103 34
104 97
105 184
106 209
107 161
108 44
122 31
130 9
131 172
132 89
133 165
145 21
146 20
157 147
158 203
159 371
160 165
173 18
185 19
186 258
187 999
188 310
189 100
214 299
215 236
216 21
232 3
260 501
261 193
262 37

$$$$

     RDKit          2D

 16 16  0  0  0  0  0  0  0  0999 V2000
  -10.3931   -1.5015    0.0000 C   0  0  0  0  0  0  0  0  0  0  0  0
    2.5989    1.5002    0.0000 C   0  0  0  0  0  0  0  0  0  0  0  0
   -9.0942   -0.7512    0.0000 C   0  0  0  0  0  0  0  0  0  0  0  0
   -7.7951   -1.5010    0.0000 C   0  0  0  0  0  0  0  0  0  0  0  0
   -6.4962   -0.7508    0.0000 C   0  0  0  0  0  0  0  0  0  0  0  0
   -5.1970   -1.5006    0.0000 C   0  0  0  0  0  0  0  0  0  0  0  0
   -3.8981   -0.7504    0.0000 C   0  0  0  0  0  0  0  0  0  0  0  0
   -2.5989   -1.5002    0.0000 C   0  0  0  0  0  0  0  0  0  0  0  0
    1.3000    0.7500    0.0000 C   0  0  0  0  0  0  0  0  0  0  0  0
   -1.3000   -0.7500    0.0000 C   0  0  0  0  0  0  0  0  0  0  0  0
   -1.3000    0.7500    0.0000 C   0  0  0  0  0  0  0  0  0  0  0  0
   -0.0000   -1.5000    0.0000 C   0  0  0  0  0  0  0  0  0  0  0  0
   -2.5989    1.5002    0.0000 Cl  0  0  0  0  0  0  0  0  0  0  0  0
   -0.0000   -3.0000    0.0000 Cl  0  0  0  0  0  0  0  0  0  0  0  0
    0.0000    1.5000    0.0000 N   0  0  0  0  0  0  0  0  0  0  0  0
    1.3000   -0.7500    0.0000 N   0  0  0  0  0  0  0  0  0  0  0  0
  3  1  1  0
  4  3  1  0
  5  4  1  0
  6  5  1  0
  7  6  1  0
  8  7  1  0
  9  2  1  0
 10  8  1  0
 11 10  2  0
 12 10  1  0
 13 11  1  0
 14 12  1  0
 15  9  2  0
 15 11  1  0
 16  9  1  0
 16 12  2  0
M  END
>  <NAME>  (2820) 
4,6-DICHLORO-5-HEPTYL-2-METHYLPYRIMIDINE

>  <SYNONYMS>  (2820) 


>  <SPECTRUM TYPE>  (2820) 
MS1

>  <INSTRUMENT TYPE>  (2820) 
EI-B

>  <INSTRUMENT>  (2820) 
MS-902

>  <ION MODE>  (2820) 
P

>  <INCHIKEY>  (2820) 
ZUEZUFNWYSUGEG-UHFFFAOYSA-N

>  <FORMULA>  (2820) 
C12H18Cl2N2

>  <EXACT MASS>  (2820) 
260.084703936

>  <MW>  (2820) 
260

>  <ID>  (2820) 
JP007905

>  <CONTRIBUTOR>  (2820) 
University of Tokyo Team, {Faculty of Engineering, University of Tokyo

>  <COMMENT>  (2820) 
SMILES=CCCCCCCc(c(Cl)1)c(Cl)nc(C)n1
InChI=InChI=1S/C12H18Cl2N2/c1-3-4-5-6-7-8-10-11(13)15-9(2)16-12(10)14/h3-8H2,1-2H3
computed SMILES=ClC=1N=C(N=C(Cl)C1CCCCCCC)C
accession=JP007905
date=2016.01.19 (Created 2008.10.21, modified 2011.05.06)
author=SASAKI S, TOYOHASHI UNIV. OF TECH.
license=CC BY-NC-SA
exact mass=260.0847
ionization energy=70 eV
ion type=[M]+*
computed spectral entropy=2.7018178562222377
computed normalized entropy=0.6712004475138929
SPLASH=splash10-004l-9440000000-d6b0e549b99e94525613
submitter=submitter = University of Tokyo Team (Faculty of Engineering, University of Tokyo)
MoNA Rating=3.75

>  <NUM PEAKS>  (2820) 
56

>  <MASS SPECTRAL PEAKS>  (2820) 
41 19.9
42 5.3
43 99.99
44 0.29
45 1
49 2
52 1.1
53 0.13
54 1
55 5.2
56 5.3
57 1.71
61 1
64 2.7
65 1.3
66 0.1
67 1.1
68 1.1
69 2.6
70 0.29
71 1.1
73 2.7
75 1
76 0.15
78 2.5
79 1
82 1
83 0.1
85 10.8
90 1.7
112 1.1
114 0.11
115 1.5
134 2.7
136 1.5
139 0.19
140 1.5
141 2.3
143 1
149 0.15
163 2.5
165 2.4
167 1
175 1.19
176 32
177 8.8
178 20.2
179 0.26
180 2.1
183 1.5
197 1.1
205 0.1
225 52.5
226 7.1
227 18
228 1.7

>  <PREDICTED SPECTRUM>  (2820) 
15 6
26 79
27 352
28 129
29 410
30 103
35 91
36 222
37 82
38 228
39 632
40 274
41 999
42 595
43 855
44 229
45 53
47 73
49 251
50 238
51 428
52 289
53 380
54 234
55 673
56 382
57 500
58 142
61 44
62 174
63 244
64 184
65 216
66 178
67 344
68 186
69 460
70 172
71 347
72 109
73 121
74 11
75 228
76 261
77 522
78 326
79 244
80 80
81 113
82 172
83 234
84 127
85 306
86 109
87 183
88 74
89 131
90 160
91 204
92 144
93 115
95 32
96 38
97 339
98 204
99 394
100 166
101 153
102 148
103 12
104 57
105 135
106 196
107 65
109 138
110 61
111 72
112 92
113 221
114 104
115 12
116 82
117 97
119 196
120 295
121 124
122 322
123 118
124 172
125 285
126 172
127 177
128 102
129 93
133 90
134 129
135 153
136 105
137 16
138 100
139 261
140 204
141 565
142 356
143 277
144 156
148 98
149 139
150 184
151 281
152 111
153 401
154 328
155 619
156 188
157 107
159 115
161 203
162 145
163 338
164 156
165 12
167 164
168 92
169 460
170 76
171 176
175 370
176 280
177 437
178 167
179 46
182 124
183 301
184 295
185 62
186 137
187 168
188 62
189 905
190 610
191 424
192 396
194 43
197 91
198 64
203 251
204 23
205 117
217 219
219 254
224 43
225 937
226 299
227 431
228 11
231 59
259 9
260 444
261 142
262 295
263 96
264 85

$$$$

     RDKit          2D

 19 21  0  0  0  0  0  0  0  0999 V2000
   -7.3270    0.7006    0.0000 C   0  0  0  0  0  0  0  0  0  0  0  0
    3.0600    2.2000    0.0000 C   0  0  0  0  0  0  0  0  0  0  0  0
    1.7600    2.9500    0.0000 C   0  0  0  0  0  0  0  0  0  0  0  0
    3.0600    0.7000    0.0000 C   0  0  0  0  0  0  0  0  0  0  0  0
    0.4600    2.2000    0.0000 C   0  0  0  0  0  0  0  0  0  0  0  0
    1.7600   -1.5500    0.0000 C   0  0  0  0  0  0  0  0  0  0  0  0
    0.4600   -2.3000    0.0000 C   0  0  0  0  0  0  0  0  0  0  0  0
   -3.4300   -1.5500    0.0000 C   0  0  0  0  0  0  0  0  0  0  0  0
    1.7600   -0.0500    0.0000 C   0  0  0  0  0  0  0  0  0  0  0  0
   -3.4300   -0.0500    0.0000 C   0  0  0  0  0  0  0  0  0  0  0  0
    0.4600    0.7000    0.0000 C   0  0  0  0  0  0  0  0  0  0  0  0
   -0.8300   -1.5500    0.0000 C   0  0  0  0  0  0  0  0  0  0  0  0
   -2.1300    0.7000    0.0000 C   0  0  0  0  0  0  0  0  0  0  0  0
   -4.7289    0.7002    0.0000 C   0  0  0  0  0  0  0  0  0  0  0  0
   -2.1300   -2.3000    0.0000 N   0  0  0  0  0  0  0  0  0  0  0  0
   -0.8300   -0.0500    0.0000 N   0  0  0  0  0  0  0  0  0  0  0  0
   -2.1300    2.2000    0.0000 O   0  0  0  0  0  0  0  0  0  0  0  0
   -4.7287    2.2002    0.0000 O   0  0  0  0  0  0  0  0  0  0  0  0
   -6.0281   -0.0496    0.0000 O   0  0  0  0  0  0  0  0  0  0  0  0
  3  2  2  0
  4  2  1  0
  5  3  1  0
  7  6  1  0
  9  4  2  0
  9  6  1  0
 10  8  2  0
 11  5  2  0
 11  9  1  0
 12  7  1  0
 13 10  1  0
 14 10  1  0
 15  8  1  0
 15 12  2  0
 16 11  1  0
 16 12  1  0
 16 13  1  0
 17 13  2  0
 18 14  2  0
 19  1  1  0
 19 14  1  0
M  END
>  <NAME>  (2821) 
1-OXO-5,6-DIHYDRO-1H-PYRIMIDO(1,2-A)QUINOLINE-2-CARBOXYLIC ACID METHYL ESTER

>  <SYNONYMS>  (2821) 


>  <SPECTRUM TYPE>  (2821) 
MS1

>  <INSTRUMENT TYPE>  (2821) 
EI-B

>  <INSTRUMENT>  (2821) 
MS-902

>  <ION MODE>  (2821) 
P

>  <INCHIKEY>  (2821) 
DSYTVTCQTXYCFF-UHFFFAOYSA-N

>  <FORMULA>  (2821) 
C14H12N2O3

>  <EXACT MASS>  (2821) 
256.084792244

>  <MW>  (2821) 
256

>  <ID>  (2821) 
JP007904

>  <CONTRIBUTOR>  (2821) 
University of Tokyo Team, {Faculty of Engineering, University of Tokyo

>  <COMMENT>  (2821) 
SMILES=COC(=O)C(=C3)C(=O)N(C1=N3)c(c2)c(ccc2)CC1
InChI=InChI=1S/C14H12N2O3/c1-19-14(18)10-8-15-12-7-6-9-4-2-3-5-11(9)16(12)13(10)17/h2-5,8H,6-7H2,1H3
computed SMILES=O=C(OC)C1=CN=C2N(C1=O)C=3C=CC=CC3CC2
accession=JP007904
date=2016.01.19 (Created 2008.10.21, modified 2011.05.06)
author=SASAKI S, TOYOHASHI UNIV. OF TECH.
license=CC BY-NC-SA
exact mass=256.08479
ionization energy=70 eV
ion type=[M]+*
computed spectral entropy=2.652944050843269
computed normalized entropy=0.7461840598897348
SPLASH=splash10-0a7i-1890000000-68d3218d30a299066b9e
submitter=submitter = University of Tokyo Team (Faculty of Engineering, University of Tokyo)
MoNA Rating=3.75

>  <NUM PEAKS>  (2821) 
35

>  <MASS SPECTRAL PEAKS>  (2821) 
77 17
89 5.3
90 3.4
91 0.26
101 4
102 5.8
103 16
104 0.58
115 4.7
116 4.1
117 4
128 1.2
129 4.8
130 58
131 7.7
142 0.57
143 4.1
144 5.6
156 3.4
169 0.9
170 7.7
195 2.7
196 6.6
197 0.64
198 42
199 6.7
225 62
226 0.94
227 2.8
228 9.5
229 1.4
241 0.74
255 8.5
256 99.99
257 16

>  <PREDICTED SPECTRUM>  (2821) 
43 85
44 44
50 40
51 178
52 107
53 28
57 28
58 3
59 26
63 82
64 79
65 50
66 28
75 39
76 100
77 418
78 162
79 8
85 36
89 150
90 127
91 38
101 82
102 171
103 334
104 146
114 76
115 268
116 326
117 283
126 45
127 65
128 414
129 333
130 953
131 154
139 47
140 57
141 100
142 169
143 186
144 440
152 62
153 27
154 41
167 51
168 96
169 228
170 412
171 151
183 44
184 36
195 92
196 221
197 405
198 741
199 225
211 4
225 806
226 325
227 112
228 277
229 58
241 113
242 1
255 282
256 999
257 401
258 30

$$$$

     RDKit          2D

 19 21  0  0  0  0  0  0  0  0999 V2000
   -3.2473   -1.8741    0.0000 C   0  0  0  0  0  0  0  0  0  0  0  0
    5.8475   -2.6264    0.0000 C   0  0  0  0  0  0  0  0  0  0  0  0
    7.1465   -1.8764    0.0000 C   0  0  0  0  0  0  0  0  0  0  0  0
   -1.9478   -2.6249    0.0000 C   0  0  0  0  0  0  0  0  0  0  0  0
   -3.2478   -0.3733    0.0000 C   0  0  0  0  0  0  0  0  0  0  0  0
    4.5480   -1.8756    0.0000 C   0  0  0  0  0  0  0  0  0  0  0  0
    7.1461   -0.3756    0.0000 C   0  0  0  0  0  0  0  0  0  0  0  0
    0.6493    1.8767    0.0000 C   0  0  0  0  0  0  0  0  0  0  0  0
    1.9483    2.6267    0.0000 C   0  0  0  0  0  0  0  0  0  0  0  0
   -0.6488   -1.8749    0.0000 C   0  0  0  0  0  0  0  0  0  0  0  0
   -1.9488    0.3767    0.0000 C   0  0  0  0  0  0  0  0  0  0  0  0
    4.5475   -0.3747    0.0000 C   0  0  0  0  0  0  0  0  0  0  0  0
    5.8465    0.3753    0.0000 C   0  0  0  0  0  0  0  0  0  0  0  0
    0.6498    0.3759    0.0000 C   0  0  0  0  0  0  0  0  0  0  0  0
    3.2483    0.3751    0.0000 C   0  0  0  0  0  0  0  0  0  0  0  0
    3.2479    1.8759    0.0000 N   0  0  0  0  0  0  0  0  0  0  0  0
    1.9493   -0.3749    0.0000 N   0  0  0  0  0  0  0  0  0  0  0  0
   -0.6492   -0.3741    0.0000 N   0  0  0  0  0  0  0  0  0  0  0  0
    5.8468    1.8753    0.0000 O   0  0  0  0  0  0  0  0  0  0  0  0
  3  2  2  0
  4  1  1  0
  5  1  1  0
  6  2  1  0
  7  3  1  0
  9  8  2  0
 10  4  1  0
 11  5  1  0
 12  6  2  0
 13  7  2  0
 13 12  1  0
 14  8  1  0
 15 12  1  0
 16  9  1  0
 16 15  2  0
 17 14  2  0
 17 15  1  0
 18 10  1  0
 18 11  1  0
 18 14  1  0
 19 13  1  0
M  END
>  <NAME>  (2822) 
2-(2-HYDROXYPHENYL)-4-PIPERIDYLPYRIMIDINE

>  <SYNONYMS>  (2822) 


>  <SPECTRUM TYPE>  (2822) 
MS1

>  <INSTRUMENT TYPE>  (2822) 
EI-B

>  <INSTRUMENT>  (2822) 
MS-902

>  <ION MODE>  (2822) 
P

>  <INCHIKEY>  (2822) 
ONTRPRJREWCYNU-UHFFFAOYSA-N

>  <FORMULA>  (2822) 
C15H17N3O

>  <EXACT MASS>  (2822) 
255.137162164

>  <MW>  (2822) 
255

>  <ID>  (2822) 
JP007903

>  <CONTRIBUTOR>  (2822) 
University of Tokyo Team, {Faculty of Engineering, University of Tokyo

>  <COMMENT>  (2822) 
SMILES=C(C3)CCN(C3)c(c2)nc(nc2)c(c1)c(O)ccc1
InChI=InChI=1S/C15H17N3O/c19-13-7-3-2-6-12(13)15-16-9-8-14(17-15)18-10-4-1-5-11-18/h2-3,6-9,19H,1,4-5,10-11H2
computed SMILES=OC=1C=CC=CC1C2=NC=CC(=N2)N3CCCCC3
accession=JP007903
date=2016.01.19 (Created 2008.10.21, modified 2011.05.06)
author=SASAKI S, TOYOHASHI UNIV. OF TECH.
license=CC BY-NC-SA
exact mass=255.13716
ionization energy=70 eV
ion type=[M]+*
computed spectral entropy=3.723796201348425
computed normalized entropy=0.7712415563593848
SPLASH=splash10-0a4i-6590000000-9c1ee9a41424642a115f
submitter=submitter = University of Tokyo Team (Faculty of Engineering, University of Tokyo)
MoNA Rating=3.75

>  <NUM PEAKS>  (2822) 
125

>  <MASS SPECTRAL PEAKS>  (2822) 
38 1
39 4.6
40 2.4
41 1.08
42 12.8
43 2.7
44 25.8
45 0.24
51 1.3
52 4.3
53 5.6
54 0.45
55 4.6
56 2.9
57 8.1
60 0.12
63 1.4
64 1.7
65 3.5
66 0.53
67 3.1
68 1.4
69 1.9
70 0.1
71 1.6
71.5 1.1
73 1
77 0.44
78 1.4
79 2.9
80 3.2
81 0.27
82 2.2
83 1.9
84 36.7
85 0.24
85.5 1.5
90 1.4
91 4.8
92 0.22
93 1.1
94 1.1
95 1.4
99.5 0.14
100.5 1.1
102 2.9
103 1.2
104 0.11
105 15
106 1.4
106.5 1.4
107 0.5
108 2
113.5 4
115 1.8
116 0.13
117 1.4
118 1.7
119 1.4
120 1.14
121 1.7
123 2.4
124 1
125 0.11
127 1.4
128 2.4
129 1.1
133 0.17
135 3.2
137 1.1
139 1.5
142 0.11
143 2.5
144 8.4
145 2.4
146 0.1
147 2.2
149 2.2
151 1.4
152 0.1
153 2.2
154 1.3
161 1
163 0.66
164 1.9
165 2.7
168 1.4
171 1.02
172 18.5
173 4.3
175 2.7
177 0.18
178 1.7
179 1
180 3.1
181 0.12
186 2.5
187 4.4
188 1.2
190 0.14
198 1
199 8.4
200 15.3
201 0.59
203 1.1
205 1
208 1
212 0.76
213 4.4
214 5.3
215 1
217 0.11
219 9.7
220 1.8
226 30.5
227 0.95
228 1
232 3.1
233 4.2
240 0.43
253 1.4
254 17.7
255 99.99
256 1.6
257 1.4

>  <PREDICTED SPECTRUM>  (2822) 
29 25
36 8
37 24
38 73
39 273
40 145
41 372
42 296
43 130
44 125
45 12
49 29
50 138
51 245
52 225
53 248
54 172
55 310
56 209
57 117
60 16
61 29
62 99
63 178
64 186
65 223
66 195
67 176
68 129
69 190
70 115
73 53
74 41
75 82
76 129
77 294
78 222
79 186
80 150
81 113
82 120
83 144
84 684
85 159
86 35
87 44
88 69
89 143
90 145
91 159
92 157
93 110
94 76
95 50
97 30
99 10
101 31
102 139
103 115
104 181
105 192
106 150
107 135
108 75
109 39
112 7
114 76
115 144
116 187
117 121
118 157
119 200
120 224
121 78
126 14
127 1
128 37
129 52
130 68
131 51
132 99
133 77
134 21
135 77
136 53
137 54
142 18
143 173
144 301
145 189
146 155
147 12
154 26
155 44
156 46
157 12
158 23
159 25
160 12
169 46
170 5
171 367
172 519
173 254
174 39
182 1
183 53
184 41
185 96
186 251
187 278
188 163
196 3
197 7
198 97
199 379
200 406
201 210
209 5
210 16
211 90
212 332
213 254
214 302
215 89
224 0
226 679
227 329
228 138
238 100
239 94
240 295
241 87
252 32
253 83
254 508
255 999
256 372
257 110

$$$$

     RDKit          2D

 19 21  0  0  0  0  0  0  0  0999 V2000
   -7.3270    0.7006    0.0000 C   0  0  0  0  0  0  0  0  0  0  0  0
    3.0600    2.2000    0.0000 C   0  0  0  0  0  0  0  0  0  0  0  0
    1.7600    2.9500    0.0000 C   0  0  0  0  0  0  0  0  0  0  0  0
    3.0600    0.7000    0.0000 C   0  0  0  0  0  0  0  0  0  0  0  0
    0.4600    2.2000    0.0000 C   0  0  0  0  0  0  0  0  0  0  0  0
    1.7600   -1.5500    0.0000 C   0  0  0  0  0  0  0  0  0  0  0  0
    0.4600   -2.3000    0.0000 C   0  0  0  0  0  0  0  0  0  0  0  0
   -3.4300   -1.5500    0.0000 C   0  0  0  0  0  0  0  0  0  0  0  0
    1.7600   -0.0500    0.0000 C   0  0  0  0  0  0  0  0  0  0  0  0
   -3.4300   -0.0500    0.0000 C   0  0  0  0  0  0  0  0  0  0  0  0
    0.4600    0.7000    0.0000 C   0  0  0  0  0  0  0  0  0  0  0  0
   -0.8300   -1.5500    0.0000 C   0  0  0  0  0  0  0  0  0  0  0  0
   -2.1300    0.7000    0.0000 C   0  0  0  0  0  0  0  0  0  0  0  0
   -4.7289    0.7002    0.0000 C   0  0  0  0  0  0  0  0  0  0  0  0
   -2.1300   -2.3000    0.0000 N   0  0  0  0  0  0  0  0  0  0  0  0
   -0.8300   -0.0500    0.0000 N   0  0  0  0  0  0  0  0  0  0  0  0
   -2.1300    2.2000    0.0000 O   0  0  0  0  0  0  0  0  0  0  0  0
   -4.7287    2.2002    0.0000 O   0  0  0  0  0  0  0  0  0  0  0  0
   -6.0281   -0.0496    0.0000 O   0  0  0  0  0  0  0  0  0  0  0  0
  3  2  2  0
  4  2  1  0
  5  3  1  0
  7  6  2  0
  9  4  2  0
  9  6  1  0
 10  8  2  0
 11  5  2  0
 11  9  1  0
 12  7  1  0
 13 10  1  0
 14 10  1  0
 15  8  1  0
 15 12  2  0
 16 11  1  0
 16 12  1  0
 16 13  1  0
 17 13  2  0
 18 14  2  0
 19  1  1  0
 19 14  1  0
M  END
>  <NAME>  (2823) 
1-OXO-1H-PYRIMIDO(1,2-A)QUINOLINE-2-CARBOXYLIC ACID METHYL ESTER

>  <SYNONYMS>  (2823) 


>  <SPECTRUM TYPE>  (2823) 
MS1

>  <INSTRUMENT TYPE>  (2823) 
EI-B

>  <INSTRUMENT>  (2823) 
MS-902

>  <ION MODE>  (2823) 
P

>  <INCHIKEY>  (2823) 
RUCUMXZHBMUJIL-UHFFFAOYSA-N

>  <FORMULA>  (2823) 
C14H10N2O3

>  <EXACT MASS>  (2823) 
254.06914217999997

>  <MW>  (2823) 
254

>  <ID>  (2823) 
JP007902

>  <CONTRIBUTOR>  (2823) 
University of Tokyo Team, {Faculty of Engineering, University of Tokyo

>  <COMMENT>  (2823) 
SMILES=COC(=O)C(=C3)C(=O)N(C1=N3)c(c2)c(ccc2)C=C1
InChI=InChI=1S/C14H10N2O3/c1-19-14(18)10-8-15-12-7-6-9-4-2-3-5-11(9)16(12)13(10)17/h2-8H,1H3
computed SMILES=O=C(OC)C1=CN=C2C=CC=3C=CC=CC3N2C1=O
accession=JP007902
date=2016.01.19 (Created 2008.10.21, modified 2011.05.06)
author=SASAKI S, TOYOHASHI UNIV. OF TECH.
license=CC BY-NC-SA
exact mass=254.06914
ionization energy=70 eV
ion type=[M]+*
computed spectral entropy=2.2937743770118093
computed normalized entropy=0.7656806975913729
SPLASH=splash10-0ufr-2980000000-e07c69cac4e72687c185
submitter=submitter = University of Tokyo Team (Faculty of Engineering, University of Tokyo)
MoNA Rating=3.75

>  <NUM PEAKS>  (2823) 
20

>  <MASS SPECTRAL PEAKS>  (2823) 
64 15
69 20
77 8.4
101 1.5
128 72
129 20
148 7
155 0.48
168 28
169 7.9
194 3.4
195 3.1
196 8.4
223 22
224 3.8
226 2.4
239 3.1
240 1.1
254 99.99
255 17

>  <PREDICTED SPECTRUM>  (2823) 
64 10
69 69
70 60
75 6
76 23
77 118
101 293
112 10
113 47
126 122
127 96
128 999
129 512
139 14
140 265
141 126
155 108
167 66
168 597
169 345
184 152
193 30
194 114
195 671
196 457
197 94
223 583
224 106
226 376
227 54
239 86
254 920
255 355

$$$$

     RDKit          2D

 18 19  0  0  0  0  0  0  0  0999 V2000
    7.7962    0.7508    0.0000 C   0  0  0  0  0  0  0  0  0  0  0  0
   -1.3000    3.0000    0.0000 C   0  0  0  0  0  0  0  0  0  0  0  0
    1.3000   -3.0000    0.0000 C   0  0  0  0  0  0  0  0  0  0  0  0
    6.4970    1.5006    0.0000 C   0  0  0  0  0  0  0  0  0  0  0  0
   -2.6000   -0.7500    0.0000 C   0  0  0  0  0  0  0  0  0  0  0  0
   -2.6000    0.7500    0.0000 C   0  0  0  0  0  0  0  0  0  0  0  0
   -1.3000   -1.5000    0.0000 C   0  0  0  0  0  0  0  0  0  0  0  0
    2.6000   -0.7500    0.0000 C   0  0  0  0  0  0  0  0  0  0  0  0
   -1.3000    1.5000    0.0000 C   0  0  0  0  0  0  0  0  0  0  0  0
    2.6000    0.7500    0.0000 C   0  0  0  0  0  0  0  0  0  0  0  0
    0.0000   -0.7500    0.0000 C   0  0  0  0  0  0  0  0  0  0  0  0
    1.3000    1.5000    0.0000 C   0  0  0  0  0  0  0  0  0  0  0  0
    3.8989    1.5002    0.0000 C   0  0  0  0  0  0  0  0  0  0  0  0
    1.3000   -1.5000    0.0000 N   0  0  0  0  0  0  0  0  0  0  0  0
    0.0000    0.7500    0.0000 N   0  0  0  0  0  0  0  0  0  0  0  0
    1.3000    3.0000    0.0000 O   0  0  0  0  0  0  0  0  0  0  0  0
    3.8987    3.0002    0.0000 O   0  0  0  0  0  0  0  0  0  0  0  0
    5.1981    0.7504    0.0000 O   0  0  0  0  0  0  0  0  0  0  0  0
  4  1  1  0
  6  5  1  0
  7  5  1  0
  9  2  1  0
  9  6  1  0
 10  8  2  0
 11  7  1  0
 12 10  1  0
 13 10  1  0
 14  3  1  0
 14  8  1  0
 14 11  1  0
 15  9  1  0
 15 11  1  0
 15 12  1  0
 16 12  2  0
 17 13  2  0
 18  4  1  0
 18 13  1  0
M  END
>  <NAME>  (2824) 
1,6-DIMETHYL-4-OXO-1,6,7,8,9,9A-HEXAHYDRO-4H-PYRIDO(1,2-A)PYRIMIDINE-3-CARBOXYLIC ACID ETHYL ESTER

>  <SYNONYMS>  (2824) 


>  <SPECTRUM TYPE>  (2824) 
MS1

>  <INSTRUMENT TYPE>  (2824) 
EI-B

>  <INSTRUMENT>  (2824) 
MS-902

>  <ION MODE>  (2824) 
P

>  <INCHIKEY>  (2824) 
GLHCZAOYBZLTCB-UHFFFAOYSA-N

>  <FORMULA>  (2824) 
C13H20N2O3

>  <EXACT MASS>  (2824) 
252.1473925

>  <MW>  (2824) 
252

>  <ID>  (2824) 
JP007901

>  <CONTRIBUTOR>  (2824) 
University of Tokyo Team, {Faculty of Engineering, University of Tokyo

>  <COMMENT>  (2824) 
SMILES=CCOC(=O)C(=C([H])1)C(=O)N(C(C)2)C(CCC2)N(C)1
InChI=InChI=1S/C13H20N2O3/c1-4-18-13(17)10-8-14(3)11-7-5-6-9(2)15(11)12(10)16/h8-9,11H,4-7H2,1-3H3
computed SMILES=O=C(OCC)C1=CN(C)C2N(C1=O)C(C)CCC2
accession=JP007901
date=2016.01.19 (Created 2008.10.21, modified 2011.05.06)
author=SASAKI S, TOYOHASHI UNIV. OF TECH.
license=CC BY-NC-SA
exact mass=252.14739
ionization energy=70 eV
ion type=[M]+*
computed spectral entropy=3.202722121699323
computed normalized entropy=0.8463429245175356
SPLASH=splash10-0fsu-7940000000-e4b379904dce53b957a7
submitter=submitter = University of Tokyo Team (Faculty of Engineering, University of Tokyo)
MoNA Rating=3.75

>  <NUM PEAKS>  (2824) 
44

>  <MASS SPECTRAL PEAKS>  (2824) 
41 21.5
42 80
53 6
54 1.3
55 28
69 65
82 22.5
83 0.9
84 19
96 17.5
97 40
98 5
110 60
117 12.5
119 13
123 0.85
128 6
131 9.5
137 65
138 1.5
149 9.5
150 6.5
151 17.5
155 0.65
156 26.5
178 9.5
179 8
183 99.99
184 9.5
195 4.5
197 5
205 0.3
206 14
207 19
208 3.5
209 0.45
210 8
219 20.5
223 13.5
224 0.4
237 8
251 20
252 80
253 11.5

>  <PREDICTED SPECTRUM>  (2824) 
27 9
29 95
39 252
40 112
41 499
42 403
43 97
44 3
51 38
52 54
53 257
54 297
55 591
56 304
57 86
60 53
65 35
66 94
67 290
68 320
69 521
70 248
71 47
79 19
80 75
81 231
82 434
83 339
84 300
94 15
95 179
96 473
97 306
98 280
99 8
102 48
109 307
110 536
111 363
112 169
113 83
123 195
124 127
125 18
126 55
128 72
129 24
135 36
136 12
137 797
138 357
139 114
140 10
149 302
150 178
151 307
152 52
153 69
155 282
156 343
157 33
163 101
165 71
169 6
177 48
178 251
179 320
180 25
181 79
182 1
183 999
184 380
195 247
196 62
197 122
198 22
205 104
206 338
207 448
208 176
209 237
210 182
223 419
224 121
237 257
238 47
251 345
252 886
253 318
254 16

$$$$

     RDKit          2D

 14 15  0  0  0  0  0  0  0  0999 V2000
   -3.8982    0.7506    0.0000 C   0  0  0  0  0  0  0  0  0  0  0  0
   -2.5989    3.0010    0.0000 C   0  0  0  0  0  0  0  0  0  0  0  0
   -5.1975    1.5019    0.0000 C   0  0  0  0  0  0  0  0  0  0  0  0
   -3.8982    3.7523    0.0000 C   0  0  0  0  0  0  0  0  0  0  0  0
   -1.3000   -0.7500    0.0000 C   0  0  0  0  0  0  0  0  0  0  0  0
    1.3000    0.7500    0.0000 C   0  0  0  0  0  0  0  0  0  0  0  0
   -2.5989    1.5002    0.0000 C   0  0  0  0  0  0  0  0  0  0  0  0
   -5.1975    3.0027    0.0000 C   0  0  0  0  0  0  0  0  0  0  0  0
   -1.3000    0.7500    0.0000 C   0  0  0  0  0  0  0  0  0  0  0  0
    0.0000   -1.5000    0.0000 C   0  0  0  0  0  0  0  0  0  0  0  0
   -0.0000   -3.0000    0.0000 Br  0  0  0  0  0  0  0  0  0  0  0  0
   -6.4964    3.7529    0.0000 F   0  0  0  0  0  0  0  0  0  0  0  0
    0.0000    1.5000    0.0000 N   0  0  0  0  0  0  0  0  0  0  0  0
    1.3000   -0.7500    0.0000 N   0  0  0  0  0  0  0  0  0  0  0  0
  3  1  2  0
  4  2  1  0
  7  1  1  0
  7  2  2  0
  8  3  1  0
  8  4  2  0
  9  5  2  0
  9  7  1  0
 10  5  1  0
 11 10  1  0
 12  8  1  0
 13  6  2  0
 13  9  1  0
 14  6  1  0
 14 10  2  0
M  END
>  <NAME>  (2825) 
4-BROMO-6-(4-FLUOROPHENYL)PYRIMIDINE

>  <SYNONYMS>  (2825) 


>  <SPECTRUM TYPE>  (2825) 
MS1

>  <INSTRUMENT TYPE>  (2825) 
EI-B

>  <INSTRUMENT>  (2825) 
MS-902

>  <ION MODE>  (2825) 
P

>  <INCHIKEY>  (2825) 
VVLXBRIIRDGDMQ-UHFFFAOYSA-N

>  <FORMULA>  (2825) 
C10H6BrFN2

>  <EXACT MASS>  (2825) 
251.969838512

>  <MW>  (2825) 
252

>  <ID>  (2825) 
JP007900

>  <CONTRIBUTOR>  (2825) 
University of Tokyo Team, {Faculty of Engineering, University of Tokyo

>  <COMMENT>  (2825) 
SMILES=Fc(c2)ccc(c2)c(n1)cc(Br)nc1
InChI=InChI=1S/C10H6BrFN2/c11-10-5-9(13-6-14-10)7-1-3-8(12)4-2-7/h1-6H
computed SMILES=FC=1C=CC(=CC1)C=2N=CN=C(Br)C2
accession=JP007900
date=2016.01.19 (Created 2008.10.21, modified 2011.05.06)
author=SASAKI S, TOYOHASHI UNIV. OF TECH.
license=CC BY-NC-SA
exact mass=251.96984
ionization energy=70 eV
ion type=[M]+*
computed spectral entropy=2.350537418738372
computed normalized entropy=0.6509528811240981
SPLASH=splash10-0002-1930000000-1885c31f8ecf2946c2bf
submitter=submitter = University of Tokyo Team (Faculty of Engineering, University of Tokyo)
MoNA Rating=3.75

>  <NUM PEAKS>  (2825) 
37

>  <MASS SPECTRAL PEAKS>  (2825) 
50 1.7
52 1.3
57 1.2
60 0.1
62 1
63 1.5
73 2.6
74 0.24
75 5.5
86.5 2.1
91 1.7
94 0.25
95 6.5
99 3.7
112.5 1.7
113.5 0.16
118 1.6
120 2.6
121 1.8
122 0.11
123 3
126 20.2
127 2.4
145 0.25
146 99.99
147 8.6
173 15.2
174 0.13
198 3.6
199 3.4
200 3.5
201 0.27
208 1.9
252 48.3
253 5.3
254 4.85
255 5.3

>  <PREDICTED SPECTRUM>  (2825) 
31 43
33 33
37 68
38 98
39 41
40 42
41 13
44 55
49 0
50 202
51 133
52 87
53 34
57 127
58 26
61 157
62 161
63 177
64 28
65 45
68 111
69 177
70 92
73 49
74 269
75 392
76 134
77 58
79 13
80 33
81 149
82 5
83 65
84 34
86 141
87 40
92 48
93 142
94 119
95 201
96 42
98 94
99 129
100 21
101 8
102 33
104 87
105 104
106 93
107 142
108 97
117 77
118 87
119 262
120 220
121 135
122 66
123 143
124 58
125 71
126 426
127 67
129 26
132 69
133 114
134 89
145 249
146 836
147 427
148 188
149 21
152 126
153 124
171 9
172 197
173 690
174 217
190 10
198 5
199 44
200 25
225 199
226 52
227 150
252 999
253 390
254 942
255 321

$$$$

     RDKit          2D

 14 15  0  0  0  0  0  0  0  0999 V2000
    2.5989    3.0002    0.0000 C   0  0  0  0  0  0  0  0  0  0  0  0
    3.8989    0.7502    0.0000 C   0  0  0  0  0  0  0  0  0  0  0  0
    3.8989    3.7502    0.0000 C   0  0  0  0  0  0  0  0  0  0  0  0
    5.1989    1.5002    0.0000 C   0  0  0  0  0  0  0  0  0  0  0  0
   -1.3000   -0.7500    0.0000 C   0  0  0  0  0  0  0  0  0  0  0  0
   -1.3000    0.7500    0.0000 C   0  0  0  0  0  0  0  0  0  0  0  0
    2.5989    1.5002    0.0000 C   0  0  0  0  0  0  0  0  0  0  0  0
    5.1989    3.0002    0.0000 C   0  0  0  0  0  0  0  0  0  0  0  0
   -0.0000   -1.5000    0.0000 C   0  0  0  0  0  0  0  0  0  0  0  0
    1.3000    0.7500    0.0000 C   0  0  0  0  0  0  0  0  0  0  0  0
   -0.0000   -3.0000    0.0000 Br  0  0  0  0  0  0  0  0  0  0  0  0
    6.4978    3.7504    0.0000 F   0  0  0  0  0  0  0  0  0  0  0  0
    0.0000    1.5000    0.0000 N   0  0  0  0  0  0  0  0  0  0  0  0
    1.3000   -0.7500    0.0000 N   0  0  0  0  0  0  0  0  0  0  0  0
  3  1  2  0
  4  2  1  0
  6  5  2  0
  7  1  1  0
  7  2  2  0
  8  3  1  0
  8  4  2  0
  9  5  1  0
 10  7  1  0
 11  9  1  0
 12  8  1  0
 13  6  1  0
 13 10  2  0
 14  9  2  0
 14 10  1  0
M  END
>  <NAME>  (2826) 
4-BROMO-2-(4-FLUOROPHENYL)PYRIMIDINE

>  <SYNONYMS>  (2826) 


>  <SPECTRUM TYPE>  (2826) 
MS1

>  <INSTRUMENT TYPE>  (2826) 
EI-B

>  <INSTRUMENT>  (2826) 
MS-902

>  <ION MODE>  (2826) 
P

>  <INCHIKEY>  (2826) 
GSYPOPGUJPCOCY-UHFFFAOYSA-N

>  <FORMULA>  (2826) 
C10H6BrFN2

>  <EXACT MASS>  (2826) 
251.969838512

>  <MW>  (2826) 
252

>  <ID>  (2826) 
JP007899

>  <CONTRIBUTOR>  (2826) 
University of Tokyo Team, {Faculty of Engineering, University of Tokyo

>  <COMMENT>  (2826) 
SMILES=Fc(c2)ccc(c2)c(n1)nc(Br)cc1
InChI=InChI=1S/C10H6BrFN2/c11-9-5-6-13-10(14-9)7-1-3-8(12)4-2-7/h1-6H
computed SMILES=FC=1C=CC(=CC1)C2=NC=CC(Br)=N2
accession=JP007899
date=2016.01.19 (Created 2008.10.21, modified 2011.05.06)
author=SASAKI S, TOYOHASHI UNIV. OF TECH.
license=CC BY-NC-SA
exact mass=251.96984
ionization energy=70 eV
ion type=[M]+*
computed spectral entropy=2.3039894600629895
computed normalized entropy=0.628893323658694
SPLASH=splash10-0fk9-2960000000-3999adc6be9ab728aa68
submitter=submitter = University of Tokyo Team (Faculty of Engineering, University of Tokyo)
MoNA Rating=3.75

>  <NUM PEAKS>  (2826) 
39

>  <MASS SPECTRAL PEAKS>  (2826) 
46 1
50 1.1
52 3.8
57 0.33
61 1.5
62 1.8
68 1.8
73 0.26
74 2.5
75 11.6
76 1.1
79 0.11
80 1.9
81 1.1
82 1.5
86 0.33
86.5 1.8
88 1
94 6.8
95 1.66
102 1.5
112.5 1
121 14
122 1.96
123 1.7
126 2.4
127 1.5
136 0.1
146 15.8
147 1.1
173 99.99
174 1.05
208 1
210 1
252 42.5
253 0.5
254 45.3
255 5.2
265 1.5

>  <PREDICTED SPECTRUM>  (2826) 
26 6
27 13
31 2
33 30
37 48
38 106
39 79
40 55
43 0
44 69
50 152
51 122
52 141
53 26
57 124
58 24
61 76
62 72
63 5
64 14
65 32
66 11
68 117
70 178
72 100
74 28
75 279
76 137
77 87
81 1
85 5
86 69
87 55
88 17
89 0
91 10
92 58
93 89
94 258
95 386
96 94
97 25
98 5
103 14
104 69
106 11
108 44
112 41
119 100
120 101
121 512
122 638
123 105
124 34
126 124
134 83
135 40
137 61
145 8
146 531
147 180
148 37
153 41
172 10
173 999
174 288
175 0
252 792
253 246
254 735
255 219

$$$$

     RDKit          2D

 19 21  0  0  0  0  0  0  0  0999 V2000
    7.7954    0.7484    0.0000 C   0  0  0  0  0  0  0  0  0  0  0  0
    6.4959    1.4992    0.0000 C   0  0  0  0  0  0  0  0  0  0  0  0
    7.7959   -0.7525    0.0000 C   0  0  0  0  0  0  0  0  0  0  0  0
   -1.2996    1.4931    0.0000 C   0  0  0  0  0  0  0  0  0  0  0  0
    5.1969    0.7492    0.0000 C   0  0  0  0  0  0  0  0  0  0  0  0
    6.4969   -1.5025    0.0000 C   0  0  0  0  0  0  0  0  0  0  0  0
   -0.0017    0.7412    0.0000 C   0  0  0  0  0  0  0  0  0  0  0  0
   -2.5952    0.7529    0.0000 C   0  0  0  0  0  0  0  0  0  0  0  0
    3.8988   -3.0025    0.0000 C   0  0  0  0  0  0  0  0  0  0  0  0
    2.5998   -3.7525    0.0000 C   0  0  0  0  0  0  0  0  0  0  0  0
   -1.3000   -1.4999    0.0000 C   0  0  0  0  0  0  0  0  0  0  0  0
    5.1974   -0.7516    0.0000 C   0  0  0  0  0  0  0  0  0  0  0  0
    0.0006   -0.7510    0.0000 C   0  0  0  0  0  0  0  0  0  0  0  0
   -2.5979   -0.7479    0.0000 C   0  0  0  0  0  0  0  0  0  0  0  0
    3.8983   -1.5016    0.0000 C   0  0  0  0  0  0  0  0  0  0  0  0
    1.2998   -1.5008    0.0000 C   0  0  0  0  0  0  0  0  0  0  0  0
   -3.8982   -1.4957    0.0000 F   0  0  0  0  0  0  0  0  0  0  0  0
    1.3002   -3.0016    0.0000 N   0  0  0  0  0  0  0  0  0  0  0  0
    2.5988   -0.7508    0.0000 N   0  0  0  0  0  0  0  0  0  0  0  0
  2  1  2  0
  3  1  1  0
  5  2  1  0
  6  3  2  0
  7  4  2  0
  8  4  1  0
 10  9  2  0
 12  5  2  0
 12  6  1  0
 13  7  1  0
 13 11  2  0
 14  8  2  0
 14 11  1  0
 15  9  1  0
 15 12  1  0
 16 13  1  0
 17 14  1  0
 18 10  1  0
 18 16  2  0
 19 15  2  0
 19 16  1  0
M  END
>  <NAME>  (2827) 
2-(3-FLUOROPHENYL)-4-PHENYLPYRIMIDINE

>  <SYNONYMS>  (2827) 


>  <SPECTRUM TYPE>  (2827) 
MS1

>  <INSTRUMENT TYPE>  (2827) 
EI-B

>  <INSTRUMENT>  (2827) 
MS-902

>  <ION MODE>  (2827) 
P

>  <INCHIKEY>  (2827) 
CZBRVZRPXXJFRX-UHFFFAOYSA-N

>  <FORMULA>  (2827) 
C16H11FN2

>  <EXACT MASS>  (2827) 
250.090626572

>  <MW>  (2827) 
250

>  <ID>  (2827) 
JP007898

>  <CONTRIBUTOR>  (2827) 
University of Tokyo Team, {Faculty of Engineering, University of Tokyo

>  <COMMENT>  (2827) 
SMILES=Fc(c3)cc(cc3)c(n2)nc(cc2)c(c1)cccc1
InChI=InChI=1S/C16H11FN2/c17-14-8-4-7-13(11-14)16-18-10-9-15(19-16)12-5-2-1-3-6-12/h1-11H
computed SMILES=FC1=CC=CC(=C1)C2=NC=CC(=N2)C=3C=CC=CC3
accession=JP007898
date=2016.01.19 (Created 2008.10.21, modified 2011.05.06)
author=SASAKI S, TOYOHASHI UNIV. OF TECH.
license=CC BY-NC-SA
exact mass=250.09063
ionization energy=70 eV
ion type=[M]+*
computed spectral entropy=2.181350620033346
computed normalized entropy=0.6413478476122213
SPLASH=splash10-0udi-1890000000-ffc271b46ef35bbabddc
submitter=submitter = University of Tokyo Team (Faculty of Engineering, University of Tokyo)
MoNA Rating=3.75

>  <NUM PEAKS>  (2827) 
30

>  <MASS SPECTRAL PEAKS>  (2827) 
50 1.7
51 2.7
52 1.5
55 0.11
57 1.1
63 1.5
74 1.5
75 0.31
76 4.3
77 3
94 3.1
95 0.19
101 2.3
102 29.9
103 9.2
115 0.19
121 22.7
122 1.7
124 1.2
125 0.7
125.5 1.3
128 3.9
129 42.5
130 0.4
147 1.3
222 1.1
249 8.4
250 99.99
251 16.3
252 1.3

>  <PREDICTED SPECTRUM>  (2827) 
38 3
39 109
40 59
41 3
43 87
44 45
50 188
51 235
52 138
53 31
57 24
61 17
62 66
63 110
64 27
65 18
68 22
69 46
70 69
74 140
75 301
76 279
77 254
78 77
83 21
84 15
85 9
86 60
87 7
88 38
89 13
90 22
91 1
93 59
94 160
95 184
96 57
98 10
99 102
100 97
101 254
102 494
103 356
104 71
120 122
121 438
122 178
123 56
126 19
127 50
128 361
129 646
130 215
146 91
147 234
148 98
155 64
221 1
222 83
223 106
224 11
248 47
249 400
250 999
251 439
252 115

$$$$

     RDKit          2D

 19 21  0  0  0  0  0  0  0  0999 V2000
    8.1204   -0.9379    0.0000 C   0  0  0  0  0  0  0  0  0  0  0  0
    6.8209   -0.1871    0.0000 C   0  0  0  0  0  0  0  0  0  0  0  0
    8.1209   -2.4387    0.0000 C   0  0  0  0  0  0  0  0  0  0  0  0
    5.5219   -0.9371    0.0000 C   0  0  0  0  0  0  0  0  0  0  0  0
    6.8219   -3.1887    0.0000 C   0  0  0  0  0  0  0  0  0  0  0  0
   -0.9734   -3.1873    0.0000 C   0  0  0  0  0  0  0  0  0  0  0  0
    0.3251   -0.9365    0.0000 C   0  0  0  0  0  0  0  0  0  0  0  0
   -2.2730   -2.4365    0.0000 C   0  0  0  0  0  0  0  0  0  0  0  0
   -0.9744   -0.1856    0.0000 C   0  0  0  0  0  0  0  0  0  0  0  0
    4.2238   -4.6887    0.0000 C   0  0  0  0  0  0  0  0  0  0  0  0
    2.9248   -5.4387    0.0000 C   0  0  0  0  0  0  0  0  0  0  0  0
    5.5224   -2.4379    0.0000 C   0  0  0  0  0  0  0  0  0  0  0  0
    0.3256   -2.4373    0.0000 C   0  0  0  0  0  0  0  0  0  0  0  0
   -2.2734   -0.9356    0.0000 C   0  0  0  0  0  0  0  0  0  0  0  0
    4.2233   -3.1879    0.0000 C   0  0  0  0  0  0  0  0  0  0  0  0
    1.6248   -3.1871    0.0000 C   0  0  0  0  0  0  0  0  0  0  0  0
   -3.5726   -0.1858    0.0000 F   0  0  0  0  0  0  0  0  0  0  0  0
    1.6252   -4.6879    0.0000 N   0  0  0  0  0  0  0  0  0  0  0  0
    2.9238   -2.4371    0.0000 N   0  0  0  0  0  0  0  0  0  0  0  0
  2  1  2  0
  3  1  1  0
  4  2  1  0
  5  3  2  0
  8  6  2  0
  9  7  1  0
 11 10  2  0
 12  4  2  0
 12  5  1  0
 13  6  1  0
 13  7  2  0
 14  8  1  0
 14  9  2  0
 15 10  1  0
 15 12  1  0
 16 13  1  0
 17 14  1  0
 18 11  1  0
 18 16  2  0
 19 15  2  0
 19 16  1  0
M  END
>  <NAME>  (2828) 
2-(4-FLUOROPHENYL)-4-PHENYLPYRIMIDINE

>  <SYNONYMS>  (2828) 


>  <SPECTRUM TYPE>  (2828) 
MS1

>  <INSTRUMENT TYPE>  (2828) 
EI-B

>  <INSTRUMENT>  (2828) 
MS-902

>  <ION MODE>  (2828) 
P

>  <INCHIKEY>  (2828) 
UZMUNUXFDXKYTM-UHFFFAOYSA-N

>  <FORMULA>  (2828) 
C16H11FN2

>  <EXACT MASS>  (2828) 
250.090626572

>  <MW>  (2828) 
250

>  <ID>  (2828) 
JP007897

>  <CONTRIBUTOR>  (2828) 
University of Tokyo Team, {Faculty of Engineering, University of Tokyo

>  <COMMENT>  (2828) 
SMILES=Fc(c3)ccc(c3)c(n2)nc(cc2)c(c1)cccc1
InChI=InChI=1S/C16H11FN2/c17-14-8-6-13(7-9-14)16-18-11-10-15(19-16)12-4-2-1-3-5-12/h1-11H
computed SMILES=FC=1C=CC(=CC1)C2=NC=CC(=N2)C=3C=CC=CC3
accession=JP007897
date=2016.01.19 (Created 2008.10.21, modified 2011.05.06)
author=SASAKI S, TOYOHASHI UNIV. OF TECH.
license=CC BY-NC-SA
exact mass=250.09063
ionization energy=70 eV
ion type=[M]+*
computed spectral entropy=2.229080124956518
computed normalized entropy=0.6431765684037839
SPLASH=splash10-0udi-1790000000-be0db5d8d82fc15bb598
submitter=submitter = University of Tokyo Team (Faculty of Engineering, University of Tokyo)
MoNA Rating=3.75

>  <NUM PEAKS>  (2828) 
32

>  <MASS SPECTRAL PEAKS>  (2828) 
50 1.4
51 2.8
52 1.6
63 0.12
74 1.3
75 3.3
76 4.5
77 0.31
94 3.9
95 4
101 1.4
102 3.01
103 8.7
115 1
121 27.5
122 0.4
123 3.3
124 1.2
125 7.2
125.5 0.12
126 4.4
129 32.2
130 2.7
139 0.21
147 1.1
173 1.7
222 1
249 0.9
250 99.99
251 16
252 1.5
269 2.7

>  <PREDICTED SPECTRUM>  (2828) 
39 31
43 42
44 7
50 147
51 208
52 97
62 26
63 60
74 114
75 261
76 187
77 197
78 12
86 19
93 33
94 63
95 134
96 12
99 44
100 32
101 254
102 458
103 278
120 128
121 376
122 147
126 19
128 297
129 625
130 174
146 135
147 228
148 68
172 23
173 16
222 15
223 85
235 13
248 54
249 409
250 999
251 396
252 78

$$$$

     RDKit          2D

 18 19  0  0  0  0  0  0  0  0999 V2000
    9.0951    1.5010    0.0000 C   0  0  0  0  0  0  0  0  0  0  0  0
   -1.3000    3.0000    0.0000 C   0  0  0  0  0  0  0  0  0  0  0  0
    7.7962    0.7508    0.0000 C   0  0  0  0  0  0  0  0  0  0  0  0
   -2.6000   -0.7500    0.0000 C   0  0  0  0  0  0  0  0  0  0  0  0
   -2.6000    0.7500    0.0000 C   0  0  0  0  0  0  0  0  0  0  0  0
   -1.3000   -1.5000    0.0000 C   0  0  0  0  0  0  0  0  0  0  0  0
    3.8989    1.5002    0.0000 C   0  0  0  0  0  0  0  0  0  0  0  0
    2.6000   -0.7500    0.0000 C   0  0  0  0  0  0  0  0  0  0  0  0
   -1.3000    1.5000    0.0000 C   0  0  0  0  0  0  0  0  0  0  0  0
    2.6000    0.7500    0.0000 C   0  0  0  0  0  0  0  0  0  0  0  0
    0.0000   -0.7500    0.0000 C   0  0  0  0  0  0  0  0  0  0  0  0
    5.1981    0.7504    0.0000 C   0  0  0  0  0  0  0  0  0  0  0  0
    1.3000    1.5000    0.0000 C   0  0  0  0  0  0  0  0  0  0  0  0
    1.3000   -1.5000    0.0000 N   0  0  0  0  0  0  0  0  0  0  0  0
    0.0000    0.7500    0.0000 N   0  0  0  0  0  0  0  0  0  0  0  0
    5.1983   -0.7496    0.0000 O   0  0  0  0  0  0  0  0  0  0  0  0
    1.3000    3.0000    0.0000 O   0  0  0  0  0  0  0  0  0  0  0  0
    6.4970    1.5006    0.0000 O   0  0  0  0  0  0  0  0  0  0  0  0
  3  1  1  0
  5  4  1  0
  6  4  1  0
  9  2  1  0
  9  5  1  0
 10  7  1  0
 10  8  2  0
 11  6  1  0
 12  7  1  0
 13 10  1  0
 14  8  1  0
 14 11  2  0
 15  9  1  0
 15 11  1  0
 15 13  1  0
 16 12  2  0
 17 13  2  0
 18  3  1  0
 18 12  1  0
M  END
>  <NAME>  (2829) 
6-METHYL-4-OXO-6,7,8,9-TETRAHYDRO-4H-PYRIDO(1,2-A)PYRIMIDINE-3-ACETIC ACID ETHYL ESTER

>  <SYNONYMS>  (2829) 


>  <SPECTRUM TYPE>  (2829) 
MS1

>  <INSTRUMENT TYPE>  (2829) 
EI-B

>  <INSTRUMENT>  (2829) 
MS-902

>  <ION MODE>  (2829) 
P

>  <INCHIKEY>  (2829) 
GVEKOTSOWVJLFX-UHFFFAOYSA-N

>  <FORMULA>  (2829) 
C13H18N2O3

>  <EXACT MASS>  (2829) 
250.13174243599997

>  <MW>  (2829) 
250

>  <ID>  (2829) 
JP007896

>  <CONTRIBUTOR>  (2829) 
University of Tokyo Team, {Faculty of Engineering, University of Tokyo

>  <COMMENT>  (2829) 
SMILES=CCOC(=O)CC(=C1)C(=O)N(C(C)2)C(CCC2)=N1
InChI=InChI=1S/C13H18N2O3/c1-3-18-12(16)7-10-8-14-11-6-4-5-9(2)15(11)13(10)17/h8-9H,3-7H2,1-2H3
computed SMILES=O=C(OCC)CC1=CN=C2N(C1=O)C(C)CCC2
accession=JP007896
date=2016.01.19 (Created 2008.10.21, modified 2011.05.06)
author=SASAKI S, TOYOHASHI UNIV. OF TECH.
license=CC BY-NC-SA
exact mass=250.13174
ionization energy=70 eV
ion type=[M]+*
computed spectral entropy=2.392638799311473
computed normalized entropy=0.7528628925236038
SPLASH=splash10-004i-3930000000-1e2d6447549c7b1ce8e7
submitter=submitter = University of Tokyo Team (Faculty of Engineering, University of Tokyo)
MoNA Rating=3.75

>  <NUM PEAKS>  (2829) 
24

>  <MASS SPECTRAL PEAKS>  (2829) 
39 10.5
41 8.6
52 4.5
54 0.5
55 27.3
82 6.8
96 3.4
123 1.36
135 9.5
149 5
150 4.5
161 0.27
163 5
175 4.5
176 35
177 99.99
178 13.6
179 1.6
196 2
204 2.82
205 17.3
249 1.4
250 42.7
251 5.9

>  <PREDICTED SPECTRUM>  (2829) 
29 124
39 199
40 38
41 291
42 181
43 139
51 55
52 102
53 211
54 225
55 465
56 133
57 117
64 38
65 52
66 73
67 165
68 132
69 152
70 92
71 33
77 18
80 70
81 138
82 258
83 107
84 36
92 5
94 39
95 157
96 221
97 39
107 2
108 7
109 107
110 7
111 4
120 31
121 64
122 74
123 215
133 47
134 5
135 194
136 58
137 25
147 23
148 46
149 166
150 155
163 294
164 118
165 36
175 115
176 536
177 999
178 433
179 76
204 721
205 497
206 99
221 72
222 24
249 21
250 690
251 258
252 83

$$$$

     RDKit          2D

 18 19  0  0  0  0  0  0  0  0999 V2000
    9.0951   -1.5010    0.0000 C   0  0  0  0  0  0  0  0  0  0  0  0
   -3.8989   -1.5002    0.0000 C   0  0  0  0  0  0  0  0  0  0  0  0
    7.7962   -0.7508    0.0000 C   0  0  0  0  0  0  0  0  0  0  0  0
   -2.6000    0.7500    0.0000 C   0  0  0  0  0  0  0  0  0  0  0  0
   -1.3000    1.5000    0.0000 C   0  0  0  0  0  0  0  0  0  0  0  0
    3.8989   -1.5002    0.0000 C   0  0  0  0  0  0  0  0  0  0  0  0
    2.6000    0.7500    0.0000 C   0  0  0  0  0  0  0  0  0  0  0  0
   -1.3000   -1.5000    0.0000 C   0  0  0  0  0  0  0  0  0  0  0  0
   -2.6000   -0.7500    0.0000 C   0  0  0  0  0  0  0  0  0  0  0  0
    2.6000   -0.7500    0.0000 C   0  0  0  0  0  0  0  0  0  0  0  0
    0.0000    0.7500    0.0000 C   0  0  0  0  0  0  0  0  0  0  0  0
    5.1981   -0.7504    0.0000 C   0  0  0  0  0  0  0  0  0  0  0  0
    1.3000   -1.5000    0.0000 C   0  0  0  0  0  0  0  0  0  0  0  0
    1.3000    1.5000    0.0000 N   0  0  0  0  0  0  0  0  0  0  0  0
    0.0000   -0.7500    0.0000 N   0  0  0  0  0  0  0  0  0  0  0  0
    5.1983    0.7496    0.0000 O   0  0  0  0  0  0  0  0  0  0  0  0
    1.3000   -3.0000    0.0000 O   0  0  0  0  0  0  0  0  0  0  0  0
    6.4970   -1.5006    0.0000 O   0  0  0  0  0  0  0  0  0  0  0  0
  3  1  1  0
  5  4  1  0
  9  2  1  0
  9  4  1  0
  9  8  1  0
 10  6  1  0
 10  7  2  0
 11  5  1  0
 12  6  1  0
 13 10  1  0
 14  7  1  0
 14 11  2  0
 15  8  1  0
 15 11  1  0
 15 13  1  0
 16 12  2  0
 17 13  2  0
 18  3  1  0
 18 12  1  0
M  END
>  <NAME>  (2830) 
7-METHYL-4-OXO-6,7,8,9-TETRAHYDRO-4H-PYRIDO(1,2-A)PYRIMIDINE-3-ACETIC ACID ETHYL ESTER

>  <SYNONYMS>  (2830) 


>  <SPECTRUM TYPE>  (2830) 
MS1

>  <INSTRUMENT TYPE>  (2830) 
EI-B

>  <INSTRUMENT>  (2830) 
MS-902

>  <ION MODE>  (2830) 
P

>  <INCHIKEY>  (2830) 
DQDHORMHBVVMMG-UHFFFAOYSA-N

>  <FORMULA>  (2830) 
C13H18N2O3

>  <EXACT MASS>  (2830) 
250.131742436

>  <MW>  (2830) 
250

>  <ID>  (2830) 
JP007895

>  <CONTRIBUTOR>  (2830) 
University of Tokyo Team, {Faculty of Engineering, University of Tokyo

>  <COMMENT>  (2830) 
SMILES=CCOC(=O)CC(=C1)C(=O)N(C2)C(CCC(C)2)=N1
InChI=InChI=1S/C13H18N2O3/c1-3-18-12(16)6-10-7-14-11-5-4-9(2)8-15(11)13(10)17/h7,9H,3-6,8H2,1-2H3
computed SMILES=O=C(OCC)CC1=CN=C2N(C1=O)CC(C)CC2
accession=JP007895
date=2016.01.19 (Created 2008.10.21, modified 2011.05.06)
author=SASAKI S, TOYOHASHI UNIV. OF TECH.
license=CC BY-NC-SA
exact mass=250.13174
ionization energy=70 eV
ion type=[M]+*
computed spectral entropy=2.1533012786957437
computed normalized entropy=0.6775534316421544
SPLASH=splash10-004i-3920000000-b570e3dadd1a4f3d2411
submitter=submitter = University of Tokyo Team (Faculty of Engineering, University of Tokyo)
MoNA Rating=3.75

>  <NUM PEAKS>  (2830) 
24

>  <MASS SPECTRAL PEAKS>  (2830) 
39 10.8
41 8.5
42 3.3
53 0.39
54 5.2
55 9.5
67 2.3
68 0.23
69 3.6
80 2.6
82 3
96 0.39
133 2
135 11.1
161 2.6
162 0.46
163 3.6
176 3.3
177 99.99
178 2.13
204 9.8
205 6.9
250 19.7
251 2.3

>  <PREDICTED SPECTRUM>  (2830) 
27 51
28 10
29 132
39 147
40 34
41 208
42 136
43 174
44 11
51 23
52 35
53 118
54 77
55 246
57 10
64 11
65 27
66 44
67 151
68 108
69 106
70 19
77 22
79 43
80 78
81 88
82 189
83 34
85 30
90 27
94 12
95 98
96 113
107 15
108 0
121 28
122 38
123 7
133 12
135 242
136 56
137 51
149 57
159 41
160 28
161 86
162 108
163 159
164 2
165 11
175 22
176 59
177 999
178 365
179 68
204 288
205 271
206 51
207 10
235 52
250 478
251 189
252 80

$$$$

     RDKit          2D

 18 19  0  0  0  0  0  0  0  0999 V2000
    9.0951   -1.5010    0.0000 C   0  0  0  0  0  0  0  0  0  0  0  0
    7.7962   -0.7508    0.0000 C   0  0  0  0  0  0  0  0  0  0  0  0
   -2.6000    0.7500    0.0000 C   0  0  0  0  0  0  0  0  0  0  0  0
   -1.3000    1.5000    0.0000 C   0  0  0  0  0  0  0  0  0  0  0  0
   -2.6000   -0.7500    0.0000 C   0  0  0  0  0  0  0  0  0  0  0  0
    3.8989   -1.5002    0.0000 C   0  0  0  0  0  0  0  0  0  0  0  0
    2.6000    0.7500    0.0000 C   0  0  0  0  0  0  0  0  0  0  0  0
    2.6000   -0.7500    0.0000 C   0  0  0  0  0  0  0  0  0  0  0  0
    0.0000    0.7500    0.0000 C   0  0  0  0  0  0  0  0  0  0  0  0
   -1.3000   -1.5000    0.0000 C   0  0  0  0  0  0  0  0  0  0  0  0
    5.1981   -0.7504    0.0000 C   0  0  0  0  0  0  0  0  0  0  0  0
    1.3000   -1.5000    0.0000 C   0  0  0  0  0  0  0  0  0  0  0  0
    1.3000    1.5000    0.0000 N   0  0  0  0  0  0  0  0  0  0  0  0
    0.0000   -0.7500    0.0000 N   0  0  0  0  0  0  0  0  0  0  0  0
   -1.3000   -3.0000    0.0000 O   0  0  0  0  0  0  0  0  0  0  0  0
    5.1983    0.7496    0.0000 O   0  0  0  0  0  0  0  0  0  0  0  0
    1.3000   -3.0000    0.0000 O   0  0  0  0  0  0  0  0  0  0  0  0
    6.4970   -1.5006    0.0000 O   0  0  0  0  0  0  0  0  0  0  0  0
  2  1  1  0
  4  3  2  0
  5  3  1  0
  8  6  1  0
  8  7  2  0
  9  4  1  0
 10  5  2  0
 11  6  1  0
 12  8  1  0
 13  7  1  0
 13  9  2  0
 14  9  1  0
 14 10  1  0
 14 12  1  0
 15 10  1  0
 16 11  2  0
 17 12  2  0
 18  2  1  0
 18 11  1  0
M  END
>  <NAME>  (2831) 
6-HYDROXY-4-OXO-4H-PYRIDO(1,2-A)PYRIMIDINE-3-ACETIC ACID ETHYL ESTER

>  <SYNONYMS>  (2831) 


>  <SPECTRUM TYPE>  (2831) 
MS1

>  <INSTRUMENT TYPE>  (2831) 
EI-B

>  <INSTRUMENT>  (2831) 
MS-902

>  <ION MODE>  (2831) 
P

>  <INCHIKEY>  (2831) 
JXXBRIKWBBNBTE-UHFFFAOYSA-N

>  <FORMULA>  (2831) 
C12H12N2O4

>  <EXACT MASS>  (2831) 
248.079706864

>  <MW>  (2831) 
248

>  <ID>  (2831) 
JP007893

>  <CONTRIBUTOR>  (2831) 
University of Tokyo Team, {Faculty of Engineering, University of Tokyo

>  <COMMENT>  (2831) 
SMILES=CCOC(=O)CC(=C1)C(=O)N(C(O)=2)C(C=CC2)=N1
InChI=InChI=1S/C12H12N2O4/c1-2-18-11(16)6-8-7-13-9-4-3-5-10(15)14(9)12(8)17/h3-5,7,15H,2,6H2,1H3
computed SMILES=O=C(OCC)CC1=CN=C2C=CC=C(O)N2C1=O
accession=JP007893
date=2016.01.19 (Created 2008.10.21, modified 2011.05.06)
author=SASAKI S, TOYOHASHI UNIV. OF TECH.
license=CC BY-NC-SA
exact mass=248.07971
ionization energy=70 eV
ion type=[M]+*
computed spectral entropy=2.6183814719474983
computed normalized entropy=0.7488562303721475
SPLASH=splash10-0f92-5890000000-d150639827335f4069eb
submitter=submitter = University of Tokyo Team (Faculty of Engineering, University of Tokyo)
MoNA Rating=3.75

>  <NUM PEAKS>  (2831) 
33

>  <MASS SPECTRAL PEAKS>  (2831) 
38 4
39 24
41 2
42 0.2
43 2
44 4
52 2
53 0.2
54 3
55 18
64 2
65 0.8
66 12
82 7
92 5
93 0.4
94 18
95 2
118 7
119 0.6
120 2
121 10
146 16
147 1.2
148 6
174 58
175 70
176 0.8
202 48
203 21
204 1
248 99.99
249 13

>  <PREDICTED SPECTRUM>  (2831) 
27 29
28 2
29 144
37 18
38 124
39 272
40 126
41 134
42 251
43 192
44 64
45 33
50 67
51 216
52 255
53 286
54 230
55 228
57 3
62 53
63 193
64 282
65 336
66 204
67 132
68 67
69 13
75 17
76 22
77 3
78 54
79 36
80 49
82 129
83 8
89 35
90 157
91 207
92 393
93 303
94 284
95 134
96 42
118 237
119 345
120 201
121 323
122 112
145 127
146 512
147 472
148 258
162 17
174 904
175 918
176 341
177 56
202 804
203 476
204 79
220 5
248 999
249 402
250 118

$$$$

     RDKit          2D

 18 19  0  0  0  0  0  0  0  0999 V2000
    9.0951    1.5010    0.0000 C   0  0  0  0  0  0  0  0  0  0  0  0
    7.7962    0.7508    0.0000 C   0  0  0  0  0  0  0  0  0  0  0  0
   -2.6000    0.7500    0.0000 C   0  0  0  0  0  0  0  0  0  0  0  0
   -2.6000   -0.7500    0.0000 C   0  0  0  0  0  0  0  0  0  0  0  0
   -1.3000    1.5000    0.0000 C   0  0  0  0  0  0  0  0  0  0  0  0
    3.8989    1.5002    0.0000 C   0  0  0  0  0  0  0  0  0  0  0  0
    2.6000   -0.7500    0.0000 C   0  0  0  0  0  0  0  0  0  0  0  0
    2.6000    0.7500    0.0000 C   0  0  0  0  0  0  0  0  0  0  0  0
   -1.3000   -1.5000    0.0000 C   0  0  0  0  0  0  0  0  0  0  0  0
    5.1981    0.7504    0.0000 C   0  0  0  0  0  0  0  0  0  0  0  0
    0.0000   -0.7500    0.0000 C   0  0  0  0  0  0  0  0  0  0  0  0
    1.3000    1.5000    0.0000 C   0  0  0  0  0  0  0  0  0  0  0  0
    1.3000   -1.5000    0.0000 N   0  0  0  0  0  0  0  0  0  0  0  0
    0.0000    0.7500    0.0000 N   0  0  0  0  0  0  0  0  0  0  0  0
   -1.3000   -3.0000    0.0000 O   0  0  0  0  0  0  0  0  0  0  0  0
    5.1983   -0.7496    0.0000 O   0  0  0  0  0  0  0  0  0  0  0  0
    1.3000    3.0000    0.0000 O   0  0  0  0  0  0  0  0  0  0  0  0
    6.4970    1.5006    0.0000 O   0  0  0  0  0  0  0  0  0  0  0  0
  2  1  1  0
  4  3  1  0
  5  3  2  0
  8  6  1  0
  8  7  2  0
  9  4  2  0
 10  6  1  0
 11  9  1  0
 12  8  1  0
 13  7  1  0
 13 11  2  0
 14  5  1  0
 14 11  1  0
 14 12  1  0
 15  9  1  0
 16 10  2  0
 17 12  2  0
 18  2  1  0
 18 10  1  0
M  END
>  <NAME>  (2832) 
9-HYDROXY-4-OXO-4H-PYRIDO(1,2-A)PYRIMIDINE-3-ACETIC ACID ETHYL ESTER

>  <SYNONYMS>  (2832) 


>  <SPECTRUM TYPE>  (2832) 
MS1

>  <INSTRUMENT TYPE>  (2832) 
EI-B

>  <INSTRUMENT>  (2832) 
MS-902

>  <ION MODE>  (2832) 
P

>  <INCHIKEY>  (2832) 
MONGEZKNMGDLAX-UHFFFAOYSA-N

>  <FORMULA>  (2832) 
C12H12N2O4

>  <EXACT MASS>  (2832) 
248.079706864

>  <MW>  (2832) 
248

>  <ID>  (2832) 
JP007892

>  <CONTRIBUTOR>  (2832) 
University of Tokyo Team, {Faculty of Engineering, University of Tokyo

>  <COMMENT>  (2832) 
SMILES=CCOC(=O)CC(=C2)C(=O)N(C=1)C(=N2)C(O)=CC1
InChI=InChI=1S/C12H12N2O4/c1-2-18-10(16)6-8-7-13-11-9(15)4-3-5-14(11)12(8)17/h3-5,7,15H,2,6H2,1H3
computed SMILES=O=C(OCC)CC1=CN=C2C(O)=CC=CN2C1=O
accession=JP007892
date=2016.01.19 (Created 2008.10.21, modified 2011.05.06)
author=SASAKI S, TOYOHASHI UNIV. OF TECH.
license=CC BY-NC-SA
exact mass=248.07971
ionization energy=70 eV
ion type=[M]+*
computed spectral entropy=1.7918299499046522
computed normalized entropy=0.6199306179246936
SPLASH=splash10-004i-1920000000-121c5db7ef422b863103
submitter=submitter = University of Tokyo Team (Faculty of Engineering, University of Tokyo)
MoNA Rating=3.75

>  <NUM PEAKS>  (2832) 
18

>  <MASS SPECTRAL PEAKS>  (2832) 
39 7.8
53 1.9
55 5.8
65 0.17
66 3.9
67 2.2
87.5 2.1
94 1.25
95 2.2
121 7.5
147 7.8
175 99.99
176 11.4
177 1
191 2.4
203 0.42
248 37.5
249 5

>  <PREDICTED SPECTRUM>  (2832) 
29 18
39 134
40 6
41 46
42 103
43 133
44 15
51 94
52 130
53 158
54 61
55 155
63 0
64 77
65 198
66 124
67 121
69 15
77 17
78 9
91 46
92 222
93 118
94 228
95 153
96 54
119 11
121 188
123 11
146 11
147 289
148 61
175 999
176 314
177 81
202 198
203 173
248 574
249 218
250 58

$$$$

     RDKit          2D

 19 21  0  0  0  0  0  0  0  0999 V2000
   -7.1451   -1.8747    0.0000 C   0  0  0  0  0  0  0  0  0  0  0  0
    3.2480   -1.8745    0.0000 C   0  0  0  0  0  0  0  0  0  0  0  0
   -5.8457   -2.6258    0.0000 C   0  0  0  0  0  0  0  0  0  0  0  0
   -7.1453   -0.3739    0.0000 C   0  0  0  0  0  0  0  0  0  0  0  0
    3.2485   -0.3737    0.0000 C   0  0  0  0  0  0  0  0  0  0  0  0
    1.9485   -2.6254    0.0000 C   0  0  0  0  0  0  0  0  0  0  0  0
   -4.5465   -1.8760    0.0000 C   0  0  0  0  0  0  0  0  0  0  0  0
   -5.8462    0.3759    0.0000 C   0  0  0  0  0  0  0  0  0  0  0  0
    1.9495    0.3763    0.0000 C   0  0  0  0  0  0  0  0  0  0  0  0
    0.6495   -1.8754    0.0000 C   0  0  0  0  0  0  0  0  0  0  0  0
   -1.9476    2.6263    0.0000 C   0  0  0  0  0  0  0  0  0  0  0  0
   -4.5468   -0.3752    0.0000 C   0  0  0  0  0  0  0  0  0  0  0  0
    0.6500   -0.3745    0.0000 C   0  0  0  0  0  0  0  0  0  0  0  0
   -1.9486   -0.3754    0.0000 C   0  0  0  0  0  0  0  0  0  0  0  0
   -3.2476    0.3746    0.0000 C   0  0  0  0  0  0  0  0  0  0  0  0
   -0.6491    0.3755    0.0000 C   0  0  0  0  0  0  0  0  0  0  0  0
   -1.9483   -1.8754    0.0000 N   0  0  0  0  0  0  0  0  0  0  0  0
   -3.2471    1.8755    0.0000 N   0  0  0  0  0  0  0  0  0  0  0  0
   -0.6486    1.8763    0.0000 N   0  0  0  0  0  0  0  0  0  0  0  0
  3  1  2  0
  4  1  1  0
  5  2  2  0
  6  2  1  0
  7  3  1  0
  8  4  2  0
  9  5  1  0
 10  6  2  0
 12  7  2  0
 12  8  1  0
 13  9  2  0
 13 10  1  0
 15 12  1  0
 15 14  2  0
 16 13  1  0
 16 14  1  0
 17 14  1  0
 18 11  2  0
 18 15  1  0
 19 11  1  0
 19 16  2  0
M  END
>  <NAME>  (2833) 
5-AMINO-4,6-DIPHENYLPYRIMIDINE

>  <SYNONYMS>  (2833) 


>  <SPECTRUM TYPE>  (2833) 
MS1

>  <INSTRUMENT TYPE>  (2833) 
EI-B

>  <INSTRUMENT>  (2833) 
MS-902

>  <ION MODE>  (2833) 
P

>  <INCHIKEY>  (2833) 
UVAWOHSHUUQNHC-UHFFFAOYSA-N

>  <FORMULA>  (2833) 
C16H13N3

>  <EXACT MASS>  (2833) 
247.110947416

>  <MW>  (2833) 
247

>  <ID>  (2833) 
JP007891

>  <CONTRIBUTOR>  (2833) 
University of Tokyo Team, {Faculty of Engineering, University of Tokyo

>  <COMMENT>  (2833) 
SMILES=c(c3)ccc(c3)c(n2)c(N)c(nc2)c(c1)cccc1
InChI=InChI=1S/C16H13N3/c17-14-15(12-7-3-1-4-8-12)18-11-19-16(14)13-9-5-2-6-10-13/h1-11H,17H2
computed SMILES=N=1C=NC(C=2C=CC=CC2)=C(N)C1C=3C=CC=CC3
accession=JP007891
date=2016.01.19 (Created 2008.10.21, modified 2011.05.06)
author=SASAKI S, TOYOHASHI UNIV. OF TECH.
license=CC BY-NC-SA
exact mass=247.11095
ionization energy=70 eV
ion type=[M]+*
computed spectral entropy=2.407361274233951
computed normalized entropy=0.6218641882585596
SPLASH=splash10-0002-2190000000-fe0064ae02154f2a84b6
submitter=submitter = University of Tokyo Team (Faculty of Engineering, University of Tokyo)
MoNA Rating=3.75

>  <NUM PEAKS>  (2833) 
48

>  <MASS SPECTRAL PEAKS>  (2833) 
44 6.1
45 1.7
46 1.4
48 0.3
55 5.2
57 4.4
60 2.8
62 0.13
63 3.8
64 1
70 2.1
76 0.17
77 3.4
82 1.2
84 1.1
87 0.39
88 1.3
89 13.3
90 5.7
95 0.11
103 1.6
104 4.9
110 2
114 0.16
115 1.6
116 6.1
117 1.7
118 0.11
120 1.1
123 2.2
124 1.1
129 0.11
141 1.2
142 1.3
143 1.6
149 1.44
150 1.6
165 2.4
168 5.5
170 0.13
218 1.1
219 3.5
244 1.7
245 0.14
246 99.99
247 72
248 13.2
249 1.1

>  <PREDICTED SPECTRUM>  (2833) 
27 16
28 13
38 23
39 102
40 40
41 62
42 46
43 77
44 62
45 27
46 3
49 26
50 105
51 206
52 137
53 78
54 13
56 0
57 31
61 21
62 79
63 158
64 76
65 120
66 78
67 62
68 20
69 60
70 10
71 54
74 70
75 110
76 157
77 253
78 113
79 65
80 39
81 50
82 49
83 51
84 44
85 49
86 41
87 81
88 117
89 188
90 125
91 172
92 52
93 72
94 43
95 28
96 7
97 42
98 55
99 45
100 51
101 61
102 138
103 148
104 170
105 20
106 2
107 6
108 10
109 13
110 34
111 21
112 4
113 76
114 76
115 171
116 157
117 144
118 104
119 27
120 6
122 71
123 8
125 0
126 60
127 85
128 51
129 54
130 31
131 1
136 23
137 51
138 45
139 80
140 95
141 100
142 83
143 181
144 161
145 11
149 13
150 35
151 69
152 65
153 41
155 19
163 58
164 67
165 119
166 83
167 76
168 133
169 105
170 157
171 22
176 57
177 95
178 85
179 68
180 0
181 2
189 50
190 92
191 102
192 131
193 81
194 18
202 51
203 46
204 83
205 56
215 3
217 63
218 59
219 162
220 128
221 48
222 7
229 48
230 71
231 107
232 26
233 5
244 135
245 130
246 999
247 872
248 381
249 94

$$$$

     RDKit          2D

 18 19  0  0  0  0  0  0  0  0999 V2000
    7.7962    0.7508    0.0000 C   0  0  0  0  0  0  0  0  0  0  0  0
   -3.8989   -1.5002    0.0000 C   0  0  0  0  0  0  0  0  0  0  0  0
   -1.3000    3.0000    0.0000 C   0  0  0  0  0  0  0  0  0  0  0  0
    6.4970    1.5006    0.0000 C   0  0  0  0  0  0  0  0  0  0  0  0
   -2.6000    0.7500    0.0000 C   0  0  0  0  0  0  0  0  0  0  0  0
   -1.3000   -1.5000    0.0000 C   0  0  0  0  0  0  0  0  0  0  0  0
    2.6000   -0.7500    0.0000 C   0  0  0  0  0  0  0  0  0  0  0  0
   -2.6000   -0.7500    0.0000 C   0  0  0  0  0  0  0  0  0  0  0  0
   -1.3000    1.5000    0.0000 C   0  0  0  0  0  0  0  0  0  0  0  0
    2.6000    0.7500    0.0000 C   0  0  0  0  0  0  0  0  0  0  0  0
    0.0000   -0.7500    0.0000 C   0  0  0  0  0  0  0  0  0  0  0  0
    1.3000    1.5000    0.0000 C   0  0  0  0  0  0  0  0  0  0  0  0
    3.8989    1.5002    0.0000 C   0  0  0  0  0  0  0  0  0  0  0  0
    1.3000   -1.5000    0.0000 N   0  0  0  0  0  0  0  0  0  0  0  0
    0.0000    0.7500    0.0000 N   0  0  0  0  0  0  0  0  0  0  0  0
    1.3000    3.0000    0.0000 O   0  0  0  0  0  0  0  0  0  0  0  0
    3.8987    3.0002    0.0000 O   0  0  0  0  0  0  0  0  0  0  0  0
    5.1981    0.7504    0.0000 O   0  0  0  0  0  0  0  0  0  0  0  0
  4  1  1  0
  8  2  1  0
  8  5  1  0
  8  6  2  0
  9  3  1  0
  9  5  2  0
 10  7  2  0
 11  6  1  0
 12 10  1  0
 13 10  1  0
 14  7  1  0
 14 11  2  0
 15  9  1  0
 15 11  1  0
 15 12  1  0
 16 12  2  0
 17 13  2  0
 18  4  1  0
 18 13  1  0
M  END
>  <NAME>  (2834) 
6,8-DIMETHYL-4-OXO-4H-PYRIDO(1,2-A)PYRIMIDINE-3-CARBOXYLIC ACID ETHYL ESTER

>  <SYNONYMS>  (2834) 


>  <SPECTRUM TYPE>  (2834) 
MS1

>  <INSTRUMENT TYPE>  (2834) 
EI-B

>  <INSTRUMENT>  (2834) 
MS-902

>  <ION MODE>  (2834) 
P

>  <INCHIKEY>  (2834) 
YJTMOGMHROYTOO-UHFFFAOYSA-N

>  <FORMULA>  (2834) 
C13H14N2O3

>  <EXACT MASS>  (2834) 
246.10044230799997

>  <MW>  (2834) 
246

>  <ID>  (2834) 
JP007890

>  <CONTRIBUTOR>  (2834) 
University of Tokyo Team, {Faculty of Engineering, University of Tokyo

>  <COMMENT>  (2834) 
SMILES=CCOC(=O)C(=C1)C(=O)N(C(C)=2)C(C=C(C)C2)=N1
InChI=InChI=1S/C13H14N2O3/c1-4-18-13(17)10-7-14-11-6-8(2)5-9(3)15(11)12(10)16/h5-7H,4H2,1-3H3
computed SMILES=O=C(OCC)C1=CN=C2C=C(C=C(N2C1=O)C)C
accession=JP007890
date=2016.01.19 (Created 2008.10.21, modified 2011.05.06)
author=SASAKI S, TOYOHASHI UNIV. OF TECH.
license=CC BY-NC-SA
exact mass=246.10044
ionization energy=70 eV
ion type=[M]+*
computed spectral entropy=2.5392697199928316
computed normalized entropy=0.6980644879580892
SPLASH=splash10-0fk9-2940000000-4331aa489b678e1a9765
submitter=submitter = University of Tokyo Team (Faculty of Engineering, University of Tokyo)
MoNA Rating=3.75

>  <NUM PEAKS>  (2834) 
38

>  <MASS SPECTRAL PEAKS>  (2834) 
39 3.5
41 1.9
51 1.9
52 0.16
53 4.1
65 2.7
66 1.9
69 0.11
77 9.5
78 3.2
79 10.8
80 0.14
86.5 1.1
91 1.9
93 7.8
100.5 0.14
104 2.7
105 3
106 31.1
107 0.7
117 1.1
133 4.6
143 1.4
144 0.32
145 3.5
146 16.2
147 1.9
157 0.11
161 1.1
172 99.99
173 16.2
174 0.27
200 44.6
201 16.2
202 1.9
217 0.11
246 24.3
247 3.2

>  <PREDICTED SPECTRUM>  (2834) 
26 1
27 13
29 26
39 95
40 20
41 6
42 2
43 25
50 18
51 123
52 119
53 213
54 98
63 65
64 102
65 166
66 144
67 91
68 52
74 2
75 33
76 42
77 268
78 182
79 139
80 47
89 42
90 35
91 33
92 89
93 102
94 24
102 36
103 94
104 167
105 163
106 174
107 108
116 147
117 164
118 206
119 48
132 4
133 74
134 7
143 60
144 343
145 253
146 256
147 11
161 26
162 2
172 999
173 406
174 174
175 32
185 32
190 57
200 600
201 420
202 92
218 76
219 3
246 434
247 140
248 0

$$$$

     RDKit          2D

 18 19  0  0  0  0  0  0  0  0999 V2000
    9.0951    1.5010    0.0000 C   0  0  0  0  0  0  0  0  0  0  0  0
   -1.3000    3.0000    0.0000 C   0  0  0  0  0  0  0  0  0  0  0  0
    7.7962    0.7508    0.0000 C   0  0  0  0  0  0  0  0  0  0  0  0
   -2.6000   -0.7500    0.0000 C   0  0  0  0  0  0  0  0  0  0  0  0
   -2.6000    0.7500    0.0000 C   0  0  0  0  0  0  0  0  0  0  0  0
   -1.3000   -1.5000    0.0000 C   0  0  0  0  0  0  0  0  0  0  0  0
    3.8989    1.5002    0.0000 C   0  0  0  0  0  0  0  0  0  0  0  0
    2.6000   -0.7500    0.0000 C   0  0  0  0  0  0  0  0  0  0  0  0
   -1.3000    1.5000    0.0000 C   0  0  0  0  0  0  0  0  0  0  0  0
    2.6000    0.7500    0.0000 C   0  0  0  0  0  0  0  0  0  0  0  0
    0.0000   -0.7500    0.0000 C   0  0  0  0  0  0  0  0  0  0  0  0
    5.1981    0.7504    0.0000 C   0  0  0  0  0  0  0  0  0  0  0  0
    1.3000    1.5000    0.0000 C   0  0  0  0  0  0  0  0  0  0  0  0
    1.3000   -1.5000    0.0000 N   0  0  0  0  0  0  0  0  0  0  0  0
    0.0000    0.7500    0.0000 N   0  0  0  0  0  0  0  0  0  0  0  0
    5.1983   -0.7496    0.0000 O   0  0  0  0  0  0  0  0  0  0  0  0
    1.3000    3.0000    0.0000 O   0  0  0  0  0  0  0  0  0  0  0  0
    6.4970    1.5006    0.0000 O   0  0  0  0  0  0  0  0  0  0  0  0
  3  1  1  0
  5  4  1  0
  6  4  2  0
  9  2  1  0
  9  5  2  0
 10  7  1  0
 10  8  2  0
 11  6  1  0
 12  7  1  0
 13 10  1  0
 14  8  1  0
 14 11  2  0
 15  9  1  0
 15 11  1  0
 15 13  1  0
 16 12  2  0
 17 13  2  0
 18  3  1  0
 18 12  1  0
M  END
>  <NAME>  (2835) 
6-METHYL-4-OXO-4H-PYRIDO(1,2-A)PYRIMIDINE-3-ACETIC ACID ETHYL ESTER

>  <SYNONYMS>  (2835) 


>  <SPECTRUM TYPE>  (2835) 
MS1

>  <INSTRUMENT TYPE>  (2835) 
EI-B

>  <INSTRUMENT>  (2835) 
MS-902

>  <ION MODE>  (2835) 
P

>  <INCHIKEY>  (2835) 
FHSCYCCXMSMREH-UHFFFAOYSA-N

>  <FORMULA>  (2835) 
C13H14N2O3

>  <EXACT MASS>  (2835) 
246.10044230799997

>  <MW>  (2835) 
246

>  <ID>  (2835) 
JP007889

>  <CONTRIBUTOR>  (2835) 
University of Tokyo Team, {Faculty of Engineering, University of Tokyo

>  <COMMENT>  (2835) 
SMILES=CCOC(=O)CC(=C1)C(=O)N(C(C)=2)C(C=CC2)=N1
InChI=InChI=1S/C13H14N2O3/c1-3-18-12(16)7-10-8-14-11-6-4-5-9(2)15(11)13(10)17/h4-6,8H,3,7H2,1-2H3
computed SMILES=O=C(OCC)CC1=CN=C2C=CC=C(N2C1=O)C
accession=JP007889
date=2016.01.19 (Created 2008.10.21, modified 2011.05.06)
author=SASAKI S, TOYOHASHI UNIV. OF TECH.
license=CC BY-NC-SA
exact mass=246.10044
ionization energy=70 eV
ion type=[M]+*
computed spectral entropy=2.3049715774330233
computed normalized entropy=0.6993585153464922
SPLASH=splash10-00di-2930000000-545911b9f4be27e1fb1e
submitter=submitter = University of Tokyo Team (Faculty of Engineering, University of Tokyo)
MoNA Rating=3.75

>  <NUM PEAKS>  (2835) 
27

>  <MASS SPECTRAL PEAKS>  (2835) 
39 5.4
55 6.2
65 10
66 0.24
72.5 2.7
86.5 2.7
91 2.7
92 2.97
93 5.4
117 1.4
119 4.9
143 0.41
144 1.6
145 18.5
146 2.4
159 0.27
172 25
173 99.99
174 11.6
175 0.11
189 1.1
200 10.8
201 8.7
202 0.12
217 1.1
246 31.2
247 4.8

>  <PREDICTED SPECTRUM>  (2835) 
29 65
38 36
39 224
40 52
41 102
42 3
43 82
51 87
52 89
53 94
54 40
55 139
63 62
64 173
65 385
66 183
67 37
80 7
81 16
90 76
91 197
92 650
93 231
116 12
117 59
118 50
119 186
131 13
143 49
144 188
145 324
146 213
156 0
159 109
160 14
171 32
172 314
173 999
174 381
175 51
200 453
201 338
202 49
217 6
246 589
247 217
248 43

$$$$

     RDKit          2D

 18 19  0  0  0  0  0  0  0  0999 V2000
    9.0951   -1.5010    0.0000 C   0  0  0  0  0  0  0  0  0  0  0  0
   -3.8989   -1.5002    0.0000 C   0  0  0  0  0  0  0  0  0  0  0  0
    7.7962   -0.7508    0.0000 C   0  0  0  0  0  0  0  0  0  0  0  0
   -2.6000    0.7500    0.0000 C   0  0  0  0  0  0  0  0  0  0  0  0
   -1.3000    1.5000    0.0000 C   0  0  0  0  0  0  0  0  0  0  0  0
    3.8989   -1.5002    0.0000 C   0  0  0  0  0  0  0  0  0  0  0  0
    2.6000    0.7500    0.0000 C   0  0  0  0  0  0  0  0  0  0  0  0
   -1.3000   -1.5000    0.0000 C   0  0  0  0  0  0  0  0  0  0  0  0
   -2.6000   -0.7500    0.0000 C   0  0  0  0  0  0  0  0  0  0  0  0
    2.6000   -0.7500    0.0000 C   0  0  0  0  0  0  0  0  0  0  0  0
    0.0000    0.7500    0.0000 C   0  0  0  0  0  0  0  0  0  0  0  0
    5.1981   -0.7504    0.0000 C   0  0  0  0  0  0  0  0  0  0  0  0
    1.3000   -1.5000    0.0000 C   0  0  0  0  0  0  0  0  0  0  0  0
    1.3000    1.5000    0.0000 N   0  0  0  0  0  0  0  0  0  0  0  0
    0.0000   -0.7500    0.0000 N   0  0  0  0  0  0  0  0  0  0  0  0
    5.1983    0.7496    0.0000 O   0  0  0  0  0  0  0  0  0  0  0  0
    1.3000   -3.0000    0.0000 O   0  0  0  0  0  0  0  0  0  0  0  0
    6.4970   -1.5006    0.0000 O   0  0  0  0  0  0  0  0  0  0  0  0
  3  1  1  0
  5  4  2  0
  9  2  1  0
  9  4  1  0
  9  8  2  0
 10  6  1  0
 10  7  2  0
 11  5  1  0
 12  6  1  0
 13 10  1  0
 14  7  1  0
 14 11  2  0
 15  8  1  0
 15 11  1  0
 15 13  1  0
 16 12  2  0
 17 13  2  0
 18  3  1  0
 18 12  1  0
M  END
>  <NAME>  (2836) 
7-METHYL-4-OXO-4H-PYRIDO(1,2-A)PYRIMIDINE-3-ACETIC ACID ETHYL ESTER

>  <SYNONYMS>  (2836) 


>  <SPECTRUM TYPE>  (2836) 
MS1

>  <INSTRUMENT TYPE>  (2836) 
EI-B

>  <INSTRUMENT>  (2836) 
MS-902

>  <ION MODE>  (2836) 
P

>  <INCHIKEY>  (2836) 
VHLUXOYRWOXMSL-UHFFFAOYSA-N

>  <FORMULA>  (2836) 
C13H14N2O3

>  <EXACT MASS>  (2836) 
246.100442308

>  <MW>  (2836) 
246

>  <ID>  (2836) 
JP007888

>  <CONTRIBUTOR>  (2836) 
University of Tokyo Team, {Faculty of Engineering, University of Tokyo

>  <COMMENT>  (2836) 
SMILES=CCOC(=O)CC(=C1)C(=O)N(C=2)C(C=CC(C)2)=N1
InChI=InChI=1S/C13H14N2O3/c1-3-18-12(16)6-10-7-14-11-5-4-9(2)8-15(11)13(10)17/h4-5,7-8H,3,6H2,1-2H3
computed SMILES=O=C(OCC)CC1=CN=C2C=CC(=CN2C1=O)C
accession=JP007888
date=2016.01.19 (Created 2008.10.21, modified 2011.05.06)
author=SASAKI S, TOYOHASHI UNIV. OF TECH.
license=CC BY-NC-SA
exact mass=246.10044
ionization energy=70 eV
ion type=[M]+*
computed spectral entropy=1.5120463664598724
computed normalized entropy=0.5453554486214586
SPLASH=splash10-00di-2920000000-818b329aa0c07ecfef6b
submitter=submitter = University of Tokyo Team (Faculty of Engineering, University of Tokyo)
MoNA Rating=3.75

>  <NUM PEAKS>  (2836) 
16

>  <MASS SPECTRAL PEAKS>  (2836) 
39 3.1
55 4.8
66 1.3
72.5 0.15
86.5 2
92 15.5
94 2.6
119 0.4
144 1
145 3.5
173 99.99
174 1.26
175 1.1
201 3.7
246 26.6
247 3.7

>  <PREDICTED SPECTRUM>  (2836) 
27 18
29 35
38 28
39 204
40 60
41 69
42 86
43 51
44 20
50 33
51 105
52 103
53 129
54 35
55 99
63 68
64 87
65 275
66 117
78 66
91 122
92 462
93 177
119 226
120 77
144 5
145 216
146 159
156 15
173 999
174 398
175 139
176 0
200 84
201 189
218 49
246 523
247 226
248 59

$$$$

     RDKit          2D

 18 19  0  0  0  0  0  0  0  0999 V2000
    9.0951    1.5010    0.0000 C   0  0  0  0  0  0  0  0  0  0  0  0
   -3.8989   -1.5002    0.0000 C   0  0  0  0  0  0  0  0  0  0  0  0
    7.7962    0.7508    0.0000 C   0  0  0  0  0  0  0  0  0  0  0  0
   -2.6000    0.7500    0.0000 C   0  0  0  0  0  0  0  0  0  0  0  0
   -1.3000    1.5000    0.0000 C   0  0  0  0  0  0  0  0  0  0  0  0
   -1.3000   -1.5000    0.0000 C   0  0  0  0  0  0  0  0  0  0  0  0
    3.8989    1.5002    0.0000 C   0  0  0  0  0  0  0  0  0  0  0  0
    2.6000   -0.7500    0.0000 C   0  0  0  0  0  0  0  0  0  0  0  0
   -2.6000   -0.7500    0.0000 C   0  0  0  0  0  0  0  0  0  0  0  0
    2.6000    0.7500    0.0000 C   0  0  0  0  0  0  0  0  0  0  0  0
    0.0000   -0.7500    0.0000 C   0  0  0  0  0  0  0  0  0  0  0  0
    5.1981    0.7504    0.0000 C   0  0  0  0  0  0  0  0  0  0  0  0
    1.3000    1.5000    0.0000 C   0  0  0  0  0  0  0  0  0  0  0  0
    1.3000   -1.5000    0.0000 N   0  0  0  0  0  0  0  0  0  0  0  0
    0.0000    0.7500    0.0000 N   0  0  0  0  0  0  0  0  0  0  0  0
    5.1983   -0.7496    0.0000 O   0  0  0  0  0  0  0  0  0  0  0  0
    1.3000    3.0000    0.0000 O   0  0  0  0  0  0  0  0  0  0  0  0
    6.4970    1.5006    0.0000 O   0  0  0  0  0  0  0  0  0  0  0  0
  3  1  1  0
  5  4  2  0
  9  2  1  0
  9  4  1  0
  9  6  2  0
 10  7  1  0
 10  8  2  0
 11  6  1  0
 12  7  1  0
 13 10  1  0
 14  8  1  0
 14 11  2  0
 15  5  1  0
 15 11  1  0
 15 13  1  0
 16 12  2  0
 17 13  2  0
 18  3  1  0
 18 12  1  0
M  END
>  <NAME>  (2837) 
8-METHYL-4-OXO-4H-PYRIDO(1,2-A)PYRIMIDINE-3-ACETIC ACID ETHYL ESTER

>  <SYNONYMS>  (2837) 


>  <SPECTRUM TYPE>  (2837) 
MS1

>  <INSTRUMENT TYPE>  (2837) 
EI-B

>  <INSTRUMENT>  (2837) 
MS-902

>  <ION MODE>  (2837) 
P

>  <INCHIKEY>  (2837) 
YHIQSHZYBRSRJO-UHFFFAOYSA-N

>  <FORMULA>  (2837) 
C13H14N2O3

>  <EXACT MASS>  (2837) 
246.10044230799997

>  <MW>  (2837) 
246

>  <ID>  (2837) 
JP007887

>  <CONTRIBUTOR>  (2837) 
University of Tokyo Team, {Faculty of Engineering, University of Tokyo

>  <COMMENT>  (2837) 
SMILES=CCOC(=O)CC(=C1)C(=O)N(C=2)C(C=C(C)C2)=N1
InChI=InChI=1S/C13H14N2O3/c1-3-18-12(16)7-10-8-14-11-6-9(2)4-5-15(11)13(10)17/h4-6,8H,3,7H2,1-2H3
computed SMILES=O=C(OCC)CC1=CN=C2C=C(C=CN2C1=O)C
accession=JP007887
date=2016.01.19 (Created 2008.10.21, modified 2011.05.06)
author=SASAKI S, TOYOHASHI UNIV. OF TECH.
license=CC BY-NC-SA
exact mass=246.10044
ionization energy=70 eV
ion type=[M]+*
computed spectral entropy=1.5994538935693934
computed normalized entropy=0.5339108263075456
SPLASH=splash10-00di-2920000000-deca180d91b3ff425edd
submitter=submitter = University of Tokyo Team (Faculty of Engineering, University of Tokyo)
MoNA Rating=3.75

>  <NUM PEAKS>  (2837) 
20

>  <MASS SPECTRAL PEAKS>  (2837) 
39 2.7
55 4.5
64 1
65 0.6
66 1.2
72.5 1.2
86.5 1.5
91 0.12
92 15.5
93 2.7
119 3.5
144 0.1
145 3
172 1
173 99.99
174 1.25
175 1
201 3.2
246 22.5
247 3.5

>  <PREDICTED SPECTRUM>  (2837) 
38 49
39 180
40 59
41 49
42 87
43 52
44 12
51 51
52 118
53 170
54 57
55 118
63 43
64 99
65 288
66 138
67 13
91 79
92 479
93 142
94 14
118 44
119 159
144 29
145 266
146 130
156 5
173 999
174 365
175 130
200 128
201 179
246 504
247 183
248 41

$$$$

     RDKit          2D

 16 15  0  0  1  0  0  0  0  0999 V2000
    0.9743    6.5625    0.0000 C   0  0  0  0  0  0  0  0  0  0  0  0
   -9.4180    0.5625    0.0000 C   0  0  0  0  0  0  0  0  0  0  0  0
  -10.7171    2.8125    0.0000 C   0  0  0  0  0  0  0  0  0  0  0  0
   -8.1190    7.3125    0.0000 C   0  0  0  0  0  0  0  0  0  0  0  0
   -2.5880    5.4134    0.0000 C   0  0  0  0  0  0  0  0  0  0  0  0
   -0.3248    7.3125    0.0000 C   0  0  0  0  0  0  0  0  0  0  0  0
   -8.1190    4.3125    0.0000 C   0  0  0  0  0  0  0  0  0  0  0  0
   -4.2219    6.5625    0.0000 C   0  0  0  0  0  0  0  0  0  0  0  0
   -8.1190    2.8125    0.0000 C   0  0  0  0  0  0  0  0  0  0  0  0
   -6.8200    5.0625    0.0000 C   0  0  0  0  0  0  0  0  0  0  0  0
   -5.5209    7.3125    0.0000 C   0  0  0  0  0  0  0  0  0  0  0  0
   -2.9228    7.3125    0.0000 C   0  0  0  0  0  0  0  0  0  0  0  0
   -9.4180    2.0625    0.0000 C   0  0  0  0  0  0  0  0  0  0  0  0
   -6.8200    6.5625    0.0000 C   0  0  0  0  0  0  0  0  0  0  0  0
   -1.6238    6.5625    0.0000 C   0  0  0  0  0  0  0  0  0  0  0  0
   -0.6596    5.4134    0.0000 O   0  0  0  0  0  0  0  0  0  0  0  0
  6  1  2  0
  9  7  1  0
 10  7  1  0
 11  8  1  0
 12  8  1  0
 13  2  1  0
 13  3  1  0
 13  9  2  0
 14  4  1  0
 14 10  1  0
 11 14  2  0
 15  5  1  6
 15  6  1  0
 15 12  1  0
 15 16  1  0
M  END
>  <NAME>  (2838) 
NEROLIDOL

>  <SYNONYMS>  (2838) 
(S-(Z))-3,7,11-TRIMETHYL-1,6,10-DODECATRIEN-3-OL

>  <SPECTRUM TYPE>  (2838) 
MS1

>  <INSTRUMENT TYPE>  (2838) 
EI-B

>  <INSTRUMENT>  (2838) 
SHIMADZU QP-1000

>  <ION MODE>  (2838) 
P

>  <INCHIKEY>  (2838) 
FQTLCLSUCSAZDY-QKXCFHHRSA-N

>  <FORMULA>  (2838) 
C15H26O

>  <EXACT MASS>  (2838) 
222.198365452

>  <MW>  (2838) 
222

>  <ID>  (2838) 
JP007724

>  <CONTRIBUTOR>  (2838) 
University of Tokyo Team, {Faculty of Engineering, University of Tokyo

>  <COMMENT>  (2838) 
SMILES=CC(C)=CCCC(C)=C([H])CCC(C)(O)C=C
InChI=InChI=1S/C15H26O/c1-6-15(5,16)12-8-11-14(4)10-7-9-13(2)3/h6,9,11,16H,1,7-8,10,12H2,2-5H3/b14-11-/t15-/m1/s1
computed SMILES=OC(C=C)(C)CCC=C(C)CCC=C(C)C
accession=JP007724
date=2016.01.19 (Created 2008.10.21, modified 2011.05.06)
author=KYOTO INSTITUTE OF TECHNOLOGY
license=CC BY-NC-SA
exact mass=222.19837
ionization energy=70 eV
ion type=[M]+*
computed spectral entropy=2.9726904664237344
computed normalized entropy=0.7418126542056633
SPLASH=splash10-00kf-9100000000-45f6e3893a44769001ce
submitter=submitter = University of Tokyo Team (Faculty of Engineering, University of Tokyo)
MoNA Rating=3.75

>  <NUM PEAKS>  (2838) 
55

>  <MASS SPECTRAL PEAKS>  (2838) 
40 4.8
41 99.99
42 6.9
43 7.1
44 3
45 2.3
51 1.7
53 1.27
54 2
55 34.7
56 2.5
57 0.6
58 1.4
65 2.7
66 1.1
67 2.06
68 8.4
69 81.4
70 7.1
71 3.2
72 2.2
77 5.4
79 15
80 0.89
81 21.5
82 6.6
83 4.4
91 0.78
92 2.5
93 38.7
94 5.3
95 0.83
96 1.5
97 2.7
105 4.4
106 0.19
107 19.1
108 2.9
109 7.6
111 0.15
119 4.7
120 1.7
121 7.5
122 0.26
123 7.4
133 2.3
134 1.9
135 0.4
136 10.1
137 2.1
147 1
148 0.15
161 6.9
162 1.5
189 1.4

>  <PREDICTED SPECTRUM>  (2838) 
0 9
18 4
25 2
26 38
27 228
28 90
29 272
30 38
31 110
37 4
38 36
39 286
40 147
41 906
42 229
43 999
44 142
45 140
50 52
51 151
52 111
53 429
54 191
55 628
56 193
57 274
58 126
59 252
60 11
63 66
64 32
65 197
66 147
67 602
68 503
69 930
70 306
71 636
72 204
77 297
78 164
79 451
80 370
81 748
82 474
83 345
84 210
85 132
91 334
92 219
93 661
94 356
95 555
96 254
97 208
98 61
99 121
100 22
101 13
103 51
104 5
105 338
106 202
107 532
108 362
109 510
110 223
111 236
112 141
113 56
115 51
117 73
118 28
119 316
120 135
121 449
122 382
123 341
124 165
125 186
126 95
127 84
129 26
133 302
134 273
135 447
136 352
137 216
138 130
139 134
140 130
143 28
145 85
146 66
147 262
148 232
149 202
150 112
151 93
152 60
153 95
154 12
160 47
161 317
162 166
163 99
164 165
165 88
166 5
171 5
175 128
176 144
177 118
178 72
179 48
180 46
189 208
190 28
193 4
194 3
195 20
204 266
205 153
207 81
208 8
222 53
223 15

$$$$

     RDKit          2D

 12 12  0  0  0  0  0  0  0  0999 V2000
   -0.9959   -4.6350    0.0000 C   0  0  0  0  0  0  0  0  0  0  0  0
    3.2424    0.8564    0.0000 C   0  0  0  0  0  0  0  0  0  0  0  0
    0.3031   -3.8850    0.0000 C   0  0  0  0  0  0  0  0  0  0  0  0
    0.3031   -2.3850    0.0000 C   0  0  0  0  0  0  0  0  0  0  0  0
    1.6021   -1.6350    0.0000 C   0  0  0  0  0  0  0  0  0  0  0  0
    2.9012   -2.3850    0.0000 C   0  0  0  0  0  0  0  0  0  0  0  0
    5.8171    0.1645    0.0000 C   0  0  0  0  0  0  0  0  0  0  0  0
    6.5671   -1.1345    0.0000 C   0  0  0  0  0  0  0  0  0  0  0  0
    4.3573   -0.1471    0.0000 C   0  0  0  0  0  0  0  0  0  0  0  0
    4.2002   -1.6350    0.0000 C   0  0  0  0  0  0  0  0  0  0  0  0
    5.5673   -2.2429    0.0000 C   0  0  0  0  0  0  0  0  0  0  0  0
    5.8789   -3.7102    0.0000 O   0  0  0  0  0  0  0  0  0  0  0  0
  3  1  1  0
  4  3  1  0
  4  5  2  0
  6  5  1  0
  8  7  1  0
  9  2  1  0
  9  7  1  0
 10  6  1  0
 10  9  2  0
 11  8  1  0
 11 10  1  0
 12 11  2  0
M  END
>  <NAME>  (2839) 
JASMONE

>  <SYNONYMS>  (2839) 
(Z)-3-METHYL-2-(2-PENTENYL)-2-CYCLOPENTEN-1-ONE

>  <SPECTRUM TYPE>  (2839) 
MS1

>  <INSTRUMENT TYPE>  (2839) 
EI-B

>  <INSTRUMENT>  (2839) 
SHIMADZU QP-1000

>  <ION MODE>  (2839) 
P

>  <INCHIKEY>  (2839) 
XMLSXPIVAXONDL-PLNGDYQASA-N

>  <FORMULA>  (2839) 
C11H16O

>  <EXACT MASS>  (2839) 
164.120115132

>  <MW>  (2839) 
164

>  <ID>  (2839) 
JP007721

>  <CONTRIBUTOR>  (2839) 
University of Tokyo Team, {Faculty of Engineering, University of Tokyo

>  <COMMENT>  (2839) 
SMILES=CCC([H])=C([H])CC(=C(C)1)C(=O)CC1
cas=488-10-8
InChI=InChI=1S/C11H16O/c1-3-4-5-6-10-9(2)7-8-11(10)12/h4-5H,3,6-8H2,1-2H3/b5-4-
computed SMILES=O=C1C(=C(C)CC1)CC=CCC
accession=JP007721
date=2016.01.19 (Created 2008.10.21, modified 2011.05.06)
author=KYOTO INSTITUTE OF TECHNOLOGY
license=CC BY-NC-SA
exact mass=164.12012
ionization energy=70 eV
ion type=[M]+*
computed spectral entropy=3.5184421491025635
computed normalized entropy=0.8149280453306738
SPLASH=splash10-01r6-9600000000-b7842817d55e1ef34cd5
submitter=submitter = University of Tokyo Team (Faculty of Engineering, University of Tokyo)
MoNA Rating=3.75

>  <NUM PEAKS>  (2839) 
75

>  <MASS SPECTRAL PEAKS>  (2839) 
40 17.5
41 96.5
42 9.1
43 2.53
44 1.5
45 1
50 8.7
51 2.75
52 15.3
53 45.4
54 7.1
55 7.59
56 4.4
57 2.8
62 2.3
63 0.88
64 2.8
65 29.3
66 14.9
67 4.39
68 6.7
69 4.5
74 1.2
75 0.12
77 50.9
78 12.7
79 99.99
80 1.63
81 37.4
82 14.9
83 1.7
89 0.19
91 58.3
92 8.4
93 53.3
94 1.22
95 19.5
96 3
97 1.2
103 0.45
105 21.3
106 6.2
107 35.9
108 0.84
109 32.9
110 60.6
111 5
115 0.4
116 2
117 4.4
118 1.1
119 0.42
120 4.1
121 25.3
122 52.8
123 1.02
129 1.5
130 3.4
131 29.5
132 0.35
133 3.2
134 5.6
135 42
136 1.38
137 1.4
145 2.4
146 5
147 0.34
148 5.6
149 48.2
150 5.4
163 0.69
164 55.9
165 12.3
166 1.2

>  <PREDICTED SPECTRUM>  (2839) 
25 7
26 138
27 492
28 115
29 397
31 14
37 60
38 158
39 700
40 306
41 872
42 198
43 428
44 129
49 5
50 257
51 500
52 388
53 664
54 278
55 589
56 182
57 215
58 71
59 77
60 41
61 25
62 128
63 255
64 155
65 530
66 400
67 716
68 286
69 303
70 49
71 111
72 69
74 65
75 148
76 49
77 786
78 390
79 930
80 469
81 478
82 327
83 226
84 49
85 95
86 10
87 50
89 111
90 47
91 762
92 370
93 842
94 507
95 526
96 341
97 125
98 70
102 80
103 310
104 211
105 601
106 384
107 999
108 521
109 330
110 150
111 55
115 110
116 102
117 330
118 139
119 406
120 286
121 933
122 479
123 281
124 88
129 82
130 20
131 330
132 97
133 280
134 195
135 919
136 431
137 148
145 195
146 149
147 248
148 121
149 832
150 273
151 17
161 40
162 114
163 383
164 978
165 350
166 66

$$$$

     RDKit          2D

 12 12  0  0  0  0  0  0  0  0999 V2000
    4.8930   -2.3850    0.0000 C   0  0  0  0  0  0  0  0  0  0  0  0
   -0.6443    0.8564    0.0000 C   0  0  0  0  0  0  0  0  0  0  0  0
    3.5940   -1.6350    0.0000 C   0  0  0  0  0  0  0  0  0  0  0  0
    2.2950   -2.3850    0.0000 C   0  0  0  0  0  0  0  0  0  0  0  0
    0.9959   -1.6350    0.0000 C   0  0  0  0  0  0  0  0  0  0  0  0
   -0.3031   -2.3850    0.0000 C   0  0  0  0  0  0  0  0  0  0  0  0
   -3.2190    0.1645    0.0000 C   0  0  0  0  0  0  0  0  0  0  0  0
   -3.9690   -1.1345    0.0000 C   0  0  0  0  0  0  0  0  0  0  0  0
   -1.7592   -0.1471    0.0000 C   0  0  0  0  0  0  0  0  0  0  0  0
   -1.6021   -1.6350    0.0000 C   0  0  0  0  0  0  0  0  0  0  0  0
   -2.9692   -2.2429    0.0000 C   0  0  0  0  0  0  0  0  0  0  0  0
   -3.2808   -3.7102    0.0000 O   0  0  0  0  0  0  0  0  0  0  0  0
  3  1  1  0
  4  3  1  0
  5  4  1  0
  6  5  1  0
  8  7  1  0
  9  2  1  0
  9  7  1  0
 10  6  1  0
 10  9  2  0
 11  8  1  0
 11 10  1  0
 12 11  2  0
M  END
>  <NAME>  (2840) 
DIHYDROJASMONE

>  <SYNONYMS>  (2840) 
3-METHYL-2-PENTYL-2-CYCLOPENTEN-1-ONE

>  <SPECTRUM TYPE>  (2840) 
MS1

>  <INSTRUMENT TYPE>  (2840) 
EI-B

>  <INSTRUMENT>  (2840) 
SHIMADZU QP-1000

>  <ION MODE>  (2840) 
P

>  <INCHIKEY>  (2840) 
YCIXWYOBMVNGTB-UHFFFAOYSA-N

>  <FORMULA>  (2840) 
C11H18O

>  <EXACT MASS>  (2840) 
166.135765196

>  <MW>  (2840) 
166

>  <ID>  (2840) 
JP007720

>  <CONTRIBUTOR>  (2840) 
University of Tokyo Team, {Faculty of Engineering, University of Tokyo

>  <COMMENT>  (2840) 
SMILES=CCCCCC(=C(C)1)C(=O)CC1
cas=1128-08-1
InChI=InChI=1S/C11H18O/c1-3-4-5-6-10-9(2)7-8-11(10)12/h3-8H2,1-2H3
computed SMILES=O=C1C(=C(C)CC1)CCCCC
accession=JP007720
date=2016.01.19 (Created 2008.10.21, modified 2011.05.06)
author=KYOTO INSTITUTE OF TECHNOLOGY
license=CC BY-NC-SA
exact mass=166.13577
ionization energy=70 eV
ion type=[M]+*
computed spectral entropy=2.97045780299649
computed normalized entropy=0.7632566705195938
SPLASH=splash10-0ikc-7900000000-c07ace9e4f88c96f29cf
submitter=submitter = University of Tokyo Team (Faculty of Engineering, University of Tokyo)
MoNA Rating=3.75

>  <NUM PEAKS>  (2840) 
49

>  <MASS SPECTRAL PEAKS>  (2840) 
40 6.4
41 51.4
42 3.8
43 1.31
50 1.9
51 6.9
52 5.5
53 2.21
54 3.7
55 21.7
56 1.9
57 0.17
63 1.6
65 9.2
66 4.8
67 3.96
68 5.6
69 4.5
77 10.4
78 0.23
79 20.8
80 3.4
81 23
82 1.74
83 2
91 5.8
93 6.2
95 2.34
96 3.6
97 1.4
105 1.8
107 0.24
108 2.6
109 24.7
110 99.99
111 1.83
112 1.3
122 2
123 19.1
124 0.94
133 1.3
136 1.7
137 20.4
138 0.23
150 4.2
151 62
152 6.9
166 0.52
167 3.3

>  <PREDICTED SPECTRUM>  (2840) 
14 9
15 13
19 9
25 17
26 157
27 517
28 176
29 398
31 30
33 6
34 14
36 27
37 96
38 216
39 767
40 392
41 841
42 285
43 503
44 192
45 97
49 6
50 274
51 508
52 485
53 734
54 452
55 541
56 181
57 94
58 54
59 30
60 9
61 62
62 129
63 287
64 192
65 490
66 438
67 683
68 508
69 403
70 165
71 139
74 57
75 92
76 93
77 627
78 362
79 810
80 441
81 709
82 544
83 311
84 160
85 165
87 85
89 95
90 42
91 466
92 275
93 443
94 332
95 663
96 592
97 415
98 168
99 108
103 177
104 98
105 445
106 203
107 371
108 244
109 567
110 999
111 356
112 138
113 58
117 100
119 157
120 71
121 266
122 309
123 567
124 338
125 178
126 71
127 13
133 203
134 31
135 100
136 77
137 450
138 281
139 105
147 87
148 89
149 178
150 76
151 362
152 159
164 58
165 182
166 401
167 153

$$$$

     RDKit          2D

 22 21  0  0  0  0  0  0  0  0999 V2000
  -19.4856   11.2500    0.0000 C   0  0  0  0  0  0  0  0  0  0  0  0
    6.4952   11.2500    0.0000 C   0  0  0  0  0  0  0  0  0  0  0  0
  -18.1865   10.5000    0.0000 C   0  0  0  0  0  0  0  0  0  0  0  0
  -16.8875   11.2500    0.0000 C   0  0  0  0  0  0  0  0  0  0  0  0
  -15.5885   10.5000    0.0000 C   0  0  0  0  0  0  0  0  0  0  0  0
  -14.2894   11.2500    0.0000 C   0  0  0  0  0  0  0  0  0  0  0  0
  -12.9904   10.5000    0.0000 C   0  0  0  0  0  0  0  0  0  0  0  0
  -11.6913   11.2500    0.0000 C   0  0  0  0  0  0  0  0  0  0  0  0
  -10.3923   10.5000    0.0000 C   0  0  0  0  0  0  0  0  0  0  0  0
   -9.0933   11.2500    0.0000 C   0  0  0  0  0  0  0  0  0  0  0  0
   -7.7942   10.5000    0.0000 C   0  0  0  0  0  0  0  0  0  0  0  0
   -6.4952   11.2500    0.0000 C   0  0  0  0  0  0  0  0  0  0  0  0
   -5.1962   10.5000    0.0000 C   0  0  0  0  0  0  0  0  0  0  0  0
   -3.8971   11.2500    0.0000 C   0  0  0  0  0  0  0  0  0  0  0  0
   -2.5981   10.5000    0.0000 C   0  0  0  0  0  0  0  0  0  0  0  0
   -1.2990   11.2500    0.0000 C   0  0  0  0  0  0  0  0  0  0  0  0
    0.0000   10.5000    0.0000 C   0  0  0  0  0  0  0  0  0  0  0  0
    1.2990   11.2500    0.0000 C   0  0  0  0  0  0  0  0  0  0  0  0
    2.5981   10.5000    0.0000 C   0  0  0  0  0  0  0  0  0  0  0  0
    5.1962   10.5000    0.0000 C   0  0  0  0  0  0  0  0  0  0  0  0
    5.1962    9.0000    0.0000 O   0  0  0  0  0  0  0  0  0  0  0  0
    3.8971   11.2500    0.0000 O   0  0  0  0  0  0  0  0  0  0  0  0
  3  1  1  0
  4  3  1  0
  5  4  1  0
  6  5  1  0
  7  6  1  0
  8  7  1  0
  9  8  1  0
 10  9  1  0
 11 10  1  0
 12 11  1  0
 13 12  1  0
 14 13  1  0
 15 14  1  0
 16 15  1  0
 17 16  1  0
 18 17  1  0
 19 18  1  0
 20  2  1  0
 21 20  2  0
 22 19  1  0
 22 20  1  0
M  END
>  <NAME>  (2841) 
OCTADECYL ACETATE

>  <SYNONYMS>  (2841) 


>  <SPECTRUM TYPE>  (2841) 
MS1

>  <INSTRUMENT TYPE>  (2841) 
EI-B

>  <INSTRUMENT>  (2841) 
SHIMADZU QP-1000

>  <ION MODE>  (2841) 
P

>  <INCHIKEY>  (2841) 
OIZXRZCQJDXPFO-UHFFFAOYSA-N

>  <FORMULA>  (2841) 
C20H40O2

>  <EXACT MASS>  (2841) 
312.30283052

>  <MW>  (2841) 
312

>  <ID>  (2841) 
JP007719

>  <CONTRIBUTOR>  (2841) 
University of Tokyo Team, {Faculty of Engineering, University of Tokyo

>  <COMMENT>  (2841) 
SMILES=CCCCCCCCCCCCCCCCCCOC(C)=O
InChI=InChI=1S/C20H40O2/c1-3-4-5-6-7-8-9-10-11-12-13-14-15-16-17-18-19-22-20(2)21/h3-19H2,1-2H3
computed SMILES=O=C(OCCCCCCCCCCCCCCCCCC)C
accession=JP007719
date=2016.01.19 (Created 2008.10.21, modified 2011.05.06)
author=KYOTO INSTITUTE OF TECHNOLOGY
license=CC BY-NC-SA
exact mass=312.30283
ionization energy=70 eV
ion type=[M]+*
computed spectral entropy=2.7280820855581385
computed normalized entropy=0.6871238047374182
SPLASH=splash10-0006-9000000000-2228633c7be80e708eec
submitter=submitter = University of Tokyo Team (Faculty of Engineering, University of Tokyo)
MoNA Rating=3.75

>  <NUM PEAKS>  (2841) 
53

>  <MASS SPECTRAL PEAKS>  (2841) 
40 1.3
41 37.7
42 11
43 99.99
44 3.7
53 1.4
54 5
55 3.42
56 18.4
57 31.3
58 2.1
61 2.6
67 5.2
68 7.6
69 23
70 1.31
71 11.7
73 2.3
81 3
82 1.03
83 21.8
84 7.7
85 5.6
95 0.13
96 4
97 16
98 4.6
99 0.12
101 0.3
109 0.5
110 1.4
111 0.76
112 2.4
113 0.6
116 1
124 0.08
125 3.1
126 1.3
138 0.3
139 0.11
140 0.7
152 0.3
153 0.5
154 0.04
166 0.2
167 0.3
168 0.3
182 0.02
196 0.2
224 0.4
225 0.1
252 0.03
253 0.1

>  <PREDICTED SPECTRUM>  (2841) 
26 43
27 145
28 71
29 256
30 7
31 45
37 13
38 16
39 174
40 84
41 568
42 368
43 999
44 187
45 122
46 5
47 29
49 9
50 2
51 21
52 33
53 169
54 339
55 800
56 634
57 863
58 167
59 101
60 66
61 646
62 65
65 48
66 112
67 388
68 529
69 803
70 594
71 618
72 174
73 231
74 85
75 9
76 3
79 95
80 63
81 275
82 629
83 889
84 499
85 482
86 146
87 24
88 47
89 57
90 37
91 32
92 12
93 21
94 28
95 269
96 490
97 788
98 394
99 242
100 68
101 67
102 33
103 11
107 29
108 10
109 179
110 298
111 616
112 323
113 228
114 75
115 7
116 92
123 115
124 264
125 417
126 294
127 171
128 26
129 8
136 52
137 98
138 205
139 188
140 210
141 94
142 2
143 0
152 137
153 198
154 196
155 59
156 9
158 11
160 18
164 0
166 54
167 119
168 191
169 140
170 7
171 1
172 23
180 25
181 56
182 109
183 52
194 2
195 55
196 125
197 39
200 31
209 26
210 62
213 24
222 65
223 65
224 188
225 58
238 0
239 53
240 20
252 244
253 129
269 7

$$$$

     RDKit          2D

 20 19  0  0  0  0  0  0  0  0999 V2000
    5.8457   10.1250    0.0000 C   0  0  0  0  0  0  0  0  0  0  0  0
  -17.5370   10.1250    0.0000 C   0  0  0  0  0  0  0  0  0  0  0  0
    4.5466   10.8750    0.0000 C   0  0  0  0  0  0  0  0  0  0  0  0
    3.2476   10.1250    0.0000 C   0  0  0  0  0  0  0  0  0  0  0  0
    1.9486   10.8750    0.0000 C   0  0  0  0  0  0  0  0  0  0  0  0
    0.6495   10.1250    0.0000 C   0  0  0  0  0  0  0  0  0  0  0  0
   -0.6495   10.8750    0.0000 C   0  0  0  0  0  0  0  0  0  0  0  0
   -1.9486   10.1250    0.0000 C   0  0  0  0  0  0  0  0  0  0  0  0
   -3.2476   10.8750    0.0000 C   0  0  0  0  0  0  0  0  0  0  0  0
   -4.5466   10.1250    0.0000 C   0  0  0  0  0  0  0  0  0  0  0  0
   -5.8457   10.8750    0.0000 C   0  0  0  0  0  0  0  0  0  0  0  0
   -7.1447   10.1250    0.0000 C   0  0  0  0  0  0  0  0  0  0  0  0
   -8.4437   10.8750    0.0000 C   0  0  0  0  0  0  0  0  0  0  0  0
   -9.7428   10.1250    0.0000 C   0  0  0  0  0  0  0  0  0  0  0  0
  -11.0418   10.8750    0.0000 C   0  0  0  0  0  0  0  0  0  0  0  0
  -12.3409   10.1250    0.0000 C   0  0  0  0  0  0  0  0  0  0  0  0
  -13.6399   10.8750    0.0000 C   0  0  0  0  0  0  0  0  0  0  0  0
  -16.2380   10.8750    0.0000 C   0  0  0  0  0  0  0  0  0  0  0  0
  -16.2380   12.3750    0.0000 O   0  0  0  0  0  0  0  0  0  0  0  0
  -14.9389   10.1250    0.0000 O   0  0  0  0  0  0  0  0  0  0  0  0
  3  1  1  0
  4  3  1  0
  5  4  1  0
  6  5  1  0
  7  6  1  0
  8  7  1  0
  9  8  1  0
 10  9  1  0
 11 10  1  0
 12 11  1  0
 13 12  1  0
 14 13  1  0
 15 14  1  0
 16 15  1  0
 17 16  1  0
 18  2  1  0
 19 18  2  0
 20 17  1  0
 20 18  1  0
M  END
>  <NAME>  (2842) 
HEXADECYL ACETATE

>  <SYNONYMS>  (2842) 


>  <SPECTRUM TYPE>  (2842) 
MS1

>  <INSTRUMENT TYPE>  (2842) 
EI-B

>  <INSTRUMENT>  (2842) 
SHIMADZU QP-1000

>  <ION MODE>  (2842) 
P

>  <INCHIKEY>  (2842) 
LSTDYDRCKUBPDI-UHFFFAOYSA-N

>  <FORMULA>  (2842) 
C18H36O2

>  <EXACT MASS>  (2842) 
284.271530392

>  <MW>  (2842) 
284

>  <ID>  (2842) 
JP007718

>  <CONTRIBUTOR>  (2842) 
University of Tokyo Team, {Faculty of Engineering, University of Tokyo

>  <COMMENT>  (2842) 
SMILES=CCCCCCCCCCCCCCCCOC(C)=O
InChI=InChI=1S/C18H36O2/c1-3-4-5-6-7-8-9-10-11-12-13-14-15-16-17-20-18(2)19/h3-17H2,1-2H3
computed SMILES=O=C(OCCCCCCCCCCCCCCCC)C
accession=JP007718
date=2016.01.19 (Created 2008.10.21, modified 2011.05.06)
author=KYOTO INSTITUTE OF TECHNOLOGY
license=CC BY-NC-SA
exact mass=284.27153
ionization energy=70 eV
ion type=[M]+*
computed spectral entropy=2.7087548156989296
computed normalized entropy=0.6997194948199449
SPLASH=splash10-0006-9000000000-772e1198d75be2843ab9
submitter=submitter = University of Tokyo Team (Faculty of Engineering, University of Tokyo)
MoNA Rating=3.75

>  <NUM PEAKS>  (2842) 
48

>  <MASS SPECTRAL PEAKS>  (2842) 
40 1.4
41 37.2
42 10.9
43 99.99
44 3.6
53 1.5
54 4.9
55 3.39
56 19.6
57 28.1
58 2.2
61 2.53
67 5.3
68 7.7
69 23.1
70 1.48
71 10.8
73 2.3
81 2.6
82 1
83 21
84 8
85 4.7
95 0.1
96 3.5
97 14.3
98 4.8
99 0.09
101 0.3
110 1.2
111 6.3
112 0.22
116 1
124 0.6
125 2.4
126 0.12
138 0.3
139 0.7
140 0.6
152 0.02
153 0.3
154 0.4
167 0.2
168 0.02
196 0.7
197 0.1
224 0.4
225 0.1

>  <PREDICTED SPECTRUM>  (2842) 
26 36
27 146
28 70
29 246
30 7
31 41
37 23
38 22
39 186
40 94
41 590
42 395
43 999
44 212
45 67
47 13
49 16
50 1
51 31
52 27
53 168
54 336
55 786
56 649
57 812
58 152
59 45
60 78
61 641
62 96
65 50
66 117
67 373
68 513
69 779
70 613
71 587
72 165
73 261
74 74
75 46
79 84
80 72
81 262
82 590
83 844
84 511
85 445
86 140
87 15
88 33
89 32
90 28
93 0
94 5
95 251
96 466
97 739
98 402
99 242
100 47
101 74
107 13
108 42
109 160
110 272
111 568
112 312
113 209
114 66
115 54
116 96
123 66
124 232
125 359
126 279
127 123
128 25
130 23
132 30
136 2
137 66
138 157
139 149
140 178
141 90
143 17
144 28
152 68
153 119
154 163
155 79
166 29
167 87
168 184
169 110
172 22
180 2
181 44
182 58
183 16
185 18
194 45
195 44
196 184
197 35
210 47
223 32
224 224
225 112
240 3

$$$$

     RDKit          2D

 18 17  0  0  0  0  0  0  0  0999 V2000
  -15.5885    9.0000    0.0000 C   0  0  0  0  0  0  0  0  0  0  0  0
    5.1962    9.0000    0.0000 C   0  0  0  0  0  0  0  0  0  0  0  0
  -14.2894    8.2500    0.0000 C   0  0  0  0  0  0  0  0  0  0  0  0
  -12.9904    9.0000    0.0000 C   0  0  0  0  0  0  0  0  0  0  0  0
  -11.6913    8.2500    0.0000 C   0  0  0  0  0  0  0  0  0  0  0  0
  -10.3923    9.0000    0.0000 C   0  0  0  0  0  0  0  0  0  0  0  0
   -9.0933    8.2500    0.0000 C   0  0  0  0  0  0  0  0  0  0  0  0
   -7.7942    9.0000    0.0000 C   0  0  0  0  0  0  0  0  0  0  0  0
   -6.4952    8.2500    0.0000 C   0  0  0  0  0  0  0  0  0  0  0  0
   -5.1962    9.0000    0.0000 C   0  0  0  0  0  0  0  0  0  0  0  0
   -3.8971    8.2500    0.0000 C   0  0  0  0  0  0  0  0  0  0  0  0
   -2.5981    9.0000    0.0000 C   0  0  0  0  0  0  0  0  0  0  0  0
   -1.2990    8.2500    0.0000 C   0  0  0  0  0  0  0  0  0  0  0  0
    0.0000    9.0000    0.0000 C   0  0  0  0  0  0  0  0  0  0  0  0
    1.2990    8.2500    0.0000 C   0  0  0  0  0  0  0  0  0  0  0  0
    3.8971    8.2500    0.0000 C   0  0  0  0  0  0  0  0  0  0  0  0
    3.8971    6.7500    0.0000 O   0  0  0  0  0  0  0  0  0  0  0  0
    2.5981    9.0000    0.0000 O   0  0  0  0  0  0  0  0  0  0  0  0
  3  1  1  0
  4  3  1  0
  5  4  1  0
  6  5  1  0
  7  6  1  0
  8  7  1  0
  9  8  1  0
 10  9  1  0
 11 10  1  0
 12 11  1  0
 13 12  1  0
 14 13  1  0
 15 14  1  0
 16  2  1  0
 17 16  2  0
 18 15  1  0
 18 16  1  0
M  END
>  <NAME>  (2843) 
TETRADECYL ACETATE

>  <SYNONYMS>  (2843) 


>  <SPECTRUM TYPE>  (2843) 
MS1

>  <INSTRUMENT TYPE>  (2843) 
EI-B

>  <INSTRUMENT>  (2843) 
SHIMADZU QP-1000

>  <ION MODE>  (2843) 
P

>  <INCHIKEY>  (2843) 
IOUUIFSIQMVYKP-UHFFFAOYSA-N

>  <FORMULA>  (2843) 
C16H32O2

>  <EXACT MASS>  (2843) 
256.240230264

>  <MW>  (2843) 
256

>  <ID>  (2843) 
JP007717

>  <CONTRIBUTOR>  (2843) 
University of Tokyo Team, {Faculty of Engineering, University of Tokyo

>  <COMMENT>  (2843) 
SMILES=CCCCCCCCCCCCCCOC(C)=O
InChI=InChI=1S/C16H32O2/c1-3-4-5-6-7-8-9-10-11-12-13-14-15-18-16(2)17/h3-15H2,1-2H3
computed SMILES=O=C(OCCCCCCCCCCCCCC)C
accession=JP007717
date=2016.01.19 (Created 2008.10.21, modified 2011.05.06)
author=KYOTO INSTITUTE OF TECHNOLOGY
license=CC BY-NC-SA
exact mass=256.24023
ionization energy=70 eV
ion type=[M]+*
computed spectral entropy=2.6488045487065306
computed normalized entropy=0.6999661235168811
SPLASH=splash10-0006-9000000000-01fa49568188ba8a4488
submitter=submitter = University of Tokyo Team (Faculty of Engineering, University of Tokyo)
MoNA Rating=3.75

>  <NUM PEAKS>  (2843) 
44

>  <MASS SPECTRAL PEAKS>  (2843) 
40 1.4
41 36.6
42 11.7
43 99.99
44 3.5
53 1.6
54 4.2
55 3.06
56 20
57 23.1
58 2
61 2.15
67 4.4
68 7.1
69 21.1
70 1.49
71 8.2
73 2.1
81 2
82 0.85
83 17.8
84 8.2
85 3.6
96 0.31
97 12.3
98 4.9
99 0.7
101 0.03
110 1.1
111 5.2
112 2.3
116 0.11
124 0.5
125 2
126 1.1
138 0.03
139 0.6
140 0.6
153 0.2
154 0.02
168 1
169 0.1
196 0.5
197 0.1

>  <PREDICTED SPECTRUM>  (2843) 
26 32
27 151
28 87
29 252
30 25
31 36
33 1
36 3
37 26
38 29
39 201
40 101
41 610
42 412
43 999
44 206
45 78
47 33
49 16
51 18
52 35
53 172
54 327
55 761
56 671
57 752
58 129
59 27
60 85
61 620
62 90
65 39
66 103
67 358
68 490
69 743
70 622
71 537
72 139
73 304
74 49
79 83
80 87
81 253
82 534
83 770
84 508
85 381
86 131
87 71
88 49
89 64
90 22
91 28
95 230
96 431
97 672
98 393
99 175
100 52
101 32
102 34
103 6
104 33
109 104
110 222
111 495
112 295
113 189
114 60
115 48
116 117
117 6
124 190
125 293
126 258
127 97
137 27
138 105
139 96
140 185
141 61
144 7
152 3
153 71
154 102
155 47
157 3
166 43
167 69
168 174
169 79
170 7
183 14
184 33
196 210
197 108
199 2
210 11

$$$$

     RDKit          2D

 21 20  0  0  0  0  0  0  0  0999 V2000
    6.4952   10.5000    0.0000 C   0  0  0  0  0  0  0  0  0  0  0  0
  -18.1865   11.2500    0.0000 C   0  0  0  0  0  0  0  0  0  0  0  0
    5.1962   11.2500    0.0000 C   0  0  0  0  0  0  0  0  0  0  0  0
    3.8971   10.5000    0.0000 C   0  0  0  0  0  0  0  0  0  0  0  0
    2.5981   11.2500    0.0000 C   0  0  0  0  0  0  0  0  0  0  0  0
    1.2990   10.5000    0.0000 C   0  0  0  0  0  0  0  0  0  0  0  0
    0.0000   11.2500    0.0000 C   0  0  0  0  0  0  0  0  0  0  0  0
   -1.2990   10.5000    0.0000 C   0  0  0  0  0  0  0  0  0  0  0  0
   -2.5981   11.2500    0.0000 C   0  0  0  0  0  0  0  0  0  0  0  0
   -3.8971   10.5000    0.0000 C   0  0  0  0  0  0  0  0  0  0  0  0
   -5.1962   11.2500    0.0000 C   0  0  0  0  0  0  0  0  0  0  0  0
   -6.4952   10.5000    0.0000 C   0  0  0  0  0  0  0  0  0  0  0  0
   -7.7942   11.2500    0.0000 C   0  0  0  0  0  0  0  0  0  0  0  0
   -9.0933   10.5000    0.0000 C   0  0  0  0  0  0  0  0  0  0  0  0
  -10.3923   11.2500    0.0000 C   0  0  0  0  0  0  0  0  0  0  0  0
  -11.6913   10.5000    0.0000 C   0  0  0  0  0  0  0  0  0  0  0  0
  -12.9904   11.2500    0.0000 C   0  0  0  0  0  0  0  0  0  0  0  0
  -14.2894   10.5000    0.0000 C   0  0  0  0  0  0  0  0  0  0  0  0
  -15.5885   11.2500    0.0000 C   0  0  0  0  0  0  0  0  0  0  0  0
  -15.5885   12.7500    0.0000 O   0  0  0  0  0  0  0  0  0  0  0  0
  -16.8875   10.5000    0.0000 O   0  0  0  0  0  0  0  0  0  0  0  0
  3  1  1  0
  4  3  1  0
  5  4  1  0
  6  5  1  0
  7  6  1  0
  8  7  1  0
  9  8  1  0
 10  9  1  0
 11 10  1  0
 12 11  1  0
 13 12  1  0
 14 13  1  0
 15 14  1  0
 16 15  1  0
 17 16  1  0
 18 17  1  0
 19 18  1  0
 20 19  2  0
 21  2  1  0
 21 19  1  0
M  END
>  <NAME>  (2844) 
METHYL OCTADECANOATE

>  <SYNONYMS>  (2844) 
METHYL STEARATE

>  <SPECTRUM TYPE>  (2844) 
MS1

>  <INSTRUMENT TYPE>  (2844) 
EI-B

>  <INSTRUMENT>  (2844) 
SHIMADZU QP-1000

>  <ION MODE>  (2844) 
P

>  <INCHIKEY>  (2844) 
HPEUJPJOZXNMSJ-UHFFFAOYSA-N

>  <FORMULA>  (2844) 
C19H38O2

>  <EXACT MASS>  (2844) 
298.287180456

>  <MW>  (2844) 
298

>  <ID>  (2844) 
JP007714

>  <CONTRIBUTOR>  (2844) 
University of Tokyo Team, {Faculty of Engineering, University of Tokyo

>  <COMMENT>  (2844) 
SMILES=CCCCCCCCCCCCCCCCCC(=O)OC
cas=112-61-8
InChI=InChI=1S/C19H38O2/c1-3-4-5-6-7-8-9-10-11-12-13-14-15-16-17-18-19(20)21-2/h3-18H2,1-2H3
computed SMILES=O=C(OC)CCCCCCCCCCCCCCCCC
accession=JP007714
date=2016.01.19 (Created 2008.10.21, modified 2011.05.06)
author=KYOTO INSTITUTE OF TECHNOLOGY
license=CC BY-NC-SA
exact mass=298.28718
ionization energy=70 eV
ion type=[M]+*
computed spectral entropy=2.7527178756619826
computed normalized entropy=0.693328837173384
SPLASH=splash10-05fu-9000000000-71ef3d29b74452696ed8
submitter=submitter = University of Tokyo Team (Faculty of Engineering, University of Tokyo)
MoNA Rating=3.75

>  <NUM PEAKS>  (2844) 
53

>  <MASS SPECTRAL PEAKS>  (2844) 
40 1.2
41 47.4
42 10
43 6.9
44 5.7
45 2
53 1.8
54 0.26
55 33.2
56 6.5
57 23.7
58 0.18
59 10.2
67 3.1
68 1.7
69 1.41
70 2.7
71 6.4
73 2.5
74 99.99
75 21.2
76 1.1
81 2.1
82 0.12
83 7.3
84 3
85 2.9
87 5.74
88 4.6
95 1.5
96 0.8
97 0.51
98 2.1
101 3.9
111 1.7
115 0.13
116 0.7
129 3.1
130 0.7
143 0.76
144 0.9
157 1
171 0.5
185 0.12
199 2.3
200 0.5
213 0.9
241 0.08
255 3.3
267 1.1
269 0.6
298 0.34
299 0.7

>  <PREDICTED SPECTRUM>  (2844) 
15 90
16 12
17 49
18 85
26 7
27 136
28 100
29 232
30 43
31 64
32 22
33 10
34 3
38 9
39 147
40 98
41 439
42 194
43 542
44 124
45 110
51 50
52 18
53 165
54 186
55 699
56 355
57 648
58 127
59 264
60 50
61 60
62 31
65 28
66 17
67 281
68 211
69 551
70 275
71 436
72 68
73 94
74 999
75 570
76 96
77 56
79 91
80 71
81 272
82 244
83 479
84 348
85 342
86 53
87 852
88 177
89 50
93 97
94 73
95 252
96 231
97 461
98 351
99 150
100 76
101 285
102 138
103 58
107 92
108 107
109 177
110 163
111 323
112 209
113 161
114 31
115 261
116 137
117 45
121 125
122 48
123 141
124 101
125 219
126 144
127 60
128 27
129 291
130 161
131 6
134 7
135 129
136 27
137 103
138 117
139 185
140 96
141 122
143 398
144 115
145 37
146 5
149 94
150 0
151 78
152 72
153 170
154 75
157 154
158 76
159 61
163 115
165 11
166 80
167 97
168 70
169 8
171 203
172 70
173 2
180 35
181 70
182 57
183 14
185 69
186 27
191 27
194 34
195 78
196 63
199 230
200 67
201 83
207 3
209 33
210 1
213 141
214 8
215 5
222 102
223 62
224 66
225 26
227 86
228 76
230 37
233 0
237 10
238 41
239 4
241 176
242 63
248 35
249 113
250 21
251 3
255 310
256 124
257 4
265 6
266 77
267 281
268 140
269 108
283 25
297 72
298 518
299 240
300 62
301 3

$$$$

     RDKit          2D

 19 18  0  0  0  0  0  0  0  0999 V2000
  -16.2380   10.1250    0.0000 C   0  0  0  0  0  0  0  0  0  0  0  0
    5.8457    9.3750    0.0000 C   0  0  0  0  0  0  0  0  0  0  0  0
  -14.9389    9.3750    0.0000 C   0  0  0  0  0  0  0  0  0  0  0  0
  -13.6399   10.1250    0.0000 C   0  0  0  0  0  0  0  0  0  0  0  0
  -12.3409    9.3750    0.0000 C   0  0  0  0  0  0  0  0  0  0  0  0
  -11.0418   10.1250    0.0000 C   0  0  0  0  0  0  0  0  0  0  0  0
   -9.7428    9.3750    0.0000 C   0  0  0  0  0  0  0  0  0  0  0  0
   -8.4437   10.1250    0.0000 C   0  0  0  0  0  0  0  0  0  0  0  0
   -7.1447    9.3750    0.0000 C   0  0  0  0  0  0  0  0  0  0  0  0
   -5.8457   10.1250    0.0000 C   0  0  0  0  0  0  0  0  0  0  0  0
   -4.5466    9.3750    0.0000 C   0  0  0  0  0  0  0  0  0  0  0  0
   -3.2476   10.1250    0.0000 C   0  0  0  0  0  0  0  0  0  0  0  0
   -1.9486    9.3750    0.0000 C   0  0  0  0  0  0  0  0  0  0  0  0
   -0.6495   10.1250    0.0000 C   0  0  0  0  0  0  0  0  0  0  0  0
    0.6495    9.3750    0.0000 C   0  0  0  0  0  0  0  0  0  0  0  0
    1.9486   10.1250    0.0000 C   0  0  0  0  0  0  0  0  0  0  0  0
    3.2476    9.3750    0.0000 C   0  0  0  0  0  0  0  0  0  0  0  0
    3.2476    7.8750    0.0000 O   0  0  0  0  0  0  0  0  0  0  0  0
    4.5466   10.1250    0.0000 O   0  0  0  0  0  0  0  0  0  0  0  0
  3  1  1  0
  4  3  1  0
  5  4  1  0
  6  5  1  0
  7  6  1  0
  8  7  1  0
  9  8  1  0
 10  9  1  0
 11 10  1  0
 12 11  1  0
 13 12  1  0
 14 13  1  0
 15 14  1  0
 16 15  1  0
 17 16  1  0
 18 17  2  0
 19  2  1  0
 19 17  1  0
M  END
>  <NAME>  (2845) 
METHYL HEXADECANOATE

>  <SYNONYMS>  (2845) 
METHYL PALMITATE

>  <SPECTRUM TYPE>  (2845) 
MS1

>  <INSTRUMENT TYPE>  (2845) 
EI-B

>  <INSTRUMENT>  (2845) 
SHIMADZU QP-1000

>  <ION MODE>  (2845) 
P

>  <INCHIKEY>  (2845) 
FLIACVVOZYBSBS-UHFFFAOYSA-N

>  <FORMULA>  (2845) 
C17H34O2

>  <EXACT MASS>  (2845) 
270.255880328

>  <MW>  (2845) 
270

>  <ID>  (2845) 
JP007712

>  <CONTRIBUTOR>  (2845) 
University of Tokyo Team, {Faculty of Engineering, University of Tokyo

>  <COMMENT>  (2845) 
SMILES=CCCCCCCCCCCCCCCC(=O)OC
cas=112-39-0
InChI=InChI=1S/C17H34O2/c1-3-4-5-6-7-8-9-10-11-12-13-14-15-16-17(18)19-2/h3-16H2,1-2H3
computed SMILES=O=C(OC)CCCCCCCCCCCCCCC
accession=JP007712
date=2016.01.19 (Created 2008.10.21, modified 2011.05.06)
author=KYOTO INSTITUTE OF TECHNOLOGY
license=CC BY-NC-SA
exact mass=270.25588
ionization energy=70 eV
ion type=[M]+*
computed spectral entropy=2.612877618793351
computed normalized entropy=0.6407979460001166
SPLASH=splash10-05fr-9000000000-baccd6187fe64ba0fb81
submitter=submitter = University of Tokyo Team (Faculty of Engineering, University of Tokyo)
MoNA Rating=3.75

>  <NUM PEAKS>  (2845) 
59

>  <MASS SPECTRAL PEAKS>  (2845) 
40 1.3
41 42
42 9
43 5.74
44 3
45 1.8
53 1.8
54 0.21
55 30.9
56 5.7
57 18.7
58 0.12
59 10.3
67 2.7
68 1.3
69 1.21
70 2.2
71 4.9
73 2.1
74 99.99
75 17.7
76 1
81 1.7
82 0.07
83 5.7
84 2.6
85 2
87 4.95
88 4
95 1
96 0.5
97 0.34
98 1.5
101 3.1
111 0.9
115 0.11
116 0.4
129 2.4
130 0.5
143 0.49
144 0.5
157 0.5
158 0.1
171 0.11
172 0.2
185 1.1
186 0.2
199 0.1
200 0.1
213 0.4
214 0.1
227 0.22
228 0.4
239 1
240 0.2
241 0.06
242 0.1
270 1.5
271 0.4

>  <PREDICTED SPECTRUM>  (2845) 
15 77
16 17
17 48
18 86
26 20
27 194
28 141
29 270
30 51
31 44
32 30
33 21
34 11
37 4
38 20
39 199
40 119
41 501
42 235
43 584
44 117
45 111
50 2
51 52
52 32
53 185
54 194
55 696
56 361
57 597
58 133
59 271
60 61
61 71
62 11
65 47
66 29
67 278
68 205
69 531
70 267
71 394
72 92
73 175
74 999
75 539
76 91
77 64
79 108
80 83
81 277
82 242
83 464
84 355
85 317
86 34
87 826
88 203
89 49
93 122
94 84
95 264
96 243
97 442
98 376
99 128
100 58
101 264
102 134
103 20
106 18
107 114
108 82
109 171
110 164
111 312
112 209
113 162
114 16
115 215
116 127
117 84
121 119
122 12
123 131
124 79
125 210
126 112
127 15
129 270
130 147
131 63
134 0
135 148
136 3
137 60
138 138
139 177
140 104
141 90
143 346
144 126
149 30
152 66
153 110
154 115
155 61
157 99
158 25
159 31
163 63
165 49
166 29
167 87
168 84
169 3
171 221
172 81
173 104
174 7
180 1
181 44
182 17
184 9
185 135
186 10
187 31
194 120
195 96
196 93
197 72
198 1
199 108
200 58
202 35
205 2
209 10
211 17
213 166
214 63
220 68
221 91
222 27
227 292
228 120
238 136
239 352
240 142
241 125
255 44
269 29
270 442
271 209
272 61

$$$$

     RDKit          2D

 18 17  0  0  0  0  0  0  0  0999 V2000
    5.1962    9.0000    0.0000 C   0  0  0  0  0  0  0  0  0  0  0  0
  -15.5885    9.0000    0.0000 C   0  0  0  0  0  0  0  0  0  0  0  0
    3.8971    9.7500    0.0000 C   0  0  0  0  0  0  0  0  0  0  0  0
    2.5981    9.0000    0.0000 C   0  0  0  0  0  0  0  0  0  0  0  0
    1.2990    9.7500    0.0000 C   0  0  0  0  0  0  0  0  0  0  0  0
    0.0000    9.0000    0.0000 C   0  0  0  0  0  0  0  0  0  0  0  0
   -1.2990    9.7500    0.0000 C   0  0  0  0  0  0  0  0  0  0  0  0
   -2.5981    9.0000    0.0000 C   0  0  0  0  0  0  0  0  0  0  0  0
   -3.8971    9.7500    0.0000 C   0  0  0  0  0  0  0  0  0  0  0  0
   -5.1962    9.0000    0.0000 C   0  0  0  0  0  0  0  0  0  0  0  0
   -6.4952    9.7500    0.0000 C   0  0  0  0  0  0  0  0  0  0  0  0
   -7.7942    9.0000    0.0000 C   0  0  0  0  0  0  0  0  0  0  0  0
   -9.0933    9.7500    0.0000 C   0  0  0  0  0  0  0  0  0  0  0  0
  -10.3923    9.0000    0.0000 C   0  0  0  0  0  0  0  0  0  0  0  0
  -11.6913    9.7500    0.0000 C   0  0  0  0  0  0  0  0  0  0  0  0
  -12.9904    9.0000    0.0000 C   0  0  0  0  0  0  0  0  0  0  0  0
  -12.9904    7.5000    0.0000 O   0  0  0  0  0  0  0  0  0  0  0  0
  -14.2894    9.7500    0.0000 O   0  0  0  0  0  0  0  0  0  0  0  0
  3  1  1  0
  4  3  1  0
  5  4  1  0
  6  5  1  0
  7  6  1  0
  8  7  1  0
  9  8  1  0
 10  9  1  0
 11 10  1  0
 12 11  1  0
 13 12  1  0
 14 13  1  0
 15 14  1  0
 16 15  1  0
 17 16  2  0
 18  2  1  0
 18 16  1  0
M  END
>  <NAME>  (2846) 
METHYL PENTADECANOATE

>  <SYNONYMS>  (2846) 


>  <SPECTRUM TYPE>  (2846) 
MS1

>  <INSTRUMENT TYPE>  (2846) 
EI-B

>  <INSTRUMENT>  (2846) 
SHIMADZU QP-1000

>  <ION MODE>  (2846) 
P

>  <INCHIKEY>  (2846) 
XIUXKAZJZFLLDQ-UHFFFAOYSA-N

>  <FORMULA>  (2846) 
C16H32O2

>  <EXACT MASS>  (2846) 
256.240230264

>  <MW>  (2846) 
256

>  <ID>  (2846) 
JP007711

>  <CONTRIBUTOR>  (2846) 
University of Tokyo Team, {Faculty of Engineering, University of Tokyo

>  <COMMENT>  (2846) 
SMILES=CCCCCCCCCCCCCCC(=O)OC
cas=7132-64-1
InChI=InChI=1S/C16H32O2/c1-3-4-5-6-7-8-9-10-11-12-13-14-15-16(17)18-2/h3-15H2,1-2H3
computed SMILES=O=C(OC)CCCCCCCCCCCCCC
accession=JP007711
date=2016.01.19 (Created 2008.10.21, modified 2011.05.06)
author=KYOTO INSTITUTE OF TECHNOLOGY
license=CC BY-NC-SA
exact mass=256.24023
ionization energy=70 eV
ion type=[M]+*
computed spectral entropy=2.690053072728776
computed normalized entropy=0.6743704766244247
SPLASH=splash10-05fr-9000000000-663b5b673ac469ab3ab9
submitter=submitter = University of Tokyo Team (Faculty of Engineering, University of Tokyo)
MoNA Rating=3.75

>  <NUM PEAKS>  (2846) 
54

>  <MASS SPECTRAL PEAKS>  (2846) 
40 1.8
41 45.4
42 9.8
43 5.6
44 3.5
45 2.1
53 2.1
54 0.22
55 30.5
56 5.7
57 16.7
58 0.11
59 11.1
67 2.5
68 1.3
69 1.2
70 2.1
71 4.3
73 2.1
74 99.99
75 15.9
76 1
81 1.7
82 0.07
83 5.9
84 2.9
85 2
87 5.43
88 4.5
95 1.2
97 3.9
98 0.18
101 4
111 1.2
115 1.3
129 0.31
130 0.6
143 6.7
144 0.7
157 0.2
158 0.3
171 1.2
172 0.2
185 0.1
186 0.2
199 1.6
200 0.2
213 0.31
214 0.5
225 1.6
226 0.3
227 0.08
256 1.9
257 0.5

>  <PREDICTED SPECTRUM>  (2846) 
15 87
16 17
17 44
18 80
26 28
27 200
28 147
29 272
30 36
31 45
32 39
33 24
34 4
37 6
38 24
39 213
40 102
41 521
42 255
43 603
44 140
45 119
51 61
52 37
53 194
54 202
55 691
56 368
57 572
58 141
59 279
60 142
61 83
62 10
65 53
66 39
67 268
68 197
69 517
70 263
71 374
72 64
73 196
74 999
75 521
76 109
77 70
79 123
80 76
81 279
82 235
83 454
84 364
85 300
86 48
87 819
88 199
89 24
91 17
93 127
94 81
95 261
96 242
97 437
98 378
99 150
100 3
101 239
102 105
103 66
104 0
107 102
108 56
109 154
110 154
111 315
112 208
113 131
115 220
116 146
117 95
121 142
122 20
123 121
124 98
125 179
126 117
127 73
129 315
130 145
135 46
137 12
138 122
139 159
140 124
141 95
143 224
144 75
145 29
149 79
151 63
152 42
153 108
154 91
155 26
157 193
158 63
159 93
160 9
165 6
166 4
167 52
168 40
170 9
171 158
172 23
173 65
180 136
181 120
182 76
183 89
184 9
185 71
186 61
188 5
191 8
195 4
196 37
197 4
199 177
200 60
201 10
206 70
207 115
208 25
213 302
214 125
224 110
225 293
226 125
227 116
241 52
255 29
256 388
257 178
258 52

$$$$

     RDKit          2D

 23 22  0  0  0  0  0  0  0  0999 V2000
    7.1447   12.3750    0.0000 C   0  0  0  0  0  0  0  0  0  0  0  0
    5.8457   13.1250    0.0000 C   0  0  0  0  0  0  0  0  0  0  0  0
    4.5466   12.3750    0.0000 C   0  0  0  0  0  0  0  0  0  0  0  0
    3.2476   13.1250    0.0000 C   0  0  0  0  0  0  0  0  0  0  0  0
    1.9486   12.3750    0.0000 C   0  0  0  0  0  0  0  0  0  0  0  0
    0.6495   13.1250    0.0000 C   0  0  0  0  0  0  0  0  0  0  0  0
   -0.6495   12.3750    0.0000 C   0  0  0  0  0  0  0  0  0  0  0  0
   -1.9486   13.1250    0.0000 C   0  0  0  0  0  0  0  0  0  0  0  0
   -3.2476   12.3750    0.0000 C   0  0  0  0  0  0  0  0  0  0  0  0
   -4.5466   13.1250    0.0000 C   0  0  0  0  0  0  0  0  0  0  0  0
   -5.8457   12.3750    0.0000 C   0  0  0  0  0  0  0  0  0  0  0  0
   -7.1447   13.1250    0.0000 C   0  0  0  0  0  0  0  0  0  0  0  0
   -8.4437   12.3750    0.0000 C   0  0  0  0  0  0  0  0  0  0  0  0
   -9.7428   13.1250    0.0000 C   0  0  0  0  0  0  0  0  0  0  0  0
  -11.0418   12.3750    0.0000 C   0  0  0  0  0  0  0  0  0  0  0  0
  -12.3409   13.1250    0.0000 C   0  0  0  0  0  0  0  0  0  0  0  0
  -13.6399   12.3750    0.0000 C   0  0  0  0  0  0  0  0  0  0  0  0
  -14.9389   13.1250    0.0000 C   0  0  0  0  0  0  0  0  0  0  0  0
  -16.2380   12.3750    0.0000 C   0  0  0  0  0  0  0  0  0  0  0  0
  -17.5370   13.1250    0.0000 C   0  0  0  0  0  0  0  0  0  0  0  0
  -18.8361   12.3750    0.0000 C   0  0  0  0  0  0  0  0  0  0  0  0
  -20.1351   13.1250    0.0000 C   0  0  0  0  0  0  0  0  0  0  0  0
  -21.4341   12.3750    0.0000 O   0  0  0  0  0  0  0  0  0  0  0  0
  2  1  1  0
  3  2  1  0
  4  3  1  0
  5  4  1  0
  6  5  1  0
  7  6  1  0
  8  7  1  0
  9  8  1  0
 10  9  1  0
 11 10  1  0
 12 11  1  0
 13 12  1  0
 14 13  1  0
 15 14  1  0
 16 15  1  0
 17 16  1  0
 18 17  1  0
 19 18  1  0
 20 19  1  0
 21 20  1  0
 22 21  1  0
 23 22  1  0
M  END
>  <NAME>  (2847) 
1-DOCOSANOL

>  <SYNONYMS>  (2847) 


>  <SPECTRUM TYPE>  (2847) 
MS1

>  <INSTRUMENT TYPE>  (2847) 
EI-B

>  <INSTRUMENT>  (2847) 
SHIMADZU QP-1000

>  <ION MODE>  (2847) 
P

>  <INCHIKEY>  (2847) 
NOPFSRXAKWQILS-UHFFFAOYSA-N

>  <FORMULA>  (2847) 
C22H46O

>  <EXACT MASS>  (2847) 
326.354866092

>  <MW>  (2847) 
326

>  <ID>  (2847) 
JP007710

>  <CONTRIBUTOR>  (2847) 
University of Tokyo Team, {Faculty of Engineering, University of Tokyo

>  <COMMENT>  (2847) 
SMILES=CCCCCCCCCCCCCCCCCCCCCCO
cas=661-19-8
InChI=InChI=1S/C22H46O/c1-2-3-4-5-6-7-8-9-10-11-12-13-14-15-16-17-18-19-20-21-22-23/h23H,2-22H2,1H3
computed SMILES=OCCCCCCCCCCCCCCCCCCCCCC
accession=JP007710
date=2016.01.19 (Created 2008.10.21, modified 2011.05.06)
author=KYOTO INSTITUTE OF TECHNOLOGY
license=CC BY-NC-SA
exact mass=326.35487
ionization energy=70 eV
ion type=[M]+*
computed spectral entropy=2.8184126050465728
computed normalized entropy=0.7065489789246164
SPLASH=splash10-0a4l-9000000000-809da2804db4c444826e
submitter=submitter = University of Tokyo Team (Faculty of Engineering, University of Tokyo)
MoNA Rating=3.75

>  <NUM PEAKS>  (2847) 
54

>  <MASS SPECTRAL PEAKS>  (2847) 
40 2
41 66.3
42 18.2
43 99.99
44 6.3
45 1.7
53 2.4
54 0.77
55 69.7
56 32
57 70.1
58 0.34
66 1
67 9.9
68 19.1
69 4.33
70 21.6
71 25.5
72 1.5
73 0.22
81 5.4
82 20.3
83 39.7
84 1.19
85 12.1
95 2.7
96 7.2
97 2.91
98 6.2
99 2.3
109 1
110 0.22
111 11.9
112 3.2
113 1.1
124 0.11
125 4.8
126 1.5
138 0.6
139 0.15
140 0.8
153 0.7
154 0.5
166 0.03
167 0.4
168 0.3
180 0.2
181 0.02
182 0.2
195 0.2
196 0.2
210 0.01
280 0.3
308 0.1

>  <PREDICTED SPECTRUM>  (2847) 
17 15
18 33
25 7
26 67
27 191
28 135
29 377
30 37
31 190
32 20
38 10
39 193
40 94
41 716
42 349
43 934
44 229
45 118
46 2
47 41
51 28
52 36
53 216
54 378
55 941
56 587
57 990
58 180
59 136
60 32
61 6
65 109
66 214
67 620
68 659
69 956
70 559
71 708
72 154
73 60
74 24
77 51
78 46
79 176
80 137
81 598
82 911
83 999
84 448
85 518
86 127
87 41
91 98
93 82
94 94
95 508
96 693
97 894
98 396
99 231
104 4
105 3
107 35
109 402
110 418
111 627
112 321
113 192
114 89
115 52
119 34
122 40
123 328
124 362
125 423
126 271
127 141
128 13
136 1
137 213
138 291
139 274
140 183
141 99
142 7
151 103
152 274
153 240
154 184
155 101
164 37
165 98
166 170
167 156
168 175
169 69
179 3
180 122
181 160
182 142
183 93
192 1
193 23
194 166
195 142
196 130
197 59
207 38
208 86
209 90
210 110
211 52
213 20
222 75
223 60
224 93
225 73
236 124
237 113
238 79
239 32
250 122
251 75
252 162
253 30
264 8
265 14
266 17
267 1
279 25
280 264
281 90
282 10
292 8
295 29
308 303
309 196

$$$$

     RDKit          2D

 20 19  0  0  0  0  0  0  0  0999 V2000
    6.4952   10.5000    0.0000 C   0  0  0  0  0  0  0  0  0  0  0  0
    5.1962   11.2500    0.0000 C   0  0  0  0  0  0  0  0  0  0  0  0
    3.8971   10.5000    0.0000 C   0  0  0  0  0  0  0  0  0  0  0  0
    2.5981   11.2500    0.0000 C   0  0  0  0  0  0  0  0  0  0  0  0
    1.2990   10.5000    0.0000 C   0  0  0  0  0  0  0  0  0  0  0  0
    0.0000   11.2500    0.0000 C   0  0  0  0  0  0  0  0  0  0  0  0
   -1.2990   10.5000    0.0000 C   0  0  0  0  0  0  0  0  0  0  0  0
   -2.5981   11.2500    0.0000 C   0  0  0  0  0  0  0  0  0  0  0  0
   -3.8971   10.5000    0.0000 C   0  0  0  0  0  0  0  0  0  0  0  0
   -5.1962   11.2500    0.0000 C   0  0  0  0  0  0  0  0  0  0  0  0
   -6.4952   10.5000    0.0000 C   0  0  0  0  0  0  0  0  0  0  0  0
   -7.7942   11.2500    0.0000 C   0  0  0  0  0  0  0  0  0  0  0  0
   -9.0933   10.5000    0.0000 C   0  0  0  0  0  0  0  0  0  0  0  0
  -10.3923   11.2500    0.0000 C   0  0  0  0  0  0  0  0  0  0  0  0
  -11.6913   10.5000    0.0000 C   0  0  0  0  0  0  0  0  0  0  0  0
  -12.9904   11.2500    0.0000 C   0  0  0  0  0  0  0  0  0  0  0  0
  -14.2894   10.5000    0.0000 C   0  0  0  0  0  0  0  0  0  0  0  0
  -15.5885   11.2500    0.0000 C   0  0  0  0  0  0  0  0  0  0  0  0
  -16.8875   10.5000    0.0000 C   0  0  0  0  0  0  0  0  0  0  0  0
  -18.1865   11.2500    0.0000 O   0  0  0  0  0  0  0  0  0  0  0  0
  2  1  1  0
  3  2  1  0
  4  3  1  0
  5  4  1  0
  6  5  1  0
  7  6  1  0
  8  7  1  0
  9  8  1  0
 10  9  1  0
 11 10  1  0
 12 11  1  0
 13 12  1  0
 14 13  1  0
 15 14  1  0
 16 15  1  0
 17 16  1  0
 18 17  1  0
 19 18  1  0
 20 19  1  0
M  END
>  <NAME>  (2848) 
1-NONADECANOL

>  <SYNONYMS>  (2848) 


>  <SPECTRUM TYPE>  (2848) 
MS1

>  <INSTRUMENT TYPE>  (2848) 
EI-B

>  <INSTRUMENT>  (2848) 
SHIMADZU QP-1000

>  <ION MODE>  (2848) 
P

>  <INCHIKEY>  (2848) 
XGFDHKJUZCCPKQ-UHFFFAOYSA-N

>  <FORMULA>  (2848) 
C19H40O

>  <EXACT MASS>  (2848) 
284.3079159

>  <MW>  (2848) 
284

>  <ID>  (2848) 
JP007709

>  <CONTRIBUTOR>  (2848) 
University of Tokyo Team, {Faculty of Engineering, University of Tokyo

>  <COMMENT>  (2848) 
SMILES=CCCCCCCCCCCCCCCCCCCO
cas=1454-84-8
InChI=InChI=1S/C19H40O/c1-2-3-4-5-6-7-8-9-10-11-12-13-14-15-16-17-18-19-20/h20H,2-19H2,1H3
computed SMILES=OCCCCCCCCCCCCCCCCCCC
accession=JP007709
date=2016.01.19 (Created 2008.10.21, modified 2011.05.06)
author=KYOTO INSTITUTE OF TECHNOLOGY
license=CC BY-NC-SA
exact mass=284.30792
ionization energy=70 eV
ion type=[M]+*
computed spectral entropy=2.814545118729167
computed normalized entropy=0.7123187834486815
SPLASH=splash10-052f-9000000000-613bfd8a65e64d9bbc76
submitter=submitter = University of Tokyo Team (Faculty of Engineering, University of Tokyo)
MoNA Rating=3.75

>  <NUM PEAKS>  (2848) 
52

>  <MASS SPECTRAL PEAKS>  (2848) 
40 2.1
41 78.1
42 19.8
43 99.99
44 6
45 1.9
53 2.8
54 0.79
55 7.2
56 34.6
57 67.9
58 0.29
66 1
67 9.8
68 21
69 4.88
70 24.3
71 23.2
72 1.3
73 0.14
81 5.3
82 20.8
83 42.3
84 1.38
85 11
95 2.3
96 6.5
97 2.93
98 7
99 2
109 0.8
110 0.23
111 12.5
112 3.8
113 0.9
124 0.13
125 5
126 2
138 0.7
139 0.16
140 1.1
153 0.8
154 0.7
167 0.04
168 0.5
181 0.2
182 0.3
195 0.02
196 0.2
210 0.2
238 0.3
266 0.2

>  <PREDICTED SPECTRUM>  (2848) 
17 10
18 28
25 6
26 65
27 208
28 126
29 403
30 23
31 217
32 20
38 20
39 232
40 110
41 780
42 391
43 935
44 256
45 151
46 7
47 33
51 41
52 32
53 240
54 397
55 981
56 637
57 995
58 169
59 121
60 4
65 107
66 204
67 605
68 655
69 991
70 612
71 680
72 155
73 79
76 7
77 68
78 46
79 176
80 131
81 576
82 877
83 999
84 476
85 489
86 125
87 24
91 77
92 4
93 81
94 76
95 474
96 653
97 876
98 419
99 224
100 50
101 20
107 3
109 370
110 379
111 605
112 315
113 174
114 65
115 20
122 61
123 284
124 341
125 409
126 280
127 116
128 21
134 15
137 154
138 254
139 247
140 180
141 65
150 40
151 100
152 226
153 212
154 186
155 56
157 22
165 78
166 128
167 118
168 160
169 49
171 43
179 6
180 91
181 131
182 136
183 84
184 6
194 99
195 163
196 132
197 52
207 5
208 54
209 101
210 159
211 49
223 31
224 59
225 69
236 77
237 83
238 304
239 143
250 21
253 39
266 180
267 115

$$$$

     RDKit          2D

 18 17  0  0  0  0  0  0  0  0999 V2000
  -16.2380   10.1250    0.0000 C   0  0  0  0  0  0  0  0  0  0  0  0
  -14.9389    9.3750    0.0000 C   0  0  0  0  0  0  0  0  0  0  0  0
  -13.6399   10.1250    0.0000 C   0  0  0  0  0  0  0  0  0  0  0  0
  -12.3409    9.3750    0.0000 C   0  0  0  0  0  0  0  0  0  0  0  0
  -11.0418   10.1250    0.0000 C   0  0  0  0  0  0  0  0  0  0  0  0
   -9.7428    9.3750    0.0000 C   0  0  0  0  0  0  0  0  0  0  0  0
   -8.4437   10.1250    0.0000 C   0  0  0  0  0  0  0  0  0  0  0  0
   -7.1447    9.3750    0.0000 C   0  0  0  0  0  0  0  0  0  0  0  0
   -5.8457   10.1250    0.0000 C   0  0  0  0  0  0  0  0  0  0  0  0
   -4.5466    9.3750    0.0000 C   0  0  0  0  0  0  0  0  0  0  0  0
   -3.2476   10.1250    0.0000 C   0  0  0  0  0  0  0  0  0  0  0  0
   -1.9486    9.3750    0.0000 C   0  0  0  0  0  0  0  0  0  0  0  0
   -0.6495   10.1250    0.0000 C   0  0  0  0  0  0  0  0  0  0  0  0
    0.6495    9.3750    0.0000 C   0  0  0  0  0  0  0  0  0  0  0  0
    1.9486   10.1250    0.0000 C   0  0  0  0  0  0  0  0  0  0  0  0
    3.2476    9.3750    0.0000 C   0  0  0  0  0  0  0  0  0  0  0  0
    4.5466   10.1250    0.0000 C   0  0  0  0  0  0  0  0  0  0  0  0
    5.8457    9.3750    0.0000 O   0  0  0  0  0  0  0  0  0  0  0  0
  2  1  1  0
  3  2  1  0
  4  3  1  0
  5  4  1  0
  6  5  1  0
  7  6  1  0
  8  7  1  0
  9  8  1  0
 10  9  1  0
 11 10  1  0
 12 11  1  0
 13 12  1  0
 14 13  1  0
 15 14  1  0
 16 15  1  0
 17 16  1  0
 18 17  1  0
M  END
>  <NAME>  (2849) 
1-HEPTADECANOL

>  <SYNONYMS>  (2849) 


>  <SPECTRUM TYPE>  (2849) 
MS1

>  <INSTRUMENT TYPE>  (2849) 
EI-B

>  <INSTRUMENT>  (2849) 
SHIMADZU QP-1000

>  <ION MODE>  (2849) 
P

>  <INCHIKEY>  (2849) 
GOQYKNQRPGWPLP-UHFFFAOYSA-N

>  <FORMULA>  (2849) 
C17H36O

>  <EXACT MASS>  (2849) 
256.276615772

>  <MW>  (2849) 
256

>  <ID>  (2849) 
JP007707

>  <CONTRIBUTOR>  (2849) 
University of Tokyo Team, {Faculty of Engineering, University of Tokyo

>  <COMMENT>  (2849) 
SMILES=CCCCCCCCCCCCCCCCCO
cas=1454-85-9
InChI=InChI=1S/C17H36O/c1-2-3-4-5-6-7-8-9-10-11-12-13-14-15-16-17-18/h18H,2-17H2,1H3
computed SMILES=OCCCCCCCCCCCCCCCCC
accession=JP007707
date=2016.01.19 (Created 2008.10.21, modified 2011.05.06)
author=KYOTO INSTITUTE OF TECHNOLOGY
license=CC BY-NC-SA
exact mass=256.27662
ionization energy=70 eV
ion type=[M]+*
computed spectral entropy=2.7935260468730885
computed normalized entropy=0.7216174099463615
SPLASH=splash10-052f-9000000000-45c09c9ad7cfe2c1e9b6
submitter=submitter = University of Tokyo Team (Faculty of Engineering, University of Tokyo)
MoNA Rating=3.75

>  <NUM PEAKS>  (2849) 
48

>  <MASS SPECTRAL PEAKS>  (2849) 
40 3.1
41 86
42 21.4
43 99.99
44 6.8
45 2.2
53 3.4
54 0.8
55 76.3
56 40.2
57 63.3
58 0.31
66 1
67 11
68 22.2
69 5.23
70 29.7
71 22.1
72 1.4
73 0.14
81 5.4
82 21.3
83 45.9
84 1.71
85 10.3
95 2.3
96 6.8
97 3.11
98 8.8
99 2
110 2.5
111 1.37
112 4.4
113 0.9
124 1.2
125 0.52
126 2.4
138 0.6
139 1.5
140 0.14
153 0.7
154 0.7
167 0.3
168 0.05
182 0.4
196 0.5
210 0.6
238 0.1

>  <PREDICTED SPECTRUM>  (2849) 
17 6
18 15
25 6
26 65
27 207
28 130
29 402
30 13
31 209
32 20
38 18
39 266
40 122
41 829
42 418
43 912
44 272
45 141
46 1
47 27
50 16
51 55
52 37
53 251
54 413
55 997
56 676
57 975
58 160
59 115
61 39
65 91
66 187
67 576
68 628
69 999
70 638
71 648
72 154
73 61
76 10
77 10
78 10
79 150
80 97
81 541
82 824
83 973
84 492
85 458
86 112
87 39
88 3
91 17
92 11
93 45
94 77
95 441
96 603
97 834
98 415
99 202
100 47
101 11
104 49
105 21
107 43
109 334
110 333
111 574
112 309
113 135
114 51
115 14
122 50
123 221
124 309
125 376
126 270
127 87
129 39
137 128
138 217
139 218
140 194
141 28
143 73
144 32
147 3
151 84
152 165
153 182
154 174
155 58
164 25
165 31
166 71
167 100
168 146
169 42
180 76
181 125
182 174
183 77
195 31
196 60
197 34
209 78
210 271
211 103
225 60
236 3
238 314
239 149

$$$$

     RDKit          2D

 17 16  0  0  0  0  0  0  0  0999 V2000
  -15.5885    9.0000    0.0000 C   0  0  0  0  0  0  0  0  0  0  0  0
  -14.2894    8.2500    0.0000 C   0  0  0  0  0  0  0  0  0  0  0  0
  -12.9904    9.0000    0.0000 C   0  0  0  0  0  0  0  0  0  0  0  0
  -11.6913    8.2500    0.0000 C   0  0  0  0  0  0  0  0  0  0  0  0
  -10.3923    9.0000    0.0000 C   0  0  0  0  0  0  0  0  0  0  0  0
   -9.0933    8.2500    0.0000 C   0  0  0  0  0  0  0  0  0  0  0  0
   -7.7942    9.0000    0.0000 C   0  0  0  0  0  0  0  0  0  0  0  0
   -6.4952    8.2500    0.0000 C   0  0  0  0  0  0  0  0  0  0  0  0
   -5.1962    9.0000    0.0000 C   0  0  0  0  0  0  0  0  0  0  0  0
   -3.8971    8.2500    0.0000 C   0  0  0  0  0  0  0  0  0  0  0  0
   -2.5981    9.0000    0.0000 C   0  0  0  0  0  0  0  0  0  0  0  0
   -1.2990    8.2500    0.0000 C   0  0  0  0  0  0  0  0  0  0  0  0
    0.0000    9.0000    0.0000 C   0  0  0  0  0  0  0  0  0  0  0  0
    1.2990    8.2500    0.0000 C   0  0  0  0  0  0  0  0  0  0  0  0
    2.5981    9.0000    0.0000 C   0  0  0  0  0  0  0  0  0  0  0  0
    3.8971    8.2500    0.0000 C   0  0  0  0  0  0  0  0  0  0  0  0
    5.1962    9.0000    0.0000 O   0  0  0  0  0  0  0  0  0  0  0  0
  2  1  1  0
  3  2  1  0
  4  3  1  0
  5  4  1  0
  6  5  1  0
  7  6  1  0
  8  7  1  0
  9  8  1  0
 10  9  1  0
 11 10  1  0
 12 11  1  0
 13 12  1  0
 14 13  1  0
 15 14  1  0
 16 15  1  0
 17 16  1  0
M  END
>  <NAME>  (2850) 
1-HEXADECANOL

>  <SYNONYMS>  (2850) 


>  <SPECTRUM TYPE>  (2850) 
MS1

>  <INSTRUMENT TYPE>  (2850) 
EI-B

>  <INSTRUMENT>  (2850) 
SHIMADZU QP-1000

>  <ION MODE>  (2850) 
P

>  <INCHIKEY>  (2850) 
BXWNKGSJHAJOGX-UHFFFAOYSA-N

>  <FORMULA>  (2850) 
C16H34O

>  <EXACT MASS>  (2850) 
242.26096570800001

>  <MW>  (2850) 
242

>  <ID>  (2850) 
JP007706

>  <CONTRIBUTOR>  (2850) 
University of Tokyo Team, {Faculty of Engineering, University of Tokyo

>  <COMMENT>  (2850) 
SMILES=CCCCCCCCCCCCCCCCO
cas=36653-82-4
InChI=InChI=1S/C16H34O/c1-2-3-4-5-6-7-8-9-10-11-12-13-14-15-16-17/h17H,2-16H2,1H3
computed SMILES=OCCCCCCCCCCCCCCCC
accession=JP007706
date=2016.01.19 (Created 2008.10.21, modified 2011.05.06)
author=KYOTO INSTITUTE OF TECHNOLOGY
license=CC BY-NC-SA
exact mass=242.26097
ionization energy=70 eV
ion type=[M]+*
computed spectral entropy=2.7452861457907067
computed normalized entropy=0.7091561864277541
SPLASH=splash10-0a4l-9000000000-83f0c3f9a7d1a2d70b83
submitter=submitter = University of Tokyo Team (Faculty of Engineering, University of Tokyo)
MoNA Rating=3.75

>  <NUM PEAKS>  (2850) 
48

>  <MASS SPECTRAL PEAKS>  (2850) 
40 3
41 9.18
42 22.8
43 99.99
44 5.9
45 2.2
53 3.4
54 0.75
55 70.7
56 37.9
57 55.1
58 0.24
66 1
67 9.1
68 18.9
69 4.39
70 26.4
71 16.7
72 1
73 0.1
81 3.9
82 17.3
83 37.8
84 1.45
85 7.6
95 1.5
96 5.2
97 2.41
98 7.2
99 1.3
110 2
111 1.05
112 3.8
113 0.6
124 0.9
125 0.38
126 1.9
138 0.4
139 1
140 0.09
153 0.4
154 0.5
167 0.2
168 0.04
182 0.1
196 0.6
197 0.1
224 0.2

>  <PREDICTED SPECTRUM>  (2850) 
18 11
25 6
26 66
27 227
28 144
29 417
30 48
31 231
32 21
37 2
38 29
39 289
40 132
41 849
42 429
43 904
44 272
45 83
47 27
50 30
51 56
52 36
53 257
54 414
55 998
56 696
57 963
58 168
59 124
61 4
65 74
66 171
67 556
68 609
69 999
70 650
71 636
72 152
73 61
74 12
76 20
77 7
78 56
79 146
80 119
81 517
82 788
83 952
84 491
85 435
86 105
87 38
88 13
91 82
92 10
93 75
94 49
95 416
96 565
97 800
98 411
99 199
100 27
101 22
107 40
108 8
109 309
110 302
111 554
112 303
113 122
114 23
115 54
123 189
124 290
125 357
126 265
127 75
129 69
130 16
137 107
138 179
139 190
140 190
141 33
148 1
151 46
152 137
153 172
154 173
155 50
166 56
167 83
168 165
169 50
180 20
181 48
182 46
183 49
195 109
196 291
197 98
207 4
211 44
224 281
225 71

$$$$

     RDKit          2D

 16 15  0  0  0  0  0  0  0  0999 V2000
    5.1962    8.2500    0.0000 C   0  0  0  0  0  0  0  0  0  0  0  0
    3.8971    9.0000    0.0000 C   0  0  0  0  0  0  0  0  0  0  0  0
    2.5981    8.2500    0.0000 C   0  0  0  0  0  0  0  0  0  0  0  0
    1.2990    9.0000    0.0000 C   0  0  0  0  0  0  0  0  0  0  0  0
    0.0000    8.2500    0.0000 C   0  0  0  0  0  0  0  0  0  0  0  0
   -1.2990    9.0000    0.0000 C   0  0  0  0  0  0  0  0  0  0  0  0
   -2.5981    8.2500    0.0000 C   0  0  0  0  0  0  0  0  0  0  0  0
   -3.8971    9.0000    0.0000 C   0  0  0  0  0  0  0  0  0  0  0  0
   -5.1962    8.2500    0.0000 C   0  0  0  0  0  0  0  0  0  0  0  0
   -6.4952    9.0000    0.0000 C   0  0  0  0  0  0  0  0  0  0  0  0
   -7.7942    8.2500    0.0000 C   0  0  0  0  0  0  0  0  0  0  0  0
   -9.0933    9.0000    0.0000 C   0  0  0  0  0  0  0  0  0  0  0  0
  -10.3923    8.2500    0.0000 C   0  0  0  0  0  0  0  0  0  0  0  0
  -11.6913    9.0000    0.0000 C   0  0  0  0  0  0  0  0  0  0  0  0
  -12.9904    8.2500    0.0000 C   0  0  0  0  0  0  0  0  0  0  0  0
  -14.2894    9.0000    0.0000 O   0  0  0  0  0  0  0  0  0  0  0  0
  2  1  1  0
  3  2  1  0
  4  3  1  0
  5  4  1  0
  6  5  1  0
  7  6  1  0
  8  7  1  0
  9  8  1  0
 10  9  1  0
 11 10  1  0
 12 11  1  0
 13 12  1  0
 14 13  1  0
 15 14  1  0
 16 15  1  0
M  END
>  <NAME>  (2851) 
1-PENTADECANOL

>  <SYNONYMS>  (2851) 


>  <SPECTRUM TYPE>  (2851) 
MS1

>  <INSTRUMENT TYPE>  (2851) 
EI-B

>  <INSTRUMENT>  (2851) 
SHIMADZU QP-1000

>  <ION MODE>  (2851) 
P

>  <INCHIKEY>  (2851) 
REIUXOLGHVXAEO-UHFFFAOYSA-N

>  <FORMULA>  (2851) 
C15H32O

>  <EXACT MASS>  (2851) 
228.245315644

>  <MW>  (2851) 
228

>  <ID>  (2851) 
JP007705

>  <CONTRIBUTOR>  (2851) 
University of Tokyo Team, {Faculty of Engineering, University of Tokyo

>  <COMMENT>  (2851) 
SMILES=CCCCCCCCCCCCCCCO
cas=629-76-5
InChI=InChI=1S/C15H32O/c1-2-3-4-5-6-7-8-9-10-11-12-13-14-15-16/h16H,2-15H2,1H3
computed SMILES=OCCCCCCCCCCCCCCC
accession=JP007705
date=2016.01.19 (Created 2008.10.21, modified 2011.05.06)
author=KYOTO INSTITUTE OF TECHNOLOGY
license=CC BY-NC-SA
exact mass=228.24532
ionization energy=70 eV
ion type=[M]+*
computed spectral entropy=2.7827832423882826
computed normalized entropy=0.7188423526825987
SPLASH=splash10-052f-9000000000-71c3524a7341cdcd7eb6
submitter=submitter = University of Tokyo Team (Faculty of Engineering, University of Tokyo)
MoNA Rating=3.75

>  <NUM PEAKS>  (2851) 
48

>  <MASS SPECTRAL PEAKS>  (2851) 
40 3.1
41 92.8
42 24.1
43 99.99
44 5.6
45 2.2
53 3.7
54 0.82
55 78.4
56 45.3
57 57.9
58 0.26
66 1
67 10
68 21.4
69 5.02
70 32.2
71 17.6
72 1
73 0.13
81 4.1
82 18.6
83 41.9
84 1.76
85 7.9
86 0.6
95 1.5
96 0.56
97 25.4
98 8.2
99 1.3
110 0.21
111 10.5
112 4.4
113 0.6
124 0.09
125 3.7
126 2
138 0.4
139 0.1
140 1
153 0.4
154 0.7
167 0.01
168 0.2
181 0.1
182 0.8
210 0.2

>  <PREDICTED SPECTRUM>  (2851) 
17 3
18 8
25 7
26 71
27 251
28 138
29 427
30 33
31 236
32 24
37 6
38 37
39 317
40 142
41 869
42 448
43 897
44 301
45 130
46 1
47 17
50 13
51 48
52 23
53 258
54 412
55 999
56 722
57 954
58 157
59 106
60 16
61 19
65 79
66 183
67 536
68 592
69 989
70 662
71 623
72 154
73 78
74 23
76 45
77 69
78 62
79 157
80 96
81 483
82 739
83 924
84 494
85 416
86 91
87 40
91 25
93 63
94 59
95 387
96 523
97 765
98 402
99 193
100 1
101 67
104 27
107 41
109 272
110 272
111 532
112 293
113 107
114 49
115 81
116 25
123 150
124 256
125 332
126 254
127 81
128 16
137 67
138 161
139 186
140 197
141 19
152 107
153 152
154 196
155 64
164 7
167 12
168 110
169 33
180 2
181 109
182 318
183 105
184 10
197 58
210 252
211 99

$$$$

     RDKit          2D

 15 14  0  0  0  0  0  0  0  0999 V2000
    4.5466    7.8750    0.0000 C   0  0  0  0  0  0  0  0  0  0  0  0
    3.2476    8.6250    0.0000 C   0  0  0  0  0  0  0  0  0  0  0  0
    1.9486    7.8750    0.0000 C   0  0  0  0  0  0  0  0  0  0  0  0
    0.6495    8.6250    0.0000 C   0  0  0  0  0  0  0  0  0  0  0  0
   -0.6495    7.8750    0.0000 C   0  0  0  0  0  0  0  0  0  0  0  0
   -1.9486    8.6250    0.0000 C   0  0  0  0  0  0  0  0  0  0  0  0
   -3.2476    7.8750    0.0000 C   0  0  0  0  0  0  0  0  0  0  0  0
   -4.5466    8.6250    0.0000 C   0  0  0  0  0  0  0  0  0  0  0  0
   -5.8457    7.8750    0.0000 C   0  0  0  0  0  0  0  0  0  0  0  0
   -7.1447    8.6250    0.0000 C   0  0  0  0  0  0  0  0  0  0  0  0
   -8.4437    7.8750    0.0000 C   0  0  0  0  0  0  0  0  0  0  0  0
   -9.7428    8.6250    0.0000 C   0  0  0  0  0  0  0  0  0  0  0  0
  -11.0418    7.8750    0.0000 C   0  0  0  0  0  0  0  0  0  0  0  0
  -12.3409    8.6250    0.0000 C   0  0  0  0  0  0  0  0  0  0  0  0
  -13.6399    7.8750    0.0000 O   0  0  0  0  0  0  0  0  0  0  0  0
  2  1  1  0
  3  2  1  0
  4  3  1  0
  5  4  1  0
  6  5  1  0
  7  6  1  0
  8  7  1  0
  9  8  1  0
 10  9  1  0
 11 10  1  0
 12 11  1  0
 13 12  1  0
 14 13  1  0
 15 14  1  0
M  END
>  <NAME>  (2852) 
1-TETRADECANOL

>  <SYNONYMS>  (2852) 


>  <SPECTRUM TYPE>  (2852) 
MS1

>  <INSTRUMENT TYPE>  (2852) 
EI-B

>  <INSTRUMENT>  (2852) 
SHIMADZU QP-1000

>  <ION MODE>  (2852) 
P

>  <INCHIKEY>  (2852) 
HLZKNKRTKFSKGZ-UHFFFAOYSA-N

>  <FORMULA>  (2852) 
C14H30O

>  <EXACT MASS>  (2852) 
214.22966558

>  <MW>  (2852) 
214

>  <ID>  (2852) 
JP007704

>  <CONTRIBUTOR>  (2852) 
University of Tokyo Team, {Faculty of Engineering, University of Tokyo

>  <COMMENT>  (2852) 
SMILES=CCCCCCCCCCCCCCO
cas=112-72-1
InChI=InChI=1S/C14H30O/c1-2-3-4-5-6-7-8-9-10-11-12-13-14-15/h15H,2-14H2,1H3
computed SMILES=OCCCCCCCCCCCCCC
accession=JP007704
date=2016.01.19 (Created 2008.10.21, modified 2011.05.06)
author=KYOTO INSTITUTE OF TECHNOLOGY
license=CC BY-NC-SA
exact mass=214.22967
ionization energy=70 eV
ion type=[M]+*
computed spectral entropy=2.6955887438509776
computed normalized entropy=0.712329191880346
SPLASH=splash10-052f-9000000000-acacbf10a3263c94194f
submitter=submitter = University of Tokyo Team (Faculty of Engineering, University of Tokyo)
MoNA Rating=3.75

>  <NUM PEAKS>  (2852) 
44

>  <MASS SPECTRAL PEAKS>  (2852) 
40 3.5
41 95.1
42 26.2
43 99.99
44 5.8
45 2.3
53 3.7
54 0.79
55 76.1
56 46
57 52.2
58 0.23
66 1
67 9
68 19
69 4.67
70 32.1
71 14.9
72 1
81 0.33
82 16.2
83 36.2
84 17.1
85 0.63
86 1
95 1.1
96 4.6
97 2.21
98 7.8
99 1
110 1.8
111 0.89
112 3.8
124 0.7
125 3.4
126 0.19
139 0.8
140 1.2
153 0.2
154 0.02
167 0.1
168 1.1
169 0.1
196 0.2

>  <PREDICTED SPECTRUM>  (2852) 
18 6
25 10
26 75
27 259
28 155
29 454
30 104
31 257
32 28
37 3
38 37
39 350
40 157
41 900
42 473
43 904
44 313
45 134
46 31
47 26
50 53
51 71
52 60
53 264
54 410
55 999
56 760
57 941
58 156
59 105
60 23
61 11
62 5
65 95
66 174
67 511
68 574
69 979
70 682
71 607
72 151
73 84
74 1
76 21
77 36
78 55
79 147
80 97
81 443
82 683
83 883
84 494
85 387
86 74
87 85
88 3
91 59
93 62
94 20
95 364
96 478
97 722
98 393
99 180
100 24
101 89
102 29
104 53
109 220
110 229
111 498
112 282
113 124
114 76
116 7
123 93
124 228
125 297
126 244
127 71
128 11
137 9
138 138
139 161
140 239
141 33
152 16
153 112
154 134
155 26
167 59
168 222
169 83
183 53
184 20
196 246
197 80

$$$$

     RDKit          2D

 10  9  0  0  0  0  0  0  0  0999 V2000
   -8.4437    5.6250    0.0000 C   0  0  0  0  0  0  0  0  0  0  0  0
   -7.1447    4.8750    0.0000 C   0  0  0  0  0  0  0  0  0  0  0  0
   -5.8457    5.6250    0.0000 C   0  0  0  0  0  0  0  0  0  0  0  0
   -4.5466    4.8750    0.0000 C   0  0  0  0  0  0  0  0  0  0  0  0
   -3.2476    5.6250    0.0000 C   0  0  0  0  0  0  0  0  0  0  0  0
   -1.9486    4.8750    0.0000 C   0  0  0  0  0  0  0  0  0  0  0  0
   -0.6495    5.6250    0.0000 C   0  0  0  0  0  0  0  0  0  0  0  0
    0.6495    4.8750    0.0000 C   0  0  0  0  0  0  0  0  0  0  0  0
    1.9486    5.6250    0.0000 C   0  0  0  0  0  0  0  0  0  0  0  0
    3.2476    4.8750    0.0000 O   0  0  0  0  0  0  0  0  0  0  0  0
  2  1  1  0
  3  2  1  0
  4  3  1  0
  5  4  1  0
  6  5  1  0
  7  6  1  0
  8  7  1  0
  9  8  1  0
 10  9  1  0
M  END
>  <NAME>  (2853) 
1-NONANOL

>  <SYNONYMS>  (2853) 


>  <SPECTRUM TYPE>  (2853) 
MS1

>  <INSTRUMENT TYPE>  (2853) 
EI-B

>  <INSTRUMENT>  (2853) 
SHIMADZU QP-1000

>  <ION MODE>  (2853) 
P

>  <INCHIKEY>  (2853) 
ZWRUINPWMLAQRD-UHFFFAOYSA-N

>  <FORMULA>  (2853) 
C9H20O

>  <EXACT MASS>  (2853) 
144.15141526

>  <MW>  (2853) 
144

>  <ID>  (2853) 
JP007703

>  <CONTRIBUTOR>  (2853) 
University of Tokyo Team, {Faculty of Engineering, University of Tokyo

>  <COMMENT>  (2853) 
SMILES=CCCCCCCCCO
cas=143-08-8
InChI=InChI=1S/C9H20O/c1-2-3-4-5-6-7-8-9-10/h10H,2-9H2,1H3
computed SMILES=OCCCCCCCCC
accession=JP007703
date=2016.01.19 (Created 2008.10.21, modified 2011.05.06)
author=KYOTO INSTITUTE OF TECHNOLOGY
license=CC BY-NC-SA
exact mass=144.15142
ionization energy=70 eV
ion type=[M]+*
computed spectral entropy=2.4999204833952406
computed normalized entropy=0.6923227123611304
SPLASH=splash10-052f-9000000000-7317cd2db1aad9ad8ee0
submitter=submitter = University of Tokyo Team (Faculty of Engineering, University of Tokyo)
MoNA Rating=3.75

>  <NUM PEAKS>  (2853) 
37

>  <MASS SPECTRAL PEAKS>  (2853) 
40 5.1
41 99.99
42 45.6
43 8.87
44 8.1
45 13.3
51 1
53 0.4
54 5.7
55 68.3
56 75.1
57 2.65
58 2.3
59 1.5
65 0.4
67 0.45
68 12.1
69 35
70 38.3
71 0.68
73 3.6
79 0.5
81 0.9
82 0.47
83 14.8
84 10.3
85 1.8
87 0.07
89 0.9
96 1
97 9
98 0.91
99 0.7
103 0.3
105 0.5
111 0.04
126 0.3

>  <PREDICTED SPECTRUM>  (2853) 
14 0
15 9
16 5
17 0
19 21
25 12
26 81
27 373
28 159
29 498
30 89
31 334
32 44
33 30
36 9
37 45
38 95
39 468
40 209
41 940
42 597
43 843
44 337
45 301
46 101
47 86
49 9
50 108
51 148
52 82
53 278
54 333
55 999
56 953
57 746
58 111
59 118
66 80
67 361
68 445
69 829
70 797
71 436
72 139
73 155
74 37
76 13
78 16
79 99
81 278
82 342
83 671
84 409
85 228
87 21
95 107
96 239
97 426
98 427
99 160
100 20
101 46
111 116
112 113
113 50
114 23
115 28
116 41
126 149
145 54

$$$$

     RDKit          2D

  9  8  0  0  0  0  0  0  0  0999 V2000
    2.5981    4.5000    0.0000 C   0  0  0  0  0  0  0  0  0  0  0  0
    1.2990    5.2500    0.0000 C   0  0  0  0  0  0  0  0  0  0  0  0
    0.0000    4.5000    0.0000 C   0  0  0  0  0  0  0  0  0  0  0  0
   -1.2990    5.2500    0.0000 C   0  0  0  0  0  0  0  0  0  0  0  0
   -2.5981    4.5000    0.0000 C   0  0  0  0  0  0  0  0  0  0  0  0
   -3.8971    5.2500    0.0000 C   0  0  0  0  0  0  0  0  0  0  0  0
   -5.1962    4.5000    0.0000 C   0  0  0  0  0  0  0  0  0  0  0  0
   -6.4952    5.2500    0.0000 C   0  0  0  0  0  0  0  0  0  0  0  0
   -7.7942    4.5000    0.0000 O   0  0  0  0  0  0  0  0  0  0  0  0
  2  1  1  0
  3  2  1  0
  4  3  1  0
  5  4  1  0
  6  5  1  0
  7  6  1  0
  8  7  1  0
  9  8  1  0
M  END
>  <NAME>  (2854) 
1-OCTANOL

>  <SYNONYMS>  (2854) 


>  <SPECTRUM TYPE>  (2854) 
MS1

>  <INSTRUMENT TYPE>  (2854) 
EI-B

>  <INSTRUMENT>  (2854) 
SHIMADZU QP-1000

>  <ION MODE>  (2854) 
P

>  <INCHIKEY>  (2854) 
KBPLFHHGFOOTCA-UHFFFAOYSA-N

>  <FORMULA>  (2854) 
C8H18O

>  <EXACT MASS>  (2854) 
130.135765196

>  <MW>  (2854) 
130

>  <ID>  (2854) 
JP007702

>  <CONTRIBUTOR>  (2854) 
University of Tokyo Team, {Faculty of Engineering, University of Tokyo

>  <COMMENT>  (2854) 
SMILES=CCCCCCCCO
cas=111-87-5
InChI=InChI=1S/C8H18O/c1-2-3-4-5-6-7-8-9/h9H,2-8H2,1H3
computed SMILES=OCCCCCCCC
accession=JP007702
date=2016.01.19 (Created 2008.10.21, modified 2011.05.06)
author=KYOTO INSTITUTE OF TECHNOLOGY
license=CC BY-NC-SA
exact mass=130.13577
ionization energy=70 eV
ion type=[M]+*
computed spectral entropy=2.4603234950173407
computed normalized entropy=0.6669568701339705
SPLASH=splash10-0a4l-9000000000-202f21207fb4ff7503db
submitter=submitter = University of Tokyo Team (Faculty of Engineering, University of Tokyo)
MoNA Rating=3.75

>  <NUM PEAKS>  (2854) 
40

>  <MASS SPECTRAL PEAKS>  (2854) 
40 5.4
41 99.99
42 59.8
43 7.49
44 7.1
45 7
51 1.1
53 3.9
54 0.44
55 68.8
56 74.4
57 29.5
58 0.18
59 0.8
65 0.5
67 3.5
68 1.05
69 37.4
70 35.8
71 5.8
72 0.04
73 2.2
79 0.5
81 0.6
82 0.41
83 18.7
84 21.8
85 2.1
87 0.03
89 0.3
91 0.2
95 0.2
97 0.16
98 0.2
99 0.2
103 0.2
106 0.02
111 0.2
112 0.6
113 0.2

>  <PREDICTED SPECTRUM>  (2854) 
14 9
15 20
16 7
19 23
25 11
26 85
27 369
28 167
29 493
30 133
31 341
32 40
33 33
37 49
38 107
39 487
40 216
41 935
42 628
43 825
44 325
45 290
46 53
47 55
49 10
50 109
51 151
52 69
53 281
54 336
55 999
56 985
57 692
58 151
59 157
60 27
61 9
65 41
66 65
67 335
68 410
69 751
70 749
71 385
72 121
73 88
74 41
76 19
79 30
81 238
82 317
83 641
84 507
85 219
86 12
87 84
96 61
97 241
98 26
99 38
101 54
102 21
111 15
112 213
113 21

$$$$

     RDKit          2D

  8  7  0  0  0  0  0  0  0  0999 V2000
   -6.4952    4.5000    0.0000 C   0  0  0  0  0  0  0  0  0  0  0  0
   -5.1962    3.7500    0.0000 C   0  0  0  0  0  0  0  0  0  0  0  0
   -3.8971    4.5000    0.0000 C   0  0  0  0  0  0  0  0  0  0  0  0
   -2.5981    3.7500    0.0000 C   0  0  0  0  0  0  0  0  0  0  0  0
   -1.2990    4.5000    0.0000 C   0  0  0  0  0  0  0  0  0  0  0  0
    0.0000    3.7500    0.0000 C   0  0  0  0  0  0  0  0  0  0  0  0
    1.2990    4.5000    0.0000 C   0  0  0  0  0  0  0  0  0  0  0  0
    2.5981    3.7500    0.0000 O   0  0  0  0  0  0  0  0  0  0  0  0
  2  1  1  0
  3  2  1  0
  4  3  1  0
  5  4  1  0
  6  5  1  0
  7  6  1  0
  8  7  1  0
M  END
>  <NAME>  (2855) 
1-HEPTANOL

>  <SYNONYMS>  (2855) 


>  <SPECTRUM TYPE>  (2855) 
MS1

>  <INSTRUMENT TYPE>  (2855) 
EI-B

>  <INSTRUMENT>  (2855) 
SHIMADZU QP-1000

>  <ION MODE>  (2855) 
P

>  <INCHIKEY>  (2855) 
BBMCTIGTTCKYKF-UHFFFAOYSA-N

>  <FORMULA>  (2855) 
C7H16O

>  <EXACT MASS>  (2855) 
116.120115132

>  <MW>  (2855) 
116

>  <ID>  (2855) 
JP007701

>  <CONTRIBUTOR>  (2855) 
University of Tokyo Team, {Faculty of Engineering, University of Tokyo

>  <COMMENT>  (2855) 
computed SMILES=OCCCCCCC
SMILES=CCCCCCCO
cas=111-70-6
InChI=InChI=1S/C7H16O/c1-2-3-4-5-6-7-8/h8H,2-7H2,1H3
accession=JP007701
date=2016.01.19 (Created 2008.10.21, modified 2011.05.06)
author=KYOTO INSTITUTE OF TECHNOLOGY
license=CC BY-NC-SA
exact mass=116.12012
ionization energy=70 eV
ion type=[M]+*
computed spectral entropy=2.2471534996821605
computed normalized entropy=0.6372444008477436
SPLASH=splash10-052f-9000000000-89db7fcf8c9317d5c811
submitter=submitter = University of Tokyo Team (Faculty of Engineering, University of Tokyo)
MoNA Rating=3.75

>  <NUM PEAKS>  (2855) 
34

>  <MASS SPECTRAL PEAKS>  (2855) 
40 6
41 99.99
42 59.9
43 8.13
44 7.7
45 6.4
51 1.2
53 0.38
54 5.4
55 64.6
56 76.6
57 2.27
58 1.3
59 0.5
65 0.4
67 0.2
68 9.3
69 35.4
70 63.3
71 0.47
72 0.3
73 1.6
77 0.3
79 0.04
81 0.7
82 0.3
83 4.7
84 0.05
85 0.6
86 0.3
87 0.2
97 0.05
98 1.2
99 0.3

>  <PREDICTED SPECTRUM>  (2855) 
14 18
15 38
16 8
19 26
25 9
26 97
27 408
28 176
29 472
30 108
31 351
32 37
33 4
37 41
38 112
39 510
40 219
41 939
42 650
43 816
44 336
45 301
46 66
47 39
49 15
50 128
51 182
52 69
53 295
54 337
55 999
56 982
57 658
58 113
59 76
60 16
61 29
65 29
66 13
67 294
68 380
69 689
70 743
71 342
72 115
73 160
74 29
81 199
82 75
83 503
84 67
85 45
87 103
88 33
97 147
98 200
99 36

$$$$

     RDKit          2D

 19 18  0  0  0  0  0  0  0  0999 V2000
    5.8457   10.1250    0.0000 C   0  0  0  0  0  0  0  0  0  0  0  0
    4.5466   10.8750    0.0000 C   0  0  0  0  0  0  0  0  0  0  0  0
    3.2476   10.1250    0.0000 C   0  0  0  0  0  0  0  0  0  0  0  0
    1.9486   10.8750    0.0000 C   0  0  0  0  0  0  0  0  0  0  0  0
    0.6495   10.1250    0.0000 C   0  0  0  0  0  0  0  0  0  0  0  0
   -0.6495   10.8750    0.0000 C   0  0  0  0  0  0  0  0  0  0  0  0
   -1.9486   10.1250    0.0000 C   0  0  0  0  0  0  0  0  0  0  0  0
   -3.2476   10.8750    0.0000 C   0  0  0  0  0  0  0  0  0  0  0  0
   -4.5466   10.1250    0.0000 C   0  0  0  0  0  0  0  0  0  0  0  0
   -5.8457   10.8750    0.0000 C   0  0  0  0  0  0  0  0  0  0  0  0
   -7.1447   10.1250    0.0000 C   0  0  0  0  0  0  0  0  0  0  0  0
   -8.4437   10.8750    0.0000 C   0  0  0  0  0  0  0  0  0  0  0  0
   -9.7428   10.1250    0.0000 C   0  0  0  0  0  0  0  0  0  0  0  0
  -11.0418   10.8750    0.0000 C   0  0  0  0  0  0  0  0  0  0  0  0
  -12.3409   10.1250    0.0000 C   0  0  0  0  0  0  0  0  0  0  0  0
  -13.6399   10.8750    0.0000 C   0  0  0  0  0  0  0  0  0  0  0  0
  -14.9389   10.1250    0.0000 C   0  0  0  0  0  0  0  0  0  0  0  0
  -16.2380   10.8750    0.0000 C   0  0  0  0  0  0  0  0  0  0  0  0
  -17.5370   10.1250    0.0000 Br  0  0  0  0  0  0  0  0  0  0  0  0
  2  1  1  0
  3  2  1  0
  4  3  1  0
  5  4  1  0
  6  5  1  0
  7  6  1  0
  8  7  1  0
  9  8  1  0
 10  9  1  0
 11 10  1  0
 12 11  1  0
 13 12  1  0
 14 13  1  0
 15 14  1  0
 16 15  1  0
 17 16  1  0
 18 17  1  0
 19 18  1  0
M  END
>  <NAME>  (2856) 
OCTADECYL BROMIDE

>  <SYNONYMS>  (2856) 


>  <SPECTRUM TYPE>  (2856) 
MS1

>  <INSTRUMENT TYPE>  (2856) 
EI-B

>  <INSTRUMENT>  (2856) 
SHIMADZU QP-1000

>  <ION MODE>  (2856) 
P

>  <INCHIKEY>  (2856) 
WSULSMOGMLRGKU-UHFFFAOYSA-N

>  <FORMULA>  (2856) 
C18H37Br

>  <EXACT MASS>  (2856) 
332.207863284

>  <MW>  (2856) 
332

>  <ID>  (2856) 
JP007699

>  <CONTRIBUTOR>  (2856) 
University of Tokyo Team, {Faculty of Engineering, University of Tokyo

>  <COMMENT>  (2856) 
SMILES=CCCCCCCCCCCCCCCCCCBr
cas=112-89-0
InChI=InChI=1S/C18H37Br/c1-2-3-4-5-6-7-8-9-10-11-12-13-14-15-16-17-18-19/h2-18H2,1H3
computed SMILES=BrCCCCCCCCCCCCCCCCCC
accession=JP007699
date=2016.01.19 (Created 2008.10.21, modified 2011.05.06)
author=KYOTO INSTITUTE OF TECHNOLOGY
license=CC BY-NC-SA
exact mass=332.20786
ionization energy=70 eV
ion type=[M]+*
computed spectral entropy=2.5516262768298197
computed normalized entropy=0.6182561648769626
SPLASH=splash10-052f-9000000000-141e4e4cb3309fe9e939
submitter=submitter = University of Tokyo Team (Faculty of Engineering, University of Tokyo)
MoNA Rating=3.75

>  <NUM PEAKS>  (2856) 
62

>  <MASS SPECTRAL PEAKS>  (2856) 
40 2.1
41 66
42 15
43 99.99
44 3.6
53 2.5
54 3.5
55 4.55
56 14.1
57 81.6
58 3.6
67 0.32
68 2.2
69 23.7
70 7.2
71 3.61
72 2
81 1.3
82 1.9
83 1.13
84 3.2
85 19
86 1.3
97 0.67
98 1.6
99 4.5
107 0.7
109 0.08
111 2.2
112 0.8
113 2.3
121 0.04
123 0.4
125 0.6
126 0.4
127 0.13
134 1.4
135 16.8
136 1.6
137 1.62
138 0.8
141 0.9
148 0.4
149 0.3
150 0.5
151 3
155 0.5
162 0.02
163 0.5
164 0.2
165 0.6
169 0.05
177 0.3
179 0.2
191 0.2
193 0.02
197 0.2
205 0.1
207 0.1
219 0.01
221 0.1
253 0.1

>  <PREDICTED SPECTRUM>  (2856) 
26 21
27 154
28 64
29 290
30 20
36 6
38 7
39 156
40 79
41 678
42 351
43 888
44 170
45 34
51 25
52 14
53 151
54 182
55 725
56 440
57 999
58 200
59 40
60 7
61 32
63 30
64 20
65 57
66 67
67 277
68 228
69 595
70 365
71 751
72 222
73 47
77 17
78 18
79 119
80 69
81 161
82 225
83 460
84 281
85 590
86 148
87 10
91 58
93 104
94 15
95 133
96 171
97 425
98 157
99 300
100 85
101 24
105 63
107 145
108 12
109 159
110 100
111 282
112 110
113 259
114 104
115 13
120 21
121 110
122 80
123 124
124 101
125 174
126 80
127 247
128 48
134 14
135 435
136 158
137 371
138 122
139 87
140 101
141 186
142 70
148 89
149 163
150 144
151 121
152 26
153 83
154 71
155 181
156 30
157 8
162 19
163 107
164 33
165 80
166 12
167 32
168 46
169 190
170 32
174 23
175 8
176 6
177 89
178 62
179 69
180 2
181 32
182 37
183 203
184 30
190 3
191 91
192 106
193 61
194 41
195 25
196 12
197 130
205 94
206 17
207 81
211 62
217 6
218 15
219 27
220 33
221 14
222 31
224 3
225 33
226 18
233 64
234 7
235 36
246 3
247 34
248 0
249 17
250 24
251 0
252 61
253 317
254 141
255 33
264 1
274 1
275 23
276 17
288 44
289 88
290 5
291 31
332 104
333 21
334 107
335 9

$$$$

     RDKit          2D

 17 16  0  0  0  0  0  0  0  0999 V2000
  -15.5885    9.0000    0.0000 C   0  0  0  0  0  0  0  0  0  0  0  0
  -14.2894    8.2500    0.0000 C   0  0  0  0  0  0  0  0  0  0  0  0
  -12.9904    9.0000    0.0000 C   0  0  0  0  0  0  0  0  0  0  0  0
  -11.6913    8.2500    0.0000 C   0  0  0  0  0  0  0  0  0  0  0  0
  -10.3923    9.0000    0.0000 C   0  0  0  0  0  0  0  0  0  0  0  0
   -9.0933    8.2500    0.0000 C   0  0  0  0  0  0  0  0  0  0  0  0
   -7.7942    9.0000    0.0000 C   0  0  0  0  0  0  0  0  0  0  0  0
   -6.4952    8.2500    0.0000 C   0  0  0  0  0  0  0  0  0  0  0  0
   -5.1962    9.0000    0.0000 C   0  0  0  0  0  0  0  0  0  0  0  0
   -3.8971    8.2500    0.0000 C   0  0  0  0  0  0  0  0  0  0  0  0
   -2.5981    9.0000    0.0000 C   0  0  0  0  0  0  0  0  0  0  0  0
   -1.2990    8.2500    0.0000 C   0  0  0  0  0  0  0  0  0  0  0  0
    0.0000    9.0000    0.0000 C   0  0  0  0  0  0  0  0  0  0  0  0
    1.2990    8.2500    0.0000 C   0  0  0  0  0  0  0  0  0  0  0  0
    2.5981    9.0000    0.0000 C   0  0  0  0  0  0  0  0  0  0  0  0
    3.8971    8.2500    0.0000 C   0  0  0  0  0  0  0  0  0  0  0  0
    5.1962    9.0000    0.0000 Br  0  0  0  0  0  0  0  0  0  0  0  0
  2  1  1  0
  3  2  1  0
  4  3  1  0
  5  4  1  0
  6  5  1  0
  7  6  1  0
  8  7  1  0
  9  8  1  0
 10  9  1  0
 11 10  1  0
 12 11  1  0
 13 12  1  0
 14 13  1  0
 15 14  1  0
 16 15  1  0
 17 16  1  0
M  END
>  <NAME>  (2857) 
HEXADECYL BROMIDE

>  <SYNONYMS>  (2857) 


>  <SPECTRUM TYPE>  (2857) 
MS1

>  <INSTRUMENT TYPE>  (2857) 
EI-B

>  <INSTRUMENT>  (2857) 
SHIMADZU QP-1000

>  <ION MODE>  (2857) 
P

>  <INCHIKEY>  (2857) 
HNTGIJLWHDPAFN-UHFFFAOYSA-N

>  <FORMULA>  (2857) 
C16H33Br

>  <EXACT MASS>  (2857) 
304.176563156

>  <MW>  (2857) 
304

>  <ID>  (2857) 
JP007698

>  <CONTRIBUTOR>  (2857) 
University of Tokyo Team, {Faculty of Engineering, University of Tokyo

>  <COMMENT>  (2857) 
SMILES=CCCCCCCCCCCCCCCCBr
cas=112-82-3
InChI=InChI=1S/C16H33Br/c1-2-3-4-5-6-7-8-9-10-11-12-13-14-15-16-17/h2-16H2,1H3
computed SMILES=BrCCCCCCCCCCCCCCCC
accession=JP007698
date=2016.01.19 (Created 2008.10.21, modified 2011.05.06)
author=KYOTO INSTITUTE OF TECHNOLOGY
license=CC BY-NC-SA
exact mass=304.17656
ionization energy=70 eV
ion type=[M]+*
computed spectral entropy=2.558933870181097
computed normalized entropy=0.6249923110507097
SPLASH=splash10-052f-9100000000-1403cf804a3cee79e60f
submitter=submitter = University of Tokyo Team (Faculty of Engineering, University of Tokyo)
MoNA Rating=3.75

>  <NUM PEAKS>  (2857) 
60

>  <MASS SPECTRAL PEAKS>  (2857) 
40 2.4
41 70.5
42 15.8
43 99.99
44 3.8
53 3
54 3.6
55 4.75
56 14.4
57 79
58 3.4
67 0.32
68 2.1
69 25.2
70 7.7
71 3.51
72 2
81 1.3
82 1.8
83 1.14
84 3.1
85 17.6
86 1.2
97 0.62
98 1.5
99 3.7
107 0.9
109 0.09
111 1.8
112 0.6
113 1.9
121 0.04
123 0.5
125 0.4
126 0.3
127 0.1
134 1.6
135 21.1
136 1.8
137 2.08
138 0.9
141 0.8
148 0.5
149 0.56
150 0.8
151 3.6
155 0.5
162 0.02
163 0.6
164 0.2
165 0.5
169 0.03
177 0.2
179 0.2
191 0.1
193 0.01
205 0.1
207 0.1
223 0.1
225 0.2

>  <PREDICTED SPECTRUM>  (2857) 
26 37
27 210
28 85
29 343
30 35
31 5
36 26
37 4
38 36
39 207
40 109
41 743
42 387
43 916
44 201
45 37
50 13
51 60
52 43
53 180
54 207
55 775
56 480
57 999
58 220
59 19
63 6
65 67
66 73
67 305
68 251
69 637
70 393
71 739
72 222
73 62
77 26
78 26
79 129
80 76
81 188
82 249
83 481
84 297
85 583
86 155
87 34
91 24
92 0
93 135
94 19
95 148
96 174
97 443
98 162
99 281
100 63
105 52
107 153
108 37
109 181
110 115
111 298
112 94
113 232
114 69
120 26
121 64
122 55
123 130
124 98
125 151
126 72
127 207
128 59
129 38
135 441
136 160
137 391
138 101
139 81
140 83
141 161
142 50
147 32
148 109
149 166
150 157
151 102
152 4
153 70
154 53
155 152
156 31
161 2
162 40
163 137
164 143
165 104
166 55
167 35
168 54
169 175
176 17
177 161
178 94
179 128
180 47
181 44
182 0
183 176
190 12
191 38
192 48
193 27
194 1
197 23
205 89
206 32
207 105
211 13
218 23
219 50
220 7
221 26
222 1
224 61
225 137
226 76
246 31
247 52
248 25
249 29
260 63
261 65
263 52
276 16
304 92
305 27
306 115
307 7

$$$$

     RDKit          2D

 16 15  0  0  0  0  0  0  0  0999 V2000
    5.1962    8.2500    0.0000 C   0  0  0  0  0  0  0  0  0  0  0  0
    3.8971    9.0000    0.0000 C   0  0  0  0  0  0  0  0  0  0  0  0
    2.5981    8.2500    0.0000 C   0  0  0  0  0  0  0  0  0  0  0  0
    1.2990    9.0000    0.0000 C   0  0  0  0  0  0  0  0  0  0  0  0
    0.0000    8.2500    0.0000 C   0  0  0  0  0  0  0  0  0  0  0  0
   -1.2990    9.0000    0.0000 C   0  0  0  0  0  0  0  0  0  0  0  0
   -2.5981    8.2500    0.0000 C   0  0  0  0  0  0  0  0  0  0  0  0
   -3.8971    9.0000    0.0000 C   0  0  0  0  0  0  0  0  0  0  0  0
   -5.1962    8.2500    0.0000 C   0  0  0  0  0  0  0  0  0  0  0  0
   -6.4952    9.0000    0.0000 C   0  0  0  0  0  0  0  0  0  0  0  0
   -7.7942    8.2500    0.0000 C   0  0  0  0  0  0  0  0  0  0  0  0
   -9.0933    9.0000    0.0000 C   0  0  0  0  0  0  0  0  0  0  0  0
  -10.3923    8.2500    0.0000 C   0  0  0  0  0  0  0  0  0  0  0  0
  -11.6913    9.0000    0.0000 C   0  0  0  0  0  0  0  0  0  0  0  0
  -12.9904    8.2500    0.0000 C   0  0  0  0  0  0  0  0  0  0  0  0
  -14.2894    9.0000    0.0000 Br  0  0  0  0  0  0  0  0  0  0  0  0
  2  1  1  0
  3  2  1  0
  4  3  1  0
  5  4  1  0
  6  5  1  0
  7  6  1  0
  8  7  1  0
  9  8  1  0
 10  9  1  0
 11 10  1  0
 12 11  1  0
 13 12  1  0
 14 13  1  0
 15 14  1  0
 16 15  1  0
M  END
>  <NAME>  (2858) 
PENTADECYL BROMIDE

>  <SYNONYMS>  (2858) 


>  <SPECTRUM TYPE>  (2858) 
MS1

>  <INSTRUMENT TYPE>  (2858) 
EI-B

>  <INSTRUMENT>  (2858) 
SHIMADZU QP-1000

>  <ION MODE>  (2858) 
P

>  <INCHIKEY>  (2858) 
JKOTZBXSNOGCIF-UHFFFAOYSA-N

>  <FORMULA>  (2858) 
C15H31Br

>  <EXACT MASS>  (2858) 
290.160913092

>  <MW>  (2858) 
290

>  <ID>  (2858) 
JP007697

>  <CONTRIBUTOR>  (2858) 
University of Tokyo Team, {Faculty of Engineering, University of Tokyo

>  <COMMENT>  (2858) 
SMILES=CCCCCCCCCCCCCCCBr
cas=629-72-1
InChI=InChI=1S/C15H31Br/c1-2-3-4-5-6-7-8-9-10-11-12-13-14-15-16/h2-15H2,1H3
computed SMILES=BrCCCCCCCCCCCCCCC
accession=JP007697
date=2016.01.19 (Created 2008.10.21, modified 2011.05.06)
author=KYOTO INSTITUTE OF TECHNOLOGY
license=CC BY-NC-SA
exact mass=290.16091
ionization energy=70 eV
ion type=[M]+*
computed spectral entropy=2.614774242360438
computed normalized entropy=0.6467328928433068
SPLASH=splash10-0006-9100000000-0b21f93176fe5e9e9a8a
submitter=submitter = University of Tokyo Team (Faculty of Engineering, University of Tokyo)
MoNA Rating=3.75

>  <NUM PEAKS>  (2858) 
57

>  <MASS SPECTRAL PEAKS>  (2858) 
40 2.7
41 73.7
42 16.9
43 99.99
44 4.2
53 3.4
54 3.7
55 4.93
56 15.1
57 77.7
58 3.4
67 0.36
68 2.3
69 26.5
70 7.7
71 3.33
72 1.8
81 1.5
82 1.8
83 1.21
84 3.2
85 16.9
86 1.1
97 0.67
98 1.5
99 3.3
107 1
109 0.11
111 1.8
112 0.6
113 1.6
121 0.05
123 0.6
125 0.4
126 0.3
127 0.1
135 24
136 2
137 24.1
138 0.11
141 0.7
148 0.4
149 4.4
150 0.06
151 4.2
152 0.2
155 0.4
162 0.02
163 0.6
164 0.2
165 0.6
169 0.02
177 0.2
179 0.2
191 0.1
193 0.01
211 0.1

>  <PREDICTED SPECTRUM>  (2858) 
25 0
26 47
27 247
28 100
29 375
30 64
31 12
36 31
37 14
38 49
39 238
40 122
41 781
42 409
43 926
44 214
45 12
50 10
51 56
52 42
53 193
54 220
55 798
56 498
57 999
58 235
59 39
60 6
63 7
64 12
65 101
66 84
67 319
68 259
69 660
70 404
71 732
72 224
73 72
78 17
79 134
80 82
81 200
82 258
83 491
84 290
85 580
86 145
91 35
92 12
93 145
94 20
95 150
96 176
97 447
98 165
99 271
100 69
105 46
107 136
108 24
109 196
110 112
111 297
112 74
113 215
114 53
115 36
120 8
121 100
122 52
123 125
124 93
125 149
126 70
127 188
128 48
133 1
134 1
135 453
136 173
137 407
138 53
139 47
140 67
141 136
142 51
147 37
148 123
149 208
150 191
151 124
152 53
153 79
154 72
155 165
162 39
163 139
164 61
165 121
166 16
167 8
169 123
175 1
176 22
177 118
178 115
179 97
180 35
181 14
182 0
183 129
191 80
192 40
193 78
197 28
204 28
205 83
206 17
207 65
210 21
211 188
212 93
219 6
221 29
222 21
232 19
233 73
234 11
235 8
246 67
247 108
248 12
249 54
250 18
276 6
290 94
291 12
292 117
293 8

$$$$

     RDKit          2D

 15 14  0  0  0  0  0  0  0  0999 V2000
    4.5466    7.8750    0.0000 C   0  0  0  0  0  0  0  0  0  0  0  0
    3.2476    8.6250    0.0000 C   0  0  0  0  0  0  0  0  0  0  0  0
    1.9486    7.8750    0.0000 C   0  0  0  0  0  0  0  0  0  0  0  0
    0.6495    8.6250    0.0000 C   0  0  0  0  0  0  0  0  0  0  0  0
   -0.6495    7.8750    0.0000 C   0  0  0  0  0  0  0  0  0  0  0  0
   -1.9486    8.6250    0.0000 C   0  0  0  0  0  0  0  0  0  0  0  0
   -3.2476    7.8750    0.0000 C   0  0  0  0  0  0  0  0  0  0  0  0
   -4.5466    8.6250    0.0000 C   0  0  0  0  0  0  0  0  0  0  0  0
   -5.8457    7.8750    0.0000 C   0  0  0  0  0  0  0  0  0  0  0  0
   -7.1447    8.6250    0.0000 C   0  0  0  0  0  0  0  0  0  0  0  0
   -8.4437    7.8750    0.0000 C   0  0  0  0  0  0  0  0  0  0  0  0
   -9.7428    8.6250    0.0000 C   0  0  0  0  0  0  0  0  0  0  0  0
  -11.0418    7.8750    0.0000 C   0  0  0  0  0  0  0  0  0  0  0  0
  -12.3409    8.6250    0.0000 C   0  0  0  0  0  0  0  0  0  0  0  0
  -13.6399    7.8750    0.0000 Br  0  0  0  0  0  0  0  0  0  0  0  0
  2  1  1  0
  3  2  1  0
  4  3  1  0
  5  4  1  0
  6  5  1  0
  7  6  1  0
  8  7  1  0
  9  8  1  0
 10  9  1  0
 11 10  1  0
 12 11  1  0
 13 12  1  0
 14 13  1  0
 15 14  1  0
M  END
>  <NAME>  (2859) 
TETRADECYL BROMIDE

>  <SYNONYMS>  (2859) 


>  <SPECTRUM TYPE>  (2859) 
MS1

>  <INSTRUMENT TYPE>  (2859) 
EI-B

>  <INSTRUMENT>  (2859) 
SHIMADZU QP-1000

>  <ION MODE>  (2859) 
P

>  <INCHIKEY>  (2859) 
KOFZTCSTGIWCQG-UHFFFAOYSA-N

>  <FORMULA>  (2859) 
C14H29Br

>  <EXACT MASS>  (2859) 
276.14526302800004

>  <MW>  (2859) 
276

>  <ID>  (2859) 
JP007696

>  <CONTRIBUTOR>  (2859) 
University of Tokyo Team, {Faculty of Engineering, University of Tokyo

>  <COMMENT>  (2859) 
SMILES=CCCCCCCCCCCCCCBr
cas=112-71-0
InChI=InChI=1S/C14H29Br/c1-2-3-4-5-6-7-8-9-10-11-12-13-14-15/h2-14H2,1H3
computed SMILES=BrCCCCCCCCCCCCCC
accession=JP007696
date=2016.01.19 (Created 2008.10.21, modified 2011.05.06)
author=KYOTO INSTITUTE OF TECHNOLOGY
license=CC BY-NC-SA
exact mass=276.14526
ionization energy=70 eV
ion type=[M]+*
computed spectral entropy=2.5631652841305046
computed normalized entropy=0.6455861029717848
SPLASH=splash10-0006-9100000000-ca135eeb6d9ae9b4b1b0
submitter=submitter = University of Tokyo Team (Faculty of Engineering, University of Tokyo)
MoNA Rating=3.75

>  <NUM PEAKS>  (2859) 
53

>  <MASS SPECTRAL PEAKS>  (2859) 
40 2.9
41 75.5
42 17.3
43 99.99
44 3.9
53 3.6
54 3.4
55 4.95
56 14.9
57 76.9
58 3.4
67 0.31
68 2
69 26.2
70 7.1
71 3.05
72 1.7
81 1.1
82 1.5
83 1.02
84 2.8
85 15.1
86 1
97 0.51
98 1.2
99 2.7
107 1
109 0.1
111 1.2
112 0.5
113 1.2
121 0.05
123 0.5
125 0.3
127 0.9
134 0.19
135 24.6
136 2
137 24
138 0.11
141 0.5
148 0.4
149 4
150 0.06
151 4.1
152 0.2
155 0.2
163 0.05
164 0.2
165 0.4
177 0.1
179 0.01
191 0.1

>  <PREDICTED SPECTRUM>  (2859) 
25 2
26 54
27 278
28 111
29 401
30 45
31 11
36 35
37 20
38 57
39 273
40 143
41 819
42 431
43 940
44 240
45 41
50 26
51 89
52 58
53 211
54 228
55 821
56 520
57 999
58 241
59 36
65 120
66 96
67 329
68 263
69 679
70 410
71 724
72 212
73 18
78 26
79 139
80 85
81 209
82 274
83 507
84 294
85 571
86 153
91 40
92 12
93 115
94 10
95 154
96 170
97 451
98 164
99 259
100 69
101 65
105 40
107 162
108 26
109 206
110 112
111 305
112 82
113 204
114 35
119 7
120 31
121 71
122 59
123 75
124 54
125 109
126 55
127 162
128 55
133 9
134 8
135 480
136 198
137 431
138 90
139 81
140 100
141 135
142 17
147 35
148 134
149 217
150 182
151 123
152 29
153 43
155 53
162 31
163 84
164 63
165 96
169 72
176 2
177 159
178 130
179 151
180 21
181 25
183 98
190 57
191 67
192 29
193 40
196 17
197 237
198 73
205 56
207 63
218 38
219 80
220 35
221 39
232 44
233 127
234 0
235 66
248 3
276 74
277 0
278 106
279 0

$$$$

     RDKit          2D

 14 13  0  0  0  0  0  0  0  0999 V2000
    4.5466    7.1250    0.0000 C   0  0  0  0  0  0  0  0  0  0  0  0
    3.2476    7.8750    0.0000 C   0  0  0  0  0  0  0  0  0  0  0  0
    1.9486    7.1250    0.0000 C   0  0  0  0  0  0  0  0  0  0  0  0
    0.6495    7.8750    0.0000 C   0  0  0  0  0  0  0  0  0  0  0  0
   -0.6495    7.1250    0.0000 C   0  0  0  0  0  0  0  0  0  0  0  0
   -1.9486    7.8750    0.0000 C   0  0  0  0  0  0  0  0  0  0  0  0
   -3.2476    7.1250    0.0000 C   0  0  0  0  0  0  0  0  0  0  0  0
   -4.5466    7.8750    0.0000 C   0  0  0  0  0  0  0  0  0  0  0  0
   -5.8457    7.1250    0.0000 C   0  0  0  0  0  0  0  0  0  0  0  0
   -7.1447    7.8750    0.0000 C   0  0  0  0  0  0  0  0  0  0  0  0
   -8.4437    7.1250    0.0000 C   0  0  0  0  0  0  0  0  0  0  0  0
   -9.7428    7.8750    0.0000 C   0  0  0  0  0  0  0  0  0  0  0  0
  -11.0418    7.1250    0.0000 C   0  0  0  0  0  0  0  0  0  0  0  0
  -12.3409    7.8750    0.0000 Br  0  0  0  0  0  0  0  0  0  0  0  0
  2  1  1  0
  3  2  1  0
  4  3  1  0
  5  4  1  0
  6  5  1  0
  7  6  1  0
  8  7  1  0
  9  8  1  0
 10  9  1  0
 11 10  1  0
 12 11  1  0
 13 12  1  0
 14 13  1  0
M  END
>  <NAME>  (2860) 
TRIDECYL BROMIDE

>  <SYNONYMS>  (2860) 


>  <SPECTRUM TYPE>  (2860) 
MS1

>  <INSTRUMENT TYPE>  (2860) 
EI-B

>  <INSTRUMENT>  (2860) 
SHIMADZU QP-1000

>  <ION MODE>  (2860) 
P

>  <INCHIKEY>  (2860) 
BFDNZQUBFCYTIC-UHFFFAOYSA-N

>  <FORMULA>  (2860) 
C13H27Br

>  <EXACT MASS>  (2860) 
262.129612964

>  <MW>  (2860) 
262

>  <ID>  (2860) 
JP007695

>  <CONTRIBUTOR>  (2860) 
University of Tokyo Team, {Faculty of Engineering, University of Tokyo

>  <COMMENT>  (2860) 
SMILES=CCCCCCCCCCCCCBr
cas=765-09-3
InChI=InChI=1S/C13H27Br/c1-2-3-4-5-6-7-8-9-10-11-12-13-14/h2-13H2,1H3
computed SMILES=BrCCCCCCCCCCCCC
accession=JP007695
date=2016.01.19 (Created 2008.10.21, modified 2011.05.06)
author=KYOTO INSTITUTE OF TECHNOLOGY
license=CC BY-NC-SA
exact mass=262.12961
ionization energy=70 eV
ion type=[M]+*
computed spectral entropy=2.5196596043820034
computed normalized entropy=0.6474244470139667
SPLASH=splash10-0006-9100000000-bd020a83b474abc6699e
submitter=submitter = University of Tokyo Team (Faculty of Engineering, University of Tokyo)
MoNA Rating=3.75

>  <NUM PEAKS>  (2860) 
49

>  <MASS SPECTRAL PEAKS>  (2860) 
40 3.2
41 80.1
42 17.8
43 99.99
44 3.8
53 3.8
54 3.5
55 5.08
56 14.4
57 71.7
58 3.2
67 0.33
68 2.1
69 27.7
70 7.3
71 2.98
72 1.6
81 1.1
82 1.5
83 1.04
84 2.8
85 15.3
86 1
97 0.51
98 1.2
99 2.7
107 1.3
109 0.13
111 1.2
113 1.5
121 0.6
123 0.05
125 0.2
127 0.8
134 2.2
135 2.74
136 2.5
137 27
138 1.2
141 0.03
148 0.4
149 4.4
150 0.5
151 0.44
152 0.3
163 0.4
165 0.4
177 0.01
179 0.1

>  <PREDICTED SPECTRUM>  (2860) 
25 3
26 62
27 307
28 116
29 425
30 77
31 16
36 39
37 31
38 73
39 304
40 155
41 849
42 454
43 945
44 249
45 38
50 20
51 104
52 68
53 227
54 235
55 840
56 536
57 999
58 245
65 111
66 97
67 335
68 269
69 699
70 419
71 722
72 219
73 27
77 3
78 31
79 135
80 84
81 217
82 271
83 518
84 290
85 565
86 147
87 54
91 43
93 131
94 4
95 150
96 166
97 457
98 162
99 253
100 62
101 5
105 29
107 156
108 32
109 204
110 84
111 295
112 65
113 180
114 33
119 29
120 39
121 136
122 120
123 118
124 72
125 130
126 112
127 161
128 30
133 3
134 8
135 508
136 190
137 461
138 56
139 25
141 75
147 34
148 132
149 207
150 200
151 89
152 10
153 2
162 19
163 143
164 68
165 161
169 60
176 77
177 161
178 150
179 95
181 25
182 50
183 282
184 39
191 21
193 43
204 26
205 104
206 39
207 81
218 63
219 117
220 7
221 54
222 16
234 1
262 51
264 76

$$$$

     RDKit          2D

 13 12  0  0  0  0  0  0  0  0999 V2000
    3.8971    6.7500    0.0000 C   0  0  0  0  0  0  0  0  0  0  0  0
    2.5981    7.5000    0.0000 C   0  0  0  0  0  0  0  0  0  0  0  0
    1.2990    6.7500    0.0000 C   0  0  0  0  0  0  0  0  0  0  0  0
    0.0000    7.5000    0.0000 C   0  0  0  0  0  0  0  0  0  0  0  0
   -1.2990    6.7500    0.0000 C   0  0  0  0  0  0  0  0  0  0  0  0
   -2.5981    7.5000    0.0000 C   0  0  0  0  0  0  0  0  0  0  0  0
   -3.8971    6.7500    0.0000 C   0  0  0  0  0  0  0  0  0  0  0  0
   -5.1962    7.5000    0.0000 C   0  0  0  0  0  0  0  0  0  0  0  0
   -6.4952    6.7500    0.0000 C   0  0  0  0  0  0  0  0  0  0  0  0
   -7.7942    7.5000    0.0000 C   0  0  0  0  0  0  0  0  0  0  0  0
   -9.0933    6.7500    0.0000 C   0  0  0  0  0  0  0  0  0  0  0  0
  -10.3923    7.5000    0.0000 C   0  0  0  0  0  0  0  0  0  0  0  0
  -11.6913    6.7500    0.0000 Br  0  0  0  0  0  0  0  0  0  0  0  0
  2  1  1  0
  3  2  1  0
  4  3  1  0
  5  4  1  0
  6  5  1  0
  7  6  1  0
  8  7  1  0
  9  8  1  0
 10  9  1  0
 11 10  1  0
 12 11  1  0
 13 12  1  0
M  END
>  <NAME>  (2861) 
DODECYL BROMIDE

>  <SYNONYMS>  (2861) 


>  <SPECTRUM TYPE>  (2861) 
MS1

>  <INSTRUMENT TYPE>  (2861) 
EI-B

>  <INSTRUMENT>  (2861) 
SHIMADZU QP-1000

>  <ION MODE>  (2861) 
P

>  <INCHIKEY>  (2861) 
PBLNBZIONSLZBU-UHFFFAOYSA-N

>  <FORMULA>  (2861) 
C12H25Br

>  <EXACT MASS>  (2861) 
248.1139629

>  <MW>  (2861) 
248

>  <ID>  (2861) 
JP007694

>  <CONTRIBUTOR>  (2861) 
University of Tokyo Team, {Faculty of Engineering, University of Tokyo

>  <COMMENT>  (2861) 
SMILES=CCCCCCCCCCCCBr
cas=143-15-7
InChI=InChI=1S/C12H25Br/c1-2-3-4-5-6-7-8-9-10-11-12-13/h2-12H2,1H3
computed SMILES=BrCCCCCCCCCCCC
accession=JP007694
date=2016.01.19 (Created 2008.10.21, modified 2011.05.06)
author=KYOTO INSTITUTE OF TECHNOLOGY
license=CC BY-NC-SA
exact mass=248.11396
ionization energy=70 eV
ion type=[M]+*
computed spectral entropy=2.453949266789999
computed normalized entropy=0.640945184639203
SPLASH=splash10-0006-9100000000-16c52113c66b918ba9f1
submitter=submitter = University of Tokyo Team (Faculty of Engineering, University of Tokyo)
MoNA Rating=3.75

>  <NUM PEAKS>  (2861) 
46

>  <MASS SPECTRAL PEAKS>  (2861) 
40 3.4
41 76.9
42 17.9
43 99.99
44 3.6
53 3.8
54 3.4
55 5.18
56 14.6
57 68.3
58 3
67 0.29
68 1.7
69 24.3
70 6.5
71 2.63
72 1.4
81 0.8
82 1.1
83 0.89
84 2.4
85 12
86 0.8
97 0.33
98 0.8
99 2.5
107 1.2
109 0.11
111 0.7
112 0.3
113 1.2
121 0.05
123 0.5
127 0.5
134 0.4
135 2.54
136 3.7
137 22.5
138 1
149 0.35
150 0.7
151 3.8
152 0.2
163 0.04
164 0.1
165 0.3

>  <PREDICTED SPECTRUM>  (2861) 
25 4
26 69
27 337
28 128
29 439
30 60
31 13
36 34
37 37
38 83
39 342
40 170
41 886
42 482
43 956
44 254
50 28
51 90
52 70
53 245
54 241
55 863
56 560
57 999
58 253
64 4
65 78
66 92
67 340
68 268
69 731
70 421
71 721
72 203
73 104
77 2
78 17
79 145
80 86
81 223
82 278
83 530
84 296
85 556
86 145
91 42
92 3
93 102
95 108
96 147
97 456
98 153
99 227
100 54
105 36
107 203
108 79
109 233
110 112
111 299
112 142
113 199
114 17
119 35
120 37
121 114
122 47
123 96
124 30
125 44
127 76
135 540
136 216
137 488
138 34
141 34
148 117
149 265
150 220
151 136
162 114
163 146
164 61
165 115
168 0
169 248
170 11
176 30
177 132
178 123
179 74
180 6
190 29
191 109
192 44
193 67
204 55
205 144
206 4
207 135
220 23
248 72
250 29

$$$$

     RDKit          2D

 20 19  0  0  0  0  0  0  0  0999 V2000
    6.4952   10.5000    0.0000 C   0  0  0  0  0  0  0  0  0  0  0  0
  -18.1865   11.2500    0.0000 C   0  0  0  0  0  0  0  0  0  0  0  0
    5.1962   11.2500    0.0000 C   0  0  0  0  0  0  0  0  0  0  0  0
  -16.8875   10.5000    0.0000 C   0  0  0  0  0  0  0  0  0  0  0  0
    3.8971   10.5000    0.0000 C   0  0  0  0  0  0  0  0  0  0  0  0
  -15.5885   11.2500    0.0000 C   0  0  0  0  0  0  0  0  0  0  0  0
    2.5981   11.2500    0.0000 C   0  0  0  0  0  0  0  0  0  0  0  0
  -14.2894   10.5000    0.0000 C   0  0  0  0  0  0  0  0  0  0  0  0
    1.2990   10.5000    0.0000 C   0  0  0  0  0  0  0  0  0  0  0  0
  -12.9904   11.2500    0.0000 C   0  0  0  0  0  0  0  0  0  0  0  0
    0.0000   11.2500    0.0000 C   0  0  0  0  0  0  0  0  0  0  0  0
  -11.6913   10.5000    0.0000 C   0  0  0  0  0  0  0  0  0  0  0  0
   -1.2990   10.5000    0.0000 C   0  0  0  0  0  0  0  0  0  0  0  0
  -10.3923   11.2500    0.0000 C   0  0  0  0  0  0  0  0  0  0  0  0
   -2.5981   11.2500    0.0000 C   0  0  0  0  0  0  0  0  0  0  0  0
   -9.0933   10.5000    0.0000 C   0  0  0  0  0  0  0  0  0  0  0  0
   -3.8971   10.5000    0.0000 C   0  0  0  0  0  0  0  0  0  0  0  0
   -7.7942   11.2500    0.0000 C   0  0  0  0  0  0  0  0  0  0  0  0
   -5.1962   11.2500    0.0000 C   0  0  0  0  0  0  0  0  0  0  0  0
   -6.4952   10.5000    0.0000 C   0  0  0  0  0  0  0  0  0  0  0  0
  3  1  1  0
  4  2  1  0
  5  3  1  0
  6  4  1  0
  7  5  1  0
  8  6  1  0
  9  7  1  0
 10  8  1  0
 11  9  1  0
 12 10  1  0
 13 11  1  0
 14 12  1  0
 15 13  1  0
 16 14  1  0
 17 15  1  0
 18 16  1  0
 19 17  1  0
 20 18  1  0
 20 19  1  0
M  END
>  <NAME>  (2862) 
EICOSANE

>  <SYNONYMS>  (2862) 


>  <SPECTRUM TYPE>  (2862) 
MS1

>  <INSTRUMENT TYPE>  (2862) 
EI-B

>  <INSTRUMENT>  (2862) 
SHIMADZU QP-1000

>  <ION MODE>  (2862) 
P

>  <INCHIKEY>  (2862) 
CBFCDTFDPHXCNY-UHFFFAOYSA-N

>  <FORMULA>  (2862) 
C20H42

>  <EXACT MASS>  (2862) 
282.328651344

>  <MW>  (2862) 
282

>  <ID>  (2862) 
JP007693

>  <CONTRIBUTOR>  (2862) 
University of Tokyo Team, {Faculty of Engineering, University of Tokyo

>  <COMMENT>  (2862) 
SMILES=CCCCCCCCCCCCCCCCCCCC
cas=112-95-8
InChI=InChI=1S/C20H42/c1-3-5-7-9-11-13-15-17-19-20-18-16-14-12-10-8-6-4-2/h3-20H2,1-2H3
computed SMILES=CCCCCCCCCCCCCCCCCCCC
accession=JP007693
date=2016.01.19 (Created 2008.10.21, modified 2011.05.06)
author=KYOTO INSTITUTE OF TECHNOLOGY
license=CC BY-NC-SA
exact mass=282.32865
ionization energy=70 eV
ion type=[M]+*
computed spectral entropy=2.6020132372449956
computed normalized entropy=0.6585301800059978
SPLASH=splash10-0a4l-9000000000-1fd25ca00429cf4bd43d
submitter=submitter = University of Tokyo Team (Faculty of Engineering, University of Tokyo)
MoNA Rating=3.75

>  <NUM PEAKS>  (2862) 
52

>  <MASS SPECTRAL PEAKS>  (2862) 
40 1.6
41 59.6
42 15
43 9.89
44 4.4
53 1.8
54 2.7
55 2.87
56 18.5
57 99.99
58 6.1
67 0.23
68 2.1
69 12
70 11.2
71 7.37
72 3.9
82 2.1
83 6.8
84 0.59
85 41
86 2.7
96 1
97 0.45
98 3.4
99 10.8
100 1
111 0.2
112 2.2
113 5.5
125 0.8
126 0.14
127 3.2
140 0.9
141 1.9
154 0.06
155 1.2
168 0.4
169 0.8
182 0.03
183 0.5
196 0.2
197 0.4
210 0.02
211 0.3
224 0.1
225 0.3
238 0.01
239 0.1
253 0.1
282 0.3
283 0.1

>  <PREDICTED SPECTRUM>  (2862) 
26 21
27 127
28 61
29 222
30 58
37 9
38 14
39 195
40 94
41 599
42 303
43 929
44 174
51 32
52 17
53 159
54 174
55 534
56 429
57 999
58 179
61 2
65 36
66 42
67 193
68 193
69 391
70 333
71 837
72 216
73 25
79 55
80 13
81 126
82 213
83 349
84 297
85 642
86 147
95 54
96 170
97 310
98 220
99 380
100 76
109 74
110 89
111 243
112 202
113 321
114 75
124 81
125 159
126 156
127 268
128 58
138 31
139 43
140 164
141 221
142 95
152 23
153 69
154 105
155 188
156 35
168 103
169 169
170 66
181 26
182 88
183 162
184 40
196 83
197 120
210 117
211 108
224 131
225 49
226 39
238 125
239 136
240 58
252 90
253 145
254 61
267 67
268 22
280 3
282 104
283 55

$$$$

     RDKit          2D

 18 17  0  0  0  0  0  0  0  0999 V2000
  -16.2380   10.1250    0.0000 C   0  0  0  0  0  0  0  0  0  0  0  0
    5.8457    9.3750    0.0000 C   0  0  0  0  0  0  0  0  0  0  0  0
  -14.9389    9.3750    0.0000 C   0  0  0  0  0  0  0  0  0  0  0  0
    4.5466   10.1250    0.0000 C   0  0  0  0  0  0  0  0  0  0  0  0
  -13.6399   10.1250    0.0000 C   0  0  0  0  0  0  0  0  0  0  0  0
    3.2476    9.3750    0.0000 C   0  0  0  0  0  0  0  0  0  0  0  0
  -12.3409    9.3750    0.0000 C   0  0  0  0  0  0  0  0  0  0  0  0
    1.9486   10.1250    0.0000 C   0  0  0  0  0  0  0  0  0  0  0  0
  -11.0418   10.1250    0.0000 C   0  0  0  0  0  0  0  0  0  0  0  0
    0.6495    9.3750    0.0000 C   0  0  0  0  0  0  0  0  0  0  0  0
   -9.7428    9.3750    0.0000 C   0  0  0  0  0  0  0  0  0  0  0  0
   -0.6495   10.1250    0.0000 C   0  0  0  0  0  0  0  0  0  0  0  0
   -8.4437   10.1250    0.0000 C   0  0  0  0  0  0  0  0  0  0  0  0
   -1.9486    9.3750    0.0000 C   0  0  0  0  0  0  0  0  0  0  0  0
   -7.1447    9.3750    0.0000 C   0  0  0  0  0  0  0  0  0  0  0  0
   -3.2476   10.1250    0.0000 C   0  0  0  0  0  0  0  0  0  0  0  0
   -5.8457   10.1250    0.0000 C   0  0  0  0  0  0  0  0  0  0  0  0
   -4.5466    9.3750    0.0000 C   0  0  0  0  0  0  0  0  0  0  0  0
  3  1  1  0
  4  2  1  0
  5  3  1  0
  6  4  1  0
  7  5  1  0
  8  6  1  0
  9  7  1  0
 10  8  1  0
 11  9  1  0
 12 10  1  0
 13 11  1  0
 14 12  1  0
 15 13  1  0
 16 14  1  0
 17 15  1  0
 18 16  1  0
 18 17  1  0
M  END
>  <NAME>  (2863) 
OCTADECANE

>  <SYNONYMS>  (2863) 


>  <SPECTRUM TYPE>  (2863) 
MS1

>  <INSTRUMENT TYPE>  (2863) 
EI-B

>  <INSTRUMENT>  (2863) 
SHIMADZU QP-1000

>  <ION MODE>  (2863) 
P

>  <INCHIKEY>  (2863) 
RZJRJXONCZWCBN-UHFFFAOYSA-N

>  <FORMULA>  (2863) 
C18H38

>  <EXACT MASS>  (2863) 
254.29735121599998

>  <MW>  (2863) 
254

>  <ID>  (2863) 
JP007692

>  <CONTRIBUTOR>  (2863) 
University of Tokyo Team, {Faculty of Engineering, University of Tokyo

>  <COMMENT>  (2863) 
SMILES=CCCCCCCCCCCCCCCCCC
cas=593-45-3
InChI=InChI=1S/C18H38/c1-3-5-7-9-11-13-15-17-18-16-14-12-10-8-6-4-2/h3-18H2,1-2H3
computed SMILES=CCCCCCCCCCCCCCCCCC
accession=JP007692
date=2016.01.19 (Created 2008.10.21, modified 2011.05.06)
author=KYOTO INSTITUTE OF TECHNOLOGY
license=CC BY-NC-SA
exact mass=254.29735
ionization energy=70 eV
ion type=[M]+*
computed spectral entropy=2.435197526791521
computed normalized entropy=0.6360474316097149
SPLASH=splash10-0a4i-9000000000-43dac811921ac7f1d82c
submitter=submitter = University of Tokyo Team (Faculty of Engineering, University of Tokyo)
MoNA Rating=3.75

>  <NUM PEAKS>  (2863) 
46

>  <MASS SPECTRAL PEAKS>  (2863) 
40 1.8
41 44.5
42 11
43 9.39
44 3.8
53 1.5
54 2
55 2.04
56 13.7
57 99.99
58 4.3
67 0.17
68 1.5
69 8
70 8.2
71 5.26
72 3
82 1.6
83 4.7
84 0.43
85 28.8
86 2
97 3.1
98 0.26
99 7.9
111 1.4
112 1.8
113 0.4
126 1.1
127 2.5
140 0.8
141 0.14
154 0.5
155 0.9
168 0.4
169 0.06
182 0.3
183 0.4
196 0.2
197 0.03
210 0.1
211 0.2
224 0.1
225 0.01
254 0.5
255 0.1

>  <PREDICTED SPECTRUM>  (2863) 
26 24
27 136
28 76
29 234
30 73
37 8
38 12
39 212
40 100
41 623
42 323
43 959
44 187
45 32
51 40
52 23
53 171
54 179
55 546
56 447
57 999
58 180
65 31
66 27
67 189
68 191
69 391
70 348
71 824
72 226
79 58
80 3
81 116
82 208
83 349
84 303
85 634
86 141
87 8
95 55
96 163
97 292
98 220
99 370
100 76
109 43
110 84
111 222
112 203
113 309
114 88
124 62
125 138
126 136
127 240
128 50
138 5
139 39
140 159
141 191
142 64
153 61
154 115
155 196
156 51
168 102
169 152
170 5
182 115
183 117
196 121
197 153
198 50
210 121
211 110
212 23
224 72
225 44
226 55
239 67
240 20
252 21
253 3
254 79
255 52

$$$$

     RDKit          2D

 17 16  0  0  0  0  0  0  0  0999 V2000
  -15.5885    9.0000    0.0000 C   0  0  0  0  0  0  0  0  0  0  0  0
    5.1962    9.0000    0.0000 C   0  0  0  0  0  0  0  0  0  0  0  0
  -14.2894    8.2500    0.0000 C   0  0  0  0  0  0  0  0  0  0  0  0
    3.8971    8.2500    0.0000 C   0  0  0  0  0  0  0  0  0  0  0  0
  -12.9904    9.0000    0.0000 C   0  0  0  0  0  0  0  0  0  0  0  0
    2.5981    9.0000    0.0000 C   0  0  0  0  0  0  0  0  0  0  0  0
  -11.6913    8.2500    0.0000 C   0  0  0  0  0  0  0  0  0  0  0  0
    1.2990    8.2500    0.0000 C   0  0  0  0  0  0  0  0  0  0  0  0
  -10.3923    9.0000    0.0000 C   0  0  0  0  0  0  0  0  0  0  0  0
    0.0000    9.0000    0.0000 C   0  0  0  0  0  0  0  0  0  0  0  0
   -9.0933    8.2500    0.0000 C   0  0  0  0  0  0  0  0  0  0  0  0
   -1.2990    8.2500    0.0000 C   0  0  0  0  0  0  0  0  0  0  0  0
   -7.7942    9.0000    0.0000 C   0  0  0  0  0  0  0  0  0  0  0  0
   -2.5981    9.0000    0.0000 C   0  0  0  0  0  0  0  0  0  0  0  0
   -6.4952    8.2500    0.0000 C   0  0  0  0  0  0  0  0  0  0  0  0
   -3.8971    8.2500    0.0000 C   0  0  0  0  0  0  0  0  0  0  0  0
   -5.1962    9.0000    0.0000 C   0  0  0  0  0  0  0  0  0  0  0  0
  3  1  1  0
  4  2  1  0
  5  3  1  0
  6  4  1  0
  7  5  1  0
  8  6  1  0
  9  7  1  0
 10  8  1  0
 11  9  1  0
 12 10  1  0
 13 11  1  0
 14 12  1  0
 15 13  1  0
 16 14  1  0
 17 15  1  0
 17 16  1  0
M  END
>  <NAME>  (2864) 
HEPTADECANE

>  <SYNONYMS>  (2864) 


>  <SPECTRUM TYPE>  (2864) 
MS1

>  <INSTRUMENT TYPE>  (2864) 
EI-B

>  <INSTRUMENT>  (2864) 
SHIMADZU QP-1000

>  <ION MODE>  (2864) 
P

>  <INCHIKEY>  (2864) 
NDJKXXJCMXVBJW-UHFFFAOYSA-N

>  <FORMULA>  (2864) 
C17H36

>  <EXACT MASS>  (2864) 
240.28170115199998

>  <MW>  (2864) 
240

>  <ID>  (2864) 
JP007691

>  <CONTRIBUTOR>  (2864) 
University of Tokyo Team, {Faculty of Engineering, University of Tokyo

>  <COMMENT>  (2864) 
SMILES=CCCCCCCCCCCCCCCCC
cas=629-78-7
InChI=InChI=1S/C17H36/c1-3-5-7-9-11-13-15-17-16-14-12-10-8-6-4-2/h3-17H2,1-2H3
computed SMILES=CCCCCCCCCCCCCCCCC
accession=JP007691
date=2016.01.19 (Created 2008.10.21, modified 2011.05.06)
author=KYOTO INSTITUTE OF TECHNOLOGY
license=CC BY-NC-SA
exact mass=240.2817
ionization energy=70 eV
ion type=[M]+*
computed spectral entropy=2.415156748547507
computed normalized entropy=0.6421239695463942
SPLASH=splash10-0a4i-9000000000-415b614e80029b0ad229
submitter=submitter = University of Tokyo Team (Faculty of Engineering, University of Tokyo)
MoNA Rating=3.75

>  <NUM PEAKS>  (2864) 
43

>  <MASS SPECTRAL PEAKS>  (2864) 
40 2.4
41 44.8
42 11.5
43 9.68
44 4.1
53 1.5
54 1.9
55 1.96
56 14
57 99.99
58 4.4
67 0.15
68 1.3
69 7.6
70 8.5
71 5.25
72 2.8
82 1.3
83 4.1
84 0.43
85 28.8
86 2
97 2.6
98 0.26
99 7.4
111 1.2
112 1.7
113 0.37
126 1.2
127 2.1
140 0.8
141 0.13
154 0.5
155 0.8
168 0.4
169 0.07
182 0.3
183 0.5
196 0.1
197 0.03
211 0.1
240 0.7
241 0.1

>  <PREDICTED SPECTRUM>  (2864) 
26 27
27 129
28 49
29 286
30 66
31 2
37 11
38 25
39 223
40 103
41 633
42 329
43 973
44 184
45 10
51 30
52 16
53 174
54 179
55 545
56 457
57 999
58 183
65 43
66 45
67 197
68 194
69 392
70 355
71 819
72 225
73 32
79 34
81 111
82 207
83 349
84 307
85 633
86 140
95 47
96 155
97 276
98 223
99 366
100 88
109 36
110 82
111 217
112 202
113 291
114 63
124 51
125 119
126 143
127 235
128 73
139 70
140 161
141 201
142 55
153 36
154 105
155 154
156 4
168 125
169 123
182 120
183 157
184 53
195 3
196 117
197 124
198 51
210 103
211 107
212 41
225 17
226 7
240 89
241 45

$$$$

     RDKit          2D

 16 15  0  0  0  0  0  0  0  0999 V2000
    5.1962    8.2500    0.0000 C   0  0  0  0  0  0  0  0  0  0  0  0
  -14.2894    9.0000    0.0000 C   0  0  0  0  0  0  0  0  0  0  0  0
    3.8971    9.0000    0.0000 C   0  0  0  0  0  0  0  0  0  0  0  0
  -12.9904    8.2500    0.0000 C   0  0  0  0  0  0  0  0  0  0  0  0
    2.5981    8.2500    0.0000 C   0  0  0  0  0  0  0  0  0  0  0  0
  -11.6913    9.0000    0.0000 C   0  0  0  0  0  0  0  0  0  0  0  0
    1.2990    9.0000    0.0000 C   0  0  0  0  0  0  0  0  0  0  0  0
  -10.3923    8.2500    0.0000 C   0  0  0  0  0  0  0  0  0  0  0  0
    0.0000    8.2500    0.0000 C   0  0  0  0  0  0  0  0  0  0  0  0
   -9.0933    9.0000    0.0000 C   0  0  0  0  0  0  0  0  0  0  0  0
   -1.2990    9.0000    0.0000 C   0  0  0  0  0  0  0  0  0  0  0  0
   -7.7942    8.2500    0.0000 C   0  0  0  0  0  0  0  0  0  0  0  0
   -2.5981    8.2500    0.0000 C   0  0  0  0  0  0  0  0  0  0  0  0
   -6.4952    9.0000    0.0000 C   0  0  0  0  0  0  0  0  0  0  0  0
   -3.8971    9.0000    0.0000 C   0  0  0  0  0  0  0  0  0  0  0  0
   -5.1962    8.2500    0.0000 C   0  0  0  0  0  0  0  0  0  0  0  0
  3  1  1  0
  4  2  1  0
  5  3  1  0
  6  4  1  0
  7  5  1  0
  8  6  1  0
  9  7  1  0
 10  8  1  0
 11  9  1  0
 12 10  1  0
 13 11  1  0
 14 12  1  0
 15 13  1  0
 16 14  1  0
 16 15  1  0
M  END
>  <NAME>  (2865) 
HEXADECANE

>  <SYNONYMS>  (2865) 


>  <SPECTRUM TYPE>  (2865) 
MS1

>  <INSTRUMENT TYPE>  (2865) 
EI-B

>  <INSTRUMENT>  (2865) 
SHIMADZU QP-1000

>  <ION MODE>  (2865) 
P

>  <INCHIKEY>  (2865) 
DCAYPVUWAIABOU-UHFFFAOYSA-N

>  <FORMULA>  (2865) 
C16H34

>  <EXACT MASS>  (2865) 
226.26605108799998

>  <MW>  (2865) 
226

>  <ID>  (2865) 
JP007690

>  <CONTRIBUTOR>  (2865) 
University of Tokyo Team, {Faculty of Engineering, University of Tokyo

>  <COMMENT>  (2865) 
SMILES=CCCCCCCCCCCCCCCC
cas=544-76-3
InChI=InChI=1S/C16H34/c1-3-5-7-9-11-13-15-16-14-12-10-8-6-4-2/h3-16H2,1-2H3
computed SMILES=CCCCCCCCCCCCCCCC
accession=JP007690
date=2016.01.19 (Created 2008.10.21, modified 2011.05.06)
author=KYOTO INSTITUTE OF TECHNOLOGY
license=CC BY-NC-SA
exact mass=226.26605
ionization energy=70 eV
ion type=[M]+*
computed spectral entropy=2.380713694485145
computed normalized entropy=0.6369513460578562
SPLASH=splash10-0a4i-9000000000-b0449813985ea9c60d4f
submitter=submitter = University of Tokyo Team (Faculty of Engineering, University of Tokyo)
MoNA Rating=3.75

>  <NUM PEAKS>  (2865) 
42

>  <MASS SPECTRAL PEAKS>  (2865) 
40 2.3
41 45
42 11.7
43 9.72
44 3.9
53 1.5
54 1.7
55 1.8
56 13.7
57 99.99
58 4.5
67 0.13
68 1.2
69 6.9
70 8.6
71 5.21
72 2.9
82 1.2
83 3.6
84 0.44
85 28.6
86 1.9
97 2.4
98 0.28
99 7
111 0.9
112 1.8
113 0.33
126 1.2
127 1.8
140 0.8
141 0.12
154 0.5
155 0.8
168 0.3
169 0.06
182 0.1
183 0.3
196 0.1
197 0.01
226 0.7
227 0.1

>  <PREDICTED SPECTRUM>  (2865) 
26 28
27 155
28 56
29 267
30 64
37 1
38 6
39 231
40 108
41 638
42 334
43 982
44 184
51 43
52 22
53 174
54 178
55 542
56 465
57 999
58 189
59 10
65 23
66 3
67 189
68 191
69 388
70 357
71 817
72 223
79 56
81 106
82 200
83 337
84 303
85 631
86 142
95 49
96 147
97 259
98 219
99 351
100 74
109 14
110 69
111 201
112 207
113 284
114 75
124 34
125 116
126 145
127 235
128 65
139 43
140 156
141 149
154 124
155 124
168 123
169 167
170 45
181 12
182 115
183 120
184 57
196 53
197 131
198 71
210 62
211 69
212 0
226 59
227 28

$$$$

     RDKit          2D

 15 14  0  0  0  0  0  0  0  0999 V2000
    4.5466    7.8750    0.0000 C   0  0  0  0  0  0  0  0  0  0  0  0
  -13.6399    7.8750    0.0000 C   0  0  0  0  0  0  0  0  0  0  0  0
    3.2476    8.6250    0.0000 C   0  0  0  0  0  0  0  0  0  0  0  0
  -12.3409    8.6250    0.0000 C   0  0  0  0  0  0  0  0  0  0  0  0
    1.9486    7.8750    0.0000 C   0  0  0  0  0  0  0  0  0  0  0  0
  -11.0418    7.8750    0.0000 C   0  0  0  0  0  0  0  0  0  0  0  0
    0.6495    8.6250    0.0000 C   0  0  0  0  0  0  0  0  0  0  0  0
   -9.7428    8.6250    0.0000 C   0  0  0  0  0  0  0  0  0  0  0  0
   -0.6495    7.8750    0.0000 C   0  0  0  0  0  0  0  0  0  0  0  0
   -8.4437    7.8750    0.0000 C   0  0  0  0  0  0  0  0  0  0  0  0
   -1.9486    8.6250    0.0000 C   0  0  0  0  0  0  0  0  0  0  0  0
   -7.1447    8.6250    0.0000 C   0  0  0  0  0  0  0  0  0  0  0  0
   -3.2476    7.8750    0.0000 C   0  0  0  0  0  0  0  0  0  0  0  0
   -5.8457    7.8750    0.0000 C   0  0  0  0  0  0  0  0  0  0  0  0
   -4.5466    8.6250    0.0000 C   0  0  0  0  0  0  0  0  0  0  0  0
  3  1  1  0
  4  2  1  0
  5  3  1  0
  6  4  1  0
  7  5  1  0
  8  6  1  0
  9  7  1  0
 10  8  1  0
 11  9  1  0
 12 10  1  0
 13 11  1  0
 14 12  1  0
 15 13  1  0
 15 14  1  0
M  END
>  <NAME>  (2866) 
PENTADECANE

>  <SYNONYMS>  (2866) 


>  <SPECTRUM TYPE>  (2866) 
MS1

>  <INSTRUMENT TYPE>  (2866) 
EI-B

>  <INSTRUMENT>  (2866) 
SHIMADZU QP-1000

>  <ION MODE>  (2866) 
P

>  <INCHIKEY>  (2866) 
YCOZIPAWZNQLMR-UHFFFAOYSA-N

>  <FORMULA>  (2866) 
C15H32

>  <EXACT MASS>  (2866) 
212.25040102399998

>  <MW>  (2866) 
212

>  <ID>  (2866) 
JP007689

>  <CONTRIBUTOR>  (2866) 
University of Tokyo Team, {Faculty of Engineering, University of Tokyo

>  <COMMENT>  (2866) 
SMILES=CCCCCCCCCCCCCCC
cas=629-62-9
InChI=InChI=1S/C15H32/c1-3-5-7-9-11-13-15-14-12-10-8-6-4-2/h3-15H2,1-2H3
computed SMILES=CCCCCCCCCCCCCCC
accession=JP007689
date=2016.01.19 (Created 2008.10.21, modified 2011.05.06)
author=KYOTO INSTITUTE OF TECHNOLOGY
license=CC BY-NC-SA
exact mass=212.2504
ionization energy=70 eV
ion type=[M]+*
computed spectral entropy=2.2516929132552606
computed normalized entropy=0.6104002424758318
SPLASH=splash10-052f-9000000000-02e5634c0c5383d948e0
submitter=submitter = University of Tokyo Team (Faculty of Engineering, University of Tokyo)
MoNA Rating=3.75

>  <NUM PEAKS>  (2866) 
40

>  <MASS SPECTRAL PEAKS>  (2866) 
40 2.8
41 44.4
42 12.2
43 99.99
44 4.1
53 1.5
54 1.7
55 1.66
56 13.9
57 97.8
58 4.4
67 0.12
68 1
69 6.2
70 8.6
71 5.01
72 2.7
82 1.1
83 3.2
84 0.45
85 27.6
86 1.9
97 2
98 0.29
99 6.5
111 0.7
112 1.9
113 0.27
126 1.2
127 1.5
140 0.8
141 0.11
154 0.5
155 0.8
168 0.2
169 0.05
182 0.1
183 0.2
212 0.8
213 0.2

>  <PREDICTED SPECTRUM>  (2866) 
26 32
27 176
28 71
29 298
30 59
37 11
38 26
39 244
40 114
41 643
42 340
43 977
44 186
45 17
51 26
52 9
53 169
54 173
55 535
56 474
57 999
58 202
65 38
66 15
67 176
68 185
69 378
70 358
71 810
72 230
79 29
81 101
82 192
83 325
84 296
85 623
86 132
95 23
96 134
97 231
98 214
99 339
100 81
110 58
111 186
112 212
113 277
114 65
124 22
125 87
126 138
127 196
140 165
141 115
153 7
154 120
155 165
156 38
167 3
168 116
169 123
170 48
182 68
183 122
184 76
197 60
210 58
211 12
212 37
213 28

$$$$

     RDKit          2D

 14 13  0  0  0  0  0  0  0  0999 V2000
    4.5466    7.1250    0.0000 C   0  0  0  0  0  0  0  0  0  0  0  0
  -12.3409    7.8750    0.0000 C   0  0  0  0  0  0  0  0  0  0  0  0
    3.2476    7.8750    0.0000 C   0  0  0  0  0  0  0  0  0  0  0  0
  -11.0418    7.1250    0.0000 C   0  0  0  0  0  0  0  0  0  0  0  0
    1.9486    7.1250    0.0000 C   0  0  0  0  0  0  0  0  0  0  0  0
   -9.7428    7.8750    0.0000 C   0  0  0  0  0  0  0  0  0  0  0  0
    0.6495    7.8750    0.0000 C   0  0  0  0  0  0  0  0  0  0  0  0
   -8.4437    7.1250    0.0000 C   0  0  0  0  0  0  0  0  0  0  0  0
   -0.6495    7.1250    0.0000 C   0  0  0  0  0  0  0  0  0  0  0  0
   -7.1447    7.8750    0.0000 C   0  0  0  0  0  0  0  0  0  0  0  0
   -1.9486    7.8750    0.0000 C   0  0  0  0  0  0  0  0  0  0  0  0
   -5.8457    7.1250    0.0000 C   0  0  0  0  0  0  0  0  0  0  0  0
   -3.2476    7.1250    0.0000 C   0  0  0  0  0  0  0  0  0  0  0  0
   -4.5466    7.8750    0.0000 C   0  0  0  0  0  0  0  0  0  0  0  0
  3  1  1  0
  4  2  1  0
  5  3  1  0
  6  4  1  0
  7  5  1  0
  8  6  1  0
  9  7  1  0
 10  8  1  0
 11  9  1  0
 12 10  1  0
 13 11  1  0
 14 12  1  0
 14 13  1  0
M  END
>  <NAME>  (2867) 
TETRADECANE

>  <SYNONYMS>  (2867) 


>  <SPECTRUM TYPE>  (2867) 
MS1

>  <INSTRUMENT TYPE>  (2867) 
EI-B

>  <INSTRUMENT>  (2867) 
SHIMADZU QP-1000

>  <ION MODE>  (2867) 
P

>  <INCHIKEY>  (2867) 
BGHCVCJVXZWKCC-UHFFFAOYSA-N

>  <FORMULA>  (2867) 
C14H30

>  <EXACT MASS>  (2867) 
198.23475095999999

>  <MW>  (2867) 
198

>  <ID>  (2867) 
JP007688

>  <CONTRIBUTOR>  (2867) 
University of Tokyo Team, {Faculty of Engineering, University of Tokyo

>  <COMMENT>  (2867) 
SMILES=CCCCCCCCCCCCCC
cas=629-59-4
InChI=InChI=1S/C14H30/c1-3-5-7-9-11-13-14-12-10-8-6-4-2/h3-14H2,1-2H3
computed SMILES=CCCCCCCCCCCCCC
accession=JP007688
date=2016.01.19 (Created 2008.10.21, modified 2011.05.06)
author=KYOTO INSTITUTE OF TECHNOLOGY
license=CC BY-NC-SA
exact mass=198.23475
ionization energy=70 eV
ion type=[M]+*
computed spectral entropy=2.2852862351846692
computed normalized entropy=0.6328823558083009
SPLASH=splash10-0a4i-9000000000-97d43db8a1ee2fb60342
submitter=submitter = University of Tokyo Team (Faculty of Engineering, University of Tokyo)
MoNA Rating=3.75

>  <NUM PEAKS>  (2867) 
37

>  <MASS SPECTRAL PEAKS>  (2867) 
40 3.5
41 44.3
42 12.3
43 9.77
44 4.1
53 1.6
54 1.5
55 1.5
56 14.2
57 99.99
58 4.2
67 0.1
68 0.9
69 5.6
70 8.3
71 4.59
72 2.5
82 0.9
83 2.6
84 0.44
85 25.4
86 1.7
97 1.5
98 0.28
99 4.7
111 0.5
112 1.9
113 0.22
126 1.1
127 1.3
140 0.6
141 0.1
155 0.5
168 0.1
169 0.2
198 0.1
199 0.1

>  <PREDICTED SPECTRUM>  (2867) 
26 38
27 191
28 59
29 282
30 62
37 2
38 3
39 256
40 116
41 642
42 345
43 970
44 184
51 42
52 11
53 164
54 171
55 529
56 491
57 999
58 221
65 10
66 13
67 170
68 178
69 365
70 365
71 795
72 228
79 40
81 82
82 172
83 307
84 290
85 614
86 136
95 2
96 124
97 206
98 215
99 329
100 65
110 48
111 167
112 212
113 216
114 8
124 0
125 40
126 147
127 165
139 12
140 161
141 145
142 11
153 12
154 99
155 112
156 39
168 78
169 121
170 66
183 34
198 54
199 18

$$$$

     RDKit          2D

 13 12  0  0  0  0  0  0  0  0999 V2000
    3.8971    6.7500    0.0000 C   0  0  0  0  0  0  0  0  0  0  0  0
  -11.6913    6.7500    0.0000 C   0  0  0  0  0  0  0  0  0  0  0  0
    2.5981    7.5000    0.0000 C   0  0  0  0  0  0  0  0  0  0  0  0
  -10.3923    7.5000    0.0000 C   0  0  0  0  0  0  0  0  0  0  0  0
    1.2990    6.7500    0.0000 C   0  0  0  0  0  0  0  0  0  0  0  0
   -9.0933    6.7500    0.0000 C   0  0  0  0  0  0  0  0  0  0  0  0
    0.0000    7.5000    0.0000 C   0  0  0  0  0  0  0  0  0  0  0  0
   -7.7942    7.5000    0.0000 C   0  0  0  0  0  0  0  0  0  0  0  0
   -1.2990    6.7500    0.0000 C   0  0  0  0  0  0  0  0  0  0  0  0
   -6.4952    6.7500    0.0000 C   0  0  0  0  0  0  0  0  0  0  0  0
   -2.5981    7.5000    0.0000 C   0  0  0  0  0  0  0  0  0  0  0  0
   -5.1962    7.5000    0.0000 C   0  0  0  0  0  0  0  0  0  0  0  0
   -3.8971    6.7500    0.0000 C   0  0  0  0  0  0  0  0  0  0  0  0
  3  1  1  0
  4  2  1  0
  5  3  1  0
  6  4  1  0
  7  5  1  0
  8  6  1  0
  9  7  1  0
 10  8  1  0
 11  9  1  0
 12 10  1  0
 13 11  1  0
 13 12  1  0
M  END
>  <NAME>  (2868) 
TRIDECANE

>  <SYNONYMS>  (2868) 


>  <SPECTRUM TYPE>  (2868) 
MS1

>  <INSTRUMENT TYPE>  (2868) 
EI-B

>  <INSTRUMENT>  (2868) 
SHIMADZU QP-1000

>  <ION MODE>  (2868) 
P

>  <INCHIKEY>  (2868) 
IIYFAKIEWZDVMP-UHFFFAOYSA-N

>  <FORMULA>  (2868) 
C13H28

>  <EXACT MASS>  (2868) 
184.219100896

>  <MW>  (2868) 
184

>  <ID>  (2868) 
JP007687

>  <CONTRIBUTOR>  (2868) 
University of Tokyo Team, {Faculty of Engineering, University of Tokyo

>  <COMMENT>  (2868) 
SMILES=CCCCCCCCCCCCC
cas=629-50-5
InChI=InChI=1S/C13H28/c1-3-5-7-9-11-13-12-10-8-6-4-2/h3-13H2,1-2H3
computed SMILES=CCCCCCCCCCCCC
accession=JP007687
date=2016.01.19 (Created 2008.10.21, modified 2011.05.06)
author=KYOTO INSTITUTE OF TECHNOLOGY
license=CC BY-NC-SA
exact mass=184.2191
ionization energy=70 eV
ion type=[M]+*
computed spectral entropy=2.1732229071974207
computed normalized entropy=0.6215410288676576
SPLASH=splash10-052f-9000000000-0ce01dfea4481d77cbe6
submitter=submitter = University of Tokyo Team (Faculty of Engineering, University of Tokyo)
MoNA Rating=3.75

>  <NUM PEAKS>  (2868) 
33

>  <MASS SPECTRAL PEAKS>  (2868) 
40 4.1
41 42.9
42 12.5
43 99.99
44 4.2
53 1.5
54 1.5
55 1.42
56 14.2
57 94.9
58 4.2
67 0.08
68 0.8
69 4.9
70 8.7
71 4.59
72 2.5
82 0.8
83 2.3
84 0.47
85 23.1
86 1.5
97 1.1
98 0.32
99 4
112 1.9
113 1.9
126 0.11
127 1.5
141 0.9
155 0.4
184 0.11
185 0.2

>  <PREDICTED SPECTRUM>  (2868) 
26 40
27 244
28 70
29 351
30 55
37 14
38 12
39 266
40 122
41 634
42 353
43 958
44 205
51 24
52 9
53 157
54 170
55 524
56 511
57 999
58 216
65 20
67 150
68 170
69 355
70 386
71 780
72 232
79 25
81 63
82 156
83 291
84 291
85 603
86 131
96 108
97 173
98 222
99 287
100 15
110 28
111 145
112 214
113 165
125 30
126 140
127 164
128 1
139 7
140 143
141 100
142 35
154 81
155 107
156 51
169 4
184 68
185 14

$$$$

     RDKit          2D

 12 11  0  0  0  0  0  0  0  0999 V2000
    3.8971    6.0000    0.0000 C   0  0  0  0  0  0  0  0  0  0  0  0
  -10.3923    6.7500    0.0000 C   0  0  0  0  0  0  0  0  0  0  0  0
    2.5981    6.7500    0.0000 C   0  0  0  0  0  0  0  0  0  0  0  0
   -9.0933    6.0000    0.0000 C   0  0  0  0  0  0  0  0  0  0  0  0
    1.2990    6.0000    0.0000 C   0  0  0  0  0  0  0  0  0  0  0  0
   -7.7942    6.7500    0.0000 C   0  0  0  0  0  0  0  0  0  0  0  0
    0.0000    6.7500    0.0000 C   0  0  0  0  0  0  0  0  0  0  0  0
   -6.4952    6.0000    0.0000 C   0  0  0  0  0  0  0  0  0  0  0  0
   -1.2990    6.0000    0.0000 C   0  0  0  0  0  0  0  0  0  0  0  0
   -5.1962    6.7500    0.0000 C   0  0  0  0  0  0  0  0  0  0  0  0
   -2.5981    6.7500    0.0000 C   0  0  0  0  0  0  0  0  0  0  0  0
   -3.8971    6.0000    0.0000 C   0  0  0  0  0  0  0  0  0  0  0  0
  3  1  1  0
  4  2  1  0
  5  3  1  0
  6  4  1  0
  7  5  1  0
  8  6  1  0
  9  7  1  0
 10  8  1  0
 11  9  1  0
 12 10  1  0
 12 11  1  0
M  END
>  <NAME>  (2869) 
DODECANE

>  <SYNONYMS>  (2869) 


>  <SPECTRUM TYPE>  (2869) 
MS1

>  <INSTRUMENT TYPE>  (2869) 
EI-B

>  <INSTRUMENT>  (2869) 
SHIMADZU QP-1000

>  <ION MODE>  (2869) 
P

>  <INCHIKEY>  (2869) 
SNRUBQQJIBEYMU-UHFFFAOYSA-N

>  <FORMULA>  (2869) 
C12H26

>  <EXACT MASS>  (2869) 
170.203450832

>  <MW>  (2869) 
170

>  <ID>  (2869) 
JP007686

>  <CONTRIBUTOR>  (2869) 
University of Tokyo Team, {Faculty of Engineering, University of Tokyo

>  <COMMENT>  (2869) 
SMILES=CCCCCCCCCCCC
cas=112-40-3
InChI=InChI=1S/C12H26/c1-3-5-7-9-11-12-10-8-6-4-2/h3-12H2,1-2H3
computed SMILES=CCCCCCCCCCCC
accession=JP007686
date=2016.01.19 (Created 2008.10.21, modified 2011.05.06)
author=KYOTO INSTITUTE OF TECHNOLOGY
license=CC BY-NC-SA
exact mass=170.20345
ionization energy=70 eV
ion type=[M]+*
computed spectral entropy=2.1609234882631254
computed normalized entropy=0.6235107200515382
SPLASH=splash10-052f-9000000000-60adc4e587abee13f129
submitter=submitter = University of Tokyo Team (Faculty of Engineering, University of Tokyo)
MoNA Rating=3.75

>  <NUM PEAKS>  (2869) 
32

>  <MASS SPECTRAL PEAKS>  (2869) 
40 8.7
41 48
42 13.7
43 99.99
44 5.4
53 1.7
54 1.4
55 1.31
56 13.7
57 82.2
58 3.4
67 0.07
68 0.6
69 4.3
70 8
71 3.64
72 2
82 0.5
83 1.7
84 0.48
85 16.6
86 1.7
97 0.7
98 0.27
99 2.6
112 1.4
113 1.5
126 0.06
127 1
141 0.5
170 1.1
171 0.1

>  <PREDICTED SPECTRUM>  (2869) 
15 6
26 46
27 269
28 95
29 408
30 100
31 0
37 11
38 23
39 285
40 126
41 638
42 362
43 958
44 199
51 32
52 2
53 149
54 164
55 516
56 537
57 999
58 218
65 22
66 3
67 145
68 162
69 347
70 403
71 758
72 217
79 8
81 36
82 137
83 270
84 291
85 550
86 111
96 87
97 143
98 230
99 247
111 115
112 204
113 160
126 109
127 124
128 31
140 131
141 92
142 41
170 81
171 10

$$$$

     RDKit          2D

  9  9  0  0  0  0  0  0  0  0999 V2000
   -2.9228    0.8825    0.0000 C   0  0  0  0  0  0  0  0  0  0  0  0
   -1.6238    3.1325    0.0000 C   0  0  0  0  0  0  0  0  0  0  0  0
    2.2733   -0.6175    0.0000 C   0  0  0  0  0  0  0  0  0  0  0  0
    0.9738   -1.3683    0.0000 C   0  0  0  0  0  0  0  0  0  0  0  0
    2.2738    0.8833    0.0000 C   0  0  0  0  0  0  0  0  0  0  0  0
   -0.3252   -0.6183    0.0000 C   0  0  0  0  0  0  0  0  0  0  0  0
    0.9748    1.6333    0.0000 C   0  0  0  0  0  0  0  0  0  0  0  0
   -0.3248    0.8825    0.0000 C   0  0  0  0  0  0  0  0  0  0  0  0
   -1.6238    1.6325    0.0000 N   0  0  0  0  0  0  0  0  0  0  0  0
  4  3  2  0
  5  3  1  0
  6  4  1  0
  7  5  2  0
  8  6  2  0
  8  7  1  0
  9  1  1  0
  9  2  1  0
  9  8  1  0
M  END
>  <NAME>  (2870) 
N,N-DIMETHYLANILINE

>  <SYNONYMS>  (2870) 
N,N-DIMETHYLBENZENAMINE

>  <SPECTRUM TYPE>  (2870) 
MS1

>  <INSTRUMENT TYPE>  (2870) 
EI-B

>  <INSTRUMENT>  (2870) 
HITACHI RMU-7M

>  <ION MODE>  (2870) 
P

>  <INCHIKEY>  (2870) 
JLTDJTHDQAWBAV-UHFFFAOYSA-N

>  <FORMULA>  (2870) 
C8H11N

>  <EXACT MASS>  (2870) 
121.08914935199999

>  <MW>  (2870) 
121

>  <ID>  (2870) 
JP007684

>  <CONTRIBUTOR>  (2870) 
University of Tokyo Team, {Faculty of Engineering, University of Tokyo

>  <COMMENT>  (2870) 
SMILES=CN(C)c(c1)cccc1
cas=121-69-7
InChI=InChI=1S/C8H11N/c1-9(2)8-6-4-3-5-7-8/h3-7H,1-2H3
computed SMILES=C=1C=CC(=CC1)N(C)C
accession=JP007684
date=2016.01.19 (Created 2008.10.21, modified 2011.05.06)
author=TAJIMA S, GUNMA COLLEGE OF TECHNOLOGY
license=CC BY-NC-SA
exact mass=121.08915
ionization energy=70 eV
ion type=[M]+*
computed spectral entropy=2.5791957353238777
computed normalized entropy=0.7583199226336673
SPLASH=splash10-00di-4900000000-6394ae2b1d9a7feb7332
submitter=submitter = University of Tokyo Team (Faculty of Engineering, University of Tokyo)
MoNA Rating=3.75

>  <NUM PEAKS>  (2870) 
30

>  <MASS SPECTRAL PEAKS>  (2870) 
15 2.56
27 2.02
28 2.43
39 5.53
42 9.31
43 2.02
44 3.78
50 5.26
51 16.06
52 4.18
60.5 3.64
63 2.56
65 3.78
77 33.74
78 7.15
79 9.45
91 6.21
92 3.78
93 4.05
94 2.16
103 6.07
104 13.23
105 14.84
106 6.07
107 2.56
118 6.07
119 2.97
120 99.99
121 77.87
122 6.88

>  <PREDICTED SPECTRUM>  (2870) 
15 39
26 26
27 79
28 76
30 75
31 5
37 45
38 107
39 269
40 101
41 185
42 394
43 105
44 269
45 73
46 42
49 22
50 207
51 370
52 225
53 180
54 118
55 22
58 0
59 60
61 72
62 103
63 207
64 161
65 291
66 206
67 120
68 63
69 14
73 81
74 121
75 135
76 144
77 527
78 346
79 265
80 150
81 52
82 2
87 42
88 43
89 116
90 102
91 291
92 242
93 164
94 30
102 28
103 123
104 423
105 362
106 423
107 208
117 67
118 270
119 227
120 721
121 999
122 323
123 38

$$$$

     RDKit          2D

  4  3  0  0  0  0  0  0  0  0999 V2000
    0.9743    0.5625    0.0000 C   0  0  0  0  0  0  0  0  0  0  0  0
   -1.6238    0.5625    0.0000 C   0  0  0  0  0  0  0  0  0  0  0  0
   -0.3248    1.3125    0.0000 C   0  0  0  0  0  0  0  0  0  0  0  0
   -0.3248    2.8125    0.0000 O   0  0  0  0  0  0  0  0  0  0  0  0
  3  1  1  0
  3  2  1  0
  4  3  2  0
M  END
>  <NAME>  (2871) 
ACETONE

>  <SYNONYMS>  (2871) 
2-PROPANONE

>  <SPECTRUM TYPE>  (2871) 
MS1

>  <INSTRUMENT TYPE>  (2871) 
EI-B

>  <INSTRUMENT>  (2871) 
HITACHI RMU-7M

>  <ION MODE>  (2871) 
P

>  <INCHIKEY>  (2871) 
CSCPPACGZOOCGX-UHFFFAOYSA-N

>  <FORMULA>  (2871) 
C3H6O

>  <EXACT MASS>  (2871) 
58.041864812

>  <MW>  (2871) 
58

>  <ID>  (2871) 
JP007680

>  <CONTRIBUTOR>  (2871) 
University of Tokyo Team, {Faculty of Engineering, University of Tokyo

>  <COMMENT>  (2871) 
SMILES=CC(C)=O
cas=67-64-1
InChI=InChI=1S/C3H6O/c1-3(2)4/h1-2H3
computed SMILES=O=C(C)C
accession=JP007680
date=2016.01.19 (Created 2008.10.21, modified 2011.05.06)
author=TAJIMA S, GUNMA COLLEGE OF TECHNOLOGY
license=CC BY-NC-SA
exact mass=58.04186
ionization energy=70 eV
ion type=[M]+*
computed spectral entropy=1.837686903740748
computed normalized entropy=0.6628054456833428
SPLASH=splash10-0006-9000000000-5de48058c986d7c07ac3
submitter=submitter = University of Tokyo Team (Faculty of Engineering, University of Tokyo)
MoNA Rating=3.75

>  <NUM PEAKS>  (2871) 
16

>  <MASS SPECTRAL PEAKS>  (2871) 
14 3.08
15 23.21
26 3.08
27 5.51
28 2.77
29 4.36
39 3.85
41 5
42 6.28
43 99.99
44 3.72
55 3.46
56 1.67
57 5.9
58 30
59 1.41

>  <PREDICTED SPECTRUM>  (2871) 
14 87
15 219
16 25
25 44
26 184
27 315
28 186
29 235
31 37
37 69
38 126
39 274
40 190
41 249
42 178
43 999
44 121
54 110
57 94
58 452
59 182

$$$$

     RDKit          2D

  4  3  0  0  0  0  0  0  0  0999 V2000
   -2.5981    2.2500    0.0000 C   0  0  0  0  0  0  0  0  0  0  0  0
   -1.2990    1.5000    0.0000 C   0  0  0  0  0  0  0  0  0  0  0  0
    0.0000    2.2500    0.0000 C   0  0  0  0  0  0  0  0  0  0  0  0
    1.2990    1.5000    0.0000 O   0  0  0  0  0  0  0  0  0  0  0  0
  2  1  1  0
  3  2  1  0
  4  3  1  0
M  END
>  <NAME>  (2872) 
1-PROPANOL

>  <SYNONYMS>  (2872) 
PROPYL ALCOHOL

>  <SPECTRUM TYPE>  (2872) 
MS1

>  <INSTRUMENT TYPE>  (2872) 
EI-B

>  <INSTRUMENT>  (2872) 
HITACHI RMU-7M

>  <ION MODE>  (2872) 
P

>  <INCHIKEY>  (2872) 
BDERNNFJNOPAEC-UHFFFAOYSA-N

>  <FORMULA>  (2872) 
C3H8O

>  <EXACT MASS>  (2872) 
60.057514876

>  <MW>  (2872) 
60

>  <ID>  (2872) 
JP007679

>  <CONTRIBUTOR>  (2872) 
University of Tokyo Team, {Faculty of Engineering, University of Tokyo

>  <COMMENT>  (2872) 
computed SMILES=OCCC
SMILES=CCCO
cas=71-23-8
InChI=InChI=1S/C3H8O/c1-2-3-4/h4H,2-3H2,1H3
ion type=[M]+*
accession=JP007679
date=2016.01.19 (Created 2008.10.21, modified 2011.05.06)
author=TAJIMA S, GUNMA COLLEGE OF TECHNOLOGY
license=CC BY-NC-SA
exact mass=60.05751
ionization energy=70 eV
computed spectral entropy=1.8660950786014094
computed normalized entropy=0.6337693162619705
SPLASH=splash10-001i-9000000000-6013791cdd19a27be85c
submitter=submitter = University of Tokyo Team (Faculty of Engineering, University of Tokyo)
MoNA Rating=3.75

>  <NUM PEAKS>  (2872) 
19

>  <MASS SPECTRAL PEAKS>  (2872) 
15 1.32
19 1
26 2.05
27 10.19
28 5.43
29 10.12
30 1.54
31 99.99
32 2.2
33 1.1
39 3.23
41 7.26
42 13.27
43 4.33
45 1.25
55 1.32
57 2.93
59 12.1
60 4.25

>  <PREDICTED SPECTRUM>  (2872) 
14 128
15 314
16 72
17 49
18 66
19 115
25 58
26 294
27 821
28 480
29 883
30 371
31 787
32 331
33 62
37 46
38 113
39 677
40 148
41 999
42 535
43 849
44 13
45 507
56 13
57 134
58 119
59 138
60 436
61 99

$$$$

     RDKit          2D

 13 13  0  0  0  0  0  0  0  0999 V2000
    7.4251    1.2910    0.0000 C   0  0  0  0  0  0  0  0  0  0  0  0
    6.1264   -0.9592    0.0000 C   0  0  0  0  0  0  0  0  0  0  0  0
   -1.6700   -0.9600    0.0000 C   0  0  0  0  0  0  0  0  0  0  0  0
   -1.6700    0.5400    0.0000 C   0  0  0  0  0  0  0  0  0  0  0  0
   -0.3700   -1.7100    0.0000 C   0  0  0  0  0  0  0  0  0  0  0  0
   -0.3700    1.2900    0.0000 C   0  0  0  0  0  0  0  0  0  0  0  0
    0.9300   -0.9600    0.0000 C   0  0  0  0  0  0  0  0  0  0  0  0
    4.8270    1.2906    0.0000 C   0  0  0  0  0  0  0  0  0  0  0  0
    6.1262    0.5408    0.0000 C   0  0  0  0  0  0  0  0  0  0  0  0
    0.9300    0.5400    0.0000 C   0  0  0  0  0  0  0  0  0  0  0  0
    3.5281    0.5404    0.0000 C   0  0  0  0  0  0  0  0  0  0  0  0
    3.5283   -0.9596    0.0000 O   0  0  0  0  0  0  0  0  0  0  0  0
    2.2289    1.2902    0.0000 O   0  0  0  0  0  0  0  0  0  0  0  0
  4  3  1  0
  5  3  1  0
  6  4  1  0
  7  5  1  0
  9  1  1  0
  9  2  1  0
  9  8  1  0
 10  6  1  0
 10  7  1  0
 11  8  1  0
 12 11  2  0
 13 10  1  0
 13 11  1  0
M  END
>  <NAME>  (2873) 
3-METHYLBUTANOIC ACID CYCLOHEXYL ESTER

>  <SYNONYMS>  (2873) 
ISOVALERIC ACID CYCLOHEXYL ESTER

>  <SPECTRUM TYPE>  (2873) 
MS1

>  <INSTRUMENT TYPE>  (2873) 
EI-B

>  <INSTRUMENT>  (2873) 
HITACHI RMU-7M

>  <ION MODE>  (2873) 
P

>  <INCHIKEY>  (2873) 
SQPOKBBCNZIWFI-UHFFFAOYSA-N

>  <FORMULA>  (2873) 
C11H20O2

>  <EXACT MASS>  (2873) 
184.14632988

>  <MW>  (2873) 
184

>  <ID>  (2873) 
JP007678

>  <CONTRIBUTOR>  (2873) 
University of Tokyo Team, {Faculty of Engineering, University of Tokyo

>  <COMMENT>  (2873) 
SMILES=CC(C)CC(=O)OC(C1)CCCC1
InChI=InChI=1S/C11H20O2/c1-9(2)8-11(12)13-10-6-4-3-5-7-10/h9-10H,3-8H2,1-2H3
computed SMILES=O=C(OC1CCCCC1)CC(C)C
accession=JP007678
date=2016.01.19 (Created 2008.10.21, modified 2011.05.06)
author=TAJIMA S, GUNMA COLLEGE OF TECHNOLOGY
license=CC BY-NC-SA
exact mass=184.14633
ionization energy=70 eV
ion type=[M]+*
computed spectral entropy=2.9200511810615892
computed normalized entropy=0.8213123245768279
SPLASH=splash10-0a59-9000000000-0130395ebfc7332d085c
submitter=submitter = University of Tokyo Team (Faculty of Engineering, University of Tokyo)
MoNA Rating=3.75

>  <NUM PEAKS>  (2873) 
35

>  <MASS SPECTRAL PEAKS>  (2873) 
15 1.1
27 11.99
29 18.18
39 10.39
41 37.86
42 6.49
43 18.78
44 2.5
53 4
54 18.08
55 56.84
56 6.19
57 99.99
58 6.99
59 2.5
60 17.48
61 9.09
67 69.93
68 4
69 3.5
71 3.6
79 2.2
81 10.09
82 59.14
83 33.97
84 3.2
85 64.74
86 4
87 9.69
100 3.3
101 2.7
102 1.4
103 8.09
104 44.26
105 2.6

>  <PREDICTED SPECTRUM>  (2873) 
25 0
26 97
27 319
28 114
29 387
31 35
39 341
40 115
41 677
42 235
43 511
44 147
45 188
50 27
51 69
52 40
53 225
54 432
55 688
56 354
57 902
58 129
59 195
60 207
61 64
65 91
66 145
67 689
68 18
69 60
72 29
73 103
79 98
80 4
81 345
82 814
83 817
84 155
85 999
86 194
87 182
99 216
100 110
102 231
103 484
127 61
141 35
142 27

$$$$

     RDKit          2D

  4  3  0  0  0  0  0  0  0  0999 V2000
    0.9743    0.5625    0.0000 C   0  0  0  0  0  0  0  0  0  0  0  0
   -1.6238    0.5625    0.0000 C   0  0  0  0  0  0  0  0  0  0  0  0
   -0.3248    1.3125    0.0000 C   0  0  0  0  0  0  0  0  0  0  0  0
   -0.3248    2.8125    0.0000 O   0  0  0  0  0  0  0  0  0  0  0  0
  3  1  1  0
  3  2  1  0
  4  3  1  0
M  END
>  <NAME>  (2874) 
ISOPROPANOL

>  <SYNONYMS>  (2874) 
2-METHYLETHANOL

>  <SPECTRUM TYPE>  (2874) 
MS1

>  <INSTRUMENT TYPE>  (2874) 
EI-B

>  <INSTRUMENT>  (2874) 
HITACHI RMU-7M

>  <ION MODE>  (2874) 
P

>  <INCHIKEY>  (2874) 
KFZMGEQAYNKOFK-UHFFFAOYSA-N

>  <FORMULA>  (2874) 
C3H8O

>  <EXACT MASS>  (2874) 
60.057514876

>  <MW>  (2874) 
60

>  <ID>  (2874) 
JP007677

>  <CONTRIBUTOR>  (2874) 
University of Tokyo Team, {Faculty of Engineering, University of Tokyo

>  <COMMENT>  (2874) 
SMILES=CC(C)O
cas=67-63-0
InChI=InChI=1S/C3H8O/c1-3(2)4/h3-4H,1-2H3
computed SMILES=OC(C)C
accession=JP007677
date=2016.01.19 (Created 2008.10.21, modified 2011.05.06)
author=TAJIMA S, GUNMA COLLEGE OF TECHNOLOGY
license=CC BY-NC-SA
exact mass=60.05751
ionization energy=70 eV
ion type=[M]+*
computed spectral entropy=1.8074236445131528
computed normalized entropy=0.6674261960791972
SPLASH=splash10-0002-9000000000-7936ed4d93d5699b0366
submitter=submitter = University of Tokyo Team (Faculty of Engineering, University of Tokyo)
MoNA Rating=3.75

>  <NUM PEAKS>  (2874) 
15

>  <MASS SPECTRAL PEAKS>  (2874) 
14 1.33
15 5.69
19 8.1
27 13.08
29 8.01
31 5.25
38 1.6
39 5.52
41 8.27
42 3.56
43 18.24
44 2.67
45 99.99
46 2.49
59 3.29

>  <PREDICTED SPECTRUM>  (2874) 
14 93
15 222
16 61
17 6
18 33
19 68
25 42
26 218
27 615
28 310
29 461
30 31
31 375
32 47
37 41
38 121
39 448
40 212
41 671
42 460
43 999
44 50
45 958
46 168
54 105
59 170
60 475
61 94

$$$$

     RDKit          2D

  9  9  0  0  0  0  0  0  0  0999 V2000
   -2.5989   -0.7504    0.0000 C   0  0  0  0  0  0  0  0  0  0  0  0
    3.8981    1.5002    0.0000 C   0  0  0  0  0  0  0  0  0  0  0  0
   -1.2998   -1.5002    0.0000 C   0  0  0  0  0  0  0  0  0  0  0  0
    2.5992   -0.7500    0.0000 C   0  0  0  0  0  0  0  0  0  0  0  0
    1.2992    1.5000    0.0000 C   0  0  0  0  0  0  0  0  0  0  0  0
    1.2992   -1.5000    0.0000 C   0  0  0  0  0  0  0  0  0  0  0  0
   -0.0008    0.7500    0.0000 C   0  0  0  0  0  0  0  0  0  0  0  0
    2.5992    0.7500    0.0000 C   0  0  0  0  0  0  0  0  0  0  0  0
   -0.0008   -0.7500    0.0000 C   0  0  0  0  0  0  0  0  0  0  0  0
  3  1  1  0
  6  4  2  0
  7  5  1  0
  8  2  1  0
  8  4  1  0
  8  5  2  0
  9  3  1  0
  9  6  1  0
  9  7  2  0
M  END
>  <NAME>  (2875) 
PARA-ETHYLTOLUENE

>  <SYNONYMS>  (2875) 


>  <SPECTRUM TYPE>  (2875) 
MS1

>  <INSTRUMENT TYPE>  (2875) 
EI-B

>  <INSTRUMENT>  (2875) 
HITACHI RMU-7M

>  <ION MODE>  (2875) 
P

>  <INCHIKEY>  (2875) 
JRLPEMVDPFPYPJ-UHFFFAOYSA-N

>  <FORMULA>  (2875) 
C9H12

>  <EXACT MASS>  (2875) 
120.093900384

>  <MW>  (2875) 
120

>  <ID>  (2875) 
JP007676

>  <CONTRIBUTOR>  (2875) 
University of Tokyo Team, {Faculty of Engineering, University of Tokyo

>  <COMMENT>  (2875) 
cas=622-96-8
SMILES=CCc(c1)ccc(C)c1
InChI=InChI=1S/C9H12/c1-3-9-6-4-8(2)5-7-9/h4-7H,3H2,1-2H3
computed SMILES=C=1C=C(C=CC1C)CC
accession=JP007676
date=2016.01.19 (Created 2008.10.21, modified 2011.05.06)
author=TAJIMA S, GUNMA COLLEGE OF TECHNOLOGY
license=CC BY-NC-SA
exact mass=120.0939
ionization energy=70 eV
ion type=[M]+*
computed spectral entropy=2.242315591379643
computed normalized entropy=0.696614505615934
SPLASH=splash10-0a4i-4900000000-c20a53d296cf4fb33628
submitter=submitter = University of Tokyo Team (Faculty of Engineering, University of Tokyo)
MoNA Rating=3.75

>  <NUM PEAKS>  (2875) 
25

>  <MASS SPECTRAL PEAKS>  (2875) 
27 3.26
39 6.05
41 2.19
50 1.33
51 3.32
53 1.33
63 3.06
65 5.25
77 13.29
78 4.39
79 16.28
80 1.06
89 1.79
91 11.3
92 1.99
102 1.06
103 8.84
104 2.66
105 99.99
106 8.64
115 2.33
117 2.26
119 1.66
120 23.46
121 2.26

>  <PREDICTED SPECTRUM>  (2875) 
14 22
15 103
16 7
17 3
18 15
25 14
26 110
27 354
28 137
29 156
37 89
38 165
39 409
40 123
41 269
42 118
49 0
50 241
51 381
52 234
53 270
54 77
55 37
61 57
62 146
63 273
64 196
65 300
66 115
67 87
68 14
74 142
75 199
76 132
77 516
78 328
79 463
80 117
81 4
86 42
87 69
88 25
89 196
90 102
91 413
92 178
93 112
101 46
102 164
103 366
104 350
105 999
106 402
107 39
115 161
116 78
117 79
119 22
120 479
121 170

$$$$

     RDKit          2D

  5  4  0  0  0  0  0  0  0  0999 V2000
   -3.8971    2.2500    0.0000 C   0  0  0  0  0  0  0  0  0  0  0  0
    1.2990    2.2500    0.0000 C   0  0  0  0  0  0  0  0  0  0  0  0
   -2.5981    1.5000    0.0000 C   0  0  0  0  0  0  0  0  0  0  0  0
    0.0000    1.5000    0.0000 C   0  0  0  0  0  0  0  0  0  0  0  0
   -1.2990    2.2500    0.0000 O   0  0  0  0  0  0  0  0  0  0  0  0
  3  1  2  0
  4  2  1  0
  5  3  1  0
  5  4  1  0
M  END
>  <NAME>  (2876) 
ETHYL VINYL ETHER

>  <SYNONYMS>  (2876) 
ETHOXYETHYLENE

>  <SPECTRUM TYPE>  (2876) 
MS1

>  <INSTRUMENT TYPE>  (2876) 
EI-B

>  <INSTRUMENT>  (2876) 
HITACHI RMU-7M

>  <ION MODE>  (2876) 
P

>  <INCHIKEY>  (2876) 
FJKIXWOMBXYWOQ-UHFFFAOYSA-N

>  <FORMULA>  (2876) 
C4H8O

>  <EXACT MASS>  (2876) 
72.057514876

>  <MW>  (2876) 
72

>  <ID>  (2876) 
JP007672

>  <CONTRIBUTOR>  (2876) 
University of Tokyo Team, {Faculty of Engineering, University of Tokyo

>  <COMMENT>  (2876) 
SMILES=CCOC=C
cas=109-92-2
InChI=InChI=1S/C4H8O/c1-3-5-4-2/h3H,1,4H2,2H3
computed SMILES=O(C=C)CC
accession=JP007672
date=2016.01.19 (Created 2008.10.21, modified 2011.05.06)
author=TAJIMA S, GUNMA COLLEGE OF TECHNOLOGY
license=CC BY-NC-SA
exact mass=72.05751
ionization energy=70 eV
ion type=[M]+*
computed spectral entropy=2.16855364380137
computed normalized entropy=0.7654042885089356
SPLASH=splash10-002f-9000000000-55335b759dbb362989c0
submitter=submitter = University of Tokyo Team (Faculty of Engineering, University of Tokyo)
MoNA Rating=3.75

>  <NUM PEAKS>  (2876) 
17

>  <MASS SPECTRAL PEAKS>  (2876) 
14 5.24
15 14.97
26 9.53
27 51.83
28 9.16
29 62.46
30 1.88
31 11.15
39 1.47
41 3.72
42 8.48
43 99.99
44 98.9
45 12.62
57 1.99
72 46.28
73 2.09

>  <PREDICTED SPECTRUM>  (2876) 
14 133
15 255
16 42
17 16
18 24
19 102
25 100
26 415
27 985
28 835
29 999
30 276
31 107
37 34
39 143
40 168
41 694
42 410
43 441
44 865
45 661
46 52
55 11
56 20
57 516
58 31
71 328
72 685
73 69

$$$$

     RDKit          2D

  5  4  0  0  0  0  0  0  0  0999 V2000
    0.0000    1.5000    0.0000 C   0  0  0  0  0  0  0  0  0  0  0  0
   -1.2990    0.7500    0.0000 Cl  0  0  0  0  0  0  0  0  0  0  0  0
    0.7500    0.2010    0.0000 Cl  0  0  0  0  0  0  0  0  0  0  0  0
    1.2990    2.2500    0.0000 Cl  0  0  0  0  0  0  0  0  0  0  0  0
   -0.7500    2.7990    0.0000 Cl  0  0  0  0  0  0  0  0  0  0  0  0
  2  1  1  0
  3  1  1  0
  4  1  1  0
  5  1  1  0
M  END
>  <NAME>  (2877) 
CARBON TETRACHLORIDE

>  <SYNONYMS>  (2877) 


>  <SPECTRUM TYPE>  (2877) 
MS1

>  <INSTRUMENT TYPE>  (2877) 
EI-B

>  <INSTRUMENT>  (2877) 
HITACHI RMU-7M

>  <ION MODE>  (2877) 
P

>  <INCHIKEY>  (2877) 
VZGDMQKNWNREIO-UHFFFAOYSA-N

>  <FORMULA>  (2877) 
CCl4

>  <EXACT MASS>  (2877) 
151.87541072

>  <MW>  (2877) 
152

>  <ID>  (2877) 
JP007671

>  <CONTRIBUTOR>  (2877) 
University of Tokyo Team, {Faculty of Engineering, University of Tokyo

>  <COMMENT>  (2877) 
SMILES=ClC(Cl)(Cl)Cl
cas=56-23-5
InChI=InChI=1S/CCl4/c2-1(3,4)5
computed SMILES=ClC(Cl)(Cl)Cl
accession=JP007671
date=2016.01.19 (Created 2008.10.21, modified 2011.05.06)
author=TAJIMA S, GUNMA COLLEGE OF TECHNOLOGY
license=CC BY-NC-SA
exact mass=151.87541
ionization energy=70 eV
ion type=[M]+*
computed spectral entropy=1.8849347030698198
computed normalized entropy=0.7348818399031825
SPLASH=splash10-014i-3900000000-388a28717a2eebbdd5b4
submitter=submitter = University of Tokyo Team (Faculty of Engineering, University of Tokyo)
MoNA Rating=3.75

>  <NUM PEAKS>  (2877) 
13

>  <MASS SPECTRAL PEAKS>  (2877) 
12 1.76
35 10.9
37 3.29
47 20.75
49 7.05
82 25.8
83 3.04
84 16.91
86 2.4
117 99.99
119 94.47
121 30.29
123 3.21

>  <PREDICTED SPECTRUM>  (2877) 
14 9
25 41
26 63
31 88
32 56
35 398
36 262
37 229
38 124
44 181
45 169
46 120
47 605
48 160
49 437
51 285
52 15
56 84
57 221
58 131
81 207
82 568
83 276
84 487
85 316
86 141
87 200
93 73
95 165
96 71
110 66
115 9
117 999
118 119
119 923
120 96
121 750
123 245
127 111
152 76
154 121
156 22

$$$$

     RDKit          2D

 11 10  0  0  0  0  0  0  0  0999 V2000
    2.9228    3.1875    0.0000 C   0  0  0  0  0  0  0  0  0  0  0  0
   -2.6082    5.0866    0.0000 C   0  0  0  0  0  0  0  0  0  0  0  0
   -4.5365    5.0866    0.0000 C   0  0  0  0  0  0  0  0  0  0  0  0
   -6.1704    3.9375    0.0000 C   0  0  0  0  0  0  0  0  0  0  0  0
   -2.2733    3.1875    0.0000 C   0  0  0  0  0  0  0  0  0  0  0  0
   -0.9743    3.9375    0.0000 C   0  0  0  0  0  0  0  0  0  0  0  0
    1.6238    3.9375    0.0000 C   0  0  0  0  0  0  0  0  0  0  0  0
   -3.5724    3.9375    0.0000 C   0  0  0  0  0  0  0  0  0  0  0  0
    1.6238    5.4375    0.0000 O   0  0  0  0  0  0  0  0  0  0  0  0
   -4.8714    3.1875    0.0000 O   0  0  0  0  0  0  0  0  0  0  0  0
    0.3248    3.1875    0.0000 O   0  0  0  0  0  0  0  0  0  0  0  0
  6  5  1  0
  7  1  1  0
  8  2  1  0
  8  3  1  0
  8  5  1  0
  9  7  2  0
 10  4  1  0
 10  8  1  0
 11  6  1  0
 11  7  1  0
M  END
>  <NAME>  (2878) 
ACETIC ACID (3-METHOXY-3-METHYL)BUTYL ESTER

>  <SYNONYMS>  (2878) 


>  <SPECTRUM TYPE>  (2878) 
MS1

>  <INSTRUMENT TYPE>  (2878) 
EI-B

>  <INSTRUMENT>  (2878) 
HITACHI RMU-7M

>  <ION MODE>  (2878) 
P

>  <INCHIKEY>  (2878) 
RYNQKSJRFHJZTK-UHFFFAOYSA-N

>  <FORMULA>  (2878) 
C8H16O3

>  <EXACT MASS>  (2878) 
160.10994437199997

>  <MW>  (2878) 
160

>  <ID>  (2878) 
JP007670

>  <CONTRIBUTOR>  (2878) 
University of Tokyo Team, {Faculty of Engineering, University of Tokyo

>  <COMMENT>  (2878) 
SMILES=COC(C)(C)CCOC(C)=O
InChI=InChI=1S/C8H16O3/c1-7(9)11-6-5-8(2,3)10-4/h5-6H2,1-4H3
computed SMILES=O=C(OCCC(OC)(C)C)C
accession=JP007670
date=2016.01.19 (Created 2008.10.21, modified 2011.05.06)
author=TAJIMA S, GUNMA COLLEGE OF TECHNOLOGY
license=CC BY-NC-SA
exact mass=160.10994
ionization energy=70 eV
ion type=[M]+*
computed spectral entropy=2.3587653391916676
computed normalized entropy=0.7156802460466711
SPLASH=splash10-00dl-9000000000-58bca6bbe50c3a21365d
submitter=submitter = University of Tokyo Team (Faculty of Engineering, University of Tokyo)
MoNA Rating=3.75

>  <NUM PEAKS>  (2878) 
27

>  <MASS SPECTRAL PEAKS>  (2878) 
15 7.04
27 4.69
28 1.73
29 6.54
31 1.73
33 1.36
39 5.56
40 1.3
41 19.38
42 5.74
43 52.16
44 1.54
45 5.99
53 1.98
55 19.63
56 2.59
57 2.47
67 1.85
68 1.98
69 15.8
70 2.04
71 1.6
72 1.23
73 99.99
74 4.38
85 31.36
86 2.22

>  <PREDICTED SPECTRUM>  (2878) 
14 3
15 33
26 27
27 151
28 32
29 186
31 127
32 34
33 48
37 16
38 52
39 234
40 120
41 382
42 111
43 543
44 86
45 253
46 22
47 74
50 25
51 40
53 136
54 17
55 336
56 63
57 25
58 10
59 51
60 38
67 115
68 57
69 324
70 67
71 190
72 104
73 999
74 201
85 247
86 65
87 8
145 6

$$$$

     RDKit          2D

  9  9  0  0  0  0  0  0  0  0999 V2000
   -0.0000   -1.5002    0.0000 C   0  0  0  0  0  0  0  0  0  0  0  0
   -2.5989    3.0000    0.0000 C   0  0  0  0  0  0  0  0  0  0  0  0
    2.5989    3.0000    0.0000 C   0  0  0  0  0  0  0  0  0  0  0  0
   -1.3000    0.7498    0.0000 C   0  0  0  0  0  0  0  0  0  0  0  0
    1.3000    0.7498    0.0000 C   0  0  0  0  0  0  0  0  0  0  0  0
   -0.0000    2.9998    0.0000 C   0  0  0  0  0  0  0  0  0  0  0  0
   -0.0000   -0.0002    0.0000 C   0  0  0  0  0  0  0  0  0  0  0  0
   -1.3000    2.2498    0.0000 C   0  0  0  0  0  0  0  0  0  0  0  0
    1.3000    2.2498    0.0000 C   0  0  0  0  0  0  0  0  0  0  0  0
  7  1  1  0
  7  4  2  0
  7  5  1  0
  8  2  1  0
  8  4  1  0
  8  6  2  0
  9  3  1  0
  9  5  2  0
  9  6  1  0
M  END
>  <NAME>  (2879) 
1,3,5-TRIMETHYLBENZENE

>  <SYNONYMS>  (2879) 
MESITYLENE

>  <SPECTRUM TYPE>  (2879) 
MS1

>  <INSTRUMENT TYPE>  (2879) 
EI-B

>  <INSTRUMENT>  (2879) 
HITACHI RMU-7M

>  <ION MODE>  (2879) 
P

>  <INCHIKEY>  (2879) 
AUHZEENZYGFFBQ-UHFFFAOYSA-N

>  <FORMULA>  (2879) 
C9H12

>  <EXACT MASS>  (2879) 
120.093900384

>  <MW>  (2879) 
120

>  <ID>  (2879) 
JP007669

>  <CONTRIBUTOR>  (2879) 
University of Tokyo Team, {Faculty of Engineering, University of Tokyo

>  <COMMENT>  (2879) 
SMILES=Cc(c1)cc(C)cc(C)1
cas=108-67-8
InChI=InChI=1S/C9H12/c1-7-4-8(2)6-9(3)5-7/h4-6H,1-3H3
computed SMILES=C=1C(=CC(=CC1C)C)C
accession=JP007669
license=CC BY-NC-SA
date=2016.01.19 (Created 2008.10.21, modified 2011.05.06)
author=TAJIMA S, GUNMA COLLEGE OF TECHNOLOGY
exact mass=120.0939
ionization energy=70 eV
ion type=[M]+*
computed spectral entropy=2.541354408874861
computed normalized entropy=0.733279880565013
SPLASH=splash10-0a4i-4900000000-915fdce919b5b36327c3
submitter=submitter = University of Tokyo Team (Faculty of Engineering, University of Tokyo)
MoNA Rating=3.75

>  <NUM PEAKS>  (2879) 
32

>  <MASS SPECTRAL PEAKS>  (2879) 
27 5.41
38 1.09
39 9.79
40 1.34
41 4.93
50 2.98
51 7.48
52 2.62
53 3.53
57.5 1.46
58 1.95
59 2.31
62 1.34
63 4.2
65 5.41
74 1.09
77 13.38
78 4.62
79 10.89
89 1.22
91 9.91
92 1.52
102 1.16
103 7.18
104 2.62
105 99.99
106 8.76
115 3.35
117 2.74
119 12.1
120 49.82
121 4.87

>  <PREDICTED SPECTRUM>  (2879) 
14 27
15 107
26 75
27 306
28 151
29 84
37 39
38 126
39 405
40 117
41 356
42 47
44 6
50 174
51 333
52 172
53 301
54 40
55 28
61 65
62 105
63 206
64 170
65 268
66 88
67 179
68 25
74 89
75 115
76 62
77 442
78 286
79 444
80 145
89 49
91 426
92 139
93 206
94 46
102 65
103 258
104 195
105 999
106 270
115 150
116 118
117 90
118 38
119 339
120 949
121 346
122 212

$$$$

     RDKit          2D

  7  7  0  0  0  0  0  0  0  0999 V2000
   -1.3000    0.7500    0.0000 C   0  0  0  0  0  0  0  0  0  0  0  0
    0.0000    1.5000    0.0000 C   0  0  0  0  0  0  0  0  0  0  0  0
   -1.3000   -0.7500    0.0000 C   0  0  0  0  0  0  0  0  0  0  0  0
    1.3000    0.7500    0.0000 C   0  0  0  0  0  0  0  0  0  0  0  0
    0.0000   -1.5000    0.0000 C   0  0  0  0  0  0  0  0  0  0  0  0
    1.3000   -0.7500    0.0000 C   0  0  0  0  0  0  0  0  0  0  0  0
    2.5989   -1.5002    0.0000 I   0  0  0  0  0  0  0  0  0  0  0  0
  2  1  2  0
  3  1  1  0
  4  2  1  0
  5  3  2  0
  6  4  2  0
  6  5  1  0
  7  6  1  0
M  END
>  <NAME>  (2880) 
IODOBENZENE

>  <SYNONYMS>  (2880) 


>  <SPECTRUM TYPE>  (2880) 
MS1

>  <INSTRUMENT TYPE>  (2880) 
EI-B

>  <INSTRUMENT>  (2880) 
HITACHI RMU-7M

>  <ION MODE>  (2880) 
P

>  <INCHIKEY>  (2880) 
SNHMUERNLJLMHN-UHFFFAOYSA-N

>  <FORMULA>  (2880) 
C6H5I

>  <EXACT MASS>  (2880) 
203.94359816

>  <MW>  (2880) 
204

>  <ID>  (2880) 
JP007667

>  <CONTRIBUTOR>  (2880) 
University of Tokyo Team, {Faculty of Engineering, University of Tokyo

>  <COMMENT>  (2880) 
SMILES=c(c1)ccc(I)c1
cas=591-50-4
InChI=InChI=1S/C6H5I/c7-6-4-2-1-3-5-6/h1-5H
computed SMILES=IC=1C=CC=CC1
accession=JP007667
license=CC BY-NC-SA
date=2016.01.19 (Created 2008.10.21, modified 2011.05.06)
author=TAJIMA S, GUNMA COLLEGE OF TECHNOLOGY
exact mass=203.94359
ionization energy=70 eV
ion type=[M]+*
computed spectral entropy=1.8541510112027113
computed normalized entropy=0.6414922253988204
SPLASH=splash10-0ufr-9050000000-600daa784c7ec5f6720e
submitter=submitter = University of Tokyo Team (Faculty of Engineering, University of Tokyo)
MoNA Rating=3.75

>  <NUM PEAKS>  (2880) 
18

>  <MASS SPECTRAL PEAKS>  (2880) 
27 1.85
37 1.85
38 1.93
39 2.02
49 1.93
50 17.98
51 31.85
52 1.26
73 1.68
74 6.55
75 3.36
76 4.2
77 79.83
78 5.55
102 2.18
127 3.28
204 99.99
205 6.72

>  <PREDICTED SPECTRUM>  (2880) 
14 14
25 52
26 121
27 120
29 173
31 54
32 6
36 57
37 188
38 214
39 452
40 18
41 114
49 188
50 845
51 825
52 258
53 96
57 148
61 127
62 246
63 358
64 11
71 20
73 298
74 650
75 662
76 953
77 972
78 385
86 0
90 20
127 249
200 316
201 315
202 597
203 793
204 999
205 295
206 145

$$$$

     RDKit          2D

  6  6  0  0  0  0  0  0  0  0999 V2000
    2.0279    0.1311    0.0000 C   0  0  0  0  0  0  0  0  0  0  0  0
    1.2779   -1.1679    0.0000 C   0  0  0  0  0  0  0  0  0  0  0  0
    0.9958    1.2235    0.0000 C   0  0  0  0  0  0  0  0  0  0  0  0
   -0.1745   -0.8836    0.0000 C   0  0  0  0  0  0  0  0  0  0  0  0
   -0.3540    0.6056    0.0000 C   0  0  0  0  0  0  0  0  0  0  0  0
   -1.6625    1.3389    0.0000 O   0  0  0  0  0  0  0  0  0  0  0  0
  2  1  1  0
  3  1  1  0
  4  2  1  0
  5  3  1  0
  5  4  1  0
  6  5  2  0
M  END
>  <NAME>  (2881) 
CYCLOPENTANONE

>  <SYNONYMS>  (2881) 


>  <SPECTRUM TYPE>  (2881) 
MS1

>  <INSTRUMENT TYPE>  (2881) 
EI-B

>  <INSTRUMENT>  (2881) 
HITACHI RMU-7M

>  <ION MODE>  (2881) 
P

>  <INCHIKEY>  (2881) 
BGTOWKSIORTVQH-UHFFFAOYSA-N

>  <FORMULA>  (2881) 
C5H8O

>  <EXACT MASS>  (2881) 
84.057514876

>  <MW>  (2881) 
84

>  <ID>  (2881) 
JP007666

>  <CONTRIBUTOR>  (2881) 
University of Tokyo Team, {Faculty of Engineering, University of Tokyo

>  <COMMENT>  (2881) 
SMILES=O=C(C1)CCC1
cas=120-92-3
InChI=InChI=1S/C5H8O/c6-5-3-1-2-4-5/h1-4H2
computed SMILES=O=C1CCCC1
accession=JP007666
date=2016.01.19 (Created 2008.10.21, modified 2011.05.06)
author=TAJIMA S, GUNMA COLLEGE OF TECHNOLOGY
license=CC BY-NC-SA
exact mass=84.05751
ionization energy=70 eV
ion type=[M]+*
computed spectral entropy=2.3465685001445675
computed normalized entropy=0.7707509299551234
SPLASH=splash10-0a6u-9000000000-3c7c14d819f4199b4735
submitter=submitter = University of Tokyo Team (Faculty of Engineering, University of Tokyo)
MoNA Rating=3.75

>  <NUM PEAKS>  (2881) 
21

>  <MASS SPECTRAL PEAKS>  (2881) 
15 1.76
26 10.2
27 26.38
28 67.06
29 8.68
37 1.64
38 3.52
39 23.45
40 4.81
41 52.29
42 15.94
43 3.63
50 3.52
51 2.81
53 3.52
55 99.99
56 30.72
57 1.76
83 1.17
84 38.69
85 2.46

>  <PREDICTED SPECTRUM>  (2881) 
14 59
15 79
16 14
17 5
18 25
25 39
26 272
27 617
28 426
29 455
31 36
36 22
37 147
38 267
39 694
40 383
41 999
42 913
43 608
44 91
45 123
49 15
50 254
51 364
52 215
53 318
54 181
55 961
56 992
57 410
65 113
66 203
67 244
68 177
69 145
83 164
84 860
85 247

$$$$

     RDKit          2D

  9  8  0  0  0  0  0  0  0  0999 V2000
    2.5981    4.5000    0.0000 C   0  0  0  0  0  0  0  0  0  0  0  0
   -7.7942    4.5000    0.0000 C   0  0  0  0  0  0  0  0  0  0  0  0
    1.2990    5.2500    0.0000 C   0  0  0  0  0  0  0  0  0  0  0  0
   -6.4952    5.2500    0.0000 C   0  0  0  0  0  0  0  0  0  0  0  0
    0.0000    4.5000    0.0000 C   0  0  0  0  0  0  0  0  0  0  0  0
   -5.1962    4.5000    0.0000 C   0  0  0  0  0  0  0  0  0  0  0  0
   -1.2990    5.2500    0.0000 C   0  0  0  0  0  0  0  0  0  0  0  0
   -3.8971    5.2500    0.0000 C   0  0  0  0  0  0  0  0  0  0  0  0
   -2.5981    4.5000    0.0000 O   0  0  0  0  0  0  0  0  0  0  0  0
  3  1  1  0
  4  2  1  0
  5  3  1  0
  6  4  1  0
  7  5  1  0
  8  6  1  0
  9  7  1  0
  9  8  1  0
M  END
>  <NAME>  (2882) 
DIBUTYL ETHER

>  <SYNONYMS>  (2882) 
1-BUTOXYBUTANE

>  <SPECTRUM TYPE>  (2882) 
MS1

>  <INSTRUMENT TYPE>  (2882) 
EI-B

>  <INSTRUMENT>  (2882) 
HITACHI RMU-7M

>  <ION MODE>  (2882) 
P

>  <INCHIKEY>  (2882) 
DURPTKYDGMDSBL-UHFFFAOYSA-N

>  <FORMULA>  (2882) 
C8H18O

>  <EXACT MASS>  (2882) 
130.135765196

>  <MW>  (2882) 
130

>  <ID>  (2882) 
JP007665

>  <CONTRIBUTOR>  (2882) 
University of Tokyo Team, {Faculty of Engineering, University of Tokyo

>  <COMMENT>  (2882) 
SMILES=CCCCOCCCC
cas=142-96-1
InChI=InChI=1S/C8H18O/c1-3-5-7-9-8-6-4-2/h3-8H2,1-2H3
computed SMILES=O(CCCC)CCCC
accession=JP007665
date=2016.01.19 (Created 2008.10.21, modified 2011.05.06)
author=TAJIMA S, GUNMA COLLEGE OF TECHNOLOGY
license=CC BY-NC-SA
exact mass=130.13577
ionization energy=70 eV
ion type=[M]+*
computed spectral entropy=1.9950473628418985
computed normalized entropy=0.7041641841152902
SPLASH=splash10-0a4i-9000000000-16133cf2a4f6d65be5ca
submitter=submitter = University of Tokyo Team (Faculty of Engineering, University of Tokyo)
MoNA Rating=3.75

>  <NUM PEAKS>  (2882) 
17

>  <MASS SPECTRAL PEAKS>  (2882) 
18 1.32
27 9.31
28 4.4
29 26.73
31 2.45
39 5.91
41 37.86
42 2.2
43 3.14
45 2.2
55 4.53
56 15.03
57 99.99
58 4.4
73 1.26
87 12.33
101 4.4

>  <PREDICTED SPECTRUM>  (2882) 
14 8
15 37
19 12
25 6
26 81
27 312
28 172
29 564
30 114
31 207
38 21
39 224
40 79
41 640
42 181
43 239
44 63
45 261
53 55
54 52
55 186
56 603
57 999
58 221
59 91
60 15
71 96
72 40
73 102
74 56
75 155
87 144
101 76
102 33

$$$$

     RDKit          2D

 11 11  0  0  0  0  0  0  0  0999 V2000
    6.1262    0.5408    0.0000 C   0  0  0  0  0  0  0  0  0  0  0  0
   -1.6700   -0.9600    0.0000 C   0  0  0  0  0  0  0  0  0  0  0  0
   -1.6700    0.5400    0.0000 C   0  0  0  0  0  0  0  0  0  0  0  0
   -0.3700   -1.7100    0.0000 C   0  0  0  0  0  0  0  0  0  0  0  0
   -0.3700    1.2900    0.0000 C   0  0  0  0  0  0  0  0  0  0  0  0
    0.9300   -0.9600    0.0000 C   0  0  0  0  0  0  0  0  0  0  0  0
    3.5281    0.5404    0.0000 C   0  0  0  0  0  0  0  0  0  0  0  0
    4.8270    1.2906    0.0000 C   0  0  0  0  0  0  0  0  0  0  0  0
    0.9300    0.5400    0.0000 C   0  0  0  0  0  0  0  0  0  0  0  0
    4.8268    2.7906    0.0000 O   0  0  0  0  0  0  0  0  0  0  0  0
    2.2289    1.2902    0.0000 O   0  0  0  0  0  0  0  0  0  0  0  0
  3  2  2  0
  4  2  1  0
  5  3  1  0
  6  4  2  0
  8  1  1  0
  8  7  1  0
  9  5  2  0
  9  6  1  0
 10  8  1  0
 11  7  1  0
 11  9  1  0
M  END
>  <NAME>  (2883) 
1-PHENOXY-2-HYDROXYPROPANE

>  <SYNONYMS>  (2883) 


>  <SPECTRUM TYPE>  (2883) 
MS1

>  <INSTRUMENT TYPE>  (2883) 
EI-B

>  <INSTRUMENT>  (2883) 
HITACHI RMU-7M

>  <ION MODE>  (2883) 
P

>  <INCHIKEY>  (2883) 
IBLKWZIFZMJLFL-UHFFFAOYSA-N

>  <FORMULA>  (2883) 
C9H12O2

>  <EXACT MASS>  (2883) 
152.083729624

>  <MW>  (2883) 
152

>  <ID>  (2883) 
JP007663

>  <CONTRIBUTOR>  (2883) 
University of Tokyo Team, {Faculty of Engineering, University of Tokyo

>  <COMMENT>  (2883) 
SMILES=CC(O)COc(c1)cccc1
InChI=InChI=1S/C9H12O2/c1-8(10)7-11-9-5-3-2-4-6-9/h2-6,8,10H,7H2,1H3
computed SMILES=OC(C)COC=1C=CC=CC1
accession=JP007663
date=2016.01.19 (Created 2008.10.21, modified 2011.05.06)
author=TAJIMA S, GUNMA COLLEGE OF TECHNOLOGY
license=CC BY-NC-SA
exact mass=152.08373
ionization energy=70 eV
ion type=[M]+*
computed spectral entropy=2.6197510265215396
computed normalized entropy=0.7559003628652793
SPLASH=splash10-0006-9100000000-fea63ff06389eac2d04c
submitter=submitter = University of Tokyo Team (Faculty of Engineering, University of Tokyo)
MoNA Rating=3.75

>  <NUM PEAKS>  (2883) 
32

>  <MASS SPECTRAL PEAKS>  (2883) 
15 2.47
27 2.47
29 1.54
31 5.68
38 1.3
39 8.02
40 1.6
41 3.09
43 4.94
45 9.88
50 2.65
51 9.57
52 1.11
58 1.23
59 4.94
63 1.85
65 7.78
66 11.3
77 20.68
78 15.99
79 7.41
91 1.85
93 2.04
94 99.99
95 12.04
107 5.62
108 13.77
109 1.17
119 1.85
150 1.11
152 10.62
153 1.17

>  <PREDICTED SPECTRUM>  (2883) 
14 21
15 109
16 4
17 0
18 35
19 22
25 4
26 68
27 212
28 87
29 172
30 32
31 203
32 19
33 20
34 12
37 96
38 187
39 410
40 176
41 341
42 170
43 366
44 120
45 454
46 2
49 38
50 164
51 304
52 119
53 89
54 1
55 16
57 33
58 138
59 409
60 71
61 77
62 111
63 204
64 134
65 359
66 271
76 62
77 441
78 128
79 178
80 15
89 5
90 40
91 62
92 101
93 232
94 999
95 336
96 57
106 42
107 196
108 224
109 174
110 54
115 17
133 92
134 10
135 11
152 316
153 89
154 14

$$$$

     RDKit          2D

 11 11  0  0  0  0  0  0  0  0999 V2000
    6.1262    0.5408    0.0000 C   0  0  0  0  0  0  0  0  0  0  0  0
   -1.6700   -0.9600    0.0000 C   0  0  0  0  0  0  0  0  0  0  0  0
   -1.6700    0.5400    0.0000 C   0  0  0  0  0  0  0  0  0  0  0  0
   -0.3700   -1.7100    0.0000 C   0  0  0  0  0  0  0  0  0  0  0  0
   -0.3700    1.2900    0.0000 C   0  0  0  0  0  0  0  0  0  0  0  0
    0.9300   -0.9600    0.0000 C   0  0  0  0  0  0  0  0  0  0  0  0
    3.5281    0.5404    0.0000 C   0  0  0  0  0  0  0  0  0  0  0  0
    4.8270    1.2906    0.0000 C   0  0  0  0  0  0  0  0  0  0  0  0
    0.9300    0.5400    0.0000 C   0  0  0  0  0  0  0  0  0  0  0  0
    4.8268    2.7906    0.0000 O   0  0  0  0  0  0  0  0  0  0  0  0
    2.2289    1.2902    0.0000 O   0  0  0  0  0  0  0  0  0  0  0  0
  3  2  2  0
  4  2  1  0
  5  3  1  0
  6  4  2  0
  8  1  1  0
  8  7  1  0
  9  5  2  0
  9  6  1  0
 10  8  2  0
 11  7  1  0
 11  9  1  0
M  END
>  <NAME>  (2884) 
PHENOXYACETONE

>  <SYNONYMS>  (2884) 


>  <SPECTRUM TYPE>  (2884) 
MS1

>  <INSTRUMENT TYPE>  (2884) 
EI-B

>  <INSTRUMENT>  (2884) 
HITACHI RMU-7M

>  <ION MODE>  (2884) 
P

>  <INCHIKEY>  (2884) 
QWAVNXZAQASOML-UHFFFAOYSA-N

>  <FORMULA>  (2884) 
C9H10O2

>  <EXACT MASS>  (2884) 
150.06807956

>  <MW>  (2884) 
150

>  <ID>  (2884) 
JP007662

>  <CONTRIBUTOR>  (2884) 
University of Tokyo Team, {Faculty of Engineering, University of Tokyo

>  <COMMENT>  (2884) 
SMILES=CC(=O)COc(c1)cccc1
InChI=InChI=1S/C9H10O2/c1-8(10)7-11-9-5-3-2-4-6-9/h2-6H,7H2,1H3
computed SMILES=O=C(C)COC=1C=CC=CC1
accession=JP007662
date=2016.01.19 (Created 2008.10.21, modified 2011.05.06)
author=TAJIMA S, GUNMA COLLEGE OF TECHNOLOGY
license=CC BY-NC-SA
exact mass=150.06808
ionization energy=70 eV
ion type=[M]+*
computed spectral entropy=2.9883084435636884
computed normalized entropy=0.7719331636728565
SPLASH=splash10-056u-9200000000-2292704aeb63b49840d4
submitter=submitter = University of Tokyo Team (Faculty of Engineering, University of Tokyo)
MoNA Rating=3.75

>  <NUM PEAKS>  (2884) 
48

>  <MASS SPECTRAL PEAKS>  (2884) 
15 8.89
26 1.64
27 6.23
29 2.77
31 1.81
38 3.17
39 16.53
40 2.26
41 8.77
42 3.11
43 80.25
44 2.32
45 3.4
50 6.17
51 22.92
52 2.26
53 1.7
55 2.09
57 1.81
59 1.7
62 1.7
63 4.24
64 1.7
65 10.64
66 6.28
67 2.38
69 2.15
71 3.11
74 2.55
75 2.04
76 2.26
77 99.99
78 14.83
79 38.48
80 2.6
91 1.98
93 1.75
94 34.52
95 5.21
96 1.75
99 10.17
105 2.55
107 56.88
108 23.54
109 2.15
150 46.41
151 4.92
152 3.74

>  <PREDICTED SPECTRUM>  (2884) 
14 28
15 93
16 11
18 17
25 12
26 63
27 134
28 47
29 263
33 1
34 12
36 16
37 121
38 225
39 447
40 202
41 135
42 111
43 999
44 208
45 121
46 7
49 58
50 311
51 582
52 227
53 210
54 26
55 13
56 96
57 439
58 59
61 30
62 146
63 280
64 176
65 271
66 160
67 66
71 21
72 14
74 152
75 9
76 74
77 876
78 271
79 262
80 7
92 87
93 65
94 739
95 41
107 488
108 267
135 38
150 509
151 161

$$$$

     RDKit          2D

  4  3  0  0  0  0  0  0  0  0999 V2000
   -1.2990    1.5000    0.0000 C   0  0  0  0  0  0  0  0  0  0  0  0
    0.0000    2.2500    0.0000 C   0  0  0  0  0  0  0  0  0  0  0  0
   -2.5981    2.2500    0.0000 Br  0  0  0  0  0  0  0  0  0  0  0  0
    1.2990    1.5000    0.0000 Br  0  0  0  0  0  0  0  0  0  0  0  0
  2  1  1  0
  3  1  1  0
  4  2  1  0
M  END
>  <NAME>  (2885) 
1,2-DIBROMOETHANE

>  <SYNONYMS>  (2885) 


>  <SPECTRUM TYPE>  (2885) 
MS1

>  <INSTRUMENT TYPE>  (2885) 
EI-B

>  <INSTRUMENT>  (2885) 
HITACHI RMU-7M

>  <ION MODE>  (2885) 
P

>  <INCHIKEY>  (2885) 
PAAZPARNPHGIKF-UHFFFAOYSA-N

>  <FORMULA>  (2885) 
C2H4Br2

>  <EXACT MASS>  (2885) 
185.867974328

>  <MW>  (2885) 
186

>  <ID>  (2885) 
JP007661

>  <CONTRIBUTOR>  (2885) 
University of Tokyo Team, {Faculty of Engineering, University of Tokyo

>  <COMMENT>  (2885) 
SMILES=BrCCBr
cas=106-93-4
InChI=InChI=1S/C2H4Br2/c3-1-2-4/h1-2H2
computed SMILES=BrCCBr
accession=JP007661
date=2016.01.19 (Created 2008.10.21, modified 2011.05.06)
author=TAJIMA S, GUNMA COLLEGE OF TECHNOLOGY
license=CC BY-NC-SA
exact mass=185.86798
ionization energy=70 eV
ion type=[M]+*
computed spectral entropy=1.8423982086630815
computed normalized entropy=0.6374260347755822
SPLASH=splash10-0a6r-5900000000-0f8e5929b65c18ffe174
submitter=submitter = University of Tokyo Team (Faculty of Engineering, University of Tokyo)
MoNA Rating=3.75

>  <NUM PEAKS>  (2885) 
18

>  <MASS SPECTRAL PEAKS>  (2885) 
14 1.45
25 3.43
26 21.06
27 85.81
28 14.79
79 2.83
81 2.84
93 3.96
95 3.43
105 2.71
106 3.7
107 99.99
108 4.95
109 94.39
110 2.11
186 1.19
188 2.18
190 1.12

>  <PREDICTED SPECTRUM>  (2885) 
14 68
15 37
16 18
17 17
18 58
19 9
25 67
26 194
27 687
28 380
29 186
30 52
31 62
32 42
37 149
38 162
39 413
40 25
41 146
44 6
45 101
47 72
50 36
65 82
66 12
67 87
68 70
69 18
78 20
79 308
80 233
81 508
82 326
83 56
93 474
94 5
95 186
103 23
105 86
106 284
107 999
108 212
109 971
110 217
111 98
140 10
142 41
186 414
187 73
188 605
189 108
190 406
191 25

$$$$

     RDKit          2D

 10 10  0  0  0  0  0  0  0  0999 V2000
    2.9231    0.5071    0.0000 C   0  0  0  0  0  0  0  0  0  0  0  0
    2.9236    2.0079    0.0000 C   0  0  0  0  0  0  0  0  0  0  0  0
    1.6236   -0.2437    0.0000 C   0  0  0  0  0  0  0  0  0  0  0  0
   -2.2731    2.0071    0.0000 C   0  0  0  0  0  0  0  0  0  0  0  0
    1.6245    2.7579    0.0000 C   0  0  0  0  0  0  0  0  0  0  0  0
    0.3245    0.5063    0.0000 C   0  0  0  0  0  0  0  0  0  0  0  0
   -0.9740    2.7571    0.0000 C   0  0  0  0  0  0  0  0  0  0  0  0
   -3.5721    2.7571    0.0000 C   0  0  0  0  0  0  0  0  0  0  0  0
    0.3250    2.0071    0.0000 C   0  0  0  0  0  0  0  0  0  0  0  0
   -4.8712    2.0071    0.0000 O   0  0  0  0  0  0  0  0  0  0  0  0
  2  1  2  0
  3  1  1  0
  5  2  1  0
  6  3  2  0
  7  4  1  0
  8  4  1  0
  9  5  2  0
  9  6  1  0
  9  7  1  0
 10  8  1  0
M  END
>  <NAME>  (2886) 
3-PHENYLPROPANOL

>  <SYNONYMS>  (2886) 
BENZENEPROPANOL

>  <SPECTRUM TYPE>  (2886) 
MS1

>  <INSTRUMENT TYPE>  (2886) 
EI-B

>  <INSTRUMENT>  (2886) 
HITACHI RMU-7M

>  <ION MODE>  (2886) 
P

>  <INCHIKEY>  (2886) 
VAJVDSVGBWFCLW-UHFFFAOYSA-N

>  <FORMULA>  (2886) 
C9H12O

>  <EXACT MASS>  (2886) 
136.088815004

>  <MW>  (2886) 
136

>  <ID>  (2886) 
JP007659

>  <CONTRIBUTOR>  (2886) 
University of Tokyo Team, {Faculty of Engineering, University of Tokyo

>  <COMMENT>  (2886) 
SMILES=OCCCc(c1)cccc1
cas=122-97-4
InChI=InChI=1S/C9H12O/c10-8-4-7-9-5-2-1-3-6-9/h1-3,5-6,10H,4,7-8H2
computed SMILES=OCCCC=1C=CC=CC1
accession=JP007659
date=2016.01.19 (Created 2008.10.21, modified 2011.05.06)
author=TAJIMA S, GUNMA COLLEGE OF TECHNOLOGY
license=CC BY-NC-SA
exact mass=136.08882
ionization energy=70 eV
ion type=[M]+*
computed spectral entropy=2.7913694929748774
computed normalized entropy=0.7516669780027024
SPLASH=splash10-014l-9600000000-224fcad0fa4e8d6a5168
submitter=submitter = University of Tokyo Team (Faculty of Engineering, University of Tokyo)
MoNA Rating=3.75

>  <NUM PEAKS>  (2886) 
41

>  <MASS SPECTRAL PEAKS>  (2886) 
18 2.29
27 5.96
29 2.83
31 4.7
38 1.2
39 10.06
41 2.35
50 3.92
51 10.78
52 2.53
53 1.33
57 1.08
62 1.69
63 5.48
64 1.2
65 17.89
66 1.27
74 1.69
75 1.39
76 1.69
77 21.99
78 14.7
79 16.27
89 4.4
90 1.81
91 99.99
92 49.88
93 3.61
102 1.69
103 12.65
104 4.28
105 13.67
106 1.51
115 8.31
116 2.11
117 84.64
118 58.37
119 5.42
134 1.69
136 9.76
137 0.9

>  <PREDICTED SPECTRUM>  (2886) 
14 14
15 32
16 9
17 12
18 21
19 26
26 71
27 218
28 86
29 132
30 17
31 167
37 43
38 100
39 290
40 101
41 229
42 38
43 71
44 106
45 207
46 42
49 40
50 192
51 293
52 172
53 146
54 39
55 55
57 61
58 82
59 23
61 35
62 96
63 199
64 139
65 389
66 144
67 49
71 9
72 24
74 94
75 131
76 119
77 316
78 297
79 252
80 57
87 39
89 156
90 132
91 999
92 559
93 244
94 66
102 32
103 199
104 241
105 280
106 145
107 116
108 69
115 245
116 155
117 349
118 272
119 81
121 66
134 83
135 45
136 370
137 125

$$$$

     RDKit          2D

  8  8  0  0  0  0  0  0  0  0999 V2000
    0.0000    1.5000    0.0000 C   0  0  0  0  0  0  0  0  0  0  0  0
    0.0000    0.0000    0.0000 C   0  0  0  0  0  0  0  0  0  0  0  0
   -1.1727    2.4352    0.0000 C   0  0  0  0  0  0  0  0  0  0  0  0
   -1.1727   -0.9352    0.0000 C   0  0  0  0  0  0  0  0  0  0  0  0
   -2.6351    2.1015    0.0000 C   0  0  0  0  0  0  0  0  0  0  0  0
   -2.6351   -0.6015    0.0000 C   0  0  0  0  0  0  0  0  0  0  0  0
   -3.2860    0.7500    0.0000 C   0  0  0  0  0  0  0  0  0  0  0  0
   -4.7860    0.7500    0.0000 O   0  0  0  0  0  0  0  0  0  0  0  0
  2  1  1  0
  3  1  1  0
  4  2  1  0
  5  3  1  0
  6  4  1  0
  7  5  1  0
  7  6  1  0
  8  7  2  0
M  END
>  <NAME>  (2887) 
CYCLOHEPTANONE

>  <SYNONYMS>  (2887) 


>  <SPECTRUM TYPE>  (2887) 
MS1

>  <INSTRUMENT TYPE>  (2887) 
EI-B

>  <INSTRUMENT>  (2887) 
HITACHI RMU-7M

>  <ION MODE>  (2887) 
P

>  <INCHIKEY>  (2887) 
CGZZMOTZOONQIA-UHFFFAOYSA-N

>  <FORMULA>  (2887) 
C7H12O

>  <EXACT MASS>  (2887) 
112.088815004

>  <MW>  (2887) 
112

>  <ID>  (2887) 
JP007658

>  <CONTRIBUTOR>  (2887) 
University of Tokyo Team, {Faculty of Engineering, University of Tokyo

>  <COMMENT>  (2887) 
SMILES=O=C(C1)CCCCC1
cas=502-42-1
InChI=InChI=1S/C7H12O/c8-7-5-3-1-2-4-6-7/h1-6H2
computed SMILES=O=C1CCCCCC1
accession=JP007658
date=2016.01.19 (Created 2008.10.21, modified 2011.05.06)
author=TAJIMA S, GUNMA COLLEGE OF TECHNOLOGY
license=CC BY-NC-SA
exact mass=112.08882
ionization energy=70 eV
ion type=[M]+*
computed spectral entropy=2.738682474994147
computed normalized entropy=0.8218830706912854
SPLASH=splash10-0aou-9000000000-1b30a34a3691e98dbf3a
submitter=submitter = University of Tokyo Team (Faculty of Engineering, University of Tokyo)
MoNA Rating=3.75

>  <NUM PEAKS>  (2887) 
28

>  <MASS SPECTRAL PEAKS>  (2887) 
15 1.71
26 2.39
27 23.21
28 19.11
29 11.6
39 21.96
40 5.47
41 66.44
42 41.07
43 17.63
51 1.25
53 3.64
54 3.19
55 99.99
56 51.42
57 5.35
58 2.05
67 4.55
68 79.64
69 36.41
70 10.24
79 2.28
83 12.86
84 25.6
104 3.07
107 4.44
112 36.41
113 2.28

>  <PREDICTED SPECTRUM>  (2887) 
14 36
15 52
16 20
17 15
18 43
25 22
26 245
27 668
28 380
29 538
30 154
31 143
36 24
37 103
38 205
39 687
40 368
41 974
42 722
43 692
44 258
45 190
50 191
51 271
52 195
53 442
54 438
55 999
56 566
57 415
58 306
59 61
60 74
61 36
62 15
63 74
64 3
65 144
66 194
67 502
68 618
69 639
70 444
71 377
72 18
73 5
77 111
78 50
79 320
80 95
81 336
82 185
83 564
84 709
85 224
86 13
93 97
94 290
95 126
96 91
97 224
98 141
111 101
112 513
113 165

$$$$

     RDKit          2D

  5  4  0  0  0  0  0  0  0  0999 V2000
    0.0000    0.0000    0.0000 C   0  0  0  0  0  0  0  0  0  0  0  0
    1.2990    2.2500    0.0000 C   0  0  0  0  0  0  0  0  0  0  0  0
   -1.2990    3.7500    0.0000 C   0  0  0  0  0  0  0  0  0  0  0  0
    0.0000    1.5000    0.0000 C   0  0  0  0  0  0  0  0  0  0  0  0
   -1.2990    2.2500    0.0000 O   0  0  0  0  0  0  0  0  0  0  0  0
  4  1  2  0
  4  2  1  0
  5  3  1  0
  5  4  1  0
M  END
>  <NAME>  (2888) 
ISOPROPENYL METHYL ETHER

>  <SYNONYMS>  (2888) 
2-METHOXY-1-PROPENE

>  <SPECTRUM TYPE>  (2888) 
MS1

>  <INSTRUMENT TYPE>  (2888) 
EI-B

>  <INSTRUMENT>  (2888) 
HITACHI RMU-5B

>  <ION MODE>  (2888) 
P

>  <INCHIKEY>  (2888) 
YOWQWFMSQCOSBA-UHFFFAOYSA-N

>  <FORMULA>  (2888) 
C4H8O

>  <EXACT MASS>  (2888) 
72.057514876

>  <MW>  (2888) 
72

>  <ID>  (2888) 
JP007657

>  <CONTRIBUTOR>  (2888) 
University of Tokyo Team, {Faculty of Engineering, University of Tokyo

>  <COMMENT>  (2888) 
SMILES=COC(C)=C
cas=116-11-0
InChI=InChI=1S/C4H8O/c1-4(2)5-3/h1H2,2-3H3
computed SMILES=O(C(=C)C)C
accession=JP007657
date=2016.01.19 (Created 2008.10.21, modified 2011.05.06)
author=TAJIMA S, GUNMA COLLEGE OF TECHNOLOGY
license=CC BY-NC-SA
exact mass=72.05751
ionization energy=70 eV
ion type=[M]+*
computed spectral entropy=2.4848354476076517
computed normalized entropy=0.8161659171300824
SPLASH=splash10-002f-9000000000-e797a355497d22ec0179
submitter=submitter = University of Tokyo Team (Faculty of Engineering, University of Tokyo)
MoNA Rating=3.75

>  <NUM PEAKS>  (2888) 
21

>  <MASS SPECTRAL PEAKS>  (2888) 
14 7.24
15 25.19
25 2.46
26 12.72
27 55.48
28 5.35
29 48.17
30 2.52
31 6.17
33 1.39
36 1.32
37 7.3
38 12.41
39 44.08
40 16.88
41 66.25
42 99.99
43 20.78
57 4.91
72 29.79
73 1.95

>  <PREDICTED SPECTRUM>  (2888) 
14 63
15 132
16 9
25 29
26 152
27 356
28 199
29 263
30 99
31 97
32 10
37 71
38 174
39 540
40 287
41 742
42 511
43 492
44 144
45 266
51 66
53 189
54 78
55 124
56 162
57 702
58 222
59 368
71 335
72 999
73 286

$$$$

     RDKit          2D

  5  4  0  0  0  0  0  0  0  0999 V2000
   -3.8971    2.2500    0.0000 C   0  0  0  0  0  0  0  0  0  0  0  0
    1.2990    2.2500    0.0000 C   0  0  0  0  0  0  0  0  0  0  0  0
   -2.5981    1.5000    0.0000 C   0  0  0  0  0  0  0  0  0  0  0  0
    0.0000    1.5000    0.0000 C   0  0  0  0  0  0  0  0  0  0  0  0
   -1.2990    2.2500    0.0000 O   0  0  0  0  0  0  0  0  0  0  0  0
  3  1  1  0
  4  2  1  0
  5  3  1  0
  5  4  1  0
M  END
>  <NAME>  (2889) 
DIETHYL ETHER

>  <SYNONYMS>  (2889) 
1,1'-OXYBISETHANE

>  <SPECTRUM TYPE>  (2889) 
MS1

>  <INSTRUMENT TYPE>  (2889) 
EI-B

>  <INSTRUMENT>  (2889) 
HITACHI RMU-7M

>  <ION MODE>  (2889) 
P

>  <INCHIKEY>  (2889) 
RTZKZFJDLAIYFH-UHFFFAOYSA-N

>  <FORMULA>  (2889) 
C4H10O

>  <EXACT MASS>  (2889) 
74.07316494

>  <MW>  (2889) 
74

>  <ID>  (2889) 
JP007656

>  <CONTRIBUTOR>  (2889) 
University of Tokyo Team, {Faculty of Engineering, University of Tokyo

>  <COMMENT>  (2889) 
SMILES=CCOCC
cas=60-29-7
InChI=InChI=1S/C4H10O/c1-3-5-4-2/h3-4H2,1-2H3
computed SMILES=O(CC)CC
accession=JP007656
date=2016.01.19 (Created 2008.10.21, modified 2011.05.06)
author=TAJIMA S, GUNMA COLLEGE OF TECHNOLOGY
license=CC BY-NC-SA
exact mass=74.07316
ionization energy=70 eV
ion type=[M]+*
computed spectral entropy=2.1982446873691717
computed normalized entropy=0.7465750531503582
SPLASH=splash10-003r-9000000000-539b7fc110138db40d75
submitter=submitter = University of Tokyo Team (Faculty of Engineering, University of Tokyo)
MoNA Rating=3.75

>  <NUM PEAKS>  (2889) 
19

>  <MASS SPECTRAL PEAKS>  (2889) 
15 3.1
17 1.17
18 7.24
19 2.41
26 2.27
27 17.92
28 8.2
29 48.24
30 1.38
31 99.99
41 11.65
43 6.62
44 3.79
45 34.94
59 41.76
60 1
73 3.86
74 25.57
75 1.31

>  <PREDICTED SPECTRUM>  (2889) 
14 70
15 316
16 63
17 58
18 76
19 102
25 52
26 218
27 639
28 531
29 999
30 550
31 838
32 109
33 34
40 71
41 132
43 247
44 100
45 420
46 221
47 159
59 909
60 147
74 79

$$$$

     RDKit          2D

 11 11  0  0  0  0  0  0  0  0999 V2000
    7.4251    1.2910    0.0000 C   0  0  0  0  0  0  0  0  0  0  0  0
    6.1262    0.5408    0.0000 C   0  0  0  0  0  0  0  0  0  0  0  0
    4.8270    1.2906    0.0000 C   0  0  0  0  0  0  0  0  0  0  0  0
   -1.6700   -0.9600    0.0000 C   0  0  0  0  0  0  0  0  0  0  0  0
   -1.6700    0.5400    0.0000 C   0  0  0  0  0  0  0  0  0  0  0  0
   -0.3700   -1.7100    0.0000 C   0  0  0  0  0  0  0  0  0  0  0  0
   -0.3700    1.2900    0.0000 C   0  0  0  0  0  0  0  0  0  0  0  0
    0.9300   -0.9600    0.0000 C   0  0  0  0  0  0  0  0  0  0  0  0
    3.5281    0.5404    0.0000 C   0  0  0  0  0  0  0  0  0  0  0  0
    0.9300    0.5400    0.0000 C   0  0  0  0  0  0  0  0  0  0  0  0
    2.2289    1.2902    0.0000 O   0  0  0  0  0  0  0  0  0  0  0  0
  2  1  1  0
  3  2  1  0
  5  4  2  0
  6  4  1  0
  7  5  1  0
  8  6  2  0
  9  3  1  0
 10  7  2  0
 10  8  1  0
 11  9  1  0
 11 10  1  0
M  END
>  <NAME>  (2890) 
BUTYL PHENYL ETHER

>  <SYNONYMS>  (2890) 
BUTOXYBENZENE

>  <SPECTRUM TYPE>  (2890) 
MS1

>  <INSTRUMENT TYPE>  (2890) 
EI-B

>  <INSTRUMENT>  (2890) 
HITACHI RMU-7M

>  <ION MODE>  (2890) 
P

>  <INCHIKEY>  (2890) 
YFNONBGXNFCTMM-UHFFFAOYSA-N

>  <FORMULA>  (2890) 
C10H14O

>  <EXACT MASS>  (2890) 
150.104465068

>  <MW>  (2890) 
150

>  <ID>  (2890) 
JP007655

>  <CONTRIBUTOR>  (2890) 
University of Tokyo Team, {Faculty of Engineering, University of Tokyo

>  <COMMENT>  (2890) 
SMILES=CCCCOc(c1)cccc1
cas=1126-79-0
InChI=InChI=1S/C10H14O/c1-2-3-9-11-10-7-5-4-6-8-10/h4-8H,2-3,9H2,1H3
computed SMILES=O(C=1C=CC=CC1)CCCC
accession=JP007655
date=2016.01.19 (Created 2008.10.21, modified 2011.05.06)
author=TAJIMA S, GUNMA COLLEGE OF TECHNOLOGY
license=CC BY-NC-SA
exact mass=150.10447
ionization energy=70 eV
ion type=[M]+*
computed spectral entropy=1.8171924756260163
computed normalized entropy=0.6413892125131682
SPLASH=splash10-0006-9000000000-f310e310f23d7766be7d
submitter=submitter = University of Tokyo Team (Faculty of Engineering, University of Tokyo)
MoNA Rating=3.75

>  <NUM PEAKS>  (2890) 
17

>  <MASS SPECTRAL PEAKS>  (2890) 
27 3.18
29 10.62
39 6.3
40 1
41 8.27
50 1
51 4.13
55 1.84
57 3.18
65 4.64
66 6.49
77 7.32
94 99.99
95 6.49
107 1.15
150 15.27
151 1.27

>  <PREDICTED SPECTRUM>  (2890) 
15 12
25 5
26 78
27 237
28 70
29 354
37 34
38 97
39 323
40 131
41 471
42 93
43 66
49 14
50 158
51 247
52 117
53 156
54 33
55 177
56 159
57 241
61 11
62 62
63 128
64 95
65 299
66 264
67 89
74 75
75 97
76 140
77 363
78 171
79 110
91 117
92 27
93 135
94 999
95 333
96 42
105 49
107 167
121 21
150 321
151 105

$$$$

     RDKit          2D

 19 20  0  0  0  0  0  0  0  0999 V2000
    7.4251    1.2910    0.0000 C   0  0  0  0  0  0  0  0  0  0  0  0
    6.1262    0.5408    0.0000 C   0  0  0  0  0  0  0  0  0  0  0  0
   -1.6700   -0.9600    0.0000 C   0  0  0  0  0  0  0  0  0  0  0  0
    2.9548   -4.8394    0.0000 C   0  0  0  0  0  0  0  0  0  0  0  0
   -0.3700   -1.7100    0.0000 C   0  0  0  0  0  0  0  0  0  0  0  0
   -1.6700    0.5400    0.0000 C   0  0  0  0  0  0  0  0  0  0  0  0
    1.9901   -3.6897    0.0000 C   0  0  0  0  0  0  0  0  0  0  0  0
    4.4319   -4.5785    0.0000 C   0  0  0  0  0  0  0  0  0  0  0  0
    0.9300   -0.9600    0.0000 C   0  0  0  0  0  0  0  0  0  0  0  0
   -0.3700    1.2900    0.0000 C   0  0  0  0  0  0  0  0  0  0  0  0
    2.5025   -2.2791    0.0000 C   0  0  0  0  0  0  0  0  0  0  0  0
    4.9444   -3.1678    0.0000 C   0  0  0  0  0  0  0  0  0  0  0  0
    0.9300    0.5400    0.0000 C   0  0  0  0  0  0  0  0  0  0  0  0
    3.9796   -2.0181    0.0000 C   0  0  0  0  0  0  0  0  0  0  0  0
    2.5641   -0.6088    0.0000 O   0  0  0  0  0  0  0  0  0  0  0  0
    4.8270    1.2906    0.0000 O   0  0  0  0  0  0  0  0  0  0  0  0
    3.5281    0.5404    0.0000 P   0  0  0  0  0  0  0  0  0  0  0  0
    2.2289    1.2902    0.0000 S   0  0  0  0  0  0  0  0  0  0  0  0
    4.4924   -0.6085    0.0000 S   0  0  0  0  0  0  0  0  0  0  0  0
  2  1  1  0
  5  3  2  0
  6  3  1  0
  7  4  2  0
  8  4  1  0
  9  5  1  0
 10  6  2  0
 11  7  1  0
 12  8  2  0
 13  9  2  0
 13 10  1  0
 14 11  2  0
 14 12  1  0
 16  2  1  0
 17 15  2  0
 17 16  1  0
 18 13  1  0
 18 17  1  0
 19 14  1  0
 19 17  1  0
M  END
>  <NAME>  (2891) 
O-ETHYL S,S-DIPHENYL PHOSPHORODITHIOATE

>  <SYNONYMS>  (2891) 
EDIFENPHOS

>  <SPECTRUM TYPE>  (2891) 
MS1

>  <INSTRUMENT TYPE>  (2891) 
EI-B

>  <INSTRUMENT>  (2891) 
JEOL JMS-01-SG

>  <ION MODE>  (2891) 
P

>  <INCHIKEY>  (2891) 
AWZOLILCOUMRDG-UHFFFAOYSA-N

>  <FORMULA>  (2891) 
C14H15O2PS2

>  <EXACT MASS>  (2891) 
310.02510835

>  <MW>  (2891) 
310

>  <ID>  (2891) 
JP007536

>  <CONTRIBUTOR>  (2891) 
University of Tokyo Team, {Faculty of Engineering, University of Tokyo

>  <COMMENT>  (2891) 
SMILES=CCOP(=O)(Sc(c2)cccc2)Sc(c1)cccc1
cas=17109-49-8
InChI=InChI=1S/C14H15O2PS2/c1-2-16-17(15,18-13-9-5-3-6-10-13)19-14-11-7-4-8-12-14/h3-12H,2H2,1H3
computed SMILES=O=P(OCC)(SC=1C=CC=CC1)SC=2C=CC=CC2
accession=JP007536
date=2016.01.19 (Created 2008.10.21, modified 2011.05.06)
author=KOGA M, UNIV. OF OCCUPATIONAL AND ENVIRONMENTAL HEALTH
license=CC BY-NC-SA
exact mass=310.02511
ionization energy=70 eV
ion type=[M]+*
computed spectral entropy=3.4680723389660804
computed normalized entropy=0.8163060428174508
SPLASH=splash10-02t9-9831000000-97556cafe393a91f33cc
submitter=submitter = University of Tokyo Team (Faculty of Engineering, University of Tokyo)
MoNA Rating=3.75

>  <NUM PEAKS>  (2891) 
70

>  <MASS SPECTRAL PEAKS>  (2891) 
45 22.4
47 12.3
50 7.1
51 3.39
58 4.6
59 4.3
62 2.7
63 0.65
64 2.7
65 99.99
66 29.3
67 0.27
69 36.4
70 3
71 3
74 0.35
75 3.5
76 3.2
77 32
78 0.49
82 10.4
83 4.9
84 7.6
94 0.49
96 3.5
97 3.5
105 2.7
108 2.79
109 20.8
110 89
111 33.9
112 0.6
123 6.5
125 2.7
137 3.2
138 0.71
139 4.6
140 3
141 8.2
153 0.32
154 9.3
155 9.8
156 3
157 0.27
169 3.8
172 4.3
173 7.9
174 2.35
175 16.9
183 4.1
184 10.4
185 1.26
186 30.9
187 5.2
189 4.1
201 6.38
202 17.5
203 9
207 4.9
217 0.54
218 44.9
219 7.6
220 5.7
265 0.54
281 3
282 2.7
310 41.3
311 3.36
312 18.6
313 3.2

>  <PREDICTED SPECTRUM>  (2891) 
26 43
27 181
29 215
31 18
32 10
34 18
38 26
39 271
40 9
41 80
43 76
45 476
46 14
47 319
49 64
50 166
51 426
52 15
53 74
57 175
58 99
59 208
60 50
61 12
62 28
63 163
65 586
66 303
67 35
69 357
70 42
71 92
72 13
74 126
75 117
77 589
78 211
79 263
80 15
81 267
82 170
83 151
84 208
85 92
86 73
88 0
89 52
91 651
92 202
93 58
94 42
95 31
96 71
97 101
98 45
99 13
100 120
102 74
103 49
105 41
109 999
110 585
111 342
112 147
113 33
114 38
115 155
116 9
117 81
122 3
123 628
124 142
125 280
126 66
127 119
128 155
129 412
130 127
131 293
133 32
134 51
135 199
137 78
138 17
139 92
140 13
141 204
142 76
143 59
145 198
146 113
147 68
155 84
156 92
157 244
158 172
159 256
160 100
169 177
170 154
171 148
172 306
173 794
174 272
175 159
184 27
185 119
186 320
187 28
189 218
190 68
191 123
200 146
201 938
202 354
203 224
204 86
218 220
220 64
233 181
234 19
281 2
282 107
310 844
311 353
312 281
313 70

$$$$

     RDKit          2D

 16 16  0  0  0  0  0  0  0  0999 V2000
    2.3089   -1.3302    0.0000 C   0  0  0  0  0  0  0  0  0  0  0  0
   -6.7862   -0.5808    0.0000 C   0  0  0  0  0  0  0  0  0  0  0  0
   -3.7373    1.9783    0.0000 C   0  0  0  0  0  0  0  0  0  0  0  0
    3.6081    0.9204    0.0000 C   0  0  0  0  0  0  0  0  0  0  0  0
   -1.5900    0.9200    0.0000 C   0  0  0  0  0  0  0  0  0  0  0  0
   -0.2900    1.6700    0.0000 C   0  0  0  0  0  0  0  0  0  0  0  0
   -0.2900   -1.3300    0.0000 C   0  0  0  0  0  0  0  0  0  0  0  0
    1.0100   -0.5800    0.0000 C   0  0  0  0  0  0  0  0  0  0  0  0
   -1.5900   -0.5800    0.0000 C   0  0  0  0  0  0  0  0  0  0  0  0
    1.0100    0.9200    0.0000 C   0  0  0  0  0  0  0  0  0  0  0  0
   -5.4870   -1.3306    0.0000 O   0  0  0  0  0  0  0  0  0  0  0  0
   -3.2241    0.5688    0.0000 O   0  0  0  0  0  0  0  0  0  0  0  0
   -2.8889   -1.3302    0.0000 O   0  0  0  0  0  0  0  0  0  0  0  0
   -4.1881   -0.5804    0.0000 P   0  0  0  0  0  0  0  0  0  0  0  0
   -5.1524    0.5685    0.0000 S   0  0  0  0  0  0  0  0  0  0  0  0
    2.3089    1.6702    0.0000 S   0  0  0  0  0  0  0  0  0  0  0  0
  6  5  2  0
  8  1  1  0
  8  7  1  0
  9  5  1  0
  9  7  2  0
 10  6  1  0
 10  8  2  0
 11  2  1  0
 12  3  1  0
 13  9  1  0
 14 11  1  0
 14 12  1  0
 14 13  1  0
 15 14  2  0
 16  4  1  0
 16 10  1  0
M  END
>  <NAME>  (2892) 
O,O-DIMETHYL O-(3-METHYL-4-METHYLTHIOPHENYL) PHOSPHOROTHIOATE

>  <SYNONYMS>  (2892) 


>  <SPECTRUM TYPE>  (2892) 
MS1

>  <INSTRUMENT TYPE>  (2892) 
EI-B

>  <INSTRUMENT>  (2892) 
JEOL JMS-01-SG

>  <ION MODE>  (2892) 
P

>  <INCHIKEY>  (2892) 
PNVJTZOFSHSLTO-UHFFFAOYSA-N

>  <FORMULA>  (2892) 
C10H15O3PS2

>  <EXACT MASS>  (2892) 
278.02002297

>  <MW>  (2892) 
278

>  <ID>  (2892) 
JP007535

>  <CONTRIBUTOR>  (2892) 
University of Tokyo Team, {Faculty of Engineering, University of Tokyo

>  <COMMENT>  (2892) 
SMILES=CSc(c1)c(C)cc(c1)OP(=S)(OC)OC
cas=55-38-9
InChI=InChI=1S/C10H15O3PS2/c1-8-7-9(5-6-10(8)16-4)13-14(15,11-2)12-3/h5-7H,1-4H3
computed SMILES=S=P(OC1=CC=C(SC)C(=C1)C)(OC)OC
accession=JP007535
date=2016.01.19 (Created 2008.10.21, modified 2011.05.06)
author=KOGA M, UNIV. OF OCCUPATIONAL AND ENVIRONMENTAL HEALTH
license=CC BY-NC-SA
exact mass=278.02002
ionization energy=70 eV
ion type=[M]+*
computed spectral entropy=3.639276848492359
computed normalized entropy=0.817016861606931
SPLASH=splash10-00os-4930000000-d917f6fe7c279d0326ef
submitter=submitter = University of Tokyo Team (Faculty of Engineering, University of Tokyo)
MoNA Rating=3.75

>  <NUM PEAKS>  (2892) 
86

>  <MASS SPECTRAL PEAKS>  (2892) 
45 24.9
47 31.5
50 1.7
51 0.66
52 5.9
53 1.7
59 2.4
62 1.33
63 12.6
64 4.2
65 7.7
66 0.52
69 5.6
70 4.2
71 1.7
73 0.28
76 2.4
77 8.4
78 12.9
79 4.28
84 2.4
85 3.8
89 4.2
91 1.47
93 37.8
94 2.8
95 3.8
96 0.17
105 8
106 1.7
107 1.7
109 9.05
110 14.3
111 4.5
121 15.7
122 0.91
123 5.2
124 2.1
125 99.99
126 0.38
127 5.6
134 2.8
135 15.7
136 0.7
137 24.5
138 10.1
139 5.6
142 0.24
143 2.8
149 1.7
150 1.7
151 3.36
152 3.5
153 29.1
154 13.3
155 0.91
167 6.6
168 17.8
169 76.4
170 1.29
171 6.3
182 1.7
183 2.4
184 0.56
185 2.8
200 3.1
201 3.5
213 0.42
215 2.8
216 3.8
231 7
232 0.38
233 6.3
244 2.1
245 29.4
246 1.4
247 3.5
262 4.2
263 19.2
264 0.21
265 1.7
277 1.7
278 18.9
279 4.59
280 34
281 2.1

>  <PREDICTED SPECTRUM>  (2892) 
14 3
15 135
18 24
26 26
27 157
28 60
29 114
30 9
31 61
32 26
33 31
34 25
36 11
37 22
38 112
39 350
40 95
41 155
42 14
43 49
44 128
45 515
46 124
47 454
48 91
49 91
50 190
51 352
52 194
53 227
54 51
55 122
57 129
58 69
59 93
60 46
61 85
62 226
63 499
64 220
65 391
66 155
67 167
68 8
69 282
70 274
71 123
72 112
73 78
74 71
75 155
76 138
77 512
78 246
79 642
80 183
81 166
82 129
83 74
84 58
85 91
86 37
88 70
89 150
90 167
91 325
92 173
93 632
94 232
95 353
96 215
97 344
98 74
99 99
102 39
103 40
105 88
106 74
107 190
108 188
109 719
110 258
111 222
112 91
113 2
117 15
118 38
119 46
120 94
121 293
122 153
123 196
124 137
125 841
126 204
127 106
135 66
136 152
137 413
138 335
139 329
140 254
141 58
142 82
149 2
150 70
151 243
152 284
153 333
154 508
155 292
156 177
157 105
158 102
159 117
165 10
166 55
167 312
168 283
169 279
170 225
171 154
172 78
181 35
183 301
184 181
185 115
187 73
199 239
200 119
201 32
213 44
215 224
216 7
217 1
230 163
231 175
245 177
246 34
247 110
248 72
262 36
263 350
264 145
265 126
266 24
278 999
279 385
280 348
281 150

$$$$

     RDKit          2D

 17 17  0  0  0  0  0  0  0  0999 V2000
    3.1104    2.5321    0.0000 C   0  0  0  0  0  0  0  0  0  0  0  0
   -5.9835    1.7814    0.0000 C   0  0  0  0  0  0  0  0  0  0  0  0
   -5.8268    0.8928    0.0000 C   0  0  0  0  0  0  0  0  0  0  0  0
   -0.7878    0.2806    0.0000 C   0  0  0  0  0  0  0  0  0  0  0  0
    0.5112   -0.4694    0.0000 C   0  0  0  0  0  0  0  0  0  0  0  0
    0.5122    2.5323    0.0000 C   0  0  0  0  0  0  0  0  0  0  0  0
    1.8112    1.7823    0.0000 C   0  0  0  0  0  0  0  0  0  0  0  0
   -0.7874    1.7814    0.0000 C   0  0  0  0  0  0  0  0  0  0  0  0
    1.8107    0.2814    0.0000 C   0  0  0  0  0  0  0  0  0  0  0  0
    3.1098   -0.4686    0.0000 N   0  0  0  0  0  0  0  0  0  0  0  0
    3.1098   -1.9686    0.0000 O   0  0  0  0  0  0  0  0  0  0  0  0
    4.4088    0.2814    0.0000 O   0  0  0  0  0  0  0  0  0  0  0  0
   -4.6845    2.5314    0.0000 O   0  0  0  0  0  0  0  0  0  0  0  0
   -4.3496    0.6324    0.0000 O   0  0  0  0  0  0  0  0  0  0  0  0
   -2.0864    2.5314    0.0000 O   0  0  0  0  0  0  0  0  0  0  0  0
   -3.3854    1.7814    0.0000 P   0  0  0  0  0  0  0  0  0  0  0  0
   -2.4212    0.6324    0.0000 S   0  0  0  0  0  0  0  0  0  0  0  0
  5  4  2  0
  7  1  1  0
  7  6  1  0
  8  4  1  0
  8  6  2  0
  9  5  1  0
  9  7  2  0
 10  9  1  0
 11 10  1  0
 12 10  2  0
 13  2  1  0
 14  3  1  0
 15  8  1  0
 16 13  1  0
 16 14  1  0
 16 15  1  0
 17 16  2  0
M  CHG  2  10   1  11  -1
M  END
>  <NAME>  (2893) 
O,O-DIMETHYL O-(3-METHYL-4-NITROPHENYL) PHOSPHOROTHIOATE

>  <SYNONYMS>  (2893) 
FENITROTHION

>  <SPECTRUM TYPE>  (2893) 
MS1

>  <INSTRUMENT TYPE>  (2893) 
EI-B

>  <INSTRUMENT>  (2893) 
JEOL JMS-01-SG

>  <ION MODE>  (2893) 
P

>  <INCHIKEY>  (2893) 
ZNOLGFHPUIJIMJ-UHFFFAOYSA-N

>  <FORMULA>  (2893) 
C9H12NO5PS

>  <EXACT MASS>  (2893) 
277.017380114

>  <MW>  (2893) 
277

>  <ID>  (2893) 
JP007532

>  <CONTRIBUTOR>  (2893) 
University of Tokyo Team, {Faculty of Engineering, University of Tokyo

>  <COMMENT>  (2893) 
SMILES=[O-1][N+1](=O)c(c1)c(C)cc(c1)OP(=S)(OC)OC
cas=122-14-5
InChI=InChI=1S/C9H12NO5PS/c1-7-6-8(4-5-9(7)10(11)12)15-16(17,13-2)14-3/h4-6H,1-3H3
computed SMILES=O=N(=O)C1=CC=C(OP(=S)(OC)OC)C=C1C
accession=JP007532
date=2016.01.19 (Created 2008.10.21, modified 2011.05.06)
author=KOGA M, UNIV. OF OCCUPATIONAL AND ENVIRONMENTAL HEALTH
license=CC BY-NC-SA
exact mass=277.01738
ionization energy=70 eV
ion type=[M]+*
computed spectral entropy=3.5936566412874593
computed normalized entropy=0.8154948022882208
SPLASH=splash10-01tc-9540000000-a180b7cec61770691237
submitter=submitter = University of Tokyo Team (Faculty of Engineering, University of Tokyo)
MoNA Rating=3.75

>  <NUM PEAKS>  (2893) 
82

>  <MASS SPECTRAL PEAKS>  (2893) 
45 5
47 47.9
50 7
51 1.65
52 14.5
53 5
62 20.2
63 3.44
64 4.3
65 6.7
66 4.3
69 0.2
74 2
75 3
76 3
77 1.79
78 11.4
79 88.1
80 7.4
81 0.2
83 2
89 18.9
90 17.7
91 0.47
92 2.7
93 59.7
94 7.7
95 0.77
96 7
97 3.3
103 2
104 0.2
105 3.3
106 5.4
107 2.7
108 0.57
109 17.9
110 10.4
111 5
112 0.2
119 3.3
120 10.1
121 15.2
122 1.04
123 9.4
124 6.7
125 22.6
126 0.77
127 16.8
136 15.8
137 5.4
138 1.41
139 3.7
140 2
150 16.8
151 0.7
152 10.1
153 4
166 4.3
168 0.43
169 4.7
182 3.3
199 3
200 0.27
201 2
202 3
214 13.8
215 0.33
216 4.3
217 2
228 4
230 0.4
231 2
232 3
246 6
247 1.55
260 99.99
261 16.2
262 6.7
277 1.28
278 17.9
279 11.8

>  <PREDICTED SPECTRUM>  (2893) 
15 103
18 4
26 24
27 70
28 83
29 115
30 149
31 92
32 38
33 69
34 22
36 38
37 40
38 112
39 312
40 95
41 130
43 71
44 115
45 429
46 112
47 413
48 73
49 101
50 187
51 305
52 204
53 199
54 45
55 43
57 36
58 50
59 64
60 47
61 63
62 242
63 561
64 236
65 383
66 156
67 139
69 203
70 44
71 63
72 52
73 31
74 37
75 180
76 123
77 220
78 187
79 763
80 250
81 172
82 85
83 35
85 38
89 180
90 157
91 240
92 50
93 759
94 59
95 272
96 93
97 107
99 0
102 9
105 46
106 5
107 113
108 117
109 825
110 256
111 77
118 3
119 66
120 204
121 173
122 124
123 201
124 52
125 999
126 150
127 273
134 28
135 98
136 408
137 302
138 197
139 49
149 85
150 219
151 198
152 201
153 327
154 135
155 14
158 9
164 2
165 19
166 320
167 140
168 135
169 154
170 20
182 303
183 203
184 30
186 23
198 131
199 154
200 0
214 9
216 78
229 47
230 146
231 119
232 14
244 22
246 92
247 143
248 9
260 1
261 139
262 104
263 34
277 719
278 284
279 172
280 71

$$$$

     RDKit          2D

 15 15  0  0  0  0  0  0  0  0999 V2000
    3.2472   -5.2506    0.0000 C   0  0  0  0  0  0  0  0  0  0  0  0
    0.6489   -3.7510    0.0000 C   0  0  0  0  0  0  0  0  0  0  0  0
   -4.5476   -0.7500    0.0000 C   0  0  0  0  0  0  0  0  0  0  0  0
    3.2470   -3.7506    0.0000 C   0  0  0  0  0  0  0  0  0  0  0  0
    3.2476    0.7508    0.0000 C   0  0  0  0  0  0  0  0  0  0  0  0
    1.9486    1.5008    0.0000 C   0  0  0  0  0  0  0  0  0  0  0  0
    3.2471   -0.7500    0.0000 C   0  0  0  0  0  0  0  0  0  0  0  0
    0.6490    0.7500    0.0000 C   0  0  0  0  0  0  0  0  0  0  0  0
    1.9478   -3.0008    0.0000 C   0  0  0  0  0  0  0  0  0  0  0  0
    1.9476   -1.5008    0.0000 C   0  0  0  0  0  0  0  0  0  0  0  0
    0.6486   -0.7508    0.0000 C   0  0  0  0  0  0  0  0  0  0  0  0
   -1.9495   -0.7504    0.0000 C   0  0  0  0  0  0  0  0  0  0  0  0
   -3.2487   -1.5002    0.0000 N   0  0  0  0  0  0  0  0  0  0  0  0
   -1.9493    0.7496    0.0000 O   0  0  0  0  0  0  0  0  0  0  0  0
   -0.6506   -1.5006    0.0000 O   0  0  0  0  0  0  0  0  0  0  0  0
  4  1  1  0
  6  5  2  0
  7  5  1  0
  8  6  1  0
  9  2  1  0
  9  4  1  0
 10  7  2  0
 10  9  1  0
 11  8  2  0
 11 10  1  0
 13  3  1  0
 13 12  2  3
 14 12  1  0
 15 11  1  0
 15 12  1  0
M  END
>  <NAME>  (2894) 
2-SEC-BUTYLPHENYL N-METHYLCARBAMATE

>  <SYNONYMS>  (2894) 


>  <SPECTRUM TYPE>  (2894) 
MS1

>  <INSTRUMENT TYPE>  (2894) 
EI-B

>  <INSTRUMENT>  (2894) 
JEOL JMS-01-SG

>  <ION MODE>  (2894) 
P

>  <INCHIKEY>  (2894) 
DIRFUJHNVNOBMY-UHFFFAOYSA-N

>  <FORMULA>  (2894) 
C12H17NO2

>  <EXACT MASS>  (2894) 
207.125928784

>  <MW>  (2894) 
207

>  <ID>  (2894) 
JP007531

>  <CONTRIBUTOR>  (2894) 
University of Tokyo Team, {Faculty of Engineering, University of Tokyo

>  <COMMENT>  (2894) 
SMILES=CNC(=O)Oc(c1)c(ccc1)C(C)CC
InChI=InChI=1S/C12H17NO2/c1-4-9(2)10-7-5-6-8-11(10)15-12(14)13-3/h5-9H,4H2,1-3H3,(H,13,14)
computed SMILES=OC(=NC)OC=1C=CC=CC1C(C)CC
accession=JP007531
date=2016.01.19 (Created 2008.10.21, modified 2011.05.06)
author=KOGA M, UNIV. OF OCCUPATIONAL AND ENVIRONMENTAL HEALTH
license=CC BY-NC-SA
exact mass=207.12593
ionization energy=70 eV
ion type=[M]+*
computed spectral entropy=3.1435368358281655
computed normalized entropy=0.767775351599156
SPLASH=splash10-0fkc-6900000000-adbb3857b8231ec72227
submitter=submitter = University of Tokyo Team (Faculty of Engineering, University of Tokyo)
MoNA Rating=3.75

>  <NUM PEAKS>  (2894) 
60

>  <MASS SPECTRAL PEAKS>  (2894) 
43 2.8
51 15.9
52 2.8
53 1.23
55 18.1
56 10.8
57 24.6
58 3.69
63 7.9
64 6.5
65 26
66 0.65
67 2.8
68 2.8
71 4.3
74 0.14
75 2.8
76 3.6
77 84
79 1.15
85 1.4
86 3.6
89 6.5
90 0.21
91 84
92 12.3
93 34.7
94 1.01
95 7.2
102 7.2
103 76
104 0.84
105 11.5
107 89.1
108 6.5
115 1.3
116 5
117 6.5
119 12.3
120 1.3
121 93.4
122 99.99
123 5.7
128 0.57
131 3.6
132 2.1
133 7.2
134 0.5
135 25.3
141 2.8
149 2.8
150 8.4
151 38.4
152 1.4
173 1.4
174 0.5
176 2.1
207 9.4
208 1.4
209 2.1

>  <PREDICTED SPECTRUM>  (2894) 
15 5
26 5
27 105
28 57
29 116
38 39
39 364
40 123
41 357
42 105
43 236
44 177
45 18
50 143
51 313
52 226
53 250
54 25
55 179
56 151
57 345
58 55
62 49
63 244
64 163
65 464
66 80
67 95
69 54
71 27
72 230
74 19
75 48
76 87
77 616
78 290
79 412
80 99
81 87
89 49
91 764
92 238
93 196
94 160
95 137
97 37
102 94
103 321
104 179
105 202
106 155
107 469
108 263
109 216
115 307
117 123
118 76
119 228
120 253
121 891
122 210
123 17
130 27
131 103
132 202
133 182
134 308
135 520
136 613
137 184
145 7
146 223
147 333
148 120
149 4
150 282
151 98
152 5
160 78
162 151
163 290
164 143
165 169
174 66
175 57
176 82
178 999
179 297
180 6
192 57
207 703
208 257
209 6

$$$$

     RDKit          2D

 19 20  0  0  0  0  0  0  0  0999 V2000
    1.1800    5.7300    0.0000 C   0  0  0  0  0  0  0  0  0  0  0  0
    4.5281    4.4310    0.0000 C   0  0  0  0  0  0  0  0  0  0  0  0
    5.0771    6.4800    0.0000 C   0  0  0  0  0  0  0  0  0  0  0  0
    3.0281    7.0290    0.0000 C   0  0  0  0  0  0  0  0  0  0  0  0
   -2.7200   -1.0200    0.0000 C   0  0  0  0  0  0  0  0  0  0  0  0
   -2.7200    0.4800    0.0000 C   0  0  0  0  0  0  0  0  0  0  0  0
    2.4800   -1.0200    0.0000 C   0  0  0  0  0  0  0  0  0  0  0  0
   -1.4200   -1.7700    0.0000 C   0  0  0  0  0  0  0  0  0  0  0  0
    1.1800   -1.7700    0.0000 C   0  0  0  0  0  0  0  0  0  0  0  0
   -1.4200    1.2300    0.0000 C   0  0  0  0  0  0  0  0  0  0  0  0
    2.4800    0.4800    0.0000 C   0  0  0  0  0  0  0  0  0  0  0  0
   -0.1200   -1.0200    0.0000 C   0  0  0  0  0  0  0  0  0  0  0  0
   -0.1200    0.4800    0.0000 C   0  0  0  0  0  0  0  0  0  0  0  0
    1.1800    1.2300    0.0000 C   0  0  0  0  0  0  0  0  0  0  0  0
    2.4790    3.4800    0.0000 C   0  0  0  0  0  0  0  0  0  0  0  0
    2.4790    4.9800    0.0000 N   0  0  0  0  0  0  0  0  0  0  0  0
    3.7781    2.7300    0.0000 O   0  0  0  0  0  0  0  0  0  0  0  0
    1.1800    2.7300    0.0000 O   0  0  0  0  0  0  0  0  0  0  0  0
    3.7781    5.7300    0.0000 Si  0  0  0  0  0  4  0  0  0  0  0  0
  6  5  2  0
  8  5  1  0
  9  7  2  0
 10  6  1  0
 11  7  1  0
 12  8  2  0
 12  9  1  0
 13 10  2  0
 13 12  1  0
 14 11  2  0
 14 13  1  0
 16  1  1  0
 16 15  1  0
 17 15  2  0
 18 14  1  0
 18 15  1  0
 19  2  1  0
 19  3  1  0
 19  4  1  0
 19 16  1  0
M  END
>  <NAME>  (2895) 
1-NAPHTHYL N-TRIMETHYLSILYL-N-METHYLCARBAMATE

>  <SYNONYMS>  (2895) 


>  <SPECTRUM TYPE>  (2895) 
MS1

>  <INSTRUMENT TYPE>  (2895) 
EI-B

>  <INSTRUMENT>  (2895) 
JEOL JMS-01-SG

>  <ION MODE>  (2895) 
P

>  <INCHIKEY>  (2895) 
SLCYRFLZSPSLSO-UHFFFAOYSA-N

>  <FORMULA>  (2895) 
C15H19NO2Si

>  <EXACT MASS>  (2895) 
273.118505378

>  <MW>  (2895) 
273

>  <ID>  (2895) 
JP007530

>  <CONTRIBUTOR>  (2895) 
University of Tokyo Team, {Faculty of Engineering, University of Tokyo

>  <COMMENT>  (2895) 
SMILES=O=C(Oc(c1)c(c2)c(ccc2)cc1)N(C)[Si](C)(C)C
InChI=InChI=1S/C15H19NO2Si/c1-16(19(2,3)4)15(17)18-14-11-7-9-12-8-5-6-10-13(12)14/h5-11H,1-4H3
computed SMILES=O=C(OC1=CC=CC=2C=CC=CC12)N(C)[Si](C)(C)C
accession=JP007530
date=2016.01.19 (Created 2008.10.21, modified 2011.05.06)
author=KOGA M, UNIV. OF OCCUPATIONAL AND ENVIRONMENTAL HEALTH
license=CC BY-NC-SA
exact mass=273.11851
ionization energy=70 eV
ion type=[M]+*
computed spectral entropy=3.2387143742084255
computed normalized entropy=0.7675574025461468
SPLASH=splash10-0g4i-9860000000-c6b878b8f2e238dd6eca
submitter=submitter = University of Tokyo Team (Faculty of Engineering, University of Tokyo)
MoNA Rating=3.75

>  <NUM PEAKS>  (2895) 
68

>  <MASS SPECTRAL PEAKS>  (2895) 
37 3.9
42 7.9
43 5.1
44 2.83
45 1.1
46 3
50 1.8
51 0.41
53 1.3
55 1.8
58 1.8
59 0.2
62 1.3
63 6
64 2
65 0.27
72 1.8
73 99.99
74 11.1
75 1.27
76 3.2
77 8.3
78 1.3
86 0.32
87 1.3
89 3.4
92 0.25
93 16.9
94 5.8
99 1.6
101 2.69
114 1.1
115 23.7
116 2.7
126 1.16
127 28.3
128 5.5
129 1.8
139 0.67
140 2.7
141 31.6
142 5.8
143 0.39
145 6.5
155 2.7
169 1.1
170 0.88
171 10
172 1.3
173 1.3
181 0.13
183 6.2
184 3.7
185 40.9
186 1.65
187 5.8
199 4.8
200 5.8
201 2.51
202 48.6
203 13
204 1.1
214 0.11
215 5.3
216 23
217 47.6
218 1.27
219 1.1

>  <PREDICTED SPECTRUM>  (2895) 
15 81
18 10
26 4
27 39
28 20
29 36
30 23
31 45
38 36
39 173
40 51
41 65
42 320
43 226
44 322
45 336
46 107
47 173
49 15
50 129
51 220
52 70
53 52
55 142
56 139
57 172
58 303
59 309
60 139
61 115
62 118
63 245
64 160
65 119
70 40
71 76
72 239
73 999
74 318
75 517
76 205
77 290
78 73
83 55
84 23
85 34
86 169
87 126
88 176
89 232
90 42
91 71
92 48
99 39
100 267
101 267
102 54
113 115
114 297
115 985
116 670
117 120
126 184
127 329
128 182
129 149
130 414
131 228
132 103
139 12
140 72
141 124
142 4
143 328
144 312
153 25
154 22
155 67
156 414
157 216
158 57
159 23
169 41
170 59
171 28
172 11
173 72
184 29
185 31
186 46
187 9
198 85
199 104
200 16
214 536
215 301
216 140
217 109
229 46
230 2
258 251
259 88
273 397
274 155
275 14

$$$$

     RDKit          2D

 19 19  0  0  0  0  0  0  0  0999 V2000
    6.8701   -0.4760    0.0000 C   0  0  0  0  0  0  0  0  0  0  0  0
    4.2723   -1.9764    0.0000 C   0  0  0  0  0  0  0  0  0  0  0  0
    1.6731   -4.9766    0.0000 C   0  0  0  0  0  0  0  0  0  0  0  0
   -1.6747   -3.6771    0.0000 C   0  0  0  0  0  0  0  0  0  0  0  0
   -2.2241   -5.7260    0.0000 C   0  0  0  0  0  0  0  0  0  0  0  0
   -0.1751   -6.2754    0.0000 C   0  0  0  0  0  0  0  0  0  0  0  0
    5.5710    0.2738    0.0000 C   0  0  0  0  0  0  0  0  0  0  0  0
    1.6729    2.5250    0.0000 C   0  0  0  0  0  0  0  0  0  0  0  0
    0.3739    1.7750    0.0000 C   0  0  0  0  0  0  0  0  0  0  0  0
    2.9724    1.7742    0.0000 C   0  0  0  0  0  0  0  0  0  0  0  0
    0.3743    0.2742    0.0000 C   0  0  0  0  0  0  0  0  0  0  0  0
    4.2721   -0.4764    0.0000 C   0  0  0  0  0  0  0  0  0  0  0  0
    2.9729    0.2734    0.0000 C   0  0  0  0  0  0  0  0  0  0  0  0
    1.6739   -0.4766    0.0000 C   0  0  0  0  0  0  0  0  0  0  0  0
    0.3745   -2.7264    0.0000 C   0  0  0  0  0  0  0  0  0  0  0  0
    0.3742   -4.2264    0.0000 N   0  0  0  0  0  0  0  0  0  0  0  0
   -0.9245   -1.9762    0.0000 O   0  0  0  0  0  0  0  0  0  0  0  0
    1.6736   -1.9766    0.0000 O   0  0  0  0  0  0  0  0  0  0  0  0
   -0.9249   -4.9762    0.0000 Si  0  0  0  0  0  4  0  0  0  0  0  0
  7  1  1  0
  9  8  2  0
 10  8  1  0
 11  9  1  0
 12  2  1  0
 12  7  1  0
 13 10  2  0
 13 12  1  0
 14 11  2  0
 14 13  1  0
 16  3  1  0
 16 15  1  0
 17 15  2  0
 18 14  1  0
 18 15  1  0
 19  4  1  0
 19  5  1  0
 19  6  1  0
 19 16  1  0
M  END
>  <NAME>  (2896) 
2-SEC-BUTYLPHENYL N-TRIMETHYLSILYL-N-METHYLCARBAMATE

>  <SYNONYMS>  (2896) 


>  <SPECTRUM TYPE>  (2896) 
MS1

>  <INSTRUMENT TYPE>  (2896) 
EI-B

>  <INSTRUMENT>  (2896) 
JEOL JMS-01-SG

>  <ION MODE>  (2896) 
P

>  <INCHIKEY>  (2896) 
SAHJVCUSCHXJPX-UHFFFAOYSA-N

>  <FORMULA>  (2896) 
C15H25NO2Si

>  <EXACT MASS>  (2896) 
279.16545557

>  <MW>  (2896) 
279

>  <ID>  (2896) 
JP007529

>  <CONTRIBUTOR>  (2896) 
University of Tokyo Team, {Faculty of Engineering, University of Tokyo

>  <COMMENT>  (2896) 
SMILES=CCC(C)c(c1)c(ccc1)OC(=O)N(C)[Si](C)(C)C
InChI=InChI=1S/C15H25NO2Si/c1-7-12(2)13-10-8-9-11-14(13)18-15(17)16(3)19(4,5)6/h8-12H,7H2,1-6H3
computed SMILES=O=C(OC=1C=CC=CC1C(C)CC)N(C)[Si](C)(C)C
accession=JP007529
date=2016.01.19 (Created 2008.10.21, modified 2011.05.06)
author=KOGA M, UNIV. OF OCCUPATIONAL AND ENVIRONMENTAL HEALTH
license=CC BY-NC-SA
exact mass=279.16546
ionization energy=70 eV
ion type=[M]+*
computed spectral entropy=3.2702618680138262
computed normalized entropy=0.7955150111791303
SPLASH=splash10-00dl-8920000000-3d19a1283bdc2324bdd7
submitter=submitter = University of Tokyo Team (Faculty of Engineering, University of Tokyo)
MoNA Rating=3.75

>  <NUM PEAKS>  (2896) 
61

>  <MASS SPECTRAL PEAKS>  (2896) 
37 3.3
40 10
42 11.6
43 0.25
44 40.8
47 3.3
51 3.3
55 0.91
56 11.6
57 24.1
58 2.5
59 1.75
61 2.5
63 2.5
65 7.5
72 0.75
73 52.5
74 45.8
75 28.3
76 0.25
77 8.3
78 6.6
81 5
82 1.33
86 3.3
88 2.5
89 32.5
91 2.08
92 3.3
93 3.3
103 9.1
105 0.33
107 7.5
115 5
117 3.3
121 4.83
122 5.8
130 79.1
131 17.5
132 0.5
133 2.5
135 8.3
147 2.5
150 1.41
151 6.6
161 3.3
163 14.1
165 0.25
177 5.8
179 4.1
191 4.1
193 99.99
194 30.8
195 7.5
205 4.1
208 0.41
221 2.5
222 75.8
223 13.3
224 0.33
264 6.6

>  <PREDICTED SPECTRUM>  (2896) 
26 4
27 75
28 32
29 114
31 19
38 26
39 109
40 67
41 126
42 100
43 199
44 109
45 119
46 75
47 126
50 35
51 117
52 76
53 80
54 40
55 73
56 157
57 249
58 106
59 283
60 110
61 86
62 26
63 83
64 65
65 189
66 50
67 1
68 2
70 55
71 63
72 156
73 567
74 202
75 245
76 80
77 187
78 97
79 85
80 12
81 19
82 35
83 15
84 6
85 48
86 31
87 58
88 60
89 139
90 2
91 234
92 126
93 61
99 5
100 77
101 60
102 103
103 176
104 96
105 119
106 36
107 115
115 113
116 128
117 156
118 78
119 66
120 118
121 157
122 68
123 65
128 28
129 158
130 397
131 295
132 56
133 100
134 85
135 319
136 81
137 36
146 12
147 34
148 74
149 197
150 230
151 322
152 47
153 6
161 57
162 42
163 430
164 19
165 68
175 115
176 92
177 217
178 99
179 273
180 37
181 71
189 40
190 9
191 112
192 103
193 999
194 459
195 142
205 117
206 73
207 95
208 31
220 104
221 89
222 819
223 272
224 129
225 39
250 7
264 142
265 74
266 45
267 40
279 143
280 59

$$$$

     RDKit          2D

 15 15  0  0  0  0  0  0  0  0999 V2000
    5.1970   -1.5006    0.0000 C   0  0  0  0  0  0  0  0  0  0  0  0
    3.8981   -0.7504    0.0000 C   0  0  0  0  0  0  0  0  0  0  0  0
   -1.3000    0.7500    0.0000 C   0  0  0  0  0  0  0  0  0  0  0  0
    0.0000    1.5000    0.0000 C   0  0  0  0  0  0  0  0  0  0  0  0
   -1.3000   -0.7500    0.0000 C   0  0  0  0  0  0  0  0  0  0  0  0
    1.3000    0.7500    0.0000 C   0  0  0  0  0  0  0  0  0  0  0  0
   -0.0000   -1.5000    0.0000 C   0  0  0  0  0  0  0  0  0  0  0  0
    1.3000   -0.7500    0.0000 C   0  0  0  0  0  0  0  0  0  0  0  0
   -2.5989    1.5002    0.0000 Cl  0  0  0  0  0  0  0  0  0  0  0  0
    0.0000    3.0000    0.0000 Cl  0  0  0  0  0  0  0  0  0  0  0  0
   -2.5989   -1.5002    0.0000 Cl  0  0  0  0  0  0  0  0  0  0  0  0
    2.5989    1.5002    0.0000 Cl  0  0  0  0  0  0  0  0  0  0  0  0
   -0.0000   -3.0000    0.0000 Cl  0  0  0  0  0  0  0  0  0  0  0  0
    3.8983    0.7496    0.0000 O   0  0  0  0  0  0  0  0  0  0  0  0
    2.5989   -1.5002    0.0000 O   0  0  0  0  0  0  0  0  0  0  0  0
  2  1  1  0
  4  3  2  0
  5  3  1  0
  6  4  1  0
  7  5  2  0
  8  6  2  0
  8  7  1  0
  9  3  1  0
 10  4  1  0
 11  5  1  0
 12  6  1  0
 13  7  1  0
 14  2  2  0
 15  2  1  0
 15  8  1  0
M  END
>  <NAME>  (2897) 
PENTACHLOROPHENYL ACETATE

>  <SYNONYMS>  (2897) 


>  <SPECTRUM TYPE>  (2897) 
MS1

>  <INSTRUMENT TYPE>  (2897) 
EI-B

>  <INSTRUMENT>  (2897) 
JEOL JMS-01-SG

>  <ION MODE>  (2897) 
P

>  <INCHIKEY>  (2897) 
RRYATXLRCBOQTJ-UHFFFAOYSA-N

>  <FORMULA>  (2897) 
C8H3Cl5O2

>  <EXACT MASS>  (2897) 
305.85756773599996

>  <MW>  (2897) 
306

>  <ID>  (2897) 
JP007528

>  <CONTRIBUTOR>  (2897) 
University of Tokyo Team, {Faculty of Engineering, University of Tokyo

>  <COMMENT>  (2897) 
SMILES=CC(=O)Oc(c(Cl)1)c(Cl)c(Cl)c(Cl)c(Cl)1
InChI=InChI=1S/C8H3Cl5O2/c1-2(14)15-8-6(12)4(10)3(9)5(11)7(8)13/h1H3
computed SMILES=O=C(OC=1C(Cl)=C(Cl)C(Cl)=C(Cl)C1Cl)C
accession=JP007528
date=2016.01.19 (Created 2008.10.21, modified 2011.05.06)
author=KOGA M, UNIV. OF OCCUPATIONAL AND ENVIRONMENTAL HEALTH
license=CC BY-NC-SA
exact mass=305.85757
ionization energy=70 eV
ion type=[M]+*
computed spectral entropy=2.883624729634841
computed normalized entropy=0.6834031197756728
SPLASH=splash10-0006-9260000000-a896652b8e19de9360f3
submitter=submitter = University of Tokyo Team (Faculty of Engineering, University of Tokyo)
MoNA Rating=3.75

>  <NUM PEAKS>  (2897) 
68

>  <MASS SPECTRAL PEAKS>  (2897) 
35 3.8
38 1.3
41 1.6
42 0.23
43 99.99
44 2
55 1.3
57 0.14
60 1.9
61 3.2
62 1.1
71 0.16
72 1
73 1.3
83 1.6
85 0.1
95 3.1
96 3.8
97 2.6
98 0.14
106 1.1
107 1.9
108 1.3
109 0.14
117 1
119 1
130 2.2
131 0.58
132 1.9
133 3.8
135 1
141 0.16
143 1.7
145 1
162 1
165 0.29
166 1.6
167 3.5
168 1.6
169 0.16
194 1.4
196 4.1
198 3.2
200 0.13
201 2.5
202 1
203 2.9
205 0.14
230 16
231 1.1
232 22
233 0.13
234 9.2
235 1.7
236 1.7
237 0.19
239 1.3
264 7.3
266 10.9
267 0.1
268 8
270 2.5
272 2.8
274 0.34
276 1.3
306 1.4
308 3.1
310 1.4

>  <PREDICTED SPECTRUM>  (2897) 
14 23
15 134
25 10
26 55
27 129
28 65
29 32
35 83
36 104
37 37
38 60
39 17
40 30
41 141
42 142
43 961
44 176
45 35
47 23
50 0
51 3
53 35
56 0
57 88
60 127
61 129
62 99
65 19
67 27
70 17
71 92
72 42
73 29
75 8
76 12
77 22
79 27
82 75
83 80
85 84
86 71
87 50
89 38
91 27
93 2
94 15
95 175
96 177
97 201
98 79
99 55
103 7
106 60
107 215
108 118
109 61
110 82
116 21
117 161
118 74
119 153
120 43
121 60
122 92
129 84
130 178
131 155
132 153
133 144
134 101
135 61
139 22
141 111
142 149
143 137
144 82
145 78
158 48
159 48
160 40
161 51
162 0
163 42
164 61
165 420
166 95
167 258
168 90
169 170
170 15
171 83
174 14
175 1
177 50
178 39
179 99
180 93
181 18
183 26
184 23
193 8
194 101
195 39
196 92
197 0
198 104
199 67
200 137
201 155
202 170
203 156
204 56
205 44
211 65
212 74
213 44
214 73
215 47
216 60
227 44
228 143
229 82
230 218
231 115
232 112
233 63
234 57
235 125
236 26
237 184
238 37
239 181
240 83
241 125
247 31
249 46
250 21
251 99
263 83
264 704
265 158
266 999
267 224
268 797
269 196
270 474
271 106
272 186
291 30
306 95
308 171
309 46
310 86
311 34

$$$$

     RDKit          2D

 14 14  0  0  0  0  0  0  0  0999 V2000
   -5.1970   -1.5006    0.0000 C   0  0  0  0  0  0  0  0  0  0  0  0
   -1.3000    0.7500    0.0000 C   0  0  0  0  0  0  0  0  0  0  0  0
   -3.8981   -0.7504    0.0000 C   0  0  0  0  0  0  0  0  0  0  0  0
    0.0000    1.5000    0.0000 C   0  0  0  0  0  0  0  0  0  0  0  0
   -1.3000   -0.7500    0.0000 C   0  0  0  0  0  0  0  0  0  0  0  0
    1.3000    0.7500    0.0000 C   0  0  0  0  0  0  0  0  0  0  0  0
   -0.0000   -1.5000    0.0000 C   0  0  0  0  0  0  0  0  0  0  0  0
    1.3000   -0.7500    0.0000 C   0  0  0  0  0  0  0  0  0  0  0  0
    0.0000    3.0000    0.0000 Cl  0  0  0  0  0  0  0  0  0  0  0  0
    2.5989    1.5002    0.0000 Cl  0  0  0  0  0  0  0  0  0  0  0  0
   -0.0000   -3.0000    0.0000 Cl  0  0  0  0  0  0  0  0  0  0  0  0
    2.5989   -1.5002    0.0000 Cl  0  0  0  0  0  0  0  0  0  0  0  0
   -3.8983    0.7496    0.0000 O   0  0  0  0  0  0  0  0  0  0  0  0
   -2.5989   -1.5002    0.0000 O   0  0  0  0  0  0  0  0  0  0  0  0
  3  1  1  0
  4  2  2  0
  5  2  1  0
  6  4  1  0
  7  5  2  0
  8  6  2  0
  8  7  1  0
  9  4  1  0
 10  6  1  0
 11  7  1  0
 12  8  1  0
 13  3  2  0
 14  3  1  0
 14  5  1  0
M  END
>  <NAME>  (2898) 
2,3,4,5-TETRACHLOROPHENYL ACETATE

>  <SYNONYMS>  (2898) 


>  <SPECTRUM TYPE>  (2898) 
MS1

>  <INSTRUMENT TYPE>  (2898) 
EI-B

>  <INSTRUMENT>  (2898) 
JEOL JMS-01-SG

>  <ION MODE>  (2898) 
P

>  <INCHIKEY>  (2898) 
QHRJCQOAJGBWRV-UHFFFAOYSA-N

>  <FORMULA>  (2898) 
C8H4Cl4O2

>  <EXACT MASS>  (2898) 
271.896540088

>  <MW>  (2898) 
272

>  <ID>  (2898) 
JP007527

>  <CONTRIBUTOR>  (2898) 
University of Tokyo Team, {Faculty of Engineering, University of Tokyo

>  <COMMENT>  (2898) 
SMILES=CC(=O)Oc(c1)c(Cl)c(Cl)c(Cl)c(Cl)1
InChI=InChI=1S/C8H4Cl4O2/c1-3(13)14-5-2-4(9)6(10)8(12)7(5)11/h2H,1H3
computed SMILES=O=C(OC1=CC(Cl)=C(Cl)C(Cl)=C1Cl)C
accession=JP007527
date=2016.01.19 (Created 2008.10.21, modified 2011.05.06)
author=KOGA M, UNIV. OF OCCUPATIONAL AND ENVIRONMENTAL HEALTH
license=CC BY-NC-SA
exact mass=271.89654
ionization energy=70 eV
ion type=[M]+*
computed spectral entropy=2.832168892491101
computed normalized entropy=0.6945782672637514
SPLASH=splash10-001l-7290000000-491c7690195523480b73
submitter=submitter = University of Tokyo Team (Faculty of Engineering, University of Tokyo)
MoNA Rating=3.75

>  <NUM PEAKS>  (2898) 
59

>  <MASS SPECTRAL PEAKS>  (2898) 
35 1.5
37 1.8
41 1.4
42 0.5
43 99.99
44 3.5
47 2
49 0.15
60 5
61 10.7
62 1.5
71 0.25
72 2.1
73 2
83 2.6
84 0.18
85 1.5
87 1.4
95 3.4
96 1.2
97 3.1
98 4.3
106 1.8
107 0.48
108 3.7
109 2.8
117 1.5
119 0.14
130 2
131 18.1
132 1.8
133 1
135 1.8
141 2.9
143 3.9
145 0.15
166 2.5
167 2.9
168 2.9
169 0.17
194 3.4
196 2.1
198 2.8
201 0.62
203 9.8
205 4.2
230 49.6
231 0.39
232 68.8
233 3.2
234 23.7
235 0.14
236 7.3
266 1.5
268 1.2
272 0.81
274 6.5
275 1.8
276 6.5

>  <PREDICTED SPECTRUM>  (2898) 
14 25
15 132
25 10
26 49
27 123
28 66
29 10
34 8
35 72
36 98
37 55
38 51
39 74
40 39
41 112
42 147
43 999
44 185
45 8
47 69
48 46
49 80
50 45
51 36
53 46
54 5
55 60
56 19
57 76
60 88
61 190
62 153
63 67
65 14
69 24
70 30
71 87
72 105
73 84
74 23
75 11
77 9
82 96
83 103
85 100
86 60
87 59
91 3
95 66
96 190
97 258
98 146
99 145
100 46
101 67
106 41
107 173
108 119
109 119
110 118
111 20
115 13
117 57
118 61
119 99
120 18
122 61
124 31
125 5
127 47
128 1
129 60
130 80
131 334
132 112
133 220
134 98
135 115
137 13
140 16
141 121
142 109
143 106
144 29
145 49
146 17
160 80
161 18
162 69
164 1
165 47
166 109
167 254
168 156
169 182
170 82
171 86
172 15
177 64
178 47
179 37
180 57
182 12
194 198
195 93
196 216
197 71
198 52
199 25
200 16
201 170
202 38
203 201
204 24
205 112
206 19
207 46
213 63
215 50
216 41
228 2
229 34
230 659
231 174
232 802
233 189
234 563
235 97
236 198
237 65
238 73
272 186
273 35
274 211
275 70
276 119
277 27

$$$$

     RDKit          2D

 14 14  0  0  0  0  0  0  0  0999 V2000
   -4.2219   -2.0625    0.0000 C   0  0  0  0  0  0  0  0  0  0  0  0
    0.9738    0.9383    0.0000 C   0  0  0  0  0  0  0  0  0  0  0  0
   -2.9228   -1.3125    0.0000 C   0  0  0  0  0  0  0  0  0  0  0  0
    2.2733    0.1875    0.0000 C   0  0  0  0  0  0  0  0  0  0  0  0
   -0.3252    0.1883    0.0000 C   0  0  0  0  0  0  0  0  0  0  0  0
    2.2738   -1.3133    0.0000 C   0  0  0  0  0  0  0  0  0  0  0  0
    0.9748   -2.0633    0.0000 C   0  0  0  0  0  0  0  0  0  0  0  0
   -0.3248   -1.3125    0.0000 C   0  0  0  0  0  0  0  0  0  0  0  0
    3.5724    0.9375    0.0000 Cl  0  0  0  0  0  0  0  0  0  0  0  0
   -1.6244    0.9381    0.0000 Cl  0  0  0  0  0  0  0  0  0  0  0  0
    3.5730   -2.0631    0.0000 Cl  0  0  0  0  0  0  0  0  0  0  0  0
    0.9745   -3.5633    0.0000 Cl  0  0  0  0  0  0  0  0  0  0  0  0
   -2.9228    0.1875    0.0000 O   0  0  0  0  0  0  0  0  0  0  0  0
   -1.6238   -2.0625    0.0000 O   0  0  0  0  0  0  0  0  0  0  0  0
  3  1  1  0
  4  2  2  0
  5  2  1  0
  6  4  1  0
  7  6  2  0
  8  5  2  0
  8  7  1  0
  9  4  1  0
 10  5  1  0
 11  6  1  0
 12  7  1  0
 13  3  2  0
 14  3  1  0
 14  8  1  0
M  END
>  <NAME>  (2899) 
2,3,4,6-TETRACHLOROPHENYL ACETATE

>  <SYNONYMS>  (2899) 


>  <SPECTRUM TYPE>  (2899) 
MS1

>  <INSTRUMENT TYPE>  (2899) 
EI-B

>  <INSTRUMENT>  (2899) 
JEOL JMS-01-SG

>  <ION MODE>  (2899) 
P

>  <INCHIKEY>  (2899) 
RHZFLXLMXCNOHX-UHFFFAOYSA-N

>  <FORMULA>  (2899) 
C8H4Cl4O2

>  <EXACT MASS>  (2899) 
271.896540088

>  <MW>  (2899) 
272

>  <ID>  (2899) 
JP007526

>  <CONTRIBUTOR>  (2899) 
University of Tokyo Team, {Faculty of Engineering, University of Tokyo

>  <COMMENT>  (2899) 
SMILES=CC(=O)Oc(c(Cl)1)c(Cl)c(Cl)c(Cl)c1
InChI=InChI=1S/C8H4Cl4O2/c1-3(13)14-8-5(10)2-4(9)6(11)7(8)12/h2H,1H3
computed SMILES=O=C(OC=1C(Cl)=CC(Cl)=C(Cl)C1Cl)C
accession=JP007526
date=2016.01.19 (Created 2008.10.21, modified 2011.05.06)
author=KOGA M, UNIV. OF OCCUPATIONAL AND ENVIRONMENTAL HEALTH
license=CC BY-NC-SA
exact mass=271.89654
ionization energy=70 eV
ion type=[M]+*
computed spectral entropy=2.422353496666945
computed normalized entropy=0.6363457498994352
SPLASH=splash10-000x-8290000000-6c835a35dba5c217f713
submitter=submitter = University of Tokyo Team (Faculty of Engineering, University of Tokyo)
MoNA Rating=3.75

>  <NUM PEAKS>  (2899) 
45

>  <MASS SPECTRAL PEAKS>  (2899) 
38 1.9
42 2.2
43 99.99
44 0.34
60 1.3
61 2.8
71 1.1
83 0.13
85 1
95 1.5
96 3.6
97 0.13
98 1.1
106 1
107 2.1
108 0.11
109 1.1
130 1.1
131 5.9
132 0.11
133 4
141 1.1
143 1.7
165 0.11
166 2.3
167 2
168 2.1
169 0.1
194 1.8
196 3.9
199 2.2
201 0.28
203 3.6
205 1.8
230 32
231 0.31
232 39.8
233 3.1
234 19.3
235 0.18
236 4.1
237 1
272 8.5
274 1.04
276 5

>  <PREDICTED SPECTRUM>  (2899) 
14 18
15 126
25 10
26 49
27 111
28 55
35 75
36 117
37 70
38 74
39 63
40 29
41 156
42 141
43 905
44 153
45 5
47 68
48 39
49 73
50 66
51 53
53 28
55 57
56 7
57 78
60 147
61 207
62 160
63 92
65 26
69 25
70 6
71 57
72 134
73 132
74 72
75 56
76 15
77 10
82 30
83 88
84 36
85 90
86 55
87 103
89 5
91 36
92 4
95 78
96 199
97 235
98 138
99 117
100 37
101 39
103 11
106 45
107 207
108 146
109 164
110 139
111 31
115 6
117 47
118 49
119 144
120 48
122 51
124 71
125 32
127 57
128 9
129 37
130 119
131 404
132 148
133 304
134 101
135 151
136 16
137 21
139 1
140 23
141 120
142 123
143 136
144 32
145 101
146 40
147 18
150 5
154 2
159 18
160 80
161 64
162 95
163 24
164 64
165 118
166 124
167 244
168 170
169 217
170 99
171 105
177 14
178 51
179 66
180 91
181 47
182 103
194 188
195 158
196 208
197 105
198 62
199 41
200 19
201 217
202 83
203 249
204 62
205 152
206 29
207 84
210 33
215 56
216 39
217 56
229 25
230 741
231 185
232 999
233 256
234 750
235 184
236 378
237 103
238 134
272 168
273 33
274 217
275 72
276 148
277 35

$$$$

     RDKit          2D

 14 14  0  0  0  0  0  0  0  0999 V2000
    5.1970   -1.5006    0.0000 C   0  0  0  0  0  0  0  0  0  0  0  0
   -1.3000    0.7500    0.0000 C   0  0  0  0  0  0  0  0  0  0  0  0
    3.8981   -0.7504    0.0000 C   0  0  0  0  0  0  0  0  0  0  0  0
    0.0000    1.5000    0.0000 C   0  0  0  0  0  0  0  0  0  0  0  0
   -1.3000   -0.7500    0.0000 C   0  0  0  0  0  0  0  0  0  0  0  0
    1.3000    0.7500    0.0000 C   0  0  0  0  0  0  0  0  0  0  0  0
   -0.0000   -1.5000    0.0000 C   0  0  0  0  0  0  0  0  0  0  0  0
    1.3000   -0.7500    0.0000 C   0  0  0  0  0  0  0  0  0  0  0  0
    0.0000    3.0000    0.0000 Cl  0  0  0  0  0  0  0  0  0  0  0  0
   -2.5989   -1.5002    0.0000 Cl  0  0  0  0  0  0  0  0  0  0  0  0
    2.5989    1.5002    0.0000 Cl  0  0  0  0  0  0  0  0  0  0  0  0
   -0.0000   -3.0000    0.0000 Cl  0  0  0  0  0  0  0  0  0  0  0  0
    3.8983    0.7496    0.0000 O   0  0  0  0  0  0  0  0  0  0  0  0
    2.5989   -1.5002    0.0000 O   0  0  0  0  0  0  0  0  0  0  0  0
  3  1  1  0
  4  2  2  0
  5  2  1  0
  6  4  1  0
  7  5  2  0
  8  6  2  0
  8  7  1  0
  9  4  1  0
 10  5  1  0
 11  6  1  0
 12  7  1  0
 13  3  2  0
 14  3  1  0
 14  8  1  0
M  END
>  <NAME>  (2900) 
2,3,5,6-TETRACHLOROPHENYL ACETATE

>  <SYNONYMS>  (2900) 


>  <SPECTRUM TYPE>  (2900) 
MS1

>  <INSTRUMENT TYPE>  (2900) 
EI-B

>  <INSTRUMENT>  (2900) 
JEOL JMS-01-SG

>  <ION MODE>  (2900) 
P

>  <INCHIKEY>  (2900) 
NHBOZDKIYJWIIT-UHFFFAOYSA-N

>  <FORMULA>  (2900) 
C8H4Cl4O2

>  <EXACT MASS>  (2900) 
271.896540088

>  <MW>  (2900) 
272

>  <ID>  (2900) 
JP007525

>  <CONTRIBUTOR>  (2900) 
University of Tokyo Team, {Faculty of Engineering, University of Tokyo

>  <COMMENT>  (2900) 
SMILES=CC(=O)Oc(c(Cl)1)c(Cl)c(Cl)cc(Cl)1
InChI=InChI=1S/C8H4Cl4O2/c1-3(13)14-8-6(11)4(9)2-5(10)7(8)12/h2H,1H3
computed SMILES=O=C(OC=1C(Cl)=C(Cl)C=C(Cl)C1Cl)C
accession=JP007525
date=2016.01.19 (Created 2008.10.21, modified 2011.05.06)
author=KOGA M, UNIV. OF OCCUPATIONAL AND ENVIRONMENTAL HEALTH
license=CC BY-NC-SA
exact mass=271.89654
ionization energy=70 eV
ion type=[M]+*
computed spectral entropy=2.6905575543615967
computed normalized entropy=0.6776724767208417
SPLASH=splash10-0006-9240000000-328f8a921cf206edc915
submitter=submitter = University of Tokyo Team (Faculty of Engineering, University of Tokyo)
MoNA Rating=3.75

>  <NUM PEAKS>  (2900) 
53

>  <MASS SPECTRAL PEAKS>  (2900) 
35 1.5
37 2.6
41 1.4
42 0.47
43 99.99
44 2.3
47 1.7
49 0.11
60 3.3
61 7
71 1.5
72 0.27
73 1.6
74 1
83 2.1
84 0.14
85 1.4
87 1.5
95 3.3
96 0.89
97 2.8
98 3.1
106 1.1
107 0.46
108 2.8
109 3.1
130 1.4
131 1.22
132 1.4
133 7.8
135 1.5
141 0.16
143 2.6
145 1.6
166 2.3
167 0.13
168 2.2
169 1.1
194 1.9
196 0.21
198 1
201 5.9
203 8.4
205 0.39
230 15.8
231 2
232 20.5
233 0.17
234 10
236 2.2
272 4.7
274 0.62
276 2.8

>  <PREDICTED SPECTRUM>  (2900) 
14 20
15 123
25 6
26 49
27 111
28 39
34 5
35 72
36 117
37 47
38 61
39 20
40 21
41 109
42 133
43 999
44 157
45 49
47 46
48 39
49 61
50 40
51 28
53 36
55 45
57 51
60 81
61 198
62 152
63 48
65 12
69 5
70 21
71 57
72 111
73 97
74 24
75 7
77 5
82 83
83 45
84 1
86 2
87 61
91 12
95 90
96 185
97 199
98 130
99 92
100 12
101 39
105 14
106 33
107 253
108 173
109 142
110 72
117 6
118 7
119 109
122 44
124 56
127 8
129 36
130 110
131 318
132 103
133 268
134 77
135 129
141 76
142 31
143 101
144 6
145 70
150 14
151 22
160 42
162 7
165 31
166 71
167 263
168 181
169 204
170 54
171 103
177 40
178 0
179 43
180 1
182 33
194 156
195 113
196 209
197 77
198 52
199 68
200 32
201 191
202 57
203 189
204 39
205 165
206 47
207 64
210 14
215 70
216 45
217 65
228 33
229 15
230 622
231 148
232 845
233 192
234 573
235 110
236 258
237 62
238 89
272 212
273 46
274 226
275 82
276 151
277 43

$$$$

     RDKit          2D

 13 13  0  0  0  0  0  0  0  0999 V2000
    4.2219    0.1875    0.0000 C   0  0  0  0  0  0  0  0  0  0  0  0
    0.3252    2.4383    0.0000 C   0  0  0  0  0  0  0  0  0  0  0  0
   -0.9748    0.1867    0.0000 C   0  0  0  0  0  0  0  0  0  0  0  0
    2.9228    0.9375    0.0000 C   0  0  0  0  0  0  0  0  0  0  0  0
    0.3248    0.9375    0.0000 C   0  0  0  0  0  0  0  0  0  0  0  0
   -0.9738    3.1883    0.0000 C   0  0  0  0  0  0  0  0  0  0  0  0
   -2.2738    0.9367    0.0000 C   0  0  0  0  0  0  0  0  0  0  0  0
   -2.2733    2.4375    0.0000 C   0  0  0  0  0  0  0  0  0  0  0  0
   -0.9740    4.6883    0.0000 Cl  0  0  0  0  0  0  0  0  0  0  0  0
   -3.5730    0.1869    0.0000 Cl  0  0  0  0  0  0  0  0  0  0  0  0
   -3.5724    3.1875    0.0000 Cl  0  0  0  0  0  0  0  0  0  0  0  0
    2.9228    2.4375    0.0000 O   0  0  0  0  0  0  0  0  0  0  0  0
    1.6238    0.1875    0.0000 O   0  0  0  0  0  0  0  0  0  0  0  0
  4  1  1  0
  5  2  2  0
  5  3  1  0
  6  2  1  0
  7  3  2  0
  8  6  2  0
  8  7  1  0
  9  6  1  0
 10  7  1  0
 11  8  1  0
 12  4  2  0
 13  4  1  0
 13  5  1  0
M  END
>  <NAME>  (2901) 
3,4,5-TRICHLOROPHENYL ACETATE

>  <SYNONYMS>  (2901) 


>  <SPECTRUM TYPE>  (2901) 
MS1

>  <INSTRUMENT TYPE>  (2901) 
EI-B

>  <INSTRUMENT>  (2901) 
JEOL JMS-01-SG

>  <ION MODE>  (2901) 
P

>  <INCHIKEY>  (2901) 
XVARLELSNCXVLM-UHFFFAOYSA-N

>  <FORMULA>  (2901) 
C8H5Cl3O2

>  <EXACT MASS>  (2901) 
237.93551244

>  <MW>  (2901) 
238

>  <ID>  (2901) 
JP007524

>  <CONTRIBUTOR>  (2901) 
University of Tokyo Team, {Faculty of Engineering, University of Tokyo

>  <COMMENT>  (2901) 
SMILES=CC(=O)Oc(c1)cc(Cl)c(Cl)c(Cl)1
InChI=InChI=1S/C8H5Cl3O2/c1-4(12)13-5-2-6(9)8(11)7(10)3-5/h2-3H,1H3
computed SMILES=O=C(OC1=CC(Cl)=C(Cl)C(Cl)=C1)C
accession=JP007524
date=2016.01.19 (Created 2008.10.21, modified 2011.05.06)
author=KOGA M, UNIV. OF OCCUPATIONAL AND ENVIRONMENTAL HEALTH
license=CC BY-NC-SA
exact mass=237.93551
ionization energy=70 eV
ion type=[M]+*
computed spectral entropy=2.459014605267667
computed normalized entropy=0.6579004717910406
SPLASH=splash10-0006-9310000000-008b033dbb49f6a642ca
submitter=submitter = University of Tokyo Team (Faculty of Engineering, University of Tokyo)
MoNA Rating=3.75

>  <NUM PEAKS>  (2901) 
42

>  <MASS SPECTRAL PEAKS>  (2901) 
35 3.1
37 1.8
38 1
42 0.3
43 99.99
44 2.5
49 1
60 0.14
61 6.1
62 9.2
63 1.5
72 0.22
73 3.4
74 2.2
83 2.1
84 0.11
85 1.3
96 2.3
97 13.2
98 0.12
99 4.2
107 3.5
108 1.1
109 0.28
132 2.2
133 4.3
134 1.8
135 0.26
160 2.2
162 2
167 5.1
169 0.46
171 1.2
196 33.4
197 2.7
198 3.25
199 2.3
200 10.2
202 1
238 0.68
240 6.6
242 2.1

>  <PREDICTED SPECTRUM>  (2901) 
14 19
15 143
25 11
26 56
27 157
28 107
29 48
33 1
34 9
35 79
36 104
37 90
38 91
39 107
40 69
41 158
42 165
43 999
44 149
45 10
47 72
48 21
49 107
50 74
51 37
53 61
54 19
57 34
60 135
61 195
62 219
63 165
64 58
65 28
66 34
67 12
71 53
72 140
73 165
74 179
75 101
76 12
81 17
82 76
83 126
84 98
85 112
86 116
87 103
89 9
90 10
91 14
93 32
94 2
95 44
96 145
97 388
98 199
99 235
100 79
101 113
103 3
106 50
107 218
108 164
109 260
110 135
111 140
112 60
113 12
117 31
118 40
119 50
120 52
121 13
122 39
123 9
124 7
125 42
126 92
127 22
128 86
129 37
130 93
131 79
132 181
133 270
134 191
135 182
136 142
137 109
138 17
141 37
143 159
144 123
145 119
146 73
147 34
148 61
160 195
161 150
162 244
163 88
164 77
165 18
167 285
168 44
169 262
170 24
171 181
179 74
181 86
182 26
195 87
196 922
197 250
198 935
199 217
200 541
201 116
202 159
203 31
204 51
238 243
239 66
240 249
241 89
242 146
243 60

$$$$

     RDKit          2D

 13 13  0  0  0  0  0  0  0  0999 V2000
   -3.8978    1.5007    0.0000 C   0  0  0  0  0  0  0  0  0  0  0  0
    1.2994   -1.5004    0.0000 C   0  0  0  0  0  0  0  0  0  0  0  0
   -0.0001   -0.7495    0.0000 C   0  0  0  0  0  0  0  0  0  0  0  0
   -2.5986    0.7509    0.0000 C   0  0  0  0  0  0  0  0  0  0  0  0
    2.5985   -0.7504    0.0000 C   0  0  0  0  0  0  0  0  0  0  0  0
   -0.0006    0.7513    0.0000 C   0  0  0  0  0  0  0  0  0  0  0  0
    2.5980    0.7505    0.0000 C   0  0  0  0  0  0  0  0  0  0  0  0
    1.2985    1.5013    0.0000 C   0  0  0  0  0  0  0  0  0  0  0  0
    3.8976   -1.5002    0.0000 Cl  0  0  0  0  0  0  0  0  0  0  0  0
    3.8970    1.5005    0.0000 Cl  0  0  0  0  0  0  0  0  0  0  0  0
    1.2987    3.0013    0.0000 Cl  0  0  0  0  0  0  0  0  0  0  0  0
   -2.5984   -0.7491    0.0000 O   0  0  0  0  0  0  0  0  0  0  0  0
   -1.2997    1.5011    0.0000 O   0  0  0  0  0  0  0  0  0  0  0  0
  3  2  2  0
  4  1  1  0
  5  2  1  0
  6  3  1  0
  7  5  2  0
  8  6  2  0
  8  7  1  0
  9  5  1  0
 10  7  1  0
 11  8  1  0
 12  4  2  0
 13  4  1  0
 13  6  1  0
M  END
>  <NAME>  (2902) 
2,3,4-TRICHLOROPHENYL ACETATE

>  <SYNONYMS>  (2902) 


>  <SPECTRUM TYPE>  (2902) 
MS1

>  <INSTRUMENT TYPE>  (2902) 
EI-B

>  <INSTRUMENT>  (2902) 
JEOL JMS-01-SG

>  <ION MODE>  (2902) 
P

>  <INCHIKEY>  (2902) 
PCXZOWRGWZCTLG-UHFFFAOYSA-N

>  <FORMULA>  (2902) 
C8H5Cl3O2

>  <EXACT MASS>  (2902) 
237.93551244

>  <MW>  (2902) 
238

>  <ID>  (2902) 
JP007523

>  <CONTRIBUTOR>  (2902) 
University of Tokyo Team, {Faculty of Engineering, University of Tokyo

>  <COMMENT>  (2902) 
SMILES=CC(=O)Oc(c1)c(Cl)c(Cl)c(Cl)c1
InChI=InChI=1S/C8H5Cl3O2/c1-4(12)13-6-3-2-5(9)7(10)8(6)11/h2-3H,1H3
computed SMILES=O=C(OC1=CC=C(Cl)C(Cl)=C1Cl)C
accession=JP007523
date=2016.01.19 (Created 2008.10.21, modified 2011.05.06)
author=KOGA M, UNIV. OF OCCUPATIONAL AND ENVIRONMENTAL HEALTH
license=CC BY-NC-SA
exact mass=237.93551
ionization energy=70 eV
ion type=[M]+*
computed spectral entropy=2.891767121336633
computed normalized entropy=0.7152437428490629
SPLASH=splash10-0007-9500000000-17d02191ca27fb8ebc73
submitter=submitter = University of Tokyo Team (Faculty of Engineering, University of Tokyo)
MoNA Rating=3.75

>  <NUM PEAKS>  (2902) 
57

>  <MASS SPECTRAL PEAKS>  (2902) 
35 1.3
36 2.7
38 1.5
41 0.15
42 5.6
43 99.99
44 2.1
47 0.14
48 1
49 1.5
50 1.3
60 0.17
61 10.8
62 11.1
63 2.6
71 0.32
72 2.3
73 5.7
74 3.3
75 0.14
83 2.9
84 1.6
85 2
87 0.11
96 5.3
97 22.4
98 2.8
99 0.7
106 2.7
107 5
108 2.7
109 0.46
111 1.1
131 1.6
132 4
133 0.35
134 2.6
135 1.5
141 1
143 0.13
145 1
160 6.2
161 1
162 0.45
167 9.6
169 9.6
171 2.9
195 0.2
196 34.4
197 4.1
198 32.8
199 0.25
200 10.7
202 1
238 6.6
240 0.63
242 2

>  <PREDICTED SPECTRUM>  (2902) 
14 27
15 146
25 8
26 47
27 133
28 108
29 34
35 69
36 93
37 83
38 74
39 82
40 38
41 65
42 131
43 910
44 161
45 16
47 86
48 39
49 105
50 74
51 54
52 25
53 35
55 1
56 3
60 110
61 211
62 190
63 199
64 55
65 29
66 15
67 2
69 11
71 93
72 142
73 210
74 179
75 82
76 27
77 15
81 1
82 14
83 116
84 67
85 100
86 78
87 131
90 12
91 21
95 25
96 155
97 395
98 207
99 263
100 103
101 108
106 78
107 173
108 117
109 185
110 120
111 114
112 34
116 9
117 52
118 15
119 57
120 33
122 16
123 9
125 58
126 203
127 86
128 147
129 11
130 61
131 146
132 121
133 222
134 157
135 197
136 96
137 74
141 31
143 130
144 100
145 117
146 109
148 33
159 4
160 242
161 197
162 248
163 153
164 69
165 10
167 245
168 34
169 228
170 46
171 113
179 106
181 75
182 7
183 7
195 98
196 926
197 285
198 999
199 246
200 615
201 117
202 178
203 85
204 42
238 191
239 29
240 208
241 59
242 82
243 40

$$$$

     RDKit          2D

 13 13  0  0  0  0  0  0  0  0999 V2000
    4.2219    0.1875    0.0000 C   0  0  0  0  0  0  0  0  0  0  0  0
   -2.2738    0.9367    0.0000 C   0  0  0  0  0  0  0  0  0  0  0  0
    0.3252    2.4383    0.0000 C   0  0  0  0  0  0  0  0  0  0  0  0
    2.9228    0.9375    0.0000 C   0  0  0  0  0  0  0  0  0  0  0  0
   -2.2733    2.4375    0.0000 C   0  0  0  0  0  0  0  0  0  0  0  0
   -0.9738    3.1883    0.0000 C   0  0  0  0  0  0  0  0  0  0  0  0
   -0.9748    0.1867    0.0000 C   0  0  0  0  0  0  0  0  0  0  0  0
    0.3248    0.9375    0.0000 C   0  0  0  0  0  0  0  0  0  0  0  0
   -3.5724    3.1875    0.0000 Cl  0  0  0  0  0  0  0  0  0  0  0  0
   -0.9740    4.6883    0.0000 Cl  0  0  0  0  0  0  0  0  0  0  0  0
   -0.9745   -1.3133    0.0000 Cl  0  0  0  0  0  0  0  0  0  0  0  0
    2.9228    2.4375    0.0000 O   0  0  0  0  0  0  0  0  0  0  0  0
    1.6238    0.1875    0.0000 O   0  0  0  0  0  0  0  0  0  0  0  0
  4  1  1  0
  5  2  2  0
  6  3  2  0
  6  5  1  0
  7  2  1  0
  8  3  1  0
  8  7  2  0
  9  5  1  0
 10  6  1  0
 11  7  1  0
 12  4  2  0
 13  4  1  0
 13  8  1  0
M  END
>  <NAME>  (2903) 
2,4,5-TRICHLOROPHENYL ACETATE

>  <SYNONYMS>  (2903) 


>  <SPECTRUM TYPE>  (2903) 
MS1

>  <INSTRUMENT TYPE>  (2903) 
EI-B

>  <INSTRUMENT>  (2903) 
JEOL JMS-01-SG

>  <ION MODE>  (2903) 
P

>  <INCHIKEY>  (2903) 
IRMIPIZHLIHQST-UHFFFAOYSA-N

>  <FORMULA>  (2903) 
C8H5Cl3O2

>  <EXACT MASS>  (2903) 
237.93551244

>  <MW>  (2903) 
238

>  <ID>  (2903) 
JP007522

>  <CONTRIBUTOR>  (2903) 
University of Tokyo Team, {Faculty of Engineering, University of Tokyo

>  <COMMENT>  (2903) 
SMILES=CC(=O)Oc(c1)c(Cl)cc(Cl)c(Cl)1
InChI=InChI=1S/C8H5Cl3O2/c1-4(12)13-8-3-6(10)5(9)2-7(8)11/h2-3H,1H3
computed SMILES=O=C(OC1=CC(Cl)=C(Cl)C=C1Cl)C
accession=JP007522
date=2016.01.19 (Created 2008.10.21, modified 2011.05.06)
author=KOGA M, UNIV. OF OCCUPATIONAL AND ENVIRONMENTAL HEALTH
license=CC BY-NC-SA
exact mass=237.93551
ionization energy=70 eV
ion type=[M]+*
computed spectral entropy=2.4266551808981065
computed normalized entropy=0.6451810874866554
SPLASH=splash10-0007-9520000000-bc54445adb6ddadb6793
submitter=submitter = University of Tokyo Team (Faculty of Engineering, University of Tokyo)
MoNA Rating=3.75

>  <NUM PEAKS>  (2903) 
43

>  <MASS SPECTRAL PEAKS>  (2903) 
42 2.2
43 99.99
44 2
49 0.1
50 1
53 1
60 1.3
61 0.49
62 6.9
63 1.2
72 2.6
73 0.3
74 2.1
83 2.1
85 1.3
96 0.21
97 12.8
98 1.2
99 4
107 0.45
108 1.1
109 3.5
131 1
132 0.38
133 3
134 2.6
135 1.5
160 0.11
161 1
162 1.2
167 5.5
169 0.53
171 1.5
196 50.3
197 4
198 4.85
199 3.4
200 15.8
201 1
202 0.13
238 8.8
240 8.6
242 2.6

>  <PREDICTED SPECTRUM>  (2903) 
14 17
15 141
25 5
26 49
27 143
28 101
29 43
34 3
35 80
36 89
37 79
38 80
39 99
40 66
41 172
42 161
43 921
44 165
47 65
48 26
49 86
50 59
51 14
53 35
60 117
61 210
62 206
63 176
64 32
65 19
66 29
69 11
71 65
72 115
73 194
74 173
75 80
76 14
82 12
83 125
84 113
85 90
86 142
87 142
95 25
96 184
97 443
98 212
99 287
100 142
101 143
106 44
107 189
108 150
109 226
110 134
111 159
112 67
117 0
119 8
120 43
122 13
123 23
125 59
126 194
127 63
128 142
129 9
130 45
131 162
132 205
133 291
134 198
135 170
136 95
137 76
143 132
144 112
145 82
146 47
147 19
148 33
160 153
161 135
162 259
163 117
164 127
165 16
167 278
168 81
169 271
170 86
171 203
179 57
180 17
181 46
195 119
196 895
197 251
198 999
199 239
200 622
201 131
202 204
203 87
204 55
238 217
239 42
240 216
241 60
242 108
243 36

$$$$

     RDKit          2D

 13 13  0  0  0  0  0  0  0  0999 V2000
    5.1970   -1.5006    0.0000 C   0  0  0  0  0  0  0  0  0  0  0  0
   -1.3000    0.7500    0.0000 C   0  0  0  0  0  0  0  0  0  0  0  0
    1.3000    0.7500    0.0000 C   0  0  0  0  0  0  0  0  0  0  0  0
    3.8981   -0.7504    0.0000 C   0  0  0  0  0  0  0  0  0  0  0  0
    0.0000    1.5000    0.0000 C   0  0  0  0  0  0  0  0  0  0  0  0
   -1.3000   -0.7500    0.0000 C   0  0  0  0  0  0  0  0  0  0  0  0
    1.3000   -0.7500    0.0000 C   0  0  0  0  0  0  0  0  0  0  0  0
   -0.0000   -1.5000    0.0000 C   0  0  0  0  0  0  0  0  0  0  0  0
    0.0000    3.0000    0.0000 Cl  0  0  0  0  0  0  0  0  0  0  0  0
   -2.5989   -1.5002    0.0000 Cl  0  0  0  0  0  0  0  0  0  0  0  0
   -0.0000   -3.0000    0.0000 Cl  0  0  0  0  0  0  0  0  0  0  0  0
    3.8983    0.7496    0.0000 O   0  0  0  0  0  0  0  0  0  0  0  0
    2.5989   -1.5002    0.0000 O   0  0  0  0  0  0  0  0  0  0  0  0
  4  1  1  0
  5  2  2  0
  5  3  1  0
  6  2  1  0
  7  3  2  0
  8  6  2  0
  8  7  1  0
  9  5  1  0
 10  6  1  0
 11  8  1  0
 12  4  2  0
 13  4  1  0
 13  7  1  0
M  END
>  <NAME>  (2904) 
2,3,5-TRICHLOROPHENYL ACETATE

>  <SYNONYMS>  (2904) 


>  <SPECTRUM TYPE>  (2904) 
MS1

>  <INSTRUMENT TYPE>  (2904) 
EI-B

>  <INSTRUMENT>  (2904) 
JEOL JMS-01-SG

>  <ION MODE>  (2904) 
P

>  <INCHIKEY>  (2904) 
YHKQUZSHMROARS-UHFFFAOYSA-N

>  <FORMULA>  (2904) 
C8H5Cl3O2

>  <EXACT MASS>  (2904) 
237.93551244

>  <MW>  (2904) 
238

>  <ID>  (2904) 
JP007521

>  <CONTRIBUTOR>  (2904) 
University of Tokyo Team, {Faculty of Engineering, University of Tokyo

>  <COMMENT>  (2904) 
SMILES=CC(=O)Oc(c1)c(Cl)c(Cl)cc(Cl)1
InChI=InChI=1S/C8H5Cl3O2/c1-4(12)13-7-3-5(9)2-6(10)8(7)11/h2-3H,1H3
computed SMILES=O=C(OC=1C=C(Cl)C=C(Cl)C1Cl)C
accession=JP007521
date=2016.01.19 (Created 2008.10.21, modified 2011.05.06)
author=KOGA M, UNIV. OF OCCUPATIONAL AND ENVIRONMENTAL HEALTH
license=CC BY-NC-SA
exact mass=237.93551
ionization energy=70 eV
ion type=[M]+*
computed spectral entropy=2.189233964602236
computed normalized entropy=0.597569844884429
SPLASH=splash10-0006-9310000000-531f77f27a53d2269f40
submitter=submitter = University of Tokyo Team (Faculty of Engineering, University of Tokyo)
MoNA Rating=3.75

>  <NUM PEAKS>  (2904) 
39

>  <MASS SPECTRAL PEAKS>  (2904) 
35 1.9
37 1.8
38 0.8
42 0.24
43 99.99
44 2.6
60 1.1
61 0.36
62 4.6
63 1.2
72 1.4
73 0.21
74 1.5
83 1.4
85 1.1
96 0.15
97 8.3
98 1.1
99 2.8
107 0.22
109 1.7
132 1.2
133 1.4
134 0.09
135 0.7
160 3.1
162 2.4
167 0.37
169 2.9
171 1.1
196 20
197 0.12
198 18.5
199 1.2
200 6.3
202 0.02
238 5.3
240 5.3
242 1.4

>  <PREDICTED SPECTRUM>  (2904) 
14 17
15 147
25 3
26 42
27 151
28 101
29 38
34 3
35 81
36 101
37 81
38 90
39 93
40 72
41 175
42 171
43 999
44 180
45 23
47 64
48 29
49 91
50 66
51 25
53 57
54 19
57 7
59 24
60 132
61 191
62 208
63 160
64 27
65 18
66 31
67 24
69 7
71 74
72 136
73 185
74 179
75 110
76 19
82 54
83 147
84 111
85 82
86 92
87 69
89 33
90 21
93 10
95 54
96 141
97 443
98 214
99 275
100 102
101 146
106 57
107 215
108 136
109 236
110 118
111 139
112 54
117 24
118 30
119 43
120 30
121 18
122 25
123 9
124 3
125 103
126 117
127 53
128 79
130 49
131 89
132 180
133 264
134 203
135 168
136 146
137 75
141 12
143 122
144 101
145 75
146 63
147 18
148 32
160 214
161 145
162 243
163 68
164 89
165 2
166 4
167 310
168 71
169 270
170 58
171 218
172 5
179 122
180 35
181 121
182 18
183 17
195 122
196 893
197 259
198 914
199 222
200 498
201 120
202 168
203 91
204 59
223 10
238 211
239 56
240 220
241 66
242 121
243 40

$$$$

     RDKit          2D

 13 13  0  0  0  0  0  0  0  0999 V2000
    5.1970   -1.5006    0.0000 C   0  0  0  0  0  0  0  0  0  0  0  0
   -1.3000    0.7500    0.0000 C   0  0  0  0  0  0  0  0  0  0  0  0
    0.0000    1.5000    0.0000 C   0  0  0  0  0  0  0  0  0  0  0  0
    3.8981   -0.7504    0.0000 C   0  0  0  0  0  0  0  0  0  0  0  0
   -1.3000   -0.7500    0.0000 C   0  0  0  0  0  0  0  0  0  0  0  0
    1.3000    0.7500    0.0000 C   0  0  0  0  0  0  0  0  0  0  0  0
   -0.0000   -1.5000    0.0000 C   0  0  0  0  0  0  0  0  0  0  0  0
    1.3000   -0.7500    0.0000 C   0  0  0  0  0  0  0  0  0  0  0  0
   -2.5989   -1.5002    0.0000 Cl  0  0  0  0  0  0  0  0  0  0  0  0
    2.5989    1.5002    0.0000 Cl  0  0  0  0  0  0  0  0  0  0  0  0
   -0.0000   -3.0000    0.0000 Cl  0  0  0  0  0  0  0  0  0  0  0  0
    3.8983    0.7496    0.0000 O   0  0  0  0  0  0  0  0  0  0  0  0
    2.5989   -1.5002    0.0000 O   0  0  0  0  0  0  0  0  0  0  0  0
  3  2  2  0
  4  1  1  0
  5  2  1  0
  6  3  1  0
  7  5  2  0
  8  6  2  0
  8  7  1  0
  9  5  1  0
 10  6  1  0
 11  7  1  0
 12  4  2  0
 13  4  1  0
 13  8  1  0
M  END
>  <NAME>  (2905) 
2,3,6-TRICHLOROPHENYL ACETATE

>  <SYNONYMS>  (2905) 


>  <SPECTRUM TYPE>  (2905) 
MS1

>  <INSTRUMENT TYPE>  (2905) 
EI-B

>  <INSTRUMENT>  (2905) 
JEOL JMS-01-SG

>  <ION MODE>  (2905) 
P

>  <INCHIKEY>  (2905) 
NIXCFOKFBOFURO-UHFFFAOYSA-N

>  <FORMULA>  (2905) 
C8H5Cl3O2

>  <EXACT MASS>  (2905) 
237.93551244

>  <MW>  (2905) 
238

>  <ID>  (2905) 
JP007520

>  <CONTRIBUTOR>  (2905) 
University of Tokyo Team, {Faculty of Engineering, University of Tokyo

>  <COMMENT>  (2905) 
SMILES=CC(=O)Oc(c(Cl)1)c(Cl)c(Cl)cc1
InChI=InChI=1S/C8H5Cl3O2/c1-4(12)13-8-6(10)3-2-5(9)7(8)11/h2-3H,1H3
computed SMILES=O=C(OC=1C(Cl)=CC=C(Cl)C1Cl)C
accession=JP007520
date=2016.01.19 (Created 2008.10.21, modified 2011.05.06)
author=KOGA M, UNIV. OF OCCUPATIONAL AND ENVIRONMENTAL HEALTH
license=CC BY-NC-SA
exact mass=237.93551
ionization energy=70 eV
ion type=[M]+*
computed spectral entropy=2.8111168772180517
computed normalized entropy=0.6865853214103677
SPLASH=splash10-0006-9300000000-c476c4ef7c1b7808214a
submitter=submitter = University of Tokyo Team (Faculty of Engineering, University of Tokyo)
MoNA Rating=3.75

>  <NUM PEAKS>  (2905) 
60

>  <MASS SPECTRAL PEAKS>  (2905) 
38 1.5
41 1.1
42 4.4
43 99.99
44 3
47 1.4
48 1.1
49 0.14
50 1.2
53 1.5
60 2.5
61 0.96
62 10.5
63 2.1
71 1.4
72 0.45
73 6.7
74 4
75 1.8
83 0.3
84 1.4
85 2.3
86 0.6
87 0.11
95 1.1
96 4.6
97 10.6
98 0.24
99 6.8
106 1
107 7.7
108 0.2
109 6
110 0.8
111 1.1
131 0.13
132 3.7
133 2.4
134 2.3
135 0.11
143 1.1
144 0.5
145 0.6
160 0.33
162 2.2
167 9.3
168 0.8
169 0.89
171 2.7
181 0.5
195 1
196 1.93
197 2.2
198 18.5
199 1.3
200 0.59
202 0.7
238 4.6
240 4.7
242 1.2

>  <PREDICTED SPECTRUM>  (2905) 
14 18
15 157
25 8
26 57
27 169
28 122
29 41
34 3
35 76
36 96
37 88
38 86
39 92
40 72
41 146
42 171
43 993
44 181
47 67
48 34
49 106
50 81
51 29
53 48
56 18
57 6
59 2
60 126
61 196
62 217
63 183
64 45
65 25
66 21
67 4
69 3
71 86
72 134
73 213
74 234
75 139
76 34
82 48
83 146
84 92
85 88
86 105
87 85
89 24
90 42
93 16
94 2
95 45
96 170
97 429
98 216
99 265
100 67
101 104
106 72
107 212
108 133
109 234
110 127
111 147
112 73
117 57
118 37
119 63
120 51
121 14
122 21
123 29
125 71
126 81
127 48
128 72
130 40
131 144
132 204
133 259
134 205
135 176
136 124
137 67
140 9
141 44
143 175
144 119
145 102
146 31
147 20
148 66
160 198
161 134
162 239
163 101
164 103
166 11
167 333
168 75
169 295
170 83
171 169
173 8
179 110
180 48
181 82
195 123
196 949
197 248
198 999
199 216
200 593
201 114
202 162
203 79
204 70
238 243
239 60
240 236
241 76
242 125
243 60

$$$$

     RDKit          2D

 13 13  0  0  0  0  0  0  0  0999 V2000
    4.9370    1.3506    0.0000 C   0  0  0  0  0  0  0  0  0  0  0  0
   -1.5600    0.6000    0.0000 C   0  0  0  0  0  0  0  0  0  0  0  0
   -0.2600   -1.6500    0.0000 C   0  0  0  0  0  0  0  0  0  0  0  0
    3.6381    0.6004    0.0000 C   0  0  0  0  0  0  0  0  0  0  0  0
   -1.5600   -0.9000    0.0000 C   0  0  0  0  0  0  0  0  0  0  0  0
   -0.2600    1.3500    0.0000 C   0  0  0  0  0  0  0  0  0  0  0  0
    1.0400   -0.9000    0.0000 C   0  0  0  0  0  0  0  0  0  0  0  0
    1.0400    0.6000    0.0000 C   0  0  0  0  0  0  0  0  0  0  0  0
   -2.8589   -1.6502    0.0000 Cl  0  0  0  0  0  0  0  0  0  0  0  0
   -0.2600    2.8500    0.0000 Cl  0  0  0  0  0  0  0  0  0  0  0  0
    2.3389   -1.6502    0.0000 Cl  0  0  0  0  0  0  0  0  0  0  0  0
    3.6383   -0.8996    0.0000 O   0  0  0  0  0  0  0  0  0  0  0  0
    2.3389    1.3502    0.0000 O   0  0  0  0  0  0  0  0  0  0  0  0
  4  1  1  0
  5  2  2  0
  5  3  1  0
  6  2  1  0
  7  3  2  0
  8  6  2  0
  8  7  1  0
  9  5  1  0
 10  6  1  0
 11  7  1  0
 12  4  2  0
 13  4  1  0
 13  8  1  0
M  END
>  <NAME>  (2906) 
2,4,6-TRICHLOROPHENYL ACETATE

>  <SYNONYMS>  (2906) 


>  <SPECTRUM TYPE>  (2906) 
MS1

>  <INSTRUMENT TYPE>  (2906) 
EI-B

>  <INSTRUMENT>  (2906) 
JEOL JMS-01-SG

>  <ION MODE>  (2906) 
P

>  <INCHIKEY>  (2906) 
RFOCPJZGJNKBOI-UHFFFAOYSA-N

>  <FORMULA>  (2906) 
C8H5Cl3O2

>  <EXACT MASS>  (2906) 
237.93551244

>  <MW>  (2906) 
238

>  <ID>  (2906) 
JP007519

>  <CONTRIBUTOR>  (2906) 
University of Tokyo Team, {Faculty of Engineering, University of Tokyo

>  <COMMENT>  (2906) 
SMILES=CC(=O)Oc(c(Cl)1)c(Cl)cc(Cl)c1
InChI=InChI=1S/C8H5Cl3O2/c1-4(12)13-8-6(10)2-5(9)3-7(8)11/h2-3H,1H3
computed SMILES=O=C(OC=1C(Cl)=CC(Cl)=CC1Cl)C
accession=JP007519
date=2016.01.19 (Created 2008.10.21, modified 2011.05.06)
author=KOGA M, UNIV. OF OCCUPATIONAL AND ENVIRONMENTAL HEALTH
license=CC BY-NC-SA
exact mass=237.93551
ionization energy=70 eV
ion type=[M]+*
computed spectral entropy=2.2894060620902565
computed normalized entropy=0.6666903298591366
SPLASH=splash10-0006-9610000000-761d488dfef5f5695b97
submitter=submitter = University of Tokyo Team (Faculty of Engineering, University of Tokyo)
MoNA Rating=3.75

>  <NUM PEAKS>  (2906) 
31

>  <MASS SPECTRAL PEAKS>  (2906) 
35 2.7
42 3.1
43 99.99
44 0.31
61 4.5
62 4.8
72 2.4
73 0.31
74 2
83 2.4
96 2.4
97 1.11
99 3.8
107 4.1
109 3.8
132 0.41
133 2
134 3.4
160 3.1
162 0.24
167 4.5
169 4.1
195 1.3
196 4.93
197 5.5
198 47.9
199 3.4
200 1.64
238 11.5
240 11.1
242 3.4

>  <PREDICTED SPECTRUM>  (2906) 
14 10
15 140
25 9
26 54
27 180
28 123
29 60
34 6
35 73
36 97
37 99
38 108
39 151
40 76
41 207
42 144
43 854
44 161
47 55
48 26
49 99
50 89
51 35
53 38
57 24
60 127
61 217
62 218
63 175
64 24
65 12
66 7
69 19
71 68
72 137
73 214
74 223
75 154
76 44
82 34
83 140
84 117
85 114
86 115
87 156
88 9
89 55
90 23
95 66
96 211
97 458
98 220
99 284
100 110
101 147
106 61
107 223
108 165
109 270
110 135
111 169
112 71
113 1
117 43
119 31
120 43
123 18
125 74
126 158
127 48
128 111
130 39
131 163
132 238
133 297
134 206
135 177
136 103
137 69
141 35
143 173
144 104
145 144
146 42
147 10
148 18
160 182
161 154
162 275
163 160
164 151
165 39
166 13
167 330
168 69
169 301
170 85
171 257
173 24
179 65
181 93
195 122
196 966
197 258
198 999
199 236
200 590
201 146
202 211
203 36
204 29
238 158
239 12
240 158
241 33
242 76
243 32

$$$$

     RDKit          2D

 12 12  0  0  0  0  0  0  0  0999 V2000
    5.1970   -1.5006    0.0000 C   0  0  0  0  0  0  0  0  0  0  0  0
   -1.3000    0.7500    0.0000 C   0  0  0  0  0  0  0  0  0  0  0  0
    1.3000    0.7500    0.0000 C   0  0  0  0  0  0  0  0  0  0  0  0
   -0.0000   -1.5000    0.0000 C   0  0  0  0  0  0  0  0  0  0  0  0
    3.8981   -0.7504    0.0000 C   0  0  0  0  0  0  0  0  0  0  0  0
    0.0000    1.5000    0.0000 C   0  0  0  0  0  0  0  0  0  0  0  0
   -1.3000   -0.7500    0.0000 C   0  0  0  0  0  0  0  0  0  0  0  0
    1.3000   -0.7500    0.0000 C   0  0  0  0  0  0  0  0  0  0  0  0
    0.0000    3.0000    0.0000 Cl  0  0  0  0  0  0  0  0  0  0  0  0
   -2.5989   -1.5002    0.0000 Cl  0  0  0  0  0  0  0  0  0  0  0  0
    3.8983    0.7496    0.0000 O   0  0  0  0  0  0  0  0  0  0  0  0
    2.5989   -1.5002    0.0000 O   0  0  0  0  0  0  0  0  0  0  0  0
  5  1  1  0
  6  2  2  0
  6  3  1  0
  7  2  1  0
  7  4  2  0
  8  3  2  0
  8  4  1  0
  9  6  1  0
 10  7  1  0
 11  5  2  0
 12  5  1  0
 12  8  1  0
M  END
>  <NAME>  (2907) 
3,5-DICHLOROPHENYL ACETATE

>  <SYNONYMS>  (2907) 


>  <SPECTRUM TYPE>  (2907) 
MS1

>  <INSTRUMENT TYPE>  (2907) 
EI-B

>  <INSTRUMENT>  (2907) 
JEOL JMS-01-SG

>  <ION MODE>  (2907) 
P

>  <INCHIKEY>  (2907) 
DPHLEWZTIXLUGZ-UHFFFAOYSA-N

>  <FORMULA>  (2907) 
C8H6Cl2O2

>  <EXACT MASS>  (2907) 
203.974484792

>  <MW>  (2907) 
204

>  <ID>  (2907) 
JP007518

>  <CONTRIBUTOR>  (2907) 
University of Tokyo Team, {Faculty of Engineering, University of Tokyo

>  <COMMENT>  (2907) 
SMILES=CC(=O)Oc(c1)cc(Cl)cc(Cl)1
InChI=InChI=1S/C8H6Cl2O2/c1-5(11)12-8-3-6(9)2-7(10)4-8/h2-4H,1H3
computed SMILES=O=C(OC=1C=C(Cl)C=C(Cl)C1)C
accession=JP007518
date=2016.01.19 (Created 2008.10.21, modified 2011.05.06)
author=KOGA M, UNIV. OF OCCUPATIONAL AND ENVIRONMENTAL HEALTH
license=CC BY-NC-SA
exact mass=203.97448
ion type=[M]+*
ionization energy=70 eV
computed spectral entropy=2.4280786265435794
computed normalized entropy=0.6455595426609848
SPLASH=splash10-01ox-9500000000-28ab7e91ca541db49647
submitter=submitter = University of Tokyo Team (Faculty of Engineering, University of Tokyo)
MoNA Rating=3.75

>  <NUM PEAKS>  (2907) 
43

>  <MASS SPECTRAL PEAKS>  (2907) 
36 1.1
37 2.3
38 3.2
41 0.21
42 8.9
43 99.99
44 2.5
49 0.11
50 1.4
60 1.5
61 4.9
62 0.97
63 20.6
64 1.3
72 1.2
73 0.72
74 3.4
75 3.7
83 1.2
85 0.12
91 1.2
97 2.3
98 3.6
99 0.57
100 1.3
101 1.5
107 1
109 0.22
126 1.3
127 1.1
133 8.7
135 0.56
137 1
145 1.1
162 47
163 0.38
164 29.8
165 2
166 4.7
204 1.42
205 1.1
206 9.4
208 1.5

>  <PREDICTED SPECTRUM>  (2907) 
14 49
15 199
18 3
25 26
26 86
27 144
28 86
29 156
30 25
31 19
35 66
36 54
37 121
38 170
39 133
40 61
41 20
42 222
43 951
44 218
45 15
47 71
48 2
49 141
50 185
51 142
52 67
53 55
54 23
56 9
60 40
61 212
62 281
63 408
64 199
65 114
66 64
67 3
72 131
73 307
74 305
75 271
76 73
77 108
78 9
79 27
82 39
83 119
84 128
85 209
86 74
87 201
88 20
89 30
90 77
91 191
92 182
93 87
94 86
96 111
97 217
98 266
99 290
100 145
101 171
102 102
103 42
105 5
106 12
107 109
108 27
109 249
110 230
111 195
112 135
113 7
114 10
119 8
125 60
126 286
127 281
128 220
129 120
130 58
131 6
133 344
134 135
135 299
136 56
137 121
145 174
146 55
147 208
148 31
149 54
161 264
162 999
163 414
164 858
165 286
166 331
167 95
168 3
169 42
204 249
205 53
206 229
207 66
208 102
209 29

$$$$

     RDKit          2D

 12 12  0  0  0  0  0  0  0  0999 V2000
    3.5731   -1.3127    0.0000 C   0  0  0  0  0  0  0  0  0  0  0  0
   -1.6226   -4.3135    0.0000 C   0  0  0  0  0  0  0  0  0  0  0  0
   -2.9221   -3.5627    0.0000 C   0  0  0  0  0  0  0  0  0  0  0  0
   -0.3236   -3.5635    0.0000 C   0  0  0  0  0  0  0  0  0  0  0  0
    2.2740   -2.0627    0.0000 C   0  0  0  0  0  0  0  0  0  0  0  0
   -2.9226   -2.0619    0.0000 C   0  0  0  0  0  0  0  0  0  0  0  0
   -0.3240   -2.0627    0.0000 C   0  0  0  0  0  0  0  0  0  0  0  0
   -1.6236   -1.3119    0.0000 C   0  0  0  0  0  0  0  0  0  0  0  0
   -4.2218   -1.3121    0.0000 Cl  0  0  0  0  0  0  0  0  0  0  0  0
   -1.6233    0.1881    0.0000 Cl  0  0  0  0  0  0  0  0  0  0  0  0
    2.2740   -3.5627    0.0000 O   0  0  0  0  0  0  0  0  0  0  0  0
    0.9750   -1.3127    0.0000 O   0  0  0  0  0  0  0  0  0  0  0  0
  3  2  2  0
  4  2  1  0
  5  1  1  0
  6  3  1  0
  7  4  2  0
  8  6  2  0
  8  7  1  0
  9  6  1  0
 10  8  1  0
 11  5  2  0
 12  5  1  0
 12  7  1  0
M  END
>  <NAME>  (2908) 
2,3-DICHLOROPHENYL ACETATE

>  <SYNONYMS>  (2908) 


>  <SPECTRUM TYPE>  (2908) 
MS1

>  <INSTRUMENT TYPE>  (2908) 
EI-B

>  <INSTRUMENT>  (2908) 
JEOL JMS-01-SG

>  <ION MODE>  (2908) 
P

>  <INCHIKEY>  (2908) 
UGURLMCNLGTRCL-UHFFFAOYSA-N

>  <FORMULA>  (2908) 
C8H6Cl2O2

>  <EXACT MASS>  (2908) 
203.974484792

>  <MW>  (2908) 
204

>  <ID>  (2908) 
JP007517

>  <CONTRIBUTOR>  (2908) 
University of Tokyo Team, {Faculty of Engineering, University of Tokyo

>  <COMMENT>  (2908) 
SMILES=CC(=O)Oc(c1)c(Cl)c(Cl)cc1
InChI=InChI=1S/C8H6Cl2O2/c1-5(11)12-7-4-2-3-6(9)8(7)10/h2-4H,1H3
computed SMILES=O=C(OC=1C=CC=C(Cl)C1Cl)C
license=CC BY-NC-SA
accession=JP007517
date=2016.01.19 (Created 2008.10.21, modified 2011.05.06)
author=KOGA M, UNIV. OF OCCUPATIONAL AND ENVIRONMENTAL HEALTH
exact mass=203.97448
ionization energy=70 eV
ion type=[M]+*
computed spectral entropy=2.930117733563972
computed normalized entropy=0.7311889473932005
SPLASH=splash10-03di-3920000000-8073a158d6f2afe024fc
submitter=submitter = University of Tokyo Team (Faculty of Engineering, University of Tokyo)
MoNA Rating=3.75

>  <NUM PEAKS>  (2908) 
55

>  <MASS SPECTRAL PEAKS>  (2908) 
38 2.2
39 3.4
42 4.4
43 9.88
44 3.7
49 1.7
50 1.7
51 0.12
53 1.2
60 1.1
61 5.3
62 0.94
63 25.6
64 2.6
65 1.2
72 0.66
73 10.8
74 5.3
75 5.3
83 0.25
84 1.7
85 2
87 1.3
91 0.14
96 1.3
97 5.5
98 9.9
99 0.67
100 3.5
101 1.4
107 5.2
109 0.59
110 1.1
111 1.4
126 26.2
127 0.27
128 10.2
133 14.3
134 1.2
135 0.97
137 1.4
145 2.5
147 1.4
161 0.23
162 99.99
163 12.9
164 76.6
165 0.81
166 18.2
167 1.2
204 41.3
205 0.57
206 28.6
207 3.6
208 5.7

>  <PREDICTED SPECTRUM>  (2908) 
14 37
15 167
25 24
26 80
27 160
28 104
29 149
30 0
35 54
36 55
37 117
38 151
39 183
40 89
41 61
42 187
43 746
44 169
47 57
48 16
49 110
50 125
51 88
52 51
53 72
54 40
55 21
60 64
61 154
62 228
63 330
64 176
65 87
66 54
67 17
72 141
73 253
74 209
75 229
76 18
77 43
78 22
79 2
80 1
82 19
83 120
84 88
85 127
86 92
87 97
88 6
90 20
91 151
92 97
93 44
94 22
96 68
97 258
98 243
99 271
100 151
101 129
102 63
106 25
107 154
108 21
109 204
110 178
111 167
112 116
113 3
114 16
125 89
126 279
127 291
128 239
129 99
130 36
133 286
134 106
135 266
136 49
137 129
145 159
146 31
147 93
148 21
161 141
162 999
163 341
164 795
165 223
166 256
167 86
169 10
204 226
205 59
206 168
207 41
208 61
209 6

$$$$

     RDKit          2D

 12 12  0  0  0  0  0  0  0  0999 V2000
   -5.1970   -1.5006    0.0000 C   0  0  0  0  0  0  0  0  0  0  0  0
   -1.3000    0.7500    0.0000 C   0  0  0  0  0  0  0  0  0  0  0  0
    0.0000    1.5000    0.0000 C   0  0  0  0  0  0  0  0  0  0  0  0
   -0.0000   -1.5000    0.0000 C   0  0  0  0  0  0  0  0  0  0  0  0
   -3.8981   -0.7504    0.0000 C   0  0  0  0  0  0  0  0  0  0  0  0
   -1.3000   -0.7500    0.0000 C   0  0  0  0  0  0  0  0  0  0  0  0
    1.3000    0.7500    0.0000 C   0  0  0  0  0  0  0  0  0  0  0  0
    1.3000   -0.7500    0.0000 C   0  0  0  0  0  0  0  0  0  0  0  0
    2.5989    1.5002    0.0000 Cl  0  0  0  0  0  0  0  0  0  0  0  0
    2.5989   -1.5002    0.0000 Cl  0  0  0  0  0  0  0  0  0  0  0  0
   -3.8983    0.7496    0.0000 O   0  0  0  0  0  0  0  0  0  0  0  0
   -2.5989   -1.5002    0.0000 O   0  0  0  0  0  0  0  0  0  0  0  0
  3  2  2  0
  5  1  1  0
  6  2  1  0
  6  4  2  0
  7  3  1  0
  8  4  1  0
  8  7  2  0
  9  7  1  0
 10  8  1  0
 11  5  2  0
 12  5  1  0
 12  6  1  0
M  END
>  <NAME>  (2909) 
3,4-DICHLOROPHENYL ACETATE

>  <SYNONYMS>  (2909) 


>  <SPECTRUM TYPE>  (2909) 
MS1

>  <INSTRUMENT TYPE>  (2909) 
EI-B

>  <INSTRUMENT>  (2909) 
JEOL JMS-01-SG

>  <ION MODE>  (2909) 
P

>  <INCHIKEY>  (2909) 
OSKGYRIYNMZFSJ-UHFFFAOYSA-N

>  <FORMULA>  (2909) 
C8H6Cl2O2

>  <EXACT MASS>  (2909) 
203.974484792

>  <MW>  (2909) 
204

>  <ID>  (2909) 
JP007516

>  <CONTRIBUTOR>  (2909) 
University of Tokyo Team, {Faculty of Engineering, University of Tokyo

>  <COMMENT>  (2909) 
SMILES=CC(=O)Oc(c1)cc(Cl)c(Cl)c1
InChI=InChI=1S/C8H6Cl2O2/c1-5(11)12-6-2-3-7(9)8(10)4-6/h2-4H,1H3
computed SMILES=O=C(OC1=CC=C(Cl)C(Cl)=C1)C
accession=JP007516
date=2016.01.19 (Created 2008.10.21, modified 2011.05.06)
author=KOGA M, UNIV. OF OCCUPATIONAL AND ENVIRONMENTAL HEALTH
license=CC BY-NC-SA
exact mass=203.97448
ionization energy=70 eV
ion type=[M]+*
computed spectral entropy=2.7586884966867036
computed normalized entropy=0.7016304267733342
SPLASH=splash10-03dl-9610000000-543a6759e5f72e349e5b
submitter=submitter = University of Tokyo Team (Faculty of Engineering, University of Tokyo)
MoNA Rating=3.75

>  <NUM PEAKS>  (2909) 
51

>  <MASS SPECTRAL PEAKS>  (2909) 
36 2.3
37 3.8
38 2.4
39 0.19
42 4.3
43 99.99
44 3.5
49 0.23
50 2.2
53 1.3
60 1.3
61 0.52
62 9.9
63 21
64 1.5
72 0.39
73 10.3
74 4.9
75 4.9
83 0.18
84 1.3
85 1.5
97 3.4
98 0.47
99 12.7
100 2.4
101 4
107 0.28
109 3.8
111 1.2
126 3.6
127 0.27
128 1.4
133 9.3
134 2.8
135 0.62
136 1.5
137 1.1
145 1.4
147 0.11
161 1.7
162 83
163 8.8
164 5.84
165 5.5
166 12.1
204 21.1
205 0.23
206 14.2
207 1.2
208 2.4

>  <PREDICTED SPECTRUM>  (2909) 
14 39
15 184
25 18
26 72
27 153
28 75
29 146
30 36
35 33
36 45
37 111
38 146
39 168
40 75
41 32
42 192
43 864
44 177
47 54
49 119
50 122
51 98
52 56
53 72
54 28
55 16
57 37
60 21
61 169
62 235
63 335
64 156
65 70
66 44
67 7
71 22
72 130
73 307
74 215
75 226
76 20
77 95
78 13
79 20
80 6
83 99
84 73
85 152
86 95
87 157
88 28
89 5
90 33
91 119
92 81
93 40
94 13
96 62
97 186
98 219
99 292
100 181
101 149
102 88
103 13
105 22
106 16
107 181
108 34
109 188
110 168
111 138
112 77
114 3
125 90
126 271
127 216
128 230
129 122
130 38
133 331
134 114
135 242
136 69
137 111
144 15
145 142
146 6
147 117
148 17
161 106
162 999
163 329
164 802
165 216
166 257
167 77
204 225
205 54
206 165
207 51
208 57
209 12

$$$$

     RDKit          2D

 12 12  0  0  0  0  0  0  0  0999 V2000
    3.6076    3.9204    0.0000 C   0  0  0  0  0  0  0  0  0  0  0  0
   -1.5900    0.9200    0.0000 C   0  0  0  0  0  0  0  0  0  0  0  0
   -0.2900    1.6700    0.0000 C   0  0  0  0  0  0  0  0  0  0  0  0
   -0.2900   -1.3300    0.0000 C   0  0  0  0  0  0  0  0  0  0  0  0
    2.3087    3.1702    0.0000 C   0  0  0  0  0  0  0  0  0  0  0  0
   -1.5900   -0.5800    0.0000 C   0  0  0  0  0  0  0  0  0  0  0  0
    1.0100   -0.5800    0.0000 C   0  0  0  0  0  0  0  0  0  0  0  0
    1.0100    0.9200    0.0000 C   0  0  0  0  0  0  0  0  0  0  0  0
   -2.8889   -1.3302    0.0000 Cl  0  0  0  0  0  0  0  0  0  0  0  0
    2.3089   -1.3302    0.0000 Cl  0  0  0  0  0  0  0  0  0  0  0  0
    1.0095    3.9200    0.0000 O   0  0  0  0  0  0  0  0  0  0  0  0
    2.3089    1.6702    0.0000 O   0  0  0  0  0  0  0  0  0  0  0  0
  3  2  2  0
  5  1  1  0
  6  2  1  0
  6  4  2  0
  7  4  1  0
  8  3  1  0
  8  7  2  0
  9  6  1  0
 10  7  1  0
 11  5  2  0
 12  5  1  0
 12  8  1  0
M  END
>  <NAME>  (2910) 
2,4-DICHLOROPHENYL ACETATE

>  <SYNONYMS>  (2910) 


>  <SPECTRUM TYPE>  (2910) 
MS1

>  <INSTRUMENT TYPE>  (2910) 
EI-B

>  <INSTRUMENT>  (2910) 
JEOL JMS-01-SG

>  <ION MODE>  (2910) 
P

>  <INCHIKEY>  (2910) 
KGXUYVOKSRCTEK-UHFFFAOYSA-N

>  <FORMULA>  (2910) 
C8H6Cl2O2

>  <EXACT MASS>  (2910) 
203.974484792

>  <MW>  (2910) 
204

>  <ID>  (2910) 
JP007515

>  <CONTRIBUTOR>  (2910) 
University of Tokyo Team, {Faculty of Engineering, University of Tokyo

>  <COMMENT>  (2910) 
SMILES=CC(=O)Oc(c1)c(Cl)cc(Cl)c1
InChI=InChI=1S/C8H6Cl2O2/c1-5(11)12-8-3-2-6(9)4-7(8)10/h2-4H,1H3
computed SMILES=O=C(OC1=CC=C(Cl)C=C1Cl)C
accession=JP007515
date=2016.01.19 (Created 2008.10.21, modified 2011.05.06)
author=KOGA M, UNIV. OF OCCUPATIONAL AND ENVIRONMENTAL HEALTH
license=CC BY-NC-SA
exact mass=203.97448
ionization energy=70 eV
ion type=[M]+*
computed spectral entropy=2.5862086823678636
computed normalized entropy=0.705927436788201
SPLASH=splash10-03dl-9700000000-d23926b5b2e03cd2b504
submitter=submitter = University of Tokyo Team (Faculty of Engineering, University of Tokyo)
MoNA Rating=3.75

>  <NUM PEAKS>  (2910) 
39

>  <MASS SPECTRAL PEAKS>  (2910) 
37 3.8
38 3.4
39 2.7
42 0.38
43 99.99
44 2.9
49 2.2
50 0.27
53 2
61 4.3
62 8.6
63 2.53
64 2
72 2.9
73 13
74 4.01
75 5.7
83 2.5
85 1.5
97 0.41
98 10.5
99 5.9
100 3.1
101 0.18
107 2.5
109 2.9
126 4.1
127 0.13
128 6.8
133 8.4
135 5.9
161 0.18
162 67.1
163 3.4
164 34.7
165 0.2
166 5.4
204 5
206 3.8

>  <PREDICTED SPECTRUM>  (2910) 
14 36
15 166
25 27
26 67
27 122
28 89
29 106
35 49
36 36
37 123
38 143
39 124
40 62
42 180
43 695
44 143
47 46
48 4
49 127
50 148
51 95
52 43
53 47
60 48
61 194
62 244
63 331
64 146
65 91
66 43
67 20
72 159
73 283
74 254
75 237
76 37
77 63
78 12
79 5
82 1
83 84
84 105
85 153
86 102
87 159
88 18
90 43
91 146
92 118
93 37
94 30
96 100
97 236
98 231
99 253
100 158
101 164
102 80
107 123
108 5
109 191
110 147
111 138
112 125
113 14
114 22
125 79
126 232
127 313
128 219
129 159
130 21
133 314
134 103
135 296
136 47
137 123
144 32
145 166
147 129
148 23
161 161
162 999
163 370
164 836
165 234
166 306
167 112
168 75
169 65
170 18
204 194
205 29
206 163
207 40
208 55
209 14

$$$$

     RDKit          2D

 12 12  0  0  0  0  0  0  0  0999 V2000
   -2.5989    1.5002    0.0000 C   0  0  0  0  0  0  0  0  0  0  0  0
    3.8981   -0.7504    0.0000 C   0  0  0  0  0  0  0  0  0  0  0  0
    2.5981   -1.5004    0.0000 C   0  0  0  0  0  0  0  0  0  0  0  0
    2.5981    1.4996    0.0000 C   0  0  0  0  0  0  0  0  0  0  0  0
   -1.3000    0.7500    0.0000 C   0  0  0  0  0  0  0  0  0  0  0  0
    3.8981    0.7496    0.0000 C   0  0  0  0  0  0  0  0  0  0  0  0
    1.2981   -0.7504    0.0000 C   0  0  0  0  0  0  0  0  0  0  0  0
    1.2981    0.7496    0.0000 C   0  0  0  0  0  0  0  0  0  0  0  0
    5.1970    1.4998    0.0000 Cl  0  0  0  0  0  0  0  0  0  0  0  0
   -0.0008   -1.5006    0.0000 Cl  0  0  0  0  0  0  0  0  0  0  0  0
   -1.3002   -0.7500    0.0000 O   0  0  0  0  0  0  0  0  0  0  0  0
   -0.0008    1.4998    0.0000 O   0  0  0  0  0  0  0  0  0  0  0  0
  3  2  2  0
  5  1  1  0
  6  2  1  0
  6  4  2  0
  7  3  1  0
  8  4  1  0
  8  7  2  0
  9  6  1  0
 10  7  1  0
 11  5  2  0
 12  5  1  0
 12  8  1  0
M  END
>  <NAME>  (2911) 
2,5-DICHLOROPHENYL ACETATE

>  <SYNONYMS>  (2911) 


>  <SPECTRUM TYPE>  (2911) 
MS1

>  <INSTRUMENT TYPE>  (2911) 
EI-B

>  <INSTRUMENT>  (2911) 
JEOL JMS-01-SG

>  <ION MODE>  (2911) 
P

>  <INCHIKEY>  (2911) 
XSJDGJRHRDWQOR-UHFFFAOYSA-N

>  <FORMULA>  (2911) 
C8H6Cl2O2

>  <EXACT MASS>  (2911) 
203.974484792

>  <MW>  (2911) 
204

>  <ID>  (2911) 
JP007514

>  <CONTRIBUTOR>  (2911) 
University of Tokyo Team, {Faculty of Engineering, University of Tokyo

>  <COMMENT>  (2911) 
SMILES=CC(=O)Oc(c1)c(Cl)ccc(Cl)1
InChI=InChI=1S/C8H6Cl2O2/c1-5(11)12-8-4-6(9)2-3-7(8)10/h2-4H,1H3
computed SMILES=O=C(OC1=CC(Cl)=CC=C1Cl)C
accession=JP007514
date=2016.01.19 (Created 2008.10.21, modified 2011.05.06)
author=KOGA M, UNIV. OF OCCUPATIONAL AND ENVIRONMENTAL HEALTH
license=CC BY-NC-SA
exact mass=203.97448
ionization energy=70 eV
ion type=[M]+*
computed spectral entropy=2.8823181776745836
computed normalized entropy=0.712906660522845
SPLASH=splash10-03dl-9500000000-ec7628ae14e8bc045ba1
submitter=submitter = University of Tokyo Team (Faculty of Engineering, University of Tokyo)
MoNA Rating=3.75

>  <NUM PEAKS>  (2911) 
57

>  <MASS SPECTRAL PEAKS>  (2911) 
39 4
41 7.9
42 3.6
43 99.99
44 5.7
49 2.6
50 2.6
51 0.16
53 1.6
55 7.2
56 2.6
57 0.84
61 3.3
62 7.2
63 19.2
64 0.19
65 1.6
67 2.6
69 4.3
70 0.24
71 5.3
72 1.6
73 8.6
74 0.28
75 4.3
77 1.4
81 2.6
82 0.21
83 3.1
84 1.4
85 2.6
91 0.24
95 2.6
96 1.9
97 3.1
98 0.79
99 5.7
100 2.4
101 2.4
105 0.14
107 1.6
109 1.9
111 1.9
119 0.16
126 2.1
128 7.4
130 2.6
133 0.65
135 4.8
162 83.3
163 7.9
164 5.87
165 4.5
166 9.8
204 13
206 0.86
208 1.4

>  <PREDICTED SPECTRUM>  (2911) 
14 37
15 171
25 17
26 68
27 133
28 117
29 131
35 43
36 38
37 113
38 142
39 184
40 80
41 85
42 169
43 752
44 149
47 55
48 12
49 94
50 132
51 92
52 47
53 50
54 0
60 75
61 167
62 220
63 289
64 136
65 95
66 52
67 25
72 141
73 268
74 239
75 242
76 59
77 49
78 9
83 73
84 83
85 127
86 107
87 140
88 34
89 28
90 32
91 141
92 138
93 46
94 28
96 100
97 242
98 223
99 259
100 158
101 159
102 93
103 14
106 3
107 112
108 20
109 181
110 178
111 144
112 96
114 8
125 55
126 255
127 281
128 275
129 129
130 81
131 2
133 301
134 107
135 250
136 35
137 121
144 37
145 142
146 33
147 92
161 144
162 999
163 310
164 884
165 222
166 338
167 106
168 6
169 58
170 8
204 197
205 38
206 156
207 34
208 57
209 10

$$$$

     RDKit          2D

 12 12  0  0  0  0  0  0  0  0999 V2000
   -1.3000    0.0008    0.0000 C   0  0  0  0  0  0  0  0  0  0  0  0
    5.1970   -2.2498    0.0000 C   0  0  0  0  0  0  0  0  0  0  0  0
    3.8970   -2.9998    0.0000 C   0  0  0  0  0  0  0  0  0  0  0  0
    5.1970   -0.7498    0.0000 C   0  0  0  0  0  0  0  0  0  0  0  0
   -0.0011   -0.7494    0.0000 C   0  0  0  0  0  0  0  0  0  0  0  0
    2.5970   -2.2498    0.0000 C   0  0  0  0  0  0  0  0  0  0  0  0
    3.8970    0.0002    0.0000 C   0  0  0  0  0  0  0  0  0  0  0  0
    2.5970   -0.7498    0.0000 C   0  0  0  0  0  0  0  0  0  0  0  0
    1.2981   -3.0000    0.0000 Cl  0  0  0  0  0  0  0  0  0  0  0  0
    3.8970    1.5002    0.0000 Cl  0  0  0  0  0  0  0  0  0  0  0  0
   -0.0013   -2.2494    0.0000 O   0  0  0  0  0  0  0  0  0  0  0  0
    1.2981    0.0004    0.0000 O   0  0  0  0  0  0  0  0  0  0  0  0
  3  2  2  0
  4  2  1  0
  5  1  1  0
  6  3  1  0
  7  4  2  0
  8  6  2  0
  8  7  1  0
  9  6  1  0
 10  7  1  0
 11  5  2  0
 12  5  1  0
 12  8  1  0
M  END
>  <NAME>  (2912) 
2,6-DICHLOROPHENYL ACETATE

>  <SYNONYMS>  (2912) 


>  <SPECTRUM TYPE>  (2912) 
MS1

>  <INSTRUMENT TYPE>  (2912) 
EI-B

>  <INSTRUMENT>  (2912) 
JEOL JMS-01-SG

>  <ION MODE>  (2912) 
P

>  <INCHIKEY>  (2912) 
YNSMUWSJRXDNLN-UHFFFAOYSA-N

>  <FORMULA>  (2912) 
C8H6Cl2O2

>  <EXACT MASS>  (2912) 
203.974484792

>  <MW>  (2912) 
204

>  <ID>  (2912) 
JP007513

>  <CONTRIBUTOR>  (2912) 
University of Tokyo Team, {Faculty of Engineering, University of Tokyo

>  <COMMENT>  (2912) 
SMILES=CC(=O)Oc(c(Cl)1)c(Cl)ccc1
InChI=InChI=1S/C8H6Cl2O2/c1-5(11)12-8-6(9)3-2-4-7(8)10/h2-4H,1H3
computed SMILES=O=C(OC=1C(Cl)=CC=CC1Cl)C
accession=JP007513
date=2016.01.19 (Created 2008.10.21, modified 2011.05.06)
author=KOGA M, UNIV. OF OCCUPATIONAL AND ENVIRONMENTAL HEALTH
license=CC BY-NC-SA
exact mass=203.97448
ionization energy=70 eV
ion type=[M]+*
computed spectral entropy=2.183160440603964
computed normalized entropy=0.7170781248163333
SPLASH=splash10-03di-6910000000-e472eea506bf49d4f071
submitter=submitter = University of Tokyo Team (Faculty of Engineering, University of Tokyo)
MoNA Rating=3.75

>  <NUM PEAKS>  (2912) 
21

>  <MASS SPECTRAL PEAKS>  (2912) 
42 3.9
43 88.8
61 5.2
62 0.78
63 19.7
73 12.5
74 3.9
75 0.59
97 4.6
98 5.9
99 4.6
126 0.72
133 11.8
135 7.2
162 99.99
163 0.72
164 67.7
165 5.2
166 11.8
204 3.09
206 20.3

>  <PREDICTED SPECTRUM>  (2912) 
14 29
15 145
25 25
26 66
27 126
28 99
29 129
30 11
31 6
35 62
36 51
37 129
38 147
39 147
40 65
41 51
42 157
43 606
44 161
47 70
48 38
49 134
50 134
51 89
52 37
53 62
60 74
61 208
62 250
63 336
64 149
65 102
66 36
67 7
72 152
73 301
74 273
75 254
76 32
77 51
78 27
79 4
83 64
84 114
85 106
86 81
87 128
88 14
89 15
90 37
91 118
92 104
93 14
94 32
96 67
97 263
98 253
99 279
100 165
101 119
102 89
103 17
105 9
106 16
107 150
108 9
109 239
110 143
111 154
112 90
114 8
125 49
126 251
127 274
128 211
129 113
130 34
131 1
133 333
134 117
135 322
136 47
137 123
144 46
145 171
146 48
147 97
148 33
161 134
162 999
163 314
164 828
165 209
166 323
167 69
169 74
170 1
204 193
205 31
206 159
207 28
208 42
209 10

$$$$

     RDKit          2D

 11 11  0  0  0  0  0  0  0  0999 V2000
    5.1970    1.5006    0.0000 C   0  0  0  0  0  0  0  0  0  0  0  0
   -1.3000    0.7500    0.0000 C   0  0  0  0  0  0  0  0  0  0  0  0
   -0.0000   -1.5000    0.0000 C   0  0  0  0  0  0  0  0  0  0  0  0
    0.0000    1.5000    0.0000 C   0  0  0  0  0  0  0  0  0  0  0  0
    1.3000   -0.7500    0.0000 C   0  0  0  0  0  0  0  0  0  0  0  0
    3.8981    0.7504    0.0000 C   0  0  0  0  0  0  0  0  0  0  0  0
   -1.3000   -0.7500    0.0000 C   0  0  0  0  0  0  0  0  0  0  0  0
    1.3000    0.7500    0.0000 C   0  0  0  0  0  0  0  0  0  0  0  0
   -2.5989   -1.5002    0.0000 Cl  0  0  0  0  0  0  0  0  0  0  0  0
    3.8983   -0.7496    0.0000 O   0  0  0  0  0  0  0  0  0  0  0  0
    2.5989    1.5002    0.0000 O   0  0  0  0  0  0  0  0  0  0  0  0
  4  2  2  0
  5  3  1  0
  6  1  1  0
  7  2  1  0
  7  3  2  0
  8  4  1  0
  8  5  2  0
  9  7  1  0
 10  6  2  0
 11  6  1  0
 11  8  1  0
M  END
>  <NAME>  (2913) 
4-CHLOROPHENYL ACETATE

>  <SYNONYMS>  (2913) 


>  <SPECTRUM TYPE>  (2913) 
MS1

>  <INSTRUMENT TYPE>  (2913) 
EI-B

>  <INSTRUMENT>  (2913) 
JEOL JMS-01-SG

>  <ION MODE>  (2913) 
P

>  <INCHIKEY>  (2913) 
KEUPLGRNURQXAR-UHFFFAOYSA-N

>  <FORMULA>  (2913) 
C8H7ClO2

>  <EXACT MASS>  (2913) 
170.013457144

>  <MW>  (2913) 
170

>  <ID>  (2913) 
JP007512

>  <CONTRIBUTOR>  (2913) 
University of Tokyo Team, {Faculty of Engineering, University of Tokyo

>  <COMMENT>  (2913) 
SMILES=CC(=O)Oc(c1)ccc(Cl)c1
cas=876-27-7
InChI=InChI=1S/C8H7ClO2/c1-6(10)11-8-4-2-7(9)3-5-8/h2-5H,1H3
computed SMILES=O=C(OC1=CC=C(Cl)C=C1)C
accession=JP007512
date=2016.01.19 (Created 2008.10.21, modified 2011.05.06)
author=KOGA M, UNIV. OF OCCUPATIONAL AND ENVIRONMENTAL HEALTH
license=CC BY-NC-SA
exact mass=170.01346
ionization energy=70 eV
ion type=[M]+*
computed spectral entropy=2.5588693056696927
computed normalized entropy=0.6890587444397217
SPLASH=splash10-004i-7900000000-c38b967a069614441ae0
submitter=submitter = University of Tokyo Team (Faculty of Engineering, University of Tokyo)
MoNA Rating=3.75

>  <NUM PEAKS>  (2913) 
41

>  <MASS SPECTRAL PEAKS>  (2913) 
37 2.8
38 5.7
39 8.5
41 0.13
42 2.3
43 37.6
44 2.7
49 0.15
50 4
51 1.4
53 1.1
55 0.13
61 2.2
62 4.8
63 11.5
64 0.5
65 10.6
66 1.3
69 0.9
72 0.11
73 8.5
74 3
75 5.2
76 0.09
77 0.9
92 1.3
93 2.8
94 0.09
99 10.4
100 7.1
101 3.3
102 0.23
111 1.6
127 1.6
128 99.99
129 0.73
130 33.1
131 1.9
170 11.5
171 0.1
172 3.9

>  <PREDICTED SPECTRUM>  (2913) 
14 57
15 172
16 4
17 8
25 23
26 97
27 146
28 106
29 34
36 41
37 116
38 190
39 308
40 104
41 130
42 156
43 683
44 109
45 36
47 28
49 99
50 205
51 194
52 22
53 114
54 13
60 62
61 180
62 168
63 331
64 254
65 304
66 103
72 118
73 306
74 182
75 257
76 147
77 102
78 20
85 29
86 95
87 35
91 140
92 156
93 181
94 59
97 3
98 84
99 389
100 237
101 237
102 108
103 31
110 16
111 219
112 67
113 61
127 275
128 999
129 336
130 560
131 196
143 8
170 290
171 58
172 178
173 36

$$$$

     RDKit          2D

 11 11  0  0  0  0  0  0  0  0999 V2000
    3.5731   -1.3127    0.0000 C   0  0  0  0  0  0  0  0  0  0  0  0
   -1.6226   -4.3135    0.0000 C   0  0  0  0  0  0  0  0  0  0  0  0
   -2.9221   -3.5627    0.0000 C   0  0  0  0  0  0  0  0  0  0  0  0
   -0.3236   -3.5635    0.0000 C   0  0  0  0  0  0  0  0  0  0  0  0
   -1.6236   -1.3119    0.0000 C   0  0  0  0  0  0  0  0  0  0  0  0
    2.2740   -2.0627    0.0000 C   0  0  0  0  0  0  0  0  0  0  0  0
   -2.9226   -2.0619    0.0000 C   0  0  0  0  0  0  0  0  0  0  0  0
   -0.3240   -2.0627    0.0000 C   0  0  0  0  0  0  0  0  0  0  0  0
   -4.2218   -1.3121    0.0000 Cl  0  0  0  0  0  0  0  0  0  0  0  0
    2.2740   -3.5627    0.0000 O   0  0  0  0  0  0  0  0  0  0  0  0
    0.9750   -1.3127    0.0000 O   0  0  0  0  0  0  0  0  0  0  0  0
  3  2  2  0
  4  2  1  0
  6  1  1  0
  7  3  1  0
  7  5  2  0
  8  4  2  0
  8  5  1  0
  9  7  1  0
 10  6  2  0
 11  6  1  0
 11  8  1  0
M  END
>  <NAME>  (2914) 
3-CHLOROPHENYL ACETATE

>  <SYNONYMS>  (2914) 


>  <SPECTRUM TYPE>  (2914) 
MS1

>  <INSTRUMENT TYPE>  (2914) 
EI-B

>  <INSTRUMENT>  (2914) 
JEOL JMS-01-SG

>  <ION MODE>  (2914) 
P

>  <INCHIKEY>  (2914) 
GQTKYLQYHPTULY-UHFFFAOYSA-N

>  <FORMULA>  (2914) 
C8H7ClO2

>  <EXACT MASS>  (2914) 
170.013457144

>  <MW>  (2914) 
170

>  <ID>  (2914) 
JP007511

>  <CONTRIBUTOR>  (2914) 
University of Tokyo Team, {Faculty of Engineering, University of Tokyo

>  <COMMENT>  (2914) 
SMILES=CC(=O)Oc(c1)cc(Cl)cc1
cas=13031-39-5
InChI=InChI=1S/C8H7ClO2/c1-6(10)11-8-4-2-3-7(9)5-8/h2-5H,1H3
computed SMILES=O=C(OC=1C=CC=C(Cl)C1)C
accession=JP007511
date=2016.01.19 (Created 2008.10.21, modified 2011.05.06)
author=KOGA M, UNIV. OF OCCUPATIONAL AND ENVIRONMENTAL HEALTH
license=CC BY-NC-SA
exact mass=170.01346
ionization energy=70 eV
ion type=[M]+*
computed spectral entropy=2.24589434413639
computed normalized entropy=0.6669726859565562
SPLASH=splash10-004l-7900000000-2cf3e48f52bccc9c284b
submitter=submitter = University of Tokyo Team (Faculty of Engineering, University of Tokyo)
MoNA Rating=3.75

>  <NUM PEAKS>  (2914) 
29

>  <MASS SPECTRAL PEAKS>  (2914) 
38 4.2
39 5.1
41 3
42 0.33
43 71.4
44 3.9
50 3.3
57 0.27
62 3
63 9.7
64 6.6
65 0.75
69 3
73 3.9
74 2.7
75 0.66
92 2.7
99 6.3
100 3
101 0.33
111 3
113 2.7
128 99.99
129 0.63
130 30
139 6
168 6.9
170 2.27
172 6.9

>  <PREDICTED SPECTRUM>  (2914) 
14 61
15 190
16 7
17 5
25 12
26 64
27 61
28 81
29 61
35 20
36 38
37 131
38 197
39 244
40 81
41 134
42 161
43 749
44 143
45 84
47 28
49 128
50 273
51 225
52 27
53 77
60 66
61 201
62 212
63 401
64 278
65 331
66 72
72 100
73 306
74 228
75 328
76 179
77 203
78 91
79 50
84 19
85 71
86 119
87 59
91 238
92 218
93 298
94 83
97 59
98 67
99 367
100 173
101 256
102 131
103 63
110 63
111 259
112 139
113 169
126 2
127 230
128 999
129 363
130 525
131 216
170 334
171 94
172 219
173 60

$$$$

     RDKit          2D

 11 11  0  0  0  0  0  0  0  0999 V2000
    5.1970   -1.5006    0.0000 C   0  0  0  0  0  0  0  0  0  0  0  0
   -1.3000    0.7500    0.0000 C   0  0  0  0  0  0  0  0  0  0  0  0
    0.0000    1.5000    0.0000 C   0  0  0  0  0  0  0  0  0  0  0  0
   -1.3000   -0.7500    0.0000 C   0  0  0  0  0  0  0  0  0  0  0  0
    1.3000    0.7500    0.0000 C   0  0  0  0  0  0  0  0  0  0  0  0
    3.8981   -0.7504    0.0000 C   0  0  0  0  0  0  0  0  0  0  0  0
    0.0000   -1.5000    0.0000 C   0  0  0  0  0  0  0  0  0  0  0  0
    1.3000   -0.7500    0.0000 C   0  0  0  0  0  0  0  0  0  0  0  0
   -0.0000   -3.0000    0.0000 Cl  0  0  0  0  0  0  0  0  0  0  0  0
    3.8983    0.7496    0.0000 O   0  0  0  0  0  0  0  0  0  0  0  0
    2.5989   -1.5002    0.0000 O   0  0  0  0  0  0  0  0  0  0  0  0
  3  2  2  0
  4  2  1  0
  5  3  1  0
  6  1  1  0
  7  4  2  0
  8  5  2  0
  8  7  1  0
  9  7  1  0
 10  6  2  0
 11  6  1  0
 11  8  1  0
M  END
>  <NAME>  (2915) 
2-CHLOROPHENYL ACETATE

>  <SYNONYMS>  (2915) 


>  <SPECTRUM TYPE>  (2915) 
MS1

>  <INSTRUMENT TYPE>  (2915) 
EI-B

>  <INSTRUMENT>  (2915) 
JEOL JMS-01-SG

>  <ION MODE>  (2915) 
P

>  <INCHIKEY>  (2915) 
CJPVPOYTTALCNX-UHFFFAOYSA-N

>  <FORMULA>  (2915) 
C8H7ClO2

>  <EXACT MASS>  (2915) 
170.013457144

>  <MW>  (2915) 
170

>  <ID>  (2915) 
JP007510

>  <CONTRIBUTOR>  (2915) 
University of Tokyo Team, {Faculty of Engineering, University of Tokyo

>  <COMMENT>  (2915) 
SMILES=CC(=O)Oc(c1)c(Cl)ccc1
InChI=InChI=1S/C8H7ClO2/c1-6(10)11-8-5-3-2-4-7(8)9/h2-5H,1H3
computed SMILES=O=C(OC=1C=CC=CC1Cl)C
ion type=[M]+*
accession=JP007510
date=2016.01.19 (Created 2008.10.21, modified 2011.05.06)
author=KOGA M, UNIV. OF OCCUPATIONAL AND ENVIRONMENTAL HEALTH
license=CC BY-NC-SA
exact mass=170.01346
ionization energy=70 eV
computed spectral entropy=2.204657834951444
computed normalized entropy=0.6547265064502218
SPLASH=splash10-004l-8900000000-e9ec98b066b58adce4fc
submitter=submitter = University of Tokyo Team (Faculty of Engineering, University of Tokyo)
MoNA Rating=3.75

>  <NUM PEAKS>  (2915) 
29

>  <MASS SPECTRAL PEAKS>  (2915) 
38 3.9
39 7.2
41 4.3
42 0.25
43 58.8
44 5.4
50 2.8
55 0.43
57 4.3
62 2.1
63 10.1
64 1.22
65 4.6
69 2.5
71 2.5
73 0.57
75 3.9
92 6.4
94 3.9
99 0.46
101 1.8
128 99.99
129 7.2
130 3.17
131 2.8
149 2.5
162 2.1
170 1.66
172 4.6

>  <PREDICTED SPECTRUM>  (2915) 
14 76
15 206
16 14
17 13
18 4
25 42
26 119
27 140
28 112
29 92
35 28
36 62
37 173
38 251
39 348
40 129
41 196
42 215
43 760
44 164
45 111
47 36
48 51
49 142
50 286
51 239
52 90
53 148
54 16
55 72
57 52
60 67
61 235
62 248
63 443
64 365
65 361
66 114
67 9
72 184
73 459
74 209
75 368
76 208
77 109
78 42
79 56
80 33
84 10
85 59
86 82
87 72
91 222
92 240
93 335
94 117
97 21
98 91
99 408
100 233
101 240
102 119
103 35
111 337
112 149
113 196
114 14
127 278
128 999
129 371
130 540
131 190
135 77
141 10
143 9
170 309
171 55
172 149
173 9

$$$$

     RDKit          2D

 22 23  0  0  0  0  0  0  0  0999 V2000
   -1.3000    0.7500    0.0000 C   0  0  0  0  0  0  0  0  0  0  0  0
   -0.0000   -1.5000    0.0000 C   0  0  0  0  0  0  0  0  0  0  0  0
    0.0000    1.5000    0.0000 C   0  0  0  0  0  0  0  0  0  0  0  0
    1.3000   -0.7500    0.0000 C   0  0  0  0  0  0  0  0  0  0  0  0
    3.8981    0.7504    0.0000 C   0  0  0  0  0  0  0  0  0  0  0  0
   -1.3000   -0.7500    0.0000 C   0  0  0  0  0  0  0  0  0  0  0  0
    1.3000    0.7500    0.0000 C   0  0  0  0  0  0  0  0  0  0  0  0
    5.1970    1.5006    0.0000 C   0  0  0  0  0  0  0  0  0  0  0  0
    6.4970    0.7506    0.0000 C   0  0  0  0  0  0  0  0  0  0  0  0
    5.1970    3.0006    0.0000 C   0  0  0  0  0  0  0  0  0  0  0  0
    7.7970    1.5006    0.0000 C   0  0  0  0  0  0  0  0  0  0  0  0
    6.4970    3.7506    0.0000 C   0  0  0  0  0  0  0  0  0  0  0  0
    7.7970    3.0006    0.0000 C   0  0  0  0  0  0  0  0  0  0  0  0
    6.4970   -0.7494    0.0000 F   0  0  0  0  0  0  0  0  0  0  0  0
    3.8981    3.7508    0.0000 F   0  0  0  0  0  0  0  0  0  0  0  0
    9.0959    0.7504    0.0000 F   0  0  0  0  0  0  0  0  0  0  0  0
    6.4970    5.2506    0.0000 F   0  0  0  0  0  0  0  0  0  0  0  0
    9.0959    3.7508    0.0000 F   0  0  0  0  0  0  0  0  0  0  0  0
   -2.5989   -1.5002    0.0000 N   0  0  0  0  0  0  0  0  0  0  0  0
   -3.8981   -0.7504    0.0000 O   0  0  0  0  0  0  0  0  0  0  0  0
   -2.5987   -3.0002    0.0000 O   0  0  0  0  0  0  0  0  0  0  0  0
    2.5989    1.5002    0.0000 O   0  0  0  0  0  0  0  0  0  0  0  0
  3  1  2  0
  4  2  1  0
  6  1  1  0
  6  2  2  0
  7  3  1  0
  7  4  2  0
  8  5  1  0
  9  8  2  0
 10  8  1  0
 11  9  1  0
 12 10  2  0
 13 11  2  0
 13 12  1  0
 14  9  1  0
 15 10  1  0
 16 11  1  0
 17 12  1  0
 18 13  1  0
 19  6  1  0
 20 19  1  0
 21 19  2  0
 22  5  1  0
 22  7  1  0
M  CHG  2  19   1  20  -1
M  END
>  <NAME>  (2916) 
4-NITROPHENYL PENTAFLUOROBENZYL ETHER

>  <SYNONYMS>  (2916) 


>  <SPECTRUM TYPE>  (2916) 
MS1

>  <INSTRUMENT TYPE>  (2916) 
EI-B

>  <INSTRUMENT>  (2916) 
JEOL JMS-01-SG

>  <ION MODE>  (2916) 
P

>  <INCHIKEY>  (2916) 
ZBEFSXOWVLJJQM-UHFFFAOYSA-N

>  <FORMULA>  (2916) 
C13H6F5NO3

>  <EXACT MASS>  (2916) 
319.026784152

>  <MW>  (2916) 
319

>  <ID>  (2916) 
JP007509

>  <CONTRIBUTOR>  (2916) 
University of Tokyo Team, {Faculty of Engineering, University of Tokyo

>  <COMMENT>  (2916) 
SMILES=[O-1][N+1](=O)c(c2)ccc(c2)OCc(c(F)1)c(F)c(F)c(F)c(F)1
InChI=InChI=1S/C13H6F5NO3/c14-9-8(10(15)12(17)13(18)11(9)16)5-22-7-3-1-6(2-4-7)19(20)21/h1-4H,5H2
computed SMILES=O=N(=O)C1=CC=C(OCC=2C(F)=C(F)C(F)=C(F)C2F)C=C1
accession=JP007509
date=2016.01.19 (Created 2008.10.21, modified 2011.05.06)
author=KOGA M, UNIV. OF OCCUPATIONAL AND ENVIRONMENTAL HEALTH
license=CC BY-NC-SA
exact mass=319.02678
ionization energy=70 eV
ion type=[M]+*
computed spectral entropy=1.8776747133524914
computed normalized entropy=0.5520628480652532
SPLASH=splash10-001i-3900000000-085d646b7576f5d9fc23
submitter=submitter = University of Tokyo Team (Faculty of Engineering, University of Tokyo)
MoNA Rating=3.75

>  <NUM PEAKS>  (2916) 
30

>  <MASS SPECTRAL PEAKS>  (2916) 
52 2.4
53 0.9
54 0.9
61 0.14
62 4
63 12.6
64 8.2
65 0.16
69 2.1
74 1.9
75 2.2
76 0.16
77 1.7
80 1.2
81 2.5
92 0.14
93 2.2
99 1.7
112 1.9
117 0.16
131 2.7
143 1.6
150 1.2
155 0.19
161 8.2
162 1.7
181 99.99
182 0.94
319 7.9
320 1.1

>  <PREDICTED SPECTRUM>  (2916) 
30 51
31 34
38 19
39 32
41 2
43 7
44 28
50 58
51 82
52 23
55 5
61 10
62 50
63 82
64 44
65 36
68 13
69 18
74 23
75 129
76 13
77 32
78 16
79 24
80 24
81 74
83 2
90 29
92 33
93 146
94 60
95 103
96 26
99 8
103 2
107 2
112 29
113 15
117 75
119 21
120 12
121 10
122 27
123 19
131 97
138 88
143 113
161 237
162 77
167 84
181 999
182 218
289 32
319 349
320 135

$$$$

     RDKit          2D

 23 24  0  0  0  0  0  0  0  0999 V2000
    4.5829    3.7332    0.0000 C   0  0  0  0  0  0  0  0  0  0  0  0
    0.6847    1.4818    0.0000 C   0  0  0  0  0  0  0  0  0  0  0  0
    1.9837    0.7318    0.0000 C   0  0  0  0  0  0  0  0  0  0  0  0
    1.9847    3.7334    0.0000 C   0  0  0  0  0  0  0  0  0  0  0  0
   -1.9129    2.9826    0.0000 C   0  0  0  0  0  0  0  0  0  0  0  0
    3.2837    2.9834    0.0000 C   0  0  0  0  0  0  0  0  0  0  0  0
    0.6852    2.9826    0.0000 C   0  0  0  0  0  0  0  0  0  0  0  0
   -3.2119    3.7326    0.0000 C   0  0  0  0  0  0  0  0  0  0  0  0
    3.2833    1.4826    0.0000 C   0  0  0  0  0  0  0  0  0  0  0  0
   -3.2122    5.2334    0.0000 C   0  0  0  0  0  0  0  0  0  0  0  0
   -4.5111    2.9828    0.0000 C   0  0  0  0  0  0  0  0  0  0  0  0
   -4.5116    5.9845    0.0000 C   0  0  0  0  0  0  0  0  0  0  0  0
   -5.8105    3.7339    0.0000 C   0  0  0  0  0  0  0  0  0  0  0  0
   -5.8107    5.2347    0.0000 C   0  0  0  0  0  0  0  0  0  0  0  0
   -1.9130    5.9832    0.0000 F   0  0  0  0  0  0  0  0  0  0  0  0
   -4.5116    1.4828    0.0000 F   0  0  0  0  0  0  0  0  0  0  0  0
   -4.5111    7.4845    0.0000 F   0  0  0  0  0  0  0  0  0  0  0  0
   -7.1096    2.9841    0.0000 F   0  0  0  0  0  0  0  0  0  0  0  0
   -7.1098    5.9847    0.0000 F   0  0  0  0  0  0  0  0  0  0  0  0
    4.5823    0.7326    0.0000 N   0  0  0  0  0  0  0  0  0  0  0  0
    4.5823   -0.7674    0.0000 O   0  0  0  0  0  0  0  0  0  0  0  0
    5.8813    1.4826    0.0000 O   0  0  0  0  0  0  0  0  0  0  0  0
   -0.6139    3.7326    0.0000 O   0  0  0  0  0  0  0  0  0  0  0  0
  3  2  2  0
  6  1  1  0
  6  4  1  0
  7  2  1  0
  7  4  2  0
  8  5  1  0
  9  3  1  0
  9  6  2  0
 10  8  2  0
 11  8  1  0
 12 10  1  0
 13 11  2  0
 14 12  2  0
 14 13  1  0
 15 10  1  0
 16 11  1  0
 17 12  1  0
 18 13  1  0
 19 14  1  0
 20  9  1  0
 21 20  1  0
 22 20  2  0
 23  5  1  0
 23  7  1  0
M  CHG  2  20   1  21  -1
M  END
>  <NAME>  (2917) 
3-METHYL-4-NITROPHENYL PENTAFLUOROBENZYL ETHER

>  <SYNONYMS>  (2917) 


>  <SPECTRUM TYPE>  (2917) 
MS1

>  <INSTRUMENT TYPE>  (2917) 
EI-B

>  <INSTRUMENT>  (2917) 
JEOL JMS-01-SG

>  <ION MODE>  (2917) 
P

>  <INCHIKEY>  (2917) 
WDUOVUNTQFSXIO-UHFFFAOYSA-N

>  <FORMULA>  (2917) 
C14H8F5NO3

>  <EXACT MASS>  (2917) 
333.042434216

>  <MW>  (2917) 
333

>  <ID>  (2917) 
JP007508

>  <CONTRIBUTOR>  (2917) 
University of Tokyo Team, {Faculty of Engineering, University of Tokyo

>  <COMMENT>  (2917) 
SMILES=[O-1][N+1](=O)c(c2)c(C)cc(c2)OCc(c(F)1)c(F)c(F)c(F)c(F)1
InChI=InChI=1S/C14H8F5NO3/c1-6-4-7(2-3-9(6)20(21)22)23-5-8-10(15)12(17)14(19)13(18)11(8)16/h2-4H,5H2,1H3
computed SMILES=O=N(=O)C1=CC=C(OCC=2C(F)=C(F)C(F)=C(F)C2F)C=C1C
accession=JP007508
date=2016.01.19 (Created 2008.10.21, modified 2011.05.06)
author=KOGA M, UNIV. OF OCCUPATIONAL AND ENVIRONMENTAL HEALTH
license=CC BY-NC-SA
exact mass=333.04243
ionization energy=70 eV
ion type=[M]+*
computed spectral entropy=1.5773442906636808
computed normalized entropy=0.49002955580874774
SPLASH=splash10-001i-1900000000-6b34426b76a4faaebc7b
submitter=submitter = University of Tokyo Team (Faculty of Engineering, University of Tokyo)
MoNA Rating=3.75

>  <NUM PEAKS>  (2917) 
25

>  <MASS SPECTRAL PEAKS>  (2917) 
51 6.4
52 5.3
53 0.9
62 0.11
63 2.3
69 1.1
75 1.3
77 0.31
78 2.4
80 0.9
81 1.4
89 0.13
93 1.3
131 1.6
136 1.3
152 0.03
155 1.3
161 3.6
162 1.3
181 99.99
182 10.7
262 1.1
316 1.3
333 2.24
334 3.8

>  <PREDICTED SPECTRUM>  (2917) 
38 0
39 51
41 8
44 5
50 30
51 103
52 42
53 55
55 18
57 14
62 31
63 61
64 27
65 44
71 1
73 25
75 70
76 5
77 143
78 85
79 86
80 64
81 101
89 22
91 18
92 64
93 135
94 63
95 12
96 20
99 54
105 4
106 33
107 88
108 99
109 69
110 27
111 1
112 12
117 61
120 5
121 18
127 4
130 32
131 130
133 4
134 83
135 74
136 83
137 23
143 60
152 127
153 27
155 121
161 207
162 99
167 1
181 999
182 274
288 0
316 16
333 288
334 92

$$$$

     RDKit          2D

 18 18  0  0  0  0  0  0  0  0999 V2000
    8.5453    0.2021    0.0000 C   0  0  0  0  0  0  0  0  0  0  0  0
    9.0940    2.2512    0.0000 C   0  0  0  0  0  0  0  0  0  0  0  0
    7.0449    2.8000    0.0000 C   0  0  0  0  0  0  0  0  0  0  0  0
   -1.3000    0.7500    0.0000 C   0  0  0  0  0  0  0  0  0  0  0  0
   -0.0000   -1.5000    0.0000 C   0  0  0  0  0  0  0  0  0  0  0  0
    0.0000    1.5000    0.0000 C   0  0  0  0  0  0  0  0  0  0  0  0
    1.3000   -0.7500    0.0000 C   0  0  0  0  0  0  0  0  0  0  0  0
    3.8981    0.7504    0.0000 C   0  0  0  0  0  0  0  0  0  0  0  0
   -1.3000   -0.7500    0.0000 C   0  0  0  0  0  0  0  0  0  0  0  0
    1.3000    0.7500    0.0000 C   0  0  0  0  0  0  0  0  0  0  0  0
    5.1970    1.5006    0.0000 C   0  0  0  0  0  0  0  0  0  0  0  0
   -2.5989   -1.5002    0.0000 N   0  0  0  0  0  0  0  0  0  0  0  0
    5.1968    3.0006    0.0000 O   0  0  0  0  0  0  0  0  0  0  0  0
   -3.8981   -0.7504    0.0000 O   0  0  0  0  0  0  0  0  0  0  0  0
   -2.5987   -3.0002    0.0000 O   0  0  0  0  0  0  0  0  0  0  0  0
    2.5989    1.5002    0.0000 O   0  0  0  0  0  0  0  0  0  0  0  0
    6.4962    0.7508    0.0000 O   0  0  0  0  0  0  0  0  0  0  0  0
    7.7951    1.5010    0.0000 Si  0  0  0  0  0  4  0  0  0  0  0  0
  6  4  2  0
  7  5  1  0
  9  4  1  0
  9  5  2  0
 10  6  1  0
 10  7  2  0
 11  8  1  0
 12  9  1  0
 13 11  2  0
 14 12  1  0
 15 12  2  0
 16  8  1  0
 16 10  1  0
 17 11  1  0
 18  1  1  0
 18  2  1  0
 18  3  1  0
 18 17  1  0
M  CHG  2  12   1  14  -1
M  END
>  <NAME>  (2918) 
4-NITROPHENOXYACETIC ACID TRIMETHYLSILYL ESTER

>  <SYNONYMS>  (2918) 


>  <SPECTRUM TYPE>  (2918) 
MS1

>  <INSTRUMENT TYPE>  (2918) 
EI-B

>  <INSTRUMENT>  (2918) 
JEOL JMS-01-SG

>  <ION MODE>  (2918) 
P

>  <INCHIKEY>  (2918) 
BQGPLKHQGVWGMH-UHFFFAOYSA-N

>  <FORMULA>  (2918) 
C11H15NO5Si

>  <EXACT MASS>  (2918) 
269.07194911

>  <MW>  (2918) 
269

>  <ID>  (2918) 
JP007507

>  <CONTRIBUTOR>  (2918) 
University of Tokyo Team, {Faculty of Engineering, University of Tokyo

>  <COMMENT>  (2918) 
SMILES=[O-1][N+1](=O)c(c1)ccc(OCC(=O)O[Si](C)(C)C)c1
InChI=InChI=1S/C11H15NO5Si/c1-18(2,3)17-11(13)8-16-10-6-4-9(5-7-10)12(14)15/h4-7H,8H2,1-3H3
computed SMILES=O=C(O[Si](C)(C)C)COC1=CC=C(C=C1)N(=O)=O
accession=JP007507
date=2016.01.19 (Created 2008.10.21, modified 2011.05.06)
author=KOGA M, UNIV. OF OCCUPATIONAL AND ENVIRONMENTAL HEALTH
license=CC BY-NC-SA
exact mass=269.07195
ionization energy=70 eV
ion type=[M]+*
computed spectral entropy=3.5489941297106253
computed normalized entropy=0.788698720550584
SPLASH=splash10-0092-9510000000-e2b477ffb9d73995dd0f
submitter=submitter = University of Tokyo Team (Faculty of Engineering, University of Tokyo)
MoNA Rating=3.75

>  <NUM PEAKS>  (2918) 
90

>  <MASS SPECTRAL PEAKS>  (2918) 
43 7.4
44 4.3
45 25.4
46 0.12
47 13.6
50 13
51 3.7
52 0.12
53 1.2
55 1.2
57 1.2
58 0.74
59 5.5
61 6.2
63 8.6
64 0.74
65 1.2
69 2.4
71 3.1
72 1.05
73 43.4
74 40.9
75 99.99
76 2.6
77 9.3
78 6.2
79 1.2
83 0.18
88 3.1
89 1.2
91 4.3
92 0.93
93 1.8
101 3.7
103 1.2
104 0.18
105 2.4
106 5.5
107 9.9
108 0.99
115 3.1
116 9.3
117 16.1
118 0.18
119 1.2
120 1.2
121 2.4
122 0.31
123 1.2
127 1.2
129 1.2
130 0.18
131 2.4
132 3.1
134 1.2
135 1.36
136 4.9
148 1.2
149 26
150 1.18
151 3.7
152 1.8
163 1.8
164 5.21
165 9.3
166 3.1
168 1.8
179 0.12
180 8
181 1.2
182 1.2
193 0.24
195 12.4
196 44
197 8
198 0.12
208 5.5
210 4.3
224 16.1
225 0.74
226 9.3
227 1.2
237 1.8
239 0.24
253 1.2
254 14.9
255 2.4
269 2.85
270 4.3
271 1.2

>  <PREDICTED SPECTRUM>  (2918) 
14 11
15 28
26 9
29 16
30 48
31 20
37 12
38 50
39 20
40 10
41 48
42 81
43 226
44 119
45 448
46 154
47 183
48 84
49 52
50 153
51 123
52 92
53 131
54 49
55 66
57 35
58 113
59 226
60 90
61 213
62 122
63 176
64 137
65 90
66 49
67 32
68 47
69 59
70 25
71 55
72 97
73 999
74 349
75 726
76 278
77 282
78 127
79 150
80 29
81 50
82 54
83 94
84 46
85 52
86 19
87 46
88 45
89 107
90 93
91 212
92 182
93 105
94 1
95 45
96 23
97 5
99 29
101 49
102 12
103 81
104 156
105 159
106 138
107 153
108 105
109 82
110 27
111 46
115 58
116 58
117 211
118 55
119 102
120 119
121 174
122 137
123 84
124 17
125 40
128 14
129 3
130 65
131 206
132 104
133 62
134 103
135 211
136 122
137 80
138 71
139 18
140 15
147 19
148 101
149 259
150 124
151 145
152 96
163 21
164 163
165 190
166 236
167 35
168 58
178 1
179 55
180 210
181 12
182 73
192 0
193 13
194 83
195 232
196 420
197 203
198 112
207 5
208 124
209 96
210 183
211 96
222 6
223 23
224 147
225 118
226 103
227 15
239 32
254 316
255 119
256 17
269 262
270 111
271 20

$$$$

     RDKit          2D

 15 15  0  0  0  0  0  0  0  0999 V2000
    6.9738   -2.7221    0.0000 C   0  0  0  0  0  0  0  0  0  0  0  0
   -1.3710   -0.6754    0.0000 C   0  0  0  0  0  0  0  0  0  0  0  0
   -3.4201   -1.2241    0.0000 C   0  0  0  0  0  0  0  0  0  0  0  0
   -2.8714   -3.2732    0.0000 C   0  0  0  0  0  0  0  0  0  0  0  0
    4.3700    0.2679    0.0000 C   0  0  0  0  0  0  0  0  0  0  0  0
    5.6690   -0.4821    0.0000 C   0  0  0  0  0  0  0  0  0  0  0  0
    3.0755   -0.4743    0.0000 C   0  0  0  0  0  0  0  0  0  0  0  0
    4.3740   -2.7251    0.0000 C   0  0  0  0  0  0  0  0  0  0  0  0
    1.7758   -2.7249    0.0000 C   0  0  0  0  0  0  0  0  0  0  0  0
    5.6735   -1.9743    0.0000 C   0  0  0  0  0  0  0  0  0  0  0  0
    3.0750   -1.9751    0.0000 C   0  0  0  0  0  0  0  0  0  0  0  0
    0.4769   -1.9747    0.0000 C   0  0  0  0  0  0  0  0  0  0  0  0
    0.4771   -0.4747    0.0000 O   0  0  0  0  0  0  0  0  0  0  0  0
   -0.8223   -2.7245    0.0000 O   0  0  0  0  0  0  0  0  0  0  0  0
   -2.1212   -1.9743    0.0000 Si  0  0  0  0  0  4  0  0  0  0  0  0
  6  5  2  0
  7  5  1  0
 10  1  1  0
 10  6  1  0
 10  8  2  0
 11  7  2  0
 11  8  1  0
 11  9  1  0
 12  9  1  0
 13 12  2  0
 14 12  1  0
 15  2  1  0
 15  3  1  0
 15  4  1  0
 15 14  1  0
M  END
>  <NAME>  (2919) 
3-METHYLPHENYLACETIC ACID TRIMETHYLSILYL ESTER

>  <SYNONYMS>  (2919) 


>  <SPECTRUM TYPE>  (2919) 
MS1

>  <INSTRUMENT TYPE>  (2919) 
EI-B

>  <INSTRUMENT>  (2919) 
JEOL JMS-01-SG

>  <ION MODE>  (2919) 
P

>  <INCHIKEY>  (2919) 
DSHGJKVPWKCBSY-UHFFFAOYSA-N

>  <FORMULA>  (2919) 
C12H18O2Si

>  <EXACT MASS>  (2919) 
222.107606346

>  <MW>  (2919) 
222

>  <ID>  (2919) 
JP007506

>  <CONTRIBUTOR>  (2919) 
University of Tokyo Team, {Faculty of Engineering, University of Tokyo

>  <COMMENT>  (2919) 
SMILES=Cc(c1)cc(cc1)CC(=O)O[Si](C)(C)C
InChI=InChI=1S/C12H18O2Si/c1-10-6-5-7-11(8-10)9-12(13)14-15(2,3)4/h5-8H,9H2,1-4H3
computed SMILES=O=C(O[Si](C)(C)C)CC=1C=CC=C(C1)C
accession=JP007506
date=2016.01.19 (Created 2008.10.21, modified 2011.05.06)
author=KOGA M, UNIV. OF OCCUPATIONAL AND ENVIRONMENTAL HEALTH
license=CC BY-NC-SA
exact mass=222.10761
ionization energy=70 eV
ion type=[M]+*
computed spectral entropy=1.9033213757482337
computed normalized entropy=0.5774925923611335
SPLASH=splash10-00di-9100000000-bf7219c485bc2f2b9b60
submitter=submitter = University of Tokyo Team (Faculty of Engineering, University of Tokyo)
MoNA Rating=3.75

>  <NUM PEAKS>  (2919) 
27

>  <MASS SPECTRAL PEAKS>  (2919) 
43 2.3
44 1.7
45 6.1
47 0.34
51 1.9
58 1.2
59 0.8
61 0.23
63 1
65 1
72 1.4
73 99.99
74 9.1
75 23.7
76 1.7
77 0.66
78 2.1
79 2.9
103 3.6
104 0.17
151 2.3
178 10.8
179 3.6
207 1
208 1.2
222 4.9
223 0.8

>  <PREDICTED SPECTRUM>  (2919) 
39 33
41 31
43 117
44 107
45 244
47 139
50 47
51 93
52 90
53 57
58 16
59 118
60 26
61 184
62 33
63 60
64 5
65 81
66 11
72 74
73 999
74 270
75 472
76 108
77 169
78 119
79 112
89 99
90 61
91 93
92 28
93 14
102 0
103 81
104 213
105 252
106 55
117 70
132 77
148 34
149 44
150 27
163 50
178 279
179 251
180 55
207 282
208 128
209 28
222 259
223 108
224 61

$$$$

     RDKit          2D

 19 19  0  0  0  0  0  0  0  0999 V2000
   -1.6738    1.3992    0.0000 C   0  0  0  0  0  0  0  0  0  0  0  0
   -4.8209    4.9482    0.0000 C   0  0  0  0  0  0  0  0  0  0  0  0
   -6.8700    4.3992    0.0000 C   0  0  0  0  0  0  0  0  0  0  0  0
   -6.3209    2.3501    0.0000 C   0  0  0  0  0  0  0  0  0  0  0  0
    3.5228    2.9000    0.0000 C   0  0  0  0  0  0  0  0  0  0  0  0
    0.9238    1.3983    0.0000 C   0  0  0  0  0  0  0  0  0  0  0  0
   -1.6738    2.8992    0.0000 C   0  0  0  0  0  0  0  0  0  0  0  0
    3.5223    1.3992    0.0000 C   0  0  0  0  0  0  0  0  0  0  0  0
    2.2228    0.6483    0.0000 C   0  0  0  0  0  0  0  0  0  0  0  0
    2.2238    3.6500    0.0000 C   0  0  0  0  0  0  0  0  0  0  0  0
    0.9242    2.8992    0.0000 C   0  0  0  0  0  0  0  0  0  0  0  0
   -2.9729    3.6492    0.0000 C   0  0  0  0  0  0  0  0  0  0  0  0
    4.8214    0.6492    0.0000 Cl  0  0  0  0  0  0  0  0  0  0  0  0
    2.2230   -0.8517    0.0000 Cl  0  0  0  0  0  0  0  0  0  0  0  0
    2.2235    5.1500    0.0000 Cl  0  0  0  0  0  0  0  0  0  0  0  0
   -2.9729    5.1492    0.0000 O   0  0  0  0  0  0  0  0  0  0  0  0
   -0.3748    3.6492    0.0000 O   0  0  0  0  0  0  0  0  0  0  0  0
   -4.2719    2.8992    0.0000 O   0  0  0  0  0  0  0  0  0  0  0  0
   -5.5709    3.6492    0.0000 Si  0  0  0  0  0  4  0  0  0  0  0  0
  7  1  1  0
  8  5  2  0
  9  6  2  0
  9  8  1  0
 10  5  1  0
 11  6  1  0
 11 10  2  0
 12  7  1  0
 13  8  1  0
 14  9  1  0
 15 10  1  0
 16 12  2  0
 17  7  1  0
 17 11  1  0
 18 12  1  0
 19  2  1  0
 19  3  1  0
 19  4  1  0
 19 18  1  0
M  END
>  <NAME>  (2920) 
2-(2,4,5-TRICHLOROPHENOXY)PROPIONIC ACID TRIMETHYLSILYL ESTER

>  <SYNONYMS>  (2920) 


>  <SPECTRUM TYPE>  (2920) 
MS1

>  <INSTRUMENT TYPE>  (2920) 
EI-B

>  <INSTRUMENT>  (2920) 
JEOL JMS-01-SG

>  <ION MODE>  (2920) 
P

>  <INCHIKEY>  (2920) 
NQIWQVQFFUQDCC-UHFFFAOYSA-N

>  <FORMULA>  (2920) 
C12H15Cl3O3Si

>  <EXACT MASS>  (2920) 
339.98560391

>  <MW>  (2920) 
340

>  <ID>  (2920) 
JP007505

>  <CONTRIBUTOR>  (2920) 
University of Tokyo Team, {Faculty of Engineering, University of Tokyo

>  <COMMENT>  (2920) 
SMILES=CC(Oc(c1)c(Cl)cc(Cl)c(Cl)1)C(=O)O[Si](C)(C)C
InChI=InChI=1S/C12H15Cl3O3Si/c1-7(12(16)18-19(2,3)4)17-11-6-9(14)8(13)5-10(11)15/h5-7H,1-4H3
computed SMILES=O=C(O[Si](C)(C)C)C(OC1=CC(Cl)=C(Cl)C=C1Cl)C
accession=JP007505
date=2016.01.19 (Created 2008.10.21, modified 2011.05.06)
author=KOGA M, UNIV. OF OCCUPATIONAL AND ENVIRONMENTAL HEALTH
license=CC BY-NC-SA
exact mass=339.9856
ionization energy=70 eV
ion type=[M]+*
computed spectral entropy=2.281773812558168
computed normalized entropy=0.6923200101601057
SPLASH=splash10-00di-9000000000-db262d74b10a190fb816
submitter=submitter = University of Tokyo Team (Faculty of Engineering, University of Tokyo)
MoNA Rating=3.75

>  <NUM PEAKS>  (2920) 
27

>  <MASS SPECTRAL PEAKS>  (2920) 
43 4
44 2.7
45 7.4
47 0.54
55 12.1
58 1.3
61 2
73 99.99
74 11.4
75 27
76 2.7
77 0.06
93 8.1
95 2.7
97 2
117 1.28
129 10.1
145 2.7
196 4
198 0.4
253 6
255 6.7
281 4.7
283 0.54
305 0.6
340 6
342 6

>  <PREDICTED SPECTRUM>  (2920) 
15 27
26 7
27 61
28 54
29 78
31 41
35 8
36 23
38 25
39 41
40 9
41 95
42 46
43 227
44 101
45 299
46 3
47 98
48 4
49 32
50 24
51 43
53 81
54 22
55 131
56 55
57 109
58 98
59 119
60 34
61 121
62 92
63 87
65 53
66 13
67 47
68 4
69 40
70 54
71 43
72 95
73 999
74 323
75 480
76 99
77 102
79 34
81 29
82 20
83 112
84 39
85 46
86 52
87 78
88 65
89 83
90 33
91 31
93 231
95 130
96 36
97 122
99 52
100 10
101 49
102 27
103 51
106 0
107 65
109 69
110 13
111 45
112 7
113 85
115 94
116 44
117 252
123 55
124 8
125 33
126 22
127 63
128 10
129 172
130 21
131 64
132 18
133 9
134 56
135 54
137 26
139 70
140 5
141 2
142 14
143 119
144 72
145 249
146 88
147 89
148 20
149 18
151 11
153 18
154 21
155 16
160 10
161 26
163 33
167 50
168 5
169 45
171 112
173 11
175 15
177 43
181 3
182 31
183 4
187 48
188 44
189 32
191 3
192 19
193 10
195 49
196 213
197 102
199 38
204 0
212 0
216 16
217 76
218 2
219 56
223 12
235 5
237 8
253 204
254 70
255 196
256 57
257 78
281 106
283 48
297 2
299 3
305 50
307 43
321 7
325 8
340 211
341 76
342 161
343 33
344 82
345 26

$$$$

     RDKit          2D

 22 22  0  0  0  0  0  0  0  0999 V2000
   -0.4986    6.7816    0.0000 C   0  0  0  0  0  0  0  0  0  0  0  0
   -1.9986    8.2816    0.0000 C   0  0  0  0  0  0  0  0  0  0  0  0
   -3.4986    6.7816    0.0000 C   0  0  0  0  0  0  0  0  0  0  0  0
   -6.4447    6.5806    0.0000 C   0  0  0  0  0  0  0  0  0  0  0  0
   -8.4937    6.0316    0.0000 C   0  0  0  0  0  0  0  0  0  0  0  0
   -7.9447    3.9826    0.0000 C   0  0  0  0  0  0  0  0  0  0  0  0
    4.4966    3.0316    0.0000 C   0  0  0  0  0  0  0  0  0  0  0  0
    4.4971    4.5324    0.0000 C   0  0  0  0  0  0  0  0  0  0  0  0
    3.1971    2.2808    0.0000 C   0  0  0  0  0  0  0  0  0  0  0  0
    3.1981    5.2824    0.0000 C   0  0  0  0  0  0  0  0  0  0  0  0
    1.8981    3.0308    0.0000 C   0  0  0  0  0  0  0  0  0  0  0  0
    0.5995    5.2816    0.0000 C   0  0  0  0  0  0  0  0  0  0  0  0
   -3.2976    4.5316    0.0000 C   0  0  0  0  0  0  0  0  0  0  0  0
    1.8986    4.5316    0.0000 C   0  0  0  0  0  0  0  0  0  0  0  0
   -0.6995    4.5316    0.0000 C   0  0  0  0  0  0  0  0  0  0  0  0
   -4.5966    5.2816    0.0000 C   0  0  0  0  0  0  0  0  0  0  0  0
   -1.9986    5.2816    0.0000 N   0  0  0  0  0  0  0  0  0  0  0  0
   -0.6995    3.0316    0.0000 O   0  0  0  0  0  0  0  0  0  0  0  0
   -4.5966    6.7816    0.0000 O   0  0  0  0  0  0  0  0  0  0  0  0
   -5.8957    4.5316    0.0000 O   0  0  0  0  0  0  0  0  0  0  0  0
   -1.9986    6.7816    0.0000 Si  0  0  0  0  0  4  0  0  0  0  0  0
   -7.1947    5.2816    0.0000 Si  0  0  0  0  0  4  0  0  0  0  0  0
  8  7  2  0
  9  7  1  0
 10  8  1  0
 11  9  2  0
 14 10  2  0
 14 11  1  0
 14 12  1  0
 15 12  1  0
 16 13  1  0
 17 13  1  0
 17 15  1  0
 18 15  2  0
 19 16  2  0
 20 16  1  0
 21  1  1  0
 21  2  1  0
 21  3  1  0
 21 17  1  0
 22  4  1  0
 22  5  1  0
 22  6  1  0
 22 20  1  0
M  END
>  <NAME>  (2921) 
N-TRIMETHYLSILYLPHENYLACETYLGLYCINE TRIMETHYLSILYL ESTER

>  <SYNONYMS>  (2921) 


>  <SPECTRUM TYPE>  (2921) 
MS1

>  <INSTRUMENT TYPE>  (2921) 
EI-B

>  <INSTRUMENT>  (2921) 
JEOL JMS-01-SG

>  <ION MODE>  (2921) 
P

>  <INCHIKEY>  (2921) 
ANMSCIPIBILVCV-UHFFFAOYSA-N

>  <FORMULA>  (2921) 
C16H27NO3Si2

>  <EXACT MASS>  (2921) 
337.152946784

>  <MW>  (2921) 
337

>  <ID>  (2921) 
JP007503

>  <CONTRIBUTOR>  (2921) 
University of Tokyo Team, {Faculty of Engineering, University of Tokyo

>  <COMMENT>  (2921) 
SMILES=c(c1)ccc(c1)CC(=O)N(CC(=O)O[Si](C)(C)C)[Si](C)(C)C
InChI=InChI=1S/C16H27NO3Si2/c1-21(2,3)17(13-16(19)20-22(4,5)6)15(18)12-14-10-8-7-9-11-14/h7-11H,12-13H2,1-6H3
computed SMILES=O=C(O[Si](C)(C)C)CN(C(=O)CC=1C=CC=CC1)[Si](C)(C)C
accession=JP007503
date=2016.01.19 (Created 2008.10.21, modified 2011.05.06)
author=KOGA M, UNIV. OF OCCUPATIONAL AND ENVIRONMENTAL HEALTH
license=CC BY-NC-SA
exact mass=337.15295
ionization energy=70 eV
ion type=[M]+*
computed spectral entropy=2.7570978583890695
computed normalized entropy=0.7201243399074558
SPLASH=splash10-00di-9220000000-2a758eec95e4ae7d77f8
submitter=submitter = University of Tokyo Team (Faculty of Engineering, University of Tokyo)
MoNA Rating=3.75

>  <NUM PEAKS>  (2921) 
46

>  <MASS SPECTRAL PEAKS>  (2921) 
43 3.8
44 4.5
45 14.8
47 0.51
56 1.2
59 3.8
65 5.1
72 0.19
73 99.99
74 9.6
75 16.1
76 0.12
77 1.9
86 3.2
91 30.6
92 0.45
100 1.9
102 27
103 1.9
104 0.19
105 1.2
116 1.9
117 1.9
118 0.32
130 1.9
131 2.5
133 1.9
147 1.22
148 1.9
149 1.2
174 3.2
176 0.96
177 1.2
218 18
219 3.8
220 1.48
221 2.5
246 19.3
247 5.1
248 0.19
294 3.2
322 5.1
323 1.2
336 0.19
337 10.3
338 2.5

>  <PREDICTED SPECTRUM>  (2921) 
15 9
27 37
28 8
29 17
30 32
39 36
41 37
42 31
43 81
44 48
45 230
46 9
47 38
50 4
51 36
52 4
54 11
55 77
56 99
57 48
58 140
59 146
60 43
61 76
62 1
63 54
65 165
66 40
68 0
69 30
70 3
71 18
72 46
73 999
74 256
75 370
76 92
77 155
78 29
79 1
83 14
84 55
85 7
86 107
88 24
89 83
90 50
91 726
92 161
93 1
100 60
102 312
103 67
104 212
105 139
106 26
107 44
115 6
116 102
117 58
118 30
119 73
120 34
123 2
128 11
129 41
130 323
131 164
132 100
133 38
134 24
135 2
136 27
137 37
147 189
148 160
149 37
156 27
158 24
163 14
164 9
174 74
175 73
176 138
179 9
184 19
189 33
190 59
191 51
203 25
204 51
205 35
209 15
210 21
218 359
219 172
220 316
221 75
246 431
247 253
248 110
250 34
293 15
294 112
308 15
322 226
323 110
324 5
337 284
338 148
339 63

$$$$

     RDKit          2D

 18 19  0  0  0  0  0  0  0  0999 V2000
    6.6864   -0.6883    0.0000 C   0  0  0  0  0  0  0  0  0  0  0  0
    8.7353   -0.1390    0.0000 C   0  0  0  0  0  0  0  0  0  0  0  0
    8.1859    1.9100    0.0000 C   0  0  0  0  0  0  0  0  0  0  0  0
   -2.9500   -0.8900    0.0000 C   0  0  0  0  0  0  0  0  0  0  0  0
   -2.9500    0.6100    0.0000 C   0  0  0  0  0  0  0  0  0  0  0  0
   -1.6500   -1.6400    0.0000 C   0  0  0  0  0  0  0  0  0  0  0  0
   -1.6500    1.3600    0.0000 C   0  0  0  0  0  0  0  0  0  0  0  0
    2.2400   -0.8900    0.0000 C   0  0  0  0  0  0  0  0  0  0  0  0
    0.9400   -1.6400    0.0000 C   0  0  0  0  0  0  0  0  0  0  0  0
    0.9400    1.3600    0.0000 C   0  0  0  0  0  0  0  0  0  0  0  0
    3.5389    1.3602    0.0000 C   0  0  0  0  0  0  0  0  0  0  0  0
    2.2400    0.6100    0.0000 C   0  0  0  0  0  0  0  0  0  0  0  0
   -0.3500   -0.8900    0.0000 C   0  0  0  0  0  0  0  0  0  0  0  0
   -0.3500    0.6100    0.0000 C   0  0  0  0  0  0  0  0  0  0  0  0
    4.8381    0.6104    0.0000 C   0  0  0  0  0  0  0  0  0  0  0  0
    4.8383   -0.8896    0.0000 O   0  0  0  0  0  0  0  0  0  0  0  0
    6.1370    1.3606    0.0000 O   0  0  0  0  0  0  0  0  0  0  0  0
    7.4362    0.6108    0.0000 Si  0  0  0  0  0  4  0  0  0  0  0  0
  5  4  2  0
  6  4  1  0
  7  5  1  0
  9  8  2  0
 12  8  1  0
 12 10  2  0
 12 11  1  0
 13  6  2  0
 13  9  1  0
 14  7  2  0
 14 10  1  0
 14 13  1  0
 15 11  1  0
 16 15  2  0
 17 15  1  0
 18  1  1  0
 18  2  1  0
 18  3  1  0
 18 17  1  0
M  END
>  <NAME>  (2922) 
2-NAPHTHALENEACETIC ACID TRIMETHYLSILYL ESTER

>  <SYNONYMS>  (2922) 


>  <SPECTRUM TYPE>  (2922) 
MS1

>  <INSTRUMENT TYPE>  (2922) 
EI-B

>  <INSTRUMENT>  (2922) 
JEOL JMS-01-SG

>  <ION MODE>  (2922) 
P

>  <INCHIKEY>  (2922) 
JDDRRLKCWBOIEK-UHFFFAOYSA-N

>  <FORMULA>  (2922) 
C15H18O2Si

>  <EXACT MASS>  (2922) 
258.107606346

>  <MW>  (2922) 
258

>  <ID>  (2922) 
JP007502

>  <CONTRIBUTOR>  (2922) 
University of Tokyo Team, {Faculty of Engineering, University of Tokyo

>  <COMMENT>  (2922) 
SMILES=O=C(Cc(c1)cc(c2)c(ccc2)c1)O[Si](C)(C)C
InChI=InChI=1S/C15H18O2Si/c1-18(2,3)17-15(16)11-12-8-9-13-6-4-5-7-14(13)10-12/h4-10H,11H2,1-3H3
computed SMILES=O=C(O[Si](C)(C)C)CC=1C=CC=2C=CC=CC2C1
accession=JP007502
date=2016.01.19 (Created 2008.10.21, modified 2011.05.06)
author=KOGA M, UNIV. OF OCCUPATIONAL AND ENVIRONMENTAL HEALTH
license=CC BY-NC-SA
exact mass=258.10761
ionization energy=70 eV
ion type=[M]+*
computed spectral entropy=1.6977136790543854
computed normalized entropy=0.599218439591219
SPLASH=splash10-00di-9100000000-89637052f4b3e90f878a
submitter=submitter = University of Tokyo Team (Faculty of Engineering, University of Tokyo)
MoNA Rating=3.75

>  <NUM PEAKS>  (2922) 
17

>  <MASS SPECTRAL PEAKS>  (2922) 
44 1.3
45 5.8
47 1.3
73 99.99
74 8.6
75 15.5
115 8.6
121 0.13
139 5.5
140 3.4
141 9.6
214 1
215 2
243 6.9
244 1.3
258 1.1
259 2

>  <PREDICTED SPECTRUM>  (2922) 
14 0
27 9
29 36
39 44
41 7
42 3
43 57
44 155
45 271
46 11
47 194
48 2
49 20
50 30
51 95
52 1
55 35
56 25
57 91
58 116
59 121
60 49
61 163
62 107
63 159
64 91
70 47
71 19
72 54
73 999
74 287
75 559
76 136
77 231
78 50
81 32
88 10
89 125
90 66
95 21
97 30
99 59
102 43
104 18
105 48
113 6
114 24
115 330
116 204
117 99
121 9
125 56
126 82
127 213
128 101
129 22
131 46
139 89
140 151
141 670
142 282
143 92
153 27
154 11
155 51
156 12
168 184
169 135
170 56
183 57
184 59
199 77
214 124
215 60
243 249
244 96
258 605
259 274
260 134
261 40

$$$$

     RDKit          2D

 16 16  0  0  0  0  0  0  0  0999 V2000
    3.5283   -0.9596    0.0000 C   0  0  0  0  0  0  0  0  0  0  0  0
    8.1753   -0.0079    0.0000 C   0  0  0  0  0  0  0  0  0  0  0  0
    8.7240    2.0412    0.0000 C   0  0  0  0  0  0  0  0  0  0  0  0
    6.6749    2.5900    0.0000 C   0  0  0  0  0  0  0  0  0  0  0  0
   -1.6700   -0.9600    0.0000 C   0  0  0  0  0  0  0  0  0  0  0  0
   -1.6700    0.5400    0.0000 C   0  0  0  0  0  0  0  0  0  0  0  0
   -0.3700   -1.7100    0.0000 C   0  0  0  0  0  0  0  0  0  0  0  0
   -0.3700    1.2900    0.0000 C   0  0  0  0  0  0  0  0  0  0  0  0
    0.9300   -0.9600    0.0000 C   0  0  0  0  0  0  0  0  0  0  0  0
    3.5281    0.5404    0.0000 C   0  0  0  0  0  0  0  0  0  0  0  0
    0.9300    0.5400    0.0000 C   0  0  0  0  0  0  0  0  0  0  0  0
    4.8270    1.2906    0.0000 C   0  0  0  0  0  0  0  0  0  0  0  0
    4.8268    2.7906    0.0000 O   0  0  0  0  0  0  0  0  0  0  0  0
    2.2289    1.2902    0.0000 O   0  0  0  0  0  0  0  0  0  0  0  0
    6.1262    0.5408    0.0000 O   0  0  0  0  0  0  0  0  0  0  0  0
    7.4251    1.2910    0.0000 Si  0  0  0  0  0  4  0  0  0  0  0  0
  6  5  2  0
  7  5  1  0
  8  6  1  0
  9  7  2  0
 10  1  1  0
 11  8  2  0
 11  9  1  0
 12 10  1  0
 13 12  2  0
 14 10  1  0
 14 11  1  0
 15 12  1  0
 16  2  1  0
 16  3  1  0
 16  4  1  0
 16 15  1  0
M  END
>  <NAME>  (2923) 
2-PHENOXYPROPIONIC ACID TRIMETHYLSILYL ESTER

>  <SYNONYMS>  (2923) 


>  <SPECTRUM TYPE>  (2923) 
MS1

>  <INSTRUMENT TYPE>  (2923) 
EI-B

>  <INSTRUMENT>  (2923) 
JEOL JMS-01-SG

>  <ION MODE>  (2923) 
P

>  <INCHIKEY>  (2923) 
NXGVSPLHWFXLIA-UHFFFAOYSA-N

>  <FORMULA>  (2923) 
C12H18O3Si

>  <EXACT MASS>  (2923) 
238.102520966

>  <MW>  (2923) 
238

>  <ID>  (2923) 
JP007501

>  <CONTRIBUTOR>  (2923) 
University of Tokyo Team, {Faculty of Engineering, University of Tokyo

>  <COMMENT>  (2923) 
SMILES=CC(Oc(c1)cccc1)C(=O)O[Si](C)(C)C
InChI=InChI=1S/C12H18O3Si/c1-10(12(13)15-16(2,3)4)14-11-8-6-5-7-9-11/h5-10H,1-4H3
computed SMILES=O=C(O[Si](C)(C)C)C(OC=1C=CC=CC1)C
accession=JP007501
date=2016.01.19 (Created 2008.10.21, modified 2011.05.06)
author=KOGA M, UNIV. OF OCCUPATIONAL AND ENVIRONMENTAL HEALTH
license=CC BY-NC-SA
exact mass=238.10252
ionization energy=70 eV
ion type=[M]+*
computed spectral entropy=2.8559632285175685
computed normalized entropy=0.737746043274507
SPLASH=splash10-00fr-9310000000-3637358809b504590d29
submitter=submitter = University of Tokyo Team (Faculty of Engineering, University of Tokyo)
MoNA Rating=3.75

>  <NUM PEAKS>  (2923) 
48

>  <MASS SPECTRAL PEAKS>  (2923) 
43 5.4
44 3.7
45 9.1
47 0.7
50 1.6
51 9.9
55 7.7
56 0.09
58 1.4
59 2.3
61 3.3
63 0.09
65 5.6
66 1.1
72 1.8
73 99.99
74 10.3
75 46.4
76 1.6
77 2.83
78 1.8
86 1.1
91 4.2
93 0.66
94 11
95 1.1
103 2.3
105 0.14
112 0.9
117 6.1
120 1.1
121 8.67
122 7.3
129 8.2
130 1.6
135 0.28
151 20
152 2.3
153 0.9
177 1.17
178 1.8
179 21.9
180 4
195 0.35
223 2.8
238 29.7
239 5.4
240 0.9

>  <PREDICTED SPECTRUM>  (2923) 
38 25
39 43
40 12
41 28
42 8
43 93
44 61
45 288
47 178
50 52
51 132
52 48
53 28
55 127
56 70
57 68
58 26
59 67
61 124
62 22
63 66
64 31
65 150
66 103
67 37
72 76
73 999
74 217
75 553
76 143
77 320
78 99
79 56
90 12
91 81
92 30
93 128
94 329
95 54
101 144
103 117
104 67
105 65
111 61
117 112
118 76
119 15
120 23
121 337
122 79
129 148
130 11
131 22
135 34
138 27
147 20
148 66
151 520
152 147
153 56
166 80
177 111
179 382
180 35
194 60
195 100
196 4
223 149
224 31
238 497
239 201
240 86

$$$$

     RDKit          2D

 17 16  0  0  0  0  0  0  0  0999 V2000
    3.4755    1.5736    0.0000 C   0  0  0  0  0  0  0  0  0  0  0  0
    9.4216    4.3726    0.0000 C   0  0  0  0  0  0  0  0  0  0  0  0
    7.9216    1.7745    0.0000 C   0  0  0  0  0  0  0  0  0  0  0  0
    9.9707    2.3236    0.0000 C   0  0  0  0  0  0  0  0  0  0  0  0
    0.3284    5.1226    0.0000 C   0  0  0  0  0  0  0  0  0  0  0  0
   -1.7207    4.5736    0.0000 C   0  0  0  0  0  0  0  0  0  0  0  0
   -1.1716    2.5245    0.0000 C   0  0  0  0  0  0  0  0  0  0  0  0
    4.7745    3.8236    0.0000 C   0  0  0  0  0  0  0  0  0  0  0  0
    3.4755    3.0736    0.0000 C   0  0  0  0  0  0  0  0  0  0  0  0
    6.0736    3.0736    0.0000 C   0  0  0  0  0  0  0  0  0  0  0  0
    2.1764    3.8236    0.0000 C   0  0  0  0  0  0  0  0  0  0  0  0
    6.0736    1.5736    0.0000 O   0  0  0  0  0  0  0  0  0  0  0  0
    2.1764    5.3236    0.0000 O   0  0  0  0  0  0  0  0  0  0  0  0
    7.3726    3.8236    0.0000 O   0  0  0  0  0  0  0  0  0  0  0  0
    0.8774    3.0736    0.0000 O   0  0  0  0  0  0  0  0  0  0  0  0
    8.6716    3.0736    0.0000 Si  0  0  0  0  0  4  0  0  0  0  0  0
   -0.4216    3.8236    0.0000 Si  0  0  0  0  0  4  0  0  0  0  0  0
  9  1  1  0
  9  8  1  0
 10  8  1  0
 11  9  1  0
 12 10  2  0
 13 11  2  0
 14 10  1  0
 15 11  1  0
 16  2  1  0
 16  3  1  0
 16  4  1  0
 16 14  1  0
 17  5  1  0
 17  6  1  0
 17  7  1  0
 17 15  1  0
M  END
>  <NAME>  (2924) 
METHYLSUCCINIC ACID BIS(TRIMETHYLSILYL) ESTER

>  <SYNONYMS>  (2924) 
2-METHYLBUTANEDIOIC ACID BIS(TRIMETHYLSILYL) ESTER

>  <SPECTRUM TYPE>  (2924) 
MS1

>  <INSTRUMENT TYPE>  (2924) 
EI-B

>  <INSTRUMENT>  (2924) 
JEOL JMS-01-SG

>  <ION MODE>  (2924) 
P

>  <INCHIKEY>  (2924) 
OAMWTEBQZKRCMA-UHFFFAOYSA-N

>  <FORMULA>  (2924) 
C11H24O4Si2

>  <EXACT MASS>  (2924) 
276.12131230800003

>  <MW>  (2924) 
276

>  <ID>  (2924) 
JP007500

>  <CONTRIBUTOR>  (2924) 
University of Tokyo Team, {Faculty of Engineering, University of Tokyo

>  <COMMENT>  (2924) 
SMILES=CC(CC(=O)O[Si](C)(C)C)C(=O)O[Si](C)(C)C
InChI=InChI=1S/C11H24O4Si2/c1-9(11(13)15-17(5,6)7)8-10(12)14-16(2,3)4/h9H,8H2,1-7H3
computed SMILES=O=C(O[Si](C)(C)C)CC(C(=O)O[Si](C)(C)C)C
accession=JP007500
date=2016.01.19 (Created 2008.10.21, modified 2011.05.06)
author=KOGA M, UNIV. OF OCCUPATIONAL AND ENVIRONMENTAL HEALTH
license=CC BY-NC-SA
exact mass=276.12131
ionization energy=70 eV
ion type=[M]+*
computed spectral entropy=2.8515832376866364
computed normalized entropy=0.7289280338407798
SPLASH=splash10-00dj-9320000000-c59b277cfcb3e3559d53
submitter=submitter = University of Tokyo Team (Faculty of Engineering, University of Tokyo)
MoNA Rating=3.75

>  <NUM PEAKS>  (2924) 
50

>  <MASS SPECTRAL PEAKS>  (2924) 
41 1
42 1.3
43 3.7
44 0.44
45 16.4
46 1
47 7.1
55 2.91
56 1.3
57 1.3
58 2.9
59 0.39
61 3.9
69 15.8
70 6.8
71 0.1
72 5.2
73 99.99
74 12.1
75 3.06
76 2.3
77 3.9
99 1.3
117 0.31
123 5
129 4.4
130 1
131 0.21
133 4.2
143 7.1
145 1
147 1.71
148 25.9
149 14.5
150 1
158 0.21
186 6.8
187 2.6
190 1.3
204 0.21
217 16.4
218 2.3
219 1
232 0.97
233 1.5
238 1.5
261 34.1
262 0.89
263 2.9
276 0.7

>  <PREDICTED SPECTRUM>  (2924) 
13 0
14 10
15 61
18 28
26 36
27 116
28 99
29 70
31 37
39 76
40 37
41 221
42 112
43 240
44 205
45 376
46 100
47 201
48 34
49 42
51 7
52 20
53 121
54 95
55 386
56 142
57 103
58 133
59 267
60 91
61 180
62 24
63 9
66 96
67 99
68 171
69 372
70 182
71 94
72 312
73 999
74 302
75 559
76 156
77 155
78 37
79 32
80 4
81 50
82 120
83 30
84 77
85 77
86 80
87 78
88 47
89 86
91 49
95 20
96 84
97 170
98 89
99 220
100 106
101 179
102 87
103 182
104 71
105 86
106 32
107 27
111 14
112 12
113 48
114 43
115 248
116 222
117 195
118 54
119 51
125 67
127 104
128 37
129 269
130 199
131 241
132 98
133 274
134 95
135 83
141 44
142 125
143 365
144 242
145 236
146 98
147 804
148 317
149 366
150 168
151 80
157 131
158 234
159 291
160 87
161 82
162 38
163 62
164 44
171 246
172 109
173 62
174 25
175 81
176 59
177 80
186 170
187 78
188 18
189 121
190 82
191 129
192 87
193 43
203 44
204 249
205 97
206 43
215 7
217 332
218 182
219 116
220 36
231 89
232 188
233 131
234 117
235 23
245 174
246 49
248 9
249 29
261 425
262 186
263 109
264 32

$$$$

     RDKit          2D

 13 13  0  0  0  0  0  0  0  0999 V2000
   -2.5476    4.3306    0.0000 C   0  0  0  0  0  0  0  0  0  0  0  0
   -4.5966    3.7816    0.0000 C   0  0  0  0  0  0  0  0  0  0  0  0
   -4.0476    1.7326    0.0000 C   0  0  0  0  0  0  0  0  0  0  0  0
    1.8990    3.0324    0.0000 C   0  0  0  0  0  0  0  0  0  0  0  0
    0.5990    0.7808    0.0000 C   0  0  0  0  0  0  0  0  0  0  0  0
    3.1981    2.2824    0.0000 C   0  0  0  0  0  0  0  0  0  0  0  0
    1.8981    0.0308    0.0000 C   0  0  0  0  0  0  0  0  0  0  0  0
    0.5995    2.2816    0.0000 C   0  0  0  0  0  0  0  0  0  0  0  0
   -0.6995    3.0316    0.0000 C   0  0  0  0  0  0  0  0  0  0  0  0
    3.1976    0.7816    0.0000 N   0  0  0  0  0  0  0  0  0  0  0  0
   -0.6995    4.5316    0.0000 O   0  0  0  0  0  0  0  0  0  0  0  0
   -1.9986    2.2816    0.0000 O   0  0  0  0  0  0  0  0  0  0  0  0
   -3.2976    3.0316    0.0000 Si  0  0  0  0  0  4  0  0  0  0  0  0
  6  4  2  0
  7  5  1  0
  8  4  1  0
  8  5  2  0
  9  8  1  0
 10  6  1  0
 10  7  2  0
 11  9  2  0
 12  9  1  0
 13  1  1  0
 13  2  1  0
 13  3  1  0
 13 12  1  0
M  END
>  <NAME>  (2925) 
ISONICOTINIC ACID TRIMETHYLSILYL ESTER

>  <SYNONYMS>  (2925) 
PYRIDINE-4-CARBOXYLIC ACID TRIMETHYLSILYLESTER

>  <SPECTRUM TYPE>  (2925) 
MS1

>  <INSTRUMENT TYPE>  (2925) 
EI-B

>  <INSTRUMENT>  (2925) 
JEOL JMS-01-SG

>  <ION MODE>  (2925) 
P

>  <INCHIKEY>  (2925) 
VQVREJHPRSVZBD-UHFFFAOYSA-N

>  <FORMULA>  (2925) 
C9H13NO2Si

>  <EXACT MASS>  (2925) 
195.071555186

>  <MW>  (2925) 
195

>  <ID>  (2925) 
JP007499

>  <CONTRIBUTOR>  (2925) 
University of Tokyo Team, {Faculty of Engineering, University of Tokyo

>  <COMMENT>  (2925) 
SMILES=O=C(O[Si](C)(C)C)c(c1)ccnc1
InChI=InChI=1S/C9H13NO2Si/c1-13(2,3)12-9(11)8-4-6-10-7-5-8/h4-7H,1-3H3
computed SMILES=O=C(O[Si](C)(C)C)C=1C=CN=CC1
accession=JP007499
date=2016.01.19 (Created 2008.10.21, modified 2011.05.06)
author=KOGA M, UNIV. OF OCCUPATIONAL AND ENVIRONMENTAL HEALTH
license=CC BY-NC-SA
exact mass=195.07156
ionization energy=70 eV
ion type=[M]+*
computed spectral entropy=2.052237338836773
computed normalized entropy=0.6298884378923342
SPLASH=splash10-001i-4900000000-90e32c65a8f4480406ed
submitter=submitter = University of Tokyo Team (Faculty of Engineering, University of Tokyo)
MoNA Rating=3.75

>  <NUM PEAKS>  (2925) 
26

>  <MASS SPECTRAL PEAKS>  (2925) 
43 2.3
45 5
47 4.4
50 0.37
51 18.9
52 1
57 1.6
59 0.13
61 1
73 4
74 4
76 0.06
77 1
78 29.1
79 1.3
83 0.1
90 5
106 40.6
107 1.6
136 2.57
137 3.3
138 1.3
180 99.99
181 1.38
182 4.7
195 6.1

>  <PREDICTED SPECTRUM>  (2925) 
26 15
27 33
29 18
31 65
37 41
38 76
39 81
40 45
41 32
42 47
43 96
44 97
45 319
46 75
47 109
48 3
49 28
50 182
51 301
52 169
53 112
54 55
55 38
56 7
58 127
59 216
60 57
61 132
62 20
63 33
64 60
65 37
66 101
67 69
70 25
73 302
74 108
75 364
76 156
77 130
78 533
79 159
80 38
81 20
82 24
83 18
84 44
89 30
92 59
93 131
94 36
95 3
96 4
99 11
105 5
106 595
107 168
108 159
109 87
110 46
117 11
120 80
122 84
123 24
136 681
137 229
138 104
151 60
152 58
179 57
180 999
181 380
182 193
183 32
194 94
195 354
196 120
197 11

$$$$

     RDKit          2D

 13 13  0  0  0  0  0  0  0  0999 V2000
    5.5772   -0.0083    0.0000 C   0  0  0  0  0  0  0  0  0  0  0  0
    6.1259    2.0408    0.0000 C   0  0  0  0  0  0  0  0  0  0  0  0
    4.0768    2.5895    0.0000 C   0  0  0  0  0  0  0  0  0  0  0  0
   -1.6700    0.5400    0.0000 C   0  0  0  0  0  0  0  0  0  0  0  0
   -0.3700    1.2900    0.0000 C   0  0  0  0  0  0  0  0  0  0  0  0
   -1.6700   -0.9600    0.0000 C   0  0  0  0  0  0  0  0  0  0  0  0
    0.9300   -0.9600    0.0000 C   0  0  0  0  0  0  0  0  0  0  0  0
    0.9300    0.5400    0.0000 C   0  0  0  0  0  0  0  0  0  0  0  0
    2.2289    1.2902    0.0000 C   0  0  0  0  0  0  0  0  0  0  0  0
   -0.3700   -1.7100    0.0000 N   0  0  0  0  0  0  0  0  0  0  0  0
    2.2287    2.7902    0.0000 O   0  0  0  0  0  0  0  0  0  0  0  0
    3.5281    0.5404    0.0000 O   0  0  0  0  0  0  0  0  0  0  0  0
    4.8270    1.2906    0.0000 Si  0  0  0  0  0  4  0  0  0  0  0  0
  5  4  2  0
  6  4  1  0
  8  5  1  0
  8  7  2  0
  9  8  1  0
 10  6  2  0
 10  7  1  0
 11  9  2  0
 12  9  1  0
 13  1  1  0
 13  2  1  0
 13  3  1  0
 13 12  1  0
M  END
>  <NAME>  (2926) 
NICOTINIC ACID TRIMETHYLSILYL ESTER

>  <SYNONYMS>  (2926) 
PYRIDINE-3-CARBOXYLIC ACID TRIMETHYLSILYLESTER

>  <SPECTRUM TYPE>  (2926) 
MS1

>  <INSTRUMENT TYPE>  (2926) 
EI-B

>  <INSTRUMENT>  (2926) 
JEOL JMS-01-SG

>  <ION MODE>  (2926) 
P

>  <INCHIKEY>  (2926) 
PYFBRRMHOWLGJH-UHFFFAOYSA-N

>  <FORMULA>  (2926) 
C9H13NO2Si

>  <EXACT MASS>  (2926) 
195.071555186

>  <MW>  (2926) 
195

>  <ID>  (2926) 
JP007498

>  <CONTRIBUTOR>  (2926) 
University of Tokyo Team, {Faculty of Engineering, University of Tokyo

>  <COMMENT>  (2926) 
SMILES=O=C(O[Si](C)(C)C)c(c1)cncc1
InChI=InChI=1S/C9H13NO2Si/c1-13(2,3)12-9(11)8-5-4-6-10-7-8/h4-7H,1-3H3
computed SMILES=O=C(O[Si](C)(C)C)C=1C=NC=CC1
accession=JP007498
date=2016.01.19 (Created 2008.10.21, modified 2011.05.06)
author=KOGA M, UNIV. OF OCCUPATIONAL AND ENVIRONMENTAL HEALTH
license=CC BY-NC-SA
exact mass=195.07156
ionization energy=70 eV
ion type=[M]+*
computed spectral entropy=2.1277518234552586
computed normalized entropy=0.6255890454718134
SPLASH=splash10-001i-1900000000-71213d84caada266e7d8
submitter=submitter = University of Tokyo Team (Faculty of Engineering, University of Tokyo)
MoNA Rating=3.75

>  <NUM PEAKS>  (2926) 
30

>  <MASS SPECTRAL PEAKS>  (2926) 
43 1.6
44 3.2
45 5.5
47 0.39
50 2.6
51 15.6
52 1.6
53 0.06
59 1.6
72 1.6
73 1.3
74 0.16
75 1.9
76 0.6
77 1.3
78 3.62
79 2.6
90 2.9
106 43.4
107 0.26
136 47.7
137 5.5
138 1.3
180 99.99
181 13.7
182 4.2
186 0.6
194 0.06
195 5.2
196 0.6

>  <PREDICTED SPECTRUM>  (2926) 
26 25
27 58
28 36
29 63
31 78
37 40
38 79
39 88
40 34
41 82
42 71
43 156
44 82
45 308
46 73
47 117
49 58
50 223
51 396
52 189
53 101
54 68
55 78
56 13
57 16
58 114
59 241
60 79
61 118
62 22
63 17
64 37
65 23
66 81
67 50
70 51
72 43
73 264
74 100
75 288
76 176
77 252
78 657
79 227
80 73
81 36
83 14
84 7
89 89
91 31
92 61
93 120
94 41
95 6
98 14
99 12
105 4
106 805
107 193
108 105
109 63
110 41
119 20
120 124
121 36
122 79
123 49
124 45
126 1
134 79
135 58
136 549
137 174
138 28
150 25
151 75
152 143
153 44
178 51
179 25
180 999
181 382
182 201
183 37
194 144
195 282
196 85
197 1

$$$$

     RDKit          2D

 15 14  0  0  0  0  0  0  0  0999 V2000
  -11.2796    6.0368    0.0000 C   0  0  0  0  0  0  0  0  0  0  0  0
    2.4608    4.7377    0.0000 C   0  0  0  0  0  0  0  0  0  0  0  0
    3.0099    6.7868    0.0000 C   0  0  0  0  0  0  0  0  0  0  0  0
    0.9608    7.3358    0.0000 C   0  0  0  0  0  0  0  0  0  0  0  0
   -9.9805    5.2868    0.0000 C   0  0  0  0  0  0  0  0  0  0  0  0
   -8.6815    6.0368    0.0000 C   0  0  0  0  0  0  0  0  0  0  0  0
   -7.3825    5.2868    0.0000 C   0  0  0  0  0  0  0  0  0  0  0  0
   -6.0834    6.0368    0.0000 C   0  0  0  0  0  0  0  0  0  0  0  0
   -4.7844    5.2868    0.0000 C   0  0  0  0  0  0  0  0  0  0  0  0
   -3.4853    6.0368    0.0000 C   0  0  0  0  0  0  0  0  0  0  0  0
   -2.1863    5.2868    0.0000 C   0  0  0  0  0  0  0  0  0  0  0  0
   -0.8873    6.0368    0.0000 C   0  0  0  0  0  0  0  0  0  0  0  0
   -0.8873    7.5368    0.0000 O   0  0  0  0  0  0  0  0  0  0  0  0
    0.4118    5.2868    0.0000 O   0  0  0  0  0  0  0  0  0  0  0  0
    1.7108    6.0368    0.0000 Si  0  0  0  0  0  4  0  0  0  0  0  0
  5  1  1  0
  6  5  1  0
  7  6  1  0
  8  7  1  0
  9  8  1  0
  9 10  2  0
 11 10  1  0
 12 11  1  0
 13 12  2  0
 14 12  1  0
 15  2  1  0
 15  3  1  0
 15  4  1  0
 15 14  1  0
M  END
>  <NAME>  (2927) 
3-NONENOIC ACID TRIMETHYLSILYL ESTER

>  <SYNONYMS>  (2927) 


>  <SPECTRUM TYPE>  (2927) 
MS1

>  <INSTRUMENT TYPE>  (2927) 
EI-B

>  <INSTRUMENT>  (2927) 
JEOL JMS-01-SG

>  <ION MODE>  (2927) 
P

>  <INCHIKEY>  (2927) 
CLMHUCMNZKBMPA-MDZDMXLPSA-N

>  <FORMULA>  (2927) 
C12H24O2Si

>  <EXACT MASS>  (2927) 
228.15455653799998

>  <MW>  (2927) 
228

>  <ID>  (2927) 
JP007497

>  <CONTRIBUTOR>  (2927) 
University of Tokyo Team, {Faculty of Engineering, University of Tokyo

>  <COMMENT>  (2927) 
SMILES=CCCCCC=CCC(=O)O[Si](C)(C)C
InChI=InChI=1S/C12H24O2Si/c1-5-6-7-8-9-10-11-12(13)14-15(2,3)4/h9-10H,5-8,11H2,1-4H3/b10-9+
computed SMILES=O=C(O[Si](C)(C)C)CC=CCCCCC
accession=JP007497
date=2016.01.19 (Created 2008.10.21, modified 2011.05.06)
author=KOGA M, UNIV. OF OCCUPATIONAL AND ENVIRONMENTAL HEALTH
license=CC BY-NC-SA
exact mass=228.15456
ionization energy=70 eV
ion type=[M]+*
computed spectral entropy=2.8534828555565395
computed normalized entropy=0.7332000547255042
SPLASH=splash10-00b9-9210000000-e7f490d4387ab470af56
submitter=submitter = University of Tokyo Team (Faculty of Engineering, University of Tokyo)
MoNA Rating=3.75

>  <NUM PEAKS>  (2927) 
49

>  <MASS SPECTRAL PEAKS>  (2927) 
41 1.3
43 4
44 2.6
45 2.46
47 12
51 1.3
53 6
54 0.86
55 10.6
58 3.3
59 7.3
61 1.06
67 4
68 2.6
69 4.6
72 0.66
73 10.6
74 50
75 99.99
76 0.6
77 4.6
79 1.3
81 8
85 0.13
89 1.3
95 2
96 5.3
97 0.26
99 8
101 3.3
109 2.6
110 0.46
113 3.3
116 3.3
117 24.6
129 0.33
132 4
138 4
141 3.3
145 0.13
155 4
169 2.6
184 5.3
186 0.2
213 41.3
214 7.3
215 1.3
228 1
229 1.3

>  <PREDICTED SPECTRUM>  (2927) 
14 6
15 31
26 44
27 110
28 60
29 100
31 48
37 8
38 36
39 169
40 97
41 249
42 114
43 207
44 134
45 233
46 46
47 155
48 37
49 6
50 37
51 80
52 71
53 190
54 263
55 362
56 98
57 97
58 108
59 233
60 102
61 237
62 48
63 19
65 49
66 106
67 318
68 228
69 189
70 118
71 91
72 121
73 999
74 267
75 683
76 210
77 191
78 98
79 58
80 72
81 232
82 190
83 82
84 55
85 109
86 58
87 57
88 12
89 66
90 9
91 88
93 48
94 99
95 222
96 276
97 113
98 31
99 156
100 41
101 137
102 43
103 110
104 44
105 23
109 78
110 112
113 57
115 90
116 88
117 509
118 136
119 12
123 60
124 50
127 40
128 32
129 209
130 136
131 126
132 122
138 213
139 41
140 36
141 53
142 56
143 66
144 86
145 206
146 51
155 29
156 41
157 53
158 22
159 28
160 2
169 120
170 43
171 24
173 4
184 162
185 75
186 20
213 407
214 186
215 67
216 8
228 68
229 19

$$$$

     RDKit          2D

 15 14  0  0  0  0  0  0  0  0999 V2000
    2.1127    4.8849    0.0000 C   0  0  0  0  0  0  0  0  0  0  0  0
   -1.2353    2.0858    0.0000 C   0  0  0  0  0  0  0  0  0  0  0  0
    0.2647    4.6839    0.0000 C   0  0  0  0  0  0  0  0  0  0  0  0
   -1.7844    4.1349    0.0000 C   0  0  0  0  0  0  0  0  0  0  0  0
    8.0589    2.0858    0.0000 C   0  0  0  0  0  0  0  0  0  0  0  0
    8.6079    4.1349    0.0000 C   0  0  0  0  0  0  0  0  0  0  0  0
    6.5589    4.6839    0.0000 C   0  0  0  0  0  0  0  0  0  0  0  0
    3.4118    2.6349    0.0000 C   0  0  0  0  0  0  0  0  0  0  0  0
    0.8137    2.6349    0.0000 C   0  0  0  0  0  0  0  0  0  0  0  0
    2.1127    3.3849    0.0000 C   0  0  0  0  0  0  0  0  0  0  0  0
    4.7108    3.3849    0.0000 C   0  0  0  0  0  0  0  0  0  0  0  0
   -0.4853    3.3849    0.0000 C   0  0  0  0  0  0  0  0  0  0  0  0
    4.7108    4.8849    0.0000 O   0  0  0  0  0  0  0  0  0  0  0  0
    6.0099    2.6349    0.0000 O   0  0  0  0  0  0  0  0  0  0  0  0
    7.3089    3.3849    0.0000 Si  0  0  0  0  0  4  0  0  0  0  0  0
 10  1  1  0
 10  8  1  0
 10  9  1  0
 11  8  1  0
 12  2  1  0
 12  3  1  0
 12  4  1  0
 12  9  1  0
 13 11  2  0
 14 11  1  0
 15  5  1  0
 15  6  1  0
 15  7  1  0
 15 14  1  0
M  END
>  <NAME>  (2928) 
3,5,5-TRIMETHYLHEXANOIC ACID TRIMETHYLSILYL ESTER

>  <SYNONYMS>  (2928) 


>  <SPECTRUM TYPE>  (2928) 
MS1

>  <INSTRUMENT TYPE>  (2928) 
EI-B

>  <INSTRUMENT>  (2928) 
JEOL JMS-01-SG

>  <ION MODE>  (2928) 
P

>  <INCHIKEY>  (2928) 
MHLBKYCBTSBDCF-UHFFFAOYSA-N

>  <FORMULA>  (2928) 
C12H26O2Si

>  <EXACT MASS>  (2928) 
230.170206602

>  <MW>  (2928) 
230

>  <ID>  (2928) 
JP007496

>  <CONTRIBUTOR>  (2928) 
University of Tokyo Team, {Faculty of Engineering, University of Tokyo

>  <COMMENT>  (2928) 
SMILES=CC(CC(C)(C)C)CC(=O)O[Si](C)(C)C
InChI=InChI=1S/C12H26O2Si/c1-10(9-12(2,3)4)8-11(13)14-15(5,6)7/h10H,8-9H2,1-7H3
computed SMILES=O=C(O[Si](C)(C)C)CC(C)CC(C)(C)C
accession=JP007496
date=2016.01.19 (Created 2008.10.21, modified 2011.05.06)
author=KOGA M, UNIV. OF OCCUPATIONAL AND ENVIRONMENTAL HEALTH
license=CC BY-NC-SA
exact mass=230.17021
ionization energy=70 eV
ion type=[M]+*
computed spectral entropy=2.8869820173336382
computed normalized entropy=0.7826176087467427
SPLASH=splash10-017i-9820000000-d6c44c1d5cd7b9b8fc19
submitter=submitter = University of Tokyo Team (Faculty of Engineering, University of Tokyo)
MoNA Rating=3.75

>  <NUM PEAKS>  (2928) 
40

>  <MASS SPECTRAL PEAKS>  (2928) 
41 5.9
43 8.8
45 8.8
47 0.81
55 14.8
56 7.4
57 58.5
59 0.59
61 6.6
69 8.1
70 2.2
73 9.85
74 7.4
75 89.6
76 6.6
77 0.29
83 54
84 5.1
85 2.9
97 0.59
116 5.9
117 99.99
118 7.4
119 0.44
125 5.1
132 66.6
133 7.4
143 0.29
144 23.7
145 15.5
146 4.4
158 0.37
159 5.1
173 11.8
188 23.7
189 0.29
202 9.6
215 74.8
216 11.8
217 2.2

>  <PREDICTED SPECTRUM>  (2928) 
27 22
29 58
39 138
40 61
41 331
42 125
43 327
44 87
45 230
46 41
47 178
53 65
54 21
55 538
56 341
57 610
58 105
59 96
60 50
61 219
62 2
63 9
67 81
68 54
69 384
70 159
71 72
72 67
73 775
74 179
75 930
76 239
77 140
78 28
81 85
83 587
84 72
85 78
87 25
88 95
89 120
90 30
91 89
93 70
95 83
96 60
97 292
98 190
99 174
100 14
101 111
102 37
103 194
104 22
105 145
106 9
111 100
112 113
113 13
114 33
115 275
116 369
117 999
118 270
125 148
129 29
130 75
131 74
132 486
133 193
134 45
140 83
141 112
143 94
144 238
145 732
157 40
158 34
159 207
160 78
172 48
173 314
174 101
175 111
215 928
216 411
217 163
218 24

$$$$

     RDKit          2D

 14 13  0  0  0  0  0  0  0  0999 V2000
  -10.2183    6.1005    0.0000 C   0  0  0  0  0  0  0  0  0  0  0  0
    0.7231    4.0514    0.0000 C   0  0  0  0  0  0  0  0  0  0  0  0
    2.7721    4.6005    0.0000 C   0  0  0  0  0  0  0  0  0  0  0  0
    2.2231    6.6495    0.0000 C   0  0  0  0  0  0  0  0  0  0  0  0
   -8.9192    5.3505    0.0000 C   0  0  0  0  0  0  0  0  0  0  0  0
   -7.6202    6.1005    0.0000 C   0  0  0  0  0  0  0  0  0  0  0  0
   -6.3212    5.3505    0.0000 C   0  0  0  0  0  0  0  0  0  0  0  0
   -5.0221    6.1005    0.0000 C   0  0  0  0  0  0  0  0  0  0  0  0
   -3.7231    5.3505    0.0000 C   0  0  0  0  0  0  0  0  0  0  0  0
   -2.4240    6.1005    0.0000 C   0  0  0  0  0  0  0  0  0  0  0  0
   -1.1250    5.3505    0.0000 C   0  0  0  0  0  0  0  0  0  0  0  0
   -1.1250    3.8505    0.0000 O   0  0  0  0  0  0  0  0  0  0  0  0
    0.1740    6.1005    0.0000 O   0  0  0  0  0  0  0  0  0  0  0  0
    1.4731    5.3505    0.0000 Si  0  0  0  0  0  4  0  0  0  0  0  0
  5  1  1  0
  6  5  1  0
  7  6  1  0
  8  7  1  0
  9  8  1  0
  9 10  2  0
 11 10  1  0
 12 11  2  0
 13 11  1  0
 14  2  1  0
 14  3  1  0
 14  4  1  0
 14 13  1  0
M  END
>  <NAME>  (2929) 
2-OCTENOIC ACID TRIMETHYLSILYL ESTER

>  <SYNONYMS>  (2929) 


>  <SPECTRUM TYPE>  (2929) 
MS1

>  <INSTRUMENT TYPE>  (2929) 
EI-B

>  <INSTRUMENT>  (2929) 
JEOL JMS-01-SG

>  <ION MODE>  (2929) 
P

>  <INCHIKEY>  (2929) 
YYMCWFXIWNIWDG-MDZDMXLPSA-N

>  <FORMULA>  (2929) 
C11H22O2Si

>  <EXACT MASS>  (2929) 
214.138906474

>  <MW>  (2929) 
214

>  <ID>  (2929) 
JP007495

>  <CONTRIBUTOR>  (2929) 
University of Tokyo Team, {Faculty of Engineering, University of Tokyo

>  <COMMENT>  (2929) 
SMILES=CCCCCC=CC(=O)O[Si](C)(C)C
InChI=InChI=1S/C11H22O2Si/c1-5-6-7-8-9-10-11(12)13-14(2,3)4/h9-10H,5-8H2,1-4H3/b10-9+
computed SMILES=O=C(O[Si](C)(C)C)C=CCCCCC
accession=JP007495
date=2016.01.19 (Created 2008.10.21, modified 2011.05.06)
author=KOGA M, UNIV. OF OCCUPATIONAL AND ENVIRONMENTAL HEALTH
license=CC BY-NC-SA
exact mass=214.13891
ionization energy=70 eV
ion type=[M]+*
computed spectral entropy=2.5484211260632637
computed normalized entropy=0.6818208633522026
SPLASH=splash10-0002-5900000000-34e9685927a2b6dd99e8
submitter=submitter = University of Tokyo Team (Faculty of Engineering, University of Tokyo)
MoNA Rating=3.75

>  <NUM PEAKS>  (2929) 
42

>  <MASS SPECTRAL PEAKS>  (2929) 
41 1.2
43 2.4
45 2
47 0.45
53 4.5
54 1.2
55 19.2
56 0.12
58 1.2
59 6.5
61 4.5
67 0.12
68 6.9
73 20
74 2
75 6.14
76 4.5
77 3.6
81 1.6
82 0.16
85 1.2
87 1.2
95 3.6
96 0.12
98 1.6
99 6.5
117 3.2
125 0.36
129 27.4
130 2.8
131 1.6
142 0.28
143 34.4
144 1.2
145 1.6
155 0.9
156 1.2
157 2
199 99.99
200 1.68
201 4.5
214 0.8

>  <PREDICTED SPECTRUM>  (2929) 
15 3
26 57
27 226
28 97
29 262
30 32
31 61
36 27
37 18
38 87
39 280
40 149
41 379
42 226
43 348
44 162
45 438
46 80
47 313
48 38
49 34
50 87
51 131
52 104
53 256
54 226
55 497
56 108
57 132
58 167
59 235
60 124
61 231
62 16
63 61
64 54
65 142
66 125
67 321
68 305
69 295
70 127
71 133
72 176
73 845
74 209
75 994
76 300
77 271
78 98
79 158
80 110
81 364
82 166
83 81
84 61
85 148
86 80
87 24
91 77
93 19
95 276
96 274
97 279
98 137
99 265
100 150
101 82
102 0
107 53
109 165
110 54
111 20
112 32
113 182
114 33
115 168
116 115
117 169
118 48
123 31
124 179
125 166
126 28
127 210
128 114
129 552
130 194
131 129
132 64
139 15
141 67
142 136
143 446
144 243
145 169
146 82
153 5
155 294
156 153
157 183
158 178
159 85
160 73
169 41
170 30
171 145
172 31
185 84
186 54
197 10
199 999
200 387
201 226
202 33
213 11
214 87
215 11

$$$$

     RDKit          2D

 21 21  0  0  0  0  0  0  0  0999 V2000
  -11.6923   -0.7517    0.0000 C   0  0  0  0  0  0  0  0  0  0  0  0
    5.9472    0.2017    0.0000 C   0  0  0  0  0  0  0  0  0  0  0  0
    6.4959    2.2508    0.0000 C   0  0  0  0  0  0  0  0  0  0  0  0
    4.4468    2.7995    0.0000 C   0  0  0  0  0  0  0  0  0  0  0  0
  -10.3931   -1.5015    0.0000 C   0  0  0  0  0  0  0  0  0  0  0  0
   -9.0942   -0.7512    0.0000 C   0  0  0  0  0  0  0  0  0  0  0  0
   -7.7951   -1.5010    0.0000 C   0  0  0  0  0  0  0  0  0  0  0  0
   -6.4962   -0.7508    0.0000 C   0  0  0  0  0  0  0  0  0  0  0  0
   -5.1970   -1.5006    0.0000 C   0  0  0  0  0  0  0  0  0  0  0  0
   -3.8981   -0.7504    0.0000 C   0  0  0  0  0  0  0  0  0  0  0  0
   -2.5989   -1.5002    0.0000 C   0  0  0  0  0  0  0  0  0  0  0  0
   -1.3000    0.7500    0.0000 C   0  0  0  0  0  0  0  0  0  0  0  0
    0.0000   -1.5000    0.0000 C   0  0  0  0  0  0  0  0  0  0  0  0
    0.0000    1.5000    0.0000 C   0  0  0  0  0  0  0  0  0  0  0  0
    1.3000   -0.7500    0.0000 C   0  0  0  0  0  0  0  0  0  0  0  0
   -1.3000   -0.7500    0.0000 C   0  0  0  0  0  0  0  0  0  0  0  0
    1.3000    0.7500    0.0000 C   0  0  0  0  0  0  0  0  0  0  0  0
    2.5989    1.5002    0.0000 C   0  0  0  0  0  0  0  0  0  0  0  0
    2.5987    3.0002    0.0000 O   0  0  0  0  0  0  0  0  0  0  0  0
    3.8981    0.7504    0.0000 O   0  0  0  0  0  0  0  0  0  0  0  0
    5.1970    1.5006    0.0000 Si  0  0  0  0  0  4  0  0  0  0  0  0
  5  1  1  0
  6  5  1  0
  7  6  1  0
  8  7  1  0
  9  8  1  0
 10  9  1  0
 11 10  1  0
 14 12  2  0
 15 13  1  0
 16 11  1  0
 16 12  1  0
 16 13  2  0
 17 14  1  0
 17 15  2  0
 18 17  1  0
 19 18  2  0
 20 18  1  0
 21  2  1  0
 21  3  1  0
 21  4  1  0
 21 20  1  0
M  END
>  <NAME>  (2930) 
4-OCTYLBENZOIC ACID TRIMETHYLSILYL ESTER

>  <SYNONYMS>  (2930) 


>  <SPECTRUM TYPE>  (2930) 
MS1

>  <INSTRUMENT TYPE>  (2930) 
EI-B

>  <INSTRUMENT>  (2930) 
JEOL JMS-01-SG

>  <ION MODE>  (2930) 
P

>  <INCHIKEY>  (2930) 
HHEVFDHEVDTPGV-UHFFFAOYSA-N

>  <FORMULA>  (2930) 
C18H30O2Si

>  <EXACT MASS>  (2930) 
306.20150673

>  <MW>  (2930) 
306

>  <ID>  (2930) 
JP007494

>  <CONTRIBUTOR>  (2930) 
University of Tokyo Team, {Faculty of Engineering, University of Tokyo

>  <COMMENT>  (2930) 
SMILES=CCCCCCCCc(c1)ccc(c1)C(=O)O[Si](C)(C)C
InChI=InChI=1S/C18H30O2Si/c1-5-6-7-8-9-10-11-16-12-14-17(15-13-16)18(19)20-21(2,3)4/h12-15H,5-11H2,1-4H3
computed SMILES=O=C(O[Si](C)(C)C)C1=CC=C(C=C1)CCCCCCCC
accession=JP007494
date=2016.01.19 (Created 2008.10.21, modified 2011.05.06)
author=KOGA M, UNIV. OF OCCUPATIONAL AND ENVIRONMENTAL HEALTH
license=CC BY-NC-SA
exact mass=306.20151
ionization energy=70 eV
ion type=[M]+*
computed spectral entropy=2.339911701858745
computed normalized entropy=0.6751558016779333
SPLASH=splash10-0006-3090000000-2d19ef4994f800c73a99
submitter=submitter = University of Tokyo Team (Faculty of Engineering, University of Tokyo)
MoNA Rating=3.75

>  <NUM PEAKS>  (2930) 
32

>  <MASS SPECTRAL PEAKS>  (2930) 
41 1.3
43 5.9
44 2.6
55 0.39
57 1.3
73 11.9
75 5.9
77 0.59
89 1.9
90 7.9
91 16.5
103 0.26
104 1.9
105 1.9
115 1.3
118 0.72
131 1.3
148 1.9
192 2.6
193 0.92
205 2.6
207 2.6
217 19.8
218 0.26
247 9.9
248 1.9
262 1.3
291 99.99
292 23.1
293 4.6
306 6.6
307 0.6

>  <PREDICTED SPECTRUM>  (2930) 
27 35
29 73
39 64
40 13
41 200
42 34
43 181
44 92
45 150
47 30
50 17
51 58
53 6
54 11
55 161
56 32
57 43
58 3
59 78
60 14
61 42
62 8
63 21
65 41
67 46
69 43
70 1
73 339
74 40
75 207
76 54
77 139
78 51
79 59
83 41
88 3
89 143
90 168
91 261
92 37
93 14
103 103
104 109
105 155
107 1
116 12
117 48
118 90
119 147
120 63
121 41
131 78
132 18
133 44
135 8
145 80
146 36
147 34
148 27
149 79
150 29
159 5
166 4
178 8
179 113
180 29
181 22
187 11
188 43
189 59
191 8
192 39
193 146
194 78
205 4
207 66
208 18
217 338
218 24
235 30
247 260
248 102
262 2
291 999
292 436
293 173
294 42
306 207
307 46
308 6

$$$$

     RDKit          2D

 17 17  0  0  0  0  0  0  0  0999 V2000
   -7.2459    2.0500    0.0000 C   0  0  0  0  0  0  0  0  0  0  0  0
   -7.7953    0.0010    0.0000 C   0  0  0  0  0  0  0  0  0  0  0  0
   -5.7464   -0.5483    0.0000 C   0  0  0  0  0  0  0  0  0  0  0  0
   -1.3000   -0.7500    0.0000 C   0  0  0  0  0  0  0  0  0  0  0  0
    0.0000    1.5000    0.0000 C   0  0  0  0  0  0  0  0  0  0  0  0
    0.0000   -1.5000    0.0000 C   0  0  0  0  0  0  0  0  0  0  0  0
    1.3000    0.7500    0.0000 C   0  0  0  0  0  0  0  0  0  0  0  0
   -2.5989    1.5002    0.0000 C   0  0  0  0  0  0  0  0  0  0  0  0
   -1.3000    0.7500    0.0000 C   0  0  0  0  0  0  0  0  0  0  0  0
    1.3000   -0.7500    0.0000 C   0  0  0  0  0  0  0  0  0  0  0  0
   -3.8981    0.7504    0.0000 C   0  0  0  0  0  0  0  0  0  0  0  0
    2.5989   -1.5002    0.0000 N   0  0  0  0  0  0  0  0  0  0  0  0
   -3.8983   -0.7496    0.0000 O   0  0  0  0  0  0  0  0  0  0  0  0
    3.8981   -0.7504    0.0000 O   0  0  0  0  0  0  0  0  0  0  0  0
    2.5987   -3.0002    0.0000 O   0  0  0  0  0  0  0  0  0  0  0  0
   -5.1970    1.5006    0.0000 O   0  0  0  0  0  0  0  0  0  0  0  0
   -6.4962    0.7508    0.0000 Si  0  0  0  0  0  4  0  0  0  0  0  0
  6  4  2  0
  7  5  1  0
  9  4  1  0
  9  5  2  0
  9  8  1  0
 10  6  1  0
 10  7  2  0
 11  8  1  0
 12 10  1  0
 13 11  2  0
 14 12  1  0
 15 12  2  0
 16 11  1  0
 17  1  1  0
 17  2  1  0
 17  3  1  0
 17 16  1  0
M  CHG  2  12   1  14  -1
M  END
>  <NAME>  (2931) 
4-NITROPHENYLACETIC ACID TRIMETHYLSILYL ESTER

>  <SYNONYMS>  (2931) 


>  <SPECTRUM TYPE>  (2931) 
MS1

>  <INSTRUMENT TYPE>  (2931) 
EI-B

>  <INSTRUMENT>  (2931) 
JEOL JMS-01-SG

>  <ION MODE>  (2931) 
P

>  <INCHIKEY>  (2931) 
PWLZPIFYJDAYBA-UHFFFAOYSA-N

>  <FORMULA>  (2931) 
C11H15NO4Si

>  <EXACT MASS>  (2931) 
253.07703449

>  <MW>  (2931) 
253

>  <ID>  (2931) 
JP007493

>  <CONTRIBUTOR>  (2931) 
University of Tokyo Team, {Faculty of Engineering, University of Tokyo

>  <COMMENT>  (2931) 
SMILES=[O-1][N+1](=O)c(c1)ccc(c1)CC(=O)O[Si](C)(C)C
InChI=InChI=1S/C11H15NO4Si/c1-17(2,3)16-11(13)8-9-4-6-10(7-5-9)12(14)15/h4-7H,8H2,1-3H3
computed SMILES=O=C(O[Si](C)(C)C)CC1=CC=C(C=C1)N(=O)=O
accession=JP007493
date=2016.01.19 (Created 2008.10.21, modified 2011.05.06)
author=KOGA M, UNIV. OF OCCUPATIONAL AND ENVIRONMENTAL HEALTH
license=CC BY-NC-SA
exact mass=253.07703
ionization energy=70 eV
ion type=[M]+*
computed spectral entropy=2.01464477124625
computed normalized entropy=0.6258845885515765
SPLASH=splash10-00di-9010000000-42af64c4c816b4a25594
submitter=submitter = University of Tokyo Team (Faculty of Engineering, University of Tokyo)
MoNA Rating=3.75

>  <NUM PEAKS>  (2931) 
25

>  <MASS SPECTRAL PEAKS>  (2931) 
43 2.5
44 2.8
45 7.1
47 0.35
57 2.5
59 1
61 2.5
63 0.43
73 99.99
74 10.4
75 50.7
76 0.46
77 1.4
78 2.8
82 3.2
89 0.79
90 7.1
106 1.7
117 4.6
179 0.14
194 3.9
209 21.2
210 2.8
238 2.08
239 3.5

>  <PREDICTED SPECTRUM>  (2931) 
26 7
27 18
28 5
29 33
30 112
31 37
41 17
42 32
43 55
44 152
45 332
46 96
47 153
48 9
49 21
50 70
51 61
52 46
53 77
54 38
55 90
56 4
57 18
58 93
59 151
60 108
61 150
62 72
63 146
64 77
65 28
66 8
68 42
69 43
70 40
72 118
73 999
74 260
75 587
76 172
77 223
78 136
79 55
82 73
83 86
84 56
85 27
86 21
89 389
90 302
91 153
92 40
93 10
95 41
96 40
97 26
98 49
99 28
102 60
103 84
104 140
105 106
106 123
107 84
109 69
110 26
111 51
112 12
115 56
116 61
117 203
118 147
119 137
120 105
121 88
123 18
132 1
133 30
134 65
135 137
136 190
137 115
139 84
140 8
147 40
148 41
149 138
150 38
151 34
152 17
153 10
162 65
163 172
164 87
165 118
166 102
177 45
178 153
179 205
180 77
181 77
192 115
193 123
194 191
195 31
207 43
208 119
209 487
210 251
211 128
212 31
221 33
223 45
238 573
239 250
240 173
241 52
253 33
254 3

$$$$

     RDKit          2D

 17 17  0  0  0  0  0  0  0  0999 V2000
    0.4050    2.2928    0.0000 C   0  0  0  0  0  0  0  0  0  0  0  0
   -1.6408    1.7319    0.0000 C   0  0  0  0  0  0  0  0  0  0  0  0
   -1.0800   -0.3139    0.0000 C   0  0  0  0  0  0  0  0  0  0  0  0
    6.1298    3.2520    0.0000 C   0  0  0  0  0  0  0  0  0  0  0  0
    7.4127    2.5242    0.0000 C   0  0  0  0  0  0  0  0  0  0  0  0
    4.8527    2.4996    0.0000 C   0  0  0  0  0  0  0  0  0  0  0  0
    7.4489    1.0246    0.0000 C   0  0  0  0  0  0  0  0  0  0  0  0
    3.5639    0.2619    0.0000 C   0  0  0  0  0  0  0  0  0  0  0  0
    4.8586    1.0194    0.0000 C   0  0  0  0  0  0  0  0  0  0  0  0
    6.1415    0.2917    0.0000 C   0  0  0  0  0  0  0  0  0  0  0  0
    2.2605    1.0044    0.0000 C   0  0  0  0  0  0  0  0  0  0  0  0
    6.1377   -1.2083    0.0000 N   0  0  0  0  0  0  0  0  0  0  0  0
    2.2519    2.5044    0.0000 O   0  0  0  0  0  0  0  0  0  0  0  0
    7.4348   -1.9616    0.0000 O   0  0  0  0  0  0  0  0  0  0  0  0
    4.8368   -1.9550    0.0000 O   0  0  0  0  0  0  0  0  0  0  0  0
    0.9659    0.2469    0.0000 O   0  0  0  0  0  0  0  0  0  0  0  0
   -0.3375    0.9894    0.0000 Si  0  0  0  0  0  4  0  0  0  0  0  0
  5  4  2  0
  6  4  1  0
  7  5  1  0
  9  6  2  0
  9  8  1  0
 10  7  2  0
 10  9  1  0
 11  8  1  0
 12 10  1  0
 13 11  2  0
 14 12  1  0
 15 12  2  0
 16 11  1  0
 17  1  1  0
 17  2  1  0
 17  3  1  0
 17 16  1  0
M  CHG  2  12   1  14  -1
M  END
>  <NAME>  (2932) 
2-NITROPHENYLACETIC ACID TRIMETHYLSILYL ESTER

>  <SYNONYMS>  (2932) 


>  <SPECTRUM TYPE>  (2932) 
MS1

>  <INSTRUMENT TYPE>  (2932) 
EI-B

>  <INSTRUMENT>  (2932) 
JEOL JMS-01-SG

>  <ION MODE>  (2932) 
P

>  <INCHIKEY>  (2932) 
YNUKRVITZFGRCW-UHFFFAOYSA-N

>  <FORMULA>  (2932) 
C11H15NO4Si

>  <EXACT MASS>  (2932) 
253.07703449

>  <MW>  (2932) 
253

>  <ID>  (2932) 
JP007492

>  <CONTRIBUTOR>  (2932) 
University of Tokyo Team, {Faculty of Engineering, University of Tokyo

>  <COMMENT>  (2932) 
SMILES=[O-1][N+1](=O)c(c1)c(ccc1)CC(=O)O[Si](C)(C)C
InChI=InChI=1S/C11H15NO4Si/c1-17(2,3)16-11(13)8-9-6-4-5-7-10(9)12(14)15/h4-7H,8H2,1-3H3
computed SMILES=O=C(O[Si](C)(C)C)CC=1C=CC=CC1N(=O)=O
accession=JP007492
date=2016.01.19 (Created 2008.10.21, modified 2011.05.06)
author=KOGA M, UNIV. OF OCCUPATIONAL AND ENVIRONMENTAL HEALTH
license=CC BY-NC-SA
exact mass=253.07703
ionization energy=70 eV
ion type=[M]+*
computed spectral entropy=2.848963266277712
computed normalized entropy=0.7142077363612255
SPLASH=splash10-00fr-9200000000-4ec06e1b70d63d1a0a9b
submitter=submitter = University of Tokyo Team (Faculty of Engineering, University of Tokyo)
MoNA Rating=3.75

>  <NUM PEAKS>  (2932) 
54

>  <MASS SPECTRAL PEAKS>  (2932) 
43 6.9
44 3.7
45 12.9
47 1.02
50 1
51 6.9
58 1
59 0.21
61 6.4
62 1
63 7.5
64 0.53
65 6.9
72 1
73 99.99
74 1.39
75 93.5
76 8.6
77 6.4
78 0.69
82 6.4
88 1
89 8.6
90 0.53
91 10.7
92 22
93 3.2
104 0.37
105 2.6
117 3.2
118 2.1
119 1.61
120 25.2
121 3.2
133 2.6
134 0.16
135 2.1
136 2.1
148 3.7
149 0.69
150 3.7
151 2.1
164 2.6
165 0.26
176 12.3
177 1
179 3.7
207 0.21
209 3.2
220 2.6
235 2.6
238 3.97
239 5.9
240 1

>  <PREDICTED SPECTRUM>  (2932) 
14 19
15 43
26 44
27 130
28 94
29 168
30 194
31 69
37 10
38 75
39 152
40 30
41 83
42 138
43 360
44 255
45 297
46 175
47 231
48 11
49 61
50 162
51 248
52 171
53 165
54 82
55 151
56 62
57 92
58 146
59 279
60 98
61 234
62 135
63 206
64 146
65 168
66 122
67 62
68 70
69 5
70 67
72 76
73 999
74 308
75 804
76 335
77 469
78 345
79 232
80 50
81 47
82 61
83 55
84 6
85 31
86 81
87 20
88 29
89 229
90 276
91 302
92 263
93 181
94 81
95 51
96 15
97 41
98 43
99 46
101 34
102 60
103 30
104 372
105 312
106 140
107 156
108 10
109 78
110 52
111 61
115 102
116 151
117 231
118 141
119 166
120 131
121 139
122 12
123 5
129 37
130 10
132 227
133 119
134 158
135 287
136 203
137 55
145 43
146 61
147 225
148 160
149 145
150 74
151 97
152 60
153 84
154 34
162 81
163 215
164 118
165 183
166 87
167 27
177 17
178 102
179 252
180 135
181 106
191 6
192 150
193 180
194 317
195 117
196 99
207 306
208 106
209 447
210 270
211 128
212 17
220 37
221 12
238 280
239 100
240 30

$$$$

     RDKit          2D

 17 17  0  0  0  0  0  0  0  0999 V2000
   -5.7192    2.9264    0.0000 C   0  0  0  0  0  0  0  0  0  0  0  0
   -6.2648    0.8764    0.0000 C   0  0  0  0  0  0  0  0  0  0  0  0
   -4.2149    0.3308    0.0000 C   0  0  0  0  0  0  0  0  0  0  0  0
    1.5327   -0.6049    0.0000 C   0  0  0  0  0  0  0  0  0  0  0  0
    0.2336    0.1451    0.0000 C   0  0  0  0  0  0  0  0  0  0  0  0
    2.8272    0.1373    0.0000 C   0  0  0  0  0  0  0  0  0  0  0  0
    1.5286    2.3882    0.0000 C   0  0  0  0  0  0  0  0  0  0  0  0
   -1.0712    2.3851    0.0000 C   0  0  0  0  0  0  0  0  0  0  0  0
    0.2291    1.6373    0.0000 C   0  0  0  0  0  0  0  0  0  0  0  0
    2.8277    1.6382    0.0000 C   0  0  0  0  0  0  0  0  0  0  0  0
   -2.3690    1.6330    0.0000 C   0  0  0  0  0  0  0  0  0  0  0  0
    4.1268    2.3879    0.0000 N   0  0  0  0  0  0  0  0  0  0  0  0
   -2.3665    0.1330    0.0000 O   0  0  0  0  0  0  0  0  0  0  0  0
    5.4257    1.6377    0.0000 O   0  0  0  0  0  0  0  0  0  0  0  0
    4.1271    3.8879    0.0000 O   0  0  0  0  0  0  0  0  0  0  0  0
   -3.6693    2.3808    0.0000 O   0  0  0  0  0  0  0  0  0  0  0  0
   -4.9670    1.6286    0.0000 Si  0  0  0  0  0  4  0  0  0  0  0  0
  5  4  2  0
  6  4  1  0
  9  5  1  0
  9  7  2  0
  9  8  1  0
 10  6  2  0
 10  7  1  0
 11  8  1  0
 12 10  1  0
 13 11  2  0
 14 12  1  0
 15 12  2  0
 16 11  1  0
 17  1  1  0
 17  2  1  0
 17  3  1  0
 17 16  1  0
M  CHG  2  12   1  14  -1
M  END
>  <NAME>  (2933) 
3-NITROPHENYLACETIC ACID TRIMETHYLSILYL ESTER

>  <SYNONYMS>  (2933) 


>  <SPECTRUM TYPE>  (2933) 
MS1

>  <INSTRUMENT TYPE>  (2933) 
EI-B

>  <INSTRUMENT>  (2933) 
JEOL JMS-01-SG

>  <ION MODE>  (2933) 
P

>  <INCHIKEY>  (2933) 
XTPSTALVFAMKRF-UHFFFAOYSA-N

>  <FORMULA>  (2933) 
C11H15NO4Si

>  <EXACT MASS>  (2933) 
253.07703449

>  <MW>  (2933) 
253

>  <ID>  (2933) 
JP007491

>  <CONTRIBUTOR>  (2933) 
University of Tokyo Team, {Faculty of Engineering, University of Tokyo

>  <COMMENT>  (2933) 
SMILES=[O-1][N+1](=O)c(c1)cc(cc1)CC(=O)O[Si](C)(C)C
InChI=InChI=1S/C11H15NO4Si/c1-17(2,3)16-11(13)8-9-5-4-6-10(7-9)12(14)15/h4-7H,8H2,1-3H3
computed SMILES=O=C(O[Si](C)(C)C)CC=1C=CC=C(C1)N(=O)=O
accession=JP007491
date=2016.01.19 (Created 2008.10.21, modified 2011.05.06)
author=KOGA M, UNIV. OF OCCUPATIONAL AND ENVIRONMENTAL HEALTH
license=CC BY-NC-SA
exact mass=253.07703
ionization energy=70 eV
ion type=[M]+*
computed spectral entropy=2.129836157534937
computed normalized entropy=0.6202225083288454
SPLASH=splash10-00di-9020000000-5b8deeaf07449833549c
submitter=submitter = University of Tokyo Team (Faculty of Engineering, University of Tokyo)
MoNA Rating=3.75

>  <NUM PEAKS>  (2933) 
31

>  <MASS SPECTRAL PEAKS>  (2933) 
43 1.7
44 3.4
45 6.9
47 0.48
51 1.7
58 0.6
59 0.6
61 0.31
62 0.6
63 3.8
64 1
73 99.99
74 11.4
75 51.2
76 4.8
77 0.38
78 1.3
82 4.1
89 8.3
90 0.79
91 0.6
96 0.6
117 2.4
136 0.1
141 1.3
209 22.1
210 2.7
211 0.1
238 20.4
239 3.1
240 0.6

>  <PREDICTED SPECTRUM>  (2933) 
26 20
27 2
28 9
30 63
38 0
43 75
44 113
45 323
46 97
47 146
49 16
50 84
51 31
52 24
53 32
54 0
55 63
57 3
58 63
59 149
60 74
61 144
62 56
63 105
64 79
65 35
66 11
69 3
72 47
73 999
74 305
75 598
76 198
77 118
78 60
83 61
84 0
89 149
90 219
91 164
92 78
93 10
95 26
104 109
105 63
106 3
107 15
109 13
115 32
116 44
117 135
118 47
119 121
120 88
121 13
134 51
135 107
136 48
137 25
139 5
147 42
148 19
149 69
163 78
166 18
178 26
179 66
180 64
181 53
192 22
193 66
194 94
208 48
209 464
210 239
211 66
238 390
239 157
240 116
241 7

$$$$

     RDKit          2D

 28 28  0  0  0  0  0  0  0  0999 V2000
   -5.3837    1.9238    0.0000 C   0  0  0  0  0  0  0  0  0  0  0  0
   -5.9327   -0.1252    0.0000 C   0  0  0  0  0  0  0  0  0  0  0  0
   -3.8837   -0.6743    0.0000 C   0  0  0  0  0  0  0  0  0  0  0  0
   -2.7859   -2.5774    0.0000 C   0  0  0  0  0  0  0  0  0  0  0  0
   -3.3346   -4.6265    0.0000 C   0  0  0  0  0  0  0  0  0  0  0  0
   -1.2855   -5.1752    0.0000 C   0  0  0  0  0  0  0  0  0  0  0  0
    3.3624    2.8751    0.0000 C   0  0  0  0  0  0  0  0  0  0  0  0
    1.8626    4.3754    0.0000 C   0  0  0  0  0  0  0  0  0  0  0  0
    0.3624    2.8756    0.0000 C   0  0  0  0  0  0  0  0  0  0  0  0
    3.7096   -2.9243    0.0000 C   0  0  0  0  0  0  0  0  0  0  0  0
    5.7587   -2.3752    0.0000 C   0  0  0  0  0  0  0  0  0  0  0  0
    5.2096   -0.3262    0.0000 C   0  0  0  0  0  0  0  0  0  0  0  0
   -2.0361   -0.8761    0.0000 C   0  0  0  0  0  0  0  0  0  0  0  0
   -0.7361    1.3756    0.0000 C   0  0  0  0  0  0  0  0  0  0  0  0
   -2.0356    0.6248    0.0000 C   0  0  0  0  0  0  0  0  0  0  0  0
   -0.7370   -1.6261    0.0000 C   0  0  0  0  0  0  0  0  0  0  0  0
    0.5630    0.6256    0.0000 C   0  0  0  0  0  0  0  0  0  0  0  0
    0.5625   -0.8752    0.0000 C   0  0  0  0  0  0  0  0  0  0  0  0
    1.8615   -1.6252    0.0000 C   0  0  0  0  0  0  0  0  0  0  0  0
    1.8615   -3.1252    0.0000 O   0  0  0  0  0  0  0  0  0  0  0  0
   -3.3346    1.3748    0.0000 O   0  0  0  0  0  0  0  0  0  0  0  0
   -0.7368   -3.1261    0.0000 O   0  0  0  0  0  0  0  0  0  0  0  0
    1.8621    1.3754    0.0000 O   0  0  0  0  0  0  0  0  0  0  0  0
    3.1606   -0.8752    0.0000 O   0  0  0  0  0  0  0  0  0  0  0  0
   -4.6337    0.6248    0.0000 Si  0  0  0  0  0  4  0  0  0  0  0  0
   -2.0357   -3.8763    0.0000 Si  0  0  0  0  0  4  0  0  0  0  0  0
    1.8624    2.8754    0.0000 Si  0  0  0  0  0  4  0  0  0  0  0  0
    4.4596   -1.6252    0.0000 Si  0  0  0  0  0  4  0  0  0  0  0  0
 15 13  2  0
 15 14  1  0
 16 13  1  0
 17 14  2  0
 18 16  2  0
 18 17  1  0
 19 18  1  0
 20 19  2  0
 21 15  1  0
 22 16  1  0
 23 17  1  0
 24 19  1  0
 25  1  1  0
 25  2  1  0
 25  3  1  0
 25 21  1  0
 26  4  1  0
 26  5  1  0
 26  6  1  0
 26 22  1  0
 27  7  1  0
 27  8  1  0
 27  9  1  0
 27 23  1  0
 28 10  1  0
 28 11  1  0
 28 12  1  0
 28 24  1  0
M  END
>  <NAME>  (2934) 
2,4,6-TRIS(TRIMETHYLSILOXY)BENZOIC ACID TRIMETHYLSILYL ESTER

>  <SYNONYMS>  (2934) 


>  <SPECTRUM TYPE>  (2934) 
MS1

>  <INSTRUMENT TYPE>  (2934) 
EI-B

>  <INSTRUMENT>  (2934) 
JEOL JMS-01-SG

>  <ION MODE>  (2934) 
P

>  <INCHIKEY>  (2934) 
UEYBDMIEPBZEAR-UHFFFAOYSA-N

>  <FORMULA>  (2934) 
C19H38O5Si4

>  <EXACT MASS>  (2934) 
458.17963043599997

>  <MW>  (2934) 
458

>  <ID>  (2934) 
JP007490

>  <CONTRIBUTOR>  (2934) 
University of Tokyo Team, {Faculty of Engineering, University of Tokyo

>  <COMMENT>  (2934) 
SMILES=C[Si](C)(C)Oc(c1)cc(O[Si](C)(C)C)c(C(=O)O[Si](C)(C)C)c(O[Si](C)(C)C)1
InChI=InChI=1S/C19H38O5Si4/c1-25(2,3)21-15-13-16(22-26(4,5)6)18(19(20)24-28(10,11)12)17(14-15)23-27(7,8)9/h13-14H,1-12H3
computed SMILES=O=C(O[Si](C)(C)C)C=1C(O[Si](C)(C)C)=CC(O[Si](C)(C)C)=CC1O[Si](C)(C)C
accession=JP007490
date=2016.01.19 (Created 2008.10.21, modified 2011.05.06)
author=KOGA M, UNIV. OF OCCUPATIONAL AND ENVIRONMENTAL HEALTH
license=CC BY-NC-SA
exact mass=458.17963
ionization energy=70 eV
ion type=[M]+*
computed spectral entropy=2.324277876841589
computed normalized entropy=0.648602091061631
SPLASH=splash10-006x-5101900000-68b182ca5cc4e7f45d2c
submitter=submitter = University of Tokyo Team (Faculty of Engineering, University of Tokyo)
MoNA Rating=3.75

>  <NUM PEAKS>  (2934) 
36

>  <MASS SPECTRAL PEAKS>  (2934) 
44 5.8
73 99.99
74 7.3
75 0.77
131 1.9
133 3.8
147 19.7
148 0.23
149 3.1
191 1.1
193 1.5
195 0.11
207 4.2
265 1.9
281 1.5
283 0.34
296 1.1
297 1.9
325 3.1
337 0.15
339 1.9
353 4.2
355 12.4
356 0.31
357 1.5
369 8.5
370 2.3
371 0.23
441 1.1
443 68.9
444 81
445 4.18
446 10.4
447 3.1
458 6.2
459 2.3

>  <PREDICTED SPECTRUM>  (2934) 
15 20
29 16
31 1
43 35
44 45
45 252
46 62
47 86
49 1
52 0
53 18
55 45
57 45
58 13
59 84
60 22
61 37
65 1
69 9
71 33
72 20
73 667
74 186
75 189
76 36
77 53
83 21
85 43
87 4
88 25
89 53
91 39
93 41
95 14
99 20
100 21
102 2
103 23
104 19
105 33
106 17
107 38
113 19
115 44
116 10
117 29
119 47
120 27
121 28
124 18
126 8
127 22
131 94
132 2
133 152
134 17
135 71
136 2
142 15
145 17
147 273
148 119
149 60
150 2
151 8
152 0
155 6
161 13
162 36
163 9
164 10
165 16
166 7
168 3
169 25
171 10
173 20
174 15
175 3
176 18
177 51
178 41
179 37
180 9
181 3
182 4
183 19
185 3
186 7
189 50
190 21
191 30
193 32
195 17
198 19
199 22
200 6
203 31
204 2
205 52
206 43
207 41
208 21
209 24
211 2
219 32
221 28
223 29
224 5
225 33
237 5
239 11
240 2
249 14
250 37
251 33
253 65
254 27
257 6
265 44
266 22
267 51
268 20
269 44
270 17
279 43
280 31
281 187
282 98
283 80
284 4
293 55
294 19
295 66
296 49
297 66
298 24
299 49
308 1
311 38
312 1
323 27
325 102
326 35
339 35
340 27
341 90
342 68
353 72
354 67
355 241
356 146
357 81
369 129
370 127
371 170
372 88
373 17
409 13
411 11
413 34
427 5
443 999
444 655
445 461
446 232
447 111
458 117
459 74
460 43

$$$$

     RDKit          2D

 28 28  0  0  0  0  0  0  0  0999 V2000
   -4.6479   -1.7496    0.0000 C   0  0  0  0  0  0  0  0  0  0  0  0
   -5.1972    0.2994    0.0000 C   0  0  0  0  0  0  0  0  0  0  0  0
   -3.1483    0.8487    0.0000 C   0  0  0  0  0  0  0  0  0  0  0  0
    4.6479   -1.7496    0.0000 C   0  0  0  0  0  0  0  0  0  0  0  0
    5.1972    0.2994    0.0000 C   0  0  0  0  0  0  0  0  0  0  0  0
    3.1483    0.8487    0.0000 C   0  0  0  0  0  0  0  0  0  0  0  0
   -2.0490   -2.1510    0.0000 C   0  0  0  0  0  0  0  0  0  0  0  0
   -2.5981   -4.2000    0.0000 C   0  0  0  0  0  0  0  0  0  0  0  0
   -0.5490   -4.7490    0.0000 C   0  0  0  0  0  0  0  0  0  0  0  0
    0.2010    5.5500    0.0000 C   0  0  0  0  0  0  0  0  0  0  0  0
   -1.2990    7.0500    0.0000 C   0  0  0  0  0  0  0  0  0  0  0  0
   -2.7990    5.5500    0.0000 C   0  0  0  0  0  0  0  0  0  0  0  0
   -1.3000    1.0500    0.0000 C   0  0  0  0  0  0  0  0  0  0  0  0
    1.3000    1.0500    0.0000 C   0  0  0  0  0  0  0  0  0  0  0  0
    0.0000    1.8000    0.0000 C   0  0  0  0  0  0  0  0  0  0  0  0
   -1.3000   -0.4500    0.0000 C   0  0  0  0  0  0  0  0  0  0  0  0
    1.3000   -0.4500    0.0000 C   0  0  0  0  0  0  0  0  0  0  0  0
    0.0000   -1.2000    0.0000 C   0  0  0  0  0  0  0  0  0  0  0  0
    0.0000    3.3000    0.0000 C   0  0  0  0  0  0  0  0  0  0  0  0
    1.2990    4.0500    0.0000 O   0  0  0  0  0  0  0  0  0  0  0  0
   -2.5989   -1.2002    0.0000 O   0  0  0  0  0  0  0  0  0  0  0  0
    2.5989   -1.2002    0.0000 O   0  0  0  0  0  0  0  0  0  0  0  0
   -0.0000   -2.7000    0.0000 O   0  0  0  0  0  0  0  0  0  0  0  0
   -1.2990    4.0500    0.0000 O   0  0  0  0  0  0  0  0  0  0  0  0
   -3.8981   -0.4504    0.0000 Si  0  0  0  0  0  4  0  0  0  0  0  0
    3.8981   -0.4504    0.0000 Si  0  0  0  0  0  4  0  0  0  0  0  0
   -1.2990   -3.4500    0.0000 Si  0  0  0  0  0  4  0  0  0  0  0  0
   -1.2990    5.5500    0.0000 Si  0  0  0  0  0  4  0  0  0  0  0  0
 15 13  2  0
 15 14  1  0
 16 13  1  0
 17 14  2  0
 18 16  2  0
 18 17  1  0
 19 15  1  0
 20 19  2  0
 21 16  1  0
 22 17  1  0
 23 18  1  0
 24 19  1  0
 25  1  1  0
 25  2  1  0
 25  3  1  0
 25 21  1  0
 26  4  1  0
 26  5  1  0
 26  6  1  0
 26 22  1  0
 27  7  1  0
 27  8  1  0
 27  9  1  0
 27 23  1  0
 28 10  1  0
 28 11  1  0
 28 12  1  0
 28 24  1  0
M  END
>  <NAME>  (2935) 
3,4,5-TRIS(TRIMETHYLSILOXY)BENZOIC ACIDTRIMETHYLSILYL ESTER

>  <SYNONYMS>  (2935) 


>  <SPECTRUM TYPE>  (2935) 
MS1

>  <INSTRUMENT TYPE>  (2935) 
EI-B

>  <INSTRUMENT>  (2935) 
JEOL JMS-01-SG

>  <ION MODE>  (2935) 
P

>  <INCHIKEY>  (2935) 
KCIFUQKNKZTHGI-UHFFFAOYSA-N

>  <FORMULA>  (2935) 
C19H38O5Si4

>  <EXACT MASS>  (2935) 
458.17963043599997

>  <MW>  (2935) 
458

>  <ID>  (2935) 
JP007489

>  <CONTRIBUTOR>  (2935) 
University of Tokyo Team, {Faculty of Engineering, University of Tokyo

>  <COMMENT>  (2935) 
SMILES=C[Si](C)(C)OC(=O)c(c1)cc(O[Si](C)(C)C)c(O[Si](C)(C)C)c(O[Si](C)(C)C)1
InChI=InChI=1S/C19H38O5Si4/c1-25(2,3)21-16-13-15(19(20)24-28(10,11)12)14-17(22-26(4,5)6)18(16)23-27(7,8)9/h13-14H,1-12H3
computed SMILES=O=C(O[Si](C)(C)C)C1=CC(O[Si](C)(C)C)=C(O[Si](C)(C)C)C(O[Si](C)(C)C)=C1
accession=JP007489
date=2016.01.19 (Created 2008.10.21, modified 2011.05.06)
author=KOGA M, UNIV. OF OCCUPATIONAL AND ENVIRONMENTAL HEALTH
license=CC BY-NC-SA
exact mass=458.17963
ionization energy=70 eV
ion type=[M]+*
computed spectral entropy=2.224241847400877
computed normalized entropy=0.6417805365965904
SPLASH=splash10-00o0-0190000000-d5956b11cf99946b0687
submitter=submitter = University of Tokyo Team (Faculty of Engineering, University of Tokyo)
MoNA Rating=3.75

>  <NUM PEAKS>  (2935) 
32

>  <MASS SPECTRAL PEAKS>  (2935) 
44 2.2
53 2.2
66 2.2
73 3.18
75 9
76 1.1
77 5.6
81 0.34
89 2.2
96 1.1
109 3.4
119 0.22
122 2.2
134 7.9
137 5.6
151 0.45
152 4.5
167 1.1
179 1.1
195 6.02
196 5.6
213 2.2
225 67
226 1.02
227 2.2
239 1.1
269 84
270 1.25
271 3.4
284 99.99
285 17
286 4.5

>  <PREDICTED SPECTRUM>  (2935) 
15 45
27 14
29 63
30 25
31 12
32 2
39 25
41 36
43 60
44 116
45 324
46 79
47 85
51 0
53 10
55 25
57 68
58 54
59 165
60 64
61 63
63 13
66 6
69 41
70 8
71 36
72 58
73 999
74 262
75 243
76 56
77 79
78 31
79 3
83 10
85 26
87 56
88 19
89 49
91 50
93 35
99 40
100 20
101 35
102 23
103 69
104 63
105 42
106 33
107 0
112 2
113 24
115 73
116 28
117 64
119 93
120 37
121 44
126 3
127 51
129 54
131 118
132 25
133 217
134 67
135 88
136 17
137 36
139 2
141 20
142 23
143 53
145 45
146 8
147 347
148 173
149 105
150 54
151 64
152 27
153 28
155 29
156 30
157 24
158 1
159 17
160 19
161 56
162 31
163 55
164 51
165 59
166 11
167 8
168 14
169 31
170 25
171 13
173 48
174 13
175 58
176 64
177 134
178 89
179 116
180 52
181 32
182 13
183 21
184 49
185 54
186 31
189 82
190 59
191 97
192 88
193 168
194 65
195 57
196 47
197 40
198 40
199 9
200 2
203 23
205 27
207 71
208 39
209 61
210 12
211 40
212 3
213 9
217 0
219 0
221 72
222 32
223 99
224 60
225 71
226 27
227 7
235 0
236 29
237 66
238 34
239 58
241 0
243 10
249 38
250 21
251 76
252 70
253 85
254 70
255 62
256 5
257 2
265 55
266 45
267 131
268 74
269 27
270 10
279 10
280 53
281 317
282 127
283 105
284 81
293 42
294 21
295 116
296 117
297 62
298 44
299 17
308 5
309 57
310 63
311 50
312 27
313 8
323 42
324 50
325 150
326 143
327 77
328 50
339 123
340 96
341 104
342 86
343 36
353 149
354 86
355 298
356 201
357 106
358 19
367 39
368 52
369 192
370 167
371 94
372 50
383 31
384 13
385 49
386 36
399 9
400 10
413 29
414 42
415 26
427 29
429 8
430 16
441 21
443 621
444 403
445 256
446 116
447 47
457 47
458 651
459 414
460 313
461 142
462 79

$$$$

     RDKit          2D

 28 28  0  0  0  0  0  0  0  0999 V2000
    3.4225   -0.9927    0.0000 C   0  0  0  0  0  0  0  0  0  0  0  0
    5.4697   -0.4365    0.0000 C   0  0  0  0  0  0  0  0  0  0  0  0
    4.9136    1.6106    0.0000 C   0  0  0  0  0  0  0  0  0  0  0  0
   -0.8424    2.5503    0.0000 C   0  0  0  0  0  0  0  0  0  0  0  0
   -2.3447    4.0480    0.0000 C   0  0  0  0  0  0  0  0  0  0  0  0
   -3.8424    2.5458    0.0000 C   0  0  0  0  0  0  0  0  0  0  0  0
    2.2943    2.0111    0.0000 C   0  0  0  0  0  0  0  0  0  0  0  0
    2.8331    4.0629    0.0000 C   0  0  0  0  0  0  0  0  0  0  0  0
    0.7814    4.6017    0.0000 C   0  0  0  0  0  0  0  0  0  0  0  0
   -4.3955   -2.8962    0.0000 C   0  0  0  0  0  0  0  0  0  0  0  0
   -4.9536   -4.9428    0.0000 C   0  0  0  0  0  0  0  0  0  0  0  0
   -2.9070   -5.5009    0.0000 C   0  0  0  0  0  0  0  0  0  0  0  0
    0.2500   -1.9700    0.0000 C   0  0  0  0  0  0  0  0  0  0  0  0
    1.5700   -1.2100    0.0000 C   0  0  0  0  0  0  0  0  0  0  0  0
   -1.0400   -1.2100    0.0000 C   0  0  0  0  0  0  0  0  0  0  0  0
    1.5700    0.3000    0.0000 C   0  0  0  0  0  0  0  0  0  0  0  0
   -1.0400    0.3000    0.0000 C   0  0  0  0  0  0  0  0  0  0  0  0
    0.2500    1.0500    0.0000 C   0  0  0  0  0  0  0  0  0  0  0  0
   -2.3423   -1.9543    0.0000 C   0  0  0  0  0  0  0  0  0  0  0  0
   -3.6381   -1.1986    0.0000 O   0  0  0  0  0  0  0  0  0  0  0  0
    2.8664    1.0545    0.0000 O   0  0  0  0  0  0  0  0  0  0  0  0
   -2.3402    1.0480    0.0000 O   0  0  0  0  0  0  0  0  0  0  0  0
    0.2426    2.5500    0.0000 O   0  0  0  0  0  0  0  0  0  0  0  0
   -2.3489   -3.4543    0.0000 O   0  0  0  0  0  0  0  0  0  0  0  0
    4.1681    0.3090    0.0000 Si  0  0  0  0  0  4  0  0  0  0  0  0
   -2.3424    2.5480    0.0000 Si  0  0  0  0  0  4  0  0  0  0  0  0
    1.5378    3.3064    0.0000 Si  0  0  0  0  0  4  0  0  0  0  0  0
   -3.6513   -4.1985    0.0000 Si  0  0  0  0  0  4  0  0  0  0  0  0
 14 13  2  0
 15 13  1  0
 16 14  1  0
 17 15  2  0
 18 16  2  0
 18 17  1  0
 19 15  1  0
 20 19  2  0
 21 16  1  0
 22 17  1  0
 23 18  1  0
 24 19  1  0
 25  1  1  0
 25  2  1  0
 25  3  1  0
 25 21  1  0
 26  4  1  0
 26  5  1  0
 26  6  1  0
 26 22  1  0
 27  7  1  0
 27  8  1  0
 27  9  1  0
 27 23  1  0
 28 10  1  0
 28 11  1  0
 28 12  1  0
 28 24  1  0
M  END
>  <NAME>  (2936) 
2,3,4-TRIS(TRIMETHYLSILOXY)BENZOIC ACID TRIMETHYLSILYL ESTER

>  <SYNONYMS>  (2936) 


>  <SPECTRUM TYPE>  (2936) 
MS1

>  <INSTRUMENT TYPE>  (2936) 
EI-B

>  <INSTRUMENT>  (2936) 
JEOL JMS-01-SG

>  <ION MODE>  (2936) 
P

>  <INCHIKEY>  (2936) 
GWWLYEXBIBGVGY-UHFFFAOYSA-N

>  <FORMULA>  (2936) 
C19H38O5Si4

>  <EXACT MASS>  (2936) 
458.17963043599997

>  <MW>  (2936) 
458

>  <ID>  (2936) 
JP007488

>  <CONTRIBUTOR>  (2936) 
University of Tokyo Team, {Faculty of Engineering, University of Tokyo

>  <COMMENT>  (2936) 
SMILES=C[Si](C)(C)OC(=O)c(c1)c(O[Si](C)(C)C)c(O[Si](C)(C)C)c(O[Si](C)(C)C)c1
InChI=InChI=1S/C19H38O5Si4/c1-25(2,3)21-16-14-13-15(19(20)24-28(10,11)12)17(22-26(4,5)6)18(16)23-27(7,8)9/h13-14H,1-12H3
computed SMILES=O=C(O[Si](C)(C)C)C1=CC=C(O[Si](C)(C)C)C(O[Si](C)(C)C)=C1O[Si](C)(C)C
accession=JP007488
date=2016.01.19 (Created 2008.10.21, modified 2011.05.06)
author=KOGA M, UNIV. OF OCCUPATIONAL AND ENVIRONMENTAL HEALTH
license=CC BY-NC-SA
exact mass=458.17963
ionization energy=70 eV
ion type=[M]+*
computed spectral entropy=1.8695690723773613
computed normalized entropy=0.580814288620131
SPLASH=splash10-006x-5000900000-d86eda234b43061eb5e8
submitter=submitter = University of Tokyo Team (Faculty of Engineering, University of Tokyo)
MoNA Rating=3.75

>  <NUM PEAKS>  (2936) 
25

>  <MASS SPECTRAL PEAKS>  (2936) 
44 3.7
73 66.2
74 5.2
75 0.42
77 2.3
133 3.1
147 8
149 0.12
179 1
193 1.2
207 1.6
281 2.15
282 5.4
283 1.8
295 1
353 0.12
355 3.1
356 1
443 99.99
444 4
445 22.9
446 5.4
447 1.4
458 0.14
459 0.6

>  <PREDICTED SPECTRUM>  (2936) 
15 24
29 37
31 20
39 6
41 26
43 71
44 76
45 377
46 88
47 101
50 0
51 21
53 7
55 56
57 48
58 21
59 124
60 32
61 61
63 3
65 6
66 3
67 3
69 34
70 25
71 51
72 14
73 885
74 260
75 232
76 62
77 109
78 30
79 32
81 21
82 19
83 34
85 32
87 33
88 22
89 89
91 40
92 1
93 48
95 18
99 11
101 18
103 38
104 19
105 64
106 52
107 31
111 4
113 17
115 55
116 0
117 39
119 59
120 25
121 48
122 0
124 29
127 7
131 113
132 23
133 204
134 43
135 103
136 18
137 14
139 15
145 50
146 17
147 371
148 131
149 104
150 17
151 24
152 21
153 8
155 0
157 0
159 14
161 38
162 50
163 34
164 3
165 19
166 8
167 5
173 9
174 10
176 22
177 53
178 51
179 69
180 28
181 17
182 6
183 39
184 3
185 11
189 54
190 33
191 56
192 17
193 112
194 24
195 25
203 22
205 68
206 38
207 110
208 89
209 66
211 16
219 32
220 7
221 107
222 5
223 64
225 1
237 33
239 8
249 34
250 25
251 28
253 36
254 17
265 80
266 37
267 85
268 24
269 23
270 2
279 24
280 12
281 293
282 110
283 79
284 21
293 52
294 8
295 64
296 65
308 27
311 41
325 12
337 13
339 72
340 27
341 18
353 134
354 92
355 333
356 182
357 103
358 5
369 139
370 125
371 85
372 7
443 999
444 650
445 472
446 247
447 105
458 45
459 31

$$$$

     RDKit          2D

 15 15  0  0  0  0  0  0  0  0999 V2000
    8.1753   -0.0079    0.0000 C   0  0  0  0  0  0  0  0  0  0  0  0
    8.7240    2.0412    0.0000 C   0  0  0  0  0  0  0  0  0  0  0  0
    6.6749    2.5900    0.0000 C   0  0  0  0  0  0  0  0  0  0  0  0
   -1.6700   -0.9600    0.0000 C   0  0  0  0  0  0  0  0  0  0  0  0
   -0.3700   -1.7100    0.0000 C   0  0  0  0  0  0  0  0  0  0  0  0
   -1.6700    0.5400    0.0000 C   0  0  0  0  0  0  0  0  0  0  0  0
    0.9300   -0.9600    0.0000 C   0  0  0  0  0  0  0  0  0  0  0  0
   -0.3700    1.2900    0.0000 C   0  0  0  0  0  0  0  0  0  0  0  0
    3.5281    0.5404    0.0000 C   0  0  0  0  0  0  0  0  0  0  0  0
    0.9300    0.5400    0.0000 C   0  0  0  0  0  0  0  0  0  0  0  0
    4.8270    1.2906    0.0000 C   0  0  0  0  0  0  0  0  0  0  0  0
    4.8268    2.7906    0.0000 O   0  0  0  0  0  0  0  0  0  0  0  0
    6.1262    0.5408    0.0000 O   0  0  0  0  0  0  0  0  0  0  0  0
    2.2289    1.2902    0.0000 S   0  0  0  0  0  0  0  0  0  0  0  0
    7.4251    1.2910    0.0000 Si  0  0  0  0  0  4  0  0  0  0  0  0
  5  4  2  0
  6  4  1  0
  7  5  1  0
  8  6  2  0
 10  7  2  0
 10  8  1  0
 11  9  1  0
 12 11  2  0
 13 11  1  0
 14  9  1  0
 14 10  1  0
 15  1  1  0
 15  2  1  0
 15  3  1  0
 15 13  1  0
M  END
>  <NAME>  (2937) 
PHENYLTHIOACETIC ACID TRIMETHYLSILYL ESTER

>  <SYNONYMS>  (2937) 


>  <SPECTRUM TYPE>  (2937) 
MS1

>  <INSTRUMENT TYPE>  (2937) 
EI-B

>  <INSTRUMENT>  (2937) 
JEOL JMS-01-SG

>  <ION MODE>  (2937) 
P

>  <INCHIKEY>  (2937) 
XVQPISUQLXNRHH-UHFFFAOYSA-N

>  <FORMULA>  (2937) 
C11H16O2SSi

>  <EXACT MASS>  (2937) 
240.06402728199998

>  <MW>  (2937) 
240

>  <ID>  (2937) 
JP007485

>  <CONTRIBUTOR>  (2937) 
University of Tokyo Team, {Faculty of Engineering, University of Tokyo

>  <COMMENT>  (2937) 
SMILES=O=C(CSc(c1)cccc1)O[Si](C)(C)C
InChI=InChI=1S/C11H16O2SSi/c1-15(2,3)13-11(12)9-14-10-7-5-4-6-8-10/h4-8H,9H2,1-3H3
computed SMILES=O=C(O[Si](C)(C)C)CSC=1C=CC=CC1
accession=JP007485
date=2016.01.19 (Created 2008.10.21, modified 2011.05.06)
author=KOGA M, UNIV. OF OCCUPATIONAL AND ENVIRONMENTAL HEALTH
license=CC BY-NC-SA
exact mass=240.06403
ionization energy=70 eV
ion type=[M]+*
computed spectral entropy=2.5199668037239444
computed normalized entropy=0.6878461582286058
SPLASH=splash10-00di-9330000000-d7fc1c799cc051319717
submitter=submitter = University of Tokyo Team (Faculty of Engineering, University of Tokyo)
MoNA Rating=3.75

>  <NUM PEAKS>  (2937) 
39

>  <MASS SPECTRAL PEAKS>  (2937) 
43 2.1
44 1
45 12.5
47 0.4
51 4.5
61 2.1
65 5
69 0.13
72 3.2
73 99.99
74 10.4
75 2.54
76 2.1
77 5.8
79 1.3
91 0.42
105 2.4
109 7.4
110 1.3
113 0.21
117 2.4
121 1.6
123 3.4
135 0.18
151 1.6
165 3.7
167 1.6
169 0.42
181 21.1
182 2.9
183 1.6
196 1.12
197 1.8
225 17.9
226 2.6
227 0.13
240 36
241 6.1
242 3.2

>  <PREDICTED SPECTRUM>  (2937) 
14 1
15 20
18 3
25 2
26 30
27 48
28 27
29 29
31 4
37 15
38 86
39 199
40 66
41 66
42 145
43 227
44 204
45 605
46 107
47 297
49 51
50 173
51 336
52 90
53 62
55 65
56 41
57 82
58 314
59 175
60 80
61 108
62 16
63 105
64 59
65 270
66 123
69 131
70 28
71 121
72 167
73 999
74 332
75 584
76 211
77 549
78 254
79 247
81 33
82 90
83 30
85 80
86 19
91 262
92 11
93 23
101 27
103 201
104 125
105 469
106 94
108 166
109 418
110 166
117 211
118 49
121 237
122 266
123 774
124 126
125 26
131 200
132 48
137 28
149 161
150 214
151 245
152 84
163 52
166 104
167 36
168 102
181 192
182 92
195 108
197 58
225 493
226 201
227 127
228 25
240 754
241 313
242 244
243 66

$$$$

     RDKit          2D

 18 18  0  0  0  0  0  0  0  0999 V2000
   -0.1353    4.6903    0.0000 C   0  0  0  0  0  0  0  0  0  0  0  0
   -1.6378    6.1878    0.0000 C   0  0  0  0  0  0  0  0  0  0  0  0
   -3.1353    4.6853    0.0000 C   0  0  0  0  0  0  0  0  0  0  0  0
    2.8183   -1.1087    0.0000 C   0  0  0  0  0  0  0  0  0  0  0  0
    4.8672   -0.5594    0.0000 C   0  0  0  0  0  0  0  0  0  0  0  0
    4.3179    1.4896    0.0000 C   0  0  0  0  0  0  0  0  0  0  0  0
   -1.6200   -1.3100    0.0000 C   0  0  0  0  0  0  0  0  0  0  0  0
   -0.3300   -2.0600    0.0000 C   0  0  0  0  0  0  0  0  0  0  0  0
   -1.6200    0.1900    0.0000 C   0  0  0  0  0  0  0  0  0  0  0  0
    0.9700   -1.3100    0.0000 C   0  0  0  0  0  0  0  0  0  0  0  0
   -0.3300    0.9400    0.0000 C   0  0  0  0  0  0  0  0  0  0  0  0
    0.9700    0.1900    0.0000 C   0  0  0  0  0  0  0  0  0  0  0  0
   -0.3325    2.4400    0.0000 C   0  0  0  0  0  0  0  0  0  0  0  0
    0.9653    3.1922    0.0000 O   0  0  0  0  0  0  0  0  0  0  0  0
   -1.6328    3.1878    0.0000 O   0  0  0  0  0  0  0  0  0  0  0  0
    2.2689    0.9402    0.0000 S   0  0  0  0  0  0  0  0  0  0  0  0
   -1.6353    4.6878    0.0000 Si  0  0  0  0  0  4  0  0  0  0  0  0
    3.5681    0.1904    0.0000 Si  0  0  0  0  0  4  0  0  0  0  0  0
  8  7  2  0
  9  7  1  0
 10  8  1  0
 11  9  2  0
 12 10  2  0
 12 11  1  0
 13 11  1  0
 14 13  2  0
 15 13  1  0
 16 12  1  0
 17  1  1  0
 17  2  1  0
 17  3  1  0
 17 15  1  0
 18  4  1  0
 18  5  1  0
 18  6  1  0
 18 16  1  0
M  END
>  <NAME>  (2938) 
2-TRIMETHYLSILYLTHIOBENZOIC ACID TRIMETHYLSILYL ESTER

>  <SYNONYMS>  (2938) 


>  <SPECTRUM TYPE>  (2938) 
MS1

>  <INSTRUMENT TYPE>  (2938) 
EI-B

>  <INSTRUMENT>  (2938) 
JEOL JMS-01-SG

>  <ION MODE>  (2938) 
P

>  <INCHIKEY>  (2938) 
BYCZOPBRJLQLGV-UHFFFAOYSA-N

>  <FORMULA>  (2938) 
C13H22O2SSi2

>  <EXACT MASS>  (2938) 
298.08790400400005

>  <MW>  (2938) 
298

>  <ID>  (2938) 
JP007484

>  <CONTRIBUTOR>  (2938) 
University of Tokyo Team, {Faculty of Engineering, University of Tokyo

>  <COMMENT>  (2938) 
SMILES=C[Si](C)(C)OC(=O)c(c1)c(ccc1)S[Si](C)(C)C
InChI=InChI=1S/C13H22O2SSi2/c1-17(2,3)15-13(14)11-9-7-8-10-12(11)16-18(4,5)6/h7-10H,1-6H3
computed SMILES=O=C(O[Si](C)(C)C)C=1C=CC=CC1S[Si](C)(C)C
accession=JP007484
date=2016.01.19 (Created 2008.10.21, modified 2011.05.06)
author=KOGA M, UNIV. OF OCCUPATIONAL AND ENVIRONMENTAL HEALTH
license=CC BY-NC-SA
exact mass=298.0879
ionization energy=70 eV
ion type=[M]+*
computed spectral entropy=1.9681298004807841
computed normalized entropy=0.6464494319682124
SPLASH=splash10-000t-5960000000-2a8ae2e73b1408c73129
submitter=submitter = University of Tokyo Team (Faculty of Engineering, University of Tokyo)
MoNA Rating=3.75

>  <NUM PEAKS>  (2938) 
21

>  <MASS SPECTRAL PEAKS>  (2938) 
43 3.1
44 2.7
45 12.1
59 0.1
69 1.3
73 47
74 4.5
91 0.31
93 2.4
105 1
131 1
133 0.1
147 99.99
148 15.6
149 9.7
151 0.52
283 63.7
284 16
285 9
286 0.1
298 1

>  <PREDICTED SPECTRUM>  (2938) 
29 54
39 64
40 6
41 17
43 101
44 93
45 308
46 73
47 133
48 3
49 22
50 21
51 49
52 36
53 52
54 10
55 83
56 2
57 58
58 49
59 117
60 38
61 80
63 49
65 88
66 85
67 38
68 22
69 75
70 21
71 32
72 53
73 734
74 218
75 264
76 78
77 136
78 59
79 51
80 0
81 27
82 37
83 32
84 4
85 20
89 56
90 42
91 127
92 26
93 96
94 6
95 54
96 28
97 18
99 33
105 74
106 51
107 54
108 92
109 65
110 15
111 34
113 30
115 31
117 33
118 27
119 120
120 55
121 86
122 15
123 38
124 5
131 156
133 88
134 24
135 76
136 163
137 43
147 999
148 425
149 338
150 134
151 242
152 58
165 30
167 41
168 16
179 24
180 15
181 3
193 134
194 44
195 50
196 0
208 16
209 11
210 7
211 16
225 20
226 29
283 801
284 373
285 258
286 89
287 44
298 33
299 16

$$$$

     RDKit          2D

 18 18  0  0  0  0  0  0  0  0999 V2000
   -4.8209    4.9482    0.0000 C   0  0  0  0  0  0  0  0  0  0  0  0
   -6.8700    4.3992    0.0000 C   0  0  0  0  0  0  0  0  0  0  0  0
   -6.3209    2.3501    0.0000 C   0  0  0  0  0  0  0  0  0  0  0  0
    3.5228    2.9000    0.0000 C   0  0  0  0  0  0  0  0  0  0  0  0
    0.9238    1.3983    0.0000 C   0  0  0  0  0  0  0  0  0  0  0  0
   -1.6738    2.8992    0.0000 C   0  0  0  0  0  0  0  0  0  0  0  0
    3.5223    1.3992    0.0000 C   0  0  0  0  0  0  0  0  0  0  0  0
    2.2228    0.6483    0.0000 C   0  0  0  0  0  0  0  0  0  0  0  0
    2.2238    3.6500    0.0000 C   0  0  0  0  0  0  0  0  0  0  0  0
    0.9242    2.8992    0.0000 C   0  0  0  0  0  0  0  0  0  0  0  0
   -2.9729    3.6492    0.0000 C   0  0  0  0  0  0  0  0  0  0  0  0
    4.8214    0.6492    0.0000 Cl  0  0  0  0  0  0  0  0  0  0  0  0
    2.2230   -0.8517    0.0000 Cl  0  0  0  0  0  0  0  0  0  0  0  0
    2.2235    5.1500    0.0000 Cl  0  0  0  0  0  0  0  0  0  0  0  0
   -2.9729    5.1492    0.0000 O   0  0  0  0  0  0  0  0  0  0  0  0
   -0.3748    3.6492    0.0000 O   0  0  0  0  0  0  0  0  0  0  0  0
   -4.2719    2.8992    0.0000 O   0  0  0  0  0  0  0  0  0  0  0  0
   -5.5709    3.6492    0.0000 Si  0  0  0  0  0  4  0  0  0  0  0  0
  7  4  2  0
  8  5  2  0
  8  7  1  0
  9  4  1  0
 10  5  1  0
 10  9  2  0
 11  6  1  0
 12  7  1  0
 13  8  1  0
 14  9  1  0
 15 11  2  0
 16  6  1  0
 16 10  1  0
 17 11  1  0
 18  1  1  0
 18  2  1  0
 18  3  1  0
 18 17  1  0
M  END
>  <NAME>  (2939) 
2,4,5-TRICHLOROPHENOXYACETIC ACID TRIMETHYLSILYL ESTER

>  <SYNONYMS>  (2939) 


>  <SPECTRUM TYPE>  (2939) 
MS1

>  <INSTRUMENT TYPE>  (2939) 
EI-B

>  <INSTRUMENT>  (2939) 
JEOL JMS-01-SG

>  <ION MODE>  (2939) 
P

>  <INCHIKEY>  (2939) 
DXJQCDVGISANSY-UHFFFAOYSA-N

>  <FORMULA>  (2939) 
C11H13Cl3O3Si

>  <EXACT MASS>  (2939) 
325.96995384599995

>  <MW>  (2939) 
326

>  <ID>  (2939) 
JP007482

>  <CONTRIBUTOR>  (2939) 
University of Tokyo Team, {Faculty of Engineering, University of Tokyo

>  <COMMENT>  (2939) 
SMILES=O=C(COc(c1)c(Cl)cc(Cl)c(Cl)1)O[Si](C)(C)C
InChI=InChI=1S/C11H13Cl3O3Si/c1-18(2,3)17-11(15)6-16-10-5-8(13)7(12)4-9(10)14/h4-5H,6H2,1-3H3
computed SMILES=O=C(O[Si](C)(C)C)COC1=CC(Cl)=C(Cl)C=C1Cl
accession=JP007482
date=2016.01.19 (Created 2008.10.21, modified 2011.05.06)
author=KOGA M, UNIV. OF OCCUPATIONAL AND ENVIRONMENTAL HEALTH
license=CC BY-NC-SA
exact mass=325.96995
ionization energy=70 eV
ion type=[M]+*
computed spectral entropy=2.2115388209216973
computed normalized entropy=0.5844154323291153
SPLASH=splash10-00di-9010000000-465562f33d8394355c3f
submitter=submitter = University of Tokyo Team (Faculty of Engineering, University of Tokyo)
MoNA Rating=3.75

>  <NUM PEAKS>  (2939) 
44

>  <MASS SPECTRAL PEAKS>  (2939) 
43 1.8
44 1.4
45 4.6
47 0.21
58 0.7
59 0.7
61 0.7
72 0.21
73 99.99
74 10.1
75 16.9
76 0.1
93 9
95 4.3
97 0.7
101 0.07
109 0.7
116 0.7
117 2.5
145 0.07
179 0.7
181 1.4
193 1
195 0.1
232 1
237 1.4
239 1.4
247 0.1
249 0.7
253 1.4
255 1.4
267 0.61
268 0.7
269 5.4
271 1.4
283 0.14
285 1.4
291 4.3
293 2.8
296 0.07
326 6.4
327 0.7
328 6.4
330 1.8

>  <PREDICTED SPECTRUM>  (2939) 
14 10
15 33
27 39
28 19
29 51
31 34
32 11
35 4
36 37
37 16
38 15
39 21
41 27
42 22
43 126
44 48
45 292
46 17
47 108
48 25
49 49
53 5
56 4
57 8
58 46
59 122
61 91
62 60
63 44
65 3
69 23
70 18
71 13
72 73
73 999
74 269
75 387
76 41
77 57
79 23
81 5
83 36
85 10
87 13
88 22
89 17
93 242
95 58
96 0
97 110
99 22
101 75
103 48
107 76
108 30
109 132
111 39
113 45
115 56
116 43
117 160
123 28
125 11
131 120
135 6
143 128
145 55
146 34
147 28
148 15
149 22
161 36
162 11
163 56
167 24
169 7
171 4
173 14
174 6
175 3
177 19
179 118
183 41
189 31
190 37
193 18
194 7
195 20
196 131
198 0
223 0
241 6
253 71
254 29
255 52
265 35
267 60
269 61
281 51
282 36
283 27
285 4
291 63
293 67
294 0
311 24
326 214
327 65
328 201
329 50
330 93
331 33

$$$$

     RDKit          2D

 23 23  0  0  0  0  0  0  0  0999 V2000
   -4.6479    2.0496    0.0000 C   0  0  0  0  0  0  0  0  0  0  0  0
   -5.1972    0.0006    0.0000 C   0  0  0  0  0  0  0  0  0  0  0  0
   -3.1483   -0.5487    0.0000 C   0  0  0  0  0  0  0  0  0  0  0  0
    5.9472    0.2017    0.0000 C   0  0  0  0  0  0  0  0  0  0  0  0
    6.4959    2.2508    0.0000 C   0  0  0  0  0  0  0  0  0  0  0  0
    4.4468    2.7995    0.0000 C   0  0  0  0  0  0  0  0  0  0  0  0
   -2.0490   -2.4510    0.0000 C   0  0  0  0  0  0  0  0  0  0  0  0
   -2.5981   -4.5000    0.0000 C   0  0  0  0  0  0  0  0  0  0  0  0
   -0.5490   -5.0490    0.0000 C   0  0  0  0  0  0  0  0  0  0  0  0
    0.0000    1.5000    0.0000 C   0  0  0  0  0  0  0  0  0  0  0  0
    1.3000    0.7500    0.0000 C   0  0  0  0  0  0  0  0  0  0  0  0
   -1.3000    0.7500    0.0000 C   0  0  0  0  0  0  0  0  0  0  0  0
    2.5989    1.5002    0.0000 C   0  0  0  0  0  0  0  0  0  0  0  0
    0.0000   -1.5000    0.0000 C   0  0  0  0  0  0  0  0  0  0  0  0
    1.3000   -0.7500    0.0000 N   0  0  0  0  0  0  0  0  0  0  0  0
   -1.3000   -0.7500    0.0000 N   0  0  0  0  0  0  0  0  0  0  0  0
    2.5987    3.0002    0.0000 O   0  0  0  0  0  0  0  0  0  0  0  0
   -2.5989    1.5002    0.0000 O   0  0  0  0  0  0  0  0  0  0  0  0
    3.8981    0.7504    0.0000 O   0  0  0  0  0  0  0  0  0  0  0  0
   -0.0000   -3.0000    0.0000 O   0  0  0  0  0  0  0  0  0  0  0  0
   -3.8981    0.7504    0.0000 Si  0  0  0  0  0  4  0  0  0  0  0  0
    5.1970    1.5006    0.0000 Si  0  0  0  0  0  4  0  0  0  0  0  0
   -1.2990   -3.7500    0.0000 Si  0  0  0  0  0  4  0  0  0  0  0  0
 11 10  2  0
 12 10  1  0
 13 11  1  0
 15 11  1  0
 15 14  2  0
 16 12  2  0
 16 14  1  0
 17 13  2  0
 18 12  1  0
 19 13  1  0
 20 14  1  0
 21  1  1  0
 21  2  1  0
 21  3  1  0
 21 18  1  0
 22  4  1  0
 22  5  1  0
 22  6  1  0
 22 19  1  0
 23  7  1  0
 23  8  1  0
 23  9  1  0
 23 20  1  0
M  END
>  <NAME>  (2940) 
2,6-BIS(TRIMETHYLSILOXY)PYRIMIDINE-4-CARBOXYLIC ACID TRIMETHYLSILYL ESTER

>  <SYNONYMS>  (2940) 


>  <SPECTRUM TYPE>  (2940) 
MS1

>  <INSTRUMENT TYPE>  (2940) 
EI-B

>  <INSTRUMENT>  (2940) 
JEOL JMS-01-SG

>  <ION MODE>  (2940) 
P

>  <INCHIKEY>  (2940) 
QOXWEKWDMOZSFV-UHFFFAOYSA-N

>  <FORMULA>  (2940) 
C14H28N2O4Si3

>  <EXACT MASS>  (2940) 
372.135686966

>  <MW>  (2940) 
372

>  <ID>  (2940) 
JP007481

>  <CONTRIBUTOR>  (2940) 
University of Tokyo Team, {Faculty of Engineering, University of Tokyo

>  <COMMENT>  (2940) 
SMILES=C[Si](C)(C)OC(=O)c(c1)nc(O[Si](C)(C)C)nc(O[Si](C)(C)C)1
InChI=InChI=1S/C14H28N2O4Si3/c1-21(2,3)18-12-10-11(13(17)19-22(4,5)6)15-14(16-12)20-23(7,8)9/h10H,1-9H3
computed SMILES=O=C(O[Si](C)(C)C)C=1N=C(N=C(O[Si](C)(C)C)C1)O[Si](C)(C)C
accession=JP007481
date=2016.01.19 (Created 2008.10.21, modified 2011.05.06)
author=KOGA M, UNIV. OF OCCUPATIONAL AND ENVIRONMENTAL HEALTH
license=CC BY-NC-SA
exact mass=372.13569
ionization energy=70 eV
ion type=[M]+*
computed spectral entropy=2.3869583957399843
computed normalized entropy=0.6950982206987746
SPLASH=splash10-0zmi-7396000000-f6d00bbaad53e7ee2bd5
submitter=submitter = University of Tokyo Team (Faculty of Engineering, University of Tokyo)
MoNA Rating=3.75

>  <NUM PEAKS>  (2940) 
31

>  <MASS SPECTRAL PEAKS>  (2940) 
43 1.5
44 3.1
45 14.8
57 0.62
72 3.1
73 69.5
74 5.4
77 0.23
93 1.5
100 7.8
131 4.6
133 0.39
147 22.6
148 3.1
174 3.1
186 0.15
239 1.5
253 4.6
254 99.99
255 2.81
256 8.5
269 3.1
270 4.6
329 0.23
357 57.8
358 16.4
359 7.8
360 0.15
371 3.1
372 8.5
373 1.5

>  <PREDICTED SPECTRUM>  (2940) 
14 3
15 50
26 38
27 42
28 42
29 75
30 41
31 52
38 22
39 76
40 47
41 121
42 85
43 287
44 222
45 456
46 116
47 146
48 9
49 29
50 33
51 50
52 67
53 101
54 61
55 123
56 65
57 137
58 120
59 191
60 43
61 56
62 8
63 13
64 3
65 14
66 93
67 59
68 79
69 111
70 157
71 134
72 273
73 999
74 317
75 372
76 99
77 149
78 44
79 60
80 48
81 41
82 62
83 101
84 99
85 120
86 98
87 90
88 17
89 7
90 15
91 29
92 17
93 104
94 58
95 81
96 48
97 70
98 94
99 221
100 276
101 111
102 92
103 92
104 29
105 50
106 29
107 41
108 37
109 75
110 65
111 71
112 105
113 107
114 73
115 69
116 77
117 72
118 31
119 74
120 36
121 29
123 31
124 22
125 35
126 56
127 82
128 19
129 73
130 71
131 251
132 54
133 236
134 47
135 49
136 28
137 43
138 52
140 62
141 50
142 102
143 118
144 49
145 64
146 32
147 732
148 281
149 177
150 29
151 72
152 31
153 3
154 35
155 48
156 89
157 122
158 108
159 25
160 59
161 25
163 1
165 63
166 8
167 65
168 99
169 49
170 55
171 125
172 133
173 107
174 108
175 25
180 8
181 78
182 77
183 57
184 75
185 58
186 58
187 81
188 135
189 35
190 52
194 2
195 111
196 40
197 46
198 36
199 14
200 67
201 52
202 67
203 32
204 2
207 14
209 62
210 24
211 56
212 67
213 70
214 97
215 52
216 22
219 42
221 31
223 9
225 92
226 42
227 6
228 51
229 53
230 46
231 62
239 97
240 40
241 70
242 122
243 88
244 25
245 56
246 1
253 102
254 73
255 201
256 90
257 106
258 98
259 42
260 0
267 48
268 9
269 190
270 128
271 69
272 28
282 11
283 109
284 70
285 143
286 91
287 33
297 0
298 68
299 67
300 97
313 48
314 16
327 11
328 23
329 101
330 80
331 38
332 28
341 18
342 5
343 175
344 124
345 126
346 42
347 6
355 7
357 921
358 493
359 271
360 133
361 27
371 247
372 499
373 302
374 174
375 85

$$$$

     RDKit          2D

 14 13  0  0  0  0  0  0  0  0999 V2000
    2.3505    4.6740    0.0000 C   0  0  0  0  0  0  0  0  0  0  0  0
    6.9976    3.7231    0.0000 C   0  0  0  0  0  0  0  0  0  0  0  0
    5.4976    1.1250    0.0000 C   0  0  0  0  0  0  0  0  0  0  0  0
    7.5466    1.6740    0.0000 C   0  0  0  0  0  0  0  0  0  0  0  0
    0.5024    4.4731    0.0000 C   0  0  0  0  0  0  0  0  0  0  0  0
   -1.5466    3.9240    0.0000 C   0  0  0  0  0  0  0  0  0  0  0  0
   -0.9976    1.8750    0.0000 C   0  0  0  0  0  0  0  0  0  0  0  0
    2.3505    3.1740    0.0000 C   0  0  0  0  0  0  0  0  0  0  0  0
    3.6495    2.4240    0.0000 C   0  0  0  0  0  0  0  0  0  0  0  0
    3.6495    0.9240    0.0000 O   0  0  0  0  0  0  0  0  0  0  0  0
    4.9486    3.1740    0.0000 O   0  0  0  0  0  0  0  0  0  0  0  0
    1.0514    2.4240    0.0000 S   0  0  0  0  0  0  0  0  0  0  0  0
    6.2476    2.4240    0.0000 Si  0  0  0  0  0  4  0  0  0  0  0  0
   -0.2476    3.1740    0.0000 Si  0  0  0  0  0  4  0  0  0  0  0  0
  8  1  1  0
  9  8  1  0
 10  9  2  0
 11  9  1  0
 12  8  1  0
 13  2  1  0
 13  3  1  0
 13  4  1  0
 13 11  1  0
 14  5  1  0
 14  6  1  0
 14  7  1  0
 14 12  1  0
M  END
>  <NAME>  (2941) 
2-TRIMETHYLSILYLTHIOPROPIONIC ACID TRIMETHYLSILYL ESTER

>  <SYNONYMS>  (2941) 


>  <SPECTRUM TYPE>  (2941) 
MS1

>  <INSTRUMENT TYPE>  (2941) 
EI-B

>  <INSTRUMENT>  (2941) 
JEOL JMS-01-SG

>  <ION MODE>  (2941) 
P

>  <INCHIKEY>  (2941) 
BDZFEVXFJFUWAV-UHFFFAOYSA-N

>  <FORMULA>  (2941) 
C9H22O2SSi2

>  <EXACT MASS>  (2941) 
250.087904004

>  <MW>  (2941) 
250

>  <ID>  (2941) 
JP007480

>  <CONTRIBUTOR>  (2941) 
University of Tokyo Team, {Faculty of Engineering, University of Tokyo

>  <COMMENT>  (2941) 
SMILES=O=C(O[Si](C)(C)C)C(C)S[Si](C)(C)C
InChI=InChI=1S/C9H22O2SSi2/c1-8(12-14(5,6)7)9(10)11-13(2,3)4/h8H,1-7H3
computed SMILES=O=C(O[Si](C)(C)C)C(S[Si](C)(C)C)C
accession=JP007480
date=2016.01.19 (Created 2008.10.21, modified 2011.05.06)
author=KOGA M, UNIV. OF OCCUPATIONAL AND ENVIRONMENTAL HEALTH
license=CC BY-NC-SA
exact mass=250.0879
ionization energy=70 eV
ion type=[M]+*
computed spectral entropy=3.249285085583095
computed normalized entropy=0.7904122561144356
SPLASH=splash10-000b-9780000000-61df8d862b282480de76
submitter=submitter = University of Tokyo Team (Faculty of Engineering, University of Tokyo)
MoNA Rating=3.75

>  <NUM PEAKS>  (2941) 
61

>  <MASS SPECTRAL PEAKS>  (2941) 
43 16.7
44 7.5
45 50.8
46 0.32
47 14
55 16.7
56 3.7
58 0.27
59 15.1
60 2.7
61 6.4
66 1.13
69 1.6
70 2.1
72 5.9
73 0.75
74 32.4
75 58.3
76 5.4
77 0.43
85 2.1
86 3.7
88 10.8
90 1.45
91 5.4
92 1.6
93 2.7
96 0.27
103 5.4
105 1.6
116 2.1
118 0.7
119 2.1
129 3.2
131 3.2
132 0.81
133 42.1
134 3.7
135 2.1
144 0.32
147 28.6
148 49.7
149 29.7
150 0.27
160 10.2
163 24.8
164 2.7
165 0.21
180 1.6
190 5.9
207 71.8
208 1.4
209 8.1
218 1.6
221 3.2
235 99.99
236 19.4
237 12.4
250 26.4
251 0.48
252 2.7

>  <PREDICTED SPECTRUM>  (2941) 
14 14
15 88
18 40
26 5
27 73
28 62
29 151
31 54
32 12
39 57
40 15
41 130
42 95
43 343
44 228
45 449
46 142
47 249
48 40
49 22
50 4
51 21
52 30
53 81
54 39
55 132
56 37
57 38
58 139
59 272
60 114
61 199
62 31
63 47
65 42
66 97
67 30
68 7
69 102
70 77
71 87
72 151
73 999
74 340
75 658
76 152
77 143
78 43
81 38
82 45
83 61
84 18
85 44
86 31
87 67
88 74
89 168
90 40
91 120
93 8
95 0
96 19
99 49
101 74
102 25
103 212
104 81
105 84
106 13
109 13
113 20
115 33
116 78
117 265
118 93
119 114
120 12
127 5
129 13
130 110
131 256
132 192
133 218
134 111
135 87
137 25
143 60
145 245
146 89
147 940
148 450
149 323
150 111
160 140
161 73
162 38
163 112
164 75
165 31
175 30
176 14
177 88
178 61
179 47
189 51
190 21
191 236
192 109
193 231
194 101
195 67
205 51
206 121
207 188
208 125
209 29
219 56
220 2
221 9
235 504
236 216
237 150
238 21
250 154
251 45
252 23

$$$$

     RDKit          2D

 16 15  0  0  0  0  0  0  0  0999 V2000
    5.2599    2.3603    0.0000 C   0  0  0  0  0  0  0  0  0  0  0  0
    2.1127   -1.1887    0.0000 C   0  0  0  0  0  0  0  0  0  0  0  0
    0.6127    1.4094    0.0000 C   0  0  0  0  0  0  0  0  0  0  0  0
    0.0637   -0.6397    0.0000 C   0  0  0  0  0  0  0  0  0  0  0  0
    6.7599    6.8603    0.0000 C   0  0  0  0  0  0  0  0  0  0  0  0
    5.2599    8.3603    0.0000 C   0  0  0  0  0  0  0  0  0  0  0  0
    3.7599    6.8603    0.0000 C   0  0  0  0  0  0  0  0  0  0  0  0
    3.9608    3.1103    0.0000 C   0  0  0  0  0  0  0  0  0  0  0  0
    2.6618    2.3603    0.0000 C   0  0  0  0  0  0  0  0  0  0  0  0
    3.9608    4.6103    0.0000 C   0  0  0  0  0  0  0  0  0  0  0  0
    1.3627    3.1103    0.0000 O   0  0  0  0  0  0  0  0  0  0  0  0
    2.6618    5.3603    0.0000 O   0  0  0  0  0  0  0  0  0  0  0  0
    2.6618    0.8603    0.0000 O   0  0  0  0  0  0  0  0  0  0  0  0
    5.2599    5.3603    0.0000 O   0  0  0  0  0  0  0  0  0  0  0  0
    1.3627    0.1103    0.0000 Si  0  0  0  0  0  4  0  0  0  0  0  0
    5.2599    6.8603    0.0000 Si  0  0  0  0  0  4  0  0  0  0  0  0
  8  1  1  0
  9  8  1  0
 10  8  1  0
 11  9  2  0
 12 10  2  0
 13  9  1  0
 14 10  1  0
 15  2  1  0
 15  3  1  0
 15  4  1  0
 15 13  1  0
 16  5  1  0
 16  6  1  0
 16  7  1  0
 16 14  1  0
M  END
>  <NAME>  (2942) 
METHYLMALONIC ACID BIS(TRIMETHYLSILYL) ESTER

>  <SYNONYMS>  (2942) 


>  <SPECTRUM TYPE>  (2942) 
MS1

>  <INSTRUMENT TYPE>  (2942) 
EI-B

>  <INSTRUMENT>  (2942) 
JEOL JMS-01-SG

>  <ION MODE>  (2942) 
P

>  <INCHIKEY>  (2942) 
LJDAAXOEMCESSS-UHFFFAOYSA-N

>  <FORMULA>  (2942) 
C10H22O4Si2

>  <EXACT MASS>  (2942) 
262.105662244

>  <MW>  (2942) 
262

>  <ID>  (2942) 
JP007479

>  <CONTRIBUTOR>  (2942) 
University of Tokyo Team, {Faculty of Engineering, University of Tokyo

>  <COMMENT>  (2942) 
SMILES=O=C(O[Si](C)(C)C)C(C)C(=O)O[Si](C)(C)C
InChI=InChI=1S/C10H22O4Si2/c1-8(9(11)13-15(2,3)4)10(12)14-16(5,6)7/h8H,1-7H3
computed SMILES=O=C(O[Si](C)(C)C)C(C(=O)O[Si](C)(C)C)C
accession=JP007479
date=2016.01.19 (Created 2008.10.21, modified 2011.05.06)
author=KOGA M, UNIV. OF OCCUPATIONAL AND ENVIRONMENTAL HEALTH
license=CC BY-NC-SA
exact mass=262.10566
ionization energy=70 eV
ion type=[M]+*
computed spectral entropy=3.2047326046004647
computed normalized entropy=0.770575306005377
SPLASH=splash10-0002-9520000000-a4f8230dd9ae4f48b439
submitter=submitter = University of Tokyo Team (Faculty of Engineering, University of Tokyo)
MoNA Rating=3.75

>  <NUM PEAKS>  (2942) 
64

>  <MASS SPECTRAL PEAKS>  (2942) 
43 12.8
44 18.1
45 48.1
46 0.3
47 15.5
51 1.5
52 2.2
55 2.12
56 99.99
57 16.2
58 8.7
59 1.7
60 1.8
61 6.8
66 5.11
71 1.8
72 15.9
73 20.4
74 2.53
75 71.9
76 6
77 7.9
83 0.98
85 1.1
86 4.5
87 1.1
93 0.11
94 10.9
99 1.1
103 1.1
105 0.11
113 8.7
115 3.7
116 11.7
119 0.11
129 9
130 6
131 14
132 0.18
133 16.2
134 1.8
135 1.1
147 4.92
148 92
149 47.7
150 4.9
151 0.11
157 9.4
163 1.5
172 3.4
173 0.11
175 1.1
190 1.8
191 1.1
203 0.41
217 1.1
218 37.1
219 7.9
220 0.34
231 1.5
247 44.6
248 8.3
249 0.37
262 3.4

>  <PREDICTED SPECTRUM>  (2942) 
13 5
14 18
15 65
18 38
25 6
26 20
27 160
28 55
29 68
30 11
31 43
38 5
39 75
40 45
41 160
42 95
43 278
44 174
45 409
46 122
47 218
48 42
49 18
53 85
54 78
55 340
56 146
57 113
58 168
59 236
60 90
61 187
62 27
63 21
65 2
66 145
67 7
69 37
70 16
71 98
72 235
73 999
74 345
75 549
76 109
77 158
81 0
82 83
83 164
84 75
85 172
86 80
87 130
88 53
89 110
90 0
91 43
99 51
100 61
101 200
102 131
103 184
104 67
105 36
111 36
113 78
114 1
115 206
116 194
117 158
118 38
119 63
127 53
128 68
129 355
130 226
131 320
132 89
133 273
134 48
135 33
143 127
144 125
145 435
146 163
147 923
148 398
149 364
150 147
151 38
157 257
158 93
159 46
161 9
172 55
173 36
174 6
175 52
176 16
177 31
189 35
190 86
203 82
204 83
205 73
217 118
218 235
219 163
220 116
221 70
231 9
247 433
248 181
249 120
250 29
262 56

$$$$

     RDKit          2D

 12 11  0  0  0  0  0  0  0  0999 V2000
    2.5111    3.6998    0.0000 C   0  0  0  0  0  0  0  0  0  0  0  0
    1.2120    5.9498    0.0000 C   0  0  0  0  0  0  0  0  0  0  0  0
   -6.0332    4.9988    0.0000 C   0  0  0  0  0  0  0  0  0  0  0  0
   -6.5822    2.9498    0.0000 C   0  0  0  0  0  0  0  0  0  0  0  0
   -4.5332    2.4007    0.0000 C   0  0  0  0  0  0  0  0  0  0  0  0
   -0.0870    3.6998    0.0000 C   0  0  0  0  0  0  0  0  0  0  0  0
   -1.3861    4.4498    0.0000 C   0  0  0  0  0  0  0  0  0  0  0  0
    1.2120    4.4498    0.0000 C   0  0  0  0  0  0  0  0  0  0  0  0
   -2.6851    3.6998    0.0000 C   0  0  0  0  0  0  0  0  0  0  0  0
   -2.6851    2.1998    0.0000 O   0  0  0  0  0  0  0  0  0  0  0  0
   -3.9841    4.4498    0.0000 O   0  0  0  0  0  0  0  0  0  0  0  0
   -5.2832    3.6998    0.0000 Si  0  0  0  0  0  4  0  0  0  0  0  0
  6  7  2  0
  8  1  1  0
  8  2  1  0
  8  6  1  0
  9  7  1  0
 10  9  2  0
 11  9  1  0
 12  3  1  0
 12  4  1  0
 12  5  1  0
 12 11  1  0
M  END
>  <NAME>  (2943) 
4-METHYL-2-PENTENOIC ACID TRIMETHYLSILYL ESTER

>  <SYNONYMS>  (2943) 


>  <SPECTRUM TYPE>  (2943) 
MS1

>  <INSTRUMENT TYPE>  (2943) 
EI-B

>  <INSTRUMENT>  (2943) 
JEOL JMS-01-SG

>  <ION MODE>  (2943) 
P

>  <INCHIKEY>  (2943) 
WDZGZGHIOXHTBN-VOTSOKGWSA-N

>  <FORMULA>  (2943) 
C9H18O2Si

>  <EXACT MASS>  (2943) 
186.107606346

>  <MW>  (2943) 
186

>  <ID>  (2943) 
JP007478

>  <CONTRIBUTOR>  (2943) 
University of Tokyo Team, {Faculty of Engineering, University of Tokyo

>  <COMMENT>  (2943) 
SMILES=CC(C)C=CC(=O)O[Si](C)(C)C
InChI=InChI=1S/C9H18O2Si/c1-8(2)6-7-9(10)11-12(3,4)5/h6-8H,1-5H3/b7-6+
computed SMILES=O=C(O[Si](C)(C)C)C=CC(C)C
accession=JP007478
date=2016.01.19 (Created 2008.10.21, modified 2011.05.06)
ionization energy=70 eV
author=KOGA M, UNIV. OF OCCUPATIONAL AND ENVIRONMENTAL HEALTH
license=CC BY-NC-SA
exact mass=186.10761
ion type=[M]+*
computed spectral entropy=2.733315689304623
computed normalized entropy=0.6951772394369212
SPLASH=splash10-00fr-9400000000-3e5b62441a563c7c9156
submitter=submitter = University of Tokyo Team (Faculty of Engineering, University of Tokyo)
MoNA Rating=3.75

>  <NUM PEAKS>  (2943) 
51

>  <MASS SPECTRAL PEAKS>  (2943) 
40 0.9
41 0.9
43 3.7
44 0.42
45 10.4
47 7.1
51 2.3
53 0.52
54 2.8
55 3.7
59 3.7
61 0.42
67 3.3
68 3.3
69 3.7
72 0.09
73 61.1
74 7.5
75 99.99
76 0.66
77 3.3
79 1.4
81 10.9
82 0.18
85 4.7
95 2.3
96 34.1
97 1.89
98 0.9
99 8
101 0.9
111 0.28
116 1.8
117 0.9
125 3.7
126 0.52
127 12.7
128 1.4
129 3.7
131 0.33
141 1.8
143 8.5
144 0.9
153 0.14
155 2.3
170 9
171 73.9
172 0.99
173 2.8
186 14.2
187 0.9

>  <PREDICTED SPECTRUM>  (2943) 
26 29
27 145
28 64
29 14
31 8
38 9
39 135
40 42
41 161
42 102
43 166
44 70
45 359
46 28
47 289
48 18
49 1
51 71
52 51
53 205
54 145
55 312
56 49
57 31
58 82
59 258
60 110
61 221
66 15
67 157
68 288
69 344
70 121
71 1
72 58
73 880
74 240
75 999
76 213
77 230
78 45
79 139
81 351
82 95
84 0
85 141
86 45
95 191
96 471
97 224
98 13
99 176
101 94
103 50
105 24
111 30
113 62
114 2
115 48
125 104
127 378
128 156
129 225
130 27
131 10
141 106
142 114
143 441
144 147
145 27
153 9
155 89
171 813
172 288
173 165
174 14
186 392
187 153
188 54

$$$$

     RDKit          2D

 12 11  0  0  0  0  0  0  0  0999 V2000
   -7.3825    3.7868    0.0000 C   0  0  0  0  0  0  0  0  0  0  0  0
   -3.4853    1.5368    0.0000 C   0  0  0  0  0  0  0  0  0  0  0  0
    1.1618    2.4877    0.0000 C   0  0  0  0  0  0  0  0  0  0  0  0
    1.7108    4.5368    0.0000 C   0  0  0  0  0  0  0  0  0  0  0  0
   -0.3382    5.0858    0.0000 C   0  0  0  0  0  0  0  0  0  0  0  0
   -6.0834    3.0368    0.0000 C   0  0  0  0  0  0  0  0  0  0  0  0
   -4.7844    3.7868    0.0000 C   0  0  0  0  0  0  0  0  0  0  0  0
   -3.4853    3.0368    0.0000 C   0  0  0  0  0  0  0  0  0  0  0  0
   -2.1863    3.7868    0.0000 C   0  0  0  0  0  0  0  0  0  0  0  0
   -2.1863    5.2868    0.0000 O   0  0  0  0  0  0  0  0  0  0  0  0
   -0.8873    3.0368    0.0000 O   0  0  0  0  0  0  0  0  0  0  0  0
    0.4118    3.7868    0.0000 Si  0  0  0  0  0  4  0  0  0  0  0  0
  6  1  1  0
  7  6  1  0
  8  2  1  0
  8  7  1  0
  9  8  1  0
 10  9  2  0
 11  9  1  0
 12  3  1  0
 12  4  1  0
 12  5  1  0
 12 11  1  0
M  END
>  <NAME>  (2944) 
2-METHYLPENTANOIC ACID TRIMETHYLSILYL ESTER

>  <SYNONYMS>  (2944) 


>  <SPECTRUM TYPE>  (2944) 
MS1

>  <INSTRUMENT TYPE>  (2944) 
EI-B

>  <INSTRUMENT>  (2944) 
JEOL JMS-01-SG

>  <ION MODE>  (2944) 
P

>  <INCHIKEY>  (2944) 
IAHOCIHIHKVJIW-UHFFFAOYSA-N

>  <FORMULA>  (2944) 
C9H20O2Si

>  <EXACT MASS>  (2944) 
188.12325641

>  <MW>  (2944) 
188

>  <ID>  (2944) 
JP007477

>  <CONTRIBUTOR>  (2944) 
University of Tokyo Team, {Faculty of Engineering, University of Tokyo

>  <COMMENT>  (2944) 
SMILES=CCCC(C)C(=O)O[Si](C)(C)C
InChI=InChI=1S/C9H20O2Si/c1-6-7-8(2)9(10)11-12(3,4)5/h8H,6-7H2,1-5H3
computed SMILES=O=C(O[Si](C)(C)C)C(C)CCC
accession=JP007477
date=2016.01.19 (Created 2008.10.21, modified 2011.05.06)
author=KOGA M, UNIV. OF OCCUPATIONAL AND ENVIRONMENTAL HEALTH
license=CC BY-NC-SA
exact mass=188.12326
ionization energy=70 eV
ion type=[M]+*
computed spectral entropy=2.7519466120976883
computed normalized entropy=0.7147639251220915
SPLASH=splash10-00fr-9500000000-e6a819dc0f752125ef17
submitter=submitter = University of Tokyo Team (Faculty of Engineering, University of Tokyo)
MoNA Rating=3.75

>  <NUM PEAKS>  (2944) 
47

>  <MASS SPECTRAL PEAKS>  (2944) 
43 12.9
44 5.8
45 17
47 0.8
49 0.9
51 1.2
55 4.1
56 0.77
57 1.9
58 3.2
59 3.5
60 0.12
61 5.4
69 5.4
70 1.6
71 0.35
72 4.1
73 55.8
74 21.9
75 99.99
76 6.7
77 7.7
81 5.8
83 0.12
86 2.5
91 1.9
105 3.8
115 0.12
117 12.5
118 0.9
120 1.6
129 0.35
130 6.4
131 4.1
143 3.5
144 0.09
146 20.3
147 4.5
148 0.9
155 0.48
159 2.9
173 79
174 10.3
175 0.38
186 1.9
188 6.1
189 0.9

>  <PREDICTED SPECTRUM>  (2944) 
15 8
26 21
27 116
28 65
29 98
38 5
39 130
40 49
41 262
42 131
43 284
44 222
45 344
46 81
47 191
50 1
51 43
52 0
53 114
54 66
55 361
56 97
57 40
58 123
59 213
60 96
61 200
62 12
65 6
66 0
69 205
70 149
71 115
72 105
73 999
74 312
75 822
76 249
77 234
78 31
83 40
86 58
87 11
88 31
89 62
90 3
92 1
98 125
99 61
101 129
102 59
103 111
104 72
105 138
115 67
116 44
117 239
118 123
119 11
120 9
129 264
130 199
131 102
132 10
143 213
144 67
145 266
146 345
147 114
157 10
159 102
160 44
173 885
174 357
175 151
188 57
189 4

$$$$

     RDKit          2D

 11 10  0  0  0  0  0  0  0  0999 V2000
   -6.3212    3.8505    0.0000 C   0  0  0  0  0  0  0  0  0  0  0  0
   -3.7231    5.3505    0.0000 C   0  0  0  0  0  0  0  0  0  0  0  0
   -0.5760    1.8014    0.0000 C   0  0  0  0  0  0  0  0  0  0  0  0
    1.4731    2.3505    0.0000 C   0  0  0  0  0  0  0  0  0  0  0  0
    0.9240    4.3995    0.0000 C   0  0  0  0  0  0  0  0  0  0  0  0
   -5.0221    3.1005    0.0000 C   0  0  0  0  0  0  0  0  0  0  0  0
   -3.7231    3.8505    0.0000 C   0  0  0  0  0  0  0  0  0  0  0  0
   -2.4240    3.1005    0.0000 C   0  0  0  0  0  0  0  0  0  0  0  0
   -2.4240    1.6005    0.0000 O   0  0  0  0  0  0  0  0  0  0  0  0
   -1.1250    3.8505    0.0000 O   0  0  0  0  0  0  0  0  0  0  0  0
    0.1740    3.1005    0.0000 Si  0  0  0  0  0  4  0  0  0  0  0  0
  6  1  1  0
  7  2  1  0
  6  7  2  0
  8  7  1  0
  9  8  2  0
 10  8  1  0
 11  3  1  0
 11  4  1  0
 11  5  1  0
 11 10  1  0
M  END
>  <NAME>  (2945) 
(E)-2-METHYL-2-BUTENOIC ACID TRIMETHYLSILYL ESTER

>  <SYNONYMS>  (2945) 


>  <SPECTRUM TYPE>  (2945) 
MS1

>  <INSTRUMENT TYPE>  (2945) 
EI-B

>  <INSTRUMENT>  (2945) 
JEOL JMS-01-SG

>  <ION MODE>  (2945) 
P

>  <INCHIKEY>  (2945) 
GZQWHCAXPCOMTD-VOTSOKGWSA-N

>  <FORMULA>  (2945) 
C8H16O2Si

>  <EXACT MASS>  (2945) 
172.09195628199998

>  <MW>  (2945) 
172

>  <ID>  (2945) 
JP007476

>  <CONTRIBUTOR>  (2945) 
University of Tokyo Team, {Faculty of Engineering, University of Tokyo

>  <COMMENT>  (2945) 
SMILES=[H]C(C)=C(C)C(=O)O[Si](C)(C)C
InChI=InChI=1S/C8H16O2Si/c1-6-7(2)8(9)10-11(3,4)5/h6H,1-5H3/b7-6+
computed SMILES=O=C(O[Si](C)(C)C)C(=CC)C
accession=JP007476
date=2016.01.19 (Created 2008.10.21, modified 2011.05.06)
author=KOGA M, UNIV. OF OCCUPATIONAL AND ENVIRONMENTAL HEALTH
license=CC BY-NC-SA
exact mass=172.09196
ionization energy=70 eV
ion type=[M]+*
computed spectral entropy=2.0907589298401117
computed normalized entropy=0.5928942645669184
SPLASH=splash10-0a6r-7900000000-955ee06ab9a1155e47c3
submitter=submitter = University of Tokyo Team (Faculty of Engineering, University of Tokyo)
MoNA Rating=3.75

>  <NUM PEAKS>  (2945) 
34

>  <MASS SPECTRAL PEAKS>  (2945) 
43 1.3
44 0.8
45 0.8
47 0.66
53 2.9
54 4.5
55 24
56 0.16
57 1
59 1.8
61 2.1
73 0.13
75 63.3
76 4.5
82 4.5
83 2.91
84 1.8
85 1
87 0.8
91 0.08
97 1
101 1.3
105 3.7
111 0.1
113 15.2
114 1.8
115 1
120 0.08
141 0.8
156 2.1
157 99.99
158 1.38
159 4.8
172 6.6

>  <PREDICTED SPECTRUM>  (2945) 
14 9
15 4
26 46
27 106
28 14
29 113
31 73
38 26
39 209
40 62
43 132
44 137
45 377
46 48
47 296
48 3
49 34
50 20
51 29
52 37
53 217
54 210
55 600
56 137
57 106
58 52
59 358
60 85
61 222
63 5
66 14
67 153
72 236
73 780
74 223
75 949
76 192
77 221
78 20
82 282
83 638
84 20
85 65
86 8
89 234
90 35
91 79
101 12
113 196
115 79
117 103
127 192
128 72
129 265
130 129
157 999
158 357
159 175
172 211
173 57

$$$$

     RDKit          2D

 14 14  0  0  0  0  0  0  0  0999 V2000
    1.8127   -2.1596    0.0000 C   0  0  0  0  0  0  0  0  0  0  0  0
    5.4789   -2.8558    0.0000 C   0  0  0  0  0  0  0  0  0  0  0  0
    6.6958   -1.1182    0.0000 C   0  0  0  0  0  0  0  0  0  0  0  0
    4.9582    0.0987    0.0000 C   0  0  0  0  0  0  0  0  0  0  0  0
   -1.3000    0.7500    0.0000 C   0  0  0  0  0  0  0  0  0  0  0  0
    0.0000    1.5000    0.0000 C   0  0  0  0  0  0  0  0  0  0  0  0
   -1.3000   -0.7500    0.0000 C   0  0  0  0  0  0  0  0  0  0  0  0
    1.3000    0.7500    0.0000 C   0  0  0  0  0  0  0  0  0  0  0  0
    0.0000   -1.5000    0.0000 C   0  0  0  0  0  0  0  0  0  0  0  0
    2.7772   -0.4897    0.0000 C   0  0  0  0  0  0  0  0  0  0  0  0
    1.3000   -0.7500    0.0000 C   0  0  0  0  0  0  0  0  0  0  0  0
    3.2904    0.9198    0.0000 O   0  0  0  0  0  0  0  0  0  0  0  0
    3.7413   -1.6389    0.0000 O   0  0  0  0  0  0  0  0  0  0  0  0
    5.2185   -1.3785    0.0000 Si  0  0  0  0  0  4  0  0  0  0  0  0
  6  5  1  0
  7  5  1  0
  8  6  1  0
  9  7  1  0
 11  1  1  0
 11  8  1  0
 11  9  1  0
 11 10  1  0
 12 10  2  0
 13 10  1  0
 14  2  1  0
 14  3  1  0
 14  4  1  0
 14 13  1  0
M  END
>  <NAME>  (2946) 
1-METHYL-1-CYCLOHEXANECARBOXYLIC ACID TRIMETHYLSILYL ESTER

>  <SYNONYMS>  (2946) 


>  <SPECTRUM TYPE>  (2946) 
MS1

>  <INSTRUMENT TYPE>  (2946) 
EI-B

>  <INSTRUMENT>  (2946) 
JEOL JMS-01-SG

>  <ION MODE>  (2946) 
P

>  <INCHIKEY>  (2946) 
SAXHDPVVKDOYBT-UHFFFAOYSA-N

>  <FORMULA>  (2946) 
C11H22O2Si

>  <EXACT MASS>  (2946) 
214.13890647399998

>  <MW>  (2946) 
214

>  <ID>  (2946) 
JP007475

>  <CONTRIBUTOR>  (2946) 
University of Tokyo Team, {Faculty of Engineering, University of Tokyo

>  <COMMENT>  (2946) 
SMILES=C(C1)CCC(C)(C1)C(=O)O[Si](C)(C)C
InChI=InChI=1S/C11H22O2Si/c1-11(8-6-5-7-9-11)10(12)13-14(2,3)4/h5-9H2,1-4H3
computed SMILES=O=C(O[Si](C)(C)C)C1(C)CCCCC1
accession=JP007475
date=2016.01.19 (Created 2008.10.21, modified 2011.05.06)
author=KOGA M, UNIV. OF OCCUPATIONAL AND ENVIRONMENTAL HEALTH
license=CC BY-NC-SA
exact mass=214.13891
ionization energy=70 eV
ion type=[M]+*
computed spectral entropy=2.826696044814447
computed normalized entropy=0.7225663143831852
SPLASH=splash10-00dj-9300000000-a8276d8e31a28a71ecbe
submitter=submitter = University of Tokyo Team (Faculty of Engineering, University of Tokyo)
MoNA Rating=3.75

>  <NUM PEAKS>  (2946) 
50

>  <MASS SPECTRAL PEAKS>  (2946) 
45 8.3
47 5.1
53 2.4
54 0.22
55 30.8
56 2.2
59 1.2
61 0.39
67 5.4
68 3.7
69 9.8
72 0.17
73 99.99
74 11.6
75 31.6
76 0.17
77 2.2
79 1.7
81 18
82 0.24
83 1.2
95 2.7
96 40.9
97 2.66
98 1.7
103 1.2
109 2.2
115 0.12
117 19.7
118 1.7
119 2.2
124 0.14
130 1.9
131 1.4
132 1.2
141 0.12
143 8.8
144 1.4
145 2.9
146 0.79
147 1.2
155 3.2
159 10.1
160 0.14
183 1.4
199 46.9
200 7.1
201 0.19
214 8.6
215 1.2

>  <PREDICTED SPECTRUM>  (2946) 
18 3
26 10
27 94
28 35
29 62
39 91
40 29
41 219
42 87
43 124
44 110
45 345
46 43
47 197
49 11
50 4
51 30
52 11
53 199
54 118
55 404
56 97
57 2
58 20
59 103
60 103
61 161
62 11
63 19
67 276
68 161
69 207
70 62
72 66
73 999
74 327
75 717
76 142
77 178
78 17
79 135
80 68
81 402
82 114
83 4
91 81
95 199
96 328
97 239
98 103
99 91
101 29
103 9
105 28
109 82
113 33
116 18
117 312
118 139
119 129
124 53
125 108
127 57
129 22
130 50
131 225
132 165
133 125
141 22
142 5
143 147
144 110
145 300
146 134
155 125
158 107
159 176
160 52
170 20
171 139
172 87
185 87
199 764
200 313
201 174
202 8
214 313
215 130
216 47

$$$$

     RDKit          2D

 18 17  0  0  0  0  0  0  0  0999 V2000
    4.5368    5.5344    0.0000 C   0  0  0  0  0  0  0  0  0  0  0  0
   -1.4094    2.7353    0.0000 C   0  0  0  0  0  0  0  0  0  0  0  0
    0.0906    5.3334    0.0000 C   0  0  0  0  0  0  0  0  0  0  0  0
   -1.9584    4.7844    0.0000 C   0  0  0  0  0  0  0  0  0  0  0  0
   10.4829    2.7353    0.0000 C   0  0  0  0  0  0  0  0  0  0  0  0
   11.0320    4.7844    0.0000 C   0  0  0  0  0  0  0  0  0  0  0  0
    8.9829    5.3334    0.0000 C   0  0  0  0  0  0  0  0  0  0  0  0
    3.2377    3.2844    0.0000 C   0  0  0  0  0  0  0  0  0  0  0  0
    5.8358    3.2844    0.0000 C   0  0  0  0  0  0  0  0  0  0  0  0
    4.5368    4.0344    0.0000 C   0  0  0  0  0  0  0  0  0  0  0  0
    1.9387    4.0344    0.0000 C   0  0  0  0  0  0  0  0  0  0  0  0
    7.1349    4.0344    0.0000 C   0  0  0  0  0  0  0  0  0  0  0  0
    1.9387    5.5344    0.0000 O   0  0  0  0  0  0  0  0  0  0  0  0
    7.1349    5.5344    0.0000 O   0  0  0  0  0  0  0  0  0  0  0  0
    0.6397    3.2844    0.0000 O   0  0  0  0  0  0  0  0  0  0  0  0
    8.4339    3.2844    0.0000 O   0  0  0  0  0  0  0  0  0  0  0  0
   -0.6594    4.0344    0.0000 Si  0  0  0  0  0  4  0  0  0  0  0  0
    9.7329    4.0344    0.0000 Si  0  0  0  0  0  4  0  0  0  0  0  0
 10  1  1  0
 10  8  1  0
 10  9  1  0
 11  8  1  0
 12  9  1  0
 13 11  2  0
 14 12  2  0
 15 11  1  0
 16 12  1  0
 17  2  1  0
 17  3  1  0
 17  4  1  0
 17 15  1  0
 18  5  1  0
 18  6  1  0
 18  7  1  0
 18 16  1  0
M  END
>  <NAME>  (2947) 
3-METHYLGLUTARIC ACID BIS(TRIMETHYLSILYL)ESTER

>  <SYNONYMS>  (2947) 


>  <SPECTRUM TYPE>  (2947) 
MS1

>  <INSTRUMENT TYPE>  (2947) 
EI-B

>  <INSTRUMENT>  (2947) 
JEOL JMS-01-SG

>  <ION MODE>  (2947) 
P

>  <INCHIKEY>  (2947) 
JOPZTTHKNFWHFT-UHFFFAOYSA-N

>  <FORMULA>  (2947) 
C12H26O4Si2

>  <EXACT MASS>  (2947) 
290.136962372

>  <MW>  (2947) 
290

>  <ID>  (2947) 
JP007474

>  <CONTRIBUTOR>  (2947) 
University of Tokyo Team, {Faculty of Engineering, University of Tokyo

>  <COMMENT>  (2947) 
SMILES=CC(CC(=O)O[Si](C)(C)C)CC(=O)O[Si](C)(C)C
InChI=InChI=1S/C12H26O4Si2/c1-10(8-11(13)15-17(2,3)4)9-12(14)16-18(5,6)7/h10H,8-9H2,1-7H3
computed SMILES=O=C(O[Si](C)(C)C)CC(C)CC(=O)O[Si](C)(C)C
accession=JP007474
date=2016.01.19 (Created 2008.10.21, modified 2011.05.06)
author=KOGA M, UNIV. OF OCCUPATIONAL AND ENVIRONMENTAL HEALTH
license=CC BY-NC-SA
exact mass=290.13696
ionization energy=70 eV
ion type=[M]+*
computed spectral entropy=3.1796799953452943
computed normalized entropy=0.7484249867752005
SPLASH=splash10-016r-9530000000-1d4d1011e388ce30aadc
submitter=submitter = University of Tokyo Team (Faculty of Engineering, University of Tokyo)
MoNA Rating=3.75

>  <NUM PEAKS>  (2947) 
70

>  <MASS SPECTRAL PEAKS>  (2947) 
43 8.5
44 2.6
45 13.4
47 0.71
55 4
57 1.4
58 1.6
59 0.3
60 1
61 4.2
67 1
69 99.99
70 4.8
71 1
72 7.1
73 9.65
74 9.3
75 40.5
76 2.4
77 0.36
82 1
83 1.4
88 1
89 0.1
95 1
99 4.6
101 2.4
111 0.34
113 1
115 1
116 6.5
117 1.18
118 1
128 2
129 1.4
130 0.73
131 2
132 1.2
133 4.4
141 0.54
142 1
143 13.8
144 1.8
147 5.21
148 16.4
149 11.6
150 1.2
157 0.36
159 17.9
160 1.8
161 1
162 0.1
172 24
173 5.9
174 1.2
185 0.32
189 1.6
200 8.9
201 4.4
202 0.1
204 11.4
205 2
217 1.4
231 0.1
247 8.3
248 1.6
275 50.7
276 1.14
277 4.6
290 0.4

>  <PREDICTED SPECTRUM>  (2947) 
14 9
15 48
18 15
26 38
27 110
28 106
29 96
30 30
31 50
39 79
40 52
41 161
42 111
43 227
44 208
45 350
46 78
47 200
48 41
49 48
51 21
52 25
53 102
54 82
55 362
56 122
57 125
58 145
59 233
60 105
61 187
62 37
63 5
65 2
66 75
67 117
68 108
69 375
70 128
71 75
72 347
73 999
74 275
75 699
76 179
77 129
78 7
79 22
81 146
82 201
83 313
84 185
85 128
86 72
87 73
88 69
89 96
90 21
91 49
92 23
93 60
94 27
95 63
96 81
97 38
98 83
99 178
100 84
101 160
102 45
103 57
104 26
105 44
109 17
110 111
111 155
112 112
113 129
114 62
115 188
116 221
117 381
118 40
119 59
120 48
121 23
125 35
127 18
128 34
129 205
130 97
131 75
132 87
133 248
134 70
135 18
137 16
139 20
141 96
142 53
143 221
144 123
145 123
146 82
147 777
148 338
149 410
150 210
151 78
155 42
156 118
157 339
158 267
159 371
160 167
161 72
162 16
169 85
170 27
171 186
172 212
173 133
174 82
175 69
176 52
177 99
178 64
185 247
186 91
187 41
188 37
189 103
190 90
191 51
192 0
200 237
201 82
202 21
203 48
204 288
205 53
206 2
215 56
217 188
218 113
219 14
231 254
232 169
233 170
234 73
235 41
245 37
246 141
247 60
248 37
259 6
262 10
275 464
276 218
277 130
278 49
290 17

$$$$

     RDKit          2D

 17 16  0  0  0  0  0  0  0  0999 V2000
    3.4755    1.5736    0.0000 C   0  0  0  0  0  0  0  0  0  0  0  0
    9.4216    4.3726    0.0000 C   0  0  0  0  0  0  0  0  0  0  0  0
    7.9216    1.7745    0.0000 C   0  0  0  0  0  0  0  0  0  0  0  0
    9.9707    2.3236    0.0000 C   0  0  0  0  0  0  0  0  0  0  0  0
    0.3284    5.1226    0.0000 C   0  0  0  0  0  0  0  0  0  0  0  0
   -1.7207    4.5736    0.0000 C   0  0  0  0  0  0  0  0  0  0  0  0
   -1.1716    2.5245    0.0000 C   0  0  0  0  0  0  0  0  0  0  0  0
    4.7745    3.8236    0.0000 C   0  0  0  0  0  0  0  0  0  0  0  0
    3.4755    3.0736    0.0000 C   0  0  0  0  0  0  0  0  0  0  0  0
    6.0736    3.0736    0.0000 C   0  0  0  0  0  0  0  0  0  0  0  0
    2.1764    3.8236    0.0000 C   0  0  0  0  0  0  0  0  0  0  0  0
    6.0736    1.5736    0.0000 O   0  0  0  0  0  0  0  0  0  0  0  0
    2.1764    5.3236    0.0000 O   0  0  0  0  0  0  0  0  0  0  0  0
    7.3726    3.8236    0.0000 O   0  0  0  0  0  0  0  0  0  0  0  0
    0.8774    3.0736    0.0000 O   0  0  0  0  0  0  0  0  0  0  0  0
    8.6716    3.0736    0.0000 Si  0  0  0  0  0  4  0  0  0  0  0  0
   -0.4216    3.8236    0.0000 Si  0  0  0  0  0  4  0  0  0  0  0  0
  9  1  1  0
  8  9  2  0
 10  8  1  0
 11  9  1  0
 12 10  2  0
 13 11  2  0
 14 10  1  0
 15 11  1  0
 16  2  1  0
 16  3  1  0
 16  4  1  0
 16 14  1  0
 17  5  1  0
 17  6  1  0
 17  7  1  0
 17 15  1  0
M  END
>  <NAME>  (2948) 
(E)-2-METHYL-2-BUTENEDIOIC ACID BIS(TRIMETHYLSILYL) ESTER

>  <SYNONYMS>  (2948) 


>  <SPECTRUM TYPE>  (2948) 
MS1

>  <INSTRUMENT TYPE>  (2948) 
EI-B

>  <INSTRUMENT>  (2948) 
JEOL JMS-01-SG

>  <ION MODE>  (2948) 
P

>  <INCHIKEY>  (2948) 
SXLJYBIAHQEULW-CMDGGOBGSA-N

>  <FORMULA>  (2948) 
C11H22O4Si2

>  <EXACT MASS>  (2948) 
274.105662244

>  <MW>  (2948) 
274

>  <ID>  (2948) 
JP007473

>  <CONTRIBUTOR>  (2948) 
University of Tokyo Team, {Faculty of Engineering, University of Tokyo

>  <COMMENT>  (2948) 
SMILES=[H]C(C(=O)O[Si](C)(C)C)=C(C)C(=O)O[Si](C)(C)C
InChI=InChI=1S/C11H22O4Si2/c1-9(11(13)15-17(5,6)7)8-10(12)14-16(2,3)4/h8H,1-7H3/b9-8+
computed SMILES=O=C(O[Si](C)(C)C)C=C(C(=O)O[Si](C)(C)C)C
accession=JP007473
date=2016.01.19 (Created 2008.10.21, modified 2011.05.06)
author=KOGA M, UNIV. OF OCCUPATIONAL AND ENVIRONMENTAL HEALTH
license=CC BY-NC-SA
exact mass=274.10566
ionization energy=70 eV
ion type=[M]+*
computed spectral entropy=2.970389097321684
computed normalized entropy=0.7849472105461205
SPLASH=splash10-0a4j-9470000000-ba531dd02d9054b8c980
submitter=submitter = University of Tokyo Team (Faculty of Engineering, University of Tokyo)
MoNA Rating=3.75

>  <NUM PEAKS>  (2948) 
44

>  <MASS SPECTRAL PEAKS>  (2948) 
43 6.7
44 4.8
45 21.7
47 0.8
58 2.3
59 3.4
61 3.4
66 0.46
67 18.6
68 3.8
69 1.5
72 0.36
73 33.2
74 15.9
75 34
76 0.26
77 3.2
83 3.6
97 9.2
98 0.34
99 2.1
112 4.2
117 2.5
122 1.3
131 1.9
133 7.1
140 1.5
141 0.69
147 14.2
148 17.8
149 13.2
156 0.26
157 6.1
169 5.1
184 10.3
185 1.61
186 4.8
215 1.7
231 3.8
259 99.99
260 21.7
261 9.2
262 1.9
274 3.2

>  <PREDICTED SPECTRUM>  (2948) 
14 6
15 34
18 10
26 25
27 49
28 22
29 49
31 35
32 2
38 26
39 118
40 48
41 114
42 69
43 379
44 200
45 487
46 119
47 210
48 30
49 11
50 4
51 41
52 34
53 119
54 86
55 178
56 18
57 99
58 151
59 254
60 107
61 176
62 7
63 23
65 48
66 150
67 195
68 124
69 144
70 88
71 92
72 196
73 987
74 316
75 493
76 113
77 134
78 28
79 20
81 37
82 80
83 126
84 63
85 85
86 37
87 58
89 61
90 0
91 31
94 7
95 130
96 42
97 207
98 99
99 172
100 69
101 78
102 22
103 38
104 42
105 19
107 3
109 37
111 74
112 96
113 153
115 146
116 109
117 66
125 52
126 5
127 141
128 57
129 78
130 52
131 231
132 59
133 294
134 62
135 135
140 21
141 257
142 133
143 139
144 41
147 999
148 402
149 378
150 199
151 34
155 79
156 118
157 368
158 135
159 115
160 25
161 22
169 240
170 148
171 91
172 40
173 15
175 1
183 15
184 79
185 140
186 60
187 83
188 2
189 29
190 26
215 159
216 43
217 138
221 104
222 33
229 46
230 152
231 201
232 116
233 27
243 93
245 73
259 631
260 267
261 182
262 37
274 73
275 3

$$$$

     RDKit          2D

 13 12  0  0  0  0  0  0  0  0999 V2000
   -7.2954    5.5380    0.0000 C   0  0  0  0  0  0  0  0  0  0  0  0
    1.0478    3.4889    0.0000 C   0  0  0  0  0  0  0  0  0  0  0  0
    3.0969    4.0380    0.0000 C   0  0  0  0  0  0  0  0  0  0  0  0
    2.5478    6.0870    0.0000 C   0  0  0  0  0  0  0  0  0  0  0  0
   -3.3983    4.7880    0.0000 C   0  0  0  0  0  0  0  0  0  0  0  0
   -4.6974    5.5380    0.0000 C   0  0  0  0  0  0  0  0  0  0  0  0
   -2.0993    5.5380    0.0000 C   0  0  0  0  0  0  0  0  0  0  0  0
   -5.9964    4.7880    0.0000 C   0  0  0  0  0  0  0  0  0  0  0  0
   -0.8002    4.7880    0.0000 C   0  0  0  0  0  0  0  0  0  0  0  0
   -5.9964    3.2880    0.0000 O   0  0  0  0  0  0  0  0  0  0  0  0
   -0.8002    3.2880    0.0000 O   0  0  0  0  0  0  0  0  0  0  0  0
    0.4988    5.5380    0.0000 O   0  0  0  0  0  0  0  0  0  0  0  0
    1.7978    4.7880    0.0000 Si  0  0  0  0  0  4  0  0  0  0  0  0
  6  5  1  0
  7  5  1  0
  8  1  1  0
  8  6  1  0
  9  7  1  0
 10  8  2  0
 11  9  2  0
 12  9  1  0
 13  2  1  0
 13  3  1  0
 13  4  1  0
 13 12  1  0
M  END
>  <NAME>  (2949) 
5-OXOHEXANOIC ACID TRIMETHYLSILYL ESTER

>  <SYNONYMS>  (2949) 


>  <SPECTRUM TYPE>  (2949) 
MS1

>  <INSTRUMENT TYPE>  (2949) 
EI-B

>  <INSTRUMENT>  (2949) 
JEOL JMS-01-SG

>  <ION MODE>  (2949) 
P

>  <INCHIKEY>  (2949) 
PXSCQEMSXNKQJK-UHFFFAOYSA-N

>  <FORMULA>  (2949) 
C9H18O3Si

>  <EXACT MASS>  (2949) 
202.102520966

>  <MW>  (2949) 
202

>  <ID>  (2949) 
JP007472

>  <CONTRIBUTOR>  (2949) 
University of Tokyo Team, {Faculty of Engineering, University of Tokyo

>  <COMMENT>  (2949) 
SMILES=CC(=O)CCCC(=O)O[Si](C)(C)C
InChI=InChI=1S/C9H18O3Si/c1-8(10)6-5-7-9(11)12-13(2,3)4/h5-7H2,1-4H3
computed SMILES=O=C(O[Si](C)(C)C)CCCC(=O)C
license=CC BY-NC-SA
accession=JP007472
date=2016.01.19 (Created 2008.10.21, modified 2011.05.06)
author=KOGA M, UNIV. OF OCCUPATIONAL AND ENVIRONMENTAL HEALTH
exact mass=202.10252
ionization energy=70 eV
ion type=[M]+*
computed spectral entropy=2.890423641670647
computed normalized entropy=0.742691959100442
SPLASH=splash10-004m-8900000000-de9151c136c1eac97983
submitter=submitter = University of Tokyo Team (Faculty of Engineering, University of Tokyo)
MoNA Rating=3.75

>  <NUM PEAKS>  (2949) 
49

>  <MASS SPECTRAL PEAKS>  (2949) 
42 1.3
43 63
44 2.9
45 1.11
47 11.8
55 50.2
56 1.2
57 0.29
58 4.5
59 2.7
61 7.7
67 0.15
69 5.2
71 2.5
72 7.7
73 5.29
74 5.2
75 99.99
76 7.5
77 0.52
84 17.1
85 5.4
97 2.7
99 0.22
101 2.5
112 51.3
113 6.3
115 1.32
116 6.1
117 40.8
118 4.1
119 0.2
129 22.9
130 5.7
131 2.2
132 0.91
133 1.5
143 3.1
145 94.9
146 1.14
147 5
159 8.2
160 3.4
169 0.41
186 2.2
187 38.3
188 3.8
189 0.18
202 3.8

>  <PREDICTED SPECTRUM>  (2949) 
14 14
15 50
26 26
27 101
28 82
29 114
30 31
31 71
35 3
36 17
37 5
38 33
39 146
40 67
41 178
42 221
43 537
44 172
45 347
46 77
47 279
48 70
49 58
50 35
51 80
52 44
53 142
54 46
55 320
56 139
57 136
58 217
59 160
60 118
61 270
62 62
63 65
64 1
65 31
66 59
67 128
68 136
69 249
70 153
71 113
72 198
73 719
74 281
75 999
76 286
77 230
78 60
79 74
80 22
81 48
82 4
83 100
84 155
85 169
86 83
87 119
88 54
89 110
90 25
91 20
95 95
97 206
98 88
99 126
100 50
101 155
102 83
103 161
104 31
105 25
106 0
107 13
112 163
113 86
115 237
116 245
117 676
118 183
119 37
125 62
127 156
128 52
129 366
130 249
131 193
132 224
133 28
141 149
142 92
143 272
144 153
145 511
146 179
147 124
148 46
157 73
158 76
159 244
160 141
161 13
169 196
170 112
171 115
173 13
187 301
188 83
189 1
201 21
202 76
203 11

$$$$

     RDKit          2D

 16 15  0  0  0  0  0  0  0  0999 V2000
    0.0000    0.0000    0.0000 C   0  0  0  0  0  0  0  0  0  0  0  0
    0.5490    2.4510    0.0000 C   0  0  0  0  0  0  0  0  0  0  0  0
    2.5981    3.0000    0.0000 C   0  0  0  0  0  0  0  0  0  0  0  0
    2.0490    5.0490    0.0000 C   0  0  0  0  0  0  0  0  0  0  0  0
   -3.1471    8.0490    0.0000 C   0  0  0  0  0  0  0  0  0  0  0  0
   -5.1962    7.5000    0.0000 C   0  0  0  0  0  0  0  0  0  0  0  0
   -4.6471    5.4510    0.0000 C   0  0  0  0  0  0  0  0  0  0  0  0
    0.0000    1.5000    0.0000 C   0  0  0  0  0  0  0  0  0  0  0  0
   -1.2990    2.2500    0.0000 C   0  0  0  0  0  0  0  0  0  0  0  0
   -1.2990    3.7500    0.0000 C   0  0  0  0  0  0  0  0  0  0  0  0
   -2.5981    4.5000    0.0000 C   0  0  0  0  0  0  0  0  0  0  0  0
   -3.8971    3.7500    0.0000 O   0  0  0  0  0  0  0  0  0  0  0  0
    0.0000    4.5000    0.0000 O   0  0  0  0  0  0  0  0  0  0  0  0
   -2.5981    6.0000    0.0000 O   0  0  0  0  0  0  0  0  0  0  0  0
    1.2990    3.7500    0.0000 Si  0  0  0  0  0  4  0  0  0  0  0  0
   -3.8971    6.7500    0.0000 Si  0  0  0  0  0  4  0  0  0  0  0  0
  8  1  1  0
  9  8  1  0
  9 10  2  0
 11 10  1  0
 12 11  2  0
 13 10  1  0
 14 11  1  0
 15  2  1  0
 15  3  1  0
 15  4  1  0
 15 13  1  0
 16  5  1  0
 16  6  1  0
 16  7  1  0
 16 14  1  0
M  END
>  <NAME>  (2950) 
2-TRIMETHYLSILOXYPENT-2-ENOIC ACID TRIMETHYLSILYL ESTER

>  <SYNONYMS>  (2950) 


>  <SPECTRUM TYPE>  (2950) 
MS1

>  <INSTRUMENT TYPE>  (2950) 
EI-B

>  <INSTRUMENT>  (2950) 
JEOL JMS-01-SG

>  <ION MODE>  (2950) 
P

>  <INCHIKEY>  (2950) 
OHSILHRTQNZRQH-KTKRTIGZSA-N

>  <FORMULA>  (2950) 
C11H24O3Si2

>  <EXACT MASS>  (2950) 
260.126397688

>  <MW>  (2950) 
260

>  <ID>  (2950) 
JP007471

>  <CONTRIBUTOR>  (2950) 
University of Tokyo Team, {Faculty of Engineering, University of Tokyo

>  <COMMENT>  (2950) 
SMILES=CCC=C(O[Si](C)(C)C)C(=O)O[Si](C)(C)C
cas=55045-17-5
InChI=InChI=1S/C11H24O3Si2/c1-8-9-10(13-15(2,3)4)11(12)14-16(5,6)7/h9H,8H2,1-7H3/b10-9-
computed SMILES=O=C(O[Si](C)(C)C)C(O[Si](C)(C)C)=CCC
accession=JP007471
date=2016.01.19 (Created 2008.10.21, modified 2011.05.06)
author=KOGA M, UNIV. OF OCCUPATIONAL AND ENVIRONMENTAL HEALTH
license=CC BY-NC-SA
exact mass=260.1264
ionization energy=70 eV
ion type=[M]+*
computed spectral entropy=2.0831012723983573
computed normalized entropy=0.6471517963833388
SPLASH=splash10-0002-5920000000-5e44f1b1fd091617f23e
submitter=submitter = University of Tokyo Team (Faculty of Engineering, University of Tokyo)
MoNA Rating=3.75

>  <NUM PEAKS>  (2950) 
25

>  <MASS SPECTRAL PEAKS>  (2950) 
43 1.5
45 11.8
47 2
51 0.15
55 6.7
59 3
66 2
68 0.15
72 2
73 42.7
74 2.5
75 0.72
127 3.6
131 2.5
133 3.6
142 0.36
147 99.99
148 15.4
149 9.7
201 0.36
217 2.5
245 21.6
246 4.1
247 0.15
260 3

>  <PREDICTED SPECTRUM>  (2950) 
14 11
15 52
18 22
26 9
27 44
28 35
29 75
31 38
32 1
38 10
39 76
40 35
41 90
42 37
43 206
44 134
45 358
46 90
47 148
49 0
50 1
51 30
52 27
53 97
54 63
55 230
56 42
57 91
58 152
59 209
60 50
61 88
63 23
65 38
66 138
67 62
68 11
69 96
70 71
71 53
72 146
73 814
74 257
75 385
76 80
77 94
79 34
81 37
82 28
83 122
84 14
85 80
86 31
87 29
89 15
91 15
92 3
97 15
98 37
99 73
101 22
102 7
103 46
105 43
106 10
111 7
113 64
115 23
117 46
119 52
127 61
128 9
129 49
130 35
131 189
132 25
133 212
134 65
135 64
141 79
142 53
143 168
144 40
145 57
147 999
148 426
149 324
150 118
155 37
157 19
161 51
169 9
170 49
171 94
172 17
173 80
174 25
175 9
187 18
188 6
189 23
190 56
201 53
215 6
216 85
217 283
218 165
219 62
221 104
231 112
232 17
233 69
245 542
246 249
247 156
248 44
249 1
260 185
261 74
262 38
263 9

$$$$

     RDKit          2D

 12 11  0  0  0  0  0  0  0  0999 V2000
   -7.3825    3.7868    0.0000 C   0  0  0  0  0  0  0  0  0  0  0  0
    1.1618    2.4877    0.0000 C   0  0  0  0  0  0  0  0  0  0  0  0
    1.7108    4.5368    0.0000 C   0  0  0  0  0  0  0  0  0  0  0  0
   -0.3382    5.0858    0.0000 C   0  0  0  0  0  0  0  0  0  0  0  0
   -6.0834    3.0368    0.0000 C   0  0  0  0  0  0  0  0  0  0  0  0
   -4.7844    3.7868    0.0000 C   0  0  0  0  0  0  0  0  0  0  0  0
   -3.4853    3.0368    0.0000 C   0  0  0  0  0  0  0  0  0  0  0  0
   -2.1863    3.7868    0.0000 C   0  0  0  0  0  0  0  0  0  0  0  0
   -3.4853    1.5368    0.0000 O   0  0  0  0  0  0  0  0  0  0  0  0
   -2.1863    5.2868    0.0000 O   0  0  0  0  0  0  0  0  0  0  0  0
   -0.8873    3.0368    0.0000 O   0  0  0  0  0  0  0  0  0  0  0  0
    0.4118    3.7868    0.0000 Si  0  0  0  0  0  4  0  0  0  0  0  0
  5  1  1  0
  6  5  1  0
  7  6  1  0
  8  7  1  0
  9  7  2  0
 10  8  2  0
 11  8  1  0
 12  2  1  0
 12  3  1  0
 12  4  1  0
 12 11  1  0
M  END
>  <NAME>  (2951) 
2-OXOPENTANOIC ACID TRIMETHYLSILYL ESTER

>  <SYNONYMS>  (2951) 


>  <SPECTRUM TYPE>  (2951) 
MS1

>  <INSTRUMENT TYPE>  (2951) 
EI-B

>  <INSTRUMENT>  (2951) 
JEOL JMS-01-SG

>  <ION MODE>  (2951) 
P

>  <INCHIKEY>  (2951) 
KXURKMKWKFOXLN-UHFFFAOYSA-N

>  <FORMULA>  (2951) 
C8H16O3Si

>  <EXACT MASS>  (2951) 
188.086870902

>  <MW>  (2951) 
188

>  <ID>  (2951) 
JP007470

>  <CONTRIBUTOR>  (2951) 
University of Tokyo Team, {Faculty of Engineering, University of Tokyo

>  <COMMENT>  (2951) 
SMILES=CCCC(=O)C(=O)O[Si](C)(C)C
InChI=InChI=1S/C8H16O3Si/c1-5-6-7(9)8(10)11-12(2,3)4/h5-6H2,1-4H3
computed SMILES=O=C(O[Si](C)(C)C)C(=O)CCC
accession=JP007470
date=2016.01.19 (Created 2008.10.21, modified 2011.05.06)
author=KOGA M, UNIV. OF OCCUPATIONAL AND ENVIRONMENTAL HEALTH
license=CC BY-NC-SA
exact mass=188.08687
ionization energy=70 eV
ion type=[M]+*
computed spectral entropy=1.9409258333210164
computed normalized entropy=0.602982512815787
SPLASH=splash10-00di-9100000000-8806775283eaf6db59c4
submitter=submitter = University of Tokyo Team (Faculty of Engineering, University of Tokyo)
MoNA Rating=3.75

>  <NUM PEAKS>  (2951) 
25

>  <MASS SPECTRAL PEAKS>  (2951) 
43 9.5
44 2.2
45 8.9
47 0.33
55 1.6
58 4.2
59 1.6
61 0.11
71 3.9
72 1.9
73 99.99
74 0.86
75 25.2
76 2.8
77 3.3
87 0.33
101 7.8
117 1.9
129 11.2
130 0.14
131 2.8
144 2.5
147 1.1
173 0.19
188 1.6

>  <PREDICTED SPECTRUM>  (2951) 
14 28
15 56
18 30
25 5
26 54
27 165
28 110
29 185
30 10
31 81
32 13
35 0
36 16
37 37
38 59
39 179
40 86
41 232
42 157
43 510
44 211
45 496
46 129
47 250
48 14
49 11
50 22
51 15
52 23
53 79
54 5
55 200
56 42
57 89
58 190
59 274
60 130
61 250
62 50
63 48
66 46
69 124
70 125
71 198
72 169
73 999
74 354
75 746
76 170
77 102
83 92
85 65
86 44
87 103
88 31
89 163
99 10
101 204
102 134
103 214
104 29
113 23
114 8
115 200
116 185
117 304
118 143
119 43
127 56
129 219
130 62
131 99
143 162
144 130
145 743
146 380
147 235
148 169
173 222
174 57
175 8
188 77
189 47
190 7

$$$$

     RDKit          2D

 12 11  0  0  0  0  0  0  0  0999 V2000
    2.5111    3.6998    0.0000 C   0  0  0  0  0  0  0  0  0  0  0  0
   -6.0332    4.9988    0.0000 C   0  0  0  0  0  0  0  0  0  0  0  0
   -6.5822    2.9498    0.0000 C   0  0  0  0  0  0  0  0  0  0  0  0
   -4.5332    2.4007    0.0000 C   0  0  0  0  0  0  0  0  0  0  0  0
   -0.0870    3.6998    0.0000 C   0  0  0  0  0  0  0  0  0  0  0  0
   -1.3861    4.4498    0.0000 C   0  0  0  0  0  0  0  0  0  0  0  0
    1.2120    4.4498    0.0000 C   0  0  0  0  0  0  0  0  0  0  0  0
   -2.6851    3.6998    0.0000 C   0  0  0  0  0  0  0  0  0  0  0  0
    1.2120    5.9498    0.0000 O   0  0  0  0  0  0  0  0  0  0  0  0
   -2.6851    2.1998    0.0000 O   0  0  0  0  0  0  0  0  0  0  0  0
   -3.9841    4.4498    0.0000 O   0  0  0  0  0  0  0  0  0  0  0  0
   -5.2832    3.6998    0.0000 Si  0  0  0  0  0  4  0  0  0  0  0  0
  6  5  1  0
  7  1  1  0
  7  5  1  0
  8  6  1  0
  9  7  2  0
 10  8  2  0
 11  8  1  0
 12  2  1  0
 12  3  1  0
 12  4  1  0
 12 11  1  0
M  END
>  <NAME>  (2952) 
4-OXOPENTANOIC ACID TRIMETHYLSILYL ESTER

>  <SYNONYMS>  (2952) 
LEVULINIC ACID TRIMETHYLSILYL ESTER

>  <SPECTRUM TYPE>  (2952) 
MS1

>  <INSTRUMENT TYPE>  (2952) 
EI-B

>  <INSTRUMENT>  (2952) 
JEOL JMS-01-SG

>  <ION MODE>  (2952) 
P

>  <INCHIKEY>  (2952) 
SKSOOBJAPLSIMV-UHFFFAOYSA-N

>  <FORMULA>  (2952) 
C8H16O3Si

>  <EXACT MASS>  (2952) 
188.086870902

>  <MW>  (2952) 
188

>  <ID>  (2952) 
JP007469

>  <CONTRIBUTOR>  (2952) 
University of Tokyo Team, {Faculty of Engineering, University of Tokyo

>  <COMMENT>  (2952) 
SMILES=CC(=O)CCC(=O)O[Si](C)(C)C
InChI=InChI=1S/C8H16O3Si/c1-7(9)5-6-8(10)11-12(2,3)4/h5-6H2,1-4H3
computed SMILES=O=C(O[Si](C)(C)C)CCC(=O)C
accession=JP007469
date=2016.01.19 (Created 2008.10.21, modified 2011.05.06)
author=KOGA M, UNIV. OF OCCUPATIONAL AND ENVIRONMENTAL HEALTH
license=CC BY-NC-SA
exact mass=188.08687
ionization energy=70 eV
ion type=[M]+*
computed spectral entropy=2.748571754802289
computed normalized entropy=0.7730809212673406
SPLASH=splash10-00dj-9600000000-0831380898a28d3f9b87
submitter=submitter = University of Tokyo Team (Faculty of Engineering, University of Tokyo)
MoNA Rating=3.75

>  <NUM PEAKS>  (2952) 
35

>  <MASS SPECTRAL PEAKS>  (2952) 
43 48.1
44 3.7
45 16.7
47 1.61
51 5
53 3.7
55 11.7
56 1.39
57 4.4
58 2.8
59 4.1
61 1.17
71 2.8
72 4.1
73 99.99
74 0.98
75 19.6
76 13.2
77 10.7
81 0.82
86 4.4
98 5.3
99 10.1
111 0.34
129 13.9
130 8.2
131 13.6
144 0.44
145 57.2
146 20.5
147 4.4
155 0.79
173 77.2
174 11.3
175 3.1

>  <PREDICTED SPECTRUM>  (2952) 
14 20
15 47
26 34
27 105
28 86
29 111
31 80
36 4
37 6
38 39
39 106
40 49
41 144
42 166
43 480
44 160
45 401
46 93
47 279
48 37
49 60
51 17
52 30
53 121
54 62
55 337
56 128
57 117
58 200
59 129
60 66
61 266
62 33
63 24
69 166
70 137
71 110
72 192
73 799
74 245
75 999
76 278
77 191
78 29
81 100
82 7
83 185
86 45
87 98
88 69
89 146
98 145
99 137
100 9
101 144
102 44
103 194
104 36
105 21
111 39
112 13
113 67
115 192
116 157
117 507
118 116
119 1
127 168
128 17
129 328
130 194
131 477
132 177
133 95
134 45
143 125
144 125
145 313
146 186
147 39
155 125
156 22
173 282
174 52
188 75
189 14

$$$$

     RDKit          2D

 22 22  0  0  0  0  0  0  0  0999 V2000
    8.7300   -4.4659    0.0000 C   0  0  0  0  0  0  0  0  0  0  0  0
   -8.7131   -0.2289    0.0000 C   0  0  0  0  0  0  0  0  0  0  0  0
  -10.7648   -0.7679    0.0000 C   0  0  0  0  0  0  0  0  0  0  0  0
  -10.2259   -2.8196    0.0000 C   0  0  0  0  0  0  0  0  0  0  0  0
    7.4249   -3.7267    0.0000 C   0  0  0  0  0  0  0  0  0  0  0  0
    6.1321   -4.4874    0.0000 C   0  0  0  0  0  0  0  0  0  0  0  0
    4.8269   -3.7481    0.0000 C   0  0  0  0  0  0  0  0  0  0  0  0
    3.5341   -4.5088    0.0000 C   0  0  0  0  0  0  0  0  0  0  0  0
    2.2289   -3.7695    0.0000 C   0  0  0  0  0  0  0  0  0  0  0  0
    0.9361   -4.5302    0.0000 C   0  0  0  0  0  0  0  0  0  0  0  0
   -4.2771   -1.5434    0.0000 C   0  0  0  0  0  0  0  0  0  0  0  0
   -5.5907   -3.7683    0.0000 C   0  0  0  0  0  0  0  0  0  0  0  0
   -2.9926   -2.2683    0.0000 C   0  0  0  0  0  0  0  0  0  0  0  0
   -4.2661   -4.5624    0.0000 C   0  0  0  0  0  0  0  0  0  0  0  0
   -0.3691   -3.7910    0.0000 C   0  0  0  0  0  0  0  0  0  0  0  0
   -5.5761   -2.2934    0.0000 C   0  0  0  0  0  0  0  0  0  0  0  0
   -2.9671   -3.8124    0.0000 C   0  0  0  0  0  0  0  0  0  0  0  0
   -6.8715   -1.5370    0.0000 C   0  0  0  0  0  0  0  0  0  0  0  0
   -6.8641   -0.0371    0.0000 O   0  0  0  0  0  0  0  0  0  0  0  0
   -1.6619   -4.5517    0.0000 O   0  0  0  0  0  0  0  0  0  0  0  0
   -8.1742   -2.2806    0.0000 O   0  0  0  0  0  0  0  0  0  0  0  0
   -9.4695   -1.5243    0.0000 Si  0  0  0  0  0  4  0  0  0  0  0  0
  5  1  1  0
  6  5  1  0
  7  6  1  0
  8  7  1  0
  9  8  1  0
 10  9  1  0
 13 11  2  0
 14 12  1  0
 15 10  1  0
 16 11  1  0
 16 12  2  0
 17 13  1  0
 17 14  2  0
 18 16  1  0
 19 18  2  0
 20 15  1  0
 20 17  1  0
 21 18  1  0
 22  2  1  0
 22  3  1  0
 22  4  1  0
 22 21  1  0
M  END
>  <NAME>  (2953) 
4-OCTYLOXYBENZOIC ACID TRIMETHYLSILYL ESTER

>  <SYNONYMS>  (2953) 


>  <SPECTRUM TYPE>  (2953) 
MS1

>  <INSTRUMENT TYPE>  (2953) 
EI-B

>  <INSTRUMENT>  (2953) 
JEOL JMS-01-SG

>  <ION MODE>  (2953) 
P

>  <INCHIKEY>  (2953) 
RXUQZVOEMQCPKB-UHFFFAOYSA-N

>  <FORMULA>  (2953) 
C18H30O3Si

>  <EXACT MASS>  (2953) 
322.19642135

>  <MW>  (2953) 
322

>  <ID>  (2953) 
JP007468

>  <CONTRIBUTOR>  (2953) 
University of Tokyo Team, {Faculty of Engineering, University of Tokyo

>  <COMMENT>  (2953) 
SMILES=CCCCCCCCOc(c1)ccc(c1)C(=O)O[Si](C)(C)C
InChI=InChI=1S/C18H30O3Si/c1-5-6-7-8-9-10-15-20-17-13-11-16(12-14-17)18(19)21-22(2,3)4/h11-14H,5-10,15H2,1-4H3
computed SMILES=O=C(O[Si](C)(C)C)C1=CC=C(OCCCCCCCC)C=C1
accession=JP007468
date=2016.01.19 (Created 2008.10.21, modified 2011.05.06)
author=KOGA M, UNIV. OF OCCUPATIONAL AND ENVIRONMENTAL HEALTH
license=CC BY-NC-SA
exact mass=322.19642
ionization energy=70 eV
ion type=[M]+*
computed spectral entropy=3.1522839821667232
computed normalized entropy=0.7831077193632793
SPLASH=splash10-0aba-8719000000-b2196e336ed4e067c359
submitter=submitter = University of Tokyo Team (Faculty of Engineering, University of Tokyo)
MoNA Rating=3.75

>  <NUM PEAKS>  (2953) 
56

>  <MASS SPECTRAL PEAKS>  (2953) 
42 2
43 40.2
44 3.3
45 0.26
47 2.6
55 17.4
56 4.6
57 2.95
64 3.3
65 6
69 9.3
70 0.53
71 16.7
73 20.1
74 3.3
75 1.54
76 4.6
77 5.3
83 3.3
89 0.13
91 2.6
92 6.7
93 14
103 0.8
104 4.6
105 3.3
120 6.7
121 7.04
122 7.3
147 1.3
150 1.3
151 2.21
152 2.6
166 4
179 1.3
193 0.33
194 10.7
195 62.4
196 34.2
197 1
207 3.3
209 4
210 12.7
211 0.8
212 2
233 6
262 1.3
263 1.67
264 2.6
307 99.99
308 23.4
309 0.67
321 1.3
322 46.9
323 10.7
324 2

>  <PREDICTED SPECTRUM>  (2953) 
27 77
29 151
39 106
40 15
41 402
42 161
43 490
44 38
45 51
47 73
50 12
51 34
53 104
54 41
55 427
56 186
57 341
59 56
61 47
63 52
64 139
65 164
67 72
68 34
69 306
70 232
71 220
73 417
74 96
75 323
76 165
77 197
78 45
79 65
83 223
84 133
89 74
90 72
91 213
92 206
93 139
95 31
96 65
97 118
98 1
103 183
104 205
105 190
106 8
107 113
111 61
112 36
117 43
119 86
120 240
121 409
122 191
125 20
129 72
131 42
132 48
133 5
134 57
135 133
136 94
137 146
145 22
149 73
151 151
152 87
161 50
165 110
166 173
167 16
177 10
178 43
179 103
180 24
193 87
194 281
195 993
196 495
197 181
198 10
209 152
210 391
211 215
212 41
223 20
233 253
234 28
235 24
263 192
264 177
307 999
308 501
309 157
322 646
323 326
324 174
325 38

$$$$

     RDKit          2D

 22 21  0  0  0  0  0  0  0  0999 V2000
    4.2219    8.4375    0.0000 C   0  0  0  0  0  0  0  0  0  0  0  0
  -13.9647    8.4375    0.0000 C   0  0  0  0  0  0  0  0  0  0  0  0
   -8.9695    4.6875    0.0000 C   0  0  0  0  0  0  0  0  0  0  0  0
   -7.4695    3.1875    0.0000 C   0  0  0  0  0  0  0  0  0  0  0  0
   -5.9695    4.6875    0.0000 C   0  0  0  0  0  0  0  0  0  0  0  0
    2.9228    9.1875    0.0000 C   0  0  0  0  0  0  0  0  0  0  0  0
  -12.6656    9.1875    0.0000 C   0  0  0  0  0  0  0  0  0  0  0  0
    1.6238    8.4375    0.0000 C   0  0  0  0  0  0  0  0  0  0  0  0
  -11.3666    8.4375    0.0000 C   0  0  0  0  0  0  0  0  0  0  0  0
    0.3248    9.1875    0.0000 C   0  0  0  0  0  0  0  0  0  0  0  0
  -10.0675    9.1875    0.0000 C   0  0  0  0  0  0  0  0  0  0  0  0
   -0.9743    8.4375    0.0000 C   0  0  0  0  0  0  0  0  0  0  0  0
   -2.2733    9.1875    0.0000 C   0  0  0  0  0  0  0  0  0  0  0  0
   -8.7685    8.4375    0.0000 C   0  0  0  0  0  0  0  0  0  0  0  0
   -3.5724    8.4375    0.0000 C   0  0  0  0  0  0  0  0  0  0  0  0
   -7.4695    9.1875    0.0000 C   0  0  0  0  0  0  0  0  0  0  0  0
   -4.8714    9.1875    0.0000 C   0  0  0  0  0  0  0  0  0  0  0  0
   -6.1704    8.4375    0.0000 C   0  0  0  0  0  0  0  0  0  0  0  0
   -6.1704    6.9375    0.0000 C   0  0  0  0  0  0  0  0  0  0  0  0
   -4.8714    6.1875    0.0000 O   0  0  0  0  0  0  0  0  0  0  0  0
   -7.4695    6.1875    0.0000 O   0  0  0  0  0  0  0  0  0  0  0  0
   -7.4695    4.6875    0.0000 Si  0  0  0  0  0  4  0  0  0  0  0  0
  6  1  1  0
  7  2  1  0
  8  6  1  0
  9  7  1  0
 10  8  1  0
 11  9  1  0
 12 10  1  0
 13 12  1  0
 14 11  1  0
 15 13  1  0
 16 14  1  0
 17 15  1  0
 18 16  1  0
 18 17  1  0
 19 18  1  0
 20 19  2  0
 21 19  1  0
 22  3  1  0
 22  4  1  0
 22  5  1  0
 22 21  1  0
M  END
>  <NAME>  (2954) 
2-HEXYLDECANOIC ACID TRIMETHYLSILYL ESTER

>  <SYNONYMS>  (2954) 
ISOPALMITIC ACID TRIMETHYLSILYL ESTER

>  <SPECTRUM TYPE>  (2954) 
MS1

>  <INSTRUMENT TYPE>  (2954) 
EI-B

>  <INSTRUMENT>  (2954) 
JEOL JMS-01-SG

>  <ION MODE>  (2954) 
P

>  <INCHIKEY>  (2954) 
OREZFLQJLWRJCG-UHFFFAOYSA-N

>  <FORMULA>  (2954) 
C19H40O2Si

>  <EXACT MASS>  (2954) 
328.27975705

>  <MW>  (2954) 
328

>  <ID>  (2954) 
JP007467

>  <CONTRIBUTOR>  (2954) 
University of Tokyo Team, {Faculty of Engineering, University of Tokyo

>  <COMMENT>  (2954) 
SMILES=CCCCCCCCC(CCCCCC)C(=O)O[Si](C)(C)C
InChI=InChI=1S/C19H40O2Si/c1-6-8-10-12-13-15-17-18(16-14-11-9-7-2)19(20)21-22(3,4)5/h18H,6-17H2,1-5H3
computed SMILES=O=C(O[Si](C)(C)C)C(CCCCCC)CCCCCCCC
accession=JP007467
date=2016.01.19 (Created 2008.10.21, modified 2011.05.06)
author=KOGA M, UNIV. OF OCCUPATIONAL AND ENVIRONMENTAL HEALTH
license=CC BY-NC-SA
exact mass=328.27976
ionization energy=70 eV
ion type=[M]+*
computed spectral entropy=3.167847639309205
computed normalized entropy=0.748173820349029
SPLASH=splash10-00xu-9332000000-419f2d5a021afdc95631
submitter=submitter = University of Tokyo Team (Faculty of Engineering, University of Tokyo)
MoNA Rating=3.75

>  <NUM PEAKS>  (2954) 
69

>  <MASS SPECTRAL PEAKS>  (2954) 
43 23.1
44 1.7
45 4.1
47 0.17
55 20.2
56 3.8
57 13.1
59 0.14
61 2.3
67 4.1
69 13.7
70 0.26
71 5.5
73 99.99
74 10.5
75 2.96
76 1.7
77 2
81 3.5
83 0.76
84 2
85 2.3
95 2.9
97 0.55
98 4.3
99 1.7
109 1.1
111 0.29
112 1.1
117 8.2
125 1.7
126 0.23
129 16.4
130 1.7
132 3.2
139 0.23
141 1.7
143 4.1
145 37.2
146 0.43
147 1.7
157 2.3
159 3.5
171 0.14
173 6.1
185 2.3
186 1.4
187 0.41
199 1.1
201 8.2
202 1.4
210 0.41
213 2.3
215 2.6
216 39.5
217 0.64
218 1.1
229 3.8
241 1.4
243 0.11
244 31.6
245 5.2
246 1.1
257 0.26
313 39.8
314 9.3
315 2.3
328 0.32
329 0.5

>  <PREDICTED SPECTRUM>  (2954) 
27 49
28 35
29 93
39 57
40 9
41 344
42 98
43 387
44 130
45 156
47 53
49 6
53 81
54 56
55 474
56 211
57 440
58 84
59 94
60 62
61 182
62 5
63 0
66 9
67 188
68 82
69 329
70 133
71 243
72 67
73 999
74 224
75 464
76 90
77 136
79 24
81 97
83 234
84 79
85 102
86 39
87 29
93 74
95 76
96 41
97 181
98 65
99 65
101 47
102 41
103 90
104 8
107 31
109 66
110 23
111 98
112 64
113 61
114 24
115 14
117 173
125 88
126 18
127 0
129 363
130 151
131 102
132 68
133 10
143 165
144 62
145 386
146 69
147 135
153 44
157 8
158 37
159 78
160 6
171 126
172 68
173 192
174 7
185 74
186 52
187 108
188 22
189 21
199 187
200 84
201 298
202 110
203 33
215 211
216 354
217 142
218 28
229 141
230 60
231 15
241 18
243 79
244 409
245 198
257 107
313 618
314 322
315 159
316 28
328 71
329 18

$$$$

     RDKit          2D

 26 25  0  0  0  0  0  0  0  0999 V2000
   -1.5834    3.3849    0.0000 C   0  0  0  0  0  0  0  0  0  0  0  0
   -0.0834    5.9829    0.0000 C   0  0  0  0  0  0  0  0  0  0  0  0
   -2.1325    5.4339    0.0000 C   0  0  0  0  0  0  0  0  0  0  0  0
   12.9070    3.3849    0.0000 C   0  0  0  0  0  0  0  0  0  0  0  0
   13.4560    5.4339    0.0000 C   0  0  0  0  0  0  0  0  0  0  0  0
   11.4070    5.9829    0.0000 C   0  0  0  0  0  0  0  0  0  0  0  0
    5.4608    0.1839    0.0000 C   0  0  0  0  0  0  0  0  0  0  0  0
    6.9608   -1.3161    0.0000 C   0  0  0  0  0  0  0  0  0  0  0  0
    8.4608    0.1839    0.0000 C   0  0  0  0  0  0  0  0  0  0  0  0
    4.3627    4.6839    0.0000 C   0  0  0  0  0  0  0  0  0  0  0  0
    6.9608    4.6839    0.0000 C   0  0  0  0  0  0  0  0  0  0  0  0
    3.0637    3.9339    0.0000 C   0  0  0  0  0  0  0  0  0  0  0  0
    8.2599    3.9339    0.0000 C   0  0  0  0  0  0  0  0  0  0  0  0
    5.6618    3.9339    0.0000 C   0  0  0  0  0  0  0  0  0  0  0  0
    1.7647    4.6839    0.0000 C   0  0  0  0  0  0  0  0  0  0  0  0
    9.5589    4.6839    0.0000 C   0  0  0  0  0  0  0  0  0  0  0  0
    5.6618    2.4339    0.0000 C   0  0  0  0  0  0  0  0  0  0  0  0
    1.7647    6.1839    0.0000 O   0  0  0  0  0  0  0  0  0  0  0  0
    9.5589    6.1839    0.0000 O   0  0  0  0  0  0  0  0  0  0  0  0
    4.3627    1.6839    0.0000 O   0  0  0  0  0  0  0  0  0  0  0  0
    0.4656    3.9339    0.0000 O   0  0  0  0  0  0  0  0  0  0  0  0
   10.8579    3.9339    0.0000 O   0  0  0  0  0  0  0  0  0  0  0  0
    6.9608    1.6839    0.0000 O   0  0  0  0  0  0  0  0  0  0  0  0
   -0.8334    4.6839    0.0000 Si  0  0  0  0  0  4  0  0  0  0  0  0
   12.1570    4.6839    0.0000 Si  0  0  0  0  0  4  0  0  0  0  0  0
    6.9608    0.1839    0.0000 Si  0  0  0  0  0  4  0  0  0  0  0  0
 12 10  1  0
 13 11  1  0
 14 10  1  0
 14 11  1  0
 15 12  1  0
 16 13  1  0
 17 14  1  0
 18 15  2  0
 19 16  2  0
 20 17  2  0
 21 15  1  0
 22 16  1  0
 23 17  1  0
 24  1  1  0
 24  2  1  0
 24  3  1  0
 24 21  1  0
 25  4  1  0
 25  5  1  0
 25  6  1  0
 25 22  1  0
 26  7  1  0
 26  8  1  0
 26  9  1  0
 26 23  1  0
M  END
>  <NAME>  (2955) 
1,3,5-PENTANETRICARBOXYLIC ACID TRIS(TRIMETHYLSILYL) ESTER

>  <SYNONYMS>  (2955) 


>  <SPECTRUM TYPE>  (2955) 
MS1

>  <INSTRUMENT TYPE>  (2955) 
EI-B

>  <INSTRUMENT>  (2955) 
JEOL JMS-01-SG

>  <ION MODE>  (2955) 
P

>  <INCHIKEY>  (2955) 
BTMRCUTZCUEEAP-UHFFFAOYSA-N

>  <FORMULA>  (2955) 
C17H36O6Si3

>  <EXACT MASS>  (2955) 
420.18196846199993

>  <MW>  (2955) 
420

>  <ID>  (2955) 
JP007466

>  <CONTRIBUTOR>  (2955) 
University of Tokyo Team, {Faculty of Engineering, University of Tokyo

>  <COMMENT>  (2955) 
SMILES=O=C(CCC(CCC(=O)O[Si](C)(C)C)C(=O)O[Si](C)(C)C)O[Si](C)(C)C
InChI=InChI=1S/C17H36O6Si3/c1-24(2,3)21-15(18)12-10-14(17(20)23-26(7,8)9)11-13-16(19)22-25(4,5)6/h14H,10-13H2,1-9H3
computed SMILES=O=C(O[Si](C)(C)C)CCC(C(=O)O[Si](C)(C)C)CCC(=O)O[Si](C)(C)C
accession=JP007466
date=2016.01.19 (Created 2008.10.21, modified 2011.05.06)
author=KOGA M, UNIV. OF OCCUPATIONAL AND ENVIRONMENTAL HEALTH
license=CC BY-NC-SA
exact mass=420.18197
ionization energy=70 eV
ion type=[M]+*
computed spectral entropy=3.4742048884446377
computed normalized entropy=0.7883880713756538
SPLASH=splash10-00di-9720100000-c774a3ba4f1dff94c370
submitter=submitter = University of Tokyo Team (Faculty of Engineering, University of Tokyo)
MoNA Rating=3.75

>  <NUM PEAKS>  (2955) 
82

>  <MASS SPECTRAL PEAKS>  (2955) 
43 6.8
44 3.9
45 10.7
47 0.45
53 1.1
55 24.4
57 2.2
59 0.22
61 2.8
67 7.3
69 2.8
72 0.62
73 99.99
74 9
75 35.2
76 0.22
77 9.6
81 2.8
83 1.1
95 1.19
97 1.1
101 1.7
109 2.8
116 0.9
117 7.9
122 2.2
123 27.8
124 0.17
129 20.4
130 2.2
131 2.2
133 0.45
141 3.4
143 2.8
145 1.1
147 3.35
148 5.6
149 11.3
150 1.7
151 0.45
153 3.4
157 2.2
158 13
159 0.11
169 10.7
170 1.7
171 23.8
172 0.22
173 1.1
185 7.3
186 5.6
187 0.11
189 2.8
197 3.4
199 13.6
200 0.11
201 1.1
203 2.2
204 37.5
205 0.68
206 2.8
212 1.1
213 3.9
217 0.56
219 3.9
225 1.1
241 2.8
243 0.39
245 1.1
262 1.1
273 3.4
276 0.39
287 2.8
289 2.8
302 15.3
303 0.34
304 1.1
330 3.4
331 1.1
405 4.87
406 14.2
407 6.2

>  <PREDICTED SPECTRUM>  (2955) 
18 4
26 12
27 8
28 17
29 1
39 54
40 20
41 116
42 25
43 109
44 127
45 272
46 73
47 124
48 48
49 59
50 26
51 16
52 32
53 124
54 91
55 370
56 109
57 104
58 94
59 186
60 103
61 187
62 42
63 7
65 31
66 51
67 141
68 76
69 175
70 130
71 57
72 216
73 999
74 308
75 637
76 141
77 145
78 2
79 133
80 55
81 224
82 105
83 148
84 110
85 85
86 63
87 72
88 49
89 94
91 38
93 57
94 38
95 119
96 107
97 196
98 147
99 210
100 94
101 120
102 16
103 50
105 48
106 13
107 64
108 59
109 98
110 30
111 95
112 78
113 86
114 39
115 101
116 219
117 231
118 32
119 67
121 52
122 54
123 146
124 62
125 125
126 59
127 84
128 65
129 379
130 154
131 167
132 84
133 204
134 67
135 106
136 46
137 47
138 17
139 49
140 68
141 116
142 123
143 141
144 76
145 101
146 68
147 519
148 200
149 295
150 158
151 103
152 67
153 77
154 82
155 139
156 83
157 159
158 135
159 99
160 29
161 33
162 0
163 54
164 40
165 47
166 29
167 56
168 61
169 198
170 116
171 194
172 129
173 112
174 106
175 118
176 53
177 107
178 65
179 52
180 36
181 71
182 53
183 62
184 93
185 205
186 102
187 53
188 36
189 67
190 61
191 65
192 21
193 8
196 8
197 83
198 46
199 161
200 65
201 32
202 19
203 181
204 389
205 220
206 75
207 2
209 40
211 23
212 130
213 262
214 172
215 65
216 79
217 193
218 100
219 104
220 96
221 65
222 5
223 2
224 19
225 70
226 0
227 24
228 21
230 30
231 107
232 23
233 67
234 96
235 65
236 26
240 168
241 162
242 92
243 131
244 78
245 121
246 76
247 65
248 72
255 6
256 2
257 33
258 95
259 145
260 64
261 46
262 31
263 4
271 105
272 34
273 100
274 112
275 104
276 120
277 39
278 1
286 58
287 250
288 130
289 214
290 110
291 40
292 12
301 12
302 196
303 139
304 28
305 22
315 92
316 98
317 79
318 35
319 29
320 27
330 259
331 120
332 67
334 27
345 79
347 41
348 50
361 116
362 18
363 39
364 40
377 3
389 1
390 10
391 9
405 428
406 240
407 135
408 26
409 41
420 84
421 44

$$$$

     RDKit          2D

 16 16  0  0  0  0  0  0  0  0999 V2000
    3.4358    1.8707    0.0000 C   0  0  0  0  0  0  0  0  0  0  0  0
    3.9849    3.9197    0.0000 C   0  0  0  0  0  0  0  0  0  0  0  0
    1.9358    4.4687    0.0000 C   0  0  0  0  0  0  0  0  0  0  0  0
   -7.7065    4.6697    0.0000 C   0  0  0  0  0  0  0  0  0  0  0  0
   -7.7070    3.1689    0.0000 C   0  0  0  0  0  0  0  0  0  0  0  0
   -6.4070    5.4205    0.0000 C   0  0  0  0  0  0  0  0  0  0  0  0
   -2.5103    3.1697    0.0000 C   0  0  0  0  0  0  0  0  0  0  0  0
   -6.4079    2.4189    0.0000 C   0  0  0  0  0  0  0  0  0  0  0  0
   -5.1079    4.6705    0.0000 C   0  0  0  0  0  0  0  0  0  0  0  0
   -3.8094    2.4197    0.0000 C   0  0  0  0  0  0  0  0  0  0  0  0
   -1.2113    2.4197    0.0000 C   0  0  0  0  0  0  0  0  0  0  0  0
   -5.1084    3.1697    0.0000 C   0  0  0  0  0  0  0  0  0  0  0  0
    0.0877    3.1697    0.0000 C   0  0  0  0  0  0  0  0  0  0  0  0
    0.0877    4.6697    0.0000 O   0  0  0  0  0  0  0  0  0  0  0  0
    1.3868    2.4197    0.0000 O   0  0  0  0  0  0  0  0  0  0  0  0
    2.6858    3.1697    0.0000 Si  0  0  0  0  0  4  0  0  0  0  0  0
  5  4  2  0
  6  4  1  0
  8  5  1  0
  9  6  2  0
 10  7  1  0
 11  7  1  0
 12  8  2  0
 12  9  1  0
 12 10  1  0
 13 11  1  0
 14 13  2  0
 15 13  1  0
 16  1  1  0
 16  2  1  0
 16  3  1  0
 16 15  1  0
M  END
>  <NAME>  (2956) 
4-PHENYLBUTYRIC ACID TRIMETHYLSILYL ESTER

>  <SYNONYMS>  (2956) 


>  <SPECTRUM TYPE>  (2956) 
MS1

>  <INSTRUMENT TYPE>  (2956) 
EI-B

>  <INSTRUMENT>  (2956) 
JEOL JMS-01-SG

>  <ION MODE>  (2956) 
P

>  <INCHIKEY>  (2956) 
ZYYPVAODSQWOQR-UHFFFAOYSA-N

>  <FORMULA>  (2956) 
C13H20O2Si

>  <EXACT MASS>  (2956) 
236.12325641

>  <MW>  (2956) 
236

>  <ID>  (2956) 
JP007465

>  <CONTRIBUTOR>  (2956) 
University of Tokyo Team, {Faculty of Engineering, University of Tokyo

>  <COMMENT>  (2956) 
SMILES=O=C(CCCc(c1)cccc1)O[Si](C)(C)C
InChI=InChI=1S/C13H20O2Si/c1-16(2,3)15-13(14)11-7-10-12-8-5-4-6-9-12/h4-6,8-9H,7,10-11H2,1-3H3
computed SMILES=O=C(O[Si](C)(C)C)CCCC=1C=CC=CC1
accession=JP007465
date=2016.01.19 (Created 2008.10.21, modified 2011.05.06)
author=KOGA M, UNIV. OF OCCUPATIONAL AND ENVIRONMENTAL HEALTH
license=CC BY-NC-SA
exact mass=236.12326
ionization energy=70 eV
ion type=[M]+*
computed spectral entropy=2.806279274186064
computed normalized entropy=0.7137344166103365
SPLASH=splash10-01di-8930000000-d847ec0a0d973cf58f18
submitter=submitter = University of Tokyo Team (Faculty of Engineering, University of Tokyo)
MoNA Rating=3.75

>  <NUM PEAKS>  (2956) 
51

>  <MASS SPECTRAL PEAKS>  (2956) 
43 5.5
45 6.5
47 6.5
50 0.09
51 2.9
52 0.5
55 4.9
58 0.15
59 1.1
60 0.7
61 4.9
63 0.11
65 6.7
72 5.9
73 27.9
74 0.39
75 85.8
76 6.3
77 7.5
78 0.17
79 1.3
88 0.7
89 1.5
90 0.13
91 20.1
92 1.3
101 0.9
103 0.15
104 23.5
105 4.9
111 1.3
115 0.23
116 6.9
117 99.99
118 11.5
119 0.41
129 4.1
130 0.9
132 19.1
133 0.19
134 0.7
145 0.7
146 26.5
147 0.35
203 5.7
204 0.7
221 39.1
222 0.69
223 1.9
236 16.5
237 3.1

>  <PREDICTED SPECTRUM>  (2956) 
15 4
26 12
27 38
29 62
38 10
39 154
40 59
41 260
42 88
43 166
44 164
45 409
46 32
47 201
48 10
49 21
50 121
51 221
52 126
53 108
54 6
55 155
56 135
57 156
58 159
59 259
60 191
61 327
62 104
63 152
64 44
65 247
66 114
67 49
71 34
72 89
73 789
74 299
75 999
76 298
77 410
78 271
79 231
80 38
85 56
86 27
87 71
88 34
89 259
90 101
91 660
92 228
93 55
99 88
101 170
102 121
103 289
104 481
105 490
106 80
107 92
113 11
115 225
116 411
117 770
118 569
119 78
120 75
121 30
129 153
131 234
132 265
133 43
145 468
146 639
147 386
148 85
176 15
177 20
178 12
191 37
192 6
193 9
203 1
204 0
207 48
221 629
222 363
223 176
224 18
236 375
237 155
238 92

$$$$

     RDKit          2D

 23 23  0  0  0  0  0  0  0  0999 V2000
   -1.5246    1.1121    0.0000 C   0  0  0  0  0  0  0  0  0  0  0  0
   -3.5735    0.5628    0.0000 C   0  0  0  0  0  0  0  0  0  0  0  0
   -3.0242   -1.4862    0.0000 C   0  0  0  0  0  0  0  0  0  0  0  0
    5.7215    3.5631    0.0000 C   0  0  0  0  0  0  0  0  0  0  0  0
    4.2218    5.0634    0.0000 C   0  0  0  0  0  0  0  0  0  0  0  0
    2.7215    3.5636    0.0000 C   0  0  0  0  0  0  0  0  0  0  0  0
    2.9229   -3.1881    0.0000 C   0  0  0  0  0  0  0  0  0  0  0  0
    1.6233   -2.4372    0.0000 C   0  0  0  0  0  0  0  0  0  0  0  0
    4.2219   -2.4381    0.0000 C   0  0  0  0  0  0  0  0  0  0  0  0
    1.6229   -0.9364    0.0000 C   0  0  0  0  0  0  0  0  0  0  0  0
    4.2214   -0.9372    0.0000 C   0  0  0  0  0  0  0  0  0  0  0  0
    2.9219   -0.1864    0.0000 C   0  0  0  0  0  0  0  0  0  0  0  0
    0.3237   -0.1866    0.0000 C   0  0  0  0  0  0  0  0  0  0  0  0
    2.9221    1.3136    0.0000 C   0  0  0  0  0  0  0  0  0  0  0  0
    5.5205   -0.1872    0.0000 N   0  0  0  0  0  0  0  0  0  0  0  0
    0.3235    1.3134    0.0000 O   0  0  0  0  0  0  0  0  0  0  0  0
    1.6232    2.0638    0.0000 O   0  0  0  0  0  0  0  0  0  0  0  0
    6.8195   -0.9372    0.0000 O   0  0  0  0  0  0  0  0  0  0  0  0
    5.5205    1.3128    0.0000 O   0  0  0  0  0  0  0  0  0  0  0  0
   -0.9752   -0.9368    0.0000 O   0  0  0  0  0  0  0  0  0  0  0  0
    4.2213    2.0634    0.0000 O   0  0  0  0  0  0  0  0  0  0  0  0
   -2.2744   -0.1870    0.0000 Si  0  0  0  0  0  4  0  0  0  0  0  0
    4.2215    3.5634    0.0000 Si  0  0  0  0  0  4  0  0  0  0  0  0
  8  7  2  0
  9  7  1  0
 10  8  1  0
 11  9  2  0
 12 10  2  0
 12 11  1  0
 13 10  1  0
 14 12  1  0
 15 11  1  0
 16 13  2  0
 17 14  2  0
 18 15  1  0
 19 15  2  0
 20 13  1  0
 21 14  1  0
 22  1  1  0
 22  2  1  0
 22  3  1  0
 22 20  1  0
 23  4  1  0
 23  5  1  0
 23  6  1  0
 23 21  1  0
M  CHG  2  15   1  18  -1
M  END
>  <NAME>  (2957) 
3-NITROPHTHALIC ACID BIS(TRIMETHYLSILYL) ESTER

>  <SYNONYMS>  (2957) 


>  <SPECTRUM TYPE>  (2957) 
MS1

>  <INSTRUMENT TYPE>  (2957) 
EI-B

>  <INSTRUMENT>  (2957) 
JEOL JMS-01-SG

>  <ION MODE>  (2957) 
P

>  <INCHIKEY>  (2957) 
SOQMOBLTNMMSNJ-UHFFFAOYSA-N

>  <FORMULA>  (2957) 
C14H21NO6Si2

>  <EXACT MASS>  (2957) 
355.09074045200003

>  <MW>  (2957) 
355

>  <ID>  (2957) 
JP007464

>  <CONTRIBUTOR>  (2957) 
University of Tokyo Team, {Faculty of Engineering, University of Tokyo

>  <COMMENT>  (2957) 
SMILES=[O-1][N+1](=O)c(c1)c(C(=O)O[Si](C)(C)C)c(cc1)C(=O)O[Si](C)(C)C
InChI=InChI=1S/C14H21NO6Si2/c1-22(2,3)20-13(16)10-8-7-9-11(15(18)19)12(10)14(17)21-23(4,5)6/h7-9H,1-6H3
computed SMILES=O=C(O[Si](C)(C)C)C1=CC=CC(=C1C(=O)O[Si](C)(C)C)N(=O)=O
accession=JP007464
date=2016.01.19 (Created 2008.10.21, modified 2011.05.06)
author=KOGA M, UNIV. OF OCCUPATIONAL AND ENVIRONMENTAL HEALTH
license=CC BY-NC-SA
exact mass=355.09074
ionization energy=70 eV
ion type=[M]+*
computed spectral entropy=2.394645458120979
computed normalized entropy=0.7349829663350479
SPLASH=splash10-006t-9802000000-dffc91f42b16070d5c87
submitter=submitter = University of Tokyo Team (Faculty of Engineering, University of Tokyo)
MoNA Rating=3.75

>  <NUM PEAKS>  (2957) 
26

>  <MASS SPECTRAL PEAKS>  (2957) 
43 12.8
44 15.7
45 10
47 0.28
51 1.4
55 12.8
69 5.7
72 0.42
73 62.8
74 5.7
75 25.7
77 0.28
115 1.4
117 4.2
119 1.4
129 0.42
131 4.2
132 8.5
133 5.7
141 0.14
147 99.99
148 12.8
149 8.5
296 0.71
340 31.4
341 7.1

>  <PREDICTED SPECTRUM>  (2957) 
15 27
18 7
27 8
29 54
30 39
38 13
39 27
40 3
41 25
42 21
43 160
44 144
45 379
46 107
47 201
48 9
49 45
50 54
51 32
52 50
53 80
54 47
55 107
56 38
57 39
58 89
59 141
60 35
61 87
62 23
63 35
64 12
65 36
66 65
67 12
68 62
69 80
70 51
71 47
72 83
73 974
74 327
75 530
76 174
77 220
78 109
79 128
80 28
81 24
82 51
83 60
84 51
85 28
86 32
88 3
89 67
90 105
91 93
92 70
93 75
94 47
95 60
96 4
97 30
98 64
99 14
100 22
101 31
102 52
103 172
104 110
105 110
106 102
107 109
108 13
109 26
110 30
111 61
112 94
113 23
115 6
116 52
117 50
118 66
119 140
120 151
121 56
122 29
124 15
126 64
129 7
131 65
132 90
133 228
134 174
135 196
136 126
137 61
138 23
139 31
140 3
146 64
147 954
148 388
149 370
150 206
151 120
152 71
163 72
164 119
165 85
166 67
167 105
168 56
169 17
172 13
174 29
175 69
176 21
177 101
178 163
179 202
180 135
181 92
182 55
183 0
185 44
186 40
187 26
189 11
190 94
191 157
192 110
193 243
194 105
195 34
196 42
197 48
204 84
205 19
206 53
207 78
208 127
209 69
210 0
211 12
212 33
218 54
219 41
220 22
221 160
222 156
223 152
224 93
225 71
226 12
234 28
237 68
238 61
239 40
240 26
243 70
250 209
251 166
252 181
253 142
254 96
255 29
263 5
265 79
266 136
267 140
268 157
269 25
279 0
282 156
283 70
285 4
294 87
295 64
296 20
297 63
309 5
310 64
311 13
324 119
325 23
340 999
341 516
342 352
343 159
344 48

$$$$

     RDKit          2D

 21 22  0  0  0  0  0  0  0  0999 V2000
   -4.4468    2.7995    0.0000 C   0  0  0  0  0  0  0  0  0  0  0  0
   -6.4959    2.2508    0.0000 C   0  0  0  0  0  0  0  0  0  0  0  0
   -5.9472    0.2017    0.0000 C   0  0  0  0  0  0  0  0  0  0  0  0
    7.7948   -3.0010    0.0000 C   0  0  0  0  0  0  0  0  0  0  0  0
    6.4952   -3.7517    0.0000 C   0  0  0  0  0  0  0  0  0  0  0  0
    7.7956   -1.5002    0.0000 C   0  0  0  0  0  0  0  0  0  0  0  0
    5.1963   -3.0015    0.0000 C   0  0  0  0  0  0  0  0  0  0  0  0
    6.4966   -0.7500    0.0000 C   0  0  0  0  0  0  0  0  0  0  0  0
   -1.3000   -0.7500    0.0000 C   0  0  0  0  0  0  0  0  0  0  0  0
    0.0000    1.5000    0.0000 C   0  0  0  0  0  0  0  0  0  0  0  0
    0.0000   -1.5000    0.0000 C   0  0  0  0  0  0  0  0  0  0  0  0
    1.3000    0.7500    0.0000 C   0  0  0  0  0  0  0  0  0  0  0  0
   -1.3000    0.7500    0.0000 C   0  0  0  0  0  0  0  0  0  0  0  0
    5.1970   -1.5006    0.0000 C   0  0  0  0  0  0  0  0  0  0  0  0
    1.3000   -0.7500    0.0000 C   0  0  0  0  0  0  0  0  0  0  0  0
   -2.5989    1.5002    0.0000 C   0  0  0  0  0  0  0  0  0  0  0  0
    3.8981   -0.7504    0.0000 N   0  0  0  0  0  0  0  0  0  0  0  0
    2.5989   -1.5002    0.0000 N   0  0  0  0  0  0  0  0  0  0  0  0
   -2.5987    3.0002    0.0000 O   0  0  0  0  0  0  0  0  0  0  0  0
   -3.8981    0.7504    0.0000 O   0  0  0  0  0  0  0  0  0  0  0  0
   -5.1970    1.5006    0.0000 Si  0  0  0  0  0  4  0  0  0  0  0  0
  5  4  2  0
  6  4  1  0
  7  5  1  0
  8  6  2  0
 11  9  2  0
 12 10  1  0
 13  9  1  0
 13 10  2  0
 14  7  2  0
 14  8  1  0
 15 11  1  0
 15 12  2  0
 16 13  1  0
 17 14  1  0
 18 15  1  0
 17 18  2  0
 19 16  2  0
 20 16  1  0
 21  1  1  0
 21  2  1  0
 21  3  1  0
 21 20  1  0
M  END
>  <NAME>  (2958) 
4-PHENYLAZOBENZOIC ACID TRIMETHYLSILYL ESTER

>  <SYNONYMS>  (2958) 


>  <SPECTRUM TYPE>  (2958) 
MS1

>  <INSTRUMENT TYPE>  (2958) 
EI-B

>  <INSTRUMENT>  (2958) 
JEOL JMS-01-SG

>  <ION MODE>  (2958) 
P

>  <INCHIKEY>  (2958) 
AVYNALGDJMJGPJ-ISLYRVAYSA-N

>  <FORMULA>  (2958) 
C16H18N2O2Si

>  <EXACT MASS>  (2958) 
298.113754346

>  <MW>  (2958) 
298

>  <ID>  (2958) 
JP007463

>  <CONTRIBUTOR>  (2958) 
University of Tokyo Team, {Faculty of Engineering, University of Tokyo

>  <COMMENT>  (2958) 
SMILES=c(c2)ccc(c2)N=Nc(c1)ccc(c1)C(=O)O[Si](C)(C)C
InChI=InChI=1S/C16H18N2O2Si/c1-21(2,3)20-16(19)13-9-11-15(12-10-13)18-17-14-7-5-4-6-8-14/h4-12H,1-3H3/b18-17+
computed SMILES=O=C(O[Si](C)(C)C)C1=CC=C(N=NC=2C=CC=CC2)C=C1
accession=JP007463
date=2016.01.19 (Created 2008.10.21, modified 2011.05.06)
author=KOGA M, UNIV. OF OCCUPATIONAL AND ENVIRONMENTAL HEALTH
license=CC BY-NC-SA
exact mass=298.11375
ionization energy=70 eV
ion type=[M]+*
computed spectral entropy=2.8326670466385497
computed normalized entropy=0.720445744862755
SPLASH=splash10-0fb9-9840000000-e8afa1e3ad218f9477fd
submitter=submitter = University of Tokyo Team (Faculty of Engineering, University of Tokyo)
MoNA Rating=3.75

>  <NUM PEAKS>  (2958) 
51

>  <MASS SPECTRAL PEAKS>  (2958) 
43 2
44 2
45 6.1
47 0.14
50 4.3
51 7.8
55 2
57 0.29
63 1.4
64 1.1
65 1.7
73 3.02
74 2.9
75 8.7
76 20.9
77 99.99
78 8.7
89 1.1
91 1.4
92 0.2
93 1.7
103 62.2
104 22.3
105 5.55
106 3.4
120 1.1
121 1.1
134 0.14
135 2.9
149 1.1
150 1.4
151 0.14
152 3.4
153 2.3
178 2.3
180 0.14
181 3.4
187 4
193 46.5
194 0.84
195 1.7
209 9.3
211 1.1
221 0.61
239 4.3
283 18.8
284 3.4
285 0.14
298 42.7
299 10.1
300 4

>  <PREDICTED SPECTRUM>  (2958) 
15 9
18 12
26 19
27 76
28 55
31 29
37 7
38 35
39 74
41 42
43 143
44 163
45 366
46 63
47 93
50 311
51 490
52 100
53 79
54 4
55 108
56 87
57 85
58 67
59 211
60 63
61 71
62 73
63 167
64 156
65 177
66 85
67 46
68 24
69 72
70 27
73 698
74 291
75 518
76 420
77 999
78 292
79 132
81 92
82 58
83 72
84 3
86 8
87 34
88 41
89 187
90 172
91 242
92 161
93 135
94 45
95 90
96 22
97 44
99 35
100 19
101 28
102 86
103 410
104 388
105 604
106 190
107 93
108 55
109 22
115 32
116 58
117 37
118 52
119 241
120 100
121 183
122 135
123 62
132 15
133 154
134 125
135 599
136 246
137 84
139 105
141 105
148 132
149 256
150 217
151 302
152 339
153 162
155 22
161 36
163 202
164 69
165 211
166 234
167 139
168 19
169 42
177 136
178 233
179 77
183 38
193 926
194 390
195 180
196 42
197 112
198 13
208 86
209 265
210 79
211 72
212 2
221 431
222 114
223 27
225 7
226 10
227 20
237 34
239 194
240 37
241 60
253 71
254 23
255 67
269 4
270 15
283 499
284 261
285 52
298 744
299 299
300 162
301 20

$$$$

     RDKit          2D

 29 28  0  0  0  0  0  0  0  0999 V2000
    0.6495    4.1250    0.0000 C   0  0  0  0  0  0  0  0  0  0  0  0
    0.1005   12.1740    0.0000 C   0  0  0  0  0  0  0  0  0  0  0  0
    0.6495   10.1250    0.0000 C   0  0  0  0  0  0  0  0  0  0  0  0
   -1.3995    9.5760    0.0000 C   0  0  0  0  0  0  0  0  0  0  0  0
  -18.0861   15.1740    0.0000 C   0  0  0  0  0  0  0  0  0  0  0  0
  -20.1351   14.6250    0.0000 C   0  0  0  0  0  0  0  0  0  0  0  0
  -19.5861   12.5760    0.0000 C   0  0  0  0  0  0  0  0  0  0  0  0
   -0.6495    4.8750    0.0000 C   0  0  0  0  0  0  0  0  0  0  0  0
   -0.6495    6.3750    0.0000 C   0  0  0  0  0  0  0  0  0  0  0  0
   -1.9486    7.1250    0.0000 C   0  0  0  0  0  0  0  0  0  0  0  0
   -8.4437   13.8750    0.0000 C   0  0  0  0  0  0  0  0  0  0  0  0
   -9.7428   13.1250    0.0000 C   0  0  0  0  0  0  0  0  0  0  0  0
   -7.1447   13.1250    0.0000 C   0  0  0  0  0  0  0  0  0  0  0  0
  -11.0418   13.8750    0.0000 C   0  0  0  0  0  0  0  0  0  0  0  0
   -5.8457   13.8750    0.0000 C   0  0  0  0  0  0  0  0  0  0  0  0
  -12.3409   13.1250    0.0000 C   0  0  0  0  0  0  0  0  0  0  0  0
   -1.9486    8.6250    0.0000 C   0  0  0  0  0  0  0  0  0  0  0  0
   -4.5466   13.1250    0.0000 C   0  0  0  0  0  0  0  0  0  0  0  0
  -13.6399   13.8750    0.0000 C   0  0  0  0  0  0  0  0  0  0  0  0
   -3.2476    9.3750    0.0000 C   0  0  0  0  0  0  0  0  0  0  0  0
   -4.5466   11.6250    0.0000 C   0  0  0  0  0  0  0  0  0  0  0  0
  -14.9389   13.1250    0.0000 C   0  0  0  0  0  0  0  0  0  0  0  0
   -3.2476   10.8750    0.0000 C   0  0  0  0  0  0  0  0  0  0  0  0
  -16.2380   13.8750    0.0000 C   0  0  0  0  0  0  0  0  0  0  0  0
  -16.2380   15.3750    0.0000 O   0  0  0  0  0  0  0  0  0  0  0  0
   -1.9486   11.6250    0.0000 O   0  0  0  0  0  0  0  0  0  0  0  0
  -17.5370   13.1250    0.0000 O   0  0  0  0  0  0  0  0  0  0  0  0
   -0.6495   10.8750    0.0000 Si  0  0  0  0  0  4  0  0  0  0  0  0
  -18.8361   13.8750    0.0000 Si  0  0  0  0  0  4  0  0  0  0  0  0
  8  1  1  0
  9  8  1  0
 10  9  1  0
 12 11  1  0
 13 11  1  0
 14 12  1  0
 15 13  1  0
 16 14  1  0
 17 10  1  0
 15 18  2  0
 19 16  1  0
 20 17  1  0
 21 18  1  0
 22 19  1  0
 23 20  1  0
 23 21  1  0
 24 22  1  0
 25 24  2  0
 26 23  1  0
 27 24  1  0
 28  2  1  0
 28  3  1  0
 28  4  1  0
 28 26  1  0
 29  5  1  0
 29  6  1  0
 29  7  1  0
 29 27  1  0
M  END
>  <NAME>  (2959) 
D-12-TRIMETHYLSILOXY-CIS-9-OCTADECENOICACID TRIMETHYLSILYL ESTER

>  <SYNONYMS>  (2959) 
D-12-TRIMETHYLSILOXYOLEIC ACID TRIMETHYLSILYL ESTER

>  <SPECTRUM TYPE>  (2959) 
MS1

>  <INSTRUMENT TYPE>  (2959) 
EI-B

>  <INSTRUMENT>  (2959) 
JEOL JMS-01-SG

>  <ION MODE>  (2959) 
P

>  <INCHIKEY>  (2959) 
LBRTWLSBAWJDOP-SDXDJHTJSA-N

>  <FORMULA>  (2959) 
C24H50O3Si2

>  <EXACT MASS>  (2959) 
442.32984852000004

>  <MW>  (2959) 
442

>  <ID>  (2959) 
JP007462

>  <CONTRIBUTOR>  (2959) 
University of Tokyo Team, {Faculty of Engineering, University of Tokyo

>  <COMMENT>  (2959) 
SMILES=CCCCCCC(CC=CCCCCCCCC(=O)O[Si](C)(C)C)O[Si](C)(C)C
InChI=InChI=1S/C24H50O3Si2/c1-8-9-10-17-20-23(26-28(2,3)4)21-18-15-13-11-12-14-16-19-22-24(25)27-29(5,6)7/h15,18,23H,8-14,16-17,19-22H2,1-7H3/b18-15-
computed SMILES=O=C(O[Si](C)(C)C)CCCCCCCC=CCC(O[Si](C)(C)C)CCCCCC
accession=JP007462
date=2016.01.19 (Created 2008.10.21, modified 2011.05.06)
author=KOGA M, UNIV. OF OCCUPATIONAL AND ENVIRONMENTAL HEALTH
license=CC BY-NC-SA
exact mass=442.32985
ionization energy=70 eV
ion type=[M]+*
computed spectral entropy=2.4189703379724343
computed normalized entropy=0.6649932762429429
SPLASH=splash10-000i-8900000000-a530d57351ad4770c286
submitter=submitter = University of Tokyo Team (Faculty of Engineering, University of Tokyo)
MoNA Rating=3.75

>  <NUM PEAKS>  (2959) 
38

>  <MASS SPECTRAL PEAKS>  (2959) 
43 1.4
45 2.2
47 1.4
55 2.44
56 1.4
67 4.4
69 5.1
71 0.14
73 54
74 5.1
75 20
76 0.14
79 1.4
81 5.1
83 2.2
91 0.14
93 1.4
95 3.7
97 13.3
103 1.7
109 1.4
117 2.9
129 8.1
147 0.51
149 1.4
187 99.99
188 16.2
189 0.29
204 1.4
217 3.7
296 1.4
328 2.29
329 5.1
330 1.4
337 1.4
357 0.22
411 3.7
427 2.9

>  <PREDICTED SPECTRUM>  (2959) 
27 44
28 68
29 89
39 26
40 4
41 209
42 4
43 154
44 88
45 87
46 4
47 110
48 1
52 5
53 88
54 100
55 434
56 68
57 143
58 42
59 105
61 150
65 7
66 6
67 338
68 82
69 365
70 72
71 89
72 162
73 999
74 291
75 710
76 185
77 144
78 45
79 178
80 147
81 387
82 174
83 379
84 137
85 107
86 78
88 56
89 111
91 147
92 63
93 198
94 67
95 303
96 168
97 247
98 148
99 154
100 52
101 137
102 45
103 223
104 39
105 114
106 56
107 200
108 119
109 247
110 155
111 143
112 172
113 109
114 26
115 69
116 122
117 381
118 97
119 147
120 45
121 181
122 111
123 263
124 118
125 169
126 61
127 124
128 33
129 503
130 143
131 467
132 202
133 254
134 44
135 120
136 0
137 83
138 39
139 32
140 47
141 76
142 86
143 299
144 113
145 339
146 200
147 444
148 223
149 288
150 98
151 104
152 14
153 32
154 28
155 181
156 89
157 174
158 70
159 111
160 79
161 71
163 71
164 79
165 36
166 15
168 27
169 53
170 35
171 87
172 104
173 161
174 43
175 65
176 18
177 65
178 72
179 93
180 99
181 39
182 10
183 14
184 10
185 105
186 34
187 121
188 58
189 54
191 73
192 48
193 65
194 42
195 31
196 11
197 16
198 1
199 136
200 7
201 91
202 7
203 39
204 155
205 24
206 16
207 36
208 46
209 22
210 2
211 103
212 71
213 53
214 38
215 198
216 98
217 365
218 129
219 163
220 131
221 149
222 32
223 7
225 76
226 35
227 67
228 11
229 49
230 21
231 119
232 4
233 33
234 69
235 18
236 48
239 25
240 10
243 1
244 29
245 124
246 59
247 65
248 13
250 7
253 27
254 82
255 24
256 52
257 131
258 37
259 20
262 52
263 69
264 35
267 14
268 23
273 57
274 22
275 22
281 118
282 63
285 1
288 46
295 57
302 32
303 93
309 9
310 29
311 34
313 59
314 17
316 4
317 406
318 196
319 70
320 4
323 83
328 26
329 176
330 121
331 19
337 217
338 81
341 84
342 87
343 151
344 84
345 35
352 139
353 49
354 4
355 9
357 69
371 51
373 1
386 21
398 74
399 35
411 121
412 53
413 58
414 1
415 41
427 160
428 162
429 90
430 15
442 122
443 62

$$$$

     RDKit          2D

 17 17  0  0  0  0  0  0  0  0999 V2000
    7.3970   -1.4714    0.0000 C   0  0  0  0  0  0  0  0  0  0  0  0
   -3.5450    2.0692    0.0000 C   0  0  0  0  0  0  0  0  0  0  0  0
   -5.5967    1.5303    0.0000 C   0  0  0  0  0  0  0  0  0  0  0  0
   -5.0578   -0.5214    0.0000 C   0  0  0  0  0  0  0  0  0  0  0  0
    6.1042   -2.2321    0.0000 C   0  0  0  0  0  0  0  0  0  0  0  0
    0.8910    0.7547    0.0000 C   0  0  0  0  0  0  0  0  0  0  0  0
   -0.4225   -1.4701    0.0000 C   0  0  0  0  0  0  0  0  0  0  0  0
    2.1756    0.0299    0.0000 C   0  0  0  0  0  0  0  0  0  0  0  0
    0.9020   -2.2643    0.0000 C   0  0  0  0  0  0  0  0  0  0  0  0
    4.7990   -1.4928    0.0000 C   0  0  0  0  0  0  0  0  0  0  0  0
   -0.4080    0.0047    0.0000 C   0  0  0  0  0  0  0  0  0  0  0  0
    2.2010   -1.5143    0.0000 C   0  0  0  0  0  0  0  0  0  0  0  0
   -1.7033    0.7611    0.0000 C   0  0  0  0  0  0  0  0  0  0  0  0
   -1.6959    2.2611    0.0000 O   0  0  0  0  0  0  0  0  0  0  0  0
    3.5062   -2.2535    0.0000 O   0  0  0  0  0  0  0  0  0  0  0  0
   -3.0060    0.0175    0.0000 O   0  0  0  0  0  0  0  0  0  0  0  0
   -4.3014    0.7739    0.0000 Si  0  0  0  0  0  4  0  0  0  0  0  0
  5  1  1  0
  8  6  2  0
  9  7  1  0
 10  5  1  0
 11  6  1  0
 11  7  2  0
 12  8  1  0
 12  9  2  0
 13 11  1  0
 14 13  2  0
 15 10  1  0
 15 12  1  0
 16 13  1  0
 17  2  1  0
 17  3  1  0
 17  4  1  0
 17 16  1  0
M  END
>  <NAME>  (2960) 
4-PROPOXYBENZOIC ACID TRIMETHYLSILYL ESTER

>  <SYNONYMS>  (2960) 


>  <SPECTRUM TYPE>  (2960) 
MS1

>  <INSTRUMENT TYPE>  (2960) 
EI-B

>  <INSTRUMENT>  (2960) 
JEOL JMS-01-SG

>  <ION MODE>  (2960) 
P

>  <INCHIKEY>  (2960) 
KDBNKAABHTUJBG-UHFFFAOYSA-N

>  <FORMULA>  (2960) 
C13H20O3Si

>  <EXACT MASS>  (2960) 
252.11817102999998

>  <MW>  (2960) 
252

>  <ID>  (2960) 
JP007461

>  <CONTRIBUTOR>  (2960) 
University of Tokyo Team, {Faculty of Engineering, University of Tokyo

>  <COMMENT>  (2960) 
SMILES=CCCOc(c1)ccc(c1)C(=O)O[Si](C)(C)C
InChI=InChI=1S/C13H20O3Si/c1-5-10-15-12-8-6-11(7-9-12)13(14)16-17(2,3)4/h6-9H,5,10H2,1-4H3
computed SMILES=O=C(O[Si](C)(C)C)C1=CC=C(OCCC)C=C1
accession=JP007461
date=2016.01.19 (Created 2008.10.21, modified 2011.05.06)
author=KOGA M, UNIV. OF OCCUPATIONAL AND ENVIRONMENTAL HEALTH
license=CC BY-NC-SA
exact mass=252.11817
ionization energy=70 eV
ion type=[M]+*
computed spectral entropy=2.664834462880485
computed normalized entropy=0.7495284334451708
SPLASH=splash10-000j-4980000000-ce5dcb9aafb4267d61f1
submitter=submitter = University of Tokyo Team (Faculty of Engineering, University of Tokyo)
MoNA Rating=3.75

>  <NUM PEAKS>  (2960) 
35

>  <MASS SPECTRAL PEAKS>  (2960) 
43 8.3
45 3.3
47 2.5
50 0.13
63 2.5
64 7.1
65 12.2
73 0.81
75 14.5
76 4.4
77 2.7
89 0.13
92 8.1
93 14.5
103 1.3
104 0.22
120 1.6
121 45.5
122 6.7
151 2.06
163 23.4
164 2.5
166 1.6
193 4.24
194 9.4
195 71.7
196 10
197 0.3
237 99.99
238 18.4
239 6.1
251 0.16
252 35.7
253 5.5
254 1.6

>  <PREDICTED SPECTRUM>  (2960) 
15 32
26 17
27 123
28 67
29 134
31 6
38 70
39 154
40 35
41 173
42 40
43 296
44 95
45 204
46 24
47 159
50 72
51 88
52 19
53 45
54 4
55 120
56 1
57 54
58 52
59 139
60 58
61 110
62 36
63 181
64 217
65 274
66 54
73 388
74 134
75 393
76 190
77 269
78 80
79 82
80 17
81 22
82 44
85 0
89 112
90 95
91 271
92 366
93 160
94 30
95 67
96 31
103 125
104 74
105 87
106 10
107 108
108 68
110 40
115 3
117 97
119 86
120 293
121 411
122 203
123 90
124 22
125 96
126 4
133 6
134 13
135 205
136 29
137 11
138 37
139 40
140 60
141 31
149 46
150 26
151 212
152 54
153 72
162 3
163 404
164 130
165 144
166 94
167 88
177 104
178 49
179 105
180 12
181 58
193 497
194 287
195 810
196 320
197 54
210 105
211 5
223 111
235 2
236 28
237 999
238 412
239 246
240 68
252 614
253 255
254 134
255 44

$$$$

     RDKit          2D

 13 13  0  0  0  0  0  0  0  0999 V2000
    5.5772   -0.0083    0.0000 C   0  0  0  0  0  0  0  0  0  0  0  0
    6.1259    2.0408    0.0000 C   0  0  0  0  0  0  0  0  0  0  0  0
    4.0768    2.5895    0.0000 C   0  0  0  0  0  0  0  0  0  0  0  0
   -0.3700   -1.7100    0.0000 C   0  0  0  0  0  0  0  0  0  0  0  0
   -1.6700   -0.9600    0.0000 C   0  0  0  0  0  0  0  0  0  0  0  0
    0.9300   -0.9600    0.0000 C   0  0  0  0  0  0  0  0  0  0  0  0
   -1.6700    0.5400    0.0000 C   0  0  0  0  0  0  0  0  0  0  0  0
    0.9300    0.5400    0.0000 C   0  0  0  0  0  0  0  0  0  0  0  0
    2.2289    1.2902    0.0000 C   0  0  0  0  0  0  0  0  0  0  0  0
   -0.3700    1.2900    0.0000 N   0  0  0  0  0  0  0  0  0  0  0  0
    2.2287    2.7902    0.0000 O   0  0  0  0  0  0  0  0  0  0  0  0
    3.5281    0.5404    0.0000 O   0  0  0  0  0  0  0  0  0  0  0  0
    4.8270    1.2906    0.0000 Si  0  0  0  0  0  4  0  0  0  0  0  0
  5  4  2  0
  6  4  1  0
  7  5  1  0
  8  6  2  0
  9  8  1  0
 10  7  2  0
 10  8  1  0
 11  9  2  0
 12  9  1  0
 13  1  1  0
 13  2  1  0
 13  3  1  0
 13 12  1  0
M  END
>  <NAME>  (2961) 
PYRIDINE-ALPHA-CARBOXYLIC ACID TRIMETHYLSILYL ESTER

>  <SYNONYMS>  (2961) 
PICOLINIC ACID TRIMETHYLSILYL ESTER

>  <SPECTRUM TYPE>  (2961) 
MS1

>  <INSTRUMENT TYPE>  (2961) 
EI-B

>  <INSTRUMENT>  (2961) 
JEOL JMS-01-SG

>  <ION MODE>  (2961) 
P

>  <INCHIKEY>  (2961) 
MKGLHHAHWDNTEJ-UHFFFAOYSA-N

>  <FORMULA>  (2961) 
C9H13NO2Si

>  <EXACT MASS>  (2961) 
195.071555186

>  <MW>  (2961) 
195

>  <ID>  (2961) 
JP007460

>  <CONTRIBUTOR>  (2961) 
University of Tokyo Team, {Faculty of Engineering, University of Tokyo

>  <COMMENT>  (2961) 
SMILES=O=C(O[Si](C)(C)C)c(c1)nccc1
InChI=InChI=1S/C9H13NO2Si/c1-13(2,3)12-9(11)8-6-4-5-7-10-8/h4-7H,1-3H3
computed SMILES=O=C(O[Si](C)(C)C)C1=NC=CC=C1
accession=JP007460
date=2016.01.19 (Created 2008.10.21, modified 2011.05.06)
author=KOGA M, UNIV. OF OCCUPATIONAL AND ENVIRONMENTAL HEALTH
license=CC BY-NC-SA
exact mass=195.07156
ionization energy=70 eV
ion type=[M]+*
computed spectral entropy=2.246535945596149
computed normalized entropy=0.6049528338869393
SPLASH=splash10-001i-3900000000-a71e81bd13bf02d92acc
submitter=submitter = University of Tokyo Team (Faculty of Engineering, University of Tokyo)
MoNA Rating=3.75

>  <NUM PEAKS>  (2961) 
41

>  <MASS SPECTRAL PEAKS>  (2961) 
43 3.8
44 3.2
45 2.2
47 0.12
49 0.6
50 1.2
51 6.8
52 0.16
55 1.6
58 0.9
59 1.6
61 0.06
68 4.2
69 1.2
72 3.8
73 1.13
74 0.9
77 2.5
78 28.5
79 0.22
83 0.6
84 0.6
92 0.9
93 0.32
95 0.6
106 5.1
108 0.6
122 0.09
136 22.4
137 2.9
138 0.6
150 0.58
151 3.2
152 5.1
166 0.6
167 0.9
168 1.9
180 99.99
181 14.2
182 0.35
195 0.9

>  <PREDICTED SPECTRUM>  (2961) 
15 6
25 4
26 70
27 107
28 65
29 69
31 91
37 55
38 94
39 133
40 76
41 112
42 109
43 233
44 132
45 316
46 54
47 147
48 28
49 108
50 255
51 412
52 287
53 185
54 105
55 134
56 33
57 40
58 103
59 195
60 99
61 170
62 41
63 55
64 52
65 85
66 138
67 95
68 48
69 0
70 6
72 92
73 385
74 132
75 372
76 208
77 233
78 684
79 332
80 135
81 70
82 60
83 31
84 56
89 73
91 37
92 83
93 167
94 189
95 111
96 41
98 34
99 54
104 7
106 519
107 151
108 215
109 150
110 12
111 17
117 63
118 21
119 51
120 97
121 7
122 126
123 101
124 105
125 44
126 1
134 79
135 78
136 463
137 172
138 28
150 173
151 254
152 257
153 139
154 40
163 47
166 6
167 71
168 1
178 52
179 27
180 999
181 403
182 215
183 68
194 113
195 201
196 62

$$$$

     RDKit          2D

 17 17  0  0  0  0  0  0  0  0999 V2000
    2.4976   -1.6740    0.0000 C   0  0  0  0  0  0  0  0  0  0  0  0
    4.5466   -1.1250    0.0000 C   0  0  0  0  0  0  0  0  0  0  0  0
    3.9976    0.9240    0.0000 C   0  0  0  0  0  0  0  0  0  0  0  0
   -3.7966    3.9240    0.0000 C   0  0  0  0  0  0  0  0  0  0  0  0
   -5.8457    3.3750    0.0000 C   0  0  0  0  0  0  0  0  0  0  0  0
   -5.2966    1.3260    0.0000 C   0  0  0  0  0  0  0  0  0  0  0  0
   -0.6500    0.3742    0.0000 C   0  0  0  0  0  0  0  0  0  0  0  0
    0.6500    2.6258    0.0000 C   0  0  0  0  0  0  0  0  0  0  0  0
    0.6490   -0.3758    0.0000 C   0  0  0  0  0  0  0  0  0  0  0  0
    1.9490    1.8758    0.0000 C   0  0  0  0  0  0  0  0  0  0  0  0
   -0.6495    1.8750    0.0000 C   0  0  0  0  0  0  0  0  0  0  0  0
   -1.9486    2.6250    0.0000 C   0  0  0  0  0  0  0  0  0  0  0  0
    1.9486    0.3750    0.0000 N   0  0  0  0  0  0  0  0  0  0  0  0
   -1.9486    4.1250    0.0000 O   0  0  0  0  0  0  0  0  0  0  0  0
   -3.2476    1.8750    0.0000 O   0  0  0  0  0  0  0  0  0  0  0  0
    3.2476   -0.3750    0.0000 Si  0  0  0  0  0  4  0  0  0  0  0  0
   -4.5466    2.6250    0.0000 Si  0  0  0  0  0  4  0  0  0  0  0  0
  9  7  1  0
 10  8  1  0
 11  7  1  0
 11  8  1  0
 12 11  1  0
 13  9  1  0
 13 10  1  0
 14 12  2  0
 15 12  1  0
 16  1  1  0
 16  2  1  0
 16  3  1  0
 16 13  1  0
 17  4  1  0
 17  5  1  0
 17  6  1  0
 17 15  1  0
M  END
>  <NAME>  (2962) 
N-TRIMETHYLSILYLPIPERIDINE-4-CARBOXYLIC ACID TRIMETHYLSILYL ESTER

>  <SYNONYMS>  (2962) 
N-TRIMETHYLSILYLISONIPECOTIC ACID TRIMETHYLSILYL ESTER

>  <SPECTRUM TYPE>  (2962) 
MS1

>  <INSTRUMENT TYPE>  (2962) 
EI-B

>  <INSTRUMENT>  (2962) 
JEOL JMS-01-SG

>  <ION MODE>  (2962) 
P

>  <INCHIKEY>  (2962) 
MXZYZEAYOWHFPB-UHFFFAOYSA-N

>  <FORMULA>  (2962) 
C12H27NO2Si2

>  <EXACT MASS>  (2962) 
273.15803216399996

>  <MW>  (2962) 
273

>  <ID>  (2962) 
JP007459

>  <CONTRIBUTOR>  (2962) 
University of Tokyo Team, {Faculty of Engineering, University of Tokyo

>  <COMMENT>  (2962) 
SMILES=O=C(O[Si](C)(C)C)C(C1)CCN(C1)[Si](C)(C)C
InChI=InChI=1S/C12H27NO2Si2/c1-16(2,3)13-9-7-11(8-10-13)12(14)15-17(4,5)6/h11H,7-10H2,1-6H3
computed SMILES=O=C(O[Si](C)(C)C)C1CCN(CC1)[Si](C)(C)C
accession=JP007459
date=2016.01.19 (Created 2008.10.21, modified 2011.05.06)
author=KOGA M, UNIV. OF OCCUPATIONAL AND ENVIRONMENTAL HEALTH
license=CC BY-NC-SA
exact mass=273.15803
ionization energy=70 eV
ion type=[M]+*
computed spectral entropy=3.162972296419687
computed normalized entropy=0.7966598842828798
SPLASH=splash10-0adi-5950000000-c8c60fbcab36380df21b
submitter=submitter = University of Tokyo Team (Faculty of Engineering, University of Tokyo)
MoNA Rating=3.75

>  <NUM PEAKS>  (2962) 
53

>  <MASS SPECTRAL PEAKS>  (2962) 
43 4.4
45 18.7
47 3.5
55 0.8
57 4.4
58 3.5
59 16.9
68 0.35
69 3.5
71 3.5
73 85.7
74 1.25
75 9.8
77 2.6
82 22.3
83 0.8
86 5.3
100 4.4
101 4.4
102 1.25
114 9.8
115 22.3
116 12.5
117 0.35
119 3.5
121 9.8
128 99.99
129 2.76
130 8.9
131 3.5
133 7.1
147 5.71
148 6.2
149 7.1
154 17.8
155 0.8
156 49.1
157 8
158 7.1
168 0.35
184 16
185 2.6
200 30.3
201 0.98
230 12.5
245 5.3
258 93.7
259 2.14
260 8
262 4.4
272 14.2
273 2.58
274 7.1

>  <PREDICTED SPECTRUM>  (2962) 
15 10
18 5
26 9
27 64
28 48
29 61
30 45
31 22
39 61
40 12
41 175
42 124
43 209
44 182
45 300
46 68
47 156
51 18
52 37
53 112
54 91
55 212
56 119
57 90
58 106
59 349
60 90
61 83
65 56
66 37
67 113
68 102
69 104
70 101
71 53
72 115
73 926
74 226
75 428
76 70
77 207
78 18
81 83
82 177
83 112
84 136
85 117
86 128
87 11
88 60
89 37
91 100
92 6
96 56
97 20
98 91
99 83
100 166
101 103
102 173
103 54
104 18
105 67
106 37
110 4
111 17
112 79
113 65
114 157
115 129
116 24
117 66
119 27
124 82
126 65
127 52
128 153
129 130
130 26
131 84
133 110
135 27
138 16
140 312
141 139
142 129
143 6
144 33
147 519
148 262
149 209
150 55
154 121
155 205
156 999
157 373
158 193
159 81
160 24
162 14
168 150
169 55
170 61
171 44
172 4
174 15
176 4
182 38
183 95
184 212
186 204
187 54
188 47
201 20
214 73
216 60
229 7
230 161
231 81
232 55
244 4
256 21
258 633
259 282
260 181
261 53
272 112
273 365
274 163
275 44
276 4

$$$$

     RDKit          2D

 17 17  0  0  0  0  0  0  0  0999 V2000
   -4.8583    1.6104    0.0000 C   0  0  0  0  0  0  0  0  0  0  0  0
   -6.9074    1.0614    0.0000 C   0  0  0  0  0  0  0  0  0  0  0  0
   -6.3583   -0.9877    0.0000 C   0  0  0  0  0  0  0  0  0  0  0  0
    2.9363   -0.9876    0.0000 C   0  0  0  0  0  0  0  0  0  0  0  0
    3.4857    1.0614    0.0000 C   0  0  0  0  0  0  0  0  0  0  0  0
    1.4367    1.6107    0.0000 C   0  0  0  0  0  0  0  0  0  0  0  0
   -3.0107   -2.6895    0.0000 C   0  0  0  0  0  0  0  0  0  0  0  0
   -1.7112   -1.9386    0.0000 C   0  0  0  0  0  0  0  0  0  0  0  0
   -4.3098   -1.9395    0.0000 C   0  0  0  0  0  0  0  0  0  0  0  0
   -3.0098    0.3122    0.0000 C   0  0  0  0  0  0  0  0  0  0  0  0
   -1.7107   -0.4378    0.0000 C   0  0  0  0  0  0  0  0  0  0  0  0
   -0.4116    0.3120    0.0000 C   0  0  0  0  0  0  0  0  0  0  0  0
   -4.3093   -0.4386    0.0000 N   0  0  0  0  0  0  0  0  0  0  0  0
   -0.4113    1.8120    0.0000 O   0  0  0  0  0  0  0  0  0  0  0  0
    0.8873   -0.4382    0.0000 O   0  0  0  0  0  0  0  0  0  0  0  0
   -5.6083    0.3114    0.0000 Si  0  0  0  0  0  4  0  0  0  0  0  0
    2.1865    0.3116    0.0000 Si  0  0  0  0  0  4  0  0  0  0  0  0
  8  7  1  0
  9  7  1  0
 11  8  1  0
 11 10  1  0
 12 11  1  0
 13  9  1  0
 13 10  1  0
 14 12  2  0
 15 12  1  0
 16  1  1  0
 16  2  1  0
 16  3  1  0
 16 13  1  0
 17  4  1  0
 17  5  1  0
 17  6  1  0
 17 15  1  0
M  END
>  <NAME>  (2963) 
N-TRIMETHYLSILYLPIPERIDINE-3-CARBOXYLIC ACID TRIMETHYLSILYL ESTER

>  <SYNONYMS>  (2963) 
N-TRIMETHYLSILYLNIPECOTIC ACID TRIMETHYLSILYL ESTER

>  <SPECTRUM TYPE>  (2963) 
MS1

>  <INSTRUMENT TYPE>  (2963) 
EI-B

>  <INSTRUMENT>  (2963) 
JEOL JMS-01-SG

>  <ION MODE>  (2963) 
P

>  <INCHIKEY>  (2963) 
WCOKGOUKDLOCER-UHFFFAOYSA-N

>  <FORMULA>  (2963) 
C12H27NO2Si2

>  <EXACT MASS>  (2963) 
273.15803216399996

>  <MW>  (2963) 
273

>  <ID>  (2963) 
JP007458

>  <CONTRIBUTOR>  (2963) 
University of Tokyo Team, {Faculty of Engineering, University of Tokyo

>  <COMMENT>  (2963) 
SMILES=O=C(O[Si](C)(C)C)C(C1)CN(CC1)[Si](C)(C)C
InChI=InChI=1S/C12H27NO2Si2/c1-16(2,3)13-9-7-8-11(10-13)12(14)15-17(4,5)6/h11H,7-10H2,1-6H3
computed SMILES=O=C(O[Si](C)(C)C)C1CN(CCC1)[Si](C)(C)C
accession=JP007458
date=2016.01.19 (Created 2008.10.21, modified 2011.05.06)
author=KOGA M, UNIV. OF OCCUPATIONAL AND ENVIRONMENTAL HEALTH
license=CC BY-NC-SA
exact mass=273.15803
ionization energy=70 eV
ion type=[M]+*
computed spectral entropy=3.6162771849096735
computed normalized entropy=0.8036511430147346
SPLASH=splash10-0ac0-9870000000-5cd1bc66e944b043ab6f
submitter=submitter = University of Tokyo Team (Faculty of Engineering, University of Tokyo)
MoNA Rating=3.75

>  <NUM PEAKS>  (2963) 
90

>  <MASS SPECTRAL PEAKS>  (2963) 
42 2.1
43 2.8
44 2.8
45 2.15
47 5
51 4.3
55 15.8
56 1.07
57 23
58 2.8
59 15.1
61 0.28
66 4.3
67 2.1
68 2.8
72 0.28
73 99.99
74 8.6
75 19.4
76 0.21
77 2.8
78 7.1
79 2.1
80 0.21
81 2.8
82 12.9
83 15.1
84 3.45
85 5
86 14.3
87 2.1
93 0.14
94 2.1
99 1.4
100 8.6
101 1.43
102 10
103 2.1
106 5.7
108 0.57
110 5.7
112 1.4
114 5
115 1.15
116 34.5
117 4.3
121 2.8
128 5.32
129 25.8
130 4.3
131 13.6
133 0.64
135 2.8
136 7.1
140 3.5
142 0.57
143 5
145 3.5
147 61.1
148 0.79
149 5
154 9.3
155 11.5
156 3.95
157 6.4
158 2.1
168 2.1
180 1.51
181 2.1
182 2.8
184 5
186 0.86
190 6.4
200 12.9
201 6.4
217 0.28
230 80.5
231 14.3
232 7.1
244 0.57
245 3.5
258 77.6
259 16.5
260 0.79
261 1.4
262 1.4
272 12.2
273 1.72
274 5
275 1.4

>  <PREDICTED SPECTRUM>  (2963) 
15 12
18 20
27 53
28 59
29 47
30 4
31 9
39 62
40 18
41 134
42 70
43 98
44 95
45 311
46 96
47 161
48 23
49 6
51 36
52 56
53 113
54 33
55 208
56 91
57 79
58 103
59 251
60 75
61 111
62 7
64 1
65 55
66 82
67 117
68 74
69 36
70 53
71 23
72 106
73 999
74 283
75 438
76 65
77 203
78 43
79 63
80 39
81 69
82 111
83 99
84 150
85 99
86 131
87 12
88 17
89 37
90 42
91 88
92 19
93 1
94 54
95 29
96 44
98 30
99 53
100 91
101 94
102 144
103 101
104 38
105 24
107 33
109 12
110 46
111 26
112 67
113 5
114 118
115 77
116 66
117 59
118 3
119 45
124 4
126 37
127 60
128 246
129 390
130 158
131 142
132 40
133 75
138 25
140 132
141 3
142 59
143 23
145 14
147 433
148 227
149 171
154 48
155 162
156 813
157 299
158 144
159 50
162 81
168 65
170 9
171 3
176 27
183 41
184 51
186 87
187 28
201 58
218 35
219 19
228 53
229 31
230 162
231 56
232 26
244 26
245 32
258 346
259 165
260 89
261 19
272 32
273 193
274 101
275 14

$$$$

     RDKit          2D

 18 18  0  0  0  0  0  0  0  0999 V2000
    4.5589    1.1761    0.0000 C   0  0  0  0  0  0  0  0  0  0  0  0
    5.1082    3.2250    0.0000 C   0  0  0  0  0  0  0  0  0  0  0  0
    3.0593    3.7744    0.0000 C   0  0  0  0  0  0  0  0  0  0  0  0
   -1.9368    1.5240    0.0000 C   0  0  0  0  0  0  0  0  0  0  0  0
   -3.9857    0.9746    0.0000 C   0  0  0  0  0  0  0  0  0  0  0  0
   -3.4364   -1.0743    0.0000 C   0  0  0  0  0  0  0  0  0  0  0  0
    2.5106   -2.7762    0.0000 C   0  0  0  0  0  0  0  0  0  0  0  0
    3.8097   -2.0262    0.0000 C   0  0  0  0  0  0  0  0  0  0  0  0
    1.2111   -2.0254    0.0000 C   0  0  0  0  0  0  0  0  0  0  0  0
    3.8092   -0.5254    0.0000 C   0  0  0  0  0  0  0  0  0  0  0  0
    1.2106   -0.5246    0.0000 C   0  0  0  0  0  0  0  0  0  0  0  0
    2.5097    0.2254    0.0000 C   0  0  0  0  0  0  0  0  0  0  0  0
   -0.0885    0.2252    0.0000 C   0  0  0  0  0  0  0  0  0  0  0  0
   -0.0888    1.7252    0.0000 O   0  0  0  0  0  0  0  0  0  0  0  0
    2.5099    1.7254    0.0000 O   0  0  0  0  0  0  0  0  0  0  0  0
   -1.3874   -0.5250    0.0000 O   0  0  0  0  0  0  0  0  0  0  0  0
    3.8091    2.4752    0.0000 Si  0  0  0  0  0  4  0  0  0  0  0  0
   -2.6866    0.2248    0.0000 Si  0  0  0  0  0  4  0  0  0  0  0  0
  8  7  2  0
  9  7  1  0
 10  8  1  0
 11  9  2  0
 12 10  2  0
 12 11  1  0
 13 11  1  0
 14 13  2  0
 15 12  1  0
 16 13  1  0
 17  1  1  0
 17  2  1  0
 17  3  1  0
 17 15  1  0
 18  4  1  0
 18  5  1  0
 18  6  1  0
 18 16  1  0
M  END
>  <NAME>  (2964) 
2-TRIMETHYLSILOXYBENZOIC ACID TRIMETHYLSILYL ESTER

>  <SYNONYMS>  (2964) 


>  <SPECTRUM TYPE>  (2964) 
MS1

>  <INSTRUMENT TYPE>  (2964) 
EI-B

>  <INSTRUMENT>  (2964) 
JEOL JMS-01-SG

>  <ION MODE>  (2964) 
P

>  <INCHIKEY>  (2964) 
BNAGIDDOEKUJRZ-UHFFFAOYSA-N

>  <FORMULA>  (2964) 
C13H22O3Si2

>  <EXACT MASS>  (2964) 
282.110747624

>  <MW>  (2964) 
282

>  <ID>  (2964) 
JP007457

>  <CONTRIBUTOR>  (2964) 
University of Tokyo Team, {Faculty of Engineering, University of Tokyo

>  <COMMENT>  (2964) 
SMILES=C[Si](C)(C)OC(=O)c(c1)c(ccc1)O[Si](C)(C)C
cas=3789-85-3
InChI=InChI=1S/C13H22O3Si2/c1-17(2,3)15-12-10-8-7-9-11(12)13(14)16-18(4,5)6/h7-10H,1-6H3
computed SMILES=O=C(O[Si](C)(C)C)C=1C=CC=CC1O[Si](C)(C)C
accession=JP007457
date=2016.01.19 (Created 2008.10.21, modified 2011.05.06)
author=KOGA M, UNIV. OF OCCUPATIONAL AND ENVIRONMENTAL HEALTH
license=CC BY-NC-SA
exact mass=282.11075
ionization energy=70 eV
ion type=[M]+*
computed spectral entropy=2.7634954606697972
computed normalized entropy=0.7711680915129742
SPLASH=splash10-014i-2490000000-b5d0f02c56c5715beb47
submitter=submitter = University of Tokyo Team (Faculty of Engineering, University of Tokyo)
MoNA Rating=3.75

>  <NUM PEAKS>  (2964) 
36

>  <MASS SPECTRAL PEAKS>  (2964) 
45 15.9
47 3
59 2.4
73 3.44
74 10.8
75 6.9
91 10.6
103 0.22
105 1.8
118 2.2
126 4.8
131 0.18
133 8.1
135 12.8
137 2.2
145 0.36
147 9.7
149 16.1
150 3.6
151 0.38
152 3.8
159 3.6
165 3.6
175 0.4
179 3.2
191 3.6
193 12
194 0.36
209 19.5
210 4.8
211 3.4
233 0.4
249 8.5
267 99.99
268 25.1
269 10.6

>  <PREDICTED SPECTRUM>  (2964) 
15 27
27 23
29 76
31 4
38 15
39 49
41 44
42 8
43 207
44 112
45 377
46 81
47 165
49 22
50 52
51 74
52 23
53 65
55 85
56 15
57 74
58 34
59 108
60 35
61 103
62 5
63 67
64 55
65 94
66 64
67 33
69 41
70 12
71 76
72 51
73 720
74 242
75 304
76 111
77 166
78 76
79 37
81 42
83 62
84 11
85 65
89 44
90 40
91 187
92 164
93 109
94 5
95 53
97 47
99 54
101 3
103 62
104 38
105 123
106 80
107 72
109 56
110 0
111 40
115 63
116 6
117 82
118 33
119 164
120 218
121 78
123 29
131 84
133 124
134 48
135 345
136 141
137 13
139 10
141 7
143 9
145 47
147 459
148 185
149 278
150 82
151 138
152 43
153 36
161 10
162 7
163 85
164 49
165 89
177 53
178 5
179 60
180 50
181 28
191 31
192 22
193 339
194 127
195 94
196 41
207 11
208 8
209 125
210 76
221 84
222 18
223 71
233 19
237 40
249 57
251 52
252 9
265 26
267 999
268 508
269 306
270 82
271 3
282 59
283 1

$$$$

     RDKit          2D

 29 28  0  0  0  0  0  0  0  0999 V2000
   11.1515    3.8003    0.0000 C   0  0  0  0  0  0  0  0  0  0  0  0
    8.5534    5.3003    0.0000 C   0  0  0  0  0  0  0  0  0  0  0  0
   10.6025    5.8494    0.0000 C   0  0  0  0  0  0  0  0  0  0  0  0
    0.3725    6.8817    0.0000 C   0  0  0  0  0  0  0  0  0  0  0  0
   -1.1275    5.3817    0.0000 C   0  0  0  0  0  0  0  0  0  0  0  0
    0.3725    3.8817    0.0000 C   0  0  0  0  0  0  0  0  0  0  0  0
    1.7599    0.8585    0.0000 C   0  0  0  0  0  0  0  0  0  0  0  0
    0.8634   -1.0640    0.0000 C   0  0  0  0  0  0  0  0  0  0  0  0
    2.7860   -1.9605    0.0000 C   0  0  0  0  0  0  0  0  0  0  0  0
    6.5095   -1.4475    0.0000 C   0  0  0  0  0  0  0  0  0  0  0  0
    8.4320   -0.5510    0.0000 C   0  0  0  0  0  0  0  0  0  0  0  0
    7.5355    1.3716    0.0000 C   0  0  0  0  0  0  0  0  0  0  0  0
    6.8525    1.9523    0.0000 C   0  0  0  0  0  0  0  0  0  0  0  0
    4.1225    4.0827    0.0000 C   0  0  0  0  0  0  0  0  0  0  0  0
    7.6025    3.2513    0.0000 C   0  0  0  0  0  0  0  0  0  0  0  0
    2.6225    4.0827    0.0000 C   0  0  0  0  0  0  0  0  0  0  0  0
    3.9429    1.4392    0.0000 C   0  0  0  0  0  0  0  0  0  0  0  0
    5.3525    1.9523    0.0000 C   0  0  0  0  0  0  0  0  0  0  0  0
    6.8525    4.5503    0.0000 O   0  0  0  0  0  0  0  0  0  0  0  0
    1.8725    2.7836    0.0000 O   0  0  0  0  0  0  0  0  0  0  0  0
    2.7939    2.4034    0.0000 O   0  0  0  0  0  0  0  0  0  0  0  0
    9.1025    3.2513    0.0000 O   0  0  0  0  0  0  0  0  0  0  0  0
    1.8725    5.3817    0.0000 O   0  0  0  0  0  0  0  0  0  0  0  0
    3.6825   -0.0380    0.0000 O   0  0  0  0  0  0  0  0  0  0  0  0
    5.6130    0.4751    0.0000 O   0  0  0  0  0  0  0  0  0  0  0  0
    9.8525    4.5503    0.0000 Si  0  0  0  0  0  4  0  0  0  0  0  0
    0.3725    5.3817    0.0000 Si  0  0  0  0  0  4  0  0  0  0  0  0
    2.2729   -0.5510    0.0000 Si  0  0  0  0  0  4  0  0  0  0  0  0
    7.0225   -0.0380    0.0000 Si  0  0  0  0  0  4  0  0  0  0  0  0
 15 13  1  0
 16 14  1  0
 18 13  1  0
 18 14  1  0
 18 17  1  0
 19 15  2  0
 20 16  2  0
 21 17  2  0
 22 15  1  0
 23 16  1  0
 24 17  1  0
 25 18  1  0
 26  1  1  0
 26  2  1  0
 26  3  1  0
 26 22  1  0
 27  4  1  0
 27  5  1  0
 27  6  1  0
 27 23  1  0
 28  7  1  0
 28  8  1  0
 28  9  1  0
 28 24  1  0
 29 10  1  0
 29 11  1  0
 29 12  1  0
 29 25  1  0
M  END
>  <NAME>  (2965) 
2-TRIMETHYLSILOXY-1,2,3-PROPANETRICARBOXYLIC ACID TRIS(TRIMETHYLSILYL) ESTER

>  <SYNONYMS>  (2965) 


>  <SPECTRUM TYPE>  (2965) 
MS1

>  <INSTRUMENT TYPE>  (2965) 
EI-B

>  <INSTRUMENT>  (2965) 
JEOL JMS-01-SG

>  <ION MODE>  (2965) 
P

>  <INCHIKEY>  (2965) 
VFGAVMGYDWDESE-UHFFFAOYSA-N

>  <FORMULA>  (2965) 
C18H40O7Si4

>  <EXACT MASS>  (2965) 
480.18510974

>  <MW>  (2965) 
480

>  <ID>  (2965) 
JP007456

>  <CONTRIBUTOR>  (2965) 
University of Tokyo Team, {Faculty of Engineering, University of Tokyo

>  <COMMENT>  (2965) 
SMILES=C[Si](C)(C)OC(=O)CC(CC(=O)O[Si](C)(C)C)(O[Si](C)(C)C)C(=O)O[Si](C)(C)C
InChI=InChI=1S/C18H40O7Si4/c1-26(2,3)22-15(19)13-18(25-29(10,11)12,17(21)24-28(7,8)9)14-16(20)23-27(4,5)6/h13-14H2,1-12H3
computed SMILES=O=C(O[Si](C)(C)C)CC(O[Si](C)(C)C)(C(=O)O[Si](C)(C)C)CC(=O)O[Si](C)(C)C
accession=JP007456
date=2016.01.19 (Created 2008.10.21, modified 2011.05.06)
author=KOGA M, UNIV. OF OCCUPATIONAL AND ENVIRONMENTAL HEALTH
license=CC BY-NC-SA
exact mass=480.18511
ionization energy=70 eV
ion type=[M]+*
computed spectral entropy=2.7876566564218166
computed normalized entropy=0.7411614832165809
SPLASH=splash10-00di-9564100000-c875b36655365cad8ef3
submitter=submitter = University of Tokyo Team (Faculty of Engineering, University of Tokyo)
MoNA Rating=3.75

>  <NUM PEAKS>  (2965) 
43

>  <MASS SPECTRAL PEAKS>  (2965) 
42 2.7
43 2.2
44 7.8
51 0.22
57 2.7
67 4.4
72 2.2
73 99.99
74 7.8
75 11.1
77 1.6
115 0.33
117 1.6
129 6.7
131 2.2
133 0.44
147 53
148 7.8
149 7.8
183 0.44
211 7.8
217 2.2
221 3.9
231 0.33
257 3.3
273 67.5
274 14.5
275 0.61
305 5.5
319 1.6
347 16.2
348 0.44
349 2.2
363 20.6
364 5.5
365 0.22
375 18.4
376 5.5
377 2.2
384 0.5
465 14.5
466 5
467 2.2

>  <PREDICTED SPECTRUM>  (2965) 
41 59
43 216
44 153
45 242
46 32
47 72
53 20
54 44
55 130
57 60
58 13
59 148
61 92
66 62
67 59
68 25
69 88
70 14
71 15
72 121
73 999
74 299
75 438
76 90
77 103
81 13
82 44
83 5
85 18
86 29
89 25
91 83
93 50
95 12
97 73
98 6
99 35
101 5
103 67
109 47
111 105
113 14
115 69
116 90
117 80
118 8
123 40
124 32
125 29
129 109
130 60
131 114
132 19
133 247
134 78
135 70
137 14
141 3
143 123
144 10
145 38
147 631
148 293
149 341
150 107
155 74
156 11
157 115
158 53
159 83
160 53
161 41
171 10
173 93
174 67
175 109
177 21
183 186
184 62
185 50
187 39
188 2
189 57
190 80
191 51
195 29
198 17
199 49
201 147
203 13
204 76
205 30
206 38
207 25
211 91
212 0
213 30
215 46
217 139
218 78
219 77
221 83
223 19
228 40
229 117
230 51
231 230
232 92
233 42
235 9
237 1
244 24
245 206
246 100
247 123
248 92
249 33
257 97
259 159
260 54
261 71
263 12
271 21
272 56
273 454
274 249
275 147
276 31
277 11
301 164
302 28
303 150
304 58
305 126
307 87
308 16
310 14
315 66
318 53
319 168
320 130
321 69
322 15
331 117
332 29
333 194
334 88
335 88
336 55
337 48
338 16
345 120
346 109
347 392
348 205
349 140
350 90
363 786
364 391
365 242
366 74
375 384
376 217
377 164
378 11
390 101
391 110
392 24
393 33
395 9
421 71
437 219
438 20
439 21
449 72
465 507
466 62
467 13
468 72
469 12
478 28
480 43
481 1

$$$$

     RDKit          2D

 21 20  0  0  0  0  0  0  0  0999 V2000
    5.5209    7.6875    0.0000 C   0  0  0  0  0  0  0  0  0  0  0  0
  -13.9647    8.4375    0.0000 C   0  0  0  0  0  0  0  0  0  0  0  0
    1.6238    8.4375    0.0000 C   0  0  0  0  0  0  0  0  0  0  0  0
   -2.2733    7.6875    0.0000 C   0  0  0  0  0  0  0  0  0  0  0  0
   -6.1704    8.4375    0.0000 C   0  0  0  0  0  0  0  0  0  0  0  0
  -10.0675    7.6875    0.0000 C   0  0  0  0  0  0  0  0  0  0  0  0
    4.2219    8.4375    0.0000 C   0  0  0  0  0  0  0  0  0  0  0  0
    0.3248    7.6875    0.0000 C   0  0  0  0  0  0  0  0  0  0  0  0
   -3.5724    8.4375    0.0000 C   0  0  0  0  0  0  0  0  0  0  0  0
   -7.4695    7.6875    0.0000 C   0  0  0  0  0  0  0  0  0  0  0  0
  -11.3666    8.4375    0.0000 C   0  0  0  0  0  0  0  0  0  0  0  0
    2.9228    7.6875    0.0000 N   0  0  0  0  0  0  0  0  0  0  0  0
   -0.9743    8.4375    0.0000 N   0  0  0  0  0  0  0  0  0  0  0  0
   -4.8714    7.6875    0.0000 N   0  0  0  0  0  0  0  0  0  0  0  0
   -8.7685    8.4375    0.0000 N   0  0  0  0  0  0  0  0  0  0  0  0
    4.2219    9.9375    0.0000 O   0  0  0  0  0  0  0  0  0  0  0  0
    0.3248    6.1875    0.0000 O   0  0  0  0  0  0  0  0  0  0  0  0
   -3.5724    9.9375    0.0000 O   0  0  0  0  0  0  0  0  0  0  0  0
   -7.4695    6.1875    0.0000 O   0  0  0  0  0  0  0  0  0  0  0  0
  -11.3666    9.9375    0.0000 O   0  0  0  0  0  0  0  0  0  0  0  0
  -12.6656    7.6875    0.0000 O   0  0  0  0  0  0  0  0  0  0  0  0
  7  1  1  0
  8  3  1  0
  9  4  1  0
 10  5  1  0
 11  6  1  0
 12  3  1  0
 12  7  2  3
 13  4  1  0
 13  8  2  3
 14  5  1  0
 14  9  2  3
 15  6  1  0
 15 10  2  3
 16  7  1  0
 17  8  1  0
 18  9  1  0
 19 10  1  0
 20 11  2  0
 21  2  1  0
 21 11  1  0
M  END
>  <NAME>  (2966) 
N-ACETYLGLYCYLGLYCYLGLYCYLGLYCINE METHYL ESTER

>  <SYNONYMS>  (2966) 


>  <SPECTRUM TYPE>  (2966) 
MS1

>  <INSTRUMENT TYPE>  (2966) 
EI-B

>  <INSTRUMENT>  (2966) 
HITACHI RMU-6M

>  <ION MODE>  (2966) 
P

>  <INCHIKEY>  (2966) 
CHYHTJZWWCIMGM-UHFFFAOYSA-N

>  <FORMULA>  (2966) 
C11H18N4O6

>  <EXACT MASS>  (2966) 
302.122634296

>  <MW>  (2966) 
302

>  <ID>  (2966) 
JP007413

>  <CONTRIBUTOR>  (2966) 
University of Tokyo Team, {Faculty of Engineering, University of Tokyo

>  <COMMENT>  (2966) 
SMILES=COC(=O)CNC(=O)CNC(=O)CNC(=O)CNC(C)=O
InChI=InChI=1S/C11H18N4O6/c1-7(16)12-3-8(17)13-4-9(18)14-5-10(19)15-6-11(20)21-2/h3-6H2,1-2H3,(H,12,16)(H,13,17)(H,14,18)(H,15,19)
computed SMILES=O=C(OC)CN=C(O)CN=C(O)CN=C(O)CN=C(O)C
accession=JP007413
date=2016.01.19 (Created 2008.10.21, modified 2011.05.06)
author=YAMAMOTO M, DEP. CHEMISTRY, FAC. SCIENCE, NARA WOMEN'S UNIV.
license=CC BY-NC-SA
exact mass=302.12263
ionization energy=70 eV
ion type=[M]+*
computed spectral entropy=3.0791965447946654
computed normalized entropy=0.7551608261493288
SPLASH=splash10-001i-9300000000-9e05310358ffe8b5fc85
submitter=submitter = University of Tokyo Team (Faculty of Engineering, University of Tokyo)
MoNA Rating=3.75

>  <NUM PEAKS>  (2966) 
59

>  <MASS SPECTRAL PEAKS>  (2966) 
26 1.6
27 10.7
28 31.3
29 0.64
30 99.99
31 4.6
39 1.6
40 0.35
41 6.6
42 8.5
43 29.1
44 0.52
45 2.3
54 1.9
55 2.3
56 0.94
57 2.4
58 2
59 3.9
60 0.26
69 1.4
71 6.1
72 18.8
73 1.35
74 1.2
85 4.2
86 1
87 0.24
88 10.2
89 1.4
90 17.5
98 0.1
99 3.2
100 38.2
101 2.4
113 0.57
114 4.2
115 3.4
129 4.9
130 1.72
131 3.9
142 3
145 1.2
146 0.16
147 2.9
157 22.6
158 2
173 0.12
186 3.6
187 12.9
188 3.6
203 0.21
213 1.5
214 6.8
230 6.2
231 0.1
270 1.6
284 1.2
302 5

>  <PREDICTED SPECTRUM>  (2966) 
14 60
15 144
16 72
17 97
18 144
19 3
25 63
26 119
27 234
28 343
29 306
30 298
31 283
32 138
33 77
34 24
35 39
36 143
37 139
38 198
39 129
40 278
41 670
42 999
43 694
44 726
45 769
46 240
47 114
48 55
49 128
50 209
51 211
52 239
53 231
54 405
55 658
56 467
57 332
58 508
59 443
60 560
61 247
62 105
63 123
64 165
65 71
66 34
67 38
68 172
69 233
70 45
71 210
72 416
73 374
74 186
75 214
76 185
77 154
78 249
79 72
80 52
81 42
82 50
83 159
84 192
85 23
86 230
87 164
88 175
89 118
90 185
91 326
92 172
93 80
94 115
96 14
101 97
102 248
103 240
104 140
105 151
106 240
107 33
108 40
112 80
114 44
116 126
117 89
118 181
119 101
120 166
121 130
122 102
124 78
130 40
139 123
140 12
142 13
144 55
148 150
149 109
150 85
151 90
152 63
153 36
154 35
157 16
158 65
159 13
160 22
165 33
166 123
167 10
168 51
169 92
170 26
176 42
183 9
184 43
187 3
211 69
257 63

$$$$

     RDKit          2D

 17 16  0  0  0  0  0  0  0  0999 V2000
    2.5981    7.5000    0.0000 C   0  0  0  0  0  0  0  0  0  0  0  0
   -1.2990    6.7500    0.0000 C   0  0  0  0  0  0  0  0  0  0  0  0
   -5.1962    7.5000    0.0000 C   0  0  0  0  0  0  0  0  0  0  0  0
   -9.0933    6.7500    0.0000 C   0  0  0  0  0  0  0  0  0  0  0  0
    1.2990    6.7500    0.0000 C   0  0  0  0  0  0  0  0  0  0  0  0
   -2.5981    7.5000    0.0000 C   0  0  0  0  0  0  0  0  0  0  0  0
   -6.4952    6.7500    0.0000 C   0  0  0  0  0  0  0  0  0  0  0  0
  -10.3923    7.5000    0.0000 C   0  0  0  0  0  0  0  0  0  0  0  0
    3.8971    6.7500    0.0000 N   0  0  0  0  0  0  0  0  0  0  0  0
    0.0000    7.5000    0.0000 N   0  0  0  0  0  0  0  0  0  0  0  0
   -3.8971    6.7500    0.0000 N   0  0  0  0  0  0  0  0  0  0  0  0
   -7.7942    7.5000    0.0000 N   0  0  0  0  0  0  0  0  0  0  0  0
    1.2990    5.2500    0.0000 O   0  0  0  0  0  0  0  0  0  0  0  0
   -2.5981    9.0000    0.0000 O   0  0  0  0  0  0  0  0  0  0  0  0
   -6.4952    5.2500    0.0000 O   0  0  0  0  0  0  0  0  0  0  0  0
  -10.3923    9.0000    0.0000 O   0  0  0  0  0  0  0  0  0  0  0  0
  -11.6913    6.7500    0.0000 O   0  0  0  0  0  0  0  0  0  0  0  0
  5  1  1  0
  6  2  1  0
  7  3  1  0
  8  4  1  0
  9  1  1  0
 10  2  1  0
 10  5  2  3
 11  3  1  0
 11  6  2  3
 12  4  1  0
 12  7  2  3
 13  5  1  0
 14  6  1  0
 15  7  1  0
 16  8  2  0
 17  8  1  0
M  END
>  <NAME>  (2967) 
GLYCYLGLYCYLGLYCYLGLYCINE

>  <SYNONYMS>  (2967) 


>  <SPECTRUM TYPE>  (2967) 
MS1

>  <INSTRUMENT TYPE>  (2967) 
EI-B

>  <INSTRUMENT>  (2967) 
HITACHI RMU-6M

>  <ION MODE>  (2967) 
P

>  <INCHIKEY>  (2967) 
QMOQBVOBWVNSNO-UHFFFAOYSA-N

>  <FORMULA>  (2967) 
C8H14N4O5

>  <EXACT MASS>  (2967) 
246.096419548

>  <MW>  (2967) 
246

>  <ID>  (2967) 
JP007412

>  <CONTRIBUTOR>  (2967) 
University of Tokyo Team, {Faculty of Engineering, University of Tokyo

>  <COMMENT>  (2967) 
SMILES=NCC(=O)NCC(=O)NCC(=O)NCC(O)=O
cas=637-84-3
InChI=InChI=1S/C8H14N4O5/c9-1-5(13)10-2-6(14)11-3-7(15)12-4-8(16)17/h1-4,9H2,(H,10,13)(H,11,14)(H,12,15)(H,16,17)
computed SMILES=O=C(O)CN=C(O)CN=C(O)CN=C(O)CN
accession=JP007412
date=2016.01.19 (Created 2008.10.21, modified 2011.05.06)
author=YAMAMOTO M, DEP. CHEMISTRY, FAC. SCIENCE, NARA WOMEN'S UNIV.
license=CC BY-NC-SA
exact mass=246.09642
ionization energy=70 eV
ion type=[M]+*
computed spectral entropy=2.9331552992404037
computed normalized entropy=0.7497796651938116
SPLASH=splash10-01u3-9200000000-7ed4cef5055864751b3c
submitter=submitter = University of Tokyo Team (Faculty of Engineering, University of Tokyo)
MoNA Rating=3.75

>  <NUM PEAKS>  (2967) 
50

>  <MASS SPECTRAL PEAKS>  (2967) 
26 2.52
27 12.41
28 69.11
29 28.53
30 99.99
31 3.9
39 2.32
40 2.64
41 10.28
42 30.1
43 20.17
44 32.46
45 2.92
52 1.34
53 1.42
54 7.37
55 13.12
56 8.08
57 2.44
58 4.49
59 2.36
67 1.06
68 2.99
69 2.48
70 1.3
71 33.64
72 3.15
74 1.22
75 4.22
80 1.38
81 1.77
82 1.77
83 1.3
85 2.76
86 5.2
96 2.17
97 1.26
98 6.93
100 1.58
111 1.85
112 1.77
113 1.06
114 77.49
115 4.41
124 1.06
125 4.02
128 1.1
153 10.64
154 1.1
156 1.58

>  <PREDICTED SPECTRUM>  (2967) 
14 176
15 236
16 184
17 259
18 387
19 90
25 150
26 391
27 727
28 906
29 822
30 999
31 676
32 281
33 122
34 73
35 93
36 275
37 303
38 387
39 448
40 466
41 715
42 867
43 915
44 925
45 644
46 254
47 195
48 178
49 191
50 379
51 349
52 380
53 280
54 541
55 650
56 430
57 423
58 438
59 230
60 558
61 242
62 239
63 180
64 341
65 293
66 377
67 187
68 363
69 191
70 155
71 255
72 844
73 447
74 144
75 25
76 196
77 65
78 201
79 193
80 104
81 186
82 209
83 239
84 339
85 82
86 486
87 127
88 235
89 167
90 222
91 330
92 324
93 352
94 466
95 388
96 304
97 246
98 232
99 67
100 19
101 17
102 125
103 147
104 137
105 107
106 109
107 168
108 171
109 90
110 269
111 77
112 313
113 194
114 164
119 20
120 56
121 287
122 115
123 38
124 110
125 30
126 83
127 69
128 226
131 94
137 87
138 132
139 162
140 56
141 84
156 10
166 119
167 4
168 121
210 155

$$$$

     RDKit          2D

 11 10  0  0  1  0  0  0  0  0999 V2000
    2.2733    2.8125    0.0000 C   0  0  0  0  0  0  0  0  0  0  0  0
   -2.9228    1.3125    0.0000 C   0  0  0  0  0  0  0  0  0  0  0  0
    0.9743    3.5625    0.0000 C   0  0  0  0  0  0  0  0  0  0  0  0
   -2.9228    2.8125    0.0000 C   0  0  0  0  0  0  0  0  0  0  0  0
   -0.3248    2.8125    0.0000 C   0  0  0  0  0  0  0  0  0  0  0  0
   -4.2219    3.5625    0.0000 C   0  0  0  0  0  0  0  0  0  0  0  0
    0.9743    5.0625    0.0000 N   0  0  0  0  0  0  0  0  0  0  0  0
   -1.6238    3.5625    0.0000 N   0  0  0  0  0  0  0  0  0  0  0  0
   -0.3248    1.3125    0.0000 O   0  0  0  0  0  0  0  0  0  0  0  0
   -4.2219    5.0625    0.0000 O   0  0  0  0  0  0  0  0  0  0  0  0
   -5.5209    2.8125    0.0000 O   0  0  0  0  0  0  0  0  0  0  0  0
  3  1  1  6
  4  2  1  1
  5  3  1  0
  6  4  1  0
  3  7  1  0
  8  4  1  0
  8  5  2  3
  9  5  1  0
 10  6  2  0
 11  6  1  0
M  END
>  <NAME>  (2968) 
N-ALANYLALANINE

>  <SYNONYMS>  (2968) 


>  <SPECTRUM TYPE>  (2968) 
MS1

>  <INSTRUMENT TYPE>  (2968) 
EI-B

>  <INSTRUMENT>  (2968) 
HITACHI RMU-6M

>  <ION MODE>  (2968) 
P

>  <INCHIKEY>  (2968) 
DEFJQIDDEAULHB-DMTCNVIQSA-N

>  <FORMULA>  (2968) 
C6H12N2O3

>  <EXACT MASS>  (2968) 
160.08479224399997

>  <MW>  (2968) 
160

>  <ID>  (2968) 
JP007411

>  <CONTRIBUTOR>  (2968) 
University of Tokyo Team, {Faculty of Engineering, University of Tokyo

>  <COMMENT>  (2968) 
SMILES=OC(=O)C([H])(C)NC(=O)C([H])(C)N
cas=1948-31-8
InChI=InChI=1S/C6H12N2O3/c1-3(7)5(9)8-4(2)6(10)11/h3-4H,7H2,1-2H3,(H,8,9)(H,10,11)/t3-,4+/m1/s1
computed SMILES=O=C(O)C(N=C(O)C(N)C)C
accession=JP007411
date=2016.01.19 (Created 2008.10.21, modified 2011.05.06)
author=YAMAMOTO M, DEP. CHEMISTRY, FAC. SCIENCE, NARA WOMEN'S UNIV.
license=CC BY-NC-SA
exact mass=160.08479
ionization energy=70 eV
ion type=[M]+*
computed spectral entropy=3.00570265830005
computed normalized entropy=0.7764263983789205
SPLASH=splash10-0006-9000000000-653cca980d5323c940cf
submitter=submitter = University of Tokyo Team (Faculty of Engineering, University of Tokyo)
MoNA Rating=3.75

>  <NUM PEAKS>  (2968) 
48

>  <MASS SPECTRAL PEAKS>  (2968) 
14 2.57
15 12.97
16 1.08
17 4.63
18 32.28
25 1.25
26 6.8
27 19.05
28 42.89
29 6.23
30 3.68
31 1.21
32 2.07
36 1.06
38 2.42
39 3.7
40 10.3
41 19.27
42 33.15
43 17.5
44 99.99
45 16.01
51 1.12
52 1.81
53 2.32
54 3.03
55 9.09
56 11.5
57 2.46
58 3.59
60 1.44
69 1.45
70 3.7
71 6
72 1.22
73 1.95
74 1.75
84 1.29
88 1.48
99 21.51
100 1.41
113 1
114 1.38
115 1.96
117 2.14
127 1.21
142 3.7
160 1.6

>  <PREDICTED SPECTRUM>  (2968) 
14 8
15 22
16 37
17 85
18 126
25 3
26 0
27 86
28 202
29 89
30 108
34 10
36 73
37 63
38 87
39 355
40 179
41 769
42 718
43 709
44 712
45 531
46 224
50 80
51 70
52 236
53 320
54 310
55 479
56 449
57 339
58 245
59 252
60 69
67 193
68 60
69 591
70 540
71 327
72 246
73 276
74 414
80 40
81 115
82 59
83 115
84 110
86 189
87 238
88 157
97 766
98 581
99 346
100 21
101 90
102 26
114 6
115 999
116 320
127 105
142 6

$$$$

     RDKit          2D

  5  4  0  0  0  0  0  0  0  0999 V2000
    0.0000    1.5000    0.0000 C   0  0  0  0  0  0  0  0  0  0  0  0
   -1.2990    2.2500    0.0000 C   0  0  0  0  0  0  0  0  0  0  0  0
   -0.0000   -0.0000    0.0000 N   0  0  0  0  0  0  0  0  0  0  0  0
   -2.5981    1.5000    0.0000 O   0  0  0  0  0  0  0  0  0  0  0  0
   -1.2990    3.7500    0.0000 O   0  0  0  0  0  0  0  0  0  0  0  0
  2  1  1  0
  3  1  1  0
  4  2  2  0
  5  2  1  0
M  END
>  <NAME>  (2969) 
GLYCINE

>  <SYNONYMS>  (2969) 


>  <SPECTRUM TYPE>  (2969) 
MS1

>  <INSTRUMENT TYPE>  (2969) 
EI-B

>  <INSTRUMENT>  (2969) 
HITACHI RMU-6M

>  <ION MODE>  (2969) 
P

>  <INCHIKEY>  (2969) 
DHMQDGOQFOQNFH-UHFFFAOYSA-N

>  <FORMULA>  (2969) 
C2H5NO2

>  <EXACT MASS>  (2969) 
75.0320284

>  <MW>  (2969) 
75

>  <ID>  (2969) 
JP007408

>  <CONTRIBUTOR>  (2969) 
University of Tokyo Team, {Faculty of Engineering, University of Tokyo

>  <COMMENT>  (2969) 
SMILES=NCC(O)=O
cas=56-40-6
InChI=InChI=1S/C2H5NO2/c3-1-2(4)5/h1,3H2,(H,4,5)
computed SMILES=O=C(O)CN
accession=JP007408
date=2016.01.19 (Created 2008.10.21, modified 2011.05.06)
author=YAMAMOTO M, DEP. CHEMISTRY, FAC. SCIENCE, NARA WOMEN'S UNIV.
license=CC BY-NC-SA
exact mass=75.03203
ionization energy=70 eV
ion type=[M]+*
computed spectral entropy=1.1691277399930218
computed normalized entropy=0.507745726118989
SPLASH=splash10-001i-9000000000-719b7f248956f13a312d
submitter=submitter = University of Tokyo Team (Faculty of Engineering, University of Tokyo)
MoNA Rating=3.75

>  <NUM PEAKS>  (2969) 
10

>  <MASS SPECTRAL PEAKS>  (2969) 
18 1.77
27 3.63
28 24.35
29 4.37
30 99.99
31 1.91
42 1.11
44 2.33
45 3.05
75 5.42

>  <PREDICTED SPECTRUM>  (2969) 
14 101
15 213
16 124
17 168
18 243
19 8
25 57
26 170
27 295
28 510
29 575
30 999
31 349
32 93
36 27
37 20
38 166
40 268
41 374
42 619
43 472
45 530
46 213
54 175
56 218
57 684
58 273
59 95
75 415
76 130

$$$$

     RDKit          2D

 10 11  0  0  0  0  0  0  0  0999 V2000
   -2.6000   -0.7500    0.0000 C   0  0  0  0  0  0  0  0  0  0  0  0
   -2.6000    0.7500    0.0000 C   0  0  0  0  0  0  0  0  0  0  0  0
    2.6000   -0.7500    0.0000 C   0  0  0  0  0  0  0  0  0  0  0  0
   -1.3000   -1.5000    0.0000 C   0  0  0  0  0  0  0  0  0  0  0  0
    1.3000   -1.5000    0.0000 C   0  0  0  0  0  0  0  0  0  0  0  0
   -1.3000    1.5000    0.0000 C   0  0  0  0  0  0  0  0  0  0  0  0
    2.6000    0.7500    0.0000 C   0  0  0  0  0  0  0  0  0  0  0  0
    0.0000   -0.7500    0.0000 C   0  0  0  0  0  0  0  0  0  0  0  0
    0.0000    0.7500    0.0000 C   0  0  0  0  0  0  0  0  0  0  0  0
    1.3000    1.5000    0.0000 O   0  0  0  0  0  0  0  0  0  0  0  0
  2  1  1  0
  4  1  1  0
  5  3  1  0
  6  2  1  0
  7  3  1  0
  8  4  1  0
  8  5  1  0
  9  6  1  0
  9  8  1  0
 10  7  1  0
 10  9  1  0
M  END
>  <NAME>  (2970) 
DECAHYDROBENZOPYRAN

>  <SYNONYMS>  (2970) 


>  <SPECTRUM TYPE>  (2970) 
MS1

>  <INSTRUMENT TYPE>  (2970) 
EI-B

>  <INSTRUMENT>  (2970) 
HITACHI RMU-6M

>  <ION MODE>  (2970) 
P

>  <INCHIKEY>  (2970) 
AXRTUWDQQWPLQU-UHFFFAOYSA-N

>  <FORMULA>  (2970) 
C9H16O

>  <EXACT MASS>  (2970) 
140.120115132

>  <MW>  (2970) 
140

>  <ID>  (2970) 
JP007407

>  <CONTRIBUTOR>  (2970) 
University of Tokyo Team, {Faculty of Engineering, University of Tokyo

>  <COMMENT>  (2970) 
SMILES=C(C2)CC(C1)C(C2)OCC1
InChI=InChI=1S/C9H16O/c1-2-6-9-8(4-1)5-3-7-10-9/h8-9H,1-7H2
computed SMILES=O1CCCC2CCCCC12
accession=JP007407
date=2016.01.19 (Created 2008.10.21, modified 2011.05.06)
author=YAMAMOTO M, DEP. CHEMISTRY, FAC. SCIENCE, NARA WOMEN'S UNIV.
license=CC BY-NC-SA
exact mass=140.12012
ionization energy=70 eV
ion type=[M]+*
computed spectral entropy=2.910198996639879
computed normalized entropy=0.7439115241914014
SPLASH=splash10-0002-9100000000-9e072a9091de7c1482c2
submitter=submitter = University of Tokyo Team (Faculty of Engineering, University of Tokyo)
MoNA Rating=3.75

>  <NUM PEAKS>  (2970) 
50

>  <MASS SPECTRAL PEAKS>  (2970) 
27 8.89
28 2.54
29 5.93
31 1.27
32 0.95
39 8.99
40 1.9
41 21.48
42 3.49
43 4.23
51 1.48
52 1.06
53 4.34
54 6.24
55 10.37
56 2.86
57 2.33
58 0.74
65 1.27
66 1.27
67 11.22
68 3.6
69 8.15
70 2.01
71 2.33
77 1.69
78 0.85
79 6.03
80 2.22
81 6.67
82 2.33
83 5.4
84 3.17
91 0.85
93 2.12
94 2.12
95 2.22
96 1.69
97 99.99
98 11
99 1.06
107 0.85
109 0.63
110 0.53
111 1.06
121 0.63
122 0.63
139 3.28
140 33.01
141 3.7

>  <PREDICTED SPECTRUM>  (2970) 
26 7
27 91
28 5
29 73
30 48
38 38
39 237
40 126
41 415
42 192
43 227
44 82
50 16
51 62
52 80
53 210
54 205
55 399
56 146
57 108
58 6
65 79
66 91
67 345
68 240
69 286
70 181
71 55
77 82
78 43
79 225
80 85
81 176
82 100
83 171
84 126
91 24
93 109
95 132
96 139
97 999
98 295
99 29
109 86
110 21
111 73
112 28
122 11
139 143
140 385
141 140

$$$$

     RDKit          2D

 10 11  0  0  1  0  0  0  0  0999 V2000
   -2.6000    0.7500    0.0000 C   0  0  0  0  0  0  0  0  0  0  0  0
   -2.6000   -0.7500    0.0000 C   0  0  0  0  0  0  0  0  0  0  0  0
    2.6000    0.7500    0.0000 C   0  0  0  0  0  0  0  0  0  0  0  0
   -1.3000    1.5000    0.0000 C   0  0  0  0  0  0  0  0  0  0  0  0
    1.3000    1.5000    0.0000 C   0  0  0  0  0  0  0  0  0  0  0  0
   -1.3000   -1.5000    0.0000 C   0  0  0  0  0  0  0  0  0  0  0  0
    2.6000   -0.7500    0.0000 C   0  0  0  0  0  0  0  0  0  0  0  0
   -0.0000    0.7500    0.0000 C   0  0  0  0  0  0  0  0  0  0  0  0
   -0.0000   -0.7500    0.0000 C   0  0  0  0  0  0  0  0  0  0  0  0
    1.3000   -1.5000    0.0000 N   0  0  0  0  0  0  0  0  0  0  0  0
  2  1  1  0
  4  1  1  0
  5  3  1  0
  6  2  1  0
  7  3  1  0
  8  4  1  6
  8  5  1  0
  9  6  1  1
  9  8  1  0
 10  7  1  0
  9 10  1  0
M  END
>  <NAME>  (2971) 
TRANS-DECAHYDROQUINOLINE

>  <SYNONYMS>  (2971) 


>  <SPECTRUM TYPE>  (2971) 
MS1

>  <INSTRUMENT TYPE>  (2971) 
EI-B

>  <INSTRUMENT>  (2971) 
HITACHI RMU-6M

>  <ION MODE>  (2971) 
P

>  <INCHIKEY>  (2971) 
POTIYWUALSJREP-BDAKNGLRSA-N

>  <FORMULA>  (2971) 
C9H17N

>  <EXACT MASS>  (2971) 
139.136099544

>  <MW>  (2971) 
139

>  <ID>  (2971) 
JP007405

>  <CONTRIBUTOR>  (2971) 
University of Tokyo Team, {Faculty of Engineering, University of Tokyo

>  <COMMENT>  (2971) 
SMILES=[H]C(C2)(C1)C([H])(CCC2)NCC1
cas=767-92-0
InChI=InChI=1S/C9H17N/c1-2-6-9-8(4-1)5-3-7-10-9/h8-10H,1-7H2/t8-,9+/m1/s1
computed SMILES=N1CCCC2CCCCC12
accession=JP007405
date=2016.01.19 (Created 2008.10.21, modified 2011.05.06)
author=YAMAMOTO M, DEP. CHEMISTRY, FAC. SCIENCE, NARA WOMEN'S UNIV.
license=CC BY-NC-SA
exact mass=139.1361
ionization energy=70 eV
ion type=[M]+*
computed spectral entropy=2.2090014358622883
computed normalized entropy=0.649477577447374
SPLASH=splash10-0002-9000000000-ca13fae7f5390b4dde04
submitter=submitter = University of Tokyo Team (Faculty of Engineering, University of Tokyo)
MoNA Rating=3.75

>  <NUM PEAKS>  (2971) 
30

>  <MASS SPECTRAL PEAKS>  (2971) 
27 4.6
28 6.2
29 2.9
30 0.75
39 4.9
41 9.6
42 2.5
43 0.25
44 2.5
53 2.8
54 3.2
55 0.37
56 5
57 1.7
67 4.4
68 0.45
69 2.1
70 2.6
79 2.2
80 0.16
81 2.4
82 6.7
83 5.5
95 0.19
96 99.99
97 8.3
110 2.6
138 0.7
139 14.6
140 1.9

>  <PREDICTED SPECTRUM>  (2971) 
27 47
28 60
29 50
30 55
38 36
39 119
40 95
41 240
42 96
43 36
44 44
51 58
52 72
53 153
54 161
55 242
56 236
57 36
65 29
66 66
67 191
68 159
69 139
70 121
77 104
78 39
79 144
80 89
81 123
82 255
83 146
84 66
93 27
94 106
95 199
96 999
97 322
98 1
108 31
110 196
124 94
125 23
138 208
139 253
140 84

$$$$

     RDKit          2D

 10 11  0  0  0  0  0  0  0  0999 V2000
   -2.6000    0.7500    0.0000 C   0  0  0  0  0  0  0  0  0  0  0  0
   -2.6000   -0.7500    0.0000 C   0  0  0  0  0  0  0  0  0  0  0  0
    2.6000    0.7500    0.0000 C   0  0  0  0  0  0  0  0  0  0  0  0
   -1.3000    1.5000    0.0000 C   0  0  0  0  0  0  0  0  0  0  0  0
    1.3000    1.5000    0.0000 C   0  0  0  0  0  0  0  0  0  0  0  0
   -1.3000   -1.5000    0.0000 C   0  0  0  0  0  0  0  0  0  0  0  0
    2.6000   -0.7500    0.0000 C   0  0  0  0  0  0  0  0  0  0  0  0
   -0.0000    0.7500    0.0000 C   0  0  0  0  0  0  0  0  0  0  0  0
   -0.0000   -0.7500    0.0000 C   0  0  0  0  0  0  0  0  0  0  0  0
    1.3000   -1.5000    0.0000 N   0  0  0  0  0  0  0  0  0  0  0  0
  2  1  2  0
  4  1  1  0
  5  3  1  0
  6  2  1  0
  7  3  1  0
  8  4  2  0
  8  5  1  0
  9  6  2  0
  9  8  1  0
 10  7  1  0
 10  9  1  0
M  END
>  <NAME>  (2972) 
TETRAHYDROQUINOLINE

>  <SYNONYMS>  (2972) 


>  <SPECTRUM TYPE>  (2972) 
MS1

>  <INSTRUMENT TYPE>  (2972) 
EI-B

>  <INSTRUMENT>  (2972) 
HITACHI RMU-6M

>  <ION MODE>  (2972) 
P

>  <INCHIKEY>  (2972) 
LBUJPTNKIBCYBY-UHFFFAOYSA-N

>  <FORMULA>  (2972) 
C9H11N

>  <EXACT MASS>  (2972) 
133.089149352

>  <MW>  (2972) 
133

>  <ID>  (2972) 
JP007403

>  <CONTRIBUTOR>  (2972) 
University of Tokyo Team, {Faculty of Engineering, University of Tokyo

>  <COMMENT>  (2972) 
SMILES=C(C2)Cc(c1)c(N2)ccc1
cas=25448-04-8
InChI=InChI=1S/C9H11N/c1-2-6-9-8(4-1)5-3-7-10-9/h1-2,4,6,10H,3,5,7H2
computed SMILES=C=1C=CC2=C(C1)NCCC2
accession=JP007403
exact mass=133.08915
date=2016.01.19 (Created 2008.10.21, modified 2011.05.06)
author=YAMAMOTO M, DEP. CHEMISTRY, FAC. SCIENCE, NARA WOMEN'S UNIV.
license=CC BY-NC-SA
ionization energy=70 eV
ion type=[M]+*
computed spectral entropy=2.956673990027355
computed normalized entropy=0.7519850232978676
SPLASH=splash10-00lr-6900000000-3839cfb7c6ab6e9308da
submitter=submitter = University of Tokyo Team (Faculty of Engineering, University of Tokyo)
MoNA Rating=3.75

>  <NUM PEAKS>  (2972) 
51

>  <MASS SPECTRAL PEAKS>  (2972) 
18 32.3
27 4.9
28 4.5
29 0.41
39 2.1
40 7.6
41 1.1
42 0.19
50 5.6
51 13.1
52 5.6
53 0.23
54 1.3
59 1.9
62 1.8
63 0.46
64 2.4
64.5 4.8
65 8.6
65.5 0.9
66 3.2
66.5 4.8
67 1
74 0.21
75 2.4
76 3.1
77 16.7
78 0.97
79 4.3
89 2.7
90 3.2
91 0.86
92 1.2
101 1
102 3.1
103 0.56
104 10.3
105 6.5
106 3.1
115 0.45
116 1.6
117 19.2
118 25.1
119 0.24
128 1.4
129 1.7
130 14
131 0.64
132 99.99
133 9.41
134 9.3

>  <PREDICTED SPECTRUM>  (2972) 
26 4
27 63
28 68
29 1
30 24
37 34
38 93
39 258
40 87
41 116
42 81
50 229
51 375
52 233
53 101
54 78
61 26
62 118
63 312
64 208
65 303
66 101
74 112
75 210
76 215
77 454
78 327
79 146
80 4
87 19
89 247
90 288
91 322
92 219
93 96
102 151
103 266
104 435
105 340
106 159
115 292
116 216
117 469
118 585
119 204
128 34
129 52
130 476
131 279
132 932
133 999
134 347
135 52

$$$$

     RDKit          2D

 11 12  0  0  0  0  0  0  0  0999 V2000
   -0.4775    2.9800    0.0000 C   0  0  0  0  0  0  0  0  0  0  0  0
    1.3259   -2.1785    0.0000 C   0  0  0  0  0  0  0  0  0  0  0  0
    2.2869   -0.5080    0.0000 C   0  0  0  0  0  0  0  0  0  0  0  0
   -1.7800    0.7300    0.0000 C   0  0  0  0  0  0  0  0  0  0  0  0
   -3.0789    1.4802    0.0000 H   0  0  0  0  0  0  0  0  0  0  0  0
   -1.7800   -0.7700    0.0000 C   0  0  0  0  0  0  0  0  0  0  0  0
   -0.4800   -0.0200    0.0000 C   0  0  0  0  0  0  0  0  0  0  0  0
   -0.4800    1.4800    0.0000 C   0  0  0  0  0  0  0  0  0  0  0  0
   -0.4800   -1.5200    0.0000 C   0  0  0  0  0  0  0  0  0  0  0  0
    0.8100    0.7300    0.0000 C   0  0  0  0  0  0  0  0  0  0  0  0
    0.8100   -0.7700    0.0000 C   0  0  0  0  0  0  0  0  0  0  0  0
  4  5  1  0
  6  4  1  0
  8  1  1  0
  8  4  1  0
  9  6  1  0
  9  7  1  0
 10  7  1  0
 10  8  1  0
 11  2  1  0
 11  3  1  0
 11  9  1  0
 11 10  1  0
M  ISO  1   5   2
M  END
>  <NAME>  (2973) 
PINANE (3-D1)

>  <SYNONYMS>  (2973) 
2,6,6-TRIMETHYLBICYCLO(3.1.1)HEPTANE (3-D1)

>  <SPECTRUM TYPE>  (2973) 
MS1

>  <INSTRUMENT TYPE>  (2973) 
EI-B

>  <INSTRUMENT>  (2973) 
HITACHI RMU-6M

>  <ION MODE>  (2973) 
P

>  <INCHIKEY>  (2973) 
XOKSLPVRUOBDEW-QYKNYGDISA-N

>  <FORMULA>  (2973) 
C10H18

>  <EXACT MASS>  (2973) 
139.147127322

>  <MW>  (2973) 
139

>  <ID>  (2973) 
JP007400

>  <CONTRIBUTOR>  (2973) 
University of Tokyo Team, {Faculty of Engineering, University of Tokyo

>  <COMMENT>  (2973) 
SMILES=[2H]C(C1)C(C)C(C2)C(C)(C)C12
InChI=InChI=1S/C10H18/c1-7-4-5-8-6-9(7)10(8,2)3/h7-9H,4-6H2,1-3H3/i4D
computed SMILES=[H]C1CC2CC(C1C)C2(C)C
accession=JP007400
date=2016.01.19 (Created 2008.10.21, modified 2011.05.06)
author=YAMAMOTO M, DEP. CHEMISTRY, FAC. SCIENCE, NARA WOMEN'S UNIV.
license=CC BY-NC-SA
exact mass=138.14085
ionization energy=70 eV
ion type=[M]+*
computed spectral entropy=3.5091987592017024
computed normalized entropy=0.8375866211601951
SPLASH=splash10-05o1-9000000000-0f82b577f36a18221e41
submitter=submitter = University of Tokyo Team (Faculty of Engineering, University of Tokyo)
MoNA Rating=3.75

>  <NUM PEAKS>  (2973) 
66

>  <MASS SPECTRAL PEAKS>  (2973) 
15 1.02
26 0.8
27 23.35
28 6.77
29 15.52
30 5.5
38 1.06
39 27.79
40 9.18
41 70.95
42 21.78
43 15.44
44 3.34
50 1.44
51 5.12
52 3.34
53 15.57
54 8.54
55 63.01
56 42.49
57 8.67
58 1.82
63 1.31
64 0.55
65 5.12
66 3.51
67 28.61
68 48.41
69 66.91
70 23.09
71 5.03
72 0.63
77 9.77
78 4.23
79 10.32
80 11.12
81 30.64
82 72.69
83 79.77
84 46.97
85 5.46
91 7.7
92 9.52
93 30.64
94 7.36
95 23.01
96 99.99
97 33.38
98 7.23
99 0.63
103 1.23
105 1.95
106 0.59
107 1.73
108 1.02
109 5.29
110 7.95
111 3.85
121 3.81
122 0.59
123 1.35
124 28.09
125 2.96
136 3.89
139 15.99
140 1.82

>  <PREDICTED SPECTRUM>  (2973) 
25 0
26 90
27 457
28 199
29 438
30 57
31 27
32 7
36 5
37 29
38 109
39 556
40 264
41 999
42 296
43 431
44 83
45 44
46 37
47 1
48 9
49 22
50 165
51 271
52 217
53 464
54 260
55 693
56 376
57 463
58 167
59 98
62 62
63 138
64 85
65 266
66 217
67 627
68 551
69 777
70 540
71 464
72 70
73 3
76 28
77 347
78 241
79 495
80 313
81 335
82 536
83 607
84 343
85 144
90 21
91 248
92 227
93 272
94 239
95 242
96 701
97 332
98 165
99 11
105 86
106 33
107 119
108 32
109 75
110 302
111 175
112 21
122 73
124 461
125 159
138 55
139 442
140 180

$$$$

     RDKit          2D

 11 12  0  0  0  0  0  0  0  0999 V2000
   -1.4428    2.6302    0.0000 C   0  0  0  0  0  0  0  0  0  0  0  0
    1.3259   -2.1785    0.0000 C   0  0  0  0  0  0  0  0  0  0  0  0
    2.2869   -0.5080    0.0000 C   0  0  0  0  0  0  0  0  0  0  0  0
   -1.7800    0.7300    0.0000 C   0  0  0  0  0  0  0  0  0  0  0  0
   -1.7800   -0.7700    0.0000 C   0  0  0  0  0  0  0  0  0  0  0  0
   -0.4800   -0.0200    0.0000 C   0  0  0  0  0  0  0  0  0  0  0  0
   -0.4800    1.4800    0.0000 C   0  0  0  0  0  0  0  0  0  0  0  0
    0.4866    2.6270    0.0000 H   0  0  0  0  0  0  0  0  0  0  0  0
   -0.4800   -1.5200    0.0000 C   0  0  0  0  0  0  0  0  0  0  0  0
    0.8100    0.7300    0.0000 C   0  0  0  0  0  0  0  0  0  0  0  0
    0.8100   -0.7700    0.0000 C   0  0  0  0  0  0  0  0  0  0  0  0
  7  8  1  0
  5  4  1  0
  7  1  1  0
  7  4  1  0
  9  5  1  0
  9  6  1  0
 10  6  1  0
 10  7  1  0
 11  2  1  0
 11  3  1  0
 11  9  1  0
 11 10  1  0
M  ISO  1   8   2
M  END
>  <NAME>  (2974) 
PINANE (2-D1)

>  <SYNONYMS>  (2974) 
2,6,6-TRIMETHYLBICYCLO(3.1.1)HEPTANE (2-D1)

>  <SPECTRUM TYPE>  (2974) 
MS1

>  <INSTRUMENT TYPE>  (2974) 
EI-B

>  <INSTRUMENT>  (2974) 
HITACHI RMU-6M

>  <ION MODE>  (2974) 
P

>  <INCHIKEY>  (2974) 
XOKSLPVRUOBDEW-WHRKIXHSSA-N

>  <FORMULA>  (2974) 
C10H18

>  <EXACT MASS>  (2974) 
139.147127322

>  <MW>  (2974) 
139

>  <ID>  (2974) 
JP007399

>  <CONTRIBUTOR>  (2974) 
University of Tokyo Team, {Faculty of Engineering, University of Tokyo

>  <COMMENT>  (2974) 
SMILES=[2H]C(C)(C2)C(C1)C(C)(C)C(C2)1
InChI=InChI=1S/C10H18/c1-7-4-5-8-6-9(7)10(8,2)3/h7-9H,4-6H2,1-3H3/i7D
computed SMILES=[H]C1(C)CCC2CC1C2(C)C
accession=JP007399
date=2016.01.19 (Created 2008.10.21, modified 2011.05.06)
author=YAMAMOTO M, DEP. CHEMISTRY, FAC. SCIENCE, NARA WOMEN'S UNIV.
license=CC BY-NC-SA
exact mass=138.14085
ionization energy=70 eV
ion type=[M]+*
computed spectral entropy=3.3955348371063145
computed normalized entropy=0.8327415465384076
SPLASH=splash10-001i-9000000000-4aed3e1a8b4bbfea28f5
submitter=submitter = University of Tokyo Team (Faculty of Engineering, University of Tokyo)
MoNA Rating=3.75

>  <NUM PEAKS>  (2974) 
59

>  <MASS SPECTRAL PEAKS>  (2974) 
15 1
26 0.79
27 20.37
28 6.43
29 14.58
30 5.79
38 0.93
39 24.45
40 8.58
41 66.27
42 19.66
43 12.94
44 3.93
50 1.07
51 4.29
52 3
53 13.01
54 8.94
55 60.96
56 41.18
57 7.93
58 1.57
63 1.22
65 3.22
66 3.29
67 29.38
68 51.57
69 60.72
70 24.73
71 4.36
77 5.22
78 3.57
79 6.08
80 9.94
81 31.24
82 83.13
83 68.43
84 50.4
85 6.08
91 2.57
92 2.64
93 3.57
94 11.37
95 24.38
96 99.99
97 29.81
98 6.36
108 0.71
109 4.15
110 7.65
111 3.86
122 0.64
123 1.64
124 26.88
125 2.86
137 1
138 0.5
139 14.58
140 1.57

>  <PREDICTED SPECTRUM>  (2974) 
26 35
27 324
28 162
29 327
30 79
38 56
39 463
40 219
41 999
42 357
43 586
44 206
45 15
50 127
51 267
52 209
53 498
54 372
55 782
56 452
57 427
58 209
59 38
62 27
63 133
64 95
65 301
66 259
67 714
68 593
69 842
70 519
71 381
72 128
76 11
77 337
78 227
79 414
80 307
81 881
82 663
83 492
84 320
85 99
90 18
91 349
92 204
93 292
94 215
95 679
96 727
97 351
98 239
99 3
105 30
106 155
107 135
108 123
109 242
110 556
111 241
112 72
115 23
121 155
122 69
123 34
124 495
125 153
126 1
138 39
139 431
140 133

$$$$

     RDKit          2D

 11 11  0  0  1  0  0  0  0  0999 V2000
   -3.5376   -0.2051    0.0000 C   0  0  0  0  0  0  0  0  0  0  0  0
   -2.2386   -2.4551    0.0000 C   0  0  0  0  0  0  0  0  0  0  0  0
    2.9576    2.0449    0.0000 C   0  0  0  0  0  0  0  0  0  0  0  0
    0.3590    2.0458    0.0000 C   0  0  0  0  0  0  0  0  0  0  0  0
   -0.9400    1.2958    0.0000 C   0  0  0  0  0  0  0  0  0  0  0  0
    1.6590   -0.2059    0.0000 C   0  0  0  0  0  0  0  0  0  0  0  0
   -2.2386   -0.9551    0.0000 C   0  0  0  0  0  0  0  0  0  0  0  0
    1.6585    1.2949    0.0000 C   0  0  0  0  0  0  0  0  0  0  0  0
   -0.9395   -0.2051    0.0000 C   0  0  0  0  0  0  0  0  0  0  0  0
    0.3600   -0.9559    0.0000 C   0  0  0  0  0  0  0  0  0  0  0  0
    0.3597   -2.4559    0.0000 O   0  0  0  0  0  0  0  0  0  0  0  0
  5  4  1  0
  7  1  1  0
  7  2  1  0
  8  3  1  1
  8  4  1  0
  8  6  1  0
  9  5  1  0
  9  7  1  6
 10  6  1  0
 10  9  1  0
 11 10  2  0
M  END
>  <NAME>  (2975) 
TRANS-MENTHONE

>  <SYNONYMS>  (2975) 
TRNS-5-METHYL-2-(1-METHYLETHYL)CYCLOHEXANONE

>  <SPECTRUM TYPE>  (2975) 
MS1

>  <INSTRUMENT TYPE>  (2975) 
EI-B

>  <INSTRUMENT>  (2975) 
HITACHI M-80

>  <ION MODE>  (2975) 
P

>  <INCHIKEY>  (2975) 
NFLGAXVYCFJBMK-BDAKNGLRSA-N

>  <FORMULA>  (2975) 
C10H18O

>  <EXACT MASS>  (2975) 
154.135765196

>  <MW>  (2975) 
154

>  <ID>  (2975) 
JP007382

>  <CONTRIBUTOR>  (2975) 
University of Tokyo Team, {Faculty of Engineering, University of Tokyo

>  <COMMENT>  (2975) 
SMILES=CC(C1)CC(=O)C(C1)C(C)C
cas=89-80-5
InChI=InChI=1S/C10H18O/c1-7(2)9-5-4-8(3)6-10(9)11/h7-9H,4-6H2,1-3H3/t8-,9+/m1/s1
computed SMILES=O=C1CC(C)CCC1C(C)C
accession=JP007382
date=2016.01.19 (Created 2008.10.21, modified 2011.05.06)
author=YAMAMOTO M, DEP. CHEMISTRY, FAC. SCIENCE, NARA WOMEN'S UNIV.
license=CC BY-NC-SA
exact mass=154.13577
ionization energy=70 eV
ion type=[M]+*
computed spectral entropy=2.7467992393634533
computed normalized entropy=0.7998862767385523
SPLASH=splash10-03di-7900000000-72f9ad70ae1001e21eaf
submitter=submitter = University of Tokyo Team (Faculty of Engineering, University of Tokyo)
MoNA Rating=3.75

>  <NUM PEAKS>  (2975) 
31

>  <MASS SPECTRAL PEAKS>  (2975) 
55 17.59
56 15.5
57 3.56
58 1.12
67 1.85
68 1.99
69 38
70 20.11
71 2.85
79 1.2
81 2.66
83 15.94
84 11.35
85 1.63
93 2.33
94 1.95
95 10.52
96 1.22
97 18.57
98 7.51
109 1.61
110 5.71
111 20.69
112 99.99
113 7.48
121 4.09
125 5.79
139 38.98
140 3.9
154 28.04
155 3.16

>  <PREDICTED SPECTRUM>  (2975) 
27 146
28 34
29 118
38 32
39 354
40 172
41 845
42 448
43 631
44 124
50 58
51 175
52 108
53 305
54 144
55 726
56 742
57 449
58 47
65 145
66 101
67 377
68 227
69 999
70 494
71 204
72 14
77 191
78 64
79 166
80 70
81 190
82 164
83 489
84 337
85 62
87 1
91 70
93 137
94 61
95 224
96 60
97 473
98 116
99 36
109 43
110 130
111 550
112 714
113 192
121 79
126 80
139 346
140 76
154 265
155 64

$$$$

     RDKit          2D

 14 15  0  0  0  0  0  0  0  0999 V2000
    6.1370    1.3606    0.0000 C   0  0  0  0  0  0  0  0  0  0  0  0
   -2.9500   -0.8900    0.0000 C   0  0  0  0  0  0  0  0  0  0  0  0
   -2.9500    0.6100    0.0000 C   0  0  0  0  0  0  0  0  0  0  0  0
   -1.6500   -1.6400    0.0000 C   0  0  0  0  0  0  0  0  0  0  0  0
   -1.6500    1.3600    0.0000 C   0  0  0  0  0  0  0  0  0  0  0  0
    0.9400   -1.6400    0.0000 C   0  0  0  0  0  0  0  0  0  0  0  0
    2.2400   -0.8900    0.0000 C   0  0  0  0  0  0  0  0  0  0  0  0
    0.9400    1.3600    0.0000 C   0  0  0  0  0  0  0  0  0  0  0  0
    4.8381    0.6104    0.0000 C   0  0  0  0  0  0  0  0  0  0  0  0
   -0.3500   -0.8900    0.0000 C   0  0  0  0  0  0  0  0  0  0  0  0
   -0.3500    0.6100    0.0000 C   0  0  0  0  0  0  0  0  0  0  0  0
    2.2400    0.6100    0.0000 C   0  0  0  0  0  0  0  0  0  0  0  0
    4.8383   -0.8896    0.0000 O   0  0  0  0  0  0  0  0  0  0  0  0
    3.5389    1.3602    0.0000 O   0  0  0  0  0  0  0  0  0  0  0  0
  3  2  2  0
  4  2  1  0
  5  3  1  0
  7  6  2  0
  9  1  1  0
 10  4  2  0
 10  6  1  0
 11  5  2  0
 11  8  1  0
 11 10  1  0
 12  7  1  0
 12  8  2  0
 13  9  2  0
 14  9  1  0
 14 12  1  0
M  END
>  <NAME>  (2976) 
2-NAPHTHYL ACETATE

>  <SYNONYMS>  (2976) 


>  <SPECTRUM TYPE>  (2976) 
MS1

>  <INSTRUMENT TYPE>  (2976) 
EI-B

>  <INSTRUMENT>  (2976) 
ESCO EMD-05A

>  <ION MODE>  (2976) 
P

>  <INCHIKEY>  (2976) 
RJNPPEUAJCEUPV-UHFFFAOYSA-N

>  <FORMULA>  (2976) 
C12H10O2

>  <EXACT MASS>  (2976) 
186.06807956

>  <MW>  (2976) 
186

>  <ID>  (2976) 
JP007381

>  <CONTRIBUTOR>  (2976) 
University of Tokyo Team, {Faculty of Engineering, University of Tokyo

>  <COMMENT>  (2976) 
SMILES=CC(=O)Oc(c1)cc(c2)c(ccc2)c1
cas=1523-11-1
InChI=InChI=1S/C12H10O2/c1-9(13)14-12-7-6-10-4-2-3-5-11(10)8-12/h2-8H,1H3
computed SMILES=O=C(OC=1C=CC=2C=CC=CC2C1)C
accession=JP007381
date=2016.01.19 (Created 2008.10.21, modified 2011.05.06)
author=YAMAMOTO M, DEP. CHEMISTRY, FAC. SCIENCE, NARA WOMEN'S UNIV.
license=CC BY-NC-SA
exact mass=186.06808
ionization energy=70 eV
ion type=[M]+*
computed spectral entropy=1.835067413589236
computed normalized entropy=0.6232315991512708
SPLASH=splash10-0006-1900000000-ca350e72685767a29377
submitter=submitter = University of Tokyo Team (Faculty of Engineering, University of Tokyo)
MoNA Rating=3.75

>  <NUM PEAKS>  (2976) 
19

>  <MASS SPECTRAL PEAKS>  (2976) 
39 2.93
43 11.54
50 1.13
51 2
63 4.84
86 1.49
87 1.44
88 1.59
89 4.94
95 1.9
113 1.39
115 22.46
116 6.33
143 1.44
144 99.99
145 9.68
171 1.44
186 10.3
187 1.75

>  <PREDICTED SPECTRUM>  (2976) 
14 25
15 101
16 7
26 33
28 83
29 35
37 2
38 47
39 121
40 14
41 20
42 25
43 274
44 75
50 119
51 141
52 50
53 11
58 3
61 23
62 96
63 171
64 92
65 116
73 83
74 73
75 160
76 118
77 161
78 71
86 43
87 37
88 17
89 167
90 58
100 19
101 72
102 102
103 29
113 103
114 86
115 494
116 243
117 106
127 84
128 69
142 6
143 202
144 999
145 405
146 77
157 0
186 341
187 132

$$$$

     RDKit          2D

 14 15  0  0  0  0  0  0  0  0999 V2000
    2.4790    4.9800    0.0000 C   0  0  0  0  0  0  0  0  0  0  0  0
   -2.7200   -1.0200    0.0000 C   0  0  0  0  0  0  0  0  0  0  0  0
   -2.7200    0.4800    0.0000 C   0  0  0  0  0  0  0  0  0  0  0  0
    2.4800   -1.0200    0.0000 C   0  0  0  0  0  0  0  0  0  0  0  0
   -1.4200   -1.7700    0.0000 C   0  0  0  0  0  0  0  0  0  0  0  0
    1.1800   -1.7700    0.0000 C   0  0  0  0  0  0  0  0  0  0  0  0
   -1.4200    1.2300    0.0000 C   0  0  0  0  0  0  0  0  0  0  0  0
    2.4800    0.4800    0.0000 C   0  0  0  0  0  0  0  0  0  0  0  0
    2.4790    3.4800    0.0000 C   0  0  0  0  0  0  0  0  0  0  0  0
   -0.1200   -1.0200    0.0000 C   0  0  0  0  0  0  0  0  0  0  0  0
   -0.1200    0.4800    0.0000 C   0  0  0  0  0  0  0  0  0  0  0  0
    1.1800    1.2300    0.0000 C   0  0  0  0  0  0  0  0  0  0  0  0
    3.7781    2.7300    0.0000 O   0  0  0  0  0  0  0  0  0  0  0  0
    1.1800    2.7300    0.0000 O   0  0  0  0  0  0  0  0  0  0  0  0
  3  2  2  0
  5  2  1  0
  6  4  2  0
  7  3  1  0
  8  4  1  0
  9  1  1  0
 10  5  2  0
 10  6  1  0
 11  7  2  0
 11 10  1  0
 12  8  2  0
 12 11  1  0
 13  9  2  0
 14  9  1  0
 14 12  1  0
M  END
>  <NAME>  (2977) 
1-NAPHTHYL ACETATE

>  <SYNONYMS>  (2977) 


>  <SPECTRUM TYPE>  (2977) 
MS1

>  <INSTRUMENT TYPE>  (2977) 
EI-B

>  <INSTRUMENT>  (2977) 
ESCO EMD-05A

>  <ION MODE>  (2977) 
P

>  <INCHIKEY>  (2977) 
VGKONPUVOVVNSU-UHFFFAOYSA-N

>  <FORMULA>  (2977) 
C12H10O2

>  <EXACT MASS>  (2977) 
186.06807956

>  <MW>  (2977) 
186

>  <ID>  (2977) 
JP007380

>  <CONTRIBUTOR>  (2977) 
University of Tokyo Team, {Faculty of Engineering, University of Tokyo

>  <COMMENT>  (2977) 
SMILES=CC(=O)Oc(c1)c(c2)c(ccc2)cc1
cas=830-81-9
InChI=InChI=1S/C12H10O2/c1-9(13)14-12-8-4-6-10-5-2-3-7-11(10)12/h2-8H,1H3
computed SMILES=O=C(OC1=CC=CC=2C=CC=CC12)C
accession=JP007380
date=2016.01.19 (Created 2008.10.21, modified 2011.05.06)
author=YAMAMOTO M, DEP. CHEMISTRY, FAC. SCIENCE, NARA WOMEN'S UNIV.
license=CC BY-NC-SA
exact mass=186.06808
ionization energy=70 eV
ion type=[M]+*
computed spectral entropy=1.740149902987687
computed normalized entropy=0.7002878370244402
SPLASH=splash10-0006-1900000000-3d6c1aec7f6439fc12f8
submitter=submitter = University of Tokyo Team (Faculty of Engineering, University of Tokyo)
MoNA Rating=3.75

>  <NUM PEAKS>  (2977) 
12

>  <MASS SPECTRAL PEAKS>  (2977) 
15 3.86
39 1.49
43 13.57
63 4.07
89 4.88
114 2.24
115 30.21
116 16.36
144 99.99
145 11.88
186 15.13
187 1.96

>  <PREDICTED SPECTRUM>  (2977) 
14 25
15 99
26 23
27 51
28 71
29 28
37 11
38 51
39 162
40 42
41 52
42 51
43 291
44 73
50 137
51 184
52 76
53 7
61 18
62 121
63 192
64 112
65 86
73 60
74 77
75 137
76 127
77 157
78 37
86 50
87 79
88 76
89 205
90 62
99 19
100 39
101 98
102 29
113 94
114 154
115 578
116 304
117 119
126 34
127 55
128 2
142 21
143 276
144 999
145 373
146 74
186 271
187 120

$$$$

     RDKit          2D

 11 11  0  0  0  0  0  0  0  0999 V2000
   -4.8712    2.0071    0.0000 C   0  0  0  0  0  0  0  0  0  0  0  0
    2.9231    0.5071    0.0000 C   0  0  0  0  0  0  0  0  0  0  0  0
    2.9236    2.0079    0.0000 C   0  0  0  0  0  0  0  0  0  0  0  0
    1.6236   -0.2437    0.0000 C   0  0  0  0  0  0  0  0  0  0  0  0
    1.6245    2.7579    0.0000 C   0  0  0  0  0  0  0  0  0  0  0  0
    0.3245    0.5063    0.0000 C   0  0  0  0  0  0  0  0  0  0  0  0
   -2.2731    2.0071    0.0000 C   0  0  0  0  0  0  0  0  0  0  0  0
   -0.9740    2.7571    0.0000 C   0  0  0  0  0  0  0  0  0  0  0  0
   -3.5721    2.7571    0.0000 C   0  0  0  0  0  0  0  0  0  0  0  0
    0.3250    2.0071    0.0000 C   0  0  0  0  0  0  0  0  0  0  0  0
   -3.5721    4.2571    0.0000 O   0  0  0  0  0  0  0  0  0  0  0  0
  3  2  2  0
  4  2  1  0
  5  3  1  0
  6  4  2  0
  7  8  2  0
  9  1  1  0
  9  7  1  0
 10  5  2  0
 10  6  1  0
 10  8  1  0
 11  9  2  0
M  END
>  <NAME>  (2978) 
4-PHENYL-3-BUTEN-2-ONE

>  <SYNONYMS>  (2978) 
BENZYLIDENEACETONE

>  <SPECTRUM TYPE>  (2978) 
MS1

>  <INSTRUMENT TYPE>  (2978) 
EI-B

>  <INSTRUMENT>  (2978) 
HITACHI RMU-6M

>  <ION MODE>  (2978) 
P

>  <INCHIKEY>  (2978) 
BWHOZHOGCMHOBV-BQYQJAHWSA-N

>  <FORMULA>  (2978) 
C10H10O

>  <EXACT MASS>  (2978) 
146.07316494

>  <MW>  (2978) 
146

>  <ID>  (2978) 
JP007378

>  <CONTRIBUTOR>  (2978) 
University of Tokyo Team, {Faculty of Engineering, University of Tokyo

>  <COMMENT>  (2978) 
SMILES=CC(=O)C=Cc(c1)cccc1
cas=5876-76-6
InChI=InChI=1S/C10H10O/c1-9(11)7-8-10-5-3-2-4-6-10/h2-8H,1H3/b8-7+
computed SMILES=O=C(C=CC=1C=CC=CC1)C
accession=JP007378
date=2016.01.19 (Created 2008.10.21, modified 2011.05.06)
author=YAMAMOTO M, DEP. CHEMISTRY, FAC. SCIENCE, NARA WOMEN'S UNIV.
license=CC BY-NC-SA
exact mass=146.07316
ionization energy=70 eV
ion type=[M]+*
computed spectral entropy=2.748551700978246
computed normalized entropy=0.7450912221902476
SPLASH=splash10-0f7k-4900000000-8295a2d505aa2a9f77ce
submitter=submitter = University of Tokyo Team (Faculty of Engineering, University of Tokyo)
MoNA Rating=3.75

>  <NUM PEAKS>  (2978) 
40

>  <MASS SPECTRAL PEAKS>  (2978) 
15 4.54
27 3.12
28 2
38 2
39 6.19
43 25.34
50 9.55
51 28.95
51.5 4.66
52 4.18
53 1.24
57.5 1.24
58 2.06
62 2.77
63 6.78
64 1.06
65 1.77
65.5 3.83
73 1.65
74 4.65
75 4.88
76 5.9
77 42.52
78 4.18
82 1.18
89 1.23
91 2.3
101 1.83
102 9.73
103 80.5
104 8.2
105 1.06
115 3.24
117 2.48
131 99.99
132 10.26
144 1.18
145 42.17
146 74.13
147 8.26

>  <PREDICTED SPECTRUM>  (2978) 
14 23
15 89
18 15
25 8
26 68
27 143
28 34
29 49
37 60
38 113
39 250
40 50
41 8
42 12
43 559
44 40
50 292
51 492
52 205
53 118
55 74
61 37
62 130
63 227
64 120
65 179
66 73
69 83
74 117
75 246
76 244
77 560
78 203
89 8
92 57
93 34
98 11
101 119
102 539
103 717
104 230
105 18
115 52
117 18
128 27
130 27
131 999
132 353
133 16
144 28
145 444
146 609
147 227

$$$$

     RDKit          2D

  6  5  0  0  0  0  0  0  0  0999 V2000
   -4.5466    3.3750    0.0000 C   0  0  0  0  0  0  0  0  0  0  0  0
   -0.6495    2.6250    0.0000 C   0  0  0  0  0  0  0  0  0  0  0  0
    0.6495    3.3750    0.0000 C   0  0  0  0  0  0  0  0  0  0  0  0
   -1.9486    3.3750    0.0000 C   0  0  0  0  0  0  0  0  0  0  0  0
    1.9486    2.6250    0.0000 N   0  0  0  0  0  0  0  0  0  0  0  0
   -3.2476    2.6250    0.0000 O   0  0  0  0  0  0  0  0  0  0  0  0
  3  2  1  0
  4  2  1  0
  5  3  1  0
  6  1  1  0
  6  4  1  0
M  END
>  <NAME>  (2979) 
3-AMINOPROPYL METHYL ETHER

>  <SYNONYMS>  (2979) 
3-METHOXY-1-PROPANAMINE

>  <SPECTRUM TYPE>  (2979) 
MS1

>  <INSTRUMENT TYPE>  (2979) 
EI-B

>  <INSTRUMENT>  (2979) 
HITACHI RMU-6M

>  <ION MODE>  (2979) 
P

>  <INCHIKEY>  (2979) 
FAXDZWQIWUSWJH-UHFFFAOYSA-N

>  <FORMULA>  (2979) 
C4H11NO

>  <EXACT MASS>  (2979) 
89.084063972

>  <MW>  (2979) 
89

>  <ID>  (2979) 
JP007376

>  <CONTRIBUTOR>  (2979) 
University of Tokyo Team, {Faculty of Engineering, University of Tokyo

>  <COMMENT>  (2979) 
SMILES=NCCCOC
cas=5332-73-0
InChI=InChI=1S/C4H11NO/c1-6-4-2-3-5/h2-5H2,1H3
computed SMILES=O(C)CCCN
accession=JP007376
date=2016.01.19 (Created 2008.10.21, modified 2011.05.06)
author=YAMAMOTO M, DEP. CHEMISTRY, FAC. SCIENCE, NARA WOMEN'S UNIV.
license=CC BY-NC-SA
exact mass=89.08406
ionization energy=70 eV
ion type=[M]+*
computed spectral entropy=2.1225488934495846
computed normalized entropy=0.6769423724867577
SPLASH=splash10-001i-9000000000-2f28e8279291e2309dff
submitter=submitter = University of Tokyo Team (Faculty of Engineering, University of Tokyo)
MoNA Rating=3.75

>  <NUM PEAKS>  (2979) 
23

>  <MASS SPECTRAL PEAKS>  (2979) 
15 5.17
18 5.57
27 2.83
28 7.96
29 3.89
30 99.99
31 3.23
33 2.25
39 1.24
41 2.96
42 2.92
43 1.53
44 3.54
45 15.62
56 10.22
57 5.97
58 1.06
59 2.57
71 2.08
72 23.36
73 1.06
74 5.62
89 1.41

>  <PREDICTED SPECTRUM>  (2979) 
14 48
15 134
16 39
17 60
18 131
19 14
26 26
27 115
28 302
29 274
30 999
31 295
32 52
33 60
38 46
39 139
40 109
41 150
42 260
43 307
44 171
45 571
46 153
54 31
55 31
56 166
57 341
58 84
59 218
71 21
72 116
74 70
88 11
89 91
90 55

$$$$

     RDKit          2D

  6  5  0  0  0  0  0  0  0  0999 V2000
   -4.5466    3.3750    0.0000 C   0  0  0  0  0  0  0  0  0  0  0  0
    1.9486    2.6250    0.0000 C   0  0  0  0  0  0  0  0  0  0  0  0
   -1.9486    3.3750    0.0000 C   0  0  0  0  0  0  0  0  0  0  0  0
   -0.6495    2.6250    0.0000 C   0  0  0  0  0  0  0  0  0  0  0  0
   -3.2476    2.6250    0.0000 O   0  0  0  0  0  0  0  0  0  0  0  0
    0.6495    3.3750    0.0000 O   0  0  0  0  0  0  0  0  0  0  0  0
  4  3  1  0
  5  1  1  0
  5  3  1  0
  6  2  1  0
  6  4  1  0
M  END
>  <NAME>  (2980) 
1,2-DIMETHOXYETHANE

>  <SYNONYMS>  (2980) 


>  <SPECTRUM TYPE>  (2980) 
MS1

>  <INSTRUMENT TYPE>  (2980) 
EI-B

>  <INSTRUMENT>  (2980) 
HITACHI RMU-6M

>  <ION MODE>  (2980) 
P

>  <INCHIKEY>  (2980) 
XTHFKEDIFFGKHM-UHFFFAOYSA-N

>  <FORMULA>  (2980) 
C4H10O2

>  <EXACT MASS>  (2980) 
90.06807956

>  <MW>  (2980) 
90

>  <ID>  (2980) 
JP007374

>  <CONTRIBUTOR>  (2980) 
University of Tokyo Team, {Faculty of Engineering, University of Tokyo

>  <COMMENT>  (2980) 
SMILES=COCCOC
cas=110-71-4
InChI=InChI=1S/C4H10O2/c1-5-3-4-6-2/h3-4H2,1-2H3
computed SMILES=O(C)CCOC
accession=JP007374
date=2016.01.19 (Created 2008.10.21, modified 2011.05.06)
author=YAMAMOTO M, DEP. CHEMISTRY, FAC. SCIENCE, NARA WOMEN'S UNIV.
license=CC BY-NC-SA
exact mass=90.06808
ionization energy=70 eV
ion type=[M]+*
computed spectral entropy=1.6110809051306145
computed normalized entropy=0.6483466512788574
SPLASH=splash10-0002-9000000000-e7b250fec25ad146c602
submitter=submitter = University of Tokyo Team (Faculty of Engineering, University of Tokyo)
MoNA Rating=3.75

>  <NUM PEAKS>  (2980) 
12

>  <MASS SPECTRAL PEAKS>  (2980) 
15 11.86
27 2.45
28 3.59
29 11.51
31 5.08
43 3.72
45 99.99
46 2.28
58 5.59
59 2.96
60 12.54
90 10.82

>  <PREDICTED SPECTRUM>  (2980) 
14 26
15 153
19 4
25 5
26 34
27 135
28 136
29 328
30 142
31 238
32 68
33 114
43 277
44 42
45 999
46 170
47 46
57 1
58 631
59 176
60 112
89 11
90 47

$$$$

     RDKit          2D

  8  7  0  0  0  0  0  0  0  0999 V2000
   -1.6582    1.5531    0.0000 C   0  0  0  0  0  0  0  0  0  0  0  0
    0.2701    1.5531    0.0000 C   0  0  0  0  0  0  0  0  0  0  0  0
    1.9040    2.7022    0.0000 C   0  0  0  0  0  0  0  0  0  0  0  0
   -1.9931    3.4522    0.0000 C   0  0  0  0  0  0  0  0  0  0  0  0
   -3.2921    2.7022    0.0000 C   0  0  0  0  0  0  0  0  0  0  0  0
   -0.6941    2.7022    0.0000 C   0  0  0  0  0  0  0  0  0  0  0  0
   -4.5912    3.4522    0.0000 O   0  0  0  0  0  0  0  0  0  0  0  0
    0.6050    3.4522    0.0000 O   0  0  0  0  0  0  0  0  0  0  0  0
  5  4  1  0
  6  1  1  0
  6  2  1  0
  6  4  1  0
  7  5  1  0
  8  3  1  0
  8  6  1  0
M  END
>  <NAME>  (2981) 
3-METHOXY-3-METHYL-1-BUTANOL

>  <SYNONYMS>  (2981) 


>  <SPECTRUM TYPE>  (2981) 
MS1

>  <INSTRUMENT TYPE>  (2981) 
EI-B

>  <INSTRUMENT>  (2981) 
HITACHI RMU-6M

>  <ION MODE>  (2981) 
P

>  <INCHIKEY>  (2981) 
MFKRHJVUCZRDTF-UHFFFAOYSA-N

>  <FORMULA>  (2981) 
C6H14O2

>  <EXACT MASS>  (2981) 
118.099379688

>  <MW>  (2981) 
118

>  <ID>  (2981) 
JP007373

>  <CONTRIBUTOR>  (2981) 
University of Tokyo Team, {Faculty of Engineering, University of Tokyo

>  <COMMENT>  (2981) 
SMILES=OCCC(C)(C)OC
cas=56539-66-3
InChI=InChI=1S/C6H14O2/c1-6(2,8-3)4-5-7/h7H,4-5H2,1-3H3
computed SMILES=OCCC(OC)(C)C
accession=JP007373
date=2016.01.19 (Created 2008.10.21, modified 2011.05.06)
author=YAMAMOTO M, DEP. CHEMISTRY, FAC. SCIENCE, NARA WOMEN'S UNIV.
license=CC BY-NC-SA
exact mass=118.09938
ionization energy=70 eV
ion type=[M]+*
computed spectral entropy=2.3260505985434117
computed normalized entropy=0.7226282482141583
SPLASH=splash10-00di-9000000000-29ee0abad224625b5740
submitter=submitter = University of Tokyo Team (Faculty of Engineering, University of Tokyo)
MoNA Rating=3.75

>  <NUM PEAKS>  (2981) 
25

>  <MASS SPECTRAL PEAKS>  (2981) 
15 2.57
27 4.91
28 2.11
29 5.97
31 7.18
33 8.61
39 4.91
40 1.27
41 17.76
42 2.69
43 8.45
45 5.02
53 4.17
55 4.17
56 4.91
57 2.48
59 1.79
69 8.51
70 1
71 3.75
72 1.21
73 99.99
74 4.39
85 6.23
103 9.51

>  <PREDICTED SPECTRUM>  (2981) 
15 48
26 2
27 151
28 48
29 185
31 145
32 34
33 69
37 5
38 41
39 248
40 78
41 508
42 180
43 326
44 87
45 492
47 20
50 12
51 37
52 33
53 195
54 40
55 414
56 140
57 197
59 146
67 100
69 564
70 105
71 238
72 78
73 999
74 177
75 23
81 15
85 43
86 56
87 306
88 99
103 153
104 0

$$$$

     RDKit          2D

  7  6  0  0  0  0  0  0  0  0999 V2000
   -0.6495    1.1250    0.0000 C   0  0  0  0  0  0  0  0  0  0  0  0
    1.9486    2.6250    0.0000 C   0  0  0  0  0  0  0  0  0  0  0  0
   -1.9486    3.3750    0.0000 C   0  0  0  0  0  0  0  0  0  0  0  0
   -3.2476    2.6250    0.0000 C   0  0  0  0  0  0  0  0  0  0  0  0
   -0.6495    2.6250    0.0000 C   0  0  0  0  0  0  0  0  0  0  0  0
   -4.5466    3.3750    0.0000 O   0  0  0  0  0  0  0  0  0  0  0  0
    0.6495    3.3750    0.0000 O   0  0  0  0  0  0  0  0  0  0  0  0
  4  3  1  0
  5  1  1  0
  5  3  1  0
  6  4  1  0
  7  2  1  0
  7  5  1  0
M  END
>  <NAME>  (2982) 
3-METHOXY-1-BUTANOL

>  <SYNONYMS>  (2982) 


>  <SPECTRUM TYPE>  (2982) 
MS1

>  <INSTRUMENT TYPE>  (2982) 
EI-B

>  <INSTRUMENT>  (2982) 
HITACHI RMU-6M

>  <ION MODE>  (2982) 
P

>  <INCHIKEY>  (2982) 
JSGVZVOGOQILFM-UHFFFAOYSA-N

>  <FORMULA>  (2982) 
C5H12O2

>  <EXACT MASS>  (2982) 
104.083729624

>  <MW>  (2982) 
104

>  <ID>  (2982) 
JP007372

>  <CONTRIBUTOR>  (2982) 
University of Tokyo Team, {Faculty of Engineering, University of Tokyo

>  <COMMENT>  (2982) 
SMILES=OCCC(C)OC
cas=2517-43-3
InChI=InChI=1S/C5H12O2/c1-5(7-2)3-4-6/h5-6H,3-4H2,1-2H3
computed SMILES=OCCC(OC)C
accession=JP007372
date=2016.01.19 (Created 2008.10.21, modified 2011.05.06)
author=YAMAMOTO M, DEP. CHEMISTRY, FAC. SCIENCE, NARA WOMEN'S UNIV.
license=CC BY-NC-SA
exact mass=104.08373
ionization energy=70 eV
ion type=[M]+*
computed spectral entropy=2.1569597901498074
computed normalized entropy=0.6978098239337804
SPLASH=splash10-0a4i-9000000000-1a6f6dd44387247d4bcb
submitter=submitter = University of Tokyo Team (Faculty of Engineering, University of Tokyo)
MoNA Rating=3.75

>  <NUM PEAKS>  (2982) 
22

>  <MASS SPECTRAL PEAKS>  (2982) 
14 1.57
15 4.57
27 5.12
28 1.7
29 10.46
31 17.6
33 8.21
39 3.41
41 6.43
42 4.71
43 6.59
45 4.18
55 4.26
56 1.46
57 4.73
58 2.87
59 99.99
60 3.65
71 3.87
72 2.17
86 2.17
89 6.51

>  <PREDICTED SPECTRUM>  (2982) 
14 47
15 161
16 2
17 10
18 30
19 37
26 37
27 233
28 156
29 330
30 86
31 519
32 36
33 114
36 3
38 30
39 148
40 92
41 473
42 384
43 511
44 130
45 730
46 118
47 93
51 8
52 2
53 94
55 252
57 212
58 108
59 999
60 268
61 91
71 185
73 742
74 206
75 20
89 176
104 49

$$$$

     RDKit          2D

  7  6  0  0  0  0  0  0  0  0999 V2000
    1.9486    2.6250    0.0000 C   0  0  0  0  0  0  0  0  0  0  0  0
   -4.5466    3.3750    0.0000 C   0  0  0  0  0  0  0  0  0  0  0  0
    0.6495    3.3750    0.0000 C   0  0  0  0  0  0  0  0  0  0  0  0
   -1.9486    3.3750    0.0000 C   0  0  0  0  0  0  0  0  0  0  0  0
   -0.6495    2.6250    0.0000 C   0  0  0  0  0  0  0  0  0  0  0  0
   -0.6495    1.1250    0.0000 O   0  0  0  0  0  0  0  0  0  0  0  0
   -3.2476    2.6250    0.0000 O   0  0  0  0  0  0  0  0  0  0  0  0
  3  1  1  0
  5  3  1  0
  5  4  1  0
  6  5  1  0
  7  2  1  0
  7  4  1  0
M  END
>  <NAME>  (2983) 
1-METHOXY-2-BUTANOL

>  <SYNONYMS>  (2983) 


>  <SPECTRUM TYPE>  (2983) 
MS1

>  <INSTRUMENT TYPE>  (2983) 
EI-B

>  <INSTRUMENT>  (2983) 
HITACHI RMU-6M

>  <ION MODE>  (2983) 
P

>  <INCHIKEY>  (2983) 
CSZZMFWKAQEMPB-UHFFFAOYSA-N

>  <FORMULA>  (2983) 
C5H12O2

>  <EXACT MASS>  (2983) 
104.083729624

>  <MW>  (2983) 
104

>  <ID>  (2983) 
JP007371

>  <CONTRIBUTOR>  (2983) 
University of Tokyo Team, {Faculty of Engineering, University of Tokyo

>  <COMMENT>  (2983) 
SMILES=CCC(O)COC
cas=53778-73-7
InChI=InChI=1S/C5H12O2/c1-3-5(6)4-7-2/h5-6H,3-4H2,1-2H3
computed SMILES=OC(COC)CC
accession=JP007371
date=2016.01.19 (Created 2008.10.21, modified 2011.05.06)
author=YAMAMOTO M, DEP. CHEMISTRY, FAC. SCIENCE, NARA WOMEN'S UNIV.
license=CC BY-NC-SA
exact mass=104.08373
ionization energy=70 eV
ion type=[M]+*
computed spectral entropy=2.463221263055806
computed normalized entropy=0.7750722280201663
SPLASH=splash10-0a4i-9000000000-7e39fb777385d63d8b3d
submitter=submitter = University of Tokyo Team (Faculty of Engineering, University of Tokyo)
MoNA Rating=3.75

>  <NUM PEAKS>  (2983) 
24

>  <MASS SPECTRAL PEAKS>  (2983) 
15 11.09
26 1.24
27 8.67
28 2.41
29 7.98
31 54.77
33 2.72
39 3.28
41 21
42 1.54
43 13.94
44 2.29
45 42.87
46 3.22
47 23.04
55 3.16
57 5.26
58 36.37
59 99.99
60 3.47
71 1.98
73 6.69
75 20.63
104 0.99

>  <PREDICTED SPECTRUM>  (2983) 
14 17
15 80
19 41
25 1
26 51
27 248
28 69
29 374
30 35
31 482
32 26
33 110
37 1
38 50
39 220
40 71
41 398
42 163
43 489
44 32
45 826
46 68
47 33
55 93
56 90
57 440
58 152
59 999
60 131
61 45
72 159
75 281

$$$$

     RDKit          2D

  5  4  0  0  0  0  0  0  0  0999 V2000
   -3.8971    2.2500    0.0000 C   0  0  0  0  0  0  0  0  0  0  0  0
    0.0000    1.5000    0.0000 C   0  0  0  0  0  0  0  0  0  0  0  0
   -1.2990    2.2500    0.0000 C   0  0  0  0  0  0  0  0  0  0  0  0
    1.2990    2.2500    0.0000 O   0  0  0  0  0  0  0  0  0  0  0  0
   -2.5981    1.5000    0.0000 O   0  0  0  0  0  0  0  0  0  0  0  0
  3  2  1  0
  4  2  1  0
  5  1  1  0
  5  3  1  0
M  END
>  <NAME>  (2984) 
2-METHOXYETHANOL

>  <SYNONYMS>  (2984) 
METHYL CELLOSOLVE

>  <SPECTRUM TYPE>  (2984) 
MS1

>  <INSTRUMENT TYPE>  (2984) 
EI-B

>  <INSTRUMENT>  (2984) 
HITACHI RMU-6M

>  <ION MODE>  (2984) 
P

>  <INCHIKEY>  (2984) 
XNWFRZJHXBZDAG-UHFFFAOYSA-N

>  <FORMULA>  (2984) 
C3H8O2

>  <EXACT MASS>  (2984) 
76.052429496

>  <MW>  (2984) 
76

>  <ID>  (2984) 
JP007369

>  <CONTRIBUTOR>  (2984) 
University of Tokyo Team, {Faculty of Engineering, University of Tokyo

>  <COMMENT>  (2984) 
SMILES=COCCO
cas=109-86-4
InChI=InChI=1S/C3H8O2/c1-5-3-2-4/h4H,2-3H2,1H3
computed SMILES=OCCOC
accession=JP007369
date=2016.01.19 (Created 2008.10.21, modified 2011.05.06)
author=YAMAMOTO M, DEP. CHEMISTRY, FAC. SCIENCE, NARA WOMEN'S UNIV.
license=CC BY-NC-SA
exact mass=76.05243
ionization energy=70 eV
ion type=[M]+*
computed spectral entropy=1.7870259946600138
computed normalized entropy=0.6598939687058504
SPLASH=splash10-0002-9000000000-ff9aecff13c337356d4e
submitter=submitter = University of Tokyo Team (Faculty of Engineering, University of Tokyo)
MoNA Rating=3.75

>  <NUM PEAKS>  (2984) 
15

>  <MASS SPECTRAL PEAKS>  (2984) 
14 1.21
15 15.94
27 4.64
28 2.11
29 15.99
30 1.06
31 16.75
42 1.46
43 6.86
44 1.36
45 99.99
46 4.13
47 7.82
58 3.63
76 8.68

>  <PREDICTED SPECTRUM>  (2984) 
14 85
15 214
16 34
17 22
18 38
19 82
25 28
26 99
27 245
28 143
29 349
30 188
31 444
32 115
33 115
34 1
35 3
42 132
43 279
44 169
45 999
46 292
47 61
57 34
58 41
59 46
61 136
75 49
76 117
77 12

$$$$

     RDKit          2D

  8  7  0  0  0  0  0  0  0  0999 V2000
   -0.6495    4.1250    0.0000 C   0  0  0  0  0  0  0  0  0  0  0  0
   -1.9486    4.8750    0.0000 C   0  0  0  0  0  0  0  0  0  0  0  0
    0.6495    4.8750    0.0000 C   0  0  0  0  0  0  0  0  0  0  0  0
   -3.2476    4.1250    0.0000 C   0  0  0  0  0  0  0  0  0  0  0  0
    1.9486    4.1250    0.0000 C   0  0  0  0  0  0  0  0  0  0  0  0
   -4.5466    4.8750    0.0000 C   0  0  0  0  0  0  0  0  0  0  0  0
    3.2476    3.3750    0.0000 N   0  0  0  0  0  0  0  0  0  0  0  0
   -5.8457    5.6250    0.0000 N   0  0  0  0  0  0  0  0  0  0  0  0
  2  1  1  0
  3  1  1  0
  4  2  1  0
  5  3  1  0
  6  4  1  0
  7  5  3  0
  8  6  3  0
M  END
>  <NAME>  (2985) 
ADIPONITRILE

>  <SYNONYMS>  (2985) 
HEXANEDINITRILE

>  <SPECTRUM TYPE>  (2985) 
MS1

>  <INSTRUMENT TYPE>  (2985) 
EI-B

>  <INSTRUMENT>  (2985) 
HITACHI RMU-6M

>  <ION MODE>  (2985) 
P

>  <INCHIKEY>  (2985) 
BTGRAWJCKBQKAO-UHFFFAOYSA-N

>  <FORMULA>  (2985) 
C6H8N2

>  <EXACT MASS>  (2985) 
108.06874825599999

>  <MW>  (2985) 
108

>  <ID>  (2985) 
JP007368

>  <CONTRIBUTOR>  (2985) 
University of Tokyo Team, {Faculty of Engineering, University of Tokyo

>  <COMMENT>  (2985) 
SMILES=N#CCCCCC#N
cas=111-69-3
InChI=InChI=1S/C6H8N2/c7-5-3-1-2-4-6-8/h1-4H2
computed SMILES=N#CCCCCC#N
accession=JP007368
date=2016.01.19 (Created 2008.10.21, modified 2011.05.06)
author=YAMAMOTO M, DEP. CHEMISTRY, FAC. SCIENCE, NARA WOMEN'S UNIV.
license=CC BY-NC-SA
exact mass=108.06875
ionization energy=70 eV
ion type=[M]+*
computed spectral entropy=2.3555355046087127
computed normalized entropy=0.7411880447446101
SPLASH=splash10-0fr6-9000000000-fa4c798c5039209f7367
submitter=submitter = University of Tokyo Team (Faculty of Engineering, University of Tokyo)
MoNA Rating=3.75

>  <NUM PEAKS>  (2985) 
24

>  <MASS SPECTRAL PEAKS>  (2985) 
15 3.15
26 6.57
27 19.52
28 10.93
37 2.97
38 4.13
39 19.5
40 8.58
41 99.99
42 6.31
50 1.74
51 4.13
52 9.42
53 5.28
54 68.04
55 38.27
56 1.68
64 2.93
66 5.74
67 3.48
68 82.95
69 4.04
80 2.36
107 1.02

>  <PREDICTED SPECTRUM>  (2985) 
14 50
15 93
16 12
18 9
25 58
26 236
27 456
28 385
29 179
30 76
32 10
37 96
38 172
39 284
40 309
41 477
42 245
49 45
50 97
51 242
52 328
53 275
54 557
55 278
56 16
57 0
62 30
63 67
64 94
65 103
66 167
67 185
68 999
69 185
70 45
76 22
78 5
79 140
80 174
81 16
91 35
107 117
108 102

$$$$

     RDKit          2D

  5  4  0  0  0  0  0  0  0  0999 V2000
    1.9486    1.8750    0.0000 C   0  0  0  0  0  0  0  0  0  0  0  0
    0.6495    2.6250    0.0000 C   0  0  0  0  0  0  0  0  0  0  0  0
   -0.6495    1.8750    0.0000 C   0  0  0  0  0  0  0  0  0  0  0  0
   -1.9486    2.6250    0.0000 C   0  0  0  0  0  0  0  0  0  0  0  0
   -3.2476    3.3750    0.0000 N   0  0  0  0  0  0  0  0  0  0  0  0
  2  1  2  0
  3  2  1  0
  4  3  1  0
  5  4  3  0
M  END
>  <NAME>  (2986) 
ALLYL CYANIDE

>  <SYNONYMS>  (2986) 
3-BUTENENITRILE

>  <SPECTRUM TYPE>  (2986) 
MS1

>  <INSTRUMENT TYPE>  (2986) 
EI-B

>  <INSTRUMENT>  (2986) 
HITACHI RMU-6M

>  <ION MODE>  (2986) 
P

>  <INCHIKEY>  (2986) 
SJNALLRHIVGIBI-UHFFFAOYSA-N

>  <FORMULA>  (2986) 
C4H5N

>  <EXACT MASS>  (2986) 
67.04219916

>  <MW>  (2986) 
67

>  <ID>  (2986) 
JP007367

>  <CONTRIBUTOR>  (2986) 
University of Tokyo Team, {Faculty of Engineering, University of Tokyo

>  <COMMENT>  (2986) 
SMILES=C=CCC#N
cas=109-75-1
InChI=InChI=1S/C4H5N/c1-2-3-4-5/h2H,1,3H2
computed SMILES=N#CCC=C
computed normalized entropy=0.7361267218131274
accession=JP007367
date=2016.01.19 (Created 2008.10.21, modified 2011.05.06)
author=YAMAMOTO M, DEP. CHEMISTRY, FAC. SCIENCE, NARA WOMEN'S UNIV.
license=CC BY-NC-SA
exact mass=67.0422
ionization energy=70 eV
ion type=[M]+*
computed spectral entropy=2.339450347879686
SPLASH=splash10-000f-9000000000-574ce4c69ef2a03bee74
submitter=submitter = University of Tokyo Team (Faculty of Engineering, University of Tokyo)
MoNA Rating=3.75

>  <NUM PEAKS>  (2986) 
24

>  <MASS SPECTRAL PEAKS>  (2986) 
14 1.11
15 1.7
25 1.37
26 5.63
27 23.83
28 5.24
32.5 1.63
36 1.5
37 10.41
38 13.55
39 36.53
40 19.77
41 99.99
42 2.81
50 1.37
51 2.29
53 7.53
62 1.31
63 2.94
64 7.14
65 2.03
66 13.03
67 44
68 2.29

>  <PREDICTED SPECTRUM>  (2986) 
14 67
15 86
18 18
25 127
26 407
27 742
28 657
29 226
30 59
36 110
37 199
38 365
39 834
40 569
41 999
49 63
50 185
51 314
52 306
62 83
63 116
64 151
65 92
66 685
67 493
68 88

$$$$

     RDKit          2D

  4  3  0  0  0  0  0  0  0  0999 V2000
    0.0000    0.0000    0.0000 C   0  0  0  0  0  0  0  0  0  0  0  0
    0.0000    1.5000    0.0000 C   0  0  0  0  0  0  0  0  0  0  0  0
   -1.2990    2.2500    0.0000 C   0  0  0  0  0  0  0  0  0  0  0  0
   -2.5981    3.0000    0.0000 N   0  0  0  0  0  0  0  0  0  0  0  0
  2  1  2  0
  3  2  1  0
  4  3  3  0
M  END
>  <NAME>  (2987) 
ACRYLONITRILE

>  <SYNONYMS>  (2987) 
2-PROPENENITRILE

>  <SPECTRUM TYPE>  (2987) 
MS1

>  <INSTRUMENT TYPE>  (2987) 
EI-B

>  <INSTRUMENT>  (2987) 
HITACHI RMU-6M

>  <ION MODE>  (2987) 
P

>  <INCHIKEY>  (2987) 
NLHHRLWOUZZQLW-UHFFFAOYSA-N

>  <FORMULA>  (2987) 
C3H3N

>  <EXACT MASS>  (2987) 
53.026549096

>  <MW>  (2987) 
53

>  <ID>  (2987) 
JP007366

>  <CONTRIBUTOR>  (2987) 
University of Tokyo Team, {Faculty of Engineering, University of Tokyo

>  <COMMENT>  (2987) 
SMILES=C=CC#N
cas=107-13-1
InChI=InChI=1S/C3H3N/c1-2-3-4/h2H,1H2
computed SMILES=N#CC=C
accession=JP007366
date=2016.01.19 (Created 2008.10.21, modified 2011.05.06)
author=YAMAMOTO M, DEP. CHEMISTRY, FAC. SCIENCE, NARA WOMEN'S UNIV.
license=CC BY-NC-SA
exact mass=53.02655
ionization energy=70 eV
ion type=[M]+*
computed spectral entropy=1.8113951083734106
computed normalized entropy=0.6863795977624667
SPLASH=splash10-0udi-9000000000-71e029b11b3af3c757fa
submitter=submitter = University of Tokyo Team (Faculty of Engineering, University of Tokyo)
MoNA Rating=3.75

>  <NUM PEAKS>  (2987) 
14

>  <MASS SPECTRAL PEAKS>  (2987) 
24 2.01
25 5.52
26 71.77
27 9.89
28 3.59
36 1.52
37 3.18
38 4.01
39 1.38
50 6.71
51 28.99
52 67.68
53 99.99
54 3.53

>  <PREDICTED SPECTRUM>  (2987) 
14 44
18 6
25 130
26 293
27 423
28 331
32 6
36 52
37 179
38 294
39 324
40 243
41 355
49 80
50 258
51 383
52 593
53 999
54 293

$$$$

     RDKit          2D

  5  4  0  0  0  0  0  0  0  0999 V2000
   -3.8971    2.2500    0.0000 C   0  0  0  0  0  0  0  0  0  0  0  0
    0.0000    1.5000    0.0000 C   0  0  0  0  0  0  0  0  0  0  0  0
   -1.2990    2.2500    0.0000 C   0  0  0  0  0  0  0  0  0  0  0  0
    1.2990    2.2500    0.0000 N   0  0  0  0  0  0  0  0  0  0  0  0
   -2.5981    1.5000    0.0000 O   0  0  0  0  0  0  0  0  0  0  0  0
  3  2  1  0
  4  2  1  0
  5  1  1  0
  5  3  1  0
M  END
>  <NAME>  (2988) 
2-METHOXYETHYLAMINE

>  <SYNONYMS>  (2988) 


>  <SPECTRUM TYPE>  (2988) 
MS1

>  <INSTRUMENT TYPE>  (2988) 
EI-B

>  <INSTRUMENT>  (2988) 
HITACHI RMU-6M

>  <ION MODE>  (2988) 
P

>  <INCHIKEY>  (2988) 
ASUDFOJKTJLAIK-UHFFFAOYSA-N

>  <FORMULA>  (2988) 
C3H9NO

>  <EXACT MASS>  (2988) 
75.068413908

>  <MW>  (2988) 
75

>  <ID>  (2988) 
JP007362

>  <CONTRIBUTOR>  (2988) 
University of Tokyo Team, {Faculty of Engineering, University of Tokyo

>  <COMMENT>  (2988) 
SMILES=NCCOC
cas=109-85-3
InChI=InChI=1S/C3H9NO/c1-5-3-2-4/h2-4H2,1H3
computed SMILES=O(C)CCN
accession=JP007362
date=2016.01.19 (Created 2008.10.21, modified 2011.05.06)
author=YAMAMOTO M, DEP. CHEMISTRY, FAC. SCIENCE, NARA WOMEN'S UNIV.
license=CC BY-NC-SA
exact mass=75.06841
ionization energy=70 eV
ion type=[M]+*
computed spectral entropy=1.3710432533682566
computed normalized entropy=0.5345303404840485
SPLASH=splash10-001i-9000000000-beccb4cdab26097bd009
submitter=submitter = University of Tokyo Team (Faculty of Engineering, University of Tokyo)
MoNA Rating=3.75

>  <NUM PEAKS>  (2988) 
13

>  <MASS SPECTRAL PEAKS>  (2988) 
15 5.92
18 4.26
27 1.63
28 5.39
29 3.54
30 99.99
31 1.46
41 1.46
42 5.81
43 1.61
44 4.59
45 11.84
75 1.25

>  <PREDICTED SPECTRUM>  (2988) 
14 63
15 197
16 49
17 56
18 112
19 22
25 12
26 62
27 155
28 247
29 297
30 999
31 322
32 84
33 94
34 0
38 52
39 65
40 93
41 140
42 298
43 340
44 240
45 742
46 212
54 30
56 23
57 67
58 65
59 12
60 61
74 92
75 95
76 30

$$$$

     RDKit          2D

 12 11  0  0  0  0  0  0  0  0999 V2000
    3.2476    5.6250    0.0000 C   0  0  0  0  0  0  0  0  0  0  0  0
   -9.7428    5.6250    0.0000 C   0  0  0  0  0  0  0  0  0  0  0  0
    1.9486    6.3750    0.0000 C   0  0  0  0  0  0  0  0  0  0  0  0
   -0.6495    6.3750    0.0000 C   0  0  0  0  0  0  0  0  0  0  0  0
   -1.9486    5.6250    0.0000 C   0  0  0  0  0  0  0  0  0  0  0  0
   -4.5466    5.6250    0.0000 C   0  0  0  0  0  0  0  0  0  0  0  0
   -5.8457    6.3750    0.0000 C   0  0  0  0  0  0  0  0  0  0  0  0
   -8.4437    6.3750    0.0000 C   0  0  0  0  0  0  0  0  0  0  0  0
   -8.4437    7.8750    0.0000 O   0  0  0  0  0  0  0  0  0  0  0  0
    0.6495    5.6250    0.0000 O   0  0  0  0  0  0  0  0  0  0  0  0
   -3.2476    6.3750    0.0000 O   0  0  0  0  0  0  0  0  0  0  0  0
   -7.1447    5.6250    0.0000 O   0  0  0  0  0  0  0  0  0  0  0  0
  3  1  1  0
  5  4  1  0
  7  6  1  0
  8  2  1  0
  9  8  2  0
 10  3  1  0
 10  4  1  0
 11  5  1  0
 11  6  1  0
 12  7  1  0
 12  8  1  0
M  END
>  <NAME>  (2989) 
2-(2-ETHOXYETHOXY)ETHYL ACETATE

>  <SYNONYMS>  (2989) 


>  <SPECTRUM TYPE>  (2989) 
MS1

>  <INSTRUMENT TYPE>  (2989) 
EI-B

>  <INSTRUMENT>  (2989) 
HITACHI RMU-6M

>  <ION MODE>  (2989) 
P

>  <INCHIKEY>  (2989) 
FPZWZCWUIYYYBU-UHFFFAOYSA-N

>  <FORMULA>  (2989) 
C8H16O4

>  <EXACT MASS>  (2989) 
176.104858992

>  <MW>  (2989) 
176

>  <ID>  (2989) 
JP007361

>  <CONTRIBUTOR>  (2989) 
University of Tokyo Team, {Faculty of Engineering, University of Tokyo

>  <COMMENT>  (2989) 
SMILES=CCOCCOCCOC(C)=O
cas=112-15-2
InChI=InChI=1S/C8H16O4/c1-3-10-4-5-11-6-7-12-8(2)9/h3-7H2,1-2H3
computed SMILES=O=C(OCCOCCOCC)C
accession=JP007361
date=2016.01.19 (Created 2008.10.21, modified 2011.05.06)
author=YAMAMOTO M, DEP. CHEMISTRY, FAC. SCIENCE, NARA WOMEN'S UNIV.
license=CC BY-NC-SA
exact mass=176.10486
ionization energy=70 eV
ion type=[M]+*
computed spectral entropy=2.532223822760577
computed normalized entropy=0.7445095178578217
SPLASH=splash10-0077-9000000000-b3fb572004c04bef21fd
submitter=submitter = University of Tokyo Team (Faculty of Engineering, University of Tokyo)
MoNA Rating=3.75

>  <NUM PEAKS>  (2989) 
30

>  <MASS SPECTRAL PEAKS>  (2989) 
26 1.07
27 8.83
28 7.93
29 16.03
31 42.26
41 2.44
42 2.77
43 99.99
44 10.65
45 55.8
46 1.29
57 1.13
58 1.98
59 49.23
60 2.03
61 6.4
72 49.06
73 19.26
74 2.49
75 1.13
86 1.81
87 59.87
88 3.4
89 3.62
101 2.21
103 3.45
104 1.18
116 4.42
117 1.75
132 2.03

>  <PREDICTED SPECTRUM>  (2989) 
14 34
15 133
16 19
19 66
26 77
27 265
28 194
29 358
30 83
31 356
32 46
33 19
39 44
40 66
41 223
42 235
43 999
44 315
45 713
46 107
47 59
52 20
53 8
54 7
55 89
56 53
57 265
58 335
59 743
60 196
61 257
62 39
70 97
71 155
72 779
73 561
74 282
75 264
76 82
85 25
86 203
87 965
88 366
89 305
90 115
91 1
101 102
102 1
103 194
104 139
105 108
106 4
116 178
117 224
118 10
119 16
131 94
132 81
133 99

$$$$

     RDKit          2D

 15 14  0  0  0  0  0  0  0  0999 V2000
    4.5466    7.8750    0.0000 C   0  0  0  0  0  0  0  0  0  0  0  0
  -13.6399    7.8750    0.0000 C   0  0  0  0  0  0  0  0  0  0  0  0
    3.2476    8.6250    0.0000 C   0  0  0  0  0  0  0  0  0  0  0  0
  -12.3409    8.6250    0.0000 C   0  0  0  0  0  0  0  0  0  0  0  0
    1.9486    7.8750    0.0000 C   0  0  0  0  0  0  0  0  0  0  0  0
  -11.0418    7.8750    0.0000 C   0  0  0  0  0  0  0  0  0  0  0  0
    0.6495    8.6250    0.0000 C   0  0  0  0  0  0  0  0  0  0  0  0
   -9.7428    8.6250    0.0000 C   0  0  0  0  0  0  0  0  0  0  0  0
   -1.9486    8.6250    0.0000 C   0  0  0  0  0  0  0  0  0  0  0  0
   -7.1447    8.6250    0.0000 C   0  0  0  0  0  0  0  0  0  0  0  0
   -3.2476    7.8750    0.0000 C   0  0  0  0  0  0  0  0  0  0  0  0
   -5.8457    7.8750    0.0000 C   0  0  0  0  0  0  0  0  0  0  0  0
   -0.6495    7.8750    0.0000 O   0  0  0  0  0  0  0  0  0  0  0  0
   -8.4437    7.8750    0.0000 O   0  0  0  0  0  0  0  0  0  0  0  0
   -4.5466    8.6250    0.0000 O   0  0  0  0  0  0  0  0  0  0  0  0
  3  1  1  0
  4  2  1  0
  5  3  1  0
  6  4  1  0
  7  5  1  0
  8  6  1  0
 11  9  1  0
 12 10  1  0
 13  7  1  0
 13  9  1  0
 14  8  1  0
 14 10  1  0
 15 11  1  0
 15 12  1  0
M  END
>  <NAME>  (2990) 
BIS(2-BUTOXYETHYL) ETHER

>  <SYNONYMS>  (2990) 


>  <SPECTRUM TYPE>  (2990) 
MS1

>  <INSTRUMENT TYPE>  (2990) 
EI-B

>  <INSTRUMENT>  (2990) 
HITACHI RMU-6M

>  <ION MODE>  (2990) 
P

>  <INCHIKEY>  (2990) 
KZVBBTZJMSWGTK-UHFFFAOYSA-N

>  <FORMULA>  (2990) 
C12H26O3

>  <EXACT MASS>  (2990) 
218.18819469199997

>  <MW>  (2990) 
218

>  <ID>  (2990) 
JP007360

>  <CONTRIBUTOR>  (2990) 
University of Tokyo Team, {Faculty of Engineering, University of Tokyo

>  <COMMENT>  (2990) 
SMILES=CCCCOCCOCCOCCCC
InChI=InChI=1S/C12H26O3/c1-3-5-7-13-9-11-15-12-10-14-8-6-4-2/h3-12H2,1-2H3
computed SMILES=O(CCOCCCC)CCOCCCC
accession=JP007360
date=2016.01.19 (Created 2008.10.21, modified 2011.05.06)
author=YAMAMOTO M, DEP. CHEMISTRY, FAC. SCIENCE, NARA WOMEN'S UNIV.
license=CC BY-NC-SA
exact mass=218.18819
ionization energy=70 eV
ion type=[M]+*
computed spectral entropy=2.644904602279988
computed normalized entropy=0.770213878148837
SPLASH=splash10-0a4i-9000000000-6ee1f836e03114a9bd1f
submitter=submitter = University of Tokyo Team (Faculty of Engineering, University of Tokyo)
MoNA Rating=3.75

>  <NUM PEAKS>  (2990) 
31

>  <MASS SPECTRAL PEAKS>  (2990) 
27 6.85
28 7.09
29 32.24
30 1.39
31 3.12
39 2.8
41 28.33
42 2.1
43 4.48
44 6.25
45 49.59
46 1.07
51 1.02
55 6.58
56 36.12
57 99.99
58 4.48
59 14.32
61 1.12
63 1.12
69 2.15
71 4.67
72 7.56
73 3.87
75 26.04
83 1.49
85 17.5
86 1.21
87 10.31
88 1.21
89 4.53

>  <PREDICTED SPECTRUM>  (2990) 
14 1
15 73
19 37
25 10
26 78
27 217
28 183
29 384
30 94
31 154
32 10
33 13
38 7
39 194
40 48
41 526
42 144
43 241
44 184
45 619
46 130
47 107
49 12
50 42
51 85
52 43
53 92
54 72
55 247
56 515
57 999
58 294
59 245
60 145
61 182
62 75
63 97
69 18
70 48
71 127
72 190
73 216
74 92
75 353
76 83
77 115
82 56
83 59
84 34
85 433
86 45
87 223
88 178
89 347
90 117
91 41
99 93
100 327
101 460
102 169
103 250
104 54
115 7
117 142
118 127
119 143
120 4
121 3
131 150
132 47
133 42
145 68
146 75
147 14
218 40
219 17

$$$$

     RDKit          2D

 11 10  0  0  0  0  0  0  0  0999 V2000
    3.2476    5.6250    0.0000 C   0  0  0  0  0  0  0  0  0  0  0  0
    1.9486    6.3750    0.0000 C   0  0  0  0  0  0  0  0  0  0  0  0
    0.6495    5.6250    0.0000 C   0  0  0  0  0  0  0  0  0  0  0  0
   -8.4437    6.3750    0.0000 C   0  0  0  0  0  0  0  0  0  0  0  0
   -0.6495    6.3750    0.0000 C   0  0  0  0  0  0  0  0  0  0  0  0
   -7.1447    5.6250    0.0000 C   0  0  0  0  0  0  0  0  0  0  0  0
   -3.2476    6.3750    0.0000 C   0  0  0  0  0  0  0  0  0  0  0  0
   -4.5466    5.6250    0.0000 C   0  0  0  0  0  0  0  0  0  0  0  0
   -9.7428    5.6250    0.0000 O   0  0  0  0  0  0  0  0  0  0  0  0
   -1.9486    5.6250    0.0000 O   0  0  0  0  0  0  0  0  0  0  0  0
   -5.8457    6.3750    0.0000 O   0  0  0  0  0  0  0  0  0  0  0  0
  2  1  1  0
  3  2  1  0
  5  3  1  0
  6  4  1  0
  8  7  1  0
  9  4  1  0
 10  5  1  0
 10  7  1  0
 11  6  1  0
 11  8  1  0
M  END
>  <NAME>  (2991) 
BIS(2-ETHOXYETHYL) ETHER

>  <SYNONYMS>  (2991) 
DIETHYL CARBITOL

>  <SPECTRUM TYPE>  (2991) 
MS1

>  <INSTRUMENT TYPE>  (2991) 
EI-B

>  <INSTRUMENT>  (2991) 
HITACHI RMU-6M

>  <ION MODE>  (2991) 
P

>  <INCHIKEY>  (2991) 
OAYXUHPQHDHDDZ-UHFFFAOYSA-N

>  <FORMULA>  (2991) 
C8H18O3

>  <EXACT MASS>  (2991) 
162.12559443599997

>  <MW>  (2991) 
162

>  <ID>  (2991) 
JP007359

>  <CONTRIBUTOR>  (2991) 
University of Tokyo Team, {Faculty of Engineering, University of Tokyo

>  <COMMENT>  (2991) 
SMILES=CCCCOCCOCCO
cas=112-34-5
InChI=InChI=1S/C8H18O3/c1-2-3-5-10-7-8-11-6-4-9/h9H,2-8H2,1H3
computed SMILES=OCCOCCOCCCC
accession=JP007359
date=2016.01.19 (Created 2008.10.21, modified 2011.05.06)
author=YAMAMOTO M, DEP. CHEMISTRY, FAC. SCIENCE, NARA WOMEN'S UNIV.
license=CC BY-NC-SA
exact mass=162.12559
ionization energy=70 eV
ion type=[M]+*
computed spectral entropy=2.225517549368608
computed normalized entropy=0.7428960087706243
SPLASH=splash10-006t-9000000000-9b5ce4bf5bfa84239e88
submitter=submitter = University of Tokyo Team (Faculty of Engineering, University of Tokyo)
MoNA Rating=3.75

>  <NUM PEAKS>  (2991) 
20

>  <MASS SPECTRAL PEAKS>  (2991) 
27 9.63
28 5.82
29 20.17
31 28.44
41 1.47
43 10.39
44 8.05
45 99.99
46 2.28
58 1.19
59 44.06
60 1.57
72 45.15
73 42.54
74 2.01
89 2.34
90 1.52
100 1.14
102 5.6
116 2.94

>  <PREDICTED SPECTRUM>  (2991) 
14 11
15 44
19 55
25 7
26 82
27 283
28 187
29 412
30 110
31 279
32 36
33 51
37 10
38 56
39 255
40 92
41 543
42 166
43 417
44 292
45 999
46 176
47 117
49 0
50 40
51 49
52 19
53 79
54 69
55 265
56 476
57 938
58 201
59 187
60 92
61 227
62 71
63 121
68 5
69 97
70 98
71 225
72 235
73 236
74 114
75 466
76 125
77 74
85 260
86 60
87 377
88 262
89 480
90 149
91 88
100 210
101 231
102 101
103 200
104 33
105 114
106 9
115 3
117 68
118 101
119 180
131 49
133 8
143 7
145 25
161 70
162 93
163 42

$$$$

     RDKit          2D

  9  8  0  0  0  0  0  0  0  0999 V2000
    2.5981    4.5000    0.0000 C   0  0  0  0  0  0  0  0  0  0  0  0
   -7.7942    4.5000    0.0000 C   0  0  0  0  0  0  0  0  0  0  0  0
    0.0000    4.5000    0.0000 C   0  0  0  0  0  0  0  0  0  0  0  0
   -5.1962    4.5000    0.0000 C   0  0  0  0  0  0  0  0  0  0  0  0
   -1.2990    5.2500    0.0000 C   0  0  0  0  0  0  0  0  0  0  0  0
   -3.8971    5.2500    0.0000 C   0  0  0  0  0  0  0  0  0  0  0  0
    1.2990    5.2500    0.0000 O   0  0  0  0  0  0  0  0  0  0  0  0
   -6.4952    5.2500    0.0000 O   0  0  0  0  0  0  0  0  0  0  0  0
   -2.5981    4.5000    0.0000 O   0  0  0  0  0  0  0  0  0  0  0  0
  5  3  1  0
  6  4  1  0
  7  1  1  0
  7  3  1  0
  8  2  1  0
  8  4  1  0
  9  5  1  0
  9  6  1  0
M  END
>  <NAME>  (2992) 
BIS(2-METHOXYETHYL) ETHER

>  <SYNONYMS>  (2992) 
DIGLYME

>  <SPECTRUM TYPE>  (2992) 
MS1

>  <INSTRUMENT TYPE>  (2992) 
EI-B

>  <INSTRUMENT>  (2992) 
HITACHI RMU-6M

>  <ION MODE>  (2992) 
P

>  <INCHIKEY>  (2992) 
SBZXBUIDTXKZTM-UHFFFAOYSA-N

>  <FORMULA>  (2992) 
C6H14O3

>  <EXACT MASS>  (2992) 
134.094294308

>  <MW>  (2992) 
134

>  <ID>  (2992) 
JP007358

>  <CONTRIBUTOR>  (2992) 
University of Tokyo Team, {Faculty of Engineering, University of Tokyo

>  <COMMENT>  (2992) 
SMILES=COCCOCCOC
cas=111-96-6
InChI=InChI=1S/C6H14O3/c1-7-3-5-9-6-4-8-2/h3-6H2,1-2H3
computed SMILES=O(C)CCOCCOC
accession=JP007358
date=2016.01.19 (Created 2008.10.21, modified 2011.05.06)
author=YAMAMOTO M, DEP. CHEMISTRY, FAC. SCIENCE, NARA WOMEN'S UNIV.
license=CC BY-NC-SA
exact mass=134.09429
ionization energy=70 eV
ion type=[M]+*
computed spectral entropy=2.032836514293065
computed normalized entropy=0.7331907895271529
SPLASH=splash10-0a4i-9000000000-c5a72309bae5fae7f145
submitter=submitter = University of Tokyo Team (Faculty of Engineering, University of Tokyo)
MoNA Rating=3.75

>  <NUM PEAKS>  (2992) 
16

>  <MASS SPECTRAL PEAKS>  (2992) 
15 13.07
27 3.32
28 4.85
29 20.69
31 20.87
33 1.01
41 1.38
43 7.67
44 1.1
45 26.88
58 44.71
59 99.99
60 3.37
87 1.8
89 16.99
102 1.89

>  <PREDICTED SPECTRUM>  (2992) 
14 21
15 152
19 10
25 1
26 61
27 164
28 174
29 361
30 121
31 391
32 49
33 97
38 0
41 180
42 120
43 368
44 109
45 901
46 148
47 61
51 17
57 131
58 691
59 999
60 189
61 107
62 14
65 9
72 1
73 34
75 90
76 46
77 103
89 213
90 24
102 87
103 112
104 58

$$$$

     RDKit          2D

  9  8  0  0  0  0  0  0  0  0999 V2000
    2.5981    4.5000    0.0000 C   0  0  0  0  0  0  0  0  0  0  0  0
    1.2990    5.2500    0.0000 C   0  0  0  0  0  0  0  0  0  0  0  0
   -6.4952    5.2500    0.0000 C   0  0  0  0  0  0  0  0  0  0  0  0
   -5.1962    4.5000    0.0000 C   0  0  0  0  0  0  0  0  0  0  0  0
   -1.2990    5.2500    0.0000 C   0  0  0  0  0  0  0  0  0  0  0  0
   -2.5981    4.5000    0.0000 C   0  0  0  0  0  0  0  0  0  0  0  0
   -7.7942    4.5000    0.0000 O   0  0  0  0  0  0  0  0  0  0  0  0
    0.0000    4.5000    0.0000 O   0  0  0  0  0  0  0  0  0  0  0  0
   -3.8971    5.2500    0.0000 O   0  0  0  0  0  0  0  0  0  0  0  0
  2  1  1  0
  4  3  1  0
  6  5  1  0
  7  3  1  0
  8  2  1  0
  8  5  1  0
  9  4  1  0
  9  6  1  0
M  END
>  <NAME>  (2993) 
2-(2-ETHOXYETHOXY)ETHANOL

>  <SYNONYMS>  (2993) 
CARBITOL

>  <SPECTRUM TYPE>  (2993) 
MS1

>  <INSTRUMENT TYPE>  (2993) 
EI-B

>  <INSTRUMENT>  (2993) 
HITACHI RMU-6M

>  <ION MODE>  (2993) 
P

>  <INCHIKEY>  (2993) 
XXJWXESWEXIICW-UHFFFAOYSA-N

>  <FORMULA>  (2993) 
C6H14O3

>  <EXACT MASS>  (2993) 
134.09429430799997

>  <MW>  (2993) 
134

>  <ID>  (2993) 
JP007356

>  <CONTRIBUTOR>  (2993) 
University of Tokyo Team, {Faculty of Engineering, University of Tokyo

>  <COMMENT>  (2993) 
SMILES=CCOCCOCCO
cas=111-90-0
InChI=InChI=1S/C6H14O3/c1-2-8-5-6-9-4-3-7/h7H,2-6H2,1H3
computed SMILES=OCCOCCOCC
accession=JP007356
date=2016.01.19 (Created 2008.10.21, modified 2011.05.06)
author=YAMAMOTO M, DEP. CHEMISTRY, FAC. SCIENCE, NARA WOMEN'S UNIV.
license=CC BY-NC-SA
exact mass=134.09429
ionization energy=70 eV
ion type=[M]+*
computed spectral entropy=2.3595526123128345
computed normalized entropy=0.7424520597420156
SPLASH=splash10-0006-9000000000-38592a327ca552ae4d4c
submitter=submitter = University of Tokyo Team (Faculty of Engineering, University of Tokyo)
MoNA Rating=3.75

>  <NUM PEAKS>  (2993) 
24

>  <MASS SPECTRAL PEAKS>  (2993) 
26 1.25
27 10.49
28 6.97
29 15.34
31 37.42
33 1.35
39 1.63
41 10.12
42 6.55
43 99.99
44 2.64
45 1.01
58 1.11
59 37.57
60 9.2
61 2.02
62 1.88
72 26.52
73 14.06
75 7.32
89 1.11
101 1.39
103 3.09
104 5.5

>  <PREDICTED SPECTRUM>  (2993) 
14 19
15 77
16 3
17 1
18 6
19 72
26 58
27 262
28 157
29 369
30 124
31 539
32 34
33 66
38 44
39 117
40 69
41 176
42 103
43 390
44 315
45 999
46 182
47 212
51 12
53 2
55 80
56 12
57 303
58 273
59 917
60 227
61 218
62 71
63 129
64 5
70 3
71 66
72 360
73 472
74 131
75 427
76 131
77 86
87 195
88 174
89 416
90 282
91 108
103 200
104 56
105 30
116 95
117 31
134 154
135 49

$$$$

     RDKit          2D

  8  7  0  0  0  0  0  0  0  0999 V2000
   -2.5981    3.7500    0.0000 C   0  0  0  0  0  0  0  0  0  0  0  0
   -1.2990    4.5000    0.0000 C   0  0  0  0  0  0  0  0  0  0  0  0
   -3.8971    4.5000    0.0000 C   0  0  0  0  0  0  0  0  0  0  0  0
    0.0000    3.7500    0.0000 C   0  0  0  0  0  0  0  0  0  0  0  0
   -5.1962    3.7500    0.0000 C   0  0  0  0  0  0  0  0  0  0  0  0
    1.2990    4.5000    0.0000 C   0  0  0  0  0  0  0  0  0  0  0  0
   -6.4952    4.5000    0.0000 N   0  0  0  0  0  0  0  0  0  0  0  0
    2.5981    3.7500    0.0000 N   0  0  0  0  0  0  0  0  0  0  0  0
  2  1  1  0
  3  1  1  0
  4  2  1  0
  5  3  1  0
  6  4  1  0
  7  5  1  0
  8  6  1  0
M  END
>  <NAME>  (2994) 
1,6-HEXANEDIAMINE

>  <SYNONYMS>  (2994) 


>  <SPECTRUM TYPE>  (2994) 
MS1

>  <INSTRUMENT TYPE>  (2994) 
EI-B

>  <INSTRUMENT>  (2994) 
HITACHI RMU-6M

>  <ION MODE>  (2994) 
P

>  <INCHIKEY>  (2994) 
NAQMVNRVTILPCV-UHFFFAOYSA-N

>  <FORMULA>  (2994) 
C6H16N2

>  <EXACT MASS>  (2994) 
116.13134851199999

>  <MW>  (2994) 
116

>  <ID>  (2994) 
JP007354

>  <CONTRIBUTOR>  (2994) 
University of Tokyo Team, {Faculty of Engineering, University of Tokyo

>  <COMMENT>  (2994) 
SMILES=NCCCCCCN
cas=124-09-4
InChI=InChI=1S/C6H16N2/c7-5-3-1-2-4-6-8/h1-8H2
computed SMILES=NCCCCCCN
accession=JP007354
date=2016.01.19 (Created 2008.10.21, modified 2011.05.06)
author=YAMAMOTO M, DEP. CHEMISTRY, FAC. SCIENCE, NARA WOMEN'S UNIV.
license=CC BY-NC-SA
exact mass=116.13135
ionization energy=70 eV
ion type=[M]+*
computed spectral entropy=2.104756304226977
computed normalized entropy=0.6622783680151006
SPLASH=splash10-001i-9000000000-85f5487a61acc057e55c
submitter=submitter = University of Tokyo Team (Faculty of Engineering, University of Tokyo)
MoNA Rating=3.75

>  <NUM PEAKS>  (2994) 
24

>  <MASS SPECTRAL PEAKS>  (2994) 
18 6.54
27 1.9
28 4.86
29 1.39
30 99.99
31 3.75
39 1.76
41 4.03
42 4.31
43 3.24
44 5.24
45 5.14
55 2.69
56 13.53
57 1.07
58 2.78
69 1.71
70 2.74
72 2.41
73 1.39
86 4.26
87 8.95
100 5.93
101 2.87

>  <PREDICTED SPECTRUM>  (2994) 
14 5
15 25
16 12
17 45
18 75
26 13
27 87
28 168
29 136
30 999
31 136
32 4
39 73
40 12
41 173
42 92
43 186
44 304
45 190
46 73
53 48
54 80
55 107
56 252
57 89
58 161
59 254
60 15
67 44
69 79
70 261
71 42
72 315
73 240
74 13
82 12
83 33
84 232
86 152
87 281
98 85
99 159
100 137
101 106
102 4
115 5
116 184
117 67

$$$$

     RDKit          2D

  6  5  0  0  0  0  0  0  0  0999 V2000
   -1.9486    3.3750    0.0000 C   0  0  0  0  0  0  0  0  0  0  0  0
   -0.6495    2.6250    0.0000 C   0  0  0  0  0  0  0  0  0  0  0  0
   -3.2476    2.6250    0.0000 C   0  0  0  0  0  0  0  0  0  0  0  0
    0.6495    3.3750    0.0000 C   0  0  0  0  0  0  0  0  0  0  0  0
   -4.5466    3.3750    0.0000 N   0  0  0  0  0  0  0  0  0  0  0  0
    1.9486    2.6250    0.0000 N   0  0  0  0  0  0  0  0  0  0  0  0
  2  1  1  0
  3  1  1  0
  4  2  1  0
  5  3  1  0
  6  4  1  0
M  END
>  <NAME>  (2995) 
1,4-BUTANEDIAMINE

>  <SYNONYMS>  (2995) 
PUTRESCINE

>  <SPECTRUM TYPE>  (2995) 
MS1

>  <INSTRUMENT TYPE>  (2995) 
EI-B

>  <INSTRUMENT>  (2995) 
HITACHI RMU-6M

>  <ION MODE>  (2995) 
P

>  <INCHIKEY>  (2995) 
KIDHWZJUCRJVML-UHFFFAOYSA-N

>  <FORMULA>  (2995) 
C4H12N2

>  <EXACT MASS>  (2995) 
88.100048384

>  <MW>  (2995) 
88

>  <ID>  (2995) 
JP007353

>  <CONTRIBUTOR>  (2995) 
University of Tokyo Team, {Faculty of Engineering, University of Tokyo

>  <COMMENT>  (2995) 
SMILES=NCCCCN
cas=110-60-1
InChI=InChI=1S/C4H12N2/c5-3-1-2-4-6/h1-6H2
computed SMILES=NCCCCN
accession=JP007353
date=2016.01.19 (Created 2008.10.21, modified 2011.05.06)
author=YAMAMOTO M, DEP. CHEMISTRY, FAC. SCIENCE, NARA WOMEN'S UNIV.
license=CC BY-NC-SA
exact mass=88.10005
ionization energy=70 eV
ion type=[M]+*
computed spectral entropy=1.9939425747951225
computed normalized entropy=0.6898567872274215
SPLASH=splash10-001i-9000000000-5759f91b24f2e27cc466
submitter=submitter = University of Tokyo Team (Faculty of Engineering, University of Tokyo)
MoNA Rating=3.75

>  <NUM PEAKS>  (2995) 
18

>  <MASS SPECTRAL PEAKS>  (2995) 
15 1.47
18 7.66
27 2.36
28 11.16
29 1.56
30 99.99
31 10.4
39 1.94
41 4.68
42 5.44
43 32.59
44 10.41
56 2.18
58 1.28
59 12.68
70 3.45
71 7.14
88 1.76

>  <PREDICTED SPECTRUM>  (2995) 
14 18
15 53
16 29
17 74
18 110
25 7
26 46
27 115
28 199
29 90
30 999
31 158
32 8
38 1
39 92
40 39
41 113
42 64
43 180
44 185
45 99
46 41
53 23
54 78
56 220
59 179
67 8
68 10
69 26
70 221
71 141
72 119
73 147
84 9
87 142
88 109
89 19

$$$$

     RDKit          2D

 18 19  0  0  0  0  0  0  0  0999 V2000
    3.8976    3.3200    0.0000 C   0  0  0  0  0  0  0  0  0  0  0  0
   -9.0928    3.3200    0.0000 C   0  0  0  0  0  0  0  0  0  0  0  0
    3.8981    4.8208    0.0000 C   0  0  0  0  0  0  0  0  0  0  0  0
    2.5981    2.5692    0.0000 C   0  0  0  0  0  0  0  0  0  0  0  0
   -7.7933    2.5692    0.0000 C   0  0  0  0  0  0  0  0  0  0  0  0
   -9.0933    4.8208    0.0000 C   0  0  0  0  0  0  0  0  0  0  0  0
    2.5990    5.5708    0.0000 C   0  0  0  0  0  0  0  0  0  0  0  0
    1.2990    3.3192    0.0000 C   0  0  0  0  0  0  0  0  0  0  0  0
   -6.4942    3.3192    0.0000 C   0  0  0  0  0  0  0  0  0  0  0  0
   -7.7942    5.5708    0.0000 C   0  0  0  0  0  0  0  0  0  0  0  0
    0.0005    5.5700    0.0000 C   0  0  0  0  0  0  0  0  0  0  0  0
   -1.2986    4.8200    0.0000 C   0  0  0  0  0  0  0  0  0  0  0  0
   -5.1957    5.5700    0.0000 C   0  0  0  0  0  0  0  0  0  0  0  0
    1.2995    4.8200    0.0000 C   0  0  0  0  0  0  0  0  0  0  0  0
   -6.4947    4.8200    0.0000 C   0  0  0  0  0  0  0  0  0  0  0  0
   -2.5976    5.5700    0.0000 C   0  0  0  0  0  0  0  0  0  0  0  0
   -2.5976    7.0700    0.0000 O   0  0  0  0  0  0  0  0  0  0  0  0
   -3.8966    4.8200    0.0000 O   0  0  0  0  0  0  0  0  0  0  0  0
  3  1  2  0
  4  1  1  0
  5  2  2  0
  6  2  1  0
  7  3  1  0
  8  4  2  0
  9  5  1  0
 10  6  2  0
 11 12  2  0
 14  7  2  0
 14  8  1  0
 14 11  1  0
 15  9  2  0
 15 10  1  0
 15 13  1  0
 16 12  1  0
 17 16  2  0
 18 13  1  0
 18 16  1  0
M  END
>  <NAME>  (2996) 
BENZYL 3-PHENYL-2-PROPENOATE

>  <SYNONYMS>  (2996) 
CINNAMIC ACID BENZYL ESTER

>  <SPECTRUM TYPE>  (2996) 
MS1

>  <INSTRUMENT TYPE>  (2996) 
EI-B

>  <INSTRUMENT>  (2996) 
ESCO EMD-05A

>  <ION MODE>  (2996) 
P

>  <INCHIKEY>  (2996) 
NGHOLYJTSCBCGC-VAWYXSNFSA-N

>  <FORMULA>  (2996) 
C16H14O2

>  <EXACT MASS>  (2996) 
238.099379688

>  <MW>  (2996) 
238

>  <ID>  (2996) 
JP007352

>  <CONTRIBUTOR>  (2996) 
University of Tokyo Team, {Faculty of Engineering, University of Tokyo

>  <COMMENT>  (2996) 
SMILES=O=C(C=Cc(c2)cccc2)OCc(c1)cccc1
cas=103-41-3
InChI=InChI=1S/C16H14O2/c17-16(12-11-14-7-3-1-4-8-14)18-13-15-9-5-2-6-10-15/h1-12H,13H2/b12-11+
computed SMILES=O=C(OCC=1C=CC=CC1)C=CC=2C=CC=CC2
accession=JP007352
date=2016.01.19 (Created 2008.10.21, modified 2011.05.06)
author=YAMAMOTO M, DEP. CHEMISTRY, FAC. SCIENCE, NARA WOMEN'S UNIV.
license=CC BY-NC-SA
exact mass=238.09938
ionization energy=70 eV
ion type=[M]+*
computed spectral entropy=3.0638933191779896
computed normalized entropy=0.8363154807057297
SPLASH=splash10-0f6x-9600000000-c2f6e1fccb7fd1daee10
submitter=submitter = University of Tokyo Team (Faculty of Engineering, University of Tokyo)
MoNA Rating=3.75

>  <NUM PEAKS>  (2996) 
39

>  <MASS SPECTRAL PEAKS>  (2996) 
39 2.37
40 5.59
51 16.41
52 19.07
53 10.67
62 2.56
63 8.34
64 3.51
65 15.27
66 2.27
74 4.88
75 3.98
76 10.53
77 51.7
78 11.05
79 6.78
89 8.11
90 6.38
91 99.99
92 6.49
101 1.56
102 14.89
103 45.68
104 11.62
105 6.35
107 4.45
115 7.73
116 2.98
131 58.68
132 6.92
147 5.55
178 3.03
179 1.8
192 25.18
193 22.53
194 3.79
220 2.51
238 16.79
239 2.98

>  <PREDICTED SPECTRUM>  (2996) 
26 46
27 68
28 54
29 53
31 36
37 25
38 112
39 291
40 117
41 142
42 19
43 12
44 87
45 50
47 13
49 43
50 279
51 514
52 235
53 138
54 59
57 79
59 40
61 23
62 144
63 272
64 142
65 430
66 50
71 19
74 130
75 250
76 229
77 726
78 333
79 284
80 39
81 21
82 16
86 10
87 98
89 273
90 206
91 951
92 338
93 15
99 11
100 0
101 115
102 398
103 737
104 471
105 318
106 188
107 179
108 5
115 185
116 127
117 113
119 22
131 999
132 441
133 199
134 15
147 158
148 49
151 4
160 90
161 60
178 81
179 123
191 112
192 468
193 602
194 328
219 21
220 101
221 69
222 19
237 184
238 369
239 179

$$$$

     RDKit          2D

 10 10  0  0  0  0  0  0  0  0999 V2000
    2.9231    0.5071    0.0000 C   0  0  0  0  0  0  0  0  0  0  0  0
    2.9236    2.0079    0.0000 C   0  0  0  0  0  0  0  0  0  0  0  0
    1.6236   -0.2437    0.0000 C   0  0  0  0  0  0  0  0  0  0  0  0
   -2.2731    2.0071    0.0000 C   0  0  0  0  0  0  0  0  0  0  0  0
    1.6245    2.7579    0.0000 C   0  0  0  0  0  0  0  0  0  0  0  0
    0.3245    0.5063    0.0000 C   0  0  0  0  0  0  0  0  0  0  0  0
   -0.9740    2.7571    0.0000 C   0  0  0  0  0  0  0  0  0  0  0  0
   -3.5721    2.7571    0.0000 C   0  0  0  0  0  0  0  0  0  0  0  0
    0.3250    2.0071    0.0000 C   0  0  0  0  0  0  0  0  0  0  0  0
   -4.8712    2.0071    0.0000 O   0  0  0  0  0  0  0  0  0  0  0  0
  2  1  2  0
  3  1  1  0
  5  2  1  0
  6  3  2  0
  4  7  2  0
  8  4  1  0
  9  5  2  0
  9  6  1  0
  9  7  1  0
 10  8  1  0
M  END
>  <NAME>  (2997) 
3-PHENYL-2-PROPEN-1-OL

>  <SYNONYMS>  (2997) 
CINNAMYL ALCOHOL

>  <SPECTRUM TYPE>  (2997) 
MS1

>  <INSTRUMENT TYPE>  (2997) 
EI-B

>  <INSTRUMENT>  (2997) 
HITACHI RMU-6M

>  <ION MODE>  (2997) 
P

>  <INCHIKEY>  (2997) 
OOCCDEMITAIZTP-QPJJXVBHSA-N

>  <FORMULA>  (2997) 
C9H10O

>  <EXACT MASS>  (2997) 
134.07316494

>  <MW>  (2997) 
134

>  <ID>  (2997) 
JP007348

>  <CONTRIBUTOR>  (2997) 
University of Tokyo Team, {Faculty of Engineering, University of Tokyo

>  <COMMENT>  (2997) 
SMILES=OCC=Cc(c1)cccc1
cas=104-54-1
InChI=InChI=1S/C9H10O/c10-8-4-7-9-5-2-1-3-6-9/h1-7,10H,8H2/b7-4+
computed SMILES=OCC=CC=1C=CC=CC1
accession=JP007348
date=2016.01.19 (Created 2008.10.21, modified 2011.05.06)
author=YAMAMOTO M, DEP. CHEMISTRY, FAC. SCIENCE, NARA WOMEN'S UNIV.
license=CC BY-NC-SA
exact mass=134.07316
ionization energy=70 eV
ion type=[M]+*
computed spectral entropy=3.301308243990372
computed normalized entropy=0.803067268193659
SPLASH=splash10-0036-9400000000-540e90374e70aac0f48b
submitter=submitter = University of Tokyo Team (Faculty of Engineering, University of Tokyo)
MoNA Rating=3.75

>  <NUM PEAKS>  (2997) 
61

>  <MASS SPECTRAL PEAKS>  (2997) 
26 1.1
27 11.08
28 2.42
29 4.73
30 1.66
31 4.79
38 2.97
39 15.67
40 1.36
41 1.81
43 3.07
50 10.88
51 28.07
52 6.8
53 3.07
55 21.06
56 5.54
57 4.38
57.5 3.07
58 1.31
61 1.36
62 4.33
63 11.99
64 2.42
65 9.02
65.5 1.61
66 3.93
66.5 1.87
67 2.52
74 4.73
75 4.58
76 4.62
77 40.47
78 55.41
79 24.54
80 1.46
86 1.1
87 1.16
89 7.25
90 2.67
91 69.9
92 99.99
93 7.31
101 1.15
102 6.6
103 21.27
104 4.83
105 53.39
106 6.85
107 3.27
114 1
115 35.33
116 12.35
117 8.2
118 1.26
119 1.21
131 4.73
132 1.36
133 19.66
134 85.02
135 8.36

>  <PREDICTED SPECTRUM>  (2997) 
25 7
26 68
27 186
28 1
29 59
31 87
37 93
38 176
39 464
40 121
41 248
42 59
43 314
44 58
45 11
49 82
50 313
51 531
52 285
53 202
54 14
55 123
56 29
57 111
60 12
61 216
62 237
63 379
64 245
65 474
66 161
67 58
73 61
74 272
75 268
76 224
77 652
78 517
79 443
80 175
81 9
82 34
86 37
87 76
88 69
89 335
90 149
91 999
92 487
93 228
94 86
99 37
101 144
102 308
103 453
104 446
105 615
106 321
107 358
113 13
114 91
115 937
116 659
117 395
118 191
119 246
120 33
128 138
129 26
130 21
131 206
132 173
133 226
134 724
135 197

$$$$

     RDKit          2D

  9  9  0  0  0  0  0  0  0  0999 V2000
   -2.9298    0.5563    0.0000 C   0  0  0  0  0  0  0  0  0  0  0  0
    3.5660    1.3113    0.0000 C   0  0  0  0  0  0  0  0  0  0  0  0
   -0.3357    3.5491    0.0000 C   0  0  0  0  0  0  0  0  0  0  0  0
   -1.6302    2.8069    0.0000 C   0  0  0  0  0  0  0  0  0  0  0  0
    0.9634    2.7991    0.0000 C   0  0  0  0  0  0  0  0  0  0  0  0
   -0.3316    0.5561    0.0000 C   0  0  0  0  0  0  0  0  0  0  0  0
   -1.6307    1.3061    0.0000 C   0  0  0  0  0  0  0  0  0  0  0  0
    0.9679    1.3069    0.0000 C   0  0  0  0  0  0  0  0  0  0  0  0
    2.2682    0.5591    0.0000 O   0  0  0  0  0  0  0  0  0  0  0  0
  4  3  2  0
  5  3  1  0
  7  1  1  0
  7  4  1  0
  7  6  2  0
  8  5  2  0
  8  6  1  0
  9  2  1  0
  9  8  1  0
M  END
>  <NAME>  (2998) 
1-METHOXY-3-METHYLBENZENE

>  <SYNONYMS>  (2998) 
META-METHYLANISOLE

>  <SPECTRUM TYPE>  (2998) 
MS1

>  <INSTRUMENT TYPE>  (2998) 
EI-B

>  <INSTRUMENT>  (2998) 
HITACHI RMU-6M

>  <ION MODE>  (2998) 
P

>  <INCHIKEY>  (2998) 
OSIGJGFTADMDOB-UHFFFAOYSA-N

>  <FORMULA>  (2998) 
C8H10O

>  <EXACT MASS>  (2998) 
122.07316494

>  <MW>  (2998) 
122

>  <ID>  (2998) 
JP007345

>  <CONTRIBUTOR>  (2998) 
University of Tokyo Team, {Faculty of Engineering, University of Tokyo

>  <COMMENT>  (2998) 
SMILES=COc(c1)cc(C)cc1
cas=100-84-5
InChI=InChI=1S/C8H10O/c1-7-4-3-5-8(6-7)9-2/h3-6H,1-2H3
computed SMILES=O(C1=CC=CC(=C1)C)C
accession=JP007345
date=2016.01.19 (Created 2008.10.21, modified 2011.05.06)
author=YAMAMOTO M, DEP. CHEMISTRY, FAC. SCIENCE, NARA WOMEN'S UNIV.
license=CC BY-NC-SA
exact mass=122.07316
ionization energy=70 eV
ion type=[M]+*
computed spectral entropy=2.6874090384107716
computed normalized entropy=0.7754223385110796
SPLASH=splash10-00dl-9600000000-76342d24ed690bad28d5
submitter=submitter = University of Tokyo Team (Faculty of Engineering, University of Tokyo)
MoNA Rating=3.75

>  <NUM PEAKS>  (2998) 
32

>  <MASS SPECTRAL PEAKS>  (2998) 
15 1.88
27 4.7
28 1.88
38 2.91
39 13.15
40 1.12
41 1.69
50 5.07
51 9.87
52 5.69
53 5.59
61 1.5
62 2.35
63 5.92
64 2.07
65 7.14
74 1.22
75 1.03
77 26.5
78 8.27
79 25.19
80 1.78
89 2.35
90 2.44
91 39
92 17.48
93 4.89
107 16.35
108 1.5
121 12.78
122 99.99
123 8.83

>  <PREDICTED SPECTRUM>  (2998) 
14 35
15 137
16 5
25 18
26 87
27 170
28 64
29 82
30 26
32 11
37 70
38 161
39 341
40 70
41 144
49 23
50 253
51 395
52 270
53 196
54 29
61 27
62 143
63 284
64 198
65 396
66 135
67 4
74 128
75 110
76 65
77 528
78 377
79 405
80 152
86 3
89 204
90 207
91 634
92 308
93 138
94 65
105 6
106 54
107 463
108 242
119 40
120 40
121 326
122 999
123 274
124 18

$$$$

     RDKit          2D

  9  9  0  0  0  0  0  0  0  0999 V2000
   -0.9745    2.0634    0.0000 C   0  0  0  0  0  0  0  0  0  0  0  0
    2.9228   -0.1870    0.0000 C   0  0  0  0  0  0  0  0  0  0  0  0
   -2.2743   -1.6883    0.0000 C   0  0  0  0  0  0  0  0  0  0  0  0
   -0.9753   -2.4383    0.0000 C   0  0  0  0  0  0  0  0  0  0  0  0
   -2.2738   -0.1874    0.0000 C   0  0  0  0  0  0  0  0  0  0  0  0
    0.3242   -1.6874    0.0000 C   0  0  0  0  0  0  0  0  0  0  0  0
   -0.9743    0.5634    0.0000 C   0  0  0  0  0  0  0  0  0  0  0  0
    0.3247   -0.1866    0.0000 C   0  0  0  0  0  0  0  0  0  0  0  0
    1.6239    0.5632    0.0000 O   0  0  0  0  0  0  0  0  0  0  0  0
  4  3  2  0
  5  3  1  0
  6  4  1  0
  7  1  1  0
  7  5  2  0
  8  6  2  0
  8  7  1  0
  9  2  1  0
  9  8  1  0
M  END
>  <NAME>  (2999) 
1-METHOXY-2-METHYLBENZENE

>  <SYNONYMS>  (2999) 
ORTHO-METHYLANISOLE

>  <SPECTRUM TYPE>  (2999) 
MS1

>  <INSTRUMENT TYPE>  (2999) 
EI-B

>  <INSTRUMENT>  (2999) 
HITACHI RMU-6M

>  <ION MODE>  (2999) 
P

>  <INCHIKEY>  (2999) 
DTFKRVXLBCAIOZ-UHFFFAOYSA-N

>  <FORMULA>  (2999) 
C8H10O

>  <EXACT MASS>  (2999) 
122.07316494

>  <MW>  (2999) 
122

>  <ID>  (2999) 
JP007344

>  <CONTRIBUTOR>  (2999) 
University of Tokyo Team, {Faculty of Engineering, University of Tokyo

>  <COMMENT>  (2999) 
SMILES=COc(c1)c(C)ccc1
cas=578-58-5
InChI=InChI=1S/C8H10O/c1-7-5-3-4-6-8(7)9-2/h3-6H,1-2H3
computed SMILES=O(C=1C=CC=CC1C)C
accession=JP007344
date=2016.01.19 (Created 2008.10.21, modified 2011.05.06)
author=YAMAMOTO M, DEP. CHEMISTRY, FAC. SCIENCE, NARA WOMEN'S UNIV.
license=CC BY-NC-SA
exact mass=122.07316
ionization energy=70 eV
ion type=[M]+*
computed spectral entropy=2.703177361852885
computed normalized entropy=0.7731078266906816
SPLASH=splash10-00di-9800000000-fb99f44d23178994142f
submitter=submitter = University of Tokyo Team (Faculty of Engineering, University of Tokyo)
MoNA Rating=3.75

>  <NUM PEAKS>  (2999) 
33

>  <MASS SPECTRAL PEAKS>  (2999) 
15 1.85
26 1
27 5.28
28 2.25
38 2.44
39 11.82
40 1.06
41 1.65
50 5.35
51 11.49
52 6.54
53 5.15
61 1.06
62 2.25
63 5.81
64 1.84
65 8.72
74 1.06
75 1.19
77 31.11
78 8.98
79 17.64
80 1.38
89 4.49
90 7.33
91 32.03
92 9.11
93 1.91
107 48.68
108 3.89
121 15.78
122 99.99
123 8.65

>  <PREDICTED SPECTRUM>  (2999) 
14 45
15 149
16 7
18 18
25 31
26 119
27 277
28 87
29 109
31 58
32 19
33 14
37 100
38 208
39 500
40 93
41 241
42 70
43 37
44 6
45 113
46 13
47 39
49 38
50 327
51 493
52 301
53 278
54 71
55 38
58 36
59 36
60 7
61 125
62 192
63 354
64 209
65 558
66 202
67 45
68 6
69 8
70 43
74 178
75 159
76 80
77 638
78 437
79 406
80 162
81 52
89 262
90 223
91 999
92 394
93 228
94 127
95 68
103 26
104 66
105 148
106 75
107 745
108 283
109 79
119 124
120 173
121 350
122 991
123 284
124 58

$$$$

     RDKit          2D

 10 10  0  0  0  0  0  0  0  0999 V2000
   -2.2418    2.4858    0.0000 C   0  0  0  0  0  0  0  0  0  0  0  0
    4.2830    0.2248    0.0000 C   0  0  0  0  0  0  0  0  0  0  0  0
    0.3468    2.4694    0.0000 C   0  0  0  0  0  0  0  0  0  0  0  0
    1.6458    1.7194    0.0000 C   0  0  0  0  0  0  0  0  0  0  0  0
   -0.9632    0.2004    0.0000 C   0  0  0  0  0  0  0  0  0  0  0  0
   -0.9477    1.7272    0.0000 C   0  0  0  0  0  0  0  0  0  0  0  0
    0.3358   -0.5496    0.0000 C   0  0  0  0  0  0  0  0  0  0  0  0
    1.6850    0.2072    0.0000 C   0  0  0  0  0  0  0  0  0  0  0  0
    0.3265   -2.0495    0.0000 N   0  0  0  0  0  0  0  0  0  0  0  0
    2.9891   -0.5340    0.0000 O   0  0  0  0  0  0  0  0  0  0  0  0
  4  3  2  0
  6  1  1  0
  6  3  1  0
  6  5  2  0
  7  5  1  0
  8  4  1  0
  8  7  2  0
  9  7  1  0
 10  2  1  0
 10  8  1  0
M  END
>  <NAME>  (3000) 
2-METHOXY-5-METHYLANILINE

>  <SYNONYMS>  (3000) 
2-METHOXY-5-METHYL-BENZENAMINE

>  <SPECTRUM TYPE>  (3000) 
MS1

>  <INSTRUMENT TYPE>  (3000) 
EI-B

>  <INSTRUMENT>  (3000) 
ESCO EMD-05A

>  <ION MODE>  (3000) 
P

>  <INCHIKEY>  (3000) 
WXWCDTXEKCVRRO-UHFFFAOYSA-N

>  <FORMULA>  (3000) 
C8H11NO

>  <EXACT MASS>  (3000) 
137.084063972

>  <MW>  (3000) 
137

>  <ID>  (3000) 
JP007343

>  <CONTRIBUTOR>  (3000) 
University of Tokyo Team, {Faculty of Engineering, University of Tokyo

>  <COMMENT>  (3000) 
SMILES=COc(c1)c(N)cc(C)c1
cas=120-71-8
InChI=InChI=1S/C8H11NO/c1-6-3-4-8(10-2)7(9)5-6/h3-5H,9H2,1-2H3
computed SMILES=O(C1=CC=C(C=C1N)C)C
accession=JP007343
date=2016.01.19 (Created 2008.10.21, modified 2011.05.06)
author=YAMAMOTO M, DEP. CHEMISTRY, FAC. SCIENCE, NARA WOMEN'S UNIV.
license=CC BY-NC-SA
exact mass=137.08406
ionization energy=70 eV
ion type=[M]+*
computed spectral entropy=2.7101453634965997
computed normalized entropy=0.7346798390156593
SPLASH=splash10-00dr-5900000000-4226725c554c67adf1ae
submitter=submitter = University of Tokyo Team (Faculty of Engineering, University of Tokyo)
MoNA Rating=3.75

>  <NUM PEAKS>  (3000) 
40

>  <MASS SPECTRAL PEAKS>  (3000) 
38 1.29
39 10.04
40 2.13
41 7.12
42 3.86
43 2.32
50 3.46
51 3.71
52 3.76
53 2.18
54 4.9
63 1.38
65 6.68
66 10.68
67 7.81
76 1.29
77 14.34
78 2.27
79 3.66
80 2.92
91 3.86
92 4.85
93 10.93
94 34.22
95 2.72
96 1.48
104 1.83
105 1.63
106 6.38
108 2.13
120 1.04
121 6.48
122 99.99
123 8.11
124 4.99
125 1.98
126 1.14
136 2.92
137 87.29
138 7.81

>  <PREDICTED SPECTRUM>  (3000) 
15 8
26 18
27 67
28 10
29 16
33 7
34 3
37 22
38 76
39 202
40 104
41 200
42 152
44 20
45 14
49 6
50 152
51 278
52 292
53 284
54 178
55 65
60 5
61 56
62 94
63 149
64 84
65 253
66 193
67 200
68 76
69 17
74 49
75 78
76 71
77 344
78 265
79 264
80 154
81 73
89 31
90 72
91 140
92 149
93 167
94 534
95 192
96 41
103 24
104 77
105 94
106 201
107 180
108 106
109 18
110 4
120 80
121 76
122 999
123 292
124 33
136 120
137 823
138 249
139 27

$$$$

     RDKit          2D

  9  9  0  0  0  0  0  0  0  0999 V2000
   -2.5989   -1.5002    0.0000 C   0  0  0  0  0  0  0  0  0  0  0  0
    2.5989    1.5002    0.0000 C   0  0  0  0  0  0  0  0  0  0  0  0
   -1.3000    0.7500    0.0000 C   0  0  0  0  0  0  0  0  0  0  0  0
    0.0000    1.5000    0.0000 C   0  0  0  0  0  0  0  0  0  0  0  0
   -0.0000   -1.5000    0.0000 C   0  0  0  0  0  0  0  0  0  0  0  0
   -1.3000   -0.7500    0.0000 C   0  0  0  0  0  0  0  0  0  0  0  0
    1.3000    0.7500    0.0000 C   0  0  0  0  0  0  0  0  0  0  0  0
    1.3000   -0.7500    0.0000 C   0  0  0  0  0  0  0  0  0  0  0  0
    2.5989   -1.5002    0.0000 N   0  0  0  0  0  0  0  0  0  0  0  0
  4  3  2  0
  6  1  1  0
  6  3  1  0
  6  5  2  0
  7  2  1  0
  7  4  1  0
  8  5  1  0
  8  7  2  0
  9  8  1  0
M  END
>  <NAME>  (3001) 
2,5-DIMETHYLBENZENAMINE

>  <SYNONYMS>  (3001) 
2,5-XYLIDINE

>  <SPECTRUM TYPE>  (3001) 
MS1

>  <INSTRUMENT TYPE>  (3001) 
EI-B

>  <INSTRUMENT>  (3001) 
HITACHI RMU-6M

>  <ION MODE>  (3001) 
P

>  <INCHIKEY>  (3001) 
VOWZNBNDMFLQGM-UHFFFAOYSA-N

>  <FORMULA>  (3001) 
C8H11N

>  <EXACT MASS>  (3001) 
121.08914935199999

>  <MW>  (3001) 
121

>  <ID>  (3001) 
JP007340

>  <CONTRIBUTOR>  (3001) 
University of Tokyo Team, {Faculty of Engineering, University of Tokyo

>  <COMMENT>  (3001) 
SMILES=Cc(c1)cc(N)c(C)c1
InChI=InChI=1S/C8H11N/c1-6-3-4-7(2)8(9)5-6/h3-5H,9H2,1-2H3
computed SMILES=NC1=CC(=CC=C1C)C
accession=JP007340
date=2016.01.19 (Created 2008.10.21, modified 2011.05.06)
author=YAMAMOTO M, DEP. CHEMISTRY, FAC. SCIENCE, NARA WOMEN'S UNIV.
license=CC BY-NC-SA
exact mass=121.08915
ionization energy=70 eV
ion type=[M]+*
computed spectral entropy=2.8082732598111226
computed normalized entropy=0.7377258339445175
SPLASH=splash10-00di-4900000000-9ae75762576c996923e6
submitter=submitter = University of Tokyo Team (Faculty of Engineering, University of Tokyo)
MoNA Rating=3.75

>  <NUM PEAKS>  (3001) 
45

>  <MASS SPECTRAL PEAKS>  (3001) 
27 4.01
28 4.36
30 1.66
38 1.86
39 8.23
40 1.26
41 3.23
42 3.92
46.5 1.56
50 2.89
51 7.05
52 4.26
53 6.13
54 2.3
58.5 3.18
59.5 3.43
60 1.17
60.5 3.44
62 1.17
63 2.74
64 1.03
65 5.29
66 2.2
76 1.02
77 15.38
78 6.66
79 5.14
80 2.74
89 1.37
91 10.53
92 2.6
93 5.43
94 1.91
102 1.27
103 5.48
104 6.11
105 2.69
106 55.25
107 4.65
117 1.07
118 3.08
119 2.69
120 60.74
121 99.99
122 9.45

>  <PREDICTED SPECTRUM>  (3001) 
15 60
26 44
27 182
28 119
29 36
37 30
38 62
39 266
40 62
41 227
42 16
44 19
50 136
51 244
52 180
53 204
54 97
55 25
57 45
58 3
60 9
61 119
62 71
63 132
64 62
65 213
66 123
67 79
74 112
75 164
76 83
77 431
78 289
79 354
80 107
88 10
89 78
90 1
91 282
92 151
93 238
94 155
102 108
103 185
104 322
105 303
106 584
107 202
117 0
118 182
119 155
120 826
121 999
122 316
123 13

$$$$

     RDKit          2D

  9  9  0  0  0  0  0  0  0  0999 V2000
   -2.5989   -1.5002    0.0000 C   0  0  0  0  0  0  0  0  0  0  0  0
    2.5989   -1.5002    0.0000 C   0  0  0  0  0  0  0  0  0  0  0  0
   -1.3000    0.7500    0.0000 C   0  0  0  0  0  0  0  0  0  0  0  0
    0.0000    1.5000    0.0000 C   0  0  0  0  0  0  0  0  0  0  0  0
   -0.0000   -1.5000    0.0000 C   0  0  0  0  0  0  0  0  0  0  0  0
   -1.3000   -0.7500    0.0000 C   0  0  0  0  0  0  0  0  0  0  0  0
    1.3000   -0.7500    0.0000 C   0  0  0  0  0  0  0  0  0  0  0  0
    1.3000    0.7500    0.0000 C   0  0  0  0  0  0  0  0  0  0  0  0
    2.5989    1.5002    0.0000 N   0  0  0  0  0  0  0  0  0  0  0  0
  4  3  2  0
  6  1  1  0
  6  3  1  0
  6  5  2  0
  7  2  1  0
  7  5  1  0
  8  4  1  0
  8  7  2  0
  9  8  1  0
M  END
>  <NAME>  (3002) 
2,4-DIMETHYLBENZENAMINE

>  <SYNONYMS>  (3002) 
2,4-XYLIDINE

>  <SPECTRUM TYPE>  (3002) 
MS1

>  <INSTRUMENT TYPE>  (3002) 
EI-B

>  <INSTRUMENT>  (3002) 
HITACHI RMU-6M

>  <ION MODE>  (3002) 
P

>  <INCHIKEY>  (3002) 
CZZZABOKJQXEBO-UHFFFAOYSA-N

>  <FORMULA>  (3002) 
C8H11N

>  <EXACT MASS>  (3002) 
121.08914935199999

>  <MW>  (3002) 
121

>  <ID>  (3002) 
JP007339

>  <CONTRIBUTOR>  (3002) 
University of Tokyo Team, {Faculty of Engineering, University of Tokyo

>  <COMMENT>  (3002) 
SMILES=Cc(c1)cc(C)c(N)c1
InChI=InChI=1S/C8H11N/c1-6-3-4-8(9)7(2)5-6/h3-5H,9H2,1-2H3
computed SMILES=NC1=CC=C(C=C1C)C
accession=JP007339
date=2016.01.19 (Created 2008.10.21, modified 2011.05.06)
author=YAMAMOTO M, DEP. CHEMISTRY, FAC. SCIENCE, NARA WOMEN'S UNIV.
license=CC BY-NC-SA
exact mass=121.08915
ionization energy=70 eV
ion type=[M]+*
computed spectral entropy=2.729520128899994
computed normalized entropy=0.7170375982202414
SPLASH=splash10-00di-4900000000-73bfbb6a2b2ba59e4f4f
submitter=submitter = University of Tokyo Team (Faculty of Engineering, University of Tokyo)
MoNA Rating=3.75

>  <NUM PEAKS>  (3002) 
45

>  <MASS SPECTRAL PEAKS>  (3002) 
27 4
28 4.3
30 1.79
38 1.59
39 8.05
40 1.18
41 3.43
42 3.07
46.5 1.84
50 2.46
51 6
52 5.02
53 6.06
54 2.56
58.5 3.69
59.5 3.28
60 1.12
60.5 3.8
62 1.28
63 3.12
64 5.22
65 2.05
66 1.12
76 1.02
77 14.66
78 5.07
79 3.95
80 2.67
89 1.24
91 9.38
92 2.41
93 4.46
94 1.69
102 1.02
103 3.79
104 3.53
105 2.1
106 55.16
107 4.51
117 1.28
118 4.56
119 4.25
120 78.39
121 99.99
122 9.02

>  <PREDICTED SPECTRUM>  (3002) 
14 13
15 82
16 9
18 6
25 15
26 105
27 277
28 156
29 52
30 5
32 5
36 23
37 87
38 166
39 435
40 163
41 289
42 127
43 35
44 40
45 3
46 42
47 2
49 26
50 251
51 420
52 315
53 310
54 167
55 80
57 24
58 76
60 34
61 128
62 104
63 216
64 129
65 322
66 193
67 105
68 40
71 0
74 139
75 156
76 101
77 575
78 371
79 322
80 164
81 87
82 26
89 101
90 7
91 387
92 187
93 230
94 155
95 12
102 140
103 221
104 355
105 270
106 678
107 215
116 11
117 70
118 236
119 174
120 774
121 999
122 303
123 52

$$$$

     RDKit          2D

  9  9  0  0  0  0  0  0  0  0999 V2000
    3.5728   -1.3131    0.0000 C   0  0  0  0  0  0  0  0  0  0  0  0
    0.9744   -2.8133    0.0000 C   0  0  0  0  0  0  0  0  0  0  0  0
    0.9737    1.6883    0.0000 C   0  0  0  0  0  0  0  0  0  0  0  0
    2.2732    0.9375    0.0000 C   0  0  0  0  0  0  0  0  0  0  0  0
   -0.3254    0.9383    0.0000 C   0  0  0  0  0  0  0  0  0  0  0  0
    2.2737   -0.5633    0.0000 C   0  0  0  0  0  0  0  0  0  0  0  0
    0.9746   -1.3133    0.0000 C   0  0  0  0  0  0  0  0  0  0  0  0
   -0.3249   -0.5625    0.0000 C   0  0  0  0  0  0  0  0  0  0  0  0
   -1.6239   -1.3125    0.0000 N   0  0  0  0  0  0  0  0  0  0  0  0
  4  3  2  0
  5  3  1  0
  6  1  1  0
  6  4  1  0
  7  2  1  0
  7  6  2  0
  8  5  2  0
  8  7  1  0
  9  8  1  0
M  END
>  <NAME>  (3003) 
2,3-DIMETHYLBENZENAMINE

>  <SYNONYMS>  (3003) 
2,3-XYLIDINE

>  <SPECTRUM TYPE>  (3003) 
MS1

>  <INSTRUMENT TYPE>  (3003) 
EI-B

>  <INSTRUMENT>  (3003) 
HITACHI RMU-6M

>  <ION MODE>  (3003) 
P

>  <INCHIKEY>  (3003) 
VVAKEQGKZNKUSU-UHFFFAOYSA-N

>  <FORMULA>  (3003) 
C8H11N

>  <EXACT MASS>  (3003) 
121.08914935199999

>  <MW>  (3003) 
121

>  <ID>  (3003) 
JP007338

>  <CONTRIBUTOR>  (3003) 
University of Tokyo Team, {Faculty of Engineering, University of Tokyo

>  <COMMENT>  (3003) 
SMILES=Cc(c1)c(C)c(N)cc1
InChI=InChI=1S/C8H11N/c1-6-4-3-5-8(9)7(6)2/h3-5H,9H2,1-2H3
computed SMILES=NC1=CC=CC(=C1C)C
accession=JP007338
date=2016.01.19 (Created 2008.10.21, modified 2011.05.06)
author=YAMAMOTO M, DEP. CHEMISTRY, FAC. SCIENCE, NARA WOMEN'S UNIV.
license=CC BY-NC-SA
exact mass=121.08915
ionization energy=70 eV
ion type=[M]+*
computed spectral entropy=2.882366195651514
computed normalized entropy=0.7486378429677084
SPLASH=splash10-00di-4900000000-601ab0447c9035fed0ce
submitter=submitter = University of Tokyo Team (Faculty of Engineering, University of Tokyo)
MoNA Rating=3.75

>  <NUM PEAKS>  (3003) 
47

>  <MASS SPECTRAL PEAKS>  (3003) 
27 4.08
28 4.64
30 2.04
38 1.92
39 9.17
40 1.3
41 3.57
42 4.3
46.5 1.86
50 2.72
51 6.34
52 4.41
53 6
54 3
58.5 3.91
59 0.96
59.5 3.91
60 1.01
60.5 3.51
62 1.41
63 3.51
64 1.3
65 5.66
66 2.09
67 1.19
76 1.24
77 16.42
78 7.76
79 6.34
80 2.99
89 1.69
91 9.75
92 2.37
93 5.39
94 2.15
102 1.58
103 8.21
104 6.06
105 2.38
106 69.95
107 6.12
117 1.41
118 4.25
119 3.45
120 49.53
121 99.99
122 9.51

>  <PREDICTED SPECTRUM>  (3003) 
26 22
27 123
28 69
37 40
38 75
39 248
40 69
41 204
42 62
43 29
44 40
46 4
49 11
50 180
51 292
52 255
53 251
54 133
60 3
61 127
62 97
63 198
64 100
65 295
66 182
67 122
68 33
74 122
75 121
76 63
77 421
78 342
79 422
80 174
81 62
89 74
90 36
91 309
92 211
93 198
94 116
102 115
103 223
104 313
105 269
106 822
107 229
118 194
119 191
120 679
121 999
122 290
123 14

$$$$

     RDKit          2D

 10  9  0  0  0  0  0  0  0  0999 V2000
    2.5981    4.5000    0.0000 C   0  0  0  0  0  0  0  0  0  0  0  0
   -7.7942    4.5000    0.0000 C   0  0  0  0  0  0  0  0  0  0  0  0
    1.2990    5.2500    0.0000 C   0  0  0  0  0  0  0  0  0  0  0  0
   -6.4952    5.2500    0.0000 C   0  0  0  0  0  0  0  0  0  0  0  0
    0.0000    4.5000    0.0000 C   0  0  0  0  0  0  0  0  0  0  0  0
   -5.1962    4.5000    0.0000 C   0  0  0  0  0  0  0  0  0  0  0  0
   -1.2990    5.2500    0.0000 C   0  0  0  0  0  0  0  0  0  0  0  0
   -3.8971    5.2500    0.0000 C   0  0  0  0  0  0  0  0  0  0  0  0
   -3.8971    6.7500    0.0000 O   0  0  0  0  0  0  0  0  0  0  0  0
   -2.5981    4.5000    0.0000 O   0  0  0  0  0  0  0  0  0  0  0  0
  3  1  1  0
  4  2  1  0
  5  3  1  0
  4  6  2  0
  7  5  1  0
  8  6  1  0
  9  8  2  0
 10  7  1  0
 10  8  1  0
M  END
>  <NAME>  (3004) 
CROTONIC ACID BUTYL ESTER

>  <SYNONYMS>  (3004) 


>  <SPECTRUM TYPE>  (3004) 
MS1

>  <INSTRUMENT TYPE>  (3004) 
EI-B

>  <INSTRUMENT>  (3004) 
HITACHI RMU-6M

>  <ION MODE>  (3004) 
P

>  <INCHIKEY>  (3004) 
GWCTUKHUBWMAMI-GQCTYLIASA-N

>  <FORMULA>  (3004) 
C8H14O2

>  <EXACT MASS>  (3004) 
142.099379688

>  <MW>  (3004) 
142

>  <ID>  (3004) 
JP007337

>  <CONTRIBUTOR>  (3004) 
University of Tokyo Team, {Faculty of Engineering, University of Tokyo

>  <COMMENT>  (3004) 
SMILES=CCCCOC(=O)C([H])=C([H])C
InChI=InChI=1S/C8H14O2/c1-3-5-7-10-8(9)6-4-2/h4,6H,3,5,7H2,1-2H3/b6-4+
computed SMILES=O=C(OCCCC)C=CC
accession=JP007337
date=2016.01.19 (Created 2008.10.21, modified 2011.05.06)
author=YAMAMOTO M, DEP. CHEMISTRY, FAC. SCIENCE, NARA WOMEN'S UNIV.
license=CC BY-NC-SA
exact mass=142.09938
ionization energy=70 eV
ion type=[M]+*
computed spectral entropy=2.089141784963881
computed normalized entropy=0.6758696512544166
SPLASH=splash10-014r-9000000000-bccd947800b3f962393b
submitter=submitter = University of Tokyo Team (Faculty of Engineering, University of Tokyo)
MoNA Rating=3.75

>  <NUM PEAKS>  (3004) 
22

>  <MASS SPECTRAL PEAKS>  (3004) 
15 1.15
27 6.45
28 2.64
29 9.53
38 1.23
39 16.91
40 3.21
41 35.01
42 1.97
43 1.69
55 4.75
56 19.41
57 3.35
68 2.02
69 99.99
70 5.07
82 1.14
86 1.2
87 62.81
88 2.99
99 1.8
127 1.48

>  <PREDICTED SPECTRUM>  (3004) 
25 0
26 84
27 190
28 64
29 229
31 54
36 13
37 77
38 121
39 475
40 227
41 751
42 223
43 220
44 93
45 100
50 77
51 122
52 58
53 70
55 44
56 541
57 164
58 35
68 147
69 999
70 273
71 111
73 154
85 67
86 148
87 575
88 121
99 59
100 11

$$$$

     RDKit          2D

  8  7  0  0  0  0  0  0  0  0999 V2000
    1.9486    3.3750    0.0000 C   0  0  0  0  0  0  0  0  0  0  0  0
   -5.8457    3.3750    0.0000 C   0  0  0  0  0  0  0  0  0  0  0  0
    0.6495    4.1250    0.0000 C   0  0  0  0  0  0  0  0  0  0  0  0
   -4.5466    4.1250    0.0000 C   0  0  0  0  0  0  0  0  0  0  0  0
   -0.6495    3.3750    0.0000 C   0  0  0  0  0  0  0  0  0  0  0  0
   -1.9486    4.1250    0.0000 C   0  0  0  0  0  0  0  0  0  0  0  0
   -1.9486    5.6250    0.0000 O   0  0  0  0  0  0  0  0  0  0  0  0
   -3.2476    3.3750    0.0000 O   0  0  0  0  0  0  0  0  0  0  0  0
  3  1  1  0
  4  2  1  0
  3  5  2  0
  6  5  1  0
  7  6  2  0
  8  4  1  0
  8  6  1  0
M  END
>  <NAME>  (3005) 
CROTONIC ACID ETHYL ESTER

>  <SYNONYMS>  (3005) 
2-BUTENOIC ACID ETHYL ESTER

>  <SPECTRUM TYPE>  (3005) 
MS1

>  <INSTRUMENT TYPE>  (3005) 
EI-B

>  <INSTRUMENT>  (3005) 
HITACHI RMU-6M

>  <ION MODE>  (3005) 
P

>  <INCHIKEY>  (3005) 
ZFDIRQKJPRINOQ-HWKANZROSA-N

>  <FORMULA>  (3005) 
C6H10O2

>  <EXACT MASS>  (3005) 
114.06807956

>  <MW>  (3005) 
114

>  <ID>  (3005) 
JP007336

>  <CONTRIBUTOR>  (3005) 
University of Tokyo Team, {Faculty of Engineering, University of Tokyo

>  <COMMENT>  (3005) 
SMILES=CC=CC(=O)OCC
cas=10544-63-5
InChI=InChI=1S/C6H10O2/c1-3-5-6(7)8-4-2/h3,5H,4H2,1-2H3/b5-3+
computed SMILES=O=C(OCC)C=CC
accession=JP007336
date=2016.01.19 (Created 2008.10.21, modified 2011.05.06)
author=YAMAMOTO M, DEP. CHEMISTRY, FAC. SCIENCE, NARA WOMEN'S UNIV.
license=CC BY-NC-SA
exact mass=114.06808
ionization energy=70 eV
ion type=[M]+*
computed spectral entropy=2.1083279122214957
computed normalized entropy=0.6924987269261259
SPLASH=splash10-014i-9000000000-67dbd4fded74f079f238
submitter=submitter = University of Tokyo Team (Faculty of Engineering, University of Tokyo)
MoNA Rating=3.75

>  <NUM PEAKS>  (3005) 
21

>  <MASS SPECTRAL PEAKS>  (3005) 
15 2.36
26 1.6
27 6.95
28 2.12
29 11.9
38 2.13
39 18.18
40 3.53
41 30.55
42 2.77
43 1.6
45 4.02
68 4.46
69 99.99
70 5.31
71 1.3
86 5.92
87 1.85
99 26.34
100 1.41
114 3.07

>  <PREDICTED SPECTRUM>  (3005) 
14 30
15 68
17 14
18 20
19 21
25 28
26 170
27 308
28 120
29 470
30 11
31 66
36 29
37 121
38 193
39 606
40 264
41 792
42 329
43 296
44 39
45 244
46 86
47 61
50 67
53 154
54 34
55 124
57 32
59 14
67 152
68 383
69 999
70 189
71 177
73 80
74 13
85 49
86 280
87 199
88 49
99 269
100 50
113 1
114 282
115 91

$$$$

     RDKit          2D

  7  6  0  0  0  0  0  0  0  0999 V2000
    1.9486    2.6250    0.0000 C   0  0  0  0  0  0  0  0  0  0  0  0
   -4.5466    3.3750    0.0000 C   0  0  0  0  0  0  0  0  0  0  0  0
    0.6495    3.3750    0.0000 C   0  0  0  0  0  0  0  0  0  0  0  0
   -0.6495    2.6250    0.0000 C   0  0  0  0  0  0  0  0  0  0  0  0
   -1.9486    3.3750    0.0000 C   0  0  0  0  0  0  0  0  0  0  0  0
   -1.9486    4.8750    0.0000 O   0  0  0  0  0  0  0  0  0  0  0  0
   -3.2476    2.6250    0.0000 O   0  0  0  0  0  0  0  0  0  0  0  0
  3  1  1  0
  3  4  2  0
  5  4  1  0
  6  5  2  0
  7  2  1  0
  7  5  1  0
M  END
>  <NAME>  (3006) 
CROTONIC ACID METHYL ESTER

>  <SYNONYMS>  (3006) 
2-BUTENOIC ACID METHYL ESTER

>  <SPECTRUM TYPE>  (3006) 
MS1

>  <INSTRUMENT TYPE>  (3006) 
EI-B

>  <INSTRUMENT>  (3006) 
HITACHI RMU-6M

>  <ION MODE>  (3006) 
P

>  <INCHIKEY>  (3006) 
MCVVUJPXSBQTRZ-ONEGZZNKSA-N

>  <FORMULA>  (3006) 
C5H8O2

>  <EXACT MASS>  (3006) 
100.052429496

>  <MW>  (3006) 
100

>  <ID>  (3006) 
JP007335

>  <CONTRIBUTOR>  (3006) 
University of Tokyo Team, {Faculty of Engineering, University of Tokyo

>  <COMMENT>  (3006) 
SMILES=CC=CC(=O)OC
cas=18707-60-3
InChI=InChI=1S/C5H8O2/c1-3-4-5(6)7-2/h3-4H,1-2H3/b4-3+
computed SMILES=O=C(OC)C=CC
accession=JP007335
date=2016.01.19 (Created 2008.10.21, modified 2011.05.06)
author=YAMAMOTO M, DEP. CHEMISTRY, FAC. SCIENCE, NARA WOMEN'S UNIV.
license=CC BY-NC-SA
exact mass=100.05243
ionization energy=70 eV
ion type=[M]+*
computed spectral entropy=2.0300110241089713
computed normalized entropy=0.7023356142901734
SPLASH=splash10-014i-9000000000-f0481ced949eddf5b69a
submitter=submitter = University of Tokyo Team (Faculty of Engineering, University of Tokyo)
MoNA Rating=3.75

>  <NUM PEAKS>  (3006) 
18

>  <MASS SPECTRAL PEAKS>  (3006) 
15 11.65
26 1.42
27 2.41
28 1.79
29 2.43
37 2.06
38 4.47
39 29.47
40 4.61
41 48.91
42 2.39
59 4.77
68 3.16
69 99.99
70 4.5
85 18.58
100 18.98
101 1.13

>  <PREDICTED SPECTRUM>  (3006) 
14 45
15 137
25 28
26 168
27 364
28 125
29 291
31 151
32 1
33 29
37 160
38 213
39 780
40 350
41 943
42 315
43 210
44 69
45 82
49 10
50 196
51 104
53 142
54 17
55 105
57 130
58 23
59 375
67 135
68 461
69 999
70 119
71 171
72 121
73 11
85 482
99 212
100 366
101 58

$$$$

     RDKit          2D

 13 12  0  0  0  0  0  0  0  0999 V2000
   -8.4437    5.6250    0.0000 C   0  0  0  0  0  0  0  0  0  0  0  0
   -4.5466    7.8750    0.0000 C   0  0  0  0  0  0  0  0  0  0  0  0
    3.2476    4.8750    0.0000 C   0  0  0  0  0  0  0  0  0  0  0  0
   -7.1447    4.8750    0.0000 C   0  0  0  0  0  0  0  0  0  0  0  0
   -3.2476    7.1250    0.0000 C   0  0  0  0  0  0  0  0  0  0  0  0
    1.9486    5.6250    0.0000 C   0  0  0  0  0  0  0  0  0  0  0  0
   -5.8457    5.6250    0.0000 C   0  0  0  0  0  0  0  0  0  0  0  0
   -4.5466    4.8750    0.0000 C   0  0  0  0  0  0  0  0  0  0  0  0
   -1.9486    4.8750    0.0000 C   0  0  0  0  0  0  0  0  0  0  0  0
   -3.2476    5.6250    0.0000 C   0  0  0  0  0  0  0  0  0  0  0  0
    0.6495    4.8750    0.0000 C   0  0  0  0  0  0  0  0  0  0  0  0
    0.6495    3.3750    0.0000 O   0  0  0  0  0  0  0  0  0  0  0  0
   -0.6495    5.6250    0.0000 O   0  0  0  0  0  0  0  0  0  0  0  0
  4  1  1  0
  5  2  1  0
  6  3  2  0
  7  4  1  0
  8  7  1  0
 10  5  1  0
 10  8  1  0
 10  9  1  0
 11  6  1  0
 12 11  2  0
 13  9  1  0
 13 11  1  0
M  END
>  <NAME>  (3007) 
ACRYLIC ACID 2-ETHYLHEXYL ESTER

>  <SYNONYMS>  (3007) 
2-PROPENOIC ACID 2-ETHYLHEXYL ESTER

>  <SPECTRUM TYPE>  (3007) 
MS1

>  <INSTRUMENT TYPE>  (3007) 
EI-B

>  <INSTRUMENT>  (3007) 
HITACHI RMU-6M

>  <ION MODE>  (3007) 
P

>  <INCHIKEY>  (3007) 
GOXQRTZXKQZDDN-UHFFFAOYSA-N

>  <FORMULA>  (3007) 
C11H20O2

>  <EXACT MASS>  (3007) 
184.14632988

>  <MW>  (3007) 
184

>  <ID>  (3007) 
JP007334

>  <CONTRIBUTOR>  (3007) 
University of Tokyo Team, {Faculty of Engineering, University of Tokyo

>  <COMMENT>  (3007) 
SMILES=CCCCC(CC)COC(=O)C=C
cas=103-11-7
InChI=InChI=1S/C11H20O2/c1-4-7-8-10(5-2)9-13-11(12)6-3/h6,10H,3-5,7-9H2,1-2H3
computed SMILES=O=C(OCC(CC)CCCC)C=C
accession=JP007334
date=2016.01.19 (Created 2008.10.21, modified 2011.05.06)
author=YAMAMOTO M, DEP. CHEMISTRY, FAC. SCIENCE, NARA WOMEN'S UNIV.
license=CC BY-NC-SA
exact mass=184.14633
ionization energy=70 eV
ion type=[M]+*
computed spectral entropy=2.847839180227008
computed normalized entropy=0.8010015140497906
SPLASH=splash10-0ab9-9000000000-6a187cc3758586a55d69
submitter=submitter = University of Tokyo Team (Faculty of Engineering, University of Tokyo)
MoNA Rating=3.75

>  <NUM PEAKS>  (3007) 
35

>  <MASS SPECTRAL PEAKS>  (3007) 
26 1.8
27 33.7
28 3.23
29 19.96
31 1.99
39 7.08
40 1.23
41 34.5
42 13.68
43 26.61
44 1.04
53 2.47
54 2.61
55 92.77
56 25.94
57 52.7
58 4.56
67 1.8
68 2.61
69 15.05
70 99.99
71 13.44
73 10.12
81 1.14
82 4.42
83 24.85
84 13.35
85 9.36
86 6.41
87 1.9
97 2.75
98 3.42
111 2.37
112 32.74
113 2.9

>  <PREDICTED SPECTRUM>  (3007) 
25 15
26 85
27 278
28 129
29 275
30 1
31 19
35 24
36 70
37 38
38 85
39 323
40 148
41 527
42 330
43 433
44 171
45 40
49 14
50 107
51 139
52 61
53 214
54 203
55 814
56 438
57 520
58 140
65 4
66 29
67 134
68 115
69 370
70 999
71 343
72 168
73 202
74 39
77 67
78 46
79 114
80 26
81 92
82 210
83 495
84 204
85 98
86 88
87 24
95 45
97 139
98 63
99 95
101 33
111 42
112 449
113 187
127 7
140 20

$$$$

     RDKit          2D

  8  7  0  0  0  0  0  0  0  0999 V2000
    1.9486    3.3750    0.0000 C   0  0  0  0  0  0  0  0  0  0  0  0
    0.6495    4.1250    0.0000 C   0  0  0  0  0  0  0  0  0  0  0  0
   -4.5466    4.1250    0.0000 C   0  0  0  0  0  0  0  0  0  0  0  0
   -3.2476    3.3750    0.0000 C   0  0  0  0  0  0  0  0  0  0  0  0
   -0.6495    3.3750    0.0000 C   0  0  0  0  0  0  0  0  0  0  0  0
   -5.8457    3.3750    0.0000 O   0  0  0  0  0  0  0  0  0  0  0  0
   -0.6495    1.8750    0.0000 O   0  0  0  0  0  0  0  0  0  0  0  0
   -1.9486    4.1250    0.0000 O   0  0  0  0  0  0  0  0  0  0  0  0
  2  1  2  0
  4  3  1  0
  5  2  1  0
  6  3  1  0
  7  5  2  0
  8  4  1  0
  8  5  1  0
M  END
>  <NAME>  (3008) 
ACRYLIC ACID 2-HYDROXYETHYL ESTER

>  <SYNONYMS>  (3008) 
2-PROPENOIC ACID 2-HYDROXYETHYL ESTER

>  <SPECTRUM TYPE>  (3008) 
MS1

>  <INSTRUMENT TYPE>  (3008) 
EI-B

>  <INSTRUMENT>  (3008) 
HITACHI RMU-6M

>  <ION MODE>  (3008) 
P

>  <INCHIKEY>  (3008) 
OMIGHNLMNHATMP-UHFFFAOYSA-N

>  <FORMULA>  (3008) 
C5H8O3

>  <EXACT MASS>  (3008) 
116.04734411599999

>  <MW>  (3008) 
116

>  <ID>  (3008) 
JP007333

>  <CONTRIBUTOR>  (3008) 
University of Tokyo Team, {Faculty of Engineering, University of Tokyo

>  <COMMENT>  (3008) 
SMILES=OCCOC(=O)C=C
cas=818-61-1
InChI=InChI=1S/C5H8O3/c1-2-5(7)8-4-3-6/h2,6H,1,3-4H2
computed SMILES=O=C(OCCO)C=C
accession=JP007333
date=2016.01.19 (Created 2008.10.21, modified 2011.05.06)
author=YAMAMOTO M, DEP. CHEMISTRY, FAC. SCIENCE, NARA WOMEN'S UNIV.
license=CC BY-NC-SA
exact mass=116.04734
ionization energy=70 eV
ion type=[M]+*
computed spectral entropy=2.009741689186008
computed normalized entropy=0.7093506365845109
SPLASH=splash10-0a4i-9000000000-2259abdace881a939ac9
submitter=submitter = University of Tokyo Team (Faculty of Engineering, University of Tokyo)
MoNA Rating=3.75

>  <NUM PEAKS>  (3008) 
17

>  <MASS SPECTRAL PEAKS>  (3008) 
15 2.52
26 4.7
27 33.1
28 2.56
29 4.85
31 9.27
42 1.43
43 4.54
44 6.67
45 4.77
55 99.99
56 4.15
57 1.08
58 4.58
73 16.99
85 7.68
86 14.94

>  <PREDICTED SPECTRUM>  (3008) 
14 61
15 129
16 40
17 28
18 60
19 75
25 58
26 221
27 549
28 318
29 483
30 91
31 402
32 51
33 32
35 3
36 82
37 66
38 112
39 258
40 191
41 284
42 319
43 373
44 351
45 593
46 115
47 40
50 70
52 19
53 253
54 401
55 999
56 310
57 369
58 157
59 8
62 4
68 106
69 42
70 196
71 215
72 406
73 238
74 72
85 141
86 303
87 48
89 38
98 69
99 64
101 70

$$$$

     RDKit          2D

 26 25  0  0  0  0  0  0  0  0999 V2000
  -18.1865   11.2500    0.0000 C   0  0  0  0  0  0  0  0  0  0  0  0
    6.4952   10.5000    0.0000 C   0  0  0  0  0  0  0  0  0  0  0  0
  -14.2894   13.5000    0.0000 C   0  0  0  0  0  0  0  0  0  0  0  0
    2.5981    8.2500    0.0000 C   0  0  0  0  0  0  0  0  0  0  0  0
  -16.8875   10.5000    0.0000 C   0  0  0  0  0  0  0  0  0  0  0  0
    5.1962   11.2500    0.0000 C   0  0  0  0  0  0  0  0  0  0  0  0
  -12.9904   12.7500    0.0000 C   0  0  0  0  0  0  0  0  0  0  0  0
    1.2990    9.0000    0.0000 C   0  0  0  0  0  0  0  0  0  0  0  0
  -15.5885   11.2500    0.0000 C   0  0  0  0  0  0  0  0  0  0  0  0
    3.8971   10.5000    0.0000 C   0  0  0  0  0  0  0  0  0  0  0  0
   -6.4952   10.5000    0.0000 C   0  0  0  0  0  0  0  0  0  0  0  0
   -5.1962   11.2500    0.0000 C   0  0  0  0  0  0  0  0  0  0  0  0
  -14.2894   10.5000    0.0000 C   0  0  0  0  0  0  0  0  0  0  0  0
    2.5981   11.2500    0.0000 C   0  0  0  0  0  0  0  0  0  0  0  0
   -7.7942   11.2500    0.0000 C   0  0  0  0  0  0  0  0  0  0  0  0
   -3.8971   10.5000    0.0000 C   0  0  0  0  0  0  0  0  0  0  0  0
  -11.6913   10.5000    0.0000 C   0  0  0  0  0  0  0  0  0  0  0  0
    0.0000   11.2500    0.0000 C   0  0  0  0  0  0  0  0  0  0  0  0
  -12.9904   11.2500    0.0000 C   0  0  0  0  0  0  0  0  0  0  0  0
    1.2990   10.5000    0.0000 C   0  0  0  0  0  0  0  0  0  0  0  0
   -9.0933   10.5000    0.0000 C   0  0  0  0  0  0  0  0  0  0  0  0
   -2.5981   11.2500    0.0000 C   0  0  0  0  0  0  0  0  0  0  0  0
   -9.0933    9.0000    0.0000 O   0  0  0  0  0  0  0  0  0  0  0  0
   -2.5981   12.7500    0.0000 O   0  0  0  0  0  0  0  0  0  0  0  0
  -10.3923   11.2500    0.0000 O   0  0  0  0  0  0  0  0  0  0  0  0
   -1.2990   10.5000    0.0000 O   0  0  0  0  0  0  0  0  0  0  0  0
  5  1  1  0
  6  2  1  0
  7  3  1  0
  8  4  1  0
  9  5  1  0
 10  6  1  0
 12 11  1  0
 13  9  1  0
 14 10  1  0
 15 11  1  0
 16 12  1  0
 19  7  1  0
 19 13  1  0
 19 17  1  0
 20  8  1  0
 20 14  1  0
 20 18  1  0
 21 15  1  0
 22 16  1  0
 23 21  2  0
 24 22  2  0
 25 17  1  0
 25 21  1  0
 26 18  1  0
 26 22  1  0
M  END
>  <NAME>  (3009) 
ADIPIC ACID DI-2-ETHYLHEXYL ESTER

>  <SYNONYMS>  (3009) 


>  <SPECTRUM TYPE>  (3009) 
MS1

>  <INSTRUMENT TYPE>  (3009) 
EI-B

>  <INSTRUMENT>  (3009) 
HITACHI RMU-6M

>  <ION MODE>  (3009) 
P

>  <INCHIKEY>  (3009) 
SAOKZLXYCUGLFA-UHFFFAOYSA-N

>  <FORMULA>  (3009) 
C22H42O4

>  <EXACT MASS>  (3009) 
370.308309824

>  <MW>  (3009) 
370

>  <ID>  (3009) 
JP007331

>  <CONTRIBUTOR>  (3009) 
University of Tokyo Team, {Faculty of Engineering, University of Tokyo

>  <COMMENT>  (3009) 
SMILES=CCCCC(CC)COC(=O)CCCCC(=O)OCC(CC)CCCC
cas=103-23-1
InChI=InChI=1S/C22H42O4/c1-5-9-13-19(7-3)17-25-21(23)15-11-12-16-22(24)26-18-20(8-4)14-10-6-2/h19-20H,5-18H2,1-4H3
computed SMILES=O=C(OCC(CC)CCCC)CCCCC(=O)OCC(CC)CCCC
accession=JP007331
date=2016.01.19 (Created 2008.10.21, modified 2011.05.06)
author=YAMAMOTO M, DEP. CHEMISTRY, FAC. SCIENCE, NARA WOMEN'S UNIV.
license=CC BY-NC-SA
exact mass=370.30831
ionization energy=70 eV
ion type=[M]+*
computed spectral entropy=3.1515212573139335
computed normalized entropy=0.8015414597951724
SPLASH=splash10-06vl-9700000000-a1893b9ef5a3a647a25a
submitter=submitter = University of Tokyo Team (Faculty of Engineering, University of Tokyo)
MoNA Rating=3.75

>  <NUM PEAKS>  (3009) 
51

>  <MASS SPECTRAL PEAKS>  (3009) 
27 4.52
28 3.86
29 13.47
39 2.6
41 24.93
42 5.23
43 30.39
44 1.04
53 1.21
54 1.56
55 26.12
56 12.13
57 54.42
58 2.61
59 2.56
67 1.57
68 1.39
69 38.9
70 33.46
71 1.92
72 1.42
82 2.49
83 13.18
84 8.05
85 1.47
87 7.01
97 1.3
100 4.95
101 9.08
102 3.34
111 10.86
112 43.18
113 20.64
114 1.8
128 4.88
129 99.99
130 7.37
131 1
142 2.04
146 2.91
147 22.11
148 1.31
157 1.11
160 1.09
199 2.06
213 1.75
241 12.14
242 1.92
258 1.04
259 11.5
260 1.8

>  <PREDICTED SPECTRUM>  (3009) 
18 32
26 61
27 157
28 142
29 357
30 63
31 61
39 240
40 64
41 561
42 279
43 558
44 113
45 116
49 0
52 5
53 142
54 151
55 672
56 344
57 826
58 178
59 151
60 21
63 0
67 145
68 170
69 475
70 834
71 664
72 191
73 256
74 34
79 54
80 68
81 108
82 163
83 536
84 278
85 183
86 149
87 238
88 75
95 57
96 75
97 240
98 160
99 159
100 235
101 673
102 212
103 58
110 81
111 405
112 651
113 730
114 269
115 166
116 184
117 93
119 49
123 15
124 54
125 504
126 240
127 82
128 285
129 999
130 254
131 154
132 93
138 13
140 37
141 201
142 345
143 827
144 116
145 9
146 205
147 313
148 85
156 52
157 110
158 59
160 245
161 218
171 60
172 82
199 119
200 41
214 40
215 91
240 38
241 557
242 87
259 245
260 54
322 27
324 25
352 92
370 8
371 167

$$$$

     RDKit          2D

  7  7  0  0  0  0  0  0  0  0999 V2000
   -1.1700   -1.2200    0.0000 C   0  0  0  0  0  0  0  0  0  0  0  0
    0.3300   -1.2200    0.0000 C   0  0  0  0  0  0  0  0  0  0  0  0
   -1.6300    0.2000    0.0000 C   0  0  0  0  0  0  0  0  0  0  0  0
    2.2271    0.6621    0.0000 C   0  0  0  0  0  0  0  0  0  0  0  0
    0.8000    0.2000    0.0000 C   0  0  0  0  0  0  0  0  0  0  0  0
    3.3407   -0.3428    0.0000 N   0  0  0  0  0  0  0  0  0  0  0  0
   -0.4200    1.0800    0.0000 O   0  0  0  0  0  0  0  0  0  0  0  0
  2  1  1  0
  3  1  2  0
  5  2  2  0
  5  4  1  0
  6  4  1  0
  7  3  1  0
  7  5  1  0
M  END
>  <NAME>  (3010) 
FURFURYLAMINE

>  <SYNONYMS>  (3010) 
2-FRANMETHANAMINE

>  <SPECTRUM TYPE>  (3010) 
MS1

>  <INSTRUMENT TYPE>  (3010) 
EI-B

>  <INSTRUMENT>  (3010) 
HITACHI RMU-6M

>  <ION MODE>  (3010) 
P

>  <INCHIKEY>  (3010) 
DDRPCXLAQZKBJP-UHFFFAOYSA-N

>  <FORMULA>  (3010) 
C5H7NO

>  <EXACT MASS>  (3010) 
97.052763844

>  <MW>  (3010) 
97

>  <ID>  (3010) 
JP007325

>  <CONTRIBUTOR>  (3010) 
University of Tokyo Team, {Faculty of Engineering, University of Tokyo

>  <COMMENT>  (3010) 
SMILES=NCc(c1)occ1
cas=617-89-0
InChI=InChI=1S/C5H7NO/c6-4-5-2-1-3-7-5/h1-3H,4,6H2
computed SMILES=O1C=CC=C1CN
accession=JP007325
date=2016.01.19 (Created 2008.10.21, modified 2011.05.06)
author=YAMAMOTO M, DEP. CHEMISTRY, FAC. SCIENCE, NARA WOMEN'S UNIV.
license=CC BY-NC-SA
exact mass=97.05276
ionization energy=70 eV
ion type=[M]+*
computed spectral entropy=3.076195120865121
computed normalized entropy=0.823024888507388
SPLASH=splash10-0002-9000000000-24c7c2582a5ccd6e549e
submitter=submitter = University of Tokyo Team (Faculty of Engineering, University of Tokyo)
MoNA Rating=3.75

>  <NUM PEAKS>  (3010) 
42

>  <MASS SPECTRAL PEAKS>  (3010) 
14 1.48
15 4.1
26 3.54
27 15.59
28 49.95
29 6.67
30 34.41
33.5 1.07
34.5 3.32
37 6.93
38 13
39 34.13
40 7.12
41 41.14
42 10.99
43 36.19
44 1.19
48 1.9
49 1.61
50 6.18
51 10.46
52 9.6
53 38.33
54 9.55
55 1.22
56 1.42
65 1.74
66 2.22
67 5.69
68 26.82
69 70.24
70 3.67
78 7.16
79 1.49
80 23.19
81 35.74
82 1.98
94 3.11
95 1.28
96 56.33
97 99.99
98 6.28

>  <PREDICTED SPECTRUM>  (3010) 
14 10
15 36
16 17
17 26
18 13
25 17
26 108
27 237
28 193
29 229
30 395
31 42
33 8
36 38
37 157
38 248
39 521
40 276
41 432
42 248
43 234
44 108
49 40
50 233
51 364
52 403
53 497
54 244
55 161
56 78
61 23
62 49
63 56
65 60
66 192
67 256
68 603
69 317
70 86
76 5
78 129
79 231
80 595
81 999
82 145
94 18
95 32
96 573
97 774
98 217
99 9

$$$$

     RDKit          2D

  7  7  0  0  0  0  0  0  0  0999 V2000
   -1.1700   -1.2200    0.0000 C   0  0  0  0  0  0  0  0  0  0  0  0
    0.3300   -1.2200    0.0000 C   0  0  0  0  0  0  0  0  0  0  0  0
   -1.6300    0.2000    0.0000 C   0  0  0  0  0  0  0  0  0  0  0  0
    2.2271    0.6621    0.0000 C   0  0  0  0  0  0  0  0  0  0  0  0
    0.8000    0.2000    0.0000 C   0  0  0  0  0  0  0  0  0  0  0  0
    3.3407   -0.3428    0.0000 O   0  0  0  0  0  0  0  0  0  0  0  0
   -0.4200    1.0800    0.0000 O   0  0  0  0  0  0  0  0  0  0  0  0
  2  1  1  0
  3  1  2  0
  5  2  2  0
  5  4  1  0
  6  4  1  0
  7  3  1  0
  7  5  1  0
M  END
>  <NAME>  (3011) 
FURFURYL ALCOHOL

>  <SYNONYMS>  (3011) 
2-FURANMETHANOL

>  <SPECTRUM TYPE>  (3011) 
MS1

>  <INSTRUMENT TYPE>  (3011) 
EI-B

>  <INSTRUMENT>  (3011) 
HITACHI RMU-6M

>  <ION MODE>  (3011) 
P

>  <INCHIKEY>  (3011) 
XPFVYQJUAUNWIW-UHFFFAOYSA-N

>  <FORMULA>  (3011) 
C5H6O2

>  <EXACT MASS>  (3011) 
98.036779432

>  <MW>  (3011) 
98

>  <ID>  (3011) 
JP007323

>  <CONTRIBUTOR>  (3011) 
University of Tokyo Team, {Faculty of Engineering, University of Tokyo

>  <COMMENT>  (3011) 
SMILES=OCc(c1)occ1
cas=98-00-0
InChI=InChI=1S/C5H6O2/c6-4-5-2-1-3-7-5/h1-3,6H,4H2
computed SMILES=OCC=1OC=CC1
accession=JP007323
date=2016.01.19 (Created 2008.10.21, modified 2011.05.06)
author=YAMAMOTO M, DEP. CHEMISTRY, FAC. SCIENCE, NARA WOMEN'S UNIV.
license=CC BY-NC-SA
exact mass=98.03678
ionization energy=70 eV
ion type=[M]+*
computed spectral entropy=3.0759847098425555
computed normalized entropy=0.812851629387714
SPLASH=splash10-0005-9000000000-2210e7bfe012e42016ac
submitter=submitter = University of Tokyo Team (Faculty of Engineering, University of Tokyo)
MoNA Rating=3.75

>  <NUM PEAKS>  (3011) 
44

>  <MASS SPECTRAL PEAKS>  (3011) 
14 2.56
15 2.86
25 1.36
26 6.79
27 24.19
28 3.8
29 23.71
30 1.91
31 14.3
35 1.61
36 1.06
37 9.51
38 16.77
39 55.34
40 7.13
41 70.04
42 39.09
43 10.44
44 9
48.5 2.88
49 2.71
50 10.21
51 14.67
52 11.78
53 45.69
54 2.18
55 13.52
56 1.43
57 1.34
66 1.42
67 1.27
68 2.96
69 31.99
70 34.82
71 2.07
79 1.47
80 1.7
81 56.28
82 2.98
95 6.45
96 1.5
97 58.11
98 99.99
99 5.76

>  <PREDICTED SPECTRUM>  (3011) 
14 20
15 55
16 2
17 13
18 26
19 17
25 24
26 119
27 260
28 114
29 232
30 59
31 170
33 14
37 154
38 236
39 524
40 219
41 439
42 225
43 203
44 24
49 64
50 205
51 379
52 339
53 491
54 123
55 170
56 80
57 20
61 85
62 77
63 89
65 67
66 73
67 396
68 207
69 434
70 87
74 26
77 43
78 0
79 195
80 285
81 999
82 44
97 203
98 590
99 218

$$$$

     RDKit          2D

  5  5  0  0  0  0  0  0  0  0999 V2000
   -0.7500    1.0300    0.0000 C   0  0  0  0  0  0  0  0  0  0  0  0
    0.7500    1.0300    0.0000 C   0  0  0  0  0  0  0  0  0  0  0  0
   -1.2100   -0.3900    0.0000 C   0  0  0  0  0  0  0  0  0  0  0  0
    1.2100   -0.3900    0.0000 C   0  0  0  0  0  0  0  0  0  0  0  0
   -0.0000   -1.2800    0.0000 O   0  0  0  0  0  0  0  0  0  0  0  0
  2  1  1  0
  3  1  2  0
  4  2  2  0
  5  3  1  0
  5  4  1  0
M  END
>  <NAME>  (3012) 
FURAN

>  <SYNONYMS>  (3012) 


>  <SPECTRUM TYPE>  (3012) 
MS1

>  <INSTRUMENT TYPE>  (3012) 
EI-B

>  <INSTRUMENT>  (3012) 
HITACHI RMU-6M

>  <ION MODE>  (3012) 
P

>  <INCHIKEY>  (3012) 
YLQBMQCUIZJEEH-UHFFFAOYSA-N

>  <FORMULA>  (3012) 
C4H4O

>  <EXACT MASS>  (3012) 
68.026214748

>  <MW>  (3012) 
68

>  <ID>  (3012) 
JP007322

>  <CONTRIBUTOR>  (3012) 
University of Tokyo Team, {Faculty of Engineering, University of Tokyo

>  <COMMENT>  (3012) 
SMILES=c(c1)coc1
cas=110-00-9
InChI=InChI=1S/C4H4O/c1-2-4-5-3-1/h1-4H
computed SMILES=O1C=CC=C1
accession=JP007322
date=2016.01.19 (Created 2008.10.21, modified 2011.05.06)
author=YAMAMOTO M, DEP. CHEMISTRY, FAC. SCIENCE, NARA WOMEN'S UNIV.
license=CC BY-NC-SA
exact mass=68.02621
ionization energy=70 eV
ion type=[M]+*
computed spectral entropy=1.7296208712092809
computed normalized entropy=0.6386960147582581
SPLASH=splash10-00kr-9000000000-d007e0256578ac930b22
submitter=submitter = University of Tokyo Team (Faculty of Engineering, University of Tokyo)
MoNA Rating=3.75

>  <NUM PEAKS>  (3012) 
15

>  <MASS SPECTRAL PEAKS>  (3012) 
14 1.89
25 1.14
26 2.18
28 2.5
29 11.81
34 2.66
36 1.56
37 9.12
38 15.03
39 99.99
40 14.89
41 1.04
42 8.38
68 86.94
69 3.9

>  <PREDICTED SPECTRUM>  (3012) 
14 36
25 66
26 110
27 29
28 97
29 16
36 70
37 192
38 256
39 403
40 213
41 314
44 89
49 77
50 205
51 88
52 210
61 91
63 56
67 132
68 999
69 260

$$$$

     RDKit          2D

  5  4  0  0  0  0  0  0  0  0999 V2000
   -1.2990    2.2500    0.0000 C   0  0  0  0  0  0  0  0  0  0  0  0
   -2.5981    1.5000    0.0000 C   0  0  0  0  0  0  0  0  0  0  0  0
    0.0000    1.5000    0.0000 C   0  0  0  0  0  0  0  0  0  0  0  0
   -3.8971    2.2500    0.0000 N   0  0  0  0  0  0  0  0  0  0  0  0
    1.2990    2.2500    0.0000 N   0  0  0  0  0  0  0  0  0  0  0  0
  2  1  1  0
  3  1  1  0
  4  2  1  0
  5  3  1  0
M  END
>  <NAME>  (3013) 
1,3-DIAMINOPROPANE

>  <SYNONYMS>  (3013) 


>  <SPECTRUM TYPE>  (3013) 
MS1

>  <INSTRUMENT TYPE>  (3013) 
EI-B

>  <INSTRUMENT>  (3013) 
HITACHI RMU-6M

>  <ION MODE>  (3013) 
P

>  <INCHIKEY>  (3013) 
XFNJVJPLKCPIBV-UHFFFAOYSA-N

>  <FORMULA>  (3013) 
C3H10N2

>  <EXACT MASS>  (3013) 
74.08439831999999

>  <MW>  (3013) 
74

>  <ID>  (3013) 
JP007321

>  <CONTRIBUTOR>  (3013) 
University of Tokyo Team, {Faculty of Engineering, University of Tokyo

>  <COMMENT>  (3013) 
SMILES=NCCCN
cas=109-76-2
InChI=InChI=1S/C3H10N2/c4-2-1-3-5/h1-5H2
computed SMILES=NCCCN
accession=JP007321
date=2016.01.19 (Created 2008.10.21, modified 2011.05.06)
author=YAMAMOTO M, DEP. CHEMISTRY, FAC. SCIENCE, NARA WOMEN'S UNIV.
license=CC BY-NC-SA
exact mass=74.0844
ionization energy=70 eV
ion type=[M]+*
computed spectral entropy=2.122711994773305
computed normalized entropy=0.7085786715696802
SPLASH=splash10-053r-9000000000-95ecfa758d5699a04f9f
submitter=submitter = University of Tokyo Team (Faculty of Engineering, University of Tokyo)
MoNA Rating=3.75

>  <NUM PEAKS>  (3013) 
20

>  <MASS SPECTRAL PEAKS>  (3013) 
15 3.11
17 4.39
18 31.61
26 1.04
27 3.47
28 16.11
29 3.87
30 99.99
31 2.87
39 1.1
40 1.24
41 2.65
42 7.1
43 3.75
44 16
45 10.41
54 1.11
56 24.14
57 71.49
58 2.99

>  <PREDICTED SPECTRUM>  (3013) 
14 23
15 62
16 34
17 77
18 116
25 10
26 58
27 123
28 214
29 104
30 999
31 115
32 13
38 17
39 101
40 62
41 93
42 76
43 166
44 83
45 159
46 30
53 9
54 58
55 62
56 245
57 195
58 78
59 7
73 86
74 65
75 20

$$$$

     RDKit          2D

  5  4  0  0  0  0  0  0  0  0999 V2000
    0.0000    0.0000    0.0000 C   0  0  0  0  0  0  0  0  0  0  0  0
   -1.2990    2.2500    0.0000 C   0  0  0  0  0  0  0  0  0  0  0  0
    0.0000    1.5000    0.0000 C   0  0  0  0  0  0  0  0  0  0  0  0
   -1.2990    3.7500    0.0000 N   0  0  0  0  0  0  0  0  0  0  0  0
    1.2990    2.2500    0.0000 N   0  0  0  0  0  0  0  0  0  0  0  0
  3  1  1  0
  3  2  1  0
  4  2  1  0
  5  3  1  0
M  END
>  <NAME>  (3014) 
1,2-DIAMINOPROPANE

>  <SYNONYMS>  (3014) 


>  <SPECTRUM TYPE>  (3014) 
MS1

>  <INSTRUMENT TYPE>  (3014) 
EI-B

>  <INSTRUMENT>  (3014) 
HITACHI RMU-6M

>  <ION MODE>  (3014) 
P

>  <INCHIKEY>  (3014) 
AOHJOMMDDJHIJH-UHFFFAOYSA-N

>  <FORMULA>  (3014) 
C3H10N2

>  <EXACT MASS>  (3014) 
74.08439831999999

>  <MW>  (3014) 
74

>  <ID>  (3014) 
JP007320

>  <CONTRIBUTOR>  (3014) 
University of Tokyo Team, {Faculty of Engineering, University of Tokyo

>  <COMMENT>  (3014) 
SMILES=NCC(C)N
cas=78-90-0
InChI=InChI=1S/C3H10N2/c1-3(5)2-4/h3H,2,4-5H2,1H3
computed SMILES=NCC(N)C
accession=JP007320
date=2016.01.19 (Created 2008.10.21, modified 2011.05.06)
author=YAMAMOTO M, DEP. CHEMISTRY, FAC. SCIENCE, NARA WOMEN'S UNIV.
license=CC BY-NC-SA
exact mass=74.0844
ionization energy=70 eV
ion type=[M]+*
computed spectral entropy=1.5716249466434316
computed normalized entropy=0.5803529587463928
SPLASH=splash10-0006-9000000000-c21c110ad3799b0d0f50
submitter=submitter = University of Tokyo Team (Faculty of Engineering, University of Tokyo)
MoNA Rating=3.75

>  <NUM PEAKS>  (3014) 
15

>  <MASS SPECTRAL PEAKS>  (3014) 
15 2.29
18 16.11
27 2.09
28 7.85
29 1.56
30 23.05
41 2.22
42 6.2
43 2.85
44 99.99
45 2.82
56 2.82
57 1.19
58 1.05
74 1

>  <PREDICTED SPECTRUM>  (3014) 
14 28
15 118
16 57
17 99
18 192
26 19
27 48
28 415
29 225
30 901
31 216
32 49
39 113
40 87
41 283
42 464
43 294
44 999
45 228
46 62
52 35
54 72
55 77
56 362
57 279
58 170
67 1
75 7

$$$$

     RDKit          2D

 13 14  0  0  0  0  0  0  0  0999 V2000
    2.5986    1.0700    0.0000 C   0  0  0  0  0  0  0  0  0  0  0  0
   -5.1957    1.0700    0.0000 C   0  0  0  0  0  0  0  0  0  0  0  0
    1.2990    0.3192    0.0000 C   0  0  0  0  0  0  0  0  0  0  0  0
    2.5990    2.5708    0.0000 C   0  0  0  0  0  0  0  0  0  0  0  0
   -5.1962    2.5708    0.0000 C   0  0  0  0  0  0  0  0  0  0  0  0
   -3.8962    0.3192    0.0000 C   0  0  0  0  0  0  0  0  0  0  0  0
    0.0000    1.0692    0.0000 C   0  0  0  0  0  0  0  0  0  0  0  0
    1.3000    3.3208    0.0000 C   0  0  0  0  0  0  0  0  0  0  0  0
   -3.8971    3.3208    0.0000 C   0  0  0  0  0  0  0  0  0  0  0  0
   -2.5971    1.0692    0.0000 C   0  0  0  0  0  0  0  0  0  0  0  0
    0.0005    2.5700    0.0000 C   0  0  0  0  0  0  0  0  0  0  0  0
   -2.5976    2.5700    0.0000 C   0  0  0  0  0  0  0  0  0  0  0  0
   -1.2986    3.3200    0.0000 N   0  0  0  0  0  0  0  0  0  0  0  0
  3  1  1  0
  4  1  1  0
  5  2  1  0
  6  2  1  0
  7  3  1  0
  8  4  1  0
  9  5  1  0
 10  6  1  0
 11  7  1  0
 11  8  1  0
 12  9  1  0
 12 10  1  0
 13 11  1  0
 13 12  1  0
M  END
>  <NAME>  (3015) 
DICYCLOHEXYLAMINE

>  <SYNONYMS>  (3015) 


>  <SPECTRUM TYPE>  (3015) 
MS1

>  <INSTRUMENT TYPE>  (3015) 
EI-B

>  <INSTRUMENT>  (3015) 
HITACHI RMU-6M

>  <ION MODE>  (3015) 
P

>  <INCHIKEY>  (3015) 
XBPCUCUWBYBCDP-UHFFFAOYSA-N

>  <FORMULA>  (3015) 
C12H23N

>  <EXACT MASS>  (3015) 
181.183049736

>  <MW>  (3015) 
181

>  <ID>  (3015) 
JP007318

>  <CONTRIBUTOR>  (3015) 
University of Tokyo Team, {Faculty of Engineering, University of Tokyo

>  <COMMENT>  (3015) 
SMILES=C(C2)CCC(C2)NC(C1)CCCC1
cas=101-83-7
InChI=InChI=1S/C12H23N/c1-3-7-11(8-4-1)13-12-9-5-2-6-10-12/h11-13H,1-10H2
computed SMILES=N(C1CCCCC1)C2CCCCC2
accession=JP007318
date=2016.01.19 (Created 2008.10.21, modified 2011.05.06)
author=YAMAMOTO M, DEP. CHEMISTRY, FAC. SCIENCE, NARA WOMEN'S UNIV.
license=CC BY-NC-SA
exact mass=181.18305
ionization energy=70 eV
ion type=[M]+*
computed spectral entropy=2.655502657225307
computed normalized entropy=0.7469037099318085
SPLASH=splash10-000i-9800000000-bf6991a5f5052b3dd840
submitter=submitter = University of Tokyo Team (Faculty of Engineering, University of Tokyo)
MoNA Rating=3.75

>  <NUM PEAKS>  (3015) 
35

>  <MASS SPECTRAL PEAKS>  (3015) 
27 3.56
28 5.5
29 5.38
30 5.47
39 4.05
41 16.93
42 2.14
43 3.86
44 9.59
53 2.32
54 2.58
55 15.14
56 37.51
57 1.74
67 2.4
68 2.24
69 1.42
70 3.04
79 1.18
80 1.04
81 3.6
82 7.21
83 4.43
96 1.78
98 5.06
100 5.83
110 2.42
124 1.2
125 1.8
138 99.99
139 10.8
152 3.26
180 1.18
181 15.4
182 2.2

>  <PREDICTED SPECTRUM>  (3015) 
14 30
15 86
16 27
17 24
18 24
25 16
26 171
27 498
28 412
29 521
30 473
31 130
32 63
33 38
34 61
35 30
36 47
37 103
38 151
39 609
40 301
41 924
42 481
43 519
44 311
45 125
46 78
47 34
49 38
50 94
51 193
52 161
53 363
54 499
55 855
56 820
57 440
58 309
59 102
60 178
61 13
62 68
63 28
64 0
65 179
66 179
67 479
68 334
69 248
70 380
71 260
72 228
73 59
74 37
76 20
77 202
78 160
79 254
80 137
81 373
82 538
83 587
84 264
85 156
86 26
93 115
94 193
95 104
96 236
97 77
98 661
99 459
100 594
101 211
102 64
106 95
107 87
108 88
109 135
110 274
111 78
112 250
113 60
114 31
120 4
121 11
122 59
124 176
125 210
126 191
127 61
134 34
136 102
137 61
138 999
139 374
140 204
141 30
150 64
151 40
152 385
153 121
154 10
164 22
165 22
166 171
167 56
177 21
178 136
179 119
180 176
181 831
182 301
183 110
184 3

$$$$

     RDKit          2D

 11 10  0  0  0  0  0  0  0  0999 V2000
    3.2476    5.6250    0.0000 C   0  0  0  0  0  0  0  0  0  0  0  0
    1.9486    6.3750    0.0000 C   0  0  0  0  0  0  0  0  0  0  0  0
    0.6495    5.6250    0.0000 C   0  0  0  0  0  0  0  0  0  0  0  0
   -0.6495    6.3750    0.0000 C   0  0  0  0  0  0  0  0  0  0  0  0
   -1.9486    5.6250    0.0000 C   0  0  0  0  0  0  0  0  0  0  0  0
   -3.2476    6.3750    0.0000 C   0  0  0  0  0  0  0  0  0  0  0  0
   -4.5466    5.6250    0.0000 C   0  0  0  0  0  0  0  0  0  0  0  0
   -5.8457    6.3750    0.0000 C   0  0  0  0  0  0  0  0  0  0  0  0
   -7.1447    5.6250    0.0000 C   0  0  0  0  0  0  0  0  0  0  0  0
   -8.4437    6.3750    0.0000 C   0  0  0  0  0  0  0  0  0  0  0  0
   -9.7428    5.6250    0.0000 O   0  0  0  0  0  0  0  0  0  0  0  0
  2  1  1  0
  3  2  1  0
  4  3  1  0
  5  4  1  0
  6  5  1  0
  7  6  1  0
  8  7  1  0
  9  8  1  0
 10  9  1  0
 11 10  1  0
M  END
>  <NAME>  (3016) 
1-DECANOL

>  <SYNONYMS>  (3016) 


>  <SPECTRUM TYPE>  (3016) 
MS1

>  <INSTRUMENT TYPE>  (3016) 
EI-B

>  <INSTRUMENT>  (3016) 
HITACHI RMU-6M

>  <ION MODE>  (3016) 
P

>  <INCHIKEY>  (3016) 
MWKFXSUHUHTGQN-UHFFFAOYSA-N

>  <FORMULA>  (3016) 
C10H22O

>  <EXACT MASS>  (3016) 
158.167065324

>  <MW>  (3016) 
158

>  <ID>  (3016) 
JP007314

>  <CONTRIBUTOR>  (3016) 
University of Tokyo Team, {Faculty of Engineering, University of Tokyo

>  <COMMENT>  (3016) 
SMILES=CCCCCCCCCCO
cas=112-30-1
InChI=InChI=1S/C10H22O/c1-2-3-4-5-6-7-8-9-10-11/h11H,2-10H2,1H3
computed SMILES=OCCCCCCCCCC
accession=JP007314
date=2016.01.19 (Created 2008.10.21, modified 2011.05.06)
author=YAMAMOTO M, DEP. CHEMISTRY, FAC. SCIENCE, NARA WOMEN'S UNIV.
license=CC BY-NC-SA
exact mass=158.16707
ionization energy=70 eV
ion type=[M]+*
computed spectral entropy=2.890926289491799
computed normalized entropy=0.8418570359598158
SPLASH=splash10-0a4l-9000000000-c952708ac925d4cc26ee
submitter=submitter = University of Tokyo Team (Faculty of Engineering, University of Tokyo)
MoNA Rating=3.75

>  <NUM PEAKS>  (3016) 
31

>  <MASS SPECTRAL PEAKS>  (3016) 
15 1.05
27 23.98
28 6.38
29 42.7
30 1.25
31 25.44
32 1.72
39 15.24
40 3.46
41 82.55
42 41.14
43 99.46
45 3.38
46 3.37
53 4.89
54 8.69
55 99.99
56 93.2
57 45.71
58 1.97
67 8.45
68 29.6
69 70.1
70 89.86
71 17.05
73 2.56
81 2.29
82 22.61
83 58.74
84 43.04
85 8.77

>  <PREDICTED SPECTRUM>  (3016) 
15 3
16 7
18 2
19 11
25 11
26 71
27 346
28 159
29 499
30 44
31 320
32 46
33 35
36 12
37 42
38 77
39 453
40 207
41 956
42 567
43 871
44 332
45 293
46 93
47 81
49 7
50 88
51 126
52 70
53 277
54 329
55 999
56 913
57 809
58 145
59 123
60 78
61 57
65 59
66 116
67 394
68 478
69 889
70 793
71 491
72 143
73 109
76 13
79 62
80 3
81 307
82 435
83 739
84 514
85 244
86 32
87 87
93 7
95 209
96 282
97 489
98 282
99 138
101 10
110 77
111 311
112 372
113 128
114 50
124 27
125 46
126 34
130 27
140 179

$$$$

     RDKit          2D

  4  3  0  0  0  0  0  0  0  0999 V2000
   -2.5981    2.2500    0.0000 C   0  0  0  0  0  0  0  0  0  0  0  0
   -1.2990    1.5000    0.0000 C   0  0  0  0  0  0  0  0  0  0  0  0
    0.0000    2.2500    0.0000 C   0  0  0  0  0  0  0  0  0  0  0  0
    1.2990    1.5000    0.0000 O   0  0  0  0  0  0  0  0  0  0  0  0
  2  1  2  0
  3  2  1  0
  4  3  1  0
M  END
>  <NAME>  (3017) 
ALLYL ALCOHOL

>  <SYNONYMS>  (3017) 
2-PROPEN-1-OL

>  <SPECTRUM TYPE>  (3017) 
MS1

>  <INSTRUMENT TYPE>  (3017) 
EI-B

>  <INSTRUMENT>  (3017) 
HITACHI RMU-6M

>  <ION MODE>  (3017) 
P

>  <INCHIKEY>  (3017) 
XXROGKLTLUQVRX-UHFFFAOYSA-N

>  <FORMULA>  (3017) 
C3H6O

>  <EXACT MASS>  (3017) 
58.041864812

>  <MW>  (3017) 
58

>  <ID>  (3017) 
JP007313

>  <CONTRIBUTOR>  (3017) 
University of Tokyo Team, {Faculty of Engineering, University of Tokyo

>  <COMMENT>  (3017) 
SMILES=C=CCO
cas=107-18-6
InChI=InChI=1S/C3H6O/c1-2-3-4/h2,4H,1,3H2
computed SMILES=OCC=C
accession=JP007313
date=2016.01.19 (Created 2008.10.21, modified 2011.05.06)
author=YAMAMOTO M, DEP. CHEMISTRY, FAC. SCIENCE, NARA WOMEN'S UNIV.
license=CC BY-NC-SA
exact mass=58.04186
ionization energy=70 eV
ion type=[M]+*
computed spectral entropy=2.4337167004311415
computed normalized entropy=0.7873449611754728
SPLASH=splash10-0a6r-9000000000-cdac996ba92e437d2490
submitter=submitter = University of Tokyo Team (Faculty of Engineering, University of Tokyo)
MoNA Rating=3.75

>  <NUM PEAKS>  (3017) 
22

>  <MASS SPECTRAL PEAKS>  (3017) 
14 1.32
15 2.56
25 2.23
26 11.79
27 27.97
28 17.17
29 29.54
30 16.26
31 44.07
37 4.3
38 6.08
39 29.67
40 9.51
41 5.91
42 1.28
43 4.96
53 1.57
55 5.42
56 1.73
57 99.99
58 35.21
59 1.53

>  <PREDICTED SPECTRUM>  (3017) 
14 148
15 241
16 92
17 88
18 94
19 118
25 148
26 451
27 974
28 716
29 809
30 554
31 705
32 80
33 8
36 209
37 376
38 479
39 999
40 531
41 721
42 519
43 591
44 52
50 308
51 142
52 140
53 317
54 49
55 410
56 334
57 916
58 702
59 67
61 153

$$$$

     RDKit          2D

 10  9  0  0  0  0  0  0  0  0999 V2000
   -8.4437    5.6250    0.0000 C   0  0  0  0  0  0  0  0  0  0  0  0
    3.2476    4.8750    0.0000 C   0  0  0  0  0  0  0  0  0  0  0  0
   -7.1447    4.8750    0.0000 C   0  0  0  0  0  0  0  0  0  0  0  0
    1.9486    5.6250    0.0000 C   0  0  0  0  0  0  0  0  0  0  0  0
   -5.8457    5.6250    0.0000 C   0  0  0  0  0  0  0  0  0  0  0  0
    0.6495    4.8750    0.0000 C   0  0  0  0  0  0  0  0  0  0  0  0
   -4.5466    4.8750    0.0000 C   0  0  0  0  0  0  0  0  0  0  0  0
   -0.6495    5.6250    0.0000 C   0  0  0  0  0  0  0  0  0  0  0  0
   -3.2476    5.6250    0.0000 C   0  0  0  0  0  0  0  0  0  0  0  0
   -1.9486    4.8750    0.0000 C   0  0  0  0  0  0  0  0  0  0  0  0
  3  1  1  0
  4  2  1  0
  5  3  1  0
  6  4  1  0
  7  5  1  0
  8  6  1  0
  9  7  1  0
 10  8  1  0
 10  9  1  0
M  END
>  <NAME>  (3018) 
DECANE

>  <SYNONYMS>  (3018) 


>  <SPECTRUM TYPE>  (3018) 
MS1

>  <INSTRUMENT TYPE>  (3018) 
EI-B

>  <INSTRUMENT>  (3018) 
HITACHI RMU-6M

>  <ION MODE>  (3018) 
P

>  <INCHIKEY>  (3018) 
DIOQZVSQGTUSAI-UHFFFAOYSA-N

>  <FORMULA>  (3018) 
C10H22

>  <EXACT MASS>  (3018) 
142.172150704

>  <MW>  (3018) 
142

>  <ID>  (3018) 
JP007312

>  <CONTRIBUTOR>  (3018) 
University of Tokyo Team, {Faculty of Engineering, University of Tokyo

>  <COMMENT>  (3018) 
SMILES=CCCCCCCCCC
cas=124-18-5
InChI=InChI=1S/C10H22/c1-3-5-7-9-10-8-6-4-2/h3-10H2,1-2H3
computed SMILES=CCCCCCCCCC
accession=JP007312
date=2016.01.19 (Created 2008.10.21, modified 2011.05.06)
author=YAMAMOTO M, DEP. CHEMISTRY, FAC. SCIENCE, NARA WOMEN'S UNIV.
license=CC BY-NC-SA
exact mass=142.17215
ionization energy=70 eV
ion type=[M]+*
computed spectral entropy=2.605661003914474
computed normalized entropy=0.781963110594755
SPLASH=splash10-052f-9000000000-17ab8ba53e53f7df1609
submitter=submitter = University of Tokyo Team (Faculty of Engineering, University of Tokyo)
MoNA Rating=3.75

>  <NUM PEAKS>  (3018) 
28

>  <MASS SPECTRAL PEAKS>  (3018) 
27 13.86
28 2.72
29 24.25
39 7.64
40 1.43
41 35.94
42 12.93
43 99.99
44 3.26
53 1.66
54 1.19
55 12.73
56 17.53
57 96.16
58 4.06
69 3.77
70 13.49
71 36.8
72 1.99
84 9.3
85 27.22
86 1.86
98 5.07
99 7.84
112 2.03
113 5.28
142 12.44
143 1.5

>  <PREDICTED SPECTRUM>  (3018) 
14 2
15 23
25 1
26 65
27 376
28 124
29 491
30 106
31 11
37 36
38 52
39 345
40 146
41 670
42 399
43 973
44 201
51 37
52 15
53 145
54 167
55 476
56 610
57 999
58 218
65 26
67 119
68 145
69 306
70 434
71 659
72 149
82 78
83 222
84 297
85 416
86 83
96 27
97 63
98 209
99 124
112 137
113 72
114 47
142 98

$$$$

     RDKit          2D

 25 25  0  0  1  0  0  0  0  0999 V2000
  -15.2288    7.2946    0.0000 C   0  0  0  0  0  0  0  0  0  0  0  0
    8.1543    7.2950    0.0000 C   0  0  0  0  0  0  0  0  0  0  0  0
  -13.9298    8.0446    0.0000 C   0  0  0  0  0  0  0  0  0  0  0  0
  -12.6307    7.2946    0.0000 C   0  0  0  0  0  0  0  0  0  0  0  0
  -11.3317    8.0446    0.0000 C   0  0  0  0  0  0  0  0  0  0  0  0
  -10.0327    7.2946    0.0000 C   0  0  0  0  0  0  0  0  0  0  0  0
   -8.7336    8.0446    0.0000 C   0  0  0  0  0  0  0  0  0  0  0  0
   -7.4346    7.2946    0.0000 C   0  0  0  0  0  0  0  0  0  0  0  0
   -6.1356    8.0446    0.0000 C   0  0  0  0  0  0  0  0  0  0  0  0
   -4.8365    7.2946    0.0000 C   0  0  0  0  0  0  0  0  0  0  0  0
    1.6587    8.0446    0.0000 C   0  0  0  0  0  0  0  0  0  0  0  0
    2.9572    5.7938    0.0000 C   0  0  0  0  0  0  0  0  0  0  0  0
    0.3596    7.2946    0.0000 C   0  0  0  0  0  0  0  0  0  0  0  0
    4.2563    5.0438    0.0000 C   0  0  0  0  0  0  0  0  0  0  0  0
    4.2572    8.0454    0.0000 C   0  0  0  0  0  0  0  0  0  0  0  0
   -2.2384    7.2946    0.0000 C   0  0  0  0  0  0  0  0  0  0  0  0
    2.9577    7.2946    0.0000 C   0  0  0  0  0  0  0  0  0  0  0  0
   -3.5375    8.0446    0.0000 C   0  0  0  0  0  0  0  0  0  0  0  0
   -0.9394    8.0446    0.0000 C   0  0  0  0  0  0  0  0  0  0  0  0
    5.5558    5.7946    0.0000 C   0  0  0  0  0  0  0  0  0  0  0  0
    5.5563    7.2954    0.0000 C   0  0  0  0  0  0  0  0  0  0  0  0
   -3.5375    9.5446    0.0000 O   0  0  0  0  0  0  0  0  0  0  0  0
   -0.9394    9.5446    0.0000 O   0  0  0  0  0  0  0  0  0  0  0  0
    6.8548    5.0446    0.0000 O   0  0  0  0  0  0  0  0  0  0  0  0
    6.8554    8.0452    0.0000 O   0  0  0  0  0  0  0  0  0  0  0  0
  3  1  1  0
  4  3  1  0
  5  4  1  0
  6  5  1  0
  7  6  1  0
  8  7  1  0
  9  8  1  0
 10  9  1  0
 13 11  1  0
 14 12  2  0
 17 11  1  0
 17 12  1  0
 17 15  2  0
 18 10  1  0
 18 16  1  0
 19 13  1  0
 19 16  1  0
 20 14  1  0
 21 15  1  0
 21 20  2  0
 18 22  1  6
 23 19  2  0
 24 20  1  0
 25  2  1  0
 25 21  1  0
M  END
>  <NAME>  (3019) 
5-HYDROXY-1-(4-HYDROXY-3-METHOXYPHENYL)TETRADECAN-3-ONE

>  <SYNONYMS>  (3019) 
10-GINGEROL

>  <SPECTRUM TYPE>  (3019) 
MS1

>  <INSTRUMENT TYPE>  (3019) 
EI-B

>  <INSTRUMENT>  (3019) 
HITACHI M-52

>  <ION MODE>  (3019) 
P

>  <INCHIKEY>  (3019) 
AIULWNKTYPZYAN-SFHVURJKSA-N

>  <FORMULA>  (3019) 
C21H34O4

>  <EXACT MASS>  (3019) 
350.245709568

>  <MW>  (3019) 
350

>  <ID>  (3019) 
JP007245

>  <CONTRIBUTOR>  (3019) 
University of Tokyo Team, {Faculty of Engineering, University of Tokyo

>  <COMMENT>  (3019) 
SMILES=CCCCCCCCCC([H])(O)CC(=O)CCc(c1)cc(OC)c(O)c1
cas=23513-15-7
InChI=InChI=1S/C21H34O4/c1-3-4-5-6-7-8-9-10-18(22)16-19(23)13-11-17-12-14-20(24)21(15-17)25-2/h12,14-15,18,22,24H,3-11,13,16H2,1-2H3/t18-/m0/s1
computed SMILES=O=C(CCC1=CC=C(O)C(OC)=C1)CC(O)CCCCCCCCC
accession=JP007245
date=2016.01.19 (Created 2008.10.21, modified 2011.05.06)
author=ENDO K, PHARMACEUTICAL INST., TOHOKU UNIV.
license=CC BY-NC-SA
exact mass=350.24571
ionization energy=70 eV
ion type=[M]+*
computed spectral entropy=3.8546838914762813
computed normalized entropy=0.8079938614487686
SPLASH=splash10-052o-9600000000-64ce23ed825b38f4851c
submitter=submitter = University of Tokyo Team (Faculty of Engineering, University of Tokyo)
MoNA Rating=3.75

>  <NUM PEAKS>  (3019) 
118

>  <MASS SPECTRAL PEAKS>  (3019) 
39 10.4
40 2.7
41 50
42 1.04
43 65.4
44 10.8
45 3.8
50 0.12
51 3.8
52 2.7
53 6.5
54 0.85
55 40.4
56 13.8
57 26.2
58 0.31
59 3.8
60 4.6
61 1.9
63 0.15
64 1.2
65 3.8
66 3.5
67 1.27
68 7.3
69 24.2
70 9.6
71 1.62
72 2.7
73 6.9
77 6.2
78 0.35
79 6.2
80 1.9
81 9.2
82 0.88
83 17.7
84 10.4
85 4.6
87 0.23
91 15
93 5.8
94 7.7
95 0.73
96 5
97 8.1
98 4.2
99 0.19
101 1.9
103 2.3
105 5
106 0.35
107 6.5
108 1.5
109 6.5
110 0.38
111 3.1
112 4.6
113 2.7
115 0.15
117 1.9
119 11.5
120 2.3
121 0.35
122 8.1
123 3.8
124 9.6
125 0.38
126 2.3
127 1.9
129 3.8
131 1.12
132 3.1
133 4.2
134 2.3
135 0.46
136 3.1
137 99.99
138 27.7
139 0.31
145 1.9
146 1.5
147 2.3
149 0.81
150 13.5
151 11.5
152 3.1
157 0.19
159 1.5
161 3.1
163 8.1
164 0.12
165 1.9
167 1.9
176 2.3
178 0.27
180 3.8
181 2.7
189 1.9
194 1.77
195 2.7
196 1.5
205 5.8
262 0.31
264 1.2
276 1.5
278 1.9
279 0.19
280 5
281 1.5
304 1.2
322 0.12
331 1.2
332 1.5
333 7.7
338 0.12
350 2.7
351 1.2

>  <PREDICTED SPECTRUM>  (3019) 
18 5
27 64
28 15
29 77
33 3
36 21
38 22
39 184
40 90
41 375
42 128
43 427
44 95
45 72
50 19
51 94
52 47
53 121
54 63
55 385
56 112
57 312
58 26
59 34
60 10
63 43
65 176
66 116
67 147
68 60
69 284
70 112
71 207
72 1
77 236
78 126
79 170
80 76
81 158
82 85
83 143
84 90
85 134
86 38
87 9
89 46
90 17
91 255
92 80
93 66
94 209
95 177
96 105
97 141
98 82
99 45
100 13
103 71
104 2
105 106
106 43
107 180
108 97
109 170
110 67
111 104
112 26
113 61
115 91
116 18
117 65
118 13
119 282
120 69
121 102
122 276
123 138
124 141
125 42
126 43
127 93
128 54
129 32
131 115
133 82
134 33
135 124
136 119
137 999
138 376
139 108
140 20
141 49
143 6
145 66
146 35
147 70
148 35
149 94
150 503
151 181
152 108
154 9
158 30
159 41
161 73
162 36
163 193
164 100
165 107
166 46
167 61
171 35
173 11
176 43
177 64
178 62
179 94
180 98
181 28
182 63
185 6
187 70
188 39
189 105
192 6
193 24
194 77
195 78
196 41
199 17
200 6
203 30
204 20
205 228
206 87
207 109
208 61
210 0
217 6
219 40
221 23
222 59
223 19
224 40
225 6
233 47
234 40
235 25
238 17
252 11
332 118
333 86
350 198
351 186
352 69

$$$$

     RDKit          2D

 23 23  0  0  0  0  0  0  0  0999 V2000
  -12.3059    4.4821    0.0000 C   0  0  0  0  0  0  0  0  0  0  0  0
    5.8806   -0.0179    0.0000 C   0  0  0  0  0  0  0  0  0  0  0  0
    5.8811    4.4826    0.0000 C   0  0  0  0  0  0  0  0  0  0  0  0
  -11.0069    5.2321    0.0000 C   0  0  0  0  0  0  0  0  0  0  0  0
   -9.7078    4.4821    0.0000 C   0  0  0  0  0  0  0  0  0  0  0  0
   -8.4088    5.2321    0.0000 C   0  0  0  0  0  0  0  0  0  0  0  0
   -7.1097    4.4821    0.0000 C   0  0  0  0  0  0  0  0  0  0  0  0
   -5.8107    5.2321    0.0000 C   0  0  0  0  0  0  0  0  0  0  0  0
   -4.5117    4.4821    0.0000 C   0  0  0  0  0  0  0  0  0  0  0  0
   -0.6145    5.2321    0.0000 C   0  0  0  0  0  0  0  0  0  0  0  0
    0.6840    2.9813    0.0000 C   0  0  0  0  0  0  0  0  0  0  0  0
   -1.9136    4.4821    0.0000 C   0  0  0  0  0  0  0  0  0  0  0  0
    1.9830    2.2313    0.0000 C   0  0  0  0  0  0  0  0  0  0  0  0
    1.9840    5.2330    0.0000 C   0  0  0  0  0  0  0  0  0  0  0  0
    4.5816    0.7321    0.0000 C   0  0  0  0  0  0  0  0  0  0  0  0
    0.6845    4.4821    0.0000 C   0  0  0  0  0  0  0  0  0  0  0  0
   -3.2126    5.2321    0.0000 C   0  0  0  0  0  0  0  0  0  0  0  0
    3.2826    2.9821    0.0000 C   0  0  0  0  0  0  0  0  0  0  0  0
    3.2830    4.4830    0.0000 C   0  0  0  0  0  0  0  0  0  0  0  0
    3.2826   -0.0179    0.0000 O   0  0  0  0  0  0  0  0  0  0  0  0
   -3.2126    6.7321    0.0000 O   0  0  0  0  0  0  0  0  0  0  0  0
    4.5822    5.2328    0.0000 O   0  0  0  0  0  0  0  0  0  0  0  0
    4.5816    2.2321    0.0000 O   0  0  0  0  0  0  0  0  0  0  0  0
  4  1  1  0
  5  4  1  0
  6  5  1  0
  7  6  1  0
  8  7  1  0
  8  9  2  0
 12 10  1  0
 13 11  2  0
 15  2  1  0
 16 10  1  0
 16 11  1  0
 16 14  2  0
 17  9  1  0
 17 12  1  0
 18 13  1  0
 19 14  1  0
 19 18  2  0
 20 15  2  0
 21 17  2  0
 22  3  1  0
 22 19  1  0
 23 15  1  0
 23 18  1  0
M  END
>  <NAME>  (3020) 
1-(4-ACETOXY-3-METHOXYPHENYL)DEC-4-EN-3-ONE

>  <SYNONYMS>  (3020) 
SHOGAOL ACETATE

>  <SPECTRUM TYPE>  (3020) 
MS1

>  <INSTRUMENT TYPE>  (3020) 
EI-B

>  <INSTRUMENT>  (3020) 
HITACHI M-52

>  <ION MODE>  (3020) 
P

>  <INCHIKEY>  (3020) 
UMPBPDLXVPCHRQ-CMDGGOBGSA-N

>  <FORMULA>  (3020) 
C19H26O4

>  <EXACT MASS>  (3020) 
318.183109312

>  <MW>  (3020) 
318

>  <ID>  (3020) 
JP007242

>  <CONTRIBUTOR>  (3020) 
University of Tokyo Team, {Faculty of Engineering, University of Tokyo

>  <COMMENT>  (3020) 
SMILES=CCCCCC=CC(=O)CCc(c1)cc(OC)c(OC(C)=O)c1
InChI=InChI=1S/C19H26O4/c1-4-5-6-7-8-9-17(21)12-10-16-11-13-18(23-15(2)20)19(14-16)22-3/h8-9,11,13-14H,4-7,10,12H2,1-3H3/b9-8+
computed SMILES=O=C(OC1=CC=C(C=C1OC)CCC(=O)C=CCCCCC)C
accession=JP007242
date=2016.01.19 (Created 2008.10.21, modified 2011.05.06)
author=ENDO K, PHARMACEUTICAL INST., TOHOKU UNIV.
license=CC BY-NC-SA
exact mass=318.18311
ionization energy=70 eV
ion type=[M]+*
computed spectral entropy=3.3849125811261955
computed normalized entropy=0.7160217673971558
SPLASH=splash10-052r-7940000000-9f55ac8977f6b93dec1a
submitter=submitter = University of Tokyo Team (Faculty of Engineering, University of Tokyo)
MoNA Rating=3.75

>  <NUM PEAKS>  (3020) 
113

>  <MASS SPECTRAL PEAKS>  (3020) 
39 5.9
40 0.8
41 15.2
42 0.39
43 29.6
44 1.5
45 0.8
50 0.08
51 4.1
52 2.8
53 4.4
54 0.08
55 33
56 2.6
57 4.4
59 0.1
63 2.6
65 2.3
66 1.5
67 0.18
68 1.8
69 5.9
70 1
71 0.1
73 0.8
77 5.9
78 2.8
79 0.46
80 1.3
81 5.2
82 1
83 0.34
84 0.8
85 1
89 0.8
90 0.08
91 10.3
92 1.3
93 1.3
94 0.36
95 2.8
96 1.3
97 3.1
99 0.13
103 1.3
104 0.8
105 2.6
106 0.15
107 3.9
108 1.3
109 1.5
110 0.1
111 1.3
113 0.8
115 1
116 0.1
117 1.5
118 0.8
119 7
120 0.21
121 1
122 4.4
123 1.8
124 0.39
125 6.4
126 0.8
130 1
131 0.13
132 0.8
133 0.8
134 1
135 0.31
136 1.5
137 99.99
138 10.8
139 0.15
144 1
145 2.6
146 1
147 0.18
148 0.8
149 3.9
150 8
151 1.83
152 5.9
153 1
161 1.3
163 0.1
164 0.8
166 1.5
173 1.8
177 0.13
178 1
179 4.6
187 0.8
189 0.08
190 0.8
192 0.8
194 0.8
199 0.08
204 1
205 37.4
206 6.2
207 0.13
215 0.8
243 0.8
248 0.8
275 0.13
276 51.5
277 8
278 2.1
318 0.36
319 0.3

>  <PREDICTED SPECTRUM>  (3020) 
15 10
26 0
27 107
28 36
29 69
39 171
40 40
41 327
42 117
43 448
44 49
45 42
50 33
51 169
52 131
53 196
54 110
55 390
56 84
57 93
59 6
63 89
64 35
65 178
66 123
67 153
68 28
69 147
70 29
71 113
73 35
76 20
77 319
78 149
79 210
80 75
81 135
82 100
83 89
84 30
85 47
89 110
90 90
91 269
92 119
93 82
94 117
95 79
96 4
97 101
98 31
99 15
102 9
103 136
104 21
105 207
106 116
107 183
108 119
109 148
110 69
111 112
115 139
116 85
117 145
118 84
119 164
120 76
122 260
123 55
124 77
125 87
126 36
127 59
128 66
129 39
131 159
132 3
133 83
134 82
135 201
136 138
137 999
138 278
139 37
140 16
142 12
143 54
144 66
145 181
146 70
147 115
148 91
149 73
150 528
151 239
152 24
157 4
159 19
160 65
161 53
162 86
163 8
164 27
165 20
173 55
175 45
176 55
177 52
186 9
187 34
188 22
189 21
191 23
201 52
202 15
204 91
205 734
206 175
207 32
215 66
217 63
219 1
220 18
233 37
248 86
276 673
277 262
278 134
287 8
318 99
319 65

$$$$

     RDKit          2D

 11 11  0  0  0  0  0  0  0  0999 V2000
    1.9442    2.6174    0.0000 C   0  0  0  0  0  0  0  0  0  0  0  0
    0.6306    0.3925    0.0000 C   0  0  0  0  0  0  0  0  0  0  0  0
    3.2287    1.8925    0.0000 C   0  0  0  0  0  0  0  0  0  0  0  0
    1.9551   -0.4016    0.0000 C   0  0  0  0  0  0  0  0  0  0  0  0
   -0.6502    2.6238    0.0000 C   0  0  0  0  0  0  0  0  0  0  0  0
    0.6451    1.8674    0.0000 C   0  0  0  0  0  0  0  0  0  0  0  0
    3.2542    0.3484    0.0000 C   0  0  0  0  0  0  0  0  0  0  0  0
   -1.9529    1.8802    0.0000 C   0  0  0  0  0  0  0  0  0  0  0  0
    4.5593   -0.3909    0.0000 O   0  0  0  0  0  0  0  0  0  0  0  0
   -1.9603    0.3802    0.0000 O   0  0  0  0  0  0  0  0  0  0  0  0
   -3.2483    2.6365    0.0000 O   0  0  0  0  0  0  0  0  0  0  0  0
  3  1  2  0
  4  2  1  0
  6  1  1  0
  6  2  2  0
  6  5  1  0
  7  3  1  0
  7  4  2  0
  8  5  1  0
  9  7  1  0
 10  8  2  0
 11  8  1  0
M  END
>  <NAME>  (3021) 
2-(4-HYDROXYPHENYL)ETHANOIC ACID

>  <SYNONYMS>  (3021) 
P-HYDROXYPHENYLACETIC ACID

>  <SPECTRUM TYPE>  (3021) 
MS1

>  <INSTRUMENT TYPE>  (3021) 
EI-B

>  <INSTRUMENT>  (3021) 
HITACHI M-52

>  <ION MODE>  (3021) 
P

>  <INCHIKEY>  (3021) 
XQXPVVBIMDBYFF-UHFFFAOYSA-N

>  <FORMULA>  (3021) 
C8H8O3

>  <EXACT MASS>  (3021) 
152.04734411599998

>  <MW>  (3021) 
152

>  <ID>  (3021) 
JP007234

>  <CONTRIBUTOR>  (3021) 
University of Tokyo Team, {Faculty of Engineering, University of Tokyo

>  <COMMENT>  (3021) 
SMILES=OC(=O)Cc(c1)ccc(O)c1
InChI=InChI=1S/C8H8O3/c9-7-3-1-6(2-4-7)5-8(10)11/h1-4,9H,5H2,(H,10,11)
computed SMILES=O=C(O)CC1=CC=C(O)C=C1
author=ENDO K, PHARMACEUTICAL INST., TOHOKU UNIV.
accession=JP007234
date=2016.01.19 (Created 2008.10.21, modified 2011.05.06)
license=CC BY-NC-SA
exact mass=152.04734
ionization energy=70 eV
ion type=[M]+*
computed spectral entropy=2.686702243185034
computed normalized entropy=0.6735304558310028
SPLASH=splash10-0a4i-6900000000-fdb73325a31c758496e9
submitter=submitter = University of Tokyo Team (Faculty of Engineering, University of Tokyo)
MoNA Rating=3.75

>  <NUM PEAKS>  (3021) 
54

>  <MASS SPECTRAL PEAKS>  (3021) 
39 4.8
40 1.2
41 5.6
42 0.2
43 6
44 1.2
45 2
49 0.12
50 4
51 5.6
52 3.6
53 0.32
54 1.2
55 6
56 1.2
57 0.92
58 1.2
67 2.8
68 1.6
69 5.2
70 0.12
71 4
73 3.2
74 1.6
77 1.64
78 4
79 5.6
81 2.4
82 0.16
83 2.8
84 1.2
85 2.4
91 0.32
95 1.6
96 1.6
97 1.6
98 0.12
99 1.2
101 1.2
105 1.6
107 99.99
108 10.8
109 2.8
111 1.2
119 0.16
121 1.2
123 1.2
127 1.2
129 0.2
135 1.2
147 1.2
149 2.8
152 3.24
153 2.8

>  <PREDICTED SPECTRUM>  (3021) 
17 5
18 4
19 4
26 39
27 87
28 24
29 65
31 7
37 33
38 86
39 224
40 35
41 77
44 29
45 244
46 2
50 172
51 271
52 167
53 173
54 24
55 85
56 13
60 40
61 64
62 93
63 116
64 46
65 103
66 81
67 22
74 62
75 64
76 36
77 424
78 207
79 312
80 88
81 85
89 127
90 88
93 51
105 200
106 76
107 999
108 273
109 17
134 58
135 21
152 572
153 167
154 46

$$$$

     RDKit          2D

 13 13  0  0  0  0  0  0  0  0999 V2000
   -1.9139    3.7324    0.0000 C   0  0  0  0  0  0  0  0  0  0  0  0
   -3.2134   -0.0180    0.0000 C   0  0  0  0  0  0  0  0  0  0  0  0
    1.9837    1.4833    0.0000 C   0  0  0  0  0  0  0  0  0  0  0  0
    0.6847    2.2333    0.0000 C   0  0  0  0  0  0  0  0  0  0  0  0
    0.6837   -0.7684    0.0000 C   0  0  0  0  0  0  0  0  0  0  0  0
    1.9832   -0.0176    0.0000 C   0  0  0  0  0  0  0  0  0  0  0  0
   -0.6148    1.4824    0.0000 C   0  0  0  0  0  0  0  0  0  0  0  0
   -0.6153   -0.0184    0.0000 C   0  0  0  0  0  0  0  0  0  0  0  0
    3.2823   -0.7676    0.0000 C   0  0  0  0  0  0  0  0  0  0  0  0
    3.2823   -2.2676    0.0000 O   0  0  0  0  0  0  0  0  0  0  0  0
    4.5813   -0.0176    0.0000 O   0  0  0  0  0  0  0  0  0  0  0  0
   -1.9139    2.2324    0.0000 O   0  0  0  0  0  0  0  0  0  0  0  0
   -1.9145   -0.7682    0.0000 O   0  0  0  0  0  0  0  0  0  0  0  0
  4  3  2  0
  6  3  1  0
  6  5  2  0
  7  4  1  0
  8  5  1  0
  8  7  2  0
  9  6  1  0
 10  9  2  0
 11  9  1  0
 12  1  1  0
 12  7  1  0
 13  2  1  0
 13  8  1  0
M  END
>  <NAME>  (3022) 
3,4-DIMETHOXYBENZOIC ACID

>  <SYNONYMS>  (3022) 


>  <SPECTRUM TYPE>  (3022) 
MS1

>  <INSTRUMENT TYPE>  (3022) 
EI-B

>  <INSTRUMENT>  (3022) 
HITACHI M-52

>  <ION MODE>  (3022) 
P

>  <INCHIKEY>  (3022) 
DAUAQNGYDSHRET-UHFFFAOYSA-N

>  <FORMULA>  (3022) 
C9H10O4

>  <EXACT MASS>  (3022) 
182.0579088

>  <MW>  (3022) 
182

>  <ID>  (3022) 
JP007232

>  <CONTRIBUTOR>  (3022) 
University of Tokyo Team, {Faculty of Engineering, University of Tokyo

>  <COMMENT>  (3022) 
SMILES=COc(c1)c(OC)cc(c1)C(O)=O
cas=93-07-2
InChI=InChI=1S/C9H10O4/c1-12-7-4-3-6(9(10)11)5-8(7)13-2/h3-5H,1-2H3,(H,10,11)
computed SMILES=O=C(O)C1=CC=C(OC)C(OC)=C1
accession=JP007232
date=2016.01.19 (Created 2008.10.21, modified 2011.05.06)
author=ENDO K, PHARMACEUTICAL INST., TOHOKU UNIV.
license=CC BY-NC-SA
exact mass=182.05791
ionization energy=70 eV
ion type=[M]+*
computed spectral entropy=3.348640910388366
computed normalized entropy=0.7641763023281072
SPLASH=splash10-001i-6900000000-4a8e98b69d84f09a207d
submitter=submitter = University of Tokyo Team (Faculty of Engineering, University of Tokyo)
MoNA Rating=3.75

>  <NUM PEAKS>  (3022) 
80

>  <MASS SPECTRAL PEAKS>  (3022) 
39 4.6
40 2.5
41 6.4
42 0.16
43 5.9
44 1.3
45 3.3
50 0.64
51 10.9
52 2.3
53 4.9
55 0.6
56 2.5
57 7.4
59 1.2
60 0.16
61 1.9
62 3.4
63 6.3
64 0.15
65 6.1
66 1.2
67 5
68 0.42
69 5.3
70 1.7
71 3
73 0.24
74 1.8
76 3.1
77 17.1
78 0.26
79 12.8
80 2.2
81 6.6
82 0.16
83 3
84 1.1
85 1.6
91 0.27
92 2.4
93 7.5
94 3
95 1.76
96 4.7
97 2
98 1
105 0.14
107 3.5
108 1.4
109 3
111 1.72
112 2
115 1
119 5.7
120 0.11
121 15
122 3
123 1.2
124 0.1
125 2
129 1.1
135 1.3
136 0.2
137 3.4
138 1.1
139 7.7
149 0.71
150 1.2
151 2
157 1.2
165 0.66
166 2.7
167 34.7
168 3.1
169 0.14
181 1.1
182 99.99
183 11.7
184 1.6

>  <PREDICTED SPECTRUM>  (3022) 
14 32
15 140
16 17
17 7
18 9
26 35
27 12
28 20
29 67
33 24
34 25
35 14
36 46
37 140
38 207
39 299
40 139
41 197
42 99
43 91
44 123
45 250
46 65
47 63
48 20
49 141
50 432
51 517
52 345
53 449
54 145
55 214
56 84
57 62
59 160
60 57
61 193
62 283
63 422
64 217
65 433
66 307
67 230
68 217
69 199
70 24
71 26
72 25
73 35
74 204
75 216
76 239
77 506
78 279
79 528
80 220
81 255
82 130
83 112
84 64
85 15
86 61
89 65
90 150
91 283
92 284
93 342
94 305
95 382
96 188
97 38
103 52
104 107
105 179
106 202
107 434
108 158
109 288
110 132
111 213
112 6
118 1
119 203
120 116
121 360
122 208
123 170
124 153
125 85
134 42
135 208
136 207
137 256
138 110
139 245
140 79
149 163
150 106
151 120
152 133
153 20
154 2
165 392
166 136
167 474
168 124
169 58
182 999
183 320
184 138
185 15

$$$$

     RDKit          2D

  8  7  0  0  0  0  0  0  0  0999 V2000
   -6.4952    4.5000    0.0000 C   0  0  0  0  0  0  0  0  0  0  0  0
    2.5981    3.7500    0.0000 C   0  0  0  0  0  0  0  0  0  0  0  0
   -5.1962    3.7500    0.0000 C   0  0  0  0  0  0  0  0  0  0  0  0
    1.2990    4.5000    0.0000 C   0  0  0  0  0  0  0  0  0  0  0  0
   -2.5981    3.7500    0.0000 C   0  0  0  0  0  0  0  0  0  0  0  0
   -1.2990    4.5000    0.0000 C   0  0  0  0  0  0  0  0  0  0  0  0
   -3.8971    4.5000    0.0000 O   0  0  0  0  0  0  0  0  0  0  0  0
    0.0000    3.7500    0.0000 O   0  0  0  0  0  0  0  0  0  0  0  0
  3  1  1  0
  4  2  1  0
  6  5  1  0
  7  3  1  0
  7  5  1  0
  8  4  1  0
  8  6  1  0
M  END
>  <NAME>  (3023) 
ETHYLENE GLYCOL DIETHYL ETHER

>  <SYNONYMS>  (3023) 


>  <SPECTRUM TYPE>  (3023) 
MS1

>  <INSTRUMENT TYPE>  (3023) 
EI-B

>  <INSTRUMENT>  (3023) 
HITACHI M-80B

>  <ION MODE>  (3023) 
P

>  <INCHIKEY>  (3023) 
LZDKZFUFMNSQCJ-UHFFFAOYSA-N

>  <FORMULA>  (3023) 
C6H14O2

>  <EXACT MASS>  (3023) 
118.099379688

>  <MW>  (3023) 
118

>  <ID>  (3023) 
JP007227

>  <CONTRIBUTOR>  (3023) 
University of Tokyo Team, {Faculty of Engineering, University of Tokyo

>  <COMMENT>  (3023) 
SMILES=CCOCCOCC
InChI=InChI=1S/C6H14O2/c1-3-7-5-6-8-4-2/h3-6H2,1-2H3
computed SMILES=O(CC)CCOCC
accession=JP007227
date=2016.01.19 (Created 2008.10.21, modified 2011.05.06)
author=SODA AROMATIC CO., LTD.
license=CC BY-NC-SA
exact mass=118.09938
ionization energy=70 eV
ion type=[M]+*
computed spectral entropy=2.3175254244790513
computed normalized entropy=0.719979753979464
SPLASH=splash10-0561-9000000000-c5935820b1c819977449
submitter=submitter = University of Tokyo Team (Faculty of Engineering, University of Tokyo)
MoNA Rating=3.75

>  <NUM PEAKS>  (3023) 
25

>  <MASS SPECTRAL PEAKS>  (3023) 
15 3.38
19 1.4
26 2.77
27 26.31
28 9.39
29 45.81
30 1.67
31 99.99
41 5.19
42 1.9
43 16.94
44 10.84
45 56.77
46 1.35
47 3.52
51 1
58 1.22
59 97.67
60 2.66
61 2.43
72 3.19
73 6.95
74 43.55
75 2.09
118 1.8

>  <PREDICTED SPECTRUM>  (3023) 
14 26
15 105
16 17
17 11
18 24
19 53
25 5
26 81
27 280
28 174
29 426
30 196
31 585
32 38
33 32
38 6
39 149
40 67
41 274
42 127
43 338
44 318
45 494
46 142
47 224
48 0
51 20
53 28
54 5
57 17
59 999
60 176
61 82
62 9
63 15
66 13
71 105
72 695
73 284
74 154
75 93
76 13
88 19
89 163
103 2
116 6
117 4
118 50

$$$$

     RDKit          2D

  9  8  0  0  0  0  0  0  0  0999 V2000
   -6.4952    4.5000    0.0000 C   0  0  0  0  0  0  0  0  0  0  0  0
    2.5981    3.7500    0.0000 C   0  0  0  0  0  0  0  0  0  0  0  0
   -5.1962    3.7500    0.0000 C   0  0  0  0  0  0  0  0  0  0  0  0
    1.2990    4.5000    0.0000 C   0  0  0  0  0  0  0  0  0  0  0  0
   -3.8971    4.5000    0.0000 C   0  0  0  0  0  0  0  0  0  0  0  0
   -2.5981    3.7500    0.0000 C   0  0  0  0  0  0  0  0  0  0  0  0
   -1.2990    4.5000    0.0000 C   0  0  0  0  0  0  0  0  0  0  0  0
   -1.2990    6.0000    0.0000 O   0  0  0  0  0  0  0  0  0  0  0  0
   -0.0000    3.7500    0.0000 O   0  0  0  0  0  0  0  0  0  0  0  0
  3  1  1  0
  4  2  1  0
  5  3  1  0
  6  5  1  0
  7  6  1  0
  8  7  2  0
  9  4  1  0
  9  7  1  0
M  END
>  <NAME>  (3024) 
ETHYL VALERATE

>  <SYNONYMS>  (3024) 


>  <SPECTRUM TYPE>  (3024) 
MS1

>  <INSTRUMENT TYPE>  (3024) 
EI-B

>  <INSTRUMENT>  (3024) 
HITACHI M-80B

>  <ION MODE>  (3024) 
P

>  <INCHIKEY>  (3024) 
ICMAFTSLXCXHRK-UHFFFAOYSA-N

>  <FORMULA>  (3024) 
C7H14O2

>  <EXACT MASS>  (3024) 
130.099379688

>  <MW>  (3024) 
130

>  <ID>  (3024) 
JP007225

>  <CONTRIBUTOR>  (3024) 
University of Tokyo Team, {Faculty of Engineering, University of Tokyo

>  <COMMENT>  (3024) 
SMILES=CCCCC(=O)OCC
InChI=InChI=1S/C7H14O2/c1-3-5-6-7(8)9-4-2/h3-6H2,1-2H3
computed SMILES=O=C(OCC)CCCC
accession=JP007225
date=2016.01.19 (Created 2008.10.21, modified 2011.05.06)
author=SODA AROMATIC CO., LTD.
license=CC BY-NC-SA
exact mass=130.09938
ionization energy=70 eV
ion type=[M]+*
computed spectral entropy=2.919039028052251
computed normalized entropy=0.7967762822105251
SPLASH=splash10-002r-9000000000-909ffa0990cafcc628c8
submitter=submitter = University of Tokyo Team (Faculty of Engineering, University of Tokyo)
MoNA Rating=3.75

>  <NUM PEAKS>  (3024) 
39

>  <MASS SPECTRAL PEAKS>  (3024) 
15 2.74
26 4.88
27 44.18
28 18.59
29 94.44
30 2.24
31 2.66
38 1.23
39 16.4
40 1.98
41 43.73
42 12.45
43 13.93
44 1.51
45 20.12
51 1.02
53 2.3
55 15.95
56 10.89
57 67.19
58 3.1
59 2.16
60 46.01
61 23.51
70 17.27
73 25.23
74 2.48
83 1.85
84 1.22
85 88.36
86 4.15
87 2.32
88 99.99
89 3.66
101 24.8
102 2.76
103 7.16
115 1.88
130 1.89

>  <PREDICTED SPECTRUM>  (3024) 
14 2
15 70
25 10
26 115
27 410
28 188
29 631
30 52
31 159
37 2
38 27
39 356
40 113
41 662
42 324
43 469
44 141
45 306
46 122
47 121
50 0
51 54
52 24
53 145
54 154
55 425
56 459
57 860
58 162
59 283
60 588
61 404
67 85
69 264
70 114
72 32
73 429
74 169
75 110
83 23
84 141
85 999
86 190
87 131
88 796
89 244
90 36
101 324
102 44
103 56
115 93
130 185
131 38

$$$$

     RDKit          2D

 10 10  0  0  0  0  0  0  0  0999 V2000
   -4.8712    2.0071    0.0000 C   0  0  0  0  0  0  0  0  0  0  0  0
    2.9231    0.5071    0.0000 C   0  0  0  0  0  0  0  0  0  0  0  0
    2.9236    2.0079    0.0000 C   0  0  0  0  0  0  0  0  0  0  0  0
    1.6236   -0.2437    0.0000 C   0  0  0  0  0  0  0  0  0  0  0  0
    1.6245    2.7579    0.0000 C   0  0  0  0  0  0  0  0  0  0  0  0
    0.3245    0.5063    0.0000 C   0  0  0  0  0  0  0  0  0  0  0  0
   -0.9740    2.7571    0.0000 C   0  0  0  0  0  0  0  0  0  0  0  0
   -2.2731    2.0071    0.0000 C   0  0  0  0  0  0  0  0  0  0  0  0
    0.3250    2.0071    0.0000 C   0  0  0  0  0  0  0  0  0  0  0  0
   -3.5721    2.7571    0.0000 O   0  0  0  0  0  0  0  0  0  0  0  0
  3  2  2  0
  4  2  1  0
  5  3  1  0
  6  4  2  0
  8  7  1  0
  9  5  2  0
  9  6  1  0
  9  7  1  0
 10  1  1  0
 10  8  1  0
M  END
>  <NAME>  (3025) 
METHYL PHENYLETHYL ETHER

>  <SYNONYMS>  (3025) 


>  <SPECTRUM TYPE>  (3025) 
MS1

>  <INSTRUMENT TYPE>  (3025) 
EI-B

>  <INSTRUMENT>  (3025) 
HITACHI M-80B

>  <ION MODE>  (3025) 
P

>  <INCHIKEY>  (3025) 
CQLYXIUHVFRXLT-UHFFFAOYSA-N

>  <FORMULA>  (3025) 
C9H12O

>  <EXACT MASS>  (3025) 
136.088815004

>  <MW>  (3025) 
136

>  <ID>  (3025) 
JP007222

>  <CONTRIBUTOR>  (3025) 
University of Tokyo Team, {Faculty of Engineering, University of Tokyo

>  <COMMENT>  (3025) 
SMILES=COCCc(c1)cccc1
InChI=InChI=1S/C9H12O/c1-10-8-7-9-5-3-2-4-6-9/h2-6H,7-8H2,1H3
computed SMILES=O(C)CCC=1C=CC=CC1
accession=JP007222
date=2016.01.19 (Created 2008.10.21, modified 2011.05.06)
author=SODA AROMATIC CO., LTD.
license=CC BY-NC-SA
exact mass=136.08882
ionization energy=70 eV
ion type=[M]+*
computed spectral entropy=2.1203675119570358
computed normalized entropy=0.6762466666929255
SPLASH=splash10-0002-9200000000-f99e8bfe8490bea5575b
submitter=submitter = University of Tokyo Team (Faculty of Engineering, University of Tokyo)
MoNA Rating=3.75

>  <NUM PEAKS>  (3025) 
23

>  <MASS SPECTRAL PEAKS>  (3025) 
15 2.75
18 1.52
27 1.84
29 3.79
39 5.19
45 99.99
46 2.1
50 2.45
51 5.23
52 1.27
63 2.98
65 9.18
77 5.2
78 2.65
79 1.78
89 1.78
91 37.12
92 2.89
103 3.38
104 9.67
105 3.42
136 23.86
137 2.31

>  <PREDICTED SPECTRUM>  (3025) 
15 8
26 15
27 52
29 1
31 36
32 9
33 52
34 0
37 37
38 90
39 244
40 49
41 59
43 76
44 29
45 999
46 144
49 26
50 167
51 292
52 177
53 103
57 8
58 165
62 77
63 198
64 81
65 289
66 64
74 112
75 118
76 64
77 291
78 274
79 218
80 9
89 94
90 98
91 631
92 211
93 43
102 73
103 184
104 512
105 369
106 160
136 278
137 64

$$$$

     RDKit          2D

 10 10  0  0  0  0  0  0  0  0999 V2000
   -4.8712    2.0071    0.0000 C   0  0  0  0  0  0  0  0  0  0  0  0
   -3.5721    2.7571    0.0000 C   0  0  0  0  0  0  0  0  0  0  0  0
    2.9231    0.5071    0.0000 C   0  0  0  0  0  0  0  0  0  0  0  0
    2.9236    2.0079    0.0000 C   0  0  0  0  0  0  0  0  0  0  0  0
    1.6236   -0.2437    0.0000 C   0  0  0  0  0  0  0  0  0  0  0  0
    1.6245    2.7579    0.0000 C   0  0  0  0  0  0  0  0  0  0  0  0
    0.3245    0.5063    0.0000 C   0  0  0  0  0  0  0  0  0  0  0  0
   -0.9740    2.7571    0.0000 C   0  0  0  0  0  0  0  0  0  0  0  0
    0.3250    2.0071    0.0000 C   0  0  0  0  0  0  0  0  0  0  0  0
   -2.2731    2.0071    0.0000 O   0  0  0  0  0  0  0  0  0  0  0  0
  2  1  1  0
  4  3  2  0
  5  3  1  0
  6  4  1  0
  7  5  2  0
  9  6  2  0
  9  7  1  0
  9  8  1  0
 10  2  1  0
 10  8  1  0
M  END
>  <NAME>  (3026) 
BENZYL ETHYL ETHER

>  <SYNONYMS>  (3026) 


>  <SPECTRUM TYPE>  (3026) 
MS1

>  <INSTRUMENT TYPE>  (3026) 
EI-B

>  <INSTRUMENT>  (3026) 
HITACHI M-80B

>  <ION MODE>  (3026) 
P

>  <INCHIKEY>  (3026) 
AXPZDYVDTMMLNB-UHFFFAOYSA-N

>  <FORMULA>  (3026) 
C9H12O

>  <EXACT MASS>  (3026) 
136.088815004

>  <MW>  (3026) 
136

>  <ID>  (3026) 
JP007221

>  <CONTRIBUTOR>  (3026) 
University of Tokyo Team, {Faculty of Engineering, University of Tokyo

>  <COMMENT>  (3026) 
SMILES=CCOCc(c1)cccc1
InChI=InChI=1S/C9H12O/c1-2-10-8-9-6-4-3-5-7-9/h3-7H,2,8H2,1H3
computed SMILES=O(CC=1C=CC=CC1)CC
accession=JP007221
date=2016.01.19 (Created 2008.10.21, modified 2011.05.06)
author=SODA AROMATIC CO., LTD.
license=CC BY-NC-SA
exact mass=136.08882
ionization energy=70 eV
ion type=[M]+*
computed spectral entropy=2.5502762380493578
computed normalized entropy=0.735854176306154
SPLASH=splash10-0006-9000000000-8b4140c12301419c1c80
submitter=submitter = University of Tokyo Team (Faculty of Engineering, University of Tokyo)
MoNA Rating=3.75

>  <NUM PEAKS>  (3026) 
32

>  <MASS SPECTRAL PEAKS>  (3026) 
15 1.61
26 1.33
27 8.49
29 8.46
30 1.75
31 2.77
38 1.37
39 11
41 2.21
43 1.58
50 4.63
51 12.12
52 2.55
53 1.44
62 1.38
63 5.83
64 1.59
65 17.74
77 19.62
78 3.5
79 35.94
80 2.26
89 5.15
90 2.67
91 99.99
92 83.2
93 5.87
105 2.25
107 15.64
108 2.04
135 8.63
136 6.71

>  <PREDICTED SPECTRUM>  (3026) 
18 2
19 5
25 9
26 53
27 169
28 89
29 181
30 75
31 112
37 24
38 73
39 223
40 58
41 145
42 38
43 86
44 57
45 149
49 19
50 159
51 252
52 139
53 91
57 26
58 45
59 24
61 37
62 89
63 204
64 106
65 381
66 108
74 51
75 93
76 75
77 285
78 279
79 372
80 140
89 153
90 228
91 999
92 579
93 205
103 55
104 153
105 229
106 92
107 520
108 235
109 41
117 5
118 56
121 31
133 16
134 63
135 137
136 354
137 128

$$$$

     RDKit          2D

 10 10  0  0  0  0  0  0  0  0999 V2000
   -5.2108   -1.5321    0.0000 C   0  0  0  0  0  0  0  0  0  0  0  0
    2.6027    1.4936    0.0000 C   0  0  0  0  0  0  0  0  0  0  0  0
   -3.9180   -0.7714    0.0000 C   0  0  0  0  0  0  0  0  0  0  0  0
    1.3000   -0.7500    0.0000 C   0  0  0  0  0  0  0  0  0  0  0  0
    0.0300    1.5000    0.0000 C   0  0  0  0  0  0  0  0  0  0  0  0
    0.0300   -1.5000    0.0000 C   0  0  0  0  0  0  0  0  0  0  0  0
   -1.3200    0.7500    0.0000 C   0  0  0  0  0  0  0  0  0  0  0  0
    1.3000    0.7500    0.0000 C   0  0  0  0  0  0  0  0  0  0  0  0
   -1.3200   -0.7500    0.0000 C   0  0  0  0  0  0  0  0  0  0  0  0
   -2.6128   -1.5107    0.0000 O   0  0  0  0  0  0  0  0  0  0  0  0
  3  1  1  0
  6  4  2  0
  7  5  1  0
  8  2  1  0
  8  4  1  0
  8  5  2  0
  9  6  1  0
  9  7  2  0
 10  3  1  0
 10  9  1  0
M  END
>  <NAME>  (3027) 
P-CRESYL ETHYL ETHER

>  <SYNONYMS>  (3027) 


>  <SPECTRUM TYPE>  (3027) 
MS1

>  <INSTRUMENT TYPE>  (3027) 
EI-B

>  <INSTRUMENT>  (3027) 
HITACHI M-80B

>  <ION MODE>  (3027) 
P

>  <INCHIKEY>  (3027) 
WSWPHHNIHLTAHB-UHFFFAOYSA-N

>  <FORMULA>  (3027) 
C9H12O

>  <EXACT MASS>  (3027) 
136.088815004

>  <MW>  (3027) 
136

>  <ID>  (3027) 
JP007220

>  <CONTRIBUTOR>  (3027) 
University of Tokyo Team, {Faculty of Engineering, University of Tokyo

>  <COMMENT>  (3027) 
SMILES=CCOc(c1)ccc(C)c1
InChI=InChI=1S/C9H12O/c1-3-10-9-6-4-8(2)5-7-9/h4-7H,3H2,1-2H3
computed SMILES=O(C1=CC=C(C=C1)C)CC
author=SODA AROMATIC CO., LTD.
license=CC BY-NC-SA
exact mass=136.08882
accession=JP007220
date=2016.01.19 (Created 2008.10.21, modified 2011.05.06)
ionization energy=70 eV
ion type=[M]+*
computed spectral entropy=2.596432197472917
computed normalized entropy=0.7710733860539205
SPLASH=splash10-0a4i-6900000000-2b46767681701313373f
submitter=submitter = University of Tokyo Team (Faculty of Engineering, University of Tokyo)
MoNA Rating=3.75

>  <NUM PEAKS>  (3027) 
29

>  <MASS SPECTRAL PEAKS>  (3027) 
26 2.46
27 19.09
29 10.51
38 1.31
39 11.09
41 1.36
43 1.3
50 4.23
51 12.44
52 7.37
53 7.73
55 1.12
62 1.43
63 4.03
64 1.26
65 9.03
77 25.41
78 8.47
79 15.98
80 9.16
89 2.34
90 8.7
91 10.18
93 1.06
107 75.07
108 99.99
109 7.26
136 55.38
137 4.4

>  <PREDICTED SPECTRUM>  (3027) 
25 16
26 103
27 247
28 83
29 208
37 39
38 115
39 360
40 74
41 233
43 104
44 69
45 16
47 42
49 23
50 226
51 393
52 293
53 282
54 113
55 52
60 38
61 83
62 119
63 201
64 121
65 301
66 73
67 63
73 49
74 136
75 102
76 53
77 604
78 379
79 524
80 287
81 175
82 20
89 164
90 225
91 478
92 140
93 263
105 99
106 62
107 999
108 951
109 279
110 60
135 105
136 832
137 256
138 69

$$$$

     RDKit          2D

  9  9  0  0  0  0  0  0  0  0999 V2000
    4.8270    1.2906    0.0000 C   0  0  0  0  0  0  0  0  0  0  0  0
    3.5281    0.5404    0.0000 C   0  0  0  0  0  0  0  0  0  0  0  0
   -1.6700   -0.9600    0.0000 C   0  0  0  0  0  0  0  0  0  0  0  0
   -1.6700    0.5400    0.0000 C   0  0  0  0  0  0  0  0  0  0  0  0
   -0.3700   -1.7100    0.0000 C   0  0  0  0  0  0  0  0  0  0  0  0
   -0.3700    1.2900    0.0000 C   0  0  0  0  0  0  0  0  0  0  0  0
    0.9300   -0.9600    0.0000 C   0  0  0  0  0  0  0  0  0  0  0  0
    0.9300    0.5400    0.0000 C   0  0  0  0  0  0  0  0  0  0  0  0
    2.2289    1.2902    0.0000 O   0  0  0  0  0  0  0  0  0  0  0  0
  2  1  1  0
  4  3  2  0
  5  3  1  0
  6  4  1  0
  7  5  2  0
  8  6  2  0
  8  7  1  0
  9  2  1  0
  9  8  1  0
M  END
>  <NAME>  (3028) 
ETHYL PHENYL ETHER

>  <SYNONYMS>  (3028) 


>  <SPECTRUM TYPE>  (3028) 
MS1

>  <INSTRUMENT TYPE>  (3028) 
EI-B

>  <INSTRUMENT>  (3028) 
HITACHI M-80B

>  <ION MODE>  (3028) 
P

>  <INCHIKEY>  (3028) 
DLRJIFUOBPOJNS-UHFFFAOYSA-N

>  <FORMULA>  (3028) 
C8H10O

>  <EXACT MASS>  (3028) 
122.07316494

>  <MW>  (3028) 
122

>  <ID>  (3028) 
JP007219

>  <CONTRIBUTOR>  (3028) 
University of Tokyo Team, {Faculty of Engineering, University of Tokyo

>  <COMMENT>  (3028) 
SMILES=CCOc(c1)cccc1
InChI=InChI=1S/C8H10O/c1-2-9-8-6-4-3-5-7-8/h3-7H,2H2,1H3
computed SMILES=O(C=1C=CC=CC1)CC
accession=JP007219
date=2016.01.19 (Created 2008.10.21, modified 2011.05.06)
author=SODA AROMATIC CO., LTD.
license=CC BY-NC-SA
exact mass=122.07316
ionization energy=70 eV
ion type=[M]+*
computed spectral entropy=2.1874885417749557
computed normalized entropy=0.7076863468498535
SPLASH=splash10-0006-9100000000-74dcd4866615d45b75e6
submitter=submitter = University of Tokyo Team (Faculty of Engineering, University of Tokyo)
MoNA Rating=3.75

>  <NUM PEAKS>  (3028) 
22

>  <MASS SPECTRAL PEAKS>  (3028) 
26 1.58
27 8.85
29 5.8
38 2.35
39 14.86
40 2.56
50 2.89
51 8.72
55 2.34
62 1.28
63 3.45
64 1.45
65 12.86
66 18.66
77 9
78 1.07
79 1.31
93 1.63
94 99.99
95 7.21
122 38.94
123 3.1

>  <PREDICTED SPECTRUM>  (3028) 
14 21
15 44
16 5
25 40
26 159
27 353
28 125
29 362
31 20
32 9
36 44
37 139
38 261
39 537
40 222
41 159
42 43
43 48
44 5
45 4
46 22
47 16
48 32
49 97
50 291
51 409
52 136
53 204
54 60
55 2
61 95
62 161
63 308
64 244
65 526
66 387
67 126
68 44
73 16
74 133
75 124
76 150
77 557
78 319
79 31
92 61
93 370
94 999
95 273
96 65
121 67
122 641
123 196
124 18

$$$$

     RDKit          2D

 15 15  0  0  0  0  0  0  0  0999 V2000
    2.7195    1.0368    0.0000 C   0  0  0  0  0  0  0  0  0  0  0  0
    3.8687    1.0991    0.0000 C   0  0  0  0  0  0  0  0  0  0  0  0
   -3.1900    1.5500    0.0000 C   0  0  0  0  0  0  0  0  0  0  0  0
   -2.4400    0.2500    0.0000 C   0  0  0  0  0  0  0  0  0  0  0  0
   -2.4400    2.8500    0.0000 C   0  0  0  0  0  0  0  0  0  0  0  0
   -0.9400    0.2500    0.0000 C   0  0  0  0  0  0  0  0  0  0  0  0
   -0.9400    2.8500    0.0000 C   0  0  0  0  0  0  0  0  0  0  0  0
   -0.1900   -1.0500    0.0000 C   0  0  0  0  0  0  0  0  0  0  0  0
   -0.1900    4.1500    0.0000 C   0  0  0  0  0  0  0  0  0  0  0  0
    1.3100   -1.0500    0.0000 C   0  0  0  0  0  0  0  0  0  0  0  0
    1.3100    4.1500    0.0000 C   0  0  0  0  0  0  0  0  0  0  0  0
    2.0600    0.2500    0.0000 C   0  0  0  0  0  0  0  0  0  0  0  0
    2.0600    2.8500    0.0000 C   0  0  0  0  0  0  0  0  0  0  0  0
    1.3100    1.5500    0.0000 C   0  0  0  0  0  0  0  0  0  0  0  0
    2.7195    2.0632    0.0000 O   0  0  0  0  0  0  0  0  0  0  0  0
  4  3  1  0
  5  3  1  0
  6  4  1  0
  7  5  1  0
  8  6  1  0
  9  7  1  0
 10  8  1  0
 11  9  1  0
 12 10  1  0
 13 11  1  0
 14  1  1  0
 14 12  1  0
 14 13  1  0
 15  2  1  0
 15 14  1  0
M  END
>  <NAME>  (3029) 
1-METHOXY-1-METHYLCYCLODODECANE

>  <SYNONYMS>  (3029) 


>  <SPECTRUM TYPE>  (3029) 
MS1

>  <INSTRUMENT TYPE>  (3029) 
EI-B

>  <INSTRUMENT>  (3029) 
HITACHI M-80B

>  <ION MODE>  (3029) 
P

>  <INCHIKEY>  (3029) 
QACBYNLZEUNZSC-UHFFFAOYSA-N

>  <FORMULA>  (3029) 
C14H28O

>  <EXACT MASS>  (3029) 
212.21401551600002

>  <MW>  (3029) 
212

>  <ID>  (3029) 
JP007216

>  <CONTRIBUTOR>  (3029) 
University of Tokyo Team, {Faculty of Engineering, University of Tokyo

>  <COMMENT>  (3029) 
SMILES=COC(C)(C1)CCCCCCCCCC1
InChI=InChI=1S/C14H28O/c1-14(15-2)12-10-8-6-4-3-5-7-9-11-13-14/h3-13H2,1-2H3
computed SMILES=O(C)C1(C)CCCCCCCCCCC1
accession=JP007216
date=2016.01.19 (Created 2008.10.21, modified 2011.05.06)
author=SODA AROMATIC CO., LTD.
license=CC BY-NC-SA
exact mass=212.21402
ionization energy=70 eV
ion type=[M]+*
computed spectral entropy=2.587638120822664
computed normalized entropy=0.7337985162774371
SPLASH=splash10-0079-9000000000-d7ed4770fbefaab6b868
submitter=submitter = University of Tokyo Team (Faculty of Engineering, University of Tokyo)
MoNA Rating=3.75

>  <NUM PEAKS>  (3029) 
34

>  <MASS SPECTRAL PEAKS>  (3029) 
27 3.68
29 8.11
39 4.23
41 19.7
42 7.38
43 8.28
45 3.39
53 1.93
54 1.19
55 17.23
56 1.78
57 1.39
59 7.39
67 4.9
68 1.38
69 4.67
71 1.7
72 52.36
73 6.66
81 3.6
82 3.58
83 2.82
85 99.99
86 6.82
95 3.07
96 2.62
97 1.36
99 2.74
127 1.55
138 1.76
141 2.87
169 1.85
197 6.08
212 3.89

>  <PREDICTED SPECTRUM>  (3029) 
27 0
29 94
39 74
40 20
41 636
42 239
43 553
45 178
53 125
54 162
55 999
56 345
57 784
58 330
59 749
67 461
68 252
69 783
70 192
71 691
72 164
77 78
79 26
81 568
82 252
83 414
84 330
85 597
86 129
88 254
95 217
96 448
97 360
99 173
100 23
101 286
109 289
110 72
111 58
113 306
114 56
127 66
139 0
141 297
142 2
155 240
156 31
169 164
181 97
197 381
212 371
213 89

$$$$

     RDKit          2D

 12 12  0  0  0  0  0  0  0  0999 V2000
   -5.1970   -1.5006    0.0000 C   0  0  0  0  0  0  0  0  0  0  0  0
    0.0000    3.0000    0.0000 C   0  0  0  0  0  0  0  0  0  0  0  0
    1.8127   -2.1596    0.0000 C   0  0  0  0  0  0  0  0  0  0  0  0
    2.7772   -0.4897    0.0000 C   0  0  0  0  0  0  0  0  0  0  0  0
   -3.8981   -0.7504    0.0000 C   0  0  0  0  0  0  0  0  0  0  0  0
   -1.3000    0.7500    0.0000 C   0  0  0  0  0  0  0  0  0  0  0  0
    1.3000    0.7500    0.0000 C   0  0  0  0  0  0  0  0  0  0  0  0
   -0.0000   -1.5000    0.0000 C   0  0  0  0  0  0  0  0  0  0  0  0
    0.0000    1.5000    0.0000 C   0  0  0  0  0  0  0  0  0  0  0  0
   -1.3000   -0.7500    0.0000 C   0  0  0  0  0  0  0  0  0  0  0  0
    1.3000   -0.7500    0.0000 C   0  0  0  0  0  0  0  0  0  0  0  0
   -2.5989   -1.5002    0.0000 O   0  0  0  0  0  0  0  0  0  0  0  0
  5  1  1  0
  9  2  1  0
  9  6  1  0
  9  7  1  0
 10  6  1  0
 10  8  1  0
 11  3  1  0
 11  4  1  0
 11  7  1  0
 11  8  1  0
 12  5  1  0
 12 10  1  0
M  END
>  <NAME>  (3030) 
3,3,5-TRIMETHYLCYCLOHEXYL ETHYL ETHER

>  <SYNONYMS>  (3030) 


>  <SPECTRUM TYPE>  (3030) 
MS1

>  <INSTRUMENT TYPE>  (3030) 
EI-B

>  <INSTRUMENT>  (3030) 
HITACHI M-80B

>  <ION MODE>  (3030) 
P

>  <INCHIKEY>  (3030) 
JVBNHJDWWBSWLE-UHFFFAOYSA-N

>  <FORMULA>  (3030) 
C11H22O

>  <EXACT MASS>  (3030) 
170.167065324

>  <MW>  (3030) 
170

>  <ID>  (3030) 
JP007215

>  <CONTRIBUTOR>  (3030) 
University of Tokyo Team, {Faculty of Engineering, University of Tokyo

>  <COMMENT>  (3030) 
SMILES=CCOC(C1)CC(C)(C)CC(C)1
InChI=InChI=1S/C11H22O/c1-5-12-10-6-9(2)7-11(3,4)8-10/h9-10H,5-8H2,1-4H3
computed SMILES=O(CC)C1CC(C)CC(C)(C)C1
accession=JP007215
date=2016.01.19 (Created 2008.10.21, modified 2011.05.06)
author=SODA AROMATIC CO., LTD.
license=CC BY-NC-SA
exact mass=170.16707
ionization energy=70 eV
ion type=[M]+*
computed spectral entropy=3.137215176652468
computed normalized entropy=0.8241379909784847
SPLASH=splash10-06r5-9200000000-d6f20f40e48f3209fd65
submitter=submitter = University of Tokyo Team (Faculty of Engineering, University of Tokyo)
MoNA Rating=3.75

>  <NUM PEAKS>  (3030) 
45

>  <MASS SPECTRAL PEAKS>  (3030) 
15 2.12
27 20.56
29 34.54
31 4.1
39 10.99
41 50.24
42 4.43
43 22.22
44 10.02
45 3.51
51 1.11
53 5.99
54 1.48
55 28.96
56 9.41
57 16.68
59 2.75
65 1.43
67 12.32
69 23.85
70 2.68
71 38.97
72 7.95
77 1.9
79 1.92
80 1.29
81 7.59
82 6.73
83 22.33
84 1.33
85 22.59
86 1.09
95 3.74
96 4.67
97 1.43
99 99.99
100 5.14
109 35.73
110 2.92
113 71.12
115 4.96
124 14.77
125 2.93
157 2.22
170 3.29

>  <PREDICTED SPECTRUM>  (3030) 
26 47
27 315
28 24
29 327
38 5
39 380
40 107
41 870
42 306
43 926
44 307
45 373
47 61
50 132
51 208
52 115
53 308
54 234
55 798
56 496
57 660
58 245
59 113
61 97
62 42
63 165
64 31
65 232
66 56
67 459
68 302
69 596
70 370
71 827
72 380
73 143
77 169
78 75
79 85
80 96
81 516
82 426
83 545
84 218
85 512
86 181
95 276
96 365
97 173
98 132
99 872
100 187
107 117
109 989
110 325
111 62
112 7
113 999
114 259
115 117
124 330
125 222
126 71
127 84
141 132
155 73
170 146
171 2

$$$$

     RDKit          2D

 13 12  0  0  0  0  0  0  0  0999 V2000
    3.8971    6.7500    0.0000 C   0  0  0  0  0  0  0  0  0  0  0  0
  -11.6913    6.7500    0.0000 C   0  0  0  0  0  0  0  0  0  0  0  0
    2.5981    7.5000    0.0000 C   0  0  0  0  0  0  0  0  0  0  0  0
  -10.3923    7.5000    0.0000 C   0  0  0  0  0  0  0  0  0  0  0  0
    1.2990    6.7500    0.0000 C   0  0  0  0  0  0  0  0  0  0  0  0
    0.0000    7.5000    0.0000 C   0  0  0  0  0  0  0  0  0  0  0  0
   -1.2990    6.7500    0.0000 C   0  0  0  0  0  0  0  0  0  0  0  0
   -2.5981    7.5000    0.0000 C   0  0  0  0  0  0  0  0  0  0  0  0
   -3.8971    6.7500    0.0000 C   0  0  0  0  0  0  0  0  0  0  0  0
   -5.1962    7.5000    0.0000 C   0  0  0  0  0  0  0  0  0  0  0  0
   -6.4952    6.7500    0.0000 C   0  0  0  0  0  0  0  0  0  0  0  0
   -7.7942    7.5000    0.0000 C   0  0  0  0  0  0  0  0  0  0  0  0
   -9.0933    6.7500    0.0000 O   0  0  0  0  0  0  0  0  0  0  0  0
  3  1  1  0
  4  2  2  0
  5  3  1  0
  6  5  1  0
  7  6  1  0
  8  7  1  0
  9  8  1  0
 10  9  1  0
 11 10  1  0
 12 11  1  0
 13  4  1  0
 13 12  1  0
M  END
>  <NAME>  (3031) 
DECYL VINYL ETHER

>  <SYNONYMS>  (3031) 


>  <SPECTRUM TYPE>  (3031) 
MS1

>  <INSTRUMENT TYPE>  (3031) 
EI-B

>  <INSTRUMENT>  (3031) 
HITACHI M-80B

>  <ION MODE>  (3031) 
P

>  <INCHIKEY>  (3031) 
NSOAQRMLVFRWIT-UHFFFAOYSA-N

>  <FORMULA>  (3031) 
C12H24O

>  <EXACT MASS>  (3031) 
184.182715388

>  <MW>  (3031) 
184

>  <ID>  (3031) 
JP007214

>  <CONTRIBUTOR>  (3031) 
University of Tokyo Team, {Faculty of Engineering, University of Tokyo

>  <COMMENT>  (3031) 
SMILES=CCCCCCCCCCOC=C
InChI=InChI=1S/C12H24O/c1-3-5-6-7-8-9-10-11-12-13-4-2/h4H,2-3,5-12H2,1H3
computed SMILES=O(C=C)CCCCCCCCCC
accession=JP007214
date=2016.01.19 (Created 2008.10.21, modified 2011.05.06)
author=SODA AROMATIC CO., LTD.
license=CC BY-NC-SA
exact mass=184.18272
ionization energy=70 eV
ion type=[M]+*
computed spectral entropy=3.02972336591371
computed normalized entropy=0.8105915383995863
SPLASH=splash10-052f-9000000000-f3f5420ad6c19dea671e
submitter=submitter = University of Tokyo Team (Faculty of Engineering, University of Tokyo)
MoNA Rating=3.75

>  <NUM PEAKS>  (3031) 
42

>  <MASS SPECTRAL PEAKS>  (3031) 
15 1.2
27 17.53
29 29.87
31 7.24
39 9.21
40 1.17
41 52.83
42 14.57
43 99.99
44 6.23
45 2.86
53 2.2
54 2.59
55 37.07
56 25.56
57 67.57
58 2.37
59 3.24
67 3.23
68 8.77
69 22.17
70 23.19
71 21.89
72 1.37
81 1.9
82 10.95
83 17.5
84 11.44
85 17.43
95 2.2
96 3.24
97 9.3
98 3.49
99 1.04
100 1.16
109 1.46
110 1.42
111 2.67
112 2.42
138 5.44
169 6.27
184 1.51

>  <PREDICTED SPECTRUM>  (3031) 
15 1
19 5
25 9
26 73
27 354
28 122
29 476
30 36
31 134
32 22
33 3
37 23
38 59
39 390
40 168
41 890
42 502
43 999
44 287
45 384
46 31
47 42
49 1
50 44
51 82
52 76
53 273
54 325
55 918
56 831
57 994
58 185
59 48
60 28
61 63
65 60
66 124
67 369
68 387
69 719
70 624
71 651
72 249
73 49
74 38
75 23
77 47
78 31
79 106
80 45
81 294
82 456
83 661
84 487
85 383
86 126
87 1
94 22
95 272
96 276
97 430
98 237
99 173
100 16
108 2
109 143
110 145
111 249
112 205
113 183
114 37
122 35
123 43
124 65
125 72
126 21
127 109
128 7
137 25
138 258
139 199
140 192
141 141
142 57
156 25
169 272
170 70

$$$$

     RDKit          2D

 12 11  0  0  0  0  0  0  0  0999 V2000
    3.8971    6.0000    0.0000 C   0  0  0  0  0  0  0  0  0  0  0  0
  -10.3923    6.7500    0.0000 C   0  0  0  0  0  0  0  0  0  0  0  0
    2.5981    6.7500    0.0000 C   0  0  0  0  0  0  0  0  0  0  0  0
    1.2990    6.0000    0.0000 C   0  0  0  0  0  0  0  0  0  0  0  0
    0.0000    6.7500    0.0000 C   0  0  0  0  0  0  0  0  0  0  0  0
   -1.2990    6.0000    0.0000 C   0  0  0  0  0  0  0  0  0  0  0  0
   -2.5981    6.7500    0.0000 C   0  0  0  0  0  0  0  0  0  0  0  0
   -3.8971    6.0000    0.0000 C   0  0  0  0  0  0  0  0  0  0  0  0
   -5.1962    6.7500    0.0000 C   0  0  0  0  0  0  0  0  0  0  0  0
   -6.4952    6.0000    0.0000 C   0  0  0  0  0  0  0  0  0  0  0  0
   -7.7942    6.7500    0.0000 C   0  0  0  0  0  0  0  0  0  0  0  0
   -9.0933    6.0000    0.0000 O   0  0  0  0  0  0  0  0  0  0  0  0
  3  1  1  0
  4  3  1  0
  5  4  1  0
  6  5  1  0
  7  6  1  0
  8  7  1  0
  9  8  1  0
 10  9  1  0
 11 10  1  0
 12  2  1  0
 12 11  1  0
M  END
>  <NAME>  (3032) 
DECYL METHYL ETHER

>  <SYNONYMS>  (3032) 


>  <SPECTRUM TYPE>  (3032) 
MS1

>  <INSTRUMENT TYPE>  (3032) 
EI-B

>  <INSTRUMENT>  (3032) 
HITACHI M-80B

>  <ION MODE>  (3032) 
P

>  <INCHIKEY>  (3032) 
JPEWDCTZJFUITH-UHFFFAOYSA-N

>  <FORMULA>  (3032) 
C11H24O

>  <EXACT MASS>  (3032) 
172.182715388

>  <MW>  (3032) 
172

>  <ID>  (3032) 
JP007213

>  <CONTRIBUTOR>  (3032) 
University of Tokyo Team, {Faculty of Engineering, University of Tokyo

>  <COMMENT>  (3032) 
SMILES=CCCCCCCCCCOC
InChI=InChI=1S/C11H24O/c1-3-4-5-6-7-8-9-10-11-12-2/h3-11H2,1-2H3
computed SMILES=O(C)CCCCCCCCCC
accession=JP007213
date=2016.01.19 (Created 2008.10.21, modified 2011.05.06)
author=SODA AROMATIC CO., LTD.
license=CC BY-NC-SA
exact mass=172.18272
ionization energy=70 eV
ion type=[M]+*
computed spectral entropy=2.9486003058676955
computed normalized entropy=0.8432987070764447
SPLASH=splash10-052e-9000000000-d5adfb0aa2ce7aba039b
submitter=submitter = University of Tokyo Team (Faculty of Engineering, University of Tokyo)
MoNA Rating=3.75

>  <NUM PEAKS>  (3032) 
33

>  <MASS SPECTRAL PEAKS>  (3032) 
15 1.53
27 8.26
28 1.58
29 15
33 1.28
39 6.82
41 29.89
42 13.32
43 25.75
45 99.99
46 1.79
53 1.75
54 2.53
55 28.78
56 29.46
57 13.02
58 1.57
67 2.52
68 13.03
69 24.8
70 33.84
71 7.01
82 11.58
83 27.2
84 18.07
85 2.68
96 1.7
97 12.33
98 5.78
111 5.97
112 12.09
140 11.04
141 1.05

>  <PREDICTED SPECTRUM>  (3032) 
15 13
26 46
27 198
28 101
29 287
31 111
32 45
33 67
37 7
38 17
39 225
40 99
41 643
42 392
43 615
44 152
45 999
46 167
47 109
51 19
53 140
54 276
55 701
56 708
57 569
58 142
59 15
60 20
63 48
66 69
67 276
68 457
69 638
70 608
71 492
72 95
74 53
75 25
79 59
80 11
81 185
82 451
83 500
84 410
85 100
86 12
87 30
95 96
96 227
97 479
98 213
99 104
101 28
110 128
111 297
112 310
113 99
125 103
126 75
127 51
129 9
140 314
141 100

$$$$

     RDKit          2D

 11 10  0  0  0  0  0  0  0  0999 V2000
   -6.8200    5.0625    0.0000 C   0  0  0  0  0  0  0  0  0  0  0  0
   -5.5209    2.8125    0.0000 C   0  0  0  0  0  0  0  0  0  0  0  0
    3.5724    5.0625    0.0000 C   0  0  0  0  0  0  0  0  0  0  0  0
    2.2733    2.8125    0.0000 C   0  0  0  0  0  0  0  0  0  0  0  0
   -4.2219    5.0625    0.0000 C   0  0  0  0  0  0  0  0  0  0  0  0
    0.9743    5.0625    0.0000 C   0  0  0  0  0  0  0  0  0  0  0  0
   -2.9228    4.3125    0.0000 C   0  0  0  0  0  0  0  0  0  0  0  0
   -0.3248    4.3125    0.0000 C   0  0  0  0  0  0  0  0  0  0  0  0
   -5.5209    4.3125    0.0000 C   0  0  0  0  0  0  0  0  0  0  0  0
    2.2733    4.3125    0.0000 C   0  0  0  0  0  0  0  0  0  0  0  0
   -1.6238    5.0625    0.0000 O   0  0  0  0  0  0  0  0  0  0  0  0
  7  5  1  0
  8  6  1  0
  9  1  1  0
  9  2  1  0
  9  5  1  0
 10  3  1  0
 10  4  1  0
 10  6  1  0
 11  7  1  0
 11  8  1  0
M  END
>  <NAME>  (3033) 
DIISOPENTYL ETHER

>  <SYNONYMS>  (3033) 


>  <SPECTRUM TYPE>  (3033) 
MS1

>  <INSTRUMENT TYPE>  (3033) 
EI-B

>  <INSTRUMENT>  (3033) 
HITACHI M-80B

>  <ION MODE>  (3033) 
P

>  <INCHIKEY>  (3033) 
AQZGPSLYZOOYQP-UHFFFAOYSA-N

>  <FORMULA>  (3033) 
C10H22O

>  <EXACT MASS>  (3033) 
158.167065324

>  <MW>  (3033) 
158

>  <ID>  (3033) 
JP007212

>  <CONTRIBUTOR>  (3033) 
University of Tokyo Team, {Faculty of Engineering, University of Tokyo

>  <COMMENT>  (3033) 
SMILES=CC(C)CCOCCC(C)C
InChI=InChI=1S/C10H22O/c1-9(2)5-7-11-8-6-10(3)4/h9-10H,5-8H2,1-4H3
computed SMILES=O(CCC(C)C)CCC(C)C
accession=JP007212
date=2016.01.19 (Created 2008.10.21, modified 2011.05.06)
author=SODA AROMATIC CO., LTD.
license=CC BY-NC-SA
exact mass=158.16707
ionization energy=70 eV
ion type=[M]+*
computed spectral entropy=2.320923813596023
computed normalized entropy=0.7747434021674414
SPLASH=splash10-00dl-9000000000-6811cf92b4ec90e65f9c
submitter=submitter = University of Tokyo Team (Faculty of Engineering, University of Tokyo)
MoNA Rating=3.75

>  <NUM PEAKS>  (3033) 
20

>  <MASS SPECTRAL PEAKS>  (3033) 
27 13.66
28 1.95
29 14.12
31 2.24
39 9.03
40 1.07
41 27.23
42 11.04
43 99.99
44 3.87
45 8.59
53 1.97
55 21.57
56 3.77
57 2.68
69 40.2
70 85.5
71 70.63
72 3.93
101 14.95

>  <PREDICTED SPECTRUM>  (3033) 
14 2
19 1
26 51
27 292
28 54
29 362
31 81
39 216
40 69
41 517
42 320
43 999
44 145
45 196
53 108
54 35
55 488
57 290
58 86
59 54
69 315
70 816
71 828
72 198
73 59
85 33
87 85
88 6
89 199
101 195
102 103
115 52
143 90

$$$$

     RDKit          2D

  8  7  0  0  0  0  0  0  0  0999 V2000
   -6.4952    4.5000    0.0000 C   0  0  0  0  0  0  0  0  0  0  0  0
    2.5981    3.7500    0.0000 C   0  0  0  0  0  0  0  0  0  0  0  0
   -5.1962    3.7500    0.0000 C   0  0  0  0  0  0  0  0  0  0  0  0
   -3.8971    4.5000    0.0000 C   0  0  0  0  0  0  0  0  0  0  0  0
   -2.5981    3.7500    0.0000 C   0  0  0  0  0  0  0  0  0  0  0  0
   -1.2990    4.5000    0.0000 C   0  0  0  0  0  0  0  0  0  0  0  0
    0.0000    3.7500    0.0000 C   0  0  0  0  0  0  0  0  0  0  0  0
    1.2990    4.5000    0.0000 O   0  0  0  0  0  0  0  0  0  0  0  0
  3  1  1  0
  4  3  1  0
  5  4  1  0
  6  5  1  0
  7  6  1  0
  8  2  1  0
  8  7  1  0
M  END
>  <NAME>  (3034) 
HEXYL METHYL ETHER

>  <SYNONYMS>  (3034) 


>  <SPECTRUM TYPE>  (3034) 
MS1

>  <INSTRUMENT TYPE>  (3034) 
EI-B

>  <INSTRUMENT>  (3034) 
HITACHI M-80B

>  <ION MODE>  (3034) 
P

>  <INCHIKEY>  (3034) 
ICBJCVRQDSQPGI-UHFFFAOYSA-N

>  <FORMULA>  (3034) 
C7H16O

>  <EXACT MASS>  (3034) 
116.120115132

>  <MW>  (3034) 
116

>  <ID>  (3034) 
JP007211

>  <CONTRIBUTOR>  (3034) 
University of Tokyo Team, {Faculty of Engineering, University of Tokyo

>  <COMMENT>  (3034) 
SMILES=CCCCCCOC
InChI=InChI=1S/C7H16O/c1-3-4-5-6-7-8-2/h3-7H2,1-2H3
computed SMILES=O(C)CCCCCC
accession=JP007211
date=2016.01.19 (Created 2008.10.21, modified 2011.05.06)
author=SODA AROMATIC CO., LTD.
license=CC BY-NC-SA
exact mass=116.12012
ionization energy=70 eV
ion type=[M]+*
computed spectral entropy=2.2198719685302017
computed normalized entropy=0.7410114675890759
SPLASH=splash10-052b-9000000000-1e0f4edc8b6e4132c4e1
submitter=submitter = University of Tokyo Team (Faculty of Engineering, University of Tokyo)
MoNA Rating=3.75

>  <NUM PEAKS>  (3034) 
20

>  <MASS SPECTRAL PEAKS>  (3034) 
15 5.05
27 11.62
28 1.48
29 10.98
31 1.38
33 4.86
39 7.16
41 15.58
42 11.96
43 11.71
45 99.99
46 1.95
47 1.02
55 12.13
56 41.65
57 1.94
69 8.9
70 1.27
84 12.94
85 1.04

>  <PREDICTED SPECTRUM>  (3034) 
15 27
26 15
27 115
28 35
29 182
31 112
32 51
39 198
40 86
41 574
42 442
43 478
44 120
45 999
46 153
47 67
51 26
53 99
54 218
55 594
56 729
57 321
58 105
59 117
67 69
68 191
69 273
70 386
71 228
73 116
74 83
82 27
83 97
84 387
85 77
87 111
88 34
101 9
116 115

$$$$

     RDKit          2D

  8  7  0  0  0  0  0  0  0  0999 V2000
   -6.4952    4.5000    0.0000 C   0  0  0  0  0  0  0  0  0  0  0  0
    2.5981    3.7500    0.0000 C   0  0  0  0  0  0  0  0  0  0  0  0
   -5.1962    3.7500    0.0000 C   0  0  0  0  0  0  0  0  0  0  0  0
   -3.8971    4.5000    0.0000 C   0  0  0  0  0  0  0  0  0  0  0  0
   -2.5981    3.7500    0.0000 C   0  0  0  0  0  0  0  0  0  0  0  0
   -1.2990    4.5000    0.0000 C   0  0  0  0  0  0  0  0  0  0  0  0
    0.0000    3.7500    0.0000 C   0  0  0  0  0  0  0  0  0  0  0  0
    1.2990    4.5000    0.0000 O   0  0  0  0  0  0  0  0  0  0  0  0
  3  1  1  0
  4  3  1  0
  4  5  2  0
  6  5  1  0
  7  6  1  0
  8  2  1  0
  8  7  1  0
M  END
>  <NAME>  (3035) 
3-HEXENYL METHYL ETHER

>  <SYNONYMS>  (3035) 


>  <SPECTRUM TYPE>  (3035) 
MS1

>  <INSTRUMENT TYPE>  (3035) 
EI-B

>  <INSTRUMENT>  (3035) 
HITACHI M-80B

>  <ION MODE>  (3035) 
P

>  <INCHIKEY>  (3035) 
KUPODEXLSGEWFR-SNAWJCMRSA-N

>  <FORMULA>  (3035) 
C7H14O

>  <EXACT MASS>  (3035) 
114.104465068

>  <MW>  (3035) 
114

>  <ID>  (3035) 
JP007210

>  <CONTRIBUTOR>  (3035) 
University of Tokyo Team, {Faculty of Engineering, University of Tokyo

>  <COMMENT>  (3035) 
SMILES=CCC=CCCOC
InChI=InChI=1S/C7H14O/c1-3-4-5-6-7-8-2/h4-5H,3,6-7H2,1-2H3/b5-4+
computed SMILES=O(C)CCC=CCC
accession=JP007210
date=2016.01.19 (Created 2008.10.21, modified 2011.05.06)
author=SODA AROMATIC CO., LTD.
license=CC BY-NC-SA
exact mass=114.10447
ionization energy=70 eV
ion type=[M]+*
computed spectral entropy=2.055667919774438
computed normalized entropy=0.6752020922242201
SPLASH=splash10-00di-9000000000-1527e4ef9be742934a50
submitter=submitter = University of Tokyo Team (Faculty of Engineering, University of Tokyo)
MoNA Rating=3.75

>  <NUM PEAKS>  (3035) 
21

>  <MASS SPECTRAL PEAKS>  (3035) 
15 1.43
27 8.59
29 5.29
39 8.89
41 33.64
42 2.37
43 3.66
45 3.1
53 3.18
55 4.5
56 2.26
57 1.06
58 4.99
67 2.92
69 1.65
71 99.99
72 4.86
82 2.62
85 4.21
114 20.5
115 1.42

>  <PREDICTED SPECTRUM>  (3035) 
15 10
26 1
27 80
28 21
29 78
32 20
33 34
38 9
39 230
40 83
41 437
42 112
43 177
44 41
45 999
46 89
51 81
52 45
53 236
54 293
55 298
56 170
57 86
58 183
65 9
66 0
67 431
68 265
69 220
70 95
71 243
72 58
81 91
82 511
83 135
114 67

$$$$

     RDKit          2D

  7  6  0  0  0  0  0  0  0  0999 V2000
    1.9486    3.3750    0.0000 C   0  0  0  0  0  0  0  0  0  0  0  0
   -5.8457    3.3750    0.0000 C   0  0  0  0  0  0  0  0  0  0  0  0
    0.6495    4.1250    0.0000 C   0  0  0  0  0  0  0  0  0  0  0  0
   -4.5466    4.1250    0.0000 C   0  0  0  0  0  0  0  0  0  0  0  0
   -0.6495    3.3750    0.0000 C   0  0  0  0  0  0  0  0  0  0  0  0
   -3.2476    3.3750    0.0000 C   0  0  0  0  0  0  0  0  0  0  0  0
   -1.9486    4.1250    0.0000 O   0  0  0  0  0  0  0  0  0  0  0  0
  3  1  2  0
  4  2  2  0
  5  3  1  0
  6  4  1  0
  7  5  1  0
  7  6  1  0
M  END
>  <NAME>  (3036) 
DIALLYL ETHER

>  <SYNONYMS>  (3036) 


>  <SPECTRUM TYPE>  (3036) 
MS1

>  <INSTRUMENT TYPE>  (3036) 
EI-B

>  <INSTRUMENT>  (3036) 
HITACHI M-80B

>  <ION MODE>  (3036) 
P

>  <INCHIKEY>  (3036) 
ATVJXMYDOSMEPO-UHFFFAOYSA-N

>  <FORMULA>  (3036) 
C6H10O

>  <EXACT MASS>  (3036) 
98.07316494

>  <MW>  (3036) 
98

>  <ID>  (3036) 
JP007209

>  <CONTRIBUTOR>  (3036) 
University of Tokyo Team, {Faculty of Engineering, University of Tokyo

>  <COMMENT>  (3036) 
SMILES=C=CCOCC=C
InChI=InChI=1S/C6H10O/c1-3-5-7-6-4-2/h3-4H,1-2,5-6H2
computed SMILES=O(CC=C)CC=C
accession=JP007209
date=2016.01.19 (Created 2008.10.21, modified 2011.05.06)
author=SODA AROMATIC CO., LTD.
license=CC BY-NC-SA
exact mass=98.07316
ionization energy=70 eV
ion type=[M]+*
computed spectral entropy=2.452817904247088
computed normalized entropy=0.7717987281475794
SPLASH=splash10-0006-9000000000-b93d33efdf9eb27590be
submitter=submitter = University of Tokyo Team (Faculty of Engineering, University of Tokyo)
MoNA Rating=3.75

>  <NUM PEAKS>  (3036) 
24

>  <MASS SPECTRAL PEAKS>  (3036) 
15 1.58
26 4.46
27 15.27
28 2.35
29 12.44
31 5.96
38 3.57
39 38.3
40 5.89
41 99.99
42 22.14
43 6.39
44 1.39
45 1.25
54 13.69
55 12.1
56 14.28
57 10.76
58 1.16
68 1.03
69 14.59
70 3.58
83 6.98
97 1.09

>  <PREDICTED SPECTRUM>  (3036) 
25 11
26 69
27 260
28 74
29 211
30 48
36 5
37 88
38 126
39 582
40 191
41 999
42 222
43 101
44 24
49 17
50 60
51 43
52 16
53 101
54 125
55 226
56 129
57 378
58 145
65 33
67 12
69 148
70 109
71 0
81 10
83 130
84 11
97 57
98 83

$$$$

     RDKit          2D

 10 10  0  0  0  0  0  0  0  0999 V2000
    3.8981    0.7504    0.0000 C   0  0  0  0  0  0  0  0  0  0  0  0
    2.5987    3.0002    0.0000 C   0  0  0  0  0  0  0  0  0  0  0  0
   -2.5989   -1.5002    0.0000 C   0  0  0  0  0  0  0  0  0  0  0  0
   -1.3000    0.7500    0.0000 C   0  0  0  0  0  0  0  0  0  0  0  0
   -0.0000   -1.5000    0.0000 C   0  0  0  0  0  0  0  0  0  0  0  0
    0.0000    1.5000    0.0000 C   0  0  0  0  0  0  0  0  0  0  0  0
    1.3000   -0.7500    0.0000 C   0  0  0  0  0  0  0  0  0  0  0  0
    2.5989    1.5002    0.0000 C   0  0  0  0  0  0  0  0  0  0  0  0
   -1.3000   -0.7500    0.0000 C   0  0  0  0  0  0  0  0  0  0  0  0
    1.3000    0.7500    0.0000 C   0  0  0  0  0  0  0  0  0  0  0  0
  6  4  2  0
  7  5  1  0
  8  1  1  0
  8  2  1  0
  9  3  1  0
  9  4  1  0
  9  5  2  0
 10  6  1  0
 10  7  2  0
 10  8  1  0
M  END
>  <NAME>  (3037) 
P-CYMENE

>  <SYNONYMS>  (3037) 


>  <SPECTRUM TYPE>  (3037) 
MS1

>  <INSTRUMENT TYPE>  (3037) 
EI-B

>  <INSTRUMENT>  (3037) 
HITACHI M-80B

>  <ION MODE>  (3037) 
P

>  <INCHIKEY>  (3037) 
HFPZCAJZSCWRBC-UHFFFAOYSA-N

>  <FORMULA>  (3037) 
C10H14

>  <EXACT MASS>  (3037) 
134.109550448

>  <MW>  (3037) 
134

>  <ID>  (3037) 
JP007208

>  <CONTRIBUTOR>  (3037) 
University of Tokyo Team, {Faculty of Engineering, University of Tokyo

>  <COMMENT>  (3037) 
SMILES=CC(C)c(c1)ccc(C)c1
InChI=InChI=1S/C10H14/c1-8(2)10-6-4-9(3)5-7-10/h4-8H,1-3H3
computed SMILES=C=1C=C(C=CC1C)C(C)C
accession=JP007208
date=2016.01.19 (Created 2008.10.21, modified 2011.05.06)
author=SODA AROMATIC CO., LTD.
license=CC BY-NC-SA
exact mass=134.10955
ionization energy=70 eV
ion type=[M]+*
computed spectral entropy=2.389363125430282
computed normalized entropy=0.6894244663882444
SPLASH=splash10-014i-3900000000-18fab12c9b06d75f28d4
submitter=submitter = University of Tokyo Team (Faculty of Engineering, University of Tokyo)
MoNA Rating=3.75

>  <NUM PEAKS>  (3037) 
32

>  <MASS SPECTRAL PEAKS>  (3037) 
15 1.22
27 3.43
39 5.73
41 5.24
50 1.54
51 3.5
52 1.17
53 1.36
58 1.22
59 1.12
62 1.13
63 3.12
65 5.41
77 6
78 2.36
79 2.11
89 1.8
91 19.65
92 2.1
93 2.02
102 1.05
103 3.71
104 2.49
105 2.84
115 4.44
116 1.34
117 9.22
118 1.79
119 99.99
120 10.04
134 24.75
135 2.42

>  <PREDICTED SPECTRUM>  (3037) 
14 34
15 106
16 12
17 9
18 24
25 1
26 77
27 248
28 127
29 102
37 68
38 129
39 362
40 128
41 247
42 98
43 169
44 30
50 170
51 257
52 168
53 184
54 71
55 20
56 29
57 24
58 118
59 41
60 45
61 52
62 105
63 218
64 154
65 338
66 153
67 49
70 12
72 28
73 32
74 112
75 112
76 52
77 269
78 171
79 212
80 88
81 32
86 16
87 22
89 155
90 63
91 610
92 251
93 111
94 31
101 67
102 136
103 232
104 184
105 268
106 89
107 74
115 373
116 217
117 379
118 179
119 999
120 316
121 80
131 4
132 87
133 226
134 559
135 192
136 35

$$$$

     RDKit          2D

 10 10  0  0  0  0  0  0  0  0999 V2000
    5.1970    1.5006    0.0000 C   0  0  0  0  0  0  0  0  0  0  0  0
   -2.5989   -1.5002    0.0000 C   0  0  0  0  0  0  0  0  0  0  0  0
    3.8981    0.7504    0.0000 C   0  0  0  0  0  0  0  0  0  0  0  0
    2.5989    1.5002    0.0000 C   0  0  0  0  0  0  0  0  0  0  0  0
   -1.3000    0.7500    0.0000 C   0  0  0  0  0  0  0  0  0  0  0  0
   -0.0000   -1.5000    0.0000 C   0  0  0  0  0  0  0  0  0  0  0  0
    0.0000    1.5000    0.0000 C   0  0  0  0  0  0  0  0  0  0  0  0
    1.3000   -0.7500    0.0000 C   0  0  0  0  0  0  0  0  0  0  0  0
   -1.3000   -0.7500    0.0000 C   0  0  0  0  0  0  0  0  0  0  0  0
    1.3000    0.7500    0.0000 C   0  0  0  0  0  0  0  0  0  0  0  0
  3  1  1  0
  3  4  2  0
  7  5  2  0
  8  6  1  0
  9  2  1  0
  9  5  1  0
  9  6  2  0
 10  4  1  0
 10  7  1  0
 10  8  2  0
M  END
>  <NAME>  (3038) 
P-(1-PROPENYL)-TOLUENE

>  <SYNONYMS>  (3038) 
ALPHA,PARA-DIMETHYLSTYRENE

>  <SPECTRUM TYPE>  (3038) 
MS1

>  <INSTRUMENT TYPE>  (3038) 
EI-B

>  <INSTRUMENT>  (3038) 
HITACHI M-80B

>  <ION MODE>  (3038) 
P

>  <INCHIKEY>  (3038) 
LSMSSYSRCUNIFX-ONEGZZNKSA-N

>  <FORMULA>  (3038) 
C10H12

>  <EXACT MASS>  (3038) 
132.093900384

>  <MW>  (3038) 
132

>  <ID>  (3038) 
JP007207

>  <CONTRIBUTOR>  (3038) 
University of Tokyo Team, {Faculty of Engineering, University of Tokyo

>  <COMMENT>  (3038) 
SMILES=CC=Cc(c1)ccc(C)c1
InChI=InChI=1S/C10H12/c1-3-4-10-7-5-9(2)6-8-10/h3-8H,1-2H3/b4-3+
computed SMILES=C=1C=C(C=CC1C=CC)C
accession=JP007207
date=2016.01.19 (Created 2008.10.21, modified 2011.05.06)
author=SODA AROMATIC CO., LTD.
license=CC BY-NC-SA
exact mass=132.0939
ionization energy=70 eV
ion type=[M]+*
computed spectral entropy=2.8982150654465766
computed normalized entropy=0.7754069678254936
SPLASH=splash10-0159-5900000000-8ed113012fcaeb2a129d
submitter=submitter = University of Tokyo Team (Faculty of Engineering, University of Tokyo)
MoNA Rating=3.75

>  <NUM PEAKS>  (3038) 
42

>  <MASS SPECTRAL PEAKS>  (3038) 
15 1.38
27 6.15
38 1.75
39 17.37
40 1.4
41 4.42
50 5.41
51 11.39
52 3.29
53 3.56
57 1.47
62 3.77
63 10.73
64 5.95
65 15.42
66 1.17
74 2.3
75 2.9
76 1.58
77 8.07
78 3.57
79 1.61
87 1.18
89 6.06
90 1.41
91 36.86
92 18.43
93 1.11
102 4.15
103 3
104 2.77
105 4.31
115 36.14
116 12.18
117 81.62
118 7.98
127 1.71
128 4.31
129 3.19
131 16.35
132 99.99
133 10.59

>  <PREDICTED SPECTRUM>  (3038) 
14 24
15 128
16 11
18 9
25 2
26 86
27 256
28 106
29 77
32 5
36 9
37 88
38 179
39 415
40 152
41 198
42 47
49 21
50 249
51 362
52 206
53 202
54 47
55 61
57 53
58 154
61 70
62 184
63 312
64 245
65 342
66 122
71 25
73 13
74 163
75 151
76 157
77 359
78 233
79 125
80 1
85 32
86 76
87 49
88 10
89 218
90 64
91 488
92 235
94 14
98 61
99 12
100 14
101 21
102 203
103 204
104 137
105 205
106 69
113 63
115 684
116 443
117 999
118 284
119 30
126 9
127 175
128 148
129 242
130 117
131 463
132 787
133 224
134 13

$$$$

     RDKit          2D

 13 14  0  0  0  0  0  0  0  0999 V2000
    2.5986    1.0700    0.0000 C   0  0  0  0  0  0  0  0  0  0  0  0
   -5.1957    1.0700    0.0000 C   0  0  0  0  0  0  0  0  0  0  0  0
    2.5990    2.5708    0.0000 C   0  0  0  0  0  0  0  0  0  0  0  0
    1.2990    0.3192    0.0000 C   0  0  0  0  0  0  0  0  0  0  0  0
   -3.8962    0.3192    0.0000 C   0  0  0  0  0  0  0  0  0  0  0  0
   -5.1962    2.5708    0.0000 C   0  0  0  0  0  0  0  0  0  0  0  0
    1.3000    3.3208    0.0000 C   0  0  0  0  0  0  0  0  0  0  0  0
    0.0000    1.0692    0.0000 C   0  0  0  0  0  0  0  0  0  0  0  0
   -2.5971    1.0692    0.0000 C   0  0  0  0  0  0  0  0  0  0  0  0
   -3.8971    3.3208    0.0000 C   0  0  0  0  0  0  0  0  0  0  0  0
   -1.2986    3.3200    0.0000 C   0  0  0  0  0  0  0  0  0  0  0  0
    0.0005    2.5700    0.0000 C   0  0  0  0  0  0  0  0  0  0  0  0
   -2.5976    2.5700    0.0000 C   0  0  0  0  0  0  0  0  0  0  0  0
  3  1  2  0
  4  1  1  0
  5  2  2  0
  6  2  1  0
  7  3  1  0
  8  4  2  0
  9  5  1  0
 10  6  2  0
 12  7  2  0
 12  8  1  0
 12 11  1  0
 13  9  2  0
 13 10  1  0
 13 11  1  0
M  END
>  <NAME>  (3039) 
DIPHENYLMETHANE

>  <SYNONYMS>  (3039) 


>  <SPECTRUM TYPE>  (3039) 
MS1

>  <INSTRUMENT TYPE>  (3039) 
EI-B

>  <INSTRUMENT>  (3039) 
HITACHI M-80B

>  <ION MODE>  (3039) 
P

>  <INCHIKEY>  (3039) 
CZZYITDELCSZES-UHFFFAOYSA-N

>  <FORMULA>  (3039) 
C13H12

>  <EXACT MASS>  (3039) 
168.093900384

>  <MW>  (3039) 
168

>  <ID>  (3039) 
JP007206

>  <CONTRIBUTOR>  (3039) 
University of Tokyo Team, {Faculty of Engineering, University of Tokyo

>  <COMMENT>  (3039) 
SMILES=c(c2)ccc(c2)Cc(c1)cccc1
InChI=InChI=1S/C13H12/c1-3-7-12(8-4-1)11-13-9-5-2-6-10-13/h1-10H,11H2
computed SMILES=C=1C=CC(=CC1)CC=2C=CC=CC2
accession=JP007206
date=2016.01.19 (Created 2008.10.21, modified 2011.05.06)
author=SODA AROMATIC CO., LTD.
license=CC BY-NC-SA
exact mass=168.0939
ionization energy=70 eV
ion type=[M]+*
computed spectral entropy=2.974517197858126
computed normalized entropy=0.7769119355460634
SPLASH=splash10-014i-5900000000-a4ca1b59bfa09f1bbc67
submitter=submitter = University of Tokyo Team (Faculty of Engineering, University of Tokyo)
MoNA Rating=3.75

>  <NUM PEAKS>  (3039) 
46

>  <MASS SPECTRAL PEAKS>  (3039) 
27 4
38 1.85
39 15.91
40 1.18
41 1.89
50 7.47
51 18.66
52 2.54
62 3.09
63 12.12
64 2.5
65 18.21
66 1.27
70 1.59
71 1.39
74 2.6
75 2.73
76 3.69
77 6.56
78 1.57
82 5.41
83 8.37
84 2.01
86 1.06
87 1.83
89 10.91
90 5.36
91 31.63
92 2.01
102 1.78
115 9.44
127 1.29
128 4.29
139 5.01
141 3.93
151 1.95
152 18.13
153 15.18
154 1.47
163 2.3
164 2.95
165 30.51
166 11.06
167 89.62
168 99.99
169 13.15

>  <PREDICTED SPECTRUM>  (3039) 
26 6
36 1
37 3
38 60
39 230
40 66
41 48
50 131
51 263
52 96
53 28
54 6
55 45
57 72
62 97
63 218
64 79
65 351
66 25
70 20
71 50
74 74
75 86
76 139
77 339
78 194
79 20
82 157
83 129
85 52
86 65
87 91
88 125
89 297
90 200
91 803
92 340
93 19
96 25
97 6
98 1
100 21
101 50
102 92
113 45
115 288
116 2
121 8
126 63
127 44
128 144
138 1
139 194
140 29
141 43
142 15
150 31
151 154
152 343
153 253
154 87
163 62
164 128
165 553
166 387
167 579
168 999
169 416
170 124

$$$$

     RDKit          2D

 19 18  0  0  0  0  0  0  0  0999 V2000
  -16.2380   10.1250    0.0000 C   0  0  0  0  0  0  0  0  0  0  0  0
    5.8457    9.3750    0.0000 C   0  0  0  0  0  0  0  0  0  0  0  0
  -14.9389    9.3750    0.0000 C   0  0  0  0  0  0  0  0  0  0  0  0
    4.5466   10.1250    0.0000 C   0  0  0  0  0  0  0  0  0  0  0  0
  -13.6399   10.1250    0.0000 C   0  0  0  0  0  0  0  0  0  0  0  0
    3.2476    9.3750    0.0000 C   0  0  0  0  0  0  0  0  0  0  0  0
  -12.3409    9.3750    0.0000 C   0  0  0  0  0  0  0  0  0  0  0  0
    1.9486   10.1250    0.0000 C   0  0  0  0  0  0  0  0  0  0  0  0
  -11.0418   10.1250    0.0000 C   0  0  0  0  0  0  0  0  0  0  0  0
   -9.7428    9.3750    0.0000 C   0  0  0  0  0  0  0  0  0  0  0  0
   -8.4437   10.1250    0.0000 C   0  0  0  0  0  0  0  0  0  0  0  0
    0.6495    9.3750    0.0000 C   0  0  0  0  0  0  0  0  0  0  0  0
   -7.1447    9.3750    0.0000 C   0  0  0  0  0  0  0  0  0  0  0  0
   -0.6495   10.1250    0.0000 C   0  0  0  0  0  0  0  0  0  0  0  0
   -5.8457   10.1250    0.0000 C   0  0  0  0  0  0  0  0  0  0  0  0
   -1.9486    9.3750    0.0000 C   0  0  0  0  0  0  0  0  0  0  0  0
   -4.5466    9.3750    0.0000 C   0  0  0  0  0  0  0  0  0  0  0  0
   -4.5466    7.8750    0.0000 O   0  0  0  0  0  0  0  0  0  0  0  0
   -3.2476   10.1250    0.0000 O   0  0  0  0  0  0  0  0  0  0  0  0
  3  1  1  0
  4  2  1  0
  5  3  1  0
  6  4  1  0
  7  5  1  0
  8  6  1  0
  9  7  1  0
 10  9  1  0
 11 10  1  0
 12  8  1  0
 13 11  1  0
 14 12  1  0
 15 13  1  0
 16 14  1  0
 17 15  1  0
 18 17  2  0
 19 16  1  0
 19 17  1  0
M  END
>  <NAME>  (3040) 
HEPTYL DECANOATE

>  <SYNONYMS>  (3040) 


>  <SPECTRUM TYPE>  (3040) 
MS1

>  <INSTRUMENT TYPE>  (3040) 
EI-B

>  <INSTRUMENT>  (3040) 
HITACHI M-80B

>  <ION MODE>  (3040) 
P

>  <INCHIKEY>  (3040) 
MPLLSYWBBPPERF-UHFFFAOYSA-N

>  <FORMULA>  (3040) 
C17H34O2

>  <EXACT MASS>  (3040) 
270.255880328

>  <MW>  (3040) 
270

>  <ID>  (3040) 
JP007205

>  <CONTRIBUTOR>  (3040) 
University of Tokyo Team, {Faculty of Engineering, University of Tokyo

>  <COMMENT>  (3040) 
SMILES=CCCCCCCCCC(=O)OCCCCCCC
InChI=InChI=1S/C17H34O2/c1-3-5-7-9-10-11-13-15-17(18)19-16-14-12-8-6-4-2/h3-16H2,1-2H3
computed SMILES=O=C(OCCCCCCC)CCCCCCCCC
accession=JP007205
date=2016.01.19 (Created 2008.10.21, modified 2011.05.06)
author=SODA AROMATIC CO., LTD.
license=CC BY-NC-SA
exact mass=270.25588
ionization energy=70 eV
ion type=[M]+*
computed spectral entropy=3.239894391399106
computed normalized entropy=0.8122104158801131
SPLASH=splash10-0abc-9100000000-2b5c6bcdbd11fde41d79
submitter=submitter = University of Tokyo Team (Faculty of Engineering, University of Tokyo)
MoNA Rating=3.75

>  <NUM PEAKS>  (3040) 
54

>  <MASS SPECTRAL PEAKS>  (3040) 
27 15.37
29 36.22
39 8.78
41 66.24
42 21.78
43 84.15
44 1.97
45 1.52
53 2.99
54 6.11
55 52.84
56 56.66
57 99.99
58 4.6
59 1.2
60 16.51
61 44.86
67 5.31
68 11.91
69 38.65
70 54.65
71 23.11
72 1
73 22.77
74 1.86
81 4.75
82 1.8
83 13.51
84 6.44
85 9.31
87 6.43
89 1.97
95 3.68
96 1.16
97 6.04
98 87.39
99 6.52
101 2.46
103 1.54
110 1.64
111 1.8
112 1.54
115 3.36
116 1.61
129 11.16
130 1.01
143 3.92
155 30.13
156 2.41
171 1.51
172 8.57
173 73.39
174 7.14
270 1.29

>  <PREDICTED SPECTRUM>  (3040) 
15 2
17 4
18 19
25 17
26 78
27 323
28 176
29 511
30 93
31 107
32 1
35 11
36 39
37 41
38 67
39 330
40 154
41 805
42 478
43 999
44 200
45 146
46 20
47 4
50 15
51 32
52 34
53 169
54 277
55 862
56 761
57 920
58 202
59 118
60 464
61 633
62 95
65 62
66 74
67 297
68 358
69 725
70 767
71 670
72 181
73 549
74 110
75 71
76 12
77 41
78 12
79 117
80 71
81 260
82 367
83 658
84 624
85 419
86 131
87 306
88 134
89 184
90 11
91 45
93 93
94 64
95 206
96 243
97 533
98 553
99 348
100 88
101 211
102 145
103 133
104 17
105 32
106 23
107 45
109 110
110 155
111 352
112 364
113 126
114 73
115 236
116 264
117 261
118 33
121 35
123 67
124 40
125 206
126 218
127 157
128 37
129 345
130 99
131 79
134 5
135 63
137 23
138 78
139 112
140 102
141 161
143 171
144 78
145 71
146 19
152 36
153 82
154 161
155 228
156 75
157 134
158 95
159 243
160 50
167 35
168 39
169 101
170 37
171 113
172 96
173 169
174 70
179 4
180 12
181 21
182 26
183 72
184 11
185 16
186 38
187 221
188 78
199 38
200 20
201 108
202 30
211 6
213 45
227 43
270 76
271 48

$$$$

     RDKit          2D

 18 17  0  0  0  0  0  0  0  0999 V2000
    9.0933   15.7500    0.0000 C   0  0  0  0  0  0  0  0  0  0  0  0
  -10.3923   18.0000    0.0000 C   0  0  0  0  0  0  0  0  0  0  0  0
    7.7942   15.0000    0.0000 C   0  0  0  0  0  0  0  0  0  0  0  0
   -9.0933   17.2500    0.0000 C   0  0  0  0  0  0  0  0  0  0  0  0
    6.4952   15.7500    0.0000 C   0  0  0  0  0  0  0  0  0  0  0  0
   -9.0933   15.7500    0.0000 C   0  0  0  0  0  0  0  0  0  0  0  0
    5.1962   15.0000    0.0000 C   0  0  0  0  0  0  0  0  0  0  0  0
   -7.7942   15.0000    0.0000 C   0  0  0  0  0  0  0  0  0  0  0  0
    3.8971   15.7500    0.0000 C   0  0  0  0  0  0  0  0  0  0  0  0
    2.5981   15.0000    0.0000 C   0  0  0  0  0  0  0  0  0  0  0  0
    1.2990   15.7500    0.0000 C   0  0  0  0  0  0  0  0  0  0  0  0
    0.0000   15.0000    0.0000 C   0  0  0  0  0  0  0  0  0  0  0  0
   -6.4952   15.7500    0.0000 C   0  0  0  0  0  0  0  0  0  0  0  0
   -1.2990   15.7500    0.0000 C   0  0  0  0  0  0  0  0  0  0  0  0
   -5.1962   15.0000    0.0000 C   0  0  0  0  0  0  0  0  0  0  0  0
   -2.5981   15.0000    0.0000 C   0  0  0  0  0  0  0  0  0  0  0  0
   -2.5981   13.5000    0.0000 O   0  0  0  0  0  0  0  0  0  0  0  0
   -3.8971   15.7500    0.0000 O   0  0  0  0  0  0  0  0  0  0  0  0
  3  1  1  0
  4  2  1  0
  5  3  1  0
  6  4  1  0
  7  5  1  0
  6  8  2  0
  9  7  1  0
 10  9  1  0
 11 10  1  0
 12 11  1  0
 13  8  1  0
 14 12  1  0
 15 13  1  0
 16 14  1  0
 17 16  2  0
 18 15  1  0
 18 16  1  0
M  END
>  <NAME>  (3041) 
CIS-3-HEXENYL DECANOATE

>  <SYNONYMS>  (3041) 


>  <SPECTRUM TYPE>  (3041) 
MS1

>  <INSTRUMENT TYPE>  (3041) 
EI-B

>  <INSTRUMENT>  (3041) 
HITACHI M-80B

>  <ION MODE>  (3041) 
P

>  <INCHIKEY>  (3041) 
APSRJAGZYONPLL-VURMDHGXSA-N

>  <FORMULA>  (3041) 
C16H30O2

>  <EXACT MASS>  (3041) 
254.2245802

>  <MW>  (3041) 
254

>  <ID>  (3041) 
JP007204

>  <CONTRIBUTOR>  (3041) 
University of Tokyo Team, {Faculty of Engineering, University of Tokyo

>  <COMMENT>  (3041) 
SMILES=CCCCCCCCCC(=O)OCCC=CCC
InChI=InChI=1S/C16H30O2/c1-3-5-7-9-10-11-12-14-16(17)18-15-13-8-6-4-2/h6,8H,3-5,7,9-15H2,1-2H3/b8-6-
computed SMILES=O=C(OCCC=CCC)CCCCCCCCC
accession=JP007204
date=2016.01.19 (Created 2008.10.21, modified 2011.05.06)
author=SODA AROMATIC CO., LTD.
license=CC BY-NC-SA
exact mass=254.22458
ionization energy=70 eV
ion type=[M]+*
computed spectral entropy=2.3565151171113667
computed normalized entropy=0.7232797093674789
SPLASH=splash10-001i-9000000000-786728617e25fe6d2ae9
submitter=submitter = University of Tokyo Team (Faculty of Engineering, University of Tokyo)
MoNA Rating=3.75

>  <NUM PEAKS>  (3041) 
26

>  <MASS SPECTRAL PEAKS>  (3041) 
27 4.02
29 2.98
39 4.13
41 18.88
42 3.34
43 14.87
53 2.22
54 3.14
55 19.49
56 2.2
57 7.46
60 1.08
67 39.74
68 2.48
69 3.39
71 6.35
73 1.25
79 1.19
81 4.03
82 99.99
83 14.64
84 1.46
85 3.86
95 1.79
155 7.97
156 1.07

>  <PREDICTED SPECTRUM>  (3041) 
15 12
25 8
26 92
27 240
28 84
29 291
31 15
37 11
38 19
39 262
40 103
41 435
42 203
43 378
44 41
50 25
51 46
52 12
53 121
54 249
55 439
56 190
57 307
58 37
59 58
60 55
61 6
65 68
66 53
67 631
68 150
69 223
70 112
71 155
72 20
73 59
74 12
77 4
79 48
80 8
81 256
82 999
83 407
84 103
85 139
86 26
87 78
96 33
97 117
98 32
110 48
111 17
112 16
114 19
115 17
125 5
126 52
127 0
155 313
156 92
173 160

$$$$

     RDKit          2D

 18 17  0  0  0  0  0  0  0  0999 V2000
  -15.5885    9.0000    0.0000 C   0  0  0  0  0  0  0  0  0  0  0  0
    5.1962    9.0000    0.0000 C   0  0  0  0  0  0  0  0  0  0  0  0
  -14.2894    8.2500    0.0000 C   0  0  0  0  0  0  0  0  0  0  0  0
    3.8971    8.2500    0.0000 C   0  0  0  0  0  0  0  0  0  0  0  0
  -12.9904    9.0000    0.0000 C   0  0  0  0  0  0  0  0  0  0  0  0
    2.5981    9.0000    0.0000 C   0  0  0  0  0  0  0  0  0  0  0  0
  -11.6913    8.2500    0.0000 C   0  0  0  0  0  0  0  0  0  0  0  0
    1.2990    8.2500    0.0000 C   0  0  0  0  0  0  0  0  0  0  0  0
  -10.3923    9.0000    0.0000 C   0  0  0  0  0  0  0  0  0  0  0  0
   -9.0933    8.2500    0.0000 C   0  0  0  0  0  0  0  0  0  0  0  0
   -7.7942    9.0000    0.0000 C   0  0  0  0  0  0  0  0  0  0  0  0
   -6.4952    8.2500    0.0000 C   0  0  0  0  0  0  0  0  0  0  0  0
    0.0000    9.0000    0.0000 C   0  0  0  0  0  0  0  0  0  0  0  0
   -5.1962    9.0000    0.0000 C   0  0  0  0  0  0  0  0  0  0  0  0
   -1.2990    8.2500    0.0000 C   0  0  0  0  0  0  0  0  0  0  0  0
   -3.8971    8.2500    0.0000 C   0  0  0  0  0  0  0  0  0  0  0  0
   -3.8971    6.7500    0.0000 O   0  0  0  0  0  0  0  0  0  0  0  0
   -2.5981    9.0000    0.0000 O   0  0  0  0  0  0  0  0  0  0  0  0
  3  1  1  0
  4  2  1  0
  5  3  1  0
  6  4  1  0
  7  5  1  0
  8  6  1  0
  9  7  1  0
 10  9  1  0
 11 10  1  0
 12 11  1  0
 13  8  1  0
 14 12  1  0
 15 13  1  0
 16 14  1  0
 17 16  2  0
 18 15  1  0
 18 16  1  0
M  END
>  <NAME>  (3042) 
HEXYL DECANOATE

>  <SYNONYMS>  (3042) 


>  <SPECTRUM TYPE>  (3042) 
MS1

>  <INSTRUMENT TYPE>  (3042) 
EI-B

>  <INSTRUMENT>  (3042) 
HITACHI M-80B

>  <ION MODE>  (3042) 
P

>  <INCHIKEY>  (3042) 
DGPNTCACXCHFDI-UHFFFAOYSA-N

>  <FORMULA>  (3042) 
C16H32O2

>  <EXACT MASS>  (3042) 
256.240230264

>  <MW>  (3042) 
256

>  <ID>  (3042) 
JP007203

>  <CONTRIBUTOR>  (3042) 
University of Tokyo Team, {Faculty of Engineering, University of Tokyo

>  <COMMENT>  (3042) 
SMILES=CCCCCCCCCC(=O)OCCCCCC
InChI=InChI=1S/C16H32O2/c1-3-5-7-9-10-11-12-14-16(17)18-15-13-8-6-4-2/h3-15H2,1-2H3
computed SMILES=O=C(OCCCCCC)CCCCCCCCC
accession=JP007203
date=2016.01.19 (Created 2008.10.21, modified 2011.05.06)
author=SODA AROMATIC CO., LTD.
license=CC BY-NC-SA
exact mass=256.24023
ionization energy=70 eV
ion type=[M]+*
computed spectral entropy=3.164854741973598
computed normalized entropy=0.7971340170657832
SPLASH=splash10-0a5c-9200000000-25c8f04250baf2e801e6
submitter=submitter = University of Tokyo Team (Faculty of Engineering, University of Tokyo)
MoNA Rating=3.75

>  <NUM PEAKS>  (3042) 
53

>  <MASS SPECTRAL PEAKS>  (3042) 
27 12.81
29 22.43
31 1
39 7.65
41 45.5
42 21.57
43 99.99
44 2.57
45 1.42
53 2.14
54 2.84
55 39.2
56 50.61
57 28.57
58 1.64
59 1.09
60 17.08
61 34.19
67 3.54
68 2.47
69 25.89
70 3.29
71 16.42
73 19.84
74 1.85
81 2.83
82 1.63
83 7.48
84 86.36
85 23.08
86 1.32
87 4.35
89 1.89
95 2.6
97 2.95
98 3.21
101 2.29
103 1.42
110 1.27
111 1.54
112 1.22
115 2.81
129 11.49
143 1.35
144 1.76
155 29.26
156 3.01
157 1.49
172 7.53
173 61.73
174 7.42
213 1.03
256 1.43

>  <PREDICTED SPECTRUM>  (3042) 
15 1
17 4
18 16
25 18
26 84
27 342
28 191
29 532
30 100
31 121
32 4
35 12
36 42
37 46
38 71
39 345
40 159
41 808
42 493
43 999
44 199
45 145
46 18
50 6
51 26
52 33
53 174
54 263
55 842
56 779
57 895
58 201
59 88
60 466
61 627
62 82
65 60
66 56
67 275
68 351
69 699
70 778
71 663
72 201
73 553
74 144
75 134
76 52
77 42
78 4
79 109
80 69
81 242
82 335
83 608
84 612
85 392
86 130
87 295
88 128
89 187
90 17
91 85
93 103
94 54
95 176
96 222
97 462
98 525
99 343
100 81
101 225
102 131
103 106
104 5
109 68
110 103
111 287
112 293
113 130
114 108
115 258
116 250
117 265
120 7
121 56
123 20
124 34
125 160
126 141
127 145
129 278
130 70
131 46
137 24
138 71
139 111
140 193
141 245
142 92
143 184
144 99
145 106
146 27
153 43
154 1
155 94
156 34
157 105
158 95
159 279
160 79
165 15
166 18
167 34
168 39
169 146
170 24
171 43
172 26
173 131
174 56
183 9
185 52
186 50
187 213
188 60
199 39
200 10
213 54
256 98
257 32

$$$$

     RDKit          2D

 17 16  0  0  0  0  0  0  0  0999 V2000
    4.5466    7.8750    0.0000 C   0  0  0  0  0  0  0  0  0  0  0  0
  -13.6399    7.8750    0.0000 C   0  0  0  0  0  0  0  0  0  0  0  0
  -12.3409   10.1250    0.0000 C   0  0  0  0  0  0  0  0  0  0  0  0
    3.2476    8.6250    0.0000 C   0  0  0  0  0  0  0  0  0  0  0  0
    1.9486    7.8750    0.0000 C   0  0  0  0  0  0  0  0  0  0  0  0
    0.6495    8.6250    0.0000 C   0  0  0  0  0  0  0  0  0  0  0  0
   -0.6495    7.8750    0.0000 C   0  0  0  0  0  0  0  0  0  0  0  0
   -1.9486    8.6250    0.0000 C   0  0  0  0  0  0  0  0  0  0  0  0
   -3.2476    7.8750    0.0000 C   0  0  0  0  0  0  0  0  0  0  0  0
   -4.5466    8.6250    0.0000 C   0  0  0  0  0  0  0  0  0  0  0  0
   -5.8457    7.8750    0.0000 C   0  0  0  0  0  0  0  0  0  0  0  0
  -11.0418    7.8750    0.0000 C   0  0  0  0  0  0  0  0  0  0  0  0
   -9.7428    8.6250    0.0000 C   0  0  0  0  0  0  0  0  0  0  0  0
  -12.3409    8.6250    0.0000 C   0  0  0  0  0  0  0  0  0  0  0  0
   -7.1447    8.6250    0.0000 C   0  0  0  0  0  0  0  0  0  0  0  0
   -7.1447   10.1250    0.0000 O   0  0  0  0  0  0  0  0  0  0  0  0
   -8.4437    7.8750    0.0000 O   0  0  0  0  0  0  0  0  0  0  0  0
  4  1  1  0
  5  4  1  0
  6  5  1  0
  7  6  1  0
  8  7  1  0
  9  8  1  0
 10  9  1  0
 11 10  1  0
 13 12  1  0
 14  2  1  0
 14  3  1  0
 14 12  1  0
 15 11  1  0
 16 15  2  0
 17 13  1  0
 17 15  1  0
M  END
>  <NAME>  (3043) 
ISOPENTYL DECANOATE

>  <SYNONYMS>  (3043) 


>  <SPECTRUM TYPE>  (3043) 
MS1

>  <INSTRUMENT TYPE>  (3043) 
EI-B

>  <INSTRUMENT>  (3043) 
HITACHI M-80B

>  <ION MODE>  (3043) 
P

>  <INCHIKEY>  (3043) 
XDOGFYDZGUDBQY-UHFFFAOYSA-N

>  <FORMULA>  (3043) 
C15H30O2

>  <EXACT MASS>  (3043) 
242.2245802

>  <MW>  (3043) 
242

>  <ID>  (3043) 
JP007202

>  <CONTRIBUTOR>  (3043) 
University of Tokyo Team, {Faculty of Engineering, University of Tokyo

>  <COMMENT>  (3043) 
SMILES=CCCCCCCCCC(=O)OCCC(C)C
InChI=InChI=1S/C15H30O2/c1-4-5-6-7-8-9-10-11-15(16)17-13-12-14(2)3/h14H,4-13H2,1-3H3
computed SMILES=O=C(OCCC(C)C)CCCCCCCCC
accession=JP007202
date=2016.01.19 (Created 2008.10.21, modified 2011.05.06)
author=SODA AROMATIC CO., LTD.
license=CC BY-NC-SA
exact mass=242.22458
ionization energy=70 eV
ion type=[M]+*
computed spectral entropy=2.642102743069764
computed normalized entropy=0.7211841913076588
SPLASH=splash10-00di-9000000000-587d40b1493d6deab483
submitter=submitter = University of Tokyo Team (Faculty of Engineering, University of Tokyo)
MoNA Rating=3.75

>  <NUM PEAKS>  (3043) 
39

>  <MASS SPECTRAL PEAKS>  (3043) 
27 7
29 11.09
39 3.8
41 22.14
42 8.88
43 45.13
44 1.12
45 1.07
53 1.29
54 1.06
55 23.36
56 3.18
57 10.12
60 3.39
61 1.31
67 1.23
68 1.08
69 6.99
70 99.99
71 39.1
72 1.87
73 3.68
81 1.34
83 1.79
84 1.71
85 3.1
87 1.69
95 1.29
97 1.13
98 1.38
115 1.77
129 2.32
130 1.16
143 1.25
155 15.94
156 1.61
172 2.4
173 5.98
199 1.04

>  <PREDICTED SPECTRUM>  (3043) 
25 3
26 40
27 196
28 38
29 259
30 13
31 20
36 10
38 6
39 162
40 56
41 393
42 290
43 639
44 112
45 114
51 4
52 9
53 106
54 112
55 469
56 142
57 384
58 95
59 69
60 200
61 153
62 21
66 1
67 125
68 123
69 317
70 999
71 678
72 127
73 256
74 52
79 37
80 4
81 129
82 90
83 218
84 111
85 136
86 44
87 172
88 45
93 55
95 104
96 71
97 140
98 121
99 44
100 28
101 165
102 60
108 16
109 109
110 58
111 88
113 3
115 108
116 49
123 34
125 72
126 29
127 42
128 15
129 195
130 121
131 41
137 94
138 28
139 19
143 153
148 27
153 77
154 15
155 602
156 248
157 67
158 21
172 184
173 283
174 134
186 35
187 9
199 173
200 31
227 37
242 70
243 28

$$$$

     RDKit          2D

 17 16  0  0  0  0  0  0  0  0999 V2000
    5.1962    8.2500    0.0000 C   0  0  0  0  0  0  0  0  0  0  0  0
  -14.2894    9.0000    0.0000 C   0  0  0  0  0  0  0  0  0  0  0  0
    3.8971    9.0000    0.0000 C   0  0  0  0  0  0  0  0  0  0  0  0
  -12.9904    8.2500    0.0000 C   0  0  0  0  0  0  0  0  0  0  0  0
    2.5981    8.2500    0.0000 C   0  0  0  0  0  0  0  0  0  0  0  0
  -11.6913    9.0000    0.0000 C   0  0  0  0  0  0  0  0  0  0  0  0
    1.2990    9.0000    0.0000 C   0  0  0  0  0  0  0  0  0  0  0  0
    0.0000    8.2500    0.0000 C   0  0  0  0  0  0  0  0  0  0  0  0
   -1.2990    9.0000    0.0000 C   0  0  0  0  0  0  0  0  0  0  0  0
   -2.5981    8.2500    0.0000 C   0  0  0  0  0  0  0  0  0  0  0  0
   -3.8971    9.0000    0.0000 C   0  0  0  0  0  0  0  0  0  0  0  0
  -10.3923    8.2500    0.0000 C   0  0  0  0  0  0  0  0  0  0  0  0
   -5.1962    8.2500    0.0000 C   0  0  0  0  0  0  0  0  0  0  0  0
   -9.0933    9.0000    0.0000 C   0  0  0  0  0  0  0  0  0  0  0  0
   -6.4952    9.0000    0.0000 C   0  0  0  0  0  0  0  0  0  0  0  0
   -6.4952   10.5000    0.0000 O   0  0  0  0  0  0  0  0  0  0  0  0
   -7.7942    8.2500    0.0000 O   0  0  0  0  0  0  0  0  0  0  0  0
  3  1  1  0
  4  2  1  0
  5  3  1  0
  6  4  1  0
  7  5  1  0
  8  7  1  0
  9  8  1  0
 10  9  1  0
 11 10  1  0
 12  6  1  0
 13 11  1  0
 14 12  1  0
 15 13  1  0
 16 15  2  0
 17 14  1  0
 17 15  1  0
M  END
>  <NAME>  (3044) 
PENTYL DECANOATE

>  <SYNONYMS>  (3044) 


>  <SPECTRUM TYPE>  (3044) 
MS1

>  <INSTRUMENT TYPE>  (3044) 
EI-B

>  <INSTRUMENT>  (3044) 
HITACHI M-80B

>  <ION MODE>  (3044) 
P

>  <INCHIKEY>  (3044) 
BGYFCELTJPRWBA-UHFFFAOYSA-N

>  <FORMULA>  (3044) 
C15H30O2

>  <EXACT MASS>  (3044) 
242.2245802

>  <MW>  (3044) 
242

>  <ID>  (3044) 
JP007201

>  <CONTRIBUTOR>  (3044) 
University of Tokyo Team, {Faculty of Engineering, University of Tokyo

>  <COMMENT>  (3044) 
SMILES=CCCCCCCCCC(=O)OCCCCC
InChI=InChI=1S/C15H30O2/c1-3-5-7-8-9-10-11-13-15(16)17-14-12-6-4-2/h3-14H2,1-2H3
computed SMILES=O=C(OCCCCC)CCCCCCCCC
accession=JP007201
date=2016.01.19 (Created 2008.10.21, modified 2011.05.06)
author=SODA AROMATIC CO., LTD.
license=CC BY-NC-SA
exact mass=242.22458
ionization energy=70 eV
ion type=[M]+*
computed spectral entropy=3.1365330111229337
computed normalized entropy=0.801767527126201
SPLASH=splash10-00dl-9200000000-54dd5eeb6934d4546e5e
submitter=submitter = University of Tokyo Team (Faculty of Engineering, University of Tokyo)
MoNA Rating=3.75

>  <NUM PEAKS>  (3044) 
50

>  <MASS SPECTRAL PEAKS>  (3044) 
27 11.12
29 22.53
39 7.03
41 39.21
42 22.1
43 69.46
44 1.8
45 1.33
53 1.73
54 1.93
55 31.45
56 6.23
57 18.31
58 1.12
60 18.51
61 15.95
67 2.36
68 2.17
69 14.91
70 99.99
71 30.64
72 1.55
73 18.7
74 1.81
81 2.43
83 5.03
84 4.41
85 6.48
87 5.35
89 1.52
95 2.14
97 2.52
98 2.81
101 1.92
102 2.14
103 1.51
110 1.19
111 1.37
112 1.1
115 5.94
129 8.55
130 6.13
131 1.24
143 2.9
155 26.81
156 2.61
172 5.28
173 51
174 6.02
242 1.09

>  <PREDICTED SPECTRUM>  (3044) 
15 12
17 2
18 17
25 17
26 85
27 375
28 195
29 557
30 92
31 128
32 4
35 4
36 33
37 38
38 70
39 365
40 168
41 809
42 512
43 999
44 203
45 119
46 13
50 2
51 32
52 25
53 175
54 250
55 819
56 807
57 868
58 214
59 133
60 487
61 623
62 92
65 58
66 55
67 250
68 341
69 668
70 792
71 650
72 201
73 561
74 119
75 101
77 65
78 24
79 105
80 51
81 217
82 294
83 546
84 596
85 359
86 137
87 324
88 125
89 178
90 31
91 54
93 73
94 34
95 128
96 159
97 347
98 462
99 357
100 124
101 275
102 103
103 100
106 48
107 33
109 10
110 71
111 202
112 153
113 102
114 29
115 168
116 222
117 242
118 39
123 23
124 51
125 132
126 204
127 276
128 80
129 279
130 100
131 59
137 26
138 7
139 79
140 22
141 174
142 39
143 137
144 93
145 186
146 63
148 14
153 27
154 5
155 166
156 42
157 37
158 41
159 273
160 76
167 5
169 14
171 87
172 42
173 131
174 24
183 12
184 3
185 46
186 41
187 121
199 62
242 62
243 7

$$$$

     RDKit          2D

 16 15  0  0  0  0  0  0  0  0999 V2000
    4.2219    7.6875    0.0000 C   0  0  0  0  0  0  0  0  0  0  0  0
  -12.6656    8.4375    0.0000 C   0  0  0  0  0  0  0  0  0  0  0  0
  -11.3666    6.1875    0.0000 C   0  0  0  0  0  0  0  0  0  0  0  0
    2.9228    8.4375    0.0000 C   0  0  0  0  0  0  0  0  0  0  0  0
    1.6238    7.6875    0.0000 C   0  0  0  0  0  0  0  0  0  0  0  0
    0.3248    8.4375    0.0000 C   0  0  0  0  0  0  0  0  0  0  0  0
   -0.9743    7.6875    0.0000 C   0  0  0  0  0  0  0  0  0  0  0  0
   -2.2733    8.4375    0.0000 C   0  0  0  0  0  0  0  0  0  0  0  0
   -3.5724    7.6875    0.0000 C   0  0  0  0  0  0  0  0  0  0  0  0
   -4.8714    8.4375    0.0000 C   0  0  0  0  0  0  0  0  0  0  0  0
   -6.1704    7.6875    0.0000 C   0  0  0  0  0  0  0  0  0  0  0  0
  -10.0675    8.4375    0.0000 C   0  0  0  0  0  0  0  0  0  0  0  0
  -11.3666    7.6875    0.0000 C   0  0  0  0  0  0  0  0  0  0  0  0
   -7.4695    8.4375    0.0000 C   0  0  0  0  0  0  0  0  0  0  0  0
   -7.4695    9.9375    0.0000 O   0  0  0  0  0  0  0  0  0  0  0  0
   -8.7685    7.6875    0.0000 O   0  0  0  0  0  0  0  0  0  0  0  0
  4  1  1  0
  5  4  1  0
  6  5  1  0
  7  6  1  0
  8  7  1  0
  9  8  1  0
 10  9  1  0
 11 10  1  0
 13  2  1  0
 13  3  1  0
 13 12  1  0
 14 11  1  0
 15 14  2  0
 16 12  1  0
 16 14  1  0
M  END
>  <NAME>  (3045) 
ISOBUTYL DECANOATE

>  <SYNONYMS>  (3045) 


>  <SPECTRUM TYPE>  (3045) 
MS1

>  <INSTRUMENT TYPE>  (3045) 
EI-B

>  <INSTRUMENT>  (3045) 
HITACHI M-80B

>  <ION MODE>  (3045) 
P

>  <INCHIKEY>  (3045) 
AXTPGRJJIGEOOY-UHFFFAOYSA-N

>  <FORMULA>  (3045) 
C14H28O2

>  <EXACT MASS>  (3045) 
228.208930136

>  <MW>  (3045) 
228

>  <ID>  (3045) 
JP007200

>  <CONTRIBUTOR>  (3045) 
University of Tokyo Team, {Faculty of Engineering, University of Tokyo

>  <COMMENT>  (3045) 
SMILES=CCCCCCCCCC(=O)OCC(C)C
InChI=InChI=1S/C14H28O2/c1-4-5-6-7-8-9-10-11-14(15)16-12-13(2)3/h13H,4-12H2,1-3H3
computed SMILES=O=C(OCC(C)C)CCCCCCCCC
accession=JP007200
date=2016.01.19 (Created 2008.10.21, modified 2011.05.06)
author=SODA AROMATIC CO., LTD.
license=CC BY-NC-SA
exact mass=228.20893
ionization energy=70 eV
ion type=[M]+*
computed spectral entropy=3.0040155712531846
computed normalized entropy=0.7846165937629727
SPLASH=splash10-0a4i-9200000000-e8404a98518ed8ad4134
submitter=submitter = University of Tokyo Team (Faculty of Engineering, University of Tokyo)
MoNA Rating=3.75

>  <NUM PEAKS>  (3045) 
46

>  <MASS SPECTRAL PEAKS>  (3045) 
27 11.28
29 26.13
31 1.4
39 8.34
41 47.91
42 10.06
43 39.75
44 1
53 1.63
54 1.65
55 21.07
56 99.99
57 82.29
58 3.07
60 22.44
61 6.17
67 2.33
68 2.23
69 9.84
70 2.64
71 18.25
73 15.09
74 1.65
81 2.7
83 4.93
84 3.13
85 8.43
86 1.02
87 4.55
95 2.67
97 2.24
98 2.59
101 1.77
110 1.07
111 1.17
112 1.36
115 2.01
116 5.67
117 1.11
129 9.11
143 1.27
155 49.68
156 5.02
172 9.03
173 28.22
174 2.57

>  <PREDICTED SPECTRUM>  (3045) 
15 3
18 15
25 17
26 62
27 314
28 224
29 585
30 57
31 117
36 22
37 50
38 65
39 323
40 142
41 714
42 314
43 655
44 118
45 118
46 17
49 0
50 2
51 53
52 52
53 165
54 221
55 563
56 999
57 980
58 255
59 127
60 516
61 442
62 44
63 8
64 36
65 116
66 64
67 208
68 177
69 364
70 221
71 330
72 88
73 480
74 137
79 101
80 40
81 211
82 86
83 342
84 198
85 211
86 40
87 286
88 76
89 52
93 108
94 38
95 220
96 151
97 263
98 142
99 55
100 72
101 264
102 156
107 38
109 132
110 140
111 193
112 159
113 137
115 131
116 158
117 204
118 41
123 13
125 84
127 24
128 10
129 399
130 76
135 117
136 73
137 150
138 28
143 128
144 101
153 64
154 50
155 765
156 264
157 65
171 127
172 272
173 736
174 244
175 102
228 57

$$$$

     RDKit          2D

 16 15  0  0  0  0  0  0  0  0999 V2000
    4.5466    7.8750    0.0000 C   0  0  0  0  0  0  0  0  0  0  0  0
  -13.6399    7.8750    0.0000 C   0  0  0  0  0  0  0  0  0  0  0  0
    3.2476    8.6250    0.0000 C   0  0  0  0  0  0  0  0  0  0  0  0
  -12.3409    8.6250    0.0000 C   0  0  0  0  0  0  0  0  0  0  0  0
    1.9486    7.8750    0.0000 C   0  0  0  0  0  0  0  0  0  0  0  0
  -11.0418    7.8750    0.0000 C   0  0  0  0  0  0  0  0  0  0  0  0
    0.6495    8.6250    0.0000 C   0  0  0  0  0  0  0  0  0  0  0  0
   -0.6495    7.8750    0.0000 C   0  0  0  0  0  0  0  0  0  0  0  0
   -1.9486    8.6250    0.0000 C   0  0  0  0  0  0  0  0  0  0  0  0
   -3.2476    7.8750    0.0000 C   0  0  0  0  0  0  0  0  0  0  0  0
   -4.5466    8.6250    0.0000 C   0  0  0  0  0  0  0  0  0  0  0  0
   -5.8457    7.8750    0.0000 C   0  0  0  0  0  0  0  0  0  0  0  0
   -9.7428    8.6250    0.0000 C   0  0  0  0  0  0  0  0  0  0  0  0
   -7.1447    8.6250    0.0000 C   0  0  0  0  0  0  0  0  0  0  0  0
   -7.1447   10.1250    0.0000 O   0  0  0  0  0  0  0  0  0  0  0  0
   -8.4437    7.8750    0.0000 O   0  0  0  0  0  0  0  0  0  0  0  0
  3  1  1  0
  4  2  1  0
  5  3  1  0
  6  4  1  0
  7  5  1  0
  8  7  1  0
  9  8  1  0
 10  9  1  0
 11 10  1  0
 12 11  1  0
 13  6  1  0
 14 12  1  0
 15 14  2  0
 16 13  1  0
 16 14  1  0
M  END
>  <NAME>  (3046) 
BUTYL DECANOATE

>  <SYNONYMS>  (3046) 


>  <SPECTRUM TYPE>  (3046) 
MS1

>  <INSTRUMENT TYPE>  (3046) 
EI-B

>  <INSTRUMENT>  (3046) 
HITACHI M-80B

>  <ION MODE>  (3046) 
P

>  <INCHIKEY>  (3046) 
ZRNCNTSXSYXHOW-UHFFFAOYSA-N

>  <FORMULA>  (3046) 
C14H28O2

>  <EXACT MASS>  (3046) 
228.208930136

>  <MW>  (3046) 
228

>  <ID>  (3046) 
JP007199

>  <CONTRIBUTOR>  (3046) 
University of Tokyo Team, {Faculty of Engineering, University of Tokyo

>  <COMMENT>  (3046) 
SMILES=CCCCCCCCCC(=O)OCCCC
InChI=InChI=1S/C14H28O2/c1-3-5-7-8-9-10-11-12-14(15)16-13-6-4-2/h3-13H2,1-2H3
computed SMILES=O=C(OCCCC)CCCCCCCCC
accession=JP007199
date=2016.01.19 (Created 2008.10.21, modified 2011.05.06)
author=SODA AROMATIC CO., LTD.
license=CC BY-NC-SA
exact mass=228.20893
ionization energy=70 eV
ion type=[M]+*
computed spectral entropy=3.1531317984961484
computed normalized entropy=0.8060105459811984
SPLASH=splash10-0a4i-9200000000-15bec7cf55b2a95aaeb0
submitter=submitter = University of Tokyo Team (Faculty of Engineering, University of Tokyo)
MoNA Rating=3.75

>  <NUM PEAKS>  (3046) 
50

>  <MASS SPECTRAL PEAKS>  (3046) 
27 12.22
29 31.47
31 1.21
39 7.74
41 46.44
42 9.32
43 35.91
45 1.14
53 1.81
54 1.67
55 25.04
56 99.99
57 41.65
58 1.53
60 28.55
61 12.11
67 2.18
68 2.21
69 11.48
70 2.46
71 14.26
73 23.56
74 2.12
81 2.39
82 1.04
83 5.99
84 4.58
85 6.52
87 5.64
89 1.49
95 2.16
97 3.4
98 3.97
101 5.81
103 1.35
110 1.28
111 1.42
115 2.34
116 7.84
117 1.95
129 12.77
130 1.02
143 1.64
155 30.27
156 3.09
172 4.57
173 45.08
174 5.27
185 1.32
228 1.26

>  <PREDICTED SPECTRUM>  (3046) 
18 6
25 1
26 31
27 231
28 183
29 496
30 31
31 91
36 16
37 22
38 27
39 253
40 109
41 629
42 275
43 430
44 100
45 132
46 33
48 5
49 20
50 7
51 74
52 53
53 158
54 216
55 564
56 999
57 778
58 164
59 123
60 556
61 490
62 72
63 4
64 27
65 119
66 49
67 222
68 171
69 387
70 241
71 303
72 84
73 488
74 146
79 114
80 61
81 234
82 98
83 410
84 265
85 227
86 68
87 290
88 92
89 76
90 16
93 129
94 38
95 206
96 127
97 299
98 117
99 90
100 80
101 270
102 139
107 65
108 53
109 129
110 164
111 224
112 142
113 135
115 173
116 179
117 297
118 18
123 27
125 63
128 19
129 477
130 108
135 193
136 170
137 170
138 22
143 177
144 125
153 95
154 82
155 718
156 258
157 86
171 168
172 228
173 745
174 206
175 49
185 69
199 9
228 125
229 51

$$$$

     RDKit          2D

 15 14  0  0  0  0  0  0  0  0999 V2000
    3.8971    6.7500    0.0000 C   0  0  0  0  0  0  0  0  0  0  0  0
  -11.6913    6.7500    0.0000 C   0  0  0  0  0  0  0  0  0  0  0  0
  -10.3923    9.0000    0.0000 C   0  0  0  0  0  0  0  0  0  0  0  0
    2.5981    7.5000    0.0000 C   0  0  0  0  0  0  0  0  0  0  0  0
    1.2990    6.7500    0.0000 C   0  0  0  0  0  0  0  0  0  0  0  0
    0.0000    7.5000    0.0000 C   0  0  0  0  0  0  0  0  0  0  0  0
   -1.2990    6.7500    0.0000 C   0  0  0  0  0  0  0  0  0  0  0  0
   -2.5981    7.5000    0.0000 C   0  0  0  0  0  0  0  0  0  0  0  0
   -3.8971    6.7500    0.0000 C   0  0  0  0  0  0  0  0  0  0  0  0
   -5.1962    7.5000    0.0000 C   0  0  0  0  0  0  0  0  0  0  0  0
   -6.4952    6.7500    0.0000 C   0  0  0  0  0  0  0  0  0  0  0  0
  -10.3923    7.5000    0.0000 C   0  0  0  0  0  0  0  0  0  0  0  0
   -7.7942    7.5000    0.0000 C   0  0  0  0  0  0  0  0  0  0  0  0
   -7.7942    9.0000    0.0000 O   0  0  0  0  0  0  0  0  0  0  0  0
   -9.0933    6.7500    0.0000 O   0  0  0  0  0  0  0  0  0  0  0  0
  4  1  1  0
  5  4  1  0
  6  5  1  0
  7  6  1  0
  8  7  1  0
  9  8  1  0
 10  9  1  0
 11 10  1  0
 12  2  1  0
 12  3  1  0
 13 11  1  0
 14 13  2  0
 15 12  1  0
 15 13  1  0
M  END
>  <NAME>  (3047) 
ISOPROPYL DECANOATE

>  <SYNONYMS>  (3047) 


>  <SPECTRUM TYPE>  (3047) 
MS1

>  <INSTRUMENT TYPE>  (3047) 
EI-B

>  <INSTRUMENT>  (3047) 
HITACHI M-80B

>  <ION MODE>  (3047) 
P

>  <INCHIKEY>  (3047) 
PKPPDYGHKDIKBH-UHFFFAOYSA-N

>  <FORMULA>  (3047) 
C13H26O2

>  <EXACT MASS>  (3047) 
214.193280072

>  <MW>  (3047) 
214

>  <ID>  (3047) 
JP007198

>  <CONTRIBUTOR>  (3047) 
University of Tokyo Team, {Faculty of Engineering, University of Tokyo

>  <COMMENT>  (3047) 
SMILES=CCCCCCCCCC(=O)OC(C)C
InChI=InChI=1S/C13H26O2/c1-4-5-6-7-8-9-10-11-13(14)15-12(2)3/h12H,4-11H2,1-3H3
computed SMILES=O=C(OC(C)C)CCCCCCCCC
accession=JP007198
date=2016.01.19 (Created 2008.10.21, modified 2011.05.06)
author=SODA AROMATIC CO., LTD.
license=CC BY-NC-SA
exact mass=214.19328
ionization energy=70 eV
ion type=[M]+*
computed spectral entropy=3.247718839339613
computed normalized entropy=0.8301890952157555
SPLASH=splash10-0006-9200000000-408a7325a368f7b0a84e
submitter=submitter = University of Tokyo Team (Faculty of Engineering, University of Tokyo)
MoNA Rating=3.75

>  <NUM PEAKS>  (3047) 
50

>  <MASS SPECTRAL PEAKS>  (3047) 
15 1.08
27 18.74
29 20.33
39 10.59
41 50.5
42 17.57
43 99.99
44 2.33
45 4.21
53 1.99
54 2.01
55 24.06
56 7.83
57 26.75
58 1.22
59 20.21
60 58.93
61 10.9
67 2.61
68 2.76
69 14.17
70 4.93
71 23.19
73 23.65
74 2.58
81 2.76
82 1.41
83 7.69
84 5.57
85 7.14
87 7.39
89 1.03
95 2.29
97 2.96
98 3.05
101 1.89
102 36.25
103 3.81
110 1.53
111 1.56
112 4.4
113 1.31
115 2.95
129 12.92
143 1.63
155 24.36
156 2.23
172 16.97
173 19.54
174 1.59

>  <PREDICTED SPECTRUM>  (3047) 
14 3
15 66
26 55
27 299
28 170
29 361
30 0
31 103
37 24
38 49
39 274
40 128
41 639
42 388
43 928
44 140
45 240
46 85
49 1
50 47
51 59
52 30
53 244
54 201
55 727
56 441
57 795
58 199
59 585
60 999
61 741
62 113
63 44
65 143
66 97
67 290
68 194
69 560
70 186
71 550
72 141
73 867
74 241
75 32
79 103
80 17
81 278
82 200
83 521
84 281
85 327
86 82
87 371
88 155
91 89
92 16
93 71
94 53
95 234
96 199
97 374
98 173
99 180
100 75
101 208
102 875
103 208
104 43
105 5
107 44
108 29
109 219
110 129
111 313
112 148
113 199
115 315
116 139
117 68
123 115
124 10
125 95
126 21
128 14
129 605
130 143
131 14
135 113
137 78
139 79
143 235
144 191
152 58
153 125
154 68
155 769
156 257
157 129
158 20
171 160
172 793
173 650
174 239
175 51
214 90
215 14

$$$$

     RDKit          2D

 15 14  0  0  0  0  0  0  0  0999 V2000
    4.5466    7.1250    0.0000 C   0  0  0  0  0  0  0  0  0  0  0  0
  -12.3409    7.8750    0.0000 C   0  0  0  0  0  0  0  0  0  0  0  0
    3.2476    7.8750    0.0000 C   0  0  0  0  0  0  0  0  0  0  0  0
  -11.0418    7.1250    0.0000 C   0  0  0  0  0  0  0  0  0  0  0  0
    1.9486    7.1250    0.0000 C   0  0  0  0  0  0  0  0  0  0  0  0
    0.6495    7.8750    0.0000 C   0  0  0  0  0  0  0  0  0  0  0  0
   -0.6495    7.1250    0.0000 C   0  0  0  0  0  0  0  0  0  0  0  0
   -1.9486    7.8750    0.0000 C   0  0  0  0  0  0  0  0  0  0  0  0
   -3.2476    7.1250    0.0000 C   0  0  0  0  0  0  0  0  0  0  0  0
   -4.5466    7.8750    0.0000 C   0  0  0  0  0  0  0  0  0  0  0  0
   -5.8457    7.1250    0.0000 C   0  0  0  0  0  0  0  0  0  0  0  0
   -9.7428    7.8750    0.0000 C   0  0  0  0  0  0  0  0  0  0  0  0
   -7.1447    7.8750    0.0000 C   0  0  0  0  0  0  0  0  0  0  0  0
   -7.1447    9.3750    0.0000 O   0  0  0  0  0  0  0  0  0  0  0  0
   -8.4437    7.1250    0.0000 O   0  0  0  0  0  0  0  0  0  0  0  0
  3  1  1  0
  4  2  1  0
  5  3  1  0
  6  5  1  0
  7  6  1  0
  8  7  1  0
  9  8  1  0
 10  9  1  0
 11 10  1  0
 12  4  1  0
 13 11  1  0
 14 13  2  0
 15 12  1  0
 15 13  1  0
M  END
>  <NAME>  (3048) 
PROPYL DECANOATE

>  <SYNONYMS>  (3048) 


>  <SPECTRUM TYPE>  (3048) 
MS1

>  <INSTRUMENT TYPE>  (3048) 
EI-B

>  <INSTRUMENT>  (3048) 
HITACHI M-80B

>  <ION MODE>  (3048) 
P

>  <INCHIKEY>  (3048) 
OVFMRFMJVFDSAA-UHFFFAOYSA-N

>  <FORMULA>  (3048) 
C13H26O2

>  <EXACT MASS>  (3048) 
214.193280072

>  <MW>  (3048) 
214

>  <ID>  (3048) 
JP007197

>  <CONTRIBUTOR>  (3048) 
University of Tokyo Team, {Faculty of Engineering, University of Tokyo

>  <COMMENT>  (3048) 
SMILES=CCCCCCCCCC(=O)OCCC
InChI=InChI=1S/C13H26O2/c1-3-5-6-7-8-9-10-11-13(14)15-12-4-2/h3-12H2,1-2H3
computed SMILES=O=C(OCCC)CCCCCCCCC
accession=JP007197
date=2016.01.19 (Created 2008.10.21, modified 2011.05.06)
author=SODA AROMATIC CO., LTD.
license=CC BY-NC-SA
exact mass=214.19328
ionization energy=70 eV
ion type=[M]+*
computed spectral entropy=3.3395182461278377
computed normalized entropy=0.809161499133339
SPLASH=splash10-01vo-9300000000-3ab83e541031f18e243f
submitter=submitter = University of Tokyo Team (Faculty of Engineering, University of Tokyo)
MoNA Rating=3.75

>  <NUM PEAKS>  (3048) 
62

>  <MASS SPECTRAL PEAKS>  (3048) 
26 0.13
27 26.18
29 27.47
31 3.14
39 12.54
41 67.55
42 29.92
43 95.31
44 1.82
45 2.61
53 2.93
54 2.85
55 35.6
56 9.48
57 28.12
58 2.15
59 5.57
60 65.92
61 99.99
62 2.45
67 3.74
68 3.73
69 21.8
70 4.5
71 21.98
72 1.49
73 43.29
74 4.29
75 1.16
79 1.05
81 4.15
82 1.48
83 10.01
84 6.77
85 10.02
87 14.33
89 2.35
95 3.72
97 5.19
98 4.96
99 1.03
101 3.07
102 39.39
103 6.65
110 2.23
111 2.43
112 1.32
115 20.98
116 1.69
129 15.16
130 1.3
135 1.2
143 2.54
153 1.55
155 56.15
156 5.32
157 1.65
171 5.08
172 4.92
173 60.42
174 5.92
214 2.65

>  <PREDICTED SPECTRUM>  (3048) 
15 36
26 54
27 346
28 157
29 422
30 24
31 75
37 4
38 28
39 281
40 135
41 699
42 414
43 999
44 121
45 171
46 96
47 78
49 34
51 47
52 11
53 238
54 235
55 714
56 414
57 637
58 166
59 313
60 933
61 991
62 163
63 10
65 127
66 58
67 271
68 178
69 488
70 158
71 482
72 108
73 781
74 195
75 75
77 6
79 93
81 229
82 203
83 458
84 227
85 174
86 125
87 430
88 176
91 79
93 69
94 30
95 242
96 182
97 351
98 160
99 116
101 292
102 632
103 319
104 61
109 128
110 113
111 249
112 59
113 102
115 688
116 214
117 87
121 113
123 9
125 24
128 7
129 496
130 124
131 46
135 139
137 101
138 66
139 91
142 15
143 252
144 69
153 75
155 739
156 256
157 227
158 31
171 349
172 237
173 643
174 228
175 116
185 134
214 217
215 75

$$$$

     RDKit          2D

 15 14  0  0  0  0  0  0  0  0999 V2000
    4.5466    7.1250    0.0000 C   0  0  0  0  0  0  0  0  0  0  0  0
  -12.3409    7.8750    0.0000 C   0  0  0  0  0  0  0  0  0  0  0  0
    3.2476    7.8750    0.0000 C   0  0  0  0  0  0  0  0  0  0  0  0
  -11.0418    7.1250    0.0000 C   0  0  0  0  0  0  0  0  0  0  0  0
    1.9486    7.1250    0.0000 C   0  0  0  0  0  0  0  0  0  0  0  0
    0.6495    7.8750    0.0000 C   0  0  0  0  0  0  0  0  0  0  0  0
   -0.6495    7.1250    0.0000 C   0  0  0  0  0  0  0  0  0  0  0  0
   -1.9486    7.8750    0.0000 C   0  0  0  0  0  0  0  0  0  0  0  0
   -3.2476    7.1250    0.0000 C   0  0  0  0  0  0  0  0  0  0  0  0
   -4.5466    7.8750    0.0000 C   0  0  0  0  0  0  0  0  0  0  0  0
   -5.8457    7.1250    0.0000 C   0  0  0  0  0  0  0  0  0  0  0  0
   -9.7428    7.8750    0.0000 C   0  0  0  0  0  0  0  0  0  0  0  0
   -7.1447    7.8750    0.0000 C   0  0  0  0  0  0  0  0  0  0  0  0
   -7.1447    9.3750    0.0000 O   0  0  0  0  0  0  0  0  0  0  0  0
   -8.4437    7.1250    0.0000 O   0  0  0  0  0  0  0  0  0  0  0  0
  3  1  1  0
  4  2  2  0
  5  3  1  0
  6  5  1  0
  7  6  1  0
  8  7  1  0
  9  8  1  0
 10  9  1  0
 11 10  1  0
 12  4  1  0
 13 11  1  0
 14 13  2  0
 15 12  1  0
 15 13  1  0
M  END
>  <NAME>  (3049) 
ALLYL DECANOATE

>  <SYNONYMS>  (3049) 


>  <SPECTRUM TYPE>  (3049) 
MS1

>  <INSTRUMENT TYPE>  (3049) 
EI-B

>  <INSTRUMENT>  (3049) 
HITACHI M-80B

>  <ION MODE>  (3049) 
P

>  <INCHIKEY>  (3049) 
DQVOTEHORLHPRW-UHFFFAOYSA-N

>  <FORMULA>  (3049) 
C13H24O2

>  <EXACT MASS>  (3049) 
212.177630008

>  <MW>  (3049) 
212

>  <ID>  (3049) 
JP007196

>  <CONTRIBUTOR>  (3049) 
University of Tokyo Team, {Faculty of Engineering, University of Tokyo

>  <COMMENT>  (3049) 
SMILES=CCCCCCCCCC(=O)OCC=C
InChI=InChI=1S/C13H24O2/c1-3-5-6-7-8-9-10-11-13(14)15-12-4-2/h4H,2-3,5-12H2,1H3
computed SMILES=O=C(OCC=C)CCCCCCCCC
accession=JP007196
date=2016.01.19 (Created 2008.10.21, modified 2011.05.06)
author=SODA AROMATIC CO., LTD.
license=CC BY-NC-SA
exact mass=212.17763
ionization energy=70 eV
ion type=[M]+*
computed spectral entropy=3.2279563605999804
computed normalized entropy=0.8209815648318461
SPLASH=splash10-052f-9200000000-1717286a3d950c9e8936
submitter=submitter = University of Tokyo Team (Faculty of Engineering, University of Tokyo)
MoNA Rating=3.75

>  <NUM PEAKS>  (3049) 
51

>  <MASS SPECTRAL PEAKS>  (3049) 
15 1.08
26 1.15
27 17.38
29 27.51
31 1.03
39 22.84
41 99.99
42 13.64
43 63.34
44 1.52
45 1.61
53 2.63
54 12.34
55 42.99
56 16.05
57 39.19
58 10.89
59 1.76
60 1.29
67 7.43
68 2.41
69 30.28
70 3.55
71 30.87
72 1.87
73 3.03
79 1.11
81 9.36
82 5.31
83 11.87
84 4.79
85 16.85
86 1.01
87 1.39
93 1.18
95 8.35
97 7.17
98 3.35
99 3.83
100 40.8
101 5.83
109 1.8
111 6.13
113 18.48
114 1.37
127 1.86
135 2.74
153 2.38
155 34.36
156 3.56
169 4.5

>  <PREDICTED SPECTRUM>  (3049) 
25 9
26 105
27 362
28 151
29 470
30 25
31 76
36 27
37 56
38 110
39 466
40 219
41 999
42 433
43 863
44 150
45 89
50 41
51 101
52 82
53 285
54 269
55 681
56 392
57 859
58 291
59 77
60 147
61 92
65 85
66 84
67 285
68 260
69 498
70 279
71 438
72 139
73 123
74 84
77 54
79 182
80 74
81 309
82 165
83 359
84 191
85 446
86 202
87 149
93 139
94 8
95 268
96 138
97 250
98 205
99 309
100 243
101 133
109 195
111 161
113 166
114 171
115 1
123 68
125 62
127 278
128 130
129 40
137 32
141 106
142 17
143 19
153 131
154 51
155 644
156 198
158 17
168 6
169 114
170 51
171 66
183 96

$$$$

     RDKit          2D

 14 13  0  0  0  0  0  0  0  0999 V2000
    3.8971    6.7500    0.0000 C   0  0  0  0  0  0  0  0  0  0  0  0
  -11.6913    6.7500    0.0000 C   0  0  0  0  0  0  0  0  0  0  0  0
    2.5981    7.5000    0.0000 C   0  0  0  0  0  0  0  0  0  0  0  0
  -10.3923    7.5000    0.0000 C   0  0  0  0  0  0  0  0  0  0  0  0
    1.2990    6.7500    0.0000 C   0  0  0  0  0  0  0  0  0  0  0  0
    0.0000    7.5000    0.0000 C   0  0  0  0  0  0  0  0  0  0  0  0
   -1.2990    6.7500    0.0000 C   0  0  0  0  0  0  0  0  0  0  0  0
   -2.5981    7.5000    0.0000 C   0  0  0  0  0  0  0  0  0  0  0  0
   -3.8971    6.7500    0.0000 C   0  0  0  0  0  0  0  0  0  0  0  0
   -5.1962    7.5000    0.0000 C   0  0  0  0  0  0  0  0  0  0  0  0
   -6.4952    6.7500    0.0000 C   0  0  0  0  0  0  0  0  0  0  0  0
   -7.7942    7.5000    0.0000 C   0  0  0  0  0  0  0  0  0  0  0  0
   -7.7942    9.0000    0.0000 O   0  0  0  0  0  0  0  0  0  0  0  0
   -9.0933    6.7500    0.0000 O   0  0  0  0  0  0  0  0  0  0  0  0
  3  1  1  0
  4  2  1  0
  5  3  1  0
  6  5  1  0
  7  6  1  0
  8  7  1  0
  9  8  1  0
 10  9  1  0
 11 10  1  0
 12 11  1  0
 13 12  2  0
 14  4  1  0
 14 12  1  0
M  END
>  <NAME>  (3050) 
ETHYL DECANOATE

>  <SYNONYMS>  (3050) 


>  <SPECTRUM TYPE>  (3050) 
MS1

>  <INSTRUMENT TYPE>  (3050) 
EI-B

>  <INSTRUMENT>  (3050) 
HITACHI M-80B

>  <ION MODE>  (3050) 
P

>  <INCHIKEY>  (3050) 
RGXWDWUGBIJHDO-UHFFFAOYSA-N

>  <FORMULA>  (3050) 
C12H24O2

>  <EXACT MASS>  (3050) 
200.177630008

>  <MW>  (3050) 
200

>  <ID>  (3050) 
JP007195

>  <CONTRIBUTOR>  (3050) 
University of Tokyo Team, {Faculty of Engineering, University of Tokyo

>  <COMMENT>  (3050) 
SMILES=CCCCCCCCCC(=O)OCC
InChI=InChI=1S/C12H24O2/c1-3-5-6-7-8-9-10-11-12(13)14-4-2/h3-11H2,1-2H3
computed SMILES=O=C(OCC)CCCCCCCCC
accession=JP007195
date=2016.01.19 (Created 2008.10.21, modified 2011.05.06)
author=SODA AROMATIC CO., LTD.
license=CC BY-NC-SA
exact mass=200.17763
ionization energy=70 eV
ion type=[M]+*
computed spectral entropy=3.0926302439535935
computed normalized entropy=0.8274220463000612
SPLASH=splash10-000l-9100000000-7ac6d7b76bef37c40833
submitter=submitter = University of Tokyo Team (Faculty of Engineering, University of Tokyo)
MoNA Rating=3.75

>  <NUM PEAKS>  (3050) 
42

>  <MASS SPECTRAL PEAKS>  (3050) 
27 13.24
29 30.53
39 6.83
41 30.32
42 8.68
43 27.6
45 8.66
53 1.7
54 1.62
55 20.26
56 5.04
57 11.93
59 1.2
60 19.63
61 16.17
67 1.9
68 1.53
69 10.82
70 14.45
71 8.63
73 19.58
74 2.47
81 1.8
83 4.09
84 3.46
85 3.43
87 2.69
88 99.99
89 9.23
95 1.5
97 2.65
98 2.28
101 40.86
102 2.97
115 5.95
129 2
143 2.86
155 14.77
156 1.29
157 10.15
171 1.36
200 2.68

>  <PREDICTED SPECTRUM>  (3050) 
15 15
26 25
27 217
28 76
29 337
30 45
31 6
39 168
40 68
41 436
42 244
43 503
44 113
45 202
46 36
51 22
52 31
53 122
54 112
55 495
56 238
57 377
58 128
59 139
60 450
61 366
62 15
65 8
67 164
68 90
69 324
70 302
71 213
72 9
73 386
74 101
75 86
76 0
77 76
79 75
80 32
81 157
82 73
83 300
84 221
85 114
87 191
88 999
89 304
90 90
93 35
94 12
95 150
96 86
97 216
98 147
99 19
101 729
102 156
107 30
109 53
110 58
111 182
112 89
113 114
114 78
115 303
116 28
117 27
121 14
125 77
129 168
130 115
135 7
137 68
143 260
144 162
153 58
155 491
156 118
157 318
158 50
171 166
172 39
185 1
199 43
200 172
201 94
202 7

$$$$

     RDKit          2D

 13 12  0  0  0  0  0  0  0  0999 V2000
    3.8971    6.0000    0.0000 C   0  0  0  0  0  0  0  0  0  0  0  0
  -10.3923    6.7500    0.0000 C   0  0  0  0  0  0  0  0  0  0  0  0
    2.5981    6.7500    0.0000 C   0  0  0  0  0  0  0  0  0  0  0  0
    1.2990    6.0000    0.0000 C   0  0  0  0  0  0  0  0  0  0  0  0
    0.0000    6.7500    0.0000 C   0  0  0  0  0  0  0  0  0  0  0  0
   -1.2990    6.0000    0.0000 C   0  0  0  0  0  0  0  0  0  0  0  0
   -2.5981    6.7500    0.0000 C   0  0  0  0  0  0  0  0  0  0  0  0
   -3.8971    6.0000    0.0000 C   0  0  0  0  0  0  0  0  0  0  0  0
   -5.1962    6.7500    0.0000 C   0  0  0  0  0  0  0  0  0  0  0  0
   -6.4952    6.0000    0.0000 C   0  0  0  0  0  0  0  0  0  0  0  0
   -7.7942    6.7500    0.0000 C   0  0  0  0  0  0  0  0  0  0  0  0
   -7.7942    8.2500    0.0000 O   0  0  0  0  0  0  0  0  0  0  0  0
   -9.0933    6.0000    0.0000 O   0  0  0  0  0  0  0  0  0  0  0  0
  3  1  1  0
  4  3  1  0
  5  4  1  0
  6  5  1  0
  7  6  1  0
  8  7  1  0
  9  8  1  0
 10  9  1  0
 11 10  1  0
 12 11  2  0
 13  2  1  0
 13 11  1  0
M  END
>  <NAME>  (3051) 
METHYL DECANOATE

>  <SYNONYMS>  (3051) 


>  <SPECTRUM TYPE>  (3051) 
MS1

>  <INSTRUMENT TYPE>  (3051) 
EI-B

>  <INSTRUMENT>  (3051) 
HITACHI M-80B

>  <ION MODE>  (3051) 
P

>  <INCHIKEY>  (3051) 
YRHYCMZPEVDGFQ-UHFFFAOYSA-N

>  <FORMULA>  (3051) 
C11H22O2

>  <EXACT MASS>  (3051) 
186.161979944

>  <MW>  (3051) 
186

>  <ID>  (3051) 
JP007194

>  <CONTRIBUTOR>  (3051) 
University of Tokyo Team, {Faculty of Engineering, University of Tokyo

>  <COMMENT>  (3051) 
SMILES=CCCCCCCCCC(=O)OC
InChI=InChI=1S/C11H22O2/c1-3-4-5-6-7-8-9-10-11(12)13-2/h3-10H2,1-2H3
computed SMILES=O=C(OC)CCCCCCCCC
accession=JP007194
date=2016.01.19 (Created 2008.10.21, modified 2011.05.06)
author=SODA AROMATIC CO., LTD.
license=CC BY-NC-SA
exact mass=186.16198
ionization energy=70 eV
ion type=[M]+*
computed spectral entropy=2.7270066068842174
computed normalized entropy=0.7609856829887707
SPLASH=splash10-00dl-9000000000-e9af40c8b9364ca00540
submitter=submitter = University of Tokyo Team (Faculty of Engineering, University of Tokyo)
MoNA Rating=3.75

>  <NUM PEAKS>  (3051) 
36

>  <MASS SPECTRAL PEAKS>  (3051) 
15 4.02
27 8.71
29 11.62
39 6.13
41 22.69
42 5.99
43 22.11
45 1.3
53 1.63
54 1.01
55 16.42
56 2.78
57 7.36
59 10.03
67 1.42
69 8.31
70 1.38
71 2.69
73 1.51
74 99.99
75 10.02
83 2.57
84 2.47
85 1.46
87 47.67
88 4.96
97 1.8
98 1.54
101 5.23
115 1.06
129 2.69
143 10.85
144 1.03
155 7.5
157 1.57
186 1.95

>  <PREDICTED SPECTRUM>  (3051) 
14 11
15 88
16 7
17 24
18 50
26 41
27 266
28 165
29 309
31 58
32 53
33 26
34 0
38 31
39 276
40 126
41 609
42 345
43 611
44 152
45 125
50 15
51 76
52 44
53 192
54 216
55 684
56 376
57 471
58 99
59 404
60 135
65 32
66 12
67 212
68 201
69 461
70 243
71 247
72 62
73 168
74 999
75 428
76 104
77 67
79 78
80 39
81 242
82 151
83 374
84 259
85 228
86 25
87 765
88 185
89 75
90 5
91 19
92 10
93 98
94 77
95 198
96 216
97 301
98 86
100 74
101 289
102 89
103 86
110 123
111 241
112 189
113 185
114 33
115 145
116 127
121 4
125 27
126 58
127 14
129 297
130 89
137 94
143 375
144 140
145 15
154 118
155 341
156 90
157 134
158 2
171 38
186 155
187 45

$$$$

     RDKit          2D

 19 19  0  0  0  0  0  0  0  0999 V2000
  -12.6654    6.5071    0.0000 C   0  0  0  0  0  0  0  0  0  0  0  0
  -11.3663    7.2571    0.0000 C   0  0  0  0  0  0  0  0  0  0  0  0
  -10.0673    6.5071    0.0000 C   0  0  0  0  0  0  0  0  0  0  0  0
   -8.7683    7.2571    0.0000 C   0  0  0  0  0  0  0  0  0  0  0  0
   -7.4692    6.5071    0.0000 C   0  0  0  0  0  0  0  0  0  0  0  0
   -6.1702    7.2571    0.0000 C   0  0  0  0  0  0  0  0  0  0  0  0
    5.5212    5.0071    0.0000 C   0  0  0  0  0  0  0  0  0  0  0  0
    5.5216    6.5079    0.0000 C   0  0  0  0  0  0  0  0  0  0  0  0
    4.2216    4.2563    0.0000 C   0  0  0  0  0  0  0  0  0  0  0  0
   -4.8712    6.5071    0.0000 C   0  0  0  0  0  0  0  0  0  0  0  0
    4.2226    7.2579    0.0000 C   0  0  0  0  0  0  0  0  0  0  0  0
    2.9226    5.0063    0.0000 C   0  0  0  0  0  0  0  0  0  0  0  0
   -3.5721    7.2571    0.0000 C   0  0  0  0  0  0  0  0  0  0  0  0
    1.6240    7.2571    0.0000 C   0  0  0  0  0  0  0  0  0  0  0  0
    0.3250    6.5071    0.0000 C   0  0  0  0  0  0  0  0  0  0  0  0
    2.9231    6.5071    0.0000 C   0  0  0  0  0  0  0  0  0  0  0  0
   -2.2731    6.5071    0.0000 C   0  0  0  0  0  0  0  0  0  0  0  0
   -2.2731    5.0071    0.0000 O   0  0  0  0  0  0  0  0  0  0  0  0
   -0.9740    7.2571    0.0000 O   0  0  0  0  0  0  0  0  0  0  0  0
  2  1  1  0
  3  2  1  0
  4  3  1  0
  5  4  1  0
  6  5  1  0
  8  7  2  0
  9  7  1  0
 10  6  1  0
 11  8  1  0
 12  9  2  0
 13 10  1  0
 15 14  1  0
 16 11  2  0
 16 12  1  0
 16 14  1  0
 17 13  1  0
 18 17  2  0
 19 15  1  0
 19 17  1  0
M  END
>  <NAME>  (3052) 
PHENYLETHYL NONANOATE

>  <SYNONYMS>  (3052) 


>  <SPECTRUM TYPE>  (3052) 
MS1

>  <INSTRUMENT TYPE>  (3052) 
EI-B

>  <INSTRUMENT>  (3052) 
HITACHI M-80B

>  <ION MODE>  (3052) 
P

>  <INCHIKEY>  (3052) 
AFBMLGHBGGLHOF-UHFFFAOYSA-N

>  <FORMULA>  (3052) 
C17H26O2

>  <EXACT MASS>  (3052) 
262.193280072

>  <MW>  (3052) 
262

>  <ID>  (3052) 
JP007193

>  <CONTRIBUTOR>  (3052) 
University of Tokyo Team, {Faculty of Engineering, University of Tokyo

>  <COMMENT>  (3052) 
SMILES=CCCCCCCCC(=O)OCCc(c1)cccc1
InChI=InChI=1S/C17H26O2/c1-2-3-4-5-6-10-13-17(18)19-15-14-16-11-8-7-9-12-16/h7-9,11-12H,2-6,10,13-15H2,1H3
computed SMILES=O=C(OCCC=1C=CC=CC1)CCCCCCCC
accession=JP007193
date=2016.01.19 (Created 2008.10.21, modified 2011.05.06)
author=SODA AROMATIC CO., LTD.
license=CC BY-NC-SA
exact mass=262.19328
ionization energy=70 eV
ion type=[M]+*
computed spectral entropy=1.7584159961543209
computed normalized entropy=0.5869736797501673
SPLASH=splash10-0udi-3900000000-168e718f199c65b61cd6
submitter=submitter = University of Tokyo Team (Faculty of Engineering, University of Tokyo)
MoNA Rating=3.75

>  <NUM PEAKS>  (3052) 
20

>  <MASS SPECTRAL PEAKS>  (3052) 
27 2.18
39 1.65
41 5.17
42 1.3
43 5.94
51 1.24
55 3.16
57 5.85
65 1.42
71 4.08
77 2.5
78 1.66
79 2.79
91 4.43
92 1.25
103 2.38
104 99.99
105 26.53
106 1.91
141 2.21

>  <PREDICTED SPECTRUM>  (3052) 
26 28
27 123
28 18
29 131
38 1
39 147
40 28
41 196
42 129
43 236
44 57
50 51
51 108
52 53
53 65
54 85
55 179
56 101
57 203
58 61
60 23
61 19
62 9
63 44
64 29
65 133
66 32
67 6
68 27
69 134
70 98
71 108
73 73
74 26
75 7
76 36
77 147
78 146
79 124
80 39
81 24
82 4
83 22
84 46
85 42
86 77
89 49
90 17
91 223
92 119
101 8
102 27
103 109
104 999
105 450
106 107
107 8
109 14
112 14
135 32
141 99

$$$$

     RDKit          2D

 18 18  0  0  0  0  0  0  0  0999 V2000
  -11.3663    6.5071    0.0000 C   0  0  0  0  0  0  0  0  0  0  0  0
  -10.0673    5.7571    0.0000 C   0  0  0  0  0  0  0  0  0  0  0  0
   -8.7683    6.5071    0.0000 C   0  0  0  0  0  0  0  0  0  0  0  0
   -7.4692    5.7571    0.0000 C   0  0  0  0  0  0  0  0  0  0  0  0
   -6.1702    6.5071    0.0000 C   0  0  0  0  0  0  0  0  0  0  0  0
   -4.8712    5.7571    0.0000 C   0  0  0  0  0  0  0  0  0  0  0  0
    5.5212    4.2571    0.0000 C   0  0  0  0  0  0  0  0  0  0  0  0
    5.5216    5.7579    0.0000 C   0  0  0  0  0  0  0  0  0  0  0  0
    4.2216    3.5063    0.0000 C   0  0  0  0  0  0  0  0  0  0  0  0
   -3.5721    6.5071    0.0000 C   0  0  0  0  0  0  0  0  0  0  0  0
    4.2226    6.5079    0.0000 C   0  0  0  0  0  0  0  0  0  0  0  0
    2.9226    4.2563    0.0000 C   0  0  0  0  0  0  0  0  0  0  0  0
   -2.2731    5.7571    0.0000 C   0  0  0  0  0  0  0  0  0  0  0  0
    1.6240    6.5071    0.0000 C   0  0  0  0  0  0  0  0  0  0  0  0
    2.9231    5.7571    0.0000 C   0  0  0  0  0  0  0  0  0  0  0  0
   -0.9740    6.5071    0.0000 C   0  0  0  0  0  0  0  0  0  0  0  0
   -0.9740    8.0071    0.0000 O   0  0  0  0  0  0  0  0  0  0  0  0
    0.3250    5.7571    0.0000 O   0  0  0  0  0  0  0  0  0  0  0  0
  2  1  1  0
  3  2  1  0
  4  3  1  0
  5  4  1  0
  6  5  1  0
  8  7  2  0
  9  7  1  0
 10  6  1  0
 11  8  1  0
 12  9  2  0
 13 10  1  0
 15 11  2  0
 15 12  1  0
 15 14  1  0
 16 13  1  0
 17 16  2  0
 18 14  1  0
 18 16  1  0
M  END
>  <NAME>  (3053) 
BENZYL NONANOATE

>  <SYNONYMS>  (3053) 


>  <SPECTRUM TYPE>  (3053) 
MS1

>  <INSTRUMENT TYPE>  (3053) 
EI-B

>  <INSTRUMENT>  (3053) 
HITACHI M-80B

>  <ION MODE>  (3053) 
P

>  <INCHIKEY>  (3053) 
KVIQEJMWUXBBQJ-UHFFFAOYSA-N

>  <FORMULA>  (3053) 
C16H24O2

>  <EXACT MASS>  (3053) 
248.177630008

>  <MW>  (3053) 
248

>  <ID>  (3053) 
JP007192

>  <CONTRIBUTOR>  (3053) 
University of Tokyo Team, {Faculty of Engineering, University of Tokyo

>  <COMMENT>  (3053) 
SMILES=CCCCCCCCC(=O)OCc(c1)cccc1
InChI=InChI=1S/C16H24O2/c1-2-3-4-5-6-10-13-16(17)18-14-15-11-8-7-9-12-15/h7-9,11-12H,2-6,10,13-14H2,1H3
computed SMILES=O=C(OCC=1C=CC=CC1)CCCCCCCC
accession=JP007192
date=2016.01.19 (Created 2008.10.21, modified 2011.05.06)
author=SODA AROMATIC CO., LTD.
license=CC BY-NC-SA
exact mass=248.17763
ionization energy=70 eV
ion type=[M]+*
computed spectral entropy=2.9268540611011793
computed normalized entropy=0.7881506023117739
SPLASH=splash10-0006-9200000000-3d6da2c592e434f8a1e0
submitter=submitter = University of Tokyo Team (Faculty of Engineering, University of Tokyo)
MoNA Rating=3.75

>  <NUM PEAKS>  (3053) 
41

>  <MASS SPECTRAL PEAKS>  (3053) 
27 9.68
29 12.48
39 8.63
41 22.85
42 4.47
43 20.77
51 3.33
52 1.17
53 1.46
55 11.85
56 2.25
57 15.06
63 1.79
65 12.78
67 1.92
69 7.11
71 9.64
77 7.29
78 1.5
79 5.81
81 2.25
83 1.6
89 3
90 7.65
91 99.99
92 19.84
93 1.52
95 1.15
96 1.07
97 4.6
105 1.84
107 3.93
108 40.99
109 2.76
111 1.24
121 1.23
138 1
139 6.56
141 4.84
157 4.11
248 1.64

>  <PREDICTED SPECTRUM>  (3053) 
18 9
25 3
26 46
27 170
28 64
29 173
32 23
36 16
38 50
39 240
40 105
41 428
42 248
43 521
44 157
45 73
49 2
50 100
51 182
52 126
53 114
54 65
55 340
56 232
57 399
58 109
59 20
60 53
61 41
62 49
63 140
64 105
65 356
66 91
67 113
68 83
69 267
70 174
71 222
73 75
74 89
75 45
76 20
77 239
78 155
79 301
80 102
81 129
82 29
83 150
84 96
85 80
86 31
87 33
89 196
90 268
91 999
92 461
93 150
94 22
95 115
96 18
97 191
98 87
99 17
102 9
104 4
105 211
106 29
107 382
108 807
109 165
111 126
112 14
113 45
114 62
115 128
116 18
117 59
119 28
120 118
121 194
122 71
123 103
124 9
129 17
138 68
139 147
140 176
141 285
142 177
143 73
156 19
157 224
158 65
166 8
248 148
249 47

$$$$

     RDKit          2D

 21 20  0  0  0  0  0  0  0  0999 V2000
    6.4952   10.5000    0.0000 C   0  0  0  0  0  0  0  0  0  0  0  0
  -18.1865   11.2500    0.0000 C   0  0  0  0  0  0  0  0  0  0  0  0
    5.1962   11.2500    0.0000 C   0  0  0  0  0  0  0  0  0  0  0  0
  -16.8875   10.5000    0.0000 C   0  0  0  0  0  0  0  0  0  0  0  0
    3.8971   10.5000    0.0000 C   0  0  0  0  0  0  0  0  0  0  0  0
  -15.5885   11.2500    0.0000 C   0  0  0  0  0  0  0  0  0  0  0  0
    2.5981   11.2500    0.0000 C   0  0  0  0  0  0  0  0  0  0  0  0
  -14.2894   10.5000    0.0000 C   0  0  0  0  0  0  0  0  0  0  0  0
    1.2990   10.5000    0.0000 C   0  0  0  0  0  0  0  0  0  0  0  0
  -12.9904   11.2500    0.0000 C   0  0  0  0  0  0  0  0  0  0  0  0
    0.0000   11.2500    0.0000 C   0  0  0  0  0  0  0  0  0  0  0  0
   -1.2990   10.5000    0.0000 C   0  0  0  0  0  0  0  0  0  0  0  0
  -11.6913   10.5000    0.0000 C   0  0  0  0  0  0  0  0  0  0  0  0
   -2.5981   11.2500    0.0000 C   0  0  0  0  0  0  0  0  0  0  0  0
  -10.3923   11.2500    0.0000 C   0  0  0  0  0  0  0  0  0  0  0  0
   -3.8971   10.5000    0.0000 C   0  0  0  0  0  0  0  0  0  0  0  0
   -9.0933   10.5000    0.0000 C   0  0  0  0  0  0  0  0  0  0  0  0
   -5.1962   11.2500    0.0000 C   0  0  0  0  0  0  0  0  0  0  0  0
   -7.7942   11.2500    0.0000 C   0  0  0  0  0  0  0  0  0  0  0  0
   -7.7942   12.7500    0.0000 O   0  0  0  0  0  0  0  0  0  0  0  0
   -6.4952   10.5000    0.0000 O   0  0  0  0  0  0  0  0  0  0  0  0
  3  1  1  0
  4  2  1  0
  5  3  1  0
  6  4  1  0
  7  5  1  0
  8  6  1  0
  9  7  1  0
 10  8  1  0
 11  9  1  0
 12 11  1  0
 13 10  1  0
 14 12  1  0
 15 13  1  0
 16 14  1  0
 17 15  1  0
 18 16  1  0
 19 17  1  0
 20 19  2  0
 21 18  1  0
 21 19  1  0
M  END
>  <NAME>  (3054) 
DECYL NONANOATE

>  <SYNONYMS>  (3054) 


>  <SPECTRUM TYPE>  (3054) 
MS1

>  <INSTRUMENT TYPE>  (3054) 
EI-B

>  <INSTRUMENT>  (3054) 
HITACHI M-80B

>  <ION MODE>  (3054) 
P

>  <INCHIKEY>  (3054) 
KEGIMMCZWZCLGJ-UHFFFAOYSA-N

>  <FORMULA>  (3054) 
C19H38O2

>  <EXACT MASS>  (3054) 
298.287180456

>  <MW>  (3054) 
298

>  <ID>  (3054) 
JP007191

>  <CONTRIBUTOR>  (3054) 
University of Tokyo Team, {Faculty of Engineering, University of Tokyo

>  <COMMENT>  (3054) 
SMILES=CCCCCCCCCCOC(=O)CCCCCCCC
InChI=InChI=1S/C19H38O2/c1-3-5-7-9-11-12-14-16-18-21-19(20)17-15-13-10-8-6-4-2/h3-18H2,1-2H3
computed SMILES=O=C(OCCCCCCCCCC)CCCCCCCC
accession=JP007191
date=2016.01.19 (Created 2008.10.21, modified 2011.05.06)
author=SODA AROMATIC CO., LTD.
license=CC BY-NC-SA
exact mass=298.28718
ionization energy=70 eV
ion type=[M]+*
computed spectral entropy=3.432202645660409
computed normalized entropy=0.8284072018699931
SPLASH=splash10-0a4l-9300000000-118da093eeb901a76c2d
submitter=submitter = University of Tokyo Team (Faculty of Engineering, University of Tokyo)
MoNA Rating=3.75

>  <NUM PEAKS>  (3054) 
63

>  <MASS SPECTRAL PEAKS>  (3054) 
27 10.9
29 23.8
30 1.11
31 1.15
39 6.7
41 63.86
42 18.14
43 99.99
44 1.19
45 1.82
53 2.94
54 6.12
55 62.56
56 42.29
57 80.05
58 3.55
59 1.42
60 8.98
61 21.37
67 6.51
68 11.08
69 38.89
70 41.82
71 41.81
72 2.2
73 12.45
74 1.5
79 1.12
81 4.89
82 13.79
83 34.58
84 28.32
85 15.31
86 1.23
87 4.52
89 2.77
95 1.94
96 6.8
97 32.59
98 20.53
99 3.35
101 3.15
103 2.05
110 2.39
111 15.03
112 23.76
113 2.27
115 6.68
116 3.4
123 1.29
125 1.22
129 6
139 1.7
140 48.8
141 39.26
142 3.28
157 1.25
158 8.79
159 99.57
160 8.86
185 2.94
214 1.2
298 1.69

>  <PREDICTED SPECTRUM>  (3054) 
18 12
25 13
26 72
27 294
28 156
29 473
30 64
31 86
35 11
36 38
37 55
38 67
39 306
40 146
41 794
42 460
43 999
44 188
45 150
46 18
47 22
50 5
51 27
52 32
53 173
54 291
55 884
56 741
57 965
58 207
59 125
60 459
61 643
62 96
63 6
65 69
66 73
67 321
68 367
69 758
70 752
71 705
72 172
73 543
74 144
75 110
76 31
77 60
78 26
79 137
80 100
81 281
82 399
83 711
84 620
85 447
86 124
87 282
88 111
89 166
91 34
93 101
94 81
95 251
96 288
97 624
98 580
99 332
100 96
101 200
102 113
103 104
104 4
107 28
109 127
110 200
111 416
112 417
113 176
114 119
115 271
116 275
117 272
118 57
121 61
122 13
123 108
124 108
125 275
126 265
127 180
128 7
129 358
130 123
131 109
132 47
133 32
134 0
135 65
137 86
138 122
139 166
140 213
141 166
142 10
143 173
144 96
145 103
146 24
149 24
151 18
152 55
153 83
154 121
155 64
156 32
157 150
158 94
159 220
160 3
163 31
166 14
167 33
168 88
169 104
171 138
172 75
173 37
180 7
181 56
182 123
183 92
184 38
185 126
186 73
187 219
188 65
197 33
199 90
200 88
201 159
202 69
207 1
211 68
213 11
215 46
227 17
228 9
229 86
230 15
241 48
255 34
298 135
299 17

$$$$

     RDKit          2D

 19 18  0  0  0  0  0  0  0  0999 V2000
  -16.2380   10.1250    0.0000 C   0  0  0  0  0  0  0  0  0  0  0  0
    5.8457    9.3750    0.0000 C   0  0  0  0  0  0  0  0  0  0  0  0
  -14.9389    9.3750    0.0000 C   0  0  0  0  0  0  0  0  0  0  0  0
    4.5466   10.1250    0.0000 C   0  0  0  0  0  0  0  0  0  0  0  0
  -13.6399   10.1250    0.0000 C   0  0  0  0  0  0  0  0  0  0  0  0
    3.2476    9.3750    0.0000 C   0  0  0  0  0  0  0  0  0  0  0  0
  -12.3409    9.3750    0.0000 C   0  0  0  0  0  0  0  0  0  0  0  0
    1.9486   10.1250    0.0000 C   0  0  0  0  0  0  0  0  0  0  0  0
  -11.0418   10.1250    0.0000 C   0  0  0  0  0  0  0  0  0  0  0  0
    0.6495    9.3750    0.0000 C   0  0  0  0  0  0  0  0  0  0  0  0
   -9.7428    9.3750    0.0000 C   0  0  0  0  0  0  0  0  0  0  0  0
   -0.6495   10.1250    0.0000 C   0  0  0  0  0  0  0  0  0  0  0  0
   -8.4437   10.1250    0.0000 C   0  0  0  0  0  0  0  0  0  0  0  0
   -1.9486    9.3750    0.0000 C   0  0  0  0  0  0  0  0  0  0  0  0
   -7.1447    9.3750    0.0000 C   0  0  0  0  0  0  0  0  0  0  0  0
   -3.2476   10.1250    0.0000 C   0  0  0  0  0  0  0  0  0  0  0  0
   -5.8457   10.1250    0.0000 C   0  0  0  0  0  0  0  0  0  0  0  0
   -5.8457   11.6250    0.0000 O   0  0  0  0  0  0  0  0  0  0  0  0
   -4.5466    9.3750    0.0000 O   0  0  0  0  0  0  0  0  0  0  0  0
  3  1  1  0
  4  2  1  0
  5  3  1  0
  6  4  1  0
  7  5  1  0
  8  6  1  0
  9  7  1  0
 10  8  1  0
 11  9  1  0
 12 10  1  0
 13 11  1  0
 14 12  1  0
 15 13  1  0
 16 14  1  0
 17 15  1  0
 18 17  2  0
 19 16  1  0
 19 17  1  0
M  END
>  <NAME>  (3055) 
OCTYL NONANOATE

>  <SYNONYMS>  (3055) 


>  <SPECTRUM TYPE>  (3055) 
MS1

>  <INSTRUMENT TYPE>  (3055) 
EI-B

>  <INSTRUMENT>  (3055) 
HITACHI M-80B

>  <ION MODE>  (3055) 
P

>  <INCHIKEY>  (3055) 
XMCQOINBECWLBL-UHFFFAOYSA-N

>  <FORMULA>  (3055) 
C17H34O2

>  <EXACT MASS>  (3055) 
270.255880328

>  <MW>  (3055) 
270

>  <ID>  (3055) 
JP007190

>  <CONTRIBUTOR>  (3055) 
University of Tokyo Team, {Faculty of Engineering, University of Tokyo

>  <COMMENT>  (3055) 
SMILES=CCCCCCCCC(=O)OCCCCCCCC
InChI=InChI=1S/C17H34O2/c1-3-5-7-9-11-13-15-17(18)19-16-14-12-10-8-6-4-2/h3-16H2,1-2H3
computed SMILES=O=C(OCCCCCCCC)CCCCCCCC
accession=JP007190
date=2016.01.19 (Created 2008.10.21, modified 2011.05.06)
author=SODA AROMATIC CO., LTD.
license=CC BY-NC-SA
exact mass=270.25588
ionization energy=70 eV
ion type=[M]+*
computed spectral entropy=3.3595914563386358
computed normalized entropy=0.8048106797773529
SPLASH=splash10-0a4l-9200000000-373af0a79c07e96a0373
submitter=submitter = University of Tokyo Team (Faculty of Engineering, University of Tokyo)
MoNA Rating=3.75

>  <NUM PEAKS>  (3055) 
65

>  <MASS SPECTRAL PEAKS>  (3055) 
14 1.57
27 18.24
29 35.33
30 1.08
31 1.26
39 8.46
41 75.59
42 27.49
43 99.99
44 1.46
45 2.17
53 3.57
54 5.24
55 60.03
56 47.03
57 95.96
58 3.45
59 1.96
60 15.36
61 37.37
62 1.07
67 6.18
68 10.94
69 41.33
70 57.3
71 58.55
72 3.13
73 22.2
74 1.92
79 1.17
81 5.31
82 13.16
83 45.35
84 47.51
85 4.23
87 5.65
89 3.3
95 1.51
96 2.44
97 8.89
98 6.39
101 3.71
103 2.57
110 1
111 2.42
112 73.14
113 5.99
115 7.24
116 2.67
123 1.25
126 1.1
127 1.46
129 7.24
130 1.09
139 1.45
141 40.33
142 3.71
145 1.83
157 2.63
158 8.86
159 96.58
160 8.13
173 2.37
185 1.33
270 1.44

>  <PREDICTED SPECTRUM>  (3055) 
15 2
17 4
18 19
25 17
26 78
27 323
28 176
29 511
30 93
31 107
32 1
35 11
36 39
37 41
38 67
39 330
40 154
41 805
42 478
43 999
44 200
45 146
46 20
47 4
50 15
51 32
52 34
53 169
54 277
55 862
56 761
57 920
58 202
59 118
60 464
61 633
62 95
65 62
66 74
67 297
68 358
69 725
70 767
71 670
72 181
73 549
74 110
75 71
76 12
77 41
78 12
79 117
80 71
81 260
82 367
83 658
84 624
85 419
86 131
87 306
88 134
89 184
90 11
91 45
93 93
94 64
95 206
96 243
97 533
98 553
99 348
100 88
101 211
102 145
103 133
104 17
105 32
106 23
107 45
109 110
110 155
111 352
112 364
113 126
114 73
115 236
116 264
117 261
118 33
121 35
123 67
124 40
125 206
126 218
127 157
128 37
129 345
130 99
131 79
134 5
135 63
137 23
138 78
139 112
140 102
141 161
143 171
144 78
145 71
146 19
152 36
153 82
154 161
155 228
156 75
157 134
158 95
159 243
160 50
167 35
168 39
169 101
170 37
171 113
172 96
173 169
174 70
179 4
180 12
181 21
182 26
183 72
184 11
185 16
186 38
187 221
188 78
199 38
200 20
201 108
202 30
211 6
213 45
227 43
270 76
271 48

$$$$

     RDKit          2D

 13 12  0  0  0  0  0  0  0  0999 V2000
   -4.8714    4.3125    0.0000 C   0  0  0  0  0  0  0  0  0  0  0  0
    8.1190    7.3125    0.0000 C   0  0  0  0  0  0  0  0  0  0  0  0
   -3.5724    5.0625    0.0000 C   0  0  0  0  0  0  0  0  0  0  0  0
    6.8200    6.5625    0.0000 C   0  0  0  0  0  0  0  0  0  0  0  0
   -3.5724    6.5625    0.0000 C   0  0  0  0  0  0  0  0  0  0  0  0
    5.5209    7.3125    0.0000 C   0  0  0  0  0  0  0  0  0  0  0  0
   -2.2733    7.3125    0.0000 C   0  0  0  0  0  0  0  0  0  0  0  0
   -0.9743    6.5625    0.0000 C   0  0  0  0  0  0  0  0  0  0  0  0
    4.2219    6.5625    0.0000 C   0  0  0  0  0  0  0  0  0  0  0  0
    0.3248    7.3125    0.0000 C   0  0  0  0  0  0  0  0  0  0  0  0
    2.9228    7.3125    0.0000 C   0  0  0  0  0  0  0  0  0  0  0  0
    2.9228    8.8125    0.0000 O   0  0  0  0  0  0  0  0  0  0  0  0
    1.6238    6.5625    0.0000 O   0  0  0  0  0  0  0  0  0  0  0  0
  3  1  1  0
  4  2  1  0
  5  3  1  0
  6  4  1  0
  5  7  2  0
  8  7  1  0
  9  6  1  0
 10  8  1  0
 11  9  1  0
 12 11  2  0
 13 10  1  0
 13 11  1  0
M  END
>  <NAME>  (3056) 
CIS-3-HEXENYL VALERATE

>  <SYNONYMS>  (3056) 


>  <SPECTRUM TYPE>  (3056) 
MS1

>  <INSTRUMENT TYPE>  (3056) 
EI-B

>  <INSTRUMENT>  (3056) 
HITACHI M-80B

>  <ION MODE>  (3056) 
P

>  <INCHIKEY>  (3056) 
XPFTVTFOOTVHIA-ALCCZGGFSA-N

>  <FORMULA>  (3056) 
C11H20O2

>  <EXACT MASS>  (3056) 
184.14632988

>  <MW>  (3056) 
184

>  <ID>  (3056) 
JP007189

>  <CONTRIBUTOR>  (3056) 
University of Tokyo Team, {Faculty of Engineering, University of Tokyo

>  <COMMENT>  (3056) 
SMILES=CCC=CCCOC(=O)CCCC
InChI=InChI=1S/C11H20O2/c1-3-5-7-8-10-13-11(12)9-6-4-2/h5,7H,3-4,6,8-10H2,1-2H3/b7-5-
computed SMILES=O=C(OCCC=CCC)CCCC
accession=JP007189
date=2016.01.19 (Created 2008.10.21, modified 2011.05.06)
author=SODA AROMATIC CO., LTD.
license=CC BY-NC-SA
exact mass=184.14633
ionization energy=70 eV
ion type=[M]+*
computed spectral entropy=2.4085709643815543
computed normalized entropy=0.7792099269826337
SPLASH=splash10-05o9-9000000000-3e1a4f898f761efb7fa6
submitter=submitter = University of Tokyo Team (Faculty of Engineering, University of Tokyo)
MoNA Rating=3.75

>  <NUM PEAKS>  (3056) 
22

>  <MASS SPECTRAL PEAKS>  (3056) 
27 13.49
29 22.57
39 13.63
41 38.36
42 5.45
43 3.2
53 5.3
54 7.17
55 22.26
56 2.97
57 46.34
58 1.82
67 78.41
68 4.76
69 1.32
79 1.05
81 5.75
82 99.99
83 11.65
85 51.12
86 2.51
103 1.42

>  <PREDICTED SPECTRUM>  (3056) 
15 31
25 8
26 95
27 256
28 120
29 358
31 40
37 36
38 57
39 320
40 140
41 494
42 223
43 178
44 83
45 85
50 97
51 116
52 69
53 197
54 293
55 457
56 161
57 467
58 12
60 87
61 9
63 33
65 125
66 130
67 805
68 136
69 34
72 0
73 43
77 37
79 74
81 314
82 999
83 401
84 9
85 375
86 129
87 46
103 122

$$$$

     RDKit          2D

 12 11  0  0  0  0  0  0  0  0999 V2000
    2.9228    5.4375    0.0000 C   0  0  0  0  0  0  0  0  0  0  0  0
   -8.7685    6.1875    0.0000 C   0  0  0  0  0  0  0  0  0  0  0  0
   -7.4695    3.9375    0.0000 C   0  0  0  0  0  0  0  0  0  0  0  0
    1.6238    6.1875    0.0000 C   0  0  0  0  0  0  0  0  0  0  0  0
    0.3248    5.4375    0.0000 C   0  0  0  0  0  0  0  0  0  0  0  0
   -0.9743    6.1875    0.0000 C   0  0  0  0  0  0  0  0  0  0  0  0
   -6.1704    6.1875    0.0000 C   0  0  0  0  0  0  0  0  0  0  0  0
   -4.8714    5.4375    0.0000 C   0  0  0  0  0  0  0  0  0  0  0  0
   -7.4695    5.4375    0.0000 C   0  0  0  0  0  0  0  0  0  0  0  0
   -2.2733    5.4375    0.0000 C   0  0  0  0  0  0  0  0  0  0  0  0
   -2.2733    3.9375    0.0000 O   0  0  0  0  0  0  0  0  0  0  0  0
   -3.5724    6.1875    0.0000 O   0  0  0  0  0  0  0  0  0  0  0  0
  4  1  1  0
  5  4  1  0
  6  5  1  0
  8  7  1  0
  9  2  1  0
  9  3  1  0
  9  7  1  0
 10  6  1  0
 11 10  2  0
 12  8  1  0
 12 10  1  0
M  END
>  <NAME>  (3057) 
ISOPENTYL VALERATE

>  <SYNONYMS>  (3057) 


>  <SPECTRUM TYPE>  (3057) 
MS1

>  <INSTRUMENT TYPE>  (3057) 
EI-B

>  <INSTRUMENT>  (3057) 
HITACHI M-80B

>  <ION MODE>  (3057) 
P

>  <INCHIKEY>  (3057) 
UBLAMKHIFZBBSS-UHFFFAOYSA-N

>  <FORMULA>  (3057) 
C10H20O2

>  <EXACT MASS>  (3057) 
172.14632988

>  <MW>  (3057) 
172

>  <ID>  (3057) 
JP007188

>  <CONTRIBUTOR>  (3057) 
University of Tokyo Team, {Faculty of Engineering, University of Tokyo

>  <COMMENT>  (3057) 
SMILES=CCCCC(=O)OCCC(C)C
InChI=InChI=1S/C10H20O2/c1-4-5-6-10(11)12-8-7-9(2)3/h9H,4-8H2,1-3H3
computed SMILES=O=C(OCCC(C)C)CCCC
accession=JP007188
date=2016.01.19 (Created 2008.10.21, modified 2011.05.06)
author=SODA AROMATIC CO., LTD.
license=CC BY-NC-SA
exact mass=172.14633
ionization energy=70 eV
ion type=[M]+*
computed spectral entropy=2.5941724291684216
computed normalized entropy=0.7704022931596247
SPLASH=splash10-05g3-9000000000-f26ec4e2b9dccb224862
submitter=submitter = University of Tokyo Team (Faculty of Engineering, University of Tokyo)
MoNA Rating=3.75

>  <NUM PEAKS>  (3057) 
29

>  <MASS SPECTRAL PEAKS>  (3057) 
27 15.51
29 23.89
31 1.05
39 10.07
41 32.42
42 11.93
43 38.62
44 1.28
45 1.76
53 1.73
55 32.65
56 5.45
57 36.52
58 1.69
60 5.27
61 1.04
69 4.69
70 99.99
71 24.57
72 1.28
73 2.93
85 65.11
86 3.47
87 1.12
102 1.43
103 14.21
115 1.86
129 2.41
130 1.05

>  <PREDICTED SPECTRUM>  (3057) 
25 2
26 98
27 391
28 171
29 445
31 178
36 41
37 30
38 71
39 368
40 142
41 635
42 471
43 857
44 210
45 254
47 31
50 39
51 47
52 73
53 144
54 132
55 631
56 429
57 551
58 63
59 46
60 284
61 132
67 80
68 118
69 317
70 999
71 929
72 216
73 210
74 78
84 206
85 866
86 179
87 156
101 27
102 216
103 288
104 11
115 89
116 51
117 131
129 189
130 171

$$$$

     RDKit          2D

 12 11  0  0  0  0  0  0  0  0999 V2000
    3.2476    5.6250    0.0000 C   0  0  0  0  0  0  0  0  0  0  0  0
   -9.7428    5.6250    0.0000 C   0  0  0  0  0  0  0  0  0  0  0  0
    1.9486    6.3750    0.0000 C   0  0  0  0  0  0  0  0  0  0  0  0
   -8.4437    6.3750    0.0000 C   0  0  0  0  0  0  0  0  0  0  0  0
    0.6495    5.6250    0.0000 C   0  0  0  0  0  0  0  0  0  0  0  0
   -7.1447    5.6250    0.0000 C   0  0  0  0  0  0  0  0  0  0  0  0
   -0.6495    6.3750    0.0000 C   0  0  0  0  0  0  0  0  0  0  0  0
   -5.8457    6.3750    0.0000 C   0  0  0  0  0  0  0  0  0  0  0  0
   -1.9486    5.6250    0.0000 C   0  0  0  0  0  0  0  0  0  0  0  0
   -4.5466    5.6250    0.0000 C   0  0  0  0  0  0  0  0  0  0  0  0
   -4.5466    4.1250    0.0000 O   0  0  0  0  0  0  0  0  0  0  0  0
   -3.2476    6.3750    0.0000 O   0  0  0  0  0  0  0  0  0  0  0  0
  3  1  1  0
  4  2  1  0
  5  3  1  0
  6  4  1  0
  7  5  1  0
  8  6  1  0
  9  7  1  0
 10  8  1  0
 11 10  2  0
 12  9  1  0
 12 10  1  0
M  END
>  <NAME>  (3058) 
PENTYL VALERATE

>  <SYNONYMS>  (3058) 


>  <SPECTRUM TYPE>  (3058) 
MS1

>  <INSTRUMENT TYPE>  (3058) 
EI-B

>  <INSTRUMENT>  (3058) 
HITACHI M-80B

>  <ION MODE>  (3058) 
P

>  <INCHIKEY>  (3058) 
FGPPDYNPZTUNIU-UHFFFAOYSA-N

>  <FORMULA>  (3058) 
C10H20O2

>  <EXACT MASS>  (3058) 
172.14632988

>  <MW>  (3058) 
172

>  <ID>  (3058) 
JP007187

>  <CONTRIBUTOR>  (3058) 
University of Tokyo Team, {Faculty of Engineering, University of Tokyo

>  <COMMENT>  (3058) 
SMILES=CCCCCOC(=O)CCCC
InChI=InChI=1S/C10H20O2/c1-3-5-7-9-12-10(11)8-6-4-2/h3-9H2,1-2H3
computed SMILES=O=C(OCCCCC)CCCC
accession=JP007187
date=2016.01.19 (Created 2008.10.21, modified 2011.05.06)
author=SODA AROMATIC CO., LTD.
license=CC BY-NC-SA
exact mass=172.14633
ionization energy=70 eV
ion type=[M]+*
computed spectral entropy=2.832535307282567
computed normalized entropy=0.7786854201951402
SPLASH=splash10-0kif-9100000000-276cac5b0e38b79730e7
submitter=submitter = University of Tokyo Team (Faculty of Engineering, University of Tokyo)
MoNA Rating=3.75

>  <NUM PEAKS>  (3058) 
38

>  <MASS SPECTRAL PEAKS>  (3058) 
26 1.78
27 30.09
29 53.23
30 1.4
31 2.06
39 16.29
41 57.3
42 34.42
43 57.35
44 1.66
45 2.49
53 2.1
54 1.3
55 36.55
56 7.17
57 62.32
58 2.99
59 1.39
60 19.75
61 10.67
69 7.58
70 91.9
71 14.31
73 14.58
74 1.2
75 3.06
83 1.16
84 1.02
85 99.99
86 5.62
87 2.32
100 1.08
101 1.08
102 5.44
103 82.79
104 3.23
115 3.24
130 2.3

>  <PREDICTED SPECTRUM>  (3058) 
25 19
26 116
27 486
28 233
29 614
30 48
31 196
36 67
37 39
38 96
39 458
40 215
41 786
42 527
43 779
44 258
45 205
47 15
50 8
51 57
52 61
53 176
54 210
55 539
56 390
57 799
58 176
59 78
60 389
61 142
67 110
68 123
69 354
70 599
71 489
72 144
73 289
74 41
82 5
84 20
85 999
86 267
87 120
89 81
102 149
103 748
104 129
115 117
130 109

$$$$

     RDKit          2D

 11 10  0  0  0  0  0  0  0  0999 V2000
    2.5981    4.5000    0.0000 C   0  0  0  0  0  0  0  0  0  0  0  0
   -7.7942    4.5000    0.0000 C   0  0  0  0  0  0  0  0  0  0  0  0
   -6.4952    6.7500    0.0000 C   0  0  0  0  0  0  0  0  0  0  0  0
    1.2990    5.2500    0.0000 C   0  0  0  0  0  0  0  0  0  0  0  0
    0.0000    4.5000    0.0000 C   0  0  0  0  0  0  0  0  0  0  0  0
   -1.2990    5.2500    0.0000 C   0  0  0  0  0  0  0  0  0  0  0  0
   -5.1962    4.5000    0.0000 C   0  0  0  0  0  0  0  0  0  0  0  0
   -6.4952    5.2500    0.0000 C   0  0  0  0  0  0  0  0  0  0  0  0
   -2.5981    4.5000    0.0000 C   0  0  0  0  0  0  0  0  0  0  0  0
   -2.5981    3.0000    0.0000 O   0  0  0  0  0  0  0  0  0  0  0  0
   -3.8971    5.2500    0.0000 O   0  0  0  0  0  0  0  0  0  0  0  0
  4  1  1  0
  5  4  1  0
  6  5  1  0
  8  2  1  0
  8  3  1  0
  8  7  1  0
  9  6  1  0
 10  9  2  0
 11  7  1  0
 11  9  1  0
M  END
>  <NAME>  (3059) 
ISOBUTYL VALERATE

>  <SYNONYMS>  (3059) 


>  <SPECTRUM TYPE>  (3059) 
MS1

>  <INSTRUMENT TYPE>  (3059) 
EI-B

>  <INSTRUMENT>  (3059) 
HITACHI M-80B

>  <ION MODE>  (3059) 
P

>  <INCHIKEY>  (3059) 
ADNADZOSMJDVIS-UHFFFAOYSA-N

>  <FORMULA>  (3059) 
C9H18O2

>  <EXACT MASS>  (3059) 
158.130679816

>  <MW>  (3059) 
158

>  <ID>  (3059) 
JP007186

>  <CONTRIBUTOR>  (3059) 
University of Tokyo Team, {Faculty of Engineering, University of Tokyo

>  <COMMENT>  (3059) 
SMILES=CCCCC(=O)OCC(C)C
InChI=InChI=1S/C9H18O2/c1-4-5-6-9(10)11-7-8(2)3/h8H,4-7H2,1-3H3
computed SMILES=O=C(OCC(C)C)CCCC
accession=JP007186
date=2016.01.19 (Created 2008.10.21, modified 2011.05.06)
author=SODA AROMATIC CO., LTD.
license=CC BY-NC-SA
exact mass=158.13068
ionization energy=70 eV
ion type=[M]+*
computed spectral entropy=2.4069123535235093
computed normalized entropy=0.7573541802657229
SPLASH=splash10-0a4r-9000000000-6390059d2cbbf6e2230e
submitter=submitter = University of Tokyo Team (Faculty of Engineering, University of Tokyo)
MoNA Rating=3.75

>  <NUM PEAKS>  (3059) 
24

>  <MASS SPECTRAL PEAKS>  (3059) 
27 14.78
29 28.3
31 1.72
39 11.28
41 38.29
42 5.64
43 8.29
53 1.07
55 7.09
56 54.14
57 73.74
58 3.13
60 12.68
61 1.51
73 8.42
85 99.99
86 7.11
87 1.35
102 2.28
103 20.97
104 1.1
115 3.13
116 2
128 1.41

>  <PREDICTED SPECTRUM>  (3059) 
25 4
26 69
27 313
28 163
29 512
30 56
31 113
36 15
37 30
38 70
39 346
40 152
41 594
42 316
43 288
44 79
45 74
49 10
50 7
51 38
52 66
53 85
54 103
55 305
56 666
57 999
58 229
59 111
60 372
61 192
67 38
69 73
72 16
73 291
75 11
83 33
84 110
85 796
86 172
87 178
101 155
102 43
103 461
104 158
116 84
129 55

$$$$

     RDKit          2D

 11 10  0  0  0  0  0  0  0  0999 V2000
   -8.4437    5.6250    0.0000 C   0  0  0  0  0  0  0  0  0  0  0  0
    3.2476    4.8750    0.0000 C   0  0  0  0  0  0  0  0  0  0  0  0
   -7.1447    4.8750    0.0000 C   0  0  0  0  0  0  0  0  0  0  0  0
    1.9486    5.6250    0.0000 C   0  0  0  0  0  0  0  0  0  0  0  0
   -5.8457    5.6250    0.0000 C   0  0  0  0  0  0  0  0  0  0  0  0
    0.6495    4.8750    0.0000 C   0  0  0  0  0  0  0  0  0  0  0  0
   -4.5466    4.8750    0.0000 C   0  0  0  0  0  0  0  0  0  0  0  0
   -0.6495    5.6250    0.0000 C   0  0  0  0  0  0  0  0  0  0  0  0
   -3.2476    5.6250    0.0000 C   0  0  0  0  0  0  0  0  0  0  0  0
   -3.2476    7.1250    0.0000 O   0  0  0  0  0  0  0  0  0  0  0  0
   -1.9486    4.8750    0.0000 O   0  0  0  0  0  0  0  0  0  0  0  0
  3  1  1  0
  4  2  1  0
  5  3  1  0
  6  4  1  0
  7  5  1  0
  8  6  1  0
  9  7  1  0
 10  9  2  0
 11  8  1  0
 11  9  1  0
M  END
>  <NAME>  (3060) 
BUTYL VALERATE

>  <SYNONYMS>  (3060) 


>  <SPECTRUM TYPE>  (3060) 
MS1

>  <INSTRUMENT TYPE>  (3060) 
EI-B

>  <INSTRUMENT>  (3060) 
HITACHI M-80B

>  <ION MODE>  (3060) 
P

>  <INCHIKEY>  (3060) 
OKJADYKTJJGKDX-UHFFFAOYSA-N

>  <FORMULA>  (3060) 
C9H18O2

>  <EXACT MASS>  (3060) 
158.130679816

>  <MW>  (3060) 
158

>  <ID>  (3060) 
JP007185

>  <CONTRIBUTOR>  (3060) 
University of Tokyo Team, {Faculty of Engineering, University of Tokyo

>  <COMMENT>  (3060) 
SMILES=CCCCOC(=O)CCCC
InChI=InChI=1S/C9H18O2/c1-3-5-7-9(10)11-8-6-4-2/h3-8H2,1-2H3
computed SMILES=O=C(OCCCC)CCCC
accession=JP007185
date=2016.01.19 (Created 2008.10.21, modified 2011.05.06)
author=SODA AROMATIC CO., LTD.
license=CC BY-NC-SA
exact mass=158.13068
ionization energy=70 eV
ion type=[M]+*
computed spectral entropy=2.6372738185098856
computed normalized entropy=0.7542594352073356
SPLASH=splash10-0a4r-9100000000-da6ad2858de2212d672c
submitter=submitter = University of Tokyo Team (Faculty of Engineering, University of Tokyo)
MoNA Rating=3.75

>  <NUM PEAKS>  (3060) 
33

>  <MASS SPECTRAL PEAKS>  (3060) 
15 1.07
26 1.81
27 25.4
29 52.19
30 1.28
31 2.01
39 14.53
41 56.15
42 6.94
43 8.86
45 2.3
53 1.59
54 1.03
55 16.12
56 81.47
57 80.93
58 3.29
59 1.02
60 24.37
61 6.61
73 16.8
74 1.22
75 4.25
83 1.03
85 99.99
86 7.44
87 2
101 2.3
102 3.81
103 70.12
104 4.22
115 2.04
116 3.57

>  <PREDICTED SPECTRUM>  (3060) 
26 52
27 316
28 130
29 529
30 77
31 59
36 16
37 12
38 65
39 401
40 187
41 674
42 350
43 278
44 101
45 101
46 38
49 5
50 6
51 32
53 76
54 60
55 324
56 888
57 999
58 223
59 91
60 491
61 243
67 69
73 394
74 62
75 59
84 143
85 827
86 200
87 217
101 191
102 66
103 533
104 158
115 9
116 153
129 18

$$$$

     RDKit          2D

 10  9  0  0  0  0  0  0  0  0999 V2000
   -7.4695    3.9375    0.0000 C   0  0  0  0  0  0  0  0  0  0  0  0
    1.6238    3.1875    0.0000 C   0  0  0  0  0  0  0  0  0  0  0  0
    0.3248    5.4375    0.0000 C   0  0  0  0  0  0  0  0  0  0  0  0
   -6.1704    3.1875    0.0000 C   0  0  0  0  0  0  0  0  0  0  0  0
   -4.8714    3.9375    0.0000 C   0  0  0  0  0  0  0  0  0  0  0  0
   -3.5724    3.1875    0.0000 C   0  0  0  0  0  0  0  0  0  0  0  0
    0.3248    3.9375    0.0000 C   0  0  0  0  0  0  0  0  0  0  0  0
   -2.2733    3.9375    0.0000 C   0  0  0  0  0  0  0  0  0  0  0  0
   -2.2733    5.4375    0.0000 O   0  0  0  0  0  0  0  0  0  0  0  0
   -0.9743    3.1875    0.0000 O   0  0  0  0  0  0  0  0  0  0  0  0
  4  1  1  0
  5  4  1  0
  6  5  1  0
  7  2  1  0
  7  3  1  0
  8  6  1  0
  9  8  2  0
 10  7  1  0
 10  8  1  0
M  END
>  <NAME>  (3061) 
ISOPROPYL VALERATE

>  <SYNONYMS>  (3061) 


>  <SPECTRUM TYPE>  (3061) 
MS1

>  <INSTRUMENT TYPE>  (3061) 
EI-B

>  <INSTRUMENT>  (3061) 
HITACHI M-80B

>  <ION MODE>  (3061) 
P

>  <INCHIKEY>  (3061) 
OCAIYHCKLADPEG-UHFFFAOYSA-N

>  <FORMULA>  (3061) 
C8H16O2

>  <EXACT MASS>  (3061) 
144.115029752

>  <MW>  (3061) 
144

>  <ID>  (3061) 
JP007184

>  <CONTRIBUTOR>  (3061) 
University of Tokyo Team, {Faculty of Engineering, University of Tokyo

>  <COMMENT>  (3061) 
SMILES=CCCCC(=O)OC(C)C
InChI=InChI=1S/C8H16O2/c1-4-5-6-8(9)10-7(2)3/h7H,4-6H2,1-3H3
computed SMILES=O=C(OC(C)C)CCCC
ionization energy=70 eV
accession=JP007184
date=2016.01.19 (Created 2008.10.21, modified 2011.05.06)
author=SODA AROMATIC CO., LTD.
license=CC BY-NC-SA
exact mass=144.11503
ion type=[M]+*
computed spectral entropy=2.733255773829474
computed normalized entropy=0.8036157467855451
SPLASH=splash10-052o-9100000000-c6c0fb7407fd03195a8d
submitter=submitter = University of Tokyo Team (Faculty of Engineering, University of Tokyo)
MoNA Rating=3.75

>  <NUM PEAKS>  (3061) 
30

>  <MASS SPECTRAL PEAKS>  (3061) 
15 3.06
26 2.53
27 28.95
29 25.15
31 1.38
39 17.43
41 48.44
42 13.86
43 99.99
44 3.57
45 5.36
53 1.12
55 8.43
56 8.22
57 54.08
58 2.5
59 24.4
60 53.41
61 4.96
73 18.32
74 1.62
75 2.9
83 1.18
85 95.42
86 5.42
87 1.67
102 30.2
103 39.67
104 1.71
129 5.17

>  <PREDICTED SPECTRUM>  (3061) 
14 22
15 91
25 19
26 120
27 500
28 223
29 440
31 151
37 33
38 86
39 448
40 198
41 697
42 409
43 896
44 203
45 212
50 30
53 127
54 7
55 122
56 293
57 747
58 297
59 488
60 621
61 259
69 205
70 15
72 198
73 346
74 240
83 65
84 160
85 924
86 243
87 328
101 66
102 999
103 423
104 90
115 17
129 84

$$$$

     RDKit          2D

 10  9  0  0  0  0  0  0  0  0999 V2000
    2.5981    4.5000    0.0000 C   0  0  0  0  0  0  0  0  0  0  0  0
   -7.7942    4.5000    0.0000 C   0  0  0  0  0  0  0  0  0  0  0  0
    1.2990    5.2500    0.0000 C   0  0  0  0  0  0  0  0  0  0  0  0
   -6.4952    5.2500    0.0000 C   0  0  0  0  0  0  0  0  0  0  0  0
    0.0000    4.5000    0.0000 C   0  0  0  0  0  0  0  0  0  0  0  0
   -1.2990    5.2500    0.0000 C   0  0  0  0  0  0  0  0  0  0  0  0
   -5.1962    4.5000    0.0000 C   0  0  0  0  0  0  0  0  0  0  0  0
   -2.5981    4.5000    0.0000 C   0  0  0  0  0  0  0  0  0  0  0  0
   -2.5981    3.0000    0.0000 O   0  0  0  0  0  0  0  0  0  0  0  0
   -3.8971    5.2500    0.0000 O   0  0  0  0  0  0  0  0  0  0  0  0
  3  1  1  0
  4  2  1  0
  5  3  1  0
  6  5  1  0
  7  4  1  0
  8  6  1  0
  9  8  2  0
 10  7  1  0
 10  8  1  0
M  END
>  <NAME>  (3062) 
PROPYL VALERATE

>  <SYNONYMS>  (3062) 


>  <SPECTRUM TYPE>  (3062) 
MS1

>  <INSTRUMENT TYPE>  (3062) 
EI-B

>  <INSTRUMENT>  (3062) 
HITACHI M-80B

>  <ION MODE>  (3062) 
P

>  <INCHIKEY>  (3062) 
ROJKPKOYARNFNB-UHFFFAOYSA-N

>  <FORMULA>  (3062) 
C8H16O2

>  <EXACT MASS>  (3062) 
144.115029752

>  <MW>  (3062) 
144

>  <ID>  (3062) 
JP007183

>  <CONTRIBUTOR>  (3062) 
University of Tokyo Team, {Faculty of Engineering, University of Tokyo

>  <COMMENT>  (3062) 
SMILES=CCCCC(=O)OCCC
InChI=InChI=1S/C8H16O2/c1-3-5-6-8(9)10-7-4-2/h3-7H2,1-2H3
computed SMILES=O=C(OCCC)CCCC
accession=JP007183
date=2016.01.19 (Created 2008.10.21, modified 2011.05.06)
author=SODA AROMATIC CO., LTD.
license=CC BY-NC-SA
exact mass=144.11503
ionization energy=70 eV
ion type=[M]+*
computed spectral entropy=2.779758206213264
computed normalized entropy=0.8094841479265296
SPLASH=splash10-0m0f-9100000000-15e702dc79f3d55c1762
submitter=submitter = University of Tokyo Team (Faculty of Engineering, University of Tokyo)
MoNA Rating=3.75

>  <NUM PEAKS>  (3062) 
31

>  <MASS SPECTRAL PEAKS>  (3062) 
15 1.57
26 2.39
27 33.87
29 32.48
30 1.34
31 4.27
39 15.88
41 45.91
42 19.57
43 40.31
44 1.09
45 2.44
53 1.14
55 8.54
56 6.92
57 54.37
58 2.14
59 7.61
60 34.52
61 29.7
73 18.91
74 1.46
75 4.36
83 1.05
85 99.99
86 5.59
87 2.8
102 11.39
103 68.34
104 3.39
115 4.58

>  <PREDICTED SPECTRUM>  (3062) 
14 5
15 128
25 21
26 147
27 638
28 278
29 692
31 219
33 19
37 53
38 112
39 580
40 249
41 930
42 549
43 948
44 146
45 258
49 84
50 67
51 39
53 160
54 43
55 313
56 428
57 974
58 210
59 424
60 848
61 516
62 6
67 28
69 178
72 49
73 536
74 182
83 63
84 17
85 999
86 283
87 468
101 82
102 785
103 408
104 55
115 169

$$$$

     RDKit          2D

 10  9  0  0  0  0  0  0  0  0999 V2000
    2.5981    4.5000    0.0000 C   0  0  0  0  0  0  0  0  0  0  0  0
   -7.7942    4.5000    0.0000 C   0  0  0  0  0  0  0  0  0  0  0  0
    1.2990    5.2500    0.0000 C   0  0  0  0  0  0  0  0  0  0  0  0
   -6.4952    5.2500    0.0000 C   0  0  0  0  0  0  0  0  0  0  0  0
    0.0000    4.5000    0.0000 C   0  0  0  0  0  0  0  0  0  0  0  0
   -1.2990    5.2500    0.0000 C   0  0  0  0  0  0  0  0  0  0  0  0
   -5.1962    4.5000    0.0000 C   0  0  0  0  0  0  0  0  0  0  0  0
   -2.5981    4.5000    0.0000 C   0  0  0  0  0  0  0  0  0  0  0  0
   -2.5981    3.0000    0.0000 O   0  0  0  0  0  0  0  0  0  0  0  0
   -3.8971    5.2500    0.0000 O   0  0  0  0  0  0  0  0  0  0  0  0
  3  1  1  0
  4  2  2  0
  5  3  1  0
  6  5  1  0
  7  4  1  0
  8  6  1  0
  9  8  2  0
 10  7  1  0
 10  8  1  0
M  END
>  <NAME>  (3063) 
ALLYL VALERATE

>  <SYNONYMS>  (3063) 


>  <SPECTRUM TYPE>  (3063) 
MS1

>  <INSTRUMENT TYPE>  (3063) 
EI-B

>  <INSTRUMENT>  (3063) 
HITACHI M-80B

>  <ION MODE>  (3063) 
P

>  <INCHIKEY>  (3063) 
PWYXVVREDGESBB-UHFFFAOYSA-N

>  <FORMULA>  (3063) 
C8H14O2

>  <EXACT MASS>  (3063) 
142.099379688

>  <MW>  (3063) 
142

>  <ID>  (3063) 
JP007182

>  <CONTRIBUTOR>  (3063) 
University of Tokyo Team, {Faculty of Engineering, University of Tokyo

>  <COMMENT>  (3063) 
SMILES=CCCCC(=O)OCC=C
InChI=InChI=1S/C8H14O2/c1-3-5-6-8(9)10-7-4-2/h4H,2-3,5-7H2,1H3
computed SMILES=O=C(OCC=C)CCCC
accession=JP007182
date=2016.01.19 (Created 2008.10.21, modified 2011.05.06)
author=SODA AROMATIC CO., LTD.
license=CC BY-NC-SA
exact mass=142.09938
ionization energy=70 eV
ion type=[M]+*
computed spectral entropy=2.4460119091066694
computed normalized entropy=0.7264024405947411
SPLASH=splash10-052u-9000000000-40c62462ebbb0d0d2527
submitter=submitter = University of Tokyo Team (Faculty of Engineering, University of Tokyo)
MoNA Rating=3.75

>  <NUM PEAKS>  (3063) 
29

>  <MASS SPECTRAL PEAKS>  (3063) 
15 1.73
26 3.36
27 22.44
29 39.56
30 1.12
31 1.75
38 1.92
39 33.39
40 2.32
41 94.22
42 7.41
43 9.13
45 1.54
53 1.28
54 4.6
55 24.16
56 9.17
57 96.57
58 7.85
59 5.04
82 1.84
83 5.37
85 99.99
86 5.81
99 1.1
100 15.3
101 1.43
103 1.34
113 3.29

>  <PREDICTED SPECTRUM>  (3063) 
15 14
25 21
26 125
27 428
28 211
29 517
30 82
31 130
33 8
34 7
36 18
37 76
38 151
39 567
40 254
41 999
42 365
43 584
44 207
45 39
50 75
51 128
52 71
53 186
54 166
55 385
56 339
57 879
58 334
59 96
60 190
66 51
67 162
68 29
69 27
70 69
71 23
72 71
73 7
79 105
81 87
83 106
85 858
86 219
87 29
93 84
99 6
100 271
101 60
102 37
103 11
113 108

$$$$

     RDKit          2D

 17 17  0  0  0  0  0  0  0  0999 V2000
   -7.7940    4.8196    0.0000 C   0  0  0  0  0  0  0  0  0  0  0  0
   -6.4949    2.5696    0.0000 C   0  0  0  0  0  0  0  0  0  0  0  0
   -1.6337    5.9687    0.0000 C   0  0  0  0  0  0  0  0  0  0  0  0
   -3.5620    5.9687    0.0000 C   0  0  0  0  0  0  0  0  0  0  0  0
    3.8974    2.5696    0.0000 C   0  0  0  0  0  0  0  0  0  0  0  0
    3.8978    4.0704    0.0000 C   0  0  0  0  0  0  0  0  0  0  0  0
    2.5978    1.8188    0.0000 C   0  0  0  0  0  0  0  0  0  0  0  0
    2.5988    4.8204    0.0000 C   0  0  0  0  0  0  0  0  0  0  0  0
    1.2988    2.5688    0.0000 C   0  0  0  0  0  0  0  0  0  0  0  0
    0.0002    4.8196    0.0000 C   0  0  0  0  0  0  0  0  0  0  0  0
   -1.2988    4.0696    0.0000 C   0  0  0  0  0  0  0  0  0  0  0  0
   -6.4949    4.0696    0.0000 C   0  0  0  0  0  0  0  0  0  0  0  0
    1.2993    4.0696    0.0000 C   0  0  0  0  0  0  0  0  0  0  0  0
   -5.1959    4.8196    0.0000 C   0  0  0  0  0  0  0  0  0  0  0  0
   -2.5978    4.8196    0.0000 C   0  0  0  0  0  0  0  0  0  0  0  0
   -5.1959    6.3196    0.0000 O   0  0  0  0  0  0  0  0  0  0  0  0
   -3.8969    4.0696    0.0000 O   0  0  0  0  0  0  0  0  0  0  0  0
  6  5  2  0
  7  5  1  0
  8  6  1  0
  9  7  2  0
 11 10  1  0
 12  1  1  0
 12  2  1  0
 13  8  2  0
 13  9  1  0
 13 10  1  0
 14 12  1  0
 15  3  1  0
 15  4  1  0
 15 11  1  0
 16 14  2  0
 17 14  1  0
 17 15  1  0
M  END
>  <NAME>  (3064) 
ALPHA,ALPHA-DIMETHYL-GAMMA-PHENYLETHYL ISOBUTYRATE

>  <SYNONYMS>  (3064) 


>  <SPECTRUM TYPE>  (3064) 
MS1

>  <INSTRUMENT TYPE>  (3064) 
EI-B

>  <INSTRUMENT>  (3064) 
HITACHI M-80B

>  <ION MODE>  (3064) 
P

>  <INCHIKEY>  (3064) 
WCEXWNUHYPYHDN-UHFFFAOYSA-N

>  <FORMULA>  (3064) 
C15H22O2

>  <EXACT MASS>  (3064) 
234.161979944

>  <MW>  (3064) 
234

>  <ID>  (3064) 
JP007180

>  <CONTRIBUTOR>  (3064) 
University of Tokyo Team, {Faculty of Engineering, University of Tokyo

>  <COMMENT>  (3064) 
SMILES=CC(C)C(=O)OC(C)(C)CCc(c1)cccc1
InChI=InChI=1S/C15H22O2/c1-12(2)14(16)17-15(3,4)11-10-13-8-6-5-7-9-13/h5-9,12H,10-11H2,1-4H3
computed SMILES=O=C(OC(C)(C)CCC=1C=CC=CC1)C(C)C
accession=JP007180
date=2016.01.19 (Created 2008.10.21, modified 2011.05.06)
author=SODA AROMATIC CO., LTD.
license=CC BY-NC-SA
exact mass=234.16198
ionization energy=70 eV
ion type=[M]+*
computed spectral entropy=2.5890851958584915
computed normalized entropy=0.7282227087420147
SPLASH=splash10-000x-9600000000-9768ee774beb04d68f95
submitter=submitter = University of Tokyo Team (Faculty of Engineering, University of Tokyo)
MoNA Rating=3.75

>  <NUM PEAKS>  (3064) 
35

>  <MASS SPECTRAL PEAKS>  (3064) 
27 8.89
28 1.43
29 1.65
39 7.46
41 16.02
42 1.5
43 42.53
51 3.06
53 1.2
55 1.31
56 4.32
59 4.08
63 1.52
65 11.16
68 1.93
71 25.17
77 4.27
78 2.08
79 2.21
89 2.21
90 1.17
91 99.99
92 8.39
103 2.37
104 2.63
105 10.77
115 1.6
117 1.85
129 1.52
131 84.35
132 8.7
145 2
146 53.49
147 17.11
148 1.4

>  <PREDICTED SPECTRUM>  (3064) 
25 0
26 35
27 215
28 94
29 193
31 115
33 2
37 15
38 56
39 278
40 119
41 439
42 124
43 703
44 136
45 47
47 1
50 108
51 203
52 111
53 118
55 148
56 51
57 67
58 2
59 159
60 24
61 9
62 16
63 127
64 33
65 257
66 12
70 95
71 543
72 46
75 2
76 16
77 229
78 175
79 142
87 31
88 0
89 147
90 80
91 898
92 264
103 186
104 238
105 266
106 2
115 158
117 7
128 95
129 223
130 152
131 999
132 549
145 61
146 762
147 350
148 84
149 48
164 47

$$$$

     RDKit          2D

 16 16  0  0  0  0  0  0  0  0999 V2000
   -6.8197    3.1321    0.0000 C   0  0  0  0  0  0  0  0  0  0  0  0
   -5.5207    5.3821    0.0000 C   0  0  0  0  0  0  0  0  0  0  0  0
   -2.5877    1.9830    0.0000 C   0  0  0  0  0  0  0  0  0  0  0  0
   -0.6594    1.9830    0.0000 C   0  0  0  0  0  0  0  0  0  0  0  0
    3.5726    1.6321    0.0000 C   0  0  0  0  0  0  0  0  0  0  0  0
    3.5731    3.1329    0.0000 C   0  0  0  0  0  0  0  0  0  0  0  0
    2.2731    0.8813    0.0000 C   0  0  0  0  0  0  0  0  0  0  0  0
    2.2740    3.8829    0.0000 C   0  0  0  0  0  0  0  0  0  0  0  0
    0.9740    1.6313    0.0000 C   0  0  0  0  0  0  0  0  0  0  0  0
   -0.3245    3.8821    0.0000 C   0  0  0  0  0  0  0  0  0  0  0  0
   -5.5207    3.8821    0.0000 C   0  0  0  0  0  0  0  0  0  0  0  0
    0.9745    3.1321    0.0000 C   0  0  0  0  0  0  0  0  0  0  0  0
   -4.2216    3.1321    0.0000 C   0  0  0  0  0  0  0  0  0  0  0  0
   -1.6236    3.1321    0.0000 C   0  0  0  0  0  0  0  0  0  0  0  0
   -4.2216    1.6321    0.0000 O   0  0  0  0  0  0  0  0  0  0  0  0
   -2.9226    3.8821    0.0000 O   0  0  0  0  0  0  0  0  0  0  0  0
  6  5  2  0
  7  5  1  0
  8  6  1  0
  9  7  2  0
 11  1  1  0
 11  2  1  0
 12  8  2  0
 12  9  1  0
 12 10  1  0
 13 11  1  0
 14  3  1  0
 14  4  1  0
 14 10  1  0
 15 13  2  0
 16 13  1  0
 16 14  1  0
M  END
>  <NAME>  (3065) 
ALPHA,ALPHA-DIMETHYL-BETA-PHENYLETHYL ISOBUTYRATE

>  <SYNONYMS>  (3065) 


>  <SPECTRUM TYPE>  (3065) 
MS1

>  <INSTRUMENT TYPE>  (3065) 
EI-B

>  <INSTRUMENT>  (3065) 
HITACHI M-80B

>  <ION MODE>  (3065) 
P

>  <INCHIKEY>  (3065) 
KOEHGIXXSWVEPT-UHFFFAOYSA-N

>  <FORMULA>  (3065) 
C14H20O2

>  <EXACT MASS>  (3065) 
220.14632988

>  <MW>  (3065) 
220

>  <ID>  (3065) 
JP007179

>  <CONTRIBUTOR>  (3065) 
University of Tokyo Team, {Faculty of Engineering, University of Tokyo

>  <COMMENT>  (3065) 
SMILES=CC(C)C(=O)OC(C)(C)Cc(c1)cccc1
InChI=InChI=1S/C14H20O2/c1-11(2)13(15)16-14(3,4)10-12-8-6-5-7-9-12/h5-9,11H,10H2,1-4H3
computed SMILES=O=C(OC(C)(C)CC=1C=CC=CC1)C(C)C
accession=JP007179
date=2016.01.19 (Created 2008.10.21, modified 2011.05.06)
author=SODA AROMATIC CO., LTD.
license=CC BY-NC-SA
exact mass=220.14633
ionization energy=70 eV
ion type=[M]+*
computed spectral entropy=2.557615823530009
computed normalized entropy=0.7252848384832691
SPLASH=splash10-006x-9200000000-faf3b543432255b60b39
submitter=submitter = University of Tokyo Team (Faculty of Engineering, University of Tokyo)
MoNA Rating=3.75

>  <NUM PEAKS>  (3065) 
34

>  <MASS SPECTRAL PEAKS>  (3065) 
27 8.07
29 2.74
31 1.36
39 8.11
40 1.02
41 11.56
42 2.02
43 75.19
44 2.2
51 2.67
53 1.14
55 6.73
59 14.89
63 1.66
65 8.81
71 99.99
72 3.39
77 2.34
78 1.9
89 1.52
91 49.53
92 5.58
103 1.12
105 3.19
115 3.51
116 1.22
117 11.62
118 1.58
129 6.09
131 1.56
132 44.24
133 21.49
134 1.8
162 1.88

>  <PREDICTED SPECTRUM>  (3065) 
15 10
25 3
26 69
27 285
28 111
29 181
31 36
36 14
37 31
38 81
39 304
40 152
41 415
42 194
43 874
44 180
45 95
50 76
51 192
52 112
53 109
54 4
55 155
57 12
58 69
59 87
62 41
63 163
64 83
65 316
66 92
67 28
69 61
70 137
71 999
72 180
76 15
77 195
78 132
79 110
84 0
86 3
87 35
88 65
89 203
90 147
91 872
92 405
93 31
97 3
102 55
103 75
104 129
105 186
106 116
107 95
115 210
116 82
117 276
118 144
128 74
129 171
131 159
132 468
133 314
134 180
135 63
146 11
150 86
220 34

$$$$

     RDKit          2D

 15 15  0  0  0  0  0  0  0  0999 V2000
   -7.7940    4.8196    0.0000 C   0  0  0  0  0  0  0  0  0  0  0  0
   -6.4949    2.5696    0.0000 C   0  0  0  0  0  0  0  0  0  0  0  0
    3.8974    2.5696    0.0000 C   0  0  0  0  0  0  0  0  0  0  0  0
    3.8978    4.0704    0.0000 C   0  0  0  0  0  0  0  0  0  0  0  0
    2.5978    1.8188    0.0000 C   0  0  0  0  0  0  0  0  0  0  0  0
   -1.2988    4.0696    0.0000 C   0  0  0  0  0  0  0  0  0  0  0  0
    2.5988    4.8204    0.0000 C   0  0  0  0  0  0  0  0  0  0  0  0
    1.2988    2.5688    0.0000 C   0  0  0  0  0  0  0  0  0  0  0  0
    0.0002    4.8196    0.0000 C   0  0  0  0  0  0  0  0  0  0  0  0
   -2.5978    4.8196    0.0000 C   0  0  0  0  0  0  0  0  0  0  0  0
   -6.4949    4.0696    0.0000 C   0  0  0  0  0  0  0  0  0  0  0  0
    1.2993    4.0696    0.0000 C   0  0  0  0  0  0  0  0  0  0  0  0
   -5.1959    4.8196    0.0000 C   0  0  0  0  0  0  0  0  0  0  0  0
   -5.1959    6.3196    0.0000 O   0  0  0  0  0  0  0  0  0  0  0  0
   -3.8969    4.0696    0.0000 O   0  0  0  0  0  0  0  0  0  0  0  0
  4  3  2  0
  5  3  1  0
  7  4  1  0
  8  5  2  0
  9  6  1  0
 10  6  1  0
 11  1  1  0
 11  2  1  0
 12  7  2  0
 12  8  1  0
 12  9  1  0
 13 11  1  0
 14 13  2  0
 15 10  1  0
 15 13  1  0
M  END
>  <NAME>  (3066) 
3-PHENYLPROPYL ISOBUTYRATE

>  <SYNONYMS>  (3066) 


>  <SPECTRUM TYPE>  (3066) 
MS1

>  <INSTRUMENT TYPE>  (3066) 
EI-B

>  <INSTRUMENT>  (3066) 
HITACHI M-80B

>  <ION MODE>  (3066) 
P

>  <INCHIKEY>  (3066) 
VBTAKMZSMFMLGT-UHFFFAOYSA-N

>  <FORMULA>  (3066) 
C13H18O2

>  <EXACT MASS>  (3066) 
206.130679816

>  <MW>  (3066) 
206

>  <ID>  (3066) 
JP007178

>  <CONTRIBUTOR>  (3066) 
University of Tokyo Team, {Faculty of Engineering, University of Tokyo

>  <COMMENT>  (3066) 
SMILES=CC(C)C(=O)OCCCc(c1)cccc1
InChI=InChI=1S/C13H18O2/c1-11(2)13(14)15-10-6-9-12-7-4-3-5-8-12/h3-5,7-8,11H,6,9-10H2,1-2H3
computed SMILES=O=C(OCCCC=1C=CC=CC1)C(C)C
accession=JP007178
date=2016.01.19 (Created 2008.10.21, modified 2011.05.06)
author=SODA AROMATIC CO., LTD.
license=CC BY-NC-SA
exact mass=206.13068
ionization energy=70 eV
ion type=[M]+*
computed spectral entropy=2.3173702981026865
computed normalized entropy=0.7112650810248665
SPLASH=splash10-014i-6900000000-1f95902461c802bf7017
submitter=submitter = University of Tokyo Team (Faculty of Engineering, University of Tokyo)
MoNA Rating=3.75

>  <NUM PEAKS>  (3066) 
26

>  <MASS SPECTRAL PEAKS>  (3066) 
27 9.07
28 1.23
39 6.58
41 13.77
42 1.35
43 32.97
44 1.35
51 3.45
52 1.04
63 1.5
65 8.59
71 6.97
77 4.68
78 3.33
79 2.45
89 1.71
91 38.6
92 3.71
103 3.2
104 1.99
105 3.39
115 2.24
116 2.58
117 69.39
118 99.99
119 10.99

>  <PREDICTED SPECTRUM>  (3066) 
25 8
26 68
27 189
28 89
29 177
36 25
37 6
38 42
39 224
40 91
41 291
42 159
43 505
44 136
45 36
50 103
51 139
52 85
53 112
54 70
55 173
56 95
57 56
62 21
63 85
64 40
65 201
66 38
67 30
69 47
70 7
71 278
72 31
76 37
77 186
78 158
79 137
89 76
90 78
91 522
92 211
102 26
103 167
104 100
105 220
106 43
107 63
115 112
116 209
117 761
118 999
119 422
120 99
121 20

$$$$

     RDKit          2D

 15 15  0  0  0  0  0  0  0  0999 V2000
   -5.8011    3.6178    0.0000 C   0  0  0  0  0  0  0  0  0  0  0  0
   -4.5021    1.3678    0.0000 C   0  0  0  0  0  0  0  0  0  0  0  0
    0.3592    4.7669    0.0000 C   0  0  0  0  0  0  0  0  0  0  0  0
   -1.5692    4.7669    0.0000 C   0  0  0  0  0  0  0  0  0  0  0  0
    3.2921    1.3678    0.0000 C   0  0  0  0  0  0  0  0  0  0  0  0
    3.2926    2.8687    0.0000 C   0  0  0  0  0  0  0  0  0  0  0  0
    1.9926    0.6170    0.0000 C   0  0  0  0  0  0  0  0  0  0  0  0
    1.9936    3.6187    0.0000 C   0  0  0  0  0  0  0  0  0  0  0  0
    0.6936    1.3670    0.0000 C   0  0  0  0  0  0  0  0  0  0  0  0
   -4.5021    2.8678    0.0000 C   0  0  0  0  0  0  0  0  0  0  0  0
    0.6941    2.8678    0.0000 C   0  0  0  0  0  0  0  0  0  0  0  0
   -3.2031    3.6178    0.0000 C   0  0  0  0  0  0  0  0  0  0  0  0
   -0.6050    3.6178    0.0000 C   0  0  0  0  0  0  0  0  0  0  0  0
   -3.2031    5.1178    0.0000 O   0  0  0  0  0  0  0  0  0  0  0  0
   -1.9040    2.8678    0.0000 O   0  0  0  0  0  0  0  0  0  0  0  0
  6  5  2  0
  7  5  1  0
  8  6  1  0
  9  7  2  0
 10  1  1  0
 10  2  1  0
 11  8  2  0
 11  9  1  0
 12 10  1  0
 13  3  1  0
 13  4  1  0
 13 11  1  0
 14 12  2  0
 15 12  1  0
 15 13  1  0
M  END
>  <NAME>  (3067) 
ALPHA,ALPHA-DIMETHYLBENZYL ISOBUTYRATE

>  <SYNONYMS>  (3067) 


>  <SPECTRUM TYPE>  (3067) 
MS1

>  <INSTRUMENT TYPE>  (3067) 
EI-B

>  <INSTRUMENT>  (3067) 
HITACHI M-80B

>  <ION MODE>  (3067) 
P

>  <INCHIKEY>  (3067) 
LQOHUFIIIKBPQC-UHFFFAOYSA-N

>  <FORMULA>  (3067) 
C13H18O2

>  <EXACT MASS>  (3067) 
206.130679816

>  <MW>  (3067) 
206

>  <ID>  (3067) 
JP007177

>  <CONTRIBUTOR>  (3067) 
University of Tokyo Team, {Faculty of Engineering, University of Tokyo

>  <COMMENT>  (3067) 
SMILES=CC(C)C(=O)OC(C)(C)c(c1)cccc1
InChI=InChI=1S/C13H18O2/c1-10(2)12(14)15-13(3,4)11-8-6-5-7-9-11/h5-10H,1-4H3
computed SMILES=O=C(OC(C=1C=CC=CC1)(C)C)C(C)C
accession=JP007177
date=2016.01.19 (Created 2008.10.21, modified 2011.05.06)
author=SODA AROMATIC CO., LTD.
license=CC BY-NC-SA
exact mass=206.13068
ionization energy=70 eV
ion type=[M]+*
computed spectral entropy=2.4980286275623174
computed normalized entropy=0.7344556481875033
SPLASH=splash10-014l-9800000000-1f8955786d281417dab7
submitter=submitter = University of Tokyo Team (Faculty of Engineering, University of Tokyo)
MoNA Rating=3.75

>  <NUM PEAKS>  (3067) 
30

>  <MASS SPECTRAL PEAKS>  (3067) 
27 5.17
28 1.88
39 5.9
41 19.34
42 1.71
43 30.97
50 1.33
51 4.82
52 1.21
63 1.21
65 1.79
71 14.27
77 11.67
78 4.07
79 3.92
91 29.85
92 2.41
102 1.01
103 5.12
104 1.54
105 2.99
115 1.72
117 4.85
118 6.47
119 99.99
120 10.36
121 2.54
135 1.32
136 3.49
206 3.26

>  <PREDICTED SPECTRUM>  (3067) 
26 39
27 198
28 71
29 103
37 3
38 68
39 261
40 81
41 364
42 61
43 712
44 94
50 107
51 231
52 118
53 139
54 45
55 87
58 39
62 23
63 108
64 81
65 192
66 61
67 28
70 25
71 429
74 36
75 37
76 69
77 258
78 187
79 190
89 64
90 27
91 667
92 156
102 106
103 295
104 126
105 125
106 25
107 36
115 232
116 45
117 87
118 149
119 999
120 315
121 64
128 43
135 73
136 206
206 150
207 51

$$$$

     RDKit          2D

 15 15  0  0  0  0  0  0  0  0999 V2000
   -7.7940    4.8196    0.0000 C   0  0  0  0  0  0  0  0  0  0  0  0
   -6.4949    2.5696    0.0000 C   0  0  0  0  0  0  0  0  0  0  0  0
    3.8974    2.5696    0.0000 C   0  0  0  0  0  0  0  0  0  0  0  0
    3.8978    4.0704    0.0000 C   0  0  0  0  0  0  0  0  0  0  0  0
    2.5978    1.8188    0.0000 C   0  0  0  0  0  0  0  0  0  0  0  0
   -1.2988    4.0696    0.0000 C   0  0  0  0  0  0  0  0  0  0  0  0
    2.5988    4.8204    0.0000 C   0  0  0  0  0  0  0  0  0  0  0  0
    1.2988    2.5688    0.0000 C   0  0  0  0  0  0  0  0  0  0  0  0
    0.0002    4.8196    0.0000 C   0  0  0  0  0  0  0  0  0  0  0  0
   -2.5978    4.8196    0.0000 C   0  0  0  0  0  0  0  0  0  0  0  0
   -6.4949    4.0696    0.0000 C   0  0  0  0  0  0  0  0  0  0  0  0
    1.2993    4.0696    0.0000 C   0  0  0  0  0  0  0  0  0  0  0  0
   -5.1959    4.8196    0.0000 C   0  0  0  0  0  0  0  0  0  0  0  0
   -5.1959    6.3196    0.0000 O   0  0  0  0  0  0  0  0  0  0  0  0
   -3.8969    4.0696    0.0000 O   0  0  0  0  0  0  0  0  0  0  0  0
  4  3  2  0
  5  3  1  0
  7  4  1  0
  8  5  2  0
  6  9  2  0
 10  6  1  0
 11  1  1  0
 11  2  1  0
 12  7  2  0
 12  8  1  0
 12  9  1  0
 13 11  1  0
 14 13  2  0
 15 10  1  0
 15 13  1  0
M  END
>  <NAME>  (3068) 
CINNAMYL ISOBUTYRATE

>  <SYNONYMS>  (3068) 


>  <SPECTRUM TYPE>  (3068) 
MS1

>  <INSTRUMENT TYPE>  (3068) 
EI-B

>  <INSTRUMENT>  (3068) 
HITACHI M-80B

>  <ION MODE>  (3068) 
P

>  <INCHIKEY>  (3068) 
KLKQSZIWHVEARN-RMKNXTFCSA-N

>  <FORMULA>  (3068) 
C13H16O2

>  <EXACT MASS>  (3068) 
204.115029752

>  <MW>  (3068) 
204

>  <ID>  (3068) 
JP007176

>  <CONTRIBUTOR>  (3068) 
University of Tokyo Team, {Faculty of Engineering, University of Tokyo

>  <COMMENT>  (3068) 
SMILES=CC(C)C(=O)OCC=Cc(c1)cccc1
InChI=InChI=1S/C13H16O2/c1-11(2)13(14)15-10-6-9-12-7-4-3-5-8-12/h3-9,11H,10H2,1-2H3/b9-6+
computed SMILES=O=C(OCC=CC=1C=CC=CC1)C(C)C
accession=JP007176
date=2016.01.19 (Created 2008.10.21, modified 2011.05.06)
author=SODA AROMATIC CO., LTD.
license=CC BY-NC-SA
exact mass=204.11503
ionization energy=70 eV
ion type=[M]+*
computed spectral entropy=2.699259098688866
computed normalized entropy=0.7367854998538066
SPLASH=splash10-00r6-9400000000-2d4b635b4cb06ed1182c
submitter=submitter = University of Tokyo Team (Faculty of Engineering, University of Tokyo)
MoNA Rating=3.75

>  <NUM PEAKS>  (3068) 
39

>  <MASS SPECTRAL PEAKS>  (3068) 
27 12.45
28 1.38
39 11.61
40 1.08
41 12.41
42 1.5
43 99.99
44 2.64
50 1.94
51 6.98
52 1.7
55 1.85
57 1.43
63 3.64
65 3.72
70 1.7
71 84.13
72 2.85
75 1.1
76 1.06
77 9.75
78 3.96
79 2.22
89 2.59
91 14.53
92 3.77
102 2.87
103 3.75
104 1.39
105 5.95
115 40.52
116 18.46
117 51.16
118 4.21
131 1.2
133 8.4
134 2.65
204 11.46
205 1.43

>  <PREDICTED SPECTRUM>  (3068) 
25 19
26 103
27 246
28 120
29 162
31 14
37 51
38 103
39 282
40 113
41 285
42 208
43 751
44 210
45 140
49 11
50 187
51 259
52 149
53 155
54 148
55 322
56 58
57 14
58 14
60 0
61 5
62 74
63 187
64 97
65 219
66 123
67 61
69 27
70 46
71 645
72 197
73 49
74 67
75 77
76 76
77 282
78 219
79 185
80 45
87 33
89 153
90 88
91 461
92 331
93 26
95 12
96 28
99 65
101 77
102 170
103 181
104 79
105 324
106 147
107 64
108 40
115 682
116 492
117 999
118 378
119 80
131 123
132 11
133 528
134 528
135 90
136 47
204 281
205 107

$$$$

     RDKit          2D

 14 14  0  0  0  0  0  0  0  0999 V2000
   -6.8197    3.1321    0.0000 C   0  0  0  0  0  0  0  0  0  0  0  0
   -5.5207    5.3821    0.0000 C   0  0  0  0  0  0  0  0  0  0  0  0
    3.5726    1.6321    0.0000 C   0  0  0  0  0  0  0  0  0  0  0  0
    3.5731    3.1329    0.0000 C   0  0  0  0  0  0  0  0  0  0  0  0
    2.2731    0.8813    0.0000 C   0  0  0  0  0  0  0  0  0  0  0  0
    2.2740    3.8829    0.0000 C   0  0  0  0  0  0  0  0  0  0  0  0
    0.9740    1.6313    0.0000 C   0  0  0  0  0  0  0  0  0  0  0  0
   -0.3245    3.8821    0.0000 C   0  0  0  0  0  0  0  0  0  0  0  0
   -1.6236    3.1321    0.0000 C   0  0  0  0  0  0  0  0  0  0  0  0
   -5.5207    3.8821    0.0000 C   0  0  0  0  0  0  0  0  0  0  0  0
    0.9745    3.1321    0.0000 C   0  0  0  0  0  0  0  0  0  0  0  0
   -4.2216    3.1321    0.0000 C   0  0  0  0  0  0  0  0  0  0  0  0
   -4.2216    1.6321    0.0000 O   0  0  0  0  0  0  0  0  0  0  0  0
   -2.9226    3.8821    0.0000 O   0  0  0  0  0  0  0  0  0  0  0  0
  4  3  2  0
  5  3  1  0
  6  4  1  0
  7  5  2  0
  9  8  1  0
 10  1  1  0
 10  2  1  0
 11  6  2  0
 11  7  1  0
 11  8  1  0
 12 10  1  0
 13 12  2  0
 14  9  1  0
 14 12  1  0
M  END
>  <NAME>  (3069) 
PHENYLETHYL ISOBUTYRATE

>  <SYNONYMS>  (3069) 


>  <SPECTRUM TYPE>  (3069) 
MS1

>  <INSTRUMENT TYPE>  (3069) 
EI-B

>  <INSTRUMENT>  (3069) 
HITACHI M-80B

>  <ION MODE>  (3069) 
P

>  <INCHIKEY>  (3069) 
JDQVBGQWADMTAM-UHFFFAOYSA-N

>  <FORMULA>  (3069) 
C12H16O2

>  <EXACT MASS>  (3069) 
192.115029752

>  <MW>  (3069) 
192

>  <ID>  (3069) 
JP007175

>  <CONTRIBUTOR>  (3069) 
University of Tokyo Team, {Faculty of Engineering, University of Tokyo

>  <COMMENT>  (3069) 
SMILES=CC(C)C(=O)OCCc(c1)cccc1
InChI=InChI=1S/C12H16O2/c1-10(2)12(13)14-9-8-11-6-4-3-5-7-11/h3-7,10H,8-9H2,1-2H3
computed SMILES=O=C(OCCC=1C=CC=CC1)C(C)C
accession=JP007175
date=2016.01.19 (Created 2008.10.21, modified 2011.05.06)
author=SODA AROMATIC CO., LTD.
license=CC BY-NC-SA
exact mass=192.11503
ionization energy=70 eV
ion type=[M]+*
computed spectral entropy=1.987550963360875
computed normalized entropy=0.6876454414319243
SPLASH=splash10-0udi-8900000000-03330b63424030d17f57
submitter=submitter = University of Tokyo Team (Faculty of Engineering, University of Tokyo)
MoNA Rating=3.75

>  <NUM PEAKS>  (3069) 
18

>  <MASS SPECTRAL PEAKS>  (3069) 
27 8.02
39 6.27
42 1.29
43 43.07
44 1.32
50 1.02
51 4.39
63 1.23
65 4.75
71 14.9
77 6.92
78 3.65
79 2.91
91 9.86
92 1.3
103 4.67
104 99.99
105 17.5

>  <PREDICTED SPECTRUM>  (3069) 
26 40
27 158
28 7
29 56
36 14
38 19
39 212
40 44
41 185
42 144
43 498
44 119
45 12
49 6
50 91
51 178
52 105
53 116
54 80
55 164
56 3
61 19
62 28
63 121
64 48
65 216
66 40
67 8
69 37
70 19
71 428
72 68
73 86
74 45
75 42
76 48
77 228
78 224
79 172
89 131
90 89
91 332
92 138
102 97
103 220
104 999
105 539
106 155
107 39

$$$$

     RDKit          2D

 14 14  0  0  0  0  0  0  0  0999 V2000
   -5.8454    3.6946    0.0000 C   0  0  0  0  0  0  0  0  0  0  0  0
   -4.5464    1.4446    0.0000 C   0  0  0  0  0  0  0  0  0  0  0  0
   -0.6493    5.1946    0.0000 C   0  0  0  0  0  0  0  0  0  0  0  0
    3.2478    1.4446    0.0000 C   0  0  0  0  0  0  0  0  0  0  0  0
    3.2483    2.9454    0.0000 C   0  0  0  0  0  0  0  0  0  0  0  0
    1.9483    0.6938    0.0000 C   0  0  0  0  0  0  0  0  0  0  0  0
    1.9493    3.6954    0.0000 C   0  0  0  0  0  0  0  0  0  0  0  0
    0.6493    1.4438    0.0000 C   0  0  0  0  0  0  0  0  0  0  0  0
   -4.5464    2.9446    0.0000 C   0  0  0  0  0  0  0  0  0  0  0  0
   -0.6493    3.6946    0.0000 C   0  0  0  0  0  0  0  0  0  0  0  0
    0.6498    2.9446    0.0000 C   0  0  0  0  0  0  0  0  0  0  0  0
   -3.2474    3.6946    0.0000 C   0  0  0  0  0  0  0  0  0  0  0  0
   -3.2474    5.1946    0.0000 O   0  0  0  0  0  0  0  0  0  0  0  0
   -1.9483    2.9446    0.0000 O   0  0  0  0  0  0  0  0  0  0  0  0
  5  4  2  0
  6  4  1  0
  7  5  1  0
  8  6  2  0
  9  1  1  0
  9  2  1  0
 10  3  1  0
 11  7  2  0
 11  8  1  0
 11 10  1  0
 12  9  1  0
 13 12  2  0
 14 10  1  0
 14 12  1  0
M  END
>  <NAME>  (3070) 
ALPHA-PHENYLETHYL ISOBUTYRATE

>  <SYNONYMS>  (3070) 


>  <SPECTRUM TYPE>  (3070) 
MS1

>  <INSTRUMENT TYPE>  (3070) 
EI-B

>  <INSTRUMENT>  (3070) 
HITACHI M-80B

>  <ION MODE>  (3070) 
P

>  <INCHIKEY>  (3070) 
JZCCYSDOUYQZMW-UHFFFAOYSA-N

>  <FORMULA>  (3070) 
C12H16O2

>  <EXACT MASS>  (3070) 
192.115029752

>  <MW>  (3070) 
192

>  <ID>  (3070) 
JP007174

>  <CONTRIBUTOR>  (3070) 
University of Tokyo Team, {Faculty of Engineering, University of Tokyo

>  <COMMENT>  (3070) 
SMILES=CC(C)C(=O)OC(C)c(c1)cccc1
InChI=InChI=1S/C12H16O2/c1-9(2)12(13)14-10(3)11-7-5-4-6-8-11/h4-10H,1-3H3
computed SMILES=O=C(OC(C=1C=CC=CC1)C)C(C)C
accession=JP007174
date=2016.01.19 (Created 2008.10.21, modified 2011.05.06)
author=SODA AROMATIC CO., LTD.
license=CC BY-NC-SA
exact mass=192.11503
ionization energy=70 eV
ion type=[M]+*
computed spectral entropy=2.48058259645261
computed normalized entropy=0.7805351101246218
SPLASH=splash10-0a4i-5900000000-5b2900d4351c60efb106
submitter=submitter = University of Tokyo Team (Faculty of Engineering, University of Tokyo)
MoNA Rating=3.75

>  <NUM PEAKS>  (3070) 
24

>  <MASS SPECTRAL PEAKS>  (3070) 
27 11.25
28 1.37
39 6.45
41 8.05
42 1.29
43 31.47
50 1.81
51 8.51
52 1.69
63 1.38
65 1.22
71 14.73
77 19.27
78 7.9
79 10.84
103 8.72
104 30.68
105 99.99
106 8.31
107 2.05
121 2.57
122 28.23
123 1.85
192 8.9

>  <PREDICTED SPECTRUM>  (3070) 
26 24
27 143
29 8
38 34
39 167
40 47
41 222
42 125
43 640
44 192
45 116
50 117
51 221
52 138
53 109
55 89
62 31
63 88
64 30
65 64
66 13
70 104
71 589
72 65
74 39
75 24
76 72
77 403
78 284
79 387
80 60
89 106
90 38
91 127
92 41
93 13
102 126
103 370
104 461
105 999
106 334
107 293
108 39
121 56
122 402
123 174
124 4
192 137
193 24

$$$$

     RDKit          2D

 13 13  0  0  0  0  0  0  0  0999 V2000
    0.3463   -4.7011    0.0000 C   0  0  0  0  0  0  0  0  0  0  0  0
    1.6267   -2.4405    0.0000 C   0  0  0  0  0  0  0  0  0  0  0  0
   -6.1932    2.0527    0.0000 C   0  0  0  0  0  0  0  0  0  0  0  0
   -3.5988    2.0463    0.0000 C   0  0  0  0  0  0  0  0  0  0  0  0
   -4.9124   -0.1786    0.0000 C   0  0  0  0  0  0  0  0  0  0  0  0
   -2.3143    1.3214    0.0000 C   0  0  0  0  0  0  0  0  0  0  0  0
   -3.5879   -0.9727    0.0000 C   0  0  0  0  0  0  0  0  0  0  0  0
    0.3339   -3.2012    0.0000 C   0  0  0  0  0  0  0  0  0  0  0  0
   -4.8979    1.2963    0.0000 C   0  0  0  0  0  0  0  0  0  0  0  0
   -2.2888   -0.2227    0.0000 C   0  0  0  0  0  0  0  0  0  0  0  0
   -0.9713   -2.4619    0.0000 C   0  0  0  0  0  0  0  0  0  0  0  0
   -2.2641   -3.2226    0.0000 O   0  0  0  0  0  0  0  0  0  0  0  0
   -0.9837   -0.9620    0.0000 O   0  0  0  0  0  0  0  0  0  0  0  0
  6  4  2  0
  7  5  1  0
  8  1  1  0
  8  2  1  0
  9  3  1  0
  9  4  1  0
  9  5  2  0
 10  6  1  0
 10  7  2  0
 11  8  1  0
 12 11  2  0
 13 10  1  0
 13 11  1  0
M  END
>  <NAME>  (3071) 
P-CRESYL ISOBUTYRATE

>  <SYNONYMS>  (3071) 


>  <SPECTRUM TYPE>  (3071) 
MS1

>  <INSTRUMENT TYPE>  (3071) 
EI-B

>  <INSTRUMENT>  (3071) 
HITACHI M-80B

>  <ION MODE>  (3071) 
P

>  <INCHIKEY>  (3071) 
UPPSFGGDKACIKP-UHFFFAOYSA-N

>  <FORMULA>  (3071) 
C11H14O2

>  <EXACT MASS>  (3071) 
178.099379688

>  <MW>  (3071) 
178

>  <ID>  (3071) 
JP007173

>  <CONTRIBUTOR>  (3071) 
University of Tokyo Team, {Faculty of Engineering, University of Tokyo

>  <COMMENT>  (3071) 
SMILES=CC(C)C(=O)Oc(c1)ccc(C)c1
InChI=InChI=1S/C11H14O2/c1-8(2)11(12)13-10-6-4-9(3)5-7-10/h4-8H,1-3H3
computed SMILES=O=C(OC1=CC=C(C=C1)C)C(C)C
accession=JP007173
date=2016.01.19 (Created 2008.10.21, modified 2011.05.06)
author=SODA AROMATIC CO., LTD.
license=CC BY-NC-SA
exact mass=178.09938
ionization energy=70 eV
ion type=[M]+*
computed spectral entropy=2.461960112848212
computed normalized entropy=0.7388382391688092
SPLASH=splash10-0a4l-9700000000-7f3009ff6f506c7ee841
submitter=submitter = University of Tokyo Team (Faculty of Engineering, University of Tokyo)
MoNA Rating=3.75

>  <NUM PEAKS>  (3071) 
28

>  <MASS SPECTRAL PEAKS>  (3071) 
26 1.01
27 12.08
39 8.21
40 1.08
41 10.29
42 2.33
43 62.46
44 1.78
50 1.88
51 5.65
52 2.9
53 3.84
55 1.26
63 1.68
65 2.59
70 8.15
71 16.86
77 14.06
78 4.86
79 6.05
80 2.35
90 2.01
91 4.12
107 24.62
108 99.99
109 7.57
178 10.98
179 1.33

>  <PREDICTED SPECTRUM>  (3071) 
26 57
27 177
28 73
29 19
37 1
38 52
39 230
40 80
41 254
42 127
43 643
44 129
50 102
51 159
52 150
53 142
54 67
55 97
56 11
62 43
63 117
64 59
65 187
66 85
67 25
68 8
69 73
70 239
71 489
72 91
74 31
77 249
78 160
79 178
80 175
81 56
89 61
90 132
91 263
92 82
93 4
106 17
107 416
108 999
109 331
110 125
135 71
178 353
179 141
180 14

$$$$

     RDKit          2D

 13 13  0  0  0  0  0  0  0  0999 V2000
   -5.8454    3.6946    0.0000 C   0  0  0  0  0  0  0  0  0  0  0  0
   -4.5464    1.4446    0.0000 C   0  0  0  0  0  0  0  0  0  0  0  0
    3.2478    1.4446    0.0000 C   0  0  0  0  0  0  0  0  0  0  0  0
    3.2483    2.9454    0.0000 C   0  0  0  0  0  0  0  0  0  0  0  0
    1.9483    0.6938    0.0000 C   0  0  0  0  0  0  0  0  0  0  0  0
    1.9493    3.6954    0.0000 C   0  0  0  0  0  0  0  0  0  0  0  0
    0.6493    1.4438    0.0000 C   0  0  0  0  0  0  0  0  0  0  0  0
   -0.6493    3.6946    0.0000 C   0  0  0  0  0  0  0  0  0  0  0  0
   -4.5464    2.9446    0.0000 C   0  0  0  0  0  0  0  0  0  0  0  0
    0.6498    2.9446    0.0000 C   0  0  0  0  0  0  0  0  0  0  0  0
   -3.2474    3.6946    0.0000 C   0  0  0  0  0  0  0  0  0  0  0  0
   -3.2474    5.1946    0.0000 O   0  0  0  0  0  0  0  0  0  0  0  0
   -1.9483    2.9446    0.0000 O   0  0  0  0  0  0  0  0  0  0  0  0
  4  3  2  0
  5  3  1  0
  6  4  1  0
  7  5  2  0
  9  1  1  0
  9  2  1  0
 10  6  2  0
 10  7  1  0
 10  8  1  0
 11  9  1  0
 12 11  2  0
 13  8  1  0
 13 11  1  0
M  END
>  <NAME>  (3072) 
BENZYL ISOBUTYRATE

>  <SYNONYMS>  (3072) 


>  <SPECTRUM TYPE>  (3072) 
MS1

>  <INSTRUMENT TYPE>  (3072) 
EI-B

>  <INSTRUMENT>  (3072) 
HITACHI M-80B

>  <ION MODE>  (3072) 
P

>  <INCHIKEY>  (3072) 
UIKJRDSCEYGECG-UHFFFAOYSA-N

>  <FORMULA>  (3072) 
C11H14O2

>  <EXACT MASS>  (3072) 
178.099379688

>  <MW>  (3072) 
178

>  <ID>  (3072) 
JP007172

>  <CONTRIBUTOR>  (3072) 
University of Tokyo Team, {Faculty of Engineering, University of Tokyo

>  <COMMENT>  (3072) 
SMILES=CC(C)C(=O)OCc(c1)cccc1
InChI=InChI=1S/C11H14O2/c1-9(2)11(12)13-8-10-6-4-3-5-7-10/h3-7,9H,8H2,1-2H3
computed SMILES=O=C(OCC=1C=CC=CC1)C(C)C
accession=JP007172
date=2016.01.19 (Created 2008.10.21, modified 2011.05.06)
author=SODA AROMATIC CO., LTD.
license=CC BY-NC-SA
exact mass=178.09938
ionization energy=70 eV
ion type=[M]+*
computed spectral entropy=2.4018246875584164
computed normalized entropy=0.7557533055679725
SPLASH=splash10-0006-9100000000-b537162bf87c98d73dae
submitter=submitter = University of Tokyo Team (Faculty of Engineering, University of Tokyo)
MoNA Rating=3.75

>  <NUM PEAKS>  (3072) 
24

>  <MASS SPECTRAL PEAKS>  (3072) 
27 8.3
39 10.2
41 10.26
42 1.22
43 32.62
50 1.54
51 6.23
52 1.39
63 2.64
65 11.91
71 13.56
77 7.48
78 1.49
79 4.99
89 3.75
90 7.16
91 99.99
92 7.72
105 1.61
107 2.87
108 21.65
109 1.28
178 14.94
179 1.52

>  <PREDICTED SPECTRUM>  (3072) 
25 4
26 64
27 200
28 15
29 127
31 27
37 16
38 77
39 238
40 87
41 272
42 131
43 660
44 173
45 69
50 136
51 222
52 139
53 99
56 62
62 68
63 179
64 127
65 326
66 73
70 51
71 530
72 166
73 17
74 57
75 55
76 40
77 285
78 169
79 311
80 42
81 8
89 289
90 362
91 999
92 407
105 193
106 15
107 417
108 394
109 96
178 282
179 99
180 14

$$$$

     RDKit          2D

 15 15  0  0  0  0  0  0  0  0999 V2000
    2.7772    0.7502    0.0000 C   0  0  0  0  0  0  0  0  0  0  0  0
    1.4778    3.0000    0.0000 C   0  0  0  0  0  0  0  0  0  0  0  0
   -3.7189   -3.0006    0.0000 C   0  0  0  0  0  0  0  0  0  0  0  0
   -5.5316    2.1590    0.0000 C   0  0  0  0  0  0  0  0  0  0  0  0
   -6.4962    0.4891    0.0000 C   0  0  0  0  0  0  0  0  0  0  0  0
   -2.4189   -0.7506    0.0000 C   0  0  0  0  0  0  0  0  0  0  0  0
   -5.0189   -0.7506    0.0000 C   0  0  0  0  0  0  0  0  0  0  0  0
   -3.7189    1.4994    0.0000 C   0  0  0  0  0  0  0  0  0  0  0  0
    1.4781    1.5000    0.0000 C   0  0  0  0  0  0  0  0  0  0  0  0
   -3.7189   -1.5006    0.0000 C   0  0  0  0  0  0  0  0  0  0  0  0
   -2.4189    0.7494    0.0000 C   0  0  0  0  0  0  0  0  0  0  0  0
    0.1792    0.7498    0.0000 C   0  0  0  0  0  0  0  0  0  0  0  0
   -5.0189    0.7494    0.0000 C   0  0  0  0  0  0  0  0  0  0  0  0
    0.1794   -0.7502    0.0000 O   0  0  0  0  0  0  0  0  0  0  0  0
   -1.1200    1.4996    0.0000 O   0  0  0  0  0  0  0  0  0  0  0  0
  9  1  1  0
  9  2  1  0
 10  3  1  0
 10  6  1  0
 10  7  1  0
 11  6  1  0
 11  8  1  0
 12  9  1  0
 13  4  1  0
 13  5  1  0
 13  7  1  0
 13  8  1  0
 14 12  2  0
 15 11  1  0
 15 12  1  0
M  END
>  <NAME>  (3073) 
3,3,5-TRIMETHYLCYCLOHEXYL ISOBUTYRATE

>  <SYNONYMS>  (3073) 


>  <SPECTRUM TYPE>  (3073) 
MS1

>  <INSTRUMENT TYPE>  (3073) 
EI-B

>  <INSTRUMENT>  (3073) 
HITACHI M-80B

>  <ION MODE>  (3073) 
P

>  <INCHIKEY>  (3073) 
RXJFMOVDBZCVES-UHFFFAOYSA-N

>  <FORMULA>  (3073) 
C13H24O2

>  <EXACT MASS>  (3073) 
212.177630008

>  <MW>  (3073) 
212

>  <ID>  (3073) 
JP007171

>  <CONTRIBUTOR>  (3073) 
University of Tokyo Team, {Faculty of Engineering, University of Tokyo

>  <COMMENT>  (3073) 
SMILES=CC(C)C(=O)OC(C1)CC(C)(C)CC(C)1
InChI=InChI=1S/C13H24O2/c1-9(2)12(14)15-11-6-10(3)7-13(4,5)8-11/h9-11H,6-8H2,1-5H3
computed SMILES=O=C(OC1CC(C)CC(C)(C)C1)C(C)C
accession=JP007171
date=2016.01.19 (Created 2008.10.21, modified 2011.05.06)
author=SODA AROMATIC CO., LTD.
license=CC BY-NC-SA
exact mass=212.17763
ionization energy=70 eV
ion type=[M]+*
computed spectral entropy=2.975574933269436
computed normalized entropy=0.8122082335950234
SPLASH=splash10-05tf-9300000000-348e538c4a34d627b48e
submitter=submitter = University of Tokyo Team (Faculty of Engineering, University of Tokyo)
MoNA Rating=3.75

>  <NUM PEAKS>  (3073) 
39

>  <MASS SPECTRAL PEAKS>  (3073) 
27 18.69
28 2.44
29 11.67
39 12.05
40 2.28
41 57.95
42 6.67
43 80.93
44 2.4
53 5.58
54 1.07
55 29.66
56 7.54
57 16.15
65 1.02
67 13.36
68 31.3
69 99.99
70 6.22
71 28.62
77 1.46
79 1.88
80 1.35
81 14.63
82 28.08
83 34.7
84 2.24
85 1.03
89 5.47
91 1.06
93 1.25
95 17.96
96 3.76
109 84.2
110 7.69
123 1.42
124 58.83
125 29.39
126 2.29

>  <PREDICTED SPECTRUM>  (3073) 
26 64
27 330
28 133
29 279
31 58
38 11
39 320
40 114
41 605
42 246
43 729
44 135
45 64
50 49
51 139
52 99
53 222
54 213
55 604
56 246
57 322
58 21
59 45
63 62
64 21
65 171
66 72
67 398
68 290
69 533
70 280
71 668
72 121
73 22
76 18
77 149
78 7
79 85
80 80
81 389
82 560
83 415
84 93
85 157
87 68
88 26
89 150
91 109
92 9
93 178
95 290
96 206
97 7
99 68
108 39
109 999
110 364
113 4
123 18
124 664
125 455
126 71
127 24

$$$$

     RDKit          2D

 12 11  0  0  0  0  0  0  0  0999 V2000
    2.9228    5.4375    0.0000 C   0  0  0  0  0  0  0  0  0  0  0  0
   -8.7685    6.1875    0.0000 C   0  0  0  0  0  0  0  0  0  0  0  0
   -7.4695    3.9375    0.0000 C   0  0  0  0  0  0  0  0  0  0  0  0
    1.6238    6.1875    0.0000 C   0  0  0  0  0  0  0  0  0  0  0  0
    0.3248    5.4375    0.0000 C   0  0  0  0  0  0  0  0  0  0  0  0
   -0.9743    6.1875    0.0000 C   0  0  0  0  0  0  0  0  0  0  0  0
   -2.2733    5.4375    0.0000 C   0  0  0  0  0  0  0  0  0  0  0  0
   -3.5724    6.1875    0.0000 C   0  0  0  0  0  0  0  0  0  0  0  0
   -7.4695    5.4375    0.0000 C   0  0  0  0  0  0  0  0  0  0  0  0
   -6.1704    6.1875    0.0000 C   0  0  0  0  0  0  0  0  0  0  0  0
   -6.1704    7.6875    0.0000 O   0  0  0  0  0  0  0  0  0  0  0  0
   -4.8714    5.4375    0.0000 O   0  0  0  0  0  0  0  0  0  0  0  0
  4  1  1  0
  5  4  1  0
  6  5  1  0
  7  6  1  0
  8  7  1  0
  9  2  1  0
  9  3  1  0
 10  9  1  0
 11 10  2  0
 12  8  1  0
 12 10  1  0
M  END
>  <NAME>  (3074) 
HEXYL ISOBUTYRATE

>  <SYNONYMS>  (3074) 


>  <SPECTRUM TYPE>  (3074) 
MS1

>  <INSTRUMENT TYPE>  (3074) 
EI-B

>  <INSTRUMENT>  (3074) 
HITACHI M-80B

>  <ION MODE>  (3074) 
P

>  <INCHIKEY>  (3074) 
CYHBDKTZDLSRMY-UHFFFAOYSA-N

>  <FORMULA>  (3074) 
C10H20O2

>  <EXACT MASS>  (3074) 
172.14632988

>  <MW>  (3074) 
172

>  <ID>  (3074) 
JP007170

>  <CONTRIBUTOR>  (3074) 
University of Tokyo Team, {Faculty of Engineering, University of Tokyo

>  <COMMENT>  (3074) 
SMILES=CCCCCCOC(=O)C(C)C
InChI=InChI=1S/C10H20O2/c1-4-5-6-7-8-12-10(11)9(2)3/h9H,4-8H2,1-3H3
computed SMILES=O=C(OCCCCCC)C(C)C
accession=JP007170
date=2016.01.19 (Created 2008.10.21, modified 2011.05.06)
author=SODA AROMATIC CO., LTD.
license=CC BY-NC-SA
exact mass=172.14633
ionization energy=70 eV
ion type=[M]+*
computed spectral entropy=2.547429029422592
computed normalized entropy=0.7644876002189467
SPLASH=splash10-0006-9000000000-e382ce27aa50afae3581
submitter=submitter = University of Tokyo Team (Faculty of Engineering, University of Tokyo)
MoNA Rating=3.75

>  <NUM PEAKS>  (3074) 
28

>  <MASS SPECTRAL PEAKS>  (3074) 
27 17.15
28 4.65
29 12.29
39 8.89
40 1.83
41 29.89
42 16.44
43 99.99
44 3.54
53 1.05
54 1.02
55 14.93
56 24.25
57 6.45
69 8.85
70 1.16
71 41.18
72 1.53
73 1.54
83 1.95
84 21.78
85 3.35
88 1.27
89 45.65
90 1.84
99 1.11
101 1.39
129 1.23

>  <PREDICTED SPECTRUM>  (3074) 
15 9
26 57
27 298
28 151
29 292
31 73
33 6
36 21
37 17
38 48
39 316
40 138
41 636
42 412
43 999
44 251
45 78
51 1
52 2
53 112
54 153
55 513
56 587
57 514
58 57
59 73
60 43
61 4
67 81
68 164
69 333
70 477
71 638
72 149
73 124
82 89
83 92
84 313
85 206
86 37
88 62
89 784
90 184
97 45
99 11
101 112
102 27
103 72
115 31
129 193

$$$$

     RDKit          2D

 12 11  0  0  0  0  0  0  0  0999 V2000
    2.9228    5.4375    0.0000 C   0  0  0  0  0  0  0  0  0  0  0  0
   -8.7685    6.1875    0.0000 C   0  0  0  0  0  0  0  0  0  0  0  0
   -7.4695    3.9375    0.0000 C   0  0  0  0  0  0  0  0  0  0  0  0
    1.6238    6.1875    0.0000 C   0  0  0  0  0  0  0  0  0  0  0  0
    0.3248    5.4375    0.0000 C   0  0  0  0  0  0  0  0  0  0  0  0
   -0.9743    6.1875    0.0000 C   0  0  0  0  0  0  0  0  0  0  0  0
   -2.2733    5.4375    0.0000 C   0  0  0  0  0  0  0  0  0  0  0  0
   -3.5724    6.1875    0.0000 C   0  0  0  0  0  0  0  0  0  0  0  0
   -7.4695    5.4375    0.0000 C   0  0  0  0  0  0  0  0  0  0  0  0
   -6.1704    6.1875    0.0000 C   0  0  0  0  0  0  0  0  0  0  0  0
   -6.1704    7.6875    0.0000 O   0  0  0  0  0  0  0  0  0  0  0  0
   -4.8714    5.4375    0.0000 O   0  0  0  0  0  0  0  0  0  0  0  0
  4  1  1  0
  5  4  1  0
  5  6  2  0
  7  6  1  0
  8  7  1  0
  9  2  1  0
  9  3  1  0
 10  9  1  0
 11 10  2  0
 12  8  1  0
 12 10  1  0
M  END
>  <NAME>  (3075) 
TRANS-3-HEXENYL ISOBUTYRATE

>  <SYNONYMS>  (3075) 


>  <SPECTRUM TYPE>  (3075) 
MS1

>  <INSTRUMENT TYPE>  (3075) 
EI-B

>  <INSTRUMENT>  (3075) 
HITACHI M-80B

>  <ION MODE>  (3075) 
P

>  <INCHIKEY>  (3075) 
OSMAJVWUIUORGC-AATRIKPKSA-N

>  <FORMULA>  (3075) 
C10H18O2

>  <EXACT MASS>  (3075) 
170.130679816

>  <MW>  (3075) 
170

>  <ID>  (3075) 
JP007169

>  <CONTRIBUTOR>  (3075) 
University of Tokyo Team, {Faculty of Engineering, University of Tokyo

>  <COMMENT>  (3075) 
SMILES=CCC=CCCOC(=O)C(C)C
InChI=InChI=1S/C10H18O2/c1-4-5-6-7-8-12-10(11)9(2)3/h5-6,9H,4,7-8H2,1-3H3/b6-5+
computed SMILES=O=C(OCCC=CCC)C(C)C
accession=JP007169
date=2016.01.19 (Created 2008.10.21, modified 2011.05.06)
author=SODA AROMATIC CO., LTD.
license=CC BY-NC-SA
exact mass=170.13068
ionization energy=70 eV
ion type=[M]+*
computed spectral entropy=2.4243687082764898
computed normalized entropy=0.7275569974392175
SPLASH=splash10-00l6-9000000000-f0d8231210d59e59e634
submitter=submitter = University of Tokyo Team (Faculty of Engineering, University of Tokyo)
MoNA Rating=3.75

>  <NUM PEAKS>  (3075) 
28

>  <MASS SPECTRAL PEAKS>  (3075) 
26 1.24
27 22.93
28 4.87
29 7.46
39 17.82
40 2.88
41 42.02
42 6.28
43 99.99
44 2.79
51 1.21
53 5.23
54 7.33
55 20.57
56 1.26
65 1.04
66 1.2
67 81.54
68 4.76
69 1.77
70 1.13
71 52.73
72 2.07
79 1.01
81 4.92
82 84.15
83 6.57
89 1.54

>  <PREDICTED SPECTRUM>  (3075) 
26 102
27 398
28 166
29 323
31 24
37 13
38 77
39 502
40 225
41 757
42 348
43 999
44 179
45 12
50 83
51 150
52 125
53 359
54 722
55 649
56 163
57 69
63 14
65 178
66 110
67 985
68 89
69 213
70 231
71 932
72 135
73 30
79 24
81 276
82 987
83 336
84 127
88 52
89 181
90 37
97 1

$$$$

     RDKit          2D

 16 16  0  0  1  0  0  0  0  0999 V2000
   -2.5636    1.1076    0.0000 C   0  0  0  0  0  0  0  0  0  0  0  0
   -3.8626   -1.1424    0.0000 C   0  0  0  0  0  0  0  0  0  0  0  0
    6.5302   -1.1424    0.0000 C   0  0  0  0  0  0  0  0  0  0  0  0
    5.2315    1.1078    0.0000 C   0  0  0  0  0  0  0  0  0  0  0  0
    2.6326   -3.3924    0.0000 C   0  0  0  0  0  0  0  0  0  0  0  0
    0.0340   -3.3933    0.0000 C   0  0  0  0  0  0  0  0  0  0  0  0
   -1.2650   -2.6433    0.0000 C   0  0  0  0  0  0  0  0  0  0  0  0
    0.0350   -0.3916    0.0000 C   0  0  0  0  0  0  0  0  0  0  0  0
   -2.5636   -0.3924    0.0000 C   0  0  0  0  0  0  0  0  0  0  0  0
    5.2312   -0.3922    0.0000 C   0  0  0  0  0  0  0  0  0  0  0  0
    1.3335   -2.6424    0.0000 C   0  0  0  0  0  0  0  0  0  0  0  0
   -1.2645   -1.1424    0.0000 C   0  0  0  0  0  0  0  0  0  0  0  0
    1.3340   -1.1416    0.0000 C   0  0  0  0  0  0  0  0  0  0  0  0
    3.9321   -1.1420    0.0000 C   0  0  0  0  0  0  0  0  0  0  0  0
    3.9318   -2.6420    0.0000 O   0  0  0  0  0  0  0  0  0  0  0  0
    2.6332   -0.3918    0.0000 O   0  0  0  0  0  0  0  0  0  0  0  0
  7  6  1  0
  9  1  2  0
  9  2  1  0
 10  3  1  0
 10  4  1  0
 11  5  1  0
 11  6  2  0
 12  7  1  0
 12  8  1  0
 12  9  1  1
 13  8  1  0
 13 11  1  0
 14 10  1  0
 15 14  2  0
 13 16  1  6
 16 14  1  0
M  END
>  <NAME>  (3076) 
TRANS-L-CARVYL ISOBUTYRATE

>  <SYNONYMS>  (3076) 


>  <SPECTRUM TYPE>  (3076) 
MS1

>  <INSTRUMENT TYPE>  (3076) 
EI-B

>  <INSTRUMENT>  (3076) 
HITACHI M-80B

>  <ION MODE>  (3076) 
P

>  <INCHIKEY>  (3076) 
FCZDTLWQNRALDC-OLZOCXBDSA-N

>  <FORMULA>  (3076) 
C14H22O2

>  <EXACT MASS>  (3076) 
222.161979944

>  <MW>  (3076) 
222

>  <ID>  (3076) 
JP007168

>  <CONTRIBUTOR>  (3076) 
University of Tokyo Team, {Faculty of Engineering, University of Tokyo

>  <COMMENT>  (3076) 
SMILES=CC(C)C(=O)OC(C1)C(C)=CCC(C(C)=C)1
InChI=InChI=1S/C14H22O2/c1-9(2)12-7-6-11(5)13(8-12)16-14(15)10(3)4/h6,10,12-13H,1,7-8H2,2-5H3/t12-,13+/m1/s1
computed SMILES=O=C(OC1C(=CCC(C(=C)C)C1)C)C(C)C
accession=JP007168
date=2016.01.19 (Created 2008.10.21, modified 2011.05.06)
author=SODA AROMATIC CO., LTD.
license=CC BY-NC-SA
exact mass=222.16198
ionization energy=70 eV
ion type=[M]+*
computed spectral entropy=3.3842985698773043
computed normalized entropy=0.8265788378202745
SPLASH=splash10-0006-9500000000-ae19943fbfb51e93cec5
submitter=submitter = University of Tokyo Team (Faculty of Engineering, University of Tokyo)
MoNA Rating=3.75

>  <NUM PEAKS>  (3076) 
60

>  <MASS SPECTRAL PEAKS>  (3076) 
27 14.71
29 6.04
39 16.41
40 3.14
41 34.03
42 3.67
43 99.99
44 3.19
51 3.13
52 1.62
53 10.51
54 2.36
55 17.12
56 1.31
65 5.39
66 2.08
67 6.69
68 2.97
69 3.38
70 1.19
71 72.17
72 3.59
77 16.47
78 4.81
79 16.47
80 5.34
81 6.01
82 2.98
83 2.33
84 5.63
91 27.38
92 20.08
93 38.24
94 4.83
95 3.21
96 1.99
97 1.88
103 1.46
105 17.83
106 9.17
107 21.09
108 7.35
109 34.93
110 3.21
115 1.09
117 2.58
119 57.34
120 6.9
123 1.55
133 2.83
134 24.51
135 8.6
137 1.74
151 1.16
152 50.39
153 7.31
178 1.43
179 10.67
180 1.06
222 1.72

>  <PREDICTED SPECTRUM>  (3076) 
26 44
27 233
28 50
29 96
37 2
38 24
39 282
40 157
41 522
42 162
43 999
44 154
45 63
50 48
51 157
52 112
53 293
54 128
55 387
56 83
57 71
58 40
59 21
60 38
61 12
63 81
64 34
65 213
66 162
67 313
68 201
69 159
70 70
71 917
72 319
73 1
74 15
77 409
78 200
79 430
80 246
81 354
82 218
83 228
84 168
89 35
90 25
91 578
92 506
93 539
94 182
95 249
96 193
97 107
98 76
99 21
103 64
104 100
105 400
106 414
107 454
108 434
109 616
110 335
111 183
112 43
115 4
117 185
118 41
119 842
120 209
121 51
123 107
124 39
132 47
133 153
134 503
135 244
136 56
137 103
150 16
151 107
152 833
153 278
154 112
178 4
179 255
180 26
222 111
223 24

$$$$

     RDKit          2D

 16 15  0  0  0  0  0  0  0  0999 V2000
    3.8971    6.0000    0.0000 C   0  0  0  0  0  0  0  0  0  0  0  0
    2.5981    8.2500    0.0000 C   0  0  0  0  0  0  0  0  0  0  0  0
  -10.3923    6.7500    0.0000 C   0  0  0  0  0  0  0  0  0  0  0  0
   -9.0933    4.5000    0.0000 C   0  0  0  0  0  0  0  0  0  0  0  0
   -2.5981    8.2500    0.0000 C   0  0  0  0  0  0  0  0  0  0  0  0
    0.0000    6.7500    0.0000 C   0  0  0  0  0  0  0  0  0  0  0  0
    1.2990    6.0000    0.0000 C   0  0  0  0  0  0  0  0  0  0  0  0
   -1.2990    6.0000    0.0000 C   0  0  0  0  0  0  0  0  0  0  0  0
   -3.8971    6.0000    0.0000 C   0  0  0  0  0  0  0  0  0  0  0  0
   -5.1962    6.7500    0.0000 C   0  0  0  0  0  0  0  0  0  0  0  0
    2.5981    6.7500    0.0000 C   0  0  0  0  0  0  0  0  0  0  0  0
   -9.0933    6.0000    0.0000 C   0  0  0  0  0  0  0  0  0  0  0  0
   -2.5981    6.7500    0.0000 C   0  0  0  0  0  0  0  0  0  0  0  0
   -7.7942    6.7500    0.0000 C   0  0  0  0  0  0  0  0  0  0  0  0
   -7.7942    8.2500    0.0000 O   0  0  0  0  0  0  0  0  0  0  0  0
   -6.4952    6.0000    0.0000 O   0  0  0  0  0  0  0  0  0  0  0  0
  7  6  1  0
  8  6  1  0
 10  9  1  0
 11  1  1  0
 11  2  1  0
 11  7  2  0
 12  3  1  0
 12  4  1  0
 13  5  1  0
 13  8  1  0
 13  9  1  0
 14 12  1  0
 15 14  2  0
 16 10  1  0
 16 14  1  0
M  END
>  <NAME>  (3077) 
CITRONELLYL ISOBUTYRATE

>  <SYNONYMS>  (3077) 


>  <SPECTRUM TYPE>  (3077) 
MS1

>  <INSTRUMENT TYPE>  (3077) 
EI-B

>  <INSTRUMENT>  (3077) 
HITACHI M-80B

>  <ION MODE>  (3077) 
P

>  <INCHIKEY>  (3077) 
ZGPPERKMXSGYRK-UHFFFAOYSA-N

>  <FORMULA>  (3077) 
C14H26O2

>  <EXACT MASS>  (3077) 
226.193280072

>  <MW>  (3077) 
226

>  <ID>  (3077) 
JP007167

>  <CONTRIBUTOR>  (3077) 
University of Tokyo Team, {Faculty of Engineering, University of Tokyo

>  <COMMENT>  (3077) 
SMILES=CC(C)=CCCC(C)CCOC(=O)C(C)C
InChI=InChI=1S/C14H26O2/c1-11(2)7-6-8-13(5)9-10-16-14(15)12(3)4/h7,12-13H,6,8-10H2,1-5H3
computed SMILES=O=C(OCCC(C)CCC=C(C)C)C(C)C
accession=JP007167
date=2016.01.19 (Created 2008.10.21, modified 2011.05.06)
author=SODA AROMATIC CO., LTD.
license=CC BY-NC-SA
exact mass=226.19328
ion type=[M]+*
ionization energy=70 eV
computed spectral entropy=3.1264119848347054
computed normalized entropy=0.8076077620421693
SPLASH=splash10-00rx-9100000000-a6ccc17946f97bcd2f3d
submitter=submitter = University of Tokyo Team (Faculty of Engineering, University of Tokyo)
MoNA Rating=3.75

>  <NUM PEAKS>  (3077) 
48

>  <MASS SPECTRAL PEAKS>  (3077) 
27 17.71
29 10.9
31 1.76
39 14.51
40 3.61
41 99.99
42 11.47
43 96.94
44 3.03
45 1.21
51 1.22
52 1.1
53 9.63
54 3.9
55 42.15
56 11.08
57 9.22
65 2
66 1.48
67 44.74
68 30.63
69 85.63
70 8.74
71 37.91
72 1.82
77 2.29
79 2.99
80 5.95
81 87.18
82 70.02
83 13.73
84 1.13
89 5.48
91 2.18
93 1.75
94 4.57
95 72.83
96 16.3
97 2.8
107 1.29
109 32.33
110 6.3
111 1.7
123 60.61
124 6.06
137 2.72
138 37.42
139 3.74

>  <PREDICTED SPECTRUM>  (3077) 
26 48
27 293
28 88
29 336
30 51
31 46
37 1
38 39
39 373
40 150
41 807
42 259
43 664
44 108
45 14
50 36
51 120
52 73
53 297
54 269
55 703
56 278
57 396
58 6
62 32
63 84
65 123
66 113
67 645
68 446
69 793
70 279
71 490
72 78
73 18
77 140
78 38
79 235
80 254
81 991
82 798
83 384
84 107
87 11
89 36
91 41
93 128
94 216
95 999
96 592
97 118
98 2
99 53
109 549
110 270
111 42
123 797
124 290
127 9
137 98
138 535
139 110
141 40

$$$$

     RDKit          2D

 14 13  0  0  0  0  0  0  0  0999 V2000
    1.3335    2.5304    0.0000 C   0  0  0  0  0  0  0  0  0  0  0  0
   -7.6031    4.1690    0.0000 C   0  0  0  0  0  0  0  0  0  0  0  0
   -6.3041    1.9190    0.0000 C   0  0  0  0  0  0  0  0  0  0  0  0
    1.4902    6.4190    0.0000 C   0  0  0  0  0  0  0  0  0  0  0  0
   -2.0721    2.2699    0.0000 C   0  0  0  0  0  0  0  0  0  0  0  0
   -0.1437    2.2699    0.0000 C   0  0  0  0  0  0  0  0  0  0  0  0
   -3.7060    3.4190    0.0000 C   0  0  0  0  0  0  0  0  0  0  0  0
   -5.0050    4.1690    0.0000 C   0  0  0  0  0  0  0  0  0  0  0  0
   -2.4069    4.1690    0.0000 C   0  0  0  0  0  0  0  0  0  0  0  0
   -6.3041    3.4190    0.0000 C   0  0  0  0  0  0  0  0  0  0  0  0
    0.1911    5.6690    0.0000 C   0  0  0  0  0  0  0  0  0  0  0  0
   -1.1079    3.4190    0.0000 C   0  0  0  0  0  0  0  0  0  0  0  0
   -1.1079    6.4190    0.0000 O   0  0  0  0  0  0  0  0  0  0  0  0
    0.1911    4.1690    0.0000 O   0  0  0  0  0  0  0  0  0  0  0  0
  6  1  2  0
  8  7  1  0
  9  7  1  0
 10  2  1  0
 10  3  1  0
 10  8  2  0
 11  4  1  0
 12  5  1  0
 12  6  1  0
 12  9  1  0
 13 11  2  0
 14 11  1  0
 14 12  1  0
M  END
>  <NAME>  (3078) 
LINALYL ACETATE

>  <SYNONYMS>  (3078) 


>  <SPECTRUM TYPE>  (3078) 
MS1

>  <INSTRUMENT TYPE>  (3078) 
EI-B

>  <INSTRUMENT>  (3078) 
HITACHI M-80B

>  <ION MODE>  (3078) 
P

>  <INCHIKEY>  (3078) 
UWKAYLJWKGQEPM-UHFFFAOYSA-N

>  <FORMULA>  (3078) 
C12H20O2

>  <EXACT MASS>  (3078) 
196.14632988

>  <MW>  (3078) 
196

>  <ID>  (3078) 
JP007165

>  <CONTRIBUTOR>  (3078) 
University of Tokyo Team, {Faculty of Engineering, University of Tokyo

>  <COMMENT>  (3078) 
SMILES=CC(C)=CCCC(C)(C=C)OC(C)=O
InChI=InChI=1S/C12H20O2/c1-6-12(5,14-11(4)13)9-7-8-10(2)3/h6,8H,1,7,9H2,2-5H3
computed SMILES=O=C(OC(C=C)(C)CCC=C(C)C)C
accession=JP007165
date=2016.01.19 (Created 2008.10.21, modified 2011.05.06)
author=SODA AROMATIC CO., LTD.
license=CC BY-NC-SA
exact mass=196.14633
ionization energy=70 eV
ion type=[M]+*
computed spectral entropy=3.1277534689734012
computed normalized entropy=0.7954964846206086
SPLASH=splash10-0006-9100000000-b497b7871d82184bce3a
submitter=submitter = University of Tokyo Team (Faculty of Engineering, University of Tokyo)
MoNA Rating=3.75

>  <NUM PEAKS>  (3078) 
51

>  <MASS SPECTRAL PEAKS>  (3078) 
15 2.15
27 12.54
28 2.09
29 7.72
39 14.99
40 4.13
41 49.21
42 4.29
43 89.71
44 2.19
51 2.41
52 1.44
53 12.82
54 1.6
55 21.98
56 1.85
57 1.12
65 2.48
66 1.48
67 15.22
68 14.5
69 34.79
70 2.32
71 23.9
72 3.15
77 5.97
78 1.12
79 12.86
80 42.69
81 12.74
82 4.07
83 5.04
84 1.19
85 1.52
91 7.67
92 16.04
93 99.99
94 11.45
95 3.48
105 5.66
106 1.17
107 8.32
108 1.72
109 2.07
111 1.13
113 1.21
119 1.09
121 30.5
122 2.4
136 8.77
137 1.63

>  <PREDICTED SPECTRUM>  (3078) 
25 9
26 28
27 206
28 95
29 165
31 7
37 12
38 49
39 302
40 165
41 682
42 201
43 847
44 155
45 151
50 75
51 151
52 147
53 361
54 236
55 431
56 192
57 317
58 105
59 183
60 49
61 36
62 0
63 41
64 21
65 179
66 194
67 459
68 527
69 659
70 182
71 210
72 142
73 67
77 271
78 86
79 372
80 528
81 415
82 297
83 192
84 110
85 206
86 88
87 22
91 214
92 432
93 999
94 444
95 244
96 144
97 40
98 11
99 17
100 37
101 56
105 93
107 355
108 228
109 94
110 41
111 98
112 37
113 61
114 19
115 12
121 645
122 151
123 41
125 17
126 30
135 36
136 467
137 256
138 43
139 89
153 76
154 56
196 1

$$$$

     RDKit          2D

 14 13  0  0  1  0  0  0  0  0999 V2000
    2.9228    3.9375    0.0000 C   0  0  0  0  0  0  0  0  0  0  0  0
    1.6238    6.1875    0.0000 C   0  0  0  0  0  0  0  0  0  0  0  0
   -0.9743    1.6875    0.0000 C   0  0  0  0  0  0  0  0  0  0  0  0
   -3.5724    1.6875    0.0000 C   0  0  0  0  0  0  0  0  0  0  0  0
   -7.4695    3.9375    0.0000 C   0  0  0  0  0  0  0  0  0  0  0  0
    0.3248    3.9375    0.0000 C   0  0  0  0  0  0  0  0  0  0  0  0
   -0.9743    4.6875    0.0000 C   0  0  0  0  0  0  0  0  0  0  0  0
   -3.5724    4.6875    0.0000 C   0  0  0  0  0  0  0  0  0  0  0  0
    1.6238    4.6875    0.0000 C   0  0  0  0  0  0  0  0  0  0  0  0
   -2.2733    2.4375    0.0000 C   0  0  0  0  0  0  0  0  0  0  0  0
   -6.1704    4.6875    0.0000 C   0  0  0  0  0  0  0  0  0  0  0  0
   -2.2733    3.9375    0.0000 C   0  0  0  0  0  0  0  0  0  0  0  0
   -6.1704    6.1875    0.0000 O   0  0  0  0  0  0  0  0  0  0  0  0
   -4.8714    3.9375    0.0000 O   0  0  0  0  0  0  0  0  0  0  0  0
  7  6  1  0
  9  1  1  0
  9  2  1  0
  9  6  2  0
 10  3  2  0
 10  4  1  0
 11  5  1  0
 12  7  1  6
 12  8  1  0
 12 10  1  0
 13 11  2  0
 14  8  1  0
 14 11  1  0
M  END
>  <NAME>  (3079) 
LAVANDULYL ACETATE

>  <SYNONYMS>  (3079) 


>  <SPECTRUM TYPE>  (3079) 
MS1

>  <INSTRUMENT TYPE>  (3079) 
EI-B

>  <INSTRUMENT>  (3079) 
HITACHI M-80B

>  <ION MODE>  (3079) 
P

>  <INCHIKEY>  (3079) 
HYNGAVZPWWXQIU-LBPRGKRZSA-N

>  <FORMULA>  (3079) 
C12H20O2

>  <EXACT MASS>  (3079) 
196.14632988

>  <MW>  (3079) 
196

>  <ID>  (3079) 
JP007164

>  <CONTRIBUTOR>  (3079) 
University of Tokyo Team, {Faculty of Engineering, University of Tokyo

>  <COMMENT>  (3079) 
SMILES=CC(C)=CCC([H])(COC(C)=O)C(C)=C
InChI=InChI=1S/C12H20O2/c1-9(2)6-7-12(10(3)4)8-14-11(5)13/h6,12H,3,7-8H2,1-2,4-5H3/t12-/m0/s1
computed SMILES=O=C(OCC(C(=C)C)CC=C(C)C)C
accession=JP007164
date=2016.01.19 (Created 2008.10.21, modified 2011.05.06)
author=SODA AROMATIC CO., LTD.
license=CC BY-NC-SA
exact mass=196.14633
ionization energy=70 eV
ion type=[M]+*
computed spectral entropy=2.899631685494
computed normalized entropy=0.7709325737270191
SPLASH=splash10-00kf-9100000000-86d590db81460b1972b1
submitter=submitter = University of Tokyo Team (Faculty of Engineering, University of Tokyo)
MoNA Rating=3.75

>  <NUM PEAKS>  (3079) 
43

>  <MASS SPECTRAL PEAKS>  (3079) 
15 2.65
27 6.21
29 4.95
39 10.6
40 2.55
41 50.83
42 3.25
43 75.06
44 1.49
51 1.5
52 1.04
53 8.85
55 5.22
57 1.05
65 2.44
66 1.25
67 14.01
68 44.03
69 99.99
70 6.01
77 4.91
79 7.33
80 11.58
81 8.13
82 3.45
83 1.16
84 1.81
85 5.84
86 1.54
91 6.3
92 8.97
93 63.37
94 8.06
95 2.42
105 3.22
107 6.94
108 1.73
121 19.99
122 1.72
123 3.06
127 1.86
136 18.36
137 2.78

>  <PREDICTED SPECTRUM>  (3079) 
25 4
26 32
27 224
28 89
29 231
31 52
37 41
38 89
39 361
40 208
41 799
42 235
43 683
44 168
45 129
50 105
51 181
52 149
53 344
54 218
55 300
56 112
57 208
58 40
59 84
60 105
61 46
62 5
63 40
64 14
65 170
66 129
67 499
68 630
69 999
70 200
71 198
72 93
73 67
75 37
76 9
77 322
78 159
79 409
80 451
81 322
82 243
83 92
84 112
85 118
86 50
87 13
91 250
92 399
93 880
94 363
95 363
96 152
97 51
101 49
103 6
105 171
107 449
108 216
109 101
112 42
113 16
114 54
115 12
121 612
122 251
123 225
124 14
125 8
127 84
128 27
134 14
135 25
136 409
137 142
138 45
153 55
154 18
196 2

$$$$

     RDKit          2D

 14 15  0  0  1  0  0  0  0  0999 V2000
    3.2876    3.5904    0.0000 C   0  0  0  0  0  0  0  0  0  0  0  0
    1.2027   -2.3196    0.0000 C   0  0  0  0  0  0  0  0  0  0  0  0
    2.1672   -0.6497    0.0000 C   0  0  0  0  0  0  0  0  0  0  0  0
   -0.6100    2.8400    0.0000 C   0  0  0  0  0  0  0  0  0  0  0  0
   -1.9100   -0.9100    0.0000 C   0  0  0  0  0  0  0  0  0  0  0  0
   -1.9100    0.5900    0.0000 C   0  0  0  0  0  0  0  0  0  0  0  0
   -1.3600   -0.1500    0.0000 C   0  0  0  0  0  0  0  0  0  0  0  0
    1.9887    2.8402    0.0000 C   0  0  0  0  0  0  0  0  0  0  0  0
   -0.6100   -1.6600    0.0000 C   0  0  0  0  0  0  0  0  0  0  0  0
    0.6900    0.5900    0.0000 C   0  0  0  0  0  0  0  0  0  0  0  0
    0.6900   -0.9100    0.0000 C   0  0  0  0  0  0  0  0  0  0  0  0
   -0.6100    1.3400    0.0000 C   0  0  0  0  0  0  0  0  0  0  0  0
    0.6895    3.5900    0.0000 O   0  0  0  0  0  0  0  0  0  0  0  0
    1.9889    1.3402    0.0000 O   0  0  0  0  0  0  0  0  0  0  0  0
  6  5  1  0
  8  1  1  0
  9  5  1  0
  9  7  1  0
 11  2  1  0
 11  3  1  0
 11  9  1  0
 11 10  1  0
 12  4  1  0
 12  6  1  0
 12  7  1  0
 12 10  1  0
 13  8  2  0
 14  8  1  0
 10 14  1  6
M  END
>  <NAME>  (3080) 
ALPHA-FENCHYL ACETATE

>  <SYNONYMS>  (3080) 


>  <SPECTRUM TYPE>  (3080) 
MS1

>  <INSTRUMENT TYPE>  (3080) 
EI-B

>  <INSTRUMENT>  (3080) 
HITACHI M-80B

>  <ION MODE>  (3080) 
P

>  <INCHIKEY>  (3080) 
JUWUWIGZUVEFQB-SQLBVSGCSA-N

>  <FORMULA>  (3080) 
C12H20O2

>  <EXACT MASS>  (3080) 
196.14632988

>  <MW>  (3080) 
196

>  <ID>  (3080) 
JP007162

>  <CONTRIBUTOR>  (3080) 
University of Tokyo Team, {Faculty of Engineering, University of Tokyo

>  <COMMENT>  (3080) 
SMILES=CC(=O)OC([H])(C(C)21)C(C)(C)C([H])(CC2)C1
InChI=InChI=1S/C12H20O2/c1-8(13)14-10-11(2,3)9-5-6-12(10,4)7-9/h9-10H,5-7H2,1-4H3/t9?,10-,12?/m1/s1
computed SMILES=O=C(OC1C(C)(C)C2CCC1(C)C2)C
accession=JP007162
date=2016.01.19 (Created 2008.10.21, modified 2011.05.06)
author=SODA AROMATIC CO., LTD.
license=CC BY-NC-SA
exact mass=196.14633
ionization energy=70 eV
ion type=[M]+*
computed spectral entropy=3.1993277582165596
computed normalized entropy=0.7846225331414846
SPLASH=splash10-001l-9200000000-eecec9749be8cea70b0a
submitter=submitter = University of Tokyo Team (Faculty of Engineering, University of Tokyo)
MoNA Rating=3.75

>  <NUM PEAKS>  (3080) 
59

>  <MASS SPECTRAL PEAKS>  (3080) 
15 1.99
27 5.13
29 4.59
39 6.67
41 21.3
42 1.73
43 74.3
44 1.38
45 1.6
53 6.36
54 1.17
55 9.26
56 2.04
57 3.47
59 1.39
65 1.7
67 10.06
68 1.91
69 12.82
70 1.28
71 6.12
72 8.64
77 3.65
79 7.08
80 44.2
81 99.99
82 11.61
83 5.24
84 5.05
85 1.56
86 1.5
91 3.19
92 6
93 23.71
94 3.34
95 6.31
96 1.22
97 1.88
98 1.41
99 1.15
105 1.17
107 12.89
108 2.32
109 7.61
110 1.39
111 5.61
113 1.52
114 1.82
115 3.09
121 18.03
122 1.48
123 2.77
135 3.58
136 32.54
137 4.02
139 1.92
153 2.59
154 3.74
196 1.27

>  <PREDICTED SPECTRUM>  (3080) 
26 7
27 193
28 56
29 143
38 20
39 241
40 117
41 708
42 197
43 999
44 113
45 68
50 82
51 141
52 117
53 302
54 153
55 469
56 174
57 311
59 42
62 22
63 60
64 10
65 213
66 195
67 522
68 354
69 568
70 164
71 203
72 51
73 47
77 279
78 100
79 424
80 464
81 874
82 525
83 289
84 7
85 51
91 238
92 240
93 750
94 303
95 254
96 188
97 126
98 109
99 91
105 52
107 537
108 462
109 370
110 141
111 224
112 115
113 152
114 44
115 29
121 675
122 202
123 167
124 40
125 101
135 25
136 693
137 210
138 87
139 134
140 76
152 72
153 173
154 30
181 14
196 111
197 17

$$$$

     RDKit          2D

 14 14  0  0  1  0  0  0  0  0999 V2000
   -2.2389    2.0451    0.0000 C   0  0  0  0  0  0  0  0  0  0  0  0
   -3.5379   -0.2049    0.0000 C   0  0  0  0  0  0  0  0  0  0  0  0
    2.9573   -2.4549    0.0000 C   0  0  0  0  0  0  0  0  0  0  0  0
    5.5560    0.5453    0.0000 C   0  0  0  0  0  0  0  0  0  0  0  0
    0.3587   -2.4557    0.0000 C   0  0  0  0  0  0  0  0  0  0  0  0
   -0.9403   -1.7057    0.0000 C   0  0  0  0  0  0  0  0  0  0  0  0
    0.3597    0.5459    0.0000 C   0  0  0  0  0  0  0  0  0  0  0  0
   -2.2389    0.5451    0.0000 C   0  0  0  0  0  0  0  0  0  0  0  0
    1.6583   -1.7049    0.0000 C   0  0  0  0  0  0  0  0  0  0  0  0
    4.2568   -0.2045    0.0000 C   0  0  0  0  0  0  0  0  0  0  0  0
   -0.9398   -0.2049    0.0000 C   0  0  0  0  0  0  0  0  0  0  0  0
    1.6587   -0.2041    0.0000 C   0  0  0  0  0  0  0  0  0  0  0  0
    4.2566   -1.7045    0.0000 O   0  0  0  0  0  0  0  0  0  0  0  0
    2.9579    0.5457    0.0000 O   0  0  0  0  0  0  0  0  0  0  0  0
  6  5  1  0
  8  1  2  0
  8  2  1  0
  9  3  1  6
  9  5  1  0
 10  4  1  0
 11  6  1  0
 11  7  1  0
 11  8  1  1
 12  7  1  0
 12  9  1  0
 13 10  2  0
 14 10  1  0
 12 14  1  1
M  END
>  <NAME>  (3081) 
DIHYDROCARVYL ACETATE

>  <SYNONYMS>  (3081) 


>  <SPECTRUM TYPE>  (3081) 
MS1

>  <INSTRUMENT TYPE>  (3081) 
EI-B

>  <INSTRUMENT>  (3081) 
HITACHI M-80B

>  <ION MODE>  (3081) 
P

>  <INCHIKEY>  (3081) 
TUSIZTVSUSBSQI-YUSALJHKSA-N

>  <FORMULA>  (3081) 
C12H20O2

>  <EXACT MASS>  (3081) 
196.14632988

>  <MW>  (3081) 
196

>  <ID>  (3081) 
JP007161

>  <CONTRIBUTOR>  (3081) 
University of Tokyo Team, {Faculty of Engineering, University of Tokyo

>  <COMMENT>  (3081) 
SMILES=CC(=O)OC([H])(C1)C([H])(C)CCC([H])(C(C)=C)1
InChI=InChI=1S/C12H20O2/c1-8(2)11-6-5-9(3)12(7-11)14-10(4)13/h9,11-12H,1,5-7H2,2-4H3/t9-,11-,12-/m1/s1
computed SMILES=O=C(OC1CC(C(=C)C)CCC1C)C
accession=JP007161
date=2016.01.19 (Created 2008.10.21, modified 2011.05.06)
author=SODA AROMATIC CO., LTD.
license=CC BY-NC-SA
exact mass=196.14633
ionization energy=70 eV
ion type=[M]+*
computed spectral entropy=3.2597948141387656
computed normalized entropy=0.8134573950954518
SPLASH=splash10-0006-9400000000-aaf83a734714670b7834
submitter=submitter = University of Tokyo Team (Faculty of Engineering, University of Tokyo)
MoNA Rating=3.75

>  <NUM PEAKS>  (3081) 
55

>  <MASS SPECTRAL PEAKS>  (3081) 
15 2.63
27 7.97
29 9.47
39 13.36
40 2.76
41 31.65
42 3.76
43 99.99
44 2.09
45 1.04
51 1.59
53 10.73
54 2.17
55 17.54
56 2.02
57 1.91
65 2.66
66 1.83
67 18.41
68 22.45
69 10.69
70 1.53
71 2.01
72 2.31
77 4.79
78 1.55
79 28.93
80 11.81
81 21.53
82 8.05
83 3.43
84 2.11
85 1.1
91 5.73
92 11.35
93 57.52
94 27.7
95 14.27
96 2.22
97 6.96
105 2.6
106 1.08
107 58.15
108 13.78
109 2.96
110 1.3
111 3.2
121 53.74
122 4.74
123 1.06
135 1.59
136 58.39
137 7.65
154 4.4
196 1.94

>  <PREDICTED SPECTRUM>  (3081) 
26 32
27 253
28 109
29 226
30 11
31 16
36 0
37 27
38 74
39 393
40 205
41 774
42 219
43 821
44 119
45 63
46 11
49 32
50 103
51 178
52 167
53 410
54 233
55 548
56 260
57 328
58 82
59 28
60 55
61 100
62 52
63 87
64 32
65 233
66 247
67 574
68 521
69 672
70 227
71 173
72 113
73 43
77 344
78 142
79 571
80 473
81 690
82 411
83 248
84 187
85 137
86 73
91 367
92 436
93 999
94 498
95 527
96 206
97 157
98 91
99 80
100 11
105 272
106 229
107 812
108 608
109 143
110 101
111 103
112 48
119 41
121 862
122 327
123 142
124 89
125 88
126 11
135 138
136 905
137 466
138 76
139 115
153 39
154 2

$$$$

     RDKit          2D

 14 15  0  0  1  0  0  0  0  0999 V2000
   -3.0705    5.9843    0.0000 C   0  0  0  0  0  0  0  0  0  0  0  0
    1.3259   -2.1785    0.0000 C   0  0  0  0  0  0  0  0  0  0  0  0
    2.2869   -0.5080    0.0000 C   0  0  0  0  0  0  0  0  0  0  0  0
   -1.7800    0.7300    0.0000 C   0  0  0  0  0  0  0  0  0  0  0  0
   -1.7800   -0.7700    0.0000 C   0  0  0  0  0  0  0  0  0  0  0  0
   -0.4800   -0.0200    0.0000 C   0  0  0  0  0  0  0  0  0  0  0  0
   -0.4775    2.9800    0.0000 C   0  0  0  0  0  0  0  0  0  0  0  0
   -1.7728    5.2322    0.0000 C   0  0  0  0  0  0  0  0  0  0  0  0
   -0.4800    1.4800    0.0000 C   0  0  0  0  0  0  0  0  0  0  0  0
   -0.4800   -1.5200    0.0000 C   0  0  0  0  0  0  0  0  0  0  0  0
    0.8100    0.7300    0.0000 C   0  0  0  0  0  0  0  0  0  0  0  0
    0.8100   -0.7700    0.0000 C   0  0  0  0  0  0  0  0  0  0  0  0
   -0.4725    5.9800    0.0000 O   0  0  0  0  0  0  0  0  0  0  0  0
   -1.7753    3.7322    0.0000 O   0  0  0  0  0  0  0  0  0  0  0  0
  5  4  1  0
  8  1  1  0
  9  4  2  0
  9  7  1  0
 10  5  1  1
 10  6  1  0
 11  6  1  6
 11  9  1  0
 12  2  1  0
 12  3  1  0
 12 10  1  0
 12 11  1  0
 13  8  2  0
 14  7  1  0
 14  8  1  0
M  END
>  <NAME>  (3082) 
MYRTENYL ACETATE

>  <SYNONYMS>  (3082) 


>  <SPECTRUM TYPE>  (3082) 
MS1

>  <INSTRUMENT TYPE>  (3082) 
EI-B

>  <INSTRUMENT>  (3082) 
HITACHI M-80B

>  <ION MODE>  (3082) 
P

>  <INCHIKEY>  (3082) 
BKATZVAUANSCKN-QWRGUYRKSA-N

>  <FORMULA>  (3082) 
C12H18O2

>  <EXACT MASS>  (3082) 
194.130679816

>  <MW>  (3082) 
194

>  <ID>  (3082) 
JP007158

>  <CONTRIBUTOR>  (3082) 
University of Tokyo Team, {Faculty of Engineering, University of Tokyo

>  <COMMENT>  (3082) 
SMILES=CC(=O)OCC(=C2)C(C1)C(C)(C)C(C2)1
InChI=InChI=1S/C12H18O2/c1-8(13)14-7-9-4-5-10-6-11(9)12(10,2)3/h4,10-11H,5-7H2,1-3H3/t10-,11-/m0/s1
computed SMILES=O=C(OCC1=CCC2CC1C2(C)C)C
accession=JP007158
ion type=[M]+*
date=2016.01.19 (Created 2008.10.21, modified 2011.05.06)
author=SODA AROMATIC CO., LTD.
license=CC BY-NC-SA
exact mass=194.13068
ionization energy=70 eV
computed spectral entropy=2.8716863341729977
computed normalized entropy=0.7683093016369653
SPLASH=splash10-0006-9300000000-10d5cf3a113fc8112ea8
submitter=submitter = University of Tokyo Team (Faculty of Engineering, University of Tokyo)
MoNA Rating=3.75

>  <NUM PEAKS>  (3082) 
42

>  <MASS SPECTRAL PEAKS>  (3082) 
15 1.91
27 5.3
29 3.52
39 9.09
40 1.15
41 15.58
42 1.32
43 54.24
44 1.14
51 2.29
52 1.43
53 6.16
55 4.99
65 4.79
66 1.33
67 4.5
68 1.53
69 2.74
77 10.23
78 6.35
79 14.28
80 1.85
81 2.33
85 1.12
91 99.99
92 34.91
93 13.59
95 1.2
96 1.13
103 1.64
105 9.12
106 4.78
107 2.22
108 15.96
109 2.32
117 2.11
119 38.48
120 4.02
121 1.85
134 16.84
135 2.18
152 3.56

>  <PREDICTED SPECTRUM>  (3082) 
26 42
27 190
28 46
29 161
31 7
37 6
38 36
39 250
40 110
41 344
42 90
43 521
44 108
45 82
50 88
51 154
52 79
53 187
54 52
55 157
56 20
57 26
59 9
60 18
61 35
62 29
63 98
64 48
65 203
66 137
67 193
68 66
69 130
70 34
72 3
73 22
74 24
75 71
76 35
77 320
78 153
79 288
80 84
81 109
82 3
83 102
89 88
90 73
91 999
92 552
93 286
94 82
95 132
96 64
97 15
102 12
103 108
104 80
105 247
106 142
107 171
108 181
109 182
110 98
111 16
115 49
117 102
118 82
119 535
120 66
122 31
123 8
131 12
132 49
133 117
134 534
135 156
136 65
137 57
149 14
150 132
151 106
152 80
153 11

$$$$

     RDKit          2D

 14 14  0  0  1  0  0  0  0  0999 V2000
   -2.2389    2.0451    0.0000 C   0  0  0  0  0  0  0  0  0  0  0  0
   -3.5379   -0.2049    0.0000 C   0  0  0  0  0  0  0  0  0  0  0  0
    2.9573   -2.4549    0.0000 C   0  0  0  0  0  0  0  0  0  0  0  0
    5.5560    0.5453    0.0000 C   0  0  0  0  0  0  0  0  0  0  0  0
    0.3587   -2.4557    0.0000 C   0  0  0  0  0  0  0  0  0  0  0  0
   -0.9403   -1.7057    0.0000 C   0  0  0  0  0  0  0  0  0  0  0  0
    0.3597    0.5459    0.0000 C   0  0  0  0  0  0  0  0  0  0  0  0
   -2.2389    0.5451    0.0000 C   0  0  0  0  0  0  0  0  0  0  0  0
    1.6583   -1.7049    0.0000 C   0  0  0  0  0  0  0  0  0  0  0  0
    4.2568   -0.2045    0.0000 C   0  0  0  0  0  0  0  0  0  0  0  0
   -0.9398   -0.2049    0.0000 C   0  0  0  0  0  0  0  0  0  0  0  0
    1.6587   -0.2041    0.0000 C   0  0  0  0  0  0  0  0  0  0  0  0
    4.2566   -1.7045    0.0000 O   0  0  0  0  0  0  0  0  0  0  0  0
    2.9579    0.5457    0.0000 O   0  0  0  0  0  0  0  0  0  0  0  0
  6  5  1  0
  8  1  2  0
  8  2  1  0
  9  3  1  0
  9  5  2  0
 10  4  1  0
 11  6  1  0
 11  7  1  0
 11  8  1  1
 12  7  1  0
 12  9  1  0
 13 10  2  0
 14 10  1  0
 12 14  1  6
M  END
>  <NAME>  (3083) 
TRANS-L-CARVYL ACETATE

>  <SYNONYMS>  (3083) 


>  <SPECTRUM TYPE>  (3083) 
MS1

>  <INSTRUMENT TYPE>  (3083) 
EI-B

>  <INSTRUMENT>  (3083) 
HITACHI M-80B

>  <ION MODE>  (3083) 
P

>  <INCHIKEY>  (3083) 
YTHRBOFHFYZBRJ-NEPJUHHUSA-N

>  <FORMULA>  (3083) 
C12H18O2

>  <EXACT MASS>  (3083) 
194.130679816

>  <MW>  (3083) 
194

>  <ID>  (3083) 
JP007157

>  <CONTRIBUTOR>  (3083) 
University of Tokyo Team, {Faculty of Engineering, University of Tokyo

>  <COMMENT>  (3083) 
SMILES=CC(=O)OC(C1)C(C)=CCC(C(C)=C)1
InChI=InChI=1S/C12H18O2/c1-8(2)11-6-5-9(3)12(7-11)14-10(4)13/h5,11-12H,1,6-7H2,2-4H3/t11-,12+/m1/s1
computed SMILES=O=C(OC1C(=CCC(C(=C)C)C1)C)C
accession=JP007157
date=2016.01.19 (Created 2008.10.21, modified 2011.05.06)
author=SODA AROMATIC CO., LTD.
license=CC BY-NC-SA
exact mass=194.13068
ionization energy=70 eV
ion type=[M]+*
computed spectral entropy=3.4795705461352644
computed normalized entropy=0.8217957064512327
SPLASH=splash10-000x-9600000000-35a1a4caf167f3c07bf2
submitter=submitter = University of Tokyo Team (Faculty of Engineering, University of Tokyo)
MoNA Rating=3.75

>  <NUM PEAKS>  (3083) 
69

>  <MASS SPECTRAL PEAKS>  (3083) 
15 3.69
27 11.57
29 7.69
39 23.35
40 3.69
41 36.32
42 2.77
43 99.99
44 2.3
45 1.39
50 1.04
51 5.75
52 2.85
53 16.96
54 3.24
55 23.82
56 3.38
61 1.1
63 1.98
65 7.78
66 3.57
67 10.75
68 4.8
69 5.8
71 1.6
77 23.07
78 5.95
79 23.17
80 12.24
81 9.57
82 6.17
83 8.12
84 90.5
85 4.28
89 1.02
91 48.73
92 32.54
93 36.04
94 5.97
95 5.68
96 5.7
97 3.43
103 2.87
104 1.4
105 25.49
106 13.37
107 17.25
108 16.42
109 87.85
110 7.7
111 1.45
115 2.55
117 4.91
118 1.67
119 90.9
120 8.47
121 1.19
123 3.88
124 2.65
126 2.79
133 3.95
134 39.49
135 6.86
137 6.82
150 1.93
151 11.24
152 90.5
153 11.71
194 1.56

>  <PREDICTED SPECTRUM>  (3083) 
16 3
25 7
26 63
27 296
28 149
29 207
31 51
37 9
38 68
39 421
40 197
41 584
42 267
43 999
44 179
45 108
50 109
51 263
52 219
53 380
54 209
55 389
56 172
57 184
58 14
59 61
60 112
61 64
62 53
63 174
64 118
65 356
66 266
67 475
68 264
69 380
70 280
71 207
72 54
74 4
75 32
76 36
77 538
78 344
79 543
80 332
81 460
82 289
83 356
84 273
85 123
86 38
89 84
90 94
91 826
92 572
93 745
94 277
95 295
96 256
97 183
98 109
101 28
102 30
103 185
104 169
105 554
106 461
107 463
108 512
109 660
110 203
111 104
112 45
115 126
116 145
117 353
118 123
119 980
120 332
121 119
122 85
123 150
124 210
125 80
126 79
127 40
128 20
131 72
132 195
133 304
134 678
135 265
136 98
137 197
138 104
149 11
150 82
151 219
152 431
153 123
154 18
194 87
195 21

$$$$

     RDKit          2D

 14 14  0  0  1  0  0  0  0  0999 V2000
   -2.2389    2.0451    0.0000 C   0  0  0  0  0  0  0  0  0  0  0  0
   -3.5379   -0.2049    0.0000 C   0  0  0  0  0  0  0  0  0  0  0  0
    2.9573   -2.4549    0.0000 C   0  0  0  0  0  0  0  0  0  0  0  0
    5.5560    0.5453    0.0000 C   0  0  0  0  0  0  0  0  0  0  0  0
    0.3587   -2.4557    0.0000 C   0  0  0  0  0  0  0  0  0  0  0  0
   -0.9403   -1.7057    0.0000 C   0  0  0  0  0  0  0  0  0  0  0  0
    0.3597    0.5459    0.0000 C   0  0  0  0  0  0  0  0  0  0  0  0
   -2.2389    0.5451    0.0000 C   0  0  0  0  0  0  0  0  0  0  0  0
    1.6583   -1.7049    0.0000 C   0  0  0  0  0  0  0  0  0  0  0  0
    4.2568   -0.2045    0.0000 C   0  0  0  0  0  0  0  0  0  0  0  0
   -0.9398   -0.2049    0.0000 C   0  0  0  0  0  0  0  0  0  0  0  0
    1.6587   -0.2041    0.0000 C   0  0  0  0  0  0  0  0  0  0  0  0
    4.2566   -1.7045    0.0000 O   0  0  0  0  0  0  0  0  0  0  0  0
    2.9579    0.5457    0.0000 O   0  0  0  0  0  0  0  0  0  0  0  0
  6  5  1  0
  8  1  2  0
  8  2  1  0
  9  3  1  0
  9  5  2  0
 10  4  1  0
 11  6  1  0
 11  7  1  0
 11  8  1  1
 12  7  1  0
 12  9  1  0
 13 10  2  0
 14 10  1  0
 12 14  1  1
M  END
>  <NAME>  (3084) 
CIS-L-CARVYL ACETATE

>  <SYNONYMS>  (3084) 


>  <SPECTRUM TYPE>  (3084) 
MS1

>  <INSTRUMENT TYPE>  (3084) 
EI-B

>  <INSTRUMENT>  (3084) 
HITACHI M-80B

>  <ION MODE>  (3084) 
P

>  <INCHIKEY>  (3084) 
YTHRBOFHFYZBRJ-VXGBXAGGSA-N

>  <FORMULA>  (3084) 
C12H18O2

>  <EXACT MASS>  (3084) 
194.130679816

>  <MW>  (3084) 
194

>  <ID>  (3084) 
JP007156

>  <CONTRIBUTOR>  (3084) 
University of Tokyo Team, {Faculty of Engineering, University of Tokyo

>  <COMMENT>  (3084) 
SMILES=CC(=O)OC([H])(C(C)=1)CC([H])(C(C)=C)CC1
InChI=InChI=1S/C12H18O2/c1-8(2)11-6-5-9(3)12(7-11)14-10(4)13/h5,11-12H,1,6-7H2,2-4H3/t11-,12-/m1/s1
computed SMILES=O=C(OC1C(=CCC(C(=C)C)C1)C)C
accession=JP007156
date=2016.01.19 (Created 2008.10.21, modified 2011.05.06)
author=SODA AROMATIC CO., LTD.
license=CC BY-NC-SA
exact mass=194.13068
ionization energy=70 eV
ion type=[M]+*
computed spectral entropy=3.584684421105128
computed normalized entropy=0.8381959969159029
SPLASH=splash10-000x-9500000000-9ea671d266cfa2912429
submitter=submitter = University of Tokyo Team (Faculty of Engineering, University of Tokyo)
MoNA Rating=3.75

>  <NUM PEAKS>  (3084) 
72

>  <MASS SPECTRAL PEAKS>  (3084) 
15 3.56
27 12.49
29 7.73
38 1.01
39 30.01
40 3.78
41 36.04
42 3.26
43 97.82
44 2.55
45 1.13
50 1.81
51 6.09
52 3.89
53 18.76
54 18.14
55 20.79
56 3.62
58 2.95
61 1.76
63 1.72
65 8
66 3.55
67 12.18
68 6.42
69 7.4
71 1.14
72 1.14
77 18.58
78 4.94
79 26.08
80 11.91
81 10.27
82 38.36
83 9.63
84 99.99
85 5.3
89 1.02
91 45.65
92 30.03
93 36.67
94 7.85
95 6.42
96 4.51
97 3.7
103 2.75
104 1.61
105 23.32
106 12.7
107 18.35
108 21.26
109 65.92
110 6.52
111 1.35
115 2.42
117 5.37
118 1.3
119 83.02
120 7.46
121 1.87
122 1.86
123 4.49
124 2.39
126 3.71
133 4.09
134 50.57
135 6.66
137 5.23
150 4.27
151 10.11
152 57.23
153 5.98

>  <PREDICTED SPECTRUM>  (3084) 
16 3
25 7
26 63
27 296
28 149
29 207
31 51
37 9
38 68
39 421
40 197
41 584
42 267
43 999
44 179
45 108
50 109
51 263
52 219
53 380
54 209
55 389
56 172
57 184
58 14
59 61
60 112
61 64
62 53
63 174
64 118
65 356
66 266
67 475
68 264
69 380
70 280
71 207
72 54
74 4
75 32
76 36
77 538
78 344
79 543
80 332
81 460
82 289
83 356
84 273
85 123
86 38
89 84
90 94
91 826
92 572
93 745
94 277
95 295
96 256
97 183
98 109
101 28
102 30
103 185
104 169
105 554
106 461
107 463
108 512
109 660
110 203
111 104
112 45
115 126
116 145
117 353
118 123
119 980
120 332
121 119
122 85
123 150
124 210
125 80
126 79
127 40
128 20
131 72
132 195
133 304
134 678
135 265
136 98
137 197
138 104
149 11
150 82
151 219
152 431
153 123
154 18
194 87
195 21

$$$$

     RDKit          2D

 14 14  0  0  0  0  0  0  0  0999 V2000
    3.8981    0.7504    0.0000 C   0  0  0  0  0  0  0  0  0  0  0  0
    2.5987    3.0002    0.0000 C   0  0  0  0  0  0  0  0  0  0  0  0
   -6.4962   -0.7508    0.0000 C   0  0  0  0  0  0  0  0  0  0  0  0
   -1.3000    0.7500    0.0000 C   0  0  0  0  0  0  0  0  0  0  0  0
    0.0000   -1.5000    0.0000 C   0  0  0  0  0  0  0  0  0  0  0  0
    0.0000    1.5000    0.0000 C   0  0  0  0  0  0  0  0  0  0  0  0
    1.3000   -0.7500    0.0000 C   0  0  0  0  0  0  0  0  0  0  0  0
   -2.5989   -1.5002    0.0000 C   0  0  0  0  0  0  0  0  0  0  0  0
    2.5989    1.5002    0.0000 C   0  0  0  0  0  0  0  0  0  0  0  0
   -5.1970   -1.5006    0.0000 C   0  0  0  0  0  0  0  0  0  0  0  0
   -1.3000   -0.7500    0.0000 C   0  0  0  0  0  0  0  0  0  0  0  0
    1.3000    0.7500    0.0000 C   0  0  0  0  0  0  0  0  0  0  0  0
   -5.1968   -3.0006    0.0000 O   0  0  0  0  0  0  0  0  0  0  0  0
   -3.8981   -0.7504    0.0000 O   0  0  0  0  0  0  0  0  0  0  0  0
  6  4  2  0
  7  5  1  0
  9  1  1  0
  9  2  1  0
 10  3  1  0
 11  4  1  0
 11  5  2  0
 11  8  1  0
 12  6  1  0
 12  7  2  0
 12  9  1  0
 13 10  2  0
 14  8  1  0
 14 10  1  0
M  END
>  <NAME>  (3085) 
CUMINYL ACETATE

>  <SYNONYMS>  (3085) 
P-ISOPROPYLBENZYL ACETATE

>  <SPECTRUM TYPE>  (3085) 
MS1

>  <INSTRUMENT TYPE>  (3085) 
EI-B

>  <INSTRUMENT>  (3085) 
HITACHI M-80B

>  <ION MODE>  (3085) 
P

>  <INCHIKEY>  (3085) 
QBCRVYRADYXNOW-UHFFFAOYSA-N

>  <FORMULA>  (3085) 
C12H16O2

>  <EXACT MASS>  (3085) 
192.115029752

>  <MW>  (3085) 
192

>  <ID>  (3085) 
JP007155

>  <CONTRIBUTOR>  (3085) 
University of Tokyo Team, {Faculty of Engineering, University of Tokyo

>  <COMMENT>  (3085) 
SMILES=CC(=O)OCc(c1)ccc(C(C)C)c1
InChI=InChI=1S/C12H16O2/c1-9(2)12-6-4-11(5-7-12)8-14-10(3)13/h4-7,9H,8H2,1-3H3
computed SMILES=O=C(OCC1=CC=C(C=C1)C(C)C)C
accession=JP007155
date=2016.01.19 (Created 2008.10.21, modified 2011.05.06)
author=SODA AROMATIC CO., LTD.
license=CC BY-NC-SA
exact mass=192.11503
ionization energy=70 eV
ion type=[M]+*
computed spectral entropy=3.230582109538778
computed normalized entropy=0.8025589706793488
SPLASH=splash10-052f-4900000000-b17cacf429d93acca805
submitter=submitter = University of Tokyo Team (Faculty of Engineering, University of Tokyo)
MoNA Rating=3.75

>  <NUM PEAKS>  (3085) 
56

>  <MASS SPECTRAL PEAKS>  (3085) 
15 4.42
27 5.12
29 1.52
39 7.08
41 8.59
42 1.52
43 89.03
44 1.88
50 2.13
51 5.76
52 1.62
53 2.03
57 1.02
58 1.19
63 3.52
64 1.53
65 6
71 3.9
75 1.29
76 1.49
77 14.75
78 4.98
79 16.58
80 1.29
89 4.55
90 2.37
91 34.71
92 3.27
93 3.38
102 2.25
103 6.83
104 4.55
105 20.64
106 2.04
107 99.99
108 6.11
115 18.54
116 5.01
117 71.92
118 16.36
119 6.88
128 1.02
129 1.37
131 10.37
132 19.65
133 33.27
134 4.63
135 11.74
136 1.77
149 17.03
150 40.58
151 4.05
177 50.01
178 4.92
192 56.1
193 6.44

>  <PREDICTED SPECTRUM>  (3085) 
14 29
15 42
16 1
27 83
28 20
29 62
38 58
39 211
40 81
41 224
42 63
43 818
44 66
45 58
50 87
51 225
52 127
53 157
54 1
55 104
56 90
57 110
58 48
62 45
63 203
64 188
65 303
66 80
67 15
74 2
75 59
76 36
77 428
78 237
79 301
80 18
81 81
89 171
90 187
91 827
92 317
93 229
94 47
102 113
103 361
104 167
105 325
106 110
107 263
108 70
115 402
116 223
117 777
118 453
119 198
120 111
121 41
129 27
131 249
132 605
133 623
134 281
135 999
136 243
147 123
149 308
150 981
151 265
152 45
177 218
178 24
192 624
193 231

$$$$

     RDKit          2D

  8  7  0  0  0  0  0  0  0  0999 V2000
    2.2733    2.8125    0.0000 C   0  0  0  0  0  0  0  0  0  0  0  0
   -5.5209    2.8125    0.0000 C   0  0  0  0  0  0  0  0  0  0  0  0
   -2.9228    2.8125    0.0000 C   0  0  0  0  0  0  0  0  0  0  0  0
   -1.6238    3.5625    0.0000 C   0  0  0  0  0  0  0  0  0  0  0  0
    0.9743    3.5625    0.0000 C   0  0  0  0  0  0  0  0  0  0  0  0
    0.9743    5.0625    0.0000 O   0  0  0  0  0  0  0  0  0  0  0  0
   -4.2219    3.5625    0.0000 O   0  0  0  0  0  0  0  0  0  0  0  0
   -0.3248    2.8125    0.0000 O   0  0  0  0  0  0  0  0  0  0  0  0
  4  3  1  0
  5  1  1  0
  6  5  2  0
  7  2  1  0
  7  3  1  0
  8  4  1  0
  8  5  1  0
M  END
>  <NAME>  (3086) 
2-METHOXYETHYL ACETATE

>  <SYNONYMS>  (3086) 


>  <SPECTRUM TYPE>  (3086) 
MS1

>  <INSTRUMENT TYPE>  (3086) 
EI-B

>  <INSTRUMENT>  (3086) 
HITACHI M-80B

>  <ION MODE>  (3086) 
P

>  <INCHIKEY>  (3086) 
XLLIQLLCWZCATF-UHFFFAOYSA-N

>  <FORMULA>  (3086) 
C5H10O3

>  <EXACT MASS>  (3086) 
118.06299417999999

>  <MW>  (3086) 
118

>  <ID>  (3086) 
JP007154

>  <CONTRIBUTOR>  (3086) 
University of Tokyo Team, {Faculty of Engineering, University of Tokyo

>  <COMMENT>  (3086) 
SMILES=COCCOC(C)=O
InChI=InChI=1S/C5H10O3/c1-5(6)8-4-3-7-2/h3-4H2,1-2H3
computed SMILES=O=C(OCCOC)C
author=SODA AROMATIC CO., LTD.
license=CC BY-NC-SA
exact mass=118.06299
accession=JP007154
date=2016.01.19 (Created 2008.10.21, modified 2011.05.06)
ionization energy=70 eV
ion type=[M]+*
computed spectral entropy=1.8242062948847642
computed normalized entropy=0.6311320645523336
SPLASH=splash10-052g-9000000000-469bbb2759202da7d5e6
submitter=submitter = University of Tokyo Team (Faculty of Engineering, University of Tokyo)
MoNA Rating=3.75

>  <NUM PEAKS>  (3086) 
18

>  <MASS SPECTRAL PEAKS>  (3086) 
15 7.63
18 2.58
27 2.56
28 3.68
29 11.37
30 1
31 3.1
42 3.8
43 99.99
44 2.97
45 51.11
46 1.03
58 51.04
59 3.1
61 1.44
73 3.61
75 1.02
88 1.49

>  <PREDICTED SPECTRUM>  (3086) 
14 92
15 271
16 27
17 3
18 34
19 42
25 19
26 128
27 280
28 188
29 406
30 42
31 351
32 87
33 85
38 17
40 44
41 34
42 276
43 999
44 163
45 760
46 82
50 0
51 14
57 4
58 885
59 379
60 141
61 105
62 13
75 6
87 293
88 169

$$$$

     RDKit          2D

 15 14  0  0  0  0  0  0  0  0999 V2000
    2.9228    3.9375    0.0000 C   0  0  0  0  0  0  0  0  0  0  0  0
   -7.4695    3.9375    0.0000 C   0  0  0  0  0  0  0  0  0  0  0  0
   -0.9743    0.1875    0.0000 C   0  0  0  0  0  0  0  0  0  0  0  0
   -0.9743    4.6875    0.0000 C   0  0  0  0  0  0  0  0  0  0  0  0
   -3.5724    4.6875    0.0000 C   0  0  0  0  0  0  0  0  0  0  0  0
    1.6238    4.6875    0.0000 C   0  0  0  0  0  0  0  0  0  0  0  0
   -6.1704    4.6875    0.0000 C   0  0  0  0  0  0  0  0  0  0  0  0
   -0.9743    1.6875    0.0000 C   0  0  0  0  0  0  0  0  0  0  0  0
   -2.2733    3.9375    0.0000 C   0  0  0  0  0  0  0  0  0  0  0  0
    1.6238    6.1875    0.0000 O   0  0  0  0  0  0  0  0  0  0  0  0
   -6.1704    6.1875    0.0000 O   0  0  0  0  0  0  0  0  0  0  0  0
    0.3248    2.4375    0.0000 O   0  0  0  0  0  0  0  0  0  0  0  0
    0.3248    3.9375    0.0000 O   0  0  0  0  0  0  0  0  0  0  0  0
   -4.8714    3.9375    0.0000 O   0  0  0  0  0  0  0  0  0  0  0  0
   -2.2733    2.4375    0.0000 O   0  0  0  0  0  0  0  0  0  0  0  0
  6  1  1  0
  7  2  1  0
  8  3  1  0
  9  4  1  0
  9  5  1  0
 10  6  2  0
 11  7  2  0
 12  8  2  0
 13  4  1  0
 13  6  1  0
 14  5  1  0
 14  7  1  0
 15  8  1  0
 15  9  1  0
M  END
>  <NAME>  (3087) 
TRIACETIN

>  <SYNONYMS>  (3087) 
1,2,3-PROPANETRIOL ACETATE

>  <SPECTRUM TYPE>  (3087) 
MS1

>  <INSTRUMENT TYPE>  (3087) 
EI-B

>  <INSTRUMENT>  (3087) 
HITACHI M-80B

>  <ION MODE>  (3087) 
P

>  <INCHIKEY>  (3087) 
URAYPUMNDPQOKB-UHFFFAOYSA-N

>  <FORMULA>  (3087) 
C9H14O6

>  <EXACT MASS>  (3087) 
218.07903816799998

>  <MW>  (3087) 
218

>  <ID>  (3087) 
JP007153

>  <CONTRIBUTOR>  (3087) 
University of Tokyo Team, {Faculty of Engineering, University of Tokyo

>  <COMMENT>  (3087) 
SMILES=CC(=O)OCC(COC(C)=O)OC(C)=O
InChI=InChI=1S/C9H14O6/c1-6(10)13-4-9(15-8(3)12)5-14-7(2)11/h9H,4-5H2,1-3H3
computed SMILES=O=C(OCC(OC(=O)C)COC(=O)C)C
accession=JP007153
date=2016.01.19 (Created 2008.10.21, modified 2011.05.06)
author=SODA AROMATIC CO., LTD.
license=CC BY-NC-SA
exact mass=218.07904
ionization energy=70 eV
ion type=[M]+*
computed spectral entropy=1.0875394256442583
computed normalized entropy=0.45353916744457634
SPLASH=splash10-0006-9100000000-4831fd0c53a09c852378
submitter=submitter = University of Tokyo Team (Faculty of Engineering, University of Tokyo)
MoNA Rating=3.75

>  <NUM PEAKS>  (3087) 
11

>  <MASS SPECTRAL PEAKS>  (3087) 
15 5.1
42 1.78
43 99.99
44 2.11
61 1
73 1.25
86 1.64
103 8.9
115 1.92
116 3.42
145 6.94

>  <PREDICTED SPECTRUM>  (3087) 
14 15
15 55
26 34
27 76
28 39
29 42
31 56
36 32
37 4
38 58
39 78
40 34
41 36
42 125
43 999
44 306
45 78
49 18
50 28
51 47
52 21
53 33
54 38
56 141
60 58
61 155
67 15
72 86
73 306
74 74
78 10
85 189
86 187
87 83
88 10
98 147
99 101
101 14
102 1
103 310
104 37
115 258
116 169
117 187
127 26
145 576
146 164
158 19
159 168

$$$$

     RDKit          2D

 10  9  0  0  0  0  0  0  0  0999 V2000
   -6.4952    4.5000    0.0000 C   0  0  0  0  0  0  0  0  0  0  0  0
    2.5981    3.7500    0.0000 C   0  0  0  0  0  0  0  0  0  0  0  0
   -2.5981    3.7500    0.0000 C   0  0  0  0  0  0  0  0  0  0  0  0
   -1.2990    4.5000    0.0000 C   0  0  0  0  0  0  0  0  0  0  0  0
   -5.1962    3.7500    0.0000 C   0  0  0  0  0  0  0  0  0  0  0  0
    1.2990    4.5000    0.0000 C   0  0  0  0  0  0  0  0  0  0  0  0
   -5.1962    2.2500    0.0000 O   0  0  0  0  0  0  0  0  0  0  0  0
    1.2990    6.0000    0.0000 O   0  0  0  0  0  0  0  0  0  0  0  0
   -3.8971    4.5000    0.0000 O   0  0  0  0  0  0  0  0  0  0  0  0
    0.0000    3.7500    0.0000 O   0  0  0  0  0  0  0  0  0  0  0  0
  4  3  1  0
  5  1  1  0
  6  2  1  0
  7  5  2  0
  8  6  2  0
  9  3  1  0
  9  5  1  0
 10  4  1  0
 10  6  1  0
M  END
>  <NAME>  (3088) 
ETHYLENEGLYCOL DIACETATE

>  <SYNONYMS>  (3088) 


>  <SPECTRUM TYPE>  (3088) 
MS1

>  <INSTRUMENT TYPE>  (3088) 
EI-B

>  <INSTRUMENT>  (3088) 
HITACHI M-80B

>  <ION MODE>  (3088) 
P

>  <INCHIKEY>  (3088) 
JTXMVXSTHSMVQF-UHFFFAOYSA-N

>  <FORMULA>  (3088) 
C6H10O4

>  <EXACT MASS>  (3088) 
146.0579088

>  <MW>  (3088) 
146

>  <ID>  (3088) 
JP007152

>  <CONTRIBUTOR>  (3088) 
University of Tokyo Team, {Faculty of Engineering, University of Tokyo

>  <COMMENT>  (3088) 
SMILES=CC(=O)OCCOC(C)=O
InChI=InChI=1S/C6H10O4/c1-5(7)9-3-4-10-6(2)8/h3-4H2,1-2H3
computed SMILES=O=C(OCCOC(=O)C)C
accession=JP007152
date=2016.01.19 (Created 2008.10.21, modified 2011.05.06)
author=SODA AROMATIC CO., LTD.
license=CC BY-NC-SA
exact mass=146.05791
ionization energy=70 eV
ion type=[M]+*
computed spectral entropy=1.165668513380855
computed normalized entropy=0.48612152774316403
SPLASH=splash10-0006-9000000000-be43eea8c0d799efc407
submitter=submitter = University of Tokyo Team (Faculty of Engineering, University of Tokyo)
MoNA Rating=3.75

>  <NUM PEAKS>  (3088) 
11

>  <MASS SPECTRAL PEAKS>  (3088) 
15 6.28
28 1.46
29 1.77
42 3.27
43 99.99
44 2.97
73 4.47
74 1.04
86 11.21
103 1.79
116 4.34

>  <PREDICTED SPECTRUM>  (3088) 
14 41
15 112
26 43
27 44
28 55
29 7
30 7
31 60
37 18
38 22
39 66
40 22
42 150
43 999
44 179
45 75
50 29
51 29
52 25
60 0
61 175
62 35
73 263
74 94
86 201
87 668
88 121

$$$$

     RDKit          2D

 13 13  0  0  0  0  0  0  0  0999 V2000
   -6.8197    3.1321    0.0000 C   0  0  0  0  0  0  0  0  0  0  0  0
   -5.5207    3.8821    0.0000 C   0  0  0  0  0  0  0  0  0  0  0  0
   -4.2216    3.1321    0.0000 C   0  0  0  0  0  0  0  0  0  0  0  0
    3.5726    1.6321    0.0000 C   0  0  0  0  0  0  0  0  0  0  0  0
   -2.9226    3.8821    0.0000 C   0  0  0  0  0  0  0  0  0  0  0  0
    3.5731    3.1329    0.0000 C   0  0  0  0  0  0  0  0  0  0  0  0
    2.2731    0.8813    0.0000 C   0  0  0  0  0  0  0  0  0  0  0  0
    2.2740    3.8829    0.0000 C   0  0  0  0  0  0  0  0  0  0  0  0
    0.9740    1.6313    0.0000 C   0  0  0  0  0  0  0  0  0  0  0  0
   -1.6236    3.1321    0.0000 C   0  0  0  0  0  0  0  0  0  0  0  0
    0.9745    3.1321    0.0000 C   0  0  0  0  0  0  0  0  0  0  0  0
   -0.3245    3.8821    0.0000 C   0  0  0  0  0  0  0  0  0  0  0  0
   -0.3245    5.3821    0.0000 O   0  0  0  0  0  0  0  0  0  0  0  0
  2  1  1  0
  3  2  1  0
  5  3  1  0
  6  4  2  0
  7  4  1  0
  8  6  1  0
  9  7  2  0
 10  5  1  0
 11  8  2  0
 11  9  1  0
 12 10  1  0
 12 11  1  0
 13 12  2  0
M  END
>  <NAME>  (3089) 
PENTYL PHENYL KETONE

>  <SYNONYMS>  (3089) 
HEXANOPHENONE

>  <SPECTRUM TYPE>  (3089) 
MS1

>  <INSTRUMENT TYPE>  (3089) 
EI-B

>  <INSTRUMENT>  (3089) 
HITACHI M-80B

>  <ION MODE>  (3089) 
P

>  <INCHIKEY>  (3089) 
MAHPVQDVMLWUAG-UHFFFAOYSA-N

>  <FORMULA>  (3089) 
C12H16O

>  <EXACT MASS>  (3089) 
176.120115132

>  <MW>  (3089) 
176

>  <ID>  (3089) 
JP007150

>  <CONTRIBUTOR>  (3089) 
University of Tokyo Team, {Faculty of Engineering, University of Tokyo

>  <COMMENT>  (3089) 
SMILES=CCCCCC(=O)c(c1)cccc1
cas=942-92-7
InChI=InChI=1S/C12H16O/c1-2-3-5-10-12(13)11-8-6-4-7-9-11/h4,6-9H,2-3,5,10H2,1H3
computed SMILES=O=C(C=1C=CC=CC1)CCCCC
accession=JP007150
date=2016.01.19 (Created 2008.10.21, modified 2011.05.06)
author=SODA AROMATIC CO., LTD.
license=CC BY-NC-SA
exact mass=176.12012
ionization energy=70 eV
ion type=[M]+*
computed spectral entropy=2.0764027824488176
computed normalized entropy=0.693120276728025
SPLASH=splash10-0adi-5900000000-3544c4df248702359c39
submitter=submitter = University of Tokyo Team (Faculty of Engineering, University of Tokyo)
MoNA Rating=3.75

>  <NUM PEAKS>  (3089) 
20

>  <MASS SPECTRAL PEAKS>  (3089) 
27 7.56
29 5.34
39 3.92
41 4.13
42 1.08
43 3.01
50 3.07
51 14.55
52 1.12
55 2.93
76 1.84
77 50.49
78 7.53
91 1.75
105 99.99
106 7.69
120 54.17
121 4.09
133 4.01
176 5.18

>  <PREDICTED SPECTRUM>  (3089) 
26 31
27 132
28 7
29 123
37 4
38 33
39 150
40 63
41 262
42 70
43 160
44 7
49 51
50 178
51 381
52 118
53 119
54 20
55 230
56 36
57 93
62 32
63 79
64 50
65 104
66 52
69 76
71 20
74 55
75 52
76 109
77 693
78 204
79 114
89 14
91 142
92 41
99 22
104 15
105 999
106 305
107 77
115 68
120 653
121 219
133 423
134 82
147 124
148 92
149 1
176 181
177 59

$$$$

     RDKit          2D

 12 12  0  0  0  0  0  0  0  0999 V2000
   -5.5207    3.1321    0.0000 C   0  0  0  0  0  0  0  0  0  0  0  0
   -4.2216    2.3821    0.0000 C   0  0  0  0  0  0  0  0  0  0  0  0
   -2.9226    3.1321    0.0000 C   0  0  0  0  0  0  0  0  0  0  0  0
    3.5726    0.8821    0.0000 C   0  0  0  0  0  0  0  0  0  0  0  0
    3.5731    2.3829    0.0000 C   0  0  0  0  0  0  0  0  0  0  0  0
    2.2731    0.1313    0.0000 C   0  0  0  0  0  0  0  0  0  0  0  0
    2.2740    3.1329    0.0000 C   0  0  0  0  0  0  0  0  0  0  0  0
    0.9740    0.8813    0.0000 C   0  0  0  0  0  0  0  0  0  0  0  0
   -1.6236    2.3821    0.0000 C   0  0  0  0  0  0  0  0  0  0  0  0
    0.9745    2.3821    0.0000 C   0  0  0  0  0  0  0  0  0  0  0  0
   -0.3245    3.1321    0.0000 C   0  0  0  0  0  0  0  0  0  0  0  0
   -0.3245    4.6321    0.0000 O   0  0  0  0  0  0  0  0  0  0  0  0
  2  1  1  0
  3  2  1  0
  5  4  2  0
  6  4  1  0
  7  5  1  0
  8  6  2  0
  9  3  1  0
 10  7  2  0
 10  8  1  0
 11  9  1  0
 11 10  1  0
 12 11  2  0
M  END
>  <NAME>  (3090) 
VALEROPHENONE

>  <SYNONYMS>  (3090) 


>  <SPECTRUM TYPE>  (3090) 
MS1

>  <INSTRUMENT TYPE>  (3090) 
EI-B

>  <INSTRUMENT>  (3090) 
HITACHI M-80B

>  <ION MODE>  (3090) 
P

>  <INCHIKEY>  (3090) 
XKGLSKVNOSHTAD-UHFFFAOYSA-N

>  <FORMULA>  (3090) 
C11H14O

>  <EXACT MASS>  (3090) 
162.104465068

>  <MW>  (3090) 
162

>  <ID>  (3090) 
JP007149

>  <CONTRIBUTOR>  (3090) 
University of Tokyo Team, {Faculty of Engineering, University of Tokyo

>  <COMMENT>  (3090) 
SMILES=CCCCC(=O)c(c1)cccc1
cas=1009-14-9
InChI=InChI=1S/C11H14O/c1-2-3-9-11(12)10-7-5-4-6-8-10/h4-8H,2-3,9H2,1H3
computed SMILES=O=C(C=1C=CC=CC1)CCCC
accession=JP007149
date=2016.01.19 (Created 2008.10.21, modified 2011.05.06)
author=SODA AROMATIC CO., LTD.
license=CC BY-NC-SA
exact mass=162.10447
ionization energy=70 eV
ion type=[M]+*
computed spectral entropy=2.0589673853730224
computed normalized entropy=0.6873001982017451
SPLASH=splash10-0a6r-6900000000-19cf24e12d8e892de5bf
submitter=submitter = University of Tokyo Team (Faculty of Engineering, University of Tokyo)
MoNA Rating=3.75

>  <NUM PEAKS>  (3090) 
20

>  <MASS SPECTRAL PEAKS>  (3090) 
27 7.17
29 6.3
39 3.84
41 3.38
50 4.66
51 18.19
52 1.3
55 2.21
57 1.1
74 1.09
76 1.98
77 52.11
78 7.5
91 1.48
105 99.99
106 7.7
120 43
121 3.08
133 2.21
162 5.45

>  <PREDICTED SPECTRUM>  (3090) 
26 14
27 107
28 16
29 109
37 16
38 62
39 174
40 59
41 198
42 124
43 137
44 8
49 25
50 208
51 427
52 150
53 94
55 87
57 135
62 39
63 114
64 68
65 141
66 29
74 85
75 82
76 106
77 678
78 342
79 167
85 28
90 29
91 162
92 128
102 49
103 20
104 40
105 999
106 342
107 28
115 38
119 52
120 779
121 221
122 47
133 215
134 126
135 35
162 152

$$$$

     RDKit          2D

 12 12  0  0  0  0  0  0  0  0999 V2000
   -4.8712    2.0071    0.0000 C   0  0  0  0  0  0  0  0  0  0  0  0
    2.9231    0.5071    0.0000 C   0  0  0  0  0  0  0  0  0  0  0  0
    2.9236    2.0079    0.0000 C   0  0  0  0  0  0  0  0  0  0  0  0
    1.6236   -0.2437    0.0000 C   0  0  0  0  0  0  0  0  0  0  0  0
    1.6245    2.7579    0.0000 C   0  0  0  0  0  0  0  0  0  0  0  0
    0.3245    0.5063    0.0000 C   0  0  0  0  0  0  0  0  0  0  0  0
   -2.2731    2.0071    0.0000 C   0  0  0  0  0  0  0  0  0  0  0  0
   -3.5721    2.7571    0.0000 C   0  0  0  0  0  0  0  0  0  0  0  0
    0.3250    2.0071    0.0000 C   0  0  0  0  0  0  0  0  0  0  0  0
   -0.9740    2.7571    0.0000 C   0  0  0  0  0  0  0  0  0  0  0  0
   -3.5721    4.2571    0.0000 O   0  0  0  0  0  0  0  0  0  0  0  0
   -0.9740    4.2571    0.0000 O   0  0  0  0  0  0  0  0  0  0  0  0
  3  2  2  0
  4  2  1  0
  5  3  1  0
  6  4  2  0
  8  1  1  0
  8  7  1  0
  9  5  2  0
  9  6  1  0
 10  7  1  0
 10  9  1  0
 11  8  2  0
 12 10  2  0
M  END
>  <NAME>  (3091) 
BENZOYLACETONE

>  <SYNONYMS>  (3091) 
1-PHENYL-1,3-BUTANEDIONE

>  <SPECTRUM TYPE>  (3091) 
MS1

>  <INSTRUMENT TYPE>  (3091) 
EI-B

>  <INSTRUMENT>  (3091) 
HITACHI M-80B

>  <ION MODE>  (3091) 
P

>  <INCHIKEY>  (3091) 
CVBUKMMMRLOKQR-UHFFFAOYSA-N

>  <FORMULA>  (3091) 
C10H10O2

>  <EXACT MASS>  (3091) 
162.06807956

>  <MW>  (3091) 
162

>  <ID>  (3091) 
JP007148

>  <CONTRIBUTOR>  (3091) 
University of Tokyo Team, {Faculty of Engineering, University of Tokyo

>  <COMMENT>  (3091) 
SMILES=CC(=O)CC(=O)c(c1)cccc1
cas=93-91-4
InChI=InChI=1S/C10H10O2/c1-8(11)7-10(12)9-5-3-2-4-6-9/h2-6H,7H2,1H3
computed SMILES=O=C(C=1C=CC=CC1)CC(=O)C
accession=JP007148
date=2016.01.19 (Created 2008.10.21, modified 2011.05.06)
author=SODA AROMATIC CO., LTD.
license=CC BY-NC-SA
exact mass=162.06808
ionization energy=70 eV
ion type=[M]+*
computed spectral entropy=3.000150344961246
computed normalized entropy=0.7630425723844904
SPLASH=splash10-0cfu-9500000000-4c8eabc1396875b174a8
submitter=submitter = University of Tokyo Team (Faculty of Engineering, University of Tokyo)
MoNA Rating=3.75

>  <NUM PEAKS>  (3091) 
51

>  <MASS SPECTRAL PEAKS>  (3091) 
14 1.32
15 4.89
18 2.27
26 1.29
27 6.79
29 3.47
31 2.45
38 2.07
39 10.62
41 3.75
42 4.05
43 53.93
44 1.21
50 12.96
51 46.92
52 3.83
53 1.85
55 3.43
62 2.46
63 5.83
64 1.54
65 7.2
66 1.67
67 2.15
69 79.7
70 2.48
74 5.49
75 4.13
76 5.43
77 78.38
78 13.91
79 2.51
85 15.53
86 1.6
89 3.49
90 1.74
91 7.95
92 1.22
102 1.97
103 3.21
105 99.99
106 5.77
115 1.53
120 5.93
145 1.43
147 49.66
148 4.06
160 1.04
161 32.07
162 59.71
163 5.43

>  <PREDICTED SPECTRUM>  (3091) 
14 27
15 90
16 1
17 5
18 4
25 1
26 67
27 98
28 68
29 37
31 32
37 51
38 100
39 254
40 86
41 181
42 148
43 721
44 101
45 69
47 7
49 59
50 300
51 529
52 181
53 166
55 7
57 6
61 1
62 112
63 222
64 120
65 244
66 175
67 31
68 3
69 480
74 113
75 121
76 170
77 789
78 314
79 232
80 28
81 42
83 31
84 51
85 258
86 61
87 23
89 167
90 71
91 308
92 93
93 26
101 12
102 135
103 84
104 56
105 813
106 193
115 168
116 106
117 45
118 110
119 190
120 137
121 37
129 73
130 15
143 55
144 98
145 219
146 84
147 999
148 388
149 82
160 108
161 560
162 805
163 299
164 82

$$$$

     RDKit          2D

 11 11  0  0  0  0  0  0  0  0999 V2000
   -2.5989   -1.5002    0.0000 C   0  0  0  0  0  0  0  0  0  0  0  0
    2.5989   -1.5002    0.0000 C   0  0  0  0  0  0  0  0  0  0  0  0
    2.5987    3.0002    0.0000 C   0  0  0  0  0  0  0  0  0  0  0  0
   -1.3000    0.7500    0.0000 C   0  0  0  0  0  0  0  0  0  0  0  0
    0.0000    1.5000    0.0000 C   0  0  0  0  0  0  0  0  0  0  0  0
   -0.0000   -1.5000    0.0000 C   0  0  0  0  0  0  0  0  0  0  0  0
   -1.3000   -0.7500    0.0000 C   0  0  0  0  0  0  0  0  0  0  0  0
    1.3000   -0.7500    0.0000 C   0  0  0  0  0  0  0  0  0  0  0  0
    2.5989    1.5002    0.0000 C   0  0  0  0  0  0  0  0  0  0  0  0
    1.3000    0.7500    0.0000 C   0  0  0  0  0  0  0  0  0  0  0  0
    3.8981    0.7504    0.0000 O   0  0  0  0  0  0  0  0  0  0  0  0
  5  4  2  0
  7  1  1  0
  7  4  1  0
  7  6  2  0
  8  2  1  0
  8  6  1  0
  9  3  1  0
 10  5  1  0
 10  8  2  0
 10  9  1  0
 11  9  2  0
M  END
>  <NAME>  (3092) 
2,4-DIMETHYLACETOPHENONE

>  <SYNONYMS>  (3092) 


>  <SPECTRUM TYPE>  (3092) 
MS1

>  <INSTRUMENT TYPE>  (3092) 
EI-B

>  <INSTRUMENT>  (3092) 
HITACHI M-80B

>  <ION MODE>  (3092) 
P

>  <INCHIKEY>  (3092) 
HSDSKVWQTONQBJ-UHFFFAOYSA-N

>  <FORMULA>  (3092) 
C10H12O

>  <EXACT MASS>  (3092) 
148.088815004

>  <MW>  (3092) 
148

>  <ID>  (3092) 
JP007147

>  <CONTRIBUTOR>  (3092) 
University of Tokyo Team, {Faculty of Engineering, University of Tokyo

>  <COMMENT>  (3092) 
SMILES=Cc(c1)cc(C)c(c1)C(C)=O
InChI=InChI=1S/C10H12O/c1-7-4-5-10(9(3)11)8(2)6-7/h4-6H,1-3H3
computed SMILES=O=C(C1=CC=C(C=C1C)C)C
accession=JP007147
date=2016.01.19 (Created 2008.10.21, modified 2011.05.06)
author=SODA AROMATIC CO., LTD.
license=CC BY-NC-SA
exact mass=148.08882
ionization energy=70 eV
ion type=[M]+*
computed spectral entropy=2.624585081768603
computed normalized entropy=0.7572951763717437
SPLASH=splash10-001i-4900000000-23b7ac8b5ecc4ad91bf0
submitter=submitter = University of Tokyo Team (Faculty of Engineering, University of Tokyo)
MoNA Rating=3.75

>  <NUM PEAKS>  (3092) 
32

>  <MASS SPECTRAL PEAKS>  (3092) 
15 2.2
27 6.43
38 1.24
39 10.63
41 1.76
43 14.45
50 3.19
51 10.59
52 2.47
53 3.35
62 1.89
63 7.61
64 1.46
65 5.07
74 1.36
75 1.31
76 1.22
77 21.93
78 7.89
79 14.46
89 1.95
91 3.47
102 1.81
103 10.77
104 3.44
105 55.14
106 5.04
115 1.69
133 99.99
134 10.32
148 40.19
149 4.54

>  <PREDICTED SPECTRUM>  (3092) 
14 39
15 100
16 13
17 10
18 26
26 55
27 138
28 59
29 47
34 4
37 60
38 102
39 266
40 112
41 173
42 9
43 591
44 102
45 28
49 23
50 164
51 311
52 146
53 189
54 38
55 14
58 31
59 24
60 4
61 98
62 134
63 221
64 109
65 231
66 121
67 77
72 57
73 55
74 101
75 160
76 36
77 425
78 220
79 277
80 65
86 83
87 94
89 196
90 70
91 304
92 29
93 38
101 78
102 131
103 280
104 88
105 597
106 172
107 51
115 300
116 82
117 92
118 1
119 16
128 48
129 48
130 66
131 112
133 999
134 314
135 55
147 89
148 524
149 185
150 29

$$$$

     RDKit          2D

 11 11  0  0  0  0  0  0  0  0999 V2000
   -4.8712    2.0071    0.0000 C   0  0  0  0  0  0  0  0  0  0  0  0
   -3.5721    2.7571    0.0000 C   0  0  0  0  0  0  0  0  0  0  0  0
    2.9231    0.5071    0.0000 C   0  0  0  0  0  0  0  0  0  0  0  0
    2.9236    2.0079    0.0000 C   0  0  0  0  0  0  0  0  0  0  0  0
    1.6236   -0.2437    0.0000 C   0  0  0  0  0  0  0  0  0  0  0  0
   -2.2731    2.0071    0.0000 C   0  0  0  0  0  0  0  0  0  0  0  0
    1.6245    2.7579    0.0000 C   0  0  0  0  0  0  0  0  0  0  0  0
    0.3245    0.5063    0.0000 C   0  0  0  0  0  0  0  0  0  0  0  0
    0.3250    2.0071    0.0000 C   0  0  0  0  0  0  0  0  0  0  0  0
   -0.9740    2.7571    0.0000 C   0  0  0  0  0  0  0  0  0  0  0  0
   -0.9740    4.2571    0.0000 O   0  0  0  0  0  0  0  0  0  0  0  0
  2  1  1  0
  4  3  2  0
  5  3  1  0
  6  2  1  0
  7  4  1  0
  8  5  2  0
  9  7  2  0
  9  8  1  0
 10  6  1  0
 10  9  1  0
 11 10  2  0
M  END
>  <NAME>  (3093) 
BUTYROPHENONE

>  <SYNONYMS>  (3093) 


>  <SPECTRUM TYPE>  (3093) 
MS1

>  <INSTRUMENT TYPE>  (3093) 
EI-B

>  <INSTRUMENT>  (3093) 
HITACHI M-80B

>  <ION MODE>  (3093) 
P

>  <INCHIKEY>  (3093) 
FFSAXUULYPJSKH-UHFFFAOYSA-N

>  <FORMULA>  (3093) 
C10H12O

>  <EXACT MASS>  (3093) 
148.088815004

>  <MW>  (3093) 
148

>  <ID>  (3093) 
JP007145

>  <CONTRIBUTOR>  (3093) 
University of Tokyo Team, {Faculty of Engineering, University of Tokyo

>  <COMMENT>  (3093) 
SMILES=CCCC(=O)c(c1)cccc1
cas=495-40-9
InChI=InChI=1S/C10H12O/c1-2-6-10(11)9-7-4-3-5-8-9/h3-5,7-8H,2,6H2,1H3
computed SMILES=O=C(C=1C=CC=CC1)CCC
accession=JP007145
date=2016.01.19 (Created 2008.10.21, modified 2011.05.06)
author=SODA AROMATIC CO., LTD.
license=CC BY-NC-SA
exact mass=148.08882
ionization energy=70 eV
ion type=[M]+*
computed spectral entropy=2.004947204543207
computed normalized entropy=0.6585424300707172
SPLASH=splash10-0a4i-6900000000-fac46dd712294eda9140
submitter=submitter = University of Tokyo Team (Faculty of Engineering, University of Tokyo)
MoNA Rating=3.75

>  <NUM PEAKS>  (3093) 
21

>  <MASS SPECTRAL PEAKS>  (3093) 
27 6.19
39 4.81
41 3.92
43 2.15
50 5.75
51 18.48
52 1.18
55 1.4
65 1.03
74 1.37
75 1
76 1.81
77 48.94
78 4.96
91 1.41
105 99.99
106 7.68
120 8.01
133 1.11
148 16.31
149 1.56

>  <PREDICTED SPECTRUM>  (3093) 
14 2
15 13
25 1
26 50
27 165
28 52
29 119
37 45
38 82
39 251
40 83
41 164
42 82
43 394
44 81
47 8
49 44
50 262
51 494
52 171
53 97
55 30
61 13
62 93
63 163
64 81
65 123
66 71
71 8
74 138
75 145
76 121
77 775
78 299
79 175
89 5
91 166
92 71
102 82
103 81
105 999
106 274
107 32
115 59
119 27
120 113
121 63
133 29
147 6
148 289
149 94

$$$$

     RDKit          2D

 11 11  0  0  0  0  0  0  0  0999 V2000
   -4.8712    2.0071    0.0000 C   0  0  0  0  0  0  0  0  0  0  0  0
    2.9231    0.5071    0.0000 C   0  0  0  0  0  0  0  0  0  0  0  0
    2.9236    2.0079    0.0000 C   0  0  0  0  0  0  0  0  0  0  0  0
    1.6236   -0.2437    0.0000 C   0  0  0  0  0  0  0  0  0  0  0  0
    1.6245    2.7579    0.0000 C   0  0  0  0  0  0  0  0  0  0  0  0
    0.3245    0.5063    0.0000 C   0  0  0  0  0  0  0  0  0  0  0  0
   -2.2731    2.0071    0.0000 C   0  0  0  0  0  0  0  0  0  0  0  0
   -0.9740    2.7571    0.0000 C   0  0  0  0  0  0  0  0  0  0  0  0
   -3.5721    2.7571    0.0000 C   0  0  0  0  0  0  0  0  0  0  0  0
    0.3250    2.0071    0.0000 C   0  0  0  0  0  0  0  0  0  0  0  0
   -3.5721    4.2571    0.0000 O   0  0  0  0  0  0  0  0  0  0  0  0
  3  2  2  0
  4  2  1  0
  5  3  1  0
  6  4  2  0
  8  7  1  0
  9  1  1  0
  9  7  1  0
 10  5  2  0
 10  6  1  0
 10  8  1  0
 11  9  2  0
M  END
>  <NAME>  (3094) 
BENZYLACETONE

>  <SYNONYMS>  (3094) 
4-PHENYL-2-BUTANONE

>  <SPECTRUM TYPE>  (3094) 
MS1

>  <INSTRUMENT TYPE>  (3094) 
EI-B

>  <INSTRUMENT>  (3094) 
HITACHI M-80B

>  <ION MODE>  (3094) 
P

>  <INCHIKEY>  (3094) 
AKGGYBADQZYZPD-UHFFFAOYSA-N

>  <FORMULA>  (3094) 
C10H12O

>  <EXACT MASS>  (3094) 
148.088815004

>  <MW>  (3094) 
148

>  <ID>  (3094) 
JP007144

>  <CONTRIBUTOR>  (3094) 
University of Tokyo Team, {Faculty of Engineering, University of Tokyo

>  <COMMENT>  (3094) 
SMILES=CC(=O)CCc(c1)cccc1
cas=2550-26-7
InChI=InChI=1S/C10H12O/c1-9(11)7-8-10-5-3-2-4-6-10/h2-6H,7-8H2,1H3
computed SMILES=O=C(C)CCC=1C=CC=CC1
accession=JP007144
date=2016.01.19 (Created 2008.10.21, modified 2011.05.06)
author=SODA AROMATIC CO., LTD.
license=CC BY-NC-SA
exact mass=148.08882
ionization energy=70 eV
ion type=[M]+*
computed spectral entropy=2.7738537021970764
computed normalized entropy=0.7681852009108183
SPLASH=splash10-0006-9500000000-71d38ef53ad7e770709b
submitter=submitter = University of Tokyo Team (Faculty of Engineering, University of Tokyo)
MoNA Rating=3.75

>  <NUM PEAKS>  (3094) 
37

>  <MASS SPECTRAL PEAKS>  (3094) 
15 5.21
27 8.51
38 1.41
39 10.83
41 2.04
42 1.95
43 99.99
44 1.83
50 6.91
51 17.75
52 3.27
53 1.75
55 2.87
62 1.43
63 6.56
64 1.21
65 11.58
74 1.74
75 1.46
76 1.49
77 21.32
78 13.65
79 12.29
89 2.36
91 55.57
92 3.96
102 1.44
103 9.9
104 10.48
105 67.47
106 7.49
115 2.82
129 1.61
133 10.69
147 2.14
148 56.16
149 5.91

>  <PREDICTED SPECTRUM>  (3094) 
14 0
15 2
25 0
26 39
27 131
28 33
29 17
38 36
39 198
40 69
41 109
42 38
43 999
44 151
45 68
49 1
50 160
51 278
52 154
53 116
54 29
57 162
58 119
59 57
62 86
63 189
64 80
65 352
66 130
69 37
71 69
72 7
74 50
75 115
76 104
77 352
78 288
79 303
87 19
89 109
90 151
91 990
92 427
102 75
103 191
104 425
105 693
106 273
107 11
115 10
119 21
129 24
130 125
131 145
132 47
133 132
134 32
146 38
147 85
148 552
149 182
150 28

$$$$

     RDKit          2D

 10 10  0  0  0  0  0  0  0  0999 V2000
   -3.5724    2.0075    0.0000 C   0  0  0  0  0  0  0  0  0  0  0  0
   -2.2733    1.2575    0.0000 C   0  0  0  0  0  0  0  0  0  0  0  0
    2.9228   -0.2425    0.0000 C   0  0  0  0  0  0  0  0  0  0  0  0
    2.9233    1.2583    0.0000 C   0  0  0  0  0  0  0  0  0  0  0  0
    1.6233   -0.9933    0.0000 C   0  0  0  0  0  0  0  0  0  0  0  0
    1.6243    2.0083    0.0000 C   0  0  0  0  0  0  0  0  0  0  0  0
    0.3243   -0.2433    0.0000 C   0  0  0  0  0  0  0  0  0  0  0  0
    0.3248    1.2575    0.0000 C   0  0  0  0  0  0  0  0  0  0  0  0
   -0.9743    2.0075    0.0000 C   0  0  0  0  0  0  0  0  0  0  0  0
   -0.9743    3.5075    0.0000 O   0  0  0  0  0  0  0  0  0  0  0  0
  2  1  1  0
  4  3  2  0
  5  3  1  0
  6  4  1  0
  7  5  2  0
  8  6  2  0
  8  7  1  0
  9  2  1  0
  9  8  1  0
 10  9  2  0
M  END
>  <NAME>  (3095) 
PROPIOPHENONE

>  <SYNONYMS>  (3095) 


>  <SPECTRUM TYPE>  (3095) 
MS1

>  <INSTRUMENT TYPE>  (3095) 
EI-B

>  <INSTRUMENT>  (3095) 
HITACHI M-80B

>  <ION MODE>  (3095) 
P

>  <INCHIKEY>  (3095) 
KRIOVPPHQSLHCZ-UHFFFAOYSA-N

>  <FORMULA>  (3095) 
C9H10O

>  <EXACT MASS>  (3095) 
134.07316494

>  <MW>  (3095) 
134

>  <ID>  (3095) 
JP007142

>  <CONTRIBUTOR>  (3095) 
University of Tokyo Team, {Faculty of Engineering, University of Tokyo

>  <COMMENT>  (3095) 
SMILES=CCC(=O)c(c1)cccc1
cas=93-55-0
InChI=InChI=1S/C9H10O/c1-2-9(10)8-6-4-3-5-7-8/h3-7H,2H2,1H3
computed SMILES=O=C(C=1C=CC=CC1)CC
accession=JP007142
date=2016.01.19 (Created 2008.10.21, modified 2011.05.06)
author=SODA AROMATIC CO., LTD.
license=CC BY-NC-SA
exact mass=134.07316
ionization energy=70 eV
ion type=[M]+*
computed spectral entropy=1.8193244988951642
computed normalized entropy=0.6178849389537046
SPLASH=splash10-0a4i-6900000000-d26de44f3cfd2a7ab948
submitter=submitter = University of Tokyo Team (Faculty of Engineering, University of Tokyo)
MoNA Rating=3.75

>  <NUM PEAKS>  (3095) 
19

>  <MASS SPECTRAL PEAKS>  (3095) 
27 4.52
29 2.21
38 1.03
39 1.71
50 5.21
51 18.19
52 1.23
57 1.12
63 1.03
74 1.68
75 1.44
76 2.34
77 46.59
78 3.82
105 99.99
106 7.84
133 1
134 16.72
135 1.67

>  <PREDICTED SPECTRUM>  (3095) 
25 2
26 69
27 120
28 53
29 218
37 21
38 79
39 111
40 49
41 0
49 71
50 281
51 481
52 174
53 109
54 6
55 25
57 272
58 49
62 83
63 129
64 91
65 68
66 28
74 128
75 122
76 139
77 857
78 337
79 37
91 25
92 65
105 999
106 336
107 24
133 127
134 393
135 143

$$$$

     RDKit          2D

 10 10  0  0  0  0  0  0  0  0999 V2000
   -3.8969    2.5696    0.0000 C   0  0  0  0  0  0  0  0  0  0  0  0
    2.5983    0.3196    0.0000 C   0  0  0  0  0  0  0  0  0  0  0  0
    2.5988    1.8204    0.0000 C   0  0  0  0  0  0  0  0  0  0  0  0
    1.2988   -0.4312    0.0000 C   0  0  0  0  0  0  0  0  0  0  0  0
    1.2998    2.5704    0.0000 C   0  0  0  0  0  0  0  0  0  0  0  0
   -0.0002    0.3188    0.0000 C   0  0  0  0  0  0  0  0  0  0  0  0
   -1.2988    2.5696    0.0000 C   0  0  0  0  0  0  0  0  0  0  0  0
   -2.5978    1.8196    0.0000 C   0  0  0  0  0  0  0  0  0  0  0  0
    0.0002    1.8196    0.0000 C   0  0  0  0  0  0  0  0  0  0  0  0
   -2.5978    0.3196    0.0000 O   0  0  0  0  0  0  0  0  0  0  0  0
  3  2  2  0
  4  2  1  0
  5  3  1  0
  6  4  2  0
  8  1  1  0
  8  7  1  0
  9  5  2  0
  9  6  1  0
  9  7  1  0
 10  8  2  0
M  END
>  <NAME>  (3096) 
PHENYLACETONE

>  <SYNONYMS>  (3096) 


>  <SPECTRUM TYPE>  (3096) 
MS1

>  <INSTRUMENT TYPE>  (3096) 
EI-B

>  <INSTRUMENT>  (3096) 
HITACHI M-80B

>  <ION MODE>  (3096) 
P

>  <INCHIKEY>  (3096) 
QCCDLTOVEPVEJK-UHFFFAOYSA-N

>  <FORMULA>  (3096) 
C9H10O

>  <EXACT MASS>  (3096) 
134.07316494

>  <MW>  (3096) 
134

>  <ID>  (3096) 
JP007141

>  <CONTRIBUTOR>  (3096) 
University of Tokyo Team, {Faculty of Engineering, University of Tokyo

>  <COMMENT>  (3096) 
SMILES=CC(=O)Cc(c1)cccc1
cas=103-79-7
InChI=InChI=1S/C9H10O/c1-8(10)7-9-5-3-2-4-6-9/h2-6H,7H2,1H3
computed SMILES=O=C(C)CC=1C=CC=CC1
accession=JP007141
date=2016.01.19 (Created 2008.10.21, modified 2011.05.06)
author=SODA AROMATIC CO., LTD.
license=CC BY-NC-SA
exact mass=134.07316
ionization energy=70 eV
ion type=[M]+*
computed spectral entropy=2.079523229969872
computed normalized entropy=0.6727579000768943
SPLASH=splash10-0006-9000000000-f1e53fad0477c0100995
submitter=submitter = University of Tokyo Team (Faculty of Engineering, University of Tokyo)
MoNA Rating=3.75

>  <NUM PEAKS>  (3096) 
22

>  <MASS SPECTRAL PEAKS>  (3096) 
15 3.06
27 1.57
38 1.64
39 12.2
41 1.82
42 1.08
43 99.99
44 1.69
50 2.54
51 6.4
52 1.54
62 2.05
63 7.11
64 1.59
65 16.73
77 1.24
89 4.62
90 1.68
91 55.11
92 18.17
134 17.65
135 1.44

>  <PREDICTED SPECTRUM>  (3096) 
14 39
15 74
25 15
26 64
27 112
28 36
37 53
38 101
39 295
40 105
41 84
42 28
43 999
44 126
49 8
50 129
51 250
52 126
53 50
62 113
63 261
64 152
65 390
66 184
74 11
77 111
78 78
89 277
90 304
91 976
92 446
93 93
115 83
119 5
134 301
135 100

$$$$

     RDKit          2D

 10 10  0  0  0  0  0  0  0  0999 V2000
   -0.3325    2.8100    0.0000 C   0  0  0  0  0  0  0  0  0  0  0  0
    2.2687   -3.1902    0.0000 C   0  0  0  0  0  0  0  0  0  0  0  0
   -1.6200   -0.9400    0.0000 C   0  0  0  0  0  0  0  0  0  0  0  0
   -1.6200    0.5600    0.0000 C   0  0  0  0  0  0  0  0  0  0  0  0
   -0.3300   -1.6900    0.0000 C   0  0  0  0  0  0  0  0  0  0  0  0
    0.9700    0.5600    0.0000 C   0  0  0  0  0  0  0  0  0  0  0  0
   -0.3300    1.3100    0.0000 C   0  0  0  0  0  0  0  0  0  0  0  0
    2.2689   -1.6902    0.0000 C   0  0  0  0  0  0  0  0  0  0  0  0
    0.9700   -0.9400    0.0000 C   0  0  0  0  0  0  0  0  0  0  0  0
    3.5681   -0.9404    0.0000 O   0  0  0  0  0  0  0  0  0  0  0  0
  4  3  2  0
  5  3  1  0
  7  1  1  0
  7  4  1  0
  7  6  2  0
  8  2  1  0
  9  5  2  0
  9  6  1  0
  9  8  1  0
 10  8  2  0
M  END
>  <NAME>  (3097) 
M-METHYLACETOPHENONE

>  <SYNONYMS>  (3097) 
3-METHYLACETOPHENONE

>  <SPECTRUM TYPE>  (3097) 
MS1

>  <INSTRUMENT TYPE>  (3097) 
EI-B

>  <INSTRUMENT>  (3097) 
HITACHI M-80B

>  <ION MODE>  (3097) 
P

>  <INCHIKEY>  (3097) 
FSPSELPMWGWDRY-UHFFFAOYSA-N

>  <FORMULA>  (3097) 
C9H10O

>  <EXACT MASS>  (3097) 
134.07316494

>  <MW>  (3097) 
134

>  <ID>  (3097) 
JP007139

>  <CONTRIBUTOR>  (3097) 
University of Tokyo Team, {Faculty of Engineering, University of Tokyo

>  <COMMENT>  (3097) 
SMILES=CC(=O)c(c1)cc(C)cc1
cas=585-74-0
InChI=InChI=1S/C9H10O/c1-7-4-3-5-9(6-7)8(2)10/h3-6H,1-2H3
computed SMILES=O=C(C1=CC=CC(=C1)C)C
accession=JP007139
date=2016.01.19 (Created 2008.10.21, modified 2011.05.06)
author=SODA AROMATIC CO., LTD.
license=CC BY-NC-SA
exact mass=134.07316
ionization energy=70 eV
ion type=[M]+*
computed spectral entropy=2.3850602729164754
computed normalized entropy=0.7083013769319032
SPLASH=splash10-014l-9500000000-f84759bf57ca8e059fc2
submitter=submitter = University of Tokyo Team (Faculty of Engineering, University of Tokyo)
MoNA Rating=3.75

>  <NUM PEAKS>  (3097) 
29

>  <MASS SPECTRAL PEAKS>  (3097) 
15 2.69
27 2.13
38 2.3
39 16.58
41 2.69
42 1.31
43 18.52
46 1.17
50 4.72
51 8.46
52 1.52
59 1.02
61 1.1
62 3.57
63 13.17
64 2.68
65 25.32
66 1.17
74 1.41
75 1.12
77 2.48
89 8.84
90 3.36
91 89.49
92 7.43
119 99.99
120 8.59
134 37.1
135 3.03

>  <PREDICTED SPECTRUM>  (3097) 
14 39
15 132
16 13
26 63
27 121
28 69
29 6
37 118
38 170
39 354
40 152
41 174
42 68
43 565
44 108
45 12
49 31
50 259
51 342
52 198
53 120
54 53
58 44
61 144
62 243
63 396
64 248
65 455
66 154
67 38
74 157
75 147
76 143
77 214
78 151
79 107
86 90
87 89
88 45
89 383
90 286
91 854
92 256
100 11
103 21
104 16
105 129
106 0
115 213
116 144
117 19
118 14
119 999
120 260
121 66
133 61
134 655
135 209
136 29

$$$$

     RDKit          2D

 10 10  0  0  0  0  0  0  0  0999 V2000
    2.2806   -2.0598    0.0000 C   0  0  0  0  0  0  0  0  0  0  0  0
   -1.6200    0.1898    0.0000 C   0  0  0  0  0  0  0  0  0  0  0  0
    3.5681    1.6902    0.0000 C   0  0  0  0  0  0  0  0  0  0  0  0
    2.2781    2.4402    0.0000 C   0  0  0  0  0  0  0  0  0  0  0  0
    3.5681    0.1902    0.0000 C   0  0  0  0  0  0  0  0  0  0  0  0
    0.9781    1.6902    0.0000 C   0  0  0  0  0  0  0  0  0  0  0  0
    2.2781   -0.5598    0.0000 C   0  0  0  0  0  0  0  0  0  0  0  0
   -0.3208   -0.5600    0.0000 C   0  0  0  0  0  0  0  0  0  0  0  0
    0.9781    0.1902    0.0000 C   0  0  0  0  0  0  0  0  0  0  0  0
   -0.3206   -2.0600    0.0000 O   0  0  0  0  0  0  0  0  0  0  0  0
  4  3  2  0
  5  3  1  0
  6  4  1  0
  7  1  1  0
  7  5  2  0
  8  2  1  0
  9  6  2  0
  9  7  1  0
  9  8  1  0
 10  8  2  0
M  END
>  <NAME>  (3098) 
O-METHYLACETOPHENONE

>  <SYNONYMS>  (3098) 
2-METHYLACETOPHENONE

>  <SPECTRUM TYPE>  (3098) 
MS1

>  <INSTRUMENT TYPE>  (3098) 
EI-B

>  <INSTRUMENT>  (3098) 
HITACHI M-80B

>  <ION MODE>  (3098) 
P

>  <INCHIKEY>  (3098) 
YXWWHNCQZBVZPV-UHFFFAOYSA-N

>  <FORMULA>  (3098) 
C9H10O

>  <EXACT MASS>  (3098) 
134.07316494

>  <MW>  (3098) 
134

>  <ID>  (3098) 
JP007138

>  <CONTRIBUTOR>  (3098) 
University of Tokyo Team, {Faculty of Engineering, University of Tokyo

>  <COMMENT>  (3098) 
SMILES=CC(=O)c(c1)c(C)ccc1
cas=577-16-2
InChI=InChI=1S/C9H10O/c1-7-5-3-4-6-9(7)8(2)10/h3-6H,1-2H3
computed SMILES=O=C(C=1C=CC=CC1C)C
accession=JP007138
date=2016.01.19 (Created 2008.10.21, modified 2011.05.06)
author=SODA AROMATIC CO., LTD.
license=CC BY-NC-SA
exact mass=134.07316
ionization energy=70 eV
ion type=[M]+*
computed spectral entropy=2.4723289496202043
computed normalized entropy=0.7070852575486145
SPLASH=splash10-014l-9500000000-bee0213182674ae55581
submitter=submitter = University of Tokyo Team (Faculty of Engineering, University of Tokyo)
MoNA Rating=3.75

>  <NUM PEAKS>  (3098) 
33

>  <MASS SPECTRAL PEAKS>  (3098) 
15 3
27 2.6
38 2.35
39 19.01
41 2.6
42 1.19
43 20.75
46 1.58
50 5.96
51 10.25
52 1.81
53 1.09
61 1.29
62 3.74
63 14.07
64 2.91
65 27.66
66 2.1
74 1.62
75 1.4
77 3.99
78 1.03
79 1.13
89 9.4
90 3.45
91 99.28
92 7.76
103 1.19
115 1.31
119 99.99
120 8.51
134 47.25
135 3.73

>  <PREDICTED SPECTRUM>  (3098) 
14 35
15 103
26 47
27 61
28 11
37 63
38 100
39 253
40 55
41 91
43 651
44 37
49 10
50 182
51 268
52 143
53 83
54 23
61 118
62 216
63 365
64 197
65 386
66 143
67 37
74 120
75 102
76 54
77 215
78 145
79 136
86 78
87 45
89 388
90 289
91 734
92 271
93 3
103 100
104 1
105 84
115 201
116 189
119 999
120 315
121 11
132 25
133 164
134 719
135 228

$$$$

     RDKit          2D

 16 17  0  0  1  0  0  0  0  0999 V2000
    3.8987    3.0002    0.0000 C   0  0  0  0  0  0  0  0  0  0  0  0
    5.1981    0.7504    0.0000 C   0  0  0  0  0  0  0  0  0  0  0  0
   -1.3000    3.0000    0.0000 C   0  0  0  0  0  0  0  0  0  0  0  0
    0.0000    2.2500    0.0000 C   0  0  0  0  0  0  0  0  0  0  0  0
    2.6000   -0.7500    0.0000 C   0  0  0  0  0  0  0  0  0  0  0  0
    1.3000   -1.5000    0.0000 C   0  0  0  0  0  0  0  0  0  0  0  0
   -2.6000    0.7500    0.0000 C   0  0  0  0  0  0  0  0  0  0  0  0
   -1.3000   -1.5000    0.0000 C   0  0  0  0  0  0  0  0  0  0  0  0
    1.3000    1.5000    0.0000 C   0  0  0  0  0  0  0  0  0  0  0  0
    3.8989    1.5002    0.0000 C   0  0  0  0  0  0  0  0  0  0  0  0
   -1.3000    1.5000    0.0000 C   0  0  0  0  0  0  0  0  0  0  0  0
    2.6000    0.7500    0.0000 C   0  0  0  0  0  0  0  0  0  0  0  0
    0.0000   -0.7500    0.0000 C   0  0  0  0  0  0  0  0  0  0  0  0
   -2.6000   -0.7500    0.0000 C   0  0  0  0  0  0  0  0  0  0  0  0
    0.0000    0.7500    0.0000 C   0  0  0  0  0  0  0  0  0  0  0  0
   -3.8989   -1.5002    0.0000 O   0  0  0  0  0  0  0  0  0  0  0  0
  6  5  1  0
 10  1  2  0
 10  2  1  0
 11  3  1  1
 11  7  1  0
 12  5  1  0
 12  9  1  0
 12 10  1  6
 13  6  1  0
 13  8  2  0
 14  7  1  0
 14  8  1  0
 15  4  1  1
 15  9  1  0
 15 11  1  0
 15 13  1  0
 16 14  2  0
M  END
>  <NAME>  (3099) 
NOOTKATONE

>  <SYNONYMS>  (3099) 


>  <SPECTRUM TYPE>  (3099) 
MS1

>  <INSTRUMENT TYPE>  (3099) 
EI-B

>  <INSTRUMENT>  (3099) 
HITACHI M-80B

>  <ION MODE>  (3099) 
P

>  <INCHIKEY>  (3099) 
WTOYNNBCKUYIKC-JMSVASOKSA-N

>  <FORMULA>  (3099) 
C15H22O

>  <EXACT MASS>  (3099) 
218.167065324

>  <MW>  (3099) 
218

>  <ID>  (3099) 
JP007136

>  <CONTRIBUTOR>  (3099) 
University of Tokyo Team, {Faculty of Engineering, University of Tokyo

>  <COMMENT>  (3099) 
SMILES=CC(=C)C(C2)CC(C)(C(C)1)C(C2)=CC(=O)C1
cas=4674-50-4
InChI=InChI=1S/C15H22O/c1-10(2)12-5-6-13-8-14(16)7-11(3)15(13,4)9-12/h8,11-12H,1,5-7,9H2,2-4H3/t11-,12-,15+/m1/s1
computed SMILES=O=C1C=C2CCC(C(=C)C)CC2(C)C(C)C1
accession=JP007136
date=2016.01.19 (Created 2008.10.21, modified 2011.05.06)
author=SODA AROMATIC CO., LTD.
license=CC BY-NC-SA
exact mass=218.16707
ionization energy=70 eV
ion type=[M]+*
computed spectral entropy=4.171003662248538
computed normalized entropy=0.9057219372563973
SPLASH=splash10-0006-8900000000-d37f29b95780c19e7388
submitter=submitter = University of Tokyo Team (Faculty of Engineering, University of Tokyo)
MoNA Rating=3.75

>  <NUM PEAKS>  (3099) 
100

>  <MASS SPECTRAL PEAKS>  (3099) 
15 2.04
27 25.22
28 7.41
29 25.99
39 58.77
40 14.23
41 99.99
42 11.39
43 17.31
50 2.35
51 17.16
52 12.62
53 42.7
54 6.75
55 40.06
56 2.17
57 2.24
60 2.16
63 5.38
64 2.92
65 27.59
66 11.8
67 36.84
68 12.01
69 28.42
71 2.68
73 2.16
74 3.27
77 53.11
78 15.28
79 74.73
80 45.13
81 24.45
82 11.6
83 5.76
89 2.38
91 79.17
92 14.25
93 55.49
94 12.14
95 29.28
96 6.32
97 5.27
103 8.04
104 5.49
105 48.89
106 17.63
107 42.28
108 64.27
109 17.75
110 4.3
115 10.04
116 4.5
117 10.71
118 4.79
119 37.31
120 31.39
121 76.11
122 14.5
123 7.39
128 5.22
129 4.03
131 7.98
132 6.75
133 57.18
134 27.8
135 27.27
136 16.78
137 10.32
143 3.99
145 7.68
146 51
147 79.91
148 31.07
149 16.92
150 11.32
157 13.17
158 2.92
159 4.61
160 4.42
161 54.01
162 28.43
163 5.99
171 3.04
172 16.66
173 2.92
174 2.37
175 47.88
176 36.99
177 6.82
185 9.73
189 10.1
190 43.34
191 6.75
200 30.86
201 6.09
203 37.68
204 6.01
218 26.16
219 5.51

>  <PREDICTED SPECTRUM>  (3099) 
26 53
27 273
28 113
29 215
37 4
38 97
39 500
40 261
41 819
42 243
43 425
44 107
45 61
49 0
50 180
51 400
52 290
53 581
54 225
55 656
56 202
57 160
58 70
59 2
62 96
63 270
64 191
65 501
66 305
67 691
68 385
69 618
70 158
71 179
72 33
74 36
75 60
76 78
77 734
78 370
79 824
80 386
81 504
82 285
83 172
84 127
85 136
86 86
87 11
89 176
90 115
91 999
92 483
93 900
94 490
95 564
96 267
97 161
98 74
99 31
101 34
102 103
103 305
104 221
105 858
106 475
107 832
108 556
109 500
110 159
111 93
112 27
114 20
115 316
116 208
117 397
118 221
119 879
120 510
121 573
122 478
123 387
124 282
125 167
126 70
127 73
128 226
129 297
130 157
131 354
132 329
133 697
134 499
135 383
136 384
137 265
138 110
139 83
140 64
141 181
142 204
143 432
144 237
145 435
146 219
147 643
148 445
149 244
150 154
151 48
152 62
153 58
154 4
155 103
156 8
157 409
158 331
159 321
160 271
161 728
162 356
163 167
167 28
170 25
171 134
172 70
173 77
174 169
175 662
176 845
177 317
178 99
183 65
184 11
185 407
186 61
189 141
190 200
191 52
200 275
201 84
202 10
203 326
204 87
216 8
218 532
219 199
220 35

$$$$

     RDKit          2D

 14 14  0  0  0  0  0  0  0  0999 V2000
    2.0789   -2.0602    0.0000 C   0  0  0  0  0  0  0  0  0  0  0  0
    5.9762    0.1908    0.0000 C   0  0  0  0  0  0  0  0  0  0  0  0
    0.4441    2.0892    0.0000 C   0  0  0  0  0  0  0  0  0  0  0  0
   -1.4841    2.0892    0.0000 C   0  0  0  0  0  0  0  0  0  0  0  0
   -1.8200   -1.3100    0.0000 C   0  0  0  0  0  0  0  0  0  0  0  0
   -0.5200   -2.0600    0.0000 C   0  0  0  0  0  0  0  0  0  0  0  0
    3.3781    0.1904    0.0000 C   0  0  0  0  0  0  0  0  0  0  0  0
    2.0789    0.9402    0.0000 C   0  0  0  0  0  0  0  0  0  0  0  0
   -1.8200    0.1900    0.0000 C   0  0  0  0  0  0  0  0  0  0  0  0
    0.7800   -1.3100    0.0000 C   0  0  0  0  0  0  0  0  0  0  0  0
    4.6770    0.9406    0.0000 C   0  0  0  0  0  0  0  0  0  0  0  0
    0.7800    0.1900    0.0000 C   0  0  0  0  0  0  0  0  0  0  0  0
   -0.5200    0.9400    0.0000 C   0  0  0  0  0  0  0  0  0  0  0  0
    4.6768    2.4406    0.0000 O   0  0  0  0  0  0  0  0  0  0  0  0
  6  5  1  0
  7  8  2  0
  9  5  1  0
 10  1  1  0
 10  6  1  0
 11  2  1  0
 11  7  1  0
 12  8  1  0
 12 10  2  0
 13  3  1  0
 13  4  1  0
 13  9  1  0
 13 12  1  0
 14 11  2  0
M  END
>  <NAME>  (3100) 
BETA-IONONE

>  <SYNONYMS>  (3100) 
4-(2,6,6-TRIMETHYL-1-CYCLOHEXEN-1-YL)-3-BUTEN-2-ONE

>  <SPECTRUM TYPE>  (3100) 
MS1

>  <INSTRUMENT TYPE>  (3100) 
EI-B

>  <INSTRUMENT>  (3100) 
HITACHI M-80B

>  <ION MODE>  (3100) 
P

>  <INCHIKEY>  (3100) 
PSQYTAPXSHCGMF-BQYQJAHWSA-N

>  <FORMULA>  (3100) 
C13H20O

>  <EXACT MASS>  (3100) 
192.15141526

>  <MW>  (3100) 
192

>  <ID>  (3100) 
JP007135

>  <CONTRIBUTOR>  (3100) 
University of Tokyo Team, {Faculty of Engineering, University of Tokyo

>  <COMMENT>  (3100) 
SMILES=CC(=O)C=CC(=C(C)1)C(C)(C)CCC1
InChI=InChI=1S/C13H20O/c1-10-6-5-9-13(3,4)12(10)8-7-11(2)14/h7-8H,5-6,9H2,1-4H3/b8-7+
computed SMILES=O=C(C=CC1=C(C)CCCC1(C)C)C
accession=JP007135
date=2016.01.19 (Created 2008.10.21, modified 2011.05.06)
author=SODA AROMATIC CO., LTD.
license=CC BY-NC-SA
exact mass=192.15142
ionization energy=70 eV
ion type=[M]+*
computed spectral entropy=3.198607334242227
computed normalized entropy=0.7911369711508492
SPLASH=splash10-004l-9800000000-3e2f914b8442dedd62d9
submitter=submitter = University of Tokyo Team (Faculty of Engineering, University of Tokyo)
MoNA Rating=3.75

>  <NUM PEAKS>  (3100) 
57

>  <MASS SPECTRAL PEAKS>  (3100) 
15 3.02
27 6.89
29 6.25
39 11.21
41 20.6
42 1.71
43 73.42
44 1.81
51 3.89
52 1.98
53 7.02
55 7.2
63 1.81
64 1
65 5.46
66 1.58
67 3.67
69 4.59
71 2.19
77 10.98
78 2.94
79 8.25
80 1.58
81 4.36
91 16.03
92 2.5
93 10.97
94 1.52
95 7.17
96 1.33
103 1.82
105 7.21
106 1.48
107 6.83
108 1.69
109 4.87
110 1.58
115 2.29
117 2.21
119 5.77
121 7.18
122 5.78
123 3.12
131 1.77
133 6.6
134 1.37
135 14.53
136 3.83
147 1.07
149 6.4
159 4.13
161 1.01
162 1.55
177 99.99
178 11.84
179 1.02
192 5.51

>  <PREDICTED SPECTRUM>  (3100) 
18 2
26 69
27 242
28 119
29 195
31 5
37 23
38 55
39 321
40 144
41 550
42 126
43 906
44 153
45 57
50 112
51 244
52 132
53 327
54 51
55 424
56 132
57 204
58 71
59 59
60 13
61 3
62 50
63 150
64 102
65 273
66 114
67 353
68 65
69 400
70 88
71 128
72 27
73 29
74 45
75 57
76 33
77 368
78 145
79 420
80 89
81 335
82 118
83 112
84 7
85 38
86 17
87 19
88 18
89 37
91 551
92 187
93 491
94 184
95 442
96 127
97 90
98 50
99 11
102 77
103 120
104 72
105 500
106 198
107 568
108 231
109 278
110 120
111 94
112 47
115 195
116 112
117 203
118 72
119 334
120 154
121 452
122 196
123 197
124 98
125 9
126 1
127 33
128 190
129 128
130 55
131 204
132 44
133 251
134 187
135 379
136 172
137 84
143 45
144 65
145 42
147 108
148 115
149 600
150 198
151 77
159 190
160 47
161 49
162 110
163 97
164 57
165 41
174 12
175 78
176 28
177 999
178 343
179 105
190 53
191 85
192 488
193 150

$$$$

     RDKit          2D

 10 10  0  0  0  0  0  0  0  0999 V2000
    2.0490    0.5210    0.0000 C   0  0  0  0  0  0  0  0  0  0  0  0
    2.5981    2.5700    0.0000 C   0  0  0  0  0  0  0  0  0  0  0  0
    0.5490    3.1190    0.0000 C   0  0  0  0  0  0  0  0  0  0  0  0
   -2.5981   -0.4300    0.0000 C   0  0  0  0  0  0  0  0  0  0  0  0
   -1.2986   -1.1808    0.0000 C   0  0  0  0  0  0  0  0  0  0  0  0
   -2.5986    1.0708    0.0000 C   0  0  0  0  0  0  0  0  0  0  0  0
    0.0005   -0.4308    0.0000 C   0  0  0  0  0  0  0  0  0  0  0  0
   -1.2995    1.8208    0.0000 C   0  0  0  0  0  0  0  0  0  0  0  0
    0.0000    1.0700    0.0000 C   0  0  0  0  0  0  0  0  0  0  0  0
    1.2990    1.8200    0.0000 C   0  0  0  0  0  0  0  0  0  0  0  0
  5  4  2  0
  6  4  1  0
  7  5  1  0
  8  6  2  0
  9  7  2  0
  9  8  1  0
 10  1  1  0
 10  2  1  0
 10  3  1  0
 10  9  1  0
M  END
>  <NAME>  (3101) 
TERT-BUTYLBENZENE

>  <SYNONYMS>  (3101) 


>  <SPECTRUM TYPE>  (3101) 
MS1

>  <INSTRUMENT TYPE>  (3101) 
EI-B

>  <INSTRUMENT>  (3101) 
HITACHI M-80B

>  <ION MODE>  (3101) 
P

>  <INCHIKEY>  (3101) 
YTZKOQUCBOVLHL-UHFFFAOYSA-N

>  <FORMULA>  (3101) 
C10H14

>  <EXACT MASS>  (3101) 
134.109550448

>  <MW>  (3101) 
134

>  <ID>  (3101) 
JP007133

>  <CONTRIBUTOR>  (3101) 
University of Tokyo Team, {Faculty of Engineering, University of Tokyo

>  <COMMENT>  (3101) 
SMILES=CC(C)(C)c(c1)cccc1
cas=98-06-6
InChI=InChI=1S/C10H14/c1-10(2,3)9-7-5-4-6-8-9/h4-8H,1-3H3
computed SMILES=C=1C=CC(=CC1)C(C)(C)C
accession=JP007133
date=2016.01.19 (Created 2008.10.21, modified 2011.05.06)
author=SODA AROMATIC CO., LTD.
license=CC BY-NC-SA
exact mass=134.10955
ionization energy=70 eV
ion type=[M]+*
computed spectral entropy=2.5034152029069903
computed normalized entropy=0.7099147082187471
SPLASH=splash10-014l-9800000000-a0bc8ad01060554d93d9
submitter=submitter = University of Tokyo Team (Faculty of Engineering, University of Tokyo)
MoNA Rating=3.75

>  <NUM PEAKS>  (3101) 
34

>  <MASS SPECTRAL PEAKS>  (3101) 
15 1.52
27 3.41
28 1.86
29 2.35
39 10.75
41 19.57
50 3.09
51 10.62
52 2.22
53 1.38
57 1.04
58 2.01
63 2.74
65 4.25
74 1.01
75 1.15
76 1.11
77 13.17
78 4.88
79 9.67
89 1.35
91 61.67
92 4.15
102 1.81
103 5.74
104 1.69
115 3.24
116 1.01
117 2.51
118 1.11
119 99.99
120 9.19
134 24.1
135 2.37

>  <PREDICTED SPECTRUM>  (3101) 
14 20
15 81
16 6
18 5
26 54
27 181
28 77
29 143
32 0
36 3
37 55
38 111
39 319
40 110
41 321
42 97
43 65
44 1
49 14
50 181
51 287
52 148
53 146
54 34
55 98
56 64
57 159
58 80
59 14
61 51
62 91
63 180
64 124
65 255
66 136
67 78
73 32
74 105
75 145
76 107
77 373
78 258
79 230
80 75
81 9
86 44
87 32
88 3
89 146
90 36
91 573
92 182
93 115
94 34
99 4
101 18
102 137
103 275
104 227
105 271
106 98
115 312
116 155
117 241
118 104
119 999
120 305
121 66
128 89
133 30
134 429
135 141

$$$$

     RDKit          2D

 10 10  0  0  0  0  0  0  0  0999 V2000
   -3.5724    2.0075    0.0000 C   0  0  0  0  0  0  0  0  0  0  0  0
   -0.9743    3.5075    0.0000 C   0  0  0  0  0  0  0  0  0  0  0  0
   -2.2733    1.2575    0.0000 C   0  0  0  0  0  0  0  0  0  0  0  0
    2.9228   -0.2425    0.0000 C   0  0  0  0  0  0  0  0  0  0  0  0
    2.9233    1.2583    0.0000 C   0  0  0  0  0  0  0  0  0  0  0  0
    1.6233   -0.9933    0.0000 C   0  0  0  0  0  0  0  0  0  0  0  0
    1.6243    2.0083    0.0000 C   0  0  0  0  0  0  0  0  0  0  0  0
    0.3243   -0.2433    0.0000 C   0  0  0  0  0  0  0  0  0  0  0  0
   -0.9743    2.0075    0.0000 C   0  0  0  0  0  0  0  0  0  0  0  0
    0.3248    1.2575    0.0000 C   0  0  0  0  0  0  0  0  0  0  0  0
  3  1  1  0
  5  4  2  0
  6  4  1  0
  7  5  1  0
  8  6  2  0
  9  2  1  0
  9  3  1  0
 10  7  2  0
 10  8  1  0
 10  9  1  0
M  END
>  <NAME>  (3102) 
SEC-BUTYLBENZENE

>  <SYNONYMS>  (3102) 


>  <SPECTRUM TYPE>  (3102) 
MS1

>  <INSTRUMENT TYPE>  (3102) 
EI-B

>  <INSTRUMENT>  (3102) 
HITACHI M-80B

>  <ION MODE>  (3102) 
P

>  <INCHIKEY>  (3102) 
ZJMWRROPUADPEA-UHFFFAOYSA-N

>  <FORMULA>  (3102) 
C10H14

>  <EXACT MASS>  (3102) 
134.109550448

>  <MW>  (3102) 
134

>  <ID>  (3102) 
JP007132

>  <CONTRIBUTOR>  (3102) 
University of Tokyo Team, {Faculty of Engineering, University of Tokyo

>  <COMMENT>  (3102) 
SMILES=CCC(C)c(c1)cccc1
cas=135-98-8
InChI=InChI=1S/C10H14/c1-3-9(2)10-7-5-4-6-8-10/h4-9H,3H2,1-2H3
computed SMILES=C=1C=CC(=CC1)C(C)CC
accession=JP007132
date=2016.01.19 (Created 2008.10.21, modified 2011.05.06)
author=SODA AROMATIC CO., LTD.
license=CC BY-NC-SA
exact mass=134.10955
ionization energy=70 eV
ion type=[M]+*
computed spectral entropy=2.211893694844768
computed normalized entropy=0.687163412069596
SPLASH=splash10-0a4i-4900000000-284d2852d16640633815
submitter=submitter = University of Tokyo Team (Faculty of Engineering, University of Tokyo)
MoNA Rating=3.75

>  <NUM PEAKS>  (3102) 
25

>  <MASS SPECTRAL PEAKS>  (3102) 
27 5.69
29 2.93
39 5.06
41 2.87
50 1.98
51 7.14
52 1.47
53 1.23
63 2.21
65 2.72
77 12.74
78 4.1
79 9.03
91 15.63
92 1.06
102 1.07
103 6.71
104 3.11
105 99.99
106 8.19
115 1.72
117 1.01
119 1.35
134 17.98
135 1.63

>  <PREDICTED SPECTRUM>  (3102) 
14 15
15 38
17 6
18 14
26 94
27 351
28 138
29 323
31 41
32 52
37 48
38 99
39 368
40 137
41 384
42 38
43 106
44 9
49 9
50 204
51 326
52 171
53 169
54 54
55 70
56 6
57 168
58 31
62 97
63 214
64 96
65 229
66 124
67 43
74 137
75 159
76 142
77 449
78 337
79 344
80 57
86 11
87 8
89 119
90 19
91 585
92 173
101 34
102 169
103 362
104 112
105 999
106 391
107 154
115 251
116 71
117 166
119 108
120 25
128 109
134 432
135 164
136 18

$$$$

     RDKit          2D

 10 10  0  0  0  0  0  0  0  0999 V2000
   -4.8712    2.0071    0.0000 C   0  0  0  0  0  0  0  0  0  0  0  0
   -3.5721    2.7571    0.0000 C   0  0  0  0  0  0  0  0  0  0  0  0
   -2.2731    2.0071    0.0000 C   0  0  0  0  0  0  0  0  0  0  0  0
    2.9231    0.5071    0.0000 C   0  0  0  0  0  0  0  0  0  0  0  0
    2.9236    2.0079    0.0000 C   0  0  0  0  0  0  0  0  0  0  0  0
    1.6236   -0.2437    0.0000 C   0  0  0  0  0  0  0  0  0  0  0  0
   -0.9740    2.7571    0.0000 C   0  0  0  0  0  0  0  0  0  0  0  0
    1.6245    2.7579    0.0000 C   0  0  0  0  0  0  0  0  0  0  0  0
    0.3245    0.5063    0.0000 C   0  0  0  0  0  0  0  0  0  0  0  0
    0.3250    2.0071    0.0000 C   0  0  0  0  0  0  0  0  0  0  0  0
  2  1  1  0
  3  2  1  0
  5  4  2  0
  6  4  1  0
  7  3  1  0
  8  5  1  0
  9  6  2  0
 10  7  1  0
 10  8  2  0
 10  9  1  0
M  END
>  <NAME>  (3103) 
BUTYLBENZENE

>  <SYNONYMS>  (3103) 


>  <SPECTRUM TYPE>  (3103) 
MS1

>  <INSTRUMENT TYPE>  (3103) 
EI-B

>  <INSTRUMENT>  (3103) 
HITACHI M-80B

>  <ION MODE>  (3103) 
P

>  <INCHIKEY>  (3103) 
OCKPCBLVNKHBMX-UHFFFAOYSA-N

>  <FORMULA>  (3103) 
C10H14

>  <EXACT MASS>  (3103) 
134.109550448

>  <MW>  (3103) 
134

>  <ID>  (3103) 
JP007131

>  <CONTRIBUTOR>  (3103) 
University of Tokyo Team, {Faculty of Engineering, University of Tokyo

>  <COMMENT>  (3103) 
SMILES=CCCCc(c1)cccc1
cas=104-51-8
InChI=InChI=1S/C10H14/c1-2-3-7-10-8-5-4-6-9-10/h4-6,8-9H,2-3,7H2,1H3
computed SMILES=C=1C=CC(=CC1)CCCC
accession=JP007131
date=2016.01.19 (Created 2008.10.21, modified 2011.05.06)
author=SODA AROMATIC CO., LTD.
license=CC BY-NC-SA
exact mass=134.10955
ionization energy=70 eV
ion type=[M]+*
computed spectral entropy=2.223182068757787
computed normalized entropy=0.6995419799149167
SPLASH=splash10-0006-9100000000-2abba1d0f83ffb43df97
submitter=submitter = University of Tokyo Team (Faculty of Engineering, University of Tokyo)
MoNA Rating=3.75

>  <NUM PEAKS>  (3103) 
24

>  <MASS SPECTRAL PEAKS>  (3103) 
27 7.35
29 2.56
39 8.31
41 4.48
43 1.73
50 1.93
51 6.92
52 1.43
63 3.27
65 12.25
77 7.4
78 7.07
79 2.8
89 1.82
90 1.06
91 99.99
92 55.71
93 4.08
103 2.51
104 1.95
105 8.79
115 1.33
134 25.21
135 2.34

>  <PREDICTED SPECTRUM>  (3103) 
15 0
25 1
26 56
27 236
28 46
29 206
32 3
37 32
38 73
39 307
40 87
41 398
42 105
43 326
44 108
47 12
50 124
51 219
52 145
53 119
54 22
55 26
56 28
57 98
61 58
62 56
63 148
64 88
65 335
66 133
72 20
74 66
75 54
76 34
77 268
78 249
79 191
80 24
85 11
89 157
90 207
91 999
92 538
93 181
94 9
102 37
103 111
105 240
106 31
115 130
116 50
117 93
118 69
128 4
132 77
134 541
135 185

$$$$

     RDKit          2D

  9  9  0  0  0  0  0  0  0  0999 V2000
   -3.5724    2.0075    0.0000 C   0  0  0  0  0  0  0  0  0  0  0  0
   -2.2733    1.2575    0.0000 C   0  0  0  0  0  0  0  0  0  0  0  0
    2.9228   -0.2425    0.0000 C   0  0  0  0  0  0  0  0  0  0  0  0
    2.9233    1.2583    0.0000 C   0  0  0  0  0  0  0  0  0  0  0  0
    1.6233   -0.9933    0.0000 C   0  0  0  0  0  0  0  0  0  0  0  0
   -0.9743    2.0075    0.0000 C   0  0  0  0  0  0  0  0  0  0  0  0
    1.6243    2.0083    0.0000 C   0  0  0  0  0  0  0  0  0  0  0  0
    0.3243   -0.2433    0.0000 C   0  0  0  0  0  0  0  0  0  0  0  0
    0.3248    1.2575    0.0000 C   0  0  0  0  0  0  0  0  0  0  0  0
  2  1  1  0
  4  3  2  0
  5  3  1  0
  6  2  1  0
  7  4  1  0
  8  5  2  0
  9  6  1  0
  9  7  2  0
  9  8  1  0
M  END
>  <NAME>  (3104) 
PROPYLBENZENE

>  <SYNONYMS>  (3104) 


>  <SPECTRUM TYPE>  (3104) 
MS1

>  <INSTRUMENT TYPE>  (3104) 
EI-B

>  <INSTRUMENT>  (3104) 
HITACHI M-80B

>  <ION MODE>  (3104) 
P

>  <INCHIKEY>  (3104) 
ODLMAHJVESYWTB-UHFFFAOYSA-N

>  <FORMULA>  (3104) 
C9H12

>  <EXACT MASS>  (3104) 
120.093900384

>  <MW>  (3104) 
120

>  <ID>  (3104) 
JP007128

>  <CONTRIBUTOR>  (3104) 
University of Tokyo Team, {Faculty of Engineering, University of Tokyo

>  <COMMENT>  (3104) 
SMILES=CCCc(c1)cccc1
cas=103-65-1
InChI=InChI=1S/C9H12/c1-2-6-9-7-4-3-5-8-9/h3-5,7-8H,2,6H2,1H3
computed SMILES=C=1C=CC(=CC1)CCC
accession=JP007128
date=2016.01.19 (Created 2008.10.21, modified 2011.05.06)
author=SODA AROMATIC CO., LTD.
license=CC BY-NC-SA
exact mass=120.0939
ionization energy=70 eV
ion type=[M]+*
computed spectral entropy=1.8633512684233995
computed normalized entropy=0.6328374544718557
SPLASH=splash10-0006-9100000000-d08eb3639b3ae1a56d8b
submitter=submitter = University of Tokyo Team (Faculty of Engineering, University of Tokyo)
MoNA Rating=3.75

>  <NUM PEAKS>  (3104) 
19

>  <MASS SPECTRAL PEAKS>  (3104) 
27 3.05
29 1.25
39 7.08
41 2.22
50 2.02
51 5.83
52 1.32
63 3.3
65 10.91
77 4.02
78 6.49
79 1.22
89 2.1
91 99.99
92 10.39
103 1.02
105 2.83
120 21.5
121 1.82

>  <PREDICTED SPECTRUM>  (3104) 
26 51
27 214
28 62
29 154
37 21
38 67
39 291
40 79
41 280
42 22
43 68
49 19
50 165
51 273
52 142
53 75
56 5
57 31
58 44
61 3
62 83
63 213
64 113
65 378
66 112
67 3
74 106
75 175
76 113
77 343
78 256
79 174
89 145
90 130
91 999
92 420
93 110
102 99
103 219
104 68
105 115
115 125
118 43
119 15
120 402
121 158

$$$$

     RDKit          2D

  9  9  0  0  0  0  0  0  0  0999 V2000
   -2.9228    0.8825    0.0000 C   0  0  0  0  0  0  0  0  0  0  0  0
   -1.6238    3.1325    0.0000 C   0  0  0  0  0  0  0  0  0  0  0  0
    2.2733   -0.6175    0.0000 C   0  0  0  0  0  0  0  0  0  0  0  0
    2.2738    0.8833    0.0000 C   0  0  0  0  0  0  0  0  0  0  0  0
    0.9738   -1.3683    0.0000 C   0  0  0  0  0  0  0  0  0  0  0  0
    0.9748    1.6333    0.0000 C   0  0  0  0  0  0  0  0  0  0  0  0
   -0.3252   -0.6183    0.0000 C   0  0  0  0  0  0  0  0  0  0  0  0
   -1.6238    1.6325    0.0000 C   0  0  0  0  0  0  0  0  0  0  0  0
   -0.3248    0.8825    0.0000 C   0  0  0  0  0  0  0  0  0  0  0  0
  4  3  2  0
  5  3  1  0
  6  4  1  0
  7  5  2  0
  8  1  1  0
  8  2  1  0
  9  6  2  0
  9  7  1  0
  9  8  1  0
M  END
>  <NAME>  (3105) 
ISOPROPYLBENZENE

>  <SYNONYMS>  (3105) 
CUMENE

>  <SPECTRUM TYPE>  (3105) 
MS1

>  <INSTRUMENT TYPE>  (3105) 
EI-B

>  <INSTRUMENT>  (3105) 
HITACHI M-80B

>  <ION MODE>  (3105) 
P

>  <INCHIKEY>  (3105) 
RWGFKTVRMDUZSP-UHFFFAOYSA-N

>  <FORMULA>  (3105) 
C9H12

>  <EXACT MASS>  (3105) 
120.093900384

>  <MW>  (3105) 
120

>  <ID>  (3105) 
JP007127

>  <CONTRIBUTOR>  (3105) 
University of Tokyo Team, {Faculty of Engineering, University of Tokyo

>  <COMMENT>  (3105) 
SMILES=CC(C)c(c1)cccc1
cas=98-82-8
InChI=InChI=1S/C9H12/c1-8(2)9-6-4-3-5-7-9/h3-8H,1-2H3
computed SMILES=C=1C=CC(=CC1)C(C)C
accession=JP007127
date=2016.01.19 (Created 2008.10.21, modified 2011.05.06)
author=SODA AROMATIC CO., LTD.
license=CC BY-NC-SA
exact mass=120.0939
ionization energy=70 eV
ion type=[M]+*
computed spectral entropy=2.2709578696544415
computed normalized entropy=0.7055127296646889
SPLASH=splash10-0a4i-5900000000-b19bd34b1ebead05ac65
submitter=submitter = University of Tokyo Team (Faculty of Engineering, University of Tokyo)
MoNA Rating=3.75

>  <NUM PEAKS>  (3105) 
25

>  <MASS SPECTRAL PEAKS>  (3105) 
15 1.29
27 4.77
39 8.36
41 3.37
50 3.91
51 12.2
52 2.51
53 1.39
62 1.1
63 2.96
65 2.49
74 1.3
75 1.17
76 1.2
77 14.9
78 7.19
79 12.17
91 6.2
102 1.11
103 7.79
104 2.2
105 99.99
106 8.27
120 23.95
121 1.88

>  <PREDICTED SPECTRUM>  (3105) 
14 12
15 67
16 4
17 2
18 18
25 4
26 76
27 242
28 89
29 77
31 10
32 25
36 21
37 106
38 178
39 423
40 144
41 319
42 132
43 225
44 118
45 36
47 25
49 57
50 275
51 432
52 228
53 207
54 58
55 89
57 12
58 46
59 58
61 72
62 130
63 216
64 148
65 251
66 128
67 120
68 8
69 32
73 26
74 151
75 217
76 141
77 564
78 379
79 443
80 152
85 29
86 38
87 20
89 153
90 82
91 537
92 209
93 33
101 60
102 177
103 469
104 310
105 999
106 363
107 97
115 166
116 62
117 67
118 99
119 169
120 575
121 213
122 69

$$$$

     RDKit          2D

 15 17  0  0  0  0  0  0  0  0999 V2000
    3.8500    0.1922    0.0000 C   0  0  0  0  0  0  0  0  0  0  0  0
   -2.8253    2.8260    0.0000 C   0  0  0  0  0  0  0  0  0  0  0  0
   -0.9357   -2.4316    0.0000 C   0  0  0  0  0  0  0  0  0  0  0  0
    0.8873   -2.8531    0.0000 C   0  0  0  0  0  0  0  0  0  0  0  0
   -3.2400    0.1900    0.0000 C   0  0  0  0  0  0  0  0  0  0  0  0
   -2.3600   -1.0300    0.0000 C   0  0  0  0  0  0  0  0  0  0  0  0
    1.7000    1.5400    0.0000 C   0  0  0  0  0  0  0  0  0  0  0  0
    0.2400    1.8700    0.0000 C   0  0  0  0  0  0  0  0  0  0  0  0
    0.7700    0.3700    0.0000 C   0  0  0  0  0  0  0  0  0  0  0  0
    2.3500    0.1900    0.0000 C   0  0  0  0  0  0  0  0  0  0  0  0
   -2.3600    1.4000    0.0000 C   0  0  0  0  0  0  0  0  0  0  0  0
    1.7000   -1.1700    0.0000 C   0  0  0  0  0  0  0  0  0  0  0  0
   -0.9300   -0.5600    0.0000 C   0  0  0  0  0  0  0  0  0  0  0  0
    0.2400   -1.5000    0.0000 C   0  0  0  0  0  0  0  0  0  0  0  0
   -0.9300    0.9400    0.0000 C   0  0  0  0  0  0  0  0  0  0  0  0
  6  5  1  0
  8  7  1  0
 10  1  1  0
 10  7  2  0
 11  2  1  0
 11  5  1  0
 12  9  1  0
 12 10  1  0
 13  6  1  0
 14  3  1  0
 14  4  1  0
 14 12  1  0
 14 13  1  0
 15  8  1  0
 15  9  1  0
 15 11  1  0
 15 13  1  0
M  END
>  <NAME>  (3106) 
ALPHA-CEDRENE

>  <SYNONYMS>  (3106) 


>  <SPECTRUM TYPE>  (3106) 
MS1

>  <INSTRUMENT TYPE>  (3106) 
EI-B

>  <INSTRUMENT>  (3106) 
HITACHI M-80B

>  <ION MODE>  (3106) 
P

>  <INCHIKEY>  (3106) 
IRAQOCYXUMOFCW-UHFFFAOYSA-N

>  <FORMULA>  (3106) 
C15H24

>  <EXACT MASS>  (3106) 
204.187800768

>  <MW>  (3106) 
204

>  <ID>  (3106) 
JP007125

>  <CONTRIBUTOR>  (3106) 
University of Tokyo Team, {Faculty of Engineering, University of Tokyo

>  <COMMENT>  (3106) 
SMILES=CC(=C3)C(C1)C(C)(C)C(C2)C(C3)(C(C)C2)1
cas=469-61-4
InChI=InChI=1S/C15H24/c1-10-7-8-15-9-12(10)14(3,4)13(15)6-5-11(15)2/h7,11-13H,5-6,8-9H2,1-4H3
computed SMILES=C1=C(C)C2CC3(C1)C(C)CCC3C2(C)C
accession=JP007125
date=2016.01.19 (Created 2008.10.21, modified 2011.05.06)
author=SODA AROMATIC CO., LTD.
license=CC BY-NC-SA
exact mass=204.1878
ionization energy=70 eV
ion type=[M]+*
computed spectral entropy=3.4392077290840186
computed normalized entropy=0.8434521513037857
SPLASH=splash10-014l-9800000000-ad1af0c9dd1f9349ef88
submitter=submitter = University of Tokyo Team (Faculty of Engineering, University of Tokyo)
MoNA Rating=3.75

>  <NUM PEAKS>  (3106) 
59

>  <MASS SPECTRAL PEAKS>  (3106) 
27 5.46
29 5.55
39 7.78
41 26.47
42 3.13
43 5.31
51 2.07
53 7.64
55 14.72
56 11.02
57 3.57
65 4.65
66 1.11
67 5.97
68 2.41
69 18.39
70 5
77 15.08
78 3.25
79 10.17
80 2.56
81 7.91
82 2.26
83 1.26
84 1.09
91 20.02
92 14.06
93 45
94 6.93
95 3.7
103 1.63
105 29.69
106 4.45
107 5.9
108 3.92
109 4.93
115 1.81
117 2.93
118 1.69
119 99.99
120 14.64
121 13.79
122 3.65
123 1.86
128 1.09
131 1.57
133 4.97
134 3.58
135 2.74
136 7.42
146 1.11
147 9.09
148 4.67
149 1.07
161 17.41
162 3.45
189 3.62
204 20.4
205 3.64

>  <PREDICTED SPECTRUM>  (3106) 
26 12
27 214
28 68
29 224
38 33
39 371
40 171
41 705
42 223
43 349
44 64
50 98
51 275
52 181
53 393
54 123
55 477
56 194
57 209
58 20
59 4
62 29
63 137
64 108
65 365
66 183
67 432
68 186
69 502
70 184
71 55
72 13
74 22
75 29
76 45
77 566
78 282
79 553
80 287
81 384
82 206
83 189
84 71
85 21
89 54
91 625
92 385
93 713
94 326
95 263
96 116
97 67
102 44
103 186
104 165
105 733
106 395
107 613
108 212
109 273
110 56
111 84
112 74
113 6
115 252
116 131
117 205
118 133
119 999
120 508
121 466
122 272
123 93
127 8
128 137
129 90
130 101
131 225
132 175
133 603
134 334
135 200
136 96
141 0
143 97
145 67
146 50
147 252
148 309
149 97
157 5
159 24
160 61
161 497
162 205
163 37
171 13
175 109
176 86
187 10
189 275
190 75
204 414
205 155
206 22

$$$$

     RDKit          2D

 10 10  0  0  1  0  0  0  0  0999 V2000
    3.8981    0.7504    0.0000 C   0  0  0  0  0  0  0  0  0  0  0  0
    2.5987    3.0002    0.0000 C   0  0  0  0  0  0  0  0  0  0  0  0
   -2.5989   -1.5002    0.0000 C   0  0  0  0  0  0  0  0  0  0  0  0
   -1.3000    0.7500    0.0000 C   0  0  0  0  0  0  0  0  0  0  0  0
   -0.0000   -1.5000    0.0000 C   0  0  0  0  0  0  0  0  0  0  0  0
    0.0000    1.5000    0.0000 C   0  0  0  0  0  0  0  0  0  0  0  0
    1.3000   -0.7500    0.0000 C   0  0  0  0  0  0  0  0  0  0  0  0
    2.5989    1.5002    0.0000 C   0  0  0  0  0  0  0  0  0  0  0  0
   -1.3000   -0.7500    0.0000 C   0  0  0  0  0  0  0  0  0  0  0  0
    1.3000    0.7500    0.0000 C   0  0  0  0  0  0  0  0  0  0  0  0
  6  4  1  0
  7  5  1  0
  8  1  1  0
  8  2  1  0
  9  3  1  1
  9  4  1  0
  9  5  1  0
 10  6  1  0
 10  7  1  0
 10  8  1  1
M  END
>  <NAME>  (3107) 
CIS-P-MENTHANE

>  <SYNONYMS>  (3107) 


>  <SPECTRUM TYPE>  (3107) 
MS1

>  <INSTRUMENT TYPE>  (3107) 
EI-B

>  <INSTRUMENT>  (3107) 
HITACHI M-80B

>  <ION MODE>  (3107) 
P

>  <INCHIKEY>  (3107) 
CFJYNSNXFXLKNS-AOOOYVTPSA-N

>  <FORMULA>  (3107) 
C10H20

>  <EXACT MASS>  (3107) 
140.15650064

>  <MW>  (3107) 
140

>  <ID>  (3107) 
JP007123

>  <CONTRIBUTOR>  (3107) 
University of Tokyo Team, {Faculty of Engineering, University of Tokyo

>  <COMMENT>  (3107) 
SMILES=CC(C)C([H])(C1)CCC([H])(C)C1
cas=6069-98-3
InChI=InChI=1S/C10H20/c1-8(2)10-6-4-9(3)5-7-10/h8-10H,4-7H2,1-3H3/t9-,10+
computed SMILES=CC(C)C1CCC(C)CC1
accession=JP007123
date=2016.01.19 (Created 2008.10.21, modified 2011.05.06)
author=SODA AROMATIC CO., LTD.
license=CC BY-NC-SA
exact mass=140.1565
ionization energy=70 eV
ion type=[M]+*
computed spectral entropy=2.5416240918320168
computed normalized entropy=0.7547967924880025
SPLASH=splash10-052b-9000000000-4a51127fe497beb23a3a
submitter=submitter = University of Tokyo Team (Faculty of Engineering, University of Tokyo)
MoNA Rating=3.75

>  <NUM PEAKS>  (3107) 
29

>  <MASS SPECTRAL PEAKS>  (3107) 
27 11.1
29 8.31
39 13.17
40 2.04
41 31.69
42 3.98
43 17.82
51 1.09
53 5.5
54 5.67
55 99.99
56 6.99
57 2.64
65 1.21
67 6.61
68 3.8
69 17.72
70 1.98
77 1.55
79 1.59
81 23.29
82 2.16
83 4.73
95 1.46
96 55.31
97 87.85
98 6.48
140 10.96
141 1.14

>  <PREDICTED SPECTRUM>  (3107) 
25 4
26 57
27 339
28 149
29 342
37 27
38 38
39 382
40 154
41 792
42 330
43 455
44 115
50 66
51 159
52 96
53 284
54 217
55 999
56 755
57 472
58 41
65 124
66 99
67 295
68 280
69 987
70 489
71 123
77 205
78 78
79 138
80 85
81 453
82 227
83 493
84 212
85 49
93 32
94 24
95 225
96 435
97 674
98 228
99 37
111 26
112 128
113 8
125 302
126 53
140 358
141 90

$$$$

     RDKit          2D

 10 10  0  0  1  0  0  0  0  0999 V2000
    3.8981    0.7504    0.0000 C   0  0  0  0  0  0  0  0  0  0  0  0
    2.5987    3.0002    0.0000 C   0  0  0  0  0  0  0  0  0  0  0  0
   -2.5989   -1.5002    0.0000 C   0  0  0  0  0  0  0  0  0  0  0  0
   -1.3000    0.7500    0.0000 C   0  0  0  0  0  0  0  0  0  0  0  0
   -0.0000   -1.5000    0.0000 C   0  0  0  0  0  0  0  0  0  0  0  0
    0.0000    1.5000    0.0000 C   0  0  0  0  0  0  0  0  0  0  0  0
    1.3000   -0.7500    0.0000 C   0  0  0  0  0  0  0  0  0  0  0  0
    2.5989    1.5002    0.0000 C   0  0  0  0  0  0  0  0  0  0  0  0
   -1.3000   -0.7500    0.0000 C   0  0  0  0  0  0  0  0  0  0  0  0
    1.3000    0.7500    0.0000 C   0  0  0  0  0  0  0  0  0  0  0  0
  6  4  1  0
  7  5  1  0
  8  1  1  0
  8  2  1  0
  9  3  1  1
  9  4  1  0
  9  5  1  0
 10  6  1  0
 10  7  1  0
 10  8  1  6
M  END
>  <NAME>  (3108) 
TRANS-P-MENTHANE

>  <SYNONYMS>  (3108) 


>  <SPECTRUM TYPE>  (3108) 
MS1

>  <INSTRUMENT TYPE>  (3108) 
EI-B

>  <INSTRUMENT>  (3108) 
HITACHI M-80B

>  <ION MODE>  (3108) 
P

>  <INCHIKEY>  (3108) 
CFJYNSNXFXLKNS-MGCOHNPYSA-N

>  <FORMULA>  (3108) 
C10H20

>  <EXACT MASS>  (3108) 
140.15650064

>  <MW>  (3108) 
140

>  <ID>  (3108) 
JP007122

>  <CONTRIBUTOR>  (3108) 
University of Tokyo Team, {Faculty of Engineering, University of Tokyo

>  <COMMENT>  (3108) 
SMILES=CC(C1)CCC(C1)C(C)C
cas=1678-82-6
InChI=InChI=1S/C10H20/c1-8(2)10-6-4-9(3)5-7-10/h8-10H,4-7H2,1-3H3/t9-,10-
computed SMILES=CC(C)C1CCC(C)CC1
accession=JP007122
date=2016.01.19 (Created 2008.10.21, modified 2011.05.06)
author=SODA AROMATIC CO., LTD.
license=CC BY-NC-SA
exact mass=140.1565
ionization energy=70 eV
ion type=[M]+*
computed spectral entropy=2.571894943684826
computed normalized entropy=0.7637864546326947
SPLASH=splash10-052b-9000000000-74497333e90139ca9b36
submitter=submitter = University of Tokyo Team (Faculty of Engineering, University of Tokyo)
MoNA Rating=3.75

>  <NUM PEAKS>  (3108) 
29

>  <MASS SPECTRAL PEAKS>  (3108) 
27 11.48
29 10.28
39 12.33
40 1.76
41 29.95
42 4.91
43 13.65
51 1.08
53 6.41
54 6.23
55 99.99
56 8.4
57 3.39
65 1.08
67 7.71
68 4.38
69 17.87
70 1.98
77 1.36
79 1.42
81 20.47
82 1.9
83 6.9
95 1.21
96 52.29
97 91.15
98 8.04
140 14.16
141 1.35

>  <PREDICTED SPECTRUM>  (3108) 
25 4
26 57
27 339
28 149
29 342
37 27
38 38
39 382
40 154
41 792
42 330
43 455
44 115
50 66
51 159
52 96
53 284
54 217
55 999
56 755
57 472
58 41
65 124
66 99
67 295
68 280
69 987
70 489
71 123
77 205
78 78
79 138
80 85
81 453
82 227
83 493
84 212
85 49
93 32
94 24
95 225
96 435
97 674
98 228
99 37
111 26
112 128
113 8
125 302
126 53
140 358
141 90

$$$$

     RDKit          2D

 10 10  0  0  0  0  0  0  0  0999 V2000
    3.8981    0.7504    0.0000 C   0  0  0  0  0  0  0  0  0  0  0  0
    2.5987    3.0002    0.0000 C   0  0  0  0  0  0  0  0  0  0  0  0
   -2.5989   -1.5002    0.0000 C   0  0  0  0  0  0  0  0  0  0  0  0
   -1.3000    0.7500    0.0000 C   0  0  0  0  0  0  0  0  0  0  0  0
   -0.0000   -1.5000    0.0000 C   0  0  0  0  0  0  0  0  0  0  0  0
    0.0000    1.5000    0.0000 C   0  0  0  0  0  0  0  0  0  0  0  0
    1.3000   -0.7500    0.0000 C   0  0  0  0  0  0  0  0  0  0  0  0
    2.5989    1.5002    0.0000 C   0  0  0  0  0  0  0  0  0  0  0  0
   -1.3000   -0.7500    0.0000 C   0  0  0  0  0  0  0  0  0  0  0  0
    1.3000    0.7500    0.0000 C   0  0  0  0  0  0  0  0  0  0  0  0
  6  4  1  0
  7  5  1  0
  8  1  1  0
  8  2  1  0
  9  3  1  0
  9  4  2  0
  9  5  1  0
 10  6  1  0
 10  7  1  0
 10  8  2  0
M  END
>  <NAME>  (3109) 
TERPINOLENE

>  <SYNONYMS>  (3109) 


>  <SPECTRUM TYPE>  (3109) 
MS1

>  <INSTRUMENT TYPE>  (3109) 
EI-B

>  <INSTRUMENT>  (3109) 
HITACHI M-80B

>  <ION MODE>  (3109) 
P

>  <INCHIKEY>  (3109) 
MOYAFQVGZZPNRA-UHFFFAOYSA-N

>  <FORMULA>  (3109) 
C10H16

>  <EXACT MASS>  (3109) 
136.125200512

>  <MW>  (3109) 
136

>  <ID>  (3109) 
JP007121

>  <CONTRIBUTOR>  (3109) 
University of Tokyo Team, {Faculty of Engineering, University of Tokyo

>  <COMMENT>  (3109) 
SMILES=CC(C1)=CCC(C1)=C(C)C
cas=586-62-9
InChI=InChI=1S/C10H16/c1-8(2)10-6-4-9(3)5-7-10/h4H,5-7H2,1-3H3
computed SMILES=C1=C(C)CCC(=C(C)C)C1
accession=JP007121
date=2016.01.19 (Created 2008.10.21, modified 2011.05.06)
author=SODA AROMATIC CO., LTD.
license=CC BY-NC-SA
exact mass=136.1252
ionization energy=70 eV
ion type=[M]+*
computed spectral entropy=3.1786327082480104
computed normalized entropy=0.808436844653654
SPLASH=splash10-009f-9400000000-68d00c428f3eca0ec8a8
submitter=submitter = University of Tokyo Team (Faculty of Engineering, University of Tokyo)
MoNA Rating=3.75

>  <NUM PEAKS>  (3109) 
51

>  <MASS SPECTRAL PEAKS>  (3109) 
15 2.03
26 1.09
27 22.56
28 1.85
29 13.91
38 1.7
39 35.27
40 5.17
41 35.88
42 2.62
43 20.44
50 2.98
51 12.62
52 4.43
53 20.97
54 1.86
55 11.37
58 1.5
62 1.16
63 4.37
64 1.42
65 12.05
66 2.86
67 13.89
68 3.3
77 37.1
78 7.97
79 42.23
80 7.31
81 4.01
89 1.58
91 43.78
92 11.19
93 99.99
94 9.18
95 1.28
103 3.2
104 1.2
105 21.28
106 4.87
107 18.47
108 4.29
115 1.88
117 1.39
119 4.24
120 1.69
121 98.76
122 9.01
135 1.25
136 72.56
137 7.57

>  <PREDICTED SPECTRUM>  (3109) 
26 17
27 211
28 35
29 151
37 9
38 62
39 403
40 177
41 583
42 153
43 309
44 52
50 122
51 283
52 153
53 339
54 139
55 236
56 19
58 6
62 42
63 128
64 64
65 284
66 215
67 447
68 223
69 159
70 20
74 30
75 55
76 6
77 532
78 247
79 694
80 315
81 212
82 18
89 10
91 601
92 339
93 999
94 400
95 124
96 29
102 27
103 170
104 49
105 301
106 89
107 430
108 119
109 12
115 91
117 93
118 66
119 107
121 457
122 84
136 718
137 229

$$$$

     RDKit          2D

 10 10  0  0  0  0  0  0  0  0999 V2000
    3.8981    0.7504    0.0000 C   0  0  0  0  0  0  0  0  0  0  0  0
    2.5987    3.0002    0.0000 C   0  0  0  0  0  0  0  0  0  0  0  0
   -2.5989   -1.5002    0.0000 C   0  0  0  0  0  0  0  0  0  0  0  0
   -1.3000    0.7500    0.0000 C   0  0  0  0  0  0  0  0  0  0  0  0
   -0.0000   -1.5000    0.0000 C   0  0  0  0  0  0  0  0  0  0  0  0
    0.0000    1.5000    0.0000 C   0  0  0  0  0  0  0  0  0  0  0  0
    1.3000   -0.7500    0.0000 C   0  0  0  0  0  0  0  0  0  0  0  0
    2.5989    1.5002    0.0000 C   0  0  0  0  0  0  0  0  0  0  0  0
   -1.3000   -0.7500    0.0000 C   0  0  0  0  0  0  0  0  0  0  0  0
    1.3000    0.7500    0.0000 C   0  0  0  0  0  0  0  0  0  0  0  0
  6  4  1  0
  7  5  1  0
  8  1  1  0
  8  2  1  0
  9  3  1  0
  9  4  2  0
  9  5  1  0
 10  6  1  0
 10  7  2  0
 10  8  1  0
M  END
>  <NAME>  (3110) 
GAMMA-TERPINENE

>  <SYNONYMS>  (3110) 
1-ISOPROPYL-4-METHYL-1,4-CYCLOHEXADIENE

>  <SPECTRUM TYPE>  (3110) 
MS1

>  <INSTRUMENT TYPE>  (3110) 
EI-B

>  <INSTRUMENT>  (3110) 
HITACHI M-80B

>  <ION MODE>  (3110) 
P

>  <INCHIKEY>  (3110) 
YKFLAYDHMOASIY-UHFFFAOYSA-N

>  <FORMULA>  (3110) 
C10H16

>  <EXACT MASS>  (3110) 
136.125200512

>  <MW>  (3110) 
136

>  <ID>  (3110) 
JP007120

>  <CONTRIBUTOR>  (3110) 
University of Tokyo Team, {Faculty of Engineering, University of Tokyo

>  <COMMENT>  (3110) 
SMILES=CC(C)C(C1)=C([H])CC(C)=C([H])1
cas=99-85-4
InChI=InChI=1S/C10H16/c1-8(2)10-6-4-9(3)5-7-10/h4,7-8H,5-6H2,1-3H3
computed SMILES=C1=C(C)CC=C(C1)C(C)C
accession=JP007120
date=2016.01.19 (Created 2008.10.21, modified 2011.05.06)
author=SODA AROMATIC CO., LTD.
license=CC BY-NC-SA
exact mass=136.1252
ionization energy=70 eV
ion type=[M]+*
computed spectral entropy=2.9093689997414063
computed normalized entropy=0.7998075844780114
SPLASH=splash10-0006-9200000000-b05d52aa0731550051f6
submitter=submitter = University of Tokyo Team (Faculty of Engineering, University of Tokyo)
MoNA Rating=3.75

>  <NUM PEAKS>  (3110) 
38

>  <MASS SPECTRAL PEAKS>  (3110) 
15 1.23
27 12.02
29 4.03
39 14.02
40 1.46
41 15.47
43 19.48
50 1.48
51 7.28
52 2.33
53 6.95
55 2.68
63 2.67
65 7.42
66 1.18
67 2.28
77 30.65
78 6.05
79 19.05
80 7.56
81 1.45
89 1.26
91 35.42
92 20.74
93 99.99
94 8.67
103 1.9
104 1.12
105 9.47
106 1.88
107 7.11
115 1.24
117 1
119 2.51
121 28.27
122 2.38
136 33.14
137 2.89

>  <PREDICTED SPECTRUM>  (3110) 
14 12
15 46
16 4
17 0
25 5
26 81
27 369
28 130
29 240
37 50
38 110
39 441
40 183
41 519
42 128
43 309
44 63
45 43
46 0
47 8
49 12
50 156
51 356
52 198
53 351
54 115
55 175
59 19
62 80
63 198
64 112
65 307
66 224
67 380
68 159
69 94
74 66
75 158
76 74
77 620
78 333
79 620
80 293
81 161
82 53
87 11
89 91
90 2
91 630
92 336
93 999
94 464
95 209
96 15
102 74
103 159
104 103
105 821
106 281
107 177
108 25
109 4
115 171
116 15
117 29
119 149
120 76
121 440
122 121
134 8
136 432
137 98

$$$$

     RDKit          2D

 10 10  0  0  0  0  0  0  0  0999 V2000
    3.8981    0.7504    0.0000 C   0  0  0  0  0  0  0  0  0  0  0  0
    2.5987    3.0002    0.0000 C   0  0  0  0  0  0  0  0  0  0  0  0
   -2.5989   -1.5002    0.0000 C   0  0  0  0  0  0  0  0  0  0  0  0
   -1.3000    0.7500    0.0000 C   0  0  0  0  0  0  0  0  0  0  0  0
   -0.0000   -1.5000    0.0000 C   0  0  0  0  0  0  0  0  0  0  0  0
    0.0000    1.5000    0.0000 C   0  0  0  0  0  0  0  0  0  0  0  0
    1.3000   -0.7500    0.0000 C   0  0  0  0  0  0  0  0  0  0  0  0
    2.5989    1.5002    0.0000 C   0  0  0  0  0  0  0  0  0  0  0  0
   -1.3000   -0.7500    0.0000 C   0  0  0  0  0  0  0  0  0  0  0  0
    1.3000    0.7500    0.0000 C   0  0  0  0  0  0  0  0  0  0  0  0
  6  4  1  0
  7  5  1  0
  8  1  1  0
  8  2  1  0
  9  3  1  0
  9  4  2  0
  9  5  1  0
 10  6  2  0
 10  7  1  0
 10  8  1  0
M  END
>  <NAME>  (3111) 
ALPHA-TERPINENE

>  <SYNONYMS>  (3111) 
1-ISOPROPYL-4-METHYL-1,3-CYCLOHEXADIENE

>  <SPECTRUM TYPE>  (3111) 
MS1

>  <INSTRUMENT TYPE>  (3111) 
EI-B

>  <INSTRUMENT>  (3111) 
HITACHI M-80B

>  <ION MODE>  (3111) 
P

>  <INCHIKEY>  (3111) 
YHQGMYUVUMAZJR-UHFFFAOYSA-N

>  <FORMULA>  (3111) 
C10H16

>  <EXACT MASS>  (3111) 
136.125200512

>  <MW>  (3111) 
136

>  <ID>  (3111) 
JP007119

>  <CONTRIBUTOR>  (3111) 
University of Tokyo Team, {Faculty of Engineering, University of Tokyo

>  <COMMENT>  (3111) 
SMILES=CC(C)C(C1)=C([H])C([H])=C(C)C1
cas=99-86-5
InChI=InChI=1S/C10H16/c1-8(2)10-6-4-9(3)5-7-10/h4,6,8H,5,7H2,1-3H3
computed SMILES=C=1C=C(CCC1C)C(C)C
accession=JP007119
date=2016.01.19 (Created 2008.10.21, modified 2011.05.06)
author=SODA AROMATIC CO., LTD.
license=CC BY-NC-SA
exact mass=136.1252
ionization energy=70 eV
ion type=[M]+*
computed spectral entropy=2.9865516955284375
computed normalized entropy=0.7990411139923321
SPLASH=splash10-006x-9500000000-e60fb974334faa2cf625
submitter=submitter = University of Tokyo Team (Faculty of Engineering, University of Tokyo)
MoNA Rating=3.75

>  <NUM PEAKS>  (3111) 
42

>  <MASS SPECTRAL PEAKS>  (3111) 
15 1.71
27 13.55
29 7.19
39 17.47
40 1.84
41 18.24
43 14.19
50 2.13
51 8.62
52 2.96
53 8.9
55 5.89
62 1.02
63 3.37
64 1.06
65 9.54
66 1.55
67 3.08
77 32.25
78 7.49
79 26.55
80 6.34
81 2.42
89 1.45
91 37.08
92 11.42
93 85.39
94 8.26
103 3.08
104 1.3
105 17.25
106 3.55
107 11.84
108 3.76
115 1.58
117 1.17
119 3.39
120 1.34
121 99.99
122 9.63
136 48.53
137 5.29

>  <PREDICTED SPECTRUM>  (3111) 
15 21
25 1
26 38
27 255
28 41
29 201
37 22
38 67
39 365
40 141
41 532
42 166
43 308
44 60
45 14
47 31
48 5
49 21
50 143
51 266
52 166
53 288
54 93
55 195
56 7
57 17
58 1
59 6
62 70
63 172
64 107
65 289
66 210
67 292
68 118
69 77
74 78
75 152
76 114
77 493
78 274
79 500
80 252
81 247
82 92
87 2
89 135
90 60
91 564
92 381
93 999
94 425
95 164
96 24
102 71
103 128
104 114
105 403
106 153
107 249
108 82
109 67
115 163
116 19
117 61
119 116
120 82
121 467
122 137
133 21
134 91
135 51
136 679
137 240
138 53

$$$$

     RDKit          2D

 10 11  0  0  0  0  0  0  0  0999 V2000
   -0.4775    2.9800    0.0000 C   0  0  0  0  0  0  0  0  0  0  0  0
    1.3259   -2.1785    0.0000 C   0  0  0  0  0  0  0  0  0  0  0  0
    2.2869   -0.5080    0.0000 C   0  0  0  0  0  0  0  0  0  0  0  0
   -1.7800    0.7300    0.0000 C   0  0  0  0  0  0  0  0  0  0  0  0
   -1.7800   -0.7700    0.0000 C   0  0  0  0  0  0  0  0  0  0  0  0
   -0.4800   -0.0200    0.0000 C   0  0  0  0  0  0  0  0  0  0  0  0
   -0.4800    1.4800    0.0000 C   0  0  0  0  0  0  0  0  0  0  0  0
   -0.4800   -1.5200    0.0000 C   0  0  0  0  0  0  0  0  0  0  0  0
    0.8100    0.7300    0.0000 C   0  0  0  0  0  0  0  0  0  0  0  0
    0.8100   -0.7700    0.0000 C   0  0  0  0  0  0  0  0  0  0  0  0
  5  4  1  0
  7  1  2  0
  7  4  1  0
  8  5  1  0
  8  6  1  0
  9  6  1  0
  9  7  1  0
 10  2  1  0
 10  3  1  0
 10  8  1  0
 10  9  1  0
M  END
>  <NAME>  (3112) 
BETA-PINENE

>  <SYNONYMS>  (3112) 
6,6-DIMETHYL-2-METHYLENEBICYCLO(3.1.1)HEPTANE

>  <SPECTRUM TYPE>  (3112) 
MS1

>  <INSTRUMENT TYPE>  (3112) 
EI-B

>  <INSTRUMENT>  (3112) 
HITACHI M-80B

>  <ION MODE>  (3112) 
P

>  <INCHIKEY>  (3112) 
WTARULDDTDQWMU-UHFFFAOYSA-N

>  <FORMULA>  (3112) 
C10H16

>  <EXACT MASS>  (3112) 
136.125200512

>  <MW>  (3112) 
136

>  <ID>  (3112) 
JP007118

>  <CONTRIBUTOR>  (3112) 
University of Tokyo Team, {Faculty of Engineering, University of Tokyo

>  <COMMENT>  (3112) 
SMILES=C=C(C2)C(C1)C(C)(C)C(C2)1
cas=18172-67-3
InChI=InChI=1S/C10H16/c1-7-4-5-8-6-9(7)10(8,2)3/h8-9H,1,4-6H2,2-3H3
computed SMILES=C=C1CCC2CC1C2(C)C
accession=JP007118
date=2016.01.19 (Created 2008.10.21, modified 2011.05.06)
author=SODA AROMATIC CO., LTD.
license=CC BY-NC-SA
exact mass=136.1252
ionization energy=70 eV
ion type=[M]+*
computed spectral entropy=2.90714075751574
computed normalized entropy=0.8112530748248886
SPLASH=splash10-0006-9000000000-a27a5e806c4c8566e6a9
submitter=submitter = University of Tokyo Team (Faculty of Engineering, University of Tokyo)
MoNA Rating=3.75

>  <NUM PEAKS>  (3112) 
36

>  <MASS SPECTRAL PEAKS>  (3112) 
27 13.98
29 6
39 21.58
40 3.77
41 45.36
42 2.02
43 4.32
50 1.44
51 5.6
52 3.06
53 11.23
54 1.28
55 6.57
63 1.51
65 5.79
66 1.97
67 9.96
68 2.8
69 35.75
70 1.51
77 20.24
78 4.11
79 21.9
80 10.66
81 3.04
82 1.19
91 17.74
92 9.44
93 99.99
94 13.25
95 2.51
105 2.6
107 4.46
108 1.27
121 10.84
136 9.35

>  <PREDICTED SPECTRUM>  (3112) 
26 60
27 300
28 48
29 180
37 58
38 120
39 517
40 227
41 708
42 161
43 349
44 139
45 80
46 8
49 3
50 167
51 345
52 215
53 416
54 209
55 402
56 133
57 83
58 113
59 128
60 9
61 4
62 67
63 157
64 94
65 307
66 226
67 631
68 344
69 408
70 156
71 38
73 18
74 42
75 83
76 10
77 463
78 253
79 634
80 334
81 399
82 200
83 80
84 21
87 51
89 48
90 10
91 525
92 308
93 999
94 411
95 324
96 147
101 22
102 26
103 119
104 87
105 187
106 173
107 412
108 211
109 92
115 39
116 15
117 42
118 83
119 155
120 80
121 739
122 244
123 9
134 33
135 184
136 394
137 106

$$$$

     RDKit          2D

 10 11  0  0  0  0  0  0  0  0999 V2000
   -0.4775    2.9800    0.0000 C   0  0  0  0  0  0  0  0  0  0  0  0
    1.3259   -2.1785    0.0000 C   0  0  0  0  0  0  0  0  0  0  0  0
    2.2869   -0.5080    0.0000 C   0  0  0  0  0  0  0  0  0  0  0  0
   -1.7800    0.7300    0.0000 C   0  0  0  0  0  0  0  0  0  0  0  0
   -1.7800   -0.7700    0.0000 C   0  0  0  0  0  0  0  0  0  0  0  0
   -0.4800   -0.0200    0.0000 C   0  0  0  0  0  0  0  0  0  0  0  0
   -0.4800    1.4800    0.0000 C   0  0  0  0  0  0  0  0  0  0  0  0
   -0.4800   -1.5200    0.0000 C   0  0  0  0  0  0  0  0  0  0  0  0
    0.8100    0.7300    0.0000 C   0  0  0  0  0  0  0  0  0  0  0  0
    0.8100   -0.7700    0.0000 C   0  0  0  0  0  0  0  0  0  0  0  0
  5  4  1  0
  7  1  1  0
  7  4  2  0
  8  5  1  0
  8  6  1  0
  9  6  1  0
  9  7  1  0
 10  2  1  0
 10  3  1  0
 10  8  1  0
 10  9  1  0
M  END
>  <NAME>  (3113) 
ALPHA-PINENE

>  <SYNONYMS>  (3113) 
2,6,6-TRIMETHYLBICYCLO(3.1.1)HEPT-2-ENE

>  <SPECTRUM TYPE>  (3113) 
MS1

>  <INSTRUMENT TYPE>  (3113) 
EI-B

>  <INSTRUMENT>  (3113) 
HITACHI M-80B

>  <ION MODE>  (3113) 
P

>  <INCHIKEY>  (3113) 
GRWFGVWFFZKLTI-UHFFFAOYSA-N

>  <FORMULA>  (3113) 
C10H16

>  <EXACT MASS>  (3113) 
136.125200512

>  <MW>  (3113) 
136

>  <ID>  (3113) 
JP007117

>  <CONTRIBUTOR>  (3113) 
University of Tokyo Team, {Faculty of Engineering, University of Tokyo

>  <COMMENT>  (3113) 
SMILES=CC(=C2)C(C1)C(C)(C)C(C2)1
cas=80-56-8
InChI=InChI=1S/C10H16/c1-7-4-5-8-6-9(7)10(8,2)3/h4,8-9H,5-6H2,1-3H3
computed SMILES=C1=C(C)C2CC(C1)C2(C)C
accession=JP007117
date=2016.01.19 (Created 2008.10.21, modified 2011.05.06)
author=SODA AROMATIC CO., LTD.
license=CC BY-NC-SA
exact mass=136.1252
ionization energy=70 eV
ion type=[M]+*
computed spectral entropy=2.8703358480944945
computed normalized entropy=0.7890770753071035
SPLASH=splash10-0006-9100000000-1005b74eeee7aefc15d2
submitter=submitter = University of Tokyo Team (Faculty of Engineering, University of Tokyo)
MoNA Rating=3.75

>  <NUM PEAKS>  (3113) 
38

>  <MASS SPECTRAL PEAKS>  (3113) 
27 7.54
29 3.48
39 12.38
40 1.19
41 11.25
42 1.67
43 4.69
50 1.45
51 4.3
52 2.19
53 6.99
55 5.02
63 1.78
65 5.24
66 2.06
67 6.2
68 2.99
69 1.09
77 25.02
78 4.73
79 20.1
80 7.87
81 3.14
91 28.46
92 32.94
93 99.99
94 8.64
95 1.91
103 1.65
105 8.73
106 2.49
107 5.75
108 1.38
119 1.81
121 13.71
122 1.24
136 8.9
137 1.27

>  <PREDICTED SPECTRUM>  (3113) 
26 44
27 337
28 41
29 259
30 9
37 18
38 78
39 463
40 164
41 719
42 141
43 279
44 23
50 145
51 315
52 186
53 364
54 88
55 335
56 90
57 44
58 20
62 56
63 173
64 152
65 374
66 241
67 469
68 227
69 432
70 95
74 50
75 103
76 68
77 540
78 293
79 654
80 337
81 328
82 123
89 65
90 63
91 868
92 600
93 999
94 366
95 178
96 63
102 34
103 137
104 73
105 313
106 109
107 341
108 62
109 52
115 21
117 136
118 15
119 366
120 15
121 430
122 144
134 73
135 40
136 284
137 89

$$$$

     RDKit          2D

 10 10  0  0  0  0  0  0  0  0999 V2000
    3.8981    0.7504    0.0000 C   0  0  0  0  0  0  0  0  0  0  0  0
    2.5987    3.0002    0.0000 C   0  0  0  0  0  0  0  0  0  0  0  0
   -2.5989   -1.5002    0.0000 C   0  0  0  0  0  0  0  0  0  0  0  0
   -1.3000    0.7500    0.0000 C   0  0  0  0  0  0  0  0  0  0  0  0
   -0.0000   -1.5000    0.0000 C   0  0  0  0  0  0  0  0  0  0  0  0
    0.0000    1.5000    0.0000 C   0  0  0  0  0  0  0  0  0  0  0  0
    1.3000   -0.7500    0.0000 C   0  0  0  0  0  0  0  0  0  0  0  0
    2.5989    1.5002    0.0000 C   0  0  0  0  0  0  0  0  0  0  0  0
   -1.3000   -0.7500    0.0000 C   0  0  0  0  0  0  0  0  0  0  0  0
    1.3000    0.7500    0.0000 C   0  0  0  0  0  0  0  0  0  0  0  0
  6  4  2  0
  7  5  1  0
  8  1  1  0
  8  2  1  0
  9  3  1  0
  9  4  1  0
  9  5  2  0
 10  6  1  0
 10  7  1  0
 10  8  1  0
M  END
>  <NAME>  (3114) 
ALPHA-PHELLANDRENE

>  <SYNONYMS>  (3114) 
2-METHYL-5-(1-METHYLETHYL)-1,3-CYCLOHEXADIENE

>  <SPECTRUM TYPE>  (3114) 
MS1

>  <INSTRUMENT TYPE>  (3114) 
EI-B

>  <INSTRUMENT>  (3114) 
HITACHI M-80B

>  <ION MODE>  (3114) 
P

>  <INCHIKEY>  (3114) 
OGLDWXZKYODSOB-UHFFFAOYSA-N

>  <FORMULA>  (3114) 
C10H16

>  <EXACT MASS>  (3114) 
136.125200512

>  <MW>  (3114) 
136

>  <ID>  (3114) 
JP007116

>  <CONTRIBUTOR>  (3114) 
University of Tokyo Team, {Faculty of Engineering, University of Tokyo

>  <COMMENT>  (3114) 
SMILES=CC(C)C(C1)C=CC(C)=C1
cas=99-83-2
InChI=InChI=1S/C10H16/c1-8(2)10-6-4-9(3)5-7-10/h4-6,8,10H,7H2,1-3H3
computed SMILES=C1=CC(CC=C1C)C(C)C
accession=JP007116
date=2016.01.19 (Created 2008.10.21, modified 2011.05.06)
author=SODA AROMATIC CO., LTD.
license=CC BY-NC-SA
exact mass=136.1252
ionization energy=70 eV
ion type=[M]+*
computed spectral entropy=2.345475784724679
computed normalized entropy=0.7286630216065313
SPLASH=splash10-0006-9000000000-d9c4d62513c800749790
submitter=submitter = University of Tokyo Team (Faculty of Engineering, University of Tokyo)
MoNA Rating=3.75

>  <NUM PEAKS>  (3114) 
25

>  <MASS SPECTRAL PEAKS>  (3114) 
27 7.88
28 1.14
29 1.73
39 9.84
41 9.22
43 3.82
50 1.24
51 4.03
52 1.76
53 2.94
55 1.09
63 2.02
65 6.21
77 33.21
78 5.42
79 4.3
80 1.57
91 37.85
92 28.21
93 99.99
94 8.6
105 1.96
121 1.48
136 17.89
137 1.62

>  <PREDICTED SPECTRUM>  (3114) 
26 9
27 168
28 8
29 101
38 40
39 255
40 106
41 341
42 77
43 221
44 38
50 66
51 238
52 136
53 244
54 35
55 158
63 97
64 59
65 311
66 208
67 339
68 129
69 57
75 6
76 0
77 437
78 204
79 535
80 310
81 115
89 2
90 9
91 708
92 403
93 999
94 345
95 92
102 38
103 106
104 58
105 172
106 79
107 304
108 138
115 79
117 125
119 30
121 511
122 112
134 40
135 53
136 878
137 269
138 41

$$$$

     RDKit          2D

  6  5  0  0  0  0  0  0  0  0999 V2000
    1.2990    2.2500    0.0000 C   0  0  0  0  0  0  0  0  0  0  0  0
   -1.2990    0.7500    0.0000 C   0  0  0  0  0  0  0  0  0  0  0  0
    0.0000    3.0000    0.0000 C   0  0  0  0  0  0  0  0  0  0  0  0
   -2.5981    3.0000    0.0000 C   0  0  0  0  0  0  0  0  0  0  0  0
   -1.2990    2.2500    0.0000 C   0  0  0  0  0  0  0  0  0  0  0  0
   -3.8971    2.2500    0.0000 O   0  0  0  0  0  0  0  0  0  0  0  0
  3  1  1  0
  5  2  1  0
  5  3  1  0
  5  4  1  0
  6  4  1  0
M  END
>  <NAME>  (3115) 
2-METHYLBUTANOL

>  <SYNONYMS>  (3115) 
2-METHYL-1-BUTANOL

>  <SPECTRUM TYPE>  (3115) 
MS1

>  <INSTRUMENT TYPE>  (3115) 
EI-B

>  <INSTRUMENT>  (3115) 
HITACHI M-80B

>  <ION MODE>  (3115) 
P

>  <INCHIKEY>  (3115) 
QPRQEDXDYOZYLA-UHFFFAOYSA-N

>  <FORMULA>  (3115) 
C5H12O

>  <EXACT MASS>  (3115) 
88.088815004

>  <MW>  (3115) 
88

>  <ID>  (3115) 
JP007115

>  <CONTRIBUTOR>  (3115) 
University of Tokyo Team, {Faculty of Engineering, University of Tokyo

>  <COMMENT>  (3115) 
SMILES=CCC(C)CO
cas=137-32-6
InChI=InChI=1S/C5H12O/c1-3-5(2)4-6/h5-6H,3-4H2,1-2H3
computed SMILES=OCC(C)CC
accession=JP007115
date=2016.01.19 (Created 2008.10.21, modified 2011.05.06)
author=SODA AROMATIC CO., LTD.
license=CC BY-NC-SA
exact mass=88.08882
ionization energy=70 eV
ion type=[M]+*
computed spectral entropy=2.462047390657117
computed normalized entropy=0.7648780271783014
SPLASH=splash10-0a4i-9000000000-69d3eb6fa5d3cbace4d2
submitter=submitter = University of Tokyo Team (Faculty of Engineering, University of Tokyo)
MoNA Rating=3.75

>  <NUM PEAKS>  (3115) 
25

>  <MASS SPECTRAL PEAKS>  (3115) 
15 2.88
26 4.01
27 31.09
28 7.21
29 74.93
30 2.33
31 45.93
33 1.21
38 2.03
39 25.12
40 3.51
41 93.23
43 14.51
45 6.88
50 1.35
51 1.68
53 2.95
55 28.31
56 91.97
57 99.99
58 5.5
59 3.88
69 1.03
70 42.72
71 2.74

>  <PREDICTED SPECTRUM>  (3115) 
14 80
15 137
16 14
17 5
18 33
19 81
25 30
26 218
27 630
28 345
29 716
30 269
31 762
32 104
33 17
37 31
38 113
39 540
40 163
41 863
42 604
43 999
44 75
50 86
51 66
53 112
54 95
55 778
56 516
57 747
58 445
59 401
70 591
71 451

$$$$

     RDKit          2D

  6  5  0  0  0  0  0  0  0  0999 V2000
   -4.5466    3.3750    0.0000 C   0  0  0  0  0  0  0  0  0  0  0  0
   -3.2476    2.6250    0.0000 C   0  0  0  0  0  0  0  0  0  0  0  0
   -1.9486    3.3750    0.0000 C   0  0  0  0  0  0  0  0  0  0  0  0
   -0.6495    2.6250    0.0000 C   0  0  0  0  0  0  0  0  0  0  0  0
    0.6495    3.3750    0.0000 C   0  0  0  0  0  0  0  0  0  0  0  0
    1.9486    2.6250    0.0000 O   0  0  0  0  0  0  0  0  0  0  0  0
  2  1  1  0
  3  2  1  0
  4  3  1  0
  5  4  1  0
  6  5  1  0
M  END
>  <NAME>  (3116) 
PENTYL ALCOHOL

>  <SYNONYMS>  (3116) 
1-PENTANOL

>  <SPECTRUM TYPE>  (3116) 
MS1

>  <INSTRUMENT TYPE>  (3116) 
EI-B

>  <INSTRUMENT>  (3116) 
HITACHI M-80B

>  <ION MODE>  (3116) 
P

>  <INCHIKEY>  (3116) 
AMQJEAYHLZJPGS-UHFFFAOYSA-N

>  <FORMULA>  (3116) 
C5H12O

>  <EXACT MASS>  (3116) 
88.088815004

>  <MW>  (3116) 
88

>  <ID>  (3116) 
JP007114

>  <CONTRIBUTOR>  (3116) 
University of Tokyo Team, {Faculty of Engineering, University of Tokyo

>  <COMMENT>  (3116) 
SMILES=CCCCCO
cas=71-41-0
InChI=InChI=1S/C5H12O/c1-2-3-4-5-6/h6H,2-5H2,1H3
computed SMILES=OCCCCC
accession=JP007114
date=2016.01.19 (Created 2008.10.21, modified 2011.05.06)
author=SODA AROMATIC CO., LTD.
license=CC BY-NC-SA
exact mass=88.08882
ionization energy=70 eV
ion type=[M]+*
computed spectral entropy=2.59286631302086
computed normalized entropy=0.7867095425036289
SPLASH=splash10-0006-9000000000-86ba80dfb4a247abdead
submitter=submitter = University of Tokyo Team (Faculty of Engineering, University of Tokyo)
MoNA Rating=3.75

>  <NUM PEAKS>  (3116) 
27

>  <MASS SPECTRAL PEAKS>  (3116) 
15 2.66
26 3.98
27 31.65
28 10.49
29 49.52
30 1.92
31 56.58
38 1.52
39 19.93
40 3.34
41 63.09
42 99.99
43 25.79
44 3.69
45 5.58
50 1.02
51 1.38
53 2.23
54 1.48
55 71.19
56 15.84
57 22.65
58 2
60 1.12
69 5.73
70 49.92
71 3.6

>  <PREDICTED SPECTRUM>  (3116) 
14 77
15 147
16 37
17 21
18 30
19 45
25 14
26 170
27 527
28 258
29 532
30 215
31 453
32 82
33 16
37 52
38 116
39 524
40 212
41 999
42 759
43 913
44 344
45 345
46 108
47 42
49 39
50 107
51 148
52 57
53 258
54 295
55 886
56 372
57 350
58 247
59 353
60 230
69 146
70 682
71 425
72 149
73 45
88 16

$$$$

     RDKit          2D

  6  5  0  0  0  0  0  0  0  0999 V2000
    1.2990    2.2500    0.0000 C   0  0  0  0  0  0  0  0  0  0  0  0
   -3.8971    2.2500    0.0000 C   0  0  0  0  0  0  0  0  0  0  0  0
    0.0000    3.0000    0.0000 C   0  0  0  0  0  0  0  0  0  0  0  0
   -2.5981    3.0000    0.0000 C   0  0  0  0  0  0  0  0  0  0  0  0
   -1.2990    2.2500    0.0000 C   0  0  0  0  0  0  0  0  0  0  0  0
   -1.2990    0.7500    0.0000 O   0  0  0  0  0  0  0  0  0  0  0  0
  3  1  2  0
  4  2  1  0
  5  3  1  0
  5  4  1  0
  6  5  1  0
M  END
>  <NAME>  (3117) 
CIS-3-PENTENOL

>  <SYNONYMS>  (3117) 


>  <SPECTRUM TYPE>  (3117) 
MS1

>  <INSTRUMENT TYPE>  (3117) 
EI-B

>  <INSTRUMENT>  (3117) 
HITACHI M-80B

>  <ION MODE>  (3117) 
P

>  <INCHIKEY>  (3117) 
VHVMXWZXFBOANQ-UHFFFAOYSA-N

>  <FORMULA>  (3117) 
C5H10O

>  <EXACT MASS>  (3117) 
86.07316494

>  <MW>  (3117) 
86

>  <ID>  (3117) 
JP007113

>  <CONTRIBUTOR>  (3117) 
University of Tokyo Team, {Faculty of Engineering, University of Tokyo

>  <COMMENT>  (3117) 
SMILES=CCC(O)C=C
cas=616-25-1
InChI=InChI=1S/C5H10O/c1-3-5(6)4-2/h3,5-6H,1,4H2,2H3
computed SMILES=OC(C=C)CC
accession=JP007113
date=2016.01.19 (Created 2008.10.21, modified 2011.05.06)
author=SODA AROMATIC CO., LTD.
license=CC BY-NC-SA
exact mass=86.07316
ionization energy=70 eV
ion type=[M]+*
computed spectral entropy=2.83968186630416
computed normalized entropy=0.8121480695763635
SPLASH=splash10-0ar0-9000000000-060003f5465df3a7a553
submitter=submitter = University of Tokyo Team (Faculty of Engineering, University of Tokyo)
MoNA Rating=3.75

>  <NUM PEAKS>  (3117) 
33

>  <MASS SPECTRAL PEAKS>  (3117) 
15 3.33
26 8.51
27 56.36
28 10.83
29 67.44
30 2.09
31 64.09
37 2.38
38 6.48
39 56.9
40 9.87
41 69.97
42 8.02
43 12.31
44 14.56
45 2.9
49 1.28
50 6.37
51 8.25
52 2.71
53 26.74
54 15.14
55 99.99
56 90.97
57 20.34
58 3.4
65 1.33
66 1.39
67 22.83
68 88.43
69 5.69
71 1.56
86 6

>  <PREDICTED SPECTRUM>  (3117) 
14 72
15 106
16 27
17 21
18 79
19 12
25 75
26 308
27 748
28 415
29 763
30 463
31 473
32 65
37 131
38 230
39 697
40 292
41 596
42 272
43 287
44 122
45 154
49 51
50 219
51 359
52 198
53 417
54 46
55 395
56 389
57 999
58 533
59 241
63 68
65 25
67 163
68 109
71 227
85 121
86 191
87 24

$$$$

     RDKit          2D

  5  4  0  0  0  0  0  0  0  0999 V2000
   -0.0000   -0.0000    0.0000 C   0  0  0  0  0  0  0  0  0  0  0  0
   -1.2990    3.7500    0.0000 C   0  0  0  0  0  0  0  0  0  0  0  0
    0.0000    1.5000    0.0000 C   0  0  0  0  0  0  0  0  0  0  0  0
   -1.2990    2.2500    0.0000 C   0  0  0  0  0  0  0  0  0  0  0  0
   -2.5981    1.5000    0.0000 O   0  0  0  0  0  0  0  0  0  0  0  0
  3  1  1  0
  4  2  1  0
  4  3  1  0
  5  4  1  0
M  END
>  <NAME>  (3118) 
SEC-BUTYL ALCOHOL

>  <SYNONYMS>  (3118) 
2-BUTANOL

>  <SPECTRUM TYPE>  (3118) 
MS1

>  <INSTRUMENT TYPE>  (3118) 
EI-B

>  <INSTRUMENT>  (3118) 
HITACHI M-80B

>  <ION MODE>  (3118) 
P

>  <INCHIKEY>  (3118) 
BTANRVKWQNVYAZ-UHFFFAOYSA-N

>  <FORMULA>  (3118) 
C4H10O

>  <EXACT MASS>  (3118) 
74.07316494

>  <MW>  (3118) 
74

>  <ID>  (3118) 
JP007111

>  <CONTRIBUTOR>  (3118) 
University of Tokyo Team, {Faculty of Engineering, University of Tokyo

>  <COMMENT>  (3118) 
SMILES=CCC(C)O
cas=78-92-2
InChI=InChI=1S/C4H10O/c1-3-4(2)5/h4-5H,3H2,1-2H3
computed SMILES=OC(C)CC
accession=JP007111
date=2016.01.19 (Created 2008.10.21, modified 2011.05.06)
author=SODA AROMATIC CO., LTD.
license=CC BY-NC-SA
exact mass=74.07316
ionization energy=70 eV
ion type=[M]+*
computed spectral entropy=1.9677402931191883
computed normalized entropy=0.6945259866318576
SPLASH=splash10-0002-9000000000-ef7cd62aa636fe20c0eb
submitter=submitter = University of Tokyo Team (Faculty of Engineering, University of Tokyo)
MoNA Rating=3.75

>  <NUM PEAKS>  (3118) 
17

>  <MASS SPECTRAL PEAKS>  (3118) 
15 2.66
19 2.04
26 2.33
27 13.12
29 10.92
31 16.62
39 3.37
41 10.46
42 1.41
43 10.62
44 8.44
45 99.99
46 2.26
55 2.16
57 2.75
59 21.81
73 1.17

>  <PREDICTED SPECTRUM>  (3118) 
14 58
15 143
16 27
17 7
18 28
19 88
25 16
26 156
27 440
28 226
29 420
30 242
31 488
32 71
33 16
37 56
38 152
39 493
40 182
41 673
42 198
43 656
44 70
45 999
46 193
53 138
55 100
56 272
57 222
59 235

$$$$

     RDKit          2D

  5  4  0  0  0  0  0  0  0  0999 V2000
    0.0000    0.0000    0.0000 C   0  0  0  0  0  0  0  0  0  0  0  0
    1.2990    2.2500    0.0000 C   0  0  0  0  0  0  0  0  0  0  0  0
   -1.2990    2.2500    0.0000 C   0  0  0  0  0  0  0  0  0  0  0  0
    0.0000    1.5000    0.0000 C   0  0  0  0  0  0  0  0  0  0  0  0
   -1.2990    3.7500    0.0000 O   0  0  0  0  0  0  0  0  0  0  0  0
  4  1  1  0
  4  2  1  0
  4  3  1  0
  5  3  1  0
M  END
>  <NAME>  (3119) 
ISOBUTYL ALCOHOL

>  <SYNONYMS>  (3119) 
2-METHYL-1-PROPANOL

>  <SPECTRUM TYPE>  (3119) 
MS1

>  <INSTRUMENT TYPE>  (3119) 
EI-B

>  <INSTRUMENT>  (3119) 
HITACHI M-80B

>  <ION MODE>  (3119) 
P

>  <INCHIKEY>  (3119) 
ZXEKIIBDNHEJCQ-UHFFFAOYSA-N

>  <FORMULA>  (3119) 
C4H10O

>  <EXACT MASS>  (3119) 
74.07316494

>  <MW>  (3119) 
74

>  <ID>  (3119) 
JP007110

>  <CONTRIBUTOR>  (3119) 
University of Tokyo Team, {Faculty of Engineering, University of Tokyo

>  <COMMENT>  (3119) 
SMILES=OCC(C)C
cas=78-83-1
InChI=InChI=1S/C4H10O/c1-4(2)3-5/h4-5H,3H2,1-2H3
computed SMILES=OCC(C)C
accession=JP007110
date=2016.01.19 (Created 2008.10.21, modified 2011.05.06)
author=SODA AROMATIC CO., LTD.
license=CC BY-NC-SA
exact mass=74.07316
ionization energy=70 eV
ion type=[M]+*
computed spectral entropy=2.45178217404927
computed normalized entropy=0.7616889583336629
SPLASH=splash10-0006-9000000000-a022508915e78517db51
submitter=submitter = University of Tokyo Team (Faculty of Engineering, University of Tokyo)
MoNA Rating=3.75

>  <NUM PEAKS>  (3119) 
25

>  <MASS SPECTRAL PEAKS>  (3119) 
15 4.19
26 3.72
27 35.98
28 4.2
29 17.83
30 1.33
31 54.88
32 1.2
33 49.19
37 1.42
38 3.87
39 22.24
40 4.29
41 63.19
42 59.12
43 99.99
44 3.42
45 3.08
53 1.03
55 5.8
56 4.27
57 5.25
59 3.77
73 1.59
74 10.1

>  <PREDICTED SPECTRUM>  (3119) 
14 146
15 309
16 69
17 30
18 40
19 89
25 41
26 249
27 655
28 400
29 655
31 679
32 228
36 9
37 105
38 198
39 656
40 230
41 999
42 481
43 982
44 555
45 457
46 93
53 316
54 22
55 496
56 692
57 681
58 99
59 387
74 205

$$$$

     RDKit          2D

  5  4  0  0  0  0  0  0  0  0999 V2000
   -3.8971    2.2500    0.0000 C   0  0  0  0  0  0  0  0  0  0  0  0
   -2.5981    1.5000    0.0000 C   0  0  0  0  0  0  0  0  0  0  0  0
   -1.2990    2.2500    0.0000 C   0  0  0  0  0  0  0  0  0  0  0  0
    0.0000    1.5000    0.0000 C   0  0  0  0  0  0  0  0  0  0  0  0
    1.2990    2.2500    0.0000 O   0  0  0  0  0  0  0  0  0  0  0  0
  2  1  1  0
  3  2  1  0
  4  3  1  0
  5  4  1  0
M  END
>  <NAME>  (3120) 
BUTYL ALCOHOL

>  <SYNONYMS>  (3120) 
1-BUTANOL

>  <SPECTRUM TYPE>  (3120) 
MS1

>  <INSTRUMENT TYPE>  (3120) 
EI-B

>  <INSTRUMENT>  (3120) 
HITACHI M-80B

>  <ION MODE>  (3120) 
P

>  <INCHIKEY>  (3120) 
LRHPLDYGYMQRHN-UHFFFAOYSA-N

>  <FORMULA>  (3120) 
C4H10O

>  <EXACT MASS>  (3120) 
74.07316494

>  <MW>  (3120) 
74

>  <ID>  (3120) 
JP007109

>  <CONTRIBUTOR>  (3120) 
University of Tokyo Team, {Faculty of Engineering, University of Tokyo

>  <COMMENT>  (3120) 
SMILES=CCCCO
cas=71-36-3
InChI=InChI=1S/C4H10O/c1-2-3-4-5/h5H,2-4H2,1H3
computed SMILES=OCCCC
accession=JP007109
date=2016.01.19 (Created 2008.10.21, modified 2011.05.06)
author=SODA AROMATIC CO., LTD.
license=CC BY-NC-SA
exact mass=74.07316
ionization energy=70 eV
ion type=[M]+*
computed spectral entropy=2.469616242714195
computed normalized entropy=0.7579935750503879
SPLASH=splash10-055f-9000000000-7e23cd40dde01cb89b6f
submitter=submitter = University of Tokyo Team (Faculty of Engineering, University of Tokyo)
MoNA Rating=3.75

>  <NUM PEAKS>  (3120) 
26

>  <MASS SPECTRAL PEAKS>  (3120) 
14 1.19
15 4.17
19 2.38
26 5.52
27 46.53
28 14.22
29 26.61
30 1.79
31 95.1
33 7.9
37 1.29
38 2.65
39 20.15
40 4.28
41 73.58
42 33.78
43 64.1
44 3.65
45 7.55
50 1.08
51 1.22
53 1.19
55 15.51
56 99.99
57 6.28
73 1.43

>  <PREDICTED SPECTRUM>  (3120) 
14 62
15 112
16 34
17 18
18 20
19 67
25 22
26 136
27 471
28 267
29 569
30 271
31 522
32 230
33 99
37 36
38 103
39 470
40 175
41 999
42 335
43 628
44 304
45 499
46 194
47 146
53 215
54 67
55 499
56 444
57 762
58 60
59 83
72 93
74 297
75 7

$$$$

     RDKit          2D

  4  3  0  0  0  0  0  0  0  0999 V2000
   -2.5981    2.2500    0.0000 C   0  0  0  0  0  0  0  0  0  0  0  0
   -1.2990    1.5000    0.0000 C   0  0  0  0  0  0  0  0  0  0  0  0
    0.0000    2.2500    0.0000 C   0  0  0  0  0  0  0  0  0  0  0  0
    1.2990    1.5000    0.0000 O   0  0  0  0  0  0  0  0  0  0  0  0
  2  1  1  0
  3  2  1  0
  4  3  1  0
M  END
>  <NAME>  (3121) 
PROPYL ALCOHOL

>  <SYNONYMS>  (3121) 
1-PROPANOL

>  <SPECTRUM TYPE>  (3121) 
MS1

>  <INSTRUMENT TYPE>  (3121) 
EI-B

>  <INSTRUMENT>  (3121) 
HITACHI M-80B

>  <ION MODE>  (3121) 
P

>  <INCHIKEY>  (3121) 
BDERNNFJNOPAEC-UHFFFAOYSA-N

>  <FORMULA>  (3121) 
C3H8O

>  <EXACT MASS>  (3121) 
60.057514876

>  <MW>  (3121) 
60

>  <ID>  (3121) 
JP007107

>  <CONTRIBUTOR>  (3121) 
University of Tokyo Team, {Faculty of Engineering, University of Tokyo

>  <COMMENT>  (3121) 
SMILES=CCCO
cas=71-23-8
InChI=InChI=1S/C3H8O/c1-2-3-4/h4H,2-3H2,1H3
computed SMILES=OCCC
accession=JP007107
date=2016.01.19 (Created 2008.10.21, modified 2011.05.06)
author=SODA AROMATIC CO., LTD.
license=CC BY-NC-SA
exact mass=60.05751
ionization energy=70 eV
ion type=[M]+*
computed spectral entropy=1.9702942266620942
computed normalized entropy=0.6691577718550232
SPLASH=splash10-001i-9000000000-425940a0b79c32c50c90
submitter=submitter = University of Tokyo Team (Faculty of Engineering, University of Tokyo)
MoNA Rating=3.75

>  <NUM PEAKS>  (3121) 
19

>  <MASS SPECTRAL PEAKS>  (3121) 
15 1.57
17 1.66
18 7.41
26 3.82
27 14.22
28 3.35
29 10.55
30 1.66
31 99.99
32 1.13
38 1.17
39 4.94
41 6.97
42 10.59
43 3.52
45 1.58
57 1.12
59 14.69
60 8.75

>  <PREDICTED SPECTRUM>  (3121) 
14 128
15 314
16 72
17 49
18 66
19 115
25 58
26 294
27 821
28 480
29 883
30 371
31 787
32 331
33 62
37 46
38 113
39 677
40 148
41 999
42 535
43 849
44 13
45 507
56 13
57 134
58 119
59 138
60 436
61 99

$$$$

     RDKit          2D

 21 20  0  0  0  0  0  0  0  0999 V2000
    6.4952   10.5000    0.0000 C   0  0  0  0  0  0  0  0  0  0  0  0
  -18.1865   11.2500    0.0000 C   0  0  0  0  0  0  0  0  0  0  0  0
    5.1962   11.2500    0.0000 C   0  0  0  0  0  0  0  0  0  0  0  0
  -16.8875   10.5000    0.0000 C   0  0  0  0  0  0  0  0  0  0  0  0
    3.8971   10.5000    0.0000 C   0  0  0  0  0  0  0  0  0  0  0  0
    2.5981   11.2500    0.0000 C   0  0  0  0  0  0  0  0  0  0  0  0
    1.2990   10.5000    0.0000 C   0  0  0  0  0  0  0  0  0  0  0  0
    0.0000   11.2500    0.0000 C   0  0  0  0  0  0  0  0  0  0  0  0
   -1.2990   10.5000    0.0000 C   0  0  0  0  0  0  0  0  0  0  0  0
   -2.5981   11.2500    0.0000 C   0  0  0  0  0  0  0  0  0  0  0  0
   -3.8971   10.5000    0.0000 C   0  0  0  0  0  0  0  0  0  0  0  0
   -5.1962   11.2500    0.0000 C   0  0  0  0  0  0  0  0  0  0  0  0
   -6.4952   10.5000    0.0000 C   0  0  0  0  0  0  0  0  0  0  0  0
   -7.7942   11.2500    0.0000 C   0  0  0  0  0  0  0  0  0  0  0  0
   -9.0933   10.5000    0.0000 C   0  0  0  0  0  0  0  0  0  0  0  0
  -10.3923   11.2500    0.0000 C   0  0  0  0  0  0  0  0  0  0  0  0
  -11.6913   10.5000    0.0000 C   0  0  0  0  0  0  0  0  0  0  0  0
  -15.5885   11.2500    0.0000 C   0  0  0  0  0  0  0  0  0  0  0  0
  -12.9904   11.2500    0.0000 C   0  0  0  0  0  0  0  0  0  0  0  0
  -12.9904   12.7500    0.0000 O   0  0  0  0  0  0  0  0  0  0  0  0
  -14.2894   10.5000    0.0000 O   0  0  0  0  0  0  0  0  0  0  0  0
  3  1  1  0
  4  2  1  0
  5  3  1  0
  6  5  1  0
  7  6  1  0
  8  7  1  0
  9  8  1  0
 10  9  1  0
 11 10  1  0
 12 11  1  0
 13 12  1  0
 14 13  1  0
 15 14  1  0
 16 15  1  0
 17 16  1  0
 18  4  1  0
 19 17  1  0
 20 19  2  0
 21 18  1  0
 21 19  1  0
M  END
>  <NAME>  (3122) 
PROPYL PALMITATE

>  <SYNONYMS>  (3122) 
PROPYL HEXADECANOATE

>  <SPECTRUM TYPE>  (3122) 
MS1

>  <INSTRUMENT TYPE>  (3122) 
EI-B

>  <INSTRUMENT>  (3122) 
HITACHI M-80B

>  <ION MODE>  (3122) 
P

>  <INCHIKEY>  (3122) 
BEKZXQKGTDVSKX-UHFFFAOYSA-N

>  <FORMULA>  (3122) 
C19H38O2

>  <EXACT MASS>  (3122) 
298.287180456

>  <MW>  (3122) 
298

>  <ID>  (3122) 
JP007104

>  <CONTRIBUTOR>  (3122) 
University of Tokyo Team, {Faculty of Engineering, University of Tokyo

>  <COMMENT>  (3122) 
SMILES=CCCCCCCCCCCCCCCC(=O)OCCC
InChI=InChI=1S/C19H38O2/c1-3-5-6-7-8-9-10-11-12-13-14-15-16-17-19(20)21-18-4-2/h3-18H2,1-2H3
computed SMILES=O=C(OCCC)CCCCCCCCCCCCCCC
accession=JP007104
date=2016.01.19 (Created 2008.10.21, modified 2011.05.06)
author=SODA AROMATIC CO., LTD.
license=CC BY-NC-SA
exact mass=298.28718
ionization energy=70 eV
ion type=[M]+*
computed spectral entropy=3.5028035369899104
computed normalized entropy=0.8164168861254506
SPLASH=splash10-06r6-9210000000-da8f8cd6f4d3ec14db77
submitter=submitter = University of Tokyo Team (Faculty of Engineering, University of Tokyo)
MoNA Rating=3.75

>  <NUM PEAKS>  (3122) 
73

>  <MASS SPECTRAL PEAKS>  (3122) 
27 12.27
29 20.24
31 1.68
39 5.25
41 54.46
42 23.43
43 99.99
44 2.43
45 1.62
53 2.02
54 3.31
55 41.04
56 10.85
57 43.78
58 3.04
59 4.03
60 43.97
61 97.06
62 1.98
67 4.86
68 3.15
69 23.82
70 4.75
71 20.89
72 1.27
73 42
74 3.48
75 1.26
79 1.25
81 4.4
82 2.38
83 15.34
84 6.05
85 10.94
87 11
95 3.87
96 1.85
97 11.8
98 5.98
99 2.24
101 3.68
102 51.88
103 15.74
109 1.94
111 4.18
112 1.93
113 1.06
115 34.96
116 3.02
123 1.16
125 2.5
129 10.85
130 1.08
139 1.49
143 1.83
144 1.02
157 4.3
158 1.01
171 10.32
172 1.12
185 2.01
199 1.82
213 5.7
227 2.15
237 1.05
239 25.64
240 3.87
255 3.48
256 4.99
257 24.85
258 3.61
298 15.53
299 2.95

>  <PREDICTED SPECTRUM>  (3122) 
15 22
26 18
27 186
28 91
29 289
31 10
38 5
39 126
40 59
41 525
42 321
43 855
44 126
45 121
46 57
47 71
48 21
49 34
50 3
51 36
52 3
53 212
54 248
55 778
56 472
57 781
58 195
59 269
60 797
61 999
62 179
63 61
64 13
65 110
66 64
67 329
68 212
69 572
70 271
71 547
72 52
73 733
74 205
75 113
76 24
77 65
79 144
80 69
81 283
82 224
83 538
84 306
85 402
86 155
87 408
88 112
89 87
90 19
93 143
94 76
95 318
96 193
97 446
98 273
99 225
100 24
101 243
102 846
103 492
104 153
105 20
107 133
109 180
110 114
111 335
112 149
113 112
114 9
115 772
116 261
117 75
121 183
122 81
123 135
124 114
125 196
126 98
127 80
129 425
130 119
131 9
135 190
136 84
137 155
138 82
139 129
140 33
141 36
143 233
144 100
149 154
150 4
151 31
153 83
154 0
156 6
157 277
158 143
159 25
163 63
165 50
167 24
171 446
172 128
183 3
185 225
186 56
194 21
195 18
199 220
200 72
213 351
214 81
215 6
219 122
226 9
227 163
228 62
236 81
237 121
239 605
240 248
241 150
255 265
256 342
257 510
258 241
259 17
269 101
298 410
299 186
300 35

$$$$

     RDKit          2D

 19 18  0  0  0  0  0  0  0  0999 V2000
  -15.5885    9.0000    0.0000 C   0  0  0  0  0  0  0  0  0  0  0  0
    5.1962    9.0000    0.0000 C   0  0  0  0  0  0  0  0  0  0  0  0
    3.8971    6.7500    0.0000 C   0  0  0  0  0  0  0  0  0  0  0  0
  -14.2894    8.2500    0.0000 C   0  0  0  0  0  0  0  0  0  0  0  0
  -12.9904    9.0000    0.0000 C   0  0  0  0  0  0  0  0  0  0  0  0
  -11.6913    8.2500    0.0000 C   0  0  0  0  0  0  0  0  0  0  0  0
  -10.3923    9.0000    0.0000 C   0  0  0  0  0  0  0  0  0  0  0  0
   -9.0933    8.2500    0.0000 C   0  0  0  0  0  0  0  0  0  0  0  0
   -7.7942    9.0000    0.0000 C   0  0  0  0  0  0  0  0  0  0  0  0
   -6.4952    8.2500    0.0000 C   0  0  0  0  0  0  0  0  0  0  0  0
   -5.1962    9.0000    0.0000 C   0  0  0  0  0  0  0  0  0  0  0  0
   -3.8971    8.2500    0.0000 C   0  0  0  0  0  0  0  0  0  0  0  0
   -2.5981    9.0000    0.0000 C   0  0  0  0  0  0  0  0  0  0  0  0
   -1.2990    8.2500    0.0000 C   0  0  0  0  0  0  0  0  0  0  0  0
    0.0000    9.0000    0.0000 C   0  0  0  0  0  0  0  0  0  0  0  0
    3.8971    8.2500    0.0000 C   0  0  0  0  0  0  0  0  0  0  0  0
    1.2990    8.2500    0.0000 C   0  0  0  0  0  0  0  0  0  0  0  0
    1.2990    6.7500    0.0000 O   0  0  0  0  0  0  0  0  0  0  0  0
    2.5981    9.0000    0.0000 O   0  0  0  0  0  0  0  0  0  0  0  0
  4  1  1  0
  5  4  1  0
  6  5  1  0
  7  6  1  0
  8  7  1  0
  9  8  1  0
 10  9  1  0
 11 10  1  0
 12 11  1  0
 13 12  1  0
 14 13  1  0
 15 14  1  0
 16  2  1  0
 16  3  1  0
 17 15  1  0
 18 17  2  0
 19 16  1  0
 19 17  1  0
M  END
>  <NAME>  (3123) 
ISOPROPYL MYRISTATE

>  <SYNONYMS>  (3123) 
ISOPROPYL TETRADECANOATE

>  <SPECTRUM TYPE>  (3123) 
MS1

>  <INSTRUMENT TYPE>  (3123) 
EI-B

>  <INSTRUMENT>  (3123) 
HITACHI M-80B

>  <ION MODE>  (3123) 
P

>  <INCHIKEY>  (3123) 
AXISYYRBXTVTFY-UHFFFAOYSA-N

>  <FORMULA>  (3123) 
C17H34O2

>  <EXACT MASS>  (3123) 
270.255880328

>  <MW>  (3123) 
270

>  <ID>  (3123) 
JP007102

>  <CONTRIBUTOR>  (3123) 
University of Tokyo Team, {Faculty of Engineering, University of Tokyo

>  <COMMENT>  (3123) 
SMILES=CCCCCCCCCCCCCC(=O)OC(C)C
cas=110-27-0
InChI=InChI=1S/C17H34O2/c1-4-5-6-7-8-9-10-11-12-13-14-15-17(18)19-16(2)3/h16H,4-15H2,1-3H3
computed SMILES=O=C(OC(C)C)CCCCCCCCCCCCC
accession=JP007102
date=2016.01.19 (Created 2008.10.21, modified 2011.05.06)
author=SODA AROMATIC CO., LTD.
license=CC BY-NC-SA
exact mass=270.25588
ionization energy=70 eV
ion type=[M]+*
computed spectral entropy=3.427576787216766
computed normalized entropy=0.8304979841792376
SPLASH=splash10-01ox-9210000000-fe05458ea214ddbf37c9
submitter=submitter = University of Tokyo Team (Faculty of Engineering, University of Tokyo)
MoNA Rating=3.75

>  <NUM PEAKS>  (3123) 
62

>  <MASS SPECTRAL PEAKS>  (3123) 
27 11.02
29 16.82
39 7.02
41 47.52
42 15.64
43 99.99
44 2.64
45 3.32
53 2.05
54 2.81
55 33.01
56 10.13
57 38.82
58 2.13
59 16.09
60 56.08
61 15.04
67 3.64
68 2.53
69 19.04
70 5.45
71 19.19
72 1.08
73 26.26
74 2.94
81 3.47
82 2.02
83 12.2
84 7.29
85 12.71
87 7.21
95 2.94
96 1.67
97 8.98
98 8.26
99 3.19
101 3.24
102 58.01
103 8.1
109 1.71
111 4.2
112 1.86
113 1.71
115 4.07
116 1.25
125 2.38
129 13.24
130 1.3
139 1.13
143 2.62
157 1
166 1.26
168 1.26
171 2.25
185 8.12
199 1.29
211 21.38
212 2.71
228 34.84
229 23.87
230 3.09
270 1.23

>  <PREDICTED SPECTRUM>  (3123) 
15 29
26 14
27 163
28 101
29 275
30 9
31 33
39 130
40 59
41 453
42 260
43 653
44 107
45 147
46 36
51 19
53 229
54 233
55 765
56 467
57 848
58 222
59 551
60 891
61 736
62 123
64 22
65 125
66 80
67 329
68 248
69 630
70 348
71 650
72 177
73 701
74 267
75 51
77 22
79 147
80 87
81 346
82 249
83 573
84 396
85 491
86 132
87 367
88 154
89 97
90 15
91 85
93 187
94 75
95 336
96 238
97 494
98 347
99 310
100 77
101 313
102 999
103 415
104 70
107 160
108 52
109 258
110 129
111 426
112 179
113 219
114 82
115 283
116 181
117 5
121 139
122 75
123 157
124 101
125 212
126 110
127 91
128 17
129 538
130 185
131 37
135 99
137 132
138 88
139 161
140 103
141 78
143 298
144 107
147 15
149 60
150 4
151 18
152 67
153 130
154 61
155 13
157 202
158 80
165 21
166 97
167 67
168 47
169 99
171 277
172 84
173 11
179 19
181 19
185 411
186 108
187 4
191 98
192 3
193 9
195 85
197 30
198 21
199 199
200 109
208 93
209 149
210 29
211 528
212 196
213 78
227 85
228 935
229 638
230 217
231 45
270 98
271 20

$$$$

     RDKit          2D

 17 16  0  0  0  0  0  0  0  0999 V2000
    5.1962    8.2500    0.0000 C   0  0  0  0  0  0  0  0  0  0  0  0
  -14.2894    9.0000    0.0000 C   0  0  0  0  0  0  0  0  0  0  0  0
    3.8971    9.0000    0.0000 C   0  0  0  0  0  0  0  0  0  0  0  0
    2.5981    8.2500    0.0000 C   0  0  0  0  0  0  0  0  0  0  0  0
    1.2990    9.0000    0.0000 C   0  0  0  0  0  0  0  0  0  0  0  0
    0.0000    8.2500    0.0000 C   0  0  0  0  0  0  0  0  0  0  0  0
   -1.2990    9.0000    0.0000 C   0  0  0  0  0  0  0  0  0  0  0  0
   -2.5981    8.2500    0.0000 C   0  0  0  0  0  0  0  0  0  0  0  0
   -3.8971    9.0000    0.0000 C   0  0  0  0  0  0  0  0  0  0  0  0
   -5.1962    8.2500    0.0000 C   0  0  0  0  0  0  0  0  0  0  0  0
   -6.4952    9.0000    0.0000 C   0  0  0  0  0  0  0  0  0  0  0  0
   -7.7942    8.2500    0.0000 C   0  0  0  0  0  0  0  0  0  0  0  0
   -9.0933    9.0000    0.0000 C   0  0  0  0  0  0  0  0  0  0  0  0
  -10.3923    8.2500    0.0000 C   0  0  0  0  0  0  0  0  0  0  0  0
  -11.6913    9.0000    0.0000 C   0  0  0  0  0  0  0  0  0  0  0  0
  -11.6913   10.5000    0.0000 O   0  0  0  0  0  0  0  0  0  0  0  0
  -12.9904    8.2500    0.0000 O   0  0  0  0  0  0  0  0  0  0  0  0
  3  1  1  0
  4  3  1  0
  5  4  1  0
  6  5  1  0
  7  6  1  0
  8  7  1  0
  9  8  1  0
 10  9  1  0
 11 10  1  0
 12 11  1  0
 13 12  1  0
 14 13  1  0
 15 14  1  0
 16 15  2  0
 17  2  1  0
 17 15  1  0
M  END
>  <NAME>  (3124) 
METHYL MYRISTATE

>  <SYNONYMS>  (3124) 
METHYL TETRADECANOATE

>  <SPECTRUM TYPE>  (3124) 
MS1

>  <INSTRUMENT TYPE>  (3124) 
EI-B

>  <INSTRUMENT>  (3124) 
HITACHI M-80B

>  <ION MODE>  (3124) 
P

>  <INCHIKEY>  (3124) 
ZAZKJZBWRNNLDS-UHFFFAOYSA-N

>  <FORMULA>  (3124) 
C15H30O2

>  <EXACT MASS>  (3124) 
242.2245802

>  <MW>  (3124) 
242

>  <ID>  (3124) 
JP007101

>  <CONTRIBUTOR>  (3124) 
University of Tokyo Team, {Faculty of Engineering, University of Tokyo

>  <COMMENT>  (3124) 
SMILES=CCCCCCCCCCCCCC(=O)OC
cas=124-10-7
InChI=InChI=1S/C15H30O2/c1-3-4-5-6-7-8-9-10-11-12-13-14-15(16)17-2/h3-14H2,1-2H3
computed SMILES=O=C(OC)CCCCCCCCCCCCC
accession=JP007101
date=2016.01.19 (Created 2008.10.21, modified 2011.05.06)
author=SODA AROMATIC CO., LTD.
license=CC BY-NC-SA
exact mass=242.22458
ionization energy=70 eV
ion type=[M]+*
computed spectral entropy=2.821571517020817
computed normalized entropy=0.7648858012625285
SPLASH=splash10-00du-9000000000-5a629735a82f6a4f1e6e
submitter=submitter = University of Tokyo Team (Faculty of Engineering, University of Tokyo)
MoNA Rating=3.75

>  <NUM PEAKS>  (3124) 
40

>  <MASS SPECTRAL PEAKS>  (3124) 
15 2.8
27 6.34
29 13.27
39 3.69
41 27.5
42 5.99
43 30.18
45 1.23
53 1.63
54 1.79
55 22.47
56 3.77
57 12.54
59 9.03
67 2.06
69 11.33
70 1.74
71 3.23
73 1.76
74 99.99
75 14.44
81 1.31
83 5.48
84 2.29
85 1.57
87 60.05
88 5.11
97 3.2
98 1.88
101 3.43
111 1.13
115 1.08
129 3.27
143 10.79
157 1.46
185 1.44
199 6.09
211 3.34
213 1.12
242 4.96

>  <PREDICTED SPECTRUM>  (3124) 
14 2
15 65
16 15
17 41
18 79
26 22
27 202
28 146
29 282
30 61
31 45
32 41
33 26
34 2
37 9
38 29
39 231
40 131
41 547
42 276
43 618
44 157
45 123
51 64
52 44
53 195
54 206
55 685
56 373
57 551
58 107
59 288
60 123
61 75
62 37
65 64
66 34
67 261
68 197
69 505
70 268
71 348
72 83
73 173
74 999
75 500
76 78
77 79
78 3
79 124
80 71
81 274
82 225
83 450
84 363
85 300
86 26
87 817
88 179
89 82
93 107
94 72
95 258
96 243
97 427
98 362
99 105
100 0
101 239
102 124
103 75
106 22
107 129
108 73
109 139
110 167
111 293
112 207
113 148
114 21
115 281
116 155
117 14
121 42
123 97
124 91
125 154
126 129
127 98
129 224
130 87
131 29
135 88
136 10
137 83
138 89
139 154
140 108
141 71
142 12
143 288
144 107
145 84
146 20
148 9
149 40
151 25
152 26
153 76
154 38
156 20
157 145
158 20
159 73
166 124
167 120
168 114
169 114
170 4
171 105
172 85
174 39
177 17
182 17
183 1
185 167
186 62
187 6
192 64
193 117
194 20
199 300
200 115
201 3
210 28
211 295
212 105
213 113
227 54
241 14
242 329
243 154
244 24

$$$$

     RDKit          2D

 15 15  0  0  0  0  0  0  0  0999 V2000
   -7.4692    4.2571    0.0000 C   0  0  0  0  0  0  0  0  0  0  0  0
   -4.8712    5.7571    0.0000 C   0  0  0  0  0  0  0  0  0  0  0  0
   -6.1702    3.5071    0.0000 C   0  0  0  0  0  0  0  0  0  0  0  0
    4.2221    2.0071    0.0000 C   0  0  0  0  0  0  0  0  0  0  0  0
    4.2226    3.5079    0.0000 C   0  0  0  0  0  0  0  0  0  0  0  0
    2.9226    1.2563    0.0000 C   0  0  0  0  0  0  0  0  0  0  0  0
    2.9236    4.2579    0.0000 C   0  0  0  0  0  0  0  0  0  0  0  0
    1.6236    2.0063    0.0000 C   0  0  0  0  0  0  0  0  0  0  0  0
    0.3250    4.2571    0.0000 C   0  0  0  0  0  0  0  0  0  0  0  0
   -0.9740    3.5071    0.0000 C   0  0  0  0  0  0  0  0  0  0  0  0
   -4.8712    4.2571    0.0000 C   0  0  0  0  0  0  0  0  0  0  0  0
    1.6240    3.5071    0.0000 C   0  0  0  0  0  0  0  0  0  0  0  0
   -3.5721    3.5071    0.0000 C   0  0  0  0  0  0  0  0  0  0  0  0
   -3.5721    2.0071    0.0000 O   0  0  0  0  0  0  0  0  0  0  0  0
   -2.2731    4.2571    0.0000 O   0  0  0  0  0  0  0  0  0  0  0  0
  3  1  1  0
  5  4  2  0
  6  4  1  0
  7  5  1  0
  8  6  2  0
 10  9  1  0
 11  2  1  0
 11  3  1  0
 12  7  2  0
 12  8  1  0
 12  9  1  0
 13 11  1  0
 14 13  2  0
 15 10  1  0
 15 13  1  0
M  END
>  <NAME>  (3125) 
PHENYLETHYL 2-METHYLBUTYRATE

>  <SYNONYMS>  (3125) 


>  <SPECTRUM TYPE>  (3125) 
MS1

>  <INSTRUMENT TYPE>  (3125) 
EI-B

>  <INSTRUMENT>  (3125) 
HITACHI M-80B

>  <ION MODE>  (3125) 
P

>  <INCHIKEY>  (3125) 
KVKKTLBBYFABAZ-UHFFFAOYSA-N

>  <FORMULA>  (3125) 
C13H18O2

>  <EXACT MASS>  (3125) 
206.130679816

>  <MW>  (3125) 
206

>  <ID>  (3125) 
JP007097

>  <CONTRIBUTOR>  (3125) 
University of Tokyo Team, {Faculty of Engineering, University of Tokyo

>  <COMMENT>  (3125) 
SMILES=CCC(C)C(=O)OCCc(c1)cccc1
InChI=InChI=1S/C13H18O2/c1-3-11(2)13(14)15-10-9-12-7-5-4-6-8-12/h4-8,11H,3,9-10H2,1-2H3
computed SMILES=O=C(OCCC=1C=CC=CC1)C(C)CC
accession=JP007097
date=2016.01.19 (Created 2008.10.21, modified 2011.05.06)
author=SODA AROMATIC CO., LTD.
license=CC BY-NC-SA
exact mass=206.13068
ionization energy=70 eV
ion type=[M]+*
computed spectral entropy=1.9583693915300473
computed normalized entropy=0.6537197628834613
SPLASH=splash10-0udi-6900000000-9602626c2b7551635129
submitter=submitter = University of Tokyo Team (Faculty of Engineering, University of Tokyo)
MoNA Rating=3.75

>  <NUM PEAKS>  (3125) 
20

>  <MASS SPECTRAL PEAKS>  (3125) 
27 3.57
29 7.24
39 3.47
41 7.61
51 2.24
55 1.27
56 1
57 30.79
58 1.14
65 2.55
77 5.79
78 2.36
79 3.12
85 5.93
91 6.58
92 1.08
103 3.83
104 99.99
105 17.66
106 1.02

>  <PREDICTED SPECTRUM>  (3125) 
26 12
27 105
28 39
29 113
38 0
39 152
40 22
41 172
42 47
43 4
44 25
45 44
50 78
51 150
52 101
53 113
54 60
55 105
56 137
57 298
58 72
62 20
63 100
64 33
65 204
66 35
67 5
73 17
74 69
75 70
76 64
77 180
78 173
79 174
80 38
85 229
86 77
89 92
90 65
91 342
92 130
102 71
103 197
104 999
105 459
106 83
107 30
122 63
133 25
206 30
207 6

$$$$

     RDKit          2D

 17 17  0  0  1  0  0  0  0  0999 V2000
    7.5051   -1.3310    0.0000 C   0  0  0  0  0  0  0  0  0  0  0  0
   -1.5890   -3.5800    0.0000 C   0  0  0  0  0  0  0  0  0  0  0  0
    1.0090   -3.5800    0.0000 C   0  0  0  0  0  0  0  0  0  0  0  0
   -0.2900    3.1700    0.0000 C   0  0  0  0  0  0  0  0  0  0  0  0
    4.9068   -2.8306    0.0000 C   0  0  0  0  0  0  0  0  0  0  0  0
    6.2062   -0.5808    0.0000 C   0  0  0  0  0  0  0  0  0  0  0  0
   -1.5900    0.9200    0.0000 C   0  0  0  0  0  0  0  0  0  0  0  0
   -1.5900   -0.5800    0.0000 C   0  0  0  0  0  0  0  0  0  0  0  0
    1.0100    0.9200    0.0000 C   0  0  0  0  0  0  0  0  0  0  0  0
   -0.2900   -2.8300    0.0000 C   0  0  0  0  0  0  0  0  0  0  0  0
   -0.2900    1.6700    0.0000 C   0  0  0  0  0  0  0  0  0  0  0  0
    4.9070   -1.3306    0.0000 C   0  0  0  0  0  0  0  0  0  0  0  0
   -0.2900   -1.3300    0.0000 C   0  0  0  0  0  0  0  0  0  0  0  0
    1.0100   -0.5800    0.0000 C   0  0  0  0  0  0  0  0  0  0  0  0
    3.6081   -0.5804    0.0000 C   0  0  0  0  0  0  0  0  0  0  0  0
    3.6083    0.9196    0.0000 O   0  0  0  0  0  0  0  0  0  0  0  0
    2.3089   -1.3302    0.0000 O   0  0  0  0  0  0  0  0  0  0  0  0
  6  1  1  0
  8  7  1  0
 10  2  1  0
 10  3  1  0
 11  4  1  6
 11  7  1  0
 11  9  1  0
 12  5  1  0
 12  6  1  0
 13  8  1  0
 13 10  1  1
 14  9  1  0
 14 13  1  0
 15 12  1  0
 16 15  2  0
 14 17  1  6
 17 15  1  0
M  END
>  <NAME>  (3126) 
L-MENTHYL 2-METHYLBUTYRATE

>  <SYNONYMS>  (3126) 
5-METHYL-2-(1-METHYLETHYL)CYCLOHEXYL 2-METHYLBUTYRATE

>  <SPECTRUM TYPE>  (3126) 
MS1

>  <INSTRUMENT TYPE>  (3126) 
EI-B

>  <INSTRUMENT>  (3126) 
HITACHI M-80B

>  <ION MODE>  (3126) 
P

>  <INCHIKEY>  (3126) 
FGHREPYEIHRUKM-FUEJHIMDSA-N

>  <FORMULA>  (3126) 
C15H28O2

>  <EXACT MASS>  (3126) 
240.208930136

>  <MW>  (3126) 
240

>  <ID>  (3126) 
JP007096

>  <CONTRIBUTOR>  (3126) 
University of Tokyo Team, {Faculty of Engineering, University of Tokyo

>  <COMMENT>  (3126) 
SMILES=CCC(C)C(=O)OC([H])(C1)C([H])(C(C)C)CCC([H])(C)1
InChI=InChI=1S/C15H28O2/c1-6-12(5)15(16)17-14-9-11(4)7-8-13(14)10(2)3/h10-14H,6-9H2,1-5H3/t11-,12?,13+,14-/m0/s1
computed SMILES=O=C(OC1CC(C)CCC1C(C)C)C(C)CC
accession=JP007096
date=2016.01.19 (Created 2008.10.21, modified 2011.05.06)
author=SODA AROMATIC CO., LTD.
license=CC BY-NC-SA
exact mass=240.20893
ionization energy=70 eV
ion type=[M]+*
computed spectral entropy=3.045830541825797
computed normalized entropy=0.8256790658824609
SPLASH=splash10-0a5i-9100000000-06b1de184280581c4051
submitter=submitter = University of Tokyo Team (Faculty of Engineering, University of Tokyo)
MoNA Rating=3.75

>  <NUM PEAKS>  (3126) 
40

>  <MASS SPECTRAL PEAKS>  (3126) 
27 10.31
29 22.02
39 7.46
41 41.42
42 2.84
43 18.16
53 3.94
54 3.89
55 31.02
56 5.52
57 99.99
58 3.42
65 1.17
67 11.25
68 3.96
69 21.47
70 1.85
71 3.8
77 1.41
79 2.48
80 2.77
81 33.14
82 13.24
83 48.4
84 3.32
85 29.35
86 1.44
93 1.2
94 4.91
95 51.15
96 13.75
97 9.13
103 2.79
109 3.35
110 2.21
123 15.98
124 1.34
137 2.09
138 48.73
139 11.48

>  <PREDICTED SPECTRUM>  (3126) 
26 61
27 252
28 117
29 358
39 188
40 71
41 584
42 185
43 431
44 92
45 8
51 78
52 67
53 211
54 277
55 670
56 333
57 989
58 215
59 66
65 104
66 95
67 509
68 231
69 539
70 200
71 335
77 255
78 74
79 270
80 325
81 800
82 576
83 781
84 217
85 678
86 83
87 36
93 148
94 238
95 853
96 507
97 392
98 128
99 34
102 24
103 268
107 31
109 307
110 252
111 28
113 12
123 574
124 158
137 182
138 999
139 508
140 150
155 51
156 19

$$$$

     RDKit          2D

 15 14  0  0  0  0  0  0  0  0999 V2000
    3.8971    6.7500    0.0000 C   0  0  0  0  0  0  0  0  0  0  0  0
  -11.6913    6.7500    0.0000 C   0  0  0  0  0  0  0  0  0  0  0  0
   -9.0933    5.2500    0.0000 C   0  0  0  0  0  0  0  0  0  0  0  0
    2.5981    7.5000    0.0000 C   0  0  0  0  0  0  0  0  0  0  0  0
  -10.3923    7.5000    0.0000 C   0  0  0  0  0  0  0  0  0  0  0  0
    1.2990    6.7500    0.0000 C   0  0  0  0  0  0  0  0  0  0  0  0
    0.0000    7.5000    0.0000 C   0  0  0  0  0  0  0  0  0  0  0  0
   -1.2990    6.7500    0.0000 C   0  0  0  0  0  0  0  0  0  0  0  0
   -2.5981    7.5000    0.0000 C   0  0  0  0  0  0  0  0  0  0  0  0
   -3.8971    6.7500    0.0000 C   0  0  0  0  0  0  0  0  0  0  0  0
   -5.1962    7.5000    0.0000 C   0  0  0  0  0  0  0  0  0  0  0  0
   -9.0933    6.7500    0.0000 C   0  0  0  0  0  0  0  0  0  0  0  0
   -7.7942    7.5000    0.0000 C   0  0  0  0  0  0  0  0  0  0  0  0
   -7.7942    9.0000    0.0000 O   0  0  0  0  0  0  0  0  0  0  0  0
   -6.4952    6.7500    0.0000 O   0  0  0  0  0  0  0  0  0  0  0  0
  4  1  1  0
  5  2  1  0
  6  4  1  0
  7  6  1  0
  8  7  1  0
  9  8  1  0
 10  9  1  0
 11 10  1  0
 12  3  1  0
 12  5  1  0
 13 12  1  0
 14 13  2  0
 15 11  1  0
 15 13  1  0
M  END
>  <NAME>  (3127) 
OCTYL 2-METHYLBUTYRATE

>  <SYNONYMS>  (3127) 


>  <SPECTRUM TYPE>  (3127) 
MS1

>  <INSTRUMENT TYPE>  (3127) 
EI-B

>  <INSTRUMENT>  (3127) 
HITACHI M-80B

>  <ION MODE>  (3127) 
P

>  <INCHIKEY>  (3127) 
BCOJVEMHTBSAOE-UHFFFAOYSA-N

>  <FORMULA>  (3127) 
C13H26O2

>  <EXACT MASS>  (3127) 
214.193280072

>  <MW>  (3127) 
214

>  <ID>  (3127) 
JP007095

>  <CONTRIBUTOR>  (3127) 
University of Tokyo Team, {Faculty of Engineering, University of Tokyo

>  <COMMENT>  (3127) 
SMILES=CCCCCCCCOC(=O)C(C)CC
InChI=InChI=1S/C13H26O2/c1-4-6-7-8-9-10-11-15-13(14)12(3)5-2/h12H,4-11H2,1-3H3
computed SMILES=O=C(OCCCCCCCC)C(C)CC
accession=JP007095
date=2016.01.19 (Created 2008.10.21, modified 2011.05.06)
author=SODA AROMATIC CO., LTD.
license=CC BY-NC-SA
exact mass=214.19328
ionization energy=70 eV
ion type=[M]+*
computed spectral entropy=2.904860579347467
computed normalized entropy=0.8237559827107174
SPLASH=splash10-0pbc-9200000000-deeb56bfe2fe67b6bd5a
submitter=submitter = University of Tokyo Team (Faculty of Engineering, University of Tokyo)
MoNA Rating=3.75

>  <NUM PEAKS>  (3127) 
34

>  <MASS SPECTRAL PEAKS>  (3127) 
27 13.36
29 32.74
39 8.69
41 49.74
42 14.44
43 34.96
53 1.92
54 2.18
55 23.62
56 28.4
57 99.99
58 3.4
67 1.63
68 3.3
69 16.49
70 30.63
71 19.24
72 1.15
74 15.48
75 2.72
82 3.58
83 18.14
84 16.68
85 35.97
86 1.78
87 3.55
97 1.78
102 2.97
103 82.48
104 4.26
112 20.79
113 1.7
157 1.54
186 1.28

>  <PREDICTED SPECTRUM>  (3127) 
26 32
27 188
28 64
29 379
30 28
36 21
38 17
39 190
40 76
41 578
42 274
43 463
44 119
45 126
51 33
52 44
53 136
54 187
55 500
56 514
57 893
58 162
59 16
60 16
61 72
62 15
66 60
67 186
68 268
69 426
70 482
71 373
72 78
73 117
74 304
75 240
77 11
79 49
81 107
82 228
83 377
84 491
85 564
86 106
87 136
88 43
89 18
95 36
96 148
97 295
98 162
99 39
101 26
102 117
103 999
104 157
110 1
111 113
112 516
113 189
115 39
129 52
157 235
186 90

$$$$

     RDKit          2D

 13 12  0  0  0  0  0  0  0  0999 V2000
   -9.7428    5.6250    0.0000 C   0  0  0  0  0  0  0  0  0  0  0  0
    3.2476    5.6250    0.0000 C   0  0  0  0  0  0  0  0  0  0  0  0
    0.6495    7.1250    0.0000 C   0  0  0  0  0  0  0  0  0  0  0  0
   -8.4437    4.8750    0.0000 C   0  0  0  0  0  0  0  0  0  0  0  0
    1.9486    4.8750    0.0000 C   0  0  0  0  0  0  0  0  0  0  0  0
   -7.1447    5.6250    0.0000 C   0  0  0  0  0  0  0  0  0  0  0  0
   -5.8457    4.8750    0.0000 C   0  0  0  0  0  0  0  0  0  0  0  0
   -4.5466    5.6250    0.0000 C   0  0  0  0  0  0  0  0  0  0  0  0
   -3.2476    4.8750    0.0000 C   0  0  0  0  0  0  0  0  0  0  0  0
    0.6495    5.6250    0.0000 C   0  0  0  0  0  0  0  0  0  0  0  0
   -0.6495    4.8750    0.0000 C   0  0  0  0  0  0  0  0  0  0  0  0
   -0.6495    3.3750    0.0000 O   0  0  0  0  0  0  0  0  0  0  0  0
   -1.9486    5.6250    0.0000 O   0  0  0  0  0  0  0  0  0  0  0  0
  4  1  1  0
  5  2  1  0
  6  4  1  0
  7  6  1  0
  8  7  1  0
  9  8  1  0
 10  3  1  0
 10  5  1  0
 11 10  1  0
 12 11  2  0
 13  9  1  0
 13 11  1  0
M  END
>  <NAME>  (3128) 
HEXYL 2-METHYLBUTYRATE

>  <SYNONYMS>  (3128) 


>  <SPECTRUM TYPE>  (3128) 
MS1

>  <INSTRUMENT TYPE>  (3128) 
EI-B

>  <INSTRUMENT>  (3128) 
HITACHI M-80B

>  <ION MODE>  (3128) 
P

>  <INCHIKEY>  (3128) 
YUECNVSODFDKOQ-UHFFFAOYSA-N

>  <FORMULA>  (3128) 
C11H22O2

>  <EXACT MASS>  (3128) 
186.161979944

>  <MW>  (3128) 
186

>  <ID>  (3128) 
JP007094

>  <CONTRIBUTOR>  (3128) 
University of Tokyo Team, {Faculty of Engineering, University of Tokyo

>  <COMMENT>  (3128) 
SMILES=CCCCCCOC(=O)C(C)CC
InChI=InChI=1S/C11H22O2/c1-4-6-7-8-9-13-11(12)10(3)5-2/h10H,4-9H2,1-3H3
computed SMILES=O=C(OCCCCCC)C(C)CC
accession=JP007094
date=2016.01.19 (Created 2008.10.21, modified 2011.05.06)
author=SODA AROMATIC CO., LTD.
license=CC BY-NC-SA
exact mass=186.16198
ionization energy=70 eV
ion type=[M]+*
computed spectral entropy=2.680215678611387
computed normalized entropy=0.7733467736090992
SPLASH=splash10-0pbc-9100000000-1821ad6839ddf9e7fae2
submitter=submitter = University of Tokyo Team (Faculty of Engineering, University of Tokyo)
MoNA Rating=3.75

>  <NUM PEAKS>  (3128) 
32

>  <MASS SPECTRAL PEAKS>  (3128) 
26 1.09
27 22.21
29 45.51
31 1.18
39 13.17
41 56.63
42 20.09
43 77.51
44 1.99
45 1.48
53 2.2
54 1.85
56 45.43
57 99.99
58 4.47
69 15.13
70 1.11
73 1.47
74 21.37
75 4.15
83 2.5
84 37.94
85 56.83
86 3.3
87 6.96
99 1.01
102 4.54
103 97.04
104 5.82
115 1.05
129 2.29
158 2.16

>  <PREDICTED SPECTRUM>  (3128) 
26 33
27 207
28 62
29 391
36 18
38 6
39 208
40 73
41 596
42 288
43 423
44 133
45 154
51 13
52 21
53 118
54 148
55 422
56 596
57 999
58 186
59 60
60 50
61 80
67 126
68 203
69 381
70 284
71 124
73 117
74 291
75 126
83 138
84 738
85 728
86 140
87 164
88 41
101 99
102 129
103 925
104 101
129 237
130 9
131 39
158 196
159 4

$$$$

     RDKit          2D

 13 12  0  0  0  0  0  0  0  0999 V2000
    6.8200    7.3125    0.0000 C   0  0  0  0  0  0  0  0  0  0  0  0
   -4.8714    5.0625    0.0000 C   0  0  0  0  0  0  0  0  0  0  0  0
   -2.2733    6.5625    0.0000 C   0  0  0  0  0  0  0  0  0  0  0  0
    5.5209    6.5625    0.0000 C   0  0  0  0  0  0  0  0  0  0  0  0
   -3.5724    4.3125    0.0000 C   0  0  0  0  0  0  0  0  0  0  0  0
    5.5209    5.0625    0.0000 C   0  0  0  0  0  0  0  0  0  0  0  0
    4.2219    4.3125    0.0000 C   0  0  0  0  0  0  0  0  0  0  0  0
    2.9228    5.0625    0.0000 C   0  0  0  0  0  0  0  0  0  0  0  0
    1.6238    4.3125    0.0000 C   0  0  0  0  0  0  0  0  0  0  0  0
   -2.2733    5.0625    0.0000 C   0  0  0  0  0  0  0  0  0  0  0  0
   -0.9743    4.3125    0.0000 C   0  0  0  0  0  0  0  0  0  0  0  0
   -0.9743    2.8125    0.0000 O   0  0  0  0  0  0  0  0  0  0  0  0
    0.3248    5.0625    0.0000 O   0  0  0  0  0  0  0  0  0  0  0  0
  4  1  1  0
  5  2  1  0
  6  4  1  0
  6  7  2  0
  8  7  1  0
  9  8  1  0
 10  3  1  0
 10  5  1  0
 11 10  1  0
 12 11  2  0
 13  9  1  0
 13 11  1  0
M  END
>  <NAME>  (3129) 
CIS-3-HEXENYL 2-METHYLBUTYRATE

>  <SYNONYMS>  (3129) 


>  <SPECTRUM TYPE>  (3129) 
MS1

>  <INSTRUMENT TYPE>  (3129) 
EI-B

>  <INSTRUMENT>  (3129) 
HITACHI M-80B

>  <ION MODE>  (3129) 
P

>  <INCHIKEY>  (3129) 
JKKGTSUICJWEKB-SREVYHEPSA-N

>  <FORMULA>  (3129) 
C11H20O2

>  <EXACT MASS>  (3129) 
184.14632988

>  <MW>  (3129) 
184

>  <ID>  (3129) 
JP007093

>  <CONTRIBUTOR>  (3129) 
University of Tokyo Team, {Faculty of Engineering, University of Tokyo

>  <COMMENT>  (3129) 
SMILES=CCC=CCCOC(=O)C(C)CC
InChI=InChI=1S/C11H20O2/c1-4-6-7-8-9-13-11(12)10(3)5-2/h6-7,10H,4-5,8-9H2,1-3H3/b7-6-
computed SMILES=O=C(OCCC=CCC)C(C)CC
accession=JP007093
date=2016.01.19 (Created 2008.10.21, modified 2011.05.06)
author=SODA AROMATIC CO., LTD.
license=CC BY-NC-SA
exact mass=184.14633
ionization energy=70 eV
ion type=[M]+*
computed spectral entropy=2.3537128486833683
computed normalized entropy=0.7614624788236527
SPLASH=splash10-0api-9000000000-e7e4b03dfecd1df03363
submitter=submitter = University of Tokyo Team (Faculty of Engineering, University of Tokyo)
MoNA Rating=3.75

>  <NUM PEAKS>  (3129) 
22

>  <MASS SPECTRAL PEAKS>  (3129) 
27 12.63
29 23.62
39 13.78
41 39.22
42 3.47
43 1.8
53 5.51
54 6.93
55 20.41
56 4.29
57 84.87
58 3.06
67 75.43
68 4.86
69 1.32
79 1.05
81 5.75
82 99.99
83 9.32
85 28.88
86 1.45
103 1.81

>  <PREDICTED SPECTRUM>  (3129) 
26 68
27 195
28 86
29 355
38 15
39 276
40 111
41 541
42 164
43 26
44 58
45 29
50 63
51 85
52 91
53 275
54 532
55 491
56 288
57 941
58 78
65 149
66 207
67 850
68 322
69 165
70 30
72 61
73 65
74 22
77 55
79 213
81 299
82 999
83 426
84 30
85 486
86 58
93 7
103 78

$$$$

     RDKit          2D

 12 11  0  0  0  0  0  0  0  0999 V2000
    2.5981    4.5000    0.0000 C   0  0  0  0  0  0  0  0  0  0  0  0
   -7.7942    4.5000    0.0000 C   0  0  0  0  0  0  0  0  0  0  0  0
    0.0000    3.0000    0.0000 C   0  0  0  0  0  0  0  0  0  0  0  0
   -5.1962    3.0000    0.0000 C   0  0  0  0  0  0  0  0  0  0  0  0
    1.2990    5.2500    0.0000 C   0  0  0  0  0  0  0  0  0  0  0  0
   -6.4952    5.2500    0.0000 C   0  0  0  0  0  0  0  0  0  0  0  0
   -1.2990    5.2500    0.0000 C   0  0  0  0  0  0  0  0  0  0  0  0
    0.0000    4.5000    0.0000 C   0  0  0  0  0  0  0  0  0  0  0  0
   -5.1962    4.5000    0.0000 C   0  0  0  0  0  0  0  0  0  0  0  0
   -3.8971    5.2500    0.0000 C   0  0  0  0  0  0  0  0  0  0  0  0
   -3.8971    6.7500    0.0000 O   0  0  0  0  0  0  0  0  0  0  0  0
   -2.5981    4.5000    0.0000 O   0  0  0  0  0  0  0  0  0  0  0  0
  5  1  1  0
  6  2  1  0
  8  3  1  0
  8  5  1  0
  8  7  1  0
  9  4  1  0
  9  6  1  0
 10  9  1  0
 11 10  2  0
 12  7  1  0
 12 10  1  0
M  END
>  <NAME>  (3130) 
2-METHYLBUTYL 2-METHYLBUTYRATE

>  <SYNONYMS>  (3130) 


>  <SPECTRUM TYPE>  (3130) 
MS1

>  <INSTRUMENT TYPE>  (3130) 
EI-B

>  <INSTRUMENT>  (3130) 
HITACHI M-80B

>  <ION MODE>  (3130) 
P

>  <INCHIKEY>  (3130) 
PVYFCGRBIREQLL-UHFFFAOYSA-N

>  <FORMULA>  (3130) 
C10H20O2

>  <EXACT MASS>  (3130) 
172.14632988

>  <MW>  (3130) 
172

>  <ID>  (3130) 
JP007092

>  <CONTRIBUTOR>  (3130) 
University of Tokyo Team, {Faculty of Engineering, University of Tokyo

>  <COMMENT>  (3130) 
SMILES=CCC(C)COC(=O)C(C)CC
cas=2445-78-5
InChI=InChI=1S/C10H20O2/c1-5-8(3)7-12-10(11)9(4)6-2/h8-9H,5-7H2,1-4H3
computed SMILES=O=C(OCC(C)CC)C(C)CC
accession=JP007092
date=2016.01.19 (Created 2008.10.21, modified 2011.05.06)
author=SODA AROMATIC CO., LTD.
license=CC BY-NC-SA
exact mass=172.14633
ionization energy=70 eV
ion type=[M]+*
computed spectral entropy=2.5966622406554793
computed normalized entropy=0.779262567086241
SPLASH=splash10-0abl-9000000000-82e9fdbb043817d4c2eb
submitter=submitter = University of Tokyo Team (Faculty of Engineering, University of Tokyo)
MoNA Rating=3.75

>  <NUM PEAKS>  (3130) 
28

>  <MASS SPECTRAL PEAKS>  (3130) 
26 1.21
27 18.58
29 38.5
31 1.36
39 13.25
41 43.08
42 12.62
43 52.55
44 1.29
45 2.3
53 1.94
55 27.44
56 9.02
57 99.99
58 4.44
69 2.97
70 93.9
71 27.86
72 1.18
73 1.07
74 10.06
85 81.75
86 4.74
87 4.94
102 2.98
103 16.64
115 3.25
144 2.33

>  <PREDICTED SPECTRUM>  (3130) 
26 56
27 210
28 65
29 332
31 20
38 15
39 228
40 64
41 543
42 291
43 637
44 100
45 112
52 33
53 146
54 98
55 523
56 608
57 980
58 224
59 139
60 39
61 66
69 260
70 806
71 695
72 304
73 219
74 168
85 999
86 132
87 194
88 78
89 84
101 137
102 130
103 387
114 12
115 352
116 96
117 189
144 76
145 47
157 43

$$$$

     RDKit          2D

 12 11  0  0  0  0  0  0  0  0999 V2000
    2.5981    4.5000    0.0000 C   0  0  0  0  0  0  0  0  0  0  0  0
   -7.7942    4.5000    0.0000 C   0  0  0  0  0  0  0  0  0  0  0  0
   -6.4952    6.7500    0.0000 C   0  0  0  0  0  0  0  0  0  0  0  0
    0.0000    3.0000    0.0000 C   0  0  0  0  0  0  0  0  0  0  0  0
    1.2990    5.2500    0.0000 C   0  0  0  0  0  0  0  0  0  0  0  0
   -5.1962    4.5000    0.0000 C   0  0  0  0  0  0  0  0  0  0  0  0
   -3.8971    5.2500    0.0000 C   0  0  0  0  0  0  0  0  0  0  0  0
   -6.4952    5.2500    0.0000 C   0  0  0  0  0  0  0  0  0  0  0  0
    0.0000    4.5000    0.0000 C   0  0  0  0  0  0  0  0  0  0  0  0
   -1.2990    5.2500    0.0000 C   0  0  0  0  0  0  0  0  0  0  0  0
   -1.2990    6.7500    0.0000 O   0  0  0  0  0  0  0  0  0  0  0  0
   -2.5981    4.5000    0.0000 O   0  0  0  0  0  0  0  0  0  0  0  0
  5  1  1  0
  7  6  1  0
  8  2  1  0
  8  3  1  0
  8  6  1  0
  9  4  1  0
  9  5  1  0
 10  9  1  0
 11 10  2  0
 12  7  1  0
 12 10  1  0
M  END
>  <NAME>  (3131) 
ISOPENTYL 2-METHYLBUTYRATE

>  <SYNONYMS>  (3131) 


>  <SPECTRUM TYPE>  (3131) 
MS1

>  <INSTRUMENT TYPE>  (3131) 
EI-B

>  <INSTRUMENT>  (3131) 
HITACHI M-80B

>  <ION MODE>  (3131) 
P

>  <INCHIKEY>  (3131) 
VGIRHYHLQKDEPP-UHFFFAOYSA-N

>  <FORMULA>  (3131) 
C10H20O2

>  <EXACT MASS>  (3131) 
172.14632988

>  <MW>  (3131) 
172

>  <ID>  (3131) 
JP007091

>  <CONTRIBUTOR>  (3131) 
University of Tokyo Team, {Faculty of Engineering, University of Tokyo

>  <COMMENT>  (3131) 
SMILES=CCC(C)C(=O)OCCC(C)C
InChI=InChI=1S/C10H20O2/c1-5-9(4)10(11)12-7-6-8(2)3/h8-9H,5-7H2,1-4H3
computed SMILES=O=C(OCCC(C)C)C(C)CC
ionization energy=70 eV
accession=JP007091
date=2016.01.19 (Created 2008.10.21, modified 2011.05.06)
author=SODA AROMATIC CO., LTD.
license=CC BY-NC-SA
exact mass=172.14633
ion type=[M]+*
computed spectral entropy=2.5765030520443264
computed normalized entropy=0.7732127617547869
SPLASH=splash10-05fu-9000000000-f126e8948b12ca2028a9
submitter=submitter = University of Tokyo Team (Faculty of Engineering, University of Tokyo)
MoNA Rating=3.75

>  <NUM PEAKS>  (3131) 
28

>  <MASS SPECTRAL PEAKS>  (3131) 
27 14.46
29 26.22
39 10.63
41 37.07
42 10.53
43 51.67
44 1.32
45 1.55
53 1.76
54 1.01
55 32.24
56 7.39
57 72.31
58 2.65
69 4.17
70 99.99
71 26
72 1.17
74 5.47
85 40.69
86 2.1
87 2.77
102 1.91
103 20.53
104 1.01
115 1.82
129 2.22
144 1.14

>  <PREDICTED SPECTRUM>  (3131) 
25 1
26 91
27 354
28 167
29 420
31 84
36 1
37 9
38 40
39 325
40 107
41 580
42 355
43 897
44 170
45 137
50 14
51 12
52 58
53 164
54 105
55 542
56 490
57 775
58 142
59 65
68 11
69 323
70 999
71 894
72 228
73 172
74 166
84 168
85 716
86 71
87 199
88 10
89 28
99 21
101 174
102 246
103 368
104 34
115 265
116 177
117 274
129 204
130 45
143 72
144 230
145 155
157 71

$$$$

     RDKit          2D

 12 11  0  0  0  0  0  0  0  0999 V2000
   -8.4437    5.6250    0.0000 C   0  0  0  0  0  0  0  0  0  0  0  0
    3.2476    4.8750    0.0000 C   0  0  0  0  0  0  0  0  0  0  0  0
    0.6495    3.3750    0.0000 C   0  0  0  0  0  0  0  0  0  0  0  0
   -7.1447    4.8750    0.0000 C   0  0  0  0  0  0  0  0  0  0  0  0
    1.9486    5.6250    0.0000 C   0  0  0  0  0  0  0  0  0  0  0  0
   -5.8457    5.6250    0.0000 C   0  0  0  0  0  0  0  0  0  0  0  0
   -4.5466    4.8750    0.0000 C   0  0  0  0  0  0  0  0  0  0  0  0
   -3.2476    5.6250    0.0000 C   0  0  0  0  0  0  0  0  0  0  0  0
    0.6495    4.8750    0.0000 C   0  0  0  0  0  0  0  0  0  0  0  0
   -0.6495    5.6250    0.0000 C   0  0  0  0  0  0  0  0  0  0  0  0
   -0.6495    7.1250    0.0000 O   0  0  0  0  0  0  0  0  0  0  0  0
   -1.9486    4.8750    0.0000 O   0  0  0  0  0  0  0  0  0  0  0  0
  4  1  1  0
  5  2  1  0
  6  4  1  0
  7  6  1  0
  8  7  1  0
  9  3  1  0
  9  5  1  0
 10  9  1  0
 11 10  2  0
 12  8  1  0
 12 10  1  0
M  END
>  <NAME>  (3132) 
PENTYL 2-METHYLBUTYRATE

>  <SYNONYMS>  (3132) 


>  <SPECTRUM TYPE>  (3132) 
MS1

>  <INSTRUMENT TYPE>  (3132) 
EI-B

>  <INSTRUMENT>  (3132) 
HITACHI M-80B

>  <ION MODE>  (3132) 
P

>  <INCHIKEY>  (3132) 
RHNBXPIJLXBHMF-UHFFFAOYSA-N

>  <FORMULA>  (3132) 
C10H20O2

>  <EXACT MASS>  (3132) 
172.14632988

>  <MW>  (3132) 
172

>  <ID>  (3132) 
JP007090

>  <CONTRIBUTOR>  (3132) 
University of Tokyo Team, {Faculty of Engineering, University of Tokyo

>  <COMMENT>  (3132) 
SMILES=CCCCCOC(=O)C(C)CC
InChI=InChI=1S/C10H20O2/c1-4-6-7-8-12-10(11)9(3)5-2/h9H,4-8H2,1-3H3
computed SMILES=O=C(OCCCCC)C(C)CC
accession=JP007090
date=2016.01.19 (Created 2008.10.21, modified 2011.05.06)
author=SODA AROMATIC CO., LTD.
license=CC BY-NC-SA
exact mass=172.14633
ionization energy=70 eV
ion type=[M]+*
computed spectral entropy=2.740171662817596
computed normalized entropy=0.7979562822012398
SPLASH=splash10-0kfx-9100000000-977abe58a768150e0a15
submitter=submitter = University of Tokyo Team (Faculty of Engineering, University of Tokyo)
MoNA Rating=3.75

>  <NUM PEAKS>  (3132) 
31

>  <MASS SPECTRAL PEAKS>  (3132) 
26 1.54
27 21.81
29 47.54
30 1.04
31 1.53
39 14.24
41 52.65
42 25.22
43 64.49
44 1.99
45 1.75
53 2.16
54 1
55 25.17
56 10.46
57 99.99
58 4.8
69 6.37
70 53.4
71 12.67
73 2.01
74 23.3
75 2.26
85 63.42
86 3.13
87 9.81
102 5.23
103 98.42
104 5.92
115 4.29
144 3.86

>  <PREDICTED SPECTRUM>  (3132) 
26 63
27 283
28 96
29 447
36 11
38 29
39 277
40 108
41 642
42 372
43 570
44 192
45 183
46 0
51 32
52 37
53 115
54 120
55 406
56 481
57 999
58 242
59 75
60 69
68 33
69 357
70 714
71 532
72 150
73 174
74 272
75 45
85 859
86 156
87 143
88 29
89 105
99 0
101 49
102 140
103 823
115 298
116 49
117 176
144 145
145 4

$$$$

     RDKit          2D

 11 10  0  0  0  0  0  0  0  0999 V2000
    2.2733    4.3125    0.0000 C   0  0  0  0  0  0  0  0  0  0  0  0
   -6.8200    5.0625    0.0000 C   0  0  0  0  0  0  0  0  0  0  0  0
   -5.5209    2.8125    0.0000 C   0  0  0  0  0  0  0  0  0  0  0  0
   -0.3248    2.8125    0.0000 C   0  0  0  0  0  0  0  0  0  0  0  0
    0.9743    5.0625    0.0000 C   0  0  0  0  0  0  0  0  0  0  0  0
   -4.2219    5.0625    0.0000 C   0  0  0  0  0  0  0  0  0  0  0  0
   -5.5209    4.3125    0.0000 C   0  0  0  0  0  0  0  0  0  0  0  0
   -0.3248    4.3125    0.0000 C   0  0  0  0  0  0  0  0  0  0  0  0
   -1.6238    5.0625    0.0000 C   0  0  0  0  0  0  0  0  0  0  0  0
   -1.6238    6.5625    0.0000 O   0  0  0  0  0  0  0  0  0  0  0  0
   -2.9228    4.3125    0.0000 O   0  0  0  0  0  0  0  0  0  0  0  0
  5  1  1  0
  7  2  1  0
  7  3  1  0
  7  6  1  0
  8  4  1  0
  8  5  1  0
  9  8  1  0
 10  9  2  0
 11  6  1  0
 11  9  1  0
M  END
>  <NAME>  (3133) 
ISOBUTYL 2-METHYLBUTYRATE

>  <SYNONYMS>  (3133) 


>  <SPECTRUM TYPE>  (3133) 
MS1

>  <INSTRUMENT TYPE>  (3133) 
EI-B

>  <INSTRUMENT>  (3133) 
HITACHI M-80B

>  <ION MODE>  (3133) 
P

>  <INCHIKEY>  (3133) 
NWZQCEQAPBRMFX-UHFFFAOYSA-N

>  <FORMULA>  (3133) 
C9H18O2

>  <EXACT MASS>  (3133) 
158.130679816

>  <MW>  (3133) 
158

>  <ID>  (3133) 
JP007089

>  <CONTRIBUTOR>  (3133) 
University of Tokyo Team, {Faculty of Engineering, University of Tokyo

>  <COMMENT>  (3133) 
SMILES=CCC(C)C(=O)OCC(C)C
cas=2445-67-2
InChI=InChI=1S/C9H18O2/c1-5-8(4)9(10)11-6-7(2)3/h7-8H,5-6H2,1-4H3
computed SMILES=O=C(OCC(C)C)C(C)CC
accession=JP007089
date=2016.01.19 (Created 2008.10.21, modified 2011.05.06)
author=SODA AROMATIC CO., LTD.
license=CC BY-NC-SA
exact mass=158.13068
ionization energy=70 eV
ion type=[M]+*
computed spectral entropy=2.281422894765449
computed normalized entropy=0.761557671526795
SPLASH=splash10-0a4i-9100000000-51b1e6cba3f9da42b5ad
submitter=submitter = University of Tokyo Team (Faculty of Engineering, University of Tokyo)
MoNA Rating=3.75

>  <NUM PEAKS>  (3133) 
20

>  <MASS SPECTRAL PEAKS>  (3133) 
27 10.59
29 25.52
39 9.15
41 34.96
42 2.33
43 4.66
55 4.92
56 37.7
57 99.99
58 4.71
73 2.17
74 10.19
85 66.57
86 2.98
87 4.51
102 2.13
103 29
104 1.4
115 2.16
130 3.79

>  <PREDICTED SPECTRUM>  (3133) 
26 51
27 209
28 93
29 391
30 48
31 16
38 26
39 199
40 76
41 544
42 203
43 265
44 89
45 146
49 2
50 37
51 25
52 47
53 83
54 39
55 254
56 588
57 999
58 174
59 164
60 69
69 127
73 160
74 223
75 74
76 0
84 11
85 580
86 118
87 183
101 219
102 111
103 614
104 151
130 252
131 117

$$$$

     RDKit          2D

 11 10  0  0  0  0  0  0  0  0999 V2000
    2.5981    4.5000    0.0000 C   0  0  0  0  0  0  0  0  0  0  0  0
   -7.7942    4.5000    0.0000 C   0  0  0  0  0  0  0  0  0  0  0  0
   -5.1962    3.0000    0.0000 C   0  0  0  0  0  0  0  0  0  0  0  0
    1.2990    5.2500    0.0000 C   0  0  0  0  0  0  0  0  0  0  0  0
   -6.4952    5.2500    0.0000 C   0  0  0  0  0  0  0  0  0  0  0  0
    0.0000    4.5000    0.0000 C   0  0  0  0  0  0  0  0  0  0  0  0
   -1.2990    5.2500    0.0000 C   0  0  0  0  0  0  0  0  0  0  0  0
   -5.1962    4.5000    0.0000 C   0  0  0  0  0  0  0  0  0  0  0  0
   -3.8971    5.2500    0.0000 C   0  0  0  0  0  0  0  0  0  0  0  0
   -3.8971    6.7500    0.0000 O   0  0  0  0  0  0  0  0  0  0  0  0
   -2.5981    4.5000    0.0000 O   0  0  0  0  0  0  0  0  0  0  0  0
  4  1  1  0
  5  2  1  0
  6  4  1  0
  7  6  1  0
  8  3  1  0
  8  5  1  0
  9  8  1  0
 10  9  2  0
 11  7  1  0
 11  9  1  0
M  END
>  <NAME>  (3134) 
BUTYL 2-METHYLBUTYRATE

>  <SYNONYMS>  (3134) 


>  <SPECTRUM TYPE>  (3134) 
MS1

>  <INSTRUMENT TYPE>  (3134) 
EI-B

>  <INSTRUMENT>  (3134) 
HITACHI M-80B

>  <ION MODE>  (3134) 
P

>  <INCHIKEY>  (3134) 
OTKQNSSMCDLVQV-UHFFFAOYSA-N

>  <FORMULA>  (3134) 
C9H18O2

>  <EXACT MASS>  (3134) 
158.130679816

>  <MW>  (3134) 
158

>  <ID>  (3134) 
JP007088

>  <CONTRIBUTOR>  (3134) 
University of Tokyo Team, {Faculty of Engineering, University of Tokyo

>  <COMMENT>  (3134) 
SMILES=CCCCOC(=O)C(C)CC
InChI=InChI=1S/C9H18O2/c1-4-6-7-11-9(10)8(3)5-2/h8H,4-7H2,1-3H3
computed SMILES=O=C(OCCCC)C(C)CC
accession=JP007088
date=2016.01.19 (Created 2008.10.21, modified 2011.05.06)
author=SODA AROMATIC CO., LTD.
license=CC BY-NC-SA
exact mass=158.13068
ionization energy=70 eV
ion type=[M]+*
computed spectral entropy=2.4794300666769895
computed normalized entropy=0.7610057092361827
SPLASH=splash10-0a4i-9100000000-bfda478a0239c2a9e67c
submitter=submitter = University of Tokyo Team (Faculty of Engineering, University of Tokyo)
MoNA Rating=3.75

>  <NUM PEAKS>  (3134) 
26

>  <MASS SPECTRAL PEAKS>  (3134) 
26 1.39
27 16.92
29 42.67
30 1.03
31 1.15
39 10.99
41 46.92
42 3.11
43 5.46
45 1.35
53 1.3
55 8.62
56 37.46
57 99.99
58 4.9
73 2.66
74 18.56
75 1.53
85 52.93
86 3.22
87 8.23
102 3.48
103 62.86
104 3.81
115 1.22
130 4.96

>  <PREDICTED SPECTRUM>  (3134) 
25 6
26 61
27 223
28 97
29 417
30 23
31 4
36 6
37 25
38 47
39 231
40 95
41 550
42 177
43 213
44 72
45 148
46 20
49 36
50 49
51 31
52 35
53 69
54 26
55 224
56 691
57 999
58 193
59 110
60 87
67 18
69 5
73 263
74 235
75 117
84 173
85 581
86 104
87 193
101 226
102 142
103 528
104 66
130 311
131 92

$$$$

     RDKit          2D

 10  9  0  0  0  0  0  0  0  0999 V2000
    1.9486    3.3750    0.0000 C   0  0  0  0  0  0  0  0  0  0  0  0
   -5.8457    3.3750    0.0000 C   0  0  0  0  0  0  0  0  0  0  0  0
   -4.5466    5.6250    0.0000 C   0  0  0  0  0  0  0  0  0  0  0  0
   -0.6495    1.8750    0.0000 C   0  0  0  0  0  0  0  0  0  0  0  0
    0.6495    4.1250    0.0000 C   0  0  0  0  0  0  0  0  0  0  0  0
   -4.5466    4.1250    0.0000 C   0  0  0  0  0  0  0  0  0  0  0  0
   -0.6495    3.3750    0.0000 C   0  0  0  0  0  0  0  0  0  0  0  0
   -1.9486    4.1250    0.0000 C   0  0  0  0  0  0  0  0  0  0  0  0
   -1.9486    5.6250    0.0000 O   0  0  0  0  0  0  0  0  0  0  0  0
   -3.2476    3.3750    0.0000 O   0  0  0  0  0  0  0  0  0  0  0  0
  5  1  1  0
  6  2  1  0
  6  3  1  0
  7  4  1  0
  7  5  1  0
  8  7  1  0
  9  8  2  0
 10  6  1  0
 10  8  1  0
M  END
>  <NAME>  (3135) 
ISOPROPYL 2-METHYLBUTYRATE

>  <SYNONYMS>  (3135) 


>  <SPECTRUM TYPE>  (3135) 
MS1

>  <INSTRUMENT TYPE>  (3135) 
EI-B

>  <INSTRUMENT>  (3135) 
HITACHI M-80B

>  <ION MODE>  (3135) 
P

>  <INCHIKEY>  (3135) 
DIRDKDDFAMNBNY-UHFFFAOYSA-N

>  <FORMULA>  (3135) 
C8H16O2

>  <EXACT MASS>  (3135) 
144.115029752

>  <MW>  (3135) 
144

>  <ID>  (3135) 
JP007087

>  <CONTRIBUTOR>  (3135) 
University of Tokyo Team, {Faculty of Engineering, University of Tokyo

>  <COMMENT>  (3135) 
SMILES=CCC(C)C(=O)OC(C)C
InChI=InChI=1S/C8H16O2/c1-5-7(4)8(9)10-6(2)3/h6-7H,5H2,1-4H3
computed SMILES=O=C(OC(C)C)C(C)CC
accession=JP007087
date=2016.01.19 (Created 2008.10.21, modified 2011.05.06)
author=SODA AROMATIC CO., LTD.
license=CC BY-NC-SA
exact mass=144.11503
ionization energy=70 eV
ion type=[M]+*
computed spectral entropy=2.574971480519174
computed normalized entropy=0.7727531346459239
SPLASH=splash10-052f-9100000000-7ab9569d04b425087b93
submitter=submitter = University of Tokyo Team (Faculty of Engineering, University of Tokyo)
MoNA Rating=3.75

>  <NUM PEAKS>  (3135) 
28

>  <MASS SPECTRAL PEAKS>  (3135) 
15 1.07
17 1.79
18 9.47
26 1.3
27 14.63
29 13.89
39 11.69
41 36.23
42 5.34
43 99.99
44 2.28
45 3.45
53 1.06
55 3.67
56 10.95
57 79.41
58 2.98
59 10.32
73 1.99
74 17.44
85 48.89
86 2.46
87 6.15
102 5.92
103 23.78
104 1.23
116 14.15
129 2.93

>  <PREDICTED SPECTRUM>  (3135) 
15 44
26 68
27 304
28 103
29 280
31 50
38 53
39 285
40 89
41 537
42 283
43 709
44 143
45 253
50 7
53 80
54 82
55 156
56 241
57 999
58 281
59 353
60 193
61 144
69 51
70 46
72 14
73 151
74 253
85 911
86 126
87 411
102 497
103 196
104 22
116 85
129 235

$$$$

     RDKit          2D

 10  9  0  0  0  0  0  0  0  0999 V2000
   -6.4952    4.5000    0.0000 C   0  0  0  0  0  0  0  0  0  0  0  0
    2.5981    3.7500    0.0000 C   0  0  0  0  0  0  0  0  0  0  0  0
   -0.0000    2.2500    0.0000 C   0  0  0  0  0  0  0  0  0  0  0  0
   -5.1962    3.7500    0.0000 C   0  0  0  0  0  0  0  0  0  0  0  0
    1.2990    4.5000    0.0000 C   0  0  0  0  0  0  0  0  0  0  0  0
   -3.8971    4.5000    0.0000 C   0  0  0  0  0  0  0  0  0  0  0  0
   -0.0000    3.7500    0.0000 C   0  0  0  0  0  0  0  0  0  0  0  0
   -1.2990    4.5000    0.0000 C   0  0  0  0  0  0  0  0  0  0  0  0
   -1.2990    6.0000    0.0000 O   0  0  0  0  0  0  0  0  0  0  0  0
   -2.5981    3.7500    0.0000 O   0  0  0  0  0  0  0  0  0  0  0  0
  4  1  1  0
  5  2  1  0
  6  4  1  0
  7  3  1  0
  7  5  1  0
  8  7  1  0
  9  8  2  0
 10  6  1  0
 10  8  1  0
M  END
>  <NAME>  (3136) 
PROPYL 2-METHYLBUTYRATE

>  <SYNONYMS>  (3136) 


>  <SPECTRUM TYPE>  (3136) 
MS1

>  <INSTRUMENT TYPE>  (3136) 
EI-B

>  <INSTRUMENT>  (3136) 
HITACHI M-80B

>  <ION MODE>  (3136) 
P

>  <INCHIKEY>  (3136) 
TZFQMSDUSOTCJC-UHFFFAOYSA-N

>  <FORMULA>  (3136) 
C8H16O2

>  <EXACT MASS>  (3136) 
144.115029752

>  <MW>  (3136) 
144

>  <ID>  (3136) 
JP007086

>  <CONTRIBUTOR>  (3136) 
University of Tokyo Team, {Faculty of Engineering, University of Tokyo

>  <COMMENT>  (3136) 
SMILES=CCCOC(=O)C(C)CC
InChI=InChI=1S/C8H16O2/c1-4-6-10-8(9)7(3)5-2/h7H,4-6H2,1-3H3
computed SMILES=O=C(OCCC)C(C)CC
accession=JP007086
date=2016.01.19 (Created 2008.10.21, modified 2011.05.06)
author=SODA AROMATIC CO., LTD.
license=CC BY-NC-SA
exact mass=144.11503
ionization energy=70 eV
ion type=[M]+*
computed spectral entropy=2.661377432989335
computed normalized entropy=0.7824825008211453
SPLASH=splash10-0pdu-9100000000-1c59ecccd9fed67fec30
submitter=submitter = University of Tokyo Team (Faculty of Engineering, University of Tokyo)
MoNA Rating=3.75

>  <NUM PEAKS>  (3136) 
30

>  <MASS SPECTRAL PEAKS>  (3136) 
15 1.07
26 2.35
27 27.07
29 32.99
30 1.2
31 2.74
39 14
41 49.82
42 11.2
43 49.39
44 1.23
45 2.48
53 1.22
55 5.74
56 11.38
57 99.99
58 4.63
59 4.99
69 1.27
73 3.57
74 25
75 3.57
85 68.29
86 4.44
87 12.81
102 3.65
103 70.05
104 4.19
115 1.96
116 12.24

>  <PREDICTED SPECTRUM>  (3136) 
15 9
25 13
26 84
27 328
28 109
29 371
31 80
37 26
38 70
39 287
40 99
41 592
42 266
43 679
44 132
45 214
49 14
50 69
51 45
53 88
54 58
55 173
56 350
57 999
58 181
59 236
60 122
61 160
69 129
70 96
71 51
73 218
74 308
75 22
83 25
84 101
85 896
86 150
87 384
89 16
101 7
102 329
103 132
115 55
116 279
117 47
129 37

$$$$

     RDKit          2D

  9  8  0  0  0  0  0  0  0  0999 V2000
    1.9486    3.3750    0.0000 C   0  0  0  0  0  0  0  0  0  0  0  0
   -5.8457    3.3750    0.0000 C   0  0  0  0  0  0  0  0  0  0  0  0
   -0.6495    1.8750    0.0000 C   0  0  0  0  0  0  0  0  0  0  0  0
    0.6495    4.1250    0.0000 C   0  0  0  0  0  0  0  0  0  0  0  0
   -4.5466    4.1250    0.0000 C   0  0  0  0  0  0  0  0  0  0  0  0
   -0.6495    3.3750    0.0000 C   0  0  0  0  0  0  0  0  0  0  0  0
   -1.9486    4.1250    0.0000 C   0  0  0  0  0  0  0  0  0  0  0  0
   -1.9486    5.6250    0.0000 O   0  0  0  0  0  0  0  0  0  0  0  0
   -3.2476    3.3750    0.0000 O   0  0  0  0  0  0  0  0  0  0  0  0
  4  1  1  0
  5  2  1  0
  6  3  1  0
  6  4  1  0
  7  6  1  0
  8  7  2  0
  9  5  1  0
  9  7  1  0
M  END
>  <NAME>  (3137) 
ETHYL 2-METHYLBUTYRATE

>  <SYNONYMS>  (3137) 


>  <SPECTRUM TYPE>  (3137) 
MS1

>  <INSTRUMENT TYPE>  (3137) 
EI-B

>  <INSTRUMENT>  (3137) 
HITACHI M-80B

>  <ION MODE>  (3137) 
P

>  <INCHIKEY>  (3137) 
HCRBXQFHJMCTLF-UHFFFAOYSA-N

>  <FORMULA>  (3137) 
C7H14O2

>  <EXACT MASS>  (3137) 
130.099379688

>  <MW>  (3137) 
130

>  <ID>  (3137) 
JP007085

>  <CONTRIBUTOR>  (3137) 
University of Tokyo Team, {Faculty of Engineering, University of Tokyo

>  <COMMENT>  (3137) 
SMILES=CCOC(=O)C(C)CC
cas=7452-79-1
InChI=InChI=1S/C7H14O2/c1-4-6(3)7(8)9-5-2/h6H,4-5H2,1-3H3
computed SMILES=O=C(OCC)C(C)CC
accession=JP007085
date=2016.01.19 (Created 2008.10.21, modified 2011.05.06)
author=SODA AROMATIC CO., LTD.
license=CC BY-NC-SA
exact mass=130.09938
ionization energy=70 eV
ion type=[M]+*
computed spectral entropy=2.5042072114490175
computed normalized entropy=0.7779757119246916
SPLASH=splash10-0pdi-9200000000-bdeaf3cfa63daefe3b19
submitter=submitter = University of Tokyo Team (Faculty of Engineering, University of Tokyo)
MoNA Rating=3.75

>  <NUM PEAKS>  (3137) 
25

>  <MASS SPECTRAL PEAKS>  (3137) 
26 2.19
27 19.02
29 52.61
30 1.35
39 8.75
41 36.01
42 2.14
43 2.73
45 7.91
53 1.39
55 6.87
56 12.58
57 99.99
58 4.1
69 1.65
73 5.63
74 22.72
75 2.04
85 39.65
86 2
87 13.52
102 70.68
103 8.7
115 9.12
130 1.65

>  <PREDICTED SPECTRUM>  (3137) 
14 7
15 26
25 6
26 96
27 317
28 174
29 598
30 87
31 111
38 28
39 254
40 86
41 556
42 136
43 106
44 57
45 216
46 106
47 167
50 54
51 40
52 33
53 83
54 59
55 254
56 435
57 999
58 138
59 218
60 122
61 211
69 168
70 29
72 4
73 301
74 363
75 243
84 191
85 773
86 105
87 81
88 212
101 284
102 484
103 240
115 69
130 149
131 46

$$$$

     RDKit          2D

  8  7  0  0  0  0  0  0  0  0999 V2000
    1.9486    2.6250    0.0000 C   0  0  0  0  0  0  0  0  0  0  0  0
   -0.6495    1.1250    0.0000 C   0  0  0  0  0  0  0  0  0  0  0  0
   -4.5466    3.3750    0.0000 C   0  0  0  0  0  0  0  0  0  0  0  0
    0.6495    3.3750    0.0000 C   0  0  0  0  0  0  0  0  0  0  0  0
   -0.6495    2.6250    0.0000 C   0  0  0  0  0  0  0  0  0  0  0  0
   -1.9486    3.3750    0.0000 C   0  0  0  0  0  0  0  0  0  0  0  0
   -1.9486    4.8750    0.0000 O   0  0  0  0  0  0  0  0  0  0  0  0
   -3.2476    2.6250    0.0000 O   0  0  0  0  0  0  0  0  0  0  0  0
  4  1  1  0
  5  2  1  0
  5  4  1  0
  6  5  1  0
  7  6  2  0
  8  3  1  0
  8  6  1  0
M  END
>  <NAME>  (3138) 
METHYL 2-METHYLBUTYRATE

>  <SYNONYMS>  (3138) 


>  <SPECTRUM TYPE>  (3138) 
MS1

>  <INSTRUMENT TYPE>  (3138) 
EI-B

>  <INSTRUMENT>  (3138) 
HITACHI M-80B

>  <ION MODE>  (3138) 
P

>  <INCHIKEY>  (3138) 
OCWLYWIFNDCWRZ-UHFFFAOYSA-N

>  <FORMULA>  (3138) 
C6H12O2

>  <EXACT MASS>  (3138) 
116.083729624

>  <MW>  (3138) 
116

>  <ID>  (3138) 
JP007084

>  <CONTRIBUTOR>  (3138) 
University of Tokyo Team, {Faculty of Engineering, University of Tokyo

>  <COMMENT>  (3138) 
SMILES=CCC(C)C(=O)OC
cas=868-57-5
InChI=InChI=1S/C6H12O2/c1-4-5(2)6(7)8-3/h5H,4H2,1-3H3
computed SMILES=O=C(OC)C(C)CC
accession=JP007084
date=2016.01.19 (Created 2008.10.21, modified 2011.05.06)
author=SODA AROMATIC CO., LTD.
license=CC BY-NC-SA
exact mass=116.08373
ionization energy=70 eV
ion type=[M]+*
computed spectral entropy=2.618836487228321
computed normalized entropy=0.7699748627786204
SPLASH=splash10-052r-9000000000-8e5fb68d71a8de2419d0
submitter=submitter = University of Tokyo Team (Faculty of Engineering, University of Tokyo)
MoNA Rating=3.75

>  <NUM PEAKS>  (3138) 
30

>  <MASS SPECTRAL PEAKS>  (3138) 
15 12.34
26 3.49
27 22.58
29 44.19
30 1.26
31 2.53
38 1.24
39 17.05
41 54.04
42 4.23
43 2.25
45 2.44
51 1.02
53 2.69
55 11.52
56 19.27
57 97.58
58 4.59
59 23.22
60 1.09
61 1.26
69 8.55
73 2.66
85 31.39
86 1.46
87 8.66
88 99.99
89 5.22
101 27.61
102 1.24

>  <PREDICTED SPECTRUM>  (3138) 
15 55
26 30
27 191
28 75
29 320
31 94
33 62
38 45
39 278
40 87
41 515
42 105
45 49
53 79
54 58
55 305
56 268
57 999
58 172
59 283
60 108
69 58
71 31
73 39
74 126
85 500
87 97
88 391
89 67
101 100
116 50

$$$$

     RDKit          2D

 13 13  0  0  0  0  0  0  0  0999 V2000
   -1.8335    0.5083    0.0000 C   0  0  0  0  0  0  0  0  0  0  0  0
   -0.5368   -1.7431    0.0000 C   0  0  0  0  0  0  0  0  0  0  0  0
    7.5924    2.2989    0.0000 C   0  0  0  0  0  0  0  0  0  0  0  0
    6.1252    1.9870    0.0000 C   0  0  0  0  0  0  0  0  0  0  0  0
    8.3376    1.0055    0.0000 C   0  0  0  0  0  0  0  0  0  0  0  0
    0.7645    0.5056    0.0000 C   0  0  0  0  0  0  0  0  0  0  0  0
    4.6609   -0.2484    0.0000 C   0  0  0  0  0  0  0  0  0  0  0  0
   -0.5353   -0.2431    0.0000 C   0  0  0  0  0  0  0  0  0  0  0  0
    5.9607    0.5003    0.0000 C   0  0  0  0  0  0  0  0  0  0  0  0
    2.0628   -0.2457    0.0000 C   0  0  0  0  0  0  0  0  0  0  0  0
    2.0613   -1.7457    0.0000 O   0  0  0  0  0  0  0  0  0  0  0  0
    7.3370   -0.1068    0.0000 O   0  0  0  0  0  0  0  0  0  0  0  0
    3.3626    0.5030    0.0000 O   0  0  0  0  0  0  0  0  0  0  0  0
  4  3  1  0
  5  3  2  0
  8  1  1  0
  8  2  1  0
  8  6  1  0
  9  4  2  0
  9  7  1  0
 10  6  1  0
 11 10  2  0
 12  5  1  0
 12  9  1  0
 13  7  1  0
 13 10  1  0
M  END
>  <NAME>  (3139) 
FURFURYL ISOVALERATE

>  <SYNONYMS>  (3139) 


>  <SPECTRUM TYPE>  (3139) 
MS1

>  <INSTRUMENT TYPE>  (3139) 
EI-B

>  <INSTRUMENT>  (3139) 
HITACHI M-80B

>  <ION MODE>  (3139) 
P

>  <INCHIKEY>  (3139) 
FKGUIBCHHSHJNQ-UHFFFAOYSA-N

>  <FORMULA>  (3139) 
C10H14O3

>  <EXACT MASS>  (3139) 
182.09429430799997

>  <MW>  (3139) 
182

>  <ID>  (3139) 
JP007082

>  <CONTRIBUTOR>  (3139) 
University of Tokyo Team, {Faculty of Engineering, University of Tokyo

>  <COMMENT>  (3139) 
SMILES=CC(C)CC(=O)OCc(c1)occ1
InChI=InChI=1S/C10H14O3/c1-8(2)6-10(11)13-7-9-4-3-5-12-9/h3-5,8H,6-7H2,1-2H3
computed SMILES=O=C(OCC=1OC=CC1)CC(C)C
accession=JP007082
date=2016.01.19 (Created 2008.10.21, modified 2011.05.06)
author=SODA AROMATIC CO., LTD.
license=CC BY-NC-SA
exact mass=182.09429
ionization energy=70 eV
ion type=[M]+*
computed spectral entropy=2.4863894266109385
computed normalized entropy=0.7383935217301433
SPLASH=splash10-001i-9000000000-53a8460f17b1f9b4430b
submitter=submitter = University of Tokyo Team (Faculty of Engineering, University of Tokyo)
MoNA Rating=3.75

>  <NUM PEAKS>  (3139) 
29

>  <MASS SPECTRAL PEAKS>  (3139) 
26 1.18
27 12.85
29 4.36
38 1.88
39 8.66
41 13.74
42 3.76
43 3.71
50 1.8
51 3.52
52 11.87
53 17.82
54 1.15
55 1.24
57 16.68
59 1.12
69 1.77
70 1.27
80 6.23
81 99.99
82 5.21
85 7.58
95 2.53
96 1.35
97 3.29
98 20.52
99 1.25
182 8.06
183 1.13

>  <PREDICTED SPECTRUM>  (3139) 
26 43
27 154
28 54
29 254
31 8
37 45
38 56
39 268
40 127
41 501
42 115
43 360
44 77
49 16
50 95
51 166
52 200
53 429
54 114
55 159
56 15
57 686
58 74
59 42
63 35
65 156
66 148
67 223
68 413
69 281
70 51
72 9
79 200
80 605
81 999
82 180
85 772
86 248
95 17
96 6
97 104
98 269
125 139
126 55
182 260
183 75

$$$$

     RDKit          2D

 16 16  0  0  0  0  0  0  0  0999 V2000
    4.8721    3.8829    0.0000 C   0  0  0  0  0  0  0  0  0  0  0  0
    3.5731    1.6329    0.0000 C   0  0  0  0  0  0  0  0  0  0  0  0
   -8.1183    5.3829    0.0000 C   0  0  0  0  0  0  0  0  0  0  0  0
   -8.1187    3.8821    0.0000 C   0  0  0  0  0  0  0  0  0  0  0  0
   -6.8187    6.1337    0.0000 C   0  0  0  0  0  0  0  0  0  0  0  0
   -2.9221    3.8829    0.0000 C   0  0  0  0  0  0  0  0  0  0  0  0
   -6.8197    3.1321    0.0000 C   0  0  0  0  0  0  0  0  0  0  0  0
   -5.5197    5.3837    0.0000 C   0  0  0  0  0  0  0  0  0  0  0  0
   -4.2212    3.1329    0.0000 C   0  0  0  0  0  0  0  0  0  0  0  0
   -1.6231    3.1329    0.0000 C   0  0  0  0  0  0  0  0  0  0  0  0
    2.2740    3.8829    0.0000 C   0  0  0  0  0  0  0  0  0  0  0  0
    3.5731    3.1329    0.0000 C   0  0  0  0  0  0  0  0  0  0  0  0
   -5.5202    3.8829    0.0000 C   0  0  0  0  0  0  0  0  0  0  0  0
    0.9750    3.1329    0.0000 C   0  0  0  0  0  0  0  0  0  0  0  0
    0.9750    1.6329    0.0000 O   0  0  0  0  0  0  0  0  0  0  0  0
   -0.3240    3.8829    0.0000 O   0  0  0  0  0  0  0  0  0  0  0  0
  4  3  2  0
  5  3  1  0
  7  4  1  0
  8  5  2  0
  9  6  1  0
 10  6  1  0
 12  1  1  0
 12  2  1  0
 12 11  1  0
 13  7  2  0
 13  8  1  0
 13  9  1  0
 14 11  1  0
 15 14  2  0
 16 10  1  0
 16 14  1  0
M  END
>  <NAME>  (3140) 
3-PHENYLPROPYL ISOVALERATE

>  <SYNONYMS>  (3140) 


>  <SPECTRUM TYPE>  (3140) 
MS1

>  <INSTRUMENT TYPE>  (3140) 
EI-B

>  <INSTRUMENT>  (3140) 
HITACHI M-80B

>  <ION MODE>  (3140) 
P

>  <INCHIKEY>  (3140) 
LBNFCOMOXOWXCD-UHFFFAOYSA-N

>  <FORMULA>  (3140) 
C14H20O2

>  <EXACT MASS>  (3140) 
220.14632988

>  <MW>  (3140) 
220

>  <ID>  (3140) 
JP007081

>  <CONTRIBUTOR>  (3140) 
University of Tokyo Team, {Faculty of Engineering, University of Tokyo

>  <COMMENT>  (3140) 
SMILES=CC(C)CC(=O)OCCCc(c1)cccc1
InChI=InChI=1S/C14H20O2/c1-12(2)11-14(15)16-10-6-9-13-7-4-3-5-8-13/h3-5,7-8,12H,6,9-11H2,1-2H3
computed SMILES=O=C(OCCCC=1C=CC=CC1)CC(C)C
accession=JP007081
date=2016.01.19 (Created 2008.10.21, modified 2011.05.06)
author=SODA AROMATIC CO., LTD.
license=CC BY-NC-SA
exact mass=220.14633
ionization energy=70 eV
ion type=[M]+*
computed spectral entropy=2.458013292988154
computed normalized entropy=0.745793372949341
SPLASH=splash10-014i-8900000000-bd7f39a5199a6656fcc4
submitter=submitter = University of Tokyo Team (Faculty of Engineering, University of Tokyo)
MoNA Rating=3.75

>  <NUM PEAKS>  (3140) 
27

>  <MASS SPECTRAL PEAKS>  (3140) 
27 6.74
29 8.73
39 8.9
41 20.33
42 2.97
43 7.57
51 3.04
52 1.02
55 1.44
57 20.67
63 1.5
65 7.84
77 5.42
78 3.04
79 2.11
85 7.63
89 1.3
91 41.28
92 4.35
103 3
104 1.9
105 2.39
115 1.99
116 2.04
117 49.13
118 99.99
119 12.01

>  <PREDICTED SPECTRUM>  (3140) 
25 7
26 73
27 213
28 63
29 246
37 5
38 40
39 252
40 114
41 455
42 183
43 515
44 148
45 50
50 91
51 129
52 81
53 123
54 94
55 226
56 173
57 430
58 81
59 36
60 60
61 68
62 17
63 79
64 39
65 245
66 81
67 34
69 160
76 12
77 178
78 143
79 131
83 37
84 185
85 305
86 89
87 7
89 91
90 83
91 713
92 277
93 18
101 1
102 13
103 141
104 289
105 256
115 239
116 177
117 861
118 999
119 391
120 132
121 32
135 28
136 46
137 39
163 81
220 79
221 13

$$$$

     RDKit          2D

 16 16  0  0  0  0  0  0  0  0999 V2000
    4.8721    3.8829    0.0000 C   0  0  0  0  0  0  0  0  0  0  0  0
    3.5731    1.6329    0.0000 C   0  0  0  0  0  0  0  0  0  0  0  0
   -8.1183    5.3829    0.0000 C   0  0  0  0  0  0  0  0  0  0  0  0
   -8.1187    3.8821    0.0000 C   0  0  0  0  0  0  0  0  0  0  0  0
   -6.8187    6.1337    0.0000 C   0  0  0  0  0  0  0  0  0  0  0  0
   -2.9221    3.8829    0.0000 C   0  0  0  0  0  0  0  0  0  0  0  0
   -6.8197    3.1321    0.0000 C   0  0  0  0  0  0  0  0  0  0  0  0
   -5.5197    5.3837    0.0000 C   0  0  0  0  0  0  0  0  0  0  0  0
   -4.2212    3.1329    0.0000 C   0  0  0  0  0  0  0  0  0  0  0  0
   -1.6231    3.1329    0.0000 C   0  0  0  0  0  0  0  0  0  0  0  0
    2.2740    3.8829    0.0000 C   0  0  0  0  0  0  0  0  0  0  0  0
    3.5731    3.1329    0.0000 C   0  0  0  0  0  0  0  0  0  0  0  0
   -5.5202    3.8829    0.0000 C   0  0  0  0  0  0  0  0  0  0  0  0
    0.9750    3.1329    0.0000 C   0  0  0  0  0  0  0  0  0  0  0  0
    0.9750    1.6329    0.0000 O   0  0  0  0  0  0  0  0  0  0  0  0
   -0.3240    3.8829    0.0000 O   0  0  0  0  0  0  0  0  0  0  0  0
  4  3  2  0
  5  3  1  0
  7  4  1  0
  8  5  2  0
  6  9  2  0
 10  6  1  0
 12  1  1  0
 12  2  1  0
 12 11  1  0
 13  7  2  0
 13  8  1  0
 13  9  1  0
 14 11  1  0
 15 14  2  0
 16 10  1  0
 16 14  1  0
M  END
>  <NAME>  (3141) 
CINNAMYL ISOVALERATE

>  <SYNONYMS>  (3141) 


>  <SPECTRUM TYPE>  (3141) 
MS1

>  <INSTRUMENT TYPE>  (3141) 
EI-B

>  <INSTRUMENT>  (3141) 
HITACHI M-80B

>  <ION MODE>  (3141) 
P

>  <INCHIKEY>  (3141) 
FOCMOGKCPPTERB-RMKNXTFCSA-N

>  <FORMULA>  (3141) 
C14H18O2

>  <EXACT MASS>  (3141) 
218.130679816

>  <MW>  (3141) 
218

>  <ID>  (3141) 
JP007080

>  <CONTRIBUTOR>  (3141) 
University of Tokyo Team, {Faculty of Engineering, University of Tokyo

>  <COMMENT>  (3141) 
SMILES=CC(C)CC(=O)OCC=Cc(c1)cccc1
cas=140-27-2
InChI=InChI=1S/C14H18O2/c1-12(2)11-14(15)16-10-6-9-13-7-4-3-5-8-13/h3-9,12H,10-11H2,1-2H3/b9-6+
computed SMILES=O=C(OCC=CC=1C=CC=CC1)CC(C)C
accession=JP007080
date=2016.01.19 (Created 2008.10.21, modified 2011.05.06)
author=SODA AROMATIC CO., LTD.
license=CC BY-NC-SA
exact mass=218.13068
ionization energy=70 eV
ion type=[M]+*
computed spectral entropy=2.7758025453078887
computed normalized entropy=0.7576786781356261
SPLASH=splash10-05n0-9300000000-e5ffc7977091a2b810ad
submitter=submitter = University of Tokyo Team (Faculty of Engineering, University of Tokyo)
MoNA Rating=3.75

>  <NUM PEAKS>  (3141) 
39

>  <MASS SPECTRAL PEAKS>  (3141) 
27 9.11
29 11.65
39 14.24
41 24.4
42 3.62
43 11.08
50 2.04
51 5.84
52 1.56
55 2.62
57 90.9
58 3.56
59 1.13
63 3.19
65 3.66
69 1.12
75 1
76 1.36
77 9.58
78 3.94
79 2.05
85 99.99
86 4.57
89 2.76
91 16.54
92 3.49
102 2.49
103 4.04
104 2.66
105 3.79
115 38.1
116 18.23
117 47.13
118 4.33
131 1.07
133 5.88
134 4.32
218 6.67
219 1.2

>  <PREDICTED SPECTRUM>  (3141) 
14 5
15 15
16 2
17 1
25 15
26 89
27 231
28 97
29 317
30 26
31 64
36 5
37 27
38 83
39 275
40 106
41 370
42 209
43 339
44 121
45 85
47 37
49 0
50 160
51 202
52 119
53 132
54 101
55 203
56 154
57 611
58 167
60 80
61 39
62 66
63 180
64 82
65 240
66 125
67 79
68 68
69 183
70 5
71 74
72 25
74 99
75 133
76 104
77 237
78 197
79 143
80 34
81 67
83 65
84 18
85 544
86 144
87 72
89 143
90 43
91 450
92 312
93 65
96 42
97 23
99 64
100 29
101 136
102 143
103 193
104 110
105 303
106 110
107 18
113 15
114 45
115 600
116 369
117 999
118 236
119 20
120 2
130 13
131 111
132 105
133 523
134 352
135 53
161 74
162 58
163 0
175 37
176 96
177 56
178 2
218 356
219 133
220 33

$$$$

     RDKit          2D

 15 15  0  0  0  0  0  0  0  0999 V2000
   -7.7940    4.8196    0.0000 C   0  0  0  0  0  0  0  0  0  0  0  0
   -6.4949    2.5696    0.0000 C   0  0  0  0  0  0  0  0  0  0  0  0
    3.8974    2.5696    0.0000 C   0  0  0  0  0  0  0  0  0  0  0  0
    3.8978    4.0704    0.0000 C   0  0  0  0  0  0  0  0  0  0  0  0
    2.5978    1.8188    0.0000 C   0  0  0  0  0  0  0  0  0  0  0  0
    2.5988    4.8204    0.0000 C   0  0  0  0  0  0  0  0  0  0  0  0
    1.2988    2.5688    0.0000 C   0  0  0  0  0  0  0  0  0  0  0  0
    0.0002    4.8196    0.0000 C   0  0  0  0  0  0  0  0  0  0  0  0
   -1.2988    4.0696    0.0000 C   0  0  0  0  0  0  0  0  0  0  0  0
   -5.1959    4.8196    0.0000 C   0  0  0  0  0  0  0  0  0  0  0  0
   -6.4949    4.0696    0.0000 C   0  0  0  0  0  0  0  0  0  0  0  0
    1.2993    4.0696    0.0000 C   0  0  0  0  0  0  0  0  0  0  0  0
   -3.8969    4.0696    0.0000 C   0  0  0  0  0  0  0  0  0  0  0  0
   -3.8969    2.5696    0.0000 O   0  0  0  0  0  0  0  0  0  0  0  0
   -2.5978    4.8196    0.0000 O   0  0  0  0  0  0  0  0  0  0  0  0
  4  3  2  0
  5  3  1  0
  6  4  1  0
  7  5  2  0
  9  8  1  0
 11  1  1  0
 11  2  1  0
 11 10  1  0
 12  6  2  0
 12  7  1  0
 12  8  1  0
 13 10  1  0
 14 13  2  0
 15  9  1  0
 15 13  1  0
M  END
>  <NAME>  (3142) 
PHENYLETHYL ISOVALERATE

>  <SYNONYMS>  (3142) 


>  <SPECTRUM TYPE>  (3142) 
MS1

>  <INSTRUMENT TYPE>  (3142) 
EI-B

>  <INSTRUMENT>  (3142) 
HITACHI M-80B

>  <ION MODE>  (3142) 
P

>  <INCHIKEY>  (3142) 
JIMGVOCOYZFDKB-UHFFFAOYSA-N

>  <FORMULA>  (3142) 
C13H18O2

>  <EXACT MASS>  (3142) 
206.130679816

>  <MW>  (3142) 
206

>  <ID>  (3142) 
JP007079

>  <CONTRIBUTOR>  (3142) 
University of Tokyo Team, {Faculty of Engineering, University of Tokyo

>  <COMMENT>  (3142) 
SMILES=CC(C)CC(=O)OCCc(c1)cccc1
InChI=InChI=1S/C13H18O2/c1-11(2)10-13(14)15-9-8-12-6-4-3-5-7-12/h3-7,11H,8-10H2,1-2H3
computed SMILES=O=C(OCCC=1C=CC=CC1)CC(C)C
accession=JP007079
date=2016.01.19 (Created 2008.10.21, modified 2011.05.06)
author=SODA AROMATIC CO., LTD.
license=CC BY-NC-SA
exact mass=206.13068
ionization energy=70 eV
ion type=[M]+*
computed spectral entropy=2.1827603137146356
computed normalized entropy=0.7169466996429233
SPLASH=splash10-0udi-7900000000-baa61a546a03d2c7b7c3
submitter=submitter = University of Tokyo Team (Faculty of Engineering, University of Tokyo)
MoNA Rating=3.75

>  <NUM PEAKS>  (3142) 
21

>  <MASS SPECTRAL PEAKS>  (3142) 
27 5.25
29 5.66
39 6.42
41 12.08
42 2.68
43 5.49
51 3.08
55 1.24
57 26.05
63 1.17
65 3.69
77 6.87
78 3.1
79 3.19
85 12.7
91 8.56
92 1.05
103 3.41
104 99.99
105 23.68
106 1.34

>  <PREDICTED SPECTRUM>  (3142) 
26 30
27 171
28 24
29 156
38 27
39 191
40 50
41 267
42 114
43 267
44 110
45 66
50 71
51 129
52 77
53 106
54 84
55 190
56 133
57 312
58 83
60 30
61 21
62 1
63 83
64 36
65 201
66 73
67 57
69 96
73 29
74 30
75 32
76 28
77 148
78 178
79 157
80 54
81 30
84 33
85 411
86 110
89 83
90 50
91 396
92 170
102 21
103 157
104 999
105 492
106 96
107 12
122 131
206 42
207 12

$$$$

     RDKit          2D

 14 14  0  0  0  0  0  0  0  0999 V2000
    2.6027    1.5000    0.0000 C   0  0  0  0  0  0  0  0  0  0  0  0
    1.3223   -0.7606    0.0000 C   0  0  0  0  0  0  0  0  0  0  0  0
   -7.8088   -1.5472    0.0000 C   0  0  0  0  0  0  0  0  0  0  0  0
   -6.5061    0.6964    0.0000 C   0  0  0  0  0  0  0  0  0  0  0  0
   -5.2361   -1.5536    0.0000 C   0  0  0  0  0  0  0  0  0  0  0  0
   -5.2361    1.4464    0.0000 C   0  0  0  0  0  0  0  0  0  0  0  0
   -3.8861   -0.8036    0.0000 C   0  0  0  0  0  0  0  0  0  0  0  0
    0.0047    1.4786    0.0000 C   0  0  0  0  0  0  0  0  0  0  0  0
    1.3099    0.7393    0.0000 C   0  0  0  0  0  0  0  0  0  0  0  0
   -6.5061   -0.8036    0.0000 C   0  0  0  0  0  0  0  0  0  0  0  0
   -3.8861    0.6964    0.0000 C   0  0  0  0  0  0  0  0  0  0  0  0
   -1.2881    0.7179    0.0000 C   0  0  0  0  0  0  0  0  0  0  0  0
   -1.2757   -0.7821    0.0000 O   0  0  0  0  0  0  0  0  0  0  0  0
   -2.5933    1.4571    0.0000 O   0  0  0  0  0  0  0  0  0  0  0  0
  6  4  2  0
  7  5  1  0
  9  1  1  0
  9  2  1  0
  9  8  1  0
 10  3  1  0
 10  4  1  0
 10  5  2  0
 11  6  1  0
 11  7  2  0
 12  8  1  0
 13 12  2  0
 14 11  1  0
 14 12  1  0
M  END
>  <NAME>  (3143) 
P-CRESYL ISOVALERATE

>  <SYNONYMS>  (3143) 


>  <SPECTRUM TYPE>  (3143) 
MS1

>  <INSTRUMENT TYPE>  (3143) 
EI-B

>  <INSTRUMENT>  (3143) 
HITACHI M-80B

>  <ION MODE>  (3143) 
P

>  <INCHIKEY>  (3143) 
MVDPTWHTUYDLTL-UHFFFAOYSA-N

>  <FORMULA>  (3143) 
C12H16O2

>  <EXACT MASS>  (3143) 
192.115029752

>  <MW>  (3143) 
192

>  <ID>  (3143) 
JP007078

>  <CONTRIBUTOR>  (3143) 
University of Tokyo Team, {Faculty of Engineering, University of Tokyo

>  <COMMENT>  (3143) 
SMILES=CC(C)CC(=O)Oc(c1)ccc(C)c1
InChI=InChI=1S/C12H16O2/c1-9(2)8-12(13)14-11-6-4-10(3)5-7-11/h4-7,9H,8H2,1-3H3
computed SMILES=O=C(OC1=CC=C(C=C1)C)CC(C)C
accession=JP007078
date=2016.01.19 (Created 2008.10.21, modified 2011.05.06)
author=SODA AROMATIC CO., LTD.
license=CC BY-NC-SA
exact mass=192.11503
ionization energy=70 eV
ion type=[M]+*
computed spectral entropy=2.4520119971901853
computed normalized entropy=0.735852793459325
SPLASH=splash10-0a4i-9800000000-ae3fe62535d29d3a9e9e
submitter=submitter = University of Tokyo Team (Faculty of Engineering, University of Tokyo)
MoNA Rating=3.75

>  <NUM PEAKS>  (3143) 
28

>  <MASS SPECTRAL PEAKS>  (3143) 
27 7.3
29 7.59
39 8.96
41 15.14
42 2.22
43 5.37
50 1.38
51 3.39
52 2.32
53 2.78
55 1.63
57 33.36
58 1.25
63 1.39
65 2.53
69 1.91
77 11.6
78 3.1
79 4.45
80 1.78
85 9.51
90 1.15
91 4.46
107 14.7
108 99.99
109 9.93
135 1.16
192 6.08

>  <PREDICTED SPECTRUM>  (3143) 
15 23
26 25
27 152
28 47
29 146
39 205
40 39
41 303
42 141
43 150
50 76
51 134
52 123
53 192
54 68
55 231
56 93
57 574
58 99
61 16
62 39
63 121
64 58
65 187
66 41
67 7
69 46
77 244
78 184
79 167
80 96
84 81
85 390
86 23
89 103
90 112
91 265
92 97
105 39
106 43
107 501
108 999
109 406
110 51
149 51
192 305
193 123

$$$$

     RDKit          2D

 14 14  0  0  0  0  0  0  0  0999 V2000
   -6.8197    3.1321    0.0000 C   0  0  0  0  0  0  0  0  0  0  0  0
   -5.5207    5.3821    0.0000 C   0  0  0  0  0  0  0  0  0  0  0  0
    3.5726    1.6321    0.0000 C   0  0  0  0  0  0  0  0  0  0  0  0
    3.5731    3.1329    0.0000 C   0  0  0  0  0  0  0  0  0  0  0  0
    2.2731    0.8813    0.0000 C   0  0  0  0  0  0  0  0  0  0  0  0
    2.2740    3.8829    0.0000 C   0  0  0  0  0  0  0  0  0  0  0  0
    0.9740    1.6313    0.0000 C   0  0  0  0  0  0  0  0  0  0  0  0
   -4.2216    3.1321    0.0000 C   0  0  0  0  0  0  0  0  0  0  0  0
   -0.3245    3.8821    0.0000 C   0  0  0  0  0  0  0  0  0  0  0  0
   -5.5207    3.8821    0.0000 C   0  0  0  0  0  0  0  0  0  0  0  0
    0.9745    3.1321    0.0000 C   0  0  0  0  0  0  0  0  0  0  0  0
   -2.9226    3.8821    0.0000 C   0  0  0  0  0  0  0  0  0  0  0  0
   -2.9226    5.3821    0.0000 O   0  0  0  0  0  0  0  0  0  0  0  0
   -1.6236    3.1321    0.0000 O   0  0  0  0  0  0  0  0  0  0  0  0
  4  3  2  0
  5  3  1  0
  6  4  1  0
  7  5  2  0
 10  1  1  0
 10  2  1  0
 10  8  1  0
 11  6  2  0
 11  7  1  0
 11  9  1  0
 12  8  1  0
 13 12  2  0
 14  9  1  0
 14 12  1  0
M  END
>  <NAME>  (3144) 
BENZYL ISOVALERATE

>  <SYNONYMS>  (3144) 


>  <SPECTRUM TYPE>  (3144) 
MS1

>  <INSTRUMENT TYPE>  (3144) 
EI-B

>  <INSTRUMENT>  (3144) 
HITACHI M-80B

>  <ION MODE>  (3144) 
P

>  <INCHIKEY>  (3144) 
HVJKZICIMIWFCP-UHFFFAOYSA-N

>  <FORMULA>  (3144) 
C12H16O2

>  <EXACT MASS>  (3144) 
192.115029752

>  <MW>  (3144) 
192

>  <ID>  (3144) 
JP007077

>  <CONTRIBUTOR>  (3144) 
University of Tokyo Team, {Faculty of Engineering, University of Tokyo

>  <COMMENT>  (3144) 
SMILES=CC(C)CC(=O)OCc(c1)cccc1
cas=103-38-8
InChI=InChI=1S/C12H16O2/c1-10(2)8-12(13)14-9-11-6-4-3-5-7-11/h3-7,10H,8-9H2,1-2H3
computed SMILES=O=C(OCC=1C=CC=CC1)CC(C)C
accession=JP007077
date=2016.01.19 (Created 2008.10.21, modified 2011.05.06)
author=SODA AROMATIC CO., LTD.
license=CC BY-NC-SA
exact mass=192.11503
ionization energy=70 eV
ion type=[M]+*
computed spectral entropy=2.4392131969507327
computed normalized entropy=0.7400891779901368
SPLASH=splash10-0006-9100000000-f2c708c08313abae60ff
submitter=submitter = University of Tokyo Team (Faculty of Engineering, University of Tokyo)
MoNA Rating=3.75

>  <NUM PEAKS>  (3144) 
27

>  <MASS SPECTRAL PEAKS>  (3144) 
27 5.79
29 12.65
39 7.6
41 12.25
50 1.23
51 4.63
52 1.15
55 1.54
56 1.1
57 36
58 1.34
63 2.4
65 10.35
77 6.09
78 1.29
79 4.2
85 11.4
89 3.48
90 5.39
91 99.99
92 9.13
105 1.32
107 3.3
108 16.41
109 1.09
192 12.53
193 1.38

>  <PREDICTED SPECTRUM>  (3144) 
18 10
26 47
27 198
28 74
29 159
38 34
39 265
40 99
41 443
42 161
43 429
44 88
45 31
50 124
51 216
52 131
53 115
55 57
56 81
57 481
58 170
62 44
63 164
64 55
65 373
66 70
67 26
68 19
69 58
74 43
75 17
76 29
77 309
78 152
79 326
80 104
84 38
85 478
86 130
87 12
89 231
90 240
91 999
92 375
93 54
101 12
102 48
104 92
105 220
106 82
107 705
108 563
109 95
115 1
136 49
147 40
150 46
192 375
193 148
194 26

$$$$

     RDKit          2D

 17 17  0  0  0  0  0  0  0  0999 V2000
    7.5051   -1.3310    0.0000 C   0  0  0  0  0  0  0  0  0  0  0  0
    6.2064    0.9192    0.0000 C   0  0  0  0  0  0  0  0  0  0  0  0
   -1.5890   -3.5800    0.0000 C   0  0  0  0  0  0  0  0  0  0  0  0
    1.0090   -3.5800    0.0000 C   0  0  0  0  0  0  0  0  0  0  0  0
   -0.2900    3.1700    0.0000 C   0  0  0  0  0  0  0  0  0  0  0  0
   -1.5900    0.9200    0.0000 C   0  0  0  0  0  0  0  0  0  0  0  0
   -1.5900   -0.5800    0.0000 C   0  0  0  0  0  0  0  0  0  0  0  0
    4.9070   -1.3306    0.0000 C   0  0  0  0  0  0  0  0  0  0  0  0
    1.0100    0.9200    0.0000 C   0  0  0  0  0  0  0  0  0  0  0  0
    6.2062   -0.5808    0.0000 C   0  0  0  0  0  0  0  0  0  0  0  0
   -0.2900   -2.8300    0.0000 C   0  0  0  0  0  0  0  0  0  0  0  0
   -0.2900    1.6700    0.0000 C   0  0  0  0  0  0  0  0  0  0  0  0
   -0.2900   -1.3300    0.0000 C   0  0  0  0  0  0  0  0  0  0  0  0
    1.0100   -0.5800    0.0000 C   0  0  0  0  0  0  0  0  0  0  0  0
    3.6081   -0.5804    0.0000 C   0  0  0  0  0  0  0  0  0  0  0  0
    3.6083    0.9196    0.0000 O   0  0  0  0  0  0  0  0  0  0  0  0
    2.3089   -1.3302    0.0000 O   0  0  0  0  0  0  0  0  0  0  0  0
  7  6  1  0
 10  1  1  0
 10  2  1  0
 10  8  1  0
 11  3  1  0
 11  4  1  0
 12  5  1  0
 12  6  1  0
 12  9  1  0
 13  7  1  0
 13 11  1  0
 14  9  1  0
 14 13  1  0
 15  8  1  0
 16 15  2  0
 17 14  1  0
 17 15  1  0
M  END
>  <NAME>  (3145) 
MENTHYL ISOVALERATE

>  <SYNONYMS>  (3145) 
3-MENTHYLBUTANOIC ACID METHYL ESTER

>  <SPECTRUM TYPE>  (3145) 
MS1

>  <INSTRUMENT TYPE>  (3145) 
EI-B

>  <INSTRUMENT>  (3145) 
HITACHI M-80B

>  <ION MODE>  (3145) 
P

>  <INCHIKEY>  (3145) 
VYQSSWZYPCCBRN-UHFFFAOYSA-N

>  <FORMULA>  (3145) 
C15H28O2

>  <EXACT MASS>  (3145) 
240.208930136

>  <MW>  (3145) 
240

>  <ID>  (3145) 
JP007076

>  <CONTRIBUTOR>  (3145) 
University of Tokyo Team, {Faculty of Engineering, University of Tokyo

>  <COMMENT>  (3145) 
SMILES=CC(C)CC(=O)OC(C1)C(CCC(C)1)C(C)C
cas=556-24-1
InChI=InChI=1S/C15H28O2/c1-10(2)8-15(16)17-14-9-12(5)6-7-13(14)11(3)4/h10-14H,6-9H2,1-5H3
computed SMILES=O=C(OC1CC(C)CCC1C(C)C)CC(C)C
accession=JP007076
date=2016.01.19 (Created 2008.10.21, modified 2011.05.06)
author=SODA AROMATIC CO., LTD.
license=CC BY-NC-SA
exact mass=240.20893
ionization energy=70 eV
ion type=[M]+*
computed spectral entropy=3.319880099570655
computed normalized entropy=0.8075850072909684
SPLASH=splash10-053m-9100000000-f0c9714bb1174870b5ed
submitter=submitter = University of Tokyo Team (Faculty of Engineering, University of Tokyo)
MoNA Rating=3.75

>  <NUM PEAKS>  (3145) 
61

>  <MASS SPECTRAL PEAKS>  (3145) 
15 1.47
27 12.61
28 15.46
29 15.31
31 1.27
32 2.96
34 1.33
38 1.33
39 13.61
41 52.53
42 6.52
43 28.22
45 1.59
51 2.33
52 1.82
53 8.25
54 6.13
55 37.48
56 6.15
57 80.56
58 3.68
59 2.41
60 1.91
63 1.08
65 2.8
66 1.71
67 20.68
68 9.03
69 16.84
70 2.86
71 3.92
77 4.46
78 1.74
79 7.54
80 6.04
81 62.67
82 20.48
83 25.78
84 3.42
85 73.94
86 4.04
91 3.06
93 3.59
94 10.36
95 99.99
96 19.75
97 6.84
103 2.42
107 1.42
109 6.22
110 4.25
111 1.51
112 1.91
123 24.5
124 3.16
137 2.78
138 69.07
139 11.52
140 1.49
142 1.7
155 1.33

>  <PREDICTED SPECTRUM>  (3145) 
26 28
27 183
28 52
29 252
39 208
40 48
41 597
42 192
43 529
44 107
51 17
52 17
53 198
54 257
55 564
56 309
57 801
58 176
59 27
65 111
66 83
67 503
68 257
69 460
70 163
71 361
77 201
78 26
79 281
80 313
81 816
82 546
83 659
84 200
85 623
86 99
87 106
93 178
94 290
95 986
96 528
97 259
98 39
103 231
107 91
109 378
110 276
111 67
112 4
113 16
123 627
124 221
137 175
138 999
139 437
140 140
155 74
156 29

$$$$

     RDKit          2D

 17 16  0  0  0  0  0  0  0  0999 V2000
   -7.1792    7.1532    0.0000 C   0  0  0  0  0  0  0  0  0  0  0  0
    1.7574    5.5147    0.0000 C   0  0  0  0  0  0  0  0  0  0  0  0
    0.4584    7.7647    0.0000 C   0  0  0  0  0  0  0  0  0  0  0  0
   -8.6349    1.0147    0.0000 C   0  0  0  0  0  0  0  0  0  0  0  0
   -6.0368    1.0147    0.0000 C   0  0  0  0  0  0  0  0  0  0  0  0
   -3.7736    7.4137    0.0000 C   0  0  0  0  0  0  0  0  0  0  0  0
   -5.7019    7.4137    0.0000 C   0  0  0  0  0  0  0  0  0  0  0  0
   -2.1397    6.2647    0.0000 C   0  0  0  0  0  0  0  0  0  0  0  0
   -0.8406    5.5147    0.0000 C   0  0  0  0  0  0  0  0  0  0  0  0
   -3.4387    5.5147    0.0000 C   0  0  0  0  0  0  0  0  0  0  0  0
   -7.3358    3.2647    0.0000 C   0  0  0  0  0  0  0  0  0  0  0  0
    0.4584    6.2647    0.0000 C   0  0  0  0  0  0  0  0  0  0  0  0
   -7.3358    1.7647    0.0000 C   0  0  0  0  0  0  0  0  0  0  0  0
   -6.0368    4.0147    0.0000 C   0  0  0  0  0  0  0  0  0  0  0  0
   -4.7378    6.2647    0.0000 C   0  0  0  0  0  0  0  0  0  0  0  0
   -4.7378    3.2647    0.0000 O   0  0  0  0  0  0  0  0  0  0  0  0
   -6.0368    5.5147    0.0000 O   0  0  0  0  0  0  0  0  0  0  0  0
  7  1  2  0
  9  8  1  0
 10  8  1  0
 12  2  1  0
 12  3  1  0
 12  9  2  0
 13  4  1  0
 13  5  1  0
 13 11  1  0
 14 11  1  0
 15  6  1  0
 15  7  1  0
 15 10  1  0
 16 14  2  0
 17 14  1  0
 17 15  1  0
M  END
>  <NAME>  (3146) 
LINALYL ISOVALERATE

>  <SYNONYMS>  (3146) 


>  <SPECTRUM TYPE>  (3146) 
MS1

>  <INSTRUMENT TYPE>  (3146) 
EI-B

>  <INSTRUMENT>  (3146) 
HITACHI M-80B

>  <ION MODE>  (3146) 
P

>  <INCHIKEY>  (3146) 
WCDGWAIZRYMVOW-UHFFFAOYSA-N

>  <FORMULA>  (3146) 
C15H26O2

>  <EXACT MASS>  (3146) 
238.193280072

>  <MW>  (3146) 
238

>  <ID>  (3146) 
JP007075

>  <CONTRIBUTOR>  (3146) 
University of Tokyo Team, {Faculty of Engineering, University of Tokyo

>  <COMMENT>  (3146) 
SMILES=CC(C)=CCCC(C)(C=C)OC(=O)CC(C)C
InChI=InChI=1S/C15H26O2/c1-7-15(6,10-8-9-12(2)3)17-14(16)11-13(4)5/h7,9,13H,1,8,10-11H2,2-6H3
computed SMILES=O=C(OC(C=C)(C)CCC=C(C)C)CC(C)C
accession=JP007075
date=2016.01.19 (Created 2008.10.21, modified 2011.05.06)
author=SODA AROMATIC CO., LTD.
license=CC BY-NC-SA
exact mass=238.19328
ionization energy=70 eV
ion type=[M]+*
computed spectral entropy=3.1718953899165787
computed normalized entropy=0.819356933669712
SPLASH=splash10-0006-9000000000-5d233945f4b2049b1bf8
submitter=submitter = University of Tokyo Team (Faculty of Engineering, University of Tokyo)
MoNA Rating=3.75

>  <NUM PEAKS>  (3146) 
48

>  <MASS SPECTRAL PEAKS>  (3146) 
18 4.94
26 1
27 21.25
29 10.83
38 1.54
39 28.98
40 2.74
41 76.06
42 4.66
43 11.4
45 1.24
50 1.87
51 5.42
52 3.37
53 17.44
54 1.69
55 10.04
57 10.26
60 3.33
63 1.77
65 5.33
66 2.46
67 17.07
68 16.2
69 52.63
70 2.45
77 18.69
78 2.84
79 21.97
80 22.05
81 6.88
82 1.63
85 6.22
91 19.5
92 17.52
93 99.99
94 12.1
95 2.1
103 1.28
105 5.44
106 1.75
107 5.4
108 1.58
119 2.07
121 17.44
122 1.55
136 6.85
137 1.5

>  <PREDICTED SPECTRUM>  (3146) 
25 10
26 32
27 178
28 71
29 229
37 9
38 31
39 290
40 141
41 670
42 173
43 384
44 120
45 79
50 56
51 71
52 93
53 297
54 121
55 347
56 189
57 805
58 141
59 132
60 61
61 21
62 5
63 61
64 46
65 198
66 129
67 390
68 440
69 669
70 148
71 111
72 139
73 110
74 33
75 7
77 276
78 110
79 335
80 566
81 505
82 214
83 233
84 64
85 623
86 132
87 110
91 254
92 507
93 999
94 482
95 225
96 116
97 20
101 70
103 126
104 43
105 183
107 305
108 145
109 87
111 51
112 5
119 32
121 588
122 228
123 20
136 462
137 332
138 66
153 45
154 61

$$$$

     RDKit          2D

 10  9  0  0  0  0  0  0  0  0999 V2000
    2.5981    4.5000    0.0000 C   0  0  0  0  0  0  0  0  0  0  0  0
   -7.7942    4.5000    0.0000 C   0  0  0  0  0  0  0  0  0  0  0  0
    1.2990    5.2500    0.0000 C   0  0  0  0  0  0  0  0  0  0  0  0
    0.0000    4.5000    0.0000 C   0  0  0  0  0  0  0  0  0  0  0  0
   -1.2990    5.2500    0.0000 C   0  0  0  0  0  0  0  0  0  0  0  0
   -2.5981    4.5000    0.0000 C   0  0  0  0  0  0  0  0  0  0  0  0
   -3.8971    5.2500    0.0000 C   0  0  0  0  0  0  0  0  0  0  0  0
   -6.4952    5.2500    0.0000 C   0  0  0  0  0  0  0  0  0  0  0  0
   -6.4952    6.7500    0.0000 O   0  0  0  0  0  0  0  0  0  0  0  0
   -5.1962    4.5000    0.0000 O   0  0  0  0  0  0  0  0  0  0  0  0
  3  1  1  0
  4  3  1  0
  5  4  1  0
  5  6  2  0
  7  6  1  0
  8  2  1  0
  9  8  2  0
 10  7  1  0
 10  8  1  0
M  END
>  <NAME>  (3147) 
TRANS-2-HEXENYL ACETATE

>  <SYNONYMS>  (3147) 


>  <SPECTRUM TYPE>  (3147) 
MS1

>  <INSTRUMENT TYPE>  (3147) 
EI-B

>  <INSTRUMENT>  (3147) 
HITACHI M-80B

>  <ION MODE>  (3147) 
P

>  <INCHIKEY>  (3147) 
HRHOWZHRCRZVCU-AATRIKPKSA-N

>  <FORMULA>  (3147) 
C8H14O2

>  <EXACT MASS>  (3147) 
142.099379688

>  <MW>  (3147) 
142

>  <ID>  (3147) 
JP007074

>  <CONTRIBUTOR>  (3147) 
University of Tokyo Team, {Faculty of Engineering, University of Tokyo

>  <COMMENT>  (3147) 
SMILES=CCCC=CCOC(C)=O
cas=2497-18-9
InChI=InChI=1S/C8H14O2/c1-3-4-5-6-7-10-8(2)9/h5-6H,3-4,7H2,1-2H3/b6-5+
computed SMILES=O=C(OCC=CCCC)C
accession=JP007074
date=2016.01.19 (Created 2008.10.21, modified 2011.05.06)
author=SODA AROMATIC CO., LTD.
license=CC BY-NC-SA
exact mass=142.09938
ionization energy=70 eV
ion type=[M]+*
computed spectral entropy=2.5444974341388638
computed normalized entropy=0.7720337922015105
SPLASH=splash10-0006-9000000000-3a62a93aa8045a5352a2
submitter=submitter = University of Tokyo Team (Faculty of Engineering, University of Tokyo)
MoNA Rating=3.75

>  <NUM PEAKS>  (3147) 
27

>  <MASS SPECTRAL PEAKS>  (3147) 
15 4.59
27 12.27
28 2.32
29 7.88
39 13.24
40 1.76
41 19.84
42 3.59
43 99.99
44 3.1
51 1.27
53 5.08
54 7.58
55 11.97
56 4.88
57 11.79
58 1.47
61 1.78
67 25.82
68 1.22
71 5.04
72 1.52
81 2.46
82 18.83
83 4.44
99 3.73
100 10.22

>  <PREDICTED SPECTRUM>  (3147) 
14 48
15 118
16 3
25 16
26 128
27 388
28 176
29 313
30 24
31 57
32 10
37 44
38 101
39 406
40 178
41 451
42 212
43 999
44 183
45 80
50 83
51 141
52 113
53 293
54 391
55 383
56 112
57 259
58 25
60 0
61 48
62 33
63 39
65 126
66 134
67 473
68 33
69 50
70 18
71 257
72 144
73 116
79 14
81 239
82 526
83 203
84 24
85 106
99 319
100 328
101 53
113 23

$$$$

     RDKit          2D

 10  9  0  0  0  0  0  0  0  0999 V2000
    2.5981    4.5000    0.0000 C   0  0  0  0  0  0  0  0  0  0  0  0
   -7.7942    4.5000    0.0000 C   0  0  0  0  0  0  0  0  0  0  0  0
    1.2990    5.2500    0.0000 C   0  0  0  0  0  0  0  0  0  0  0  0
    0.0000    4.5000    0.0000 C   0  0  0  0  0  0  0  0  0  0  0  0
   -1.2990    5.2500    0.0000 C   0  0  0  0  0  0  0  0  0  0  0  0
   -2.5981    4.5000    0.0000 C   0  0  0  0  0  0  0  0  0  0  0  0
   -3.8971    5.2500    0.0000 C   0  0  0  0  0  0  0  0  0  0  0  0
   -6.4952    5.2500    0.0000 C   0  0  0  0  0  0  0  0  0  0  0  0
   -6.4952    6.7500    0.0000 O   0  0  0  0  0  0  0  0  0  0  0  0
   -5.1962    4.5000    0.0000 O   0  0  0  0  0  0  0  0  0  0  0  0
  3  1  1  0
  3  4  2  0
  5  4  1  0
  5  6  2  0
  7  6  1  0
  8  2  1  0
  9  8  2  0
 10  7  1  0
 10  8  1  0
M  END
>  <NAME>  (3148) 
TRANS,TRANS-2,4-HEXADIENYL ACETATE

>  <SYNONYMS>  (3148) 


>  <SPECTRUM TYPE>  (3148) 
MS1

>  <INSTRUMENT TYPE>  (3148) 
EI-B

>  <INSTRUMENT>  (3148) 
HITACHI M-80B

>  <ION MODE>  (3148) 
P

>  <INCHIKEY>  (3148) 
PXVKYPFROMBALG-VNKDHWASSA-N

>  <FORMULA>  (3148) 
C8H12O2

>  <EXACT MASS>  (3148) 
140.083729624

>  <MW>  (3148) 
140

>  <ID>  (3148) 
JP007073

>  <CONTRIBUTOR>  (3148) 
University of Tokyo Team, {Faculty of Engineering, University of Tokyo

>  <COMMENT>  (3148) 
SMILES=CC=CC=CCOC(C)=O
InChI=InChI=1S/C8H12O2/c1-3-4-5-6-7-10-8(2)9/h3-6H,7H2,1-2H3/b4-3+,6-5+
computed SMILES=O=C(OCC=CC=CC)C
accession=JP007073
date=2016.01.19 (Created 2008.10.21, modified 2011.05.06)
author=SODA AROMATIC CO., LTD.
license=CC BY-NC-SA
exact mass=140.08373
ionization energy=70 eV
ion type=[M]+*
computed spectral entropy=2.6954244667595955
computed normalized entropy=0.7643644057219555
SPLASH=splash10-0006-9000000000-f433eb484f94ecf93aba
submitter=submitter = University of Tokyo Team (Faculty of Engineering, University of Tokyo)
MoNA Rating=3.75

>  <NUM PEAKS>  (3148) 
34

>  <MASS SPECTRAL PEAKS>  (3148) 
15 4.54
27 7.74
29 3.25
38 1.2
39 14.82
40 2.7
41 23.38
42 3.5
43 99.99
44 2.13
50 1.49
51 3.65
52 3.07
53 8.97
54 1.7
55 3.88
56 1.14
63 1.06
65 4.32
66 2.76
67 2.01
69 7.45
70 1.83
77 5.14
78 1.4
79 31.07
80 12.53
81 18.27
82 1.59
83 4.16
97 5.03
98 8.23
140 16.87
141 1.29

>  <PREDICTED SPECTRUM>  (3148) 
14 46
15 71
16 19
17 2
18 1
25 24
26 100
27 306
28 143
29 198
31 5
32 22
37 73
38 145
39 439
40 194
41 411
42 192
43 999
44 188
45 87
49 11
50 171
51 272
52 239
53 305
54 185
55 239
56 94
57 85
60 58
61 104
62 97
63 124
64 70
65 274
66 273
67 306
68 92
69 103
70 111
71 35
72 53
74 24
77 379
78 112
79 545
80 575
81 325
82 131
83 219
84 50
85 8
95 10
96 78
97 420
98 326
99 44
125 103
140 302
141 77

$$$$

     RDKit          2D

  9  8  0  0  0  0  0  0  0  0999 V2000
    2.2733    2.8125    0.0000 C   0  0  0  0  0  0  0  0  0  0  0  0
    0.9743    5.0625    0.0000 C   0  0  0  0  0  0  0  0  0  0  0  0
   -5.5209    2.8125    0.0000 C   0  0  0  0  0  0  0  0  0  0  0  0
   -0.3248    2.8125    0.0000 C   0  0  0  0  0  0  0  0  0  0  0  0
   -1.6238    3.5625    0.0000 C   0  0  0  0  0  0  0  0  0  0  0  0
    0.9743    3.5625    0.0000 C   0  0  0  0  0  0  0  0  0  0  0  0
   -4.2219    3.5625    0.0000 C   0  0  0  0  0  0  0  0  0  0  0  0
   -4.2219    5.0625    0.0000 O   0  0  0  0  0  0  0  0  0  0  0  0
   -2.9228    2.8125    0.0000 O   0  0  0  0  0  0  0  0  0  0  0  0
  5  4  1  0
  6  1  1  0
  6  2  1  0
  6  4  1  0
  7  3  1  0
  8  7  2  0
  9  5  1  0
  9  7  1  0
M  END
>  <NAME>  (3149) 
ISOPENTYL ACETATE

>  <SYNONYMS>  (3149) 


>  <SPECTRUM TYPE>  (3149) 
MS1

>  <INSTRUMENT TYPE>  (3149) 
EI-B

>  <INSTRUMENT>  (3149) 
HITACHI M-80B

>  <ION MODE>  (3149) 
P

>  <INCHIKEY>  (3149) 
MLFHJEHSLIIPHL-UHFFFAOYSA-N

>  <FORMULA>  (3149) 
C7H14O2

>  <EXACT MASS>  (3149) 
130.099379688

>  <MW>  (3149) 
130

>  <ID>  (3149) 
JP007072

>  <CONTRIBUTOR>  (3149) 
University of Tokyo Team, {Faculty of Engineering, University of Tokyo

>  <COMMENT>  (3149) 
SMILES=CC(C)CCOC(C)=O
cas=123-92-2
InChI=InChI=1S/C7H14O2/c1-6(2)4-5-9-7(3)8/h6H,4-5H2,1-3H3
computed SMILES=O=C(OCCC(C)C)C
accession=JP007072
date=2016.01.19 (Created 2008.10.21, modified 2011.05.06)
author=SODA AROMATIC CO., LTD.
license=CC BY-NC-SA
exact mass=130.09938
ionization energy=70 eV
ion type=[M]+*
computed spectral entropy=2.3022782051207957
computed normalized entropy=0.7342632601344331
SPLASH=splash10-0006-9000000000-fe72c0ec89d09374d63a
submitter=submitter = University of Tokyo Team (Faculty of Engineering, University of Tokyo)
MoNA Rating=3.75

>  <NUM PEAKS>  (3149) 
23

>  <MASS SPECTRAL PEAKS>  (3149) 
15 5.74
27 9.17
28 1.63
29 6.96
39 7.2
40 1.02
41 14.76
42 12.37
43 99.99
44 2.89
45 1.68
53 1.08
55 36.48
56 2.37
57 2.49
58 1.94
61 11.25
69 4.74
70 48.15
71 3.58
73 8.56
87 8.8
88 1.25

>  <PREDICTED SPECTRUM>  (3149) 
14 32
15 60
16 2
26 57
27 259
28 60
29 220
31 80
36 4
37 28
38 36
39 292
40 106
41 541
42 431
43 999
44 177
45 153
46 18
50 30
51 22
52 17
53 139
54 48
55 635
56 136
57 190
58 9
59 128
60 88
61 192
68 64
69 356
70 958
71 496
72 164
73 208
74 11
87 279
88 2

$$$$

     RDKit          2D

  9  8  0  0  0  0  0  0  0  0999 V2000
   -7.4695    3.9375    0.0000 C   0  0  0  0  0  0  0  0  0  0  0  0
    1.6238    3.1875    0.0000 C   0  0  0  0  0  0  0  0  0  0  0  0
   -6.1704    3.1875    0.0000 C   0  0  0  0  0  0  0  0  0  0  0  0
   -4.8714    3.9375    0.0000 C   0  0  0  0  0  0  0  0  0  0  0  0
   -3.5724    3.1875    0.0000 C   0  0  0  0  0  0  0  0  0  0  0  0
   -2.2733    3.9375    0.0000 C   0  0  0  0  0  0  0  0  0  0  0  0
    0.3248    3.9375    0.0000 C   0  0  0  0  0  0  0  0  0  0  0  0
    0.3248    5.4375    0.0000 O   0  0  0  0  0  0  0  0  0  0  0  0
   -0.9743    3.1875    0.0000 O   0  0  0  0  0  0  0  0  0  0  0  0
  3  1  1  0
  4  3  1  0
  5  4  1  0
  6  5  1  0
  7  2  1  0
  8  7  2  0
  9  6  1  0
  9  7  1  0
M  END
>  <NAME>  (3150) 
PENTYL ACETATE

>  <SYNONYMS>  (3150) 


>  <SPECTRUM TYPE>  (3150) 
MS1

>  <INSTRUMENT TYPE>  (3150) 
EI-B

>  <INSTRUMENT>  (3150) 
HITACHI M-80B

>  <ION MODE>  (3150) 
P

>  <INCHIKEY>  (3150) 
PGMYKACGEOXYJE-UHFFFAOYSA-N

>  <FORMULA>  (3150) 
C7H14O2

>  <EXACT MASS>  (3150) 
130.099379688

>  <MW>  (3150) 
130

>  <ID>  (3150) 
JP007071

>  <CONTRIBUTOR>  (3150) 
University of Tokyo Team, {Faculty of Engineering, University of Tokyo

>  <COMMENT>  (3150) 
SMILES=CCCCCOC(C)=O
cas=628-63-7
InChI=InChI=1S/C7H14O2/c1-3-4-5-6-9-7(2)8/h3-6H2,1-2H3
computed SMILES=O=C(OCCCCC)C
accession=JP007071
date=2016.01.19 (Created 2008.10.21, modified 2011.05.06)
author=SODA AROMATIC CO., LTD.
license=CC BY-NC-SA
exact mass=130.09938
ionization energy=70 eV
ion type=[M]+*
computed spectral entropy=2.2606869362943542
computed normalized entropy=0.7425423798107427
SPLASH=splash10-0006-9000000000-cdadbdf8f1d5ef30794f
submitter=submitter = University of Tokyo Team (Faculty of Engineering, University of Tokyo)
MoNA Rating=3.75

>  <NUM PEAKS>  (3150) 
21

>  <MASS SPECTRAL PEAKS>  (3150) 
15 4.61
27 8.92
28 2.35
29 8.85
31 1.09
39 6.33
40 1.06
41 13.93
42 22.98
43 99.99
44 2.41
55 19.25
56 1.22
57 1.18
58 3.42
61 22.33
69 6.71
70 38.68
71 2.41
73 11.44
87 1.2

>  <PREDICTED SPECTRUM>  (3150) 
14 48
15 92
16 5
26 49
27 224
28 85
29 210
31 86
37 7
38 11
39 180
40 78
41 437
42 421
43 999
44 160
53 47
55 325
56 1
57 89
58 15
59 29
60 123
61 200
68 29
69 197
70 462
71 290
72 25
73 167
74 7
87 36
101 2

$$$$

     RDKit          2D

  8  7  0  0  0  0  0  0  0  0999 V2000
    1.8983    1.9620    0.0000 C   0  0  0  0  0  0  0  0  0  0  0  0
   -1.2488    4.0111    0.0000 C   0  0  0  0  0  0  0  0  0  0  0  0
   -3.2978    3.4620    0.0000 C   0  0  0  0  0  0  0  0  0  0  0  0
   -2.7488    1.4130    0.0000 C   0  0  0  0  0  0  0  0  0  0  0  0
    0.5993    2.7120    0.0000 C   0  0  0  0  0  0  0  0  0  0  0  0
   -1.9988    2.7120    0.0000 C   0  0  0  0  0  0  0  0  0  0  0  0
    0.5993    4.2120    0.0000 O   0  0  0  0  0  0  0  0  0  0  0  0
   -0.6998    1.9620    0.0000 O   0  0  0  0  0  0  0  0  0  0  0  0
  5  1  1  0
  6  2  1  0
  6  3  1  0
  6  4  1  0
  7  5  2  0
  8  5  1  0
  8  6  1  0
M  END
>  <NAME>  (3151) 
TERT-BUTYL ACETATE

>  <SYNONYMS>  (3151) 


>  <SPECTRUM TYPE>  (3151) 
MS1

>  <INSTRUMENT TYPE>  (3151) 
EI-B

>  <INSTRUMENT>  (3151) 
HITACHI M-80B

>  <ION MODE>  (3151) 
P

>  <INCHIKEY>  (3151) 
WMOVHXAZOJBABW-UHFFFAOYSA-N

>  <FORMULA>  (3151) 
C6H12O2

>  <EXACT MASS>  (3151) 
116.083729624

>  <MW>  (3151) 
116

>  <ID>  (3151) 
JP007070

>  <CONTRIBUTOR>  (3151) 
University of Tokyo Team, {Faculty of Engineering, University of Tokyo

>  <COMMENT>  (3151) 
SMILES=CC(=O)OC(C)(C)C
cas=540-88-5
InChI=InChI=1S/C6H12O2/c1-5(7)8-6(2,3)4/h1-4H3
computed SMILES=O=C(OC(C)(C)C)C
accession=JP007070
date=2016.01.19 (Created 2008.10.21, modified 2011.05.06)
author=SODA AROMATIC CO., LTD.
license=CC BY-NC-SA
exact mass=116.08373
ionization energy=70 eV
ion type=[M]+*
computed spectral entropy=2.2234754613952434
computed normalized entropy=0.7692697160221564
SPLASH=splash10-052f-9000000000-d84d771268471c3e5ca5
submitter=submitter = University of Tokyo Team (Faculty of Engineering, University of Tokyo)
MoNA Rating=3.75

>  <NUM PEAKS>  (3151) 
18

>  <MASS SPECTRAL PEAKS>  (3151) 
15 8.12
27 7.59
28 1.76
29 15.99
31 2.72
39 11.94
40 1.78
41 32.58
42 4.39
43 99.99
44 2.39
55 2.75
56 29.67
57 54.56
58 2.62
59 33.82
61 1.85
101 15.93

>  <PREDICTED SPECTRUM>  (3151) 
14 86
15 258
16 50
17 8
18 2
25 10
26 108
27 311
28 181
29 329
31 188
32 27
33 16
37 45
38 57
39 443
40 224
41 765
42 346
43 999
44 203
45 168
55 103
56 495
57 974
58 6
59 845
60 65
61 67
63 1
73 80
101 197

$$$$

     RDKit          2D

  8  7  0  0  0  0  0  0  0  0999 V2000
    0.0000    0.0000    0.0000 C   0  0  0  0  0  0  0  0  0  0  0  0
    1.2990    2.2500    0.0000 C   0  0  0  0  0  0  0  0  0  0  0  0
   -2.5981    6.0000    0.0000 C   0  0  0  0  0  0  0  0  0  0  0  0
   -1.2990    2.2500    0.0000 C   0  0  0  0  0  0  0  0  0  0  0  0
    0.0000    1.5000    0.0000 C   0  0  0  0  0  0  0  0  0  0  0  0
   -2.5981    4.5000    0.0000 C   0  0  0  0  0  0  0  0  0  0  0  0
   -3.8971    3.7500    0.0000 O   0  0  0  0  0  0  0  0  0  0  0  0
   -1.2990    3.7500    0.0000 O   0  0  0  0  0  0  0  0  0  0  0  0
  5  1  1  0
  5  2  1  0
  5  4  1  0
  6  3  1  0
  7  6  2  0
  8  4  1  0
  8  6  1  0
M  END
>  <NAME>  (3152) 
ISOBUTYL ACETATE

>  <SYNONYMS>  (3152) 


>  <SPECTRUM TYPE>  (3152) 
MS1

>  <INSTRUMENT TYPE>  (3152) 
EI-B

>  <INSTRUMENT>  (3152) 
HITACHI M-80B

>  <ION MODE>  (3152) 
P

>  <INCHIKEY>  (3152) 
GJRQTCIYDGXPES-UHFFFAOYSA-N

>  <FORMULA>  (3152) 
C6H12O2

>  <EXACT MASS>  (3152) 
116.083729624

>  <MW>  (3152) 
116

>  <ID>  (3152) 
JP007069

>  <CONTRIBUTOR>  (3152) 
University of Tokyo Team, {Faculty of Engineering, University of Tokyo

>  <COMMENT>  (3152) 
SMILES=CC(C)COC(C)=O
cas=110-19-0
InChI=InChI=1S/C6H12O2/c1-5(2)4-8-6(3)7/h5H,4H2,1-3H3
computed SMILES=O=C(OCC(C)C)C
accession=JP007069
date=2016.01.19 (Created 2008.10.21, modified 2011.05.06)
author=SODA AROMATIC CO., LTD.
license=CC BY-NC-SA
exact mass=116.08373
ionization energy=70 eV
ion type=[M]+*
computed spectral entropy=1.8518413468685628
computed normalized entropy=0.6536187438032266
SPLASH=splash10-0006-9000000000-ef6ece5c35a5dd154ad5
submitter=submitter = University of Tokyo Team (Faculty of Engineering, University of Tokyo)
MoNA Rating=3.75

>  <NUM PEAKS>  (3152) 
17

>  <MASS SPECTRAL PEAKS>  (3152) 
15 3.28
27 4.78
29 3.98
39 5.33
40 1.04
41 11.6
42 3.16
43 99.99
44 2.5
55 2.32
56 32.38
57 4.06
61 3.14
71 3.43
73 19.57
74 1.72
86 2.32

>  <PREDICTED SPECTRUM>  (3152) 
14 57
15 117
16 23
25 19
26 110
27 304
28 156
29 385
31 106
32 0
33 2
37 51
38 68
39 306
40 129
41 750
42 328
43 999
44 229
45 286
54 20
55 127
56 731
57 792
58 57
59 199
60 238
61 301
62 120
63 12
73 327
74 219
75 27
87 65
101 6

$$$$

     RDKit          2D

  8  7  0  0  0  0  0  0  0  0999 V2000
    1.9486    3.3750    0.0000 C   0  0  0  0  0  0  0  0  0  0  0  0
   -5.8457    3.3750    0.0000 C   0  0  0  0  0  0  0  0  0  0  0  0
    0.6495    4.1250    0.0000 C   0  0  0  0  0  0  0  0  0  0  0  0
   -0.6495    3.3750    0.0000 C   0  0  0  0  0  0  0  0  0  0  0  0
   -1.9486    4.1250    0.0000 C   0  0  0  0  0  0  0  0  0  0  0  0
   -4.5466    4.1250    0.0000 C   0  0  0  0  0  0  0  0  0  0  0  0
   -4.5466    5.6250    0.0000 O   0  0  0  0  0  0  0  0  0  0  0  0
   -3.2476    3.3750    0.0000 O   0  0  0  0  0  0  0  0  0  0  0  0
  3  1  1  0
  4  3  1  0
  5  4  1  0
  6  2  1  0
  7  6  2  0
  8  5  1  0
  8  6  1  0
M  END
>  <NAME>  (3153) 
BUTYL ACETATE

>  <SYNONYMS>  (3153) 


>  <SPECTRUM TYPE>  (3153) 
MS1

>  <INSTRUMENT TYPE>  (3153) 
EI-B

>  <INSTRUMENT>  (3153) 
HITACHI M-80B

>  <ION MODE>  (3153) 
P

>  <INCHIKEY>  (3153) 
DKPFZGUDAPQIHT-UHFFFAOYSA-N

>  <FORMULA>  (3153) 
C6H12O2

>  <EXACT MASS>  (3153) 
116.083729624

>  <MW>  (3153) 
116

>  <ID>  (3153) 
JP007068

>  <CONTRIBUTOR>  (3153) 
University of Tokyo Team, {Faculty of Engineering, University of Tokyo

>  <COMMENT>  (3153) 
SMILES=CCCCOC(C)=O
cas=123-86-4
InChI=InChI=1S/C6H12O2/c1-3-4-5-8-6(2)7/h3-5H2,1-2H3
computed SMILES=O=C(OCCCC)C
accession=JP007068
date=2016.01.19 (Created 2008.10.21, modified 2011.05.06)
author=SODA AROMATIC CO., LTD.
license=CC BY-NC-SA
exact mass=116.08373
ionization energy=70 eV
ion type=[M]+*
computed spectral entropy=2.06051010618935
computed normalized entropy=0.7128875725277458
SPLASH=splash10-0006-9000000000-39d2240c612740224374
submitter=submitter = University of Tokyo Team (Faculty of Engineering, University of Tokyo)
MoNA Rating=3.75

>  <NUM PEAKS>  (3153) 
18

>  <MASS SPECTRAL PEAKS>  (3153) 
15 4.98
27 8.34
28 2.94
29 8.14
31 1.37
39 5.31
41 16.31
42 4.26
43 99.99
44 3.09
55 6.98
56 39.8
57 3.92
58 1.62
61 13.76
71 1.25
73 16.49
87 1.28

>  <PREDICTED SPECTRUM>  (3153) 
14 55
15 99
16 24
25 5
26 99
27 344
28 192
29 429
31 108
32 13
39 203
40 88
41 666
42 291
43 999
44 171
45 217
53 3
54 10
55 265
56 600
57 670
58 29
59 68
60 114
61 263
73 252
74 175
87 54
116 117
117 11

$$$$

     RDKit          2D

  7  6  0  0  0  0  0  0  0  0999 V2000
    1.6238    1.6875    0.0000 C   0  0  0  0  0  0  0  0  0  0  0  0
    0.3248    3.9375    0.0000 C   0  0  0  0  0  0  0  0  0  0  0  0
   -3.5724    1.6875    0.0000 C   0  0  0  0  0  0  0  0  0  0  0  0
    0.3248    2.4375    0.0000 C   0  0  0  0  0  0  0  0  0  0  0  0
   -2.2733    2.4375    0.0000 C   0  0  0  0  0  0  0  0  0  0  0  0
   -2.2733    3.9375    0.0000 O   0  0  0  0  0  0  0  0  0  0  0  0
   -0.9743    1.6875    0.0000 O   0  0  0  0  0  0  0  0  0  0  0  0
  4  1  1  0
  4  2  1  0
  5  3  1  0
  6  5  2  0
  7  4  1  0
  7  5  1  0
M  END
>  <NAME>  (3154) 
ISOPROPYL ACETATE

>  <SYNONYMS>  (3154) 


>  <SPECTRUM TYPE>  (3154) 
MS1

>  <INSTRUMENT TYPE>  (3154) 
EI-B

>  <INSTRUMENT>  (3154) 
HITACHI M-80B

>  <ION MODE>  (3154) 
P

>  <INCHIKEY>  (3154) 
JMMWKPVZQRWMSS-UHFFFAOYSA-N

>  <FORMULA>  (3154) 
C5H10O2

>  <EXACT MASS>  (3154) 
102.06807956

>  <MW>  (3154) 
102

>  <ID>  (3154) 
JP007067

>  <CONTRIBUTOR>  (3154) 
University of Tokyo Team, {Faculty of Engineering, University of Tokyo

>  <COMMENT>  (3154) 
SMILES=CC(C)OC(C)=O
cas=108-21-4
InChI=InChI=1S/C5H10O2/c1-4(2)7-5(3)6/h4H,1-3H3
computed SMILES=O=C(OC(C)C)C
accession=JP007067
date=2016.01.19 (Created 2008.10.21, modified 2011.05.06)
author=SODA AROMATIC CO., LTD.
license=CC BY-NC-SA
exact mass=102.06808
ionization energy=70 eV
ion type=[M]+*
computed spectral entropy=1.735346051307084
computed normalized entropy=0.6765615259649845
SPLASH=splash10-0006-9000000000-7221a10e3a0d24de1b8d
submitter=submitter = University of Tokyo Team (Faculty of Engineering, University of Tokyo)
MoNA Rating=3.75

>  <NUM PEAKS>  (3154) 
13

>  <MASS SPECTRAL PEAKS>  (3154) 
15 7.8
27 7.23
29 2.27
31 1.4
39 5.35
41 11
42 6.49
43 99.99
44 2.56
45 3.49
59 8.33
61 18.4
87 10.01

>  <PREDICTED SPECTRUM>  (3154) 
14 62
15 202
16 34
25 7
26 58
27 189
28 164
29 62
31 57
32 24
38 22
39 243
40 106
41 430
42 401
43 999
44 238
45 302
59 189
60 189
61 90
87 94
101 14

$$$$

     RDKit          2D

  7  6  0  0  0  0  0  0  0  0999 V2000
    1.6238    3.1875    0.0000 C   0  0  0  0  0  0  0  0  0  0  0  0
   -4.8714    3.9375    0.0000 C   0  0  0  0  0  0  0  0  0  0  0  0
    0.3248    3.9375    0.0000 C   0  0  0  0  0  0  0  0  0  0  0  0
   -0.9743    3.1875    0.0000 C   0  0  0  0  0  0  0  0  0  0  0  0
   -3.5724    3.1875    0.0000 C   0  0  0  0  0  0  0  0  0  0  0  0
   -3.5724    1.6875    0.0000 O   0  0  0  0  0  0  0  0  0  0  0  0
   -2.2733    3.9375    0.0000 O   0  0  0  0  0  0  0  0  0  0  0  0
  3  1  1  0
  4  3  1  0
  5  2  1  0
  6  5  2  0
  7  4  1  0
  7  5  1  0
M  END
>  <NAME>  (3155) 
PROPYL ACETATE

>  <SYNONYMS>  (3155) 


>  <SPECTRUM TYPE>  (3155) 
MS1

>  <INSTRUMENT TYPE>  (3155) 
EI-B

>  <INSTRUMENT>  (3155) 
HITACHI M-80B

>  <ION MODE>  (3155) 
P

>  <INCHIKEY>  (3155) 
YKYONYBAUNKHLG-UHFFFAOYSA-N

>  <FORMULA>  (3155) 
C5H10O2

>  <EXACT MASS>  (3155) 
102.06807956

>  <MW>  (3155) 
102

>  <ID>  (3155) 
JP007066

>  <CONTRIBUTOR>  (3155) 
University of Tokyo Team, {Faculty of Engineering, University of Tokyo

>  <COMMENT>  (3155) 
SMILES=CCCOC(C)=O
cas=109-60-4
InChI=InChI=1S/C5H10O2/c1-3-4-7-5(2)6/h3-4H2,1-2H3
computed SMILES=O=C(OCCC)C
accession=JP007066
date=2016.01.19 (Created 2008.10.21, modified 2011.05.06)
author=SODA AROMATIC CO., LTD.
license=CC BY-NC-SA
exact mass=102.06808
ionization energy=70 eV
ion type=[M]+*
computed spectral entropy=1.7728343022345938
computed normalized entropy=0.6546534113411295
SPLASH=splash10-0006-9000000000-4de83bd1697d62bc041f
submitter=submitter = University of Tokyo Team (Faculty of Engineering, University of Tokyo)
MoNA Rating=3.75

>  <NUM PEAKS>  (3155) 
15

>  <MASS SPECTRAL PEAKS>  (3155) 
14 1.02
15 6.53
26 1.17
27 8.76
28 1.2
29 4.26
31 3.69
39 3.92
41 7.25
42 8.87
43 99.99
44 1.95
59 4.39
61 25.36
73 12.12

>  <PREDICTED SPECTRUM>  (3155) 
14 87
15 200
16 41
17 7
18 14
25 15
26 104
27 286
28 149
29 252
31 190
32 61
33 16
37 9
38 47
39 226
40 103
41 442
42 380
43 999
44 156
45 215
57 85
59 209
60 349
61 214
73 107
102 22

$$$$

     RDKit          2D

  7  6  0  0  0  0  0  0  0  0999 V2000
    1.6238    3.1875    0.0000 C   0  0  0  0  0  0  0  0  0  0  0  0
   -4.8714    3.9375    0.0000 C   0  0  0  0  0  0  0  0  0  0  0  0
    0.3248    3.9375    0.0000 C   0  0  0  0  0  0  0  0  0  0  0  0
   -0.9743    3.1875    0.0000 C   0  0  0  0  0  0  0  0  0  0  0  0
   -3.5724    3.1875    0.0000 C   0  0  0  0  0  0  0  0  0  0  0  0
   -3.5724    1.6875    0.0000 O   0  0  0  0  0  0  0  0  0  0  0  0
   -2.2733    3.9375    0.0000 O   0  0  0  0  0  0  0  0  0  0  0  0
  3  1  2  0
  4  3  1  0
  5  2  1  0
  6  5  2  0
  7  4  1  0
  7  5  1  0
M  END
>  <NAME>  (3156) 
ALLYL ACETATE

>  <SYNONYMS>  (3156) 


>  <SPECTRUM TYPE>  (3156) 
MS1

>  <INSTRUMENT TYPE>  (3156) 
EI-B

>  <INSTRUMENT>  (3156) 
HITACHI M-80B

>  <ION MODE>  (3156) 
P

>  <INCHIKEY>  (3156) 
FWZUNOYOVVKUNF-UHFFFAOYSA-N

>  <FORMULA>  (3156) 
C5H8O2

>  <EXACT MASS>  (3156) 
100.052429496

>  <MW>  (3156) 
100

>  <ID>  (3156) 
JP007065

>  <CONTRIBUTOR>  (3156) 
University of Tokyo Team, {Faculty of Engineering, University of Tokyo

>  <COMMENT>  (3156) 
SMILES=C=CCOC(C)=O
cas=591-87-7
InChI=InChI=1S/C5H8O2/c1-3-4-7-5(2)6/h3H,1,4H2,2H3
computed SMILES=O=C(OCC=C)C
accession=JP007065
date=2016.01.19 (Created 2008.10.21, modified 2011.05.06)
author=SODA AROMATIC CO., LTD.
license=CC BY-NC-SA
exact mass=100.05243
ionization energy=70 eV
ion type=[M]+*
computed spectral entropy=2.1131739994775263
computed normalized entropy=0.6940904666341289
SPLASH=splash10-0006-9000000000-12306a8743c250d0064d
submitter=submitter = University of Tokyo Team (Faculty of Engineering, University of Tokyo)
MoNA Rating=3.75

>  <NUM PEAKS>  (3156) 
21

>  <MASS SPECTRAL PEAKS>  (3156) 
14 1.22
15 7.73
18 3.78
26 2.93
27 6.81
28 2.31
29 5.68
31 1.29
37 1.17
38 2.92
39 20.09
40 4.24
41 20.65
42 5.12
43 99.99
44 3.87
55 1.02
57 10.87
58 14.5
61 3.16
72 1.28

>  <PREDICTED SPECTRUM>  (3156) 
14 97
15 200
16 45
18 4
25 47
26 159
27 301
28 199
29 176
30 101
31 83
36 14
37 113
38 193
39 490
40 258
41 585
42 363
43 999
44 267
45 34
51 66
52 23
55 17
56 47
57 241
58 562
59 76
60 28
61 20
64 13
85 10
99 19
100 1

$$$$

     RDKit          2D

  6  5  0  0  0  0  0  0  0  0999 V2000
    1.2990    2.2500    0.0000 C   0  0  0  0  0  0  0  0  0  0  0  0
   -3.8971    2.2500    0.0000 C   0  0  0  0  0  0  0  0  0  0  0  0
    0.0000    3.0000    0.0000 C   0  0  0  0  0  0  0  0  0  0  0  0
   -2.5981    3.0000    0.0000 C   0  0  0  0  0  0  0  0  0  0  0  0
   -2.5981    4.5000    0.0000 O   0  0  0  0  0  0  0  0  0  0  0  0
   -1.2990    2.2500    0.0000 O   0  0  0  0  0  0  0  0  0  0  0  0
  3  1  1  0
  4  2  1  0
  5  4  2  0
  6  3  1  0
  6  4  1  0
M  END
>  <NAME>  (3157) 
ETHYL ACETATE

>  <SYNONYMS>  (3157) 


>  <SPECTRUM TYPE>  (3157) 
MS1

>  <INSTRUMENT TYPE>  (3157) 
EI-B

>  <INSTRUMENT>  (3157) 
HITACHI M-80B

>  <ION MODE>  (3157) 
P

>  <INCHIKEY>  (3157) 
XEKOWRVHYACXOJ-UHFFFAOYSA-N

>  <FORMULA>  (3157) 
C4H8O2

>  <EXACT MASS>  (3157) 
88.052429496

>  <MW>  (3157) 
88

>  <ID>  (3157) 
JP007064

>  <CONTRIBUTOR>  (3157) 
University of Tokyo Team, {Faculty of Engineering, University of Tokyo

>  <COMMENT>  (3157) 
SMILES=CCOC(C)=O
cas=141-78-6
InChI=InChI=1S/C4H8O2/c1-3-6-4(2)5/h3H2,1-2H3
computed SMILES=O=C(OCC)C
accession=JP007064
date=2016.01.19 (Created 2008.10.21, modified 2011.05.06)
author=SODA AROMATIC CO., LTD.
license=CC BY-NC-SA
exact mass=88.05243
ionization energy=70 eV
ion type=[M]+*
computed spectral entropy=1.8718998720051025
computed normalized entropy=0.6751451655956118
SPLASH=splash10-0006-9000000000-6209b0c76b2469152461
submitter=submitter = University of Tokyo Team (Faculty of Engineering, University of Tokyo)
MoNA Rating=3.75

>  <NUM PEAKS>  (3157) 
16

>  <MASS SPECTRAL PEAKS>  (3157) 
14 1.72
15 8.98
26 2.32
27 10.2
28 2.08
29 15.74
30 1.04
31 1.01
42 5.95
43 99.99
44 2.57
45 13.08
61 12.68
70 7.38
73 4.55
88 5.1

>  <PREDICTED SPECTRUM>  (3157) 
14 87
15 205
16 32
17 23
18 5
19 4
25 44
26 204
27 440
28 326
29 694
30 89
31 214
32 21
40 32
41 328
42 338
43 999
44 227
45 345
46 387
47 85
60 266
61 175
73 6
74 8
87 32
88 578
89 169

$$$$

     RDKit          2D

  5  4  0  0  0  0  0  0  0  0999 V2000
    0.0000    0.0000    0.0000 C   0  0  0  0  0  0  0  0  0  0  0  0
   -1.2990    3.7500    0.0000 C   0  0  0  0  0  0  0  0  0  0  0  0
    0.0000    1.5000    0.0000 C   0  0  0  0  0  0  0  0  0  0  0  0
    1.2990    2.2500    0.0000 O   0  0  0  0  0  0  0  0  0  0  0  0
   -1.2990    2.2500    0.0000 O   0  0  0  0  0  0  0  0  0  0  0  0
  3  1  1  0
  4  3  2  0
  5  2  1  0
  5  3  1  0
M  END
>  <NAME>  (3158) 
METHYL ACETATE

>  <SYNONYMS>  (3158) 


>  <SPECTRUM TYPE>  (3158) 
MS1

>  <INSTRUMENT TYPE>  (3158) 
EI-B

>  <INSTRUMENT>  (3158) 
HITACHI M-80B

>  <ION MODE>  (3158) 
P

>  <INCHIKEY>  (3158) 
KXKVLQRXCPHEJC-UHFFFAOYSA-N

>  <FORMULA>  (3158) 
C3H6O2

>  <EXACT MASS>  (3158) 
74.036779432

>  <MW>  (3158) 
74

>  <ID>  (3158) 
JP007063

>  <CONTRIBUTOR>  (3158) 
University of Tokyo Team, {Faculty of Engineering, University of Tokyo

>  <COMMENT>  (3158) 
SMILES=COC(C)=O
cas=79-20-9
InChI=InChI=1S/C3H6O2/c1-3(4)5-2/h1-2H3
computed SMILES=O=C(OC)C
accession=JP007063
date=2016.01.19 (Created 2008.10.21, modified 2011.05.06)
author=SODA AROMATIC CO., LTD.
license=CC BY-NC-SA
exact mass=74.03678
ionization energy=70 eV
ion type=[M]+*
computed spectral entropy=1.5363398718572479
computed normalized entropy=0.6182686468275662
SPLASH=splash10-0006-9000000000-8e16bef1c0d338a20817
submitter=submitter = University of Tokyo Team (Faculty of Engineering, University of Tokyo)
MoNA Rating=3.75

>  <NUM PEAKS>  (3158) 
12

>  <MASS SPECTRAL PEAKS>  (3158) 
14 3.96
15 22.79
29 7.89
30 1.04
31 2.05
41 1.03
42 10.25
43 99.99
44 2.23
45 1.04
59 6.94
74 19.3

>  <PREDICTED SPECTRUM>  (3158) 
14 137
15 369
16 55
18 4
25 33
26 177
27 312
28 254
29 380
31 228
32 129
33 66
39 16
40 127
41 428
42 510
43 999
44 141
45 242
59 308
73 64
74 287
75 48

$$$$

     RDKit          2D

 12 12  0  0  0  0  0  0  0  0999 V2000
   -3.9180   -0.7714    0.0000 C   0  0  0  0  0  0  0  0  0  0  0  0
    1.3000   -0.7500    0.0000 C   0  0  0  0  0  0  0  0  0  0  0  0
    0.0300    1.5000    0.0000 C   0  0  0  0  0  0  0  0  0  0  0  0
    0.0300   -1.5000    0.0000 C   0  0  0  0  0  0  0  0  0  0  0  0
   -1.3200    0.7500    0.0000 C   0  0  0  0  0  0  0  0  0  0  0  0
    2.6027    1.4936    0.0000 C   0  0  0  0  0  0  0  0  0  0  0  0
    5.2008    1.4808    0.0000 C   0  0  0  0  0  0  0  0  0  0  0  0
    1.3000    0.7500    0.0000 C   0  0  0  0  0  0  0  0  0  0  0  0
   -1.3200   -0.7500    0.0000 C   0  0  0  0  0  0  0  0  0  0  0  0
    6.4961    0.7244    0.0000 O   0  0  0  0  0  0  0  0  0  0  0  0
   -2.6128   -1.5107    0.0000 O   0  0  0  0  0  0  0  0  0  0  0  0
    3.8980    0.7372    0.0000 O   0  0  0  0  0  0  0  0  0  0  0  0
  4  2  2  0
  5  3  1  0
  8  2  1  0
  8  3  2  0
  8  6  1  0
  9  4  1  0
  9  5  2  0
 10  7  2  0
 11  1  1  0
 11  9  1  0
 12  6  1  0
 12  7  1  0
M  END
>  <NAME>  (3159) 
ANISYL FORMATE

>  <SYNONYMS>  (3159) 
P-METHOXYBENZYL FORMATE

>  <SPECTRUM TYPE>  (3159) 
MS1

>  <INSTRUMENT TYPE>  (3159) 
EI-B

>  <INSTRUMENT>  (3159) 
HITACHI M-80B

>  <ION MODE>  (3159) 
P

>  <INCHIKEY>  (3159) 
XPDORSROGAZEGY-UHFFFAOYSA-N

>  <FORMULA>  (3159) 
C9H10O3

>  <EXACT MASS>  (3159) 
166.06299417999998

>  <MW>  (3159) 
166

>  <ID>  (3159) 
JP007062

>  <CONTRIBUTOR>  (3159) 
University of Tokyo Team, {Faculty of Engineering, University of Tokyo

>  <COMMENT>  (3159) 
InChI=InChI=1S/C9H10O3/c1-11-9-4-2-8(3-5-9)6-12-7-10/h2-5,7H,6H2,1H3
SMILES=O=COCc(c1)ccc(OC)c1
cas=122-91-8
computed SMILES=O=COCC1=CC=C(OC)C=C1
accession=JP007062
date=2016.01.19 (Created 2008.10.21, modified 2011.05.06)
author=SODA AROMATIC CO., LTD.
license=CC BY-NC-SA
exact mass=166.06299
ionization energy=70 eV
ion type=[M]+*
computed spectral entropy=2.659892943645409
computed normalized entropy=0.7366251485062442
SPLASH=splash10-00di-5900000000-f68b828805d0c2f3d9f5
submitter=submitter = University of Tokyo Team (Faculty of Engineering, University of Tokyo)
MoNA Rating=3.75

>  <NUM PEAKS>  (3159) 
37

>  <MASS SPECTRAL PEAKS>  (3159) 
15 1.3
27 1.22
29 8.39
31 1.08
38 1.47
39 6.16
41 1.86
50 4.27
51 9.22
52 5.16
53 1.67
62 1.53
63 5.44
64 2.98
65 4.13
66 1.91
76 1.08
77 15.94
78 12.46
79 1.88
89 4.46
90 3.11
91 9.38
92 4
94 2.41
105 2.33
106 1.43
107 1.38
109 1.72
119 1.38
120 15.65
121 99.99
122 8.38
135 1.88
137 1.08
166 30.7
167 3

>  <PREDICTED SPECTRUM>  (3159) 
14 13
15 38
18 2
25 13
26 95
27 178
28 89
29 177
30 50
31 22
36 10
37 36
38 111
39 246
40 100
41 145
42 56
43 68
44 48
46 2
49 17
50 177
51 301
52 220
53 163
54 79
55 106
61 21
62 94
63 204
64 151
65 296
66 147
67 96
68 24
69 99
70 13
71 4
74 98
75 121
76 96
77 420
78 383
79 202
80 67
81 85
83 53
84 23
89 259
90 182
91 373
92 199
93 150
94 136
95 129
96 30
97 21
105 213
106 229
107 239
108 189
109 274
110 76
111 10
119 93
120 267
121 999
122 351
123 200
124 68
134 12
135 231
136 112
137 265
138 287
139 100
149 9
152 22
165 59
166 663
167 244
168 46

$$$$

     RDKit          2D

 11 11  0  0  0  0  0  0  0  0999 V2000
    3.5726    0.8821    0.0000 C   0  0  0  0  0  0  0  0  0  0  0  0
    3.5731    2.3829    0.0000 C   0  0  0  0  0  0  0  0  0  0  0  0
    2.2731    0.1313    0.0000 C   0  0  0  0  0  0  0  0  0  0  0  0
    2.2740    3.1329    0.0000 C   0  0  0  0  0  0  0  0  0  0  0  0
    0.9740    0.8813    0.0000 C   0  0  0  0  0  0  0  0  0  0  0  0
   -0.3245    3.1321    0.0000 C   0  0  0  0  0  0  0  0  0  0  0  0
   -1.6236    2.3821    0.0000 C   0  0  0  0  0  0  0  0  0  0  0  0
   -4.2216    2.3821    0.0000 C   0  0  0  0  0  0  0  0  0  0  0  0
    0.9745    2.3821    0.0000 C   0  0  0  0  0  0  0  0  0  0  0  0
   -5.5207    3.1321    0.0000 O   0  0  0  0  0  0  0  0  0  0  0  0
   -2.9226    3.1321    0.0000 O   0  0  0  0  0  0  0  0  0  0  0  0
  2  1  2  0
  3  1  1  0
  4  2  1  0
  5  3  2  0
  7  6  1  0
  9  4  2  0
  9  5  1  0
  9  6  1  0
 10  8  2  0
 11  7  1  0
 11  8  1  0
M  END
>  <NAME>  (3160) 
2-PHENYLETHYL FORMATE

>  <SYNONYMS>  (3160) 


>  <SPECTRUM TYPE>  (3160) 
MS1

>  <INSTRUMENT TYPE>  (3160) 
EI-B

>  <INSTRUMENT>  (3160) 
HITACHI M-80B

>  <ION MODE>  (3160) 
P

>  <INCHIKEY>  (3160) 
IKDIJXDZEYHZSD-UHFFFAOYSA-N

>  <FORMULA>  (3160) 
C9H10O2

>  <EXACT MASS>  (3160) 
150.06807956

>  <MW>  (3160) 
150

>  <ID>  (3160) 
JP007061

>  <CONTRIBUTOR>  (3160) 
University of Tokyo Team, {Faculty of Engineering, University of Tokyo

>  <COMMENT>  (3160) 
SMILES=O=COCCc(c1)cccc1
cas=104-62-1
InChI=InChI=1S/C9H10O2/c10-8-11-7-6-9-4-2-1-3-5-9/h1-5,8H,6-7H2
computed SMILES=O=COCCC=1C=CC=CC1
accession=JP007061
date=2016.01.19 (Created 2008.10.21, modified 2011.05.06)
author=SODA AROMATIC CO., LTD.
license=CC BY-NC-SA
exact mass=150.06808
ionization energy=70 eV
ion type=[M]+*
computed spectral entropy=2.1807071985746838
computed normalized entropy=0.7162723360335399
SPLASH=splash10-0udl-9700000000-2305889f29c68dad4bf8
submitter=submitter = University of Tokyo Team (Faculty of Engineering, University of Tokyo)
MoNA Rating=3.75

>  <NUM PEAKS>  (3160) 
21

>  <MASS SPECTRAL PEAKS>  (3160) 
27 2.86
29 7.3
31 7.61
38 1.05
39 8.35
41 1.39
50 3.6
51 8.43
52 1.78
62 1.18
63 4.55
65 12.32
77 8.22
78 6.91
79 2.92
89 2.12
91 52.31
92 5.87
103 7.47
104 99.99
105 11.85

>  <PREDICTED SPECTRUM>  (3160) 
26 27
27 82
28 0
29 64
30 63
31 35
36 13
37 17
38 61
39 197
40 11
41 102
49 53
50 154
51 238
52 120
53 94
61 7
62 43
63 109
64 44
65 228
66 68
74 48
75 44
76 53
77 288
78 257
79 132
89 33
91 420
92 158
93 29
102 74
103 187
104 999
105 391
106 99
120 75
150 61

$$$$

     RDKit          2D

 12 12  0  0  0  0  0  0  0  0999 V2000
    3.5726    1.6321    0.0000 C   0  0  0  0  0  0  0  0  0  0  0  0
    3.5731    3.1329    0.0000 C   0  0  0  0  0  0  0  0  0  0  0  0
    2.2731    0.8813    0.0000 C   0  0  0  0  0  0  0  0  0  0  0  0
   -1.6236    3.1321    0.0000 C   0  0  0  0  0  0  0  0  0  0  0  0
    2.2740    3.8829    0.0000 C   0  0  0  0  0  0  0  0  0  0  0  0
    0.9740    1.6313    0.0000 C   0  0  0  0  0  0  0  0  0  0  0  0
   -0.3245    3.8821    0.0000 C   0  0  0  0  0  0  0  0  0  0  0  0
   -2.9226    3.8821    0.0000 C   0  0  0  0  0  0  0  0  0  0  0  0
   -5.5207    3.8821    0.0000 C   0  0  0  0  0  0  0  0  0  0  0  0
    0.9745    3.1321    0.0000 C   0  0  0  0  0  0  0  0  0  0  0  0
   -6.8197    3.1321    0.0000 O   0  0  0  0  0  0  0  0  0  0  0  0
   -4.2216    3.1321    0.0000 O   0  0  0  0  0  0  0  0  0  0  0  0
  2  1  2  0
  3  1  1  0
  5  2  1  0
  6  3  2  0
  4  7  2  0
  8  4  1  0
 10  5  2  0
 10  6  1  0
 10  7  1  0
 11  9  2  0
 12  8  1  0
 12  9  1  0
M  END
>  <NAME>  (3161) 
CINNAMYL FORMATE

>  <SYNONYMS>  (3161) 


>  <SPECTRUM TYPE>  (3161) 
MS1

>  <INSTRUMENT TYPE>  (3161) 
EI-B

>  <INSTRUMENT>  (3161) 
HITACHI M-80B

>  <ION MODE>  (3161) 
P

>  <INCHIKEY>  (3161) 
LBHJXKYRYCUGPD-QPJJXVBHSA-N

>  <FORMULA>  (3161) 
C10H10O2

>  <EXACT MASS>  (3161) 
162.06807956

>  <MW>  (3161) 
162

>  <ID>  (3161) 
JP007060

>  <CONTRIBUTOR>  (3161) 
University of Tokyo Team, {Faculty of Engineering, University of Tokyo

>  <COMMENT>  (3161) 
SMILES=O=COCC=Cc(c1)cccc1
InChI=InChI=1S/C10H10O2/c11-9-12-8-4-7-10-5-2-1-3-6-10/h1-7,9H,8H2/b7-4+
computed SMILES=O=COCC=CC=1C=CC=CC1
accession=JP007060
date=2016.01.19 (Created 2008.10.21, modified 2011.05.06)
author=SODA AROMATIC CO., LTD.
license=CC BY-NC-SA
exact mass=162.06808
ionization energy=70 eV
ion type=[M]+*
computed spectral entropy=3.2385202872316787
computed normalized entropy=0.8196204835459681
SPLASH=splash10-014i-8900000000-dc39a09b4ea9d66fbc6f
submitter=submitter = University of Tokyo Team (Faculty of Engineering, University of Tokyo)
MoNA Rating=3.75

>  <NUM PEAKS>  (3161) 
52

>  <MASS SPECTRAL PEAKS>  (3161) 
26 1.4
27 8.39
29 21.75
31 3.49
38 2.94
39 21.21
40 1.41
41 1.84
43 1.19
50 11.27
51 26.07
52 4.52
53 2.35
55 7.88
56 2.06
57 3.42
61 1.23
62 4.46
63 15.28
64 2.41
65 10.65
66 1.17
74 3.89
75 3.89
76 4.31
77 31.8
78 30.37
79 12.96
86 1.06
87 1.71
89 9.59
90 1.91
91 48.81
92 50.23
93 2.89
102 7.92
103 14.14
104 3.37
105 29.8
106 3.51
107 1.04
113 1.03
114 2.41
115 99.99
116 55.56
117 65.93
118 5.91
131 2.56
133 31.89
134 7.6
162 52.52
163 5.02

>  <PREDICTED SPECTRUM>  (3161) 
25 21
26 83
27 186
28 57
29 199
30 52
31 32
37 64
38 132
39 314
40 83
41 44
42 29
43 27
44 79
45 77
49 55
50 241
51 373
52 183
53 144
55 129
56 23
57 1
58 66
61 83
62 151
63 275
64 181
65 327
66 125
67 49
68 2
71 19
72 23
73 56
74 155
75 177
76 104
77 357
78 245
79 236
80 69
81 81
85 27
86 64
87 83
88 18
89 212
90 91
91 461
92 176
93 100
94 74
95 146
96 12
101 17
102 188
103 216
104 195
105 287
106 88
107 153
108 100
113 51
114 40
115 844
116 647
117 999
118 303
119 136
120 95
131 247
132 94
133 524
134 222
135 81
162 576
163 197
164 31

$$$$

     RDKit          2D

 10 10  0  0  0  0  0  0  0  0999 V2000
    2.6027    1.4936    0.0000 C   0  0  0  0  0  0  0  0  0  0  0  0
    1.3000   -0.7500    0.0000 C   0  0  0  0  0  0  0  0  0  0  0  0
    0.0300    1.5000    0.0000 C   0  0  0  0  0  0  0  0  0  0  0  0
    0.0300   -1.5000    0.0000 C   0  0  0  0  0  0  0  0  0  0  0  0
   -1.3200    0.7500    0.0000 C   0  0  0  0  0  0  0  0  0  0  0  0
   -3.9180   -0.7714    0.0000 C   0  0  0  0  0  0  0  0  0  0  0  0
    1.3000    0.7500    0.0000 C   0  0  0  0  0  0  0  0  0  0  0  0
   -1.3200   -0.7500    0.0000 C   0  0  0  0  0  0  0  0  0  0  0  0
   -5.2108   -1.5321    0.0000 O   0  0  0  0  0  0  0  0  0  0  0  0
   -2.6128   -1.5107    0.0000 O   0  0  0  0  0  0  0  0  0  0  0  0
  4  2  2  0
  5  3  1  0
  7  1  1  0
  7  2  1  0
  7  3  2  0
  8  4  1  0
  8  5  2  0
  9  6  2  0
 10  6  1  0
 10  8  1  0
M  END
>  <NAME>  (3162) 
P-CRESYL FORMATE

>  <SYNONYMS>  (3162) 


>  <SPECTRUM TYPE>  (3162) 
MS1

>  <INSTRUMENT TYPE>  (3162) 
EI-B

>  <INSTRUMENT>  (3162) 
HITACHI M-80B

>  <ION MODE>  (3162) 
P

>  <INCHIKEY>  (3162) 
NEIANUMOAXBNRT-UHFFFAOYSA-N

>  <FORMULA>  (3162) 
C8H8O2

>  <EXACT MASS>  (3162) 
136.052429496

>  <MW>  (3162) 
136

>  <ID>  (3162) 
JP007059

>  <CONTRIBUTOR>  (3162) 
University of Tokyo Team, {Faculty of Engineering, University of Tokyo

>  <COMMENT>  (3162) 
SMILES=O=COc(c1)ccc(C)c1
InChI=InChI=1S/C8H8O2/c1-7-2-4-8(5-3-7)10-6-9/h2-6H,1H3
computed SMILES=O=COC1=CC=C(C=C1)C
accession=JP007059
date=2016.01.19 (Created 2008.10.21, modified 2011.05.06)
author=SODA AROMATIC CO., LTD.
license=CC BY-NC-SA
exact mass=136.05243
ionization energy=70 eV
ion type=[M]+*
computed spectral entropy=2.7123978446848436
computed normalized entropy=0.7691776906390148
SPLASH=splash10-0a4i-8900000000-e9466d9d0c9014bf2c19
submitter=submitter = University of Tokyo Team (Faculty of Engineering, University of Tokyo)
MoNA Rating=3.75

>  <NUM PEAKS>  (3162) 
34

>  <MASS SPECTRAL PEAKS>  (3162) 
26 2.22
27 11.78
29 17.74
37 1.1
38 2.59
39 14.23
40 1.16
41 1.14
49 1.03
50 10.42
51 18.07
52 10.27
53 11.37
55 2.14
61 1.16
62 2.69
63 7.19
64 1.61
65 5.81
74 1.56
77 29.59
78 9.8
79 21.15
80 7.39
81 1.33
89 2.36
90 8.63
91 5.82
106 1.06
107 99.99
108 85.05
109 6.89
136 34.51
137 2.47

>  <PREDICTED SPECTRUM>  (3162) 
25 20
26 105
27 196
28 89
29 127
30 15
37 66
38 162
39 384
40 110
41 168
42 65
43 77
44 87
45 35
47 84
49 59
50 288
51 403
52 356
53 307
54 158
55 55
56 18
60 18
61 145
62 131
63 247
64 129
65 322
66 154
67 18
68 1
74 96
75 150
76 109
77 577
78 378
79 472
80 295
81 198
82 7
87 11
89 144
90 285
91 337
92 55
93 145
105 39
107 864
108 999
109 276
110 26
136 511
137 171
138 36

$$$$

     RDKit          2D

 13 13  0  0  0  0  0  0  0  0999 V2000
    3.3463    0.1909    0.0000 C   0  0  0  0  0  0  0  0  0  0  0  0
    3.9054    2.2372    0.0000 C   0  0  0  0  0  0  0  0  0  0  0  0
    1.8591    2.7963    0.0000 C   0  0  0  0  0  0  0  0  0  0  0  0
    1.3000   -0.7500    0.0000 C   0  0  0  0  0  0  0  0  0  0  0  0
    0.0300    1.5000    0.0000 C   0  0  0  0  0  0  0  0  0  0  0  0
    0.0300   -1.5000    0.0000 C   0  0  0  0  0  0  0  0  0  0  0  0
   -1.3200    0.7500    0.0000 C   0  0  0  0  0  0  0  0  0  0  0  0
   -3.9180   -0.7714    0.0000 C   0  0  0  0  0  0  0  0  0  0  0  0
    1.3000    0.7500    0.0000 C   0  0  0  0  0  0  0  0  0  0  0  0
   -1.3200   -0.7500    0.0000 C   0  0  0  0  0  0  0  0  0  0  0  0
    2.6027    1.4936    0.0000 C   0  0  0  0  0  0  0  0  0  0  0  0
   -5.2108   -1.5321    0.0000 O   0  0  0  0  0  0  0  0  0  0  0  0
   -2.6128   -1.5107    0.0000 O   0  0  0  0  0  0  0  0  0  0  0  0
  6  4  1  0
  7  5  1  0
  9  4  1  0
  9  5  1  0
 10  6  1  0
 10  7  1  0
 11  1  1  0
 11  2  1  0
 11  3  1  0
 11  9  1  0
 12  8  2  0
 13  8  1  0
 13 10  1  0
M  END
>  <NAME>  (3163) 
P-TERT-BUTYLCYCLOHEXYL FORMATE

>  <SYNONYMS>  (3163) 


>  <SPECTRUM TYPE>  (3163) 
MS1

>  <INSTRUMENT TYPE>  (3163) 
EI-B

>  <INSTRUMENT>  (3163) 
HITACHI M-80B

>  <ION MODE>  (3163) 
P

>  <INCHIKEY>  (3163) 
ZIIKTNCFALFPNK-UHFFFAOYSA-N

>  <FORMULA>  (3163) 
C11H20O2

>  <EXACT MASS>  (3163) 
184.14632988

>  <MW>  (3163) 
184

>  <ID>  (3163) 
JP007057

>  <CONTRIBUTOR>  (3163) 
University of Tokyo Team, {Faculty of Engineering, University of Tokyo

>  <COMMENT>  (3163) 
SMILES=O=COC(C1)CCC(C1)C(C)(C)C
InChI=InChI=1S/C11H20O2/c1-11(2,3)9-4-6-10(7-5-9)13-8-12/h8-10H,4-7H2,1-3H3
computed SMILES=O=COC1CCC(CC1)C(C)(C)C
accession=JP007057
date=2016.01.19 (Created 2008.10.21, modified 2011.05.06)
author=SODA AROMATIC CO., LTD.
license=CC BY-NC-SA
exact mass=184.14633
ionization energy=70 eV
ion type=[M]+*
computed spectral entropy=2.823117788049303
computed normalized entropy=0.8005754852183171
SPLASH=splash10-0a59-9000000000-d9b83528905a7fff432a
submitter=submitter = University of Tokyo Team (Faculty of Engineering, University of Tokyo)
MoNA Rating=3.75

>  <NUM PEAKS>  (3163) 
34

>  <MASS SPECTRAL PEAKS>  (3163) 
27 5.11
29 13.44
31 1.05
39 7.4
40 1.09
41 30.9
42 1.76
43 6.87
44 2.06
53 4.69
54 6.22
55 12.69
56 32.87
57 99.99
58 4.98
65 1.05
67 32.34
68 2.23
69 5.66
77 1.52
79 5.12
80 13.45
81 21.49
82 38.89
83 26.93
84 1.52
95 2.29
123 15.36
124 1.21
127 3.43
128 3.24
129 8.38
138 4.86
139 1.51

>  <PREDICTED SPECTRUM>  (3163) 
26 51
27 196
28 117
29 336
30 174
31 110
39 242
40 70
41 544
42 129
43 223
44 62
45 10
47 33
50 27
51 106
52 65
53 223
54 318
55 383
56 396
57 999
58 140
59 104
65 149
66 81
67 621
68 87
69 123
70 54
77 124
79 319
80 467
81 631
82 671
83 436
84 5
85 6
95 56
97 52
109 77
110 20
123 420
127 189
128 193
129 226
138 186
139 146

$$$$

     RDKit          2D

  9  9  0  0  0  0  0  0  0  0999 V2000
   -1.6700   -0.9600    0.0000 C   0  0  0  0  0  0  0  0  0  0  0  0
   -1.6700    0.5400    0.0000 C   0  0  0  0  0  0  0  0  0  0  0  0
   -0.3700   -1.7100    0.0000 C   0  0  0  0  0  0  0  0  0  0  0  0
   -0.3700    1.2900    0.0000 C   0  0  0  0  0  0  0  0  0  0  0  0
    0.9300   -0.9600    0.0000 C   0  0  0  0  0  0  0  0  0  0  0  0
    3.5281    0.5404    0.0000 C   0  0  0  0  0  0  0  0  0  0  0  0
    0.9300    0.5400    0.0000 C   0  0  0  0  0  0  0  0  0  0  0  0
    4.8270    1.2906    0.0000 O   0  0  0  0  0  0  0  0  0  0  0  0
    2.2289    1.2902    0.0000 O   0  0  0  0  0  0  0  0  0  0  0  0
  2  1  1  0
  3  1  1  0
  4  2  1  0
  5  3  1  0
  7  4  1  0
  7  5  1  0
  8  6  2  0
  9  6  1  0
  9  7  1  0
M  END
>  <NAME>  (3164) 
CYCLOHEXYL FORMATE

>  <SYNONYMS>  (3164) 


>  <SPECTRUM TYPE>  (3164) 
MS1

>  <INSTRUMENT TYPE>  (3164) 
EI-B

>  <INSTRUMENT>  (3164) 
HITACHI M-80B

>  <ION MODE>  (3164) 
P

>  <INCHIKEY>  (3164) 
VUXKVKAHWOVIDN-UHFFFAOYSA-N

>  <FORMULA>  (3164) 
C7H12O2

>  <EXACT MASS>  (3164) 
128.083729624

>  <MW>  (3164) 
128

>  <ID>  (3164) 
JP007056

>  <CONTRIBUTOR>  (3164) 
University of Tokyo Team, {Faculty of Engineering, University of Tokyo

>  <COMMENT>  (3164) 
SMILES=O=COC(C1)CCCC1
cas=4351-54-6
InChI=InChI=1S/C7H12O2/c8-6-9-7-4-2-1-3-5-7/h6-7H,1-5H2
computed SMILES=O=COC1CCCCC1
accession=JP007056
date=2016.01.19 (Created 2008.10.21, modified 2011.05.06)
author=SODA AROMATIC CO., LTD.
license=CC BY-NC-SA
exact mass=128.08373
ionization energy=70 eV
ion type=[M]+*
computed spectral entropy=2.61614920770068
computed normalized entropy=0.7769288294789319
SPLASH=splash10-05o0-9000000000-a2aec3378d1a4e443f77
submitter=submitter = University of Tokyo Team (Faculty of Engineering, University of Tokyo)
MoNA Rating=3.75

>  <NUM PEAKS>  (3164) 
29

>  <MASS SPECTRAL PEAKS>  (3164) 
26 1.31
27 14.75
28 2.71
29 19.27
31 4.67
39 18.63
40 2.94
41 32.94
42 6.88
43 9.46
44 12.92
45 1.39
51 2.26
53 6.29
54 37.37
55 28.56
56 4.82
57 41.09
58 2.74
66 1.16
67 99.6
68 6.22
69 1.04
71 1.97
77 1.08
79 2.43
81 8.71
82 99.99
83 19.85

>  <PREDICTED SPECTRUM>  (3164) 
26 94
27 358
28 95
29 402
31 82
38 19
39 466
40 111
41 800
42 71
43 383
44 12
45 40
46 41
47 104
51 87
52 28
53 262
54 557
55 923
56 7
57 485
65 28
66 23
67 918
68 193
69 42
70 19
71 194
77 5
78 75
81 501
82 894
83 999
84 14
85 108

$$$$

     RDKit          2D

 18 17  0  0  0  0  0  0  0  0999 V2000
    4.1274    7.8511    0.0000 C   0  0  0  0  0  0  0  0  0  0  0  0
  -10.1620    8.6011    0.0000 C   0  0  0  0  0  0  0  0  0  0  0  0
   -8.8630    6.3511    0.0000 C   0  0  0  0  0  0  0  0  0  0  0  0
   -3.6668    6.3511    0.0000 C   0  0  0  0  0  0  0  0  0  0  0  0
    0.5652    6.7020    0.0000 C   0  0  0  0  0  0  0  0  0  0  0  0
    2.8284    8.6011    0.0000 C   0  0  0  0  0  0  0  0  0  0  0  0
   -6.2649    7.8511    0.0000 C   0  0  0  0  0  0  0  0  0  0  0  0
   -1.0687    7.8511    0.0000 C   0  0  0  0  0  0  0  0  0  0  0  0
   -7.5639    8.6011    0.0000 C   0  0  0  0  0  0  0  0  0  0  0  0
   -4.9659    8.6011    0.0000 C   0  0  0  0  0  0  0  0  0  0  0  0
   -2.3678    8.6011    0.0000 C   0  0  0  0  0  0  0  0  0  0  0  0
    0.2303    8.6011    0.0000 C   0  0  0  0  0  0  0  0  0  0  0  0
    3.9707    6.9625    0.0000 C   0  0  0  0  0  0  0  0  0  0  0  0
   -8.8630    7.8511    0.0000 C   0  0  0  0  0  0  0  0  0  0  0  0
   -3.6668    7.8511    0.0000 C   0  0  0  0  0  0  0  0  0  0  0  0
    1.5293    7.8511    0.0000 C   0  0  0  0  0  0  0  0  0  0  0  0
    4.9349    5.8134    0.0000 O   0  0  0  0  0  0  0  0  0  0  0  0
    2.4935    6.7020    0.0000 O   0  0  0  0  0  0  0  0  0  0  0  0
  6  1  2  0
  9  7  1  0
 10  7  1  0
 11  8  1  0
 12  8  1  0
 14  2  1  0
 14  3  1  0
 14  9  2  0
 15  4  1  0
 15 10  1  0
 11 15  2  0
 16  5  1  0
 16  6  1  0
 16 12  1  0
 17 13  2  0
 18 13  1  0
 18 16  1  0
M  END
>  <NAME>  (3165) 
TRANS-NEROLIDYL FORMATE

>  <SYNONYMS>  (3165) 
TRANS-3,7,11-TRIMETHYL-1,6,10-DODECATRIEN-3-YL FORMATE

>  <SPECTRUM TYPE>  (3165) 
MS1

>  <INSTRUMENT TYPE>  (3165) 
EI-B

>  <INSTRUMENT>  (3165) 
HITACHI M-80B

>  <ION MODE>  (3165) 
P

>  <INCHIKEY>  (3165) 
GJPVEZJRYIBIOD-RVDMUPIBSA-N

>  <FORMULA>  (3165) 
C16H26O2

>  <EXACT MASS>  (3165) 
250.193280072

>  <MW>  (3165) 
250

>  <ID>  (3165) 
JP007055

>  <CONTRIBUTOR>  (3165) 
University of Tokyo Team, {Faculty of Engineering, University of Tokyo

>  <COMMENT>  (3165) 
SMILES=O=COC(C)(C=C)CCC=C(C)CCC=C(C)C
InChI=InChI=1S/C16H26O2/c1-6-16(5,18-13-17)12-8-11-15(4)10-7-9-14(2)3/h6,9,11,13H,1,7-8,10,12H2,2-5H3/b15-11+
computed SMILES=O=COC(C=C)(C)CCC=C(C)CCC=C(C)C
accession=JP007055
date=2016.01.19 (Created 2008.10.21, modified 2011.05.06)
author=SODA AROMATIC CO., LTD.
license=CC BY-NC-SA
exact mass=250.19328
ionization energy=70 eV
ion type=[M]+*
computed spectral entropy=3.400970550608162
computed normalized entropy=0.8088511714087627
SPLASH=splash10-00kf-9200000000-0d04e4fcd1e34807df08
submitter=submitter = University of Tokyo Team (Faculty of Engineering, University of Tokyo)
MoNA Rating=3.75

>  <NUM PEAKS>  (3165) 
67

>  <MASS SPECTRAL PEAKS>  (3165) 
27 9.75
29 7.49
31 1.68
39 11.07
40 2.73
41 73.35
42 5.01
43 50.87
44 1.14
45 2.02
51 2.1
52 1.39
53 11.11
54 2.59
55 32.16
56 2.18
57 4.25
58 1.92
59 1.25
65 3.43
66 1.64
67 25.7
68 10.16
69 99.99
70 8.31
71 48.52
72 2.44
77 5.33
78 1.45
79 14.7
80 11.28
81 28.25
83 4.77
84 1.25
91 7.8
92 2.47
93 53.33
94 7.15
96 2.11
97 3.81
105 4.48
106 1.5
107 31.14
108 4.28
109 11.84
110 1.67
111 2.4
119 5.54
120 2.19
121 9.87
122 4.07
123 10.97
124 2.17
125 1.07
133 2.41
135 8.95
136 17.41
137 3.53
139 1.21
147 1.6
148 2.26
149 1.38
161 11.1
162 2.79
179 1.49
189 2.58
204 2.11

>  <PREDICTED SPECTRUM>  (3165) 
0 2
18 0
25 5
26 45
27 212
28 109
29 271
30 60
31 94
32 6
37 0
38 37
39 290
40 144
41 843
42 236
43 772
44 151
45 205
46 13
49 2
50 63
51 124
52 126
53 422
54 182
55 590
56 237
57 419
58 153
59 181
60 52
61 34
63 45
64 32
65 218
66 155
67 514
68 452
69 999
70 333
71 455
72 182
73 78
77 301
78 150
79 448
80 439
81 753
82 368
83 304
84 220
85 249
86 54
87 77
88 29
89 0
91 359
92 294
93 696
94 366
95 511
96 241
97 235
98 121
99 197
100 74
101 27
103 61
104 19
105 287
106 240
107 520
108 333
109 429
110 161
111 198
112 135
113 86
114 60
115 100
116 0
117 54
119 329
120 175
121 466
122 294
123 352
124 213
125 211
126 131
127 158
128 40
129 83
131 55
132 37
133 311
134 292
135 436
136 402
137 370
138 133
139 176
140 92
141 93
142 7
143 128
144 44
145 86
146 22
147 228
148 215
149 206
150 200
151 132
152 62
153 118
154 75
155 127
156 51
157 66
158 16
159 43
160 1
161 316
162 148
163 180
164 98
165 91
166 84
167 52
168 151
169 91
170 23
171 67
175 101
176 99
177 121
178 109
179 51
180 3
181 108
182 22
187 17
188 21
189 255
190 95
191 56
192 66
193 83
194 49
195 36
203 40
204 234
205 131
206 3
207 103
208 48
221 0
222 29
223 10
232 43
235 28
250 29

$$$$

     RDKit          2D

 13 12  0  0  0  0  0  0  0  0999 V2000
   -8.7685    6.1875    0.0000 C   0  0  0  0  0  0  0  0  0  0  0  0
   -7.4695    3.9375    0.0000 C   0  0  0  0  0  0  0  0  0  0  0  0
   -2.2733    3.9375    0.0000 C   0  0  0  0  0  0  0  0  0  0  0  0
   -4.8714    5.4375    0.0000 C   0  0  0  0  0  0  0  0  0  0  0  0
   -6.1704    6.1875    0.0000 C   0  0  0  0  0  0  0  0  0  0  0  0
   -3.5724    6.1875    0.0000 C   0  0  0  0  0  0  0  0  0  0  0  0
   -0.9743    6.1875    0.0000 C   0  0  0  0  0  0  0  0  0  0  0  0
    0.3248    5.4375    0.0000 C   0  0  0  0  0  0  0  0  0  0  0  0
    2.9228    5.4375    0.0000 C   0  0  0  0  0  0  0  0  0  0  0  0
   -7.4695    5.4375    0.0000 C   0  0  0  0  0  0  0  0  0  0  0  0
   -2.2733    5.4375    0.0000 C   0  0  0  0  0  0  0  0  0  0  0  0
    4.2219    6.1875    0.0000 O   0  0  0  0  0  0  0  0  0  0  0  0
    1.6238    6.1875    0.0000 O   0  0  0  0  0  0  0  0  0  0  0  0
  5  4  1  0
  6  4  1  0
  8  7  1  0
 10  1  1  0
 10  2  1  0
 10  5  1  0
 11  3  1  0
 11  6  1  0
 11  7  1  0
 12  9  2  0
 13  8  1  0
 13  9  1  0
M  END
>  <NAME>  (3166) 
TETRAHYDROGERANYL FORMATE

>  <SYNONYMS>  (3166) 
3,7-DIMETHYLOCTYL FORMATE

>  <SPECTRUM TYPE>  (3166) 
MS1

>  <INSTRUMENT TYPE>  (3166) 
EI-B

>  <INSTRUMENT>  (3166) 
HITACHI M-80B

>  <ION MODE>  (3166) 
P

>  <INCHIKEY>  (3166) 
AGARWNGUJKCDII-UHFFFAOYSA-N

>  <FORMULA>  (3166) 
C11H22O2

>  <EXACT MASS>  (3166) 
186.161979944

>  <MW>  (3166) 
186

>  <ID>  (3166) 
JP007054

>  <CONTRIBUTOR>  (3166) 
University of Tokyo Team, {Faculty of Engineering, University of Tokyo

>  <COMMENT>  (3166) 
SMILES=O=COCCC(C)CCCC(C)C
InChI=InChI=1S/C11H22O2/c1-10(2)5-4-6-11(3)7-8-13-9-12/h9-11H,4-8H2,1-3H3
computed SMILES=O=COCCC(C)CCCC(C)C
accession=JP007054
date=2016.01.19 (Created 2008.10.21, modified 2011.05.06)
author=SODA AROMATIC CO., LTD.
license=CC BY-NC-SA
exact mass=186.16198
ionization energy=70 eV
ion type=[M]+*
computed spectral entropy=3.0320562883850615
computed normalized entropy=0.8164797219287377
SPLASH=splash10-0abc-9000000000-161077e92ae4b9705661
submitter=submitter = University of Tokyo Team (Faculty of Engineering, University of Tokyo)
MoNA Rating=3.75

>  <NUM PEAKS>  (3166) 
41

>  <MASS SPECTRAL PEAKS>  (3166) 
18 2.35
27 25.23
28 5.81
29 29.3
31 27.44
39 19.67
40 4.4
41 80.66
42 23.54
43 90.56
44 3.86
45 3.97
47 1.71
51 1.08
53 7.94
54 6.09
55 99.99
56 79.82
57 55.93
58 2.34
67 6.21
68 6.11
69 61.31
70 88.74
71 29.74
72 1.31
73 2.26
74 1.73
81 4.01
82 4.83
83 28.48
84 21.84
85 5.31
96 6.87
97 19.2
98 3.53
111 9.67
112 12.83
113 1.16
125 3.67
140 2.31

>  <PREDICTED SPECTRUM>  (3166) 
19 6
25 7
26 55
27 308
28 121
29 404
30 58
31 210
33 27
35 9
36 71
37 37
38 71
39 382
40 166
41 810
42 491
43 836
44 245
45 155
46 66
47 76
50 9
51 75
52 40
53 209
54 247
55 854
56 999
57 817
58 101
59 96
60 1
61 83
63 91
65 39
66 48
67 278
68 369
69 838
70 888
71 481
72 70
73 108
79 66
81 241
82 335
83 590
84 515
85 178
87 0
88 5
95 199
96 255
97 453
98 255
101 8
110 98
111 353
112 363
113 70
125 80
126 18
140 157
141 4

$$$$

     RDKit          2D

 14 13  0  0  0  0  0  0  0  0999 V2000
    3.8971    6.7500    0.0000 C   0  0  0  0  0  0  0  0  0  0  0  0
  -11.6913    6.7500    0.0000 C   0  0  0  0  0  0  0  0  0  0  0  0
    2.5981    7.5000    0.0000 C   0  0  0  0  0  0  0  0  0  0  0  0
    1.2990    6.7500    0.0000 C   0  0  0  0  0  0  0  0  0  0  0  0
    0.0000    7.5000    0.0000 C   0  0  0  0  0  0  0  0  0  0  0  0
   -1.2990    6.7500    0.0000 C   0  0  0  0  0  0  0  0  0  0  0  0
   -2.5981    7.5000    0.0000 C   0  0  0  0  0  0  0  0  0  0  0  0
   -3.8971    6.7500    0.0000 C   0  0  0  0  0  0  0  0  0  0  0  0
   -5.1962    7.5000    0.0000 C   0  0  0  0  0  0  0  0  0  0  0  0
   -6.4952    6.7500    0.0000 C   0  0  0  0  0  0  0  0  0  0  0  0
   -7.7942    7.5000    0.0000 C   0  0  0  0  0  0  0  0  0  0  0  0
   -9.0933    6.7500    0.0000 C   0  0  0  0  0  0  0  0  0  0  0  0
  -10.3923    7.5000    0.0000 C   0  0  0  0  0  0  0  0  0  0  0  0
  -10.3923    9.0000    0.0000 O   0  0  0  0  0  0  0  0  0  0  0  0
  3  1  1  0
  4  3  1  0
  5  4  1  0
  6  5  1  0
  7  6  1  0
  8  7  1  0
  9  8  1  0
 10  9  1  0
 11 10  1  0
 12 11  1  0
 13  2  1  0
 13 12  1  0
 14 13  2  0
M  END
>  <NAME>  (3167) 
2-TRIDECANONE

>  <SYNONYMS>  (3167) 


>  <SPECTRUM TYPE>  (3167) 
MS1

>  <INSTRUMENT TYPE>  (3167) 
EI-B

>  <INSTRUMENT>  (3167) 
HITACHI M-80B

>  <ION MODE>  (3167) 
P

>  <INCHIKEY>  (3167) 
CYIFVRUOHKNECG-UHFFFAOYSA-N

>  <FORMULA>  (3167) 
C13H26O

>  <EXACT MASS>  (3167) 
198.198365452

>  <MW>  (3167) 
198

>  <ID>  (3167) 
JP007053

>  <CONTRIBUTOR>  (3167) 
University of Tokyo Team, {Faculty of Engineering, University of Tokyo

>  <COMMENT>  (3167) 
SMILES=CCCCCCCCCCCC(C)=O
InChI=InChI=1S/C13H26O/c1-3-4-5-6-7-8-9-10-11-12-13(2)14/h3-12H2,1-2H3
computed SMILES=O=C(C)CCCCCCCCCCC
accession=JP007053
date=2016.01.19 (Created 2008.10.21, modified 2011.05.06)
author=SODA AROMATIC CO., LTD.
license=CC BY-NC-SA
exact mass=198.19837
ionization energy=70 eV
ion type=[M]+*
computed spectral entropy=2.5874658835442337
computed normalized entropy=0.716567351056028
SPLASH=splash10-0a4l-9000000000-f27d8cbcbb2a9eea32df
submitter=submitter = University of Tokyo Team (Faculty of Engineering, University of Tokyo)
MoNA Rating=3.75

>  <NUM PEAKS>  (3167) 
37

>  <MASS SPECTRAL PEAKS>  (3167) 
15 1.47
27 8.02
29 13.74
39 5.55
41 24.02
42 5.77
43 77.98
44 1.86
53 1.6
54 1.48
55 13.3
56 4.48
57 13.76
58 99.99
59 38.2
60 1.32
67 2.04
68 1.36
69 3.29
70 2.33
71 31.68
72 1.83
81 1.68
82 3.09
83 2.18
84 1.54
85 7.49
95 1.89
96 2.96
97 2.2
110 1.32
111 1.23
127 1.18
138 2.28
140 3.31
183 1.24
198 3.09

>  <PREDICTED SPECTRUM>  (3167) 
15 42
18 0
26 36
27 235
28 92
29 243
30 8
31 7
32 4
39 159
40 55
41 525
42 245
43 999
44 125
51 3
53 140
54 164
55 399
56 252
57 381
58 880
59 474
61 13
66 49
67 186
68 207
69 257
70 135
71 501
72 297
73 93
79 27
80 15
81 174
82 199
83 188
84 3
85 175
86 140
87 37
88 16
94 2
95 134
96 204
97 163
98 92
99 213
100 74
109 93
110 94
111 83
112 87
113 119
114 6
115 16
122 46
123 99
124 44
125 49
126 5
127 58
128 69
137 9
138 64
140 137
141 328
142 124
155 97
156 40
169 41
181 5
183 213
184 23
197 49
198 311
199 133

$$$$

     RDKit          2D

 13 12  0  0  0  0  0  0  0  0999 V2000
    3.5724    6.5625    0.0000 C   0  0  0  0  0  0  0  0  0  0  0  0
  -10.7171    7.3125    0.0000 C   0  0  0  0  0  0  0  0  0  0  0  0
    2.2733    7.3125    0.0000 C   0  0  0  0  0  0  0  0  0  0  0  0
    0.9743    6.5625    0.0000 C   0  0  0  0  0  0  0  0  0  0  0  0
   -0.3248    7.3125    0.0000 C   0  0  0  0  0  0  0  0  0  0  0  0
   -1.6238    6.5625    0.0000 C   0  0  0  0  0  0  0  0  0  0  0  0
   -2.9228    7.3125    0.0000 C   0  0  0  0  0  0  0  0  0  0  0  0
   -4.2219    6.5625    0.0000 C   0  0  0  0  0  0  0  0  0  0  0  0
   -5.5209    7.3125    0.0000 C   0  0  0  0  0  0  0  0  0  0  0  0
   -6.8200    6.5625    0.0000 C   0  0  0  0  0  0  0  0  0  0  0  0
   -8.1190    7.3125    0.0000 C   0  0  0  0  0  0  0  0  0  0  0  0
   -9.4180    6.5625    0.0000 C   0  0  0  0  0  0  0  0  0  0  0  0
   -9.4180    5.0625    0.0000 O   0  0  0  0  0  0  0  0  0  0  0  0
  3  1  1  0
  4  3  1  0
  5  4  1  0
  6  5  1  0
  7  6  1  0
  8  7  1  0
  9  8  1  0
 10  9  1  0
 11 10  1  0
 12  2  1  0
 12 11  1  0
 13 12  2  0
M  END
>  <NAME>  (3168) 
2-DODECANONE

>  <SYNONYMS>  (3168) 


>  <SPECTRUM TYPE>  (3168) 
MS1

>  <INSTRUMENT TYPE>  (3168) 
EI-B

>  <INSTRUMENT>  (3168) 
HITACHI M-80B

>  <ION MODE>  (3168) 
P

>  <INCHIKEY>  (3168) 
LSKONYYRONEBKA-UHFFFAOYSA-N

>  <FORMULA>  (3168) 
C12H24O

>  <EXACT MASS>  (3168) 
184.182715388

>  <MW>  (3168) 
184

>  <ID>  (3168) 
JP007052

>  <CONTRIBUTOR>  (3168) 
University of Tokyo Team, {Faculty of Engineering, University of Tokyo

>  <COMMENT>  (3168) 
SMILES=CCCCCCCCCCC(C)=O
InChI=InChI=1S/C12H24O/c1-3-4-5-6-7-8-9-10-11-12(2)13/h3-11H2,1-2H3
computed SMILES=O=C(C)CCCCCCCCCC
accession=JP007052
date=2016.01.19 (Created 2008.10.21, modified 2011.05.06)
author=SODA AROMATIC CO., LTD.
license=CC BY-NC-SA
exact mass=184.18272
ionization energy=70 eV
ion type=[M]+*
computed spectral entropy=2.4785887434206217
computed normalized entropy=0.7151695377072277
SPLASH=splash10-0a4l-9000000000-34e6acbca9cad7e87122
submitter=submitter = University of Tokyo Team (Faculty of Engineering, University of Tokyo)
MoNA Rating=3.75

>  <NUM PEAKS>  (3168) 
32

>  <MASS SPECTRAL PEAKS>  (3168) 
15 2.26
27 10.12
29 14.07
39 6.76
41 25.55
42 6.03
43 86.58
44 2
53 1.54
54 1.46
55 11.8
56 4.1
57 11.52
58 99.99
59 31.93
67 1.64
68 1.19
69 3.36
70 2.4
71 27.85
72 1.51
81 1.33
82 3.32
83 2.26
84 1.44
85 6.28
95 1.58
96 1.83
97 1.61
124 2.17
126 3.28
184 2.56

>  <PREDICTED SPECTRUM>  (3168) 
14 0
15 20
26 32
27 227
28 82
29 237
32 6
39 167
40 47
41 507
42 240
43 999
44 188
45 69
51 7
53 142
54 165
55 387
56 255
57 397
58 836
59 457
66 46
67 164
68 165
69 217
70 9
71 382
72 250
73 49
79 20
80 0
81 134
82 178
83 157
84 88
85 298
86 157
87 1
88 3
93 1
94 0
95 145
96 177
97 106
98 99
99 146
100 45
101 30
108 26
109 104
110 32
111 33
112 14
113 89
114 84
123 44
124 58
126 134
127 295
128 117
141 96
142 23
155 53
169 190
170 8
183 41
184 330
185 121

$$$$

     RDKit          2D

 12 11  0  0  0  0  0  0  0  0999 V2000
   -6.8200    5.0625    0.0000 C   0  0  0  0  0  0  0  0  0  0  0  0
   -5.5209    2.8125    0.0000 C   0  0  0  0  0  0  0  0  0  0  0  0
    3.5724    5.0625    0.0000 C   0  0  0  0  0  0  0  0  0  0  0  0
    2.2733    2.8125    0.0000 C   0  0  0  0  0  0  0  0  0  0  0  0
   -4.2219    5.0625    0.0000 C   0  0  0  0  0  0  0  0  0  0  0  0
    0.9743    5.0625    0.0000 C   0  0  0  0  0  0  0  0  0  0  0  0
   -2.9228    4.3125    0.0000 C   0  0  0  0  0  0  0  0  0  0  0  0
   -0.3248    4.3125    0.0000 C   0  0  0  0  0  0  0  0  0  0  0  0
   -5.5209    4.3125    0.0000 C   0  0  0  0  0  0  0  0  0  0  0  0
    2.2733    4.3125    0.0000 C   0  0  0  0  0  0  0  0  0  0  0  0
   -1.6238    5.0625    0.0000 C   0  0  0  0  0  0  0  0  0  0  0  0
   -1.6238    6.5625    0.0000 O   0  0  0  0  0  0  0  0  0  0  0  0
  7  5  1  0
  8  6  1  0
  9  1  1  0
  9  2  1  0
  9  5  1  0
 10  3  1  0
 10  4  1  0
 10  6  1  0
 11  7  1  0
 11  8  1  0
 12 11  2  0
M  END
>  <NAME>  (3169) 
2,8-DIMETHYL-5-NONANONE

>  <SYNONYMS>  (3169) 


>  <SPECTRUM TYPE>  (3169) 
MS1

>  <INSTRUMENT TYPE>  (3169) 
EI-B

>  <INSTRUMENT>  (3169) 
HITACHI M-80B

>  <ION MODE>  (3169) 
P

>  <INCHIKEY>  (3169) 
JQCWLRHNAHIIGW-UHFFFAOYSA-N

>  <FORMULA>  (3169) 
C11H22O

>  <EXACT MASS>  (3169) 
170.167065324

>  <MW>  (3169) 
170

>  <ID>  (3169) 
JP007051

>  <CONTRIBUTOR>  (3169) 
University of Tokyo Team, {Faculty of Engineering, University of Tokyo

>  <COMMENT>  (3169) 
SMILES=CC(C)CCC(=O)CCC(C)C
InChI=InChI=1S/C11H22O/c1-9(2)5-7-11(12)8-6-10(3)4/h9-10H,5-8H2,1-4H3
computed SMILES=O=C(CCC(C)C)CCC(C)C
accession=JP007051
date=2016.01.19 (Created 2008.10.21, modified 2011.05.06)
author=SODA AROMATIC CO., LTD.
license=CC BY-NC-SA
exact mass=170.16707
ionization energy=70 eV
ion type=[M]+*
computed spectral entropy=2.706335330690791
computed normalized entropy=0.7808833121140394
SPLASH=splash10-0a4l-9000000000-5b105704261ff75420a9
submitter=submitter = University of Tokyo Team (Faculty of Engineering, University of Tokyo)
MoNA Rating=3.75

>  <NUM PEAKS>  (3169) 
32

>  <MASS SPECTRAL PEAKS>  (3169) 
15 1.21
27 22.46
28 4.75
29 22.57
39 13.85
40 1.37
41 40.38
42 5.85
43 99.99
44 2.94
53 4.89
55 16.75
56 8.18
57 29.58
58 90.73
59 28.62
67 1.29
69 1.79
70 1.17
71 30.99
72 2.93
81 40.72
82 2.35
83 1.12
85 2.8
86 1.49
99 31.56
100 1.77
114 6.71
115 1.58
127 2.69
170 3.38

>  <PREDICTED SPECTRUM>  (3169) 
14 8
15 42
26 87
27 410
28 176
29 462
30 106
31 50
32 2
37 26
38 65
39 352
40 170
41 674
42 275
43 999
44 247
45 139
50 21
51 104
52 50
53 178
54 77
55 402
56 355
57 699
58 446
59 122
66 6
67 115
68 20
69 194
70 70
71 825
72 253
73 51
81 105
83 38
84 19
85 87
86 101
99 448
100 368
101 13
112 21
113 200
114 206
115 94
127 137
170 119
171 1

$$$$

     RDKit          2D

 12 11  0  0  0  0  0  0  0  0999 V2000
    3.2476    5.6250    0.0000 C   0  0  0  0  0  0  0  0  0  0  0  0
   -9.7428    5.6250    0.0000 C   0  0  0  0  0  0  0  0  0  0  0  0
    1.9486    6.3750    0.0000 C   0  0  0  0  0  0  0  0  0  0  0  0
   -8.4437    6.3750    0.0000 C   0  0  0  0  0  0  0  0  0  0  0  0
    0.6495    5.6250    0.0000 C   0  0  0  0  0  0  0  0  0  0  0  0
   -7.1447    5.6250    0.0000 C   0  0  0  0  0  0  0  0  0  0  0  0
   -0.6495    6.3750    0.0000 C   0  0  0  0  0  0  0  0  0  0  0  0
   -1.9486    5.6250    0.0000 C   0  0  0  0  0  0  0  0  0  0  0  0
   -5.8457    6.3750    0.0000 C   0  0  0  0  0  0  0  0  0  0  0  0
   -3.2476    6.3750    0.0000 C   0  0  0  0  0  0  0  0  0  0  0  0
   -4.5466    5.6250    0.0000 C   0  0  0  0  0  0  0  0  0  0  0  0
   -4.5466    4.1250    0.0000 O   0  0  0  0  0  0  0  0  0  0  0  0
  3  1  1  0
  4  2  1  0
  5  3  1  0
  6  4  1  0
  7  5  1  0
  8  7  1  0
  9  6  1  0
 10  8  1  0
 11  9  1  0
 11 10  1  0
 12 11  2  0
M  END
>  <NAME>  (3170) 
5-UNDECANONE

>  <SYNONYMS>  (3170) 


>  <SPECTRUM TYPE>  (3170) 
MS1

>  <INSTRUMENT TYPE>  (3170) 
EI-B

>  <INSTRUMENT>  (3170) 
HITACHI M-80B

>  <ION MODE>  (3170) 
P

>  <INCHIKEY>  (3170) 
WENNKWXPAWNIOO-UHFFFAOYSA-N

>  <FORMULA>  (3170) 
C11H22O

>  <EXACT MASS>  (3170) 
170.167065324

>  <MW>  (3170) 
170

>  <ID>  (3170) 
JP007049

>  <CONTRIBUTOR>  (3170) 
University of Tokyo Team, {Faculty of Engineering, University of Tokyo

>  <COMMENT>  (3170) 
SMILES=CCCCCCC(=O)CCCC
InChI=InChI=1S/C11H22O/c1-3-5-7-8-10-11(12)9-6-4-2/h3-10H2,1-2H3
computed SMILES=O=C(CCCC)CCCCCC
accession=JP007049
date=2016.01.19 (Created 2008.10.21, modified 2011.05.06)
author=SODA AROMATIC CO., LTD.
license=CC BY-NC-SA
exact mass=170.16707
ionization energy=70 eV
ion type=[M]+*
computed spectral entropy=2.7379509708745817
computed normalized entropy=0.7700936514574592
SPLASH=splash10-0a4l-9100000000-699fb7c1dbc49f9c103e
submitter=submitter = University of Tokyo Team (Faculty of Engineering, University of Tokyo)
MoNA Rating=3.75

>  <NUM PEAKS>  (3170) 
35

>  <MASS SPECTRAL PEAKS>  (3170) 
15 1.1
26 1.5
27 28.38
28 6.37
29 52.11
39 15.29
41 56.86
42 10.09
43 86.34
44 2.38
53 2.85
55 15.8
56 3.98
57 72.89
58 99.99
59 11.68
67 1.48
68 3.76
69 3.07
70 1.78
71 18.93
72 5.43
81 1.06
83 1.04
84 1.06
85 66.51
86 4.91
95 2.4
100 10.73
101 3.03
113 41.71
114 2.84
128 3.49
141 2.07
170 2.56

>  <PREDICTED SPECTRUM>  (3170) 
14 12
15 73
18 26
25 5
26 107
27 443
28 255
29 577
30 131
31 121
32 19
38 58
39 415
40 148
41 786
42 424
43 874
44 262
45 109
50 6
51 114
52 47
53 204
54 169
55 516
56 308
57 999
58 778
59 267
63 6
65 72
66 77
67 221
68 177
69 211
70 124
71 534
72 348
73 49
78 49
79 95
80 22
81 169
82 128
83 127
84 32
85 885
86 414
87 159
88 3
95 199
96 126
98 27
99 158
100 276
101 104
113 772
114 227
115 52
127 113
128 172
129 20
141 218
142 21
155 71
170 119
171 38

$$$$

     RDKit          2D

 12 11  0  0  0  0  0  0  0  0999 V2000
    3.2476    5.6250    0.0000 C   0  0  0  0  0  0  0  0  0  0  0  0
   -9.7428    5.6250    0.0000 C   0  0  0  0  0  0  0  0  0  0  0  0
    1.9486    6.3750    0.0000 C   0  0  0  0  0  0  0  0  0  0  0  0
   -8.4437    6.3750    0.0000 C   0  0  0  0  0  0  0  0  0  0  0  0
    0.6495    5.6250    0.0000 C   0  0  0  0  0  0  0  0  0  0  0  0
   -0.6495    6.3750    0.0000 C   0  0  0  0  0  0  0  0  0  0  0  0
   -1.9486    5.6250    0.0000 C   0  0  0  0  0  0  0  0  0  0  0  0
   -3.2476    6.3750    0.0000 C   0  0  0  0  0  0  0  0  0  0  0  0
   -7.1447    5.6250    0.0000 C   0  0  0  0  0  0  0  0  0  0  0  0
   -4.5466    5.6250    0.0000 C   0  0  0  0  0  0  0  0  0  0  0  0
   -5.8457    6.3750    0.0000 C   0  0  0  0  0  0  0  0  0  0  0  0
   -5.8457    7.8750    0.0000 O   0  0  0  0  0  0  0  0  0  0  0  0
  3  1  1  0
  4  2  1  0
  5  3  1  0
  6  5  1  0
  7  6  1  0
  8  7  1  0
  9  4  1  0
 10  8  1  0
 11  9  1  0
 11 10  1  0
 12 11  2  0
M  END
>  <NAME>  (3171) 
4-UNDECANONE

>  <SYNONYMS>  (3171) 


>  <SPECTRUM TYPE>  (3171) 
MS1

>  <INSTRUMENT TYPE>  (3171) 
EI-B

>  <INSTRUMENT>  (3171) 
HITACHI M-80B

>  <ION MODE>  (3171) 
P

>  <INCHIKEY>  (3171) 
NBSLHMOSERBUOV-UHFFFAOYSA-N

>  <FORMULA>  (3171) 
C11H22O

>  <EXACT MASS>  (3171) 
170.167065324

>  <MW>  (3171) 
170

>  <ID>  (3171) 
JP007048

>  <CONTRIBUTOR>  (3171) 
University of Tokyo Team, {Faculty of Engineering, University of Tokyo

>  <COMMENT>  (3171) 
SMILES=CCCCCCCC(=O)CCC
InChI=InChI=1S/C11H22O/c1-3-5-6-7-8-10-11(12)9-4-2/h3-10H2,1-2H3
computed SMILES=O=C(CCC)CCCCCCC
accession=JP007048
date=2016.01.19 (Created 2008.10.21, modified 2011.05.06)
author=SODA AROMATIC CO., LTD.
license=CC BY-NC-SA
exact mass=170.16707
ionization energy=70 eV
ion type=[M]+*
computed spectral entropy=2.6494793265944074
computed normalized entropy=0.7644781370831164
SPLASH=splash10-0a6u-9000000000-46499d5c3619d07f2974
submitter=submitter = University of Tokyo Team (Faculty of Engineering, University of Tokyo)
MoNA Rating=3.75

>  <NUM PEAKS>  (3171) 
32

>  <MASS SPECTRAL PEAKS>  (3171) 
15 1.15
26 1.04
27 30.97
28 1.36
29 24.51
39 14.28
40 1.4
41 52.7
42 11.26
43 99.99
44 2.46
53 2.17
54 1.1
55 16.45
56 2.37
57 83.98
58 71.51
59 2.74
67 2.66
69 2.02
70 2.07
71 74.14
72 2.76
82 1.36
83 1.41
86 43.77
87 10.54
99 12.45
109 2.98
127 33.92
128 3.12
170 3

>  <PREDICTED SPECTRUM>  (3171) 
14 11
15 71
18 17
26 56
27 290
28 138
29 255
30 23
32 28
38 11
39 272
40 118
41 587
42 350
43 918
44 206
51 12
53 106
54 103
55 404
56 161
57 576
58 763
59 213
67 163
68 82
69 196
70 28
71 999
72 155
81 139
82 101
83 89
84 38
85 262
86 925
87 468
95 58
99 209
100 3
109 247
113 39
127 540
128 135
129 77
170 176
171 35

$$$$

     RDKit          2D

 12 11  0  0  0  0  0  0  0  0999 V2000
   -9.7428    5.6250    0.0000 C   0  0  0  0  0  0  0  0  0  0  0  0
    3.2476    5.6250    0.0000 C   0  0  0  0  0  0  0  0  0  0  0  0
   -8.4437    4.8750    0.0000 C   0  0  0  0  0  0  0  0  0  0  0  0
    1.9486    4.8750    0.0000 C   0  0  0  0  0  0  0  0  0  0  0  0
   -7.1447    5.6250    0.0000 C   0  0  0  0  0  0  0  0  0  0  0  0
   -5.8457    4.8750    0.0000 C   0  0  0  0  0  0  0  0  0  0  0  0
   -4.5466    5.6250    0.0000 C   0  0  0  0  0  0  0  0  0  0  0  0
   -3.2476    4.8750    0.0000 C   0  0  0  0  0  0  0  0  0  0  0  0
   -1.9486    5.6250    0.0000 C   0  0  0  0  0  0  0  0  0  0  0  0
   -0.6495    4.8750    0.0000 C   0  0  0  0  0  0  0  0  0  0  0  0
    0.6495    5.6250    0.0000 C   0  0  0  0  0  0  0  0  0  0  0  0
    0.6495    7.1250    0.0000 O   0  0  0  0  0  0  0  0  0  0  0  0
  3  1  1  0
  4  2  1  0
  5  3  1  0
  6  5  1  0
  7  6  1  0
  8  7  1  0
  9  8  1  0
 10  9  1  0
 11  4  1  0
 11 10  1  0
 12 11  2  0
M  END
>  <NAME>  (3172) 
3-UNDECANONE

>  <SYNONYMS>  (3172) 


>  <SPECTRUM TYPE>  (3172) 
MS1

>  <INSTRUMENT TYPE>  (3172) 
EI-B

>  <INSTRUMENT>  (3172) 
HITACHI M-80B

>  <ION MODE>  (3172) 
P

>  <INCHIKEY>  (3172) 
YNMZZHPSYMOGCI-UHFFFAOYSA-N

>  <FORMULA>  (3172) 
C11H22O

>  <EXACT MASS>  (3172) 
170.167065324

>  <MW>  (3172) 
170

>  <ID>  (3172) 
JP007047

>  <CONTRIBUTOR>  (3172) 
University of Tokyo Team, {Faculty of Engineering, University of Tokyo

>  <COMMENT>  (3172) 
SMILES=CCCCCCCCC(=O)CC
InChI=InChI=1S/C11H22O/c1-3-5-6-7-8-9-10-11(12)4-2/h3-10H2,1-2H3
computed SMILES=O=C(CC)CCCCCCCC
accession=JP007047
author=SODA AROMATIC CO., LTD.
date=2016.01.19 (Created 2008.10.21, modified 2011.05.06)
license=CC BY-NC-SA
exact mass=170.16707
ionization energy=70 eV
ion type=[M]+*
computed spectral entropy=2.6472182385340868
computed normalized entropy=0.7506941562142833
SPLASH=splash10-05i3-9000000000-f0ca7f5c1ff3fa97a13e
submitter=submitter = University of Tokyo Team (Faculty of Engineering, University of Tokyo)
MoNA Rating=3.75

>  <NUM PEAKS>  (3172) 
34

>  <MASS SPECTRAL PEAKS>  (3172) 
26 1.1
27 24.03
28 1.76
29 61.02
30 1.21
39 10.92
41 35.58
42 8.5
43 47.13
44 1.26
53 2.49
54 1.61
55 17.17
56 4.61
57 99.99
58 3.21
67 3.5
68 1.15
69 2.74
70 1.13
71 32.76
72 88.46
73 19.29
81 4.56
83 1.09
85 15.55
86 1
96 2.19
98 1.16
99 1.72
123 1.6
141 26.81
142 2.14
170 2.4

>  <PREDICTED SPECTRUM>  (3172) 
15 50
26 42
27 270
28 76
29 424
30 99
31 38
39 194
40 48
41 549
42 217
43 673
44 204
45 28
51 9
53 161
54 110
55 365
56 184
57 999
58 475
59 190
66 11
67 152
68 97
69 146
70 98
71 411
72 598
73 65
79 46
80 7
81 169
82 91
83 100
84 1
85 304
86 203
87 42
95 154
96 105
97 22
98 23
99 144
100 78
101 31
105 3
109 102
110 20
113 156
114 18
123 90
127 38
128 2
141 361
142 106
143 6
152 13
170 161
171 41

$$$$

     RDKit          2D

 12 11  0  0  0  0  0  0  0  0999 V2000
    3.2476    5.6250    0.0000 C   0  0  0  0  0  0  0  0  0  0  0  0
   -9.7428    5.6250    0.0000 C   0  0  0  0  0  0  0  0  0  0  0  0
    1.9486    6.3750    0.0000 C   0  0  0  0  0  0  0  0  0  0  0  0
    0.6495    5.6250    0.0000 C   0  0  0  0  0  0  0  0  0  0  0  0
   -0.6495    6.3750    0.0000 C   0  0  0  0  0  0  0  0  0  0  0  0
   -1.9486    5.6250    0.0000 C   0  0  0  0  0  0  0  0  0  0  0  0
   -3.2476    6.3750    0.0000 C   0  0  0  0  0  0  0  0  0  0  0  0
   -4.5466    5.6250    0.0000 C   0  0  0  0  0  0  0  0  0  0  0  0
   -5.8457    6.3750    0.0000 C   0  0  0  0  0  0  0  0  0  0  0  0
   -7.1447    5.6250    0.0000 C   0  0  0  0  0  0  0  0  0  0  0  0
   -8.4437    6.3750    0.0000 C   0  0  0  0  0  0  0  0  0  0  0  0
   -8.4437    7.8750    0.0000 O   0  0  0  0  0  0  0  0  0  0  0  0
  3  1  1  0
  4  3  1  0
  5  4  1  0
  6  5  1  0
  7  6  1  0
  8  7  1  0
  9  8  1  0
 10  9  1  0
 11  2  1  0
 11 10  1  0
 12 11  2  0
M  END
>  <NAME>  (3173) 
2-UNDECANONE

>  <SYNONYMS>  (3173) 


>  <SPECTRUM TYPE>  (3173) 
MS1

>  <INSTRUMENT TYPE>  (3173) 
EI-B

>  <INSTRUMENT>  (3173) 
HITACHI M-80B

>  <ION MODE>  (3173) 
P

>  <INCHIKEY>  (3173) 
KYWIYKKSMDLRDC-UHFFFAOYSA-N

>  <FORMULA>  (3173) 
C11H22O

>  <EXACT MASS>  (3173) 
170.167065324

>  <MW>  (3173) 
170

>  <ID>  (3173) 
JP007046

>  <CONTRIBUTOR>  (3173) 
University of Tokyo Team, {Faculty of Engineering, University of Tokyo

>  <COMMENT>  (3173) 
SMILES=CCCCCCCCCC(C)=O
InChI=InChI=1S/C11H22O/c1-3-4-5-6-7-8-9-10-11(2)12/h3-10H2,1-2H3
computed SMILES=O=C(C)CCCCCCCCC
accession=JP007046
date=2016.01.19 (Created 2008.10.21, modified 2011.05.06)
author=SODA AROMATIC CO., LTD.
license=CC BY-NC-SA
exact mass=170.16707
ionization energy=70 eV
ion type=[M]+*
computed spectral entropy=2.4666273362208684
computed normalized entropy=0.6994824604581111
SPLASH=splash10-0a4l-9000000000-0b50ecd5a4e139569f95
submitter=submitter = University of Tokyo Team (Faculty of Engineering, University of Tokyo)
MoNA Rating=3.75

>  <NUM PEAKS>  (3173) 
34

>  <MASS SPECTRAL PEAKS>  (3173) 
15 2.18
27 11.31
28 2.63
29 15.19
39 7.25
41 24.76
42 6.16
43 89.28
44 1.83
53 1.71
54 1.28
55 9.8
56 2.89
57 9.84
58 99.99
59 28.98
67 1.58
68 1.32
69 2.73
70 2.56
71 27.06
72 1.57
81 1.64
82 1.94
83 1.84
84 1.03
85 5.55
95 1.31
96 1.11
110 2.4
112 2.95
127 1.14
155 1.08
170 2.81

>  <PREDICTED SPECTRUM>  (3173) 
14 3
15 38
26 21
27 204
28 66
29 211
30 13
32 9
39 175
40 50
41 488
42 252
43 999
44 185
45 110
51 6
53 117
54 151
55 346
56 198
57 332
58 794
59 426
61 7
66 33
67 148
68 146
69 202
70 101
71 428
72 226
73 13
79 45
80 3
81 148
82 149
83 100
84 82
85 195
86 178
87 33
94 15
95 147
96 124
97 70
98 37
99 122
100 111
109 43
110 54
112 142
113 384
114 132
123 0
125 12
127 83
128 16
141 55
155 183
169 21
170 305
171 109

$$$$

     RDKit          2D

  9  8  0  0  0  0  0  0  0  0999 V2000
    1.9486    3.3750    0.0000 C   0  0  0  0  0  0  0  0  0  0  0  0
   -5.8457    3.3750    0.0000 C   0  0  0  0  0  0  0  0  0  0  0  0
   -4.5466    5.6250    0.0000 C   0  0  0  0  0  0  0  0  0  0  0  0
    0.6495    4.1250    0.0000 C   0  0  0  0  0  0  0  0  0  0  0  0
   -3.2476    3.3750    0.0000 C   0  0  0  0  0  0  0  0  0  0  0  0
   -1.9486    4.1250    0.0000 C   0  0  0  0  0  0  0  0  0  0  0  0
   -4.5466    4.1250    0.0000 C   0  0  0  0  0  0  0  0  0  0  0  0
   -0.6495    3.3750    0.0000 C   0  0  0  0  0  0  0  0  0  0  0  0
   -0.6495    1.8750    0.0000 O   0  0  0  0  0  0  0  0  0  0  0  0
  4  1  1  0
  6  5  1  0
  7  2  1  0
  7  3  1  0
  7  5  1  0
  8  4  1  0
  8  6  1  0
  9  8  2  0
M  END
>  <NAME>  (3174) 
6-METHYL-3-HEPTANONE

>  <SYNONYMS>  (3174) 


>  <SPECTRUM TYPE>  (3174) 
MS1

>  <INSTRUMENT TYPE>  (3174) 
EI-B

>  <INSTRUMENT>  (3174) 
HITACHI M-80B

>  <ION MODE>  (3174) 
P

>  <INCHIKEY>  (3174) 
CCCIYAQYQZQDIZ-UHFFFAOYSA-N

>  <FORMULA>  (3174) 
C8H16O

>  <EXACT MASS>  (3174) 
128.120115132

>  <MW>  (3174) 
128

>  <ID>  (3174) 
JP007045

>  <CONTRIBUTOR>  (3174) 
University of Tokyo Team, {Faculty of Engineering, University of Tokyo

>  <COMMENT>  (3174) 
SMILES=CCC(=O)CCC(C)C
InChI=InChI=1S/C8H16O/c1-4-8(9)6-5-7(2)3/h7H,4-6H2,1-3H3
computed SMILES=O=C(CC)CCC(C)C
computed spectral entropy=2.5214687680984778
accession=JP007045
date=2016.01.19 (Created 2008.10.21, modified 2011.05.06)
author=SODA AROMATIC CO., LTD.
license=CC BY-NC-SA
exact mass=128.12012
ionization energy=70 eV
ion type=[M]+*
computed normalized entropy=0.7650465938125609
SPLASH=splash10-05bf-9000000000-1c93e80f0d0966d81013
submitter=submitter = University of Tokyo Team (Faculty of Engineering, University of Tokyo)
MoNA Rating=3.75

>  <NUM PEAKS>  (3174) 
27

>  <MASS SPECTRAL PEAKS>  (3174) 
15 2.42
26 2.8
27 38.97
28 3.17
29 71.27
30 1.29
39 16.14
41 29.83
42 5
43 85.15
44 2.36
51 1.12
53 2.91
54 1.06
55 9.97
56 4.55
57 99.99
58 2.15
71 20.01
72 52.42
73 5.87
81 28.25
82 1.54
85 3.08
99 16.19
100 1.05
128 7.61

>  <PREDICTED SPECTRUM>  (3174) 
14 31
15 94
16 3
18 27
26 104
27 415
28 221
29 590
30 157
31 102
32 12
37 16
38 47
39 311
40 109
41 557
42 164
43 549
44 224
45 51
50 20
51 38
52 20
53 169
54 55
55 256
56 224
57 999
58 355
59 67
63 11
65 3
67 71
69 110
70 128
71 488
72 404
73 112
81 18
85 96
86 16
99 257
100 80
128 230
129 54

$$$$

     RDKit          2D

 11 10  0  0  0  0  0  0  0  0999 V2000
   -8.4437    5.6250    0.0000 C   0  0  0  0  0  0  0  0  0  0  0  0
    3.2476    4.8750    0.0000 C   0  0  0  0  0  0  0  0  0  0  0  0
   -7.1447    4.8750    0.0000 C   0  0  0  0  0  0  0  0  0  0  0  0
    1.9486    5.6250    0.0000 C   0  0  0  0  0  0  0  0  0  0  0  0
   -5.8457    5.6250    0.0000 C   0  0  0  0  0  0  0  0  0  0  0  0
   -4.5466    4.8750    0.0000 C   0  0  0  0  0  0  0  0  0  0  0  0
   -3.2476    5.6250    0.0000 C   0  0  0  0  0  0  0  0  0  0  0  0
   -1.9486    4.8750    0.0000 C   0  0  0  0  0  0  0  0  0  0  0  0
   -0.6495    5.6250    0.0000 C   0  0  0  0  0  0  0  0  0  0  0  0
    0.6495    4.8750    0.0000 C   0  0  0  0  0  0  0  0  0  0  0  0
    0.6495    3.3750    0.0000 O   0  0  0  0  0  0  0  0  0  0  0  0
  3  1  1  0
  4  2  1  0
  5  3  1  0
  6  5  1  0
  7  6  1  0
  8  7  1  0
  9  8  1  0
 10  4  1  0
 10  9  1  0
 11 10  2  0
M  END
>  <NAME>  (3175) 
3-DECANONE

>  <SYNONYMS>  (3175) 


>  <SPECTRUM TYPE>  (3175) 
MS1

>  <INSTRUMENT TYPE>  (3175) 
EI-B

>  <INSTRUMENT>  (3175) 
HITACHI M-80B

>  <ION MODE>  (3175) 
P

>  <INCHIKEY>  (3175) 
XJLDYKIEURAVBW-UHFFFAOYSA-N

>  <FORMULA>  (3175) 
C10H20O

>  <EXACT MASS>  (3175) 
156.15141526

>  <MW>  (3175) 
156

>  <ID>  (3175) 
JP007044

>  <CONTRIBUTOR>  (3175) 
University of Tokyo Team, {Faculty of Engineering, University of Tokyo

>  <COMMENT>  (3175) 
SMILES=CCCCCCCC(=O)CC
InChI=InChI=1S/C10H20O/c1-3-5-6-7-8-9-10(11)4-2/h3-9H2,1-2H3
computed SMILES=O=C(CC)CCCCCCC
accession=JP007044
date=2016.01.19 (Created 2008.10.21, modified 2011.05.06)
author=SODA AROMATIC CO., LTD.
license=CC BY-NC-SA
exact mass=156.15142
ionization energy=70 eV
ion type=[M]+*
computed spectral entropy=2.40615759367985
computed normalized entropy=0.7475148855045913
SPLASH=splash10-0adl-9000000000-b30cfbbcc6f4484764aa
submitter=submitter = University of Tokyo Team (Faculty of Engineering, University of Tokyo)
MoNA Rating=3.75

>  <NUM PEAKS>  (3175) 
25

>  <MASS SPECTRAL PEAKS>  (3175) 
26 1.2
27 20.56
29 51
39 9.32
41 27.74
42 7.03
43 31.47
44 1.03
53 1.96
55 10.48
56 2.68
57 99.99
58 3.93
67 2.04
69 1.02
71 1.47
72 60.61
73 10.99
82 1.15
83 1.02
85 10.23
109 2.33
127 22.08
128 1.71
156 2.18

>  <PREDICTED SPECTRUM>  (3175) 
15 40
18 0
26 51
27 288
28 102
29 432
30 113
31 45
38 9
39 225
40 69
41 536
42 245
43 639
44 138
45 66
51 11
52 6
53 164
54 109
55 348
56 176
57 999
58 440
59 118
65 18
66 5
67 150
68 101
69 134
70 68
71 382
72 574
73 139
81 138
82 76
83 31
84 24
85 280
86 213
87 63
91 20
95 138
96 1
97 5
99 196
100 26
109 124
113 24
127 353
128 141
129 9
138 20
156 160
157 34

$$$$

     RDKit          2D

 11 10  0  0  0  0  0  0  0  0999 V2000
    2.9228    5.4375    0.0000 C   0  0  0  0  0  0  0  0  0  0  0  0
   -8.7685    6.1875    0.0000 C   0  0  0  0  0  0  0  0  0  0  0  0
    1.6238    6.1875    0.0000 C   0  0  0  0  0  0  0  0  0  0  0  0
    0.3248    5.4375    0.0000 C   0  0  0  0  0  0  0  0  0  0  0  0
   -0.9743    6.1875    0.0000 C   0  0  0  0  0  0  0  0  0  0  0  0
   -2.2733    5.4375    0.0000 C   0  0  0  0  0  0  0  0  0  0  0  0
   -3.5724    6.1875    0.0000 C   0  0  0  0  0  0  0  0  0  0  0  0
   -4.8714    5.4375    0.0000 C   0  0  0  0  0  0  0  0  0  0  0  0
   -6.1704    6.1875    0.0000 C   0  0  0  0  0  0  0  0  0  0  0  0
   -7.4695    5.4375    0.0000 C   0  0  0  0  0  0  0  0  0  0  0  0
   -7.4695    3.9375    0.0000 O   0  0  0  0  0  0  0  0  0  0  0  0
  3  1  1  0
  4  3  1  0
  5  4  1  0
  6  5  1  0
  7  6  1  0
  8  7  1  0
  9  8  1  0
 10  2  1  0
 10  9  1  0
 11 10  2  0
M  END
>  <NAME>  (3176) 
2-DECANONE

>  <SYNONYMS>  (3176) 


>  <SPECTRUM TYPE>  (3176) 
MS1

>  <INSTRUMENT TYPE>  (3176) 
EI-B

>  <INSTRUMENT>  (3176) 
HITACHI M-80B

>  <ION MODE>  (3176) 
P

>  <INCHIKEY>  (3176) 
ZAJNGDIORYACQU-UHFFFAOYSA-N

>  <FORMULA>  (3176) 
C10H20O

>  <EXACT MASS>  (3176) 
156.15141526

>  <MW>  (3176) 
156

>  <ID>  (3176) 
JP007043

>  <CONTRIBUTOR>  (3176) 
University of Tokyo Team, {Faculty of Engineering, University of Tokyo

>  <COMMENT>  (3176) 
SMILES=CCCCCCCCC(C)=O
InChI=InChI=1S/C10H20O/c1-3-4-5-6-7-8-9-10(2)11/h3-9H2,1-2H3
computed SMILES=O=C(C)CCCCCCCC
accession=JP007043
date=2016.01.19 (Created 2008.10.21, modified 2011.05.06)
author=SODA AROMATIC CO., LTD.
license=CC BY-NC-SA
exact mass=156.15142
ionization energy=70 eV
ion type=[M]+*
computed spectral entropy=2.357783587265143
computed normalized entropy=0.7075746941898153
SPLASH=splash10-0a4l-9000000000-19def653e5bb9fe84806
submitter=submitter = University of Tokyo Team (Faculty of Engineering, University of Tokyo)
MoNA Rating=3.75

>  <NUM PEAKS>  (3176) 
28

>  <MASS SPECTRAL PEAKS>  (3176) 
15 2.76
27 11.45
29 13.54
39 8.14
41 22.52
42 5.58
43 90.35
44 1.82
53 1.53
54 1.27
55 8.76
56 4.28
57 14.11
58 99.99
59 24.34
67 1.28
69 2.01
70 1.73
71 26.84
72 1.44
81 1.24
82 1.1
85 3.4
96 2.77
98 3.75
113 1.42
141 1.36
156 3.98

>  <PREDICTED SPECTRUM>  (3176) 
14 8
15 48
18 2
26 23
27 204
28 68
29 204
30 7
32 13
39 178
40 46
41 459
42 229
43 999
44 171
45 77
51 5
53 109
54 146
55 328
56 240
57 374
58 768
59 385
61 7
65 8
66 38
67 145
68 125
69 155
70 61
71 320
72 260
73 70
80 9
81 154
82 104
83 94
84 48
85 176
86 236
95 87
96 124
98 160
99 417
100 147
113 122
114 34
127 59
141 171
156 304
157 100

$$$$

     RDKit          2D

 10  9  0  0  0  0  0  0  0  0999 V2000
    2.2733    2.8125    0.0000 C   0  0  0  0  0  0  0  0  0  0  0  0
    0.9743    5.0625    0.0000 C   0  0  0  0  0  0  0  0  0  0  0  0
   -5.5209    2.8125    0.0000 C   0  0  0  0  0  0  0  0  0  0  0  0
   -4.2219    5.0625    0.0000 C   0  0  0  0  0  0  0  0  0  0  0  0
   -0.3248    2.8125    0.0000 C   0  0  0  0  0  0  0  0  0  0  0  0
   -2.9228    2.8125    0.0000 C   0  0  0  0  0  0  0  0  0  0  0  0
    0.9743    3.5625    0.0000 C   0  0  0  0  0  0  0  0  0  0  0  0
   -4.2219    3.5625    0.0000 C   0  0  0  0  0  0  0  0  0  0  0  0
   -1.6238    3.5625    0.0000 C   0  0  0  0  0  0  0  0  0  0  0  0
   -1.6238    5.0625    0.0000 O   0  0  0  0  0  0  0  0  0  0  0  0
  7  1  1  0
  7  2  1  0
  7  5  1  0
  8  3  1  0
  8  4  1  0
  8  6  1  0
  9  5  1  0
  9  6  1  0
 10  9  2  0
M  END
>  <NAME>  (3177) 
2,6-DIMETHYL-4-HEPTANONE

>  <SYNONYMS>  (3177) 


>  <SPECTRUM TYPE>  (3177) 
MS1

>  <INSTRUMENT TYPE>  (3177) 
EI-B

>  <INSTRUMENT>  (3177) 
HITACHI M-80B

>  <ION MODE>  (3177) 
P

>  <INCHIKEY>  (3177) 
PTTPXKJBFFKCEK-UHFFFAOYSA-N

>  <FORMULA>  (3177) 
C9H18O

>  <EXACT MASS>  (3177) 
142.135765196

>  <MW>  (3177) 
142

>  <ID>  (3177) 
JP007042

>  <CONTRIBUTOR>  (3177) 
University of Tokyo Team, {Faculty of Engineering, University of Tokyo

>  <COMMENT>  (3177) 
SMILES=CC(C)CC(=O)CC(C)C
InChI=InChI=1S/C9H18O/c1-7(2)5-9(10)6-8(3)4/h7-8H,5-6H2,1-4H3
computed SMILES=O=C(CC(C)C)CC(C)C
accession=JP007042
date=2016.01.19 (Created 2008.10.21, modified 2011.05.06)
author=SODA AROMATIC CO., LTD.
license=CC BY-NC-SA
exact mass=142.13577
ionization energy=70 eV
ion type=[M]+*
computed spectral entropy=2.2271605853737615
computed normalized entropy=0.7315303568723727
SPLASH=splash10-0a4r-9000000000-1969d8f7cb8d04d73fe5
submitter=submitter = University of Tokyo Team (Faculty of Engineering, University of Tokyo)
MoNA Rating=3.75

>  <NUM PEAKS>  (3177) 
21

>  <MASS SPECTRAL PEAKS>  (3177) 
15 1.61
27 15.24
29 21.52
39 15.2
40 1.74
41 40.57
42 8.01
43 17.83
53 1.24
55 2.12
56 1.94
57 99.99
58 24.63
59 1.22
67 1.01
69 2.24
85 73
86 3.94
100 1.72
127 3.54
142 8.29

>  <PREDICTED SPECTRUM>  (3177) 
15 157
26 69
27 292
28 149
29 391
30 131
31 110
38 46
39 336
40 138
41 625
42 253
43 478
44 125
45 4
51 84
52 27
53 172
54 131
55 245
56 286
57 888
58 434
59 192
60 67
65 80
66 12
67 177
68 24
69 179
70 142
71 83
72 59
77 44
79 7
81 72
82 110
83 227
84 99
85 999
86 257
87 89
96 39
99 77
100 143
101 66
113 31
125 63
127 195
128 31
142 194
143 53

$$$$

     RDKit          2D

 10  9  0  0  0  0  0  0  0  0999 V2000
    2.5981    4.5000    0.0000 C   0  0  0  0  0  0  0  0  0  0  0  0
   -7.7942    4.5000    0.0000 C   0  0  0  0  0  0  0  0  0  0  0  0
    1.2990    5.2500    0.0000 C   0  0  0  0  0  0  0  0  0  0  0  0
   -6.4952    5.2500    0.0000 C   0  0  0  0  0  0  0  0  0  0  0  0
    0.0000    4.5000    0.0000 C   0  0  0  0  0  0  0  0  0  0  0  0
   -5.1962    4.5000    0.0000 C   0  0  0  0  0  0  0  0  0  0  0  0
   -1.2990    5.2500    0.0000 C   0  0  0  0  0  0  0  0  0  0  0  0
   -3.8971    5.2500    0.0000 C   0  0  0  0  0  0  0  0  0  0  0  0
   -2.5981    4.5000    0.0000 C   0  0  0  0  0  0  0  0  0  0  0  0
   -2.5981    3.0000    0.0000 O   0  0  0  0  0  0  0  0  0  0  0  0
  3  1  1  0
  4  2  1  0
  5  3  1  0
  6  4  1  0
  7  5  1  0
  8  6  1  0
  9  7  1  0
  9  8  1  0
 10  9  2  0
M  END
>  <NAME>  (3178) 
5-NONANONE

>  <SYNONYMS>  (3178) 


>  <SPECTRUM TYPE>  (3178) 
MS1

>  <INSTRUMENT TYPE>  (3178) 
EI-B

>  <INSTRUMENT>  (3178) 
HITACHI M-80B

>  <ION MODE>  (3178) 
P

>  <INCHIKEY>  (3178) 
WSGCRAOTEDLMFQ-UHFFFAOYSA-N

>  <FORMULA>  (3178) 
C9H18O

>  <EXACT MASS>  (3178) 
142.135765196

>  <MW>  (3178) 
142

>  <ID>  (3178) 
JP007041

>  <CONTRIBUTOR>  (3178) 
University of Tokyo Team, {Faculty of Engineering, University of Tokyo

>  <COMMENT>  (3178) 
SMILES=CCCCC(=O)CCCC
InChI=InChI=1S/C9H18O/c1-3-5-7-9(10)8-6-4-2/h3-8H2,1-2H3
computed SMILES=O=C(CCCC)CCCC
accession=JP007041
date=2016.01.19 (Created 2008.10.21, modified 2011.05.06)
author=SODA AROMATIC CO., LTD.
license=CC BY-NC-SA
exact mass=142.13577
ionization energy=70 eV
ion type=[M]+*
computed spectral entropy=2.393981452954438
computed normalized entropy=0.7437321547041852
SPLASH=splash10-0a6r-9000000000-7c37e6cffccad22e7dd5
submitter=submitter = University of Tokyo Team (Faculty of Engineering, University of Tokyo)
MoNA Rating=3.75

>  <NUM PEAKS>  (3178) 
25

>  <MASS SPECTRAL PEAKS>  (3178) 
15 1.61
26 1.98
27 28.99
28 7.53
29 56.2
30 1.15
39 15.05
40 1.03
41 48.71
42 7.08
43 8.04
53 2.36
55 7.9
56 2.35
57 99.99
58 67.13
59 4.29
71 5.57
72 1.67
85 65.82
86 2.71
100 5.59
113 2.38
142 6.26
143 1.12

>  <PREDICTED SPECTRUM>  (3178) 
14 20
15 89
25 0
26 91
27 346
28 246
29 469
30 138
31 68
38 34
39 291
40 130
41 584
42 300
43 427
44 175
45 68
47 44
49 17
51 101
53 151
54 109
55 383
56 274
57 784
58 468
59 175
60 68
65 31
66 24
67 124
68 49
69 82
70 92
71 216
72 192
73 9
81 62
82 39
83 151
84 20
85 999
86 238
87 51
99 25
100 311
101 90
113 322
114 118
115 11
127 71
141 3
142 187
143 51

$$$$

     RDKit          2D

 10  9  0  0  0  0  0  0  0  0999 V2000
    2.5981    4.5000    0.0000 C   0  0  0  0  0  0  0  0  0  0  0  0
   -7.7942    4.5000    0.0000 C   0  0  0  0  0  0  0  0  0  0  0  0
    1.2990    5.2500    0.0000 C   0  0  0  0  0  0  0  0  0  0  0  0
   -6.4952    5.2500    0.0000 C   0  0  0  0  0  0  0  0  0  0  0  0
    0.0000    4.5000    0.0000 C   0  0  0  0  0  0  0  0  0  0  0  0
   -1.2990    5.2500    0.0000 C   0  0  0  0  0  0  0  0  0  0  0  0
   -2.5981    4.5000    0.0000 C   0  0  0  0  0  0  0  0  0  0  0  0
   -3.8971    5.2500    0.0000 C   0  0  0  0  0  0  0  0  0  0  0  0
   -5.1962    4.5000    0.0000 C   0  0  0  0  0  0  0  0  0  0  0  0
   -5.1962    3.0000    0.0000 O   0  0  0  0  0  0  0  0  0  0  0  0
  3  1  1  0
  4  2  1  0
  5  3  1  0
  6  5  1  0
  7  6  1  0
  8  7  1  0
  9  4  1  0
  9  8  1  0
 10  9  2  0
M  END
>  <NAME>  (3179) 
3-NONANONE

>  <SYNONYMS>  (3179) 


>  <SPECTRUM TYPE>  (3179) 
MS1

>  <INSTRUMENT TYPE>  (3179) 
EI-B

>  <INSTRUMENT>  (3179) 
HITACHI M-80B

>  <ION MODE>  (3179) 
P

>  <INCHIKEY>  (3179) 
IYTXKIXETAELAV-UHFFFAOYSA-N

>  <FORMULA>  (3179) 
C9H18O

>  <EXACT MASS>  (3179) 
142.135765196

>  <MW>  (3179) 
142

>  <ID>  (3179) 
JP007040

>  <CONTRIBUTOR>  (3179) 
University of Tokyo Team, {Faculty of Engineering, University of Tokyo

>  <COMMENT>  (3179) 
SMILES=CCCCCCC(=O)CC
InChI=InChI=1S/C9H18O/c1-3-5-6-7-8-9(10)4-2/h3-8H2,1-2H3
computed SMILES=O=C(CC)CCCCCC
accession=JP007040
date=2016.01.19 (Created 2008.10.21, modified 2011.05.06)
author=SODA AROMATIC CO., LTD.
license=CC BY-NC-SA
exact mass=142.13577
ionization energy=70 eV
ion type=[M]+*
computed spectral entropy=2.4877332320187557
computed normalized entropy=0.7387925972719624
SPLASH=splash10-054o-9000000000-576b2a3e3912b972f8c1
submitter=submitter = University of Tokyo Team (Faculty of Engineering, University of Tokyo)
MoNA Rating=3.75

>  <NUM PEAKS>  (3179) 
29

>  <MASS SPECTRAL PEAKS>  (3179) 
15 1.13
26 1.88
27 31.86
28 3.25
29 62.78
30 1.23
39 13.35
40 1.04
41 30.38
42 6.58
43 99.99
44 2.81
53 2.36
55 10.24
56 3.41
57 82.36
58 2.39
68 1.09
69 1.83
71 1.34
72 64.76
73 9.57
85 24.97
86 1.78
95 2.26
99 1.42
113 35.57
114 2.22
142 2.4

>  <PREDICTED SPECTRUM>  (3179) 
14 8
15 83
18 2
25 2
26 78
27 331
28 126
29 475
30 63
31 62
32 1
38 33
39 283
40 90
41 540
42 289
43 647
44 153
45 9
50 13
51 33
52 23
53 183
54 112
55 303
56 144
57 999
58 399
59 120
65 1
67 130
68 98
69 86
70 94
71 491
72 582
73 151
74 27
77 21
81 112
82 18
83 53
85 276
86 204
95 165
99 62
113 383
114 141
115 7
124 55
142 152
143 25

$$$$

     RDKit          2D

 10  9  0  0  0  0  0  0  0  0999 V2000
    2.5981    4.5000    0.0000 C   0  0  0  0  0  0  0  0  0  0  0  0
   -7.7942    4.5000    0.0000 C   0  0  0  0  0  0  0  0  0  0  0  0
    1.2990    5.2500    0.0000 C   0  0  0  0  0  0  0  0  0  0  0  0
    0.0000    4.5000    0.0000 C   0  0  0  0  0  0  0  0  0  0  0  0
   -1.2990    5.2500    0.0000 C   0  0  0  0  0  0  0  0  0  0  0  0
   -2.5981    4.5000    0.0000 C   0  0  0  0  0  0  0  0  0  0  0  0
   -3.8971    5.2500    0.0000 C   0  0  0  0  0  0  0  0  0  0  0  0
   -5.1962    4.5000    0.0000 C   0  0  0  0  0  0  0  0  0  0  0  0
   -6.4952    5.2500    0.0000 C   0  0  0  0  0  0  0  0  0  0  0  0
   -6.4952    6.7500    0.0000 O   0  0  0  0  0  0  0  0  0  0  0  0
  3  1  1  0
  4  3  1  0
  5  4  1  0
  6  5  1  0
  7  6  1  0
  8  7  1  0
  9  2  1  0
  9  8  1  0
 10  9  2  0
M  END
>  <NAME>  (3180) 
2-NONANONE

>  <SYNONYMS>  (3180) 


>  <SPECTRUM TYPE>  (3180) 
MS1

>  <INSTRUMENT TYPE>  (3180) 
EI-B

>  <INSTRUMENT>  (3180) 
HITACHI M-80B

>  <ION MODE>  (3180) 
P

>  <INCHIKEY>  (3180) 
VKCYHJWLYTUGCC-UHFFFAOYSA-N

>  <FORMULA>  (3180) 
C9H18O

>  <EXACT MASS>  (3180) 
142.135765196

>  <MW>  (3180) 
142

>  <ID>  (3180) 
JP007039

>  <CONTRIBUTOR>  (3180) 
University of Tokyo Team, {Faculty of Engineering, University of Tokyo

>  <COMMENT>  (3180) 
SMILES=CCCCCCCC(C)=O
InChI=InChI=1S/C9H18O/c1-3-4-5-6-7-8-9(2)10/h3-8H2,1-2H3
computed SMILES=O=C(C)CCCCCCC
accession=JP007039
date=2016.01.19 (Created 2008.10.21, modified 2011.05.06)
author=SODA AROMATIC CO., LTD.
license=CC BY-NC-SA
exact mass=142.13577
ionization energy=70 eV
ion type=[M]+*
computed spectral entropy=2.272946703047122
computed normalized entropy=0.7152008192379393
SPLASH=splash10-0a4l-9000000000-d4d90ed2a739f3ba43a2
submitter=submitter = University of Tokyo Team (Faculty of Engineering, University of Tokyo)
MoNA Rating=3.75

>  <NUM PEAKS>  (3180) 
24

>  <MASS SPECTRAL PEAKS>  (3180) 
15 3.86
27 13.83
29 14.35
39 9.45
41 22.57
42 5.87
43 98.6
44 2.07
53 1.56
55 7.73
56 2.17
57 21.21
58 99.99
59 21.94
67 1.28
69 1.26
71 21.42
72 1.26
82 2.12
84 2.93
85 3.46
99 1.24
127 1.61
142 4.84

>  <PREDICTED SPECTRUM>  (3180) 
14 16
15 87
18 6
26 19
27 191
28 52
29 177
32 16
39 181
40 50
41 414
42 233
43 999
44 102
45 12
51 16
53 107
54 120
55 265
56 208
57 347
58 732
59 339
66 22
67 121
68 97
69 162
70 47
71 271
72 338
73 24
81 59
82 97
83 1
84 197
85 506
86 213
95 32
96 35
97 0
99 169
100 55
113 107
127 141
142 300
143 90

$$$$

     RDKit          2D

  9  8  0  0  0  0  0  0  0  0999 V2000
    1.9486    3.3750    0.0000 C   0  0  0  0  0  0  0  0  0  0  0  0
   -5.8457    3.3750    0.0000 C   0  0  0  0  0  0  0  0  0  0  0  0
   -0.6495    1.8750    0.0000 C   0  0  0  0  0  0  0  0  0  0  0  0
    0.6495    4.1250    0.0000 C   0  0  0  0  0  0  0  0  0  0  0  0
   -4.5466    4.1250    0.0000 C   0  0  0  0  0  0  0  0  0  0  0  0
   -1.9486    4.1250    0.0000 C   0  0  0  0  0  0  0  0  0  0  0  0
   -0.6495    3.3750    0.0000 C   0  0  0  0  0  0  0  0  0  0  0  0
   -3.2476    3.3750    0.0000 C   0  0  0  0  0  0  0  0  0  0  0  0
   -3.2476    1.8750    0.0000 O   0  0  0  0  0  0  0  0  0  0  0  0
  4  1  1  0
  5  2  1  0
  7  3  1  0
  7  4  1  0
  7  6  1  0
  8  5  1  0
  8  6  1  0
  9  8  2  0
M  END
>  <NAME>  (3181) 
5-METHYL-3-HEPTANONE

>  <SYNONYMS>  (3181) 


>  <SPECTRUM TYPE>  (3181) 
MS1

>  <INSTRUMENT TYPE>  (3181) 
EI-B

>  <INSTRUMENT>  (3181) 
HITACHI M-80B

>  <ION MODE>  (3181) 
P

>  <INCHIKEY>  (3181) 
PSBKJPTZCVYXSD-UHFFFAOYSA-N

>  <FORMULA>  (3181) 
C8H16O

>  <EXACT MASS>  (3181) 
128.120115132

>  <MW>  (3181) 
128

>  <ID>  (3181) 
JP007038

>  <CONTRIBUTOR>  (3181) 
University of Tokyo Team, {Faculty of Engineering, University of Tokyo

>  <COMMENT>  (3181) 
SMILES=CCC(C)CC(=O)CC
InChI=InChI=1S/C8H16O/c1-4-7(3)6-8(9)5-2/h7H,4-6H2,1-3H3
computed SMILES=O=C(CC)CC(C)CC
accession=JP007038
date=2016.01.19 (Created 2008.10.21, modified 2011.05.06)
author=SODA AROMATIC CO., LTD.
license=CC BY-NC-SA
exact mass=128.12012
ionization energy=70 eV
ion type=[M]+*
computed spectral entropy=2.5510951008325615
computed normalized entropy=0.7740356105444481
SPLASH=splash10-05i3-9000000000-dc6ec3b7c79e063d449c
submitter=submitter = University of Tokyo Team (Faculty of Engineering, University of Tokyo)
MoNA Rating=3.75

>  <NUM PEAKS>  (3181) 
27

>  <MASS SPECTRAL PEAKS>  (3181) 
15 1.77
26 2.79
27 40.38
28 3.88
29 83.71
30 1.64
39 19.87
40 1.26
41 35.8
42 12.25
43 90.71
44 2.62
51 1.22
53 3.08
54 1.19
55 11.29
56 4.88
57 99.99
58 2.9
69 1.97
71 72.64
72 59.88
73 15.75
99 46.99
100 2.59
128 13.55
129 1.29

>  <PREDICTED SPECTRUM>  (3181) 
14 14
15 39
25 3
26 60
27 315
28 150
29 484
30 27
31 10
38 27
39 291
40 80
41 528
42 157
43 463
44 232
45 66
50 69
51 116
52 54
53 168
54 72
55 382
56 261
57 999
58 205
59 51
63 73
65 28
69 57
70 61
71 386
72 284
73 118
81 61
85 48
99 702
100 158
110 23
113 60
128 249
129 80

$$$$

     RDKit          2D

  9  8  0  0  0  0  0  0  0  0999 V2000
   -6.4952    4.5000    0.0000 C   0  0  0  0  0  0  0  0  0  0  0  0
    2.5981    3.7500    0.0000 C   0  0  0  0  0  0  0  0  0  0  0  0
   -5.1962    3.7500    0.0000 C   0  0  0  0  0  0  0  0  0  0  0  0
    1.2990    4.5000    0.0000 C   0  0  0  0  0  0  0  0  0  0  0  0
   -3.8971    4.5000    0.0000 C   0  0  0  0  0  0  0  0  0  0  0  0
   -2.5981    3.7500    0.0000 C   0  0  0  0  0  0  0  0  0  0  0  0
   -1.2990    4.5000    0.0000 C   0  0  0  0  0  0  0  0  0  0  0  0
    0.0000    3.7500    0.0000 C   0  0  0  0  0  0  0  0  0  0  0  0
   -0.0000    2.2500    0.0000 O   0  0  0  0  0  0  0  0  0  0  0  0
  3  1  1  0
  4  2  1  0
  5  3  1  0
  6  5  1  0
  7  6  1  0
  8  4  1  0
  8  7  1  0
  9  8  2  0
M  END
>  <NAME>  (3182) 
3-OCTANONE

>  <SYNONYMS>  (3182) 


>  <SPECTRUM TYPE>  (3182) 
MS1

>  <INSTRUMENT TYPE>  (3182) 
EI-B

>  <INSTRUMENT>  (3182) 
HITACHI M-80B

>  <ION MODE>  (3182) 
P

>  <INCHIKEY>  (3182) 
RHLVCLIPMVJYKS-UHFFFAOYSA-N

>  <FORMULA>  (3182) 
C8H16O

>  <EXACT MASS>  (3182) 
128.120115132

>  <MW>  (3182) 
128

>  <ID>  (3182) 
JP007037

>  <CONTRIBUTOR>  (3182) 
University of Tokyo Team, {Faculty of Engineering, University of Tokyo

>  <COMMENT>  (3182) 
SMILES=CCCCCC(=O)CC
InChI=InChI=1S/C8H16O/c1-3-5-6-7-8(9)4-2/h3-7H2,1-2H3
computed SMILES=O=C(CC)CCCCC
accession=JP007037
date=2016.01.19 (Created 2008.10.21, modified 2011.05.06)
author=SODA AROMATIC CO., LTD.
license=CC BY-NC-SA
exact mass=128.12012
ionization energy=70 eV
ion type=[M]+*
computed spectral entropy=2.5167065630227246
computed normalized entropy=0.7724468976450356
SPLASH=splash10-05bf-9000000000-c5ad6888f5d8235bbcbd
submitter=submitter = University of Tokyo Team (Faculty of Engineering, University of Tokyo)
MoNA Rating=3.75

>  <NUM PEAKS>  (3182) 
26

>  <MASS SPECTRAL PEAKS>  (3182) 
15 1.57
26 2.91
27 38.42
28 3.12
29 75.01
30 1.38
39 15
40 1.26
41 26.06
42 11.8
43 99.99
44 2.9
53 2.4
54 1.05
55 11.74
56 2.9
57 91.65
58 2.54
71 43.56
72 55.55
73 7
85 8.15
86 2.03
99 41.48
100 2.49
128 8.03

>  <PREDICTED SPECTRUM>  (3182) 
14 14
15 33
26 85
27 334
28 121
29 430
30 102
31 13
37 12
38 60
39 322
40 116
41 596
42 267
43 806
44 211
45 9
50 43
51 50
52 49
53 228
54 161
55 302
56 239
57 999
58 392
59 59
63 22
65 15
67 144
68 105
69 164
70 102
71 766
72 681
73 179
81 69
82 50
85 98
86 151
99 656
100 179
110 36
128 187
129 24

$$$$

     RDKit          2D

  9  8  0  0  0  0  0  0  0  0999 V2000
   -7.4695    3.9375    0.0000 C   0  0  0  0  0  0  0  0  0  0  0  0
    1.6238    3.1875    0.0000 C   0  0  0  0  0  0  0  0  0  0  0  0
   -6.1704    3.1875    0.0000 C   0  0  0  0  0  0  0  0  0  0  0  0
   -4.8714    3.9375    0.0000 C   0  0  0  0  0  0  0  0  0  0  0  0
   -3.5724    3.1875    0.0000 C   0  0  0  0  0  0  0  0  0  0  0  0
   -2.2733    3.9375    0.0000 C   0  0  0  0  0  0  0  0  0  0  0  0
   -0.9743    3.1875    0.0000 C   0  0  0  0  0  0  0  0  0  0  0  0
    0.3248    3.9375    0.0000 C   0  0  0  0  0  0  0  0  0  0  0  0
    0.3248    5.4375    0.0000 O   0  0  0  0  0  0  0  0  0  0  0  0
  3  1  1  0
  4  3  1  0
  5  4  1  0
  6  5  1  0
  7  6  1  0
  8  2  1  0
  8  7  1  0
  9  8  2  0
M  END
>  <NAME>  (3183) 
2-OCTANONE

>  <SYNONYMS>  (3183) 


>  <SPECTRUM TYPE>  (3183) 
MS1

>  <INSTRUMENT TYPE>  (3183) 
EI-B

>  <INSTRUMENT>  (3183) 
HITACHI M-80B

>  <ION MODE>  (3183) 
P

>  <INCHIKEY>  (3183) 
ZPVFWPFBNIEHGJ-UHFFFAOYSA-N

>  <FORMULA>  (3183) 
C8H16O

>  <EXACT MASS>  (3183) 
128.120115132

>  <MW>  (3183) 
128

>  <ID>  (3183) 
JP007036

>  <CONTRIBUTOR>  (3183) 
University of Tokyo Team, {Faculty of Engineering, University of Tokyo

>  <COMMENT>  (3183) 
SMILES=CCCCCCC(C)=O
InChI=InChI=1S/C8H16O/c1-3-4-5-6-7-8(2)9/h3-7H2,1-2H3
computed SMILES=O=C(C)CCCCCC
accession=JP007036
date=2016.01.19 (Created 2008.10.21, modified 2011.05.06)
author=SODA AROMATIC CO., LTD.
license=CC BY-NC-SA
exact mass=128.12012
ionization energy=70 eV
ion type=[M]+*
computed spectral entropy=2.0893092799042043
computed normalized entropy=0.6974285714208865
SPLASH=splash10-052f-9000000000-e8eee7d65060bf23e4f7
submitter=submitter = University of Tokyo Team (Faculty of Engineering, University of Tokyo)
MoNA Rating=3.75

>  <NUM PEAKS>  (3183) 
20

>  <MASS SPECTRAL PEAKS>  (3183) 
15 3.96
27 12.37
29 10.23
39 9.11
41 17.14
42 4.57
43 99.99
44 2.02
53 1.23
55 4.45
57 3.78
58 78.85
59 14.74
68 1.16
70 1.53
71 15.29
72 1.09
85 4.7
113 2.01
128 5.09

>  <PREDICTED SPECTRUM>  (3183) 
14 20
15 75
26 23
27 171
28 69
29 136
32 5
38 6
39 160
40 46
41 349
42 207
43 999
44 217
45 88
53 69
54 105
55 211
56 202
57 288
58 651
59 161
67 58
68 100
69 100
70 180
71 573
72 222
81 16
82 28
83 40
85 207
86 128
99 128
100 34
110 21
113 114
128 254
129 58

$$$$

     RDKit          2D

  9  8  0  0  0  0  0  0  0  0999 V2000
    2.2733    2.8125    0.0000 C   0  0  0  0  0  0  0  0  0  0  0  0
    0.9743    5.0625    0.0000 C   0  0  0  0  0  0  0  0  0  0  0  0
   -5.5209    2.8125    0.0000 C   0  0  0  0  0  0  0  0  0  0  0  0
   -1.6238    3.5625    0.0000 C   0  0  0  0  0  0  0  0  0  0  0  0
   -0.3248    2.8125    0.0000 C   0  0  0  0  0  0  0  0  0  0  0  0
   -2.9228    2.8125    0.0000 C   0  0  0  0  0  0  0  0  0  0  0  0
    0.9743    3.5625    0.0000 C   0  0  0  0  0  0  0  0  0  0  0  0
   -4.2219    3.5625    0.0000 C   0  0  0  0  0  0  0  0  0  0  0  0
   -4.2219    5.0625    0.0000 O   0  0  0  0  0  0  0  0  0  0  0  0
  5  4  1  0
  6  4  1  0
  7  1  1  0
  7  2  1  0
  7  5  2  0
  8  3  1  0
  8  6  1  0
  9  8  2  0
M  END
>  <NAME>  (3184) 
6-METHYL-5-HEPTEN-2-ONE

>  <SYNONYMS>  (3184) 


>  <SPECTRUM TYPE>  (3184) 
MS1

>  <INSTRUMENT TYPE>  (3184) 
EI-B

>  <INSTRUMENT>  (3184) 
HITACHI M-80B

>  <ION MODE>  (3184) 
P

>  <INCHIKEY>  (3184) 
UHEPJGULSIKKTP-UHFFFAOYSA-N

>  <FORMULA>  (3184) 
C8H14O

>  <EXACT MASS>  (3184) 
126.104465068

>  <MW>  (3184) 
126

>  <ID>  (3184) 
JP007035

>  <CONTRIBUTOR>  (3184) 
University of Tokyo Team, {Faculty of Engineering, University of Tokyo

>  <COMMENT>  (3184) 
SMILES=CC(C)=CCCC(C)=O
InChI=InChI=1S/C8H14O/c1-7(2)5-4-6-8(3)9/h5H,4,6H2,1-3H3
computed SMILES=O=C(C)CCC=C(C)C
accession=JP007035
date=2016.01.19 (Created 2008.10.21, modified 2011.05.06)
author=SODA AROMATIC CO., LTD.
license=CC BY-NC-SA
exact mass=126.10447
ionization energy=70 eV
ion type=[M]+*
computed spectral entropy=2.8279500800854134
computed normalized entropy=0.7831665378442639
SPLASH=splash10-0006-9000000000-52448d8f5e75dfce2601
submitter=submitter = University of Tokyo Team (Faculty of Engineering, University of Tokyo)
MoNA Rating=3.75

>  <NUM PEAKS>  (3184) 
37

>  <MASS SPECTRAL PEAKS>  (3184) 
15 6.41
26 1.07
27 15.96
29 6.85
38 1.39
39 22.47
40 2.93
41 54.76
42 5.48
43 99.99
44 1.72
45 1.03
50 1.29
51 2.59
52 1.19
53 9.08
54 1.22
55 31.79
56 7.54
57 1.28
58 15.4
65 1.52
67 11.87
68 12.52
69 30.62
70 1.52
71 11.74
77 1.41
79 1.02
81 1.39
82 1.31
83 6.62
93 7.76
108 20.74
109 1.64
111 11.68
126 6.05

>  <PREDICTED SPECTRUM>  (3184) 
15 12
26 21
27 181
28 80
29 153
31 18
32 4
37 35
38 78
39 341
40 163
41 644
42 180
43 999
44 97
45 35
50 103
51 150
52 73
53 262
54 118
55 395
56 246
57 224
58 220
59 96
62 18
63 53
65 106
66 69
67 258
68 623
69 710
70 223
71 184
77 75
79 85
81 84
82 133
83 422
84 177
85 33
91 74
93 276
94 26
107 31
108 278
109 128
111 287
112 59
126 331
127 73

$$$$

     RDKit          2D

  8  7  0  0  0  0  0  0  0  0999 V2000
   -2.2733    0.5625    0.0000 C   0  0  0  0  0  0  0  0  0  0  0  0
    0.3248    0.5625    0.0000 C   0  0  0  0  0  0  0  0  0  0  0  0
    0.3248    5.0625    0.0000 C   0  0  0  0  0  0  0  0  0  0  0  0
    1.6238    2.8125    0.0000 C   0  0  0  0  0  0  0  0  0  0  0  0
   -0.9743    1.3125    0.0000 C   0  0  0  0  0  0  0  0  0  0  0  0
    0.3248    3.5625    0.0000 C   0  0  0  0  0  0  0  0  0  0  0  0
   -0.9743    2.8125    0.0000 C   0  0  0  0  0  0  0  0  0  0  0  0
   -2.2733    3.5625    0.0000 O   0  0  0  0  0  0  0  0  0  0  0  0
  5  1  1  0
  5  2  1  0
  6  3  1  0
  6  4  1  0
  7  5  1  0
  7  6  1  0
  8  7  2  0
M  END
>  <NAME>  (3185) 
2,4-DIMETHYL-3-PENTANONE

>  <SYNONYMS>  (3185) 


>  <SPECTRUM TYPE>  (3185) 
MS1

>  <INSTRUMENT TYPE>  (3185) 
EI-B

>  <INSTRUMENT>  (3185) 
HITACHI M-80B

>  <ION MODE>  (3185) 
P

>  <INCHIKEY>  (3185) 
HXVNBWAKAOHACI-UHFFFAOYSA-N

>  <FORMULA>  (3185) 
C7H14O

>  <EXACT MASS>  (3185) 
114.104465068

>  <MW>  (3185) 
114

>  <ID>  (3185) 
JP007034

>  <CONTRIBUTOR>  (3185) 
University of Tokyo Team, {Faculty of Engineering, University of Tokyo

>  <COMMENT>  (3185) 
SMILES=CC(C)C(=O)C(C)C
InChI=InChI=1S/C7H14O/c1-5(2)7(8)6(3)4/h5-6H,1-4H3
computed SMILES=O=C(C(C)C)C(C)C
accession=JP007034
date=2016.01.19 (Created 2008.10.21, modified 2011.05.06)
author=SODA AROMATIC CO., LTD.
license=CC BY-NC-SA
exact mass=114.10447
ionization energy=70 eV
ion type=[M]+*
computed spectral entropy=1.9485669563728207
computed normalized entropy=0.674157900640137
SPLASH=splash10-0006-9000000000-ae8109b01439d115af03
submitter=submitter = University of Tokyo Team (Faculty of Engineering, University of Tokyo)
MoNA Rating=3.75

>  <NUM PEAKS>  (3185) 
18

>  <MASS SPECTRAL PEAKS>  (3185) 
15 1.63
18 1.81
26 1.69
27 20.8
28 2.47
29 1.4
39 13.03
40 1.56
41 25.31
42 7.49
43 99.99
44 4.1
55 1.75
56 1
70 6.76
71 34.91
72 1.24
114 5.42

>  <PREDICTED SPECTRUM>  (3185) 
14 43
15 108
16 26
17 4
18 26
25 14
26 121
27 443
28 219
29 220
31 14
32 23
37 42
38 96
39 381
40 186
41 593
42 296
43 999
44 354
45 99
46 27
51 56
52 83
53 168
54 81
55 180
56 3
57 215
58 59
66 16
67 59
68 17
69 49
70 227
71 872
72 338
73 83
86 60
99 2
114 355
115 117

$$$$

     RDKit          2D

 11 12  0  0  0  0  0  0  0  0999 V2000
    1.3259   -2.1785    0.0000 C   0  0  0  0  0  0  0  0  0  0  0  0
    2.2869   -0.5080    0.0000 C   0  0  0  0  0  0  0  0  0  0  0  0
   -1.7800    0.7300    0.0000 C   0  0  0  0  0  0  0  0  0  0  0  0
   -1.7800   -0.7700    0.0000 C   0  0  0  0  0  0  0  0  0  0  0  0
   -0.4800   -0.0200    0.0000 C   0  0  0  0  0  0  0  0  0  0  0  0
   -0.4775    2.9800    0.0000 C   0  0  0  0  0  0  0  0  0  0  0  0
   -0.4800    1.4800    0.0000 C   0  0  0  0  0  0  0  0  0  0  0  0
   -0.4800   -1.5200    0.0000 C   0  0  0  0  0  0  0  0  0  0  0  0
    0.8100    0.7300    0.0000 C   0  0  0  0  0  0  0  0  0  0  0  0
    0.8100   -0.7700    0.0000 C   0  0  0  0  0  0  0  0  0  0  0  0
   -1.7753    3.7322    0.0000 O   0  0  0  0  0  0  0  0  0  0  0  0
  4  3  1  0
  7  3  2  0
  7  6  1  0
  8  4  1  0
  8  5  1  0
  9  5  1  0
  9  7  1  0
 10  1  1  0
 10  2  1  0
 10  8  1  0
 10  9  1  0
 11  6  1  0
M  END
>  <NAME>  (3186) 
MYRTENOL

>  <SYNONYMS>  (3186) 


>  <SPECTRUM TYPE>  (3186) 
MS1

>  <INSTRUMENT TYPE>  (3186) 
EI-B

>  <INSTRUMENT>  (3186) 
HITACHI M-80B

>  <ION MODE>  (3186) 
P

>  <INCHIKEY>  (3186) 
RXBQNMWIQKOSCS-UHFFFAOYSA-N

>  <FORMULA>  (3186) 
C10H16O

>  <EXACT MASS>  (3186) 
152.120115132

>  <MW>  (3186) 
152

>  <ID>  (3186) 
JP007033

>  <CONTRIBUTOR>  (3186) 
University of Tokyo Team, {Faculty of Engineering, University of Tokyo

>  <COMMENT>  (3186) 
SMILES=OCC(=C2)C(C1)C(C)(C)C(C2)1
InChI=InChI=1S/C10H16O/c1-10(2)8-4-3-7(6-11)9(10)5-8/h3,8-9,11H,4-6H2,1-2H3
computed SMILES=OCC1=CCC2CC1C2(C)C
accession=JP007033
date=2016.01.19 (Created 2008.10.21, modified 2011.05.06)
author=SODA AROMATIC CO., LTD.
license=CC BY-NC-SA
exact mass=152.12012
ionization energy=70 eV
ion type=[M]+*
computed spectral entropy=3.275346156612181
computed normalized entropy=0.8330344380869006
SPLASH=splash10-004l-9200000000-7a93d65b58c2e5897441
submitter=submitter = University of Tokyo Team (Faculty of Engineering, University of Tokyo)
MoNA Rating=3.75

>  <NUM PEAKS>  (3186) 
51

>  <MASS SPECTRAL PEAKS>  (3186) 
27 11.49
28 1.41
29 6.85
31 8.91
39 17.07
40 2.66
41 24.07
42 2.31
43 12.61
50 1.58
51 6.56
52 3.07
53 9.79
54 1.7
55 10.61
56 1.29
57 1.4
59 1.73
63 1.75
65 6.57
66 2.99
67 12.11
68 3.07
69 4.52
70 1.54
77 16.95
78 6.08
79 99.99
80 8.97
81 7.94
82 2.71
83 2.73
85 2.43
91 40.68
92 8.19
93 16.66
94 2.65
95 4.79
96 3.03
103 1.73
105 7.63
106 2.86
107 7.41
108 28.14
109 8.01
117 1.36
119 14.73
120 1.39
121 8.35
134 1.58
152 4.45

>  <PREDICTED SPECTRUM>  (3186) 
26 87
27 425
28 104
29 357
30 26
31 113
37 31
38 102
39 539
40 204
41 716
42 171
43 476
44 80
45 54
49 3
50 165
51 356
52 219
53 451
54 212
55 372
56 156
57 133
58 53
59 100
60 25
62 104
63 220
64 120
65 373
66 280
67 420
68 223
69 392
70 211
71 72
74 60
75 87
76 64
77 568
78 301
79 630
80 275
81 384
82 263
83 256
84 200
89 124
90 115
91 999
92 562
93 623
94 332
95 348
96 225
97 81
98 47
102 41
103 154
104 82
105 400
106 245
107 325
108 526
109 556
110 239
111 77
115 117
116 17
117 48
119 603
120 132
121 118
122 78
123 151
124 99
133 75
134 434
135 57
137 216
138 37
151 22
152 145
153 21

$$$$

     RDKit          2D

 11 11  0  0  0  0  0  0  0  0999 V2000
   -2.5989   -1.5002    0.0000 C   0  0  0  0  0  0  0  0  0  0  0  0
    3.3491    0.2013    0.0000 C   0  0  0  0  0  0  0  0  0  0  0  0
    3.8978    2.2504    0.0000 C   0  0  0  0  0  0  0  0  0  0  0  0
   -1.3000    0.7500    0.0000 C   0  0  0  0  0  0  0  0  0  0  0  0
   -0.0000   -1.5000    0.0000 C   0  0  0  0  0  0  0  0  0  0  0  0
    0.0000    1.5000    0.0000 C   0  0  0  0  0  0  0  0  0  0  0  0
    1.3000   -0.7500    0.0000 C   0  0  0  0  0  0  0  0  0  0  0  0
   -1.3000   -0.7500    0.0000 C   0  0  0  0  0  0  0  0  0  0  0  0
    1.3000    0.7500    0.0000 C   0  0  0  0  0  0  0  0  0  0  0  0
    2.5989    1.5002    0.0000 C   0  0  0  0  0  0  0  0  0  0  0  0
    1.8487    2.7991    0.0000 O   0  0  0  0  0  0  0  0  0  0  0  0
  6  4  2  0
  7  5  1  0
  8  1  1  0
  8  4  1  0
  8  5  2  0
  9  6  1  0
  9  7  2  0
 10  2  1  0
 10  3  1  0
 10  9  1  0
 11 10  1  0
M  END
>  <NAME>  (3187) 
P-CYMEN-8-OL

>  <SYNONYMS>  (3187) 


>  <SPECTRUM TYPE>  (3187) 
MS1

>  <INSTRUMENT TYPE>  (3187) 
EI-B

>  <INSTRUMENT>  (3187) 
HITACHI M-80B

>  <ION MODE>  (3187) 
P

>  <INCHIKEY>  (3187) 
XLPDVYGDNRIQFV-UHFFFAOYSA-N

>  <FORMULA>  (3187) 
C10H14O

>  <EXACT MASS>  (3187) 
150.104465068

>  <MW>  (3187) 
150

>  <ID>  (3187) 
JP007031

>  <CONTRIBUTOR>  (3187) 
University of Tokyo Team, {Faculty of Engineering, University of Tokyo

>  <COMMENT>  (3187) 
SMILES=Cc(c1)ccc(c1)C(C)(C)O
InChI=InChI=1S/C10H14O/c1-8-4-6-9(7-5-8)10(2,3)11/h4-7,11H,1-3H3
computed SMILES=OC(C1=CC=C(C=C1)C)(C)C
accession=JP007031
date=2016.01.19 (Created 2008.10.21, modified 2011.05.06)
author=SODA AROMATIC CO., LTD.
license=CC BY-NC-SA
exact mass=150.10447
ionization energy=70 eV
ion type=[M]+*
computed spectral entropy=2.2833638819653514
computed normalized entropy=0.6422335710807453
SPLASH=splash10-000f-9400000000-39274520f6ff7fa8357c
submitter=submitter = University of Tokyo Team (Faculty of Engineering, University of Tokyo)
MoNA Rating=3.75

>  <NUM PEAKS>  (3187) 
35

>  <MASS SPECTRAL PEAKS>  (3187) 
15 1.7
27 2.14
29 1.15
31 1.32
39 6.22
41 2.82
43 99.99
44 2.06
50 1.4
51 4.22
53 1.13
59 2.18
63 3.8
64 1.13
65 7.69
66 1.01
67 1.98
68 1.76
74 1.11
77 4
79 1
89 2.18
90 1
91 14.3
92 2.94
93 1.14
105 2.2
107 1.5
115 2.89
117 1.26
119 3.31
133 1.22
135 60.79
136 6.27
150 8.33

>  <PREDICTED SPECTRUM>  (3187) 
14 46
15 138
16 23
17 35
18 53
19 10
26 44
27 140
28 55
29 64
31 114
33 7
37 29
38 87
39 321
40 112
41 205
42 1
43 920
44 128
45 159
50 200
51 352
52 178
53 196
54 35
55 2
57 21
58 36
59 330
60 93
61 67
62 130
63 231
64 110
65 417
66 154
67 79
73 64
74 134
75 128
76 62
77 374
78 235
79 207
80 67
86 34
87 61
88 19
89 227
90 79
91 772
92 260
93 152
94 13
101 39
102 74
103 66
105 212
106 106
107 244
108 67
115 215
116 128
117 423
118 213
119 97
120 62
121 58
128 66
129 51
131 81
132 234
133 145
135 999
136 340
137 40
149 33
150 320
151 86

$$$$

     RDKit          2D

 11 11  0  0  0  0  0  0  0  0999 V2000
    3.8981    0.7504    0.0000 C   0  0  0  0  0  0  0  0  0  0  0  0
    2.5987    3.0002    0.0000 C   0  0  0  0  0  0  0  0  0  0  0  0
   -1.3000    0.7500    0.0000 C   0  0  0  0  0  0  0  0  0  0  0  0
   -0.0000   -1.5000    0.0000 C   0  0  0  0  0  0  0  0  0  0  0  0
    0.0000    1.5000    0.0000 C   0  0  0  0  0  0  0  0  0  0  0  0
    1.3000   -0.7500    0.0000 C   0  0  0  0  0  0  0  0  0  0  0  0
   -2.5989   -1.5002    0.0000 C   0  0  0  0  0  0  0  0  0  0  0  0
    2.5989    1.5002    0.0000 C   0  0  0  0  0  0  0  0  0  0  0  0
   -1.3000   -0.7500    0.0000 C   0  0  0  0  0  0  0  0  0  0  0  0
    1.3000    0.7500    0.0000 C   0  0  0  0  0  0  0  0  0  0  0  0
   -3.8981   -0.7504    0.0000 O   0  0  0  0  0  0  0  0  0  0  0  0
  5  3  2  0
  6  4  1  0
  8  1  1  0
  8  2  1  0
  9  3  1  0
  9  4  2  0
  9  7  1  0
 10  5  1  0
 10  6  2  0
 10  8  1  0
 11  7  1  0
M  END
>  <NAME>  (3188) 
CUMINYL ALCOHOL

>  <SYNONYMS>  (3188) 
4-(1-METHYLETHYL)BENZENEMETHANOL

>  <SPECTRUM TYPE>  (3188) 
MS1

>  <INSTRUMENT TYPE>  (3188) 
EI-B

>  <INSTRUMENT>  (3188) 
HITACHI M-80B

>  <ION MODE>  (3188) 
P

>  <INCHIKEY>  (3188) 
OIGWAXDAPKFNCQ-UHFFFAOYSA-N

>  <FORMULA>  (3188) 
C10H14O

>  <EXACT MASS>  (3188) 
150.104465068

>  <MW>  (3188) 
150

>  <ID>  (3188) 
JP007030

>  <CONTRIBUTOR>  (3188) 
University of Tokyo Team, {Faculty of Engineering, University of Tokyo

>  <COMMENT>  (3188) 
SMILES=OCc(c1)ccc(C(C)C)c1
InChI=InChI=1S/C10H14O/c1-8(2)10-5-3-9(7-11)4-6-10/h3-6,8,11H,7H2,1-2H3
computed SMILES=OCC1=CC=C(C=C1)C(C)C
accession=JP007030
date=2016.01.19 (Created 2008.10.21, modified 2011.05.06)
author=SODA AROMATIC CO., LTD.
license=CC BY-NC-SA
exact mass=150.10447
ionization energy=70 eV
ion type=[M]+*
computed spectral entropy=3.1969588314417283
computed normalized entropy=0.7977771459640355
SPLASH=splash10-0kbr-6900000000-b8aff71f0bcacbaf724d
submitter=submitter = University of Tokyo Team (Faculty of Engineering, University of Tokyo)
MoNA Rating=3.75

>  <NUM PEAKS>  (3188) 
55

>  <MASS SPECTRAL PEAKS>  (3188) 
15 1.39
18 2.32
27 9.06
28 1.94
29 4.58
31 8.05
39 11.72
40 1.09
41 11.44
43 8.6
50 3.73
51 12.33
52 2.44
53 3.06
55 1.22
60 2.03
62 1.61
63 5.77
64 1.54
65 7.22
66 1.66
67 1.87
74 1.54
75 1.81
76 1.68
77 24.64
78 7.64
79 39.82
80 2.29
89 3.02
91 31.35
92 3.08
93 1.79
102 1.97
103 9.03
104 2.52
105 44.15
106 3.52
107 35.61
108 2.5
115 7.11
116 1.6
117 11.8
118 2.63
119 26.01
120 3.08
121 1.75
132 1.34
133 2.66
134 1.44
135 99.99
136 9.93
149 1.49
150 48.05
151 4.52

>  <PREDICTED SPECTRUM>  (3188) 
14 32
15 106
16 22
17 39
18 70
19 3
26 99
27 369
28 165
29 294
30 31
31 165
32 17
37 55
38 153
39 469
40 183
41 421
42 82
43 263
44 77
45 63
50 205
51 405
52 211
53 297
54 65
55 273
57 98
58 59
59 33
62 134
63 304
64 209
65 402
66 156
67 151
74 121
75 143
76 109
77 638
78 383
79 480
80 117
81 123
89 241
90 138
91 907
92 348
93 252
94 128
95 87
96 14
101 19
102 180
103 420
104 229
105 789
106 266
107 667
108 248
109 63
115 538
116 259
117 664
118 342
119 630
120 332
121 335
122 59
123 11
128 28
130 5
131 213
132 311
133 409
134 131
135 999
136 330
137 23
147 24
148 143
149 275
150 853
151 282
152 16

$$$$

     RDKit          2D

 11 10  0  0  0  0  0  0  0  0999 V2000
    1.9486    3.3750    0.0000 C   0  0  0  0  0  0  0  0  0  0  0  0
    0.6495    5.6250    0.0000 C   0  0  0  0  0  0  0  0  0  0  0  0
   -5.8457    3.3750    0.0000 C   0  0  0  0  0  0  0  0  0  0  0  0
   -4.5466    5.6250    0.0000 C   0  0  0  0  0  0  0  0  0  0  0  0
   -0.6495    3.3750    0.0000 C   0  0  0  0  0  0  0  0  0  0  0  0
   -1.9486    4.1250    0.0000 C   0  0  0  0  0  0  0  0  0  0  0  0
   -3.2476    1.8750    0.0000 C   0  0  0  0  0  0  0  0  0  0  0  0
    0.6495    4.1250    0.0000 C   0  0  0  0  0  0  0  0  0  0  0  0
   -4.5466    4.1250    0.0000 C   0  0  0  0  0  0  0  0  0  0  0  0
   -3.2476    3.3750    0.0000 C   0  0  0  0  0  0  0  0  0  0  0  0
   -4.5466    1.1250    0.0000 O   0  0  0  0  0  0  0  0  0  0  0  0
  6  5  1  0
  8  1  1  0
  8  2  1  0
  8  5  1  0
  9  3  1  0
  9  4  1  0
 10  6  1  0
 10  7  1  0
 10  9  1  0
 11  7  1  0
M  END
>  <NAME>  (3189) 
TETRAHYDROLAVANDULOL

>  <SYNONYMS>  (3189) 
5-METHYL-2-ISOPROPYLHEXANOL

>  <SPECTRUM TYPE>  (3189) 
MS1

>  <INSTRUMENT TYPE>  (3189) 
EI-B

>  <INSTRUMENT>  (3189) 
HITACHI M-80B

>  <ION MODE>  (3189) 
P

>  <INCHIKEY>  (3189) 
SFIQHFBITUEIBP-UHFFFAOYSA-N

>  <FORMULA>  (3189) 
C10H22O

>  <EXACT MASS>  (3189) 
158.167065324

>  <MW>  (3189) 
158

>  <ID>  (3189) 
JP007029

>  <CONTRIBUTOR>  (3189) 
University of Tokyo Team, {Faculty of Engineering, University of Tokyo

>  <COMMENT>  (3189) 
SMILES=OCC(CCC(C)C)C(C)C
InChI=InChI=1S/C10H22O/c1-8(2)5-6-10(7-11)9(3)4/h8-11H,5-7H2,1-4H3
computed SMILES=OCC(CCC(C)C)C(C)C
accession=JP007029
date=2016.01.19 (Created 2008.10.21, modified 2011.05.06)
author=SODA AROMATIC CO., LTD.
license=CC BY-NC-SA
exact mass=158.16707
ionization energy=70 eV
ion type=[M]+*
computed spectral entropy=2.954206873078013
computed normalized entropy=0.8063756416379596
SPLASH=splash10-0abc-9000000000-f99fb54913596259edd5
submitter=submitter = University of Tokyo Team (Faculty of Engineering, University of Tokyo)
MoNA Rating=3.75

>  <NUM PEAKS>  (3189) 
39

>  <MASS SPECTRAL PEAKS>  (3189) 
27 22.02
28 2.21
29 21.67
31 12.84
39 16.26
40 2.78
41 63.52
42 9.32
43 99.99
44 4.45
45 4.12
53 5.89
54 3.11
55 57.35
56 49.61
57 86.07
58 4.02
59 1.48
67 4.02
68 2.77
69 48.63
70 25.26
71 77.69
72 4.41
81 2.21
82 2.61
83 12.88
84 21.74
85 32.09
86 1.73
96 2.96
97 18.61
98 3.5
112 2.82
115 2.23
125 1.97
126 2.04
127 4.03
140 3.72

>  <PREDICTED SPECTRUM>  (3189) 
15 13
25 5
26 50
27 262
28 107
29 350
31 207
32 35
33 17
37 11
38 40
39 355
40 156
41 749
42 382
43 968
44 234
45 148
50 42
51 37
53 208
54 149
55 808
56 710
57 999
58 160
59 121
65 18
66 75
67 251
68 196
69 741
70 619
71 792
72 246
73 153
81 204
82 166
83 641
84 456
85 453
86 150
87 62
95 77
96 112
97 361
98 204
99 228
100 33
110 35
111 235
112 317
113 236
114 75
115 99
125 22
126 27
127 107
128 0
140 111

$$$$

     RDKit          2D

 11 10  0  0  0  0  0  0  0  0999 V2000
   -7.4695    3.9375    0.0000 C   0  0  0  0  0  0  0  0  0  0  0  0
    1.6238    3.1875    0.0000 C   0  0  0  0  0  0  0  0  0  0  0  0
    0.3248    5.4375    0.0000 C   0  0  0  0  0  0  0  0  0  0  0  0
   -3.9072    5.0866    0.0000 C   0  0  0  0  0  0  0  0  0  0  0  0
   -6.1704    3.1875    0.0000 C   0  0  0  0  0  0  0  0  0  0  0  0
   -2.2733    3.9375    0.0000 C   0  0  0  0  0  0  0  0  0  0  0  0
   -0.9743    3.1875    0.0000 C   0  0  0  0  0  0  0  0  0  0  0  0
   -3.5724    3.1875    0.0000 C   0  0  0  0  0  0  0  0  0  0  0  0
    0.3248    3.9375    0.0000 C   0  0  0  0  0  0  0  0  0  0  0  0
   -4.8714    3.9375    0.0000 C   0  0  0  0  0  0  0  0  0  0  0  0
   -5.8356    5.0866    0.0000 O   0  0  0  0  0  0  0  0  0  0  0  0
  5  1  1  0
  7  6  1  0
  8  6  1  0
  9  2  1  0
  9  3  1  0
  9  7  1  0
 10  4  1  0
 10  5  1  0
 10  8  1  0
 11 10  1  0
M  END
>  <NAME>  (3190) 
TETRAHYDROLINALOOL

>  <SYNONYMS>  (3190) 
3,7-DIMETHYL-3-OCTANOL

>  <SPECTRUM TYPE>  (3190) 
MS1

>  <INSTRUMENT TYPE>  (3190) 
EI-B

>  <INSTRUMENT>  (3190) 
HITACHI M-80B

>  <ION MODE>  (3190) 
P

>  <INCHIKEY>  (3190) 
DLHQZZUEERVIGQ-UHFFFAOYSA-N

>  <FORMULA>  (3190) 
C10H22O

>  <EXACT MASS>  (3190) 
158.167065324

>  <MW>  (3190) 
158

>  <ID>  (3190) 
JP007028

>  <CONTRIBUTOR>  (3190) 
University of Tokyo Team, {Faculty of Engineering, University of Tokyo

>  <COMMENT>  (3190) 
SMILES=CC(C)CCCC(C)(O)CC
InChI=InChI=1S/C10H22O/c1-5-10(4,11)8-6-7-9(2)3/h9,11H,5-8H2,1-4H3
computed SMILES=OC(C)(CC)CCCC(C)C
accession=JP007028
date=2016.01.19 (Created 2008.10.21, modified 2011.05.06)
author=SODA AROMATIC CO., LTD.
license=CC BY-NC-SA
exact mass=158.16707
ionization energy=70 eV
ion type=[M]+*
computed spectral entropy=2.455172752831521
computed normalized entropy=0.7449315159242156
SPLASH=splash10-00di-9000000000-03f4bb0960531ca3cf0d
submitter=submitter = University of Tokyo Team (Faculty of Engineering, University of Tokyo)
MoNA Rating=3.75

>  <NUM PEAKS>  (3190) 
27

>  <MASS SPECTRAL PEAKS>  (3190) 
27 5.36
28 1.07
29 10.86
31 1.73
39 3.67
41 10.61
42 1.22
43 20.6
45 5.48
53 1.35
55 20.87
56 1.52
57 6.48
58 4.07
59 1.76
69 26.35
70 4.28
71 4.22
72 3.14
73 99.99
74 4.69
83 4.62
85 1.23
111 6.13
129 14.78
130 1.05
143 4.71

>  <PREDICTED SPECTRUM>  (3190) 
27 198
28 48
29 212
31 164
39 183
40 6
41 381
42 59
43 607
45 283
51 21
52 2
53 132
55 437
56 134
57 262
58 196
59 204
67 67
69 533
70 200
71 415
72 142
73 999
74 205
75 20
83 31
97 51
111 166
129 176
130 15
140 29
143 164
144 29

$$$$

     RDKit          2D

  8  7  0  0  0  0  0  0  0  0999 V2000
   -6.4952    4.5000    0.0000 C   0  0  0  0  0  0  0  0  0  0  0  0
   -5.1962    3.7500    0.0000 C   0  0  0  0  0  0  0  0  0  0  0  0
   -3.8971    4.5000    0.0000 C   0  0  0  0  0  0  0  0  0  0  0  0
    1.2990    4.5000    0.0000 C   0  0  0  0  0  0  0  0  0  0  0  0
   -2.5981    3.7500    0.0000 C   0  0  0  0  0  0  0  0  0  0  0  0
    0.0000    3.7500    0.0000 C   0  0  0  0  0  0  0  0  0  0  0  0
    2.5981    3.7500    0.0000 O   0  0  0  0  0  0  0  0  0  0  0  0
   -1.2990    4.5000    0.0000 O   0  0  0  0  0  0  0  0  0  0  0  0
  2  1  1  0
  3  2  1  0
  5  3  1  0
  6  4  1  0
  7  4  1  0
  8  5  1  0
  8  6  1  0
M  END
>  <NAME>  (3191) 
2-BUTOXYETHANOL

>  <SYNONYMS>  (3191) 


>  <SPECTRUM TYPE>  (3191) 
MS1

>  <INSTRUMENT TYPE>  (3191) 
EI-B

>  <INSTRUMENT>  (3191) 
HITACHI M-80B

>  <ION MODE>  (3191) 
P

>  <INCHIKEY>  (3191) 
POAOYUHQDCAZBD-UHFFFAOYSA-N

>  <FORMULA>  (3191) 
C6H14O2

>  <EXACT MASS>  (3191) 
118.099379688

>  <MW>  (3191) 
118

>  <ID>  (3191) 
JP007024

>  <CONTRIBUTOR>  (3191) 
University of Tokyo Team, {Faculty of Engineering, University of Tokyo

>  <COMMENT>  (3191) 
SMILES=CCCCOCCO
InChI=InChI=1S/C6H14O2/c1-2-3-5-8-6-4-7/h7H,2-6H2,1H3
computed SMILES=OCCOCCCC
accession=JP007024
date=2016.01.19 (Created 2008.10.21, modified 2011.05.06)
author=SODA AROMATIC CO., LTD.
license=CC BY-NC-SA
exact mass=118.09938
ionization energy=70 eV
ion type=[M]+*
computed spectral entropy=2.4267598534218906
computed normalized entropy=0.7448397630647156
SPLASH=splash10-0a4i-9000000000-5b26a54363815eed68aa
submitter=submitter = University of Tokyo Team (Faculty of Engineering, University of Tokyo)
MoNA Rating=3.75

>  <NUM PEAKS>  (3191) 
26

>  <MASS SPECTRAL PEAKS>  (3191) 
15 1.8
19 1.67
26 1.25
27 14.98
28 4.32
29 33.85
30 1.09
31 13.59
39 7.09
41 36.25
42 2.29
43 6.05
44 3.76
45 45.72
46 1.04
55 6.04
56 8.41
57 99.99
58 4.58
63 1.39
71 4.27
72 1.48
73 1.3
75 7.57
87 16.94
100 2.63

>  <PREDICTED SPECTRUM>  (3191) 
14 15
15 16
19 62
25 3
26 69
27 284
28 144
29 438
30 17
31 328
32 19
33 47
38 6
39 262
40 63
41 654
42 173
43 510
44 387
45 935
46 247
47 142
53 60
54 46
55 266
56 601
57 999
58 283
59 195
60 35
61 216
62 86
63 44
71 86
72 134
73 150
74 182
75 375
76 31
85 32
87 159
88 27
89 183
99 15
100 88
118 119

$$$$

     RDKit          2D

  5  4  0  0  0  0  0  0  0  0999 V2000
    0.0000    0.0000    0.0000 C   0  0  0  0  0  0  0  0  0  0  0  0
   -1.2990    2.2500    0.0000 C   0  0  0  0  0  0  0  0  0  0  0  0
    0.0000    1.5000    0.0000 C   0  0  0  0  0  0  0  0  0  0  0  0
   -1.2990    3.7500    0.0000 O   0  0  0  0  0  0  0  0  0  0  0  0
    1.2990    2.2500    0.0000 O   0  0  0  0  0  0  0  0  0  0  0  0
  3  1  1  0
  3  2  1  0
  4  2  1  0
  5  3  2  0
M  END
>  <NAME>  (3192) 
1-HYDROXY-2-PROPANONE

>  <SYNONYMS>  (3192) 


>  <SPECTRUM TYPE>  (3192) 
MS1

>  <INSTRUMENT TYPE>  (3192) 
EI-B

>  <INSTRUMENT>  (3192) 
HITACHI M-80B

>  <ION MODE>  (3192) 
P

>  <INCHIKEY>  (3192) 
XLSMFKSTNGKWQX-UHFFFAOYSA-N

>  <FORMULA>  (3192) 
C3H6O2

>  <EXACT MASS>  (3192) 
74.036779432

>  <MW>  (3192) 
74

>  <ID>  (3192) 
JP007023

>  <CONTRIBUTOR>  (3192) 
University of Tokyo Team, {Faculty of Engineering, University of Tokyo

>  <COMMENT>  (3192) 
SMILES=OCC(C)=O
InChI=InChI=1S/C3H6O2/c1-3(5)2-4/h4H,2H2,1H3
computed SMILES=O=C(C)CO
accession=JP007023
date=2016.01.19 (Created 2008.10.21, modified 2011.05.06)
author=SODA AROMATIC CO., LTD.
license=CC BY-NC-SA
exact mass=74.03678
ionization energy=70 eV
ion type=[M]+*
computed spectral entropy=1.6498305310652022
computed normalized entropy=0.6251590340804483
SPLASH=splash10-0006-9000000000-2534cfaae5c1ba708730
submitter=submitter = University of Tokyo Team (Faculty of Engineering, University of Tokyo)
MoNA Rating=3.75

>  <NUM PEAKS>  (3192) 
14

>  <MASS SPECTRAL PEAKS>  (3192) 
14 3.14
15 14.91
26 2.06
27 4.22
28 1.09
29 13.47
30 1.58
31 22.47
41 1.14
42 6.91
43 99.99
44 1.99
45 2.09
74 7.37

>  <PREDICTED SPECTRUM>  (3192) 
14 85
15 195
16 35
17 22
18 34
19 31
25 18
26 101
27 252
28 145
29 264
31 378
32 68
37 65
38 97
39 278
40 161
41 366
42 355
43 999
44 230
45 143
50 27
53 144
54 90
55 167
56 307
57 87
58 166
59 104
61 52
74 100
75 18

$$$$

     RDKit          2D

 10  9  0  0  0  0  0  0  0  0999 V2000
    1.3260   -0.6495    0.0000 C   0  0  0  0  0  0  0  0  0  0  0  0
   -0.1740    1.9486    0.0000 C   0  0  0  0  0  0  0  0  0  0  0  0
    3.9240    2.3505    0.0000 C   0  0  0  0  0  0  0  0  0  0  0  0
    4.4731    4.3995    0.0000 C   0  0  0  0  0  0  0  0  0  0  0  0
    1.8750    1.3995    0.0000 C   0  0  0  0  0  0  0  0  0  0  0  0
    1.8750    2.8995    0.0000 C   0  0  0  0  0  0  0  0  0  0  0  0
    0.5760    0.6495    0.0000 C   0  0  0  0  0  0  0  0  0  0  0  0
    3.1740    3.6495    0.0000 C   0  0  0  0  0  0  0  0  0  0  0  0
   -0.7231   -0.1005    0.0000 O   0  0  0  0  0  0  0  0  0  0  0  0
    2.4240    4.9486    0.0000 O   0  0  0  0  0  0  0  0  0  0  0  0
  6  5  1  0
  7  1  1  0
  7  2  1  0
  7  5  1  0
  8  3  1  0
  8  4  1  0
  8  6  1  0
  9  7  1  0
 10  8  1  0
M  END
>  <NAME>  (3193) 
2,5-DIMETHYL-2,5-HEXANEDIOL

>  <SYNONYMS>  (3193) 


>  <SPECTRUM TYPE>  (3193) 
MS1

>  <INSTRUMENT TYPE>  (3193) 
EI-B

>  <INSTRUMENT>  (3193) 
HITACHI M-80B

>  <ION MODE>  (3193) 
P

>  <INCHIKEY>  (3193) 
ZWNMRZQYWRLGMM-UHFFFAOYSA-N

>  <FORMULA>  (3193) 
C8H18O2

>  <EXACT MASS>  (3193) 
146.130679816

>  <MW>  (3193) 
146

>  <ID>  (3193) 
JP007022

>  <CONTRIBUTOR>  (3193) 
University of Tokyo Team, {Faculty of Engineering, University of Tokyo

>  <COMMENT>  (3193) 
SMILES=CC(C)(O)CCC(C)(C)O
InChI=InChI=1S/C8H18O2/c1-7(2,9)5-6-8(3,4)10/h9-10H,5-6H2,1-4H3
computed SMILES=OC(C)(C)CCC(O)(C)C
accession=JP007022
date=2016.01.19 (Created 2008.10.21, modified 2011.05.06)
author=SODA AROMATIC CO., LTD.
license=CC BY-NC-SA
exact mass=146.13068
ionization energy=70 eV
ion type=[M]+*
computed spectral entropy=2.44237288032403
computed normalized entropy=0.7496318331338303
SPLASH=splash10-052f-9000000000-9b1218f22dfda21077ab
submitter=submitter = University of Tokyo Team (Faculty of Engineering, University of Tokyo)
MoNA Rating=3.75

>  <NUM PEAKS>  (3193) 
26

>  <MASS SPECTRAL PEAKS>  (3193) 
15 2.65
27 5.95
29 7.76
31 13.83
39 6.2
41 12.27
42 9.99
43 99.99
44 2.78
45 2.01
53 1.99
55 28.51
56 1.69
57 3.63
58 6.4
59 76.11
60 1.83
67 1.82
69 6.35
70 46.1
71 5.4
77 1.3
95 11.23
111 1.92
113 27.02
114 1.53

>  <PREDICTED SPECTRUM>  (3193) 
14 14
15 41
19 3
25 15
26 52
27 125
28 37
29 93
31 209
32 1
33 27
37 18
38 33
39 129
40 72
41 253
42 94
43 532
44 4
45 48
50 8
51 57
52 86
53 82
54 77
55 269
56 147
57 111
58 153
59 999
60 214
61 61
63 13
65 27
66 16
67 125
68 65
69 229
70 294
71 270
72 88
73 163
74 31
75 32
79 52
80 11
81 44
83 47
84 14
85 106
87 30
88 85
93 48
95 240
96 11
97 55
109 53
110 48
111 105
113 227
114 31
127 61
128 14
131 134

$$$$

     RDKit          2D

  6  5  0  0  0  0  0  0  0  0999 V2000
   -1.9486    3.3750    0.0000 C   0  0  0  0  0  0  0  0  0  0  0  0
   -0.6495    2.6250    0.0000 C   0  0  0  0  0  0  0  0  0  0  0  0
   -3.2476    2.6250    0.0000 C   0  0  0  0  0  0  0  0  0  0  0  0
    0.6495    3.3750    0.0000 C   0  0  0  0  0  0  0  0  0  0  0  0
   -4.5466    3.3750    0.0000 O   0  0  0  0  0  0  0  0  0  0  0  0
    1.9486    2.6250    0.0000 O   0  0  0  0  0  0  0  0  0  0  0  0
  2  1  1  0
  3  1  1  0
  4  2  1  0
  5  3  1  0
  6  4  1  0
M  END
>  <NAME>  (3194) 
1,4-BUTANEDIOL

>  <SYNONYMS>  (3194) 


>  <SPECTRUM TYPE>  (3194) 
MS1

>  <INSTRUMENT TYPE>  (3194) 
EI-B

>  <INSTRUMENT>  (3194) 
HITACHI M-80B

>  <ION MODE>  (3194) 
P

>  <INCHIKEY>  (3194) 
WERYXYBDKMZEQL-UHFFFAOYSA-N

>  <FORMULA>  (3194) 
C4H10O2

>  <EXACT MASS>  (3194) 
90.06807956

>  <MW>  (3194) 
90

>  <ID>  (3194) 
JP007021

>  <CONTRIBUTOR>  (3194) 
University of Tokyo Team, {Faculty of Engineering, University of Tokyo

>  <COMMENT>  (3194) 
SMILES=OCCCCO
InChI=InChI=1S/C4H10O2/c5-3-1-2-4-6/h5-6H,1-4H2
computed SMILES=OCCCCO
accession=JP007021
date=2016.01.19 (Created 2008.10.21, modified 2011.05.06)
author=SODA AROMATIC CO., LTD.
license=CC BY-NC-SA
exact mass=90.06808
ionization energy=70 eV
ion type=[M]+*
computed spectral entropy=2.408679033003045
computed normalized entropy=0.748298214673028
SPLASH=splash10-0006-9000000000-e73d0286021e82006c29
submitter=submitter = University of Tokyo Team (Faculty of Engineering, University of Tokyo)
MoNA Rating=3.75

>  <NUM PEAKS>  (3194) 
25

>  <MASS SPECTRAL PEAKS>  (3194) 
15 2.72
19 2.27
26 2.79
27 22.64
28 5.99
29 22.53
30 1.88
31 97.35
32 1.46
38 1.08
39 13.08
40 6.52
41 39.77
42 99.99
43 20.35
44 86.52
45 5.4
53 1.81
54 1.01
55 1.89
57 21.84
60 3.28
62 2.23
71 23.05
72 7.31

>  <PREDICTED SPECTRUM>  (3194) 
14 66
15 88
16 37
17 33
18 66
19 64
25 40
26 218
27 555
28 498
29 520
30 259
31 840
32 117
33 46
35 3
36 3
37 68
38 142
39 726
40 342
41 999
42 733
43 870
44 624
45 382
46 230
47 170
48 37
49 116
50 88
51 124
52 84
53 416
54 656
55 791
56 552
57 702
58 66
59 111
60 284
61 95
62 86
63 53
65 7
70 106
71 505
72 402
73 228
74 2

$$$$

     RDKit          2D

 14 13  0  0  0  0  0  0  0  0999 V2000
    4.5466    7.1250    0.0000 C   0  0  0  0  0  0  0  0  0  0  0  0
    3.2476    7.8750    0.0000 C   0  0  0  0  0  0  0  0  0  0  0  0
    1.9486    7.1250    0.0000 C   0  0  0  0  0  0  0  0  0  0  0  0
    0.6495    7.8750    0.0000 C   0  0  0  0  0  0  0  0  0  0  0  0
   -0.6495    7.1250    0.0000 C   0  0  0  0  0  0  0  0  0  0  0  0
   -1.9486    7.8750    0.0000 C   0  0  0  0  0  0  0  0  0  0  0  0
   -3.2476    7.1250    0.0000 C   0  0  0  0  0  0  0  0  0  0  0  0
   -4.5466    7.8750    0.0000 C   0  0  0  0  0  0  0  0  0  0  0  0
   -5.8457    7.1250    0.0000 C   0  0  0  0  0  0  0  0  0  0  0  0
   -7.1447    7.8750    0.0000 C   0  0  0  0  0  0  0  0  0  0  0  0
   -8.4437    7.1250    0.0000 C   0  0  0  0  0  0  0  0  0  0  0  0
   -9.7428    7.8750    0.0000 C   0  0  0  0  0  0  0  0  0  0  0  0
  -11.0418    7.1250    0.0000 C   0  0  0  0  0  0  0  0  0  0  0  0
  -12.3409    7.8750    0.0000 O   0  0  0  0  0  0  0  0  0  0  0  0
  2  1  1  0
  3  2  1  0
  4  3  1  0
  5  4  1  0
  6  5  1  0
  7  6  1  0
  8  7  1  0
  9  8  1  0
 10  9  1  0
 11 10  1  0
 12 11  1  0
 13 12  1  0
 14 13  1  0
M  END
>  <NAME>  (3195) 
TRIDECANOL

>  <SYNONYMS>  (3195) 


>  <SPECTRUM TYPE>  (3195) 
MS1

>  <INSTRUMENT TYPE>  (3195) 
EI-B

>  <INSTRUMENT>  (3195) 
HITACHI M-80B

>  <ION MODE>  (3195) 
P

>  <INCHIKEY>  (3195) 
XFRVVPUIAFSTFO-UHFFFAOYSA-N

>  <FORMULA>  (3195) 
C13H28O

>  <EXACT MASS>  (3195) 
200.21401551600002

>  <MW>  (3195) 
200

>  <ID>  (3195) 
JP007020

>  <CONTRIBUTOR>  (3195) 
University of Tokyo Team, {Faculty of Engineering, University of Tokyo

>  <COMMENT>  (3195) 
SMILES=CCCCCCCCCCCCCO
InChI=InChI=1S/C13H28O/c1-2-3-4-5-6-7-8-9-10-11-12-13-14/h14H,2-13H2,1H3
computed SMILES=OCCCCCCCCCCCCC
accession=JP007020
date=2016.01.19 (Created 2008.10.21, modified 2011.05.06)
author=SODA AROMATIC CO., LTD.
license=CC BY-NC-SA
exact mass=200.21402
ionization energy=70 eV
ion type=[M]+*
computed spectral entropy=3.1229141073606024
computed normalized entropy=0.8585127527523647
SPLASH=splash10-0a4l-9000000000-31719e7c569e2c37eeac
submitter=submitter = University of Tokyo Team (Faculty of Engineering, University of Tokyo)
MoNA Rating=3.75

>  <NUM PEAKS>  (3195) 
38

>  <MASS SPECTRAL PEAKS>  (3195) 
17 1.39
27 20.01
29 36.47
31 32.41
39 13.88
40 1.36
41 84.8
42 25.74
43 99.99
44 5.78
45 1.75
53 5.7
54 10.6
55 96.79
56 61.27
57 64.2
58 2.47
67 11.53
68 27.96
69 75.12
70 54.53
71 19.58
81 3.66
82 26.06
83 63.32
84 31.47
85 9.98
95 1.25
96 6.25
97 37.3
98 16.61
110 2.95
111 16.87
112 9.99
125 6.73
126 5.3
139 1.07
154 6.94

>  <PREDICTED SPECTRUM>  (3195) 
17 1
18 4
25 11
26 80
27 299
28 166
29 478
30 93
31 273
32 35
33 7
36 4
37 22
38 66
39 388
40 174
41 934
42 499
43 908
44 325
45 159
46 44
47 33
50 68
51 97
52 47
53 258
54 391
55 999
56 801
57 925
58 150
59 95
61 4
65 95
66 172
67 482
68 549
69 963
70 705
71 588
72 142
73 138
74 34
75 19
76 44
77 73
78 45
79 145
80 54
81 405
82 618
83 834
84 494
85 352
86 74
87 102
88 46
91 41
93 12
94 11
95 333
96 426
97 670
98 376
99 176
100 44
102 3
104 32
109 139
110 196
111 458
112 278
113 106
114 71
115 9
123 0
124 200
125 253
126 263
127 72
138 77
139 84
140 138
141 19
153 111
154 271
155 100
168 60
169 59
182 232
183 49

$$$$

     RDKit          2D

 11 10  0  0  0  0  0  0  0  0999 V2000
   -8.4437    5.6250    0.0000 C   0  0  0  0  0  0  0  0  0  0  0  0
    3.2476    4.8750    0.0000 C   0  0  0  0  0  0  0  0  0  0  0  0
   -7.1447    4.8750    0.0000 C   0  0  0  0  0  0  0  0  0  0  0  0
    1.9486    5.6250    0.0000 C   0  0  0  0  0  0  0  0  0  0  0  0
   -5.8457    5.6250    0.0000 C   0  0  0  0  0  0  0  0  0  0  0  0
   -4.5466    4.8750    0.0000 C   0  0  0  0  0  0  0  0  0  0  0  0
   -3.2476    5.6250    0.0000 C   0  0  0  0  0  0  0  0  0  0  0  0
    0.6495    4.8750    0.0000 C   0  0  0  0  0  0  0  0  0  0  0  0
   -1.9486    4.8750    0.0000 C   0  0  0  0  0  0  0  0  0  0  0  0
   -0.6495    5.6250    0.0000 C   0  0  0  0  0  0  0  0  0  0  0  0
   -0.6495    7.1250    0.0000 O   0  0  0  0  0  0  0  0  0  0  0  0
  3  1  1  0
  4  2  1  0
  5  3  1  0
  6  5  1  0
  7  6  1  0
  8  4  1  0
  9  7  1  0
 10  8  1  0
 10  9  1  0
 11 10  1  0
M  END
>  <NAME>  (3196) 
4-DECANOL

>  <SYNONYMS>  (3196) 


>  <SPECTRUM TYPE>  (3196) 
MS1

>  <INSTRUMENT TYPE>  (3196) 
EI-B

>  <INSTRUMENT>  (3196) 
HITACHI M-80B

>  <ION MODE>  (3196) 
P

>  <INCHIKEY>  (3196) 
DTDMYWXTWWFLGJ-UHFFFAOYSA-N

>  <FORMULA>  (3196) 
C10H22O

>  <EXACT MASS>  (3196) 
158.167065324

>  <MW>  (3196) 
158

>  <ID>  (3196) 
JP007019

>  <CONTRIBUTOR>  (3196) 
University of Tokyo Team, {Faculty of Engineering, University of Tokyo

>  <COMMENT>  (3196) 
SMILES=CCCCCCC(O)CCC
InChI=InChI=1S/C10H22O/c1-3-5-6-7-9-10(11)8-4-2/h10-11H,3-9H2,1-2H3
computed SMILES=OC(CCC)CCCCCC
accession=JP007019
date=2016.01.19 (Created 2008.10.21, modified 2011.05.06)
author=SODA AROMATIC CO., LTD.
license=CC BY-NC-SA
exact mass=158.16707
ionization energy=70 eV
ion type=[M]+*
computed spectral entropy=2.4734424637530052
computed normalized entropy=0.7782884103892611
SPLASH=splash10-0abc-9000000000-72cfd58a734ffbf87741
submitter=submitter = University of Tokyo Team (Faculty of Engineering, University of Tokyo)
MoNA Rating=3.75

>  <NUM PEAKS>  (3196) 
24

>  <MASS SPECTRAL PEAKS>  (3196) 
27 11.97
29 13.61
31 7.79
39 5.99
41 21.16
42 3.53
43 28.84
44 5.84
45 2.57
53 1.27
55 99.99
56 7
57 8
58 1.54
69 10.21
70 2.81
71 1.94
72 5.83
73 55.9
74 2.25
97 41.86
98 2.7
115 16.75
140 2.14

>  <PREDICTED SPECTRUM>  (3196) 
14 4
15 51
16 6
17 7
18 30
19 13
25 13
26 90
27 443
28 210
29 518
30 80
31 257
32 34
36 18
37 45
38 85
39 389
40 173
41 723
42 358
43 739
44 302
45 319
47 80
50 55
51 90
52 81
53 211
54 138
55 999
56 457
57 602
58 179
59 208
60 24
63 28
65 78
66 89
67 231
68 103
69 589
70 345
71 330
72 316
73 872
74 21
78 11
81 146
82 61
83 777
84 153
85 74
86 229
87 133
96 22
97 494
98 156
99 102
101 161
110 19
111 74
112 13
113 41
114 50
115 392
116 61
140 167

$$$$

     RDKit          2D

 11 10  0  0  0  0  0  0  0  0999 V2000
   -8.4437    5.6250    0.0000 C   0  0  0  0  0  0  0  0  0  0  0  0
    3.2476    4.8750    0.0000 C   0  0  0  0  0  0  0  0  0  0  0  0
   -7.1447    4.8750    0.0000 C   0  0  0  0  0  0  0  0  0  0  0  0
    1.9486    5.6250    0.0000 C   0  0  0  0  0  0  0  0  0  0  0  0
   -5.8457    5.6250    0.0000 C   0  0  0  0  0  0  0  0  0  0  0  0
   -4.5466    4.8750    0.0000 C   0  0  0  0  0  0  0  0  0  0  0  0
   -3.2476    5.6250    0.0000 C   0  0  0  0  0  0  0  0  0  0  0  0
   -1.9486    4.8750    0.0000 C   0  0  0  0  0  0  0  0  0  0  0  0
   -0.6495    5.6250    0.0000 C   0  0  0  0  0  0  0  0  0  0  0  0
    0.6495    4.8750    0.0000 C   0  0  0  0  0  0  0  0  0  0  0  0
    0.6495    3.3750    0.0000 O   0  0  0  0  0  0  0  0  0  0  0  0
  3  1  1  0
  4  2  1  0
  5  3  1  0
  6  5  1  0
  7  6  1  0
  8  7  1  0
  9  8  1  0
 10  4  1  0
 10  9  1  0
 11 10  1  0
M  END
>  <NAME>  (3197) 
3-DECANOL

>  <SYNONYMS>  (3197) 


>  <SPECTRUM TYPE>  (3197) 
MS1

>  <INSTRUMENT TYPE>  (3197) 
EI-B

>  <INSTRUMENT>  (3197) 
HITACHI M-80B

>  <ION MODE>  (3197) 
P

>  <INCHIKEY>  (3197) 
ICEQLCZWZXUUIJ-UHFFFAOYSA-N

>  <FORMULA>  (3197) 
C10H22O

>  <EXACT MASS>  (3197) 
158.167065324

>  <MW>  (3197) 
158

>  <ID>  (3197) 
JP007018

>  <CONTRIBUTOR>  (3197) 
University of Tokyo Team, {Faculty of Engineering, University of Tokyo

>  <COMMENT>  (3197) 
SMILES=CCCCCCCC(O)CC
InChI=InChI=1S/C10H22O/c1-3-5-6-7-8-9-10(11)4-2/h10-11H,3-9H2,1-2H3
computed SMILES=OC(CC)CCCCCCC
accession=JP007018
author=SODA AROMATIC CO., LTD.
date=2016.01.19 (Created 2008.10.21, modified 2011.05.06)
license=CC BY-NC-SA
exact mass=158.16707
ionization energy=70 eV
ion type=[M]+*
computed spectral entropy=2.6356790483047883
computed normalized entropy=0.7604962184728521
SPLASH=splash10-0a4i-9000000000-3b5fbb368c5a3ae8d657
submitter=submitter = University of Tokyo Team (Faculty of Engineering, University of Tokyo)
MoNA Rating=3.75

>  <NUM PEAKS>  (3197) 
32

>  <MASS SPECTRAL PEAKS>  (3197) 
27 11.57
29 16.88
31 16.07
39 4.9
41 30.43
42 4.9
43 18.26
44 2.79
45 1.42
53 1.34
54 1.02
55 33.17
56 5.19
57 15.39
58 10.49
59 99.99
60 2.75
67 1.48
69 71.19
70 5.23
71 1.56
72 1.22
83 5.21
84 1.86
85 1.26
97 1.41
98 1.1
111 15.88
112 1.9
129 19.07
130 1.6
140 2.01

>  <PREDICTED SPECTRUM>  (3197) 
14 12
15 81
17 15
18 40
19 19
25 9
26 91
27 522
28 270
29 733
30 162
31 450
32 67
33 46
37 26
38 68
39 425
40 155
41 841
42 437
43 626
44 200
45 470
46 86
47 108
50 29
51 89
52 66
53 236
54 152
55 863
56 590
57 795
58 317
59 999
60 100
65 45
66 23
67 208
68 106
69 708
70 440
71 374
72 149
73 126
77 36
79 36
81 133
82 79
83 489
84 178
85 48
86 17
96 71
97 415
98 143
99 159
100 41
101 19
111 315
112 154
129 372
130 73
140 134

$$$$

     RDKit          2D

 11 10  0  0  0  0  0  0  0  0999 V2000
    2.9228    5.4375    0.0000 C   0  0  0  0  0  0  0  0  0  0  0  0
   -8.7685    6.1875    0.0000 C   0  0  0  0  0  0  0  0  0  0  0  0
    1.6238    6.1875    0.0000 C   0  0  0  0  0  0  0  0  0  0  0  0
    0.3248    5.4375    0.0000 C   0  0  0  0  0  0  0  0  0  0  0  0
   -0.9743    6.1875    0.0000 C   0  0  0  0  0  0  0  0  0  0  0  0
   -2.2733    5.4375    0.0000 C   0  0  0  0  0  0  0  0  0  0  0  0
   -3.5724    6.1875    0.0000 C   0  0  0  0  0  0  0  0  0  0  0  0
   -4.8714    5.4375    0.0000 C   0  0  0  0  0  0  0  0  0  0  0  0
   -6.1704    6.1875    0.0000 C   0  0  0  0  0  0  0  0  0  0  0  0
   -7.4695    5.4375    0.0000 C   0  0  0  0  0  0  0  0  0  0  0  0
   -7.4695    3.9375    0.0000 O   0  0  0  0  0  0  0  0  0  0  0  0
  3  1  1  0
  4  3  1  0
  5  4  1  0
  6  5  1  0
  7  6  1  0
  8  7  1  0
  9  8  1  0
 10  2  1  0
 10  9  1  0
 11 10  1  0
M  END
>  <NAME>  (3198) 
2-DECANOL

>  <SYNONYMS>  (3198) 


>  <SPECTRUM TYPE>  (3198) 
MS1

>  <INSTRUMENT TYPE>  (3198) 
EI-B

>  <INSTRUMENT>  (3198) 
HITACHI M-80B

>  <ION MODE>  (3198) 
P

>  <INCHIKEY>  (3198) 
ACUZDYFTRHEKOS-UHFFFAOYSA-N

>  <FORMULA>  (3198) 
C10H22O

>  <EXACT MASS>  (3198) 
158.167065324

>  <MW>  (3198) 
158

>  <ID>  (3198) 
JP007017

>  <CONTRIBUTOR>  (3198) 
University of Tokyo Team, {Faculty of Engineering, University of Tokyo

>  <COMMENT>  (3198) 
SMILES=CCCCCCCCC(C)O
InChI=InChI=1S/C10H22O/c1-3-4-5-6-7-8-9-10(2)11/h10-11H,3-9H2,1-2H3
computed SMILES=OC(C)CCCCCCCC
accession=JP007017
date=2016.01.19 (Created 2008.10.21, modified 2011.05.06)
author=SODA AROMATIC CO., LTD.
license=CC BY-NC-SA
exact mass=158.16707
ionization energy=70 eV
ion type=[M]+*
computed spectral entropy=2.560684607278989
computed normalized entropy=0.7604572738978134
SPLASH=splash10-0002-9000000000-9a5d43440a4c24aeead0
submitter=submitter = University of Tokyo Team (Faculty of Engineering, University of Tokyo)
MoNA Rating=3.75

>  <NUM PEAKS>  (3198) 
29

>  <MASS SPECTRAL PEAKS>  (3198) 
27 7.22
29 9.99
31 1.11
39 4.27
41 18.39
42 5.41
43 16.74
44 6.43
45 99.99
46 2.02
54 1.09
55 14.91
56 9.59
57 9.74
58 1.59
67 1.07
69 15.71
70 7.47
71 4.85
82 1.18
83 8.84
84 4.41
85 2.83
97 3.23
98 2.38
111 2.18
112 4.51
140 1.83
143 1.96

>  <PREDICTED SPECTRUM>  (3198) 
14 1
15 34
18 14
19 46
25 2
26 35
27 260
28 111
29 338
30 3
31 221
32 56
36 10
37 15
38 41
39 260
40 88
41 582
42 282
43 648
44 200
45 999
46 126
47 1
50 16
51 64
52 28
53 164
54 107
55 623
56 451
57 518
58 188
59 164
65 20
66 50
67 209
68 131
69 543
70 232
71 302
72 81
81 144
82 168
83 497
84 250
85 175
86 25
87 76
95 33
96 138
97 374
98 124
99 102
110 51
111 192
112 184
113 276
114 192
125 55
126 0
140 60
143 119

$$$$

     RDKit          2D

 18 17  0  0  0  0  0  0  0  0999 V2000
  -15.5885    9.0000    0.0000 C   0  0  0  0  0  0  0  0  0  0  0  0
    5.1962    9.0000    0.0000 C   0  0  0  0  0  0  0  0  0  0  0  0
  -14.2894    8.2500    0.0000 C   0  0  0  0  0  0  0  0  0  0  0  0
    3.8971    8.2500    0.0000 C   0  0  0  0  0  0  0  0  0  0  0  0
  -12.9904    9.0000    0.0000 C   0  0  0  0  0  0  0  0  0  0  0  0
    2.5981    9.0000    0.0000 C   0  0  0  0  0  0  0  0  0  0  0  0
  -11.6913    8.2500    0.0000 C   0  0  0  0  0  0  0  0  0  0  0  0
    1.2990    8.2500    0.0000 C   0  0  0  0  0  0  0  0  0  0  0  0
  -10.3923    9.0000    0.0000 C   0  0  0  0  0  0  0  0  0  0  0  0
   -9.0933    8.2500    0.0000 C   0  0  0  0  0  0  0  0  0  0  0  0
    0.0000    9.0000    0.0000 C   0  0  0  0  0  0  0  0  0  0  0  0
   -7.7942    9.0000    0.0000 C   0  0  0  0  0  0  0  0  0  0  0  0
   -1.2990    8.2500    0.0000 C   0  0  0  0  0  0  0  0  0  0  0  0
   -6.4952    8.2500    0.0000 C   0  0  0  0  0  0  0  0  0  0  0  0
   -2.5981    9.0000    0.0000 C   0  0  0  0  0  0  0  0  0  0  0  0
   -5.1962    9.0000    0.0000 C   0  0  0  0  0  0  0  0  0  0  0  0
   -5.1962   10.5000    0.0000 O   0  0  0  0  0  0  0  0  0  0  0  0
   -3.8971    8.2500    0.0000 O   0  0  0  0  0  0  0  0  0  0  0  0
  3  1  1  0
  4  2  1  0
  5  3  1  0
  6  4  1  0
  7  5  1  0
  8  6  1  0
  9  7  1  0
 10  9  1  0
 11  8  1  0
 12 10  1  0
 13 11  1  0
 14 12  1  0
 15 13  1  0
 16 14  1  0
 17 16  2  0
 18 15  1  0
 18 16  1  0
M  END
>  <NAME>  (3199) 
HEPTYL NONANOATE

>  <SYNONYMS>  (3199) 


>  <SPECTRUM TYPE>  (3199) 
MS1

>  <INSTRUMENT TYPE>  (3199) 
EI-B

>  <INSTRUMENT>  (3199) 
HITACHI M-80B

>  <ION MODE>  (3199) 
P

>  <INCHIKEY>  (3199) 
ARSLOAKOWGOSEX-UHFFFAOYSA-N

>  <FORMULA>  (3199) 
C16H32O2

>  <EXACT MASS>  (3199) 
256.240230264

>  <MW>  (3199) 
256

>  <ID>  (3199) 
JP007016

>  <CONTRIBUTOR>  (3199) 
University of Tokyo Team, {Faculty of Engineering, University of Tokyo

>  <COMMENT>  (3199) 
SMILES=CCCCCCCCC(=O)OCCCCCCC
InChI=InChI=1S/C16H32O2/c1-3-5-7-9-10-12-14-16(17)18-15-13-11-8-6-4-2/h3-15H2,1-2H3
computed SMILES=O=C(OCCCCCCC)CCCCCCCC
accession=JP007016
date=2016.01.19 (Created 2008.10.21, modified 2011.05.06)
author=SODA AROMATIC CO., LTD.
license=CC BY-NC-SA
exact mass=256.24023
ionization energy=70 eV
ion type=[M]+*
computed spectral entropy=3.2014810583250948
computed normalized entropy=0.8102464151400127
SPLASH=splash10-0a4l-9100000000-cc9f1c2e7e45adbb7aa9
submitter=submitter = University of Tokyo Team (Faculty of Engineering, University of Tokyo)
MoNA Rating=3.75

>  <NUM PEAKS>  (3199) 
52

>  <MASS SPECTRAL PEAKS>  (3199) 
27 14.94
29 31.96
31 1.23
39 8.88
41 60.61
42 19.57
43 68.83
44 1.53
45 1.68
53 2.62
54 4.62
55 47.02
56 52.95
57 99.99
58 4
59 1.46
60 14.78
61 35.41
67 3.88
68 10.44
69 31.83
70 47.97
71 21.9
72 1.12
73 18.03
74 1.55
81 3.64
82 1.49
83 10.95
84 5.27
85 1.61
87 4.2
89 2.66
96 1.98
97 5.5
98 72.64
99 5.13
101 3.14
103 1.93
112 2.8
115 6.36
116 1.75
127 1.31
129 4.87
139 1.11
141 32.45
142 2.36
143 1.76
145 2.59
158 6.15
159 67.19
160 5.19

>  <PREDICTED SPECTRUM>  (3199) 
15 1
17 4
18 16
25 18
26 84
27 342
28 191
29 532
30 100
31 121
32 4
35 12
36 42
37 46
38 71
39 345
40 159
41 808
42 493
43 999
44 199
45 145
46 18
50 6
51 26
52 33
53 174
54 263
55 842
56 779
57 895
58 201
59 88
60 466
61 627
62 82
65 60
66 56
67 275
68 351
69 699
70 778
71 663
72 201
73 553
74 144
75 134
76 52
77 42
78 4
79 109
80 69
81 242
82 335
83 608
84 612
85 392
86 130
87 295
88 128
89 187
90 17
91 85
93 103
94 54
95 176
96 222
97 462
98 525
99 343
100 81
101 225
102 131
103 106
104 5
109 68
110 103
111 287
112 293
113 130
114 108
115 258
116 250
117 265
120 7
121 56
123 20
124 34
125 160
126 141
127 145
129 278
130 70
131 46
137 24
138 71
139 111
140 193
141 245
142 92
143 184
144 99
145 106
146 27
153 43
154 1
155 94
156 34
157 105
158 95
159 279
160 79
165 15
166 18
167 34
168 39
169 146
170 24
171 43
172 26
173 131
174 56
183 9
185 52
186 50
187 213
188 60
199 39
200 10
213 54
256 98
257 32

$$$$

     RDKit          2D

 17 16  0  0  0  0  0  0  0  0999 V2000
    5.1962    8.2500    0.0000 C   0  0  0  0  0  0  0  0  0  0  0  0
  -14.2894    9.0000    0.0000 C   0  0  0  0  0  0  0  0  0  0  0  0
    3.8971    9.0000    0.0000 C   0  0  0  0  0  0  0  0  0  0  0  0
  -12.9904    8.2500    0.0000 C   0  0  0  0  0  0  0  0  0  0  0  0
    2.5981    8.2500    0.0000 C   0  0  0  0  0  0  0  0  0  0  0  0
  -11.6913    9.0000    0.0000 C   0  0  0  0  0  0  0  0  0  0  0  0
    1.2990    9.0000    0.0000 C   0  0  0  0  0  0  0  0  0  0  0  0
  -10.3923    8.2500    0.0000 C   0  0  0  0  0  0  0  0  0  0  0  0
    0.0000    8.2500    0.0000 C   0  0  0  0  0  0  0  0  0  0  0  0
   -1.2990    9.0000    0.0000 C   0  0  0  0  0  0  0  0  0  0  0  0
   -2.5981    8.2500    0.0000 C   0  0  0  0  0  0  0  0  0  0  0  0
   -9.0933    9.0000    0.0000 C   0  0  0  0  0  0  0  0  0  0  0  0
   -3.8971    9.0000    0.0000 C   0  0  0  0  0  0  0  0  0  0  0  0
   -7.7942    8.2500    0.0000 C   0  0  0  0  0  0  0  0  0  0  0  0
   -5.1962    8.2500    0.0000 C   0  0  0  0  0  0  0  0  0  0  0  0
   -5.1962    6.7500    0.0000 O   0  0  0  0  0  0  0  0  0  0  0  0
   -6.4952    9.0000    0.0000 O   0  0  0  0  0  0  0  0  0  0  0  0
  3  1  1  0
  4  2  1  0
  5  3  1  0
  6  4  1  0
  7  5  1  0
  8  6  1  0
  9  7  1  0
 10  9  1  0
 11 10  1  0
 12  8  1  0
 13 11  1  0
 14 12  1  0
 15 13  1  0
 16 15  2  0
 17 14  1  0
 17 15  1  0
M  END
>  <NAME>  (3200) 
HEXYL NONANOATE

>  <SYNONYMS>  (3200) 


>  <SPECTRUM TYPE>  (3200) 
MS1

>  <INSTRUMENT TYPE>  (3200) 
EI-B

>  <INSTRUMENT>  (3200) 
HITACHI M-80B

>  <ION MODE>  (3200) 
P

>  <INCHIKEY>  (3200) 
GPHBCFMWKGZPRP-UHFFFAOYSA-N

>  <FORMULA>  (3200) 
C15H30O2

>  <EXACT MASS>  (3200) 
242.2245802

>  <MW>  (3200) 
242

>  <ID>  (3200) 
JP007015

>  <CONTRIBUTOR>  (3200) 
University of Tokyo Team, {Faculty of Engineering, University of Tokyo

>  <COMMENT>  (3200) 
SMILES=CCCCCCCCC(=O)OCCCCCC
InChI=InChI=1S/C15H30O2/c1-3-5-7-9-10-11-13-15(16)17-14-12-8-6-4-2/h3-14H2,1-2H3
computed SMILES=O=C(OCCCCCC)CCCCCCCC
accession=JP007015
date=2016.01.19 (Created 2008.10.21, modified 2011.05.06)
author=SODA AROMATIC CO., LTD.
license=CC BY-NC-SA
exact mass=242.22458
ionization energy=70 eV
ion type=[M]+*
computed spectral entropy=3.1628385666445173
computed normalized entropy=0.7928932604703398
SPLASH=splash10-0a4l-9200000000-060881b784558ff6aba0
submitter=submitter = University of Tokyo Team (Faculty of Engineering, University of Tokyo)
MoNA Rating=3.75

>  <NUM PEAKS>  (3200) 
54

>  <MASS SPECTRAL PEAKS>  (3200) 
27 15.34
29 24.48
31 1.06
39 7.39
41 51.55
42 23.43
43 99.99
44 2.01
45 1.6
53 2.2
54 3.23
55 42.73
56 53
57 42.66
58 1.87
59 1.21
60 16.66
61 34.55
67 3.78
68 2.96
69 24.6
70 4.19
71 17.89
72 1.14
73 19.55
74 1.95
81 3.37
82 1.35
83 5.44
84 86.9
85 16.32
87 4.57
89 2.7
96 1.68
97 3.51
98 3.78
99 1.22
101 2.45
103 1.71
112 1.88
113 1.32
115 5.85
129 6.34
131 1.97
139 1.09
141 36.21
142 3.01
144 1.7
145 1.86
157 1.63
158 5.86
159 67.47
160 5.68
242 1

>  <PREDICTED SPECTRUM>  (3200) 
15 12
17 2
18 17
25 17
26 85
27 375
28 195
29 557
30 92
31 128
32 4
35 4
36 33
37 38
38 70
39 365
40 168
41 809
42 512
43 999
44 203
45 119
46 13
50 2
51 32
52 25
53 175
54 250
55 819
56 807
57 868
58 214
59 133
60 487
61 623
62 92
65 58
66 55
67 250
68 341
69 668
70 792
71 650
72 201
73 561
74 119
75 101
77 65
78 24
79 105
80 51
81 217
82 294
83 546
84 596
85 359
86 137
87 324
88 125
89 178
90 31
91 54
93 73
94 34
95 128
96 159
97 347
98 462
99 357
100 124
101 275
102 103
103 100
106 48
107 33
109 10
110 71
111 202
112 153
113 102
114 29
115 168
116 222
117 242
118 39
123 23
124 51
125 132
126 204
127 276
128 80
129 279
130 100
131 59
137 26
138 7
139 79
140 22
141 174
142 39
143 137
144 93
145 186
146 63
148 14
153 27
154 5
155 166
156 42
157 37
158 41
159 273
160 76
167 5
169 14
171 87
172 42
173 131
174 24
183 12
184 3
185 46
186 41
187 121
199 62
242 62
243 7

$$$$

     RDKit          2D

 16 15  0  0  0  0  0  0  0  0999 V2000
    4.2219    7.6875    0.0000 C   0  0  0  0  0  0  0  0  0  0  0  0
  -12.6656    8.4375    0.0000 C   0  0  0  0  0  0  0  0  0  0  0  0
  -11.3666    6.1875    0.0000 C   0  0  0  0  0  0  0  0  0  0  0  0
    2.9228    8.4375    0.0000 C   0  0  0  0  0  0  0  0  0  0  0  0
    1.6238    7.6875    0.0000 C   0  0  0  0  0  0  0  0  0  0  0  0
    0.3248    8.4375    0.0000 C   0  0  0  0  0  0  0  0  0  0  0  0
   -0.9743    7.6875    0.0000 C   0  0  0  0  0  0  0  0  0  0  0  0
   -2.2733    8.4375    0.0000 C   0  0  0  0  0  0  0  0  0  0  0  0
   -3.5724    7.6875    0.0000 C   0  0  0  0  0  0  0  0  0  0  0  0
   -4.8714    8.4375    0.0000 C   0  0  0  0  0  0  0  0  0  0  0  0
  -10.0675    8.4375    0.0000 C   0  0  0  0  0  0  0  0  0  0  0  0
   -8.7685    7.6875    0.0000 C   0  0  0  0  0  0  0  0  0  0  0  0
  -11.3666    7.6875    0.0000 C   0  0  0  0  0  0  0  0  0  0  0  0
   -6.1704    7.6875    0.0000 C   0  0  0  0  0  0  0  0  0  0  0  0
   -6.1704    6.1875    0.0000 O   0  0  0  0  0  0  0  0  0  0  0  0
   -7.4695    8.4375    0.0000 O   0  0  0  0  0  0  0  0  0  0  0  0
  4  1  1  0
  5  4  1  0
  6  5  1  0
  7  6  1  0
  8  7  1  0
  9  8  1  0
 10  9  1  0
 12 11  1  0
 13  2  1  0
 13  3  1  0
 13 11  1  0
 14 10  1  0
 15 14  2  0
 16 12  1  0
 16 14  1  0
M  END
>  <NAME>  (3201) 
ISOPENTYL NONANOATE

>  <SYNONYMS>  (3201) 


>  <SPECTRUM TYPE>  (3201) 
MS1

>  <INSTRUMENT TYPE>  (3201) 
EI-B

>  <INSTRUMENT>  (3201) 
HITACHI M-80B

>  <ION MODE>  (3201) 
P

>  <INCHIKEY>  (3201) 
SHGMLOSSRPFLKG-UHFFFAOYSA-N

>  <FORMULA>  (3201) 
C14H28O2

>  <EXACT MASS>  (3201) 
228.208930136

>  <MW>  (3201) 
228

>  <ID>  (3201) 
JP007014

>  <CONTRIBUTOR>  (3201) 
University of Tokyo Team, {Faculty of Engineering, University of Tokyo

>  <COMMENT>  (3201) 
SMILES=CCCCCCCCC(=O)OCCC(C)C
InChI=InChI=1S/C14H28O2/c1-4-5-6-7-8-9-10-14(15)16-12-11-13(2)3/h13H,4-12H2,1-3H3
computed SMILES=O=C(OCCC(C)C)CCCCCCCC
accession=JP007014
date=2016.01.19 (Created 2008.10.21, modified 2011.05.06)
author=SODA AROMATIC CO., LTD.
license=CC BY-NC-SA
exact mass=228.20893
ionization energy=70 eV
ion type=[M]+*
computed spectral entropy=2.558297702951999
computed normalized entropy=0.7254782048215179
SPLASH=splash10-00dl-9100000000-eb57ad7d23fb9c3af2c8
submitter=submitter = University of Tokyo Team (Faculty of Engineering, University of Tokyo)
MoNA Rating=3.75

>  <NUM PEAKS>  (3201) 
34

>  <MASS SPECTRAL PEAKS>  (3201) 
27 6.11
29 10.03
39 3.56
41 20.46
42 8
43 40.37
45 1.08
53 1.11
54 1.16
55 22.1
56 2.89
57 16.08
60 4.03
61 1.38
67 1.25
68 1.01
69 4.16
70 99.99
71 37.8
72 1.92
73 3.67
81 1.49
83 1.22
84 1.59
87 1.51
97 1.37
98 1.25
115 2.89
129 1.6
130 1.25
141 23.21
142 1.96
158 2.36
159 5.15

>  <PREDICTED SPECTRUM>  (3201) 
25 6
26 46
27 209
28 43
29 271
30 27
31 27
36 11
38 6
39 168
40 60
41 400
42 300
43 637
44 122
45 139
52 11
53 110
54 107
55 456
56 68
57 334
58 46
59 76
60 210
61 166
62 9
65 15
67 118
68 115
69 312
70 999
71 651
72 120
73 263
79 38
80 4
81 111
82 70
83 188
84 104
85 50
86 55
87 178
88 79
89 17
94 8
95 103
96 86
97 134
98 39
99 46
101 109
102 33
109 99
110 15
111 46
112 53
113 44
114 49
115 222
116 82
122 7
123 98
124 41
125 48
129 135
130 56
131 4
139 92
140 19
141 629
142 208
143 85
144 2
158 171
159 293
160 123
172 42
173 11
185 176
186 36
213 33
228 41
229 10

$$$$

     RDKit          2D

 16 15  0  0  0  0  0  0  0  0999 V2000
    4.5466    7.8750    0.0000 C   0  0  0  0  0  0  0  0  0  0  0  0
  -13.6399    7.8750    0.0000 C   0  0  0  0  0  0  0  0  0  0  0  0
    3.2476    8.6250    0.0000 C   0  0  0  0  0  0  0  0  0  0  0  0
  -12.3409    8.6250    0.0000 C   0  0  0  0  0  0  0  0  0  0  0  0
    1.9486    7.8750    0.0000 C   0  0  0  0  0  0  0  0  0  0  0  0
  -11.0418    7.8750    0.0000 C   0  0  0  0  0  0  0  0  0  0  0  0
    0.6495    8.6250    0.0000 C   0  0  0  0  0  0  0  0  0  0  0  0
   -0.6495    7.8750    0.0000 C   0  0  0  0  0  0  0  0  0  0  0  0
   -1.9486    8.6250    0.0000 C   0  0  0  0  0  0  0  0  0  0  0  0
   -3.2476    7.8750    0.0000 C   0  0  0  0  0  0  0  0  0  0  0  0
   -9.7428    8.6250    0.0000 C   0  0  0  0  0  0  0  0  0  0  0  0
   -4.5466    8.6250    0.0000 C   0  0  0  0  0  0  0  0  0  0  0  0
   -8.4437    7.8750    0.0000 C   0  0  0  0  0  0  0  0  0  0  0  0
   -5.8457    7.8750    0.0000 C   0  0  0  0  0  0  0  0  0  0  0  0
   -5.8457    6.3750    0.0000 O   0  0  0  0  0  0  0  0  0  0  0  0
   -7.1447    8.6250    0.0000 O   0  0  0  0  0  0  0  0  0  0  0  0
  3  1  1  0
  4  2  1  0
  5  3  1  0
  6  4  1  0
  7  5  1  0
  8  7  1  0
  9  8  1  0
 10  9  1  0
 11  6  1  0
 12 10  1  0
 13 11  1  0
 14 12  1  0
 15 14  2  0
 16 13  1  0
 16 14  1  0
M  END
>  <NAME>  (3202) 
PENTYL NONANOATE

>  <SYNONYMS>  (3202) 


>  <SPECTRUM TYPE>  (3202) 
MS1

>  <INSTRUMENT TYPE>  (3202) 
EI-B

>  <INSTRUMENT>  (3202) 
HITACHI M-80B

>  <ION MODE>  (3202) 
P

>  <INCHIKEY>  (3202) 
DZOQJRHASSOUOU-UHFFFAOYSA-N

>  <FORMULA>  (3202) 
C14H28O2

>  <EXACT MASS>  (3202) 
228.208930136

>  <MW>  (3202) 
228

>  <ID>  (3202) 
JP007013

>  <CONTRIBUTOR>  (3202) 
University of Tokyo Team, {Faculty of Engineering, University of Tokyo

>  <COMMENT>  (3202) 
SMILES=CCCCCCCCC(=O)OCCCCC
InChI=InChI=1S/C14H28O2/c1-3-5-7-8-9-10-12-14(15)16-13-11-6-4-2/h3-13H2,1-2H3
computed SMILES=O=C(OCCCCC)CCCCCCCC
accession=JP007013
date=2016.01.19 (Created 2008.10.21, modified 2011.05.06)
author=SODA AROMATIC CO., LTD.
license=CC BY-NC-SA
exact mass=228.20893
ionization energy=70 eV
ion type=[M]+*
computed spectral entropy=3.0949070917147377
computed normalized entropy=0.7952338121102949
SPLASH=splash10-0596-9200000000-3c2051d8b43616956b01
submitter=submitter = University of Tokyo Team (Faculty of Engineering, University of Tokyo)
MoNA Rating=3.75

>  <NUM PEAKS>  (3202) 
49

>  <MASS SPECTRAL PEAKS>  (3202) 
27 15.14
29 26.09
31 2.1
39 8.27
41 44.19
42 26
43 67.09
44 2.08
45 1.81
53 2.23
54 1.78
55 36.27
56 5.71
57 27.83
58 1.48
59 1.2
60 18.63
61 15.09
67 2.64
68 2.29
69 12.78
70 99.99
71 31.58
72 1.38
73 18.19
74 1.64
81 2.78
83 3.31
84 2.66
85 1.18
87 4.27
89 2.82
96 1.35
97 3.26
98 2.37
101 2.12
102 1.99
103 1.97
112 1.18
115 10.02
129 4.99
130 4.44
139 1.09
141 34.86
142 2.98
143 1.78
158 4.57
159 61.22
160 5.61

>  <PREDICTED SPECTRUM>  (3202) 
18 5
25 14
26 84
27 398
28 198
29 563
30 96
31 121
32 4
36 22
37 37
38 66
39 379
40 173
41 791
42 525
43 999
44 239
45 159
46 7
50 1
51 29
52 22
53 180
54 217
55 760
56 813
57 791
58 168
59 90
60 474
61 580
62 72
63 5
65 59
66 32
67 197
68 303
69 606
70 779
71 587
72 163
73 547
74 94
75 69
77 32
79 58
80 16
81 161
82 200
83 435
84 502
85 365
86 150
87 358
88 86
89 176
90 36
91 26
93 64
94 7
95 72
96 103
97 203
98 226
99 292
100 39
101 181
102 74
103 38
109 7
110 34
111 117
112 204
113 238
114 166
115 213
116 223
117 212
118 8
123 19
125 71
126 22
127 204
128 34
129 214
130 64
131 102
132 2
137 28
138 1
139 15
140 15
141 237
142 75
143 57
144 40
145 216
146 62
157 104
158 84
159 249
160 68
171 91
172 35
185 57
187 78
228 29

$$$$

     RDKit          2D

 15 14  0  0  0  0  0  0  0  0999 V2000
    3.8971    6.7500    0.0000 C   0  0  0  0  0  0  0  0  0  0  0  0
  -11.6913    6.7500    0.0000 C   0  0  0  0  0  0  0  0  0  0  0  0
  -10.3923    9.0000    0.0000 C   0  0  0  0  0  0  0  0  0  0  0  0
    2.5981    7.5000    0.0000 C   0  0  0  0  0  0  0  0  0  0  0  0
    1.2990    6.7500    0.0000 C   0  0  0  0  0  0  0  0  0  0  0  0
    0.0000    7.5000    0.0000 C   0  0  0  0  0  0  0  0  0  0  0  0
   -1.2990    6.7500    0.0000 C   0  0  0  0  0  0  0  0  0  0  0  0
   -2.5981    7.5000    0.0000 C   0  0  0  0  0  0  0  0  0  0  0  0
   -3.8971    6.7500    0.0000 C   0  0  0  0  0  0  0  0  0  0  0  0
   -5.1962    7.5000    0.0000 C   0  0  0  0  0  0  0  0  0  0  0  0
   -9.0933    6.7500    0.0000 C   0  0  0  0  0  0  0  0  0  0  0  0
  -10.3923    7.5000    0.0000 C   0  0  0  0  0  0  0  0  0  0  0  0
   -6.4952    6.7500    0.0000 C   0  0  0  0  0  0  0  0  0  0  0  0
   -6.4952    5.2500    0.0000 O   0  0  0  0  0  0  0  0  0  0  0  0
   -7.7942    7.5000    0.0000 O   0  0  0  0  0  0  0  0  0  0  0  0
  4  1  1  0
  5  4  1  0
  6  5  1  0
  7  6  1  0
  8  7  1  0
  9  8  1  0
 10  9  1  0
 12  2  1  0
 12  3  1  0
 12 11  1  0
 13 10  1  0
 14 13  2  0
 15 11  1  0
 15 13  1  0
M  END
>  <NAME>  (3203) 
ISOBUTYL NONANOATE

>  <SYNONYMS>  (3203) 


>  <SPECTRUM TYPE>  (3203) 
MS1

>  <INSTRUMENT TYPE>  (3203) 
EI-B

>  <INSTRUMENT>  (3203) 
HITACHI M-80B

>  <ION MODE>  (3203) 
P

>  <INCHIKEY>  (3203) 
NVVLMTNIHQHZPR-UHFFFAOYSA-N

>  <FORMULA>  (3203) 
C13H26O2

>  <EXACT MASS>  (3203) 
214.193280072

>  <MW>  (3203) 
214

>  <ID>  (3203) 
JP007012

>  <CONTRIBUTOR>  (3203) 
University of Tokyo Team, {Faculty of Engineering, University of Tokyo

>  <COMMENT>  (3203) 
SMILES=CCCCCCCCC(=O)OCC(C)C
InChI=InChI=1S/C13H26O2/c1-4-5-6-7-8-9-10-13(14)15-11-12(2)3/h12H,4-11H2,1-3H3
computed SMILES=O=C(OCC(C)C)CCCCCCCC
accession=JP007012
date=2016.01.19 (Created 2008.10.21, modified 2011.05.06)
author=SODA AROMATIC CO., LTD.
license=CC BY-NC-SA
exact mass=214.19328
ionization energy=70 eV
ion type=[M]+*
computed spectral entropy=2.9123981329690523
computed normalized entropy=0.7743268221270934
SPLASH=splash10-0a4l-9200000000-12fbf3c76127b2e85450
submitter=submitter = University of Tokyo Team (Faculty of Engineering, University of Tokyo)
MoNA Rating=3.75

>  <NUM PEAKS>  (3203) 
43

>  <MASS SPECTRAL PEAKS>  (3203) 
27 13.44
29 28.11
31 1.54
39 9.81
41 50.57
42 10.22
43 37.56
45 1.09
53 1.75
54 1.76
55 21.52
56 99.99
57 94.31
58 3.68
59 1.05
60 22.55
61 5.6
67 2.31
68 1.8
69 7.37
70 2.25
71 19.75
72 1.15
73 14.35
74 1.51
81 2.93
83 2.84
84 2.68
87 4.21
89 1.01
96 1.23
97 2.54
98 2.87
101 1.96
115 5.92
116 5.34
123 1.07
129 5.66
141 60.96
142 6.02
158 8.09
159 29.44
160 2.46

>  <PREDICTED SPECTRUM>  (3203) 
15 15
18 11
25 15
26 63
27 306
28 213
29 571
30 29
31 120
36 18
37 44
38 52
39 317
40 141
41 701
42 308
43 652
44 127
45 114
46 18
49 0
50 14
51 57
52 55
53 165
54 209
55 540
56 999
57 958
58 237
59 138
60 517
61 415
62 25
65 89
66 44
67 178
68 158
69 342
70 169
71 296
72 65
73 476
74 90
75 10
79 116
80 30
81 201
82 73
83 312
84 161
85 208
86 51
87 259
88 135
90 33
93 58
94 51
95 186
96 174
97 277
98 222
99 142
100 53
101 197
102 13
107 2
109 106
111 108
112 15
113 60
114 15
115 286
116 197
117 168
118 61
121 106
122 76
123 147
124 33
125 20
129 287
130 106
139 84
140 51
141 740
142 310
143 90
144 15
157 124
158 216
159 739
160 228
161 106
171 3
214 25

$$$$

     RDKit          2D

 15 14  0  0  0  0  0  0  0  0999 V2000
    4.5466    7.1250    0.0000 C   0  0  0  0  0  0  0  0  0  0  0  0
  -12.3409    7.8750    0.0000 C   0  0  0  0  0  0  0  0  0  0  0  0
    3.2476    7.8750    0.0000 C   0  0  0  0  0  0  0  0  0  0  0  0
  -11.0418    7.1250    0.0000 C   0  0  0  0  0  0  0  0  0  0  0  0
    1.9486    7.1250    0.0000 C   0  0  0  0  0  0  0  0  0  0  0  0
   -9.7428    7.8750    0.0000 C   0  0  0  0  0  0  0  0  0  0  0  0
    0.6495    7.8750    0.0000 C   0  0  0  0  0  0  0  0  0  0  0  0
   -0.6495    7.1250    0.0000 C   0  0  0  0  0  0  0  0  0  0  0  0
   -1.9486    7.8750    0.0000 C   0  0  0  0  0  0  0  0  0  0  0  0
   -3.2476    7.1250    0.0000 C   0  0  0  0  0  0  0  0  0  0  0  0
   -4.5466    7.8750    0.0000 C   0  0  0  0  0  0  0  0  0  0  0  0
   -8.4437    7.1250    0.0000 C   0  0  0  0  0  0  0  0  0  0  0  0
   -5.8457    7.1250    0.0000 C   0  0  0  0  0  0  0  0  0  0  0  0
   -5.8457    5.6250    0.0000 O   0  0  0  0  0  0  0  0  0  0  0  0
   -7.1447    7.8750    0.0000 O   0  0  0  0  0  0  0  0  0  0  0  0
  3  1  1  0
  4  2  1  0
  5  3  1  0
  6  4  1  0
  7  5  1  0
  8  7  1  0
  9  8  1  0
 10  9  1  0
 11 10  1  0
 12  6  1  0
 13 11  1  0
 14 13  2  0
 15 12  1  0
 15 13  1  0
M  END
>  <NAME>  (3204) 
BUTYL NONANOATE

>  <SYNONYMS>  (3204) 


>  <SPECTRUM TYPE>  (3204) 
MS1

>  <INSTRUMENT TYPE>  (3204) 
EI-B

>  <INSTRUMENT>  (3204) 
HITACHI M-80B

>  <ION MODE>  (3204) 
P

>  <INCHIKEY>  (3204) 
DOLFPCDDMUMIMR-UHFFFAOYSA-N

>  <FORMULA>  (3204) 
C13H26O2

>  <EXACT MASS>  (3204) 
214.193280072

>  <MW>  (3204) 
214

>  <ID>  (3204) 
JP007011

>  <CONTRIBUTOR>  (3204) 
University of Tokyo Team, {Faculty of Engineering, University of Tokyo

>  <COMMENT>  (3204) 
SMILES=CCCCCCCCC(=O)OCCCC
InChI=InChI=1S/C13H26O2/c1-3-5-7-8-9-10-11-13(14)15-12-6-4-2/h3-12H2,1-2H3
computed SMILES=O=C(OCCCC)CCCCCCCC
accession=JP007011
date=2016.01.19 (Created 2008.10.21, modified 2011.05.06)
author=SODA AROMATIC CO., LTD.
license=CC BY-NC-SA
exact mass=214.19328
ionization energy=70 eV
ion type=[M]+*
computed spectral entropy=3.0328999920090407
computed normalized entropy=0.8014661751685755
SPLASH=splash10-0a4l-9200000000-6e2ef76ad18f0e4054ab
submitter=submitter = University of Tokyo Team (Faculty of Engineering, University of Tokyo)
MoNA Rating=3.75

>  <NUM PEAKS>  (3204) 
44

>  <MASS SPECTRAL PEAKS>  (3204) 
27 14.43
29 30.6
31 1.38
39 8.81
41 47.72
42 8.81
43 29.81
45 1.53
53 1.86
54 1.68
55 23.74
56 99.99
57 52.42
58 2.18
60 27.12
61 11.74
67 2.18
68 1.84
69 8.94
70 2.28
71 15.52
72 1.03
73 22.01
74 2
81 2.61
83 3.53
84 3.17
87 4.12
89 2.12
96 1.43
97 3.1
98 2.24
101 4.57
103 1.67
112 1.02
115 5.94
116 6.33
117 1.5
129 8.54
141 37.65
142 3.3
158 3.48
159 50.07
160 4.47

>  <PREDICTED SPECTRUM>  (3204) 
25 1
26 38
27 244
28 179
29 513
30 34
31 104
36 13
37 20
38 24
39 271
40 118
41 642
42 286
43 462
44 100
45 134
46 35
48 0
49 17
50 21
51 75
52 58
53 168
54 218
55 561
56 999
57 752
58 153
59 146
60 568
61 467
62 31
65 107
66 61
67 192
68 151
69 366
70 172
71 278
72 53
73 490
74 121
75 48
77 2
78 9
79 107
80 25
81 222
82 72
83 360
84 231
85 238
86 79
87 238
88 120
90 40
93 126
94 93
95 177
96 174
97 327
98 214
99 141
100 57
101 211
102 53
103 14
109 104
111 97
113 13
114 26
115 337
116 217
117 253
118 48
121 178
122 177
123 175
124 25
129 400
130 138
139 117
140 91
141 657
142 273
143 106
157 159
158 199
159 742
160 186
161 39
171 74
214 93
215 32

$$$$

     RDKit          2D

 14 13  0  0  0  0  0  0  0  0999 V2000
    3.5724    6.5625    0.0000 C   0  0  0  0  0  0  0  0  0  0  0  0
  -10.7171    7.3125    0.0000 C   0  0  0  0  0  0  0  0  0  0  0  0
   -9.4180    5.0625    0.0000 C   0  0  0  0  0  0  0  0  0  0  0  0
    2.2733    7.3125    0.0000 C   0  0  0  0  0  0  0  0  0  0  0  0
    0.9743    6.5625    0.0000 C   0  0  0  0  0  0  0  0  0  0  0  0
   -0.3248    7.3125    0.0000 C   0  0  0  0  0  0  0  0  0  0  0  0
   -1.6238    6.5625    0.0000 C   0  0  0  0  0  0  0  0  0  0  0  0
   -2.9228    7.3125    0.0000 C   0  0  0  0  0  0  0  0  0  0  0  0
   -4.2219    6.5625    0.0000 C   0  0  0  0  0  0  0  0  0  0  0  0
   -5.5209    7.3125    0.0000 C   0  0  0  0  0  0  0  0  0  0  0  0
   -9.4180    6.5625    0.0000 C   0  0  0  0  0  0  0  0  0  0  0  0
   -6.8200    6.5625    0.0000 C   0  0  0  0  0  0  0  0  0  0  0  0
   -6.8200    5.0625    0.0000 O   0  0  0  0  0  0  0  0  0  0  0  0
   -8.1190    7.3125    0.0000 O   0  0  0  0  0  0  0  0  0  0  0  0
  4  1  1  0
  5  4  1  0
  6  5  1  0
  7  6  1  0
  8  7  1  0
  9  8  1  0
 10  9  1  0
 11  2  1  0
 11  3  1  0
 12 10  1  0
 13 12  2  0
 14 11  1  0
 14 12  1  0
M  END
>  <NAME>  (3205) 
ISOPROPYL NONANOATE

>  <SYNONYMS>  (3205) 


>  <SPECTRUM TYPE>  (3205) 
MS1

>  <INSTRUMENT TYPE>  (3205) 
EI-B

>  <INSTRUMENT>  (3205) 
HITACHI M-80B

>  <ION MODE>  (3205) 
P

>  <INCHIKEY>  (3205) 
DVFZGWDMFKTMFQ-UHFFFAOYSA-N

>  <FORMULA>  (3205) 
C12H24O2

>  <EXACT MASS>  (3205) 
200.177630008

>  <MW>  (3205) 
200

>  <ID>  (3205) 
JP007010

>  <CONTRIBUTOR>  (3205) 
University of Tokyo Team, {Faculty of Engineering, University of Tokyo

>  <COMMENT>  (3205) 
SMILES=CCCCCCCCC(=O)OC(C)C
InChI=InChI=1S/C12H24O2/c1-4-5-6-7-8-9-10-12(13)14-11(2)3/h11H,4-10H2,1-3H3
computed SMILES=O=C(OC(C)C)CCCCCCCC
accession=JP007010
date=2016.01.19 (Created 2008.10.21, modified 2011.05.06)
author=SODA AROMATIC CO., LTD.
license=CC BY-NC-SA
exact mass=200.17763
ionization energy=70 eV
ion type=[M]+*
computed spectral entropy=3.216540501848097
computed normalized entropy=0.8354330364943562
SPLASH=splash10-052f-9200000000-05bb49b0e2e228cd1e4f
submitter=submitter = University of Tokyo Team (Faculty of Engineering, University of Tokyo)
MoNA Rating=3.75

>  <NUM PEAKS>  (3205) 
47

>  <MASS SPECTRAL PEAKS>  (3205) 
15 1.06
27 21.95
29 21.05
31 1.12
39 11.87
41 52.22
42 18.58
43 99.99
44 2.8
45 4.58
53 1.87
54 2.07
55 25.02
56 9.09
57 41.34
58 1.7
59 23.44
60 62.17
61 11.45
67 2.59
68 2.41
69 11.54
70 4.35
71 17.5
73 24.31
74 2.54
81 3.07
83 4.95
84 4.62
87 6.86
89 1.58
96 1.82
97 4.64
98 10.06
99 2.02
101 2.74
102 37.07
103 3.32
112 1.26
115 10.7
129 9.02
139 1.5
141 37.17
142 3.17
158 19.01
159 28.32
160 2.31

>  <PREDICTED SPECTRUM>  (3205) 
14 16
15 73
26 70
27 343
28 185
29 370
30 14
31 118
36 2
37 30
38 59
39 308
40 146
41 680
42 416
43 982
44 155
45 237
46 92
48 7
49 16
50 32
51 62
52 33
53 233
54 174
55 680
56 392
57 742
58 181
59 589
60 999
61 693
62 36
64 15
65 93
66 61
67 254
68 175
69 504
70 168
71 491
72 68
73 886
74 267
77 64
78 10
79 65
80 26
81 234
82 173
83 450
84 228
85 225
86 118
87 299
88 50
89 10
91 42
93 85
94 48
95 219
96 189
97 322
98 178
99 261
101 263
102 783
103 179
104 31
109 142
111 189
112 37
113 20
114 54
115 451
116 167
117 23
121 103
122 23
123 121
124 31
125 73
129 399
130 208
138 66
139 110
140 77
141 760
142 264
143 97
157 153
158 572
159 602
160 216
161 58
200 83
201 13

$$$$

     RDKit          2D

 14 13  0  0  0  0  0  0  0  0999 V2000
    3.8971    6.7500    0.0000 C   0  0  0  0  0  0  0  0  0  0  0  0
  -11.6913    6.7500    0.0000 C   0  0  0  0  0  0  0  0  0  0  0  0
    2.5981    7.5000    0.0000 C   0  0  0  0  0  0  0  0  0  0  0  0
  -10.3923    7.5000    0.0000 C   0  0  0  0  0  0  0  0  0  0  0  0
    1.2990    6.7500    0.0000 C   0  0  0  0  0  0  0  0  0  0  0  0
    0.0000    7.5000    0.0000 C   0  0  0  0  0  0  0  0  0  0  0  0
   -1.2990    6.7500    0.0000 C   0  0  0  0  0  0  0  0  0  0  0  0
   -2.5981    7.5000    0.0000 C   0  0  0  0  0  0  0  0  0  0  0  0
   -3.8971    6.7500    0.0000 C   0  0  0  0  0  0  0  0  0  0  0  0
   -5.1962    7.5000    0.0000 C   0  0  0  0  0  0  0  0  0  0  0  0
   -9.0933    6.7500    0.0000 C   0  0  0  0  0  0  0  0  0  0  0  0
   -6.4952    6.7500    0.0000 C   0  0  0  0  0  0  0  0  0  0  0  0
   -6.4952    5.2500    0.0000 O   0  0  0  0  0  0  0  0  0  0  0  0
   -7.7942    7.5000    0.0000 O   0  0  0  0  0  0  0  0  0  0  0  0
  3  1  1  0
  4  2  1  0
  5  3  1  0
  6  5  1  0
  7  6  1  0
  8  7  1  0
  9  8  1  0
 10  9  1  0
 11  4  1  0
 12 10  1  0
 13 12  2  0
 14 11  1  0
 14 12  1  0
M  END
>  <NAME>  (3206) 
PROPYL NONANOATE

>  <SYNONYMS>  (3206) 


>  <SPECTRUM TYPE>  (3206) 
MS1

>  <INSTRUMENT TYPE>  (3206) 
EI-B

>  <INSTRUMENT>  (3206) 
HITACHI M-80B

>  <ION MODE>  (3206) 
P

>  <INCHIKEY>  (3206) 
HCMSDHYNNJTLRW-UHFFFAOYSA-N

>  <FORMULA>  (3206) 
C12H24O2

>  <EXACT MASS>  (3206) 
200.177630008

>  <MW>  (3206) 
200

>  <ID>  (3206) 
JP007009

>  <CONTRIBUTOR>  (3206) 
University of Tokyo Team, {Faculty of Engineering, University of Tokyo

>  <COMMENT>  (3206) 
SMILES=CCCCCCCCC(=O)OCCC
InChI=InChI=1S/C12H24O2/c1-3-5-6-7-8-9-10-12(13)14-11-4-2/h3-11H2,1-2H3
computed SMILES=O=C(OCCC)CCCCCCCC
accession=JP007009
date=2016.01.19 (Created 2008.10.21, modified 2011.05.06)
author=SODA AROMATIC CO., LTD.
license=CC BY-NC-SA
exact mass=200.17763
ionization energy=70 eV
ion type=[M]+*
computed spectral entropy=3.24294173618987
computed normalized entropy=0.7986669749499731
SPLASH=splash10-06r6-9300000000-fc5c25192961fe295d80
submitter=submitter = University of Tokyo Team (Faculty of Engineering, University of Tokyo)
MoNA Rating=3.75

>  <NUM PEAKS>  (3206) 
58

>  <MASS SPECTRAL PEAKS>  (3206) 
26 1.24
27 33.05
29 33.6
30 1.14
31 3.51
39 15.97
41 73.14
42 32.79
43 94.57
44 2.48
45 2.76
53 2.65
54 2.78
55 39.44
56 10.89
57 44.68
58 2.45
59 7.59
60 69.79
61 99.99
62 2.13
67 4.05
68 3.36
69 17.89
70 3.64
72 1.61
73 42.21
74 4.08
75 1.25
81 4.35
83 7.51
84 7.06
85 1.15
87 12.96
89 3.97
95 1.22
96 2.28
97 6.9
98 3.56
101 3.57
102 35.84
103 6.74
111 1.26
112 1.73
115 23.86
116 1.53
123 1.21
129 9.9
139 2.01
141 68.25
142 6.06
143 1.01
157 3.22
158 4.31
159 72.88
160 6.87
171 2.38
200 1.67

>  <PREDICTED SPECTRUM>  (3206) 
14 5
15 38
26 68
27 380
28 174
29 442
30 34
31 91
37 6
38 31
39 312
40 149
41 721
42 437
43 999
44 113
45 170
46 104
47 79
49 33
51 49
52 11
53 240
54 216
55 701
56 383
57 593
58 154
59 348
60 972
61 955
62 108
65 112
66 26
67 244
68 149
69 460
70 153
71 448
72 63
73 805
74 194
75 14
77 72
79 67
81 203
82 194
83 415
84 168
85 95
86 113
87 392
88 155
89 100
91 23
93 51
94 12
95 223
96 200
97 344
98 131
99 166
101 391
102 588
103 285
104 50
107 24
109 85
111 124
114 22
115 685
116 173
117 63
121 131
123 49
124 59
125 96
128 13
129 374
130 108
138 36
139 83
140 8
141 756
142 245
143 238
144 8
157 306
158 164
159 616
160 186
161 114
171 185
200 159
201 41

$$$$

     RDKit          2D

 14 13  0  0  0  0  0  0  0  0999 V2000
    3.8971    6.7500    0.0000 C   0  0  0  0  0  0  0  0  0  0  0  0
  -11.6913    6.7500    0.0000 C   0  0  0  0  0  0  0  0  0  0  0  0
    2.5981    7.5000    0.0000 C   0  0  0  0  0  0  0  0  0  0  0  0
  -10.3923    7.5000    0.0000 C   0  0  0  0  0  0  0  0  0  0  0  0
    1.2990    6.7500    0.0000 C   0  0  0  0  0  0  0  0  0  0  0  0
    0.0000    7.5000    0.0000 C   0  0  0  0  0  0  0  0  0  0  0  0
   -1.2990    6.7500    0.0000 C   0  0  0  0  0  0  0  0  0  0  0  0
   -2.5981    7.5000    0.0000 C   0  0  0  0  0  0  0  0  0  0  0  0
   -3.8971    6.7500    0.0000 C   0  0  0  0  0  0  0  0  0  0  0  0
   -5.1962    7.5000    0.0000 C   0  0  0  0  0  0  0  0  0  0  0  0
   -9.0933    6.7500    0.0000 C   0  0  0  0  0  0  0  0  0  0  0  0
   -6.4952    6.7500    0.0000 C   0  0  0  0  0  0  0  0  0  0  0  0
   -6.4952    5.2500    0.0000 O   0  0  0  0  0  0  0  0  0  0  0  0
   -7.7942    7.5000    0.0000 O   0  0  0  0  0  0  0  0  0  0  0  0
  3  1  1  0
  4  2  2  0
  5  3  1  0
  6  5  1  0
  7  6  1  0
  8  7  1  0
  9  8  1  0
 10  9  1  0
 11  4  1  0
 12 10  1  0
 13 12  2  0
 14 11  1  0
 14 12  1  0
M  END
>  <NAME>  (3207) 
ALLYL NONANOATE

>  <SYNONYMS>  (3207) 


>  <SPECTRUM TYPE>  (3207) 
MS1

>  <INSTRUMENT TYPE>  (3207) 
EI-B

>  <INSTRUMENT>  (3207) 
HITACHI M-80B

>  <ION MODE>  (3207) 
P

>  <INCHIKEY>  (3207) 
MFLWLDDOGSNSKO-UHFFFAOYSA-N

>  <FORMULA>  (3207) 
C12H22O2

>  <EXACT MASS>  (3207) 
198.161979944

>  <MW>  (3207) 
198

>  <ID>  (3207) 
JP007008

>  <CONTRIBUTOR>  (3207) 
University of Tokyo Team, {Faculty of Engineering, University of Tokyo

>  <COMMENT>  (3207) 
SMILES=CCCCCCCCC(=O)OCC=C
InChI=InChI=1S/C12H22O2/c1-3-5-6-7-8-9-10-12(13)14-11-4-2/h4H,2-3,5-11H2,1H3
computed SMILES=O=C(OCC=C)CCCCCCCC
computed spectral entropy=3.1432004502048327
computed normalized entropy=0.7994251891650999
accession=JP007008
date=2016.01.19 (Created 2008.10.21, modified 2011.05.06)
author=SODA AROMATIC CO., LTD.
license=CC BY-NC-SA
exact mass=198.16198
ionization energy=70 eV
ion type=[M]+*
SPLASH=splash10-052f-9200000000-7f15547ccc42a9cd0d8a
submitter=submitter = University of Tokyo Team (Faculty of Engineering, University of Tokyo)
MoNA Rating=3.75

>  <NUM PEAKS>  (3207) 
51

>  <MASS SPECTRAL PEAKS>  (3207) 
15 1.09
26 1.43
27 18.84
29 27.44
31 1.19
39 25.08
41 99.99
42 13.12
43 54.26
44 1.32
45 1.69
53 2.63
54 11.34
55 48.04
56 15.86
57 58.96
58 11.48
59 2.25
60 1.25
67 6.87
68 2.09
69 20.86
70 2.55
71 38.56
72 2.27
73 3.04
79 1.03
81 8.77
82 4.59
83 6.77
84 3.87
85 2.7
93 1.12
95 3.43
96 1.28
97 12.42
98 2.23
99 2.75
100 37.48
101 5.02
111 1.73
113 16.55
114 1.15
121 1.88
123 2.06
127 1.32
139 3.43
141 43.25
142 4.24
155 2.74
169 2.45

>  <PREDICTED SPECTRUM>  (3207) 
25 11
26 115
27 377
28 160
29 473
30 25
31 77
36 26
37 56
38 123
39 492
40 243
41 999
42 448
43 850
44 162
45 76
50 45
51 86
52 73
53 233
54 239
55 632
56 378
57 854
58 276
59 88
60 156
61 82
65 97
66 82
67 251
68 243
69 466
70 273
71 406
72 170
73 139
74 49
77 58
79 176
80 45
81 274
82 141
83 303
84 130
85 306
86 132
87 56
93 131
95 227
96 87
97 172
98 152
99 152
100 196
101 113
102 40
109 143
111 79
113 336
114 227
115 25
123 45
127 85
128 47
129 55
139 132
140 58
141 636
142 191
155 109
156 60
157 69
158 28
169 79

$$$$

     RDKit          2D

 12 11  0  0  0  0  0  0  0  0999 V2000
   -9.7428    5.6250    0.0000 C   0  0  0  0  0  0  0  0  0  0  0  0
    3.2476    5.6250    0.0000 C   0  0  0  0  0  0  0  0  0  0  0  0
   -8.4437    4.8750    0.0000 C   0  0  0  0  0  0  0  0  0  0  0  0
   -7.1447    5.6250    0.0000 C   0  0  0  0  0  0  0  0  0  0  0  0
   -5.8457    4.8750    0.0000 C   0  0  0  0  0  0  0  0  0  0  0  0
   -4.5466    5.6250    0.0000 C   0  0  0  0  0  0  0  0  0  0  0  0
   -3.2476    4.8750    0.0000 C   0  0  0  0  0  0  0  0  0  0  0  0
   -1.9486    5.6250    0.0000 C   0  0  0  0  0  0  0  0  0  0  0  0
   -0.6495    4.8750    0.0000 C   0  0  0  0  0  0  0  0  0  0  0  0
    0.6495    5.6250    0.0000 C   0  0  0  0  0  0  0  0  0  0  0  0
    0.6495    7.1250    0.0000 O   0  0  0  0  0  0  0  0  0  0  0  0
    1.9486    4.8750    0.0000 O   0  0  0  0  0  0  0  0  0  0  0  0
  3  1  1  0
  4  3  1  0
  5  4  1  0
  6  5  1  0
  7  6  1  0
  8  7  1  0
  9  8  1  0
 10  9  1  0
 11 10  2  0
 12  2  1  0
 12 10  1  0
M  END
>  <NAME>  (3208) 
METHYL NONANOATE

>  <SYNONYMS>  (3208) 


>  <SPECTRUM TYPE>  (3208) 
MS1

>  <INSTRUMENT TYPE>  (3208) 
EI-B

>  <INSTRUMENT>  (3208) 
HITACHI M-80B

>  <ION MODE>  (3208) 
P

>  <INCHIKEY>  (3208) 
IJXHLVMUNBOGRR-UHFFFAOYSA-N

>  <FORMULA>  (3208) 
C10H20O2

>  <EXACT MASS>  (3208) 
172.14632988

>  <MW>  (3208) 
172

>  <ID>  (3208) 
JP007006

>  <CONTRIBUTOR>  (3208) 
University of Tokyo Team, {Faculty of Engineering, University of Tokyo

>  <COMMENT>  (3208) 
SMILES=CCCCCCCCC(=O)OC
InChI=InChI=1S/C10H20O2/c1-3-4-5-6-7-8-9-10(11)12-2/h3-9H2,1-2H3
computed SMILES=O=C(OC)CCCCCCCC
accession=JP007006
date=2016.01.19 (Created 2008.10.21, modified 2011.05.06)
author=SODA AROMATIC CO., LTD.
license=CC BY-NC-SA
exact mass=172.14633
ionization energy=70 eV
ion type=[M]+*
computed spectral entropy=2.687331206183513
computed normalized entropy=0.7620693310920115
SPLASH=splash10-00di-9000000000-6b14d9620e385334bcce
submitter=submitter = University of Tokyo Team (Faculty of Engineering, University of Tokyo)
MoNA Rating=3.75

>  <NUM PEAKS>  (3208) 
34

>  <MASS SPECTRAL PEAKS>  (3208) 
15 3.58
27 8.8
29 11.05
39 6.53
41 21.62
42 5.37
43 21.57
45 1.36
53 1.53
54 1.12
55 16.39
56 3.23
57 7.89
59 11.46
67 1.16
68 1.1
69 6.88
70 1.2
71 3.03
73 1.71
74 99.99
75 8.93
83 2.3
84 2.5
87 44.69
88 3.96
97 1.49
98 1.38
101 3.69
115 1.28
129 7.35
141 8.9
143 5.73
172 1.4

>  <PREDICTED SPECTRUM>  (3208) 
14 13
15 96
16 4
17 17
18 42
26 37
27 267
28 157
29 299
30 22
31 54
32 48
33 24
38 31
39 278
40 129
41 607
42 363
43 606
44 146
45 144
50 4
51 61
52 28
53 180
54 208
55 675
56 379
57 435
58 99
59 410
60 153
61 106
62 9
65 23
66 7
67 192
68 149
69 425
70 210
71 206
72 57
73 258
74 999
75 394
76 113
77 70
79 93
80 49
81 231
82 150
83 343
84 152
85 112
86 28
87 741
88 180
89 94
94 14
95 104
96 208
97 324
98 225
99 186
100 16
101 181
102 146
111 88
112 78
113 52
115 250
116 85
123 79
129 378
130 110
131 10
140 103
141 320
142 98
143 196
144 47
157 27
172 138
173 29

$$$$

     RDKit          2D

 18 17  0  0  0  0  0  0  0  0999 V2000
    3.8971    6.7500    0.0000 C   0  0  0  0  0  0  0  0  0  0  0  0
   -7.6375    8.3886    0.0000 C   0  0  0  0  0  0  0  0  0  0  0  0
  -11.6913    6.7500    0.0000 C   0  0  0  0  0  0  0  0  0  0  0  0
  -10.3923    9.0000    0.0000 C   0  0  0  0  0  0  0  0  0  0  0  0
   -4.2320    8.6491    0.0000 C   0  0  0  0  0  0  0  0  0  0  0  0
    2.5981    7.5000    0.0000 C   0  0  0  0  0  0  0  0  0  0  0  0
   -6.1603    8.6491    0.0000 C   0  0  0  0  0  0  0  0  0  0  0  0
    1.2990    6.7500    0.0000 C   0  0  0  0  0  0  0  0  0  0  0  0
    0.0000    7.5000    0.0000 C   0  0  0  0  0  0  0  0  0  0  0  0
   -7.7942    7.5000    0.0000 C   0  0  0  0  0  0  0  0  0  0  0  0
   -9.0933    6.7500    0.0000 C   0  0  0  0  0  0  0  0  0  0  0  0
   -1.2990    6.7500    0.0000 C   0  0  0  0  0  0  0  0  0  0  0  0
   -6.4952    6.7500    0.0000 C   0  0  0  0  0  0  0  0  0  0  0  0
  -10.3923    7.5000    0.0000 C   0  0  0  0  0  0  0  0  0  0  0  0
   -2.5981    7.5000    0.0000 C   0  0  0  0  0  0  0  0  0  0  0  0
   -5.1962    7.5000    0.0000 C   0  0  0  0  0  0  0  0  0  0  0  0
   -2.5981    9.0000    0.0000 O   0  0  0  0  0  0  0  0  0  0  0  0
   -3.8971    6.7500    0.0000 O   0  0  0  0  0  0  0  0  0  0  0  0
  6  1  1  0
  7  2  2  0
  8  6  1  0
  9  8  1  0
 11 10  1  0
 12  9  1  0
 13 10  1  0
 14  3  1  0
 14  4  1  0
 14 11  2  0
 15 12  1  0
 16  5  1  0
 16  7  1  0
 16 13  1  0
 17 15  2  0
 18 15  1  0
 18 16  1  0
M  END
>  <NAME>  (3209) 
LINALYL HEXANOATE

>  <SYNONYMS>  (3209) 
3,7-DIMETHYL-1,6-OCTADIEN-3-YL HEXANOATE

>  <SPECTRUM TYPE>  (3209) 
MS1

>  <INSTRUMENT TYPE>  (3209) 
EI-B

>  <INSTRUMENT>  (3209) 
HITACHI M-80B

>  <ION MODE>  (3209) 
P

>  <INCHIKEY>  (3209) 
ALKCLFLTXBBMMP-UHFFFAOYSA-N

>  <FORMULA>  (3209) 
C16H28O2

>  <EXACT MASS>  (3209) 
252.208930136

>  <MW>  (3209) 
252

>  <ID>  (3209) 
JP007005

>  <CONTRIBUTOR>  (3209) 
University of Tokyo Team, {Faculty of Engineering, University of Tokyo

>  <COMMENT>  (3209) 
SMILES=CCCCCC(=O)OC(C)(C=C)CCC=C(C)C
InChI=InChI=1S/C16H28O2/c1-6-8-9-12-15(17)18-16(5,7-2)13-10-11-14(3)4/h7,11H,2,6,8-10,12-13H2,1,3-5H3
computed SMILES=O=C(OC(C=C)(C)CCC=C(C)C)CCCCC
accession=JP007005
date=2016.01.19 (Created 2008.10.21, modified 2011.05.06)
author=SODA AROMATIC CO., LTD.
license=CC BY-NC-SA
exact mass=252.20893
ionization energy=70 eV
ion type=[M]+*
computed spectral entropy=3.2750213568313087
computed normalized entropy=0.8415140232505707
SPLASH=splash10-0006-9000000000-ad70669a159f23693897
submitter=submitter = University of Tokyo Team (Faculty of Engineering, University of Tokyo)
MoNA Rating=3.75

>  <NUM PEAKS>  (3209) 
49

>  <MASS SPECTRAL PEAKS>  (3209) 
27 16.95
29 13.14
39 17.96
40 2.26
41 57.4
42 6.76
43 30.37
45 3.35
50 1.07
51 2.92
52 1.7
53 12.88
54 1.61
55 14.95
56 2.55
57 2.44
60 21.4
61 1.93
65 3.05
66 1.71
67 12.15
68 19.6
69 48.49
70 3.05
71 11.19
73 10.58
74 1.29
77 10.27
78 1.56
79 13.51
80 32.45
81 13.19
82 1.85
83 1.81
87 2.42
91 11.46
92 18.11
93 99.99
94 12.24
95 2.46
99 14.78
105 4.55
106 1.06
107 7.73
108 1.7
121 25.75
122 2.13
136 11.36
137 2.88

>  <PREDICTED SPECTRUM>  (3209) 
25 4
26 40
27 176
28 57
29 198
38 10
39 225
40 113
41 563
42 177
43 655
44 126
45 83
48 10
50 17
51 51
52 44
53 281
54 110
55 442
56 144
57 292
58 87
59 190
60 88
61 18
63 25
64 44
65 157
66 92
67 348
68 404
69 575
70 167
71 603
72 174
73 35
74 19
75 18
77 271
78 48
79 296
80 543
81 490
82 207
83 185
84 124
85 88
86 35
87 18
91 214
92 489
93 999
94 425
95 150
96 28
97 47
98 30
99 348
100 114
101 151
105 122
107 470
108 225
109 117
110 96
111 83
113 64
114 31
117 125
118 64
119 107
120 11
121 547
122 142
123 118
124 29
125 53
127 26
135 42
136 461
137 323
138 45
139 86
151 21
152 58
153 129
154 86
164 13
165 24
169 2
183 26
209 52
237 12

$$$$

     RDKit          2D

 20 19  0  0  0  0  0  0  0  0999 V2000
    5.8457   10.1250    0.0000 C   0  0  0  0  0  0  0  0  0  0  0  0
  -17.5370   10.1250    0.0000 C   0  0  0  0  0  0  0  0  0  0  0  0
    4.5466   10.8750    0.0000 C   0  0  0  0  0  0  0  0  0  0  0  0
  -16.2380   10.8750    0.0000 C   0  0  0  0  0  0  0  0  0  0  0  0
    3.2476   10.1250    0.0000 C   0  0  0  0  0  0  0  0  0  0  0  0
  -14.9389   10.1250    0.0000 C   0  0  0  0  0  0  0  0  0  0  0  0
    1.9486   10.8750    0.0000 C   0  0  0  0  0  0  0  0  0  0  0  0
  -13.6399   10.8750    0.0000 C   0  0  0  0  0  0  0  0  0  0  0  0
    0.6495   10.1250    0.0000 C   0  0  0  0  0  0  0  0  0  0  0  0
   -0.6495   10.8750    0.0000 C   0  0  0  0  0  0  0  0  0  0  0  0
   -1.9486   10.1250    0.0000 C   0  0  0  0  0  0  0  0  0  0  0  0
  -12.3409   10.1250    0.0000 C   0  0  0  0  0  0  0  0  0  0  0  0
   -3.2476   10.8750    0.0000 C   0  0  0  0  0  0  0  0  0  0  0  0
  -11.0418   10.8750    0.0000 C   0  0  0  0  0  0  0  0  0  0  0  0
   -4.5466   10.1250    0.0000 C   0  0  0  0  0  0  0  0  0  0  0  0
   -9.7428   10.1250    0.0000 C   0  0  0  0  0  0  0  0  0  0  0  0
   -5.8457   10.8750    0.0000 C   0  0  0  0  0  0  0  0  0  0  0  0
   -8.4437   10.8750    0.0000 C   0  0  0  0  0  0  0  0  0  0  0  0
   -8.4437   12.3750    0.0000 O   0  0  0  0  0  0  0  0  0  0  0  0
   -7.1447   10.1250    0.0000 O   0  0  0  0  0  0  0  0  0  0  0  0
  3  1  1  0
  4  2  1  0
  5  3  1  0
  6  4  1  0
  7  5  1  0
  8  6  1  0
  9  7  1  0
 10  9  1  0
 11 10  1  0
 12  8  1  0
 13 11  1  0
 14 12  1  0
 15 13  1  0
 16 14  1  0
 17 15  1  0
 18 16  1  0
 19 18  2  0
 20 17  1  0
 20 18  1  0
M  END
>  <NAME>  (3210) 
DECYL OCTANOATE

>  <SYNONYMS>  (3210) 


>  <SPECTRUM TYPE>  (3210) 
MS1

>  <INSTRUMENT TYPE>  (3210) 
EI-B

>  <INSTRUMENT>  (3210) 
HITACHI M-80B

>  <ION MODE>  (3210) 
P

>  <INCHIKEY>  (3210) 
WVWRBUIUZMBLNI-UHFFFAOYSA-N

>  <FORMULA>  (3210) 
C18H36O2

>  <EXACT MASS>  (3210) 
284.271530392

>  <MW>  (3210) 
284

>  <ID>  (3210) 
JP007004

>  <CONTRIBUTOR>  (3210) 
University of Tokyo Team, {Faculty of Engineering, University of Tokyo

>  <COMMENT>  (3210) 
SMILES=CCCCCCCCCCOC(=O)CCCCCCC
InChI=InChI=1S/C18H36O2/c1-3-5-7-9-10-11-13-15-17-20-18(19)16-14-12-8-6-4-2/h3-17H2,1-2H3
computed SMILES=O=C(OCCCCCCCCCC)CCCCCCC
accession=JP007004
date=2016.01.19 (Created 2008.10.21, modified 2011.05.06)
author=SODA AROMATIC CO., LTD.
license=CC BY-NC-SA
exact mass=284.27153
ionization energy=70 eV
ion type=[M]+*
computed spectral entropy=3.3836596815768685
computed normalized entropy=0.8333227859098865
SPLASH=splash10-052f-9200000000-1d3b38f495f09ffc8f6a
submitter=submitter = University of Tokyo Team (Faculty of Engineering, University of Tokyo)
MoNA Rating=3.75

>  <NUM PEAKS>  (3210) 
58

>  <MASS SPECTRAL PEAKS>  (3210) 
26 1.15
27 15.64
29 30.04
31 1.05
39 7.65
41 73.25
42 23.57
43 98.06
44 2.05
45 1.69
53 2.91
54 5.68
55 64.32
56 41.39
57 99.99
58 4.25
59 1.67
60 8.65
61 20.35
67 6.99
68 11.89
69 34.96
70 40.99
71 21.27
72 1.11
73 10.94
74 1.06
81 2.95
82 16.74
83 37.06
84 29.66
85 18.36
86 1.22
87 4.91
89 3.35
96 5.82
97 29.75
98 19.62
99 2.29
101 6.57
103 1.64
109 1.95
110 2.06
111 18.68
112 20.69
113 1.96
115 3.1
116 2.75
125 1.97
127 37.37
128 3.05
129 1.27
140 37.59
141 3.75
144 7.98
145 91.27
146 6.31
185 2.36

>  <PREDICTED SPECTRUM>  (3210) 
17 0
18 14
25 16
26 79
27 311
28 174
29 493
30 80
31 102
34 3
35 9
36 32
37 48
38 69
39 317
40 148
41 800
42 468
43 999
44 196
45 142
46 12
50 10
51 22
52 29
53 170
54 286
55 875
56 751
57 945
58 205
59 121
60 462
61 638
62 91
63 20
65 74
66 77
67 310
68 363
69 743
70 758
71 689
72 176
73 554
74 136
75 115
76 60
77 27
78 15
79 122
80 94
81 275
82 385
83 688
84 625
85 430
86 125
87 269
88 84
89 144
91 56
93 98
94 59
95 227
96 270
97 585
98 577
99 351
100 124
101 241
102 153
103 137
104 22
107 24
108 18
109 124
110 174
111 387
112 390
113 154
114 80
115 243
116 274
117 276
118 59
119 31
121 73
123 94
124 102
125 245
126 253
127 147
128 5
129 343
130 109
131 80
135 24
137 63
138 94
139 136
140 173
141 171
142 45
143 211
144 96
145 111
148 13
149 56
152 41
153 66
154 67
155 63
157 123
158 77
159 215
160 29
166 19
167 59
168 135
169 196
170 76
171 145
172 92
173 90
174 22
181 12
182 14
183 59
184 28
185 95
186 82
187 241
188 83
197 70
199 8
201 101
202 53
213 30
215 64
227 41
228 2
241 42
284 149
285 53

$$$$

     RDKit          2D

 18 17  0  0  0  0  0  0  0  0999 V2000
  -15.5885    9.0000    0.0000 C   0  0  0  0  0  0  0  0  0  0  0  0
    5.1962    9.0000    0.0000 C   0  0  0  0  0  0  0  0  0  0  0  0
  -14.2894    8.2500    0.0000 C   0  0  0  0  0  0  0  0  0  0  0  0
    3.8971    8.2500    0.0000 C   0  0  0  0  0  0  0  0  0  0  0  0
  -12.9904    9.0000    0.0000 C   0  0  0  0  0  0  0  0  0  0  0  0
    2.5981    9.0000    0.0000 C   0  0  0  0  0  0  0  0  0  0  0  0
  -11.6913    8.2500    0.0000 C   0  0  0  0  0  0  0  0  0  0  0  0
    1.2990    8.2500    0.0000 C   0  0  0  0  0  0  0  0  0  0  0  0
  -10.3923    9.0000    0.0000 C   0  0  0  0  0  0  0  0  0  0  0  0
    0.0000    9.0000    0.0000 C   0  0  0  0  0  0  0  0  0  0  0  0
   -9.0933    8.2500    0.0000 C   0  0  0  0  0  0  0  0  0  0  0  0
   -1.2990    8.2500    0.0000 C   0  0  0  0  0  0  0  0  0  0  0  0
   -7.7942    9.0000    0.0000 C   0  0  0  0  0  0  0  0  0  0  0  0
   -2.5981    9.0000    0.0000 C   0  0  0  0  0  0  0  0  0  0  0  0
   -6.4952    8.2500    0.0000 C   0  0  0  0  0  0  0  0  0  0  0  0
   -3.8971    8.2500    0.0000 C   0  0  0  0  0  0  0  0  0  0  0  0
   -3.8971    6.7500    0.0000 O   0  0  0  0  0  0  0  0  0  0  0  0
   -5.1962    9.0000    0.0000 O   0  0  0  0  0  0  0  0  0  0  0  0
  3  1  1  0
  4  2  1  0
  5  3  1  0
  6  4  1  0
  7  5  1  0
  8  6  1  0
  9  7  1  0
 10  8  1  0
 11  9  1  0
 12 10  1  0
 13 11  1  0
 14 12  1  0
 15 13  1  0
 16 14  1  0
 17 16  2  0
 18 15  1  0
 18 16  1  0
M  END
>  <NAME>  (3211) 
OCTYL OCTANOATE

>  <SYNONYMS>  (3211) 


>  <SPECTRUM TYPE>  (3211) 
MS1

>  <INSTRUMENT TYPE>  (3211) 
EI-B

>  <INSTRUMENT>  (3211) 
HITACHI M-80B

>  <ION MODE>  (3211) 
P

>  <INCHIKEY>  (3211) 
DJNTZVRUYMHBTD-UHFFFAOYSA-N

>  <FORMULA>  (3211) 
C16H32O2

>  <EXACT MASS>  (3211) 
256.240230264

>  <MW>  (3211) 
256

>  <ID>  (3211) 
JP007003

>  <CONTRIBUTOR>  (3211) 
University of Tokyo Team, {Faculty of Engineering, University of Tokyo

>  <COMMENT>  (3211) 
SMILES=CCCCCCCCOC(=O)CCCCCCC
InChI=InChI=1S/C16H32O2/c1-3-5-7-9-11-13-15-18-16(17)14-12-10-8-6-4-2/h3-15H2,1-2H3
computed SMILES=O=C(OCCCCCCCC)CCCCCCC
accession=JP007003
date=2016.01.19 (Created 2008.10.21, modified 2011.05.06)
author=SODA AROMATIC CO., LTD.
license=CC BY-NC-SA
exact mass=256.24023
ionization energy=70 eV
ion type=[M]+*
computed spectral entropy=3.2503971783575074
computed normalized entropy=0.8266890452375776
SPLASH=splash10-0a4l-9200000000-824d947af760517f1948
submitter=submitter = University of Tokyo Team (Faculty of Engineering, University of Tokyo)
MoNA Rating=3.75

>  <NUM PEAKS>  (3211) 
51

>  <MASS SPECTRAL PEAKS>  (3211) 
27 18.75
29 35.41
31 1.16
39 11.14
41 71.7
42 26.74
43 81.34
44 1.71
45 1.66
53 2.94
54 4.14
55 53.2
56 41.55
57 99.99
58 3.62
59 1.8
60 13.67
61 28.69
67 5.25
68 9.83
69 29.78
70 48.15
71 30.59
72 1.48
73 15.31
74 1.21
81 2.09
82 13.81
83 40.86
84 41.71
85 4.48
87 4.94
89 3.7
97 5.77
98 3.4
101 8.17
103 1.72
109 1.86
111 1.45
112 53.58
113 4.25
115 2.95
116 2.17
125 1.33
127 39.21
128 2.92
129 1.24
144 6.85
145 83.68
146 5.79
157 1.81

>  <PREDICTED SPECTRUM>  (3211) 
15 1
17 4
18 16
25 18
26 84
27 342
28 191
29 532
30 100
31 121
32 4
35 12
36 42
37 46
38 71
39 345
40 159
41 808
42 493
43 999
44 199
45 145
46 18
50 6
51 26
52 33
53 174
54 263
55 842
56 779
57 895
58 201
59 88
60 466
61 627
62 82
65 60
66 56
67 275
68 351
69 699
70 778
71 663
72 201
73 553
74 144
75 134
76 52
77 42
78 4
79 109
80 69
81 242
82 335
83 608
84 612
85 392
86 130
87 295
88 128
89 187
90 17
91 85
93 103
94 54
95 176
96 222
97 462
98 525
99 343
100 81
101 225
102 131
103 106
104 5
109 68
110 103
111 287
112 293
113 130
114 108
115 258
116 250
117 265
120 7
121 56
123 20
124 34
125 160
126 141
127 145
129 278
130 70
131 46
137 24
138 71
139 111
140 193
141 245
142 92
143 184
144 99
145 106
146 27
153 43
154 1
155 94
156 34
157 105
158 95
159 279
160 79
165 15
166 18
167 34
168 39
169 146
170 24
171 43
172 26
173 131
174 56
183 9
185 52
186 50
187 213
188 60
199 39
200 10
213 54
256 98
257 32

$$$$

     RDKit          2D

 17 16  0  0  0  0  0  0  0  0999 V2000
    5.1962    8.2500    0.0000 C   0  0  0  0  0  0  0  0  0  0  0  0
  -14.2894    9.0000    0.0000 C   0  0  0  0  0  0  0  0  0  0  0  0
    3.8971    9.0000    0.0000 C   0  0  0  0  0  0  0  0  0  0  0  0
  -12.9904    8.2500    0.0000 C   0  0  0  0  0  0  0  0  0  0  0  0
    2.5981    8.2500    0.0000 C   0  0  0  0  0  0  0  0  0  0  0  0
  -11.6913    9.0000    0.0000 C   0  0  0  0  0  0  0  0  0  0  0  0
    1.2990    9.0000    0.0000 C   0  0  0  0  0  0  0  0  0  0  0  0
  -10.3923    8.2500    0.0000 C   0  0  0  0  0  0  0  0  0  0  0  0
    0.0000    8.2500    0.0000 C   0  0  0  0  0  0  0  0  0  0  0  0
   -9.0933    9.0000    0.0000 C   0  0  0  0  0  0  0  0  0  0  0  0
   -1.2990    9.0000    0.0000 C   0  0  0  0  0  0  0  0  0  0  0  0
   -7.7942    8.2500    0.0000 C   0  0  0  0  0  0  0  0  0  0  0  0
   -2.5981    8.2500    0.0000 C   0  0  0  0  0  0  0  0  0  0  0  0
   -6.4952    9.0000    0.0000 C   0  0  0  0  0  0  0  0  0  0  0  0
   -3.8971    9.0000    0.0000 C   0  0  0  0  0  0  0  0  0  0  0  0
   -3.8971   10.5000    0.0000 O   0  0  0  0  0  0  0  0  0  0  0  0
   -5.1962    8.2500    0.0000 O   0  0  0  0  0  0  0  0  0  0  0  0
  3  1  1  0
  4  2  1  0
  5  3  1  0
  6  4  1  0
  7  5  1  0
  8  6  1  0
  9  7  1  0
 10  8  1  0
 11  9  1  0
 12 10  1  0
 13 11  1  0
 14 12  1  0
 15 13  1  0
 16 15  2  0
 17 14  1  0
 17 15  1  0
M  END
>  <NAME>  (3212) 
HEPTYL OCTANOATE

>  <SYNONYMS>  (3212) 


>  <SPECTRUM TYPE>  (3212) 
MS1

>  <INSTRUMENT TYPE>  (3212) 
EI-B

>  <INSTRUMENT>  (3212) 
HITACHI M-80B

>  <ION MODE>  (3212) 
P

>  <INCHIKEY>  (3212) 
TZXWLJYLYILFGM-UHFFFAOYSA-N

>  <FORMULA>  (3212) 
C15H30O2

>  <EXACT MASS>  (3212) 
242.2245802

>  <MW>  (3212) 
242

>  <ID>  (3212) 
JP007002

>  <CONTRIBUTOR>  (3212) 
University of Tokyo Team, {Faculty of Engineering, University of Tokyo

>  <COMMENT>  (3212) 
SMILES=CCCCCCCC(=O)OCCCCCCC
InChI=InChI=1S/C15H30O2/c1-3-5-7-9-11-13-15(16)17-14-12-10-8-6-4-2/h3-14H2,1-2H3
computed SMILES=O=C(OCCCCCCC)CCCCCCC
accession=JP007002
date=2016.01.19 (Created 2008.10.21, modified 2011.05.06)
author=SODA AROMATIC CO., LTD.
license=CC BY-NC-SA
exact mass=242.22458
ionization energy=70 eV
ion type=[M]+*
computed spectral entropy=3.0979182967023684
computed normalized entropy=0.813814806284359
SPLASH=splash10-0a4m-9100000000-af9e15cd18215dc28475
submitter=submitter = University of Tokyo Team (Faculty of Engineering, University of Tokyo)
MoNA Rating=3.75

>  <NUM PEAKS>  (3212) 
45

>  <MASS SPECTRAL PEAKS>  (3212) 
27 15.59
29 30.69
39 9.44
41 58.45
42 19.54
43 54.65
44 1.1
45 1.49
53 2.71
54 3.59
55 42.68
56 49.25
57 99.99
58 3.87
59 1.38
60 11.66
61 28.76
67 3.68
68 9.24
69 26.65
70 44.53
71 3.65
73 13.22
81 1.58
82 1.91
83 9.62
84 3.73
85 2.13
87 4.28
89 3.46
97 3.66
98 60.05
99 4.18
101 7.35
103 1.73
109 1.59
115 2.46
116 1.43
125 1.08
127 34.34
128 2.68
143 1.32
144 5.27
145 63.84
146 4.45

>  <PREDICTED SPECTRUM>  (3212) 
15 12
17 2
18 17
25 17
26 85
27 375
28 195
29 557
30 92
31 128
32 4
35 4
36 33
37 38
38 70
39 365
40 168
41 809
42 512
43 999
44 203
45 119
46 13
50 2
51 32
52 25
53 175
54 250
55 819
56 807
57 868
58 214
59 133
60 487
61 623
62 92
65 58
66 55
67 250
68 341
69 668
70 792
71 650
72 201
73 561
74 119
75 101
77 65
78 24
79 105
80 51
81 217
82 294
83 546
84 596
85 359
86 137
87 324
88 125
89 178
90 31
91 54
93 73
94 34
95 128
96 159
97 347
98 462
99 357
100 124
101 275
102 103
103 100
106 48
107 33
109 10
110 71
111 202
112 153
113 102
114 29
115 168
116 222
117 242
118 39
123 23
124 51
125 132
126 204
127 276
128 80
129 279
130 100
131 59
137 26
138 7
139 79
140 22
141 174
142 39
143 137
144 93
145 186
146 63
148 14
153 27
154 5
155 166
156 42
157 37
158 41
159 273
160 76
167 5
169 14
171 87
172 42
173 131
174 24
183 12
184 3
185 46
186 41
187 121
199 62
242 62
243 7

$$$$

     RDKit          2D

 17 17  0  0  0  0  0  0  0  0999 V2000
    2.6027    1.5000    0.0000 C   0  0  0  0  0  0  0  0  0  0  0  0
  -13.0048   -1.5900    0.0000 C   0  0  0  0  0  0  0  0  0  0  0  0
    1.3099    0.7393    0.0000 C   0  0  0  0  0  0  0  0  0  0  0  0
    0.0047    1.4786    0.0000 C   0  0  0  0  0  0  0  0  0  0  0  0
   -1.2881    0.7179    0.0000 C   0  0  0  0  0  0  0  0  0  0  0  0
   -2.5933    1.4571    0.0000 C   0  0  0  0  0  0  0  0  0  0  0  0
   -3.8861    0.6964    0.0000 C   0  0  0  0  0  0  0  0  0  0  0  0
   -5.1912    1.4357    0.0000 C   0  0  0  0  0  0  0  0  0  0  0  0
  -11.7020    0.6536    0.0000 C   0  0  0  0  0  0  0  0  0  0  0  0
  -10.4320   -1.5964    0.0000 C   0  0  0  0  0  0  0  0  0  0  0  0
  -10.4320    1.4036    0.0000 C   0  0  0  0  0  0  0  0  0  0  0  0
   -9.0820   -0.8464    0.0000 C   0  0  0  0  0  0  0  0  0  0  0  0
  -11.7020   -0.8464    0.0000 C   0  0  0  0  0  0  0  0  0  0  0  0
   -9.0820    0.6536    0.0000 C   0  0  0  0  0  0  0  0  0  0  0  0
   -6.4841    0.6750    0.0000 C   0  0  0  0  0  0  0  0  0  0  0  0
   -6.4717   -0.8249    0.0000 O   0  0  0  0  0  0  0  0  0  0  0  0
   -7.7892    1.4143    0.0000 O   0  0  0  0  0  0  0  0  0  0  0  0
  3  1  1  0
  4  3  1  0
  5  4  1  0
  6  5  1  0
  7  6  1  0
  8  7  1  0
 11  9  2  0
 12 10  1  0
 13  2  1  0
 13  9  1  0
 13 10  2  0
 14 11  1  0
 14 12  2  0
 15  8  1  0
 16 15  2  0
 17 14  1  0
 17 15  1  0
M  END
>  <NAME>  (3213) 
P-CRESYL OCTANOATE

>  <SYNONYMS>  (3213) 


>  <SPECTRUM TYPE>  (3213) 
MS1

>  <INSTRUMENT TYPE>  (3213) 
EI-B

>  <INSTRUMENT>  (3213) 
HITACHI M-80B

>  <ION MODE>  (3213) 
P

>  <INCHIKEY>  (3213) 
ALRYNTSLFYRKGF-UHFFFAOYSA-N

>  <FORMULA>  (3213) 
C15H22O2

>  <EXACT MASS>  (3213) 
234.161979944

>  <MW>  (3213) 
234

>  <ID>  (3213) 
JP007001

>  <CONTRIBUTOR>  (3213) 
University of Tokyo Team, {Faculty of Engineering, University of Tokyo

>  <COMMENT>  (3213) 
SMILES=CCCCCCCC(=O)Oc(c1)ccc(C)c1
InChI=InChI=1S/C15H22O2/c1-3-4-5-6-7-8-15(16)17-14-11-9-13(2)10-12-14/h9-12H,3-8H2,1-2H3
computed SMILES=O=C(OC1=CC=C(C=C1)C)CCCCCCC
accession=JP007001
date=2016.01.19 (Created 2008.10.21, modified 2011.05.06)
author=SODA AROMATIC CO., LTD.
license=CC BY-NC-SA
exact mass=234.16198
ionization energy=70 eV
ion type=[M]+*
computed spectral entropy=1.9919104625666737
computed normalized entropy=0.664916047455592
SPLASH=splash10-0a4i-5900000000-9a401aa2fda6f6734636
submitter=submitter = University of Tokyo Team (Faculty of Engineering, University of Tokyo)
MoNA Rating=3.75

>  <NUM PEAKS>  (3213) 
20

>  <MASS SPECTRAL PEAKS>  (3213) 
27 3.76
29 4.23
39 2.4
41 8.86
42 1.64
43 9.47
51 1.15
53 1.48
55 6.89
57 21.52
65 1.44
77 5.33
78 1.26
79 2.08
91 2.08
107 8.26
108 99.99
109 10.05
127 3.94
234 3.48

>  <PREDICTED SPECTRUM>  (3213) 
15 3
25 5
26 50
27 203
28 111
29 190
38 36
39 200
40 63
41 311
42 165
43 365
44 41
50 56
51 115
52 118
53 165
54 100
55 302
56 115
57 404
58 95
63 55
64 36
65 138
66 26
67 69
68 45
69 194
70 4
71 148
77 224
78 151
79 165
80 133
81 94
82 39
83 80
84 39
89 19
90 114
91 125
92 61
93 38
94 8
96 10
97 83
105 66
106 33
107 240
108 999
109 341
122 1
125 16
126 89
127 372
128 56
234 219
235 94

$$$$

     RDKit          2D

 17 17  0  0  0  0  0  0  0  0999 V2000
    5.5216    5.0079    0.0000 C   0  0  0  0  0  0  0  0  0  0  0  0
    4.2226    4.2579    0.0000 C   0  0  0  0  0  0  0  0  0  0  0  0
    2.9236    5.0079    0.0000 C   0  0  0  0  0  0  0  0  0  0  0  0
  -10.0668    6.5079    0.0000 C   0  0  0  0  0  0  0  0  0  0  0  0
    1.6245    4.2579    0.0000 C   0  0  0  0  0  0  0  0  0  0  0  0
  -10.0673    5.0071    0.0000 C   0  0  0  0  0  0  0  0  0  0  0  0
   -8.7673    7.2587    0.0000 C   0  0  0  0  0  0  0  0  0  0  0  0
   -4.8707    5.0079    0.0000 C   0  0  0  0  0  0  0  0  0  0  0  0
   -8.7683    4.2571    0.0000 C   0  0  0  0  0  0  0  0  0  0  0  0
   -7.4683    6.5087    0.0000 C   0  0  0  0  0  0  0  0  0  0  0  0
   -6.1697    4.2579    0.0000 C   0  0  0  0  0  0  0  0  0  0  0  0
    0.3255    5.0079    0.0000 C   0  0  0  0  0  0  0  0  0  0  0  0
   -3.5716    4.2579    0.0000 C   0  0  0  0  0  0  0  0  0  0  0  0
   -7.4687    5.0079    0.0000 C   0  0  0  0  0  0  0  0  0  0  0  0
   -0.9736    4.2579    0.0000 C   0  0  0  0  0  0  0  0  0  0  0  0
   -0.9736    2.7579    0.0000 O   0  0  0  0  0  0  0  0  0  0  0  0
   -2.2726    5.0079    0.0000 O   0  0  0  0  0  0  0  0  0  0  0  0
  2  1  1  0
  3  2  1  0
  5  3  1  0
  6  4  2  0
  7  4  1  0
  9  6  1  0
 10  7  2  0
 11  8  1  0
 12  5  1  0
 13  8  1  0
 14  9  2  0
 14 10  1  0
 14 11  1  0
 15 12  1  0
 16 15  2  0
 17 13  1  0
 17 15  1  0
M  END
>  <NAME>  (3214) 
3-PHENYLPROPYL HEXANOATE

>  <SYNONYMS>  (3214) 


>  <SPECTRUM TYPE>  (3214) 
MS1

>  <INSTRUMENT TYPE>  (3214) 
EI-B

>  <INSTRUMENT>  (3214) 
HITACHI M-80B

>  <ION MODE>  (3214) 
P

>  <INCHIKEY>  (3214) 
RSOGLEKUVSFLMO-UHFFFAOYSA-N

>  <FORMULA>  (3214) 
C15H22O2

>  <EXACT MASS>  (3214) 
234.161979944

>  <MW>  (3214) 
234

>  <ID>  (3214) 
JP007000

>  <CONTRIBUTOR>  (3214) 
University of Tokyo Team, {Faculty of Engineering, University of Tokyo

>  <COMMENT>  (3214) 
SMILES=CCCCCC(=O)OCCCc(c1)cccc1
InChI=InChI=1S/C15H22O2/c1-2-3-5-12-15(16)17-13-8-11-14-9-6-4-7-10-14/h4,6-7,9-10H,2-3,5,8,11-13H2,1H3
computed SMILES=O=C(OCCCC=1C=CC=CC1)CCCCC
accession=JP007000
date=2016.01.19 (Created 2008.10.21, modified 2011.05.06)
author=SODA AROMATIC CO., LTD.
license=CC BY-NC-SA
exact mass=234.16198
ionization energy=70 eV
ion type=[M]+*
computed spectral entropy=2.143563698150283
computed normalized entropy=0.6744894242133076
SPLASH=splash10-014i-4900000000-ffb492a7384f4211f837
submitter=submitter = University of Tokyo Team (Faculty of Engineering, University of Tokyo)
MoNA Rating=3.75

>  <NUM PEAKS>  (3214) 
24

>  <MASS SPECTRAL PEAKS>  (3214) 
27 3.67
29 3.65
39 3.38
41 8.35
42 1.57
43 12.21
51 1.55
55 2.24
65 4.15
71 3.99
77 2.82
78 1.89
79 1.39
91 29.12
92 2.85
99 3.76
103 1.88
104 1.24
105 1.67
115 1.57
116 1.85
117 40.99
118 99.99
119 11.04

>  <PREDICTED SPECTRUM>  (3214) 
26 48
27 173
28 85
29 201
31 26
36 24
38 31
39 212
40 86
41 305
42 193
43 458
44 117
45 55
50 77
51 130
52 61
53 81
54 55
55 191
56 86
57 136
58 28
59 29
60 62
61 36
62 12
63 83
64 47
65 180
66 58
67 23
69 79
70 135
71 159
73 72
74 41
76 33
77 164
78 165
79 156
80 5
81 4
82 23
83 52
87 25
89 58
90 58
91 529
92 235
93 31
99 88
101 24
102 71
103 159
104 133
105 171
106 50
107 63
115 190
116 193
117 675
118 999
119 402
120 79
146 6
147 39
148 25
149 32
163 18
178 41

$$$$

     RDKit          2D

 16 16  0  0  0  0  0  0  0  0999 V2000
    5.5216    4.2579    0.0000 C   0  0  0  0  0  0  0  0  0  0  0  0
    4.2226    5.0079    0.0000 C   0  0  0  0  0  0  0  0  0  0  0  0
    2.9236    4.2579    0.0000 C   0  0  0  0  0  0  0  0  0  0  0  0
   -8.7678    6.5079    0.0000 C   0  0  0  0  0  0  0  0  0  0  0  0
    1.6245    5.0079    0.0000 C   0  0  0  0  0  0  0  0  0  0  0  0
   -8.7683    5.0071    0.0000 C   0  0  0  0  0  0  0  0  0  0  0  0
   -7.4683    7.2587    0.0000 C   0  0  0  0  0  0  0  0  0  0  0  0
   -7.4692    4.2571    0.0000 C   0  0  0  0  0  0  0  0  0  0  0  0
   -6.1692    6.5087    0.0000 C   0  0  0  0  0  0  0  0  0  0  0  0
    0.3255    4.2579    0.0000 C   0  0  0  0  0  0  0  0  0  0  0  0
   -4.8707    4.2579    0.0000 C   0  0  0  0  0  0  0  0  0  0  0  0
   -3.5716    5.0079    0.0000 C   0  0  0  0  0  0  0  0  0  0  0  0
   -6.1697    5.0079    0.0000 C   0  0  0  0  0  0  0  0  0  0  0  0
   -0.9736    5.0079    0.0000 C   0  0  0  0  0  0  0  0  0  0  0  0
   -0.9736    6.5079    0.0000 O   0  0  0  0  0  0  0  0  0  0  0  0
   -2.2726    4.2579    0.0000 O   0  0  0  0  0  0  0  0  0  0  0  0
  2  1  1  0
  3  2  1  0
  5  3  1  0
  6  4  2  0
  7  4  1  0
  8  6  1  0
  9  7  2  0
 10  5  1  0
 12 11  1  0
 13  8  2  0
 13  9  1  0
 13 11  1  0
 14 10  1  0
 15 14  2  0
 16 12  1  0
 16 14  1  0
M  END
>  <NAME>  (3215) 
PHENYLETHYL HEXANOATE

>  <SYNONYMS>  (3215) 


>  <SPECTRUM TYPE>  (3215) 
MS1

>  <INSTRUMENT TYPE>  (3215) 
EI-B

>  <INSTRUMENT>  (3215) 
HITACHI M-80B

>  <ION MODE>  (3215) 
P

>  <INCHIKEY>  (3215) 
BUYNWUMUDHPPDS-UHFFFAOYSA-N

>  <FORMULA>  (3215) 
C14H20O2

>  <EXACT MASS>  (3215) 
220.14632988

>  <MW>  (3215) 
220

>  <ID>  (3215) 
JP006999

>  <CONTRIBUTOR>  (3215) 
University of Tokyo Team, {Faculty of Engineering, University of Tokyo

>  <COMMENT>  (3215) 
SMILES=CCCCCC(=O)OCCc(c1)cccc1
InChI=InChI=1S/C14H20O2/c1-2-3-5-10-14(15)16-12-11-13-8-6-4-7-9-13/h4,6-9H,2-3,5,10-12H2,1H3
computed SMILES=O=C(OCCC=1C=CC=CC1)CCCCC
accession=JP006999
date=2016.01.19 (Created 2008.10.21, modified 2011.05.06)
author=SODA AROMATIC CO., LTD.
license=CC BY-NC-SA
exact mass=220.14633
ionization energy=70 eV
ion type=[M]+*
computed spectral entropy=1.9082898709980554
computed normalized entropy=0.6480996497126543
SPLASH=splash10-0udi-4900000000-0841c992786af8b784b3
submitter=submitter = University of Tokyo Team (Faculty of Engineering, University of Tokyo)
MoNA Rating=3.75

>  <NUM PEAKS>  (3215) 
19

>  <MASS SPECTRAL PEAKS>  (3215) 
27 3.77
29 2.88
39 2.22
41 5.21
42 1.68
43 16.75
51 1.53
55 1.98
65 2.06
71 7.4
77 4.94
78 2.32
79 2.53
91 5.47
99 7.79
103 2.74
104 99.99
105 21.11
106 1.27

>  <PREDICTED SPECTRUM>  (3215) 
26 35
27 151
28 23
29 121
36 3
38 17
39 166
40 38
41 164
42 133
43 294
44 51
45 2
49 15
50 95
51 146
52 90
53 89
54 76
55 175
56 79
57 134
58 3
60 46
61 50
62 30
63 77
64 42
65 156
66 61
67 9
69 58
70 105
71 147
73 51
74 33
75 21
76 56
77 173
78 183
79 149
80 40
81 24
89 62
90 17
91 234
92 117
93 2
99 157
100 19
101 33
102 77
103 135
104 999
105 469
106 103
107 14
109 23

$$$$

     RDKit          2D

 14 14  0  0  0  0  0  0  0  0999 V2000
   10.0231    1.2915    0.0000 C   0  0  0  0  0  0  0  0  0  0  0  0
    8.7242    0.5412    0.0000 C   0  0  0  0  0  0  0  0  0  0  0  0
    7.4251    1.2910    0.0000 C   0  0  0  0  0  0  0  0  0  0  0  0
   -1.6700   -0.9600    0.0000 C   0  0  0  0  0  0  0  0  0  0  0  0
    6.1262    0.5408    0.0000 C   0  0  0  0  0  0  0  0  0  0  0  0
   -1.6700    0.5400    0.0000 C   0  0  0  0  0  0  0  0  0  0  0  0
   -0.3700   -1.7100    0.0000 C   0  0  0  0  0  0  0  0  0  0  0  0
   -0.3700    1.2900    0.0000 C   0  0  0  0  0  0  0  0  0  0  0  0
    0.9300   -0.9600    0.0000 C   0  0  0  0  0  0  0  0  0  0  0  0
    4.8270    1.2906    0.0000 C   0  0  0  0  0  0  0  0  0  0  0  0
    0.9300    0.5400    0.0000 C   0  0  0  0  0  0  0  0  0  0  0  0
    3.5281    0.5404    0.0000 C   0  0  0  0  0  0  0  0  0  0  0  0
    3.5283   -0.9596    0.0000 O   0  0  0  0  0  0  0  0  0  0  0  0
    2.2289    1.2902    0.0000 O   0  0  0  0  0  0  0  0  0  0  0  0
  2  1  1  0
  3  2  1  0
  5  3  1  0
  6  4  1  0
  7  4  1  0
  8  6  1  0
  9  7  1  0
 10  5  1  0
 11  8  1  0
 11  9  1  0
 12 10  1  0
 13 12  2  0
 14 11  1  0
 14 12  1  0
M  END
>  <NAME>  (3216) 
CYCLOHEXYL HEXANOATE

>  <SYNONYMS>  (3216) 


>  <SPECTRUM TYPE>  (3216) 
MS1

>  <INSTRUMENT TYPE>  (3216) 
EI-B

>  <INSTRUMENT>  (3216) 
HITACHI M-80B

>  <ION MODE>  (3216) 
P

>  <INCHIKEY>  (3216) 
DTNOERNOMHQUCN-UHFFFAOYSA-N

>  <FORMULA>  (3216) 
C12H22O2

>  <EXACT MASS>  (3216) 
198.161979944

>  <MW>  (3216) 
198

>  <ID>  (3216) 
JP006998

>  <CONTRIBUTOR>  (3216) 
University of Tokyo Team, {Faculty of Engineering, University of Tokyo

>  <COMMENT>  (3216) 
SMILES=CCCCCC(=O)OC(C1)CCCC1
InChI=InChI=1S/C12H22O2/c1-2-3-5-10-12(13)14-11-8-6-4-7-9-11/h11H,2-10H2,1H3
computed SMILES=O=C(OC1CCCCC1)CCCCC
accession=JP006998
date=2016.01.19 (Created 2008.10.21, modified 2011.05.06)
author=SODA AROMATIC CO., LTD.
license=CC BY-NC-SA
exact mass=198.16198
ionization energy=70 eV
ion type=[M]+*
computed spectral entropy=3.056676690830982
computed normalized entropy=0.7774191880205631
SPLASH=splash10-015c-9100000000-9c0bfb7312013832fbfb
submitter=submitter = University of Tokyo Team (Faculty of Engineering, University of Tokyo)
MoNA Rating=3.75

>  <NUM PEAKS>  (3216) 
51

>  <MASS SPECTRAL PEAKS>  (3216) 
26 1.14
27 20.82
29 24.83
39 18.75
41 55.46
42 15.22
43 63.4
44 2.81
45 1.81
51 1.51
53 5.23
54 22.91
55 58.62
56 10.26
57 4.89
58 1.81
59 1.52
60 18.82
61 4.26
65 1.24
66 1.21
67 60.95
68 3.25
69 4.1
70 3.22
71 39.21
72 2.19
73 6.6
75 1.1
77 1.26
79 2.12
80 1.29
81 10.92
82 97.77
83 43.15
84 2.72
87 3.97
89 2.23
97 1.02
98 1.39
99 70.29
100 3.76
114 2.09
115 1.12
116 17.56
117 99.99
118 5.21
124 1.14
127 1.37
142 1.25
155 1.19

>  <PREDICTED SPECTRUM>  (3216) 
15 6
25 34
26 183
27 522
28 220
29 570
30 15
31 130
36 35
37 68
38 89
39 556
40 216
41 955
42 450
43 875
44 206
45 161
47 41
50 97
51 150
52 98
53 307
54 478
55 898
56 373
57 730
58 227
59 222
60 455
61 343
62 93
63 41
64 8
65 127
66 110
67 809
68 150
69 273
70 195
71 591
72 136
73 392
74 108
75 42
77 78
78 11
79 177
80 146
81 494
82 999
83 807
84 87
85 76
86 93
87 114
95 33
96 3
97 34
98 129
99 790
100 337
101 235
102 97
113 13
114 105
115 9
116 405
117 931
118 293
119 127
130 35
131 100
155 20

$$$$

     RDKit          2D

 18 17  0  0  0  0  0  0  0  0999 V2000
    4.5466    7.8750    0.0000 C   0  0  0  0  0  0  0  0  0  0  0  0
  -13.6399    7.8750    0.0000 C   0  0  0  0  0  0  0  0  0  0  0  0
  -12.3409   10.1250    0.0000 C   0  0  0  0  0  0  0  0  0  0  0  0
   -7.1447   10.1250    0.0000 C   0  0  0  0  0  0  0  0  0  0  0  0
    3.2476    8.6250    0.0000 C   0  0  0  0  0  0  0  0  0  0  0  0
    1.9486    7.8750    0.0000 C   0  0  0  0  0  0  0  0  0  0  0  0
    0.6495    8.6250    0.0000 C   0  0  0  0  0  0  0  0  0  0  0  0
   -9.7428    8.6250    0.0000 C   0  0  0  0  0  0  0  0  0  0  0  0
  -11.0418    7.8750    0.0000 C   0  0  0  0  0  0  0  0  0  0  0  0
   -8.4437    7.8750    0.0000 C   0  0  0  0  0  0  0  0  0  0  0  0
   -0.6495    7.8750    0.0000 C   0  0  0  0  0  0  0  0  0  0  0  0
   -5.8457    7.8750    0.0000 C   0  0  0  0  0  0  0  0  0  0  0  0
   -4.5466    8.6250    0.0000 C   0  0  0  0  0  0  0  0  0  0  0  0
  -12.3409    8.6250    0.0000 C   0  0  0  0  0  0  0  0  0  0  0  0
   -7.1447    8.6250    0.0000 C   0  0  0  0  0  0  0  0  0  0  0  0
   -1.9486    8.6250    0.0000 C   0  0  0  0  0  0  0  0  0  0  0  0
   -1.9486   10.1250    0.0000 O   0  0  0  0  0  0  0  0  0  0  0  0
   -3.2476    7.8750    0.0000 O   0  0  0  0  0  0  0  0  0  0  0  0
  5  1  1  0
  6  5  1  0
  7  6  1  0
  9  8  1  0
 10  8  1  0
 11  7  1  0
 13 12  1  0
 14  2  1  0
 14  3  1  0
 14  9  2  0
 15  4  1  0
 15 10  1  0
 15 12  1  0
 16 11  1  0
 17 16  2  0
 18 13  1  0
 18 16  1  0
M  END
>  <NAME>  (3217) 
CITRONELLYL HEXANOATE

>  <SYNONYMS>  (3217) 
3,7-DIMETHYL-6-OCTEN-1-YL HEXANOATE

>  <SPECTRUM TYPE>  (3217) 
MS1

>  <INSTRUMENT TYPE>  (3217) 
EI-B

>  <INSTRUMENT>  (3217) 
HITACHI M-80B

>  <ION MODE>  (3217) 
P

>  <INCHIKEY>  (3217) 
KNYRCCKTQMBSFP-UHFFFAOYSA-N

>  <FORMULA>  (3217) 
C16H30O2

>  <EXACT MASS>  (3217) 
254.2245802

>  <MW>  (3217) 
254

>  <ID>  (3217) 
JP006997

>  <CONTRIBUTOR>  (3217) 
University of Tokyo Team, {Faculty of Engineering, University of Tokyo

>  <COMMENT>  (3217) 
SMILES=CCCCCC(=O)OCCC(C)CCC=C(C)C
InChI=InChI=1S/C16H30O2/c1-5-6-7-11-16(17)18-13-12-15(4)10-8-9-14(2)3/h9,15H,5-8,10-13H2,1-4H3
computed SMILES=O=C(OCCC(C)CCC=C(C)C)CCCCC
accession=JP006997
date=2016.01.19 (Created 2008.10.21, modified 2011.05.06)
author=SODA AROMATIC CO., LTD.
license=CC BY-NC-SA
exact mass=254.22458
ionization energy=70 eV
ion type=[M]+*
computed spectral entropy=3.1847203540531397
computed normalized entropy=0.8183112554295571
SPLASH=splash10-00lu-9100000000-5269369ec1134da096ec
submitter=submitter = University of Tokyo Team (Faculty of Engineering, University of Tokyo)
MoNA Rating=3.75

>  <NUM PEAKS>  (3217) 
49

>  <MASS SPECTRAL PEAKS>  (3217) 
27 14.41
29 21.48
31 1.01
39 12.01
41 87.13
42 13.43
43 55.91
44 1.04
45 1.28
53 10.03
54 3.18
55 46.44
56 11.75
57 15.54
60 3
65 1.36
66 1.08
67 41.29
68 31.38
69 94.95
70 11.95
71 22.93
72 1.24
73 1.82
77 1.46
79 2.75
80 9.06
81 99.99
82 75.88
83 20.14
84 1.33
87 1.08
93 1.41
94 6.57
95 84.19
96 21.14
97 3.37
99 28.42
100 1.54
109 31.27
110 8.95
111 1.47
117 3.09
121 1.14
123 73.65
124 7.74
137 2.58
138 39.17
139 4.73

>  <PREDICTED SPECTRUM>  (3217) 
26 41
27 265
28 64
29 361
30 55
31 84
38 20
39 333
40 136
41 743
42 261
43 500
44 61
45 7
50 21
51 113
52 19
53 244
54 117
55 637
56 305
57 476
58 65
59 49
60 87
63 6
65 148
66 93
67 600
68 441
69 871
70 269
71 211
73 49
74 5
77 179
78 37
79 226
80 250
81 999
82 747
83 435
84 69
85 85
87 64
91 90
93 137
94 248
95 960
96 505
97 86
98 43
99 357
100 84
101 182
103 33
107 61
108 19
109 543
110 242
111 66
112 21
117 67
121 65
122 32
123 931
124 294
127 40
137 69
138 590
139 165
169 28

$$$$

     RDKit          2D

 18 17  0  0  0  0  0  0  0  0999 V2000
    4.5466    7.8750    0.0000 C   0  0  0  0  0  0  0  0  0  0  0  0
  -13.6399    7.8750    0.0000 C   0  0  0  0  0  0  0  0  0  0  0  0
  -12.3409   10.1250    0.0000 C   0  0  0  0  0  0  0  0  0  0  0  0
   -7.1447   10.1250    0.0000 C   0  0  0  0  0  0  0  0  0  0  0  0
    3.2476    8.6250    0.0000 C   0  0  0  0  0  0  0  0  0  0  0  0
    1.9486    7.8750    0.0000 C   0  0  0  0  0  0  0  0  0  0  0  0
    0.6495    8.6250    0.0000 C   0  0  0  0  0  0  0  0  0  0  0  0
   -9.7428    8.6250    0.0000 C   0  0  0  0  0  0  0  0  0  0  0  0
  -11.0418    7.8750    0.0000 C   0  0  0  0  0  0  0  0  0  0  0  0
   -8.4437    7.8750    0.0000 C   0  0  0  0  0  0  0  0  0  0  0  0
   -0.6495    7.8750    0.0000 C   0  0  0  0  0  0  0  0  0  0  0  0
   -5.8457    7.8750    0.0000 C   0  0  0  0  0  0  0  0  0  0  0  0
   -4.5466    8.6250    0.0000 C   0  0  0  0  0  0  0  0  0  0  0  0
  -12.3409    8.6250    0.0000 C   0  0  0  0  0  0  0  0  0  0  0  0
   -7.1447    8.6250    0.0000 C   0  0  0  0  0  0  0  0  0  0  0  0
   -1.9486    8.6250    0.0000 C   0  0  0  0  0  0  0  0  0  0  0  0
   -1.9486   10.1250    0.0000 O   0  0  0  0  0  0  0  0  0  0  0  0
   -3.2476    7.8750    0.0000 O   0  0  0  0  0  0  0  0  0  0  0  0
  5  1  1  0
  6  5  1  0
  7  6  1  0
  9  8  1  0
 10  8  1  0
 11  7  1  0
 13 12  1  0
 14  2  1  0
 14  3  1  0
 14  9  2  0
 15  4  1  0
 15 10  1  0
 12 15  2  0
 16 11  1  0
 17 16  2  0
 18 13  1  0
 18 16  1  0
M  END
>  <NAME>  (3218) 
GERANYL HEXANOATE

>  <SYNONYMS>  (3218) 
3,7-DIMETHYL-2,6-OCTADIEN-1-YL HEXANOATE

>  <SPECTRUM TYPE>  (3218) 
MS1

>  <INSTRUMENT TYPE>  (3218) 
EI-B

>  <INSTRUMENT>  (3218) 
HITACHI M-80B

>  <ION MODE>  (3218) 
P

>  <INCHIKEY>  (3218) 
ARVSCQUZFFSNKF-NTCAYCPXSA-N

>  <FORMULA>  (3218) 
C16H28O2

>  <EXACT MASS>  (3218) 
252.208930136

>  <MW>  (3218) 
252

>  <ID>  (3218) 
JP006996

>  <CONTRIBUTOR>  (3218) 
University of Tokyo Team, {Faculty of Engineering, University of Tokyo

>  <COMMENT>  (3218) 
SMILES=CCCCCC(=O)OCC=C(C)CCC=C(C)C
InChI=InChI=1S/C16H28O2/c1-5-6-7-11-16(17)18-13-12-15(4)10-8-9-14(2)3/h9,12H,5-8,10-11,13H2,1-4H3/b15-12+
computed SMILES=O=C(OCC=C(C)CCC=C(C)C)CCCCC
accession=JP006996
date=2016.01.19 (Created 2008.10.21, modified 2011.05.06)
author=SODA AROMATIC CO., LTD.
license=CC BY-NC-SA
exact mass=252.20893
ionization energy=70 eV
ion type=[M]+*
computed spectral entropy=3.106505517634258
computed normalized entropy=0.7982140180373648
SPLASH=splash10-014l-9000000000-2a150d1afd565a86c8b9
submitter=submitter = University of Tokyo Team (Faculty of Engineering, University of Tokyo)
MoNA Rating=3.75

>  <NUM PEAKS>  (3218) 
49

>  <MASS SPECTRAL PEAKS>  (3218) 
27 12.69
29 8.06
39 16.32
41 66.55
42 4.25
43 29.58
51 2.63
52 1.4
53 11.97
54 1.31
55 9.67
56 1.46
57 1.27
60 1.79
65 3.29
66 1.68
67 16.55
68 51.59
69 99.99
70 4.67
71 15.96
77 6.96
78 1.56
79 10.22
80 21.62
81 10.62
82 3.08
83 1.32
84 1.27
85 1.19
91 6.77
92 13.48
93 68.08
94 10.35
95 3.68
99 23.43
100 1.49
105 2.89
107 5.64
108 1.95
109 1.41
119 1.09
121 21.19
122 1.86
123 3.77
136 13.89
137 2.18
138 1.27
154 1.26

>  <PREDICTED SPECTRUM>  (3218) 
25 2
26 45
27 223
28 91
29 231
31 36
37 8
38 32
39 261
40 139
41 673
42 232
43 474
44 113
45 74
49 2
50 45
51 82
52 83
53 277
54 90
55 317
56 111
57 163
58 46
59 88
60 127
62 10
63 48
64 49
65 159
66 82
67 348
68 663
69 999
70 268
71 258
72 102
73 23
77 201
78 73
79 171
80 530
81 405
82 50
83 46
84 88
85 75
86 20
91 197
92 411
93 873
94 341
95 122
96 1
97 78
98 33
99 461
100 123
101 121
105 149
106 11
107 371
108 177
117 57
119 13
121 554
122 148
123 173
125 25
135 9
136 392
137 204
151 17
153 45
154 122
183 90
209 29

$$$$

     RDKit          2D

 17 16  0  0  0  0  0  0  0  0999 V2000
    5.1962    8.2500    0.0000 C   0  0  0  0  0  0  0  0  0  0  0  0
  -14.2894    9.0000    0.0000 C   0  0  0  0  0  0  0  0  0  0  0  0
    3.8971    9.0000    0.0000 C   0  0  0  0  0  0  0  0  0  0  0  0
  -12.9904    8.2500    0.0000 C   0  0  0  0  0  0  0  0  0  0  0  0
    2.5981    8.2500    0.0000 C   0  0  0  0  0  0  0  0  0  0  0  0
  -11.6913    9.0000    0.0000 C   0  0  0  0  0  0  0  0  0  0  0  0
    1.2990    9.0000    0.0000 C   0  0  0  0  0  0  0  0  0  0  0  0
    0.0000    8.2500    0.0000 C   0  0  0  0  0  0  0  0  0  0  0  0
   -1.2990    9.0000    0.0000 C   0  0  0  0  0  0  0  0  0  0  0  0
   -2.5981    8.2500    0.0000 C   0  0  0  0  0  0  0  0  0  0  0  0
  -10.3923    8.2500    0.0000 C   0  0  0  0  0  0  0  0  0  0  0  0
   -3.8971    9.0000    0.0000 C   0  0  0  0  0  0  0  0  0  0  0  0
   -9.0933    9.0000    0.0000 C   0  0  0  0  0  0  0  0  0  0  0  0
   -5.1962    8.2500    0.0000 C   0  0  0  0  0  0  0  0  0  0  0  0
   -7.7942    8.2500    0.0000 C   0  0  0  0  0  0  0  0  0  0  0  0
   -7.7942    6.7500    0.0000 O   0  0  0  0  0  0  0  0  0  0  0  0
   -6.4952    9.0000    0.0000 O   0  0  0  0  0  0  0  0  0  0  0  0
  3  1  1  0
  4  2  1  0
  5  3  1  0
  6  4  1  0
  7  5  1  0
  8  7  1  0
  9  8  1  0
 10  9  1  0
 11  6  1  0
 12 10  1  0
 13 11  1  0
 14 12  1  0
 15 13  1  0
 16 15  2  0
 17 14  1  0
 17 15  1  0
M  END
>  <NAME>  (3219) 
NONYL HEXANOATE

>  <SYNONYMS>  (3219) 


>  <SPECTRUM TYPE>  (3219) 
MS1

>  <INSTRUMENT TYPE>  (3219) 
EI-B

>  <INSTRUMENT>  (3219) 
HITACHI M-80B

>  <ION MODE>  (3219) 
P

>  <INCHIKEY>  (3219) 
UQLYLJOCUOEHOM-UHFFFAOYSA-N

>  <FORMULA>  (3219) 
C15H30O2

>  <EXACT MASS>  (3219) 
242.2245802

>  <MW>  (3219) 
242

>  <ID>  (3219) 
JP006995

>  <CONTRIBUTOR>  (3219) 
University of Tokyo Team, {Faculty of Engineering, University of Tokyo

>  <COMMENT>  (3219) 
SMILES=CCCCCCCCCOC(=O)CCCCC
InChI=InChI=1S/C15H30O2/c1-3-5-7-8-9-10-12-14-17-15(16)13-11-6-4-2/h3-14H2,1-2H3
computed SMILES=O=C(OCCCCCCCCC)CCCCC
accession=JP006995
date=2016.01.19 (Created 2008.10.21, modified 2011.05.06)
author=SODA AROMATIC CO., LTD.
license=CC BY-NC-SA
exact mass=242.22458
ionization energy=70 eV
ion type=[M]+*
computed spectral entropy=3.213745238285797
computed normalized entropy=0.84925586431518
SPLASH=splash10-05tf-9100000000-96d56873cbb41ecbdf0a
submitter=submitter = University of Tokyo Team (Faculty of Engineering, University of Tokyo)
MoNA Rating=3.75

>  <NUM PEAKS>  (3219) 
44

>  <MASS SPECTRAL PEAKS>  (3219) 
27 16.61
29 29.79
31 1.09
39 9.29
41 55.61
42 20.64
43 99.99
44 2.13
45 1.8
53 2.77
54 4.19
55 46.77
56 39.53
57 27.44
58 1.43
60 9.08
61 13.35
67 3.6
68 9.01
69 29.58
70 36.12
71 42.9
72 1.83
73 9.63
81 1.69
82 10
83 22.15
84 26.11
85 10.97
87 5.15
89 2.11
96 3.07
97 24.99
98 22.49
99 50.08
100 2.59
101 1.21
115 1.04
116 7.5
117 83.95
118 4.18
126 29.93
127 2.83
171 1.45

>  <PREDICTED SPECTRUM>  (3219) 
15 12
17 2
18 17
25 17
26 85
27 375
28 195
29 557
30 92
31 128
32 4
35 4
36 33
37 38
38 70
39 365
40 168
41 809
42 512
43 999
44 203
45 119
46 13
50 2
51 32
52 25
53 175
54 250
55 819
56 807
57 868
58 214
59 133
60 487
61 623
62 92
65 58
66 55
67 250
68 341
69 668
70 792
71 650
72 201
73 561
74 119
75 101
77 65
78 24
79 105
80 51
81 217
82 294
83 546
84 596
85 359
86 137
87 324
88 125
89 178
90 31
91 54
93 73
94 34
95 128
96 159
97 347
98 462
99 357
100 124
101 275
102 103
103 100
106 48
107 33
109 10
110 71
111 202
112 153
113 102
114 29
115 168
116 222
117 242
118 39
123 23
124 51
125 132
126 204
127 276
128 80
129 279
130 100
131 59
137 26
138 7
139 79
140 22
141 174
142 39
143 137
144 93
145 186
146 63
148 14
153 27
154 5
155 166
156 42
157 37
158 41
159 273
160 76
167 5
169 14
171 87
172 42
173 131
174 24
183 12
184 3
185 46
186 41
187 121
199 62
242 62
243 7

$$$$

     RDKit          2D

 16 15  0  0  0  0  0  0  0  0999 V2000
    4.5466    7.8750    0.0000 C   0  0  0  0  0  0  0  0  0  0  0  0
  -13.6399    7.8750    0.0000 C   0  0  0  0  0  0  0  0  0  0  0  0
    3.2476    8.6250    0.0000 C   0  0  0  0  0  0  0  0  0  0  0  0
  -12.3409    8.6250    0.0000 C   0  0  0  0  0  0  0  0  0  0  0  0
    1.9486    7.8750    0.0000 C   0  0  0  0  0  0  0  0  0  0  0  0
  -11.0418    7.8750    0.0000 C   0  0  0  0  0  0  0  0  0  0  0  0
    0.6495    8.6250    0.0000 C   0  0  0  0  0  0  0  0  0  0  0  0
   -0.6495    7.8750    0.0000 C   0  0  0  0  0  0  0  0  0  0  0  0
   -1.9486    8.6250    0.0000 C   0  0  0  0  0  0  0  0  0  0  0  0
   -9.7428    8.6250    0.0000 C   0  0  0  0  0  0  0  0  0  0  0  0
   -3.2476    7.8750    0.0000 C   0  0  0  0  0  0  0  0  0  0  0  0
   -8.4437    7.8750    0.0000 C   0  0  0  0  0  0  0  0  0  0  0  0
   -4.5466    8.6250    0.0000 C   0  0  0  0  0  0  0  0  0  0  0  0
   -7.1447    8.6250    0.0000 C   0  0  0  0  0  0  0  0  0  0  0  0
   -7.1447   10.1250    0.0000 O   0  0  0  0  0  0  0  0  0  0  0  0
   -5.8457    7.8750    0.0000 O   0  0  0  0  0  0  0  0  0  0  0  0
  3  1  1  0
  4  2  1  0
  5  3  1  0
  6  4  1  0
  7  5  1  0
  8  7  1  0
  9  8  1  0
 10  6  1  0
 11  9  1  0
 12 10  1  0
 13 11  1  0
 14 12  1  0
 15 14  2  0
 16 13  1  0
 16 14  1  0
M  END
>  <NAME>  (3220) 
OCTYL HEXANOATE

>  <SYNONYMS>  (3220) 


>  <SPECTRUM TYPE>  (3220) 
MS1

>  <INSTRUMENT TYPE>  (3220) 
EI-B

>  <INSTRUMENT>  (3220) 
HITACHI M-80B

>  <ION MODE>  (3220) 
P

>  <INCHIKEY>  (3220) 
CMNMHJVRZHGAAK-UHFFFAOYSA-N

>  <FORMULA>  (3220) 
C14H28O2

>  <EXACT MASS>  (3220) 
228.208930136

>  <MW>  (3220) 
228

>  <ID>  (3220) 
JP006994

>  <CONTRIBUTOR>  (3220) 
University of Tokyo Team, {Faculty of Engineering, University of Tokyo

>  <COMMENT>  (3220) 
SMILES=CCCCCCCCOC(=O)CCCCC
InChI=InChI=1S/C14H28O2/c1-3-5-7-8-9-11-13-16-14(15)12-10-6-4-2/h3-13H2,1-2H3
computed SMILES=O=C(OCCCCCCCC)CCCCC
accession=JP006994
date=2016.01.19 (Created 2008.10.21, modified 2011.05.06)
author=SODA AROMATIC CO., LTD.
license=CC BY-NC-SA
exact mass=228.20893
ionization energy=70 eV
ion type=[M]+*
computed spectral entropy=3.161191514765198
computed normalized entropy=0.8304365105286582
SPLASH=splash10-05tf-9100000000-8ec46428809c0ee0e62c
submitter=submitter = University of Tokyo Team (Faculty of Engineering, University of Tokyo)
MoNA Rating=3.75

>  <NUM PEAKS>  (3220) 
45

>  <MASS SPECTRAL PEAKS>  (3220) 
27 20.47
29 36.59
31 1.38
39 11.75
41 63.84
42 25.76
43 99.99
44 2.16
45 2.11
53 2.95
54 3.36
55 42.86
56 40.64
57 40.54
58 1.77
60 11.87
61 18.26
67 3.15
68 9.81
69 31.33
70 49.75
71 49.84
72 2.13
73 11.89
74 1.21
75 1.13
81 1.39
82 10.01
83 34.37
84 35.69
85 2.04
87 7.63
89 2.38
97 4.05
98 1.49
99 57.65
100 2.71
101 1.3
112 39.01
113 3
115 1.13
116 7.47
117 88.02
118 4.47
157 1.76

>  <PREDICTED SPECTRUM>  (3220) 
18 5
25 14
26 84
27 398
28 198
29 563
30 96
31 121
32 4
36 22
37 37
38 66
39 379
40 173
41 791
42 525
43 999
44 239
45 159
46 7
50 1
51 29
52 22
53 180
54 217
55 760
56 813
57 791
58 168
59 90
60 474
61 580
62 72
63 5
65 59
66 32
67 197
68 303
69 606
70 779
71 587
72 163
73 547
74 94
75 69
77 32
79 58
80 16
81 161
82 200
83 435
84 502
85 365
86 150
87 358
88 86
89 176
90 36
91 26
93 64
94 7
95 72
96 103
97 203
98 226
99 292
100 39
101 181
102 74
103 38
109 7
110 34
111 117
112 204
113 238
114 166
115 213
116 223
117 212
118 8
123 19
125 71
126 22
127 204
128 34
129 214
130 64
131 102
132 2
137 28
138 1
139 15
140 15
141 237
142 75
143 57
144 40
145 216
146 62
157 104
158 84
159 249
160 68
171 91
172 35
185 57
187 78
228 29

$$$$

     RDKit          2D

 15 14  0  0  0  0  0  0  0  0999 V2000
    4.5466    7.1250    0.0000 C   0  0  0  0  0  0  0  0  0  0  0  0
  -12.3409    7.8750    0.0000 C   0  0  0  0  0  0  0  0  0  0  0  0
    3.2476    7.8750    0.0000 C   0  0  0  0  0  0  0  0  0  0  0  0
  -11.0418    7.1250    0.0000 C   0  0  0  0  0  0  0  0  0  0  0  0
    1.9486    7.1250    0.0000 C   0  0  0  0  0  0  0  0  0  0  0  0
   -9.7428    7.8750    0.0000 C   0  0  0  0  0  0  0  0  0  0  0  0
    0.6495    7.8750    0.0000 C   0  0  0  0  0  0  0  0  0  0  0  0
   -0.6495    7.1250    0.0000 C   0  0  0  0  0  0  0  0  0  0  0  0
   -8.4437    7.1250    0.0000 C   0  0  0  0  0  0  0  0  0  0  0  0
   -1.9486    7.8750    0.0000 C   0  0  0  0  0  0  0  0  0  0  0  0
   -7.1447    7.8750    0.0000 C   0  0  0  0  0  0  0  0  0  0  0  0
   -3.2476    7.1250    0.0000 C   0  0  0  0  0  0  0  0  0  0  0  0
   -5.8457    7.1250    0.0000 C   0  0  0  0  0  0  0  0  0  0  0  0
   -5.8457    5.6250    0.0000 O   0  0  0  0  0  0  0  0  0  0  0  0
   -4.5466    7.8750    0.0000 O   0  0  0  0  0  0  0  0  0  0  0  0
  3  1  1  0
  4  2  1  0
  5  3  1  0
  6  4  1  0
  7  5  1  0
  8  7  1  0
  9  6  1  0
 10  8  1  0
 11  9  1  0
 12 10  1  0
 13 11  1  0
 14 13  2  0
 15 12  1  0
 15 13  1  0
M  END
>  <NAME>  (3221) 
HEPTYL HEXANOATE

>  <SYNONYMS>  (3221) 


>  <SPECTRUM TYPE>  (3221) 
MS1

>  <INSTRUMENT TYPE>  (3221) 
EI-B

>  <INSTRUMENT>  (3221) 
HITACHI M-80B

>  <ION MODE>  (3221) 
P

>  <INCHIKEY>  (3221) 
QEKCBKVWQYEUGY-UHFFFAOYSA-N

>  <FORMULA>  (3221) 
C13H26O2

>  <EXACT MASS>  (3221) 
214.193280072

>  <MW>  (3221) 
214

>  <ID>  (3221) 
JP006993

>  <CONTRIBUTOR>  (3221) 
University of Tokyo Team, {Faculty of Engineering, University of Tokyo

>  <COMMENT>  (3221) 
SMILES=CCCCCCCOC(=O)CCCCC
InChI=InChI=1S/C13H26O2/c1-3-5-7-8-10-12-15-13(14)11-9-6-4-2/h3-12H2,1-2H3
computed SMILES=O=C(OCCCCCCC)CCCCC
accession=JP006993
date=2016.01.19 (Created 2008.10.21, modified 2011.05.06)
author=SODA AROMATIC CO., LTD.
license=CC BY-NC-SA
exact mass=214.19328
ionization energy=70 eV
ion type=[M]+*
computed spectral entropy=3.0653980518219672
computed normalized entropy=0.8052718254007653
SPLASH=splash10-0aov-9100000000-a3f7da3a3184f4cd0891
submitter=submitter = University of Tokyo Team (Faculty of Engineering, University of Tokyo)
MoNA Rating=3.75

>  <NUM PEAKS>  (3221) 
45

>  <MASS SPECTRAL PEAKS>  (3221) 
26 1.35
27 24.38
29 41.01
30 1.02
31 1.52
39 14.84
41 69.79
42 27.78
43 99.99
44 2.34
45 2.51
53 3.26
54 4.44
55 48.61
56 67.71
57 68.03
58 3.12
59 1.23
60 14.84
61 26.08
67 2.12
68 9.57
69 35.94
70 60.43
71 32.16
72 1.65
73 15.06
74 1.51
75 1.6
81 1.6
83 7.22
84 1.22
87 8.33
89 3.42
97 3.58
98 62.53
99 73.37
100 4.23
101 1.56
113 1.12
115 1.36
116 6.35
117 97.22
118 5.24
143 1.84

>  <PREDICTED SPECTRUM>  (3221) 
15 7
25 3
26 65
27 365
28 173
29 484
30 109
31 104
36 10
37 25
38 53
39 352
40 156
41 706
42 519
43 999
44 268
45 153
50 33
51 44
52 24
53 149
54 156
55 645
56 633
57 475
58 101
59 51
60 399
61 451
62 72
65 31
67 114
68 219
69 459
70 666
71 465
72 93
73 445
74 85
75 24
79 29
81 72
82 166
83 311
84 302
85 363
86 141
87 338
88 92
89 95
90 31
91 0
95 22
96 67
97 102
98 177
99 247
100 140
101 202
102 62
109 40
111 72
112 24
113 236
114 144
115 139
116 85
117 173
118 9
127 318
128 130
129 72
130 10
131 182
132 45
141 12
143 123
144 180
145 335
146 106
157 61
158 16
171 75

$$$$

     RDKit          2D

 14 13  0  0  0  0  0  0  0  0999 V2000
    3.8971    6.7500    0.0000 C   0  0  0  0  0  0  0  0  0  0  0  0
  -11.6913    6.7500    0.0000 C   0  0  0  0  0  0  0  0  0  0  0  0
    2.5981    7.5000    0.0000 C   0  0  0  0  0  0  0  0  0  0  0  0
  -10.3923    7.5000    0.0000 C   0  0  0  0  0  0  0  0  0  0  0  0
    1.2990    6.7500    0.0000 C   0  0  0  0  0  0  0  0  0  0  0  0
   -9.0933    6.7500    0.0000 C   0  0  0  0  0  0  0  0  0  0  0  0
    0.0000    7.5000    0.0000 C   0  0  0  0  0  0  0  0  0  0  0  0
   -7.7942    7.5000    0.0000 C   0  0  0  0  0  0  0  0  0  0  0  0
   -1.2990    6.7500    0.0000 C   0  0  0  0  0  0  0  0  0  0  0  0
   -6.4952    6.7500    0.0000 C   0  0  0  0  0  0  0  0  0  0  0  0
   -2.5981    7.5000    0.0000 C   0  0  0  0  0  0  0  0  0  0  0  0
   -5.1962    7.5000    0.0000 C   0  0  0  0  0  0  0  0  0  0  0  0
   -5.1962    9.0000    0.0000 O   0  0  0  0  0  0  0  0  0  0  0  0
   -3.8971    6.7500    0.0000 O   0  0  0  0  0  0  0  0  0  0  0  0
  3  1  1  0
  4  2  1  0
  5  3  1  0
  6  4  1  0
  7  5  1  0
  8  6  1  0
  9  7  1  0
 10  8  1  0
 11  9  1  0
 12 10  1  0
 13 12  2  0
 14 11  1  0
 14 12  1  0
M  END
>  <NAME>  (3222) 
HEXYL HEXANOATE

>  <SYNONYMS>  (3222) 


>  <SPECTRUM TYPE>  (3222) 
MS1

>  <INSTRUMENT TYPE>  (3222) 
EI-B

>  <INSTRUMENT>  (3222) 
HITACHI M-80B

>  <ION MODE>  (3222) 
P

>  <INCHIKEY>  (3222) 
NCDCLPBOMHPFCV-UHFFFAOYSA-N

>  <FORMULA>  (3222) 
C12H24O2

>  <EXACT MASS>  (3222) 
200.177630008

>  <MW>  (3222) 
200

>  <ID>  (3222) 
JP006992

>  <CONTRIBUTOR>  (3222) 
University of Tokyo Team, {Faculty of Engineering, University of Tokyo

>  <COMMENT>  (3222) 
SMILES=CCCCCCOC(=O)CCCCC
InChI=InChI=1S/C12H24O2/c1-3-5-7-9-11-14-12(13)10-8-6-4-2/h3-11H2,1-2H3
computed SMILES=O=C(OCCCCCC)CCCCC
accession=JP006992
date=2016.01.19 (Created 2008.10.21, modified 2011.05.06)
author=SODA AROMATIC CO., LTD.
license=CC BY-NC-SA
exact mass=200.17763
ionization energy=70 eV
ion type=[M]+*
computed spectral entropy=2.9460578851560184
computed normalized entropy=0.7986321921879276
SPLASH=splash10-0006-9100000000-33bceaef03295494e537
submitter=submitter = University of Tokyo Team (Faculty of Engineering, University of Tokyo)
MoNA Rating=3.75

>  <NUM PEAKS>  (3222) 
40

>  <MASS SPECTRAL PEAKS>  (3222) 
27 20.16
29 27.83
31 1.37
39 11.17
41 44.73
42 23.83
43 99.99
44 2.41
45 1.84
53 2.1
54 2.17
55 29.86
56 47.88
57 9.48
59 1.03
60 12.72
61 18.39
67 1.45
68 1.04
69 20.46
70 4.79
71 21.65
72 1.09
73 11.07
74 1.1
75 1.19
83 2.89
84 54.79
85 9.69
87 7.19
89 2.6
99 54.98
100 3
101 1.23
116 3.21
117 67.4
118 3.49
129 1.75
131 1.18
144 1.05

>  <PREDICTED SPECTRUM>  (3222) 
14 3
15 11
26 54
27 332
28 128
29 443
30 43
31 62
36 21
37 17
38 50
39 340
40 161
41 671
42 592
43 999
44 295
45 140
50 20
51 42
52 48
53 162
54 164
55 614
56 194
57 187
58 96
59 70
60 417
61 389
62 40
65 25
66 26
67 107
68 210
69 361
70 988
71 592
72 69
73 418
74 125
79 26
81 79
82 161
83 290
84 260
85 198
86 127
87 327
88 107
89 50
90 38
95 75
96 110
97 64
99 119
100 48
101 97
112 20
113 632
114 271
115 70
117 171
129 87
130 314
131 581
132 246
133 60
143 116
144 32
157 93
201 1

$$$$

     RDKit          2D

 13 12  0  0  0  0  0  0  0  0999 V2000
    3.2476    5.6250    0.0000 C   0  0  0  0  0  0  0  0  0  0  0  0
   -9.7428    5.6250    0.0000 C   0  0  0  0  0  0  0  0  0  0  0  0
   -8.4437    7.8750    0.0000 C   0  0  0  0  0  0  0  0  0  0  0  0
    1.9486    6.3750    0.0000 C   0  0  0  0  0  0  0  0  0  0  0  0
    0.6495    5.6250    0.0000 C   0  0  0  0  0  0  0  0  0  0  0  0
   -0.6495    6.3750    0.0000 C   0  0  0  0  0  0  0  0  0  0  0  0
   -1.9486    5.6250    0.0000 C   0  0  0  0  0  0  0  0  0  0  0  0
   -7.1447    5.6250    0.0000 C   0  0  0  0  0  0  0  0  0  0  0  0
   -5.8457    6.3750    0.0000 C   0  0  0  0  0  0  0  0  0  0  0  0
   -8.4437    6.3750    0.0000 C   0  0  0  0  0  0  0  0  0  0  0  0
   -3.2476    6.3750    0.0000 C   0  0  0  0  0  0  0  0  0  0  0  0
   -3.2476    7.8750    0.0000 O   0  0  0  0  0  0  0  0  0  0  0  0
   -4.5466    5.6250    0.0000 O   0  0  0  0  0  0  0  0  0  0  0  0
  4  1  1  0
  5  4  1  0
  6  5  1  0
  7  6  1  0
  9  8  1  0
 10  2  1  0
 10  3  1  0
 10  8  1  0
 11  7  1  0
 12 11  2  0
 13  9  1  0
 13 11  1  0
M  END
>  <NAME>  (3223) 
ISOPENTYL HEXANOATE

>  <SYNONYMS>  (3223) 


>  <SPECTRUM TYPE>  (3223) 
MS1

>  <INSTRUMENT TYPE>  (3223) 
EI-B

>  <INSTRUMENT>  (3223) 
HITACHI M-80B

>  <ION MODE>  (3223) 
P

>  <INCHIKEY>  (3223) 
XVSZRAWFCDHCBP-UHFFFAOYSA-N

>  <FORMULA>  (3223) 
C11H22O2

>  <EXACT MASS>  (3223) 
186.161979944

>  <MW>  (3223) 
186

>  <ID>  (3223) 
JP006991

>  <CONTRIBUTOR>  (3223) 
University of Tokyo Team, {Faculty of Engineering, University of Tokyo

>  <COMMENT>  (3223) 
SMILES=CCCCCC(=O)OCCC(C)C
InChI=InChI=1S/C11H22O2/c1-4-5-6-7-11(12)13-9-8-10(2)3/h10H,4-9H2,1-3H3
computed SMILES=O=C(OCCC(C)C)CCCCC
accession=JP006991
date=2016.01.19 (Created 2008.10.21, modified 2011.05.06)
author=SODA AROMATIC CO., LTD.
license=CC BY-NC-SA
exact mass=186.16198
ionization energy=70 eV
ion type=[M]+*
computed spectral entropy=2.447445542653675
computed normalized entropy=0.7511887735959829
SPLASH=splash10-00dl-9000000000-ce193357386508bde105
submitter=submitter = University of Tokyo Team (Faculty of Engineering, University of Tokyo)
MoNA Rating=3.75

>  <NUM PEAKS>  (3223) 
26

>  <MASS SPECTRAL PEAKS>  (3223) 
27 12.68
29 13.99
39 8.12
41 23.48
42 12.14
43 61.29
44 1.75
45 1.79
53 1.72
55 27.72
56 2.84
57 1.84
60 3.94
61 1.19
69 5.36
70 99.99
71 41.11
72 2.11
73 3.07
87 2.2
99 42.7
100 2.62
115 1.33
116 1.25
117 10.43
143 1.86

>  <PREDICTED SPECTRUM>  (3223) 
14 4
25 7
26 81
27 318
28 62
29 388
30 24
31 75
37 1
38 38
39 314
40 129
41 556
42 416
43 822
44 169
45 157
46 3
47 3
49 3
50 18
51 43
52 35
53 196
54 146
55 561
56 28
57 165
58 108
59 61
60 155
61 102
67 60
68 94
69 293
70 999
71 677
72 194
73 344
74 135
81 62
82 33
83 51
86 95
87 206
88 13
99 742
100 236
101 86
115 16
116 92
117 419
118 86
129 48
130 73
131 38
143 153

$$$$

     RDKit          2D

 13 12  0  0  0  0  0  0  0  0999 V2000
    3.8971    6.0000    0.0000 C   0  0  0  0  0  0  0  0  0  0  0  0
  -10.3923    6.7500    0.0000 C   0  0  0  0  0  0  0  0  0  0  0  0
    2.5981    6.7500    0.0000 C   0  0  0  0  0  0  0  0  0  0  0  0
   -9.0933    6.0000    0.0000 C   0  0  0  0  0  0  0  0  0  0  0  0
    1.2990    6.0000    0.0000 C   0  0  0  0  0  0  0  0  0  0  0  0
   -7.7942    6.7500    0.0000 C   0  0  0  0  0  0  0  0  0  0  0  0
    0.0000    6.7500    0.0000 C   0  0  0  0  0  0  0  0  0  0  0  0
   -6.4952    6.0000    0.0000 C   0  0  0  0  0  0  0  0  0  0  0  0
   -1.2990    6.0000    0.0000 C   0  0  0  0  0  0  0  0  0  0  0  0
   -5.1962    6.7500    0.0000 C   0  0  0  0  0  0  0  0  0  0  0  0
   -2.5981    6.7500    0.0000 C   0  0  0  0  0  0  0  0  0  0  0  0
   -2.5981    8.2500    0.0000 O   0  0  0  0  0  0  0  0  0  0  0  0
   -3.8971    6.0000    0.0000 O   0  0  0  0  0  0  0  0  0  0  0  0
  3  1  1  0
  4  2  1  0
  5  3  1  0
  6  4  1  0
  7  5  1  0
  8  6  1  0
  9  7  1  0
 10  8  1  0
 11  9  1  0
 12 11  2  0
 13 10  1  0
 13 11  1  0
M  END
>  <NAME>  (3224) 
PENTYL HEXANOATE

>  <SYNONYMS>  (3224) 


>  <SPECTRUM TYPE>  (3224) 
MS1

>  <INSTRUMENT TYPE>  (3224) 
EI-B

>  <INSTRUMENT>  (3224) 
HITACHI M-80B

>  <ION MODE>  (3224) 
P

>  <INCHIKEY>  (3224) 
WRFZKAGPPQGDDQ-UHFFFAOYSA-N

>  <FORMULA>  (3224) 
C11H22O2

>  <EXACT MASS>  (3224) 
186.161979944

>  <MW>  (3224) 
186

>  <ID>  (3224) 
JP006990

>  <CONTRIBUTOR>  (3224) 
University of Tokyo Team, {Faculty of Engineering, University of Tokyo

>  <COMMENT>  (3224) 
SMILES=CCCCCC(=O)OCCCCC
InChI=InChI=1S/C11H22O2/c1-3-5-7-9-11(12)13-10-8-6-4-2/h3-10H2,1-2H3
computed SMILES=O=C(OCCCCC)CCCCC
accession=JP006990
date=2016.01.19 (Created 2008.10.21, modified 2011.05.06)
author=SODA AROMATIC CO., LTD.
license=CC BY-NC-SA
exact mass=186.16198
ionization energy=70 eV
ion type=[M]+*
computed spectral entropy=2.843234815792665
computed normalized entropy=0.7760848841717698
SPLASH=splash10-006x-9100000000-b7ff3c25d7676b000ff7
submitter=submitter = University of Tokyo Team (Faculty of Engineering, University of Tokyo)
MoNA Rating=3.75

>  <NUM PEAKS>  (3224) 
39

>  <MASS SPECTRAL PEAKS>  (3224) 
26 1.25
27 24.52
29 33.64
31 1.69
39 13.86
41 47.87
42 34.77
43 99.99
44 3.15
45 2.33
53 2.14
54 1.28
55 34.29
56 6.26
57 4.52
60 19.07
61 12.8
69 11.58
70 98.25
71 39.9
72 1.76
73 15.71
74 1.75
75 1.61
83 1.05
85 1.94
87 9.14
89 3.36
97 1.18
99 70.71
100 5.05
101 1.07
102 1.29
103 1.27
115 2.38
116 3.44
117 75.64
118 4.86
130 2.72

>  <PREDICTED SPECTRUM>  (3224) 
14 2
25 10
26 95
27 382
28 105
29 475
30 109
31 92
36 0
37 17
38 52
39 343
40 153
41 609
42 570
43 868
44 228
45 152
46 6
49 14
50 44
51 52
52 37
53 203
54 186
55 582
57 135
58 144
59 57
60 326
61 230
66 24
67 66
68 158
69 312
70 999
71 619
72 201
73 459
74 157
81 83
82 113
83 76
86 61
87 259
88 82
89 30
90 99
99 779
100 289
101 94
115 39
116 178
117 686
118 244
119 65
129 65
130 80
143 43
186 17
187 4

$$$$

     RDKit          2D

 12 11  0  0  0  0  0  0  0  0999 V2000
    2.9228    5.4375    0.0000 C   0  0  0  0  0  0  0  0  0  0  0  0
   -8.7685    6.1875    0.0000 C   0  0  0  0  0  0  0  0  0  0  0  0
   -7.4695    3.9375    0.0000 C   0  0  0  0  0  0  0  0  0  0  0  0
    1.6238    6.1875    0.0000 C   0  0  0  0  0  0  0  0  0  0  0  0
    0.3248    5.4375    0.0000 C   0  0  0  0  0  0  0  0  0  0  0  0
   -0.9743    6.1875    0.0000 C   0  0  0  0  0  0  0  0  0  0  0  0
   -2.2733    5.4375    0.0000 C   0  0  0  0  0  0  0  0  0  0  0  0
   -6.1704    6.1875    0.0000 C   0  0  0  0  0  0  0  0  0  0  0  0
   -7.4695    5.4375    0.0000 C   0  0  0  0  0  0  0  0  0  0  0  0
   -3.5724    6.1875    0.0000 C   0  0  0  0  0  0  0  0  0  0  0  0
   -3.5724    7.6875    0.0000 O   0  0  0  0  0  0  0  0  0  0  0  0
   -4.8714    5.4375    0.0000 O   0  0  0  0  0  0  0  0  0  0  0  0
  4  1  1  0
  5  4  1  0
  6  5  1  0
  7  6  1  0
  9  2  1  0
  9  3  1  0
  9  8  1  0
 10  7  1  0
 11 10  2  0
 12  8  1  0
 12 10  1  0
M  END
>  <NAME>  (3225) 
ISOBUTYL HEXANOATE

>  <SYNONYMS>  (3225) 


>  <SPECTRUM TYPE>  (3225) 
MS1

>  <INSTRUMENT TYPE>  (3225) 
EI-B

>  <INSTRUMENT>  (3225) 
HITACHI M-80B

>  <ION MODE>  (3225) 
P

>  <INCHIKEY>  (3225) 
UXUPPWPIGVTVQI-UHFFFAOYSA-N

>  <FORMULA>  (3225) 
C10H20O2

>  <EXACT MASS>  (3225) 
172.14632988

>  <MW>  (3225) 
172

>  <ID>  (3225) 
JP006989

>  <CONTRIBUTOR>  (3225) 
University of Tokyo Team, {Faculty of Engineering, University of Tokyo

>  <COMMENT>  (3225) 
SMILES=CCCCCC(=O)OCC(C)C
InChI=InChI=1S/C10H20O2/c1-4-5-6-7-10(11)12-8-9(2)3/h9H,4-8H2,1-3H3
computed SMILES=O=C(OCC(C)C)CCCCC
accession=JP006989
date=2016.01.19 (Created 2008.10.21, modified 2011.05.06)
author=SODA AROMATIC CO., LTD.
license=CC BY-NC-SA
exact mass=172.14633
ionization energy=70 eV
ion type=[M]+*
computed spectral entropy=2.7251826508703116
computed normalized entropy=0.7863214991854476
SPLASH=splash10-0a4m-9000000000-2cad1057395421f637d5
submitter=submitter = University of Tokyo Team (Faculty of Engineering, University of Tokyo)
MoNA Rating=3.75

>  <NUM PEAKS>  (3225) 
32

>  <MASS SPECTRAL PEAKS>  (3225) 
27 18.77
29 27.55
31 1.78
39 13.41
41 43.28
42 11.7
43 55.31
44 1.32
45 1.46
53 1.74
55 12.62
56 76.41
57 47.17
58 1.89
60 18.43
61 2.95
69 2.9
70 4.49
71 27.22
72 1.36
73 11.98
74 1.4
86 1.09
87 6.02
89 1.06
99 99.99
100 7.34
116 6.92
117 29.24
118 1.73
129 1.61
142 1.09

>  <PREDICTED SPECTRUM>  (3225) 
14 12
15 18
25 15
26 125
27 449
28 198
29 688
30 112
31 190
36 11
37 57
38 98
39 456
40 235
41 817
42 502
43 825
44 173
45 91
50 26
51 72
52 85
53 183
54 224
55 559
56 860
57 999
58 303
59 94
60 395
61 184
67 64
68 107
69 156
70 446
71 598
72 154
73 466
74 114
79 43
81 162
83 155
85 26
86 68
87 300
88 69
90 21
96 89
97 105
98 143
99 950
100 366
101 217
115 41
116 418
117 678
118 206
119 10
129 90
143 4

$$$$

     RDKit          2D

 12 11  0  0  0  0  0  0  0  0999 V2000
    3.2476    5.6250    0.0000 C   0  0  0  0  0  0  0  0  0  0  0  0
   -9.7428    5.6250    0.0000 C   0  0  0  0  0  0  0  0  0  0  0  0
    1.9486    6.3750    0.0000 C   0  0  0  0  0  0  0  0  0  0  0  0
   -8.4437    6.3750    0.0000 C   0  0  0  0  0  0  0  0  0  0  0  0
    0.6495    5.6250    0.0000 C   0  0  0  0  0  0  0  0  0  0  0  0
   -7.1447    5.6250    0.0000 C   0  0  0  0  0  0  0  0  0  0  0  0
   -0.6495    6.3750    0.0000 C   0  0  0  0  0  0  0  0  0  0  0  0
   -1.9486    5.6250    0.0000 C   0  0  0  0  0  0  0  0  0  0  0  0
   -5.8457    6.3750    0.0000 C   0  0  0  0  0  0  0  0  0  0  0  0
   -3.2476    6.3750    0.0000 C   0  0  0  0  0  0  0  0  0  0  0  0
   -3.2476    7.8750    0.0000 O   0  0  0  0  0  0  0  0  0  0  0  0
   -4.5466    5.6250    0.0000 O   0  0  0  0  0  0  0  0  0  0  0  0
  3  1  1  0
  4  2  1  0
  5  3  1  0
  6  4  1  0
  7  5  1  0
  8  7  1  0
  9  6  1  0
 10  8  1  0
 11 10  2  0
 12  9  1  0
 12 10  1  0
M  END
>  <NAME>  (3226) 
BUTYL HEXANOATE

>  <SYNONYMS>  (3226) 


>  <SPECTRUM TYPE>  (3226) 
MS1

>  <INSTRUMENT TYPE>  (3226) 
EI-B

>  <INSTRUMENT>  (3226) 
HITACHI M-80B

>  <ION MODE>  (3226) 
P

>  <INCHIKEY>  (3226) 
RPRPDTXKGSIXMD-UHFFFAOYSA-N

>  <FORMULA>  (3226) 
C10H20O2

>  <EXACT MASS>  (3226) 
172.14632988

>  <MW>  (3226) 
172

>  <ID>  (3226) 
JP006988

>  <CONTRIBUTOR>  (3226) 
University of Tokyo Team, {Faculty of Engineering, University of Tokyo

>  <COMMENT>  (3226) 
SMILES=CCCCCC(=O)OCCCC
InChI=InChI=1S/C10H20O2/c1-3-5-7-8-10(11)12-9-6-4-2/h3-9H2,1-2H3
computed SMILES=O=C(OCCCC)CCCCC
accession=JP006988
date=2016.01.19 (Created 2008.10.21, modified 2011.05.06)
author=SODA AROMATIC CO., LTD.
license=CC BY-NC-SA
exact mass=172.14633
ionization energy=70 eV
ion type=[M]+*
computed spectral entropy=2.8795494633440666
computed normalized entropy=0.7916099679576146
SPLASH=splash10-0ar4-9100000000-a9080f56e2b36fd03d56
submitter=submitter = University of Tokyo Team (Faculty of Engineering, University of Tokyo)
MoNA Rating=3.75

>  <NUM PEAKS>  (3226) 
38

>  <MASS SPECTRAL PEAKS>  (3226) 
26 1.58
27 28.4
29 46.21
30 1.16
31 2.08
39 16.18
41 57.58
42 15.22
43 67.88
44 1.7
45 2.79
53 2.09
54 1.06
55 21.55
56 99.99
57 32.57
58 1.32
60 29.96
61 9.75
69 5.9
70 4.56
71 28.25
72 1.55
73 20.89
74 2.19
75 1.91
83 1.18
86 1.19
87 10.5
89 4.67
97 1.23
99 85.97
100 5.94
101 3.19
116 8.47
117 75.06
118 5.06
129 1.98

>  <PREDICTED SPECTRUM>  (3226) 
25 6
26 83
27 392
28 158
29 603
30 74
31 164
36 31
37 44
38 71
39 409
40 213
41 784
42 485
43 758
44 153
45 159
46 27
47 9
50 60
51 115
52 68
53 177
54 215
55 628
56 999
57 789
58 174
59 68
60 471
61 278
62 9
67 84
68 93
69 201
70 341
71 410
72 125
73 514
74 238
75 56
79 106
81 158
82 30
83 132
86 21
87 234
88 149
90 59
96 107
97 164
98 157
99 869
100 360
101 308
102 45
115 32
116 421
117 741
118 224
119 54
129 188
143 29

$$$$

     RDKit          2D

 11 10  0  0  0  0  0  0  0  0999 V2000
    2.5981    4.5000    0.0000 C   0  0  0  0  0  0  0  0  0  0  0  0
   -7.7942    4.5000    0.0000 C   0  0  0  0  0  0  0  0  0  0  0  0
   -6.4952    6.7500    0.0000 C   0  0  0  0  0  0  0  0  0  0  0  0
    1.2990    5.2500    0.0000 C   0  0  0  0  0  0  0  0  0  0  0  0
    0.0000    4.5000    0.0000 C   0  0  0  0  0  0  0  0  0  0  0  0
   -1.2990    5.2500    0.0000 C   0  0  0  0  0  0  0  0  0  0  0  0
   -2.5981    4.5000    0.0000 C   0  0  0  0  0  0  0  0  0  0  0  0
   -6.4952    5.2500    0.0000 C   0  0  0  0  0  0  0  0  0  0  0  0
   -3.8971    5.2500    0.0000 C   0  0  0  0  0  0  0  0  0  0  0  0
   -3.8971    6.7500    0.0000 O   0  0  0  0  0  0  0  0  0  0  0  0
   -5.1962    4.5000    0.0000 O   0  0  0  0  0  0  0  0  0  0  0  0
  4  1  1  0
  5  4  1  0
  6  5  1  0
  7  6  1  0
  8  2  1  0
  8  3  1  0
  9  7  1  0
 10  9  2  0
 11  8  1  0
 11  9  1  0
M  END
>  <NAME>  (3227) 
ISOPROPYL HEXANOATE

>  <SYNONYMS>  (3227) 


>  <SPECTRUM TYPE>  (3227) 
MS1

>  <INSTRUMENT TYPE>  (3227) 
EI-B

>  <INSTRUMENT>  (3227) 
HITACHI M-80B

>  <ION MODE>  (3227) 
P

>  <INCHIKEY>  (3227) 
JSHDAORXSNJOBA-UHFFFAOYSA-N

>  <FORMULA>  (3227) 
C9H18O2

>  <EXACT MASS>  (3227) 
158.130679816

>  <MW>  (3227) 
158

>  <ID>  (3227) 
JP006987

>  <CONTRIBUTOR>  (3227) 
University of Tokyo Team, {Faculty of Engineering, University of Tokyo

>  <COMMENT>  (3227) 
SMILES=CCCCCC(=O)OC(C)C
InChI=InChI=1S/C9H18O2/c1-4-5-6-7-9(10)11-8(2)3/h8H,4-7H2,1-3H3
computed SMILES=O=C(OC(C)C)CCCCC
accession=JP006987
date=2016.01.19 (Created 2008.10.21, modified 2011.05.06)
author=SODA AROMATIC CO., LTD.
license=CC BY-NC-SA
exact mass=158.13068
ionization energy=70 eV
ion type=[M]+*
computed spectral entropy=2.878854724460254
computed normalized entropy=0.7804144213088012
SPLASH=splash10-0006-9100000000-65c44990c986622035d4
submitter=submitter = University of Tokyo Team (Faculty of Engineering, University of Tokyo)
MoNA Rating=3.75

>  <NUM PEAKS>  (3227) 
40

>  <MASS SPECTRAL PEAKS>  (3227) 
14 1.11
15 1.09
26 1.58
27 15.5
29 6.34
31 1.21
39 10.83
41 31.25
42 17.55
43 99.99
44 1.91
45 3.6
53 1.53
55 8.74
56 5.85
57 3.32
58 1.08
59 18.05
60 49.48
61 6.86
69 4.67
70 4.17
71 21.68
72 1.54
73 13.31
74 2.44
75 1.25
83 1.04
87 7.39
89 2.37
97 1.77
98 1.06
99 69.53
100 4.7
102 18.97
103 1.39
116 10.9
117 36.68
118 2.44
143 2.85

>  <PREDICTED SPECTRUM>  (3227) 
14 36
15 44
25 16
26 115
27 390
28 159
29 295
31 128
32 4
33 20
36 4
37 43
38 62
39 370
40 182
41 663
42 470
43 999
44 193
45 141
46 41
47 18
49 14
50 47
51 36
52 54
53 128
54 94
55 436
56 48
57 171
59 313
60 626
61 261
67 1
69 142
70 296
71 423
72 158
73 356
74 145
81 0
82 71
83 42
87 183
88 273
89 306
90 49
98 100
99 813
100 215
101 177
102 127
103 5
115 121
116 268
117 251
118 5
129 27
158 5

$$$$

     RDKit          2D

 11 10  0  0  0  0  0  0  0  0999 V2000
   -8.4437    5.6250    0.0000 C   0  0  0  0  0  0  0  0  0  0  0  0
    3.2476    4.8750    0.0000 C   0  0  0  0  0  0  0  0  0  0  0  0
   -7.1447    4.8750    0.0000 C   0  0  0  0  0  0  0  0  0  0  0  0
    1.9486    5.6250    0.0000 C   0  0  0  0  0  0  0  0  0  0  0  0
   -5.8457    5.6250    0.0000 C   0  0  0  0  0  0  0  0  0  0  0  0
   -4.5466    4.8750    0.0000 C   0  0  0  0  0  0  0  0  0  0  0  0
   -3.2476    5.6250    0.0000 C   0  0  0  0  0  0  0  0  0  0  0  0
    0.6495    4.8750    0.0000 C   0  0  0  0  0  0  0  0  0  0  0  0
   -1.9486    4.8750    0.0000 C   0  0  0  0  0  0  0  0  0  0  0  0
   -1.9486    3.3750    0.0000 O   0  0  0  0  0  0  0  0  0  0  0  0
   -0.6495    5.6250    0.0000 O   0  0  0  0  0  0  0  0  0  0  0  0
  3  1  1  0
  4  2  1  0
  5  3  1  0
  6  5  1  0
  7  6  1  0
  8  4  1  0
  9  7  1  0
 10  9  2  0
 11  8  1  0
 11  9  1  0
M  END
>  <NAME>  (3228) 
PROPYL HEXANOATE

>  <SYNONYMS>  (3228) 


>  <SPECTRUM TYPE>  (3228) 
MS1

>  <INSTRUMENT TYPE>  (3228) 
EI-B

>  <INSTRUMENT>  (3228) 
HITACHI M-80B

>  <ION MODE>  (3228) 
P

>  <INCHIKEY>  (3228) 
HTUIWRWYYVBCFT-UHFFFAOYSA-N

>  <FORMULA>  (3228) 
C9H18O2

>  <EXACT MASS>  (3228) 
158.130679816

>  <MW>  (3228) 
158

>  <ID>  (3228) 
JP006986

>  <CONTRIBUTOR>  (3228) 
University of Tokyo Team, {Faculty of Engineering, University of Tokyo

>  <COMMENT>  (3228) 
SMILES=CCCCCC(=O)OCCC
InChI=InChI=1S/C9H18O2/c1-3-5-6-7-9(10)11-8-4-2/h3-8H2,1-2H3
computed SMILES=O=C(OCCC)CCCCC
accession=JP006986
date=2016.01.19 (Created 2008.10.21, modified 2011.05.06)
author=SODA AROMATIC CO., LTD.
license=CC BY-NC-SA
exact mass=158.13068
ionization energy=70 eV
ion type=[M]+*
computed spectral entropy=2.89419386711451
computed normalized entropy=0.8015119526755269
SPLASH=splash10-0006-9100000000-78e2f22b459e7b745a6c
submitter=submitter = University of Tokyo Team (Faculty of Engineering, University of Tokyo)
MoNA Rating=3.75

>  <NUM PEAKS>  (3228) 
37

>  <MASS SPECTRAL PEAKS>  (3228) 
15 1.76
26 2.13
27 40.12
29 27.59
30 1.14
31 4.44
39 17.81
41 49.71
42 30.48
43 99.99
44 2.09
45 3.74
53 1.47
55 14.94
56 2.6
57 2.56
59 6.99
60 41.71
61 42.18
69 6.15
70 4.68
71 23.73
72 1.47
73 20.8
74 2.18
75 1.88
83 1.07
87 10.86
89 4.06
99 67.43
100 4.01
102 9.91
115 2.2
116 1.86
117 50.65
118 2.35
129 1.18

>  <PREDICTED SPECTRUM>  (3228) 
14 44
15 67
25 21
26 139
27 462
28 179
29 443
30 106
31 185
32 10
33 31
36 16
37 66
38 101
39 442
40 221
41 692
42 547
43 999
44 156
45 174
46 33
47 50
49 21
50 66
51 74
52 47
53 174
54 172
55 568
56 16
57 116
58 10
59 361
60 722
61 404
65 31
67 50
68 11
69 151
70 411
71 456
72 184
73 429
74 144
81 65
82 170
83 161
86 10
87 354
88 286
89 304
90 47
98 85
99 854
100 190
101 195
102 365
103 137
115 299
116 209
117 255
119 26
129 125

$$$$

     RDKit          2D

 10  9  0  0  0  0  0  0  0  0999 V2000
    2.5981    4.5000    0.0000 C   0  0  0  0  0  0  0  0  0  0  0  0
   -7.7942    4.5000    0.0000 C   0  0  0  0  0  0  0  0  0  0  0  0
    1.2990    5.2500    0.0000 C   0  0  0  0  0  0  0  0  0  0  0  0
   -6.4952    5.2500    0.0000 C   0  0  0  0  0  0  0  0  0  0  0  0
    0.0000    4.5000    0.0000 C   0  0  0  0  0  0  0  0  0  0  0  0
   -1.2990    5.2500    0.0000 C   0  0  0  0  0  0  0  0  0  0  0  0
   -2.5981    4.5000    0.0000 C   0  0  0  0  0  0  0  0  0  0  0  0
   -3.8971    5.2500    0.0000 C   0  0  0  0  0  0  0  0  0  0  0  0
   -3.8971    6.7500    0.0000 O   0  0  0  0  0  0  0  0  0  0  0  0
   -5.1962    4.5000    0.0000 O   0  0  0  0  0  0  0  0  0  0  0  0
  3  1  1  0
  4  2  1  0
  5  3  1  0
  6  5  1  0
  7  6  1  0
  8  7  1  0
  9  8  2  0
 10  4  1  0
 10  8  1  0
M  END
>  <NAME>  (3229) 
ETHYL HEXANOATE

>  <SYNONYMS>  (3229) 


>  <SPECTRUM TYPE>  (3229) 
MS1

>  <INSTRUMENT TYPE>  (3229) 
EI-B

>  <INSTRUMENT>  (3229) 
HITACHI M-80B

>  <ION MODE>  (3229) 
P

>  <INCHIKEY>  (3229) 
SHZIWNPUGXLXDT-UHFFFAOYSA-N

>  <FORMULA>  (3229) 
C8H16O2

>  <EXACT MASS>  (3229) 
144.115029752

>  <MW>  (3229) 
144

>  <ID>  (3229) 
JP006985

>  <CONTRIBUTOR>  (3229) 
University of Tokyo Team, {Faculty of Engineering, University of Tokyo

>  <COMMENT>  (3229) 
SMILES=CCCCCC(=O)OCC
InChI=InChI=1S/C8H16O2/c1-3-5-6-7-8(9)10-4-2/h3-7H2,1-2H3
computed SMILES=O=C(OCC)CCCCC
accession=JP006985
date=2016.01.19 (Created 2008.10.21, modified 2011.05.06)
author=SODA AROMATIC CO., LTD.
license=CC BY-NC-SA
exact mass=144.11503
ionization energy=70 eV
ion type=[M]+*
computed spectral entropy=2.96900067256779
computed normalized entropy=0.8162007832114455
SPLASH=splash10-01tl-9000000000-b511103509087502c6df
submitter=submitter = University of Tokyo Team (Faculty of Engineering, University of Tokyo)
MoNA Rating=3.75

>  <NUM PEAKS>  (3229) 
38

>  <MASS SPECTRAL PEAKS>  (3229) 
15 2.8
26 4
27 47.13
29 79.07
30 1.95
31 2.37
39 19.35
41 41.9
42 23.86
43 77.63
44 2.36
45 22.83
53 2.43
54 1.04
55 20.66
56 3.15
57 2.9
59 1.25
60 46.17
61 26.33
69 7.62
70 25.5
71 26.83
72 1.1
73 28.16
74 4.47
83 1.09
87 7.36
88 99.99
89 4.98
97 1.71
98 1.02
99 53.52
100 2.61
101 25.86
102 2.6
115 7.83
117 3.53

>  <PREDICTED SPECTRUM>  (3229) 
14 17
19 7
25 18
26 126
27 419
28 150
29 574
30 63
31 148
38 25
39 372
40 132
41 648
42 533
43 999
44 239
45 349
46 97
47 165
51 33
52 68
53 211
54 253
55 618
56 149
57 490
58 177
59 183
60 534
61 295
67 123
68 108
69 295
70 604
71 628
72 110
73 451
74 313
75 258
81 108
82 111
83 181
87 176
88 947
89 255
90 63
97 5
98 33
99 791
100 265
101 478
102 77
115 340
116 165
117 178
144 205
145 81
146 7

$$$$

     RDKit          2D

  9  8  0  0  0  0  0  0  0  0999 V2000
   -6.4952    4.5000    0.0000 C   0  0  0  0  0  0  0  0  0  0  0  0
    2.5981    3.7500    0.0000 C   0  0  0  0  0  0  0  0  0  0  0  0
   -5.1962    3.7500    0.0000 C   0  0  0  0  0  0  0  0  0  0  0  0
   -3.8971    4.5000    0.0000 C   0  0  0  0  0  0  0  0  0  0  0  0
   -2.5981    3.7500    0.0000 C   0  0  0  0  0  0  0  0  0  0  0  0
   -1.2990    4.5000    0.0000 C   0  0  0  0  0  0  0  0  0  0  0  0
    0.0000    3.7500    0.0000 C   0  0  0  0  0  0  0  0  0  0  0  0
   -0.0000    2.2500    0.0000 O   0  0  0  0  0  0  0  0  0  0  0  0
    1.2990    4.5000    0.0000 O   0  0  0  0  0  0  0  0  0  0  0  0
  3  1  1  0
  4  3  1  0
  5  4  1  0
  6  5  1  0
  7  6  1  0
  8  7  2  0
  9  2  1  0
  9  7  1  0
M  END
>  <NAME>  (3230) 
METHYL HEXANOATE

>  <SYNONYMS>  (3230) 


>  <SPECTRUM TYPE>  (3230) 
MS1

>  <INSTRUMENT TYPE>  (3230) 
EI-B

>  <INSTRUMENT>  (3230) 
HITACHI M-80B

>  <ION MODE>  (3230) 
P

>  <INCHIKEY>  (3230) 
NUKZAGXMHTUAFE-UHFFFAOYSA-N

>  <FORMULA>  (3230) 
C7H14O2

>  <EXACT MASS>  (3230) 
130.099379688

>  <MW>  (3230) 
130

>  <ID>  (3230) 
JP006984

>  <CONTRIBUTOR>  (3230) 
University of Tokyo Team, {Faculty of Engineering, University of Tokyo

>  <COMMENT>  (3230) 
SMILES=CCCCCC(=O)OC
InChI=InChI=1S/C7H14O2/c1-3-4-5-6-7(8)9-2/h3-6H2,1-2H3
computed SMILES=O=C(OC)CCCCC
accession=JP006984
date=2016.01.19 (Created 2008.10.21, modified 2011.05.06)
author=SODA AROMATIC CO., LTD.
license=CC BY-NC-SA
exact mass=130.09938
ionization energy=70 eV
ion type=[M]+*
computed spectral entropy=2.6213471522209373
computed normalized entropy=0.7953510015193495
SPLASH=splash10-00dl-9000000000-a2223723dd919d58ae77
submitter=submitter = University of Tokyo Team (Faculty of Engineering, University of Tokyo)
MoNA Rating=3.75

>  <NUM PEAKS>  (3230) 
27

>  <MASS SPECTRAL PEAKS>  (3230) 
15 8.48
26 1.23
27 15.35
29 13.07
31 2.08
39 11.87
41 22.13
42 11.28
43 39.88
44 1.51
45 1.96
53 1.45
55 12.69
56 1.68
57 4.2
59 21.15
69 2.99
70 3.76
71 8.63
73 1.23
74 99.99
75 5.09
87 32.45
88 4.49
99 19.89
100 1.19
101 8.04

>  <PREDICTED SPECTRUM>  (3230) 
14 48
15 233
16 1
26 116
27 459
28 176
29 522
31 212
32 59
33 79
37 49
38 108
39 555
40 251
41 869
42 632
43 999
44 282
45 139
50 6
51 43
52 91
53 242
54 271
55 838
56 283
57 457
58 53
59 792
60 582
61 248
62 95
66 25
67 115
68 37
69 312
70 299
71 441
73 464
74 793
75 189
76 58
81 151
82 53
83 66
87 632
88 137
98 155
99 796
100 211
101 181
102 21
115 25
130 290
131 62

$$$$

     RDKit          2D

 16 15  0  0  0  0  0  0  0  0999 V2000
    2.5981   12.7500    0.0000 C   0  0  0  0  0  0  0  0  0  0  0  0
    3.8971   10.5000    0.0000 C   0  0  0  0  0  0  0  0  0  0  0  0
   -7.7942    6.7500    0.0000 C   0  0  0  0  0  0  0  0  0  0  0  0
   -6.4952    4.5000    0.0000 C   0  0  0  0  0  0  0  0  0  0  0  0
    1.2990    6.0000    0.0000 C   0  0  0  0  0  0  0  0  0  0  0  0
    1.2990    9.0000    0.0000 C   0  0  0  0  0  0  0  0  0  0  0  0
    1.2990   10.5000    0.0000 C   0  0  0  0  0  0  0  0  0  0  0  0
    0.0000    8.2500    0.0000 C   0  0  0  0  0  0  0  0  0  0  0  0
   -1.2990    6.0000    0.0000 C   0  0  0  0  0  0  0  0  0  0  0  0
   -2.5981    6.7500    0.0000 C   0  0  0  0  0  0  0  0  0  0  0  0
    2.5981   11.2500    0.0000 C   0  0  0  0  0  0  0  0  0  0  0  0
   -6.4952    6.0000    0.0000 C   0  0  0  0  0  0  0  0  0  0  0  0
    0.0000    6.7500    0.0000 C   0  0  0  0  0  0  0  0  0  0  0  0
   -5.1962    6.7500    0.0000 C   0  0  0  0  0  0  0  0  0  0  0  0
   -5.1962    8.2500    0.0000 O   0  0  0  0  0  0  0  0  0  0  0  0
   -3.8971    6.0000    0.0000 O   0  0  0  0  0  0  0  0  0  0  0  0
  7  6  1  0
  8  6  1  0
 10  9  1  0
 11  1  1  0
 11  2  1  0
 11  7  2  0
 12  3  1  0
 12  4  1  0
 13  5  1  0
 13  8  1  0
  9 13  2  0
 14 12  1  0
 15 14  2  0
 16 10  1  0
 16 14  1  0
M  END
>  <NAME>  (3231) 
NERYL ISOBUTYRATE

>  <SYNONYMS>  (3231) 
3,7-DIMETHYL-2,6-OCTADIEN-1-YL ISOBUTYRATE

>  <SPECTRUM TYPE>  (3231) 
MS1

>  <INSTRUMENT TYPE>  (3231) 
EI-B

>  <INSTRUMENT>  (3231) 
HITACHI M-80B

>  <ION MODE>  (3231) 
P

>  <INCHIKEY>  (3231) 
OGJYXQFXLSCKTP-LCYFTJDESA-N

>  <FORMULA>  (3231) 
C14H24O2

>  <EXACT MASS>  (3231) 
224.177630008

>  <MW>  (3231) 
224

>  <ID>  (3231) 
JP006983

>  <CONTRIBUTOR>  (3231) 
University of Tokyo Team, {Faculty of Engineering, University of Tokyo

>  <COMMENT>  (3231) 
SMILES=CC(C)=CCCC(C)=CCOC(=O)C(C)C
InChI=InChI=1S/C14H24O2/c1-11(2)7-6-8-13(5)9-10-16-14(15)12(3)4/h7,9,12H,6,8,10H2,1-5H3/b13-9-
computed SMILES=O=C(OCC=C(C)CCC=C(C)C)C(C)C
accession=JP006983
date=2016.01.19 (Created 2008.10.21, modified 2011.05.06)
author=SODA AROMATIC CO., LTD.
license=CC BY-NC-SA
exact mass=224.17763
ionization energy=70 eV
ion type=[M]+*
computed spectral entropy=2.9162507637812203
computed normalized entropy=0.7706407569119755
SPLASH=splash10-00kf-9000000000-0700f13d233209c71240
submitter=submitter = University of Tokyo Team (Faculty of Engineering, University of Tokyo)
MoNA Rating=3.75

>  <NUM PEAKS>  (3231) 
44

>  <MASS SPECTRAL PEAKS>  (3231) 
27 12.44
28 1.06
29 4.49
39 12.42
40 3.13
41 62.23
42 4.63
43 56.25
44 1.99
51 1.09
52 1.26
53 12.05
54 1.53
55 4.98
57 1.23
65 1.97
66 1.34
67 13.91
68 47.64
69 99.99
70 4.74
71 32.55
77 2.53
79 4.23
80 22.66
81 13.62
82 1.61
84 1.47
85 1.04
89 1.01
91 2.49
92 7.83
93 48.52
95 3.19
105 1.6
107 5.06
108 1.67
121 20.11
122 2.04
123 2.14
136 15.8
137 3.1
154 1.93
155 1.14

>  <PREDICTED SPECTRUM>  (3231) 
25 5
26 30
27 189
28 84
29 222
31 9
37 27
38 50
39 265
40 150
41 741
42 218
43 576
44 158
45 64
50 59
51 79
52 103
53 311
54 138
55 308
56 119
57 214
58 45
59 47
60 27
62 9
63 44
64 34
65 161
66 102
67 417
68 675
69 999
70 321
71 610
72 185
73 11
77 232
78 86
79 342
80 513
81 456
82 146
83 129
84 68
85 163
86 0
89 62
91 198
92 403
93 828
94 315
95 209
96 68
97 121
98 34
105 145
107 406
108 142
109 49
110 17
111 26
121 523
122 210
123 136
124 68
125 23
135 57
136 468
137 222
138 22
150 32
151 88
152 14
153 116
154 106
155 104
168 0
181 31
224 32

$$$$

     RDKit          2D

 16 15  0  0  0  0  0  0  0  0999 V2000
   -6.8544    6.5907    0.0000 C   0  0  0  0  0  0  0  0  0  0  0  0
    2.0822    4.9522    0.0000 C   0  0  0  0  0  0  0  0  0  0  0  0
    0.7831    7.2022    0.0000 C   0  0  0  0  0  0  0  0  0  0  0  0
   -7.0111    1.2022    0.0000 C   0  0  0  0  0  0  0  0  0  0  0  0
   -8.3101    3.4522    0.0000 C   0  0  0  0  0  0  0  0  0  0  0  0
   -3.4488    6.8512    0.0000 C   0  0  0  0  0  0  0  0  0  0  0  0
   -5.3772    6.8512    0.0000 C   0  0  0  0  0  0  0  0  0  0  0  0
   -1.8149    5.7022    0.0000 C   0  0  0  0  0  0  0  0  0  0  0  0
   -0.5159    4.9522    0.0000 C   0  0  0  0  0  0  0  0  0  0  0  0
   -3.1140    4.9522    0.0000 C   0  0  0  0  0  0  0  0  0  0  0  0
    0.7831    5.7022    0.0000 C   0  0  0  0  0  0  0  0  0  0  0  0
   -7.0111    2.7022    0.0000 C   0  0  0  0  0  0  0  0  0  0  0  0
   -5.7120    3.4522    0.0000 C   0  0  0  0  0  0  0  0  0  0  0  0
   -4.4130    5.7022    0.0000 C   0  0  0  0  0  0  0  0  0  0  0  0
   -4.4130    2.7022    0.0000 O   0  0  0  0  0  0  0  0  0  0  0  0
   -5.7120    4.9522    0.0000 O   0  0  0  0  0  0  0  0  0  0  0  0
  7  1  2  0
  9  8  1  0
 10  8  1  0
 11  2  1  0
 11  3  1  0
 11  9  2  0
 12  4  1  0
 12  5  1  0
 13 12  1  0
 14  6  1  0
 14  7  1  0
 14 10  1  0
 15 13  2  0
 16 13  1  0
 16 14  1  0
M  END
>  <NAME>  (3232) 
LINALYL ISOBUTYRATE

>  <SYNONYMS>  (3232) 
3,7-DIMETHYL-1,6-OCTADIEN-3-YL ISOBUTYRATE

>  <SPECTRUM TYPE>  (3232) 
MS1

>  <INSTRUMENT TYPE>  (3232) 
EI-B

>  <INSTRUMENT>  (3232) 
HITACHI M-80B

>  <ION MODE>  (3232) 
P

>  <INCHIKEY>  (3232) 
JZIARAQCPRDGAC-UHFFFAOYSA-N

>  <FORMULA>  (3232) 
C14H24O2

>  <EXACT MASS>  (3232) 
224.177630008

>  <MW>  (3232) 
224

>  <ID>  (3232) 
JP006982

>  <CONTRIBUTOR>  (3232) 
University of Tokyo Team, {Faculty of Engineering, University of Tokyo

>  <COMMENT>  (3232) 
SMILES=CC(C)=CCCC(C)(C=C)OC(=O)C(C)C
InChI=InChI=1S/C14H24O2/c1-7-14(6,10-8-9-11(2)3)16-13(15)12(4)5/h7,9,12H,1,8,10H2,2-6H3
computed SMILES=O=C(OC(C=C)(C)CCC=C(C)C)C(C)C
computed spectral entropy=3.0590652582809272
accession=JP006982
date=2016.01.19 (Created 2008.10.21, modified 2011.05.06)
author=SODA AROMATIC CO., LTD.
license=CC BY-NC-SA
exact mass=224.17763
ionization energy=70 eV
ion type=[M]+*
computed normalized entropy=0.7989949805918419
SPLASH=splash10-0006-9100000000-95e0e1093fb13ae05231
submitter=submitter = University of Tokyo Team (Faculty of Engineering, University of Tokyo)
MoNA Rating=3.75

>  <NUM PEAKS>  (3232) 
46

>  <MASS SPECTRAL PEAKS>  (3232) 
17 1.88
18 2.97
27 15.04
29 5
39 9.94
40 2.62
41 53.2
42 4.49
43 65.45
44 2.39
51 1.48
52 1.22
53 10.33
54 1.61
55 14.05
56 1.28
57 1.14
65 1.83
66 1.31
67 13.84
68 15.7
69 47.89
70 3.4
71 38.12
72 1.72
77 4.1
78 1.17
79 6.66
80 41.95
81 25.53
82 2.68
83 3.8
91 5.09
92 15.68
93 99.99
94 9.46
95 3.88
105 3.31
107 7.38
108 2.05
109 1.4
121 34.43
122 3.13
136 9.5
137 4.91
154 1.33

>  <PREDICTED SPECTRUM>  (3232) 
25 0
26 43
27 231
28 90
29 191
30 2
31 26
37 33
38 59
39 344
40 193
41 735
42 221
43 999
44 218
45 104
46 3
50 82
51 120
52 127
53 350
54 191
55 445
56 194
57 199
58 101
59 247
60 13
61 3
62 1
63 56
64 55
65 225
66 200
67 349
68 364
69 588
70 271
71 983
72 274
73 153
74 9
77 317
78 138
79 381
80 499
81 394
82 244
83 227
84 100
85 167
86 57
89 85
91 311
92 510
93 952
94 422
95 274
96 145
97 191
98 135
99 74
103 34
105 176
106 23
107 330
108 294
109 140
110 94
111 116
112 27
113 32
114 13
115 70
117 15
119 56
121 545
122 193
123 161
124 102
125 68
126 26
127 46
135 94
136 350
137 231
138 83
139 35
140 19
141 24
142 23
150 17
151 67
152 51
153 101
154 134
155 141
163 3
181 102
224 98
225 23

$$$$

     RDKit          2D

 16 17  0  0  0  0  0  0  0  0999 V2000
    8.9311    0.3321    0.0000 C   0  0  0  0  0  0  0  0  0  0  0  0
    7.6355    2.5841    0.0000 C   0  0  0  0  0  0  0  0  0  0  0  0
   -0.6759    1.4813    0.0000 C   0  0  0  0  0  0  0  0  0  0  0  0
   -0.6759   -2.3013    0.0000 C   0  0  0  0  0  0  0  0  0  0  0  0
    2.4475    2.5900    0.0000 C   0  0  0  0  0  0  0  0  0  0  0  0
    1.1450   -1.1600    0.0000 C   0  0  0  0  0  0  0  0  0  0  0  0
    1.1450    0.3400    0.0000 C   0  0  0  0  0  0  0  0  0  0  0  0
    3.7350   -1.1600    0.0000 C   0  0  0  0  0  0  0  0  0  0  0  0
    7.6332    1.0841    0.0000 C   0  0  0  0  0  0  0  0  0  0  0  0
    2.4450   -1.9100    0.0000 C   0  0  0  0  0  0  0  0  0  0  0  0
    3.7350    0.3400    0.0000 C   0  0  0  0  0  0  0  0  0  0  0  0
    6.3331    0.3361    0.0000 C   0  0  0  0  0  0  0  0  0  0  0  0
    1.5750   -0.4100    0.0000 C   0  0  0  0  0  0  0  0  0  0  0  0
    2.4450    1.0900    0.0000 C   0  0  0  0  0  0  0  0  0  0  0  0
    6.3308   -1.1639    0.0000 O   0  0  0  0  0  0  0  0  0  0  0  0
    5.0352    1.0880    0.0000 O   0  0  0  0  0  0  0  0  0  0  0  0
  7  6  1  0
  9  1  1  0
  9  2  1  0
 10  6  1  0
 10  8  1  0
 11  8  1  0
 12  9  1  0
 13  3  1  0
 13  4  1  0
 13 10  1  0
 14  5  1  0
 14  7  1  0
 14 11  1  0
 14 13  1  0
 15 12  2  0
 16 11  1  0
 16 12  1  0
M  END
>  <NAME>  (3233) 
BORNYL ISOBUTYRATE

>  <SYNONYMS>  (3233) 
ENDO-1,7,7-TRIMETHYLBICYCLO(2.2.1)HEPTAN-2-YL ISOBUTYRATE

>  <SPECTRUM TYPE>  (3233) 
MS1

>  <INSTRUMENT TYPE>  (3233) 
EI-B

>  <INSTRUMENT>  (3233) 
HITACHI M-80B

>  <ION MODE>  (3233) 
P

>  <INCHIKEY>  (3233) 
KRKIAJBQOUBNSE-UHFFFAOYSA-N

>  <FORMULA>  (3233) 
C14H24O2

>  <EXACT MASS>  (3233) 
224.177630008

>  <MW>  (3233) 
224

>  <ID>  (3233) 
JP006980

>  <CONTRIBUTOR>  (3233) 
University of Tokyo Team, {Faculty of Engineering, University of Tokyo

>  <COMMENT>  (3233) 
SMILES=CC(C)C(=O)OC(C1)C(C)(C2)C(C)(C)C(C2)1
InChI=InChI=1S/C14H24O2/c1-9(2)12(15)16-11-8-10-6-7-14(11,5)13(10,3)4/h9-11H,6-8H2,1-5H3
computed SMILES=O=C(OC1CC2CCC1(C)C2(C)C)C(C)C
accession=JP006980
date=2016.01.19 (Created 2008.10.21, modified 2011.05.06)
author=SODA AROMATIC CO., LTD.
license=CC BY-NC-SA
exact mass=224.17763
ionization energy=70 eV
ion type=[M]+*
computed spectral entropy=3.3015370124994643
computed normalized entropy=0.827663629124586
SPLASH=splash10-006x-9300000000-ac1847be3880d4337fbf
submitter=submitter = University of Tokyo Team (Faculty of Engineering, University of Tokyo)
MoNA Rating=3.75

>  <NUM PEAKS>  (3233) 
54

>  <MASS SPECTRAL PEAKS>  (3233) 
18 1.05
27 13.57
28 1.33
29 7.4
39 10.65
40 1.9
41 42.03
42 4.5
43 99.99
44 3.13
51 1.07
53 7.26
54 1.19
55 16.11
56 1.36
57 3.11
65 2.32
66 1
67 11.24
68 6.19
69 18.11
70 2.26
71 63.72
72 2.78
77 6.03
78 1.17
79 8.21
80 12.36
81 17.14
82 3.23
83 5.01
91 5.69
92 11.03
93 36.38
94 6.53
95 59.72
96 5.25
97 1.78
105 1.6
107 6.54
108 25.72
109 33.36
110 12.35
111 2.82
121 26.47
122 2.15
123 1.39
135 2.82
136 34.52
137 10.55
153 2.49
154 7.01
224 13.1
225 1.57

>  <PREDICTED SPECTRUM>  (3233) 
15 12
25 12
26 78
27 358
28 126
29 334
31 79
36 31
37 39
38 84
39 369
40 173
41 713
42 177
43 987
44 206
45 46
50 73
51 143
52 128
53 275
54 117
55 474
56 166
57 65
59 47
62 8
63 58
64 50
65 226
66 163
67 432
68 306
69 554
70 287
71 999
72 269
73 9
75 0
76 9
77 334
78 162
79 375
80 344
81 606
82 260
83 245
84 20
89 23
91 328
92 387
93 759
94 344
95 847
96 261
97 77
98 53
103 17
105 183
106 1
107 355
108 753
109 725
110 471
111 239
112 55
115 5
117 9
121 714
122 214
123 55
124 12
125 30
135 165
136 646
137 436
138 32
139 31
152 94
153 165
154 250
155 55
224 323
225 149
226 7

$$$$

     RDKit          2D

 16 16  0  0  0  0  0  0  0  0999 V2000
    2.5987    3.0002    0.0000 C   0  0  0  0  0  0  0  0  0  0  0  0
    3.8981    0.7504    0.0000 C   0  0  0  0  0  0  0  0  0  0  0  0
   -7.7951   -1.5010    0.0000 C   0  0  0  0  0  0  0  0  0  0  0  0
   -6.4964    0.7492    0.0000 C   0  0  0  0  0  0  0  0  0  0  0  0
   -1.3000    0.7500    0.0000 C   0  0  0  0  0  0  0  0  0  0  0  0
   -0.0000   -1.5000    0.0000 C   0  0  0  0  0  0  0  0  0  0  0  0
    0.0000    1.5000    0.0000 C   0  0  0  0  0  0  0  0  0  0  0  0
    1.3000   -0.7500    0.0000 C   0  0  0  0  0  0  0  0  0  0  0  0
   -2.5989   -1.5002    0.0000 C   0  0  0  0  0  0  0  0  0  0  0  0
    2.5989    1.5002    0.0000 C   0  0  0  0  0  0  0  0  0  0  0  0
   -6.4962   -0.7508    0.0000 C   0  0  0  0  0  0  0  0  0  0  0  0
   -1.3000   -0.7500    0.0000 C   0  0  0  0  0  0  0  0  0  0  0  0
    1.3000    0.7500    0.0000 C   0  0  0  0  0  0  0  0  0  0  0  0
   -5.1970   -1.5006    0.0000 C   0  0  0  0  0  0  0  0  0  0  0  0
   -5.1968   -3.0006    0.0000 O   0  0  0  0  0  0  0  0  0  0  0  0
   -3.8981   -0.7504    0.0000 O   0  0  0  0  0  0  0  0  0  0  0  0
  7  5  1  0
  8  6  1  0
 10  1  2  0
 10  2  1  0
 11  3  1  0
 11  4  1  0
 12  5  2  0
 12  6  1  0
 12  9  1  0
 13  7  1  0
 13  8  1  0
 13 10  1  0
 14 11  1  0
 15 14  2  0
 16  9  1  0
 16 14  1  0
M  END
>  <NAME>  (3234) 
PERILLYL ISOBUTYRATE

>  <SYNONYMS>  (3234) 
4-(1-METHYLETHENYL)-1-CYCLOHEXENYLMETHYL ISOBUTYRATE

>  <SPECTRUM TYPE>  (3234) 
MS1

>  <INSTRUMENT TYPE>  (3234) 
EI-B

>  <INSTRUMENT>  (3234) 
HITACHI M-80B

>  <ION MODE>  (3234) 
P

>  <INCHIKEY>  (3234) 
KAQYLYYVKDTFRT-UHFFFAOYSA-N

>  <FORMULA>  (3234) 
C14H22O2

>  <EXACT MASS>  (3234) 
222.161979944

>  <MW>  (3234) 
222

>  <ID>  (3234) 
JP006979

>  <CONTRIBUTOR>  (3234) 
University of Tokyo Team, {Faculty of Engineering, University of Tokyo

>  <COMMENT>  (3234) 
SMILES=CC(C)C(=O)OCC(C1)=CCC(C(C)=C)C1
InChI=InChI=1S/C14H22O2/c1-10(2)13-7-5-12(6-8-13)9-16-14(15)11(3)4/h5,11,13H,1,6-9H2,2-4H3
computed SMILES=O=C(OCC1=CCC(C(=C)C)CC1)C(C)C
accession=JP006979
date=2016.01.19 (Created 2008.10.21, modified 2011.05.06)
author=SODA AROMATIC CO., LTD.
license=CC BY-NC-SA
exact mass=222.16198
ionization energy=70 eV
ion type=[M]+*
computed spectral entropy=3.3053550673447276
computed normalized entropy=0.8325219251668344
SPLASH=splash10-0006-9300000000-ae62f01e72d4ca0de677
submitter=submitter = University of Tokyo Team (Faculty of Engineering, University of Tokyo)
MoNA Rating=3.75

>  <NUM PEAKS>  (3234) 
53

>  <MASS SPECTRAL PEAKS>  (3234) 
27 17.02
29 5.96
39 17.5
40 4.84
41 42.39
42 3.76
43 99.99
44 2.65
51 2.66
52 1.85
53 14.39
54 1.47
55 14.47
56 1.55
57 1.19
65 7.11
66 5.01
67 20.93
68 34.45
69 4.36
70 1.54
71 57.97
72 2.41
77 14.58
78 7.16
79 29.76
80 7.81
81 8.65
83 1.72
84 2.12
89 2.19
91 54.85
92 47.77
93 39.58
94 3.67
95 1.43
103 1.16
105 25.53
106 31.88
107 7.97
108 2.12
109 5.51
117 2.18
119 53.57
120 5.42
121 1.68
133 3.43
134 44.77
135 10
151 1.28
152 15.27
153 1.58
222 2.31

>  <PREDICTED SPECTRUM>  (3234) 
25 1
26 71
27 318
28 72
29 215
31 4
36 13
37 32
38 78
39 392
40 219
41 603
42 289
43 991
44 171
45 17
50 115
51 241
52 168
53 368
54 195
55 374
56 177
57 85
59 4
60 68
61 16
62 52
63 161
64 122
65 327
66 245
67 403
68 554
69 212
70 90
71 999
72 283
73 8
74 14
75 3
76 72
77 502
78 263
79 589
80 362
81 333
82 129
83 109
84 37
88 6
89 152
90 90
91 918
92 809
93 685
94 149
95 135
96 87
99 4
102 29
103 180
104 97
105 557
106 604
107 412
108 280
109 320
110 79
115 72
117 5
119 941
120 217
121 68
131 15
132 36
133 154
134 749
135 283
136 23
137 46
151 64
152 467
153 58
154 114
179 78
222 135
223 7

$$$$

     RDKit          2D

 13 12  0  0  0  0  0  0  0  0999 V2000
   -9.7428    5.6250    0.0000 C   0  0  0  0  0  0  0  0  0  0  0  0
    3.2476    5.6250    0.0000 C   0  0  0  0  0  0  0  0  0  0  0  0
    1.9486    3.3750    0.0000 C   0  0  0  0  0  0  0  0  0  0  0  0
   -8.4437    4.8750    0.0000 C   0  0  0  0  0  0  0  0  0  0  0  0
   -7.1447    5.6250    0.0000 C   0  0  0  0  0  0  0  0  0  0  0  0
   -5.8457    4.8750    0.0000 C   0  0  0  0  0  0  0  0  0  0  0  0
   -4.5466    5.6250    0.0000 C   0  0  0  0  0  0  0  0  0  0  0  0
   -3.2476    4.8750    0.0000 C   0  0  0  0  0  0  0  0  0  0  0  0
   -1.9486    5.6250    0.0000 C   0  0  0  0  0  0  0  0  0  0  0  0
    1.9486    4.8750    0.0000 C   0  0  0  0  0  0  0  0  0  0  0  0
    0.6495    5.6250    0.0000 C   0  0  0  0  0  0  0  0  0  0  0  0
    0.6495    7.1250    0.0000 O   0  0  0  0  0  0  0  0  0  0  0  0
   -0.6495    4.8750    0.0000 O   0  0  0  0  0  0  0  0  0  0  0  0
  4  1  1  0
  5  4  1  0
  6  5  1  0
  7  6  1  0
  8  7  1  0
  9  8  1  0
 10  2  1  0
 10  3  1  0
 11 10  1  0
 12 11  2  0
 13  9  1  0
 13 11  1  0
M  END
>  <NAME>  (3235) 
HEPTYL ISOBUTYRATE

>  <SYNONYMS>  (3235) 


>  <SPECTRUM TYPE>  (3235) 
MS1

>  <INSTRUMENT TYPE>  (3235) 
EI-B

>  <INSTRUMENT>  (3235) 
HITACHI M-80B

>  <ION MODE>  (3235) 
P

>  <INCHIKEY>  (3235) 
RFDUMBPGZUIKOG-UHFFFAOYSA-N

>  <FORMULA>  (3235) 
C11H22O2

>  <EXACT MASS>  (3235) 
186.161979944

>  <MW>  (3235) 
186

>  <ID>  (3235) 
JP006977

>  <CONTRIBUTOR>  (3235) 
University of Tokyo Team, {Faculty of Engineering, University of Tokyo

>  <COMMENT>  (3235) 
SMILES=CCCCCCCOC(=O)C(C)C
InChI=InChI=1S/C11H22O2/c1-4-5-6-7-8-9-13-11(12)10(2)3/h10H,4-9H2,1-3H3
computed SMILES=O=C(OCCCCCCC)C(C)C
accession=JP006977
date=2016.01.19 (Created 2008.10.21, modified 2011.05.06)
author=SODA AROMATIC CO., LTD.
license=CC BY-NC-SA
exact mass=186.16198
ionization energy=70 eV
ion type=[M]+*
computed spectral entropy=2.7489844828922902
computed normalized entropy=0.800522634243316
SPLASH=splash10-0596-9000000000-5dbbf52836e457833bc1
submitter=submitter = University of Tokyo Team (Faculty of Engineering, University of Tokyo)
MoNA Rating=3.75

>  <NUM PEAKS>  (3235) 
31

>  <MASS SPECTRAL PEAKS>  (3235) 
27 23.14
28 5.3
29 19.59
31 1.64
39 11.47
40 2.31
41 50.8
42 19.29
43 99.99
44 3.45
53 1.43
54 3.06
55 23.59
56 42.31
57 54.19
58 2.17
68 3.43
69 17.71
70 30.67
71 50.97
72 1.89
73 1.81
83 3.35
88 1.64
89 61.98
90 2.49
97 2.31
98 26.43
99 1.93
101 1.42
113 1.01

>  <PREDICTED SPECTRUM>  (3235) 
26 58
27 297
28 155
29 324
31 84
33 5
36 17
37 15
38 49
39 324
40 158
41 697
42 440
43 999
44 247
45 56
47 5
51 29
52 4
53 135
54 204
55 612
56 626
57 659
58 67
59 2
60 72
61 24
66 33
67 157
68 253
69 456
70 681
71 813
72 203
73 179
74 5
81 41
82 147
83 281
84 94
86 50
87 58
88 189
89 958
90 231
95 24
96 123
97 222
98 366
99 142
100 21
115 104
143 142

$$$$

     RDKit          2D

 12 11  0  0  0  0  0  0  0  0999 V2000
   -6.4952    4.5000    0.0000 C   0  0  0  0  0  0  0  0  0  0  0  0
   -3.8971    1.5000    0.0000 C   0  0  0  0  0  0  0  0  0  0  0  0
    2.5981    3.7500    0.0000 C   0  0  0  0  0  0  0  0  0  0  0  0
    1.2990    6.0000    0.0000 C   0  0  0  0  0  0  0  0  0  0  0  0
   -5.1962    3.7500    0.0000 C   0  0  0  0  0  0  0  0  0  0  0  0
   -2.5981    2.2500    0.0000 C   0  0  0  0  0  0  0  0  0  0  0  0
   -3.8971    4.5000    0.0000 C   0  0  0  0  0  0  0  0  0  0  0  0
    1.2990    4.5000    0.0000 C   0  0  0  0  0  0  0  0  0  0  0  0
   -2.5981    3.7500    0.0000 C   0  0  0  0  0  0  0  0  0  0  0  0
    0.0000    3.7500    0.0000 C   0  0  0  0  0  0  0  0  0  0  0  0
   -0.0000    2.2500    0.0000 O   0  0  0  0  0  0  0  0  0  0  0  0
   -1.2990    4.5000    0.0000 O   0  0  0  0  0  0  0  0  0  0  0  0
  5  1  1  0
  6  2  1  0
  7  5  1  0
  8  3  1  0
  8  4  1  0
  9  6  1  0
  9  7  1  0
 10  8  1  0
 11 10  2  0
 12  9  1  0
 12 10  1  0
M  END
>  <NAME>  (3236) 
1-ETHYLBUTYL ISOBUTYRATE

>  <SYNONYMS>  (3236) 
3-HEXYL ISOBUTYRATE

>  <SPECTRUM TYPE>  (3236) 
MS1

>  <INSTRUMENT TYPE>  (3236) 
EI-B

>  <INSTRUMENT>  (3236) 
HITACHI M-80B

>  <ION MODE>  (3236) 
P

>  <INCHIKEY>  (3236) 
VZZDUJNRNFKSFD-UHFFFAOYSA-N

>  <FORMULA>  (3236) 
C10H20O2

>  <EXACT MASS>  (3236) 
172.14632988

>  <MW>  (3236) 
172

>  <ID>  (3236) 
JP006976

>  <CONTRIBUTOR>  (3236) 
University of Tokyo Team, {Faculty of Engineering, University of Tokyo

>  <COMMENT>  (3236) 
SMILES=CCCC(CC)OC(=O)C(C)C
InChI=InChI=1S/C10H20O2/c1-5-7-9(6-2)12-10(11)8(3)4/h8-9H,5-7H2,1-4H3
computed SMILES=O=C(OC(CC)CCC)C(C)C
accession=JP006976
date=2016.01.19 (Created 2008.10.21, modified 2011.05.06)
author=SODA AROMATIC CO., LTD.
license=CC BY-NC-SA
exact mass=172.14633
ionization energy=70 eV
ion type=[M]+*
computed spectral entropy=2.4153603249684448
computed normalized entropy=0.7503738747260758
SPLASH=splash10-006x-9000000000-92d2183b46b5144a1dbd
submitter=submitter = University of Tokyo Team (Faculty of Engineering, University of Tokyo)
MoNA Rating=3.75

>  <NUM PEAKS>  (3236) 
25

>  <MASS SPECTRAL PEAKS>  (3236) 
27 16.83
28 3.12
29 10.07
31 1.92
39 8.03
40 1.31
41 23.7
42 7.6
43 99.99
44 4.74
55 12.16
56 7.96
57 8.15
59 5.42
69 3.99
71 98.14
72 4.67
73 2.01
84 14.12
85 24.53
86 1.46
89 9.74
101 1.08
129 6.16
143 4.11

>  <PREDICTED SPECTRUM>  (3236) 
15 10
26 56
27 275
28 96
29 212
31 81
39 242
40 71
41 528
42 293
43 999
44 183
45 133
53 89
54 69
55 407
56 335
57 284
58 5
59 99
60 4
65 40
67 28
69 340
70 47
71 908
72 214
73 280
74 77
84 393
85 424
86 75
87 23
88 101
89 328
99 17
100 31
115 83
129 231

$$$$

     RDKit          2D

 12 11  0  0  0  0  0  0  0  0999 V2000
    2.5981    4.5000    0.0000 C   0  0  0  0  0  0  0  0  0  0  0  0
   -7.7942    4.5000    0.0000 C   0  0  0  0  0  0  0  0  0  0  0  0
   -6.4952    6.7500    0.0000 C   0  0  0  0  0  0  0  0  0  0  0  0
   -2.5981    3.0000    0.0000 C   0  0  0  0  0  0  0  0  0  0  0  0
    1.2990    5.2500    0.0000 C   0  0  0  0  0  0  0  0  0  0  0  0
    0.0000    4.5000    0.0000 C   0  0  0  0  0  0  0  0  0  0  0  0
   -1.2990    5.2500    0.0000 C   0  0  0  0  0  0  0  0  0  0  0  0
   -6.4952    5.2500    0.0000 C   0  0  0  0  0  0  0  0  0  0  0  0
   -2.5981    4.5000    0.0000 C   0  0  0  0  0  0  0  0  0  0  0  0
   -5.1962    4.5000    0.0000 C   0  0  0  0  0  0  0  0  0  0  0  0
   -5.1962    3.0000    0.0000 O   0  0  0  0  0  0  0  0  0  0  0  0
   -3.8971    5.2500    0.0000 O   0  0  0  0  0  0  0  0  0  0  0  0
  5  1  1  0
  6  5  1  0
  7  6  1  0
  8  2  1  0
  8  3  1  0
  9  4  1  0
  9  7  1  0
 10  8  1  0
 11 10  2  0
 12  9  1  0
 12 10  1  0
M  END
>  <NAME>  (3237) 
1-METHYLPENTYL ISOBUTYRATE

>  <SYNONYMS>  (3237) 
2-HEXYL ISOBUTYRATE

>  <SPECTRUM TYPE>  (3237) 
MS1

>  <INSTRUMENT TYPE>  (3237) 
EI-B

>  <INSTRUMENT>  (3237) 
HITACHI M-80B

>  <ION MODE>  (3237) 
P

>  <INCHIKEY>  (3237) 
QLUIRWJNPGJBRM-UHFFFAOYSA-N

>  <FORMULA>  (3237) 
C10H20O2

>  <EXACT MASS>  (3237) 
172.14632988

>  <MW>  (3237) 
172

>  <ID>  (3237) 
JP006975

>  <CONTRIBUTOR>  (3237) 
University of Tokyo Team, {Faculty of Engineering, University of Tokyo

>  <COMMENT>  (3237) 
SMILES=CCCCC(C)OC(=O)C(C)C
InChI=InChI=1S/C10H20O2/c1-5-6-7-9(4)12-10(11)8(2)3/h8-9H,5-7H2,1-4H3
computed SMILES=O=C(OC(C)CCCC)C(C)C
accession=JP006975
date=2016.01.19 (Created 2008.10.21, modified 2011.05.06)
author=SODA AROMATIC CO., LTD.
license=CC BY-NC-SA
exact mass=172.14633
ionization energy=70 eV
ion type=[M]+*
computed spectral entropy=2.4688359089631713
computed normalized entropy=0.7873833402150208
SPLASH=splash10-006x-9000000000-c5282e0a0c9b70f259bc
submitter=submitter = University of Tokyo Team (Faculty of Engineering, University of Tokyo)
MoNA Rating=3.75

>  <NUM PEAKS>  (3237) 
23

>  <MASS SPECTRAL PEAKS>  (3237) 
27 14.87
28 2.93
29 10.6
39 7.9
40 1.37
41 24.88
42 9.11
43 99.99
44 4.55
45 8.4
55 9.55
56 8
57 8.23
69 5.28
71 74.48
72 3.69
84 16
85 28.7
86 2.45
88 1.26
89 11.65
101 1.39
115 12.22

>  <PREDICTED SPECTRUM>  (3237) 
26 35
27 236
28 37
29 210
31 26
39 232
40 61
41 530
42 327
43 999
44 210
45 287
52 8
53 119
54 60
55 346
56 437
57 340
58 28
60 2
67 38
68 46
69 389
70 187
71 818
72 124
73 135
74 34
84 533
85 524
86 162
87 157
88 163
89 345
90 70
99 21
100 58
101 94
102 45
115 391
116 34
117 22

$$$$

     RDKit          2D

 12 11  0  0  0  0  0  0  0  0999 V2000
   -6.4952    4.5000    0.0000 C   0  0  0  0  0  0  0  0  0  0  0  0
   -5.1962    2.2500    0.0000 C   0  0  0  0  0  0  0  0  0  0  0  0
    2.5981    3.7500    0.0000 C   0  0  0  0  0  0  0  0  0  0  0  0
    1.2990    6.0000    0.0000 C   0  0  0  0  0  0  0  0  0  0  0  0
   -2.5981    2.2500    0.0000 C   0  0  0  0  0  0  0  0  0  0  0  0
   -3.8971    4.5000    0.0000 C   0  0  0  0  0  0  0  0  0  0  0  0
   -5.1962    3.7500    0.0000 C   0  0  0  0  0  0  0  0  0  0  0  0
    1.2990    4.5000    0.0000 C   0  0  0  0  0  0  0  0  0  0  0  0
   -2.5981    3.7500    0.0000 C   0  0  0  0  0  0  0  0  0  0  0  0
    0.0000    3.7500    0.0000 C   0  0  0  0  0  0  0  0  0  0  0  0
   -0.0000    2.2500    0.0000 O   0  0  0  0  0  0  0  0  0  0  0  0
   -1.2990    4.5000    0.0000 O   0  0  0  0  0  0  0  0  0  0  0  0
  7  1  1  0
  7  2  1  0
  7  6  1  0
  8  3  1  0
  8  4  1  0
  9  5  1  0
  9  6  1  0
 10  8  1  0
 11 10  2  0
 12  9  1  0
 12 10  1  0
M  END
>  <NAME>  (3238) 
1,3-DIMETHYLBUTYL ISOBUTYRATE

>  <SYNONYMS>  (3238) 


>  <SPECTRUM TYPE>  (3238) 
MS1

>  <INSTRUMENT TYPE>  (3238) 
EI-B

>  <INSTRUMENT>  (3238) 
HITACHI M-80B

>  <ION MODE>  (3238) 
P

>  <INCHIKEY>  (3238) 
KOTIQBSLRXNDQH-UHFFFAOYSA-N

>  <FORMULA>  (3238) 
C10H20O2

>  <EXACT MASS>  (3238) 
172.14632988

>  <MW>  (3238) 
172

>  <ID>  (3238) 
JP006974

>  <CONTRIBUTOR>  (3238) 
University of Tokyo Team, {Faculty of Engineering, University of Tokyo

>  <COMMENT>  (3238) 
SMILES=CC(C)CC(C)OC(=O)C(C)C
InChI=InChI=1S/C10H20O2/c1-7(2)6-9(5)12-10(11)8(3)4/h7-9H,6H2,1-5H3
computed SMILES=O=C(OC(C)CC(C)C)C(C)C
accession=JP006974
date=2016.01.19 (Created 2008.10.21, modified 2011.05.06)
author=SODA AROMATIC CO., LTD.
license=CC BY-NC-SA
exact mass=172.14633
ionization energy=70 eV
ion type=[M]+*
computed spectral entropy=2.3871788139393355
computed normalized entropy=0.7722892357384947
SPLASH=splash10-006x-9000000000-d52f9874f8640dde8883
submitter=submitter = University of Tokyo Team (Faculty of Engineering, University of Tokyo)
MoNA Rating=3.75

>  <NUM PEAKS>  (3238) 
22

>  <MASS SPECTRAL PEAKS>  (3238) 
27 13.41
29 5.37
39 8.78
40 1.23
41 27.11
42 8.74
43 99.99
44 3.48
45 7.29
55 5.41
56 2.49
57 9
69 21.77
70 1.54
71 74.2
72 2.61
83 1.05
84 25.24
85 35.47
86 1.98
89 5.64
115 11.01

>  <PREDICTED SPECTRUM>  (3238) 
26 32
27 206
28 29
29 185
39 232
40 57
41 508
42 293
43 999
44 207
45 190
52 6
53 92
54 35
55 270
56 302
57 336
59 60
69 434
70 202
71 787
72 102
73 85
83 99
84 585
85 568
86 116
87 63
88 86
89 249
90 21
100 21
101 82
102 39
115 216
116 26
129 30

$$$$

     RDKit          2D

 12 11  0  0  0  0  0  0  0  0999 V2000
    2.9228    5.4375    0.0000 C   0  0  0  0  0  0  0  0  0  0  0  0
   -8.7685    6.1875    0.0000 C   0  0  0  0  0  0  0  0  0  0  0  0
   -7.4695    3.9375    0.0000 C   0  0  0  0  0  0  0  0  0  0  0  0
    1.6238    6.1875    0.0000 C   0  0  0  0  0  0  0  0  0  0  0  0
    0.3248    5.4375    0.0000 C   0  0  0  0  0  0  0  0  0  0  0  0
   -0.9743    6.1875    0.0000 C   0  0  0  0  0  0  0  0  0  0  0  0
   -2.2733    5.4375    0.0000 C   0  0  0  0  0  0  0  0  0  0  0  0
   -3.5724    6.1875    0.0000 C   0  0  0  0  0  0  0  0  0  0  0  0
   -7.4695    5.4375    0.0000 C   0  0  0  0  0  0  0  0  0  0  0  0
   -6.1704    6.1875    0.0000 C   0  0  0  0  0  0  0  0  0  0  0  0
   -6.1704    7.6875    0.0000 O   0  0  0  0  0  0  0  0  0  0  0  0
   -4.8714    5.4375    0.0000 O   0  0  0  0  0  0  0  0  0  0  0  0
  4  1  1  0
  5  4  1  0
  6  5  1  0
  6  7  2  0
  8  7  1  0
  9  2  1  0
  9  3  1  0
 10  9  1  0
 11 10  2  0
 12  8  1  0
 12 10  1  0
M  END
>  <NAME>  (3239) 
TRANS-2-HEXENYL ISOBUTYRATE

>  <SYNONYMS>  (3239) 


>  <SPECTRUM TYPE>  (3239) 
MS1

>  <INSTRUMENT TYPE>  (3239) 
EI-B

>  <INSTRUMENT>  (3239) 
HITACHI M-80B

>  <ION MODE>  (3239) 
P

>  <INCHIKEY>  (3239) 
DSFNTAVCWZDPEB-VOTSOKGWSA-N

>  <FORMULA>  (3239) 
C10H18O2

>  <EXACT MASS>  (3239) 
170.130679816

>  <MW>  (3239) 
170

>  <ID>  (3239) 
JP006972

>  <CONTRIBUTOR>  (3239) 
University of Tokyo Team, {Faculty of Engineering, University of Tokyo

>  <COMMENT>  (3239) 
SMILES=CCCC=CCOC(=O)C(C)C
InChI=InChI=1S/C10H18O2/c1-4-5-6-7-8-12-10(11)9(2)3/h6-7,9H,4-5,8H2,1-3H3/b7-6+
computed SMILES=O=C(OCC=CCCC)C(C)C
accession=JP006972
date=2016.01.19 (Created 2008.10.21, modified 2011.05.06)
author=SODA AROMATIC CO., LTD.
license=CC BY-NC-SA
exact mass=170.13068
ionization energy=70 eV
ion type=[M]+*
computed spectral entropy=2.603704637069845
computed normalized entropy=0.7512703535680527
SPLASH=splash10-0006-9000000000-117dcd37f554d0254aa9
submitter=submitter = University of Tokyo Team (Faculty of Engineering, University of Tokyo)
MoNA Rating=3.75

>  <NUM PEAKS>  (3239) 
32

>  <MASS SPECTRAL PEAKS>  (3239) 
18 1.58
26 1.2
27 23.11
28 2.21
29 11
39 18.83
40 2.4
41 50.68
42 6.1
43 99.99
44 2.88
51 1.1
53 5.49
54 10.63
55 50.06
56 3.95
57 8.79
67 21.66
68 1.36
70 1.58
71 71.49
72 2.92
81 2.69
82 15.21
83 24.92
84 1.5
89 1.96
99 1.65
100 1.15
127 1.63
141 1.01
170 3.22

>  <PREDICTED SPECTRUM>  (3239) 
25 4
26 90
27 338
28 149
29 267
37 24
38 78
39 395
40 166
41 605
42 253
43 949
44 198
45 89
50 20
51 73
52 72
53 256
54 429
55 697
56 190
57 200
65 112
66 91
67 500
68 129
69 75
70 132
71 999
72 231
73 37
81 120
82 486
83 503
84 177
85 36
88 57
89 110
99 123
100 150
127 103
170 72

$$$$

     RDKit          2D

 11 10  0  0  0  0  0  0  0  0999 V2000
   -6.4952    4.5000    0.0000 C   0  0  0  0  0  0  0  0  0  0  0  0
   -5.1962    2.2500    0.0000 C   0  0  0  0  0  0  0  0  0  0  0  0
    2.5981    3.7500    0.0000 C   0  0  0  0  0  0  0  0  0  0  0  0
    1.2990    6.0000    0.0000 C   0  0  0  0  0  0  0  0  0  0  0  0
   -3.8971    4.5000    0.0000 C   0  0  0  0  0  0  0  0  0  0  0  0
   -2.5981    3.7500    0.0000 C   0  0  0  0  0  0  0  0  0  0  0  0
   -5.1962    3.7500    0.0000 C   0  0  0  0  0  0  0  0  0  0  0  0
    1.2990    4.5000    0.0000 C   0  0  0  0  0  0  0  0  0  0  0  0
    0.0000    3.7500    0.0000 C   0  0  0  0  0  0  0  0  0  0  0  0
   -0.0000    2.2500    0.0000 O   0  0  0  0  0  0  0  0  0  0  0  0
   -1.2990    4.5000    0.0000 O   0  0  0  0  0  0  0  0  0  0  0  0
  6  5  1  0
  7  1  1  0
  7  2  1  0
  7  5  1  0
  8  3  1  0
  8  4  1  0
  9  8  1  0
 10  9  2  0
 11  6  1  0
 11  9  1  0
M  END
>  <NAME>  (3240) 
ISOPENTYL ISOBUTYRATE

>  <SYNONYMS>  (3240) 


>  <SPECTRUM TYPE>  (3240) 
MS1

>  <INSTRUMENT TYPE>  (3240) 
EI-B

>  <INSTRUMENT>  (3240) 
HITACHI M-80B

>  <ION MODE>  (3240) 
P

>  <INCHIKEY>  (3240) 
VFTGLSWXJMRZNB-UHFFFAOYSA-N

>  <FORMULA>  (3240) 
C9H18O2

>  <EXACT MASS>  (3240) 
158.130679816

>  <MW>  (3240) 
158

>  <ID>  (3240) 
JP006971

>  <CONTRIBUTOR>  (3240) 
University of Tokyo Team, {Faculty of Engineering, University of Tokyo

>  <COMMENT>  (3240) 
SMILES=CC(C)CCOC(=O)C(C)C
InChI=InChI=1S/C9H18O2/c1-7(2)5-6-11-9(10)8(3)4/h7-8H,5-6H2,1-4H3
computed SMILES=O=C(OCCC(C)C)C(C)C
accession=JP006971
date=2016.01.19 (Created 2008.10.21, modified 2011.05.06)
author=SODA AROMATIC CO., LTD.
license=CC BY-NC-SA
exact mass=158.13068
ionization energy=70 eV
ion type=[M]+*
computed spectral entropy=2.311242222777973
computed normalized entropy=0.7180277676205818
SPLASH=splash10-006x-9000000000-f52f38a23e150d10c7c8
submitter=submitter = University of Tokyo Team (Faculty of Engineering, University of Tokyo)
MoNA Rating=3.75

>  <NUM PEAKS>  (3240) 
25

>  <MASS SPECTRAL PEAKS>  (3240) 
15 1.15
27 18.62
28 4.66
29 8.46
39 10.33
40 1.64
41 28.79
42 13.03
43 99.99
44 3.11
45 1.51
53 1.34
55 24.3
56 1.64
57 1.74
69 3.63
70 66.38
71 56.51
72 2.06
73 1.25
85 1.13
88 1.08
89 11.5
101 1.51
115 2.66

>  <PREDICTED SPECTRUM>  (3240) 
26 60
27 246
28 47
29 170
31 35
36 12
37 1
38 23
39 290
40 99
41 484
42 332
43 999
44 208
45 215
51 1
53 136
54 101
55 474
56 39
57 41
69 230
70 844
71 949
72 217
73 25
86 13
87 65
88 44
89 266
101 7
115 247
116 20
158 18

$$$$

     RDKit          2D

 11 10  0  0  0  0  0  0  0  0999 V2000
    2.5981    4.5000    0.0000 C   0  0  0  0  0  0  0  0  0  0  0  0
   -7.7942    4.5000    0.0000 C   0  0  0  0  0  0  0  0  0  0  0  0
   -6.4952    6.7500    0.0000 C   0  0  0  0  0  0  0  0  0  0  0  0
    1.2990    5.2500    0.0000 C   0  0  0  0  0  0  0  0  0  0  0  0
    0.0000    4.5000    0.0000 C   0  0  0  0  0  0  0  0  0  0  0  0
   -1.2990    5.2500    0.0000 C   0  0  0  0  0  0  0  0  0  0  0  0
   -2.5981    4.5000    0.0000 C   0  0  0  0  0  0  0  0  0  0  0  0
   -6.4952    5.2500    0.0000 C   0  0  0  0  0  0  0  0  0  0  0  0
   -5.1962    4.5000    0.0000 C   0  0  0  0  0  0  0  0  0  0  0  0
   -5.1962    3.0000    0.0000 O   0  0  0  0  0  0  0  0  0  0  0  0
   -3.8971    5.2500    0.0000 O   0  0  0  0  0  0  0  0  0  0  0  0
  4  1  1  0
  5  4  1  0
  6  5  1  0
  7  6  1  0
  8  2  1  0
  8  3  1  0
  9  8  1  0
 10  9  2  0
 11  7  1  0
 11  9  1  0
M  END
>  <NAME>  (3241) 
PENTYL ISOBUTYRATE

>  <SYNONYMS>  (3241) 


>  <SPECTRUM TYPE>  (3241) 
MS1

>  <INSTRUMENT TYPE>  (3241) 
EI-B

>  <INSTRUMENT>  (3241) 
HITACHI M-80B

>  <ION MODE>  (3241) 
P

>  <INCHIKEY>  (3241) 
UYGGIIOLYXRSQY-UHFFFAOYSA-N

>  <FORMULA>  (3241) 
C9H18O2

>  <EXACT MASS>  (3241) 
158.130679816

>  <MW>  (3241) 
158

>  <ID>  (3241) 
JP006970

>  <CONTRIBUTOR>  (3241) 
University of Tokyo Team, {Faculty of Engineering, University of Tokyo

>  <COMMENT>  (3241) 
SMILES=CCCCCOC(=O)C(C)C
InChI=InChI=1S/C9H18O2/c1-4-5-6-7-11-9(10)8(2)3/h8H,4-7H2,1-3H3
computed SMILES=O=C(OCCCCC)C(C)C
accession=JP006970
date=2016.01.19 (Created 2008.10.21, modified 2011.05.06)
author=SODA AROMATIC CO., LTD.
license=CC BY-NC-SA
exact mass=158.13068
ionization energy=70 eV
ion type=[M]+*
computed spectral entropy=2.4064172988006565
computed normalized entropy=0.7301384736672508
SPLASH=splash10-006x-9000000000-0a88a24520975daafc0c
submitter=submitter = University of Tokyo Team (Faculty of Engineering, University of Tokyo)
MoNA Rating=3.75

>  <NUM PEAKS>  (3241) 
27

>  <MASS SPECTRAL PEAKS>  (3241) 
18 1.99
26 1
27 18.55
28 3.35
29 12.89
31 1.03
39 9.56
40 1.86
41 27.61
42 17.67
43 99.99
44 3.04
45 1.18
55 13.17
56 1.6
57 1.52
69 3.85
70 34.03
71 50.64
72 2.02
73 1.98
85 1.15
88 1.54
89 45.34
90 2.08
101 1.97
115 1.15

>  <PREDICTED SPECTRUM>  (3241) 
14 4
26 59
27 283
28 88
29 282
31 90
37 15
38 52
39 307
40 130
41 580
42 461
43 999
44 231
45 258
53 154
54 124
55 525
56 121
57 49
58 32
59 91
60 45
68 25
69 203
70 856
71 765
72 184
73 132
86 23
87 127
88 155
89 722
90 142
101 60
115 168
116 0

$$$$

     RDKit          2D

 10  9  0  0  0  0  0  0  0  0999 V2000
    2.2733    2.8125    0.0000 C   0  0  0  0  0  0  0  0  0  0  0  0
    0.9743    5.0625    0.0000 C   0  0  0  0  0  0  0  0  0  0  0  0
   -5.5209    2.8125    0.0000 C   0  0  0  0  0  0  0  0  0  0  0  0
   -4.2219    5.0625    0.0000 C   0  0  0  0  0  0  0  0  0  0  0  0
   -0.3248    2.8125    0.0000 C   0  0  0  0  0  0  0  0  0  0  0  0
    0.9743    3.5625    0.0000 C   0  0  0  0  0  0  0  0  0  0  0  0
   -4.2219    3.5625    0.0000 C   0  0  0  0  0  0  0  0  0  0  0  0
   -2.9228    2.8125    0.0000 C   0  0  0  0  0  0  0  0  0  0  0  0
   -2.9228    1.3125    0.0000 O   0  0  0  0  0  0  0  0  0  0  0  0
   -1.6238    3.5625    0.0000 O   0  0  0  0  0  0  0  0  0  0  0  0
  6  1  1  0
  6  2  1  0
  6  5  1  0
  7  3  1  0
  7  4  1  0
  8  7  1  0
  9  8  2  0
 10  5  1  0
 10  8  1  0
M  END
>  <NAME>  (3242) 
ISOBUTYL ISOBUTYRATE

>  <SYNONYMS>  (3242) 


>  <SPECTRUM TYPE>  (3242) 
MS1

>  <INSTRUMENT TYPE>  (3242) 
EI-B

>  <INSTRUMENT>  (3242) 
HITACHI M-80B

>  <ION MODE>  (3242) 
P

>  <INCHIKEY>  (3242) 
RXGUIWHIADMCFC-UHFFFAOYSA-N

>  <FORMULA>  (3242) 
C8H16O2

>  <EXACT MASS>  (3242) 
144.115029752

>  <MW>  (3242) 
144

>  <ID>  (3242) 
JP006969

>  <CONTRIBUTOR>  (3242) 
University of Tokyo Team, {Faculty of Engineering, University of Tokyo

>  <COMMENT>  (3242) 
SMILES=CC(C)COC(=O)C(C)C
InChI=InChI=1S/C8H16O2/c1-6(2)5-10-8(9)7(3)4/h6-7H,5H2,1-4H3
computed SMILES=O=C(OCC(C)C)C(C)C
accession=JP006969
date=2016.01.19 (Created 2008.10.21, modified 2011.05.06)
author=SODA AROMATIC CO., LTD.
license=CC BY-NC-SA
exact mass=144.11503
ionization energy=70 eV
ion type=[M]+*
computed spectral entropy=2.4021046962869756
computed normalized entropy=0.7558414125490076
SPLASH=splash10-0596-9000000000-cc0e2f654a9c0d39e1ad
submitter=submitter = University of Tokyo Team (Faculty of Engineering, University of Tokyo)
MoNA Rating=3.75

>  <NUM PEAKS>  (3242) 
24

>  <MASS SPECTRAL PEAKS>  (3242) 
15 1.52
26 1.35
27 21.71
28 3.98
29 19.76
31 1.57
39 15.87
40 2.42
41 45.44
42 8.92
43 91.71
44 3.24
55 4.3
56 45.68
57 38.49
58 1.41
70 2.18
71 99.99
72 4.66
73 4.51
88 1.65
89 24.48
90 1.09
101 6.42

>  <PREDICTED SPECTRUM>  (3242) 
26 49
27 340
28 137
29 382
31 70
37 18
38 62
39 393
40 169
41 825
42 418
43 999
44 273
45 402
46 32
51 46
52 15
53 133
54 100
55 427
56 847
57 957
58 46
60 47
61 97
67 39
69 252
70 141
71 850
72 209
73 328
74 72
87 258
88 246
89 701
90 55
101 393
129 141

$$$$

     RDKit          2D

 10  9  0  0  0  0  0  0  0  0999 V2000
   -7.4695    3.9375    0.0000 C   0  0  0  0  0  0  0  0  0  0  0  0
    1.6238    3.1875    0.0000 C   0  0  0  0  0  0  0  0  0  0  0  0
    0.3248    5.4375    0.0000 C   0  0  0  0  0  0  0  0  0  0  0  0
   -6.1704    3.1875    0.0000 C   0  0  0  0  0  0  0  0  0  0  0  0
   -4.8714    3.9375    0.0000 C   0  0  0  0  0  0  0  0  0  0  0  0
   -3.5724    3.1875    0.0000 C   0  0  0  0  0  0  0  0  0  0  0  0
    0.3248    3.9375    0.0000 C   0  0  0  0  0  0  0  0  0  0  0  0
   -0.9743    3.1875    0.0000 C   0  0  0  0  0  0  0  0  0  0  0  0
   -0.9743    1.6875    0.0000 O   0  0  0  0  0  0  0  0  0  0  0  0
   -2.2733    3.9375    0.0000 O   0  0  0  0  0  0  0  0  0  0  0  0
  4  1  1  0
  5  4  1  0
  6  5  1  0
  7  2  1  0
  7  3  1  0
  8  7  1  0
  9  8  2  0
 10  6  1  0
 10  8  1  0
M  END
>  <NAME>  (3243) 
BUTYL ISOBUTYRATE

>  <SYNONYMS>  (3243) 


>  <SPECTRUM TYPE>  (3243) 
MS1

>  <INSTRUMENT TYPE>  (3243) 
EI-B

>  <INSTRUMENT>  (3243) 
HITACHI M-80B

>  <ION MODE>  (3243) 
P

>  <INCHIKEY>  (3243) 
JSLCOZYBKYHZNL-UHFFFAOYSA-N

>  <FORMULA>  (3243) 
C8H16O2

>  <EXACT MASS>  (3243) 
144.115029752

>  <MW>  (3243) 
144

>  <ID>  (3243) 
JP006968

>  <CONTRIBUTOR>  (3243) 
University of Tokyo Team, {Faculty of Engineering, University of Tokyo

>  <COMMENT>  (3243) 
SMILES=CCCCOC(=O)C(C)C
InChI=InChI=1S/C8H16O2/c1-4-5-6-10-8(9)7(2)3/h7H,4-6H2,1-3H3
computed SMILES=O=C(OCCCC)C(C)C
accession=JP006968
date=2016.01.19 (Created 2008.10.21, modified 2011.05.06)
author=SODA AROMATIC CO., LTD.
license=CC BY-NC-SA
exact mass=144.11503
ion type=[M]+*
ionization energy=70 eV
computed spectral entropy=2.5129366943627325
computed normalized entropy=0.7712898206167774
SPLASH=splash10-052f-9000000000-ddfd71ef6bb2b00f9175
submitter=submitter = University of Tokyo Team (Faculty of Engineering, University of Tokyo)
MoNA Rating=3.75

>  <NUM PEAKS>  (3243) 
26

>  <MASS SPECTRAL PEAKS>  (3243) 
15 1.76
26 2.26
27 32.21
28 10.85
29 35.4
31 2.06
38 1.01
39 16.74
40 2.59
41 58.02
42 9.07
43 99.99
44 3.07
45 1.34
55 8.62
56 43.65
57 41.56
58 1.72
70 1.04
71 77.96
72 3.27
73 5.55
88 2.57
89 60.04
90 2.21
101 3.91

>  <PREDICTED SPECTRUM>  (3243) 
14 14
15 6
19 4
25 13
26 93
27 415
28 186
29 427
31 116
36 10
37 56
38 97
39 446
40 205
41 884
42 430
43 999
44 272
45 400
46 42
50 43
51 90
52 33
53 155
54 108
55 490
56 869
57 926
60 64
61 67
69 255
70 274
71 905
72 227
73 334
74 93
87 242
88 228
89 737
90 65
101 347

$$$$

     RDKit          2D

  9  8  0  0  0  0  0  0  0  0999 V2000
    1.9486    2.6250    0.0000 C   0  0  0  0  0  0  0  0  0  0  0  0
    0.6495    4.8750    0.0000 C   0  0  0  0  0  0  0  0  0  0  0  0
   -4.5466    3.3750    0.0000 C   0  0  0  0  0  0  0  0  0  0  0  0
   -3.2476    1.1250    0.0000 C   0  0  0  0  0  0  0  0  0  0  0  0
    0.6495    3.3750    0.0000 C   0  0  0  0  0  0  0  0  0  0  0  0
   -3.2476    2.6250    0.0000 C   0  0  0  0  0  0  0  0  0  0  0  0
   -0.6495    2.6250    0.0000 C   0  0  0  0  0  0  0  0  0  0  0  0
   -0.6495    1.1250    0.0000 O   0  0  0  0  0  0  0  0  0  0  0  0
   -1.9486    3.3750    0.0000 O   0  0  0  0  0  0  0  0  0  0  0  0
  5  1  1  0
  5  2  1  0
  6  3  1  0
  6  4  1  0
  7  5  1  0
  8  7  2  0
  9  6  1  0
  9  7  1  0
M  END
>  <NAME>  (3244) 
ISOPROPYL ISOBUTYRATE

>  <SYNONYMS>  (3244) 


>  <SPECTRUM TYPE>  (3244) 
MS1

>  <INSTRUMENT TYPE>  (3244) 
EI-B

>  <INSTRUMENT>  (3244) 
HITACHI M-80B

>  <ION MODE>  (3244) 
P

>  <INCHIKEY>  (3244) 
WVRPFQGZHKZCEB-UHFFFAOYSA-N

>  <FORMULA>  (3244) 
C7H14O2

>  <EXACT MASS>  (3244) 
130.099379688

>  <MW>  (3244) 
130

>  <ID>  (3244) 
JP006967

>  <CONTRIBUTOR>  (3244) 
University of Tokyo Team, {Faculty of Engineering, University of Tokyo

>  <COMMENT>  (3244) 
SMILES=CC(C)OC(=O)C(C)C
InChI=InChI=1S/C7H14O2/c1-5(2)7(8)9-6(3)4/h5-6H,1-4H3
computed SMILES=O=C(OC(C)C)C(C)C
accession=JP006967
date=2016.01.19 (Created 2008.10.21, modified 2011.05.06)
author=SODA AROMATIC CO., LTD.
license=CC BY-NC-SA
exact mass=130.09938
ionization energy=70 eV
ion type=[M]+*
computed spectral entropy=1.918756469782993
computed normalized entropy=0.6638441800924639
SPLASH=splash10-0006-9000000000-5c39f457ab2fbfc2aa2a
submitter=submitter = University of Tokyo Team (Faculty of Engineering, University of Tokyo)
MoNA Rating=3.75

>  <NUM PEAKS>  (3244) 
18

>  <MASS SPECTRAL PEAKS>  (3244) 
15 1.41
18 1.35
27 10.33
29 1.19
39 5.8
40 1.25
41 20.15
42 6.08
43 99.99
44 3.52
45 5.34
59 4.11
71 33.63
72 1.57
73 1.86
88 1.84
89 13.67
115 3.03

>  <PREDICTED SPECTRUM>  (3244) 
14 30
15 76
25 3
26 84
27 343
28 126
29 124
31 0
37 35
38 64
39 302
40 108
41 461
42 282
43 999
44 212
45 193
53 67
55 128
59 44
60 140
61 90
70 169
71 472
72 57
73 114
74 26
87 210
88 145
89 92
115 73

$$$$

     RDKit          2D

  9  8  0  0  0  0  0  0  0  0999 V2000
    1.9486    3.3750    0.0000 C   0  0  0  0  0  0  0  0  0  0  0  0
   -5.8457    3.3750    0.0000 C   0  0  0  0  0  0  0  0  0  0  0  0
   -4.5466    5.6250    0.0000 C   0  0  0  0  0  0  0  0  0  0  0  0
    0.6495    4.1250    0.0000 C   0  0  0  0  0  0  0  0  0  0  0  0
   -0.6495    3.3750    0.0000 C   0  0  0  0  0  0  0  0  0  0  0  0
   -4.5466    4.1250    0.0000 C   0  0  0  0  0  0  0  0  0  0  0  0
   -3.2476    3.3750    0.0000 C   0  0  0  0  0  0  0  0  0  0  0  0
   -3.2476    1.8750    0.0000 O   0  0  0  0  0  0  0  0  0  0  0  0
   -1.9486    4.1250    0.0000 O   0  0  0  0  0  0  0  0  0  0  0  0
  4  1  1  0
  5  4  1  0
  6  2  1  0
  6  3  1  0
  7  6  1  0
  8  7  2  0
  9  5  1  0
  9  7  1  0
M  END
>  <NAME>  (3245) 
PROPYL ISOBUTYRATE

>  <SYNONYMS>  (3245) 


>  <SPECTRUM TYPE>  (3245) 
MS1

>  <INSTRUMENT TYPE>  (3245) 
EI-B

>  <INSTRUMENT>  (3245) 
HITACHI M-80B

>  <ION MODE>  (3245) 
P

>  <INCHIKEY>  (3245) 
AZFUASHXSOTBNU-UHFFFAOYSA-N

>  <FORMULA>  (3245) 
C7H14O2

>  <EXACT MASS>  (3245) 
130.099379688

>  <MW>  (3245) 
130

>  <ID>  (3245) 
JP006966

>  <CONTRIBUTOR>  (3245) 
University of Tokyo Team, {Faculty of Engineering, University of Tokyo

>  <COMMENT>  (3245) 
SMILES=CCCOC(=O)C(C)C
InChI=InChI=1S/C7H14O2/c1-4-5-9-7(8)6(2)3/h6H,4-5H2,1-3H3
computed SMILES=O=C(OCCC)C(C)C
accession=JP006966
date=2016.01.19 (Created 2008.10.21, modified 2011.05.06)
author=SODA AROMATIC CO., LTD.
license=CC BY-NC-SA
exact mass=130.09938
ionization energy=70 eV
ion type=[M]+*
computed spectral entropy=2.1568347315117555
computed normalized entropy=0.697769365531821
SPLASH=splash10-0006-9000000000-360dc434f089103e8062
submitter=submitter = University of Tokyo Team (Faculty of Engineering, University of Tokyo)
MoNA Rating=3.75

>  <NUM PEAKS>  (3245) 
22

>  <MASS SPECTRAL PEAKS>  (3245) 
15 1.6
26 1.72
27 23.75
28 3.39
29 4.88
31 2.31
39 10.75
40 1.7
41 27.71
42 11.9
43 99.99
44 2.99
55 1.24
57 1.29
59 3.25
71 48.01
72 1.88
73 2.72
88 1.4
89 34.15
90 1.43
101 2.18

>  <PREDICTED SPECTRUM>  (3245) 
14 29
15 80
16 0
25 12
26 98
27 374
28 140
29 206
31 110
33 16
36 5
37 57
38 93
39 361
40 159
41 555
42 348
43 999
44 204
45 230
47 24
53 76
54 62
55 202
57 59
59 104
60 156
61 157
70 245
71 566
72 99
73 180
74 65
87 286
88 272
89 144
130 17

$$$$

     RDKit          2D

  9  8  0  0  0  0  0  0  0  0999 V2000
    1.9486    3.3750    0.0000 C   0  0  0  0  0  0  0  0  0  0  0  0
   -5.8457    3.3750    0.0000 C   0  0  0  0  0  0  0  0  0  0  0  0
   -4.5466    5.6250    0.0000 C   0  0  0  0  0  0  0  0  0  0  0  0
    0.6495    4.1250    0.0000 C   0  0  0  0  0  0  0  0  0  0  0  0
   -0.6495    3.3750    0.0000 C   0  0  0  0  0  0  0  0  0  0  0  0
   -4.5466    4.1250    0.0000 C   0  0  0  0  0  0  0  0  0  0  0  0
   -3.2476    3.3750    0.0000 C   0  0  0  0  0  0  0  0  0  0  0  0
   -3.2476    1.8750    0.0000 O   0  0  0  0  0  0  0  0  0  0  0  0
   -1.9486    4.1250    0.0000 O   0  0  0  0  0  0  0  0  0  0  0  0
  4  1  2  0
  5  4  1  0
  6  2  1  0
  6  3  1  0
  7  6  1  0
  8  7  2  0
  9  5  1  0
  9  7  1  0
M  END
>  <NAME>  (3246) 
ALLYL ISOBUTYRATE

>  <SYNONYMS>  (3246) 


>  <SPECTRUM TYPE>  (3246) 
MS1

>  <INSTRUMENT TYPE>  (3246) 
EI-B

>  <INSTRUMENT>  (3246) 
HITACHI M-80B

>  <ION MODE>  (3246) 
P

>  <INCHIKEY>  (3246) 
QNBDJTKBKITRJI-UHFFFAOYSA-N

>  <FORMULA>  (3246) 
C7H12O2

>  <EXACT MASS>  (3246) 
128.083729624

>  <MW>  (3246) 
128

>  <ID>  (3246) 
JP006965

>  <CONTRIBUTOR>  (3246) 
University of Tokyo Team, {Faculty of Engineering, University of Tokyo

>  <COMMENT>  (3246) 
SMILES=C=CCOC(=O)C(C)C
InChI=InChI=1S/C7H12O2/c1-4-5-9-7(8)6(2)3/h4,6H,1,5H2,2-3H3
computed SMILES=O=C(OCC=C)C(C)C
accession=JP006965
date=2016.01.19 (Created 2008.10.21, modified 2011.05.06)
author=SODA AROMATIC CO., LTD.
license=CC BY-NC-SA
exact mass=128.08373
ionization energy=70 eV
ion type=[M]+*
computed spectral entropy=1.966983529648064
computed normalized entropy=0.6565952328291775
SPLASH=splash10-0006-9000000000-5aba6975562cf61c90ba
submitter=submitter = University of Tokyo Team (Faculty of Engineering, University of Tokyo)
MoNA Rating=3.75

>  <NUM PEAKS>  (3246) 
20

>  <MASS SPECTRAL PEAKS>  (3246) 
15 2.06
18 2.36
26 2.25
27 19.12
28 1.84
29 2.1
38 1.82
39 21.07
40 1.93
41 55.8
42 4.64
43 99.99
44 2.61
45 1.19
55 1.75
57 5.89
58 2.45
70 1.2
71 45.05
72 1.65

>  <PREDICTED SPECTRUM>  (3246) 
14 27
15 69
16 7
25 29
26 135
27 426
28 174
29 294
30 24
31 68
36 26
37 90
38 161
39 484
40 251
41 866
42 412
43 999
44 206
45 218
50 15
51 49
52 82
53 178
54 165
55 316
56 147
57 297
58 199
59 35
66 28
67 121
68 129
69 313
70 125
71 523
72 93
73 8
83 102
84 65
85 175
86 87
128 110

$$$$

     RDKit          2D

  8  7  0  0  0  0  0  0  0  0999 V2000
    1.6238    3.1875    0.0000 C   0  0  0  0  0  0  0  0  0  0  0  0
   -4.8714    3.9375    0.0000 C   0  0  0  0  0  0  0  0  0  0  0  0
   -3.5724    1.6875    0.0000 C   0  0  0  0  0  0  0  0  0  0  0  0
    0.3248    3.9375    0.0000 C   0  0  0  0  0  0  0  0  0  0  0  0
   -3.5724    3.1875    0.0000 C   0  0  0  0  0  0  0  0  0  0  0  0
   -2.2733    3.9375    0.0000 C   0  0  0  0  0  0  0  0  0  0  0  0
   -2.2733    5.4375    0.0000 O   0  0  0  0  0  0  0  0  0  0  0  0
   -0.9743    3.1875    0.0000 O   0  0  0  0  0  0  0  0  0  0  0  0
  4  1  1  0
  5  2  1  0
  5  3  1  0
  6  5  1  0
  7  6  2  0
  8  4  1  0
  8  6  1  0
M  END
>  <NAME>  (3247) 
ETHYL ISOBUTYRATE

>  <SYNONYMS>  (3247) 


>  <SPECTRUM TYPE>  (3247) 
MS1

>  <INSTRUMENT TYPE>  (3247) 
EI-B

>  <INSTRUMENT>  (3247) 
HITACHI M-80B

>  <ION MODE>  (3247) 
P

>  <INCHIKEY>  (3247) 
WDAXFOBOLVPGLV-UHFFFAOYSA-N

>  <FORMULA>  (3247) 
C6H12O2

>  <EXACT MASS>  (3247) 
116.083729624

>  <MW>  (3247) 
116

>  <ID>  (3247) 
JP006964

>  <CONTRIBUTOR>  (3247) 
University of Tokyo Team, {Faculty of Engineering, University of Tokyo

>  <COMMENT>  (3247) 
SMILES=CCOC(=O)C(C)C
InChI=InChI=1S/C6H12O2/c1-4-8-6(7)5(2)3/h5H,4H2,1-3H3
computed SMILES=O=C(OCC)C(C)C
accession=JP006964
date=2016.01.19 (Created 2008.10.21, modified 2011.05.06)
author=SODA AROMATIC CO., LTD.
license=CC BY-NC-SA
exact mass=116.08373
ionization energy=70 eV
ion type=[M]+*
computed spectral entropy=2.4073358502895736
computed normalized entropy=0.7388779989163418
SPLASH=splash10-002f-9000000000-a2cde32043924be5f69d
submitter=submitter = University of Tokyo Team (Faculty of Engineering, University of Tokyo)
MoNA Rating=3.75

>  <NUM PEAKS>  (3247) 
26

>  <MASS SPECTRAL PEAKS>  (3247) 
15 3.08
18 1.29
26 3.31
27 30.63
28 4.36
29 46.09
30 1.48
31 1.15
38 1.11
39 10.39
40 2.11
41 26.76
42 13.26
43 99.99
44 3.24
45 9.73
55 1.82
57 1.39
70 1.02
71 39.81
72 1.59
73 7.73
88 7.3
89 5.19
101 1.47
116 9.79

>  <PREDICTED SPECTRUM>  (3247) 
14 51
15 102
16 5
19 11
25 25
26 140
27 452
28 218
29 512
30 2
31 149
32 20
33 6
37 30
38 77
39 359
40 158
41 551
42 350
43 999
44 247
45 444
46 98
47 83
51 8
52 23
53 72
54 31
55 206
57 175
59 177
60 67
61 209
67 73
69 88
70 148
71 618
72 120
73 323
74 137
87 18
88 437
89 260
97 1
101 70
116 217
117 47

$$$$

     RDKit          2D

  7  6  0  0  0  0  0  0  0  0999 V2000
    1.6238    1.6875    0.0000 C   0  0  0  0  0  0  0  0  0  0  0  0
    0.3248    3.9375    0.0000 C   0  0  0  0  0  0  0  0  0  0  0  0
   -3.5724    1.6875    0.0000 C   0  0  0  0  0  0  0  0  0  0  0  0
    0.3248    2.4375    0.0000 C   0  0  0  0  0  0  0  0  0  0  0  0
   -0.9743    1.6875    0.0000 C   0  0  0  0  0  0  0  0  0  0  0  0
   -0.9743    0.1875    0.0000 O   0  0  0  0  0  0  0  0  0  0  0  0
   -2.2733    2.4375    0.0000 O   0  0  0  0  0  0  0  0  0  0  0  0
  4  1  1  0
  4  2  1  0
  5  4  1  0
  6  5  2  0
  7  3  1  0
  7  5  1  0
M  END
>  <NAME>  (3248) 
METHYL ISOBUTYRATE

>  <SYNONYMS>  (3248) 


>  <SPECTRUM TYPE>  (3248) 
MS1

>  <INSTRUMENT TYPE>  (3248) 
EI-B

>  <INSTRUMENT>  (3248) 
HITACHI M-80B

>  <ION MODE>  (3248) 
P

>  <INCHIKEY>  (3248) 
BHIWKHZACMWKOJ-UHFFFAOYSA-N

>  <FORMULA>  (3248) 
C5H10O2

>  <EXACT MASS>  (3248) 
102.06807956

>  <MW>  (3248) 
102

>  <ID>  (3248) 
JP006963

>  <CONTRIBUTOR>  (3248) 
University of Tokyo Team, {Faculty of Engineering, University of Tokyo

>  <COMMENT>  (3248) 
SMILES=COC(=O)C(C)C
InChI=InChI=1S/C5H10O2/c1-4(2)5(6)7-3/h4H,1-3H3
computed SMILES=O=C(OC)C(C)C
accession=JP006963
date=2016.01.19 (Created 2008.10.21, modified 2011.05.06)
author=SODA AROMATIC CO., LTD.
license=CC BY-NC-SA
exact mass=102.06808
ionization energy=70 eV
ion type=[M]+*
computed spectral entropy=2.4846035248827083
computed normalized entropy=0.7818003273439469
SPLASH=splash10-0006-9000000000-036e1ab23d11bbe83602
submitter=submitter = University of Tokyo Team (Faculty of Engineering, University of Tokyo)
MoNA Rating=3.75

>  <NUM PEAKS>  (3248) 
24

>  <MASS SPECTRAL PEAKS>  (3248) 
15 15.69
26 2.99
27 25.03
28 3.94
29 5.66
31 2.16
33 1.25
38 1.79
39 16.74
40 2.6
41 36.85
42 15.08
43 99.99
44 3.1
45 2.23
55 6.49
59 26.65
61 4.43
70 1.01
71 35.38
72 1.39
74 2.94
87 19
102 12.14

>  <PREDICTED SPECTRUM>  (3248) 
14 48
15 226
16 12
26 86
27 375
28 204
29 376
31 137
32 76
33 103
37 63
38 135
39 570
40 194
41 829
42 433
43 999
44 141
45 392
51 39
53 83
54 28
55 103
56 64
57 227
59 576
60 275
69 60
70 333
71 442
72 17
87 248
88 35
102 326
103 25

$$$$

     RDKit          2D

 15 15  0  0  0  0  0  0  0  0999 V2000
    7.7988    1.4680    0.0000 C   0  0  0  0  0  0  0  0  0  0  0  0
    6.4887   -0.7756    0.0000 C   0  0  0  0  0  0  0  0  0  0  0  0
   -3.9180   -0.7714    0.0000 C   0  0  0  0  0  0  0  0  0  0  0  0
    1.3000   -0.7500    0.0000 C   0  0  0  0  0  0  0  0  0  0  0  0
    0.0300    1.5000    0.0000 C   0  0  0  0  0  0  0  0  0  0  0  0
    0.0300   -1.5000    0.0000 C   0  0  0  0  0  0  0  0  0  0  0  0
   -1.3200    0.7500    0.0000 C   0  0  0  0  0  0  0  0  0  0  0  0
    2.6027    1.4936    0.0000 C   0  0  0  0  0  0  0  0  0  0  0  0
    6.4961    0.7244    0.0000 C   0  0  0  0  0  0  0  0  0  0  0  0
    1.3000    0.7500    0.0000 C   0  0  0  0  0  0  0  0  0  0  0  0
   -1.3200   -0.7500    0.0000 C   0  0  0  0  0  0  0  0  0  0  0  0
    5.2008    1.4808    0.0000 C   0  0  0  0  0  0  0  0  0  0  0  0
    5.2081    2.9808    0.0000 O   0  0  0  0  0  0  0  0  0  0  0  0
   -2.6128   -1.5107    0.0000 O   0  0  0  0  0  0  0  0  0  0  0  0
    3.8980    0.7372    0.0000 O   0  0  0  0  0  0  0  0  0  0  0  0
  6  4  2  0
  7  5  1  0
  9  1  1  0
  9  2  1  0
 10  4  1  0
 10  5  2  0
 10  8  1  0
 11  6  1  0
 11  7  2  0
 12  9  1  0
 13 12  2  0
 14  3  1  0
 14 11  1  0
 15  8  1  0
 15 12  1  0
M  END
>  <NAME>  (3249) 
P-METHOXYBENZYL ISOBUTYRATE

>  <SYNONYMS>  (3249) 


>  <SPECTRUM TYPE>  (3249) 
MS1

>  <INSTRUMENT TYPE>  (3249) 
EI-B

>  <INSTRUMENT>  (3249) 
HITACHI M-80B

>  <ION MODE>  (3249) 
P

>  <INCHIKEY>  (3249) 
ZOXXODFRADWDHG-UHFFFAOYSA-N

>  <FORMULA>  (3249) 
C12H16O3

>  <EXACT MASS>  (3249) 
208.10994437199997

>  <MW>  (3249) 
208

>  <ID>  (3249) 
JP006962

>  <CONTRIBUTOR>  (3249) 
University of Tokyo Team, {Faculty of Engineering, University of Tokyo

>  <COMMENT>  (3249) 
SMILES=COc(c1)ccc(COC(=O)C(C)C)c1
InChI=InChI=1S/C12H16O3/c1-9(2)12(13)15-8-10-4-6-11(14-3)7-5-10/h4-7,9H,8H2,1-3H3
computed SMILES=O=C(OCC1=CC=C(OC)C=C1)C(C)C
accession=JP006962
date=2016.01.19 (Created 2008.10.21, modified 2011.05.06)
author=SODA AROMATIC CO., LTD.
license=CC BY-NC-SA
exact mass=208.10994
ionization energy=70 eV
ion type=[M]+*
computed spectral entropy=2.299567433672959
computed normalized entropy=0.6761052581279969
SPLASH=splash10-00di-5910000000-2853e02f231ebdfc0a49
submitter=submitter = University of Tokyo Team (Faculty of Engineering, University of Tokyo)
MoNA Rating=3.75

>  <NUM PEAKS>  (3249) 
30

>  <MASS SPECTRAL PEAKS>  (3249) 
27 5.01
28 1.23
39 4.54
41 6.01
43 13.52
50 1.08
51 3.98
52 2.3
63 1.66
64 1.15
65 1.78
71 1.82
77 8.47
78 9.17
89 2.43
90 1.65
91 5.52
92 1.99
94 1.04
105 1.32
106 1.16
109 1.93
120 7.35
121 99.99
122 8.54
135 1.36
137 1.21
138 2.27
208 12.83
209 1.39

>  <PREDICTED SPECTRUM>  (3249) 
15 10
26 37
27 154
28 51
29 128
36 51
37 43
38 114
39 262
40 123
41 258
42 121
43 509
44 159
45 67
50 129
51 230
52 193
53 150
54 46
55 130
56 47
57 27
62 59
63 146
64 131
65 173
66 100
67 48
69 41
71 180
72 5
74 24
76 68
77 333
78 284
79 129
80 16
81 7
89 143
90 134
91 262
92 164
93 59
94 93
95 26
105 120
106 145
107 145
108 86
109 161
110 30
118 34
119 115
120 208
121 999
122 370
123 66
135 89
136 162
137 299
138 361
139 153
208 360
209 138
210 26

$$$$

     RDKit          2D

 15 15  0  0  0  0  0  0  0  0999 V2000
   10.0231    1.2915    0.0000 C   0  0  0  0  0  0  0  0  0  0  0  0
    8.7245   -0.9588    0.0000 C   0  0  0  0  0  0  0  0  0  0  0  0
   -1.6700   -0.9600    0.0000 C   0  0  0  0  0  0  0  0  0  0  0  0
   -1.6700    0.5400    0.0000 C   0  0  0  0  0  0  0  0  0  0  0  0
   -0.3700   -1.7100    0.0000 C   0  0  0  0  0  0  0  0  0  0  0  0
   -0.3700    1.2900    0.0000 C   0  0  0  0  0  0  0  0  0  0  0  0
    0.9300   -0.9600    0.0000 C   0  0  0  0  0  0  0  0  0  0  0  0
    3.5281    0.5404    0.0000 C   0  0  0  0  0  0  0  0  0  0  0  0
    4.8270    1.2906    0.0000 C   0  0  0  0  0  0  0  0  0  0  0  0
    8.7242    0.5412    0.0000 C   0  0  0  0  0  0  0  0  0  0  0  0
    0.9300    0.5400    0.0000 C   0  0  0  0  0  0  0  0  0  0  0  0
    7.4251    1.2910    0.0000 C   0  0  0  0  0  0  0  0  0  0  0  0
    7.4248    2.7910    0.0000 O   0  0  0  0  0  0  0  0  0  0  0  0
    2.2289    1.2902    0.0000 O   0  0  0  0  0  0  0  0  0  0  0  0
    6.1262    0.5408    0.0000 O   0  0  0  0  0  0  0  0  0  0  0  0
  4  3  2  0
  5  3  1  0
  6  4  1  0
  7  5  2  0
  9  8  1  0
 10  1  1  0
 10  2  1  0
 11  6  2  0
 11  7  1  0
 12 10  1  0
 13 12  2  0
 14  8  1  0
 14 11  1  0
 15  9  1  0
 15 12  1  0
M  END
>  <NAME>  (3250) 
PHENOXYETHYL ISOBUTYRATE

>  <SYNONYMS>  (3250) 


>  <SPECTRUM TYPE>  (3250) 
MS1

>  <INSTRUMENT TYPE>  (3250) 
EI-B

>  <INSTRUMENT>  (3250) 
HITACHI M-80B

>  <ION MODE>  (3250) 
P

>  <INCHIKEY>  (3250) 
MJTPMXWJHPOWGH-UHFFFAOYSA-N

>  <FORMULA>  (3250) 
C12H16O3

>  <EXACT MASS>  (3250) 
208.10994437199997

>  <MW>  (3250) 
208

>  <ID>  (3250) 
JP006961

>  <CONTRIBUTOR>  (3250) 
University of Tokyo Team, {Faculty of Engineering, University of Tokyo

>  <COMMENT>  (3250) 
SMILES=CC(C)C(=O)OCCOc(c1)cccc1
InChI=InChI=1S/C12H16O3/c1-10(2)12(13)15-9-8-14-11-6-4-3-5-7-11/h3-7,10H,8-9H2,1-2H3
computed SMILES=O=C(OCCOC=1C=CC=CC1)C(C)C
accession=JP006961
date=2016.01.19 (Created 2008.10.21, modified 2011.05.06)
author=SODA AROMATIC CO., LTD.
license=CC BY-NC-SA
exact mass=208.10994
ionization energy=70 eV
ion type=[M]+*
computed spectral entropy=2.315177404462344
computed normalized entropy=0.6875479676734086
SPLASH=splash10-014l-9500000000-69ef91cea075b4387062
submitter=submitter = University of Tokyo Team (Faculty of Engineering, University of Tokyo)
MoNA Rating=3.75

>  <NUM PEAKS>  (3250) 
29

>  <MASS SPECTRAL PEAKS>  (3250) 
27 9.09
38 1.11
39 11.28
40 1.3
41 10.61
42 1.86
43 68.82
44 2.3
45 1.72
50 1.48
51 7.5
55 1.78
63 1.63
65 10.73
66 1.82
71 13.89
77 21.06
78 1.65
79 1.05
91 2.84
93 1.72
94 6.63
107 1.56
115 99.99
116 7.23
119 1.1
120 4.56
121 1.45
208 1.68

>  <PREDICTED SPECTRUM>  (3250) 
14 1
15 18
18 12
26 63
27 187
28 68
29 118
30 79
31 43
37 53
38 115
39 341
40 130
41 343
42 161
43 999
44 323
45 308
50 158
51 337
52 119
53 128
55 48
61 64
62 116
63 219
64 154
65 385
66 218
69 162
70 55
71 944
72 205
73 131
74 126
75 50
76 100
77 539
78 159
79 229
80 4
81 61
87 135
89 103
90 22
91 334
92 164
93 310
94 474
95 131
102 38
103 149
104 30
105 30
107 184
108 49
115 630
116 184
117 56
119 96
120 256
121 560
122 51
208 198
209 74

$$$$

     RDKit          2D

 16 16  0  0  0  0  0  0  0  0999 V2000
   -7.4692    4.2571    0.0000 C   0  0  0  0  0  0  0  0  0  0  0  0
   -1.9382    2.3580    0.0000 C   0  0  0  0  0  0  0  0  0  0  0  0
   -0.0099    2.3580    0.0000 C   0  0  0  0  0  0  0  0  0  0  0  0
   -6.1702    3.5071    0.0000 C   0  0  0  0  0  0  0  0  0  0  0  0
    4.2221    2.0071    0.0000 C   0  0  0  0  0  0  0  0  0  0  0  0
    4.2226    3.5079    0.0000 C   0  0  0  0  0  0  0  0  0  0  0  0
    2.9226    1.2563    0.0000 C   0  0  0  0  0  0  0  0  0  0  0  0
   -4.8712    4.2571    0.0000 C   0  0  0  0  0  0  0  0  0  0  0  0
    2.9236    4.2579    0.0000 C   0  0  0  0  0  0  0  0  0  0  0  0
    1.6236    2.0063    0.0000 C   0  0  0  0  0  0  0  0  0  0  0  0
    0.3250    4.2571    0.0000 C   0  0  0  0  0  0  0  0  0  0  0  0
    1.6240    3.5071    0.0000 C   0  0  0  0  0  0  0  0  0  0  0  0
   -3.5721    3.5071    0.0000 C   0  0  0  0  0  0  0  0  0  0  0  0
   -0.9740    3.5071    0.0000 C   0  0  0  0  0  0  0  0  0  0  0  0
   -3.5721    2.0071    0.0000 O   0  0  0  0  0  0  0  0  0  0  0  0
   -2.2731    4.2571    0.0000 O   0  0  0  0  0  0  0  0  0  0  0  0
  4  1  1  0
  6  5  2  0
  7  5  1  0
  8  4  1  0
  9  6  1  0
 10  7  2  0
 12  9  2  0
 12 10  1  0
 12 11  1  0
 13  8  1  0
 14  2  1  0
 14  3  1  0
 14 11  1  0
 15 13  2  0
 16 13  1  0
 16 14  1  0
M  END
>  <NAME>  (3251) 
1,1-DIMETHYL-2-PHENYLETHYL BUTYRATE

>  <SYNONYMS>  (3251) 


>  <SPECTRUM TYPE>  (3251) 
MS1

>  <INSTRUMENT TYPE>  (3251) 
EI-B

>  <INSTRUMENT>  (3251) 
HITACHI M-80B

>  <ION MODE>  (3251) 
P

>  <INCHIKEY>  (3251) 
SHSGYHAHMQLYRB-UHFFFAOYSA-N

>  <FORMULA>  (3251) 
C14H20O2

>  <EXACT MASS>  (3251) 
220.14632988

>  <MW>  (3251) 
220

>  <ID>  (3251) 
JP006960

>  <CONTRIBUTOR>  (3251) 
University of Tokyo Team, {Faculty of Engineering, University of Tokyo

>  <COMMENT>  (3251) 
SMILES=CCCC(=O)OC(C)(C)Cc(c1)cccc1
InChI=InChI=1S/C14H20O2/c1-4-8-13(15)16-14(2,3)11-12-9-6-5-7-10-12/h5-7,9-10H,4,8,11H2,1-3H3
computed SMILES=O=C(OC(C)(C)CC=1C=CC=CC1)CCC
accession=JP006960
date=2016.01.19 (Created 2008.10.21, modified 2011.05.06)
author=SODA AROMATIC CO., LTD.
license=CC BY-NC-SA
exact mass=220.14633
ionization energy=70 eV
ion type=[M]+*
computed spectral entropy=2.3092567595347595
computed normalized entropy=0.7006586956272387
SPLASH=splash10-00dl-9200000000-c7d5914837406e6d5d1e
submitter=submitter = University of Tokyo Team (Faculty of Engineering, University of Tokyo)
MoNA Rating=3.75

>  <NUM PEAKS>  (3251) 
27

>  <MASS SPECTRAL PEAKS>  (3251) 
27 7.11
29 2.38
39 5.9
41 9.47
42 1.97
43 41.62
44 1
51 1.79
55 4.21
59 2.39
63 1.2
65 5.61
71 99.99
72 3.27
77 1.94
78 1.1
89 1.25
91 28.24
92 2.3
105 1.66
115 2.24
117 8.07
129 3.3
131 1.28
132 30.34
133 9.52
162 1.86

>  <PREDICTED SPECTRUM>  (3251) 
26 45
27 212
28 71
29 169
31 2
37 0
38 55
39 233
40 100
41 330
42 168
43 823
44 22
45 14
50 48
51 164
52 97
53 77
55 211
57 33
58 78
59 45
60 35
62 12
63 89
64 54
65 210
66 49
67 10
69 85
70 119
71 999
72 154
73 15
75 4
76 34
77 182
78 136
79 91
87 1
88 36
89 215
90 113
91 575
92 214
102 53
103 89
104 124
105 260
106 106
107 131
115 264
117 147
122 18
128 73
129 281
130 102
131 294
132 347
133 296
134 43
135 43
150 28
220 47

$$$$

     RDKit          2D

 15 15  0  0  0  0  0  0  0  0999 V2000
    4.8721    3.8829    0.0000 C   0  0  0  0  0  0  0  0  0  0  0  0
    3.5731    3.1329    0.0000 C   0  0  0  0  0  0  0  0  0  0  0  0
   -8.1183    5.3829    0.0000 C   0  0  0  0  0  0  0  0  0  0  0  0
   -8.1187    3.8821    0.0000 C   0  0  0  0  0  0  0  0  0  0  0  0
   -6.8187    6.1337    0.0000 C   0  0  0  0  0  0  0  0  0  0  0  0
   -2.9221    3.8829    0.0000 C   0  0  0  0  0  0  0  0  0  0  0  0
    2.2740    3.8829    0.0000 C   0  0  0  0  0  0  0  0  0  0  0  0
   -6.8197    3.1321    0.0000 C   0  0  0  0  0  0  0  0  0  0  0  0
   -5.5197    5.3837    0.0000 C   0  0  0  0  0  0  0  0  0  0  0  0
   -4.2212    3.1329    0.0000 C   0  0  0  0  0  0  0  0  0  0  0  0
   -1.6231    3.1329    0.0000 C   0  0  0  0  0  0  0  0  0  0  0  0
   -5.5202    3.8829    0.0000 C   0  0  0  0  0  0  0  0  0  0  0  0
    0.9750    3.1329    0.0000 C   0  0  0  0  0  0  0  0  0  0  0  0
    0.9750    1.6329    0.0000 O   0  0  0  0  0  0  0  0  0  0  0  0
   -0.3240    3.8829    0.0000 O   0  0  0  0  0  0  0  0  0  0  0  0
  2  1  1  0
  4  3  2  0
  5  3  1  0
  7  2  1  0
  8  4  1  0
  9  5  2  0
 10  6  1  0
 11  6  1  0
 12  8  2  0
 12  9  1  0
 12 10  1  0
 13  7  1  0
 14 13  2  0
 15 11  1  0
 15 13  1  0
M  END
>  <NAME>  (3252) 
3-PHENYLPROPYL BUTYRATE

>  <SYNONYMS>  (3252) 


>  <SPECTRUM TYPE>  (3252) 
MS1

>  <INSTRUMENT TYPE>  (3252) 
EI-B

>  <INSTRUMENT>  (3252) 
HITACHI M-80B

>  <ION MODE>  (3252) 
P

>  <INCHIKEY>  (3252) 
IWBHCESPSIQPME-UHFFFAOYSA-N

>  <FORMULA>  (3252) 
C13H18O2

>  <EXACT MASS>  (3252) 
206.130679816

>  <MW>  (3252) 
206

>  <ID>  (3252) 
JP006959

>  <CONTRIBUTOR>  (3252) 
University of Tokyo Team, {Faculty of Engineering, University of Tokyo

>  <COMMENT>  (3252) 
SMILES=CCCC(=O)OCCCc(c1)cccc1
InChI=InChI=1S/C13H18O2/c1-2-7-13(14)15-11-6-10-12-8-4-3-5-9-12/h3-5,8-9H,2,6-7,10-11H2,1H3
computed SMILES=O=C(OCCCC=1C=CC=CC1)CCC
accession=JP006959
date=2016.01.19 (Created 2008.10.21, modified 2011.05.06)
author=SODA AROMATIC CO., LTD.
license=CC BY-NC-SA
exact mass=206.13068
ionization energy=70 eV
ion type=[M]+*
computed spectral entropy=2.3452109015307236
computed normalized entropy=0.7198101327454468
SPLASH=splash10-014i-6900000000-f0baf07b16566c201abc
submitter=submitter = University of Tokyo Team (Faculty of Engineering, University of Tokyo)
MoNA Rating=3.75

>  <NUM PEAKS>  (3252) 
26

>  <MASS SPECTRAL PEAKS>  (3252) 
27 9.07
28 1.46
29 1.54
39 7.19
41 12.17
42 2.03
43 24.2
51 3.41
52 1
63 1.62
65 7.53
71 12.21
77 5.61
78 3.27
79 2.43
89 1.55
91 35.54
92 3.46
103 3.5
104 2.09
105 3.33
115 2.5
116 2.64
117 68.9
118 99.99
119 10.55

>  <PREDICTED SPECTRUM>  (3252) 
25 11
26 77
27 195
28 81
29 174
31 37
36 13
37 11
38 45
39 237
40 98
41 262
42 154
43 454
44 118
45 6
50 122
51 177
52 99
53 96
54 74
55 144
56 66
57 57
60 43
61 38
62 42
63 99
64 41
65 206
66 62
67 30
70 29
71 257
76 39
77 215
78 163
79 149
86 14
87 53
89 76
90 72
91 540
92 219
102 58
103 158
104 132
105 188
106 44
107 52
115 185
116 209
117 741
118 999
119 429
120 100
134 7
135 22
163 46
164 4

$$$$

     RDKit          2D

 11 11  0  0  0  0  0  0  0  0999 V2000
   -0.3123    3.2070    0.0000 C   0  0  0  0  0  0  0  0  0  0  0  0
   -2.3640    2.6681    0.0000 C   0  0  0  0  0  0  0  0  0  0  0  0
   -1.8251    0.6164    0.0000 C   0  0  0  0  0  0  0  0  0  0  0  0
    1.5257    1.9053    0.0000 C   0  0  0  0  0  0  0  0  0  0  0  0
    0.2121   -0.3195    0.0000 C   0  0  0  0  0  0  0  0  0  0  0  0
    2.8102    1.1805    0.0000 C   0  0  0  0  0  0  0  0  0  0  0  0
    1.5366   -1.1137    0.0000 C   0  0  0  0  0  0  0  0  0  0  0  0
    0.2266    1.1553    0.0000 C   0  0  0  0  0  0  0  0  0  0  0  0
    2.8357   -0.3637    0.0000 C   0  0  0  0  0  0  0  0  0  0  0  0
   -1.0687    1.9117    0.0000 C   0  0  0  0  0  0  0  0  0  0  0  0
    4.1409   -1.1029    0.0000 O   0  0  0  0  0  0  0  0  0  0  0  0
  6  4  1  0
  7  5  1  0
  8  4  1  0
  8  5  1  0
  9  6  1  0
  9  7  1  0
 10  1  1  0
 10  2  1  0
 10  3  1  0
 10  8  1  0
 11  9  2  0
M  END
>  <NAME>  (3253) 
4-TERT-BUTYLCYCLOHEXANONE

>  <SYNONYMS>  (3253) 
4-(1,1-DIMETHYLETHYL)CYCLOHEXANONE

>  <SPECTRUM TYPE>  (3253) 
MS1

>  <INSTRUMENT TYPE>  (3253) 
EI-B

>  <INSTRUMENT>  (3253) 
HITACHI M-80B

>  <ION MODE>  (3253) 
P

>  <INCHIKEY>  (3253) 
YKFKEYKJGVSEIX-UHFFFAOYSA-N

>  <FORMULA>  (3253) 
C10H18O

>  <EXACT MASS>  (3253) 
154.135765196

>  <MW>  (3253) 
154

>  <ID>  (3253) 
JP006958

>  <CONTRIBUTOR>  (3253) 
University of Tokyo Team, {Faculty of Engineering, University of Tokyo

>  <COMMENT>  (3253) 
SMILES=O=C(C1)CCC(C1)C(C)(C)C
InChI=InChI=1S/C10H18O/c1-10(2,3)8-4-6-9(11)7-5-8/h8H,4-7H2,1-3H3
computed SMILES=O=C1CCC(CC1)C(C)(C)C
accession=JP006958
date=2016.01.19 (Created 2008.10.21, modified 2011.05.06)
author=TAJIMA S, GUNMA COLLEGE OF TECHNOLOGY
license=CC BY-NC-SA
exact mass=154.13577
ionization energy=70 eV
ion type=[M]+*
computed spectral entropy=2.7758513248259886
computed normalized entropy=0.7746160610558711
SPLASH=splash10-0a4l-9000000000-c3620720df14df5e00ad
submitter=submitter = University of Tokyo Team (Faculty of Engineering, University of Tokyo)
MoNA Rating=3.75

>  <NUM PEAKS>  (3253) 
36

>  <MASS SPECTRAL PEAKS>  (3253) 
15 2.16
27 14.19
28 6.79
29 19.05
32 1.26
39 18.1
40 2.29
41 49.77
42 6.44
43 14.53
51 1.74
53 6.25
54 2.86
55 23.43
56 5.5
57 99.99
58 3.96
65 1.29
67 4.99
68 1.97
69 14.5
70 6.8
77 1.07
79 1.98
80 1.23
81 2.19
83 18.99
84 1.03
95 1.48
97 6.47
98 54.47
99 5.97
121 1.05
139 2.18
154 11.13
155 1.17

>  <PREDICTED SPECTRUM>  (3253) 
27 131
28 30
29 119
39 211
40 61
41 861
42 206
43 753
44 24
50 44
51 74
52 66
53 334
54 105
55 904
56 475
57 999
58 303
59 9
65 104
67 357
68 145
69 570
70 565
71 256
77 41
79 209
81 250
82 132
83 713
84 187
85 5
91 114
93 197
95 223
96 277
97 527
98 477
99 202
111 325
112 61
121 177
125 82
126 181
139 610
140 82
154 617
155 173

$$$$

     RDKit          2D

 11 11  0  0  0  0  0  0  0  0999 V2000
   -7.2984   -0.2095    0.0000 C   0  0  0  0  0  0  0  0  0  0  0  0
   -6.1861    0.7970    0.0000 C   0  0  0  0  0  0  0  0  0  0  0  0
   -4.7584    0.3370    0.0000 C   0  0  0  0  0  0  0  0  0  0  0  0
   -3.6462    1.3435    0.0000 C   0  0  0  0  0  0  0  0  0  0  0  0
    0.1038    3.9857    0.0000 C   0  0  0  0  0  0  0  0  0  0  0  0
   -2.2185    0.8835    0.0000 C   0  0  0  0  0  0  0  0  0  0  0  0
   -1.2720    3.3828    0.0000 C   0  0  0  0  0  0  0  0  0  0  0  0
    1.1035    2.8774    0.0000 C   0  0  0  0  0  0  0  0  0  0  0  0
   -1.1062    1.8900    0.0000 C   0  0  0  0  0  0  0  0  0  0  0  0
    0.3535    1.5783    0.0000 C   0  0  0  0  0  0  0  0  0  0  0  0
    0.9630    0.2077    0.0000 O   0  0  0  0  0  0  0  0  0  0  0  0
  2  1  1  0
  3  2  1  0
  4  3  1  0
  6  4  1  0
  7  5  1  0
  8  5  1  0
  9  6  1  0
  9  7  1  0
 10  8  1  0
 10  9  1  0
 11 10  2  0
M  END
>  <NAME>  (3254) 
2-PENTYLCYCLOPENTANONE

>  <SYNONYMS>  (3254) 


>  <SPECTRUM TYPE>  (3254) 
MS1

>  <INSTRUMENT TYPE>  (3254) 
EI-B

>  <INSTRUMENT>  (3254) 
HITACHI M-80B

>  <ION MODE>  (3254) 
P

>  <INCHIKEY>  (3254) 
VNWOJVJCRAHBJJ-UHFFFAOYSA-N

>  <FORMULA>  (3254) 
C10H18O

>  <EXACT MASS>  (3254) 
154.135765196

>  <MW>  (3254) 
154

>  <ID>  (3254) 
JP006957

>  <CONTRIBUTOR>  (3254) 
University of Tokyo Team, {Faculty of Engineering, University of Tokyo

>  <COMMENT>  (3254) 
SMILES=CCCCCC(C1)C(=O)CC1
InChI=InChI=1S/C10H18O/c1-2-3-4-6-9-7-5-8-10(9)11/h9H,2-8H2,1H3
computed SMILES=O=C1CCCC1CCCCC
accession=JP006957
date=2016.01.19 (Created 2008.10.21, modified 2011.05.06)
author=TAJIMA S, GUNMA COLLEGE OF TECHNOLOGY
license=CC BY-NC-SA
exact mass=154.13577
ionization energy=70 eV
ion type=[M]+*
computed spectral entropy=2.5511194327830324
computed normalized entropy=0.7576166638121842
SPLASH=splash10-001i-9000000000-7f42ad28534ef6a15ae4
submitter=submitter = University of Tokyo Team (Faculty of Engineering, University of Tokyo)
MoNA Rating=3.75

>  <NUM PEAKS>  (3254) 
29

>  <MASS SPECTRAL PEAKS>  (3254) 
26 1.11
27 16.66
28 1.76
29 17.13
39 15.12
40 1.34
41 35.06
42 7.83
43 7.03
53 3.57
54 4.59
55 22.86
56 11.61
57 2.92
67 2.88
68 1.56
69 6.32
70 3.68
79 1.18
81 1.37
82 1.12
83 16.41
84 99.99
85 4.72
97 14.24
98 1.46
111 1.03
112 1.12
154 3.95

>  <PREDICTED SPECTRUM>  (3254) 
27 64
28 10
29 19
38 28
39 215
40 82
41 410
42 216
43 140
44 51
51 99
52 44
53 216
54 186
55 559
56 214
57 107
65 85
66 75
67 227
68 166
69 233
70 178
71 91
77 83
78 6
79 17
81 150
82 91
83 780
84 999
85 146
93 64
97 299
98 6
109 14
111 200
125 75
139 27
153 2
154 322
155 85

$$$$

     RDKit          2D

 11 11  0  0  0  0  0  0  0  0999 V2000
   -7.2984   -0.2095    0.0000 C   0  0  0  0  0  0  0  0  0  0  0  0
   -6.1861    0.7970    0.0000 C   0  0  0  0  0  0  0  0  0  0  0  0
   -4.7584    0.3370    0.0000 C   0  0  0  0  0  0  0  0  0  0  0  0
   -3.6462    1.3435    0.0000 C   0  0  0  0  0  0  0  0  0  0  0  0
    0.1038    3.9857    0.0000 C   0  0  0  0  0  0  0  0  0  0  0  0
   -2.2185    0.8835    0.0000 C   0  0  0  0  0  0  0  0  0  0  0  0
   -1.2720    3.3828    0.0000 C   0  0  0  0  0  0  0  0  0  0  0  0
    1.1035    2.8774    0.0000 C   0  0  0  0  0  0  0  0  0  0  0  0
   -1.1062    1.8900    0.0000 C   0  0  0  0  0  0  0  0  0  0  0  0
    0.3535    1.5783    0.0000 C   0  0  0  0  0  0  0  0  0  0  0  0
    0.9630    0.2077    0.0000 O   0  0  0  0  0  0  0  0  0  0  0  0
  2  1  1  0
  3  2  1  0
  4  3  1  0
  6  4  1  0
  7  5  1  0
  8  5  1  0
  9  6  1  0
  9  7  2  0
 10  8  1  0
 10  9  1  0
 11 10  2  0
M  END
>  <NAME>  (3255) 
2-PENTYL-2-CYCLOPENTENONE

>  <SYNONYMS>  (3255) 


>  <SPECTRUM TYPE>  (3255) 
MS1

>  <INSTRUMENT TYPE>  (3255) 
EI-B

>  <INSTRUMENT>  (3255) 
HITACHI M-80B

>  <ION MODE>  (3255) 
P

>  <INCHIKEY>  (3255) 
ILHZVKAXFCDFMT-UHFFFAOYSA-N

>  <FORMULA>  (3255) 
C10H16O

>  <EXACT MASS>  (3255) 
152.120115132

>  <MW>  (3255) 
152

>  <ID>  (3255) 
JP006956

>  <CONTRIBUTOR>  (3255) 
University of Tokyo Team, {Faculty of Engineering, University of Tokyo

>  <COMMENT>  (3255) 
SMILES=CCCCCC(=C1)C(=O)CC1
InChI=InChI=1S/C10H16O/c1-2-3-4-6-9-7-5-8-10(9)11/h7H,2-6,8H2,1H3
computed SMILES=O=C1C(=CCC1)CCCCC
accession=JP006956
date=2016.01.19 (Created 2008.10.21, modified 2011.05.06)
author=TAJIMA S, GUNMA COLLEGE OF TECHNOLOGY
license=CC BY-NC-SA
exact mass=152.12012
ionization energy=70 eV
ion type=[M]+*
computed spectral entropy=3.357565064578564
computed normalized entropy=0.8456720910414453
SPLASH=splash10-0002-9100000000-9bf391a89a17ea3452e5
submitter=submitter = University of Tokyo Team (Faculty of Engineering, University of Tokyo)
MoNA Rating=3.75

>  <NUM PEAKS>  (3255) 
53

>  <MASS SPECTRAL PEAKS>  (3255) 
15 2.25
26 4
27 43.57
28 10.67
29 30.77
38 2
39 45.24
40 5.18
41 75.49
42 6.06
43 9.99
44 1.48
50 3.1
51 8.94
52 8.04
53 24.02
54 7.89
55 18.32
56 1.1
57 1.27
63 2.84
65 12.54
66 10.18
67 54.45
68 22.85
69 5.22
77 9.38
78 3.46
79 17.51
80 3.62
81 22.23
82 4.91
83 3.68
84 1.25
91 4.57
93 4.23
94 2.5
95 30.69
96 99.99
97 70.75
98 4.54
105 1.77
108 3.22
109 35.29
110 21.27
111 3.29
119 2.82
123 29.27
124 6.33
137 10.15
151 4.25
152 25.72
153 3.65

>  <PREDICTED SPECTRUM>  (3255) 
26 72
27 322
28 85
29 246
38 69
39 489
40 224
41 730
42 318
43 469
44 53
50 149
51 326
52 277
53 577
54 499
55 395
56 89
57 41
59 61
62 1
63 157
64 58
65 354
66 282
67 760
68 568
69 374
70 96
71 99
77 431
78 211
79 537
80 189
81 663
82 589
83 236
84 51
89 64
91 295
92 49
93 277
94 125
95 840
96 999
97 398
98 131
105 164
106 68
107 167
108 90
109 728
110 411
111 118
119 158
121 110
123 619
124 388
125 95
133 97
134 125
135 152
137 386
138 86
151 178
152 727
153 275
154 32

$$$$

     RDKit          2D

 10 10  0  0  0  0  0  0  0  0999 V2000
    0.1783   -2.1596    0.0000 C   0  0  0  0  0  0  0  0  0  0  0  0
   -1.6344    3.0000    0.0000 C   0  0  0  0  0  0  0  0  0  0  0  0
   -2.5989    1.3300    0.0000 C   0  0  0  0  0  0  0  0  0  0  0  0
    1.4783    0.0904    0.0000 C   0  0  0  0  0  0  0  0  0  0  0  0
   -1.1217    0.0904    0.0000 C   0  0  0  0  0  0  0  0  0  0  0  0
    0.1783    2.3404    0.0000 C   0  0  0  0  0  0  0  0  0  0  0  0
    0.1783   -0.6596    0.0000 C   0  0  0  0  0  0  0  0  0  0  0  0
    1.4783    1.5904    0.0000 C   0  0  0  0  0  0  0  0  0  0  0  0
   -1.1217    1.5904    0.0000 C   0  0  0  0  0  0  0  0  0  0  0  0
    2.7772    2.3406    0.0000 O   0  0  0  0  0  0  0  0  0  0  0  0
  7  1  1  0
  7  4  1  0
  7  5  1  0
  8  4  1  0
  8  6  1  0
  9  2  1  0
  9  3  1  0
  9  5  1  0
  9  6  1  0
 10  8  2  0
M  END
>  <NAME>  (3256) 
3,3,5-TRIMETHYLCYCLOHEXANONE

>  <SYNONYMS>  (3256) 


>  <SPECTRUM TYPE>  (3256) 
MS1

>  <INSTRUMENT TYPE>  (3256) 
EI-B

>  <INSTRUMENT>  (3256) 
HITACHI M-80B

>  <ION MODE>  (3256) 
P

>  <INCHIKEY>  (3256) 
POSWICCRDBKBMH-UHFFFAOYSA-N

>  <FORMULA>  (3256) 
C9H16O

>  <EXACT MASS>  (3256) 
140.120115132

>  <MW>  (3256) 
140

>  <ID>  (3256) 
JP006955

>  <CONTRIBUTOR>  (3256) 
University of Tokyo Team, {Faculty of Engineering, University of Tokyo

>  <COMMENT>  (3256) 
SMILES=CC(C1)CC(C)(C)CC(=O)1
InChI=InChI=1S/C9H16O/c1-7-4-8(10)6-9(2,3)5-7/h7H,4-6H2,1-3H3
computed SMILES=O=C1CC(C)CC(C)(C)C1
accession=JP006955
date=2016.01.19 (Created 2008.10.21, modified 2011.05.06)
author=TAJIMA S, GUNMA COLLEGE OF TECHNOLOGY
license=CC BY-NC-SA
exact mass=140.12012
ionization energy=70 eV
ion type=[M]+*
computed spectral entropy=2.703803966524103
computed normalized entropy=0.766740651629319
SPLASH=splash10-05o3-9000000000-a2dc833e3c23bcea90c1
submitter=submitter = University of Tokyo Team (Faculty of Engineering, University of Tokyo)
MoNA Rating=3.75

>  <NUM PEAKS>  (3256) 
34

>  <MASS SPECTRAL PEAKS>  (3256) 
15 3.18
27 18.28
28 2.68
29 15.51
38 1.19
39 27.62
40 3.79
41 48.57
42 13.76
43 6.78
51 1.95
52 1.02
53 5.63
54 1.77
55 43.98
56 37.68
57 9.09
67 3.31
69 54.41
70 3.31
77 1
79 1.17
81 1.47
82 1.91
83 99.99
84 9.01
85 1.26
96 1.87
97 3.8
98 2.36
107 1.08
125 7.18
140 18.29
141 1.41

>  <PREDICTED SPECTRUM>  (3256) 
15 0
26 52
27 318
28 143
29 201
37 7
38 80
39 503
40 209
41 947
42 577
43 644
50 121
51 198
52 118
53 317
54 100
55 807
56 751
57 381
58 176
63 59
65 216
66 61
67 239
68 101
69 770
70 575
71 366
72 76
77 220
79 73
81 79
82 151
83 999
84 328
91 17
92 5
93 4
96 25
97 396
98 257
99 55
107 229
111 26
112 83
122 26
125 768
126 201
139 4
140 488
141 136

$$$$

     RDKit          2D

 10 10  0  0  0  0  0  0  0  0999 V2000
   -2.9242    2.0631    0.0000 C   0  0  0  0  0  0  0  0  0  0  0  0
   -1.6250    1.3133    0.0000 C   0  0  0  0  0  0  0  0  0  0  0  0
    2.2730   -0.9380    0.0000 C   0  0  0  0  0  0  0  0  0  0  0  0
    3.5721   -0.1880    0.0000 C   0  0  0  0  0  0  0  0  0  0  0  0
   -0.3261    2.0635    0.0000 C   0  0  0  0  0  0  0  0  0  0  0  0
    0.9735   -0.1871    0.0000 C   0  0  0  0  0  0  0  0  0  0  0  0
    3.5716    1.3129    0.0000 C   0  0  0  0  0  0  0  0  0  0  0  0
    0.9730    1.3137    0.0000 C   0  0  0  0  0  0  0  0  0  0  0  0
    2.2721    2.0637    0.0000 C   0  0  0  0  0  0  0  0  0  0  0  0
    2.2723    3.5637    0.0000 O   0  0  0  0  0  0  0  0  0  0  0  0
  2  1  1  0
  4  3  1  0
  5  2  1  0
  6  3  1  0
  7  4  1  0
  8  5  1  0
  8  6  1  0
  9  7  1  0
  9  8  1  0
 10  9  2  0
M  END
>  <NAME>  (3257) 
2-PROPYLCYCLOHEXANONE

>  <SYNONYMS>  (3257) 


>  <SPECTRUM TYPE>  (3257) 
MS1

>  <INSTRUMENT TYPE>  (3257) 
EI-B

>  <INSTRUMENT>  (3257) 
HITACHI M-80B

>  <ION MODE>  (3257) 
P

>  <INCHIKEY>  (3257) 
OCJLPZCBZSCVCO-UHFFFAOYSA-N

>  <FORMULA>  (3257) 
C9H16O

>  <EXACT MASS>  (3257) 
140.120115132

>  <MW>  (3257) 
140

>  <ID>  (3257) 
JP006954

>  <CONTRIBUTOR>  (3257) 
University of Tokyo Team, {Faculty of Engineering, University of Tokyo

>  <COMMENT>  (3257) 
SMILES=CCCC(C1)C(=O)CCC1
InChI=InChI=1S/C9H16O/c1-2-5-8-6-3-4-7-9(8)10/h8H,2-7H2,1H3
computed SMILES=O=C1CCCCC1CCC
accession=JP006954
date=2016.01.19 (Created 2008.10.21, modified 2011.05.06)
author=TAJIMA S, GUNMA COLLEGE OF TECHNOLOGY
license=CC BY-NC-SA
exact mass=140.12012
ionization energy=70 eV
ion type=[M]+*
computed spectral entropy=2.845984483110978
computed normalized entropy=0.8004798500427923
SPLASH=splash10-0005-9000000000-7f16b98b0aedf3f3ad57
submitter=submitter = University of Tokyo Team (Faculty of Engineering, University of Tokyo)
MoNA Rating=3.75

>  <NUM PEAKS>  (3257) 
35

>  <MASS SPECTRAL PEAKS>  (3257) 
15 1.68
26 1.76
27 26.19
28 10.58
29 16.17
39 23.39
40 2.66
41 46.6
42 18.1
43 10.89
51 1.68
52 1.07
53 5.18
54 7.58
55 35.6
56 13.4
57 2.36
65 1.36
67 5.34
68 2.11
69 11.63
70 20.88
71 1.51
77 1.32
79 1.65
81 4.05
83 19.06
84 3.21
93 1.03
96 1.68
97 13.23
98 99.99
99 5.23
111 5.47
140 1.93

>  <PREDICTED SPECTRUM>  (3257) 
26 24
27 176
28 17
29 62
37 22
38 61
39 451
40 197
41 784
42 567
43 406
44 143
49 1
50 116
51 223
52 131
53 345
54 324
55 933
56 480
57 169
63 41
65 167
66 117
67 457
68 443
69 621
70 826
71 193
77 195
78 114
79 186
80 110
81 254
82 132
83 541
84 464
85 183
86 38
91 132
93 69
94 20
95 137
96 165
97 999
98 981
99 320
107 72
111 439
112 446
113 146
123 2
125 138
140 401
141 121

$$$$

     RDKit          2D

 10 10  0  0  0  0  0  0  0  0999 V2000
    0.1783   -2.1596    0.0000 C   0  0  0  0  0  0  0  0  0  0  0  0
   -1.6344    3.0000    0.0000 C   0  0  0  0  0  0  0  0  0  0  0  0
   -2.5989    1.3300    0.0000 C   0  0  0  0  0  0  0  0  0  0  0  0
    1.4783    0.0904    0.0000 C   0  0  0  0  0  0  0  0  0  0  0  0
   -1.1217    0.0904    0.0000 C   0  0  0  0  0  0  0  0  0  0  0  0
    0.1783    2.3404    0.0000 C   0  0  0  0  0  0  0  0  0  0  0  0
    0.1783   -0.6596    0.0000 C   0  0  0  0  0  0  0  0  0  0  0  0
    1.4783    1.5904    0.0000 C   0  0  0  0  0  0  0  0  0  0  0  0
   -1.1217    1.5904    0.0000 C   0  0  0  0  0  0  0  0  0  0  0  0
    2.7772    2.3406    0.0000 O   0  0  0  0  0  0  0  0  0  0  0  0
  7  1  1  0
  7  4  2  0
  7  5  1  0
  8  4  1  0
  8  6  1  0
  9  2  1  0
  9  3  1  0
  9  5  1  0
  9  6  1  0
 10  8  2  0
M  END
>  <NAME>  (3258) 
3,5,5-TRIMETHYL-2-CYCLOHEXENONE

>  <SYNONYMS>  (3258) 


>  <SPECTRUM TYPE>  (3258) 
MS1

>  <INSTRUMENT TYPE>  (3258) 
EI-B

>  <INSTRUMENT>  (3258) 
HITACHI M-80B

>  <ION MODE>  (3258) 
P

>  <INCHIKEY>  (3258) 
HJOVHMDZYOCNQW-UHFFFAOYSA-N

>  <FORMULA>  (3258) 
C9H14O

>  <EXACT MASS>  (3258) 
138.104465068

>  <MW>  (3258) 
138

>  <ID>  (3258) 
JP006953

>  <CONTRIBUTOR>  (3258) 
University of Tokyo Team, {Faculty of Engineering, University of Tokyo

>  <COMMENT>  (3258) 
SMILES=CC(=C1)CC(C)(C)CC(=O)1
InChI=InChI=1S/C9H14O/c1-7-4-8(10)6-9(2,3)5-7/h4H,5-6H2,1-3H3
computed SMILES=O=C1C=C(C)CC(C)(C)C1
computed spectral entropy=2.3047617325944962
computed normalized entropy=0.699294845678648
accession=JP006953
date=2016.01.19 (Created 2008.10.21, modified 2011.05.06)
author=TAJIMA S, GUNMA COLLEGE OF TECHNOLOGY
license=CC BY-NC-SA
exact mass=138.10447
ionization energy=70 eV
ion type=[M]+*
SPLASH=splash10-001i-9000000000-35f5f51e1d1c8b9f41eb
submitter=submitter = University of Tokyo Team (Faculty of Engineering, University of Tokyo)
MoNA Rating=3.75

>  <NUM PEAKS>  (3258) 
27

>  <MASS SPECTRAL PEAKS>  (3258) 
15 1.14
28 33.31
29 7.49
38 1.11
39 21.22
40 1.45
41 10.41
42 1.96
43 1.06
50 1.13
51 3.09
52 1.51
53 7.27
54 14.35
55 5.77
65 1.25
67 4.5
69 1.07
77 2.8
79 2.69
81 1.12
82 99.99
83 6.16
95 5.71
123 1.35
138 14.86
139 1.27

>  <PREDICTED SPECTRUM>  (3258) 
14 7
15 30
17 7
18 12
26 103
27 291
28 99
29 188
37 27
38 98
39 475
40 208
41 433
42 38
43 118
49 8
50 164
51 297
52 187
53 341
54 612
55 340
56 241
62 50
63 134
64 95
65 255
66 89
67 346
68 60
69 40
70 4
77 345
78 65
79 201
80 157
81 223
82 999
83 371
91 241
92 28
93 128
94 112
95 495
96 278
97 42
105 172
109 143
110 165
121 89
123 427
124 134
137 92
138 551
139 227
140 33

$$$$

     RDKit          2D

  8  8  0  0  0  0  0  0  0  0999 V2000
   -0.6520   -2.2491    0.0000 C   0  0  0  0  0  0  0  0  0  0  0  0
   -1.9467    1.4939    0.0000 C   0  0  0  0  0  0  0  0  0  0  0  0
   -1.9512    0.0017    0.0000 C   0  0  0  0  0  0  0  0  0  0  0  0
   -0.6477    2.2439    0.0000 C   0  0  0  0  0  0  0  0  0  0  0  0
    0.6473    0.0009    0.0000 C   0  0  0  0  0  0  0  0  0  0  0  0
   -0.6517   -0.7491    0.0000 C   0  0  0  0  0  0  0  0  0  0  0  0
    0.6468    1.5017    0.0000 C   0  0  0  0  0  0  0  0  0  0  0  0
    1.9446    2.2539    0.0000 O   0  0  0  0  0  0  0  0  0  0  0  0
  3  2  1  0
  4  2  1  0
  6  1  1  0
  6  3  1  0
  6  5  1  0
  7  4  1  0
  7  5  1  0
  8  7  2  0
M  END
>  <NAME>  (3259) 
3-METHYLCYCLOHEXANONE

>  <SYNONYMS>  (3259) 


>  <SPECTRUM TYPE>  (3259) 
MS1

>  <INSTRUMENT TYPE>  (3259) 
EI-B

>  <INSTRUMENT>  (3259) 
HITACHI M-80B

>  <ION MODE>  (3259) 
P

>  <INCHIKEY>  (3259) 
UJBOOUHRTQVGRU-UHFFFAOYSA-N

>  <FORMULA>  (3259) 
C7H12O

>  <EXACT MASS>  (3259) 
112.088815004

>  <MW>  (3259) 
112

>  <ID>  (3259) 
JP006952

>  <CONTRIBUTOR>  (3259) 
University of Tokyo Team, {Faculty of Engineering, University of Tokyo

>  <COMMENT>  (3259) 
SMILES=CC(C1)CC(=O)CC1
InChI=InChI=1S/C7H12O/c1-6-3-2-4-7(8)5-6/h6H,2-5H2,1H3
computed SMILES=O=C1CCCC(C)C1
accession=JP006952
date=2016.01.19 (Created 2008.10.21, modified 2011.05.06)
author=TAJIMA S, GUNMA COLLEGE OF TECHNOLOGY
license=CC BY-NC-SA
exact mass=112.08882
ionization energy=70 eV
ion type=[M]+*
computed spectral entropy=2.6923818168490223
computed normalized entropy=0.7840395599996675
SPLASH=splash10-066u-9000000000-34156a09713322b57d8e
submitter=submitter = University of Tokyo Team (Faculty of Engineering, University of Tokyo)
MoNA Rating=3.75

>  <NUM PEAKS>  (3259) 
31

>  <MASS SPECTRAL PEAKS>  (3259) 
15 3.72
26 2.7
27 23.56
28 3.82
29 9.13
38 2.69
39 35.65
40 6.35
41 51.92
42 39.76
43 7.16
50 1.6
51 2.36
52 1.2
53 5
54 2.07
55 34.6
56 49.17
57 3.34
65 1.03
67 2.72
68 7.16
69 99.99
70 8.09
79 2.77
83 2.49
84 3.4
94 3.62
97 12.36
112 28.97
113 1.97

>  <PREDICTED SPECTRUM>  (3259) 
14 15
15 32
26 129
27 426
28 245
29 329
34 9
36 30
37 77
38 152
39 608
40 320
41 999
42 857
43 634
44 147
45 46
49 5
50 180
51 259
52 151
53 343
54 263
55 843
56 742
57 296
58 24
65 143
66 100
67 292
68 454
69 861
70 543
71 269
77 180
78 14
79 203
80 0
81 58
82 308
83 381
84 355
85 65
93 11
94 144
95 19
97 331
98 123
111 70
112 735
113 226
114 5

$$$$

     RDKit          2D

  7  7  0  0  0  0  0  0  0  0999 V2000
   -1.6700   -0.9600    0.0000 C   0  0  0  0  0  0  0  0  0  0  0  0
   -1.6700    0.5400    0.0000 C   0  0  0  0  0  0  0  0  0  0  0  0
   -0.3700   -1.7100    0.0000 C   0  0  0  0  0  0  0  0  0  0  0  0
   -0.3700    1.2900    0.0000 C   0  0  0  0  0  0  0  0  0  0  0  0
    0.9300   -0.9600    0.0000 C   0  0  0  0  0  0  0  0  0  0  0  0
    0.9300    0.5400    0.0000 C   0  0  0  0  0  0  0  0  0  0  0  0
    2.2289    1.2902    0.0000 O   0  0  0  0  0  0  0  0  0  0  0  0
  2  1  1  0
  3  1  1  0
  4  2  1  0
  5  3  1  0
  6  4  1  0
  6  5  1  0
  7  6  2  0
M  END
>  <NAME>  (3260) 
CYCLOHEXANONE

>  <SYNONYMS>  (3260) 


>  <SPECTRUM TYPE>  (3260) 
MS1

>  <INSTRUMENT TYPE>  (3260) 
EI-B

>  <INSTRUMENT>  (3260) 
HITACHI M-80B

>  <ION MODE>  (3260) 
P

>  <INCHIKEY>  (3260) 
JHIVVAPYMSGYDF-UHFFFAOYSA-N

>  <FORMULA>  (3260) 
C6H10O

>  <EXACT MASS>  (3260) 
98.07316494

>  <MW>  (3260) 
98

>  <ID>  (3260) 
JP006951

>  <CONTRIBUTOR>  (3260) 
University of Tokyo Team, {Faculty of Engineering, University of Tokyo

>  <COMMENT>  (3260) 
SMILES=O=C(C1)CCCC1
InChI=InChI=1S/C6H10O/c7-6-4-2-1-3-5-6/h1-5H2
computed SMILES=O=C1CCCCC1
accession=JP006951
date=2016.01.19 (Created 2008.10.21, modified 2011.05.06)
author=TAJIMA S, GUNMA COLLEGE OF TECHNOLOGY
license=CC BY-NC-SA
exact mass=98.07316
ionization energy=70 eV
ion type=[M]+*
computed spectral entropy=2.6174223632713294
computed normalized entropy=0.7854927136911258
SPLASH=splash10-052f-9000000000-6c26c5016354e3daff39
submitter=submitter = University of Tokyo Team (Faculty of Engineering, University of Tokyo)
MoNA Rating=3.75

>  <NUM PEAKS>  (3260) 
28

>  <MASS SPECTRAL PEAKS>  (3260) 
15 2.98
26 6.52
27 29.97
28 10.95
29 6.28
37 1.4
38 3.75
39 33.99
40 5.94
41 38.31
42 67.75
43 11.06
44 1.04
50 1.85
51 2.61
53 3.35
54 6.28
55 99.99
56 10.41
57 1.09
69 25.26
70 21.98
71 1.27
80 3.71
83 7.11
97 1.47
98 36.42
99 2.31

>  <PREDICTED SPECTRUM>  (3260) 
14 48
15 68
16 24
17 12
18 37
25 29
26 270
27 681
28 403
29 533
30 10
31 139
36 23
37 118
38 232
39 715
40 361
41 999
42 804
43 678
44 233
45 168
50 225
51 308
52 210
53 409
54 506
55 997
56 568
57 357
58 51
60 19
63 3
65 138
66 160
67 373
68 374
69 580
70 782
71 298
77 103
79 140
80 274
81 277
82 164
83 304
84 37
97 102
98 601
99 186

$$$$

     RDKit          2D

 12 12  0  0  0  0  0  0  0  0999 V2000
    8.6822   -0.3444    0.0000 C   0  0  0  0  0  0  0  0  0  0  0  0
    7.3839    0.4069    0.0000 C   0  0  0  0  0  0  0  0  0  0  0  0
    6.0841   -0.3418    0.0000 C   0  0  0  0  0  0  0  0  0  0  0  0
    4.7859    0.4095    0.0000 C   0  0  0  0  0  0  0  0  0  0  0  0
   -0.7437   -2.1350    0.0000 C   0  0  0  0  0  0  0  0  0  0  0  0
    3.4861   -0.3391    0.0000 C   0  0  0  0  0  0  0  0  0  0  0  0
    0.7235   -1.8232    0.0000 C   0  0  0  0  0  0  0  0  0  0  0  0
   -1.4889   -0.8417    0.0000 C   0  0  0  0  0  0  0  0  0  0  0  0
    2.1878    0.4122    0.0000 C   0  0  0  0  0  0  0  0  0  0  0  0
    0.8880   -0.3365    0.0000 C   0  0  0  0  0  0  0  0  0  0  0  0
    2.1893    1.9122    0.0000 O   0  0  0  0  0  0  0  0  0  0  0  0
   -0.4883    0.2706    0.0000 O   0  0  0  0  0  0  0  0  0  0  0  0
  2  1  1  0
  3  2  1  0
  4  3  1  0
  6  4  1  0
  7  5  1  0
  8  5  2  0
  9  6  1  0
 10  7  2  0
 10  9  1  0
 11  9  2  0
 12  8  1  0
 12 10  1  0
M  END
>  <NAME>  (3261) 
2-FURYL PENTYL KETONE

>  <SYNONYMS>  (3261) 


>  <SPECTRUM TYPE>  (3261) 
MS1

>  <INSTRUMENT TYPE>  (3261) 
EI-B

>  <INSTRUMENT>  (3261) 
HITACHI M-80B

>  <ION MODE>  (3261) 
P

>  <INCHIKEY>  (3261) 
YUAYWSBSIJVIBS-UHFFFAOYSA-N

>  <FORMULA>  (3261) 
C10H14O2

>  <EXACT MASS>  (3261) 
166.099379688

>  <MW>  (3261) 
166

>  <ID>  (3261) 
JP006949

>  <CONTRIBUTOR>  (3261) 
University of Tokyo Team, {Faculty of Engineering, University of Tokyo

>  <COMMENT>  (3261) 
SMILES=CCCCCC(=O)c(c1)occ1
InChI=InChI=1S/C10H14O2/c1-2-3-4-6-9(11)10-7-5-8-12-10/h5,7-8H,2-4,6H2,1H3
computed SMILES=O=C(C=1OC=CC1)CCCCC
accession=JP006949
date=2016.01.19 (Created 2008.10.21, modified 2011.05.06)
author=TAJIMA S, GUNMA COLLEGE OF TECHNOLOGY
license=CC BY-NC-SA
exact mass=166.09938
ionization energy=70 eV
ion type=[M]+*
computed spectral entropy=2.1454084138770777
computed normalized entropy=0.7046781417322487
SPLASH=splash10-03dj-9500000000-e7a6b6f1f89c163e9cee
submitter=submitter = University of Tokyo Team (Faculty of Engineering, University of Tokyo)
MoNA Rating=3.75

>  <NUM PEAKS>  (3261) 
21

>  <MASS SPECTRAL PEAKS>  (3261) 
27 13.87
29 9.51
37 1.13
38 3.68
39 29.88
41 10.77
42 2.5
43 6.62
51 1.67
53 4.48
54 1.96
55 6.38
67 2.55
68 3.5
81 3.34
95 70.64
96 3.33
97 1.01
110 99.99
111 6.32
123 9.91

>  <PREDICTED SPECTRUM>  (3261) 
25 3
26 43
27 146
28 2
29 140
37 55
38 123
39 391
40 138
41 274
42 143
43 305
44 21
50 64
51 111
52 90
53 180
54 93
55 219
56 31
57 49
65 24
66 50
67 225
68 169
69 222
71 57
80 30
81 69
82 113
91 54
95 999
96 236
109 65
110 649
111 104
123 200
124 57
137 160
138 124
151 36
166 235
167 46

$$$$

     RDKit          2D

 10 10  0  0  0  0  0  0  0  0999 V2000
   -1.6300    1.2517    0.0000 C   0  0  0  0  0  0  0  0  0  0  0  0
    5.4215    1.5862    0.0000 C   0  0  0  0  0  0  0  0  0  0  0  0
    3.9215    1.5862    0.0000 C   0  0  0  0  0  0  0  0  0  0  0  0
    0.9107    0.7090    0.0000 C   0  0  0  0  0  0  0  0  0  0  0  0
    2.0244   -0.2959    0.0000 C   0  0  0  0  0  0  0  0  0  0  0  0
    5.8815    0.1662    0.0000 C   0  0  0  0  0  0  0  0  0  0  0  0
   -0.5163    0.2469    0.0000 C   0  0  0  0  0  0  0  0  0  0  0  0
    3.4515    0.1662    0.0000 C   0  0  0  0  0  0  0  0  0  0  0  0
   -0.8297   -1.2200    0.0000 O   0  0  0  0  0  0  0  0  0  0  0  0
    4.6715   -0.7138    0.0000 O   0  0  0  0  0  0  0  0  0  0  0  0
  3  2  1  0
  4  5  2  0
  6  2  2  0
  7  1  1  0
  7  4  1  0
  8  3  2  0
  8  5  1  0
  9  7  2  0
 10  6  1  0
 10  8  1  0
M  END
>  <NAME>  (3262) 
FURFURYLIDENE ACETONE

>  <SYNONYMS>  (3262) 
1-ACETYL-2-(2-FURYL)ETHYLENE

>  <SPECTRUM TYPE>  (3262) 
MS1

>  <INSTRUMENT TYPE>  (3262) 
EI-B

>  <INSTRUMENT>  (3262) 
HITACHI M-80B

>  <ION MODE>  (3262) 
P

>  <INCHIKEY>  (3262) 
GBKGJMYPQZODMI-SNAWJCMRSA-N

>  <FORMULA>  (3262) 
C8H8O2

>  <EXACT MASS>  (3262) 
136.052429496

>  <MW>  (3262) 
136

>  <ID>  (3262) 
JP006948

>  <CONTRIBUTOR>  (3262) 
University of Tokyo Team, {Faculty of Engineering, University of Tokyo

>  <COMMENT>  (3262) 
SMILES=CC(=O)C=Cc(o1)c([H])c([H])c([H])1
InChI=InChI=1S/C8H8O2/c1-7(9)4-5-8-3-2-6-10-8/h2-6H,1H3/b5-4+
computed SMILES=O=C(C=CC=1OC=CC1)C
accession=JP006948
date=2016.01.19 (Created 2008.10.21, modified 2011.05.06)
author=TAJIMA S, GUNMA COLLEGE OF TECHNOLOGY
license=CC BY-NC-SA
exact mass=136.05243
ionization energy=70 eV
ion type=[M]+*
computed spectral entropy=2.908349247496981
computed normalized entropy=0.7640155268066491
SPLASH=splash10-00rl-9300000000-f727b89d15e4bb8555af
submitter=submitter = University of Tokyo Team (Faculty of Engineering, University of Tokyo)
MoNA Rating=3.75

>  <NUM PEAKS>  (3262) 
45

>  <MASS SPECTRAL PEAKS>  (3262) 
14 1.28
15 9.35
26 3.49
27 5.17
29 8.18
37 4.29
38 13.51
39 53.49
40 1.98
41 1.22
42 4.18
43 65.35
44 1.76
49 1.02
50 6.52
51 8.97
52 2.62
53 4.99
54 3.2
55 1.49
60 1.9
61 2.96
62 7.72
63 20.59
64 7.95
65 93.49
66 6.84
74 1.47
77 7.56
78 1.65
79 7.25
80 1.36
81 2
82 3.75
92 2.32
93 14.05
94 35.3
95 2.61
107 3.81
108 3.4
121 99.99
122 7.75
135 3.02
136 59.75
137 4.43

>  <PREDICTED SPECTRUM>  (3262) 
14 5
15 52
18 8
25 9
26 56
27 59
34 0
37 142
38 209
39 436
40 151
41 32
42 6
43 853
44 149
45 10
49 56
50 270
51 424
52 273
53 368
54 49
55 196
61 124
62 201
63 372
64 262
65 627
66 323
67 218
68 31
69 80
71 36
74 103
75 79
76 72
77 281
78 132
79 225
80 36
81 80
82 48
89 103
90 36
91 218
92 238
93 660
94 288
95 270
96 106
97 33
105 10
106 43
107 280
108 110
109 76
118 49
119 187
121 999
122 289
123 92
135 136
136 955
137 308
138 99

$$$$

     RDKit          2D

  9  9  0  0  0  0  0  0  0  0999 V2000
    4.7678    0.1193    0.0000 C   0  0  0  0  0  0  0  0  0  0  0  0
    3.3407   -0.3428    0.0000 C   0  0  0  0  0  0  0  0  0  0  0  0
   -1.1700   -1.2200    0.0000 C   0  0  0  0  0  0  0  0  0  0  0  0
    0.3300   -1.2200    0.0000 C   0  0  0  0  0  0  0  0  0  0  0  0
   -1.6300    0.2000    0.0000 C   0  0  0  0  0  0  0  0  0  0  0  0
    2.2271    0.6621    0.0000 C   0  0  0  0  0  0  0  0  0  0  0  0
    0.8000    0.2000    0.0000 C   0  0  0  0  0  0  0  0  0  0  0  0
    2.5404    2.1290    0.0000 O   0  0  0  0  0  0  0  0  0  0  0  0
   -0.4200    1.0800    0.0000 O   0  0  0  0  0  0  0  0  0  0  0  0
  2  1  1  0
  4  3  1  0
  5  3  2  0
  6  2  1  0
  7  4  2  0
  7  6  1  0
  8  6  2  0
  9  5  1  0
  9  7  1  0
M  END
>  <NAME>  (3263) 
ETHYL 2-FURYL KETONE

>  <SYNONYMS>  (3263) 
2-PROPIONYLFURAN

>  <SPECTRUM TYPE>  (3263) 
MS1

>  <INSTRUMENT TYPE>  (3263) 
EI-B

>  <INSTRUMENT>  (3263) 
HITACHI M-80B

>  <ION MODE>  (3263) 
P

>  <INCHIKEY>  (3263) 
HCPORNAVHSWTOJ-UHFFFAOYSA-N

>  <FORMULA>  (3263) 
C7H8O2

>  <EXACT MASS>  (3263) 
124.052429496

>  <MW>  (3263) 
124

>  <ID>  (3263) 
JP006947

>  <CONTRIBUTOR>  (3263) 
University of Tokyo Team, {Faculty of Engineering, University of Tokyo

>  <COMMENT>  (3263) 
SMILES=CCC(=O)c(c1)occ1
InChI=InChI=1S/C7H8O2/c1-2-6(8)7-4-3-5-9-7/h3-5H,2H2,1H3
computed SMILES=O=C(C=1OC=CC1)CC
accession=JP006947
date=2016.01.19 (Created 2008.10.21, modified 2011.05.06)
author=TAJIMA S, GUNMA COLLEGE OF TECHNOLOGY
license=CC BY-NC-SA
exact mass=124.05243
ionization energy=70 eV
ion type=[M]+*
computed spectral entropy=1.796501217182728
computed normalized entropy=0.634086106135141
SPLASH=splash10-0002-9100000000-d7c54af08048741a298f
submitter=submitter = University of Tokyo Team (Faculty of Engineering, University of Tokyo)
MoNA Rating=3.75

>  <NUM PEAKS>  (3263) 
17

>  <MASS SPECTRAL PEAKS>  (3263) 
26 2.21
27 10.5
29 7.56
37 3.18
38 7.96
39 25.75
41 1.37
51 1.87
53 1.73
55 1.32
57 1.25
67 2.85
68 1.17
95 99.99
96 5.6
124 22.77
125 1.45

>  <PREDICTED SPECTRUM>  (3263) 
14 8
15 32
25 18
26 81
27 172
28 52
29 206
37 155
38 268
39 456
40 194
41 192
42 51
43 6
49 21
50 128
51 116
52 56
53 40
56 15
57 225
65 68
66 109
67 337
68 231
69 247
70 6
83 4
95 999
96 316
97 81
124 537
125 199
126 4

$$$$

     RDKit          2D

  8  8  0  0  0  0  0  0  0  0999 V2000
    3.3407   -0.3428    0.0000 C   0  0  0  0  0  0  0  0  0  0  0  0
   -1.1700   -1.2200    0.0000 C   0  0  0  0  0  0  0  0  0  0  0  0
    0.3300   -1.2200    0.0000 C   0  0  0  0  0  0  0  0  0  0  0  0
   -1.6300    0.2000    0.0000 C   0  0  0  0  0  0  0  0  0  0  0  0
    2.2271    0.6621    0.0000 C   0  0  0  0  0  0  0  0  0  0  0  0
    0.8000    0.2000    0.0000 C   0  0  0  0  0  0  0  0  0  0  0  0
    2.5404    2.1290    0.0000 O   0  0  0  0  0  0  0  0  0  0  0  0
   -0.4200    1.0800    0.0000 O   0  0  0  0  0  0  0  0  0  0  0  0
  3  2  1  0
  4  2  2  0
  5  1  1  0
  6  3  2  0
  6  5  1  0
  7  5  2  0
  8  4  1  0
  8  6  1  0
M  END
>  <NAME>  (3264) 
2-ACETYLFURAN

>  <SYNONYMS>  (3264) 


>  <SPECTRUM TYPE>  (3264) 
MS1

>  <INSTRUMENT TYPE>  (3264) 
EI-B

>  <INSTRUMENT>  (3264) 
HITACHI M-80B

>  <ION MODE>  (3264) 
P

>  <INCHIKEY>  (3264) 
IEMMBWWQXVXBEU-UHFFFAOYSA-N

>  <FORMULA>  (3264) 
C6H6O2

>  <EXACT MASS>  (3264) 
110.036779432

>  <MW>  (3264) 
110

>  <ID>  (3264) 
JP006946

>  <CONTRIBUTOR>  (3264) 
University of Tokyo Team, {Faculty of Engineering, University of Tokyo

>  <COMMENT>  (3264) 
SMILES=[H]c(o1)c([H])c([H])c1C(C)=O
InChI=InChI=1S/C6H6O2/c1-5(7)6-3-2-4-8-6/h2-4H,1H3
computed SMILES=O=C(C=1OC=CC1)C
accession=JP006946
date=2016.01.19 (Created 2008.10.21, modified 2011.05.06)
author=TAJIMA S, GUNMA COLLEGE OF TECHNOLOGY
license=CC BY-NC-SA
exact mass=110.03678
ionization energy=70 eV
ion type=[M]+*
computed spectral entropy=2.1994279780927037
computed normalized entropy=0.7115489390005296
SPLASH=splash10-0002-9100000000-626116be3c33a62f5993
submitter=submitter = University of Tokyo Team (Faculty of Engineering, University of Tokyo)
MoNA Rating=3.75

>  <NUM PEAKS>  (3264) 
22

>  <MASS SPECTRAL PEAKS>  (3264) 
14 1.51
15 6.34
26 1.79
27 4.16
29 4.13
37 5.72
38 10.38
39 29.84
40 3.08
41 1.5
42 3.77
43 18.57
50 3.37
51 4.08
52 1.03
53 3.75
67 4.08
68 3.08
95 99.99
96 5.74
110 37.53
111 2.79

>  <PREDICTED SPECTRUM>  (3264) 
14 4
15 41
25 12
26 58
27 104
28 47
29 56
37 104
38 172
39 376
40 204
41 171
42 38
43 535
44 44
50 62
51 198
52 91
53 166
54 75
55 23
63 93
64 22
65 109
66 104
67 349
68 202
69 119
79 7
81 169
82 208
83 112
93 13
95 999
96 176
109 4
110 699
111 185
112 34

$$$$

     RDKit          2D

  8  7  0  0  0  0  0  0  0  0999 V2000
    1.9486    2.6250    0.0000 C   0  0  0  0  0  0  0  0  0  0  0  0
   -4.5466    3.3750    0.0000 C   0  0  0  0  0  0  0  0  0  0  0  0
    0.6495    3.3750    0.0000 C   0  0  0  0  0  0  0  0  0  0  0  0
   -3.2476    2.6250    0.0000 C   0  0  0  0  0  0  0  0  0  0  0  0
   -0.6495    2.6250    0.0000 C   0  0  0  0  0  0  0  0  0  0  0  0
   -1.9486    3.3750    0.0000 C   0  0  0  0  0  0  0  0  0  0  0  0
   -0.6495    1.1250    0.0000 O   0  0  0  0  0  0  0  0  0  0  0  0
   -1.9486    4.8750    0.0000 O   0  0  0  0  0  0  0  0  0  0  0  0
  3  1  1  0
  4  2  1  0
  5  3  1  0
  6  4  1  0
  6  5  1  0
  7  5  2  0
  8  6  2  0
M  END
>  <NAME>  (3265) 
3,4-HEXANEDIONE

>  <SYNONYMS>  (3265) 


>  <SPECTRUM TYPE>  (3265) 
MS1

>  <INSTRUMENT TYPE>  (3265) 
EI-B

>  <INSTRUMENT>  (3265) 
HITACHI M-80B

>  <ION MODE>  (3265) 
P

>  <INCHIKEY>  (3265) 
KVFQMAZOBTXCAZ-UHFFFAOYSA-N

>  <FORMULA>  (3265) 
C6H10O2

>  <EXACT MASS>  (3265) 
114.06807956

>  <MW>  (3265) 
114

>  <ID>  (3265) 
JP006945

>  <CONTRIBUTOR>  (3265) 
University of Tokyo Team, {Faculty of Engineering, University of Tokyo

>  <COMMENT>  (3265) 
SMILES=CCC(=O)C(=O)CC
InChI=InChI=1S/C6H10O2/c1-3-5(7)6(8)4-2/h3-4H2,1-2H3
computed SMILES=O=C(C(=O)CC)CC
accession=JP006945
date=2016.01.19 (Created 2008.10.21, modified 2011.05.06)
author=TAJIMA S, GUNMA COLLEGE OF TECHNOLOGY
license=CC BY-NC-SA
exact mass=114.06808
ionization energy=70 eV
ion type=[M]+*
computed spectral entropy=1.47509778534566
computed normalized entropy=0.5936230181811891
SPLASH=splash10-0a6r-9000000000-caf9127e49f75f70f432
submitter=submitter = University of Tokyo Team (Faculty of Engineering, University of Tokyo)
MoNA Rating=3.75

>  <NUM PEAKS>  (3265) 
12

>  <MASS SPECTRAL PEAKS>  (3265) 
15 1
26 5.43
27 25.88
28 3.35
29 73.2
30 1.39
39 1.2
42 2.57
55 1.27
57 99.99
58 3.07
114 9.25

>  <PREDICTED SPECTRUM>  (3265) 
14 49
15 115
16 15
17 2
18 26
25 14
26 102
27 349
28 236
29 654
30 242
31 102
37 32
38 70
39 254
40 82
41 278
42 144
43 52
50 79
53 72
54 6
55 90
56 159
57 999
58 193
69 88
85 281
114 141
115 54

$$$$

     RDKit          2D

  8  7  0  0  0  0  0  0  0  0999 V2000
    1.6238    3.1875    0.0000 C   0  0  0  0  0  0  0  0  0  0  0  0
   -4.8714    3.9375    0.0000 C   0  0  0  0  0  0  0  0  0  0  0  0
    0.3248    3.9375    0.0000 C   0  0  0  0  0  0  0  0  0  0  0  0
   -0.9743    3.1875    0.0000 C   0  0  0  0  0  0  0  0  0  0  0  0
   -3.5724    3.1875    0.0000 C   0  0  0  0  0  0  0  0  0  0  0  0
   -2.2733    3.9375    0.0000 C   0  0  0  0  0  0  0  0  0  0  0  0
   -3.5724    1.6875    0.0000 O   0  0  0  0  0  0  0  0  0  0  0  0
   -2.2733    5.4375    0.0000 O   0  0  0  0  0  0  0  0  0  0  0  0
  3  1  1  0
  4  3  1  0
  5  2  1  0
  6  4  1  0
  6  5  1  0
  7  5  2  0
  8  6  2  0
M  END
>  <NAME>  (3266) 
2,3-HEXANEDIONE

>  <SYNONYMS>  (3266) 


>  <SPECTRUM TYPE>  (3266) 
MS1

>  <INSTRUMENT TYPE>  (3266) 
EI-B

>  <INSTRUMENT>  (3266) 
HITACHI M-80B

>  <ION MODE>  (3266) 
P

>  <INCHIKEY>  (3266) 
MWVFCEVNXHTDNF-UHFFFAOYSA-N

>  <FORMULA>  (3266) 
C6H10O2

>  <EXACT MASS>  (3266) 
114.06807956

>  <MW>  (3266) 
114

>  <ID>  (3266) 
JP006943

>  <CONTRIBUTOR>  (3266) 
University of Tokyo Team, {Faculty of Engineering, University of Tokyo

>  <COMMENT>  (3266) 
SMILES=CCCC(=O)C(C)=O
InChI=InChI=1S/C6H10O2/c1-3-4-6(8)5(2)7/h3-4H2,1-2H3
computed SMILES=O=C(C(=O)CCC)C
accession=JP006943
date=2016.01.19 (Created 2008.10.21, modified 2011.05.06)
author=TAJIMA S, GUNMA COLLEGE OF TECHNOLOGY
license=CC BY-NC-SA
exact mass=114.06808
ionization energy=70 eV
ion type=[M]+*
computed spectral entropy=1.8256440984677362
computed normalized entropy=0.6741544516880361
SPLASH=splash10-0006-9000000000-834d76c0fa32b0bcd9c1
submitter=submitter = University of Tokyo Team (Faculty of Engineering, University of Tokyo)
MoNA Rating=3.75

>  <NUM PEAKS>  (3266) 
15

>  <MASS SPECTRAL PEAKS>  (3266) 
14 1.34
15 8.34
26 1.77
27 20.81
29 1.65
38 1.13
39 8.89
41 24.58
42 7.48
43 99.99
44 3.36
55 1.09
71 25.18
72 1.56
114 5.91

>  <PREDICTED SPECTRUM>  (3266) 
14 45
15 133
16 4
18 14
25 11
26 96
27 304
28 139
29 195
31 17
37 19
38 77
39 284
40 109
41 370
42 152
43 999
44 220
45 63
50 10
51 21
52 7
53 105
54 6
55 59
57 159
58 15
67 59
69 45
70 76
71 720
72 298
73 13
86 113
99 81
114 281
115 76

$$$$

     RDKit          2D

  7  6  0  0  0  0  0  0  0  0999 V2000
   -3.8971    2.2500    0.0000 C   0  0  0  0  0  0  0  0  0  0  0  0
    1.2990    2.2500    0.0000 C   0  0  0  0  0  0  0  0  0  0  0  0
   -2.5981    1.5000    0.0000 C   0  0  0  0  0  0  0  0  0  0  0  0
    0.0000    1.5000    0.0000 C   0  0  0  0  0  0  0  0  0  0  0  0
   -1.2990    2.2500    0.0000 C   0  0  0  0  0  0  0  0  0  0  0  0
   -0.0000    0.0000    0.0000 O   0  0  0  0  0  0  0  0  0  0  0  0
   -1.2990    3.7500    0.0000 O   0  0  0  0  0  0  0  0  0  0  0  0
  3  1  1  0
  4  2  1  0
  5  3  1  0
  5  4  1  0
  6  4  2  0
  7  5  2  0
M  END
>  <NAME>  (3267) 
2,3-PENTANEDIONE

>  <SYNONYMS>  (3267) 


>  <SPECTRUM TYPE>  (3267) 
MS1

>  <INSTRUMENT TYPE>  (3267) 
EI-B

>  <INSTRUMENT>  (3267) 
HITACHI M-80B

>  <ION MODE>  (3267) 
P

>  <INCHIKEY>  (3267) 
TZMFJUDUGYTVRY-UHFFFAOYSA-N

>  <FORMULA>  (3267) 
C5H8O2

>  <EXACT MASS>  (3267) 
100.052429496

>  <MW>  (3267) 
100

>  <ID>  (3267) 
JP006941

>  <CONTRIBUTOR>  (3267) 
University of Tokyo Team, {Faculty of Engineering, University of Tokyo

>  <COMMENT>  (3267) 
SMILES=CCC(=O)C(C)=O
InChI=InChI=1S/C5H8O2/c1-3-5(7)4(2)6/h3H2,1-2H3
computed SMILES=O=C(C(=O)CC)C
accession=JP006941
date=2016.01.19 (Created 2008.10.21, modified 2011.05.06)
author=TAJIMA S, GUNMA COLLEGE OF TECHNOLOGY
license=CC BY-NC-SA
exact mass=100.05243
ionization energy=70 eV
ion type=[M]+*
computed spectral entropy=1.881098138294603
computed normalized entropy=0.6946319302090385
SPLASH=splash10-002f-9000000000-0ce95c5163dd022c1c85
submitter=submitter = University of Tokyo Team (Faculty of Engineering, University of Tokyo)
MoNA Rating=3.75

>  <NUM PEAKS>  (3267) 
15

>  <MASS SPECTRAL PEAKS>  (3267) 
14 3.2
15 11.5
26 6.9
27 21.84
28 2.62
29 59.1
30 1.06
39 1.16
41 1.31
42 7.37
43 99.99
44 2.99
57 38.91
58 1.02
100 11.35

>  <PREDICTED SPECTRUM>  (3267) 
14 61
15 117
16 25
17 6
18 46
25 27
26 100
27 282
28 215
29 365
30 154
31 66
37 38
38 72
39 209
40 94
41 244
42 152
43 999
44 138
50 61
51 38
53 104
57 379
71 296
72 145
85 81
100 211
101 43

$$$$

     RDKit          2D

 17 16  0  0  0  0  0  0  0  0999 V2000
    5.1962    8.2500    0.0000 C   0  0  0  0  0  0  0  0  0  0  0  0
  -14.2894    9.0000    0.0000 C   0  0  0  0  0  0  0  0  0  0  0  0
    3.8971    9.0000    0.0000 C   0  0  0  0  0  0  0  0  0  0  0  0
  -12.9904    8.2500    0.0000 C   0  0  0  0  0  0  0  0  0  0  0  0
    2.5981    8.2500    0.0000 C   0  0  0  0  0  0  0  0  0  0  0  0
    1.2990    9.0000    0.0000 C   0  0  0  0  0  0  0  0  0  0  0  0
    0.0000    8.2500    0.0000 C   0  0  0  0  0  0  0  0  0  0  0  0
   -1.2990    9.0000    0.0000 C   0  0  0  0  0  0  0  0  0  0  0  0
   -2.5981    8.2500    0.0000 C   0  0  0  0  0  0  0  0  0  0  0  0
   -3.8971    9.0000    0.0000 C   0  0  0  0  0  0  0  0  0  0  0  0
   -5.1962    8.2500    0.0000 C   0  0  0  0  0  0  0  0  0  0  0  0
   -6.4952    9.0000    0.0000 C   0  0  0  0  0  0  0  0  0  0  0  0
   -7.7942    8.2500    0.0000 C   0  0  0  0  0  0  0  0  0  0  0  0
   -9.0933    9.0000    0.0000 C   0  0  0  0  0  0  0  0  0  0  0  0
  -10.3923    8.2500    0.0000 C   0  0  0  0  0  0  0  0  0  0  0  0
  -11.6913    9.0000    0.0000 C   0  0  0  0  0  0  0  0  0  0  0  0
  -11.6913   10.5000    0.0000 O   0  0  0  0  0  0  0  0  0  0  0  0
  3  1  1  0
  4  2  1  0
  5  3  1  0
  6  5  1  0
  7  6  1  0
  8  7  1  0
  9  8  1  0
 10  9  1  0
 11 10  1  0
 12 11  1  0
 13 12  1  0
 14 13  1  0
 15 14  1  0
 16  4  1  0
 16 15  1  0
 17 16  2  0
M  END
>  <NAME>  (3268) 
3-HEXADECANONE

>  <SYNONYMS>  (3268) 


>  <SPECTRUM TYPE>  (3268) 
MS1

>  <INSTRUMENT TYPE>  (3268) 
EI-B

>  <INSTRUMENT>  (3268) 
HITACHI M-80B

>  <ION MODE>  (3268) 
P

>  <INCHIKEY>  (3268) 
LTMXHUUHBSCKEK-UHFFFAOYSA-N

>  <FORMULA>  (3268) 
C16H32O

>  <EXACT MASS>  (3268) 
240.24531564400002

>  <MW>  (3268) 
240

>  <ID>  (3268) 
JP006939

>  <CONTRIBUTOR>  (3268) 
University of Tokyo Team, {Faculty of Engineering, University of Tokyo

>  <COMMENT>  (3268) 
SMILES=CCCCCCCCCCCCCC(=O)CC
InChI=InChI=1S/C16H32O/c1-3-5-6-7-8-9-10-11-12-13-14-15-16(17)4-2/h3-15H2,1-2H3
computed SMILES=O=C(CC)CCCCCCCCCCCCC
accession=JP006939
date=2016.01.19 (Created 2008.10.21, modified 2011.05.06)
author=TAJIMA S, GUNMA COLLEGE OF TECHNOLOGY
license=CC BY-NC-SA
exact mass=240.24532
ionization energy=70 eV
ion type=[M]+*
computed spectral entropy=2.873682634673894
computed normalized entropy=0.7688434046221867
SPLASH=splash10-05fr-9000000000-975661aba94df998e46f
submitter=submitter = University of Tokyo Team (Faculty of Engineering, University of Tokyo)
MoNA Rating=3.75

>  <NUM PEAKS>  (3268) 
42

>  <MASS SPECTRAL PEAKS>  (3268) 
27 10.63
28 2.17
29 43.93
39 5.22
41 36.04
42 8.11
43 44.65
44 1.09
53 2.09
54 1.98
55 22.62
56 6.72
57 82.24
58 3.57
67 4.06
68 1.65
69 10.17
70 2.99
71 19.68
72 99.99
73 42.13
74 1.69
81 3.89
82 1.56
83 5.54
84 1.65
85 27.51
86 1.74
95 6.15
96 2.23
97 3.78
98 1.51
99 4.21
109 3.34
110 1.27
111 1.88
114 1.7
123 1.29
166 1.63
211 22.75
212 3.36
240 1.46

>  <PREDICTED SPECTRUM>  (3268) 
15 39
18 15
26 36
27 261
28 119
29 490
30 135
31 80
38 3
39 178
40 30
41 608
42 208
43 753
44 230
45 106
49 5
51 28
52 23
53 162
54 151
55 436
56 359
57 999
58 528
59 169
65 20
66 31
67 203
68 134
69 281
70 176
71 477
72 704
73 206
74 7
79 69
80 14
81 259
82 213
83 209
84 47
85 381
86 151
94 27
95 275
96 224
97 168
98 47
99 117
100 60
109 211
110 167
111 77
113 98
123 53
124 88
125 77
126 22
127 5
128 93
133 10
137 92
138 30
152 3
153 27
154 6
155 39
165 10
166 42
169 6
183 101
184 77
185 43
211 373
212 108
213 30
222 49
240 161
241 50
242 0

$$$$

     RDKit          2D

 16 15  0  0  0  0  0  0  0  0999 V2000
    4.5466    7.8750    0.0000 C   0  0  0  0  0  0  0  0  0  0  0  0
  -13.6399    7.8750    0.0000 C   0  0  0  0  0  0  0  0  0  0  0  0
    3.2476    8.6250    0.0000 C   0  0  0  0  0  0  0  0  0  0  0  0
    1.9486    7.8750    0.0000 C   0  0  0  0  0  0  0  0  0  0  0  0
    0.6495    8.6250    0.0000 C   0  0  0  0  0  0  0  0  0  0  0  0
   -0.6495    7.8750    0.0000 C   0  0  0  0  0  0  0  0  0  0  0  0
   -1.9486    8.6250    0.0000 C   0  0  0  0  0  0  0  0  0  0  0  0
   -3.2476    7.8750    0.0000 C   0  0  0  0  0  0  0  0  0  0  0  0
   -4.5466    8.6250    0.0000 C   0  0  0  0  0  0  0  0  0  0  0  0
   -5.8457    7.8750    0.0000 C   0  0  0  0  0  0  0  0  0  0  0  0
   -7.1447    8.6250    0.0000 C   0  0  0  0  0  0  0  0  0  0  0  0
   -8.4437    7.8750    0.0000 C   0  0  0  0  0  0  0  0  0  0  0  0
   -9.7428    8.6250    0.0000 C   0  0  0  0  0  0  0  0  0  0  0  0
  -11.0418    7.8750    0.0000 C   0  0  0  0  0  0  0  0  0  0  0  0
  -12.3409    8.6250    0.0000 C   0  0  0  0  0  0  0  0  0  0  0  0
  -12.3409   10.1250    0.0000 O   0  0  0  0  0  0  0  0  0  0  0  0
  3  1  1  0
  4  3  1  0
  5  4  1  0
  6  5  1  0
  7  6  1  0
  8  7  1  0
  9  8  1  0
 10  9  1  0
 11 10  1  0
 12 11  1  0
 13 12  1  0
 14 13  1  0
 15  2  1  0
 15 14  1  0
 16 15  2  0
M  END
>  <NAME>  (3269) 
2-PENTADECANONE

>  <SYNONYMS>  (3269) 


>  <SPECTRUM TYPE>  (3269) 
MS1

>  <INSTRUMENT TYPE>  (3269) 
EI-B

>  <INSTRUMENT>  (3269) 
HITACHI M-80B

>  <ION MODE>  (3269) 
P

>  <INCHIKEY>  (3269) 
CJPNOLIZCWDHJK-UHFFFAOYSA-N

>  <FORMULA>  (3269) 
C15H30O

>  <EXACT MASS>  (3269) 
226.22966558000002

>  <MW>  (3269) 
226

>  <ID>  (3269) 
JP006938

>  <CONTRIBUTOR>  (3269) 
University of Tokyo Team, {Faculty of Engineering, University of Tokyo

>  <COMMENT>  (3269) 
SMILES=CCCCCCCCCCCCCC(C)=O
InChI=InChI=1S/C15H30O/c1-3-4-5-6-7-8-9-10-11-12-13-14-15(2)16/h3-14H2,1-2H3
computed SMILES=O=C(C)CCCCCCCCCCCCC
accession=JP006938
date=2016.01.19 (Created 2008.10.21, modified 2011.05.06)
author=TAJIMA S, GUNMA COLLEGE OF TECHNOLOGY
license=CC BY-NC-SA
exact mass=226.22967
ionization energy=70 eV
ion type=[M]+*
computed spectral entropy=2.588513370230777
computed normalized entropy=0.7168574398123732
SPLASH=splash10-0a4l-9000000000-3fd5f39b5a24aa916a28
submitter=submitter = University of Tokyo Team (Faculty of Engineering, University of Tokyo)
MoNA Rating=3.75

>  <NUM PEAKS>  (3269) 
37

>  <MASS SPECTRAL PEAKS>  (3269) 
15 1.15
27 6.93
29 14
39 4.79
41 26.36
42 5.82
43 81.54
44 1.56
53 1.42
54 1.75
55 15.63
56 4.7
57 14.92
58 99.99
59 47.43
60 1.45
67 2.69
68 1.65
69 6.03
70 2.53
71 32.85
72 1.71
81 1.79
82 4.99
83 3.46
84 1.44
85 7.72
95 1.92
96 4.1
97 2.32
100 1.06
110 1
111 1.17
127 1.08
166 1.27
168 2
226 2.18

>  <PREDICTED SPECTRUM>  (3269) 
0 13
15 79
17 7
18 7
26 24
27 221
28 88
29 282
30 86
31 29
32 9
39 137
40 54
41 540
42 238
43 999
44 173
45 89
52 9
53 151
54 184
55 441
56 278
57 445
58 917
59 560
66 54
67 208
68 241
69 293
70 184
71 588
72 325
73 3
78 9
79 42
80 35
81 221
82 246
83 234
84 106
85 267
86 224
87 59
88 15
92 4
93 27
94 34
95 217
96 269
97 250
98 157
99 229
100 153
101 28
108 33
109 138
110 157
111 178
112 28
113 49
114 30
115 9
122 5
123 75
124 106
125 95
126 46
127 84
128 29
136 2
137 39
138 73
139 28
140 82
141 90
150 49
151 61
152 57
155 45
156 46
166 79
168 168
169 257
170 110
183 99
184 53
194 28
197 42
208 56
209 78
211 208
212 42
224 4
225 47
226 377
227 149
228 5

$$$$

     RDKit          2D

 14 14  0  0  0  0  0  0  0  0999 V2000
    2.0789   -2.0602    0.0000 C   0  0  0  0  0  0  0  0  0  0  0  0
    5.9762    0.1908    0.0000 C   0  0  0  0  0  0  0  0  0  0  0  0
    0.4441    2.0892    0.0000 C   0  0  0  0  0  0  0  0  0  0  0  0
   -1.4841    2.0892    0.0000 C   0  0  0  0  0  0  0  0  0  0  0  0
   -1.8200   -1.3100    0.0000 C   0  0  0  0  0  0  0  0  0  0  0  0
   -0.5200   -2.0600    0.0000 C   0  0  0  0  0  0  0  0  0  0  0  0
    3.3781    0.1904    0.0000 C   0  0  0  0  0  0  0  0  0  0  0  0
    2.0789    0.9402    0.0000 C   0  0  0  0  0  0  0  0  0  0  0  0
   -1.8200    0.1900    0.0000 C   0  0  0  0  0  0  0  0  0  0  0  0
    0.7800   -1.3100    0.0000 C   0  0  0  0  0  0  0  0  0  0  0  0
    4.6770    0.9406    0.0000 C   0  0  0  0  0  0  0  0  0  0  0  0
    0.7800    0.1900    0.0000 C   0  0  0  0  0  0  0  0  0  0  0  0
   -0.5200    0.9400    0.0000 C   0  0  0  0  0  0  0  0  0  0  0  0
    4.6768    2.4406    0.0000 O   0  0  0  0  0  0  0  0  0  0  0  0
  6  5  1  0
  7  8  2  0
  9  5  1  0
 10  1  1  0
 10  6  2  0
 11  2  1  0
 11  7  1  0
 12  8  1  0
 12 10  1  0
 13  3  1  0
 13  4  1  0
 13  9  1  0
 13 12  1  0
 14 11  1  0
M  END
>  <NAME>  (3270) 
ALPHA-IONOL

>  <SYNONYMS>  (3270) 
3-(3-HYDROXY-1-BUTENYL)-2,4,4-TRIMETHYL-1-CYCLOHEXENE

>  <SPECTRUM TYPE>  (3270) 
MS1

>  <INSTRUMENT TYPE>  (3270) 
EI-B

>  <INSTRUMENT>  (3270) 
HITACHI M-80B

>  <ION MODE>  (3270) 
P

>  <INCHIKEY>  (3270) 
PWDOJWCZWKWKSE-BQYQJAHWSA-N

>  <FORMULA>  (3270) 
C13H22O

>  <EXACT MASS>  (3270) 
194.167065324

>  <MW>  (3270) 
194

>  <ID>  (3270) 
JP006936

>  <CONTRIBUTOR>  (3270) 
University of Tokyo Team, {Faculty of Engineering, University of Tokyo

>  <COMMENT>  (3270) 
SMILES=CC(O)C=CC(C(C)=1)C(C)(C)CCC1
InChI=InChI=1S/C13H22O/c1-10-6-5-9-13(3,4)12(10)8-7-11(2)14/h6-8,11-12,14H,5,9H2,1-4H3/b8-7+
computed SMILES=OC(C=CC1C(=CCCC1(C)C)C)C
accession=JP006936
date=2016.01.19 (Created 2008.10.21, modified 2011.05.06)
author=TAJIMA S, GUNMA COLLEGE OF TECHNOLOGY
license=CC BY-NC-SA
exact mass=194.16707
ionization energy=70 eV
ion type=[M]+*
computed spectral entropy=3.2689331970713167
computed normalized entropy=0.8085312256804872
SPLASH=splash10-0005-9200000000-79a43e185c1f45743976
submitter=submitter = University of Tokyo Team (Faculty of Engineering, University of Tokyo)
MoNA Rating=3.75

>  <NUM PEAKS>  (3270) 
57

>  <MASS SPECTRAL PEAKS>  (3270) 
18 1.24
27 8.47
28 1.22
29 7.91
31 1.01
39 10.24
40 1.61
41 22.27
42 1.19
43 55.13
44 1.3
45 7.72
51 2.29
52 1.16
53 8.11
54 1.02
55 12.33
56 4.83
57 2.16
58 1.24
65 4.6
66 1.34
67 9.04
68 5.31
69 4.78
71 2.85
77 12.33
78 2.67
79 14.52
80 10.14
81 14.9
82 1.64
83 1.06
91 12.86
92 3.25
93 14.79
94 7.62
95 99.99
96 13.33
97 1.25
105 8.12
106 1.19
107 7.02
108 1.5
109 8.77
119 2.28
120 4.34
121 7.35
122 1.14
123 14.17
124 1.17
135 1.2
136 1.04
138 41.28
139 4.71
161 1.52
194 2.07

>  <PREDICTED SPECTRUM>  (3270) 
26 13
27 191
28 91
29 141
31 33
37 1
38 67
39 409
40 185
41 643
42 221
43 787
44 165
45 200
46 8
50 145
51 307
52 237
53 436
54 247
55 440
56 195
57 241
58 201
59 173
60 89
62 36
63 182
64 122
65 342
66 232
67 536
68 286
69 488
70 227
71 392
72 218
73 60
74 59
75 75
76 70
77 551
78 281
79 547
80 361
81 529
82 358
83 393
84 168
85 186
86 91
87 122
89 66
91 516
92 368
93 645
94 370
95 789
96 465
97 275
98 93
99 156
102 38
103 151
104 68
105 482
106 300
107 805
108 275
109 645
110 415
111 272
112 138
113 116
114 11
115 82
117 195
118 159
119 320
120 358
121 358
122 220
123 751
124 328
125 214
126 100
127 93
128 42
131 112
132 156
133 373
134 132
135 261
136 265
137 185
138 999
139 292
140 84
146 25
147 110
148 92
149 187
150 109
151 150
152 43
153 26
154 45
161 350
162 94
165 43
166 18
175 19
176 247
177 132
178 87
179 261
180 93
192 1
193 45
194 304
195 121

$$$$

     RDKit          2D

 11 11  0  0  0  0  0  0  0  0999 V2000
    3.7413    1.6389    0.0000 C   0  0  0  0  0  0  0  0  0  0  0  0
    3.2904   -0.9198    0.0000 C   0  0  0  0  0  0  0  0  0  0  0  0
   -2.5989   -1.5002    0.0000 C   0  0  0  0  0  0  0  0  0  0  0  0
   -1.3000    0.7500    0.0000 C   0  0  0  0  0  0  0  0  0  0  0  0
   -0.0000   -1.5000    0.0000 C   0  0  0  0  0  0  0  0  0  0  0  0
    0.0000    1.5000    0.0000 C   0  0  0  0  0  0  0  0  0  0  0  0
    1.3000   -0.7500    0.0000 C   0  0  0  0  0  0  0  0  0  0  0  0
    2.7772    0.4897    0.0000 C   0  0  0  0  0  0  0  0  0  0  0  0
   -1.3000   -0.7500    0.0000 C   0  0  0  0  0  0  0  0  0  0  0  0
    1.3000    0.7500    0.0000 C   0  0  0  0  0  0  0  0  0  0  0  0
    1.8127    2.1596    0.0000 O   0  0  0  0  0  0  0  0  0  0  0  0
  6  4  1  0
  7  5  1  0
  8  1  1  0
  8  2  1  0
  9  3  1  0
  9  4  1  0
  9  5  1  0
 10  6  1  0
 10  7  1  0
 10  8  1  0
 11 10  1  0
M  END
>  <NAME>  (3271) 
P-MENTHAN-4-OL

>  <SYNONYMS>  (3271) 
4-METHYL-1-(1-METHYLETHYL)CYCLOHEXAN-1-OL

>  <SPECTRUM TYPE>  (3271) 
MS1

>  <INSTRUMENT TYPE>  (3271) 
EI-B

>  <INSTRUMENT>  (3271) 
HITACHI M-80B

>  <ION MODE>  (3271) 
P

>  <INCHIKEY>  (3271) 
LWKGCZOYSGKTLB-UHFFFAOYSA-N

>  <FORMULA>  (3271) 
C10H20O

>  <EXACT MASS>  (3271) 
156.15141526

>  <MW>  (3271) 
156

>  <ID>  (3271) 
JP006934

>  <CONTRIBUTOR>  (3271) 
University of Tokyo Team, {Faculty of Engineering, University of Tokyo

>  <COMMENT>  (3271) 
SMILES=CC(C1)CCC(O)(C1)C(C)C
InChI=InChI=1S/C10H20O/c1-8(2)10(11)6-4-9(3)5-7-10/h8-9,11H,4-7H2,1-3H3
computed SMILES=OC1(CCC(C)CC1)C(C)C
accession=JP006934
date=2016.01.19 (Created 2008.10.21, modified 2011.05.06)
author=TAJIMA S, GUNMA COLLEGE OF TECHNOLOGY
license=CC BY-NC-SA
exact mass=156.15142
ionization energy=70 eV
ion type=[M]+*
computed spectral entropy=2.7182354345161213
computed normalized entropy=0.7419652505063724
SPLASH=splash10-03dm-9300000000-d9a61286039548b76367
submitter=submitter = University of Tokyo Team (Faculty of Engineering, University of Tokyo)
MoNA Rating=3.75

>  <NUM PEAKS>  (3271) 
39

>  <MASS SPECTRAL PEAKS>  (3271) 
27 11.19
28 2.55
29 7.82
31 1.74
39 8.24
40 1.25
41 24.94
42 4.52
43 62.97
44 1.58
45 1.84
53 6.56
54 1.07
55 14.21
56 2.26
57 6.98
59 1
67 9.56
68 1.18
69 8.23
70 4.52
71 9.01
77 1.3
79 1.21
81 3.72
83 2.32
85 1.21
86 4.8
87 1.26
93 1.46
95 60.82
96 4.99
97 1.59
99 32.17
100 2.15
112 2.99
113 99.99
114 7.83
123 1.07

>  <PREDICTED SPECTRUM>  (3271) 
15 25
18 35
26 56
27 362
28 107
29 266
31 125
37 12
38 64
39 445
40 179
41 849
42 355
43 999
44 183
45 234
47 13
50 129
51 222
52 132
53 371
54 225
55 908
56 358
57 373
58 181
59 134
60 11
63 31
64 14
65 222
66 113
67 570
68 298
69 807
70 342
71 496
72 190
73 161
74 31
77 311
78 140
79 189
80 136
81 423
82 328
83 306
84 138
85 131
86 65
87 135
91 151
93 188
94 37
95 718
96 334
97 174
98 48
99 109
100 30
105 100
107 21
109 320
110 167
111 147
112 126
113 846
114 251
115 62
121 1
122 4
123 432
124 41
138 316
139 158
140 5
141 111
156 134
157 10

$$$$

     RDKit          2D

 11 11  0  0  0  0  0  0  0  0999 V2000
   -3.5376   -0.2051    0.0000 C   0  0  0  0  0  0  0  0  0  0  0  0
   -2.2386   -2.4551    0.0000 C   0  0  0  0  0  0  0  0  0  0  0  0
    2.9576    2.0449    0.0000 C   0  0  0  0  0  0  0  0  0  0  0  0
    0.3590    2.0458    0.0000 C   0  0  0  0  0  0  0  0  0  0  0  0
   -0.9400    1.2958    0.0000 C   0  0  0  0  0  0  0  0  0  0  0  0
    1.6590   -0.2059    0.0000 C   0  0  0  0  0  0  0  0  0  0  0  0
   -2.2386   -0.9551    0.0000 C   0  0  0  0  0  0  0  0  0  0  0  0
    1.6585    1.2949    0.0000 C   0  0  0  0  0  0  0  0  0  0  0  0
   -0.9395   -0.2051    0.0000 C   0  0  0  0  0  0  0  0  0  0  0  0
    0.3600   -0.9559    0.0000 C   0  0  0  0  0  0  0  0  0  0  0  0
    0.3597   -2.4559    0.0000 O   0  0  0  0  0  0  0  0  0  0  0  0
  5  4  1  0
  7  1  1  0
  7  2  1  0
  8  3  1  0
  8  4  1  0
  8  6  1  0
  9  5  1  0
  9  7  1  0
 10  6  1  0
 10  9  1  0
 11 10  1  0
M  END
>  <NAME>  (3272) 
MENTHOL

>  <SYNONYMS>  (3272) 
1ALPHA,2BETA,5ALPHA-5-METHYL-2-(1-METHYLETHYL)CYCLOHEXAN-1-OL

>  <SPECTRUM TYPE>  (3272) 
MS1

>  <INSTRUMENT TYPE>  (3272) 
EI-B

>  <INSTRUMENT>  (3272) 
HITACHI M-80B

>  <ION MODE>  (3272) 
P

>  <INCHIKEY>  (3272) 
NOOLISFMXDJSKH-UHFFFAOYSA-N

>  <FORMULA>  (3272) 
C10H20O

>  <EXACT MASS>  (3272) 
156.15141526

>  <MW>  (3272) 
156

>  <ID>  (3272) 
JP006932

>  <CONTRIBUTOR>  (3272) 
University of Tokyo Team, {Faculty of Engineering, University of Tokyo

>  <COMMENT>  (3272) 
SMILES=CC(C1)CC(O)C(C1)C(C)C
InChI=InChI=1S/C10H20O/c1-7(2)9-5-4-8(3)6-10(9)11/h7-11H,4-6H2,1-3H3
computed SMILES=OC1CC(C)CCC1C(C)C
accession=JP006932
date=2016.01.19 (Created 2008.10.21, modified 2011.05.06)
author=TAJIMA S, GUNMA COLLEGE OF TECHNOLOGY
license=CC BY-NC-SA
exact mass=156.15142
ionization energy=70 eV
ion type=[M]+*
computed spectral entropy=3.317726243997758
computed normalized entropy=0.8356378614562551
SPLASH=splash10-05gm-9100000000-8a126fba3de41f12e6be
submitter=submitter = University of Tokyo Team (Faculty of Engineering, University of Tokyo)
MoNA Rating=3.75

>  <NUM PEAKS>  (3272) 
53

>  <MASS SPECTRAL PEAKS>  (3272) 
15 1.21
27 21
28 2.24
29 18.49
31 4.06
39 17.64
40 2.77
41 54.65
42 8.53
43 35.26
44 6.18
45 2.37
51 1.58
53 11.25
54 4.33
55 43.61
56 19.8
57 30.37
58 2.76
59 1.65
65 1.86
67 25.2
68 12.57
69 32.49
70 12.86
71 99.99
72 4.49
73 1.24
77 2.34
79 2.99
80 9.36
81 73.52
82 35.18
83 13.38
84 2.42
85 9.34
86 3.5
91 1.1
93 1.98
94 3.75
95 68.53
96 27.27
97 3.89
99 3.11
109 10.45
110 7.33
111 1.68
112 1.55
113 1.23
123 31.13
124 2.54
138 26.13
139 2.54

>  <PREDICTED SPECTRUM>  (3272) 
19 25
26 30
27 311
28 129
29 293
31 100
39 301
40 75
41 846
42 294
43 622
44 99
45 110
50 16
51 139
52 72
53 303
54 185
55 999
56 716
57 696
58 152
65 57
66 27
67 509
68 256
69 809
70 479
71 462
72 77
73 3
77 248
79 244
80 162
81 913
82 387
83 686
84 241
85 177
91 32
93 140
94 118
95 893
96 557
97 568
98 96
99 185
100 53
109 95
111 54
112 189
113 354
114 101
123 651
124 142
138 616
139 245
141 307
156 189

$$$$

     RDKit          2D

 11 11  0  0  1  0  0  0  0  0999 V2000
   -3.5376   -0.2051    0.0000 C   0  0  0  0  0  0  0  0  0  0  0  0
   -2.2386   -2.4551    0.0000 C   0  0  0  0  0  0  0  0  0  0  0  0
    2.9576    2.0449    0.0000 C   0  0  0  0  0  0  0  0  0  0  0  0
    0.3590    2.0458    0.0000 C   0  0  0  0  0  0  0  0  0  0  0  0
   -0.9400    1.2958    0.0000 C   0  0  0  0  0  0  0  0  0  0  0  0
    1.6590   -0.2059    0.0000 C   0  0  0  0  0  0  0  0  0  0  0  0
   -2.2386   -0.9551    0.0000 C   0  0  0  0  0  0  0  0  0  0  0  0
    1.6585    1.2949    0.0000 C   0  0  0  0  0  0  0  0  0  0  0  0
   -0.9395   -0.2051    0.0000 C   0  0  0  0  0  0  0  0  0  0  0  0
    0.3600   -0.9559    0.0000 C   0  0  0  0  0  0  0  0  0  0  0  0
    0.3597   -2.4559    0.0000 O   0  0  0  0  0  0  0  0  0  0  0  0
  5  4  1  0
  7  1  1  0
  7  2  1  0
  8  3  1  6
  8  4  1  0
  8  6  1  0
  9  5  1  0
  9  7  1  6
 10  6  1  0
 10  9  1  0
 10 11  1  1
M  END
>  <NAME>  (3273) 
ISOMENTHOL

>  <SYNONYMS>  (3273) 
1BETA,2ALPHA,5ALPHA-5-METHYL-2-(1-METHYLETHYL)CYCLOHEXAN-1-OL

>  <SPECTRUM TYPE>  (3273) 
MS1

>  <INSTRUMENT TYPE>  (3273) 
EI-B

>  <INSTRUMENT>  (3273) 
HITACHI M-80B

>  <ION MODE>  (3273) 
P

>  <INCHIKEY>  (3273) 
NOOLISFMXDJSKH-LPEHRKFASA-N

>  <FORMULA>  (3273) 
C10H20O

>  <EXACT MASS>  (3273) 
156.15141526

>  <MW>  (3273) 
156

>  <ID>  (3273) 
JP006931

>  <CONTRIBUTOR>  (3273) 
University of Tokyo Team, {Faculty of Engineering, University of Tokyo

>  <COMMENT>  (3273) 
SMILES=CC(C)C([H])(C1)C([H])(O)CC([H])(C)C1
InChI=InChI=1S/C10H20O/c1-7(2)9-5-4-8(3)6-10(9)11/h7-11H,4-6H2,1-3H3/t8-,9-,10+/m0/s1
computed SMILES=OC1CC(C)CCC1C(C)C
accession=JP006931
date=2016.01.19 (Created 2008.10.21, modified 2011.05.06)
author=TAJIMA S, GUNMA COLLEGE OF TECHNOLOGY
license=CC BY-NC-SA
exact mass=156.15142
ionization energy=70 eV
ion type=[M]+*
computed spectral entropy=3.311370215585472
computed normalized entropy=0.8340369644565684
SPLASH=splash10-05gl-9000000000-5c2cebfdcb036e0aecdc
submitter=submitter = University of Tokyo Team (Faculty of Engineering, University of Tokyo)
MoNA Rating=3.75

>  <NUM PEAKS>  (3273) 
53

>  <MASS SPECTRAL PEAKS>  (3273) 
15 1.32
27 19.45
28 1.98
29 16.97
31 4.08
39 18.02
40 2.62
41 48.86
42 7.58
43 31.82
44 4.65
45 2.27
51 1.55
53 9.83
54 3.43
55 37.7
56 19.44
57 25.16
58 2.49
59 1.11
65 1.48
67 21.11
68 11.67
69 26.36
70 10.93
71 99.99
72 4.79
73 1.28
77 2.07
79 2.84
80 6.84
81 55.47
82 28.84
83 9.59
84 2.33
85 8.58
86 3.45
91 1.05
93 1.68
94 2.98
95 51.91
96 16.97
97 3.21
99 3.12
109 8.89
110 4.76
111 1.09
112 1.43
113 1.36
123 23.31
124 2.13
138 19.18
139 2.25

>  <PREDICTED SPECTRUM>  (3273) 
19 25
26 30
27 311
28 129
29 293
31 100
39 301
40 75
41 846
42 294
43 622
44 99
45 110
50 16
51 139
52 72
53 303
54 185
55 999
56 716
57 696
58 152
65 57
66 27
67 509
68 256
69 809
70 479
71 462
72 77
73 3
77 248
79 244
80 162
81 913
82 387
83 686
84 241
85 177
91 32
93 140
94 118
95 893
96 557
97 568
98 96
99 185
100 53
109 95
111 54
112 189
113 354
114 101
123 651
124 142
138 616
139 245
141 307
156 189

$$$$

     RDKit          2D

 11 11  0  0  0  0  0  0  0  0999 V2000
    3.7413    1.6389    0.0000 C   0  0  0  0  0  0  0  0  0  0  0  0
    3.2904   -0.9198    0.0000 C   0  0  0  0  0  0  0  0  0  0  0  0
   -2.5989   -1.5002    0.0000 C   0  0  0  0  0  0  0  0  0  0  0  0
   -1.3000    0.7500    0.0000 C   0  0  0  0  0  0  0  0  0  0  0  0
   -0.0000   -1.5000    0.0000 C   0  0  0  0  0  0  0  0  0  0  0  0
    0.0000    1.5000    0.0000 C   0  0  0  0  0  0  0  0  0  0  0  0
    1.3000   -0.7500    0.0000 C   0  0  0  0  0  0  0  0  0  0  0  0
    2.7772    0.4897    0.0000 C   0  0  0  0  0  0  0  0  0  0  0  0
   -1.3000   -0.7500    0.0000 C   0  0  0  0  0  0  0  0  0  0  0  0
    1.3000    0.7500    0.0000 C   0  0  0  0  0  0  0  0  0  0  0  0
    1.8127    2.1596    0.0000 O   0  0  0  0  0  0  0  0  0  0  0  0
  6  4  1  0
  7  5  1  0
  8  1  1  0
  8  2  1  0
  9  3  1  0
  9  4  2  0
  9  5  1  0
 10  6  1  0
 10  7  1  0
 10  8  1  0
 11 10  1  0
M  END
>  <NAME>  (3274) 
4-TERPINENOL

>  <SYNONYMS>  (3274) 
4-METHYL-1-(1-METHYLETHYL)-3-CYCLOHEXEN-1-OL

>  <SPECTRUM TYPE>  (3274) 
MS1

>  <INSTRUMENT TYPE>  (3274) 
EI-B

>  <INSTRUMENT>  (3274) 
HITACHI M-80B

>  <ION MODE>  (3274) 
P

>  <INCHIKEY>  (3274) 
WRYLYDPHFGVWKC-UHFFFAOYSA-N

>  <FORMULA>  (3274) 
C10H18O

>  <EXACT MASS>  (3274) 
154.135765196

>  <MW>  (3274) 
154

>  <ID>  (3274) 
JP006930

>  <CONTRIBUTOR>  (3274) 
University of Tokyo Team, {Faculty of Engineering, University of Tokyo

>  <COMMENT>  (3274) 
SMILES=CC(C1)=CCC(O)(C1)C(C)C
InChI=InChI=1S/C10H18O/c1-8(2)10(11)6-4-9(3)5-7-10/h4,8,11H,5-7H2,1-3H3
computed SMILES=OC1(CC=C(C)CC1)C(C)C
accession=JP006930
date=2016.01.19 (Created 2008.10.21, modified 2011.05.06)
author=TAJIMA S, GUNMA COLLEGE OF TECHNOLOGY
license=CC BY-NC-SA
exact mass=154.13577
ionization energy=70 eV
ion type=[M]+*
computed spectral entropy=3.311399336954136
computed normalized entropy=0.8121076464676854
SPLASH=splash10-006x-9100000000-575f0430fad8f36207fc
submitter=submitter = University of Tokyo Team (Faculty of Engineering, University of Tokyo)
MoNA Rating=3.75

>  <NUM PEAKS>  (3274) 
59

>  <MASS SPECTRAL PEAKS>  (3274) 
15 1.22
27 17.75
28 1.54
29 6.65
31 2.04
39 16.37
40 4.17
41 32.84
42 4.1
43 44.78
44 1.5
45 1.7
51 3.73
52 1.69
53 13.69
54 1.82
55 22.37
56 1.28
57 3.27
58 1.44
59 1.29
65 4.43
66 1.82
67 16.03
68 15.24
69 21.1
70 4.56
71 99.99
72 5.1
77 10.36
78 1.7
79 4.82
81 11.77
82 3.96
83 10.15
84 1.33
85 1.45
86 26.78
87 1.68
91 8.66
92 7.19
93 43.32
94 4.83
95 7.87
96 1.04
97 1.21
98 1.3
107 1.02
109 1.3
110 6.34
111 52.64
112 4.1
121 1.57
125 1.93
136 7.39
137 1.21
139 1.95
154 17.62
155 1.7

>  <PREDICTED SPECTRUM>  (3274) 
26 45
27 241
28 36
29 149
31 50
37 8
38 63
39 414
40 178
41 616
42 97
43 999
44 176
45 167
50 123
51 251
52 167
53 411
54 253
55 473
56 173
57 280
58 279
59 163
62 29
63 74
65 224
66 163
67 504
68 355
69 412
70 137
71 573
72 77
77 235
78 111
79 435
80 260
81 486
82 196
83 305
84 233
85 247
86 46
91 326
92 96
93 752
94 357
95 182
96 400
97 259
98 79
99 6
105 62
107 324
108 126
109 105
110 60
111 556
112 191
119 189
120 10
121 538
122 78
125 54
136 601
137 260
139 145
140 3
154 168
155 22

$$$$

     RDKit          2D

 11 11  0  0  0  0  0  0  0  0999 V2000
    1.4778    2.1596    0.0000 C   0  0  0  0  0  0  0  0  0  0  0  0
    2.7772   -0.0901    0.0000 C   0  0  0  0  0  0  0  0  0  0  0  0
   -3.8981   -1.3302    0.0000 C   0  0  0  0  0  0  0  0  0  0  0  0
    0.1792   -1.5906    0.0000 C   0  0  0  0  0  0  0  0  0  0  0  0
   -1.1208    0.6594    0.0000 C   0  0  0  0  0  0  0  0  0  0  0  0
   -1.1208   -2.3406    0.0000 C   0  0  0  0  0  0  0  0  0  0  0  0
   -2.4208   -0.0906    0.0000 C   0  0  0  0  0  0  0  0  0  0  0  0
    1.4781    0.6596    0.0000 C   0  0  0  0  0  0  0  0  0  0  0  0
    0.1792   -0.0906    0.0000 C   0  0  0  0  0  0  0  0  0  0  0  0
   -2.4208   -1.5906    0.0000 C   0  0  0  0  0  0  0  0  0  0  0  0
   -2.9336   -3.0002    0.0000 O   0  0  0  0  0  0  0  0  0  0  0  0
  6  4  1  0
  7  5  1  0
  8  1  2  0
  8  2  1  0
  9  4  1  0
  9  5  1  0
  9  8  1  0
 10  3  1  0
 10  6  1  0
 10  7  1  0
 11 10  1  0
M  END
>  <NAME>  (3275) 
BETA-TERPINEOL

>  <SYNONYMS>  (3275) 
1-METHYL-4-(1-METHYLETHENYL)CYCLOHEXAN-1-OL

>  <SPECTRUM TYPE>  (3275) 
MS1

>  <INSTRUMENT TYPE>  (3275) 
EI-B

>  <INSTRUMENT>  (3275) 
HITACHI M-80B

>  <ION MODE>  (3275) 
P

>  <INCHIKEY>  (3275) 
RUJPNZNXGCHGID-UHFFFAOYSA-N

>  <FORMULA>  (3275) 
C10H18O

>  <EXACT MASS>  (3275) 
154.135765196

>  <MW>  (3275) 
154

>  <ID>  (3275) 
JP006929

>  <CONTRIBUTOR>  (3275) 
University of Tokyo Team, {Faculty of Engineering, University of Tokyo

>  <COMMENT>  (3275) 
SMILES=CC(=C)C(C1)CCC(C)(O)C1
InChI=InChI=1S/C10H18O/c1-8(2)9-4-6-10(3,11)7-5-9/h9,11H,1,4-7H2,2-3H3
computed SMILES=OC1(C)CCC(C(=C)C)CC1
accession=JP006929
date=2016.01.19 (Created 2008.10.21, modified 2011.05.06)
author=TAJIMA S, GUNMA COLLEGE OF TECHNOLOGY
license=CC BY-NC-SA
exact mass=154.13577
ionization energy=70 eV
ion type=[M]+*
computed spectral entropy=3.5286024690065085
computed normalized entropy=0.8516745657652675
SPLASH=splash10-006x-9100000000-1e530cbd646d0e92b81e
submitter=submitter = University of Tokyo Team (Faculty of Engineering, University of Tokyo)
MoNA Rating=3.75

>  <NUM PEAKS>  (3275) 
63

>  <MASS SPECTRAL PEAKS>  (3275) 
15 2.77
27 18.43
28 5.86
29 14.12
31 2.98
38 1.08
39 27.61
40 6.89
41 40.81
42 5.44
43 86.85
44 1.97
45 3.9
50 1.05
51 4.57
52 2.31
53 19.06
54 3.2
55 27.25
56 6.75
57 6.02
58 28.83
59 2.61
62 1.27
63 1.56
65 4.94
66 2.86
67 24.39
68 34.92
69 42.72
70 3.82
71 99.99
72 5.2
77 7.36
78 1.7
79 21.7
80 9.4
81 20.79
82 4.61
83 14.05
84 22.2
85 1.7
91 6.12
92 16.98
93 55.68
94 27.41
95 13.41
96 2.97
97 6.22
105 1.96
107 30.96
108 20.26
109 2.18
111 12.52
112 1.02
121 33.4
122 2.7
123 1.15
125 1.01
126 1.2
136 45.88
137 5.64
139 6.35

>  <PREDICTED SPECTRUM>  (3275) 
27 137
28 11
29 113
31 7
39 316
40 143
41 844
42 287
43 999
44 291
45 181
50 56
51 200
52 153
53 508
54 405
55 743
56 275
57 405
58 487
59 232
63 67
64 17
65 269
66 243
67 841
68 835
69 701
70 337
71 976
72 288
77 319
78 179
79 625
80 456
81 943
82 473
83 388
84 426
85 234
86 103
91 326
92 184
93 678
94 470
95 616
96 756
97 426
98 115
99 36
105 143
106 128
107 533
108 509
109 295
110 266
111 256
112 117
119 125
121 911
122 341
123 94
125 178
126 58
135 91
136 739
137 257
138 58
139 290
140 26
154 194
155 37

$$$$

     RDKit          2D

 11 10  0  0  0  0  0  0  0  0999 V2000
    2.1863    4.2623    0.0000 C   0  0  0  0  0  0  0  0  0  0  0  0
   -0.4118    2.7623    0.0000 C   0  0  0  0  0  0  0  0  0  0  0  0
   -6.3579    5.5613    0.0000 C   0  0  0  0  0  0  0  0  0  0  0  0
   -6.9070    3.5123    0.0000 C   0  0  0  0  0  0  0  0  0  0  0  0
    0.8873    5.0123    0.0000 C   0  0  0  0  0  0  0  0  0  0  0  0
   -3.0099    4.2623    0.0000 C   0  0  0  0  0  0  0  0  0  0  0  0
   -1.7108    5.0123    0.0000 C   0  0  0  0  0  0  0  0  0  0  0  0
   -4.3089    5.0123    0.0000 C   0  0  0  0  0  0  0  0  0  0  0  0
   -0.4118    4.2623    0.0000 C   0  0  0  0  0  0  0  0  0  0  0  0
   -5.6079    4.2623    0.0000 C   0  0  0  0  0  0  0  0  0  0  0  0
   -4.8579    2.9632    0.0000 O   0  0  0  0  0  0  0  0  0  0  0  0
  5  1  2  0
  7  6  1  0
  8  6  1  0
  9  2  2  0
  9  5  1  0
  9  7  1  0
 10  3  1  0
 10  4  1  0
 10  8  1  0
 11 10  1  0
M  END
>  <NAME>  (3276) 
MYRCENOL

>  <SYNONYMS>  (3276) 
2-METHYL-6-METHYLENE-7-OCTEN-2-OL

>  <SPECTRUM TYPE>  (3276) 
MS1

>  <INSTRUMENT TYPE>  (3276) 
EI-B

>  <INSTRUMENT>  (3276) 
HITACHI M-80B

>  <ION MODE>  (3276) 
P

>  <INCHIKEY>  (3276) 
DUNCVNHORHNONW-UHFFFAOYSA-N

>  <FORMULA>  (3276) 
C10H18O

>  <EXACT MASS>  (3276) 
154.135765196

>  <MW>  (3276) 
154

>  <ID>  (3276) 
JP006928

>  <CONTRIBUTOR>  (3276) 
University of Tokyo Team, {Faculty of Engineering, University of Tokyo

>  <COMMENT>  (3276) 
SMILES=C=CC(=C)CCCC(C)(C)O
InChI=InChI=1S/C10H18O/c1-5-9(2)7-6-8-10(3,4)11/h5,11H,1-2,6-8H2,3-4H3
computed SMILES=OC(C)(C)CCCC(=C)C=C
accession=JP006928
date=2016.01.19 (Created 2008.10.21, modified 2011.05.06)
author=TAJIMA S, GUNMA COLLEGE OF TECHNOLOGY
license=CC BY-NC-SA
exact mass=154.13577
ionization energy=70 eV
ion type=[M]+*
computed spectral entropy=3.2132759913430755
computed normalized entropy=0.825648602763862
SPLASH=splash10-0536-9000000000-a3e3c12bf43c30f0cae0
submitter=submitter = University of Tokyo Team (Faculty of Engineering, University of Tokyo)
MoNA Rating=3.75

>  <NUM PEAKS>  (3276) 
49

>  <MASS SPECTRAL PEAKS>  (3276) 
15 1.8
27 13.7
28 1.8
29 6.53
31 11.32
39 17.51
40 3.93
41 30.86
42 2.14
43 44.09
44 1.11
45 2.17
50 1.37
51 4.52
52 3.87
53 13.39
54 2.08
55 9.32
56 2.38
57 2.89
58 4.36
59 99.99
60 2.85
65 4.38
66 3.72
67 14.41
68 33.33
69 15.4
70 1.67
71 8.77
77 4.76
78 1.61
79 32.5
80 32.6
81 37.59
82 4.36
83 2.1
91 1.89
92 4.41
93 34.47
94 5.23
95 5.09
107 5.22
108 1.31
121 15.01
122 1.32
136 11.56
137 1.18
139 3.68

>  <PREDICTED SPECTRUM>  (3276) 
26 22
27 323
28 58
29 276
30 31
31 166
38 50
39 544
40 238
41 999
42 258
43 911
44 85
45 45
50 121
51 304
52 235
53 630
54 281
55 569
56 410
57 214
58 183
59 629
60 88
63 155
64 3
65 348
66 240
67 784
68 697
69 734
70 241
71 286
72 59
77 530
78 315
79 801
80 499
81 895
82 323
83 339
84 193
85 66
86 6
91 625
92 380
93 856
94 419
95 237
96 238
97 134
102 10
103 195
105 203
106 77
107 448
108 236
109 148
111 174
112 37
118 5
119 167
120 42
121 788
122 236
135 38
136 642
137 204
139 328
140 71

$$$$

     RDKit          2D

 11 10  0  0  0  0  0  0  0  0999 V2000
    1.9486    3.3750    0.0000 C   0  0  0  0  0  0  0  0  0  0  0  0
    0.6495    5.6250    0.0000 C   0  0  0  0  0  0  0  0  0  0  0  0
   -4.5466    5.6250    0.0000 C   0  0  0  0  0  0  0  0  0  0  0  0
   -5.8457    3.3750    0.0000 C   0  0  0  0  0  0  0  0  0  0  0  0
   -0.6495    3.3750    0.0000 C   0  0  0  0  0  0  0  0  0  0  0  0
   -1.9486    4.1250    0.0000 C   0  0  0  0  0  0  0  0  0  0  0  0
   -3.2476    1.8750    0.0000 C   0  0  0  0  0  0  0  0  0  0  0  0
    0.6495    4.1250    0.0000 C   0  0  0  0  0  0  0  0  0  0  0  0
   -4.5466    4.1250    0.0000 C   0  0  0  0  0  0  0  0  0  0  0  0
   -3.2476    3.3750    0.0000 C   0  0  0  0  0  0  0  0  0  0  0  0
   -4.5466    1.1250    0.0000 O   0  0  0  0  0  0  0  0  0  0  0  0
  6  5  1  0
  8  1  1  0
  8  2  1  0
  8  5  2  0
  9  3  2  0
  9  4  1  0
 10  6  1  0
 10  7  1  0
 10  9  1  0
 11  7  1  0
M  END
>  <NAME>  (3277) 
LAVANDULOL

>  <SYNONYMS>  (3277) 
5-METHYL-2-(1-METHYLETHENYL)-4-HEXEN-1-OL

>  <SPECTRUM TYPE>  (3277) 
MS1

>  <INSTRUMENT TYPE>  (3277) 
EI-B

>  <INSTRUMENT>  (3277) 
HITACHI M-80B

>  <ION MODE>  (3277) 
P

>  <INCHIKEY>  (3277) 
CZVXBFUKBZRMKR-UHFFFAOYSA-N

>  <FORMULA>  (3277) 
C10H18O

>  <EXACT MASS>  (3277) 
154.135765196

>  <MW>  (3277) 
154

>  <ID>  (3277) 
JP006927

>  <CONTRIBUTOR>  (3277) 
University of Tokyo Team, {Faculty of Engineering, University of Tokyo

>  <COMMENT>  (3277) 
SMILES=OCC(CC=C(C)C)C(C)=C
InChI=InChI=1S/C10H18O/c1-8(2)5-6-10(7-11)9(3)4/h5,10-11H,3,6-7H2,1-2,4H3
computed SMILES=OCC(C(=C)C)CC=C(C)C
accession=JP006927
date=2016.01.19 (Created 2008.10.21, modified 2011.05.06)
author=TAJIMA S, GUNMA COLLEGE OF TECHNOLOGY
license=CC BY-NC-SA
exact mass=154.13577
ionization energy=70 eV
ion type=[M]+*
computed spectral entropy=3.0763208671575732
computed normalized entropy=0.7904580971148755
SPLASH=splash10-014l-9100000000-5dff60fa1c2b4a4aa1bf
submitter=submitter = University of Tokyo Team (Faculty of Engineering, University of Tokyo)
MoNA Rating=3.75

>  <NUM PEAKS>  (3277) 
49

>  <MASS SPECTRAL PEAKS>  (3277) 
18 1.25
27 11.73
28 2.87
29 12.01
31 10.45
39 20.68
40 3.62
41 73.69
42 4.25
43 8.79
51 2.88
52 1.56
53 12.8
54 1.32
55 9.88
56 1.96
57 2.83
65 3.51
66 1.5
67 14.33
68 21.25
69 99.99
70 7.72
71 6.1
77 6.19
78 1.13
79 7.18
80 2.38
81 10.47
82 1.28
83 2.63
84 4.32
85 2.61
91 6.58
92 1.75
93 17.03
94 1.96
95 2
105 1.8
107 3.31
109 1.95
110 2.28
111 24.92
112 1.76
121 6.08
122 1.02
123 9.93
124 1.69
136 1.39

>  <PREDICTED SPECTRUM>  (3277) 
1 12
26 28
27 255
28 77
29 270
30 13
31 109
32 13
37 20
38 54
39 355
40 160
41 802
42 197
43 305
44 76
45 28
50 90
51 158
52 118
53 347
54 181
55 366
56 128
57 187
58 62
59 111
62 21
63 70
64 29
65 158
66 91
67 462
68 341
69 999
70 275
71 180
72 29
73 23
77 255
78 116
79 293
80 230
81 351
82 213
83 167
84 176
85 225
86 33
91 286
92 157
93 480
94 158
95 218
96 130
97 126
98 146
99 46
105 189
107 277
108 92
109 186
110 97
111 277
112 117
113 16
119 10
121 254
122 90
123 389
124 93
125 68
126 39
136 138
137 15
139 124
140 8
154 58
155 2

$$$$

     RDKit          2D

 11 12  0  0  1  0  0  0  0  0999 V2000
   -0.6759    1.4813    0.0000 C   0  0  0  0  0  0  0  0  0  0  0  0
   -0.6759   -2.3013    0.0000 C   0  0  0  0  0  0  0  0  0  0  0  0
    2.4475    2.5900    0.0000 C   0  0  0  0  0  0  0  0  0  0  0  0
    1.1450   -1.1600    0.0000 C   0  0  0  0  0  0  0  0  0  0  0  0
    1.1450    0.3400    0.0000 C   0  0  0  0  0  0  0  0  0  0  0  0
    3.7350   -1.1600    0.0000 C   0  0  0  0  0  0  0  0  0  0  0  0
    2.4450   -1.9100    0.0000 C   0  0  0  0  0  0  0  0  0  0  0  0
    3.7350    0.3400    0.0000 C   0  0  0  0  0  0  0  0  0  0  0  0
    1.5750   -0.4100    0.0000 C   0  0  0  0  0  0  0  0  0  0  0  0
    2.4450    1.0900    0.0000 C   0  0  0  0  0  0  0  0  0  0  0  0
    5.0352    1.0880    0.0000 O   0  0  0  0  0  0  0  0  0  0  0  0
  5  4  1  0
  7  4  1  6
  7  6  1  0
  8  6  1  0
  9  1  1  0
  9  2  1  0
  9  7  1  0
 10  3  1  1
 10  5  1  0
 10  8  1  0
 10  9  1  0
  8 11  1  1
M  END
>  <NAME>  (3278) 
ISOBORNEOL

>  <SYNONYMS>  (3278) 
EXO-1,7,7-TRIMETHYLBICYCLO(2.2.1)HEPTAN-2-OL

>  <SPECTRUM TYPE>  (3278) 
MS1

>  <INSTRUMENT TYPE>  (3278) 
EI-B

>  <INSTRUMENT>  (3278) 
HITACHI M-80B

>  <ION MODE>  (3278) 
P

>  <INCHIKEY>  (3278) 
DTGKSKDOIYIVQL-OYNCUSHFSA-N

>  <FORMULA>  (3278) 
C10H18O

>  <EXACT MASS>  (3278) 
154.135765196

>  <MW>  (3278) 
154

>  <ID>  (3278) 
JP006925

>  <CONTRIBUTOR>  (3278) 
University of Tokyo Team, {Faculty of Engineering, University of Tokyo

>  <COMMENT>  (3278) 
SMILES=OC(C1)C(C)(C2)C(C)(C)C(C2)1
InChI=InChI=1S/C10H18O/c1-9(2)7-4-5-10(9,3)8(11)6-7/h7-8,11H,4-6H2,1-3H3/t7-,8-,10+/m0/s1
computed SMILES=OC1CC2CCC1(C)C2(C)C
accession=JP006925
date=2016.01.19 (Created 2008.10.21, modified 2011.05.06)
author=TAJIMA S, GUNMA COLLEGE OF TECHNOLOGY
license=CC BY-NC-SA
exact mass=154.13577
ionization energy=70 eV
ion type=[M]+*
computed spectral entropy=3.2457518441511084
computed normalized entropy=0.8296862875416249
SPLASH=splash10-0005-9100000000-d50d0d9d1dd88bfb8d8c
submitter=submitter = University of Tokyo Team (Faculty of Engineering, University of Tokyo)
MoNA Rating=3.75

>  <NUM PEAKS>  (3278) 
50

>  <MASS SPECTRAL PEAKS>  (3278) 
27 10.18
28 1.27
29 8.74
31 1.55
39 12.52
40 1.98
41 27.77
42 2.25
43 15.64
44 1.72
45 1.02
51 2
53 8.28
54 1.63
55 16.38
56 1.73
57 3.6
59 5.43
65 2.23
67 13.09
68 2.71
69 9.67
70 2.71
71 8.08
72 5.07
77 4.64
79 5.75
80 1.6
81 6.49
82 9.91
83 6.14
84 4.79
85 1.16
91 3.06
92 7.2
93 16.46
94 2.27
95 99.99
96 8.83
97 1.7
105 1.1
107 2.08
108 2.83
109 2.04
110 18.03
111 6.06
121 12.25
136 12.23
137 1.25
139 8.46

>  <PREDICTED SPECTRUM>  (3278) 
15 8
25 3
26 70
27 327
28 132
29 325
30 132
31 170
32 18
37 59
38 121
39 506
40 245
41 895
42 268
43 728
44 190
45 185
47 3
50 164
51 262
52 181
53 426
54 256
55 604
56 248
57 344
58 178
59 177
61 1
62 64
63 139
64 88
65 271
66 225
67 625
68 371
69 686
70 227
71 385
72 136
73 83
74 14
75 23
76 20
77 301
78 148
79 352
80 222
81 671
82 376
83 401
84 272
85 278
86 101
91 290
92 173
93 418
94 263
95 999
96 479
97 251
98 235
99 188
100 64
105 128
106 12
107 270
108 314
109 556
110 474
111 449
112 210
113 59
117 3
120 9
121 494
122 138
123 140
124 24
125 155
126 85
135 80
136 378
137 169
138 22
139 433
140 142
153 10
154 374
155 140

$$$$

     RDKit          2D

 11 10  0  0  0  0  0  0  0  0999 V2000
   -6.8200    5.0625    0.0000 C   0  0  0  0  0  0  0  0  0  0  0  0
   -5.5209    2.8125    0.0000 C   0  0  0  0  0  0  0  0  0  0  0  0
   -0.3248    2.8125    0.0000 C   0  0  0  0  0  0  0  0  0  0  0  0
   -2.9228    4.3125    0.0000 C   0  0  0  0  0  0  0  0  0  0  0  0
   -4.2219    5.0625    0.0000 C   0  0  0  0  0  0  0  0  0  0  0  0
   -1.6238    5.0625    0.0000 C   0  0  0  0  0  0  0  0  0  0  0  0
    0.9743    5.0625    0.0000 C   0  0  0  0  0  0  0  0  0  0  0  0
    2.2733    4.3125    0.0000 C   0  0  0  0  0  0  0  0  0  0  0  0
   -5.5209    4.3125    0.0000 C   0  0  0  0  0  0  0  0  0  0  0  0
   -0.3248    4.3125    0.0000 C   0  0  0  0  0  0  0  0  0  0  0  0
    3.5724    5.0625    0.0000 O   0  0  0  0  0  0  0  0  0  0  0  0
  5  4  1  0
  6  4  1  0
  8  7  1  0
  9  1  1  0
  9  2  1  0
  9  5  1  0
 10  3  1  0
 10  6  1  0
 10  7  1  0
 11  8  1  0
M  END
>  <NAME>  (3279) 
TETRAHYDROGERANIOL

>  <SYNONYMS>  (3279) 
3,7-DIMETHYLOCTANOL

>  <SPECTRUM TYPE>  (3279) 
MS1

>  <INSTRUMENT TYPE>  (3279) 
EI-B

>  <INSTRUMENT>  (3279) 
HITACHI M-80B

>  <ION MODE>  (3279) 
P

>  <INCHIKEY>  (3279) 
PRNCMAKCNVRZFX-UHFFFAOYSA-N

>  <FORMULA>  (3279) 
C10H22O

>  <EXACT MASS>  (3279) 
158.167065324

>  <MW>  (3279) 
158

>  <ID>  (3279) 
JP006923

>  <CONTRIBUTOR>  (3279) 
University of Tokyo Team, {Faculty of Engineering, University of Tokyo

>  <COMMENT>  (3279) 
SMILES=OCCC(C)CCCC(C)C
InChI=InChI=1S/C10H22O/c1-9(2)5-4-6-10(3)7-8-11/h9-11H,4-8H2,1-3H3
computed SMILES=OCCC(C)CCCC(C)C
accession=JP006923
date=2016.01.19 (Created 2008.10.21, modified 2011.05.06)
author=TAJIMA S, GUNMA COLLEGE OF TECHNOLOGY
license=CC BY-NC-SA
exact mass=158.16707
ionization energy=70 eV
ion type=[M]+*
computed spectral entropy=2.979567345241777
computed normalized entropy=0.8191056416010489
SPLASH=splash10-0a4l-9000000000-cf4e5b3123dc8268afe3
submitter=submitter = University of Tokyo Team (Faculty of Engineering, University of Tokyo)
MoNA Rating=3.75

>  <NUM PEAKS>  (3279) 
38

>  <MASS SPECTRAL PEAKS>  (3279) 
15 1.27
18 1.24
27 25.04
28 3.86
29 28.36
31 32.52
39 20.32
40 3.93
41 79.34
42 24.76
43 99.99
44 4.75
45 4.21
53 7.12
54 3.8
55 89.76
56 99.67
57 71.49
58 2.64
67 5.49
68 5.15
69 66.91
70 76.44
71 32.47
72 1.76
81 2.77
82 4.73
83 25.51
84 22.97
85 5.89
96 6.66
97 21.83
98 2.76
111 8.26
112 19.92
113 1.86
125 2.38
140 1.51

>  <PREDICTED SPECTRUM>  (3279) 
15 20
17 6
18 19
19 33
25 14
26 76
27 402
28 172
29 561
30 5
31 332
32 36
33 38
36 12
37 37
38 71
39 467
40 200
41 993
42 539
43 983
44 268
45 289
46 52
47 74
50 65
51 116
52 74
53 265
54 210
55 898
56 999
57 969
58 215
59 128
65 59
66 66
67 292
68 289
69 860
70 843
71 631
72 135
73 113
79 55
81 211
82 310
83 628
84 597
85 260
87 41
95 106
96 174
97 407
98 122
99 64
111 250
112 379
113 144
114 30
115 3
125 45
126 105
140 143

$$$$

     RDKit          2D

 13 13  0  0  0  0  0  0  0  0999 V2000
   -5.5207    3.1321    0.0000 C   0  0  0  0  0  0  0  0  0  0  0  0
   -0.3245    4.6321    0.0000 C   0  0  0  0  0  0  0  0  0  0  0  0
   -4.2216    2.3821    0.0000 C   0  0  0  0  0  0  0  0  0  0  0  0
    3.5726    0.8821    0.0000 C   0  0  0  0  0  0  0  0  0  0  0  0
    3.5731    2.3829    0.0000 C   0  0  0  0  0  0  0  0  0  0  0  0
    2.2731    0.1313    0.0000 C   0  0  0  0  0  0  0  0  0  0  0  0
    2.2740    3.1329    0.0000 C   0  0  0  0  0  0  0  0  0  0  0  0
    0.9740    0.8813    0.0000 C   0  0  0  0  0  0  0  0  0  0  0  0
   -0.3245    3.1321    0.0000 C   0  0  0  0  0  0  0  0  0  0  0  0
    0.9745    2.3821    0.0000 C   0  0  0  0  0  0  0  0  0  0  0  0
   -2.9226    3.1321    0.0000 C   0  0  0  0  0  0  0  0  0  0  0  0
   -2.9226    4.6321    0.0000 O   0  0  0  0  0  0  0  0  0  0  0  0
   -1.6236    2.3821    0.0000 O   0  0  0  0  0  0  0  0  0  0  0  0
  3  1  1  0
  5  4  2  0
  6  4  1  0
  7  5  1  0
  8  6  2  0
  9  2  1  0
 10  7  2  0
 10  8  1  0
 10  9  1  0
 11  3  1  0
 12 11  2  0
 13  9  1  0
 13 11  1  0
M  END
>  <NAME>  (3280) 
1-PHENYLETHYL PROPIONATE

>  <SYNONYMS>  (3280) 


>  <SPECTRUM TYPE>  (3280) 
MS1

>  <INSTRUMENT TYPE>  (3280) 
EI-B

>  <INSTRUMENT>  (3280) 
HITACHI M-80B

>  <ION MODE>  (3280) 
P

>  <INCHIKEY>  (3280) 
WCIQNYOXLZQQMU-UHFFFAOYSA-N

>  <FORMULA>  (3280) 
C11H14O2

>  <EXACT MASS>  (3280) 
178.099379688

>  <MW>  (3280) 
178

>  <ID>  (3280) 
JP006922

>  <CONTRIBUTOR>  (3280) 
University of Tokyo Team, {Faculty of Engineering, University of Tokyo

>  <COMMENT>  (3280) 
SMILES=CCC(=O)OC(C)c(c1)cccc1
InChI=InChI=1S/C11H14O2/c1-3-11(12)13-9(2)10-7-5-4-6-8-10/h4-9H,3H2,1-2H3
computed SMILES=O=C(OC(C=1C=CC=CC1)C)CC
accession=JP006922
date=2016.01.19 (Created 2008.10.21, modified 2011.05.06)
author=TAJIMA S, GUNMA COLLEGE OF TECHNOLOGY
license=CC BY-NC-SA
exact mass=178.09938
ionization energy=70 eV
ion type=[M]+*
computed spectral entropy=2.7584115525922885
computed normalized entropy=0.7758485259068361
SPLASH=splash10-0pdi-7900000000-4d55059169fcb8fc7c47
submitter=submitter = University of Tokyo Team (Faculty of Engineering, University of Tokyo)
MoNA Rating=3.75

>  <NUM PEAKS>  (3280) 
35

>  <MASS SPECTRAL PEAKS>  (3280) 
15 1.07
26 2.26
27 21.32
28 4.26
29 40.09
39 6.93
43 13.31
50 5.34
51 18.28
52 3.38
53 1.76
57 67.66
58 1.7
62 1
63 3.11
65 2.28
74 1.18
75 1.89
76 1.84
77 36.62
78 18.19
79 18.36
89 1.39
91 1.33
102 1.99
103 17.34
104 86.04
105 99.99
106 7.7
107 8.72
121 5.89
122 70.59
123 5.69
178 15.96
179 1.4

>  <PREDICTED SPECTRUM>  (3280) 
14 0
26 33
27 124
28 74
29 156
32 0
38 40
39 151
40 31
41 216
42 82
43 341
44 80
45 64
49 21
50 129
51 245
52 131
53 100
55 87
56 64
57 425
58 96
60 30
61 20
62 29
63 86
64 15
65 72
66 12
73 212
74 120
75 179
76 115
77 442
78 315
79 401
80 122
89 52
90 5
91 1
92 61
93 19
101 101
102 117
103 335
104 554
105 999
106 347
107 499
108 121
109 6
121 251
122 554
123 215
163 63
164 9
178 289
179 97

$$$$

     RDKit          2D

 11 11  0  0  0  0  0  0  0  0999 V2000
   -1.6700   -0.9602    0.0000 C   0  0  0  0  0  0  0  0  0  0  0  0
   -0.3708   -1.7100    0.0000 C   0  0  0  0  0  0  0  0  0  0  0  0
    6.1262    0.5406    0.0000 C   0  0  0  0  0  0  0  0  0  0  0  0
    6.1262   -0.9594    0.0000 C   0  0  0  0  0  0  0  0  0  0  0  0
    4.8262    1.2906    0.0000 C   0  0  0  0  0  0  0  0  0  0  0  0
    4.8262   -1.7094    0.0000 C   0  0  0  0  0  0  0  0  0  0  0  0
    3.5262    0.5406    0.0000 C   0  0  0  0  0  0  0  0  0  0  0  0
    3.5262   -0.9594    0.0000 C   0  0  0  0  0  0  0  0  0  0  0  0
    0.9281   -0.9598    0.0000 C   0  0  0  0  0  0  0  0  0  0  0  0
    0.9278    0.5402    0.0000 O   0  0  0  0  0  0  0  0  0  0  0  0
    2.2272   -1.7096    0.0000 O   0  0  0  0  0  0  0  0  0  0  0  0
  2  1  1  0
  4  3  2  0
  5  3  1  0
  6  4  1  0
  7  5  2  0
  8  6  2  0
  8  7  1  0
  9  2  1  0
 10  9  2  0
 11  8  1  0
 11  9  1  0
M  END
>  <NAME>  (3281) 
PHENYL PROPIONATE

>  <SYNONYMS>  (3281) 


>  <SPECTRUM TYPE>  (3281) 
MS1

>  <INSTRUMENT TYPE>  (3281) 
EI-B

>  <INSTRUMENT>  (3281) 
HITACHI M-80B

>  <ION MODE>  (3281) 
P

>  <INCHIKEY>  (3281) 
DYUMLJSJISTVPV-UHFFFAOYSA-N

>  <FORMULA>  (3281) 
C9H10O2

>  <EXACT MASS>  (3281) 
150.06807956

>  <MW>  (3281) 
150

>  <ID>  (3281) 
JP006921

>  <CONTRIBUTOR>  (3281) 
University of Tokyo Team, {Faculty of Engineering, University of Tokyo

>  <COMMENT>  (3281) 
SMILES=CCC(=O)Oc(c1)cccc1
InChI=InChI=1S/C9H10O2/c1-2-9(10)11-8-6-4-3-5-7-8/h3-7H,2H2,1H3
computed SMILES=O=C(OC=1C=CC=CC1)CC
accession=JP006921
date=2016.01.19 (Created 2008.10.21, modified 2011.05.06)
author=TAJIMA S, GUNMA COLLEGE OF TECHNOLOGY
license=CC BY-NC-SA
exact mass=150.06808
ionization energy=70 eV
ion type=[M]+*
computed spectral entropy=2.2872170825003444
computed normalized entropy=0.7196911080168616
SPLASH=splash10-002f-9000000000-58fb3efeca6152d0c476
submitter=submitter = University of Tokyo Team (Faculty of Engineering, University of Tokyo)
MoNA Rating=3.75

>  <NUM PEAKS>  (3281) 
24

>  <MASS SPECTRAL PEAKS>  (3281) 
26 2.23
27 12.95
28 2.68
29 40.2
38 2.66
39 17.33
40 1.81
50 2.25
51 5.83
55 2.13
56 1.92
57 46.23
58 1.36
62 1.03
63 3.38
64 1.26
65 13.23
66 8.08
77 6.24
93 1.21
94 99.99
95 7.23
150 15.48
151 1.39

>  <PREDICTED SPECTRUM>  (3281) 
15 41
26 86
27 213
28 82
29 347
37 14
38 89
39 303
40 135
41 238
42 132
44 25
45 4
49 9
50 127
51 265
52 70
53 134
54 30
55 162
56 144
57 723
58 105
61 4
62 38
63 109
64 113
65 281
66 233
67 98
73 0
74 39
75 1
76 68
77 361
78 123
91 3
93 116
94 999
95 323
107 20
121 98
122 20
150 257
151 91

$$$$

     RDKit          2D

 11 11  0  0  0  0  0  0  0  0999 V2000
    7.3370    0.5190    0.0000 C   0  0  0  0  0  0  0  0  0  0  0  0
    6.0372   -0.2297    0.0000 C   0  0  0  0  0  0  0  0  0  0  0  0
   -0.7907   -2.0229    0.0000 C   0  0  0  0  0  0  0  0  0  0  0  0
    0.6766   -1.7110    0.0000 C   0  0  0  0  0  0  0  0  0  0  0  0
   -1.5358   -0.7296    0.0000 C   0  0  0  0  0  0  0  0  0  0  0  0
    2.1409    0.5243    0.0000 C   0  0  0  0  0  0  0  0  0  0  0  0
    0.8410   -0.2244    0.0000 C   0  0  0  0  0  0  0  0  0  0  0  0
    4.7389    0.5217    0.0000 C   0  0  0  0  0  0  0  0  0  0  0  0
    4.7405    2.0217    0.0000 O   0  0  0  0  0  0  0  0  0  0  0  0
   -0.5353    0.3828    0.0000 O   0  0  0  0  0  0  0  0  0  0  0  0
    3.4391   -0.2270    0.0000 O   0  0  0  0  0  0  0  0  0  0  0  0
  2  1  1  0
  4  3  1  0
  5  3  1  0
  7  4  1  0
  7  6  1  0
  8  2  1  0
  9  8  2  0
 10  5  1  0
 10  7  1  0
 11  6  1  0
 11  8  1  0
M  END
>  <NAME>  (3282) 
TETRAHYDROFURFURYL PROPIONATE

>  <SYNONYMS>  (3282) 


>  <SPECTRUM TYPE>  (3282) 
MS1

>  <INSTRUMENT TYPE>  (3282) 
EI-B

>  <INSTRUMENT>  (3282) 
HITACHI M-80B

>  <ION MODE>  (3282) 
P

>  <INCHIKEY>  (3282) 
FMKCDSXOYLTWBR-UHFFFAOYSA-N

>  <FORMULA>  (3282) 
C8H14O3

>  <EXACT MASS>  (3282) 
158.094294308

>  <MW>  (3282) 
158

>  <ID>  (3282) 
JP006920

>  <CONTRIBUTOR>  (3282) 
University of Tokyo Team, {Faculty of Engineering, University of Tokyo

>  <COMMENT>  (3282) 
SMILES=CCC(=O)OCC(C1)OCC1
InChI=InChI=1S/C8H14O3/c1-2-8(9)11-6-7-4-3-5-10-7/h7H,2-6H2,1H3
computed SMILES=O=C(OCC1OCCC1)CC
accession=JP006920
date=2016.01.19 (Created 2008.10.21, modified 2011.05.06)
author=TAJIMA S, GUNMA COLLEGE OF TECHNOLOGY
license=CC BY-NC-SA
exact mass=158.09429
ionization energy=70 eV
ion type=[M]+*
computed spectral entropy=2.1271300408972134
computed normalized entropy=0.7100534515968911
SPLASH=splash10-00di-9000000000-32e9a1d39997c3b8db61
submitter=submitter = University of Tokyo Team (Faculty of Engineering, University of Tokyo)
MoNA Rating=3.75

>  <NUM PEAKS>  (3282) 
20

>  <MASS SPECTRAL PEAKS>  (3282) 
15 1.61
26 1.69
27 16.16
28 2.05
29 24.53
31 2.38
39 6.15
40 1.11
41 12.98
42 6.72
43 35.54
44 1.15
54 1.47
55 2.73
56 1.76
57 22.45
70 1.67
71 99.99
72 4.02
84 11.36

>  <PREDICTED SPECTRUM>  (3282) 
14 4
15 19
25 5
26 71
27 210
28 77
29 236
30 32
31 111
33 24
36 12
37 14
38 56
39 226
40 88
41 323
42 188
43 511
44 101
45 18
50 17
51 28
52 14
53 83
54 70
55 190
56 117
57 346
58 73
60 20
61 6
67 69
68 26
69 72
70 106
71 999
72 235
73 123
75 53
81 14
82 10
83 84
84 215
85 76
99 2

$$$$

     RDKit          2D

 15 15  0  0  0  0  0  0  0  0999 V2000
    6.3804    5.2974    0.0000 C   0  0  0  0  0  0  0  0  0  0  0  0
    4.8804    5.2976    0.0000 C   0  0  0  0  0  0  0  0  0  0  0  0
   -1.8800   -1.2000    0.0000 C   0  0  0  0  0  0  0  0  0  0  0  0
   -2.6300    0.1000    0.0000 C   0  0  0  0  0  0  0  0  0  0  0  0
   -0.3800   -1.2000    0.0000 C   0  0  0  0  0  0  0  0  0  0  0  0
   -1.8800    1.4000    0.0000 C   0  0  0  0  0  0  0  0  0  0  0  0
    0.3700    0.1000    0.0000 C   0  0  0  0  0  0  0  0  0  0  0  0
   -0.3700    1.4000    0.0000 C   0  0  0  0  0  0  0  0  0  0  0  0
    1.8800    0.1000    0.0000 C   0  0  0  0  0  0  0  0  0  0  0  0
    0.3800    2.7000    0.0000 C   0  0  0  0  0  0  0  0  0  0  0  0
    2.6300    1.4000    0.0000 C   0  0  0  0  0  0  0  0  0  0  0  0
    1.8800    2.7000    0.0000 C   0  0  0  0  0  0  0  0  0  0  0  0
    4.1302    3.9987    0.0000 C   0  0  0  0  0  0  0  0  0  0  0  0
    4.8800    2.6995    0.0000 O   0  0  0  0  0  0  0  0  0  0  0  0
    2.6302    3.9989    0.0000 O   0  0  0  0  0  0  0  0  0  0  0  0
  2  1  1  0
  4  3  1  0
  5  3  1  0
  6  4  1  0
  7  5  1  0
  8  6  1  0
  9  7  1  0
 10  8  1  0
 11  9  1  0
 12 10  1  0
 12 11  1  0
 13  2  1  0
 14 13  2  0
 15 12  1  0
 15 13  1  0
M  END
>  <NAME>  (3283) 
CYCLODECYL PROPIONATE

>  <SYNONYMS>  (3283) 


>  <SPECTRUM TYPE>  (3283) 
MS1

>  <INSTRUMENT TYPE>  (3283) 
EI-B

>  <INSTRUMENT>  (3283) 
HITACHI M-80B

>  <ION MODE>  (3283) 
P

>  <INCHIKEY>  (3283) 
JBOWYBVZEHROJP-UHFFFAOYSA-N

>  <FORMULA>  (3283) 
C13H24O2

>  <EXACT MASS>  (3283) 
212.177630008

>  <MW>  (3283) 
212

>  <ID>  (3283) 
JP006919

>  <CONTRIBUTOR>  (3283) 
University of Tokyo Team, {Faculty of Engineering, University of Tokyo

>  <COMMENT>  (3283) 
SMILES=CCC(=O)OC(C1)CCCCCCCC1
InChI=InChI=1S/C13H24O2/c1-2-13(14)15-12-10-8-6-4-3-5-7-9-11-12/h12H,2-11H2,1H3
computed SMILES=O=C(OC1CCCCCCCCC1)CC
accession=JP006919
date=2016.01.19 (Created 2008.10.21, modified 2011.05.06)
author=TAJIMA S, GUNMA COLLEGE OF TECHNOLOGY
license=CC BY-NC-SA
exact mass=212.17763
ionization energy=70 eV
ion type=[M]+*
computed spectral entropy=2.7152066194628075
computed normalized entropy=0.7906862949042046
SPLASH=splash10-0a59-9000000000-709f2d2f26b843f72b6d
submitter=submitter = University of Tokyo Team (Faculty of Engineering, University of Tokyo)
MoNA Rating=3.75

>  <NUM PEAKS>  (3283) 
31

>  <MASS SPECTRAL PEAKS>  (3283) 
27 6.67
28 2.07
29 29.32
39 3.29
41 23.02
42 1.29
43 5.22
53 2.67
54 4.04
55 9.66
56 16.01
57 99.99
58 3.31
67 22.63
68 1.58
69 4.13
70 1.34
75 28.01
77 1.06
79 2.93
80 22.15
81 17.55
82 31.81
83 9.72
84 1.19
95 3.39
96 1.78
97 1.02
110 1.02
123 10.18
138 7.41

>  <PREDICTED SPECTRUM>  (3283) 
26 25
27 211
28 75
29 360
39 238
40 68
41 674
42 202
43 347
44 6
51 56
52 27
53 168
54 371
55 764
56 304
57 999
58 232
59 42
60 9
63 24
66 92
67 596
68 331
69 186
70 88
71 174
75 234
77 115
79 103
80 202
81 570
82 691
83 565
84 79
85 142
93 31
94 126
95 175
96 282
97 55
98 2
99 134
100 117
101 82
102 87
109 137
110 193
111 30
112 62
113 96
123 57
138 451
139 55

$$$$

     RDKit          2D

 14 13  0  0  0  0  0  0  0  0999 V2000
    2.8358    5.3873    0.0000 C   0  0  0  0  0  0  0  0  0  0  0  0
   -4.9584    3.8873    0.0000 C   0  0  0  0  0  0  0  0  0  0  0  0
   -8.3065    6.6863    0.0000 C   0  0  0  0  0  0  0  0  0  0  0  0
   -8.8555    4.6373    0.0000 C   0  0  0  0  0  0  0  0  0  0  0  0
   -6.8065    4.0882    0.0000 C   0  0  0  0  0  0  0  0  0  0  0  0
    1.5368    6.1373    0.0000 C   0  0  0  0  0  0  0  0  0  0  0  0
   -3.6594    6.1373    0.0000 C   0  0  0  0  0  0  0  0  0  0  0  0
   -2.3603    5.3873    0.0000 C   0  0  0  0  0  0  0  0  0  0  0  0
   -6.2575    6.1373    0.0000 C   0  0  0  0  0  0  0  0  0  0  0  0
   -4.9584    5.3873    0.0000 C   0  0  0  0  0  0  0  0  0  0  0  0
    0.2377    5.3873    0.0000 C   0  0  0  0  0  0  0  0  0  0  0  0
   -7.5565    5.3873    0.0000 C   0  0  0  0  0  0  0  0  0  0  0  0
    0.2377    3.8873    0.0000 O   0  0  0  0  0  0  0  0  0  0  0  0
   -1.0613    6.1373    0.0000 O   0  0  0  0  0  0  0  0  0  0  0  0
  6  1  1  0
  8  7  1  0
 10  2  1  0
 10  7  1  0
 10  9  1  0
 11  6  1  0
 12  3  1  0
 12  4  1  0
 12  5  1  0
 12  9  1  0
 13 11  2  0
 14  8  1  0
 14 11  1  0
M  END
>  <NAME>  (3284) 
3,5,5-TRIMETHYLHEXYL PROPIONATE

>  <SYNONYMS>  (3284) 


>  <SPECTRUM TYPE>  (3284) 
MS1

>  <INSTRUMENT TYPE>  (3284) 
EI-B

>  <INSTRUMENT>  (3284) 
HITACHI M-80B

>  <ION MODE>  (3284) 
P

>  <INCHIKEY>  (3284) 
FJTRXKOPFZBNTF-UHFFFAOYSA-N

>  <FORMULA>  (3284) 
C12H24O2

>  <EXACT MASS>  (3284) 
200.177630008

>  <MW>  (3284) 
200

>  <ID>  (3284) 
JP006918

>  <CONTRIBUTOR>  (3284) 
University of Tokyo Team, {Faculty of Engineering, University of Tokyo

>  <COMMENT>  (3284) 
SMILES=CCC(=O)OCCC(C)CC(C)(C)C
InChI=InChI=1S/C12H24O2/c1-6-11(13)14-8-7-10(2)9-12(3,4)5/h10H,6-9H2,1-5H3
computed SMILES=O=C(OCCC(C)CC(C)(C)C)CC
accession=JP006918
date=2016.01.19 (Created 2008.10.21, modified 2011.05.06)
author=TAJIMA S, GUNMA COLLEGE OF TECHNOLOGY
license=CC BY-NC-SA
exact mass=200.17763
ionization energy=70 eV
ion type=[M]+*
computed spectral entropy=2.7187493210263836
computed normalized entropy=0.8073984165024504
SPLASH=splash10-0a4i-9100000000-7b4fc9210ff98e36a0d0
submitter=submitter = University of Tokyo Team (Faculty of Engineering, University of Tokyo)
MoNA Rating=3.75

>  <NUM PEAKS>  (3284) 
29

>  <MASS SPECTRAL PEAKS>  (3284) 
27 9.39
28 3.93
29 35.23
39 5.71
40 1.22
41 28.37
42 11.06
43 12.07
53 1.75
54 1.03
55 23.96
56 13.31
57 99.99
58 4.36
67 1.21
69 22.65
70 37.32
71 15.75
74 2.35
75 25.59
83 9.76
84 2.42
98 1.93
102 1.08
111 12.56
112 1.06
115 28.83
116 1.87
126 1.34

>  <PREDICTED SPECTRUM>  (3284) 
26 28
27 130
28 44
29 296
30 67
31 80
33 7
38 24
39 171
40 81
41 422
42 196
43 303
44 68
45 39
49 3
50 28
51 36
52 23
53 106
54 65
55 290
56 398
57 999
58 193
59 63
60 18
61 79
65 15
66 33
67 124
68 85
69 245
70 275
71 249
72 79
73 77
74 61
75 187
76 52
81 44
82 112
83 305
84 132
85 93
86 40
87 101
88 15
95 3
96 16
97 158
98 97
99 65
101 4
102 80
103 94
104 57
110 50
111 101
112 16
113 2
114 41
115 80
117 49
118 51
125 74
126 92
127 120
128 23
129 85
141 21
142 7
143 115
144 34
145 64

$$$$

     RDKit          2D

 12 12  0  0  0  0  0  0  0  0999 V2000
   -5.5207    3.1321    0.0000 C   0  0  0  0  0  0  0  0  0  0  0  0
    3.5726    0.8821    0.0000 C   0  0  0  0  0  0  0  0  0  0  0  0
    3.5731    2.3829    0.0000 C   0  0  0  0  0  0  0  0  0  0  0  0
    2.2731    0.1313    0.0000 C   0  0  0  0  0  0  0  0  0  0  0  0
    2.2740    3.1329    0.0000 C   0  0  0  0  0  0  0  0  0  0  0  0
    0.9740    0.8813    0.0000 C   0  0  0  0  0  0  0  0  0  0  0  0
   -0.3245    3.1321    0.0000 C   0  0  0  0  0  0  0  0  0  0  0  0
   -1.6236    2.3821    0.0000 C   0  0  0  0  0  0  0  0  0  0  0  0
    0.9745    2.3821    0.0000 C   0  0  0  0  0  0  0  0  0  0  0  0
   -2.9226    3.1321    0.0000 C   0  0  0  0  0  0  0  0  0  0  0  0
   -2.9226    4.6321    0.0000 O   0  0  0  0  0  0  0  0  0  0  0  0
   -4.2216    2.3821    0.0000 O   0  0  0  0  0  0  0  0  0  0  0  0
  3  2  1  0
  4  2  1  0
  5  3  1  0
  6  4  1  0
  8  7  1  0
  9  5  1  0
  9  6  1  0
  9  7  1  0
 10  8  1  0
 11 10  2  0
 12  1  1  0
 12 10  1  0
M  END
>  <NAME>  (3285) 
METHYL 3-CYCLOHEXYLPROPIONATE

>  <SYNONYMS>  (3285) 


>  <SPECTRUM TYPE>  (3285) 
MS1

>  <INSTRUMENT TYPE>  (3285) 
EI-B

>  <INSTRUMENT>  (3285) 
HITACHI M-80B

>  <ION MODE>  (3285) 
P

>  <INCHIKEY>  (3285) 
PPALFHZGSIENQB-UHFFFAOYSA-N

>  <FORMULA>  (3285) 
C10H18O2

>  <EXACT MASS>  (3285) 
170.130679816

>  <MW>  (3285) 
170

>  <ID>  (3285) 
JP006917

>  <CONTRIBUTOR>  (3285) 
University of Tokyo Team, {Faculty of Engineering, University of Tokyo

>  <COMMENT>  (3285) 
SMILES=COC(=O)CCC(C1)CCCC1
InChI=InChI=1S/C10H18O2/c1-12-10(11)8-7-9-5-3-2-4-6-9/h9H,2-8H2,1H3
computed SMILES=O=C(OC)CCC1CCCCC1
accession=JP006917
date=2016.01.19 (Created 2008.10.21, modified 2011.05.06)
author=TAJIMA S, GUNMA COLLEGE OF TECHNOLOGY
license=CC BY-NC-SA
exact mass=170.13068
ionization energy=70 eV
ion type=[M]+*
computed spectral entropy=3.2250415885622794
computed normalized entropy=0.7976751653435266
SPLASH=splash10-059m-9000000000-3b5db447fe33aea51570
submitter=submitter = University of Tokyo Team (Faculty of Engineering, University of Tokyo)
MoNA Rating=3.75

>  <NUM PEAKS>  (3285) 
57

>  <MASS SPECTRAL PEAKS>  (3285) 
15 11.88
26 1.12
27 18.96
28 3.86
29 18.39
31 2.56
39 23.62
40 3.22
41 56.08
42 8.41
43 25.91
44 1.11
45 2.08
51 1.8
52 1.27
53 11
54 12.8
55 80.87
56 6.27
57 12.95
59 14.52
65 2.13
66 1.41
67 21.77
68 5.14
69 11.47
71 1.13
74 94.41
75 19.78
77 2.34
79 5.14
80 1.2
81 14.66
82 3.58
83 13.2
84 1.12
85 1.38
87 99.99
88 19.63
89 1.29
91 1.59
93 2.4
94 3.71
95 10.85
96 23.21
97 95.15
98 7.2
109 2.14
110 1.83
120 1.59
121 10.54
137 1.04
138 3.71
139 11.97
141 10.89
142 1.14
170 1.06

>  <PREDICTED SPECTRUM>  (3285) 
14 0
15 84
26 80
27 383
28 185
29 409
31 142
32 33
33 27
36 12
37 44
38 77
39 480
40 209
41 838
42 339
43 470
44 36
45 127
50 96
51 118
52 96
53 341
54 364
55 949
56 195
57 195
58 7
59 543
60 122
61 108
62 31
63 9
65 136
66 124
67 517
68 290
69 469
70 163
71 145
72 45
73 173
74 999
75 391
76 64
77 86
78 60
79 233
80 205
81 464
82 291
83 584
84 193
85 147
87 739
88 299
89 75
91 115
92 76
93 130
94 260
95 311
96 526
97 545
98 86
99 140
100 63
101 212
102 58
103 30
105 17
107 42
108 88
109 239
110 262
111 150
113 171
114 116
115 3
120 191
121 165
122 158
123 137
126 2
127 219
128 169
129 41
138 353
139 337
140 102
141 207
142 86
143 66
155 3
170 304
171 112
172 49

$$$$

     RDKit          2D

 15 15  0  0  0  0  0  0  0  0999 V2000
    6.2062   -0.5808    0.0000 C   0  0  0  0  0  0  0  0  0  0  0  0
   -1.5890   -3.5800    0.0000 C   0  0  0  0  0  0  0  0  0  0  0  0
    1.0090   -3.5800    0.0000 C   0  0  0  0  0  0  0  0  0  0  0  0
   -0.2900    3.1700    0.0000 C   0  0  0  0  0  0  0  0  0  0  0  0
    4.9070   -1.3306    0.0000 C   0  0  0  0  0  0  0  0  0  0  0  0
   -1.5900    0.9200    0.0000 C   0  0  0  0  0  0  0  0  0  0  0  0
   -1.5900   -0.5800    0.0000 C   0  0  0  0  0  0  0  0  0  0  0  0
    1.0100    0.9200    0.0000 C   0  0  0  0  0  0  0  0  0  0  0  0
   -0.2900   -2.8300    0.0000 C   0  0  0  0  0  0  0  0  0  0  0  0
   -0.2900    1.6700    0.0000 C   0  0  0  0  0  0  0  0  0  0  0  0
   -0.2900   -1.3300    0.0000 C   0  0  0  0  0  0  0  0  0  0  0  0
    1.0100   -0.5800    0.0000 C   0  0  0  0  0  0  0  0  0  0  0  0
    3.6081   -0.5804    0.0000 C   0  0  0  0  0  0  0  0  0  0  0  0
    3.6083    0.9196    0.0000 O   0  0  0  0  0  0  0  0  0  0  0  0
    2.3089   -1.3302    0.0000 O   0  0  0  0  0  0  0  0  0  0  0  0
  5  1  1  0
  7  6  1  0
  9  2  1  0
  9  3  1  0
 10  4  1  0
 10  6  1  0
 10  8  1  0
 11  7  1  0
 11  9  1  0
 12  8  1  0
 12 11  1  0
 13  5  1  0
 14 13  2  0
 15 12  1  0
 15 13  1  0
M  END
>  <NAME>  (3286) 
MENTHYL PROPIONATE

>  <SYNONYMS>  (3286) 
5-METHYL-2-(1-METHYLETHYL)CYCLOHEXYL PROPIONATE

>  <SPECTRUM TYPE>  (3286) 
MS1

>  <INSTRUMENT TYPE>  (3286) 
EI-B

>  <INSTRUMENT>  (3286) 
HITACHI M-80B

>  <ION MODE>  (3286) 
P

>  <INCHIKEY>  (3286) 
PELLUIPPBKHUAB-UHFFFAOYSA-N

>  <FORMULA>  (3286) 
C13H24O2

>  <EXACT MASS>  (3286) 
212.177630008

>  <MW>  (3286) 
212

>  <ID>  (3286) 
JP006916

>  <CONTRIBUTOR>  (3286) 
University of Tokyo Team, {Faculty of Engineering, University of Tokyo

>  <COMMENT>  (3286) 
SMILES=CCC(=O)OC(C1)C(CCC(C)1)C(C)C
InChI=InChI=1S/C13H24O2/c1-5-13(14)15-12-8-10(4)6-7-11(12)9(2)3/h9-12H,5-8H2,1-4H3
computed SMILES=O=C(OC1CC(C)CCC1C(C)C)CC
accession=JP006916
date=2016.01.19 (Created 2008.10.21, modified 2011.05.06)
author=TAJIMA S, GUNMA COLLEGE OF TECHNOLOGY
license=CC BY-NC-SA
exact mass=212.17763
ionization energy=70 eV
ion type=[M]+*
computed spectral entropy=3.0248529822891497
computed normalized entropy=0.794620744659624
SPLASH=splash10-0a5j-9200000000-78eca66d5d105c0990ba
submitter=submitter = University of Tokyo Team (Faculty of Engineering, University of Tokyo)
MoNA Rating=3.75

>  <NUM PEAKS>  (3286) 
45

>  <MASS SPECTRAL PEAKS>  (3286) 
27 10.51
29 36.46
39 5.02
41 22.63
42 2.19
43 15.13
53 3.57
54 3.11
55 24.48
56 4.86
57 99.99
58 3.07
65 1.04
67 12.91
68 5.24
69 16.43
70 1.98
71 4.61
75 2.31
77 1.4
79 3.27
80 5.19
81 50.79
82 25.03
83 19.3
84 1.85
85 1.64
93 1.25
94 9.67
95 85.35
96 23.81
97 4.45
98 1.02
99 1.68
109 7.06
110 4.64
111 1.51
113 1.42
123 34.58
124 2.62
127 1.84
137 2.63
138 69.44
139 11.53
141 1.59

>  <PREDICTED SPECTRUM>  (3286) 
25 6
26 68
27 292
28 155
29 437
30 121
31 64
38 19
39 249
40 95
41 632
42 184
43 446
44 54
45 37
51 75
52 56
53 220
54 246
55 545
56 295
57 884
58 230
62 6
63 39
65 121
66 124
67 501
68 242
69 443
70 171
71 351
72 37
75 156
76 8
77 187
78 0
79 228
80 289
81 890
82 570
83 439
84 100
85 122
91 62
93 124
94 321
95 999
96 564
97 182
98 0
99 105
100 14
107 48
109 351
110 204
111 11
112 39
113 102
123 660
124 163
127 119
137 107
138 883
139 332
140 9

$$$$

     RDKit          2D

 15 14  0  0  0  0  0  0  0  0999 V2000
    3.5724    6.5625    0.0000 C   0  0  0  0  0  0  0  0  0  0  0  0
  -10.7171    7.3125    0.0000 C   0  0  0  0  0  0  0  0  0  0  0  0
   -9.4180    5.0625    0.0000 C   0  0  0  0  0  0  0  0  0  0  0  0
   -4.2219    5.0625    0.0000 C   0  0  0  0  0  0  0  0  0  0  0  0
    2.2733    7.3125    0.0000 C   0  0  0  0  0  0  0  0  0  0  0  0
   -6.8200    6.5625    0.0000 C   0  0  0  0  0  0  0  0  0  0  0  0
   -8.1190    7.3125    0.0000 C   0  0  0  0  0  0  0  0  0  0  0  0
   -5.5209    7.3125    0.0000 C   0  0  0  0  0  0  0  0  0  0  0  0
   -2.9228    7.3125    0.0000 C   0  0  0  0  0  0  0  0  0  0  0  0
   -1.6238    6.5625    0.0000 C   0  0  0  0  0  0  0  0  0  0  0  0
   -9.4180    6.5625    0.0000 C   0  0  0  0  0  0  0  0  0  0  0  0
   -4.2219    6.5625    0.0000 C   0  0  0  0  0  0  0  0  0  0  0  0
    0.9743    6.5625    0.0000 C   0  0  0  0  0  0  0  0  0  0  0  0
    0.9743    5.0625    0.0000 O   0  0  0  0  0  0  0  0  0  0  0  0
   -0.3248    7.3125    0.0000 O   0  0  0  0  0  0  0  0  0  0  0  0
  5  1  1  0
  7  6  1  0
  8  6  1  0
 10  9  1  0
 11  2  1  0
 11  3  1  0
 11  7  2  0
 12  4  1  0
 12  8  1  0
 12  9  1  0
 13  5  1  0
 14 13  2  0
 15 10  1  0
 15 13  1  0
M  END
>  <NAME>  (3287) 
CITRONELLYL PROPIONATE

>  <SYNONYMS>  (3287) 
3,7-DIMETHYL-6-OCTENYL PROPIONATE

>  <SPECTRUM TYPE>  (3287) 
MS1

>  <INSTRUMENT TYPE>  (3287) 
EI-B

>  <INSTRUMENT>  (3287) 
HITACHI M-80B

>  <ION MODE>  (3287) 
P

>  <INCHIKEY>  (3287) 
POPNTVRHTZDEBW-UHFFFAOYSA-N

>  <FORMULA>  (3287) 
C13H24O2

>  <EXACT MASS>  (3287) 
212.177630008

>  <MW>  (3287) 
212

>  <ID>  (3287) 
JP006915

>  <CONTRIBUTOR>  (3287) 
University of Tokyo Team, {Faculty of Engineering, University of Tokyo

>  <COMMENT>  (3287) 
SMILES=CCC(=O)OCCC(C)CCC=C(C)C
InChI=InChI=1S/C13H24O2/c1-5-13(14)15-10-9-12(4)8-6-7-11(2)3/h7,12H,5-6,8-10H2,1-4H3
computed SMILES=O=C(OCCC(C)CCC=C(C)C)CC
accession=JP006915
date=2016.01.19 (Created 2008.10.21, modified 2011.05.06)
author=TAJIMA S, GUNMA COLLEGE OF TECHNOLOGY
license=CC BY-NC-SA
exact mass=212.17763
ionization energy=70 eV
ion type=[M]+*
computed spectral entropy=3.1224199784190168
computed normalized entropy=0.806576555859788
SPLASH=splash10-05o1-9100000000-717a571be4855f62445f
submitter=submitter = University of Tokyo Team (Faculty of Engineering, University of Tokyo)
MoNA Rating=3.75

>  <NUM PEAKS>  (3287) 
48

>  <MASS SPECTRAL PEAKS>  (3287) 
26 1.31
27 17.08
28 3.46
29 54.95
30 1.51
31 1.86
39 12.87
40 2.77
41 85.19
42 9.14
43 13.43
51 1.22
53 11.67
54 4.13
55 49.89
56 14.28
57 90.17
58 3.07
59 1.05
65 1.61
66 1.49
67 51.62
68 41.92
69 99.99
70 12.41
71 2.53
75 6.6
77 1.97
79 3.64
80 6.18
81 99.71
82 80.34
83 18.78
84 1.37
93 1.75
94 4.95
95 91.32
96 20.61
97 2.6
99 1.43
109 33.72
110 7.81
111 1.88
123 71.19
124 5.66
137 2.97
138 48.69
139 4.38

>  <PREDICTED SPECTRUM>  (3287) 
26 37
27 221
28 66
29 351
30 81
31 117
37 9
38 40
39 333
40 153
41 840
42 287
43 445
44 105
45 61
50 61
51 115
52 68
53 310
54 191
55 632
56 398
57 710
58 99
59 62
60 42
61 37
62 49
63 69
65 160
66 128
67 638
68 508
69 842
70 295
71 100
73 61
74 10
75 145
76 11
77 158
78 45
79 249
80 281
81 999
82 777
83 312
84 67
85 92
91 69
93 115
94 253
95 972
96 479
97 94
99 21
100 61
107 84
109 590
110 287
111 56
112 13
121 53
123 877
124 265
127 102
129 23
130 4
137 178
138 598
139 121
212 46

$$$$

     RDKit          2D

 15 15  0  0  0  0  0  0  0  0999 V2000
    7.7951    1.5010    0.0000 C   0  0  0  0  0  0  0  0  0  0  0  0
   -2.5989   -1.5002    0.0000 C   0  0  0  0  0  0  0  0  0  0  0  0
    3.5629    2.6494    0.0000 C   0  0  0  0  0  0  0  0  0  0  0  0
    1.6346    2.6491    0.0000 C   0  0  0  0  0  0  0  0  0  0  0  0
    6.4962    0.7508    0.0000 C   0  0  0  0  0  0  0  0  0  0  0  0
   -1.3000    0.7500    0.0000 C   0  0  0  0  0  0  0  0  0  0  0  0
   -0.0000   -1.5000    0.0000 C   0  0  0  0  0  0  0  0  0  0  0  0
    0.0000    1.5000    0.0000 C   0  0  0  0  0  0  0  0  0  0  0  0
    1.3000   -0.7500    0.0000 C   0  0  0  0  0  0  0  0  0  0  0  0
   -1.3000   -0.7500    0.0000 C   0  0  0  0  0  0  0  0  0  0  0  0
    1.3000    0.7500    0.0000 C   0  0  0  0  0  0  0  0  0  0  0  0
    5.1970    1.5006    0.0000 C   0  0  0  0  0  0  0  0  0  0  0  0
    2.5989    1.5002    0.0000 C   0  0  0  0  0  0  0  0  0  0  0  0
    5.1968    3.0006    0.0000 O   0  0  0  0  0  0  0  0  0  0  0  0
    3.8981    0.7504    0.0000 O   0  0  0  0  0  0  0  0  0  0  0  0
  5  1  1  0
  8  6  1  0
  9  7  1  0
 10  2  1  0
 10  6  2  0
 10  7  1  0
 11  8  1  0
 11  9  1  0
 12  5  1  0
 13  3  1  0
 13  4  1  0
 13 11  1  0
 14 12  2  0
 15 12  1  0
 15 13  1  0
M  END
>  <NAME>  (3288) 
ALPHA-TERPINYL PROPIONATE

>  <SYNONYMS>  (3288) 
ALPHA,ALPHA,4-TRIMETHYL-3-CYCLOHEXENEMETHYL PROPIONATE

>  <SPECTRUM TYPE>  (3288) 
MS1

>  <INSTRUMENT TYPE>  (3288) 
EI-B

>  <INSTRUMENT>  (3288) 
HITACHI M-80B

>  <ION MODE>  (3288) 
P

>  <INCHIKEY>  (3288) 
CMKQOKAXUWQAHG-UHFFFAOYSA-N

>  <FORMULA>  (3288) 
C13H22O2

>  <EXACT MASS>  (3288) 
210.161979944

>  <MW>  (3288) 
210

>  <ID>  (3288) 
JP006914

>  <CONTRIBUTOR>  (3288) 
University of Tokyo Team, {Faculty of Engineering, University of Tokyo

>  <COMMENT>  (3288) 
SMILES=CCC(=O)OC(C)(C)C(C1)CC=C(C)C1
InChI=InChI=1S/C13H22O2/c1-5-12(14)15-13(3,4)11-8-6-10(2)7-9-11/h6,11H,5,7-9H2,1-4H3
computed SMILES=O=C(OC(C)(C)C1CC=C(C)CC1)CC
accession=JP006914
date=2016.01.19 (Created 2008.10.21, modified 2011.05.06)
author=TAJIMA S, GUNMA COLLEGE OF TECHNOLOGY
license=CC BY-NC-SA
exact mass=210.16198
ionization energy=70 eV
ion type=[M]+*
computed spectral entropy=3.0120136548892336
computed normalized entropy=0.7959468066536893
SPLASH=splash10-059f-9500000000-efa383b242ac218473ab
submitter=submitter = University of Tokyo Team (Faculty of Engineering, University of Tokyo)
MoNA Rating=3.75

>  <NUM PEAKS>  (3288) 
44

>  <MASS SPECTRAL PEAKS>  (3288) 
27 8.75
29 25.56
31 1.35
39 7.03
40 1.54
41 20.98
42 1.61
43 13.29
51 1.52
53 7.92
55 7.7
56 1.06
57 76.51
58 2.54
59 3.78
65 2.11
66 1.09
67 11.08
68 8.6
69 9.83
71 1.05
77 9.03
78 1.91
79 12.65
80 7.55
81 22.69
82 1.54
91 8.19
92 15.7
93 70.06
94 9.66
95 11.14
105 3.58
107 11.87
108 6.04
115 1.78
121 99.99
122 9.71
123 2.36
136 77.13
137 18.71
138 1.36
139 3.47
195 1.33

>  <PREDICTED SPECTRUM>  (3288) 
26 10
27 160
28 66
29 253
31 42
39 214
40 99
41 463
42 130
43 147
44 17
45 82
51 104
52 61
53 226
54 76
55 323
56 168
57 681
58 209
59 289
60 66
64 8
65 166
66 62
67 331
68 320
69 273
70 61
71 38
72 26
73 39
74 10
75 44
77 342
78 87
79 292
80 419
81 469
82 80
83 81
84 19
91 274
92 408
93 934
94 412
95 357
96 62
97 49
105 173
107 449
108 241
109 167
110 73
111 26
121 995
122 335
135 33
136 999
137 616
138 110
154 65

$$$$

     RDKit          2D

 15 14  0  0  0  0  0  0  0  0999 V2000
    0.0000    0.0000    0.0000 C   0  0  0  0  0  0  0  0  0  0  0  0
  -10.3923    6.0000    0.0000 C   0  0  0  0  0  0  0  0  0  0  0  0
   -9.0933    8.2500    0.0000 C   0  0  0  0  0  0  0  0  0  0  0  0
   -3.8971    8.2500    0.0000 C   0  0  0  0  0  0  0  0  0  0  0  0
    0.0000    1.5000    0.0000 C   0  0  0  0  0  0  0  0  0  0  0  0
   -6.4952    6.7500    0.0000 C   0  0  0  0  0  0  0  0  0  0  0  0
   -7.7942    6.0000    0.0000 C   0  0  0  0  0  0  0  0  0  0  0  0
   -5.1962    6.0000    0.0000 C   0  0  0  0  0  0  0  0  0  0  0  0
   -2.5981    6.0000    0.0000 C   0  0  0  0  0  0  0  0  0  0  0  0
   -2.5981    4.5000    0.0000 C   0  0  0  0  0  0  0  0  0  0  0  0
   -9.0933    6.7500    0.0000 C   0  0  0  0  0  0  0  0  0  0  0  0
   -3.8971    6.7500    0.0000 C   0  0  0  0  0  0  0  0  0  0  0  0
   -1.2990    2.2500    0.0000 C   0  0  0  0  0  0  0  0  0  0  0  0
   -2.5981    1.5000    0.0000 O   0  0  0  0  0  0  0  0  0  0  0  0
   -1.2990    3.7500    0.0000 O   0  0  0  0  0  0  0  0  0  0  0  0
  5  1  1  0
  7  6  1  0
  8  6  1  0
 10  9  1  0
 11  2  1  0
 11  3  1  0
 11  7  2  0
 12  4  1  0
 12  8  1  0
  9 12  2  0
 13  5  1  0
 14 13  2  0
 15 10  1  0
 15 13  1  0
M  END
>  <NAME>  (3289) 
NERYL PROPIONATE

>  <SYNONYMS>  (3289) 
(Z)-3,7-DIMETHYL-2,6-OCTADIENYL PROPIONATE

>  <SPECTRUM TYPE>  (3289) 
MS1

>  <INSTRUMENT TYPE>  (3289) 
EI-B

>  <INSTRUMENT>  (3289) 
HITACHI M-80B

>  <ION MODE>  (3289) 
P

>  <INCHIKEY>  (3289) 
BYCHQEILESTMQU-XFXZXTDPSA-N

>  <FORMULA>  (3289) 
C13H22O2

>  <EXACT MASS>  (3289) 
210.161979944

>  <MW>  (3289) 
210

>  <ID>  (3289) 
JP006913

>  <CONTRIBUTOR>  (3289) 
University of Tokyo Team, {Faculty of Engineering, University of Tokyo

>  <COMMENT>  (3289) 
SMILES=CCC(=O)OCC([H])=C(C)CCC=C(C)C
InChI=InChI=1S/C13H22O2/c1-5-13(14)15-10-9-12(4)8-6-7-11(2)3/h7,9H,5-6,8,10H2,1-4H3/b12-9-
computed SMILES=O=C(OCC=C(C)CCC=C(C)C)CC
accession=JP006913
date=2016.01.19 (Created 2008.10.21, modified 2011.05.06)
author=TAJIMA S, GUNMA COLLEGE OF TECHNOLOGY
license=CC BY-NC-SA
exact mass=210.16198
ionization energy=70 eV
ion type=[M]+*
computed spectral entropy=2.935992112183875
computed normalized entropy=0.7855140801696414
SPLASH=splash10-014l-9100000000-2e0f1e77d40cf1eab2f5
submitter=submitter = University of Tokyo Team (Faculty of Engineering, University of Tokyo)
MoNA Rating=3.75

>  <NUM PEAKS>  (3289) 
42

>  <MASS SPECTRAL PEAKS>  (3289) 
27 8.86
29 23.9
39 8.88
40 2.61
41 51.54
42 3.12
43 4.11
51 1.17
53 9.52
55 4.61
57 50.23
58 1.28
65 1.73
66 1.06
67 12.65
68 49.18
69 99.99
70 5.6
77 2.88
79 4.91
80 22.78
81 10.57
82 1.28
83 1.25
84 4.9
85 3.29
91 3.01
92 9.64
93 45.23
94 7.42
95 2.75
97 1.15
105 1.54
107 5.68
108 1.4
109 1.02
121 18.49
122 1.75
123 1.91
136 18.12
137 3.45
154 2.06

>  <PREDICTED SPECTRUM>  (3289) 
27 122
28 50
29 241
31 7
38 12
39 219
40 122
41 738
42 198
43 335
44 113
45 20
50 30
51 97
52 107
53 322
54 136
55 248
56 148
57 676
58 115
59 76
60 22
63 30
64 12
65 174
66 106
67 428
68 690
69 999
70 211
71 93
72 80
73 15
77 230
78 104
79 286
80 525
81 557
82 138
83 113
84 71
85 99
86 9
91 227
92 339
93 768
94 363
95 185
96 49
97 63
105 123
107 384
108 145
109 90
110 29
111 30
115 30
121 548
122 233
123 170
127 14
135 21
136 530
137 245
138 4
139 13
141 79
153 12
154 121
167 19
210 15

$$$$

     RDKit          2D

 15 14  0  0  0  0  0  0  0  0999 V2000
    2.5981    4.5000    0.0000 C   0  0  0  0  0  0  0  0  0  0  0  0
   -2.1469    1.9414    0.0000 C   0  0  0  0  0  0  0  0  0  0  0  0
   -5.1962   10.5000    0.0000 C   0  0  0  0  0  0  0  0  0  0  0  0
   -6.4952    8.2500    0.0000 C   0  0  0  0  0  0  0  0  0  0  0  0
   -4.0753    4.7605    0.0000 C   0  0  0  0  0  0  0  0  0  0  0  0
    1.2990    3.7500    0.0000 C   0  0  0  0  0  0  0  0  0  0  0  0
   -3.1111    3.0905    0.0000 C   0  0  0  0  0  0  0  0  0  0  0  0
   -3.8971    6.7500    0.0000 C   0  0  0  0  0  0  0  0  0  0  0  0
   -3.8971    8.2500    0.0000 C   0  0  0  0  0  0  0  0  0  0  0  0
   -2.5981    6.0000    0.0000 C   0  0  0  0  0  0  0  0  0  0  0  0
   -5.1962    9.0000    0.0000 C   0  0  0  0  0  0  0  0  0  0  0  0
    0.0000    4.5000    0.0000 C   0  0  0  0  0  0  0  0  0  0  0  0
   -2.5981    4.5000    0.0000 C   0  0  0  0  0  0  0  0  0  0  0  0
    0.0000    6.0000    0.0000 O   0  0  0  0  0  0  0  0  0  0  0  0
   -1.2990    3.7500    0.0000 O   0  0  0  0  0  0  0  0  0  0  0  0
  6  1  1  0
  7  2  2  0
  9  8  1  0
 10  8  1  0
 11  3  1  0
 11  4  1  0
 11  9  2  0
 12  6  1  0
 13  5  1  0
 13  7  1  0
 13 10  1  0
 14 12  2  0
 15 12  1  0
 15 13  1  0
M  END
>  <NAME>  (3290) 
LINALYL PROPIONATE

>  <SYNONYMS>  (3290) 
3,7-DIMETHYL-1,6-OCTADIEN-3-YL PROPIONATE

>  <SPECTRUM TYPE>  (3290) 
MS1

>  <INSTRUMENT TYPE>  (3290) 
EI-B

>  <INSTRUMENT>  (3290) 
HITACHI M-80B

>  <ION MODE>  (3290) 
P

>  <INCHIKEY>  (3290) 
WAQIIHCCEMGYKP-UHFFFAOYSA-N

>  <FORMULA>  (3290) 
C13H22O2

>  <EXACT MASS>  (3290) 
210.161979944

>  <MW>  (3290) 
210

>  <ID>  (3290) 
JP006912

>  <CONTRIBUTOR>  (3290) 
University of Tokyo Team, {Faculty of Engineering, University of Tokyo

>  <COMMENT>  (3290) 
SMILES=CCC(=O)OC(C)(C=C)CCC=C(C)C
InChI=InChI=1S/C13H22O2/c1-6-12(14)15-13(5,7-2)10-8-9-11(3)4/h7,9H,2,6,8,10H2,1,3-5H3
computed SMILES=O=C(OC(C=C)(C)CCC=C(C)C)CC
accession=JP006912
date=2016.01.19 (Created 2008.10.21, modified 2011.05.06)
author=TAJIMA S, GUNMA COLLEGE OF TECHNOLOGY
license=CC BY-NC-SA
exact mass=210.16198
ionization energy=70 eV
ion type=[M]+*
computed spectral entropy=3.0378664900189953
computed normalized entropy=0.8127702018281172
SPLASH=splash10-0006-9100000000-fa9b80fbc07bb1017509
submitter=submitter = University of Tokyo Team (Faculty of Engineering, University of Tokyo)
MoNA Rating=3.75

>  <NUM PEAKS>  (3290) 
42

>  <MASS SPECTRAL PEAKS>  (3290) 
27 10.32
29 27
39 9.05
40 2.38
41 34.34
42 2.21
43 11.71
51 1.11
53 9.05
54 1.06
55 13.64
56 1.22
57 58.84
58 1.78
65 1.51
66 1.1
67 11.04
68 11.61
69 30.24
70 1.68
71 4.21
72 1.21
77 4.24
79 8.75
80 41.64
81 15.03
82 3.1
83 4.11
91 5.56
92 15.38
93 99.99
94 11.89
95 3.66
105 4.15
107 8.66
108 1.66
109 1.45
121 32.82
122 2.85
136 11.47
137 3.23
139 1.04

>  <PREDICTED SPECTRUM>  (3290) 
25 5
26 15
27 129
28 25
29 235
38 21
39 261
40 147
41 654
42 171
43 537
44 95
45 123
50 35
51 95
52 97
53 349
54 119
55 438
56 191
57 799
58 187
59 195
60 52
61 8
63 36
64 33
65 199
66 180
67 477
68 477
69 578
70 142
71 296
72 222
73 131
74 59
75 137
76 20
77 316
78 122
79 379
80 566
81 543
82 235
83 222
84 131
85 148
86 51
87 30
91 249
92 446
93 999
94 501
95 261
96 118
97 120
98 54
99 93
100 85
101 0
103 34
105 152
107 527
108 226
109 131
110 65
111 132
112 19
113 92
114 19
115 98
117 6
118 12
119 34
120 2
121 564
122 143
123 134
126 34
127 78
128 78
129 37
136 422
137 232
138 63
139 127
140 53
141 94
153 61
154 133
155 39
165 12
167 65

$$$$

     RDKit          2D

 15 16  0  0  1  0  0  0  0  0999 V2000
    8.9311    0.3321    0.0000 C   0  0  0  0  0  0  0  0  0  0  0  0
   -0.6759    1.4813    0.0000 C   0  0  0  0  0  0  0  0  0  0  0  0
   -0.6759   -2.3013    0.0000 C   0  0  0  0  0  0  0  0  0  0  0  0
    2.4475    2.5900    0.0000 C   0  0  0  0  0  0  0  0  0  0  0  0
    7.6332    1.0841    0.0000 C   0  0  0  0  0  0  0  0  0  0  0  0
    1.1450   -1.1600    0.0000 C   0  0  0  0  0  0  0  0  0  0  0  0
    1.1450    0.3400    0.0000 C   0  0  0  0  0  0  0  0  0  0  0  0
    3.7350   -1.1600    0.0000 C   0  0  0  0  0  0  0  0  0  0  0  0
    2.4450   -1.9100    0.0000 C   0  0  0  0  0  0  0  0  0  0  0  0
    3.7350    0.3400    0.0000 C   0  0  0  0  0  0  0  0  0  0  0  0
    6.3331    0.3361    0.0000 C   0  0  0  0  0  0  0  0  0  0  0  0
    1.5750   -0.4100    0.0000 C   0  0  0  0  0  0  0  0  0  0  0  0
    2.4450    1.0900    0.0000 C   0  0  0  0  0  0  0  0  0  0  0  0
    6.3308   -1.1639    0.0000 O   0  0  0  0  0  0  0  0  0  0  0  0
    5.0352    1.0880    0.0000 O   0  0  0  0  0  0  0  0  0  0  0  0
  5  1  1  0
  7  6  1  0
  9  6  1  6
  9  8  1  0
 10  8  1  0
 11  5  1  0
 12  2  1  0
 12  3  1  0
 12  9  1  0
 13  4  1  1
 13  7  1  0
 13 10  1  0
 13 12  1  0
 14 11  2  0
 15 10  1  0
 15 11  1  0
M  END
>  <NAME>  (3291) 
ISOBORNYL PROPIONATE

>  <SYNONYMS>  (3291) 
EXO-1,7,7-TRIMETHYLBICYCLO(2.2.1)HEPT-2-YLPROPIONATE

>  <SPECTRUM TYPE>  (3291) 
MS1

>  <INSTRUMENT TYPE>  (3291) 
EI-B

>  <INSTRUMENT>  (3291) 
HITACHI M-80B

>  <ION MODE>  (3291) 
P

>  <INCHIKEY>  (3291) 
FAFMZORPAAGQFV-BOURZNODSA-N

>  <FORMULA>  (3291) 
C13H22O2

>  <EXACT MASS>  (3291) 
210.161979944

>  <MW>  (3291) 
210

>  <ID>  (3291) 
JP006910

>  <CONTRIBUTOR>  (3291) 
University of Tokyo Team, {Faculty of Engineering, University of Tokyo

>  <COMMENT>  (3291) 
SMILES=CCC(=O)OC(C1)C(C)(C2)C(C)(C)C(C2)1
InChI=InChI=1S/C13H22O2/c1-5-11(14)15-10-8-9-6-7-13(10,4)12(9,2)3/h9-10H,5-8H2,1-4H3/t9-,10?,13+/m0/s1
computed SMILES=O=C(OC1CC2CCC1(C)C2(C)C)CC
accession=JP006910
date=2016.01.19 (Created 2008.10.21, modified 2011.05.06)
author=TAJIMA S, GUNMA COLLEGE OF TECHNOLOGY
license=CC BY-NC-SA
exact mass=210.16198
ionization energy=70 eV
ion type=[M]+*
computed spectral entropy=3.306958217895406
computed normalized entropy=0.8215327434635796
SPLASH=splash10-0a4j-9400000000-598c79dacceaa267432b
submitter=submitter = University of Tokyo Team (Faculty of Engineering, University of Tokyo)
MoNA Rating=3.75

>  <NUM PEAKS>  (3291) 
56

>  <MASS SPECTRAL PEAKS>  (3291) 
27 11.47
28 1.07
29 40.06
39 8.11
40 1.46
41 29.64
42 1.88
43 13.92
51 1.43
53 8.49
54 1.28
55 18.34
56 1.84
57 94.97
58 2.82
65 2.28
66 1.28
67 14.04
68 5.32
69 19.3
70 1.59
71 3.18
72 3.4
77 6.72
78 1.19
79 10.14
80 8.9
81 13.89
82 11.75
83 8.27
84 2.79
91 6.09
92 11.89
93 43.32
94 7.54
95 99.99
96 8.16
97 2.52
105 2.29
107 10.21
108 34.68
109 26.78
110 23.07
111 6.82
121 47.58
122 4.03
123 1.97
135 2.56
136 76.23
137 15.5
138 1.28
139 3.34
153 1.89
154 13.23
155 1.44
210 1.92

>  <PREDICTED SPECTRUM>  (3291) 
25 8
26 49
27 221
28 95
29 383
30 41
31 76
38 30
39 275
40 135
41 566
42 96
43 157
44 57
50 69
51 127
52 105
53 249
54 110
55 407
56 172
57 888
58 207
59 60
63 48
64 42
65 191
66 103
67 395
68 298
69 513
70 110
71 98
72 10
73 7
74 90
75 85
76 46
77 324
78 138
79 374
80 345
81 616
82 327
83 264
84 68
85 41
86 13
91 330
92 296
93 687
94 296
95 937
96 275
97 148
98 91
99 82
100 22
103 12
105 144
106 45
107 470
108 832
109 462
110 340
111 330
120 42
121 784
122 179
125 24
126 135
136 999
137 432
138 171
139 148
140 18
153 36
154 549
155 222
156 72
210 364
211 137

$$$$

     RDKit          2D

 15 15  0  0  0  0  0  0  0  0999 V2000
   -4.1878   -0.5805    0.0000 C   0  0  0  0  0  0  0  0  0  0  0  0
    4.9060   -2.8305    0.0000 C   0  0  0  0  0  0  0  0  0  0  0  0
    6.2050   -0.5805    0.0000 C   0  0  0  0  0  0  0  0  0  0  0  0
   -0.2902    1.6695    0.0000 C   0  0  0  0  0  0  0  0  0  0  0  0
   -2.8889   -1.3307    0.0000 C   0  0  0  0  0  0  0  0  0  0  0  0
    2.3084    1.6703    0.0000 C   0  0  0  0  0  0  0  0  0  0  0  0
    3.6074    0.9203    0.0000 C   0  0  0  0  0  0  0  0  0  0  0  0
    2.3074   -1.3314    0.0000 C   0  0  0  0  0  0  0  0  0  0  0  0
    4.9060   -1.3305    0.0000 C   0  0  0  0  0  0  0  0  0  0  0  0
    1.0089    0.9195    0.0000 C   0  0  0  0  0  0  0  0  0  0  0  0
    3.6069   -0.5805    0.0000 C   0  0  0  0  0  0  0  0  0  0  0  0
    1.0084   -0.5814    0.0000 C   0  0  0  0  0  0  0  0  0  0  0  0
   -1.5897   -0.5809    0.0000 C   0  0  0  0  0  0  0  0  0  0  0  0
   -1.5895    0.9191    0.0000 O   0  0  0  0  0  0  0  0  0  0  0  0
   -0.2908   -1.3311    0.0000 O   0  0  0  0  0  0  0  0  0  0  0  0
  5  1  1  0
  7  6  1  0
  9  2  2  0
  9  3  1  0
 10  4  1  0
 10  6  2  0
 11  7  1  0
 11  8  1  0
 11  9  1  0
 12  8  1  0
 12 10  1  0
 13  5  1  0
 14 13  2  0
 15 12  1  0
 15 13  1  0
M  END
>  <NAME>  (3292) 
CARVYL PROPIONATE

>  <SYNONYMS>  (3292) 
2-METHYL-5-(1-METHYLETHENYL)-2-CYCLOHEXENYL PROPIONATE

>  <SPECTRUM TYPE>  (3292) 
MS1

>  <INSTRUMENT TYPE>  (3292) 
EI-B

>  <INSTRUMENT>  (3292) 
HITACHI M-80B

>  <ION MODE>  (3292) 
P

>  <INCHIKEY>  (3292) 
DFVXNZOMAOGTBL-UHFFFAOYSA-N

>  <FORMULA>  (3292) 
C13H20O2

>  <EXACT MASS>  (3292) 
208.14632988

>  <MW>  (3292) 
208

>  <ID>  (3292) 
JP006908

>  <CONTRIBUTOR>  (3292) 
University of Tokyo Team, {Faculty of Engineering, University of Tokyo

>  <COMMENT>  (3292) 
SMILES=CCC(=O)OC(C1)C(C)=CCC(C(C)=C)1
InChI=InChI=1S/C13H20O2/c1-5-13(14)15-12-8-11(9(2)3)7-6-10(12)4/h6,11-12H,2,5,7-8H2,1,3-4H3
computed SMILES=O=C(OC1C(=CCC(C(=C)C)C1)C)CC
accession=JP006908
date=2016.01.19 (Created 2008.10.21, modified 2011.05.06)
author=TAJIMA S, GUNMA COLLEGE OF TECHNOLOGY
license=CC BY-NC-SA
exact mass=208.14633
ionization energy=70 eV
ion type=[M]+*
computed spectral entropy=3.420562866789794
computed normalized entropy=0.8287985191818323
SPLASH=splash10-0a6u-9400000000-79a6d0ea4ebd40345e30
submitter=submitter = University of Tokyo Team (Faculty of Engineering, University of Tokyo)
MoNA Rating=3.75

>  <NUM PEAKS>  (3292) 
62

>  <MASS SPECTRAL PEAKS>  (3292) 
26 1.34
27 20.37
28 1.54
29 54.35
30 1.17
39 18.08
40 2.46
41 28.31
42 1.89
43 8.31
51 3.9
52 2.4
53 10.91
54 2.5
55 17.56
56 1.81
57 99.99
58 3.03
63 1.2
65 5.8
66 2.47
67 5.92
68 3.6
69 2.58
77 17.39
78 4.35
79 14.42
80 5.75
81 5.85
82 3.78
83 3.21
84 19.62
85 1.17
91 30.12
92 21.41
93 25.95
94 3.88
95 2.87
96 3.53
97 2.12
103 1.76
104 1.22
105 16.19
106 6.92
107 12.9
108 6.48
109 46.91
110 3.9
115 1.52
117 2.32
119 52.68
120 5.28
123 2.07
124 1.25
133 2.61
134 17.96
135 3.53
137 3.01
140 1.42
152 39.84
153 3.74
165 4.72

>  <PREDICTED SPECTRUM>  (3292) 
26 15
27 173
28 61
29 265
31 9
38 41
39 264
40 121
41 511
42 155
43 405
44 101
45 18
49 31
50 49
51 177
52 138
53 303
54 147
55 331
56 161
57 999
58 236
59 88
60 51
61 65
63 93
64 76
65 235
66 175
67 329
68 200
69 185
70 98
71 112
72 122
74 19
76 14
77 428
78 200
79 368
80 215
81 368
82 211
83 200
84 177
85 147
86 47
90 44
91 524
92 402
93 539
94 283
95 302
96 222
97 119
98 14
103 89
105 384
106 252
107 372
108 335
109 574
110 224
111 131
112 43
115 34
116 107
117 226
118 155
119 904
120 227
121 47
122 6
123 143
124 106
127 2
131 35
132 6
133 93
134 512
135 189
136 133
137 273
138 124
139 9
147 12
151 64
152 640
153 233
165 178
166 42
208 78

$$$$

     RDKit          2D

 10  9  0  0  0  0  0  0  0  0999 V2000
    2.5981    4.5000    0.0000 C   0  0  0  0  0  0  0  0  0  0  0  0
   -7.7942    4.5000    0.0000 C   0  0  0  0  0  0  0  0  0  0  0  0
    1.2990    5.2500    0.0000 C   0  0  0  0  0  0  0  0  0  0  0  0
   -6.4952    5.2500    0.0000 C   0  0  0  0  0  0  0  0  0  0  0  0
   -2.5981    4.5000    0.0000 C   0  0  0  0  0  0  0  0  0  0  0  0
   -1.2990    5.2500    0.0000 C   0  0  0  0  0  0  0  0  0  0  0  0
   -3.8971    5.2500    0.0000 C   0  0  0  0  0  0  0  0  0  0  0  0
   -3.8971    6.7500    0.0000 O   0  0  0  0  0  0  0  0  0  0  0  0
    0.0000    4.5000    0.0000 O   0  0  0  0  0  0  0  0  0  0  0  0
   -5.1962    4.5000    0.0000 O   0  0  0  0  0  0  0  0  0  0  0  0
  3  1  1  0
  4  2  1  0
  6  5  1  0
  7  5  1  0
  8  7  2  0
  9  3  1  0
  9  6  1  0
 10  4  1  0
 10  7  1  0
M  END
>  <NAME>  (3293) 
ETHYL 3-ETHOXYPROPIONATE

>  <SYNONYMS>  (3293) 


>  <SPECTRUM TYPE>  (3293) 
MS1

>  <INSTRUMENT TYPE>  (3293) 
EI-B

>  <INSTRUMENT>  (3293) 
HITACHI M-80B

>  <ION MODE>  (3293) 
P

>  <INCHIKEY>  (3293) 
BHXIWUJLHYHGSJ-UHFFFAOYSA-N

>  <FORMULA>  (3293) 
C7H14O3

>  <EXACT MASS>  (3293) 
146.094294308

>  <MW>  (3293) 
146

>  <ID>  (3293) 
JP006907

>  <CONTRIBUTOR>  (3293) 
University of Tokyo Team, {Faculty of Engineering, University of Tokyo

>  <COMMENT>  (3293) 
SMILES=CCOCCC(=O)OCC
InChI=InChI=1S/C7H14O3/c1-3-9-6-5-7(8)10-4-2/h3-6H2,1-2H3
computed SMILES=O=C(OCC)CCOCC
accession=JP006907
date=2016.01.19 (Created 2008.10.21, modified 2011.05.06)
author=TAJIMA S, GUNMA COLLEGE OF TECHNOLOGY
license=CC BY-NC-SA
exact mass=146.09429
ionization energy=70 eV
ion type=[M]+*
computed spectral entropy=2.977758192766778
computed normalized entropy=0.8516378530346629
SPLASH=splash10-0ke9-9100000000-0b838143d4cd497ae86b
submitter=submitter = University of Tokyo Team (Faculty of Engineering, University of Tokyo)
MoNA Rating=3.75

>  <NUM PEAKS>  (3293) 
33

>  <MASS SPECTRAL PEAKS>  (3293) 
15 4.91
19 1.98
26 6.48
27 41.55
28 17.73
29 84.1
30 4.17
31 63.72
41 3.56
42 11.08
43 36.27
44 12.44
45 34.83
47 3.61
55 10.67
56 4.22
57 6.2
58 1.6
59 99.99
60 9.99
61 2.23
71 56.66
72 18.37
73 24.4
74 20.31
75 10.6
89 19.27
100 1.09
101 39.69
102 31.02
103 2.6
117 39.07
118 2.28

>  <PREDICTED SPECTRUM>  (3293) 
14 26
15 24
19 65
25 32
26 222
27 636
28 379
29 985
30 358
31 776
32 16
37 0
38 35
39 297
40 152
41 589
42 464
43 821
44 567
45 882
46 268
47 454
48 20
51 3
52 11
53 137
54 200
55 916
56 781
57 684
58 436
59 999
60 702
61 623
63 62
70 258
71 454
72 765
73 848
74 333
75 466
76 86
82 82
83 213
84 180
87 106
88 663
89 387
90 33
91 30
99 175
100 234
101 843
102 333
103 125
117 554
118 112
119 218
131 95
145 3
146 74
147 10

$$$$

     RDKit          2D

 13 12  0  0  0  0  0  0  0  0999 V2000
    3.8971    6.0000    0.0000 C   0  0  0  0  0  0  0  0  0  0  0  0
  -10.3923    6.7500    0.0000 C   0  0  0  0  0  0  0  0  0  0  0  0
    2.5981    6.7500    0.0000 C   0  0  0  0  0  0  0  0  0  0  0  0
   -9.0933    6.0000    0.0000 C   0  0  0  0  0  0  0  0  0  0  0  0
    1.2990    6.0000    0.0000 C   0  0  0  0  0  0  0  0  0  0  0  0
    0.0000    6.7500    0.0000 C   0  0  0  0  0  0  0  0  0  0  0  0
   -1.2990    6.0000    0.0000 C   0  0  0  0  0  0  0  0  0  0  0  0
   -2.5981    6.7500    0.0000 C   0  0  0  0  0  0  0  0  0  0  0  0
   -3.8971    6.0000    0.0000 C   0  0  0  0  0  0  0  0  0  0  0  0
   -5.1962    6.7500    0.0000 C   0  0  0  0  0  0  0  0  0  0  0  0
   -7.7942    6.7500    0.0000 C   0  0  0  0  0  0  0  0  0  0  0  0
   -7.7942    8.2500    0.0000 O   0  0  0  0  0  0  0  0  0  0  0  0
   -6.4952    6.0000    0.0000 O   0  0  0  0  0  0  0  0  0  0  0  0
  3  1  1  0
  4  2  1  0
  5  3  1  0
  6  5  1  0
  7  6  1  0
  8  7  1  0
  9  8  1  0
 10  9  1  0
 11  4  1  0
 12 11  2  0
 13 10  1  0
 13 11  1  0
M  END
>  <NAME>  (3294) 
OCTYL PROPIONATE

>  <SYNONYMS>  (3294) 


>  <SPECTRUM TYPE>  (3294) 
MS1

>  <INSTRUMENT TYPE>  (3294) 
EI-B

>  <INSTRUMENT>  (3294) 
HITACHI M-80B

>  <ION MODE>  (3294) 
P

>  <INCHIKEY>  (3294) 
CEQGYPPMTKWBIU-UHFFFAOYSA-N

>  <FORMULA>  (3294) 
C11H22O2

>  <EXACT MASS>  (3294) 
186.161979944

>  <MW>  (3294) 
186

>  <ID>  (3294) 
JP006906

>  <CONTRIBUTOR>  (3294) 
University of Tokyo Team, {Faculty of Engineering, University of Tokyo

>  <COMMENT>  (3294) 
SMILES=CCCCCCCCOC(=O)CC
InChI=InChI=1S/C11H22O2/c1-3-5-6-7-8-9-10-13-11(12)4-2/h3-10H2,1-2H3
computed SMILES=O=C(OCCCCCCCC)CC
accession=JP006906
date=2016.01.19 (Created 2008.10.21, modified 2011.05.06)
author=TAJIMA S, GUNMA COLLEGE OF TECHNOLOGY
license=CC BY-NC-SA
exact mass=186.16198
ionization energy=70 eV
ion type=[M]+*
computed spectral entropy=2.882195039592578
computed normalized entropy=0.8042918396949553
SPLASH=splash10-0a6r-9000000000-85a6c9399d2a9ba7b4c4
submitter=submitter = University of Tokyo Team (Faculty of Engineering, University of Tokyo)
MoNA Rating=3.75

>  <NUM PEAKS>  (3294) 
36

>  <MASS SPECTRAL PEAKS>  (3294) 
26 1.5
27 20.72
28 6.76
29 58.78
30 1.18
31 2.56
39 8.01
40 1.54
41 33.75
42 20.03
43 31.17
44 1.45
53 2.01
54 2.57
55 27.06
56 33.17
57 99.99
58 2.77
67 2.01
68 4.81
69 20.7
70 33.76
71 10.62
72 1.66
74 1.82
75 43.05
76 1.15
82 3.62
83 18.94
84 20.64
85 1.58
87 2.81
97 1.65
112 11.78
113 1.02
130 1.04

>  <PREDICTED SPECTRUM>  (3294) 
26 10
27 119
28 35
29 301
30 22
31 55
33 29
39 136
40 99
41 568
42 345
43 503
44 140
45 30
46 50
47 43
52 37
53 129
54 160
55 548
56 729
57 999
58 186
59 21
60 10
61 59
66 26
67 166
68 288
69 515
70 543
71 329
72 69
73 52
74 126
75 502
79 46
81 141
82 254
83 500
84 413
85 120
86 23
87 37
94 8
95 134
96 149
97 367
98 277
110 57
111 163
112 362
113 239
131 19
157 8
186 49
187 34

$$$$

     RDKit          2D

 12 11  0  0  0  0  0  0  0  0999 V2000
   -9.7428    5.6250    0.0000 C   0  0  0  0  0  0  0  0  0  0  0  0
    3.2476    5.6250    0.0000 C   0  0  0  0  0  0  0  0  0  0  0  0
   -8.4437    4.8750    0.0000 C   0  0  0  0  0  0  0  0  0  0  0  0
    1.9486    4.8750    0.0000 C   0  0  0  0  0  0  0  0  0  0  0  0
   -7.1447    5.6250    0.0000 C   0  0  0  0  0  0  0  0  0  0  0  0
   -5.8457    4.8750    0.0000 C   0  0  0  0  0  0  0  0  0  0  0  0
   -4.5466    5.6250    0.0000 C   0  0  0  0  0  0  0  0  0  0  0  0
   -3.2476    4.8750    0.0000 C   0  0  0  0  0  0  0  0  0  0  0  0
   -1.9486    5.6250    0.0000 C   0  0  0  0  0  0  0  0  0  0  0  0
    0.6495    5.6250    0.0000 C   0  0  0  0  0  0  0  0  0  0  0  0
    0.6495    7.1250    0.0000 O   0  0  0  0  0  0  0  0  0  0  0  0
   -0.6495    4.8750    0.0000 O   0  0  0  0  0  0  0  0  0  0  0  0
  3  1  1  0
  4  2  1  0
  5  3  1  0
  6  5  1  0
  7  6  1  0
  8  7  1  0
  9  8  1  0
 10  4  1  0
 11 10  2  0
 12  9  1  0
 12 10  1  0
M  END
>  <NAME>  (3295) 
HEPTYL PROPIONATE

>  <SYNONYMS>  (3295) 


>  <SPECTRUM TYPE>  (3295) 
MS1

>  <INSTRUMENT TYPE>  (3295) 
EI-B

>  <INSTRUMENT>  (3295) 
HITACHI M-80B

>  <ION MODE>  (3295) 
P

>  <INCHIKEY>  (3295) 
BGYICJVBGZQOCY-UHFFFAOYSA-N

>  <FORMULA>  (3295) 
C10H20O2

>  <EXACT MASS>  (3295) 
172.14632988

>  <MW>  (3295) 
172

>  <ID>  (3295) 
JP006905

>  <CONTRIBUTOR>  (3295) 
University of Tokyo Team, {Faculty of Engineering, University of Tokyo

>  <COMMENT>  (3295) 
SMILES=CCCCCCCOC(=O)CC
InChI=InChI=1S/C10H20O2/c1-3-5-6-7-8-9-12-10(11)4-2/h3-9H2,1-2H3
computed SMILES=O=C(OCCCCCCC)CC
computed spectral entropy=2.6838526944360166
computed normalized entropy=0.7890905446729544
accession=JP006905
date=2016.01.19 (Created 2008.10.21, modified 2011.05.06)
author=TAJIMA S, GUNMA COLLEGE OF TECHNOLOGY
license=CC BY-NC-SA
exact mass=172.14633
ionization energy=70 eV
ion type=[M]+*
SPLASH=splash10-0a6r-9000000000-e153617a8287cd2b0284
submitter=submitter = University of Tokyo Team (Faculty of Engineering, University of Tokyo)
MoNA Rating=3.75

>  <NUM PEAKS>  (3295) 
30

>  <MASS SPECTRAL PEAKS>  (3295) 
26 1.49
27 22.86
28 8.09
29 57.9
30 1.16
31 2.29
39 8.5
40 1.59
41 31.26
42 16.13
43 21.93
53 1.54
54 2.8
55 24.5
56 42.49
57 99.99
58 2.87
68 3.55
69 18.12
70 33.29
71 1.71
72 1.38
74 1.69
75 42.26
76 1.09
83 2.93
87 3.1
97 2.06
98 18.01
99 1.02

>  <PREDICTED SPECTRUM>  (3295) 
26 18
27 140
28 47
29 350
31 70
33 35
39 146
40 106
41 556
42 351
43 449
44 130
45 58
46 44
47 34
48 5
51 12
52 49
53 132
54 148
55 515
56 753
57 999
58 159
59 7
67 126
68 250
69 454
70 550
71 283
72 77
73 92
74 76
75 490
79 40
81 108
82 190
83 364
84 238
96 14
97 257
98 377
99 245
100 19
117 18
143 0
172 52
173 30

$$$$

     RDKit          2D

 12 12  0  0  0  0  0  0  0  0999 V2000
    4.8787   -2.0594    0.0000 C   0  0  0  0  0  0  0  0  0  0  0  0
   -1.6200    0.1898    0.0000 C   0  0  0  0  0  0  0  0  0  0  0  0
    6.1662    1.6906    0.0000 C   0  0  0  0  0  0  0  0  0  0  0  0
    4.8762    2.4406    0.0000 C   0  0  0  0  0  0  0  0  0  0  0  0
    6.1662    0.1906    0.0000 C   0  0  0  0  0  0  0  0  0  0  0  0
    3.5762    1.6906    0.0000 C   0  0  0  0  0  0  0  0  0  0  0  0
    2.2772   -0.5596    0.0000 C   0  0  0  0  0  0  0  0  0  0  0  0
    4.8762   -0.5594    0.0000 C   0  0  0  0  0  0  0  0  0  0  0  0
   -0.3208   -0.5600    0.0000 C   0  0  0  0  0  0  0  0  0  0  0  0
    3.5762    0.1906    0.0000 C   0  0  0  0  0  0  0  0  0  0  0  0
   -0.3206   -2.0600    0.0000 O   0  0  0  0  0  0  0  0  0  0  0  0
    0.9781    0.1902    0.0000 O   0  0  0  0  0  0  0  0  0  0  0  0
  4  3  2  0
  5  3  1  0
  6  4  1  0
  8  1  1  0
  8  5  2  0
  9  2  1  0
 10  6  2  0
 10  7  1  0
 10  8  1  0
 11  9  2  0
 12  7  1  0
 12  9  1  0
M  END
>  <NAME>  (3296) 
O-METHYLBENZYL ACETATE

>  <SYNONYMS>  (3296) 
1-ACETOXYMETHYL-2-METHYLBENZENE

>  <SPECTRUM TYPE>  (3296) 
MS1

>  <INSTRUMENT TYPE>  (3296) 
EI-B

>  <INSTRUMENT>  (3296) 
HITACHI M-80B

>  <ION MODE>  (3296) 
P

>  <INCHIKEY>  (3296) 
BKKDUUVBVHYZFA-UHFFFAOYSA-N

>  <FORMULA>  (3296) 
C10H12O2

>  <EXACT MASS>  (3296) 
164.083729624

>  <MW>  (3296) 
164

>  <ID>  (3296) 
JP006904

>  <CONTRIBUTOR>  (3296) 
University of Tokyo Team, {Faculty of Engineering, University of Tokyo

>  <COMMENT>  (3296) 
SMILES=CC(=O)OCc(c1)c(C)ccc1
InChI=InChI=1S/C10H12O2/c1-8-5-3-4-6-10(8)7-12-9(2)11/h3-6H,7H2,1-2H3
computed SMILES=O=C(OCC=1C=CC=CC1C)C
accession=JP006904
date=2016.01.19 (Created 2008.10.21, modified 2011.05.06)
author=TAJIMA S, GUNMA COLLEGE OF TECHNOLOGY
license=CC BY-NC-SA
exact mass=164.08373
ionization energy=70 eV
ion type=[M]+*
computed spectral entropy=2.347315029192708
computed normalized entropy=0.7204559477596519
SPLASH=splash10-0udi-5900000000-78ff90a7a4c5e2dccf1e
submitter=submitter = University of Tokyo Team (Faculty of Engineering, University of Tokyo)
MoNA Rating=3.75

>  <NUM PEAKS>  (3296) 
26

>  <MASS SPECTRAL PEAKS>  (3296) 
15 2.95
27 2.01
39 5.71
41 1.13
43 20.57
50 1.5
51 4.77
52 1.35
53 1.3
63 3.12
65 5.95
77 12.11
78 11.37
79 6.52
89 1.78
91 8.6
93 3.79
102 1.1
103 11.23
104 99.99
105 28.87
106 2.48
107 7.11
119 1.54
121 1.11
122 4.06

>  <PREDICTED SPECTRUM>  (3296) 
14 1
15 12
26 12
27 81
37 5
38 36
39 159
40 53
41 63
42 6
43 428
44 31
45 46
49 16
50 123
51 195
52 125
53 94
54 20
61 10
62 48
63 115
64 74
65 181
66 37
69 3
74 41
75 18
76 74
77 289
78 263
79 263
80 36
81 1
86 13
89 126
90 101
91 291
92 121
93 167
102 38
103 296
104 999
105 754
106 289
107 277
119 126
121 186
122 146
149 8
164 122
165 13

$$$$

     RDKit          2D

 12 12  0  0  0  0  0  0  0  0999 V2000
   -2.9271   -0.9465    0.0000 C   0  0  0  0  0  0  0  0  0  0  0  0
    6.1679   -1.6943    0.0000 C   0  0  0  0  0  0  0  0  0  0  0  0
   -0.3233   -3.9365    0.0000 C   0  0  0  0  0  0  0  0  0  0  0  0
   -1.6223   -3.1865    0.0000 C   0  0  0  0  0  0  0  0  0  0  0  0
    0.9713   -3.1943    0.0000 C   0  0  0  0  0  0  0  0  0  0  0  0
   -0.3273   -0.9434    0.0000 C   0  0  0  0  0  0  0  0  0  0  0  0
    2.2709   -0.9437    0.0000 C   0  0  0  0  0  0  0  0  0  0  0  0
   -1.6268   -1.6943    0.0000 C   0  0  0  0  0  0  0  0  0  0  0  0
    4.8690   -0.9441    0.0000 C   0  0  0  0  0  0  0  0  0  0  0  0
    0.9717   -1.6934    0.0000 C   0  0  0  0  0  0  0  0  0  0  0  0
    4.8692    0.5559    0.0000 O   0  0  0  0  0  0  0  0  0  0  0  0
    3.5698   -1.6939    0.0000 O   0  0  0  0  0  0  0  0  0  0  0  0
  4  3  2  0
  5  3  1  0
  8  1  1  0
  8  4  1  0
  8  6  2  0
  9  2  1  0
 10  5  2  0
 10  6  1  0
 10  7  1  0
 11  9  2  0
 12  7  1  0
 12  9  1  0
M  END
>  <NAME>  (3297) 
M-METHYLBENZYL ACETATE

>  <SYNONYMS>  (3297) 
1-ACETOXYMETHYL-3-METHYLBENZENE

>  <SPECTRUM TYPE>  (3297) 
MS1

>  <INSTRUMENT TYPE>  (3297) 
EI-B

>  <INSTRUMENT>  (3297) 
HITACHI M-80B

>  <ION MODE>  (3297) 
P

>  <INCHIKEY>  (3297) 
QPTQLFCBVFKFLY-UHFFFAOYSA-N

>  <FORMULA>  (3297) 
C10H12O2

>  <EXACT MASS>  (3297) 
164.083729624

>  <MW>  (3297) 
164

>  <ID>  (3297) 
JP006903

>  <CONTRIBUTOR>  (3297) 
University of Tokyo Team, {Faculty of Engineering, University of Tokyo

>  <COMMENT>  (3297) 
SMILES=CC(=O)OCc(c1)cc(C)cc1
InChI=InChI=1S/C10H12O2/c1-8-4-3-5-10(6-8)7-12-9(2)11/h3-6H,7H2,1-2H3
computed SMILES=O=C(OCC=1C=CC=C(C1)C)C
accession=JP006903
date=2016.01.19 (Created 2008.10.21, modified 2011.05.06)
author=TAJIMA S, GUNMA COLLEGE OF TECHNOLOGY
license=CC BY-NC-SA
exact mass=164.08373
ionization energy=70 eV
ion type=[M]+*
computed spectral entropy=3.129484861760336
computed normalized entropy=0.8173878244721763
SPLASH=splash10-0ki6-9800000000-94cc9f0400be635d6dec
submitter=submitter = University of Tokyo Team (Faculty of Engineering, University of Tokyo)
MoNA Rating=3.75

>  <NUM PEAKS>  (3297) 
46

>  <MASS SPECTRAL PEAKS>  (3297) 
14 2.61
15 9.58
27 7.55
29 2.56
38 2.65
39 20.35
40 1.64
41 4.23
42 3.1
43 75.47
44 2.01
50 5.04
51 12.96
52 4.3
53 4.23
62 2.85
63 9.96
64 3.1
65 18.24
66 1.49
74 1.29
75 1.12
76 1.79
77 36.65
78 30.87
79 18.64
89 5.21
90 2.67
91 28.89
92 2.97
93 23.67
94 1.65
102 2.22
103 24.31
104 33.54
105 65.97
106 5.25
107 36.94
108 2.68
119 5.17
120 1.32
121 7.52
122 99.99
123 7.86
164 33.06
165 3.3

>  <PREDICTED SPECTRUM>  (3297) 
14 37
15 105
25 4
26 79
27 201
28 40
29 75
37 59
38 118
39 286
40 118
41 202
42 125
43 624
44 110
45 77
49 34
50 177
51 278
52 193
53 181
54 44
59 47
60 14
61 58
62 107
63 202
64 143
65 250
66 116
67 53
74 64
75 102
76 95
77 481
78 309
79 418
80 60
87 44
89 158
90 111
91 442
92 194
93 265
94 81
95 5
102 92
103 272
104 425
105 999
106 386
107 367
108 52
119 290
120 53
121 393
122 859
123 246
124 43
163 13
164 552
165 175
166 31

$$$$

     RDKit          2D

 12 12  0  0  0  0  0  0  0  0999 V2000
   -2.5989   -1.5002    0.0000 C   0  0  0  0  0  0  0  0  0  0  0  0
    6.4962    0.7508    0.0000 C   0  0  0  0  0  0  0  0  0  0  0  0
   -1.3000    0.7500    0.0000 C   0  0  0  0  0  0  0  0  0  0  0  0
   -0.0000   -1.5000    0.0000 C   0  0  0  0  0  0  0  0  0  0  0  0
    0.0000    1.5000    0.0000 C   0  0  0  0  0  0  0  0  0  0  0  0
    1.3000   -0.7500    0.0000 C   0  0  0  0  0  0  0  0  0  0  0  0
    2.5989    1.5002    0.0000 C   0  0  0  0  0  0  0  0  0  0  0  0
   -1.3000   -0.7500    0.0000 C   0  0  0  0  0  0  0  0  0  0  0  0
    5.1970    1.5006    0.0000 C   0  0  0  0  0  0  0  0  0  0  0  0
    1.3000    0.7500    0.0000 C   0  0  0  0  0  0  0  0  0  0  0  0
    5.1968    3.0006    0.0000 O   0  0  0  0  0  0  0  0  0  0  0  0
    3.8981    0.7504    0.0000 O   0  0  0  0  0  0  0  0  0  0  0  0
  5  3  2  0
  6  4  1  0
  8  1  1  0
  8  3  1  0
  8  4  2  0
  9  2  1  0
 10  5  1  0
 10  6  2  0
 10  7  1  0
 11  9  2  0
 12  7  1  0
 12  9  1  0
M  END
>  <NAME>  (3298) 
P-METHYLBENZYL ACETATE

>  <SYNONYMS>  (3298) 
1-ACETOXYMETHYL-4-METHYLBENZENE

>  <SPECTRUM TYPE>  (3298) 
MS1

>  <INSTRUMENT TYPE>  (3298) 
EI-B

>  <INSTRUMENT>  (3298) 
HITACHI M-80B

>  <ION MODE>  (3298) 
P

>  <INCHIKEY>  (3298) 
WDCUPFMSLUIQBH-UHFFFAOYSA-N

>  <FORMULA>  (3298) 
C10H12O2

>  <EXACT MASS>  (3298) 
164.083729624

>  <MW>  (3298) 
164

>  <ID>  (3298) 
JP006902

>  <CONTRIBUTOR>  (3298) 
University of Tokyo Team, {Faculty of Engineering, University of Tokyo

>  <COMMENT>  (3298) 
SMILES=CC(=O)OCc(c1)ccc(C)c1
InChI=InChI=1S/C10H12O2/c1-8-3-5-10(6-4-8)7-12-9(2)11/h3-6H,7H2,1-2H3
computed SMILES=O=C(OCC1=CC=C(C=C1)C)C
accession=JP006902
date=2016.01.19 (Created 2008.10.21, modified 2011.05.06)
author=TAJIMA S, GUNMA COLLEGE OF TECHNOLOGY
license=CC BY-NC-SA
exact mass=164.08373
ionization energy=70 eV
ion type=[M]+*
computed spectral entropy=3.0603304837525434
computed normalized entropy=0.7993254438921595
SPLASH=splash10-0pi3-6900000000-569e1bb316405f2b0d4e
submitter=submitter = University of Tokyo Team (Faculty of Engineering, University of Tokyo)
MoNA Rating=3.75

>  <NUM PEAKS>  (3298) 
46

>  <MASS SPECTRAL PEAKS>  (3298) 
14 1.19
15 8.19
27 7.5
29 1.82
38 1.59
39 15.59
40 1.27
41 3.94
42 1.88
43 58.67
44 1.64
50 5.62
51 14.44
52 4.63
53 5.04
62 2.39
63 9.46
64 2.32
65 18.24
66 1.49
74 1.12
75 1.28
76 1.4
77 35.53
78 33.33
79 18.47
89 6.67
90 2.17
91 26.88
92 2.79
93 16.78
94 1.61
102 3.11
103 30.83
104 70.99
105 99.99
106 9.26
107 47.41
108 3.4
119 5.93
120 1.25
121 7.93
122 98.13
123 8.32
164 62.42
165 6.74

>  <PREDICTED SPECTRUM>  (3298) 
14 35
15 98
25 3
26 73
27 177
28 23
29 45
36 5
37 49
38 101
39 260
40 108
41 146
42 125
43 645
44 118
45 55
49 29
50 166
51 281
52 205
53 180
54 52
60 1
61 22
62 91
63 183
64 133
65 241
66 98
67 57
74 58
75 106
76 71
77 529
78 324
79 444
80 38
87 24
89 228
90 195
91 506
92 189
93 262
94 111
95 10
102 50
103 203
104 418
105 957
106 359
107 773
108 279
119 261
120 41
121 490
122 999
123 303
124 93
163 17
164 529
165 181
166 15

$$$$

     RDKit          2D

 12 12  0  0  0  0  0  0  0  0999 V2000
   -0.9740    4.2571    0.0000 C   0  0  0  0  0  0  0  0  0  0  0  0
   -4.8712    2.0071    0.0000 C   0  0  0  0  0  0  0  0  0  0  0  0
    2.9231    0.5071    0.0000 C   0  0  0  0  0  0  0  0  0  0  0  0
    2.9236    2.0079    0.0000 C   0  0  0  0  0  0  0  0  0  0  0  0
    1.6236   -0.2437    0.0000 C   0  0  0  0  0  0  0  0  0  0  0  0
    1.6245    2.7579    0.0000 C   0  0  0  0  0  0  0  0  0  0  0  0
    0.3245    0.5063    0.0000 C   0  0  0  0  0  0  0  0  0  0  0  0
   -0.9740    2.7571    0.0000 C   0  0  0  0  0  0  0  0  0  0  0  0
   -3.5721    2.7571    0.0000 C   0  0  0  0  0  0  0  0  0  0  0  0
    0.3250    2.0071    0.0000 C   0  0  0  0  0  0  0  0  0  0  0  0
   -3.5721    4.2571    0.0000 O   0  0  0  0  0  0  0  0  0  0  0  0
   -2.2731    2.0071    0.0000 O   0  0  0  0  0  0  0  0  0  0  0  0
  4  3  2  0
  5  3  1  0
  6  4  1  0
  7  5  2  0
  8  1  1  0
  9  2  1  0
 10  6  2  0
 10  7  1  0
 10  8  1  0
 11  9  2  0
 12  8  1  0
 12  9  1  0
M  END
>  <NAME>  (3299) 
1-PHENYLETHYL ACETATE

>  <SYNONYMS>  (3299) 


>  <SPECTRUM TYPE>  (3299) 
MS1

>  <INSTRUMENT TYPE>  (3299) 
EI-B

>  <INSTRUMENT>  (3299) 
HITACHI M-80B

>  <ION MODE>  (3299) 
P

>  <INCHIKEY>  (3299) 
QUMXDOLUJCHOAY-UHFFFAOYSA-N

>  <FORMULA>  (3299) 
C10H12O2

>  <EXACT MASS>  (3299) 
164.083729624

>  <MW>  (3299) 
164

>  <ID>  (3299) 
JP006901

>  <CONTRIBUTOR>  (3299) 
University of Tokyo Team, {Faculty of Engineering, University of Tokyo

>  <COMMENT>  (3299) 
SMILES=CC(=O)OC(C)c(c1)cccc1
InChI=InChI=1S/C10H12O2/c1-8(12-9(2)11)10-6-4-3-5-7-10/h3-8H,1-2H3
computed SMILES=O=C(OC(C=1C=CC=CC1)C)C
accession=JP006901
date=2016.01.19 (Created 2008.10.21, modified 2011.05.06)
author=TAJIMA S, GUNMA COLLEGE OF TECHNOLOGY
license=CC BY-NC-SA
exact mass=164.08373
ionization energy=70 eV
ion type=[M]+*
computed spectral entropy=2.7284291159613168
computed normalized entropy=0.7674154734707797
SPLASH=splash10-0zou-6900000000-fa56fe4a4c07ec5d1313
submitter=submitter = University of Tokyo Team (Faculty of Engineering, University of Tokyo)
MoNA Rating=3.75

>  <NUM PEAKS>  (3299) 
35

>  <MASS SPECTRAL PEAKS>  (3299) 
15 7.31
27 6.63
38 1.09
39 8.4
42 1.83
43 99.99
44 2.08
50 8.21
51 23.82
52 5.36
53 1.81
62 1.2
63 4.82
65 2.38
74 2.05
75 1.86
76 2.39
77 42.49
78 23.82
79 25.85
80 1.35
89 1.59
91 2.24
102 2.46
103 21.25
104 97.1
105 76.44
106 6.47
107 35.54
108 2.2
121 8.3
122 81.95
123 6.61
164 20.15
165 1.85

>  <PREDICTED SPECTRUM>  (3299) 
14 11
15 46
25 1
26 48
27 134
37 21
38 65
39 235
40 71
41 158
42 139
43 650
44 145
45 49
49 32
50 192
51 311
52 189
53 121
54 6
61 1
62 65
63 154
64 36
65 98
66 7
74 38
75 75
76 108
77 468
78 307
79 482
80 65
89 97
90 3
91 43
92 71
102 96
103 346
104 601
105 999
106 209
107 859
108 156
121 106
122 428
123 78
149 50
164 240
165 44

$$$$

     RDKit          2D

 11 11  0  0  0  0  0  0  0  0999 V2000
    1.9489    1.5002    0.0000 C   0  0  0  0  0  0  0  0  0  0  0  0
    3.2476   -3.7504    0.0000 C   0  0  0  0  0  0  0  0  0  0  0  0
   -1.9500    0.7500    0.0000 C   0  0  0  0  0  0  0  0  0  0  0  0
   -1.9500   -0.7500    0.0000 C   0  0  0  0  0  0  0  0  0  0  0  0
   -0.6500    1.5000    0.0000 C   0  0  0  0  0  0  0  0  0  0  0  0
   -0.6500   -1.5000    0.0000 C   0  0  0  0  0  0  0  0  0  0  0  0
    0.6500    0.7500    0.0000 C   0  0  0  0  0  0  0  0  0  0  0  0
    1.9487   -3.0002    0.0000 C   0  0  0  0  0  0  0  0  0  0  0  0
    0.6500   -0.7500    0.0000 C   0  0  0  0  0  0  0  0  0  0  0  0
    0.6495   -3.7500    0.0000 O   0  0  0  0  0  0  0  0  0  0  0  0
    1.9489   -1.5002    0.0000 O   0  0  0  0  0  0  0  0  0  0  0  0
  4  3  2  0
  5  3  1  0
  6  4  1  0
  7  1  1  0
  7  5  2  0
  8  2  1  0
  9  6  2  0
  9  7  1  0
 10  8  2  0
 11  8  1  0
 11  9  1  0
M  END
>  <NAME>  (3300) 
O-CRESYL ACETATE

>  <SYNONYMS>  (3300) 
1-ACETOXY-2-METHYLBENZENE

>  <SPECTRUM TYPE>  (3300) 
MS1

>  <INSTRUMENT TYPE>  (3300) 
EI-B

>  <INSTRUMENT>  (3300) 
HITACHI M-80B

>  <ION MODE>  (3300) 
P

>  <INCHIKEY>  (3300) 
AMZORBZSQRUXNC-UHFFFAOYSA-N

>  <FORMULA>  (3300) 
C9H10O2

>  <EXACT MASS>  (3300) 
150.06807956

>  <MW>  (3300) 
150

>  <ID>  (3300) 
JP006900

>  <CONTRIBUTOR>  (3300) 
University of Tokyo Team, {Faculty of Engineering, University of Tokyo

>  <COMMENT>  (3300) 
SMILES=CC(=O)Oc(c1)c(C)ccc1
InChI=InChI=1S/C9H10O2/c1-7-5-3-4-6-9(7)11-8(2)10/h3-6H,1-2H3
computed SMILES=O=C(OC=1C=CC=CC1C)C
accession=JP006900
date=2016.01.19 (Created 2008.10.21, modified 2011.05.06)
author=TAJIMA S, GUNMA COLLEGE OF TECHNOLOGY
license=CC BY-NC-SA
exact mass=150.06808
ionization energy=70 eV
ion type=[M]+*
computed spectral entropy=2.6635739055813916
computed normalized entropy=0.7831282947418097
SPLASH=splash10-0a4i-9700000000-b6838ccde642e4daeb0b
submitter=submitter = University of Tokyo Team (Faculty of Engineering, University of Tokyo)
MoNA Rating=3.75

>  <NUM PEAKS>  (3300) 
30

>  <MASS SPECTRAL PEAKS>  (3300) 
14 1.36
15 9.52
18 2.21
26 1.18
27 6.89
28 1.67
38 1.98
39 11.04
41 1.03
42 2.14
43 42.21
50 5.59
51 11.77
52 7.45
53 6.52
62 1.28
63 3.82
64 1.27
65 3.08
77 22.75
78 8.75
79 13.69
80 9.67
89 2.2
90 10.82
91 3.75
107 33.36
108 99.99
109 7.72
150 11.46

>  <PREDICTED SPECTRUM>  (3300) 
14 46
15 134
25 25
26 98
27 190
28 117
29 54
32 19
37 66
38 135
39 335
40 139
41 255
42 146
43 709
44 123
45 38
49 17
50 201
51 313
52 255
53 200
54 39
55 39
60 94
61 70
62 100
63 199
64 102
65 198
66 119
67 10
73 62
74 115
75 105
76 45
77 439
78 267
79 400
80 242
81 98
87 0
89 99
90 201
91 227
92 78
93 55
105 8
107 789
108 999
109 282
110 51
150 411
151 112
152 2

$$$$

     RDKit          2D

 15 15  0  0  0  0  0  0  0  0999 V2000
   -3.2474    0.6946    0.0000 C   0  0  0  0  0  0  0  0  0  0  0  0
   -0.6493    0.6946    0.0000 C   0  0  0  0  0  0  0  0  0  0  0  0
   -5.8454    3.6946    0.0000 C   0  0  0  0  0  0  0  0  0  0  0  0
    3.2478    1.4446    0.0000 C   0  0  0  0  0  0  0  0  0  0  0  0
    3.2483    2.9454    0.0000 C   0  0  0  0  0  0  0  0  0  0  0  0
    1.9483    0.6938    0.0000 C   0  0  0  0  0  0  0  0  0  0  0  0
    1.9493    3.6954    0.0000 C   0  0  0  0  0  0  0  0  0  0  0  0
    0.6493    1.4438    0.0000 C   0  0  0  0  0  0  0  0  0  0  0  0
   -0.6493    3.6946    0.0000 C   0  0  0  0  0  0  0  0  0  0  0  0
   -1.9483    1.4446    0.0000 C   0  0  0  0  0  0  0  0  0  0  0  0
   -4.5464    2.9446    0.0000 C   0  0  0  0  0  0  0  0  0  0  0  0
    0.6498    2.9446    0.0000 C   0  0  0  0  0  0  0  0  0  0  0  0
   -1.9483    2.9446    0.0000 C   0  0  0  0  0  0  0  0  0  0  0  0
   -4.5464    1.4446    0.0000 O   0  0  0  0  0  0  0  0  0  0  0  0
   -3.2474    3.6946    0.0000 O   0  0  0  0  0  0  0  0  0  0  0  0
  5  4  2  0
  6  4  1  0
  7  5  1  0
  8  6  2  0
 10  1  1  0
 10  2  1  0
 11  3  1  0
 12  7  2  0
 12  8  1  0
 12  9  1  0
 13  9  1  0
 13 10  1  0
 14 11  2  0
 15 11  1  0
 15 13  1  0
M  END
>  <NAME>  (3301) 
1-BENZYL-2-METHYLPROPYL ACETATE

>  <SYNONYMS>  (3301) 


>  <SPECTRUM TYPE>  (3301) 
MS1

>  <INSTRUMENT TYPE>  (3301) 
EI-B

>  <INSTRUMENT>  (3301) 
HITACHI M-80B

>  <ION MODE>  (3301) 
P

>  <INCHIKEY>  (3301) 
OOYSHHTYKLXILA-UHFFFAOYSA-N

>  <FORMULA>  (3301) 
C13H18O2

>  <EXACT MASS>  (3301) 
206.130679816

>  <MW>  (3301) 
206

>  <ID>  (3301) 
JP006898

>  <CONTRIBUTOR>  (3301) 
University of Tokyo Team, {Faculty of Engineering, University of Tokyo

>  <COMMENT>  (3301) 
SMILES=CC(=O)OC(C(C)C)Cc(c1)cccc1
InChI=InChI=1S/C13H18O2/c1-10(2)13(15-11(3)14)9-12-7-5-4-6-8-12/h4-8,10,13H,9H2,1-3H3
computed SMILES=O=C(OC(CC=1C=CC=CC1)C(C)C)C
accession=JP006898
date=2016.01.19 (Created 2008.10.21, modified 2011.05.06)
author=TAJIMA S, GUNMA COLLEGE OF TECHNOLOGY
license=CC BY-NC-SA
exact mass=206.13068
ionization energy=70 eV
ion type=[M]+*
computed spectral entropy=1.920180428620722
computed normalized entropy=0.6307000417630554
SPLASH=splash10-0006-9200000000-197180017029b2572b00
submitter=submitter = University of Tokyo Team (Faculty of Engineering, University of Tokyo)
MoNA Rating=3.75

>  <NUM PEAKS>  (3301) 
21

>  <MASS SPECTRAL PEAKS>  (3301) 
15 1.8
27 2.62
39 3.59
41 4.08
43 99.99
44 2.26
51 1.64
55 1.07
63 1.22
65 5.7
73 1.16
77 1.92
89 1.07
91 21.77
92 5.88
103 1.46
115 3.01
131 18.92
132 1.57
146 19.44
147 2.14

>  <PREDICTED SPECTRUM>  (3301) 
14 5
15 40
27 105
28 14
29 7
39 170
40 49
41 224
42 85
43 999
44 161
45 52
50 27
51 129
52 35
53 50
55 136
63 113
64 21
65 212
66 28
69 75
71 14
72 7
77 115
78 80
79 8
89 54
90 5
91 683
92 269
93 1
103 146
104 182
115 206
117 69
128 15
131 201
146 506
164 24

$$$$

     RDKit          2D

 13 13  0  0  0  0  0  0  0  0999 V2000
   -6.8197    3.1321    0.0000 C   0  0  0  0  0  0  0  0  0  0  0  0
    3.5726    1.6321    0.0000 C   0  0  0  0  0  0  0  0  0  0  0  0
    3.5731    3.1329    0.0000 C   0  0  0  0  0  0  0  0  0  0  0  0
    2.2731    0.8813    0.0000 C   0  0  0  0  0  0  0  0  0  0  0  0
   -1.6236    3.1321    0.0000 C   0  0  0  0  0  0  0  0  0  0  0  0
    2.2740    3.8829    0.0000 C   0  0  0  0  0  0  0  0  0  0  0  0
    0.9740    1.6313    0.0000 C   0  0  0  0  0  0  0  0  0  0  0  0
   -0.3245    3.8821    0.0000 C   0  0  0  0  0  0  0  0  0  0  0  0
   -2.9226    3.8821    0.0000 C   0  0  0  0  0  0  0  0  0  0  0  0
   -5.5207    3.8821    0.0000 C   0  0  0  0  0  0  0  0  0  0  0  0
    0.9745    3.1321    0.0000 C   0  0  0  0  0  0  0  0  0  0  0  0
   -5.5207    5.3821    0.0000 O   0  0  0  0  0  0  0  0  0  0  0  0
   -4.2216    3.1321    0.0000 O   0  0  0  0  0  0  0  0  0  0  0  0
  3  2  2  0
  4  2  1  0
  6  3  1  0
  7  4  2  0
  5  8  2  0
  9  5  1  0
 10  1  1  0
 11  6  2  0
 11  7  1  0
 11  8  1  0
 12 10  2  0
 13  9  1  0
 13 10  1  0
M  END
>  <NAME>  (3302) 
CINNAMYL ACETATE

>  <SYNONYMS>  (3302) 


>  <SPECTRUM TYPE>  (3302) 
MS1

>  <INSTRUMENT TYPE>  (3302) 
EI-B

>  <INSTRUMENT>  (3302) 
HITACHI M-80B

>  <ION MODE>  (3302) 
P

>  <INCHIKEY>  (3302) 
WJSDHUCWMSHDCR-VMPITWQZSA-N

>  <FORMULA>  (3302) 
C11H12O2

>  <EXACT MASS>  (3302) 
176.083729624

>  <MW>  (3302) 
176

>  <ID>  (3302) 
JP006897

>  <CONTRIBUTOR>  (3302) 
University of Tokyo Team, {Faculty of Engineering, University of Tokyo

>  <COMMENT>  (3302) 
SMILES=CC(=O)OCC=Cc(c1)cccc1
InChI=InChI=1S/C11H12O2/c1-10(12)13-9-5-8-11-6-3-2-4-7-11/h2-8H,9H2,1H3/b8-5+
computed SMILES=O=C(OCC=CC=1C=CC=CC1)C
accession=JP006897
date=2016.01.19 (Created 2008.10.21, modified 2011.05.06)
author=TAJIMA S, GUNMA COLLEGE OF TECHNOLOGY
license=CC BY-NC-SA
exact mass=176.08373
ionization energy=70 eV
ion type=[M]+*
computed spectral entropy=2.9934242771356163
computed normalized entropy=0.7910344265797634
SPLASH=splash10-00kf-9700000000-b6077d3a33c63d2a1048
submitter=submitter = University of Tokyo Team (Faculty of Engineering, University of Tokyo)
MoNA Rating=3.75

>  <NUM PEAKS>  (3302) 
44

>  <MASS SPECTRAL PEAKS>  (3302) 
15 5.51
27 3.61
29 1.95
38 1.1
39 9.98
42 1.72
43 99.99
44 2.25
50 3.77
51 12.19
52 2.39
53 1.21
55 2.39
57 1.92
62 1.95
63 5.36
64 1.1
65 4.37
74 1.33
75 1.86
76 2.27
77 15.32
78 9.15
79 4.82
89 3.21
91 13.91
92 17.18
93 1.08
102 3.73
103 6.8
104 2.12
105 21.94
106 2.2
114 1.02
115 45.51
116 22.26
117 20.87
118 1.69
131 1.65
133 15.01
134 21.46
135 1.77
176 12.12
177 1.37

>  <PREDICTED SPECTRUM>  (3302) 
14 62
15 135
16 3
25 9
26 80
27 231
28 93
29 100
37 31
38 128
39 353
40 129
41 126
42 164
43 999
44 168
45 17
50 179
51 315
52 181
53 136
54 18
55 170
56 55
57 286
61 19
62 87
63 258
64 173
65 332
66 77
74 78
75 69
76 72
77 353
78 319
79 242
80 25
89 152
90 68
91 713
92 256
93 41
96 52
102 249
103 335
104 170
105 336
106 254
107 194
114 23
115 795
116 719
117 682
118 319
119 169
131 148
132 82
133 762
134 935
135 298
136 55
176 452
177 105

$$$$

     RDKit          2D

 10 10  0  0  0  0  0  0  0  0999 V2000
    4.8270    1.2906    0.0000 C   0  0  0  0  0  0  0  0  0  0  0  0
   -1.6700   -0.9600    0.0000 C   0  0  0  0  0  0  0  0  0  0  0  0
   -1.6700    0.5400    0.0000 C   0  0  0  0  0  0  0  0  0  0  0  0
   -0.3700   -1.7100    0.0000 C   0  0  0  0  0  0  0  0  0  0  0  0
   -0.3700    1.2900    0.0000 C   0  0  0  0  0  0  0  0  0  0  0  0
    0.9300   -0.9600    0.0000 C   0  0  0  0  0  0  0  0  0  0  0  0
    3.5281    0.5404    0.0000 C   0  0  0  0  0  0  0  0  0  0  0  0
    0.9300    0.5400    0.0000 C   0  0  0  0  0  0  0  0  0  0  0  0
    3.5283   -0.9596    0.0000 O   0  0  0  0  0  0  0  0  0  0  0  0
    2.2289    1.2902    0.0000 O   0  0  0  0  0  0  0  0  0  0  0  0
  3  2  2  0
  4  2  1  0
  5  3  1  0
  6  4  2  0
  7  1  1  0
  8  5  2  0
  8  6  1  0
  9  7  2  0
 10  7  1  0
 10  8  1  0
M  END
>  <NAME>  (3303) 
PHENYL ACETATE

>  <SYNONYMS>  (3303) 


>  <SPECTRUM TYPE>  (3303) 
MS1

>  <INSTRUMENT TYPE>  (3303) 
EI-B

>  <INSTRUMENT>  (3303) 
HITACHI M-80B

>  <ION MODE>  (3303) 
P

>  <INCHIKEY>  (3303) 
IPBVNPXQWQGGJP-UHFFFAOYSA-N

>  <FORMULA>  (3303) 
C8H8O2

>  <EXACT MASS>  (3303) 
136.052429496

>  <MW>  (3303) 
136

>  <ID>  (3303) 
JP006896

>  <CONTRIBUTOR>  (3303) 
University of Tokyo Team, {Faculty of Engineering, University of Tokyo

>  <COMMENT>  (3303) 
SMILES=CC(=O)Oc(c1)cccc1
InChI=InChI=1S/C8H8O2/c1-7(9)10-8-5-3-2-4-6-8/h2-6H,1H3
computed SMILES=O=C(OC=1C=CC=CC1)C
accession=JP006896
date=2016.01.19 (Created 2008.10.21, modified 2011.05.06)
author=TAJIMA S, GUNMA COLLEGE OF TECHNOLOGY
license=CC BY-NC-SA
exact mass=136.05243
ionization energy=70 eV
ion type=[M]+*
computed spectral entropy=2.008829692528469
computed normalized entropy=0.6705638251662894
SPLASH=splash10-0006-9000000000-c511fa85854cadfd24e7
submitter=submitter = University of Tokyo Team (Faculty of Engineering, University of Tokyo)
MoNA Rating=3.75

>  <NUM PEAKS>  (3303) 
20

>  <MASS SPECTRAL PEAKS>  (3303) 
15 3.31
38 3.21
39 14.81
40 1.94
42 1.65
43 28.57
50 2.17
51 4.15
55 1.44
62 1.34
63 3.28
64 1.45
65 11.19
66 12.08
77 2.28
93 1.41
94 99.99
95 7.31
136 13.82
137 1.1

>  <PREDICTED SPECTRUM>  (3303) 
14 48
15 151
16 9
25 17
26 64
27 107
37 121
38 227
39 452
40 221
41 349
42 247
43 948
44 247
46 6
47 29
49 21
50 243
51 353
52 110
53 83
60 48
61 67
62 144
63 202
64 161
65 394
66 359
67 163
73 118
74 151
75 32
76 40
77 389
78 147
86 65
92 14
93 293
94 999
95 382
96 132
136 314
137 84

$$$$

     RDKit          2D

 12 12  0  0  0  0  0  0  0  0999 V2000
   -5.8454    3.6946    0.0000 C   0  0  0  0  0  0  0  0  0  0  0  0
    3.2478    1.4446    0.0000 C   0  0  0  0  0  0  0  0  0  0  0  0
    3.2483    2.9454    0.0000 C   0  0  0  0  0  0  0  0  0  0  0  0
    1.9483    0.6938    0.0000 C   0  0  0  0  0  0  0  0  0  0  0  0
    1.9493    3.6954    0.0000 C   0  0  0  0  0  0  0  0  0  0  0  0
    0.6493    1.4438    0.0000 C   0  0  0  0  0  0  0  0  0  0  0  0
   -0.6493    3.6946    0.0000 C   0  0  0  0  0  0  0  0  0  0  0  0
   -1.9483    2.9446    0.0000 C   0  0  0  0  0  0  0  0  0  0  0  0
   -4.5464    2.9446    0.0000 C   0  0  0  0  0  0  0  0  0  0  0  0
    0.6498    2.9446    0.0000 C   0  0  0  0  0  0  0  0  0  0  0  0
   -4.5464    1.4446    0.0000 O   0  0  0  0  0  0  0  0  0  0  0  0
   -3.2474    3.6946    0.0000 O   0  0  0  0  0  0  0  0  0  0  0  0
  3  2  1  0
  4  2  1  0
  5  3  1  0
  6  4  1  0
  8  7  1  0
  9  1  1  0
 10  5  1  0
 10  6  1  0
 10  7  1  0
 11  9  2  0
 12  8  1  0
 12  9  1  0
M  END
>  <NAME>  (3304) 
2-CYCLOHEXYLETHYL ACETATE

>  <SYNONYMS>  (3304) 


>  <SPECTRUM TYPE>  (3304) 
MS1

>  <INSTRUMENT TYPE>  (3304) 
EI-B

>  <INSTRUMENT>  (3304) 
HITACHI M-80B

>  <ION MODE>  (3304) 
P

>  <INCHIKEY>  (3304) 
NOTFZGFABLVTIG-UHFFFAOYSA-N

>  <FORMULA>  (3304) 
C10H18O2

>  <EXACT MASS>  (3304) 
170.130679816

>  <MW>  (3304) 
170

>  <ID>  (3304) 
JP006895

>  <CONTRIBUTOR>  (3304) 
University of Tokyo Team, {Faculty of Engineering, University of Tokyo

>  <COMMENT>  (3304) 
SMILES=CC(=O)OCCC(C1)CCCC1
InChI=InChI=1S/C10H18O2/c1-9(11)12-8-7-10-5-3-2-4-6-10/h10H,2-8H2,1H3
computed SMILES=O=C(OCCC1CCCCC1)C
accession=JP006895
date=2016.01.19 (Created 2008.10.21, modified 2011.05.06)
author=TAJIMA S, GUNMA COLLEGE OF TECHNOLOGY
license=CC BY-NC-SA
exact mass=170.13068
ionization energy=70 eV
ion type=[M]+*
computed spectral entropy=2.9041675046635507
computed normalized entropy=0.7820415094949049
SPLASH=splash10-00lu-9000000000-4ee0e254163cd90a6c03
submitter=submitter = University of Tokyo Team (Faculty of Engineering, University of Tokyo)
MoNA Rating=3.75

>  <NUM PEAKS>  (3304) 
41

>  <MASS SPECTRAL PEAKS>  (3304) 
15 8.07
27 12.46
28 4.06
29 12.67
31 1.35
39 16.93
40 2.49
41 41.18
42 7.32
43 99.99
44 2.35
45 1.15
51 1.36
53 8.22
54 26.77
55 45.2
56 3.23
61 10.55
65 1.65
66 3.49
67 68.58
68 20.39
69 14.43
70 1.81
73 1.76
77 1.49
79 3.77
80 5.34
81 83.69
82 87.17
83 12.45
87 2.71
88 1.51
93 1.16
94 1.19
95 14.22
108 1.28
109 7.68
110 38.24
111 3.37
155 1.06

>  <PREDICTED SPECTRUM>  (3304) 
14 3
15 41
18 3
26 61
27 277
28 127
29 279
31 109
32 13
37 0
38 40
39 378
40 152
41 675
42 312
43 999
44 223
45 242
50 85
51 125
52 56
53 267
54 445
55 696
56 278
57 170
58 63
59 136
60 141
61 243
62 20
63 33
65 148
66 190
67 727
68 612
69 492
70 203
71 304
72 190
73 217
74 56
77 128
78 41
79 196
80 154
81 676
82 666
83 181
84 107
85 75
86 23
87 63
88 8
91 49
92 47
93 193
94 170
95 525
96 319
97 163
98 77
99 98
109 333
110 866
111 515
112 258
113 108
126 15
127 117
128 72

$$$$

     RDKit          2D

 10 10  0  0  0  0  0  0  0  0999 V2000
    4.8270    1.2906    0.0000 C   0  0  0  0  0  0  0  0  0  0  0  0
   -1.6700   -0.9600    0.0000 C   0  0  0  0  0  0  0  0  0  0  0  0
   -1.6700    0.5400    0.0000 C   0  0  0  0  0  0  0  0  0  0  0  0
   -0.3700   -1.7100    0.0000 C   0  0  0  0  0  0  0  0  0  0  0  0
   -0.3700    1.2900    0.0000 C   0  0  0  0  0  0  0  0  0  0  0  0
    0.9300   -0.9600    0.0000 C   0  0  0  0  0  0  0  0  0  0  0  0
    3.5281    0.5404    0.0000 C   0  0  0  0  0  0  0  0  0  0  0  0
    0.9300    0.5400    0.0000 C   0  0  0  0  0  0  0  0  0  0  0  0
    3.5283   -0.9596    0.0000 O   0  0  0  0  0  0  0  0  0  0  0  0
    2.2289    1.2902    0.0000 O   0  0  0  0  0  0  0  0  0  0  0  0
  3  2  1  0
  4  2  1  0
  5  3  1  0
  6  4  1  0
  7  1  1  0
  8  5  1  0
  8  6  1  0
  9  7  2  0
 10  7  1  0
 10  8  1  0
M  END
>  <NAME>  (3305) 
CYCLOHEXYL ACETATE

>  <SYNONYMS>  (3305) 


>  <SPECTRUM TYPE>  (3305) 
MS1

>  <INSTRUMENT TYPE>  (3305) 
EI-B

>  <INSTRUMENT>  (3305) 
HITACHI M-80B

>  <ION MODE>  (3305) 
P

>  <INCHIKEY>  (3305) 
YYLLIJHXUHJATK-UHFFFAOYSA-N

>  <FORMULA>  (3305) 
C8H14O2

>  <EXACT MASS>  (3305) 
142.099379688

>  <MW>  (3305) 
142

>  <ID>  (3305) 
JP006894

>  <CONTRIBUTOR>  (3305) 
University of Tokyo Team, {Faculty of Engineering, University of Tokyo

>  <COMMENT>  (3305) 
SMILES=CC(=O)OC(C1)CCCC1
InChI=InChI=1S/C8H14O2/c1-7(9)10-8-5-3-2-4-6-8/h8H,2-6H2,1H3
computed SMILES=O=C(OC1CCCCC1)C
accession=JP006894
date=2016.01.19 (Created 2008.10.21, modified 2011.05.06)
author=TAJIMA S, GUNMA COLLEGE OF TECHNOLOGY
license=CC BY-NC-SA
exact mass=142.09938
ionization energy=70 eV
ion type=[M]+*
computed spectral entropy=2.5304104159706386
computed normalized entropy=0.7677596066938693
SPLASH=splash10-000x-9000000000-19ac28671ee5bdd23df4
submitter=submitter = University of Tokyo Team (Faculty of Engineering, University of Tokyo)
MoNA Rating=3.75

>  <NUM PEAKS>  (3305) 
27

>  <MASS SPECTRAL PEAKS>  (3305) 
15 5.35
27 9.78
28 3.26
29 7.13
39 11.4
40 1.54
41 18.18
42 5.97
43 99.99
44 5.11
53 3.12
54 16.08
55 16.4
56 1.69
57 7.43
58 6.59
59 1.07
61 6.93
67 44.28
68 2.46
71 2.69
79 1.09
81 6.12
82 61.51
83 8.71
99 3.22
100 3.1

>  <PREDICTED SPECTRUM>  (3305) 
14 26
15 72
16 17
25 15
26 120
27 356
28 151
29 304
30 0
31 155
37 52
38 87
39 424
40 218
41 551
42 296
43 999
44 263
45 132
49 14
50 101
51 120
52 92
53 286
54 416
55 444
56 192
57 325
58 159
59 67
60 122
61 185
62 32
63 69
65 112
66 192
67 649
68 337
69 75
70 87
71 96
72 124
76 21
77 58
79 13
80 43
81 493
82 837
83 339
84 116
85 151
86 16
92 40
99 297
100 179
101 34

$$$$

     RDKit          2D

 10 10  0  0  0  0  0  0  0  0999 V2000
   -1.6300    1.2517    0.0000 C   0  0  0  0  0  0  0  0  0  0  0  0
    5.4215    1.5862    0.0000 C   0  0  0  0  0  0  0  0  0  0  0  0
    3.9215    1.5862    0.0000 C   0  0  0  0  0  0  0  0  0  0  0  0
    5.8815    0.1662    0.0000 C   0  0  0  0  0  0  0  0  0  0  0  0
    2.0244   -0.2959    0.0000 C   0  0  0  0  0  0  0  0  0  0  0  0
   -0.5163    0.2469    0.0000 C   0  0  0  0  0  0  0  0  0  0  0  0
    3.4515    0.1662    0.0000 C   0  0  0  0  0  0  0  0  0  0  0  0
   -0.8297   -1.2200    0.0000 O   0  0  0  0  0  0  0  0  0  0  0  0
    4.6715   -0.7138    0.0000 O   0  0  0  0  0  0  0  0  0  0  0  0
    0.9107    0.7090    0.0000 O   0  0  0  0  0  0  0  0  0  0  0  0
  3  2  1  0
  4  2  2  0
  6  1  1  0
  7  3  2  0
  7  5  1  0
  8  6  2  0
  9  4  1  0
  9  7  1  0
 10  5  1  0
 10  6  1  0
M  END
>  <NAME>  (3306) 
FURFURYL ACETATE

>  <SYNONYMS>  (3306) 


>  <SPECTRUM TYPE>  (3306) 
MS1

>  <INSTRUMENT TYPE>  (3306) 
EI-B

>  <INSTRUMENT>  (3306) 
HITACHI M-80B

>  <ION MODE>  (3306) 
P

>  <INCHIKEY>  (3306) 
CKOYRRWBOKMNRG-UHFFFAOYSA-N

>  <FORMULA>  (3306) 
C7H8O3

>  <EXACT MASS>  (3306) 
140.04734411599998

>  <MW>  (3306) 
140

>  <ID>  (3306) 
JP006893

>  <CONTRIBUTOR>  (3306) 
University of Tokyo Team, {Faculty of Engineering, University of Tokyo

>  <COMMENT>  (3306) 
SMILES=CC(=O)OCc(c1)occ1
InChI=InChI=1S/C7H8O3/c1-6(8)10-5-7-3-2-4-9-7/h2-4H,5H2,1H3
computed SMILES=O=C(OCC=1OC=CC1)C
accession=JP006893
date=2016.01.19 (Created 2008.10.21, modified 2011.05.06)
author=TAJIMA S, GUNMA COLLEGE OF TECHNOLOGY
license=CC BY-NC-SA
exact mass=140.04734
ionization energy=70 eV
ion type=[M]+*
computed spectral entropy=2.809251976840099
computed normalized entropy=0.7966434393845426
SPLASH=splash10-0f8c-9000000000-8acbf2c440658554923f
submitter=submitter = University of Tokyo Team (Faculty of Engineering, University of Tokyo)
MoNA Rating=3.75

>  <NUM PEAKS>  (3306) 
34

>  <MASS SPECTRAL PEAKS>  (3306) 
14 2.36
15 11.72
26 3.14
27 21.01
28 1.55
29 9.67
37 2.52
38 6.29
39 19.08
40 1.47
41 11.15
42 11.26
43 63.41
44 1.94
50 7.58
51 12.6
52 49.74
53 41.82
54 1.87
55 1.51
61 1.62
68 1.13
69 5.74
70 2.95
79 1.15
80 16.61
81 99.99
82 5.44
95 5.02
97 10.08
98 51.74
99 2.63
140 31.03
141 2.25

>  <PREDICTED SPECTRUM>  (3306) 
14 47
15 142
16 7
18 0
25 22
26 80
27 151
28 83
29 143
30 88
37 111
38 169
39 283
40 146
41 141
42 127
43 731
44 68
49 17
50 150
51 223
52 213
53 406
54 3
61 27
65 7
67 86
68 45
69 209
79 190
80 586
81 999
82 100
96 16
97 317
98 308
140 285
141 48

$$$$

     RDKit          2D

 10 10  0  0  1  0  0  0  0  0999 V2000
    2.5987    3.0002    0.0000 C   0  0  0  0  0  0  0  0  0  0  0  0
    3.8981    0.7504    0.0000 C   0  0  0  0  0  0  0  0  0  0  0  0
   -2.5989   -1.5002    0.0000 C   0  0  0  0  0  0  0  0  0  0  0  0
   -1.3000    0.7500    0.0000 C   0  0  0  0  0  0  0  0  0  0  0  0
   -0.0000   -1.5000    0.0000 C   0  0  0  0  0  0  0  0  0  0  0  0
    0.0000    1.5000    0.0000 C   0  0  0  0  0  0  0  0  0  0  0  0
    1.3000   -0.7500    0.0000 C   0  0  0  0  0  0  0  0  0  0  0  0
    2.5989    1.5002    0.0000 C   0  0  0  0  0  0  0  0  0  0  0  0
   -1.3000   -0.7500    0.0000 C   0  0  0  0  0  0  0  0  0  0  0  0
    1.3000    0.7500    0.0000 C   0  0  0  0  0  0  0  0  0  0  0  0
  6  4  1  0
  7  5  1  0
  8  1  2  0
  8  2  1  0
  9  3  1  0
  9  4  2  0
  9  5  1  0
 10  6  1  0
 10  7  1  0
 10  8  1  6
M  END
>  <NAME>  (3307) 
LIMONENE

>  <SYNONYMS>  (3307) 
P-MENTHA-1,8-DIENE

>  <SPECTRUM TYPE>  (3307) 
MS1

>  <INSTRUMENT TYPE>  (3307) 
EI-B

>  <INSTRUMENT>  (3307) 
HITACHI M-80B

>  <ION MODE>  (3307) 
P

>  <INCHIKEY>  (3307) 
XMGQYMWWDOXHJM-JTQLQIEISA-N

>  <FORMULA>  (3307) 
C10H16

>  <EXACT MASS>  (3307) 
136.125200512

>  <MW>  (3307) 
136

>  <ID>  (3307) 
JP006892

>  <CONTRIBUTOR>  (3307) 
University of Tokyo Team, {Faculty of Engineering, University of Tokyo

>  <COMMENT>  (3307) 
SMILES=CC1=CC[C@@H](CC1)C(=C)C
InChI=InChI=1S/C10H16/c1-8(2)10-6-4-9(3)5-7-10/h4,10H,1,5-7H2,2-3H3/t10-/m0/s1
computed SMILES=C=C(C)C1CC=C(C)CC1
accession=JP006892
date=2016.01.19 (Created 2008.10.21, modified 2011.05.06)
author=TAJIMA S, GUNMA COLLEGE OF TECHNOLOGY
license=CC BY-NC-SA
exact mass=136.1252
ionization energy=70 eV
ion type=[M]+*
computed spectral entropy=3.1166311348706577
computed normalized entropy=0.8448720468203177
SPLASH=splash10-014l-9100000000-507f7afbc17b7c2556e2
submitter=submitter = University of Tokyo Team (Faculty of Engineering, University of Tokyo)
MoNA Rating=3.75

>  <NUM PEAKS>  (3307) 
40

>  <MASS SPECTRAL PEAKS>  (3307) 
27 15.02
28 2.85
29 7.8
38 1.46
39 26.52
40 8.01
41 24.01
42 3.24
43 2.09
50 1.84
51 7.21
52 3.17
53 24.1
54 2.03
55 7.74
63 1.88
65 7.46
66 4.29
67 44.62
68 99.99
69 7.69
77 15.9
78 3.29
79 27.53
80 10.7
81 10.5
82 1.69
91 14.64
92 18.07
93 58.42
94 21.11
95 7.23
105 3.56
106 1.09
107 16.48
108 5.13
121 17.64
122 1.51
136 20.42
137 1.98

>  <PREDICTED SPECTRUM>  (3307) 
25 0
26 59
27 314
28 105
29 214
37 35
38 80
39 489
40 237
41 700
42 207
43 185
44 20
50 140
51 275
52 235
53 531
54 367
55 352
56 93
57 81
59 14
61 13
62 77
63 152
64 66
65 329
66 331
67 999
68 904
69 341
70 63
74 7
75 48
76 30
77 451
78 207
79 807
80 604
81 690
82 209
89 55
90 27
91 527
92 331
93 990
94 648
95 405
96 175
102 10
103 142
104 63
105 255
106 73
107 532
108 327
109 136
115 21
118 24
119 176
120 5
121 586
122 196
123 22
134 0
135 6
136 490
137 152

$$$$

     RDKit          2D

 10 11  0  0  0  0  0  0  0  0999 V2000
   -1.9089    1.6302    0.0000 C   0  0  0  0  0  0  0  0  0  0  0  0
   -2.0872   -0.3597    0.0000 C   0  0  0  0  0  0  0  0  0  0  0  0
   -1.1227   -2.0296    0.0000 C   0  0  0  0  0  0  0  0  0  0  0  0
    1.9900    0.8800    0.0000 C   0  0  0  0  0  0  0  0  0  0  0  0
    1.9900   -0.6200    0.0000 C   0  0  0  0  0  0  0  0  0  0  0  0
    1.2400    0.1300    0.0000 C   0  0  0  0  0  0  0  0  0  0  0  0
   -0.6100    0.8800    0.0000 C   0  0  0  0  0  0  0  0  0  0  0  0
    0.6900    1.6300    0.0000 C   0  0  0  0  0  0  0  0  0  0  0  0
    0.6900   -1.3700    0.0000 C   0  0  0  0  0  0  0  0  0  0  0  0
   -0.6100   -0.6200    0.0000 C   0  0  0  0  0  0  0  0  0  0  0  0
  5  4  1  0
  7  1  2  0
  8  4  1  0
  8  6  1  0
  8  7  1  0
  9  5  1  0
  9  6  1  0
 10  2  1  0
 10  3  1  0
 10  7  1  0
 10  9  1  0
M  END
>  <NAME>  (3308) 
CAMPHENE

>  <SYNONYMS>  (3308) 
2,2-DIMETHYL-3-METHYLENEBICYCLO(2.2.1)HEPTANE

>  <SPECTRUM TYPE>  (3308) 
MS1

>  <INSTRUMENT TYPE>  (3308) 
EI-B

>  <INSTRUMENT>  (3308) 
HITACHI M-80B

>  <ION MODE>  (3308) 
P

>  <INCHIKEY>  (3308) 
CRPUJAZIXJMDBK-UHFFFAOYSA-N

>  <FORMULA>  (3308) 
C10H16

>  <EXACT MASS>  (3308) 
136.125200512

>  <MW>  (3308) 
136

>  <ID>  (3308) 
JP006891

>  <CONTRIBUTOR>  (3308) 
University of Tokyo Team, {Faculty of Engineering, University of Tokyo

>  <COMMENT>  (3308) 
SMILES=C=C(C21)C(C)(C)C(CC2)C1
InChI=InChI=1S/C10H16/c1-7-8-4-5-9(6-8)10(7,2)3/h8-9H,1,4-6H2,2-3H3
computed SMILES=C=C1C2CCC(C2)C1(C)C
accession=JP006891
date=2016.01.19 (Created 2008.10.21, modified 2011.05.06)
author=TAJIMA S, GUNMA COLLEGE OF TECHNOLOGY
license=CC BY-NC-SA
exact mass=136.1252
ionization energy=70 eV
ion type=[M]+*
computed spectral entropy=3.214027277270656
computed normalized entropy=0.8545217426374538
SPLASH=splash10-0006-9200000000-16357f038546002c5eb6
submitter=submitter = University of Tokyo Team (Faculty of Engineering, University of Tokyo)
MoNA Rating=3.75

>  <NUM PEAKS>  (3308) 
43

>  <MASS SPECTRAL PEAKS>  (3308) 
15 1.39
27 18.95
29 7.58
38 1.48
39 31.24
40 5.96
41 37.83
42 2.93
43 5.29
50 1.95
51 9
52 4.5
53 17.02
54 1.92
55 10.93
63 3.03
65 10.54
66 8.25
67 29.86
68 17.47
69 7.05
70 1.55
77 23.75
78 5.14
79 37.45
80 10.15
81 7.72
82 4.76
91 27.08
92 11.11
93 99.99
94 16.83
95 19.17
96 1.12
103 1.1
105 6.07
106 1.5
107 28.93
108 9.63
121 66.96
122 6.53
136 16.35
137 1.53

>  <PREDICTED SPECTRUM>  (3308) 
26 18
27 211
28 27
29 87
38 59
39 460
40 161
41 588
42 109
43 168
44 16
50 124
51 261
52 183
53 413
54 163
55 336
56 61
59 0
62 50
63 143
64 70
65 363
66 293
67 675
68 427
69 269
70 82
74 10
75 33
77 535
78 258
79 683
80 353
81 313
82 135
89 48
90 6
91 615
92 381
93 999
94 501
95 403
96 113
102 9
103 137
104 68
105 132
106 131
107 658
108 360
109 50
119 80
121 667
122 185
123 0
135 103
136 265
137 50

$$$$

     RDKit          2D

  6  6  0  0  0  0  0  0  0  0999 V2000
   -1.3000    0.7500    0.0000 C   0  0  0  0  0  0  0  0  0  0  0  0
    0.0000    1.5000    0.0000 C   0  0  0  0  0  0  0  0  0  0  0  0
   -1.3000   -0.7500    0.0000 C   0  0  0  0  0  0  0  0  0  0  0  0
    1.3000    0.7500    0.0000 C   0  0  0  0  0  0  0  0  0  0  0  0
   -0.0000   -1.5000    0.0000 C   0  0  0  0  0  0  0  0  0  0  0  0
    1.3000   -0.7500    0.0000 C   0  0  0  0  0  0  0  0  0  0  0  0
  2  1  1  0
  3  1  1  0
  4  2  1  0
  5  3  1  0
  6  4  1  0
  6  5  1  0
M  END
>  <NAME>  (3309) 
CYCLOHEXANE

>  <SYNONYMS>  (3309) 


>  <SPECTRUM TYPE>  (3309) 
MS1

>  <INSTRUMENT TYPE>  (3309) 
EI-B

>  <INSTRUMENT>  (3309) 
HITACHI M-80B

>  <ION MODE>  (3309) 
P

>  <INCHIKEY>  (3309) 
XDTMQSROBMDMFD-UHFFFAOYSA-N

>  <FORMULA>  (3309) 
C6H12

>  <EXACT MASS>  (3309) 
84.093900384

>  <MW>  (3309) 
84

>  <ID>  (3309) 
JP006890

>  <CONTRIBUTOR>  (3309) 
University of Tokyo Team, {Faculty of Engineering, University of Tokyo

>  <COMMENT>  (3309) 
SMILES=C(C1)CCCC1
InChI=InChI=1S/C6H12/c1-2-4-6-5-3-1/h1-6H2
computed SMILES=C1CCCCC1
computed normalized entropy=0.7884721673424752
accession=JP006890
date=2016.01.19 (Created 2008.10.21, modified 2011.05.06)
author=TAJIMA S, GUNMA COLLEGE OF TECHNOLOGY
license=CC BY-NC-SA
exact mass=84.0939
ionization energy=70 eV
ion type=[M]+*
computed spectral entropy=2.568918438744813
SPLASH=splash10-0a4l-9000000000-34ac8fd123caac81b782
submitter=submitter = University of Tokyo Team (Faculty of Engineering, University of Tokyo)
MoNA Rating=3.75

>  <NUM PEAKS>  (3309) 
26

>  <MASS SPECTRAL PEAKS>  (3309) 
15 2.75
26 4.02
27 30.39
28 12.18
29 10.91
38 2.39
39 34.44
40 5.52
41 71.56
42 30.92
43 12.75
50 2.34
51 3.68
52 1.55
53 5.6
54 6.4
55 37.87
56 99.99
57 3.73
67 2.91
68 1.72
69 23.03
70 1.41
83 4.37
84 59.02
85 3.23

>  <PREDICTED SPECTRUM>  (3309) 
14 45
15 98
16 23
17 6
18 45
25 36
26 235
27 716
28 413
29 696
30 161
31 78
32 41
35 5
36 17
37 92
38 145
39 683
40 274
41 960
42 716
43 642
44 147
45 57
49 47
50 160
51 258
52 159
53 287
54 457
55 999
56 856
57 556
58 67
59 20
63 105
64 22
65 107
66 147
67 301
68 240
69 694
70 691
71 355
72 45
78 129
79 99
81 140
82 252
83 103
84 418
85 64

$$$$

     RDKit          2D

 19 18  0  0  0  0  0  0  0  0999 V2000
    5.8457   10.1250    0.0000 C   0  0  0  0  0  0  0  0  0  0  0  0
  -17.5370   10.1250    0.0000 C   0  0  0  0  0  0  0  0  0  0  0  0
    4.5466   10.8750    0.0000 C   0  0  0  0  0  0  0  0  0  0  0  0
  -16.2380   10.8750    0.0000 C   0  0  0  0  0  0  0  0  0  0  0  0
    3.2476   10.1250    0.0000 C   0  0  0  0  0  0  0  0  0  0  0  0
  -14.9389   10.1250    0.0000 C   0  0  0  0  0  0  0  0  0  0  0  0
    1.9486   10.8750    0.0000 C   0  0  0  0  0  0  0  0  0  0  0  0
  -13.6399   10.8750    0.0000 C   0  0  0  0  0  0  0  0  0  0  0  0
    0.6495   10.1250    0.0000 C   0  0  0  0  0  0  0  0  0  0  0  0
  -12.3409   10.1250    0.0000 C   0  0  0  0  0  0  0  0  0  0  0  0
   -0.6495   10.8750    0.0000 C   0  0  0  0  0  0  0  0  0  0  0  0
  -11.0418   10.8750    0.0000 C   0  0  0  0  0  0  0  0  0  0  0  0
   -1.9486   10.1250    0.0000 C   0  0  0  0  0  0  0  0  0  0  0  0
   -9.7428   10.1250    0.0000 C   0  0  0  0  0  0  0  0  0  0  0  0
   -3.2476   10.8750    0.0000 C   0  0  0  0  0  0  0  0  0  0  0  0
   -8.4437   10.8750    0.0000 C   0  0  0  0  0  0  0  0  0  0  0  0
   -4.5466   10.1250    0.0000 C   0  0  0  0  0  0  0  0  0  0  0  0
   -7.1447   10.1250    0.0000 C   0  0  0  0  0  0  0  0  0  0  0  0
   -5.8457   10.8750    0.0000 C   0  0  0  0  0  0  0  0  0  0  0  0
  3  1  1  0
  4  2  1  0
  5  3  1  0
  6  4  1  0
  7  5  1  0
  8  6  1  0
  9  7  1  0
 10  8  1  0
 11  9  1  0
 12 10  1  0
 13 11  1  0
 14 12  1  0
 15 13  1  0
 16 14  1  0
 17 15  1  0
 18 16  1  0
 19 17  1  0
 19 18  1  0
M  END
>  <NAME>  (3310) 
NONADECANE

>  <SYNONYMS>  (3310) 


>  <SPECTRUM TYPE>  (3310) 
MS1

>  <INSTRUMENT TYPE>  (3310) 
EI-B

>  <INSTRUMENT>  (3310) 
HITACHI M-80B

>  <ION MODE>  (3310) 
P

>  <INCHIKEY>  (3310) 
LQERIDTXQFOHKA-UHFFFAOYSA-N

>  <FORMULA>  (3310) 
C19H40

>  <EXACT MASS>  (3310) 
268.31300128

>  <MW>  (3310) 
268

>  <ID>  (3310) 
JP006888

>  <CONTRIBUTOR>  (3310) 
University of Tokyo Team, {Faculty of Engineering, University of Tokyo

>  <COMMENT>  (3310) 
SMILES=CCCCCCCCCCCCCCCCCCC
InChI=InChI=1S/C19H40/c1-3-5-7-9-11-13-15-17-19-18-16-14-12-10-8-6-4-2/h3-19H2,1-2H3
computed SMILES=CCCCCCCCCCCCCCCCCCC
accession=JP006888
date=2016.01.19 (Created 2008.10.21, modified 2011.05.06)
author=TAJIMA S, GUNMA COLLEGE OF TECHNOLOGY
license=CC BY-NC-SA
exact mass=268.313
ionization energy=70 eV
ion type=[M]+*
computed spectral entropy=2.7625724406091074
computed normalized entropy=0.7488920348232614
SPLASH=splash10-052f-9000000000-7abd4eb0d6279ef16343
submitter=submitter = University of Tokyo Team (Faculty of Engineering, University of Tokyo)
MoNA Rating=3.75

>  <NUM PEAKS>  (3310) 
40

>  <MASS SPECTRAL PEAKS>  (3310) 
27 7.24
29 21.2
39 4.21
41 40.96
42 10.46
43 90.09
44 2.64
53 1.56
54 1.96
55 25.06
56 15.2
57 99.99
58 4.54
67 1.96
68 1.57
69 11.09
70 10.27
71 59.97
72 3.58
82 1.14
83 6.41
84 6.08
85 38.3
86 2.68
97 4.08
98 4.05
99 9.8
111 1.55
112 3.34
113 5.1
126 1.76
127 3.73
140 1.24
141 2.42
154 1.12
155 1.85
169 1.33
183 1.31
197 1.14
268 1.79

>  <PREDICTED SPECTRUM>  (3310) 
26 24
27 119
28 46
29 229
30 37
37 4
38 13
39 204
40 95
41 613
42 316
43 943
44 189
45 0
51 37
52 17
53 164
54 177
55 542
56 436
57 999
58 181
59 14
65 42
66 51
67 197
68 192
69 390
70 338
71 828
72 219
73 10
79 39
81 115
82 207
83 348
84 300
85 637
86 145
95 71
96 166
97 300
98 217
99 369
100 70
109 56
110 92
111 236
112 202
113 316
114 75
124 68
125 137
126 151
127 260
128 88
138 27
139 64
140 150
141 187
142 37
152 1
153 46
154 115
155 188
156 56
167 17
168 103
169 174
170 57
181 3
182 94
183 146
196 108
197 90
210 121
211 133
212 25
224 129
225 37
226 33
238 57
239 153
240 89
252 28
253 79
254 14
268 116
269 55

$$$$

     RDKit          2D

 17 16  0  0  0  0  0  0  0  0999 V2000
  -15.5885    9.0000    0.0000 C   0  0  0  0  0  0  0  0  0  0  0  0
    5.1962    9.0000    0.0000 C   0  0  0  0  0  0  0  0  0  0  0  0
  -14.2894    8.2500    0.0000 C   0  0  0  0  0  0  0  0  0  0  0  0
    3.8971    8.2500    0.0000 C   0  0  0  0  0  0  0  0  0  0  0  0
  -12.9904    9.0000    0.0000 C   0  0  0  0  0  0  0  0  0  0  0  0
    2.5981    9.0000    0.0000 C   0  0  0  0  0  0  0  0  0  0  0  0
  -11.6913    8.2500    0.0000 C   0  0  0  0  0  0  0  0  0  0  0  0
    1.2990    8.2500    0.0000 C   0  0  0  0  0  0  0  0  0  0  0  0
  -10.3923    9.0000    0.0000 C   0  0  0  0  0  0  0  0  0  0  0  0
    0.0000    9.0000    0.0000 C   0  0  0  0  0  0  0  0  0  0  0  0
   -9.0933    8.2500    0.0000 C   0  0  0  0  0  0  0  0  0  0  0  0
   -1.2990    8.2500    0.0000 C   0  0  0  0  0  0  0  0  0  0  0  0
   -7.7942    9.0000    0.0000 C   0  0  0  0  0  0  0  0  0  0  0  0
   -2.5981    9.0000    0.0000 C   0  0  0  0  0  0  0  0  0  0  0  0
   -6.4952    8.2500    0.0000 C   0  0  0  0  0  0  0  0  0  0  0  0
   -3.8971    8.2500    0.0000 C   0  0  0  0  0  0  0  0  0  0  0  0
   -5.1962    9.0000    0.0000 C   0  0  0  0  0  0  0  0  0  0  0  0
  3  1  2  0
  4  2  1  0
  5  3  1  0
  6  4  1  0
  7  5  1  0
  8  6  1  0
  9  7  1  0
 10  8  1  0
 11  9  1  0
 12 10  1  0
 13 11  1  0
 14 12  1  0
 15 13  1  0
 16 14  1  0
 17 15  1  0
 17 16  1  0
M  END
>  <NAME>  (3311) 
1-HEPTADECENE

>  <SYNONYMS>  (3311) 


>  <SPECTRUM TYPE>  (3311) 
MS1

>  <INSTRUMENT TYPE>  (3311) 
EI-B

>  <INSTRUMENT>  (3311) 
HITACHI M-80B

>  <ION MODE>  (3311) 
P

>  <INCHIKEY>  (3311) 
ADOBXTDBFNCOBN-UHFFFAOYSA-N

>  <FORMULA>  (3311) 
C17H34

>  <EXACT MASS>  (3311) 
238.26605108799998

>  <MW>  (3311) 
238

>  <ID>  (3311) 
JP006885

>  <CONTRIBUTOR>  (3311) 
University of Tokyo Team, {Faculty of Engineering, University of Tokyo

>  <COMMENT>  (3311) 
SMILES=CCCCCCCCCCCCCCCC=C
InChI=InChI=1S/C17H34/c1-3-5-7-9-11-13-15-17-16-14-12-10-8-6-4-2/h3H,1,4-17H2,2H3
computed SMILES=C=CCCCCCCCCCCCCCCC
exact mass=238.26605
accession=JP006885
date=2016.01.19 (Created 2008.10.21, modified 2011.05.06)
author=TAJIMA S, GUNMA COLLEGE OF TECHNOLOGY
license=CC BY-NC-SA
ionization energy=70 eV
ion type=[M]+*
computed spectral entropy=3.1365345333869676
computed normalized entropy=0.8288523665076762
SPLASH=splash10-0a4l-9000000000-56b286aca9b81df86224
submitter=submitter = University of Tokyo Team (Faculty of Engineering, University of Tokyo)
MoNA Rating=3.75

>  <NUM PEAKS>  (3311) 
44

>  <MASS SPECTRAL PEAKS>  (3311) 
27 16.67
29 40.49
39 17.56
40 2.21
41 96.89
42 23.83
43 99.99
44 2.93
53 8.22
54 14.8
55 88.92
56 45.2
57 74.89
58 2.5
67 14.31
68 13.17
69 57.29
70 39.62
71 32.43
72 1.23
79 1.07
81 6.08
82 17.54
83 63.41
84 26.16
85 15.82
95 1.76
96 8.07
97 48.25
98 15.4
99 2.28
110 2.69
111 20.99
112 9.23
113 1.56
124 1.22
125 7.75
126 3.9
139 2.09
140 2.5
153 1.07
154 1.71
168 1.21
238 1.8

>  <PREDICTED SPECTRUM>  (3311) 
25 23
26 60
27 299
28 118
29 472
30 83
31 0
32 16
36 17
37 33
38 54
39 320
40 149
41 904
42 451
43 879
44 190
50 16
51 56
52 39
53 224
54 374
55 999
56 791
57 891
58 140
63 16
65 93
66 130
67 417
68 430
69 924
70 646
71 563
72 97
77 74
78 31
79 135
80 74
81 305
82 507
83 810
84 494
85 413
86 106
91 61
93 35
94 7
95 193
96 355
97 740
98 347
99 157
100 3
109 123
110 260
111 561
112 307
113 129
114 15
122 0
123 43
124 204
125 333
126 219
127 99
128 19
137 47
138 94
139 115
140 214
141 60
142 33
152 43
153 72
154 135
155 36
166 26
167 93
168 114
169 49
170 11
180 28
181 40
182 110
183 13
196 33
209 53
210 139
238 302
239 99

$$$$

     RDKit          2D

 16 15  0  0  0  0  0  0  0  0999 V2000
    5.1962    8.2500    0.0000 C   0  0  0  0  0  0  0  0  0  0  0  0
  -14.2894    9.0000    0.0000 C   0  0  0  0  0  0  0  0  0  0  0  0
    3.8971    9.0000    0.0000 C   0  0  0  0  0  0  0  0  0  0  0  0
  -12.9904    8.2500    0.0000 C   0  0  0  0  0  0  0  0  0  0  0  0
    2.5981    8.2500    0.0000 C   0  0  0  0  0  0  0  0  0  0  0  0
  -11.6913    9.0000    0.0000 C   0  0  0  0  0  0  0  0  0  0  0  0
    1.2990    9.0000    0.0000 C   0  0  0  0  0  0  0  0  0  0  0  0
  -10.3923    8.2500    0.0000 C   0  0  0  0  0  0  0  0  0  0  0  0
    0.0000    8.2500    0.0000 C   0  0  0  0  0  0  0  0  0  0  0  0
   -9.0933    9.0000    0.0000 C   0  0  0  0  0  0  0  0  0  0  0  0
   -1.2990    9.0000    0.0000 C   0  0  0  0  0  0  0  0  0  0  0  0
   -7.7942    8.2500    0.0000 C   0  0  0  0  0  0  0  0  0  0  0  0
   -2.5981    8.2500    0.0000 C   0  0  0  0  0  0  0  0  0  0  0  0
   -6.4952    9.0000    0.0000 C   0  0  0  0  0  0  0  0  0  0  0  0
   -3.8971    9.0000    0.0000 C   0  0  0  0  0  0  0  0  0  0  0  0
   -5.1962    8.2500    0.0000 C   0  0  0  0  0  0  0  0  0  0  0  0
  3  1  2  0
  4  2  1  0
  5  3  1  0
  6  4  1  0
  7  5  1  0
  8  6  1  0
  9  7  1  0
 10  8  1  0
 11  9  1  0
 12 10  1  0
 13 11  1  0
 14 12  1  0
 15 13  1  0
 16 14  1  0
 16 15  1  0
M  END
>  <NAME>  (3312) 
1-HEXADECENE

>  <SYNONYMS>  (3312) 


>  <SPECTRUM TYPE>  (3312) 
MS1

>  <INSTRUMENT TYPE>  (3312) 
EI-B

>  <INSTRUMENT>  (3312) 
HITACHI M-80B

>  <ION MODE>  (3312) 
P

>  <INCHIKEY>  (3312) 
GQEZCXVZFLOKMC-UHFFFAOYSA-N

>  <FORMULA>  (3312) 
C16H32

>  <EXACT MASS>  (3312) 
224.25040102399998

>  <MW>  (3312) 
224

>  <ID>  (3312) 
JP006883

>  <CONTRIBUTOR>  (3312) 
University of Tokyo Team, {Faculty of Engineering, University of Tokyo

>  <COMMENT>  (3312) 
SMILES=CCCCCCCCCCCCCCC=C
InChI=InChI=1S/C16H32/c1-3-5-7-9-11-13-15-16-14-12-10-8-6-4-2/h3H,1,4-16H2,2H3
computed SMILES=C=CCCCCCCCCCCCCCC
accession=JP006883
date=2016.01.19 (Created 2008.10.21, modified 2011.05.06)
author=TAJIMA S, GUNMA COLLEGE OF TECHNOLOGY
license=CC BY-NC-SA
exact mass=224.2504
ionization energy=70 eV
ion type=[M]+*
computed spectral entropy=3.128228345684413
computed normalized entropy=0.8369461897815199
SPLASH=splash10-0a4l-9000000000-a2f78357e09533acfead
submitter=submitter = University of Tokyo Team (Faculty of Engineering, University of Tokyo)
MoNA Rating=3.75

>  <NUM PEAKS>  (3312) 
42

>  <MASS SPECTRAL PEAKS>  (3312) 
27 18.64
28 7.85
29 44.16
39 19.73
40 2.93
41 99.99
42 22.09
43 95.83
44 2.72
53 6.87
54 14.44
55 88.18
56 46.99
57 71.28
58 2.59
67 13.94
68 12.98
69 58
70 44.16
71 29.14
72 1.36
81 4.42
82 15.63
83 56.9
84 26.68
85 14.31
95 1.84
96 6.05
97 44.32
98 15.42
99 2.16
110 2.47
111 17.78
112 8.93
113 1
124 1.12
125 7.63
126 3.82
139 1.76
140 2.22
154 1.46
224 1.66

>  <PREDICTED SPECTRUM>  (3312) 
25 25
26 68
27 327
28 133
29 495
30 60
32 20
36 12
37 33
38 63
39 346
40 161
41 924
42 466
43 884
44 193
50 23
51 60
52 42
53 237
54 386
55 999
56 817
57 883
58 150
65 98
66 133
67 416
68 423
69 914
70 658
71 550
72 99
77 73
78 45
79 138
80 77
81 297
82 480
83 780
84 495
85 396
86 108
91 29
93 16
94 14
95 200
96 328
97 699
98 340
99 140
100 4
109 78
110 228
111 530
112 299
113 132
114 30
123 38
124 190
125 301
126 197
127 79
128 30
137 40
138 94
139 67
140 170
141 69
152 40
153 98
154 173
155 33
166 37
167 73
168 119
169 32
182 47
195 43
196 143
224 266
225 77

$$$$

     RDKit          2D

 14 13  0  0  0  0  0  0  0  0999 V2000
    4.5466    7.1250    0.0000 C   0  0  0  0  0  0  0  0  0  0  0  0
  -12.3409    7.8750    0.0000 C   0  0  0  0  0  0  0  0  0  0  0  0
    3.2476    7.8750    0.0000 C   0  0  0  0  0  0  0  0  0  0  0  0
  -11.0418    7.1250    0.0000 C   0  0  0  0  0  0  0  0  0  0  0  0
    1.9486    7.1250    0.0000 C   0  0  0  0  0  0  0  0  0  0  0  0
   -9.7428    7.8750    0.0000 C   0  0  0  0  0  0  0  0  0  0  0  0
    0.6495    7.8750    0.0000 C   0  0  0  0  0  0  0  0  0  0  0  0
   -8.4437    7.1250    0.0000 C   0  0  0  0  0  0  0  0  0  0  0  0
   -0.6495    7.1250    0.0000 C   0  0  0  0  0  0  0  0  0  0  0  0
   -7.1447    7.8750    0.0000 C   0  0  0  0  0  0  0  0  0  0  0  0
   -1.9486    7.8750    0.0000 C   0  0  0  0  0  0  0  0  0  0  0  0
   -5.8457    7.1250    0.0000 C   0  0  0  0  0  0  0  0  0  0  0  0
   -3.2476    7.1250    0.0000 C   0  0  0  0  0  0  0  0  0  0  0  0
   -4.5466    7.8750    0.0000 C   0  0  0  0  0  0  0  0  0  0  0  0
  3  1  2  0
  4  2  1  0
  5  3  1  0
  6  4  1  0
  7  5  1  0
  8  6  1  0
  9  7  1  0
 10  8  1  0
 11  9  1  0
 12 10  1  0
 13 11  1  0
 14 12  1  0
 14 13  1  0
M  END
>  <NAME>  (3313) 
1-TETRADECENE

>  <SYNONYMS>  (3313) 


>  <SPECTRUM TYPE>  (3313) 
MS1

>  <INSTRUMENT TYPE>  (3313) 
EI-B

>  <INSTRUMENT>  (3313) 
HITACHI M-80B

>  <ION MODE>  (3313) 
P

>  <INCHIKEY>  (3313) 
HFDVRLIODXPAHB-UHFFFAOYSA-N

>  <FORMULA>  (3313) 
C14H28

>  <EXACT MASS>  (3313) 
196.219100896

>  <MW>  (3313) 
196

>  <ID>  (3313) 
JP006880

>  <CONTRIBUTOR>  (3313) 
University of Tokyo Team, {Faculty of Engineering, University of Tokyo

>  <COMMENT>  (3313) 
SMILES=CCCCCCCCCCCCC=C
InChI=InChI=1S/C14H28/c1-3-5-7-9-11-13-14-12-10-8-6-4-2/h3H,1,4-14H2,2H3
computed SMILES=C=CCCCCCCCCCCCC
accession=JP006880
date=2016.01.19 (Created 2008.10.21, modified 2011.05.06)
author=TAJIMA S, GUNMA COLLEGE OF TECHNOLOGY
license=CC BY-NC-SA
exact mass=196.2191
ionization energy=70 eV
ion type=[M]+*
computed spectral entropy=3.0917094147558926
computed normalized entropy=0.838116141558363
SPLASH=splash10-0a4l-9000000000-2064e9ca5f6367c98603
submitter=submitter = University of Tokyo Team (Faculty of Engineering, University of Tokyo)
MoNA Rating=3.75

>  <NUM PEAKS>  (3313) 
40

>  <MASS SPECTRAL PEAKS>  (3313) 
27 22.05
28 2.07
29 45.18
39 22.67
40 3.79
41 99.99
42 23.74
43 91.4
44 2.43
53 8.48
54 13.62
55 84.47
56 55.36
57 61.91
58 2.27
65 1.04
66 1.02
67 13.19
68 11.81
69 57.85
70 49.42
71 23.85
81 4.9
82 12.75
83 55.1
84 28.99
85 10.67
96 5.54
97 36.89
98 14
99 1.35
110 2.22
111 14.22
112 8.58
125 6.2
126 4.36
139 1.15
140 1.35
168 1.43
196 2.37

>  <PREDICTED SPECTRUM>  (3313) 
25 29
26 92
27 397
28 172
29 557
30 79
31 6
32 27
36 7
37 41
38 69
39 407
40 192
41 953
42 499
43 884
44 199
50 35
51 83
52 67
53 268
54 416
55 999
56 850
57 842
58 159
65 97
66 142
67 417
68 413
69 886
70 667
71 517
72 113
77 80
78 57
79 146
80 85
81 291
82 437
83 723
84 479
85 354
86 111
91 65
93 42
94 3
95 188
96 278
97 587
98 314
99 110
100 20
107 32
109 40
110 175
111 434
112 195
113 99
124 154
125 230
126 186
127 59
128 15
137 16
138 83
139 120
140 194
141 56
152 21
153 45
154 112
155 12
167 30
168 144
196 199
197 51

$$$$

     RDKit          2D

 10  9  0  0  0  0  0  0  0  0999 V2000
   -8.4437    5.6250    0.0000 C   0  0  0  0  0  0  0  0  0  0  0  0
    3.2476    4.8750    0.0000 C   0  0  0  0  0  0  0  0  0  0  0  0
   -7.1447    4.8750    0.0000 C   0  0  0  0  0  0  0  0  0  0  0  0
    1.9486    5.6250    0.0000 C   0  0  0  0  0  0  0  0  0  0  0  0
   -5.8457    5.6250    0.0000 C   0  0  0  0  0  0  0  0  0  0  0  0
    0.6495    4.8750    0.0000 C   0  0  0  0  0  0  0  0  0  0  0  0
   -4.5466    4.8750    0.0000 C   0  0  0  0  0  0  0  0  0  0  0  0
   -0.6495    5.6250    0.0000 C   0  0  0  0  0  0  0  0  0  0  0  0
   -3.2476    5.6250    0.0000 C   0  0  0  0  0  0  0  0  0  0  0  0
   -1.9486    4.8750    0.0000 C   0  0  0  0  0  0  0  0  0  0  0  0
  3  1  2  0
  4  2  1  0
  5  3  1  0
  6  4  1  0
  7  5  1  0
  8  6  1  0
  9  7  1  0
 10  8  1  0
 10  9  1  0
M  END
>  <NAME>  (3314) 
1-DECENE

>  <SYNONYMS>  (3314) 


>  <SPECTRUM TYPE>  (3314) 
MS1

>  <INSTRUMENT TYPE>  (3314) 
EI-B

>  <INSTRUMENT>  (3314) 
HITACHI M-80B

>  <ION MODE>  (3314) 
P

>  <INCHIKEY>  (3314) 
AFFLGGQVNFXPEV-UHFFFAOYSA-N

>  <FORMULA>  (3314) 
C10H20

>  <EXACT MASS>  (3314) 
140.15650064

>  <MW>  (3314) 
140

>  <ID>  (3314) 
JP006875

>  <CONTRIBUTOR>  (3314) 
University of Tokyo Team, {Faculty of Engineering, University of Tokyo

>  <COMMENT>  (3314) 
SMILES=CCCCCCCCC=C
InChI=InChI=1S/C10H20/c1-3-5-7-9-10-8-6-4-2/h3H,1,4-10H2,2H3
computed SMILES=C=CCCCCCCCC
accession=JP006875
date=2016.01.19 (Created 2008.10.21, modified 2011.05.06)
author=TAJIMA S, GUNMA COLLEGE OF TECHNOLOGY
license=CC BY-NC-SA
exact mass=140.1565
ionization energy=70 eV
ion type=[M]+*
computed spectral entropy=3.00863786260158
computed normalized entropy=0.8155966872938251
SPLASH=splash10-0a4l-9000000000-2cde9b74457eb8636fd5
submitter=submitter = University of Tokyo Team (Faculty of Engineering, University of Tokyo)
MoNA Rating=3.75

>  <NUM PEAKS>  (3314) 
40

>  <MASS SPECTRAL PEAKS>  (3314) 
14 1.15
26 2.07
27 32.37
28 8.89
29 41.02
39 35
40 3.56
41 99.99
42 33.45
43 74.71
44 1.23
51 2.36
52 1.47
53 10.8
54 11.85
55 85.22
56 89.86
57 56.83
58 2.18
65 1.57
66 1.28
67 9.35
68 9.02
69 61.27
70 74.78
71 8.14
77 1.78
79 1.37
81 1.7
82 5.78
83 36.38
84 23.97
85 3.84
96 2.85
97 22.21
98 11.6
99 1.25
111 9.87
112 5.66
140 8.83

>  <PREDICTED SPECTRUM>  (3314) 
15 1
25 17
26 103
27 474
28 221
29 552
30 65
31 31
32 27
37 39
38 93
39 535
40 230
41 983
42 578
43 791
44 178
50 72
51 139
52 101
53 296
54 472
55 999
56 995
57 656
58 96
63 11
64 10
65 108
66 137
67 416
68 406
69 799
70 672
71 351
72 84
77 68
78 73
79 115
80 31
81 251
82 270
83 460
84 343
85 153
86 39
93 14
95 101
96 164
97 267
98 265
99 92
111 144
112 201
113 11
125 37
140 178
141 28

$$$$

     RDKit          2D

  9  8  0  0  0  0  0  0  0  0999 V2000
    2.5981    4.5000    0.0000 C   0  0  0  0  0  0  0  0  0  0  0  0
   -7.7942    4.5000    0.0000 C   0  0  0  0  0  0  0  0  0  0  0  0
    1.2990    5.2500    0.0000 C   0  0  0  0  0  0  0  0  0  0  0  0
   -6.4952    5.2500    0.0000 C   0  0  0  0  0  0  0  0  0  0  0  0
    0.0000    4.5000    0.0000 C   0  0  0  0  0  0  0  0  0  0  0  0
   -5.1962    4.5000    0.0000 C   0  0  0  0  0  0  0  0  0  0  0  0
   -1.2990    5.2500    0.0000 C   0  0  0  0  0  0  0  0  0  0  0  0
   -3.8971    5.2500    0.0000 C   0  0  0  0  0  0  0  0  0  0  0  0
   -2.5981    4.5000    0.0000 C   0  0  0  0  0  0  0  0  0  0  0  0
  3  1  1  0
  4  2  1  0
  5  3  1  0
  6  4  1  0
  7  5  1  0
  8  6  1  0
  9  7  1  0
  9  8  1  0
M  END
>  <NAME>  (3315) 
NONANE

>  <SYNONYMS>  (3315) 


>  <SPECTRUM TYPE>  (3315) 
MS1

>  <INSTRUMENT TYPE>  (3315) 
EI-B

>  <INSTRUMENT>  (3315) 
HITACHI M-80B

>  <ION MODE>  (3315) 
P

>  <INCHIKEY>  (3315) 
BKIMMITUMNQMOS-UHFFFAOYSA-N

>  <FORMULA>  (3315) 
C9H20

>  <EXACT MASS>  (3315) 
128.15650064

>  <MW>  (3315) 
128

>  <ID>  (3315) 
JP006874

>  <CONTRIBUTOR>  (3315) 
University of Tokyo Team, {Faculty of Engineering, University of Tokyo

>  <COMMENT>  (3315) 
SMILES=CCCCCCCCC
InChI=InChI=1S/C9H20/c1-3-5-7-9-8-6-4-2/h3-9H2,1-2H3
computed SMILES=CCCCCCCCC
accession=JP006874
date=2016.01.19 (Created 2008.10.21, modified 2011.05.06)
author=TAJIMA S, GUNMA COLLEGE OF TECHNOLOGY
license=CC BY-NC-SA
exact mass=128.1565
ionization energy=70 eV
ion type=[M]+*
computed spectral entropy=2.506461576131916
computed normalized entropy=0.7693024276235825
SPLASH=splash10-052f-9000000000-bbdcc7cfbce99dcd0a5f
submitter=submitter = University of Tokyo Team (Faculty of Engineering, University of Tokyo)
MoNA Rating=3.75

>  <NUM PEAKS>  (3315) 
26

>  <MASS SPECTRAL PEAKS>  (3315) 
15 1.14
26 1.47
27 22.61
28 3.38
29 35.91
39 14.23
40 1.2
41 43.04
42 17
43 99.99
44 2.4
53 1.79
54 1.66
55 13.79
56 14.63
57 66.61
58 2.25
70 9.38
71 18.01
72 1.07
84 5.31
85 19.81
86 1.01
98 1.93
99 3.5
128 3.9

>  <PREDICTED SPECTRUM>  (3315) 
14 9
15 34
25 3
26 85
27 441
28 158
29 538
30 45
31 21
32 0
37 48
38 78
39 384
40 164
41 711
42 431
43 999
44 184
51 35
52 22
53 150
54 175
55 471
56 658
57 982
58 211
65 44
67 104
68 128
69 284
70 428
71 517
72 104
82 42
83 183
84 267
85 320
86 68
98 203
99 77
100 13
128 89

$$$$

     RDKit          2D

  8  7  0  0  0  0  0  0  0  0999 V2000
   -6.4952    4.5000    0.0000 C   0  0  0  0  0  0  0  0  0  0  0  0
    2.5981    3.7500    0.0000 C   0  0  0  0  0  0  0  0  0  0  0  0
   -5.1962    3.7500    0.0000 C   0  0  0  0  0  0  0  0  0  0  0  0
    1.2990    4.5000    0.0000 C   0  0  0  0  0  0  0  0  0  0  0  0
   -3.8971    4.5000    0.0000 C   0  0  0  0  0  0  0  0  0  0  0  0
    0.0000    3.7500    0.0000 C   0  0  0  0  0  0  0  0  0  0  0  0
   -2.5981    3.7500    0.0000 C   0  0  0  0  0  0  0  0  0  0  0  0
   -1.2990    4.5000    0.0000 C   0  0  0  0  0  0  0  0  0  0  0  0
  3  1  1  0
  4  2  1  0
  5  3  1  0
  6  4  1  0
  7  5  1  0
  8  6  1  0
  8  7  1  0
M  END
>  <NAME>  (3316) 
OCTANE

>  <SYNONYMS>  (3316) 


>  <SPECTRUM TYPE>  (3316) 
MS1

>  <INSTRUMENT TYPE>  (3316) 
EI-B

>  <INSTRUMENT>  (3316) 
HITACHI M-80B

>  <ION MODE>  (3316) 
P

>  <INCHIKEY>  (3316) 
TVMXDCGIABBOFY-UHFFFAOYSA-N

>  <FORMULA>  (3316) 
C8H18

>  <EXACT MASS>  (3316) 
114.14085057599999

>  <MW>  (3316) 
114

>  <ID>  (3316) 
JP006873

>  <CONTRIBUTOR>  (3316) 
University of Tokyo Team, {Faculty of Engineering, University of Tokyo

>  <COMMENT>  (3316) 
SMILES=CCCCCCCC
InChI=InChI=1S/C8H18/c1-3-5-7-8-6-4-2/h3-8H2,1-2H3
computed SMILES=CCCCCCCC
accession=JP006873
date=2016.01.19 (Created 2008.10.21, modified 2011.05.06)
author=TAJIMA S, GUNMA COLLEGE OF TECHNOLOGY
license=CC BY-NC-SA
exact mass=114.14085
ionization energy=70 eV
ion type=[M]+*
computed spectral entropy=2.5016609680837365
computed normalized entropy=0.8093259817139568
SPLASH=splash10-0006-9000000000-d2e1916d68421b915616
submitter=submitter = University of Tokyo Team (Faculty of Engineering, University of Tokyo)
MoNA Rating=3.75

>  <NUM PEAKS>  (3316) 
22

>  <MASS SPECTRAL PEAKS>  (3316) 
26 1.24
27 22.93
29 33.63
32 1.36
39 14.21
40 1.56
41 41.61
42 16.17
43 99.99
44 3.03
53 2.23
55 11.46
56 19.58
57 36.96
58 1.9
70 14.09
71 22.74
72 1.35
84 5.96
85 33.01
86 1.83
114 5.16

>  <PREDICTED SPECTRUM>  (3316) 
14 13
15 32
25 7
26 95
27 483
28 199
29 560
30 68
31 8
37 49
38 83
39 408
40 176
41 716
42 451
43 999
44 202
51 35
52 14
53 138
54 162
55 453
56 653
57 867
58 169
65 17
67 65
68 101
69 236
70 348
71 240
72 57
83 125
84 260
85 287
86 63
114 146
115 5

$$$$

     RDKit          2D

  8  7  0  0  0  0  0  0  0  0999 V2000
   -6.4952    4.5000    0.0000 C   0  0  0  0  0  0  0  0  0  0  0  0
    2.5981    3.7500    0.0000 C   0  0  0  0  0  0  0  0  0  0  0  0
   -5.1962    3.7500    0.0000 C   0  0  0  0  0  0  0  0  0  0  0  0
    1.2990    4.5000    0.0000 C   0  0  0  0  0  0  0  0  0  0  0  0
   -3.8971    4.5000    0.0000 C   0  0  0  0  0  0  0  0  0  0  0  0
    0.0000    3.7500    0.0000 C   0  0  0  0  0  0  0  0  0  0  0  0
   -2.5981    3.7500    0.0000 C   0  0  0  0  0  0  0  0  0  0  0  0
   -1.2990    4.5000    0.0000 C   0  0  0  0  0  0  0  0  0  0  0  0
  3  1  1  0
  4  2  1  0
  3  5  2  0
  6  4  1  0
  7  5  1  0
  8  6  1  0
  8  7  1  0
M  END
>  <NAME>  (3317) 
2-OCTENE

>  <SYNONYMS>  (3317) 


>  <SPECTRUM TYPE>  (3317) 
MS1

>  <INSTRUMENT TYPE>  (3317) 
EI-B

>  <INSTRUMENT>  (3317) 
HITACHI M-80B

>  <ION MODE>  (3317) 
P

>  <INCHIKEY>  (3317) 
ILPBINAXDRFYPL-HWKANZROSA-N

>  <FORMULA>  (3317) 
C8H16

>  <EXACT MASS>  (3317) 
112.12520051199999

>  <MW>  (3317) 
112

>  <ID>  (3317) 
JP006872

>  <CONTRIBUTOR>  (3317) 
University of Tokyo Team, {Faculty of Engineering, University of Tokyo

>  <COMMENT>  (3317) 
SMILES=CCCCCC=CC
InChI=InChI=1S/C8H16/c1-3-5-7-8-6-4-2/h3,5H,4,6-8H2,1-2H3/b5-3+
computed SMILES=C(=CCCCCC)C
accession=JP006872
date=2016.01.19 (Created 2008.10.21, modified 2011.05.06)
author=TAJIMA S, GUNMA COLLEGE OF TECHNOLOGY
license=CC BY-NC-SA
exact mass=112.1252
ionization energy=70 eV
ion type=[M]+*
computed spectral entropy=2.8259277384879304
computed normalized entropy=0.8229290239628655
SPLASH=splash10-0a6u-9000000000-2085eaf23c9989baffb3
submitter=submitter = University of Tokyo Team (Faculty of Engineering, University of Tokyo)
MoNA Rating=3.75

>  <NUM PEAKS>  (3317) 
31

>  <MASS SPECTRAL PEAKS>  (3317) 
15 1.5
26 2.36
27 37.73
28 8.39
29 52.94
38 1.65
39 38.81
40 6.06
41 90.26
42 41.97
43 14.57
50 1.47
51 3.01
52 1.57
53 12.84
54 11.07
55 99.99
56 62.83
57 22.58
65 1.43
67 6.74
68 5.61
69 32.67
70 53.41
71 4.98
82 1.77
83 20.7
84 9.6
97 1.82
112 32.99
113 2.29

>  <PREDICTED SPECTRUM>  (3317) 
14 15
15 51
25 29
26 148
27 554
28 293
29 588
30 45
31 28
32 19
37 74
38 139
39 546
40 232
41 863
42 501
43 571
44 86
50 131
51 192
52 146
53 320
54 401
55 999
56 914
57 449
58 37
63 113
65 162
66 106
67 372
68 379
69 654
70 579
71 168
77 119
78 34
79 83
80 17
81 135
82 65
83 427
84 256
85 12
95 3
97 72
112 300

$$$$

     RDKit          2D

  8  7  0  0  0  0  0  0  0  0999 V2000
   -6.4952    4.5000    0.0000 C   0  0  0  0  0  0  0  0  0  0  0  0
    2.5981    3.7500    0.0000 C   0  0  0  0  0  0  0  0  0  0  0  0
   -5.1962    3.7500    0.0000 C   0  0  0  0  0  0  0  0  0  0  0  0
    1.2990    4.5000    0.0000 C   0  0  0  0  0  0  0  0  0  0  0  0
   -3.8971    4.5000    0.0000 C   0  0  0  0  0  0  0  0  0  0  0  0
    0.0000    3.7500    0.0000 C   0  0  0  0  0  0  0  0  0  0  0  0
   -2.5981    3.7500    0.0000 C   0  0  0  0  0  0  0  0  0  0  0  0
   -1.2990    4.5000    0.0000 C   0  0  0  0  0  0  0  0  0  0  0  0
  3  1  2  0
  4  2  1  0
  5  3  1  0
  6  4  1  0
  7  5  1  0
  8  6  1  0
  8  7  1  0
M  END
>  <NAME>  (3318) 
1-OCTENE

>  <SYNONYMS>  (3318) 


>  <SPECTRUM TYPE>  (3318) 
MS1

>  <INSTRUMENT TYPE>  (3318) 
EI-B

>  <INSTRUMENT>  (3318) 
HITACHI M-80B

>  <ION MODE>  (3318) 
P

>  <INCHIKEY>  (3318) 
KWKAKUADMBZCLK-UHFFFAOYSA-N

>  <FORMULA>  (3318) 
C8H16

>  <EXACT MASS>  (3318) 
112.12520051199999

>  <MW>  (3318) 
112

>  <ID>  (3318) 
JP006871

>  <CONTRIBUTOR>  (3318) 
University of Tokyo Team, {Faculty of Engineering, University of Tokyo

>  <COMMENT>  (3318) 
SMILES=CCCCCCC=C
InChI=InChI=1S/C8H16/c1-3-5-7-8-6-4-2/h3H,1,4-8H2,2H3
computed SMILES=C=CCCCCCC
accession=JP006871
date=2016.01.19 (Created 2008.10.21, modified 2011.05.06)
author=TAJIMA S, GUNMA COLLEGE OF TECHNOLOGY
license=CC BY-NC-SA
exact mass=112.1252
ionization energy=70 eV
ion type=[M]+*
computed spectral entropy=2.85673696669769
computed normalized entropy=0.8101091612034311
SPLASH=splash10-052f-9000000000-6cb6889208c6913b8488
submitter=submitter = University of Tokyo Team (Faculty of Engineering, University of Tokyo)
MoNA Rating=3.75

>  <NUM PEAKS>  (3318) 
34

>  <MASS SPECTRAL PEAKS>  (3318) 
15 1.51
26 2.56
27 40.61
28 6.91
29 44.8
30 1.09
38 2.17
39 46.9
40 6.64
41 94.33
42 63.85
43 97.84
44 3.48
50 1.8
51 3.69
52 1.98
53 11.41
54 11
55 99.99
56 81.64
57 16.67
65 1.53
67 6.19
68 7.05
69 43.63
70 84.6
71 12.37
82 4.78
83 35.37
84 22.08
85 1.49
97 3.53
112 15.54
113 1.33

>  <PREDICTED SPECTRUM>  (3318) 
25 3
26 97
27 433
28 211
29 449
30 41
32 8
37 47
38 118
39 556
40 244
41 941
42 584
43 687
44 152
50 88
51 164
52 105
53 297
54 517
55 987
56 999
57 439
58 56
63 4
65 103
66 84
67 433
68 389
69 727
70 551
71 247
77 41
78 72
79 58
80 8
81 114
82 32
83 364
84 297
85 52
97 98
112 230
113 39

$$$$

     RDKit          2D

 14 13  0  0  0  0  0  0  0  0999 V2000
    3.8971    6.7500    0.0000 C   0  0  0  0  0  0  0  0  0  0  0  0
  -11.6913    6.7500    0.0000 C   0  0  0  0  0  0  0  0  0  0  0  0
    2.5981    7.5000    0.0000 C   0  0  0  0  0  0  0  0  0  0  0  0
    1.2990    6.7500    0.0000 C   0  0  0  0  0  0  0  0  0  0  0  0
    0.0000    7.5000    0.0000 C   0  0  0  0  0  0  0  0  0  0  0  0
   -1.2990    6.7500    0.0000 C   0  0  0  0  0  0  0  0  0  0  0  0
   -2.5981    7.5000    0.0000 C   0  0  0  0  0  0  0  0  0  0  0  0
   -3.8971    6.7500    0.0000 C   0  0  0  0  0  0  0  0  0  0  0  0
   -5.1962    7.5000    0.0000 C   0  0  0  0  0  0  0  0  0  0  0  0
   -6.4952    6.7500    0.0000 C   0  0  0  0  0  0  0  0  0  0  0  0
   -7.7942    7.5000    0.0000 C   0  0  0  0  0  0  0  0  0  0  0  0
   -9.0933    6.7500    0.0000 C   0  0  0  0  0  0  0  0  0  0  0  0
  -10.3923    7.5000    0.0000 C   0  0  0  0  0  0  0  0  0  0  0  0
  -10.3923    9.0000    0.0000 O   0  0  0  0  0  0  0  0  0  0  0  0
  3  1  1  0
  4  3  1  0
  5  4  1  0
  6  5  1  0
  7  6  1  0
  8  7  1  0
  9  8  1  0
 10  9  1  0
 11 10  1  0
 12 11  1  0
 13  2  1  0
 13 12  1  0
 14 13  1  0
M  END
>  <NAME>  (3319) 
2-TRIDECANOL

>  <SYNONYMS>  (3319) 


>  <SPECTRUM TYPE>  (3319) 
MS1

>  <INSTRUMENT TYPE>  (3319) 
EI-B

>  <INSTRUMENT>  (3319) 
HITACHI M-80B

>  <ION MODE>  (3319) 
P

>  <INCHIKEY>  (3319) 
HKOLRKVMHVYNGG-UHFFFAOYSA-N

>  <FORMULA>  (3319) 
C13H28O

>  <EXACT MASS>  (3319) 
200.21401551600002

>  <MW>  (3319) 
200

>  <ID>  (3319) 
JP006867

>  <CONTRIBUTOR>  (3319) 
University of Tokyo Team, {Faculty of Engineering, University of Tokyo

>  <COMMENT>  (3319) 
SMILES=CCCCCCCCCCCC(C)O
InChI=InChI=1S/C13H28O/c1-3-4-5-6-7-8-9-10-11-12-13(2)14/h13-14H,3-12H2,1-2H3
computed SMILES=OC(C)CCCCCCCCCCC
accession=JP006867
date=2016.01.19 (Created 2008.10.21, modified 2011.05.06)
author=TAJIMA S, GUNMA COLLEGE OF TECHNOLOGY
license=CC BY-NC-SA
exact mass=200.21402
ionization energy=70 eV
ion type=[M]+*
computed spectral entropy=2.734562311439604
computed normalized entropy=0.7754630566984515
SPLASH=splash10-0002-9000000000-3c1e9a925d9920150b99
submitter=submitter = University of Tokyo Team (Faculty of Engineering, University of Tokyo)
MoNA Rating=3.75

>  <NUM PEAKS>  (3319) 
34

>  <MASS SPECTRAL PEAKS>  (3319) 
27 5.27
29 9.7
39 2.61
41 19.61
42 5.19
43 22.28
44 5
45 99.99
46 1.72
53 1.05
54 1.34
55 17.68
56 9.27
57 16.96
58 2.26
67 1.87
68 1.22
69 13.2
70 8
71 7.87
82 1.98
83 10.34
84 5.13
85 4.78
96 1.35
97 9.81
98 4.01
111 5.91
112 2.19
125 1.98
126 1.21
154 2.32
182 1.77
185 1.45

>  <PREDICTED SPECTRUM>  (3319) 
15 1
17 5
18 17
19 29
25 0
26 30
27 242
28 121
29 325
30 2
31 192
32 46
38 22
39 238
40 99
41 647
42 291
43 758
44 209
45 999
46 154
47 18
50 7
51 43
52 20
53 164
54 159
55 659
56 473
57 686
58 231
59 141
65 3
66 64
67 263
68 223
69 616
70 270
71 445
72 75
73 122
79 6
81 224
82 288
83 537
84 302
85 200
86 53
87 73
95 68
96 164
97 474
98 111
99 113
100 15
110 116
111 321
112 117
113 44
124 36
125 169
126 105
127 52
138 140
139 125
140 91
141 72
153 49
154 143
155 291
156 121
168 25
182 68
185 119

$$$$

     RDKit          2D

 13 12  0  0  0  0  0  0  0  0999 V2000
    3.8971    6.7500    0.0000 C   0  0  0  0  0  0  0  0  0  0  0  0
    2.5981    7.5000    0.0000 C   0  0  0  0  0  0  0  0  0  0  0  0
    1.2990    6.7500    0.0000 C   0  0  0  0  0  0  0  0  0  0  0  0
    0.0000    7.5000    0.0000 C   0  0  0  0  0  0  0  0  0  0  0  0
   -1.2990    6.7500    0.0000 C   0  0  0  0  0  0  0  0  0  0  0  0
   -2.5981    7.5000    0.0000 C   0  0  0  0  0  0  0  0  0  0  0  0
   -3.8971    6.7500    0.0000 C   0  0  0  0  0  0  0  0  0  0  0  0
   -5.1962    7.5000    0.0000 C   0  0  0  0  0  0  0  0  0  0  0  0
   -6.4952    6.7500    0.0000 C   0  0  0  0  0  0  0  0  0  0  0  0
   -7.7942    7.5000    0.0000 C   0  0  0  0  0  0  0  0  0  0  0  0
   -9.0933    6.7500    0.0000 C   0  0  0  0  0  0  0  0  0  0  0  0
  -10.3923    7.5000    0.0000 C   0  0  0  0  0  0  0  0  0  0  0  0
  -11.6913    6.7500    0.0000 O   0  0  0  0  0  0  0  0  0  0  0  0
  2  1  1  0
  3  2  1  0
  4  3  1  0
  5  4  1  0
  6  5  1  0
  7  6  1  0
  8  7  1  0
  9  8  1  0
 10  9  1  0
 11 10  1  0
 12 11  1  0
 13 12  1  0
M  END
>  <NAME>  (3320) 
DODECANOL

>  <SYNONYMS>  (3320) 


>  <SPECTRUM TYPE>  (3320) 
MS1

>  <INSTRUMENT TYPE>  (3320) 
EI-B

>  <INSTRUMENT>  (3320) 
HITACHI M-80B

>  <ION MODE>  (3320) 
P

>  <INCHIKEY>  (3320) 
LQZZUXJYWNFBMV-UHFFFAOYSA-N

>  <FORMULA>  (3320) 
C12H26O

>  <EXACT MASS>  (3320) 
186.198365452

>  <MW>  (3320) 
186

>  <ID>  (3320) 
JP006866

>  <CONTRIBUTOR>  (3320) 
University of Tokyo Team, {Faculty of Engineering, University of Tokyo

>  <COMMENT>  (3320) 
SMILES=CCCCCCCCCCCCO
InChI=InChI=1S/C12H26O/c1-2-3-4-5-6-7-8-9-10-11-12-13/h13H,2-12H2,1H3
computed SMILES=OCCCCCCCCCCCC
accession=JP006866
date=2016.01.19 (Created 2008.10.21, modified 2011.05.06)
author=TAJIMA S, GUNMA COLLEGE OF TECHNOLOGY
license=CC BY-NC-SA
exact mass=186.19837
ionization energy=70 eV
ion type=[M]+*
computed spectral entropy=3.1421563413477647
computed normalized entropy=0.8303379706936842
SPLASH=splash10-0a4l-9000000000-0265898e793080c75dbb
submitter=submitter = University of Tokyo Team (Faculty of Engineering, University of Tokyo)
MoNA Rating=3.75

>  <NUM PEAKS>  (3320) 
44

>  <MASS SPECTRAL PEAKS>  (3320) 
15 1.06
27 20.53
29 44.87
30 1.13
31 39.1
39 15.66
40 1.75
41 89.53
42 32.27
43 96.45
44 3.67
45 2.75
53 5.53
54 8.16
55 99.99
56 71.97
57 59.91
58 3.17
67 9.47
68 29.7
69 76.3
70 67.25
71 16.24
72 1.19
73 2.2
81 3.45
82 21.68
83 60.85
84 39.18
85 8.65
96 5.95
97 37.42
98 18.75
99 2.03
110 2.49
111 15.46
112 9.61
124 1.04
125 4.69
126 2.66
139 1.72
140 7.9
141 1.7
168 2.11

>  <PREDICTED SPECTRUM>  (3320) 
17 0
18 4
19 1
25 12
26 81
27 288
28 156
29 478
30 85
31 286
32 41
33 15
36 9
37 35
38 65
39 418
40 189
41 959
42 526
43 908
44 335
45 178
46 45
47 49
50 76
51 110
52 67
53 257
54 370
55 999
56 847
57 898
58 125
59 135
60 34
61 65
63 8
65 84
66 145
67 453
68 527
69 945
70 738
71 560
72 138
73 154
74 66
76 46
77 63
78 43
79 131
80 45
81 368
82 546
83 792
84 506
85 327
86 66
87 15
88 30
93 27
94 16
95 298
96 384
97 622
98 365
99 148
100 28
101 29
109 29
110 161
111 413
112 297
113 112
114 50
115 26
124 161
125 181
126 178
127 46
138 59
139 129
140 346
141 76
153 49
154 48
155 30
158 0
168 186
169 48

$$$$

     RDKit          2D

 12 11  0  0  0  0  0  0  0  0999 V2000
   -9.7428    5.6250    0.0000 C   0  0  0  0  0  0  0  0  0  0  0  0
    3.2476    5.6250    0.0000 C   0  0  0  0  0  0  0  0  0  0  0  0
   -8.4437    4.8750    0.0000 C   0  0  0  0  0  0  0  0  0  0  0  0
    1.9486    4.8750    0.0000 C   0  0  0  0  0  0  0  0  0  0  0  0
   -7.1447    5.6250    0.0000 C   0  0  0  0  0  0  0  0  0  0  0  0
   -5.8457    4.8750    0.0000 C   0  0  0  0  0  0  0  0  0  0  0  0
   -4.5466    5.6250    0.0000 C   0  0  0  0  0  0  0  0  0  0  0  0
   -3.2476    4.8750    0.0000 C   0  0  0  0  0  0  0  0  0  0  0  0
   -1.9486    5.6250    0.0000 C   0  0  0  0  0  0  0  0  0  0  0  0
   -0.6495    4.8750    0.0000 C   0  0  0  0  0  0  0  0  0  0  0  0
    0.6495    5.6250    0.0000 C   0  0  0  0  0  0  0  0  0  0  0  0
    0.6495    7.1250    0.0000 O   0  0  0  0  0  0  0  0  0  0  0  0
  3  1  1  0
  4  2  1  0
  5  3  1  0
  6  5  1  0
  7  6  1  0
  8  7  1  0
  9  8  1  0
 10  9  1  0
 11  4  1  0
 11 10  1  0
 12 11  1  0
M  END
>  <NAME>  (3321) 
3-UNDECANOL

>  <SYNONYMS>  (3321) 


>  <SPECTRUM TYPE>  (3321) 
MS1

>  <INSTRUMENT TYPE>  (3321) 
EI-B

>  <INSTRUMENT>  (3321) 
HITACHI M-80B

>  <ION MODE>  (3321) 
P

>  <INCHIKEY>  (3321) 
HCARCYFXWDRVBZ-UHFFFAOYSA-N

>  <FORMULA>  (3321) 
C11H24O

>  <EXACT MASS>  (3321) 
172.182715388

>  <MW>  (3321) 
172

>  <ID>  (3321) 
JP006865

>  <CONTRIBUTOR>  (3321) 
University of Tokyo Team, {Faculty of Engineering, University of Tokyo

>  <COMMENT>  (3321) 
SMILES=CCCCCCCCC(O)CC
InChI=InChI=1S/C11H24O/c1-3-5-6-7-8-9-10-11(12)4-2/h11-12H,3-10H2,1-2H3
computed SMILES=OC(CC)CCCCCCCC
accession=JP006865
date=2016.01.19 (Created 2008.10.21, modified 2011.05.06)
author=TAJIMA S, GUNMA COLLEGE OF TECHNOLOGY
license=CC BY-NC-SA
exact mass=172.18272
ionization energy=70 eV
ion type=[M]+*
computed spectral entropy=2.7234910478762946
computed normalized entropy=0.7723234844720654
SPLASH=splash10-0a4i-9000000000-d68b7a641541f2f0a813
submitter=submitter = University of Tokyo Team (Faculty of Engineering, University of Tokyo)
MoNA Rating=3.75

>  <NUM PEAKS>  (3321) 
34

>  <MASS SPECTRAL PEAKS>  (3321) 
27 9.9
29 17.67
31 15.74
39 4.61
41 29.62
42 6.23
43 19.45
44 2.32
45 1.35
53 1.51
54 1.26
55 30.62
56 6.48
57 21.22
58 12.54
59 99.99
60 2.85
67 2.17
68 1.09
69 58.54
70 6.65
71 2.77
72 1.3
81 1.1
82 1.2
83 31.06
84 3
85 1.43
97 3.91
98 1.13
125 2.08
143 16.93
144 1.4
154 1.63

>  <PREDICTED SPECTRUM>  (3321) 
15 50
17 7
18 23
19 7
25 4
26 60
27 418
28 212
29 602
30 154
31 396
32 54
33 36
37 8
38 44
39 370
40 140
41 825
42 403
43 617
44 197
45 428
46 51
47 97
50 18
51 84
52 61
53 227
54 157
55 863
56 555
57 821
58 302
59 999
60 145
65 17
66 49
67 232
68 146
69 780
70 428
71 408
72 186
73 138
77 94
78 8
79 100
81 157
82 72
83 552
84 205
85 152
86 34
87 5
96 96
97 475
98 170
111 266
112 110
113 139
114 42
125 179
126 108
143 413
144 58
154 120

$$$$

     RDKit          2D

 12 11  0  0  0  0  0  0  0  0999 V2000
    3.2476    5.6250    0.0000 C   0  0  0  0  0  0  0  0  0  0  0  0
   -9.7428    5.6250    0.0000 C   0  0  0  0  0  0  0  0  0  0  0  0
    1.9486    6.3750    0.0000 C   0  0  0  0  0  0  0  0  0  0  0  0
    0.6495    5.6250    0.0000 C   0  0  0  0  0  0  0  0  0  0  0  0
   -0.6495    6.3750    0.0000 C   0  0  0  0  0  0  0  0  0  0  0  0
   -1.9486    5.6250    0.0000 C   0  0  0  0  0  0  0  0  0  0  0  0
   -3.2476    6.3750    0.0000 C   0  0  0  0  0  0  0  0  0  0  0  0
   -4.5466    5.6250    0.0000 C   0  0  0  0  0  0  0  0  0  0  0  0
   -5.8457    6.3750    0.0000 C   0  0  0  0  0  0  0  0  0  0  0  0
   -7.1447    5.6250    0.0000 C   0  0  0  0  0  0  0  0  0  0  0  0
   -8.4437    6.3750    0.0000 C   0  0  0  0  0  0  0  0  0  0  0  0
   -8.4437    7.8750    0.0000 O   0  0  0  0  0  0  0  0  0  0  0  0
  3  1  1  0
  4  3  1  0
  5  4  1  0
  6  5  1  0
  7  6  1  0
  8  7  1  0
  9  8  1  0
 10  9  1  0
 11  2  1  0
 11 10  1  0
 12 11  1  0
M  END
>  <NAME>  (3322) 
2-UNDECANOL

>  <SYNONYMS>  (3322) 


>  <SPECTRUM TYPE>  (3322) 
MS1

>  <INSTRUMENT TYPE>  (3322) 
EI-B

>  <INSTRUMENT>  (3322) 
HITACHI M-80B

>  <ION MODE>  (3322) 
P

>  <INCHIKEY>  (3322) 
XMUJIPOFTAHSOK-UHFFFAOYSA-N

>  <FORMULA>  (3322) 
C11H24O

>  <EXACT MASS>  (3322) 
172.182715388

>  <MW>  (3322) 
172

>  <ID>  (3322) 
JP006864

>  <CONTRIBUTOR>  (3322) 
University of Tokyo Team, {Faculty of Engineering, University of Tokyo

>  <COMMENT>  (3322) 
SMILES=CCCCCCCCCC(C)O
InChI=InChI=1S/C11H24O/c1-3-4-5-6-7-8-9-10-11(2)12/h11-12H,3-10H2,1-2H3
computed SMILES=OC(C)CCCCCCCCC
accession=JP006864
date=2016.01.19 (Created 2008.10.21, modified 2011.05.06)
author=TAJIMA S, GUNMA COLLEGE OF TECHNOLOGY
license=CC BY-NC-SA
exact mass=172.18272
ionization energy=70 eV
ion type=[M]+*
computed spectral entropy=2.612403877441767
computed normalized entropy=0.7607494500939591
SPLASH=splash10-0002-9000000000-ae2234e36f98258b6c7c
submitter=submitter = University of Tokyo Team (Faculty of Engineering, University of Tokyo)
MoNA Rating=3.75

>  <NUM PEAKS>  (3322) 
31

>  <MASS SPECTRAL PEAKS>  (3322) 
27 7.68
29 10.81
31 1.17
39 4.21
41 18.48
42 6.16
43 19.95
44 5.99
45 99.99
46 2.06
53 1.14
54 1.05
55 15.84
56 8.32
57 12.45
58 1.31
67 1.33
69 9.83
70 7.64
71 4.57
82 1.41
83 10.68
84 4.82
85 3.06
97 7.05
98 2.35
111 2.38
112 1.27
126 3.47
154 1.64
157 1.4

>  <PREDICTED SPECTRUM>  (3322) 
15 16
18 13
19 38
25 0
26 28
27 244
28 102
29 325
30 8
31 183
32 51
36 1
37 9
38 33
39 249
40 90
41 603
42 289
43 671
44 205
45 999
46 126
50 15
51 58
52 24
53 168
54 126
55 644
56 460
57 557
58 164
59 192
63 23
65 10
66 65
67 238
68 168
69 579
70 222
71 370
72 99
73 75
79 23
81 181
82 205
83 515
84 296
85 146
86 49
95 33
96 128
97 442
98 140
99 131
101 12
110 172
111 264
112 102
113 99
125 79
126 151
127 207
128 154
139 61
140 35
154 34
157 102

$$$$

     RDKit          2D

 10  9  0  0  0  0  0  0  0  0999 V2000
    2.5981    4.5000    0.0000 C   0  0  0  0  0  0  0  0  0  0  0  0
   -7.7942    4.5000    0.0000 C   0  0  0  0  0  0  0  0  0  0  0  0
    1.2990    5.2500    0.0000 C   0  0  0  0  0  0  0  0  0  0  0  0
   -6.4952    5.2500    0.0000 C   0  0  0  0  0  0  0  0  0  0  0  0
    0.0000    4.5000    0.0000 C   0  0  0  0  0  0  0  0  0  0  0  0
   -1.2990    5.2500    0.0000 C   0  0  0  0  0  0  0  0  0  0  0  0
   -2.5981    4.5000    0.0000 C   0  0  0  0  0  0  0  0  0  0  0  0
   -3.8971    5.2500    0.0000 C   0  0  0  0  0  0  0  0  0  0  0  0
   -5.1962    4.5000    0.0000 C   0  0  0  0  0  0  0  0  0  0  0  0
   -5.1962    3.0000    0.0000 O   0  0  0  0  0  0  0  0  0  0  0  0
  3  1  1  0
  4  2  1  0
  5  3  1  0
  6  5  1  0
  7  6  1  0
  8  7  1  0
  9  4  1  0
  9  8  1  0
 10  9  1  0
M  END
>  <NAME>  (3323) 
3-NONANOL

>  <SYNONYMS>  (3323) 


>  <SPECTRUM TYPE>  (3323) 
MS1

>  <INSTRUMENT TYPE>  (3323) 
EI-B

>  <INSTRUMENT>  (3323) 
HITACHI M-80B

>  <ION MODE>  (3323) 
P

>  <INCHIKEY>  (3323) 
GYSCXPVAKHVAAY-UHFFFAOYSA-N

>  <FORMULA>  (3323) 
C9H20O

>  <EXACT MASS>  (3323) 
144.15141526

>  <MW>  (3323) 
144

>  <ID>  (3323) 
JP006861

>  <CONTRIBUTOR>  (3323) 
University of Tokyo Team, {Faculty of Engineering, University of Tokyo

>  <COMMENT>  (3323) 
SMILES=CCCCCCC(O)CC
InChI=InChI=1S/C9H20O/c1-3-5-6-7-8-9(10)4-2/h9-10H,3-8H2,1-2H3
computed SMILES=OC(CC)CCCCCC
accession=JP006861
ion type=[M]+*
date=2016.01.19 (Created 2008.10.21, modified 2011.05.06)
author=TAJIMA S, GUNMA COLLEGE OF TECHNOLOGY
license=CC BY-NC-SA
exact mass=144.15142
ionization energy=70 eV
computed spectral entropy=2.6105285074180338
computed normalized entropy=0.7752596264844719
SPLASH=splash10-0a4i-9000000000-367d9c61f666330ad098
submitter=submitter = University of Tokyo Team (Faculty of Engineering, University of Tokyo)
MoNA Rating=3.75

>  <NUM PEAKS>  (3323) 
29

>  <MASS SPECTRAL PEAKS>  (3323) 
27 13.52
28 2.45
29 19.93
31 19.19
39 7.75
40 1.15
41 27.59
42 5.29
43 21.11
44 4.56
45 2.04
53 1.62
55 66.51
56 6.37
57 11.16
58 9.9
59 99.99
60 2.71
67 1.02
69 12.24
70 3.58
71 1.93
83 1.28
84 1.26
97 42.72
98 3.22
115 18.3
116 1.18
126 2.08

>  <PREDICTED SPECTRUM>  (3323) 
14 24
15 115
17 11
18 41
19 35
25 16
26 127
27 567
28 296
29 797
30 84
31 467
32 71
33 60
37 40
38 93
39 460
40 182
41 802
42 423
43 606
44 219
45 425
46 24
47 97
50 46
51 105
52 73
53 225
54 131
55 818
56 597
57 729
58 288
59 999
60 39
65 57
66 41
67 176
68 106
69 558
70 375
71 279
72 108
73 32
77 25
78 7
79 4
81 130
82 20
83 404
84 172
85 196
86 14
87 21
96 74
97 501
98 168
115 346
126 159
130 8

$$$$

     RDKit          2D

 10  9  0  0  0  0  0  0  0  0999 V2000
    2.5981    4.5000    0.0000 C   0  0  0  0  0  0  0  0  0  0  0  0
   -7.7942    4.5000    0.0000 C   0  0  0  0  0  0  0  0  0  0  0  0
    1.2990    5.2500    0.0000 C   0  0  0  0  0  0  0  0  0  0  0  0
    0.0000    4.5000    0.0000 C   0  0  0  0  0  0  0  0  0  0  0  0
   -1.2990    5.2500    0.0000 C   0  0  0  0  0  0  0  0  0  0  0  0
   -2.5981    4.5000    0.0000 C   0  0  0  0  0  0  0  0  0  0  0  0
   -3.8971    5.2500    0.0000 C   0  0  0  0  0  0  0  0  0  0  0  0
   -5.1962    4.5000    0.0000 C   0  0  0  0  0  0  0  0  0  0  0  0
   -6.4952    5.2500    0.0000 C   0  0  0  0  0  0  0  0  0  0  0  0
   -6.4952    6.7500    0.0000 O   0  0  0  0  0  0  0  0  0  0  0  0
  3  1  1  0
  4  3  1  0
  5  4  1  0
  6  5  1  0
  7  6  1  0
  8  7  1  0
  9  2  1  0
  9  8  1  0
 10  9  1  0
M  END
>  <NAME>  (3324) 
2-NONANOL

>  <SYNONYMS>  (3324) 


>  <SPECTRUM TYPE>  (3324) 
MS1

>  <INSTRUMENT TYPE>  (3324) 
EI-B

>  <INSTRUMENT>  (3324) 
HITACHI M-80B

>  <ION MODE>  (3324) 
P

>  <INCHIKEY>  (3324) 
NGDNVOAEIVQRFH-UHFFFAOYSA-N

>  <FORMULA>  (3324) 
C9H20O

>  <EXACT MASS>  (3324) 
144.15141526

>  <MW>  (3324) 
144

>  <ID>  (3324) 
JP006860

>  <CONTRIBUTOR>  (3324) 
University of Tokyo Team, {Faculty of Engineering, University of Tokyo

>  <COMMENT>  (3324) 
SMILES=CCCCCCCC(C)O
InChI=InChI=1S/C9H20O/c1-3-4-5-6-7-8-9(2)10/h9-10H,3-8H2,1-2H3
computed SMILES=OC(C)CCCCCCC
accession=JP006860
date=2016.01.19 (Created 2008.10.21, modified 2011.05.06)
author=TAJIMA S, GUNMA COLLEGE OF TECHNOLOGY
license=CC BY-NC-SA
exact mass=144.15142
ionization energy=70 eV
ion type=[M]+*
computed spectral entropy=2.4357539023035724
computed normalized entropy=0.7567094957455547
SPLASH=splash10-0002-9000000000-9989b1e1be971110502f
submitter=submitter = University of Tokyo Team (Faculty of Engineering, University of Tokyo)
MoNA Rating=3.75

>  <NUM PEAKS>  (3324) 
25

>  <MASS SPECTRAL PEAKS>  (3324) 
27 7.94
28 1.08
29 10.04
31 1.3
39 4.93
41 16.55
42 5.86
43 14.99
44 7.23
45 99.99
46 2.47
55 13.45
56 7.75
57 8.37
58 1.29
69 17.8
70 6.09
71 3.7
83 3.42
84 4.06
97 3.27
98 5.36
111 1.92
126 2.48
129 2.38

>  <PREDICTED SPECTRUM>  (3324) 
14 8
15 49
16 1
18 16
19 54
25 2
26 40
27 256
28 107
29 325
30 3
31 232
32 57
36 7
37 22
38 52
39 265
40 90
41 542
42 265
43 613
44 233
45 999
46 119
47 21
50 19
51 67
52 26
53 155
54 83
55 561
56 414
57 439
58 173
59 55
65 17
66 31
67 173
68 108
69 497
70 181
71 264
72 34
73 107
81 113
82 174
83 400
84 194
85 105
96 41
97 280
98 187
99 285
100 167
111 105
112 13
126 25
129 135

$$$$

     RDKit          2D

  9  8  0  0  0  0  0  0  0  0999 V2000
    1.6238    3.9375    0.0000 C   0  0  0  0  0  0  0  0  0  0  0  0
   -6.1704    3.9375    0.0000 C   0  0  0  0  0  0  0  0  0  0  0  0
    0.3248    4.6875    0.0000 C   0  0  0  0  0  0  0  0  0  0  0  0
   -4.8714    4.6875    0.0000 C   0  0  0  0  0  0  0  0  0  0  0  0
   -0.9743    3.9375    0.0000 C   0  0  0  0  0  0  0  0  0  0  0  0
   -2.2733    4.6875    0.0000 C   0  0  0  0  0  0  0  0  0  0  0  0
   -3.5724    2.4375    0.0000 C   0  0  0  0  0  0  0  0  0  0  0  0
   -3.5724    3.9375    0.0000 C   0  0  0  0  0  0  0  0  0  0  0  0
   -4.8714    1.6875    0.0000 O   0  0  0  0  0  0  0  0  0  0  0  0
  3  1  1  0
  4  2  1  0
  5  3  1  0
  6  5  1  0
  8  4  1  0
  8  6  1  0
  8  7  1  0
  9  7  1  0
M  END
>  <NAME>  (3325) 
2-ETHYLHEXANOL

>  <SYNONYMS>  (3325) 


>  <SPECTRUM TYPE>  (3325) 
MS1

>  <INSTRUMENT TYPE>  (3325) 
EI-B

>  <INSTRUMENT>  (3325) 
HITACHI M-80B

>  <ION MODE>  (3325) 
P

>  <INCHIKEY>  (3325) 
YIWUKEYIRIRTPP-UHFFFAOYSA-N

>  <FORMULA>  (3325) 
C8H18O

>  <EXACT MASS>  (3325) 
130.135765196

>  <MW>  (3325) 
130

>  <ID>  (3325) 
JP006858

>  <CONTRIBUTOR>  (3325) 
University of Tokyo Team, {Faculty of Engineering, University of Tokyo

>  <COMMENT>  (3325) 
SMILES=CCCCC(CC)CO
InChI=InChI=1S/C8H18O/c1-3-5-6-8(4-2)7-9/h8-9H,3-7H2,1-2H3
computed SMILES=OCC(CC)CCCC
accession=JP006858
date=2016.01.19 (Created 2008.10.21, modified 2011.05.06)
author=TAJIMA S, GUNMA COLLEGE OF TECHNOLOGY
license=CC BY-NC-SA
exact mass=130.13577
ionization energy=70 eV
ion type=[M]+*
computed spectral entropy=2.6663209756176647
computed normalized entropy=0.7918285503380839
SPLASH=splash10-0a4l-9000000000-4e3f8e8046c7b7f5b3c7
submitter=submitter = University of Tokyo Team (Faculty of Engineering, University of Tokyo)
MoNA Rating=3.75

>  <NUM PEAKS>  (3325) 
29

>  <MASS SPECTRAL PEAKS>  (3325) 
27 15.43
28 2.09
29 22.48
31 12.03
39 10.1
40 1.28
41 39.91
42 7.24
43 35.76
44 1.46
45 1.57
53 2.19
54 1.66
55 24.7
56 21.76
57 99.99
58 4.32
67 1.18
68 1.37
69 10.09
70 21
71 3.74
82 2.2
83 19.22
84 7.16
97 1.18
98 8.13
99 1.23
112 3.41

>  <PREDICTED SPECTRUM>  (3325) 
14 17
15 69
16 9
17 6
18 6
19 20
25 9
26 94
27 417
28 198
29 597
30 48
31 390
32 65
36 11
37 41
38 79
39 409
40 134
41 784
42 425
43 885
44 210
45 131
50 52
51 61
52 54
53 200
54 166
55 733
56 707
57 999
58 216
59 25
65 35
66 60
67 180
68 150
69 678
70 633
71 551
72 165
73 55
81 136
82 205
83 531
84 468
85 364
86 59
96 67
97 161
98 280
99 203
100 20
111 29
112 264
113 105

$$$$

     RDKit          2D

  9  8  0  0  0  0  0  0  0  0999 V2000
   -6.4952    4.5000    0.0000 C   0  0  0  0  0  0  0  0  0  0  0  0
    2.5981    3.7500    0.0000 C   0  0  0  0  0  0  0  0  0  0  0  0
   -5.1962    3.7500    0.0000 C   0  0  0  0  0  0  0  0  0  0  0  0
    1.2990    4.5000    0.0000 C   0  0  0  0  0  0  0  0  0  0  0  0
   -3.8971    4.5000    0.0000 C   0  0  0  0  0  0  0  0  0  0  0  0
   -2.5981    3.7500    0.0000 C   0  0  0  0  0  0  0  0  0  0  0  0
   -1.2990    4.5000    0.0000 C   0  0  0  0  0  0  0  0  0  0  0  0
    0.0000    3.7500    0.0000 C   0  0  0  0  0  0  0  0  0  0  0  0
   -0.0000    2.2500    0.0000 O   0  0  0  0  0  0  0  0  0  0  0  0
  3  1  1  0
  4  2  1  0
  5  3  1  0
  6  5  1  0
  7  6  1  0
  8  4  1  0
  8  7  1  0
  9  8  1  0
M  END
>  <NAME>  (3326) 
3-OCTANOL

>  <SYNONYMS>  (3326) 


>  <SPECTRUM TYPE>  (3326) 
MS1

>  <INSTRUMENT TYPE>  (3326) 
EI-B

>  <INSTRUMENT>  (3326) 
HITACHI M-80B

>  <ION MODE>  (3326) 
P

>  <INCHIKEY>  (3326) 
NMRPBPVERJPACX-UHFFFAOYSA-N

>  <FORMULA>  (3326) 
C8H18O

>  <EXACT MASS>  (3326) 
130.135765196

>  <MW>  (3326) 
130

>  <ID>  (3326) 
JP006857

>  <CONTRIBUTOR>  (3326) 
University of Tokyo Team, {Faculty of Engineering, University of Tokyo

>  <COMMENT>  (3326) 
SMILES=CCCCCC(O)CC
InChI=InChI=1S/C8H18O/c1-3-5-6-7-8(9)4-2/h8-9H,3-7H2,1-2H3
computed SMILES=OC(CC)CCCCC
accession=JP006857
date=2016.01.19 (Created 2008.10.21, modified 2011.05.06)
author=TAJIMA S, GUNMA COLLEGE OF TECHNOLOGY
license=CC BY-NC-SA
exact mass=130.13577
ionization energy=70 eV
ion type=[M]+*
computed spectral entropy=2.593201531750639
computed normalized entropy=0.7782240027081325
SPLASH=splash10-0a4i-9000000000-e465ef88acb28c76bbf2
submitter=submitter = University of Tokyo Team (Faculty of Engineering, University of Tokyo)
MoNA Rating=3.75

>  <NUM PEAKS>  (3326) 
28

>  <MASS SPECTRAL PEAKS>  (3326) 
15 1.03
27 15.3
28 2.73
29 22.11
31 21.58
39 7.95
40 1.21
41 29.84
42 4.64
43 14.08
44 6.83
45 2.98
53 1.64
55 47.72
56 5.76
57 11.98
58 9.64
59 99.99
60 3.18
69 2.41
70 2.31
71 1.46
83 51.1
84 3.53
100 1.01
101 23
102 1.34
112 2.4

>  <PREDICTED SPECTRUM>  (3326) 
14 42
15 143
18 24
19 43
25 34
26 177
27 662
28 375
29 899
30 171
31 514
32 73
33 64
36 0
37 54
38 129
39 523
40 225
41 849
42 439
43 594
44 212
45 194
46 3
47 160
50 86
51 161
52 111
53 244
54 149
55 963
56 674
57 710
58 287
59 999
60 219
65 63
66 54
67 192
68 75
69 207
70 342
71 381
72 237
73 220
77 30
78 49
79 40
81 75
82 66
83 695
84 210
85 68
97 83
100 132
101 390
112 139

$$$$

     RDKit          2D

  9  8  0  0  0  0  0  0  0  0999 V2000
   -7.4695    3.9375    0.0000 C   0  0  0  0  0  0  0  0  0  0  0  0
    1.6238    3.1875    0.0000 C   0  0  0  0  0  0  0  0  0  0  0  0
   -6.1704    3.1875    0.0000 C   0  0  0  0  0  0  0  0  0  0  0  0
   -4.8714    3.9375    0.0000 C   0  0  0  0  0  0  0  0  0  0  0  0
   -3.5724    3.1875    0.0000 C   0  0  0  0  0  0  0  0  0  0  0  0
   -2.2733    3.9375    0.0000 C   0  0  0  0  0  0  0  0  0  0  0  0
   -0.9743    3.1875    0.0000 C   0  0  0  0  0  0  0  0  0  0  0  0
    0.3248    3.9375    0.0000 C   0  0  0  0  0  0  0  0  0  0  0  0
    0.3248    5.4375    0.0000 O   0  0  0  0  0  0  0  0  0  0  0  0
  3  1  1  0
  4  3  1  0
  5  4  1  0
  6  5  1  0
  7  6  1  0
  8  2  1  0
  8  7  1  0
  9  8  1  0
M  END
>  <NAME>  (3327) 
2-OCTANOL

>  <SYNONYMS>  (3327) 


>  <SPECTRUM TYPE>  (3327) 
MS1

>  <INSTRUMENT TYPE>  (3327) 
EI-B

>  <INSTRUMENT>  (3327) 
HITACHI M-80B

>  <ION MODE>  (3327) 
P

>  <INCHIKEY>  (3327) 
SJWFXCIHNDVPSH-UHFFFAOYSA-N

>  <FORMULA>  (3327) 
C8H18O

>  <EXACT MASS>  (3327) 
130.135765196

>  <MW>  (3327) 
130

>  <ID>  (3327) 
JP006856

>  <CONTRIBUTOR>  (3327) 
University of Tokyo Team, {Faculty of Engineering, University of Tokyo

>  <COMMENT>  (3327) 
SMILES=CCCCCCC(C)O
InChI=InChI=1S/C8H18O/c1-3-4-5-6-7-8(2)9/h8-9H,3-7H2,1-2H3
computed SMILES=OC(C)CCCCCC
accession=JP006856
date=2016.01.19 (Created 2008.10.21, modified 2011.05.06)
author=TAJIMA S, GUNMA COLLEGE OF TECHNOLOGY
license=CC BY-NC-SA
exact mass=130.13577
ionization energy=70 eV
ion type=[M]+*
computed spectral entropy=2.3257724932490733
computed normalized entropy=0.7417562696921993
SPLASH=splash10-0002-9000000000-1d1bfd93bdf2afa1ced5
submitter=submitter = University of Tokyo Team (Faculty of Engineering, University of Tokyo)
MoNA Rating=3.75

>  <NUM PEAKS>  (3327) 
23

>  <MASS SPECTRAL PEAKS>  (3327) 
27 8.68
28 1.52
29 9.51
31 1.7
39 5.03
41 14.43
42 5.37
43 15.2
44 7.95
45 99.99
46 2.19
53 1
55 19.38
56 6.45
57 6.23
69 5.62
70 5.73
71 1.5
83 2.68
84 5.38
97 6.78
112 3.1
115 2.74

>  <PREDICTED SPECTRUM>  (3327) 
14 17
15 66
16 4
18 11
19 63
25 1
26 45
27 244
28 103
29 281
30 52
31 202
32 49
36 2
37 23
38 55
39 258
40 80
41 457
42 203
43 537
44 205
45 999
46 116
47 17
50 11
51 49
52 14
53 136
54 59
55 460
56 367
57 328
58 128
59 239
65 28
66 6
67 128
68 118
69 300
70 127
71 129
73 34
81 26
82 20
83 322
84 191
85 317
86 159
87 16
97 161
98 19
112 55
115 160

$$$$

     RDKit          2D

  8  7  0  0  0  0  0  0  0  0999 V2000
    1.6238    3.1875    0.0000 C   0  0  0  0  0  0  0  0  0  0  0  0
   -4.8714    3.9375    0.0000 C   0  0  0  0  0  0  0  0  0  0  0  0
   -3.5724    1.6875    0.0000 C   0  0  0  0  0  0  0  0  0  0  0  0
    0.3248    3.9375    0.0000 C   0  0  0  0  0  0  0  0  0  0  0  0
   -0.9743    3.1875    0.0000 C   0  0  0  0  0  0  0  0  0  0  0  0
   -3.5724    3.1875    0.0000 C   0  0  0  0  0  0  0  0  0  0  0  0
   -2.2733    3.9375    0.0000 C   0  0  0  0  0  0  0  0  0  0  0  0
   -2.2733    5.4375    0.0000 O   0  0  0  0  0  0  0  0  0  0  0  0
  4  1  1  0
  5  4  1  0
  6  2  1  0
  6  3  1  0
  7  5  1  0
  7  6  1  0
  8  7  1  0
M  END
>  <NAME>  (3328) 
2-METHYL-3-HEXANOL

>  <SYNONYMS>  (3328) 


>  <SPECTRUM TYPE>  (3328) 
MS1

>  <INSTRUMENT TYPE>  (3328) 
EI-B

>  <INSTRUMENT>  (3328) 
HITACHI M-80B

>  <ION MODE>  (3328) 
P

>  <INCHIKEY>  (3328) 
RGRUUTLDBCWYBL-UHFFFAOYSA-N

>  <FORMULA>  (3328) 
C7H16O

>  <EXACT MASS>  (3328) 
116.120115132

>  <MW>  (3328) 
116

>  <ID>  (3328) 
JP006854

>  <CONTRIBUTOR>  (3328) 
University of Tokyo Team, {Faculty of Engineering, University of Tokyo

>  <COMMENT>  (3328) 
SMILES=CCCC(O)C(C)C
InChI=InChI=1S/C7H16O/c1-4-5-7(8)6(2)3/h6-8H,4-5H2,1-3H3
computed SMILES=OC(CCC)C(C)C
accession=JP006854
date=2016.01.19 (Created 2008.10.21, modified 2011.05.06)
author=TAJIMA S, GUNMA COLLEGE OF TECHNOLOGY
license=CC BY-NC-SA
exact mass=116.12012
ionization energy=70 eV
ion type=[M]+*
computed spectral entropy=2.2725205944837197
computed normalized entropy=0.7351955299140912
SPLASH=splash10-05fu-9000000000-130b5041ec98581abbe7
submitter=submitter = University of Tokyo Team (Faculty of Engineering, University of Tokyo)
MoNA Rating=3.75

>  <NUM PEAKS>  (3328) 
22

>  <MASS SPECTRAL PEAKS>  (3328) 
15 1.74
27 19.25
28 3.01
29 11.46
31 13.73
39 10.49
40 1.13
41 18.24
42 2.3
43 40.91
44 6.39
45 10.43
53 1.77
55 99.99
56 6.63
57 9.36
59 1.9
69 1.08
71 1.25
72 14.44
73 95.72
74 3.47

>  <PREDICTED SPECTRUM>  (3328) 
14 8
15 31
18 16
25 8
26 62
27 314
28 120
29 242
30 25
31 161
32 20
36 18
37 17
38 53
39 283
40 107
41 477
42 167
43 526
44 208
45 356
46 57
47 8
50 9
51 49
52 27
53 169
54 34
55 778
56 216
57 416
69 62
70 102
71 241
72 404
73 999
74 252
75 64
83 3
98 60

$$$$

     RDKit          2D

  8  7  0  0  0  0  0  0  0  0999 V2000
   -6.4952    4.5000    0.0000 C   0  0  0  0  0  0  0  0  0  0  0  0
   -5.1962    3.7500    0.0000 C   0  0  0  0  0  0  0  0  0  0  0  0
   -3.8971    4.5000    0.0000 C   0  0  0  0  0  0  0  0  0  0  0  0
   -2.5981    3.7500    0.0000 C   0  0  0  0  0  0  0  0  0  0  0  0
   -1.2990    4.5000    0.0000 C   0  0  0  0  0  0  0  0  0  0  0  0
    0.0000    3.7500    0.0000 C   0  0  0  0  0  0  0  0  0  0  0  0
    1.2990    4.5000    0.0000 C   0  0  0  0  0  0  0  0  0  0  0  0
    2.5981    3.7500    0.0000 O   0  0  0  0  0  0  0  0  0  0  0  0
  2  1  1  0
  3  2  1  0
  4  3  1  0
  5  4  1  0
  6  5  1  0
  7  6  1  0
  8  7  1  0
M  END
>  <NAME>  (3329) 
HEPTANOL

>  <SYNONYMS>  (3329) 


>  <SPECTRUM TYPE>  (3329) 
MS1

>  <INSTRUMENT TYPE>  (3329) 
EI-B

>  <INSTRUMENT>  (3329) 
HITACHI M-80B

>  <ION MODE>  (3329) 
P

>  <INCHIKEY>  (3329) 
BBMCTIGTTCKYKF-UHFFFAOYSA-N

>  <FORMULA>  (3329) 
C7H16O

>  <EXACT MASS>  (3329) 
116.120115132

>  <MW>  (3329) 
116

>  <ID>  (3329) 
JP006853

>  <CONTRIBUTOR>  (3329) 
University of Tokyo Team, {Faculty of Engineering, University of Tokyo

>  <COMMENT>  (3329) 
SMILES=CCCCCCCO
InChI=InChI=1S/C7H16O/c1-2-3-4-5-6-7-8/h8H,2-7H2,1H3
computed SMILES=OCCCCCCC
accession=JP006853
date=2016.01.19 (Created 2008.10.21, modified 2011.05.06)
author=TAJIMA S, GUNMA COLLEGE OF TECHNOLOGY
license=CC BY-NC-SA
exact mass=116.12012
ionization energy=70 eV
ion type=[M]+*
computed spectral entropy=2.671028871446701
computed normalized entropy=0.8015801140927755
SPLASH=splash10-0596-9000000000-9bf66315002a7c811643
submitter=submitter = University of Tokyo Team (Faculty of Engineering, University of Tokyo)
MoNA Rating=3.75

>  <NUM PEAKS>  (3329) 
28

>  <MASS SPECTRAL PEAKS>  (3329) 
15 1.4
26 1.94
27 33.32
28 7.3
29 34.61
30 1.05
31 40.83
39 19.99
40 1.21
41 79.91
42 48.85
43 70.52
44 3.94
45 3.39
51 1.13
53 3.85
54 4.09
55 72.5
56 93.66
57 23.64
67 2.05
68 14.05
69 49.82
70 99.99
71 4.52
73 1.96
83 5.19
98 3.23

>  <PREDICTED SPECTRUM>  (3329) 
14 18
15 38
16 8
19 26
25 9
26 97
27 408
28 176
29 472
30 108
31 351
32 37
33 4
37 41
38 112
39 510
40 219
41 939
42 650
43 816
44 336
45 301
46 66
47 39
49 15
50 128
51 182
52 69
53 295
54 337
55 999
56 982
57 658
58 113
59 76
60 16
61 29
65 29
66 13
67 294
68 380
69 689
70 743
71 342
72 115
73 160
74 29
81 199
82 75
83 503
84 67
85 45
87 103
88 33
97 147
98 200
99 36

$$$$

     RDKit          2D

  8  7  0  0  0  0  0  0  0  0999 V2000
   -6.4952    4.5000    0.0000 C   0  0  0  0  0  0  0  0  0  0  0  0
   -5.1962    3.7500    0.0000 C   0  0  0  0  0  0  0  0  0  0  0  0
   -3.8971    4.5000    0.0000 C   0  0  0  0  0  0  0  0  0  0  0  0
   -2.5981    3.7500    0.0000 C   0  0  0  0  0  0  0  0  0  0  0  0
   -1.2990    4.5000    0.0000 C   0  0  0  0  0  0  0  0  0  0  0  0
    0.0000    3.7500    0.0000 C   0  0  0  0  0  0  0  0  0  0  0  0
    1.2990    4.5000    0.0000 C   0  0  0  0  0  0  0  0  0  0  0  0
    2.5981    3.7500    0.0000 O   0  0  0  0  0  0  0  0  0  0  0  0
  2  1  1  0
  3  2  1  0
  4  3  1  0
  5  4  1  0
  5  6  2  0
  7  6  1  0
  8  7  1  0
M  END
>  <NAME>  (3330) 
2-HEPTENOL

>  <SYNONYMS>  (3330) 


>  <SPECTRUM TYPE>  (3330) 
MS1

>  <INSTRUMENT TYPE>  (3330) 
EI-B

>  <INSTRUMENT>  (3330) 
HITACHI M-80B

>  <ION MODE>  (3330) 
P

>  <INCHIKEY>  (3330) 
ASFYPVGAALGVNR-AATRIKPKSA-N

>  <FORMULA>  (3330) 
C7H14O

>  <EXACT MASS>  (3330) 
114.104465068

>  <MW>  (3330) 
114

>  <ID>  (3330) 
JP006851

>  <CONTRIBUTOR>  (3330) 
University of Tokyo Team, {Faculty of Engineering, University of Tokyo

>  <COMMENT>  (3330) 
SMILES=CCCCC=CCO
InChI=InChI=1S/C7H14O/c1-2-3-4-5-6-7-8/h5-6,8H,2-4,7H2,1H3/b6-5+
computed SMILES=OCC=CCCCC
accession=JP006851
date=2016.01.19 (Created 2008.10.21, modified 2011.05.06)
author=TAJIMA S, GUNMA COLLEGE OF TECHNOLOGY
license=CC BY-NC-SA
exact mass=114.10447
ionization energy=70 eV
ion type=[M]+*
computed spectral entropy=2.9712958479888627
computed normalized entropy=0.8110402212360409
SPLASH=splash10-0a4l-9000000000-71d2b6bb02ec727ce33e
submitter=submitter = University of Tokyo Team (Faculty of Engineering, University of Tokyo)
MoNA Rating=3.75

>  <NUM PEAKS>  (3330) 
39

>  <MASS SPECTRAL PEAKS>  (3330) 
15 1.59
26 1.98
27 32.69
28 2.32
29 28.3
30 1.17
31 12.54
38 1.45
39 24.44
40 3.06
41 49.2
42 18.06
43 26.09
44 18.41
45 3.22
50 1.14
51 2.27
52 1.22
53 5.48
54 14.91
55 31.53
56 7.21
57 99.99
58 6.28
65 1.21
67 7.98
68 15.39
69 3.94
70 8.88
71 10.64
72 3.84
81 17.12
82 1.2
83 1.41
85 2.56
86 1.62
96 9.32
114 1.85
115 1.21

>  <PREDICTED SPECTRUM>  (3330) 
14 35
15 104
16 17
17 8
18 47
19 15
25 13
26 148
27 548
28 252
29 550
30 168
31 348
32 49
37 89
38 173
39 747
40 309
41 999
42 510
43 582
44 263
45 61
49 48
50 175
51 293
52 234
53 509
54 658
55 788
56 503
57 851
58 284
59 58
60 34
61 24
62 68
63 154
64 48
65 218
66 285
67 737
68 522
69 265
70 343
71 443
72 126
73 66
77 311
78 168
79 163
80 26
81 644
82 201
83 140
84 2
85 185
86 63
95 175
96 495
97 43
99 61

$$$$

     RDKit          2D

  7  6  0  0  0  0  0  0  0  0999 V2000
    1.2990    2.2500    0.0000 C   0  0  0  0  0  0  0  0  0  0  0  0
   -3.8971    2.2500    0.0000 C   0  0  0  0  0  0  0  0  0  0  0  0
    0.0000    3.0000    0.0000 C   0  0  0  0  0  0  0  0  0  0  0  0
   -2.5981    3.0000    0.0000 C   0  0  0  0  0  0  0  0  0  0  0  0
   -1.2990    0.7500    0.0000 C   0  0  0  0  0  0  0  0  0  0  0  0
   -1.2990    2.2500    0.0000 C   0  0  0  0  0  0  0  0  0  0  0  0
   -0.0000    0.0000    0.0000 O   0  0  0  0  0  0  0  0  0  0  0  0
  3  1  1  0
  4  2  1  0
  6  3  1  0
  6  4  1  0
  6  5  1  0
  7  5  1  0
M  END
>  <NAME>  (3331) 
2-ETHYLBUTANOL

>  <SYNONYMS>  (3331) 


>  <SPECTRUM TYPE>  (3331) 
MS1

>  <INSTRUMENT TYPE>  (3331) 
EI-B

>  <INSTRUMENT>  (3331) 
HITACHI M-80B

>  <ION MODE>  (3331) 
P

>  <INCHIKEY>  (3331) 
TZYRSLHNPKPEFV-UHFFFAOYSA-N

>  <FORMULA>  (3331) 
C6H14O

>  <EXACT MASS>  (3331) 
102.104465068

>  <MW>  (3331) 
102

>  <ID>  (3331) 
JP006850

>  <CONTRIBUTOR>  (3331) 
University of Tokyo Team, {Faculty of Engineering, University of Tokyo

>  <COMMENT>  (3331) 
SMILES=CCC(CC)CO
InChI=InChI=1S/C6H14O/c1-3-6(4-2)5-7/h6-7H,3-5H2,1-2H3
computed SMILES=OCC(CC)CC
accession=JP006850
date=2016.01.19 (Created 2008.10.21, modified 2011.05.06)
author=TAJIMA S, GUNMA COLLEGE OF TECHNOLOGY
license=CC BY-NC-SA
exact mass=102.10447
ionization energy=70 eV
ion type=[M]+*
computed spectral entropy=2.511292530777747
computed normalized entropy=0.8009239876826144
SPLASH=splash10-006x-9000000000-af0e2670bbe080074792
submitter=submitter = University of Tokyo Team (Faculty of Engineering, University of Tokyo)
MoNA Rating=3.75

>  <NUM PEAKS>  (3331) 
23

>  <MASS SPECTRAL PEAKS>  (3331) 
15 1.13
26 1.28
27 19.35
28 1.22
29 22.94
31 17.76
39 12.9
40 1.31
41 27.62
42 11.53
43 99.99
44 3.84
45 2.33
53 2.56
54 1.17
55 32.46
56 12.75
57 4.63
69 9.89
70 42.88
71 35.62
72 1.91
84 12.18

>  <PREDICTED SPECTRUM>  (3331) 
14 45
15 78
16 20
17 18
18 44
19 30
25 22
26 166
27 606
28 291
29 625
30 84
31 478
32 104
33 3
35 32
36 34
37 87
38 171
39 628
40 227
41 921
42 462
43 999
44 246
45 59
46 32
47 55
49 46
50 138
51 168
52 49
53 273
54 152
55 822
56 624
57 737
58 150
59 227
65 152
66 17
68 7
69 502
70 607
71 461
72 201
73 196
74 41
83 122
84 279
85 161

$$$$

     RDKit          2D

  7  6  0  0  0  0  0  0  0  0999 V2000
    1.9486    2.6250    0.0000 C   0  0  0  0  0  0  0  0  0  0  0  0
   -4.5466    3.3750    0.0000 C   0  0  0  0  0  0  0  0  0  0  0  0
    0.6495    3.3750    0.0000 C   0  0  0  0  0  0  0  0  0  0  0  0
   -3.2476    2.6250    0.0000 C   0  0  0  0  0  0  0  0  0  0  0  0
   -0.6495    2.6250    0.0000 C   0  0  0  0  0  0  0  0  0  0  0  0
   -1.9486    3.3750    0.0000 C   0  0  0  0  0  0  0  0  0  0  0  0
   -1.9486    4.8750    0.0000 O   0  0  0  0  0  0  0  0  0  0  0  0
  3  1  1  0
  4  2  1  0
  5  3  1  0
  6  4  1  0
  6  5  1  0
  7  6  1  0
M  END
>  <NAME>  (3332) 
3-HEXANOL

>  <SYNONYMS>  (3332) 


>  <SPECTRUM TYPE>  (3332) 
MS1

>  <INSTRUMENT TYPE>  (3332) 
EI-B

>  <INSTRUMENT>  (3332) 
HITACHI M-80B

>  <ION MODE>  (3332) 
P

>  <INCHIKEY>  (3332) 
ZOCHHNOQQHDWHG-UHFFFAOYSA-N

>  <FORMULA>  (3332) 
C6H14O

>  <EXACT MASS>  (3332) 
102.104465068

>  <MW>  (3332) 
102

>  <ID>  (3332) 
JP006849

>  <CONTRIBUTOR>  (3332) 
University of Tokyo Team, {Faculty of Engineering, University of Tokyo

>  <COMMENT>  (3332) 
SMILES=CCCC(O)CC
InChI=InChI=1S/C6H14O/c1-3-5-6(7)4-2/h6-7H,3-5H2,1-2H3
computed SMILES=OC(CC)CCC
accession=JP006849
date=2016.01.19 (Created 2008.10.21, modified 2011.05.06)
author=TAJIMA S, GUNMA COLLEGE OF TECHNOLOGY
license=CC BY-NC-SA
exact mass=102.10447
ionization energy=70 eV
ion type=[M]+*
computed spectral entropy=2.47346032154774
computed normalized entropy=0.7684236535123308
SPLASH=splash10-0a4i-9000000000-fd2c0700401040f6c65c
submitter=submitter = University of Tokyo Team (Faculty of Engineering, University of Tokyo)
MoNA Rating=3.75

>  <NUM PEAKS>  (3332) 
25

>  <MASS SPECTRAL PEAKS>  (3332) 
15 2.02
26 1.84
27 21.56
28 3.08
29 19.57
30 1.16
31 39.68
39 10.27
40 1.07
41 23.88
42 4.21
43 32.14
44 6.14
45 5.72
53 1.49
55 77.13
56 5.2
57 9.25
58 7.93
59 99.99
60 3.48
69 1.39
72 4.41
73 44.91
74 1.62

>  <PREDICTED SPECTRUM>  (3332) 
14 55
15 129
16 11
17 3
18 53
19 70
25 17
26 150
27 605
28 280
29 726
30 232
31 616
32 92
33 41
37 43
38 129
39 543
40 204
41 840
42 331
43 872
44 155
45 222
47 13
50 37
51 88
53 226
54 44
55 820
56 382
57 545
58 165
59 999
60 36
65 9
67 101
69 143
72 78
73 654
74 74
84 182
87 19

$$$$

     RDKit          2D

  7  6  0  0  0  0  0  0  0  0999 V2000
    1.6238    3.1875    0.0000 C   0  0  0  0  0  0  0  0  0  0  0  0
   -4.8714    3.9375    0.0000 C   0  0  0  0  0  0  0  0  0  0  0  0
    0.3248    3.9375    0.0000 C   0  0  0  0  0  0  0  0  0  0  0  0
   -0.9743    3.1875    0.0000 C   0  0  0  0  0  0  0  0  0  0  0  0
   -2.2733    3.9375    0.0000 C   0  0  0  0  0  0  0  0  0  0  0  0
   -3.5724    3.1875    0.0000 C   0  0  0  0  0  0  0  0  0  0  0  0
   -3.5724    1.6875    0.0000 O   0  0  0  0  0  0  0  0  0  0  0  0
  3  1  1  0
  4  3  1  0
  5  4  1  0
  6  2  1  0
  6  5  1  0
  7  6  1  0
M  END
>  <NAME>  (3333) 
2-HEXANOL

>  <SYNONYMS>  (3333) 


>  <SPECTRUM TYPE>  (3333) 
MS1

>  <INSTRUMENT TYPE>  (3333) 
EI-B

>  <INSTRUMENT>  (3333) 
HITACHI M-80B

>  <ION MODE>  (3333) 
P

>  <INCHIKEY>  (3333) 
QNVRIHYSUZMSGM-UHFFFAOYSA-N

>  <FORMULA>  (3333) 
C6H14O

>  <EXACT MASS>  (3333) 
102.104465068

>  <MW>  (3333) 
102

>  <ID>  (3333) 
JP006848

>  <CONTRIBUTOR>  (3333) 
University of Tokyo Team, {Faculty of Engineering, University of Tokyo

>  <COMMENT>  (3333) 
SMILES=CCCCC(C)O
InChI=InChI=1S/C6H14O/c1-3-4-5-6(2)7/h6-7H,3-5H2,1-2H3
computed SMILES=OC(C)CCCC
accession=JP006848
date=2016.01.19 (Created 2008.10.21, modified 2011.05.06)
author=TAJIMA S, GUNMA COLLEGE OF TECHNOLOGY
license=CC BY-NC-SA
exact mass=102.10447
ionization energy=70 eV
ion type=[M]+*
computed spectral entropy=1.9991110742888325
computed normalized entropy=0.6916449653327431
SPLASH=splash10-0002-9000000000-13cf4a6ddf1472a5e7af
submitter=submitter = University of Tokyo Team (Faculty of Engineering, University of Tokyo)
MoNA Rating=3.75

>  <NUM PEAKS>  (3333) 
18

>  <MASS SPECTRAL PEAKS>  (3333) 
15 1.29
27 9.42
28 1.67
29 7.79
31 2.55
39 5.21
41 13.58
42 3.08
43 11.41
44 7.01
45 99.99
46 2.46
55 3.63
56 3.18
57 3.07
69 15.68
84 3.74
87 5.88

>  <PREDICTED SPECTRUM>  (3333) 
14 40
15 86
16 13
18 15
19 69
25 3
26 58
27 240
28 130
29 300
31 162
32 29
38 27
39 216
40 62
41 410
42 183
43 403
44 205
45 999
46 171
50 4
51 9
53 46
55 140
56 303
57 283
58 235
69 247
70 35
85 46
87 173

$$$$

     RDKit          2D

  7  6  0  0  0  0  0  0  0  0999 V2000
    1.9486    3.3750    0.0000 C   0  0  0  0  0  0  0  0  0  0  0  0
    0.6495    4.1250    0.0000 C   0  0  0  0  0  0  0  0  0  0  0  0
   -0.6495    3.3750    0.0000 C   0  0  0  0  0  0  0  0  0  0  0  0
   -1.9486    4.1250    0.0000 C   0  0  0  0  0  0  0  0  0  0  0  0
   -3.2476    3.3750    0.0000 C   0  0  0  0  0  0  0  0  0  0  0  0
   -4.5466    4.1250    0.0000 C   0  0  0  0  0  0  0  0  0  0  0  0
   -5.8457    3.3750    0.0000 O   0  0  0  0  0  0  0  0  0  0  0  0
  2  1  1  0
  3  2  1  0
  3  4  2  0
  5  4  1  0
  6  5  1  0
  7  6  1  0
M  END
>  <NAME>  (3334) 
TRANS-3-HEXENOL

>  <SYNONYMS>  (3334) 


>  <SPECTRUM TYPE>  (3334) 
MS1

>  <INSTRUMENT TYPE>  (3334) 
EI-B

>  <INSTRUMENT>  (3334) 
HITACHI M-80B

>  <ION MODE>  (3334) 
P

>  <INCHIKEY>  (3334) 
UFLHIIWVXFIJGU-ONEGZZNKSA-N

>  <FORMULA>  (3334) 
C6H12O

>  <EXACT MASS>  (3334) 
100.088815004

>  <MW>  (3334) 
100

>  <ID>  (3334) 
JP006847

>  <CONTRIBUTOR>  (3334) 
University of Tokyo Team, {Faculty of Engineering, University of Tokyo

>  <COMMENT>  (3334) 
SMILES=CCC=CCCO
InChI=InChI=1S/C6H12O/c1-2-3-4-5-6-7/h3-4,7H,2,5-6H2,1H3/b4-3+
computed SMILES=OCCC=CCC
accession=JP006847
date=2016.01.19 (Created 2008.10.21, modified 2011.05.06)
author=TAJIMA S, GUNMA COLLEGE OF TECHNOLOGY
license=CC BY-NC-SA
exact mass=100.08882
ionization energy=70 eV
ion type=[M]+*
computed spectral entropy=2.8497312577212517
computed normalized entropy=0.8015336919017253
SPLASH=splash10-00kf-9000000000-5205dfcd839a24c16b1e
submitter=submitter = University of Tokyo Team (Faculty of Engineering, University of Tokyo)
MoNA Rating=3.75

>  <NUM PEAKS>  (3334) 
35

>  <MASS SPECTRAL PEAKS>  (3334) 
15 2.27
26 2.36
27 22.24
29 13.31
30 1.19
31 26.3
38 2.7
39 29.88
40 3.88
41 99.99
42 21.27
43 8.98
44 6.71
45 2.11
50 2.2
51 3.37
52 1.32
53 9.29
54 8.41
55 34.95
56 4.67
57 10.83
65 1.97
66 1.17
67 50.38
68 5.11
69 38.26
70 11.03
71 1.78
72 2.66
79 1.09
81 3.32
82 33.56
83 3.08
100 2.06

>  <PREDICTED SPECTRUM>  (3334) 
14 13
15 56
16 1
17 2
18 33
19 22
25 2
26 142
27 477
28 201
29 429
30 117
31 370
32 49
33 4
37 84
38 174
39 706
40 313
41 999
42 499
43 427
44 230
45 189
49 19
50 183
51 245
52 201
53 490
54 517
55 754
56 564
57 395
58 227
59 49
61 4
62 62
63 113
65 164
66 112
67 823
68 625
69 515
70 285
71 290
72 110
79 152
80 17
81 334
82 430
83 92
85 124
100 63
101 8

$$$$

     RDKit          2D

  7  6  0  0  0  0  0  0  0  0999 V2000
    1.9486    3.3750    0.0000 C   0  0  0  0  0  0  0  0  0  0  0  0
    0.6495    4.1250    0.0000 C   0  0  0  0  0  0  0  0  0  0  0  0
   -0.6495    3.3750    0.0000 C   0  0  0  0  0  0  0  0  0  0  0  0
   -1.9486    4.1250    0.0000 C   0  0  0  0  0  0  0  0  0  0  0  0
   -3.2476    3.3750    0.0000 C   0  0  0  0  0  0  0  0  0  0  0  0
   -4.5466    4.1250    0.0000 C   0  0  0  0  0  0  0  0  0  0  0  0
   -5.8457    3.3750    0.0000 O   0  0  0  0  0  0  0  0  0  0  0  0
  2  1  1  0
  3  2  1  0
  4  3  1  0
  4  5  2  0
  6  5  1  0
  7  6  1  0
M  END
>  <NAME>  (3335) 
TRANS-2-HEXENOL

>  <SYNONYMS>  (3335) 


>  <SPECTRUM TYPE>  (3335) 
MS1

>  <INSTRUMENT TYPE>  (3335) 
EI-B

>  <INSTRUMENT>  (3335) 
HITACHI M-80B

>  <ION MODE>  (3335) 
P

>  <INCHIKEY>  (3335) 
ZCHHRLHTBGRGOT-SNAWJCMRSA-N

>  <FORMULA>  (3335) 
C6H12O

>  <EXACT MASS>  (3335) 
100.088815004

>  <MW>  (3335) 
100

>  <ID>  (3335) 
JP006845

>  <CONTRIBUTOR>  (3335) 
University of Tokyo Team, {Faculty of Engineering, University of Tokyo

>  <COMMENT>  (3335) 
SMILES=CCCC=CCO
InChI=InChI=1S/C6H12O/c1-2-3-4-5-6-7/h4-5,7H,2-3,6H2,1H3/b5-4+
computed SMILES=OCC=CCCC
accession=JP006845
date=2016.01.19 (Created 2008.10.21, modified 2011.05.06)
author=TAJIMA S, GUNMA COLLEGE OF TECHNOLOGY
license=CC BY-NC-SA
exact mass=100.08882
ionization energy=70 eV
ion type=[M]+*
computed spectral entropy=2.817148916955285
computed normalized entropy=0.792369373752712
SPLASH=splash10-0a4l-9000000000-0339132bed8a2355e193
submitter=submitter = University of Tokyo Team (Faculty of Engineering, University of Tokyo)
MoNA Rating=3.75

>  <NUM PEAKS>  (3335) 
35

>  <MASS SPECTRAL PEAKS>  (3335) 
15 1.6
26 2.11
27 24.49
28 2.1
29 23.4
30 1.18
31 10.84
38 1.75
39 19.32
40 2.88
41 43.6
42 7.82
43 18.93
44 17.69
45 3.55
50 1.49
51 2.4
52 1.12
53 6.3
54 5.3
55 10.65
56 9.79
57 99.99
58 6.4
59 1.25
67 14.35
68 1.17
69 4.8
70 1.54
71 9.85
72 4.92
81 1.17
82 18.41
83 1.91
100 1.96

>  <PREDICTED SPECTRUM>  (3335) 
14 12
15 37
18 5
19 5
25 16
26 146
27 483
28 175
29 430
30 127
31 310
32 23
35 3
37 99
38 183
39 704
40 315
41 999
42 543
43 539
44 307
45 172
46 40
49 74
50 226
51 308
52 248
53 469
54 633
55 799
56 522
57 806
58 314
59 131
60 48
61 105
62 101
63 191
64 63
65 262
66 185
67 855
68 324
69 218
70 126
71 370
72 144
73 11
76 11
77 33
78 3
79 163
80 69
81 351
82 461
83 193
85 142
98 8
99 14
100 26
101 8

$$$$

     RDKit          2D

  6  5  0  0  0  0  0  0  0  0999 V2000
    0.0000    0.0000    0.0000 C   0  0  0  0  0  0  0  0  0  0  0  0
    1.2990    2.2500    0.0000 C   0  0  0  0  0  0  0  0  0  0  0  0
   -1.2990    2.2500    0.0000 C   0  0  0  0  0  0  0  0  0  0  0  0
   -1.2990    3.7500    0.0000 C   0  0  0  0  0  0  0  0  0  0  0  0
    0.0000    1.5000    0.0000 C   0  0  0  0  0  0  0  0  0  0  0  0
   -2.5981    4.5000    0.0000 O   0  0  0  0  0  0  0  0  0  0  0  0
  4  3  1  0
  5  1  1  0
  5  2  1  0
  5  3  1  0
  6  4  1  0
M  END
>  <NAME>  (3336) 
ISOAMYL ALCOHOL

>  <SYNONYMS>  (3336) 
3-METHYLBUTANOL

>  <SPECTRUM TYPE>  (3336) 
MS1

>  <INSTRUMENT TYPE>  (3336) 
EI-B

>  <INSTRUMENT>  (3336) 
HITACHI M-80B

>  <ION MODE>  (3336) 
P

>  <INCHIKEY>  (3336) 
PHTQWCKDNZKARW-UHFFFAOYSA-N

>  <FORMULA>  (3336) 
C5H12O

>  <EXACT MASS>  (3336) 
88.088815004

>  <MW>  (3336) 
88

>  <ID>  (3336) 
JP006844

>  <CONTRIBUTOR>  (3336) 
University of Tokyo Team, {Faculty of Engineering, University of Tokyo

>  <COMMENT>  (3336) 
SMILES=OCCC(C)C
InChI=InChI=1S/C5H12O/c1-5(2)3-4-6/h5-6H,3-4H2,1-2H3
computed SMILES=OCCC(C)C
accession=JP006844
date=2016.01.19 (Created 2008.10.21, modified 2011.05.06)
author=TAJIMA S, GUNMA COLLEGE OF TECHNOLOGY
license=CC BY-NC-SA
exact mass=88.08882
ionization energy=70 eV
ion type=[M]+*
computed spectral entropy=2.7297078148752374
computed normalized entropy=0.8025725968133132
SPLASH=splash10-052f-9000000000-bf852ef18965656b4e96
submitter=submitter = University of Tokyo Team (Faculty of Engineering, University of Tokyo)
MoNA Rating=3.75

>  <NUM PEAKS>  (3336) 
30

>  <MASS SPECTRAL PEAKS>  (3336) 
15 5.11
19 2.09
26 2.98
27 35.11
28 10.43
29 49.36
30 1.65
31 47.77
38 2.78
39 34.1
40 5.06
41 84.01
42 77.04
43 65.91
44 5.69
45 17.79
46 6.82
47 1.18
50 1.51
51 1.88
53 4.28
54 1.58
55 99.99
56 32.35
57 47.55
58 2.29
59 1.45
69 5.63
70 75.07
71 5.88

>  <PREDICTED SPECTRUM>  (3336) 
14 50
15 104
16 3
18 10
19 82
25 0
26 104
27 452
28 229
29 478
30 125
31 426
32 52
37 51
38 117
39 507
40 186
41 913
42 650
43 999
44 652
45 811
46 126
47 9
50 137
51 194
52 42
53 272
54 118
55 896
56 655
57 435
58 184
59 19
67 57
69 260
70 508
71 240
72 22
73 155
77 34
88 16

$$$$

     RDKit          2D

 14 14  0  0  0  0  0  0  0  0999 V2000
   -6.8197    3.1321    0.0000 C   0  0  0  0  0  0  0  0  0  0  0  0
   -4.2216    1.6321    0.0000 C   0  0  0  0  0  0  0  0  0  0  0  0
   -5.5207    3.8821    0.0000 C   0  0  0  0  0  0  0  0  0  0  0  0
    3.5726    1.6321    0.0000 C   0  0  0  0  0  0  0  0  0  0  0  0
    3.5731    3.1329    0.0000 C   0  0  0  0  0  0  0  0  0  0  0  0
    2.2731    0.8813    0.0000 C   0  0  0  0  0  0  0  0  0  0  0  0
    2.2740    3.8829    0.0000 C   0  0  0  0  0  0  0  0  0  0  0  0
    0.9740    1.6313    0.0000 C   0  0  0  0  0  0  0  0  0  0  0  0
   -0.3245    3.8821    0.0000 C   0  0  0  0  0  0  0  0  0  0  0  0
   -4.2216    3.1321    0.0000 C   0  0  0  0  0  0  0  0  0  0  0  0
    0.9745    3.1321    0.0000 C   0  0  0  0  0  0  0  0  0  0  0  0
   -2.9226    3.8821    0.0000 C   0  0  0  0  0  0  0  0  0  0  0  0
   -2.9226    5.3821    0.0000 O   0  0  0  0  0  0  0  0  0  0  0  0
   -1.6236    3.1321    0.0000 O   0  0  0  0  0  0  0  0  0  0  0  0
  3  1  1  0
  5  4  2  0
  6  4  1  0
  7  5  1  0
  8  6  2  0
 10  2  1  0
  3 10  2  0
 11  7  2  0
 11  8  1  0
 11  9  1  0
 12 10  1  0
 13 12  2  0
 14  9  1  0
 14 12  1  0
M  END
>  <NAME>  (3337) 
BENZYL TIGLATE

>  <SYNONYMS>  (3337) 
BENZYL 2-METHYL-2-BUTENOATE

>  <SPECTRUM TYPE>  (3337) 
MS1

>  <INSTRUMENT TYPE>  (3337) 
EI-B

>  <INSTRUMENT>  (3337) 
HITACHI M-80B

>  <ION MODE>  (3337) 
P

>  <INCHIKEY>  (3337) 
QRGSTISKDZCDHV-XCVCLJGOSA-N

>  <FORMULA>  (3337) 
C12H14O2

>  <EXACT MASS>  (3337) 
190.099379688

>  <MW>  (3337) 
190

>  <ID>  (3337) 
JP006843

>  <CONTRIBUTOR>  (3337) 
University of Tokyo Team, {Faculty of Engineering, University of Tokyo

>  <COMMENT>  (3337) 
SMILES=CC=C(C)C(=O)OCc(c1)cccc1
InChI=InChI=1S/C12H14O2/c1-3-10(2)12(13)14-9-11-7-5-4-6-8-11/h3-8H,9H2,1-2H3/b10-3+
computed SMILES=O=C(OCC=1C=CC=CC1)C(=CC)C
accession=JP006843
date=2016.01.19 (Created 2008.10.21, modified 2011.05.06)
author=TAJIMA S, GUNMA COLLEGE OF TECHNOLOGY
license=CC BY-NC-SA
exact mass=190.09938
ionization energy=70 eV
ion type=[M]+*
computed spectral entropy=2.869536961929723
computed normalized entropy=0.7727161100919088
SPLASH=splash10-000x-9100000000-3d3ab2aee6e33e3a2795
submitter=submitter = University of Tokyo Team (Faculty of Engineering, University of Tokyo)
MoNA Rating=3.75

>  <NUM PEAKS>  (3337) 
41

>  <MASS SPECTRAL PEAKS>  (3337) 
27 10.02
29 9.27
38 1.25
39 15.2
41 2.25
43 1.38
50 3.31
51 8.88
52 2.37
53 6.02
54 2.52
55 35.12
56 2.37
63 4.43
64 1.16
65 16.68
69 1.12
77 10.25
78 1.9
79 6.82
83 55.57
84 5.8
89 4.98
90 5.91
91 99.99
92 8.68
105 2.89
106 1.47
107 8.38
108 1.35
117 1.22
129 2.74
131 1.57
144 1.42
145 21.71
146 2.19
147 1.34
157 1.17
172 14.69
173 1.86
190 7.62

>  <PREDICTED SPECTRUM>  (3337) 
26 55
27 164
28 30
29 146
37 4
38 63
39 235
40 74
41 118
42 87
43 231
44 82
49 42
50 184
51 284
52 193
53 259
54 247
55 729
56 249
57 56
62 72
63 214
64 95
65 343
66 59
71 15
75 78
76 56
77 286
78 167
79 138
80 25
81 35
82 127
83 999
84 256
89 166
90 176
91 913
92 294
93 26
100 58
101 40
102 47
104 68
105 144
106 3
107 181
108 192
109 5
115 81
145 123
146 90
190 356
191 106

$$$$

     RDKit          2D

 13 12  0  0  0  0  0  0  0  0999 V2000
   -9.7428    5.6250    0.0000 C   0  0  0  0  0  0  0  0  0  0  0  0
    3.2476    5.6250    0.0000 C   0  0  0  0  0  0  0  0  0  0  0  0
    0.6495    7.1250    0.0000 C   0  0  0  0  0  0  0  0  0  0  0  0
   -8.4437    4.8750    0.0000 C   0  0  0  0  0  0  0  0  0  0  0  0
    1.9486    4.8750    0.0000 C   0  0  0  0  0  0  0  0  0  0  0  0
   -7.1447    5.6250    0.0000 C   0  0  0  0  0  0  0  0  0  0  0  0
   -5.8457    4.8750    0.0000 C   0  0  0  0  0  0  0  0  0  0  0  0
   -4.5466    5.6250    0.0000 C   0  0  0  0  0  0  0  0  0  0  0  0
   -3.2476    4.8750    0.0000 C   0  0  0  0  0  0  0  0  0  0  0  0
    0.6495    5.6250    0.0000 C   0  0  0  0  0  0  0  0  0  0  0  0
   -0.6495    4.8750    0.0000 C   0  0  0  0  0  0  0  0  0  0  0  0
   -0.6495    3.3750    0.0000 O   0  0  0  0  0  0  0  0  0  0  0  0
   -1.9486    5.6250    0.0000 O   0  0  0  0  0  0  0  0  0  0  0  0
  4  1  1  0
  5  2  1  0
  6  4  1  0
  7  6  1  0
  8  7  1  0
  9  8  1  0
 10  3  1  0
  5 10  2  0
 11 10  1  0
 12 11  2  0
 13  9  1  0
 13 11  1  0
M  END
>  <NAME>  (3338) 
HEXYL TIGLATE

>  <SYNONYMS>  (3338) 
HEXYL 2-METHYL-2-BUTENOATE

>  <SPECTRUM TYPE>  (3338) 
MS1

>  <INSTRUMENT TYPE>  (3338) 
EI-B

>  <INSTRUMENT>  (3338) 
HITACHI M-80B

>  <ION MODE>  (3338) 
P

>  <INCHIKEY>  (3338) 
JTCIUOKKVACNCK-BJMVGYQFSA-N

>  <FORMULA>  (3338) 
C11H20O2

>  <EXACT MASS>  (3338) 
184.14632988

>  <MW>  (3338) 
184

>  <ID>  (3338) 
JP006842

>  <CONTRIBUTOR>  (3338) 
University of Tokyo Team, {Faculty of Engineering, University of Tokyo

>  <COMMENT>  (3338) 
SMILES=CCCCCCOC(=O)C(C)=CC
InChI=InChI=1S/C11H20O2/c1-4-6-7-8-9-13-11(12)10(3)5-2/h5H,4,6-9H2,1-3H3/b10-5+
computed SMILES=O=C(OCCCCCC)C(=CC)C
accession=JP006842
date=2016.01.19 (Created 2008.10.21, modified 2011.05.06)
author=TAJIMA S, GUNMA COLLEGE OF TECHNOLOGY
license=CC BY-NC-SA
exact mass=184.14633
ionization energy=70 eV
ion type=[M]+*
computed spectral entropy=2.601406090187651
computed normalized entropy=0.7984435267124975
SPLASH=splash10-0zgl-9200000000-758b3aef8fc0347ecb30
submitter=submitter = University of Tokyo Team (Faculty of Engineering, University of Tokyo)
MoNA Rating=3.75

>  <NUM PEAKS>  (3338) 
26

>  <MASS SPECTRAL PEAKS>  (3338) 
26 1.14
27 25.09
29 32.25
39 18.64
41 26.04
42 13.2
43 33.89
45 1.88
51 1.77
52 1.17
53 10.16
54 8.94
55 82.22
56 28.75
57 4.76
69 9.21
73 1.34
82 4.64
83 78.46
84 12.59
85 4.63
99 1.32
100 16.25
101 99.99
102 4.66
111 1.79

>  <PREDICTED SPECTRUM>  (3338) 
26 33
27 157
28 78
29 198
38 19
39 127
40 67
41 455
42 298
43 483
44 117
45 38
50 28
51 95
52 122
53 272
54 303
55 744
56 428
57 325
58 31
67 95
68 84
69 316
70 221
71 95
73 35
79 10
81 56
82 249
83 829
84 399
85 230
86 6
98 31
99 22
100 606
101 999
102 298
103 26
184 180
185 59

$$$$

     RDKit          2D

 12 11  0  0  0  0  0  0  0  0999 V2000
    2.5981    4.5000    0.0000 C   0  0  0  0  0  0  0  0  0  0  0  0
   -7.7942    4.5000    0.0000 C   0  0  0  0  0  0  0  0  0  0  0  0
   -6.4952    6.7500    0.0000 C   0  0  0  0  0  0  0  0  0  0  0  0
    0.0000    3.0000    0.0000 C   0  0  0  0  0  0  0  0  0  0  0  0
    1.2990    5.2500    0.0000 C   0  0  0  0  0  0  0  0  0  0  0  0
   -5.1962    4.5000    0.0000 C   0  0  0  0  0  0  0  0  0  0  0  0
   -3.8971    5.2500    0.0000 C   0  0  0  0  0  0  0  0  0  0  0  0
   -6.4952    5.2500    0.0000 C   0  0  0  0  0  0  0  0  0  0  0  0
    0.0000    4.5000    0.0000 C   0  0  0  0  0  0  0  0  0  0  0  0
   -1.2990    5.2500    0.0000 C   0  0  0  0  0  0  0  0  0  0  0  0
   -1.2990    6.7500    0.0000 O   0  0  0  0  0  0  0  0  0  0  0  0
   -2.5981    4.5000    0.0000 O   0  0  0  0  0  0  0  0  0  0  0  0
  5  1  1  0
  7  6  1  0
  8  2  1  0
  8  3  1  0
  8  6  1  0
  9  4  1  0
  5  9  2  0
 10  9  1  0
 11 10  2  0
 12  7  1  0
 12 10  1  0
M  END
>  <NAME>  (3339) 
ISOAMYL TIGLATE

>  <SYNONYMS>  (3339) 
3-METHYLBUTYL 2-METHYL-2-BUTENOATE

>  <SPECTRUM TYPE>  (3339) 
MS1

>  <INSTRUMENT TYPE>  (3339) 
EI-B

>  <INSTRUMENT>  (3339) 
HITACHI M-80B

>  <ION MODE>  (3339) 
P

>  <INCHIKEY>  (3339) 
ZARFDQHJMNVNLE-WEVVVXLNSA-N

>  <FORMULA>  (3339) 
C10H18O2

>  <EXACT MASS>  (3339) 
170.130679816

>  <MW>  (3339) 
170

>  <ID>  (3339) 
JP006841

>  <CONTRIBUTOR>  (3339) 
University of Tokyo Team, {Faculty of Engineering, University of Tokyo

>  <COMMENT>  (3339) 
SMILES=CC=C(C)C(=O)OCCC(C)C
InChI=InChI=1S/C10H18O2/c1-5-9(4)10(11)12-7-6-8(2)3/h5,8H,6-7H2,1-4H3/b9-5+
computed SMILES=O=C(OCCC(C)C)C(=CC)C
computed spectral entropy=2.55711986206294
accession=JP006841
date=2016.01.19 (Created 2008.10.21, modified 2011.05.06)
author=TAJIMA S, GUNMA COLLEGE OF TECHNOLOGY
license=CC BY-NC-SA
exact mass=170.13068
ionization energy=70 eV
ion type=[M]+*
computed normalized entropy=0.76739583487584
SPLASH=splash10-0aec-9000000000-6ea37b1728a055d696db
submitter=submitter = University of Tokyo Team (Faculty of Engineering, University of Tokyo)
MoNA Rating=3.75

>  <NUM PEAKS>  (3339) 
28

>  <MASS SPECTRAL PEAKS>  (3339) 
26 1.3
27 25.61
29 28.36
32 1.6
39 21.48
41 22.09
42 12.23
43 34.42
44 1
45 1.93
51 2.16
52 1.34
53 10.55
54 8.24
55 99.99
56 6.89
57 2.64
69 3.28
70 90.4
71 9.88
82 3.24
83 89.41
84 5.83
85 3.19
99 1.04
100 7.03
101 42.82
102 2.15

>  <PREDICTED SPECTRUM>  (3339) 
26 61
27 250
28 91
29 274
31 29
38 33
39 273
40 94
41 465
42 307
43 613
44 117
45 138
47 14
50 79
51 148
52 121
53 294
54 313
55 968
56 309
57 196
58 49
67 71
68 3
69 171
70 918
71 496
72 127
73 147
74 3
82 259
83 999
84 291
85 186
87 59
98 32
100 549
101 801
102 182
113 125
126 26
127 100
170 39
171 16

$$$$

     RDKit          2D

 11 10  0  0  0  0  0  0  0  0999 V2000
    2.2733    4.3125    0.0000 C   0  0  0  0  0  0  0  0  0  0  0  0
   -6.8200    5.0625    0.0000 C   0  0  0  0  0  0  0  0  0  0  0  0
   -5.5209    2.8125    0.0000 C   0  0  0  0  0  0  0  0  0  0  0  0
   -0.3248    2.8125    0.0000 C   0  0  0  0  0  0  0  0  0  0  0  0
    0.9743    5.0625    0.0000 C   0  0  0  0  0  0  0  0  0  0  0  0
   -4.2219    5.0625    0.0000 C   0  0  0  0  0  0  0  0  0  0  0  0
   -5.5209    4.3125    0.0000 C   0  0  0  0  0  0  0  0  0  0  0  0
   -0.3248    4.3125    0.0000 C   0  0  0  0  0  0  0  0  0  0  0  0
   -1.6238    5.0625    0.0000 C   0  0  0  0  0  0  0  0  0  0  0  0
   -1.6238    6.5625    0.0000 O   0  0  0  0  0  0  0  0  0  0  0  0
   -2.9228    4.3125    0.0000 O   0  0  0  0  0  0  0  0  0  0  0  0
  5  1  1  0
  7  2  1  0
  7  3  1  0
  7  6  1  0
  8  4  1  0
  5  8  2  0
  9  8  1  0
 10  9  2  0
 11  6  1  0
 11  9  1  0
M  END
>  <NAME>  (3340) 
ISOBUTYL TIGLATE

>  <SYNONYMS>  (3340) 
ISOBUTYL 2-METHYL-2-BUTENOATE

>  <SPECTRUM TYPE>  (3340) 
MS1

>  <INSTRUMENT TYPE>  (3340) 
EI-B

>  <INSTRUMENT>  (3340) 
HITACHI M-80B

>  <ION MODE>  (3340) 
P

>  <INCHIKEY>  (3340) 
XDEGQMQKHFPBEW-VMPITWQZSA-N

>  <FORMULA>  (3340) 
C9H16O2

>  <EXACT MASS>  (3340) 
156.115029752

>  <MW>  (3340) 
156

>  <ID>  (3340) 
JP006840

>  <CONTRIBUTOR>  (3340) 
University of Tokyo Team, {Faculty of Engineering, University of Tokyo

>  <COMMENT>  (3340) 
SMILES=CC=C(C)C(=O)OCC(C)C
InChI=InChI=1S/C9H16O2/c1-5-8(4)9(10)11-6-7(2)3/h5,7H,6H2,1-4H3/b8-5+
computed SMILES=O=C(OCC(C)C)C(=CC)C
accession=JP006840
date=2016.01.19 (Created 2008.10.21, modified 2011.05.06)
author=TAJIMA S, GUNMA COLLEGE OF TECHNOLOGY
license=CC BY-NC-SA
exact mass=156.11503
ionization energy=70 eV
ion type=[M]+*
computed spectral entropy=2.383087755886338
computed normalized entropy=0.760035768453858
SPLASH=splash10-0pc0-9100000000-3aeed03378ccb49d88a8
submitter=submitter = University of Tokyo Team (Faculty of Engineering, University of Tokyo)
MoNA Rating=3.75

>  <NUM PEAKS>  (3340) 
23

>  <MASS SPECTRAL PEAKS>  (3340) 
26 1.17
27 21.33
29 28.68
39 19.12
41 20.06
42 1.36
43 4.99
45 1.2
51 1.77
52 1.15
53 8.87
54 6.02
55 66.75
56 27.88
57 11.43
73 1.4
82 2.33
83 99.99
84 5.74
85 2.28
100 4.93
101 54.09
102 2.36

>  <PREDICTED SPECTRUM>  (3340) 
14 12
15 15
25 19
26 100
27 322
28 146
29 405
31 34
37 9
38 39
39 185
40 96
41 402
42 147
43 221
44 72
45 90
50 112
51 168
52 177
53 314
54 348
55 740
56 480
57 518
58 112
63 6
65 4
66 34
68 129
70 1
71 21
73 56
80 23
81 88
82 240
83 999
84 310
85 158
95 4
98 62
99 105
100 387
101 669
102 201
156 91

$$$$

     RDKit          2D

 10  9  0  0  0  0  0  0  0  0999 V2000
    1.9486    3.3750    0.0000 C   0  0  0  0  0  0  0  0  0  0  0  0
   -5.8457    3.3750    0.0000 C   0  0  0  0  0  0  0  0  0  0  0  0
   -4.5466    5.6250    0.0000 C   0  0  0  0  0  0  0  0  0  0  0  0
   -0.6495    1.8750    0.0000 C   0  0  0  0  0  0  0  0  0  0  0  0
    0.6495    4.1250    0.0000 C   0  0  0  0  0  0  0  0  0  0  0  0
   -4.5466    4.1250    0.0000 C   0  0  0  0  0  0  0  0  0  0  0  0
   -0.6495    3.3750    0.0000 C   0  0  0  0  0  0  0  0  0  0  0  0
   -1.9486    4.1250    0.0000 C   0  0  0  0  0  0  0  0  0  0  0  0
   -1.9486    5.6250    0.0000 O   0  0  0  0  0  0  0  0  0  0  0  0
   -3.2476    3.3750    0.0000 O   0  0  0  0  0  0  0  0  0  0  0  0
  5  1  1  0
  6  2  1  0
  6  3  1  0
  7  4  1  0
  5  7  2  0
  8  7  1  0
  9  8  2  0
 10  6  1  0
 10  8  1  0
M  END
>  <NAME>  (3341) 
ISOPROPYL TIGLATE

>  <SYNONYMS>  (3341) 
ISOPROPYL 2-METHYL-2-BUTENOATE

>  <SPECTRUM TYPE>  (3341) 
MS1

>  <INSTRUMENT TYPE>  (3341) 
EI-B

>  <INSTRUMENT>  (3341) 
HITACHI M-80B

>  <ION MODE>  (3341) 
P

>  <INCHIKEY>  (3341) 
VUPBIVVRPJDWNW-FNORWQNLSA-N

>  <FORMULA>  (3341) 
C8H14O2

>  <EXACT MASS>  (3341) 
142.099379688

>  <MW>  (3341) 
142

>  <ID>  (3341) 
JP006839

>  <CONTRIBUTOR>  (3341) 
University of Tokyo Team, {Faculty of Engineering, University of Tokyo

>  <COMMENT>  (3341) 
SMILES=CC=C(C)C(=O)OC(C)C
InChI=InChI=1S/C8H14O2/c1-5-7(4)8(9)10-6(2)3/h5-6H,1-4H3/b7-5+
computed SMILES=O=C(OC(C)C)C(=CC)C
accession=JP006839
date=2016.01.19 (Created 2008.10.21, modified 2011.05.06)
author=TAJIMA S, GUNMA COLLEGE OF TECHNOLOGY
license=CC BY-NC-SA
exact mass=142.09938
ionization energy=70 eV
ion type=[M]+*
computed spectral entropy=2.8287445805534683
computed normalized entropy=0.8090200094882839
SPLASH=splash10-0pec-9100000000-ea8fe43dfb7eb5b6fa12
submitter=submitter = University of Tokyo Team (Faculty of Engineering, University of Tokyo)
MoNA Rating=3.75

>  <NUM PEAKS>  (3341) 
33

>  <MASS SPECTRAL PEAKS>  (3341) 
15 2.97
26 2.33
27 39.85
29 23.9
31 1.19
38 1.68
39 31.46
41 28.84
42 4.96
43 66.47
44 2.15
45 3.03
50 1.76
51 3.74
52 1.83
53 13.05
54 12.97
55 88.56
56 10.53
57 2.3
59 22.66
69 2.16
82 14.13
83 99.99
84 12.16
85 15.86
99 1.78
100 28.66
101 27.24
102 1.25
127 16.03
128 1.14
142 8.51

>  <PREDICTED SPECTRUM>  (3341) 
14 15
15 76
25 25
26 127
27 390
28 172
29 313
30 7
31 59
36 47
37 72
38 141
39 414
40 152
41 364
42 222
43 532
44 140
45 184
50 140
51 195
52 185
53 297
54 308
55 641
56 168
57 102
58 61
59 177
60 17
65 1
66 45
67 127
73 12
79 43
81 45
82 273
83 999
84 243
85 248
98 17
99 121
100 535
101 440
102 72
113 52
127 133
142 133
143 20

$$$$

     RDKit          2D

 10  9  0  0  0  0  0  0  0  0999 V2000
   -6.4952    4.5000    0.0000 C   0  0  0  0  0  0  0  0  0  0  0  0
    2.5981    3.7500    0.0000 C   0  0  0  0  0  0  0  0  0  0  0  0
   -0.0000    2.2500    0.0000 C   0  0  0  0  0  0  0  0  0  0  0  0
   -5.1962    3.7500    0.0000 C   0  0  0  0  0  0  0  0  0  0  0  0
    1.2990    4.5000    0.0000 C   0  0  0  0  0  0  0  0  0  0  0  0
   -3.8971    4.5000    0.0000 C   0  0  0  0  0  0  0  0  0  0  0  0
   -0.0000    3.7500    0.0000 C   0  0  0  0  0  0  0  0  0  0  0  0
   -1.2990    4.5000    0.0000 C   0  0  0  0  0  0  0  0  0  0  0  0
   -1.2990    6.0000    0.0000 O   0  0  0  0  0  0  0  0  0  0  0  0
   -2.5981    3.7500    0.0000 O   0  0  0  0  0  0  0  0  0  0  0  0
  4  1  2  0
  5  2  1  0
  6  4  1  0
  7  3  1  0
  5  7  2  0
  8  7  1  0
  9  8  2  0
 10  6  1  0
 10  8  1  0
M  END
>  <NAME>  (3342) 
ALLYL TIGLATE

>  <SYNONYMS>  (3342) 
ALLYL 2-METHYL-2-BUTENOATE

>  <SPECTRUM TYPE>  (3342) 
MS1

>  <INSTRUMENT TYPE>  (3342) 
EI-B

>  <INSTRUMENT>  (3342) 
HITACHI M-80B

>  <ION MODE>  (3342) 
P

>  <INCHIKEY>  (3342) 
ODOZNBUSHKFCSH-FNORWQNLSA-N

>  <FORMULA>  (3342) 
C8H12O2

>  <EXACT MASS>  (3342) 
140.083729624

>  <MW>  (3342) 
140

>  <ID>  (3342) 
JP006838

>  <CONTRIBUTOR>  (3342) 
University of Tokyo Team, {Faculty of Engineering, University of Tokyo

>  <COMMENT>  (3342) 
SMILES=C=CCOC(=O)C(C)=CC
InChI=InChI=1S/C8H12O2/c1-4-6-10-8(9)7(3)5-2/h4-5H,1,6H2,2-3H3/b7-5+
computed SMILES=O=C(OCC=C)C(=CC)C
accession=JP006838
date=2016.01.19 (Created 2008.10.21, modified 2011.05.06)
author=TAJIMA S, GUNMA COLLEGE OF TECHNOLOGY
license=CC BY-NC-SA
exact mass=140.08373
ionization energy=70 eV
ion type=[M]+*
computed spectral entropy=2.528412890222269
computed normalized entropy=0.7170035146923847
SPLASH=splash10-0560-9000000000-46f5257796adc2a4b13f
submitter=submitter = University of Tokyo Team (Faculty of Engineering, University of Tokyo)
MoNA Rating=3.75

>  <NUM PEAKS>  (3342) 
34

>  <MASS SPECTRAL PEAKS>  (3342) 
15 1.01
26 2.52
27 20.91
29 19.88
38 2.13
39 30.92
41 28.84
42 1.31
43 4.96
45 1.16
50 1.6
51 2.83
52 1.33
53 12.43
54 7.42
55 92.6
56 6.17
57 2.04
67 1.77
69 2.13
79 1.93
81 2.74
82 2.24
83 99.99
84 6.6
94 1.13
95 18.5
96 1.39
97 1.49
99 1.08
111 1.21
112 1.3
125 16.3
140 7.79

>  <PREDICTED SPECTRUM>  (3342) 
15 7
25 7
26 44
27 193
28 56
29 199
30 24
37 28
38 63
39 361
40 115
41 555
42 116
43 224
44 49
50 90
51 137
52 85
53 248
54 220
55 792
56 248
57 86
58 12
63 44
65 42
66 30
67 160
68 148
69 156
70 37
79 48
81 57
82 129
83 999
84 249
85 66
95 200
96 85
97 76
98 49
99 6
100 230
111 128
112 7
125 106
140 83

$$$$

     RDKit          2D

  9  8  0  0  0  0  0  0  0  0999 V2000
    1.9486    3.3750    0.0000 C   0  0  0  0  0  0  0  0  0  0  0  0
   -5.8457    3.3750    0.0000 C   0  0  0  0  0  0  0  0  0  0  0  0
   -0.6495    1.8750    0.0000 C   0  0  0  0  0  0  0  0  0  0  0  0
    0.6495    4.1250    0.0000 C   0  0  0  0  0  0  0  0  0  0  0  0
   -4.5466    4.1250    0.0000 C   0  0  0  0  0  0  0  0  0  0  0  0
   -0.6495    3.3750    0.0000 C   0  0  0  0  0  0  0  0  0  0  0  0
   -1.9486    4.1250    0.0000 C   0  0  0  0  0  0  0  0  0  0  0  0
   -1.9486    5.6250    0.0000 O   0  0  0  0  0  0  0  0  0  0  0  0
   -3.2476    3.3750    0.0000 O   0  0  0  0  0  0  0  0  0  0  0  0
  4  1  1  0
  5  2  1  0
  6  3  1  0
  4  6  2  0
  7  6  1  0
  8  7  2  0
  9  5  1  0
  9  7  1  0
M  END
>  <NAME>  (3343) 
ETHYL TIGLATE

>  <SYNONYMS>  (3343) 
ETHYL 2-METHYL-2-BUTENOATE

>  <SPECTRUM TYPE>  (3343) 
MS1

>  <INSTRUMENT TYPE>  (3343) 
EI-B

>  <INSTRUMENT>  (3343) 
HITACHI M-80B

>  <ION MODE>  (3343) 
P

>  <INCHIKEY>  (3343) 
OAPHLAAOJMTMLY-GQCTYLIASA-N

>  <FORMULA>  (3343) 
C7H12O2

>  <EXACT MASS>  (3343) 
128.083729624

>  <MW>  (3343) 
128

>  <ID>  (3343) 
JP006837

>  <CONTRIBUTOR>  (3343) 
University of Tokyo Team, {Faculty of Engineering, University of Tokyo

>  <COMMENT>  (3343) 
SMILES=CCOC(=O)C(C)=CC
InChI=InChI=1S/C7H12O2/c1-4-6(3)7(8)9-5-2/h4H,5H2,1-3H3/b6-4+
computed SMILES=O=C(OCC)C(=CC)C
accession=JP006837
date=2016.01.19 (Created 2008.10.21, modified 2011.05.06)
author=TAJIMA S, GUNMA COLLEGE OF TECHNOLOGY
license=CC BY-NC-SA
exact mass=128.08373
ionization energy=70 eV
ion type=[M]+*
computed spectral entropy=2.6623028083743345
computed normalized entropy=0.7681782117972825
SPLASH=splash10-0ke9-9100000000-13581cf2a37b7b5cbddf
submitter=submitter = University of Tokyo Team (Faculty of Engineering, University of Tokyo)
MoNA Rating=3.75

>  <NUM PEAKS>  (3343) 
32

>  <MASS SPECTRAL PEAKS>  (3343) 
15 1.71
26 3.55
27 38.83
29 46.54
30 1.57
38 1.31
39 21.93
40 1.95
41 5.02
43 6.32
45 5.82
50 2.62
51 3.99
52 2.32
53 14.68
54 13.61
55 99.99
56 8.6
57 1.2
69 1.78
73 1.13
82 12.65
83 76.9
84 4.65
85 10.68
99 1.81
100 22.87
101 1.3
113 20
114 1.11
128 16.05
129 1.31

>  <PREDICTED SPECTRUM>  (3343) 
14 16
15 47
25 31
26 172
27 471
28 200
29 609
30 3
31 91
37 48
38 101
39 416
40 157
41 312
42 158
43 369
44 51
45 252
46 135
50 154
51 232
52 195
53 381
54 351
55 999
56 400
57 204
58 22
59 115
60 27
61 46
67 285
69 139
70 83
71 214
72 13
73 115
74 26
81 51
82 517
83 982
84 129
85 255
99 261
100 292
101 172
113 277
114 3
128 455
129 120

$$$$

     RDKit          2D

  8  7  0  0  0  0  0  0  0  0999 V2000
    1.9486    2.6250    0.0000 C   0  0  0  0  0  0  0  0  0  0  0  0
   -0.6495    1.1250    0.0000 C   0  0  0  0  0  0  0  0  0  0  0  0
   -4.5466    3.3750    0.0000 C   0  0  0  0  0  0  0  0  0  0  0  0
    0.6495    3.3750    0.0000 C   0  0  0  0  0  0  0  0  0  0  0  0
   -0.6495    2.6250    0.0000 C   0  0  0  0  0  0  0  0  0  0  0  0
   -1.9486    3.3750    0.0000 C   0  0  0  0  0  0  0  0  0  0  0  0
   -1.9486    4.8750    0.0000 O   0  0  0  0  0  0  0  0  0  0  0  0
   -3.2476    2.6250    0.0000 O   0  0  0  0  0  0  0  0  0  0  0  0
  4  1  1  0
  5  2  1  0
  4  5  2  0
  6  5  1  0
  7  6  2  0
  8  3  1  0
  8  6  1  0
M  END
>  <NAME>  (3344) 
METHYL TIGLATE

>  <SYNONYMS>  (3344) 
METHYL 2-METHYL-2-BUTENOATE

>  <SPECTRUM TYPE>  (3344) 
MS1

>  <INSTRUMENT TYPE>  (3344) 
EI-B

>  <INSTRUMENT>  (3344) 
HITACHI M-80B

>  <ION MODE>  (3344) 
P

>  <INCHIKEY>  (3344) 
YYJWBYNQJLBIGS-SNAWJCMRSA-N

>  <FORMULA>  (3344) 
C6H10O2

>  <EXACT MASS>  (3344) 
114.06807956

>  <MW>  (3344) 
114

>  <ID>  (3344) 
JP006836

>  <CONTRIBUTOR>  (3344) 
University of Tokyo Team, {Faculty of Engineering, University of Tokyo

>  <COMMENT>  (3344) 
SMILES=CC=C(C)C(=O)OC
InChI=InChI=1S/C6H10O2/c1-4-5(2)6(7)8-3/h4H,1-3H3/b5-4+
computed SMILES=O=C(OC)C(=CC)C
accession=JP006836
date=2016.01.19 (Created 2008.10.21, modified 2011.05.06)
author=TAJIMA S, GUNMA COLLEGE OF TECHNOLOGY
license=CC BY-NC-SA
exact mass=114.06808
ionization energy=70 eV
ion type=[M]+*
computed spectral entropy=2.653985512908354
computed normalized entropy=0.7881652361144089
SPLASH=splash10-0a7i-9100000000-654c14d45a8ceb8fb418
submitter=submitter = University of Tokyo Team (Faculty of Engineering, University of Tokyo)
MoNA Rating=3.75

>  <NUM PEAKS>  (3344) 
29

>  <MASS SPECTRAL PEAKS>  (3344) 
15 12.91
26 3.22
27 30.32
29 23.88
30 1.33
31 1.21
38 2.37
39 24.64
41 3.83
42 1
43 6.21
45 1.74
50 4.9
51 7.3
52 2.91
53 17.01
54 14.53
55 99.99
56 5.47
59 11.95
69 1.52
71 1.98
81 1.5
82 10.59
83 50.18
84 2.46
99 12.81
114 40.85
115 2.48

>  <PREDICTED SPECTRUM>  (3344) 
15 1
25 1
26 82
27 268
28 76
29 246
31 29
32 12
33 12
37 4
38 104
39 543
40 152
41 286
42 77
43 133
50 105
51 229
52 147
53 502
54 397
55 999
56 200
57 84
59 435
67 117
71 79
81 42
82 511
83 799
84 99
85 160
99 340
100 99
113 85
114 551
115 34

$$$$

     RDKit          2D

 14 14  0  0  0  0  0  0  0  0999 V2000
   -7.4692    4.2571    0.0000 C   0  0  0  0  0  0  0  0  0  0  0  0
   -6.1702    3.5071    0.0000 C   0  0  0  0  0  0  0  0  0  0  0  0
    4.2221    2.0071    0.0000 C   0  0  0  0  0  0  0  0  0  0  0  0
    4.2226    3.5079    0.0000 C   0  0  0  0  0  0  0  0  0  0  0  0
    2.9226    1.2563    0.0000 C   0  0  0  0  0  0  0  0  0  0  0  0
   -4.8712    4.2571    0.0000 C   0  0  0  0  0  0  0  0  0  0  0  0
    2.9236    4.2579    0.0000 C   0  0  0  0  0  0  0  0  0  0  0  0
    1.6236    2.0063    0.0000 C   0  0  0  0  0  0  0  0  0  0  0  0
    0.3250    4.2571    0.0000 C   0  0  0  0  0  0  0  0  0  0  0  0
   -0.9740    3.5071    0.0000 C   0  0  0  0  0  0  0  0  0  0  0  0
    1.6240    3.5071    0.0000 C   0  0  0  0  0  0  0  0  0  0  0  0
   -3.5721    3.5071    0.0000 C   0  0  0  0  0  0  0  0  0  0  0  0
   -3.5721    2.0071    0.0000 O   0  0  0  0  0  0  0  0  0  0  0  0
   -2.2731    4.2571    0.0000 O   0  0  0  0  0  0  0  0  0  0  0  0
  2  1  1  0
  4  3  2  0
  5  3  1  0
  2  6  2  0
  7  4  1  0
  8  5  2  0
 10  9  1  0
 11  7  2  0
 11  8  1  0
 11  9  1  0
 12  6  1  0
 13 12  2  0
 14 10  1  0
 14 12  1  0
M  END
>  <NAME>  (3345) 
PHENYLETHYL CROTONATE

>  <SYNONYMS>  (3345) 
PHENETHYL TRANS-2-BUTENOATE

>  <SPECTRUM TYPE>  (3345) 
MS1

>  <INSTRUMENT TYPE>  (3345) 
EI-B

>  <INSTRUMENT>  (3345) 
HITACHI M-80B

>  <ION MODE>  (3345) 
P

>  <INCHIKEY>  (3345) 
DVHGIHSWUYRIPZ-QHHAFSJGSA-N

>  <FORMULA>  (3345) 
C12H14O2

>  <EXACT MASS>  (3345) 
190.099379688

>  <MW>  (3345) 
190

>  <ID>  (3345) 
JP006835

>  <CONTRIBUTOR>  (3345) 
University of Tokyo Team, {Faculty of Engineering, University of Tokyo

>  <COMMENT>  (3345) 
SMILES=CC=CC(=O)OCCc(c1)cccc1
InChI=InChI=1S/C12H14O2/c1-2-6-12(13)14-10-9-11-7-4-3-5-8-11/h2-8H,9-10H2,1H3/b6-2+
computed SMILES=O=C(OCCC=1C=CC=CC1)C=CC
accession=JP006835
date=2016.01.19 (Created 2008.10.21, modified 2011.05.06)
author=TAJIMA S, GUNMA COLLEGE OF TECHNOLOGY
license=CC BY-NC-SA
exact mass=190.09938
ionization energy=70 eV
ion type=[M]+*
computed spectral entropy=2.081519175165948
computed normalized entropy=0.6836931629652985
SPLASH=splash10-0uxr-9700000000-4cb793afcc3824caaf11
submitter=submitter = University of Tokyo Team (Faculty of Engineering, University of Tokyo)
MoNA Rating=3.75

>  <NUM PEAKS>  (3345) 
21

>  <MASS SPECTRAL PEAKS>  (3345) 
27 2.36
38 1.31
39 16.92
41 21.11
50 1.3
51 4.71
52 1.06
63 1.91
65 6.57
68 1.1
69 56.82
70 2.12
77 7.38
78 4.96
79 2.8
89 1.26
91 10.91
92 1.24
103 4.86
104 99.99
105 12.71

>  <PREDICTED SPECTRUM>  (3345) 
26 44
27 144
29 15
36 1
37 25
38 78
39 293
40 122
41 290
42 41
43 5
44 4
49 4
50 154
51 233
52 123
53 154
54 51
62 40
63 139
64 65
65 260
66 69
67 82
68 121
69 456
70 122
71 3
74 42
75 50
76 64
77 239
78 193
79 121
87 48
89 90
90 13
91 311
92 102
99 47
102 68
103 158
104 999
105 377
106 23

$$$$

     RDKit          2D

 13 13  0  0  0  0  0  0  0  0999 V2000
   -6.8197    3.1321    0.0000 C   0  0  0  0  0  0  0  0  0  0  0  0
   -5.5207    3.8821    0.0000 C   0  0  0  0  0  0  0  0  0  0  0  0
    3.5726    1.6321    0.0000 C   0  0  0  0  0  0  0  0  0  0  0  0
    3.5731    3.1329    0.0000 C   0  0  0  0  0  0  0  0  0  0  0  0
    2.2731    0.8813    0.0000 C   0  0  0  0  0  0  0  0  0  0  0  0
   -4.2216    3.1321    0.0000 C   0  0  0  0  0  0  0  0  0  0  0  0
    2.2740    3.8829    0.0000 C   0  0  0  0  0  0  0  0  0  0  0  0
    0.9740    1.6313    0.0000 C   0  0  0  0  0  0  0  0  0  0  0  0
   -0.3245    3.8821    0.0000 C   0  0  0  0  0  0  0  0  0  0  0  0
    0.9745    3.1321    0.0000 C   0  0  0  0  0  0  0  0  0  0  0  0
   -2.9226    3.8821    0.0000 C   0  0  0  0  0  0  0  0  0  0  0  0
   -2.9226    5.3821    0.0000 O   0  0  0  0  0  0  0  0  0  0  0  0
   -1.6236    3.1321    0.0000 O   0  0  0  0  0  0  0  0  0  0  0  0
  2  1  1  0
  4  3  2  0
  5  3  1  0
  2  6  2  0
  7  4  1  0
  8  5  2  0
 10  7  2  0
 10  8  1  0
 10  9  1  0
 11  6  1  0
 12 11  2  0
 13  9  1  0
 13 11  1  0
M  END
>  <NAME>  (3346) 
BENZYL CROTONATE

>  <SYNONYMS>  (3346) 
BENZYL TRANS-2-BUTENOATE

>  <SPECTRUM TYPE>  (3346) 
MS1

>  <INSTRUMENT TYPE>  (3346) 
EI-B

>  <INSTRUMENT>  (3346) 
HITACHI M-80B

>  <ION MODE>  (3346) 
P

>  <INCHIKEY>  (3346) 
NCPTYZLUYHXITE-QHHAFSJGSA-N

>  <FORMULA>  (3346) 
C11H12O2

>  <EXACT MASS>  (3346) 
176.083729624

>  <MW>  (3346) 
176

>  <ID>  (3346) 
JP006834

>  <CONTRIBUTOR>  (3346) 
University of Tokyo Team, {Faculty of Engineering, University of Tokyo

>  <COMMENT>  (3346) 
SMILES=CC=CC(=O)OCc(c1)cccc1
InChI=InChI=1S/C11H12O2/c1-2-6-11(12)13-9-10-7-4-3-5-8-10/h2-8H,9H2,1H3/b6-2+
computed SMILES=O=C(OCC=1C=CC=CC1)C=CC
accession=JP006834
date=2016.01.19 (Created 2008.10.21, modified 2011.05.06)
author=TAJIMA S, GUNMA COLLEGE OF TECHNOLOGY
license=CC BY-NC-SA
exact mass=176.08373
ionization energy=70 eV
ion type=[M]+*
computed spectral entropy=2.8593181463603186
computed normalized entropy=0.7602143088398429
SPLASH=splash10-014l-9200000000-f28cdf35b1fb81953b15
submitter=submitter = University of Tokyo Team (Faculty of Engineering, University of Tokyo)
MoNA Rating=3.75

>  <NUM PEAKS>  (3346) 
43

>  <MASS SPECTRAL PEAKS>  (3346) 
15 1.06
26 1.2
27 2.18
29 1.52
38 2.98
39 30.8
41 27.69
42 2.18
50 3.95
51 12.34
52 2.78
53 1.15
62 1.14
63 4.74
64 1.67
65 16.84
66 1.01
68 1.2
69 99.99
70 5.25
76 1.05
77 15.89
78 3.12
79 14.3
80 1.04
89 5.58
90 12.28
91 77.15
92 4.87
105 5.11
106 1.56
107 16.13
108 4.98
115 1.22
117 2.08
129 1.31
130 6.3
131 21.71
132 2.13
158 7.02
161 1.65
176 13.53
177 1.4

>  <PREDICTED SPECTRUM>  (3346) 
26 53
27 129
29 34
36 2
37 43
38 110
39 373
40 140
41 517
42 91
43 16
44 52
49 23
50 145
51 244
52 118
53 135
55 9
62 94
63 200
64 120
65 347
66 113
68 155
69 999
70 237
76 3
77 277
78 165
79 219
80 55
89 212
90 243
91 961
92 318
93 16
103 26
104 79
105 107
107 312
108 110
109 6
130 257
131 366
132 154
176 330
177 120

$$$$

     RDKit          2D

 14 13  0  0  0  0  0  0  0  0999 V2000
    3.8971    6.7500    0.0000 C   0  0  0  0  0  0  0  0  0  0  0  0
  -11.6913    6.7500    0.0000 C   0  0  0  0  0  0  0  0  0  0  0  0
    2.5981    7.5000    0.0000 C   0  0  0  0  0  0  0  0  0  0  0  0
  -10.3923    7.5000    0.0000 C   0  0  0  0  0  0  0  0  0  0  0  0
    1.2990    6.7500    0.0000 C   0  0  0  0  0  0  0  0  0  0  0  0
    0.0000    7.5000    0.0000 C   0  0  0  0  0  0  0  0  0  0  0  0
   -1.2990    6.7500    0.0000 C   0  0  0  0  0  0  0  0  0  0  0  0
   -2.5981    7.5000    0.0000 C   0  0  0  0  0  0  0  0  0  0  0  0
   -3.8971    6.7500    0.0000 C   0  0  0  0  0  0  0  0  0  0  0  0
   -9.0933    6.7500    0.0000 C   0  0  0  0  0  0  0  0  0  0  0  0
   -5.1962    7.5000    0.0000 C   0  0  0  0  0  0  0  0  0  0  0  0
   -7.7942    7.5000    0.0000 C   0  0  0  0  0  0  0  0  0  0  0  0
   -7.7942    9.0000    0.0000 O   0  0  0  0  0  0  0  0  0  0  0  0
   -6.4952    6.7500    0.0000 O   0  0  0  0  0  0  0  0  0  0  0  0
  3  1  1  0
  4  2  1  0
  5  3  1  0
  6  5  1  0
  7  6  1  0
  8  7  1  0
  9  8  1  0
  4 10  2  0
 11  9  1  0
 12 10  1  0
 13 12  2  0
 14 11  1  0
 14 12  1  0
M  END
>  <NAME>  (3347) 
OCTYL CROTONATE

>  <SYNONYMS>  (3347) 
OCTYL TRANS-2-BUTENOATE

>  <SPECTRUM TYPE>  (3347) 
MS1

>  <INSTRUMENT TYPE>  (3347) 
EI-B

>  <INSTRUMENT>  (3347) 
HITACHI M-80B

>  <ION MODE>  (3347) 
P

>  <INCHIKEY>  (3347) 
HULBECQFWZPEBI-ONNFQVAWSA-N

>  <FORMULA>  (3347) 
C12H22O2

>  <EXACT MASS>  (3347) 
198.161979944

>  <MW>  (3347) 
198

>  <ID>  (3347) 
JP006833

>  <CONTRIBUTOR>  (3347) 
University of Tokyo Team, {Faculty of Engineering, University of Tokyo

>  <COMMENT>  (3347) 
SMILES=CCCCCCCCOC(=O)C=CC
InChI=InChI=1S/C12H22O2/c1-3-5-6-7-8-9-11-14-12(13)10-4-2/h4,10H,3,5-9,11H2,1-2H3/b10-4+
computed SMILES=O=C(OCCCCCCCC)C=CC
accession=JP006833
license=CC BY-NC-SA
date=2016.01.19 (Created 2008.10.21, modified 2011.05.06)
author=TAJIMA S, GUNMA COLLEGE OF TECHNOLOGY
exact mass=198.16198
ionization energy=70 eV
ion type=[M]+*
computed spectral entropy=2.4734377449561076
computed normalized entropy=0.7782869255821592
SPLASH=splash10-00ku-9000000000-db6830519aed687409ec
submitter=submitter = University of Tokyo Team (Faculty of Engineering, University of Tokyo)
MoNA Rating=3.75

>  <NUM PEAKS>  (3347) 
24

>  <MASS SPECTRAL PEAKS>  (3347) 
27 9.12
29 12.47
39 20.52
41 51.08
42 11.9
43 19.71
53 1.38
54 2
55 17.68
56 17.32
57 8.95
67 1.61
68 4.6
69 99.99
70 18.38
71 2.95
82 2.04
83 9.88
84 8.74
86 1.24
87 87.19
88 2.99
97 1.06
112 8.32

>  <PREDICTED SPECTRUM>  (3347) 
25 11
26 64
27 214
28 63
29 234
30 22
31 11
35 32
36 81
37 69
38 103
39 392
40 189
41 681
42 344
43 408
44 104
45 146
47 11
49 16
50 46
51 64
52 22
53 143
54 187
55 500
56 435
57 316
58 39
59 25
61 6
66 14
67 234
68 317
69 999
70 471
71 166
72 24
78 9
79 16
81 68
82 214
83 194
84 279
85 63
86 114
87 846
88 168
95 49
97 147
98 36
99 93
111 60
112 206
113 55

$$$$

     RDKit          2D

 12 11  0  0  0  0  0  0  0  0999 V2000
   -4.2219    3.9375    0.0000 C   0  0  0  0  0  0  0  0  0  0  0  0
    7.4695    6.1875    0.0000 C   0  0  0  0  0  0  0  0  0  0  0  0
   -2.9228    4.6875    0.0000 C   0  0  0  0  0  0  0  0  0  0  0  0
    6.1704    6.9375    0.0000 C   0  0  0  0  0  0  0  0  0  0  0  0
   -2.9228    6.1875    0.0000 C   0  0  0  0  0  0  0  0  0  0  0  0
   -1.6238    6.9375    0.0000 C   0  0  0  0  0  0  0  0  0  0  0  0
   -0.3248    6.1875    0.0000 C   0  0  0  0  0  0  0  0  0  0  0  0
    4.8714    6.1875    0.0000 C   0  0  0  0  0  0  0  0  0  0  0  0
    0.9743    6.9375    0.0000 C   0  0  0  0  0  0  0  0  0  0  0  0
    3.5724    6.9375    0.0000 C   0  0  0  0  0  0  0  0  0  0  0  0
    3.5724    8.4375    0.0000 O   0  0  0  0  0  0  0  0  0  0  0  0
    2.2733    6.1875    0.0000 O   0  0  0  0  0  0  0  0  0  0  0  0
  3  1  1  0
  4  2  1  0
  5  3  1  0
  5  6  2  0
  7  6  1  0
  4  8  2  0
  9  7  1  0
 10  8  1  0
 11 10  2  0
 12  9  1  0
 12 10  1  0
M  END
>  <NAME>  (3348) 
CIS-3-HEXENYL CROTONATE

>  <SYNONYMS>  (3348) 
CIS-3-HEXENYL TRANS-2-BUTENOATE

>  <SPECTRUM TYPE>  (3348) 
MS1

>  <INSTRUMENT TYPE>  (3348) 
EI-B

>  <INSTRUMENT>  (3348) 
HITACHI M-80B

>  <ION MODE>  (3348) 
P

>  <INCHIKEY>  (3348) 
KITGYVIOYOCIIE-QNMAEOQASA-N

>  <FORMULA>  (3348) 
C10H16O2

>  <EXACT MASS>  (3348) 
168.115029752

>  <MW>  (3348) 
168

>  <ID>  (3348) 
JP006832

>  <CONTRIBUTOR>  (3348) 
University of Tokyo Team, {Faculty of Engineering, University of Tokyo

>  <COMMENT>  (3348) 
SMILES=CCC=CCCOC(=O)C=CC
InChI=InChI=1S/C10H16O2/c1-3-5-6-7-9-12-10(11)8-4-2/h4-6,8H,3,7,9H2,1-2H3/b6-5-,8-4+
computed SMILES=O=C(OCCC=CCC)C=CC
accession=JP006832
date=2016.01.19 (Created 2008.10.21, modified 2011.05.06)
author=TAJIMA S, GUNMA COLLEGE OF TECHNOLOGY
license=CC BY-NC-SA
exact mass=168.11503
ionization energy=70 eV
ion type=[M]+*
computed spectral entropy=2.161422071209497
computed normalized entropy=0.7340692357704718
SPLASH=splash10-014i-9000000000-c727e746c3c867f93a01
submitter=submitter = University of Tokyo Team (Faculty of Engineering, University of Tokyo)
MoNA Rating=3.75

>  <NUM PEAKS>  (3348) 
19

>  <MASS SPECTRAL PEAKS>  (3348) 
27 8.83
29 4.36
38 1.51
39 30.36
40 1.81
41 48.45
42 3.8
51 1.13
53 4.6
54 6.5
55 7.48
67 57.27
68 4.61
69 99.99
70 4.52
81 4.21
82 62.24
83 4.02
87 3.77

>  <PREDICTED SPECTRUM>  (3348) 
26 70
27 227
28 49
29 203
37 17
38 48
39 445
40 220
41 746
42 256
43 68
44 53
45 43
50 55
51 115
52 47
53 286
54 329
55 437
56 145
57 70
65 111
67 938
68 424
69 917
70 158
81 220
82 999
83 221
84 38
85 52
86 17
87 267
99 9
101 26

$$$$

     RDKit          2D

 11 10  0  0  0  0  0  0  0  0999 V2000
    2.5981    4.5000    0.0000 C   0  0  0  0  0  0  0  0  0  0  0  0
   -7.7942    4.5000    0.0000 C   0  0  0  0  0  0  0  0  0  0  0  0
   -6.4952    6.7500    0.0000 C   0  0  0  0  0  0  0  0  0  0  0  0
    1.2990    5.2500    0.0000 C   0  0  0  0  0  0  0  0  0  0  0  0
    0.0000    4.5000    0.0000 C   0  0  0  0  0  0  0  0  0  0  0  0
   -5.1962    4.5000    0.0000 C   0  0  0  0  0  0  0  0  0  0  0  0
   -3.8971    5.2500    0.0000 C   0  0  0  0  0  0  0  0  0  0  0  0
   -6.4952    5.2500    0.0000 C   0  0  0  0  0  0  0  0  0  0  0  0
   -1.2990    5.2500    0.0000 C   0  0  0  0  0  0  0  0  0  0  0  0
   -1.2990    6.7500    0.0000 O   0  0  0  0  0  0  0  0  0  0  0  0
   -2.5981    4.5000    0.0000 O   0  0  0  0  0  0  0  0  0  0  0  0
  4  1  1  0
  4  5  2  0
  7  6  1  0
  8  2  1  0
  8  3  1  0
  8  6  1  0
  9  5  1  0
 10  9  2  0
 11  7  1  0
 11  9  1  0
M  END
>  <NAME>  (3349) 
ISOAMYL CROTONATE

>  <SYNONYMS>  (3349) 
3-METHYLBUTYL TRANS-2-BUTENOATE

>  <SPECTRUM TYPE>  (3349) 
MS1

>  <INSTRUMENT TYPE>  (3349) 
EI-B

>  <INSTRUMENT>  (3349) 
HITACHI M-80B

>  <ION MODE>  (3349) 
P

>  <INCHIKEY>  (3349) 
JAVOYFHBJFLMRQ-SNAWJCMRSA-N

>  <FORMULA>  (3349) 
C9H16O2

>  <EXACT MASS>  (3349) 
156.115029752

>  <MW>  (3349) 
156

>  <ID>  (3349) 
JP006831

>  <CONTRIBUTOR>  (3349) 
University of Tokyo Team, {Faculty of Engineering, University of Tokyo

>  <COMMENT>  (3349) 
SMILES=CC=CC(=O)OCCC(C)C
InChI=InChI=1S/C9H16O2/c1-4-5-9(10)11-7-6-8(2)3/h4-5,8H,6-7H2,1-3H3/b5-4+
computed SMILES=O=C(OCCC(C)C)C=CC
accession=JP006831
date=2016.01.19 (Created 2008.10.21, modified 2011.05.06)
author=TAJIMA S, GUNMA COLLEGE OF TECHNOLOGY
license=CC BY-NC-SA
exact mass=156.11503
ionization energy=70 eV
ion type=[M]+*
computed spectral entropy=2.18151038907601
computed normalized entropy=0.7282060577756411
SPLASH=splash10-01bc-9000000000-c3827e7d2b050f186e91
submitter=submitter = University of Tokyo Team (Faculty of Engineering, University of Tokyo)
MoNA Rating=3.75

>  <NUM PEAKS>  (3349) 
20

>  <MASS SPECTRAL PEAKS>  (3349) 
27 9.27
29 6.34
38 1.4
39 26.21
41 38.6
42 10.46
43 14.39
45 1.34
53 1.22
55 22.03
56 1.61
57 1.02
68 2.24
69 99.99
70 58.22
71 3.52
86 1
87 21.72
99 1.42
113 1.3

>  <PREDICTED SPECTRUM>  (3349) 
25 15
26 97
27 252
28 41
29 253
36 54
37 55
38 94
39 470
40 211
41 676
42 349
43 392
44 49
45 77
49 0
50 42
51 82
52 23
53 177
54 95
55 457
56 8
57 110
58 15
68 44
69 999
70 846
71 257
85 80
86 81
87 371
88 79
89 33
99 105
113 119
141 1
156 2

$$$$

     RDKit          2D

 11 10  0  0  0  0  0  0  0  0999 V2000
   -8.4437    5.6250    0.0000 C   0  0  0  0  0  0  0  0  0  0  0  0
    3.2476    4.8750    0.0000 C   0  0  0  0  0  0  0  0  0  0  0  0
   -7.1447    4.8750    0.0000 C   0  0  0  0  0  0  0  0  0  0  0  0
    1.9486    5.6250    0.0000 C   0  0  0  0  0  0  0  0  0  0  0  0
   -5.8457    5.6250    0.0000 C   0  0  0  0  0  0  0  0  0  0  0  0
   -4.5466    4.8750    0.0000 C   0  0  0  0  0  0  0  0  0  0  0  0
    0.6495    4.8750    0.0000 C   0  0  0  0  0  0  0  0  0  0  0  0
   -3.2476    5.6250    0.0000 C   0  0  0  0  0  0  0  0  0  0  0  0
   -0.6495    5.6250    0.0000 C   0  0  0  0  0  0  0  0  0  0  0  0
   -0.6495    7.1250    0.0000 O   0  0  0  0  0  0  0  0  0  0  0  0
   -1.9486    4.8750    0.0000 O   0  0  0  0  0  0  0  0  0  0  0  0
  3  1  1  0
  4  2  1  0
  5  3  1  0
  6  5  1  0
  4  7  2  0
  8  6  1  0
  9  7  1  0
 10  9  2  0
 11  8  1  0
 11  9  1  0
M  END
>  <NAME>  (3350) 
AMYL CROTONATE

>  <SYNONYMS>  (3350) 
PENTYL TRANS-2-BUTENOATE

>  <SPECTRUM TYPE>  (3350) 
MS1

>  <INSTRUMENT TYPE>  (3350) 
EI-B

>  <INSTRUMENT>  (3350) 
HITACHI M-80B

>  <ION MODE>  (3350) 
P

>  <INCHIKEY>  (3350) 
PWYYERNADDIMJR-QPJJXVBHSA-N

>  <FORMULA>  (3350) 
C9H16O2

>  <EXACT MASS>  (3350) 
156.115029752

>  <MW>  (3350) 
156

>  <ID>  (3350) 
JP006830

>  <CONTRIBUTOR>  (3350) 
University of Tokyo Team, {Faculty of Engineering, University of Tokyo

>  <COMMENT>  (3350) 
SMILES=CCCCCOC(=O)C=CC
InChI=InChI=1S/C9H16O2/c1-3-5-6-8-11-9(10)7-4-2/h4,7H,3,5-6,8H2,1-2H3/b7-4+
computed SMILES=O=C(OCCCCC)C=CC
accession=JP006830
date=2016.01.19 (Created 2008.10.21, modified 2011.05.06)
author=TAJIMA S, GUNMA COLLEGE OF TECHNOLOGY
license=CC BY-NC-SA
exact mass=156.11503
ionization energy=70 eV
ion type=[M]+*
computed spectral entropy=2.0952463674857875
computed normalized entropy=0.7395300364095045
SPLASH=splash10-014u-9000000000-cb18dd6645358b9f2fd7
submitter=submitter = University of Tokyo Team (Faculty of Engineering, University of Tokyo)
MoNA Rating=3.75

>  <NUM PEAKS>  (3350) 
17

>  <MASS SPECTRAL PEAKS>  (3350) 
26 1.01
27 10.17
29 9.55
38 1.36
39 23.82
40 1.55
41 38.13
42 15.68
43 10.4
55 12.34
68 2.19
69 99.99
70 17.48
71 1.34
87 64.55
88 2.45
99 1.03

>  <PREDICTED SPECTRUM>  (3350) 
14 5
25 20
26 94
27 242
28 94
29 296
35 2
36 69
37 84
38 129
39 457
40 207
41 659
42 379
43 374
44 91
45 149
47 43
50 36
51 69
52 41
53 71
54 11
55 380
56 2
57 144
68 144
69 999
70 534
71 151
85 107
86 133
87 649
88 101
89 42
99 164
100 65
156 8

$$$$

     RDKit          2D

 10  9  0  0  0  0  0  0  0  0999 V2000
    2.5981    4.5000    0.0000 C   0  0  0  0  0  0  0  0  0  0  0  0
   -7.7942    4.5000    0.0000 C   0  0  0  0  0  0  0  0  0  0  0  0
    1.2990    5.2500    0.0000 C   0  0  0  0  0  0  0  0  0  0  0  0
   -6.4952    5.2500    0.0000 C   0  0  0  0  0  0  0  0  0  0  0  0
    0.0000    4.5000    0.0000 C   0  0  0  0  0  0  0  0  0  0  0  0
   -5.1962    4.5000    0.0000 C   0  0  0  0  0  0  0  0  0  0  0  0
   -1.2990    5.2500    0.0000 C   0  0  0  0  0  0  0  0  0  0  0  0
   -3.8971    5.2500    0.0000 C   0  0  0  0  0  0  0  0  0  0  0  0
   -3.8971    6.7500    0.0000 O   0  0  0  0  0  0  0  0  0  0  0  0
   -2.5981    4.5000    0.0000 O   0  0  0  0  0  0  0  0  0  0  0  0
  3  1  1  0
  4  2  1  0
  5  3  1  0
  4  6  2  0
  7  5  1  0
  8  6  1  0
  9  8  2  0
 10  7  1  0
 10  8  1  0
M  END
>  <NAME>  (3351) 
BUTYL CROTONATE

>  <SYNONYMS>  (3351) 
BUTYL TRANS-2-BUTENOATE

>  <SPECTRUM TYPE>  (3351) 
MS1

>  <INSTRUMENT TYPE>  (3351) 
EI-B

>  <INSTRUMENT>  (3351) 
HITACHI M-80B

>  <ION MODE>  (3351) 
P

>  <INCHIKEY>  (3351) 
GWCTUKHUBWMAMI-GQCTYLIASA-N

>  <FORMULA>  (3351) 
C8H14O2

>  <EXACT MASS>  (3351) 
142.099379688

>  <MW>  (3351) 
142

>  <ID>  (3351) 
JP006829

>  <CONTRIBUTOR>  (3351) 
University of Tokyo Team, {Faculty of Engineering, University of Tokyo

>  <COMMENT>  (3351) 
SMILES=CCCCOC(=O)C=CC
InChI=InChI=1S/C8H14O2/c1-3-5-7-10-8(9)6-4-2/h4,6H,3,5,7H2,1-2H3/b6-4+
computed SMILES=O=C(OCCCC)C=CC
accession=JP006829
date=2016.01.19 (Created 2008.10.21, modified 2011.05.06)
author=TAJIMA S, GUNMA COLLEGE OF TECHNOLOGY
license=CC BY-NC-SA
exact mass=142.09938
ionization energy=70 eV
ion type=[M]+*
computed spectral entropy=2.0881960705304565
computed normalized entropy=0.675563698020938
SPLASH=splash10-014r-9000000000-8a3fc909d35cb68b2dc1
submitter=submitter = University of Tokyo Team (Faculty of Engineering, University of Tokyo)
MoNA Rating=3.75

>  <NUM PEAKS>  (3351) 
22

>  <MASS SPECTRAL PEAKS>  (3351) 
15 1.16
26 1.11
27 8.93
29 10.76
31 1.1
38 1.57
39 23.7
40 1.26
41 37.91
42 2.35
43 2.09
55 5.01
56 16.33
57 3.14
68 1.93
69 99.99
70 5.64
86 1
87 55.18
88 2.4
99 1.29
127 1.07

>  <PREDICTED SPECTRUM>  (3351) 
25 0
26 84
27 190
28 64
29 229
31 54
36 13
37 77
38 121
39 475
40 227
41 751
42 223
43 220
44 93
45 100
50 77
51 122
52 58
53 70
55 44
56 541
57 164
58 35
68 147
69 999
70 273
71 111
73 154
85 67
86 148
87 575
88 121
99 59
100 11

$$$$

     RDKit          2D

  9  8  0  0  0  0  0  0  0  0999 V2000
    2.5981    3.7500    0.0000 C   0  0  0  0  0  0  0  0  0  0  0  0
   -6.4952    4.5000    0.0000 C   0  0  0  0  0  0  0  0  0  0  0  0
    1.2990    4.5000    0.0000 C   0  0  0  0  0  0  0  0  0  0  0  0
   -5.1962    3.7500    0.0000 C   0  0  0  0  0  0  0  0  0  0  0  0
    0.0000    3.7500    0.0000 C   0  0  0  0  0  0  0  0  0  0  0  0
   -3.8971    4.5000    0.0000 C   0  0  0  0  0  0  0  0  0  0  0  0
   -1.2990    4.5000    0.0000 C   0  0  0  0  0  0  0  0  0  0  0  0
   -1.2990    6.0000    0.0000 O   0  0  0  0  0  0  0  0  0  0  0  0
   -2.5981    3.7500    0.0000 O   0  0  0  0  0  0  0  0  0  0  0  0
  3  1  1  0
  4  2  2  0
  3  5  2  0
  6  4  1  0
  7  5  1  0
  8  7  2  0
  9  6  1  0
  9  7  1  0
M  END
>  <NAME>  (3352) 
ALLYL CROTONATE

>  <SYNONYMS>  (3352) 
ALLYL TRANS-2-BUTENOATE

>  <SPECTRUM TYPE>  (3352) 
MS1

>  <INSTRUMENT TYPE>  (3352) 
EI-B

>  <INSTRUMENT>  (3352) 
HITACHI M-80B

>  <ION MODE>  (3352) 
P

>  <INCHIKEY>  (3352) 
WNJBUWVXSNLWEQ-HWKANZROSA-N

>  <FORMULA>  (3352) 
C7H10O2

>  <EXACT MASS>  (3352) 
126.06807956

>  <MW>  (3352) 
126

>  <ID>  (3352) 
JP006828

>  <CONTRIBUTOR>  (3352) 
University of Tokyo Team, {Faculty of Engineering, University of Tokyo

>  <COMMENT>  (3352) 
SMILES=C=CCOC(=O)C=CC
InChI=InChI=1S/C7H10O2/c1-3-5-7(8)9-6-4-2/h3-5H,2,6H2,1H3/b5-3+
computed SMILES=O=C(OCC=C)C=CC
accession=JP006828
date=2016.01.19 (Created 2008.10.21, modified 2011.05.06)
author=TAJIMA S, GUNMA COLLEGE OF TECHNOLOGY
license=CC BY-NC-SA
exact mass=126.06808
ionization energy=70 eV
ion type=[M]+*
computed spectral entropy=1.7071210968782136
computed normalized entropy=0.6025388453218937
SPLASH=splash10-014i-9000000000-09d8fdd3eb784b82b784
submitter=submitter = University of Tokyo Team (Faculty of Engineering, University of Tokyo)
MoNA Rating=3.75

>  <NUM PEAKS>  (3352) 
17

>  <MASS SPECTRAL PEAKS>  (3352) 
15 1.21
26 1.7
27 5.21
29 2.93
32 2.36
37 1.25
38 3.12
39 34.3
41 42.25
42 2.19
55 1.02
57 1.87
68 1.21
69 99.99
70 5.2
81 4.79
111 3

>  <PREDICTED SPECTRUM>  (3352) 
25 12
26 40
27 137
29 81
36 57
37 96
38 141
39 507
40 176
41 951
42 179
43 112
44 8
50 41
53 45
54 23
55 96
57 207
58 13
63 74
67 15
68 54
69 999
70 187
80 14
81 140
82 74
83 19
85 69
86 12
111 121
126 137
127 12

$$$$

     RDKit          2D

 11 10  0  0  0  0  0  0  0  0999 V2000
    2.9228    5.4375    0.0000 C   0  0  0  0  0  0  0  0  0  0  0  0
   -8.7685    6.1875    0.0000 C   0  0  0  0  0  0  0  0  0  0  0  0
    1.6238    6.1875    0.0000 C   0  0  0  0  0  0  0  0  0  0  0  0
    0.3248    5.4375    0.0000 C   0  0  0  0  0  0  0  0  0  0  0  0
   -0.9743    6.1875    0.0000 C   0  0  0  0  0  0  0  0  0  0  0  0
   -3.5724    6.1875    0.0000 C   0  0  0  0  0  0  0  0  0  0  0  0
   -4.8714    5.4375    0.0000 C   0  0  0  0  0  0  0  0  0  0  0  0
   -7.4695    5.4375    0.0000 C   0  0  0  0  0  0  0  0  0  0  0  0
   -7.4695    3.9375    0.0000 O   0  0  0  0  0  0  0  0  0  0  0  0
   -2.2733    5.4375    0.0000 O   0  0  0  0  0  0  0  0  0  0  0  0
   -6.1704    6.1875    0.0000 O   0  0  0  0  0  0  0  0  0  0  0  0
  3  1  1  0
  4  3  1  0
  5  4  1  0
  7  6  1  0
  8  2  1  0
  9  8  2  0
 10  5  1  0
 10  6  1  0
 11  7  1  0
 11  8  1  0
M  END
>  <NAME>  (3353) 
2-BUTOXYETHYL ACETATE

>  <SYNONYMS>  (3353) 


>  <SPECTRUM TYPE>  (3353) 
MS1

>  <INSTRUMENT TYPE>  (3353) 
EI-B

>  <INSTRUMENT>  (3353) 
HITACHI M-80B

>  <ION MODE>  (3353) 
P

>  <INCHIKEY>  (3353) 
NQBXSWAWVZHKBZ-UHFFFAOYSA-N

>  <FORMULA>  (3353) 
C8H16O3

>  <EXACT MASS>  (3353) 
160.109944372

>  <MW>  (3353) 
160

>  <ID>  (3353) 
JP006826

>  <CONTRIBUTOR>  (3353) 
University of Tokyo Team, {Faculty of Engineering, University of Tokyo

>  <COMMENT>  (3353) 
SMILES=CCCCOCCOC(C)=O
InChI=InChI=1S/C8H16O3/c1-3-4-5-10-6-7-11-8(2)9/h3-7H2,1-2H3
computed SMILES=O=C(OCCOCCCC)C
accession=JP006826
date=2016.01.19 (Created 2008.10.21, modified 2011.05.06)
author=TAJIMA S, GUNMA COLLEGE OF TECHNOLOGY
license=CC BY-NC-SA
exact mass=160.10994
ionization energy=70 eV
ion type=[M]+*
computed spectral entropy=2.5723936839618124
computed normalized entropy=0.7804978791563871
SPLASH=splash10-052o-9000000000-fbf44aa04d736b4eec16
submitter=submitter = University of Tokyo Team (Faculty of Engineering, University of Tokyo)
MoNA Rating=3.75

>  <NUM PEAKS>  (3353) 
27

>  <MASS SPECTRAL PEAKS>  (3353) 
15 5.83
27 10.36
28 3.09
29 23.72
31 2.53
39 5.18
41 31.67
42 4.51
43 99.99
44 12.53
45 9.93
55 4.46
56 49.63
57 92.91
58 5.41
61 7.27
70 2.08
71 2.27
72 1.32
73 3.71
74 6.98
85 20.98
86 1.2
87 38.98
88 12.67
100 10.45
117 1.03

>  <PREDICTED SPECTRUM>  (3353) 
14 36
15 111
16 0
19 35
26 74
27 289
28 212
29 416
30 141
31 179
32 30
33 25
37 2
38 37
39 225
40 102
41 507
42 279
43 921
44 245
45 381
46 12
51 30
52 31
53 32
54 24
55 257
56 497
57 999
58 265
59 126
60 155
61 243
62 70
63 4
69 65
70 63
71 274
72 159
73 367
74 228
75 191
76 21
85 303
86 146
87 905
88 395
89 98
90 37
100 400
101 186
103 47
105 11
117 134

$$$$

     RDKit          2D

  9  8  0  0  0  0  0  0  0  0999 V2000
   -6.4952    4.5000    0.0000 C   0  0  0  0  0  0  0  0  0  0  0  0
    2.5981    3.7500    0.0000 C   0  0  0  0  0  0  0  0  0  0  0  0
   -5.1962    3.7500    0.0000 C   0  0  0  0  0  0  0  0  0  0  0  0
    1.2990    4.5000    0.0000 C   0  0  0  0  0  0  0  0  0  0  0  0
   -2.5981    3.7500    0.0000 C   0  0  0  0  0  0  0  0  0  0  0  0
   -1.2990    4.5000    0.0000 C   0  0  0  0  0  0  0  0  0  0  0  0
   -1.2990    6.0000    0.0000 O   0  0  0  0  0  0  0  0  0  0  0  0
   -3.8971    4.5000    0.0000 O   0  0  0  0  0  0  0  0  0  0  0  0
   -0.0000    3.7500    0.0000 O   0  0  0  0  0  0  0  0  0  0  0  0
  3  1  1  0
  4  2  1  0
  6  5  1  0
  7  6  2  0
  8  3  1  0
  8  5  1  0
  9  4  1  0
  9  6  1  0
M  END
>  <NAME>  (3354) 
ETHYL ETHOXYACETATE

>  <SYNONYMS>  (3354) 


>  <SPECTRUM TYPE>  (3354) 
MS1

>  <INSTRUMENT TYPE>  (3354) 
EI-B

>  <INSTRUMENT>  (3354) 
HITACHI M-80B

>  <ION MODE>  (3354) 
P

>  <INCHIKEY>  (3354) 
CKSRFHWWBKRUKA-UHFFFAOYSA-N

>  <FORMULA>  (3354) 
C6H12O3

>  <EXACT MASS>  (3354) 
132.078644244

>  <MW>  (3354) 
132

>  <ID>  (3354) 
JP006825

>  <CONTRIBUTOR>  (3354) 
University of Tokyo Team, {Faculty of Engineering, University of Tokyo

>  <COMMENT>  (3354) 
SMILES=CCOCC(=O)OCC
InChI=InChI=1S/C6H12O3/c1-3-8-5-6(7)9-4-2/h3-5H2,1-2H3
computed SMILES=O=C(OCC)COCC
accession=JP006825
date=2016.01.19 (Created 2008.10.21, modified 2011.05.06)
author=TAJIMA S, GUNMA COLLEGE OF TECHNOLOGY
license=CC BY-NC-SA
exact mass=132.07864
ionization energy=70 eV
ion type=[M]+*
computed spectral entropy=2.3368091691199977
computed normalized entropy=0.7559938772698289
SPLASH=splash10-0a7i-9000000000-e39c5bd3d96af766615c
submitter=submitter = University of Tokyo Team (Faculty of Engineering, University of Tokyo)
MoNA Rating=3.75

>  <NUM PEAKS>  (3354) 
22

>  <MASS SPECTRAL PEAKS>  (3354) 
15 2.25
26 3.06
27 23.97
28 7.31
29 56.95
30 2.22
31 91.73
32 1.24
41 3.44
42 12.55
43 8.05
44 2.56
45 14.07
58 1.73
59 99.99
60 24.21
61 19.63
70 7
73 1.63
88 44.89
89 3.21
103 2.82

>  <PREDICTED SPECTRUM>  (3354) 
14 39
15 155
19 50
25 40
26 167
27 520
28 297
29 867
30 430
31 646
32 78
33 96
35 1
40 77
41 310
42 443
43 480
44 201
45 554
46 186
47 115
57 230
58 382
59 999
60 508
61 491
62 102
69 110
70 158
73 94
74 52
75 169
87 332
88 693
89 30
105 109
117 34

$$$$

     RDKit          2D

  9  8  0  0  0  0  0  0  0  0999 V2000
    2.2733    2.8125    0.0000 C   0  0  0  0  0  0  0  0  0  0  0  0
    0.9743    5.0625    0.0000 C   0  0  0  0  0  0  0  0  0  0  0  0
   -5.5209    2.8125    0.0000 C   0  0  0  0  0  0  0  0  0  0  0  0
   -0.3248    2.8125    0.0000 C   0  0  0  0  0  0  0  0  0  0  0  0
   -1.6238    3.5625    0.0000 C   0  0  0  0  0  0  0  0  0  0  0  0
    0.9743    3.5625    0.0000 C   0  0  0  0  0  0  0  0  0  0  0  0
   -4.2219    3.5625    0.0000 C   0  0  0  0  0  0  0  0  0  0  0  0
   -4.2219    5.0625    0.0000 O   0  0  0  0  0  0  0  0  0  0  0  0
   -2.9228    2.8125    0.0000 O   0  0  0  0  0  0  0  0  0  0  0  0
  5  4  1  0
  6  1  1  0
  6  2  1  0
  6  4  2  0
  7  3  1  0
  8  7  2  0
  9  5  1  0
  9  7  1  0
M  END
>  <NAME>  (3355) 
PRENYL ACETATE

>  <SYNONYMS>  (3355) 
3-METHYL-2-BUTENYL ACETATE

>  <SPECTRUM TYPE>  (3355) 
MS1

>  <INSTRUMENT TYPE>  (3355) 
EI-B

>  <INSTRUMENT>  (3355) 
HITACHI M-80B

>  <ION MODE>  (3355) 
P

>  <INCHIKEY>  (3355) 
XXIKYCPRDXIMQM-UHFFFAOYSA-N

>  <FORMULA>  (3355) 
C7H12O2

>  <EXACT MASS>  (3355) 
128.083729624

>  <MW>  (3355) 
128

>  <ID>  (3355) 
JP006824

>  <CONTRIBUTOR>  (3355) 
University of Tokyo Team, {Faculty of Engineering, University of Tokyo

>  <COMMENT>  (3355) 
SMILES=CC(C)=CCOC(C)=O
InChI=InChI=1S/C7H12O2/c1-6(2)4-5-9-7(3)8/h4H,5H2,1-3H3
computed SMILES=O=C(OCC=C(C)C)C
accession=JP006824
date=2016.01.19 (Created 2008.10.21, modified 2011.05.06)
author=TAJIMA S, GUNMA COLLEGE OF TECHNOLOGY
license=CC BY-NC-SA
exact mass=128.08373
ionization energy=70 eV
ion type=[M]+*
computed spectral entropy=2.6843299251477593
computed normalized entropy=0.7677174660597378
SPLASH=splash10-014l-9000000000-d42ea79643d21b0c3917
submitter=submitter = University of Tokyo Team (Faculty of Engineering, University of Tokyo)
MoNA Rating=3.75

>  <NUM PEAKS>  (3355) 
33

>  <MASS SPECTRAL PEAKS>  (3355) 
15 7.14
27 15.15
29 13.34
31 1.13
38 1.64
39 22.11
40 9.63
41 56.52
42 8.06
43 99.99
44 2.39
45 1.17
50 1.59
51 2.87
52 1.77
53 26.95
54 2.6
55 3.69
56 1.54
57 8.39
61 1.15
65 1.37
66 2.02
67 53.47
68 87.25
69 35.37
70 1.78
71 25.18
72 1.02
83 2
85 11.15
86 18.06
128 3.27

>  <PREDICTED SPECTRUM>  (3355) 
14 18
15 83
25 23
26 87
27 247
28 86
29 125
31 23
37 65
38 100
39 358
40 203
41 544
42 281
43 999
44 220
45 56
50 138
51 152
52 86
53 297
54 184
55 30
57 170
58 93
60 118
61 137
62 41
65 59
66 125
67 701
68 920
69 575
70 166
71 313
72 46
73 28
84 131
85 413
86 316
87 115
113 149
128 282
129 72

$$$$

     RDKit          2D

 15 14  0  0  0  0  0  0  0  0999 V2000
    4.2219    7.6875    0.0000 C   0  0  0  0  0  0  0  0  0  0  0  0
  -12.6656    8.4375    0.0000 C   0  0  0  0  0  0  0  0  0  0  0  0
    2.9228    8.4375    0.0000 C   0  0  0  0  0  0  0  0  0  0  0  0
    1.6238    7.6875    0.0000 C   0  0  0  0  0  0  0  0  0  0  0  0
    0.3248    8.4375    0.0000 C   0  0  0  0  0  0  0  0  0  0  0  0
   -0.9743    7.6875    0.0000 C   0  0  0  0  0  0  0  0  0  0  0  0
   -2.2733    8.4375    0.0000 C   0  0  0  0  0  0  0  0  0  0  0  0
   -3.5724    7.6875    0.0000 C   0  0  0  0  0  0  0  0  0  0  0  0
   -4.8714    8.4375    0.0000 C   0  0  0  0  0  0  0  0  0  0  0  0
   -6.1704    7.6875    0.0000 C   0  0  0  0  0  0  0  0  0  0  0  0
   -7.4695    8.4375    0.0000 C   0  0  0  0  0  0  0  0  0  0  0  0
   -8.7685    7.6875    0.0000 C   0  0  0  0  0  0  0  0  0  0  0  0
  -11.3666    7.6875    0.0000 C   0  0  0  0  0  0  0  0  0  0  0  0
  -11.3666    6.1875    0.0000 O   0  0  0  0  0  0  0  0  0  0  0  0
  -10.0675    8.4375    0.0000 O   0  0  0  0  0  0  0  0  0  0  0  0
  3  1  2  0
  4  3  1  0
  5  4  1  0
  6  5  1  0
  7  6  1  0
  8  7  1  0
  9  8  1  0
 10  9  1  0
 11 10  1  0
 12 11  1  0
 13  2  1  0
 14 13  2  0
 15 12  1  0
 15 13  1  0
M  END
>  <NAME>  (3356) 
10-UNDECENYL ACETATE

>  <SYNONYMS>  (3356) 


>  <SPECTRUM TYPE>  (3356) 
MS1

>  <INSTRUMENT TYPE>  (3356) 
EI-B

>  <INSTRUMENT>  (3356) 
HITACHI M-80B

>  <ION MODE>  (3356) 
P

>  <INCHIKEY>  (3356) 
VCVAXEYHJAFRGM-UHFFFAOYSA-N

>  <FORMULA>  (3356) 
C13H24O2

>  <EXACT MASS>  (3356) 
212.177630008

>  <MW>  (3356) 
212

>  <ID>  (3356) 
JP006822

>  <CONTRIBUTOR>  (3356) 
University of Tokyo Team, {Faculty of Engineering, University of Tokyo

>  <COMMENT>  (3356) 
SMILES=C=CCCCCCCCCCOC(C)=O
InChI=InChI=1S/C13H24O2/c1-3-4-5-6-7-8-9-10-11-12-15-13(2)14/h3H,1,4-12H2,2H3
computed SMILES=O=C(OCCCCCCCCCC=C)C
accession=JP006822
date=2016.01.19 (Created 2008.10.21, modified 2011.05.06)
author=TAJIMA S, GUNMA COLLEGE OF TECHNOLOGY
license=CC BY-NC-SA
exact mass=212.17763
ionization energy=70 eV
ion type=[M]+*
computed spectral entropy=3.0081134838155315
computed normalized entropy=0.8210899049544969
SPLASH=splash10-00kf-9000000000-9fada76dac1e8313efbd
submitter=submitter = University of Tokyo Team (Faculty of Engineering, University of Tokyo)
MoNA Rating=3.75

>  <NUM PEAKS>  (3356) 
39

>  <MASS SPECTRAL PEAKS>  (3356) 
15 3.83
27 9.62
28 3.74
29 15.11
31 1.47
39 12.7
40 2.17
41 48.25
42 11.92
43 99.99
44 2.54
53 4.88
54 38.59
55 52.37
56 6.83
57 3.68
58 1.02
61 10.18
66 3.42
67 34.57
68 38.5
69 28.57
70 3.23
71 1.38
73 2.63
79 1.63
80 1.52
81 26.1
82 33.1
83 7.17
95 17.2
96 16.45
97 3.3
109 6.47
110 7.44
111 1.25
123 2.84
124 3.01
152 1.74

>  <PREDICTED SPECTRUM>  (3356) 
12 2
26 20
27 111
28 35
29 167
30 3
31 3
32 0
38 12
39 245
40 109
41 769
42 397
43 999
44 211
45 158
46 42
47 10
50 30
51 67
52 84
53 275
54 572
55 814
56 372
57 360
58 106
59 139
60 96
61 280
62 33
63 53
64 12
65 131
66 214
67 693
68 738
69 591
70 290
71 198
72 93
73 167
74 94
75 52
77 117
78 38
79 233
80 184
81 604
82 689
83 452
84 225
85 154
86 84
87 102
88 45
89 35
91 105
92 42
93 137
94 166
95 576
96 650
97 364
98 166
99 98
100 54
101 119
102 55
103 34
105 24
107 108
108 88
109 417
110 419
111 237
112 94
113 94
114 86
115 93
116 42
119 31
121 110
122 19
123 287
124 233
125 100
126 84
127 77
128 54
129 81
130 2
131 0
133 7
135 52
136 62
137 202
138 157
139 60
140 45
141 46
142 2
143 32
151 99
152 367
153 177
154 84
155 29
156 16
168 4
169 91
170 46
171 88
172 14
197 29
212 44
213 17

$$$$

     RDKit          2D

 14 13  0  0  0  0  0  0  0  0999 V2000
    3.8971    6.7500    0.0000 C   0  0  0  0  0  0  0  0  0  0  0  0
  -11.6913    6.7500    0.0000 C   0  0  0  0  0  0  0  0  0  0  0  0
    2.5981    7.5000    0.0000 C   0  0  0  0  0  0  0  0  0  0  0  0
    1.2990    6.7500    0.0000 C   0  0  0  0  0  0  0  0  0  0  0  0
    0.0000    7.5000    0.0000 C   0  0  0  0  0  0  0  0  0  0  0  0
   -1.2990    6.7500    0.0000 C   0  0  0  0  0  0  0  0  0  0  0  0
   -2.5981    7.5000    0.0000 C   0  0  0  0  0  0  0  0  0  0  0  0
   -3.8971    6.7500    0.0000 C   0  0  0  0  0  0  0  0  0  0  0  0
   -5.1962    7.5000    0.0000 C   0  0  0  0  0  0  0  0  0  0  0  0
   -6.4952    6.7500    0.0000 C   0  0  0  0  0  0  0  0  0  0  0  0
   -7.7942    7.5000    0.0000 C   0  0  0  0  0  0  0  0  0  0  0  0
  -10.3923    7.5000    0.0000 C   0  0  0  0  0  0  0  0  0  0  0  0
  -10.3923    9.0000    0.0000 O   0  0  0  0  0  0  0  0  0  0  0  0
   -9.0933    6.7500    0.0000 O   0  0  0  0  0  0  0  0  0  0  0  0
  3  1  1  0
  4  3  1  0
  5  4  1  0
  6  5  1  0
  7  6  1  0
  8  7  1  0
  9  8  1  0
 10  9  1  0
 11 10  1  0
 12  2  1  0
 13 12  2  0
 14 11  1  0
 14 12  1  0
M  END
>  <NAME>  (3357) 
DECYL ACETATE

>  <SYNONYMS>  (3357) 


>  <SPECTRUM TYPE>  (3357) 
MS1

>  <INSTRUMENT TYPE>  (3357) 
EI-B

>  <INSTRUMENT>  (3357) 
HITACHI M-80B

>  <ION MODE>  (3357) 
P

>  <INCHIKEY>  (3357) 
NUPSHWCALHZGOV-UHFFFAOYSA-N

>  <FORMULA>  (3357) 
C12H24O2

>  <EXACT MASS>  (3357) 
200.177630008

>  <MW>  (3357) 
200

>  <ID>  (3357) 
JP006821

>  <CONTRIBUTOR>  (3357) 
University of Tokyo Team, {Faculty of Engineering, University of Tokyo

>  <COMMENT>  (3357) 
SMILES=CCCCCCCCCCOC(C)=O
InChI=InChI=1S/C12H24O2/c1-3-4-5-6-7-8-9-10-11-14-12(2)13/h3-11H2,1-2H3
computed SMILES=O=C(OCCCCCCCCCC)C
accession=JP006821
date=2016.01.19 (Created 2008.10.21, modified 2011.05.06)
author=TAJIMA S, GUNMA COLLEGE OF TECHNOLOGY
license=CC BY-NC-SA
exact mass=200.17763
ionization energy=70 eV
ion type=[M]+*
computed spectral entropy=3.0536777630958625
computed normalized entropy=0.8394791570587997
SPLASH=splash10-052f-9000000000-3f4fa52953f9fe2fb0d5
submitter=submitter = University of Tokyo Team (Faculty of Engineering, University of Tokyo)
MoNA Rating=3.75

>  <NUM PEAKS>  (3357) 
38

>  <MASS SPECTRAL PEAKS>  (3357) 
15 3.03
27 7.89
28 1.43
29 14.69
39 5.41
40 1.01
41 30.15
42 14.62
43 99.99
44 2.65
53 2.1
54 3.7
55 33.5
56 32.11
57 17.99
58 2.22
61 28.61
67 3.79
68 9.28
69 27.19
70 32.92
71 7.94
73 3.73
81 1.29
82 9.69
83 24.51
84 15.92
85 3.77
96 2.47
97 15.24
98 10.43
101 1.07
110 1.02
111 8.34
112 12.74
113 1.07
116 3.04
140 7.71

>  <PREDICTED SPECTRUM>  (3357) 
14 5
15 21
26 35
27 187
28 91
29 272
30 30
31 77
33 17
35 1
37 23
38 24
39 234
40 103
41 611
42 422
43 999
44 226
45 73
47 28
49 16
52 15
53 150
54 269
55 644
56 649
57 594
58 94
59 39
60 122
61 508
62 34
65 3
66 51
67 272
68 400
69 585
70 566
71 399
72 94
73 253
74 60
76 20
79 15
80 4
81 188
82 356
83 524
84 427
85 209
86 85
87 13
88 11
95 162
96 316
97 474
98 308
99 112
100 13
101 33
109 30
110 109
111 309
112 279
113 97
114 20
125 103
126 109
127 5
140 178
141 94
143 19

$$$$

     RDKit          2D

 13 12  0  0  0  0  0  0  0  0999 V2000
   -9.4180    5.0625    0.0000 C   0  0  0  0  0  0  0  0  0  0  0  0
   -0.3248    7.3125    0.0000 C   0  0  0  0  0  0  0  0  0  0  0  0
    2.2733    4.3125    0.0000 C   0  0  0  0  0  0  0  0  0  0  0  0
   -8.1190    4.3125    0.0000 C   0  0  0  0  0  0  0  0  0  0  0  0
   -1.6238    6.5625    0.0000 C   0  0  0  0  0  0  0  0  0  0  0  0
   -6.8200    5.0625    0.0000 C   0  0  0  0  0  0  0  0  0  0  0  0
   -5.5209    4.3125    0.0000 C   0  0  0  0  0  0  0  0  0  0  0  0
   -4.2219    5.0625    0.0000 C   0  0  0  0  0  0  0  0  0  0  0  0
   -2.9228    4.3125    0.0000 C   0  0  0  0  0  0  0  0  0  0  0  0
    0.9743    5.0625    0.0000 C   0  0  0  0  0  0  0  0  0  0  0  0
   -1.6238    5.0625    0.0000 C   0  0  0  0  0  0  0  0  0  0  0  0
    0.9743    6.5625    0.0000 O   0  0  0  0  0  0  0  0  0  0  0  0
   -0.3248    4.3125    0.0000 O   0  0  0  0  0  0  0  0  0  0  0  0
  4  1  1  0
  5  2  1  0
  6  4  1  0
  7  6  1  0
  8  7  1  0
  9  8  1  0
 10  3  1  0
 11  5  1  0
 11  9  1  0
 12 10  2  0
 13 10  1  0
 13 11  1  0
M  END
>  <NAME>  (3358) 
3-NONYL ACETATE

>  <SYNONYMS>  (3358) 
1-ETHYLHEPTYL ACETATE

>  <SPECTRUM TYPE>  (3358) 
MS1

>  <INSTRUMENT TYPE>  (3358) 
EI-B

>  <INSTRUMENT>  (3358) 
HITACHI M-80B

>  <ION MODE>  (3358) 
P

>  <INCHIKEY>  (3358) 
GPBFEZPGSQXMPX-UHFFFAOYSA-N

>  <FORMULA>  (3358) 
C11H22O2

>  <EXACT MASS>  (3358) 
186.161979944

>  <MW>  (3358) 
186

>  <ID>  (3358) 
JP006820

>  <CONTRIBUTOR>  (3358) 
University of Tokyo Team, {Faculty of Engineering, University of Tokyo

>  <COMMENT>  (3358) 
SMILES=CCCCCCC(CC)OC(C)=O
InChI=InChI=1S/C11H22O2/c1-4-6-7-8-9-11(5-2)13-10(3)12/h11H,4-9H2,1-3H3
computed SMILES=O=C(OC(CC)CCCCCC)C
accession=JP006820
date=2016.01.19 (Created 2008.10.21, modified 2011.05.06)
author=TAJIMA S, GUNMA COLLEGE OF TECHNOLOGY
license=CC BY-NC-SA
exact mass=186.16198
ionization energy=70 eV
ion type=[M]+*
computed spectral entropy=2.2881802814473096
computed normalized entropy=0.7108631727168292
SPLASH=splash10-0006-9000000000-c04ec70615a9a412b611
submitter=submitter = University of Tokyo Team (Faculty of Engineering, University of Tokyo)
MoNA Rating=3.75

>  <NUM PEAKS>  (3358) 
25

>  <MASS SPECTRAL PEAKS>  (3358) 
15 1.23
27 6.19
29 9.29
39 3.2
41 12.43
42 4.89
43 99.99
44 3.29
55 11.03
56 6.25
57 4.26
58 3.33
59 2.29
61 1.4
69 4.39
70 6.33
71 2.13
73 1.27
83 1.9
84 2.86
85 1.19
97 11.25
98 1.65
101 13.54
126 5.16

>  <PREDICTED SPECTRUM>  (3358) 
15 15
27 142
28 49
29 92
31 17
36 3
38 8
39 209
40 111
41 458
42 252
43 999
44 217
45 123
51 5
52 6
53 101
54 67
55 361
56 272
57 306
58 203
59 245
60 59
61 180
65 18
66 30
67 126
68 108
69 282
70 237
71 202
72 138
73 187
74 40
75 17
79 16
81 58
82 81
83 205
84 127
85 110
86 87
87 137
96 84
97 215
98 112
99 21
101 163
102 25
110 22
111 95
112 3
114 9
115 126
125 16
126 202
127 33
129 66
130 75
157 15

$$$$

     RDKit          2D

 13 12  0  0  0  0  0  0  0  0999 V2000
    3.5724    6.5625    0.0000 C   0  0  0  0  0  0  0  0  0  0  0  0
  -10.7171    7.3125    0.0000 C   0  0  0  0  0  0  0  0  0  0  0  0
    2.2733    7.3125    0.0000 C   0  0  0  0  0  0  0  0  0  0  0  0
    0.9743    6.5625    0.0000 C   0  0  0  0  0  0  0  0  0  0  0  0
   -0.3248    7.3125    0.0000 C   0  0  0  0  0  0  0  0  0  0  0  0
   -1.6238    6.5625    0.0000 C   0  0  0  0  0  0  0  0  0  0  0  0
   -2.9228    7.3125    0.0000 C   0  0  0  0  0  0  0  0  0  0  0  0
   -4.2219    6.5625    0.0000 C   0  0  0  0  0  0  0  0  0  0  0  0
   -5.5209    7.3125    0.0000 C   0  0  0  0  0  0  0  0  0  0  0  0
   -6.8200    6.5625    0.0000 C   0  0  0  0  0  0  0  0  0  0  0  0
   -9.4180    6.5625    0.0000 C   0  0  0  0  0  0  0  0  0  0  0  0
   -9.4180    5.0625    0.0000 O   0  0  0  0  0  0  0  0  0  0  0  0
   -8.1190    7.3125    0.0000 O   0  0  0  0  0  0  0  0  0  0  0  0
  3  1  1  0
  4  3  1  0
  5  4  1  0
  6  5  1  0
  7  6  1  0
  8  7  1  0
  9  8  1  0
 10  9  1  0
 11  2  1  0
 12 11  2  0
 13 10  1  0
 13 11  1  0
M  END
>  <NAME>  (3359) 
NONYL ACETATE

>  <SYNONYMS>  (3359) 


>  <SPECTRUM TYPE>  (3359) 
MS1

>  <INSTRUMENT TYPE>  (3359) 
EI-B

>  <INSTRUMENT>  (3359) 
HITACHI M-80B

>  <ION MODE>  (3359) 
P

>  <INCHIKEY>  (3359) 
GJQIMXVRFNLMTB-UHFFFAOYSA-N

>  <FORMULA>  (3359) 
C11H22O2

>  <EXACT MASS>  (3359) 
186.161979944

>  <MW>  (3359) 
186

>  <ID>  (3359) 
JP006819

>  <CONTRIBUTOR>  (3359) 
University of Tokyo Team, {Faculty of Engineering, University of Tokyo

>  <COMMENT>  (3359) 
SMILES=CCCCCCCCCOC(C)=O
InChI=InChI=1S/C11H22O2/c1-3-4-5-6-7-8-9-10-13-11(2)12/h3-10H2,1-2H3
computed SMILES=O=C(OCCCCCCCCC)C
accession=JP006819
date=2016.01.19 (Created 2008.10.21, modified 2011.05.06)
author=TAJIMA S, GUNMA COLLEGE OF TECHNOLOGY
license=CC BY-NC-SA
exact mass=186.16198
ionization energy=70 eV
ion type=[M]+*
computed spectral entropy=2.9416532158432935
computed normalized entropy=0.8273882514363362
SPLASH=splash10-052f-9000000000-72fc7415ca0cec6ee06e
submitter=submitter = University of Tokyo Team (Faculty of Engineering, University of Tokyo)
MoNA Rating=3.75

>  <NUM PEAKS>  (3359) 
35

>  <MASS SPECTRAL PEAKS>  (3359) 
15 3.29
18 1.16
27 9.94
28 1.63
29 13.39
39 5.61
40 1.09
41 29.89
42 14.31
43 99.99
44 2.37
53 1.9
54 3.61
55 30.11
56 37.06
57 12.51
58 2.24
61 26.5
67 2.46
68 7.85
69 22.97
70 28.7
71 5.68
73 4.47
82 5.3
83 18.09
84 17.44
85 2.57
96 1.9
97 14.52
98 16.7
99 1.06
101 1.14
116 2.74
126 8.68

>  <PREDICTED SPECTRUM>  (3359) 
14 10
15 24
16 1
26 37
27 202
28 100
29 281
30 77
31 72
32 0
33 20
34 0
35 2
37 20
38 17
39 237
40 98
41 599
42 426
43 999
44 221
45 55
46 8
47 51
49 8
53 112
54 245
55 610
56 652
57 555
58 60
59 37
60 100
61 484
62 58
66 46
67 245
68 377
69 545
70 554
71 367
72 91
73 259
74 42
79 22
81 177
82 283
83 453
84 353
85 157
86 82
87 34
95 137
96 280
97 410
98 309
99 54
100 9
101 5
111 203
112 111
113 54
114 1
115 0
125 37
126 208
127 56
129 20

$$$$

     RDKit          2D

 13 12  0  0  0  0  0  0  0  0999 V2000
    2.0822    4.9522    0.0000 C   0  0  0  0  0  0  0  0  0  0  0  0
   -6.8544    6.5907    0.0000 C   0  0  0  0  0  0  0  0  0  0  0  0
   -7.0111    2.7022    0.0000 C   0  0  0  0  0  0  0  0  0  0  0  0
   -3.4488    6.8512    0.0000 C   0  0  0  0  0  0  0  0  0  0  0  0
    0.7831    5.7022    0.0000 C   0  0  0  0  0  0  0  0  0  0  0  0
   -5.3772    6.8512    0.0000 C   0  0  0  0  0  0  0  0  0  0  0  0
   -0.5159    4.9522    0.0000 C   0  0  0  0  0  0  0  0  0  0  0  0
   -1.8149    5.7022    0.0000 C   0  0  0  0  0  0  0  0  0  0  0  0
   -3.1140    4.9522    0.0000 C   0  0  0  0  0  0  0  0  0  0  0  0
   -5.7120    3.4522    0.0000 C   0  0  0  0  0  0  0  0  0  0  0  0
   -4.4130    5.7022    0.0000 C   0  0  0  0  0  0  0  0  0  0  0  0
   -4.4130    2.7022    0.0000 O   0  0  0  0  0  0  0  0  0  0  0  0
   -5.7120    4.9522    0.0000 O   0  0  0  0  0  0  0  0  0  0  0  0
  5  1  1  0
  6  2  1  0
  7  5  1  0
  8  7  1  0
  9  8  1  0
 10  3  1  0
 11  4  1  0
 11  6  1  0
 11  9  1  0
 12 10  2  0
 13 10  1  0
 13 11  1  0
M  END
>  <NAME>  (3360) 
3-METHYL-3-OCTYL ACETATE

>  <SYNONYMS>  (3360) 
1-ETHYL-1-METHYLHEXYL ACETATE

>  <SPECTRUM TYPE>  (3360) 
MS1

>  <INSTRUMENT TYPE>  (3360) 
EI-B

>  <INSTRUMENT>  (3360) 
HITACHI M-80B

>  <ION MODE>  (3360) 
P

>  <INCHIKEY>  (3360) 
PNBFEBGIWFNZLU-UHFFFAOYSA-N

>  <FORMULA>  (3360) 
C11H22O2

>  <EXACT MASS>  (3360) 
186.161979944

>  <MW>  (3360) 
186

>  <ID>  (3360) 
JP006818

>  <CONTRIBUTOR>  (3360) 
University of Tokyo Team, {Faculty of Engineering, University of Tokyo

>  <COMMENT>  (3360) 
SMILES=CCCCCC(C)(CC)OC(C)=O
InChI=InChI=1S/C11H22O2/c1-5-7-8-9-11(4,6-2)13-10(3)12/h5-9H2,1-4H3
computed SMILES=O=C(OC(C)(CC)CCCCC)C
accession=JP006818
date=2016.01.19 (Created 2008.10.21, modified 2011.05.06)
author=TAJIMA S, GUNMA COLLEGE OF TECHNOLOGY
license=CC BY-NC-SA
exact mass=186.16198
ionization energy=70 eV
ion type=[M]+*
computed spectral entropy=2.792885095696805
computed normalized entropy=0.7734557149352683
SPLASH=splash10-006x-9200000000-84776d7d98f915e39a7f
submitter=submitter = University of Tokyo Team (Faculty of Engineering, University of Tokyo)
MoNA Rating=3.75

>  <NUM PEAKS>  (3360) 
37

>  <MASS SPECTRAL PEAKS>  (3360) 
15 2.72
27 9.4
28 1.96
29 17.17
39 7.01
41 21.06
42 4.03
43 99.99
44 2.34
45 4.12
53 2.31
54 1.18
55 31.46
56 3.72
57 9.7
58 3.51
59 2.33
67 1.42
69 7.83
70 21.6
71 13.37
72 1.59
73 50.07
74 1.95
83 6.17
84 1.23
85 3.64
96 1.16
97 9.82
98 1.5
115 60.36
116 3.43
126 7.08
127 2.44
129 7.27
130 1.74
157 3.81

>  <PREDICTED SPECTRUM>  (3360) 
26 10
27 173
28 100
29 189
38 34
39 231
40 91
41 480
42 242
43 659
44 93
45 174
50 22
51 56
52 41
53 142
54 54
55 504
56 248
57 286
58 177
59 234
60 96
61 18
65 45
66 9
67 110
68 16
69 225
70 326
71 191
72 166
73 552
74 38
75 22
77 11
82 6
83 249
84 6
85 66
86 78
87 43
97 222
98 139
99 64
101 63
111 31
113 16
114 89
115 999
116 236
126 272
127 103
129 163
144 52
157 151

$$$$

     RDKit          2D

 12 11  0  0  0  0  0  0  0  0999 V2000
    2.5981    4.5000    0.0000 C   0  0  0  0  0  0  0  0  0  0  0  0
   -5.1962    7.5000    0.0000 C   0  0  0  0  0  0  0  0  0  0  0  0
   -7.7942    4.5000    0.0000 C   0  0  0  0  0  0  0  0  0  0  0  0
    1.2990    5.2500    0.0000 C   0  0  0  0  0  0  0  0  0  0  0  0
   -3.8971    6.7500    0.0000 C   0  0  0  0  0  0  0  0  0  0  0  0
    0.0000    4.5000    0.0000 C   0  0  0  0  0  0  0  0  0  0  0  0
   -1.2990    5.2500    0.0000 C   0  0  0  0  0  0  0  0  0  0  0  0
   -2.5981    4.5000    0.0000 C   0  0  0  0  0  0  0  0  0  0  0  0
   -6.4952    5.2500    0.0000 C   0  0  0  0  0  0  0  0  0  0  0  0
   -3.8971    5.2500    0.0000 C   0  0  0  0  0  0  0  0  0  0  0  0
   -6.4952    6.7500    0.0000 O   0  0  0  0  0  0  0  0  0  0  0  0
   -5.1962    4.5000    0.0000 O   0  0  0  0  0  0  0  0  0  0  0  0
  4  1  1  0
  5  2  1  0
  6  4  1  0
  7  6  1  0
  8  7  1  0
  9  3  1  0
 10  5  1  0
 10  8  1  0
 11  9  2  0
 12  9  1  0
 12 10  1  0
M  END
>  <NAME>  (3361) 
3-OCTYL ACETATE

>  <SYNONYMS>  (3361) 
1-ETHYLHEXYL ACETATE

>  <SPECTRUM TYPE>  (3361) 
MS1

>  <INSTRUMENT TYPE>  (3361) 
EI-B

>  <INSTRUMENT>  (3361) 
HITACHI M-80B

>  <ION MODE>  (3361) 
P

>  <INCHIKEY>  (3361) 
STZUZYMKSMSTOU-UHFFFAOYSA-N

>  <FORMULA>  (3361) 
C10H20O2

>  <EXACT MASS>  (3361) 
172.14632988

>  <MW>  (3361) 
172

>  <ID>  (3361) 
JP006817

>  <CONTRIBUTOR>  (3361) 
University of Tokyo Team, {Faculty of Engineering, University of Tokyo

>  <COMMENT>  (3361) 
SMILES=CCCCCC(CC)OC(C)=O
InChI=InChI=1S/C10H20O2/c1-4-6-7-8-10(5-2)12-9(3)11/h10H,4-8H2,1-3H3
computed SMILES=O=C(OC(CC)CCCCC)C
accession=JP006817
date=2016.01.19 (Created 2008.10.21, modified 2011.05.06)
author=TAJIMA S, GUNMA COLLEGE OF TECHNOLOGY
license=CC BY-NC-SA
exact mass=172.14633
ionization energy=70 eV
ion type=[M]+*
computed spectral entropy=2.1894314664600367
computed normalized entropy=0.6889220835571338
SPLASH=splash10-0006-9100000000-e3f1be8935925204bdc7
submitter=submitter = University of Tokyo Team (Faculty of Engineering, University of Tokyo)
MoNA Rating=3.75

>  <NUM PEAKS>  (3361) 
24

>  <MASS SPECTRAL PEAKS>  (3361) 
15 1.51
18 1.14
27 6.55
29 8.61
39 3.01
41 11.21
42 2.96
43 99.99
44 2.55
55 8.64
56 6.34
57 5.38
58 2.51
59 2.13
61 1.67
69 2.8
70 6.19
71 1.98
73 1.26
83 6.67
84 1.86
101 13.6
112 5.4
143 2.66

>  <PREDICTED SPECTRUM>  (3361) 
15 28
26 26
27 196
28 91
29 165
30 6
31 67
38 2
39 218
40 99
41 384
42 185
43 999
44 195
45 77
50 8
51 10
52 11
53 84
54 53
55 323
56 224
57 206
58 156
59 160
61 140
65 14
66 18
67 86
68 54
69 154
70 198
71 204
72 127
73 139
81 27
82 54
83 268
84 129
85 59
86 25
87 80
97 28
99 7
100 69
101 439
102 114
110 10
111 35
112 251
113 64
114 38
115 28
129 69
143 116

$$$$

     RDKit          2D

 12 11  0  0  0  0  0  0  0  0999 V2000
    3.2476    5.6250    0.0000 C   0  0  0  0  0  0  0  0  0  0  0  0
   -9.7428    5.6250    0.0000 C   0  0  0  0  0  0  0  0  0  0  0  0
    1.9486    6.3750    0.0000 C   0  0  0  0  0  0  0  0  0  0  0  0
    0.6495    5.6250    0.0000 C   0  0  0  0  0  0  0  0  0  0  0  0
   -0.6495    6.3750    0.0000 C   0  0  0  0  0  0  0  0  0  0  0  0
   -1.9486    5.6250    0.0000 C   0  0  0  0  0  0  0  0  0  0  0  0
   -3.2476    6.3750    0.0000 C   0  0  0  0  0  0  0  0  0  0  0  0
   -4.5466    5.6250    0.0000 C   0  0  0  0  0  0  0  0  0  0  0  0
   -5.8457    6.3750    0.0000 C   0  0  0  0  0  0  0  0  0  0  0  0
   -8.4437    6.3750    0.0000 C   0  0  0  0  0  0  0  0  0  0  0  0
   -8.4437    7.8750    0.0000 O   0  0  0  0  0  0  0  0  0  0  0  0
   -7.1447    5.6250    0.0000 O   0  0  0  0  0  0  0  0  0  0  0  0
  3  1  1  0
  4  3  1  0
  5  4  1  0
  6  5  1  0
  7  6  1  0
  8  7  1  0
  9  8  1  0
 10  2  1  0
 11 10  2  0
 12  9  1  0
 12 10  1  0
M  END
>  <NAME>  (3362) 
OCTYL ACETATE

>  <SYNONYMS>  (3362) 


>  <SPECTRUM TYPE>  (3362) 
MS1

>  <INSTRUMENT TYPE>  (3362) 
EI-B

>  <INSTRUMENT>  (3362) 
HITACHI M-80B

>  <ION MODE>  (3362) 
P

>  <INCHIKEY>  (3362) 
YLYBTZIQSIBWLI-UHFFFAOYSA-N

>  <FORMULA>  (3362) 
C10H20O2

>  <EXACT MASS>  (3362) 
172.14632988

>  <MW>  (3362) 
172

>  <ID>  (3362) 
JP006816

>  <CONTRIBUTOR>  (3362) 
University of Tokyo Team, {Faculty of Engineering, University of Tokyo

>  <COMMENT>  (3362) 
SMILES=CCCCCCCCOC(C)=O
InChI=InChI=1S/C10H20O2/c1-3-4-5-6-7-8-9-12-10(2)11/h3-9H2,1-2H3
computed SMILES=O=C(OCCCCCCCC)C
accession=JP006816
date=2016.01.19 (Created 2008.10.21, modified 2011.05.06)
author=TAJIMA S, GUNMA COLLEGE OF TECHNOLOGY
license=CC BY-NC-SA
exact mass=172.14633
ionization energy=70 eV
ion type=[M]+*
computed spectral entropy=2.844396315480267
computed normalized entropy=0.8134964004731883
SPLASH=splash10-0006-9000000000-699c43ddb8113422b57c
submitter=submitter = University of Tokyo Team (Faculty of Engineering, University of Tokyo)
MoNA Rating=3.75

>  <NUM PEAKS>  (3362) 
33

>  <MASS SPECTRAL PEAKS>  (3362) 
15 3.38
27 10.37
28 2.32
29 14.79
31 1.07
39 7.33
40 1.28
41 27.65
42 18.05
43 99.99
44 2.42
53 1.88
54 2.08
55 27.18
56 32.47
57 11.88
58 2.45
61 24.65
67 2.07
68 6.26
69 22.24
70 31.71
71 5
73 5.28
82 4.27
83 19.66
84 24.67
85 1.61
97 1.98
98 1.51
101 1.02
112 10.21
116 2.22

>  <PREDICTED SPECTRUM>  (3362) 
14 17
15 35
16 4
26 36
27 208
28 104
29 282
30 46
31 65
32 3
33 29
37 11
38 9
39 231
40 93
41 578
42 428
43 999
44 206
45 60
47 51
49 8
52 2
53 104
54 222
55 574
56 652
57 524
58 34
59 25
60 68
61 452
66 39
67 217
68 343
69 511
70 526
71 326
72 91
73 264
74 26
79 20
81 159
82 215
83 351
84 336
85 69
86 68
95 51
96 195
97 297
98 76
99 35
101 15
111 91
112 232
113 86
114 3
115 6

$$$$

     RDKit          2D

 12 11  0  0  0  0  0  0  0  0999 V2000
    2.5981    4.5000    0.0000 C   0  0  0  0  0  0  0  0  0  0  0  0
   -1.2990    2.2500    0.0000 C   0  0  0  0  0  0  0  0  0  0  0  0
   -7.7942    4.5000    0.0000 C   0  0  0  0  0  0  0  0  0  0  0  0
    1.2990    5.2500    0.0000 C   0  0  0  0  0  0  0  0  0  0  0  0
   -2.5981    3.0000    0.0000 C   0  0  0  0  0  0  0  0  0  0  0  0
    0.0000    4.5000    0.0000 C   0  0  0  0  0  0  0  0  0  0  0  0
   -1.2990    5.2500    0.0000 C   0  0  0  0  0  0  0  0  0  0  0  0
   -3.8971    5.2500    0.0000 C   0  0  0  0  0  0  0  0  0  0  0  0
   -6.4952    5.2500    0.0000 C   0  0  0  0  0  0  0  0  0  0  0  0
   -2.5981    4.5000    0.0000 C   0  0  0  0  0  0  0  0  0  0  0  0
   -6.4952    6.7500    0.0000 O   0  0  0  0  0  0  0  0  0  0  0  0
   -5.1962    4.5000    0.0000 O   0  0  0  0  0  0  0  0  0  0  0  0
  4  1  1  0
  5  2  1  0
  6  4  1  0
  7  6  1  0
  9  3  1  0
 10  5  1  0
 10  7  1  0
 10  8  1  0
 11  9  2  0
 12  8  1  0
 12  9  1  0
M  END
>  <NAME>  (3363) 
2-ETHYLHEXYL ACETATE

>  <SYNONYMS>  (3363) 


>  <SPECTRUM TYPE>  (3363) 
MS1

>  <INSTRUMENT TYPE>  (3363) 
EI-B

>  <INSTRUMENT>  (3363) 
HITACHI M-80B

>  <ION MODE>  (3363) 
P

>  <INCHIKEY>  (3363) 
WOYWLLHHWAMFCB-UHFFFAOYSA-N

>  <FORMULA>  (3363) 
C10H20O2

>  <EXACT MASS>  (3363) 
172.14632988

>  <MW>  (3363) 
172

>  <ID>  (3363) 
JP006815

>  <CONTRIBUTOR>  (3363) 
University of Tokyo Team, {Faculty of Engineering, University of Tokyo

>  <COMMENT>  (3363) 
SMILES=CCCCC(CC)COC(C)=O
InChI=InChI=1S/C10H20O2/c1-4-6-7-10(5-2)8-12-9(3)11/h10H,4-8H2,1-3H3
computed SMILES=O=C(OCC(CC)CCCC)C
accession=JP006815
date=2016.01.19 (Created 2008.10.21, modified 2011.05.06)
author=TAJIMA S, GUNMA COLLEGE OF TECHNOLOGY
license=CC BY-NC-SA
exact mass=172.14633
ionization energy=70 eV
ion type=[M]+*
computed spectral entropy=2.747105891111099
computed normalized entropy=0.77902014610662
SPLASH=splash10-0596-9000000000-dec4956ee2597328aa0d
submitter=submitter = University of Tokyo Team (Faculty of Engineering, University of Tokyo)
MoNA Rating=3.75

>  <NUM PEAKS>  (3363) 
34

>  <MASS SPECTRAL PEAKS>  (3363) 
15 3.15
27 11.13
28 1.54
29 16.56
31 1.03
39 7.61
41 26.81
42 9.11
43 99.99
44 2.32
53 2.13
54 1.61
55 26.91
56 18.08
57 37.37
58 1.69
61 5.49
67 1.2
68 1.17
69 9.16
70 58.2
71 8.24
72 1.18
73 7.78
74 12.12
75 1.2
82 1.94
83 14.9
84 7.95
86 4.64
97 1.19
98 1.02
111 1.25
112 8.1

>  <PREDICTED SPECTRUM>  (3363) 
14 24
15 63
16 9
19 9
25 9
26 66
27 306
28 125
29 370
30 12
31 114
32 15
33 1
35 13
36 0
37 16
38 33
39 305
40 128
41 731
42 390
43 934
44 198
45 268
46 15
47 49
48 3
50 67
51 30
52 24
53 131
54 161
55 663
56 720
57 831
58 101
59 80
60 143
61 350
62 34
63 24
67 176
68 230
69 612
70 999
71 505
72 119
73 203
74 160
75 48
76 21
79 42
81 72
82 202
83 587
84 389
85 96
86 52
87 75
95 128
96 127
97 327
98 211
99 124
100 29
112 596
113 237
114 36
115 154

$$$$

     RDKit          2D

 11 10  0  0  0  0  0  0  0  0999 V2000
    2.9228    5.4375    0.0000 C   0  0  0  0  0  0  0  0  0  0  0  0
   -8.7685    6.1875    0.0000 C   0  0  0  0  0  0  0  0  0  0  0  0
    1.6238    6.1875    0.0000 C   0  0  0  0  0  0  0  0  0  0  0  0
    0.3248    5.4375    0.0000 C   0  0  0  0  0  0  0  0  0  0  0  0
   -0.9743    6.1875    0.0000 C   0  0  0  0  0  0  0  0  0  0  0  0
   -2.2733    5.4375    0.0000 C   0  0  0  0  0  0  0  0  0  0  0  0
   -3.5724    6.1875    0.0000 C   0  0  0  0  0  0  0  0  0  0  0  0
   -4.8714    5.4375    0.0000 C   0  0  0  0  0  0  0  0  0  0  0  0
   -7.4695    5.4375    0.0000 C   0  0  0  0  0  0  0  0  0  0  0  0
   -7.4695    3.9375    0.0000 O   0  0  0  0  0  0  0  0  0  0  0  0
   -6.1704    6.1875    0.0000 O   0  0  0  0  0  0  0  0  0  0  0  0
  3  1  1  0
  4  3  1  0
  5  4  1  0
  6  5  1  0
  7  6  1  0
  8  7  1  0
  9  2  1  0
 10  9  2  0
 11  8  1  0
 11  9  1  0
M  END
>  <NAME>  (3364) 
HEPTYL ACETATE

>  <SYNONYMS>  (3364) 


>  <SPECTRUM TYPE>  (3364) 
MS1

>  <INSTRUMENT TYPE>  (3364) 
EI-B

>  <INSTRUMENT>  (3364) 
HITACHI M-80B

>  <ION MODE>  (3364) 
P

>  <INCHIKEY>  (3364) 
ZCZSIDMEHXZRLG-UHFFFAOYSA-N

>  <FORMULA>  (3364) 
C9H18O2

>  <EXACT MASS>  (3364) 
158.130679816

>  <MW>  (3364) 
158

>  <ID>  (3364) 
JP006814

>  <CONTRIBUTOR>  (3364) 
University of Tokyo Team, {Faculty of Engineering, University of Tokyo

>  <COMMENT>  (3364) 
SMILES=CCCCCCCOC(C)=O
InChI=InChI=1S/C9H18O2/c1-3-4-5-6-7-8-11-9(2)10/h3-8H2,1-2H3
computed SMILES=O=C(OCCCCCCC)C
accession=JP006814
date=2016.01.19 (Created 2008.10.21, modified 2011.05.06)
author=TAJIMA S, GUNMA COLLEGE OF TECHNOLOGY
license=CC BY-NC-SA
exact mass=158.13068
ionization energy=70 eV
ion type=[M]+*
computed spectral entropy=2.679983473763436
computed normalized entropy=0.7879529392245197
SPLASH=splash10-052f-9000000000-3768aad8cf9bcfef7e17
submitter=submitter = University of Tokyo Team (Faculty of Engineering, University of Tokyo)
MoNA Rating=3.75

>  <NUM PEAKS>  (3364) 
30

>  <MASS SPECTRAL PEAKS>  (3364) 
15 4.05
27 10.41
28 2.11
29 12.69
31 1
39 7.25
40 1.32
41 24.61
42 16.1
43 99.99
44 2.68
53 1.4
54 2.75
55 26.8
56 39.92
57 13.03
58 2.65
61 24.19
67 1.02
68 5.15
69 18.96
70 38.23
71 2.53
73 7.27
83 3.53
97 1.72
98 17.83
99 1.19
101 1.09
116 1.7

>  <PREDICTED SPECTRUM>  (3364) 
14 22
15 48
16 3
26 33
27 205
28 113
29 260
30 7
31 70
32 4
33 33
37 5
38 1
39 221
40 86
41 555
42 419
43 999
44 203
45 62
47 20
49 1
53 97
54 183
55 535
56 647
57 495
58 28
59 15
60 66
61 410
66 4
67 183
68 308
69 470
70 488
71 237
72 77
73 249
81 88
83 191
84 37
85 67
86 46
87 16
96 111
97 160
98 226
99 91
101 1

$$$$

     RDKit          2D

 11 10  0  0  0  0  0  0  0  0999 V2000
   -9.4180    0.5625    0.0000 C   0  0  0  0  0  0  0  0  0  0  0  0
   -1.6238    6.5625    0.0000 C   0  0  0  0  0  0  0  0  0  0  0  0
   -8.1190   -0.1875    0.0000 C   0  0  0  0  0  0  0  0  0  0  0  0
   -6.8200    0.5625    0.0000 C   0  0  0  0  0  0  0  0  0  0  0  0
   -5.5209   -0.1875    0.0000 C   0  0  0  0  0  0  0  0  0  0  0  0
   -4.2219    0.5625    0.0000 C   0  0  0  0  0  0  0  0  0  0  0  0
   -4.2219    2.0625    0.0000 C   0  0  0  0  0  0  0  0  0  0  0  0
   -2.9228    2.8125    0.0000 C   0  0  0  0  0  0  0  0  0  0  0  0
   -1.6238    5.0625    0.0000 C   0  0  0  0  0  0  0  0  0  0  0  0
   -0.3248    4.3125    0.0000 O   0  0  0  0  0  0  0  0  0  0  0  0
   -2.9228    4.3125    0.0000 O   0  0  0  0  0  0  0  0  0  0  0  0
  3  1  1  0
  4  3  1  0
  5  4  1  0
  5  6  2  0
  7  6  1  0
  8  7  1  0
  9  2  1  0
 10  9  2  0
 11  8  1  0
 11  9  1  0
M  END
>  <NAME>  (3365) 
CIS-3-HEPTENYL ACETATE

>  <SYNONYMS>  (3365) 


>  <SPECTRUM TYPE>  (3365) 
MS1

>  <INSTRUMENT TYPE>  (3365) 
EI-B

>  <INSTRUMENT>  (3365) 
HITACHI M-80B

>  <ION MODE>  (3365) 
P

>  <INCHIKEY>  (3365) 
AAYIYWGTGAUKQY-WAYWQWQTSA-N

>  <FORMULA>  (3365) 
C9H16O2

>  <EXACT MASS>  (3365) 
156.115029752

>  <MW>  (3365) 
156

>  <ID>  (3365) 
JP006813

>  <CONTRIBUTOR>  (3365) 
University of Tokyo Team, {Faculty of Engineering, University of Tokyo

>  <COMMENT>  (3365) 
SMILES=CCCC=CCCOC(C)=O
InChI=InChI=1S/C9H16O2/c1-3-4-5-6-7-8-11-9(2)10/h5-6H,3-4,7-8H2,1-2H3/b6-5-
computed SMILES=O=C(OCCC=CCCC)C
accession=JP006813
date=2016.01.19 (Created 2008.10.21, modified 2011.05.06)
author=TAJIMA S, GUNMA COLLEGE OF TECHNOLOGY
license=CC BY-NC-SA
exact mass=156.11503
ionization energy=70 eV
ion type=[M]+*
computed spectral entropy=2.426009321619033
computed normalized entropy=0.7536821715445851
SPLASH=splash10-0006-9000000000-7e9c9fade1cabee8700f
submitter=submitter = University of Tokyo Team (Faculty of Engineering, University of Tokyo)
MoNA Rating=3.75

>  <NUM PEAKS>  (3365) 
25

>  <MASS SPECTRAL PEAKS>  (3365) 
15 5.71
27 10.9
28 2.19
29 7.54
39 11.9
40 1.59
41 17.34
42 3.87
43 99.99
44 2.11
51 1.2
53 4.94
54 52.49
55 17.8
56 1.05
65 1.35
67 24.38
68 5.63
73 3.03
79 1.39
81 34.17
82 2.24
95 1.56
96 25.73
97 2.33

>  <PREDICTED SPECTRUM>  (3365) 
14 32
15 112
16 16
25 0
26 97
27 315
28 149
29 300
31 52
32 25
37 45
38 79
39 421
40 183
41 558
42 322
43 999
44 160
45 67
50 95
51 154
52 125
53 340
54 667
55 508
56 189
57 192
60 25
61 157
62 29
63 78
64 16
65 214
66 234
67 754
68 491
69 180
70 109
71 152
72 25
73 159
75 15
77 48
79 128
81 465
82 574
83 148
84 20
87 8
95 17
96 670
97 272
98 53
101 9
113 40

$$$$

     RDKit          2D

 10  9  0  0  0  0  0  0  0  0999 V2000
    2.2733    4.3125    0.0000 C   0  0  0  0  0  0  0  0  0  0  0  0
   -1.6238    6.5625    0.0000 C   0  0  0  0  0  0  0  0  0  0  0  0
   -6.8200    5.0625    0.0000 C   0  0  0  0  0  0  0  0  0  0  0  0
    0.9743    5.0625    0.0000 C   0  0  0  0  0  0  0  0  0  0  0  0
   -0.3248    4.3125    0.0000 C   0  0  0  0  0  0  0  0  0  0  0  0
   -2.9228    4.3125    0.0000 C   0  0  0  0  0  0  0  0  0  0  0  0
   -1.6238    5.0625    0.0000 C   0  0  0  0  0  0  0  0  0  0  0  0
   -5.5209    4.3125    0.0000 C   0  0  0  0  0  0  0  0  0  0  0  0
   -5.5209    2.8125    0.0000 O   0  0  0  0  0  0  0  0  0  0  0  0
   -4.2219    5.0625    0.0000 O   0  0  0  0  0  0  0  0  0  0  0  0
  4  1  1  0
  5  4  1  0
  7  2  1  0
  7  5  1  0
  7  6  1  0
  8  3  1  0
  9  8  2  0
 10  6  1  0
 10  8  1  0
M  END
>  <NAME>  (3366) 
2-METHYLPENTYL ACETATE

>  <SYNONYMS>  (3366) 


>  <SPECTRUM TYPE>  (3366) 
MS1

>  <INSTRUMENT TYPE>  (3366) 
EI-B

>  <INSTRUMENT>  (3366) 
HITACHI M-80B

>  <ION MODE>  (3366) 
P

>  <INCHIKEY>  (3366) 
UZTVUHTZGGZFCI-UHFFFAOYSA-N

>  <FORMULA>  (3366) 
C8H16O2

>  <EXACT MASS>  (3366) 
144.115029752

>  <MW>  (3366) 
144

>  <ID>  (3366) 
JP006812

>  <CONTRIBUTOR>  (3366) 
University of Tokyo Team, {Faculty of Engineering, University of Tokyo

>  <COMMENT>  (3366) 
SMILES=CCCC(C)COC(C)=O
InChI=InChI=1S/C8H16O2/c1-4-5-7(2)6-10-8(3)9/h7H,4-6H2,1-3H3
computed SMILES=O=C(OCC(C)CCC)C
accession=JP006812
date=2016.01.19 (Created 2008.10.21, modified 2011.05.06)
author=TAJIMA S, GUNMA COLLEGE OF TECHNOLOGY
license=CC BY-NC-SA
exact mass=144.11503
ionization energy=70 eV
ion type=[M]+*
computed spectral entropy=2.4508321594462923
computed normalized entropy=0.7613938197030771
SPLASH=splash10-0006-9000000000-a8d6937cfdbbaec8726d
submitter=submitter = University of Tokyo Team (Faculty of Engineering, University of Tokyo)
MoNA Rating=3.75

>  <NUM PEAKS>  (3366) 
25

>  <MASS SPECTRAL PEAKS>  (3366) 
15 2.48
27 8.46
28 1.7
29 7.79
39 6.44
40 1.01
41 15.01
42 10.24
43 99.99
44 2.41
53 1.07
55 11.17
56 34.83
57 2.34
61 6.59
69 11.34
70 2.48
71 3.91
72 8.66
73 14
74 7.55
75 1
83 2.09
84 20.3
85 1.83

>  <PREDICTED SPECTRUM>  (3366) 
15 5
25 1
26 45
27 241
28 95
29 225
31 69
33 15
36 8
37 34
38 46
39 262
40 108
41 587
42 386
43 999
44 245
45 261
46 16
50 39
51 36
52 32
53 121
54 70
55 340
56 634
57 330
58 52
59 85
60 188
61 230
62 32
66 11
67 105
68 85
69 643
70 221
71 112
72 96
73 242
74 186
84 642
85 297
86 76
87 238
88 35
89 33
102 10

$$$$

     RDKit          2D

 10  9  0  0  0  0  0  0  0  0999 V2000
    2.5981    4.5000    0.0000 C   0  0  0  0  0  0  0  0  0  0  0  0
   -7.7942    4.5000    0.0000 C   0  0  0  0  0  0  0  0  0  0  0  0
    1.2990    5.2500    0.0000 C   0  0  0  0  0  0  0  0  0  0  0  0
    0.0000    4.5000    0.0000 C   0  0  0  0  0  0  0  0  0  0  0  0
   -1.2990    5.2500    0.0000 C   0  0  0  0  0  0  0  0  0  0  0  0
   -2.5981    4.5000    0.0000 C   0  0  0  0  0  0  0  0  0  0  0  0
   -3.8971    5.2500    0.0000 C   0  0  0  0  0  0  0  0  0  0  0  0
   -6.4952    5.2500    0.0000 C   0  0  0  0  0  0  0  0  0  0  0  0
   -6.4952    6.7500    0.0000 O   0  0  0  0  0  0  0  0  0  0  0  0
   -5.1962    4.5000    0.0000 O   0  0  0  0  0  0  0  0  0  0  0  0
  3  1  1  0
  4  3  1  0
  5  4  1  0
  6  5  1  0
  7  6  1  0
  8  2  1  0
  9  8  2  0
 10  7  1  0
 10  8  1  0
M  END
>  <NAME>  (3367) 
HEXYL ACETATE

>  <SYNONYMS>  (3367) 


>  <SPECTRUM TYPE>  (3367) 
MS1

>  <INSTRUMENT TYPE>  (3367) 
EI-B

>  <INSTRUMENT>  (3367) 
HITACHI M-80B

>  <ION MODE>  (3367) 
P

>  <INCHIKEY>  (3367) 
AOGQPLXWSUTHQB-UHFFFAOYSA-N

>  <FORMULA>  (3367) 
C8H16O2

>  <EXACT MASS>  (3367) 
144.115029752

>  <MW>  (3367) 
144

>  <ID>  (3367) 
JP006811

>  <CONTRIBUTOR>  (3367) 
University of Tokyo Team, {Faculty of Engineering, University of Tokyo

>  <COMMENT>  (3367) 
SMILES=CCCCCCOC(C)=O
InChI=InChI=1S/C8H16O2/c1-3-4-5-6-7-10-8(2)9/h3-7H2,1-2H3
computed SMILES=O=C(OCCCCCC)C
accession=JP006811
date=2016.01.19 (Created 2008.10.21, modified 2011.05.06)
author=TAJIMA S, GUNMA COLLEGE OF TECHNOLOGY
license=CC BY-NC-SA
exact mass=144.11503
ionization energy=70 eV
ion type=[M]+*
computed spectral entropy=2.400731668777888
computed normalized entropy=0.7656629237526668
SPLASH=splash10-0006-9000000000-88601f99d038175f4279
submitter=submitter = University of Tokyo Team (Faculty of Engineering, University of Tokyo)
MoNA Rating=3.75

>  <NUM PEAKS>  (3367) 
23

>  <MASS SPECTRAL PEAKS>  (3367) 
15 4.65
27 9.39
28 2.85
29 9.13
31 1.17
39 6.29
41 17.91
42 16.81
43 99.99
44 2.62
54 1.39
55 21.15
56 40.47
57 2.77
58 2.59
61 23.68
69 12.48
71 1.09
73 7.89
83 2.24
84 21.34
85 1.41
101 1.07

>  <PREDICTED SPECTRUM>  (3367) 
14 30
15 57
16 4
26 40
27 215
28 99
29 242
31 57
32 3
39 199
40 74
41 506
42 382
43 999
44 201
45 45
53 108
54 136
55 459
56 556
57 384
58 9
61 313
67 127
68 189
69 376
70 206
71 93
72 21
73 214
81 17
83 81
84 238
85 137
86 35
87 10
101 39

$$$$

     RDKit          2D

 10  9  0  0  0  0  0  0  0  0999 V2000
    1.9486    3.3750    0.0000 C   0  0  0  0  0  0  0  0  0  0  0  0
    0.6495    1.1250    0.0000 C   0  0  0  0  0  0  0  0  0  0  0  0
   -5.8457    3.3750    0.0000 C   0  0  0  0  0  0  0  0  0  0  0  0
    0.6495    4.1250    0.0000 C   0  0  0  0  0  0  0  0  0  0  0  0
   -0.6495    1.8750    0.0000 C   0  0  0  0  0  0  0  0  0  0  0  0
   -1.9486    4.1250    0.0000 C   0  0  0  0  0  0  0  0  0  0  0  0
   -4.5466    4.1250    0.0000 C   0  0  0  0  0  0  0  0  0  0  0  0
   -0.6495    3.3750    0.0000 C   0  0  0  0  0  0  0  0  0  0  0  0
   -4.5466    5.6250    0.0000 O   0  0  0  0  0  0  0  0  0  0  0  0
   -3.2476    3.3750    0.0000 O   0  0  0  0  0  0  0  0  0  0  0  0
  4  1  1  0
  5  2  1  0
  7  3  1  0
  8  4  1  0
  8  5  1  0
  8  6  1  0
  9  7  2  0
 10  6  1  0
 10  7  1  0
M  END
>  <NAME>  (3368) 
2-ETHYLBUTYL ACETATE

>  <SYNONYMS>  (3368) 


>  <SPECTRUM TYPE>  (3368) 
MS1

>  <INSTRUMENT TYPE>  (3368) 
EI-B

>  <INSTRUMENT>  (3368) 
HITACHI M-80B

>  <ION MODE>  (3368) 
P

>  <INCHIKEY>  (3368) 
HQLKZWRSOHTERR-UHFFFAOYSA-N

>  <FORMULA>  (3368) 
C8H16O2

>  <EXACT MASS>  (3368) 
144.115029752

>  <MW>  (3368) 
144

>  <ID>  (3368) 
JP006810

>  <CONTRIBUTOR>  (3368) 
University of Tokyo Team, {Faculty of Engineering, University of Tokyo

>  <COMMENT>  (3368) 
SMILES=CCC(CC)COC(C)=O
InChI=InChI=1S/C8H16O2/c1-4-8(5-2)6-10-7(3)9/h8H,4-6H2,1-3H3
computed SMILES=O=C(OCC(CC)CC)C
accession=JP006810
date=2016.01.19 (Created 2008.10.21, modified 2011.05.06)
author=TAJIMA S, GUNMA COLLEGE OF TECHNOLOGY
license=CC BY-NC-SA
exact mass=144.11503
ionization energy=70 eV
ion type=[M]+*
computed spectral entropy=2.4360272501515787
computed normalized entropy=0.7567944160291812
SPLASH=splash10-0006-9000000000-bca3da23b67bd36d65b4
submitter=submitter = University of Tokyo Team (Faculty of Engineering, University of Tokyo)
MoNA Rating=3.75

>  <NUM PEAKS>  (3368) 
25

>  <MASS SPECTRAL PEAKS>  (3368) 
15 3.22
27 9.34
29 10.56
31 1.15
39 5.68
41 13.5
42 8.47
43 99.99
44 2.68
53 1.32
54 1.02
55 18.45
56 11.38
57 1.55
61 2.18
69 17.91
70 4.77
71 4.66
72 1.35
73 10.57
74 10.21
75 1.42
84 28.51
85 2.56
86 3.29

>  <PREDICTED SPECTRUM>  (3368) 
14 19
15 51
25 3
26 65
27 301
28 119
29 253
31 132
36 19
37 41
38 56
39 303
40 97
41 545
42 390
43 999
44 231
45 169
50 67
51 15
53 127
54 64
55 358
56 378
57 249
58 13
59 91
60 162
61 173
67 101
68 30
69 684
70 236
71 196
72 170
73 250
74 185
84 661
85 267
86 71
87 148
88 2
101 59
115 5

$$$$

     RDKit          2D

 10  9  0  0  0  0  0  0  0  0999 V2000
   -3.5724    2.8125    0.0000 C   0  0  0  0  0  0  0  0  0  0  0  0
    5.5209    5.0625    0.0000 C   0  0  0  0  0  0  0  0  0  0  0  0
   -2.2733    3.5625    0.0000 C   0  0  0  0  0  0  0  0  0  0  0  0
   -2.2733    5.0625    0.0000 C   0  0  0  0  0  0  0  0  0  0  0  0
   -0.9743    5.8125    0.0000 C   0  0  0  0  0  0  0  0  0  0  0  0
    0.3248    5.0625    0.0000 C   0  0  0  0  0  0  0  0  0  0  0  0
    1.6238    5.8125    0.0000 C   0  0  0  0  0  0  0  0  0  0  0  0
    4.2219    5.8125    0.0000 C   0  0  0  0  0  0  0  0  0  0  0  0
    4.2219    7.3125    0.0000 O   0  0  0  0  0  0  0  0  0  0  0  0
    2.9228    5.0625    0.0000 O   0  0  0  0  0  0  0  0  0  0  0  0
  3  1  1  0
  4  3  1  0
  4  5  2  0
  6  5  1  0
  7  6  1  0
  8  2  1  0
  9  8  2  0
 10  7  1  0
 10  8  1  0
M  END
>  <NAME>  (3369) 
CIS-3-HEXENYL ACETATE

>  <SYNONYMS>  (3369) 


>  <SPECTRUM TYPE>  (3369) 
MS1

>  <INSTRUMENT TYPE>  (3369) 
EI-B

>  <INSTRUMENT>  (3369) 
HITACHI M-80B

>  <ION MODE>  (3369) 
P

>  <INCHIKEY>  (3369) 
NPFVOOAXDOBMCE-PLNGDYQASA-N

>  <FORMULA>  (3369) 
C8H14O2

>  <EXACT MASS>  (3369) 
142.099379688

>  <MW>  (3369) 
142

>  <ID>  (3369) 
JP006809

>  <CONTRIBUTOR>  (3369) 
University of Tokyo Team, {Faculty of Engineering, University of Tokyo

>  <COMMENT>  (3369) 
SMILES=CCC=CCCOC(C)=O
InChI=InChI=1S/C8H14O2/c1-3-4-5-6-7-10-8(2)9/h4-5H,3,6-7H2,1-2H3/b5-4-
computed SMILES=O=C(OCCC=CCC)C
accession=JP006809
date=2016.01.19 (Created 2008.10.21, modified 2011.05.06)
author=TAJIMA S, GUNMA COLLEGE OF TECHNOLOGY
license=CC BY-NC-SA
exact mass=142.09938
ionization energy=70 eV
ion type=[M]+*
computed spectral entropy=2.1688439513736046
computed normalized entropy=0.7123757488203578
SPLASH=splash10-0006-9000000000-92d448bb2099c2ca8a3e
submitter=submitter = University of Tokyo Team (Faculty of Engineering, University of Tokyo)
MoNA Rating=3.75

>  <NUM PEAKS>  (3369) 
21

>  <MASS SPECTRAL PEAKS>  (3369) 
15 5.07
27 9.34
28 1.95
29 4.45
39 11.98
40 1.52
41 17.55
42 3.77
43 99.99
44 2.43
51 1.17
53 4.36
54 6.96
55 6.2
67 56.33
68 3.68
69 1.5
73 3.07
81 4.35
82 39.27
83 3.2

>  <PREDICTED SPECTRUM>  (3369) 
14 35
15 100
16 19
26 99
27 347
28 173
29 328
30 103
31 118
32 47
37 46
38 95
39 428
40 211
41 493
42 255
43 999
44 191
45 41
50 80
51 142
52 131
53 383
54 469
55 311
56 100
57 78
58 22
60 84
61 148
62 20
63 44
65 169
66 90
67 707
68 168
69 239
70 104
71 39
72 29
73 122
77 10
79 21
81 153
82 772
83 253
84 74
85 63
99 36

$$$$

     RDKit          2D

  7  7  0  0  0  0  0  0  0  0999 V2000
   -0.0000   -1.9300    0.0000 C   0  0  0  0  0  0  0  0  0  0  0  0
    0.0000    2.5700    0.0000 C   0  0  0  0  0  0  0  0  0  0  0  0
   -1.3000    1.8200    0.0000 C   0  0  0  0  0  0  0  0  0  0  0  0
    1.3000    1.8200    0.0000 C   0  0  0  0  0  0  0  0  0  0  0  0
   -1.3000    0.3200    0.0000 C   0  0  0  0  0  0  0  0  0  0  0  0
    1.3000    0.3200    0.0000 C   0  0  0  0  0  0  0  0  0  0  0  0
   -0.0000   -0.4300    0.0000 C   0  0  0  0  0  0  0  0  0  0  0  0
  3  2  2  0
  4  2  1  0
  5  3  1  0
  6  4  2  0
  7  1  1  0
  7  5  2  0
  7  6  1  0
M  END
>  <NAME>  (3370) 
TOLUENE

>  <SYNONYMS>  (3370) 
METHYLBENZENE

>  <SPECTRUM TYPE>  (3370) 
MS1

>  <INSTRUMENT TYPE>  (3370) 
EI-B

>  <INSTRUMENT>  (3370) 
HITACHI RMU-7M

>  <ION MODE>  (3370) 
P

>  <INCHIKEY>  (3370) 
YXFVVABEGXRONW-UHFFFAOYSA-N

>  <FORMULA>  (3370) 
C7H8

>  <EXACT MASS>  (3370) 
92.062600256

>  <MW>  (3370) 
92

>  <ID>  (3370) 
JP006808

>  <CONTRIBUTOR>  (3370) 
University of Tokyo Team, {Faculty of Engineering, University of Tokyo

>  <COMMENT>  (3370) 
SMILES=Cc(c1)cccc1
InChI=InChI=1S/C7H8/c1-7-5-3-2-4-6-7/h2-6H,1H3
computed SMILES=C=1C=CC(=CC1)C
accession=JP006808
date=2016.01.19 (Created 2008.10.21, modified 2011.05.06)
author=TAJIMA S, GUNMA COLLEGE OF TECHNOLOGY
license=CC BY-NC-SA
exact mass=92.0626
ionization energy=70 eV
ion type=[M]+*
computed spectral entropy=1.6898613525717179
computed normalized entropy=0.5640895775265486
SPLASH=splash10-0006-9000000000-9484aa3a95c9d0168f91
submitter=submitter = University of Tokyo Team (Faculty of Engineering, University of Tokyo)
MoNA Rating=3.75

>  <NUM PEAKS>  (3370) 
20

>  <MASS SPECTRAL PEAKS>  (3370) 
38 1.33
39 8.37
40 1
41 1.2
45 2.33
45.5 1
46 1.33
50 2.33
51 4.98
52 1.46
62 1.66
63 5.32
64 1.2
65 11.69
66 1.2
89 3.32
90 2.33
91 99.99
92 87.04
93 6.98

>  <PREDICTED SPECTRUM>  (3370) 
14 4
15 12
25 9
26 71
27 146
28 69
37 106
38 173
39 425
40 116
41 214
49 14
50 250
51 396
52 213
53 150
54 3
58 10
61 47
62 142
63 288
64 191
65 519
66 177
74 98
75 32
77 452
78 203
79 108
87 49
89 246
90 255
91 999
92 470
93 212

$$$$

     RDKit          2D

  5  4  0  0  0  0  0  0  0  0999 V2000
    0.0000    0.0000    0.0000 C   0  0  0  0  0  0  0  0  0  0  0  0
    1.2990    2.2500    0.0000 C   0  0  0  0  0  0  0  0  0  0  0  0
   -1.2990    2.2500    0.0000 C   0  0  0  0  0  0  0  0  0  0  0  0
    0.0000    1.5000    0.0000 C   0  0  0  0  0  0  0  0  0  0  0  0
   -1.2990    3.7500    0.0000 I   0  0  0  0  0  0  0  0  0  0  0  0
  4  1  1  0
  4  2  1  0
  4  3  1  0
  5  3  1  0
M  END
>  <NAME>  (3371) 
1-IODO-2-METHYLPROPANE

>  <SYNONYMS>  (3371) 
ISOBUTYL IODIDE

>  <SPECTRUM TYPE>  (3371) 
MS1

>  <INSTRUMENT TYPE>  (3371) 
EI-B

>  <INSTRUMENT>  (3371) 
HITACHI RMU-7M

>  <ION MODE>  (3371) 
P

>  <INCHIKEY>  (3371) 
BTUGGGLMQBJCBN-UHFFFAOYSA-N

>  <FORMULA>  (3371) 
C4H9I

>  <EXACT MASS>  (3371) 
183.974898288

>  <MW>  (3371) 
184

>  <ID>  (3371) 
JP006806

>  <CONTRIBUTOR>  (3371) 
University of Tokyo Team, {Faculty of Engineering, University of Tokyo

>  <COMMENT>  (3371) 
SMILES=CC(C)CI
InChI=InChI=1S/C4H9I/c1-4(2)3-5/h4H,3H2,1-2H3
computed SMILES=ICC(C)C
accession=JP006806
date=2016.01.19 (Created 2008.10.21, modified 2011.05.06)
author=TAJIMA S, GUNMA COLLEGE OF TECHNOLOGY
license=CC BY-NC-SA
exact mass=183.97489
ionization energy=70 eV
ion type=[M]+*
computed spectral entropy=1.729341310871042
computed normalized entropy=0.6385927816874217
SPLASH=splash10-0a4i-9000000000-7ad4c8538cab3fcfb72a
submitter=submitter = University of Tokyo Team (Faculty of Engineering, University of Tokyo)
MoNA Rating=3.75

>  <NUM PEAKS>  (3371) 
15

>  <MASS SPECTRAL PEAKS>  (3371) 
15 1.41
27 7.05
28 1.67
29 32.51
39 8.81
41 36.65
42 2.64
43 1.85
55 3.52
57 99.99
58 4.4
127 1.23
141 1
169 1
184 10.66

>  <PREDICTED SPECTRUM>  (3371) 
14 65
15 130
25 52
26 200
27 610
28 284
29 635
36 43
37 116
38 203
39 528
40 185
41 957
42 320
43 934
44 11
50 3
51 37
52 104
53 278
54 167
55 560
56 416
57 999
58 51
97 42
126 76
127 362
128 150
141 166
142 234
169 77
184 391
185 30

$$$$

     RDKit          2D

  8  7  0  0  0  0  0  0  0  0999 V2000
    1.1209    2.2500    0.0000 C   0  0  0  0  0  0  0  0  0  0  0  0
   -4.0753    2.2500    0.0000 C   0  0  0  0  0  0  0  0  0  0  0  0
    0.9642    1.3614    0.0000 C   0  0  0  0  0  0  0  0  0  0  0  0
   -2.4414    1.1009    0.0000 C   0  0  0  0  0  0  0  0  0  0  0  0
   -0.1782    3.0000    0.0000 O   0  0  0  0  0  0  0  0  0  0  0  0
   -2.7762    3.0000    0.0000 O   0  0  0  0  0  0  0  0  0  0  0  0
   -0.5130    1.1009    0.0000 O   0  0  0  0  0  0  0  0  0  0  0  0
   -1.4772    2.2500    0.0000 Si  0  0  0  0  0  4  0  0  0  0  0  0
  5  1  1  0
  6  2  1  0
  7  3  1  0
  8  4  1  0
  8  5  1  0
  8  6  1  0
  8  7  1  0
M  END
>  <NAME>  (3372) 
TRIMETHOXYMETHYLSILANE

>  <SYNONYMS>  (3372) 


>  <SPECTRUM TYPE>  (3372) 
MS1

>  <INSTRUMENT TYPE>  (3372) 
EI-B

>  <INSTRUMENT>  (3372) 
HITACHI RMU-7M

>  <ION MODE>  (3372) 
P

>  <INCHIKEY>  (3372) 
BFXIKLCIZHOAAZ-UHFFFAOYSA-N

>  <FORMULA>  (3372) 
C4H12O3Si

>  <EXACT MASS>  (3372) 
136.055570774

>  <MW>  (3372) 
136

>  <ID>  (3372) 
JP006805

>  <CONTRIBUTOR>  (3372) 
University of Tokyo Team, {Faculty of Engineering, University of Tokyo

>  <COMMENT>  (3372) 
SMILES=CO[Si](C)(OC)OC
InChI=InChI=1S/C4H12O3Si/c1-5-8(4,6-2)7-3/h1-4H3
computed SMILES=O(C)[Si](OC)(OC)C
accession=JP006805
date=2016.01.19 (Created 2008.10.21, modified 2011.05.06)
author=TAJIMA S, GUNMA COLLEGE OF TECHNOLOGY
license=CC BY-NC-SA
exact mass=136.05557
ionization energy=70 eV
ion type=[M]+*
computed spectral entropy=2.18066289417199
computed normalized entropy=0.6861629823095988
SPLASH=splash10-00di-8900000000-b8f34f43a5c334059c41
submitter=submitter = University of Tokyo Team (Faculty of Engineering, University of Tokyo)
MoNA Rating=3.75

>  <NUM PEAKS>  (3372) 
24

>  <MASS SPECTRAL PEAKS>  (3372) 
15 3.36
29 1.93
31 1.6
43 1.6
45 9.07
47 1.51
59 15.11
60 3.19
61 9.24
74 3.61
75 19.23
76 1.85
77 1.76
90 1.85
91 48.87
92 2.69
93 1.85
104 1.01
105 26.78
106 2.1
107 1.51
121 99.99
122 4.2
123 4.03

>  <PREDICTED SPECTRUM>  (3372) 
15 83
29 19
30 117
31 201
32 13
33 56
42 60
43 109
44 61
45 334
46 43
47 105
58 67
59 324
60 124
61 244
62 70
63 91
73 141
74 34
75 275
76 26
77 227
89 292
90 69
91 658
92 7
93 36
105 332
106 78
107 11
121 999
122 265
123 174
135 154
136 219
137 19

$$$$

     RDKit          2D

 13 13  0  0  0  0  0  0  0  0999 V2000
    5.1970   -1.5006    0.0000 C   0  0  0  0  0  0  0  0  0  0  0  0
    2.1474   -4.0587    0.0000 C   0  0  0  0  0  0  0  0  0  0  0  0
    5.0402   -2.3892    0.0000 C   0  0  0  0  0  0  0  0  0  0  0  0
   -1.3000    0.7500    0.0000 C   0  0  0  0  0  0  0  0  0  0  0  0
    0.0000    1.5000    0.0000 C   0  0  0  0  0  0  0  0  0  0  0  0
   -1.3000   -0.7500    0.0000 C   0  0  0  0  0  0  0  0  0  0  0  0
    1.3000    0.7500    0.0000 C   0  0  0  0  0  0  0  0  0  0  0  0
    0.0000   -1.5000    0.0000 C   0  0  0  0  0  0  0  0  0  0  0  0
    1.3000   -0.7500    0.0000 C   0  0  0  0  0  0  0  0  0  0  0  0
    3.8981   -0.7504    0.0000 O   0  0  0  0  0  0  0  0  0  0  0  0
    1.6346   -2.6491    0.0000 O   0  0  0  0  0  0  0  0  0  0  0  0
    3.5629   -2.6494    0.0000 O   0  0  0  0  0  0  0  0  0  0  0  0
    2.5989   -1.5002    0.0000 Si  0  0  0  0  0  4  0  0  0  0  0  0
  5  4  2  0
  6  4  1  0
  7  5  1  0
  8  6  2  0
  9  7  2  0
  9  8  1  0
 10  1  1  0
 11  2  1  0
 12  3  1  0
 13  9  1  0
 13 10  1  0
 13 11  1  0
 13 12  1  0
M  END
>  <NAME>  (3373) 
TRIMETHOXYPHENYLSILANE

>  <SYNONYMS>  (3373) 


>  <SPECTRUM TYPE>  (3373) 
MS1

>  <INSTRUMENT TYPE>  (3373) 
EI-B

>  <INSTRUMENT>  (3373) 
HITACHI RMU-7M

>  <ION MODE>  (3373) 
P

>  <INCHIKEY>  (3373) 
ZNOCGWVLWPVKAO-UHFFFAOYSA-N

>  <FORMULA>  (3373) 
C9H14O3Si

>  <EXACT MASS>  (3373) 
198.071220838

>  <MW>  (3373) 
198

>  <ID>  (3373) 
JP006804

>  <CONTRIBUTOR>  (3373) 
University of Tokyo Team, {Faculty of Engineering, University of Tokyo

>  <COMMENT>  (3373) 
SMILES=CO[Si](OC)(OC)c(c1)cccc1
InChI=InChI=1S/C9H14O3Si/c1-10-13(11-2,12-3)9-7-5-4-6-8-9/h4-8H,1-3H3
computed SMILES=O(C)[Si](OC)(OC)C=1C=CC=CC1
accession=JP006804
date=2016.01.19 (Created 2008.10.21, modified 2011.05.06)
author=TAJIMA S, GUNMA COLLEGE OF TECHNOLOGY
license=CC BY-NC-SA
exact mass=198.07122
ionization energy=70 eV
ion type=[M]+*
computed spectral entropy=2.629171731649154
computed normalized entropy=0.8069655705308689
SPLASH=splash10-00dl-6900000000-215dab55c949dee48aac
submitter=submitter = University of Tokyo Team (Faculty of Engineering, University of Tokyo)
MoNA Rating=3.75

>  <NUM PEAKS>  (3373) 
26

>  <MASS SPECTRAL PEAKS>  (3373) 
39 1.6
45 7.37
50 2.75
51 7.01
59 28.27
60 5.55
61 9.28
77 5.86
78 4.7
90 42.3
91 48.29
92 5.77
105 2.57
107 26.36
108 2.8
120 99.99
121 42.61
122 7.86
123 2.93
136 4.62
137 9.68
167 18.46
168 3.46
198 26.63
199 3.99
200 1.33

>  <PREDICTED SPECTRUM>  (3373) 
39 20
45 27
50 53
51 307
52 15
59 91
63 149
65 360
66 10
77 643
78 208
79 18
89 27
90 60
91 949
92 304
93 367
104 7
105 480
106 76
107 275
108 19
119 645
120 662
121 999
122 308
123 130
135 135
136 4
137 33
151 95
153 555
154 47
166 108
167 313
168 89
183 253
198 814
199 156

$$$$

     RDKit          2D

  9  8  0  0  0  0  0  0  0  0999 V2000
   -0.9743    5.0625    0.0000 C   0  0  0  0  0  0  0  0  0  0  0  0
   -3.5724    0.5625    0.0000 C   0  0  0  0  0  0  0  0  0  0  0  0
    0.3248    2.8125    0.0000 C   0  0  0  0  0  0  0  0  0  0  0  0
   -2.2733    4.3125    0.0000 C   0  0  0  0  0  0  0  0  0  0  0  0
   -3.5724    2.0625    0.0000 C   0  0  0  0  0  0  0  0  0  0  0  0
   -0.9743    2.0625    0.0000 C   0  0  0  0  0  0  0  0  0  0  0  0
   -2.2733    2.8125    0.0000 C   0  0  0  0  0  0  0  0  0  0  0  0
   -4.8714    2.8125    0.0000 O   0  0  0  0  0  0  0  0  0  0  0  0
   -0.9743    0.5625    0.0000 O   0  0  0  0  0  0  0  0  0  0  0  0
  4  1  1  0
  5  2  1  0
  6  3  1  0
  7  4  1  0
  7  5  1  0
  7  6  1  0
  8  5  2  0
  9  6  2  0
M  END
>  <NAME>  (3374) 
3-ETHYL-2,4-PENTANEDIONE

>  <SYNONYMS>  (3374) 


>  <SPECTRUM TYPE>  (3374) 
MS1

>  <INSTRUMENT TYPE>  (3374) 
EI-B

>  <INSTRUMENT>  (3374) 
HITACHI RMU-7M

>  <ION MODE>  (3374) 
P

>  <INCHIKEY>  (3374) 
GUARKOVVHJSMRW-UHFFFAOYSA-N

>  <FORMULA>  (3374) 
C7H12O2

>  <EXACT MASS>  (3374) 
128.083729624

>  <MW>  (3374) 
128

>  <ID>  (3374) 
JP006803

>  <CONTRIBUTOR>  (3374) 
University of Tokyo Team, {Faculty of Engineering, University of Tokyo

>  <COMMENT>  (3374) 
SMILES=CCC(C(C)=O)C(C)=O
InChI=InChI=1S/C7H12O2/c1-4-7(5(2)8)6(3)9/h7H,4H2,1-3H3
computed SMILES=O=C(C)C(C(=O)C)CC
accession=JP006803
date=2016.01.19 (Created 2008.10.21, modified 2011.05.06)
author=TAJIMA S, GUNMA COLLEGE OF TECHNOLOGY
license=CC BY-NC-SA
exact mass=128.08373
ionization energy=70 eV
ion type=[M]+*
computed spectral entropy=2.085305886146627
computed normalized entropy=0.6561581387431439
SPLASH=splash10-006x-9000000000-235871498a19035c7f90
submitter=submitter = University of Tokyo Team (Faculty of Engineering, University of Tokyo)
MoNA Rating=3.75

>  <NUM PEAKS>  (3374) 
24

>  <MASS SPECTRAL PEAKS>  (3374) 
15 5.87
27 4.06
29 2.09
31 1.07
39 4.35
41 4.74
42 2.26
43 99.99
44 2.31
45 1.47
53 1.24
55 2.14
58 3.72
67 3.84
69 1.41
71 53.33
72 2.48
85 5.76
86 32.73
87 2.26
100 4.57
113 6.77
128 3.44
129 1.41

>  <PREDICTED SPECTRUM>  (3374) 
14 54
15 124
16 15
17 19
18 42
25 13
26 77
27 234
28 139
29 150
31 38
37 13
38 78
39 269
40 109
41 261
42 92
43 999
44 174
45 134
50 44
51 70
52 32
53 158
54 15
55 183
56 7
57 152
58 179
59 79
65 11
66 13
67 144
68 174
69 80
70 11
71 465
72 148
81 6
82 64
83 59
85 527
86 396
87 111
95 57
99 190
100 53
110 206
111 56
113 204
128 286
129 68

$$$$

     RDKit          2D

 10  9  0  0  0  0  0  0  0  0999 V2000
    2.2733    2.8125    0.0000 C   0  0  0  0  0  0  0  0  0  0  0  0
    0.9743    5.0625    0.0000 C   0  0  0  0  0  0  0  0  0  0  0  0
   -5.5209    2.8125    0.0000 C   0  0  0  0  0  0  0  0  0  0  0  0
   -0.3248    2.8125    0.0000 C   0  0  0  0  0  0  0  0  0  0  0  0
   -2.9228    2.8125    0.0000 C   0  0  0  0  0  0  0  0  0  0  0  0
    0.9743    3.5625    0.0000 C   0  0  0  0  0  0  0  0  0  0  0  0
   -4.2219    3.5625    0.0000 C   0  0  0  0  0  0  0  0  0  0  0  0
   -1.6238    3.5625    0.0000 C   0  0  0  0  0  0  0  0  0  0  0  0
   -4.2219    5.0625    0.0000 O   0  0  0  0  0  0  0  0  0  0  0  0
   -1.6238    5.0625    0.0000 O   0  0  0  0  0  0  0  0  0  0  0  0
  6  1  1  0
  6  2  1  0
  6  4  1  0
  7  3  1  0
  7  5  1  0
  8  4  1  0
  8  5  1  0
  9  7  2  0
 10  8  2  0
M  END
>  <NAME>  (3375) 
6-METHYL-2,4-HEPTANEDIONE

>  <SYNONYMS>  (3375) 


>  <SPECTRUM TYPE>  (3375) 
MS1

>  <INSTRUMENT TYPE>  (3375) 
EI-B

>  <INSTRUMENT>  (3375) 
HITACHI RMU-7M

>  <ION MODE>  (3375) 
P

>  <INCHIKEY>  (3375) 
IGMOYJSFRIASIE-UHFFFAOYSA-N

>  <FORMULA>  (3375) 
C8H14O2

>  <EXACT MASS>  (3375) 
142.099379688

>  <MW>  (3375) 
142

>  <ID>  (3375) 
JP006802

>  <CONTRIBUTOR>  (3375) 
University of Tokyo Team, {Faculty of Engineering, University of Tokyo

>  <COMMENT>  (3375) 
SMILES=CC(C)CC(=O)CC(C)=O
InChI=InChI=1S/C8H14O2/c1-6(2)4-8(10)5-7(3)9/h6H,4-5H2,1-3H3
computed SMILES=O=C(C)CC(=O)CC(C)C
accession=JP006802
date=2016.01.19 (Created 2008.10.21, modified 2011.05.06)
author=TAJIMA S, GUNMA COLLEGE OF TECHNOLOGY
license=CC BY-NC-SA
exact mass=142.09938
ionization energy=70 eV
ion type=[M]+*
computed spectral entropy=2.364278220856163
computed normalized entropy=0.7256624207617552
SPLASH=splash10-000f-9100000000-e17733595103bfe4f530
submitter=submitter = University of Tokyo Team (Faculty of Engineering, University of Tokyo)
MoNA Rating=3.75

>  <NUM PEAKS>  (3375) 
26

>  <MASS SPECTRAL PEAKS>  (3375) 
15 3.26
27 9.15
28 2.79
29 10.24
31 2.33
39 8.22
40 1.47
41 17.77
42 5.12
43 83.17
44 2.17
55 2.87
56 2.33
57 27.08
58 11.02
67 1.55
71 3.41
72 2.25
85 99.99
86 4.73
100 24.36
101 1.24
127 11.71
128 0.93
142 10.47
143 1.16

>  <PREDICTED SPECTRUM>  (3375) 
14 41
15 129
16 9
17 12
18 20
25 7
26 83
27 311
28 198
29 344
30 104
31 150
37 17
38 75
39 350
40 160
41 543
42 291
43 852
44 160
45 128
51 102
52 16
53 169
54 64
55 131
56 83
57 546
58 379
59 118
66 23
67 162
68 42
69 278
70 69
71 70
72 98
73 3
81 82
82 121
83 64
84 220
85 999
86 247
87 36
99 71
100 343
101 81
109 56
125 38
127 246
128 58
141 55
142 371
143 124
144 14

$$$$

     RDKit          2D

  4  3  0  0  0  0  0  0  0  0999 V2000
   -2.5981    2.2500    0.0000 C   0  0  0  0  0  0  0  0  0  0  0  0
   -1.2990    1.5000    0.0000 C   0  0  0  0  0  0  0  0  0  0  0  0
    0.0000    2.2500    0.0000 C   0  0  0  0  0  0  0  0  0  0  0  0
    1.2990    1.5000    0.0000 Cl  0  0  0  0  0  0  0  0  0  0  0  0
  2  1  1  0
  3  2  1  0
  4  3  1  0
M  END
>  <NAME>  (3376) 
PROPYL CHLORIDE

>  <SYNONYMS>  (3376) 
1-CHLOROPROPANE

>  <SPECTRUM TYPE>  (3376) 
MS1

>  <INSTRUMENT TYPE>  (3376) 
EI-B

>  <INSTRUMENT>  (3376) 
HITACHI RMU-7M

>  <ION MODE>  (3376) 
P

>  <INCHIKEY>  (3376) 
SNMVRZFUUCLYTO-UHFFFAOYSA-N

>  <FORMULA>  (3376) 
C3H7Cl

>  <EXACT MASS>  (3376) 
78.023627904

>  <MW>  (3376) 
78

>  <ID>  (3376) 
JP006800

>  <CONTRIBUTOR>  (3376) 
University of Tokyo Team, {Faculty of Engineering, University of Tokyo

>  <COMMENT>  (3376) 
SMILES=CCCCl
InChI=InChI=1S/C3H7Cl/c1-2-3-4/h2-3H2,1H3
computed SMILES=ClCCC
accession=JP006800
date=2016.01.19 (Created 2008.10.21, modified 2011.05.06)
author=TAJIMA S, GUNMA COLLEGE OF TECHNOLOGY
license=CC BY-NC-SA
exact mass=78.02363
ionization energy=70 eV
ion type=[M]+*
computed spectral entropy=2.0718439291238284
computed normalized entropy=0.7168088061557438
SPLASH=splash10-002f-9000000000-4dc037b9bf831fd5f05d
submitter=submitter = University of Tokyo Team (Faculty of Engineering, University of Tokyo)
MoNA Rating=3.75

>  <NUM PEAKS>  (3376) 
18

>  <MASS SPECTRAL PEAKS>  (3376) 
15 2.15
26 4.45
27 33.06
28 13.05
29 39.81
37 2.67
38 3.71
39 12.38
40 3.19
41 24.17
42 99.99
43 14.9
49 3.78
51 1.26
63 3.93
65 1.33
78 2
80 0.67

>  <PREDICTED SPECTRUM>  (3376) 
14 130
15 264
16 24
25 96
26 359
27 815
28 344
29 604
30 38
31 181
32 22
33 27
35 147
36 217
37 99
38 253
39 456
40 218
41 454
42 252
43 467
44 116
45 181
47 231
48 2
49 999
50 288
51 639
52 189
53 165
57 308
58 21
59 177
63 556
64 284
65 341
66 259
77 50
78 708
79 202
80 371
81 31

$$$$

     RDKit          2D

  9  9  0  0  0  0  0  0  0  0999 V2000
    2.2733   -0.6175    0.0000 C   0  0  0  0  0  0  0  0  0  0  0  0
    2.2738    0.8833    0.0000 C   0  0  0  0  0  0  0  0  0  0  0  0
    0.9738   -1.3683    0.0000 C   0  0  0  0  0  0  0  0  0  0  0  0
    0.9748    1.6333    0.0000 C   0  0  0  0  0  0  0  0  0  0  0  0
   -0.3252   -0.6183    0.0000 C   0  0  0  0  0  0  0  0  0  0  0  0
   -0.3248    0.8825    0.0000 C   0  0  0  0  0  0  0  0  0  0  0  0
   -1.6238    1.6325    0.0000 C   0  0  0  0  0  0  0  0  0  0  0  0
   -2.9228    0.8825    0.0000 F   0  0  0  0  0  0  0  0  0  0  0  0
   -1.6238    3.1325    0.0000 O   0  0  0  0  0  0  0  0  0  0  0  0
  2  1  2  0
  3  1  1  0
  4  2  1  0
  5  3  2  0
  6  4  2  0
  6  5  1  0
  7  6  1  0
  8  7  1  0
  9  7  2  0
M  END
>  <NAME>  (3377) 
BENZOYL FLUORIDE

>  <SYNONYMS>  (3377) 


>  <SPECTRUM TYPE>  (3377) 
MS1

>  <INSTRUMENT TYPE>  (3377) 
EI-B

>  <INSTRUMENT>  (3377) 
HITACHI RMU-7M

>  <ION MODE>  (3377) 
P

>  <INCHIKEY>  (3377) 
HPMLGNIUXVXALD-UHFFFAOYSA-N

>  <FORMULA>  (3377) 
C7H5FO

>  <EXACT MASS>  (3377) 
124.032443

>  <MW>  (3377) 
124

>  <ID>  (3377) 
JP006799

>  <CONTRIBUTOR>  (3377) 
University of Tokyo Team, {Faculty of Engineering, University of Tokyo

>  <COMMENT>  (3377) 
SMILES=O=C(F)c(c1)cccc1
InChI=InChI=1S/C7H5FO/c8-7(9)6-4-2-1-3-5-6/h1-5H
computed SMILES=O=C(F)C=1C=CC=CC1
accession=JP006799
date=2016.01.19 (Created 2008.10.21, modified 2011.05.06)
author=TAJIMA S, GUNMA COLLEGE OF TECHNOLOGY
license=CC BY-NC-SA
exact mass=124.03244
ionization energy=70 eV
ion type=[M]+*
computed spectral entropy=2.736732119497927
computed normalized entropy=0.7969546642234044
SPLASH=splash10-0kka-9400000000-39a9038071ab6fa6ec7a
submitter=submitter = University of Tokyo Team (Faculty of Engineering, University of Tokyo)
MoNA Rating=3.75

>  <NUM PEAKS>  (3377) 
31

>  <MASS SPECTRAL PEAKS>  (3377) 
27 3.64
37 5.16
38 6.87
39 8.72
47 1.98
49 4.36
50 36.02
51 47.06
52 5.49
57 2.64
61 1.59
62 2.12
63 3.3
69 2.84
70 13.68
73 2.84
74 13.22
75 13.75
76 14.41
77 62.79
78 16.39
95 7.73
96 99.99
97 6.21
104 1.32
105 64.44
106 4.63
122 8.33
123 13.81
124 83.61
125 7.27

>  <PREDICTED SPECTRUM>  (3377) 
25 34
26 74
27 157
28 35
29 15
37 129
38 174
39 247
40 72
41 99
42 27
44 41
46 37
47 11
49 107
50 420
51 518
52 242
53 14
55 31
57 74
61 110
62 111
63 51
64 83
65 110
66 73
67 85
68 187
69 193
70 7
74 246
75 203
76 255
77 588
78 365
79 53
81 37
95 331
96 499
97 189
105 980
106 318
123 100
124 999
125 361
126 53

$$$$

     RDKit          2D

  7  7  0  0  0  0  0  0  0  0999 V2000
   -1.3000    0.7500    0.0000 C   0  0  0  0  0  0  0  0  0  0  0  0
    0.0000    1.5000    0.0000 C   0  0  0  0  0  0  0  0  0  0  0  0
   -1.3000   -0.7500    0.0000 C   0  0  0  0  0  0  0  0  0  0  0  0
    1.3000    0.7500    0.0000 C   0  0  0  0  0  0  0  0  0  0  0  0
    0.0000   -1.5000    0.0000 C   0  0  0  0  0  0  0  0  0  0  0  0
    1.3000   -0.7500    0.0000 C   0  0  0  0  0  0  0  0  0  0  0  0
    2.5989   -1.5002    0.0000 F   0  0  0  0  0  0  0  0  0  0  0  0
  2  1  2  0
  3  1  1  0
  4  2  1  0
  5  3  2  0
  6  4  2  0
  6  5  1  0
  7  6  1  0
M  END
>  <NAME>  (3378) 
FLUOROBENZENE

>  <SYNONYMS>  (3378) 


>  <SPECTRUM TYPE>  (3378) 
MS1

>  <INSTRUMENT TYPE>  (3378) 
EI-B

>  <INSTRUMENT>  (3378) 
HITACHI RMU-7M

>  <ION MODE>  (3378) 
P

>  <INCHIKEY>  (3378) 
PYLWMHQQBFSUBP-UHFFFAOYSA-N

>  <FORMULA>  (3378) 
C6H5F

>  <EXACT MASS>  (3378) 
96.03752838

>  <MW>  (3378) 
96

>  <ID>  (3378) 
JP006798

>  <CONTRIBUTOR>  (3378) 
University of Tokyo Team, {Faculty of Engineering, University of Tokyo

>  <COMMENT>  (3378) 
SMILES=Fc(c1)cccc1
InChI=InChI=1S/C6H5F/c7-6-4-2-1-3-5-6/h1-5H
computed SMILES=FC=1C=CC=CC1
accession=JP006798
date=2016.01.19 (Created 2008.10.21, modified 2011.05.06)
author=TAJIMA S, GUNMA COLLEGE OF TECHNOLOGY
license=CC BY-NC-SA
exact mass=96.03753
ionization energy=70 eV
ion type=[M]+*
computed spectral entropy=1.9958244234047935
computed normalized entropy=0.6456800427429897
SPLASH=splash10-0002-9000000000-2aa4563aac2d6d44c333
submitter=submitter = University of Tokyo Team (Faculty of Engineering, University of Tokyo)
MoNA Rating=3.75

>  <NUM PEAKS>  (3378) 
22

>  <MASS SPECTRAL PEAKS>  (3378) 
31 1.42
37 2.16
38 2.7
39 5.53
48 1.62
49 1.35
50 12.34
51 6.07
52 1.01
57 3.64
63 3.3
68 2.29
69 3.3
70 21.71
74 3.37
75 6.81
76 2.16
77 1.28
94 1.35
95 5.6
96 99.99
97 6.07

>  <PREDICTED SPECTRUM>  (3378) 
14 19
16 1
19 34
25 74
26 149
27 153
28 198
29 134
31 370
32 67
33 102
36 139
37 240
38 316
39 342
40 134
41 92
42 9
43 100
44 183
45 161
46 6
47 49
48 84
49 212
50 607
51 635
52 103
56 289
57 711
58 62
61 285
62 263
63 310
64 15
68 358
69 669
70 560
74 394
75 786
76 469
77 388
78 25
81 126
83 67
93 83
94 349
95 948
96 999
97 399
98 101

$$$$

     RDKit          2D

  8  8  0  0  0  0  0  0  0  0999 V2000
  -10.4600    6.3600    0.0000 C   0  0  0  0  0  0  0  0  0  0  0  0
  -11.3400    5.1500    0.0000 C   0  0  0  0  0  0  0  0  0  0  0  0
   -9.0300    5.9000    0.0000 C   0  0  0  0  0  0  0  0  0  0  0  0
  -10.4600    3.9300    0.0000 C   0  0  0  0  0  0  0  0  0  0  0  0
   -7.6000    6.3600    0.0000 C   0  0  0  0  0  0  0  0  0  0  0  0
   -9.0300    4.4000    0.0000 C   0  0  0  0  0  0  0  0  0  0  0  0
   -6.7200    5.1500    0.0000 C   0  0  0  0  0  0  0  0  0  0  0  0
   -7.6000    3.9300    0.0000 C   0  0  0  0  0  0  0  0  0  0  0  0
  2  1  1  0
  3  1  1  0
  4  2  1  0
  5  3  1  0
  6  4  1  0
  7  5  1  0
  8  6  1  0
  8  7  1  0
M  END
>  <NAME>  (3379) 
CYCLOOCTANE

>  <SYNONYMS>  (3379) 


>  <SPECTRUM TYPE>  (3379) 
MS1

>  <INSTRUMENT TYPE>  (3379) 
EI-B

>  <INSTRUMENT>  (3379) 
HITACHI RMU-7M

>  <ION MODE>  (3379) 
P

>  <INCHIKEY>  (3379) 
WJTCGQSWYFHTAC-UHFFFAOYSA-N

>  <FORMULA>  (3379) 
C8H16

>  <EXACT MASS>  (3379) 
112.12520051199999

>  <MW>  (3379) 
112

>  <ID>  (3379) 
JP006797

>  <CONTRIBUTOR>  (3379) 
University of Tokyo Team, {Faculty of Engineering, University of Tokyo

>  <COMMENT>  (3379) 
SMILES=C(C1)CCCCCC1
InChI=InChI=1S/C8H16/c1-2-4-6-8-7-5-3-1/h1-8H2
computed SMILES=C1CCCCCCC1
accession=JP006797
date=2016.01.19 (Created 2008.10.21, modified 2011.05.06)
author=TAJIMA S, GUNMA COLLEGE OF TECHNOLOGY
license=CC BY-NC-SA
exact mass=112.1252
ionization energy=70 eV
ion type=[M]+*
computed spectral entropy=2.869875921886698
computed normalized entropy=0.8707578798843767
SPLASH=splash10-0a4l-9000000000-33f4f43ebc5ea8c56f5c
submitter=submitter = University of Tokyo Team (Faculty of Engineering, University of Tokyo)
MoNA Rating=3.75

>  <NUM PEAKS>  (3379) 
27

>  <MASS SPECTRAL PEAKS>  (3379) 
15 1.4
27 26.79
28 8.38
29 22.22
39 35.43
40 6.35
41 86.48
42 52.38
43 39.24
51 2.67
53 8.89
54 9.78
55 90.29
56 99.99
57 16.83
67 11.81
68 20.95
70 62.79
71 7.87
82 13.21
83 53.52
84 37.78
97 9.65
110 1.84
111 12.13
112 48.13
113 4.19

>  <PREDICTED SPECTRUM>  (3379) 
14 24
15 86
16 17
17 4
18 30
25 28
26 172
27 595
28 317
29 683
30 158
31 21
32 28
37 58
38 94
39 575
40 208
41 947
42 639
43 784
44 160
45 94
47 26
49 25
50 101
51 197
52 128
53 292
54 467
55 999
56 803
57 672
58 245
59 147
63 37
64 1
65 128
66 156
67 369
68 417
69 785
70 799
71 566
72 182
77 77
78 99
79 178
80 122
81 200
82 472
83 535
84 490
85 177
86 62
95 64
96 342
97 417
98 173
111 20
112 310
113 89

$$$$

     RDKit          2D

  7  7  0  0  0  0  0  0  0  0999 V2000
    0.0000    1.5000    0.0000 C   0  0  0  0  0  0  0  0  0  0  0  0
    0.0000    0.0000    0.0000 C   0  0  0  0  0  0  0  0  0  0  0  0
   -1.1727    2.4352    0.0000 C   0  0  0  0  0  0  0  0  0  0  0  0
   -1.1727   -0.9352    0.0000 C   0  0  0  0  0  0  0  0  0  0  0  0
   -2.6351    2.1015    0.0000 C   0  0  0  0  0  0  0  0  0  0  0  0
   -2.6351   -0.6015    0.0000 C   0  0  0  0  0  0  0  0  0  0  0  0
   -3.2860    0.7500    0.0000 C   0  0  0  0  0  0  0  0  0  0  0  0
  2  1  1  0
  3  1  1  0
  4  2  1  0
  5  3  1  0
  6  4  1  0
  7  5  1  0
  7  6  1  0
M  END
>  <NAME>  (3380) 
CYCLOHEPTANE

>  <SYNONYMS>  (3380) 


>  <SPECTRUM TYPE>  (3380) 
MS1

>  <INSTRUMENT TYPE>  (3380) 
EI-B

>  <INSTRUMENT>  (3380) 
HITACHI RMU-7M

>  <ION MODE>  (3380) 
P

>  <INCHIKEY>  (3380) 
DMEGYFMYUHOHGS-UHFFFAOYSA-N

>  <FORMULA>  (3380) 
C7H14

>  <EXACT MASS>  (3380) 
98.109550448

>  <MW>  (3380) 
98

>  <ID>  (3380) 
JP006796

>  <CONTRIBUTOR>  (3380) 
University of Tokyo Team, {Faculty of Engineering, University of Tokyo

>  <COMMENT>  (3380) 
SMILES=C(C1)CCCCC1
InChI=InChI=1S/C7H14/c1-2-4-6-7-5-3-1/h1-7H2
computed SMILES=C1CCCCCC1
accession=JP006796
date=2016.01.19 (Created 2008.10.21, modified 2011.05.06)
author=TAJIMA S, GUNMA COLLEGE OF TECHNOLOGY
license=CC BY-NC-SA
exact mass=98.10955
ionization energy=70 eV
ion type=[M]+*
computed spectral entropy=2.742086814927038
computed normalized entropy=0.8416223346752649
SPLASH=splash10-0a4l-9000000000-17287016935b9da5ae0d
submitter=submitter = University of Tokyo Team (Faculty of Engineering, University of Tokyo)
MoNA Rating=3.75

>  <NUM PEAKS>  (3380) 
26

>  <MASS SPECTRAL PEAKS>  (3380) 
15 1.63
27 21.31
28 8.55
29 25.27
39 25.82
40 4.9
41 73.87
42 70.14
43 13.37
53 6.07
54 10.89
55 90.12
56 99.99
57 18.04
67 6.69
68 20.22
69 55.44
70 80.09
71 4.67
82 3.34
83 38.72
84 2.33
96 2.18
97 11.66
98 31.8
99 2.1

>  <PREDICTED SPECTRUM>  (3380) 
14 33
15 96
16 17
17 2
18 39
25 31
26 198
27 660
28 370
29 711
30 163
31 107
32 38
33 3
35 4
36 2
37 74
38 129
39 636
40 251
41 965
42 686
43 742
44 147
45 87
49 38
50 130
51 231
52 148
53 301
54 464
55 999
56 824
57 641
58 201
59 129
63 70
64 12
65 146
66 180
67 360
68 391
69 794
70 834
71 517
72 159
77 104
78 124
79 161
80 58
81 151
82 373
83 309
84 325
86 19
95 35
96 231
97 214
98 350
99 52

$$$$

     RDKit          2D

  5  5  0  0  0  0  0  0  0  0999 V2000
    1.2100    0.3900    0.0000 C   0  0  0  0  0  0  0  0  0  0  0  0
    0.0000    1.2800    0.0000 C   0  0  0  0  0  0  0  0  0  0  0  0
    0.7500   -1.0300    0.0000 C   0  0  0  0  0  0  0  0  0  0  0  0
   -1.2100    0.3900    0.0000 C   0  0  0  0  0  0  0  0  0  0  0  0
   -0.7500   -1.0300    0.0000 C   0  0  0  0  0  0  0  0  0  0  0  0
  2  1  1  0
  3  1  1  0
  4  2  1  0
  5  3  1  0
  5  4  1  0
M  END
>  <NAME>  (3381) 
CYCLOPENTANE

>  <SYNONYMS>  (3381) 


>  <SPECTRUM TYPE>  (3381) 
MS1

>  <INSTRUMENT TYPE>  (3381) 
EI-B

>  <INSTRUMENT>  (3381) 
HITACHI RMU-7M

>  <ION MODE>  (3381) 
P

>  <INCHIKEY>  (3381) 
RGSFGYAAUTVSQA-UHFFFAOYSA-N

>  <FORMULA>  (3381) 
C5H10

>  <EXACT MASS>  (3381) 
70.07825032

>  <MW>  (3381) 
70

>  <ID>  (3381) 
JP006795

>  <CONTRIBUTOR>  (3381) 
University of Tokyo Team, {Faculty of Engineering, University of Tokyo

>  <COMMENT>  (3381) 
SMILES=C(C1)CCC1
InChI=InChI=1S/C5H10/c1-2-4-5-3-1/h1-5H2
computed SMILES=C1CCCC1
accession=JP006795
date=2016.01.19 (Created 2008.10.21, modified 2011.05.06)
author=TAJIMA S, GUNMA COLLEGE OF TECHNOLOGY
license=CC BY-NC-SA
exact mass=70.07825
ionization energy=70 eV
ion type=[M]+*
computed spectral entropy=1.8618739035635559
computed normalized entropy=0.6571597961267448
SPLASH=splash10-0006-9000000000-afc524518acc7d17794e
submitter=submitter = University of Tokyo Team (Faculty of Engineering, University of Tokyo)
MoNA Rating=3.75

>  <NUM PEAKS>  (3381) 
17

>  <MASS SPECTRAL PEAKS>  (3381) 
27 4.98
28 1.35
29 2.92
39 10.68
40 4.2
41 22.06
42 99.99
43 4.63
53 1.42
54 1.07
55 35.66
56 1.57
67 1.42
68 1.57
69 3.56
70 25.98
71 1.71

>  <PREDICTED SPECTRUM>  (3381) 
14 74
15 88
16 30
18 35
25 43
26 274
27 765
28 466
29 675
30 140
31 84
32 43
35 7
37 116
38 188
39 732
40 306
41 999
42 809
43 444
44 91
49 61
50 188
51 268
52 146
53 264
54 411
55 911
56 794
57 426
64 9
65 91
66 57
67 255
68 127
69 576
70 685
71 233

$$$$

     RDKit          2D

 11 12  0  0  0  0  0  0  0  0999 V2000
    3.5389    1.3602    0.0000 C   0  0  0  0  0  0  0  0  0  0  0  0
   -2.9500   -0.8900    0.0000 C   0  0  0  0  0  0  0  0  0  0  0  0
   -2.9500    0.6100    0.0000 C   0  0  0  0  0  0  0  0  0  0  0  0
   -1.6500   -1.6400    0.0000 C   0  0  0  0  0  0  0  0  0  0  0  0
   -1.6500    1.3600    0.0000 C   0  0  0  0  0  0  0  0  0  0  0  0
    2.2400   -0.8900    0.0000 C   0  0  0  0  0  0  0  0  0  0  0  0
    0.9400   -1.6400    0.0000 C   0  0  0  0  0  0  0  0  0  0  0  0
    0.9400    1.3600    0.0000 C   0  0  0  0  0  0  0  0  0  0  0  0
    2.2400    0.6100    0.0000 C   0  0  0  0  0  0  0  0  0  0  0  0
   -0.3500   -0.8900    0.0000 C   0  0  0  0  0  0  0  0  0  0  0  0
   -0.3500    0.6100    0.0000 C   0  0  0  0  0  0  0  0  0  0  0  0
  3  2  2  0
  4  2  1  0
  5  3  1  0
  7  6  2  0
  9  1  1  0
  9  6  1  0
  9  8  2  0
 10  4  2  0
 10  7  1  0
 11  5  2  0
 11  8  1  0
 11 10  1  0
M  END
>  <NAME>  (3382) 
2-METHYLNAPHTHALENE

>  <SYNONYMS>  (3382) 


>  <SPECTRUM TYPE>  (3382) 
MS1

>  <INSTRUMENT TYPE>  (3382) 
EI-B

>  <INSTRUMENT>  (3382) 
HITACHI RMU-7M

>  <ION MODE>  (3382) 
P

>  <INCHIKEY>  (3382) 
QIMMUPPBPVKWKM-UHFFFAOYSA-N

>  <FORMULA>  (3382) 
C11H10

>  <EXACT MASS>  (3382) 
142.07825032

>  <MW>  (3382) 
142

>  <ID>  (3382) 
JP006791

>  <CONTRIBUTOR>  (3382) 
University of Tokyo Team, {Faculty of Engineering, University of Tokyo

>  <COMMENT>  (3382) 
SMILES=Cc(c1)cc(c2)c(ccc2)c1
InChI=InChI=1S/C11H10/c1-9-6-7-10-4-2-3-5-11(10)8-9/h2-8H,1H3
computed SMILES=C=1C=CC=2C=C(C=CC2C1)C
accession=JP006791
date=2016.01.19 (Created 2008.10.21, modified 2011.05.06)
author=TAJIMA S, GUNMA COLLEGE OF TECHNOLOGY
license=CC BY-NC-SA
exact mass=142.07825
ionization energy=70 eV
ion type=[M]+*
computed spectral entropy=2.144634475409155
computed normalized entropy=0.6369011170063338
SPLASH=splash10-0006-2900000000-e3d5d8950004ca237838
submitter=submitter = University of Tokyo Team (Faculty of Engineering, University of Tokyo)
MoNA Rating=3.75

>  <NUM PEAKS>  (3382) 
29

>  <MASS SPECTRAL PEAKS>  (3382) 
27 1.09
39 2.86
50 2
51 2.51
57.5 4.51
58 1.09
62 1.94
63 4.29
65 1.43
69 1.49
69.5 2.63
70 2.86
70.5 3.89
71 5.71
74 1.83
75 1.77
76 1.14
77 1.2
87 1.37
89 2.29
91 1.09
113 1.09
115 16.8
116 1.77
139 7.14
140 4.23
141 60
142 99.99
143 11.54

>  <PREDICTED SPECTRUM>  (3382) 
15 27
26 32
27 82
36 32
37 57
38 122
39 289
40 77
41 103
43 6
44 36
49 47
50 265
51 349
52 167
53 79
54 16
55 11
56 27
57 193
58 39
61 163
62 259
63 354
64 167
65 228
67 19
68 25
69 36
70 65
71 129
73 86
74 306
75 342
76 273
77 283
78 139
79 88
81 25
82 120
83 156
84 69
85 88
86 178
87 212
88 165
89 208
90 42
91 20
94 49
95 85
96 28
97 45
98 133
99 95
100 102
101 169
102 257
103 0
110 7
111 15
113 111
114 88
115 684
116 205
126 198
127 559
128 437
129 114
137 62
138 85
139 347
140 336
141 999
142 982
143 374
144 74

$$$$

     RDKit          2D

  9  9  0  0  0  0  0  0  0  0999 V2000
    4.8270    1.2906    0.0000 C   0  0  0  0  0  0  0  0  0  0  0  0
    3.5281    0.5404    0.0000 C   0  0  0  0  0  0  0  0  0  0  0  0
   -1.6700   -0.9600    0.0000 C   0  0  0  0  0  0  0  0  0  0  0  0
   -1.6700    0.5400    0.0000 C   0  0  0  0  0  0  0  0  0  0  0  0
   -0.3700   -1.7100    0.0000 C   0  0  0  0  0  0  0  0  0  0  0  0
   -0.3700    1.2900    0.0000 C   0  0  0  0  0  0  0  0  0  0  0  0
    0.9300   -0.9600    0.0000 C   0  0  0  0  0  0  0  0  0  0  0  0
    0.9300    0.5400    0.0000 C   0  0  0  0  0  0  0  0  0  0  0  0
    2.2289    1.2902    0.0000 O   0  0  0  0  0  0  0  0  0  0  0  0
  2  1  2  0
  4  3  2  0
  5  3  1  0
  6  4  1  0
  7  5  2  0
  8  6  2  0
  8  7  1  0
  9  2  1  0
  9  8  1  0
M  END
>  <NAME>  (3383) 
PHENYL VINYL ETHER

>  <SYNONYMS>  (3383) 
PHENOXYETHYLENE

>  <SPECTRUM TYPE>  (3383) 
MS1

>  <INSTRUMENT TYPE>  (3383) 
EI-B

>  <INSTRUMENT>  (3383) 
HITACHI RMU-7M

>  <ION MODE>  (3383) 
P

>  <INCHIKEY>  (3383) 
NHOGGUYTANYCGQ-UHFFFAOYSA-N

>  <FORMULA>  (3383) 
C8H8O

>  <EXACT MASS>  (3383) 
120.057514876

>  <MW>  (3383) 
120

>  <ID>  (3383) 
JP006788

>  <CONTRIBUTOR>  (3383) 
University of Tokyo Team, {Faculty of Engineering, University of Tokyo

>  <COMMENT>  (3383) 
SMILES=C=COc(c1)cccc1
InChI=InChI=1S/C8H8O/c1-2-9-8-6-4-3-5-7-8/h2-7H,1H2
computed SMILES=O(C=C)C=1C=CC=CC1
accession=JP006788
date=2016.01.19 (Created 2008.10.21, modified 2011.05.06)
author=TAJIMA S, GUNMA COLLEGE OF TECHNOLOGY
license=CC BY-NC-SA
exact mass=120.05751
ionization energy=70 eV
ion type=[M]+*
computed spectral entropy=2.3730854079158226
computed normalized entropy=0.7372404333158737
SPLASH=splash10-00dl-9500000000-40b99be09dfa7c1a0720
submitter=submitter = University of Tokyo Team (Faculty of Engineering, University of Tokyo)
MoNA Rating=3.75

>  <NUM PEAKS>  (3383) 
25

>  <MASS SPECTRAL PEAKS>  (3383) 
26 1.02
27 5.63
38 2.1
39 10.23
40 2.71
46 1.59
50 4.65
51 15.45
52 1.23
55 3.68
63 3.48
65 10.54
66 9.82
74 1.33
76 1.28
77 19.34
78 2.66
91 63.12
92 8.18
93 1.28
94 31.1
95 2.05
119 12.79
120 99.99
121 9.31

>  <PREDICTED SPECTRUM>  (3383) 
14 31
15 46
25 38
26 168
27 300
28 122
37 169
38 292
39 563
40 171
41 64
42 71
44 156
49 102
50 487
51 782
52 349
53 239
54 24
55 33
57 65
61 230
62 217
63 309
64 240
65 536
66 281
72 56
73 98
74 234
75 230
76 194
77 999
78 513
79 118
80 7
89 132
90 29
91 185
92 521
93 347
94 441
102 29
105 82
119 150
120 681
121 176

$$$$

     RDKit          2D

  6  6  0  0  0  0  0  0  0  0999 V2000
   -1.3000    0.7500    0.0000 C   0  0  0  0  0  0  0  0  0  0  0  0
    0.0000    1.5000    0.0000 C   0  0  0  0  0  0  0  0  0  0  0  0
   -1.3000   -0.7500    0.0000 C   0  0  0  0  0  0  0  0  0  0  0  0
    1.3000    0.7500    0.0000 C   0  0  0  0  0  0  0  0  0  0  0  0
   -0.0000   -1.5000    0.0000 C   0  0  0  0  0  0  0  0  0  0  0  0
    1.3000   -0.7500    0.0000 C   0  0  0  0  0  0  0  0  0  0  0  0
  2  1  2  0
  3  1  1  0
  4  2  1  0
  5  3  1  0
  6  4  1  0
  6  5  1  0
M  END
>  <NAME>  (3384) 
CYCLOHEXENE

>  <SYNONYMS>  (3384) 


>  <SPECTRUM TYPE>  (3384) 
MS1

>  <INSTRUMENT TYPE>  (3384) 
EI-B

>  <INSTRUMENT>  (3384) 
HITACHI RMU-7M

>  <ION MODE>  (3384) 
P

>  <INCHIKEY>  (3384) 
HGCIXCUEYOPUTN-UHFFFAOYSA-N

>  <FORMULA>  (3384) 
C6H10

>  <EXACT MASS>  (3384) 
82.07825032

>  <MW>  (3384) 
82

>  <ID>  (3384) 
JP006786

>  <CONTRIBUTOR>  (3384) 
University of Tokyo Team, {Faculty of Engineering, University of Tokyo

>  <COMMENT>  (3384) 
SMILES=C(C1)CC=CC1
InChI=InChI=1S/C6H10/c1-2-4-6-5-3-1/h1-2H,3-6H2
computed SMILES=C1=CCCCC1
accession=JP006786
date=2016.01.19 (Created 2008.10.21, modified 2011.05.06)
author=TAJIMA S, GUNMA COLLEGE OF TECHNOLOGY
license=CC BY-NC-SA
exact mass=82.07825
ionization energy=70 eV
ion type=[M]+*
computed spectral entropy=2.3053328472581947
computed normalized entropy=0.7253913779697677
SPLASH=splash10-014i-9000000000-495741c6e5113617b1cb
submitter=submitter = University of Tokyo Team (Faculty of Engineering, University of Tokyo)
MoNA Rating=3.75

>  <NUM PEAKS>  (3384) 
24

>  <MASS SPECTRAL PEAKS>  (3384) 
26 2.03
27 11.71
28 3.42
29 1.74
38 2.03
39 20.93
40 2.9
41 22.55
42 1.91
50 2.9
51 4.35
52 2.32
53 7.07
54 46.72
55 3.42
65 2.26
66 1.51
67 99.99
68 6.03
77 2.84
79 4
81 7.42
82 30.14
83 2.02

>  <PREDICTED SPECTRUM>  (3384) 
14 10
15 49
25 29
26 165
27 493
28 244
29 283
37 99
38 177
39 691
40 359
41 692
42 271
43 70
49 47
50 190
51 312
52 240
53 498
54 748
55 369
56 89
62 86
63 177
64 68
65 257
66 179
67 999
68 284
69 39
76 6
77 275
78 77
79 270
81 425
82 266
83 42

$$$$

     RDKit          2D

  9  8  0  0  0  0  0  0  0  0999 V2000
    1.9931    3.2978    0.0000 C   0  0  0  0  0  0  0  0  0  0  0  0
   -5.8011    3.2978    0.0000 C   0  0  0  0  0  0  0  0  0  0  0  0
   -0.9398    5.1969    0.0000 C   0  0  0  0  0  0  0  0  0  0  0  0
   -2.8682    5.1969    0.0000 C   0  0  0  0  0  0  0  0  0  0  0  0
    0.6941    4.0478    0.0000 C   0  0  0  0  0  0  0  0  0  0  0  0
   -4.5021    4.0478    0.0000 C   0  0  0  0  0  0  0  0  0  0  0  0
   -1.9040    4.0478    0.0000 C   0  0  0  0  0  0  0  0  0  0  0  0
   -0.6050    3.2978    0.0000 O   0  0  0  0  0  0  0  0  0  0  0  0
   -3.2031    3.2978    0.0000 O   0  0  0  0  0  0  0  0  0  0  0  0
  5  1  1  0
  6  2  1  0
  7  3  1  0
  7  4  1  0
  8  5  1  0
  8  7  1  0
  9  6  1  0
  9  7  1  0
M  END
>  <NAME>  (3385) 
2,2-DIETHOXYPROPANE

>  <SYNONYMS>  (3385) 
ACETONE DIETHYLACETAL

>  <SPECTRUM TYPE>  (3385) 
MS1

>  <INSTRUMENT TYPE>  (3385) 
EI-B

>  <INSTRUMENT>  (3385) 
HITACHI RMU-7M

>  <ION MODE>  (3385) 
P

>  <INCHIKEY>  (3385) 
FGQLGYBGTRHODR-UHFFFAOYSA-N

>  <FORMULA>  (3385) 
C7H16O2

>  <EXACT MASS>  (3385) 
132.115029752

>  <MW>  (3385) 
132

>  <ID>  (3385) 
JP006785

>  <CONTRIBUTOR>  (3385) 
University of Tokyo Team, {Faculty of Engineering, University of Tokyo

>  <COMMENT>  (3385) 
SMILES=CCOC(C)(C)OCC
InChI=InChI=1S/C7H16O2/c1-5-8-7(3,4)9-6-2/h5-6H2,1-4H3
computed SMILES=O(CC)C(OCC)(C)C
accession=JP006785
date=2016.01.19 (Created 2008.10.21, modified 2011.05.06)
author=TAJIMA S, GUNMA COLLEGE OF TECHNOLOGY
license=CC BY-NC-SA
exact mass=132.11503
ionization energy=70 eV
ion type=[M]+*
computed spectral entropy=2.203128249814801
computed normalized entropy=0.7236367262453863
SPLASH=splash10-0a4r-9000000000-1e0bcac34005f2f15a14
submitter=submitter = University of Tokyo Team (Faculty of Engineering, University of Tokyo)
MoNA Rating=3.75

>  <NUM PEAKS>  (3385) 
21

>  <MASS SPECTRAL PEAKS>  (3385) 
15 3.09
27 5.68
28 8.02
29 9.79
31 11.36
39 2.4
41 5.87
42 2.53
43 24.31
44 1.89
45 3.79
58 5.68
59 99.99
60 3.66
61 21.46
77 1.26
87 55.87
88 3.16
89 4.42
112 1.26
117 5.05

>  <PREDICTED SPECTRUM>  (3385) 
14 48
15 157
17 3
18 51
19 28
25 26
26 122
27 406
28 147
29 696
30 157
31 474
32 28
33 29
38 20
39 307
40 120
41 387
42 211
43 918
44 298
45 281
46 61
47 176
53 38
57 438
58 179
59 719
60 40
61 261
73 276
74 70
75 309
86 86
87 999
88 273
89 301
117 421

$$$$

     RDKit          2D

  6  6  0  0  0  0  0  0  0  0999 V2000
    1.3000    0.7500    0.0000 C   0  0  0  0  0  0  0  0  0  0  0  0
    1.3000   -0.7500    0.0000 C   0  0  0  0  0  0  0  0  0  0  0  0
   -1.3000    0.7500    0.0000 C   0  0  0  0  0  0  0  0  0  0  0  0
   -1.3000   -0.7500    0.0000 C   0  0  0  0  0  0  0  0  0  0  0  0
    0.0000    1.5000    0.0000 O   0  0  0  0  0  0  0  0  0  0  0  0
   -0.0000   -1.5000    0.0000 O   0  0  0  0  0  0  0  0  0  0  0  0
  2  1  1  0
  4  3  1  0
  5  1  1  0
  5  3  1  0
  6  2  1  0
  6  4  1  0
M  END
>  <NAME>  (3386) 
1,4-DIOXANE

>  <SYNONYMS>  (3386) 


>  <SPECTRUM TYPE>  (3386) 
MS1

>  <INSTRUMENT TYPE>  (3386) 
EI-B

>  <INSTRUMENT>  (3386) 
HITACHI RMU-7M

>  <ION MODE>  (3386) 
P

>  <INCHIKEY>  (3386) 
RYHBNJHYFVUHQT-UHFFFAOYSA-N

>  <FORMULA>  (3386) 
C4H8O2

>  <EXACT MASS>  (3386) 
88.052429496

>  <MW>  (3386) 
88

>  <ID>  (3386) 
JP006784

>  <CONTRIBUTOR>  (3386) 
University of Tokyo Team, {Faculty of Engineering, University of Tokyo

>  <COMMENT>  (3386) 
SMILES=C(C1)OCCO1
InChI=InChI=1S/C4H8O2/c1-2-6-4-3-5-1/h1-4H2
computed SMILES=O1CCOCC1
accession=JP006784
date=2016.01.19 (Created 2008.10.21, modified 2011.05.06)
author=TAJIMA S, GUNMA COLLEGE OF TECHNOLOGY
license=CC BY-NC-SA
exact mass=88.05243
ionization energy=70 eV
ion type=[M]+*
computed spectral entropy=2.2813689849433456
computed normalized entropy=0.789299500561098
SPLASH=splash10-0570-9000000000-fdad6aa284c3554c651b
submitter=submitter = University of Tokyo Team (Faculty of Engineering, University of Tokyo)
MoNA Rating=3.75

>  <NUM PEAKS>  (3386) 
18

>  <MASS SPECTRAL PEAKS>  (3386) 
14 1.31
15 10.69
26 4.88
27 9.8
28 99.99
29 26.36
30 14.54
31 17.35
42 1.41
43 14.02
44 6.94
45 11.77
57 12.52
58 52.63
59 2.35
87 5.72
88 78.89
89 6.71

>  <PREDICTED SPECTRUM>  (3386) 
14 195
15 454
16 120
17 111
18 185
19 144
25 109
26 371
27 806
28 759
29 999
30 322
31 689
32 219
33 34
36 7
41 162
42 437
43 985
44 528
45 504
57 277
58 383
59 59
61 96
73 85
87 165
88 247
89 67

$$$$

     RDKit          2D

  9  9  0  0  0  0  0  0  0  0999 V2000
  -10.4600    6.3600    0.0000 C   0  0  0  0  0  0  0  0  0  0  0  0
  -11.3400    5.1500    0.0000 C   0  0  0  0  0  0  0  0  0  0  0  0
   -9.0300    5.9000    0.0000 C   0  0  0  0  0  0  0  0  0  0  0  0
  -10.4600    3.9300    0.0000 C   0  0  0  0  0  0  0  0  0  0  0  0
   -7.6000    6.3600    0.0000 C   0  0  0  0  0  0  0  0  0  0  0  0
   -9.0300    4.4000    0.0000 C   0  0  0  0  0  0  0  0  0  0  0  0
   -6.7200    5.1500    0.0000 C   0  0  0  0  0  0  0  0  0  0  0  0
   -7.6000    3.9300    0.0000 C   0  0  0  0  0  0  0  0  0  0  0  0
   -7.1364    2.5034    0.0000 O   0  0  0  0  0  0  0  0  0  0  0  0
  2  1  1  0
  3  1  1  0
  4  2  1  0
  5  3  1  0
  6  4  1  0
  7  5  1  0
  8  6  1  0
  8  7  1  0
  9  8  1  0
M  END
>  <NAME>  (3387) 
CYCLOOCTANOL

>  <SYNONYMS>  (3387) 


>  <SPECTRUM TYPE>  (3387) 
MS1

>  <INSTRUMENT TYPE>  (3387) 
EI-B

>  <INSTRUMENT>  (3387) 
HITACHI RMU-7M

>  <ION MODE>  (3387) 
P

>  <INCHIKEY>  (3387) 
FHADSMKORVFYOS-UHFFFAOYSA-N

>  <FORMULA>  (3387) 
C8H16O

>  <EXACT MASS>  (3387) 
128.120115132

>  <MW>  (3387) 
128

>  <ID>  (3387) 
JP006783

>  <CONTRIBUTOR>  (3387) 
University of Tokyo Team, {Faculty of Engineering, University of Tokyo

>  <COMMENT>  (3387) 
SMILES=OC(C1)CCCCCC1
InChI=InChI=1S/C8H16O/c9-8-6-4-2-1-3-5-7-8/h8-9H,1-7H2
computed SMILES=OC1CCCCCCC1
accession=JP006783
date=2016.01.19 (Created 2008.10.21, modified 2011.05.06)
author=TAJIMA S, GUNMA COLLEGE OF TECHNOLOGY
license=CC BY-NC-SA
exact mass=128.12012
ionization energy=70 eV
ion type=[M]+*
computed spectral entropy=3.2045913850341927
computed normalized entropy=0.8747202025164963
SPLASH=splash10-0apl-9000000000-6e5c1a37e2b6a2fa873e
submitter=submitter = University of Tokyo Team (Faculty of Engineering, University of Tokyo)
MoNA Rating=3.75

>  <NUM PEAKS>  (3387) 
39

>  <MASS SPECTRAL PEAKS>  (3387) 
15 1.64
27 18.07
28 4.42
29 21.5
31 8.18
39 17.09
40 3.52
41 47.67
42 19.46
43 30.09
44 25.51
45 6.7
53 5.31
54 19.54
55 32.3
56 22.08
57 99.99
58 8.99
66 8.18
67 42.11
68 42.52
69 25.1
70 3.68
71 9.73
72 4.42
81 32.3
82 34.26
83 4.09
84 7.03
85 7.77
86 2.04
95 11.86
99 4.09
109 2.62
110 8.18
111 19.54
112 1.64
127 2.21
128 1

>  <PREDICTED SPECTRUM>  (3387) 
14 21
15 76
16 23
17 28
18 55
19 9
25 2
26 153
27 549
28 289
29 603
30 208
31 391
32 41
33 9
37 23
38 98
39 675
40 303
41 969
42 570
43 797
44 559
45 327
46 27
47 50
50 125
51 227
52 134
53 446
54 730
55 869
56 586
57 999
58 532
59 212
63 43
64 17
65 189
66 330
67 949
68 735
69 619
70 677
71 591
72 360
73 98
74 55
75 4
76 1
77 266
78 199
79 371
80 369
81 863
82 971
83 587
84 419
85 395
86 122
91 221
92 170
93 180
95 534
96 339
97 458
98 105
99 156
100 117
108 132
109 164
110 483
111 144
112 1
113 38

$$$$

     RDKit          2D

  8  8  0  0  0  0  0  0  0  0999 V2000
  -10.4600    6.3600    0.0000 C   0  0  0  0  0  0  0  0  0  0  0  0
  -11.3400    5.1500    0.0000 C   0  0  0  0  0  0  0  0  0  0  0  0
   -9.0300    5.9000    0.0000 C   0  0  0  0  0  0  0  0  0  0  0  0
  -10.4600    3.9300    0.0000 C   0  0  0  0  0  0  0  0  0  0  0  0
   -7.6000    6.3600    0.0000 C   0  0  0  0  0  0  0  0  0  0  0  0
   -9.0300    4.4000    0.0000 C   0  0  0  0  0  0  0  0  0  0  0  0
   -6.7200    5.1500    0.0000 C   0  0  0  0  0  0  0  0  0  0  0  0
   -7.6000    3.9300    0.0000 C   0  0  0  0  0  0  0  0  0  0  0  0
  1  2  2  0
  3  1  1  0
  4  2  1  0
  5  3  1  0
  6  4  1  0
  7  5  1  0
  8  6  1  0
  8  7  1  0
M  END
>  <NAME>  (3388) 
CYCLOOCTENE

>  <SYNONYMS>  (3388) 


>  <SPECTRUM TYPE>  (3388) 
MS1

>  <INSTRUMENT TYPE>  (3388) 
EI-B

>  <INSTRUMENT>  (3388) 
HITACHI RMU-7M

>  <ION MODE>  (3388) 
P

>  <INCHIKEY>  (3388) 
URYYVOIYTNXXBN-UPHRSURJSA-N

>  <FORMULA>  (3388) 
C8H14

>  <EXACT MASS>  (3388) 
110.109550448

>  <MW>  (3388) 
110

>  <ID>  (3388) 
JP006781

>  <CONTRIBUTOR>  (3388) 
University of Tokyo Team, {Faculty of Engineering, University of Tokyo

>  <COMMENT>  (3388) 
SMILES=C(C1)CCC=CCC1
InChI=InChI=1S/C8H14/c1-2-4-6-8-7-5-3-1/h1-2H,3-8H2/b2-1-
computed SMILES=C1=CCCCCCC1
accession=JP006781
date=2016.01.19 (Created 2008.10.21, modified 2011.05.06)
author=TAJIMA S, GUNMA COLLEGE OF TECHNOLOGY
license=CC BY-NC-SA
exact mass=110.10955
ionization energy=70 eV
ion type=[M]+*
computed spectral entropy=2.7446297510150823
computed normalized entropy=0.7919327461731539
SPLASH=splash10-0159-9000000000-51f21957f9c9187bcd72
submitter=submitter = University of Tokyo Team (Faculty of Engineering, University of Tokyo)
MoNA Rating=3.75

>  <NUM PEAKS>  (3388) 
32

>  <MASS SPECTRAL PEAKS>  (3388) 
27 6.32
28 1.18
29 4.09
39 16.45
40 3.18
41 43.64
42 4.45
43 2.73
51 2.64
52 1.5
53 10
54 72.95
55 20.45
56 9.55
65 3.68
66 5
67 99.99
68 38.73
69 17.45
70 2.68
77 3.36
79 6.23
80 3
81 50.86
82 65.59
83 5.68
91 1.36
95 19.45
109 1.14
110 43.64
111 3.86
112 1.45

>  <PREDICTED SPECTRUM>  (3388) 
14 5
15 36
25 19
26 147
27 501
28 217
29 378
37 66
38 133
39 647
40 315
41 763
42 321
43 186
44 11
49 23
50 161
51 295
52 232
53 448
54 792
55 594
56 225
57 80
62 63
63 174
64 41
65 269
66 258
67 999
68 633
69 320
70 181
77 264
78 172
79 325
80 24
81 796
82 568
83 215
91 136
92 57
93 55
95 308
96 187
109 10
110 214
111 61

$$$$

     RDKit          2D

  5  5  0  0  0  0  0  0  0  0999 V2000
    1.2100    0.3900    0.0000 C   0  0  0  0  0  0  0  0  0  0  0  0
    0.0000    1.2800    0.0000 C   0  0  0  0  0  0  0  0  0  0  0  0
    0.7500   -1.0300    0.0000 C   0  0  0  0  0  0  0  0  0  0  0  0
   -1.2100    0.3900    0.0000 C   0  0  0  0  0  0  0  0  0  0  0  0
   -0.7500   -1.0300    0.0000 C   0  0  0  0  0  0  0  0  0  0  0  0
  2  1  2  0
  3  1  1  0
  4  2  1  0
  5  3  1  0
  5  4  1  0
M  END
>  <NAME>  (3389) 
CYCLOPENTENE

>  <SYNONYMS>  (3389) 


>  <SPECTRUM TYPE>  (3389) 
MS1

>  <INSTRUMENT TYPE>  (3389) 
EI-B

>  <INSTRUMENT>  (3389) 
HITACHI RMU-7M

>  <ION MODE>  (3389) 
P

>  <INCHIKEY>  (3389) 
LPIQUOYDBNQMRZ-UHFFFAOYSA-N

>  <FORMULA>  (3389) 
C5H8

>  <EXACT MASS>  (3389) 
68.062600256

>  <MW>  (3389) 
68

>  <ID>  (3389) 
JP006780

>  <CONTRIBUTOR>  (3389) 
University of Tokyo Team, {Faculty of Engineering, University of Tokyo

>  <COMMENT>  (3389) 
SMILES=C(C1)CC=C1
InChI=InChI=1S/C5H8/c1-2-4-5-3-1/h1-2H,3-5H2
computed SMILES=C1=CCCC1
accession=JP006780
date=2016.01.19 (Created 2008.10.21, modified 2011.05.06)
author=TAJIMA S, GUNMA COLLEGE OF TECHNOLOGY
license=CC BY-NC-SA
exact mass=68.0626
ionization energy=70 eV
ion type=[M]+*
computed spectral entropy=2.1772512193702913
computed normalized entropy=0.7043744148530795
SPLASH=splash10-014i-9000000000-a8e41ee1d13e3280462f
submitter=submitter = University of Tokyo Team (Faculty of Engineering, University of Tokyo)
MoNA Rating=3.75

>  <NUM PEAKS>  (3389) 
22

>  <MASS SPECTRAL PEAKS>  (3389) 
26 1.26
27 7.05
28 2.73
31 1.26
37 1.66
38 3.99
39 22.21
40 12.5
41 15.09
42 7.45
43 3.32
50 1.4
51 1.93
53 19.55
57 1.53
62 1.33
63 1.93
65 5.65
66 4.45
67 99.99
68 43.09
69 2.26

>  <PREDICTED SPECTRUM>  (3389) 
14 31
15 82
16 8
25 42
26 198
27 462
28 225
29 218
32 7
35 19
36 35
37 143
38 221
39 693
40 392
41 614
42 172
49 121
50 230
51 330
52 283
53 498
54 790
55 130
56 38
62 128
63 177
64 71
65 264
66 150
67 999
68 420
69 101
70 37

$$$$

     RDKit          2D

  3  2  0  0  0  0  0  0  0  0999 V2000
   -1.2990    0.0000    0.0000 C   0  0  0  0  0  0  0  0  0  0  0  0
   -0.0000    0.7500    0.0000 C   0  0  0  0  0  0  0  0  0  0  0  0
    0.0000    2.2500    0.0000 O   0  0  0  0  0  0  0  0  0  0  0  0
  2  1  1  0
  3  2  1  0
M  END
>  <NAME>  (3390) 
ETHANOL

>  <SYNONYMS>  (3390) 


>  <SPECTRUM TYPE>  (3390) 
MS1

>  <INSTRUMENT TYPE>  (3390) 
EI-B

>  <INSTRUMENT>  (3390) 
HITACHI RMU-7M

>  <ION MODE>  (3390) 
P

>  <INCHIKEY>  (3390) 
LFQSCWFLJHTTHZ-UHFFFAOYSA-N

>  <FORMULA>  (3390) 
C2H6O

>  <EXACT MASS>  (3390) 
46.041864812

>  <MW>  (3390) 
46

>  <ID>  (3390) 
JP006778

>  <CONTRIBUTOR>  (3390) 
University of Tokyo Team, {Faculty of Engineering, University of Tokyo

>  <COMMENT>  (3390) 
SMILES=CCO
InChI=InChI=1S/C2H6O/c1-2-3/h3H,2H2,1H3
computed SMILES=OCC
accession=JP006778
date=2016.01.19 (Created 2008.10.21, modified 2011.05.06)
author=TAJIMA S, GUNMA COLLEGE OF TECHNOLOGY
license=CC BY-NC-SA
exact mass=46.04186
ionization energy=70 eV
ion type=[M]+*
computed spectral entropy=1.9052320446881732
computed normalized entropy=0.7035438426926945
SPLASH=splash10-001j-9000000000-a705823ce4aeba7f89e1
submitter=submitter = University of Tokyo Team (Faculty of Engineering, University of Tokyo)
MoNA Rating=3.75

>  <NUM PEAKS>  (3390) 
15

>  <MASS SPECTRAL PEAKS>  (3390) 
14 2.55
15 5.04
19 3.91
26 4.87
27 18.02
28 5.5
29 11.9
30 5.1
31 99.99
32 1
42 3
43 8.5
45 49.58
46 18.24
47 1.42

>  <PREDICTED SPECTRUM>  (3390) 
14 163
15 375
16 111
17 169
18 76
19 138
25 106
26 372
27 838
28 649
29 999
30 189
31 865
37 105
38 89
42 288
43 419
44 426
45 533
46 864
47 233

$$$$

     RDKit          2D

 15 15  0  0  0  0  0  0  0  0999 V2000
    3.1608    1.3943    0.0000 C   0  0  0  0  0  0  0  0  0  0  0  0
    3.1613    2.8952    0.0000 C   0  0  0  0  0  0  0  0  0  0  0  0
    1.8613    0.6435    0.0000 C   0  0  0  0  0  0  0  0  0  0  0  0
    1.8623    3.6452    0.0000 C   0  0  0  0  0  0  0  0  0  0  0  0
    0.5623    1.3935    0.0000 C   0  0  0  0  0  0  0  0  0  0  0  0
   -2.0353    2.8943    0.0000 C   0  0  0  0  0  0  0  0  0  0  0  0
    0.5627    2.8943    0.0000 C   0  0  0  0  0  0  0  0  0  0  0  0
   -0.7363    3.6443    0.0000 C   0  0  0  0  0  0  0  0  0  0  0  0
   -3.3344    3.6443    0.0000 C   0  0  0  0  0  0  0  0  0  0  0  0
   -4.6334    2.8943    0.0000 C   0  0  0  0  0  0  0  0  0  0  0  0
   -5.3834    4.1934    0.0000 F   0  0  0  0  0  0  0  0  0  0  0  0
   -5.9324    2.1443    0.0000 F   0  0  0  0  0  0  0  0  0  0  0  0
   -3.8834    1.5953    0.0000 F   0  0  0  0  0  0  0  0  0  0  0  0
   -0.7363    5.1443    0.0000 O   0  0  0  0  0  0  0  0  0  0  0  0
   -3.3344    5.1443    0.0000 O   0  0  0  0  0  0  0  0  0  0  0  0
  2  1  2  0
  3  1  1  0
  4  2  1  0
  5  3  2  0
  7  4  2  0
  7  5  1  0
  8  6  1  0
  8  7  1  0
  9  6  1  0
 10  9  1  0
 11 10  1  0
 12 10  1  0
 13 10  1  0
 14  8  2  0
 15  9  2  0
M  END
>  <NAME>  (3391) 
1,1,1-TRIFLUORO-4-PHENYL-2,4-BUTANEDIONE

>  <SYNONYMS>  (3391) 


>  <SPECTRUM TYPE>  (3391) 
MS1

>  <INSTRUMENT TYPE>  (3391) 
EI-B

>  <INSTRUMENT>  (3391) 
HITACHI RMU-7M

>  <ION MODE>  (3391) 
P

>  <INCHIKEY>  (3391) 
VVXLFFIFNVKFBD-UHFFFAOYSA-N

>  <FORMULA>  (3391) 
C10H7F3O2

>  <EXACT MASS>  (3391) 
216.039814124

>  <MW>  (3391) 
216

>  <ID>  (3391) 
JP006777

>  <CONTRIBUTOR>  (3391) 
University of Tokyo Team, {Faculty of Engineering, University of Tokyo

>  <COMMENT>  (3391) 
SMILES=O=C(CC(=O)C(F)(F)F)c(c1)cccc1
InChI=InChI=1S/C10H7F3O2/c11-10(12,13)9(15)6-8(14)7-4-2-1-3-5-7/h1-5H,6H2
computed SMILES=O=C(C=1C=CC=CC1)CC(=O)C(F)(F)F
accession=JP006777
date=2016.01.19 (Created 2008.10.21, modified 2011.05.06)
author=TAJIMA S, GUNMA COLLEGE OF TECHNOLOGY
license=CC BY-NC-SA
exact mass=216.03981
ionization energy=70 eV
ion type=[M]+*
computed spectral entropy=2.6445908583335207
computed normalized entropy=0.7438345873865423
SPLASH=splash10-014i-9510000000-4c1c830b0eb184475d49
submitter=submitter = University of Tokyo Team (Faculty of Engineering, University of Tokyo)
MoNA Rating=3.75

>  <NUM PEAKS>  (3391) 
35

>  <MASS SPECTRAL PEAKS>  (3391) 
27 2.21
39 6.19
41 2.14
43 2.2
50 10.62
51 27.65
52 3.1
59 1.47
62 2.06
63 4.5
65 6.71
69 99.99
70 3.1
73.5 3.32
74 4.35
75 3.83
76 3.69
77 54.42
78 7.08
79 1.47
89 3.32
90 2.36
91 6.12
103 3.24
105 56.19
119 1.47
120 3.61
121 2.14
139 2.14
147 75.15
148 7.37
149 1.55
215 5.09
216 40.78
217 11.06

>  <PREDICTED SPECTRUM>  (3391) 
25 4
26 40
27 94
28 49
29 55
31 41
33 22
37 108
38 151
39 297
40 102
41 201
42 78
43 82
44 94
45 16
47 4
49 102
50 414
51 579
52 172
53 110
57 62
60 73
61 132
62 179
63 289
64 122
65 223
66 39
67 10
68 6
69 999
70 88
71 11
73 50
74 214
75 220
76 241
77 889
78 351
79 143
83 20
86 65
88 21
89 222
90 129
91 350
92 132
93 33
96 2
97 188
99 50
101 144
102 171
103 243
104 211
105 996
106 289
117 72
118 78
119 203
120 73
127 26
128 12
132 51
139 133
147 933
148 307
149 179
173 77
187 35
198 76
201 14
215 170
216 687
217 232
218 68

$$$$

     RDKit          2D

 10 10  0  0  0  0  0  0  0  0999 V2000
    6.1262    0.5406    0.0000 C   0  0  0  0  0  0  0  0  0  0  0  0
    6.1262   -0.9594    0.0000 C   0  0  0  0  0  0  0  0  0  0  0  0
    4.8262    1.2906    0.0000 C   0  0  0  0  0  0  0  0  0  0  0  0
    4.8262   -1.7094    0.0000 C   0  0  0  0  0  0  0  0  0  0  0  0
    3.5262    0.5406    0.0000 C   0  0  0  0  0  0  0  0  0  0  0  0
   -0.3708   -1.7100    0.0000 C   0  0  0  0  0  0  0  0  0  0  0  0
    0.9281   -0.9598    0.0000 C   0  0  0  0  0  0  0  0  0  0  0  0
    3.5262   -0.9594    0.0000 C   0  0  0  0  0  0  0  0  0  0  0  0
   -1.6700   -0.9602    0.0000 Br  0  0  0  0  0  0  0  0  0  0  0  0
    2.2272   -1.7096    0.0000 O   0  0  0  0  0  0  0  0  0  0  0  0
  2  1  2  0
  3  1  1  0
  4  2  1  0
  5  3  2  0
  7  6  1  0
  8  4  2  0
  8  5  1  0
  9  6  1  0
 10  7  1  0
 10  8  1  0
M  END
>  <NAME>  (3392) 
2-BROMOETHOXYBENZENE

>  <SYNONYMS>  (3392) 
2-BROMOETHYL PHENYL ETHER

>  <SPECTRUM TYPE>  (3392) 
MS1

>  <INSTRUMENT TYPE>  (3392) 
EI-B

>  <INSTRUMENT>  (3392) 
HITACHI RMU-7M

>  <ION MODE>  (3392) 
P

>  <INCHIKEY>  (3392) 
JJFOBACUIRKUPN-UHFFFAOYSA-N

>  <FORMULA>  (3392) 
C8H9BrO

>  <EXACT MASS>  (3392) 
199.983677008

>  <MW>  (3392) 
200

>  <ID>  (3392) 
JP006776

>  <CONTRIBUTOR>  (3392) 
University of Tokyo Team, {Faculty of Engineering, University of Tokyo

>  <COMMENT>  (3392) 
SMILES=BrCCOc(c1)cccc1
InChI=InChI=1S/C8H9BrO/c9-6-7-10-8-4-2-1-3-5-8/h1-5H,6-7H2
computed SMILES=BrCCOC=1C=CC=CC1
accession=JP006776
date=2016.01.19 (Created 2008.10.21, modified 2011.05.06)
author=TAJIMA S, GUNMA COLLEGE OF TECHNOLOGY
license=CC BY-NC-SA
exact mass=199.98368
ionization energy=70 eV
ion type=[M]+*
computed spectral entropy=2.7686987255720785
computed normalized entropy=0.7667575925437196
SPLASH=splash10-0pbc-9530000000-6670532235c7de355434
submitter=submitter = University of Tokyo Team (Faculty of Engineering, University of Tokyo)
MoNA Rating=3.75

>  <NUM PEAKS>  (3392) 
37

>  <MASS SPECTRAL PEAKS>  (3392) 
26 2.01
27 37.39
28 1.23
37 1.06
38 4.52
39 26.79
40 3.4
43 1.23
50 4.52
51 13.17
55 2.73
62 1.79
63 6.81
64 3.91
65 32.81
66 14.73
74 1.12
77 31.53
78 2.51
79 6.14
91 3.46
93 8.98
94 99.99
95 6.86
107 95.54
108 2.79
109 84.26
110 1.79
120 3.46
121 12.44
122 1
138 1.62
141 2.68
200 60.77
201 5.75
202 59.15
203 5.58

>  <PREDICTED SPECTRUM>  (3392) 
14 32
15 36
25 9
26 105
27 245
28 85
29 89
33 12
36 27
37 92
38 215
39 466
40 186
41 133
42 235
49 43
50 211
51 397
52 220
53 221
54 116
55 45
61 44
62 139
63 287
64 195
65 430
66 259
67 124
74 106
76 75
77 516
78 159
79 360
80 156
81 131
82 6
93 268
94 554
95 243
107 999
108 273
109 465
110 116
121 175
200 416
201 124
202 465
203 148

$$$$

     RDKit          2D

 13 14  0  0  0  0  0  0  0  0999 V2000
    6.1271    0.5392    0.0000 C   0  0  0  0  0  0  0  0  0  0  0  0
   -1.6700    0.5404    0.0000 C   0  0  0  0  0  0  0  0  0  0  0  0
    4.8271    1.2892    0.0000 C   0  0  0  0  0  0  0  0  0  0  0  0
    6.1271   -0.9608    0.0000 C   0  0  0  0  0  0  0  0  0  0  0  0
   -1.6695   -0.9604    0.0000 C   0  0  0  0  0  0  0  0  0  0  0  0
   -0.3710    1.2904    0.0000 C   0  0  0  0  0  0  0  0  0  0  0  0
    3.5271    0.5392    0.0000 C   0  0  0  0  0  0  0  0  0  0  0  0
    4.8271   -1.7108    0.0000 C   0  0  0  0  0  0  0  0  0  0  0  0
   -0.3700   -1.7112    0.0000 C   0  0  0  0  0  0  0  0  0  0  0  0
    0.9286    0.5396    0.0000 C   0  0  0  0  0  0  0  0  0  0  0  0
    3.5271   -0.9608    0.0000 C   0  0  0  0  0  0  0  0  0  0  0  0
    0.9290   -0.9612    0.0000 C   0  0  0  0  0  0  0  0  0  0  0  0
    2.2282   -1.7110    0.0000 S   0  0  0  0  0  0  0  0  0  0  0  0
  3  1  2  0
  4  1  1  0
  5  2  2  0
  6  2  1  0
  7  3  1  0
  8  4  2  0
  9  5  1  0
 10  6  2  0
 11  7  2  0
 11  8  1  0
 12  9  2  0
 12 10  1  0
 13 11  1  0
 13 12  1  0
M  END
>  <NAME>  (3393) 
DIPHENYLTHIOETHER

>  <SYNONYMS>  (3393) 
DIPHENYLSULFIDE

>  <SPECTRUM TYPE>  (3393) 
MS1

>  <INSTRUMENT TYPE>  (3393) 
EI-B

>  <INSTRUMENT>  (3393) 
HITACHI RMU-7M

>  <ION MODE>  (3393) 
P

>  <INCHIKEY>  (3393) 
LTYMSROWYAPPGB-UHFFFAOYSA-N

>  <FORMULA>  (3393) 
C12H10S

>  <EXACT MASS>  (3393) 
186.05032132

>  <MW>  (3393) 
186

>  <ID>  (3393) 
JP006775

>  <CONTRIBUTOR>  (3393) 
University of Tokyo Team, {Faculty of Engineering, University of Tokyo

>  <COMMENT>  (3393) 
SMILES=c(c2)ccc(c2)Sc(c1)cccc1
InChI=InChI=1S/C12H10S/c1-3-7-11(8-4-1)13-12-9-5-2-6-10-12/h1-10H
computed SMILES=S(C=1C=CC=CC1)C=2C=CC=CC2
accession=JP006775
date=2016.01.19 (Created 2008.10.21, modified 2011.05.06)
author=TAJIMA S, GUNMA COLLEGE OF TECHNOLOGY
license=CC BY-NC-SA
exact mass=186.05032
ionization energy=70 eV
ion type=[M]+*
computed spectral entropy=2.445614671328791
computed normalized entropy=0.7121793197524332
SPLASH=splash10-000i-2900000000-e376ed0b074558832b61
submitter=submitter = University of Tokyo Team (Faculty of Engineering, University of Tokyo)
MoNA Rating=3.75

>  <NUM PEAKS>  (3393) 
31

>  <MASS SPECTRAL PEAKS>  (3393) 
27 1.37
39 5.82
45 1.96
50 3.99
51 16.99
63 1.96
65 7.19
66 1.7
69 4.51
74 1.37
77 10.78
79 1.44
92 5.29
93 1.96
102 1.31
108 1.63
109 4.25
110 1.31
115 2.35
139 1.63
141 2.09
152 5.88
153 3.33
154 2.29
171 3.92
183 1.83
184 21.7
185 54.64
186 99.99
187 16.21
188 5.16

>  <PREDICTED SPECTRUM>  (3393) 
25 13
26 77
27 143
28 14
32 0
33 4
37 75
38 182
39 546
40 100
41 91
45 329
47 95
49 67
50 385
51 846
52 224
53 114
57 97
58 34
61 71
62 162
63 260
64 112
65 550
66 234
67 48
68 1
69 386
70 36
71 12
74 208
75 173
76 201
77 999
78 435
79 220
80 57
81 191
82 150
83 96
84 99
87 121
89 109
90 62
91 36
93 124
94 75
95 63
97 69
102 119
104 25
106 58
107 33
108 358
109 735
110 541
111 170
112 4
119 1
121 184
126 42
141 210
142 23
151 95
152 234
153 297
154 147
155 10
157 26
158 13
159 4
160 36
165 92
169 36
170 65
171 169
181 43
182 80
183 335
184 429
185 771
186 864
187 568
188 347
189 99

$$$$

     RDKit          2D

 12 11  0  0  0  0  0  0  0  0999 V2000
   -7.1447    6.3750    0.0000 C   0  0  0  0  0  0  0  0  0  0  0  0
    1.9486    7.1250    0.0000 C   0  0  0  0  0  0  0  0  0  0  0  0
   -8.4437    7.1250    0.0000 C   0  0  0  0  0  0  0  0  0  0  0  0
    3.2476    6.3750    0.0000 C   0  0  0  0  0  0  0  0  0  0  0  0
   -5.8457    7.1250    0.0000 C   0  0  0  0  0  0  0  0  0  0  0  0
    0.6495    6.3750    0.0000 C   0  0  0  0  0  0  0  0  0  0  0  0
   -3.2476    7.1250    0.0000 C   0  0  0  0  0  0  0  0  0  0  0  0
   -1.9486    6.3750    0.0000 C   0  0  0  0  0  0  0  0  0  0  0  0
   -9.7428    7.8750    0.0000 N   0  0  0  0  0  0  0  0  0  0  0  0
    4.5466    5.6250    0.0000 N   0  0  0  0  0  0  0  0  0  0  0  0
   -4.5466    6.3750    0.0000 O   0  0  0  0  0  0  0  0  0  0  0  0
   -0.6495    7.1250    0.0000 O   0  0  0  0  0  0  0  0  0  0  0  0
  3  1  1  0
  4  2  1  0
  5  1  1  0
  6  2  1  0
  8  7  1  0
  9  3  3  0
 10  4  3  0
 11  5  1  0
 11  7  1  0
 12  6  1  0
 12  8  1  0
M  END
>  <NAME>  (3394) 
ETHYLENE GLYCOL BIS(PROPIONITRILE) ETHER

>  <SYNONYMS>  (3394) 


>  <SPECTRUM TYPE>  (3394) 
MS1

>  <INSTRUMENT TYPE>  (3394) 
EI-B

>  <INSTRUMENT>  (3394) 
HITACHI RMU-6M

>  <ION MODE>  (3394) 
P

>  <INCHIKEY>  (3394) 
VTHRQKSLPFJQHN-UHFFFAOYSA-N

>  <FORMULA>  (3394) 
C8H12N2O2

>  <EXACT MASS>  (3394) 
168.089877624

>  <MW>  (3394) 
168

>  <ID>  (3394) 
JP006773

>  <CONTRIBUTOR>  (3394) 
University of Tokyo Team, {Faculty of Engineering, University of Tokyo

>  <COMMENT>  (3394) 
SMILES=N#CCCOCCOCCC#N
InChI=InChI=1S/C8H12N2O2/c9-3-1-5-11-7-8-12-6-2-4-10/h1-2,5-8H2
computed SMILES=N#CCCOCCOCCC#N
accession=JP006773
date=2016.01.19 (Created 2008.10.21, modified 2011.05.06)
author=YAMAMOTO M, DEP. CHEMISTRY, FAC. SCIENCE, NARA WOMEN'S UNIV.
license=CC BY-NC-SA
exact mass=168.08988
ionization energy=70 eV
ion type=[M]+*
computed spectral entropy=2.6612870263259514
computed normalized entropy=0.7426462848477412
SPLASH=splash10-0ue9-9000000000-8e7dde93da89b12df68d
submitter=submitter = University of Tokyo Team (Faculty of Engineering, University of Tokyo)
MoNA Rating=3.75

>  <NUM PEAKS>  (3394) 
36

>  <MASS SPECTRAL PEAKS>  (3394) 
26 3.4
27 11.9
28 11.22
29 7.14
31 18.03
32 2.38
39 1.02
40 2.38
41 4.08
42 2.04
43 5.78
44 3.4
45 22.79
46 1.02
51 1.36
52 2.38
53 1.36
54 99.99
55 10.2
56 1.7
57 2.38
58 1.02
66 1.02
68 2.72
70 1.7
71 1.02
72 2.04
84 42.52
85 7.14
97 10.54
98 14.29
99 3.74
128 2.04
138 2.04
141 6.8
142 1.02

>  <PREDICTED SPECTRUM>  (3394) 
14 67
15 33
19 18
25 55
26 266
27 350
28 359
29 283
30 131
31 169
33 21
37 116
38 309
39 359
40 486
41 750
42 828
43 420
44 313
45 528
46 143
49 7
50 123
51 321
52 471
53 383
54 999
55 519
56 491
57 633
58 470
59 166
60 6
62 9
64 80
68 331
69 216
70 447
71 511
72 290
73 50
80 10
81 104
82 372
83 260
84 391
85 448
86 351
87 7
96 18
98 272
100 310
101 252
111 44
113 29
114 434
115 268
128 437
141 5
168 196
169 21

$$$$

     RDKit          2D

 12 11  0  0  0  0  0  0  0  0999 V2000
    3.8971    6.0000    0.0000 C   0  0  0  0  0  0  0  0  0  0  0  0
  -10.3923    6.7500    0.0000 C   0  0  0  0  0  0  0  0  0  0  0  0
    2.5981    6.7500    0.0000 C   0  0  0  0  0  0  0  0  0  0  0  0
   -9.0933    6.0000    0.0000 C   0  0  0  0  0  0  0  0  0  0  0  0
    1.2990    6.0000    0.0000 C   0  0  0  0  0  0  0  0  0  0  0  0
   -7.7942    6.7500    0.0000 C   0  0  0  0  0  0  0  0  0  0  0  0
    0.0000    6.7500    0.0000 C   0  0  0  0  0  0  0  0  0  0  0  0
   -6.4952    6.0000    0.0000 C   0  0  0  0  0  0  0  0  0  0  0  0
   -2.5981    6.7500    0.0000 C   0  0  0  0  0  0  0  0  0  0  0  0
   -3.8971    6.0000    0.0000 C   0  0  0  0  0  0  0  0  0  0  0  0
   -1.2990    6.0000    0.0000 O   0  0  0  0  0  0  0  0  0  0  0  0
   -5.1962    6.7500    0.0000 O   0  0  0  0  0  0  0  0  0  0  0  0
  3  1  1  0
  4  2  1  0
  5  3  1  0
  6  4  1  0
  7  5  1  0
  8  6  1  0
 10  9  1  0
 11  7  1  0
 11  9  1  0
 12  8  1  0
 12 10  1  0
M  END
>  <NAME>  (3395) 
ETHYLENE GLYCOL DIBUTYL ETHER

>  <SYNONYMS>  (3395) 


>  <SPECTRUM TYPE>  (3395) 
MS1

>  <INSTRUMENT TYPE>  (3395) 
EI-B

>  <INSTRUMENT>  (3395) 
HITACHI RMU-6M

>  <ION MODE>  (3395) 
P

>  <INCHIKEY>  (3395) 
GDXHBFHOEYVPED-UHFFFAOYSA-N

>  <FORMULA>  (3395) 
C10H22O2

>  <EXACT MASS>  (3395) 
174.161979944

>  <MW>  (3395) 
174

>  <ID>  (3395) 
JP006772

>  <CONTRIBUTOR>  (3395) 
University of Tokyo Team, {Faculty of Engineering, University of Tokyo

>  <COMMENT>  (3395) 
SMILES=CCCCOCCOCCCC
InChI=InChI=1S/C10H22O2/c1-3-5-7-11-9-10-12-8-6-4-2/h3-10H2,1-2H3
computed SMILES=O(CCOCCCC)CCCC
accession=JP006772
date=2016.01.19 (Created 2008.10.21, modified 2011.05.06)
author=YAMAMOTO M, DEP. CHEMISTRY, FAC. SCIENCE, NARA WOMEN'S UNIV.
license=CC BY-NC-SA
exact mass=174.16198
ionization energy=70 eV
ion type=[M]+*
computed spectral entropy=2.5794303351887713
computed normalized entropy=0.7583888983026945
SPLASH=splash10-0a4i-9000000000-6d0be1c838fcf5466079
submitter=submitter = University of Tokyo Team (Faculty of Engineering, University of Tokyo)
MoNA Rating=3.75

>  <NUM PEAKS>  (3395) 
30

>  <MASS SPECTRAL PEAKS>  (3395) 
27 6.75
28 4.79
29 23.83
30 1.2
31 2.39
39 3.37
41 23.61
42 1.96
43 3.92
44 3.37
45 14.04
55 7.4
56 23.79
57 99.99
58 4.24
59 3.59
63 1.2
71 3.7
72 4.79
73 10.66
74 6.09
75 5.88
87 9.68
100 1.41
101 1.52
102 8.81
103 1.96
119 1.74
131 1.74
174 1.41

>  <PREDICTED SPECTRUM>  (3395) 
15 29
19 28
25 2
26 72
27 229
28 146
29 397
30 87
31 172
32 9
33 8
38 1
39 188
40 49
41 540
42 136
43 218
44 179
45 473
46 142
47 126
50 8
51 25
52 4
53 91
54 67
55 200
56 522
57 999
58 247
59 174
60 91
61 71
62 54
63 70
71 132
72 121
73 199
74 133
75 241
76 29
81 14
82 42
83 71
85 267
87 142
88 85
89 186
90 20
99 39
100 223
101 257
102 142
103 51
117 4
118 57
119 21
131 10
174 61
175 18

$$$$

     RDKit          2D

  8  7  0  0  0  0  0  0  0  0999 V2000
    3.8236    3.0736    0.0000 C   0  0  0  0  0  0  0  0  0  0  0  0
    2.3236    0.4755    0.0000 C   0  0  0  0  0  0  0  0  0  0  0  0
    4.3726    1.0245    0.0000 C   0  0  0  0  0  0  0  0  0  0  0  0
   -0.8236    2.5245    0.0000 C   0  0  0  0  0  0  0  0  0  0  0  0
    0.4755    1.7745    0.0000 C   0  0  0  0  0  0  0  0  0  0  0  0
    3.0736    1.7745    0.0000 C   0  0  0  0  0  0  0  0  0  0  0  0
   -2.1226    1.7745    0.0000 O   0  0  0  0  0  0  0  0  0  0  0  0
    1.7745    2.5245    0.0000 O   0  0  0  0  0  0  0  0  0  0  0  0
  5  4  1  0
  6  1  1  0
  6  2  1  0
  6  3  1  0
  7  4  1  0
  8  5  1  0
  8  6  1  0
M  END
>  <NAME>  (3396) 
ETHYLENE GLYCOL MONO-TERT-BUTYL ETHER

>  <SYNONYMS>  (3396) 


>  <SPECTRUM TYPE>  (3396) 
MS1

>  <INSTRUMENT TYPE>  (3396) 
EI-B

>  <INSTRUMENT>  (3396) 
HITACHI RMU-6M

>  <ION MODE>  (3396) 
P

>  <INCHIKEY>  (3396) 
BDLXTDLGTWNUFM-UHFFFAOYSA-N

>  <FORMULA>  (3396) 
C6H14O2

>  <EXACT MASS>  (3396) 
118.099379688

>  <MW>  (3396) 
118

>  <ID>  (3396) 
JP006771

>  <CONTRIBUTOR>  (3396) 
University of Tokyo Team, {Faculty of Engineering, University of Tokyo

>  <COMMENT>  (3396) 
SMILES=OCCOC(C)(C)C
InChI=InChI=1S/C6H14O2/c1-6(2,3)8-5-4-7/h7H,4-5H2,1-3H3
computed SMILES=OCCOC(C)(C)C
accession=JP006771
date=2016.01.19 (Created 2008.10.21, modified 2011.05.06)
author=YAMAMOTO M, DEP. CHEMISTRY, FAC. SCIENCE, NARA WOMEN'S UNIV.
license=CC BY-NC-SA
exact mass=118.09938
ionization energy=70 eV
ion type=[M]+*
computed spectral entropy=2.2753520847453683
computed normalized entropy=0.7473592759745891
SPLASH=splash10-0a4i-9000000000-a35968ddb62603447a67
submitter=submitter = University of Tokyo Team (Faculty of Engineering, University of Tokyo)
MoNA Rating=3.75

>  <NUM PEAKS>  (3396) 
21

>  <MASS SPECTRAL PEAKS>  (3396) 
15 3.36
27 7.18
28 2.32
29 17.61
31 8.81
39 6.14
40 1.39
41 29.43
42 3.13
43 6.26
45 16.11
55 2.67
56 11.83
57 99.99
58 4.4
59 67.55
60 2.32
87 5.79
88 1.39
103 26.07
104 1.85

>  <PREDICTED SPECTRUM>  (3396) 
14 17
15 68
19 29
26 53
27 176
28 65
29 237
30 13
31 257
33 19
37 20
38 55
39 278
40 87
41 562
42 164
43 356
44 149
45 640
46 42
47 89
49 3
50 1
53 64
55 101
56 347
57 999
58 90
59 585
60 62
61 97
62 23
63 47
73 198
74 95
75 191
76 1
89 10
103 375
104 116

$$$$

     RDKit          2D

  8  7  0  0  0  0  0  0  0  0999 V2000
    2.2733    2.8125    0.0000 C   0  0  0  0  0  0  0  0  0  0  0  0
    0.9743    5.0625    0.0000 C   0  0  0  0  0  0  0  0  0  0  0  0
   -4.2219    3.5625    0.0000 C   0  0  0  0  0  0  0  0  0  0  0  0
   -2.9228    2.8125    0.0000 C   0  0  0  0  0  0  0  0  0  0  0  0
   -0.3248    2.8125    0.0000 C   0  0  0  0  0  0  0  0  0  0  0  0
    0.9743    3.5625    0.0000 C   0  0  0  0  0  0  0  0  0  0  0  0
   -5.5209    2.8125    0.0000 O   0  0  0  0  0  0  0  0  0  0  0  0
   -1.6238    3.5625    0.0000 O   0  0  0  0  0  0  0  0  0  0  0  0
  4  3  1  0
  6  1  1  0
  6  2  1  0
  6  5  1  0
  7  3  1  0
  8  4  1  0
  8  5  1  0
M  END
>  <NAME>  (3397) 
ETHYLENE GLYCOL MONO-ISOBUTYL ETHER

>  <SYNONYMS>  (3397) 


>  <SPECTRUM TYPE>  (3397) 
MS1

>  <INSTRUMENT TYPE>  (3397) 
EI-B

>  <INSTRUMENT>  (3397) 
HITACHI RMU-6M

>  <ION MODE>  (3397) 
P

>  <INCHIKEY>  (3397) 
HHAPGMVKBLELOE-UHFFFAOYSA-N

>  <FORMULA>  (3397) 
C6H14O2

>  <EXACT MASS>  (3397) 
118.099379688

>  <MW>  (3397) 
118

>  <ID>  (3397) 
JP006770

>  <CONTRIBUTOR>  (3397) 
University of Tokyo Team, {Faculty of Engineering, University of Tokyo

>  <COMMENT>  (3397) 
SMILES=OCCOCC(C)C
InChI=InChI=1S/C6H14O2/c1-6(2)5-8-4-3-7/h6-7H,3-5H2,1-2H3
computed SMILES=OCCOCC(C)C
accession=JP006770
date=2016.01.19 (Created 2008.10.21, modified 2011.05.06)
author=YAMAMOTO M, DEP. CHEMISTRY, FAC. SCIENCE, NARA WOMEN'S UNIV.
license=CC BY-NC-SA
exact mass=118.09938
ionization energy=70 eV
ion type=[M]+*
computed spectral entropy=2.375496465415328
computed normalized entropy=0.720756688511478
SPLASH=splash10-0a6s-9000000000-b8a40d2a475e3a987c2a
submitter=submitter = University of Tokyo Team (Faculty of Engineering, University of Tokyo)
MoNA Rating=3.75

>  <NUM PEAKS>  (3397) 
27

>  <MASS SPECTRAL PEAKS>  (3397) 
15 2.82
27 11.86
28 2.82
29 23.73
31 8.66
39 7.91
40 1.32
41 31.83
42 3.01
43 5.65
44 2.64
45 73.63
46 2.26
55 4.33
56 9.79
57 99.99
58 3.95
62 1.13
63 1.32
71 4.52
72 1.88
73 2.64
75 22.98
76 1.12
87 10.92
100 1.32
118 0.38

>  <PREDICTED SPECTRUM>  (3397) 
14 24
15 71
16 13
17 11
18 34
19 73
26 84
27 331
28 196
29 405
30 46
31 344
32 46
33 41
37 7
38 34
39 325
40 77
41 708
42 260
43 621
44 277
45 920
46 186
47 84
53 63
54 15
55 258
56 491
57 999
58 244
59 278
60 80
61 187
62 64
63 49
71 65
72 60
73 63
74 168
75 296
76 35
87 238
88 29
89 99
103 29
118 82

$$$$

     RDKit          2D

 14 13  0  0  0  0  0  0  0  0999 V2000
    3.8971    6.0000    0.0000 C   0  0  0  0  0  0  0  0  0  0  0  0
  -10.3923    6.7500    0.0000 C   0  0  0  0  0  0  0  0  0  0  0  0
    2.5981    6.7500    0.0000 C   0  0  0  0  0  0  0  0  0  0  0  0
   -9.0933    6.0000    0.0000 C   0  0  0  0  0  0  0  0  0  0  0  0
    1.2990    6.0000    0.0000 C   0  0  0  0  0  0  0  0  0  0  0  0
   -7.7942    6.7500    0.0000 C   0  0  0  0  0  0  0  0  0  0  0  0
   -2.5981    6.7500    0.0000 C   0  0  0  0  0  0  0  0  0  0  0  0
   -3.8971    6.0000    0.0000 C   0  0  0  0  0  0  0  0  0  0  0  0
    0.0000    6.7500    0.0000 C   0  0  0  0  0  0  0  0  0  0  0  0
   -6.4952    6.0000    0.0000 C   0  0  0  0  0  0  0  0  0  0  0  0
    0.0000    8.2500    0.0000 O   0  0  0  0  0  0  0  0  0  0  0  0
   -6.4952    4.5000    0.0000 O   0  0  0  0  0  0  0  0  0  0  0  0
   -1.2990    6.0000    0.0000 O   0  0  0  0  0  0  0  0  0  0  0  0
   -5.1962    6.7500    0.0000 O   0  0  0  0  0  0  0  0  0  0  0  0
  3  1  1  0
  4  2  1  0
  5  3  1  0
  6  4  1  0
  8  7  1  0
  9  5  1  0
 10  6  1  0
 11  9  2  0
 12 10  2  0
 13  7  1  0
 13  9  1  0
 14  8  1  0
 14 10  1  0
M  END
>  <NAME>  (3398) 
ETHYLENE GLYCOL DIBUTYRATE

>  <SYNONYMS>  (3398) 


>  <SPECTRUM TYPE>  (3398) 
MS1

>  <INSTRUMENT TYPE>  (3398) 
EI-B

>  <INSTRUMENT>  (3398) 
HITACHI RMU-6M

>  <ION MODE>  (3398) 
P

>  <INCHIKEY>  (3398) 
SFTRWCBAYKQWCS-UHFFFAOYSA-N

>  <FORMULA>  (3398) 
C10H18O4

>  <EXACT MASS>  (3398) 
202.120509056

>  <MW>  (3398) 
202

>  <ID>  (3398) 
JP006769

>  <CONTRIBUTOR>  (3398) 
University of Tokyo Team, {Faculty of Engineering, University of Tokyo

>  <COMMENT>  (3398) 
SMILES=CCCC(=O)OCCOC(=O)CCC
InChI=InChI=1S/C10H18O4/c1-3-5-9(11)13-7-8-14-10(12)6-4-2/h3-8H2,1-2H3
computed SMILES=O=C(OCCOC(=O)CCC)CCC
accession=JP006769
date=2016.01.19 (Created 2008.10.21, modified 2011.05.06)
author=YAMAMOTO M, DEP. CHEMISTRY, FAC. SCIENCE, NARA WOMEN'S UNIV.
license=CC BY-NC-SA
exact mass=202.12051
ionization energy=70 eV
ion type=[M]+*
computed spectral entropy=2.0213959065397877
computed normalized entropy=0.6279819466544831
SPLASH=splash10-00dl-9100000000-ef89f5a16a2feb5a894a
submitter=submitter = University of Tokyo Team (Faculty of Engineering, University of Tokyo)
MoNA Rating=3.75

>  <NUM PEAKS>  (3398) 
25

>  <MASS SPECTRAL PEAKS>  (3398) 
15 1.31
27 9.36
28 2.21
29 1.61
39 3.32
41 10.06
42 3.82
43 48.29
44 1.61
45 1.21
55 1.91
70 2.72
71 99.99
72 5.63
86 5.43
87 1.21
89 1.01
99 1.01
101 1.41
103 1.11
114 4.43
115 12.17
142 1.81
144 1.81
159 1.61

>  <PREDICTED SPECTRUM>  (3398) 
26 74
27 248
28 119
29 156
30 71
31 38
38 2
39 210
40 87
41 410
42 280
43 799
44 184
45 110
55 216
56 8
57 21
58 31
59 31
60 13
61 15
63 8
68 36
69 126
70 147
71 999
72 273
73 66
74 73
82 33
84 17
85 16
86 40
87 144
88 138
89 141
96 10
99 51
100 51
101 220
102 26
103 19
113 37
114 229
115 761
116 173
117 43
131 102
132 13
133 51
143 66
158 29
159 42
202 8

$$$$

     RDKit          2D

  7  6  0  0  0  0  0  0  0  0999 V2000
    1.2990    2.2500    0.0000 C   0  0  0  0  0  0  0  0  0  0  0  0
   -3.8971    2.2500    0.0000 C   0  0  0  0  0  0  0  0  0  0  0  0
    0.0000    3.0000    0.0000 C   0  0  0  0  0  0  0  0  0  0  0  0
   -2.5981    3.0000    0.0000 C   0  0  0  0  0  0  0  0  0  0  0  0
   -1.2990    0.7500    0.0000 C   0  0  0  0  0  0  0  0  0  0  0  0
   -1.2990    2.2500    0.0000 C   0  0  0  0  0  0  0  0  0  0  0  0
   -0.0000    0.0000    0.0000 O   0  0  0  0  0  0  0  0  0  0  0  0
  3  1  1  0
  4  2  1  0
  6  3  1  0
  6  4  1  0
  6  5  1  0
  7  5  2  0
M  END
>  <NAME>  (3399) 
2-ETHYLBUTYRALDEHYDE

>  <SYNONYMS>  (3399) 
2-ETHYLBUTANAL

>  <SPECTRUM TYPE>  (3399) 
MS1

>  <INSTRUMENT TYPE>  (3399) 
EI-B

>  <INSTRUMENT>  (3399) 
HITACHI RMU-6M

>  <ION MODE>  (3399) 
P

>  <INCHIKEY>  (3399) 
UNNGUFMVYQJGTD-UHFFFAOYSA-N

>  <FORMULA>  (3399) 
C6H12O

>  <EXACT MASS>  (3399) 
100.088815004

>  <MW>  (3399) 
100

>  <ID>  (3399) 
JP006768

>  <CONTRIBUTOR>  (3399) 
University of Tokyo Team, {Faculty of Engineering, University of Tokyo

>  <COMMENT>  (3399) 
SMILES=CCC(CC)C=O
InChI=InChI=1S/C6H12O/c1-3-6(4-2)5-7/h5-6H,3-4H2,1-2H3
computed SMILES=O=CC(CC)CC
accession=JP006768
date=2016.01.19 (Created 2008.10.21, modified 2011.05.06)
author=YAMAMOTO M, DEP. CHEMISTRY, FAC. SCIENCE, NARA WOMEN'S UNIV.
license=CC BY-NC-SA
exact mass=100.08882
ionization energy=70 eV
ion type=[M]+*
computed spectral entropy=2.3815111443192865
computed normalized entropy=0.7309516819183901
SPLASH=splash10-0006-9000000000-ce9ff4aa35d72211f5d8
submitter=submitter = University of Tokyo Team (Faculty of Engineering, University of Tokyo)
MoNA Rating=3.75

>  <NUM PEAKS>  (3399) 
26

>  <MASS SPECTRAL PEAKS>  (3399) 
15 1.45
26 1.99
27 20.25
28 2.17
29 21.7
31 1.27
38 1.27
39 12.66
40 1.45
41 23.69
42 4.16
43 99.99
44 3.25
51 1.08
53 2.17
54 1.27
55 9.76
56 2.17
57 10.85
58 2.89
70 1.08
71 22.06
72 30.2
73 1.27
82 5.06
100 3.98

>  <PREDICTED SPECTRUM>  (3399) 
14 43
15 218
16 6
17 14
18 54
19 3
25 41
26 205
27 571
28 296
29 807
30 57
31 302
32 57
33 17
37 88
38 157
39 603
40 237
41 999
42 340
43 708
44 239
45 107
50 151
51 168
52 174
53 445
54 323
55 648
56 399
57 749
58 95
59 212
67 27
69 155
70 303
71 803
72 214
73 75
81 29
82 85
85 89

$$$$

     RDKit          2D

  6  5  0  0  0  0  0  0  0  0999 V2000
   -4.5466    3.3750    0.0000 C   0  0  0  0  0  0  0  0  0  0  0  0
   -3.2476    2.6250    0.0000 C   0  0  0  0  0  0  0  0  0  0  0  0
    0.6495    3.3750    0.0000 C   0  0  0  0  0  0  0  0  0  0  0  0
   -0.6495    2.6250    0.0000 C   0  0  0  0  0  0  0  0  0  0  0  0
    1.9486    2.6250    0.0000 O   0  0  0  0  0  0  0  0  0  0  0  0
   -1.9486    3.3750    0.0000 O   0  0  0  0  0  0  0  0  0  0  0  0
  2  1  1  0
  4  3  1  0
  5  3  1  0
  6  2  1  0
  6  4  1  0
M  END
>  <NAME>  (3400) 
2-ETHOXYETHANOL

>  <SYNONYMS>  (3400) 
ETHYL CELLOSOLVE

>  <SPECTRUM TYPE>  (3400) 
MS1

>  <INSTRUMENT TYPE>  (3400) 
EI-B

>  <INSTRUMENT>  (3400) 
HITACHI RMU-6M

>  <ION MODE>  (3400) 
P

>  <INCHIKEY>  (3400) 
ZNQVEEAIQZEUHB-UHFFFAOYSA-N

>  <FORMULA>  (3400) 
C4H10O2

>  <EXACT MASS>  (3400) 
90.06807956

>  <MW>  (3400) 
90

>  <ID>  (3400) 
JP006767

>  <CONTRIBUTOR>  (3400) 
University of Tokyo Team, {Faculty of Engineering, University of Tokyo

>  <COMMENT>  (3400) 
SMILES=CCOCCO
InChI=InChI=1S/C4H10O2/c1-2-6-4-3-5/h5H,2-4H2,1H3
computed SMILES=OCCOCC
accession=JP006767
date=2016.01.19 (Created 2008.10.21, modified 2011.05.06)
author=YAMAMOTO M, DEP. CHEMISTRY, FAC. SCIENCE, NARA WOMEN'S UNIV.
license=CC BY-NC-SA
exact mass=90.06808
ionization energy=70 eV
ion type=[M]+*
computed spectral entropy=2.177650907624876
computed normalized entropy=0.6945160021542462
SPLASH=splash10-053r-9000000000-e5c5aa3dd9523944247f
submitter=submitter = University of Tokyo Team (Faculty of Engineering, University of Tokyo)
MoNA Rating=3.75

>  <NUM PEAKS>  (3400) 
23

>  <MASS SPECTRAL PEAKS>  (3400) 
14 1.11
15 6.41
26 2.51
27 16.99
28 4.74
29 31.75
30 1.39
31 99.99
32 2.51
33 1.39
41 3.9
42 1.67
43 13.37
44 3.34
45 28.41
46 1.11
59 65.46
60 2.51
61 2.23
72 20.61
73 1.11
75 1.11
90 0.84

>  <PREDICTED SPECTRUM>  (3400) 
14 54
15 129
16 39
17 34
18 50
19 114
25 18
26 127
27 377
28 318
29 539
30 14
31 832
32 91
33 110
35 21
38 0
40 92
41 146
42 225
43 432
44 507
45 999
46 397
47 325
48 40
53 45
54 9
57 48
59 977
60 240
61 266
62 54
63 111
72 242
73 141
75 143
90 115
91 4

$$$$

     RDKit          2D

  4  3  0  0  0  0  0  0  0  0999 V2000
   -1.2990    1.5000    0.0000 C   0  0  0  0  0  0  0  0  0  0  0  0
    0.0000    2.2500    0.0000 C   0  0  0  0  0  0  0  0  0  0  0  0
   -2.5981    2.2500    0.0000 O   0  0  0  0  0  0  0  0  0  0  0  0
    1.2990    1.5000    0.0000 O   0  0  0  0  0  0  0  0  0  0  0  0
  2  1  1  0
  3  1  1  0
  4  2  1  0
M  END
>  <NAME>  (3401) 
ETHYLENE GLYCOL

>  <SYNONYMS>  (3401) 


>  <SPECTRUM TYPE>  (3401) 
MS1

>  <INSTRUMENT TYPE>  (3401) 
EI-B

>  <INSTRUMENT>  (3401) 
HITACHI RMU-6M

>  <ION MODE>  (3401) 
P

>  <INCHIKEY>  (3401) 
LYCAIKOWRPUZTN-UHFFFAOYSA-N

>  <FORMULA>  (3401) 
C2H6O2

>  <EXACT MASS>  (3401) 
62.036779432

>  <MW>  (3401) 
62

>  <ID>  (3401) 
JP006766

>  <CONTRIBUTOR>  (3401) 
University of Tokyo Team, {Faculty of Engineering, University of Tokyo

>  <COMMENT>  (3401) 
SMILES=OCCO
InChI=InChI=1S/C2H6O2/c3-1-2-4/h3-4H,1-2H2
computed SMILES=OCCO
accession=JP006766
date=2016.01.19 (Created 2008.10.21, modified 2011.05.06)
license=CC BY-NC-SA
author=YAMAMOTO M, DEP. CHEMISTRY, FAC. SCIENCE, NARA WOMEN'S UNIV.
exact mass=62.03678
ionization energy=70 eV
ion type=[M]+*
computed spectral entropy=1.7965491822623096
computed normalized entropy=0.6479681489907392
SPLASH=splash10-001i-9000000000-eaa1e5b7b88211fa7edb
submitter=submitter = University of Tokyo Team (Faculty of Engineering, University of Tokyo)
MoNA Rating=3.75

>  <NUM PEAKS>  (3401) 
16

>  <MASS SPECTRAL PEAKS>  (3401) 
14 1.82
15 10.4
26 1.19
27 5.2
28 1.92
29 13.59
30 1.92
31 99.99
32 10.77
33 37.14
42 3.01
43 8.03
44 2.01
45 1.28
61 1.55
62 5.47

>  <PREDICTED SPECTRUM>  (3401) 
14 176
15 281
16 103
17 88
18 126
19 175
25 49
26 181
27 66
28 108
29 611
30 58
31 999
32 564
33 147
34 28
35 52
42 7
43 432
44 372
45 188
62 23
63 0

$$$$

     RDKit          2D

 10  9  0  0  0  0  0  0  0  0999 V2000
   -8.4437    5.6250    0.0000 C   0  0  0  0  0  0  0  0  0  0  0  0
   -7.1447    4.8750    0.0000 C   0  0  0  0  0  0  0  0  0  0  0  0
   -5.8457    5.6250    0.0000 C   0  0  0  0  0  0  0  0  0  0  0  0
   -4.5466    4.8750    0.0000 C   0  0  0  0  0  0  0  0  0  0  0  0
   -3.2476    5.6250    0.0000 C   0  0  0  0  0  0  0  0  0  0  0  0
    1.9486    5.6250    0.0000 C   0  0  0  0  0  0  0  0  0  0  0  0
   -1.9486    4.8750    0.0000 C   0  0  0  0  0  0  0  0  0  0  0  0
    0.6495    4.8750    0.0000 C   0  0  0  0  0  0  0  0  0  0  0  0
    3.2476    4.8750    0.0000 O   0  0  0  0  0  0  0  0  0  0  0  0
   -0.6495    5.6250    0.0000 O   0  0  0  0  0  0  0  0  0  0  0  0
  2  1  1  0
  3  2  1  0
  4  3  1  0
  5  4  1  0
  7  5  1  0
  8  6  1  0
  9  6  1  0
 10  7  1  0
 10  8  1  0
M  END
>  <NAME>  (3402) 
ETHYLENE GLYCOL MONO-HEXYL ETHER

>  <SYNONYMS>  (3402) 


>  <SPECTRUM TYPE>  (3402) 
MS1

>  <INSTRUMENT TYPE>  (3402) 
EI-B

>  <INSTRUMENT>  (3402) 
HITACHI RMU-6M

>  <ION MODE>  (3402) 
P

>  <INCHIKEY>  (3402) 
UPGSWASWQBLSKZ-UHFFFAOYSA-N

>  <FORMULA>  (3402) 
C8H18O2

>  <EXACT MASS>  (3402) 
146.130679816

>  <MW>  (3402) 
146

>  <ID>  (3402) 
JP006765

>  <CONTRIBUTOR>  (3402) 
University of Tokyo Team, {Faculty of Engineering, University of Tokyo

>  <COMMENT>  (3402) 
SMILES=CCCCCCOCCO
InChI=InChI=1S/C8H18O2/c1-2-3-4-5-7-10-8-6-9/h9H,2-8H2,1H3
computed SMILES=OCCOCCCCCC
accession=JP006765
date=2016.01.19 (Created 2008.10.21, modified 2011.05.06)
author=YAMAMOTO M, DEP. CHEMISTRY, FAC. SCIENCE, NARA WOMEN'S UNIV.
license=CC BY-NC-SA
exact mass=146.13068
ionization energy=70 eV
ion type=[M]+*
computed spectral entropy=2.6989411666603838
computed normalized entropy=0.809956639341586
SPLASH=splash10-0006-9000000000-b3adbfe8fe5689195e8e
submitter=submitter = University of Tokyo Team (Faculty of Engineering, University of Tokyo)
MoNA Rating=3.75

>  <NUM PEAKS>  (3402) 
28

>  <MASS SPECTRAL PEAKS>  (3402) 
15 2.11
27 14.5
28 4.83
29 13.38
31 7.81
39 6.69
40 1.49
41 26.02
42 7.81
43 99.99
44 3.72
45 42.75
46 1.24
53 1.49
55 14.62
56 17.84
57 15.12
63 19.58
69 4.58
75 9.42
83 17.6
84 13.75
85 59.11
86 4.21
99 1.98
101 1.24
115 7.93
146 0.5

>  <PREDICTED SPECTRUM>  (3402) 
14 13
15 7
19 54
25 0
26 65
27 321
28 155
29 400
30 101
31 366
32 35
33 0
37 3
38 28
39 351
40 153
41 749
42 467
43 999
44 467
45 979
46 221
47 207
53 112
54 163
55 651
56 740
57 802
58 217
59 159
60 20
61 224
63 75
66 45
67 126
68 237
69 517
70 305
71 524
72 196
73 143
74 142
75 393
76 116
81 35
82 182
83 277
84 389
85 544
86 143
87 96
89 15
99 102
100 109
101 288
102 88
103 8
112 118
113 142
115 198
116 78
117 27
128 22

$$$$

     RDKit          2D

  5  4  0  0  0  0  0  0  0  0999 V2000
   -0.0000   -0.0000    0.0000 C   0  0  0  0  0  0  0  0  0  0  0  0
   -2.5981    1.5000    0.0000 C   0  0  0  0  0  0  0  0  0  0  0  0
   -1.2990    3.7500    0.0000 C   0  0  0  0  0  0  0  0  0  0  0  0
    0.0000    1.5000    0.0000 C   0  0  0  0  0  0  0  0  0  0  0  0
   -1.2990    2.2500    0.0000 C   0  0  0  0  0  0  0  0  0  0  0  0
  4  1  2  0
  5  2  2  0
  5  3  1  0
  5  4  1  0
M  END
>  <NAME>  (3403) 
ISOPRENE

>  <SYNONYMS>  (3403) 


>  <SPECTRUM TYPE>  (3403) 
MS1

>  <INSTRUMENT TYPE>  (3403) 
EI-B

>  <INSTRUMENT>  (3403) 
HITACHI RMU-6M

>  <ION MODE>  (3403) 
P

>  <INCHIKEY>  (3403) 
RRHGJUQNOFWUDK-UHFFFAOYSA-N

>  <FORMULA>  (3403) 
C5H8

>  <EXACT MASS>  (3403) 
68.062600256

>  <MW>  (3403) 
68

>  <ID>  (3403) 
JP006764

>  <CONTRIBUTOR>  (3403) 
University of Tokyo Team, {Faculty of Engineering, University of Tokyo

>  <COMMENT>  (3403) 
SMILES=C=CC(C)=C
InChI=InChI=1S/C5H8/c1-4-5(2)3/h4H,1-2H2,3H3
computed SMILES=C=CC(=C)C
accession=JP006764
date=2016.01.19 (Created 2008.10.21, modified 2011.05.06)
author=YAMAMOTO M, DEP. CHEMISTRY, FAC. SCIENCE, NARA WOMEN'S UNIV.
license=CC BY-NC-SA
exact mass=68.0626
ionization energy=70 eV
ion type=[M]+*
computed spectral entropy=2.468225216529618
computed normalized entropy=0.7871885726946564
SPLASH=splash10-014i-9000000000-bd4ffd9bdcd939fd4ea8
submitter=submitter = University of Tokyo Team (Faculty of Engineering, University of Tokyo)
MoNA Rating=3.75

>  <NUM PEAKS>  (3403) 
23

>  <MASS SPECTRAL PEAKS>  (3403) 
15 1.96
26 4.68
27 31.71
28 3.65
29 2.81
39 56.97
40 35.45
41 35.17
42 19.46
49 2.06
50 9.07
51 12.07
52 5.89
53 76.8
54 3.46
61 2.25
62 3.46
63 4.3
65 9.17
66 7.48
67 99.99
68 80.54
69 4.12

>  <PREDICTED SPECTRUM>  (3403) 
14 36
15 52
25 64
26 268
27 680
28 328
29 290
36 107
37 258
38 374
39 999
40 583
41 778
42 283
43 113
49 177
50 439
51 561
52 406
53 971
54 331
55 11
56 103
61 130
62 247
63 315
64 171
65 435
66 195
67 673
68 772
69 104

$$$$

     RDKit          2D

  7  6  0  0  0  0  0  0  0  0999 V2000
    1.9486    3.3750    0.0000 C   0  0  0  0  0  0  0  0  0  0  0  0
    0.6495    4.1250    0.0000 C   0  0  0  0  0  0  0  0  0  0  0  0
   -4.5466    4.1250    0.0000 C   0  0  0  0  0  0  0  0  0  0  0  0
   -0.6495    3.3750    0.0000 C   0  0  0  0  0  0  0  0  0  0  0  0
   -3.2476    3.3750    0.0000 C   0  0  0  0  0  0  0  0  0  0  0  0
   -5.8457    3.3750    0.0000 O   0  0  0  0  0  0  0  0  0  0  0  0
   -1.9486    4.1250    0.0000 O   0  0  0  0  0  0  0  0  0  0  0  0
  2  1  2  0
  4  2  1  0
  5  3  1  0
  6  3  1  0
  7  4  1  0
  7  5  1  0
M  END
>  <NAME>  (3404) 
ETHYLENE GLYCOL MONO-ALLYL ETHER

>  <SYNONYMS>  (3404) 


>  <SPECTRUM TYPE>  (3404) 
MS1

>  <INSTRUMENT TYPE>  (3404) 
EI-B

>  <INSTRUMENT>  (3404) 
HITACHI RMU-6M

>  <ION MODE>  (3404) 
P

>  <INCHIKEY>  (3404) 
GCYHRYNSUGLLMA-UHFFFAOYSA-N

>  <FORMULA>  (3404) 
C5H10O2

>  <EXACT MASS>  (3404) 
102.06807956

>  <MW>  (3404) 
102

>  <ID>  (3404) 
JP006763

>  <CONTRIBUTOR>  (3404) 
University of Tokyo Team, {Faculty of Engineering, University of Tokyo

>  <COMMENT>  (3404) 
SMILES=C=CCOCCO
InChI=InChI=1S/C5H10O2/c1-2-4-7-5-3-6/h2,6H,1,3-5H2
computed SMILES=OCCOCC=C
accession=JP006763
date=2016.01.19 (Created 2008.10.21, modified 2011.05.06)
author=YAMAMOTO M, DEP. CHEMISTRY, FAC. SCIENCE, NARA WOMEN'S UNIV.
license=CC BY-NC-SA
exact mass=102.06808
ionization energy=70 eV
ion type=[M]+*
computed spectral entropy=2.5423636606042694
computed normalized entropy=0.7713863774108685
SPLASH=splash10-052f-9000000000-67661395b792996d4989
submitter=submitter = University of Tokyo Team (Faculty of Engineering, University of Tokyo)
MoNA Rating=3.75

>  <NUM PEAKS>  (3404) 
27

>  <MASS SPECTRAL PEAKS>  (3404) 
15 4.44
26 2.82
27 11.49
28 4.23
29 10.89
30 2.42
31 33.87
32 1.01
38 2.02
39 26.01
40 4.84
41 99.99
42 20.16
43 8.06
44 5.44
45 28.83
46 1.01
54 1.01
55 2.62
56 2.42
57 18.14
58 53.23
59 9.07
61 1.41
69 1.41
71 12.7
83 1.41

>  <PREDICTED SPECTRUM>  (3404) 
14 62
15 102
16 27
17 2
18 37
19 86
25 56
26 220
27 621
28 295
29 480
30 182
31 515
32 51
33 38
36 38
37 127
38 203
39 754
40 312
41 999
42 389
43 605
44 366
45 964
46 181
47 31
49 12
50 117
52 42
53 306
54 295
55 461
56 176
57 497
58 673
59 412
60 200
61 89
69 70
71 293
72 180
73 131
74 69
75 57
84 139
85 118
87 228
101 4

$$$$

     RDKit          2D

 11 11  0  0  0  0  0  0  0  0999 V2000
    1.3000    0.0000    0.0000 C   0  0  0  0  0  0  0  0  0  0  0  0
   -1.3000    0.0000    0.0000 C   0  0  0  0  0  0  0  0  0  0  0  0
   -0.0000   -2.2500    0.0000 C   0  0  0  0  0  0  0  0  0  0  0  0
   -0.0000   -0.7500    0.0000 C   0  0  0  0  0  0  0  0  0  0  0  0
    1.3000    1.5000    0.0000 C   0  0  0  0  0  0  0  0  0  0  0  0
   -1.3000    1.5000    0.0000 C   0  0  0  0  0  0  0  0  0  0  0  0
   -0.0000    2.2500    0.0000 C   0  0  0  0  0  0  0  0  0  0  0  0
    2.5989    2.2502    0.0000 Br  0  0  0  0  0  0  0  0  0  0  0  0
    1.2990   -3.0000    0.0000 O   0  0  0  0  0  0  0  0  0  0  0  0
   -2.5989    2.2502    0.0000 O   0  0  0  0  0  0  0  0  0  0  0  0
    0.0000    3.7500    0.0000 O   0  0  0  0  0  0  0  0  0  0  0  0
  4  1  2  0
  4  2  1  0
  4  3  1  0
  5  1  1  0
  6  2  2  0
  7  5  2  0
  7  6  1  0
  8  5  1  0
  9  3  2  0
 10  6  1  0
 11  7  1  0
M  END
>  <NAME>  (3405) 
3-BROMO-4,5-DIHYDROXYBENZALDEHYDE

>  <SYNONYMS>  (3405) 


>  <SPECTRUM TYPE>  (3405) 
MS1

>  <INSTRUMENT TYPE>  (3405) 
EI-B

>  <INSTRUMENT>  (3405) 
HITACHI RMS-4

>  <ION MODE>  (3405) 
P

>  <INCHIKEY>  (3405) 
GVSGSHGXUXLQNS-UHFFFAOYSA-N

>  <FORMULA>  (3405) 
C7H5BrO3

>  <EXACT MASS>  (3405) 
215.94220612

>  <MW>  (3405) 
216

>  <ID>  (3405) 
JP006761

>  <CONTRIBUTOR>  (3405) 
University of Tokyo Team, {Faculty of Engineering, University of Tokyo

>  <COMMENT>  (3405) 
SMILES=O=Cc(c1)cc(Br)c(O)c(O)1
InChI=InChI=1S/C7H5BrO3/c8-5-1-4(3-9)2-6(10)7(5)11/h1-3,10-11H
computed SMILES=O=CC1=CC(Br)=C(O)C(O)=C1
accession=JP006761
date=2016.01.19 (Created 2008.10.21, modified 2011.05.06)
author=MASS SPECTROSCOPY SOC. OF JAPAN (MSSJ)
license=CC BY-NC-SA
exact mass=215.94221
ionization energy=70 eV
ion type=[M]+*
computed spectral entropy=3.183807524160843
computed normalized entropy=0.7684537758041442
SPLASH=splash10-014i-7390000000-2705a7c5c4800c265206
submitter=submitter = University of Tokyo Team (Faculty of Engineering, University of Tokyo)
MoNA Rating=3.75

>  <NUM PEAKS>  (3405) 
63

>  <MASS SPECTRAL PEAKS>  (3405) 
41 2.7
43 7
45 6.5
46 1.67
49 10.2
50 31.7
51 45.2
52 2.15
53 23.7
54 6.5
55 8.6
58 0.22
60 2.7
61 10.8
62 17.7
63 1.61
64 3.2
65 2.2
66 2.7
67 0.22
69 4.3
73 2.2
74 2.7
75 0.22
77 9.1
78 4.8
79 24.2
80 1.08
81 8.1
82 2.2
90 4.3
91 0.27
94 2.7
95 2.7
107 18.8
108 1.51
109 4.3
117 2.2
118 2.2
119 0.22
129 2.2
130 2.2
131 4.3
133 0.32
135 4.3
137 2.7
141 2.2
149 0.27
159 8.1
160 2.2
161 7
169 0.2
171 2
187 20.4
188 5.4
189 1.94
190 5.4
215 99.99
216 83.9
217 9.68
218 88.2
219 15.6
220 2.7

>  <PREDICTED SPECTRUM>  (3405) 
14 11
16 5
17 11
18 17
25 23
26 49
27 72
28 40
29 110
32 1
36 54
37 142
38 149
39 101
40 88
41 95
42 73
43 122
44 97
45 71
49 190
50 371
51 475
52 284
53 414
54 131
55 183
56 91
57 68
60 58
61 190
62 243
63 351
64 146
65 135
66 107
67 61
68 25
69 143
70 38
72 17
73 95
74 204
75 153
76 106
77 280
78 187
79 388
80 323
81 291
82 144
83 58
84 145
85 82
86 121
87 79
88 33
89 50
90 37
91 44
92 12
93 120
98 3
101 9
105 123
106 113
107 290
108 280
109 213
110 83
111 7
112 23
113 9
114 76
115 116
116 133
117 50
118 34
125 41
130 8
131 129
133 45
135 176
136 66
137 96
138 102
140 23
141 79
142 10
143 73
157 2
159 232
160 110
161 117
169 39
170 125
172 30
187 337
188 147
189 287
190 134
214 53
215 999
216 979
217 788
218 871
219 337
220 185

$$$$

     RDKit          2D

 10 10  0  0  0  0  0  0  0  0999 V2000
   -1.3000    0.7500    0.0000 C   0  0  0  0  0  0  0  0  0  0  0  0
    0.0000    1.5000    0.0000 C   0  0  0  0  0  0  0  0  0  0  0  0
   -0.0000   -1.5000    0.0000 C   0  0  0  0  0  0  0  0  0  0  0  0
   -2.5989   -1.5002    0.0000 C   0  0  0  0  0  0  0  0  0  0  0  0
   -1.3000   -0.7500    0.0000 C   0  0  0  0  0  0  0  0  0  0  0  0
    1.3000   -0.7500    0.0000 C   0  0  0  0  0  0  0  0  0  0  0  0
    1.3000    0.7500    0.0000 C   0  0  0  0  0  0  0  0  0  0  0  0
    2.5989   -1.5002    0.0000 Br  0  0  0  0  0  0  0  0  0  0  0  0
   -3.8981   -0.7504    0.0000 O   0  0  0  0  0  0  0  0  0  0  0  0
    2.5989    1.5002    0.0000 O   0  0  0  0  0  0  0  0  0  0  0  0
  2  1  2  0
  5  1  1  0
  5  3  2  0
  5  4  1  0
  6  3  1  0
  7  2  1  0
  7  6  2  0
  8  6  1  0
  9  4  2  0
 10  7  1  0
M  END
>  <NAME>  (3406) 
3-BROMO-4-HYDROXYBENZALDEHYDE

>  <SYNONYMS>  (3406) 


>  <SPECTRUM TYPE>  (3406) 
MS1

>  <INSTRUMENT TYPE>  (3406) 
EI-B

>  <INSTRUMENT>  (3406) 
HITACHI RMS-4

>  <ION MODE>  (3406) 
P

>  <INCHIKEY>  (3406) 
UOTMHAOCAJROQF-UHFFFAOYSA-N

>  <FORMULA>  (3406) 
C7H5BrO2

>  <EXACT MASS>  (3406) 
199.9472915

>  <MW>  (3406) 
200

>  <ID>  (3406) 
JP006760

>  <CONTRIBUTOR>  (3406) 
University of Tokyo Team, {Faculty of Engineering, University of Tokyo

>  <COMMENT>  (3406) 
SMILES=O=Cc(c1)cc(Br)c(O)c1
InChI=InChI=1S/C7H5BrO2/c8-6-3-5(4-9)1-2-7(6)10/h1-4,10H
computed SMILES=O=CC1=CC=C(O)C(Br)=C1
accession=JP006760
date=2016.01.19 (Created 2008.10.21, modified 2011.05.06)
author=MASS SPECTROSCOPY SOC. OF JAPAN (MSSJ)
license=CC BY-NC-SA
exact mass=199.94729
ionization energy=70 eV
ion type=[M]+*
computed spectral entropy=3.493050633578588
computed normalized entropy=0.7971313104167262
SPLASH=splash10-0ik9-9110000000-cea8aa93d2789e15c768
submitter=submitter = University of Tokyo Team (Faculty of Engineering, University of Tokyo)
MoNA Rating=3.75

>  <NUM PEAKS>  (3406) 
80

>  <MASS SPECTRAL PEAKS>  (3406) 
40 3.9
41 4.2
42 4.2
43 0.32
44 1.6
45 2.4
46 3.6
48 0.28
49 12
50 22
51 10.5
52 0.28
53 47
54 3.6
55 3.2
56 0.14
57 1.7
60 8
61 36
62 6
63 99.99
64 36
65 36
66 1.05
67 2.8
68 1.4
69 1.7
71.5 0.17
72 1.7
73 7.8
74 1.8
76 0.24
77 9.5
78 1.2
79 10
80 1.5
81 10
82 14
83 1.4
84 0.12
85 1.7
86 4.5
87 3.6
89 0.14
90 4.7
91 14
92 33
93 0.8
94 1.7
95 1.2
104 1.7
105 0.14
106 1.4
116 1.9
117 6.2
118 0.22
119 8
120 4.2
121 5.3
122 0.36
131 1.4
133 1.4
141 1.9
142 0.19
143 13
144 2.4
145 12
146 0.14
149 2.4
169 1.2
170 2.2
171 1.2
172 6.1
173 12
174 2.8
199 2.8
200 32
201 26
202 30
203 3.9

>  <PREDICTED SPECTRUM>  (3406) 
14 23
15 55
16 16
17 5
18 31
25 21
26 71
27 47
28 64
29 142
34 5
36 60
37 161
38 206
39 221
40 124
41 86
42 42
43 98
44 121
45 60
49 145
50 326
51 320
52 176
53 182
54 15
55 39
56 86
57 97
58 71
60 69
61 191
62 261
63 436
64 223
65 291
66 93
67 110
68 46
69 85
70 7
72 27
73 181
74 299
75 224
76 40
77 158
78 59
79 153
80 11
81 144
82 86
83 72
84 69
85 18
86 107
87 56
88 15
89 91
90 127
91 396
92 412
93 156
94 83
95 63
105 52
106 6
107 19
108 28
109 115
111 84
117 71
119 120
120 133
121 67
122 20
127 24
137 2
141 67
142 16
143 206
144 163
145 153
146 69
156 20
171 460
172 175
173 395
174 160
198 74
199 999
200 890
201 973
202 782
203 337
204 94

$$$$

     RDKit          2D

 10 10  0  0  0  0  0  0  0  0999 V2000
    2.5992   -0.7500    0.0000 C   0  0  0  0  0  0  0  0  0  0  0  0
    1.2992   -1.5000    0.0000 C   0  0  0  0  0  0  0  0  0  0  0  0
    1.2992    1.5000    0.0000 C   0  0  0  0  0  0  0  0  0  0  0  0
   -1.2998    1.5002    0.0000 C   0  0  0  0  0  0  0  0  0  0  0  0
   -0.0008    0.7500    0.0000 C   0  0  0  0  0  0  0  0  0  0  0  0
    2.5992    0.7500    0.0000 C   0  0  0  0  0  0  0  0  0  0  0  0
   -0.0008   -0.7500    0.0000 C   0  0  0  0  0  0  0  0  0  0  0  0
    3.8981    1.5002    0.0000 Br  0  0  0  0  0  0  0  0  0  0  0  0
   -2.5989    0.7504    0.0000 O   0  0  0  0  0  0  0  0  0  0  0  0
   -1.2998   -1.5002    0.0000 O   0  0  0  0  0  0  0  0  0  0  0  0
  2  1  2  0
  5  3  1  0
  5  4  1  0
  6  1  1  0
  6  3  2  0
  7  2  1  0
  7  5  2  0
  8  6  1  0
  9  4  2  0
 10  7  1  0
M  END
>  <NAME>  (3407) 
5-BROMOSALICYLALDEHYDE

>  <SYNONYMS>  (3407) 
5-BROMO-2-HYDROXYBENZALDEHYDE

>  <SPECTRUM TYPE>  (3407) 
MS1

>  <INSTRUMENT TYPE>  (3407) 
EI-B

>  <INSTRUMENT>  (3407) 
JEOL JMS-D-300

>  <ION MODE>  (3407) 
P

>  <INCHIKEY>  (3407) 
MKKSTJKBKNCMRV-UHFFFAOYSA-N

>  <FORMULA>  (3407) 
C7H5BrO2

>  <EXACT MASS>  (3407) 
199.9472915

>  <MW>  (3407) 
200

>  <ID>  (3407) 
JP006759

>  <CONTRIBUTOR>  (3407) 
University of Tokyo Team, {Faculty of Engineering, University of Tokyo

>  <COMMENT>  (3407) 
SMILES=O=Cc(c(O)1)cc(Br)cc1
InChI=InChI=1S/C7H5BrO2/c8-6-1-2-7(10)5(3-6)4-9/h1-4,10H
computed SMILES=O=CC1=CC(Br)=CC=C1O
accession=JP006759
date=2016.01.19 (Created 2008.10.21, modified 2011.05.06)
author=MASS SPECTROSCOPY SOC. OF JAPAN (MSSJ)
license=CC BY-NC-SA
exact mass=199.94729
ionization energy=70 eV
ion type=[M]+*
computed spectral entropy=3.341554103513238
computed normalized entropy=0.7891993505324166
SPLASH=splash10-03xr-9400000000-750ef4730c7c0ebf342c
submitter=submitter = University of Tokyo Team (Faculty of Engineering, University of Tokyo)
MoNA Rating=3.75

>  <NUM PEAKS>  (3407) 
69

>  <MASS SPECTRAL PEAKS>  (3407) 
40 4.2
41 2.6
42 4.8
43 0.26
45 2.1
45.5 2.1
46 32.8
46.5 0.48
60 6.3
60.5 2.9
61 26.5
62 4.87
63 99.99
64 48.1
65 98.4
66 1.64
67 3.7
69 2.1
71.5 1.6
72 0.37
72.5 1.6
73 7.9
74 23.8
75 4.18
76 6.9
77 3.2
79 3.7
80 0.58
81 3.2
82 5.8
85 2.1
85.5 0.26
86 12.2
86.5 2.6
87 11.1
90 0.42
91 7.1
92 21.2
93 16.9
94 0.42
95 2.1
99.5 3.2
100 5.8
100.5 0.37
101 5.8
103 2.9
116 2.6
117 1.22
118 2.9
119 11.1
120 2.4
121 0.24
143 28
144 4
145 26.5
146 0.29
154 29.1
155 3.7
156 27
157 0.29
170 2.9
171 24.9
172 9.5
173 0.24
174 7.1
182 14.8
183 2.1
184 1.38
185 2.1

>  <PREDICTED SPECTRUM>  (3407) 
14 37
15 53
16 49
17 32
18 83
25 43
26 105
27 121
28 68
29 191
31 28
34 8
35 29
36 105
37 261
38 341
39 410
40 170
41 194
42 111
43 181
44 212
45 77
46 8
48 31
49 237
50 573
51 440
52 281
53 409
54 124
55 76
56 75
57 175
58 15
60 174
61 350
62 392
63 636
64 389
65 438
66 151
67 99
68 32
69 96
70 51
71 68
72 63
73 206
74 367
75 368
76 166
77 306
78 65
79 195
81 214
82 98
83 160
84 94
85 143
86 232
87 122
90 126
91 364
92 421
93 213
94 74
95 34
104 14
105 58
107 42
108 47
109 42
111 20
117 17
118 52
119 120
120 194
121 315
122 63
143 203
144 289
145 173
146 139
154 51
156 68
170 34
171 412
172 227
173 289
174 124
182 21
183 51
184 18
185 79
186 25
198 6
199 999
200 982
201 897
202 893
203 314
204 43

$$$$

     RDKit          2D

  9  9  0  0  0  0  0  0  0  0999 V2000
    0.3242    2.0633    0.0000 C   0  0  0  0  0  0  0  0  0  0  0  0
    1.6237    1.3125    0.0000 C   0  0  0  0  0  0  0  0  0  0  0  0
   -0.9749    1.3133    0.0000 C   0  0  0  0  0  0  0  0  0  0  0  0
    0.3251   -0.9383    0.0000 C   0  0  0  0  0  0  0  0  0  0  0  0
    2.9233   -0.9381    0.0000 C   0  0  0  0  0  0  0  0  0  0  0  0
    1.6242   -0.1883    0.0000 C   0  0  0  0  0  0  0  0  0  0  0  0
   -0.9744   -0.1875    0.0000 C   0  0  0  0  0  0  0  0  0  0  0  0
   -2.2734   -0.9375    0.0000 Br  0  0  0  0  0  0  0  0  0  0  0  0
    4.2222   -0.1879    0.0000 O   0  0  0  0  0  0  0  0  0  0  0  0
  2  1  2  0
  3  1  1  0
  6  2  1  0
  6  4  2  0
  6  5  1  0
  7  3  2  0
  7  4  1  0
  8  7  1  0
  9  5  2  0
M  END
>  <NAME>  (3408) 
M-BROMOBENZALDEHYDE

>  <SYNONYMS>  (3408) 


>  <SPECTRUM TYPE>  (3408) 
MS1

>  <INSTRUMENT TYPE>  (3408) 
EI-B

>  <INSTRUMENT>  (3408) 
HITACHI RMS-4

>  <ION MODE>  (3408) 
P

>  <INCHIKEY>  (3408) 
SUISZCALMBHJQX-UHFFFAOYSA-N

>  <FORMULA>  (3408) 
C7H5BrO

>  <EXACT MASS>  (3408) 
183.95237688

>  <MW>  (3408) 
184

>  <ID>  (3408) 
JP006758

>  <CONTRIBUTOR>  (3408) 
University of Tokyo Team, {Faculty of Engineering, University of Tokyo

>  <COMMENT>  (3408) 
SMILES=O=Cc(c1)cc(Br)cc1
InChI=InChI=1S/C7H5BrO/c8-7-3-1-2-6(4-7)5-9/h1-5H
computed SMILES=O=CC=1C=CC=C(Br)C1
accession=JP006758
date=2016.01.19 (Created 2008.10.21, modified 2011.05.06)
author=MASS SPECTROSCOPY SOC. OF JAPAN (MSSJ)
license=CC BY-NC-SA
exact mass=183.95238
ionization energy=70 eV
ion type=[M]+*
computed spectral entropy=2.9301011691371333
computed normalized entropy=0.7279118433008295
SPLASH=splash10-0f9i-9800000000-9a22906d6d0dae14e210
submitter=submitter = University of Tokyo Team (Faculty of Engineering, University of Tokyo)
MoNA Rating=3.75

>  <NUM PEAKS>  (3408) 
56

>  <MASS SPECTRAL PEAKS>  (3408) 
40 6.3
43 1.5
44 2.4
45 0.15
48 2.1
49 14.2
50 99.99
51 5.6
52 4.2
53 4.2
60 2.4
61 0.72
62 7.2
63 4.5
65 2.4
72 0.21
73 14.5
74 48.5
75 56
76 5.87
77 58.7
78 5.4
79 4.5
80 0.15
81 4.2
82 1.5
84 1.5
85 0.24
86 2.7
87 1.5
89 1.5
91 0.12
92 1.2
93 1.2
103 1.5
104 0.48
105 2.4
106 1.5
107 1.8
116 0.12
117 1.5
118 1.2
119 1.5
128 0.18
129 2.4
130 1.8
131 2.4
155 4.76
156 23.5
157 45.8
158 6.9
183 7.83
184 68.1
185 80.1
186 70.2
187 6.6

>  <PREDICTED SPECTRUM>  (3408) 
14 44
15 110
16 21
18 16
25 45
26 132
27 118
28 118
29 265
30 37
31 21
34 4
35 4
36 71
37 193
38 258
39 299
40 151
41 82
42 48
43 76
44 124
45 42
48 56
49 189
50 595
51 449
52 212
53 122
56 42
57 16
60 110
61 149
62 168
63 327
64 126
65 166
66 7
69 95
73 263
74 518
75 716
76 615
77 496
78 228
79 226
81 146
86 83
89 15
90 36
92 31
93 131
103 40
104 216
105 192
106 34
128 124
129 19
130 25
155 591
156 206
157 525
158 118
159 43
182 33
183 808
184 864
185 999
186 841
187 339

$$$$

     RDKit          2D

  8  8  0  0  0  0  0  0  0  0999 V2000
   -1.3000    0.7500    0.0000 C   0  0  0  0  0  0  0  0  0  0  0  0
    0.0000    1.5000    0.0000 C   0  0  0  0  0  0  0  0  0  0  0  0
   -1.3000   -0.7500    0.0000 C   0  0  0  0  0  0  0  0  0  0  0  0
    1.3000    0.7500    0.0000 C   0  0  0  0  0  0  0  0  0  0  0  0
    0.0000   -1.5000    0.0000 C   0  0  0  0  0  0  0  0  0  0  0  0
    1.3000   -0.7500    0.0000 C   0  0  0  0  0  0  0  0  0  0  0  0
   -0.0000   -3.0000    0.0000 Br  0  0  0  0  0  0  0  0  0  0  0  0
    2.5989   -1.5002    0.0000 O   0  0  0  0  0  0  0  0  0  0  0  0
  2  1  2  0
  3  1  1  0
  4  2  1  0
  5  3  2  0
  6  4  2  0
  6  5  1  0
  7  5  1  0
  8  6  1  0
M  END
>  <NAME>  (3409) 
O-BROMOPHENOL

>  <SYNONYMS>  (3409) 


>  <SPECTRUM TYPE>  (3409) 
MS1

>  <INSTRUMENT TYPE>  (3409) 
EI-B

>  <INSTRUMENT>  (3409) 
HITACHI RMS-4

>  <ION MODE>  (3409) 
P

>  <INCHIKEY>  (3409) 
VADKRMSMGWJZCF-UHFFFAOYSA-N

>  <FORMULA>  (3409) 
C6H5BrO

>  <EXACT MASS>  (3409) 
171.95237688

>  <MW>  (3409) 
172

>  <ID>  (3409) 
JP006757

>  <CONTRIBUTOR>  (3409) 
University of Tokyo Team, {Faculty of Engineering, University of Tokyo

>  <COMMENT>  (3409) 
SMILES=Oc(c1)c(Br)ccc1
InChI=InChI=1S/C6H5BrO/c7-5-3-1-2-4-6(5)8/h1-4,8H
computed SMILES=BrC=1C=CC=CC1O
accession=JP006757
date=2016.01.19 (Created 2008.10.21, modified 2011.05.06)
author=MASS SPECTROSCOPY SOC. OF JAPAN (MSSJ)
license=CC BY-NC-SA
exact mass=171.95238
ionization energy=70 eV
ion type=[M]+*
computed spectral entropy=2.748606184744167
computed normalized entropy=0.7307790333398217
SPLASH=splash10-00di-9600000000-6c8d91ec2d8cd63d450f
submitter=submitter = University of Tokyo Team (Faculty of Engineering, University of Tokyo)
MoNA Rating=3.75

>  <NUM PEAKS>  (3409) 
43

>  <MASS SPECTRAL PEAKS>  (3409) 
40 4.6
46 5.9
49 5.3
50 1.32
51 4.8
53 20.4
54 2
55 0.2
60 3.1
61 13.7
62 22.6
63 5.45
64 55.2
65 87.3
66 11.2
72 0.13
73 3.6
74 8.4
75 4.3
76 0.18
77 1.3
79 3.8
80 2
81 0.36
82 1.8
86 4.8
87 4.8
91 0.15
92 15.5
93 21.9
94 2.3
116 0.13
117 5.6
118 1.5
119 5.1
143 0.59
144 2.3
145 5.6
146 2.3
172 99.99
173 11.2
174 98.2
175 10.7

>  <PREDICTED SPECTRUM>  (3409) 
16 9
17 25
18 54
25 65
26 111
27 139
28 3
29 120
31 84
33 9
34 7
36 95
37 318
38 458
39 551
40 165
41 282
42 47
43 124
44 210
45 186
46 25
47 44
48 54
49 216
50 538
51 509
52 245
53 331
54 120
55 25
56 39
57 235
58 40
59 70
60 231
61 362
62 448
63 646
64 455
65 806
66 344
67 114
68 76
69 62
72 155
73 110
74 268
75 246
76 173
77 281
78 31
79 131
80 70
81 217
82 52
83 29
85 41
91 62
92 320
93 738
94 232
95 8
119 28
143 114
144 42
145 192
146 67
172 962
173 232
174 999
175 261

$$$$

     RDKit          2D

  7  7  0  0  0  0  0  0  0  0999 V2000
   -1.3000    0.7500    0.0000 C   0  0  0  0  0  0  0  0  0  0  0  0
    0.0000    1.5000    0.0000 C   0  0  0  0  0  0  0  0  0  0  0  0
   -1.3000   -0.7500    0.0000 C   0  0  0  0  0  0  0  0  0  0  0  0
    1.3000    0.7500    0.0000 C   0  0  0  0  0  0  0  0  0  0  0  0
    0.0000   -1.5000    0.0000 C   0  0  0  0  0  0  0  0  0  0  0  0
    1.3000   -0.7500    0.0000 C   0  0  0  0  0  0  0  0  0  0  0  0
    2.5989   -1.5002    0.0000 Br  0  0  0  0  0  0  0  0  0  0  0  0
  2  1  2  0
  3  1  1  0
  4  2  1  0
  5  3  2  0
  6  4  2  0
  6  5  1  0
  7  6  1  0
M  END
>  <NAME>  (3410) 
BROMOBENZENE

>  <SYNONYMS>  (3410) 


>  <SPECTRUM TYPE>  (3410) 
MS1

>  <INSTRUMENT TYPE>  (3410) 
EI-B

>  <INSTRUMENT>  (3410) 
HITACHI RMS-4

>  <ION MODE>  (3410) 
P

>  <INCHIKEY>  (3410) 
QARVLSVVCXYDNA-UHFFFAOYSA-N

>  <FORMULA>  (3410) 
C6H5Br

>  <EXACT MASS>  (3410) 
155.95746226

>  <MW>  (3410) 
156

>  <ID>  (3410) 
JP006753

>  <CONTRIBUTOR>  (3410) 
University of Tokyo Team, {Faculty of Engineering, University of Tokyo

>  <COMMENT>  (3410) 
SMILES=c(c1)ccc(Br)c1
InChI=InChI=1S/C6H5Br/c7-6-4-2-1-3-5-6/h1-5H
computed SMILES=BrC=1C=CC=CC1
accession=JP006753
date=2016.01.19 (Created 2008.10.21, modified 2011.05.06)
author=MASS SPECTROSCOPY SOC. OF JAPAN (MSSJ)
license=CC BY-NC-SA
exact mass=155.95746
ionization energy=70 eV
ion type=[M]+*
computed spectral entropy=2.013956925140881
computed normalized entropy=0.6337076187662892
SPLASH=splash10-0fb9-9000000000-26ef1930786e7787858d
submitter=submitter = University of Tokyo Team (Faculty of Engineering, University of Tokyo)
MoNA Rating=3.75

>  <NUM PEAKS>  (3410) 
24

>  <MASS SPECTRAL PEAKS>  (3410) 
48 2.1
49 10.3
50 80.2
51 9
52 4.2
60 1.6
61 3
62 0.28
63 1.6
72 1.4
73 6.1
74 1.84
75 10.7
76 7.7
77 99.99
78 0.54
79 3
80 1.4
81 2.8
82 0.14
156 10.7
157 1.9
158 10.5
159 1.6

>  <PREDICTED SPECTRUM>  (3410) 
25 38
26 92
27 103
28 72
31 49
37 114
38 177
39 208
40 23
45 26
48 24
49 122
50 564
51 531
52 142
57 45
62 60
63 161
69 73
70 71
73 30
74 271
75 566
76 535
77 999
78 404
79 185
80 90
81 48
93 102
155 502
156 813
157 600
158 617
159 230

$$$$

     RDKit          2D

 13 13  0  0  1  0  0  0  0  0999 V2000
   -5.3987    0.7886    0.0000 C   0  0  0  0  0  0  0  0  0  0  0  0
    3.0484   -0.6255    0.0000 C   0  0  0  0  0  0  0  0  0  0  0  0
   -2.6349    2.2815    0.0000 C   0  0  0  0  0  0  0  0  0  0  0  0
   -1.4249    0.1857    0.0000 C   0  0  0  0  0  0  0  0  0  0  0  0
   -2.8006    0.7886    0.0000 C   0  0  0  0  0  0  0  0  0  0  0  0
   -1.1751    2.5932    0.0000 C   0  0  0  0  0  0  0  0  0  0  0  0
    0.5779    0.1788    0.0000 C   0  0  0  0  0  0  0  0  0  0  0  0
   -0.4251    1.2941    0.0000 C   0  0  0  0  0  0  0  0  0  0  0  0
   -0.5656    3.9637    0.0000 O   0  0  0  0  0  0  0  0  0  0  0  0
    0.1135   -1.2475    0.0000 O   0  0  0  0  0  0  0  0  0  0  0  0
    0.7887    2.1754    0.0000 O   0  0  0  0  0  0  0  0  0  0  0  0
   -4.0997    0.0386    0.0000 O   0  0  0  0  0  0  0  0  0  0  0  0
    2.0453    0.4898    0.0000 O   0  0  0  0  0  0  0  0  0  0  0  0
  5  3  2  0
  5  4  1  0
  6  3  1  0
  8  4  1  0
  8  6  1  0
  8  7  1  0
  9  6  2  0
 10  7  2  0
  8 11  1  6
 12  1  1  0
 12  5  1  0
 13  2  1  0
 13  7  1  0
M  END
>  <NAME>  (3411) 
5-HYDROXY-5-METHOXYCARBONYL-3-METHOXYCYCLOPENT-2-EN-1-ONE

>  <SYNONYMS>  (3411) 
(+)-KJELLMANIANONE

>  <SPECTRUM TYPE>  (3411) 
MS1

>  <INSTRUMENT TYPE>  (3411) 
EI-B

>  <INSTRUMENT>  (3411) 
HITACHI RMS-4

>  <ION MODE>  (3411) 
P

>  <INCHIKEY>  (3411) 
YGCFLXLGPRNGTJ-MRVPVSSYSA-N

>  <FORMULA>  (3411) 
C8H10O5

>  <EXACT MASS>  (3411) 
186.05282341999998

>  <MW>  (3411) 
186

>  <ID>  (3411) 
JP006707

>  <CONTRIBUTOR>  (3411) 
University of Tokyo Team, {Faculty of Engineering, University of Tokyo

>  <COMMENT>  (3411) 
SMILES=COC(C1)=C([H])C(=O)C(O)1C(=O)OC
InChI=InChI=1S/C8H10O5/c1-12-5-3-6(9)8(11,4-5)7(10)13-2/h3,11H,4H2,1-2H3/t8-/m1/s1
computed SMILES=O=C(OC)C1(O)C(=O)C=C(OC)C1
accession=JP006707
date=2016.01.19 (Created 2008.10.21, modified 2011.05.06)
author=MASS SPECTROSCOPY SOC. OF JAPAN (MSSJ)
license=CC BY-NC-SA
exact mass=186.05282
ionization energy=70 eV
ion type=[M]+*
computed spectral entropy=3.4084522033467004
computed normalized entropy=0.7870381146859868
SPLASH=splash10-0002-9300000000-8b9f9461e8b2c6a37838
submitter=submitter = University of Tokyo Team (Faculty of Engineering, University of Tokyo)
MoNA Rating=3.75

>  <NUM PEAKS>  (3411) 
76

>  <MASS SPECTRAL PEAKS>  (3411) 
40 15.5
41 15
42 11.5
43 3
44 6.5
45 9
51 1.5
52 0.15
53 6
54 3
55 12.5
56 0.6
57 8
58 4
59 22
60 0.25
66 4
67 35
68 40
69 6
70 7
71 13.5
72 3
73 0.25
75 3
77 2
81 2.5
82 0.2
83 62.5
84 17
85 11.5
86 0.15
87 6
88 3
95 63.5
96 0.2
97 1.5
98 99.99
99 32
100 0.4
101 4
102 3
103 1.5
109 0.6
110 1.5
111 7
112 3
113 0.5
114 4
115 2.5
117 4
119 0.15
124 2
125 22
126 9
127 7.05
128 8
129 6.5
130 2.5
133 0.3
137 4
138 1
139 3
140 0.15
141 2
142 1.5
143 6
154 0.45
155 2
158 8
168 3
170 0.7
171 4.5
185 2
186 79.5
187 9

>  <PREDICTED SPECTRUM>  (3411) 
26 25
27 24
29 116
30 11
31 84
33 124
34 15
37 69
38 166
39 445
40 268
41 496
42 297
43 377
44 319
45 507
46 73
47 38
49 53
50 70
51 240
52 271
53 512
54 384
55 555
56 359
57 336
58 280
59 887
60 225
61 130
64 12
65 146
66 239
67 456
68 620
69 518
70 320
71 491
72 216
73 37
77 136
79 98
80 26
81 198
82 240
83 529
84 478
85 271
86 200
87 230
88 117
90 16
94 27
95 661
96 361
97 451
98 681
99 818
100 284
101 200
109 240
110 335
111 541
112 280
113 204
114 133
115 80
123 174
125 187
126 368
127 747
128 312
129 335
130 234
137 215
139 204
140 87
141 48
142 101
143 170
154 220
155 315
156 79
157 49
158 326
169 67
171 174
172 5
186 999
187 331
188 181

$$$$

     RDKit          2D

 20 19  0  0  0  0  0  0  0  0999 V2000
  -16.2380   10.1250    0.0000 C   0  0  0  0  0  0  0  0  0  0  0  0
    5.8457    9.3750    0.0000 C   0  0  0  0  0  0  0  0  0  0  0  0
  -14.9389    9.3750    0.0000 C   0  0  0  0  0  0  0  0  0  0  0  0
  -13.6399   10.1250    0.0000 C   0  0  0  0  0  0  0  0  0  0  0  0
  -12.3409    9.3750    0.0000 C   0  0  0  0  0  0  0  0  0  0  0  0
  -11.0418   10.1250    0.0000 C   0  0  0  0  0  0  0  0  0  0  0  0
   -9.7428    9.3750    0.0000 C   0  0  0  0  0  0  0  0  0  0  0  0
   -8.4437   10.1250    0.0000 C   0  0  0  0  0  0  0  0  0  0  0  0
   -7.1447    9.3750    0.0000 C   0  0  0  0  0  0  0  0  0  0  0  0
   -5.8457   10.1250    0.0000 C   0  0  0  0  0  0  0  0  0  0  0  0
   -4.5466    9.3750    0.0000 C   0  0  0  0  0  0  0  0  0  0  0  0
   -3.2476   10.1250    0.0000 C   0  0  0  0  0  0  0  0  0  0  0  0
   -1.9486    9.3750    0.0000 C   0  0  0  0  0  0  0  0  0  0  0  0
   -0.6495   10.1250    0.0000 C   0  0  0  0  0  0  0  0  0  0  0  0
    1.9486   10.1250    0.0000 C   0  0  0  0  0  0  0  0  0  0  0  0
    0.6495    9.3750    0.0000 C   0  0  0  0  0  0  0  0  0  0  0  0
    3.2476    9.3750    0.0000 C   0  0  0  0  0  0  0  0  0  0  0  0
    0.6495    7.8750    0.0000 O   0  0  0  0  0  0  0  0  0  0  0  0
    3.2476    7.8750    0.0000 O   0  0  0  0  0  0  0  0  0  0  0  0
    4.5466   10.1250    0.0000 O   0  0  0  0  0  0  0  0  0  0  0  0
  3  1  1  0
  4  3  1  0
  5  4  1  0
  6  5  1  0
  7  6  1  0
  8  7  1  0
  9  8  1  0
 10  9  1  0
 11 10  1  0
 12 11  1  0
 13 12  1  0
 14 13  1  0
 16 14  1  0
 16 15  1  0
 17 15  1  0
 18 16  2  0
 19 17  2  0
 20  2  1  0
 20 17  1  0
M  END
>  <NAME>  (3412) 
METHYL 3-OXOHEXADECANOATE

>  <SYNONYMS>  (3412) 


>  <SPECTRUM TYPE>  (3412) 
MS1

>  <INSTRUMENT TYPE>  (3412) 
EI-B

>  <INSTRUMENT>  (3412) 
JEOL JMS-D-300

>  <ION MODE>  (3412) 
P

>  <INCHIKEY>  (3412) 
OEEDRMFBAHHVQI-UHFFFAOYSA-N

>  <FORMULA>  (3412) 
C17H32O3

>  <EXACT MASS>  (3412) 
284.23514488399996

>  <MW>  (3412) 
284

>  <ID>  (3412) 
JP006706

>  <CONTRIBUTOR>  (3412) 
University of Tokyo Team, {Faculty of Engineering, University of Tokyo

>  <COMMENT>  (3412) 
SMILES=CCCCCCCCCCCCCC(=O)CC(=O)OC
InChI=InChI=1S/C17H32O3/c1-3-4-5-6-7-8-9-10-11-12-13-14-16(18)15-17(19)20-2/h3-15H2,1-2H3
computed SMILES=O=C(OC)CC(=O)CCCCCCCCCCCCC
accession=JP006706
date=2016.01.19 (Created 2008.10.21, modified 2011.05.06)
author=MASS SPECTROSCOPY SOC. OF JAPAN (MSSJ)
license=CC BY-NC-SA
exact mass=284.23514
ionization energy=70 eV
ion type=[M]+*
computed spectral entropy=2.9700572723649374
computed normalized entropy=0.7411555603387244
SPLASH=splash10-0a4i-9100000000-4ad0ae1c6fec6afed54a
submitter=submitter = University of Tokyo Team (Faculty of Engineering, University of Tokyo)
MoNA Rating=3.75

>  <NUM PEAKS>  (3412) 
55

>  <MASS SPECTRAL PEAKS>  (3412) 
41 14.9
42 4.3
43 49.9
44 0.29
53 1.6
54 2.3
55 14
56 0.54
57 17.1
58 99.99
59 54.5
60 0.25
67 3.9
68 3.6
69 8.2
70 0.49
71 38.8
72 3.7
81 4.5
82 0.94
83 6.8
84 3.6
85 14.1
86 0.2
95 5.1
96 11.5
97 6.7
98 0.28
99 2.4
100 3.1
109 3.1
110 0.45
111 4.2
112 2.3
113 3.1
114 0.28
123 1.8
124 3
125 3
126 0.18
127 4.6
128 1.7
137 1.5
138 0.27
139 1.7
140 1.8
141 1.5
152 0.15
166 4.9
168 6.8
169 2.1
183 0.24
208 2.4
211 3.6
226 9.6

>  <PREDICTED SPECTRUM>  (3412) 
15 7
17 38
18 64
27 109
28 113
29 193
31 98
32 47
33 26
37 36
38 54
39 225
40 97
41 540
42 260
43 865
44 141
45 42
51 16
52 14
53 158
54 135
55 448
56 323
57 530
58 348
59 387
60 100
61 99
62 22
65 88
66 15
67 223
68 140
69 479
70 187
71 520
72 188
73 184
74 479
75 188
76 0
77 124
79 127
80 117
81 344
82 209
83 289
84 394
85 320
86 14
87 138
88 146
89 17
90 17
91 70
93 164
94 131
95 346
96 205
97 340
98 325
99 196
100 168
101 373
102 167
103 79
107 102
108 144
109 289
110 180
111 246
112 163
113 146
114 29
115 89
116 999
117 687
118 288
119 25
121 128
122 115
123 126
124 29
125 141
126 203
127 17
129 531
130 93
131 85
135 69
136 81
137 167
138 101
139 132
143 40
144 79
150 59
151 103
152 52
153 124
154 121
157 92
158 0
166 153
167 121
168 266
169 106
178 66
181 88
182 19
185 49
192 251
193 116
194 17
195 5
202 18
208 6
209 105
210 45
211 421
212 188
213 36
214 27
219 5
226 62
227 34
234 101
242 14
253 42
266 241
267 16
284 249
285 137
286 7

$$$$

     RDKit          2D

 23 22  0  0  0  0  0  0  0  0999 V2000
  -16.2380   10.1250    0.0000 C   0  0  0  0  0  0  0  0  0  0  0  0
   -1.9486    7.8750    0.0000 C   0  0  0  0  0  0  0  0  0  0  0  0
    5.8457    9.3750    0.0000 C   0  0  0  0  0  0  0  0  0  0  0  0
  -14.9389    9.3750    0.0000 C   0  0  0  0  0  0  0  0  0  0  0  0
  -13.6399   10.1250    0.0000 C   0  0  0  0  0  0  0  0  0  0  0  0
  -12.3409    9.3750    0.0000 C   0  0  0  0  0  0  0  0  0  0  0  0
  -11.0418   10.1250    0.0000 C   0  0  0  0  0  0  0  0  0  0  0  0
   -9.7428    9.3750    0.0000 C   0  0  0  0  0  0  0  0  0  0  0  0
   -8.4437   10.1250    0.0000 C   0  0  0  0  0  0  0  0  0  0  0  0
   -7.1447    9.3750    0.0000 C   0  0  0  0  0  0  0  0  0  0  0  0
   -5.8457   10.1250    0.0000 C   0  0  0  0  0  0  0  0  0  0  0  0
   -4.5466    9.3750    0.0000 C   0  0  0  0  0  0  0  0  0  0  0  0
   -3.2476   10.1250    0.0000 C   0  0  0  0  0  0  0  0  0  0  0  0
   -1.9486    9.3750    0.0000 C   0  0  0  0  0  0  0  0  0  0  0  0
   -0.6495   10.1250    0.0000 C   0  0  0  0  0  0  0  0  0  0  0  0
    1.9486   10.1250    0.0000 C   0  0  0  0  0  0  0  0  0  0  0  0
   -0.6495    7.1250    0.0000 C   0  0  0  0  0  0  0  0  0  0  0  0
    0.6495    9.3750    0.0000 C   0  0  0  0  0  0  0  0  0  0  0  0
    3.2476    9.3750    0.0000 C   0  0  0  0  0  0  0  0  0  0  0  0
   -0.6495    5.6250    0.0000 O   0  0  0  0  0  0  0  0  0  0  0  0
    3.2476    7.8750    0.0000 O   0  0  0  0  0  0  0  0  0  0  0  0
    4.5466   10.1250    0.0000 O   0  0  0  0  0  0  0  0  0  0  0  0
    0.6495    7.8750    0.0000 O   0  0  0  0  0  0  0  0  0  0  0  0
  4  1  1  0
  5  4  1  0
  6  5  1  0
  7  6  1  0
  8  7  1  0
  9  8  1  0
 10  9  1  0
 11 10  1  0
 12 11  1  0
 13 12  1  0
 14 13  1  0
 15 14  1  0
 17  2  1  0
 18 15  1  0
 18 16  1  0
 19 16  1  0
 20 17  2  0
 21 19  2  0
 22  3  1  0
 22 19  1  0
 23 17  1  0
 23 18  1  0
M  END
>  <NAME>  (3413) 
METHYL 3-ACETOXYHEXADECANOATE

>  <SYNONYMS>  (3413) 
BETA-ACETOXYPALMITIC ACID METHYL ESTER

>  <SPECTRUM TYPE>  (3413) 
MS1

>  <INSTRUMENT TYPE>  (3413) 
EI-B

>  <INSTRUMENT>  (3413) 
JEOL JMS-D-300

>  <ION MODE>  (3413) 
P

>  <INCHIKEY>  (3413) 
LNSKNBASLYLDGC-UHFFFAOYSA-N

>  <FORMULA>  (3413) 
C19H36O4

>  <EXACT MASS>  (3413) 
328.261359632

>  <MW>  (3413) 
328

>  <ID>  (3413) 
JP006704

>  <CONTRIBUTOR>  (3413) 
University of Tokyo Team, {Faculty of Engineering, University of Tokyo

>  <COMMENT>  (3413) 
SMILES=CCCCCCCCCCCCCC(OC(C)=O)CC(=O)OC
InChI=InChI=1S/C19H36O4/c1-4-5-6-7-8-9-10-11-12-13-14-15-18(23-17(2)20)16-19(21)22-3/h18H,4-16H2,1-3H3
computed SMILES=O=C(OC(CC(=O)OC)CCCCCCCCCCCCC)C
exact mass=328.26136
accession=JP006704
date=2016.01.19 (Created 2008.10.21, modified 2011.05.06)
author=MASS SPECTROSCOPY SOC. OF JAPAN (MSSJ)
license=CC BY-NC-SA
ionization energy=70 eV
ion type=[M]+*
computed spectral entropy=3.9887204318374296
computed normalized entropy=0.8606156782774548
SPLASH=splash10-0ac1-9410000000-791c9e29241af1bf9674
submitter=submitter = University of Tokyo Team (Faculty of Engineering, University of Tokyo)
MoNA Rating=3.75

>  <NUM PEAKS>  (3413) 
103

>  <MASS SPECTRAL PEAKS>  (3413) 
54 11.1
55 21.9
56 99.99
57 3.57
58 75.8
59 43.4
60 9.8
61 0.84
66 4.3
67 51.8
68 42.7
69 8.1
70 31.1
71 43.6
72 6.4
73 0.79
74 92.7
75 25.6
77 3
79 1.06
80 8.9
81 59
82 44.2
83 6.52
84 52.6
85 27.5
86 3.5
87 7.06
88 8.8
91 3.5
93 5.5
94 0.89
95 41.5
96 61.5
97 63.8
98 4.28
99 10.1
100 15
101 55.1
102 0.53
103 35.8
107 4.4
108 6.2
109 2.32
110 29.1
111 31.2
112 12
113 3.43
114 18.8
115 12
116 7.7
119 0.52
121 5.3
122 4
123 19
124 1.35
125 15.5
126 5.2
127 12.1
128 1.65
129 9.3
133 4.8
134 7.3
135 0.43
136 3.1
137 12.4
138 14.6
139 1.05
140 3.5
141 15.5
142 5.4
143 0.56
145 9.2
148 3.7
151 7.7
152 2.25
153 7.4
155 5.1
157 3.5
165 0.59
166 7.8
171 11.4
172 3.3
179 0.32
185 5.8
192 9.6
193 5.7
194 3.21
195 15.8
208 4.2
211 19.4
212 0.35
218 5.2
225 3.1
236 40.8
237 3.05
238 5.1
268 25.5
269 7.3
285 1.81
286 4.1
297 1.6
328 0.5

>  <PREDICTED SPECTRUM>  (3413) 
17 36
18 37
27 5
28 45
29 163
30 37
32 39
33 37
39 83
40 25
41 459
42 278
43 986
44 124
45 176
52 14
53 204
54 403
55 778
56 496
57 670
58 441
59 490
60 154
61 265
65 74
66 202
67 669
68 627
69 702
70 436
71 689
72 231
73 222
74 894
75 518
76 33
77 59
78 12
79 256
80 247
81 709
82 625
83 767
84 475
85 544
86 239
87 449
88 225
89 136
90 27
91 61
92 33
93 350
94 378
95 846
96 733
97 788
98 306
99 355
100 306
101 736
102 159
103 172
104 46
105 63
106 84
107 161
108 131
109 348
110 506
111 497
112 191
113 360
114 410
115 335
116 279
117 141
118 37
119 9
121 234
122 112
123 325
124 322
125 405
126 288
127 394
128 278
129 324
130 97
131 107
132 57
133 85
134 60
136 53
137 325
138 535
139 244
140 191
141 357
142 255
143 271
144 124
145 147
146 120
147 102
148 186
149 149
150 53
151 275
152 341
153 316
154 107
155 97
156 59
157 46
158 42
159 70
160 44
161 6
162 7
163 4
164 1
165 120
166 219
168 65
169 168
170 103
171 58
173 19
174 14
175 20
176 72
177 94
178 30
179 102
180 213
181 46
182 55
183 243
184 50
185 108
186 134
187 84
188 60
192 229
193 235
194 299
195 331
196 41
197 136
198 30
200 6
201 65
202 20
208 254
209 120
210 32
211 400
212 269
213 46
215 97
217 20
218 113
220 19
225 102
226 25
229 36
234 26
236 999
237 283
238 199
253 118
254 106
255 152
256 30
268 337
269 511
270 132
271 24
285 366
286 155
296 43
297 358
298 119
327 61
328 276
329 126
330 25

$$$$

     RDKit          2D

 20 19  0  0  0  0  0  0  0  0999 V2000
  -16.2380   10.1250    0.0000 C   0  0  0  0  0  0  0  0  0  0  0  0
    5.8457    9.3750    0.0000 C   0  0  0  0  0  0  0  0  0  0  0  0
  -14.9389    9.3750    0.0000 C   0  0  0  0  0  0  0  0  0  0  0  0
  -13.6399   10.1250    0.0000 C   0  0  0  0  0  0  0  0  0  0  0  0
  -12.3409    9.3750    0.0000 C   0  0  0  0  0  0  0  0  0  0  0  0
  -11.0418   10.1250    0.0000 C   0  0  0  0  0  0  0  0  0  0  0  0
   -9.7428    9.3750    0.0000 C   0  0  0  0  0  0  0  0  0  0  0  0
   -8.4437   10.1250    0.0000 C   0  0  0  0  0  0  0  0  0  0  0  0
   -7.1447    9.3750    0.0000 C   0  0  0  0  0  0  0  0  0  0  0  0
   -5.8457   10.1250    0.0000 C   0  0  0  0  0  0  0  0  0  0  0  0
   -4.5466    9.3750    0.0000 C   0  0  0  0  0  0  0  0  0  0  0  0
   -3.2476   10.1250    0.0000 C   0  0  0  0  0  0  0  0  0  0  0  0
   -1.9486    9.3750    0.0000 C   0  0  0  0  0  0  0  0  0  0  0  0
   -0.6495   10.1250    0.0000 C   0  0  0  0  0  0  0  0  0  0  0  0
    1.9486   10.1250    0.0000 C   0  0  0  0  0  0  0  0  0  0  0  0
    0.6495    9.3750    0.0000 C   0  0  0  0  0  0  0  0  0  0  0  0
    3.2476    9.3750    0.0000 C   0  0  0  0  0  0  0  0  0  0  0  0
    0.6495    7.8750    0.0000 O   0  0  0  0  0  0  0  0  0  0  0  0
    3.2476    7.8750    0.0000 O   0  0  0  0  0  0  0  0  0  0  0  0
    4.5466   10.1250    0.0000 O   0  0  0  0  0  0  0  0  0  0  0  0
  3  1  1  0
  4  3  1  0
  5  4  1  0
  6  5  1  0
  7  6  1  0
  8  7  1  0
  9  8  1  0
 10  9  1  0
 11 10  1  0
 12 11  1  0
 13 12  1  0
 14 13  1  0
 16 14  1  0
 16 15  1  0
 17 15  1  0
 18 16  1  0
 19 17  2  0
 20  2  1  0
 20 17  1  0
M  END
>  <NAME>  (3414) 
METHYL D(-)-3-HYDROXYHEXADECANOATE

>  <SYNONYMS>  (3414) 
BETA-HYDROXYPALMITIC ACID METHYL ESTER

>  <SPECTRUM TYPE>  (3414) 
MS1

>  <INSTRUMENT TYPE>  (3414) 
EI-B

>  <INSTRUMENT>  (3414) 
JEOL JMS-D-300

>  <ION MODE>  (3414) 
P

>  <INCHIKEY>  (3414) 
YBTWUESFQWFDMR-UHFFFAOYSA-N

>  <FORMULA>  (3414) 
C17H34O3

>  <EXACT MASS>  (3414) 
286.250794948

>  <MW>  (3414) 
286

>  <ID>  (3414) 
JP006702

>  <CONTRIBUTOR>  (3414) 
University of Tokyo Team, {Faculty of Engineering, University of Tokyo

>  <COMMENT>  (3414) 
SMILES=CCCCCCCCCCCCCC(O)CC(=O)OC
InChI=InChI=1S/C17H34O3/c1-3-4-5-6-7-8-9-10-11-12-13-14-16(18)15-17(19)20-2/h16,18H,3-15H2,1-2H3
computed SMILES=O=C(OC)CC(O)CCCCCCCCCCCCC
date=2016.01.19 (Created 2008.10.21, modified 2011.05.06)
accession=JP006702
author=MASS SPECTROSCOPY SOC. OF JAPAN (MSSJ)
license=CC BY-NC-SA
exact mass=286.25079
ionization energy=70 eV
ion type=[M]+*
computed spectral entropy=3.113996620651882
computed normalized entropy=0.7459769348927069
SPLASH=splash10-0udi-9800000000-c525f950cb1761d34c28
submitter=submitter = University of Tokyo Team (Faculty of Engineering, University of Tokyo)
MoNA Rating=3.75

>  <NUM PEAKS>  (3414) 
65

>  <MASS SPECTRAL PEAKS>  (3414) 
55 2.4
56 14.9
57 5.6
58 1.57
59 4.6
61 9.3
66 1.1
67 0.69
68 6.8
69 12.7
70 5.2
71 1.66
72 1.5
74 21.2
75 7.9
79 0.12
80 1.1
81 7.1
82 9.5
83 1.14
84 6
85 4.7
87 4.4
94 0.1
95 5.7
96 9.3
97 9.3
98 0.47
99 1.6
100 1.2
101 5.6
102 0.21
103 99.99
104 5.1
105 1.2
109 0.32
110 3.9
111 4.7
112 1.8
113 0.23
114 2
115 1.5
123 2.5
124 0.24
125 2.6
127 1.5
128 1.6
129 0.11
137 1.9
138 2.3
139 1.5
141 0.21
151 1.1
152 2.9
153 1.1
166 0.13
168 1
171 1.6
192 1.1
194 0.4
195 1.3
236 4.2
237 1.9
255 0.05
268 1.3

>  <PREDICTED SPECTRUM>  (3414) 
15 9
17 32
18 21
25 0
26 0
27 147
28 106
29 317
30 144
31 131
32 26
33 95
37 9
38 38
39 266
40 115
41 832
42 384
43 999
44 338
45 312
47 74
48 3
49 38
50 13
51 167
52 88
53 314
54 393
55 952
56 491
57 862
58 290
59 485
60 170
61 334
62 89
63 47
64 1
65 137
66 111
67 582
68 492
69 827
70 406
71 651
72 278
73 250
74 867
75 584
76 106
77 210
78 29
79 182
80 213
81 658
82 554
83 608
84 354
85 480
86 138
87 445
88 116
89 225
90 145
91 171
92 22
93 198
94 201
95 688
96 554
97 542
98 315
99 293
100 246
101 359
102 160
103 284
104 139
105 87
106 18
107 43
108 99
109 353
110 378
111 343
112 132
113 281
114 112
115 260
116 273
117 564
118 167
119 63
120 12
121 89
122 12
123 217
124 172
125 32
126 39
127 92
128 87
129 230
130 150
131 137
132 75
135 60
136 79
137 103
138 181
139 123
140 12
141 138
143 67
144 14
145 56
146 99
151 119
152 180
153 58
154 33
155 40
157 145
159 265
160 71
165 82
166 150
167 95
168 183
169 240
170 58
171 52
173 154
178 21
179 136
180 214
181 157
183 80
184 64
186 45
187 15
192 11
193 261
194 472
195 473
196 14
207 14
208 137
210 44
211 141
212 27
213 237
214 122
227 107
234 41
235 29
236 359
237 246
255 158
256 47
267 20
268 332
269 74
271 36
286 76
287 13

$$$$

     RDKit          2D

 20 20  0  0  0  0  0  0  0  0999 V2000
   -2.1228   -3.2744    0.0000 C   0  0  0  0  0  0  0  0  0  0  0  0
    5.6719   -0.2748    0.0000 C   0  0  0  0  0  0  0  0  0  0  0  0
    3.0733    4.2262    0.0000 C   0  0  0  0  0  0  0  0  0  0  0  0
    5.6715    1.2256    0.0000 C   0  0  0  0  0  0  0  0  0  0  0  0
   -2.8735    2.5249    0.0000 C   0  0  0  0  0  0  0  0  0  0  0  0
    1.7748   -1.0252    0.0000 C   0  0  0  0  0  0  0  0  0  0  0  0
   -0.8237   -1.0244    0.0000 C   0  0  0  0  0  0  0  0  0  0  0  0
   -0.8243    1.9762    0.0000 C   0  0  0  0  0  0  0  0  0  0  0  0
    0.4753   -0.2744    0.0000 C   0  0  0  0  0  0  0  0  0  0  0  0
    0.4748    1.2264    0.0000 C   0  0  0  0  0  0  0  0  0  0  0  0
    3.0739   -0.2752    0.0000 C   0  0  0  0  0  0  0  0  0  0  0  0
    1.7739    1.9764    0.0000 C   0  0  0  0  0  0  0  0  0  0  0  0
    3.0734    1.2256    0.0000 C   0  0  0  0  0  0  0  0  0  0  0  0
   -3.4222    0.4758    0.0000 O   0  0  0  0  0  0  0  0  0  0  0  0
   -1.3730   -0.0729    0.0000 O   0  0  0  0  0  0  0  0  0  0  0  0
   -0.8237   -2.5244    0.0000 O   0  0  0  0  0  0  0  0  0  0  0  0
    4.3730   -1.0250    0.0000 O   0  0  0  0  0  0  0  0  0  0  0  0
    1.7741    3.4764    0.0000 O   0  0  0  0  0  0  0  0  0  0  0  0
    4.3724    1.9756    0.0000 O   0  0  0  0  0  0  0  0  0  0  0  0
   -2.1233    1.2260    0.0000 S   0  0  0  0  0  0  0  0  0  0  0  0
  9  6  2  0
  9  7  1  0
 10  8  1  0
 10  9  1  0
 11  6  1  0
 12 10  2  0
 13 11  2  0
 13 12  1  0
 16  1  1  0
 16  7  1  0
 17  2  1  0
 17 11  1  0
 18  3  1  0
 18 12  1  0
 19  4  1  0
 19 13  1  0
 20  5  1  0
 20  8  1  0
 20 14  2  0
 20 15  2  0
M  END
>  <NAME>  (3415) 
3,4,5-TRIMETHOXY-2-METHYLSULFONYLMETHYLBENZYL METHYL ETHER

>  <SYNONYMS>  (3415) 


>  <SPECTRUM TYPE>  (3415) 
MS1

>  <INSTRUMENT TYPE>  (3415) 
EI-B

>  <INSTRUMENT>  (3415) 
JEOL JMS-D-300

>  <ION MODE>  (3415) 
P

>  <INCHIKEY>  (3415) 
NRHCYHKESJWYNW-UHFFFAOYSA-N

>  <FORMULA>  (3415) 
C13H20O6S

>  <EXACT MASS>  (3415) 
304.09805936

>  <MW>  (3415) 
304

>  <ID>  (3415) 
JP006701

>  <CONTRIBUTOR>  (3415) 
University of Tokyo Team, {Faculty of Engineering, University of Tokyo

>  <COMMENT>  (3415) 
SMILES=COCc(c1)c(CS(C)(=O)=O)c(OC)c(OC)c(OC)1
InChI=InChI=1S/C13H20O6S/c1-16-7-9-6-11(17-2)13(19-4)12(18-3)10(9)8-20(5,14)15/h6H,7-8H2,1-5H3
computed SMILES=O=S(=O)(C)CC1=C(OC)C(OC)=C(OC)C=C1COC
accession=JP006701
date=2016.01.19 (Created 2008.10.21, modified 2011.05.06)
author=MASS SPECTROSCOPY SOC. OF JAPAN (MSSJ)
license=CC BY-NC-SA
exact mass=304.09806
ionization energy=70 eV
ion type=[M]+*
computed spectral entropy=2.420000098928414
computed normalized entropy=0.6605594043940853
SPLASH=splash10-0002-1910000000-e4192428f3c56374649d
submitter=submitter = University of Tokyo Team (Faculty of Engineering, University of Tokyo)
MoNA Rating=3.75

>  <NUM PEAKS>  (3415) 
39

>  <MASS SPECTRAL PEAKS>  (3415) 
39 1.8
45 5.5
51 1.8
57 0.19
65 2.8
77 3.4
78 1.7
79 0.28
90 2
91 3.9
98 3.8
105 0.53
107 3.3
120 2.6
121 2.1
134 0.16
135 2.4
136 1.7
137 2.5
149 0.38
150 5.7
151 5
152 1.9
165 0.34
166 1.5
167 2.6
179 6.7
180 1.37
181 3.7
194 3.8
195 99.99
196 1.24
209 3.8
210 2.8
224 5.9
225 4.87
226 6.6
304 2.3
305 0.4

>  <PREDICTED SPECTRUM>  (3415) 
15 10
33 8
41 22
45 89
51 14
52 3
53 33
59 17
60 26
63 75
64 39
65 175
66 98
77 121
79 158
90 58
91 47
92 21
93 48
107 118
108 34
121 5
135 165
136 32
137 50
139 0
149 4
150 155
151 304
152 135
163 25
165 141
166 175
167 315
178 112
179 381
180 198
181 136
193 227
194 315
195 999
196 320
209 307
210 311
224 410
225 345
226 324
304 143

$$$$

     RDKit          2D

 26 26  0  0  0  0  0  0  0  0999 V2000
   -3.8981    3.7504    0.0000 C   0  0  0  0  0  0  0  0  0  0  0  0
    1.2989   -5.2510    0.0000 C   0  0  0  0  0  0  0  0  0  0  0  0
   -5.1962   -1.5000    0.0000 C   0  0  0  0  0  0  0  0  0  0  0  0
    3.8971    3.7500    0.0000 C   0  0  0  0  0  0  0  0  0  0  0  0
    4.6478   -2.0493    0.0000 C   0  0  0  0  0  0  0  0  0  0  0  0
   -0.0005    1.5008    0.0000 C   0  0  0  0  0  0  0  0  0  0  0  0
    2.5981    1.5000    0.0000 C   0  0  0  0  0  0  0  0  0  0  0  0
    2.5987   -1.5006    0.0000 C   0  0  0  0  0  0  0  0  0  0  0  0
   -2.5989    3.0006    0.0000 C   0  0  0  0  0  0  0  0  0  0  0  0
    1.2992   -3.7510    0.0000 C   0  0  0  0  0  0  0  0  0  0  0  0
   -3.8971   -0.7500    0.0000 C   0  0  0  0  0  0  0  0  0  0  0  0
    1.2990    0.7500    0.0000 C   0  0  0  0  0  0  0  0  0  0  0  0
    1.2995   -0.7508    0.0000 C   0  0  0  0  0  0  0  0  0  0  0  0
   -1.2995    0.7508    0.0000 C   0  0  0  0  0  0  0  0  0  0  0  0
    0.0005   -1.5008    0.0000 C   0  0  0  0  0  0  0  0  0  0  0  0
   -1.2990   -0.7500    0.0000 C   0  0  0  0  0  0  0  0  0  0  0  0
   -1.3000    3.7508    0.0000 O   0  0  0  0  0  0  0  0  0  0  0  0
    2.5983   -3.0012    0.0000 O   0  0  0  0  0  0  0  0  0  0  0  0
   -3.8971    0.7500    0.0000 O   0  0  0  0  0  0  0  0  0  0  0  0
    5.1965   -0.0002    0.0000 O   0  0  0  0  0  0  0  0  0  0  0  0
    3.1474    0.5485    0.0000 O   0  0  0  0  0  0  0  0  0  0  0  0
    2.5981    3.0000    0.0000 O   0  0  0  0  0  0  0  0  0  0  0  0
   -2.5987    1.5006    0.0000 O   0  0  0  0  0  0  0  0  0  0  0  0
    0.0002   -3.0008    0.0000 O   0  0  0  0  0  0  0  0  0  0  0  0
   -2.5981   -1.5000    0.0000 O   0  0  0  0  0  0  0  0  0  0  0  0
    3.8976   -0.7504    0.0000 S   0  0  0  0  0  0  0  0  0  0  0  0
  9  1  1  0
 10  2  1  0
 11  3  1  0
 12  6  2  0
 12  7  1  0
 13  8  1  0
 13 12  1  0
 14  6  1  0
 15 13  2  0
 16 14  2  0
 16 15  1  0
 17  9  2  0
 18 10  2  0
 19 11  2  0
 22  4  1  0
 22  7  1  0
 23  9  1  0
 23 14  1  0
 24 10  1  0
 24 15  1  0
 25 11  1  0
 25 16  1  0
 26  5  1  0
 26  8  1  0
 26 20  2  0
 26 21  2  0
M  END
>  <NAME>  (3416) 
2-METHYLSULFONYLMETHYL-3,4,5-TRIACETOXYBENZYL METHYL ETHER

>  <SYNONYMS>  (3416) 


>  <SPECTRUM TYPE>  (3416) 
MS1

>  <INSTRUMENT TYPE>  (3416) 
EI-B

>  <INSTRUMENT>  (3416) 
JEOL JMS-D-300

>  <ION MODE>  (3416) 
P

>  <INCHIKEY>  (3416) 
CHKJWAVWUXAAQN-UHFFFAOYSA-N

>  <FORMULA>  (3416) 
C16H20O9S

>  <EXACT MASS>  (3416) 
388.08280321999996

>  <MW>  (3416) 
388

>  <ID>  (3416) 
JP006699

>  <CONTRIBUTOR>  (3416) 
University of Tokyo Team, {Faculty of Engineering, University of Tokyo

>  <COMMENT>  (3416) 
SMILES=COCc(c1)c(CS(C)(=O)=O)c(OC(C)=O)c(OC(C)=O)c(OC(C)=O)1
InChI=InChI=1S/C16H20O9S/c1-9(17)23-14-6-12(7-22-4)13(8-26(5,20)21)15(24-10(2)18)16(14)25-11(3)19/h6H,7-8H2,1-5H3
computed SMILES=O=C(OC=1C=C(C(=C(OC(=O)C)C1OC(=O)C)CS(=O)(=O)C)COC)C
accession=JP006699
date=2016.01.19 (Created 2008.10.21, modified 2011.05.06)
author=MASS SPECTROSCOPY SOC. OF JAPAN (MSSJ)
license=CC BY-NC-SA
exact mass=388.0828
ionization energy=70 eV
ion type=[M]+*
computed spectral entropy=2.6140486672182126
computed normalized entropy=0.7086294631566115
SPLASH=splash10-016u-6981000000-fd4607f1a96ac84e6d36
submitter=submitter = University of Tokyo Team (Faculty of Engineering, University of Tokyo)
MoNA Rating=3.75

>  <NUM PEAKS>  (3416) 
40

>  <MASS SPECTRAL PEAKS>  (3416) 
43 99.99
44 2.5
65 4
77 0.3
79 2
81 2
93 3
94 0.2
107 3
108 2
122 3.5
123 0.4
137 12
138 2
152 4
153 0.8
165 91.5
166 16
181 11
182 1.9
183 7
201 10
202 19
203 0.7
206 2
207 15
208 3
224 3
225 65.5
226 2
245 2.5
267 3.4
268 5
287 10.5
288 2
307 0.3
308 3.5
346 12
347 1.8
388 3.5

>  <PREDICTED SPECTRUM>  (3416) 
15 27
39 36
41 68
42 227
43 999
44 149
45 58
51 101
52 116
53 146
55 101
57 98
59 186
60 76
63 56
64 116
65 224
66 82
67 24
69 68
71 4
77 83
78 54
79 101
80 59
81 90
91 80
92 129
93 147
94 125
95 14
97 9
99 44
105 61
107 24
109 102
110 134
111 80
117 10
121 101
123 395
125 47
126 80
133 16
135 92
136 46
139 253
140 117
149 33
151 45
153 100
163 6
167 72
184 40
195 18
202 29
244 180
245 266
246 78
261 14
262 186
273 124
274 60
287 51
304 874
305 273
306 57
346 258
347 110
388 193
389 34

$$$$

     RDKit          2D

 17 17  0  0  0  0  0  0  0  0999 V2000
   -1.2990    5.2500    0.0000 C   0  0  0  0  0  0  0  0  0  0  0  0
    3.1483   -0.5487    0.0000 C   0  0  0  0  0  0  0  0  0  0  0  0
   -1.3000    0.7500    0.0000 C   0  0  0  0  0  0  0  0  0  0  0  0
    0.0000    3.0000    0.0000 C   0  0  0  0  0  0  0  0  0  0  0  0
    2.5989    1.5002    0.0000 C   0  0  0  0  0  0  0  0  0  0  0  0
   -0.0000    1.5000    0.0000 C   0  0  0  0  0  0  0  0  0  0  0  0
    1.3000    0.7500    0.0000 C   0  0  0  0  0  0  0  0  0  0  0  0
   -1.3000   -0.7500    0.0000 C   0  0  0  0  0  0  0  0  0  0  0  0
    1.3000   -0.7500    0.0000 C   0  0  0  0  0  0  0  0  0  0  0  0
   -0.0000   -1.5000    0.0000 C   0  0  0  0  0  0  0  0  0  0  0  0
   -2.5989   -1.5002    0.0000 O   0  0  0  0  0  0  0  0  0  0  0  0
    2.5989   -1.5002    0.0000 O   0  0  0  0  0  0  0  0  0  0  0  0
   -0.0000   -3.0000    0.0000 O   0  0  0  0  0  0  0  0  0  0  0  0
    5.1972    0.0006    0.0000 O   0  0  0  0  0  0  0  0  0  0  0  0
    4.6479    2.0496    0.0000 O   0  0  0  0  0  0  0  0  0  0  0  0
   -1.2990    3.7500    0.0000 O   0  0  0  0  0  0  0  0  0  0  0  0
    3.8981    0.7504    0.0000 S   0  0  0  0  0  0  0  0  0  0  0  0
  6  3  2  0
  6  4  1  0
  7  5  1  0
  7  6  1  0
  8  3  1  0
  9  7  2  0
 10  8  2  0
 10  9  1  0
 11  8  1  0
 12  9  1  0
 13 10  1  0
 16  1  1  0
 16  4  1  0
 17  2  1  0
 17  5  1  0
 17 14  2  0
 17 15  2  0
M  END
>  <NAME>  (3417) 
2-METHYLSULFONYLMETHYL-3,4,5-TRIHYDROXYBENZYL METHYL ETHER

>  <SYNONYMS>  (3417) 


>  <SPECTRUM TYPE>  (3417) 
MS1

>  <INSTRUMENT TYPE>  (3417) 
EI-B

>  <INSTRUMENT>  (3417) 
JEOL JMS-D-300

>  <ION MODE>  (3417) 
P

>  <INCHIKEY>  (3417) 
XUKVXIFSYPSVIJ-UHFFFAOYSA-N

>  <FORMULA>  (3417) 
C10H14O6S

>  <EXACT MASS>  (3417) 
262.051109168

>  <MW>  (3417) 
262

>  <ID>  (3417) 
JP006697

>  <CONTRIBUTOR>  (3417) 
University of Tokyo Team, {Faculty of Engineering, University of Tokyo

>  <COMMENT>  (3417) 
SMILES=COCc(c1)c(CS(C)(=O)=O)c(O)c(O)c(O)1
InChI=InChI=1S/C10H14O6S/c1-16-4-6-3-8(11)10(13)9(12)7(6)5-17(2,14)15/h3,11-13H,4-5H2,1-2H3
computed SMILES=O=S(=O)(C)CC1=C(O)C(O)=C(O)C=C1COC
accession=JP006697
date=2016.01.19 (Created 2008.10.21, modified 2011.05.06)
author=MASS SPECTROSCOPY SOC. OF JAPAN (MSSJ)
license=CC BY-NC-SA
exact mass=262.05111
ionization energy=70 eV
ion type=[M]+*
computed spectral entropy=2.7852930173195687
computed normalized entropy=0.6982462162811984
SPLASH=splash10-0159-9500000000-ff8ffe0b2cdfa8a4dd7e
submitter=submitter = University of Tokyo Team (Faculty of Engineering, University of Tokyo)
MoNA Rating=3.75

>  <NUM PEAKS>  (3417) 
54

>  <MASS SPECTRAL PEAKS>  (3417) 
52 5.5
53 3.1
54 5
56 0.5
62 1.8
63 37.5
64 4.1
65 99.99
66 5
67 5.5
69 1.8
77 0.4
78 2
79 4
80 38
81 0.31
82 2.8
83 1.5
93 2.5
94 0.35
95 6
106 2
107 2.8
111 0.45
120 1.5
121 2
122 4
123 1.1
124 1
125 1.5
136 1.3
137 1.85
138 3.5
139 5.2
140 2
147 0.17
149 1.5
151 1.5
152 1.5
153 0.51
154 1
164 4.2
165 29
166 0.52
167 3.9
168 4.1
181 2.5
182 0.81
183 54.5
184 5.2
190 1.1
192 0.11
262 5.8
263 0.9

>  <PREDICTED SPECTRUM>  (3417) 
27 61
31 6
33 17
36 15
38 51
39 254
40 57
41 124
44 5
45 89
48 57
49 13
50 92
51 240
52 201
53 252
54 68
55 6
62 76
63 315
64 187
65 418
66 285
67 280
68 3
69 104
77 151
78 208
79 315
80 365
81 179
82 56
83 87
90 113
91 54
92 197
93 247
94 138
95 145
96 106
97 55
105 101
106 33
108 86
109 39
110 63
111 40
121 131
122 258
123 283
124 159
125 271
136 51
137 337
138 177
139 106
151 248
152 160
153 371
154 184
164 23
165 798
167 155
168 194
181 227
182 361
183 999
184 522
262 362
263 49

$$$$

     RDKit          2D

 18 18  0  0  0  0  0  0  0  0999 V2000
   -2.2736   -3.1873    0.0000 C   0  0  0  0  0  0  0  0  0  0  0  0
    5.5211   -0.1878    0.0000 C   0  0  0  0  0  0  0  0  0  0  0  0
    2.9224    4.3133    0.0000 C   0  0  0  0  0  0  0  0  0  0  0  0
    5.5206    1.3127    0.0000 C   0  0  0  0  0  0  0  0  0  0  0  0
   -3.5732    2.0629    0.0000 C   0  0  0  0  0  0  0  0  0  0  0  0
    1.6240   -0.9382    0.0000 C   0  0  0  0  0  0  0  0  0  0  0  0
   -0.9745   -0.9373    0.0000 C   0  0  0  0  0  0  0  0  0  0  0  0
   -0.9752    2.0633    0.0000 C   0  0  0  0  0  0  0  0  0  0  0  0
    0.3245   -0.1873    0.0000 C   0  0  0  0  0  0  0  0  0  0  0  0
    0.3240    1.3135    0.0000 C   0  0  0  0  0  0  0  0  0  0  0  0
    2.9230   -0.1882    0.0000 C   0  0  0  0  0  0  0  0  0  0  0  0
    1.6230    2.0635    0.0000 C   0  0  0  0  0  0  0  0  0  0  0  0
    2.9226    1.3127    0.0000 C   0  0  0  0  0  0  0  0  0  0  0  0
   -0.9745   -2.4373    0.0000 O   0  0  0  0  0  0  0  0  0  0  0  0
    4.2222   -0.9380    0.0000 O   0  0  0  0  0  0  0  0  0  0  0  0
    1.6233    3.5635    0.0000 O   0  0  0  0  0  0  0  0  0  0  0  0
    4.2216    2.0627    0.0000 O   0  0  0  0  0  0  0  0  0  0  0  0
   -2.2741    1.3131    0.0000 S   0  0  0  0  0  0  0  0  0  0  0  0
  9  6  2  0
  9  7  1  0
 10  8  1  0
 10  9  1  0
 11  6  1  0
 12 10  2  0
 13 11  2  0
 13 12  1  0
 14  1  1  0
 14  7  1  0
 15  2  1  0
 15 11  1  0
 16  3  1  0
 16 12  1  0
 17  4  1  0
 17 13  1  0
 18  5  1  0
 18  8  1  0
M  END
>  <NAME>  (3418) 
6-METHOXYMETHYL-2,3,4-TRIMETHOXYBENZYL METHYL SULFIDE

>  <SYNONYMS>  (3418) 
3,4,5-TRIMETHOXY-2-METHYLTHIOMETHYLBENZYLMETHYL ETHER

>  <SPECTRUM TYPE>  (3418) 
MS1

>  <INSTRUMENT TYPE>  (3418) 
EI-B

>  <INSTRUMENT>  (3418) 
JEOL JMS-D-300

>  <ION MODE>  (3418) 
P

>  <INCHIKEY>  (3418) 
GZJAMAMUGPOLDU-UHFFFAOYSA-N

>  <FORMULA>  (3418) 
C13H20O4S

>  <EXACT MASS>  (3418) 
272.10823012000003

>  <MW>  (3418) 
272

>  <ID>  (3418) 
JP006695

>  <CONTRIBUTOR>  (3418) 
University of Tokyo Team, {Faculty of Engineering, University of Tokyo

>  <COMMENT>  (3418) 
SMILES=COCc(c1)c(CSC)c(OC)c(OC)c(OC)1
InChI=InChI=1S/C13H20O4S/c1-14-7-9-6-11(15-2)13(17-4)12(16-3)10(9)8-18-5/h6H,7-8H2,1-5H3
computed SMILES=O(C=1C=C(C(=C(OC)C1OC)CSC)COC)C
accession=JP006695
date=2016.01.19 (Created 2008.10.21, modified 2011.05.06)
author=MASS SPECTROSCOPY SOC. OF JAPAN (MSSJ)
license=CC BY-NC-SA
exact mass=272.10823
ionization energy=70 eV
ion type=[M]+*
computed spectral entropy=2.3535864067022714
computed normalized entropy=0.6791014874506084
SPLASH=splash10-0002-1920000000-eec777a4eb7c79ade48b
submitter=submitter = University of Tokyo Team (Faculty of Engineering, University of Tokyo)
MoNA Rating=3.75

>  <NUM PEAKS>  (3418) 
32

>  <MASS SPECTRAL PEAKS>  (3418) 
53 2.5
54 2.4
58 2.2
63 0.25
65 3.4
77 3.7
78 2.1
79 0.26
91 3.4
105 3.4
107 3.7
120 0.25
121 2.3
135 2.7
136 2
137 0.33
149 4.1
150 4.3
151 5.1
165 0.35
167 2.8
179 7
180 8.2
181 0.56
194 5.6
195 99.99
196 12
209 0.66
210 3.5
224 9.7
225 32.7
226 5.1

>  <PREDICTED SPECTRUM>  (3418) 
27 5
29 2
33 7
34 3
39 125
41 71
45 300
50 55
51 171
52 97
53 186
55 24
58 29
63 98
65 158
66 47
69 79
71 3
73 22
74 21
75 143
76 38
77 242
78 133
89 46
90 31
91 112
92 41
93 27
95 21
102 21
103 90
104 75
105 32
112 11
118 1
119 190
120 77
121 240
122 15
123 97
124 161
125 70
126 74
127 31
129 42
135 94
137 35
138 9
147 140
150 94
151 150
152 134
153 6
154 16
163 112
164 56
165 109
166 49
167 224
168 259
169 29
177 177
178 158
179 197
180 216
181 143
182 284
183 12
193 237
194 227
195 567
196 358
197 279
208 67
209 615
210 767
211 385
224 24
225 999
226 538
227 256
228 92
240 235
241 199
272 279
273 10

$$$$

     RDKit          2D

 17 17  0  0  0  0  0  0  0  0999 V2000
    4.8721   -1.3127    0.0000 C   0  0  0  0  0  0  0  0  0  0  0  0
   -0.3246    3.1888    0.0000 C   0  0  0  0  0  0  0  0  0  0  0  0
    4.8717    0.1878    0.0000 C   0  0  0  0  0  0  0  0  0  0  0  0
   -4.2222    0.9380    0.0000 C   0  0  0  0  0  0  0  0  0  0  0  0
    0.9750   -2.0631    0.0000 C   0  0  0  0  0  0  0  0  0  0  0  0
   -1.6235   -2.0622    0.0000 C   0  0  0  0  0  0  0  0  0  0  0  0
   -1.6241    0.9384    0.0000 C   0  0  0  0  0  0  0  0  0  0  0  0
   -0.3245   -1.3122    0.0000 C   0  0  0  0  0  0  0  0  0  0  0  0
   -0.3250    0.1886    0.0000 C   0  0  0  0  0  0  0  0  0  0  0  0
    2.2741   -1.3131    0.0000 C   0  0  0  0  0  0  0  0  0  0  0  0
    0.9741    0.9386    0.0000 C   0  0  0  0  0  0  0  0  0  0  0  0
    2.2736    0.1878    0.0000 C   0  0  0  0  0  0  0  0  0  0  0  0
   -1.6235   -3.5622    0.0000 O   0  0  0  0  0  0  0  0  0  0  0  0
    3.5732   -2.0629    0.0000 O   0  0  0  0  0  0  0  0  0  0  0  0
    0.9743    2.4386    0.0000 O   0  0  0  0  0  0  0  0  0  0  0  0
    3.5726    0.9378    0.0000 O   0  0  0  0  0  0  0  0  0  0  0  0
   -2.9230    0.1882    0.0000 S   0  0  0  0  0  0  0  0  0  0  0  0
  8  5  2  0
  8  6  1  0
  9  7  1  0
  9  8  1  0
 10  5  1  0
 11  9  2  0
 12 10  2  0
 12 11  1  0
 13  6  1  0
 14  1  1  0
 14 10  1  0
 15  2  1  0
 15 11  1  0
 16  3  1  0
 16 12  1  0
 17  4  1  0
 17  7  1  0
M  END
>  <NAME>  (3419) 
3,4,5-TRIMETHOXY-2-METHYLTHIOMETHYLBENZYLALCOHOL

>  <SYNONYMS>  (3419) 


>  <SPECTRUM TYPE>  (3419) 
MS1

>  <INSTRUMENT TYPE>  (3419) 
EI-B

>  <INSTRUMENT>  (3419) 
JEOL JMS-D-300

>  <ION MODE>  (3419) 
P

>  <INCHIKEY>  (3419) 
MXRWOBWNOFESSY-UHFFFAOYSA-N

>  <FORMULA>  (3419) 
C12H18O4S

>  <EXACT MASS>  (3419) 
258.092580056

>  <MW>  (3419) 
258

>  <ID>  (3419) 
JP006694

>  <CONTRIBUTOR>  (3419) 
University of Tokyo Team, {Faculty of Engineering, University of Tokyo

>  <COMMENT>  (3419) 
SMILES=CSCc(c(CO)1)c(OC)c(OC)c(OC)c1
InChI=InChI=1S/C12H18O4S/c1-14-10-5-8(6-13)9(7-17-4)11(15-2)12(10)16-3/h5,13H,6-7H2,1-4H3
computed SMILES=OCC1=CC(OC)=C(OC)C(OC)=C1CSC
accession=JP006694
date=2016.01.19 (Created 2008.10.21, modified 2011.05.06)
author=MASS SPECTROSCOPY SOC. OF JAPAN (MSSJ)
license=CC BY-NC-SA
exact mass=258.09258
ionization energy=70 eV
ion type=[M]+*
computed spectral entropy=2.8234540775926065
computed normalized entropy=0.7078128276859009
SPLASH=splash10-03di-1590000000-184d503dd5a646420af7
submitter=submitter = University of Tokyo Team (Faculty of Engineering, University of Tokyo)
MoNA Rating=3.75

>  <NUM PEAKS>  (3419) 
54

>  <MASS SPECTRAL PEAKS>  (3419) 
39 3.4
41 2.4
43 2.7
45 0.2
51 3.2
53 3.6
61 6.9
65 0.43
67 2.1
77 4.9
79 4
91 0.54
93 2.1
95 2.1
105 3.6
107 0.47
108 2.4
109 4.1
121 4.5
123 0.37
125 2.5
135 2.4
136 4.3
137 0.66
138 2.7
139 2.2
141 2.3
148 0.24
149 3.1
150 2.9
151 7.9
152 1.56
153 6.9
165 2.9
166 7
167 0.65
168 9.2
169 2.3
178 4
179 0.57
181 14.4
182 2.1
183 4.6
194 0.37
195 9.5
196 22
197 3.8
209 0.33
210 89.5
211 99.99
212 26
213 0.34
258 3.3
259 0.5

>  <PREDICTED SPECTRUM>  (3419) 
32 7
39 109
40 15
41 61
42 18
43 63
44 22
45 6
47 0
48 1
50 15
51 99
52 17
53 88
55 84
61 123
62 19
63 109
65 113
66 29
67 14
76 2
77 207
78 73
79 75
81 13
82 45
89 19
90 15
91 28
93 52
94 12
104 114
105 79
106 54
109 23
110 71
120 2
121 125
123 63
124 6
125 40
126 27
131 47
136 106
137 114
138 63
139 64
141 5
142 15
149 80
150 77
151 102
152 38
153 114
154 74
156 18
165 103
166 158
167 62
168 427
169 246
178 2
179 56
180 38
181 256
182 207
183 122
195 319
196 446
197 175
209 85
210 594
211 999
212 347
213 35
226 33
258 256
259 45
260 7

$$$$

     RDKit          2D

 15 15  0  0  0  0  0  0  0  0999 V2000
   -4.2218    1.6124    0.0000 C   0  0  0  0  0  0  0  0  0  0  0  0
    2.2732   -3.6382    0.0000 C   0  0  0  0  0  0  0  0  0  0  0  0
    3.5732    3.1131    0.0000 C   0  0  0  0  0  0  0  0  0  0  0  0
    4.8714   -0.6376    0.0000 C   0  0  0  0  0  0  0  0  0  0  0  0
   -0.3252   -0.6384    0.0000 C   0  0  0  0  0  0  0  0  0  0  0  0
    0.9748    1.6133    0.0000 C   0  0  0  0  0  0  0  0  0  0  0  0
   -1.6238    1.6124    0.0000 C   0  0  0  0  0  0  0  0  0  0  0  0
   -0.3247    0.8624    0.0000 C   0  0  0  0  0  0  0  0  0  0  0  0
    0.9738   -1.3884    0.0000 C   0  0  0  0  0  0  0  0  0  0  0  0
    2.2738    0.8633    0.0000 C   0  0  0  0  0  0  0  0  0  0  0  0
    2.2733   -0.6376    0.0000 C   0  0  0  0  0  0  0  0  0  0  0  0
   -2.9228    0.8624    0.0000 O   0  0  0  0  0  0  0  0  0  0  0  0
    0.9741   -2.8884    0.0000 O   0  0  0  0  0  0  0  0  0  0  0  0
    3.5730    1.6131    0.0000 O   0  0  0  0  0  0  0  0  0  0  0  0
    3.5724   -1.3876    0.0000 O   0  0  0  0  0  0  0  0  0  0  0  0
  8  5  2  0
  8  6  1  0
  8  7  1  0
  9  5  1  0
 10  6  2  0
 11  9  2  0
 11 10  1  0
 12  1  1  0
 12  7  1  0
 13  2  1  0
 13  9  1  0
 14  3  1  0
 14 10  1  0
 15  4  1  0
 15 11  1  0
M  END
>  <NAME>  (3420) 
3,4,5-TRIMETHOXYBENZYL METHYL ETHER

>  <SYNONYMS>  (3420) 


>  <SPECTRUM TYPE>  (3420) 
MS1

>  <INSTRUMENT TYPE>  (3420) 
EI-B

>  <INSTRUMENT>  (3420) 
JEOL JMS-D-300

>  <ION MODE>  (3420) 
P

>  <INCHIKEY>  (3420) 
MRSLZYLPFVSLDY-UHFFFAOYSA-N

>  <FORMULA>  (3420) 
C11H16O4

>  <EXACT MASS>  (3420) 
212.104858992

>  <MW>  (3420) 
212

>  <ID>  (3420) 
JP006693

>  <CONTRIBUTOR>  (3420) 
University of Tokyo Team, {Faculty of Engineering, University of Tokyo

>  <COMMENT>  (3420) 
SMILES=COCc(c1)cc(OC)c(OC)c(OC)1
InChI=InChI=1S/C11H16O4/c1-12-7-8-5-9(13-2)11(15-4)10(6-8)14-3/h5-6H,7H2,1-4H3
computed SMILES=O(C=1C=C(C=C(OC)C1OC)COC)C
accession=JP006693
date=2016.01.19 (Created 2008.10.21, modified 2011.05.06)
author=MASS SPECTROSCOPY SOC. OF JAPAN (MSSJ)
license=CC BY-NC-SA
exact mass=212.10486
ionization energy=70 eV
ion type=[M]+*
computed spectral entropy=3.613682422263697
computed normalized entropy=0.8200391764252094
SPLASH=splash10-03di-5950000000-8904ad44e05dd5d8f487
submitter=submitter = University of Tokyo Team (Faculty of Engineering, University of Tokyo)
MoNA Rating=3.75

>  <NUM PEAKS>  (3420) 
82

>  <MASS SPECTRAL PEAKS>  (3420) 
40 1.8
41 5.6
43 4.4
45 1.93
50 4.2
51 10.1
52 10.3
53 0.6
55 3.7
57 1.4
59 3.7
62 0.21
63 5.2
64 3.9
65 8.6
66 0.41
67 3.5
68 4.2
69 2.4
71 0.27
73 2.3
75 5.2
76 2.2
77 1.08
78 5.2
79 6.2
80 4.6
81 0.33
83 3.6
89 3.5
90 2.9
91 0.46
92 3.1
93 4.4
94 2.7
95 0.97
96 2.3
105 3.6
106 5
107 0.48
108 2.9
109 5.6
110 2.4
111 0.78
120 2.7
121 4.2
122 3.7
123 0.72
124 3.1
125 3.9
126 2.8
135 0.32
136 8.3
137 7
138 22.3
139 1.3
140 1.4
148 10.9
149 2
150 0.16
151 11.7
152 2.7
153 2.3
154 1.27
155 1.7
165 4.8
166 4.1
167 1.18
168 1.8
169 19.6
170 1.9
181 9.98
182 28.7
183 3.7
195 1.4
196 0.36
197 15.9
198 1.9
211 7.3
212 99.99
213 12.8
214 1.7

>  <PREDICTED SPECTRUM>  (3420) 
15 50
29 4
33 3
34 3
37 75
38 138
39 231
40 83
41 148
42 56
43 177
44 78
45 378
46 8
47 56
48 0
49 89
50 249
51 376
52 260
53 373
54 151
55 276
56 59
57 87
58 33
59 141
60 5
61 47
62 157
63 265
64 191
65 369
66 302
67 218
68 124
69 281
70 60
71 94
72 13
73 22
74 65
75 168
76 193
77 467
78 284
79 285
80 191
81 239
82 159
83 96
84 84
85 111
86 80
87 51
88 11
89 30
90 40
91 209
92 196
93 275
94 172
95 237
96 109
97 156
98 72
99 35
101 25
102 49
103 10
104 82
105 213
106 223
107 369
108 245
109 278
110 153
111 226
112 117
113 121
115 31
116 30
117 47
118 39
119 199
120 262
121 338
122 311
123 287
124 157
125 146
126 109
127 52
129 44
130 62
133 91
134 122
135 282
136 394
137 482
138 237
139 294
140 73
141 74
148 19
149 222
150 294
151 452
152 164
153 166
154 221
155 103
163 29
165 315
166 285
167 251
168 144
169 319
170 91
179 54
180 105
181 943
182 460
183 67
195 63
196 86
197 541
198 152
199 5
211 104
212 999
213 338
214 88

$$$$

     RDKit          2D

 21 21  0  0  0  0  0  0  0  0999 V2000
    1.2989    5.5510    0.0000 C   0  0  0  0  0  0  0  0  0  0  0  0
   -3.8981   -3.4504    0.0000 C   0  0  0  0  0  0  0  0  0  0  0  0
   -3.8971    4.0500    0.0000 C   0  0  0  0  0  0  0  0  0  0  0  0
    5.1962   -1.2000    0.0000 C   0  0  0  0  0  0  0  0  0  0  0  0
    1.2995    1.0508    0.0000 C   0  0  0  0  0  0  0  0  0  0  0  0
   -0.0005   -1.2008    0.0000 C   0  0  0  0  0  0  0  0  0  0  0  0
    2.5981   -1.2000    0.0000 C   0  0  0  0  0  0  0  0  0  0  0  0
    1.2992    4.0510    0.0000 C   0  0  0  0  0  0  0  0  0  0  0  0
   -2.5989   -2.7006    0.0000 C   0  0  0  0  0  0  0  0  0  0  0  0
   -2.5981    3.3000    0.0000 C   0  0  0  0  0  0  0  0  0  0  0  0
    1.2990   -0.4500    0.0000 C   0  0  0  0  0  0  0  0  0  0  0  0
    0.0005    1.8008    0.0000 C   0  0  0  0  0  0  0  0  0  0  0  0
   -1.2995   -0.4508    0.0000 C   0  0  0  0  0  0  0  0  0  0  0  0
   -1.2990    1.0500    0.0000 C   0  0  0  0  0  0  0  0  0  0  0  0
    2.5983    3.3012    0.0000 O   0  0  0  0  0  0  0  0  0  0  0  0
   -1.3000   -3.4508    0.0000 O   0  0  0  0  0  0  0  0  0  0  0  0
   -1.2990    4.0500    0.0000 O   0  0  0  0  0  0  0  0  0  0  0  0
    3.8971   -0.4500    0.0000 O   0  0  0  0  0  0  0  0  0  0  0  0
    0.0002    3.3008    0.0000 O   0  0  0  0  0  0  0  0  0  0  0  0
   -2.5987   -1.2006    0.0000 O   0  0  0  0  0  0  0  0  0  0  0  0
   -2.5981    1.8000    0.0000 O   0  0  0  0  0  0  0  0  0  0  0  0
  8  1  1  0
  9  2  1  0
 10  3  1  0
 11  5  2  0
 11  6  1  0
 11  7  1  0
 12  5  1  0
 13  6  2  0
 14 12  2  0
 14 13  1  0
 15  8  2  0
 16  9  2  0
 17 10  2  0
 18  4  1  0
 18  7  1  0
 19  8  1  0
 19 12  1  0
 20  9  1  0
 20 13  1  0
 21 10  1  0
 21 14  1  0
M  END
>  <NAME>  (3421) 
3,4,5-TRIACETOXYBENZYL METHYL ETHER

>  <SYNONYMS>  (3421) 


>  <SPECTRUM TYPE>  (3421) 
MS1

>  <INSTRUMENT TYPE>  (3421) 
EI-B

>  <INSTRUMENT>  (3421) 
JEOL JMS-D-300

>  <ION MODE>  (3421) 
P

>  <INCHIKEY>  (3421) 
CAHWHTZJKRNHIT-UHFFFAOYSA-N

>  <FORMULA>  (3421) 
C14H16O7

>  <EXACT MASS>  (3421) 
296.089602852

>  <MW>  (3421) 
296

>  <ID>  (3421) 
JP006692

>  <CONTRIBUTOR>  (3421) 
University of Tokyo Team, {Faculty of Engineering, University of Tokyo

>  <COMMENT>  (3421) 
SMILES=COCc(c1)cc(OC(C)=O)c(OC(C)=O)c(OC(C)=O)1
InChI=InChI=1S/C14H16O7/c1-8(15)19-12-5-11(7-18-4)6-13(20-9(2)16)14(12)21-10(3)17/h5-6H,7H2,1-4H3
computed SMILES=O=C(OC=1C=C(C=C(OC(=O)C)C1OC(=O)C)COC)C
accession=JP006692
date=2016.01.19 (Created 2008.10.21, modified 2011.05.06)
author=MASS SPECTROSCOPY SOC. OF JAPAN (MSSJ)
license=CC BY-NC-SA
exact mass=296.0896
ionization energy=70 eV
ion type=[M]+*
computed spectral entropy=2.5513285078261894
computed normalized entropy=0.6488915700105443
SPLASH=splash10-01ox-9660000000-fb8981d440068569253d
submitter=submitter = University of Tokyo Team (Faculty of Engineering, University of Tokyo)
MoNA Rating=3.75

>  <NUM PEAKS>  (3421) 
51

>  <MASS SPECTRAL PEAKS>  (3421) 
41 2.6
42 1.4
43 99.99
44 0.22
51 1.7
52 2.4
53 2.3
55 0.16
57 1.4
64 1
65 1.4
66 0.11
67 1.4
69 1.4
78 1
79 0.1
80 1.4
81 4.4
95 1.9
97 0.11
106 1.9
109 4.1
110 2.5
122 0.12
123 2.5
124 5.8
125 1.4
126 0.11
127 1.3
138 3.1
139 1.2
141 0.43
151 5.2
152 5
153 15.5
154 0.17
155 3.1
168 1.2
169 13.7
170 7.84
171 6.8
194 1.1
195 2.3
211 0.16
212 70.6
213 7.3
214 1.1
254 2.37
255 2.9
296 5.8
297 1

>  <PREDICTED SPECTRUM>  (3421) 
14 51
15 127
27 21
28 13
29 75
37 13
38 91
39 202
40 81
41 174
42 237
43 986
44 202
45 147
49 8
50 64
51 157
52 106
53 151
54 66
55 102
57 118
58 8
59 75
60 117
62 17
63 71
64 99
65 103
66 112
67 119
68 54
69 70
71 119
73 3
75 67
77 94
78 39
79 146
80 72
81 174
82 73
83 35
85 18
86 44
92 10
93 9
94 18
95 179
96 132
97 237
98 29
99 35
109 98
110 208
111 183
112 37
123 307
124 250
125 129
126 19
127 0
128 43
139 69
140 39
141 69
151 265
152 379
153 419
154 194
155 63
156 95
169 466
170 765
171 354
172 56
184 7
194 94
195 110
197 6
212 999
213 382
214 36
236 15
237 31
238 18
254 306
255 196
296 273
297 88

$$$$

     RDKit          2D

 12 12  0  0  0  0  0  0  0  0999 V2000
   -4.2219    2.3625    0.0000 C   0  0  0  0  0  0  0  0  0  0  0  0
   -0.3252    0.1117    0.0000 C   0  0  0  0  0  0  0  0  0  0  0  0
    0.9748    2.3633    0.0000 C   0  0  0  0  0  0  0  0  0  0  0  0
   -1.6238    2.3625    0.0000 C   0  0  0  0  0  0  0  0  0  0  0  0
   -0.3248    1.6125    0.0000 C   0  0  0  0  0  0  0  0  0  0  0  0
    0.9738   -0.6383    0.0000 C   0  0  0  0  0  0  0  0  0  0  0  0
    2.2738    1.6133    0.0000 C   0  0  0  0  0  0  0  0  0  0  0  0
    2.2733    0.1125    0.0000 C   0  0  0  0  0  0  0  0  0  0  0  0
    0.9740   -2.1383    0.0000 O   0  0  0  0  0  0  0  0  0  0  0  0
    3.5730    2.3631    0.0000 O   0  0  0  0  0  0  0  0  0  0  0  0
    3.5724   -0.6375    0.0000 O   0  0  0  0  0  0  0  0  0  0  0  0
   -2.9228    1.6125    0.0000 O   0  0  0  0  0  0  0  0  0  0  0  0
  5  2  2  0
  5  3  1  0
  5  4  1  0
  6  2  1  0
  7  3  2  0
  8  6  2  0
  8  7  1  0
  9  6  1  0
 10  7  1  0
 11  8  1  0
 12  1  1  0
 12  4  1  0
M  END
>  <NAME>  (3422) 
3,4,5-TRIHYDROXYBENZYL METHYL ETHER

>  <SYNONYMS>  (3422) 


>  <SPECTRUM TYPE>  (3422) 
MS1

>  <INSTRUMENT TYPE>  (3422) 
EI-B

>  <INSTRUMENT>  (3422) 
JEOL JMS-D-300

>  <ION MODE>  (3422) 
P

>  <INCHIKEY>  (3422) 
YAXUEWSAEFZPFJ-UHFFFAOYSA-N

>  <FORMULA>  (3422) 
C8H10O4

>  <EXACT MASS>  (3422) 
170.0579088

>  <MW>  (3422) 
170

>  <ID>  (3422) 
JP006689

>  <CONTRIBUTOR>  (3422) 
University of Tokyo Team, {Faculty of Engineering, University of Tokyo

>  <COMMENT>  (3422) 
SMILES=COCc(c1)cc(O)c(O)c(O)1
InChI=InChI=1S/C8H10O4/c1-12-4-5-2-6(9)8(11)7(10)3-5/h2-3,9-11H,4H2,1H3
computed SMILES=OC=1C=C(C=C(O)C1O)COC
accession=JP006689
date=2016.01.19 (Created 2008.10.21, modified 2011.05.06)
author=MASS SPECTROSCOPY SOC. OF JAPAN (MSSJ)
license=CC BY-NC-SA
exact mass=170.05791
ionization energy=70 eV
ion type=[M]+*
computed spectral entropy=3.042035578786557
computed normalized entropy=0.7698931767941428
SPLASH=splash10-05gi-5900000000-6e61137cb4bdfbca31c6
submitter=submitter = University of Tokyo Team (Faculty of Engineering, University of Tokyo)
MoNA Rating=3.75

>  <NUM PEAKS>  (3422) 
52

>  <MASS SPECTRAL PEAKS>  (3422) 
52 4.8
53 10.8
54 9.5
55 3.25
56 15.7
58 4.9
63 3
64 0.31
65 6.2
66 4.1
67 6.6
68 0.37
69 10.6
70 2.5
71 5
73 0.28
77 2.2
78 2.5
79 3.9
80 0.6
81 51.5
82 5.7
83 2.8
85 0.3
93 4.6
95 3.6
97 5.8
98 0.34
99 7.8
106 2.2
109 66.8
110 1.16
111 3.8
122 2.6
123 4.2
124 0.26
125 4.2
126 5.7
127 34.5
128 0.26
137 2.9
138 7.2
139 4.9
141 1.02
151 6.7
152 8
153 17.7
154 0.45
155 3.9
169 4.8
170 99.99
171 9.9

>  <PREDICTED SPECTRUM>  (3422) 
14 1
15 31
18 0
26 17
27 90
28 20
29 69
31 15
33 24
36 10
37 66
38 121
39 319
40 151
41 310
42 190
43 209
44 82
45 251
46 24
47 0
49 83
50 189
51 290
52 233
53 456
54 185
55 262
56 136
57 42
58 12
61 63
62 85
63 164
64 90
65 300
66 248
67 318
68 205
69 268
70 104
71 133
72 25
77 169
78 241
79 253
80 222
81 450
82 160
83 104
84 66
85 63
87 15
91 36
92 79
93 212
94 198
95 330
96 124
97 144
98 135
99 91
105 32
106 74
107 50
108 156
109 576
110 249
111 125
112 87
121 74
122 154
123 327
124 226
125 183
126 150
127 380
128 113
137 271
138 349
139 250
140 49
141 156
142 23
143 43
151 231
152 288
153 249
154 49
155 415
156 71
168 8
169 153
170 999
171 259
172 34

$$$$

     RDKit          2D

 15 16  0  0  0  0  0  0  0  0999 V2000
   -5.2881    0.7636    0.0000 C   0  0  0  0  0  0  0  0  0  0  0  0
   -2.6900   -0.7400    0.0000 C   0  0  0  0  0  0  0  0  0  0  0  0
   -1.4000   -1.5100    0.0000 C   0  0  0  0  0  0  0  0  0  0  0  0
    2.5200   -0.7600    0.0000 C   0  0  0  0  0  0  0  0  0  0  0  0
   -1.4000    1.5000    0.0000 C   0  0  0  0  0  0  0  0  0  0  0  0
    1.1801   -3.0200    0.0000 C   0  0  0  0  0  0  0  0  0  0  0  0
    1.1900   -1.5200    0.0000 C   0  0  0  0  0  0  0  0  0  0  0  0
   -2.6900    0.7600    0.0000 C   0  0  0  0  0  0  0  0  0  0  0  0
   -0.1000   -0.7600    0.0000 C   0  0  0  0  0  0  0  0  0  0  0  0
   -0.1000    0.7600    0.0000 C   0  0  0  0  0  0  0  0  0  0  0  0
    2.5200    0.7600    0.0000 C   0  0  0  0  0  0  0  0  0  0  0  0
    2.4741   -3.7786    0.0000 O   0  0  0  0  0  0  0  0  0  0  0  0
    3.8174    1.5129    0.0000 O   0  0  0  0  0  0  0  0  0  0  0  0
   -3.9880    1.5118    0.0000 O   0  0  0  0  0  0  0  0  0  0  0  0
    1.1900    1.5200    0.0000 O   0  0  0  0  0  0  0  0  0  0  0  0
  3  2  2  0
  7  4  2  0
  7  6  1  0
  8  2  1  0
  8  5  2  0
  9  3  1  0
  9  7  1  0
 10  5  1  0
 10  9  2  0
 11  4  1  0
 12  6  2  0
 13 11  2  0
 14  1  1  0
 14  8  1  0
 15 10  1  0
 15 11  1  0
M  END
>  <NAME>  (3423) 
4-FORMYL-7-METHOXYCOUMARIN

>  <SYNONYMS>  (3423) 


>  <SPECTRUM TYPE>  (3423) 
MS1

>  <INSTRUMENT TYPE>  (3423) 
EI-B

>  <INSTRUMENT>  (3423) 
HITACHI RMU-6L

>  <ION MODE>  (3423) 
P

>  <INCHIKEY>  (3423) 
MHZUULROATWSBY-UHFFFAOYSA-N

>  <FORMULA>  (3423) 
C11H8O4

>  <EXACT MASS>  (3423) 
204.042258736

>  <MW>  (3423) 
204

>  <ID>  (3423) 
JP006688

>  <CONTRIBUTOR>  (3423) 
University of Tokyo Team, {Faculty of Engineering, University of Tokyo

>  <COMMENT>  (3423) 
SMILES=COc(c2)cc(O1)c(c2)C(C=O)=CC(=O)1
InChI=InChI=1S/C11H8O4/c1-14-8-2-3-9-7(6-12)4-11(13)15-10(9)5-8/h2-6H,1H3
computed SMILES=O=CC1=CC(=O)OC=2C=C(OC)C=CC21
accession=JP006688
date=2016.01.19 (Created 2008.10.21, modified 2011.05.06)
author=MASS SPECTROSCOPY SOC. OF JAPAN (MSSJ)
license=CC BY-NC-SA
exact mass=204.04226
ionization energy=70 eV
ion type=[M]+*
computed spectral entropy=3.3826096100939194
computed normalized entropy=0.8196024879516886
SPLASH=splash10-0udi-9650000000-d77eab70bc5cb98307a2
submitter=submitter = University of Tokyo Team (Faculty of Engineering, University of Tokyo)
MoNA Rating=3.75

>  <NUM PEAKS>  (3423) 
62

>  <MASS SPECTRAL PEAKS>  (3423) 
41 15
42 6.7
43 15
44 0.45
45 3.8
50 6.5
51 10.3
53 0.28
55 9.5
56 8.9
57 13.7
60 0.25
61 3.1
62 7.1
63 7.5
64 0.26
65 4.5
67 3
69 8.7
70 0.77
71 7.5
73 2.5
74 3.7
75 0.36
76 7.8
77 15.4
78 2.8
81 0.43
83 3.4
84 2.6
85 3.6
86 0.25
87 3.6
88 5.5
89 5.9
90 0.53
91 6.2
97 3.2
98 2.6
99 0.28
101 3.3
104 3
105 6.1
112 0.25
116 3.2
119 8.1
120 10.3
131 0.32
133 6.9
148 41
149 6.7
153 1.4
154 2.8
155 2.6
161 19.6
162 0.32
175 10.4
176 23.5
177 3.3
204 99.99
205 12.8
206 2.4

>  <PREDICTED SPECTRUM>  (3423) 
14 0
15 58
26 11
27 10
28 13
29 54
31 4
37 42
38 86
39 179
40 51
41 121
42 61
43 62
44 46
49 47
50 280
51 321
52 124
53 215
54 64
55 112
56 65
57 17
59 12
61 126
62 264
63 379
64 147
65 155
66 76
67 21
68 45
69 233
74 202
75 268
76 245
77 309
78 137
79 233
80 73
84 10
86 58
87 116
88 93
89 145
90 116
91 169
92 156
93 117
94 15
99 13
100 47
101 24
102 51
103 68
104 150
105 366
106 90
107 156
108 41
115 4
117 44
118 5
119 200
120 192
121 124
122 0
126 32
130 20
131 12
132 77
133 423
134 107
135 26
145 12
146 89
147 152
148 681
149 220
150 41
161 437
162 104
173 26
174 29
175 150
176 686
177 280
178 6
187 7
189 34
190 13
203 165
204 999
205 392
206 111

$$$$

     RDKit          2D

 23 25  0  0  0  0  0  0  0  0999 V2000
    3.3650   -0.9687    0.0000 C   0  0  0  0  0  0  0  0  0  0  0  0
    0.7099   -2.0573    0.0000 C   0  0  0  0  0  0  0  0  0  0  0  0
    2.5091    2.9941    0.0000 C   0  0  0  0  0  0  0  0  0  0  0  0
   -3.0029    1.9464    0.0000 C   0  0  0  0  0  0  0  0  0  0  0  0
   -1.7038    1.1964    0.0000 C   0  0  0  0  0  0  0  0  0  0  0  0
   -5.9259    3.0001    0.0000 C   0  0  0  0  0  0  0  0  0  0  0  0
   -6.6759    1.7010    0.0000 C   0  0  0  0  0  0  0  0  0  0  0  0
   -4.3019   -0.3036    0.0000 C   0  0  0  0  0  0  0  0  0  0  0  0
    1.9947   -1.5788    0.0000 C   0  0  0  0  0  0  0  0  0  0  0  0
   -3.0029   -1.0536    0.0000 C   0  0  0  0  0  0  0  0  0  0  0  0
   -1.1992   -2.6776    0.0000 C   0  0  0  0  0  0  0  0  0  0  0  0
    0.9820    0.8922    0.0000 C   0  0  0  0  0  0  0  0  0  0  0  0
   -0.5891   -1.3073    0.0000 C   0  0  0  0  0  0  0  0  0  0  0  0
   -4.3019    1.1964    0.0000 C   0  0  0  0  0  0  0  0  0  0  0  0
   -1.7038   -0.3036    0.0000 C   0  0  0  0  0  0  0  0  0  0  0  0
    1.8379   -3.0706    0.0000 O   0  0  0  0  0  0  0  0  0  0  0  0
   -0.4492   -3.9766    0.0000 O   0  0  0  0  0  0  0  0  0  0  0  0
    2.5838   -0.2716    0.0000 O   0  0  0  0  0  0  0  0  0  0  0  0
    1.1388    2.3840    0.0000 O   0  0  0  0  0  0  0  0  0  0  0  0
   -4.4587    2.6882    0.0000 O   0  0  0  0  0  0  0  0  0  0  0  0
   -5.6722    0.5863    0.0000 O   0  0  0  0  0  0  0  0  0  0  0  0
   -2.6910   -2.5208    0.0000 O   0  0  0  0  0  0  0  0  0  0  0  0
    0.7812   -0.6972    0.0000 O   0  0  0  0  0  0  0  0  0  0  0  0
  5  4  1  0
  7  6  1  0
  9  1  1  0
 10  8  1  0
 13  2  1  0
 13 11  1  0
 14  4  1  0
 14  8  1  0
 15  5  1  0
 15 10  1  0
 15 12  1  0
 15 13  1  0
 16  9  2  0
 17 11  2  0
 18 12  2  0
 19  3  1  0
 19 12  1  0
 20  6  1  0
 20 14  1  0
 21  7  1  0
 21 14  1  0
 22 10  1  0
 22 11  1  0
 23  9  1  0
 23 13  1  0
M  END
>  <NAME>  (3424) 
9-ACETOXY-4,4-ETHYLENEDIOXY-1-METHOXYCARBONYL-9-METHYL-7-OXABICYCLO(4.3.0)NONAN-8-ONE

>  <SYNONYMS>  (3424) 


>  <SPECTRUM TYPE>  (3424) 
MS1

>  <INSTRUMENT TYPE>  (3424) 
EI-B

>  <INSTRUMENT>  (3424) 
HITACHI RMU-6L

>  <ION MODE>  (3424) 
P

>  <INCHIKEY>  (3424) 
OFYSQZHEUSDXPT-UHFFFAOYSA-N

>  <FORMULA>  (3424) 
C15H20O8

>  <EXACT MASS>  (3424) 
328.1158176

>  <MW>  (3424) 
328

>  <ID>  (3424) 
JP006687

>  <CONTRIBUTOR>  (3424) 
University of Tokyo Team, {Faculty of Engineering, University of Tokyo

>  <COMMENT>  (3424) 
SMILES=COC(=O)C(C2)(C1CC(O3)(OCC3)C2)C(C)(OC(C)=O)C(=O)O1
InChI=InChI=1S/C15H20O8/c1-9(16)23-13(2)11(17)22-10-8-14(20-6-7-21-14)4-5-15(10,13)12(18)19-3/h10H,4-8H2,1-3H3
computed SMILES=O=C(OC1(C(=O)OC2CC3(OCCO3)CCC21C(=O)OC)C)C
accession=JP006687
date=2016.01.19 (Created 2008.10.21, modified 2011.05.06)
author=MASS SPECTROSCOPY SOC. OF JAPAN (MSSJ)
license=CC BY-NC-SA
exact mass=328.11582
ionization energy=70 eV
ion type=[M]+*
computed spectral entropy=3.8350985626624587
computed normalized entropy=0.8309855720273425
SPLASH=splash10-0005-9410000000-d6f4bc4772f4ecb766f6
submitter=submitter = University of Tokyo Team (Faculty of Engineering, University of Tokyo)
MoNA Rating=3.75

>  <NUM PEAKS>  (3424) 
101

>  <MASS SPECTRAL PEAKS>  (3424) 
41 15.1
42 10.8
43 55.2
44 0.54
45 6.5
51 2.6
53 6.8
54 0.32
55 14.4
56 13.1
57 13.1
59 0.42
60 5.2
61 2.9
65 4
66 0.25
67 6.3
68 3.3
69 7.1
70 0.76
71 8.9
73 4.7
77 4.5
78 0.26
79 4.5
81 4.7
82 3.1
83 0.5
84 3.9
85 5.1
86 44.4
87 3.32
88 3.5
89 4.6
91 3.7
93 0.3
95 4.8
96 2.8
97 4.7
98 0.32
99 99.99
100 12.5
101 3.2
105 0.25
107 2.5
109 3.5
111 2.9
112 0.29
113 11
114 6.8
115 19
116 0.27
121 3.2
124 3
126 2.8
127 0.28
129 4.7
137 3.6
138 2.7
139 0.49
140 2.7
141 2.6
144 9.6
145 0.25
148 2.9
149 4
153 3.7
154 0.87
155 12.3
156 2.7
165 7.3
166 0.26
167 5.5
168 3.1
179 2.9
181 0.43
183 5.9
186 3.9
193 2.9
195 3.4
197 0.94
199 8.9
204 2.6
209 3.99
210 7.8
211 3.7
214 6
224 0.42
225 4.5
239 7.4
241 5.2
242 0.25
253 5
255 3.7
268 12.9
269 0.81
270 2.6
297 2.5
298 2.2
328 0.36
329 2.1

>  <PREDICTED SPECTRUM>  (3424) 
25 5
26 90
27 243
28 144
29 223
30 29
31 131
33 32
36 12
37 1
38 53
39 249
40 140
41 382
42 314
43 771
44 157
45 314
47 25
49 50
50 8
51 118
52 76
53 249
54 177
55 431
56 120
57 198
58 82
59 244
60 139
61 69
63 81
64 4
65 116
66 122
67 192
68 187
69 272
70 173
71 244
72 95
73 130
74 30
75 79
77 121
78 54
79 151
80 100
81 192
82 173
83 194
84 192
85 221
86 663
87 281
88 111
89 62
91 96
92 23
93 79
94 38
95 153
96 138
97 206
98 122
99 999
100 272
101 163
102 5
105 77
106 20
107 174
108 100
109 171
110 60
111 142
112 157
113 325
114 183
115 257
116 79
117 60
119 70
120 33
121 127
122 75
123 142
124 56
125 133
126 164
127 183
128 96
129 189
130 40
131 76
132 2
133 31
134 3
135 35
136 56
137 149
138 115
139 193
140 163
141 186
142 113
143 142
144 81
145 34
147 26
149 137
150 13
151 111
152 40
153 146
154 63
155 226
156 196
157 160
161 22
162 39
163 42
164 82
165 286
166 111
167 178
168 76
169 120
170 43
171 32
173 16
175 13
177 53
179 191
180 102
181 171
182 78
183 254
184 118
185 176
186 105
187 40
191 0
193 56
194 12
195 151
196 43
197 163
198 66
199 113
200 29
201 55
207 29
208 33
209 231
210 237
211 105
213 32
215 5
223 59
224 184
225 255
226 64
227 135
228 69
229 52
237 61
239 150
240 96
241 232
242 49
243 6
250 57
251 36
252 72
253 178
254 35
255 125
256 2
266 19
267 3
268 250
269 253
270 124
283 13
284 19
285 30
286 2
297 81
298 18
299 53
311 7
328 51
329 26

$$$$

     RDKit          2D

 17 17  0  0  0  0  0  0  0  0999 V2000
    2.3618    4.6590    0.0000 C   0  0  0  0  0  0  0  0  0  0  0  0
    1.1063    5.4119    0.0000 C   0  0  0  0  0  0  0  0  0  0  0  0
   -6.6955    2.4316    0.0000 C   0  0  0  0  0  0  0  0  0  0  0  0
    3.6682    0.9419    0.0000 C   0  0  0  0  0  0  0  0  0  0  0  0
    2.3966    0.1947    0.0000 C   0  0  0  0  0  0  0  0  0  0  0  0
    3.6552    2.4240    0.0000 C   0  0  0  0  0  0  0  0  0  0  0  0
    1.0798    0.9132    0.0000 C   0  0  0  0  0  0  0  0  0  0  0  0
   -1.4993    2.4184    0.0000 C   0  0  0  0  0  0  0  0  0  0  0  0
   -2.7965    3.1717    0.0000 C   0  0  0  0  0  0  0  0  0  0  0  0
    2.3704    3.1591    0.0000 C   0  0  0  0  0  0  0  0  0  0  0  0
   -0.1946    4.6652    0.0000 C   0  0  0  0  0  0  0  0  0  0  0  0
   -5.3945    3.1783    0.0000 C   0  0  0  0  0  0  0  0  0  0  0  0
    1.0987    2.4119    0.0000 C   0  0  0  0  0  0  0  0  0  0  0  0
   -0.1984    3.1652    0.0000 N   0  0  0  0  0  0  0  0  0  0  0  0
   -1.4917    5.4184    0.0000 O   0  0  0  0  0  0  0  0  0  0  0  0
   -5.3907    4.6783    0.0000 O   0  0  0  0  0  0  0  0  0  0  0  0
   -4.0974    2.4250    0.0000 O   0  0  0  0  0  0  0  0  0  0  0  0
  5  4  2  0
  6  4  1  0
  7  5  1  0
  9  8  1  0
 10  1  1  0
 10  6  2  0
 11  2  1  0
 12  3  1  0
 13  7  2  0
 13 10  1  0
 14  8  1  0
 14 11  1  0
 14 13  1  0
 15 11  2  0
 16 12  2  0
 17  9  1  0
 17 12  1  0
M  END
>  <NAME>  (3425) 
2-(N-ACETYL-2-ACETOXYETHYLAMINO)TOLUENE

>  <SYNONYMS>  (3425) 
2-(N-ACETYL-2-ACETOXYETHYLAMINO)-1-METHYLBENZENE

>  <SPECTRUM TYPE>  (3425) 
MS1

>  <INSTRUMENT TYPE>  (3425) 
EI-B

>  <INSTRUMENT>  (3425) 
JEOL JMS-D-300

>  <ION MODE>  (3425) 
P

>  <INCHIKEY>  (3425) 
ICTRVJDZFDRVOX-UHFFFAOYSA-N

>  <FORMULA>  (3425) 
C13H17NO3

>  <EXACT MASS>  (3425) 
235.12084340399997

>  <MW>  (3425) 
235

>  <ID>  (3425) 
JP006681

>  <CONTRIBUTOR>  (3425) 
University of Tokyo Team, {Faculty of Engineering, University of Tokyo

>  <COMMENT>  (3425) 
SMILES=CC(=O)OCCN(C(C)=O)c(c1)c(C)ccc1
InChI=InChI=1S/C13H17NO3/c1-10-6-4-5-7-13(10)14(11(2)15)8-9-17-12(3)16/h4-7H,8-9H2,1-3H3
computed SMILES=O=C(OCCN(C(=O)C)C=1C=CC=CC1C)C
accession=JP006681
date=2016.01.19 (Created 2008.10.21, modified 2011.05.06)
author=MASS SPECTROSCOPY SOC. OF JAPAN (MSSJ)
license=CC BY-NC-SA
exact mass=235.12084
ionization energy=70 eV
ion type=[M]+*
computed spectral entropy=2.770701288302422
computed normalized entropy=0.7616867798152251
SPLASH=splash10-00mo-5900000000-8713130f40ee293479a9
submitter=submitter = University of Tokyo Team (Faculty of Engineering, University of Tokyo)
MoNA Rating=3.75

>  <NUM PEAKS>  (3425) 
38

>  <MASS SPECTRAL PEAKS>  (3425) 
41 2
43 99.99
44 2
51 0.35
63 2
65 15.5
68 2
77 0.8
78 3.5
79 2.5
87 32.5
89 0.3
90 2
91 37.5
92 4.5
93 0.2
104 3
105 3
106 8
107 1.95
117 9
118 79
119 10.5
120 9.9
121 36
128 2
132 15
133 6.5
134 14
149 28.5
150 5
160 0.3
162 12
175 98.5
176 15
193 0.5
235 12.5
236 3.5

>  <PREDICTED SPECTRUM>  (3425) 
14 3
15 26
39 45
42 27
43 627
51 107
52 38
63 120
64 11
65 248
66 27
77 279
78 140
79 32
87 303
89 92
90 87
91 562
92 184
93 116
102 36
103 36
104 145
105 238
106 311
107 173
108 3
117 225
118 762
119 89
120 208
121 232
132 333
133 358
134 308
135 29
149 305
150 232
160 48
162 148
174 24
175 999
176 216
192 35
235 275
236 75

$$$$

     RDKit          2D

 16 16  0  0  0  0  0  0  0  0999 V2000
    1.2990    5.5700    0.0000 C   0  0  0  0  0  0  0  0  0  0  0  0
   -6.4952    2.5700    0.0000 C   0  0  0  0  0  0  0  0  0  0  0  0
    3.8971    1.0700    0.0000 C   0  0  0  0  0  0  0  0  0  0  0  0
    2.5976    0.3192    0.0000 C   0  0  0  0  0  0  0  0  0  0  0  0
    3.8976    2.5708    0.0000 C   0  0  0  0  0  0  0  0  0  0  0  0
    1.2986    1.0692    0.0000 C   0  0  0  0  0  0  0  0  0  0  0  0
    2.5986    3.3208    0.0000 C   0  0  0  0  0  0  0  0  0  0  0  0
   -1.2990    2.5700    0.0000 C   0  0  0  0  0  0  0  0  0  0  0  0
   -2.5981    3.3200    0.0000 C   0  0  0  0  0  0  0  0  0  0  0  0
    0.0000    4.8200    0.0000 C   0  0  0  0  0  0  0  0  0  0  0  0
   -5.1962    3.3200    0.0000 C   0  0  0  0  0  0  0  0  0  0  0  0
    1.2990    2.5700    0.0000 C   0  0  0  0  0  0  0  0  0  0  0  0
    0.0000    3.3200    0.0000 N   0  0  0  0  0  0  0  0  0  0  0  0
   -1.2990    5.5700    0.0000 O   0  0  0  0  0  0  0  0  0  0  0  0
   -5.1962    4.8200    0.0000 O   0  0  0  0  0  0  0  0  0  0  0  0
   -3.8971    2.5700    0.0000 O   0  0  0  0  0  0  0  0  0  0  0  0
  4  3  2  0
  5  3  1  0
  6  4  1  0
  7  5  2  0
  9  8  1  0
 10  1  1  0
 11  2  1  0
 12  6  2  0
 12  7  1  0
 13  8  1  0
 13 10  1  0
 13 12  1  0
 14 10  2  0
 15 11  2  0
 16  9  1  0
 16 11  1  0
M  END
>  <NAME>  (3426) 
N-ACETYL-2-ACETOXYETHYLAMINOBENZENE

>  <SYNONYMS>  (3426) 


>  <SPECTRUM TYPE>  (3426) 
MS1

>  <INSTRUMENT TYPE>  (3426) 
EI-B

>  <INSTRUMENT>  (3426) 
JEOL JMS-D-300

>  <ION MODE>  (3426) 
P

>  <INCHIKEY>  (3426) 
IGXHOQNEKVKXSV-UHFFFAOYSA-N

>  <FORMULA>  (3426) 
C12H15NO3

>  <EXACT MASS>  (3426) 
221.10519333999997

>  <MW>  (3426) 
221

>  <ID>  (3426) 
JP006680

>  <CONTRIBUTOR>  (3426) 
University of Tokyo Team, {Faculty of Engineering, University of Tokyo

>  <COMMENT>  (3426) 
SMILES=CC(=O)OCCN(C(C)=O)c(c1)cccc1
InChI=InChI=1S/C12H15NO3/c1-10(14)13(8-9-16-11(2)15)12-6-4-3-5-7-12/h3-7H,8-9H2,1-2H3
computed SMILES=O=C(OCCN(C=1C=CC=CC1)C(=O)C)C
accession=JP006680
date=2016.01.19 (Created 2008.10.21, modified 2011.05.06)
author=MASS SPECTROSCOPY SOC. OF JAPAN (MSSJ)
license=CC BY-NC-SA
exact mass=221.10519
ionization energy=70 eV
ion type=[M]+*
computed spectral entropy=2.41878249595438
computed normalized entropy=0.7423912912731598
SPLASH=splash10-05mo-5900000000-1933d72fd822161a7a34
submitter=submitter = University of Tokyo Team (Faculty of Engineering, University of Tokyo)
MoNA Rating=3.75

>  <NUM PEAKS>  (3426) 
26

>  <MASS SPECTRAL PEAKS>  (3426) 
43 99.99
44 2
51 12.5
65 0.5
77 36
78 6
79 6.5
87 0.5
91 10.5
92 3
93 13.5
104 1.25
105 7.5
106 99
107 9.5
118 1.65
119 77
120 12.5
135 9
136 0.2
148 6
161 55
162 9
179 1.35
221 10.5
222 2.5

>  <PREDICTED SPECTRUM>  (3426) 
14 17
15 57
27 26
28 72
29 76
38 22
39 88
40 30
41 38
42 60
43 662
44 33
45 38
50 9
51 193
52 81
53 43
62 20
63 83
64 39
65 128
66 124
76 22
77 460
78 220
79 250
87 92
91 281
92 156
93 271
104 289
105 198
106 999
107 268
118 286
119 608
120 523
121 59
133 49
134 5
135 63
136 18
148 161
149 64
161 782
162 178
179 93
221 271
222 80

$$$$

     RDKit          2D

 24 24  0  0  0  0  0  0  0  0999 V2000
    1.9487    4.1255    0.0000 C   0  0  0  0  0  0  0  0  0  0  0  0
    4.5466   -0.3753    0.0000 C   0  0  0  0  0  0  0  0  0  0  0  0
   -1.9486    4.8747    0.0000 C   0  0  0  0  0  0  0  0  0  0  0  0
   -7.1448    1.8747    0.0000 C   0  0  0  0  0  0  0  0  0  0  0  0
    7.1453    2.6249    0.0000 C   0  0  0  0  0  0  0  0  0  0  0  0
    3.2474   -2.6259    0.0000 C   0  0  0  0  0  0  0  0  0  0  0  0
   -1.9486    1.8747    0.0000 C   0  0  0  0  0  0  0  0  0  0  0  0
   -3.2477    2.6247    0.0000 C   0  0  0  0  0  0  0  0  0  0  0  0
    0.6490    0.3739    0.0000 C   0  0  0  0  0  0  0  0  0  0  0  0
    1.9490    2.6255    0.0000 C   0  0  0  0  0  0  0  0  0  0  0  0
    3.2475    0.3747    0.0000 C   0  0  0  0  0  0  0  0  0  0  0  0
   -0.6496    4.1247    0.0000 C   0  0  0  0  0  0  0  0  0  0  0  0
   -5.8457    2.6247    0.0000 C   0  0  0  0  0  0  0  0  0  0  0  0
    5.8461    1.8751    0.0000 C   0  0  0  0  0  0  0  0  0  0  0  0
    0.6495    1.8747    0.0000 C   0  0  0  0  0  0  0  0  0  0  0  0
    1.9480   -0.3761    0.0000 C   0  0  0  0  0  0  0  0  0  0  0  0
    3.2480    1.8755    0.0000 C   0  0  0  0  0  0  0  0  0  0  0  0
   -0.6496    2.6247    0.0000 N   0  0  0  0  0  0  0  0  0  0  0  0
    0.6495    4.8747    0.0000 O   0  0  0  0  0  0  0  0  0  0  0  0
   -5.8457    4.1247    0.0000 O   0  0  0  0  0  0  0  0  0  0  0  0
    5.8459    0.3751    0.0000 O   0  0  0  0  0  0  0  0  0  0  0  0
    1.9483   -1.8761    0.0000 O   0  0  0  0  0  0  0  0  0  0  0  0
   -4.5467    1.8747    0.0000 O   0  0  0  0  0  0  0  0  0  0  0  0
    4.5472    2.6253    0.0000 O   0  0  0  0  0  0  0  0  0  0  0  0
  8  7  1  0
 10  1  1  0
 11  2  1  0
 12  3  1  0
 13  4  1  0
 14  5  1  0
 15  9  2  0
 15 10  1  0
 16  9  1  0
 16 11  2  0
 17 10  2  0
 17 11  1  0
 18  7  1  0
 18 12  1  0
 18 15  1  0
 19 12  2  0
 20 13  2  0
 21 14  2  0
 22  6  1  0
 22 16  1  0
 23  8  1  0
 23 13  1  0
 24 14  1  0
 24 17  1  0
M  END
>  <NAME>  (3427) 
1-ACETOXY-3-(N-ACETYL-2-ACETOXYETHYLAMINO)-5-METHOXY-2,6-DIMETHYLBENZENE

>  <SYNONYMS>  (3427) 


>  <SPECTRUM TYPE>  (3427) 
MS1

>  <INSTRUMENT TYPE>  (3427) 
EI-B

>  <INSTRUMENT>  (3427) 
JEOL JMS-D-300

>  <ION MODE>  (3427) 
P

>  <INCHIKEY>  (3427) 
KZQSYDCXRAAFPA-UHFFFAOYSA-N

>  <FORMULA>  (3427) 
C17H23NO6

>  <EXACT MASS>  (3427) 
337.152537456

>  <MW>  (3427) 
337

>  <ID>  (3427) 
JP006679

>  <CONTRIBUTOR>  (3427) 
University of Tokyo Team, {Faculty of Engineering, University of Tokyo

>  <COMMENT>  (3427) 
SMILES=CC(=O)OCCN(C(C)=O)c(c1)c(C)c(OC(C)=O)c(C)c(OC)1
InChI=InChI=1S/C17H23NO6/c1-10-15(18(12(3)19)7-8-23-13(4)20)9-16(22-6)11(2)17(10)24-14(5)21/h9H,7-8H2,1-6H3
computed SMILES=O=C(OC=1C(=C(OC)C=C(C1C)N(C(=O)C)CCOC(=O)C)C)C
accession=JP006679
date=2016.01.19 (Created 2008.10.21, modified 2011.05.06)
author=MASS SPECTROSCOPY SOC. OF JAPAN (MSSJ)
license=CC BY-NC-SA
exact mass=337.15254
ionization energy=70 eV
ion type=[M]+*
computed spectral entropy=2.968055291456874
computed normalized entropy=0.7891245347655655
SPLASH=splash10-000l-9321000000-550a59e098487687503f
submitter=submitter = University of Tokyo Team (Faculty of Engineering, University of Tokyo)
MoNA Rating=3.75

>  <NUM PEAKS>  (3427) 
43

>  <MASS SPECTRAL PEAKS>  (3427) 
41 6
43 89.5
45 4.5
47 1.95
48 7.5
49 7
57 7
68 0.7
74 3
77 4.5
79 3
83 7.55
85 49.5
87 99.99
88 6
91 0.45
123 3
128 31.5
150 3
166 0.45
167 9
178 18
179 6
180 5.35
181 6
192 10.5
193 18
194 0.45
209 9
210 4.5
220 3
222 1.65
235 24
236 6
251 3.5
252 1.05
253 12
277 9
294 4.5
295 2.15
296 3
337 39
338 7

>  <PREDICTED SPECTRUM>  (3427) 
17 5
18 6
38 0
39 97
40 23
41 6
42 168
43 999
44 246
45 256
51 121
52 49
53 45
54 6
55 71
56 66
57 200
58 58
60 129
61 41
63 49
64 31
65 91
66 21
67 43
68 45
69 28
72 122
74 73
77 228
78 61
79 77
80 1
81 45
82 3
87 762
88 122
89 48
91 44
92 10
93 44
94 75
95 22
104 8
105 112
106 24
107 94
108 128
109 72
110 43
111 18
116 5
119 8
120 26
121 125
122 39
123 98
124 22
133 113
134 48
135 34
136 8
137 85
138 49
149 42
150 256
151 207
152 20
164 104
165 94
166 41
167 40
174 37
175 78
176 198
177 41
178 379
179 267
180 208
181 3
192 303
193 325
194 81
207 48
208 27
209 146
210 363
211 5
218 53
220 76
222 65
234 86
235 317
236 162
252 193
253 324
277 488
278 144
294 106
295 231
337 682
338 275

$$$$

     RDKit          2D

 22 22  0  0  1  0  0  0  0  0999 V2000
    6.2444   -3.8339    0.0000 C   0  0  0  0  0  0  0  0  0  0  0  0
    4.3162   -1.5355    0.0000 C   0  0  0  0  0  0  0  0  0  0  0  0
   -1.4143    1.4344    0.0000 C   0  0  0  0  0  0  0  0  0  0  0  0
    3.7822   -0.0663    0.0000 C   0  0  0  0  0  0  0  0  0  0  0  0
    0.3977   -3.7259    0.0000 C   0  0  0  0  0  0  0  0  0  0  0  0
   -5.3116   -0.8165    0.0000 C   0  0  0  0  0  0  0  0  0  0  0  0
    4.7671   -4.0942    0.0000 C   0  0  0  0  0  0  0  0  0  0  0  0
   -2.7140   -2.3173    0.0000 C   0  0  0  0  0  0  0  0  0  0  0  0
    3.8031   -2.9450    0.0000 C   0  0  0  0  0  0  0  0  0  0  0  0
   -1.4140   -0.0656    0.0000 C   0  0  0  0  0  0  0  0  0  0  0  0
    2.4831   -0.8160    0.0000 C   0  0  0  0  0  0  0  0  0  0  0  0
   -2.7136   -0.8165    0.0000 C   0  0  0  0  0  0  0  0  0  0  0  0
   -1.4150   -3.0673    0.0000 C   0  0  0  0  0  0  0  0  0  0  0  0
   -0.1150   -0.8156    0.0000 C   0  0  0  0  0  0  0  0  0  0  0  0
    2.3258   -3.2053    0.0000 C   0  0  0  0  0  0  0  0  0  0  0  0
   -0.1155   -2.3165    0.0000 C   0  0  0  0  0  0  0  0  0  0  0  0
    2.4828   -2.3160    0.0000 O   0  0  0  0  0  0  0  0  0  0  0  0
   -1.4148   -4.5673    0.0000 O   0  0  0  0  0  0  0  0  0  0  0  0
    1.8126   -4.6148    0.0000 O   0  0  0  0  0  0  0  0  0  0  0  0
   -4.0126   -0.0665    0.0000 O   0  0  0  0  0  0  0  0  0  0  0  0
    1.1842   -0.0658    0.0000 O   0  0  0  0  0  0  0  0  0  0  0  0
    1.3618   -2.0561    0.0000 O   0  0  0  0  0  0  0  0  0  0  0  0
  7  1  1  0
  9  2  1  6
  9  7  1  0
 10  3  1  0
 11  4  1  0
 12  8  2  0
 12 10  1  0
 13  8  1  0
 14 10  2  0
 15  9  1  0
 16  5  1  1
 16 13  1  0
 16 14  1  0
 17 11  2  0
 18 13  2  0
 19 15  2  0
 20  6  1  0
 20 12  1  0
 21 11  1  0
 21 14  1  0
 22 15  1  0
 16 22  1  0
M  END
>  <NAME>  (3428) 
5-ACETOXY-3-METHOXY-4,6-DIMETHYL-(6S)-((2R)-2-METHYLBUTYRYLOXY)-2,4-CYCLOHEXADIEN-1-ONE

>  <SYNONYMS>  (3428) 


>  <SPECTRUM TYPE>  (3428) 
MS1

>  <INSTRUMENT TYPE>  (3428) 
EI-B

>  <INSTRUMENT>  (3428) 
JEOL JMS-D-300

>  <ION MODE>  (3428) 
P

>  <INCHIKEY>  (3428) 
ZBFFFQJFHOMIMF-JDNHERCYSA-N

>  <FORMULA>  (3428) 
C16H22O6

>  <EXACT MASS>  (3428) 
310.14163842399995

>  <MW>  (3428) 
310

>  <ID>  (3428) 
JP006678

>  <CONTRIBUTOR>  (3428) 
University of Tokyo Team, {Faculty of Engineering, University of Tokyo

>  <COMMENT>  (3428) 
SMILES=CCC([H])(C)C(=O)OC(C)(C(=O)1)C(OC(C)=O)=C(C)C(OC)=C1
InChI=InChI=1S/C16H22O6/c1-7-9(2)15(19)22-16(5)13(18)8-12(20-6)10(3)14(16)21-11(4)17/h8-9H,7H2,1-6H3/t9-,16-/m1/s1
computed SMILES=O=C(OC1=C(C(OC)=CC(=O)C1(OC(=O)C(C)CC)C)C)C
accession=JP006678
date=2016.01.19 (Created 2008.10.21, modified 2011.05.06)
author=MASS SPECTROSCOPY SOC. OF JAPAN (MSSJ)
license=CC BY-NC-SA
exact mass=310.14164
ionization energy=70 eV
ion type=[M]+*
computed spectral entropy=3.3248485755588244
computed normalized entropy=0.8087936252520959
SPLASH=splash10-0apl-8910000000-d709955a646d75963c98
submitter=submitter = University of Tokyo Team (Faculty of Engineering, University of Tokyo)
MoNA Rating=3.75

>  <NUM PEAKS>  (3428) 
61

>  <MASS SPECTRAL PEAKS>  (3428) 
40 7.5
41 25
42 4.5
43 5.65
44 10.5
45 5
47 3.5
51 0.3
52 3
53 5
55 8
56 0.5
57 99.99
58 5
60 3.5
67 0.35
69 6
73 3
74 15.5
77 0.3
79 3
81 3
83 12.5
85 3.6
87 4
95 4
107 3
109 0.3
117 4.5
119 4.5
123 4.5
124 0.45
125 3
136 3
137 5.5
138 0.75
139 12.5
140 4
141 33
142 0.6
149 4
151 8.5
153 6.5
154 0.3
155 4
156 4
157 4
166 7.9
167 21.5
168 36
169 4
170 0.3
183 25
184 56.5
185 6
210 0.8
226 5
268 26.5
269 4
310 0.75
311 2

>  <PREDICTED SPECTRUM>  (3428) 
39 5
41 178
42 73
43 108
44 80
51 9
52 8
53 41
55 134
56 31
57 765
58 179
59 50
65 53
68 18
69 183
71 1
77 37
78 15
81 58
82 10
83 88
85 287
91 47
95 52
97 16
105 39
107 45
108 64
109 94
110 15
111 21
119 25
122 8
123 229
124 76
125 161
127 104
128 72
136 12
137 83
138 93
139 178
140 188
141 336
142 169
143 102
151 155
152 22
153 61
154 112
155 164
156 111
157 112
165 140
166 289
167 432
168 327
169 215
170 41
182 0
183 683
184 999
185 403
186 42
193 36
194 115
226 289
227 90
268 339
269 65
311 64

$$$$

     RDKit          2D

 22 22  0  0  1  0  0  0  0  0999 V2000
    5.3435   -2.2735    0.0000 C   0  0  0  0  0  0  0  0  0  0  0  0
    3.4154    0.0248    0.0000 C   0  0  0  0  0  0  0  0  0  0  0  0
   -2.3151    2.9947    0.0000 C   0  0  0  0  0  0  0  0  0  0  0  0
   -3.6143   -5.2571    0.0000 C   0  0  0  0  0  0  0  0  0  0  0  0
   -0.5032   -2.1656    0.0000 C   0  0  0  0  0  0  0  0  0  0  0  0
   -6.2125    0.7439    0.0000 C   0  0  0  0  0  0  0  0  0  0  0  0
    3.8662   -2.5338    0.0000 C   0  0  0  0  0  0  0  0  0  0  0  0
   -3.6149   -0.7569    0.0000 C   0  0  0  0  0  0  0  0  0  0  0  0
    2.9022   -1.3846    0.0000 C   0  0  0  0  0  0  0  0  0  0  0  0
   -2.3149    1.4947    0.0000 C   0  0  0  0  0  0  0  0  0  0  0  0
   -3.6145   -3.7571    0.0000 C   0  0  0  0  0  0  0  0  0  0  0  0
   -3.6144    0.7439    0.0000 C   0  0  0  0  0  0  0  0  0  0  0  0
   -2.3159   -1.5069    0.0000 C   0  0  0  0  0  0  0  0  0  0  0  0
   -1.0159    0.7447    0.0000 C   0  0  0  0  0  0  0  0  0  0  0  0
    1.4249   -1.6450    0.0000 C   0  0  0  0  0  0  0  0  0  0  0  0
   -1.0164   -0.7561    0.0000 C   0  0  0  0  0  0  0  0  0  0  0  0
   -4.9137   -3.0074    0.0000 O   0  0  0  0  0  0  0  0  0  0  0  0
    0.2833    1.4945    0.0000 O   0  0  0  0  0  0  0  0  0  0  0  0
    0.9118   -3.0544    0.0000 O   0  0  0  0  0  0  0  0  0  0  0  0
   -4.9135    1.4939    0.0000 O   0  0  0  0  0  0  0  0  0  0  0  0
   -2.3156   -3.0069    0.0000 O   0  0  0  0  0  0  0  0  0  0  0  0
    0.4609   -0.4958    0.0000 O   0  0  0  0  0  0  0  0  0  0  0  0
  7  1  1  0
  9  2  1  6
  9  7  1  0
 10  3  1  0
 11  4  1  0
 12  8  1  0
 12 10  2  0
 13  8  2  0
 14 10  1  0
 15  9  1  0
 16  5  1  1
 16 13  1  0
 16 14  1  0
 17 11  2  0
 18 14  2  0
 19 15  2  0
 20  6  1  0
 20 12  1  0
 21 11  1  0
 21 13  1  0
 22 15  1  0
 16 22  1  0
M  END
>  <NAME>  (3429) 
5-ACETOXY-3-METHOXY-2,6-DIMETHYL-(6R)-((2R)-2-METHYLBUTYRYLOXY)-2,3-CYCLOHEXADIEN-1-ONE

>  <SYNONYMS>  (3429) 


>  <SPECTRUM TYPE>  (3429) 
MS1

>  <INSTRUMENT TYPE>  (3429) 
EI-B

>  <INSTRUMENT>  (3429) 
JEOL JMS-D-300

>  <ION MODE>  (3429) 
P

>  <INCHIKEY>  (3429) 
KHLPUDAOXGHKTN-JDNHERCYSA-N

>  <FORMULA>  (3429) 
C16H22O6

>  <EXACT MASS>  (3429) 
310.14163842399995

>  <MW>  (3429) 
310

>  <ID>  (3429) 
JP006677

>  <CONTRIBUTOR>  (3429) 
University of Tokyo Team, {Faculty of Engineering, University of Tokyo

>  <COMMENT>  (3429) 
SMILES=CCC([H])(C)C(=O)OC(C)(C(=O)1)C(OC(C)=O)=CC(OC)=C(C)1
InChI=InChI=1S/C16H22O6/c1-7-9(2)15(19)22-16(5)13(21-11(4)17)8-12(20-6)10(3)14(16)18/h8-9H,7H2,1-6H3/t9-,16-/m1/s1
computed SMILES=O=C(OC1=CC(OC)=C(C(=O)C1(OC(=O)C(C)CC)C)C)C
accession=JP006677
date=2016.01.19 (Created 2008.10.21, modified 2011.05.06)
author=MASS SPECTROSCOPY SOC. OF JAPAN (MSSJ)
license=CC BY-NC-SA
exact mass=310.14164
ionization energy=70 eV
ion type=[M]+*
computed spectral entropy=2.695871369233962
computed normalized entropy=0.7308103728430201
SPLASH=splash10-0a4l-9300000000-55143526a198aa6ef951
submitter=submitter = University of Tokyo Team (Faculty of Engineering, University of Tokyo)
MoNA Rating=3.75

>  <NUM PEAKS>  (3429) 
40

>  <MASS SPECTRAL PEAKS>  (3429) 
41 21
42 4.5
43 54.5
44 0.45
45 11.5
53 2.5
55 6
56 0.45
57 99.99
58 4.5
59 3
60 0.85
69 4.5
74 22
83 4.5
87 0.55
101 3
127 3
128 3
139 0.7
140 3
141 11
142 11
154 0.3
157 12.5
166 12
167 4
168 0.7
169 3
170 3
182 2
183 0.6
184 18
185 2
205 2
210 0.15
212 1.5
241 1.5
258 4.5
310 1

>  <PREDICTED SPECTRUM>  (3429) 
27 123
28 23
29 194
39 121
40 5
41 426
42 190
43 801
44 135
45 0
51 132
52 69
53 97
55 257
56 105
57 999
58 191
59 59
65 58
67 28
68 73
69 259
70 1
71 139
72 45
77 104
78 56
79 47
81 34
83 34
85 381
95 99
96 2
97 1
99 4
102 16
109 54
110 142
111 79
113 45
114 40
123 100
124 27
125 17
127 145
128 133
137 52
138 78
139 48
140 154
141 360
142 369
143 105
144 102
151 36
155 61
156 118
157 88
165 194
166 241
167 250
168 154
169 151
170 280
182 5
183 234
184 624
185 36
226 131
268 22
310 89
311 102

$$$$

     RDKit          2D

 30 31  0  0  1  0  0  0  0  0999 V2000
   -9.3673    3.7500    0.0000 C   0  0  0  0  0  0  0  0  0  0  0  0
  -10.3936    0.9310    0.0000 C   0  0  0  0  0  0  0  0  0  0  0  0
  -10.1004   -5.5167    0.0000 C   0  0  0  0  0  0  0  0  0  0  0  0
   -6.5374   -1.3673    0.0000 C   0  0  0  0  0  0  0  0  0  0  0  0
   -6.2024   -7.7665    0.0000 C   0  0  0  0  0  0  0  0  0  0  0  0
   -8.4032    2.6008    0.0000 C   0  0  0  0  0  0  0  0  0  0  0  0
   -1.0052   -3.2654    0.0000 C   0  0  0  0  0  0  0  0  0  0  0  0
   -2.3045   -1.0150    0.0000 C   0  0  0  0  0  0  0  0  0  0  0  0
    0.2941   -2.5142    0.0000 C   0  0  0  0  0  0  0  0  0  0  0  0
   -1.0052   -0.2638    0.0000 C   0  0  0  0  0  0  0  0  0  0  0  0
   -6.2015   -4.7665    0.0000 C   0  0  0  0  0  0  0  0  0  0  0  0
   -8.9164    1.1913    0.0000 C   0  0  0  0  0  0  0  0  0  0  0  0
   -8.8015   -4.7665    0.0000 C   0  0  0  0  0  0  0  0  0  0  0  0
   -2.3045   -2.5159    0.0000 C   0  0  0  0  0  0  0  0  0  0  0  0
    0.2941   -1.0134    0.0000 C   0  0  0  0  0  0  0  0  0  0  0  0
   -7.5015   -5.5165    0.0000 C   0  0  0  0  0  0  0  0  0  0  0  0
   -6.2015   -3.2665    0.0000 C   0  0  0  0  0  0  0  0  0  0  0  0
   -8.8015   -3.2665    0.0000 C   0  0  0  0  0  0  0  0  0  0  0  0
   -7.9523    0.0422    0.0000 C   0  0  0  0  0  0  0  0  0  0  0  0
   -3.6034   -3.2661    0.0000 C   0  0  0  0  0  0  0  0  0  0  0  0
   -7.5015   -2.5165    0.0000 C   0  0  0  0  0  0  0  0  0  0  0  0
    1.5930   -0.2631    0.0000 N   0  0  0  0  0  0  0  0  0  0  0  0
  -10.1004   -2.5163    0.0000 O   0  0  0  0  0  0  0  0  0  0  0  0
   -6.4751    0.3025    0.0000 O   0  0  0  0  0  0  0  0  0  0  0  0
   -3.6031   -4.7661    0.0000 O   0  0  0  0  0  0  0  0  0  0  0  0
    2.8922   -1.0129    0.0000 O   0  0  0  0  0  0  0  0  0  0  0  0
    1.5928    1.2369    0.0000 O   0  0  0  0  0  0  0  0  0  0  0  0
   -7.5015   -7.0165    0.0000 O   0  0  0  0  0  0  0  0  0  0  0  0
   -4.9025   -2.5163    0.0000 O   0  0  0  0  0  0  0  0  0  0  0  0
   -8.4655   -1.3673    0.0000 O   0  0  0  0  0  0  0  0  0  0  0  0
  6  1  1  0
  9  7  2  0
 10  8  1  0
 12  2  1  6
 12  6  1  0
 13  3  1  0
 14  7  1  0
 14  8  2  0
 15  9  1  0
 15 10  2  0
 16 11  1  0
 16 13  2  0
 17 11  2  0
 18 13  1  0
 19 12  1  0
 20 14  1  0
 21  4  1  1
 21 17  1  0
 21 18  1  0
 22 15  1  0
 23 18  2  0
 24 19  2  0
 25 20  2  0
 26 22  1  0
 27 22  2  0
 28  5  1  0
 28 16  1  0
 29 17  1  0
 29 20  1  0
 30 19  1  0
 21 30  1  0
M  CHG  2  22   1  26  -1
M  END
>  <NAME>  (3430) 
3-METHOXY-2,6-DIMETHYL-(6R)-((2R)-2-METHYLBUTYRYLOXY)-5-(4-NITROBENZOYLOXY)-2,4-CYCLOHEXADIEN-1-ONE

>  <SYNONYMS>  (3430) 


>  <SPECTRUM TYPE>  (3430) 
MS1

>  <INSTRUMENT TYPE>  (3430) 
EI-B

>  <INSTRUMENT>  (3430) 
JEOL JMS-D-300

>  <ION MODE>  (3430) 
P

>  <INCHIKEY>  (3430) 
HLJRNTPUJKILLB-XUSGNXJCSA-N

>  <FORMULA>  (3430) 
C21H23NO8

>  <EXACT MASS>  (3430) 
417.14236669600007

>  <MW>  (3430) 
417

>  <ID>  (3430) 
JP006676

>  <CONTRIBUTOR>  (3430) 
University of Tokyo Team, {Faculty of Engineering, University of Tokyo

>  <COMMENT>  (3430) 
SMILES=CCC([H])(C)C(=O)OC(C)(C(=O)1)C(OC(=O)c(c2)ccc([N+1]([O-1])=O)c2)=CC(OC)=C(C)1
InChI=InChI=1S/C21H23NO8/c1-6-12(2)19(24)30-21(4)17(11-16(28-5)13(3)18(21)23)29-20(25)14-7-9-15(10-8-14)22(26)27/h7-12H,6H2,1-5H3/t12-,21-/m1/s1
computed SMILES=O=C(OC1=CC(OC)=C(C(=O)C1(OC(=O)C(C)CC)C)C)C2=CC=C(C=C2)N(=O)=O
accession=JP006676
date=2016.01.19 (Created 2008.10.21, modified 2011.05.06)
author=MASS SPECTROSCOPY SOC. OF JAPAN (MSSJ)
license=CC BY-NC-SA
exact mass=417.14237
ionization energy=70 eV
ion type=[M]+*
computed spectral entropy=2.735032874515059
computed normalized entropy=0.7574342426721722
SPLASH=splash10-052f-9300000000-7995ffc18551f6e3e14e
submitter=submitter = University of Tokyo Team (Faculty of Engineering, University of Tokyo)
MoNA Rating=3.75

>  <NUM PEAKS>  (3430) 
37

>  <MASS SPECTRAL PEAKS>  (3430) 
40 65
41 27.5
42 4
43 2.95
44 58.5
45 4
55 7.5
56 0.7
57 99.99
58 4
69 8
74 2.2
78 7
83 4
85 35.5
87 0.6
104 8.5
120 4.5
127 8.5
128 0.4
139 8
140 6.5
141 6
142 0.65
150 29
151 5
154 3.5
157 1.75
166 12.5
167 4.5
168 3.5
183 0.7
184 7.5
251 2
317 3.5
333 0.45
417 1

>  <PREDICTED SPECTRUM>  (3430) 
27 15
28 13
29 125
30 7
33 26
38 24
39 171
40 109
41 457
42 148
43 409
44 192
50 106
51 87
52 52
53 76
55 183
56 36
57 999
58 130
59 60
63 49
64 71
65 74
66 10
67 41
69 167
70 67
71 103
76 166
77 65
79 2
81 52
82 8
83 62
84 10
85 585
86 98
91 20
92 89
97 29
98 11
99 52
101 9
102 13
103 14
104 231
105 32
109 59
110 43
111 50
112 5
113 18
115 0
120 159
123 22
124 3
125 28
126 68
127 105
128 100
132 19
136 21
137 21
138 65
139 108
140 153
141 220
142 52
143 6
145 16
150 290
151 260
152 13
153 37
154 153
155 91
157 13
166 82
167 93
168 102
169 28
170 7
180 52
181 73
182 148
183 141
184 124
185 71
231 31
235 13
236 11
273 34
274 25
333 62
417 89

$$$$

     RDKit          2D

 25 25  0  0  1  0  0  0  0  0999 V2000
    1.8658   -7.7665    0.0000 C   0  0  0  0  0  0  0  0  0  0  0  0
    2.8922   -4.9475    0.0000 C   0  0  0  0  0  0  0  0  0  0  0  0
    2.5989    1.5002    0.0000 C   0  0  0  0  0  0  0  0  0  0  0  0
   -9.0942   -0.7512    0.0000 C   0  0  0  0  0  0  0  0  0  0  0  0
   -0.9641   -2.6492    0.0000 C   0  0  0  0  0  0  0  0  0  0  0  0
    1.2990    3.7500    0.0000 C   0  0  0  0  0  0  0  0  0  0  0  0
    0.9018   -6.6173    0.0000 C   0  0  0  0  0  0  0  0  0  0  0  0
   -3.8981   -0.7504    0.0000 C   0  0  0  0  0  0  0  0  0  0  0  0
   -5.1970   -1.5006    0.0000 C   0  0  0  0  0  0  0  0  0  0  0  0
   -1.3000    0.7500    0.0000 C   0  0  0  0  0  0  0  0  0  0  0  0
    1.4149   -5.2078    0.0000 C   0  0  0  0  0  0  0  0  0  0  0  0
    1.3000    0.7500    0.0000 C   0  0  0  0  0  0  0  0  0  0  0  0
   -7.7951   -1.5010    0.0000 C   0  0  0  0  0  0  0  0  0  0  0  0
    0.0000    1.5000    0.0000 C   0  0  0  0  0  0  0  0  0  0  0  0
   -1.3000   -0.7500    0.0000 C   0  0  0  0  0  0  0  0  0  0  0  0
    1.3000   -0.7500    0.0000 C   0  0  0  0  0  0  0  0  0  0  0  0
    0.4509   -4.0587    0.0000 C   0  0  0  0  0  0  0  0  0  0  0  0
    0.0000   -1.5000    0.0000 C   0  0  0  0  0  0  0  0  0  0  0  0
   -2.5989   -1.5002    0.0000 N   0  0  0  0  0  0  0  0  0  0  0  0
   -7.7948   -3.0010    0.0000 O   0  0  0  0  0  0  0  0  0  0  0  0
    2.5989   -1.5002    0.0000 O   0  0  0  0  0  0  0  0  0  0  0  0
   -1.0264   -4.3190    0.0000 O   0  0  0  0  0  0  0  0  0  0  0  0
    0.0000    3.0000    0.0000 O   0  0  0  0  0  0  0  0  0  0  0  0
   -6.4962   -0.7508    0.0000 O   0  0  0  0  0  0  0  0  0  0  0  0
    0.9641   -2.6492    0.0000 O   0  0  0  0  0  0  0  0  0  0  0  0
  7  1  1  0
  9  8  1  0
 11  2  1  6
 11  7  1  0
 12  3  1  0
 13  4  1  0
 14 10  1  0
 14 12  2  0
 15 10  2  0
 16 12  1  0
 17 11  1  0
 18  5  1  1
 18 15  1  0
 18 16  1  0
 19  8  1  0
 19 15  1  0
 20 13  2  0
 21 16  2  0
 22 17  2  0
 23  6  1  0
 23 14  1  0
 24  9  1  0
 24 13  1  0
 25 17  1  0
 18 25  1  0
M  END
>  <NAME>  (3431) 
5-(2-ACETOXYETHYLAMINO)-3-METHOXY-2,6-DIMETHYL-(6R*)-((2R*)-2-METHYLBUTYRYLOXY)-2,4-CYCLOHEXADIEN-1-ONE

>  <SYNONYMS>  (3431) 
WASABIDIENONE-E ACETATE

>  <SPECTRUM TYPE>  (3431) 
MS1

>  <INSTRUMENT TYPE>  (3431) 
EI-B

>  <INSTRUMENT>  (3431) 
JEOL JMS-D-300

>  <ION MODE>  (3431) 
P

>  <INCHIKEY>  (3431) 
RYGUAVIWYDWURX-ADLMAVQZSA-N

>  <FORMULA>  (3431) 
C18H27NO6

>  <EXACT MASS>  (3431) 
353.183837584

>  <MW>  (3431) 
353

>  <ID>  (3431) 
JP006675

>  <CONTRIBUTOR>  (3431) 
University of Tokyo Team, {Faculty of Engineering, University of Tokyo

>  <COMMENT>  (3431) 
SMILES=CC(=O)OCCNC(=C1)C(C)(OC(=O)C([H])(C)CC)C(=O)C(C)=C(OC)1
InChI=InChI=1S/C18H27NO6/c1-7-11(2)17(22)25-18(5)15(19-8-9-24-13(4)20)10-14(23-6)12(3)16(18)21/h10-11,19H,7-9H2,1-6H3/t11-,18-/m1/s1
computed SMILES=O=C(OCCNC1=CC(OC)=C(C(=O)C1(OC(=O)C(C)CC)C)C)C
accession=JP006675
date=2016.01.19 (Created 2008.10.21, modified 2011.05.06)
author=MASS SPECTROSCOPY SOC. OF JAPAN (MSSJ)
license=CC BY-NC-SA
exact mass=353.18384
ionization energy=70 eV
ion type=[M]+*
computed spectral entropy=3.6163943305588275
computed normalized entropy=0.795984963307166
SPLASH=splash10-0a4i-7592000000-d317bc295fe21e2da3df
submitter=submitter = University of Tokyo Team (Faculty of Engineering, University of Tokyo)
MoNA Rating=3.75

>  <NUM PEAKS>  (3431) 
94

>  <MASS SPECTRAL PEAKS>  (3431) 
41 13
42 2
43 51.5
44 1.45
45 2
53 4
54 2
55 0.6
56 3
57 47
58 3
59 0.6
65 2
67 4
68 4
69 0.45
70 2
72 3
74 4.5
77 0.3
79 3
80 3
82 2
83 0.6
85 8
87 63
88 4
91 0.2
92 2
94 3
95 2
96 0.2
106 2
107 2
108 2
109 0.2
111 6
112 4.5
122 4.5
123 0.45
124 4
136 4.5
137 3
138 0.75
139 3
140 6
141 3
147 0.3
148 3
149 3
150 7.5
151 0.5
152 5
154 2
156 3
164 1.2
165 4.5
166 19
167 7
168 0.9
178 6
179 2
180 12
181 0.45
182 34
183 6
184 4.5
192 0.45
193 2
194 6.5
208 99.99
209 1.9
210 10
212 17.5
223 13
224 2.2
225 6
226 45.5
227 6
228 1.5
251 3
252 4.5
253 6
254 2.05
255 3
268 44
269 8
270 1.1
296 4.5
310 4.5
311 6
313 0.75
353 48.5
354 14.5

>  <PREDICTED SPECTRUM>  (3431) 
26 15
27 122
28 59
29 108
30 6
38 30
39 111
40 32
41 388
42 177
43 856
44 217
45 114
51 34
52 36
53 114
54 13
55 297
56 106
57 570
58 70
59 256
60 37
64 8
65 116
66 7
67 146
68 88
69 203
70 53
71 87
72 98
77 81
78 89
79 120
80 149
81 158
82 165
83 97
84 61
85 237
86 35
87 96
91 86
92 119
93 78
94 154
95 269
96 180
97 165
98 70
99 52
100 40
103 14
104 41
106 120
107 137
108 219
109 182
110 275
111 176
112 168
113 57
115 26
118 5
119 30
120 75
121 121
122 326
123 238
124 309
125 167
127 29
133 3
134 84
135 142
136 259
137 221
138 257
139 230
140 254
141 103
142 45
148 123
149 206
150 373
151 330
152 345
153 308
154 204
155 61
161 26
162 163
163 158
164 182
165 231
166 449
167 254
168 243
169 132
176 96
177 141
178 332
179 239
180 439
181 361
182 450
183 254
184 189
190 124
191 172
192 264
193 256
194 404
195 210
196 150
198 21
206 9
207 74
208 866
209 639
210 595
211 139
212 313
213 61
218 28
222 118
223 252
224 235
225 357
226 852
227 256
236 281
237 123
238 131
240 94
250 141
251 338
252 407
253 245
254 250
255 152
268 999
269 378
270 90
278 55
279 72
280 65
281 87
282 6
283 13
294 49
295 74
296 213
310 388
311 230
312 93
322 14
338 119
339 32
353 932
354 474
355 113

$$$$

     RDKit          2D

 22 22  0  0  1  0  0  0  0  0999 V2000
    1.8658   -7.7665    0.0000 C   0  0  0  0  0  0  0  0  0  0  0  0
    2.8922   -4.9475    0.0000 C   0  0  0  0  0  0  0  0  0  0  0  0
    2.5989    1.5002    0.0000 C   0  0  0  0  0  0  0  0  0  0  0  0
   -0.9641   -2.6492    0.0000 C   0  0  0  0  0  0  0  0  0  0  0  0
    1.2990    3.7500    0.0000 C   0  0  0  0  0  0  0  0  0  0  0  0
    0.9018   -6.6173    0.0000 C   0  0  0  0  0  0  0  0  0  0  0  0
   -3.8981   -0.7504    0.0000 C   0  0  0  0  0  0  0  0  0  0  0  0
   -5.1970   -1.5006    0.0000 C   0  0  0  0  0  0  0  0  0  0  0  0
   -1.3000    0.7500    0.0000 C   0  0  0  0  0  0  0  0  0  0  0  0
    1.4149   -5.2078    0.0000 C   0  0  0  0  0  0  0  0  0  0  0  0
    1.3000    0.7500    0.0000 C   0  0  0  0  0  0  0  0  0  0  0  0
    0.0000    1.5000    0.0000 C   0  0  0  0  0  0  0  0  0  0  0  0
   -1.3000   -0.7500    0.0000 C   0  0  0  0  0  0  0  0  0  0  0  0
    1.3000   -0.7500    0.0000 C   0  0  0  0  0  0  0  0  0  0  0  0
    0.4509   -4.0587    0.0000 C   0  0  0  0  0  0  0  0  0  0  0  0
    0.0000   -1.5000    0.0000 C   0  0  0  0  0  0  0  0  0  0  0  0
   -2.5989   -1.5002    0.0000 N   0  0  0  0  0  0  0  0  0  0  0  0
   -6.4962   -0.7508    0.0000 O   0  0  0  0  0  0  0  0  0  0  0  0
    2.5989   -1.5002    0.0000 O   0  0  0  0  0  0  0  0  0  0  0  0
   -1.0264   -4.3190    0.0000 O   0  0  0  0  0  0  0  0  0  0  0  0
    0.0000    3.0000    0.0000 O   0  0  0  0  0  0  0  0  0  0  0  0
    0.9641   -2.6492    0.0000 O   0  0  0  0  0  0  0  0  0  0  0  0
  6  1  1  0
  8  7  1  0
 10  2  1  6
 10  6  1  0
 11  3  1  0
 12  9  1  0
 12 11  2  0
 13  9  2  0
 14 11  1  0
 15 10  1  0
 16  4  1  1
 16 13  1  0
 16 14  1  0
 17  7  1  0
 17 13  1  0
 18  8  1  0
 19 14  2  0
 20 15  2  0
 21  5  1  0
 21 12  1  0
 22 15  1  0
 16 22  1  0
M  END
>  <NAME>  (3432) 
5-(2-HYDROXYETHYLAMINO)-3-METHOXY-2,6-DIMETHYL-(6R*)-((2R*)-2-METHYLBUTYRYLOXY)-2,4-CYCLOHEXADIEN-1-ONE

>  <SYNONYMS>  (3432) 
WASABIDIENONE-E

>  <SPECTRUM TYPE>  (3432) 
MS1

>  <INSTRUMENT TYPE>  (3432) 
EI-B

>  <INSTRUMENT>  (3432) 
JEOL JMS-D-300

>  <ION MODE>  (3432) 
P

>  <INCHIKEY>  (3432) 
UTRDVXSMNWAJLY-QLJPJBMISA-N

>  <FORMULA>  (3432) 
C16H25NO5

>  <EXACT MASS>  (3432) 
311.17327290000003

>  <MW>  (3432) 
311

>  <ID>  (3432) 
JP006674

>  <CONTRIBUTOR>  (3432) 
University of Tokyo Team, {Faculty of Engineering, University of Tokyo

>  <COMMENT>  (3432) 
SMILES=OCCNC(=C1)C(C)(OC(=O)C([H])(C)CC)C(=O)C(C)=C(OC)1
InChI=InChI=1S/C16H25NO5/c1-6-10(2)15(20)22-16(4)13(17-7-8-18)9-12(21-5)11(3)14(16)19/h9-10,17-18H,6-8H2,1-5H3/t10-,16-/m1/s1
computed SMILES=O=C(OC1(C(=O)C(=C(OC)C=C1NCCO)C)C)C(C)CC
accession=JP006674
date=2016.01.19 (Created 2008.10.21, modified 2011.05.06)
author=MASS SPECTROSCOPY SOC. OF JAPAN (MSSJ)
license=CC BY-NC-SA
exact mass=311.17327
ionization energy=70 eV
ion type=[M]+*
computed spectral entropy=3.3186573923812195
computed normalized entropy=0.7811371328688105
SPLASH=splash10-003r-3931000000-349377e780b9cdc8eec8
submitter=submitter = University of Tokyo Team (Faculty of Engineering, University of Tokyo)
MoNA Rating=3.75

>  <NUM PEAKS>  (3432) 
70

>  <MASS SPECTRAL PEAKS>  (3432) 
41 22
42 4.5
43 22
44 0.75
45 8
52 3
53 7.5
54 0.3
55 7.5
57 44
65 4.5
67 0.45
68 3.5
69 3
74 3
77 0.6
78 3
79 4.5
80 3.5
83 0.75
85 4.5
91 3
92 3
94 0.45
95 3
106 4.5
107 2
108 0.3
109 3
110 2
122 4.5
123 0.75
124 7.5
134 3
136 6
137 0.45
138 6
139 3
140 6
148 0.3
150 11.5
151 6
152 6
164 2.5
165 6
166 73.5
167 11.5
168 0.45
178 7.5
179 3
180 17
181 0.35
182 93
183 16
184 73.5
185 0.75
192 2
194 4.5
196 2
208 6.75
209 12.5
210 7.5
211 7.5
212 0.5
226 99.99
227 16
268 6
311 6.6
312 37
313 6

>  <PREDICTED SPECTRUM>  (3432) 
27 68
28 24
29 57
30 16
31 36
33 19
39 130
40 69
41 318
42 114
43 418
44 123
45 87
51 48
52 64
53 121
54 43
55 193
56 71
57 371
58 115
59 216
60 5
65 125
66 39
67 123
68 102
69 159
70 87
71 87
72 28
77 102
78 58
79 109
80 79
81 138
82 160
83 166
84 82
85 111
90 5
91 116
92 92
93 74
94 82
95 120
96 88
97 73
98 135
99 61
100 73
102 61
103 13
104 16
107 60
108 134
109 117
110 104
111 91
112 92
113 38
119 51
120 51
121 57
122 100
123 113
124 95
125 67
126 20
127 94
128 28
134 32
135 49
136 210
137 132
138 244
139 214
140 229
141 43
142 22
148 149
149 124
150 175
151 151
152 148
153 71
154 100
163 27
164 129
165 123
166 517
167 429
168 482
169 181
170 92
176 28
178 19
179 0
180 223
181 211
182 426
183 249
184 396
185 114
194 254
195 148
196 178
198 1
208 215
209 227
210 294
211 124
212 249
213 74
222 36
223 9
224 108
226 999
227 405
228 185
236 28
238 33
252 169
253 100
254 40
268 177
269 25
280 159
281 21
296 83
311 652
312 298
313 106
314 5

$$$$

     RDKit          2D

 13 13  0  0  0  0  0  0  0  0999 V2000
    2.5989    1.5002    0.0000 C   0  0  0  0  0  0  0  0  0  0  0  0
   -0.0000   -3.0000    0.0000 C   0  0  0  0  0  0  0  0  0  0  0  0
   -3.8981   -0.7504    0.0000 C   0  0  0  0  0  0  0  0  0  0  0  0
    3.8981   -0.7504    0.0000 C   0  0  0  0  0  0  0  0  0  0  0  0
   -1.3000    0.7500    0.0000 C   0  0  0  0  0  0  0  0  0  0  0  0
    1.3000    0.7500    0.0000 C   0  0  0  0  0  0  0  0  0  0  0  0
    0.0000   -1.5000    0.0000 C   0  0  0  0  0  0  0  0  0  0  0  0
    0.0000    1.5000    0.0000 C   0  0  0  0  0  0  0  0  0  0  0  0
   -1.3000   -0.7500    0.0000 C   0  0  0  0  0  0  0  0  0  0  0  0
    1.3000   -0.7500    0.0000 C   0  0  0  0  0  0  0  0  0  0  0  0
    0.0000    3.0000    0.0000 O   0  0  0  0  0  0  0  0  0  0  0  0
   -2.5989   -1.5002    0.0000 O   0  0  0  0  0  0  0  0  0  0  0  0
    2.5989   -1.5002    0.0000 O   0  0  0  0  0  0  0  0  0  0  0  0
  6  1  1  0
  7  2  1  0
  8  5  2  0
  8  6  1  0
  9  5  1  0
  9  7  2  0
 10  6  2  0
 10  7  1  0
 11  8  1  0
 12  3  1  0
 12  9  1  0
 13  4  1  0
 13 10  1  0
M  END
>  <NAME>  (3433) 
3,5-DIMETHOXY-2,4-DIMETHYLPHENOL

>  <SYNONYMS>  (3433) 


>  <SPECTRUM TYPE>  (3433) 
MS1

>  <INSTRUMENT TYPE>  (3433) 
EI-B

>  <INSTRUMENT>  (3433) 
JEOL JMS-D-300

>  <ION MODE>  (3433) 
P

>  <INCHIKEY>  (3433) 
KMLNRCNJULZPTB-UHFFFAOYSA-N

>  <FORMULA>  (3433) 
C10H14O3

>  <EXACT MASS>  (3433) 
182.094294308

>  <MW>  (3433) 
182

>  <ID>  (3433) 
JP006672

>  <CONTRIBUTOR>  (3433) 
University of Tokyo Team, {Faculty of Engineering, University of Tokyo

>  <COMMENT>  (3433) 
SMILES=COc(c1)c(C)c(OC)c(C)c(O)1
InChI=InChI=1S/C10H14O3/c1-6-8(11)5-9(12-3)7(2)10(6)13-4/h5,11H,1-4H3
computed SMILES=OC=1C=C(OC)C(=C(OC)C1C)C
accession=JP006672
date=2016.01.19 (Created 2008.10.21, modified 2011.05.06)
author=MASS SPECTROSCOPY SOC. OF JAPAN (MSSJ)
license=CC BY-NC-SA
exact mass=182.09429
ionization energy=70 eV
ion type=[M]+*
computed spectral entropy=3.254961865666837
computed normalized entropy=0.8198293567675489
SPLASH=splash10-00lr-4900000000-7b19ccd6cc3c6eef26e4
submitter=submitter = University of Tokyo Team (Faculty of Engineering, University of Tokyo)
MoNA Rating=3.75

>  <NUM PEAKS>  (3433) 
53

>  <MASS SPECTRAL PEAKS>  (3433) 
41 11
43 16
50 3
51 0.9
52 5
53 10.5
55 13
59 0.2
63 4.5
65 8
66 4.5
67 1.05
68 1.5
69 20.5
77 16
78 0.45
79 14.5
80 3.5
81 6
83 1.05
91 9
93 3
94 2
95 0.9
96 4.5
97 2
107 13
108 0.45
109 10.5
110 1.5
111 2
120 0.45
121 17.5
122 3
123 9
124 1.05
125 3
135 8
136 9
137 1.75
138 6
139 22
140 2
149 0.2
150 6
151 35.5
152 6
153 1.05
167 43.5
168 5
181 12
182 99.99
183 13

>  <PREDICTED SPECTRUM>  (3433) 
15 61
26 8
27 66
28 13
29 66
38 62
39 243
40 82
41 308
42 62
43 154
44 5
45 45
49 5
50 139
51 288
52 208
53 338
54 144
55 295
56 36
57 30
59 100
62 37
63 152
64 90
65 302
66 226
67 281
68 160
69 385
70 49
76 2
77 384
78 207
79 299
80 163
81 237
82 117
83 137
84 30
85 2
86 15
91 290
92 135
93 225
94 156
95 190
96 126
97 82
99 15
105 53
106 98
107 406
108 198
109 275
110 129
111 138
119 41
120 41
121 277
122 187
123 216
124 200
125 125
135 314
136 308
137 269
138 122
139 333
140 60
149 123
150 179
151 487
152 204
153 149
165 78
166 53
167 767
168 235
169 17
181 429
182 999
183 333
184 30

$$$$

     RDKit          2D

 19 19  0  0  1  0  0  0  0  0999 V2000
    5.9930   -3.3985    0.0000 C   0  0  0  0  0  0  0  0  0  0  0  0
    4.0649   -1.1002    0.0000 C   0  0  0  0  0  0  0  0  0  0  0  0
   -1.6656    1.8697    0.0000 C   0  0  0  0  0  0  0  0  0  0  0  0
    0.1463   -3.2906    0.0000 C   0  0  0  0  0  0  0  0  0  0  0  0
   -5.5630   -0.3811    0.0000 C   0  0  0  0  0  0  0  0  0  0  0  0
    4.5158   -3.6588    0.0000 C   0  0  0  0  0  0  0  0  0  0  0  0
   -2.9654   -1.8819    0.0000 C   0  0  0  0  0  0  0  0  0  0  0  0
    3.5517   -2.5096    0.0000 C   0  0  0  0  0  0  0  0  0  0  0  0
   -1.6654    0.3697    0.0000 C   0  0  0  0  0  0  0  0  0  0  0  0
   -2.9649   -0.3811    0.0000 C   0  0  0  0  0  0  0  0  0  0  0  0
   -1.6664   -2.6319    0.0000 C   0  0  0  0  0  0  0  0  0  0  0  0
   -0.3664   -0.3803    0.0000 C   0  0  0  0  0  0  0  0  0  0  0  0
    2.0745   -2.7700    0.0000 C   0  0  0  0  0  0  0  0  0  0  0  0
   -0.3668   -1.8811    0.0000 C   0  0  0  0  0  0  0  0  0  0  0  0
   -1.6661   -4.1319    0.0000 O   0  0  0  0  0  0  0  0  0  0  0  0
    0.9328    0.3695    0.0000 O   0  0  0  0  0  0  0  0  0  0  0  0
    1.5613   -4.1794    0.0000 O   0  0  0  0  0  0  0  0  0  0  0  0
   -4.2639    0.3689    0.0000 O   0  0  0  0  0  0  0  0  0  0  0  0
    1.1104   -1.6208    0.0000 O   0  0  0  0  0  0  0  0  0  0  0  0
  6  1  1  0
  8  2  1  6
  8  6  1  0
  9  3  1  0
 10  7  1  0
 10  9  2  0
 11  7  2  0
 12  9  1  0
 13  8  1  0
 14  4  1  1
 14 11  1  0
 14 12  1  0
 15 11  1  0
 16 12  2  0
 17 13  2  0
 18  5  1  0
 18 10  1  0
 19 13  1  0
 14 19  1  0
M  END
>  <NAME>  (3434) 
5-HYDROXY-3-METHOXY-2,6-DIMETHYL-(6R)-((2R)-2-METHYLBUTYRYLOXY)-2,4-CYCLOHEXADIEN-1-ONE

>  <SYNONYMS>  (3434) 
WASABIDIENONE-A

>  <SPECTRUM TYPE>  (3434) 
MS1

>  <INSTRUMENT TYPE>  (3434) 
EI-B

>  <INSTRUMENT>  (3434) 
JEOL JMS-D-300

>  <ION MODE>  (3434) 
P

>  <INCHIKEY>  (3434) 
FLRPGUPKHDJDQL-XLKFXECMSA-N

>  <FORMULA>  (3434) 
C14H20O5

>  <EXACT MASS>  (3434) 
268.13107374000003

>  <MW>  (3434) 
268

>  <ID>  (3434) 
JP006671

>  <CONTRIBUTOR>  (3434) 
University of Tokyo Team, {Faculty of Engineering, University of Tokyo

>  <COMMENT>  (3434) 
SMILES=CCC([H])(C)C(=O)OC(C)(C(O)=1)C(=O)C(C)=C(OC)C1
InChI=InChI=1S/C14H20O5/c1-6-8(2)13(17)19-14(4)11(15)7-10(18-5)9(3)12(14)16/h7-8,15H,6H2,1-5H3/t8-,14-/m1/s1
computed SMILES=O=C(OC1(C(=O)C(=C(OC)C=C1O)C)C)C(C)CC
accession=JP006671
date=2016.01.19 (Created 2008.10.21, modified 2011.05.06)
author=MASS SPECTROSCOPY SOC. OF JAPAN (MSSJ)
license=CC BY-NC-SA
exact mass=268.13107
ionization energy=70 eV
ion type=[M]+*
computed spectral entropy=2.6737312587856974
computed normalized entropy=0.6906722878124694
SPLASH=splash10-0a5l-7900000000-b34de947c604bd91a2ab
submitter=submitter = University of Tokyo Team (Faculty of Engineering, University of Tokyo)
MoNA Rating=3.75

>  <NUM PEAKS>  (3434) 
48

>  <MASS SPECTRAL PEAKS>  (3434) 
40 3
41 4
43 12
44 0.3
56 2
57 99.99
58 8
69 0.2
74 4
81 4
85 50
86 0.4
87 2
91 5
95 2
110 0.2
111 1
112 3
113 4
123 0.2
124 5
126 1
127 3
137 0.2
138 5
139 5
140 4
141 3.2
142 57
143 5
151 2
153 0.2
155 3
156 1
157 1
166 1.1
167 5
168 7
169 13
170 0.3
181 7
182 8
183 90
184 1.2
185 1
206 4
268 7
269 1

>  <PREDICTED SPECTRUM>  (3434) 
27 87
28 50
29 93
39 115
40 32
41 285
42 117
43 180
51 41
52 20
53 88
54 30
55 135
56 29
57 762
58 280
59 68
67 23
69 111
71 50
77 82
78 37
79 9
81 9
82 16
83 33
84 12
85 402
86 95
97 10
98 66
99 75
107 3
110 2
111 74
112 16
123 128
124 106
125 96
126 44
127 165
128 122
133 33
137 48
138 53
139 143
140 89
141 466
142 402
143 19
151 51
152 46
155 88
165 45
166 40
167 234
168 236
169 183
170 35
181 52
183 999
184 322
185 168
209 148
240 47
268 303
269 124
270 50

$$$$

     RDKit          2D

 22 22  0  0  1  0  0  0  0  0999 V2000
    5.0187   -1.7109    0.0000 C   0  0  0  0  0  0  0  0  0  0  0  0
    3.0906    0.5874    0.0000 C   0  0  0  0  0  0  0  0  0  0  0  0
   -2.6399    3.5573    0.0000 C   0  0  0  0  0  0  0  0  0  0  0  0
   -0.8280   -1.6030    0.0000 C   0  0  0  0  0  0  0  0  0  0  0  0
   -6.5373    1.3064    0.0000 C   0  0  0  0  0  0  0  0  0  0  0  0
    3.5415   -1.9713    0.0000 C   0  0  0  0  0  0  0  0  0  0  0  0
   -3.9391   -4.6946    0.0000 C   0  0  0  0  0  0  0  0  0  0  0  0
   -3.9393   -3.1946    0.0000 C   0  0  0  0  0  0  0  0  0  0  0  0
   -3.9397   -0.1944    0.0000 C   0  0  0  0  0  0  0  0  0  0  0  0
    2.5774   -0.8221    0.0000 C   0  0  0  0  0  0  0  0  0  0  0  0
   -2.6397    2.0573    0.0000 C   0  0  0  0  0  0  0  0  0  0  0  0
   -3.9392    1.3064    0.0000 C   0  0  0  0  0  0  0  0  0  0  0  0
   -2.6407   -0.9444    0.0000 C   0  0  0  0  0  0  0  0  0  0  0  0
   -1.3407    1.3073    0.0000 C   0  0  0  0  0  0  0  0  0  0  0  0
    1.1002   -1.0824    0.0000 C   0  0  0  0  0  0  0  0  0  0  0  0
   -1.3411   -0.1936    0.0000 C   0  0  0  0  0  0  0  0  0  0  0  0
   -5.2380   -5.4448    0.0000 Cl  0  0  0  0  0  0  0  0  0  0  0  0
   -0.0415    2.0571    0.0000 O   0  0  0  0  0  0  0  0  0  0  0  0
    0.5870   -2.4919    0.0000 O   0  0  0  0  0  0  0  0  0  0  0  0
   -5.2383    2.0564    0.0000 O   0  0  0  0  0  0  0  0  0  0  0  0
   -2.6404   -2.4444    0.0000 O   0  0  0  0  0  0  0  0  0  0  0  0
    0.1361    0.0668    0.0000 O   0  0  0  0  0  0  0  0  0  0  0  0
  6  1  1  0
  8  7  1  0
 10  2  1  6
 10  6  1  0
 11  3  1  0
 12  9  1  0
 12 11  2  0
 13  9  2  0
 14 11  1  0
 15 10  1  0
 16  4  1  1
 16 13  1  0
 16 14  1  0
 17  7  1  0
 18 14  2  0
 19 15  2  0
 20  5  1  0
 20 12  1  0
 21  8  1  0
 21 13  1  0
 22 15  1  0
 16 22  1  0
M  END
>  <NAME>  (3435) 
5-CHLOROETHOXY-2,6-DIMETHYL-3-METHOXY-(6R)-((2R)-2-METHYLBUTYRYLOXY)-2,4-CYCLOHEXADIEN-1-ONE

>  <SYNONYMS>  (3435) 


>  <SPECTRUM TYPE>  (3435) 
MS1

>  <INSTRUMENT TYPE>  (3435) 
EI-B

>  <INSTRUMENT>  (3435) 
JEOL JMS-D-300

>  <ION MODE>  (3435) 
P

>  <INCHIKEY>  (3435) 
FGUIKRIBAYASBF-QLJPJBMISA-N

>  <FORMULA>  (3435) 
C16H23ClO5

>  <EXACT MASS>  (3435) 
330.123401516

>  <MW>  (3435) 
330

>  <ID>  (3435) 
JP006665

>  <CONTRIBUTOR>  (3435) 
University of Tokyo Team, {Faculty of Engineering, University of Tokyo

>  <COMMENT>  (3435) 
SMILES=ClCCOC(=C1)C(C)(OC(=O)C([H])(C)CC)C(=O)C(C)=C(OC)1
InChI=InChI=1S/C16H23ClO5/c1-6-10(2)15(19)22-16(4)13(21-8-7-17)9-12(20-5)11(3)14(16)18/h9-10H,6-8H2,1-5H3/t10-,16-/m1/s1
computed SMILES=O=C(OC1(C(=O)C(=C(OC)C=C1OCCCl)C)C)C(C)CC
accession=JP006665
date=2016.01.19 (Created 2008.10.21, modified 2011.05.06)
author=MASS SPECTROSCOPY SOC. OF JAPAN (MSSJ)
license=CC BY-NC-SA
exact mass=330.1234
ionization energy=70 eV
ion type=[M]+*
computed spectral entropy=3.1565392185910146
computed normalized entropy=0.7288694478663784
SPLASH=splash10-0pc1-8691000000-ec76e1d97dbe3c31a5f9
submitter=submitter = University of Tokyo Team (Faculty of Engineering, University of Tokyo)
MoNA Rating=3.75

>  <NUM PEAKS>  (3435) 
76

>  <MASS SPECTRAL PEAKS>  (3435) 
41 1.4
43 10.7
44 12.8
51 0.14
52 2
53 3.1
55 3.4
57 99.99
58 4.9
59 1.8
63 10.8
65 0.36
67 2.4
69 2.9
77 2.7
79 0.26
80 1.3
81 2
83 7.3
85 3.36
86 1.8
91 1
95 2.4
96 0.11
107 1.5
109 2.2
111 1.7
123 0.31
124 2.2
125 1.2
137 2.3
138 0.33
139 10.2
140 4.8
141 19.2
142 0.16
151 4.7
152 1.1
153 1.3
155 0.91
156 1
165 1
166 21
167 0.52
168 2.5
169 1.3
183 57.7
184 0.62
185 1.1
193 1.2
198 2.8
201 0.51
202 1.3
203 76
204 10
205 2.57
206 3.2
214 4.3
216 1.7
217 0.47
219 1.6
229 1.1
230 2.7
231 0.22
232 1.1
245 10.1
246 53.5
247 0.99
248 18.1
249 2.4
282 1.4
287 0.17
330 24.3
331 4.7
332 8.5
333 1.6

>  <PREDICTED SPECTRUM>  (3435) 
27 101
28 53
29 258
30 17
36 5
38 11
39 262
40 60
41 627
42 151
43 877
44 112
45 33
50 41
51 192
52 95
53 185
54 28
55 396
56 37
57 999
58 114
59 194
63 153
64 38
65 247
66 57
67 73
68 14
69 352
71 125
72 11
75 14
77 161
78 78
79 81
81 126
82 68
83 141
84 139
85 305
86 52
89 66
90 2
91 193
92 72
93 42
95 157
96 22
97 94
98 102
99 157
100 46
101 125
102 40
103 46
104 9
107 108
108 47
109 203
110 111
111 49
113 23
115 51
117 42
119 2
121 156
122 95
123 178
124 104
125 78
126 61
127 86
129 38
131 66
133 70
135 100
136 101
137 117
138 99
139 54
141 21
143 14
145 105
146 31
147 45
149 18
151 144
153 31
157 1
158 29
159 93
160 83
161 329
162 115
163 245
164 130
165 164
166 27
167 48
175 37
185 45
186 35
187 165
188 36
189 327
190 6
191 59
192 41
193 24
195 148
200 23
201 190
202 177
203 856
204 568
205 175
206 53
213 36
214 41
215 21
216 19
217 217
218 105
227 56
228 20
229 127
230 30
231 147
232 11
234 19
241 16
245 100
246 336
247 217
248 154
330 423
331 203
332 249
333 93

$$$$

     RDKit          2D

 21 21  0  0  1  0  0  0  0  0999 V2000
    5.3435   -2.2735    0.0000 C   0  0  0  0  0  0  0  0  0  0  0  0
   -3.6143   -5.2571    0.0000 C   0  0  0  0  0  0  0  0  0  0  0  0
    3.4154    0.0248    0.0000 C   0  0  0  0  0  0  0  0  0  0  0  0
   -2.3151    2.9947    0.0000 C   0  0  0  0  0  0  0  0  0  0  0  0
   -0.5032   -2.1656    0.0000 C   0  0  0  0  0  0  0  0  0  0  0  0
   -6.2125    0.7439    0.0000 C   0  0  0  0  0  0  0  0  0  0  0  0
    3.8662   -2.5338    0.0000 C   0  0  0  0  0  0  0  0  0  0  0  0
   -3.6145   -3.7571    0.0000 C   0  0  0  0  0  0  0  0  0  0  0  0
   -3.6149   -0.7569    0.0000 C   0  0  0  0  0  0  0  0  0  0  0  0
    2.9022   -1.3846    0.0000 C   0  0  0  0  0  0  0  0  0  0  0  0
   -2.3149    1.4947    0.0000 C   0  0  0  0  0  0  0  0  0  0  0  0
   -3.6144    0.7439    0.0000 C   0  0  0  0  0  0  0  0  0  0  0  0
   -2.3159   -1.5069    0.0000 C   0  0  0  0  0  0  0  0  0  0  0  0
   -1.0159    0.7447    0.0000 C   0  0  0  0  0  0  0  0  0  0  0  0
    1.4249   -1.6450    0.0000 C   0  0  0  0  0  0  0  0  0  0  0  0
   -1.0164   -0.7561    0.0000 C   0  0  0  0  0  0  0  0  0  0  0  0
    0.2833    1.4945    0.0000 O   0  0  0  0  0  0  0  0  0  0  0  0
    0.9118   -3.0544    0.0000 O   0  0  0  0  0  0  0  0  0  0  0  0
   -4.9135    1.4939    0.0000 O   0  0  0  0  0  0  0  0  0  0  0  0
   -2.3156   -3.0069    0.0000 O   0  0  0  0  0  0  0  0  0  0  0  0
    0.4609   -0.4958    0.0000 O   0  0  0  0  0  0  0  0  0  0  0  0
  7  1  1  0
  8  2  1  0
 10  3  1  6
 10  7  1  0
 11  4  1  0
 12  9  1  0
 12 11  2  0
 13  9  2  0
 14 11  1  0
 15 10  1  0
 16  5  1  1
 16 13  1  0
 16 14  1  0
 17 14  2  0
 18 15  2  0
 19  6  1  0
 19 12  1  0
 20  8  1  0
 20 13  1  0
 21 15  1  0
 16 21  1  0
M  END
>  <NAME>  (3436) 
2,6-DIMETHYL-5-ETHOXY-3-METHOXY-(6R)-((2R)-2-METHYLBUTYRYLOXY)-2,4-CYCLOHEXADIEN-1-ONE

>  <SYNONYMS>  (3436) 


>  <SPECTRUM TYPE>  (3436) 
MS1

>  <INSTRUMENT TYPE>  (3436) 
EI-B

>  <INSTRUMENT>  (3436) 
JEOL JMS-D-300

>  <ION MODE>  (3436) 
P

>  <INCHIKEY>  (3436) 
JUMCUINIMOUWNA-QLJPJBMISA-N

>  <FORMULA>  (3436) 
C16H24O5

>  <EXACT MASS>  (3436) 
296.16237386800003

>  <MW>  (3436) 
296

>  <ID>  (3436) 
JP006664

>  <CONTRIBUTOR>  (3436) 
University of Tokyo Team, {Faculty of Engineering, University of Tokyo

>  <COMMENT>  (3436) 
SMILES=CCOC(=C([H])1)C(C)(OC(=O)C(C)CC)C(=O)C(C)=C(OC)1
InChI=InChI=1S/C16H24O5/c1-7-10(3)15(18)21-16(5)13(20-8-2)9-12(19-6)11(4)14(16)17/h9-10H,7-8H2,1-6H3/t10-,16-/m1/s1
computed SMILES=O=C(OC1(C(=O)C(=C(OC)C=C1OCC)C)C)C(C)CC
accession=JP006664
date=2016.01.19 (Created 2008.10.21, modified 2011.05.06)
author=MASS SPECTROSCOPY SOC. OF JAPAN (MSSJ)
license=CC BY-NC-SA
exact mass=296.16237
ionization energy=70 eV
ion type=[M]+*
computed spectral entropy=3.083786043242243
computed normalized entropy=0.7804595876331774
SPLASH=splash10-015c-4910000000-057158036ab5561b6b76
submitter=submitter = University of Tokyo Team (Faculty of Engineering, University of Tokyo)
MoNA Rating=3.75

>  <NUM PEAKS>  (3436) 
52

>  <MASS SPECTRAL PEAKS>  (3436) 
39 10
40 1
41 29
42 0.1
43 40
51 3
52 4
53 0.95
55 10
57 8.3
58 1
65 0.1
67 7
69 8
77 6
79 0.6
80 1
81 5
83 15.5
85 1.3
91 1
93 7
96 1
97 0.1
107 2.5
109 3
111 2.5
123 0.7
124 6
137 3
138 5
139 2.9
140 8
141 32
151 5
155 0.6
166 14
167 18
168 6
169 99.99
170 10
180 3
183 67
184 0.7
196 3
197 1
211 7
212 5.9
213 7
253 2.5
296 38
297 4

>  <PREDICTED SPECTRUM>  (3436) 
27 52
28 18
29 98
38 2
39 113
40 30
41 273
42 88
43 431
44 22
50 11
51 68
52 38
53 82
55 150
56 78
57 337
59 52
63 19
64 7
65 104
66 42
67 64
69 140
71 70
75 11
76 0
77 116
78 63
79 52
81 62
83 97
84 38
85 110
89 23
90 13
91 62
92 22
93 41
94 16
95 126
97 52
98 26
105 4
108 23
109 120
110 6
111 73
115 21
116 15
121 3
122 1
123 156
124 71
125 90
127 52
128 4
134 27
136 30
137 77
138 38
139 72
140 89
141 265
142 34
151 212
152 98
153 11
155 136
166 110
167 230
168 142
169 999
170 406
179 108
180 116
181 9
182 104
183 500
184 295
193 24
194 28
195 82
196 48
197 105
207 13
209 22
211 222
212 204
213 69
225 42
267 58
296 425
297 186
298 4
299 3

$$$$

     RDKit          2D

 20 20  0  0  1  0  0  0  0  0999 V2000
    5.9930   -3.3985    0.0000 C   0  0  0  0  0  0  0  0  0  0  0  0
    4.0649   -1.1002    0.0000 C   0  0  0  0  0  0  0  0  0  0  0  0
   -1.6656    1.8697    0.0000 C   0  0  0  0  0  0  0  0  0  0  0  0
    0.1463   -3.2906    0.0000 C   0  0  0  0  0  0  0  0  0  0  0  0
   -5.5630   -0.3811    0.0000 C   0  0  0  0  0  0  0  0  0  0  0  0
    2.2317   -0.3807    0.0000 C   0  0  0  0  0  0  0  0  0  0  0  0
    4.5158   -3.6588    0.0000 C   0  0  0  0  0  0  0  0  0  0  0  0
   -2.9654   -1.8819    0.0000 C   0  0  0  0  0  0  0  0  0  0  0  0
    3.5517   -2.5096    0.0000 C   0  0  0  0  0  0  0  0  0  0  0  0
   -1.6654    0.3697    0.0000 C   0  0  0  0  0  0  0  0  0  0  0  0
   -2.9649   -0.3811    0.0000 C   0  0  0  0  0  0  0  0  0  0  0  0
   -1.6664   -2.6319    0.0000 C   0  0  0  0  0  0  0  0  0  0  0  0
   -0.3664   -0.3803    0.0000 C   0  0  0  0  0  0  0  0  0  0  0  0
    2.0745   -2.7700    0.0000 C   0  0  0  0  0  0  0  0  0  0  0  0
   -0.3668   -1.8811    0.0000 C   0  0  0  0  0  0  0  0  0  0  0  0
   -1.6661   -4.1319    0.0000 O   0  0  0  0  0  0  0  0  0  0  0  0
    1.5613   -4.1794    0.0000 O   0  0  0  0  0  0  0  0  0  0  0  0
   -4.2639    0.3689    0.0000 O   0  0  0  0  0  0  0  0  0  0  0  0
    0.9328    0.3695    0.0000 O   0  0  0  0  0  0  0  0  0  0  0  0
    1.1104   -1.6208    0.0000 O   0  0  0  0  0  0  0  0  0  0  0  0
  7  1  1  0
  9  2  1  6
  9  7  1  0
 10  3  1  0
 11  8  2  0
 11 10  1  0
 12  8  1  0
 13 10  2  0
 14  9  1  0
 15  4  1  1
 15 12  1  0
 15 13  1  0
 16 12  2  0
 17 14  2  0
 18  5  1  0
 18 11  1  0
 19  6  1  0
 19 13  1  0
 20 14  1  0
 15 20  1  0
M  END
>  <NAME>  (3437) 
3,5-DIMETHOXY-4,6-DIMETHYL-(6S)-((2R)-2-METHYLBUTYRYLOXY)-2,4-CYCLOHEXADIEN-1-ONE

>  <SYNONYMS>  (3437) 


>  <SPECTRUM TYPE>  (3437) 
MS1

>  <INSTRUMENT TYPE>  (3437) 
EI-B

>  <INSTRUMENT>  (3437) 
JEOL JMS-D-300

>  <ION MODE>  (3437) 
P

>  <INCHIKEY>  (3437) 
NIXQRWMKFDVWDZ-RFAUZJTJSA-N

>  <FORMULA>  (3437) 
C15H22O5

>  <EXACT MASS>  (3437) 
282.146723804

>  <MW>  (3437) 
282

>  <ID>  (3437) 
JP006663

>  <CONTRIBUTOR>  (3437) 
University of Tokyo Team, {Faculty of Engineering, University of Tokyo

>  <COMMENT>  (3437) 
SMILES=CCC([H])(C)C(=O)OC(C)(C(=O)1)C(OC)=C(C)C(OC)=C([H])1
InChI=InChI=1S/C15H22O5/c1-7-9(2)14(17)20-15(4)12(16)8-11(18-5)10(3)13(15)19-6/h8-9H,7H2,1-6H3/t9-,15-/m1/s1
computed SMILES=O=C(OC1(C(=O)C=C(OC)C(=C1OC)C)C)C(C)CC
accession=JP006663
date=2016.01.19 (Created 2008.10.21, modified 2011.05.06)
author=MASS SPECTROSCOPY SOC. OF JAPAN (MSSJ)
license=CC BY-NC-SA
exact mass=282.14672
ionization energy=70 eV
ion type=[M]+*
computed spectral entropy=2.6743636277529093
computed normalized entropy=0.7025481336839692
SPLASH=splash10-0a4i-5900000000-30a4c452c65192d9b99e
submitter=submitter = University of Tokyo Team (Faculty of Engineering, University of Tokyo)
MoNA Rating=3.75

>  <NUM PEAKS>  (3437) 
45

>  <MASS SPECTRAL PEAKS>  (3437) 
39 6
40 1.5
41 19
42 0.15
44 1.5
51 1.5
52 2.5
53 0.35
55 4.5
57 79
58 3.5
59 0.2
67 4.5
69 5.5
77 4
79 0.25
83 7.5
85 12
95 2.5
107 0.1
109 2.5
121 2.5
123 3.5
136 0.3
137 2
138 4
139 5
140 0.8
141 3.5
151 7
153 4.5
154 0.25
155 99.99
156 10.5
166 25
167 0.35
181 5
182 5
183 3.5
197 0.6
198 56
199 6
239 1
282 1.7
283 3

>  <PREDICTED SPECTRUM>  (3437) 
27 0
39 90
40 11
41 228
42 100
51 63
52 29
53 114
54 11
55 177
56 57
57 599
58 56
59 59
65 69
67 16
69 135
71 5
77 85
78 11
79 76
81 66
82 34
83 112
84 1
85 169
91 64
95 180
107 30
109 73
110 24
111 17
113 31
114 23
115 54
116 66
120 13
121 76
122 65
123 119
124 51
127 51
137 181
138 201
139 196
140 134
141 142
151 5
152 37
153 34
154 68
155 999
156 546
157 149
165 165
166 213
167 32
181 99
182 106
183 239
197 84
198 713
199 293
209 12
282 191
283 102

$$$$

     RDKit          2D

 20 20  0  0  1  0  0  0  0  0999 V2000
    5.6682   -2.8359    0.0000 C   0  0  0  0  0  0  0  0  0  0  0  0
    3.7401   -0.5376    0.0000 C   0  0  0  0  0  0  0  0  0  0  0  0
   -1.9904    2.4323    0.0000 C   0  0  0  0  0  0  0  0  0  0  0  0
   -0.1784   -2.7280    0.0000 C   0  0  0  0  0  0  0  0  0  0  0  0
   -5.8878    0.1814    0.0000 C   0  0  0  0  0  0  0  0  0  0  0  0
   -3.2898   -4.3196    0.0000 C   0  0  0  0  0  0  0  0  0  0  0  0
    4.1910   -3.0963    0.0000 C   0  0  0  0  0  0  0  0  0  0  0  0
   -3.2902   -1.3194    0.0000 C   0  0  0  0  0  0  0  0  0  0  0  0
    3.2269   -1.9471    0.0000 C   0  0  0  0  0  0  0  0  0  0  0  0
   -1.9902    0.9323    0.0000 C   0  0  0  0  0  0  0  0  0  0  0  0
   -3.2897    0.1814    0.0000 C   0  0  0  0  0  0  0  0  0  0  0  0
   -1.9911   -2.0694    0.0000 C   0  0  0  0  0  0  0  0  0  0  0  0
   -0.6911    0.1823    0.0000 C   0  0  0  0  0  0  0  0  0  0  0  0
    1.7497   -2.2074    0.0000 C   0  0  0  0  0  0  0  0  0  0  0  0
   -0.6916   -1.3186    0.0000 C   0  0  0  0  0  0  0  0  0  0  0  0
    0.6080    0.9321    0.0000 O   0  0  0  0  0  0  0  0  0  0  0  0
    1.2365   -3.6169    0.0000 O   0  0  0  0  0  0  0  0  0  0  0  0
   -4.5887    0.9314    0.0000 O   0  0  0  0  0  0  0  0  0  0  0  0
   -1.9909   -3.5694    0.0000 O   0  0  0  0  0  0  0  0  0  0  0  0
    0.7856   -1.0582    0.0000 O   0  0  0  0  0  0  0  0  0  0  0  0
  7  1  1  0
  9  2  1  6
  9  7  1  0
 10  3  1  0
 11  8  1  0
 11 10  2  0
 12  8  2  0
 13 10  1  0
 14  9  1  0
 15  4  1  1
 15 12  1  0
 15 13  1  0
 16 13  2  0
 17 14  2  0
 18  5  1  0
 18 11  1  0
 19  6  1  0
 19 12  1  0
 20 14  1  0
 15 20  1  0
M  END
>  <NAME>  (3438) 
3,5-DIMETHOXY-2,6-DIMETHYL-(6R)-((2R)-2-METHYLBUTYRYLOXY)-2,4-CYCLOHEXADIEN-1-ONE

>  <SYNONYMS>  (3438) 
WASABIDIENONE-A METHYL ETHER

>  <SPECTRUM TYPE>  (3438) 
MS1

>  <INSTRUMENT TYPE>  (3438) 
EI-B

>  <INSTRUMENT>  (3438) 
JEOL JMS-D-300

>  <ION MODE>  (3438) 
P

>  <INCHIKEY>  (3438) 
MDMXRNQKNMWNRD-RFAUZJTJSA-N

>  <FORMULA>  (3438) 
C15H22O5

>  <EXACT MASS>  (3438) 
282.146723804

>  <MW>  (3438) 
282

>  <ID>  (3438) 
JP006662

>  <CONTRIBUTOR>  (3438) 
University of Tokyo Team, {Faculty of Engineering, University of Tokyo

>  <COMMENT>  (3438) 
SMILES=CCC([H])(C)C(=O)OC(C)(C(=O)1)C(OC)=C([H])C(OC)=C(C)1
InChI=InChI=1S/C15H22O5/c1-7-9(2)14(17)20-15(4)12(19-6)8-11(18-5)10(3)13(15)16/h8-9H,7H2,1-6H3/t9-,15-/m1/s1
computed SMILES=O=C(OC1(C(=O)C(=C(OC)C=C1OC)C)C)C(C)CC
accession=JP006662
date=2016.01.19 (Created 2008.10.21, modified 2011.05.06)
author=MASS SPECTROSCOPY SOC. OF JAPAN (MSSJ)
license=CC BY-NC-SA
exact mass=282.14672
ionization energy=70 eV
ion type=[M]+*
computed spectral entropy=2.5269545306699155
computed normalized entropy=0.6334832381308695
SPLASH=splash10-0a4i-3900000000-fc58bddac7dd0196f99c
submitter=submitter = University of Tokyo Team (Faculty of Engineering, University of Tokyo)
MoNA Rating=3.75

>  <NUM PEAKS>  (3438) 
54

>  <MASS SPECTRAL PEAKS>  (3438) 
39 2
41 7
42 1
43 1
53 1
55 2
57 55
58 0.3
59 2
67 2
69 2
77 0.2
82 2
83 3
84 1
85 1.1
91 1
95 2
105 2
106 0.1
107 1
108 1
123 2
125 0.1
127 1
137 1
138 3
139 0.1
140 2
141 2
149 1
151 0.1
153 4.5
154 1
155 99.99
156 1
157 1
165 1
166 15.5
167 0.3
168 1
169 7
170 1
181 0.15
182 3
183 3
184 1.5
197 0.4
198 39
199 3.5
205 1.5
239 0.15
282 16
283 2.5

>  <PREDICTED SPECTRUM>  (3438) 
29 17
39 69
41 229
42 67
43 140
51 54
52 26
53 80
55 100
56 37
57 573
59 0
65 70
66 11
67 32
69 120
71 43
77 140
78 69
79 71
81 41
83 64
84 37
85 119
91 40
95 140
107 13
109 61
110 26
111 36
115 51
116 40
120 20
121 47
122 33
123 109
124 33
127 101
128 48
137 213
138 163
139 56
140 38
141 113
152 43
153 125
154 86
155 999
156 300
157 46
165 102
166 199
167 36
168 46
169 258
170 117
180 19
181 71
182 126
183 157
197 91
198 501
199 173
282 280
283 140

$$$$

     RDKit          2D

 14 14  0  0  1  0  0  0  0  0999 V2000
    2.0789   -2.0602    0.0000 C   0  0  0  0  0  0  0  0  0  0  0  0
    5.9762    0.1908    0.0000 C   0  0  0  0  0  0  0  0  0  0  0  0
    0.4441    2.0892    0.0000 C   0  0  0  0  0  0  0  0  0  0  0  0
   -1.4841    2.0892    0.0000 C   0  0  0  0  0  0  0  0  0  0  0  0
   -1.8200   -1.3100    0.0000 C   0  0  0  0  0  0  0  0  0  0  0  0
   -0.5200   -2.0600    0.0000 C   0  0  0  0  0  0  0  0  0  0  0  0
    3.3781    0.1904    0.0000 C   0  0  0  0  0  0  0  0  0  0  0  0
    2.0789    0.9402    0.0000 C   0  0  0  0  0  0  0  0  0  0  0  0
   -1.8200    0.1900    0.0000 C   0  0  0  0  0  0  0  0  0  0  0  0
    0.7800   -1.3100    0.0000 C   0  0  0  0  0  0  0  0  0  0  0  0
    4.6770    0.9406    0.0000 C   0  0  0  0  0  0  0  0  0  0  0  0
    0.7800    0.1900    0.0000 C   0  0  0  0  0  0  0  0  0  0  0  0
   -0.5200    0.9400    0.0000 C   0  0  0  0  0  0  0  0  0  0  0  0
    4.6768    2.4406    0.0000 O   0  0  0  0  0  0  0  0  0  0  0  0
  6  5  1  0
  7  8  2  0
  9  5  1  0
 10  1  1  0
 10  6  2  0
 11  2  1  0
 11  7  1  0
 12  8  1  1
 12 10  1  0
 13  3  1  0
 13  4  1  0
 13  9  1  0
 13 12  1  0
 14 11  2  0
M  END
>  <NAME>  (3439) 
ALPHA-IONONE

>  <SYNONYMS>  (3439) 
4-(2,6,6-TRIMETHYL-2-CYCLOHEXEN-1-YL)-3-BUTEN-2-ONE

>  <SPECTRUM TYPE>  (3439) 
MS1

>  <INSTRUMENT TYPE>  (3439) 
EI-B

>  <INSTRUMENT>  (3439) 
HITACHI M-80B

>  <ION MODE>  (3439) 
P

>  <INCHIKEY>  (3439) 
UZFLPKAIBPNNCA-GUOLPTJISA-N

>  <FORMULA>  (3439) 
C13H20O

>  <EXACT MASS>  (3439) 
192.15141526

>  <MW>  (3439) 
192

>  <ID>  (3439) 
JP006612

>  <CONTRIBUTOR>  (3439) 
University of Tokyo Team, {Faculty of Engineering, University of Tokyo

>  <COMMENT>  (3439) 
SMILES=CC(=O)C([H])=C([H])C([H])(C(C)=1)C(C)(C)CCC([H])1
InChI=InChI=1S/C13H20O/c1-10-6-5-9-13(3,4)12(10)8-7-11(2)14/h6-8,12H,5,9H2,1-4H3/b8-7+/t12-/m0/s1
computed SMILES=O=C(C=CC1C(=CCCC1(C)C)C)C
accession=JP006612
date=2016.01.19 (Created 2008.10.21, modified 2011.05.06)
author=HISAHIRO HAGIWARA, CHEMICAL RESEARCH INSTITUTE OF NON-AQUEOUSSOLUTIONS TOHOKU UNIV.
license=CC BY-NC-SA
exact mass=192.15142
ionization energy=70 eV
ion type=[M]+*
computed spectral entropy=3.2126206256809304
computed normalized entropy=0.7911995359463508
SPLASH=splash10-0006-9600000000-93c21f85616fb52a6763
submitter=submitter = University of Tokyo Team (Faculty of Engineering, University of Tokyo)
MoNA Rating=3.75

>  <NUM PEAKS>  (3439) 
58

>  <MASS SPECTRAL PEAKS>  (3439) 
15 3.81
18 2.01
27 10.77
29 5.82
39 16.77
41 27.41
42 2.92
43 73.91
44 2.01
45 1.7
51 5.51
52 2.75
53 10.29
55 9.08
56 3.71
57 1.35
63 2.06
65 8.88
66 2.01
67 5.31
69 4.14
71 1.85
77 28.44
78 5.68
79 8.9
80 2.02
81 5.36
91 29.66
92 11.15
93 79.04
94 6.6
95 4.29
96 1.16
103 2.15
105 4.75
107 8.1
108 2.94
109 16.94
110 1.92
112 1.76
115 1.54
117 1.84
119 4.39
121 99.99
122 8.67
123 1.54
131 1.35
133 1.57
134 1.91
135 6.32
136 53.76
137 8.76
149 3.38
150 2.13
159 1.23
177 5.71
192 13.44
193 1.57

>  <PREDICTED SPECTRUM>  (3439) 
26 26
27 170
28 69
29 171
38 51
39 282
40 104
41 493
42 143
43 750
44 72
45 42
49 13
50 120
51 256
52 169
53 320
54 103
55 219
56 110
57 171
58 110
59 10
60 15
61 20
62 57
63 170
64 99
65 293
66 168
67 275
68 155
69 291
70 92
71 158
72 20
74 68
75 97
76 76
77 470
78 198
79 462
80 249
81 226
82 135
83 120
85 64
86 42
89 55
91 434
92 299
93 882
94 427
95 325
96 91
97 62
99 46
101 23
102 7
103 137
104 33
105 265
106 137
107 694
108 319
109 281
110 167
111 188
112 75
115 167
116 37
117 166
118 162
119 270
120 195
121 999
122 290
123 125
124 9
128 5
129 45
130 37
131 161
133 147
134 180
135 125
136 836
137 250
138 69
144 13
145 6
147 76
148 92
149 250
150 82
151 25
152 26
159 121
161 62
162 23
163 102
164 49
174 6
175 4
177 336
178 103
190 2
191 72
192 411
193 162

$$$$

     RDKit          2D

 12 13  0  0  1  0  0  0  0  0999 V2000
   -4.2681   -0.7504    0.0000 C   0  0  0  0  0  0  0  0  0  0  0  0
   -2.9687   -3.0002    0.0000 C   0  0  0  0  0  0  0  0  0  0  0  0
    1.6796    2.0493    0.0000 C   0  0  0  0  0  0  0  0  0  0  0  0
   -1.6700    0.7500    0.0000 C   0  0  0  0  0  0  0  0  0  0  0  0
   -0.3700   -1.5000    0.0000 C   0  0  0  0  0  0  0  0  0  0  0  0
   -2.9689   -1.5002    0.0000 C   0  0  0  0  0  0  0  0  0  0  0  0
   -1.6700   -0.7500    0.0000 C   0  0  0  0  0  0  0  0  0  0  0  0
   -0.3700    1.5000    0.0000 C   0  0  0  0  0  0  0  0  0  0  0  0
    0.9300   -0.7500    0.0000 C   0  0  0  0  0  0  0  0  0  0  0  0
    0.9300    0.7500    0.0000 C   0  0  0  0  0  0  0  0  0  0  0  0
   -0.3700    3.0000    0.0000 O   0  0  0  0  0  0  0  0  0  0  0  0
    2.2300   -0.0000    0.0000 O   0  0  0  0  0  0  0  0  0  0  0  0
  6  1  2  0
  6  2  1  0
  7  4  1  0
  7  5  1  0
  7  6  1  6
  8  4  1  0
  9  5  1  0
 10  3  1  0
 10  8  1  0
 10  9  1  0
 11  8  2  0
 12  9  1  0
 12 10  1  0
M  END
>  <NAME>  (3440) 
CARVONE-1,6-OXIDE

>  <SYNONYMS>  (3440) 


>  <SPECTRUM TYPE>  (3440) 
MS1

>  <INSTRUMENT TYPE>  (3440) 
EI-B

>  <INSTRUMENT>  (3440) 
HITACHI M-80B

>  <ION MODE>  (3440) 
P

>  <INCHIKEY>  (3440) 
YGMNGQDLUQECTO-CUUXFQNZSA-N

>  <FORMULA>  (3440) 
C10H14O2

>  <EXACT MASS>  (3440) 
166.099379688

>  <MW>  (3440) 
166

>  <ID>  (3440) 
JP006611

>  <CONTRIBUTOR>  (3440) 
University of Tokyo Team, {Faculty of Engineering, University of Tokyo

>  <COMMENT>  (3440) 
SMILES=CC(=C)C([H])(C2)CC(O1)C(C)(C(=O)2)1
InChI=InChI=1S/C10H14O2/c1-6(2)7-4-8(11)10(3)9(5-7)12-10/h7,9H,1,4-5H2,2-3H3/t7-,9?,10?/m1/s1
computed SMILES=O=C1CC(C(=C)C)CC2OC12C
accession=JP006611
date=2016.01.19 (Created 2008.10.21, modified 2011.05.06)
author=HISAHIRO HAGIWARA, CHEMICAL RESEARCH INSTITUTE OF NON-AQUEOUSSOLUTIONS TOHOKU UNIV.
license=CC BY-NC-SA
exact mass=166.09938
ionization energy=70 eV
ion type=[M]+*
computed spectral entropy=3.34190954987775
computed normalized entropy=0.8302155455309836
SPLASH=splash10-000f-9100000000-0098c09f66dbfa00234b
submitter=submitter = University of Tokyo Team (Faculty of Engineering, University of Tokyo)
MoNA Rating=3.75

>  <NUM PEAKS>  (3440) 
56

>  <MASS SPECTRAL PEAKS>  (3440) 
15 4.38
26 1.83
27 23.38
29 5.7
38 1.48
39 29.99
40 4.99
41 28.77
42 4.29
43 99.99
44 2.16
45 1.42
50 1.7
51 4.28
52 2.57
53 20.44
54 3.23
55 22.37
56 1.91
57 1.19
63 1.27
65 3.66
66 2.57
67 38.77
68 21.45
69 5.2
70 3.57
71 12.67
77 4.23
78 1.16
79 12.76
80 3.45
81 18.49
82 11.41
83 2.3
85 45.55
86 1.69
91 3.02
93 3.37
94 3.52
95 28.01
96 9.73
97 6.68
105 3.46
107 2.36
108 1.94
109 15.71
110 3.03
120 3.87
121 7.52
122 1.92
123 29.55
124 3
137 4.55
138 5.86
151 1.51

>  <PREDICTED SPECTRUM>  (3440) 
26 41
27 208
28 87
29 121
31 35
35 16
36 75
37 39
38 142
39 547
40 310
41 905
42 326
43 841
44 184
45 134
47 70
49 59
50 122
51 293
52 270
53 599
54 303
55 476
56 237
57 164
58 83
59 111
60 49
61 52
62 61
63 176
64 132
65 400
66 251
67 790
68 790
69 999
70 375
71 318
72 65
73 34
74 78
75 116
76 57
77 273
78 106
79 367
80 218
81 459
82 243
83 353
84 162
85 211
86 84
87 156
88 76
89 107
90 31
91 252
92 376
93 407
94 230
95 344
96 248
97 346
98 356
99 221
100 95
101 25
103 76
104 19
105 150
106 9
107 450
108 333
109 535
110 110
111 153
112 108
113 89
115 103
121 185
122 156
123 324
124 144
125 115
126 141
130 128
131 254
132 53
133 14
136 26
137 61
138 49
139 51
151 144
153 1
166 265
167 94
168 74

$$$$

     RDKit          2D

 11 12  0  0  1  0  0  0  0  0999 V2000
    3.1368   -2.2085    0.0000 C   0  0  0  0  0  0  0  0  0  0  0  0
    0.8040   -3.3521    0.0000 C   0  0  0  0  0  0  0  0  0  0  0  0
   -1.0087    2.5399    0.0000 C   0  0  0  0  0  0  0  0  0  0  0  0
    2.2800   -0.0100    0.0000 C   0  0  0  0  0  0  0  0  0  0  0  0
   -0.3400   -1.3000    0.0000 C   0  0  0  0  0  0  0  0  0  0  0  0
    1.6403   -2.1069    0.0000 C   0  0  0  0  0  0  0  0  0  0  0  0
   -0.4700    1.1400    0.0000 C   0  0  0  0  0  0  0  0  0  0  0  0
    0.9800    0.7500    0.0000 C   0  0  0  0  0  0  0  0  0  0  0  0
   -1.2900   -0.1300    0.0000 C   0  0  0  0  0  0  0  0  0  0  0  0
    0.9800   -0.7600    0.0000 C   0  0  0  0  0  0  0  0  0  0  0  0
   -2.7878   -0.2115    0.0000 O   0  0  0  0  0  0  0  0  0  0  0  0
  6  1  1  0
  6  2  1  0
  7  3  1  6
  8  4  1  1
  8  7  1  0
  9  5  1  0
  9  7  1  0
 10  4  1  0
 10  5  1  0
 10  6  1  6
 10  8  1  0
 11  9  2  0
M  END
>  <NAME>  (3441) 
THUJONE

>  <SYNONYMS>  (3441) 
4-METHYL-1ALPHA-(1-METHYLETHYL)BICYCLO(3.1.0)HEXAN-3-ONE

>  <SPECTRUM TYPE>  (3441) 
MS1

>  <INSTRUMENT TYPE>  (3441) 
EI-B

>  <INSTRUMENT>  (3441) 
HITACHI M-80B

>  <ION MODE>  (3441) 
P

>  <INCHIKEY>  (3441) 
USMNOWBWPHYOEA-MRTMQBJTSA-N

>  <FORMULA>  (3441) 
C10H16O

>  <EXACT MASS>  (3441) 
152.120115132

>  <MW>  (3441) 
152

>  <ID>  (3441) 
JP006608

>  <CONTRIBUTOR>  (3441) 
University of Tokyo Team, {Faculty of Engineering, University of Tokyo

>  <COMMENT>  (3441) 
SMILES=CC(C)C(C2)(C1)C([H])1C([H])(C)C(=O)2
InChI=InChI=1S/C10H16O/c1-6(2)10-4-8(10)7(3)9(11)5-10/h6-8H,4-5H2,1-3H3/t7-,8-,10+/m1/s1
computed SMILES=O=C1CC2(CC2C1C)C(C)C
accession=JP006608
date=2016.01.19 (Created 2008.10.21, modified 2011.05.06)
author=HISAHIRO HAGIWARA, CHEMICAL RESEARCH INSTITUTE OF NON-AQUEOUSSOLUTIONS TOHOKU UNIV.
license=CC BY-NC-SA
exact mass=152.12012
ionization energy=70 eV
ion type=[M]+*
computed spectral entropy=3.1522606581717705
computed normalized entropy=0.8330081108826006
SPLASH=splash10-0159-9100000000-9e3f8c13550e0c33d603
submitter=submitter = University of Tokyo Team (Faculty of Engineering, University of Tokyo)
MoNA Rating=3.75

>  <NUM PEAKS>  (3441) 
44

>  <MASS SPECTRAL PEAKS>  (3441) 
15 2.43
26 1.65
27 38.21
28 8.5
29 19.88
38 1.72
39 44.86
40 4.97
41 78.2
42 4.99
43 16.25
50 3.03
51 8.6
52 4.47
53 29.19
54 6.97
55 38.29
56 5.7
63 1.75
65 6.7
66 4.33
67 53.61
68 67.4
69 59.14
70 9.2
77 9.65
78 1.87
79 14.45
80 8.01
81 99.99
82 25.19
83 2.9
91 4.31
93 3.94
94 1.53
95 44.78
96 4.15
97 1.36
107 1.3
109 49.15
110 66.75
111 5.2
124 5.81
152 6.47

>  <PREDICTED SPECTRUM>  (3441) 
26 23
27 234
28 44
29 145
31 1
38 41
39 335
40 178
41 635
42 254
43 437
44 55
45 50
50 112
51 237
52 154
53 377
54 252
55 608
56 312
57 167
58 6
59 20
62 46
63 149
64 52
65 279
66 178
67 663
68 469
69 671
70 256
71 96
75 17
76 28
77 323
78 170
79 393
80 267
81 710
82 508
83 352
84 133
85 9
91 332
92 116
93 332
94 225
95 557
96 409
97 335
98 163
99 5
105 120
106 116
107 288
108 312
109 999
110 530
111 190
119 156
120 26
121 82
122 9
123 221
124 217
125 90
134 62
135 5
137 402
138 120
151 80
152 628
153 214
154 23

$$$$

     RDKit          2D

 11 11  0  0  0  0  0  0  0  0999 V2000
   -3.5376   -0.2051    0.0000 C   0  0  0  0  0  0  0  0  0  0  0  0
   -2.2386   -2.4551    0.0000 C   0  0  0  0  0  0  0  0  0  0  0  0
    2.9576    2.0449    0.0000 C   0  0  0  0  0  0  0  0  0  0  0  0
    0.3590    2.0458    0.0000 C   0  0  0  0  0  0  0  0  0  0  0  0
   -0.9400    1.2958    0.0000 C   0  0  0  0  0  0  0  0  0  0  0  0
    1.6590   -0.2059    0.0000 C   0  0  0  0  0  0  0  0  0  0  0  0
   -2.2386   -0.9551    0.0000 C   0  0  0  0  0  0  0  0  0  0  0  0
    1.6585    1.2949    0.0000 C   0  0  0  0  0  0  0  0  0  0  0  0
   -0.9395   -0.2051    0.0000 C   0  0  0  0  0  0  0  0  0  0  0  0
    0.3600   -0.9559    0.0000 C   0  0  0  0  0  0  0  0  0  0  0  0
    0.3597   -2.4559    0.0000 O   0  0  0  0  0  0  0  0  0  0  0  0
  5  4  1  0
  7  1  1  0
  7  2  1  0
  8  3  1  0
  8  4  1  0
  8  6  1  0
  9  5  1  0
  9  7  2  0
 10  6  1  0
 10  9  1  0
 11 10  2  0
M  END
>  <NAME>  (3442) 
PULEGONE

>  <SYNONYMS>  (3442) 
5-METHYL-2-(1-METHYLETHYLIDENE)CYCLOHEXANONE

>  <SPECTRUM TYPE>  (3442) 
MS1

>  <INSTRUMENT TYPE>  (3442) 
EI-B

>  <INSTRUMENT>  (3442) 
HITACHI M-80B

>  <ION MODE>  (3442) 
P

>  <INCHIKEY>  (3442) 
NZGWDASTMWDZIW-UHFFFAOYSA-N

>  <FORMULA>  (3442) 
C10H16O

>  <EXACT MASS>  (3442) 
152.120115132

>  <MW>  (3442) 
152

>  <ID>  (3442) 
JP006606

>  <CONTRIBUTOR>  (3442) 
University of Tokyo Team, {Faculty of Engineering, University of Tokyo

>  <COMMENT>  (3442) 
SMILES=CC(C1)CC(=O)C(C1)=C(C)C
InChI=InChI=1S/C10H16O/c1-7(2)9-5-4-8(3)6-10(9)11/h8H,4-6H2,1-3H3
computed SMILES=O=C1C(=C(C)C)CCC(C)C1
accession=JP006606
date=2016.01.19 (Created 2008.10.21, modified 2011.05.06)
author=HISAHIRO HAGIWARA, CHEMICAL RESEARCH INSTITUTE OF NON-AQUEOUSSOLUTIONS TOHOKU UNIV.
license=CC BY-NC-SA
exact mass=152.12012
ionization energy=70 eV
ion type=[M]+*
computed spectral entropy=3.1822504109509713
computed normalized entropy=0.8134539103004825
SPLASH=splash10-0f89-9200000000-103da19d7e73140f53a7
submitter=submitter = University of Tokyo Team (Faculty of Engineering, University of Tokyo)
MoNA Rating=3.75

>  <NUM PEAKS>  (3442) 
50

>  <MASS SPECTRAL PEAKS>  (3442) 
15 3.35
26 1.36
27 22.89
29 11.4
38 1.92
39 40.33
40 5.23
41 52.62
42 8.44
43 11.54
50 2.06
51 7.33
52 4.46
53 23.94
54 5.67
55 12.65
56 2.52
63 2.32
65 6.81
66 3.64
67 66.79
68 20.06
69 19.72
70 2.03
77 7.23
78 2.11
79 8.13
80 8.39
81 99.99
82 35.21
83 3.69
91 4.5
92 1.04
93 2.47
94 1.8
95 12.81
96 2.72
97 1.59
105 1.21
107 1.66
108 1.47
109 42.2
110 6.76
119 2.16
123 1.92
124 1.49
137 21.39
138 1.77
152 56.47
153 5.75

>  <PREDICTED SPECTRUM>  (3442) 
26 67
27 312
28 134
29 228
37 25
38 92
39 501
40 254
41 799
42 274
43 258
50 119
51 270
52 255
53 584
54 328
55 383
56 231
62 32
63 112
64 37
65 282
66 215
67 999
68 664
69 479
70 210
71 20
77 301
78 133
79 282
80 183
81 655
82 519
83 232
84 142
85 4
91 163
92 38
93 148
94 155
95 487
96 313
97 191
98 17
105 89
107 122
108 137
109 527
110 417
111 143
112 14
119 110
122 22
123 232
124 187
125 59
134 61
135 60
137 438
138 114
151 37
152 636
153 192

$$$$

     RDKit          2D

 11 11  0  0  0  0  0  0  0  0999 V2000
   -3.5376   -0.2051    0.0000 C   0  0  0  0  0  0  0  0  0  0  0  0
   -2.2386   -2.4551    0.0000 C   0  0  0  0  0  0  0  0  0  0  0  0
    2.9576    2.0449    0.0000 C   0  0  0  0  0  0  0  0  0  0  0  0
    0.3590    2.0458    0.0000 C   0  0  0  0  0  0  0  0  0  0  0  0
   -0.9400    1.2958    0.0000 C   0  0  0  0  0  0  0  0  0  0  0  0
    1.6590   -0.2059    0.0000 C   0  0  0  0  0  0  0  0  0  0  0  0
   -2.2386   -0.9551    0.0000 C   0  0  0  0  0  0  0  0  0  0  0  0
    1.6585    1.2949    0.0000 C   0  0  0  0  0  0  0  0  0  0  0  0
   -0.9395   -0.2051    0.0000 C   0  0  0  0  0  0  0  0  0  0  0  0
    0.3600   -0.9559    0.0000 C   0  0  0  0  0  0  0  0  0  0  0  0
    0.3597   -2.4559    0.0000 O   0  0  0  0  0  0  0  0  0  0  0  0
  5  4  1  0
  7  1  1  0
  7  2  1  0
  8  3  1  0
  8  4  1  0
  8  6  2  0
  9  5  1  0
  9  7  1  0
 10  6  1  0
 10  9  1  0
 11 10  2  0
M  END
>  <NAME>  (3443) 
PIPERITONE

>  <SYNONYMS>  (3443) 
3-METHYL-6-ISOPROPYLCYCLOHEX-2-EN-1-ONE

>  <SPECTRUM TYPE>  (3443) 
MS1

>  <INSTRUMENT TYPE>  (3443) 
EI-B

>  <INSTRUMENT>  (3443) 
HITACHI M-80B

>  <ION MODE>  (3443) 
P

>  <INCHIKEY>  (3443) 
YSTPAHQEHQSRJD-UHFFFAOYSA-N

>  <FORMULA>  (3443) 
C10H16O

>  <EXACT MASS>  (3443) 
152.120115132

>  <MW>  (3443) 
152

>  <ID>  (3443) 
JP006605

>  <CONTRIBUTOR>  (3443) 
University of Tokyo Team, {Faculty of Engineering, University of Tokyo

>  <COMMENT>  (3443) 
SMILES=CC(C)C(C1)C(=O)C=C(C)C1
InChI=InChI=1S/C10H16O/c1-7(2)9-5-4-8(3)6-10(9)11/h6-7,9H,4-5H2,1-3H3
computed SMILES=O=C1C=C(C)CCC1C(C)C
accession=JP006605
date=2016.01.19 (Created 2008.10.21, modified 2011.05.06)
author=HISAHIRO HAGIWARA, CHEMICAL RESEARCH INSTITUTE OF NON-AQUEOUSSOLUTIONS TOHOKU UNIV.
license=CC BY-NC-SA
exact mass=152.12012
ionization energy=70 eV
ion type=[M]+*
computed spectral entropy=2.9537839360479126
computed normalized entropy=0.7805591743005432
SPLASH=splash10-01qi-9300000000-f92830f958dd7b7816c0
submitter=submitter = University of Tokyo Team (Faculty of Engineering, University of Tokyo)
MoNA Rating=3.75

>  <NUM PEAKS>  (3443) 
44

>  <MASS SPECTRAL PEAKS>  (3443) 
15 1.59
27 22.81
28 9.96
29 7.91
38 1.85
39 37.52
40 3.21
41 34.65
42 3.69
43 5.88
50 1.54
51 4.12
52 2.78
53 15.24
54 20.22
55 9.82
56 1.01
63 1.37
65 3.35
66 2.01
67 7.3
68 1.49
69 3.72
77 4.51
78 1.31
79 4.26
81 6.27
82 99.99
83 5.61
91 3.32
94 1.45
95 30.39
96 2.21
107 1.2
108 1.16
109 20.39
110 78.88
111 4.88
123 1.07
124 4.3
137 19.08
138 1.55
152 9.52
153 1.23

>  <PREDICTED SPECTRUM>  (3443) 
38 28
39 311
40 155
41 388
42 183
43 331
44 1
50 49
51 197
52 150
53 360
54 184
55 176
63 84
65 209
66 88
67 999
68 603
69 437
70 45
77 139
78 12
79 165
81 337
82 725
83 221
84 109
91 173
92 12
93 65
94 53
95 672
96 18
107 71
109 760
110 786
111 157
119 62
124 218
137 399
138 36
151 10
152 598
153 184

$$$$

     RDKit          2D

 11 12  0  0  0  0  0  0  0  0999 V2000
    1.2027   -2.3196    0.0000 C   0  0  0  0  0  0  0  0  0  0  0  0
    2.1672   -0.6497    0.0000 C   0  0  0  0  0  0  0  0  0  0  0  0
   -0.6100    2.8400    0.0000 C   0  0  0  0  0  0  0  0  0  0  0  0
   -1.9100   -0.9100    0.0000 C   0  0  0  0  0  0  0  0  0  0  0  0
   -1.9100    0.5900    0.0000 C   0  0  0  0  0  0  0  0  0  0  0  0
   -1.3600   -0.1500    0.0000 C   0  0  0  0  0  0  0  0  0  0  0  0
   -0.6100   -1.6600    0.0000 C   0  0  0  0  0  0  0  0  0  0  0  0
    0.6900    0.5900    0.0000 C   0  0  0  0  0  0  0  0  0  0  0  0
    0.6900   -0.9100    0.0000 C   0  0  0  0  0  0  0  0  0  0  0  0
   -0.6100    1.3400    0.0000 C   0  0  0  0  0  0  0  0  0  0  0  0
    1.9889    1.3402    0.0000 O   0  0  0  0  0  0  0  0  0  0  0  0
  5  4  1  0
  7  4  1  0
  7  6  1  0
  9  1  1  0
  9  2  1  0
  9  7  1  0
  9  8  1  0
 10  3  1  0
 10  5  1  0
 10  6  1  0
 10  8  1  0
 11  8  2  0
M  END
>  <NAME>  (3444) 
FENCHONE

>  <SYNONYMS>  (3444) 
1,3,3-TRIMETHYLBICYCLO(2.2.1)HEPTAN-2-ONE

>  <SPECTRUM TYPE>  (3444) 
MS1

>  <INSTRUMENT TYPE>  (3444) 
EI-B

>  <INSTRUMENT>  (3444) 
HITACHI M-80B

>  <ION MODE>  (3444) 
P

>  <INCHIKEY>  (3444) 
LHXDLQBQYFFVNW-UHFFFAOYSA-N

>  <FORMULA>  (3444) 
C10H16O

>  <EXACT MASS>  (3444) 
152.120115132

>  <MW>  (3444) 
152

>  <ID>  (3444) 
JP006604

>  <CONTRIBUTOR>  (3444) 
University of Tokyo Team, {Faculty of Engineering, University of Tokyo

>  <COMMENT>  (3444) 
SMILES=O=C(C(C)(C)1)C(C)(C2)CC(C2)1
InChI=InChI=1S/C10H16O/c1-9(2)7-4-5-10(3,6-7)8(9)11/h7H,4-6H2,1-3H3
computed SMILES=O=C1C(C)(C)C2CCC1(C)C2
accession=JP006604
date=2016.01.19 (Created 2008.10.21, modified 2011.05.06)
author=HISAHIRO HAGIWARA, CHEMICAL RESEARCH INSTITUTE OF NON-AQUEOUSSOLUTIONS TOHOKU UNIV.
license=CC BY-NC-SA
exact mass=152.12012
ionization energy=70 eV
ion type=[M]+*
computed spectral entropy=2.4594760102587676
computed normalized entropy=0.7304009313219881
SPLASH=splash10-001i-9000000000-a6f20ad638918f01e975
submitter=submitter = University of Tokyo Team (Faculty of Engineering, University of Tokyo)
MoNA Rating=3.75

>  <NUM PEAKS>  (3444) 
29

>  <MASS SPECTRAL PEAKS>  (3444) 
27 9.17
29 4.42
39 14.41
40 1.91
41 30.69
42 3.55
43 2.75
51 2.14
52 1.07
53 7.55
54 1.27
55 4.42
65 2.12
67 8.12
68 3.85
69 51.54
70 3.46
72 1.51
77 2.72
79 3.91
80 12.74
81 99.99
82 8.7
91 1.64
95 1.17
109 6.05
137 1.32
152 12.24
153 1.3

>  <PREDICTED SPECTRUM>  (3444) 
26 57
27 383
28 183
29 284
30 52
38 74
39 573
40 322
41 946
42 349
43 617
44 126
45 69
50 145
51 326
52 246
53 584
54 332
55 771
56 326
57 231
58 75
59 5
60 19
62 32
63 159
64 68
65 406
66 259
67 875
68 541
69 775
70 343
71 271
72 101
74 2
75 1
77 548
78 263
79 694
80 400
81 971
82 619
83 448
84 353
85 118
86 68
91 580
92 301
93 583
94 436
95 892
96 624
97 307
98 89
103 10
105 266
106 119
107 620
108 763
109 999
110 502
111 215
112 5
119 234
120 91
121 305
122 344
123 471
124 611
125 214
134 59
135 35
136 73
137 489
138 182
151 97
152 724
153 260
154 52

$$$$

     RDKit          2D

 11 12  0  0  0  0  0  0  0  0999 V2000
   -0.6759    1.4813    0.0000 C   0  0  0  0  0  0  0  0  0  0  0  0
   -0.6759   -2.3013    0.0000 C   0  0  0  0  0  0  0  0  0  0  0  0
    2.4475    2.5900    0.0000 C   0  0  0  0  0  0  0  0  0  0  0  0
    1.1450   -1.1600    0.0000 C   0  0  0  0  0  0  0  0  0  0  0  0
    1.1450    0.3400    0.0000 C   0  0  0  0  0  0  0  0  0  0  0  0
    3.7350   -1.1600    0.0000 C   0  0  0  0  0  0  0  0  0  0  0  0
    2.4450   -1.9100    0.0000 C   0  0  0  0  0  0  0  0  0  0  0  0
    3.7350    0.3400    0.0000 C   0  0  0  0  0  0  0  0  0  0  0  0
    1.5750   -0.4100    0.0000 C   0  0  0  0  0  0  0  0  0  0  0  0
    2.4450    1.0900    0.0000 C   0  0  0  0  0  0  0  0  0  0  0  0
    5.0352    1.0880    0.0000 O   0  0  0  0  0  0  0  0  0  0  0  0
  5  4  1  0
  7  4  1  0
  7  6  1  0
  8  6  1  0
  9  1  1  0
  9  2  1  0
  9  7  1  0
 10  3  1  0
 10  5  1  0
 10  8  1  0
 10  9  1  0
 11  8  2  0
M  END
>  <NAME>  (3445) 
CAMPHOR

>  <SYNONYMS>  (3445) 
1,7,7-TRIMETHYLBICYCLO(2.2.1)HEPTAN-2-ONE

>  <SPECTRUM TYPE>  (3445) 
MS1

>  <INSTRUMENT TYPE>  (3445) 
EI-B

>  <INSTRUMENT>  (3445) 
HITACHI M-80B

>  <ION MODE>  (3445) 
P

>  <INCHIKEY>  (3445) 
DSSYKIVIOFKYAU-UHFFFAOYSA-N

>  <FORMULA>  (3445) 
C10H16O

>  <EXACT MASS>  (3445) 
152.120115132

>  <MW>  (3445) 
152

>  <ID>  (3445) 
JP006603

>  <CONTRIBUTOR>  (3445) 
University of Tokyo Team, {Faculty of Engineering, University of Tokyo

>  <COMMENT>  (3445) 
SMILES=O=C(C1)C(C)(C2)C(C)(C)C(C2)1
InChI=InChI=1S/C10H16O/c1-9(2)7-4-5-10(9,3)8(11)6-7/h7H,4-6H2,1-3H3
computed SMILES=O=C1CC2CCC1(C)C2(C)C
accession=JP006603
date=2016.01.19 (Created 2008.10.21, modified 2011.05.06)
author=HISAHIRO HAGIWARA, CHEMICAL RESEARCH INSTITUTE OF NON-AQUEOUSSOLUTIONS TOHOKU UNIV.
license=CC BY-NC-SA
exact mass=152.12012
ionization energy=70 eV
ion type=[M]+*
computed spectral entropy=3.1807584185551434
computed normalized entropy=0.8307799266528155
SPLASH=splash10-053v-9100000000-6f9cbf4db0181dca1230
submitter=submitter = University of Tokyo Team (Faculty of Engineering, University of Tokyo)
MoNA Rating=3.75

>  <NUM PEAKS>  (3445) 
46

>  <MASS SPECTRAL PEAKS>  (3445) 
15 2.02
26 1.2
27 23.52
29 13.74
38 1.29
39 37.6
40 5.63
41 74.79
42 6.26
43 9.91
50 1.4
51 6.89
52 2.44
53 18.71
54 4.93
55 38.88
56 2.12
57 1.21
63 1.34
65 5.8
66 1.87
67 25.23
68 17.52
69 39.3
70 2.33
77 7.91
78 1.47
79 8.18
80 13.97
81 76.23
82 13.76
83 37.08
84 2.36
91 5.14
93 10.6
94 1.49
95 99.99
96 10.28
97 4.9
107 1.06
108 38.11
109 31.06
110 13.25
137 2.77
152 25.99
153 2.27

>  <PREDICTED SPECTRUM>  (3445) 
26 64
27 314
28 112
29 249
31 28
32 3
37 17
38 84
39 492
40 244
41 758
42 280
43 458
44 110
45 77
46 51
50 127
51 277
52 199
53 437
54 283
55 573
56 259
57 175
58 72
59 33
60 28
62 56
63 151
64 106
65 316
66 196
67 640
68 447
69 633
70 274
71 148
72 24
75 14
77 405
78 212
79 464
80 282
81 786
82 478
83 482
84 156
85 25
89 0
91 446
92 230
93 482
94 330
95 778
96 570
97 361
98 102
103 47
104 47
105 220
106 108
107 341
108 761
109 999
110 563
111 230
112 15
119 244
120 7
121 15
122 26
123 232
124 257
125 62
134 25
137 343
138 109
151 47
152 767
153 272
154 73

$$$$

     RDKit          2D

 11 12  0  0  0  0  0  0  0  0999 V2000
    1.9104    1.8966    0.0000 C   0  0  0  0  0  0  0  0  0  0  0  0
    0.9054    1.6596    0.0000 C   0  0  0  0  0  0  0  0  0  0  0  0
   -1.0296   -1.1030    0.0000 C   0  0  0  0  0  0  0  0  0  0  0  0
    0.6104   -0.3534    0.0000 C   0  0  0  0  0  0  0  0  0  0  0  0
    3.2104   -1.8534    0.0000 C   0  0  0  0  0  0  0  0  0  0  0  0
    1.9104    0.3966    0.0000 C   0  0  0  0  0  0  0  0  0  0  0  0
    3.2104   -0.3534    0.0000 C   0  0  0  0  0  0  0  0  0  0  0  0
    1.9104   -2.6034    0.0000 C   0  0  0  0  0  0  0  0  0  0  0  0
    0.6104   -1.8534    0.0000 C   0  0  0  0  0  0  0  0  0  0  0  0
    1.9104   -1.1034    0.0000 C   0  0  0  0  0  0  0  0  0  0  0  0
   -0.6885   -2.6036    0.0000 O   0  0  0  0  0  0  0  0  0  0  0  0
  6  1  1  0
  6  4  2  0
  7  5  1  0
  7  6  1  0
  8  5  1  0
  9  4  1  0
  9  8  1  0
 10  2  1  0
 10  3  1  0
 10  7  1  0
 10  8  1  0
 11  9  2  0
M  END
>  <NAME>  (3446) 
VERBENONE

>  <SYNONYMS>  (3446) 
4,6,6-TRIMETHYLBICYCLO(3.1.1)HEPT-3-EN-2-ONE

>  <SPECTRUM TYPE>  (3446) 
MS1

>  <INSTRUMENT TYPE>  (3446) 
EI-B

>  <INSTRUMENT>  (3446) 
HITACHI M-80B

>  <ION MODE>  (3446) 
P

>  <INCHIKEY>  (3446) 
DCSCXTJOXBUFGB-UHFFFAOYSA-N

>  <FORMULA>  (3446) 
C10H14O

>  <EXACT MASS>  (3446) 
150.104465068

>  <MW>  (3446) 
150

>  <ID>  (3446) 
JP006602

>  <CONTRIBUTOR>  (3446) 
University of Tokyo Team, {Faculty of Engineering, University of Tokyo

>  <COMMENT>  (3446) 
SMILES=CC(=C2)C(C1)C(C)(C)C(C(=O)2)1
InChI=InChI=1S/C10H14O/c1-6-4-9(11)8-5-7(6)10(8,2)3/h4,7-8H,5H2,1-3H3
computed SMILES=O=C1C=C(C)C2CC1C2(C)C
accession=JP006602
date=2016.01.19 (Created 2008.10.21, modified 2011.05.06)
author=HISAHIRO HAGIWARA, CHEMICAL RESEARCH INSTITUTE OF NON-AQUEOUSSOLUTIONS TOHOKU UNIV.
license=CC BY-NC-SA
exact mass=150.10447
ionization energy=70 eV
ion type=[M]+*
computed spectral entropy=3.461550976636639
computed normalized entropy=0.8489317447741079
SPLASH=splash10-0553-9400000000-eb8d6917a682863e0158
submitter=submitter = University of Tokyo Team (Faculty of Engineering, University of Tokyo)
MoNA Rating=3.75

>  <NUM PEAKS>  (3446) 
59

>  <MASS SPECTRAL PEAKS>  (3446) 
14 1.36
15 2.8
26 2.7
27 42.81
29 14.44
38 5.21
39 63.62
40 7.47
41 50.85
42 4.47
43 9.76
50 6.13
51 14.11
52 7.52
53 25
54 5.36
55 17.92
56 2.38
62 1.87
63 5.37
64 1.64
65 14.53
66 6.59
67 18.4
68 1.99
69 5.41
70 9.61
77 24.03
78 5.54
79 41.58
80 50.77
81 7.77
82 13.05
83 3.79
90 1.75
91 61.6
92 8.85
93 9.23
94 6.64
95 13.99
96 3.92
103 2.18
105 14.42
106 2.93
107 99.99
108 31.05
109 13.16
110 1.24
115 2.7
117 3.37
119 1.21
121 5.48
122 11.53
123 2.52
135 69.38
136 6.06
149 2.52
150 44.73
151 4.26

>  <PREDICTED SPECTRUM>  (3446) 
26 19
27 183
28 38
29 85
37 27
38 89
39 449
40 224
41 657
42 147
43 281
44 99
45 44
49 30
50 175
51 365
52 261
53 486
54 215
55 324
56 122
57 109
58 95
59 27
62 62
63 170
64 87
65 378
66 279
67 629
68 326
69 400
70 150
71 89
72 52
74 25
75 19
77 557
78 274
79 790
80 364
81 368
82 290
83 91
91 678
92 364
93 735
94 469
95 251
96 145
103 85
105 374
106 179
107 999
108 655
109 351
110 129
117 124
119 26
120 93
121 308
122 187
123 3
133 29
134 27
135 545
136 135
149 158
150 646
151 214

$$$$

     RDKit          2D

 11 11  0  0  0  0  0  0  0  0999 V2000
   -2.2386    2.7951    0.0000 C   0  0  0  0  0  0  0  0  0  0  0  0
   -3.5376    0.5451    0.0000 C   0  0  0  0  0  0  0  0  0  0  0  0
    2.9576   -1.7049    0.0000 C   0  0  0  0  0  0  0  0  0  0  0  0
    0.3590   -1.7058    0.0000 C   0  0  0  0  0  0  0  0  0  0  0  0
   -0.9400   -0.9558    0.0000 C   0  0  0  0  0  0  0  0  0  0  0  0
    0.3600    1.2959    0.0000 C   0  0  0  0  0  0  0  0  0  0  0  0
   -2.2386    1.2951    0.0000 C   0  0  0  0  0  0  0  0  0  0  0  0
    1.6585   -0.9549    0.0000 C   0  0  0  0  0  0  0  0  0  0  0  0
   -0.9395    0.5451    0.0000 C   0  0  0  0  0  0  0  0  0  0  0  0
    1.6590    0.5459    0.0000 C   0  0  0  0  0  0  0  0  0  0  0  0
    2.9582    1.2957    0.0000 O   0  0  0  0  0  0  0  0  0  0  0  0
  5  4  1  0
  7  1  2  0
  7  2  1  0
  8  3  1  0
  8  4  2  0
  9  5  1  0
  9  6  1  0
  9  7  1  0
 10  6  1  0
 10  8  1  0
 11 10  2  0
M  END
>  <NAME>  (3447) 
CARVONE

>  <SYNONYMS>  (3447) 
2-METHYL-5-(1-METHYLETHENYL)-2-CYCLOHEXENE-1-ONE

>  <SPECTRUM TYPE>  (3447) 
MS1

>  <INSTRUMENT TYPE>  (3447) 
EI-B

>  <INSTRUMENT>  (3447) 
HITACHI M-80B

>  <ION MODE>  (3447) 
P

>  <INCHIKEY>  (3447) 
ULDHMXUKGWMISQ-UHFFFAOYSA-N

>  <FORMULA>  (3447) 
C10H14O

>  <EXACT MASS>  (3447) 
150.104465068

>  <MW>  (3447) 
150

>  <ID>  (3447) 
JP006601

>  <CONTRIBUTOR>  (3447) 
University of Tokyo Team, {Faculty of Engineering, University of Tokyo

>  <COMMENT>  (3447) 
SMILES=CC(=C)C(C1)CC(=O)C(C)=C1
InChI=InChI=1S/C10H14O/c1-7(2)9-5-4-8(3)10(11)6-9/h4,9H,1,5-6H2,2-3H3
computed SMILES=O=C1C(=CCC(C(=C)C)C1)C
accession=JP006601
date=2016.01.19 (Created 2008.10.21, modified 2011.05.06)
author=HISAHIRO HAGIWARA, CHEMICAL RESEARCH INSTITUTE OF NON-AQUEOUSSOLUTIONS TOHOKU UNIV.
license=CC BY-NC-SA
exact mass=150.10447
ionization energy=70 eV
ion type=[M]+*
computed spectral entropy=3.035662352290631
computed normalized entropy=0.8070993988393137
SPLASH=splash10-0f8c-9100000000-64d2436851c170c3898a
submitter=submitter = University of Tokyo Team (Faculty of Engineering, University of Tokyo)
MoNA Rating=3.75

>  <NUM PEAKS>  (3447) 
43

>  <MASS SPECTRAL PEAKS>  (3447) 
26 1.11
27 15.78
29 2.92
38 1.76
39 38.33
40 5.02
41 24.18
42 2.44
43 1.48
50 2.67
51 7.53
52 3.32
53 19.62
54 44.88
55 4.17
58 8.8
63 1.65
65 5.26
66 2.13
67 8.82
68 2.05
69 2.74
77 8.27
78 1.81
79 12.59
80 4.44
81 2.56
82 99.99
83 5
91 9.63
92 3.54
93 25.92
94 4.89
95 2.46
105 1.72
106 10.72
107 15.63
108 26.86
109 2.75
121 1.13
122 1.23
135 2.16
150 6.41

>  <PREDICTED SPECTRUM>  (3447) 
14 3
25 14
26 132
27 404
28 181
29 271
30 46
31 19
32 4
37 98
38 198
39 696
40 388
41 815
42 370
43 476
44 126
45 68
46 3
49 37
50 240
51 437
52 353
53 638
54 434
55 335
56 121
57 74
58 43
59 68
60 36
61 76
62 122
63 251
64 115
65 424
66 373
67 840
68 600
69 446
70 185
71 101
72 40
73 86
74 31
75 56
76 3
77 424
78 216
79 703
80 557
81 594
82 468
83 179
84 21
89 47
90 14
91 430
92 264
93 609
94 476
95 385
96 184
97 23
101 24
103 76
104 52
105 212
106 190
107 948
108 999
109 403
110 148
117 189
118 15
119 91
120 22
121 324
122 244
123 51
131 70
132 72
133 111
135 412
136 113
149 130
150 905
151 310
152 64

$$$$

     RDKit          2D

  8  8  0  0  0  0  0  0  0  0999 V2000
    0.6513   -2.2440    0.0000 C   0  0  0  0  0  0  0  0  0  0  0  0
    1.9458   -1.5018    0.0000 C   0  0  0  0  0  0  0  0  0  0  0  0
   -0.6478   -1.4940    0.0000 C   0  0  0  0  0  0  0  0  0  0  0  0
    1.9463   -0.0009    0.0000 C   0  0  0  0  0  0  0  0  0  0  0  0
   -0.6523   -0.0018    0.0000 C   0  0  0  0  0  0  0  0  0  0  0  0
    0.6472    0.7491    0.0000 C   0  0  0  0  0  0  0  0  0  0  0  0
   -1.9526    0.7460    0.0000 O   0  0  0  0  0  0  0  0  0  0  0  0
    0.6470    2.2491    0.0000 O   0  0  0  0  0  0  0  0  0  0  0  0
  2  1  1  0
  3  1  1  0
  4  2  1  0
  5  3  1  0
  6  4  1  0
  6  5  1  0
  7  5  2  0
  8  6  2  0
M  END
>  <NAME>  (3448) 
1,2-CYCLOHEXANEDIONE

>  <SYNONYMS>  (3448) 


>  <SPECTRUM TYPE>  (3448) 
MS1

>  <INSTRUMENT TYPE>  (3448) 
EI-B

>  <INSTRUMENT>  (3448) 
HITACHI M-80B

>  <ION MODE>  (3448) 
P

>  <INCHIKEY>  (3448) 
OILAIQUEIWYQPH-UHFFFAOYSA-N

>  <FORMULA>  (3448) 
C6H8O2

>  <EXACT MASS>  (3448) 
112.052429496

>  <MW>  (3448) 
112

>  <ID>  (3448) 
JP006600

>  <CONTRIBUTOR>  (3448) 
University of Tokyo Team, {Faculty of Engineering, University of Tokyo

>  <COMMENT>  (3448) 
SMILES=O=C(C1)C(=O)CCC1
InChI=InChI=1S/C6H8O2/c7-5-3-1-2-4-6(5)8/h1-4H2
computed SMILES=O=C1C(=O)CCCC1
accession=JP006600
date=2016.01.19 (Created 2008.10.21, modified 2011.05.06)
author=HISAHIRO HAGIWARA, CHEMICAL RESEARCH INSTITUTE OF NON-AQUEOUSSOLUTIONS TOHOKU UNIV.
license=CC BY-NC-SA
exact mass=112.05243
ion type=[M]+*
ionization energy=70 eV
computed spectral entropy=3.022485073414532
computed normalized entropy=0.8139023611562501
SPLASH=splash10-0btc-9100000000-3d5ad1ace9b6e2c89289
submitter=submitter = University of Tokyo Team (Faculty of Engineering, University of Tokyo)
MoNA Rating=3.75

>  <NUM PEAKS>  (3448) 
41

>  <MASS SPECTRAL PEAKS>  (3448) 
14 1.36
15 5.77
25 1.33
26 13.99
27 61.51
28 19.68
29 20.7
30 1.34
31 4.07
32 1.25
37 3.92
38 8.15
39 43.24
40 4.16
41 31.51
42 28.37
43 45.16
44 3.39
49 2
50 6.92
51 6.98
52 3.28
53 11.2
54 3.71
55 99.62
56 71.37
57 11.81
65 3.32
66 4.69
67 2.33
69 14.59
70 38.5
71 21.57
81 1
82 1.31
83 62.23
84 19.92
97 2.22
111 1.45
112 99.99
113 5.99

>  <PREDICTED SPECTRUM>  (3448) 
14 43
15 72
25 38
26 231
27 619
28 436
29 440
30 73
37 145
38 257
39 749
40 439
41 999
42 747
43 383
44 143
50 216
51 290
52 228
53 210
54 223
55 877
56 976
57 269
58 31
65 108
66 119
67 391
68 368
69 593
70 224
71 118
83 241
84 840
85 168
93 87
94 60
95 125
97 17
112 616
113 155

$$$$

     RDKit          2D

 15 15  0  0  0  0  0  0  0  0999 V2000
   -5.1894    5.2615    0.0000 C   0  0  0  0  0  0  0  0  0  0  0  0
   -3.8867    6.0051    0.0000 C   0  0  0  0  0  0  0  0  0  0  0  0
   -2.5914    5.2487    0.0000 C   0  0  0  0  0  0  0  0  0  0  0  0
   -1.2886    5.9923    0.0000 C   0  0  0  0  0  0  0  0  0  0  0  0
    0.0067    5.2359    0.0000 C   0  0  0  0  0  0  0  0  0  0  0  0
    1.3094    5.9795    0.0000 C   0  0  0  0  0  0  0  0  0  0  0  0
    2.6047    5.2231    0.0000 C   0  0  0  0  0  0  0  0  0  0  0  0
    3.9074    5.9667    0.0000 C   0  0  0  0  0  0  0  0  0  0  0  0
    6.5018    5.9604    0.0000 C   0  0  0  0  0  0  0  0  0  0  0  0
    5.1883    3.7355    0.0000 C   0  0  0  0  0  0  0  0  0  0  0  0
    7.7863    5.2355    0.0000 C   0  0  0  0  0  0  0  0  0  0  0  0
    6.5128    2.9414    0.0000 C   0  0  0  0  0  0  0  0  0  0  0  0
    5.2028    5.2104    0.0000 C   0  0  0  0  0  0  0  0  0  0  0  0
    7.8118    3.6914    0.0000 C   0  0  0  0  0  0  0  0  0  0  0  0
    9.1170    2.9521    0.0000 O   0  0  0  0  0  0  0  0  0  0  0  0
  2  1  1  0
  3  2  1  0
  4  3  1  0
  5  4  1  0
  6  5  1  0
  7  6  1  0
  8  7  1  0
 11  9  1  0
 12 10  1  0
 13  8  1  0
 13  9  1  0
 13 10  1  0
 14 11  1  0
 14 12  1  0
 15 14  2  0
M  END
>  <NAME>  (3449) 
4-OCTYLCYCLOHEXANONE

>  <SYNONYMS>  (3449) 


>  <SPECTRUM TYPE>  (3449) 
MS1

>  <INSTRUMENT TYPE>  (3449) 
EI-B

>  <INSTRUMENT>  (3449) 
HITACHI M-80B

>  <ION MODE>  (3449) 
P

>  <INCHIKEY>  (3449) 
PKOWPSHVZJGPOJ-UHFFFAOYSA-N

>  <FORMULA>  (3449) 
C14H26O

>  <EXACT MASS>  (3449) 
210.198365452

>  <MW>  (3449) 
210

>  <ID>  (3449) 
JP006599

>  <CONTRIBUTOR>  (3449) 
University of Tokyo Team, {Faculty of Engineering, University of Tokyo

>  <COMMENT>  (3449) 
SMILES=CCCCCCCCC(C1)CCC(=O)C1
InChI=InChI=1S/C14H26O/c1-2-3-4-5-6-7-8-13-9-11-14(15)12-10-13/h13H,2-12H2,1H3
computed SMILES=O=C1CCC(CC1)CCCCCCCC
accession=JP006599
date=2016.01.19 (Created 2008.10.21, modified 2011.05.06)
author=HISAHIRO HAGIWARA, CHEMICAL RESEARCH INSTITUTE OF NON-AQUEOUSSOLUTIONS TOHOKU UNIV.
license=CC BY-NC-SA
exact mass=210.19837
ionization energy=70 eV
ion type=[M]+*
computed spectral entropy=2.716166312390309
computed normalized entropy=0.7837199338230324
SPLASH=splash10-0a4i-9000000000-ba901a9d17183664f712
submitter=submitter = University of Tokyo Team (Faculty of Engineering, University of Tokyo)
MoNA Rating=3.75

>  <NUM PEAKS>  (3449) 
32

>  <MASS SPECTRAL PEAKS>  (3449) 
27 6
28 6.25
29 12.04
39 7.82
41 37.71
42 3.18
43 12.7
53 4.03
54 1.93
55 23
56 5.39
57 99.99
58 3.89
67 4.38
68 2.37
69 11.53
70 4.12
71 1.85
79 2.24
81 3.02
83 17.89
84 1.81
93 1.92
95 2.5
97 8.33
98 39.21
99 3.92
112 2.58
113 7.28
121 2.48
139 9.23
140 1.09

>  <PREDICTED SPECTRUM>  (3449) 
18 18
25 11
26 67
27 436
28 204
29 566
31 22
32 28
38 27
39 402
40 148
41 901
42 444
43 712
44 111
51 86
52 51
53 286
54 257
55 999
56 591
57 666
58 203
65 85
66 108
67 391
68 295
69 605
70 554
71 388
72 113
77 49
79 190
80 64
81 332
82 241
83 716
84 342
85 130
86 53
93 81
94 25
95 214
96 29
97 685
98 403
99 107
100 2
107 83
109 72
110 71
111 360
112 214
113 89
123 41
124 20
125 193
126 163
135 12
138 19
139 243
140 54
153 71
154 62
166 73
167 74
181 152
182 129
192 97
211 55

$$$$

     RDKit          2D

 13 13  0  0  0  0  0  0  0  0999 V2000
   -9.6625    1.7885    0.0000 C   0  0  0  0  0  0  0  0  0  0  0  0
   -8.3653    2.5417    0.0000 C   0  0  0  0  0  0  0  0  0  0  0  0
   -7.0644    1.7949    0.0000 C   0  0  0  0  0  0  0  0  0  0  0  0
   -5.7672    2.5482    0.0000 C   0  0  0  0  0  0  0  0  0  0  0  0
   -4.4663    1.8014    0.0000 C   0  0  0  0  0  0  0  0  0  0  0  0
   -3.1692    2.5546    0.0000 C   0  0  0  0  0  0  0  0  0  0  0  0
    1.0482    4.3595    0.0000 C   0  0  0  0  0  0  0  0  0  0  0  0
   -1.8683    1.8079    0.0000 C   0  0  0  0  0  0  0  0  0  0  0  0
   -0.4229    4.0558    0.0000 C   0  0  0  0  0  0  0  0  0  0  0  0
    1.7957    3.0675    0.0000 C   0  0  0  0  0  0  0  0  0  0  0  0
   -0.5711    2.5611    0.0000 C   0  0  0  0  0  0  0  0  0  0  0  0
    0.7920    1.9528    0.0000 C   0  0  0  0  0  0  0  0  0  0  0  0
    1.1032    0.4854    0.0000 O   0  0  0  0  0  0  0  0  0  0  0  0
  2  1  1  0
  3  2  1  0
  4  3  1  0
  5  4  1  0
  6  5  1  0
  8  6  1  0
  9  7  1  0
 10  7  1  0
 11  8  1  0
 11  9  1  0
 12 10  1  0
 12 11  1  0
 13 12  2  0
M  END
>  <NAME>  (3450) 
2-HEPTYLCYCLOPENTANONE

>  <SYNONYMS>  (3450) 


>  <SPECTRUM TYPE>  (3450) 
MS1

>  <INSTRUMENT TYPE>  (3450) 
EI-B

>  <INSTRUMENT>  (3450) 
HITACHI M-80B

>  <ION MODE>  (3450) 
P

>  <INCHIKEY>  (3450) 
PJXHBTZLHITWFX-UHFFFAOYSA-N

>  <FORMULA>  (3450) 
C12H22O

>  <EXACT MASS>  (3450) 
182.167065324

>  <MW>  (3450) 
182

>  <ID>  (3450) 
JP006598

>  <CONTRIBUTOR>  (3450) 
University of Tokyo Team, {Faculty of Engineering, University of Tokyo

>  <COMMENT>  (3450) 
SMILES=CCCCCCCC(C1)C(=O)CC1
InChI=InChI=1S/C12H22O/c1-2-3-4-5-6-8-11-9-7-10-12(11)13/h11H,2-10H2,1H3
computed SMILES=O=C1CCCC1CCCCCCC
accession=JP006598
date=2016.01.19 (Created 2008.10.21, modified 2011.05.06)
author=HISAHIRO HAGIWARA, CHEMICAL RESEARCH INSTITUTE OF NON-AQUEOUSSOLUTIONS TOHOKU UNIV.
license=CC BY-NC-SA
exact mass=182.16707
ionization energy=70 eV
ion type=[M]+*
computed spectral entropy=2.3914821585698722
computed normalized entropy=0.7429557052477455
SPLASH=splash10-001i-9000000000-05fa1062ee02edb4ff51
submitter=submitter = University of Tokyo Team (Faculty of Engineering, University of Tokyo)
MoNA Rating=3.75

>  <NUM PEAKS>  (3450) 
25

>  <MASS SPECTRAL PEAKS>  (3450) 
27 11.22
28 2.16
29 13.79
39 8.79
41 28.11
42 4.67
43 12.01
53 2.72
54 3.62
55 17.95
56 5.79
57 2.4
67 3.43
68 1.36
69 4.73
70 2.17
79 1.07
81 1
82 1.04
83 12.39
84 99.99
85 4.43
97 14.78
98 1.66
182 3.24

>  <PREDICTED SPECTRUM>  (3450) 
27 115
28 36
29 140
39 205
40 66
41 500
42 251
43 346
51 61
52 11
53 161
54 157
55 545
56 245
57 220
65 22
66 33
67 195
68 137
69 394
70 612
71 235
72 43
79 44
80 21
81 187
82 188
83 439
84 999
97 210
98 127
111 226
125 36
139 13
182 314
183 81

$$$$

     RDKit          2D

 13 13  0  0  0  0  0  0  0  0999 V2000
   -3.1900    1.5500    0.0000 C   0  0  0  0  0  0  0  0  0  0  0  0
   -2.4400    0.2500    0.0000 C   0  0  0  0  0  0  0  0  0  0  0  0
   -2.4400    2.8500    0.0000 C   0  0  0  0  0  0  0  0  0  0  0  0
   -0.9400    0.2500    0.0000 C   0  0  0  0  0  0  0  0  0  0  0  0
   -0.9400    2.8500    0.0000 C   0  0  0  0  0  0  0  0  0  0  0  0
   -0.1900   -1.0500    0.0000 C   0  0  0  0  0  0  0  0  0  0  0  0
   -0.1900    4.1500    0.0000 C   0  0  0  0  0  0  0  0  0  0  0  0
    1.3100   -1.0500    0.0000 C   0  0  0  0  0  0  0  0  0  0  0  0
    1.3100    4.1500    0.0000 C   0  0  0  0  0  0  0  0  0  0  0  0
    2.0600    0.2500    0.0000 C   0  0  0  0  0  0  0  0  0  0  0  0
    2.0600    2.8500    0.0000 C   0  0  0  0  0  0  0  0  0  0  0  0
    1.3100    1.5500    0.0000 C   0  0  0  0  0  0  0  0  0  0  0  0
   -0.1900    1.5500    0.0000 O   0  0  0  0  0  0  0  0  0  0  0  0
  2  1  1  0
  3  1  1  0
  4  2  1  0
  5  3  1  0
  6  4  1  0
  7  5  1  0
  8  6  1  0
  9  7  1  0
 10  8  1  0
 11  9  1  0
 12 10  1  0
 12 11  1  0
 13 12  2  0
M  END
>  <NAME>  (3451) 
CYCLODODECANONE

>  <SYNONYMS>  (3451) 


>  <SPECTRUM TYPE>  (3451) 
MS1

>  <INSTRUMENT TYPE>  (3451) 
EI-B

>  <INSTRUMENT>  (3451) 
HITACHI M-80B

>  <ION MODE>  (3451) 
P

>  <INCHIKEY>  (3451) 
SXVPOSFURRDKBO-UHFFFAOYSA-N

>  <FORMULA>  (3451) 
C12H22O

>  <EXACT MASS>  (3451) 
182.167065324

>  <MW>  (3451) 
182

>  <ID>  (3451) 
JP006597

>  <CONTRIBUTOR>  (3451) 
University of Tokyo Team, {Faculty of Engineering, University of Tokyo

>  <COMMENT>  (3451) 
SMILES=O=C(C1)CCCCCCCCCC1
InChI=InChI=1S/C12H22O/c13-12-10-8-6-4-2-1-3-5-7-9-11-12/h1-11H2
computed SMILES=O=C1CCCCCCCCCCC1
accession=JP006597
date=2016.01.19 (Created 2008.10.21, modified 2011.05.06)
author=HISAHIRO HAGIWARA, CHEMICAL RESEARCH INSTITUTE OF NON-AQUEOUSSOLUTIONS TOHOKU UNIV.
license=CC BY-NC-SA
exact mass=182.16707
ionization energy=70 eV
ion type=[M]+*
computed spectral entropy=3.552256153960943
computed normalized entropy=0.8418650710374007
SPLASH=splash10-052f-9100000000-ee6ff0fc7fa019b3a4b8
submitter=submitter = University of Tokyo Team (Faculty of Engineering, University of Tokyo)
MoNA Rating=3.75

>  <NUM PEAKS>  (3451) 
68

>  <MASS SPECTRAL PEAKS>  (3451) 
15 1.61
26 1.46
27 31.53
28 11.39
29 34.02
31 1.11
32 1.47
39 31.45
40 5.13
41 99.99
42 34.52
43 34.57
44 1.39
51 1.28
53 8.7
54 10.56
55 78.32
56 23.62
57 9.94
58 51.24
59 13.02
65 1.37
66 1.69
67 12.93
68 10.57
69 27.84
70 16.2
71 49.9
72 3.39
77 1.35
78 1.25
79 5.99
80 4.83
81 11.31
82 20.96
83 21.95
84 17.93
85 4.85
86 1.42
93 4.15
94 2.97
95 5.78
96 8.99
97 16.86
98 32.24
99 3.9
100 2.28
107 2.62
108 3.09
109 2.06
110 1.14
111 22.39
112 5.81
113 1.38
114 1.97
121 3.06
122 5.63
123 1.37
124 6.9
125 11.02
126 2.9
127 1.48
135 3.43
139 6.07
140 1.12
149 1.38
182 13.01
183 1.89

>  <PREDICTED SPECTRUM>  (3451) 
14 9
15 24
16 19
17 28
18 50
25 10
26 136
27 490
28 268
29 520
30 88
31 97
32 25
37 20
38 65
39 498
40 227
41 999
42 524
43 761
44 257
45 189
50 52
51 129
52 112
53 363
54 446
55 995
56 507
57 531
58 617
59 411
60 147
61 36
63 65
65 163
66 186
67 524
68 446
69 646
70 461
71 633
72 367
73 244
74 133
77 142
78 79
79 348
80 271
81 470
82 447
83 613
84 443
85 394
86 210
87 176
90 14
91 109
92 60
93 289
94 333
95 502
96 558
97 611
98 683
99 297
100 245
101 89
106 73
107 306
108 264
109 298
110 316
111 562
112 270
113 267
114 156
115 95
117 10
118 7
120 129
121 263
122 339
123 252
124 294
125 446
126 244
127 153
128 130
129 19
130 17
131 32
133 18
134 14
135 292
136 139
137 83
138 163
139 288
140 159
141 117
149 160
150 78
151 50
153 249
154 199
155 34
164 155
165 40
166 65
167 148
168 21
182 272
183 102
184 3

$$$$

     RDKit          2D

 13 14  0  0  0  0  0  0  0  0999 V2000
   -3.5728   -0.6166    0.0000 C   0  0  0  0  0  0  0  0  0  0  0  0
   -2.2733   -1.3674    0.0000 C   0  0  0  0  0  0  0  0  0  0  0  0
   -3.5733    0.8843    0.0000 C   0  0  0  0  0  0  0  0  0  0  0  0
    2.9243    1.6330    0.0000 C   0  0  0  0  0  0  0  0  0  0  0  0
    2.9246    3.1330    0.0000 C   0  0  0  0  0  0  0  0  0  0  0  0
   -0.9742   -0.6174    0.0000 C   0  0  0  0  0  0  0  0  0  0  0  0
   -2.2742    1.6343    0.0000 C   0  0  0  0  0  0  0  0  0  0  0  0
    1.6242    0.8832    0.0000 C   0  0  0  0  0  0  0  0  0  0  0  0
    1.6247    3.8832    0.0000 C   0  0  0  0  0  0  0  0  0  0  0  0
   -0.9747    0.8834    0.0000 C   0  0  0  0  0  0  0  0  0  0  0  0
    0.3243    1.6334    0.0000 C   0  0  0  0  0  0  0  0  0  0  0  0
    0.3246    3.1334    0.0000 C   0  0  0  0  0  0  0  0  0  0  0  0
   -0.9742    3.8839    0.0000 O   0  0  0  0  0  0  0  0  0  0  0  0
  2  1  1  0
  3  1  1  0
  5  4  1  0
  6  2  1  0
  7  3  1  0
  8  4  1  0
  9  5  1  0
 10  6  1  0
 10  7  1  0
 11  8  1  0
 11 10  1  0
 12  9  1  0
 12 11  1  0
 13 12  2  0
M  END
>  <NAME>  (3452) 
2-CYCLOHEXYLCYCLOHEXANONE

>  <SYNONYMS>  (3452) 


>  <SPECTRUM TYPE>  (3452) 
MS1

>  <INSTRUMENT TYPE>  (3452) 
EI-B

>  <INSTRUMENT>  (3452) 
HITACHI M-80B

>  <ION MODE>  (3452) 
P

>  <INCHIKEY>  (3452) 
UOBQDYFTAJKQAL-UHFFFAOYSA-N

>  <FORMULA>  (3452) 
C12H20O

>  <EXACT MASS>  (3452) 
180.15141526

>  <MW>  (3452) 
180

>  <ID>  (3452) 
JP006596

>  <CONTRIBUTOR>  (3452) 
University of Tokyo Team, {Faculty of Engineering, University of Tokyo

>  <COMMENT>  (3452) 
SMILES=O=C(C2)C(CCC2)C(C1)CCCC1
InChI=InChI=1S/C12H20O/c13-12-9-5-4-8-11(12)10-6-2-1-3-7-10/h10-11H,1-9H2
computed SMILES=O=C1CCCCC1C2CCCCC2
accession=JP006596
date=2016.01.19 (Created 2008.10.21, modified 2011.05.06)
author=HISAHIRO HAGIWARA, CHEMICAL RESEARCH INSTITUTE OF NON-AQUEOUSSOLUTIONS TOHOKU UNIV.
license=CC BY-NC-SA
exact mass=180.15142
ionization energy=70 eV
ion type=[M]+*
computed spectral entropy=2.499696919833024
computed normalized entropy=0.7423455039419762
SPLASH=splash10-0002-9000000000-caf6732bbdc0d266d824
submitter=submitter = University of Tokyo Team (Faculty of Engineering, University of Tokyo)
MoNA Rating=3.75

>  <NUM PEAKS>  (3452) 
29

>  <MASS SPECTRAL PEAKS>  (3452) 
27 7.45
29 6.11
39 9.76
41 24
42 3.67
43 2.21
53 4.62
54 4.41
55 15.24
56 1.24
65 1.48
67 12.9
68 2.55
69 2.14
70 13.59
77 1.71
79 3.62
80 2.48
81 8.45
82 1.27
83 11.55
91 1.19
95 2.3
97 5.58
98 99.99
99 9.01
109 1.33
123 1.59
137 1.43

>  <PREDICTED SPECTRUM>  (3452) 
26 23
27 219
28 80
29 169
38 47
39 536
40 285
41 928
42 410
43 357
44 47
45 23
50 94
51 219
52 187
53 495
54 649
55 999
56 351
57 220
58 12
63 65
65 224
66 314
67 981
68 697
69 558
70 488
71 266
77 359
78 209
79 532
80 445
81 954
82 714
83 726
84 667
85 198
91 369
92 212
93 307
94 227
95 601
96 526
97 941
98 838
99 162
105 29
106 6
107 111
108 128
109 526
110 565
111 480
112 278
119 278
120 211
121 221
122 148
123 411
124 298
125 331
126 124
133 350
134 92
135 30
136 427
137 485
138 450
139 151
147 120
151 288
152 236
161 110
162 271
163 100
165 151
180 603
181 209

$$$$

     RDKit          2D

 11 12  0  0  0  0  0  0  0  0999 V2000
   -1.3728    3.7478    0.0000 C   0  0  0  0  0  0  0  0  0  0  0  0
    1.2253    3.7522    0.0000 C   0  0  0  0  0  0  0  0  0  0  0  0
   -0.0725   -3.0000    0.0000 C   0  0  0  0  0  0  0  0  0  0  0  0
    1.2300   -0.7500    0.0000 C   0  0  0  0  0  0  0  0  0  0  0  0
   -1.3600   -0.7500    0.0000 C   0  0  0  0  0  0  0  0  0  0  0  0
    1.2300    0.7500    0.0000 C   0  0  0  0  0  0  0  0  0  0  0  0
   -1.3600    0.7500    0.0000 C   0  0  0  0  0  0  0  0  0  0  0  0
   -0.0725    3.0000    0.0000 C   0  0  0  0  0  0  0  0  0  0  0  0
   -0.0700   -1.5000    0.0000 C   0  0  0  0  0  0  0  0  0  0  0  0
   -0.0700    1.5000    0.0000 C   0  0  0  0  0  0  0  0  0  0  0  0
    0.3900   -0.0000    0.0000 O   0  0  0  0  0  0  0  0  0  0  0  0
  6  4  1  0
  7  5  1  0
  8  1  1  0
  8  2  1  0
  9  3  1  0
  9  4  1  0
  9  5  1  0
 10  6  1  0
 10  7  1  0
 10  8  1  0
 11  9  1  0
 11 10  1  0
M  END
>  <NAME>  (3453) 
1,4-CINEOLE

>  <SYNONYMS>  (3453) 
1-METHYL-4-ISOPROPYL-8-OXABICYCLO(2.2.1)HEPTANE

>  <SPECTRUM TYPE>  (3453) 
MS1

>  <INSTRUMENT TYPE>  (3453) 
EI-B

>  <INSTRUMENT>  (3453) 
HITACHI M-80B

>  <ION MODE>  (3453) 
P

>  <INCHIKEY>  (3453) 
RFFOTVCVTJUTAD-UHFFFAOYSA-N

>  <FORMULA>  (3453) 
C10H18O

>  <EXACT MASS>  (3453) 
154.135765196

>  <MW>  (3453) 
154

>  <ID>  (3453) 
JP006594

>  <CONTRIBUTOR>  (3453) 
University of Tokyo Team, {Faculty of Engineering, University of Tokyo

>  <COMMENT>  (3453) 
SMILES=CC(C)C(C2)(C1)OC(C)(C2)C1
InChI=InChI=1S/C10H18O/c1-8(2)10-6-4-9(3,11-10)5-7-10/h8H,4-7H2,1-3H3
computed SMILES=O1C2(C)CCC1(CC2)C(C)C
accession=JP006594
date=2016.01.19 (Created 2008.10.21, modified 2011.05.06)
author=HISAHIRO HAGIWARA, CHEMICAL RESEARCH INSTITUTE OF NON-AQUEOUSSOLUTIONS TOHOKU UNIV.
license=CC BY-NC-SA
exact mass=154.13577
ionization energy=70 eV
ion type=[M]+*
computed spectral entropy=3.23596911818194
computed normalized entropy=0.8075118710135946
SPLASH=splash10-01ox-9300000000-b9a5b5d2f98cced31647
submitter=submitter = University of Tokyo Team (Faculty of Engineering, University of Tokyo)
MoNA Rating=3.75

>  <NUM PEAKS>  (3453) 
55

>  <MASS SPECTRAL PEAKS>  (3453) 
15 2.9
26 1.07
27 22.47
28 1.75
29 10.69
39 18.96
40 3.03
41 43.95
42 4.12
43 99.99
44 2.61
45 1.17
51 2.06
52 1.24
53 10.64
54 3.67
55 40.64
56 3.21
57 2.23
58 11.39
59 1.16
65 2.13
66 1.04
67 11.49
68 9.8
69 35.23
70 3.53
71 59.77
72 3.13
77 2.18
79 2.85
81 17.3
82 2.87
83 15.87
84 5.86
85 1.22
86 8.63
91 1.29
93 6.98
95 3.12
96 8.8
97 5.45
98 1.06
107 3.5
108 1.95
109 1.27
110 3.98
111 73.55
112 6.38
121 5.47
125 28.67
126 5.61
139 9.29
154 26.08
155 2.52

>  <PREDICTED SPECTRUM>  (3453) 
26 43
27 274
28 92
29 185
31 22
33 7
38 38
39 325
40 141
41 645
42 235
43 728
44 140
45 140
46 24
47 113
50 59
51 180
52 107
53 376
54 179
55 574
56 217
57 314
58 259
59 176
60 33
61 64
62 12
63 89
64 39
65 241
66 95
67 346
68 112
69 395
70 206
71 257
72 119
73 42
74 3
75 259
76 73
77 367
78 149
79 415
80 164
81 487
82 167
83 336
84 101
85 127
86 58
91 345
92 211
93 460
94 214
95 298
96 170
97 161
98 167
99 127
103 27
105 117
107 202
108 130
109 122
110 219
111 999
112 305
113 197
114 14
119 95
120 93
121 383
122 124
125 139
126 96
127 18
136 8
137 68
139 102
154 252
155 46

$$$$

     RDKit          2D

 11 13  0  0  0  0  0  0  0  0999 V2000
   -2.7714   -1.7494    0.0000 C   0  0  0  0  0  0  0  0  0  0  0  0
   -0.0070   -0.7841    0.0000 C   0  0  0  0  0  0  0  0  0  0  0  0
   -0.1524    3.1592    0.0000 C   0  0  0  0  0  0  0  0  0  0  0  0
   -3.5097    1.9003    0.0000 C   0  0  0  0  0  0  0  0  0  0  0  0
   -2.2397   -0.3697    0.0000 C   0  0  0  0  0  0  0  0  0  0  0  0
   -3.5297    0.4003    0.0000 C   0  0  0  0  0  0  0  0  0  0  0  0
   -2.1997    2.6303    0.0000 C   0  0  0  0  0  0  0  0  0  0  0  0
   -0.9397    0.3703    0.0000 C   0  0  0  0  0  0  0  0  0  0  0  0
   -2.2297    1.1403    0.0000 C   0  0  0  0  0  0  0  0  0  0  0  0
   -0.9197    1.8703    0.0000 C   0  0  0  0  0  0  0  0  0  0  0  0
    0.3703    1.1003    0.0000 O   0  0  0  0  0  0  0  0  0  0  0  0
  6  4  1  0
  6  5  1  0
  7  4  1  0
  8  5  1  0
  9  1  1  0
  9  2  1  0
  9  6  1  0
  9  7  1  0
 10  3  1  0
 10  7  1  0
 10  8  1  0
 11  8  1  0
 11 10  1  0
M  END
>  <NAME>  (3454) 
ALPHA-PINENE OXIDE

>  <SYNONYMS>  (3454) 


>  <SPECTRUM TYPE>  (3454) 
MS1

>  <INSTRUMENT TYPE>  (3454) 
EI-B

>  <INSTRUMENT>  (3454) 
HITACHI M-80B

>  <ION MODE>  (3454) 
P

>  <INCHIKEY>  (3454) 
NQFUSWIGRKFAHK-UHFFFAOYSA-N

>  <FORMULA>  (3454) 
C10H16O

>  <EXACT MASS>  (3454) 
152.120115132

>  <MW>  (3454) 
152

>  <ID>  (3454) 
JP006593

>  <CONTRIBUTOR>  (3454) 
University of Tokyo Team, {Faculty of Engineering, University of Tokyo

>  <COMMENT>  (3454) 
SMILES=CC(C)(C23)C(C3)C(C)(O1)C(C2)1
InChI=InChI=1S/C10H16O/c1-9(2)6-4-7(9)10(3)8(5-6)11-10/h6-8H,4-5H2,1-3H3
computed SMILES=O1C2CC3CC(C12C)C3(C)C
accession=JP006593
date=2016.01.19 (Created 2008.10.21, modified 2011.05.06)
author=HISAHIRO HAGIWARA, CHEMICAL RESEARCH INSTITUTE OF NON-AQUEOUSSOLUTIONS TOHOKU UNIV.
license=CC BY-NC-SA
exact mass=152.12012
ionization energy=70 eV
ion type=[M]+*
computed spectral entropy=3.343756529966072
computed normalized entropy=0.8382476567801921
SPLASH=splash10-05no-9100000000-b3f5d40881aacbcfaa8f
submitter=submitter = University of Tokyo Team (Faculty of Engineering, University of Tokyo)
MoNA Rating=3.75

>  <NUM PEAKS>  (3454) 
54

>  <MASS SPECTRAL PEAKS>  (3454) 
15 3.65
26 1.25
27 28.07
29 12.38
38 1.55
39 42.31
40 5.74
41 64.97
42 5.65
43 55.69
44 1.99
45 1.75
50 1.62
51 6.88
52 2.59
53 21.53
54 11.98
55 31.42
56 2.98
57 1.32
63 1.5
65 7.76
66 2.55
67 99.99
68 7.03
69 25.81
70 2.44
71 1.75
77 11.26
78 1.82
79 14.25
80 2.07
81 24.72
82 31.51
83 42.65
84 7.35
91 10.42
92 1.62
93 17.77
94 10.82
95 21.24
96 8.07
97 2.52
98 1.86
105 1.26
107 3.84
108 10.19
109 50.11
110 7.1
111 3.61
119 6.14
123 2.06
137 28.24
138 2.07

>  <PREDICTED SPECTRUM>  (3454) 
26 66
27 398
28 148
29 392
30 75
31 82
32 5
37 51
38 113
39 603
40 284
41 999
42 392
43 981
44 150
45 131
50 181
51 356
52 241
53 571
54 319
55 699
56 309
57 253
58 110
59 229
60 1
62 67
63 161
64 85
65 349
66 288
67 811
68 393
69 828
70 358
71 303
72 159
77 450
78 249
79 615
80 324
81 696
82 547
83 532
84 332
85 119
89 26
91 535
92 287
93 495
94 457
95 723
96 334
97 241
98 69
99 4
103 16
104 9
105 214
106 57
107 450
108 225
109 630
110 335
111 250
112 100
115 36
117 20
119 270
120 17
121 57
123 307
124 122
125 8
133 16
134 124
135 81
136 98
137 682
138 242
139 29
151 111
152 491
153 156

$$$$

     RDKit          2D

 11 12  0  0  1  0  0  0  0  0999 V2000
    1.1590   -4.0000    0.0000 C   0  0  0  0  0  0  0  0  0  0  0  0
   -1.4390   -4.0000    0.0000 C   0  0  0  0  0  0  0  0  0  0  0  0
   -0.8896    2.5493    0.0000 C   0  0  0  0  0  0  0  0  0  0  0  0
   -1.4400   -1.0000    0.0000 C   0  0  0  0  0  0  0  0  0  0  0  0
   -1.4400    0.5000    0.0000 C   0  0  0  0  0  0  0  0  0  0  0  0
    1.1600   -1.0000    0.0000 C   0  0  0  0  0  0  0  0  0  0  0  0
   -0.1400   -3.2500    0.0000 C   0  0  0  0  0  0  0  0  0  0  0  0
   -0.1400   -1.7500    0.0000 C   0  0  0  0  0  0  0  0  0  0  0  0
    1.1600    0.5000    0.0000 C   0  0  0  0  0  0  0  0  0  0  0  0
   -0.1400    1.2500    0.0000 C   0  0  0  0  0  0  0  0  0  0  0  0
    1.1600    2.0000    0.0000 O   0  0  0  0  0  0  0  0  0  0  0  0
  5  4  1  0
  7  1  2  0
  7  2  1  0
  8  4  1  0
  8  6  1  0
  8  7  1  0
  9  6  1  1
 10  3  1  1
 10  5  1  0
 10  9  1  0
  9 11  1  0
 11 10  1  0
M  END
>  <NAME>  (3455) 
TRANS-LIMONENE-1,2-OXIDE

>  <SYNONYMS>  (3455) 


>  <SPECTRUM TYPE>  (3455) 
MS1

>  <INSTRUMENT TYPE>  (3455) 
EI-B

>  <INSTRUMENT>  (3455) 
HITACHI M-80B

>  <ION MODE>  (3455) 
P

>  <INCHIKEY>  (3455) 
CCEFMUBVSUDRLG-AGROOBSYSA-N

>  <FORMULA>  (3455) 
C10H16O

>  <EXACT MASS>  (3455) 
152.120115132

>  <MW>  (3455) 
152

>  <ID>  (3455) 
JP006592

>  <CONTRIBUTOR>  (3455) 
University of Tokyo Team, {Faculty of Engineering, University of Tokyo

>  <COMMENT>  (3455) 
SMILES=CC(=C)C(C2)CC([H])(O1)C(C)(C2)1
InChI=InChI=1S/C10H16O/c1-7(2)8-4-5-10(3)9(6-8)11-10/h8-9H,1,4-6H2,2-3H3/t8?,9-,10-/m0/s1
computed SMILES=O1C2CC(C(=C)C)CCC12C
accession=JP006592
date=2016.01.19 (Created 2008.10.21, modified 2011.05.06)
author=HISAHIRO HAGIWARA, CHEMICAL RESEARCH INSTITUTE OF NON-AQUEOUSSOLUTIONS TOHOKU UNIV.
license=CC BY-NC-SA
exact mass=152.12012
ionization energy=70 eV
ion type=[M]+*
computed spectral entropy=3.4452298560956014
computed normalized entropy=0.8414606547490452
SPLASH=splash10-0006-9100000000-d2c2c757fab643e28b4c
submitter=submitter = University of Tokyo Team (Faculty of Engineering, University of Tokyo)
MoNA Rating=3.75

>  <NUM PEAKS>  (3455) 
60

>  <MASS SPECTRAL PEAKS>  (3455) 
15 2.95
26 1.04
27 22.89
29 10.48
38 1.3
39 32.19
40 5.08
41 44.69
42 3.65
43 99.99
44 15.41
45 2.6
50 1.28
51 3.94
52 2.02
53 16.78
54 4.73
55 19.82
56 2.98
57 1.68
58 1.71
63 1.23
65 3.58
66 2.25
67 51.53
68 9.39
69 7.07
70 1.32
71 24.23
72 1.07
77 6.3
78 1.5
79 23.57
80 3.1
81 23.03
82 22.55
83 6.17
84 7.61
91 6.75
92 2.24
93 27.12
94 8.92
95 12.75
96 2.48
97 2.6
105 2.73
106 1.22
107 4.08
108 18.87
109 28.12
110 6.07
111 2.03
119 6.82
121 3.63
123 8.51
124 3.29
134 2.71
137 21.21
138 1.7
152 3.16

>  <PREDICTED SPECTRUM>  (3455) 
25 6
26 76
27 368
28 177
29 336
30 68
31 137
32 11
33 9
35 26
36 87
37 97
38 171
39 674
40 345
41 989
42 367
43 999
44 312
45 177
46 14
47 64
49 63
50 188
51 398
52 296
53 648
54 341
55 676
56 340
57 391
58 221
59 243
60 99
61 87
62 89
63 224
64 153
65 429
66 303
67 890
68 596
69 647
70 323
71 373
72 208
73 197
74 6
75 123
76 104
77 592
78 315
79 681
80 304
81 740
82 462
83 325
84 272
85 289
86 59
88 43
89 145
90 86
91 592
92 406
93 899
94 524
95 495
96 286
97 279
98 108
99 100
100 11
101 223
102 8
103 100
104 17
105 386
106 273
107 699
108 552
109 934
110 362
111 233
112 65
115 98
116 151
117 280
118 117
119 507
120 209
121 462
122 128
123 204
124 167
125 139
126 12
131 37
133 36
134 367
135 267
136 166
137 281
138 91
139 79
152 52

$$$$

     RDKit          2D

  8  8  0  0  0  0  0  0  0  0999 V2000
   -4.9220    3.0052    0.0000 C   0  0  0  0  0  0  0  0  0  0  0  0
   -3.6230    2.2552    0.0000 C   0  0  0  0  0  0  0  0  0  0  0  0
   -2.3240    3.0052    0.0000 C   0  0  0  0  0  0  0  0  0  0  0  0
    0.2741    3.0052    0.0000 C   0  0  0  0  0  0  0  0  0  0  0  0
    3.0740    2.2548    0.0000 C   0  0  0  0  0  0  0  0  0  0  0  0
    1.5731    2.2552    0.0000 C   0  0  0  0  0  0  0  0  0  0  0  0
   -1.0249    2.2552    0.0000 O   0  0  0  0  0  0  0  0  0  0  0  0
    2.3240    0.9557    0.0000 O   0  0  0  0  0  0  0  0  0  0  0  0
  2  1  2  0
  3  2  1  0
  6  4  1  0
  6  5  1  0
  7  3  1  0
  7  4  1  0
  8  5  1  0
  8  6  1  0
M  END
>  <NAME>  (3456) 
ALLYL GLYCIDYL ETHER

>  <SYNONYMS>  (3456) 
2,3-EPOXYPROPYL ALLYL ETHER

>  <SPECTRUM TYPE>  (3456) 
MS1

>  <INSTRUMENT TYPE>  (3456) 
EI-B

>  <INSTRUMENT>  (3456) 
HITACHI M-80B

>  <ION MODE>  (3456) 
P

>  <INCHIKEY>  (3456) 
LSWYGACWGAICNM-UHFFFAOYSA-N

>  <FORMULA>  (3456) 
C6H10O2

>  <EXACT MASS>  (3456) 
114.06807956

>  <MW>  (3456) 
114

>  <ID>  (3456) 
JP006590

>  <CONTRIBUTOR>  (3456) 
University of Tokyo Team, {Faculty of Engineering, University of Tokyo

>  <COMMENT>  (3456) 
SMILES=C=CCOCC(C1)O1
InChI=InChI=1S/C6H10O2/c1-2-3-7-4-6-5-8-6/h2,6H,1,3-5H2
computed SMILES=O(CC=C)CC1OC1
accession=JP006590
date=2016.01.19 (Created 2008.10.21, modified 2011.05.06)
author=HISAHIRO HAGIWARA, CHEMICAL RESEARCH INSTITUTE OF NON-AQUEOUSSOLUTIONS TOHOKU UNIV.
license=CC BY-NC-SA
exact mass=114.06808
ionization energy=70 eV
ion type=[M]+*
computed spectral entropy=2.4740704623063325
computed normalized entropy=0.7686132043964868
SPLASH=splash10-054o-9000000000-5152038e81216109649c
submitter=submitter = University of Tokyo Team (Faculty of Engineering, University of Tokyo)
MoNA Rating=3.75

>  <NUM PEAKS>  (3456) 
25

>  <MASS SPECTRAL PEAKS>  (3456) 
14 2.09
15 11.33
26 6.37
27 33.58
28 4.07
29 54.09
30 4.31
31 37.1
38 3.23
39 36.9
40 4.93
41 99.99
42 6.76
43 13.73
44 1.61
45 4.88
55 8.03
56 2.62
57 82.57
58 24.78
59 1.14
69 1.01
71 4.58
83 2.86
84 2.41

>  <PREDICTED SPECTRUM>  (3456) 
14 25
15 71
16 5
19 9
25 3
26 119
27 384
28 189
29 508
30 73
31 243
32 26
37 93
38 162
39 643
40 233
41 999
42 286
43 384
44 101
45 211
50 25
51 41
52 33
53 154
54 105
55 393
56 387
57 903
58 418
59 94
69 118
70 88
71 286
72 194
73 326
74 33
84 16
85 84
99 46
113 35
114 47

$$$$

     RDKit          2D

 15 16  0  0  0  0  0  0  0  0999 V2000
    7.4362    0.6108    0.0000 C   0  0  0  0  0  0  0  0  0  0  0  0
    6.1368    2.8606    0.0000 C   0  0  0  0  0  0  0  0  0  0  0  0
   -2.9500   -0.8900    0.0000 C   0  0  0  0  0  0  0  0  0  0  0  0
   -2.9500    0.6100    0.0000 C   0  0  0  0  0  0  0  0  0  0  0  0
   -1.6500   -1.6400    0.0000 C   0  0  0  0  0  0  0  0  0  0  0  0
   -1.6500    1.3600    0.0000 C   0  0  0  0  0  0  0  0  0  0  0  0
    0.9400   -1.6400    0.0000 C   0  0  0  0  0  0  0  0  0  0  0  0
    2.2400   -0.8900    0.0000 C   0  0  0  0  0  0  0  0  0  0  0  0
    0.9400    1.3600    0.0000 C   0  0  0  0  0  0  0  0  0  0  0  0
    4.8381    0.6104    0.0000 C   0  0  0  0  0  0  0  0  0  0  0  0
    6.1370    1.3606    0.0000 C   0  0  0  0  0  0  0  0  0  0  0  0
   -0.3500   -0.8900    0.0000 C   0  0  0  0  0  0  0  0  0  0  0  0
   -0.3500    0.6100    0.0000 C   0  0  0  0  0  0  0  0  0  0  0  0
    2.2400    0.6100    0.0000 C   0  0  0  0  0  0  0  0  0  0  0  0
    3.5389    1.3602    0.0000 O   0  0  0  0  0  0  0  0  0  0  0  0
  4  3  2  0
  5  3  1  0
  6  4  1  0
  8  7  2  0
 11  1  1  0
 11  2  1  0
 11 10  1  0
 12  5  2  0
 12  7  1  0
 13  6  2  0
 13  9  1  0
 13 12  1  0
 14  8  1  0
 14  9  2  0
 15 10  1  0
 15 14  1  0
M  END
>  <NAME>  (3457) 
2-NAPHTHYL ISOBUTYL ETHER

>  <SYNONYMS>  (3457) 
2-NAPHTHYL 2-METHYLPROPYL ETHER

>  <SPECTRUM TYPE>  (3457) 
MS1

>  <INSTRUMENT TYPE>  (3457) 
EI-B

>  <INSTRUMENT>  (3457) 
HITACHI M-80B

>  <ION MODE>  (3457) 
P

>  <INCHIKEY>  (3457) 
XOHIHZHSDMWWMS-UHFFFAOYSA-N

>  <FORMULA>  (3457) 
C14H16O

>  <EXACT MASS>  (3457) 
200.120115132

>  <MW>  (3457) 
200

>  <ID>  (3457) 
JP006589

>  <CONTRIBUTOR>  (3457) 
University of Tokyo Team, {Faculty of Engineering, University of Tokyo

>  <COMMENT>  (3457) 
SMILES=CC(C)COc(c1)cc(c2)c(ccc2)c1
InChI=InChI=1S/C14H16O/c1-11(2)10-15-14-8-7-12-5-3-4-6-13(12)9-14/h3-9,11H,10H2,1-2H3
computed SMILES=O(C=1C=CC=2C=CC=CC2C1)CC(C)C
accession=JP006589
date=2016.01.19 (Created 2008.10.21, modified 2011.05.06)
author=HISAHIRO HAGIWARA, CHEMICAL RESEARCH INSTITUTE OF NON-AQUEOUSSOLUTIONS TOHOKU UNIV.
license=CC BY-NC-SA
exact mass=200.12012
ionization energy=70 eV
ion type=[M]+*
computed spectral entropy=1.9774614037101614
computed normalized entropy=0.6495144785954776
SPLASH=splash10-0006-1910000000-3a6831e046b99bc03c76
submitter=submitter = University of Tokyo Team (Faculty of Engineering, University of Tokyo)
MoNA Rating=3.75

>  <NUM PEAKS>  (3457) 
21

>  <MASS SPECTRAL PEAKS>  (3457) 
27 2.15
29 6.57
39 3.42
41 6.84
57 3.03
63 1.84
65 1.12
75 1.03
77 1.62
89 2.01
114 1.09
115 21.81
116 5.17
126 2.16
127 6.91
128 1.46
143 1.28
144 99.99
145 12.45
200 19.96
201 2.72

>  <PREDICTED SPECTRUM>  (3457) 
18 4
26 30
27 93
28 56
29 209
38 5
39 113
40 1
41 191
42 8
43 58
50 51
51 55
53 32
55 79
56 121
57 194
58 75
61 7
62 63
63 126
64 30
65 123
73 36
74 33
75 54
76 38
77 52
78 1
79 9
86 40
87 36
88 53
89 121
90 28
91 22
100 21
101 69
113 56
114 83
115 490
116 227
117 99
126 142
127 187
128 82
129 91
143 149
144 999
145 299
146 81
157 145
158 17
200 375
201 143

$$$$

     RDKit          2D

 14 14  0  0  0  0  0  0  0  0999 V2000
   -7.7940    4.8196    0.0000 C   0  0  0  0  0  0  0  0  0  0  0  0
   -6.4949    2.5696    0.0000 C   0  0  0  0  0  0  0  0  0  0  0  0
    3.8974    2.5696    0.0000 C   0  0  0  0  0  0  0  0  0  0  0  0
    3.8978    4.0704    0.0000 C   0  0  0  0  0  0  0  0  0  0  0  0
    2.5978    1.8188    0.0000 C   0  0  0  0  0  0  0  0  0  0  0  0
    2.5988    4.8204    0.0000 C   0  0  0  0  0  0  0  0  0  0  0  0
    1.2988    2.5688    0.0000 C   0  0  0  0  0  0  0  0  0  0  0  0
   -5.1959    4.8196    0.0000 C   0  0  0  0  0  0  0  0  0  0  0  0
    0.0002    4.8196    0.0000 C   0  0  0  0  0  0  0  0  0  0  0  0
   -3.8969    4.0696    0.0000 C   0  0  0  0  0  0  0  0  0  0  0  0
   -1.2988    4.0696    0.0000 C   0  0  0  0  0  0  0  0  0  0  0  0
   -6.4949    4.0696    0.0000 C   0  0  0  0  0  0  0  0  0  0  0  0
    1.2993    4.0696    0.0000 C   0  0  0  0  0  0  0  0  0  0  0  0
   -2.5978    4.8196    0.0000 O   0  0  0  0  0  0  0  0  0  0  0  0
  4  3  2  0
  5  3  1  0
  6  4  1  0
  7  5  2  0
 10  8  1  0
 11  9  1  0
 12  1  1  0
 12  2  1  0
 12  8  1  0
 13  6  2  0
 13  7  1  0
 13  9  1  0
 14 10  1  0
 14 11  1  0
M  END
>  <NAME>  (3458) 
PHENYLETHYL ISOPENTYL ETHER

>  <SYNONYMS>  (3458) 
ISOPENTYL PHENETHYL ETHER

>  <SPECTRUM TYPE>  (3458) 
MS1

>  <INSTRUMENT TYPE>  (3458) 
EI-B

>  <INSTRUMENT>  (3458) 
HITACHI M-80B

>  <ION MODE>  (3458) 
P

>  <INCHIKEY>  (3458) 
BHQBQWOZHYUVTL-UHFFFAOYSA-N

>  <FORMULA>  (3458) 
C13H20O

>  <EXACT MASS>  (3458) 
192.15141526

>  <MW>  (3458) 
192

>  <ID>  (3458) 
JP006587

>  <CONTRIBUTOR>  (3458) 
University of Tokyo Team, {Faculty of Engineering, University of Tokyo

>  <COMMENT>  (3458) 
SMILES=CC(C)CCOCCc(c1)cccc1
InChI=InChI=1S/C13H20O/c1-12(2)8-10-14-11-9-13-6-4-3-5-7-13/h3-7,12H,8-11H2,1-2H3
computed SMILES=O(CCC=1C=CC=CC1)CCC(C)C
accession=JP006587
date=2016.01.19 (Created 2008.10.21, modified 2011.05.06)
author=HISAHIRO HAGIWARA, CHEMICAL RESEARCH INSTITUTE OF NON-AQUEOUSSOLUTIONS TOHOKU UNIV.
license=CC BY-NC-SA
exact mass=192.15142
ionization energy=70 eV
ion type=[M]+*
computed spectral entropy=2.9229912331575347
computed normalized entropy=0.8156762342706773
SPLASH=splash10-0006-9200000000-96a5ee8af514cf724658
submitter=submitter = University of Tokyo Team (Faculty of Engineering, University of Tokyo)
MoNA Rating=3.75

>  <NUM PEAKS>  (3458) 
36

>  <MASS SPECTRAL PEAKS>  (3458) 
27 10.13
28 10.29
29 8.5
31 1.28
39 8.53
41 14.78
42 3.02
43 99.99
44 3.24
45 7.87
50 1.27
51 5.4
52 1.47
53 1.85
55 8.14
63 1.77
65 7.51
69 47.67
70 7.98
71 68.54
72 3.46
77 12.86
78 8.18
79 9
89 1.49
91 28.12
92 9.83
101 18.7
102 1.86
103 6.89
104 6.06
105 36.25
106 24.73
107 1.75
122 4.85
192 6.08

>  <PREDICTED SPECTRUM>  (3458) 
14 0
15 13
17 0
18 30
25 8
26 79
27 282
28 83
29 220
30 34
31 122
37 30
38 73
39 280
40 97
41 490
42 228
43 936
44 134
45 164
50 120
51 214
52 122
53 117
54 20
55 239
56 14
59 64
61 2
62 68
63 173
64 124
65 250
66 78
69 476
70 250
71 999
72 263
73 66
74 34
75 54
76 67
77 305
78 249
79 175
80 1
89 176
90 12
91 524
92 262
96 24
101 398
102 183
103 280
104 300
105 443
106 304
107 102
109 15
122 107
192 165
193 39

$$$$

     RDKit          2D

 13 14  0  0  0  0  0  0  0  0999 V2000
    6.1370    1.3606    0.0000 C   0  0  0  0  0  0  0  0  0  0  0  0
    4.8381    0.6104    0.0000 C   0  0  0  0  0  0  0  0  0  0  0  0
   -2.9500   -0.8900    0.0000 C   0  0  0  0  0  0  0  0  0  0  0  0
   -2.9500    0.6100    0.0000 C   0  0  0  0  0  0  0  0  0  0  0  0
   -1.6500   -1.6400    0.0000 C   0  0  0  0  0  0  0  0  0  0  0  0
   -1.6500    1.3600    0.0000 C   0  0  0  0  0  0  0  0  0  0  0  0
    0.9400   -1.6400    0.0000 C   0  0  0  0  0  0  0  0  0  0  0  0
    2.2400   -0.8900    0.0000 C   0  0  0  0  0  0  0  0  0  0  0  0
    0.9400    1.3600    0.0000 C   0  0  0  0  0  0  0  0  0  0  0  0
   -0.3500   -0.8900    0.0000 C   0  0  0  0  0  0  0  0  0  0  0  0
   -0.3500    0.6100    0.0000 C   0  0  0  0  0  0  0  0  0  0  0  0
    2.2400    0.6100    0.0000 C   0  0  0  0  0  0  0  0  0  0  0  0
    3.5389    1.3602    0.0000 O   0  0  0  0  0  0  0  0  0  0  0  0
  2  1  1  0
  4  3  2  0
  5  3  1  0
  6  4  1  0
  8  7  2  0
 10  5  2  0
 10  7  1  0
 11  6  2  0
 11  9  1  0
 11 10  1  0
 12  8  1  0
 12  9  2  0
 13  2  1  0
 13 12  1  0
M  END
>  <NAME>  (3459) 
2-NAPHTHYL ETHYL ETHER

>  <SYNONYMS>  (3459) 
2-ETHOXYNAPHTHALENE

>  <SPECTRUM TYPE>  (3459) 
MS1

>  <INSTRUMENT TYPE>  (3459) 
EI-B

>  <INSTRUMENT>  (3459) 
HITACHI M-80B

>  <ION MODE>  (3459) 
P

>  <INCHIKEY>  (3459) 
GUMOJENFFHZAFP-UHFFFAOYSA-N

>  <FORMULA>  (3459) 
C12H12O

>  <EXACT MASS>  (3459) 
172.088815004

>  <MW>  (3459) 
172

>  <ID>  (3459) 
JP006586

>  <CONTRIBUTOR>  (3459) 
University of Tokyo Team, {Faculty of Engineering, University of Tokyo

>  <COMMENT>  (3459) 
computed SMILES=O(C=1C=CC=2C=CC=CC2C1)CC
SMILES=CCOc(c1)cc(c2)c(ccc2)c1
InChI=InChI=1S/C12H12O/c1-2-13-12-8-7-10-5-3-4-6-11(10)9-12/h3-9H,2H2,1H3
accession=JP006586
date=2016.01.19 (Created 2008.10.21, modified 2011.05.06)
author=HISAHIRO HAGIWARA, CHEMICAL RESEARCH INSTITUTE OF NON-AQUEOUSSOLUTIONS TOHOKU UNIV.
license=CC BY-NC-SA
exact mass=172.08882
ionization energy=70 eV
ion type=[M]+*
computed spectral entropy=2.286173109130365
computed normalized entropy=0.6789344401437839
SPLASH=splash10-00r6-1900000000-1869422e728a21108f75
submitter=submitter = University of Tokyo Team (Faculty of Engineering, University of Tokyo)
MoNA Rating=3.75

>  <NUM PEAKS>  (3459) 
29

>  <MASS SPECTRAL PEAKS>  (3459) 
27 5.61
29 5.28
39 2.41
50 1.34
51 2.15
62 2.01
63 6.08
65 2.62
74 1.62
75 2.26
76 1
77 2.05
87 1.54
88 1.61
89 6.68
101 1.19
113 1.84
114 2.9
115 49.72
116 12.45
126 2.6
127 5.88
128 2.5
129 1.2
143 1.79
144 99.99
145 10.84
172 54.64
173 7.53

>  <PREDICTED SPECTRUM>  (3459) 
14 40
15 84
16 14
17 27
18 26
25 28
26 167
27 296
28 230
29 408
30 128
31 52
32 8
36 11
37 75
38 177
39 285
40 88
41 93
43 0
44 74
49 24
50 217
51 276
52 129
53 56
54 18
57 64
58 65
61 112
62 245
63 382
64 207
65 290
66 68
72 47
73 126
74 252
75 304
76 184
77 312
78 139
79 36
85 9
86 109
87 158
88 213
89 358
90 185
92 8
96 16
97 36
98 4
99 62
100 43
101 66
102 67
104 36
113 108
114 246
115 799
116 348
117 252
118 128
126 277
127 309
128 108
129 42
141 163
142 119
143 561
144 889
145 449
146 103
157 79
171 74
172 999
173 396
174 114

$$$$

     RDKit          2D

 12 12  0  0  0  0  0  0  0  0999 V2000
   -5.1962    1.5000    0.0000 C   0  0  0  0  0  0  0  0  0  0  0  0
    5.1962   -1.5000    0.0000 C   0  0  0  0  0  0  0  0  0  0  0  0
   -3.8971    0.7500    0.0000 C   0  0  0  0  0  0  0  0  0  0  0  0
    3.8971   -0.7500    0.0000 C   0  0  0  0  0  0  0  0  0  0  0  0
   -1.2995   -0.7508    0.0000 C   0  0  0  0  0  0  0  0  0  0  0  0
    0.0005    1.5008    0.0000 C   0  0  0  0  0  0  0  0  0  0  0  0
   -0.0005   -1.5008    0.0000 C   0  0  0  0  0  0  0  0  0  0  0  0
    1.2995    0.7508    0.0000 C   0  0  0  0  0  0  0  0  0  0  0  0
   -1.2990    0.7500    0.0000 C   0  0  0  0  0  0  0  0  0  0  0  0
    1.2990   -0.7500    0.0000 C   0  0  0  0  0  0  0  0  0  0  0  0
   -2.5981    1.5000    0.0000 O   0  0  0  0  0  0  0  0  0  0  0  0
    2.5981   -1.5000    0.0000 O   0  0  0  0  0  0  0  0  0  0  0  0
  3  1  1  0
  4  2  1  0
  7  5  2  0
  8  6  1  0
  9  5  1  0
  9  6  2  0
 10  7  1  0
 10  8  2  0
 11  3  1  0
 11  9  1  0
 12  4  1  0
 12 10  1  0
M  END
>  <NAME>  (3460) 
P-DIETHOXYBENZENE

>  <SYNONYMS>  (3460) 
1,4-DIETHOXYBENZENE

>  <SPECTRUM TYPE>  (3460) 
MS1

>  <INSTRUMENT TYPE>  (3460) 
EI-B

>  <INSTRUMENT>  (3460) 
HITACHI M-80B

>  <ION MODE>  (3460) 
P

>  <INCHIKEY>  (3460) 
VWGNFIQXBYRDCH-UHFFFAOYSA-N

>  <FORMULA>  (3460) 
C10H14O2

>  <EXACT MASS>  (3460) 
166.099379688

>  <MW>  (3460) 
166

>  <ID>  (3460) 
JP006585

>  <CONTRIBUTOR>  (3460) 
University of Tokyo Team, {Faculty of Engineering, University of Tokyo

>  <COMMENT>  (3460) 
SMILES=CCOc(c1)ccc(OCC)c1
InChI=InChI=1S/C10H14O2/c1-3-11-9-5-7-10(8-6-9)12-4-2/h5-8H,3-4H2,1-2H3
computed SMILES=O(C1=CC=C(OCC)C=C1)CC
accession=JP006585
date=2016.01.19 (Created 2008.10.21, modified 2011.05.06)
author=HISAHIRO HAGIWARA, CHEMICAL RESEARCH INSTITUTE OF NON-AQUEOUSSOLUTIONS TOHOKU UNIV.
license=CC BY-NC-SA
exact mass=166.09938
ionization energy=70 eV
ion type=[M]+*
computed spectral entropy=2.542262230333335
computed normalized entropy=0.7474609512638571
SPLASH=splash10-08fr-5900000000-c0e705e3f28077e18002
submitter=submitter = University of Tokyo Team (Faculty of Engineering, University of Tokyo)
MoNA Rating=3.75

>  <NUM PEAKS>  (3460) 
30

>  <MASS SPECTRAL PEAKS>  (3460) 
26 3.73
27 22.74
28 1.67
29 24.57
38 1.86
39 7.04
43 1.19
50 1.97
51 2.71
52 2.97
53 8.83
54 5.14
55 3.42
62 1.58
63 4.84
64 5.1
65 6.71
66 1.49
77 1.68
81 24.08
82 4.59
92 1.09
109 59.41
110 99.99
111 5.37
137 6.78
138 9.56
139 1.16
166 47.86
167 4.41

>  <PREDICTED SPECTRUM>  (3460) 
14 35
15 31
25 40
26 153
27 348
28 219
29 422
30 116
31 99
37 85
38 189
39 371
40 131
41 254
42 42
43 20
44 0
49 34
50 234
51 404
52 346
53 440
54 256
55 258
61 72
62 150
63 345
64 207
65 553
66 122
68 35
74 71
75 25
76 99
77 244
78 29
79 207
80 350
81 748
82 277
84 28
91 76
92 210
93 260
94 131
95 42
96 103
105 38
107 11
108 175
109 903
110 558
111 151
121 34
137 558
138 703
139 136
166 999
167 321
168 55

$$$$

     RDKit          2D

 12 12  0  0  0  0  0  0  0  0999 V2000
   -1.6353    4.6878    0.0000 C   0  0  0  0  0  0  0  0  0  0  0  0
    4.8670    0.9406    0.0000 C   0  0  0  0  0  0  0  0  0  0  0  0
   -1.6328    3.1878    0.0000 C   0  0  0  0  0  0  0  0  0  0  0  0
    3.5681    0.1904    0.0000 C   0  0  0  0  0  0  0  0  0  0  0  0
   -1.6200   -1.3100    0.0000 C   0  0  0  0  0  0  0  0  0  0  0  0
   -0.3300   -2.0600    0.0000 C   0  0  0  0  0  0  0  0  0  0  0  0
   -1.6200    0.1900    0.0000 C   0  0  0  0  0  0  0  0  0  0  0  0
    0.9700   -1.3100    0.0000 C   0  0  0  0  0  0  0  0  0  0  0  0
   -0.3300    0.9400    0.0000 C   0  0  0  0  0  0  0  0  0  0  0  0
    0.9700    0.1900    0.0000 C   0  0  0  0  0  0  0  0  0  0  0  0
   -0.3325    2.4400    0.0000 O   0  0  0  0  0  0  0  0  0  0  0  0
    2.2689    0.9402    0.0000 O   0  0  0  0  0  0  0  0  0  0  0  0
  3  1  1  0
  4  2  1  0
  6  5  2  0
  7  5  1  0
  8  6  1  0
  9  7  2  0
 10  8  2  0
 10  9  1  0
 11  3  1  0
 11  9  1  0
 12  4  1  0
 12 10  1  0
M  END
>  <NAME>  (3461) 
O-DIETHOXYBENZENE

>  <SYNONYMS>  (3461) 
1,2-DIETHOXYBENZENE

>  <SPECTRUM TYPE>  (3461) 
MS1

>  <INSTRUMENT TYPE>  (3461) 
EI-B

>  <INSTRUMENT>  (3461) 
HITACHI M-80B

>  <ION MODE>  (3461) 
P

>  <INCHIKEY>  (3461) 
QZYDOKBVZJLQCK-UHFFFAOYSA-N

>  <FORMULA>  (3461) 
C10H14O2

>  <EXACT MASS>  (3461) 
166.099379688

>  <MW>  (3461) 
166

>  <ID>  (3461) 
JP006584

>  <CONTRIBUTOR>  (3461) 
University of Tokyo Team, {Faculty of Engineering, University of Tokyo

>  <COMMENT>  (3461) 
SMILES=CCOc(c1)c(OCC)ccc1
InChI=InChI=1S/C10H14O2/c1-3-11-9-7-5-6-8-10(9)12-4-2/h5-8H,3-4H2,1-2H3
computed SMILES=O(C=1C=CC=CC1OCC)CC
accession=JP006584
date=2016.01.19 (Created 2008.10.21, modified 2011.05.06)
author=HISAHIRO HAGIWARA, CHEMICAL RESEARCH INSTITUTE OF NON-AQUEOUSSOLUTIONS TOHOKU UNIV.
license=CC BY-NC-SA
exact mass=166.09938
ionization energy=70 eV
ion type=[M]+*
computed spectral entropy=2.452469414040545
computed normalized entropy=0.7141754665938661
SPLASH=splash10-03di-4900000000-5e654f9a6e2183b4c6d9
submitter=submitter = University of Tokyo Team (Faculty of Engineering, University of Tokyo)
MoNA Rating=3.75

>  <NUM PEAKS>  (3461) 
31

>  <MASS SPECTRAL PEAKS>  (3461) 
26 1.89
27 11.94
29 9.08
39 3.06
43 1.86
45 1.16
50 1.89
51 4.21
52 6.31
53 5.27
55 1.33
63 3.37
64 4.06
65 5.68
77 1.74
79 1.1
80 1.5
81 20.27
82 2.21
91 1.25
92 2.25
93 1.7
95 1.15
109 26.07
110 99.99
111 5.95
121 2.7
137 1.02
138 8.21
166 39.23
167 3.62

>  <PREDICTED SPECTRUM>  (3461) 
26 58
27 151
28 41
29 206
38 8
39 169
40 17
41 125
50 103
51 334
52 299
53 335
54 180
55 49
63 208
64 169
65 481
66 124
77 243
79 3
80 256
81 683
82 376
91 216
92 253
93 51
95 96
108 79
109 977
110 905
111 209
121 115
123 68
137 410
138 741
139 124
166 999
167 255
168 23

$$$$

     RDKit          2D

 10 10  0  0  0  0  0  0  0  0999 V2000
    1.9487   -3.0002    0.0000 C   0  0  0  0  0  0  0  0  0  0  0  0
   -1.9500    0.7500    0.0000 C   0  0  0  0  0  0  0  0  0  0  0  0
   -1.9500   -0.7500    0.0000 C   0  0  0  0  0  0  0  0  0  0  0  0
   -0.6500    1.5000    0.0000 C   0  0  0  0  0  0  0  0  0  0  0  0
   -0.6500   -1.5000    0.0000 C   0  0  0  0  0  0  0  0  0  0  0  0
    1.9489    1.5002    0.0000 C   0  0  0  0  0  0  0  0  0  0  0  0
    0.6500    0.7500    0.0000 C   0  0  0  0  0  0  0  0  0  0  0  0
    0.6500   -0.7500    0.0000 C   0  0  0  0  0  0  0  0  0  0  0  0
    1.9487    3.0002    0.0000 O   0  0  0  0  0  0  0  0  0  0  0  0
    1.9489   -1.5002    0.0000 O   0  0  0  0  0  0  0  0  0  0  0  0
  3  2  2  0
  4  2  1  0
  5  3  1  0
  7  4  2  0
  7  6  1  0
  8  5  2  0
  8  7  1  0
  9  6  1  0
 10  1  1  0
 10  8  1  0
M  END
>  <NAME>  (3462) 
2-METHOXYBENZYL ALCOHOL

>  <SYNONYMS>  (3462) 
O-METHOXYBENZYL ALCOHOL

>  <SPECTRUM TYPE>  (3462) 
MS1

>  <INSTRUMENT TYPE>  (3462) 
EI-B

>  <INSTRUMENT>  (3462) 
HITACHI M-80B

>  <ION MODE>  (3462) 
P

>  <INCHIKEY>  (3462) 
WYLYBQSHRJMURN-UHFFFAOYSA-N

>  <FORMULA>  (3462) 
C8H10O2

>  <EXACT MASS>  (3462) 
138.06807956

>  <MW>  (3462) 
138

>  <ID>  (3462) 
JP006582

>  <CONTRIBUTOR>  (3462) 
University of Tokyo Team, {Faculty of Engineering, University of Tokyo

>  <COMMENT>  (3462) 
SMILES=OCc(c1)c(OC)ccc1
InChI=InChI=1S/C8H10O2/c1-10-8-5-3-2-4-7(8)6-9/h2-5,9H,6H2,1H3
computed SMILES=OCC=1C=CC=CC1OC
accession=JP006582
date=2016.01.19 (Created 2008.10.21, modified 2011.05.06)
author=HISAHIRO HAGIWARA, CHEMICAL RESEARCH INSTITUTE OF NON-AQUEOUSSOLUTIONS TOHOKU UNIV.
license=CC BY-NC-SA
exact mass=138.06808
ionization energy=70 eV
ion type=[M]+*
computed spectral entropy=3.392561214910131
computed normalized entropy=0.8427987106613654
SPLASH=splash10-052r-9800000000-a246d0e029677d256b22
submitter=submitter = University of Tokyo Team (Faculty of Engineering, University of Tokyo)
MoNA Rating=3.75

>  <NUM PEAKS>  (3462) 
56

>  <MASS SPECTRAL PEAKS>  (3462) 
15 7.15
26 1.18
27 4.59
29 7.87
30 1.03
31 6.19
33 1.41
37 1.41
38 4.72
39 22.58
40 2.71
41 7.6
43 1.28
50 10.84
51 26.49
52 8.06
53 4.47
55 3.72
61 1.34
62 3.69
63 11.93
64 4.39
65 18.73
66 4.99
67 4.48
74 3.01
75 2.06
76 5.09
77 62.3
78 20.25
79 19.48
80 1.42
89 3.07
90 2.75
91 35.8
92 9.04
93 3.23
94 14.98
95 13.47
104 2
105 56.86
106 20.38
107 39.31
108 3.55
109 35.31
110 2.88
119 3.84
120 4.41
121 22.46
122 5.59
123 20.49
124 1.37
135 1.98
137 26.68
138 99.99
139 8.3

>  <PREDICTED SPECTRUM>  (3462) 
14 37
15 105
16 3
17 8
18 40
19 6
25 26
26 114
27 259
28 79
29 183
30 7
31 194
32 5
33 12
37 92
38 152
39 472
40 116
41 170
42 68
43 37
44 18
45 96
46 35
49 45
50 305
51 497
52 278
53 278
54 23
55 210
56 47
57 43
60 44
61 126
62 196
63 363
64 239
65 584
66 255
67 105
69 32
74 206
75 137
76 147
77 659
78 477
79 383
80 140
81 96
82 90
86 37
88 0
89 261
90 248
91 999
92 430
93 306
94 300
95 344
96 90
102 87
103 144
104 165
105 552
106 237
107 480
108 298
109 426
110 178
111 35
117 1
119 456
120 461
121 381
122 156
123 381
124 121
135 218
136 117
137 280
138 681
139 202
140 20

$$$$

     RDKit          2D

 10 10  0  0  0  0  0  0  0  0999 V2000
   -3.9008    0.7413    0.0000 C   0  0  0  0  0  0  0  0  0  0  0  0
    0.0072   -1.5063    0.0000 C   0  0  0  0  0  0  0  0  0  0  0  0
    1.3207    0.7186    0.0000 C   0  0  0  0  0  0  0  0  0  0  0  0
   -1.2773   -0.7814    0.0000 C   0  0  0  0  0  0  0  0  0  0  0  0
   -0.0038    1.5127    0.0000 C   0  0  0  0  0  0  0  0  0  0  0  0
    2.6016   -1.5127    0.0000 C   0  0  0  0  0  0  0  0  0  0  0  0
    1.3062   -0.7563    0.0000 C   0  0  0  0  0  0  0  0  0  0  0  0
   -1.3028    0.7627    0.0000 C   0  0  0  0  0  0  0  0  0  0  0  0
    3.9043   -0.7691    0.0000 O   0  0  0  0  0  0  0  0  0  0  0  0
   -2.6080    1.5020    0.0000 O   0  0  0  0  0  0  0  0  0  0  0  0
  4  2  2  0
  5  3  1  0
  7  2  1  0
  7  3  2  0
  7  6  1  0
  8  4  1  0
  8  5  2  0
  9  6  1  0
 10  1  1  0
 10  8  1  0
M  END
>  <NAME>  (3463) 
ANISYL ALCOHOL

>  <SYNONYMS>  (3463) 
4-METHOXYBENZYL ALCOHOL

>  <SPECTRUM TYPE>  (3463) 
MS1

>  <INSTRUMENT TYPE>  (3463) 
EI-B

>  <INSTRUMENT>  (3463) 
HITACHI M-80B

>  <ION MODE>  (3463) 
P

>  <INCHIKEY>  (3463) 
MSHFRERJPWKJFX-UHFFFAOYSA-N

>  <FORMULA>  (3463) 
C8H10O2

>  <EXACT MASS>  (3463) 
138.06807956

>  <MW>  (3463) 
138

>  <ID>  (3463) 
JP006581

>  <CONTRIBUTOR>  (3463) 
University of Tokyo Team, {Faculty of Engineering, University of Tokyo

>  <COMMENT>  (3463) 
SMILES=OCc(c1)ccc(OC)c1
InChI=InChI=1S/C8H10O2/c1-10-8-4-2-7(6-9)3-5-8/h2-5,9H,6H2,1H3
computed SMILES=OCC1=CC=C(OC)C=C1
accession=JP006581
date=2016.01.19 (Created 2008.10.21, modified 2011.05.06)
author=HISAHIRO HAGIWARA, CHEMICAL RESEARCH INSTITUTE OF NON-AQUEOUSSOLUTIONS TOHOKU UNIV.
license=CC BY-NC-SA
exact mass=138.06808
ionization energy=70 eV
ion type=[M]+*
computed spectral entropy=3.2753529626922018
computed normalized entropy=0.8249652756040864
SPLASH=splash10-052r-7900000000-ce52521c68b1292fe73c
submitter=submitter = University of Tokyo Team (Faculty of Engineering, University of Tokyo)
MoNA Rating=3.75

>  <NUM PEAKS>  (3463) 
53

>  <MASS SPECTRAL PEAKS>  (3463) 
15 7.21
26 1.17
27 4.06
29 7.21
31 7.32
37 1.15
38 5
39 18.61
40 3.81
41 11.46
43 1.07
50 9.46
51 17.87
52 6.4
53 5.5
55 2.99
61 1.23
62 3.11
63 11.63
64 7.85
65 13.86
66 11.12
67 9.37
68 1.43
74 2.73
75 1.91
76 2.13
77 47.03
78 17.44
79 17.05
80 1.04
81 1
89 4.75
90 1.19
91 7.27
92 7.63
93 1.64
94 27.1
95 6.11
105 13.1
106 5.87
107 26.29
108 2.77
109 67.46
110 6.13
121 49.59
122 5.06
123 5.45
135 4.65
136 1.16
137 64.58
138 99.99
139 8.7

>  <PREDICTED SPECTRUM>  (3463) 
14 29
15 96
16 11
17 4
18 13
25 22
26 130
27 287
28 125
29 272
30 167
31 190
32 8
36 7
37 67
38 151
39 413
40 127
41 285
42 131
43 197
44 76
45 14
46 8
49 56
50 324
51 499
52 332
53 276
54 117
55 271
56 85
57 63
60 25
61 73
62 185
63 368
64 259
65 423
66 251
67 189
68 127
69 114
70 64
72 5
74 193
75 137
76 142
77 701
78 549
79 355
80 164
81 116
82 31
83 3
84 69
86 90
89 268
90 156
91 318
92 282
93 176
94 309
95 264
105 287
106 262
107 657
108 311
109 384
110 133
119 12
120 55
121 994
122 547
123 283
124 71
135 230
136 160
137 717
138 999
139 335
140 68

$$$$

     RDKit          2D

 13 13  0  0  0  0  0  0  0  0999 V2000
   -5.8454    3.6946    0.0000 C   0  0  0  0  0  0  0  0  0  0  0  0
   -4.5464    1.4446    0.0000 C   0  0  0  0  0  0  0  0  0  0  0  0
    3.2478    1.4446    0.0000 C   0  0  0  0  0  0  0  0  0  0  0  0
    3.2483    2.9454    0.0000 C   0  0  0  0  0  0  0  0  0  0  0  0
    1.9483    0.6938    0.0000 C   0  0  0  0  0  0  0  0  0  0  0  0
    1.9493    3.6954    0.0000 C   0  0  0  0  0  0  0  0  0  0  0  0
    0.6493    1.4438    0.0000 C   0  0  0  0  0  0  0  0  0  0  0  0
   -3.2474    3.6946    0.0000 C   0  0  0  0  0  0  0  0  0  0  0  0
   -0.6493    3.6946    0.0000 C   0  0  0  0  0  0  0  0  0  0  0  0
   -4.5464    2.9446    0.0000 C   0  0  0  0  0  0  0  0  0  0  0  0
    0.6498    2.9446    0.0000 C   0  0  0  0  0  0  0  0  0  0  0  0
   -1.9483    2.9446    0.0000 C   0  0  0  0  0  0  0  0  0  0  0  0
   -1.9483    1.4446    0.0000 O   0  0  0  0  0  0  0  0  0  0  0  0
  4  3  2  0
  5  3  1  0
  6  4  1  0
  7  5  2  0
 10  1  1  0
 10  2  1  0
 10  8  1  0
 11  6  2  0
 11  7  1  0
 11  9  1  0
 12  8  1  0
 12  9  1  0
 13 12  1  0
M  END
>  <NAME>  (3464) 
4-METHYL-1-PHENYL-2-PENTANOL

>  <SYNONYMS>  (3464) 


>  <SPECTRUM TYPE>  (3464) 
MS1

>  <INSTRUMENT TYPE>  (3464) 
EI-B

>  <INSTRUMENT>  (3464) 
HITACHI M-80B

>  <ION MODE>  (3464) 
P

>  <INCHIKEY>  (3464) 
IUADYGVMSDKSMB-UHFFFAOYSA-N

>  <FORMULA>  (3464) 
C12H18O

>  <EXACT MASS>  (3464) 
178.135765196

>  <MW>  (3464) 
178

>  <ID>  (3464) 
JP006580

>  <CONTRIBUTOR>  (3464) 
University of Tokyo Team, {Faculty of Engineering, University of Tokyo

>  <COMMENT>  (3464) 
SMILES=CC(C)CC(O)Cc(c1)cccc1
InChI=InChI=1S/C12H18O/c1-10(2)8-12(13)9-11-6-4-3-5-7-11/h3-7,10,12-13H,8-9H2,1-2H3
computed SMILES=OC(CC=1C=CC=CC1)CC(C)C
accession=JP006580
date=2016.01.19 (Created 2008.10.21, modified 2011.05.06)
author=HISAHIRO HAGIWARA, CHEMICAL RESEARCH INSTITUTE OF NON-AQUEOUSSOLUTIONS TOHOKU UNIV.
license=CC BY-NC-SA
exact mass=178.13577
ionization energy=70 eV
ion type=[M]+*
computed spectral entropy=2.043716916118347
computed normalized entropy=0.6712766806365073
SPLASH=splash10-0006-9000000000-546988c3bfc7f11c1acb
submitter=submitter = University of Tokyo Team (Faculty of Engineering, University of Tokyo)
MoNA Rating=3.75

>  <NUM PEAKS>  (3464) 
21

>  <MASS SPECTRAL PEAKS>  (3464) 
27 3.17
29 2.51
39 3.7
41 8.39
43 14.56
44 1.03
45 7.36
51 1.91
57 2.1
63 1.18
65 6.38
69 13.35
71 1.07
77 2.82
87 1.3
89 1.15
91 27.75
92 99.99
93 7.85
103 3.29
121 3.46

>  <PREDICTED SPECTRUM>  (3464) 
14 3
15 19
18 0
25 2
26 69
27 313
28 100
29 304
30 61
31 149
37 64
38 98
39 404
40 150
41 505
42 241
43 600
44 133
45 266
46 61
47 59
49 26
50 128
51 208
52 131
53 171
54 59
55 290
56 63
57 236
58 219
59 123
60 21
61 79
62 86
63 185
64 94
65 398
66 138
67 117
68 28
69 290
70 119
71 92
74 32
75 127
76 46
77 171
78 158
79 165
80 16
81 82
83 67
85 59
86 122
87 209
88 42
89 186
90 147
91 999
92 572
93 167
94 0
101 16
102 34
103 176
104 110
105 51
115 124
116 79
117 283
118 174
119 219
120 123
121 303
122 88
123 34
131 166
134 26
160 115
178 100

$$$$

     RDKit          2D

 13 13  0  0  0  0  0  0  0  0999 V2000
   -5.5207    3.1321    0.0000 C   0  0  0  0  0  0  0  0  0  0  0  0
   -1.9584    4.2812    0.0000 C   0  0  0  0  0  0  0  0  0  0  0  0
   -4.2216    2.3821    0.0000 C   0  0  0  0  0  0  0  0  0  0  0  0
    3.5726    0.8821    0.0000 C   0  0  0  0  0  0  0  0  0  0  0  0
    3.5731    2.3829    0.0000 C   0  0  0  0  0  0  0  0  0  0  0  0
    2.2731    0.1313    0.0000 C   0  0  0  0  0  0  0  0  0  0  0  0
    2.2740    3.1329    0.0000 C   0  0  0  0  0  0  0  0  0  0  0  0
    0.9740    0.8813    0.0000 C   0  0  0  0  0  0  0  0  0  0  0  0
   -0.3245    3.1321    0.0000 C   0  0  0  0  0  0  0  0  0  0  0  0
   -1.6236    2.3821    0.0000 C   0  0  0  0  0  0  0  0  0  0  0  0
    0.9745    2.3821    0.0000 C   0  0  0  0  0  0  0  0  0  0  0  0
   -2.9226    3.1321    0.0000 C   0  0  0  0  0  0  0  0  0  0  0  0
   -3.8868    4.2812    0.0000 O   0  0  0  0  0  0  0  0  0  0  0  0
  3  1  1  0
  5  4  2  0
  6  4  1  0
  7  5  1  0
  8  6  2  0
 10  9  1  0
 11  7  2  0
 11  8  1  0
 11  9  1  0
 12  2  1  0
 12  3  1  0
 12 10  1  0
 13 12  1  0
M  END
>  <NAME>  (3465) 
3-METHYL-1-PHENYL-3-PENTANOL

>  <SYNONYMS>  (3465) 


>  <SPECTRUM TYPE>  (3465) 
MS1

>  <INSTRUMENT TYPE>  (3465) 
EI-B

>  <INSTRUMENT>  (3465) 
HITACHI M-80B

>  <ION MODE>  (3465) 
P

>  <INCHIKEY>  (3465) 
AEJRTNBCFUOSEM-UHFFFAOYSA-N

>  <FORMULA>  (3465) 
C12H18O

>  <EXACT MASS>  (3465) 
178.135765196

>  <MW>  (3465) 
178

>  <ID>  (3465) 
JP006579

>  <CONTRIBUTOR>  (3465) 
University of Tokyo Team, {Faculty of Engineering, University of Tokyo

>  <COMMENT>  (3465) 
SMILES=CCC(C)(O)CCc(c1)cccc1
InChI=InChI=1S/C12H18O/c1-3-12(2,13)10-9-11-7-5-4-6-8-11/h4-8,13H,3,9-10H2,1-2H3
computed SMILES=OC(C)(CC)CCC=1C=CC=CC1
accession=JP006579
date=2016.01.19 (Created 2008.10.21, modified 2011.05.06)
author=HISAHIRO HAGIWARA, CHEMICAL RESEARCH INSTITUTE OF NON-AQUEOUSSOLUTIONS TOHOKU UNIV.
license=CC BY-NC-SA
exact mass=178.13577
ionization energy=70 eV
ion type=[M]+*
computed spectral entropy=2.643910941540188
computed normalized entropy=0.7436433496282205
SPLASH=splash10-006x-9400000000-d1d3d5961d99b1b39b86
submitter=submitter = University of Tokyo Team (Faculty of Engineering, University of Tokyo)
MoNA Rating=3.75

>  <NUM PEAKS>  (3465) 
35

>  <MASS SPECTRAL PEAKS>  (3465) 
27 5.08
29 4.7
31 1.73
39 4.14
41 2.75
43 12.52
45 3.11
51 3.7
52 1.09
53 1.16
55 11.53
57 1.83
58 1.96
63 1.72
65 8.68
73 61.32
74 2.51
77 5.9
78 3.33
79 2.84
89 1.45
91 99.99
92 8.13
103 2.47
104 4.98
105 6.51
106 2.51
131 37.92
132 3.34
145 2.42
149 14.38
150 1.39
160 29.48
161 3.81
163 3.03

>  <PREDICTED SPECTRUM>  (3465) 
14 15
15 14
16 1
17 14
18 32
25 15
26 72
27 247
28 112
29 248
30 28
31 166
32 26
37 36
38 103
39 301
40 108
41 294
43 462
44 119
45 142
49 1
50 159
51 285
52 145
53 124
55 187
56 60
57 291
58 113
59 212
61 30
62 66
63 178
64 93
65 358
66 66
69 153
70 77
71 50
72 31
73 222
74 150
75 110
76 97
77 329
78 258
79 211
83 28
86 22
87 113
89 53
90 11
91 999
92 497
93 53
97 0
102 42
103 223
104 208
105 396
106 165
115 339
116 129
117 386
118 149
119 54
120 103
121 78
128 58
129 219
130 43
131 294
132 44
145 108
146 60
149 315
150 145
151 8
160 157
163 16
178 56
179 8

$$$$

     RDKit          2D

 12 12  0  0  0  0  0  0  0  0999 V2000
   -4.9157    2.0842    0.0000 C   0  0  0  0  0  0  0  0  0  0  0  0
   -3.2818    0.9352    0.0000 C   0  0  0  0  0  0  0  0  0  0  0  0
   -3.6167    2.8342    0.0000 C   0  0  0  0  0  0  0  0  0  0  0  0
    2.8785    0.5842    0.0000 C   0  0  0  0  0  0  0  0  0  0  0  0
    2.8790    2.0851    0.0000 C   0  0  0  0  0  0  0  0  0  0  0  0
    1.5790   -0.1666    0.0000 C   0  0  0  0  0  0  0  0  0  0  0  0
    1.5800    2.8351    0.0000 C   0  0  0  0  0  0  0  0  0  0  0  0
    0.2800    0.5834    0.0000 C   0  0  0  0  0  0  0  0  0  0  0  0
   -1.0186    2.8342    0.0000 C   0  0  0  0  0  0  0  0  0  0  0  0
    0.2805    2.0842    0.0000 C   0  0  0  0  0  0  0  0  0  0  0  0
   -2.3176    2.0842    0.0000 C   0  0  0  0  0  0  0  0  0  0  0  0
   -1.3534    0.9352    0.0000 O   0  0  0  0  0  0  0  0  0  0  0  0
  3  1  1  0
  5  4  2  0
  6  4  1  0
  7  5  1  0
  8  6  2  0
 10  7  2  0
 10  8  1  0
 10  9  1  0
 11  2  1  0
 11  3  1  0
 11  9  1  0
 12 11  1  0
M  END
>  <NAME>  (3466) 
1-PHENYL-2-METHYL-2-BUTANOL

>  <SYNONYMS>  (3466) 


>  <SPECTRUM TYPE>  (3466) 
MS1

>  <INSTRUMENT TYPE>  (3466) 
EI-B

>  <INSTRUMENT>  (3466) 
HITACHI M-80B

>  <ION MODE>  (3466) 
P

>  <INCHIKEY>  (3466) 
FTZBYXCNXOPJEL-UHFFFAOYSA-N

>  <FORMULA>  (3466) 
C11H16O

>  <EXACT MASS>  (3466) 
164.120115132

>  <MW>  (3466) 
164

>  <ID>  (3466) 
JP006578

>  <CONTRIBUTOR>  (3466) 
University of Tokyo Team, {Faculty of Engineering, University of Tokyo

>  <COMMENT>  (3466) 
SMILES=CCC(C)(O)Cc(c1)cccc1
InChI=InChI=1S/C11H16O/c1-3-11(2,12)9-10-7-5-4-6-8-10/h4-8,12H,3,9H2,1-2H3
computed SMILES=OC(C)(CC=1C=CC=CC1)CC
accession=JP006578
date=2016.01.19 (Created 2008.10.21, modified 2011.05.06)
author=HISAHIRO HAGIWARA, CHEMICAL RESEARCH INSTITUTE OF NON-AQUEOUSSOLUTIONS TOHOKU UNIV.
license=CC BY-NC-SA
exact mass=164.12012
ionization energy=70 eV
ion type=[M]+*
computed spectral entropy=2.8509351246528034
computed normalized entropy=0.7446336257208996
SPLASH=splash10-0006-9000000000-bf7f37b33ff652887f34
submitter=submitter = University of Tokyo Team (Faculty of Engineering, University of Tokyo)
MoNA Rating=3.75

>  <NUM PEAKS>  (3466) 
46

>  <MASS SPECTRAL PEAKS>  (3466) 
15 1.66
18 2.3
27 8.48
29 12.4
31 5.06
39 11.07
41 4.43
42 1.06
43 37.23
44 1.05
45 8.21
50 2.04
51 5.69
52 1.58
53 1.94
55 27.92
56 1.17
57 11.88
58 1.45
63 3.9
64 1.59
65 15.68
66 1.16
68 1.03
71 1.01
72 1.31
73 81.28
74 3.69
77 4
78 1.85
79 1.45
89 2.95
90 1.67
91 48.44
92 99.99
93 9.32
104 1.02
105 2.19
115 3.39
116 1.82
117 6.72
131 5.43
135 14.63
136 1.23
146 3.07
149 3.15

>  <PREDICTED SPECTRUM>  (3466) 
14 0
25 5
26 87
27 267
28 98
29 240
30 2
31 197
37 28
38 111
39 389
40 138
41 356
42 140
43 615
45 268
50 152
51 274
52 145
53 195
55 421
56 133
57 214
59 226
60 2
61 40
62 68
63 253
64 169
65 463
66 111
67 33
69 49
71 41
72 164
73 999
74 215
75 112
76 3
77 200
78 220
79 124
81 39
87 28
89 125
90 118
91 947
92 779
93 240
102 48
103 89
104 16
105 163
106 44
115 389
116 11
117 267
131 29
135 282
136 71
146 177
164 42

$$$$

     RDKit          2D

 11 11  0  0  0  0  0  0  0  0999 V2000
   -3.4349    3.0684    0.0000 C   0  0  0  0  0  0  0  0  0  0  0  0
   -3.9839    1.0193    0.0000 C   0  0  0  0  0  0  0  0  0  0  0  0
    2.5113    0.2693    0.0000 C   0  0  0  0  0  0  0  0  0  0  0  0
    2.5118    1.7702    0.0000 C   0  0  0  0  0  0  0  0  0  0  0  0
    1.2118   -0.4815    0.0000 C   0  0  0  0  0  0  0  0  0  0  0  0
    1.2127    2.5202    0.0000 C   0  0  0  0  0  0  0  0  0  0  0  0
   -0.0873    0.2685    0.0000 C   0  0  0  0  0  0  0  0  0  0  0  0
   -1.3858    2.5193    0.0000 C   0  0  0  0  0  0  0  0  0  0  0  0
   -0.0868    1.7693    0.0000 C   0  0  0  0  0  0  0  0  0  0  0  0
   -2.6849    1.7693    0.0000 C   0  0  0  0  0  0  0  0  0  0  0  0
   -1.9349    0.4703    0.0000 O   0  0  0  0  0  0  0  0  0  0  0  0
  4  3  2  0
  5  3  1  0
  6  4  1  0
  7  5  2  0
  9  6  2  0
  9  7  1  0
  9  8  1  0
 10  1  1  0
 10  2  1  0
 10  8  1  0
 11 10  1  0
M  END
>  <NAME>  (3467) 
1-PHENYL-2-METHYL-2-PROPANOL

>  <SYNONYMS>  (3467) 


>  <SPECTRUM TYPE>  (3467) 
MS1

>  <INSTRUMENT TYPE>  (3467) 
EI-B

>  <INSTRUMENT>  (3467) 
HITACHI M-80B

>  <ION MODE>  (3467) 
P

>  <INCHIKEY>  (3467) 
RIWRBSMFKVOJMN-UHFFFAOYSA-N

>  <FORMULA>  (3467) 
C10H14O

>  <EXACT MASS>  (3467) 
150.104465068

>  <MW>  (3467) 
150

>  <ID>  (3467) 
JP006577

>  <CONTRIBUTOR>  (3467) 
University of Tokyo Team, {Faculty of Engineering, University of Tokyo

>  <COMMENT>  (3467) 
SMILES=CC(C)(O)Cc(c1)cccc1
InChI=InChI=1S/C10H14O/c1-10(2,11)8-9-6-4-3-5-7-9/h3-7,11H,8H2,1-2H3
computed SMILES=OC(C)(C)CC=1C=CC=CC1
date=2016.01.19 (Created 2008.10.21, modified 2011.05.06)
accession=JP006577
author=HISAHIRO HAGIWARA, CHEMICAL RESEARCH INSTITUTE OF NON-AQUEOUSSOLUTIONS TOHOKU UNIV.
license=CC BY-NC-SA
exact mass=150.10447
ionization energy=70 eV
ion type=[M]+*
computed spectral entropy=2.6626107439451876
computed normalized entropy=0.7217939152161162
SPLASH=splash10-0006-9000000000-b579a2ed73fc91287b04
submitter=submitter = University of Tokyo Team (Faculty of Engineering, University of Tokyo)
MoNA Rating=3.75

>  <NUM PEAKS>  (3467) 
40

>  <MASS SPECTRAL PEAKS>  (3467) 
14 1.44
15 2.9
17 2.36
18 5.32
26 1
27 3.91
29 2.54
31 14.73
38 1.31
39 10.59
41 7.51
43 26.43
45 2.16
50 2.14
51 6.08
52 2.37
53 1.22
55 1.09
57 4.91
58 2.31
59 79.82
60 2.69
62 1.55
63 4.8
64 1.72
65 13.88
68 1.47
77 3.38
78 1.89
89 3.11
90 1.67
91 49.9
92 99.99
93 6.92
105 1.43
115 3.41
116 1.45
117 9.07
132 3.16
135 7.47

>  <PREDICTED SPECTRUM>  (3467) 
14 18
15 98
17 6
18 9
26 71
27 203
28 61
29 165
31 230
32 13
37 11
38 49
39 228
40 72
41 226
42 65
43 572
45 146
50 140
51 252
52 151
53 122
54 16
55 83
56 14
57 47
58 144
59 827
60 117
62 87
63 161
64 96
65 353
66 98
73 51
74 90
75 23
76 55
77 225
78 167
79 178
89 128
90 95
91 999
92 515
93 234
94 39
95 26
105 142
106 24
115 60
117 109
118 54
131 7
132 80
133 28
135 227
136 23
150 165
151 52

$$$$

     RDKit          2D

  9  9  0  0  0  0  0  0  0  0999 V2000
    2.9228   -0.2425    0.0000 C   0  0  0  0  0  0  0  0  0  0  0  0
    2.9233    1.2583    0.0000 C   0  0  0  0  0  0  0  0  0  0  0  0
    1.6233   -0.9933    0.0000 C   0  0  0  0  0  0  0  0  0  0  0  0
    1.6243    2.0083    0.0000 C   0  0  0  0  0  0  0  0  0  0  0  0
    0.3243   -0.2433    0.0000 C   0  0  0  0  0  0  0  0  0  0  0  0
   -0.9743    2.0075    0.0000 C   0  0  0  0  0  0  0  0  0  0  0  0
   -2.2733    1.2575    0.0000 C   0  0  0  0  0  0  0  0  0  0  0  0
    0.3248    1.2575    0.0000 C   0  0  0  0  0  0  0  0  0  0  0  0
   -3.5724    2.0075    0.0000 O   0  0  0  0  0  0  0  0  0  0  0  0
  2  1  2  0
  3  1  1  0
  4  2  1  0
  5  3  2  0
  7  6  1  0
  8  4  2  0
  8  5  1  0
  8  6  1  0
  9  7  1  0
M  END
>  <NAME>  (3468) 
2-PHENYLETHANOL

>  <SYNONYMS>  (3468) 
PHENYLETHYL ALCOHOL

>  <SPECTRUM TYPE>  (3468) 
MS1

>  <INSTRUMENT TYPE>  (3468) 
EI-B

>  <INSTRUMENT>  (3468) 
HITACHI M-80B

>  <ION MODE>  (3468) 
P

>  <INCHIKEY>  (3468) 
WRMNZCZEMHIOCP-UHFFFAOYSA-N

>  <FORMULA>  (3468) 
C8H10O

>  <EXACT MASS>  (3468) 
122.07316494

>  <MW>  (3468) 
122

>  <ID>  (3468) 
JP006570

>  <CONTRIBUTOR>  (3468) 
University of Tokyo Team, {Faculty of Engineering, University of Tokyo

>  <COMMENT>  (3468) 
SMILES=OCCc(c1)cccc1
InChI=InChI=1S/C8H10O/c9-7-6-8-4-2-1-3-5-8/h1-5,9H,6-7H2
computed SMILES=OCCC=1C=CC=CC1
accession=JP006570
date=2016.01.19 (Created 2008.10.21, modified 2011.05.06)
author=HISAHIRO HAGIWARA, CHEMICAL RESEARCH INSTITUTE OF NON-AQUEOUSSOLUTIONS TOHOKU UNIV.
license=CC BY-NC-SA
exact mass=122.07316
ionization energy=70 eV
ion type=[M]+*
computed spectral entropy=2.2818257578259002
computed normalized entropy=0.6923357710335482
SPLASH=splash10-0006-9100000000-0ea4f78bf9f95dd3e378
submitter=submitter = University of Tokyo Team (Faculty of Engineering, University of Tokyo)
MoNA Rating=3.75

>  <NUM PEAKS>  (3468) 
27

>  <MASS SPECTRAL PEAKS>  (3468) 
18 2.19
27 2.29
29 2.55
31 8.29
38 1.59
39 10.56
41 2.2
43 1.07
50 4
51 8.27
52 2.03
62 1.93
63 6.31
64 1.55
65 18.24
66 1.12
77 5.4
78 4.34
89 2.92
90 1.63
91 99.99
92 55.28
93 4.08
103 2.22
104 2.25
122 23.48
123 1.78

>  <PREDICTED SPECTRUM>  (3468) 
14 13
15 14
16 1
17 2
18 2
19 1
25 4
26 35
27 51
28 17
29 32
30 26
31 173
32 40
37 40
38 87
39 228
40 66
41 85
42 31
43 24
44 46
45 60
49 45
50 158
51 248
52 148
53 108
55 38
57 28
61 41
62 87
63 187
64 88
65 347
66 51
70 16
73 30
74 100
75 90
76 67
77 296
78 243
79 180
80 6
86 19
89 146
90 104
91 999
92 452
93 146
94 37
101 20
102 53
103 213
104 333
105 268
120 59
121 22
122 355
123 130

$$$$

     RDKit          2D

 13 13  0  0  0  0  0  0  0  0999 V2000
   -3.1900    1.5500    0.0000 C   0  0  0  0  0  0  0  0  0  0  0  0
   -2.4400    0.2500    0.0000 C   0  0  0  0  0  0  0  0  0  0  0  0
   -2.4400    2.8500    0.0000 C   0  0  0  0  0  0  0  0  0  0  0  0
   -0.9400    0.2500    0.0000 C   0  0  0  0  0  0  0  0  0  0  0  0
   -0.9400    2.8500    0.0000 C   0  0  0  0  0  0  0  0  0  0  0  0
   -0.1900   -1.0500    0.0000 C   0  0  0  0  0  0  0  0  0  0  0  0
   -0.1900    4.1500    0.0000 C   0  0  0  0  0  0  0  0  0  0  0  0
    1.3100   -1.0500    0.0000 C   0  0  0  0  0  0  0  0  0  0  0  0
    1.3100    4.1500    0.0000 C   0  0  0  0  0  0  0  0  0  0  0  0
    2.0600    0.2500    0.0000 C   0  0  0  0  0  0  0  0  0  0  0  0
    2.0600    2.8500    0.0000 C   0  0  0  0  0  0  0  0  0  0  0  0
    1.3100    1.5500    0.0000 C   0  0  0  0  0  0  0  0  0  0  0  0
   -0.1900    1.5500    0.0000 O   0  0  0  0  0  0  0  0  0  0  0  0
  2  1  1  0
  3  1  1  0
  4  2  1  0
  5  3  1  0
  6  4  1  0
  7  5  1  0
  8  6  1  0
  9  7  1  0
 10  8  1  0
 11  9  1  0
 12 10  1  0
 12 11  1  0
 13 12  1  0
M  END
>  <NAME>  (3469) 
CYCLODODECANOL

>  <SYNONYMS>  (3469) 


>  <SPECTRUM TYPE>  (3469) 
MS1

>  <INSTRUMENT TYPE>  (3469) 
EI-B

>  <INSTRUMENT>  (3469) 
HITACHI M-80B

>  <ION MODE>  (3469) 
P

>  <INCHIKEY>  (3469) 
SFVWPXMPRCIVOK-UHFFFAOYSA-N

>  <FORMULA>  (3469) 
C12H24O

>  <EXACT MASS>  (3469) 
184.182715388

>  <MW>  (3469) 
184

>  <ID>  (3469) 
JP006567

>  <CONTRIBUTOR>  (3469) 
University of Tokyo Team, {Faculty of Engineering, University of Tokyo

>  <COMMENT>  (3469) 
SMILES=OC(C1)CCCCCCCCCC1
InChI=InChI=1S/C12H24O/c13-12-10-8-6-4-2-1-3-5-7-9-11-12/h12-13H,1-11H2
computed SMILES=OC1CCCCCCCCCCC1
accession=JP006567
date=2016.01.19 (Created 2008.10.21, modified 2011.05.06)
author=HISAHIRO HAGIWARA, CHEMICAL RESEARCH INSTITUTE OF NON-AQUEOUSSOLUTIONS TOHOKU UNIV.
license=CC BY-NC-SA
exact mass=184.18272
ionization energy=70 eV
ion type=[M]+*
computed spectral entropy=3.4710318101158983
computed normalized entropy=0.8548406666711958
SPLASH=splash10-0apl-9000000000-5987d46e0de87f305dc4
submitter=submitter = University of Tokyo Team (Faculty of Engineering, University of Tokyo)
MoNA Rating=3.75

>  <NUM PEAKS>  (3469) 
58

>  <MASS SPECTRAL PEAKS>  (3469) 
27 23.42
29 38.99
30 1.44
31 8.27
39 22.74
40 2.74
41 99.99
42 28.24
43 42.05
44 22.42
45 7.99
51 1.08
53 8.14
54 30.72
55 82.34
56 27.08
57 73.21
58 7.72
59 1.38
65 1.68
66 10.2
67 64.15
68 57.36
69 38.36
70 15.87
71 21.69
72 5.43
77 1.37
79 4.07
80 3.32
81 47.96
82 88.66
83 31.36
84 10.24
85 11.18
86 2.07
93 1.37
94 2.31
95 35.98
96 52.07
97 14
98 7.47
99 3.54
109 15.18
110 22.23
111 7.15
112 3.4
113 1.44
123 7.32
124 9.36
125 1.7
137 4.51
138 9.34
139 1.18
140 8.63
141 1.31
156 1.44
166 5.56

>  <PREDICTED SPECTRUM>  (3469) 
15 40
16 3
17 17
18 36
26 89
27 407
28 190
29 524
30 113
31 252
32 43
33 7
38 20
39 449
40 194
41 985
42 489
43 788
44 368
45 228
51 110
52 96
53 350
54 638
55 995
56 522
57 784
58 485
59 360
60 5
63 1
65 156
66 276
67 901
68 777
69 755
70 509
71 617
72 350
73 162
74 44
77 213
78 132
79 340
80 371
81 928
82 999
83 628
84 369
85 263
86 124
91 156
92 103
93 146
94 400
95 754
96 833
97 479
98 339
99 220
100 55
101 42
102 14
105 36
107 72
108 148
109 578
110 448
111 280
112 133
113 149
114 14
119 111
120 91
121 179
122 226
123 357
124 254
125 118
126 150
127 126
128 40
133 95
135 5
137 344
138 279
139 84
140 89
141 95
148 108
151 125
152 87
165 10
166 383
167 105
184 15

$$$$

     RDKit          2D

 11 11  0  0  0  0  0  0  0  0999 V2000
    2.6991    0.2013    0.0000 C   0  0  0  0  0  0  0  0  0  0  0  0
    3.2478    2.2504    0.0000 C   0  0  0  0  0  0  0  0  0  0  0  0
    1.1987    2.7991    0.0000 C   0  0  0  0  0  0  0  0  0  0  0  0
   -1.9500    0.7500    0.0000 C   0  0  0  0  0  0  0  0  0  0  0  0
   -1.9500   -0.7500    0.0000 C   0  0  0  0  0  0  0  0  0  0  0  0
   -0.6500    1.5000    0.0000 C   0  0  0  0  0  0  0  0  0  0  0  0
   -0.6500   -1.5000    0.0000 C   0  0  0  0  0  0  0  0  0  0  0  0
    0.6500    0.7500    0.0000 C   0  0  0  0  0  0  0  0  0  0  0  0
    0.6500   -0.7500    0.0000 C   0  0  0  0  0  0  0  0  0  0  0  0
    1.9489    1.5002    0.0000 C   0  0  0  0  0  0  0  0  0  0  0  0
    1.9489   -1.5002    0.0000 O   0  0  0  0  0  0  0  0  0  0  0  0
  5  4  1  0
  6  4  1  0
  7  5  1  0
  8  6  1  0
  9  7  1  0
  9  8  1  0
 10  1  1  0
 10  2  1  0
 10  3  1  0
 10  8  1  0
 11  9  1  0
M  END
>  <NAME>  (3470) 
2-TERT-BUTYLCYCLOHEXANOL

>  <SYNONYMS>  (3470) 


>  <SPECTRUM TYPE>  (3470) 
MS1

>  <INSTRUMENT TYPE>  (3470) 
EI-B

>  <INSTRUMENT>  (3470) 
HITACHI M-80B

>  <ION MODE>  (3470) 
P

>  <INCHIKEY>  (3470) 
DLTWBMHADAJAAZ-UHFFFAOYSA-N

>  <FORMULA>  (3470) 
C10H20O

>  <EXACT MASS>  (3470) 
156.15141526

>  <MW>  (3470) 
156

>  <ID>  (3470) 
JP006566

>  <CONTRIBUTOR>  (3470) 
University of Tokyo Team, {Faculty of Engineering, University of Tokyo

>  <COMMENT>  (3470) 
SMILES=OC(C1)C(CCC1)C(C)(C)C
InChI=InChI=1S/C10H20O/c1-10(2,3)8-6-4-5-7-9(8)11/h8-9,11H,4-7H2,1-3H3
computed SMILES=OC1CCCCC1C(C)(C)C
accession=JP006566
date=2016.01.19 (Created 2008.10.21, modified 2011.05.06)
author=HISAHIRO HAGIWARA, CHEMICAL RESEARCH INSTITUTE OF NON-AQUEOUSSOLUTIONS TOHOKU UNIV.
license=CC BY-NC-SA
exact mass=156.15142
ionization energy=70 eV
ion type=[M]+*
computed spectral entropy=2.9519111618152287
computed normalized entropy=0.7848322532742714
SPLASH=splash10-053r-9000000000-979b72006bcfd5659775
submitter=submitter = University of Tokyo Team (Faculty of Engineering, University of Tokyo)
MoNA Rating=3.75

>  <NUM PEAKS>  (3470) 
43

>  <MASS SPECTRAL PEAKS>  (3470) 
15 1.13
27 10.96
29 21.75
31 3.33
39 12.18
40 1.4
41 42.96
42 4.08
43 14.62
44 5.42
45 1.22
51 1.09
53 6.22
54 12.41
55 20.44
56 14.28
57 99.99
58 4.77
59 2.47
65 1.45
66 1.01
67 54.06
68 4.1
69 9.88
70 5.16
71 2.33
75 1.07
77 1.57
79 2.98
80 20.44
81 30.04
82 84.64
83 18.64
95 6.6
96 1.09
97 2.54
98 1.34
99 7.66
100 2.5
101 1.42
123 10.04
138 2.13
141 1.73

>  <PREDICTED SPECTRUM>  (3470) 
27 59
29 158
31 21
39 156
40 59
41 465
42 8
43 72
45 12
50 15
51 53
52 39
53 175
54 222
55 299
56 449
57 999
58 233
59 65
60 28
65 6
66 84
67 465
68 162
69 150
70 32
71 30
77 60
79 130
80 228
81 669
82 425
83 254
84 3
85 97
95 138
96 61
98 104
99 389
100 264
101 267
102 4
123 367
138 203
141 191

$$$$

     RDKit          2D

 11 12  0  0  1  0  0  0  0  0999 V2000
   -2.9500   -0.8900    0.0000 C   0  0  0  0  0  0  0  0  0  0  0  0
   -2.9500    0.6100    0.0000 C   0  0  0  0  0  0  0  0  0  0  0  0
   -1.6500   -1.6400    0.0000 C   0  0  0  0  0  0  0  0  0  0  0  0
   -1.6500    1.3600    0.0000 C   0  0  0  0  0  0  0  0  0  0  0  0
    0.9400   -1.6400    0.0000 C   0  0  0  0  0  0  0  0  0  0  0  0
    2.2400   -0.8900    0.0000 C   0  0  0  0  0  0  0  0  0  0  0  0
    0.9400    1.3600    0.0000 C   0  0  0  0  0  0  0  0  0  0  0  0
   -0.3500   -0.8900    0.0000 C   0  0  0  0  0  0  0  0  0  0  0  0
   -0.3500    0.6100    0.0000 C   0  0  0  0  0  0  0  0  0  0  0  0
    2.2400    0.6100    0.0000 C   0  0  0  0  0  0  0  0  0  0  0  0
    3.5389    1.3602    0.0000 O   0  0  0  0  0  0  0  0  0  0  0  0
  2  1  1  0
  3  1  1  0
  4  2  1  0
  6  5  1  0
  8  3  1  6
  8  5  1  0
  9  4  1  1
  9  7  1  0
  9  8  1  0
 10  6  1  0
 10  7  1  0
 11 10  1  0
M  END
>  <NAME>  (3471) 
TRANS-DECAHYDRO-BETA-NAPHTHOL

>  <SYNONYMS>  (3471) 
TRANS-3-HYDROXYBICYCLO(4.4.0)DECANE

>  <SPECTRUM TYPE>  (3471) 
MS1

>  <INSTRUMENT TYPE>  (3471) 
EI-B

>  <INSTRUMENT>  (3471) 
HITACHI M-80B

>  <ION MODE>  (3471) 
P

>  <INCHIKEY>  (3471) 
UPMAOXLCTXPPAG-XMCUXHSSSA-N

>  <FORMULA>  (3471) 
C10H18O

>  <EXACT MASS>  (3471) 
154.135765196

>  <MW>  (3471) 
154

>  <ID>  (3471) 
JP006565

>  <CONTRIBUTOR>  (3471) 
University of Tokyo Team, {Faculty of Engineering, University of Tokyo

>  <COMMENT>  (3471) 
SMILES=OC(C1)CC([H])(C2)C([H])(CCC2)C1
InChI=InChI=1S/C10H18O/c11-10-6-5-8-3-1-2-4-9(8)7-10/h8-11H,1-7H2/t8-,9-,10?/m0/s1
computed SMILES=OC1CCC2CCCCC2C1
accession=JP006565
date=2016.01.19 (Created 2008.10.21, modified 2011.05.06)
author=HISAHIRO HAGIWARA, CHEMICAL RESEARCH INSTITUTE OF NON-AQUEOUSSOLUTIONS TOHOKU UNIV.
license=CC BY-NC-SA
exact mass=154.13577
ionization energy=70 eV
ion type=[M]+*
computed spectral entropy=3.4543072787596496
computed normalized entropy=0.8581380073473257
SPLASH=splash10-000f-9200000000-7a76c308c5a215af8a24
submitter=submitter = University of Tokyo Team (Faculty of Engineering, University of Tokyo)
MoNA Rating=3.75

>  <NUM PEAKS>  (3471) 
56

>  <MASS SPECTRAL PEAKS>  (3471) 
15 1.61
26 1.21
27 25.21
28 2.57
29 27
30 1.08
31 6.04
39 30.25
40 4.27
41 62.92
42 7.76
43 16.03
44 10.58
45 2.03
50 1
51 4.01
52 2.46
53 17.32
54 21.44
55 63.06
56 5.66
57 16.59
58 2.42
65 5.58
66 6.05
67 54.75
68 19.03
69 13.31
70 14.18
71 2.31
77 10.34
78 3.94
79 35.61
80 18.99
81 38.55
82 14.9
83 10.89
84 1.93
91 5.42
92 1.17
93 25.53
94 79.99
95 65.44
96 5.81
97 18.71
98 1.83
107 29.96
108 21.11
109 2.65
110 8.34
111 1.6
121 34.13
122 3.03
135 2.48
136 99.99
137 10.24

>  <PREDICTED SPECTRUM>  (3471) 
26 28
27 227
28 37
29 209
31 127
38 29
39 413
40 159
41 684
42 277
43 377
44 232
45 113
47 27
50 46
51 161
52 110
53 408
54 501
55 686
56 295
57 504
58 255
59 118
60 17
63 29
64 7
65 211
66 309
67 910
68 525
69 375
70 556
71 271
72 18
74 16
77 279
78 193
79 628
80 564
81 997
82 627
83 517
84 177
85 68
86 3
91 369
92 384
93 637
94 644
95 615
96 462
97 457
98 156
103 59
105 145
107 557
108 523
109 261
110 330
111 226
112 105
113 1
117 83
118 297
119 121
121 488
122 108
123 126
125 47
135 187
136 999
137 279
138 27
154 135
155 26

$$$$

     RDKit          2D

  7  7  0  0  0  0  0  0  0  0999 V2000
   -1.6700   -0.9600    0.0000 C   0  0  0  0  0  0  0  0  0  0  0  0
   -1.6700    0.5400    0.0000 C   0  0  0  0  0  0  0  0  0  0  0  0
   -0.3700   -1.7100    0.0000 C   0  0  0  0  0  0  0  0  0  0  0  0
   -0.3700    1.2900    0.0000 C   0  0  0  0  0  0  0  0  0  0  0  0
    0.9300   -0.9600    0.0000 C   0  0  0  0  0  0  0  0  0  0  0  0
    0.9300    0.5400    0.0000 C   0  0  0  0  0  0  0  0  0  0  0  0
    2.2289    1.2902    0.0000 O   0  0  0  0  0  0  0  0  0  0  0  0
  2  1  1  0
  3  1  1  0
  4  2  1  0
  5  3  1  0
  6  4  1  0
  6  5  1  0
  7  6  1  0
M  END
>  <NAME>  (3472) 
CYCLOHEXANOL

>  <SYNONYMS>  (3472) 


>  <SPECTRUM TYPE>  (3472) 
MS1

>  <INSTRUMENT TYPE>  (3472) 
EI-B

>  <INSTRUMENT>  (3472) 
HITACHI M-80B

>  <ION MODE>  (3472) 
P

>  <INCHIKEY>  (3472) 
HPXRVTGHNJAIIH-UHFFFAOYSA-N

>  <FORMULA>  (3472) 
C6H12O

>  <EXACT MASS>  (3472) 
100.088815004

>  <MW>  (3472) 
100

>  <ID>  (3472) 
JP006564

>  <CONTRIBUTOR>  (3472) 
University of Tokyo Team, {Faculty of Engineering, University of Tokyo

>  <COMMENT>  (3472) 
SMILES=OC(C1)CCCC1
InChI=InChI=1S/C6H12O/c7-6-4-2-1-3-5-6/h6-7H,1-5H2
computed SMILES=OC1CCCCC1
accession=JP006564
date=2016.01.19 (Created 2008.10.21, modified 2011.05.06)
author=HISAHIRO HAGIWARA, CHEMICAL RESEARCH INSTITUTE OF NON-AQUEOUSSOLUTIONS TOHOKU UNIV.
license=CC BY-NC-SA
exact mass=100.08882
ionization energy=70 eV
ion type=[M]+*
computed spectral entropy=2.7615403043538866
computed normalized entropy=0.7767285386953132
SPLASH=splash10-0a4i-9000000000-f39d1dfb175a6355d672
submitter=submitter = University of Tokyo Team (Faculty of Engineering, University of Tokyo)
MoNA Rating=3.75

>  <NUM PEAKS>  (3472) 
35

>  <MASS SPECTRAL PEAKS>  (3472) 
15 1.29
18 7.09
26 1.07
27 8.59
28 2.68
29 8.63
31 4.96
38 1.19
39 10.16
40 2.08
41 20.35
42 6.43
43 8.97
44 25.01
45 3.7
50 1.4
51 1.88
53 3.89
54 8.26
55 7.03
56 10.2
57 99.99
58 7.79
59 1.33
67 21.14
68 1.65
71 11.05
72 6.18
79 1.49
81 4.12
82 51.66
83 3.35
85 1.12
99 1.31
100 3.16

>  <PREDICTED SPECTRUM>  (3472) 
14 21
15 53
16 22
17 15
18 32
19 14
26 153
27 478
28 251
29 479
30 101
31 341
32 33
33 14
37 61
38 146
39 710
40 343
41 890
42 512
43 699
44 576
45 273
46 33
47 40
50 177
51 249
52 133
53 433
54 663
55 603
56 581
57 999
58 543
59 223
62 13
63 65
64 38
65 171
66 231
67 796
68 278
69 380
70 497
71 420
72 376
77 28
78 122
79 145
80 229
81 384
82 595
83 344
84 19
85 13
97 69

$$$$

     RDKit          2D

  8  8  0  0  0  0  0  0  0  0999 V2000
    2.2733   -0.6175    0.0000 C   0  0  0  0  0  0  0  0  0  0  0  0
    2.2738    0.8833    0.0000 C   0  0  0  0  0  0  0  0  0  0  0  0
    0.9738   -1.3683    0.0000 C   0  0  0  0  0  0  0  0  0  0  0  0
    0.9748    1.6333    0.0000 C   0  0  0  0  0  0  0  0  0  0  0  0
   -0.3252   -0.6183    0.0000 C   0  0  0  0  0  0  0  0  0  0  0  0
   -1.6238    1.6325    0.0000 C   0  0  0  0  0  0  0  0  0  0  0  0
   -0.3248    0.8825    0.0000 C   0  0  0  0  0  0  0  0  0  0  0  0
   -2.9228    0.8825    0.0000 O   0  0  0  0  0  0  0  0  0  0  0  0
  2  1  2  0
  3  1  1  0
  4  2  1  0
  5  3  2  0
  7  4  2  0
  7  5  1  0
  7  6  1  0
  8  6  1  0
M  END
>  <NAME>  (3473) 
BENZYL ALCOHOL

>  <SYNONYMS>  (3473) 
PHENYLMETHANOL

>  <SPECTRUM TYPE>  (3473) 
MS1

>  <INSTRUMENT TYPE>  (3473) 
EI-B

>  <INSTRUMENT>  (3473) 
HITACHI M-80B

>  <ION MODE>  (3473) 
P

>  <INCHIKEY>  (3473) 
WVDDGKGOMKODPV-UHFFFAOYSA-N

>  <FORMULA>  (3473) 
C7H8O

>  <EXACT MASS>  (3473) 
108.057514876

>  <MW>  (3473) 
108

>  <ID>  (3473) 
JP006562

>  <CONTRIBUTOR>  (3473) 
University of Tokyo Team, {Faculty of Engineering, University of Tokyo

>  <COMMENT>  (3473) 
SMILES=OCc(c1)cccc1
InChI=InChI=1S/C7H8O/c8-6-7-4-2-1-3-5-7/h1-5,8H,6H2
computed SMILES=OCC=1C=CC=CC1
accession=JP006562
date=2016.01.19 (Created 2008.10.21, modified 2011.05.06)
author=HISAHIRO HAGIWARA, CHEMICAL RESEARCH INSTITUTE OF NON-AQUEOUSSOLUTIONS TOHOKU UNIV.
license=CC BY-NC-SA
exact mass=108.05751
ionization energy=70 eV
ion type=[M]+*
computed spectral entropy=2.6190783714055774
computed normalized entropy=0.749055543385441
SPLASH=splash10-056r-9400000000-dd0878988e7c2d9a5431
submitter=submitter = University of Tokyo Team (Faculty of Engineering, University of Tokyo)
MoNA Rating=3.75

>  <NUM PEAKS>  (3473) 
33

>  <MASS SPECTRAL PEAKS>  (3473) 
26 1.41
27 6.11
29 5.04
31 3.6
37 1.67
38 3.41
39 12.11
49 1.29
50 14.23
51 26.12
52 7.46
53 5.5
54 1
61 1.3
62 2.77
63 6.88
64 1.55
65 7.4
74 3.45
75 2.25
76 1.6
77 56.72
78 12.43
79 99.99
80 10.1
89 6.21
90 8.2
91 16.19
92 1.04
105 3.29
107 66.2
108 94.91
109 7.36

>  <PREDICTED SPECTRUM>  (3473) 
14 1
16 6
17 27
18 38
19 1
25 32
26 104
27 119
28 91
29 135
30 44
31 162
32 42
36 5
37 80
38 156
39 330
40 90
41 208
42 7
43 23
49 34
50 267
51 389
52 239
53 195
54 74
55 145
56 35
57 31
61 98
62 147
63 261
64 155
65 453
66 104
67 20
74 183
75 149
76 104
77 428
78 404
79 527
80 213
81 63
87 121
88 54
89 283
90 291
91 999
92 491
93 23
103 70
105 333
106 270
107 489
108 701
109 223
110 33

$$$$

     RDKit          2D

 10  9  0  0  0  0  0  0  0  0999 V2000
    0.5760    3.4486    0.0000 C   0  0  0  0  0  0  0  0  0  0  0  0
    1.3260   -0.8505    0.0000 C   0  0  0  0  0  0  0  0  0  0  0  0
   -0.1740    1.7476    0.0000 C   0  0  0  0  0  0  0  0  0  0  0  0
   -0.7231   -0.3014    0.0000 C   0  0  0  0  0  0  0  0  0  0  0  0
    3.1740    3.4486    0.0000 C   0  0  0  0  0  0  0  0  0  0  0  0
    3.1740    4.9486    0.0000 C   0  0  0  0  0  0  0  0  0  0  0  0
    1.8750    1.1986    0.0000 C   0  0  0  0  0  0  0  0  0  0  0  0
    1.8750    2.6986    0.0000 C   0  0  0  0  0  0  0  0  0  0  0  0
    0.5760    0.4486    0.0000 C   0  0  0  0  0  0  0  0  0  0  0  0
    4.4731    5.6986    0.0000 O   0  0  0  0  0  0  0  0  0  0  0  0
  6  5  1  0
  8  1  1  0
  8  5  1  0
  8  7  1  0
  9  2  1  0
  9  3  1  0
  9  4  1  0
  9  7  1  0
 10  6  1  0
M  END
>  <NAME>  (3474) 
3,5,5-TRIMETHYLHEXANOL

>  <SYNONYMS>  (3474) 


>  <SPECTRUM TYPE>  (3474) 
MS1

>  <INSTRUMENT TYPE>  (3474) 
EI-B

>  <INSTRUMENT>  (3474) 
HITACHI M-80B

>  <ION MODE>  (3474) 
P

>  <INCHIKEY>  (3474) 
BODRLKRKPXBDBN-UHFFFAOYSA-N

>  <FORMULA>  (3474) 
C9H20O

>  <EXACT MASS>  (3474) 
144.15141526

>  <MW>  (3474) 
144

>  <ID>  (3474) 
JP006561

>  <CONTRIBUTOR>  (3474) 
University of Tokyo Team, {Faculty of Engineering, University of Tokyo

>  <COMMENT>  (3474) 
SMILES=OCCC(C)CC(C)(C)C
InChI=InChI=1S/C9H20O/c1-8(5-6-10)7-9(2,3)4/h8,10H,5-7H2,1-4H3
computed SMILES=OCCC(C)CC(C)(C)C
accession=JP006561
date=2016.01.19 (Created 2008.10.21, modified 2011.05.06)
author=HISAHIRO HAGIWARA, CHEMICAL RESEARCH INSTITUTE OF NON-AQUEOUSSOLUTIONS TOHOKU UNIV.
license=CC BY-NC-SA
exact mass=144.15142
ionization energy=70 eV
ion type=[M]+*
computed spectral entropy=2.5943186281803365
computed normalized entropy=0.7962681884668057
SPLASH=splash10-0a4i-9000000000-32d5af9fae2189a99b78
submitter=submitter = University of Tokyo Team (Faculty of Engineering, University of Tokyo)
MoNA Rating=3.75

>  <NUM PEAKS>  (3474) 
26

>  <MASS SPECTRAL PEAKS>  (3474) 
27 8.84
28 1.27
29 16.41
31 13.09
39 9.38
40 1.71
41 40.08
42 6.13
43 18.81
44 1.08
45 1.43
53 2
55 21.24
56 36.58
57 99.99
58 3.23
67 1.12
69 28.05
70 10.05
71 6.75
83 6.66
85 2.29
86 1.94
87 10.83
111 5.82
129 7.48

>  <PREDICTED SPECTRUM>  (3474) 
15 13
19 4
25 0
26 45
27 212
28 78
29 335
30 11
31 155
32 33
33 22
37 34
38 72
39 280
40 117
41 643
42 279
43 450
44 110
45 212
46 104
47 65
49 31
50 107
51 128
52 114
53 214
54 146
55 697
56 653
57 999
58 255
59 170
65 92
66 86
67 229
68 186
69 550
70 381
71 243
72 104
73 119
78 26
79 22
80 5
81 129
82 175
83 573
84 152
85 76
86 32
87 113
88 47
89 68
93 4
95 32
96 140
97 367
98 190
99 113
111 132
112 7
113 28
114 2
125 34
126 106
127 36
129 35

$$$$

     RDKit          2D

 10  9  0  0  0  0  0  0  0  0999 V2000
    2.5981    4.5000    0.0000 C   0  0  0  0  0  0  0  0  0  0  0  0
   -7.7942    4.5000    0.0000 C   0  0  0  0  0  0  0  0  0  0  0  0
    1.2990    5.2500    0.0000 C   0  0  0  0  0  0  0  0  0  0  0  0
   -6.4952    5.2500    0.0000 C   0  0  0  0  0  0  0  0  0  0  0  0
    0.0000    4.5000    0.0000 C   0  0  0  0  0  0  0  0  0  0  0  0
   -5.1962    4.5000    0.0000 C   0  0  0  0  0  0  0  0  0  0  0  0
   -1.2990    5.2500    0.0000 C   0  0  0  0  0  0  0  0  0  0  0  0
   -3.8971    5.2500    0.0000 C   0  0  0  0  0  0  0  0  0  0  0  0
   -2.5981    4.5000    0.0000 C   0  0  0  0  0  0  0  0  0  0  0  0
   -2.5981    3.0000    0.0000 O   0  0  0  0  0  0  0  0  0  0  0  0
  3  1  1  0
  4  2  1  0
  5  3  1  0
  6  4  1  0
  7  5  1  0
  8  6  1  0
  9  7  1  0
  9  8  1  0
 10  9  1  0
M  END
>  <NAME>  (3475) 
5-NONANOL

>  <SYNONYMS>  (3475) 


>  <SPECTRUM TYPE>  (3475) 
MS1

>  <INSTRUMENT TYPE>  (3475) 
EI-B

>  <INSTRUMENT>  (3475) 
HITACHI M-80B

>  <ION MODE>  (3475) 
P

>  <INCHIKEY>  (3475) 
FCBBRODPXVPZAH-UHFFFAOYSA-N

>  <FORMULA>  (3475) 
C9H20O

>  <EXACT MASS>  (3475) 
144.15141526

>  <MW>  (3475) 
144

>  <ID>  (3475) 
JP006560

>  <CONTRIBUTOR>  (3475) 
University of Tokyo Team, {Faculty of Engineering, University of Tokyo

>  <COMMENT>  (3475) 
SMILES=CCCCC(O)CCCC
InChI=InChI=1S/C9H20O/c1-3-5-7-9(10)8-6-4-2/h9-10H,3-8H2,1-2H3
computed SMILES=OC(CCCC)CCCC
accession=JP006560
date=2016.01.19 (Created 2008.10.21, modified 2011.05.06)
author=HISAHIRO HAGIWARA, CHEMICAL RESEARCH INSTITUTE OF NON-AQUEOUSSOLUTIONS TOHOKU UNIV.
license=CC BY-NC-SA
exact mass=144.15142
ionization energy=70 eV
ion type=[M]+*
computed spectral entropy=2.1987735458564446
computed normalized entropy=0.7339686410788394
SPLASH=splash10-014r-9000000000-d5ba4297d392507c447d
submitter=submitter = University of Tokyo Team (Faculty of Engineering, University of Tokyo)
MoNA Rating=3.75

>  <NUM PEAKS>  (3475) 
20

>  <MASS SPECTRAL PEAKS>  (3475) 
27 10.34
29 13.69
31 4.57
39 5.17
41 32.04
42 2.28
43 11.2
44 5.91
45 9.05
53 1.05
55 5.96
56 1.8
57 10.46
58 2.46
69 99.99
70 6.08
86 4.5
87 57.75
88 2.66
126 1.6

>  <PREDICTED SPECTRUM>  (3475) 
15 1
26 40
27 288
28 138
29 356
31 165
39 216
40 60
41 558
42 224
43 411
44 110
45 332
51 64
53 95
54 3
55 306
56 195
57 312
58 97
67 5
68 53
69 999
70 196
71 25
83 197
84 37
85 153
86 248
87 834
88 180
126 51

$$$$

     RDKit          2D

  7  6  0  0  0  0  0  0  0  0999 V2000
    1.2545    2.3272    0.0000 C   0  0  0  0  0  0  0  0  0  0  0  0
   -3.9417    2.3272    0.0000 C   0  0  0  0  0  0  0  0  0  0  0  0
   -2.3078    1.1781    0.0000 C   0  0  0  0  0  0  0  0  0  0  0  0
   -0.0445    3.0772    0.0000 C   0  0  0  0  0  0  0  0  0  0  0  0
   -2.6426    3.0772    0.0000 C   0  0  0  0  0  0  0  0  0  0  0  0
   -1.3436    2.3272    0.0000 C   0  0  0  0  0  0  0  0  0  0  0  0
   -0.3794    1.1781    0.0000 O   0  0  0  0  0  0  0  0  0  0  0  0
  4  1  1  0
  5  2  1  0
  6  3  1  0
  6  4  1  0
  6  5  1  0
  7  6  1  0
M  END
>  <NAME>  (3476) 
3-METHYL-3-PENTANOL

>  <SYNONYMS>  (3476) 


>  <SPECTRUM TYPE>  (3476) 
MS1

>  <INSTRUMENT TYPE>  (3476) 
EI-B

>  <INSTRUMENT>  (3476) 
HITACHI M-80B

>  <ION MODE>  (3476) 
P

>  <INCHIKEY>  (3476) 
FRDAATYAJDYRNW-UHFFFAOYSA-N

>  <FORMULA>  (3476) 
C6H14O

>  <EXACT MASS>  (3476) 
102.104465068

>  <MW>  (3476) 
102

>  <ID>  (3476) 
JP006559

>  <CONTRIBUTOR>  (3476) 
University of Tokyo Team, {Faculty of Engineering, University of Tokyo

>  <COMMENT>  (3476) 
SMILES=CCC(C)(O)CC
InChI=InChI=1S/C6H14O/c1-4-6(3,7)5-2/h7H,4-5H2,1-3H3
computed SMILES=OC(C)(CC)CC
accession=JP006559
date=2016.01.19 (Created 2008.10.21, modified 2011.05.06)
author=HISAHIRO HAGIWARA, CHEMICAL RESEARCH INSTITUTE OF NON-AQUEOUSSOLUTIONS TOHOKU UNIV.
license=CC BY-NC-SA
exact mass=102.10447
ionization energy=70 eV
ion type=[M]+*
computed spectral entropy=2.2318211143111726
computed normalized entropy=0.6933542130046462
SPLASH=splash10-00di-9000000000-94936982b2ae74132d06
submitter=submitter = University of Tokyo Team (Faculty of Engineering, University of Tokyo)
MoNA Rating=3.75

>  <NUM PEAKS>  (3476) 
25

>  <MASS SPECTRAL PEAKS>  (3476) 
15 1.75
18 3.8
26 1.2
27 8.05
29 8.88
31 3.9
39 3.24
41 6.44
42 1.42
43 14.71
44 1.18
45 16.02
46 1.12
51 1.1
53 2.22
55 26.13
56 2.48
57 4.01
58 1.12
69 3.83
71 1.01
73 99.99
74 5.24
85 2.06
87 11.22

>  <PREDICTED SPECTRUM>  (3476) 
14 47
15 90
18 8
19 18
25 21
26 104
27 344
28 190
29 393
30 80
31 326
32 36
38 36
39 283
40 84
41 373
42 50
43 849
44 131
45 298
46 11
47 0
50 34
51 67
52 4
53 147
55 432
56 74
57 231
59 311
69 112
70 1
71 38
72 52
73 999
74 230
75 85
84 28
85 21
87 181
88 12

$$$$

     RDKit          2D

  7  6  0  0  0  0  0  0  0  0999 V2000
   -3.8971    2.2500    0.0000 C   0  0  0  0  0  0  0  0  0  0  0  0
    1.2990    2.2500    0.0000 C   0  0  0  0  0  0  0  0  0  0  0  0
   -0.0000    0.0000    0.0000 C   0  0  0  0  0  0  0  0  0  0  0  0
   -2.5981    1.5000    0.0000 C   0  0  0  0  0  0  0  0  0  0  0  0
    0.0000    1.5000    0.0000 C   0  0  0  0  0  0  0  0  0  0  0  0
   -1.2990    2.2500    0.0000 C   0  0  0  0  0  0  0  0  0  0  0  0
   -1.2990    3.7500    0.0000 O   0  0  0  0  0  0  0  0  0  0  0  0
  4  1  1  0
  5  2  1  0
  5  3  1  0
  6  4  1  0
  6  5  1  0
  7  6  1  0
M  END
>  <NAME>  (3477) 
2-METHYL-3-PENTANOL

>  <SYNONYMS>  (3477) 


>  <SPECTRUM TYPE>  (3477) 
MS1

>  <INSTRUMENT TYPE>  (3477) 
EI-B

>  <INSTRUMENT>  (3477) 
HITACHI M-80B

>  <ION MODE>  (3477) 
P

>  <INCHIKEY>  (3477) 
ISTJMQSHILQAEC-UHFFFAOYSA-N

>  <FORMULA>  (3477) 
C6H14O

>  <EXACT MASS>  (3477) 
102.104465068

>  <MW>  (3477) 
102

>  <ID>  (3477) 
JP006558

>  <CONTRIBUTOR>  (3477) 
University of Tokyo Team, {Faculty of Engineering, University of Tokyo

>  <COMMENT>  (3477) 
SMILES=CCC(O)C(C)C
InChI=InChI=1S/C6H14O/c1-4-6(7)5(2)3/h5-7H,4H2,1-3H3
computed SMILES=OC(CC)C(C)C
accession=JP006558
date=2016.01.19 (Created 2008.10.21, modified 2011.05.06)
author=HISAHIRO HAGIWARA, CHEMICAL RESEARCH INSTITUTE OF NON-AQUEOUSSOLUTIONS TOHOKU UNIV.
license=CC BY-NC-SA
exact mass=102.10447
ionization energy=70 eV
ion type=[M]+*
computed spectral entropy=2.471875375423289
computed normalized entropy=0.7679312623140727
SPLASH=splash10-0a4i-9000000000-9dace1460b3d91f745fa
submitter=submitter = University of Tokyo Team (Faculty of Engineering, University of Tokyo)
MoNA Rating=3.75

>  <NUM PEAKS>  (3477) 
25

>  <MASS SPECTRAL PEAKS>  (3477) 
15 2.26
26 1.44
27 18.68
28 3.12
29 12.44
30 1.24
31 41.96
39 10.64
40 1.32
41 28.17
42 3.22
43 16.58
44 1.06
45 14.04
53 1.15
55 21.1
56 1.46
57 8.66
58 21.8
59 99.99
60 3.37
69 1.78
72 1.25
73 39.5
74 1.36

>  <PREDICTED SPECTRUM>  (3477) 
14 37
15 113
16 11
18 61
19 42
25 25
26 133
27 610
28 281
29 538
30 42
31 510
32 60
36 13
37 59
38 129
39 569
40 204
41 845
42 342
43 999
44 175
45 185
46 65
50 72
51 81
52 6
53 238
55 575
56 133
57 506
58 209
59 965
60 215
61 24
65 39
67 44
69 311
70 296
72 190
73 930
74 113
84 143

$$$$

     RDKit          2D

  7  6  0  0  0  0  0  0  0  0999 V2000
   -4.2219    2.8125    0.0000 C   0  0  0  0  0  0  0  0  0  0  0  0
   -1.0748    0.7635    0.0000 C   0  0  0  0  0  0  0  0  0  0  0  0
    0.9743    1.3125    0.0000 C   0  0  0  0  0  0  0  0  0  0  0  0
   -2.9228    2.0625    0.0000 C   0  0  0  0  0  0  0  0  0  0  0  0
   -1.6238    2.8125    0.0000 C   0  0  0  0  0  0  0  0  0  0  0  0
   -0.3248    2.0625    0.0000 C   0  0  0  0  0  0  0  0  0  0  0  0
    0.4252    3.3615    0.0000 O   0  0  0  0  0  0  0  0  0  0  0  0
  4  1  1  0
  5  4  1  0
  6  2  1  0
  6  3  1  0
  6  5  1  0
  7  6  1  0
M  END
>  <NAME>  (3478) 
2-METHYL-2-PENTANOL

>  <SYNONYMS>  (3478) 


>  <SPECTRUM TYPE>  (3478) 
MS1

>  <INSTRUMENT TYPE>  (3478) 
EI-B

>  <INSTRUMENT>  (3478) 
HITACHI M-80B

>  <ION MODE>  (3478) 
P

>  <INCHIKEY>  (3478) 
WFRBDWRZVBPBDO-UHFFFAOYSA-N

>  <FORMULA>  (3478) 
C6H14O

>  <EXACT MASS>  (3478) 
102.104465068

>  <MW>  (3478) 
102

>  <ID>  (3478) 
JP006557

>  <CONTRIBUTOR>  (3478) 
University of Tokyo Team, {Faculty of Engineering, University of Tokyo

>  <COMMENT>  (3478) 
SMILES=CCCC(C)(C)O
InChI=InChI=1S/C6H14O/c1-4-5-6(2,3)7/h7H,4-5H2,1-3H3
computed SMILES=OC(C)(C)CCC
accession=JP006557
date=2016.01.19 (Created 2008.10.21, modified 2011.05.06)
author=HISAHIRO HAGIWARA, CHEMICAL RESEARCH INSTITUTE OF NON-AQUEOUSSOLUTIONS TOHOKU UNIV.
license=CC BY-NC-SA
exact mass=102.10447
ionization energy=70 eV
ion type=[M]+*
computed spectral entropy=2.1673984334590455
computed normalized entropy=0.7234953712628497
SPLASH=splash10-0a4i-9000000000-e726299a37866c6ee997
submitter=submitter = University of Tokyo Team (Faculty of Engineering, University of Tokyo)
MoNA Rating=3.75

>  <NUM PEAKS>  (3478) 
20

>  <MASS SPECTRAL PEAKS>  (3478) 
15 2.87
27 9.45
28 1.25
29 5.1
31 12.54
39 7.45
41 16.86
42 1.53
43 18.86
45 33.52
55 1.54
56 1.11
57 2.19
58 3.17
59 99.99
60 3.49
69 7.44
85 2.53
87 26.9
88 1.24

>  <PREDICTED SPECTRUM>  (3478) 
14 49
15 134
16 19
17 22
18 52
19 57
25 14
26 83
27 322
28 167
29 293
31 323
32 48
33 33
37 32
38 88
39 306
40 136
41 449
42 244
43 596
44 168
45 174
50 51
51 61
52 30
53 166
54 45
55 218
56 168
57 149
58 79
59 999
60 250
61 18
65 18
67 105
68 39
69 300
70 105
84 140
85 29
87 243
88 15

$$$$

     RDKit          2D

  7  6  0  0  0  0  0  0  0  0999 V2000
   -3.5724    3.9375    0.0000 C   0  0  0  0  0  0  0  0  0  0  0  0
   -2.2733    1.6875    0.0000 C   0  0  0  0  0  0  0  0  0  0  0  0
    0.3248    3.1875    0.0000 C   0  0  0  0  0  0  0  0  0  0  0  0
   -0.9743    3.9375    0.0000 C   0  0  0  0  0  0  0  0  0  0  0  0
    1.6238    3.9375    0.0000 C   0  0  0  0  0  0  0  0  0  0  0  0
   -2.2733    3.1875    0.0000 C   0  0  0  0  0  0  0  0  0  0  0  0
    2.9228    3.1875    0.0000 O   0  0  0  0  0  0  0  0  0  0  0  0
  4  3  1  0
  5  3  1  0
  6  1  1  0
  6  2  1  0
  6  4  1  0
  7  5  1  0
M  END
>  <NAME>  (3479) 
4-METHYLPENTANOL

>  <SYNONYMS>  (3479) 
ISOHEXANOL

>  <SPECTRUM TYPE>  (3479) 
MS1

>  <INSTRUMENT TYPE>  (3479) 
EI-B

>  <INSTRUMENT>  (3479) 
HITACHI M-80B

>  <ION MODE>  (3479) 
P

>  <INCHIKEY>  (3479) 
PCWGTDULNUVNBN-UHFFFAOYSA-N

>  <FORMULA>  (3479) 
C6H14O

>  <EXACT MASS>  (3479) 
102.104465068

>  <MW>  (3479) 
102

>  <ID>  (3479) 
JP006556

>  <CONTRIBUTOR>  (3479) 
University of Tokyo Team, {Faculty of Engineering, University of Tokyo

>  <COMMENT>  (3479) 
SMILES=OCCCC(C)C
InChI=InChI=1S/C6H14O/c1-6(2)4-3-5-7/h6-7H,3-5H2,1-2H3
computed SMILES=OCCCC(C)C
accession=JP006556
date=2016.01.19 (Created 2008.10.21, modified 2011.05.06)
author=HISAHIRO HAGIWARA, CHEMICAL RESEARCH INSTITUTE OF NON-AQUEOUSSOLUTIONS TOHOKU UNIV.
license=CC BY-NC-SA
exact mass=102.10447
ionization energy=70 eV
ion type=[M]+*
computed spectral entropy=2.4302321466568713
computed normalized entropy=0.7646919392774414
SPLASH=splash10-052f-9000000000-238beab3724f409e2a94
submitter=submitter = University of Tokyo Team (Faculty of Engineering, University of Tokyo)
MoNA Rating=3.75

>  <NUM PEAKS>  (3479) 
24

>  <MASS SPECTRAL PEAKS>  (3479) 
15 1.91
26 1.23
27 20.99
28 3.43
29 16.53
31 25.95
39 16.92
40 2.5
41 63.96
42 42.1
43 50.13
44 2
45 3.53
53 2.15
55 11.76
56 99.99
57 10.88
59 1.23
60 1.28
67 1.02
69 40.38
70 2.13
83 1.36
84 4.22

>  <PREDICTED SPECTRUM>  (3479) 
14 17
15 27
18 2
19 33
26 66
27 343
28 176
29 376
30 94
31 311
32 26
33 4
36 6
37 35
38 89
39 408
40 162
41 805
42 548
43 824
44 260
45 178
46 51
47 51
49 12
50 99
51 153
52 56
53 244
54 198
55 804
56 999
57 531
58 185
59 196
60 11
65 41
66 9
67 202
68 89
69 777
70 274
71 170
72 93
73 36
74 74
81 102
83 247
84 201
85 53

$$$$

     RDKit          2D

  7  6  0  0  0  0  0  0  0  0999 V2000
    1.9486    2.6250    0.0000 C   0  0  0  0  0  0  0  0  0  0  0  0
   -1.9486    4.8750    0.0000 C   0  0  0  0  0  0  0  0  0  0  0  0
    0.6495    3.3750    0.0000 C   0  0  0  0  0  0  0  0  0  0  0  0
   -0.6495    2.6250    0.0000 C   0  0  0  0  0  0  0  0  0  0  0  0
   -3.2476    2.6250    0.0000 C   0  0  0  0  0  0  0  0  0  0  0  0
   -1.9486    3.3750    0.0000 C   0  0  0  0  0  0  0  0  0  0  0  0
   -4.5466    3.3750    0.0000 O   0  0  0  0  0  0  0  0  0  0  0  0
  3  1  1  0
  4  3  1  0
  6  2  1  0
  6  4  1  0
  6  5  1  0
  7  5  1  0
M  END
>  <NAME>  (3480) 
2-METHYLPENTANOL

>  <SYNONYMS>  (3480) 


>  <SPECTRUM TYPE>  (3480) 
MS1

>  <INSTRUMENT TYPE>  (3480) 
EI-B

>  <INSTRUMENT>  (3480) 
HITACHI M-80B

>  <ION MODE>  (3480) 
P

>  <INCHIKEY>  (3480) 
PFNHSEQQEPMLNI-UHFFFAOYSA-N

>  <FORMULA>  (3480) 
C6H14O

>  <EXACT MASS>  (3480) 
102.104465068

>  <MW>  (3480) 
102

>  <ID>  (3480) 
JP006554

>  <CONTRIBUTOR>  (3480) 
University of Tokyo Team, {Faculty of Engineering, University of Tokyo

>  <COMMENT>  (3480) 
SMILES=CCCC(C)CO
InChI=InChI=1S/C6H14O/c1-3-4-6(2)5-7/h6-7H,3-5H2,1-2H3
computed SMILES=OCC(C)CCC
accession=JP006554
date=2016.01.19 (Created 2008.10.21, modified 2011.05.06)
author=HISAHIRO HAGIWARA, CHEMICAL RESEARCH INSTITUTE OF NON-AQUEOUSSOLUTIONS TOHOKU UNIV.
license=CC BY-NC-SA
exact mass=102.10447
ionization energy=70 eV
ion type=[M]+*
computed spectral entropy=2.564771987950478
computed normalized entropy=0.8179801368858376
SPLASH=splash10-0006-9000000000-3815219f065b85e40e84
submitter=submitter = University of Tokyo Team (Faculty of Engineering, University of Tokyo)
MoNA Rating=3.75

>  <NUM PEAKS>  (3480) 
23

>  <MASS SPECTRAL PEAKS>  (3480) 
15 1.54
26 1.21
27 21.04
28 1.94
29 22.05
31 22.68
39 15.18
40 2.07
41 34.73
42 19.27
43 99.99
44 3.05
45 3.42
53 1.83
55 24.8
56 16.51
57 3.64
59 1.37
69 18.51
70 25.42
71 28.08
72 1.27
84 10.84

>  <PREDICTED SPECTRUM>  (3480) 
14 47
15 98
16 18
17 11
18 23
19 47
25 27
26 136
27 520
28 273
29 564
30 132
31 444
32 61
33 6
35 19
36 17
37 53
38 121
39 480
40 178
41 808
42 546
43 999
44 206
45 119
49 1
50 94
51 125
52 37
53 203
54 164
55 840
56 898
57 660
58 160
59 230
60 12
65 104
66 13
67 136
69 572
70 352
71 347
72 114
73 148
83 167
84 603
85 245

$$$$

     RDKit          2D

  6  5  0  0  0  0  0  0  0  0999 V2000
    1.2990    2.2500    0.0000 C   0  0  0  0  0  0  0  0  0  0  0  0
   -3.8971    2.2500    0.0000 C   0  0  0  0  0  0  0  0  0  0  0  0
    0.0000    3.0000    0.0000 C   0  0  0  0  0  0  0  0  0  0  0  0
   -1.2990    2.2500    0.0000 C   0  0  0  0  0  0  0  0  0  0  0  0
   -2.5981    3.0000    0.0000 C   0  0  0  0  0  0  0  0  0  0  0  0
   -2.5981    4.5000    0.0000 O   0  0  0  0  0  0  0  0  0  0  0  0
  3  1  1  0
  4  3  1  0
  5  2  1  0
  5  4  1  0
  6  5  1  0
M  END
>  <NAME>  (3481) 
2-PENTANOL

>  <SYNONYMS>  (3481) 


>  <SPECTRUM TYPE>  (3481) 
MS1

>  <INSTRUMENT TYPE>  (3481) 
EI-B

>  <INSTRUMENT>  (3481) 
HITACHI M-80B

>  <ION MODE>  (3481) 
P

>  <INCHIKEY>  (3481) 
JYVLIDXNZAXMDK-UHFFFAOYSA-N

>  <FORMULA>  (3481) 
C5H12O

>  <EXACT MASS>  (3481) 
88.088815004

>  <MW>  (3481) 
88

>  <ID>  (3481) 
JP006552

>  <CONTRIBUTOR>  (3481) 
University of Tokyo Team, {Faculty of Engineering, University of Tokyo

>  <COMMENT>  (3481) 
SMILES=CCCC(C)O
InChI=InChI=1S/C5H12O/c1-3-4-5(2)6/h5-6H,3-4H2,1-2H3
computed SMILES=OC(C)CCC
accession=JP006552
date=2016.01.19 (Created 2008.10.21, modified 2011.05.06)
author=HISAHIRO HAGIWARA, CHEMICAL RESEARCH INSTITUTE OF NON-AQUEOUSSOLUTIONS TOHOKU UNIV.
license=CC BY-NC-SA
exact mass=88.08882
ionization energy=70 eV
ion type=[M]+*
computed spectral entropy=1.857648377222497
computed normalized entropy=0.6700050253835818
SPLASH=splash10-0002-9000000000-0ae80db19f0a4f6f52a0
submitter=submitter = University of Tokyo Team (Faculty of Engineering, University of Tokyo)
MoNA Rating=3.75

>  <NUM PEAKS>  (3481) 
16

>  <MASS SPECTRAL PEAKS>  (3481) 
15 1.63
19 1.42
27 9.08
29 5.89
31 4.41
39 5.49
41 6.54
42 2.74
43 15.1
44 8.15
45 99.99
46 1.92
55 19.97
57 1.31
70 1.66
73 9.31

>  <PREDICTED SPECTRUM>  (3481) 
14 46
15 136
16 18
18 6
19 90
26 98
27 383
28 150
29 315
31 218
32 46
38 57
39 281
40 69
41 409
42 255
43 581
44 520
45 999
46 172
47 16
50 26
51 14
53 74
55 293
56 116
69 44
70 132
71 30
73 217
88 25

$$$$

     RDKit          2D

 17 16  0  0  0  0  0  0  0  0999 V2000
    4.5466    7.8750    0.0000 C   0  0  0  0  0  0  0  0  0  0  0  0
  -13.6399    7.8750    0.0000 C   0  0  0  0  0  0  0  0  0  0  0  0
  -12.3409   10.1250    0.0000 C   0  0  0  0  0  0  0  0  0  0  0  0
    3.2476    8.6250    0.0000 C   0  0  0  0  0  0  0  0  0  0  0  0
    1.9486    7.8750    0.0000 C   0  0  0  0  0  0  0  0  0  0  0  0
    0.6495    8.6250    0.0000 C   0  0  0  0  0  0  0  0  0  0  0  0
   -0.6495    7.8750    0.0000 C   0  0  0  0  0  0  0  0  0  0  0  0
   -1.9486    8.6250    0.0000 C   0  0  0  0  0  0  0  0  0  0  0  0
   -3.2476    7.8750    0.0000 C   0  0  0  0  0  0  0  0  0  0  0  0
   -4.5466    8.6250    0.0000 C   0  0  0  0  0  0  0  0  0  0  0  0
   -5.8457    7.8750    0.0000 C   0  0  0  0  0  0  0  0  0  0  0  0
   -7.1447    8.6250    0.0000 C   0  0  0  0  0  0  0  0  0  0  0  0
   -8.4437    7.8750    0.0000 C   0  0  0  0  0  0  0  0  0  0  0  0
  -12.3409    8.6250    0.0000 C   0  0  0  0  0  0  0  0  0  0  0  0
   -9.7428    8.6250    0.0000 C   0  0  0  0  0  0  0  0  0  0  0  0
   -9.7428   10.1250    0.0000 O   0  0  0  0  0  0  0  0  0  0  0  0
  -11.0418    7.8750    0.0000 O   0  0  0  0  0  0  0  0  0  0  0  0
  4  1  1  0
  5  4  1  0
  6  5  1  0
  7  6  1  0
  8  7  1  0
  9  8  1  0
 10  9  1  0
 11 10  1  0
 12 11  1  0
 13 12  1  0
 14  2  1  0
 14  3  1  0
 15 13  1  0
 16 15  2  0
 17 14  1  0
 17 15  1  0
M  END
>  <NAME>  (3482) 
ISOPROPYL LAURATE

>  <SYNONYMS>  (3482) 
ISOPROPYL DODECANOATE

>  <SPECTRUM TYPE>  (3482) 
MS1

>  <INSTRUMENT TYPE>  (3482) 
EI-B

>  <INSTRUMENT>  (3482) 
HITACHI M-80B

>  <ION MODE>  (3482) 
P

>  <INCHIKEY>  (3482) 
UJPPXNXOEVDSRW-UHFFFAOYSA-N

>  <FORMULA>  (3482) 
C15H30O2

>  <EXACT MASS>  (3482) 
242.2245802

>  <MW>  (3482) 
242

>  <ID>  (3482) 
JP006549

>  <CONTRIBUTOR>  (3482) 
University of Tokyo Team, {Faculty of Engineering, University of Tokyo

>  <COMMENT>  (3482) 
SMILES=CCCCCCCCCCCC(=O)OC(C)C
InChI=InChI=1S/C15H30O2/c1-4-5-6-7-8-9-10-11-12-13-15(16)17-14(2)3/h14H,4-13H2,1-3H3
computed SMILES=O=C(OC(C)C)CCCCCCCCCCC
accession=JP006549
date=2016.01.19 (Created 2008.10.21, modified 2011.05.06)
author=HISAHIRO HAGIWARA, CHEMICAL RESEARCH INSTITUTE OF NON-AQUEOUSSOLUTIONS TOHOKU UNIV.
license=CC BY-NC-SA
exact mass=242.22458
ionization energy=70 eV
ion type=[M]+*
computed spectral entropy=3.344280314861791
computed normalized entropy=0.8423260525117776
SPLASH=splash10-0f6x-9100000000-552cf8702f9602b99af3
submitter=submitter = University of Tokyo Team (Faculty of Engineering, University of Tokyo)
MoNA Rating=3.75

>  <NUM PEAKS>  (3482) 
53

>  <MASS SPECTRAL PEAKS>  (3482) 
27 15.8
29 19.62
39 9.11
41 51.88
42 18.25
43 99.99
44 3.2
45 4.55
53 1.99
54 2.37
55 30.58
56 9.58
57 33.59
58 1.67
59 18.62
60 58.65
61 12.66
67 3.03
68 2.25
69 14.56
70 5.01
71 17.48
73 26.11
74 2.77
81 2.64
82 1.65
83 10.29
84 6.65
85 13.47
87 6.72
95 3.28
96 1.43
97 7.99
98 6.83
99 2.17
101 4.54
102 45.19
103 4.98
109 1.52
111 2.75
112 1.38
115 5.16
129 9.43
138 1.37
140 1.74
143 1.8
157 6.21
171 1.79
183 21.82
184 2.6
200 24.16
201 20.73
202 2.36

>  <PREDICTED SPECTRUM>  (3482) 
15 60
26 30
27 227
28 137
29 323
30 7
31 62
37 0
38 15
39 199
40 90
41 554
42 323
43 807
44 116
45 189
46 61
50 9
51 32
52 13
53 251
54 236
55 798
56 481
57 849
58 210
59 598
60 982
61 786
62 136
63 71
64 35
65 171
66 100
67 330
68 238
69 633
70 332
71 634
72 155
73 807
74 237
75 72
77 14
78 2
79 164
80 76
81 335
82 234
83 591
84 368
85 471
86 143
87 349
88 123
89 8
91 27
93 175
94 81
95 324
96 238
97 468
98 265
99 278
100 91
101 386
102 999
103 324
104 0
107 104
109 248
110 109
111 411
112 149
113 159
114 10
115 350
116 191
119 49
121 16
122 67
123 148
124 113
125 201
126 97
127 57
128 23
129 491
130 62
135 17
136 11
137 98
138 119
139 127
140 100
141 134
143 281
144 79
145 42
149 36
151 41
153 35
157 435
158 143
159 4
163 113
165 34
167 79
170 4
171 263
172 158
180 82
181 171
182 53
183 646
184 232
185 126
199 112
200 961
201 683
202 264
203 54
242 92
243 11

$$$$

     RDKit          2D

 17 16  0  0  0  0  0  0  0  0999 V2000
    5.1962    8.2500    0.0000 C   0  0  0  0  0  0  0  0  0  0  0  0
  -14.2894    9.0000    0.0000 C   0  0  0  0  0  0  0  0  0  0  0  0
    3.8971    9.0000    0.0000 C   0  0  0  0  0  0  0  0  0  0  0  0
  -12.9904    8.2500    0.0000 C   0  0  0  0  0  0  0  0  0  0  0  0
    2.5981    8.2500    0.0000 C   0  0  0  0  0  0  0  0  0  0  0  0
    1.2990    9.0000    0.0000 C   0  0  0  0  0  0  0  0  0  0  0  0
    0.0000    8.2500    0.0000 C   0  0  0  0  0  0  0  0  0  0  0  0
   -1.2990    9.0000    0.0000 C   0  0  0  0  0  0  0  0  0  0  0  0
   -2.5981    8.2500    0.0000 C   0  0  0  0  0  0  0  0  0  0  0  0
   -3.8971    9.0000    0.0000 C   0  0  0  0  0  0  0  0  0  0  0  0
   -5.1962    8.2500    0.0000 C   0  0  0  0  0  0  0  0  0  0  0  0
   -6.4952    9.0000    0.0000 C   0  0  0  0  0  0  0  0  0  0  0  0
   -7.7942    8.2500    0.0000 C   0  0  0  0  0  0  0  0  0  0  0  0
  -11.6913    9.0000    0.0000 C   0  0  0  0  0  0  0  0  0  0  0  0
   -9.0933    9.0000    0.0000 C   0  0  0  0  0  0  0  0  0  0  0  0
   -9.0933   10.5000    0.0000 O   0  0  0  0  0  0  0  0  0  0  0  0
  -10.3923    8.2500    0.0000 O   0  0  0  0  0  0  0  0  0  0  0  0
  3  1  1  0
  4  2  1  0
  5  3  1  0
  6  5  1  0
  7  6  1  0
  8  7  1  0
  9  8  1  0
 10  9  1  0
 11 10  1  0
 12 11  1  0
 13 12  1  0
 14  4  1  0
 15 13  1  0
 16 15  2  0
 17 14  1  0
 17 15  1  0
M  END
>  <NAME>  (3483) 
PROPYL LAURATE

>  <SYNONYMS>  (3483) 
PROPYL DODECANOATE

>  <SPECTRUM TYPE>  (3483) 
MS1

>  <INSTRUMENT TYPE>  (3483) 
EI-B

>  <INSTRUMENT>  (3483) 
HITACHI M-80B

>  <ION MODE>  (3483) 
P

>  <INCHIKEY>  (3483) 
FTBUKOLPOATXGV-UHFFFAOYSA-N

>  <FORMULA>  (3483) 
C15H30O2

>  <EXACT MASS>  (3483) 
242.2245802

>  <MW>  (3483) 
242

>  <ID>  (3483) 
JP006548

>  <CONTRIBUTOR>  (3483) 
University of Tokyo Team, {Faculty of Engineering, University of Tokyo

>  <COMMENT>  (3483) 
SMILES=CCCCCCCCCCCC(=O)OCCC
InChI=InChI=1S/C15H30O2/c1-3-5-6-7-8-9-10-11-12-13-15(16)17-14-4-2/h3-14H2,1-2H3
computed SMILES=O=C(OCCC)CCCCCCCCCCC
accession=JP006548
date=2016.01.19 (Created 2008.10.21, modified 2011.05.06)
author=HISAHIRO HAGIWARA, CHEMICAL RESEARCH INSTITUTE OF NON-AQUEOUSSOLUTIONS TOHOKU UNIV.
license=CC BY-NC-SA
exact mass=242.22458
ionization energy=70 eV
ion type=[M]+*
computed spectral entropy=3.3618351835748244
computed normalized entropy=0.8177908869628825
SPLASH=splash10-01ox-9200000000-d732b1857af6737c86fc
submitter=submitter = University of Tokyo Team (Faculty of Engineering, University of Tokyo)
MoNA Rating=3.75

>  <NUM PEAKS>  (3483) 
61

>  <MASS SPECTRAL PEAKS>  (3483) 
27 21.86
29 27.49
31 2.24
39 10.79
41 65.05
42 27.64
43 96.12
44 2.34
45 2.19
53 2.56
54 2.93
55 39.91
56 11.21
57 36.54
58 2.02
59 4.18
60 54.48
61 99.99
62 2.09
67 3.78
68 2.62
69 18.25
70 4.19
71 14.51
72 1.04
73 41.8
74 3.6
79 1.04
81 3.27
82 1.76
83 12.69
84 7.92
85 9.85
87 10.28
89 1.05
95 3.71
96 1.56
97 9.55
98 7.13
99 1.59
101 3.86
102 40.45
103 8.21
109 1.85
111 2.66
112 1.4
115 23.68
116 1.99
125 1.2
129 8.68
138 1.01
143 1.99
157 7.29
171 5.59
183 33.58
184 3.74
199 2.9
200 3.91
201 35.4
202 3.85
242 3.89

>  <PREDICTED SPECTRUM>  (3483) 
26 32
27 268
28 118
29 363
30 8
31 38
38 16
39 210
40 99
41 623
42 368
43 955
44 120
45 149
46 76
47 59
49 26
51 22
52 3
53 225
54 253
55 733
56 452
57 682
58 180
59 304
60 868
61 999
62 164
63 6
65 125
66 74
67 307
68 200
69 521
70 238
71 522
72 89
73 771
74 139
75 27
77 35
79 138
80 33
81 265
82 212
83 510
84 285
85 325
86 148
87 386
88 106
89 29
91 0
93 113
94 61
95 287
96 207
97 388
98 234
99 143
100 41
101 288
102 742
103 396
104 82
107 112
109 165
110 21
111 286
112 42
113 35
115 750
116 257
119 28
121 103
123 39
124 57
125 103
126 17
127 16
129 463
130 90
131 2
135 3
137 120
138 88
139 141
140 47
141 61
143 305
144 111
145 43
149 29
157 380
158 115
159 15
163 100
165 9
167 33
170 13
171 343
172 106
180 12
181 95
183 667
184 255
185 209
199 293
200 295
201 638
202 242
203 72
213 120
242 319
243 130

$$$$

     RDKit          2D

 14 13  0  0  0  0  0  0  0  0999 V2000
    3.8971    6.7500    0.0000 C   0  0  0  0  0  0  0  0  0  0  0  0
  -11.6913    6.7500    0.0000 C   0  0  0  0  0  0  0  0  0  0  0  0
    2.5981    7.5000    0.0000 C   0  0  0  0  0  0  0  0  0  0  0  0
    1.2990    6.7500    0.0000 C   0  0  0  0  0  0  0  0  0  0  0  0
    0.0000    7.5000    0.0000 C   0  0  0  0  0  0  0  0  0  0  0  0
   -1.2990    6.7500    0.0000 C   0  0  0  0  0  0  0  0  0  0  0  0
   -2.5981    7.5000    0.0000 C   0  0  0  0  0  0  0  0  0  0  0  0
   -3.8971    6.7500    0.0000 C   0  0  0  0  0  0  0  0  0  0  0  0
   -5.1962    7.5000    0.0000 C   0  0  0  0  0  0  0  0  0  0  0  0
   -6.4952    6.7500    0.0000 C   0  0  0  0  0  0  0  0  0  0  0  0
   -7.7942    7.5000    0.0000 C   0  0  0  0  0  0  0  0  0  0  0  0
   -9.0933    6.7500    0.0000 C   0  0  0  0  0  0  0  0  0  0  0  0
   -9.0933    5.2500    0.0000 O   0  0  0  0  0  0  0  0  0  0  0  0
  -10.3923    7.5000    0.0000 O   0  0  0  0  0  0  0  0  0  0  0  0
  3  1  1  0
  4  3  1  0
  5  4  1  0
  6  5  1  0
  7  6  1  0
  8  7  1  0
  9  8  1  0
 10  9  1  0
 11 10  1  0
 12 11  1  0
 13 12  2  0
 14  2  1  0
 14 12  1  0
M  END
>  <NAME>  (3484) 
METHYL UNDECANOATE

>  <SYNONYMS>  (3484) 


>  <SPECTRUM TYPE>  (3484) 
MS1

>  <INSTRUMENT TYPE>  (3484) 
EI-B

>  <INSTRUMENT>  (3484) 
HITACHI M-80B

>  <ION MODE>  (3484) 
P

>  <INCHIKEY>  (3484) 
XPQPWPZFBULGKT-UHFFFAOYSA-N

>  <FORMULA>  (3484) 
C12H24O2

>  <EXACT MASS>  (3484) 
200.177630008

>  <MW>  (3484) 
200

>  <ID>  (3484) 
JP006545

>  <CONTRIBUTOR>  (3484) 
University of Tokyo Team, {Faculty of Engineering, University of Tokyo

>  <COMMENT>  (3484) 
SMILES=CCCCCCCCCCC(=O)OC
InChI=InChI=1S/C12H24O2/c1-3-4-5-6-7-8-9-10-11-12(13)14-2/h3-11H2,1-2H3
computed SMILES=O=C(OC)CCCCCCCCCC
accession=JP006545
date=2016.01.19 (Created 2008.10.21, modified 2011.05.06)
author=HISAHIRO HAGIWARA, CHEMICAL RESEARCH INSTITUTE OF NON-AQUEOUSSOLUTIONS TOHOKU UNIV.
license=CC BY-NC-SA
exact mass=200.17763
ionization energy=70 eV
ion type=[M]+*
computed spectral entropy=2.7755508810384617
computed normalized entropy=0.7686552140438897
SPLASH=splash10-00du-9000000000-defb26ca02ace83ff395
submitter=submitter = University of Tokyo Team (Faculty of Engineering, University of Tokyo)
MoNA Rating=3.75

>  <NUM PEAKS>  (3484) 
37

>  <MASS SPECTRAL PEAKS>  (3484) 
15 3.94
27 8.17
29 12.56
39 6.03
41 26.31
42 6.24
43 23.76
45 1.24
53 1.62
54 1.26
55 19.35
56 3.62
57 8.07
59 10.37
67 1.53
69 8.87
70 1.58
71 2.28
73 1.55
74 99.99
75 10.89
81 1
83 3.73
84 2.43
85 1.59
87 52.14
88 4.96
97 2.08
98 1.88
101 5.09
115 1.86
129 3.33
143 6.88
157 5.32
169 5.78
171 1.49
200 2.61

>  <PREDICTED SPECTRUM>  (3484) 
14 8
15 108
16 10
17 30
18 56
26 39
27 255
28 163
29 302
30 21
31 54
32 55
33 26
37 4
38 31
39 267
40 128
41 594
42 320
43 621
44 131
45 120
50 4
51 72
52 43
53 195
54 212
55 685
56 373
57 494
58 106
59 363
60 113
61 94
62 8
65 63
66 30
67 235
68 193
69 470
70 257
71 279
72 68
73 264
74 999
75 433
76 95
77 81
79 74
80 35
81 248
82 213
83 421
84 317
85 267
86 24
87 772
88 178
89 87
93 68
94 68
95 218
96 231
97 333
98 213
99 110
100 32
101 268
102 109
103 67
104 20
106 32
107 71
108 45
109 107
110 90
111 204
112 78
113 55
114 94
115 251
116 81
117 105
123 25
124 102
125 181
126 153
127 178
128 30
129 222
130 119
132 12
139 61
140 58
141 36
143 249
144 98
145 2
150 16
151 118
157 320
158 116
159 11
168 136
169 342
170 108
171 130
172 0
185 34
200 173
201 63

$$$$

     RDKit          2D

 12 11  0  0  0  0  0  0  0  0999 V2000
    2.5981    4.5000    0.0000 C   0  0  0  0  0  0  0  0  0  0  0  0
   -3.8971    2.2500    0.0000 C   0  0  0  0  0  0  0  0  0  0  0  0
   -7.7942    4.5000    0.0000 C   0  0  0  0  0  0  0  0  0  0  0  0
    1.2990    5.2500    0.0000 C   0  0  0  0  0  0  0  0  0  0  0  0
   -2.5981    3.0000    0.0000 C   0  0  0  0  0  0  0  0  0  0  0  0
   -6.4952    5.2500    0.0000 C   0  0  0  0  0  0  0  0  0  0  0  0
    0.0000    4.5000    0.0000 C   0  0  0  0  0  0  0  0  0  0  0  0
   -1.2990    5.2500    0.0000 C   0  0  0  0  0  0  0  0  0  0  0  0
   -2.5981    4.5000    0.0000 C   0  0  0  0  0  0  0  0  0  0  0  0
   -3.8971    5.2500    0.0000 C   0  0  0  0  0  0  0  0  0  0  0  0
   -3.8971    6.7500    0.0000 O   0  0  0  0  0  0  0  0  0  0  0  0
   -5.1962    4.5000    0.0000 O   0  0  0  0  0  0  0  0  0  0  0  0
  4  1  1  0
  5  2  1  0
  6  3  1  0
  7  4  1  0
  8  7  1  0
  9  5  1  0
  9  8  1  0
 10  9  1  0
 11 10  2  0
 12  6  1  0
 12 10  1  0
M  END
>  <NAME>  (3485) 
ETHYL 2-ETHYLHEXANOATE

>  <SYNONYMS>  (3485) 


>  <SPECTRUM TYPE>  (3485) 
MS1

>  <INSTRUMENT TYPE>  (3485) 
EI-B

>  <INSTRUMENT>  (3485) 
HITACHI M-80B

>  <ION MODE>  (3485) 
P

>  <INCHIKEY>  (3485) 
YXAGIRHBJJLWHW-UHFFFAOYSA-N

>  <FORMULA>  (3485) 
C10H20O2

>  <EXACT MASS>  (3485) 
172.14632988

>  <MW>  (3485) 
172

>  <ID>  (3485) 
JP006544

>  <CONTRIBUTOR>  (3485) 
University of Tokyo Team, {Faculty of Engineering, University of Tokyo

>  <COMMENT>  (3485) 
SMILES=CCCCC(CC)C(=O)OCC
InChI=InChI=1S/C10H20O2/c1-4-7-8-9(5-2)10(11)12-6-3/h9H,4-8H2,1-3H3
computed SMILES=O=C(OCC)C(CC)CCCC
accession=JP006544
date=2016.01.19 (Created 2008.10.21, modified 2011.05.06)
author=HISAHIRO HAGIWARA, CHEMICAL RESEARCH INSTITUTE OF NON-AQUEOUSSOLUTIONS TOHOKU UNIV.
license=CC BY-NC-SA
exact mass=172.14633
ionization energy=70 eV
ion type=[M]+*
computed spectral entropy=3.0183791098760757
computed normalized entropy=0.8025042584897105
SPLASH=splash10-0pxu-9400000000-8407f9bbddac2d7ace48
submitter=submitter = University of Tokyo Team (Faculty of Engineering, University of Tokyo)
MoNA Rating=3.75

>  <NUM PEAKS>  (3485) 
43

>  <MASS SPECTRAL PEAKS>  (3485) 
15 1.26
26 1.55
27 33.13
29 63.75
30 1.37
31 1.92
39 15.54
41 52.46
42 11.35
43 37.13
45 8.23
53 3.97
54 1.62
55 29.92
56 10.32
57 99.99
58 4.01
59 1.99
67 1.37
68 1.01
69 8.28
70 8.77
71 3.89
73 37.65
74 1.61
83 2.13
87 9.32
88 18.9
89 2.37
97 1.62
98 2.1
99 11.13
101 73.49
102 4.96
115 18.6
116 96.88
117 6.51
127 15.79
128 1.26
129 11.01
143 5.83
144 13.61
145 1.54

>  <PREDICTED SPECTRUM>  (3485) 
14 15
15 39
19 1
26 81
27 410
28 181
29 742
30 91
31 150
38 16
39 273
40 93
41 731
42 323
43 723
44 219
45 382
46 71
47 79
51 50
52 60
53 252
54 171
55 649
56 423
57 999
58 214
59 284
60 180
61 155
67 122
68 18
69 371
70 357
71 322
72 88
73 778
74 254
75 7
81 57
82 56
83 371
84 196
85 135
86 79
87 314
88 922
89 254
90 101
97 191
98 104
99 333
100 61
101 732
102 240
103 7
115 446
116 568
117 295
118 55
127 529
128 106
129 181
130 119
143 94
144 15
145 61

$$$$

     RDKit          2D

 13 12  0  0  0  0  0  0  0  0999 V2000
    3.2476    5.6250    0.0000 C   0  0  0  0  0  0  0  0  0  0  0  0
   -9.7428    5.6250    0.0000 C   0  0  0  0  0  0  0  0  0  0  0  0
   -8.4437    7.8750    0.0000 C   0  0  0  0  0  0  0  0  0  0  0  0
    1.9486    6.3750    0.0000 C   0  0  0  0  0  0  0  0  0  0  0  0
    0.6495    5.6250    0.0000 C   0  0  0  0  0  0  0  0  0  0  0  0
   -0.6495    6.3750    0.0000 C   0  0  0  0  0  0  0  0  0  0  0  0
   -1.9486    5.6250    0.0000 C   0  0  0  0  0  0  0  0  0  0  0  0
   -3.2476    6.3750    0.0000 C   0  0  0  0  0  0  0  0  0  0  0  0
   -7.1447    5.6250    0.0000 C   0  0  0  0  0  0  0  0  0  0  0  0
   -8.4437    6.3750    0.0000 C   0  0  0  0  0  0  0  0  0  0  0  0
   -4.5466    5.6250    0.0000 C   0  0  0  0  0  0  0  0  0  0  0  0
   -4.5466    4.1250    0.0000 O   0  0  0  0  0  0  0  0  0  0  0  0
   -5.8457    6.3750    0.0000 O   0  0  0  0  0  0  0  0  0  0  0  0
  4  1  1  0
  5  4  1  0
  6  5  1  0
  7  6  1  0
  8  7  1  0
 10  2  1  0
 10  3  1  0
 10  9  1  0
 11  8  1  0
 12 11  2  0
 13  9  1  0
 13 11  1  0
M  END
>  <NAME>  (3486) 
ISOBUTYL HEPTANOATE

>  <SYNONYMS>  (3486) 
2-METHYLPROPYL HEPTANOATE

>  <SPECTRUM TYPE>  (3486) 
MS1

>  <INSTRUMENT TYPE>  (3486) 
EI-B

>  <INSTRUMENT>  (3486) 
HITACHI M-80B

>  <ION MODE>  (3486) 
P

>  <INCHIKEY>  (3486) 
HXJOYVPESRRCDB-UHFFFAOYSA-N

>  <FORMULA>  (3486) 
C11H22O2

>  <EXACT MASS>  (3486) 
186.161979944

>  <MW>  (3486) 
186

>  <ID>  (3486) 
JP006543

>  <CONTRIBUTOR>  (3486) 
University of Tokyo Team, {Faculty of Engineering, University of Tokyo

>  <COMMENT>  (3486) 
SMILES=CCCCCCC(=O)OCC(C)C
InChI=InChI=1S/C11H22O2/c1-4-5-6-7-8-11(12)13-9-10(2)3/h10H,4-9H2,1-3H3
computed SMILES=O=C(OCC(C)C)CCCCCC
ionization energy=70 eV
accession=JP006543
date=2016.01.19 (Created 2008.10.21, modified 2011.05.06)
author=HISAHIRO HAGIWARA, CHEMICAL RESEARCH INSTITUTE OF NON-AQUEOUSSOLUTIONS TOHOKU UNIV.
license=CC BY-NC-SA
exact mass=186.16198
ion type=[M]+*
computed spectral entropy=2.817923776428618
computed normalized entropy=0.7746685996409713
SPLASH=splash10-0btc-9200000000-237ef3f0ae571360d2db
submitter=submitter = University of Tokyo Team (Faculty of Engineering, University of Tokyo)
MoNA Rating=3.75

>  <NUM PEAKS>  (3486) 
38

>  <MASS SPECTRAL PEAKS>  (3486) 
27 21.13
29 31.9
31 2.06
39 14.63
41 57.72
42 10.75
43 71.36
44 1.75
45 1.67
53 1.83
54 1.03
55 17.5
56 99.99
57 68.2
58 3.39
60 22.96
61 5.27
68 1.78
69 5.52
70 3.65
71 2.17
73 13.11
74 1.37
83 3.23
84 3.62
85 15.02
86 1.75
87 10.66
89 1.76
95 1.6
101 2.83
113 91.03
114 7.02
116 3.71
130 5.68
131 31.34
132 1.95
156 1.01

>  <PREDICTED SPECTRUM>  (3486) 
15 45
26 67
27 374
28 212
29 636
30 30
31 125
36 11
37 46
38 70
39 396
40 191
41 787
42 395
43 792
44 208
45 159
50 14
51 53
52 59
53 157
54 167
55 482
56 994
57 970
58 242
59 159
60 527
61 328
62 0
65 33
66 14
67 121
68 174
69 305
70 221
71 303
72 22
73 473
74 15
79 36
80 13
81 127
82 28
83 273
84 137
85 200
86 100
87 349
88 75
93 19
95 146
96 101
97 147
101 115
102 92
103 17
111 93
112 84
113 999
114 407
115 142
116 39
129 157
130 243
131 632
132 186
133 82
143 31

$$$$

     RDKit          2D

 12 11  0  0  0  0  0  0  0  0999 V2000
    3.2476    5.6250    0.0000 C   0  0  0  0  0  0  0  0  0  0  0  0
   -9.7428    5.6250    0.0000 C   0  0  0  0  0  0  0  0  0  0  0  0
    1.9486    6.3750    0.0000 C   0  0  0  0  0  0  0  0  0  0  0  0
   -8.4437    6.3750    0.0000 C   0  0  0  0  0  0  0  0  0  0  0  0
    0.6495    5.6250    0.0000 C   0  0  0  0  0  0  0  0  0  0  0  0
   -0.6495    6.3750    0.0000 C   0  0  0  0  0  0  0  0  0  0  0  0
   -1.9486    5.6250    0.0000 C   0  0  0  0  0  0  0  0  0  0  0  0
   -3.2476    6.3750    0.0000 C   0  0  0  0  0  0  0  0  0  0  0  0
   -7.1447    5.6250    0.0000 C   0  0  0  0  0  0  0  0  0  0  0  0
   -4.5466    5.6250    0.0000 C   0  0  0  0  0  0  0  0  0  0  0  0
   -4.5466    4.1250    0.0000 O   0  0  0  0  0  0  0  0  0  0  0  0
   -5.8457    6.3750    0.0000 O   0  0  0  0  0  0  0  0  0  0  0  0
  3  1  1  0
  4  2  2  0
  5  3  1  0
  6  5  1  0
  7  6  1  0
  8  7  1  0
  9  4  1  0
 10  8  1  0
 11 10  2  0
 12  9  1  0
 12 10  1  0
M  END
>  <NAME>  (3487) 
ALLYL HEPTANOATE

>  <SYNONYMS>  (3487) 
2-PROPENYL HEPTANOATE

>  <SPECTRUM TYPE>  (3487) 
MS1

>  <INSTRUMENT TYPE>  (3487) 
EI-B

>  <INSTRUMENT>  (3487) 
HITACHI M-80B

>  <ION MODE>  (3487) 
P

>  <INCHIKEY>  (3487) 
SJWKGDGUQTWDRV-UHFFFAOYSA-N

>  <FORMULA>  (3487) 
C10H18O2

>  <EXACT MASS>  (3487) 
170.130679816

>  <MW>  (3487) 
170

>  <ID>  (3487) 
JP006542

>  <CONTRIBUTOR>  (3487) 
University of Tokyo Team, {Faculty of Engineering, University of Tokyo

>  <COMMENT>  (3487) 
SMILES=CCCCCCC(=O)OCC=C
InChI=InChI=1S/C10H18O2/c1-3-5-6-7-8-10(11)12-9-4-2/h4H,2-3,5-9H2,1H3
computed SMILES=O=C(OCC=C)CCCCCC
accession=JP006542
date=2016.01.19 (Created 2008.10.21, modified 2011.05.06)
author=HISAHIRO HAGIWARA, CHEMICAL RESEARCH INSTITUTE OF NON-AQUEOUSSOLUTIONS TOHOKU UNIV.
license=CC BY-NC-SA
exact mass=170.13068
ionization energy=70 eV
ion type=[M]+*
computed spectral entropy=2.8665453226005635
computed normalized entropy=0.7621358168739646
SPLASH=splash10-0006-9200000000-2e459b52b81578cb3267
submitter=submitter = University of Tokyo Team (Faculty of Engineering, University of Tokyo)
MoNA Rating=3.75

>  <NUM PEAKS>  (3487) 
43

>  <MASS SPECTRAL PEAKS>  (3487) 
15 1.03
26 1.81
27 20.16
29 20.53
31 1.3
38 1.34
39 27.24
40 2.53
41 88.11
42 10.64
43 99.99
44 2.6
45 2.77
53 2.19
54 8.08
55 33.03
56 11.48
57 19.22
58 7.73
59 1.02
60 1.09
67 2.01
68 2.12
69 20.56
70 1.53
71 1.21
73 1.33
81 1.54
82 2.85
83 15.8
84 3.4
85 25.7
86 1.59
87 2.14
95 3.52
99 1.93
100 27.84
101 2.17
111 3.27
113 72.49
114 5.58
127 3.02
141 1.23

>  <PREDICTED SPECTRUM>  (3487) 
14 9
15 36
25 16
26 143
27 427
28 185
29 470
30 38
31 93
36 21
37 60
38 140
39 528
40 265
41 999
42 483
43 893
44 209
45 117
50 56
51 134
52 90
53 257
54 220
55 481
56 328
57 667
58 210
59 82
60 176
61 43
65 53
66 57
67 206
68 214
69 381
70 167
71 197
72 93
73 112
74 55
79 100
80 4
81 245
82 110
83 188
84 26
85 272
86 214
87 87
93 116
95 95
96 26
97 35
99 174
100 235
101 86
109 97
111 91
113 752
114 336
115 51
127 125
128 6
129 7
141 27
170 2

$$$$

     RDKit          2D

 11 10  0  0  0  0  0  0  0  0999 V2000
   -8.4437    5.6250    0.0000 C   0  0  0  0  0  0  0  0  0  0  0  0
    3.2476    4.8750    0.0000 C   0  0  0  0  0  0  0  0  0  0  0  0
   -7.1447    4.8750    0.0000 C   0  0  0  0  0  0  0  0  0  0  0  0
    1.9486    5.6250    0.0000 C   0  0  0  0  0  0  0  0  0  0  0  0
   -5.8457    5.6250    0.0000 C   0  0  0  0  0  0  0  0  0  0  0  0
   -4.5466    4.8750    0.0000 C   0  0  0  0  0  0  0  0  0  0  0  0
   -3.2476    5.6250    0.0000 C   0  0  0  0  0  0  0  0  0  0  0  0
   -1.9486    4.8750    0.0000 C   0  0  0  0  0  0  0  0  0  0  0  0
   -0.6495    5.6250    0.0000 C   0  0  0  0  0  0  0  0  0  0  0  0
   -0.6495    7.1250    0.0000 O   0  0  0  0  0  0  0  0  0  0  0  0
    0.6495    4.8750    0.0000 O   0  0  0  0  0  0  0  0  0  0  0  0
  3  1  1  0
  4  2  1  0
  5  3  1  0
  6  5  1  0
  7  6  1  0
  8  7  1  0
  9  8  1  0
 10  9  2  0
 11  4  1  0
 11  9  1  0
M  END
>  <NAME>  (3488) 
ETHYL HEPTANOATE

>  <SYNONYMS>  (3488) 


>  <SPECTRUM TYPE>  (3488) 
MS1

>  <INSTRUMENT TYPE>  (3488) 
EI-B

>  <INSTRUMENT>  (3488) 
HITACHI M-80B

>  <ION MODE>  (3488) 
P

>  <INCHIKEY>  (3488) 
TVQGDYNRXLTQAP-UHFFFAOYSA-N

>  <FORMULA>  (3488) 
C9H18O2

>  <EXACT MASS>  (3488) 
158.130679816

>  <MW>  (3488) 
158

>  <ID>  (3488) 
JP006541

>  <CONTRIBUTOR>  (3488) 
University of Tokyo Team, {Faculty of Engineering, University of Tokyo

>  <COMMENT>  (3488) 
SMILES=CCCCCCC(=O)OCC
InChI=InChI=1S/C9H18O2/c1-3-5-6-7-8-9(10)11-4-2/h3-8H2,1-2H3
computed SMILES=O=C(OCC)CCCCCC
accession=JP006541
date=2016.01.19 (Created 2008.10.21, modified 2011.05.06)
author=HISAHIRO HAGIWARA, CHEMICAL RESEARCH INSTITUTE OF NON-AQUEOUSSOLUTIONS TOHOKU UNIV.
license=CC BY-NC-SA
exact mass=158.13068
ionization energy=70 eV
ion type=[M]+*
computed spectral entropy=3.0643035114286405
computed normalized entropy=0.8147142978760611
SPLASH=splash10-01rf-9100000000-a353a37f3708e92c2326
submitter=submitter = University of Tokyo Team (Faculty of Engineering, University of Tokyo)
MoNA Rating=3.75

>  <NUM PEAKS>  (3488) 
43

>  <MASS SPECTRAL PEAKS>  (3488) 
15 1.67
26 2.37
27 33.18
29 54.94
30 1.36
31 1.85
39 14.33
41 40.27
42 12.48
43 61.49
44 1.82
45 15.88
53 2.29
54 1.2
55 21.57
56 7.43
57 9.19
59 1.49
60 36.98
61 23.84
67 1.12
68 1.78
69 8.44
70 18.28
71 1.47
73 24.12
74 3.84
83 4.14
84 5.84
85 9.89
87 6.51
88 99.99
89 6.34
95 1.13
101 27.46
102 2.13
111 1.07
113 31.98
114 1.84
115 12.15
129 1.88
131 1.88
158 1.04

>  <PREDICTED SPECTRUM>  (3488) 
14 9
15 27
19 0
26 58
27 292
28 130
29 421
30 72
31 78
38 1
39 241
40 95
41 491
42 347
43 562
44 95
45 246
46 31
47 0
51 27
52 50
53 134
54 123
55 472
56 221
57 311
58 76
59 193
60 525
61 360
62 44
65 24
67 112
68 110
69 300
70 386
71 233
72 78
73 409
74 171
75 93
77 2
81 48
82 39
83 226
84 164
85 117
86 11
87 219
88 999
89 219
90 80
95 91
96 5
97 162
101 736
102 201
103 9
111 83
112 18
113 495
114 164
115 405
116 132
117 27
129 170
130 98
131 32
143 38
157 36
158 99
159 35

$$$$

     RDKit          2D

 10  9  0  0  0  0  0  0  0  0999 V2000
    2.5981    4.5000    0.0000 C   0  0  0  0  0  0  0  0  0  0  0  0
   -7.7942    4.5000    0.0000 C   0  0  0  0  0  0  0  0  0  0  0  0
    1.2990    5.2500    0.0000 C   0  0  0  0  0  0  0  0  0  0  0  0
    0.0000    4.5000    0.0000 C   0  0  0  0  0  0  0  0  0  0  0  0
   -1.2990    5.2500    0.0000 C   0  0  0  0  0  0  0  0  0  0  0  0
   -2.5981    4.5000    0.0000 C   0  0  0  0  0  0  0  0  0  0  0  0
   -3.8971    5.2500    0.0000 C   0  0  0  0  0  0  0  0  0  0  0  0
   -5.1962    4.5000    0.0000 C   0  0  0  0  0  0  0  0  0  0  0  0
   -5.1962    3.0000    0.0000 O   0  0  0  0  0  0  0  0  0  0  0  0
   -6.4952    5.2500    0.0000 O   0  0  0  0  0  0  0  0  0  0  0  0
  3  1  1  0
  4  3  1  0
  5  4  1  0
  6  5  1  0
  7  6  1  0
  8  7  1  0
  9  8  2  0
 10  2  1  0
 10  8  1  0
M  END
>  <NAME>  (3489) 
METHYL HEPTANOATE

>  <SYNONYMS>  (3489) 


>  <SPECTRUM TYPE>  (3489) 
MS1

>  <INSTRUMENT TYPE>  (3489) 
EI-B

>  <INSTRUMENT>  (3489) 
HITACHI M-80B

>  <ION MODE>  (3489) 
P

>  <INCHIKEY>  (3489) 
XNCNNDVCAUWAIT-UHFFFAOYSA-N

>  <FORMULA>  (3489) 
C8H16O2

>  <EXACT MASS>  (3489) 
144.115029752

>  <MW>  (3489) 
144

>  <ID>  (3489) 
JP006540

>  <CONTRIBUTOR>  (3489) 
University of Tokyo Team, {Faculty of Engineering, University of Tokyo

>  <COMMENT>  (3489) 
SMILES=CCCCCCC(=O)OC
InChI=InChI=1S/C8H16O2/c1-3-4-5-6-7-8(9)10-2/h3-7H2,1-2H3
computed SMILES=O=C(OC)CCCCCC
accession=JP006540
date=2016.01.19 (Created 2008.10.21, modified 2011.05.06)
author=HISAHIRO HAGIWARA, CHEMICAL RESEARCH INSTITUTE OF NON-AQUEOUSSOLUTIONS TOHOKU UNIV.
license=CC BY-NC-SA
exact mass=144.11503
ionization energy=70 eV
ion type=[M]+*
computed spectral entropy=2.5792993489206615
computed normalized entropy=0.7916583559819783
SPLASH=splash10-00dl-9000000000-c75583daf34e71035579
submitter=submitter = University of Tokyo Team (Faculty of Engineering, University of Tokyo)
MoNA Rating=3.75

>  <NUM PEAKS>  (3489) 
26

>  <MASS SPECTRAL PEAKS>  (3489) 
15 6.84
27 12.17
29 11.2
31 1.5
39 9.36
41 21.78
42 5.65
43 32.18
45 1.64
53 1.47
55 13.77
56 4.22
57 4.69
59 15.26
69 4.11
73 1.95
74 99.99
75 6.44
83 1.46
84 4
85 2.45
87 33.58
88 3.58
101 12.04
113 13.85
115 2.28

>  <PREDICTED SPECTRUM>  (3489) 
14 28
15 177
16 6
17 6
18 22
26 63
27 323
28 188
29 370
30 30
31 96
32 50
33 24
37 10
38 63
39 355
40 147
41 672
42 446
43 681
44 137
45 148
50 38
51 76
52 25
53 199
54 155
55 668
56 320
57 312
58 89
59 527
60 244
61 101
62 8
67 70
68 143
69 364
70 267
71 237
73 177
74 999
75 244
76 79
77 4
81 108
82 35
83 205
84 213
85 179
87 803
88 160
95 90
96 0
97 60
101 416
102 103
112 112
113 436
114 125
115 146
116 21
129 49
144 197
145 11

$$$$

     RDKit          2D

 16 16  0  0  0  0  0  0  0  0999 V2000
    4.8721    3.8829    0.0000 C   0  0  0  0  0  0  0  0  0  0  0  0
   -4.2212    1.6329    0.0000 C   0  0  0  0  0  0  0  0  0  0  0  0
    3.5731    3.1329    0.0000 C   0  0  0  0  0  0  0  0  0  0  0  0
    2.2740    3.8829    0.0000 C   0  0  0  0  0  0  0  0  0  0  0  0
   -8.1183    5.3829    0.0000 C   0  0  0  0  0  0  0  0  0  0  0  0
    0.9750    3.1329    0.0000 C   0  0  0  0  0  0  0  0  0  0  0  0
   -8.1187    3.8821    0.0000 C   0  0  0  0  0  0  0  0  0  0  0  0
   -6.8187    6.1337    0.0000 C   0  0  0  0  0  0  0  0  0  0  0  0
   -6.8197    3.1321    0.0000 C   0  0  0  0  0  0  0  0  0  0  0  0
   -5.5197    5.3837    0.0000 C   0  0  0  0  0  0  0  0  0  0  0  0
   -0.3240    3.8829    0.0000 C   0  0  0  0  0  0  0  0  0  0  0  0
   -4.2212    3.1329    0.0000 C   0  0  0  0  0  0  0  0  0  0  0  0
   -5.5202    3.8829    0.0000 C   0  0  0  0  0  0  0  0  0  0  0  0
   -1.6231    3.1329    0.0000 C   0  0  0  0  0  0  0  0  0  0  0  0
   -1.6231    1.6329    0.0000 O   0  0  0  0  0  0  0  0  0  0  0  0
   -2.9221    3.8829    0.0000 O   0  0  0  0  0  0  0  0  0  0  0  0
  3  1  1  0
  4  3  1  0
  6  4  1  0
  7  5  2  0
  8  5  1  0
  9  7  1  0
 10  8  2  0
 11  6  1  0
 12  2  1  0
 13  9  2  0
 13 10  1  0
 13 12  1  0
 14 11  1  0
 15 14  2  0
 16 12  1  0
 16 14  1  0
M  END
>  <NAME>  (3490) 
1-PHENYLETHYL HEXANOATE

>  <SYNONYMS>  (3490) 
METHYLPHENYLCARBINYL HEXANOATE

>  <SPECTRUM TYPE>  (3490) 
MS1

>  <INSTRUMENT TYPE>  (3490) 
EI-B

>  <INSTRUMENT>  (3490) 
HITACHI M-80B

>  <ION MODE>  (3490) 
P

>  <INCHIKEY>  (3490) 
XDNXTDFSRYCZFT-UHFFFAOYSA-N

>  <FORMULA>  (3490) 
C14H20O2

>  <EXACT MASS>  (3490) 
220.14632988

>  <MW>  (3490) 
220

>  <ID>  (3490) 
JP006539

>  <CONTRIBUTOR>  (3490) 
University of Tokyo Team, {Faculty of Engineering, University of Tokyo

>  <COMMENT>  (3490) 
SMILES=CCCCCC(=O)OC(C)c(c1)cccc1
InChI=InChI=1S/C14H20O2/c1-3-4-6-11-14(15)16-12(2)13-9-7-5-8-10-13/h5,7-10,12H,3-4,6,11H2,1-2H3
computed SMILES=O=C(OC(C=1C=CC=CC1)C)CCCCC
accession=JP006539
date=2016.01.19 (Created 2008.10.21, modified 2011.05.06)
author=HISAHIRO HAGIWARA, CHEMICAL RESEARCH INSTITUTE OF NON-AQUEOUSSOLUTIONS TOHOKU UNIV.
license=CC BY-NC-SA
exact mass=220.14633
ionization energy=70 eV
ion type=[M]+*
computed spectral entropy=2.650497660726124
computed normalized entropy=0.7647719662034755
SPLASH=splash10-0pk9-5900000000-0872a292f4dfc6dad86d
submitter=submitter = University of Tokyo Team (Faculty of Engineering, University of Tokyo)
MoNA Rating=3.75

>  <NUM PEAKS>  (3490) 
32

>  <MASS SPECTRAL PEAKS>  (3490) 
27 12.3
29 9.47
39 6.09
41 10.58
42 3.64
43 26.18
50 2.41
51 7.04
52 1.98
53 1.49
55 3.59
63 1.66
65 1.21
69 1.3
71 10.33
77 22.26
78 13.76
79 12.74
91 1.31
99 16.41
100 1.02
102 1.52
103 13.17
104 70.17
105 99.99
106 7.44
107 3.58
115 1.92
121 4.26
122 75.06
123 5
220 3.43

>  <PREDICTED SPECTRUM>  (3490) 
26 22
27 181
28 30
29 138
38 38
39 219
40 60
41 296
42 148
43 485
44 159
45 63
49 0
50 110
51 197
52 131
53 137
54 4
55 167
56 16
60 43
61 30
62 32
63 108
64 55
65 91
66 23
69 87
70 117
71 326
72 65
73 158
74 50
75 66
76 81
77 353
78 289
79 359
80 88
86 24
89 97
90 14
91 62
92 63
93 61
94 42
97 23
98 10
99 349
100 93
101 92
102 182
103 372
104 816
105 999
106 360
107 329
108 94
115 63
116 60
118 54
120 6
121 206
122 747
123 283
132 1
151 91
220 180
221 33

$$$$

     RDKit          2D

 16 17  0  0  0  0  0  0  0  0999 V2000
   10.2313    1.0802    0.0000 C   0  0  0  0  0  0  0  0  0  0  0  0
   -0.6759    1.4813    0.0000 C   0  0  0  0  0  0  0  0  0  0  0  0
   -0.6759   -2.3013    0.0000 C   0  0  0  0  0  0  0  0  0  0  0  0
    2.4475    2.5900    0.0000 C   0  0  0  0  0  0  0  0  0  0  0  0
    8.9311    0.3321    0.0000 C   0  0  0  0  0  0  0  0  0  0  0  0
    7.6332    1.0841    0.0000 C   0  0  0  0  0  0  0  0  0  0  0  0
    1.1450   -1.1600    0.0000 C   0  0  0  0  0  0  0  0  0  0  0  0
    1.1450    0.3400    0.0000 C   0  0  0  0  0  0  0  0  0  0  0  0
    3.7350   -1.1600    0.0000 C   0  0  0  0  0  0  0  0  0  0  0  0
    2.4450   -1.9100    0.0000 C   0  0  0  0  0  0  0  0  0  0  0  0
    3.7350    0.3400    0.0000 C   0  0  0  0  0  0  0  0  0  0  0  0
    6.3331    0.3361    0.0000 C   0  0  0  0  0  0  0  0  0  0  0  0
    1.5750   -0.4100    0.0000 C   0  0  0  0  0  0  0  0  0  0  0  0
    2.4450    1.0900    0.0000 C   0  0  0  0  0  0  0  0  0  0  0  0
    6.3308   -1.1639    0.0000 O   0  0  0  0  0  0  0  0  0  0  0  0
    5.0352    1.0880    0.0000 O   0  0  0  0  0  0  0  0  0  0  0  0
  5  1  1  0
  6  5  1  0
  8  7  1  0
 10  7  1  0
 10  9  1  0
 11  9  1  0
 12  6  1  0
 13  2  1  0
 13  3  1  0
 13 10  1  0
 14  4  1  0
 14  8  1  0
 14 11  1  0
 14 13  1  0
 15 12  2  0
 16 11  1  0
 16 12  1  0
M  END
>  <NAME>  (3491) 
BORNYL BUTYRATE

>  <SYNONYMS>  (3491) 


>  <SPECTRUM TYPE>  (3491) 
MS1

>  <INSTRUMENT TYPE>  (3491) 
EI-B

>  <INSTRUMENT>  (3491) 
HITACHI M-80B

>  <ION MODE>  (3491) 
P

>  <INCHIKEY>  (3491) 
VIPNQHBVIDJXJE-UHFFFAOYSA-N

>  <FORMULA>  (3491) 
C14H24O2

>  <EXACT MASS>  (3491) 
224.177630008

>  <MW>  (3491) 
224

>  <ID>  (3491) 
JP006538

>  <CONTRIBUTOR>  (3491) 
University of Tokyo Team, {Faculty of Engineering, University of Tokyo

>  <COMMENT>  (3491) 
SMILES=CCCC(=O)OC(C1)C(C)(C2)C(C)(C)C(C2)1
InChI=InChI=1S/C14H24O2/c1-5-6-12(15)16-11-9-10-7-8-14(11,4)13(10,2)3/h10-11H,5-9H2,1-4H3
computed SMILES=O=C(OC1CC2CCC1(C)C2(C)C)CCC
accession=JP006538
date=2016.01.19 (Created 2008.10.21, modified 2011.05.06)
author=HISAHIRO HAGIWARA, CHEMICAL RESEARCH INSTITUTE OF NON-AQUEOUSSOLUTIONS TOHOKU UNIV.
license=CC BY-NC-SA
exact mass=224.17763
ionization energy=70 eV
ion type=[M]+*
computed spectral entropy=3.374284966757623
computed normalized entropy=0.8208193873728075
SPLASH=splash10-006y-9300000000-da808414063397acc563
submitter=submitter = University of Tokyo Team (Faculty of Engineering, University of Tokyo)
MoNA Rating=3.75

>  <NUM PEAKS>  (3491) 
61

>  <MASS SPECTRAL PEAKS>  (3491) 
27 17.53
28 2.18
29 10.53
39 12.42
40 2.01
41 49.92
42 6.51
43 83.05
44 2.37
45 1.42
51 1.15
53 8.9
54 1.37
55 20.15
56 1.35
57 4.07
60 1.6
65 2.72
66 1.18
67 15.06
68 7.21
69 20.83
70 1.96
71 99.99
72 5.24
73 1.09
77 7.2
78 1.41
79 10.25
80 17.89
81 19.22
82 6.8
83 6.78
84 2.22
91 7.21
92 15.95
93 53.79
94 10.03
95 94.93
96 7.49
97 2.26
105 2.01
107 10.21
108 33.23
109 40.71
110 19.05
111 5.72
121 40.64
122 3.36
123 2.17
125 1.18
135 3.43
136 53.58
137 12.05
138 1.18
152 1.03
153 2.89
154 12.24
155 1.63
224 15.81
225 2.37

>  <PREDICTED SPECTRUM>  (3491) 
25 16
26 86
27 356
28 144
29 376
30 3
31 41
36 9
38 43
39 324
40 176
41 731
42 159
43 905
44 209
45 29
50 54
51 138
52 125
53 322
54 113
55 501
56 144
57 152
59 0
60 57
63 54
64 44
65 247
66 158
67 515
68 345
69 626
70 194
71 948
72 224
73 51
74 15
75 30
76 0
77 388
78 176
79 451
80 445
81 866
82 342
83 257
84 73
85 107
89 56
91 362
92 353
93 850
94 401
95 999
96 310
97 85
98 60
99 83
103 26
105 221
106 32
107 401
108 846
109 805
110 402
111 164
112 81
113 1
114 11
115 97
117 109
119 128
121 786
122 260
123 41
124 14
125 123
126 6
135 142
136 857
137 589
140 35
152 84
153 201
154 305
155 23
181 25
209 2
224 292
225 178

$$$$

     RDKit          2D

 16 15  0  0  0  0  0  0  0  0999 V2000
    4.5466    5.6250    0.0000 C   0  0  0  0  0  0  0  0  0  0  0  0
   -7.1447   12.3750    0.0000 C   0  0  0  0  0  0  0  0  0  0  0  0
   -8.4437   10.1250    0.0000 C   0  0  0  0  0  0  0  0  0  0  0  0
   -5.8457    5.6250    0.0000 C   0  0  0  0  0  0  0  0  0  0  0  0
    3.2476    6.3750    0.0000 C   0  0  0  0  0  0  0  0  0  0  0  0
   -5.8457    8.6250    0.0000 C   0  0  0  0  0  0  0  0  0  0  0  0
    1.9486    5.6250    0.0000 C   0  0  0  0  0  0  0  0  0  0  0  0
   -5.8457   10.1250    0.0000 C   0  0  0  0  0  0  0  0  0  0  0  0
   -4.5466    7.8750    0.0000 C   0  0  0  0  0  0  0  0  0  0  0  0
   -3.2476    5.6250    0.0000 C   0  0  0  0  0  0  0  0  0  0  0  0
   -1.9486    6.3750    0.0000 C   0  0  0  0  0  0  0  0  0  0  0  0
   -7.1447   10.8750    0.0000 C   0  0  0  0  0  0  0  0  0  0  0  0
   -4.5466    6.3750    0.0000 C   0  0  0  0  0  0  0  0  0  0  0  0
    0.6495    6.3750    0.0000 C   0  0  0  0  0  0  0  0  0  0  0  0
    0.6495    7.8750    0.0000 O   0  0  0  0  0  0  0  0  0  0  0  0
   -0.6495    5.6250    0.0000 O   0  0  0  0  0  0  0  0  0  0  0  0
  5  1  1  0
  7  5  1  0
  8  6  1  0
  9  6  1  0
 11 10  1  0
 12  2  1  0
 12  3  1  0
 12  8  2  0
 13  4  1  0
 13  9  1  0
 10 13  2  0
 14  7  1  0
 15 14  2  0
 16 11  1  0
 16 14  1  0
M  END
>  <NAME>  (3492) 
NERYL BUTYRATE

>  <SYNONYMS>  (3492) 
3,7-DIMETHYL-2,6-OCTADIENYL BUTYRATE

>  <SPECTRUM TYPE>  (3492) 
MS1

>  <INSTRUMENT TYPE>  (3492) 
EI-B

>  <INSTRUMENT>  (3492) 
HITACHI M-80B

>  <ION MODE>  (3492) 
P

>  <INCHIKEY>  (3492) 
ZSBOMYJPSRFZAL-RAXLEYEMSA-N

>  <FORMULA>  (3492) 
C14H24O2

>  <EXACT MASS>  (3492) 
224.177630008

>  <MW>  (3492) 
224

>  <ID>  (3492) 
JP006537

>  <CONTRIBUTOR>  (3492) 
University of Tokyo Team, {Faculty of Engineering, University of Tokyo

>  <COMMENT>  (3492) 
SMILES=CCCC(=O)OCC=C(C)CCC=C(C)C
InChI=InChI=1S/C14H24O2/c1-5-7-14(15)16-11-10-13(4)9-6-8-12(2)3/h8,10H,5-7,9,11H2,1-4H3/b13-10-
computed SMILES=O=C(OCC=C(C)CCC=C(C)C)CCC
accession=JP006537
date=2016.01.19 (Created 2008.10.21, modified 2011.05.06)
author=HISAHIRO HAGIWARA, CHEMICAL RESEARCH INSTITUTE OF NON-AQUEOUSSOLUTIONS TOHOKU UNIV.
license=CC BY-NC-SA
exact mass=224.17763
ionization energy=70 eV
ion type=[M]+*
computed spectral entropy=2.992358776073737
computed normalized entropy=0.7907528600714867
SPLASH=splash10-014l-9100000000-0bc04e3a6c520f0cfadd
submitter=submitter = University of Tokyo Team (Faculty of Engineering, University of Tokyo)
MoNA Rating=3.75

>  <NUM PEAKS>  (3492) 
44

>  <MASS SPECTRAL PEAKS>  (3492) 
27 11.61
29 5.63
39 10.56
40 3.5
41 61.16
42 4.49
43 38.46
44 1.26
51 1.22
53 10.82
54 1.36
55 5.51
65 1.82
66 1.32
67 13.55
68 51.74
69 99.99
70 6.31
71 43.53
72 1.85
77 3.12
79 5.11
80 25.78
81 12.31
82 1.35
83 1.14
84 3.42
85 1.77
91 3.12
92 10.55
93 54.93
94 8.91
95 3.55
97 1.02
105 1.4
107 6.92
108 2.13
121 23.02
122 2.42
123 2.6
136 18.73
137 3.89
154 2.8
155 1.11

>  <PREDICTED SPECTRUM>  (3492) 
26 28
27 173
28 72
29 192
31 9
37 13
38 36
39 231
40 128
41 697
42 208
43 575
44 165
45 22
50 58
51 74
52 83
53 280
54 111
55 304
56 115
57 166
58 19
59 42
60 70
62 14
63 51
64 38
65 170
66 100
67 384
68 729
69 999
70 274
71 595
72 148
73 3
77 224
78 79
79 252
80 533
81 400
82 96
83 44
84 22
85 94
89 55
91 170
92 379
93 840
94 337
95 130
96 16
97 82
105 128
107 368
108 147
109 34
110 26
121 539
122 180
123 165
124 9
136 435
137 150
138 3
150 39
151 18
153 72
154 134
155 73

$$$$

     RDKit          2D

 11 10  0  0  0  0  0  0  0  0999 V2000
   -8.4437    5.6250    0.0000 C   0  0  0  0  0  0  0  0  0  0  0  0
    3.2476    4.8750    0.0000 C   0  0  0  0  0  0  0  0  0  0  0  0
   -7.1447    4.8750    0.0000 C   0  0  0  0  0  0  0  0  0  0  0  0
    1.9486    5.6250    0.0000 C   0  0  0  0  0  0  0  0  0  0  0  0
   -5.8457    5.6250    0.0000 C   0  0  0  0  0  0  0  0  0  0  0  0
   -4.5466    4.8750    0.0000 C   0  0  0  0  0  0  0  0  0  0  0  0
   -3.2476    5.6250    0.0000 C   0  0  0  0  0  0  0  0  0  0  0  0
   -1.9486    4.8750    0.0000 C   0  0  0  0  0  0  0  0  0  0  0  0
    0.6495    4.8750    0.0000 C   0  0  0  0  0  0  0  0  0  0  0  0
    0.6495    3.3750    0.0000 O   0  0  0  0  0  0  0  0  0  0  0  0
   -0.6495    5.6250    0.0000 O   0  0  0  0  0  0  0  0  0  0  0  0
  3  1  1  0
  4  2  1  0
  5  3  1  0
  6  5  1  0
  6  7  2  0
  8  7  1  0
  9  4  1  0
 10  9  2  0
 11  8  1  0
 11  9  1  0
M  END
>  <NAME>  (3493) 
TRANS-2-HEXENYL PROPIONATE

>  <SYNONYMS>  (3493) 


>  <SPECTRUM TYPE>  (3493) 
MS1

>  <INSTRUMENT TYPE>  (3493) 
EI-B

>  <INSTRUMENT>  (3493) 
HITACHI M-80B

>  <ION MODE>  (3493) 
P

>  <INCHIKEY>  (3493) 
LPWKTEHEFDVAQS-VOTSOKGWSA-N

>  <FORMULA>  (3493) 
C9H16O2

>  <EXACT MASS>  (3493) 
156.115029752

>  <MW>  (3493) 
156

>  <ID>  (3493) 
JP006536

>  <CONTRIBUTOR>  (3493) 
University of Tokyo Team, {Faculty of Engineering, University of Tokyo

>  <COMMENT>  (3493) 
SMILES=CCCC=CCOC(=O)CC
InChI=InChI=1S/C9H16O2/c1-3-5-6-7-8-11-9(10)4-2/h6-7H,3-5,8H2,1-2H3/b7-6+
computed SMILES=O=C(OCC=CCCC)CC
accession=JP006536
date=2016.01.19 (Created 2008.10.21, modified 2011.05.06)
author=HISAHIRO HAGIWARA, CHEMICAL RESEARCH INSTITUTE OF NON-AQUEOUSSOLUTIONS TOHOKU UNIV.
license=CC BY-NC-SA
exact mass=156.11503
ionization energy=70 eV
ion type=[M]+*
computed spectral entropy=2.4369759636307484
computed normalized entropy=0.7394103721478147
SPLASH=splash10-0a4i-9000000000-fd16154f2b66da8adddd
submitter=submitter = University of Tokyo Team (Faculty of Engineering, University of Tokyo)
MoNA Rating=3.75

>  <NUM PEAKS>  (3493) 
27

>  <MASS SPECTRAL PEAKS>  (3493) 
26 1.13
27 13.76
28 3.5
29 29.32
39 9.51
40 1.21
41 19.66
42 2.23
43 1.82
53 4.03
54 7
55 18.18
56 4.02
57 99.99
58 3.43
67 21.77
68 1.24
75 2.59
81 2.85
82 13.23
83 7.62
85 1.06
99 2.87
100 4.35
114 1.27
127 1.54
156 1.58

>  <PREDICTED SPECTRUM>  (3493) 
25 14
26 89
27 290
28 119
29 460
30 48
31 74
37 8
38 45
39 297
40 103
41 520
42 195
43 279
44 93
45 5
50 38
51 63
52 80
53 210
54 351
55 574
56 290
57 999
58 133
65 103
66 95
67 438
68 107
70 33
71 107
72 122
73 64
74 44
75 92
80 1
81 195
82 365
83 339
84 67
85 127
97 5
99 124
100 145
101 119
102 22
110 9
111 59
113 119
127 116
156 183
157 37

$$$$

     RDKit          2D

 10  9  0  0  0  0  0  0  0  0999 V2000
    2.2733    4.3125    0.0000 C   0  0  0  0  0  0  0  0  0  0  0  0
   -6.8200    5.0625    0.0000 C   0  0  0  0  0  0  0  0  0  0  0  0
   -5.5209    2.8125    0.0000 C   0  0  0  0  0  0  0  0  0  0  0  0
    0.9743    5.0625    0.0000 C   0  0  0  0  0  0  0  0  0  0  0  0
   -4.2219    5.0625    0.0000 C   0  0  0  0  0  0  0  0  0  0  0  0
   -2.9228    4.3125    0.0000 C   0  0  0  0  0  0  0  0  0  0  0  0
   -5.5209    4.3125    0.0000 C   0  0  0  0  0  0  0  0  0  0  0  0
   -1.6238    5.0625    0.0000 C   0  0  0  0  0  0  0  0  0  0  0  0
   -1.6238    6.5625    0.0000 O   0  0  0  0  0  0  0  0  0  0  0  0
   -0.3248    4.3125    0.0000 O   0  0  0  0  0  0  0  0  0  0  0  0
  4  1  1  0
  6  5  1  0
  7  2  1  0
  7  3  1  0
  7  5  1  0
  8  6  1  0
  9  8  2  0
 10  4  1  0
 10  8  1  0
M  END
>  <NAME>  (3494) 
ETHYL 4-METHYLPENTANOATE

>  <SYNONYMS>  (3494) 


>  <SPECTRUM TYPE>  (3494) 
MS1

>  <INSTRUMENT TYPE>  (3494) 
EI-B

>  <INSTRUMENT>  (3494) 
HITACHI M-80B

>  <ION MODE>  (3494) 
P

>  <INCHIKEY>  (3494) 
OFQRUTMGVBMTFQ-UHFFFAOYSA-N

>  <FORMULA>  (3494) 
C8H16O2

>  <EXACT MASS>  (3494) 
144.115029752

>  <MW>  (3494) 
144

>  <ID>  (3494) 
JP006535

>  <CONTRIBUTOR>  (3494) 
University of Tokyo Team, {Faculty of Engineering, University of Tokyo

>  <COMMENT>  (3494) 
SMILES=CCOC(=O)CCC(C)C
InChI=InChI=1S/C8H16O2/c1-4-10-8(9)6-5-7(2)3/h7H,4-6H2,1-3H3
computed SMILES=O=C(OCC)CCC(C)C
accession=JP006535
date=2016.01.19 (Created 2008.10.21, modified 2011.05.06)
author=HISAHIRO HAGIWARA, CHEMICAL RESEARCH INSTITUTE OF NON-AQUEOUSSOLUTIONS TOHOKU UNIV.
license=CC BY-NC-SA
exact mass=144.11503
ionization energy=70 eV
ion type=[M]+*
computed spectral entropy=3.220747178190983
computed normalized entropy=0.8319762185213005
SPLASH=splash10-0f9g-9100000000-4bbceed47a2856975b25
submitter=submitter = University of Tokyo Team (Faculty of Engineering, University of Tokyo)
MoNA Rating=3.75

>  <NUM PEAKS>  (3494) 
48

>  <MASS SPECTRAL PEAKS>  (3494) 
15 2.88
26 4.39
27 29.75
29 51.13
30 2.98
31 4.13
38 1.15
39 15.64
41 34.16
42 9.57
43 75.57
44 1.55
45 16.85
50 1.03
51 1.7
53 4.23
54 2.42
55 32.9
56 11.92
57 16.65
58 1.71
59 7.2
60 25.64
61 17.15
67 1.06
69 7.45
70 16.46
71 16.17
73 29.85
74 18.13
75 5.67
81 23.65
82 2.84
83 11.66
84 1.21
87 3.66
88 99.99
89 5.69
97 2.85
98 1.54
99 56.73
100 4.07
101 72.06
102 6.13
115 9.6
116 1.6
117 3.86
129 2.76

>  <PREDICTED SPECTRUM>  (3494) 
14 21
15 54
19 9
25 6
26 97
27 403
28 183
29 547
30 51
31 154
37 11
38 34
39 307
40 121
41 587
42 380
43 819
44 113
45 296
46 67
47 27
51 6
52 47
53 156
54 122
55 503
56 292
57 572
58 246
59 159
60 495
61 318
67 77
69 246
70 571
71 382
72 62
73 442
74 343
75 230
81 70
83 180
85 25
86 50
87 276
88 999
89 250
90 78
97 52
98 60
99 493
100 151
101 356
102 60
103 58
115 112
116 84
117 80
129 26
144 86
145 5

$$$$

     RDKit          2D

 10  9  0  0  0  0  0  0  0  0999 V2000
   -6.4952    4.5000    0.0000 C   0  0  0  0  0  0  0  0  0  0  0  0
    2.5981    3.7500    0.0000 C   0  0  0  0  0  0  0  0  0  0  0  0
   -2.5981    2.2500    0.0000 C   0  0  0  0  0  0  0  0  0  0  0  0
   -5.1962    3.7500    0.0000 C   0  0  0  0  0  0  0  0  0  0  0  0
    1.2990    4.5000    0.0000 C   0  0  0  0  0  0  0  0  0  0  0  0
   -3.8971    4.5000    0.0000 C   0  0  0  0  0  0  0  0  0  0  0  0
   -2.5981    3.7500    0.0000 C   0  0  0  0  0  0  0  0  0  0  0  0
   -1.2990    4.5000    0.0000 C   0  0  0  0  0  0  0  0  0  0  0  0
   -1.2990    6.0000    0.0000 O   0  0  0  0  0  0  0  0  0  0  0  0
    0.0000    3.7500    0.0000 O   0  0  0  0  0  0  0  0  0  0  0  0
  4  1  1  0
  5  2  1  0
  6  4  1  0
  7  3  1  0
  7  6  1  0
  8  7  1  0
  9  8  2  0
 10  5  1  0
 10  8  1  0
M  END
>  <NAME>  (3495) 
ETHYL 2-METHYLPENTANOATE

>  <SYNONYMS>  (3495) 


>  <SPECTRUM TYPE>  (3495) 
MS1

>  <INSTRUMENT TYPE>  (3495) 
EI-B

>  <INSTRUMENT>  (3495) 
HITACHI M-80B

>  <ION MODE>  (3495) 
P

>  <INCHIKEY>  (3495) 
HZPKNSYIDSNZKW-UHFFFAOYSA-N

>  <FORMULA>  (3495) 
C8H16O2

>  <EXACT MASS>  (3495) 
144.115029752

>  <MW>  (3495) 
144

>  <ID>  (3495) 
JP006534

>  <CONTRIBUTOR>  (3495) 
University of Tokyo Team, {Faculty of Engineering, University of Tokyo

>  <COMMENT>  (3495) 
SMILES=CCCC(C)C(=O)OCC
InChI=InChI=1S/C8H16O2/c1-4-6-7(3)8(9)10-5-2/h7H,4-6H2,1-3H3
computed SMILES=O=C(OCC)C(C)CCC
accession=JP006534
date=2016.01.19 (Created 2008.10.21, modified 2011.05.06)
author=HISAHIRO HAGIWARA, CHEMICAL RESEARCH INSTITUTE OF NON-AQUEOUSSOLUTIONS TOHOKU UNIV.
license=CC BY-NC-SA
exact mass=144.11503
ionization energy=70 eV
ion type=[M]+*
computed spectral entropy=2.7061907841142574
computed normalized entropy=0.7808416047882109
SPLASH=splash10-0ukc-9300000000-fff4083f113472b3bf87
submitter=submitter = University of Tokyo Team (Faculty of Engineering, University of Tokyo)
MoNA Rating=3.75

>  <NUM PEAKS>  (3495) 
32

>  <MASS SPECTRAL PEAKS>  (3495) 
26 1.76
27 13.06
29 24.97
30 1.51
31 1.44
39 6.64
41 19.78
42 6.55
43 59.11
45 5.09
53 1.96
55 9.7
56 5.96
57 2.18
59 1.79
69 3.53
70 3.95
71 48.69
72 3.15
73 6.25
74 47.61
75 4.6
87 9.91
99 25.38
100 2.16
101 5.37
102 99.99
103 5.81
115 12.03
116 1.68
117 2.13
129 1.48

>  <PREDICTED SPECTRUM>  (3495) 
14 23
15 115
25 14
26 194
27 702
28 376
29 930
30 411
31 293
32 29
37 19
38 79
39 486
40 189
41 796
42 465
43 999
44 156
45 326
46 223
47 138
51 60
52 67
53 253
54 193
55 847
56 515
57 845
58 171
59 333
60 80
61 99
67 133
69 405
70 475
71 902
72 303
73 781
74 730
75 260
83 184
85 87
86 49
87 405
88 380
89 92
90 40
98 199
99 820
100 218
101 263
102 996
103 333
104 56
115 227
116 452
117 228
129 113
144 164
145 36

$$$$

     RDKit          2D

 13 12  0  0  0  0  0  0  0  0999 V2000
    3.2476    4.8750    0.0000 C   0  0  0  0  0  0  0  0  0  0  0  0
    1.9486    7.1250    0.0000 C   0  0  0  0  0  0  0  0  0  0  0  0
   -8.4437    5.6250    0.0000 C   0  0  0  0  0  0  0  0  0  0  0  0
   -7.1447    3.3750    0.0000 C   0  0  0  0  0  0  0  0  0  0  0  0
    0.6495    4.8750    0.0000 C   0  0  0  0  0  0  0  0  0  0  0  0
   -0.6495    5.6250    0.0000 C   0  0  0  0  0  0  0  0  0  0  0  0
   -5.8457    5.6250    0.0000 C   0  0  0  0  0  0  0  0  0  0  0  0
   -4.5466    4.8750    0.0000 C   0  0  0  0  0  0  0  0  0  0  0  0
    1.9486    5.6250    0.0000 C   0  0  0  0  0  0  0  0  0  0  0  0
   -7.1447    4.8750    0.0000 C   0  0  0  0  0  0  0  0  0  0  0  0
   -1.9486    4.8750    0.0000 C   0  0  0  0  0  0  0  0  0  0  0  0
   -1.9486    3.3750    0.0000 O   0  0  0  0  0  0  0  0  0  0  0  0
   -3.2476    5.6250    0.0000 O   0  0  0  0  0  0  0  0  0  0  0  0
  6  5  1  0
  8  7  1  0
  9  1  1  0
  9  2  1  0
  9  5  1  0
 10  3  1  0
 10  4  1  0
 10  7  1  0
 11  6  1  0
 12 11  2  0
 13  8  1  0
 13 11  1  0
M  END
>  <NAME>  (3496) 
ISOPENTYL 4-METHYLPENTANOATE

>  <SYNONYMS>  (3496) 
ISOAMYL 4-METHYLPENTANOATE

>  <SPECTRUM TYPE>  (3496) 
MS1

>  <INSTRUMENT TYPE>  (3496) 
EI-B

>  <INSTRUMENT>  (3496) 
HITACHI M-80B

>  <ION MODE>  (3496) 
P

>  <INCHIKEY>  (3496) 
XGGPQUVMPUGUIC-UHFFFAOYSA-N

>  <FORMULA>  (3496) 
C11H22O2

>  <EXACT MASS>  (3496) 
186.161979944

>  <MW>  (3496) 
186

>  <ID>  (3496) 
JP006533

>  <CONTRIBUTOR>  (3496) 
University of Tokyo Team, {Faculty of Engineering, University of Tokyo

>  <COMMENT>  (3496) 
SMILES=CC(C)CCOC(=O)CCC(C)C
InChI=InChI=1S/C11H22O2/c1-9(2)5-6-11(12)13-8-7-10(3)4/h9-10H,5-8H2,1-4H3
computed SMILES=O=C(OCCC(C)C)CCC(C)C
accession=JP006533
date=2016.01.19 (Created 2008.10.21, modified 2011.05.06)
author=HISAHIRO HAGIWARA, CHEMICAL RESEARCH INSTITUTE OF NON-AQUEOUSSOLUTIONS TOHOKU UNIV.
license=CC BY-NC-SA
exact mass=186.16198
ionization energy=70 eV
ion type=[M]+*
computed spectral entropy=2.6555301892482555
computed normalized entropy=0.7662240469918777
SPLASH=splash10-00dl-9000000000-15a5edd947b0a70fc87a
submitter=submitter = University of Tokyo Team (Faculty of Engineering, University of Tokyo)
MoNA Rating=3.75

>  <NUM PEAKS>  (3496) 
32

>  <MASS SPECTRAL PEAKS>  (3496) 
27 14.12
29 13.95
31 1.01
39 9.64
41 30.06
42 10.34
43 68.12
44 1.93
45 1.44
53 2.09
54 1.01
55 31.39
56 6.14
57 6.24
60 2.06
69 6.13
70 99.99
71 41.51
72 2.17
73 5.94
74 1.82
81 16.56
82 1.04
83 2.1
87 1.33
97 1.22
99 42.6
100 3.8
101 6.71
115 1.63
117 9.86
143 2.06

>  <PREDICTED SPECTRUM>  (3496) 
26 57
27 250
28 67
29 288
31 19
38 6
39 239
40 102
41 455
42 321
43 641
44 101
45 101
51 12
52 26
53 173
54 143
55 550
56 64
57 285
59 48
60 58
61 45
67 91
68 104
69 292
70 999
71 601
72 143
73 211
74 97
79 58
81 121
82 53
83 114
87 120
97 57
99 595
100 138
101 111
115 33
116 103
117 382
118 96
129 110
130 104
131 76
143 229
144 33

$$$$

     RDKit          2D

 11 10  0  0  0  0  0  0  0  0999 V2000
    2.5981    4.5000    0.0000 C   0  0  0  0  0  0  0  0  0  0  0  0
   -7.7942    4.5000    0.0000 C   0  0  0  0  0  0  0  0  0  0  0  0
   -6.4952    6.7500    0.0000 C   0  0  0  0  0  0  0  0  0  0  0  0
    1.2990    5.2500    0.0000 C   0  0  0  0  0  0  0  0  0  0  0  0
   -5.1962    4.5000    0.0000 C   0  0  0  0  0  0  0  0  0  0  0  0
   -3.8971    5.2500    0.0000 C   0  0  0  0  0  0  0  0  0  0  0  0
    0.0000    4.5000    0.0000 C   0  0  0  0  0  0  0  0  0  0  0  0
   -6.4952    5.2500    0.0000 C   0  0  0  0  0  0  0  0  0  0  0  0
   -2.5981    4.5000    0.0000 C   0  0  0  0  0  0  0  0  0  0  0  0
   -2.5981    3.0000    0.0000 O   0  0  0  0  0  0  0  0  0  0  0  0
   -1.2990    5.2500    0.0000 O   0  0  0  0  0  0  0  0  0  0  0  0
  4  1  2  0
  6  5  1  0
  7  4  1  0
  8  2  1  0
  8  3  1  0
  8  5  1  0
  9  6  1  0
 10  9  2  0
 11  7  1  0
 11  9  1  0
M  END
>  <NAME>  (3497) 
ALLYL 4-METHYLPENTANOATE

>  <SYNONYMS>  (3497) 


>  <SPECTRUM TYPE>  (3497) 
MS1

>  <INSTRUMENT TYPE>  (3497) 
EI-B

>  <INSTRUMENT>  (3497) 
HITACHI M-80B

>  <ION MODE>  (3497) 
P

>  <INCHIKEY>  (3497) 
HXQZJNMRGBBCDJ-UHFFFAOYSA-N

>  <FORMULA>  (3497) 
C9H16O2

>  <EXACT MASS>  (3497) 
156.115029752

>  <MW>  (3497) 
156

>  <ID>  (3497) 
JP006532

>  <CONTRIBUTOR>  (3497) 
University of Tokyo Team, {Faculty of Engineering, University of Tokyo

>  <COMMENT>  (3497) 
SMILES=C=CCOC(=O)CCC(C)C
InChI=InChI=1S/C9H16O2/c1-4-7-11-9(10)6-5-8(2)3/h4,8H,1,5-7H2,2-3H3
computed SMILES=O=C(OCC=C)CCC(C)C
accession=JP006532
date=2016.01.19 (Created 2008.10.21, modified 2011.05.06)
author=HISAHIRO HAGIWARA, CHEMICAL RESEARCH INSTITUTE OF NON-AQUEOUSSOLUTIONS TOHOKU UNIV.
license=CC BY-NC-SA
exact mass=156.11503
ionization energy=70 eV
ion type=[M]+*
computed spectral entropy=2.8932087956157235
computed normalized entropy=0.789725702765843
SPLASH=splash10-0006-9000000000-e58e80fd8fa336cca8c7
submitter=submitter = University of Tokyo Team (Faculty of Engineering, University of Tokyo)
MoNA Rating=3.75

>  <NUM PEAKS>  (3497) 
39

>  <MASS SPECTRAL PEAKS>  (3497) 
15 1.93
26 2.35
27 23.78
29 17.08
31 1.59
38 1.72
39 35.71
40 3.93
41 99.99
42 9.12
43 86.93
44 2.47
45 1.49
53 3.23
54 7.31
55 33.9
56 12.24
57 14.45
58 6.2
59 1.09
60 3.89
67 1.23
68 1.45
69 18.85
70 3.4
71 23.56
72 1.52
73 9.35
81 39.41
82 4.1
83 2.77
85 1.1
95 3.29
97 7.63
99 47.81
100 21.58
101 2.02
113 3.57
115 1.67

>  <PREDICTED SPECTRUM>  (3497) 
25 1
26 75
27 349
28 107
29 336
30 4
31 34
37 35
38 79
39 453
40 208
41 999
42 362
43 827
44 185
45 153
50 37
51 92
52 78
53 261
54 168
55 483
56 305
57 594
58 235
59 125
60 139
65 62
66 48
67 239
68 197
69 350
70 217
71 376
72 149
73 129
79 48
80 14
81 240
82 58
83 167
84 11
85 124
86 95
87 100
93 48
95 107
97 148
98 76
99 894
100 416
101 176
113 235
114 126
115 50
141 40

$$$$

     RDKit          2D

 17 16  0  0  0  0  0  0  0  0999 V2000
    4.2219    7.6875    0.0000 C   0  0  0  0  0  0  0  0  0  0  0  0
  -12.6656    8.4375    0.0000 C   0  0  0  0  0  0  0  0  0  0  0  0
  -11.3666    6.1875    0.0000 C   0  0  0  0  0  0  0  0  0  0  0  0
   -6.1704    6.1875    0.0000 C   0  0  0  0  0  0  0  0  0  0  0  0
    2.9228    8.4375    0.0000 C   0  0  0  0  0  0  0  0  0  0  0  0
    1.6238    7.6875    0.0000 C   0  0  0  0  0  0  0  0  0  0  0  0
   -8.7685    7.6875    0.0000 C   0  0  0  0  0  0  0  0  0  0  0  0
  -10.0675    8.4375    0.0000 C   0  0  0  0  0  0  0  0  0  0  0  0
   -7.4695    8.4375    0.0000 C   0  0  0  0  0  0  0  0  0  0  0  0
    0.3248    8.4375    0.0000 C   0  0  0  0  0  0  0  0  0  0  0  0
   -4.8714    8.4375    0.0000 C   0  0  0  0  0  0  0  0  0  0  0  0
   -3.5724    7.6875    0.0000 C   0  0  0  0  0  0  0  0  0  0  0  0
  -11.3666    7.6875    0.0000 C   0  0  0  0  0  0  0  0  0  0  0  0
   -6.1704    7.6875    0.0000 C   0  0  0  0  0  0  0  0  0  0  0  0
   -0.9743    7.6875    0.0000 C   0  0  0  0  0  0  0  0  0  0  0  0
   -0.9743    6.1875    0.0000 O   0  0  0  0  0  0  0  0  0  0  0  0
   -2.2733    8.4375    0.0000 O   0  0  0  0  0  0  0  0  0  0  0  0
  5  1  1  0
  6  5  1  0
  8  7  1  0
  9  7  1  0
 10  6  1  0
 12 11  1  0
 13  2  1  0
 13  3  1  0
 13  8  2  0
 14  4  1  0
 14  9  1  0
 11 14  2  0
 15 10  1  0
 16 15  2  0
 17 12  1  0
 17 15  1  0
M  END
>  <NAME>  (3498) 
GERANYL VALERATE

>  <SYNONYMS>  (3498) 
3,7-DIMETHYL-2,6-OCTADIENYL PENTANOATE

>  <SPECTRUM TYPE>  (3498) 
MS1

>  <INSTRUMENT TYPE>  (3498) 
EI-B

>  <INSTRUMENT>  (3498) 
HITACHI M-80B

>  <ION MODE>  (3498) 
P

>  <INCHIKEY>  (3498) 
CVSWGLSBJFKWMW-SDNWHVSQSA-N

>  <FORMULA>  (3498) 
C15H26O2

>  <EXACT MASS>  (3498) 
238.193280072

>  <MW>  (3498) 
238

>  <ID>  (3498) 
JP006531

>  <CONTRIBUTOR>  (3498) 
University of Tokyo Team, {Faculty of Engineering, University of Tokyo

>  <COMMENT>  (3498) 
SMILES=CCCCC(=O)OCC=C(C)CCC=C(C)C
InChI=InChI=1S/C15H26O2/c1-5-6-10-15(16)17-12-11-14(4)9-7-8-13(2)3/h8,11H,5-7,9-10,12H2,1-4H3/b14-11+
computed SMILES=O=C(OCC=C(C)CCC=C(C)C)CCCC
accession=JP006531
date=2016.01.19 (Created 2008.10.21, modified 2011.05.06)
author=HISAHIRO HAGIWARA, CHEMICAL RESEARCH INSTITUTE OF NON-AQUEOUSSOLUTIONS TOHOKU UNIV.
license=CC BY-NC-SA
exact mass=238.19328
ionization energy=70 eV
ion type=[M]+*
computed spectral entropy=2.8844342833430248
computed normalized entropy=0.7819269561997281
SPLASH=splash10-014l-9100000000-f157fa9066566c1aec77
submitter=submitter = University of Tokyo Team (Faculty of Engineering, University of Tokyo)
MoNA Rating=3.75

>  <NUM PEAKS>  (3498) 
40

>  <MASS SPECTRAL PEAKS>  (3498) 
27 6.27
28 1.66
29 14.01
39 7.71
40 2.39
41 50.73
42 2.71
43 3.24
53 8.64
55 6.95
57 31.16
58 1.24
65 1.2
66 1.05
67 11.23
68 55.06
69 99.99
70 5.46
77 1.57
79 2.62
80 16.8
81 8.42
82 1.13
84 1.41
85 41.21
86 1.94
91 1.52
92 8.26
93 37.74
94 7.15
95 2.09
107 6.15
108 1.78
121 19.9
122 1.73
123 2.53
136 16.99
137 2.56
154 1.48
169 1.03

>  <PREDICTED SPECTRUM>  (3498) 
25 3
26 28
27 158
28 65
29 211
31 20
37 7
38 23
39 227
40 129
41 670
42 208
43 334
44 125
45 15
50 46
51 61
52 88
53 265
54 80
55 289
56 153
57 446
58 77
59 38
60 116
62 10
63 56
64 50
65 180
66 87
67 380
68 706
69 999
70 277
72 101
73 5
77 162
78 56
79 203
80 537
81 490
82 73
83 90
84 42
85 391
86 89
87 11
91 228
92 387
93 785
94 329
95 90
96 9
101 27
103 36
105 82
107 277
108 119
109 28
111 1
119 46
121 506
122 124
123 95
136 435
137 214
138 13
154 152
169 38

$$$$

     RDKit          2D

 12 11  0  0  0  0  0  0  0  0999 V2000
    2.9228    5.4375    0.0000 C   0  0  0  0  0  0  0  0  0  0  0  0
   -8.7685    6.1875    0.0000 C   0  0  0  0  0  0  0  0  0  0  0  0
   -7.4695    3.9375    0.0000 C   0  0  0  0  0  0  0  0  0  0  0  0
    1.6238    6.1875    0.0000 C   0  0  0  0  0  0  0  0  0  0  0  0
    0.3248    5.4375    0.0000 C   0  0  0  0  0  0  0  0  0  0  0  0
   -0.9743    6.1875    0.0000 C   0  0  0  0  0  0  0  0  0  0  0  0
   -2.2733    5.4375    0.0000 C   0  0  0  0  0  0  0  0  0  0  0  0
   -6.1704    6.1875    0.0000 C   0  0  0  0  0  0  0  0  0  0  0  0
   -7.4695    5.4375    0.0000 C   0  0  0  0  0  0  0  0  0  0  0  0
   -4.8714    5.4375    0.0000 C   0  0  0  0  0  0  0  0  0  0  0  0
   -4.8714    3.9375    0.0000 O   0  0  0  0  0  0  0  0  0  0  0  0
   -3.5724    6.1875    0.0000 O   0  0  0  0  0  0  0  0  0  0  0  0
  4  1  1  0
  5  4  1  0
  6  5  1  0
  7  6  1  0
  9  2  1  0
  9  3  1  0
  9  8  1  0
 10  8  1  0
 11 10  2  0
 12  7  1  0
 12 10  1  0
M  END
>  <NAME>  (3499) 
PENTYL ISOPENTANOATE

>  <SYNONYMS>  (3499) 
AMYL ISOVALERATE

>  <SPECTRUM TYPE>  (3499) 
MS1

>  <INSTRUMENT TYPE>  (3499) 
EI-B

>  <INSTRUMENT>  (3499) 
HITACHI M-80B

>  <ION MODE>  (3499) 
P

>  <INCHIKEY>  (3499) 
QURFFFCYNQXLCU-UHFFFAOYSA-N

>  <FORMULA>  (3499) 
C10H20O2

>  <EXACT MASS>  (3499) 
172.14632988

>  <MW>  (3499) 
172

>  <ID>  (3499) 
JP006530

>  <CONTRIBUTOR>  (3499) 
University of Tokyo Team, {Faculty of Engineering, University of Tokyo

>  <COMMENT>  (3499) 
SMILES=CCCCCOC(=O)CC(C)C
InChI=InChI=1S/C10H20O2/c1-4-5-6-7-12-10(11)8-9(2)3/h9H,4-8H2,1-3H3
computed SMILES=O=C(OCCCCC)CC(C)C
accession=JP006530
date=2016.01.19 (Created 2008.10.21, modified 2011.05.06)
author=HISAHIRO HAGIWARA, CHEMICAL RESEARCH INSTITUTE OF NON-AQUEOUSSOLUTIONS TOHOKU UNIV.
license=CC BY-NC-SA
exact mass=172.14633
ionization energy=70 eV
ion type=[M]+*
computed spectral entropy=2.844031007501415
computed normalized entropy=0.8065060244544856
SPLASH=splash10-059f-9100000000-80e4b949d6b2457b120a
submitter=submitter = University of Tokyo Team (Faculty of Engineering, University of Tokyo)
MoNA Rating=3.75

>  <NUM PEAKS>  (3499) 
34

>  <MASS SPECTRAL PEAKS>  (3499) 
15 1.43
26 1.19
27 24.59
29 37.43
31 1.75
39 20.73
41 60.64
42 36.88
43 72.1
44 2.32
45 3.78
53 2.07
54 1.02
55 28.98
56 6.29
57 68.06
58 3
59 6.32
60 21.27
61 16.6
69 8.7
70 91.07
71 17.92
72 1.12
85 99.99
86 5.99
87 19.02
100 1.15
101 1.02
102 6.98
103 78.03
104 4.48
115 5.18
130 3.56

>  <PREDICTED SPECTRUM>  (3499) 
25 5
26 92
27 464
28 154
29 574
30 9
31 92
36 68
37 53
38 101
39 506
40 246
41 877
42 596
43 999
44 294
45 323
46 15
51 7
52 32
53 186
54 177
55 528
56 602
57 976
58 229
59 145
60 398
61 316
67 137
68 197
69 550
70 882
71 558
72 143
73 156
74 101
84 45
85 985
86 232
87 218
88 22
89 196
90 19
102 180
103 864
104 166
115 238
117 32
129 17
130 25

$$$$

     RDKit          2D

 16 15  0  0  0  0  0  0  0  0999 V2000
    4.2219    7.6875    0.0000 C   0  0  0  0  0  0  0  0  0  0  0  0
  -12.6656    8.4375    0.0000 C   0  0  0  0  0  0  0  0  0  0  0  0
  -11.3666    6.1875    0.0000 C   0  0  0  0  0  0  0  0  0  0  0  0
    2.9228    8.4375    0.0000 C   0  0  0  0  0  0  0  0  0  0  0  0
    1.6238    7.6875    0.0000 C   0  0  0  0  0  0  0  0  0  0  0  0
    0.3248    8.4375    0.0000 C   0  0  0  0  0  0  0  0  0  0  0  0
   -0.9743    7.6875    0.0000 C   0  0  0  0  0  0  0  0  0  0  0  0
   -2.2733    8.4375    0.0000 C   0  0  0  0  0  0  0  0  0  0  0  0
   -3.5724    7.6875    0.0000 C   0  0  0  0  0  0  0  0  0  0  0  0
   -4.8714    8.4375    0.0000 C   0  0  0  0  0  0  0  0  0  0  0  0
   -6.1704    7.6875    0.0000 C   0  0  0  0  0  0  0  0  0  0  0  0
  -10.0675    8.4375    0.0000 C   0  0  0  0  0  0  0  0  0  0  0  0
  -11.3666    7.6875    0.0000 C   0  0  0  0  0  0  0  0  0  0  0  0
   -8.7685    7.6875    0.0000 C   0  0  0  0  0  0  0  0  0  0  0  0
   -8.7685    6.1875    0.0000 O   0  0  0  0  0  0  0  0  0  0  0  0
   -7.4695    8.4375    0.0000 O   0  0  0  0  0  0  0  0  0  0  0  0
  4  1  1  0
  5  4  1  0
  6  5  1  0
  7  6  1  0
  8  7  1  0
  9  8  1  0
 10  9  1  0
 11 10  1  0
 13  2  1  0
 13  3  1  0
 13 12  1  0
 14 12  1  0
 15 14  2  0
 16 11  1  0
 16 14  1  0
M  END
>  <NAME>  (3500) 
NONYL ISOPENTANOATE

>  <SYNONYMS>  (3500) 
NONYL ISOVALERATE

>  <SPECTRUM TYPE>  (3500) 
MS1

>  <INSTRUMENT TYPE>  (3500) 
EI-B

>  <INSTRUMENT>  (3500) 
HITACHI M-80B

>  <ION MODE>  (3500) 
P

>  <INCHIKEY>  (3500) 
JHKZVDVMXZGMOX-UHFFFAOYSA-N

>  <FORMULA>  (3500) 
C14H28O2

>  <EXACT MASS>  (3500) 
228.208930136

>  <MW>  (3500) 
228

>  <ID>  (3500) 
JP006529

>  <CONTRIBUTOR>  (3500) 
University of Tokyo Team, {Faculty of Engineering, University of Tokyo

>  <COMMENT>  (3500) 
computed SMILES=O=C(OCCCCCCCCC)CC(C)C
SMILES=CCCCCCCCCOC(=O)CC(C)C
InChI=InChI=1S/C14H28O2/c1-4-5-6-7-8-9-10-11-16-14(15)12-13(2)3/h13H,4-12H2,1-3H3
accession=JP006529
date=2016.01.19 (Created 2008.10.21, modified 2011.05.06)
author=HISAHIRO HAGIWARA, CHEMICAL RESEARCH INSTITUTE OF NON-AQUEOUSSOLUTIONS TOHOKU UNIV.
license=CC BY-NC-SA
exact mass=228.20893
ionization energy=70 eV
ion type=[M]+*
computed spectral entropy=3.1685906100511465
computed normalized entropy=0.8323802329642122
SPLASH=splash10-0pbc-9100000000-e1bb60b47fa5dacf8a5d
submitter=submitter = University of Tokyo Team (Faculty of Engineering, University of Tokyo)
MoNA Rating=3.75

>  <NUM PEAKS>  (3500) 
45

>  <MASS SPECTRAL PEAKS>  (3500) 
27 19.46
29 38.06
31 1.51
39 14.93
41 81.03
42 25.57
43 79.76
44 1.74
45 1.81
53 3.01
54 4.69
55 47.51
56 52.67
57 97.22
58 3.93
59 3.54
60 11.14
61 18.72
67 3.86
68 10.31
69 31.68
70 39.68
71 25.56
72 1.28
81 1.51
82 10.96
83 26.11
84 30.4
85 87.27
86 4.25
87 13.9
96 3.52
97 26.76
98 25.11
99 1.57
101 1.38
102 7.92
103 99.99
104 4.14
111 1.12
126 33.4
127 2.84
143 1.1
158 1.59
171 1.33

>  <PREDICTED SPECTRUM>  (3500) 
25 1
26 63
27 329
28 120
29 485
30 44
31 97
36 40
37 24
38 66
39 340
40 158
41 672
42 378
43 686
44 168
45 80
51 18
52 41
53 180
54 222
55 586
56 643
57 850
58 195
59 185
60 233
61 315
65 0
66 70
67 214
68 290
69 527
70 587
71 445
72 83
73 74
74 8
75 13
79 49
80 1
81 148
82 309
83 483
84 339
85 707
86 160
87 221
88 36
95 48
96 208
97 410
98 441
99 192
100 37
101 158
102 252
103 999
104 257
110 14
111 214
112 40
113 16
124 70
125 129
126 555
127 192
128 37
129 36
130 9
143 0
171 134

$$$$

     RDKit          2D

 15 14  0  0  0  0  0  0  0  0999 V2000
    3.8971    6.7500    0.0000 C   0  0  0  0  0  0  0  0  0  0  0  0
  -11.6913    6.7500    0.0000 C   0  0  0  0  0  0  0  0  0  0  0  0
  -10.3923    9.0000    0.0000 C   0  0  0  0  0  0  0  0  0  0  0  0
    2.5981    7.5000    0.0000 C   0  0  0  0  0  0  0  0  0  0  0  0
    1.2990    6.7500    0.0000 C   0  0  0  0  0  0  0  0  0  0  0  0
    0.0000    7.5000    0.0000 C   0  0  0  0  0  0  0  0  0  0  0  0
   -1.2990    6.7500    0.0000 C   0  0  0  0  0  0  0  0  0  0  0  0
   -2.5981    7.5000    0.0000 C   0  0  0  0  0  0  0  0  0  0  0  0
   -3.8971    6.7500    0.0000 C   0  0  0  0  0  0  0  0  0  0  0  0
   -5.1962    7.5000    0.0000 C   0  0  0  0  0  0  0  0  0  0  0  0
   -9.0933    6.7500    0.0000 C   0  0  0  0  0  0  0  0  0  0  0  0
  -10.3923    7.5000    0.0000 C   0  0  0  0  0  0  0  0  0  0  0  0
   -7.7942    7.5000    0.0000 C   0  0  0  0  0  0  0  0  0  0  0  0
   -7.7942    9.0000    0.0000 O   0  0  0  0  0  0  0  0  0  0  0  0
   -6.4952    6.7500    0.0000 O   0  0  0  0  0  0  0  0  0  0  0  0
  4  1  1  0
  5  4  1  0
  6  5  1  0
  7  6  1  0
  8  7  1  0
  9  8  1  0
 10  9  1  0
 12  2  1  0
 12  3  1  0
 12 11  1  0
 13 11  1  0
 14 13  2  0
 15 10  1  0
 15 13  1  0
M  END
>  <NAME>  (3501) 
OCTYL ISOPENTANOATE

>  <SYNONYMS>  (3501) 
OCTYL ISOVALERATE

>  <SPECTRUM TYPE>  (3501) 
MS1

>  <INSTRUMENT TYPE>  (3501) 
EI-B

>  <INSTRUMENT>  (3501) 
HITACHI M-80B

>  <ION MODE>  (3501) 
P

>  <INCHIKEY>  (3501) 
FUBGRVHGQADOJI-UHFFFAOYSA-N

>  <FORMULA>  (3501) 
C13H26O2

>  <EXACT MASS>  (3501) 
214.193280072

>  <MW>  (3501) 
214

>  <ID>  (3501) 
JP006528

>  <CONTRIBUTOR>  (3501) 
University of Tokyo Team, {Faculty of Engineering, University of Tokyo

>  <COMMENT>  (3501) 
SMILES=CCCCCCCCOC(=O)CC(C)C
InChI=InChI=1S/C13H26O2/c1-4-5-6-7-8-9-10-15-13(14)11-12(2)3/h12H,4-11H2,1-3H3
computed SMILES=O=C(OCCCCCCCC)CC(C)C
accession=JP006528
date=2016.01.19 (Created 2008.10.21, modified 2011.05.06)
author=HISAHIRO HAGIWARA, CHEMICAL RESEARCH INSTITUTE OF NON-AQUEOUSSOLUTIONS TOHOKU UNIV.
license=CC BY-NC-SA
exact mass=214.19328
ionization energy=70 eV
ion type=[M]+*
computed spectral entropy=3.0803381025550545
computed normalized entropy=0.8350335490415063
SPLASH=splash10-0a4l-9100000000-104043ea732fc20d17fb
submitter=submitter = University of Tokyo Team (Faculty of Engineering, University of Tokyo)
MoNA Rating=3.75

>  <NUM PEAKS>  (3501) 
40

>  <MASS SPECTRAL PEAKS>  (3501) 
27 19.18
29 36.59
31 1.21
39 14.9
41 72.89
42 25.3
43 62.22
44 1.66
45 1.93
53 2.92
54 3.13
55 36.83
56 41.66
57 99.99
58 3.7
59 3.58
60 12.05
61 19.68
67 2.79
68 8.35
69 25.39
70 44.4
71 25.86
72 1.27
82 9.24
83 31.55
84 32.7
85 75.41
86 3.4
87 12.87
97 2.6
101 1.21
102 6.37
103 83.85
104 3.85
112 33.71
113 2.81
115 1.03
157 1.36
158 1.01

>  <PREDICTED SPECTRUM>  (3501) 
25 3
26 65
27 350
28 129
29 501
30 55
31 94
36 41
37 27
38 68
39 356
40 165
41 690
42 397
43 713
44 178
45 132
51 8
52 31
53 181
54 217
55 581
56 679
57 874
58 192
59 174
60 253
61 338
66 60
67 204
68 296
69 525
70 616
71 446
72 89
73 116
74 58
79 22
81 123
82 289
83 457
84 520
85 743
86 175
87 267
88 50
95 24
96 173
97 343
98 115
99 50
101 38
102 221
103 999
104 257
110 95
111 223
112 630
113 228
114 46
115 53
116 36
129 25
131 3
157 142

$$$$

     RDKit          2D

 14 13  0  0  0  0  0  0  0  0999 V2000
    3.5724    6.5625    0.0000 C   0  0  0  0  0  0  0  0  0  0  0  0
  -10.7171    7.3125    0.0000 C   0  0  0  0  0  0  0  0  0  0  0  0
   -9.4180    5.0625    0.0000 C   0  0  0  0  0  0  0  0  0  0  0  0
    2.2733    7.3125    0.0000 C   0  0  0  0  0  0  0  0  0  0  0  0
    0.9743    6.5625    0.0000 C   0  0  0  0  0  0  0  0  0  0  0  0
   -0.3248    7.3125    0.0000 C   0  0  0  0  0  0  0  0  0  0  0  0
   -1.6238    6.5625    0.0000 C   0  0  0  0  0  0  0  0  0  0  0  0
   -2.9228    7.3125    0.0000 C   0  0  0  0  0  0  0  0  0  0  0  0
   -4.2219    6.5625    0.0000 C   0  0  0  0  0  0  0  0  0  0  0  0
   -8.1190    7.3125    0.0000 C   0  0  0  0  0  0  0  0  0  0  0  0
   -9.4180    6.5625    0.0000 C   0  0  0  0  0  0  0  0  0  0  0  0
   -6.8200    6.5625    0.0000 C   0  0  0  0  0  0  0  0  0  0  0  0
   -6.8200    5.0625    0.0000 O   0  0  0  0  0  0  0  0  0  0  0  0
   -5.5209    7.3125    0.0000 O   0  0  0  0  0  0  0  0  0  0  0  0
  4  1  1  0
  5  4  1  0
  6  5  1  0
  7  6  1  0
  8  7  1  0
  9  8  1  0
 11  2  1  0
 11  3  1  0
 11 10  1  0
 12 10  1  0
 13 12  2  0
 14  9  1  0
 14 12  1  0
M  END
>  <NAME>  (3502) 
HEPTYL ISOPENTANOATE

>  <SYNONYMS>  (3502) 
HEPTYL ISOVALERATE

>  <SPECTRUM TYPE>  (3502) 
MS1

>  <INSTRUMENT TYPE>  (3502) 
EI-B

>  <INSTRUMENT>  (3502) 
HITACHI M-80B

>  <ION MODE>  (3502) 
P

>  <INCHIKEY>  (3502) 
NPBMPHKEFVCCEY-UHFFFAOYSA-N

>  <FORMULA>  (3502) 
C12H24O2

>  <EXACT MASS>  (3502) 
200.177630008

>  <MW>  (3502) 
200

>  <ID>  (3502) 
JP006527

>  <CONTRIBUTOR>  (3502) 
University of Tokyo Team, {Faculty of Engineering, University of Tokyo

>  <COMMENT>  (3502) 
SMILES=CCCCCCCOC(=O)CC(C)C
InChI=InChI=1S/C12H24O2/c1-4-5-6-7-8-9-14-12(13)10-11(2)3/h11H,4-10H2,1-3H3
computed SMILES=O=C(OCCCCCCC)CC(C)C
accession=JP006527
date=2016.01.19 (Created 2008.10.21, modified 2011.05.06)
author=HISAHIRO HAGIWARA, CHEMICAL RESEARCH INSTITUTE OF NON-AQUEOUSSOLUTIONS TOHOKU UNIV.
license=CC BY-NC-SA
exact mass=200.17763
ionization energy=70 eV
ion type=[M]+*
computed spectral entropy=2.923324103257539
computed normalized entropy=0.822232887666389
SPLASH=splash10-0a4l-9100000000-220872a425acb868804e
submitter=submitter = University of Tokyo Team (Faculty of Engineering, University of Tokyo)
MoNA Rating=3.75

>  <NUM PEAKS>  (3502) 
35

>  <MASS SPECTRAL PEAKS>  (3502) 
27 16.9
29 30.23
31 1.16
39 13.56
41 58.87
42 19.34
43 39.52
44 1.25
45 1.75
53 2.1
54 3.6
55 28.23
56 47.42
57 99.99
58 4.74
59 3.39
60 10.82
61 20
67 1.24
68 6.49
69 21.02
70 38.66
71 2.38
83 5.08
85 64.07
86 3.68
87 11.46
97 1.5
98 37.79
99 3.03
102 5.24
103 67.1
104 3.05
115 1.15
143 1.52

>  <PREDICTED SPECTRUM>  (3502) 
25 5
26 70
27 372
28 136
29 515
30 76
31 95
36 44
37 30
38 67
39 371
40 166
41 703
42 413
43 744
44 177
45 166
51 1
52 20
53 174
54 207
55 555
56 702
57 911
58 204
59 170
60 280
61 339
66 35
67 183
68 288
69 520
70 661
71 441
72 96
73 169
74 69
75 44
79 3
81 95
82 226
83 364
84 73
85 776
86 190
87 225
96 157
97 309
98 703
99 273
100 58
101 79
102 248
103 999
104 264
115 53
117 21
143 141

$$$$

     RDKit          2D

 13 12  0  0  0  0  0  0  0  0999 V2000
    3.2476    5.6250    0.0000 C   0  0  0  0  0  0  0  0  0  0  0  0
   -9.7428    5.6250    0.0000 C   0  0  0  0  0  0  0  0  0  0  0  0
   -8.4437    7.8750    0.0000 C   0  0  0  0  0  0  0  0  0  0  0  0
    1.9486    6.3750    0.0000 C   0  0  0  0  0  0  0  0  0  0  0  0
    0.6495    5.6250    0.0000 C   0  0  0  0  0  0  0  0  0  0  0  0
   -0.6495    6.3750    0.0000 C   0  0  0  0  0  0  0  0  0  0  0  0
   -1.9486    5.6250    0.0000 C   0  0  0  0  0  0  0  0  0  0  0  0
   -3.2476    6.3750    0.0000 C   0  0  0  0  0  0  0  0  0  0  0  0
   -7.1447    5.6250    0.0000 C   0  0  0  0  0  0  0  0  0  0  0  0
   -8.4437    6.3750    0.0000 C   0  0  0  0  0  0  0  0  0  0  0  0
   -5.8457    6.3750    0.0000 C   0  0  0  0  0  0  0  0  0  0  0  0
   -5.8457    7.8750    0.0000 O   0  0  0  0  0  0  0  0  0  0  0  0
   -4.5466    5.6250    0.0000 O   0  0  0  0  0  0  0  0  0  0  0  0
  4  1  1  0
  5  4  1  0
  6  5  1  0
  7  6  1  0
  8  7  1  0
 10  2  1  0
 10  3  1  0
 10  9  1  0
 11  9  1  0
 12 11  2  0
 13  8  1  0
 13 11  1  0
M  END
>  <NAME>  (3503) 
HEXYL ISOPENTANOATE

>  <SYNONYMS>  (3503) 
HEXYL ISOVALERATE

>  <SPECTRUM TYPE>  (3503) 
MS1

>  <INSTRUMENT TYPE>  (3503) 
EI-B

>  <INSTRUMENT>  (3503) 
HITACHI M-80B

>  <ION MODE>  (3503) 
P

>  <INCHIKEY>  (3503) 
RSDDTPVXLMVLQE-UHFFFAOYSA-N

>  <FORMULA>  (3503) 
C11H22O2

>  <EXACT MASS>  (3503) 
186.161979944

>  <MW>  (3503) 
186

>  <ID>  (3503) 
JP006526

>  <CONTRIBUTOR>  (3503) 
University of Tokyo Team, {Faculty of Engineering, University of Tokyo

>  <COMMENT>  (3503) 
SMILES=CCCCCCOC(=O)CC(C)C
InChI=InChI=1S/C11H22O2/c1-4-5-6-7-8-13-11(12)9-10(2)3/h10H,4-9H2,1-3H3
computed SMILES=O=C(OCCCCCC)CC(C)C
accession=JP006526
date=2016.01.19 (Created 2008.10.21, modified 2011.05.06)
author=HISAHIRO HAGIWARA, CHEMICAL RESEARCH INSTITUTE OF NON-AQUEOUSSOLUTIONS TOHOKU UNIV.
license=CC BY-NC-SA
exact mass=186.16198
ionization energy=70 eV
ion type=[M]+*
computed spectral entropy=2.8441129153329197
computed normalized entropy=0.7936648205794752
SPLASH=splash10-052o-9100000000-73d73fa328924a52408b
submitter=submitter = University of Tokyo Team (Faculty of Engineering, University of Tokyo)
MoNA Rating=3.75

>  <NUM PEAKS>  (3503) 
36

>  <MASS SPECTRAL PEAKS>  (3503) 
15 1.26
26 1.04
27 25.26
29 36.87
31 1.45
39 19.09
41 71.62
42 30.33
43 94.48
44 2.42
45 2.35
53 2.48
54 2.48
55 32.59
56 64.35
57 76.76
58 3.23
59 5.68
60 17.1
61 25.67
67 1.49
69 21.6
70 1.05
83 2.88
84 63.4
85 99.99
86 5.71
87 16.41
100 1.1
101 1.57
102 6.23
103 83.7
104 3.96
115 1.7
129 1.92
144 1.09

>  <PREDICTED SPECTRUM>  (3503) 
25 4
26 71
27 402
28 142
29 536
30 28
31 85
36 52
37 35
38 67
39 408
40 181
41 758
42 464
43 850
44 220
45 207
52 6
53 160
54 193
55 529
56 771
57 983
58 240
59 173
60 331
61 354
66 34
67 166
68 255
69 514
70 518
71 192
72 10
73 75
82 132
83 290
84 889
85 925
86 227
87 240
88 59
101 89
102 260
103 999
104 289
129 142

$$$$

     RDKit          2D

 13 12  0  0  0  0  0  0  0  0999 V2000
    3.2476    5.6250    0.0000 C   0  0  0  0  0  0  0  0  0  0  0  0
   -9.7428    5.6250    0.0000 C   0  0  0  0  0  0  0  0  0  0  0  0
   -8.4437    7.8750    0.0000 C   0  0  0  0  0  0  0  0  0  0  0  0
    1.9486    6.3750    0.0000 C   0  0  0  0  0  0  0  0  0  0  0  0
    0.6495    5.6250    0.0000 C   0  0  0  0  0  0  0  0  0  0  0  0
   -0.6495    6.3750    0.0000 C   0  0  0  0  0  0  0  0  0  0  0  0
   -1.9486    5.6250    0.0000 C   0  0  0  0  0  0  0  0  0  0  0  0
   -3.2476    6.3750    0.0000 C   0  0  0  0  0  0  0  0  0  0  0  0
   -7.1447    5.6250    0.0000 C   0  0  0  0  0  0  0  0  0  0  0  0
   -8.4437    6.3750    0.0000 C   0  0  0  0  0  0  0  0  0  0  0  0
   -5.8457    6.3750    0.0000 C   0  0  0  0  0  0  0  0  0  0  0  0
   -5.8457    7.8750    0.0000 O   0  0  0  0  0  0  0  0  0  0  0  0
   -4.5466    5.6250    0.0000 O   0  0  0  0  0  0  0  0  0  0  0  0
  4  1  1  0
  5  4  1  0
  6  5  1  0
  6  7  2  0
  8  7  1  0
 10  2  1  0
 10  3  1  0
 10  9  1  0
 11  9  1  0
 12 11  2  0
 13  8  1  0
 13 11  1  0
M  END
>  <NAME>  (3504) 
TRANS-2-HEXENYL ISOVALERATE

>  <SYNONYMS>  (3504) 
TRANS-2-HEXENYL ISOPENTANOATE

>  <SPECTRUM TYPE>  (3504) 
MS1

>  <INSTRUMENT TYPE>  (3504) 
EI-B

>  <INSTRUMENT>  (3504) 
HITACHI M-80B

>  <ION MODE>  (3504) 
P

>  <INCHIKEY>  (3504) 
SAVRWHQEMHIAEB-VOTSOKGWSA-N

>  <FORMULA>  (3504) 
C11H20O2

>  <EXACT MASS>  (3504) 
184.14632988

>  <MW>  (3504) 
184

>  <ID>  (3504) 
JP006525

>  <CONTRIBUTOR>  (3504) 
University of Tokyo Team, {Faculty of Engineering, University of Tokyo

>  <COMMENT>  (3504) 
SMILES=CCCC=CCOC(=O)CC(C)C
InChI=InChI=1S/C11H20O2/c1-4-5-6-7-8-13-11(12)9-10(2)3/h6-7,10H,4-5,8-9H2,1-3H3/b7-6+
computed SMILES=O=C(OCC=CCCC)CC(C)C
accession=JP006525
date=2016.01.19 (Created 2008.10.21, modified 2011.05.06)
author=HISAHIRO HAGIWARA, CHEMICAL RESEARCH INSTITUTE OF NON-AQUEOUSSOLUTIONS TOHOKU UNIV.
license=CC BY-NC-SA
exact mass=184.14633
ionization energy=70 eV
ion type=[M]+*
computed spectral entropy=2.6102828987758784
computed normalized entropy=0.7751866870533806
SPLASH=splash10-0a4r-9000000000-c29f2a3ae9937e010b9a
submitter=submitter = University of Tokyo Team (Faculty of Engineering, University of Tokyo)
MoNA Rating=3.75

>  <NUM PEAKS>  (3504) 
29

>  <MASS SPECTRAL PEAKS>  (3504) 
27 16.58
29 19.73
39 18.99
41 52.55
42 7.5
43 11.81
53 6.22
54 12.19
55 39.25
56 5.36
57 82.74
58 2.98
59 2.55
60 1.89
67 29.06
68 1.69
69 2.37
81 2.59
82 20.14
83 20.06
84 1.63
85 99.99
86 5.53
87 1.38
99 1.79
100 2.09
103 1.91
155 1.26
184 1.69

>  <PREDICTED SPECTRUM>  (3504) 
15 19
25 3
26 109
27 299
28 152
29 430
38 12
39 282
40 103
41 613
42 225
43 348
44 111
45 112
50 2
51 51
52 46
53 197
54 386
55 501
56 310
57 999
58 132
60 111
65 97
66 113
67 500
68 196
69 182
70 7
71 20
72 59
73 153
81 160
82 558
83 568
84 89
85 969
86 216
87 69
93 2
95 27
99 114
100 119
101 24
102 147
103 92
114 10
127 91
129 4
184 31

$$$$

     RDKit          2D

 12 11  0  0  0  0  0  0  0  0999 V2000
    2.5981    4.5000    0.0000 C   0  0  0  0  0  0  0  0  0  0  0  0
   -7.7942    4.5000    0.0000 C   0  0  0  0  0  0  0  0  0  0  0  0
   -6.4952    6.7500    0.0000 C   0  0  0  0  0  0  0  0  0  0  0  0
    0.0000    3.0000    0.0000 C   0  0  0  0  0  0  0  0  0  0  0  0
    1.2990    5.2500    0.0000 C   0  0  0  0  0  0  0  0  0  0  0  0
   -5.1962    4.5000    0.0000 C   0  0  0  0  0  0  0  0  0  0  0  0
   -1.2990    5.2500    0.0000 C   0  0  0  0  0  0  0  0  0  0  0  0
   -6.4952    5.2500    0.0000 C   0  0  0  0  0  0  0  0  0  0  0  0
    0.0000    4.5000    0.0000 C   0  0  0  0  0  0  0  0  0  0  0  0
   -3.8971    5.2500    0.0000 C   0  0  0  0  0  0  0  0  0  0  0  0
   -3.8971    6.7500    0.0000 O   0  0  0  0  0  0  0  0  0  0  0  0
   -2.5981    4.5000    0.0000 O   0  0  0  0  0  0  0  0  0  0  0  0
  5  1  1  0
  8  2  1  0
  8  3  1  0
  8  6  1  0
  9  4  1  0
  9  5  1  0
  9  7  1  0
 10  6  1  0
 11 10  2  0
 12  7  1  0
 12 10  1  0
M  END
>  <NAME>  (3505) 
2-METHYLBUTYL ISOPENTANOATE

>  <SYNONYMS>  (3505) 
2-METHYLBUTYL ISOVALERATE

>  <SPECTRUM TYPE>  (3505) 
MS1

>  <INSTRUMENT TYPE>  (3505) 
EI-B

>  <INSTRUMENT>  (3505) 
HITACHI M-80B

>  <ION MODE>  (3505) 
P

>  <INCHIKEY>  (3505) 
CYGPPWVXOWCHJB-UHFFFAOYSA-N

>  <FORMULA>  (3505) 
C10H20O2

>  <EXACT MASS>  (3505) 
172.14632988

>  <MW>  (3505) 
172

>  <ID>  (3505) 
JP006524

>  <CONTRIBUTOR>  (3505) 
University of Tokyo Team, {Faculty of Engineering, University of Tokyo

>  <COMMENT>  (3505) 
SMILES=CCC(C)COC(=O)CC(C)C
InChI=InChI=1S/C10H20O2/c1-5-9(4)7-12-10(11)6-8(2)3/h8-9H,5-7H2,1-4H3
computed SMILES=O=C(OCC(C)CC)CC(C)C
accession=JP006524
date=2016.01.19 (Created 2008.10.21, modified 2011.05.06)
author=HISAHIRO HAGIWARA, CHEMICAL RESEARCH INSTITUTE OF NON-AQUEOUSSOLUTIONS TOHOKU UNIV.
license=CC BY-NC-SA
exact mass=172.14633
ionization energy=70 eV
ion type=[M]+*
computed spectral entropy=2.598437593385285
computed normalized entropy=0.7797953533316183
SPLASH=splash10-05g3-9000000000-6b51e5b4b6359271157d
submitter=submitter = University of Tokyo Team (Faculty of Engineering, University of Tokyo)
MoNA Rating=3.75

>  <NUM PEAKS>  (3505) 
28

>  <MASS SPECTRAL PEAKS>  (3505) 
27 15.15
29 21.03
31 1.23
39 12.52
41 37.46
42 15.08
43 42.7
45 2.47
53 1.73
55 22.52
56 4.59
57 53.98
58 2.06
59 1.86
60 10.06
61 2.25
69 3.01
70 87.45
71 29.12
72 1.55
85 99.99
86 5.95
87 7.09
101 1.09
102 2.86
103 10.56
115 3.04
130 1.46

>  <PREDICTED SPECTRUM>  (3505) 
26 69
27 321
28 128
29 440
31 117
38 6
39 356
40 139
41 681
42 418
43 856
44 187
45 171
52 29
53 151
54 117
55 450
56 575
57 999
58 231
59 84
60 188
61 96
67 42
68 59
69 408
70 775
71 854
72 235
73 136
74 101
84 63
85 931
86 143
87 286
88 57
89 71
101 70
102 249
103 491
104 48
115 445
116 207
117 156

$$$$

     RDKit          2D

 12 11  0  0  0  0  0  0  0  0999 V2000
   -6.8200    5.0625    0.0000 C   0  0  0  0  0  0  0  0  0  0  0  0
   -5.5209    2.8125    0.0000 C   0  0  0  0  0  0  0  0  0  0  0  0
    3.5724    5.0625    0.0000 C   0  0  0  0  0  0  0  0  0  0  0  0
    2.2733    2.8125    0.0000 C   0  0  0  0  0  0  0  0  0  0  0  0
   -4.2219    5.0625    0.0000 C   0  0  0  0  0  0  0  0  0  0  0  0
   -2.9228    4.3125    0.0000 C   0  0  0  0  0  0  0  0  0  0  0  0
    0.9743    5.0625    0.0000 C   0  0  0  0  0  0  0  0  0  0  0  0
   -5.5209    4.3125    0.0000 C   0  0  0  0  0  0  0  0  0  0  0  0
    2.2733    4.3125    0.0000 C   0  0  0  0  0  0  0  0  0  0  0  0
   -0.3248    4.3125    0.0000 C   0  0  0  0  0  0  0  0  0  0  0  0
   -0.3248    2.8125    0.0000 O   0  0  0  0  0  0  0  0  0  0  0  0
   -1.6238    5.0625    0.0000 O   0  0  0  0  0  0  0  0  0  0  0  0
  6  5  1  0
  8  1  1  0
  8  2  1  0
  8  5  1  0
  9  3  1  0
  9  4  1  0
  9  7  1  0
 10  7  1  0
 11 10  2  0
 12  6  1  0
 12 10  1  0
M  END
>  <NAME>  (3506) 
ISOPENTYL ISOPENTANOATE

>  <SYNONYMS>  (3506) 
ISOAMYL ISOVALERATE

>  <SPECTRUM TYPE>  (3506) 
MS1

>  <INSTRUMENT TYPE>  (3506) 
EI-B

>  <INSTRUMENT>  (3506) 
HITACHI M-80B

>  <ION MODE>  (3506) 
P

>  <INCHIKEY>  (3506) 
XINCECQTMHSORG-UHFFFAOYSA-N

>  <FORMULA>  (3506) 
C10H20O2

>  <EXACT MASS>  (3506) 
172.14632988

>  <MW>  (3506) 
172

>  <ID>  (3506) 
JP006523

>  <CONTRIBUTOR>  (3506) 
University of Tokyo Team, {Faculty of Engineering, University of Tokyo

>  <COMMENT>  (3506) 
SMILES=CC(C)CCOC(=O)CC(C)C
InChI=InChI=1S/C10H20O2/c1-8(2)5-6-12-10(11)7-9(3)4/h8-9H,5-7H2,1-4H3
computed SMILES=O=C(OCCC(C)C)CC(C)C
accession=JP006523
date=2016.01.19 (Created 2008.10.21, modified 2011.05.06)
author=HISAHIRO HAGIWARA, CHEMICAL RESEARCH INSTITUTE OF NON-AQUEOUSSOLUTIONS TOHOKU UNIV.
license=CC BY-NC-SA
exact mass=172.14633
ionization energy=70 eV
ion type=[M]+*
computed spectral entropy=2.5888061205255686
computed normalized entropy=0.7688086379199915
SPLASH=splash10-05fu-9000000000-2a19de7644662f7b1eb3
submitter=submitter = University of Tokyo Team (Faculty of Engineering, University of Tokyo)
MoNA Rating=3.75

>  <NUM PEAKS>  (3506) 
29

>  <MASS SPECTRAL PEAKS>  (3506) 
27 12.98
29 13.5
31 1.05
39 10.89
41 33.9
42 13.71
43 48.43
44 1.07
45 1.8
53 1.51
55 29.03
56 3.74
57 37.45
58 1.66
59 1.82
60 3.69
61 1.96
69 5.3
70 99.99
71 29.96
72 1.5
85 55.07
86 2.71
87 3.33
102 1.35
103 13.64
115 2.35
129 2.36
130 1.22

>  <PREDICTED SPECTRUM>  (3506) 
15 6
25 3
26 88
27 371
28 163
29 391
31 129
36 22
37 20
38 53
39 387
40 161
41 655
42 454
43 908
44 225
45 267
46 10
52 15
53 133
54 90
55 513
56 367
57 669
58 171
59 90
60 120
61 131
67 28
68 110
69 445
70 999
71 890
72 214
73 175
74 90
83 18
84 265
85 636
86 132
87 196
88 17
89 68
101 113
102 213
103 323
104 25
115 290
116 199
117 204
129 237
130 161
157 80

$$$$

     RDKit          2D

 11 10  0  0  0  0  0  0  0  0999 V2000
   -6.4952    4.5000    0.0000 C   0  0  0  0  0  0  0  0  0  0  0  0
   -5.1962    2.2500    0.0000 C   0  0  0  0  0  0  0  0  0  0  0  0
    2.5981    3.7500    0.0000 C   0  0  0  0  0  0  0  0  0  0  0  0
    1.2990    6.0000    0.0000 C   0  0  0  0  0  0  0  0  0  0  0  0
   -3.8971    4.5000    0.0000 C   0  0  0  0  0  0  0  0  0  0  0  0
    0.0000    3.7500    0.0000 C   0  0  0  0  0  0  0  0  0  0  0  0
   -5.1962    3.7500    0.0000 C   0  0  0  0  0  0  0  0  0  0  0  0
    1.2990    4.5000    0.0000 C   0  0  0  0  0  0  0  0  0  0  0  0
   -2.5981    3.7500    0.0000 C   0  0  0  0  0  0  0  0  0  0  0  0
   -2.5981    2.2500    0.0000 O   0  0  0  0  0  0  0  0  0  0  0  0
   -1.2990    4.5000    0.0000 O   0  0  0  0  0  0  0  0  0  0  0  0
  7  1  1  0
  7  2  1  0
  7  5  1  0
  8  3  1  0
  8  4  1  0
  8  6  1  0
  9  5  1  0
 10  9  2  0
 11  6  1  0
 11  9  1  0
M  END
>  <NAME>  (3507) 
ISOBUTYL ISOPENTANOATE

>  <SYNONYMS>  (3507) 
ISOBUTYL ISOVALERATE

>  <SPECTRUM TYPE>  (3507) 
MS1

>  <INSTRUMENT TYPE>  (3507) 
EI-B

>  <INSTRUMENT>  (3507) 
HITACHI M-80B

>  <ION MODE>  (3507) 
P

>  <INCHIKEY>  (3507) 
KEBDNKNVCHQIJU-UHFFFAOYSA-N

>  <FORMULA>  (3507) 
C9H18O2

>  <EXACT MASS>  (3507) 
158.130679816

>  <MW>  (3507) 
158

>  <ID>  (3507) 
JP006522

>  <CONTRIBUTOR>  (3507) 
University of Tokyo Team, {Faculty of Engineering, University of Tokyo

>  <COMMENT>  (3507) 
SMILES=CC(C)COC(=O)CC(C)C
InChI=InChI=1S/C9H18O2/c1-7(2)5-9(10)11-6-8(3)4/h7-8H,5-6H2,1-4H3
computed SMILES=O=C(OCC(C)C)CC(C)C
accession=JP006522
date=2016.01.19 (Created 2008.10.21, modified 2011.05.06)
author=HISAHIRO HAGIWARA, CHEMICAL RESEARCH INSTITUTE OF NON-AQUEOUSSOLUTIONS TOHOKU UNIV.
license=CC BY-NC-SA
exact mass=158.13068
ionization energy=70 eV
ion type=[M]+*
computed spectral entropy=2.486741083896773
computed normalized entropy=0.7462750489363039
SPLASH=splash10-0a4r-9000000000-336ea180a0659bc877c5
submitter=submitter = University of Tokyo Team (Faculty of Engineering, University of Tokyo)
MoNA Rating=3.75

>  <NUM PEAKS>  (3507) 
28

>  <MASS SPECTRAL PEAKS>  (3507) 
27 11.36
29 15.37
31 1.27
39 13.13
41 39.73
42 8.76
43 15.83
45 1.52
53 1.02
55 4.13
56 46.08
57 80.83
58 3.01
59 2.26
60 14.64
61 2.89
69 1.64
73 2.26
85 99.99
86 4.97
87 9.6
101 1.16
102 2.74
103 22.35
104 1.23
115 3.27
116 3.19
128 1.15

>  <PREDICTED SPECTRUM>  (3507) 
26 31
27 198
28 71
29 379
30 74
31 56
36 12
37 5
38 32
39 263
40 117
41 559
42 245
43 365
44 100
45 53
52 16
53 69
54 62
55 200
56 587
57 999
58 223
59 137
60 244
61 155
67 46
69 226
70 14
71 42
73 39
83 62
84 114
85 616
86 138
87 239
101 222
102 224
103 489
104 122
115 42
116 20
143 12

$$$$

     RDKit          2D

 11 10  0  0  0  0  0  0  0  0999 V2000
    2.5981    4.5000    0.0000 C   0  0  0  0  0  0  0  0  0  0  0  0
   -7.7942    4.5000    0.0000 C   0  0  0  0  0  0  0  0  0  0  0  0
   -6.4952    6.7500    0.0000 C   0  0  0  0  0  0  0  0  0  0  0  0
    1.2990    5.2500    0.0000 C   0  0  0  0  0  0  0  0  0  0  0  0
    0.0000    4.5000    0.0000 C   0  0  0  0  0  0  0  0  0  0  0  0
   -1.2990    5.2500    0.0000 C   0  0  0  0  0  0  0  0  0  0  0  0
   -5.1962    4.5000    0.0000 C   0  0  0  0  0  0  0  0  0  0  0  0
   -6.4952    5.2500    0.0000 C   0  0  0  0  0  0  0  0  0  0  0  0
   -3.8971    5.2500    0.0000 C   0  0  0  0  0  0  0  0  0  0  0  0
   -3.8971    6.7500    0.0000 O   0  0  0  0  0  0  0  0  0  0  0  0
   -2.5981    4.5000    0.0000 O   0  0  0  0  0  0  0  0  0  0  0  0
  4  1  1  0
  5  4  1  0
  6  5  1  0
  8  2  1  0
  8  3  1  0
  8  7  1  0
  9  7  1  0
 10  9  2  0
 11  6  1  0
 11  9  1  0
M  END
>  <NAME>  (3508) 
BUTYL ISOPENTANOATE

>  <SYNONYMS>  (3508) 
BUTYL ISOVALERATE

>  <SPECTRUM TYPE>  (3508) 
MS1

>  <INSTRUMENT TYPE>  (3508) 
EI-B

>  <INSTRUMENT>  (3508) 
HITACHI M-80B

>  <ION MODE>  (3508) 
P

>  <INCHIKEY>  (3508) 
AYWJSCLAAPJZEF-UHFFFAOYSA-N

>  <FORMULA>  (3508) 
C9H18O2

>  <EXACT MASS>  (3508) 
158.130679816

>  <MW>  (3508) 
158

>  <ID>  (3508) 
JP006521

>  <CONTRIBUTOR>  (3508) 
University of Tokyo Team, {Faculty of Engineering, University of Tokyo

>  <COMMENT>  (3508) 
SMILES=CCCCOC(=O)CC(C)C
InChI=InChI=1S/C9H18O2/c1-4-5-6-11-9(10)7-8(2)3/h8H,4-7H2,1-3H3
computed SMILES=O=C(OCCCC)CC(C)C
accession=JP006521
date=2016.01.19 (Created 2008.10.21, modified 2011.05.06)
author=HISAHIRO HAGIWARA, CHEMICAL RESEARCH INSTITUTE OF NON-AQUEOUSSOLUTIONS TOHOKU UNIV.
license=CC BY-NC-SA
exact mass=158.13068
ionization energy=70 eV
ion type=[M]+*
computed spectral entropy=2.6902861179759494
computed normalized entropy=0.783429278496482
SPLASH=splash10-0a4u-9000000000-8dd1d91769ff865eda84
submitter=submitter = University of Tokyo Team (Faculty of Engineering, University of Tokyo)
MoNA Rating=3.75

>  <NUM PEAKS>  (3508) 
31

>  <MASS SPECTRAL PEAKS>  (3508) 
15 2.25
26 1.89
27 31.83
29 55.94
30 1.25
31 2.56
39 24.71
41 77.56
42 15.09
43 26.24
44 1.19
45 5.1
53 1.6
55 12.72
56 91.42
57 99.99
58 4.32
59 7.17
60 30.95
61 13.02
69 2.39
73 1.29
85 92.22
86 5.42
87 17.71
101 2.72
102 2.87
103 50.44
104 2.29
115 1.73
116 3.04

>  <PREDICTED SPECTRUM>  (3508) 
26 27
27 242
28 66
29 394
30 36
31 18
36 16
37 13
38 41
39 333
40 162
41 656
42 286
43 410
44 94
45 71
46 2
49 7
53 60
54 35
55 256
56 736
57 999
58 259
59 113
60 325
61 239
67 49
69 198
73 45
75 7
84 192
85 621
86 133
87 143
101 194
102 80
103 491
104 74
115 42
116 14

$$$$

     RDKit          2D

 10  9  0  0  0  0  0  0  0  0999 V2000
    2.2733    2.8125    0.0000 C   0  0  0  0  0  0  0  0  0  0  0  0
    0.9743    5.0625    0.0000 C   0  0  0  0  0  0  0  0  0  0  0  0
   -5.5209    2.8125    0.0000 C   0  0  0  0  0  0  0  0  0  0  0  0
   -4.2219    5.0625    0.0000 C   0  0  0  0  0  0  0  0  0  0  0  0
   -0.3248    2.8125    0.0000 C   0  0  0  0  0  0  0  0  0  0  0  0
    0.9743    3.5625    0.0000 C   0  0  0  0  0  0  0  0  0  0  0  0
   -4.2219    3.5625    0.0000 C   0  0  0  0  0  0  0  0  0  0  0  0
   -1.6238    3.5625    0.0000 C   0  0  0  0  0  0  0  0  0  0  0  0
   -1.6238    5.0625    0.0000 O   0  0  0  0  0  0  0  0  0  0  0  0
   -2.9228    2.8125    0.0000 O   0  0  0  0  0  0  0  0  0  0  0  0
  6  1  1  0
  6  2  1  0
  6  5  1  0
  7  3  1  0
  7  4  1  0
  8  5  1  0
  9  8  2  0
 10  7  1  0
 10  8  1  0
M  END
>  <NAME>  (3509) 
ISOPROPYL ISOPENTANOATE

>  <SYNONYMS>  (3509) 
ISOPROPYL ISOVALERATE

>  <SPECTRUM TYPE>  (3509) 
MS1

>  <INSTRUMENT TYPE>  (3509) 
EI-B

>  <INSTRUMENT>  (3509) 
HITACHI M-80B

>  <ION MODE>  (3509) 
P

>  <INCHIKEY>  (3509) 
ZOIRKXLFEHOVER-UHFFFAOYSA-N

>  <FORMULA>  (3509) 
C8H16O2

>  <EXACT MASS>  (3509) 
144.115029752

>  <MW>  (3509) 
144

>  <ID>  (3509) 
JP006520

>  <CONTRIBUTOR>  (3509) 
University of Tokyo Team, {Faculty of Engineering, University of Tokyo

>  <COMMENT>  (3509) 
SMILES=CC(C)CC(=O)OC(C)C
InChI=InChI=1S/C8H16O2/c1-6(2)5-8(9)10-7(3)4/h6-7H,5H2,1-4H3
computed SMILES=O=C(OC(C)C)CC(C)C
accession=JP006520
date=2016.01.19 (Created 2008.10.21, modified 2011.05.06)
author=HISAHIRO HAGIWARA, CHEMICAL RESEARCH INSTITUTE OF NON-AQUEOUSSOLUTIONS TOHOKU UNIV.
license=CC BY-NC-SA
exact mass=144.11503
ionization energy=70 eV
ion type=[M]+*
computed spectral entropy=2.7188284849667275
computed normalized entropy=0.8074219261506491
SPLASH=splash10-052o-9100000000-69318c84256abc619c08
submitter=submitter = University of Tokyo Team (Faculty of Engineering, University of Tokyo)
MoNA Rating=3.75

>  <NUM PEAKS>  (3509) 
29

>  <MASS SPECTRAL PEAKS>  (3509) 
15 4.38
26 1.2
27 27.1
29 14.87
31 1.73
38 1.24
39 24.76
40 2.6
41 59.39
42 18.61
43 99.99
44 3.7
45 7.09
55 3.99
56 5.7
57 64.19
58 3.14
59 27.69
60 69.32
61 10.4
69 2.94
85 89.17
86 5.05
87 20.55
101 1.12
102 34.43
103 33.5
104 1.55
129 4.08

>  <PREDICTED SPECTRUM>  (3509) 
14 16
15 65
25 9
26 73
27 384
28 95
29 296
31 98
37 48
38 116
39 464
40 210
41 632
42 343
43 999
44 264
45 206
53 127
54 42
56 262
57 844
58 362
59 377
60 480
61 216
67 34
70 65
72 11
73 95
74 9
83 72
84 112
85 914
86 197
87 440
101 142
102 692
103 392
129 96

$$$$

     RDKit          2D

 10  9  0  0  0  0  0  0  0  0999 V2000
   -7.4695    3.9375    0.0000 C   0  0  0  0  0  0  0  0  0  0  0  0
    1.6238    3.1875    0.0000 C   0  0  0  0  0  0  0  0  0  0  0  0
    0.3248    5.4375    0.0000 C   0  0  0  0  0  0  0  0  0  0  0  0
   -6.1704    3.1875    0.0000 C   0  0  0  0  0  0  0  0  0  0  0  0
   -4.8714    3.9375    0.0000 C   0  0  0  0  0  0  0  0  0  0  0  0
   -0.9743    3.1875    0.0000 C   0  0  0  0  0  0  0  0  0  0  0  0
    0.3248    3.9375    0.0000 C   0  0  0  0  0  0  0  0  0  0  0  0
   -2.2733    3.9375    0.0000 C   0  0  0  0  0  0  0  0  0  0  0  0
   -2.2733    5.4375    0.0000 O   0  0  0  0  0  0  0  0  0  0  0  0
   -3.5724    3.1875    0.0000 O   0  0  0  0  0  0  0  0  0  0  0  0
  4  1  1  0
  5  4  1  0
  7  2  1  0
  7  3  1  0
  7  6  1  0
  8  6  1  0
  9  8  2  0
 10  5  1  0
 10  8  1  0
M  END
>  <NAME>  (3510) 
PROPYL ISOPENTANOATE

>  <SYNONYMS>  (3510) 
PROPYL ISOVALERATE

>  <SPECTRUM TYPE>  (3510) 
MS1

>  <INSTRUMENT TYPE>  (3510) 
EI-B

>  <INSTRUMENT>  (3510) 
HITACHI M-80B

>  <ION MODE>  (3510) 
P

>  <INCHIKEY>  (3510) 
LSJMDWFAADPNAX-UHFFFAOYSA-N

>  <FORMULA>  (3510) 
C8H16O2

>  <EXACT MASS>  (3510) 
144.115029752

>  <MW>  (3510) 
144

>  <ID>  (3510) 
JP006519

>  <CONTRIBUTOR>  (3510) 
University of Tokyo Team, {Faculty of Engineering, University of Tokyo

>  <COMMENT>  (3510) 
SMILES=CCCOC(=O)CC(C)C
InChI=InChI=1S/C8H16O2/c1-4-5-10-8(9)6-7(2)3/h7H,4-6H2,1-3H3
computed SMILES=O=C(OCCC)CC(C)C
accession=JP006519
date=2016.01.19 (Created 2008.10.21, modified 2011.05.06)
author=HISAHIRO HAGIWARA, CHEMICAL RESEARCH INSTITUTE OF NON-AQUEOUSSOLUTIONS TOHOKU UNIV.
license=CC BY-NC-SA
exact mass=144.11503
ionization energy=70 eV
ion type=[M]+*
computed spectral entropy=2.7403379358096904
computed normalized entropy=0.8138096782012461
SPLASH=splash10-01p6-9100000000-003d976dae1bca2f64ef
submitter=submitter = University of Tokyo Team (Faculty of Engineering, University of Tokyo)
MoNA Rating=3.75

>  <NUM PEAKS>  (3510) 
29

>  <MASS SPECTRAL PEAKS>  (3510) 
15 2.12
26 1.49
27 28.99
29 21.29
31 3.41
38 1.05
39 22.36
41 56.63
42 24.26
43 58.06
44 1.74
45 4.61
53 1.1
55 4.26
56 5.9
57 64.05
58 3.19
59 13.16
60 42.18
61 44.38
62 1.06
69 2.45
85 99.99
86 6
87 21.98
102 15.75
103 59.93
104 2.63
115 2.21

>  <PREDICTED SPECTRUM>  (3510) 
15 95
25 14
26 107
27 511
28 169
29 515
31 150
37 63
38 109
39 501
40 231
41 850
42 447
43 929
44 207
45 259
49 78
53 123
54 29
55 232
56 446
57 999
58 268
59 379
60 601
61 523
67 73
69 242
70 33
72 28
73 233
83 98
84 123
85 994
86 216
87 565
89 39
101 130
102 697
103 371
104 63
129 5

$$$$

     RDKit          2D

 10  9  0  0  0  0  0  0  0  0999 V2000
   -7.4695    3.9375    0.0000 C   0  0  0  0  0  0  0  0  0  0  0  0
    1.6238    3.1875    0.0000 C   0  0  0  0  0  0  0  0  0  0  0  0
    0.3248    5.4375    0.0000 C   0  0  0  0  0  0  0  0  0  0  0  0
   -6.1704    3.1875    0.0000 C   0  0  0  0  0  0  0  0  0  0  0  0
   -4.8714    3.9375    0.0000 C   0  0  0  0  0  0  0  0  0  0  0  0
   -0.9743    3.1875    0.0000 C   0  0  0  0  0  0  0  0  0  0  0  0
    0.3248    3.9375    0.0000 C   0  0  0  0  0  0  0  0  0  0  0  0
   -2.2733    3.9375    0.0000 C   0  0  0  0  0  0  0  0  0  0  0  0
   -2.2733    5.4375    0.0000 O   0  0  0  0  0  0  0  0  0  0  0  0
   -3.5724    3.1875    0.0000 O   0  0  0  0  0  0  0  0  0  0  0  0
  4  1  2  0
  5  4  1  0
  7  2  1  0
  7  3  1  0
  7  6  1  0
  8  6  1  0
  9  8  2  0
 10  5  1  0
 10  8  1  0
M  END
>  <NAME>  (3511) 
ALLYL ISOPENTANOATE

>  <SYNONYMS>  (3511) 
ALLYL ISOVALERATE

>  <SPECTRUM TYPE>  (3511) 
MS1

>  <INSTRUMENT TYPE>  (3511) 
EI-B

>  <INSTRUMENT>  (3511) 
HITACHI M-80B

>  <ION MODE>  (3511) 
P

>  <INCHIKEY>  (3511) 
HOMAGVUCNZNWBC-UHFFFAOYSA-N

>  <FORMULA>  (3511) 
C8H14O2

>  <EXACT MASS>  (3511) 
142.099379688

>  <MW>  (3511) 
142

>  <ID>  (3511) 
JP006518

>  <CONTRIBUTOR>  (3511) 
University of Tokyo Team, {Faculty of Engineering, University of Tokyo

>  <COMMENT>  (3511) 
SMILES=C=CCOC(=O)CC(C)C
InChI=InChI=1S/C8H14O2/c1-4-5-10-8(9)6-7(2)3/h4,7H,1,5-6H2,2-3H3
computed SMILES=O=C(OCC=C)CC(C)C
accession=JP006518
date=2016.01.19 (Created 2008.10.21, modified 2011.05.06)
author=HISAHIRO HAGIWARA, CHEMICAL RESEARCH INSTITUTE OF NON-AQUEOUSSOLUTIONS TOHOKU UNIV.
license=CC BY-NC-SA
exact mass=142.09938
ionization energy=70 eV
ion type=[M]+*
computed spectral entropy=2.4446830174496124
computed normalized entropy=0.7260077940521882
SPLASH=splash10-052u-9000000000-7354044a3e73badab547
submitter=submitter = University of Tokyo Team (Faculty of Engineering, University of Tokyo)
MoNA Rating=3.75

>  <NUM PEAKS>  (3511) 
29

>  <MASS SPECTRAL PEAKS>  (3511) 
15 1.69
26 1.91
27 15.64
29 18.25
31 1.32
38 2.37
39 33.28
41 95.47
42 10.83
43 20.93
45 1.28
53 1.31
54 4.53
55 13.43
56 7.64
57 98.1
58 8.84
59 18.01
60 1.26
69 3.97
81 1.76
82 2.5
83 1.42
85 99.99
86 5.37
99 1.69
100 16.13
101 1.7
103 1.46

>  <PREDICTED SPECTRUM>  (3511) 
25 16
26 110
27 375
28 142
29 464
30 42
31 67
36 7
37 74
38 138
39 544
40 247
41 999
42 366
43 545
44 225
45 53
50 52
51 83
52 46
53 99
54 145
55 265
56 373
57 954
58 398
59 47
60 205
61 6
67 136
68 147
69 170
70 85
83 28
85 843
86 195
87 38
100 170
102 129
103 41

$$$$

     RDKit          2D

 13 13  0  0  0  0  0  0  0  0999 V2000
   -1.6700   -0.9602    0.0000 C   0  0  0  0  0  0  0  0  0  0  0  0
   -0.3708   -1.7100    0.0000 C   0  0  0  0  0  0  0  0  0  0  0  0
    0.9281   -0.9598    0.0000 C   0  0  0  0  0  0  0  0  0  0  0  0
    8.7242    0.5410    0.0000 C   0  0  0  0  0  0  0  0  0  0  0  0
    8.7242   -0.9590    0.0000 C   0  0  0  0  0  0  0  0  0  0  0  0
    7.4242    1.2910    0.0000 C   0  0  0  0  0  0  0  0  0  0  0  0
    7.4242   -1.7090    0.0000 C   0  0  0  0  0  0  0  0  0  0  0  0
    6.1242    0.5410    0.0000 C   0  0  0  0  0  0  0  0  0  0  0  0
    2.2272   -1.7096    0.0000 C   0  0  0  0  0  0  0  0  0  0  0  0
    6.1242   -0.9590    0.0000 C   0  0  0  0  0  0  0  0  0  0  0  0
    3.5262   -0.9594    0.0000 C   0  0  0  0  0  0  0  0  0  0  0  0
    3.5259    0.5406    0.0000 O   0  0  0  0  0  0  0  0  0  0  0  0
    4.8253   -1.7092    0.0000 O   0  0  0  0  0  0  0  0  0  0  0  0
  2  1  1  0
  3  2  1  0
  5  4  1  0
  6  4  1  0
  7  5  1  0
  8  6  1  0
  9  3  1  0
 10  7  1  0
 10  8  1  0
 11  9  1  0
 12 11  2  0
 13 10  1  0
 13 11  1  0
M  END
>  <NAME>  (3512) 
CYCLOHEXYL PENTANOATE

>  <SYNONYMS>  (3512) 
CYCLOHEXYL VALERATE

>  <SPECTRUM TYPE>  (3512) 
MS1

>  <INSTRUMENT TYPE>  (3512) 
EI-B

>  <INSTRUMENT>  (3512) 
HITACHI M-80B

>  <ION MODE>  (3512) 
P

>  <INCHIKEY>  (3512) 
YLCHTSSXNSNXSW-UHFFFAOYSA-N

>  <FORMULA>  (3512) 
C11H20O2

>  <EXACT MASS>  (3512) 
184.14632988

>  <MW>  (3512) 
184

>  <ID>  (3512) 
JP006517

>  <CONTRIBUTOR>  (3512) 
University of Tokyo Team, {Faculty of Engineering, University of Tokyo

>  <COMMENT>  (3512) 
SMILES=CCCCC(=O)OC(C1)CCCC1
InChI=InChI=1S/C11H20O2/c1-2-3-9-11(12)13-10-7-5-4-6-8-10/h10H,2-9H2,1H3
computed SMILES=O=C(OC1CCCCC1)CCCC
accession=JP006517
date=2016.01.19 (Created 2008.10.21, modified 2011.05.06)
author=HISAHIRO HAGIWARA, CHEMICAL RESEARCH INSTITUTE OF NON-AQUEOUSSOLUTIONS TOHOKU UNIV.
license=CC BY-NC-SA
exact mass=184.14633
ionization energy=70 eV
ion type=[M]+*
computed spectral entropy=2.972715347181957
computed normalized entropy=0.7598920924179515
SPLASH=splash10-0pc9-9100000000-97888717f3890d192d1b
submitter=submitter = University of Tokyo Team (Faculty of Engineering, University of Tokyo)
MoNA Rating=3.75

>  <NUM PEAKS>  (3512) 
50

>  <MASS SPECTRAL PEAKS>  (3512) 
15 1.47
26 1.51
27 21.07
29 35.28
30 1.2
31 1.38
39 17.75
41 68.06
42 9.79
43 7.48
44 1.72
45 1.73
51 1.83
53 6.09
54 18.81
55 63.83
56 7.6
57 84.72
58 6.01
59 1.7
60 14.56
61 2.92
66 1.62
67 67.76
68 3.73
69 1.52
71 1.51
73 6.01
74 1.19
75 2.08
77 1.56
79 2.73
80 1.02
81 9.81
82 99.99
83 42.79
84 4.47
85 93.15
86 4.75
87 1.76
99 7.06
100 3.01
101 1.59
102 17.06
103 97.58
104 4.49
124 1.54
127 1.9
141 1.97
142 1.03

>  <PREDICTED SPECTRUM>  (3512) 
25 13
26 121
27 402
28 155
29 521
31 40
38 23
39 386
40 153
41 775
42 317
43 428
44 143
45 154
50 21
51 96
52 49
53 222
54 431
55 694
56 323
57 999
58 211
59 184
60 331
61 151
65 64
66 129
67 710
68 76
69 128
70 35
71 113
72 80
73 217
79 158
80 20
81 364
82 822
83 736
84 131
85 723
86 185
98 93
99 260
100 216
101 129
102 401
103 606
127 43
142 33

$$$$

     RDKit          2D

 13 13  0  0  0  0  0  0  0  0999 V2000
    9.9412    0.2499    0.0000 C   0  0  0  0  0  0  0  0  0  0  0  0
    8.6414   -0.4987    0.0000 C   0  0  0  0  0  0  0  0  0  0  0  0
    7.3431    0.2526    0.0000 C   0  0  0  0  0  0  0  0  0  0  0  0
   -0.7846   -2.2893    0.0000 C   0  0  0  0  0  0  0  0  0  0  0  0
    0.6827   -1.9774    0.0000 C   0  0  0  0  0  0  0  0  0  0  0  0
    6.0433   -0.4961    0.0000 C   0  0  0  0  0  0  0  0  0  0  0  0
   -1.5297   -0.9960    0.0000 C   0  0  0  0  0  0  0  0  0  0  0  0
    2.1470    0.2579    0.0000 C   0  0  0  0  0  0  0  0  0  0  0  0
    0.8472   -0.4908    0.0000 C   0  0  0  0  0  0  0  0  0  0  0  0
    4.7450    0.2553    0.0000 C   0  0  0  0  0  0  0  0  0  0  0  0
    4.7466    1.7553    0.0000 O   0  0  0  0  0  0  0  0  0  0  0  0
   -0.5291    0.1164    0.0000 O   0  0  0  0  0  0  0  0  0  0  0  0
    3.4452   -0.4934    0.0000 O   0  0  0  0  0  0  0  0  0  0  0  0
  2  1  1  0
  3  2  1  0
  5  4  1  0
  6  3  1  0
  7  4  2  0
  9  5  2  0
  9  8  1  0
 10  6  1  0
 11 10  2  0
 12  7  1  0
 12  9  1  0
 13  8  1  0
 13 10  1  0
M  END
>  <NAME>  (3513) 
FURFURYL PENTANOATE

>  <SYNONYMS>  (3513) 
FURFURYL VALERATE

>  <SPECTRUM TYPE>  (3513) 
MS1

>  <INSTRUMENT TYPE>  (3513) 
EI-B

>  <INSTRUMENT>  (3513) 
HITACHI M-80B

>  <ION MODE>  (3513) 
P

>  <INCHIKEY>  (3513) 
HRYAVTBTUKVHBU-UHFFFAOYSA-N

>  <FORMULA>  (3513) 
C10H14O3

>  <EXACT MASS>  (3513) 
182.09429430799997

>  <MW>  (3513) 
182

>  <ID>  (3513) 
JP006516

>  <CONTRIBUTOR>  (3513) 
University of Tokyo Team, {Faculty of Engineering, University of Tokyo

>  <COMMENT>  (3513) 
SMILES=CCCCC(=O)OCc(c1)occ1
InChI=InChI=1S/C10H14O3/c1-2-3-6-10(11)13-8-9-5-4-7-12-9/h4-5,7H,2-3,6,8H2,1H3
computed SMILES=O=C(OCC=1OC=CC1)CCCC
accession=JP006516
date=2016.01.19 (Created 2008.10.21, modified 2011.05.06)
author=HISAHIRO HAGIWARA, CHEMICAL RESEARCH INSTITUTE OF NON-AQUEOUSSOLUTIONS TOHOKU UNIV.
license=CC BY-NC-SA
exact mass=182.09429
ionization energy=70 eV
ion type=[M]+*
computed spectral entropy=2.4450922532251496
computed normalized entropy=0.7693677903994003
SPLASH=splash10-001i-9000000000-365968241922b1cc5499
submitter=submitter = University of Tokyo Team (Faculty of Engineering, University of Tokyo)
MoNA Rating=3.75

>  <NUM PEAKS>  (3513) 
24

>  <MASS SPECTRAL PEAKS>  (3513) 
26 1.68
27 17.7
29 12.55
38 1.52
39 9.96
41 11.76
42 2.58
43 1.39
50 1.72
51 3.29
52 16.46
53 18.94
55 2.58
57 14.22
69 1.08
80 10.49
81 99.99
82 7.07
85 9.18
95 1.58
97 3.04
98 23.26
99 1.04
182 9.42

>  <PREDICTED SPECTRUM>  (3513) 
25 0
26 58
27 168
28 100
29 238
31 27
32 4
37 34
38 50
39 207
40 86
41 328
42 88
43 181
44 59
50 73
51 127
52 154
53 350
54 135
55 185
56 27
57 407
59 59
60 14
63 21
64 23
65 114
66 85
67 129
68 239
69 218
70 26
72 28
79 125
80 176
81 999
82 133
83 19
85 491
86 62
94 55
97 105
98 133
124 3
125 127
182 103
183 12

$$$$

     RDKit          2D

 14 14  0  0  0  0  0  0  0  0999 V2000
   -9.1140   -0.8143    0.0000 C   0  0  0  0  0  0  0  0  0  0  0  0
    2.6027    1.4936    0.0000 C   0  0  0  0  0  0  0  0  0  0  0  0
   -7.8088   -1.5536    0.0000 C   0  0  0  0  0  0  0  0  0  0  0  0
   -6.5160   -0.7929    0.0000 C   0  0  0  0  0  0  0  0  0  0  0  0
   -5.2108   -1.5321    0.0000 C   0  0  0  0  0  0  0  0  0  0  0  0
    1.3000   -0.7500    0.0000 C   0  0  0  0  0  0  0  0  0  0  0  0
    0.0300    1.5000    0.0000 C   0  0  0  0  0  0  0  0  0  0  0  0
    0.0300   -1.5000    0.0000 C   0  0  0  0  0  0  0  0  0  0  0  0
   -1.3200    0.7500    0.0000 C   0  0  0  0  0  0  0  0  0  0  0  0
    1.3000    0.7500    0.0000 C   0  0  0  0  0  0  0  0  0  0  0  0
   -1.3200   -0.7500    0.0000 C   0  0  0  0  0  0  0  0  0  0  0  0
   -3.9180   -0.7714    0.0000 C   0  0  0  0  0  0  0  0  0  0  0  0
   -3.9304    0.7285    0.0000 O   0  0  0  0  0  0  0  0  0  0  0  0
   -2.6128   -1.5107    0.0000 O   0  0  0  0  0  0  0  0  0  0  0  0
  3  1  1  0
  4  3  1  0
  5  4  1  0
  8  6  2  0
  9  7  1  0
 10  2  1  0
 10  6  1  0
 10  7  2  0
 11  8  1  0
 11  9  2  0
 12  5  1  0
 13 12  2  0
 14 11  1  0
 14 12  1  0
M  END
>  <NAME>  (3514) 
P-CRESYL VALERATE

>  <SYNONYMS>  (3514) 
4-METHYLPHENYL PENTANOATE

>  <SPECTRUM TYPE>  (3514) 
MS1

>  <INSTRUMENT TYPE>  (3514) 
EI-B

>  <INSTRUMENT>  (3514) 
HITACHI M-80B

>  <ION MODE>  (3514) 
P

>  <INCHIKEY>  (3514) 
XDIFYXKFWPNGRV-UHFFFAOYSA-N

>  <FORMULA>  (3514) 
C12H16O2

>  <EXACT MASS>  (3514) 
192.115029752

>  <MW>  (3514) 
192

>  <ID>  (3514) 
JP006515

>  <CONTRIBUTOR>  (3514) 
University of Tokyo Team, {Faculty of Engineering, University of Tokyo

>  <COMMENT>  (3514) 
SMILES=CCCCC(=O)Oc(c1)ccc(C)c1
InChI=InChI=1S/C12H16O2/c1-3-4-5-12(13)14-11-8-6-10(2)7-9-11/h6-9H,3-5H2,1-2H3
computed SMILES=O=C(OC1=CC=C(C=C1)C)CCCC
accession=JP006515
date=2016.01.19 (Created 2008.10.21, modified 2011.05.06)
author=HISAHIRO HAGIWARA, CHEMICAL RESEARCH INSTITUTE OF NON-AQUEOUSSOLUTIONS TOHOKU UNIV.
license=CC BY-NC-SA
exact mass=192.11503
ionization energy=70 eV
ion type=[M]+*
computed spectral entropy=2.3010283735834234
computed normalized entropy=0.7062492921037724
SPLASH=splash10-0a4i-7900000000-14c1b3524aa3fc85560e
submitter=submitter = University of Tokyo Team (Faculty of Engineering, University of Tokyo)
MoNA Rating=3.75

>  <NUM PEAKS>  (3514) 
26

>  <MASS SPECTRAL PEAKS>  (3514) 
27 6.61
29 10.89
32 1.46
39 5.12
41 9.59
42 1.43
50 1.28
51 3.16
52 2.24
53 2.65
55 3.79
57 24.65
58 1.14
63 1.19
65 2.32
77 7.74
78 2.86
79 3.34
80 1.8
85 6.88
90 1.55
91 3.36
107 13.41
108 99.99
109 7.31
192 4.64

>  <PREDICTED SPECTRUM>  (3514) 
26 29
27 163
28 67
29 219
39 174
40 21
41 249
42 93
43 138
50 24
51 101
52 74
53 131
54 50
55 280
56 67
57 463
58 88
63 51
64 49
65 139
66 40
67 6
77 206
78 166
79 122
80 89
84 42
85 407
86 45
89 12
90 76
91 179
92 65
107 320
108 999
109 306
192 274
193 98

$$$$

     RDKit          2D

 14 14  0  0  0  0  0  0  0  0999 V2000
   -7.4692    4.2571    0.0000 C   0  0  0  0  0  0  0  0  0  0  0  0
   -6.1702    3.5071    0.0000 C   0  0  0  0  0  0  0  0  0  0  0  0
   -4.8712    4.2571    0.0000 C   0  0  0  0  0  0  0  0  0  0  0  0
    4.2221    2.0071    0.0000 C   0  0  0  0  0  0  0  0  0  0  0  0
    4.2226    3.5079    0.0000 C   0  0  0  0  0  0  0  0  0  0  0  0
    2.9226    1.2563    0.0000 C   0  0  0  0  0  0  0  0  0  0  0  0
    2.9236    4.2579    0.0000 C   0  0  0  0  0  0  0  0  0  0  0  0
    1.6236    2.0063    0.0000 C   0  0  0  0  0  0  0  0  0  0  0  0
   -3.5721    3.5071    0.0000 C   0  0  0  0  0  0  0  0  0  0  0  0
    0.3250    4.2571    0.0000 C   0  0  0  0  0  0  0  0  0  0  0  0
    1.6240    3.5071    0.0000 C   0  0  0  0  0  0  0  0  0  0  0  0
   -2.2731    4.2571    0.0000 C   0  0  0  0  0  0  0  0  0  0  0  0
   -2.2731    5.7571    0.0000 O   0  0  0  0  0  0  0  0  0  0  0  0
   -0.9740    3.5071    0.0000 O   0  0  0  0  0  0  0  0  0  0  0  0
  2  1  1  0
  3  2  1  0
  5  4  2  0
  6  4  1  0
  7  5  1  0
  8  6  2  0
  9  3  1  0
 11  7  2  0
 11  8  1  0
 11 10  1  0
 12  9  1  0
 13 12  2  0
 14 10  1  0
 14 12  1  0
M  END
>  <NAME>  (3515) 
BENZYL PENTANOATE

>  <SYNONYMS>  (3515) 
BENZYL VALERATE

>  <SPECTRUM TYPE>  (3515) 
MS1

>  <INSTRUMENT TYPE>  (3515) 
EI-B

>  <INSTRUMENT>  (3515) 
HITACHI M-80B

>  <ION MODE>  (3515) 
P

>  <INCHIKEY>  (3515) 
YZJCDVRXBOPXSQ-UHFFFAOYSA-N

>  <FORMULA>  (3515) 
C12H16O2

>  <EXACT MASS>  (3515) 
192.115029752

>  <MW>  (3515) 
192

>  <ID>  (3515) 
JP006514

>  <CONTRIBUTOR>  (3515) 
University of Tokyo Team, {Faculty of Engineering, University of Tokyo

>  <COMMENT>  (3515) 
SMILES=CCCCC(=O)OCc(c1)cccc1
InChI=InChI=1S/C12H16O2/c1-2-3-9-12(13)14-10-11-7-5-4-6-8-11/h4-8H,2-3,9-10H2,1H3
computed SMILES=O=C(OCC=1C=CC=CC1)CCCC
accession=JP006514
date=2016.01.19 (Created 2008.10.21, modified 2011.05.06)
author=HISAHIRO HAGIWARA, CHEMICAL RESEARCH INSTITUTE OF NON-AQUEOUSSOLUTIONS TOHOKU UNIV.
license=CC BY-NC-SA
exact mass=192.11503
ionization energy=70 eV
ion type=[M]+*
computed spectral entropy=2.68324335246469
computed normalized entropy=0.774220375619817
SPLASH=splash10-052f-9200000000-6e5426032af29fb6de7c
submitter=submitter = University of Tokyo Team (Faculty of Engineering, University of Tokyo)
MoNA Rating=3.75

>  <NUM PEAKS>  (3515) 
32

>  <MASS SPECTRAL PEAKS>  (3515) 
27 5.71
29 6.6
39 11.21
41 14.75
42 3.12
43 6.17
50 1.58
51 6.21
52 1.45
55 1.45
57 27.1
58 1.21
59 3.2
63 3.2
64 1.03
65 12.92
69 1.19
77 8.54
78 2.29
79 7
85 20.71
86 1.03
89 4.29
90 10.45
91 99.99
92 12.03
105 2.66
107 5.5
108 57.98
109 4.81
192 14.57
193 1.77

>  <PREDICTED SPECTRUM>  (3515) 
26 47
27 184
28 69
29 165
38 42
39 236
40 93
41 401
42 186
43 308
44 100
49 1
50 131
51 213
52 137
53 118
54 46
55 176
56 154
57 399
58 136
59 3
62 68
63 158
64 85
65 355
66 96
67 52
69 10
73 18
74 85
75 51
76 13
77 265
78 140
79 288
80 89
83 59
84 129
85 411
86 117
89 211
90 308
91 999
92 388
93 72
101 83
102 55
105 107
106 16
107 514
108 821
109 172
150 168
192 363
193 146
194 39

$$$$

     RDKit          2D

 17 17  0  0  0  0  0  0  0  0999 V2000
   -1.5900    0.1712    0.0000 C   0  0  0  0  0  0  0  0  0  0  0  0
    8.8033    3.1700    0.0000 C   0  0  0  0  0  0  0  0  0  0  0  0
    6.2052    3.1700    0.0000 C   0  0  0  0  0  0  0  0  0  0  0  0
    7.5042   -3.5800    0.0000 C   0  0  0  0  0  0  0  0  0  0  0  0
   -0.2908    0.9210    0.0000 C   0  0  0  0  0  0  0  0  0  0  0  0
    1.0081    0.1708    0.0000 C   0  0  0  0  0  0  0  0  0  0  0  0
    2.3072    0.9206    0.0000 C   0  0  0  0  0  0  0  0  0  0  0  0
    8.8042   -1.3300    0.0000 C   0  0  0  0  0  0  0  0  0  0  0  0
    8.8042    0.1700    0.0000 C   0  0  0  0  0  0  0  0  0  0  0  0
    6.2042   -1.3300    0.0000 C   0  0  0  0  0  0  0  0  0  0  0  0
    7.5042    2.4200    0.0000 C   0  0  0  0  0  0  0  0  0  0  0  0
    7.5042   -2.0800    0.0000 C   0  0  0  0  0  0  0  0  0  0  0  0
    7.5042    0.9200    0.0000 C   0  0  0  0  0  0  0  0  0  0  0  0
    6.2042    0.1700    0.0000 C   0  0  0  0  0  0  0  0  0  0  0  0
    3.6062    0.1704    0.0000 C   0  0  0  0  0  0  0  0  0  0  0  0
    3.6059   -1.3296    0.0000 O   0  0  0  0  0  0  0  0  0  0  0  0
    4.9053    0.9202    0.0000 O   0  0  0  0  0  0  0  0  0  0  0  0
  5  1  1  0
  6  5  1  0
  7  6  1  0
  9  8  1  0
 11  2  1  0
 11  3  1  0
 12  4  1  0
 12  8  1  0
 12 10  1  0
 13  9  1  0
 13 11  1  0
 14 10  1  0
 14 13  1  0
 15  7  1  0
 16 15  2  0
 17 14  1  0
 17 15  1  0
M  END
>  <NAME>  (3516) 
MENTHYL PENTANOATE

>  <SYNONYMS>  (3516) 
MENTHYL VALERATE

>  <SPECTRUM TYPE>  (3516) 
MS1

>  <INSTRUMENT TYPE>  (3516) 
EI-B

>  <INSTRUMENT>  (3516) 
HITACHI M-80B

>  <ION MODE>  (3516) 
P

>  <INCHIKEY>  (3516) 
LCJPVSLESAPYMK-UHFFFAOYSA-N

>  <FORMULA>  (3516) 
C15H28O2

>  <EXACT MASS>  (3516) 
240.208930136

>  <MW>  (3516) 
240

>  <ID>  (3516) 
JP006513

>  <CONTRIBUTOR>  (3516) 
University of Tokyo Team, {Faculty of Engineering, University of Tokyo

>  <COMMENT>  (3516) 
SMILES=CCCCC(=O)OC(C1)C(CCC(C)1)C(C)C
InChI=InChI=1S/C15H28O2/c1-5-6-7-15(16)17-14-10-12(4)8-9-13(14)11(2)3/h11-14H,5-10H2,1-4H3
computed SMILES=O=C(OC1CC(C)CCC1C(C)C)CCCC
accession=JP006513
date=2016.01.19 (Created 2008.10.21, modified 2011.05.06)
author=HISAHIRO HAGIWARA, CHEMICAL RESEARCH INSTITUTE OF NON-AQUEOUSSOLUTIONS TOHOKU UNIV.
license=CC BY-NC-SA
exact mass=240.20893
ionization energy=70 eV
ion type=[M]+*
computed spectral entropy=3.403978014926014
computed normalized entropy=0.8313853324251226
SPLASH=splash10-053j-9100000000-d7faa622bb6a68046ea2
submitter=submitter = University of Tokyo Team (Faculty of Engineering, University of Tokyo)
MoNA Rating=3.75

>  <NUM PEAKS>  (3516) 
60

>  <MASS SPECTRAL PEAKS>  (3516) 
15 2.35
18 7.4
27 15.39
28 16.79
29 20.84
30 1.12
40 8.16
41 44.19
42 6.91
43 22.22
44 2.54
45 1.81
51 3.32
53 9.21
54 6.84
55 37.69
56 8.11
57 61.61
58 3.94
59 2.37
60 2.67
65 3.47
66 1.46
67 24.86
68 10.33
69 17.77
70 3.21
71 4.94
77 5.44
78 1.12
79 8.33
80 8.16
81 63.37
82 23.03
83 24.87
84 3.62
85 63.71
86 4.49
91 3.66
93 4.14
94 11.07
95 99.99
96 22.4
97 6.22
98 1.08
100 1.08
103 3.81
109 7.95
110 5.03
111 2.59
112 1.4
123 29
124 3.9
127 1.1
137 3.65
138 63.76
139 11.63
140 1.07
142 1.01
155 1.03

>  <PREDICTED SPECTRUM>  (3516) 
26 62
27 277
28 126
29 373
30 2
31 13
39 276
40 98
41 643
42 228
43 481
44 83
51 45
52 39
53 220
54 276
55 655
56 359
57 959
58 153
59 7
63 13
65 156
66 132
67 546
68 266
69 477
70 157
71 354
77 217
78 41
79 285
80 322
81 871
82 542
83 689
84 212
85 682
86 101
87 113
91 85
93 211
94 283
95 982
96 544
97 271
98 112
103 270
105 0
107 69
109 353
110 233
113 4
121 4
123 646
124 183
128 25
137 177
138 999
139 556
140 174
155 147
156 61

$$$$

     RDKit          2D

 17 16  0  0  0  0  0  0  0  0999 V2000
    4.2219    7.6875    0.0000 C   0  0  0  0  0  0  0  0  0  0  0  0
  -12.6656    8.4375    0.0000 C   0  0  0  0  0  0  0  0  0  0  0  0
  -11.3666    6.1875    0.0000 C   0  0  0  0  0  0  0  0  0  0  0  0
   -6.1704    6.1875    0.0000 C   0  0  0  0  0  0  0  0  0  0  0  0
    2.9228    8.4375    0.0000 C   0  0  0  0  0  0  0  0  0  0  0  0
    1.6238    7.6875    0.0000 C   0  0  0  0  0  0  0  0  0  0  0  0
   -8.7685    7.6875    0.0000 C   0  0  0  0  0  0  0  0  0  0  0  0
  -10.0675    8.4375    0.0000 C   0  0  0  0  0  0  0  0  0  0  0  0
   -7.4695    8.4375    0.0000 C   0  0  0  0  0  0  0  0  0  0  0  0
    0.3248    8.4375    0.0000 C   0  0  0  0  0  0  0  0  0  0  0  0
   -4.8714    8.4375    0.0000 C   0  0  0  0  0  0  0  0  0  0  0  0
   -3.5724    7.6875    0.0000 C   0  0  0  0  0  0  0  0  0  0  0  0
  -11.3666    7.6875    0.0000 C   0  0  0  0  0  0  0  0  0  0  0  0
   -6.1704    7.6875    0.0000 C   0  0  0  0  0  0  0  0  0  0  0  0
   -0.9743    7.6875    0.0000 C   0  0  0  0  0  0  0  0  0  0  0  0
   -0.9743    6.1875    0.0000 O   0  0  0  0  0  0  0  0  0  0  0  0
   -2.2733    8.4375    0.0000 O   0  0  0  0  0  0  0  0  0  0  0  0
  5  1  1  0
  6  5  1  0
  8  7  1  0
  9  7  1  0
 10  6  1  0
 12 11  1  0
 13  2  1  0
 13  3  1  0
 13  8  2  0
 14  4  1  0
 14  9  1  0
 14 11  1  0
 15 10  1  0
 16 15  2  0
 17 12  1  0
 17 15  1  0
M  END
>  <NAME>  (3517) 
CITRONELLYL VALERATE

>  <SYNONYMS>  (3517) 
3,7-DIMETHYL-6-OCTENYL PENTANOATE

>  <SPECTRUM TYPE>  (3517) 
MS1

>  <INSTRUMENT TYPE>  (3517) 
EI-B

>  <INSTRUMENT>  (3517) 
HITACHI M-80B

>  <ION MODE>  (3517) 
P

>  <INCHIKEY>  (3517) 
PFOJEJPZUVQHEH-UHFFFAOYSA-N

>  <FORMULA>  (3517) 
C15H28O2

>  <EXACT MASS>  (3517) 
240.208930136

>  <MW>  (3517) 
240

>  <ID>  (3517) 
JP006512

>  <CONTRIBUTOR>  (3517) 
University of Tokyo Team, {Faculty of Engineering, University of Tokyo

>  <COMMENT>  (3517) 
SMILES=CCCCC(=O)OCCC(C)CCC=C(C)C
InChI=InChI=1S/C15H28O2/c1-5-6-10-15(16)17-12-11-14(4)9-7-8-13(2)3/h8,14H,5-7,9-12H2,1-4H3
computed SMILES=O=C(OCCC(C)CCC=C(C)C)CCCC
accession=JP006512
date=2016.01.19 (Created 2008.10.21, modified 2011.05.06)
author=HISAHIRO HAGIWARA, CHEMICAL RESEARCH INSTITUTE OF NON-AQUEOUSSOLUTIONS TOHOKU UNIV.
license=CC BY-NC-SA
exact mass=240.20893
ionization energy=70 eV
ion type=[M]+*
computed spectral entropy=3.4305478569792234
computed normalized entropy=0.7995758738744766
SPLASH=splash10-05o3-9100000000-3dede51a691444e8a0a7
submitter=submitter = University of Tokyo Team (Faculty of Engineering, University of Tokyo)
MoNA Rating=3.75

>  <NUM PEAKS>  (3517) 
73

>  <MASS SPECTRAL PEAKS>  (3517) 
14 1.24
15 1.18
17 2
18 8.98
26 1.23
27 14.04
28 13.1
29 29.59
30 1.23
31 2.59
32 2.38
39 9.51
41 99.99
42 9.24
43 12.11
44 1.86
45 1.95
50 1.14
51 2.5
52 1.46
53 10.39
54 3.79
55 49.46
56 12.22
57 49.21
58 2.16
59 1.35
60 2.72
63 1.09
65 2.78
66 1.76
67 39.56
68 21.89
69 74.57
70 7.44
71 2.62
73 1.68
77 3.61
78 1.18
79 5.49
80 5.72
81 74.55
82 56.98
83 11.39
84 2.03
85 28.85
86 1.7
91 4.39
92 1.21
93 5.27
94 5.28
95 61.93
96 12.23
97 3.39
98 1.15
103 3.38
105 1.8
107 2.57
108 1.82
109 19.41
110 5.25
111 2.3
119 2.11
121 5.12
122 1.2
123 48.59
124 4.47
134 1.38
136 1.47
137 3.59
138 18.92
139 2.71
152 2.25

>  <PREDICTED SPECTRUM>  (3517) 
26 52
27 214
28 69
29 371
30 54
31 89
38 17
39 357
40 140
41 753
42 245
43 452
44 104
45 11
50 39
51 88
52 33
53 251
54 159
55 622
56 329
57 652
58 41
59 11
60 87
61 13
63 15
65 199
66 126
67 644
68 428
69 861
70 265
71 92
73 26
77 211
78 27
79 250
80 310
81 999
82 816
83 492
84 77
85 345
86 64
87 75
91 99
92 5
93 195
94 293
95 978
96 522
97 45
98 48
103 103
107 67
108 25
109 600
110 305
111 41
121 11
123 899
124 258
137 46
138 725
139 219
140 42

$$$$

     RDKit          2D

 17 16  0  0  0  0  0  0  0  0999 V2000
    4.2219    6.1875    0.0000 C   0  0  0  0  0  0  0  0  0  0  0  0
    2.9228    8.4375    0.0000 C   0  0  0  0  0  0  0  0  0  0  0  0
  -11.3666    6.1875    0.0000 C   0  0  0  0  0  0  0  0  0  0  0  0
  -10.0675    8.4375    0.0000 C   0  0  0  0  0  0  0  0  0  0  0  0
   -2.2733    8.4375    0.0000 C   0  0  0  0  0  0  0  0  0  0  0  0
    0.3248    6.9375    0.0000 C   0  0  0  0  0  0  0  0  0  0  0  0
    1.6238    6.1875    0.0000 C   0  0  0  0  0  0  0  0  0  0  0  0
   -0.9743    6.1875    0.0000 C   0  0  0  0  0  0  0  0  0  0  0  0
   -3.5724    6.1875    0.0000 C   0  0  0  0  0  0  0  0  0  0  0  0
   -4.8714    6.9375    0.0000 C   0  0  0  0  0  0  0  0  0  0  0  0
   -8.7685    6.1875    0.0000 C   0  0  0  0  0  0  0  0  0  0  0  0
    2.9228    6.9375    0.0000 C   0  0  0  0  0  0  0  0  0  0  0  0
  -10.0675    6.9375    0.0000 C   0  0  0  0  0  0  0  0  0  0  0  0
   -2.2733    6.9375    0.0000 C   0  0  0  0  0  0  0  0  0  0  0  0
   -7.4695    6.9375    0.0000 C   0  0  0  0  0  0  0  0  0  0  0  0
   -7.4695    8.4375    0.0000 O   0  0  0  0  0  0  0  0  0  0  0  0
   -6.1704    6.1875    0.0000 O   0  0  0  0  0  0  0  0  0  0  0  0
  7  6  1  0
  8  6  1  0
 10  9  1  0
 12  1  1  0
 12  2  1  0
 12  7  2  0
 13  3  1  0
 13  4  1  0
 13 11  1  0
 14  5  1  0
 14  8  1  0
  9 14  2  0
 15 11  1  0
 16 15  2  0
 17 10  1  0
 17 15  1  0
M  END
>  <NAME>  (3518) 
GERANYL ISOVALERATE

>  <SYNONYMS>  (3518) 
3,7-DIMETHYL-2,6-OCTADIENYL ISOPENTANOATE

>  <SPECTRUM TYPE>  (3518) 
MS1

>  <INSTRUMENT TYPE>  (3518) 
EI-B

>  <INSTRUMENT>  (3518) 
HITACHI M-80B

>  <ION MODE>  (3518) 
P

>  <INCHIKEY>  (3518) 
SOUKTGNMIRUIQN-NTEUORMPSA-N

>  <FORMULA>  (3518) 
C15H26O2

>  <EXACT MASS>  (3518) 
238.193280072

>  <MW>  (3518) 
238

>  <ID>  (3518) 
JP006511

>  <CONTRIBUTOR>  (3518) 
University of Tokyo Team, {Faculty of Engineering, University of Tokyo

>  <COMMENT>  (3518) 
SMILES=CC(C)=CCCC(C)=CCOC(=O)CC(C)C
InChI=InChI=1S/C15H26O2/c1-12(2)7-6-8-14(5)9-10-17-15(16)11-13(3)4/h7,9,13H,6,8,10-11H2,1-5H3/b14-9+
computed SMILES=O=C(OCC=C(C)CCC=C(C)C)CC(C)C
accession=JP006511
date=2016.01.19 (Created 2008.10.21, modified 2011.05.06)
author=HISAHIRO HAGIWARA, CHEMICAL RESEARCH INSTITUTE OF NON-AQUEOUSSOLUTIONS TOHOKU UNIV.
license=CC BY-NC-SA
exact mass=238.19328
ionization energy=70 eV
ion type=[M]+*
computed spectral entropy=3.141902779222733
computed normalized entropy=0.7990951463037637
SPLASH=splash10-00kf-9000000000-c2003dcea4526ac97837
submitter=submitter = University of Tokyo Team (Faculty of Engineering, University of Tokyo)
MoNA Rating=3.75

>  <NUM PEAKS>  (3518) 
51

>  <MASS SPECTRAL PEAKS>  (3518) 
17 1.08
18 3.45
26 1.02
27 23.52
29 13.69
38 1.4
39 31.48
40 1.92
41 98.14
42 4.63
43 12.43
50 2.15
51 6.59
52 3.23
53 20.75
54 2.18
55 8.43
56 1.38
57 18.19
58 1.02
60 1.71
63 2.07
65 5.49
66 2.92
67 17.45
68 31.41
69 92.87
70 4.03
77 18.42
78 2.98
79 22.11
80 22.37
81 6.94
82 1.87
85 18.46
91 22.48
92 19.49
93 99.99
94 11.42
95 2.61
103 1.09
105 5.16
106 1.83
107 5.67
108 1.33
119 2.06
121 18.05
122 1.41
123 1.15
136 11.68
137 1.71

>  <PREDICTED SPECTRUM>  (3518) 
26 19
27 156
28 72
29 206
31 18
37 11
38 27
39 215
40 113
41 659
42 186
43 300
44 114
45 20
50 42
51 41
52 69
53 242
54 65
55 236
56 155
57 464
58 89
59 34
60 69
62 5
63 51
64 34
65 139
66 59
67 319
68 615
69 999
70 243
71 4
72 69
77 147
78 44
79 200
80 512
81 442
82 88
83 93
84 51
85 351
86 56
91 176
92 356
93 749
94 306
95 132
96 22
97 2
101 29
103 39
105 65
107 227
108 84
109 35
111 9
119 10
121 480
122 135
123 80
136 426
137 221
138 20
153 4
154 107
169 28

$$$$

     RDKit          2D

 17 18  0  0  0  0  0  0  0  0999 V2000
   11.5292    0.3282    0.0000 C   0  0  0  0  0  0  0  0  0  0  0  0
   -0.6759    1.4813    0.0000 C   0  0  0  0  0  0  0  0  0  0  0  0
   -0.6759   -2.3013    0.0000 C   0  0  0  0  0  0  0  0  0  0  0  0
    2.4475    2.5900    0.0000 C   0  0  0  0  0  0  0  0  0  0  0  0
   10.2313    1.0802    0.0000 C   0  0  0  0  0  0  0  0  0  0  0  0
    8.9311    0.3321    0.0000 C   0  0  0  0  0  0  0  0  0  0  0  0
    7.6332    1.0841    0.0000 C   0  0  0  0  0  0  0  0  0  0  0  0
    1.1450   -1.1600    0.0000 C   0  0  0  0  0  0  0  0  0  0  0  0
    1.1450    0.3400    0.0000 C   0  0  0  0  0  0  0  0  0  0  0  0
    3.7350   -1.1600    0.0000 C   0  0  0  0  0  0  0  0  0  0  0  0
    2.4450   -1.9100    0.0000 C   0  0  0  0  0  0  0  0  0  0  0  0
    3.7350    0.3400    0.0000 C   0  0  0  0  0  0  0  0  0  0  0  0
    6.3331    0.3361    0.0000 C   0  0  0  0  0  0  0  0  0  0  0  0
    1.5750   -0.4100    0.0000 C   0  0  0  0  0  0  0  0  0  0  0  0
    2.4450    1.0900    0.0000 C   0  0  0  0  0  0  0  0  0  0  0  0
    6.3308   -1.1639    0.0000 O   0  0  0  0  0  0  0  0  0  0  0  0
    5.0352    1.0880    0.0000 O   0  0  0  0  0  0  0  0  0  0  0  0
  5  1  1  0
  6  5  1  0
  7  6  1  0
  9  8  1  0
 11  8  1  0
 11 10  1  0
 12 10  1  0
 13  7  1  0
 14  2  1  0
 14  3  1  0
 14 11  1  0
 15  4  1  0
 15  9  1  0
 15 12  1  0
 15 14  1  0
 16 13  2  0
 17 12  1  0
 17 13  1  0
M  END
>  <NAME>  (3519) 
BORNYL PENTANOATE

>  <SYNONYMS>  (3519) 
BORNYL VALERATE

>  <SPECTRUM TYPE>  (3519) 
MS1

>  <INSTRUMENT TYPE>  (3519) 
EI-B

>  <INSTRUMENT>  (3519) 
HITACHI M-80B

>  <ION MODE>  (3519) 
P

>  <INCHIKEY>  (3519) 
ILUAVCBOWYHFAI-UHFFFAOYSA-N

>  <FORMULA>  (3519) 
C15H26O2

>  <EXACT MASS>  (3519) 
238.193280072

>  <MW>  (3519) 
238

>  <ID>  (3519) 
JP006510

>  <CONTRIBUTOR>  (3519) 
University of Tokyo Team, {Faculty of Engineering, University of Tokyo

>  <COMMENT>  (3519) 
SMILES=CCCCC(=O)OC(C1)C(C)(C2)C(C)(C)C(C2)1
InChI=InChI=1S/C15H26O2/c1-5-6-7-13(16)17-12-10-11-8-9-15(12,4)14(11,2)3/h11-12H,5-10H2,1-4H3
computed SMILES=O=C(OC1CC2CCC1(C)C2(C)C)CCCC
accession=JP006510
date=2016.01.19 (Created 2008.10.21, modified 2011.05.06)
author=HISAHIRO HAGIWARA, CHEMICAL RESEARCH INSTITUTE OF NON-AQUEOUSSOLUTIONS TOHOKU UNIV.
license=CC BY-NC-SA
exact mass=238.19328
ionization energy=70 eV
ion type=[M]+*
computed spectral entropy=3.5944597134563145
computed normalized entropy=0.840481724180821
SPLASH=splash10-0a4u-9200000000-860b3b7bc0b14cb28ea4
submitter=submitter = University of Tokyo Team (Faculty of Engineering, University of Tokyo)
MoNA Rating=3.75

>  <NUM PEAKS>  (3519) 
72

>  <MASS SPECTRAL PEAKS>  (3519) 
14 3.91
15 1.17
18 3.17
27 15.82
28 8.34
29 15.94
39 6.9
41 69.06
42 9.06
43 25.66
44 2.3
45 2.44
50 2.09
51 4.03
52 2.92
53 12.27
54 3.29
55 23.18
56 3.79
57 99.99
58 4.48
59 1.51
60 3.03
63 1.06
65 5.88
66 3.57
67 20.37
68 10.37
69 22.99
70 2.94
71 1.54
72 1
77 12.48
78 3.43
79 16.02
80 17.08
81 26.55
82 6.49
83 9.51
84 2.43
85 88.73
86 4.68
87 1.03
91 12.62
92 12.99
93 52.23
94 11.6
95 75.65
96 6.52
97 3.13
105 4.35
106 1.15
107 11.14
108 32.06
109 32.35
110 16.22
111 4.59
119 2.3
121 31.91
122 4.45
123 1.77
125 1.86
135 3.98
136 37.13
137 15.2
138 2.21
152 3.31
153 4.45
154 7.26
155 1.25
238 8.16
239 2.44

>  <PREDICTED SPECTRUM>  (3519) 
25 18
26 67
27 289
28 78
29 403
30 6
31 22
34 1
36 39
37 5
38 49
39 396
40 199
41 818
42 259
43 534
44 150
45 43
50 63
51 150
52 146
53 345
54 122
55 569
56 218
57 899
58 211
59 107
60 98
63 85
64 93
65 286
66 172
67 555
68 403
69 723
70 175
71 106
72 60
74 71
75 28
77 471
78 182
79 477
80 481
81 768
82 268
83 326
84 144
85 844
86 168
87 68
91 483
92 480
93 953
94 419
95 999
96 313
97 50
98 20
101 93
103 74
105 247
106 11
107 492
108 935
109 780
110 338
111 204
112 97
113 80
119 74
121 796
122 293
123 12
125 116
126 135
127 65
128 101
129 31
131 32
135 92
136 981
137 592
138 68
139 92
153 152
154 399
155 57
238 361
239 162
240 27

$$$$

     RDKit          2D

 13 12  0  0  0  0  0  0  0  0999 V2000
    3.8971    6.0000    0.0000 C   0  0  0  0  0  0  0  0  0  0  0  0
  -10.3923    6.7500    0.0000 C   0  0  0  0  0  0  0  0  0  0  0  0
    2.5981    6.7500    0.0000 C   0  0  0  0  0  0  0  0  0  0  0  0
   -9.0933    6.0000    0.0000 C   0  0  0  0  0  0  0  0  0  0  0  0
    1.2990    6.0000    0.0000 C   0  0  0  0  0  0  0  0  0  0  0  0
   -7.7942    6.7500    0.0000 C   0  0  0  0  0  0  0  0  0  0  0  0
    0.0000    6.7500    0.0000 C   0  0  0  0  0  0  0  0  0  0  0  0
   -1.2990    6.0000    0.0000 C   0  0  0  0  0  0  0  0  0  0  0  0
   -6.4952    6.0000    0.0000 C   0  0  0  0  0  0  0  0  0  0  0  0
   -2.5981    6.7500    0.0000 C   0  0  0  0  0  0  0  0  0  0  0  0
   -5.1962    6.7500    0.0000 C   0  0  0  0  0  0  0  0  0  0  0  0
   -5.1962    8.2500    0.0000 O   0  0  0  0  0  0  0  0  0  0  0  0
   -3.8971    6.0000    0.0000 O   0  0  0  0  0  0  0  0  0  0  0  0
  3  1  1  0
  4  2  1  0
  5  3  1  0
  6  4  1  0
  7  5  1  0
  8  7  1  0
  9  6  1  0
 10  8  1  0
 11  9  1  0
 12 11  2  0
 13 10  1  0
 13 11  1  0
M  END
>  <NAME>  (3520) 
HEXYL PENTANOATE

>  <SYNONYMS>  (3520) 
HEXYL VALERATE

>  <SPECTRUM TYPE>  (3520) 
MS1

>  <INSTRUMENT TYPE>  (3520) 
EI-B

>  <INSTRUMENT>  (3520) 
HITACHI M-80B

>  <ION MODE>  (3520) 
P

>  <INCHIKEY>  (3520) 
YERFHJZYNMRVLO-UHFFFAOYSA-N

>  <FORMULA>  (3520) 
C11H22O2

>  <EXACT MASS>  (3520) 
186.161979944

>  <MW>  (3520) 
186

>  <ID>  (3520) 
JP006509

>  <CONTRIBUTOR>  (3520) 
University of Tokyo Team, {Faculty of Engineering, University of Tokyo

>  <COMMENT>  (3520) 
SMILES=CCCCCCOC(=O)CCCC
InChI=InChI=1S/C11H22O2/c1-3-5-7-8-10-13-11(12)9-6-4-2/h3-10H2,1-2H3
computed SMILES=O=C(OCCCCCC)CCCC
accession=JP006509
date=2016.01.19 (Created 2008.10.21, modified 2011.05.06)
author=HISAHIRO HAGIWARA, CHEMICAL RESEARCH INSTITUTE OF NON-AQUEOUSSOLUTIONS TOHOKU UNIV.
license=CC BY-NC-SA
exact mass=186.16198
ionization energy=70 eV
ion type=[M]+*
computed spectral entropy=2.8458147969005716
computed normalized entropy=0.7881139548853996
SPLASH=splash10-0a4u-9100000000-d5318a5a2bfb57ed8168
submitter=submitter = University of Tokyo Team (Faculty of Engineering, University of Tokyo)
MoNA Rating=3.75

>  <NUM PEAKS>  (3520) 
37

>  <MASS SPECTRAL PEAKS>  (3520) 
26 1.73
27 32.1
29 56.72
30 1.34
31 2.19
39 17.43
41 70.74
42 29.82
43 82.33
44 1.77
45 2.56
53 2.78
54 2.93
55 41.28
56 74.25
57 76.45
58 3.11
59 1.66
60 16
61 18.42
67 1.66
69 23.17
70 1.13
73 13.32
74 1.02
75 3.04
83 3.83
84 62.63
85 99.99
86 4.34
87 1.92
101 1.75
102 4.16
103 87.28
104 3.51
115 1.61
129 1.72

>  <PREDICTED SPECTRUM>  (3520) 
25 16
26 106
27 506
28 239
29 670
30 53
31 167
33 4
34 2
36 64
37 45
38 89
39 480
40 208
41 852
42 526
43 795
44 241
45 214
49 10
51 57
52 77
53 222
54 273
55 635
56 728
57 956
58 210
59 151
60 381
61 243
66 59
67 212
68 243
69 408
70 475
71 199
72 54
73 249
74 16
79 60
81 26
82 183
83 298
84 748
85 999
86 259
87 154
88 24
100 16
101 20
102 210
103 922
104 246
129 121

$$$$

     RDKit          2D

 13 12  0  0  0  0  0  0  0  0999 V2000
    3.8971    6.0000    0.0000 C   0  0  0  0  0  0  0  0  0  0  0  0
  -10.3923    6.7500    0.0000 C   0  0  0  0  0  0  0  0  0  0  0  0
    2.5981    6.7500    0.0000 C   0  0  0  0  0  0  0  0  0  0  0  0
   -9.0933    6.0000    0.0000 C   0  0  0  0  0  0  0  0  0  0  0  0
    1.2990    6.0000    0.0000 C   0  0  0  0  0  0  0  0  0  0  0  0
   -7.7942    6.7500    0.0000 C   0  0  0  0  0  0  0  0  0  0  0  0
    0.0000    6.7500    0.0000 C   0  0  0  0  0  0  0  0  0  0  0  0
   -1.2990    6.0000    0.0000 C   0  0  0  0  0  0  0  0  0  0  0  0
   -6.4952    6.0000    0.0000 C   0  0  0  0  0  0  0  0  0  0  0  0
   -2.5981    6.7500    0.0000 C   0  0  0  0  0  0  0  0  0  0  0  0
   -5.1962    6.7500    0.0000 C   0  0  0  0  0  0  0  0  0  0  0  0
   -5.1962    8.2500    0.0000 O   0  0  0  0  0  0  0  0  0  0  0  0
   -3.8971    6.0000    0.0000 O   0  0  0  0  0  0  0  0  0  0  0  0
  3  1  1  0
  4  2  1  0
  5  3  1  0
  6  4  1  0
  7  5  1  0
  7  8  2  0
  9  6  1  0
 10  8  1  0
 11  9  1  0
 12 11  2  0
 13 10  1  0
 13 11  1  0
M  END
>  <NAME>  (3521) 
TRANS-2-HEXENYL PENTANOATE

>  <SYNONYMS>  (3521) 
TRANS-2-HEXENYL VALERATE

>  <SPECTRUM TYPE>  (3521) 
MS1

>  <INSTRUMENT TYPE>  (3521) 
EI-B

>  <INSTRUMENT>  (3521) 
HITACHI M-80B

>  <ION MODE>  (3521) 
P

>  <INCHIKEY>  (3521) 
WDXAMNXWZLXISB-BQYQJAHWSA-N

>  <FORMULA>  (3521) 
C11H20O2

>  <EXACT MASS>  (3521) 
184.14632988

>  <MW>  (3521) 
184

>  <ID>  (3521) 
JP006508

>  <CONTRIBUTOR>  (3521) 
University of Tokyo Team, {Faculty of Engineering, University of Tokyo

>  <COMMENT>  (3521) 
SMILES=CCCC=CCOC(=O)CCCC
InChI=InChI=1S/C11H20O2/c1-3-5-7-8-10-13-11(12)9-6-4-2/h7-8H,3-6,9-10H2,1-2H3/b8-7+
computed SMILES=O=C(OCC=CCCC)CCCC
accession=JP006508
date=2016.01.19 (Created 2008.10.21, modified 2011.05.06)
author=HISAHIRO HAGIWARA, CHEMICAL RESEARCH INSTITUTE OF NON-AQUEOUSSOLUTIONS TOHOKU UNIV.
license=CC BY-NC-SA
exact mass=184.14633
ionization energy=70 eV
ion type=[M]+*
computed spectral entropy=2.642389734918574
computed normalized entropy=0.7624325133325859
SPLASH=splash10-052r-9000000000-171a784619598ba93d51
submitter=submitter = University of Tokyo Team (Faculty of Engineering, University of Tokyo)
MoNA Rating=3.75

>  <NUM PEAKS>  (3521) 
32

>  <MASS SPECTRAL PEAKS>  (3521) 
27 14.25
29 16.07
39 17.33
41 47.35
42 6.97
43 11.34
51 1.21
53 4.8
54 12.3
55 36.29
56 4.5
57 77.43
58 3.07
59 2.89
60 1.53
65 1.16
67 29.06
68 1.78
69 2.25
81 2.82
82 22.34
83 19.88
84 1.73
85 99.99
86 4.66
87 1.4
99 1.95
100 2.14
103 2.25
142 1.1
155 1.48
184 2

>  <PREDICTED SPECTRUM>  (3521) 
15 11
25 14
26 132
27 407
28 197
29 591
31 59
38 24
39 345
40 125
41 741
42 265
43 291
44 138
45 167
50 18
51 60
52 58
53 202
54 408
55 650
56 275
57 999
58 122
59 85
60 163
61 5
65 105
66 156
67 651
68 143
69 124
72 61
73 207
81 193
82 680
83 604
84 29
85 862
86 122
87 37
99 78
100 209
102 138
103 144
113 1
127 40
141 41
142 4
155 115
184 90

$$$$

     RDKit          2D

 13 12  0  0  0  0  0  0  0  0999 V2000
  -10.3923    6.7500    0.0000 C   0  0  0  0  0  0  0  0  0  0  0  0
    3.8971    6.0000    0.0000 C   0  0  0  0  0  0  0  0  0  0  0  0
   -9.0933    6.0000    0.0000 C   0  0  0  0  0  0  0  0  0  0  0  0
    2.5981    6.7500    0.0000 C   0  0  0  0  0  0  0  0  0  0  0  0
   -7.7942    6.7500    0.0000 C   0  0  0  0  0  0  0  0  0  0  0  0
   -6.4952    6.0000    0.0000 C   0  0  0  0  0  0  0  0  0  0  0  0
   -5.1962    6.7500    0.0000 C   0  0  0  0  0  0  0  0  0  0  0  0
   -3.8971    6.0000    0.0000 C   0  0  0  0  0  0  0  0  0  0  0  0
    1.2990    6.0000    0.0000 C   0  0  0  0  0  0  0  0  0  0  0  0
   -2.5981    6.7500    0.0000 C   0  0  0  0  0  0  0  0  0  0  0  0
    0.0000    6.7500    0.0000 C   0  0  0  0  0  0  0  0  0  0  0  0
    0.0000    8.2500    0.0000 O   0  0  0  0  0  0  0  0  0  0  0  0
   -1.2990    6.0000    0.0000 O   0  0  0  0  0  0  0  0  0  0  0  0
  3  1  1  0
  4  2  1  0
  5  3  1  0
  6  5  1  0
  7  6  1  0
  8  7  1  0
  9  4  1  0
 10  8  1  0
 11  9  1  0
 12 11  2  0
 13 10  1  0
 13 11  1  0
M  END
>  <NAME>  (3522) 
HEPTYL BUTYRATE

>  <SYNONYMS>  (3522) 


>  <SPECTRUM TYPE>  (3522) 
MS1

>  <INSTRUMENT TYPE>  (3522) 
EI-B

>  <INSTRUMENT>  (3522) 
HITACHI M-80B

>  <ION MODE>  (3522) 
P

>  <INCHIKEY>  (3522) 
JPQHLIYIQARLQM-UHFFFAOYSA-N

>  <FORMULA>  (3522) 
C11H22O2

>  <EXACT MASS>  (3522) 
186.161979944

>  <MW>  (3522) 
186

>  <ID>  (3522) 
JP006507

>  <CONTRIBUTOR>  (3522) 
University of Tokyo Team, {Faculty of Engineering, University of Tokyo

>  <COMMENT>  (3522) 
SMILES=CCCCCCCOC(=O)CCC
InChI=InChI=1S/C11H22O2/c1-3-5-6-7-8-10-13-11(12)9-4-2/h3-10H2,1-2H3
computed SMILES=O=C(OCCCCCCC)CCC
accession=JP006507
date=2016.01.19 (Created 2008.10.21, modified 2011.05.06)
author=HISAHIRO HAGIWARA, CHEMICAL RESEARCH INSTITUTE OF NON-AQUEOUSSOLUTIONS TOHOKU UNIV.
license=CC BY-NC-SA
exact mass=186.16198
ionization energy=70 eV
ion type=[M]+*
computed spectral entropy=2.902754109422095
computed normalized entropy=0.7979891010032973
SPLASH=splash10-0596-9000000000-ba06b6ffba8744b54335
submitter=submitter = University of Tokyo Team (Faculty of Engineering, University of Tokyo)
MoNA Rating=3.75

>  <NUM PEAKS>  (3522) 
38

>  <MASS SPECTRAL PEAKS>  (3522) 
15 1.22
26 1.35
27 31.17
28 4.74
29 31.32
31 1.89
39 15.33
40 2.79
41 59.96
42 27.7
43 99.99
44 3.66
45 1.92
53 2.37
54 4.31
55 34.95
56 57.34
57 45.33
58 2.33
60 6.65
61 4.78
67 1.69
68 5.99
69 25.69
70 45.74
71 94.43
72 4
73 4.46
83 4.61
86 1.29
88 5.31
89 72.78
90 3.54
97 2.86
98 31.66
99 2.34
101 2.6
113 1.17

>  <PREDICTED SPECTRUM>  (3522) 
26 68
27 346
28 164
29 400
31 124
36 8
38 19
39 308
40 141
41 705
42 494
43 999
44 197
45 97
53 82
54 170
55 597
56 683
57 567
58 81
60 239
61 187
66 5
67 146
68 248
69 463
70 788
71 895
72 209
73 190
74 19
81 47
82 105
83 193
84 93
86 60
87 43
88 336
89 929
90 232
95 5
96 135
97 169
98 410
99 189
100 53
101 11
103 43
115 113
117 79
143 94

$$$$

     RDKit          2D

 12 11  0  0  0  0  0  0  0  0999 V2000
    3.2476    4.8750    0.0000 C   0  0  0  0  0  0  0  0  0  0  0  0
   -8.4437    5.6250    0.0000 C   0  0  0  0  0  0  0  0  0  0  0  0
   -0.6495    7.1250    0.0000 C   0  0  0  0  0  0  0  0  0  0  0  0
    1.9486    5.6250    0.0000 C   0  0  0  0  0  0  0  0  0  0  0  0
   -7.1447    4.8750    0.0000 C   0  0  0  0  0  0  0  0  0  0  0  0
    0.6495    4.8750    0.0000 C   0  0  0  0  0  0  0  0  0  0  0  0
   -5.8457    5.6250    0.0000 C   0  0  0  0  0  0  0  0  0  0  0  0
   -1.9486    4.8750    0.0000 C   0  0  0  0  0  0  0  0  0  0  0  0
   -0.6495    5.6250    0.0000 C   0  0  0  0  0  0  0  0  0  0  0  0
   -4.5466    4.8750    0.0000 C   0  0  0  0  0  0  0  0  0  0  0  0
   -4.5466    3.3750    0.0000 O   0  0  0  0  0  0  0  0  0  0  0  0
   -3.2476    5.6250    0.0000 O   0  0  0  0  0  0  0  0  0  0  0  0
  4  1  1  0
  5  2  1  0
  6  4  1  0
  7  5  1  0
  9  3  1  0
  9  6  1  0
  9  8  1  0
 10  7  1  0
 11 10  2  0
 12  8  1  0
 12 10  1  0
M  END
>  <NAME>  (3523) 
2-METHYLPENTYL BUTYRATE

>  <SYNONYMS>  (3523) 


>  <SPECTRUM TYPE>  (3523) 
MS1

>  <INSTRUMENT TYPE>  (3523) 
EI-B

>  <INSTRUMENT>  (3523) 
HITACHI M-80B

>  <ION MODE>  (3523) 
P

>  <INCHIKEY>  (3523) 
DBEUZPOZVLFSAV-UHFFFAOYSA-N

>  <FORMULA>  (3523) 
C10H20O2

>  <EXACT MASS>  (3523) 
172.14632988

>  <MW>  (3523) 
172

>  <ID>  (3523) 
JP006506

>  <CONTRIBUTOR>  (3523) 
University of Tokyo Team, {Faculty of Engineering, University of Tokyo

>  <COMMENT>  (3523) 
SMILES=CCCC(C)COC(=O)CCC
InChI=InChI=1S/C10H20O2/c1-4-6-9(3)8-12-10(11)7-5-2/h9H,4-8H2,1-3H3
computed SMILES=O=C(OCC(C)CCC)CCC
accession=JP006506
date=2016.01.19 (Created 2008.10.21, modified 2011.05.06)
author=HISAHIRO HAGIWARA, CHEMICAL RESEARCH INSTITUTE OF NON-AQUEOUSSOLUTIONS TOHOKU UNIV.
license=CC BY-NC-SA
exact mass=172.14633
ionization energy=70 eV
ion type=[M]+*
computed spectral entropy=2.5471149212386117
computed normalized entropy=0.7728279720126372
SPLASH=splash10-006x-9000000000-70438e048a437759c295
submitter=submitter = University of Tokyo Team (Faculty of Engineering, University of Tokyo)
MoNA Rating=3.75

>  <NUM PEAKS>  (3523) 
27

>  <MASS SPECTRAL PEAKS>  (3523) 
27 15.98
29 9.87
39 8.92
40 1.43
41 26.22
42 10.88
43 68.7
44 2.14
45 1.3
53 1.06
55 10.33
56 36.86
57 4.1
60 3.31
69 10.99
70 2.16
71 99.99
72 5.02
73 1.89
83 1.63
84 30.75
85 9.17
87 1.71
88 3.8
89 9.32
100 5.59
101 5.9

>  <PREDICTED SPECTRUM>  (3523) 
25 12
26 96
27 334
28 136
29 333
31 141
36 16
38 22
39 256
40 87
41 562
42 419
43 999
44 168
45 228
51 6
52 33
53 116
54 96
55 395
56 546
57 292
58 21
59 69
60 227
67 58
68 70
69 403
70 173
71 967
72 255
73 125
74 85
84 842
85 403
86 75
87 148
88 231
89 383
90 137
99 21
100 50
101 171
102 121
114 0
115 177
116 0
129 32
157 13

$$$$

     RDKit          2D

 12 11  0  0  0  0  0  0  0  0999 V2000
    2.9228    3.9375    0.0000 C   0  0  0  0  0  0  0  0  0  0  0  0
   -7.4695    3.9375    0.0000 C   0  0  0  0  0  0  0  0  0  0  0  0
    0.3248    6.9375    0.0000 C   0  0  0  0  0  0  0  0  0  0  0  0
    1.6238    4.6875    0.0000 C   0  0  0  0  0  0  0  0  0  0  0  0
   -6.1704    4.6875    0.0000 C   0  0  0  0  0  0  0  0  0  0  0  0
   -0.9743    6.1875    0.0000 C   0  0  0  0  0  0  0  0  0  0  0  0
    0.3248    3.9375    0.0000 C   0  0  0  0  0  0  0  0  0  0  0  0
   -4.8714    3.9375    0.0000 C   0  0  0  0  0  0  0  0  0  0  0  0
   -0.9743    4.6875    0.0000 C   0  0  0  0  0  0  0  0  0  0  0  0
   -3.5724    4.6875    0.0000 C   0  0  0  0  0  0  0  0  0  0  0  0
   -3.5724    6.1875    0.0000 O   0  0  0  0  0  0  0  0  0  0  0  0
   -2.2733    3.9375    0.0000 O   0  0  0  0  0  0  0  0  0  0  0  0
  4  1  1  0
  5  2  1  0
  6  3  1  0
  7  4  1  0
  8  5  1  0
  9  6  1  0
  9  7  1  0
 10  8  1  0
 11 10  2  0
 12  9  1  0
 12 10  1  0
M  END
>  <NAME>  (3524) 
3-HEXYL BUTYRATE

>  <SYNONYMS>  (3524) 
1-ETHYLBUTYL BUTYRATE

>  <SPECTRUM TYPE>  (3524) 
MS1

>  <INSTRUMENT TYPE>  (3524) 
EI-B

>  <INSTRUMENT>  (3524) 
HITACHI M-80B

>  <ION MODE>  (3524) 
P

>  <INCHIKEY>  (3524) 
RCEHZMJZHHUGOL-UHFFFAOYSA-N

>  <FORMULA>  (3524) 
C10H20O2

>  <EXACT MASS>  (3524) 
172.14632988

>  <MW>  (3524) 
172

>  <ID>  (3524) 
JP006505

>  <CONTRIBUTOR>  (3524) 
University of Tokyo Team, {Faculty of Engineering, University of Tokyo

>  <COMMENT>  (3524) 
SMILES=CCCC(=O)OC(CC)CCC
InChI=InChI=1S/C10H20O2/c1-4-7-9(6-3)12-10(11)8-5-2/h9H,4-8H2,1-3H3
computed SMILES=O=C(OC(CC)CCC)CCC
accession=JP006505
date=2016.01.19 (Created 2008.10.21, modified 2011.05.06)
author=HISAHIRO HAGIWARA, CHEMICAL RESEARCH INSTITUTE OF NON-AQUEOUSSOLUTIONS TOHOKU UNIV.
license=CC BY-NC-SA
exact mass=172.14633
ionization energy=70 eV
ion type=[M]+*
computed spectral entropy=2.4047383444835893
computed normalized entropy=0.7470739709513501
SPLASH=splash10-00dl-9000000000-aa33a4957de9e0753119
submitter=submitter = University of Tokyo Team (Faculty of Engineering, University of Tokyo)
MoNA Rating=3.75

>  <NUM PEAKS>  (3524) 
25

>  <MASS SPECTRAL PEAKS>  (3524) 
27 13.55
28 2.2
29 8.81
31 1.2
39 5.85
41 17.25
42 8
43 53.48
44 2.08
55 9.22
56 8.32
57 3.9
59 1.27
60 2.21
69 4.62
71 99.99
72 5.16
73 1.62
84 12.77
85 8.34
88 3.98
89 7.43
101 1.48
129 5.01
143 3.8

>  <PREDICTED SPECTRUM>  (3524) 
15 0
26 76
27 310
28 73
29 232
31 118
39 279
40 67
41 431
42 306
43 925
44 140
45 103
53 97
54 44
55 358
56 252
57 61
58 36
59 100
60 127
65 7
69 214
70 61
71 999
72 310
73 241
74 36
84 296
85 389
86 67
87 5
88 156
89 222
100 41
101 108
115 49
129 183

$$$$

     RDKit          2D

 12 11  0  0  0  0  0  0  0  0999 V2000
   -8.4437    5.6250    0.0000 C   0  0  0  0  0  0  0  0  0  0  0  0
    3.2476    4.8750    0.0000 C   0  0  0  0  0  0  0  0  0  0  0  0
   -3.2476    7.1250    0.0000 C   0  0  0  0  0  0  0  0  0  0  0  0
   -7.1447    4.8750    0.0000 C   0  0  0  0  0  0  0  0  0  0  0  0
    1.9486    5.6250    0.0000 C   0  0  0  0  0  0  0  0  0  0  0  0
   -5.8457    5.6250    0.0000 C   0  0  0  0  0  0  0  0  0  0  0  0
    0.6495    4.8750    0.0000 C   0  0  0  0  0  0  0  0  0  0  0  0
   -4.5466    4.8750    0.0000 C   0  0  0  0  0  0  0  0  0  0  0  0
   -3.2476    5.6250    0.0000 C   0  0  0  0  0  0  0  0  0  0  0  0
   -0.6495    5.6250    0.0000 C   0  0  0  0  0  0  0  0  0  0  0  0
   -0.6495    7.1250    0.0000 O   0  0  0  0  0  0  0  0  0  0  0  0
   -1.9486    4.8750    0.0000 O   0  0  0  0  0  0  0  0  0  0  0  0
  4  1  1  0
  5  2  1  0
  6  4  1  0
  7  5  1  0
  8  6  1  0
  9  3  1  0
  9  8  1  0
 10  7  1  0
 11 10  2  0
 12  9  1  0
 12 10  1  0
M  END
>  <NAME>  (3525) 
2-HEXYL BUTYRATE

>  <SYNONYMS>  (3525) 
1-METHYLPENTYL BUTYRATE

>  <SPECTRUM TYPE>  (3525) 
MS1

>  <INSTRUMENT TYPE>  (3525) 
EI-B

>  <INSTRUMENT>  (3525) 
HITACHI M-80B

>  <ION MODE>  (3525) 
P

>  <INCHIKEY>  (3525) 
LRUMZDICEGQZIB-UHFFFAOYSA-N

>  <FORMULA>  (3525) 
C10H20O2

>  <EXACT MASS>  (3525) 
172.14632988

>  <MW>  (3525) 
172

>  <ID>  (3525) 
JP006504

>  <CONTRIBUTOR>  (3525) 
University of Tokyo Team, {Faculty of Engineering, University of Tokyo

>  <COMMENT>  (3525) 
SMILES=CCCCC(C)OC(=O)CCC
InChI=InChI=1S/C10H20O2/c1-4-6-8-9(3)12-10(11)7-5-2/h9H,4-8H2,1-3H3
computed SMILES=O=C(OC(C)CCCC)CCC
accession=JP006504
date=2016.01.19 (Created 2008.10.21, modified 2011.05.06)
author=HISAHIRO HAGIWARA, CHEMICAL RESEARCH INSTITUTE OF NON-AQUEOUSSOLUTIONS TOHOKU UNIV.
license=CC BY-NC-SA
exact mass=172.14633
ionization energy=70 eV
ion type=[M]+*
computed spectral entropy=2.554800253926275
computed normalized entropy=0.7936933242930808
SPLASH=splash10-00dl-9000000000-b2c48bf095ddeef0c971
submitter=submitter = University of Tokyo Team (Faculty of Engineering, University of Tokyo)
MoNA Rating=3.75

>  <NUM PEAKS>  (3525) 
25

>  <MASS SPECTRAL PEAKS>  (3525) 
27 16.32
28 2.51
29 12.12
39 7.54
40 1.05
41 22.06
42 11.28
43 65.49
44 2.88
45 3.38
55 12.14
56 13.09
57 4.31
60 3.2
69 6.17
71 99.99
72 4.94
73 1.78
84 17.28
85 12.84
86 2.65
88 7.51
89 12.17
101 2.13
115 12.8

>  <PREDICTED SPECTRUM>  (3525) 
26 72
27 311
28 64
29 275
31 33
39 308
40 78
41 557
42 386
43 999
44 192
45 205
52 24
53 160
54 79
55 403
56 435
57 310
58 79
59 2
60 159
67 53
68 38
69 402
70 155
71 954
72 218
73 123
74 35
84 575
85 504
86 157
87 134
88 256
89 400
90 93
100 64
101 145
102 72
115 334
116 67
117 9
172 43
173 2

$$$$

     RDKit          2D

 12 11  0  0  0  0  0  0  0  0999 V2000
    3.2476    5.6250    0.0000 C   0  0  0  0  0  0  0  0  0  0  0  0
   -9.7428    5.6250    0.0000 C   0  0  0  0  0  0  0  0  0  0  0  0
    1.9486    6.3750    0.0000 C   0  0  0  0  0  0  0  0  0  0  0  0
   -8.4437    6.3750    0.0000 C   0  0  0  0  0  0  0  0  0  0  0  0
    0.6495    5.6250    0.0000 C   0  0  0  0  0  0  0  0  0  0  0  0
   -0.6495    6.3750    0.0000 C   0  0  0  0  0  0  0  0  0  0  0  0
   -1.9486    5.6250    0.0000 C   0  0  0  0  0  0  0  0  0  0  0  0
   -7.1447    5.6250    0.0000 C   0  0  0  0  0  0  0  0  0  0  0  0
   -3.2476    6.3750    0.0000 C   0  0  0  0  0  0  0  0  0  0  0  0
   -5.8457    6.3750    0.0000 C   0  0  0  0  0  0  0  0  0  0  0  0
   -5.8457    7.8750    0.0000 O   0  0  0  0  0  0  0  0  0  0  0  0
   -4.5466    5.6250    0.0000 O   0  0  0  0  0  0  0  0  0  0  0  0
  3  1  1  0
  4  2  1  0
  5  3  1  0
  6  5  1  0
  7  6  1  0
  8  4  1  0
  9  7  1  0
 10  8  1  0
 11 10  2  0
 12  9  1  0
 12 10  1  0
M  END
>  <NAME>  (3526) 
HEXYL BUTYRATE

>  <SYNONYMS>  (3526) 


>  <SPECTRUM TYPE>  (3526) 
MS1

>  <INSTRUMENT TYPE>  (3526) 
EI-B

>  <INSTRUMENT>  (3526) 
HITACHI M-80B

>  <ION MODE>  (3526) 
P

>  <INCHIKEY>  (3526) 
XAPCMTMQBXLDBB-UHFFFAOYSA-N

>  <FORMULA>  (3526) 
C10H20O2

>  <EXACT MASS>  (3526) 
172.14632988

>  <MW>  (3526) 
172

>  <ID>  (3526) 
JP006503

>  <CONTRIBUTOR>  (3526) 
University of Tokyo Team, {Faculty of Engineering, University of Tokyo

>  <COMMENT>  (3526) 
SMILES=CCCCCCOC(=O)CCC
InChI=InChI=1S/C10H20O2/c1-3-5-6-7-9-12-10(11)8-4-2/h3-9H2,1-2H3
computed SMILES=O=C(OCCCCCC)CCC
accession=JP006503
date=2016.01.19 (Created 2008.10.21, modified 2011.05.06)
author=HISAHIRO HAGIWARA, CHEMICAL RESEARCH INSTITUTE OF NON-AQUEOUSSOLUTIONS TOHOKU UNIV.
license=CC BY-NC-SA
exact mass=172.14633
ionization energy=70 eV
ion type=[M]+*
computed spectral entropy=2.743095019033057
computed normalized entropy=0.777882749050918
SPLASH=splash10-0006-9000000000-c8872258839b61d390df
submitter=submitter = University of Tokyo Team (Faculty of Engineering, University of Tokyo)
MoNA Rating=3.75

>  <NUM PEAKS>  (3526) 
34

>  <MASS SPECTRAL PEAKS>  (3526) 
26 1.04
27 27
28 6.57
29 19.46
31 1.35
39 12.6
40 2.32
41 40.3
42 25.7
43 99.99
44 3.68
45 1.6
53 1.5
54 1.93
55 22.88
56 43.16
57 5.83
60 7.54
61 3.98
69 14.66
70 1.8
71 77.62
72 2.99
73 3.47
83 2.93
84 33.46
85 4.28
86 1.11
88 4.54
89 54.23
90 2.03
99 1.23
101 2.32
129 1.06

>  <PREDICTED SPECTRUM>  (3526) 
26 49
27 289
28 129
29 310
31 107
36 9
38 1
39 253
40 98
41 601
42 455
43 999
44 185
45 62
53 59
54 113
55 479
56 613
57 372
58 74
59 43
60 211
61 124
67 53
68 146
69 326
70 536
71 738
72 131
73 140
82 58
83 38
84 355
85 291
86 60
88 196
89 739
90 182
97 2
101 142
102 18
103 143
115 21
129 161

$$$$

     RDKit          2D

 12 11  0  0  0  0  0  0  0  0999 V2000
   -4.2219    3.9375    0.0000 C   0  0  0  0  0  0  0  0  0  0  0  0
    7.4695    6.1875    0.0000 C   0  0  0  0  0  0  0  0  0  0  0  0
   -2.9228    4.6875    0.0000 C   0  0  0  0  0  0  0  0  0  0  0  0
    6.1704    6.9375    0.0000 C   0  0  0  0  0  0  0  0  0  0  0  0
   -2.9228    6.1875    0.0000 C   0  0  0  0  0  0  0  0  0  0  0  0
   -1.6238    6.9375    0.0000 C   0  0  0  0  0  0  0  0  0  0  0  0
   -0.3248    6.1875    0.0000 C   0  0  0  0  0  0  0  0  0  0  0  0
    4.8714    6.1875    0.0000 C   0  0  0  0  0  0  0  0  0  0  0  0
    0.9743    6.9375    0.0000 C   0  0  0  0  0  0  0  0  0  0  0  0
    3.5724    6.9375    0.0000 C   0  0  0  0  0  0  0  0  0  0  0  0
    3.5724    8.4375    0.0000 O   0  0  0  0  0  0  0  0  0  0  0  0
    2.2733    6.1875    0.0000 O   0  0  0  0  0  0  0  0  0  0  0  0
  3  1  1  0
  4  2  1  0
  5  3  1  0
  5  6  2  0
  7  6  1  0
  8  4  1  0
  9  7  1  0
 10  8  1  0
 11 10  2  0
 12  9  1  0
 12 10  1  0
M  END
>  <NAME>  (3527) 
CIS-3-HEXENYL BUTYRATE

>  <SYNONYMS>  (3527) 


>  <SPECTRUM TYPE>  (3527) 
MS1

>  <INSTRUMENT TYPE>  (3527) 
EI-B

>  <INSTRUMENT>  (3527) 
HITACHI M-80B

>  <ION MODE>  (3527) 
P

>  <INCHIKEY>  (3527) 
ZCHOPXVYTWUHDS-WAYWQWQTSA-N

>  <FORMULA>  (3527) 
C10H18O2

>  <EXACT MASS>  (3527) 
170.130679816

>  <MW>  (3527) 
170

>  <ID>  (3527) 
JP006502

>  <CONTRIBUTOR>  (3527) 
University of Tokyo Team, {Faculty of Engineering, University of Tokyo

>  <COMMENT>  (3527) 
SMILES=CCC=CCCOC(=O)CCC
InChI=InChI=1S/C10H18O2/c1-3-5-6-7-9-12-10(11)8-4-2/h5-6H,3-4,7-9H2,1-2H3/b6-5-
computed SMILES=O=C(OCCC=CCC)CCC
accession=JP006502
date=2016.01.19 (Created 2008.10.21, modified 2011.05.06)
author=HISAHIRO HAGIWARA, CHEMICAL RESEARCH INSTITUTE OF NON-AQUEOUSSOLUTIONS TOHOKU UNIV.
license=CC BY-NC-SA
exact mass=170.13068
ionization energy=70 eV
ion type=[M]+*
computed spectral entropy=2.528297579740182
computed normalized entropy=0.7362571346911139
SPLASH=splash10-00rx-9000000000-93e85c48cd98fe637f24
submitter=submitter = University of Tokyo Team (Faculty of Engineering, University of Tokyo)
MoNA Rating=3.75

>  <NUM PEAKS>  (3527) 
31

>  <MASS SPECTRAL PEAKS>  (3527) 
15 2.14
26 1.91
27 28.05
28 10.32
29 12.43
31 1.64
38 1.31
39 17.19
40 4.67
41 51.53
42 8.95
43 77.63
44 2.72
45 1.47
51 1.52
53 6.4
54 9.06
55 18.38
56 1.49
65 1.98
66 1.44
67 99.04
68 5.84
69 2.47
71 88.63
72 3.66
80 1.21
81 6.46
82 99.99
83 8.83
89 1.62

>  <PREDICTED SPECTRUM>  (3527) 
15 13
25 9
26 100
27 330
28 128
29 316
31 68
36 0
37 25
38 78
39 375
40 187
41 586
42 282
43 718
44 126
45 63
50 82
51 126
52 82
53 251
54 349
55 362
56 3
60 71
62 2
63 34
65 152
66 99
67 857
68 165
69 110
70 77
71 672
72 169
73 1
77 34
79 51
81 189
82 999
83 339
84 88
87 21
88 31
89 101
97 2

$$$$

     RDKit          2D

 12 11  0  0  0  0  0  0  0  0999 V2000
    3.2476    5.6250    0.0000 C   0  0  0  0  0  0  0  0  0  0  0  0
   -9.7428    5.6250    0.0000 C   0  0  0  0  0  0  0  0  0  0  0  0
    1.9486    6.3750    0.0000 C   0  0  0  0  0  0  0  0  0  0  0  0
   -8.4437    6.3750    0.0000 C   0  0  0  0  0  0  0  0  0  0  0  0
    0.6495    5.6250    0.0000 C   0  0  0  0  0  0  0  0  0  0  0  0
   -0.6495    6.3750    0.0000 C   0  0  0  0  0  0  0  0  0  0  0  0
   -1.9486    5.6250    0.0000 C   0  0  0  0  0  0  0  0  0  0  0  0
   -7.1447    5.6250    0.0000 C   0  0  0  0  0  0  0  0  0  0  0  0
   -3.2476    6.3750    0.0000 C   0  0  0  0  0  0  0  0  0  0  0  0
   -5.8457    6.3750    0.0000 C   0  0  0  0  0  0  0  0  0  0  0  0
   -5.8457    7.8750    0.0000 O   0  0  0  0  0  0  0  0  0  0  0  0
   -4.5466    5.6250    0.0000 O   0  0  0  0  0  0  0  0  0  0  0  0
  3  1  1  0
  4  2  1  0
  5  3  1  0
  6  5  1  0
  6  7  2  0
  8  4  1  0
  9  7  1  0
 10  8  1  0
 11 10  2  0
 12  9  1  0
 12 10  1  0
M  END
>  <NAME>  (3528) 
TRANS-2-HEXENYL BUTYRATE

>  <SYNONYMS>  (3528) 


>  <SPECTRUM TYPE>  (3528) 
MS1

>  <INSTRUMENT TYPE>  (3528) 
EI-B

>  <INSTRUMENT>  (3528) 
HITACHI M-80B

>  <ION MODE>  (3528) 
P

>  <INCHIKEY>  (3528) 
PCGACKLJNBBQGM-VOTSOKGWSA-N

>  <FORMULA>  (3528) 
C10H18O2

>  <EXACT MASS>  (3528) 
170.130679816

>  <MW>  (3528) 
170

>  <ID>  (3528) 
JP006501

>  <CONTRIBUTOR>  (3528) 
University of Tokyo Team, {Faculty of Engineering, University of Tokyo

>  <COMMENT>  (3528) 
SMILES=CCCC=CCOC(=O)CCC
InChI=InChI=1S/C10H18O2/c1-3-5-6-7-9-12-10(11)8-4-2/h6-7H,3-5,8-9H2,1-2H3/b7-6+
computed SMILES=O=C(OCC=CCCC)CCC
accession=JP006501
date=2016.01.19 (Created 2008.10.21, modified 2011.05.06)
author=HISAHIRO HAGIWARA, CHEMICAL RESEARCH INSTITUTE OF NON-AQUEOUSSOLUTIONS TOHOKU UNIV.
license=CC BY-NC-SA
exact mass=170.13068
ionization energy=70 eV
ion type=[M]+*
computed spectral entropy=2.5211362787220235
computed normalized entropy=0.7738064999918675
SPLASH=splash10-00dl-9000000000-6614b9e4dedf9d8304ca
submitter=submitter = University of Tokyo Team (Faculty of Engineering, University of Tokyo)
MoNA Rating=3.75

>  <NUM PEAKS>  (3528) 
26

>  <MASS SPECTRAL PEAKS>  (3528) 
26 1
27 21.36
28 3.48
29 10.41
39 15.36
40 1.74
41 38.65
42 6.13
43 60.5
44 2
53 4.68
54 10.03
55 27.8
56 3.4
57 6.79
67 23.98
68 1.32
71 99.99
72 3.8
81 2.59
82 14.82
83 10
89 2.18
99 2.79
100 2.72
170 1.33

>  <PREDICTED SPECTRUM>  (3528) 
25 9
26 99
27 348
28 131
29 312
31 10
38 29
39 350
40 117
41 680
42 278
43 936
44 151
45 190
50 36
51 99
52 73
53 244
54 386
55 623
56 138
57 278
60 48
63 12
64 3
65 137
66 93
67 575
68 122
69 140
70 60
71 999
72 240
73 60
81 194
82 540
83 400
84 139
88 95
89 111
97 11
99 170
100 141
115 21
125 62
127 151
128 38
170 86

$$$$

     RDKit          2D

 11 10  0  0  0  0  0  0  0  0999 V2000
    2.5981    4.5000    0.0000 C   0  0  0  0  0  0  0  0  0  0  0  0
   -7.7942    4.5000    0.0000 C   0  0  0  0  0  0  0  0  0  0  0  0
   -6.4952    6.7500    0.0000 C   0  0  0  0  0  0  0  0  0  0  0  0
    1.2990    5.2500    0.0000 C   0  0  0  0  0  0  0  0  0  0  0  0
    0.0000    4.5000    0.0000 C   0  0  0  0  0  0  0  0  0  0  0  0
   -5.1962    4.5000    0.0000 C   0  0  0  0  0  0  0  0  0  0  0  0
   -3.8971    5.2500    0.0000 C   0  0  0  0  0  0  0  0  0  0  0  0
   -6.4952    5.2500    0.0000 C   0  0  0  0  0  0  0  0  0  0  0  0
   -1.2990    5.2500    0.0000 C   0  0  0  0  0  0  0  0  0  0  0  0
   -1.2990    6.7500    0.0000 O   0  0  0  0  0  0  0  0  0  0  0  0
   -2.5981    4.5000    0.0000 O   0  0  0  0  0  0  0  0  0  0  0  0
  4  1  1  0
  5  4  1  0
  7  6  1  0
  8  2  1  0
  8  3  1  0
  8  6  1  0
  9  5  1  0
 10  9  2  0
 11  7  1  0
 11  9  1  0
M  END
>  <NAME>  (3529) 
ISOPENTYL BUTYRATE

>  <SYNONYMS>  (3529) 
ISOAMYL BUTYRATE

>  <SPECTRUM TYPE>  (3529) 
MS1

>  <INSTRUMENT TYPE>  (3529) 
EI-B

>  <INSTRUMENT>  (3529) 
HITACHI M-80B

>  <ION MODE>  (3529) 
P

>  <INCHIKEY>  (3529) 
PQLMXFQTAMDXIZ-UHFFFAOYSA-N

>  <FORMULA>  (3529) 
C9H18O2

>  <EXACT MASS>  (3529) 
158.130679816

>  <MW>  (3529) 
158

>  <ID>  (3529) 
JP006500

>  <CONTRIBUTOR>  (3529) 
University of Tokyo Team, {Faculty of Engineering, University of Tokyo

>  <COMMENT>  (3529) 
SMILES=CCCC(=O)OCCC(C)C
InChI=InChI=1S/C9H18O2/c1-4-5-9(10)11-7-6-8(2)3/h8H,4-7H2,1-3H3
computed SMILES=O=C(OCCC(C)C)CCC
accession=JP006500
date=2016.01.19 (Created 2008.10.21, modified 2011.05.06)
author=HISAHIRO HAGIWARA, CHEMICAL RESEARCH INSTITUTE OF NON-AQUEOUSSOLUTIONS TOHOKU UNIV.
license=CC BY-NC-SA
exact mass=158.13068
ionization energy=70 eV
ion type=[M]+*
computed spectral entropy=2.424628507734489
computed normalized entropy=0.7200521219854414
SPLASH=splash10-00dl-9000000000-518fbdd189797b447c9e
submitter=submitter = University of Tokyo Team (Faculty of Engineering, University of Tokyo)
MoNA Rating=3.75

>  <NUM PEAKS>  (3529) 
29

>  <MASS SPECTRAL PEAKS>  (3529) 
15 1.41
26 1.19
27 26.07
28 4.78
29 13.28
31 1.22
39 14.49
40 2.08
41 36.15
42 20.04
43 92.98
44 3.22
45 2.5
53 1.73
54 1.11
55 40.12
56 2.18
57 1.67
60 2.75
69 6.31
70 99.99
71 99.8
72 3.74
73 2.07
85 1.21
88 2.07
89 17.95
101 2.12
115 5.77

>  <PREDICTED SPECTRUM>  (3529) 
26 59
27 262
28 24
29 210
31 15
36 23
38 21
39 269
40 85
41 469
42 364
43 905
44 132
45 220
53 101
54 76
55 497
60 58
67 4
68 60
69 183
70 986
71 999
72 227
73 91
87 76
88 85
89 266
101 25
115 199
116 64
143 57

$$$$

     RDKit          2D

 11 10  0  0  0  0  0  0  0  0999 V2000
   -8.4437    5.6250    0.0000 C   0  0  0  0  0  0  0  0  0  0  0  0
    3.2476    4.8750    0.0000 C   0  0  0  0  0  0  0  0  0  0  0  0
   -7.1447    4.8750    0.0000 C   0  0  0  0  0  0  0  0  0  0  0  0
    1.9486    5.6250    0.0000 C   0  0  0  0  0  0  0  0  0  0  0  0
   -5.8457    5.6250    0.0000 C   0  0  0  0  0  0  0  0  0  0  0  0
   -4.5466    4.8750    0.0000 C   0  0  0  0  0  0  0  0  0  0  0  0
    0.6495    4.8750    0.0000 C   0  0  0  0  0  0  0  0  0  0  0  0
   -3.2476    5.6250    0.0000 C   0  0  0  0  0  0  0  0  0  0  0  0
   -0.6495    5.6250    0.0000 C   0  0  0  0  0  0  0  0  0  0  0  0
   -0.6495    7.1250    0.0000 O   0  0  0  0  0  0  0  0  0  0  0  0
   -1.9486    4.8750    0.0000 O   0  0  0  0  0  0  0  0  0  0  0  0
  3  1  1  0
  4  2  1  0
  5  3  1  0
  6  5  1  0
  7  4  1  0
  8  6  1  0
  9  7  1  0
 10  9  2  0
 11  8  1  0
 11  9  1  0
M  END
>  <NAME>  (3530) 
PENTYL BUTYRATE

>  <SYNONYMS>  (3530) 
AMYL BUTYRATE

>  <SPECTRUM TYPE>  (3530) 
MS1

>  <INSTRUMENT TYPE>  (3530) 
EI-B

>  <INSTRUMENT>  (3530) 
HITACHI M-80B

>  <ION MODE>  (3530) 
P

>  <INCHIKEY>  (3530) 
CFNJLPHOBMVMNS-UHFFFAOYSA-N

>  <FORMULA>  (3530) 
C9H18O2

>  <EXACT MASS>  (3530) 
158.130679816

>  <MW>  (3530) 
158

>  <ID>  (3530) 
JP006499

>  <CONTRIBUTOR>  (3530) 
University of Tokyo Team, {Faculty of Engineering, University of Tokyo

>  <COMMENT>  (3530) 
SMILES=CCCCCOC(=O)CCC
InChI=InChI=1S/C9H18O2/c1-3-5-6-8-11-9(10)7-4-2/h3-8H2,1-2H3
computed SMILES=O=C(OCCCCC)CCC
accession=JP006499
date=2016.01.19 (Created 2008.10.21, modified 2011.05.06)
author=HISAHIRO HAGIWARA, CHEMICAL RESEARCH INSTITUTE OF NON-AQUEOUSSOLUTIONS TOHOKU UNIV.
license=CC BY-NC-SA
exact mass=158.13068
ionization energy=70 eV
ion type=[M]+*
computed spectral entropy=2.580687906308178
computed normalized entropy=0.7515135475570585
SPLASH=splash10-006x-9000000000-937c8363d4b8c7c59575
submitter=submitter = University of Tokyo Team (Faculty of Engineering, University of Tokyo)
MoNA Rating=3.75

>  <NUM PEAKS>  (3530) 
31

>  <MASS SPECTRAL PEAKS>  (3530) 
15 1.54
26 1.5
27 29.36
28 6.04
29 22.28
31 1.72
39 14.6
40 2.62
41 39.64
42 35.06
43 98.29
44 3.16
45 2.07
53 1.2
55 23.41
56 1.9
57 1.67
60 8.6
61 2.33
69 7.34
70 58.34
71 99.99
72 3.98
73 5.38
85 1.1
86 1.35
88 5.26
89 60.5
90 2.27
101 3.01
115 1.36

>  <PREDICTED SPECTRUM>  (3530) 
26 49
27 299
28 72
29 347
31 89
38 7
39 278
40 101
41 598
42 509
43 987
44 185
45 221
53 106
54 93
55 527
58 98
59 94
60 194
61 12
68 61
69 249
70 999
71 834
72 175
73 166
86 23
87 159
88 195
89 696
90 92
101 11
115 92

$$$$

     RDKit          2D

 10  9  0  0  0  0  0  0  0  0999 V2000
    2.2733    4.3125    0.0000 C   0  0  0  0  0  0  0  0  0  0  0  0
   -6.8200    5.0625    0.0000 C   0  0  0  0  0  0  0  0  0  0  0  0
   -5.5209    2.8125    0.0000 C   0  0  0  0  0  0  0  0  0  0  0  0
    0.9743    5.0625    0.0000 C   0  0  0  0  0  0  0  0  0  0  0  0
   -0.3248    4.3125    0.0000 C   0  0  0  0  0  0  0  0  0  0  0  0
   -4.2219    5.0625    0.0000 C   0  0  0  0  0  0  0  0  0  0  0  0
   -5.5209    4.3125    0.0000 C   0  0  0  0  0  0  0  0  0  0  0  0
   -1.6238    5.0625    0.0000 C   0  0  0  0  0  0  0  0  0  0  0  0
   -1.6238    6.5625    0.0000 O   0  0  0  0  0  0  0  0  0  0  0  0
   -2.9228    4.3125    0.0000 O   0  0  0  0  0  0  0  0  0  0  0  0
  4  1  1  0
  5  4  1  0
  7  2  1  0
  7  3  1  0
  7  6  1  0
  8  5  1  0
  9  8  2  0
 10  6  1  0
 10  8  1  0
M  END
>  <NAME>  (3531) 
ISOBUTYL BUTYRATE

>  <SYNONYMS>  (3531) 
2-METHYLPROPYL BUTYRATE

>  <SPECTRUM TYPE>  (3531) 
MS1

>  <INSTRUMENT TYPE>  (3531) 
EI-B

>  <INSTRUMENT>  (3531) 
HITACHI M-80B

>  <ION MODE>  (3531) 
P

>  <INCHIKEY>  (3531) 
RGFNRWTWDWVHDD-UHFFFAOYSA-N

>  <FORMULA>  (3531) 
C8H16O2

>  <EXACT MASS>  (3531) 
144.115029752

>  <MW>  (3531) 
144

>  <ID>  (3531) 
JP006498

>  <CONTRIBUTOR>  (3531) 
University of Tokyo Team, {Faculty of Engineering, University of Tokyo

>  <COMMENT>  (3531) 
SMILES=CCCC(=O)OCC(C)C
InChI=InChI=1S/C8H16O2/c1-4-5-8(9)10-6-7(2)3/h7H,4-6H2,1-3H3
computed SMILES=O=C(OCC(C)C)CCC
accession=JP006498
date=2016.01.19 (Created 2008.10.21, modified 2011.05.06)
author=HISAHIRO HAGIWARA, CHEMICAL RESEARCH INSTITUTE OF NON-AQUEOUSSOLUTIONS TOHOKU UNIV.
license=CC BY-NC-SA
exact mass=144.11503
ionization energy=70 eV
ion type=[M]+*
computed spectral entropy=2.4443940396100157
computed normalized entropy=0.7593937053194971
SPLASH=splash10-05fu-9000000000-caf15cc81f8fd2a7531f
submitter=submitter = University of Tokyo Team (Faculty of Engineering, University of Tokyo)
MoNA Rating=3.75

>  <NUM PEAKS>  (3531) 
25

>  <MASS SPECTRAL PEAKS>  (3531) 
15 1.52
26 1.11
27 19.78
28 2.73
29 14.24
31 1.5
39 11.92
40 1.61
41 29.5
42 8.2
43 51.56
44 1.69
45 1.09
55 3.53
56 38.28
57 19.67
60 5.74
70 1.4
71 99.99
72 4.9
73 6.02
88 2.83
89 14.72
101 5.8
114 1.4

>  <PREDICTED SPECTRUM>  (3531) 
14 22
15 19
25 3
26 109
27 452
28 204
29 550
31 123
36 0
37 9
38 66
39 379
40 180
41 817
42 468
43 989
44 179
45 250
50 25
51 29
52 19
53 114
54 106
55 394
56 719
57 920
58 123
60 237
61 151
67 18
68 29
69 163
70 395
71 999
72 249
73 421
74 122
87 184
88 329
89 595
90 129
101 121
129 15

$$$$

     RDKit          2D

 10  9  0  0  0  0  0  0  0  0999 V2000
    2.5981    4.5000    0.0000 C   0  0  0  0  0  0  0  0  0  0  0  0
   -7.7942    4.5000    0.0000 C   0  0  0  0  0  0  0  0  0  0  0  0
    1.2990    5.2500    0.0000 C   0  0  0  0  0  0  0  0  0  0  0  0
   -6.4952    5.2500    0.0000 C   0  0  0  0  0  0  0  0  0  0  0  0
    0.0000    4.5000    0.0000 C   0  0  0  0  0  0  0  0  0  0  0  0
   -5.1962    4.5000    0.0000 C   0  0  0  0  0  0  0  0  0  0  0  0
   -1.2990    5.2500    0.0000 C   0  0  0  0  0  0  0  0  0  0  0  0
   -3.8971    5.2500    0.0000 C   0  0  0  0  0  0  0  0  0  0  0  0
   -3.8971    6.7500    0.0000 O   0  0  0  0  0  0  0  0  0  0  0  0
   -2.5981    4.5000    0.0000 O   0  0  0  0  0  0  0  0  0  0  0  0
  3  1  1  0
  4  2  1  0
  5  3  1  0
  6  4  1  0
  7  5  1  0
  8  6  1  0
  9  8  2  0
 10  7  1  0
 10  8  1  0
M  END
>  <NAME>  (3532) 
BUTYL BUTYRATE

>  <SYNONYMS>  (3532) 


>  <SPECTRUM TYPE>  (3532) 
MS1

>  <INSTRUMENT TYPE>  (3532) 
EI-B

>  <INSTRUMENT>  (3532) 
HITACHI M-80B

>  <ION MODE>  (3532) 
P

>  <INCHIKEY>  (3532) 
XUPYJHCZDLZNFP-UHFFFAOYSA-N

>  <FORMULA>  (3532) 
C8H16O2

>  <EXACT MASS>  (3532) 
144.115029752

>  <MW>  (3532) 
144

>  <ID>  (3532) 
JP006497

>  <CONTRIBUTOR>  (3532) 
University of Tokyo Team, {Faculty of Engineering, University of Tokyo

>  <COMMENT>  (3532) 
SMILES=CCCCOC(=O)CCC
InChI=InChI=1S/C8H16O2/c1-3-5-7-10-8(9)6-4-2/h3-7H2,1-2H3
computed SMILES=O=C(OCCCC)CCC
accession=JP006497
date=2016.01.19 (Created 2008.10.21, modified 2011.05.06)
author=HISAHIRO HAGIWARA, CHEMICAL RESEARCH INSTITUTE OF NON-AQUEOUSSOLUTIONS TOHOKU UNIV.
license=CC BY-NC-SA
exact mass=144.11503
ionization energy=70 eV
ion type=[M]+*
computed spectral entropy=2.61971157332488
computed normalized entropy=0.7861797093561759
SPLASH=splash10-05bf-9000000000-0b6c3408eea71f00941f
submitter=submitter = University of Tokyo Team (Faculty of Engineering, University of Tokyo)
MoNA Rating=3.75

>  <NUM PEAKS>  (3532) 
28

>  <MASS SPECTRAL PEAKS>  (3532) 
15 2.17
26 2.42
27 33.98
28 9.21
29 34.56
30 1.03
31 2.4
39 14.89
40 2.04
41 47.47
42 12.77
43 69.48
44 2.85
45 2.42
55 10.69
56 56.29
57 20.05
60 12.38
61 1.88
70 1.16
71 99.99
72 3.82
73 8.35
88 4.3
89 48.89
90 1.93
101 4.91
116 1.18

>  <PREDICTED SPECTRUM>  (3532) 
26 44
27 334
28 115
29 429
31 90
38 5
39 313
40 141
41 822
42 456
43 999
44 146
45 383
46 5
51 28
53 85
54 66
55 422
56 782
57 700
58 36
60 310
61 356
68 50
69 210
70 406
71 910
72 211
73 499
74 120
87 172
88 376
89 721
90 152
101 239

$$$$

     RDKit          2D

 10  9  0  0  0  0  0  0  0  0999 V2000
    2.2733    4.3125    0.0000 C   0  0  0  0  0  0  0  0  0  0  0  0
   -5.5209    2.8125    0.0000 C   0  0  0  0  0  0  0  0  0  0  0  0
   -6.8200    5.0625    0.0000 C   0  0  0  0  0  0  0  0  0  0  0  0
    0.9743    5.0625    0.0000 C   0  0  0  0  0  0  0  0  0  0  0  0
   -0.3248    4.3125    0.0000 C   0  0  0  0  0  0  0  0  0  0  0  0
   -4.2219    5.0625    0.0000 C   0  0  0  0  0  0  0  0  0  0  0  0
   -5.5209    4.3125    0.0000 C   0  0  0  0  0  0  0  0  0  0  0  0
   -1.6238    5.0625    0.0000 C   0  0  0  0  0  0  0  0  0  0  0  0
   -1.6238    6.5625    0.0000 O   0  0  0  0  0  0  0  0  0  0  0  0
   -2.9228    4.3125    0.0000 O   0  0  0  0  0  0  0  0  0  0  0  0
  4  1  1  0
  5  4  1  0
  7  2  2  0
  7  3  1  0
  7  6  1  0
  8  5  1  0
  9  8  2  0
 10  6  1  0
 10  8  1  0
M  END
>  <NAME>  (3533) 
METHALLYL BUTYRATE

>  <SYNONYMS>  (3533) 
2-METHYLALLYL BUTYRATE

>  <SPECTRUM TYPE>  (3533) 
MS1

>  <INSTRUMENT TYPE>  (3533) 
EI-B

>  <INSTRUMENT>  (3533) 
HITACHI M-80B

>  <ION MODE>  (3533) 
P

>  <INCHIKEY>  (3533) 
AHRIFIYGSJEEKU-UHFFFAOYSA-N

>  <FORMULA>  (3533) 
C8H14O2

>  <EXACT MASS>  (3533) 
142.099379688

>  <MW>  (3533) 
142

>  <ID>  (3533) 
JP006496

>  <CONTRIBUTOR>  (3533) 
University of Tokyo Team, {Faculty of Engineering, University of Tokyo

>  <COMMENT>  (3533) 
SMILES=CCCC(=O)OCC(C)=C
InChI=InChI=1S/C8H14O2/c1-4-5-8(9)10-6-7(2)3/h2,4-6H2,1,3H3
computed SMILES=O=C(OCC(=C)C)CCC
accession=JP006496
date=2016.01.19 (Created 2008.10.21, modified 2011.05.06)
author=HISAHIRO HAGIWARA, CHEMICAL RESEARCH INSTITUTE OF NON-AQUEOUSSOLUTIONS TOHOKU UNIV.
license=CC BY-NC-SA
exact mass=142.09938
ionization energy=70 eV
ion type=[M]+*
computed spectral entropy=2.2515148607805227
computed normalized entropy=0.7283998504563811
SPLASH=splash10-00dl-9000000000-00b01cbfc8e9809ebe15
submitter=submitter = University of Tokyo Team (Faculty of Engineering, University of Tokyo)
MoNA Rating=3.75

>  <NUM PEAKS>  (3533) 
22

>  <MASS SPECTRAL PEAKS>  (3533) 
15 1.48
26 1.76
27 26.9
28 3.93
29 16.22
38 1.51
39 25.8
40 3.37
41 19.84
42 6.89
43 93.02
44 3.09
45 1.48
53 5.03
54 7.8
55 26.07
56 2.25
57 3.2
69 1.08
71 99.99
72 15.15
89 2.14

>  <PREDICTED SPECTRUM>  (3533) 
14 2
25 9
26 116
27 355
28 162
29 231
30 18
37 43
38 91
39 318
40 131
41 397
42 254
43 822
44 136
50 9
51 83
52 72
53 190
54 271
55 424
56 89
57 92
60 25
65 10
66 6
70 52
71 999
72 297
73 140
74 14
87 1
99 27

$$$$

     RDKit          2D

  9  8  0  0  0  0  0  0  0  0999 V2000
    1.9486    3.3750    0.0000 C   0  0  0  0  0  0  0  0  0  0  0  0
   -5.8457    3.3750    0.0000 C   0  0  0  0  0  0  0  0  0  0  0  0
   -4.5466    5.6250    0.0000 C   0  0  0  0  0  0  0  0  0  0  0  0
    0.6495    4.1250    0.0000 C   0  0  0  0  0  0  0  0  0  0  0  0
   -0.6495    3.3750    0.0000 C   0  0  0  0  0  0  0  0  0  0  0  0
   -4.5466    4.1250    0.0000 C   0  0  0  0  0  0  0  0  0  0  0  0
   -1.9486    4.1250    0.0000 C   0  0  0  0  0  0  0  0  0  0  0  0
   -1.9486    5.6250    0.0000 O   0  0  0  0  0  0  0  0  0  0  0  0
   -3.2476    3.3750    0.0000 O   0  0  0  0  0  0  0  0  0  0  0  0
  4  1  1  0
  5  4  1  0
  6  2  1  0
  6  3  1  0
  7  5  1  0
  8  7  2  0
  9  6  1  0
  9  7  1  0
M  END
>  <NAME>  (3534) 
ISOPROPYL BUTYRATE

>  <SYNONYMS>  (3534) 
1-METHYLETHYL BUTYRATE

>  <SPECTRUM TYPE>  (3534) 
MS1

>  <INSTRUMENT TYPE>  (3534) 
EI-B

>  <INSTRUMENT>  (3534) 
HITACHI M-80B

>  <ION MODE>  (3534) 
P

>  <INCHIKEY>  (3534) 
FFOPEPMHKILNIT-UHFFFAOYSA-N

>  <FORMULA>  (3534) 
C7H14O2

>  <EXACT MASS>  (3534) 
130.099379688

>  <MW>  (3534) 
130

>  <ID>  (3534) 
JP006495

>  <CONTRIBUTOR>  (3534) 
University of Tokyo Team, {Faculty of Engineering, University of Tokyo

>  <COMMENT>  (3534) 
SMILES=CCCC(=O)OC(C)C
InChI=InChI=1S/C7H14O2/c1-4-5-7(8)9-6(2)3/h6H,4-5H2,1-3H3
computed SMILES=O=C(OC(C)C)CCC
accession=JP006495
date=2016.01.19 (Created 2008.10.21, modified 2011.05.06)
author=HISAHIRO HAGIWARA, CHEMICAL RESEARCH INSTITUTE OF NON-AQUEOUSSOLUTIONS TOHOKU UNIV.
license=CC BY-NC-SA
exact mass=130.09938
ionization energy=70 eV
ion type=[M]+*
computed spectral entropy=2.3307671183446543
computed normalized entropy=0.7540391804752964
SPLASH=splash10-0006-9000000000-6cf9a61263b7ec9813f9
submitter=submitter = University of Tokyo Team (Faculty of Engineering, University of Tokyo)
MoNA Rating=3.75

>  <NUM PEAKS>  (3534) 
22

>  <MASS SPECTRAL PEAKS>  (3534) 
15 2.81
26 1.46
27 21.07
28 2.43
29 3.69
39 11.78
40 1.47
41 24.91
42 11.8
43 99.99
44 3.65
45 3.33
55 1.18
59 11.68
60 11.91
71 62.44
72 3.02
73 5.71
88 9.88
89 23.31
102 1.84
115 4.13

>  <PREDICTED SPECTRUM>  (3534) 
14 26
15 79
26 68
27 318
28 111
29 131
31 30
37 18
38 36
39 304
40 119
41 533
42 346
43 999
44 162
45 212
53 16
55 89
59 225
60 339
61 161
70 373
71 598
72 166
73 142
74 119
87 231
88 447
89 220
115 56
130 95

$$$$

     RDKit          2D

  9  8  0  0  0  0  0  0  0  0999 V2000
    2.5981    3.7500    0.0000 C   0  0  0  0  0  0  0  0  0  0  0  0
   -6.4952    4.5000    0.0000 C   0  0  0  0  0  0  0  0  0  0  0  0
    1.2990    4.5000    0.0000 C   0  0  0  0  0  0  0  0  0  0  0  0
   -5.1962    3.7500    0.0000 C   0  0  0  0  0  0  0  0  0  0  0  0
    0.0000    3.7500    0.0000 C   0  0  0  0  0  0  0  0  0  0  0  0
   -3.8971    4.5000    0.0000 C   0  0  0  0  0  0  0  0  0  0  0  0
   -1.2990    4.5000    0.0000 C   0  0  0  0  0  0  0  0  0  0  0  0
   -1.2990    6.0000    0.0000 O   0  0  0  0  0  0  0  0  0  0  0  0
   -2.5981    3.7500    0.0000 O   0  0  0  0  0  0  0  0  0  0  0  0
  3  1  1  0
  4  2  1  0
  5  3  1  0
  6  4  1  0
  7  5  1  0
  8  7  2  0
  9  6  1  0
  9  7  1  0
M  END
>  <NAME>  (3535) 
PROPYL BUTYRATE

>  <SYNONYMS>  (3535) 


>  <SPECTRUM TYPE>  (3535) 
MS1

>  <INSTRUMENT TYPE>  (3535) 
EI-B

>  <INSTRUMENT>  (3535) 
HITACHI M-80B

>  <ION MODE>  (3535) 
P

>  <INCHIKEY>  (3535) 
HUAZGNHGCJGYNP-UHFFFAOYSA-N

>  <FORMULA>  (3535) 
C7H14O2

>  <EXACT MASS>  (3535) 
130.099379688

>  <MW>  (3535) 
130

>  <ID>  (3535) 
JP006494

>  <CONTRIBUTOR>  (3535) 
University of Tokyo Team, {Faculty of Engineering, University of Tokyo

>  <COMMENT>  (3535) 
SMILES=CCCOC(=O)CCC
InChI=InChI=1S/C7H14O2/c1-3-5-7(8)9-6-4-2/h3-6H2,1-2H3
computed SMILES=O=C(OCCC)CCC
accession=JP006494
date=2016.01.19 (Created 2008.10.21, modified 2011.05.06)
author=HISAHIRO HAGIWARA, CHEMICAL RESEARCH INSTITUTE OF NON-AQUEOUSSOLUTIONS TOHOKU UNIV.
license=CC BY-NC-SA
exact mass=130.09938
ionization energy=70 eV
ion type=[M]+*
computed spectral entropy=2.5060989621092653
computed normalized entropy=0.7520843797121856
SPLASH=splash10-006x-9000000000-d427ef5d780cc2d54eac
submitter=submitter = University of Tokyo Team (Faculty of Engineering, University of Tokyo)
MoNA Rating=3.75

>  <NUM PEAKS>  (3535) 
28

>  <MASS SPECTRAL PEAKS>  (3535) 
15 3.15
26 2.65
27 41.14
28 5.91
29 12.43
30 1.06
31 5.39
38 1.3
39 16.81
40 2.14
41 37
42 24.81
43 99.99
44 3.16
45 1.97
55 2.4
57 1.51
59 6.06
60 14.18
61 8.61
71 92.33
72 3.75
73 9.07
88 3.09
89 47.71
90 1.79
101 3.22
102 2.76

>  <PREDICTED SPECTRUM>  (3535) 
14 37
15 82
26 96
27 387
28 173
29 247
31 129
33 11
37 28
38 62
39 354
40 164
41 601
42 460
43 999
44 151
45 197
46 29
53 37
54 23
55 219
59 290
60 386
61 297
70 434
71 699
72 175
73 189
74 127
87 331
88 416
89 262
130 139
131 2

$$$$

     RDKit          2D

  9  8  0  0  0  0  0  0  0  0999 V2000
    2.5981    3.7500    0.0000 C   0  0  0  0  0  0  0  0  0  0  0  0
   -6.4952    4.5000    0.0000 C   0  0  0  0  0  0  0  0  0  0  0  0
    1.2990    4.5000    0.0000 C   0  0  0  0  0  0  0  0  0  0  0  0
   -5.1962    3.7500    0.0000 C   0  0  0  0  0  0  0  0  0  0  0  0
    0.0000    3.7500    0.0000 C   0  0  0  0  0  0  0  0  0  0  0  0
   -3.8971    4.5000    0.0000 C   0  0  0  0  0  0  0  0  0  0  0  0
   -1.2990    4.5000    0.0000 C   0  0  0  0  0  0  0  0  0  0  0  0
   -1.2990    6.0000    0.0000 O   0  0  0  0  0  0  0  0  0  0  0  0
   -2.5981    3.7500    0.0000 O   0  0  0  0  0  0  0  0  0  0  0  0
  3  1  1  0
  4  2  2  0
  5  3  1  0
  6  4  1  0
  7  5  1  0
  8  7  2  0
  9  6  1  0
  9  7  1  0
M  END
>  <NAME>  (3536) 
ALLYL BUTYRATE

>  <SYNONYMS>  (3536) 


>  <SPECTRUM TYPE>  (3536) 
MS1

>  <INSTRUMENT TYPE>  (3536) 
EI-B

>  <INSTRUMENT>  (3536) 
HITACHI M-80B

>  <ION MODE>  (3536) 
P

>  <INCHIKEY>  (3536) 
RMZIOVJHUJAAEY-UHFFFAOYSA-N

>  <FORMULA>  (3536) 
C7H12O2

>  <EXACT MASS>  (3536) 
128.083729624

>  <MW>  (3536) 
128

>  <ID>  (3536) 
JP006493

>  <CONTRIBUTOR>  (3536) 
University of Tokyo Team, {Faculty of Engineering, University of Tokyo

>  <COMMENT>  (3536) 
SMILES=C=CCOC(=O)CCC
InChI=InChI=1S/C7H12O2/c1-3-5-7(8)9-6-4-2/h4H,2-3,5-6H2,1H3
computed SMILES=O=C(OCC=C)CCC
accession=JP006493
date=2016.01.19 (Created 2008.10.21, modified 2011.05.06)
author=HISAHIRO HAGIWARA, CHEMICAL RESEARCH INSTITUTE OF NON-AQUEOUSSOLUTIONS TOHOKU UNIV.
license=CC BY-NC-SA
exact mass=128.08373
ionization energy=70 eV
ion type=[M]+*
computed spectral entropy=2.1569977646422362
computed normalized entropy=0.6787165604448178
SPLASH=splash10-006x-9000000000-ee6807536ae28fb882aa
submitter=submitter = University of Tokyo Team (Faculty of Engineering, University of Tokyo)
MoNA Rating=3.75

>  <NUM PEAKS>  (3536) 
24

>  <MASS SPECTRAL PEAKS>  (3536) 
15 2.38
26 2.71
27 24.06
28 2.28
29 6.64
31 1.27
38 2.61
39 27.18
40 3.61
41 62.7
42 9.51
43 83.39
44 2.99
45 3.28
55 4.02
56 1.03
57 7.6
58 1.53
69 1.39
70 1.23
71 99.99
72 4.7
89 2.08
100 1.87

>  <PREDICTED SPECTRUM>  (3536) 
14 30
15 71
18 9
25 24
26 145
27 459
28 192
29 344
30 24
31 109
37 79
38 156
39 498
40 234
41 867
42 421
43 999
44 163
45 13
50 37
51 21
52 64
53 95
54 154
55 70
57 379
58 341
59 143
60 19
66 37
67 104
68 85
69 277
70 146
71 587
72 203
84 0
85 232
86 280
87 158
88 31
113 89
128 84

$$$$

     RDKit          2D

  8  7  0  0  0  0  0  0  0  0999 V2000
    1.9486    3.3750    0.0000 C   0  0  0  0  0  0  0  0  0  0  0  0
   -5.8457    3.3750    0.0000 C   0  0  0  0  0  0  0  0  0  0  0  0
    0.6495    4.1250    0.0000 C   0  0  0  0  0  0  0  0  0  0  0  0
   -4.5466    4.1250    0.0000 C   0  0  0  0  0  0  0  0  0  0  0  0
   -0.6495    3.3750    0.0000 C   0  0  0  0  0  0  0  0  0  0  0  0
   -1.9486    4.1250    0.0000 C   0  0  0  0  0  0  0  0  0  0  0  0
   -1.9486    5.6250    0.0000 O   0  0  0  0  0  0  0  0  0  0  0  0
   -3.2476    3.3750    0.0000 O   0  0  0  0  0  0  0  0  0  0  0  0
  3  1  1  0
  4  2  1  0
  5  3  1  0
  6  5  1  0
  7  6  2  0
  8  4  1  0
  8  6  1  0
M  END
>  <NAME>  (3537) 
ETHYL BUTYRATE

>  <SYNONYMS>  (3537) 


>  <SPECTRUM TYPE>  (3537) 
MS1

>  <INSTRUMENT TYPE>  (3537) 
EI-B

>  <INSTRUMENT>  (3537) 
HITACHI M-80B

>  <ION MODE>  (3537) 
P

>  <INCHIKEY>  (3537) 
OBNCKNCVKJNDBV-UHFFFAOYSA-N

>  <FORMULA>  (3537) 
C6H12O2

>  <EXACT MASS>  (3537) 
116.083729624

>  <MW>  (3537) 
116

>  <ID>  (3537) 
JP006492

>  <CONTRIBUTOR>  (3537) 
University of Tokyo Team, {Faculty of Engineering, University of Tokyo

>  <COMMENT>  (3537) 
SMILES=CCCC(=O)OCC
InChI=InChI=1S/C6H12O2/c1-3-5-6(7)8-4-2/h3-5H2,1-2H3
computed SMILES=O=C(OCC)CCC
accession=JP006492
date=2016.01.19 (Created 2008.10.21, modified 2011.05.06)
author=HISAHIRO HAGIWARA, CHEMICAL RESEARCH INSTITUTE OF NON-AQUEOUSSOLUTIONS TOHOKU UNIV.
license=CC BY-NC-SA
exact mass=116.08373
ionization energy=70 eV
ion type=[M]+*
computed spectral entropy=2.6777871937365774
computed normalized entropy=0.8036082976178981
SPLASH=splash10-0096-9000000000-8f2e75f476f548f5d68d
submitter=submitter = University of Tokyo Team (Faculty of Engineering, University of Tokyo)
MoNA Rating=3.75

>  <NUM PEAKS>  (3537) 
28

>  <MASS SPECTRAL PEAKS>  (3537) 
15 4.06
18 1.62
26 6.36
27 48.1
28 9.51
29 67.97
30 2.28
31 2.55
38 1.56
39 17.18
40 2.55
41 32.61
42 20.9
43 99.99
44 4.13
45 19
55 4.13
60 22.19
61 9.93
69 1.04
70 9.43
71 98.25
72 4.34
73 19.53
88 49.53
89 12.85
101 6.51
116 3.45

>  <PREDICTED SPECTRUM>  (3537) 
14 40
15 77
19 0
25 20
26 137
27 455
28 232
29 521
30 84
31 234
32 3
37 6
38 55
39 323
40 114
41 494
42 406
43 999
44 231
45 410
46 67
47 82
52 4
53 64
54 56
55 275
57 104
58 5
59 197
60 306
61 338
67 100
68 34
69 154
70 374
71 908
72 208
73 250
74 195
75 19
88 787
89 338
90 16
101 116
116 263
117 112

$$$$

     RDKit          2D

 14 14  0  0  0  0  0  0  0  0999 V2000
    9.7887    0.2339    0.0000 C   0  0  0  0  0  0  0  0  0  0  0  0
    8.4874   -2.0148    0.0000 C   0  0  0  0  0  0  0  0  0  0  0  0
   -0.9371   -2.3053    0.0000 C   0  0  0  0  0  0  0  0  0  0  0  0
    0.5302   -1.9935    0.0000 C   0  0  0  0  0  0  0  0  0  0  0  0
    1.9945    0.2419    0.0000 C   0  0  0  0  0  0  0  0  0  0  0  0
    3.2927   -0.5094    0.0000 C   0  0  0  0  0  0  0  0  0  0  0  0
   -1.6822   -1.0120    0.0000 C   0  0  0  0  0  0  0  0  0  0  0  0
    7.1906    0.2366    0.0000 C   0  0  0  0  0  0  0  0  0  0  0  0
    8.4889   -0.5148    0.0000 C   0  0  0  0  0  0  0  0  0  0  0  0
    0.6947   -0.5068    0.0000 C   0  0  0  0  0  0  0  0  0  0  0  0
    4.5925    0.2392    0.0000 C   0  0  0  0  0  0  0  0  0  0  0  0
    4.5941    1.7392    0.0000 O   0  0  0  0  0  0  0  0  0  0  0  0
   -0.6816    0.1003    0.0000 O   0  0  0  0  0  0  0  0  0  0  0  0
    5.8908   -0.5121    0.0000 O   0  0  0  0  0  0  0  0  0  0  0  0
  4  3  1  0
  6  5  1  0
  7  3  2  0
  9  1  1  0
  9  2  1  0
  9  8  1  0
 10  4  2  0
 10  5  1  0
 11  6  1  0
 12 11  2  0
 13  7  1  0
 13 10  1  0
 14  8  1  0
 14 11  1  0
M  END
>  <NAME>  (3538) 
ISOBUTYL 3-(2-FURYL)PROPIONATE

>  <SYNONYMS>  (3538) 


>  <SPECTRUM TYPE>  (3538) 
MS1

>  <INSTRUMENT TYPE>  (3538) 
EI-B

>  <INSTRUMENT>  (3538) 
HITACHI M-80B

>  <ION MODE>  (3538) 
P

>  <INCHIKEY>  (3538) 
SVDPTFHRRNUNRS-UHFFFAOYSA-N

>  <FORMULA>  (3538) 
C11H16O3

>  <EXACT MASS>  (3538) 
196.10994437199997

>  <MW>  (3538) 
196

>  <ID>  (3538) 
JP006490

>  <CONTRIBUTOR>  (3538) 
University of Tokyo Team, {Faculty of Engineering, University of Tokyo

>  <COMMENT>  (3538) 
SMILES=CC(C)COC(=O)CCc(c1)occ1
InChI=InChI=1S/C11H16O3/c1-9(2)8-14-11(12)6-5-10-4-3-7-13-10/h3-4,7,9H,5-6,8H2,1-2H3
computed SMILES=O=C(OCC(C)C)CCC=1OC=CC1
accession=JP006490
date=2016.01.19 (Created 2008.10.21, modified 2011.05.06)
author=HISAHIRO HAGIWARA, CHEMICAL RESEARCH INSTITUTE OF NON-AQUEOUSSOLUTIONS TOHOKU UNIV.
license=CC BY-NC-SA
exact mass=196.10994
ionization energy=70 eV
ion type=[M]+*
computed spectral entropy=2.8347010123214242
computed normalized entropy=0.8107235469934216
SPLASH=splash10-000x-9200000000-69355688cd3cbf9c4c7a
submitter=submitter = University of Tokyo Team (Faculty of Engineering, University of Tokyo)
MoNA Rating=3.75

>  <NUM PEAKS>  (3538) 
33

>  <MASS SPECTRAL PEAKS>  (3538) 
27 14.18
28 2.77
29 15.09
38 1.89
39 16.64
40 2.8
41 28.94
42 2.59
43 6.93
51 2.17
52 1.86
53 12.01
55 3.04
56 1.21
57 30.88
58 1.25
63 1.08
65 6.44
66 4.39
67 5.79
68 2.58
81 99.99
82 6.08
94 41.25
95 12.02
97 17.62
123 18.89
124 1.41
139 9.54
140 31.69
141 2.79
196 14.18
197 1.51

>  <PREDICTED SPECTRUM>  (3538) 
26 47
27 174
28 71
29 276
30 28
31 2
37 45
38 75
39 265
40 110
41 361
42 91
43 197
44 38
50 65
51 136
52 140
53 341
54 114
55 186
56 95
57 516
58 7
62 33
63 63
64 14
65 144
66 177
67 239
68 289
69 104
73 28
79 65
80 21
81 999
82 166
83 79
84 6
93 112
94 494
95 327
96 107
97 125
100 12
101 40
102 7
112 41
113 6
122 69
123 441
124 182
125 122
138 34
139 210
140 342
141 142
196 307
197 100

$$$$

     RDKit          2D

 14 14  0  0  0  0  0  0  0  0999 V2000
   -7.4692    4.2571    0.0000 C   0  0  0  0  0  0  0  0  0  0  0  0
   -6.1702    3.5071    0.0000 C   0  0  0  0  0  0  0  0  0  0  0  0
    4.2221    2.0071    0.0000 C   0  0  0  0  0  0  0  0  0  0  0  0
    4.2226    3.5079    0.0000 C   0  0  0  0  0  0  0  0  0  0  0  0
    2.9226    1.2563    0.0000 C   0  0  0  0  0  0  0  0  0  0  0  0
    2.9236    4.2579    0.0000 C   0  0  0  0  0  0  0  0  0  0  0  0
    1.6236    2.0063    0.0000 C   0  0  0  0  0  0  0  0  0  0  0  0
    0.3250    4.2571    0.0000 C   0  0  0  0  0  0  0  0  0  0  0  0
   -0.9740    3.5071    0.0000 C   0  0  0  0  0  0  0  0  0  0  0  0
   -4.8712    4.2571    0.0000 C   0  0  0  0  0  0  0  0  0  0  0  0
    1.6240    3.5071    0.0000 C   0  0  0  0  0  0  0  0  0  0  0  0
   -2.2731    4.2571    0.0000 C   0  0  0  0  0  0  0  0  0  0  0  0
   -2.2731    5.7571    0.0000 O   0  0  0  0  0  0  0  0  0  0  0  0
   -3.5721    3.5071    0.0000 O   0  0  0  0  0  0  0  0  0  0  0  0
  2  1  2  0
  4  3  1  0
  5  3  1  0
  6  4  1  0
  7  5  1  0
  9  8  1  0
 10  2  1  0
 11  6  1  0
 11  7  1  0
 11  8  1  0
 12  9  1  0
 13 12  2  0
 14 10  1  0
 14 12  1  0
M  END
>  <NAME>  (3539) 
ALLYL 3-CYCLOHEXYLPROPIONATE

>  <SYNONYMS>  (3539) 


>  <SPECTRUM TYPE>  (3539) 
MS1

>  <INSTRUMENT TYPE>  (3539) 
EI-B

>  <INSTRUMENT>  (3539) 
HITACHI M-80B

>  <ION MODE>  (3539) 
P

>  <INCHIKEY>  (3539) 
TWXUTZNBHUWMKJ-UHFFFAOYSA-N

>  <FORMULA>  (3539) 
C12H20O2

>  <EXACT MASS>  (3539) 
196.14632988

>  <MW>  (3539) 
196

>  <ID>  (3539) 
JP006489

>  <CONTRIBUTOR>  (3539) 
University of Tokyo Team, {Faculty of Engineering, University of Tokyo

>  <COMMENT>  (3539) 
SMILES=C=CCOC(=O)CCC(C1)CCCC1
InChI=InChI=1S/C12H20O2/c1-2-10-14-12(13)9-8-11-6-4-3-5-7-11/h2,11H,1,3-10H2
computed SMILES=O=C(OCC=C)CCC1CCCCC1
accession=JP006489
date=2016.01.19 (Created 2008.10.21, modified 2011.05.06)
author=HISAHIRO HAGIWARA, CHEMICAL RESEARCH INSTITUTE OF NON-AQUEOUSSOLUTIONS TOHOKU UNIV.
license=CC BY-NC-SA
exact mass=196.14633
ionization energy=70 eV
ion type=[M]+*
computed spectral entropy=3.429560148727688
computed normalized entropy=0.834265477862665
SPLASH=splash10-052g-9200000000-fdd005bfa4f1e00b0547
submitter=submitter = University of Tokyo Team (Faculty of Engineering, University of Tokyo)
MoNA Rating=3.75

>  <NUM PEAKS>  (3539) 
61

>  <MASS SPECTRAL PEAKS>  (3539) 
15 1.28
26 1.29
27 16.73
28 3.92
29 18.61
31 1.09
38 1.08
39 35.43
40 4.64
41 99.99
42 8.75
43 15.23
45 1.35
51 1.47
53 9.14
54 16.73
55 81.68
56 14.06
57 12.17
58 6.6
60 3.24
65 1.86
66 1.14
67 25.11
68 4.95
69 21.92
70 1.42
71 4.8
73 1.82
77 2.04
79 7.92
80 1.48
81 13.09
82 5.3
83 14.72
85 2.17
91 3.32
93 14.69
94 4.87
95 62
96 16.47
97 29.61
98 2.12
99 2.65
100 38.9
101 11.09
109 13.34
110 1.88
111 1.06
113 34.44
114 2.3
119 13.38
120 1.54
121 31.22
122 2.19
137 14.17
138 3.13
139 15.5
140 1.31
155 1.53
167 3.32

>  <PREDICTED SPECTRUM>  (3539) 
25 9
26 114
27 356
28 153
29 347
31 15
37 24
38 79
39 529
40 224
41 938
42 307
43 531
44 160
45 167
50 90
51 186
52 146
53 401
54 396
55 999
56 370
57 315
58 97
59 42
60 253
61 70
62 8
63 73
65 249
66 150
67 562
68 296
69 516
70 225
71 197
72 177
73 264
74 130
77 244
78 128
79 483
80 340
81 708
82 384
83 484
84 209
85 157
86 94
87 34
91 162
92 81
93 209
94 39
95 577
96 276
97 671
98 64
100 71
101 57
102 4
107 476
108 123
109 148
111 14
113 125
114 289
115 187
121 64
123 354
124 99
125 917
126 80
127 49
135 47
136 132
137 183
138 28
139 85
140 33
141 158
142 107
167 16
196 73

$$$$

     RDKit          2D

 18 17  0  0  0  0  0  0  0  0999 V2000
    3.2476    5.6250    0.0000 C   0  0  0  0  0  0  0  0  0  0  0  0
   -9.7428    5.6250    0.0000 C   0  0  0  0  0  0  0  0  0  0  0  0
   -5.8457   10.8750    0.0000 C   0  0  0  0  0  0  0  0  0  0  0  0
    1.9486    6.3750    0.0000 C   0  0  0  0  0  0  0  0  0  0  0  0
   -8.4437    6.3750    0.0000 C   0  0  0  0  0  0  0  0  0  0  0  0
   -4.5466   10.1250    0.0000 C   0  0  0  0  0  0  0  0  0  0  0  0
   -1.9486    5.6250    0.0000 C   0  0  0  0  0  0  0  0  0  0  0  0
   -4.5466    5.6250    0.0000 C   0  0  0  0  0  0  0  0  0  0  0  0
   -3.2476    6.3750    0.0000 C   0  0  0  0  0  0  0  0  0  0  0  0
    0.6495    5.6250    0.0000 C   0  0  0  0  0  0  0  0  0  0  0  0
   -7.1447    5.6250    0.0000 C   0  0  0  0  0  0  0  0  0  0  0  0
   -4.5466    8.6250    0.0000 C   0  0  0  0  0  0  0  0  0  0  0  0
    0.6495    4.1250    0.0000 O   0  0  0  0  0  0  0  0  0  0  0  0
   -7.1447    4.1250    0.0000 O   0  0  0  0  0  0  0  0  0  0  0  0
   -5.8457    7.8750    0.0000 O   0  0  0  0  0  0  0  0  0  0  0  0
   -0.6495    6.3750    0.0000 O   0  0  0  0  0  0  0  0  0  0  0  0
   -5.8457    6.3750    0.0000 O   0  0  0  0  0  0  0  0  0  0  0  0
   -3.2476    7.8750    0.0000 O   0  0  0  0  0  0  0  0  0  0  0  0
  4  1  1  0
  5  2  1  0
  6  3  1  0
  9  7  1  0
  9  8  1  0
 10  4  1  0
 11  5  1  0
 12  6  1  0
 13 10  2  0
 14 11  2  0
 15 12  2  0
 16  7  1  0
 16 10  1  0
 17  8  1  0
 17 11  1  0
 18  9  1  0
 18 12  1  0
M  END
>  <NAME>  (3540) 
GLYCEROL TRIPROPIONATE

>  <SYNONYMS>  (3540) 


>  <SPECTRUM TYPE>  (3540) 
MS1

>  <INSTRUMENT TYPE>  (3540) 
EI-B

>  <INSTRUMENT>  (3540) 
HITACHI M-80B

>  <ION MODE>  (3540) 
P

>  <INCHIKEY>  (3540) 
YZWRNSARCRTXDS-UHFFFAOYSA-N

>  <FORMULA>  (3540) 
C12H20O6

>  <EXACT MASS>  (3540) 
260.12598835999995

>  <MW>  (3540) 
260

>  <ID>  (3540) 
JP006488

>  <CONTRIBUTOR>  (3540) 
University of Tokyo Team, {Faculty of Engineering, University of Tokyo

>  <COMMENT>  (3540) 
SMILES=CCC(=O)OCC(COC(=O)CC)OC(=O)CC
InChI=InChI=1S/C12H20O6/c1-4-10(13)16-7-9(18-12(15)6-3)8-17-11(14)5-2/h9H,4-8H2,1-3H3
computed SMILES=O=C(OCC(OC(=O)CC)COC(=O)CC)CC
accession=JP006488
date=2016.01.19 (Created 2008.10.21, modified 2011.05.06)
author=HISAHIRO HAGIWARA, CHEMICAL RESEARCH INSTITUTE OF NON-AQUEOUSSOLUTIONS TOHOKU UNIV.
license=CC BY-NC-SA
exact mass=260.12599
ionization energy=70 eV
ion type=[M]+*
computed spectral entropy=1.1009347202204087
computed normalized entropy=0.5010569841500292
SPLASH=splash10-0a4i-9000000000-395760d45c9442f98c2e
submitter=submitter = University of Tokyo Team (Faculty of Engineering, University of Tokyo)
MoNA Rating=3.75

>  <NUM PEAKS>  (3540) 
9

>  <MASS SPECTRAL PEAKS>  (3540) 
27 6.71
28 2.65
29 28.41
56 1.4
57 99.99
58 3.37
129 1.81
130 1.02
173 3.53

>  <PREDICTED SPECTRUM>  (3540) 
29 197
40 15
41 186
42 133
43 117
44 47
47 3
53 11
55 124
56 190
57 999
58 288
59 59
60 25
61 34
70 42
71 20
72 62
73 118
74 50
75 164
83 10
84 57
85 128
86 47
99 42
100 117
101 13
113 107
114 97
117 52
118 5
129 128
130 157
131 247
132 14
133 48
186 32
187 64

$$$$

     RDKit          2D

 14 14  0  0  0  0  0  0  0  0999 V2000
   -7.4692    4.2571    0.0000 C   0  0  0  0  0  0  0  0  0  0  0  0
   -6.1702    3.5071    0.0000 C   0  0  0  0  0  0  0  0  0  0  0  0
    4.2221    2.0071    0.0000 C   0  0  0  0  0  0  0  0  0  0  0  0
    4.2226    3.5079    0.0000 C   0  0  0  0  0  0  0  0  0  0  0  0
    2.9226    1.2563    0.0000 C   0  0  0  0  0  0  0  0  0  0  0  0
   -0.9740    3.5071    0.0000 C   0  0  0  0  0  0  0  0  0  0  0  0
    2.9236    4.2579    0.0000 C   0  0  0  0  0  0  0  0  0  0  0  0
    1.6236    2.0063    0.0000 C   0  0  0  0  0  0  0  0  0  0  0  0
    0.3250    4.2571    0.0000 C   0  0  0  0  0  0  0  0  0  0  0  0
   -2.2731    4.2571    0.0000 C   0  0  0  0  0  0  0  0  0  0  0  0
    1.6240    3.5071    0.0000 C   0  0  0  0  0  0  0  0  0  0  0  0
   -4.8712    4.2571    0.0000 C   0  0  0  0  0  0  0  0  0  0  0  0
   -4.8712    5.7571    0.0000 O   0  0  0  0  0  0  0  0  0  0  0  0
   -3.5721    3.5071    0.0000 O   0  0  0  0  0  0  0  0  0  0  0  0
  2  1  1  0
  4  3  2  0
  5  3  1  0
  7  4  1  0
  8  5  2  0
  6  9  2  0
 10  6  1  0
 11  7  2  0
 11  8  1  0
 11  9  1  0
 12  2  1  0
 13 12  2  0
 14 10  1  0
 14 12  1  0
M  END
>  <NAME>  (3541) 
CINNAMYL PROPIONATE

>  <SYNONYMS>  (3541) 
3-PHENYLALLYL PROPIONATE

>  <SPECTRUM TYPE>  (3541) 
MS1

>  <INSTRUMENT TYPE>  (3541) 
EI-B

>  <INSTRUMENT>  (3541) 
HITACHI M-80B

>  <ION MODE>  (3541) 
P

>  <INCHIKEY>  (3541) 
KGDJMNKPBUNHGY-RMKNXTFCSA-N

>  <FORMULA>  (3541) 
C12H14O2

>  <EXACT MASS>  (3541) 
190.099379688

>  <MW>  (3541) 
190

>  <ID>  (3541) 
JP006487

>  <CONTRIBUTOR>  (3541) 
University of Tokyo Team, {Faculty of Engineering, University of Tokyo

>  <COMMENT>  (3541) 
SMILES=CCC(=O)OCC=Cc(c1)cccc1
InChI=InChI=1S/C12H14O2/c1-2-12(13)14-10-6-9-11-7-4-3-5-8-11/h3-9H,2,10H2,1H3/b9-6+
computed SMILES=O=C(OCC=CC=1C=CC=CC1)CC
accession=JP006487
date=2016.01.19 (Created 2008.10.21, modified 2011.05.06)
author=HISAHIRO HAGIWARA, CHEMICAL RESEARCH INSTITUTE OF NON-AQUEOUSSOLUTIONS TOHOKU UNIV.
license=CC BY-NC-SA
exact mass=190.09938
ionization energy=70 eV
ion type=[M]+*
computed spectral entropy=2.727407706686388
computed normalized entropy=0.76712818534673
SPLASH=splash10-0aor-9500000000-3f85fb99d177d7222e46
submitter=submitter = University of Tokyo Team (Faculty of Engineering, University of Tokyo)
MoNA Rating=3.75

>  <NUM PEAKS>  (3541) 
35

>  <MASS SPECTRAL PEAKS>  (3541) 
26 1.37
27 9.45
28 1.69
29 33.48
39 6
50 1.99
51 7.09
52 1.3
55 1.62
57 99.99
58 2.84
62 1.04
63 3.47
65 2.54
75 1.22
76 1.26
77 9.4
78 3.95
79 2.47
89 2.2
91 10.68
92 5.55
102 2.4
103 5.03
104 1.32
105 8.93
115 35.96
116 18.64
117 25.9
118 2.24
131 1.3
133 13.73
134 9.91
190 11.05
191 1.29

>  <PREDICTED SPECTRUM>  (3541) 
25 3
26 57
27 192
28 85
29 349
30 18
31 68
37 26
38 89
39 239
40 91
41 286
42 131
43 184
44 83
45 3
49 32
50 169
51 257
52 143
53 118
54 13
55 255
56 274
57 772
58 202
61 0
62 103
63 228
64 155
65 237
66 104
69 89
70 16
71 82
72 36
73 59
74 139
75 173
76 121
77 335
78 247
79 183
80 59
81 55
85 38
88 52
89 203
90 78
91 414
92 330
93 99
95 34
99 88
100 4
101 197
102 192
103 158
104 176
105 393
106 161
107 152
108 42
109 16
113 8
114 47
115 727
116 519
117 999
118 338
131 121
133 739
134 507
135 261
136 71
190 556
191 185
192 28

$$$$

     RDKit          2D

 19 18  0  0  0  0  0  0  0  0999 V2000
    2.6325    4.7804    0.0000 C   0  0  0  0  0  0  0  0  0  0  0  0
  -11.5002    6.4190    0.0000 C   0  0  0  0  0  0  0  0  0  0  0  0
  -10.2012    4.1690    0.0000 C   0  0  0  0  0  0  0  0  0  0  0  0
   -5.0050    4.1690    0.0000 C   0  0  0  0  0  0  0  0  0  0  0  0
    2.7892    8.6690    0.0000 C   0  0  0  0  0  0  0  0  0  0  0  0
   -0.7731    4.5199    0.0000 C   0  0  0  0  0  0  0  0  0  0  0  0
    1.1553    4.5199    0.0000 C   0  0  0  0  0  0  0  0  0  0  0  0
   -7.6031    5.6690    0.0000 C   0  0  0  0  0  0  0  0  0  0  0  0
   -2.4069    5.6690    0.0000 C   0  0  0  0  0  0  0  0  0  0  0  0
   -8.9021    6.4190    0.0000 C   0  0  0  0  0  0  0  0  0  0  0  0
   -6.3041    6.4190    0.0000 C   0  0  0  0  0  0  0  0  0  0  0  0
   -3.7060    6.4190    0.0000 C   0  0  0  0  0  0  0  0  0  0  0  0
   -1.1079    6.4190    0.0000 C   0  0  0  0  0  0  0  0  0  0  0  0
  -10.2012    5.6690    0.0000 C   0  0  0  0  0  0  0  0  0  0  0  0
   -5.0050    5.6690    0.0000 C   0  0  0  0  0  0  0  0  0  0  0  0
    1.4902    7.9190    0.0000 C   0  0  0  0  0  0  0  0  0  0  0  0
    0.1911    5.6690    0.0000 C   0  0  0  0  0  0  0  0  0  0  0  0
    0.1911    8.6690    0.0000 O   0  0  0  0  0  0  0  0  0  0  0  0
    1.4902    6.4190    0.0000 O   0  0  0  0  0  0  0  0  0  0  0  0
  7  1  2  0
 10  8  1  0
 11  8  1  0
 12  9  1  0
 13  9  1  0
 14  2  1  0
 14  3  1  0
 14 10  2  0
 15  4  1  0
 15 11  1  0
 12 15  2  0
 16  5  1  0
 17  6  1  0
 17  7  1  0
 17 13  1  0
 18 16  2  0
 19 16  1  0
 19 17  1  0
M  END
>  <NAME>  (3542) 
TRANS-NEROLIDYL ACETATE

>  <SYNONYMS>  (3542) 
1,5,9-TRIMETHYL-1-VINYL-(4E)-4,8-DECADIENYL ACETATE

>  <SPECTRUM TYPE>  (3542) 
MS1

>  <INSTRUMENT TYPE>  (3542) 
EI-B

>  <INSTRUMENT>  (3542) 
HITACHI M-80B

>  <ION MODE>  (3542) 
P

>  <INCHIKEY>  (3542) 
PRNJXUQTUSFYLV-NTCAYCPXSA-N

>  <FORMULA>  (3542) 
C17H28O2

>  <EXACT MASS>  (3542) 
264.208930136

>  <MW>  (3542) 
264

>  <ID>  (3542) 
JP006486

>  <CONTRIBUTOR>  (3542) 
University of Tokyo Team, {Faculty of Engineering, University of Tokyo

>  <COMMENT>  (3542) 
SMILES=CC(C)=CCCC(C)=C([H])CCC(C)(C=C)OC(C)=O
InChI=InChI=1S/C17H28O2/c1-7-17(6,19-16(5)18)13-9-12-15(4)11-8-10-14(2)3/h7,10,12H,1,8-9,11,13H2,2-6H3/b15-12+
computed SMILES=O=C(OC(C=C)(C)CCC=C(C)CCC=C(C)C)C
accession=JP006486
date=2016.01.19 (Created 2008.10.21, modified 2011.05.06)
author=HISAHIRO HAGIWARA, CHEMICAL RESEARCH INSTITUTE OF NON-AQUEOUSSOLUTIONS TOHOKU UNIV.
license=CC BY-NC-SA
exact mass=264.20893
ionization energy=70 eV
ion type=[M]+*
computed spectral entropy=3.3961141383023623
computed normalized entropy=0.7967086988149746
SPLASH=splash10-0006-9200000000-3c55622886c673b1448f
submitter=submitter = University of Tokyo Team (Faculty of Engineering, University of Tokyo)
MoNA Rating=3.75

>  <NUM PEAKS>  (3542) 
71

>  <MASS SPECTRAL PEAKS>  (3542) 
15 1.89
27 6.6
29 5.81
39 7.46
40 1.03
41 64.64
42 4.47
43 82.21
44 1.31
45 2.15
51 1.47
52 1.45
53 12.89
54 2
55 32.13
56 3.44
57 2.36
65 3.13
66 1.79
67 20.24
68 16.96
69 99.99
70 6.31
71 12.85
72 1.58
77 6.29
78 2
79 21.69
80 36.76
81 23.29
82 4.12
83 1.09
84 1.21
85 1.81
91 12.07
92 5.04
93 94.89
94 8.86
95 6.93
96 1.38
97 1.93
105 9.15
106 2.73
107 42.6
108 5.11
109 6.86
111 1.48
113 2.48
115 1.27
119 12.37
120 4.2
121 8.88
122 3.44
123 15.84
124 3.46
125 1
133 4.98
134 3.05
135 13.58
136 6.43
137 2.69
147 3.8
148 2.3
149 2
153 1.29
161 7.24
162 1.42
189 4.09
195 4.12
204 4.37
205 1.09

>  <PREDICTED SPECTRUM>  (3542) 
25 10
26 52
27 230
28 120
29 278
30 77
31 87
38 43
39 285
40 146
41 810
42 246
43 999
44 183
45 239
46 30
48 0
50 72
51 119
52 103
53 373
54 162
55 630
56 229
57 371
58 104
59 262
60 160
61 77
63 69
64 14
65 206
66 156
67 503
68 401
69 826
70 267
71 447
72 160
73 141
74 20
75 8
76 22
77 371
78 192
79 506
80 468
81 695
82 370
83 335
84 239
85 261
86 115
87 120
88 16
91 408
92 351
93 810
94 390
95 506
96 235
97 198
98 84
99 126
100 41
101 47
102 16
103 59
104 80
105 326
106 249
107 555
108 253
109 298
110 133
111 209
112 133
113 184
114 69
115 103
117 107
118 30
119 407
120 251
121 590
122 320
123 376
124 158
125 161
126 93
127 93
128 25
129 84
130 52
131 95
132 96
133 314
134 321
135 542
136 330
137 323
138 77
139 92
140 70
141 138
143 113
144 37
145 118
146 24
147 220
148 180
149 184
150 146
151 61
152 54
153 129
154 36
155 67
156 24
157 33
158 0
159 114
160 45
161 346
162 115
163 158
164 50
165 43
167 16
168 20
169 109
171 38
173 0
175 141
176 104
177 124
178 86
179 7
180 64
181 13
182 53
185 15
187 84
189 293
190 99
191 47
192 10
194 2
195 68
202 12
203 72
204 238
205 166
206 8
207 20
209 5
221 118
222 24
249 4
264 41

$$$$

     RDKit          2D

 19 21  0  0  1  0  0  0  0  0999 V2000
   -2.5621    2.6271    0.0000 C   0  0  0  0  0  0  0  0  0  0  0  0
    6.3518    1.3024    0.0000 C   0  0  0  0  0  0  0  0  0  0  0  0
   -0.6698   -2.6389    0.0000 C   0  0  0  0  0  0  0  0  0  0  0  0
    1.1515   -3.0511    0.0000 C   0  0  0  0  0  0  0  0  0  0  0  0
    3.7828   -0.9552    0.0000 C   0  0  0  0  0  0  0  0  0  0  0  0
   -2.9800   -0.0200    0.0000 C   0  0  0  0  0  0  0  0  0  0  0  0
   -2.1000   -1.2300    0.0000 C   0  0  0  0  0  0  0  0  0  0  0  0
    1.9600    1.3300    0.0000 C   0  0  0  0  0  0  0  0  0  0  0  0
    0.5000    1.6700    0.0000 C   0  0  0  0  0  0  0  0  0  0  0  0
    1.0200    0.1600    0.0000 C   0  0  0  0  0  0  0  0  0  0  0  0
   -2.1000    1.2000    0.0000 C   0  0  0  0  0  0  0  0  0  0  0  0
    5.1791    0.3672    0.0000 C   0  0  0  0  0  0  0  0  0  0  0  0
   -0.6800   -0.7700    0.0000 C   0  0  0  0  0  0  0  0  0  0  0  0
    1.9600   -1.3700    0.0000 C   0  0  0  0  0  0  0  0  0  0  0  0
    0.5000   -1.7000    0.0000 C   0  0  0  0  0  0  0  0  0  0  0  0
    2.6100   -0.0200    0.0000 C   0  0  0  0  0  0  0  0  0  0  0  0
   -0.6800    0.7300    0.0000 C   0  0  0  0  0  0  0  0  0  0  0  0
    5.4026   -1.1161    0.0000 O   0  0  0  0  0  0  0  0  0  0  0  0
    3.7828    0.9152    0.0000 O   0  0  0  0  0  0  0  0  0  0  0  0
  7  6  1  0
  9  8  1  0
 11  1  1  1
 11  6  1  0
 12  2  1  0
 13  7  1  6
 14 10  1  0
 15  3  1  0
 15  4  1  0
 15 13  1  0
 14 15  1  1
 16  5  1  6
 16  8  1  0
 16 14  1  0
 17  9  1  0
 17 10  1  0
 17 11  1  0
 17 13  1  0
 18 12  2  0
 19 12  1  0
 16 19  1  0
M  END
>  <NAME>  (3543) 
CEDRYL ACETATE

>  <SYNONYMS>  (3543) 


>  <SPECTRUM TYPE>  (3543) 
MS1

>  <INSTRUMENT TYPE>  (3543) 
EI-B

>  <INSTRUMENT>  (3543) 
HITACHI M-80B

>  <ION MODE>  (3543) 
P

>  <INCHIKEY>  (3543) 
HQKQRXZEXPXXIG-WRHXGLHUSA-N

>  <FORMULA>  (3543) 
C17H28O2

>  <EXACT MASS>  (3543) 
264.208930136

>  <MW>  (3543) 
264

>  <ID>  (3543) 
JP006484

>  <CONTRIBUTOR>  (3543) 
University of Tokyo Team, {Faculty of Engineering, University of Tokyo

>  <COMMENT>  (3543) 
SMILES=CC(=O)OC(C)(C3)C([H])(C1)C(C)(C)C([H])(C2)C(C3)(C([H])(C)C2)1
InChI=InChI=1S/C17H28O2/c1-11-6-7-13-15(3,4)14-10-17(11,13)9-8-16(14,5)19-12(2)18/h11,13-14H,6-10H2,1-5H3/t11-,13+,14-,16-,17?/m1/s1
computed SMILES=O=C(OC1(C)CCC23CC1C(C)(C)C3CCC2C)C
accession=JP006484
date=2016.01.19 (Created 2008.10.21, modified 2011.05.06)
author=HISAHIRO HAGIWARA, CHEMICAL RESEARCH INSTITUTE OF NON-AQUEOUSSOLUTIONS TOHOKU UNIV.
license=CC BY-NC-SA
exact mass=264.20893
ionization energy=70 eV
ion type=[M]+*
computed spectral entropy=3.793558760134247
computed normalized entropy=0.8472801840297449
SPLASH=splash10-0fr6-8920000000-35337f7194d7f5f2aaa4
submitter=submitter = University of Tokyo Team (Faculty of Engineering, University of Tokyo)
MoNA Rating=3.75

>  <NUM PEAKS>  (3543) 
88

>  <MASS SPECTRAL PEAKS>  (3543) 
15 2.31
27 3.51
29 5.99
39 5.08
40 1.28
41 34.64
42 2.91
43 92.48
44 1.8
45 1.22
51 1.16
53 7.14
54 1
55 20.71
56 3.22
57 3.43
59 2.35
61 1.61
65 3.56
66 1.27
67 15.13
68 2.57
69 26.03
70 2.23
71 5.08
72 1.35
77 8.95
78 2.41
79 17.14
80 3.34
81 21.46
82 6.57
83 4.56
84 1.38
91 17.34
92 5.71
93 28.93
94 9.06
95 30.14
96 5.54
97 2.95
99 2.68
101 1.05
103 1.09
105 24.6
106 6.74
107 23.5
108 8.38
109 16.65
110 2.57
111 2.04
115 1.07
117 1.65
118 1.28
119 52.78
120 11.47
121 26.88
122 10.83
123 4.9
124 1.07
131 1.49
133 14.28
134 8.86
135 13.58
136 4.94
137 2.47
138 1.13
145 1.17
146 1.54
147 18.08
148 13.71
149 13.09
150 4.27
151 8.45
152 1.46
161 32.76
162 15.13
163 3.95
175 43.17
176 15.39
177 2.33
189 17.88
190 2.5
204 99.99
205 18.89
206 1.72
207 4.97
222 1.57

>  <PREDICTED SPECTRUM>  (3543) 
26 0
27 125
28 77
29 153
39 213
40 95
41 593
42 173
43 999
44 171
45 162
50 44
51 144
52 108
53 284
54 138
55 547
56 189
57 227
58 151
59 95
60 71
61 40
63 55
64 36
65 248
66 171
67 481
68 181
69 443
70 132
71 236
72 187
73 41
74 3
77 367
78 169
79 414
80 214
81 579
82 294
83 239
84 153
85 97
86 43
89 11
91 397
92 194
93 466
94 246
95 666
96 227
97 139
98 85
99 54
101 4
103 19
104 62
105 362
106 202
107 512
108 337
109 554
110 192
111 218
112 19
113 50
114 18
115 120
116 51
117 101
118 28
119 309
120 211
121 460
122 280
123 431
124 142
125 60
127 22
128 13
131 31
133 334
134 209
135 340
136 209
137 360
138 125
139 63
140 1
141 30
145 18
146 31
147 398
148 314
149 354
150 366
151 250
152 93
153 1
154 32
160 26
161 487
162 268
163 244
164 75
165 217
166 127
175 249
176 231
177 103
178 153
179 197
180 68
187 28
189 634
190 215
191 90
192 17
193 62
194 4
204 666
205 276
206 163
207 156
208 36
221 150
222 227
223 59
249 35
264 50

$$$$

     RDKit          2D

 14 14  0  0  0  0  0  0  0  0999 V2000
   -1.5890   -3.5800    0.0000 C   0  0  0  0  0  0  0  0  0  0  0  0
    1.0090   -3.5800    0.0000 C   0  0  0  0  0  0  0  0  0  0  0  0
   -0.2900    3.1700    0.0000 C   0  0  0  0  0  0  0  0  0  0  0  0
    4.9070   -1.3306    0.0000 C   0  0  0  0  0  0  0  0  0  0  0  0
   -1.5900    0.9200    0.0000 C   0  0  0  0  0  0  0  0  0  0  0  0
   -1.5900   -0.5800    0.0000 C   0  0  0  0  0  0  0  0  0  0  0  0
    1.0100    0.9200    0.0000 C   0  0  0  0  0  0  0  0  0  0  0  0
   -0.2900   -2.8300    0.0000 C   0  0  0  0  0  0  0  0  0  0  0  0
   -0.2900    1.6700    0.0000 C   0  0  0  0  0  0  0  0  0  0  0  0
    3.6081   -0.5804    0.0000 C   0  0  0  0  0  0  0  0  0  0  0  0
   -0.2900   -1.3300    0.0000 C   0  0  0  0  0  0  0  0  0  0  0  0
    1.0100   -0.5800    0.0000 C   0  0  0  0  0  0  0  0  0  0  0  0
    3.6083    0.9196    0.0000 O   0  0  0  0  0  0  0  0  0  0  0  0
    2.3089   -1.3302    0.0000 O   0  0  0  0  0  0  0  0  0  0  0  0
  6  5  1  0
  8  1  1  0
  8  2  1  0
  9  3  1  0
  9  5  1  0
  9  7  1  0
 10  4  1  0
 11  6  1  0
 11  8  1  0
 12  7  1  0
 12 11  1  0
 13 10  2  0
 14 10  1  0
 14 12  1  0
M  END
>  <NAME>  (3544) 
MENTHYL ACETATE

>  <SYNONYMS>  (3544) 
2-ISOPROPYL-5-METHYLCYCLOHEXYL ACETATE

>  <SPECTRUM TYPE>  (3544) 
MS1

>  <INSTRUMENT TYPE>  (3544) 
EI-B

>  <INSTRUMENT>  (3544) 
HITACHI M-80B

>  <ION MODE>  (3544) 
P

>  <INCHIKEY>  (3544) 
XHXUANMFYXWVNG-UHFFFAOYSA-N

>  <FORMULA>  (3544) 
C12H22O2

>  <EXACT MASS>  (3544) 
198.161979944

>  <MW>  (3544) 
198

>  <ID>  (3544) 
JP006483

>  <CONTRIBUTOR>  (3544) 
University of Tokyo Team, {Faculty of Engineering, University of Tokyo

>  <COMMENT>  (3544) 
SMILES=CC(=O)OC(C1)C(CCC(C)1)C(C)C
InChI=InChI=1S/C12H22O2/c1-8(2)11-6-5-9(3)7-12(11)14-10(4)13/h8-9,11-12H,5-7H2,1-4H3
computed SMILES=O=C(OC1CC(C)CCC1C(C)C)C
accession=JP006483
date=2016.01.19 (Created 2008.10.21, modified 2011.05.06)
author=HISAHIRO HAGIWARA, CHEMICAL RESEARCH INSTITUTE OF NON-AQUEOUSSOLUTIONS TOHOKU UNIV.
license=CC BY-NC-SA
exact mass=198.16198
ionization energy=70 eV
ion type=[M]+*
computed spectral entropy=3.0603995781584143
computed normalized entropy=0.7783660477430409
SPLASH=splash10-000y-9200000000-ac3e4875859b716d22de
submitter=submitter = University of Tokyo Team (Faculty of Engineering, University of Tokyo)
MoNA Rating=3.75

>  <NUM PEAKS>  (3544) 
51

>  <MASS SPECTRAL PEAKS>  (3544) 
15 1.96
27 6.89
28 1
29 6.6
39 6.67
40 1.48
41 29.48
42 3.55
43 99.99
44 2.47
45 1.01
53 4.74
54 3.38
55 27.05
56 4.86
57 8.24
58 1.19
61 2.13
65 1.38
67 18.23
68 7.35
69 19.73
70 3.16
71 16.67
77 2.27
79 4.17
80 5.83
81 59.02
82 27.43
83 9.75
84 1.41
85 3.73
86 1.09
91 1.19
93 1.62
94 7.98
95 99.19
96 23.76
97 3.33
99 1.38
109 7.42
110 4.54
111 1.28
112 1.07
113 3.7
123 34.88
124 2.81
137 1.59
138 57.13
139 5.73
141 1.68

>  <PREDICTED SPECTRUM>  (3544) 
15 42
25 0
26 44
27 271
28 146
29 292
30 56
31 97
38 22
39 282
40 102
41 621
42 216
43 756
44 130
45 90
51 72
52 59
53 203
54 253
55 577
56 283
57 413
58 62
59 6
61 145
62 5
63 50
65 110
66 104
67 489
68 377
69 483
70 198
71 347
72 74
77 162
79 198
80 237
81 837
82 544
83 483
84 89
85 47
91 9
93 142
94 250
95 999
96 603
97 266
98 30
109 371
110 210
111 101
112 52
113 122
123 522
124 153
138 870
139 204
140 36

$$$$

     RDKit          2D

 14 13  0  0  0  0  0  0  0  0999 V2000
   -8.7685    6.1875    0.0000 C   0  0  0  0  0  0  0  0  0  0  0  0
   -7.4695    3.9375    0.0000 C   0  0  0  0  0  0  0  0  0  0  0  0
   -2.2733    3.9375    0.0000 C   0  0  0  0  0  0  0  0  0  0  0  0
    4.2219    6.1875    0.0000 C   0  0  0  0  0  0  0  0  0  0  0  0
   -4.8714    5.4375    0.0000 C   0  0  0  0  0  0  0  0  0  0  0  0
   -6.1704    6.1875    0.0000 C   0  0  0  0  0  0  0  0  0  0  0  0
   -3.5724    6.1875    0.0000 C   0  0  0  0  0  0  0  0  0  0  0  0
   -0.9743    6.1875    0.0000 C   0  0  0  0  0  0  0  0  0  0  0  0
    0.3248    5.4375    0.0000 C   0  0  0  0  0  0  0  0  0  0  0  0
   -7.4695    5.4375    0.0000 C   0  0  0  0  0  0  0  0  0  0  0  0
   -2.2733    5.4375    0.0000 C   0  0  0  0  0  0  0  0  0  0  0  0
    2.9228    5.4375    0.0000 C   0  0  0  0  0  0  0  0  0  0  0  0
    2.9228    3.9375    0.0000 O   0  0  0  0  0  0  0  0  0  0  0  0
    1.6238    6.1875    0.0000 O   0  0  0  0  0  0  0  0  0  0  0  0
  6  5  1  0
  7  5  1  0
  9  8  1  0
 10  1  1  0
 10  2  1  0
 10  6  2  0
 11  3  1  0
 11  7  1  0
 11  8  1  0
 12  4  1  0
 13 12  2  0
 14  9  1  0
 14 12  1  0
M  END
>  <NAME>  (3545) 
CITRONELLYL ACETATE

>  <SYNONYMS>  (3545) 
3,7-DIMETHYL-6-OCTENYL ACETATE

>  <SPECTRUM TYPE>  (3545) 
MS1

>  <INSTRUMENT TYPE>  (3545) 
EI-B

>  <INSTRUMENT>  (3545) 
HITACHI M-80B

>  <ION MODE>  (3545) 
P

>  <INCHIKEY>  (3545) 
JOZKFWLRHCDGJA-UHFFFAOYSA-N

>  <FORMULA>  (3545) 
C12H22O2

>  <EXACT MASS>  (3545) 
198.161979944

>  <MW>  (3545) 
198

>  <ID>  (3545) 
JP006482

>  <CONTRIBUTOR>  (3545) 
University of Tokyo Team, {Faculty of Engineering, University of Tokyo

>  <COMMENT>  (3545) 
SMILES=CC(C)=CCCC(C)CCOC(C)=O
InChI=InChI=1S/C12H22O2/c1-10(2)6-5-7-11(3)8-9-14-12(4)13/h6,11H,5,7-9H2,1-4H3
computed SMILES=O=C(OCCC(C)CCC=C(C)C)C
accession=JP006482
date=2016.01.19 (Created 2008.10.21, modified 2011.05.06)
author=HISAHIRO HAGIWARA, CHEMICAL RESEARCH INSTITUTE OF NON-AQUEOUSSOLUTIONS TOHOKU UNIV.
license=CC BY-NC-SA
exact mass=198.16198
ionization energy=70 eV
ion type=[M]+*
computed spectral entropy=3.0780197535852287
computed normalized entropy=0.7951071889349807
SPLASH=splash10-00l6-9100000000-045f190926c18eb95193
submitter=submitter = University of Tokyo Team (Faculty of Engineering, University of Tokyo)
MoNA Rating=3.75

>  <NUM PEAKS>  (3545) 
48

>  <MASS SPECTRAL PEAKS>  (3545) 
15 4.37
27 10.6
28 2.11
29 9.84
31 1.24
39 12.98
40 3.36
41 80.76
42 9.12
43 99.99
44 2.63
45 1.08
51 1.61
52 1.14
53 10.35
54 4.33
55 46.01
56 10.16
57 6.86
61 4.29
65 1.96
66 1.4
67 46.29
68 34.94
69 83.14
70 8.91
71 2.65
73 1.94
77 1.83
79 3.06
80 4.14
81 72.46
82 56.56
83 9.84
91 1.21
93 1.4
94 3.5
95 64
96 12.1
97 1.56
109 25.09
110 6.16
111 1.13
123 47.52
124 4.53
137 1.29
138 30.42
139 2.94

>  <PREDICTED SPECTRUM>  (3545) 
26 12
27 150
28 17
29 180
31 71
38 15
39 274
40 100
41 768
42 250
43 803
44 137
45 77
50 19
51 86
52 52
53 286
54 311
55 676
56 274
57 288
58 51
59 2
61 172
62 43
63 7
65 107
66 132
67 655
68 613
69 755
70 261
71 201
72 6
73 40
77 95
79 241
80 159
81 906
82 814
83 272
84 86
85 36
86 61
87 22
91 25
93 74
94 116
95 999
96 596
97 159
98 41
99 47
107 138
108 3
109 491
110 280
111 75
112 10
113 34
123 707
124 229
125 55
137 176
138 516
139 125
140 28
155 15

$$$$

     RDKit          2D

 14 14  0  0  0  0  0  0  0  0999 V2000
    2.1821   -1.1215    0.0000 C   0  0  0  0  0  0  0  0  0  0  0  0
   -0.2592   -2.0103    0.0000 C   0  0  0  0  0  0  0  0  0  0  0  0
   -3.7065    2.7998    0.0000 C   0  0  0  0  0  0  0  0  0  0  0  0
    3.6587    2.4795    0.0000 C   0  0  0  0  0  0  0  0  0  0  0  0
   -1.1083    2.8000    0.0000 C   0  0  0  0  0  0  0  0  0  0  0  0
   -2.4069    0.5492    0.0000 C   0  0  0  0  0  0  0  0  0  0  0  0
    0.1912    2.0492    0.0000 C   0  0  0  0  0  0  0  0  0  0  0  0
   -1.1073   -0.2017    0.0000 C   0  0  0  0  0  0  0  0  0  0  0  0
    0.7049   -0.8612    0.0000 C   0  0  0  0  0  0  0  0  0  0  0  0
   -2.4073    2.0500    0.0000 C   0  0  0  0  0  0  0  0  0  0  0  0
    2.1816    2.2188    0.0000 C   0  0  0  0  0  0  0  0  0  0  0  0
    0.1917    0.5483    0.0000 C   0  0  0  0  0  0  0  0  0  0  0  0
    1.2172    3.3676    0.0000 O   0  0  0  0  0  0  0  0  0  0  0  0
    1.6689    0.8091    0.0000 O   0  0  0  0  0  0  0  0  0  0  0  0
  7  5  1  0
  8  6  1  0
  9  1  1  0
  9  2  1  0
 10  3  1  0
 10  5  2  0
 10  6  1  0
 11  4  1  0
 12  7  1  0
 12  8  1  0
 12  9  1  0
 13 11  2  0
 14 11  1  0
 14 12  1  0
M  END
>  <NAME>  (3546) 
4-TERPINYL ACETATE

>  <SYNONYMS>  (3546) 


>  <SPECTRUM TYPE>  (3546) 
MS1

>  <INSTRUMENT TYPE>  (3546) 
EI-B

>  <INSTRUMENT>  (3546) 
HITACHI M-80B

>  <ION MODE>  (3546) 
P

>  <INCHIKEY>  (3546) 
BFCBRSFYYLSTAA-UHFFFAOYSA-N

>  <FORMULA>  (3546) 
C12H20O2

>  <EXACT MASS>  (3546) 
196.14632988

>  <MW>  (3546) 
196

>  <ID>  (3546) 
JP006481

>  <CONTRIBUTOR>  (3546) 
University of Tokyo Team, {Faculty of Engineering, University of Tokyo

>  <COMMENT>  (3546) 
SMILES=CC(=O)OC(C1)(CC=C(C)C1)C(C)C
InChI=InChI=1S/C12H20O2/c1-9(2)12(14-11(4)13)7-5-10(3)6-8-12/h5,9H,6-8H2,1-4H3
computed SMILES=O=C(OC1(CC=C(C)CC1)C(C)C)C
accession=JP006481
date=2016.01.19 (Created 2008.10.21, modified 2011.05.06)
author=HISAHIRO HAGIWARA, CHEMICAL RESEARCH INSTITUTE OF NON-AQUEOUSSOLUTIONS TOHOKU UNIV.
license=CC BY-NC-SA
exact mass=196.14633
ionization energy=70 eV
ion type=[M]+*
computed spectral entropy=2.9322232345756225
computed normalized entropy=0.7795977731524989
SPLASH=splash10-0006-9500000000-1b72010f952f5778547f
submitter=submitter = University of Tokyo Team (Faculty of Engineering, University of Tokyo)
MoNA Rating=3.75

>  <NUM PEAKS>  (3546) 
43

>  <MASS SPECTRAL PEAKS>  (3546) 
15 1.59
27 6.19
29 3.02
39 5.76
40 1.18
41 17.87
42 1.92
43 52.53
51 1.81
53 7.48
55 5.24
61 1.93
65 2.56
67 7.46
68 4.65
69 4.28
71 6.36
77 12.83
78 2.12
79 9.76
80 3.79
81 11.14
82 1.17
86 2.06
91 12.61
92 24.41
93 99.99
94 9.91
95 3.86
105 4.05
106 1.11
107 6.36
108 3.37
110 2.82
111 27.89
112 1.93
119 1.36
121 63.05
122 5.49
136 64.25
137 7.87
153 1.85
154 1.02

>  <PREDICTED SPECTRUM>  (3546) 
27 95
28 10
29 48
38 38
39 272
40 135
41 480
42 97
43 999
44 154
45 126
50 65
51 177
52 146
53 329
54 138
55 335
56 85
57 69
58 34
59 59
60 92
61 37
63 75
65 260
66 173
67 332
68 198
69 313
70 69
71 212
72 27
77 317
78 141
79 463
80 228
81 355
82 37
83 93
86 18
91 421
92 248
93 928
94 497
95 207
96 54
97 34
103 65
105 167
106 93
107 434
108 309
109 62
110 67
111 242
112 24
119 94
121 771
122 328
123 98
125 47
135 37
136 538
137 253
138 19
139 55
153 236
154 73
196 9

$$$$

     RDKit          2D

 14 14  0  0  0  0  0  0  0  0999 V2000
    4.5241   -0.2823    0.0000 C   0  0  0  0  0  0  0  0  0  0  0  0
    3.2254   -2.5325    0.0000 C   0  0  0  0  0  0  0  0  0  0  0  0
   -4.5917    1.8463    0.0000 C   0  0  0  0  0  0  0  0  0  0  0  0
   -1.1862    2.6285    0.0000 C   0  0  0  0  0  0  0  0  0  0  0  0
    0.6270   -1.0327    0.0000 C   0  0  0  0  0  0  0  0  0  0  0  0
    1.9256    1.2182    0.0000 C   0  0  0  0  0  0  0  0  0  0  0  0
   -0.6725   -0.2818    0.0000 C   0  0  0  0  0  0  0  0  0  0  0  0
    0.6260    1.9690    0.0000 C   0  0  0  0  0  0  0  0  0  0  0  0
    3.2252   -1.0325    0.0000 C   0  0  0  0  0  0  0  0  0  0  0  0
   -3.1146    2.1071    0.0000 C   0  0  0  0  0  0  0  0  0  0  0  0
    1.9260   -0.2827    0.0000 C   0  0  0  0  0  0  0  0  0  0  0  0
   -0.6730    1.2190    0.0000 C   0  0  0  0  0  0  0  0  0  0  0  0
   -2.6018    3.5167    0.0000 O   0  0  0  0  0  0  0  0  0  0  0  0
   -2.1502    0.9582    0.0000 O   0  0  0  0  0  0  0  0  0  0  0  0
  7  5  1  0
  8  6  1  0
  9  1  2  0
  9  2  1  0
 10  3  1  0
 11  5  1  0
 11  6  1  0
 11  9  1  0
 12  4  1  0
 12  7  1  0
 12  8  1  0
 13 10  2  0
 14 10  1  0
 14 12  1  0
M  END
>  <NAME>  (3547) 
BETA-TERPINYL ACETATE

>  <SYNONYMS>  (3547) 


>  <SPECTRUM TYPE>  (3547) 
MS1

>  <INSTRUMENT TYPE>  (3547) 
EI-B

>  <INSTRUMENT>  (3547) 
HITACHI M-80B

>  <ION MODE>  (3547) 
P

>  <INCHIKEY>  (3547) 
URVNHQCLMBMWIW-UHFFFAOYSA-N

>  <FORMULA>  (3547) 
C12H20O2

>  <EXACT MASS>  (3547) 
196.14632988

>  <MW>  (3547) 
196

>  <ID>  (3547) 
JP006480

>  <CONTRIBUTOR>  (3547) 
University of Tokyo Team, {Faculty of Engineering, University of Tokyo

>  <COMMENT>  (3547) 
SMILES=CC(=O)OC(C)(C1)CCC(C(C)=C)C1
InChI=InChI=1S/C12H20O2/c1-9(2)11-5-7-12(4,8-6-11)14-10(3)13/h11H,1,5-8H2,2-4H3
computed SMILES=O=C(OC1(C)CCC(C(=C)C)CC1)C
accession=JP006480
date=2016.01.19 (Created 2008.10.21, modified 2011.05.06)
author=HISAHIRO HAGIWARA, CHEMICAL RESEARCH INSTITUTE OF NON-AQUEOUSSOLUTIONS TOHOKU UNIV.
license=CC BY-NC-SA
exact mass=196.14633
ionization energy=70 eV
ion type=[M]+*
computed spectral entropy=3.248567779225428
computed normalized entropy=0.8182188740673768
SPLASH=splash10-0006-9200000000-3f599a73b2235d405fec
submitter=submitter = University of Tokyo Team (Faculty of Engineering, University of Tokyo)
MoNA Rating=3.75

>  <NUM PEAKS>  (3547) 
53

>  <MASS SPECTRAL PEAKS>  (3547) 
15 3.03
27 7.9
29 10.01
39 14.08
40 3.03
41 25.47
42 2.9
43 99.99
44 1.87
45 1.17
51 1.9
52 1.27
53 13.8
54 2.45
55 16.39
56 1.29
57 1.59
58 3.96
61 1.16
65 3.23
66 2.14
67 23.52
68 60.91
69 14.99
71 17.1
72 1.06
77 7.66
78 2.43
79 26.11
80 14.31
81 31.66
82 3.87
83 4.1
84 2.64
91 7.61
92 30.14
93 91.37
94 47.51
95 23.26
96 2.44
97 1.84
105 3.53
106 1.23
107 48.06
108 14.57
109 2.52
111 2.61
121 46.24
122 4.26
135 1.18
136 49.09
137 8.52
139 2.65

>  <PREDICTED SPECTRUM>  (3547) 
26 23
27 196
28 27
29 106
37 10
38 34
39 310
40 157
41 577
42 198
43 999
44 101
45 87
50 64
51 132
52 87
53 313
54 218
55 403
56 200
57 201
58 184
59 98
61 35
62 3
63 53
64 12
65 183
66 140
67 636
68 652
69 457
70 172
71 324
72 85
73 60
77 239
78 102
79 380
80 257
81 426
82 458
83 253
84 172
85 184
86 142
87 46
91 261
92 215
93 541
94 367
95 418
96 181
97 165
99 53
100 63
103 28
105 115
106 64
107 310
108 423
109 382
110 237
111 264
112 90
113 5
119 90
120 28
121 481
122 165
126 7
127 7
128 26
134 49
135 102
136 369
137 227
138 155
139 125
140 31
153 56
154 44
155 8
163 8
169 0
181 33

$$$$

     RDKit          2D

 14 14  0  0  0  0  0  0  0  0999 V2000
   -2.5989   -1.5002    0.0000 C   0  0  0  0  0  0  0  0  0  0  0  0
    6.4962    0.7508    0.0000 C   0  0  0  0  0  0  0  0  0  0  0  0
    3.5629    2.6494    0.0000 C   0  0  0  0  0  0  0  0  0  0  0  0
    1.6346    2.6491    0.0000 C   0  0  0  0  0  0  0  0  0  0  0  0
   -1.3000    0.7500    0.0000 C   0  0  0  0  0  0  0  0  0  0  0  0
   -0.0000   -1.5000    0.0000 C   0  0  0  0  0  0  0  0  0  0  0  0
    0.0000    1.5000    0.0000 C   0  0  0  0  0  0  0  0  0  0  0  0
    1.3000   -0.7500    0.0000 C   0  0  0  0  0  0  0  0  0  0  0  0
   -1.3000   -0.7500    0.0000 C   0  0  0  0  0  0  0  0  0  0  0  0
    5.1970    1.5006    0.0000 C   0  0  0  0  0  0  0  0  0  0  0  0
    1.3000    0.7500    0.0000 C   0  0  0  0  0  0  0  0  0  0  0  0
    2.5989    1.5002    0.0000 C   0  0  0  0  0  0  0  0  0  0  0  0
    5.1968    3.0006    0.0000 O   0  0  0  0  0  0  0  0  0  0  0  0
    3.8981    0.7504    0.0000 O   0  0  0  0  0  0  0  0  0  0  0  0
  7  5  1  0
  8  6  1  0
  9  1  1  0
  9  5  2  0
  9  6  1  0
 10  2  1  0
 11  7  1  0
 11  8  1  0
 12  3  1  0
 12  4  1  0
 12 11  1  0
 13 10  2  0
 14 10  1  0
 14 12  1  0
M  END
>  <NAME>  (3548) 
ALPHA-TERPINYL ACETATE

>  <SYNONYMS>  (3548) 
P-MENTH-1-EN-8-YL ACETATE

>  <SPECTRUM TYPE>  (3548) 
MS1

>  <INSTRUMENT TYPE>  (3548) 
EI-B

>  <INSTRUMENT>  (3548) 
HITACHI M-80B

>  <ION MODE>  (3548) 
P

>  <INCHIKEY>  (3548) 
IGODOXYLBBXFDW-UHFFFAOYSA-N

>  <FORMULA>  (3548) 
C12H20O2

>  <EXACT MASS>  (3548) 
196.14632988

>  <MW>  (3548) 
196

>  <ID>  (3548) 
JP006479

>  <CONTRIBUTOR>  (3548) 
University of Tokyo Team, {Faculty of Engineering, University of Tokyo

>  <COMMENT>  (3548) 
SMILES=CC(=O)OC(C)(C)C(C1)CC=C(C)C1
InChI=InChI=1S/C12H20O2/c1-9-5-7-11(8-6-9)12(3,4)14-10(2)13/h5,11H,6-8H2,1-4H3
computed SMILES=O=C(OC(C)(C)C1CC=C(C)CC1)C
accession=JP006479
date=2016.01.19 (Created 2008.10.21, modified 2011.05.06)
author=HISAHIRO HAGIWARA, CHEMICAL RESEARCH INSTITUTE OF NON-AQUEOUSSOLUTIONS TOHOKU UNIV.
license=CC BY-NC-SA
exact mass=196.14633
ionization energy=70 eV
ion type=[M]+*
computed spectral entropy=3.0833128500483586
computed normalized entropy=0.7765960078461321
SPLASH=splash10-006x-9500000000-ffe7aaa2d3a38a8ed5b8
submitter=submitter = University of Tokyo Team (Faculty of Engineering, University of Tokyo)
MoNA Rating=3.75

>  <NUM PEAKS>  (3548) 
53

>  <MASS SPECTRAL PEAKS>  (3548) 
15 1.38
18 1.22
27 5.26
28 1.79
29 4.01
31 1.24
39 8.95
40 2.14
41 18.49
42 1.81
43 82.49
44 1.85
45 1.12
51 2.06
52 1.16
53 9.59
54 1.17
55 7.93
57 1.01
59 18.52
65 3.12
66 1.48
67 12.97
68 8.89
69 7.76
71 1.69
77 11.23
78 2.15
79 14.79
80 7.46
81 17.08
82 1.27
91 9.49
92 13.66
93 70.98
94 9.78
95 14.2
96 1.19
101 2.91
105 5.2
106 1.16
107 11.22
108 5.8
109 1.05
119 1.39
121 99.99
122 9.89
123 2.4
136 69.98
137 12.18
138 1.55
139 7.53
181 1.11

>  <PREDICTED SPECTRUM>  (3548) 
15 4
17 3
26 18
27 186
28 94
29 155
31 75
38 19
39 272
40 130
41 508
42 154
43 691
44 139
45 190
49 39
50 59
51 151
52 102
53 298
54 166
55 322
56 132
57 146
58 118
59 365
60 121
61 54
63 45
64 0
65 184
66 122
67 413
68 413
69 314
70 77
71 65
72 25
73 26
77 336
78 112
79 434
80 407
81 519
82 109
83 74
84 73
85 61
91 337
92 411
93 999
94 514
95 463
96 169
97 70
98 8
100 7
101 156
103 35
105 136
107 423
108 348
109 81
110 104
111 20
112 3
119 74
121 950
122 306
123 32
135 103
136 989
137 399
138 138
139 88

$$$$

     RDKit          2D

 13 12  0  0  0  0  0  0  0  0999 V2000
   -8.7685    6.1875    0.0000 C   0  0  0  0  0  0  0  0  0  0  0  0
   -7.4695    3.9375    0.0000 C   0  0  0  0  0  0  0  0  0  0  0  0
   -2.2733    3.9375    0.0000 C   0  0  0  0  0  0  0  0  0  0  0  0
   -4.8714    5.4375    0.0000 C   0  0  0  0  0  0  0  0  0  0  0  0
   -6.1704    6.1875    0.0000 C   0  0  0  0  0  0  0  0  0  0  0  0
   -3.5724    6.1875    0.0000 C   0  0  0  0  0  0  0  0  0  0  0  0
   -0.9743    6.1875    0.0000 C   0  0  0  0  0  0  0  0  0  0  0  0
    0.3248    5.4375    0.0000 C   0  0  0  0  0  0  0  0  0  0  0  0
    2.9228    5.4375    0.0000 C   0  0  0  0  0  0  0  0  0  0  0  0
   -7.4695    5.4375    0.0000 C   0  0  0  0  0  0  0  0  0  0  0  0
   -2.2733    5.4375    0.0000 C   0  0  0  0  0  0  0  0  0  0  0  0
    4.2219    6.1875    0.0000 O   0  0  0  0  0  0  0  0  0  0  0  0
    1.6238    6.1875    0.0000 O   0  0  0  0  0  0  0  0  0  0  0  0
  5  4  1  0
  6  4  1  0
  8  7  1  0
 10  1  1  0
 10  2  1  0
 10  5  2  0
 11  3  1  0
 11  6  1  0
 11  7  1  0
 12  9  2  0
 13  8  1  0
 13  9  1  0
M  END
>  <NAME>  (3549) 
CITRONELLYL FORMATE

>  <SYNONYMS>  (3549) 
3,7-DIMETHYL-6-OCTENYL FORMATE

>  <SPECTRUM TYPE>  (3549) 
MS1

>  <INSTRUMENT TYPE>  (3549) 
EI-B

>  <INSTRUMENT>  (3549) 
HITACHI M-80B

>  <ION MODE>  (3549) 
P

>  <INCHIKEY>  (3549) 
DZNVIZQPWLDQHI-UHFFFAOYSA-N

>  <FORMULA>  (3549) 
C11H20O2

>  <EXACT MASS>  (3549) 
184.14632988

>  <MW>  (3549) 
184

>  <ID>  (3549) 
JP006478

>  <CONTRIBUTOR>  (3549) 
University of Tokyo Team, {Faculty of Engineering, University of Tokyo

>  <COMMENT>  (3549) 
SMILES=O=COCCC(C)CCC=C(C)C
InChI=InChI=1S/C11H20O2/c1-10(2)5-4-6-11(3)7-8-13-9-12/h5,9,11H,4,6-8H2,1-3H3
computed SMILES=O=COCCC(C)CCC=C(C)C
accession=JP006478
date=2016.01.19 (Created 2008.10.21, modified 2011.05.06)
author=HISAHIRO HAGIWARA, CHEMICAL RESEARCH INSTITUTE OF NON-AQUEOUSSOLUTIONS TOHOKU UNIV.
license=CC BY-NC-SA
exact mass=184.14633
ionization energy=70 eV
ion type=[M]+*
computed spectral entropy=3.0754180997501845
computed normalized entropy=0.8281562992473531
SPLASH=splash10-014i-9100000000-716f863fe49bf99429d8
submitter=submitter = University of Tokyo Team (Faculty of Engineering, University of Tokyo)
MoNA Rating=3.75

>  <NUM PEAKS>  (3549) 
41

>  <MASS SPECTRAL PEAKS>  (3549) 
18 1.39
27 10.9
28 2.51
29 10.58
31 13.07
39 14.3
40 3.57
41 72.39
42 7.8
43 9.52
45 1.44
51 1.55
53 10.61
54 3.72
55 49.32
56 20.84
57 6.28
65 1.62
66 1.06
67 29.92
68 33.35
69 99.99
70 13.78
71 1.68
77 1.41
79 1.87
80 2.08
81 39.53
82 38.65
83 13.01
84 1.15
94 1.91
95 39.85
96 11.27
97 1.03
109 16.72
110 6.69
123 29.6
124 3.03
138 21.75
139 2.03

>  <PREDICTED SPECTRUM>  (3549) 
26 30
27 246
28 78
29 321
30 10
31 108
37 3
38 37
39 339
40 145
41 872
42 294
43 429
44 99
45 49
50 47
51 114
52 63
53 305
54 191
55 712
56 382
57 418
62 11
63 54
65 185
66 125
67 659
68 465
69 942
70 286
71 131
77 221
78 55
79 256
80 233
81 999
82 822
83 356
84 76
85 130
91 106
93 81
94 188
95 953
96 547
97 45
99 92
101 54
107 38
109 623
110 298
111 87
121 14
123 830
124 257
125 8
137 55
138 535
139 83
184 80

$$$$

     RDKit          2D

 13 13  0  0  0  0  0  0  0  0999 V2000
    6.4962    2.6494    0.0000 C   0  0  0  0  0  0  0  0  0  0  0  0
    0.3343   -1.5002    0.0000 C   0  0  0  0  0  0  0  0  0  0  0  0
    2.2627   -1.4999    0.0000 C   0  0  0  0  0  0  0  0  0  0  0  0
    5.1972    0.3992    0.0000 C   0  0  0  0  0  0  0  0  0  0  0  0
    3.8972    2.6492    0.0000 C   0  0  0  0  0  0  0  0  0  0  0  0
    3.8972   -0.3508    0.0000 C   0  0  0  0  0  0  0  0  0  0  0  0
    2.5972    1.8992    0.0000 C   0  0  0  0  0  0  0  0  0  0  0  0
   -1.2998   -0.3514    0.0000 C   0  0  0  0  0  0  0  0  0  0  0  0
    5.1972    1.8992    0.0000 C   0  0  0  0  0  0  0  0  0  0  0  0
    2.5972    0.3992    0.0000 C   0  0  0  0  0  0  0  0  0  0  0  0
    1.2983   -0.3510    0.0000 C   0  0  0  0  0  0  0  0  0  0  0  0
   -2.5989    0.3984    0.0000 O   0  0  0  0  0  0  0  0  0  0  0  0
   -0.0008    0.3988    0.0000 O   0  0  0  0  0  0  0  0  0  0  0  0
  6  4  1  0
  7  5  1  0
  9  1  1  0
  9  4  2  0
  9  5  1  0
 10  6  1  0
 10  7  1  0
 11  2  1  0
 11  3  1  0
 11 10  1  0
 12  8  2  0
 13  8  1  0
 13 11  1  0
M  END
>  <NAME>  (3550) 
ALPHA-TERPINYL FORMATE

>  <SYNONYMS>  (3550) 
P-MENTH-1-EN-8-YL FORMATE

>  <SPECTRUM TYPE>  (3550) 
MS1

>  <INSTRUMENT TYPE>  (3550) 
EI-B

>  <INSTRUMENT>  (3550) 
HITACHI M-80B

>  <ION MODE>  (3550) 
P

>  <INCHIKEY>  (3550) 
IPYLQIQMGUZFCK-UHFFFAOYSA-N

>  <FORMULA>  (3550) 
C11H18O2

>  <EXACT MASS>  (3550) 
182.130679816

>  <MW>  (3550) 
182

>  <ID>  (3550) 
JP006477

>  <CONTRIBUTOR>  (3550) 
University of Tokyo Team, {Faculty of Engineering, University of Tokyo

>  <COMMENT>  (3550) 
SMILES=O=COC(C)(C)C(C1)CC=C(C)C1
InChI=InChI=1S/C11H18O2/c1-9-4-6-10(7-5-9)11(2,3)13-8-12/h4,8,10H,5-7H2,1-3H3
computed SMILES=O=COC(C)(C)C1CC=C(C)CC1
accession=JP006477
date=2016.01.19 (Created 2008.10.21, modified 2011.05.06)
author=HISAHIRO HAGIWARA, CHEMICAL RESEARCH INSTITUTE OF NON-AQUEOUSSOLUTIONS TOHOKU UNIV.
license=CC BY-NC-SA
exact mass=182.13068
ionization energy=70 eV
ion type=[M]+*
computed spectral entropy=3.1410256283962115
computed normalized entropy=0.8251389864053142
SPLASH=splash10-006x-9400000000-f0824f09ac00bfb006c8
submitter=submitter = University of Tokyo Team (Faculty of Engineering, University of Tokyo)
MoNA Rating=3.75

>  <NUM PEAKS>  (3550) 
45

>  <MASS SPECTRAL PEAKS>  (3550) 
18 2.01
27 6.11
28 1.52
29 7.33
31 3.97
39 13.29
40 2.64
41 25.44
42 1.83
43 19.11
51 2.66
52 1.46
53 12.11
54 1.96
55 10.38
59 26
65 3.49
66 1.57
67 18.08
68 12.63
69 11.11
71 2.79
77 12.35
78 2.09
79 15.9
80 6.1
81 24.09
82 1.81
91 10.81
92 11.81
93 71.74
94 8.95
95 15.64
96 1.43
105 4.11
106 1.15
107 10.67
108 4.76
119 1.16
121 99.99
122 9.56
136 55.47
137 14.14
138 1.15
139 2.07

>  <PREDICTED SPECTRUM>  (3550) 
26 25
27 198
28 46
29 215
30 67
31 189
33 10
37 4
38 39
39 280
40 135
41 570
42 207
43 644
44 129
45 183
46 15
50 69
51 158
52 112
53 353
54 127
55 353
56 139
57 99
58 57
59 486
60 71
61 28
62 5
63 61
64 12
65 205
66 147
67 412
68 406
69 466
70 105
71 165
72 141
73 19
75 67
77 356
78 138
79 364
80 421
81 554
82 221
83 141
84 99
85 2
86 31
87 130
91 344
92 384
93 999
94 419
95 390
96 170
97 92
98 29
99 72
103 11
105 226
106 39
107 437
108 344
109 295
110 134
111 83
112 49
113 8
114 10
119 175
121 975
122 319
123 151
124 104
125 52
135 204
136 921
137 542
138 34
139 65
150 18
151 83
152 80
153 64
167 18
182 12

$$$$

     RDKit          2D

 13 12  0  0  0  0  0  0  0  0999 V2000
    3.8971    6.7500    0.0000 C   0  0  0  0  0  0  0  0  0  0  0  0
    2.5981    4.5000    0.0000 C   0  0  0  0  0  0  0  0  0  0  0  0
   -2.5981    4.5000    0.0000 C   0  0  0  0  0  0  0  0  0  0  0  0
    0.0000    6.0000    0.0000 C   0  0  0  0  0  0  0  0  0  0  0  0
    1.2990    6.7500    0.0000 C   0  0  0  0  0  0  0  0  0  0  0  0
   -1.2990    6.7500    0.0000 C   0  0  0  0  0  0  0  0  0  0  0  0
   -3.8971    6.7500    0.0000 C   0  0  0  0  0  0  0  0  0  0  0  0
   -3.8971    8.2500    0.0000 C   0  0  0  0  0  0  0  0  0  0  0  0
   -5.1962   10.5000    0.0000 C   0  0  0  0  0  0  0  0  0  0  0  0
    2.5981    6.0000    0.0000 C   0  0  0  0  0  0  0  0  0  0  0  0
   -2.5981    6.0000    0.0000 C   0  0  0  0  0  0  0  0  0  0  0  0
   -6.4952   11.2500    0.0000 O   0  0  0  0  0  0  0  0  0  0  0  0
   -5.1962    9.0000    0.0000 O   0  0  0  0  0  0  0  0  0  0  0  0
  5  4  1  0
  6  4  1  0
  8  7  1  0
 10  1  1  0
 10  2  1  0
 10  5  2  0
 11  3  1  0
 11  6  1  0
  7 11  2  0
 12  9  2  0
 13  8  1  0
 13  9  1  0
M  END
>  <NAME>  (3551) 
NERYL FORMATE

>  <SYNONYMS>  (3551) 
(Z)-3,7-DIMETHYL-2,6-OCTADIENYL FORMATE

>  <SPECTRUM TYPE>  (3551) 
MS1

>  <INSTRUMENT TYPE>  (3551) 
EI-B

>  <INSTRUMENT>  (3551) 
HITACHI M-80B

>  <ION MODE>  (3551) 
P

>  <INCHIKEY>  (3551) 
FQMZVFJYMPNUCT-XFFZJAGNSA-N

>  <FORMULA>  (3551) 
C11H18O2

>  <EXACT MASS>  (3551) 
182.130679816

>  <MW>  (3551) 
182

>  <ID>  (3551) 
JP006476

>  <CONTRIBUTOR>  (3551) 
University of Tokyo Team, {Faculty of Engineering, University of Tokyo

>  <COMMENT>  (3551) 
SMILES=O=COCC([H])=C(C)CCC=C(C)C
InChI=InChI=1S/C11H18O2/c1-10(2)5-4-6-11(3)7-8-13-9-12/h5,7,9H,4,6,8H2,1-3H3/b11-7-
computed SMILES=O=COCC=C(C)CCC=C(C)C
accession=JP006476
date=2016.01.19 (Created 2008.10.21, modified 2011.05.06)
author=HISAHIRO HAGIWARA, CHEMICAL RESEARCH INSTITUTE OF NON-AQUEOUSSOLUTIONS TOHOKU UNIV.
license=CC BY-NC-SA
exact mass=182.13068
ionization energy=70 eV
ion type=[M]+*
computed spectral entropy=2.606348641327668
computed normalized entropy=0.7330783361434974
SPLASH=splash10-014l-9000000000-279f1c08bc764167c2f4
submitter=submitter = University of Tokyo Team (Faculty of Engineering, University of Tokyo)
MoNA Rating=3.75

>  <NUM PEAKS>  (3551) 
35

>  <MASS SPECTRAL PEAKS>  (3551) 
27 8.53
29 7.97
31 1.46
39 13.32
40 2.55
41 59.89
42 3.14
43 3.83
51 1.73
52 1.18
53 10.42
54 1.08
55 4.65
57 1.53
65 1.8
66 1.07
67 10.16
68 21.34
69 99.99
70 6.37
77 2.74
79 3.26
80 6.94
81 5.13
83 1.15
84 1.56
91 2.13
92 3.41
93 15.38
94 2.27
95 1.11
107 1.61
121 5.22
136 9.65
137 1.43

>  <PREDICTED SPECTRUM>  (3551) 
25 4
26 30
27 189
28 59
29 243
30 47
31 62
37 35
38 68
39 300
40 161
41 798
42 248
43 392
44 110
45 71
50 55
51 109
52 104
53 323
54 130
55 340
56 144
57 231
58 87
59 137
60 24
61 2
62 24
63 60
64 33
65 178
66 110
67 456
68 586
69 999
70 280
71 234
72 101
77 210
78 113
79 197
80 378
81 535
82 210
83 184
84 118
85 154
86 56
87 111
91 218
92 316
93 588
94 291
95 275
96 142
97 93
98 67
99 132
100 61
105 120
107 272
108 238
109 161
110 60
111 111
112 78
113 124
114 47
115 0
119 20
120 5
121 444
122 222
123 220
124 64
125 53
126 65
127 20
135 17
136 374
137 222
138 61
139 158
140 62
153 1
154 22
167 45
182 127
183 46

$$$$

     RDKit          2D

 13 13  0  0  0  0  0  0  0  0999 V2000
   -1.5890   -3.5800    0.0000 C   0  0  0  0  0  0  0  0  0  0  0  0
    1.0090   -3.5800    0.0000 C   0  0  0  0  0  0  0  0  0  0  0  0
   -0.2900    3.1700    0.0000 C   0  0  0  0  0  0  0  0  0  0  0  0
   -1.5900    0.9200    0.0000 C   0  0  0  0  0  0  0  0  0  0  0  0
   -1.5900   -0.5800    0.0000 C   0  0  0  0  0  0  0  0  0  0  0  0
    1.0100    0.9200    0.0000 C   0  0  0  0  0  0  0  0  0  0  0  0
    3.6081   -0.5804    0.0000 C   0  0  0  0  0  0  0  0  0  0  0  0
   -0.2900   -2.8300    0.0000 C   0  0  0  0  0  0  0  0  0  0  0  0
   -0.2900    1.6700    0.0000 C   0  0  0  0  0  0  0  0  0  0  0  0
   -0.2900   -1.3300    0.0000 C   0  0  0  0  0  0  0  0  0  0  0  0
    1.0100   -0.5800    0.0000 C   0  0  0  0  0  0  0  0  0  0  0  0
    4.9070   -1.3306    0.0000 O   0  0  0  0  0  0  0  0  0  0  0  0
    2.3089   -1.3302    0.0000 O   0  0  0  0  0  0  0  0  0  0  0  0
  5  4  1  0
  8  1  1  0
  8  2  1  0
  9  3  1  0
  9  4  1  0
  9  6  1  0
 10  5  1  0
 10  8  1  0
 11  6  1  0
 11 10  1  0
 12  7  2  0
 13  7  1  0
 13 11  1  0
M  END
>  <NAME>  (3552) 
MENTHYL FORMATE

>  <SYNONYMS>  (3552) 
2-ISOPROPYL-5-METHYLCYCLOHEXYL FORMATE

>  <SPECTRUM TYPE>  (3552) 
MS1

>  <INSTRUMENT TYPE>  (3552) 
EI-B

>  <INSTRUMENT>  (3552) 
HITACHI M-80B

>  <ION MODE>  (3552) 
P

>  <INCHIKEY>  (3552) 
XEYZAKCJAFSLGZ-UHFFFAOYSA-N

>  <FORMULA>  (3552) 
C11H20O2

>  <EXACT MASS>  (3552) 
184.14632988

>  <MW>  (3552) 
184

>  <ID>  (3552) 
JP006475

>  <CONTRIBUTOR>  (3552) 
University of Tokyo Team, {Faculty of Engineering, University of Tokyo

>  <COMMENT>  (3552) 
SMILES=O=COC(C1)C(CCC(C)1)C(C)C
InChI=InChI=1S/C11H20O2/c1-8(2)10-5-4-9(3)6-11(10)13-7-12/h7-11H,4-6H2,1-3H3
computed SMILES=O=COC1CC(C)CCC1C(C)C
accession=JP006475
date=2016.01.19 (Created 2008.10.21, modified 2011.05.06)
author=HISAHIRO HAGIWARA, CHEMICAL RESEARCH INSTITUTE OF NON-AQUEOUSSOLUTIONS TOHOKU UNIV.
license=CC BY-NC-SA
exact mass=184.14633
ionization energy=70 eV
ion type=[M]+*
computed spectral entropy=3.1273224656083745
computed normalized entropy=0.831469310170352
SPLASH=splash10-000t-9100000000-293cd98a683ce45c6920
submitter=submitter = University of Tokyo Team (Faculty of Engineering, University of Tokyo)
MoNA Rating=3.75

>  <NUM PEAKS>  (3552) 
43

>  <MASS SPECTRAL PEAKS>  (3552) 
18 2.44
27 11.36
28 1.15
29 11.15
31 1.45
39 11.03
40 1.67
41 35.03
42 4.75
43 20.44
44 1.34
45 1.3
51 1.02
53 8.31
54 7.19
55 32.03
56 7.68
57 12.26
65 1.43
66 1.05
67 23.79
68 11.01
69 17.03
70 4.22
71 7.65
77 2.9
79 5.91
80 7.2
81 71.04
82 26.3
83 12.42
91 1.39
93 1.94
94 9.34
95 99.99
96 26.1
97 4.45
109 8.74
110 2.13
123 39.12
124 4.32
138 39.89
139 5.99

>  <PREDICTED SPECTRUM>  (3552) 
25 0
26 58
27 316
28 112
29 367
30 60
31 77
38 21
39 274
40 104
41 660
42 190
43 524
44 47
45 36
47 80
50 7
51 113
52 49
53 225
54 229
55 562
56 226
57 384
58 27
59 7
63 36
65 145
66 105
67 532
68 313
69 485
70 209
71 350
72 48
77 210
78 19
79 246
80 229
81 907
82 595
83 390
84 108
85 77
91 157
92 15
93 179
94 280
95 999
96 546
97 196
98 25
99 179
107 7
109 353
110 249
123 675
124 224
138 766
139 246
140 6

$$$$

     RDKit          2D

 13 12  0  0  0  0  0  0  0  0999 V2000
   -5.4265    4.3670    0.0000 C   0  0  0  0  0  0  0  0  0  0  0  0
    3.6668    3.6170    0.0000 C   0  0  0  0  0  0  0  0  0  0  0  0
    2.3678    5.8670    0.0000 C   0  0  0  0  0  0  0  0  0  0  0  0
   -1.8642    5.5161    0.0000 C   0  0  0  0  0  0  0  0  0  0  0  0
   -4.1274    3.6170    0.0000 C   0  0  0  0  0  0  0  0  0  0  0  0
   -0.2303    4.3670    0.0000 C   0  0  0  0  0  0  0  0  0  0  0  0
    1.0687    3.6170    0.0000 C   0  0  0  0  0  0  0  0  0  0  0  0
   -1.5293    3.6170    0.0000 C   0  0  0  0  0  0  0  0  0  0  0  0
   -5.2698    5.2556    0.0000 C   0  0  0  0  0  0  0  0  0  0  0  0
    2.3678    4.3670    0.0000 C   0  0  0  0  0  0  0  0  0  0  0  0
   -2.8284    4.3670    0.0000 C   0  0  0  0  0  0  0  0  0  0  0  0
   -6.2340    6.4047    0.0000 O   0  0  0  0  0  0  0  0  0  0  0  0
   -3.7926    5.5161    0.0000 O   0  0  0  0  0  0  0  0  0  0  0  0
  5  1  2  0
  7  6  1  0
  8  6  1  0
 10  2  1  0
 10  3  1  0
 10  7  2  0
 11  4  1  0
 11  5  1  0
 11  8  1  0
 12  9  2  0
 13  9  1  0
 13 11  1  0
M  END
>  <NAME>  (3553) 
LINALYL FORMATE

>  <SYNONYMS>  (3553) 
1,5-DIMETHYL-1-VINYL-4-HEXENYL FORMATE

>  <SPECTRUM TYPE>  (3553) 
MS1

>  <INSTRUMENT TYPE>  (3553) 
EI-B

>  <INSTRUMENT>  (3553) 
HITACHI M-80B

>  <ION MODE>  (3553) 
P

>  <INCHIKEY>  (3553) 
JZOCDHMHLGUPFI-UHFFFAOYSA-N

>  <FORMULA>  (3553) 
C11H18O2

>  <EXACT MASS>  (3553) 
182.130679816

>  <MW>  (3553) 
182

>  <ID>  (3553) 
JP006474

>  <CONTRIBUTOR>  (3553) 
University of Tokyo Team, {Faculty of Engineering, University of Tokyo

>  <COMMENT>  (3553) 
SMILES=O=COC(C)(C=C)CCC=C(C)C
InChI=InChI=1S/C11H18O2/c1-5-11(4,13-9-12)8-6-7-10(2)3/h5,7,9H,1,6,8H2,2-4H3
computed SMILES=O=COC(C=C)(C)CCC=C(C)C
accession=JP006474
date=2016.01.19 (Created 2008.10.21, modified 2011.05.06)
author=HISAHIRO HAGIWARA, CHEMICAL RESEARCH INSTITUTE OF NON-AQUEOUSSOLUTIONS TOHOKU UNIV.
license=CC BY-NC-SA
exact mass=182.13068
ionization energy=70 eV
ion type=[M]+*
computed spectral entropy=3.201874956953604
computed normalized entropy=0.8271011884765669
SPLASH=splash10-0006-9000000000-99c3df53fd7eab9d4ea8
submitter=submitter = University of Tokyo Team (Faculty of Engineering, University of Tokyo)
MoNA Rating=3.75

>  <NUM PEAKS>  (3553) 
48

>  <MASS SPECTRAL PEAKS>  (3553) 
15 1.5
27 20.71
29 13.95
31 1.12
39 25.09
40 6.08
41 74.23
42 5.54
43 34.67
44 1.44
45 1.2
51 4.71
52 2.17
53 19.54
54 2.17
55 28.57
56 2.54
57 1.69
65 4.27
66 2.03
67 21.5
68 19.43
69 47.19
70 3.44
71 17.5
72 1.06
77 8.69
78 1.53
79 15.29
80 39.42
81 14.29
82 4.7
83 4.29
91 10.2
92 15.17
93 99.99
94 11.53
95 4.15
105 6.07
106 1.36
107 8.3
108 1.55
109 1.26
119 1.13
121 30.47
122 2.39
136 8.88
137 1.92

>  <PREDICTED SPECTRUM>  (3553) 
25 23
26 65
27 315
28 124
29 300
30 76
31 102
37 30
38 76
39 405
40 213
41 948
42 293
43 765
44 156
45 133
48 17
50 85
51 157
52 152
53 461
54 240
55 555
56 265
57 314
58 152
59 299
60 82
61 48
63 68
64 54
65 256
66 171
67 579
68 535
69 990
70 337
71 452
72 187
73 77
75 47
77 323
78 143
79 357
80 466
81 597
82 373
83 292
84 138
85 237
86 68
87 148
89 4
91 351
92 407
93 999
94 389
95 283
96 199
97 189
98 93
99 166
100 138
101 57
103 19
105 194
107 378
108 355
109 239
110 119
111 194
112 147
113 160
114 29
119 100
120 109
121 546
122 225
123 89
124 157
125 170
126 58
127 14
135 84
136 468
137 244
138 56
139 240
140 117
148 13
153 90
154 80
164 110
165 1
167 127

$$$$

     RDKit          2D

 13 14  0  0  0  0  0  0  0  0999 V2000
   -0.6759    1.4813    0.0000 C   0  0  0  0  0  0  0  0  0  0  0  0
   -0.6759   -2.3013    0.0000 C   0  0  0  0  0  0  0  0  0  0  0  0
    2.4475    2.5900    0.0000 C   0  0  0  0  0  0  0  0  0  0  0  0
    1.1450   -1.1600    0.0000 C   0  0  0  0  0  0  0  0  0  0  0  0
    1.1450    0.3400    0.0000 C   0  0  0  0  0  0  0  0  0  0  0  0
    3.7350   -1.1600    0.0000 C   0  0  0  0  0  0  0  0  0  0  0  0
    6.3331    0.3361    0.0000 C   0  0  0  0  0  0  0  0  0  0  0  0
    2.4450   -1.9100    0.0000 C   0  0  0  0  0  0  0  0  0  0  0  0
    3.7350    0.3400    0.0000 C   0  0  0  0  0  0  0  0  0  0  0  0
    1.5750   -0.4100    0.0000 C   0  0  0  0  0  0  0  0  0  0  0  0
    2.4450    1.0900    0.0000 C   0  0  0  0  0  0  0  0  0  0  0  0
    7.6332    1.0841    0.0000 O   0  0  0  0  0  0  0  0  0  0  0  0
    5.0352    1.0880    0.0000 O   0  0  0  0  0  0  0  0  0  0  0  0
  5  4  1  0
  8  4  1  0
  8  6  1  0
  9  6  1  0
 10  1  1  0
 10  2  1  0
 10  8  1  0
 11  3  1  0
 11  5  1  0
 11  9  1  0
 11 10  1  0
 12  7  2  0
 13  7  1  0
 13  9  1  0
M  END
>  <NAME>  (3554) 
ISOBORNYL FORMATE

>  <SYNONYMS>  (3554) 


>  <SPECTRUM TYPE>  (3554) 
MS1

>  <INSTRUMENT TYPE>  (3554) 
EI-B

>  <INSTRUMENT>  (3554) 
HITACHI M-80B

>  <ION MODE>  (3554) 
P

>  <INCHIKEY>  (3554) 
RDWUNORUTVEHJF-UHFFFAOYSA-N

>  <FORMULA>  (3554) 
C11H18O2

>  <EXACT MASS>  (3554) 
182.130679816

>  <MW>  (3554) 
182

>  <ID>  (3554) 
JP006472

>  <CONTRIBUTOR>  (3554) 
University of Tokyo Team, {Faculty of Engineering, University of Tokyo

>  <COMMENT>  (3554) 
SMILES=O=COC(C1)C(C)(C2)C(C)(C)C(C2)1
InChI=InChI=1S/C11H18O2/c1-10(2)8-4-5-11(10,3)9(6-8)13-7-12/h7-9H,4-6H2,1-3H3
computed SMILES=O=COC1CC2CCC1(C)C2(C)C
ionization energy=70 eV
accession=JP006472
date=2016.01.19 (Created 2008.10.21, modified 2011.05.06)
author=HISAHIRO HAGIWARA, CHEMICAL RESEARCH INSTITUTE OF NON-AQUEOUSSOLUTIONS TOHOKU UNIV.
license=CC BY-NC-SA
exact mass=182.13068
ion type=[M]+*
computed spectral entropy=3.3722545162304782
computed normalized entropy=0.837754008921045
SPLASH=splash10-000g-9200000000-3baa4e7ab69aa5ef4391
submitter=submitter = University of Tokyo Team (Faculty of Engineering, University of Tokyo)
MoNA Rating=3.75

>  <NUM PEAKS>  (3554) 
56

>  <MASS SPECTRAL PEAKS>  (3554) 
15 1.2
27 15.75
28 3.73
29 24.41
31 1.51
39 22.03
40 3
41 49.14
42 3.37
43 20.23
44 1.48
45 1.23
51 3.63
52 1.73
53 13.78
54 2.17
55 23.71
56 2.01
57 4.21
59 1.47
63 1.02
65 3.84
66 1.73
67 19.52
68 6.69
69 13.61
70 2.37
71 11.41
72 1.24
77 10.6
78 1.83
79 11.98
80 6.18
81 12.5
82 9.79
83 6.01
84 2.28
91 9.34
92 11.85
93 48.67
94 8.6
95 99.99
96 7.6
97 1.51
105 3.06
107 8.11
108 14.25
109 3.54
110 15.21
111 2.84
121 53.42
122 4.35
136 44.63
137 7.44
139 2.04
167 2.92

>  <PREDICTED SPECTRUM>  (3554) 
15 11
18 2
25 31
26 107
27 398
28 170
29 469
30 140
31 172
33 4
37 23
38 78
39 437
40 172
41 860
42 175
43 743
44 175
45 200
46 21
47 29
50 93
51 218
52 102
53 410
54 177
55 521
56 126
57 286
58 92
59 142
63 97
64 68
65 283
66 225
67 663
68 359
69 680
70 96
71 277
72 75
73 125
74 20
75 55
77 398
78 138
79 475
80 332
81 880
82 310
83 356
84 44
85 166
91 355
92 358
93 754
94 349
95 999
96 274
97 49
98 53
99 56
100 57
101 3
105 89
106 4
107 238
108 670
109 540
110 336
111 200
112 9
121 458
122 8
123 56
124 85
135 112
136 646
137 785
138 179
139 57
154 16
164 18
182 225
183 94

$$$$

     RDKit          2D

 15 14  0  0  0  0  0  0  0  0999 V2000
    4.5466    7.8750    0.0000 C   0  0  0  0  0  0  0  0  0  0  0  0
    3.2476    8.6250    0.0000 C   0  0  0  0  0  0  0  0  0  0  0  0
    1.9486    7.8750    0.0000 C   0  0  0  0  0  0  0  0  0  0  0  0
    0.6495    8.6250    0.0000 C   0  0  0  0  0  0  0  0  0  0  0  0
   -0.6495    7.8750    0.0000 C   0  0  0  0  0  0  0  0  0  0  0  0
   -1.9486    8.6250    0.0000 C   0  0  0  0  0  0  0  0  0  0  0  0
   -3.2476    7.8750    0.0000 C   0  0  0  0  0  0  0  0  0  0  0  0
   -4.5466    8.6250    0.0000 C   0  0  0  0  0  0  0  0  0  0  0  0
   -5.8457    7.8750    0.0000 C   0  0  0  0  0  0  0  0  0  0  0  0
   -7.1447    8.6250    0.0000 C   0  0  0  0  0  0  0  0  0  0  0  0
   -8.4437    7.8750    0.0000 C   0  0  0  0  0  0  0  0  0  0  0  0
   -9.7428    8.6250    0.0000 C   0  0  0  0  0  0  0  0  0  0  0  0
  -12.3409    8.6250    0.0000 C   0  0  0  0  0  0  0  0  0  0  0  0
  -13.6399    7.8750    0.0000 O   0  0  0  0  0  0  0  0  0  0  0  0
  -11.0418    7.8750    0.0000 O   0  0  0  0  0  0  0  0  0  0  0  0
  2  1  1  0
  3  2  1  0
  4  3  1  0
  5  4  1  0
  6  5  1  0
  7  6  1  0
  8  7  1  0
  9  8  1  0
 10  9  1  0
 11 10  1  0
 12 11  1  0
 14 13  2  0
 15 12  1  0
 15 13  1  0
M  END
>  <NAME>  (3555) 
DODECYL FORMATE

>  <SYNONYMS>  (3555) 
FORMIC ACID DODECYL ESTER

>  <SPECTRUM TYPE>  (3555) 
MS1

>  <INSTRUMENT TYPE>  (3555) 
EI-B

>  <INSTRUMENT>  (3555) 
HITACHI M-80B

>  <ION MODE>  (3555) 
P

>  <INCHIKEY>  (3555) 
WPSGFSPBRBRLIQ-UHFFFAOYSA-N

>  <FORMULA>  (3555) 
C13H26O2

>  <EXACT MASS>  (3555) 
214.193280072

>  <MW>  (3555) 
214

>  <ID>  (3555) 
JP006470

>  <CONTRIBUTOR>  (3555) 
University of Tokyo Team, {Faculty of Engineering, University of Tokyo

>  <COMMENT>  (3555) 
SMILES=CCCCCCCCCCCCOC=O
InChI=InChI=1S/C13H26O2/c1-2-3-4-5-6-7-8-9-10-11-12-15-13-14/h13H,2-12H2,1H3
computed SMILES=O=COCCCCCCCCCCCC
accession=JP006470
date=2016.01.19 (Created 2008.10.21, modified 2011.05.06)
author=HISAHIRO HAGIWARA, CHEMICAL RESEARCH INSTITUTE OF NON-AQUEOUSSOLUTIONS TOHOKU UNIV.
license=CC BY-NC-SA
exact mass=214.19328
ionization energy=70 eV
ion type=[M]+*
computed spectral entropy=3.2022909671543576
computed normalized entropy=0.8317320005425369
SPLASH=splash10-0a4l-9000000000-59a4e02c212bba8aa54a
submitter=submitter = University of Tokyo Team (Faculty of Engineering, University of Tokyo)
MoNA Rating=3.75

>  <NUM PEAKS>  (3555) 
47

>  <MASS SPECTRAL PEAKS>  (3555) 
27 24.3
28 6.9
29 54.34
30 1.52
31 36.29
39 17.69
40 3.91
41 95.37
42 32.3
43 92.55
44 3.37
45 2.09
47 2.69
53 5.42
54 11.81
55 99.99
56 70.26
57 55.62
58 2.18
59 1.21
66 1.3
67 10.77
68 26.35
69 74.25
70 53.87
71 18.44
79 1.18
81 4.68
82 26.88
83 59.91
84 31.06
85 7.38
95 1.04
96 7.74
97 34.99
98 18.71
99 1.76
110 2.32
111 17.16
112 7.59
113 1.12
125 5.4
126 3.63
139 1.47
140 9.55
141 1.01
168 4.49

>  <PREDICTED SPECTRUM>  (3555) 
19 0
26 43
27 197
28 82
29 349
30 48
31 168
32 0
33 10
36 12
38 14
39 234
40 121
41 749
42 466
43 786
44 229
45 224
46 137
47 153
52 15
53 224
54 358
55 978
56 855
57 855
58 127
59 136
60 72
61 103
65 33
66 103
67 407
68 597
69 975
70 849
71 484
72 79
73 137
78 24
79 128
80 92
81 340
82 642
83 999
84 604
85 331
86 70
87 59
89 35
90 23
91 151
92 37
93 18
94 20
95 239
96 454
97 818
98 463
99 189
100 32
101 72
109 113
110 211
111 570
112 390
113 115
114 73
115 18
116 5
124 123
125 375
126 358
127 143
137 27
138 109
139 198
140 353
141 73
153 37
167 74
168 453
169 170
170 47
185 5
196 42

$$$$

     RDKit          2D

 11 10  0  0  0  0  0  0  0  0999 V2000
    3.2476    5.6250    0.0000 C   0  0  0  0  0  0  0  0  0  0  0  0
    1.9486    6.3750    0.0000 C   0  0  0  0  0  0  0  0  0  0  0  0
    0.6495    5.6250    0.0000 C   0  0  0  0  0  0  0  0  0  0  0  0
   -0.6495    6.3750    0.0000 C   0  0  0  0  0  0  0  0  0  0  0  0
   -1.9486    5.6250    0.0000 C   0  0  0  0  0  0  0  0  0  0  0  0
   -3.2476    6.3750    0.0000 C   0  0  0  0  0  0  0  0  0  0  0  0
   -4.5466    5.6250    0.0000 C   0  0  0  0  0  0  0  0  0  0  0  0
   -5.8457    6.3750    0.0000 C   0  0  0  0  0  0  0  0  0  0  0  0
   -8.4437    6.3750    0.0000 C   0  0  0  0  0  0  0  0  0  0  0  0
   -9.7428    5.6250    0.0000 O   0  0  0  0  0  0  0  0  0  0  0  0
   -7.1447    5.6250    0.0000 O   0  0  0  0  0  0  0  0  0  0  0  0
  2  1  1  0
  3  2  1  0
  4  3  1  0
  5  4  1  0
  6  5  1  0
  7  6  1  0
  8  7  1  0
 10  9  2  0
 11  8  1  0
 11  9  1  0
M  END
>  <NAME>  (3556) 
OCTYL FORMATE

>  <SYNONYMS>  (3556) 
FORMIC ACID OCTYL ESTER

>  <SPECTRUM TYPE>  (3556) 
MS1

>  <INSTRUMENT TYPE>  (3556) 
EI-B

>  <INSTRUMENT>  (3556) 
HITACHI M-80B

>  <ION MODE>  (3556) 
P

>  <INCHIKEY>  (3556) 
AVBRYQRTMPHARE-UHFFFAOYSA-N

>  <FORMULA>  (3556) 
C9H18O2

>  <EXACT MASS>  (3556) 
158.130679816

>  <MW>  (3556) 
158

>  <ID>  (3556) 
JP006469

>  <CONTRIBUTOR>  (3556) 
University of Tokyo Team, {Faculty of Engineering, University of Tokyo

>  <COMMENT>  (3556) 
SMILES=CCCCCCCCOC=O
InChI=InChI=1S/C9H18O2/c1-2-3-4-5-6-7-8-11-9-10/h9H,2-8H2,1H3
computed SMILES=O=COCCCCCCCC
accession=JP006469
date=2016.01.19 (Created 2008.10.21, modified 2011.05.06)
author=HISAHIRO HAGIWARA, CHEMICAL RESEARCH INSTITUTE OF NON-AQUEOUSSOLUTIONS TOHOKU UNIV.
license=CC BY-NC-SA
exact mass=158.13068
ionization energy=70 eV
ion type=[M]+*
computed spectral entropy=2.968932699883824
computed normalized entropy=0.8103951800620961
SPLASH=splash10-052f-9000000000-cbe2919f6eb92dc376af
submitter=submitter = University of Tokyo Team (Faculty of Engineering, University of Tokyo)
MoNA Rating=3.75

>  <NUM PEAKS>  (3556) 
39

>  <MASS SPECTRAL PEAKS>  (3556) 
15 1.58
18 1.7
19 1.2
26 1.72
27 35.76
28 11.38
29 56.84
30 1.46
31 39.92
39 25.1
40 4.53
41 99.99
42 55.04
43 75.3
44 3.66
45 3.3
47 3.55
51 1.27
53 5.28
54 7.44
55 86.5
56 95
57 30.75
58 1.32
59 1.24
67 5.93
68 20.81
69 56.47
70 74.08
71 10.61
73 1
81 1.14
82 11.38
83 47.3
84 57.43
85 3.15
87 2.07
97 3.7
112 5.16

>  <PREDICTED SPECTRUM>  (3556) 
19 10
25 1
26 53
27 272
28 110
29 431
30 38
31 235
32 7
33 41
36 3
38 5
39 280
40 140
41 747
42 540
43 682
44 200
45 257
46 122
47 168
51 41
53 223
54 302
55 894
56 999
57 656
58 104
59 165
60 128
61 141
66 52
67 307
68 487
69 869
70 941
71 332
72 36
73 35
79 84
81 200
82 482
83 785
84 518
85 217
86 26
95 41
96 133
97 496
98 315
99 26
100 5
101 59
111 146
112 458
113 177
114 47
127 68
129 35

$$$$

     RDKit          2D

 10  9  0  0  0  0  0  0  0  0999 V2000
   -8.4437    5.6250    0.0000 C   0  0  0  0  0  0  0  0  0  0  0  0
   -7.1447    4.8750    0.0000 C   0  0  0  0  0  0  0  0  0  0  0  0
   -5.8457    5.6250    0.0000 C   0  0  0  0  0  0  0  0  0  0  0  0
   -4.5466    4.8750    0.0000 C   0  0  0  0  0  0  0  0  0  0  0  0
   -3.2476    5.6250    0.0000 C   0  0  0  0  0  0  0  0  0  0  0  0
   -1.9486    4.8750    0.0000 C   0  0  0  0  0  0  0  0  0  0  0  0
   -0.6495    5.6250    0.0000 C   0  0  0  0  0  0  0  0  0  0  0  0
    1.9486    5.6250    0.0000 C   0  0  0  0  0  0  0  0  0  0  0  0
    3.2476    4.8750    0.0000 O   0  0  0  0  0  0  0  0  0  0  0  0
    0.6495    4.8750    0.0000 O   0  0  0  0  0  0  0  0  0  0  0  0
  2  1  1  0
  3  2  1  0
  4  3  1  0
  5  4  1  0
  6  5  1  0
  7  6  1  0
  9  8  2  0
 10  7  1  0
 10  8  1  0
M  END
>  <NAME>  (3557) 
HEPTYL FORMATE

>  <SYNONYMS>  (3557) 
FORMIC ACID HEPTYL ESTER

>  <SPECTRUM TYPE>  (3557) 
MS1

>  <INSTRUMENT TYPE>  (3557) 
EI-B

>  <INSTRUMENT>  (3557) 
HITACHI M-80B

>  <ION MODE>  (3557) 
P

>  <INCHIKEY>  (3557) 
XEAMDSXSXYAICO-UHFFFAOYSA-N

>  <FORMULA>  (3557) 
C8H16O2

>  <EXACT MASS>  (3557) 
144.115029752

>  <MW>  (3557) 
144

>  <ID>  (3557) 
JP006468

>  <CONTRIBUTOR>  (3557) 
University of Tokyo Team, {Faculty of Engineering, University of Tokyo

>  <COMMENT>  (3557) 
SMILES=CCCCCCCOC=O
InChI=InChI=1S/C8H16O2/c1-2-3-4-5-6-7-10-8-9/h8H,2-7H2,1H3
computed SMILES=O=COCCCCCCC
accession=JP006468
date=2016.01.19 (Created 2008.10.21, modified 2011.05.06)
author=HISAHIRO HAGIWARA, CHEMICAL RESEARCH INSTITUTE OF NON-AQUEOUSSOLUTIONS TOHOKU UNIV.
license=CC BY-NC-SA
exact mass=144.11503
ionization energy=70 eV
ion type=[M]+*
computed spectral entropy=2.800426276193832
computed normalized entropy=0.7941406605039778
SPLASH=splash10-0596-9000000000-0a8140eee1ea9cb86948
submitter=submitter = University of Tokyo Team (Faculty of Engineering, University of Tokyo)
MoNA Rating=3.75

>  <NUM PEAKS>  (3557) 
34

>  <MASS SPECTRAL PEAKS>  (3557) 
15 1.26
26 1.75
27 32.26
28 10.46
29 44.95
30 1.58
31 33.96
39 22.37
40 4.15
41 84.74
42 45.73
43 44.55
44 3.1
45 2.99
47 3.12
51 1.26
53 4.24
54 8.34
55 63.97
56 99.99
57 24.29
58 1.13
59 1.03
67 2.93
68 15.07
69 54.65
70 95.08
71 5.08
73 1.71
83 8.98
84 1.24
87 2.37
98 10.01
99 1.03

>  <PREDICTED SPECTRUM>  (3557) 
19 17
25 3
26 65
27 289
28 127
29 436
30 56
31 238
32 7
33 44
38 11
39 300
40 144
41 706
42 544
43 624
44 200
45 267
46 119
47 150
50 28
51 81
52 11
53 193
54 270
55 821
56 999
57 565
58 52
59 119
60 93
61 102
66 10
67 243
68 404
69 768
70 923
71 258
72 19
73 94
79 77
81 142
82 321
83 574
84 110
85 84
86 6
96 72
97 310
98 444
99 213
100 47
101 71
115 59
116 3
127 57
145 104

$$$$

     RDKit          2D

  9  8  0  0  0  0  0  0  0  0999 V2000
    2.5981    4.5000    0.0000 C   0  0  0  0  0  0  0  0  0  0  0  0
    1.2990    5.2500    0.0000 C   0  0  0  0  0  0  0  0  0  0  0  0
    0.0000    4.5000    0.0000 C   0  0  0  0  0  0  0  0  0  0  0  0
   -1.2990    5.2500    0.0000 C   0  0  0  0  0  0  0  0  0  0  0  0
   -2.5981    4.5000    0.0000 C   0  0  0  0  0  0  0  0  0  0  0  0
   -3.8971    5.2500    0.0000 C   0  0  0  0  0  0  0  0  0  0  0  0
   -6.4952    5.2500    0.0000 C   0  0  0  0  0  0  0  0  0  0  0  0
   -7.7942    4.5000    0.0000 O   0  0  0  0  0  0  0  0  0  0  0  0
   -5.1962    4.5000    0.0000 O   0  0  0  0  0  0  0  0  0  0  0  0
  2  1  1  0
  3  2  1  0
  4  3  1  0
  5  4  1  0
  6  5  1  0
  8  7  2  0
  9  6  1  0
  9  7  1  0
M  END
>  <NAME>  (3558) 
HEXYL FORMATE

>  <SYNONYMS>  (3558) 
FORMIC ACID HEXYL ESTER

>  <SPECTRUM TYPE>  (3558) 
MS1

>  <INSTRUMENT TYPE>  (3558) 
EI-B

>  <INSTRUMENT>  (3558) 
HITACHI M-80B

>  <ION MODE>  (3558) 
P

>  <INCHIKEY>  (3558) 
OUGPMNMLWKSBRI-UHFFFAOYSA-N

>  <FORMULA>  (3558) 
C7H14O2

>  <EXACT MASS>  (3558) 
130.099379688

>  <MW>  (3558) 
130

>  <ID>  (3558) 
JP006467

>  <CONTRIBUTOR>  (3558) 
University of Tokyo Team, {Faculty of Engineering, University of Tokyo

>  <COMMENT>  (3558) 
SMILES=CCCCCCOC=O
InChI=InChI=1S/C7H14O2/c1-2-3-4-5-6-9-7-8/h7H,2-6H2,1H3
computed SMILES=O=COCCCCCC
accession=JP006467
date=2016.01.19 (Created 2008.10.21, modified 2011.05.06)
author=HISAHIRO HAGIWARA, CHEMICAL RESEARCH INSTITUTE OF NON-AQUEOUSSOLUTIONS TOHOKU UNIV.
license=CC BY-NC-SA
exact mass=130.09938
ionization energy=70 eV
ion type=[M]+*
computed spectral entropy=2.5916332816099374
computed normalized entropy=0.7863354246510007
SPLASH=splash10-0a4l-9000000000-d682a6e12d33e8c3346c
submitter=submitter = University of Tokyo Team (Faculty of Engineering, University of Tokyo)
MoNA Rating=3.75

>  <NUM PEAKS>  (3558) 
27

>  <MASS SPECTRAL PEAKS>  (3558) 
15 1.05
26 1.6
27 25.29
28 7.81
29 32.26
31 26.68
39 16.81
40 2.95
41 46.58
42 43
43 44.53
44 2.7
45 2.45
47 2.38
53 2.28
54 4.35
55 47.35
56 99.99
57 6.95
59 1.06
67 1.38
69 28.13
70 1.46
73 1.36
84 14.6
85 1.24
87 2.29

>  <PREDICTED SPECTRUM>  (3558) 
14 1
19 20
25 3
26 69
27 304
28 146
29 425
30 95
31 244
32 0
33 44
38 33
39 315
40 150
41 664
42 558
43 592
44 177
45 232
46 94
47 122
51 75
53 165
54 242
55 768
56 999
57 438
58 36
59 151
60 85
61 81
67 186
68 192
69 554
70 721
71 98
73 100
82 190
83 342
84 392
85 180
86 6
87 56
101 145
102 6

$$$$

     RDKit          2D

  9  8  0  0  0  0  0  0  0  0999 V2000
   -3.5724    2.8125    0.0000 C   0  0  0  0  0  0  0  0  0  0  0  0
   -2.2733    3.5625    0.0000 C   0  0  0  0  0  0  0  0  0  0  0  0
   -2.2733    5.0625    0.0000 C   0  0  0  0  0  0  0  0  0  0  0  0
   -0.9743    5.8125    0.0000 C   0  0  0  0  0  0  0  0  0  0  0  0
    0.3248    5.0625    0.0000 C   0  0  0  0  0  0  0  0  0  0  0  0
    1.6238    5.8125    0.0000 C   0  0  0  0  0  0  0  0  0  0  0  0
    4.2219    5.8125    0.0000 C   0  0  0  0  0  0  0  0  0  0  0  0
    5.5209    5.0625    0.0000 O   0  0  0  0  0  0  0  0  0  0  0  0
    2.9228    5.0625    0.0000 O   0  0  0  0  0  0  0  0  0  0  0  0
  2  1  1  0
  3  2  1  0
  3  4  2  0
  5  4  1  0
  6  5  1  0
  8  7  2  0
  9  6  1  0
  9  7  1  0
M  END
>  <NAME>  (3559) 
CIS-3-HEXENYL FORMATE

>  <SYNONYMS>  (3559) 


>  <SPECTRUM TYPE>  (3559) 
MS1

>  <INSTRUMENT TYPE>  (3559) 
EI-B

>  <INSTRUMENT>  (3559) 
HITACHI M-80B

>  <ION MODE>  (3559) 
P

>  <INCHIKEY>  (3559) 
XJHQVZQZUGLZLS-ARJAWSKDSA-N

>  <FORMULA>  (3559) 
C7H12O2

>  <EXACT MASS>  (3559) 
128.083729624

>  <MW>  (3559) 
128

>  <ID>  (3559) 
JP006466

>  <CONTRIBUTOR>  (3559) 
University of Tokyo Team, {Faculty of Engineering, University of Tokyo

>  <COMMENT>  (3559) 
SMILES=CCC=CCCOC=O
InChI=InChI=1S/C7H12O2/c1-2-3-4-5-6-9-7-8/h3-4,7H,2,5-6H2,1H3/b4-3-
computed SMILES=O=COCCC=CCC
accession=JP006466
date=2016.01.19 (Created 2008.10.21, modified 2011.05.06)
author=HISAHIRO HAGIWARA, CHEMICAL RESEARCH INSTITUTE OF NON-AQUEOUSSOLUTIONS TOHOKU UNIV.
license=CC BY-NC-SA
exact mass=128.08373
ionization energy=70 eV
ion type=[M]+*
computed spectral entropy=2.5142423503400044
computed normalized entropy=0.7545282237817414
SPLASH=splash10-0159-9000000000-1c09c0f93f23217a1899
submitter=submitter = University of Tokyo Team (Faculty of Engineering, University of Tokyo)
MoNA Rating=3.75

>  <NUM PEAKS>  (3559) 
28

>  <MASS SPECTRAL PEAKS>  (3559) 
26 1.07
27 12.71
28 2.18
29 12.2
31 16.13
38 1.34
39 19.91
40 3.5
41 48.33
42 6.93
43 2.99
50 1.55
51 2.15
52 1.16
53 8.98
54 12.62
55 15.44
56 1.56
57 2.49
65 1.96
66 1.19
67 99.99
68 6.42
69 7.63
79 1.3
81 7.41
82 54.75
83 5.07

>  <PREDICTED SPECTRUM>  (3559) 
26 17
27 138
29 211
31 176
33 20
38 18
39 332
40 177
41 829
42 361
43 336
44 270
45 408
46 61
47 40
50 23
51 121
52 104
53 394
54 587
55 629
56 280
57 428
58 89
59 75
60 101
61 118
62 9
63 18
65 116
66 68
67 914
68 429
69 353
70 206
71 143
81 492
82 999
83 293
84 39
85 100
86 4
99 187
128 176
129 19

$$$$

     RDKit          2D

  8  7  0  0  0  0  0  0  0  0999 V2000
    2.2733    2.8125    0.0000 C   0  0  0  0  0  0  0  0  0  0  0  0
    0.9743    5.0625    0.0000 C   0  0  0  0  0  0  0  0  0  0  0  0
   -0.3248    2.8125    0.0000 C   0  0  0  0  0  0  0  0  0  0  0  0
   -1.6238    3.5625    0.0000 C   0  0  0  0  0  0  0  0  0  0  0  0
   -4.2219    3.5625    0.0000 C   0  0  0  0  0  0  0  0  0  0  0  0
    0.9743    3.5625    0.0000 C   0  0  0  0  0  0  0  0  0  0  0  0
   -5.5209    2.8125    0.0000 O   0  0  0  0  0  0  0  0  0  0  0  0
   -2.9228    2.8125    0.0000 O   0  0  0  0  0  0  0  0  0  0  0  0
  4  3  1  0
  6  1  1  0
  6  2  1  0
  6  3  1  0
  7  5  2  0
  8  4  1  0
  8  5  1  0
M  END
>  <NAME>  (3560) 
ISOPENTYL FORMATE

>  <SYNONYMS>  (3560) 
3-METHYLBUTYL FORMATE

>  <SPECTRUM TYPE>  (3560) 
MS1

>  <INSTRUMENT TYPE>  (3560) 
EI-B

>  <INSTRUMENT>  (3560) 
HITACHI M-80B

>  <ION MODE>  (3560) 
P

>  <INCHIKEY>  (3560) 
XKYICAQFSCFURC-UHFFFAOYSA-N

>  <FORMULA>  (3560) 
C6H12O2

>  <EXACT MASS>  (3560) 
116.083729624

>  <MW>  (3560) 
116

>  <ID>  (3560) 
JP006465

>  <CONTRIBUTOR>  (3560) 
University of Tokyo Team, {Faculty of Engineering, University of Tokyo

>  <COMMENT>  (3560) 
SMILES=O=COCCC(C)C
InChI=InChI=1S/C6H12O2/c1-6(2)3-4-8-5-7/h5-6H,3-4H2,1-2H3
computed SMILES=O=COCCC(C)C
accession=JP006465
date=2016.01.19 (Created 2008.10.21, modified 2011.05.06)
author=HISAHIRO HAGIWARA, CHEMICAL RESEARCH INSTITUTE OF NON-AQUEOUSSOLUTIONS TOHOKU UNIV.
license=CC BY-NC-SA
exact mass=116.08373
ionization energy=70 eV
ion type=[M]+*
computed spectral entropy=2.6683382312511634
computed normalized entropy=0.8096087093309607
SPLASH=splash10-0596-9000000000-6670002cf25236290167
submitter=submitter = University of Tokyo Team (Faculty of Engineering, University of Tokyo)
MoNA Rating=3.75

>  <NUM PEAKS>  (3560) 
27

>  <MASS SPECTRAL PEAKS>  (3560) 
15 1.26
18 1.41
26 1.55
27 23.43
28 15.83
29 24.69
31 21.78
38 1.42
39 22.45
40 3.27
41 44.35
42 39.6
43 47.6
44 2.04
45 8.45
47 6.15
51 1.28
53 3.99
54 1.95
55 99.99
56 5.69
57 6.39
69 5.49
70 79.38
71 5.48
73 22.11
74 21.31

>  <PREDICTED SPECTRUM>  (3560) 
14 12
15 12
19 10
25 0
26 63
27 267
28 137
29 272
30 77
31 198
37 6
38 46
39 288
40 129
41 544
42 497
43 608
44 203
45 283
46 81
47 111
50 46
51 64
52 4
53 152
54 153
55 607
56 214
57 315
58 21
59 113
60 53
61 22
69 140
70 999
71 351
72 170
73 202
74 83
75 19
87 75
88 32
98 29

$$$$

     RDKit          2D

  8  7  0  0  0  0  0  0  0  0999 V2000
   -6.4952    4.5000    0.0000 C   0  0  0  0  0  0  0  0  0  0  0  0
   -5.1962    3.7500    0.0000 C   0  0  0  0  0  0  0  0  0  0  0  0
   -3.8971    4.5000    0.0000 C   0  0  0  0  0  0  0  0  0  0  0  0
   -2.5981    3.7500    0.0000 C   0  0  0  0  0  0  0  0  0  0  0  0
   -1.2990    4.5000    0.0000 C   0  0  0  0  0  0  0  0  0  0  0  0
    1.2990    4.5000    0.0000 C   0  0  0  0  0  0  0  0  0  0  0  0
    2.5981    3.7500    0.0000 O   0  0  0  0  0  0  0  0  0  0  0  0
    0.0000    3.7500    0.0000 O   0  0  0  0  0  0  0  0  0  0  0  0
  2  1  1  0
  3  2  1  0
  4  3  1  0
  5  4  1  0
  7  6  2  0
  8  5  1  0
  8  6  1  0
M  END
>  <NAME>  (3561) 
PENTYL FORMATE

>  <SYNONYMS>  (3561) 
AMYL FORMATE

>  <SPECTRUM TYPE>  (3561) 
MS1

>  <INSTRUMENT TYPE>  (3561) 
EI-B

>  <INSTRUMENT>  (3561) 
HITACHI M-80B

>  <ION MODE>  (3561) 
P

>  <INCHIKEY>  (3561) 
DIQMPQMYFZXDAX-UHFFFAOYSA-N

>  <FORMULA>  (3561) 
C6H12O2

>  <EXACT MASS>  (3561) 
116.083729624

>  <MW>  (3561) 
116

>  <ID>  (3561) 
JP006464

>  <CONTRIBUTOR>  (3561) 
University of Tokyo Team, {Faculty of Engineering, University of Tokyo

>  <COMMENT>  (3561) 
SMILES=CCCCCOC=O
InChI=InChI=1S/C6H12O2/c1-2-3-4-5-8-6-7/h6H,2-5H2,1H3
computed SMILES=O=COCCCCC
accession=JP006464
date=2016.01.19 (Created 2008.10.21, modified 2011.05.06)
author=HISAHIRO HAGIWARA, CHEMICAL RESEARCH INSTITUTE OF NON-AQUEOUSSOLUTIONS TOHOKU UNIV.
license=CC BY-NC-SA
exact mass=116.08373
ionization energy=70 eV
ion type=[M]+*
computed spectral entropy=2.6027685228025383
computed normalized entropy=0.7897140024281528
SPLASH=splash10-002f-9000000000-33963b0f66346230ad8e
submitter=submitter = University of Tokyo Team (Faculty of Engineering, University of Tokyo)
MoNA Rating=3.75

>  <NUM PEAKS>  (3561) 
27

>  <MASS SPECTRAL PEAKS>  (3561) 
15 2.09
26 2.85
27 32.26
28 11.53
29 48.65
30 1.42
31 43.15
38 1.53
39 21.51
40 3.92
41 50.51
42 99.99
43 24.59
44 2.58
45 5.15
47 8.98
53 2.41
54 1.46
55 69.7
56 9.32
57 7.5
59 2.17
69 4.12
70 66.07
71 4.61
73 3
87 5.14

>  <PREDICTED SPECTRUM>  (3561) 
14 16
15 18
19 18
25 2
26 86
27 363
28 179
29 477
30 156
31 298
32 11
33 26
38 43
39 320
40 153
41 659
42 638
43 671
44 180
45 212
46 170
47 186
50 36
51 59
53 129
54 196
55 734
56 184
57 244
59 185
60 122
68 10
69 157
70 999
71 309
72 61
73 135
87 179
88 33
116 16

$$$$

     RDKit          2D

  7  6  0  0  0  0  0  0  0  0999 V2000
   -3.5724    3.9375    0.0000 C   0  0  0  0  0  0  0  0  0  0  0  0
   -2.2733    1.6875    0.0000 C   0  0  0  0  0  0  0  0  0  0  0  0
   -0.9743    3.9375    0.0000 C   0  0  0  0  0  0  0  0  0  0  0  0
    1.6238    3.9375    0.0000 C   0  0  0  0  0  0  0  0  0  0  0  0
   -2.2733    3.1875    0.0000 C   0  0  0  0  0  0  0  0  0  0  0  0
    2.9228    3.1875    0.0000 O   0  0  0  0  0  0  0  0  0  0  0  0
    0.3248    3.1875    0.0000 O   0  0  0  0  0  0  0  0  0  0  0  0
  5  1  1  0
  5  2  1  0
  5  3  1  0
  6  4  2  0
  7  3  1  0
  7  4  1  0
M  END
>  <NAME>  (3562) 
ISOBUTYL FORMATE

>  <SYNONYMS>  (3562) 
2-METHYLPROPYL FORMATE

>  <SPECTRUM TYPE>  (3562) 
MS1

>  <INSTRUMENT TYPE>  (3562) 
EI-B

>  <INSTRUMENT>  (3562) 
HITACHI M-80B

>  <ION MODE>  (3562) 
P

>  <INCHIKEY>  (3562) 
AVMSWPWPYJVYKY-UHFFFAOYSA-N

>  <FORMULA>  (3562) 
C5H10O2

>  <EXACT MASS>  (3562) 
102.06807956

>  <MW>  (3562) 
102

>  <ID>  (3562) 
JP006463

>  <CONTRIBUTOR>  (3562) 
University of Tokyo Team, {Faculty of Engineering, University of Tokyo

>  <COMMENT>  (3562) 
SMILES=O=COCC(C)C
InChI=InChI=1S/C5H10O2/c1-5(2)3-7-4-6/h4-5H,3H2,1-2H3
computed SMILES=O=COCC(C)C
accession=JP006463
date=2016.01.19 (Created 2008.10.21, modified 2011.05.06)
author=HISAHIRO HAGIWARA, CHEMICAL RESEARCH INSTITUTE OF NON-AQUEOUSSOLUTIONS TOHOKU UNIV.
license=CC BY-NC-SA
exact mass=102.06808
ionization energy=70 eV
ion type=[M]+*
computed spectral entropy=2.409593981463751
computed normalized entropy=0.7684893721769183
SPLASH=splash10-052f-9000000000-20bd4fc945c5dd133050
submitter=submitter = University of Tokyo Team (Faculty of Engineering, University of Tokyo)
MoNA Rating=3.75

>  <NUM PEAKS>  (3562) 
23

>  <MASS SPECTRAL PEAKS>  (3562) 
26 2.09
27 29.62
28 5.34
29 28.33
30 1.32
31 46.37
32 4.44
33 1.03
38 2.28
40 4.84
41 71.23
42 20.23
43 93.52
44 3.22
45 2.01
53 1.31
55 8.19
56 99.99
57 9.93
59 8.5
60 46.94
61 13.47
73 1.41

>  <PREDICTED SPECTRUM>  (3562) 
14 20
19 35
25 17
26 108
27 348
28 170
29 502
30 105
31 291
32 32
38 22
39 268
40 100
41 744
42 131
43 453
44 114
45 408
46 144
47 212
53 51
54 5
55 343
56 999
57 830
58 59
59 170
60 54
73 272
74 54
75 58
87 96
102 96

$$$$

     RDKit          2D

  7  6  0  0  0  0  0  0  0  0999 V2000
    1.9486    3.3750    0.0000 C   0  0  0  0  0  0  0  0  0  0  0  0
    0.6495    4.1250    0.0000 C   0  0  0  0  0  0  0  0  0  0  0  0
   -0.6495    3.3750    0.0000 C   0  0  0  0  0  0  0  0  0  0  0  0
   -1.9486    4.1250    0.0000 C   0  0  0  0  0  0  0  0  0  0  0  0
   -4.5466    4.1250    0.0000 C   0  0  0  0  0  0  0  0  0  0  0  0
   -5.8457    3.3750    0.0000 O   0  0  0  0  0  0  0  0  0  0  0  0
   -3.2476    3.3750    0.0000 O   0  0  0  0  0  0  0  0  0  0  0  0
  2  1  1  0
  3  2  1  0
  4  3  1  0
  6  5  2  0
  7  4  1  0
  7  5  1  0
M  END
>  <NAME>  (3563) 
BUTYL FORMATE

>  <SYNONYMS>  (3563) 
FORMIC ACID BUTYL ESTER

>  <SPECTRUM TYPE>  (3563) 
MS1

>  <INSTRUMENT TYPE>  (3563) 
EI-B

>  <INSTRUMENT>  (3563) 
HITACHI M-80B

>  <ION MODE>  (3563) 
P

>  <INCHIKEY>  (3563) 
NMJJFJNHVMGPGM-UHFFFAOYSA-N

>  <FORMULA>  (3563) 
C5H10O2

>  <EXACT MASS>  (3563) 
102.06807956

>  <MW>  (3563) 
102

>  <ID>  (3563) 
JP006462

>  <CONTRIBUTOR>  (3563) 
University of Tokyo Team, {Faculty of Engineering, University of Tokyo

>  <COMMENT>  (3563) 
SMILES=CCCCOC=O
InChI=InChI=1S/C5H10O2/c1-2-3-4-7-5-6/h5H,2-4H2,1H3
computed SMILES=O=COCCCC
accession=JP006462
date=2016.01.19 (Created 2008.10.21, modified 2011.05.06)
author=HISAHIRO HAGIWARA, CHEMICAL RESEARCH INSTITUTE OF NON-AQUEOUSSOLUTIONS TOHOKU UNIV.
license=CC BY-NC-SA
exact mass=102.06808
ionization energy=70 eV
ion type=[M]+*
computed spectral entropy=2.4722663764892876
computed normalized entropy=0.758806974452206
SPLASH=splash10-0a6u-9000000000-69a6b7dc8e0c0a8fb002
submitter=submitter = University of Tokyo Team (Faculty of Engineering, University of Tokyo)
MoNA Rating=3.75

>  <NUM PEAKS>  (3563) 
26

>  <MASS SPECTRAL PEAKS>  (3563) 
15 1.88
18 3.08
19 1.12
26 3.85
27 28.38
28 13.97
29 32.3
30 1.42
31 51.43
32 1.14
38 1.45
39 14.28
40 3.12
41 55.71
42 8.47
43 18.43
44 3.02
45 6.45
47 3.24
53 1.06
55 10.56
56 99.99
57 8.04
59 1.79
60 2.48
73 6.49

>  <PREDICTED SPECTRUM>  (3563) 
14 11
19 23
25 31
26 148
27 425
28 261
29 640
30 137
31 320
32 38
38 23
39 285
40 103
41 645
42 109
43 256
44 62
45 162
46 104
47 196
53 68
54 114
55 457
56 999
57 660
58 92
59 111
60 47
73 206
74 69
75 8
102 17

$$$$

     RDKit          2D

  6  5  0  0  0  0  0  0  0  0999 V2000
   -4.5466    3.3750    0.0000 C   0  0  0  0  0  0  0  0  0  0  0  0
   -3.2476    2.6250    0.0000 C   0  0  0  0  0  0  0  0  0  0  0  0
   -1.9486    3.3750    0.0000 C   0  0  0  0  0  0  0  0  0  0  0  0
    0.6495    3.3750    0.0000 C   0  0  0  0  0  0  0  0  0  0  0  0
    1.9486    2.6250    0.0000 O   0  0  0  0  0  0  0  0  0  0  0  0
   -0.6495    2.6250    0.0000 O   0  0  0  0  0  0  0  0  0  0  0  0
  2  1  2  0
  3  2  1  0
  5  4  2  0
  6  3  1  0
  6  4  1  0
M  END
>  <NAME>  (3564) 
ALLYL FORMATE

>  <SYNONYMS>  (3564) 
2-PROPENYL FORMATE

>  <SPECTRUM TYPE>  (3564) 
MS1

>  <INSTRUMENT TYPE>  (3564) 
EI-B

>  <INSTRUMENT>  (3564) 
HITACHI M-80B

>  <ION MODE>  (3564) 
P

>  <INCHIKEY>  (3564) 
ZHHZHHSFKCANOC-UHFFFAOYSA-N

>  <FORMULA>  (3564) 
C4H6O2

>  <EXACT MASS>  (3564) 
86.036779432

>  <MW>  (3564) 
86

>  <ID>  (3564) 
JP006459

>  <CONTRIBUTOR>  (3564) 
University of Tokyo Team, {Faculty of Engineering, University of Tokyo

>  <COMMENT>  (3564) 
SMILES=C=CCOC=O
InChI=InChI=1S/C4H6O2/c1-2-3-6-4-5/h2,4H,1,3H2
computed SMILES=O=COCC=C
accession=JP006459
date=2016.01.19 (Created 2008.10.21, modified 2011.05.06)
author=HISAHIRO HAGIWARA, CHEMICAL RESEARCH INSTITUTE OF NON-AQUEOUSSOLUTIONS TOHOKU UNIV.
license=CC BY-NC-SA
exact mass=86.03678
ionization energy=70 eV
ion type=[M]+*
computed spectral entropy=2.3129620800317725
computed normalized entropy=0.7720857102119433
SPLASH=splash10-0a4i-9000000000-939843670706d3263837
submitter=submitter = University of Tokyo Team (Faculty of Engineering, University of Tokyo)
MoNA Rating=3.75

>  <NUM PEAKS>  (3564) 
20

>  <MASS SPECTRAL PEAKS>  (3564) 
15 1.26
26 5.65
27 15.41
28 7.46
29 32.46
30 7.82
31 18.75
37 3.28
38 7.99
39 50.85
40 17.46
41 22.92
42 1.34
43 3.22
44 1.21
47 2.52
55 2.75
57 99.99
58 26.08
59 1.12

>  <PREDICTED SPECTRUM>  (3564) 
14 29
15 7
16 6
19 18
25 57
26 182
27 431
28 271
29 436
30 143
31 270
36 81
37 133
38 225
39 667
40 320
41 999
42 431
43 246
44 166
45 21
49 14
52 90
53 10
54 305
55 84
56 183
57 577
58 305
59 33
68 100
71 7
85 176
86 177

$$$$

     RDKit          2D

  8  7  0  0  0  0  0  0  0  0999 V2000
    1.6238    3.1875    0.0000 C   0  0  0  0  0  0  0  0  0  0  0  0
   -4.8714    3.9375    0.0000 C   0  0  0  0  0  0  0  0  0  0  0  0
   -3.5724    1.6875    0.0000 C   0  0  0  0  0  0  0  0  0  0  0  0
    0.3248    3.9375    0.0000 C   0  0  0  0  0  0  0  0  0  0  0  0
   -2.2733    3.9375    0.0000 C   0  0  0  0  0  0  0  0  0  0  0  0
   -3.5724    3.1875    0.0000 C   0  0  0  0  0  0  0  0  0  0  0  0
   -0.9743    3.1875    0.0000 C   0  0  0  0  0  0  0  0  0  0  0  0
   -0.9743    1.6875    0.0000 O   0  0  0  0  0  0  0  0  0  0  0  0
  4  1  1  0
  6  2  1  0
  6  3  1  0
  6  5  1  0
  7  4  1  0
  7  5  1  0
  8  7  2  0
M  END
>  <NAME>  (3565) 
5-METHYL-3-HEXANONE

>  <SYNONYMS>  (3565) 


>  <SPECTRUM TYPE>  (3565) 
MS1

>  <INSTRUMENT TYPE>  (3565) 
EI-B

>  <INSTRUMENT>  (3565) 
HITACHI M-80B

>  <ION MODE>  (3565) 
P

>  <INCHIKEY>  (3565) 
DXVYLFHTJZWTRF-UHFFFAOYSA-N

>  <FORMULA>  (3565) 
C7H14O

>  <EXACT MASS>  (3565) 
114.104465068

>  <MW>  (3565) 
114

>  <ID>  (3565) 
JP006456

>  <CONTRIBUTOR>  (3565) 
University of Tokyo Team, {Faculty of Engineering, University of Tokyo

>  <COMMENT>  (3565) 
SMILES=CCC(=O)CC(C)C
InChI=InChI=1S/C7H14O/c1-4-7(8)5-6(2)3/h6H,4-5H2,1-3H3
computed SMILES=O=C(CC)CC(C)C
accession=JP006456
date=2016.01.19 (Created 2008.10.21, modified 2011.05.06)
author=HISAHIRO HAGIWARA, CHEMICAL RESEARCH INSTITUTE OF NON-AQUEOUSSOLUTIONS TOHOKU UNIV.
license=CC BY-NC-SA
exact mass=114.10447
ionization energy=70 eV
ion type=[M]+*
computed spectral entropy=2.184589516041762
computed normalized entropy=0.7419374391858551
SPLASH=splash10-0a6r-9000000000-20f5957b32aa208000d9
submitter=submitter = University of Tokyo Team (Faculty of Engineering, University of Tokyo)
MoNA Rating=3.75

>  <NUM PEAKS>  (3565) 
19

>  <MASS SPECTRAL PEAKS>  (3565) 
15 2.04
26 2.04
27 24.99
28 2.06
29 51.23
39 13.4
41 30.07
42 6.06
43 14.16
53 1.24
55 1.98
56 2.5
57 99.99
58 3.92
72 6.7
85 21.85
86 2.24
99 1.74
114 10.03

>  <PREDICTED SPECTRUM>  (3565) 
14 12
15 34
26 47
27 228
28 122
29 380
31 52
38 10
39 225
40 54
41 511
42 124
43 399
44 92
45 16
50 4
51 47
53 129
54 46
55 239
56 207
57 999
58 300
59 76
67 18
69 87
70 13
71 141
72 204
73 11
85 480
86 125
99 102
114 295
115 91

$$$$

     RDKit          2D

  7  6  0  0  0  0  0  0  0  0999 V2000
    1.9486    2.6250    0.0000 C   0  0  0  0  0  0  0  0  0  0  0  0
   -4.5466    3.3750    0.0000 C   0  0  0  0  0  0  0  0  0  0  0  0
    0.6495    3.3750    0.0000 C   0  0  0  0  0  0  0  0  0  0  0  0
   -3.2476    2.6250    0.0000 C   0  0  0  0  0  0  0  0  0  0  0  0
   -0.6495    2.6250    0.0000 C   0  0  0  0  0  0  0  0  0  0  0  0
   -1.9486    3.3750    0.0000 C   0  0  0  0  0  0  0  0  0  0  0  0
   -1.9486    4.8750    0.0000 O   0  0  0  0  0  0  0  0  0  0  0  0
  3  1  1  0
  4  2  1  0
  5  3  1  0
  6  4  1  0
  6  5  1  0
  7  6  2  0
M  END
>  <NAME>  (3566) 
3-HEXANONE

>  <SYNONYMS>  (3566) 


>  <SPECTRUM TYPE>  (3566) 
MS1

>  <INSTRUMENT TYPE>  (3566) 
EI-B

>  <INSTRUMENT>  (3566) 
HITACHI M-80B

>  <ION MODE>  (3566) 
P

>  <INCHIKEY>  (3566) 
PFCHFHIRKBAQGU-UHFFFAOYSA-N

>  <FORMULA>  (3566) 
C6H12O

>  <EXACT MASS>  (3566) 
100.088815004

>  <MW>  (3566) 
100

>  <ID>  (3566) 
JP006455

>  <CONTRIBUTOR>  (3566) 
University of Tokyo Team, {Faculty of Engineering, University of Tokyo

>  <COMMENT>  (3566) 
SMILES=CCCC(=O)CC
InChI=InChI=1S/C6H12O/c1-3-5-6(7)4-2/h3-5H2,1-2H3
computed SMILES=O=C(CC)CCC
accession=JP006455
date=2016.01.19 (Created 2008.10.21, modified 2011.05.06)
author=HISAHIRO HAGIWARA, CHEMICAL RESEARCH INSTITUTE OF NON-AQUEOUSSOLUTIONS TOHOKU UNIV.
license=CC BY-NC-SA
exact mass=100.08882
ionization energy=70 eV
ion type=[M]+*
computed spectral entropy=2.3007179867667316
computed normalized entropy=0.7443178220561406
SPLASH=splash10-054o-9000000000-7166c2e59f557283534f
submitter=submitter = University of Tokyo Team (Faculty of Engineering, University of Tokyo)
MoNA Rating=3.75

>  <NUM PEAKS>  (3566) 
22

>  <MASS SPECTRAL PEAKS>  (3566) 
15 2.66
26 5.18
27 43.32
28 5.46
29 55.12
38 1.44
39 14.2
40 1.11
41 26.53
42 8.1
43 99.99
44 2.82
53 1.18
55 2.98
56 1.85
57 87.93
58 2.44
71 56.08
72 5.49
85 2.15
100 28.04
101 1.77

>  <PREDICTED SPECTRUM>  (3566) 
14 27
15 44
18 0
25 2
26 103
27 417
28 205
29 538
30 45
31 40
38 32
39 340
40 127
41 561
42 247
43 758
44 105
50 40
51 49
52 3
53 144
55 169
56 34
57 999
58 174
67 20
71 852
72 358
100 398
101 97

$$$$

     RDKit          2D

  8  7  0  0  0  0  0  0  0  0999 V2000
    1.9486    3.3750    0.0000 C   0  0  0  0  0  0  0  0  0  0  0  0
   -5.8457    3.3750    0.0000 C   0  0  0  0  0  0  0  0  0  0  0  0
    0.6495    4.1250    0.0000 C   0  0  0  0  0  0  0  0  0  0  0  0
   -4.5466    4.1250    0.0000 C   0  0  0  0  0  0  0  0  0  0  0  0
   -0.6495    3.3750    0.0000 C   0  0  0  0  0  0  0  0  0  0  0  0
   -3.2476    3.3750    0.0000 C   0  0  0  0  0  0  0  0  0  0  0  0
   -1.9486    4.1250    0.0000 C   0  0  0  0  0  0  0  0  0  0  0  0
   -1.9486    5.6250    0.0000 O   0  0  0  0  0  0  0  0  0  0  0  0
  3  1  1  0
  4  2  1  0
  5  3  1  0
  6  4  1  0
  7  5  1  0
  7  6  1  0
  8  7  2  0
M  END
>  <NAME>  (3567) 
4-HEPTANONE

>  <SYNONYMS>  (3567) 


>  <SPECTRUM TYPE>  (3567) 
MS1

>  <INSTRUMENT TYPE>  (3567) 
EI-B

>  <INSTRUMENT>  (3567) 
HITACHI M-80B

>  <ION MODE>  (3567) 
P

>  <INCHIKEY>  (3567) 
HCFAJYNVAYBARA-UHFFFAOYSA-N

>  <FORMULA>  (3567) 
C7H14O

>  <EXACT MASS>  (3567) 
114.104465068

>  <MW>  (3567) 
114

>  <ID>  (3567) 
JP006454

>  <CONTRIBUTOR>  (3567) 
University of Tokyo Team, {Faculty of Engineering, University of Tokyo

>  <COMMENT>  (3567) 
SMILES=CCCC(=O)CCC
InChI=InChI=1S/C7H14O/c1-3-5-7(8)6-4-2/h3-6H2,1-2H3
computed SMILES=O=C(CCC)CCC
accession=JP006454
date=2016.01.19 (Created 2008.10.21, modified 2011.05.06)
author=HISAHIRO HAGIWARA, CHEMICAL RESEARCH INSTITUTE OF NON-AQUEOUSSOLUTIONS TOHOKU UNIV.
license=CC BY-NC-SA
exact mass=114.10447
ionization energy=70 eV
ion type=[M]+*
computed spectral entropy=1.9819474944701683
computed normalized entropy=0.6731154927962713
SPLASH=splash10-006x-9000000000-781083206e97b4ff2795
submitter=submitter = University of Tokyo Team (Faculty of Engineering, University of Tokyo)
MoNA Rating=3.75

>  <NUM PEAKS>  (3567) 
19

>  <MASS SPECTRAL PEAKS>  (3567) 
15 1.67
26 1.53
27 25.82
28 1.57
29 4.19
39 13.19
40 1.18
41 25.75
42 6.76
43 99.99
44 3.88
55 2.3
57 1.26
58 6.47
71 82.52
72 3.74
99 1.54
114 14.39
115 1.12

>  <PREDICTED SPECTRUM>  (3567) 
14 15
15 25
26 60
27 273
28 68
29 130
31 42
38 23
39 274
40 99
41 462
42 239
43 853
44 202
45 22
53 44
55 310
56 78
57 291
58 67
59 189
67 28
69 54
70 116
71 999
72 321
73 20
86 357
87 43
99 26
114 474
115 157

$$$$

     RDKit          2D

  8  7  0  0  0  0  0  0  0  0999 V2000
    1.9486    3.3750    0.0000 C   0  0  0  0  0  0  0  0  0  0  0  0
   -5.8457    3.3750    0.0000 C   0  0  0  0  0  0  0  0  0  0  0  0
    0.6495    4.1250    0.0000 C   0  0  0  0  0  0  0  0  0  0  0  0
   -0.6495    3.3750    0.0000 C   0  0  0  0  0  0  0  0  0  0  0  0
   -1.9486    4.1250    0.0000 C   0  0  0  0  0  0  0  0  0  0  0  0
   -3.2476    3.3750    0.0000 C   0  0  0  0  0  0  0  0  0  0  0  0
   -4.5466    4.1250    0.0000 C   0  0  0  0  0  0  0  0  0  0  0  0
   -4.5466    5.6250    0.0000 O   0  0  0  0  0  0  0  0  0  0  0  0
  3  1  1  0
  4  3  1  0
  5  4  1  0
  6  5  1  0
  7  2  1  0
  7  6  1  0
  8  7  2  0
M  END
>  <NAME>  (3568) 
2-HEPTANONE

>  <SYNONYMS>  (3568) 


>  <SPECTRUM TYPE>  (3568) 
MS1

>  <INSTRUMENT TYPE>  (3568) 
EI-B

>  <INSTRUMENT>  (3568) 
HITACHI M-80B

>  <ION MODE>  (3568) 
P

>  <INCHIKEY>  (3568) 
CATSNJVOTSVZJV-UHFFFAOYSA-N

>  <FORMULA>  (3568) 
C7H14O

>  <EXACT MASS>  (3568) 
114.104465068

>  <MW>  (3568) 
114

>  <ID>  (3568) 
JP006452

>  <CONTRIBUTOR>  (3568) 
University of Tokyo Team, {Faculty of Engineering, University of Tokyo

>  <COMMENT>  (3568) 
SMILES=CCCCCC(C)=O
InChI=InChI=1S/C7H14O/c1-3-4-5-6-7(2)8/h3-6H2,1-2H3
computed SMILES=O=C(C)CCCCC
accession=JP006452
date=2016.01.19 (Created 2008.10.21, modified 2011.05.06)
author=HISAHIRO HAGIWARA, CHEMICAL RESEARCH INSTITUTE OF NON-AQUEOUSSOLUTIONS TOHOKU UNIV.
license=CC BY-NC-SA
exact mass=114.10447
ionization energy=70 eV
ion type=[M]+*
computed spectral entropy=2.021010380806917
computed normalized entropy=0.6992216054165864
SPLASH=splash10-052f-9000000000-67e38b971af9b3c9eab2
submitter=submitter = University of Tokyo Team (Faculty of Engineering, University of Tokyo)
MoNA Rating=3.75

>  <NUM PEAKS>  (3568) 
18

>  <MASS SPECTRAL PEAKS>  (3568) 
15 4.64
26 1.06
27 12.69
29 9.93
39 9.39
41 11.87
42 5.61
43 99.99
44 2.51
55 4.46
57 1.13
58 62.29
59 9.76
71 13.24
72 1.69
85 1.47
99 2.61
114 5.19

>  <PREDICTED SPECTRUM>  (3568) 
14 25
15 78
26 27
27 180
28 6
29 146
37 5
38 32
39 218
40 101
41 437
42 285
43 999
44 260
45 44
51 46
52 30
53 96
54 133
55 206
56 189
57 362
58 509
59 98
67 22
68 46
69 57
71 534
72 255
85 131
86 52
95 18
99 138
114 171
115 17

$$$$

     RDKit          2D

  7  6  0  0  0  0  0  0  0  0999 V2000
   -2.5111    2.0993    0.0000 C   0  0  0  0  0  0  0  0  0  0  0  0
    0.8370    0.8002    0.0000 C   0  0  0  0  0  0  0  0  0  0  0  0
    1.3861    2.8493    0.0000 C   0  0  0  0  0  0  0  0  0  0  0  0
   -0.6630    3.3983    0.0000 C   0  0  0  0  0  0  0  0  0  0  0  0
   -1.2120    1.3493    0.0000 C   0  0  0  0  0  0  0  0  0  0  0  0
    0.0870    2.0993    0.0000 C   0  0  0  0  0  0  0  0  0  0  0  0
   -1.2120   -0.1507    0.0000 O   0  0  0  0  0  0  0  0  0  0  0  0
  5  1  1  0
  6  2  1  0
  6  3  1  0
  6  4  1  0
  6  5  1  0
  7  5  2  0
M  END
>  <NAME>  (3569) 
3,3-DIMETHYL-2-BUTANONE

>  <SYNONYMS>  (3569) 


>  <SPECTRUM TYPE>  (3569) 
MS1

>  <INSTRUMENT TYPE>  (3569) 
EI-B

>  <INSTRUMENT>  (3569) 
HITACHI M-80B

>  <ION MODE>  (3569) 
P

>  <INCHIKEY>  (3569) 
PJGSXYOJTGTZAV-UHFFFAOYSA-N

>  <FORMULA>  (3569) 
C6H12O

>  <EXACT MASS>  (3569) 
100.088815004

>  <MW>  (3569) 
100

>  <ID>  (3569) 
JP006451

>  <CONTRIBUTOR>  (3569) 
University of Tokyo Team, {Faculty of Engineering, University of Tokyo

>  <COMMENT>  (3569) 
computed SMILES=O=C(C)C(C)(C)C
SMILES=CC(=O)C(C)(C)C
InChI=InChI=1S/C6H12O/c1-5(7)6(2,3)4/h1-4H3
accession=JP006451
date=2016.01.19 (Created 2008.10.21, modified 2011.05.06)
author=HISAHIRO HAGIWARA, CHEMICAL RESEARCH INSTITUTE OF NON-AQUEOUSSOLUTIONS TOHOKU UNIV.
license=CC BY-NC-SA
exact mass=100.08882
ionization energy=70 eV
ion type=[M]+*
computed spectral entropy=2.1381829686418397
computed normalized entropy=0.7137430095197405
SPLASH=splash10-0a4l-9000000000-1087c8231569414df9c4
submitter=submitter = University of Tokyo Team (Faculty of Engineering, University of Tokyo)
MoNA Rating=3.75

>  <NUM PEAKS>  (3569) 
20

>  <MASS SPECTRAL PEAKS>  (3569) 
15 5.15
27 5.57
28 1.45
29 29.26
38 1.34
39 16.92
40 1.07
41 55.91
42 4.74
43 42.58
51 1.29
53 1.23
55 3.59
56 5.1
57 99.99
58 3.72
69 1.72
85 4.28
100 27.6
101 2.14

>  <PREDICTED SPECTRUM>  (3569) 
14 54
15 194
16 5
25 8
26 94
27 336
28 172
29 382
37 9
38 82
39 429
40 158
41 685
42 217
43 999
44 67
51 43
53 134
54 9
55 226
56 110
57 929
58 346
59 16
72 34
85 65
100 186

$$$$

     RDKit          2D

  7  6  0  0  0  0  0  0  0  0999 V2000
    1.6238    1.6875    0.0000 C   0  0  0  0  0  0  0  0  0  0  0  0
    0.3248    3.9375    0.0000 C   0  0  0  0  0  0  0  0  0  0  0  0
   -3.5724    1.6875    0.0000 C   0  0  0  0  0  0  0  0  0  0  0  0
   -0.9743    1.6875    0.0000 C   0  0  0  0  0  0  0  0  0  0  0  0
    0.3248    2.4375    0.0000 C   0  0  0  0  0  0  0  0  0  0  0  0
   -2.2733    2.4375    0.0000 C   0  0  0  0  0  0  0  0  0  0  0  0
   -2.2733    3.9375    0.0000 O   0  0  0  0  0  0  0  0  0  0  0  0
  5  1  1  0
  5  2  1  0
  5  4  1  0
  6  3  1  0
  6  4  1  0
  7  6  2  0
M  END
>  <NAME>  (3570) 
4-METHYL-2-PENTANONE

>  <SYNONYMS>  (3570) 


>  <SPECTRUM TYPE>  (3570) 
MS1

>  <INSTRUMENT TYPE>  (3570) 
EI-B

>  <INSTRUMENT>  (3570) 
HITACHI M-80B

>  <ION MODE>  (3570) 
P

>  <INCHIKEY>  (3570) 
NTIZESTWPVYFNL-UHFFFAOYSA-N

>  <FORMULA>  (3570) 
C6H12O

>  <EXACT MASS>  (3570) 
100.088815004

>  <MW>  (3570) 
100

>  <ID>  (3570) 
JP006449

>  <CONTRIBUTOR>  (3570) 
University of Tokyo Team, {Faculty of Engineering, University of Tokyo

>  <COMMENT>  (3570) 
SMILES=CC(C)CC(C)=O
InChI=InChI=1S/C6H12O/c1-5(2)4-6(3)7/h5H,4H2,1-3H3
computed SMILES=O=C(C)CC(C)C
accession=JP006449
date=2016.01.19 (Created 2008.10.21, modified 2011.05.06)
author=HISAHIRO HAGIWARA, CHEMICAL RESEARCH INSTITUTE OF NON-AQUEOUSSOLUTIONS TOHOKU UNIV.
license=CC BY-NC-SA
exact mass=100.08882
ionization energy=70 eV
ion type=[M]+*
computed spectral entropy=2.223849174060082
computed normalized entropy=0.7304426948887889
SPLASH=splash10-052f-9000000000-1df29932d3d714865bf1
submitter=submitter = University of Tokyo Team (Faculty of Engineering, University of Tokyo)
MoNA Rating=3.75

>  <NUM PEAKS>  (3570) 
21

>  <MASS SPECTRAL PEAKS>  (3570) 
15 3.88
18 5.3
27 8.51
29 8.32
38 1.34
39 14.06
41 22.54
42 5.53
43 99.99
44 1.91
53 1.03
55 1.14
56 1.3
57 24.76
58 41.55
59 2.36
67 1.36
85 19.04
86 1.13
100 18.94
101 1.3

>  <PREDICTED SPECTRUM>  (3570) 
14 45
15 161
16 7
25 0
26 51
27 259
28 107
29 182
30 22
31 62
37 35
38 94
39 350
40 156
41 527
42 220
43 999
44 232
45 88
50 5
51 65
53 57
55 92
56 172
57 447
58 489
59 170
67 98
71 66
72 62
83 57
84 24
85 385
86 142
99 6
100 376
101 108

$$$$

     RDKit          2D

  7  6  0  0  0  0  0  0  0  0999 V2000
    1.6238    1.6875    0.0000 C   0  0  0  0  0  0  0  0  0  0  0  0
    0.3248    3.9375    0.0000 C   0  0  0  0  0  0  0  0  0  0  0  0
   -3.5724    1.6875    0.0000 C   0  0  0  0  0  0  0  0  0  0  0  0
   -0.9743    1.6875    0.0000 C   0  0  0  0  0  0  0  0  0  0  0  0
    0.3248    2.4375    0.0000 C   0  0  0  0  0  0  0  0  0  0  0  0
   -2.2733    2.4375    0.0000 C   0  0  0  0  0  0  0  0  0  0  0  0
   -2.2733    3.9375    0.0000 O   0  0  0  0  0  0  0  0  0  0  0  0
  5  1  1  0
  5  2  1  0
  5  4  2  0
  6  3  1  0
  6  4  1  0
  7  6  2  0
M  END
>  <NAME>  (3571) 
2-METHYL-2-PENTEN-4-ONE

>  <SYNONYMS>  (3571) 
4-METHYL-3-PENTEN-2-ONE

>  <SPECTRUM TYPE>  (3571) 
MS1

>  <INSTRUMENT TYPE>  (3571) 
EI-B

>  <INSTRUMENT>  (3571) 
HITACHI M-80B

>  <ION MODE>  (3571) 
P

>  <INCHIKEY>  (3571) 
SHOJXDKTYKFBRD-UHFFFAOYSA-N

>  <FORMULA>  (3571) 
C6H10O

>  <EXACT MASS>  (3571) 
98.07316494

>  <MW>  (3571) 
98

>  <ID>  (3571) 
JP006447

>  <CONTRIBUTOR>  (3571) 
University of Tokyo Team, {Faculty of Engineering, University of Tokyo

>  <COMMENT>  (3571) 
SMILES=CC(C)=CC(C)=O
InChI=InChI=1S/C6H10O/c1-5(2)4-6(3)7/h4H,1-3H3
computed SMILES=O=C(C=C(C)C)C
accession=JP006447
date=2016.01.19 (Created 2008.10.21, modified 2011.05.06)
author=HISAHIRO HAGIWARA, CHEMICAL RESEARCH INSTITUTE OF NON-AQUEOUSSOLUTIONS TOHOKU UNIV.
license=CC BY-NC-SA
exact mass=98.07316
ionization energy=70 eV
ion type=[M]+*
computed spectral entropy=2.4939289844229737
computed normalized entropy=0.7566906633478072
SPLASH=splash10-0a7l-9000000000-3abe2bd4b3b37c4ed2cc
submitter=submitter = University of Tokyo Team (Faculty of Engineering, University of Tokyo)
MoNA Rating=3.75

>  <NUM PEAKS>  (3571) 
27

>  <MASS SPECTRAL PEAKS>  (3571) 
14 1.28
15 12.13
26 3.89
27 31.73
29 37.01
37 1.91
38 6.14
39 39.76
40 4.22
41 11.19
42 5.55
43 59.31
44 1.02
50 5.92
51 7.17
52 2.11
53 13.97
54 1.76
55 99.99
56 4.92
67 1.31
79 1.6
82 1.12
83 97.83
84 5.36
98 42.53
99 2.49

>  <PREDICTED SPECTRUM>  (3571) 
14 52
15 156
16 9
18 11
25 23
26 143
27 396
28 181
29 284
31 6
32 15
36 38
37 114
38 171
39 493
40 206
41 361
42 108
43 708
44 67
49 60
50 220
51 328
52 229
53 396
54 155
55 700
56 166
61 23
62 70
63 213
64 116
65 256
66 126
67 232
68 28
69 180
70 72
77 120
78 96
79 158
80 116
81 250
82 67
83 999
84 287
85 27
92 37
95 39
96 15
97 268
98 793
99 257
100 47

$$$$

     RDKit          2D

  6  5  0  0  0  0  0  0  0  0999 V2000
   -0.0000   -0.0000    0.0000 C   0  0  0  0  0  0  0  0  0  0  0  0
    1.2990    2.2500    0.0000 C   0  0  0  0  0  0  0  0  0  0  0  0
   -1.2990    3.7500    0.0000 C   0  0  0  0  0  0  0  0  0  0  0  0
   -0.0000    1.5000    0.0000 C   0  0  0  0  0  0  0  0  0  0  0  0
   -1.2990    2.2500    0.0000 C   0  0  0  0  0  0  0  0  0  0  0  0
   -2.5981    1.5000    0.0000 O   0  0  0  0  0  0  0  0  0  0  0  0
  4  1  1  0
  4  2  1  0
  5  3  1  0
  5  4  1  0
  6  5  2  0
M  END
>  <NAME>  (3572) 
3-METHYL-2-BUTANONE

>  <SYNONYMS>  (3572) 


>  <SPECTRUM TYPE>  (3572) 
MS1

>  <INSTRUMENT TYPE>  (3572) 
EI-B

>  <INSTRUMENT>  (3572) 
HITACHI M-80B

>  <ION MODE>  (3572) 
P

>  <INCHIKEY>  (3572) 
SYBYTAAJFKOIEJ-UHFFFAOYSA-N

>  <FORMULA>  (3572) 
C5H10O

>  <EXACT MASS>  (3572) 
86.07316494

>  <MW>  (3572) 
86

>  <ID>  (3572) 
JP006446

>  <CONTRIBUTOR>  (3572) 
University of Tokyo Team, {Faculty of Engineering, University of Tokyo

>  <COMMENT>  (3572) 
SMILES=CC(C)C(C)=O
InChI=InChI=1S/C5H10O/c1-4(2)5(3)6/h4H,1-3H3
computed SMILES=O=C(C)C(C)C
accession=JP006446
date=2016.01.19 (Created 2008.10.21, modified 2011.05.06)
author=HISAHIRO HAGIWARA, CHEMICAL RESEARCH INSTITUTE OF NON-AQUEOUSSOLUTIONS TOHOKU UNIV.
license=CC BY-NC-SA
exact mass=86.07316
ionization energy=70 eV
ion type=[M]+*
computed spectral entropy=1.5460132913262914
computed normalized entropy=0.6027461270644112
SPLASH=splash10-0006-9000000000-a6388c983671d8b26b64
submitter=submitter = University of Tokyo Team (Faculty of Engineering, University of Tokyo)
MoNA Rating=3.75

>  <NUM PEAKS>  (3572) 
13

>  <MASS SPECTRAL PEAKS>  (3572) 
15 4.35
26 1.07
27 11.54
28 1.28
38 1.35
39 8.97
41 16.31
42 4.01
43 99.99
44 2.23
45 1.07
71 3.59
86 14.97

>  <PREDICTED SPECTRUM>  (3572) 
14 66
15 200
16 18
18 29
25 18
26 128
27 374
28 201
29 288
31 28
32 30
37 59
38 119
39 366
40 159
41 434
42 184
43 999
44 242
45 63
50 4
51 113
52 12
53 130
54 0
55 69
56 7
57 101
58 55
59 96
66 45
67 61
68 16
71 358
72 87
85 11
86 348
87 71

$$$$

     RDKit          2D

  6  5  0  0  0  0  0  0  0  0999 V2000
    1.2990    2.2500    0.0000 C   0  0  0  0  0  0  0  0  0  0  0  0
   -3.8971    2.2500    0.0000 C   0  0  0  0  0  0  0  0  0  0  0  0
    0.0000    3.0000    0.0000 C   0  0  0  0  0  0  0  0  0  0  0  0
   -2.5981    3.0000    0.0000 C   0  0  0  0  0  0  0  0  0  0  0  0
   -1.2990    2.2500    0.0000 C   0  0  0  0  0  0  0  0  0  0  0  0
   -1.2990    0.7500    0.0000 O   0  0  0  0  0  0  0  0  0  0  0  0
  3  1  1  0
  4  2  1  0
  5  3  1  0
  5  4  1  0
  6  5  2  0
M  END
>  <NAME>  (3573) 
3-PENTANONE

>  <SYNONYMS>  (3573) 


>  <SPECTRUM TYPE>  (3573) 
MS1

>  <INSTRUMENT TYPE>  (3573) 
EI-B

>  <INSTRUMENT>  (3573) 
HITACHI M-80B

>  <ION MODE>  (3573) 
P

>  <INCHIKEY>  (3573) 
FDPIMTJIUBPUKL-UHFFFAOYSA-N

>  <FORMULA>  (3573) 
C5H10O

>  <EXACT MASS>  (3573) 
86.07316494

>  <MW>  (3573) 
86

>  <ID>  (3573) 
JP006445

>  <CONTRIBUTOR>  (3573) 
University of Tokyo Team, {Faculty of Engineering, University of Tokyo

>  <COMMENT>  (3573) 
SMILES=CCC(=O)CC
InChI=InChI=1S/C5H10O/c1-3-5(6)4-2/h3-4H2,1-2H3
computed SMILES=O=C(CC)CC
accession=JP006445
date=2016.01.19 (Created 2008.10.21, modified 2011.05.06)
author=HISAHIRO HAGIWARA, CHEMICAL RESEARCH INSTITUTE OF NON-AQUEOUSSOLUTIONS TOHOKU UNIV.
license=CC BY-NC-SA
exact mass=86.07316
ionization energy=70 eV
ion type=[M]+*
computed spectral entropy=1.7319877705394195
computed normalized entropy=0.6246825418593881
SPLASH=splash10-056r-9000000000-ee9204007b48c301923d
submitter=submitter = University of Tokyo Team (Faculty of Engineering, University of Tokyo)
MoNA Rating=3.75

>  <NUM PEAKS>  (3573) 
16

>  <MASS SPECTRAL PEAKS>  (3573) 
15 1.32
26 5.97
27 26.33
28 4
29 74.75
30 1.39
39 2.89
41 1.73
42 3.89
43 2.22
53 1.05
55 1.48
56 3.97
57 99.99
58 3.72
86 17.86

>  <PREDICTED SPECTRUM>  (3573) 
14 22
15 40
25 8
26 75
27 271
28 157
29 565
30 124
31 89
38 9
39 26
40 27
41 1
42 0
43 96
45 6
53 13
54 8
55 52
56 56
57 999
58 205
59 2
85 16
86 302
87 93
88 5

$$$$

     RDKit          2D

  6  5  0  0  0  0  0  0  0  0999 V2000
    1.2990    2.2500    0.0000 C   0  0  0  0  0  0  0  0  0  0  0  0
   -3.8971    2.2500    0.0000 C   0  0  0  0  0  0  0  0  0  0  0  0
    0.0000    3.0000    0.0000 C   0  0  0  0  0  0  0  0  0  0  0  0
   -1.2990    2.2500    0.0000 C   0  0  0  0  0  0  0  0  0  0  0  0
   -2.5981    3.0000    0.0000 C   0  0  0  0  0  0  0  0  0  0  0  0
   -2.5981    4.5000    0.0000 O   0  0  0  0  0  0  0  0  0  0  0  0
  3  1  1  0
  4  3  1  0
  5  2  1  0
  5  4  1  0
  6  5  2  0
M  END
>  <NAME>  (3574) 
2-PENTANONE

>  <SYNONYMS>  (3574) 


>  <SPECTRUM TYPE>  (3574) 
MS1

>  <INSTRUMENT TYPE>  (3574) 
EI-B

>  <INSTRUMENT>  (3574) 
HITACHI M-80B

>  <ION MODE>  (3574) 
P

>  <INCHIKEY>  (3574) 
XNLICIUVMPYHGG-UHFFFAOYSA-N

>  <FORMULA>  (3574) 
C5H10O

>  <EXACT MASS>  (3574) 
86.07316494

>  <MW>  (3574) 
86

>  <ID>  (3574) 
JP006444

>  <CONTRIBUTOR>  (3574) 
University of Tokyo Team, {Faculty of Engineering, University of Tokyo

>  <COMMENT>  (3574) 
SMILES=CCCC(C)=O
InChI=InChI=1S/C5H10O/c1-3-4-5(2)6/h3-4H2,1-2H3
computed SMILES=O=C(C)CCC
accession=JP006444
date=2016.01.19 (Created 2008.10.21, modified 2011.05.06)
author=HISAHIRO HAGIWARA, CHEMICAL RESEARCH INSTITUTE OF NON-AQUEOUSSOLUTIONS TOHOKU UNIV.
license=CC BY-NC-SA
exact mass=86.07316
ionization energy=70 eV
ion type=[M]+*
computed spectral entropy=1.6908342949713187
computed normalized entropy=0.6592076720940382
SPLASH=splash10-0006-9000000000-9d6ab400df7dd4c12a37
submitter=submitter = University of Tokyo Team (Faculty of Engineering, University of Tokyo)
MoNA Rating=3.75

>  <NUM PEAKS>  (3574) 
13

>  <MASS SPECTRAL PEAKS>  (3574) 
15 5.06
26 1.47
27 12.09
28 1.02
29 1.55
39 7.91
41 11.49
42 5.29
43 99.99
44 2.55
58 8
71 8.56
86 16.35

>  <PREDICTED SPECTRUM>  (3574) 
14 52
15 125
16 8
25 8
26 74
27 230
28 117
29 119
31 9
37 26
38 56
39 227
40 94
41 313
42 213
43 999
44 172
45 80
53 31
55 25
57 136
58 273
59 33
67 34
68 62
70 14
71 400
72 129
85 21
86 422
87 113

$$$$

     RDKit          2D

  6  5  0  0  0  0  0  0  0  0999 V2000
    1.2990    2.2500    0.0000 C   0  0  0  0  0  0  0  0  0  0  0  0
   -3.8971    2.2500    0.0000 C   0  0  0  0  0  0  0  0  0  0  0  0
    0.0000    3.0000    0.0000 C   0  0  0  0  0  0  0  0  0  0  0  0
   -2.5981    3.0000    0.0000 C   0  0  0  0  0  0  0  0  0  0  0  0
   -1.2990    2.2500    0.0000 C   0  0  0  0  0  0  0  0  0  0  0  0
   -1.2990    0.7500    0.0000 O   0  0  0  0  0  0  0  0  0  0  0  0
  3  1  2  0
  4  2  1  0
  5  3  1  0
  5  4  1  0
  6  5  2  0
M  END
>  <NAME>  (3575) 
1-PENTEN-3-ONE

>  <SYNONYMS>  (3575) 


>  <SPECTRUM TYPE>  (3575) 
MS1

>  <INSTRUMENT TYPE>  (3575) 
EI-B

>  <INSTRUMENT>  (3575) 
HITACHI M-80B

>  <ION MODE>  (3575) 
P

>  <INCHIKEY>  (3575) 
JLIDVCMBCGBIEY-UHFFFAOYSA-N

>  <FORMULA>  (3575) 
C5H8O

>  <EXACT MASS>  (3575) 
84.057514876

>  <MW>  (3575) 
84

>  <ID>  (3575) 
JP006443

>  <CONTRIBUTOR>  (3575) 
University of Tokyo Team, {Faculty of Engineering, University of Tokyo

>  <COMMENT>  (3575) 
SMILES=CCC(=O)C=C
InChI=InChI=1S/C5H8O/c1-3-5(6)4-2/h3H,1,4H2,2H3
computed SMILES=O=C(C=C)CC
accession=JP006443
date=2016.01.19 (Created 2008.10.21, modified 2011.05.06)
author=HISAHIRO HAGIWARA, CHEMICAL RESEARCH INSTITUTE OF NON-AQUEOUSSOLUTIONS TOHOKU UNIV.
license=CC BY-NC-SA
exact mass=84.05751
ionization energy=70 eV
ion type=[M]+*
computed spectral entropy=1.770630929086754
computed normalized entropy=0.6386201151595194
SPLASH=splash10-0a6r-9000000000-670c8b38aed5c5d2ba07
submitter=submitter = University of Tokyo Team (Faculty of Engineering, University of Tokyo)
MoNA Rating=3.75

>  <NUM PEAKS>  (3575) 
16

>  <MASS SPECTRAL PEAKS>  (3575) 
15 1.16
26 10.3
27 47.88
28 2.39
29 18.98
38 1.03
39 3.35
41 1.59
42 2.18
53 1.42
55 99.99
56 6.3
57 7.34
83 1.1
84 13.02
85 1.6

>  <PREDICTED SPECTRUM>  (3575) 
14 51
15 108
16 0
18 6
25 37
26 248
27 646
28 314
29 676
31 41
37 87
38 195
39 592
40 273
41 550
42 239
43 99
44 5
50 116
51 143
52 127
53 190
54 141
55 999
56 290
57 302
66 15
69 192
83 34
84 357
85 101

$$$$

     RDKit          2D

  5  4  0  0  0  0  0  0  0  0999 V2000
   -0.0000   -0.0000    0.0000 C   0  0  0  0  0  0  0  0  0  0  0  0
   -1.2990    3.7500    0.0000 C   0  0  0  0  0  0  0  0  0  0  0  0
    0.0000    1.5000    0.0000 C   0  0  0  0  0  0  0  0  0  0  0  0
   -1.2990    2.2500    0.0000 C   0  0  0  0  0  0  0  0  0  0  0  0
   -2.5981    1.5000    0.0000 O   0  0  0  0  0  0  0  0  0  0  0  0
  3  1  1  0
  4  2  1  0
  4  3  1  0
  5  4  2  0
M  END
>  <NAME>  (3576) 
2-BUTANONE

>  <SYNONYMS>  (3576) 


>  <SPECTRUM TYPE>  (3576) 
MS1

>  <INSTRUMENT TYPE>  (3576) 
EI-B

>  <INSTRUMENT>  (3576) 
HITACHI M-80B

>  <ION MODE>  (3576) 
P

>  <INCHIKEY>  (3576) 
ZWEHNKRNPOVVGH-UHFFFAOYSA-N

>  <FORMULA>  (3576) 
C4H8O

>  <EXACT MASS>  (3576) 
72.057514876

>  <MW>  (3576) 
72

>  <ID>  (3576) 
JP006442

>  <CONTRIBUTOR>  (3576) 
University of Tokyo Team, {Faculty of Engineering, University of Tokyo

>  <COMMENT>  (3576) 
SMILES=CCC(C)=O
InChI=InChI=1S/C4H8O/c1-3-4(2)5/h3H2,1-2H3
computed SMILES=O=C(C)CC
accession=JP006442
date=2016.01.19 (Created 2008.10.21, modified 2011.05.06)
author=HISAHIRO HAGIWARA, CHEMICAL RESEARCH INSTITUTE OF NON-AQUEOUSSOLUTIONS TOHOKU UNIV.
license=CC BY-NC-SA
exact mass=72.05751
ionization energy=70 eV
ion type=[M]+*
computed spectral entropy=1.640421487931741
computed normalized entropy=0.6395531682369056
SPLASH=splash10-0006-9000000000-9d38ccb9b91100a7ec9a
submitter=submitter = University of Tokyo Team (Faculty of Engineering, University of Tokyo)
MoNA Rating=3.75

>  <NUM PEAKS>  (3576) 
13

>  <MASS SPECTRAL PEAKS>  (3576) 
14 1.39
15 6.48
26 4.08
27 13.01
28 1.03
29 17.17
39 1.93
41 1.27
42 6.27
43 99.99
44 2.24
57 7.37
72 21.68

>  <PREDICTED SPECTRUM>  (3576) 
14 116
15 255
16 47
17 11
18 54
19 6
25 44
26 214
27 495
28 325
29 557
30 147
31 165
32 24
37 52
38 88
39 258
40 146
41 273
42 150
43 999
44 272
45 56
53 103
54 76
56 64
57 433
58 26
71 88
72 526
73 167

$$$$

     RDKit          2D

 13 14  0  0  0  0  0  0  0  0999 V2000
    8.0963   -1.8816    0.0000 C   0  0  0  0  0  0  0  0  0  0  0  0
   -1.1700   -1.2200    0.0000 C   0  0  0  0  0  0  0  0  0  0  0  0
    7.3463   -0.5826    0.0000 C   0  0  0  0  0  0  0  0  0  0  0  0
    0.3300   -1.2200    0.0000 C   0  0  0  0  0  0  0  0  0  0  0  0
    7.0965   -2.9900    0.0000 C   0  0  0  0  0  0  0  0  0  0  0  0
   -1.6300    0.2000    0.0000 C   0  0  0  0  0  0  0  0  0  0  0  0
    4.7678    0.1193    0.0000 C   0  0  0  0  0  0  0  0  0  0  0  0
    2.2271    0.6621    0.0000 C   0  0  0  0  0  0  0  0  0  0  0  0
    5.8815   -0.8855    0.0000 C   0  0  0  0  0  0  0  0  0  0  0  0
    0.8000    0.2000    0.0000 C   0  0  0  0  0  0  0  0  0  0  0  0
    3.3407   -0.3428    0.0000 O   0  0  0  0  0  0  0  0  0  0  0  0
    5.7294   -2.3821    0.0000 O   0  0  0  0  0  0  0  0  0  0  0  0
   -0.4200    1.0800    0.0000 O   0  0  0  0  0  0  0  0  0  0  0  0
  3  1  1  0
  4  2  1  0
  5  1  2  0
  6  2  2  0
  9  3  2  0
  9  7  1  0
 10  4  2  0
 10  8  1  0
 11  7  1  0
 11  8  1  0
 12  5  1  0
 12  9  1  0
 13  6  1  0
 13 10  1  0
M  END
>  <NAME>  (3577) 
DIFURFURYL ETHER

>  <SYNONYMS>  (3577) 


>  <SPECTRUM TYPE>  (3577) 
MS1

>  <INSTRUMENT TYPE>  (3577) 
EI-B

>  <INSTRUMENT>  (3577) 
HITACHI M-80B

>  <ION MODE>  (3577) 
P

>  <INCHIKEY>  (3577) 
YEQMNLGBLPBBNI-UHFFFAOYSA-N

>  <FORMULA>  (3577) 
C10H10O3

>  <EXACT MASS>  (3577) 
178.06299417999998

>  <MW>  (3577) 
178

>  <ID>  (3577) 
JP006440

>  <CONTRIBUTOR>  (3577) 
University of Tokyo Team, {Faculty of Engineering, University of Tokyo

>  <COMMENT>  (3577) 
SMILES=c(c2)cc(o2)COCc(c1)occ1
InChI=InChI=1S/C10H10O3/c1-3-9(12-5-1)7-11-8-10-4-2-6-13-10/h1-6H,7-8H2
computed SMILES=O1C=CC=C1COCC=2OC=CC2
accession=JP006440
date=2016.01.19 (Created 2008.10.21, modified 2011.05.06)
author=HISAHIRO HAGIWARA, CHEMICAL RESEARCH INSTITUTE OF NON-AQUEOUSSOLUTIONS TOHOKU UNIV.
license=CC BY-NC-SA
exact mass=178.06299
ionization energy=70 eV
ion type=[M]+*
computed spectral entropy=2.1608648273037603
computed normalized entropy=0.7097549357920226
SPLASH=splash10-001i-9000000000-7e0d0692ac5cc6a680ea
submitter=submitter = University of Tokyo Team (Faculty of Engineering, University of Tokyo)
MoNA Rating=3.75

>  <NUM PEAKS>  (3577) 
21

>  <MASS SPECTRAL PEAKS>  (3577) 
27 9.68
29 2.88
38 2.2
39 11.43
41 6.49
42 1.07
50 1.84
51 3.67
52 3.12
53 23.66
54 6.02
69 5.64
80 1.56
81 99.99
82 46.83
83 2.72
95 5.02
96 1.5
97 9.21
110 3.48
178 7.54

>  <PREDICTED SPECTRUM>  (3577) 
26 1
27 11
33 11
34 9
36 15
37 46
38 88
39 231
40 93
41 126
42 80
43 43
44 34
45 2
50 84
51 182
52 179
53 496
54 116
55 31
63 20
64 8
65 60
66 81
67 77
68 67
69 83
74 4
77 67
78 23
79 15
81 999
82 121
83 25
94 26
96 35
97 170
98 53
119 10
120 5
134 6
178 252
179 78

$$$$

     RDKit          2D

 17 17  0  0  0  0  0  0  0  0999 V2000
    5.5216    5.0079    0.0000 C   0  0  0  0  0  0  0  0  0  0  0  0
    4.2226    4.2579    0.0000 C   0  0  0  0  0  0  0  0  0  0  0  0
    2.9236    5.0079    0.0000 C   0  0  0  0  0  0  0  0  0  0  0  0
    1.6245    4.2579    0.0000 C   0  0  0  0  0  0  0  0  0  0  0  0
    0.3255    5.0079    0.0000 C   0  0  0  0  0  0  0  0  0  0  0  0
  -10.0668    6.5079    0.0000 C   0  0  0  0  0  0  0  0  0  0  0  0
  -10.0673    5.0071    0.0000 C   0  0  0  0  0  0  0  0  0  0  0  0
   -8.7673    7.2587    0.0000 C   0  0  0  0  0  0  0  0  0  0  0  0
   -0.9736    4.2579    0.0000 C   0  0  0  0  0  0  0  0  0  0  0  0
   -8.7683    4.2571    0.0000 C   0  0  0  0  0  0  0  0  0  0  0  0
   -7.4683    6.5087    0.0000 C   0  0  0  0  0  0  0  0  0  0  0  0
   -2.2726    5.0079    0.0000 C   0  0  0  0  0  0  0  0  0  0  0  0
   -6.1697    4.2579    0.0000 C   0  0  0  0  0  0  0  0  0  0  0  0
   -7.4687    5.0079    0.0000 C   0  0  0  0  0  0  0  0  0  0  0  0
   -3.5716    4.2579    0.0000 C   0  0  0  0  0  0  0  0  0  0  0  0
   -3.5716    2.7579    0.0000 O   0  0  0  0  0  0  0  0  0  0  0  0
   -4.8707    5.0079    0.0000 O   0  0  0  0  0  0  0  0  0  0  0  0
  2  1  1  0
  3  2  1  0
  4  3  1  0
  5  4  1  0
  7  6  2  0
  8  6  1  0
  9  5  1  0
 10  7  1  0
 11  8  2  0
 12  9  1  0
 14 10  2  0
 14 11  1  0
 14 13  1  0
 15 12  1  0
 16 15  2  0
 17 13  1  0
 17 15  1  0
M  END
>  <NAME>  (3578) 
BENZYL OCTANOATE

>  <SYNONYMS>  (3578) 


>  <SPECTRUM TYPE>  (3578) 
MS1

>  <INSTRUMENT TYPE>  (3578) 
EI-B

>  <INSTRUMENT>  (3578) 
HITACHI M-80B

>  <ION MODE>  (3578) 
P

>  <INCHIKEY>  (3578) 
MWQWCHLIPMDVLS-UHFFFAOYSA-N

>  <FORMULA>  (3578) 
C15H22O2

>  <EXACT MASS>  (3578) 
234.161979944

>  <MW>  (3578) 
234

>  <ID>  (3578) 
JP006438

>  <CONTRIBUTOR>  (3578) 
University of Tokyo Team, {Faculty of Engineering, University of Tokyo

>  <COMMENT>  (3578) 
SMILES=CCCCCCCC(=O)OCc(c1)cccc1
InChI=InChI=1S/C15H22O2/c1-2-3-4-5-9-12-15(16)17-13-14-10-7-6-8-11-14/h6-8,10-11H,2-5,9,12-13H2,1H3
computed SMILES=O=C(OCC=1C=CC=CC1)CCCCCCC
accession=JP006438
date=2016.01.19 (Created 2008.10.21, modified 2011.05.06)
author=HISAHIRO HAGIWARA, CHEMICAL RESEARCH INSTITUTE OF NON-AQUEOUSSOLUTIONS TOHOKU UNIV.
license=CC BY-NC-SA
exact mass=234.16198
ionization energy=70 eV
ion type=[M]+*
computed spectral entropy=2.8026075777003014
computed normalized entropy=0.7882793834047931
SPLASH=splash10-052f-9300000000-bcfcb7c152aa41154ff4
submitter=submitter = University of Tokyo Team (Faculty of Engineering, University of Tokyo)
MoNA Rating=3.75

>  <NUM PEAKS>  (3578) 
35

>  <MASS SPECTRAL PEAKS>  (3578) 
27 6.47
29 8.37
39 6.97
41 15.92
42 3.69
43 13.33
51 2.59
53 1.04
55 11.13
56 1.38
57 27.03
58 1.01
63 1.46
65 10.4
67 1.1
69 1.28
77 6.49
78 1.34
79 6.06
83 8.14
89 2.82
90 9.15
91 99.99
92 22.9
93 1.22
97 7.44
105 2.01
107 6.23
108 58.45
109 5.25
124 1.27
125 9.95
127 10.82
143 7.96
234 4.44

>  <PREDICTED SPECTRUM>  (3578) 
18 8
25 3
26 49
27 178
28 69
29 162
31 1
32 17
36 8
37 6
38 49
39 245
40 105
41 424
42 255
43 515
44 146
45 42
50 110
51 198
52 132
53 117
54 60
55 315
56 219
57 359
58 103
59 48
60 38
61 24
62 51
63 143
64 100
65 363
66 92
67 105
68 63
69 245
70 155
71 146
72 8
73 35
74 82
75 49
76 38
77 258
78 165
79 317
80 100
81 121
82 22
83 115
84 2
85 44
89 202
90 275
91 999
92 453
93 164
95 83
96 24
97 191
98 63
99 54
100 73
101 72
102 16
103 2
104 42
105 216
106 83
107 475
108 821
109 234
110 38
111 38
115 88
116 4
117 8
123 30
124 66
125 172
126 164
127 324
128 185
129 87
133 16
143 234
144 70
234 161
235 52

$$$$

     RDKit          2D

 16 15  0  0  0  0  0  0  0  0999 V2000
    4.5466    7.8750    0.0000 C   0  0  0  0  0  0  0  0  0  0  0  0
  -13.6399    7.8750    0.0000 C   0  0  0  0  0  0  0  0  0  0  0  0
    3.2476    8.6250    0.0000 C   0  0  0  0  0  0  0  0  0  0  0  0
  -12.3409    8.6250    0.0000 C   0  0  0  0  0  0  0  0  0  0  0  0
    1.9486    7.8750    0.0000 C   0  0  0  0  0  0  0  0  0  0  0  0
  -11.0418    7.8750    0.0000 C   0  0  0  0  0  0  0  0  0  0  0  0
    0.6495    8.6250    0.0000 C   0  0  0  0  0  0  0  0  0  0  0  0
   -9.7428    8.6250    0.0000 C   0  0  0  0  0  0  0  0  0  0  0  0
   -0.6495    7.8750    0.0000 C   0  0  0  0  0  0  0  0  0  0  0  0
   -1.9486    8.6250    0.0000 C   0  0  0  0  0  0  0  0  0  0  0  0
   -8.4437    7.8750    0.0000 C   0  0  0  0  0  0  0  0  0  0  0  0
   -3.2476    7.8750    0.0000 C   0  0  0  0  0  0  0  0  0  0  0  0
   -7.1447    8.6250    0.0000 C   0  0  0  0  0  0  0  0  0  0  0  0
   -4.5466    8.6250    0.0000 C   0  0  0  0  0  0  0  0  0  0  0  0
   -4.5466   10.1250    0.0000 O   0  0  0  0  0  0  0  0  0  0  0  0
   -5.8457    7.8750    0.0000 O   0  0  0  0  0  0  0  0  0  0  0  0
  3  1  1  0
  4  2  1  0
  5  3  1  0
  6  4  1  0
  7  5  1  0
  8  6  1  0
  9  7  1  0
 10  9  1  0
 11  8  1  0
 12 10  1  0
 13 11  1  0
 14 12  1  0
 15 14  2  0
 16 13  1  0
 16 14  1  0
M  END
>  <NAME>  (3579) 
HEXYL OCTANOATE

>  <SYNONYMS>  (3579) 


>  <SPECTRUM TYPE>  (3579) 
MS1

>  <INSTRUMENT TYPE>  (3579) 
EI-B

>  <INSTRUMENT>  (3579) 
HITACHI M-80B

>  <ION MODE>  (3579) 
P

>  <INCHIKEY>  (3579) 
PBGWNXWNCSSXCO-UHFFFAOYSA-N

>  <FORMULA>  (3579) 
C14H28O2

>  <EXACT MASS>  (3579) 
228.208930136

>  <MW>  (3579) 
228

>  <ID>  (3579) 
JP006437

>  <CONTRIBUTOR>  (3579) 
University of Tokyo Team, {Faculty of Engineering, University of Tokyo

>  <COMMENT>  (3579) 
SMILES=CCCCCCCC(=O)OCCCCCC
InChI=InChI=1S/C14H28O2/c1-3-5-7-9-10-12-14(15)16-13-11-8-6-4-2/h3-13H2,1-2H3
computed SMILES=O=C(OCCCCCC)CCCCCCC
accession=JP006437
date=2016.01.19 (Created 2008.10.21, modified 2011.05.06)
author=HISAHIRO HAGIWARA, CHEMICAL RESEARCH INSTITUTE OF NON-AQUEOUSSOLUTIONS TOHOKU UNIV.
license=CC BY-NC-SA
exact mass=228.20893
ionization energy=70 eV
ion type=[M]+*
computed spectral entropy=3.0473293483345203
computed normalized entropy=0.8005252255811062
SPLASH=splash10-0a5c-9200000000-a5c27c1fbee9b7562189
submitter=submitter = University of Tokyo Team (Faculty of Engineering, University of Tokyo)
MoNA Rating=3.75

>  <NUM PEAKS>  (3579) 
45

>  <MASS SPECTRAL PEAKS>  (3579) 
27 20.14
29 31.88
31 1.28
39 11.52
41 57.88
42 27.44
43 99.99
44 2.12
45 1.83
53 2.68
54 3
55 44.28
56 58.58
57 61.53
58 2.38
59 1.74
60 16.63
61 31.43
67 3.53
68 1.68
69 23.09
70 2.55
71 1.78
73 17.53
74 1.64
81 1.1
82 2.18
83 7.65
84 82.51
85 15.43
87 5.07
89 3.56
97 2.42
98 2.45
101 8.46
103 1.92
109 1.69
115 2.86
125 1.06
127 42.18
128 3.1
129 1.98
144 7.06
145 70.19
146 5.02

>  <PREDICTED SPECTRUM>  (3579) 
18 5
25 14
26 84
27 398
28 198
29 563
30 96
31 121
32 4
36 22
37 37
38 66
39 379
40 173
41 791
42 525
43 999
44 239
45 159
46 7
50 1
51 29
52 22
53 180
54 217
55 760
56 813
57 791
58 168
59 90
60 474
61 580
62 72
63 5
65 59
66 32
67 197
68 303
69 606
70 779
71 587
72 163
73 547
74 94
75 69
77 32
79 58
80 16
81 161
82 200
83 435
84 502
85 365
86 150
87 358
88 86
89 176
90 36
91 26
93 64
94 7
95 72
96 103
97 203
98 226
99 292
100 39
101 181
102 74
103 38
109 7
110 34
111 117
112 204
113 238
114 166
115 213
116 223
117 212
118 8
123 19
125 71
126 22
127 204
128 34
129 214
130 64
131 102
132 2
137 28
138 1
139 15
140 15
141 237
142 75
143 57
144 40
145 216
146 62
157 104
158 84
159 249
160 68
171 91
172 35
185 57
187 78
228 29

$$$$

     RDKit          2D

 15 14  0  0  0  0  0  0  0  0999 V2000
    3.8971    6.7500    0.0000 C   0  0  0  0  0  0  0  0  0  0  0  0
  -11.6913    6.7500    0.0000 C   0  0  0  0  0  0  0  0  0  0  0  0
  -10.3923    9.0000    0.0000 C   0  0  0  0  0  0  0  0  0  0  0  0
    2.5981    7.5000    0.0000 C   0  0  0  0  0  0  0  0  0  0  0  0
    1.2990    6.7500    0.0000 C   0  0  0  0  0  0  0  0  0  0  0  0
    0.0000    7.5000    0.0000 C   0  0  0  0  0  0  0  0  0  0  0  0
   -1.2990    6.7500    0.0000 C   0  0  0  0  0  0  0  0  0  0  0  0
   -2.5981    7.5000    0.0000 C   0  0  0  0  0  0  0  0  0  0  0  0
   -3.8971    6.7500    0.0000 C   0  0  0  0  0  0  0  0  0  0  0  0
   -9.0933    6.7500    0.0000 C   0  0  0  0  0  0  0  0  0  0  0  0
   -7.7942    7.5000    0.0000 C   0  0  0  0  0  0  0  0  0  0  0  0
  -10.3923    7.5000    0.0000 C   0  0  0  0  0  0  0  0  0  0  0  0
   -5.1962    7.5000    0.0000 C   0  0  0  0  0  0  0  0  0  0  0  0
   -5.1962    9.0000    0.0000 O   0  0  0  0  0  0  0  0  0  0  0  0
   -6.4952    6.7500    0.0000 O   0  0  0  0  0  0  0  0  0  0  0  0
  4  1  1  0
  5  4  1  0
  6  5  1  0
  7  6  1  0
  8  7  1  0
  9  8  1  0
 11 10  1  0
 12  2  1  0
 12  3  1  0
 12 10  1  0
 13  9  1  0
 14 13  2  0
 15 11  1  0
 15 13  1  0
M  END
>  <NAME>  (3580) 
ISOAMYL OCTANOATE

>  <SYNONYMS>  (3580) 
ISOPENTYL OCTANOATE

>  <SPECTRUM TYPE>  (3580) 
MS1

>  <INSTRUMENT TYPE>  (3580) 
EI-B

>  <INSTRUMENT>  (3580) 
HITACHI M-80B

>  <ION MODE>  (3580) 
P

>  <INCHIKEY>  (3580) 
XKWSWANXMRXDES-UHFFFAOYSA-N

>  <FORMULA>  (3580) 
C13H26O2

>  <EXACT MASS>  (3580) 
214.193280072

>  <MW>  (3580) 
214

>  <ID>  (3580) 
JP006436

>  <CONTRIBUTOR>  (3580) 
University of Tokyo Team, {Faculty of Engineering, University of Tokyo

>  <COMMENT>  (3580) 
SMILES=CCCCCCCC(=O)OCCC(C)C
InChI=InChI=1S/C13H26O2/c1-4-5-6-7-8-9-13(14)15-11-10-12(2)3/h12H,4-11H2,1-3H3
computed SMILES=O=C(OCCC(C)C)CCCCCCC
ionization energy=70 eV
accession=JP006436
date=2016.01.19 (Created 2008.10.21, modified 2011.05.06)
author=HISAHIRO HAGIWARA, CHEMICAL RESEARCH INSTITUTE OF NON-AQUEOUSSOLUTIONS TOHOKU UNIV.
license=CC BY-NC-SA
exact mass=214.19328
ion type=[M]+*
computed spectral entropy=2.5080791652781627
computed normalized entropy=0.7374106480266874
SPLASH=splash10-00di-9100000000-6cbd60a7151403d7df2e
submitter=submitter = University of Tokyo Team (Faculty of Engineering, University of Tokyo)
MoNA Rating=3.75

>  <NUM PEAKS>  (3580) 
30

>  <MASS SPECTRAL PEAKS>  (3580) 
27 7.98
29 11.17
39 4.99
41 22.05
42 9.09
43 41.49
44 1.08
45 1.05
53 1.06
55 23.83
56 2.83
57 22.75
60 3.7
61 1.05
67 1.07
69 4.37
70 99.99
71 27.59
72 1.17
73 3.72
83 1.38
84 1.43
87 1.35
101 2.2
115 1.68
127 19.24
128 1.44
144 1.55
145 7.28
171 1.2

>  <PREDICTED SPECTRUM>  (3580) 
25 4
26 50
27 222
28 59
29 287
30 54
31 49
36 12
38 10
39 191
40 79
41 418
42 314
43 638
44 115
45 136
51 9
52 11
53 118
54 104
55 448
56 114
57 324
58 57
59 86
60 187
61 138
62 8
65 27
67 93
68 99
69 291
70 999
71 614
72 104
73 246
74 36
79 0
80 21
81 102
82 98
83 172
84 14
85 55
86 1
87 110
88 62
95 89
96 58
97 94
98 84
99 93
100 62
101 234
102 54
108 30
109 146
110 56
111 24
115 127
125 71
126 3
127 682
128 240
129 79
130 53
144 170
145 300
146 116
157 9
158 56
159 38
171 164
172 25
199 16

$$$$

     RDKit          2D

 15 14  0  0  0  0  0  0  0  0999 V2000
    4.5466    7.1250    0.0000 C   0  0  0  0  0  0  0  0  0  0  0  0
  -12.3409    7.8750    0.0000 C   0  0  0  0  0  0  0  0  0  0  0  0
    3.2476    7.8750    0.0000 C   0  0  0  0  0  0  0  0  0  0  0  0
  -11.0418    7.1250    0.0000 C   0  0  0  0  0  0  0  0  0  0  0  0
    1.9486    7.1250    0.0000 C   0  0  0  0  0  0  0  0  0  0  0  0
   -9.7428    7.8750    0.0000 C   0  0  0  0  0  0  0  0  0  0  0  0
    0.6495    7.8750    0.0000 C   0  0  0  0  0  0  0  0  0  0  0  0
   -0.6495    7.1250    0.0000 C   0  0  0  0  0  0  0  0  0  0  0  0
   -1.9486    7.8750    0.0000 C   0  0  0  0  0  0  0  0  0  0  0  0
   -8.4437    7.1250    0.0000 C   0  0  0  0  0  0  0  0  0  0  0  0
   -3.2476    7.1250    0.0000 C   0  0  0  0  0  0  0  0  0  0  0  0
   -7.1447    7.8750    0.0000 C   0  0  0  0  0  0  0  0  0  0  0  0
   -4.5466    7.8750    0.0000 C   0  0  0  0  0  0  0  0  0  0  0  0
   -4.5466    9.3750    0.0000 O   0  0  0  0  0  0  0  0  0  0  0  0
   -5.8457    7.1250    0.0000 O   0  0  0  0  0  0  0  0  0  0  0  0
  3  1  1  0
  4  2  1  0
  5  3  1  0
  6  4  1  0
  7  5  1  0
  8  7  1  0
  9  8  1  0
 10  6  1  0
 11  9  1  0
 12 10  1  0
 13 11  1  0
 14 13  2  0
 15 12  1  0
 15 13  1  0
M  END
>  <NAME>  (3581) 
AMYL OCTANOATE

>  <SYNONYMS>  (3581) 
PENTYL OCTANOATE

>  <SPECTRUM TYPE>  (3581) 
MS1

>  <INSTRUMENT TYPE>  (3581) 
EI-B

>  <INSTRUMENT>  (3581) 
HITACHI M-80B

>  <ION MODE>  (3581) 
P

>  <INCHIKEY>  (3581) 
GJWGZSBNFSBUPX-UHFFFAOYSA-N

>  <FORMULA>  (3581) 
C13H26O2

>  <EXACT MASS>  (3581) 
214.193280072

>  <MW>  (3581) 
214

>  <ID>  (3581) 
JP006435

>  <CONTRIBUTOR>  (3581) 
University of Tokyo Team, {Faculty of Engineering, University of Tokyo

>  <COMMENT>  (3581) 
SMILES=CCCCCCCC(=O)OCCCCC
InChI=InChI=1S/C13H26O2/c1-3-5-7-8-9-11-13(14)15-12-10-6-4-2/h3-12H2,1-2H3
computed SMILES=O=C(OCCCCC)CCCCCCC
accession=JP006435
date=2016.01.19 (Created 2008.10.21, modified 2011.05.06)
author=HISAHIRO HAGIWARA, CHEMICAL RESEARCH INSTITUTE OF NON-AQUEOUSSOLUTIONS TOHOKU UNIV.
license=CC BY-NC-SA
exact mass=214.19328
ionization energy=70 eV
ion type=[M]+*
computed spectral entropy=3.032140283267591
computed normalized entropy=0.7965350990312092
SPLASH=splash10-05bf-9200000000-6ccbfca2b3d37be0078c
submitter=submitter = University of Tokyo Team (Faculty of Engineering, University of Tokyo)
MoNA Rating=3.75

>  <NUM PEAKS>  (3581) 
45

>  <MASS SPECTRAL PEAKS>  (3581) 
27 16.21
29 28.37
31 1.02
39 9.27
41 43.66
42 26.47
43 65.89
44 1.88
45 1.52
53 2.08
54 1.38
55 35.57
56 5.13
57 44.96
58 1.93
59 1.24
60 18.81
61 14.45
67 2.3
68 1.12
69 8.69
70 99.99
71 17.79
73 16.6
74 1.53
82 1.38
83 4.99
84 3.72
85 2.05
87 5.61
89 3.95
97 2.06
98 2.06
101 8.08
102 2.01
103 1.63
109 1.35
115 5.24
127 41.98
128 3.84
130 4.27
143 1.35
144 5.08
145 62.52
146 5.62

>  <PREDICTED SPECTRUM>  (3581) 
15 7
25 3
26 65
27 365
28 173
29 484
30 109
31 104
36 10
37 25
38 53
39 352
40 156
41 706
42 519
43 999
44 268
45 153
50 33
51 44
52 24
53 149
54 156
55 645
56 633
57 475
58 101
59 51
60 399
61 451
62 72
65 31
67 114
68 219
69 459
70 666
71 465
72 93
73 445
74 85
75 24
79 29
81 72
82 166
83 311
84 302
85 363
86 141
87 338
88 92
89 95
90 31
91 0
95 22
96 67
97 102
98 177
99 247
100 140
101 202
102 62
109 40
111 72
112 24
113 236
114 144
115 139
116 85
117 173
118 9
127 318
128 130
129 72
130 10
131 182
132 45
141 12
143 123
144 180
145 335
146 106
157 61
158 16
171 75

$$$$

     RDKit          2D

 14 13  0  0  0  0  0  0  0  0999 V2000
    3.5724    6.5625    0.0000 C   0  0  0  0  0  0  0  0  0  0  0  0
  -10.7171    7.3125    0.0000 C   0  0  0  0  0  0  0  0  0  0  0  0
   -9.4180    5.0625    0.0000 C   0  0  0  0  0  0  0  0  0  0  0  0
    2.2733    7.3125    0.0000 C   0  0  0  0  0  0  0  0  0  0  0  0
    0.9743    6.5625    0.0000 C   0  0  0  0  0  0  0  0  0  0  0  0
   -0.3248    7.3125    0.0000 C   0  0  0  0  0  0  0  0  0  0  0  0
   -1.6238    6.5625    0.0000 C   0  0  0  0  0  0  0  0  0  0  0  0
   -2.9228    7.3125    0.0000 C   0  0  0  0  0  0  0  0  0  0  0  0
   -4.2219    6.5625    0.0000 C   0  0  0  0  0  0  0  0  0  0  0  0
   -8.1190    7.3125    0.0000 C   0  0  0  0  0  0  0  0  0  0  0  0
   -9.4180    6.5625    0.0000 C   0  0  0  0  0  0  0  0  0  0  0  0
   -5.5209    7.3125    0.0000 C   0  0  0  0  0  0  0  0  0  0  0  0
   -5.5209    8.8125    0.0000 O   0  0  0  0  0  0  0  0  0  0  0  0
   -6.8200    6.5625    0.0000 O   0  0  0  0  0  0  0  0  0  0  0  0
  4  1  1  0
  5  4  1  0
  6  5  1  0
  7  6  1  0
  8  7  1  0
  9  8  1  0
 11  2  1  0
 11  3  1  0
 11 10  1  0
 12  9  1  0
 13 12  2  0
 14 10  1  0
 14 12  1  0
M  END
>  <NAME>  (3582) 
ISOBUTYL OCTANOATE

>  <SYNONYMS>  (3582) 


>  <SPECTRUM TYPE>  (3582) 
MS1

>  <INSTRUMENT TYPE>  (3582) 
EI-B

>  <INSTRUMENT>  (3582) 
HITACHI M-80B

>  <ION MODE>  (3582) 
P

>  <INCHIKEY>  (3582) 
CFQRBRGFNFRMBD-UHFFFAOYSA-N

>  <FORMULA>  (3582) 
C12H24O2

>  <EXACT MASS>  (3582) 
200.177630008

>  <MW>  (3582) 
200

>  <ID>  (3582) 
JP006434

>  <CONTRIBUTOR>  (3582) 
University of Tokyo Team, {Faculty of Engineering, University of Tokyo

>  <COMMENT>  (3582) 
SMILES=CCCCCCCC(=O)OCC(C)C
InChI=InChI=1S/C12H24O2/c1-4-5-6-7-8-9-12(13)14-10-11(2)3/h11H,4-10H2,1-3H3
computed SMILES=O=C(OCC(C)C)CCCCCCC
accession=JP006434
date=2016.01.19 (Created 2008.10.21, modified 2011.05.06)
author=HISAHIRO HAGIWARA, CHEMICAL RESEARCH INSTITUTE OF NON-AQUEOUSSOLUTIONS TOHOKU UNIV.
license=CC BY-NC-SA
exact mass=200.17763
ionization energy=70 eV
ion type=[M]+*
computed spectral entropy=2.779077715619822
computed normalized entropy=0.7533663678059528
SPLASH=splash10-0a4i-9200000000-dc7d7eb133eff7e0564e
submitter=submitter = University of Tokyo Team (Faculty of Engineering, University of Tokyo)
MoNA Rating=3.75

>  <NUM PEAKS>  (3582) 
40

>  <MASS SPECTRAL PEAKS>  (3582) 
27 15.34
29 30.11
31 1.66
39 11.45
41 50.22
42 11.09
43 32.31
45 1.23
53 1.58
54 1.26
55 20.29
56 88.84
57 99.99
58 3.91
59 1.07
60 19.77
61 5.03
67 2.03
69 3.47
70 1.38
71 1.29
73 12.1
74 1.21
82 1.03
83 3.68
84 4.15
85 1.83
87 4.4
89 1.28
97 1.27
98 1.57
101 5.7
109 1.76
115 1.73
116 2.89
127 57.47
128 4.29
144 5.3
145 22.89
146 1.69

>  <PREDICTED SPECTRUM>  (3582) 
15 33
18 3
25 8
26 57
27 315
28 207
29 583
30 60
31 122
36 20
37 41
38 56
39 328
40 152
41 713
42 328
43 686
44 135
45 110
46 11
51 51
52 55
53 154
54 189
55 512
56 999
57 954
58 231
59 153
60 527
61 388
65 103
66 35
67 164
68 147
69 285
70 108
71 280
72 51
73 471
74 179
79 92
80 34
81 180
82 164
83 329
84 258
85 263
86 57
87 229
90 33
91 0
94 15
95 156
96 112
97 227
98 70
99 30
100 58
101 303
102 92
103 3
107 116
108 43
109 210
110 26
111 30
115 146
116 195
117 108
125 112
126 57
127 893
128 323
129 218
143 149
144 243
145 744
146 205
147 110
157 27

$$$$

     RDKit          2D

 14 13  0  0  0  0  0  0  0  0999 V2000
    3.8971    6.7500    0.0000 C   0  0  0  0  0  0  0  0  0  0  0  0
  -11.6913    6.7500    0.0000 C   0  0  0  0  0  0  0  0  0  0  0  0
    2.5981    7.5000    0.0000 C   0  0  0  0  0  0  0  0  0  0  0  0
  -10.3923    7.5000    0.0000 C   0  0  0  0  0  0  0  0  0  0  0  0
    1.2990    6.7500    0.0000 C   0  0  0  0  0  0  0  0  0  0  0  0
   -9.0933    6.7500    0.0000 C   0  0  0  0  0  0  0  0  0  0  0  0
    0.0000    7.5000    0.0000 C   0  0  0  0  0  0  0  0  0  0  0  0
   -1.2990    6.7500    0.0000 C   0  0  0  0  0  0  0  0  0  0  0  0
   -2.5981    7.5000    0.0000 C   0  0  0  0  0  0  0  0  0  0  0  0
   -3.8971    6.7500    0.0000 C   0  0  0  0  0  0  0  0  0  0  0  0
   -7.7942    7.5000    0.0000 C   0  0  0  0  0  0  0  0  0  0  0  0
   -5.1962    7.5000    0.0000 C   0  0  0  0  0  0  0  0  0  0  0  0
   -5.1962    9.0000    0.0000 O   0  0  0  0  0  0  0  0  0  0  0  0
   -6.4952    6.7500    0.0000 O   0  0  0  0  0  0  0  0  0  0  0  0
  3  1  1  0
  4  2  1  0
  5  3  1  0
  6  4  1  0
  7  5  1  0
  8  7  1  0
  9  8  1  0
 10  9  1  0
 11  6  1  0
 12 10  1  0
 13 12  2  0
 14 11  1  0
 14 12  1  0
M  END
>  <NAME>  (3583) 
BUTYL OCTANOATE

>  <SYNONYMS>  (3583) 


>  <SPECTRUM TYPE>  (3583) 
MS1

>  <INSTRUMENT TYPE>  (3583) 
EI-B

>  <INSTRUMENT>  (3583) 
HITACHI M-80B

>  <ION MODE>  (3583) 
P

>  <INCHIKEY>  (3583) 
PSXNDMJWRZYVTM-UHFFFAOYSA-N

>  <FORMULA>  (3583) 
C12H24O2

>  <EXACT MASS>  (3583) 
200.177630008

>  <MW>  (3583) 
200

>  <ID>  (3583) 
JP006433

>  <CONTRIBUTOR>  (3583) 
University of Tokyo Team, {Faculty of Engineering, University of Tokyo

>  <COMMENT>  (3583) 
SMILES=CCCCCCCC(=O)OCCCC
InChI=InChI=1S/C12H24O2/c1-3-5-7-8-9-10-12(13)14-11-6-4-2/h3-11H2,1-2H3
computed SMILES=O=C(OCCCC)CCCCCCC
accession=JP006433
date=2016.01.19 (Created 2008.10.21, modified 2011.05.06)
author=HISAHIRO HAGIWARA, CHEMICAL RESEARCH INSTITUTE OF NON-AQUEOUSSOLUTIONS TOHOKU UNIV.
license=CC BY-NC-SA
exact mass=200.17763
ionization energy=70 eV
ion type=[M]+*
computed spectral entropy=2.9647917233933456
computed normalized entropy=0.7743717461008731
SPLASH=splash10-0a4i-9200000000-11a863e8d01893a870bf
submitter=submitter = University of Tokyo Team (Faculty of Engineering, University of Tokyo)
MoNA Rating=3.75

>  <NUM PEAKS>  (3583) 
46

>  <MASS SPECTRAL PEAKS>  (3583) 
26 1.15
27 17.93
29 36.64
31 1.61
39 10.66
41 52.99
42 11.19
43 28.47
45 1.86
53 2.23
54 1.6
55 27.09
56 99.99
57 72
58 2.07
59 1.2
60 28.45
61 11.53
67 2.19
69 4.56
70 1.78
71 1.42
73 20.86
74 2.09
82 1.42
83 4.65
84 3.55
85 1.75
86 1
87 5.27
89 3.83
97 2.17
98 2.08
101 11.57
103 1.95
109 1.63
115 2.5
116 5.05
117 1.01
125 1.05
127 48.17
128 3.35
129 2.74
144 3.76
145 54.33
146 3.99

>  <PREDICTED SPECTRUM>  (3583) 
15 5
26 31
27 252
28 165
29 520
30 41
31 110
36 9
37 14
38 23
39 293
40 132
41 654
42 310
43 564
44 114
45 147
46 35
49 13
50 15
51 74
52 62
53 152
54 189
55 542
56 999
57 722
58 123
59 145
60 583
61 439
62 9
64 8
65 106
66 7
67 153
68 124
69 270
70 127
71 267
72 53
73 469
74 167
79 102
80 43
81 185
82 170
83 356
84 269
85 246
86 62
87 184
88 33
89 34
90 29
93 34
94 6
95 147
96 101
97 252
98 18
100 63
101 329
102 114
107 159
108 133
109 224
110 5
111 2
115 224
116 222
117 156
125 110
126 88
127 807
128 298
129 291
143 150
144 174
145 724
146 158
147 23
157 76
200 39

$$$$

     RDKit          2D

 13 12  0  0  0  0  0  0  0  0999 V2000
    3.2476    5.6250    0.0000 C   0  0  0  0  0  0  0  0  0  0  0  0
   -9.7428    5.6250    0.0000 C   0  0  0  0  0  0  0  0  0  0  0  0
   -8.4437    7.8750    0.0000 C   0  0  0  0  0  0  0  0  0  0  0  0
    1.9486    6.3750    0.0000 C   0  0  0  0  0  0  0  0  0  0  0  0
    0.6495    5.6250    0.0000 C   0  0  0  0  0  0  0  0  0  0  0  0
   -0.6495    6.3750    0.0000 C   0  0  0  0  0  0  0  0  0  0  0  0
   -1.9486    5.6250    0.0000 C   0  0  0  0  0  0  0  0  0  0  0  0
   -3.2476    6.3750    0.0000 C   0  0  0  0  0  0  0  0  0  0  0  0
   -4.5466    5.6250    0.0000 C   0  0  0  0  0  0  0  0  0  0  0  0
   -8.4437    6.3750    0.0000 C   0  0  0  0  0  0  0  0  0  0  0  0
   -5.8457    6.3750    0.0000 C   0  0  0  0  0  0  0  0  0  0  0  0
   -5.8457    7.8750    0.0000 O   0  0  0  0  0  0  0  0  0  0  0  0
   -7.1447    5.6250    0.0000 O   0  0  0  0  0  0  0  0  0  0  0  0
  4  1  1  0
  5  4  1  0
  6  5  1  0
  7  6  1  0
  8  7  1  0
  9  8  1  0
 10  2  1  0
 10  3  1  0
 11  9  1  0
 12 11  2  0
 13 10  1  0
 13 11  1  0
M  END
>  <NAME>  (3584) 
ISOPROPYL OCTANOATE

>  <SYNONYMS>  (3584) 


>  <SPECTRUM TYPE>  (3584) 
MS1

>  <INSTRUMENT TYPE>  (3584) 
EI-B

>  <INSTRUMENT>  (3584) 
HITACHI M-80B

>  <ION MODE>  (3584) 
P

>  <INCHIKEY>  (3584) 
WCGIIHOFOFCKSM-UHFFFAOYSA-N

>  <FORMULA>  (3584) 
C11H22O2

>  <EXACT MASS>  (3584) 
186.161979944

>  <MW>  (3584) 
186

>  <ID>  (3584) 
JP006432

>  <CONTRIBUTOR>  (3584) 
University of Tokyo Team, {Faculty of Engineering, University of Tokyo

>  <COMMENT>  (3584) 
SMILES=CCCCCCCC(=O)OC(C)C
InChI=InChI=1S/C11H22O2/c1-4-5-6-7-8-9-11(12)13-10(2)3/h10H,4-9H2,1-3H3
computed SMILES=O=C(OC(C)C)CCCCCCC
accession=JP006432
date=2016.01.19 (Created 2008.10.21, modified 2011.05.06)
author=HISAHIRO HAGIWARA, CHEMICAL RESEARCH INSTITUTE OF NON-AQUEOUSSOLUTIONS TOHOKU UNIV.
license=CC BY-NC-SA
exact mass=186.16198
ionization energy=70 eV
ion type=[M]+*
computed spectral entropy=3.125078156340989
computed normalized entropy=0.8258249344405056
SPLASH=splash10-052f-9200000000-cab92d057d3dbe679c6f
submitter=submitter = University of Tokyo Team (Faculty of Engineering, University of Tokyo)
MoNA Rating=3.75

>  <NUM PEAKS>  (3584) 
44

>  <MASS SPECTRAL PEAKS>  (3584) 
15 1.19
26 1
27 22.69
29 19.97
39 13.58
41 48.6
42 18.84
43 99.99
44 3.28
45 4.9
53 1.71
54 1.43
55 24.36
56 6.11
57 44.81
58 1.87
59 24.08
60 57.56
61 10.44
67 2.18
69 5.9
70 2.09
71 1.31
73 20.12
74 2.25
82 1.61
83 6.04
84 13.18
85 8.97
87 8.16
89 2.17
97 3.06
98 2.2
101 10.34
102 30.1
103 3.28
109 1.45
115 3.62
125 1.35
127 39.86
128 3.55
144 15.57
145 26.25
146 1.91

>  <PREDICTED SPECTRUM>  (3584) 
14 25
15 72
16 5
26 81
27 383
28 202
29 364
30 1
31 104
33 3
37 36
38 64
39 345
40 160
41 702
42 429
43 999
44 151
45 229
46 98
49 19
50 59
51 47
52 23
53 200
54 145
55 594
56 334
57 671
58 75
59 574
60 991
61 614
62 41
63 72
64 14
65 53
66 49
67 188
68 122
69 417
70 111
71 344
72 123
73 879
74 233
75 14
77 26
79 79
80 43
81 210
82 148
83 367
84 218
85 304
86 25
87 338
88 108
89 28
93 14
95 104
96 71
97 212
98 64
99 80
100 110
101 379
102 638
103 125
107 79
108 5
109 132
111 63
115 270
116 240
124 51
125 75
126 90
127 864
128 277
129 214
143 114
144 676
145 554
146 192
147 81
186 44

$$$$

     RDKit          2D

 13 12  0  0  0  0  0  0  0  0999 V2000
    3.8971    6.0000    0.0000 C   0  0  0  0  0  0  0  0  0  0  0  0
  -10.3923    6.7500    0.0000 C   0  0  0  0  0  0  0  0  0  0  0  0
    2.5981    6.7500    0.0000 C   0  0  0  0  0  0  0  0  0  0  0  0
   -9.0933    6.0000    0.0000 C   0  0  0  0  0  0  0  0  0  0  0  0
    1.2990    6.0000    0.0000 C   0  0  0  0  0  0  0  0  0  0  0  0
    0.0000    6.7500    0.0000 C   0  0  0  0  0  0  0  0  0  0  0  0
   -1.2990    6.0000    0.0000 C   0  0  0  0  0  0  0  0  0  0  0  0
   -2.5981    6.7500    0.0000 C   0  0  0  0  0  0  0  0  0  0  0  0
   -3.8971    6.0000    0.0000 C   0  0  0  0  0  0  0  0  0  0  0  0
   -7.7942    6.7500    0.0000 C   0  0  0  0  0  0  0  0  0  0  0  0
   -5.1962    6.7500    0.0000 C   0  0  0  0  0  0  0  0  0  0  0  0
   -5.1962    8.2500    0.0000 O   0  0  0  0  0  0  0  0  0  0  0  0
   -6.4952    6.0000    0.0000 O   0  0  0  0  0  0  0  0  0  0  0  0
  3  1  1  0
  4  2  1  0
  5  3  1  0
  6  5  1  0
  7  6  1  0
  8  7  1  0
  9  8  1  0
 10  4  1  0
 11  9  1  0
 12 11  2  0
 13 10  1  0
 13 11  1  0
M  END
>  <NAME>  (3585) 
PROPYL OCTANOATE

>  <SYNONYMS>  (3585) 


>  <SPECTRUM TYPE>  (3585) 
MS1

>  <INSTRUMENT TYPE>  (3585) 
EI-B

>  <INSTRUMENT>  (3585) 
HITACHI M-80B

>  <ION MODE>  (3585) 
P

>  <INCHIKEY>  (3585) 
IDHBLVYDNJDWNO-UHFFFAOYSA-N

>  <FORMULA>  (3585) 
C11H22O2

>  <EXACT MASS>  (3585) 
186.161979944

>  <MW>  (3585) 
186

>  <ID>  (3585) 
JP006431

>  <CONTRIBUTOR>  (3585) 
University of Tokyo Team, {Faculty of Engineering, University of Tokyo

>  <COMMENT>  (3585) 
SMILES=CCCCCCCC(=O)OCCC
InChI=InChI=1S/C11H22O2/c1-3-5-6-7-8-9-11(12)13-10-4-2/h3-10H2,1-2H3
computed SMILES=O=C(OCCC)CCCCCCC
accession=JP006431
date=2016.01.19 (Created 2008.10.21, modified 2011.05.06)
author=HISAHIRO HAGIWARA, CHEMICAL RESEARCH INSTITUTE OF NON-AQUEOUSSOLUTIONS TOHOKU UNIV.
license=CC BY-NC-SA
exact mass=186.16198
ionization energy=70 eV
ion type=[M]+*
computed spectral entropy=3.1738972790553315
computed normalized entropy=0.7956655734908291
SPLASH=splash10-06tf-9200000000-1ef6cb6d9a453a2b2d9a
submitter=submitter = University of Tokyo Team (Faculty of Engineering, University of Tokyo)
MoNA Rating=3.75

>  <NUM PEAKS>  (3585) 
54

>  <MASS SPECTRAL PEAKS>  (3585) 
15 1.32
26 1.77
27 44.1
29 38.97
30 1.46
31 4.65
39 21.42
41 81.99
42 40.62
43 99.34
44 1.8
45 3.37
53 3.48
54 2.41
55 42.37
56 8.8
57 77.91
58 3.39
59 7.67
60 74.58
61 99.99
62 2.21
67 4.15
68 1.28
69 10.34
70 3.38
71 1.96
73 40.87
74 4.28
75 1.47
81 1.84
82 2.73
83 10.37
84 5.55
85 2.58
87 15.46
89 6.33
97 4.71
98 3.94
101 12.36
102 31.83
103 5.78
109 2.76
115 15.91
116 1.08
125 1.99
127 78.23
128 5.93
129 2.02
143 2.3
144 4.7
145 79.4
146 5.61
157 1.43

>  <PREDICTED SPECTRUM>  (3585) 
14 12
15 57
26 86
27 426
28 206
29 462
30 66
31 115
37 11
38 43
39 352
40 169
41 737
42 474
43 999
44 102
45 186
46 105
47 62
49 20
50 32
51 39
52 1
53 239
54 191
55 673
56 355
57 559
58 95
59 424
60 994
61 879
62 92
63 42
65 117
66 25
67 208
68 112
69 405
70 95
71 330
72 85
73 819
74 213
75 128
77 20
79 7
81 161
82 178
83 357
84 106
85 190
86 68
87 449
88 179
89 85
93 73
95 154
96 73
97 254
98 68
99 19
100 20
101 427
102 510
103 226
104 7
107 68
109 114
110 72
111 107
114 1
115 580
116 180
117 31
124 5
125 65
126 44
127 856
128 257
129 305
130 19
143 297
144 149
145 564
146 150
147 106
157 138
186 78

$$$$

     RDKit          2D

 13 12  0  0  0  0  0  0  0  0999 V2000
    3.8971    6.0000    0.0000 C   0  0  0  0  0  0  0  0  0  0  0  0
  -10.3923    6.7500    0.0000 C   0  0  0  0  0  0  0  0  0  0  0  0
    2.5981    6.7500    0.0000 C   0  0  0  0  0  0  0  0  0  0  0  0
   -9.0933    6.0000    0.0000 C   0  0  0  0  0  0  0  0  0  0  0  0
    1.2990    6.0000    0.0000 C   0  0  0  0  0  0  0  0  0  0  0  0
    0.0000    6.7500    0.0000 C   0  0  0  0  0  0  0  0  0  0  0  0
   -1.2990    6.0000    0.0000 C   0  0  0  0  0  0  0  0  0  0  0  0
   -2.5981    6.7500    0.0000 C   0  0  0  0  0  0  0  0  0  0  0  0
   -3.8971    6.0000    0.0000 C   0  0  0  0  0  0  0  0  0  0  0  0
   -7.7942    6.7500    0.0000 C   0  0  0  0  0  0  0  0  0  0  0  0
   -5.1962    6.7500    0.0000 C   0  0  0  0  0  0  0  0  0  0  0  0
   -5.1962    8.2500    0.0000 O   0  0  0  0  0  0  0  0  0  0  0  0
   -6.4952    6.0000    0.0000 O   0  0  0  0  0  0  0  0  0  0  0  0
  3  1  1  0
  4  2  2  0
  5  3  1  0
  6  5  1  0
  7  6  1  0
  8  7  1  0
  9  8  1  0
 10  4  1  0
 11  9  1  0
 12 11  2  0
 13 10  1  0
 13 11  1  0
M  END
>  <NAME>  (3586) 
ALLYL OCTANOATE

>  <SYNONYMS>  (3586) 


>  <SPECTRUM TYPE>  (3586) 
MS1

>  <INSTRUMENT TYPE>  (3586) 
EI-B

>  <INSTRUMENT>  (3586) 
HITACHI M-80B

>  <ION MODE>  (3586) 
P

>  <INCHIKEY>  (3586) 
PZGMUSDNQDCNAG-UHFFFAOYSA-N

>  <FORMULA>  (3586) 
C11H20O2

>  <EXACT MASS>  (3586) 
184.14632988

>  <MW>  (3586) 
184

>  <ID>  (3586) 
JP006430

>  <CONTRIBUTOR>  (3586) 
University of Tokyo Team, {Faculty of Engineering, University of Tokyo

>  <COMMENT>  (3586) 
SMILES=CCCCCCCC(=O)OCC=C
InChI=InChI=1S/C11H20O2/c1-3-5-6-7-8-9-11(12)13-10-4-2/h4H,2-3,5-10H2,1H3
computed SMILES=O=C(OCC=C)CCCCCCC
accession=JP006430
date=2016.01.19 (Created 2008.10.21, modified 2011.05.06)
author=HISAHIRO HAGIWARA, CHEMICAL RESEARCH INSTITUTE OF NON-AQUEOUSSOLUTIONS TOHOKU UNIV.
license=CC BY-NC-SA
exact mass=184.14633
ionization energy=70 eV
ion type=[M]+*
computed spectral entropy=2.9328537585660848
computed normalized entropy=0.7750282206468924
SPLASH=splash10-0a6u-9200000000-9c58916f7999e9c1a456
submitter=submitter = University of Tokyo Team (Faculty of Engineering, University of Tokyo)
MoNA Rating=3.75

>  <NUM PEAKS>  (3586) 
44

>  <MASS SPECTRAL PEAKS>  (3586) 
15 1.2
26 1.56
27 19.57
29 26.78
31 1.13
39 26.87
40 1.14
41 94.48
42 13.01
43 42.65
44 1.27
45 1.89
53 2.15
54 9.87
55 46.84
56 13.05
57 99.99
58 11.25
59 2.98
60 1.17
67 5.52
68 1.07
69 6.51
70 1.61
71 2.14
73 1.46
81 4.04
82 5.02
83 15.67
84 3.43
85 2.21
95 1.05
97 9.46
98 2.14
99 2.26
100 31.36
101 3.65
109 4.7
113 12.44
125 4.01
127 50.87
128 4.58
141 2.41
155 1.22

>  <PREDICTED SPECTRUM>  (3586) 
14 0
15 24
25 14
26 129
27 396
28 176
29 462
30 31
31 74
36 24
37 48
38 126
39 516
40 259
41 999
42 461
43 846
44 176
45 118
50 59
51 111
52 80
53 236
54 235
55 567
56 350
57 811
58 268
59 86
60 140
61 94
65 94
66 64
67 235
68 234
69 425
70 223
71 271
72 105
73 81
74 54
79 140
80 25
81 252
82 96
83 224
84 52
85 135
86 102
87 72
93 134
95 180
96 63
97 83
98 52
99 366
100 298
101 114
109 113
111 18
113 107
114 154
115 50
125 98
126 10
127 688
128 219
129 27
141 120
142 28
143 42
155 47

$$$$

     RDKit          2D

 12 11  0  0  0  0  0  0  0  0999 V2000
    3.2476    5.6250    0.0000 C   0  0  0  0  0  0  0  0  0  0  0  0
   -9.7428    5.6250    0.0000 C   0  0  0  0  0  0  0  0  0  0  0  0
    1.9486    6.3750    0.0000 C   0  0  0  0  0  0  0  0  0  0  0  0
   -8.4437    6.3750    0.0000 C   0  0  0  0  0  0  0  0  0  0  0  0
    0.6495    5.6250    0.0000 C   0  0  0  0  0  0  0  0  0  0  0  0
   -0.6495    6.3750    0.0000 C   0  0  0  0  0  0  0  0  0  0  0  0
   -1.9486    5.6250    0.0000 C   0  0  0  0  0  0  0  0  0  0  0  0
   -3.2476    6.3750    0.0000 C   0  0  0  0  0  0  0  0  0  0  0  0
   -4.5466    5.6250    0.0000 C   0  0  0  0  0  0  0  0  0  0  0  0
   -5.8457    6.3750    0.0000 C   0  0  0  0  0  0  0  0  0  0  0  0
   -5.8457    7.8750    0.0000 O   0  0  0  0  0  0  0  0  0  0  0  0
   -7.1447    5.6250    0.0000 O   0  0  0  0  0  0  0  0  0  0  0  0
  3  1  1  0
  4  2  1  0
  5  3  1  0
  6  5  1  0
  7  6  1  0
  8  7  1  0
  9  8  1  0
 10  9  1  0
 11 10  2  0
 12  4  1  0
 12 10  1  0
M  END
>  <NAME>  (3587) 
ETHYL OCTANOATE

>  <SYNONYMS>  (3587) 


>  <SPECTRUM TYPE>  (3587) 
MS1

>  <INSTRUMENT TYPE>  (3587) 
EI-B

>  <INSTRUMENT>  (3587) 
HITACHI M-80B

>  <ION MODE>  (3587) 
P

>  <INCHIKEY>  (3587) 
YYZUSRORWSJGET-UHFFFAOYSA-N

>  <FORMULA>  (3587) 
C10H20O2

>  <EXACT MASS>  (3587) 
172.14632988

>  <MW>  (3587) 
172

>  <ID>  (3587) 
JP006429

>  <CONTRIBUTOR>  (3587) 
University of Tokyo Team, {Faculty of Engineering, University of Tokyo

>  <COMMENT>  (3587) 
SMILES=CCCCCCCC(=O)OCC
InChI=InChI=1S/C10H20O2/c1-3-5-6-7-8-9-10(11)12-4-2/h3-9H2,1-2H3
computed SMILES=O=C(OCC)CCCCCCC
accession=JP006429
date=2016.01.19 (Created 2008.10.21, modified 2011.05.06)
author=HISAHIRO HAGIWARA, CHEMICAL RESEARCH INSTITUTE OF NON-AQUEOUSSOLUTIONS TOHOKU UNIV.
license=CC BY-NC-SA
exact mass=172.14633
ionization energy=70 eV
ion type=[M]+*
computed spectral entropy=3.0587407308677506
computed normalized entropy=0.8183550295364427
SPLASH=splash10-0553-9100000000-317ca99bd3ea06f6d867
submitter=submitter = University of Tokyo Team (Faculty of Engineering, University of Tokyo)
MoNA Rating=3.75

>  <NUM PEAKS>  (3587) 
42

>  <MASS SPECTRAL PEAKS>  (3587) 
26 1.35
27 20.68
29 39.48
30 1.03
31 1.49
39 9.61
41 33.24
42 11.04
43 23.82
45 12.54
53 2.03
54 1.38
55 22.48
56 4.41
57 35.04
58 1.37
59 1.32
60 27.08
61 20.38
67 1.78
69 7.15
70 17.19
71 1.41
73 21.91
74 2.71
83 3.47
84 3.51
87 2.99
88 99.99
89 6.94
97 2.4
98 2.47
101 33.62
102 2.53
109 1.18
115 7.12
127 23.91
128 1.82
129 7.2
143 2.81
145 1.38
172 1.64

>  <PREDICTED SPECTRUM>  (3587) 
14 5
15 28
26 39
27 261
28 98
29 385
30 58
31 41
39 203
40 85
41 473
42 298
43 522
44 106
45 229
46 43
47 14
51 30
52 46
53 141
54 128
55 501
56 230
57 336
58 43
59 173
60 496
61 365
62 11
65 12
67 161
68 93
69 324
70 313
71 162
72 4
73 414
74 129
75 20
77 8
78 3
79 62
80 27
81 125
82 86
83 289
84 241
85 170
86 90
87 208
88 999
89 276
90 91
91 13
95 83
96 39
97 164
98 74
101 733
102 140
109 110
111 75
115 358
116 151
125 87
126 18
127 483
128 134
129 298
130 144
131 8
143 173
144 80
145 16
157 40
171 25
172 147
173 63

$$$$

     RDKit          2D

 11 10  0  0  0  0  0  0  0  0999 V2000
   -8.4437    5.6250    0.0000 C   0  0  0  0  0  0  0  0  0  0  0  0
    3.2476    4.8750    0.0000 C   0  0  0  0  0  0  0  0  0  0  0  0
   -7.1447    4.8750    0.0000 C   0  0  0  0  0  0  0  0  0  0  0  0
   -5.8457    5.6250    0.0000 C   0  0  0  0  0  0  0  0  0  0  0  0
   -4.5466    4.8750    0.0000 C   0  0  0  0  0  0  0  0  0  0  0  0
   -3.2476    5.6250    0.0000 C   0  0  0  0  0  0  0  0  0  0  0  0
   -1.9486    4.8750    0.0000 C   0  0  0  0  0  0  0  0  0  0  0  0
   -0.6495    5.6250    0.0000 C   0  0  0  0  0  0  0  0  0  0  0  0
    0.6495    4.8750    0.0000 C   0  0  0  0  0  0  0  0  0  0  0  0
    0.6495    3.3750    0.0000 O   0  0  0  0  0  0  0  0  0  0  0  0
    1.9486    5.6250    0.0000 O   0  0  0  0  0  0  0  0  0  0  0  0
  3  1  1  0
  4  3  1  0
  5  4  1  0
  6  5  1  0
  7  6  1  0
  8  7  1  0
  9  8  1  0
 10  9  2  0
 11  2  1  0
 11  9  1  0
M  END
>  <NAME>  (3588) 
METHYL OCTANOATE

>  <SYNONYMS>  (3588) 


>  <SPECTRUM TYPE>  (3588) 
MS1

>  <INSTRUMENT TYPE>  (3588) 
EI-B

>  <INSTRUMENT>  (3588) 
HITACHI M-80B

>  <ION MODE>  (3588) 
P

>  <INCHIKEY>  (3588) 
JGHZJRVDZXSNKQ-UHFFFAOYSA-N

>  <FORMULA>  (3588) 
C9H18O2

>  <EXACT MASS>  (3588) 
158.130679816

>  <MW>  (3588) 
158

>  <ID>  (3588) 
JP006428

>  <CONTRIBUTOR>  (3588) 
University of Tokyo Team, {Faculty of Engineering, University of Tokyo

>  <COMMENT>  (3588) 
SMILES=CCCCCCCC(=O)OC
InChI=InChI=1S/C9H18O2/c1-3-4-5-6-7-8-9(10)11-2/h3-8H2,1-2H3
computed SMILES=O=C(OC)CCCCCCC
accession=JP006428
date=2016.01.19 (Created 2008.10.21, modified 2011.05.06)
author=HISAHIRO HAGIWARA, CHEMICAL RESEARCH INSTITUTE OF NON-AQUEOUSSOLUTIONS TOHOKU UNIV.
license=CC BY-NC-SA
exact mass=158.13068
ionization energy=70 eV
ion type=[M]+*
computed spectral entropy=2.6715492060974904
computed normalized entropy=0.7854731455755478
SPLASH=splash10-00dl-9000000000-11d861be484d298f17df
submitter=submitter = University of Tokyo Team (Faculty of Engineering, University of Tokyo)
MoNA Rating=3.75

>  <NUM PEAKS>  (3588) 
30

>  <MASS SPECTRAL PEAKS>  (3588) 
15 7.29
27 14.11
29 16.22
31 1.43
39 9.47
41 25.71
42 8.03
43 25.73
45 1.71
53 1.73
55 18.09
56 2.66
57 15.07
59 13.87
67 1.16
69 5.93
70 1.16
73 1.62
74 99.99
75 7.13
83 1.76
84 2.54
87 37.89
88 3.94
97 1.1
98 1.32
101 5.51
115 6.13
127 7.82
129 2.21

>  <PREDICTED SPECTRUM>  (3588) 
14 17
15 116
16 5
17 13
18 33
26 41
27 266
28 160
29 300
30 7
31 57
32 44
33 16
38 34
39 288
40 136
41 607
42 388
43 597
44 149
45 122
50 20
51 68
52 26
53 181
54 173
55 659
56 371
57 392
58 87
59 442
60 103
61 69
62 46
65 28
66 9
67 178
68 135
69 386
70 139
71 62
72 56
73 304
74 999
75 349
76 102
77 26
79 12
81 131
82 161
83 330
84 283
85 238
87 691
88 232
89 38
95 15
96 79
97 205
98 100
99 46
101 311
102 91
109 64
115 355
116 114
117 20
126 98
127 353
128 102
129 220
130 26
143 58
158 135
159 16

$$$$

     RDKit          2D

 10  9  0  0  0  0  0  0  0  0999 V2000
    2.5981    4.5000    0.0000 C   0  0  0  0  0  0  0  0  0  0  0  0
   -7.7942    4.5000    0.0000 C   0  0  0  0  0  0  0  0  0  0  0  0
    1.2990    5.2500    0.0000 C   0  0  0  0  0  0  0  0  0  0  0  0
    0.0000    4.5000    0.0000 C   0  0  0  0  0  0  0  0  0  0  0  0
   -1.2990    5.2500    0.0000 C   0  0  0  0  0  0  0  0  0  0  0  0
   -2.5981    4.5000    0.0000 C   0  0  0  0  0  0  0  0  0  0  0  0
   -3.8971    5.2500    0.0000 C   0  0  0  0  0  0  0  0  0  0  0  0
   -5.1962    4.5000    0.0000 C   0  0  0  0  0  0  0  0  0  0  0  0
   -5.1962    3.0000    0.0000 O   0  0  0  0  0  0  0  0  0  0  0  0
   -6.4952    5.2500    0.0000 O   0  0  0  0  0  0  0  0  0  0  0  0
  3  1  1  0
  4  3  1  0
  5  4  1  0
  6  5  1  0
  6  7  2  0
  8  7  1  0
  9  8  2  0
 10  2  1  0
 10  8  1  0
M  END
>  <NAME>  (3589) 
METHYL 2-HEPTENOATE

>  <SYNONYMS>  (3589) 


>  <SPECTRUM TYPE>  (3589) 
MS1

>  <INSTRUMENT TYPE>  (3589) 
EI-B

>  <INSTRUMENT>  (3589) 
HITACHI M-80B

>  <ION MODE>  (3589) 
P

>  <INCHIKEY>  (3589) 
IQQDLHGWGKEQDS-VOTSOKGWSA-N

>  <FORMULA>  (3589) 
C8H14O2

>  <EXACT MASS>  (3589) 
142.099379688

>  <MW>  (3589) 
142

>  <ID>  (3589) 
JP006427

>  <CONTRIBUTOR>  (3589) 
University of Tokyo Team, {Faculty of Engineering, University of Tokyo

>  <COMMENT>  (3589) 
SMILES=CCCCC=CC(=O)OC
InChI=InChI=1S/C8H14O2/c1-3-4-5-6-7-8(9)10-2/h6-7H,3-5H2,1-2H3/b7-6+
computed SMILES=O=C(OC)C=CCCCC
accession=JP006427
date=2016.01.19 (Created 2008.10.21, modified 2011.05.06)
author=HISAHIRO HAGIWARA, CHEMICAL RESEARCH INSTITUTE OF NON-AQUEOUSSOLUTIONS TOHOKU UNIV.
license=CC BY-NC-SA
exact mass=142.09938
ionization energy=70 eV
ion type=[M]+*
computed spectral entropy=3.3555455615223453
computed normalized entropy=0.8299537500842943
SPLASH=splash10-06rl-9200000000-0c0aee09409e7fa0c249
submitter=submitter = University of Tokyo Team (Faculty of Engineering, University of Tokyo)
MoNA Rating=3.75

>  <NUM PEAKS>  (3589) 
57

>  <MASS SPECTRAL PEAKS>  (3589) 
14 2.25
15 17.88
26 3.96
27 50.2
29 21.54
30 1.27
31 2.95
38 3.34
39 49.34
40 1.51
41 84.58
42 10.05
43 30.77
44 1.11
45 5.05
50 2.4
51 4.86
52 2.87
53 26.34
54 11
55 99.99
56 28.5
57 2.87
58 2.18
59 31.72
60 1.07
65 1.97
66 1.4
67 8.42
68 36.88
69 35.47
70 2.41
71 11.03
72 2.09
73 1.18
74 40.07
75 1.71
77 1.61
79 2.63
81 25.12
82 20.44
83 5.58
85 8.28
87 95.59
88 6.18
95 1.9
99 2.45
100 15.21
101 17.36
110 21.08
111 46.5
112 3.27
113 59.14
114 4.55
127 3.24
142 10.88
143 1.53

>  <PREDICTED SPECTRUM>  (3589) 
14 12
15 100
25 3
26 182
27 536
28 203
29 412
31 98
32 33
33 78
37 143
38 247
39 822
40 392
41 987
42 510
43 785
44 140
45 292
50 223
51 342
52 241
53 571
54 436
55 999
56 323
57 134
58 85
59 690
60 190
61 82
62 23
63 44
65 169
66 206
67 587
68 502
69 447
70 71
71 246
72 52
73 155
74 421
75 69
77 59
79 165
81 535
82 479
83 640
84 274
85 315
86 119
87 565
88 112
93 24
95 180
97 46
98 14
99 558
100 547
101 317
102 5
109 25
110 397
111 610
112 91
113 388
114 173
115 13
127 299
142 216
143 1

$$$$

     RDKit          2D

 16 16  0  0  0  0  0  0  0  0999 V2000
  -11.7120   -0.8357    0.0000 C   0  0  0  0  0  0  0  0  0  0  0  0
    2.6027    1.4936    0.0000 C   0  0  0  0  0  0  0  0  0  0  0  0
  -10.4068   -1.5750    0.0000 C   0  0  0  0  0  0  0  0  0  0  0  0
   -9.1140   -0.8143    0.0000 C   0  0  0  0  0  0  0  0  0  0  0  0
   -7.8088   -1.5536    0.0000 C   0  0  0  0  0  0  0  0  0  0  0  0
   -6.5160   -0.7929    0.0000 C   0  0  0  0  0  0  0  0  0  0  0  0
   -5.2108   -1.5321    0.0000 C   0  0  0  0  0  0  0  0  0  0  0  0
    1.3000   -0.7500    0.0000 C   0  0  0  0  0  0  0  0  0  0  0  0
    0.0300    1.5000    0.0000 C   0  0  0  0  0  0  0  0  0  0  0  0
    0.0300   -1.5000    0.0000 C   0  0  0  0  0  0  0  0  0  0  0  0
   -1.3200    0.7500    0.0000 C   0  0  0  0  0  0  0  0  0  0  0  0
    1.3000    0.7500    0.0000 C   0  0  0  0  0  0  0  0  0  0  0  0
   -1.3200   -0.7500    0.0000 C   0  0  0  0  0  0  0  0  0  0  0  0
   -3.9180   -0.7714    0.0000 C   0  0  0  0  0  0  0  0  0  0  0  0
   -3.9304    0.7285    0.0000 O   0  0  0  0  0  0  0  0  0  0  0  0
   -2.6128   -1.5107    0.0000 O   0  0  0  0  0  0  0  0  0  0  0  0
  3  1  1  0
  4  3  1  0
  5  4  1  0
  6  5  1  0
  7  6  1  0
 10  8  2  0
 11  9  1  0
 12  2  1  0
 12  8  1  0
 12  9  2  0
 13 10  1  0
 13 11  2  0
 14  7  1  0
 15 14  2  0
 16 13  1  0
 16 14  1  0
M  END
>  <NAME>  (3590) 
P-CRESYL HEPTANOATE

>  <SYNONYMS>  (3590) 
4-METHYLPHENYL HEPTANOATE

>  <SPECTRUM TYPE>  (3590) 
MS1

>  <INSTRUMENT TYPE>  (3590) 
EI-B

>  <INSTRUMENT>  (3590) 
HITACHI M-80B

>  <ION MODE>  (3590) 
P

>  <INCHIKEY>  (3590) 
AGWLNVFDVVPLDL-UHFFFAOYSA-N

>  <FORMULA>  (3590) 
C14H20O2

>  <EXACT MASS>  (3590) 
220.14632988

>  <MW>  (3590) 
220

>  <ID>  (3590) 
JP006426

>  <CONTRIBUTOR>  (3590) 
University of Tokyo Team, {Faculty of Engineering, University of Tokyo

>  <COMMENT>  (3590) 
SMILES=CCCCCCC(=O)Oc(c1)ccc(C)c1
InChI=InChI=1S/C14H20O2/c1-3-4-5-6-7-14(15)16-13-10-8-12(2)9-11-13/h8-11H,3-7H2,1-2H3
computed SMILES=O=C(OC1=CC=C(C=C1)C)CCCCCC
accession=JP006426
date=2016.01.19 (Created 2008.10.21, modified 2011.05.06)
author=HISAHIRO HAGIWARA, CHEMICAL RESEARCH INSTITUTE OF NON-AQUEOUSSOLUTIONS TOHOKU UNIV.
license=CC BY-NC-SA
exact mass=220.14633
ionization energy=70 eV
ion type=[M]+*
computed spectral entropy=2.1425510563798937
computed normalized entropy=0.6741707883989236
SPLASH=splash10-0a4i-6900000000-30488b9b8720f29f8e48
submitter=submitter = University of Tokyo Team (Faculty of Engineering, University of Tokyo)
MoNA Rating=3.75

>  <NUM PEAKS>  (3590) 
24

>  <MASS SPECTRAL PEAKS>  (3590) 
27 5.56
29 3.76
39 3.15
41 9.5
42 1.76
43 29.86
51 1.67
52 1.11
53 1.73
55 5.93
57 3.3
65 1.88
69 1.03
77 6.55
78 1.79
79 2.74
80 1.05
86 3.66
91 2.45
107 9.9
108 99.99
109 10.26
113 4.7
220 3.3

>  <PREDICTED SPECTRUM>  (3590) 
15 7
25 5
26 57
27 233
28 120
29 204
38 43
39 214
40 66
41 313
42 163
43 386
44 50
50 62
51 128
52 129
53 170
54 95
55 330
56 110
57 307
58 84
61 4
63 62
64 45
65 141
66 30
67 58
68 22
69 166
71 36
77 237
78 166
79 175
80 140
81 30
82 11
83 40
84 23
85 94
89 34
90 126
91 146
92 51
93 20
94 20
97 27
105 19
107 237
108 999
109 315
112 100
113 164
114 37
220 231
221 104

$$$$

     RDKit          2D

 16 15  0  0  0  0  0  0  0  0999 V2000
    4.5466    7.8750    0.0000 C   0  0  0  0  0  0  0  0  0  0  0  0
  -13.6399    7.8750    0.0000 C   0  0  0  0  0  0  0  0  0  0  0  0
    3.2476    8.6250    0.0000 C   0  0  0  0  0  0  0  0  0  0  0  0
  -12.3409    8.6250    0.0000 C   0  0  0  0  0  0  0  0  0  0  0  0
    1.9486    7.8750    0.0000 C   0  0  0  0  0  0  0  0  0  0  0  0
  -11.0418    7.8750    0.0000 C   0  0  0  0  0  0  0  0  0  0  0  0
    0.6495    8.6250    0.0000 C   0  0  0  0  0  0  0  0  0  0  0  0
   -9.7428    8.6250    0.0000 C   0  0  0  0  0  0  0  0  0  0  0  0
   -0.6495    7.8750    0.0000 C   0  0  0  0  0  0  0  0  0  0  0  0
   -8.4437    7.8750    0.0000 C   0  0  0  0  0  0  0  0  0  0  0  0
   -1.9486    8.6250    0.0000 C   0  0  0  0  0  0  0  0  0  0  0  0
   -7.1447    8.6250    0.0000 C   0  0  0  0  0  0  0  0  0  0  0  0
   -3.2476    7.8750    0.0000 C   0  0  0  0  0  0  0  0  0  0  0  0
   -5.8457    7.8750    0.0000 C   0  0  0  0  0  0  0  0  0  0  0  0
   -5.8457    6.3750    0.0000 O   0  0  0  0  0  0  0  0  0  0  0  0
   -4.5466    8.6250    0.0000 O   0  0  0  0  0  0  0  0  0  0  0  0
  3  1  1  0
  4  2  1  0
  5  3  1  0
  6  4  1  0
  7  5  1  0
  8  6  1  0
  9  7  1  0
 10  8  1  0
 11  9  1  0
 12 10  1  0
 13 11  1  0
 14 12  1  0
 15 14  2  0
 16 13  1  0
 16 14  1  0
M  END
>  <NAME>  (3591) 
HEPTYL HEPTANOATE

>  <SYNONYMS>  (3591) 


>  <SPECTRUM TYPE>  (3591) 
MS1

>  <INSTRUMENT TYPE>  (3591) 
EI-B

>  <INSTRUMENT>  (3591) 
HITACHI M-80B

>  <ION MODE>  (3591) 
P

>  <INCHIKEY>  (3591) 
QOIIBPAJVWFEPE-UHFFFAOYSA-N

>  <FORMULA>  (3591) 
C14H28O2

>  <EXACT MASS>  (3591) 
228.208930136

>  <MW>  (3591) 
228

>  <ID>  (3591) 
JP006425

>  <CONTRIBUTOR>  (3591) 
University of Tokyo Team, {Faculty of Engineering, University of Tokyo

>  <COMMENT>  (3591) 
SMILES=CCCCCCCOC(=O)CCCCCC
InChI=InChI=1S/C14H28O2/c1-3-5-7-9-11-13-16-14(15)12-10-8-6-4-2/h3-13H2,1-2H3
computed SMILES=O=C(OCCCCCCC)CCCCCC
accession=JP006425
date=2016.01.19 (Created 2008.10.21, modified 2011.05.06)
author=HISAHIRO HAGIWARA, CHEMICAL RESEARCH INSTITUTE OF NON-AQUEOUSSOLUTIONS TOHOKU UNIV.
license=CC BY-NC-SA
exact mass=228.20893
ionization energy=70 eV
ion type=[M]+*
computed spectral entropy=3.1011287395058655
computed normalized entropy=0.8146581809760015
SPLASH=splash10-0a4l-9100000000-a7738627837f6b952746
submitter=submitter = University of Tokyo Team (Faculty of Engineering, University of Tokyo)
MoNA Rating=3.75

>  <NUM PEAKS>  (3591) 
45

>  <MASS SPECTRAL PEAKS>  (3591) 
27 21.96
29 37.73
31 1.14
39 12.69
41 68.67
42 23.45
43 99.99
44 2.3
45 2.39
53 3.29
54 4.13
55 46.38
56 59.71
57 74.28
58 2.55
59 1.35
60 14.07
61 28.79
67 2.49
68 11.27
69 33.94
70 54.4
71 4.37
73 13.15
74 1.17
81 1.18
83 11.01
84 3.88
85 13.42
87 12.03
89 4.41
95 1.57
97 2.66
98 61.53
99 3.7
101 3.08
111 1.03
113 50.83
114 3.03
115 1.02
116 1.55
130 6.41
131 78.65
132 4.5
143 1.45

>  <PREDICTED SPECTRUM>  (3591) 
18 5
25 14
26 84
27 398
28 198
29 563
30 96
31 121
32 4
36 22
37 37
38 66
39 379
40 173
41 791
42 525
43 999
44 239
45 159
46 7
50 1
51 29
52 22
53 180
54 217
55 760
56 813
57 791
58 168
59 90
60 474
61 580
62 72
63 5
65 59
66 32
67 197
68 303
69 606
70 779
71 587
72 163
73 547
74 94
75 69
77 32
79 58
80 16
81 161
82 200
83 435
84 502
85 365
86 150
87 358
88 86
89 176
90 36
91 26
93 64
94 7
95 72
96 103
97 203
98 226
99 292
100 39
101 181
102 74
103 38
109 7
110 34
111 117
112 204
113 238
114 166
115 213
116 223
117 212
118 8
123 19
125 71
126 22
127 204
128 34
129 214
130 64
131 102
132 2
137 28
138 1
139 15
140 15
141 237
142 75
143 57
144 40
145 216
146 62
157 104
158 84
159 249
160 68
171 91
172 35
185 57
187 78
228 29

$$$$

     RDKit          2D

 14 13  0  0  0  0  0  0  0  0999 V2000
    3.5724    6.5625    0.0000 C   0  0  0  0  0  0  0  0  0  0  0  0
  -10.7171    7.3125    0.0000 C   0  0  0  0  0  0  0  0  0  0  0  0
   -9.4180    5.0625    0.0000 C   0  0  0  0  0  0  0  0  0  0  0  0
    2.2733    7.3125    0.0000 C   0  0  0  0  0  0  0  0  0  0  0  0
    0.9743    6.5625    0.0000 C   0  0  0  0  0  0  0  0  0  0  0  0
   -0.3248    7.3125    0.0000 C   0  0  0  0  0  0  0  0  0  0  0  0
   -1.6238    6.5625    0.0000 C   0  0  0  0  0  0  0  0  0  0  0  0
   -2.9228    7.3125    0.0000 C   0  0  0  0  0  0  0  0  0  0  0  0
   -8.1190    7.3125    0.0000 C   0  0  0  0  0  0  0  0  0  0  0  0
   -6.8200    6.5625    0.0000 C   0  0  0  0  0  0  0  0  0  0  0  0
   -9.4180    6.5625    0.0000 C   0  0  0  0  0  0  0  0  0  0  0  0
   -4.2219    6.5625    0.0000 C   0  0  0  0  0  0  0  0  0  0  0  0
   -4.2219    5.0625    0.0000 O   0  0  0  0  0  0  0  0  0  0  0  0
   -5.5209    7.3125    0.0000 O   0  0  0  0  0  0  0  0  0  0  0  0
  4  1  1  0
  5  4  1  0
  6  5  1  0
  7  6  1  0
  8  7  1  0
 10  9  1  0
 11  2  1  0
 11  3  1  0
 11  9  1  0
 12  8  1  0
 13 12  2  0
 14 10  1  0
 14 12  1  0
M  END
>  <NAME>  (3592) 
ISOAMYL HEPTANOATE

>  <SYNONYMS>  (3592) 
ISOPENTYL HEPTANOATE

>  <SPECTRUM TYPE>  (3592) 
MS1

>  <INSTRUMENT TYPE>  (3592) 
EI-B

>  <INSTRUMENT>  (3592) 
HITACHI M-80B

>  <ION MODE>  (3592) 
P

>  <INCHIKEY>  (3592) 
AFCXVDRTNQNGHS-UHFFFAOYSA-N

>  <FORMULA>  (3592) 
C12H24O2

>  <EXACT MASS>  (3592) 
200.177630008

>  <MW>  (3592) 
200

>  <ID>  (3592) 
JP006424

>  <CONTRIBUTOR>  (3592) 
University of Tokyo Team, {Faculty of Engineering, University of Tokyo

>  <COMMENT>  (3592) 
SMILES=CCCCCCC(=O)OCCC(C)C
InChI=InChI=1S/C12H24O2/c1-4-5-6-7-8-12(13)14-10-9-11(2)3/h11H,4-10H2,1-3H3
computed SMILES=O=C(OCCC(C)C)CCCCCC
accession=JP006424
date=2016.01.19 (Created 2008.10.21, modified 2011.05.06)
author=HISAHIRO HAGIWARA, CHEMICAL RESEARCH INSTITUTE OF NON-AQUEOUSSOLUTIONS TOHOKU UNIV.
license=CC BY-NC-SA
exact mass=200.17763
ionization energy=70 eV
ion type=[M]+*
computed spectral entropy=2.5727561491628976
computed normalized entropy=0.7423405075627797
SPLASH=splash10-00dl-9100000000-fc52dc078389dc842ee9
submitter=submitter = University of Tokyo Team (Faculty of Engineering, University of Tokyo)
MoNA Rating=3.75

>  <NUM PEAKS>  (3592) 
32

>  <MASS SPECTRAL PEAKS>  (3592) 
27 10.74
29 13.06
39 6.8
41 25.62
42 10.14
43 62.75
44 1.7
45 1.44
53 1.41
55 24.76
56 3.93
57 6.02
60 4.84
61 1.23
68 1.07
69 5.36
70 99.99
71 27.24
72 1.17
73 2.91
83 1.26
84 1.66
85 7.53
87 3.06
89 1.13
101 1.08
113 33.05
114 2.12
115 1.37
130 2.49
131 8.33
157 1.29

>  <PREDICTED SPECTRUM>  (3592) 
25 5
26 54
27 247
28 59
29 310
30 27
31 31
36 9
38 17
39 235
40 111
41 466
42 352
43 679
44 145
45 156
51 39
52 34
53 155
54 117
55 480
56 124
57 208
58 58
59 57
60 177
61 145
62 3
66 3
67 75
68 120
69 276
70 999
71 584
72 53
73 250
74 68
81 69
82 29
83 139
84 129
85 167
86 88
87 252
88 95
94 6
95 132
96 73
97 58
101 121
111 13
113 731
114 213
115 112
116 9
130 172
131 280
132 128
143 32
144 52
145 66
157 172
158 15
184 3
185 4

$$$$

     RDKit          2D

 14 13  0  0  0  0  0  0  0  0999 V2000
    3.8971    6.7500    0.0000 C   0  0  0  0  0  0  0  0  0  0  0  0
  -11.6913    6.7500    0.0000 C   0  0  0  0  0  0  0  0  0  0  0  0
    2.5981    7.5000    0.0000 C   0  0  0  0  0  0  0  0  0  0  0  0
  -10.3923    7.5000    0.0000 C   0  0  0  0  0  0  0  0  0  0  0  0
    1.2990    6.7500    0.0000 C   0  0  0  0  0  0  0  0  0  0  0  0
   -9.0933    6.7500    0.0000 C   0  0  0  0  0  0  0  0  0  0  0  0
    0.0000    7.5000    0.0000 C   0  0  0  0  0  0  0  0  0  0  0  0
   -1.2990    6.7500    0.0000 C   0  0  0  0  0  0  0  0  0  0  0  0
   -7.7942    7.5000    0.0000 C   0  0  0  0  0  0  0  0  0  0  0  0
   -2.5981    7.5000    0.0000 C   0  0  0  0  0  0  0  0  0  0  0  0
   -6.4952    6.7500    0.0000 C   0  0  0  0  0  0  0  0  0  0  0  0
   -3.8971    6.7500    0.0000 C   0  0  0  0  0  0  0  0  0  0  0  0
   -3.8971    5.2500    0.0000 O   0  0  0  0  0  0  0  0  0  0  0  0
   -5.1962    7.5000    0.0000 O   0  0  0  0  0  0  0  0  0  0  0  0
  3  1  1  0
  4  2  1  0
  5  3  1  0
  6  4  1  0
  7  5  1  0
  8  7  1  0
  9  6  1  0
 10  8  1  0
 11  9  1  0
 12 10  1  0
 13 12  2  0
 14 11  1  0
 14 12  1  0
M  END
>  <NAME>  (3593) 
AMYL HEPTANOATE

>  <SYNONYMS>  (3593) 
PENTYL HEPTANOATE

>  <SPECTRUM TYPE>  (3593) 
MS1

>  <INSTRUMENT TYPE>  (3593) 
EI-B

>  <INSTRUMENT>  (3593) 
HITACHI M-80B

>  <ION MODE>  (3593) 
P

>  <INCHIKEY>  (3593) 
PSQMUBJRXIGVIT-UHFFFAOYSA-N

>  <FORMULA>  (3593) 
C12H24O2

>  <EXACT MASS>  (3593) 
200.177630008

>  <MW>  (3593) 
200

>  <ID>  (3593) 
JP006423

>  <CONTRIBUTOR>  (3593) 
University of Tokyo Team, {Faculty of Engineering, University of Tokyo

>  <COMMENT>  (3593) 
SMILES=CCCCCCC(=O)OCCCCC
InChI=InChI=1S/C12H24O2/c1-3-5-7-8-10-12(13)14-11-9-6-4-2/h3-11H2,1-2H3
computed SMILES=O=C(OCCCCC)CCCCCC
accession=JP006423
date=2016.01.19 (Created 2008.10.21, modified 2011.05.06)
author=HISAHIRO HAGIWARA, CHEMICAL RESEARCH INSTITUTE OF NON-AQUEOUSSOLUTIONS TOHOKU UNIV.
license=CC BY-NC-SA
exact mass=200.17763
ionization energy=70 eV
ion type=[M]+*
computed spectral entropy=2.932719935107026
computed normalized entropy=0.795016473589664
SPLASH=splash10-006x-9200000000-c427b25d7c4b53e55413
submitter=submitter = University of Tokyo Team (Faculty of Engineering, University of Tokyo)
MoNA Rating=3.75

>  <NUM PEAKS>  (3593) 
40

>  <MASS SPECTRAL PEAKS>  (3593) 
27 21
29 30.52
31 1.4
39 12.02
41 46.94
42 28.63
43 99.46
44 3.38
45 1.97
53 2.08
54 1.35
55 32.93
56 5.49
57 9.67
59 1.04
60 19.32
61 14.23
67 1.27
68 2.34
69 11.58
70 99.99
71 17.82
73 14.58
74 1.62
83 4.33
84 3.22
85 11.02
86 1.03
87 11.87
89 5.3
95 1.41
101 2.8
102 1.65
113 53.74
114 4
115 2.53
130 8.83
131 66.05
132 4.71
143 1.03

>  <PREDICTED SPECTRUM>  (3593) 
14 3
15 11
26 54
27 332
28 128
29 443
30 43
31 62
36 21
37 17
38 50
39 340
40 161
41 671
42 592
43 999
44 295
45 140
50 20
51 42
52 48
53 162
54 164
55 614
56 194
57 187
58 96
59 70
60 417
61 389
62 40
65 25
66 26
67 107
68 210
69 361
70 988
71 592
72 69
73 418
74 125
79 26
81 79
82 161
83 290
84 260
85 198
86 127
87 327
88 107
89 50
90 38
95 75
96 110
97 64
99 119
100 48
101 97
112 20
113 632
114 271
115 70
117 171
129 87
130 314
131 581
132 246
133 60
143 116
144 32
157 93
201 1

$$$$

     RDKit          2D

 13 12  0  0  0  0  0  0  0  0999 V2000
    3.8971    6.0000    0.0000 C   0  0  0  0  0  0  0  0  0  0  0  0
  -10.3923    6.7500    0.0000 C   0  0  0  0  0  0  0  0  0  0  0  0
    2.5981    6.7500    0.0000 C   0  0  0  0  0  0  0  0  0  0  0  0
   -9.0933    6.0000    0.0000 C   0  0  0  0  0  0  0  0  0  0  0  0
    1.2990    6.0000    0.0000 C   0  0  0  0  0  0  0  0  0  0  0  0
   -7.7942    6.7500    0.0000 C   0  0  0  0  0  0  0  0  0  0  0  0
    0.0000    6.7500    0.0000 C   0  0  0  0  0  0  0  0  0  0  0  0
   -1.2990    6.0000    0.0000 C   0  0  0  0  0  0  0  0  0  0  0  0
   -2.5981    6.7500    0.0000 C   0  0  0  0  0  0  0  0  0  0  0  0
   -6.4952    6.0000    0.0000 C   0  0  0  0  0  0  0  0  0  0  0  0
   -3.8971    6.0000    0.0000 C   0  0  0  0  0  0  0  0  0  0  0  0
   -3.8971    4.5000    0.0000 O   0  0  0  0  0  0  0  0  0  0  0  0
   -5.1962    6.7500    0.0000 O   0  0  0  0  0  0  0  0  0  0  0  0
  3  1  1  0
  4  2  1  0
  5  3  1  0
  6  4  1  0
  7  5  1  0
  8  7  1  0
  9  8  1  0
 10  6  1  0
 11  9  1  0
 12 11  2  0
 13 10  1  0
 13 11  1  0
M  END
>  <NAME>  (3594) 
BUTYL HEPTANOATE

>  <SYNONYMS>  (3594) 


>  <SPECTRUM TYPE>  (3594) 
MS1

>  <INSTRUMENT TYPE>  (3594) 
EI-B

>  <INSTRUMENT>  (3594) 
HITACHI M-80B

>  <ION MODE>  (3594) 
P

>  <INCHIKEY>  (3594) 
YPQSPODHFDGVAC-UHFFFAOYSA-N

>  <FORMULA>  (3594) 
C11H22O2

>  <EXACT MASS>  (3594) 
186.161979944

>  <MW>  (3594) 
186

>  <ID>  (3594) 
JP006422

>  <CONTRIBUTOR>  (3594) 
University of Tokyo Team, {Faculty of Engineering, University of Tokyo

>  <COMMENT>  (3594) 
SMILES=CCCCCCC(=O)OCCCC
InChI=InChI=1S/C11H22O2/c1-3-5-7-8-9-11(12)13-10-6-4-2/h3-10H2,1-2H3
computed SMILES=O=C(OCCCC)CCCCCC
accession=JP006422
date=2016.01.19 (Created 2008.10.21, modified 2011.05.06)
author=HISAHIRO HAGIWARA, CHEMICAL RESEARCH INSTITUTE OF NON-AQUEOUSSOLUTIONS TOHOKU UNIV.
license=CC BY-NC-SA
exact mass=186.16198
ionization energy=70 eV
ion type=[M]+*
computed spectral entropy=2.9600115034747683
computed normalized entropy=0.7970793215551345
SPLASH=splash10-0btc-9200000000-3f2b3965a678a6e80532
submitter=submitter = University of Tokyo Team (Faculty of Engineering, University of Tokyo)
MoNA Rating=3.75

>  <NUM PEAKS>  (3594) 
41

>  <MASS SPECTRAL PEAKS>  (3594) 
26 1.35
27 22.17
29 39.81
30 1.04
31 1.93
39 13.43
41 55.79
42 10.13
43 61.24
44 1.58
45 2.26
53 2.08
54 1.21
55 22.8
56 99.99
57 36.57
58 1.44
59 1.17
60 30.33
61 10.89
68 1.95
69 7.37
70 2.52
71 1.91
73 18.38
74 1.95
83 4.58
84 3.95
85 11.78
86 1.28
87 13.24
89 6.58
95 1.47
101 6.76
113 58.59
114 4.39
116 5.17
129 1.55
130 4.34
131 59.5
132 4.52

>  <PREDICTED SPECTRUM>  (3594) 
15 16
26 27
27 275
28 149
29 542
30 61
31 96
36 6
37 16
38 31
39 335
40 162
41 696
42 358
43 647
44 152
45 199
46 32
49 13
50 49
51 83
52 52
53 147
54 137
55 503
56 999
57 666
58 123
59 145
60 583
61 392
65 74
67 134
68 146
69 317
70 223
71 289
72 17
73 459
74 109
77 5
81 133
82 35
83 166
84 114
85 141
86 84
87 292
88 120
90 33
93 88
94 19
95 156
96 86
97 162
101 183
102 182
103 8
111 65
112 92
113 921
114 360
115 215
116 48
129 167
130 157
131 680
132 170
133 22
143 87

$$$$

     RDKit          2D

 12 11  0  0  0  0  0  0  0  0999 V2000
    2.9228    5.4375    0.0000 C   0  0  0  0  0  0  0  0  0  0  0  0
   -8.7685    6.1875    0.0000 C   0  0  0  0  0  0  0  0  0  0  0  0
   -7.4695    3.9375    0.0000 C   0  0  0  0  0  0  0  0  0  0  0  0
    1.6238    6.1875    0.0000 C   0  0  0  0  0  0  0  0  0  0  0  0
    0.3248    5.4375    0.0000 C   0  0  0  0  0  0  0  0  0  0  0  0
   -0.9743    6.1875    0.0000 C   0  0  0  0  0  0  0  0  0  0  0  0
   -2.2733    5.4375    0.0000 C   0  0  0  0  0  0  0  0  0  0  0  0
   -3.5724    6.1875    0.0000 C   0  0  0  0  0  0  0  0  0  0  0  0
   -7.4695    5.4375    0.0000 C   0  0  0  0  0  0  0  0  0  0  0  0
   -4.8714    5.4375    0.0000 C   0  0  0  0  0  0  0  0  0  0  0  0
   -4.8714    3.9375    0.0000 O   0  0  0  0  0  0  0  0  0  0  0  0
   -6.1704    6.1875    0.0000 O   0  0  0  0  0  0  0  0  0  0  0  0
  4  1  1  0
  5  4  1  0
  6  5  1  0
  7  6  1  0
  8  7  1  0
  9  2  1  0
  9  3  1  0
 10  8  1  0
 11 10  2  0
 12  9  1  0
 12 10  1  0
M  END
>  <NAME>  (3595) 
ISOPROPYL HEPTANOATE

>  <SYNONYMS>  (3595) 


>  <SPECTRUM TYPE>  (3595) 
MS1

>  <INSTRUMENT TYPE>  (3595) 
EI-B

>  <INSTRUMENT>  (3595) 
HITACHI M-80B

>  <ION MODE>  (3595) 
P

>  <INCHIKEY>  (3595) 
RMQUEHVMCJEEOS-UHFFFAOYSA-N

>  <FORMULA>  (3595) 
C10H20O2

>  <EXACT MASS>  (3595) 
172.14632988

>  <MW>  (3595) 
172

>  <ID>  (3595) 
JP006421

>  <CONTRIBUTOR>  (3595) 
University of Tokyo Team, {Faculty of Engineering, University of Tokyo

>  <COMMENT>  (3595) 
SMILES=CCCCCCC(=O)OC(C)C
InChI=InChI=1S/C10H20O2/c1-4-5-6-7-8-10(11)12-9(2)3/h9H,4-8H2,1-3H3
computed SMILES=O=C(OC(C)C)CCCCCC
accession=JP006421
date=2016.01.19 (Created 2008.10.21, modified 2011.05.06)
author=HISAHIRO HAGIWARA, CHEMICAL RESEARCH INSTITUTE OF NON-AQUEOUSSOLUTIONS TOHOKU UNIV.
license=CC BY-NC-SA
exact mass=172.14633
ionization energy=70 eV
ion type=[M]+*
computed spectral entropy=2.994300507209227
computed normalized entropy=0.8173195366788881
SPLASH=splash10-01ox-9200000000-461795d816c5a397efbf
submitter=submitter = University of Tokyo Team (Faculty of Engineering, University of Tokyo)
MoNA Rating=3.75

>  <NUM PEAKS>  (3595) 
39

>  <MASS SPECTRAL PEAKS>  (3595) 
15 1.68
26 1.08
27 18.48
29 11.39
39 11.52
41 36.44
42 13.5
43 99.99
44 2.46
45 3.36
53 1.31
55 14.69
56 4.11
57 5.51
59 19.85
60 48.12
61 6.97
68 1.94
69 5.58
70 11.04
71 4.55
73 15.02
74 2.06
83 3.65
84 3.37
85 10.71
87 13.3
89 2.93
95 1.16
101 2.95
102 22.05
103 1.65
111 1.27
113 47.92
114 3.32
130 13.17
131 28.14
132 1.8
157 1.36

>  <PREDICTED SPECTRUM>  (3595) 
14 29
15 83
16 5
25 4
26 91
27 388
28 212
29 311
31 119
33 9
37 47
38 67
39 375
40 168
41 687
42 418
43 999
44 140
45 164
46 60
49 47
50 68
51 52
52 17
53 143
54 98
55 458
56 254
57 503
58 75
59 521
60 849
61 459
65 29
66 36
67 93
68 106
69 354
70 153
71 332
72 40
73 745
74 262
75 29
81 97
82 26
83 180
84 69
85 103
86 159
87 325
88 235
89 77
93 32
95 36
96 47
97 54
101 179
102 349
103 72
112 81
113 894
114 244
115 199
129 98
130 500
131 394
132 117
133 53

$$$$

     RDKit          2D

 12 11  0  0  0  0  0  0  0  0999 V2000
    3.2476    5.6250    0.0000 C   0  0  0  0  0  0  0  0  0  0  0  0
   -9.7428    5.6250    0.0000 C   0  0  0  0  0  0  0  0  0  0  0  0
    1.9486    6.3750    0.0000 C   0  0  0  0  0  0  0  0  0  0  0  0
   -8.4437    6.3750    0.0000 C   0  0  0  0  0  0  0  0  0  0  0  0
    0.6495    5.6250    0.0000 C   0  0  0  0  0  0  0  0  0  0  0  0
   -0.6495    6.3750    0.0000 C   0  0  0  0  0  0  0  0  0  0  0  0
   -1.9486    5.6250    0.0000 C   0  0  0  0  0  0  0  0  0  0  0  0
   -3.2476    6.3750    0.0000 C   0  0  0  0  0  0  0  0  0  0  0  0
   -7.1447    5.6250    0.0000 C   0  0  0  0  0  0  0  0  0  0  0  0
   -4.5466    5.6250    0.0000 C   0  0  0  0  0  0  0  0  0  0  0  0
   -4.5466    4.1250    0.0000 O   0  0  0  0  0  0  0  0  0  0  0  0
   -5.8457    6.3750    0.0000 O   0  0  0  0  0  0  0  0  0  0  0  0
  3  1  1  0
  4  2  1  0
  5  3  1  0
  6  5  1  0
  7  6  1  0
  8  7  1  0
  9  4  1  0
 10  8  1  0
 11 10  2  0
 12  9  1  0
 12 10  1  0
M  END
>  <NAME>  (3596) 
PROPYL HEPTANOATE

>  <SYNONYMS>  (3596) 


>  <SPECTRUM TYPE>  (3596) 
MS1

>  <INSTRUMENT TYPE>  (3596) 
EI-B

>  <INSTRUMENT>  (3596) 
HITACHI M-80B

>  <ION MODE>  (3596) 
P

>  <INCHIKEY>  (3596) 
UWZVPQKWYFZLLW-UHFFFAOYSA-N

>  <FORMULA>  (3596) 
C10H20O2

>  <EXACT MASS>  (3596) 
172.14632988

>  <MW>  (3596) 
172

>  <ID>  (3596) 
JP006420

>  <CONTRIBUTOR>  (3596) 
University of Tokyo Team, {Faculty of Engineering, University of Tokyo

>  <COMMENT>  (3596) 
SMILES=CCCCCCC(=O)OCCC
InChI=InChI=1S/C10H20O2/c1-3-5-6-7-8-10(11)12-9-4-2/h3-9H2,1-2H3
computed SMILES=O=C(OCCC)CCCCCC
accession=JP006420
date=2016.01.19 (Created 2008.10.21, modified 2011.05.06)
author=HISAHIRO HAGIWARA, CHEMICAL RESEARCH INSTITUTE OF NON-AQUEOUSSOLUTIONS TOHOKU UNIV.
license=CC BY-NC-SA
exact mass=172.14633
ionization energy=70 eV
ion type=[M]+*
computed spectral entropy=3.0486874557246795
computed normalized entropy=0.8056381288080373
SPLASH=splash10-01ox-9200000000-6e833656dc5c37546c1f
submitter=submitter = University of Tokyo Team (Faculty of Engineering, University of Tokyo)
MoNA Rating=3.75

>  <NUM PEAKS>  (3596) 
44

>  <MASS SPECTRAL PEAKS>  (3596) 
15 1.23
26 1.54
27 33.19
29 25.18
31 4.36
39 15.92
41 52.63
42 23.78
43 99.99
44 2.77
45 3.2
53 1.93
54 1.16
55 20.69
56 7.36
57 11.14
59 6.18
60 45.32
61 52.83
62 1.09
67 1.08
68 2.16
69 8.63
70 2.04
71 1.41
73 22.72
74 2.45
75 1.23
83 4.94
84 4.91
85 11.08
87 14.52
89 6.1
95 1.44
101 3.3
102 13.74
103 1.53
113 58.08
114 3.93
115 3.52
129 1.3
130 3.58
131 48.31
132 3.38

>  <PREDICTED SPECTRUM>  (3596) 
14 20
15 75
25 3
26 96
27 421
28 216
29 419
30 94
31 136
33 6
36 3
37 29
38 58
39 392
40 181
41 694
42 463
43 999
44 121
45 180
46 57
47 2
49 24
50 43
51 46
53 184
54 136
55 540
56 227
57 353
58 48
59 383
60 870
61 673
65 40
67 119
68 100
69 336
70 107
71 303
72 79
73 684
74 161
75 23
79 0
81 68
82 103
83 154
84 83
85 42
86 103
87 388
88 179
89 128
93 70
95 88
96 117
97 176
101 267
102 316
103 147
113 891
114 241
115 430
116 35
129 277
130 98
131 416
132 72
133 88
143 140
172 31

$$$$

     RDKit          2D

 15 15  0  0  0  0  0  0  0  0999 V2000
    4.8721    3.8829    0.0000 C   0  0  0  0  0  0  0  0  0  0  0  0
    3.5731    3.1329    0.0000 C   0  0  0  0  0  0  0  0  0  0  0  0
   -8.1183    5.3829    0.0000 C   0  0  0  0  0  0  0  0  0  0  0  0
   -8.1187    3.8821    0.0000 C   0  0  0  0  0  0  0  0  0  0  0  0
   -6.8187    6.1337    0.0000 C   0  0  0  0  0  0  0  0  0  0  0  0
   -2.9221    3.8829    0.0000 C   0  0  0  0  0  0  0  0  0  0  0  0
    2.2740    3.8829    0.0000 C   0  0  0  0  0  0  0  0  0  0  0  0
   -6.8197    3.1321    0.0000 C   0  0  0  0  0  0  0  0  0  0  0  0
   -5.5197    5.3837    0.0000 C   0  0  0  0  0  0  0  0  0  0  0  0
   -4.2212    3.1329    0.0000 C   0  0  0  0  0  0  0  0  0  0  0  0
   -1.6231    3.1329    0.0000 C   0  0  0  0  0  0  0  0  0  0  0  0
   -5.5202    3.8829    0.0000 C   0  0  0  0  0  0  0  0  0  0  0  0
    0.9750    3.1329    0.0000 C   0  0  0  0  0  0  0  0  0  0  0  0
    0.9750    1.6329    0.0000 O   0  0  0  0  0  0  0  0  0  0  0  0
   -0.3240    3.8829    0.0000 O   0  0  0  0  0  0  0  0  0  0  0  0
  2  1  1  0
  4  3  2  0
  5  3  1  0
  7  2  1  0
  8  4  1  0
  9  5  2  0
  6 10  2  0
 11  6  1  0
 12  8  2  0
 12  9  1  0
 12 10  1  0
 13  7  1  0
 14 13  2  0
 15 11  1  0
 15 13  1  0
M  END
>  <NAME>  (3597) 
CINNAMYL BUTYRATE

>  <SYNONYMS>  (3597) 
3-PHENYLALLYL BUTYRATE

>  <SPECTRUM TYPE>  (3597) 
MS1

>  <INSTRUMENT TYPE>  (3597) 
EI-B

>  <INSTRUMENT>  (3597) 
HITACHI M-80B

>  <ION MODE>  (3597) 
P

>  <INCHIKEY>  (3597) 
YZYPQKZWNXANRB-UXBLZVDNSA-N

>  <FORMULA>  (3597) 
C13H16O2

>  <EXACT MASS>  (3597) 
204.115029752

>  <MW>  (3597) 
204

>  <ID>  (3597) 
JP006419

>  <CONTRIBUTOR>  (3597) 
University of Tokyo Team, {Faculty of Engineering, University of Tokyo

>  <COMMENT>  (3597) 
SMILES=CCCC(=O)OCC=Cc(c1)cccc1
InChI=InChI=1S/C13H16O2/c1-2-7-13(14)15-11-6-10-12-8-4-3-5-9-12/h3-6,8-10H,2,7,11H2,1H3/b10-6+
computed SMILES=O=C(OCC=CC=1C=CC=CC1)CCC
accession=JP006419
date=2016.01.19 (Created 2008.10.21, modified 2011.05.06)
author=HISAHIRO HAGIWARA, CHEMICAL RESEARCH INSTITUTE OF NON-AQUEOUSSOLUTIONS TOHOKU UNIV.
license=CC BY-NC-SA
exact mass=204.11503
ionization energy=70 eV
ion type=[M]+*
computed spectral entropy=2.717905894352689
computed normalized entropy=0.7526911328655501
SPLASH=splash10-00xu-9400000000-a47b62607d2f94daf7a3
submitter=submitter = University of Tokyo Team (Faculty of Engineering, University of Tokyo)
MoNA Rating=3.75

>  <NUM PEAKS>  (3597) 
37

>  <MASS SPECTRAL PEAKS>  (3597) 
27 11.51
29 1.86
39 9.82
41 10.59
42 1.83
43 57.75
44 1.7
50 1.42
51 5.39
52 1.24
55 1.65
57 1.21
62 1.03
63 3.03
65 3.15
71 99.99
72 3.28
76 1.12
77 8.78
78 3.44
79 1.87
89 2.39
91 11.44
92 3.55
102 2.38
103 3.65
104 1.59
105 5.29
115 36.67
116 17.77
117 31.81
118 2.57
131 1.06
133 11.5
134 7.54
204 9.93
205 1.14

>  <PREDICTED SPECTRUM>  (3597) 
15 16
17 4
25 22
26 97
27 248
28 124
29 202
30 17
31 20
36 11
37 37
38 78
39 248
40 102
41 252
42 195
43 630
44 161
45 95
50 168
51 226
52 128
53 119
54 94
55 235
56 52
57 63
58 33
60 67
61 43
62 68
63 177
64 97
65 218
66 118
67 41
69 61
70 103
71 617
72 156
73 35
74 74
75 79
76 79
77 265
78 178
79 85
80 19
81 37
84 39
85 34
86 14
87 78
89 108
90 36
91 473
92 341
93 64
95 11
96 41
99 109
100 2
101 96
102 165
103 174
104 94
105 308
106 151
107 144
108 34
109 24
113 24
114 15
115 744
116 504
117 999
118 333
119 74
131 105
133 324
134 464
135 140
136 63
204 377
205 143
206 44

$$$$

     RDKit          2D

 14 14  0  0  0  0  0  0  0  0999 V2000
   -6.8197    3.1321    0.0000 C   0  0  0  0  0  0  0  0  0  0  0  0
   -0.3245    5.3821    0.0000 C   0  0  0  0  0  0  0  0  0  0  0  0
   -5.5207    3.8821    0.0000 C   0  0  0  0  0  0  0  0  0  0  0  0
    3.5726    1.6321    0.0000 C   0  0  0  0  0  0  0  0  0  0  0  0
    3.5731    3.1329    0.0000 C   0  0  0  0  0  0  0  0  0  0  0  0
    2.2731    0.8813    0.0000 C   0  0  0  0  0  0  0  0  0  0  0  0
   -4.2216    3.1321    0.0000 C   0  0  0  0  0  0  0  0  0  0  0  0
    2.2740    3.8829    0.0000 C   0  0  0  0  0  0  0  0  0  0  0  0
    0.9740    1.6313    0.0000 C   0  0  0  0  0  0  0  0  0  0  0  0
   -0.3245    3.8821    0.0000 C   0  0  0  0  0  0  0  0  0  0  0  0
    0.9745    3.1321    0.0000 C   0  0  0  0  0  0  0  0  0  0  0  0
   -2.9226    3.8821    0.0000 C   0  0  0  0  0  0  0  0  0  0  0  0
   -2.9226    5.3821    0.0000 O   0  0  0  0  0  0  0  0  0  0  0  0
   -1.6236    3.1321    0.0000 O   0  0  0  0  0  0  0  0  0  0  0  0
  3  1  1  0
  5  4  2  0
  6  4  1  0
  7  3  1  0
  8  5  1  0
  9  6  2  0
 10  2  1  0
 11  8  2  0
 11  9  1  0
 11 10  1  0
 12  7  1  0
 13 12  2  0
 14 10  1  0
 14 12  1  0
M  END
>  <NAME>  (3598) 
ALPHA-METHYLBENZYL BUTYRATE

>  <SYNONYMS>  (3598) 
METHYL PHENYL CARBINYL BUTYRATE

>  <SPECTRUM TYPE>  (3598) 
MS1

>  <INSTRUMENT TYPE>  (3598) 
EI-B

>  <INSTRUMENT>  (3598) 
HITACHI M-80B

>  <ION MODE>  (3598) 
P

>  <INCHIKEY>  (3598) 
GGKADXREVJTZMF-UHFFFAOYSA-N

>  <FORMULA>  (3598) 
C12H16O2

>  <EXACT MASS>  (3598) 
192.115029752

>  <MW>  (3598) 
192

>  <ID>  (3598) 
JP006418

>  <CONTRIBUTOR>  (3598) 
University of Tokyo Team, {Faculty of Engineering, University of Tokyo

>  <COMMENT>  (3598) 
SMILES=CCCC(=O)OC(C)c(c1)cccc1
InChI=InChI=1S/C12H16O2/c1-3-7-12(13)14-10(2)11-8-5-4-6-9-11/h4-6,8-10H,3,7H2,1-2H3
computed SMILES=O=C(OC(C=1C=CC=CC1)C)CCC
accession=JP006418
date=2016.01.19 (Created 2008.10.21, modified 2011.05.06)
author=HISAHIRO HAGIWARA, CHEMICAL RESEARCH INSTITUTE OF NON-AQUEOUSSOLUTIONS TOHOKU UNIV.
license=CC BY-NC-SA
exact mass=192.11503
ionization energy=70 eV
ion type=[M]+*
computed spectral entropy=2.7070566442391883
computed normalized entropy=0.7614041149898395
SPLASH=splash10-0kor-6900000000-c5c8fd3d6bf4a7182eb4
submitter=submitter = University of Tokyo Team (Faculty of Engineering, University of Tokyo)
MoNA Rating=3.75

>  <NUM PEAKS>  (3598) 
35

>  <MASS SPECTRAL PEAKS>  (3598) 
15 1.06
27 17.2
28 1.48
29 1.92
39 10.04
41 11.43
42 2.17
43 41.78
44 1.02
50 2.87
51 12.2
52 2.45
53 1.29
55 1.11
63 1.96
65 1.41
71 34.37
72 1.14
76 1.22
77 28.49
78 13.37
79 14.77
89 1.6
91 1.4
102 1.47
103 13.47
104 71.79
105 99.99
106 9.05
107 5.93
121 5.58
122 73.12
123 6.62
192 11.71
193 1.32

>  <PREDICTED SPECTRUM>  (3598) 
26 28
27 174
29 89
38 29
39 179
40 55
41 242
42 143
43 514
44 152
45 60
50 84
51 192
52 111
53 86
55 120
62 29
63 102
64 37
65 64
66 10
70 31
71 474
72 62
73 95
74 47
75 67
76 67
77 372
78 266
79 340
80 76
88 10
89 122
90 59
91 124
92 38
93 58
102 124
103 327
104 459
105 999
106 337
107 394
108 93
120 9
121 199
122 578
123 180
192 205
193 56

$$$$

     RDKit          2D

 14 14  0  0  0  0  0  0  0  0999 V2000
   -7.4692    4.2571    0.0000 C   0  0  0  0  0  0  0  0  0  0  0  0
   -6.1702    3.5071    0.0000 C   0  0  0  0  0  0  0  0  0  0  0  0
    4.2221    2.0071    0.0000 C   0  0  0  0  0  0  0  0  0  0  0  0
    4.2226    3.5079    0.0000 C   0  0  0  0  0  0  0  0  0  0  0  0
    2.9226    1.2563    0.0000 C   0  0  0  0  0  0  0  0  0  0  0  0
   -4.8712    4.2571    0.0000 C   0  0  0  0  0  0  0  0  0  0  0  0
    2.9236    4.2579    0.0000 C   0  0  0  0  0  0  0  0  0  0  0  0
    1.6236    2.0063    0.0000 C   0  0  0  0  0  0  0  0  0  0  0  0
    0.3250    4.2571    0.0000 C   0  0  0  0  0  0  0  0  0  0  0  0
   -0.9740    3.5071    0.0000 C   0  0  0  0  0  0  0  0  0  0  0  0
    1.6240    3.5071    0.0000 C   0  0  0  0  0  0  0  0  0  0  0  0
   -3.5721    3.5071    0.0000 C   0  0  0  0  0  0  0  0  0  0  0  0
   -3.5721    2.0071    0.0000 O   0  0  0  0  0  0  0  0  0  0  0  0
   -2.2731    4.2571    0.0000 O   0  0  0  0  0  0  0  0  0  0  0  0
  2  1  1  0
  4  3  2  0
  5  3  1  0
  6  2  1  0
  7  4  1  0
  8  5  2  0
 10  9  1  0
 11  7  2  0
 11  8  1  0
 11  9  1  0
 12  6  1  0
 13 12  2  0
 14 10  1  0
 14 12  1  0
M  END
>  <NAME>  (3599) 
PHENYLETHYL BUTYRATE

>  <SYNONYMS>  (3599) 


>  <SPECTRUM TYPE>  (3599) 
MS1

>  <INSTRUMENT TYPE>  (3599) 
EI-B

>  <INSTRUMENT>  (3599) 
HITACHI M-80B

>  <ION MODE>  (3599) 
P

>  <INCHIKEY>  (3599) 
WFNDDSQUKATKNX-UHFFFAOYSA-N

>  <FORMULA>  (3599) 
C12H16O2

>  <EXACT MASS>  (3599) 
192.115029752

>  <MW>  (3599) 
192

>  <ID>  (3599) 
JP006417

>  <CONTRIBUTOR>  (3599) 
University of Tokyo Team, {Faculty of Engineering, University of Tokyo

>  <COMMENT>  (3599) 
SMILES=CCCC(=O)OCCc(c1)cccc1
InChI=InChI=1S/C12H16O2/c1-2-6-12(13)14-10-9-11-7-4-3-5-8-11/h3-5,7-8H,2,6,9-10H2,1H3
computed SMILES=O=C(OCCC=1C=CC=CC1)CCC
accession=JP006417
date=2016.01.19 (Created 2008.10.21, modified 2011.05.06)
author=HISAHIRO HAGIWARA, CHEMICAL RESEARCH INSTITUTE OF NON-AQUEOUSSOLUTIONS TOHOKU UNIV.
license=CC BY-NC-SA
exact mass=192.11503
ionization energy=70 eV
ion type=[M]+*
computed spectral entropy=2.0743411913048586
computed normalized entropy=0.7044945424177536
SPLASH=splash10-0udi-8900000000-8538af1bf42be4bf1d8e
submitter=submitter = University of Tokyo Team (Faculty of Engineering, University of Tokyo)
MoNA Rating=3.75

>  <NUM PEAKS>  (3599) 
19

>  <MASS SPECTRAL PEAKS>  (3599) 
27 8.27
29 1.17
39 5.18
41 7.95
42 1.83
43 29.4
51 4.1
63 1.31
65 4.54
71 23.03
77 6.94
78 2.87
79 2.76
91 9.4
92 1.15
103 4.56
104 99.99
105 17.04
106 1.02

>  <PREDICTED SPECTRUM>  (3599) 
26 35
27 161
28 19
29 67
36 7
38 4
39 194
40 54
41 163
42 157
43 446
44 88
45 12
49 5
50 98
51 183
52 97
53 100
54 89
55 138
56 15
60 1
61 39
62 34
63 137
64 52
65 181
66 34
67 40
69 39
70 35
71 357
72 26
73 35
74 58
75 61
76 55
77 211
78 195
79 176
80 15
89 114
90 40
91 279
92 116
101 34
102 106
103 156
104 999
105 548
106 159
107 32
109 10

$$$$

     RDKit          2D

 13 13  0  0  0  0  0  0  0  0999 V2000
    2.6027    1.5000    0.0000 C   0  0  0  0  0  0  0  0  0  0  0  0
   -7.8088   -1.5472    0.0000 C   0  0  0  0  0  0  0  0  0  0  0  0
    1.3099    0.7393    0.0000 C   0  0  0  0  0  0  0  0  0  0  0  0
    0.0047    1.4786    0.0000 C   0  0  0  0  0  0  0  0  0  0  0  0
   -6.5061    0.6964    0.0000 C   0  0  0  0  0  0  0  0  0  0  0  0
   -5.2361   -1.5536    0.0000 C   0  0  0  0  0  0  0  0  0  0  0  0
   -5.2361    1.4464    0.0000 C   0  0  0  0  0  0  0  0  0  0  0  0
   -3.8861   -0.8036    0.0000 C   0  0  0  0  0  0  0  0  0  0  0  0
   -6.5061   -0.8036    0.0000 C   0  0  0  0  0  0  0  0  0  0  0  0
   -3.8861    0.6964    0.0000 C   0  0  0  0  0  0  0  0  0  0  0  0
   -1.2881    0.7179    0.0000 C   0  0  0  0  0  0  0  0  0  0  0  0
   -1.2757   -0.7821    0.0000 O   0  0  0  0  0  0  0  0  0  0  0  0
   -2.5933    1.4571    0.0000 O   0  0  0  0  0  0  0  0  0  0  0  0
  3  1  1  0
  4  3  1  0
  7  5  2  0
  8  6  1  0
  9  2  1  0
  9  5  1  0
  9  6  2  0
 10  7  1  0
 10  8  2  0
 11  4  1  0
 12 11  2  0
 13 10  1  0
 13 11  1  0
M  END
>  <NAME>  (3600) 
P-CRESYL BUTYRATE

>  <SYNONYMS>  (3600) 
4-METHYLPHENYL BUTYRATE

>  <SPECTRUM TYPE>  (3600) 
MS1

>  <INSTRUMENT TYPE>  (3600) 
EI-B

>  <INSTRUMENT>  (3600) 
HITACHI M-80B

>  <ION MODE>  (3600) 
P

>  <INCHIKEY>  (3600) 
RRXBRABFDRJAPX-UHFFFAOYSA-N

>  <FORMULA>  (3600) 
C11H14O2

>  <EXACT MASS>  (3600) 
178.099379688

>  <MW>  (3600) 
178

>  <ID>  (3600) 
JP006416

>  <CONTRIBUTOR>  (3600) 
University of Tokyo Team, {Faculty of Engineering, University of Tokyo

>  <COMMENT>  (3600) 
SMILES=CCCC(=O)Oc(c1)ccc(C)c1
InChI=InChI=1S/C11H14O2/c1-3-4-11(12)13-10-7-5-9(2)6-8-10/h5-8H,3-4H2,1-2H3
computed SMILES=O=C(OC1=CC=C(C=C1)C)CCC
accession=JP006416
date=2016.01.19 (Created 2008.10.21, modified 2011.05.06)
author=HISAHIRO HAGIWARA, CHEMICAL RESEARCH INSTITUTE OF NON-AQUEOUSSOLUTIONS TOHOKU UNIV.
license=CC BY-NC-SA
exact mass=178.09938
ionization energy=70 eV
ion type=[M]+*
computed spectral entropy=2.2896542685583463
computed normalized entropy=0.7204579880598392
SPLASH=splash10-0a4i-7900000000-bc4ffb81261319d176ea
submitter=submitter = University of Tokyo Team (Faculty of Engineering, University of Tokyo)
MoNA Rating=3.75

>  <NUM PEAKS>  (3600) 
24

>  <MASS SPECTRAL PEAKS>  (3600) 
27 10.69
29 1.24
39 6.69
41 8.33
42 1.53
43 30.44
50 1.47
51 4.23
52 2.34
53 2.39
55 1.71
63 1.46
65 2.32
71 11.58
77 10.67
78 3.42
79 4.59
80 1.94
90 1.46
91 3.64
107 18.29
108 99.99
109 8.85
178 7.37

>  <PREDICTED SPECTRUM>  (3600) 
15 25
25 0
26 90
27 275
28 122
29 153
37 3
38 61
39 263
40 96
41 273
42 117
43 518
44 114
50 102
51 177
52 147
53 147
54 66
55 179
56 15
61 14
62 50
63 120
64 66
65 204
66 99
67 54
68 18
69 78
70 100
71 474
72 104
74 52
77 288
78 187
79 223
80 197
81 30
89 59
90 91
91 172
92 82
93 36
107 294
108 999
109 314
110 57
135 27
178 244
179 104

$$$$

     RDKit          2D

 13 13  0  0  0  0  0  0  0  0999 V2000
   -6.8197    3.1321    0.0000 C   0  0  0  0  0  0  0  0  0  0  0  0
   -5.5207    3.8821    0.0000 C   0  0  0  0  0  0  0  0  0  0  0  0
    3.5726    1.6321    0.0000 C   0  0  0  0  0  0  0  0  0  0  0  0
    3.5731    3.1329    0.0000 C   0  0  0  0  0  0  0  0  0  0  0  0
    2.2731    0.8813    0.0000 C   0  0  0  0  0  0  0  0  0  0  0  0
   -4.2216    3.1321    0.0000 C   0  0  0  0  0  0  0  0  0  0  0  0
    2.2740    3.8829    0.0000 C   0  0  0  0  0  0  0  0  0  0  0  0
    0.9740    1.6313    0.0000 C   0  0  0  0  0  0  0  0  0  0  0  0
   -0.3245    3.8821    0.0000 C   0  0  0  0  0  0  0  0  0  0  0  0
    0.9745    3.1321    0.0000 C   0  0  0  0  0  0  0  0  0  0  0  0
   -2.9226    3.8821    0.0000 C   0  0  0  0  0  0  0  0  0  0  0  0
   -2.9226    5.3821    0.0000 O   0  0  0  0  0  0  0  0  0  0  0  0
   -1.6236    3.1321    0.0000 O   0  0  0  0  0  0  0  0  0  0  0  0
  2  1  1  0
  4  3  2  0
  5  3  1  0
  6  2  1  0
  7  4  1  0
  8  5  2  0
 10  7  2  0
 10  8  1  0
 10  9  1  0
 11  6  1  0
 12 11  2  0
 13  9  1  0
 13 11  1  0
M  END
>  <NAME>  (3601) 
BENZYL BUTYRATE

>  <SYNONYMS>  (3601) 


>  <SPECTRUM TYPE>  (3601) 
MS1

>  <INSTRUMENT TYPE>  (3601) 
EI-B

>  <INSTRUMENT>  (3601) 
HITACHI M-80B

>  <ION MODE>  (3601) 
P

>  <INCHIKEY>  (3601) 
VONGZNXBKCOUHB-UHFFFAOYSA-N

>  <FORMULA>  (3601) 
C11H14O2

>  <EXACT MASS>  (3601) 
178.099379688

>  <MW>  (3601) 
178

>  <ID>  (3601) 
JP006415

>  <CONTRIBUTOR>  (3601) 
University of Tokyo Team, {Faculty of Engineering, University of Tokyo

>  <COMMENT>  (3601) 
SMILES=CCCC(=O)OCc(c1)cccc1
InChI=InChI=1S/C11H14O2/c1-2-6-11(12)13-9-10-7-4-3-5-8-10/h3-5,7-8H,2,6,9H2,1H3
computed SMILES=O=C(OCC=1C=CC=CC1)CCC
accession=JP006415
date=2016.01.19 (Created 2008.10.21, modified 2011.05.06)
author=HISAHIRO HAGIWARA, CHEMICAL RESEARCH INSTITUTE OF NON-AQUEOUSSOLUTIONS TOHOKU UNIV.
license=CC BY-NC-SA
exact mass=178.09938
ionization energy=70 eV
ion type=[M]+*
computed spectral entropy=2.6633868725744256
computed normalized entropy=0.7684910066063779
SPLASH=splash10-0006-9300000000-360016726e255d4d2859
submitter=submitter = University of Tokyo Team (Faculty of Engineering, University of Tokyo)
MoNA Rating=3.75

>  <NUM PEAKS>  (3601) 
32

>  <MASS SPECTRAL PEAKS>  (3601) 
27 12.28
28 1.35
29 2.18
38 1.08
39 12.64
40 1.2
41 13.06
42 2.2
43 32.23
44 1.01
50 2.27
51 8.8
52 2.02
55 1.33
63 3.6
64 1.29
65 15.03
71 26.67
72 1.03
77 11.09
78 2.53
79 10.63
89 6.32
90 18.23
91 99.99
92 8.61
105 2.68
107 7.81
108 79.4
109 6.07
178 21.02
179 2.26

>  <PREDICTED SPECTRUM>  (3601) 
26 70
27 233
28 56
29 140
31 20
37 0
38 67
39 250
40 99
41 310
42 167
43 611
44 125
45 37
49 2
50 149
51 242
52 141
53 119
54 14
55 162
56 69
62 78
63 188
64 94
65 319
66 93
68 15
69 158
70 165
71 468
72 166
73 10
74 114
75 98
76 62
77 308
78 190
79 313
80 56
81 51
87 62
88 25
89 272
90 334
91 999
92 383
105 235
106 65
107 504
108 691
109 200
118 36
133 21
134 7
178 294
179 123
180 15

$$$$

     RDKit          2D

 12 12  0  0  0  0  0  0  0  0999 V2000
   -1.8335    0.5083    0.0000 C   0  0  0  0  0  0  0  0  0  0  0  0
   -0.5353   -0.2431    0.0000 C   0  0  0  0  0  0  0  0  0  0  0  0
    7.5924    2.2989    0.0000 C   0  0  0  0  0  0  0  0  0  0  0  0
    0.7645    0.5056    0.0000 C   0  0  0  0  0  0  0  0  0  0  0  0
    6.1252    1.9870    0.0000 C   0  0  0  0  0  0  0  0  0  0  0  0
    8.3376    1.0055    0.0000 C   0  0  0  0  0  0  0  0  0  0  0  0
    4.6609   -0.2484    0.0000 C   0  0  0  0  0  0  0  0  0  0  0  0
    5.9607    0.5003    0.0000 C   0  0  0  0  0  0  0  0  0  0  0  0
    2.0628   -0.2457    0.0000 C   0  0  0  0  0  0  0  0  0  0  0  0
    2.0613   -1.7457    0.0000 O   0  0  0  0  0  0  0  0  0  0  0  0
    7.3370   -0.1068    0.0000 O   0  0  0  0  0  0  0  0  0  0  0  0
    3.3626    0.5030    0.0000 O   0  0  0  0  0  0  0  0  0  0  0  0
  2  1  1  0
  4  2  1  0
  5  3  1  0
  6  3  2  0
  8  5  2  0
  8  7  1  0
  9  4  1  0
 10  9  2  0
 11  6  1  0
 11  8  1  0
 12  7  1  0
 12  9  1  0
M  END
>  <NAME>  (3602) 
FURFURYL BUTYRATE

>  <SYNONYMS>  (3602) 


>  <SPECTRUM TYPE>  (3602) 
MS1

>  <INSTRUMENT TYPE>  (3602) 
EI-B

>  <INSTRUMENT>  (3602) 
HITACHI M-80B

>  <ION MODE>  (3602) 
P

>  <INCHIKEY>  (3602) 
IXISGRHWGVGCAK-UHFFFAOYSA-N

>  <FORMULA>  (3602) 
C9H12O3

>  <EXACT MASS>  (3602) 
168.07864424399997

>  <MW>  (3602) 
168

>  <ID>  (3602) 
JP006414

>  <CONTRIBUTOR>  (3602) 
University of Tokyo Team, {Faculty of Engineering, University of Tokyo

>  <COMMENT>  (3602) 
SMILES=CCCC(=O)OCc(c1)occ1
InChI=InChI=1S/C9H12O3/c1-2-4-9(10)12-7-8-5-3-6-11-8/h3,5-6H,2,4,7H2,1H3
computed SMILES=O=C(OCC=1OC=CC1)CCC
accession=JP006414
date=2016.01.19 (Created 2008.10.21, modified 2011.05.06)
author=HISAHIRO HAGIWARA, CHEMICAL RESEARCH INSTITUTE OF NON-AQUEOUSSOLUTIONS TOHOKU UNIV.
license=CC BY-NC-SA
exact mass=168.07864
ionization energy=70 eV
ion type=[M]+*
computed spectral entropy=2.570520758750427
computed normalized entropy=0.7714174657951206
SPLASH=splash10-001i-9000000000-e758b6f3ce7b2e04e1b4
submitter=submitter = University of Tokyo Team (Faculty of Engineering, University of Tokyo)
MoNA Rating=3.75

>  <NUM PEAKS>  (3602) 
28

>  <MASS SPECTRAL PEAKS>  (3602) 
15 1.12
26 2.01
27 23.02
28 2.48
29 4.48
38 2.08
39 12.27
40 1.21
41 12.18
42 4.84
43 24.76
50 2.08
51 5.25
52 19.81
53 21.14
55 1.31
69 1.59
70 1.51
71 13.65
80 11.02
81 99.99
82 5.25
95 1.77
97 4.7
98 25.31
99 1.26
168 12.5
169 1

>  <PREDICTED SPECTRUM>  (3602) 
14 18
15 66
26 76
27 209
28 122
29 135
37 38
38 93
39 211
40 91
41 302
42 102
43 825
44 86
45 10
50 83
51 157
52 201
53 440
54 194
55 41
62 8
63 42
64 29
66 82
67 23
68 131
69 231
70 73
71 676
72 253
79 67
80 194
81 999
82 207
94 107
97 495
98 317
99 51
108 63
168 227
169 58

$$$$

     RDKit          2D

 12 12  0  0  0  0  0  0  0  0999 V2000
    7.4251    1.2910    0.0000 C   0  0  0  0  0  0  0  0  0  0  0  0
    6.1262    0.5408    0.0000 C   0  0  0  0  0  0  0  0  0  0  0  0
   -1.6700   -0.9600    0.0000 C   0  0  0  0  0  0  0  0  0  0  0  0
   -1.6700    0.5400    0.0000 C   0  0  0  0  0  0  0  0  0  0  0  0
   -0.3700   -1.7100    0.0000 C   0  0  0  0  0  0  0  0  0  0  0  0
    4.8270    1.2906    0.0000 C   0  0  0  0  0  0  0  0  0  0  0  0
   -0.3700    1.2900    0.0000 C   0  0  0  0  0  0  0  0  0  0  0  0
    0.9300   -0.9600    0.0000 C   0  0  0  0  0  0  0  0  0  0  0  0
    0.9300    0.5400    0.0000 C   0  0  0  0  0  0  0  0  0  0  0  0
    3.5281    0.5404    0.0000 C   0  0  0  0  0  0  0  0  0  0  0  0
    3.5283   -0.9596    0.0000 O   0  0  0  0  0  0  0  0  0  0  0  0
    2.2289    1.2902    0.0000 O   0  0  0  0  0  0  0  0  0  0  0  0
  2  1  1  0
  4  3  1  0
  5  3  1  0
  6  2  1  0
  7  4  1  0
  8  5  1  0
  9  7  1  0
  9  8  1  0
 10  6  1  0
 11 10  2  0
 12  9  1  0
 12 10  1  0
M  END
>  <NAME>  (3603) 
CYCLOHEXYL BUTYRATE

>  <SYNONYMS>  (3603) 


>  <SPECTRUM TYPE>  (3603) 
MS1

>  <INSTRUMENT TYPE>  (3603) 
EI-B

>  <INSTRUMENT>  (3603) 
HITACHI M-80B

>  <ION MODE>  (3603) 
P

>  <INCHIKEY>  (3603) 
VZHUBBUZNIULNM-UHFFFAOYSA-N

>  <FORMULA>  (3603) 
C10H18O2

>  <EXACT MASS>  (3603) 
170.130679816

>  <MW>  (3603) 
170

>  <ID>  (3603) 
JP006413

>  <CONTRIBUTOR>  (3603) 
University of Tokyo Team, {Faculty of Engineering, University of Tokyo

>  <COMMENT>  (3603) 
SMILES=CCCC(=O)OC(C1)CCCC1
InChI=InChI=1S/C10H18O2/c1-2-6-10(11)12-9-7-4-3-5-8-9/h9H,2-8H2,1H3
computed SMILES=O=C(OC1CCCCC1)CCC
accession=JP006413
date=2016.01.19 (Created 2008.10.21, modified 2011.05.06)
author=HISAHIRO HAGIWARA, CHEMICAL RESEARCH INSTITUTE OF NON-AQUEOUSSOLUTIONS TOHOKU UNIV.
license=CC BY-NC-SA
exact mass=170.13068
ionization energy=70 eV
ion type=[M]+*
computed spectral entropy=2.761871666248803
computed normalized entropy=0.7768217396672533
SPLASH=splash10-007x-9000000000-14210e7987483ed12284
submitter=submitter = University of Tokyo Team (Faculty of Engineering, University of Tokyo)
MoNA Rating=3.75

>  <NUM PEAKS>  (3603) 
35

>  <MASS SPECTRAL PEAKS>  (3603) 
15 1.06
18 6.48
26 1.51
27 24.6
29 14.52
39 3.4
41 59.68
42 5.23
43 61.25
44 2.29
45 1.41
51 2.32
53 6.41
54 20.94
55 25.91
56 4.28
57 1.53
60 5.79
65 1.45
66 1.32
67 51.83
68 3.53
71 99.99
72 1.47
73 1.73
77 1.04
81 11.25
82 83.77
83 33.5
86 1.17
88 12.66
89 65.96
90 1.69
99 8.08
127 6.58

>  <PREDICTED SPECTRUM>  (3603) 
25 3
26 97
27 354
28 123
29 315
31 73
38 33
39 351
40 133
41 619
42 249
43 809
44 182
45 156
51 32
52 7
53 171
54 259
55 497
56 68
57 305
58 105
59 23
60 154
65 62
66 89
67 503
68 233
69 129
70 85
71 999
72 253
77 14
79 74
81 265
82 411
83 305
84 86
85 130
86 47
87 36
88 176
89 357
90 50
99 48
100 117
101 56
110 2
127 227
128 16

$$$$

     RDKit          2D

 16 15  0  0  0  0  0  0  0  0999 V2000
    3.8971    6.7500    0.0000 C   0  0  0  0  0  0  0  0  0  0  0  0
  -11.6913    6.7500    0.0000 C   0  0  0  0  0  0  0  0  0  0  0  0
  -10.3923    9.0000    0.0000 C   0  0  0  0  0  0  0  0  0  0  0  0
   -5.1962    9.0000    0.0000 C   0  0  0  0  0  0  0  0  0  0  0  0
    2.5981    7.5000    0.0000 C   0  0  0  0  0  0  0  0  0  0  0  0
   -7.7942    7.5000    0.0000 C   0  0  0  0  0  0  0  0  0  0  0  0
    1.2990    6.7500    0.0000 C   0  0  0  0  0  0  0  0  0  0  0  0
   -9.0933    6.7500    0.0000 C   0  0  0  0  0  0  0  0  0  0  0  0
   -6.4952    6.7500    0.0000 C   0  0  0  0  0  0  0  0  0  0  0  0
   -3.8971    6.7500    0.0000 C   0  0  0  0  0  0  0  0  0  0  0  0
   -2.5981    7.5000    0.0000 C   0  0  0  0  0  0  0  0  0  0  0  0
  -10.3923    7.5000    0.0000 C   0  0  0  0  0  0  0  0  0  0  0  0
   -5.1962    7.5000    0.0000 C   0  0  0  0  0  0  0  0  0  0  0  0
    0.0000    7.5000    0.0000 C   0  0  0  0  0  0  0  0  0  0  0  0
    0.0000    9.0000    0.0000 O   0  0  0  0  0  0  0  0  0  0  0  0
   -1.2990    6.7500    0.0000 O   0  0  0  0  0  0  0  0  0  0  0  0
  5  1  1  0
  7  5  1  0
  8  6  1  0
  9  6  1  0
 11 10  1  0
 12  2  1  0
 12  3  1  0
 12  8  1  0
 13  4  1  0
 13  9  1  0
 13 10  1  0
 14  7  1  0
 15 14  2  0
 16 11  1  0
 16 14  1  0
M  END
>  <NAME>  (3604) 
TETRAHYDROGERANYL BUTYRATE

>  <SYNONYMS>  (3604) 
3,7-DIMETHYLOCTYL BUTYRATE

>  <SPECTRUM TYPE>  (3604) 
MS1

>  <INSTRUMENT TYPE>  (3604) 
EI-B

>  <INSTRUMENT>  (3604) 
HITACHI M-80B

>  <ION MODE>  (3604) 
P

>  <INCHIKEY>  (3604) 
MHOJKRQFONEPRN-UHFFFAOYSA-N

>  <FORMULA>  (3604) 
C14H28O2

>  <EXACT MASS>  (3604) 
228.208930136

>  <MW>  (3604) 
228

>  <ID>  (3604) 
JP006412

>  <CONTRIBUTOR>  (3604) 
University of Tokyo Team, {Faculty of Engineering, University of Tokyo

>  <COMMENT>  (3604) 
SMILES=CCCC(=O)OCCC(C)CCCC(C)C
InChI=InChI=1S/C14H28O2/c1-5-7-14(15)16-11-10-13(4)9-6-8-12(2)3/h12-13H,5-11H2,1-4H3
computed SMILES=O=C(OCCC(C)CCCC(C)C)CCC
accession=JP006412
date=2016.01.19 (Created 2008.10.21, modified 2011.05.06)
author=HISAHIRO HAGIWARA, CHEMICAL RESEARCH INSTITUTE OF NON-AQUEOUSSOLUTIONS TOHOKU UNIV.
license=CC BY-NC-SA
exact mass=228.20893
ionization energy=70 eV
ion type=[M]+*
computed spectral entropy=3.0677003049020195
computed normalized entropy=0.7802228764596659
SPLASH=splash10-05fu-9000000000-94e47740ff37ebf9c7e7
submitter=submitter = University of Tokyo Team (Faculty of Engineering, University of Tokyo)
MoNA Rating=3.75

>  <NUM PEAKS>  (3604) 
51

>  <MASS SPECTRAL PEAKS>  (3604) 
27 20.37
28 1.86
29 17.97
32 1.11
39 8.36
40 1.81
41 51.27
42 12.45
43 99.99
44 3.58
45 1.49
53 2.94
54 2.58
55 47.87
56 64.48
57 39.73
58 1.76
60 1.67
67 3.5
68 3.95
69 43.71
70 90.12
71 77.49
72 3
73 1.45
81 2.79
82 2.92
83 21.02
84 19.63
85 9.76
86 1.3
88 1.96
89 32.49
90 1.25
95 1.27
96 3
97 11.07
98 2.79
99 1.27
101 1.13
111 11.11
112 7.67
113 1.66
115 4.48
116 1.2
125 3.93
140 17.31
141 1.57
143 2.36
158 1.73
185 2.14

>  <PREDICTED SPECTRUM>  (3604) 
25 0
26 62
27 330
28 104
29 381
30 14
31 99
37 7
38 41
39 305
40 136
41 638
42 414
43 920
44 164
45 78
51 42
52 21
53 107
54 131
55 665
56 692
57 666
58 99
59 54
60 83
61 146
63 29
66 11
67 187
68 160
69 570
70 890
71 999
72 216
73 125
79 16
81 91
82 130
83 415
84 317
85 249
86 66
87 43
88 167
89 648
90 135
95 137
96 150
97 302
98 109
99 79
110 35
111 314
112 148
113 63
115 216
116 24
125 183
126 20
139 10
140 412
141 128
142 44
143 59
185 59

$$$$

     RDKit          2D

 16 16  0  0  0  0  0  0  0  0999 V2000
    7.5051   -1.3310    0.0000 C   0  0  0  0  0  0  0  0  0  0  0  0
   -1.5890   -3.5800    0.0000 C   0  0  0  0  0  0  0  0  0  0  0  0
    1.0090   -3.5800    0.0000 C   0  0  0  0  0  0  0  0  0  0  0  0
   -0.2900    3.1700    0.0000 C   0  0  0  0  0  0  0  0  0  0  0  0
    6.2062   -0.5808    0.0000 C   0  0  0  0  0  0  0  0  0  0  0  0
    4.9070   -1.3306    0.0000 C   0  0  0  0  0  0  0  0  0  0  0  0
   -1.5900    0.9200    0.0000 C   0  0  0  0  0  0  0  0  0  0  0  0
   -1.5900   -0.5800    0.0000 C   0  0  0  0  0  0  0  0  0  0  0  0
    1.0100    0.9200    0.0000 C   0  0  0  0  0  0  0  0  0  0  0  0
   -0.2900   -2.8300    0.0000 C   0  0  0  0  0  0  0  0  0  0  0  0
   -0.2900    1.6700    0.0000 C   0  0  0  0  0  0  0  0  0  0  0  0
   -0.2900   -1.3300    0.0000 C   0  0  0  0  0  0  0  0  0  0  0  0
    1.0100   -0.5800    0.0000 C   0  0  0  0  0  0  0  0  0  0  0  0
    3.6081   -0.5804    0.0000 C   0  0  0  0  0  0  0  0  0  0  0  0
    3.6083    0.9196    0.0000 O   0  0  0  0  0  0  0  0  0  0  0  0
    2.3089   -1.3302    0.0000 O   0  0  0  0  0  0  0  0  0  0  0  0
  5  1  1  0
  6  5  1  0
  8  7  1  0
 10  2  1  0
 10  3  1  0
 11  4  1  0
 11  7  1  0
 11  9  1  0
 12  8  1  0
 12 10  1  0
 13  9  1  0
 13 12  1  0
 14  6  1  0
 15 14  2  0
 16 13  1  0
 16 14  1  0
M  END
>  <NAME>  (3605) 
MENTHYL BUTYRATE

>  <SYNONYMS>  (3605) 


>  <SPECTRUM TYPE>  (3605) 
MS1

>  <INSTRUMENT TYPE>  (3605) 
EI-B

>  <INSTRUMENT>  (3605) 
HITACHI M-80B

>  <ION MODE>  (3605) 
P

>  <INCHIKEY>  (3605) 
PHCRRQSBYWJFBQ-UHFFFAOYSA-N

>  <FORMULA>  (3605) 
C14H26O2

>  <EXACT MASS>  (3605) 
226.193280072

>  <MW>  (3605) 
226

>  <ID>  (3605) 
JP006411

>  <CONTRIBUTOR>  (3605) 
University of Tokyo Team, {Faculty of Engineering, University of Tokyo

>  <COMMENT>  (3605) 
SMILES=CCCC(=O)OC(C1)C(CCC(C)1)C(C)C
InChI=InChI=1S/C14H26O2/c1-5-6-14(15)16-13-9-11(4)7-8-12(13)10(2)3/h10-13H,5-9H2,1-4H3
computed SMILES=O=C(OC1CC(C)CCC1C(C)C)CCC
accession=JP006411
date=2016.01.19 (Created 2008.10.21, modified 2011.05.06)
author=HISAHIRO HAGIWARA, CHEMICAL RESEARCH INSTITUTE OF NON-AQUEOUSSOLUTIONS TOHOKU UNIV.
license=CC BY-NC-SA
exact mass=226.19328
ionization energy=70 eV
ion type=[M]+*
computed spectral entropy=3.0826312615998344
computed normalized entropy=0.8051501674788973
SPLASH=splash10-007y-9100000000-a0c4a9b5568cfb0bfb88
submitter=submitter = University of Tokyo Team (Faculty of Engineering, University of Tokyo)
MoNA Rating=3.75

>  <NUM PEAKS>  (3605) 
46

>  <MASS SPECTRAL PEAKS>  (3605) 
27 18.77
29 11.13
39 10.82
40 1.44
41 46.38
42 6.49
43 84.75
44 2.84
53 5.68
54 4.81
55 32.52
56 4.31
57 11.54
60 1.07
67 14.05
68 7.13
69 17.81
70 3.99
71 99.99
72 3.69
77 1.85
79 3.26
80 4.81
81 49.3
82 22.9
83 25.55
84 2.23
85 1.33
89 2.9
91 1.22
93 1.16
94 11.08
95 84.34
96 22.67
97 5.47
109 7.46
110 4.59
111 1.4
113 1.68
123 30.16
124 2.87
128 1.08
137 2.5
138 67.59
139 11.96
141 1.55

>  <PREDICTED SPECTRUM>  (3605) 
25 5
26 93
27 384
28 193
29 379
30 60
31 62
38 20
39 316
40 117
41 693
42 255
43 941
44 144
45 66
51 72
52 40
53 232
54 263
55 685
56 270
57 544
58 29
62 4
63 60
65 132
66 141
67 518
68 353
69 483
70 266
71 985
72 285
73 60
74 5
77 192
78 14
79 238
80 280
81 847
82 536
83 530
84 173
85 92
86 13
87 58
89 83
91 47
92 9
93 213
94 324
95 999
96 533
97 190
98 35
99 91
108 23
109 400
110 211
111 92
113 141
123 612
124 155
137 152
138 977
139 349
140 89
141 81
155 39

$$$$

     RDKit          2D

 16 15  0  0  0  0  0  0  0  0999 V2000
    3.8971    6.7500    0.0000 C   0  0  0  0  0  0  0  0  0  0  0  0
  -11.6913    6.7500    0.0000 C   0  0  0  0  0  0  0  0  0  0  0  0
  -10.3923    9.0000    0.0000 C   0  0  0  0  0  0  0  0  0  0  0  0
   -5.1962    9.0000    0.0000 C   0  0  0  0  0  0  0  0  0  0  0  0
    2.5981    7.5000    0.0000 C   0  0  0  0  0  0  0  0  0  0  0  0
   -7.7942    7.5000    0.0000 C   0  0  0  0  0  0  0  0  0  0  0  0
    1.2990    6.7500    0.0000 C   0  0  0  0  0  0  0  0  0  0  0  0
   -9.0933    6.7500    0.0000 C   0  0  0  0  0  0  0  0  0  0  0  0
   -6.4952    6.7500    0.0000 C   0  0  0  0  0  0  0  0  0  0  0  0
   -3.8971    6.7500    0.0000 C   0  0  0  0  0  0  0  0  0  0  0  0
   -2.5981    7.5000    0.0000 C   0  0  0  0  0  0  0  0  0  0  0  0
  -10.3923    7.5000    0.0000 C   0  0  0  0  0  0  0  0  0  0  0  0
   -5.1962    7.5000    0.0000 C   0  0  0  0  0  0  0  0  0  0  0  0
    0.0000    7.5000    0.0000 C   0  0  0  0  0  0  0  0  0  0  0  0
    0.0000    9.0000    0.0000 O   0  0  0  0  0  0  0  0  0  0  0  0
   -1.2990    6.7500    0.0000 O   0  0  0  0  0  0  0  0  0  0  0  0
  5  1  1  0
  7  5  1  0
  8  6  1  0
  9  6  1  0
 11 10  1  0
 12  2  1  0
 12  3  1  0
 12  8  2  0
 13  4  1  0
 13  9  1  0
 13 10  1  0
 14  7  1  0
 15 14  2  0
 16 11  1  0
 16 14  1  0
M  END
>  <NAME>  (3606) 
CITRONELLYL BUTYRATE

>  <SYNONYMS>  (3606) 


>  <SPECTRUM TYPE>  (3606) 
MS1

>  <INSTRUMENT TYPE>  (3606) 
EI-B

>  <INSTRUMENT>  (3606) 
HITACHI M-80B

>  <ION MODE>  (3606) 
P

>  <INCHIKEY>  (3606) 
XQPZQXTWYZAXAK-UHFFFAOYSA-N

>  <FORMULA>  (3606) 
C14H26O2

>  <EXACT MASS>  (3606) 
226.193280072

>  <MW>  (3606) 
226

>  <ID>  (3606) 
JP006410

>  <CONTRIBUTOR>  (3606) 
University of Tokyo Team, {Faculty of Engineering, University of Tokyo

>  <COMMENT>  (3606) 
SMILES=CCCC(=O)OCCC(C)CCC=C(C)C
InChI=InChI=1S/C14H26O2/c1-5-7-14(15)16-11-10-13(4)9-6-8-12(2)3/h8,13H,5-7,9-11H2,1-4H3
computed SMILES=O=C(OCCC(C)CCC=C(C)C)CCC
accession=JP006410
date=2016.01.19 (Created 2008.10.21, modified 2011.05.06)
author=HISAHIRO HAGIWARA, CHEMICAL RESEARCH INSTITUTE OF NON-AQUEOUSSOLUTIONS TOHOKU UNIV.
license=CC BY-NC-SA
exact mass=226.19328
ionization energy=70 eV
ion type=[M]+*
computed spectral entropy=3.181353035196262
computed normalized entropy=0.8051523170376412
SPLASH=splash10-00rx-9100000000-adf929332f117b653cc7
submitter=submitter = University of Tokyo Team (Faculty of Engineering, University of Tokyo)
MoNA Rating=3.75

>  <NUM PEAKS>  (3606) 
52

>  <MASS SPECTRAL PEAKS>  (3606) 
15 1.15
27 22.35
28 2.39
29 16.14
31 1.46
39 17.64
40 2.63
41 99.99
42 11.72
43 67.68
44 2.23
45 2.05
51 1.68
53 9.48
54 3.7
55 44.79
56 10.41
57 10.37
60 2.24
65 1.48
66 1.57
67 45.5
68 32.95
69 84.95
70 8.98
71 53.09
72 1.98
73 1.33
77 1.56
79 2.87
80 5.68
81 84.05
82 65.52
83 15.86
84 1.33
85 1.06
89 5.44
91 1.73
93 4.11
95 73.84
96 18.08
97 2.34
99 1.18
109 29.51
110 6.62
111 1.79
121 1.25
123 64.7
124 5.89
137 2.77
138 34.37
139 3.03

>  <PREDICTED SPECTRUM>  (3606) 
26 54
27 299
28 73
29 358
30 30
31 63
38 41
39 387
40 158
41 855
42 275
43 684
44 105
45 9
50 37
51 112
52 69
53 304
54 147
55 684
56 264
57 361
58 15
60 46
62 28
63 66
65 171
66 131
67 664
68 559
69 861
70 266
71 515
72 79
73 55
77 172
78 37
79 268
80 279
81 999
82 805
83 349
84 85
89 47
91 68
93 201
94 273
95 971
96 555
97 63
99 50
107 8
109 577
110 271
114 7
123 863
124 286
137 17
138 581
139 111
141 41

$$$$

     RDKit          2D

 16 16  0  0  1  0  0  0  0  0999 V2000
    9.0942    0.7512    0.0000 C   0  0  0  0  0  0  0  0  0  0  0  0
   -2.5989   -1.5002    0.0000 C   0  0  0  0  0  0  0  0  0  0  0  0
    3.5629    2.6494    0.0000 C   0  0  0  0  0  0  0  0  0  0  0  0
    1.6346    2.6491    0.0000 C   0  0  0  0  0  0  0  0  0  0  0  0
    7.7951    1.5010    0.0000 C   0  0  0  0  0  0  0  0  0  0  0  0
    6.4962    0.7508    0.0000 C   0  0  0  0  0  0  0  0  0  0  0  0
   -1.3000    0.7500    0.0000 C   0  0  0  0  0  0  0  0  0  0  0  0
    0.0000   -1.5000    0.0000 C   0  0  0  0  0  0  0  0  0  0  0  0
    0.0000    1.5000    0.0000 C   0  0  0  0  0  0  0  0  0  0  0  0
    1.3000   -0.7500    0.0000 C   0  0  0  0  0  0  0  0  0  0  0  0
   -1.3000   -0.7500    0.0000 C   0  0  0  0  0  0  0  0  0  0  0  0
    1.3000    0.7500    0.0000 C   0  0  0  0  0  0  0  0  0  0  0  0
    5.1970    1.5006    0.0000 C   0  0  0  0  0  0  0  0  0  0  0  0
    2.5989    1.5002    0.0000 C   0  0  0  0  0  0  0  0  0  0  0  0
    5.1968    3.0006    0.0000 O   0  0  0  0  0  0  0  0  0  0  0  0
    3.8981    0.7504    0.0000 O   0  0  0  0  0  0  0  0  0  0  0  0
  5  1  1  0
  6  5  1  0
  9  7  1  0
 10  8  1  0
 11  2  1  0
 11  7  2  0
 11  8  1  0
 12  9  1  0
 12 10  1  0
 13  6  1  0
 14  3  1  0
 14  4  1  0
 12 14  1  6
 15 13  2  0
 16 13  1  0
 16 14  1  0
M  END
>  <NAME>  (3607) 
TERPINYL BUTYRATE

>  <SYNONYMS>  (3607) 


>  <SPECTRUM TYPE>  (3607) 
MS1

>  <INSTRUMENT TYPE>  (3607) 
EI-B

>  <INSTRUMENT>  (3607) 
HITACHI M-80B

>  <ION MODE>  (3607) 
P

>  <INCHIKEY>  (3607) 
LWKWNIYBQLKBMQ-LBPRGKRZSA-N

>  <FORMULA>  (3607) 
C14H24O2

>  <EXACT MASS>  (3607) 
224.177630008

>  <MW>  (3607) 
224

>  <ID>  (3607) 
JP006409

>  <CONTRIBUTOR>  (3607) 
University of Tokyo Team, {Faculty of Engineering, University of Tokyo

>  <COMMENT>  (3607) 
SMILES=CCCC(=O)OC(C)(C)C([H])(C1)CC=C(C)C1
InChI=InChI=1S/C14H24O2/c1-5-6-13(15)16-14(3,4)12-9-7-11(2)8-10-12/h7,12H,5-6,8-10H2,1-4H3/t12-/m0/s1
computed SMILES=O=C(OC(C)(C)C1CC=C(C)CC1)CCC
accession=JP006409
date=2016.01.19 (Created 2008.10.21, modified 2011.05.06)
author=HISAHIRO HAGIWARA, CHEMICAL RESEARCH INSTITUTE OF NON-AQUEOUSSOLUTIONS TOHOKU UNIV.
license=CC BY-NC-SA
exact mass=224.17763
ionization energy=70 eV
ion type=[M]+*
computed spectral entropy=3.065118509876574
computed normalized entropy=0.7835123938748709
SPLASH=splash10-0076-9500000000-a12ab74e1c6ec7dd4e83
submitter=submitter = University of Tokyo Team (Faculty of Engineering, University of Tokyo)
MoNA Rating=3.75

>  <NUM PEAKS>  (3607) 
50

>  <MASS SPECTRAL PEAKS>  (3607) 
27 12.12
29 6.43
31 1.69
39 8.23
40 2.07
41 34.02
42 3.75
43 54.1
44 1.92
45 1.2
51 1.8
52 1.12
53 7.39
54 1.15
55 7.63
59 4.38
60 2
65 2.85
66 1.32
67 13.36
68 8.41
69 9.99
71 59.52
72 2.58
73 1.07
77 7.71
78 2.08
79 13.29
80 6.42
81 27.28
82 2.27
91 7.27
92 17.09
93 67.07
95 9.79
105 3.48
106 1.01
107 10.01
108 5.87
109 1.19
119 1.1
121 99.99
122 8.73
123 2.17
129 1.36
136 75.44
137 21.45
138 1.73
139 1.5
209 1.84

>  <PREDICTED SPECTRUM>  (3607) 
25 6
26 85
27 355
28 93
29 345
31 77
37 11
38 36
39 298
40 145
41 584
42 250
43 796
44 175
45 142
46 5
49 1
50 39
51 107
52 73
53 309
54 123
55 411
56 117
57 11
58 60
59 273
60 191
61 25
63 43
64 22
65 213
66 122
67 391
68 445
69 303
70 117
71 851
72 182
73 145
77 325
78 111
79 413
80 452
81 508
82 142
83 60
89 129
91 397
92 496
93 960
94 377
95 389
96 100
97 67
103 87
105 236
106 75
107 504
108 294
109 194
110 82
111 34
121 999
122 302
123 116
124 28
125 8
135 26
136 855
137 513
138 124
151 3
152 3
154 43

$$$$

     RDKit          2D

 16 16  0  0  1  0  0  0  0  0999 V2000
    7.5043   -0.5800    0.0000 C   0  0  0  0  0  0  0  0  0  0  0  0
   -2.8886    0.9202    0.0000 C   0  0  0  0  0  0  0  0  0  0  0  0
   -4.1876   -1.3298    0.0000 C   0  0  0  0  0  0  0  0  0  0  0  0
    2.3076   -3.5798    0.0000 C   0  0  0  0  0  0  0  0  0  0  0  0
    6.2052   -1.3298    0.0000 C   0  0  0  0  0  0  0  0  0  0  0  0
    4.9063   -0.5796    0.0000 C   0  0  0  0  0  0  0  0  0  0  0  0
   -0.2910   -3.5806    0.0000 C   0  0  0  0  0  0  0  0  0  0  0  0
   -1.5900   -2.8306    0.0000 C   0  0  0  0  0  0  0  0  0  0  0  0
   -0.2900   -0.5790    0.0000 C   0  0  0  0  0  0  0  0  0  0  0  0
   -2.8886   -0.5798    0.0000 C   0  0  0  0  0  0  0  0  0  0  0  0
    1.0086   -2.8298    0.0000 C   0  0  0  0  0  0  0  0  0  0  0  0
   -1.5895   -1.3298    0.0000 C   0  0  0  0  0  0  0  0  0  0  0  0
    1.0090   -1.3290    0.0000 C   0  0  0  0  0  0  0  0  0  0  0  0
    3.6071   -1.3294    0.0000 C   0  0  0  0  0  0  0  0  0  0  0  0
    3.6069   -2.8294    0.0000 O   0  0  0  0  0  0  0  0  0  0  0  0
    2.3082   -0.5792    0.0000 O   0  0  0  0  0  0  0  0  0  0  0  0
  5  1  1  0
  6  5  1  0
  8  7  1  0
 10  2  2  0
 10  3  1  0
 11  4  1  0
 11  7  2  0
 12  8  1  0
 12  9  1  0
 12 10  1  1
 13  9  1  0
 13 11  1  0
 14  6  1  0
 15 14  2  0
 13 16  1  6
 16 14  1  0
M  END
>  <NAME>  (3608) 
TRANS-L-CARVYL BUTYRATE

>  <SYNONYMS>  (3608) 


>  <SPECTRUM TYPE>  (3608) 
MS1

>  <INSTRUMENT TYPE>  (3608) 
EI-B

>  <INSTRUMENT>  (3608) 
HITACHI M-80B

>  <ION MODE>  (3608) 
P

>  <INCHIKEY>  (3608) 
NFYWZJFDZXGDJZ-OLZOCXBDSA-N

>  <FORMULA>  (3608) 
C14H22O2

>  <EXACT MASS>  (3608) 
222.161979944

>  <MW>  (3608) 
222

>  <ID>  (3608) 
JP006408

>  <CONTRIBUTOR>  (3608) 
University of Tokyo Team, {Faculty of Engineering, University of Tokyo

>  <COMMENT>  (3608) 
SMILES=CCCC(=O)OC(C1)C(C)=CCC(C(C)=C)1
InChI=InChI=1S/C14H22O2/c1-5-6-14(15)16-13-9-12(10(2)3)8-7-11(13)4/h7,12-13H,2,5-6,8-9H2,1,3-4H3/t12-,13+/m1/s1
computed SMILES=O=C(OC1C(=CCC(C(=C)C)C1)C)CCC
accession=JP006408
date=2016.01.19 (Created 2008.10.21, modified 2011.05.06)
author=HISAHIRO HAGIWARA, CHEMICAL RESEARCH INSTITUTE OF NON-AQUEOUSSOLUTIONS TOHOKU UNIV.
license=CC BY-NC-SA
exact mass=222.16198
ionization energy=70 eV
ion type=[M]+*
computed spectral entropy=3.439482597805987
computed normalized entropy=0.8180104728569156
SPLASH=splash10-0006-9600000000-453ce46380b28b2a3038
submitter=submitter = University of Tokyo Team (Faculty of Engineering, University of Tokyo)
MoNA Rating=3.75

>  <NUM PEAKS>  (3608) 
67

>  <MASS SPECTRAL PEAKS>  (3608) 
27 19.08
28 1.05
29 10.03
39 18.63
40 2.96
41 41.07
42 4.07
43 79.46
44 2.44
45 1.06
51 3.31
52 1.77
53 12.81
54 2.52
55 18.13
56 1.41
63 1.07
65 6.57
66 2.41
67 8.27
68 3.72
69 3.47
71 99.99
72 4.15
77 19.84
78 6.5
79 19.41
80 7.5
81 6.88
82 3.53
83 3.06
84 10.21
89 1.31
91 34.39
92 27.23
93 36.22
94 5.67
95 3.15
96 5.3
97 2.26
103 2.07
104 1.33
105 24.57
106 12.07
107 19.39
108 11.7
109 70.57
110 6.52
115 1.69
117 3.22
119 77.71
120 8.49
121 1.24
123 2.59
124 1.88
133 3.46
134 31.28
135 8.99
137 4.23
151 1.15
152 82.22
153 10.86
154 1.57
178 1.64
179 10.96
180 1.1
222 2.36

>  <PREDICTED SPECTRUM>  (3608) 
25 2
26 55
27 255
28 37
29 139
37 7
38 31
39 318
40 166
41 558
42 176
43 999
44 135
45 5
50 68
51 201
52 136
53 334
54 150
55 332
56 90
57 73
59 16
60 134
61 36
62 10
63 108
64 45
65 294
66 199
67 376
68 266
69 199
70 95
71 971
72 330
73 19
74 60
76 12
77 489
78 261
79 448
80 254
81 368
82 178
83 167
84 198
89 77
90 21
91 702
92 574
93 624
94 236
95 251
96 207
97 78
98 22
99 6
103 71
104 104
105 446
106 445
107 426
108 480
109 722
110 322
111 125
115 92
117 162
118 24
119 876
120 314
121 138
122 5
123 178
124 71
133 158
134 678
135 375
136 103
137 194
149 24
150 0
151 181
152 914
153 281
154 85
179 243
222 140
223 33

$$$$

     RDKit          2D

 16 15  0  0  0  0  0  0  0  0999 V2000
    3.2476    5.6250    0.0000 C   0  0  0  0  0  0  0  0  0  0  0  0
   -3.6987    8.9336    0.0000 C   0  0  0  0  0  0  0  0  0  0  0  0
   -9.7428    5.6250    0.0000 C   0  0  0  0  0  0  0  0  0  0  0  0
   -8.4437    7.8750    0.0000 C   0  0  0  0  0  0  0  0  0  0  0  0
   -2.2834    7.5241    0.0000 C   0  0  0  0  0  0  0  0  0  0  0  0
    1.9486    6.3750    0.0000 C   0  0  0  0  0  0  0  0  0  0  0  0
   -4.2118    7.5241    0.0000 C   0  0  0  0  0  0  0  0  0  0  0  0
   -5.8457    6.3750    0.0000 C   0  0  0  0  0  0  0  0  0  0  0  0
    0.6495    5.6250    0.0000 C   0  0  0  0  0  0  0  0  0  0  0  0
   -7.1447    5.6250    0.0000 C   0  0  0  0  0  0  0  0  0  0  0  0
   -4.5466    5.6250    0.0000 C   0  0  0  0  0  0  0  0  0  0  0  0
   -8.4437    6.3750    0.0000 C   0  0  0  0  0  0  0  0  0  0  0  0
   -0.6495    6.3750    0.0000 C   0  0  0  0  0  0  0  0  0  0  0  0
   -3.2476    6.3750    0.0000 C   0  0  0  0  0  0  0  0  0  0  0  0
   -0.6495    7.8750    0.0000 O   0  0  0  0  0  0  0  0  0  0  0  0
   -1.9486    5.6250    0.0000 O   0  0  0  0  0  0  0  0  0  0  0  0
  6  1  1  0
  7  2  2  0
  9  6  1  0
 10  8  1  0
 11  8  1  0
 12  3  1  0
 12  4  1  0
 12 10  2  0
 13  9  1  0
 14  5  1  0
 14  7  1  0
 14 11  1  0
 15 13  2  0
 16 13  1  0
 16 14  1  0
M  END
>  <NAME>  (3609) 
LINALYL BUTYRATE

>  <SYNONYMS>  (3609) 
1,5-DIMETHYL-1-VINYL-4-HEXENYL BUTYRATE

>  <SPECTRUM TYPE>  (3609) 
MS1

>  <INSTRUMENT TYPE>  (3609) 
EI-B

>  <INSTRUMENT>  (3609) 
HITACHI M-80B

>  <ION MODE>  (3609) 
P

>  <INCHIKEY>  (3609) 
FHLGUOHLUFIAAA-UHFFFAOYSA-N

>  <FORMULA>  (3609) 
C14H24O2

>  <EXACT MASS>  (3609) 
224.177630008

>  <MW>  (3609) 
224

>  <ID>  (3609) 
JP006407

>  <CONTRIBUTOR>  (3609) 
University of Tokyo Team, {Faculty of Engineering, University of Tokyo

>  <COMMENT>  (3609) 
SMILES=CCCC(=O)OC(C)(C=C)CCC=C(C)C
InChI=InChI=1S/C14H24O2/c1-6-9-13(15)16-14(5,7-2)11-8-10-12(3)4/h7,10H,2,6,8-9,11H2,1,3-5H3
computed SMILES=O=C(OC(C=C)(C)CCC=C(C)C)CCC
accession=JP006407
date=2016.01.19 (Created 2008.10.21, modified 2011.05.06)
author=HISAHIRO HAGIWARA, CHEMICAL RESEARCH INSTITUTE OF NON-AQUEOUSSOLUTIONS TOHOKU UNIV.
license=CC BY-NC-SA
exact mass=224.17763
ionization energy=70 eV
ion type=[M]+*
computed spectral entropy=3.0178899931858156
computed normalized entropy=0.7882404437128149
SPLASH=splash10-0006-9100000000-17b123e13e809fe56da9
submitter=submitter = University of Tokyo Team (Faculty of Engineering, University of Tokyo)
MoNA Rating=3.75

>  <NUM PEAKS>  (3609) 
46

>  <MASS SPECTRAL PEAKS>  (3609) 
15 1.13
17 7.68
27 12.8
28 1.6
29 6.45
39 9.94
40 2.76
41 49.65
42 4.16
43 56.33
44 1.95
45 1.05
51 1.82
52 1.05
53 9.5
54 1.61
55 12.69
57 1.05
65 1.76
66 1.26
67 9.96
68 11.46
69 35.37
70 2.31
71 45.48
72 1.86
77 2.75
79 7.23
80 43.05
81 15.1
82 1.87
83 2.87
91 5.82
92 14.13
93 99.99
95 3.28
105 2.86
106 1.22
107 8.31
108 1.72
109 1.71
121 33.14
122 2.64
136 8.94
137 3.43
154 1.09

>  <PREDICTED SPECTRUM>  (3609) 
25 6
26 32
27 176
28 50
29 178
38 13
39 237
40 122
41 581
42 137
43 791
44 160
45 84
50 44
51 79
52 75
53 303
54 134
55 399
56 124
57 191
58 46
59 180
60 92
62 1
63 45
64 44
65 195
66 144
67 381
68 436
69 515
70 161
71 963
72 255
73 119
77 315
78 60
79 443
80 555
81 477
82 183
83 149
84 43
85 141
86 16
89 121
91 299
92 499
93 999
94 455
95 140
96 62
97 54
98 45
103 25
105 159
107 470
108 232
109 88
110 39
111 101
117 3
119 0
121 545
122 134
123 112
125 19
132 4
135 67
136 392
137 219
138 10
151 19
153 77
154 81
155 55
181 15

$$$$

     RDKit          2D

 16 16  0  0  0  0  0  0  0  0999 V2000
   -9.0942   -0.7512    0.0000 C   0  0  0  0  0  0  0  0  0  0  0  0
    2.5987    3.0002    0.0000 C   0  0  0  0  0  0  0  0  0  0  0  0
    3.8981    0.7504    0.0000 C   0  0  0  0  0  0  0  0  0  0  0  0
   -7.7951   -1.5010    0.0000 C   0  0  0  0  0  0  0  0  0  0  0  0
   -6.4962   -0.7508    0.0000 C   0  0  0  0  0  0  0  0  0  0  0  0
   -1.3000    0.7500    0.0000 C   0  0  0  0  0  0  0  0  0  0  0  0
   -0.0000   -1.5000    0.0000 C   0  0  0  0  0  0  0  0  0  0  0  0
    0.0000    1.5000    0.0000 C   0  0  0  0  0  0  0  0  0  0  0  0
    1.3000   -0.7500    0.0000 C   0  0  0  0  0  0  0  0  0  0  0  0
   -2.5989   -1.5002    0.0000 C   0  0  0  0  0  0  0  0  0  0  0  0
    2.5989    1.5002    0.0000 C   0  0  0  0  0  0  0  0  0  0  0  0
   -1.3000   -0.7500    0.0000 C   0  0  0  0  0  0  0  0  0  0  0  0
    1.3000    0.7500    0.0000 C   0  0  0  0  0  0  0  0  0  0  0  0
   -5.1970   -1.5006    0.0000 C   0  0  0  0  0  0  0  0  0  0  0  0
   -5.1968   -3.0006    0.0000 O   0  0  0  0  0  0  0  0  0  0  0  0
   -3.8981   -0.7504    0.0000 O   0  0  0  0  0  0  0  0  0  0  0  0
  4  1  1  0
  5  4  1  0
  8  6  1  0
  9  7  1  0
 11  2  2  0
 11  3  1  0
 12  6  2  0
 12  7  1  0
 12 10  1  0
 13  8  1  0
 13  9  1  0
 13 11  1  0
 14  5  1  0
 15 14  2  0
 16 10  1  0
 16 14  1  0
M  END
>  <NAME>  (3610) 
PERILLYL BUTYRATE

>  <SYNONYMS>  (3610) 


>  <SPECTRUM TYPE>  (3610) 
MS1

>  <INSTRUMENT TYPE>  (3610) 
EI-B

>  <INSTRUMENT>  (3610) 
HITACHI M-80B

>  <ION MODE>  (3610) 
P

>  <INCHIKEY>  (3610) 
HAQGPJPCMFOGLO-UHFFFAOYSA-N

>  <FORMULA>  (3610) 
C14H22O2

>  <EXACT MASS>  (3610) 
222.161979944

>  <MW>  (3610) 
222

>  <ID>  (3610) 
JP006404

>  <CONTRIBUTOR>  (3610) 
University of Tokyo Team, {Faculty of Engineering, University of Tokyo

>  <COMMENT>  (3610) 
SMILES=CCCC(=O)OCC(C1)=CCC(C(C)=C)C1
InChI=InChI=1S/C14H22O2/c1-4-5-14(15)16-10-12-6-8-13(9-7-12)11(2)3/h6,13H,2,4-5,7-10H2,1,3H3
computed SMILES=O=C(OCC1=CCC(C(=C)C)CC1)CCC
accession=JP006404
date=2016.01.19 (Created 2008.10.21, modified 2011.05.06)
author=HISAHIRO HAGIWARA, CHEMICAL RESEARCH INSTITUTE OF NON-AQUEOUSSOLUTIONS TOHOKU UNIV.
license=CC BY-NC-SA
exact mass=222.16198
ionization energy=70 eV
ion type=[M]+*
computed spectral entropy=3.4476635223651892
computed normalized entropy=0.8115022674950978
SPLASH=splash10-0006-9300000000-f078313250e8556c7c51
submitter=submitter = University of Tokyo Team (Faculty of Engineering, University of Tokyo)
MoNA Rating=3.75

>  <NUM PEAKS>  (3610) 
70

>  <MASS SPECTRAL PEAKS>  (3610) 
14 1.08
26 1.25
27 23.84
28 3.21
29 9.21
31 1.46
39 24.06
40 5.49
41 55.05
42 6.62
43 89.41
44 2.5
45 1.78
51 4.26
52 2.33
53 20.16
54 2.63
55 15.52
56 2.44
57 1.94
60 1.26
63 1.32
65 8.82
66 6.3
67 27.67
68 53.09
69 5.91
70 1.65
71 99.99
72 3.25
77 18.24
78 9.78
79 39.43
80 8.69
81 8.99
82 1.45
83 3.33
84 3.65
89 3.34
91 71
92 64.71
93 51.48
94 6.09
95 2.28
96 1.3
103 1.67
104 1.66
105 34.39
106 43.51
107 9.34
108 4.81
109 11.39
110 1.57
115 1.49
117 3.92
118 1.4
119 67.46
120 6.84
121 2.36
123 1.33
124 1.12
133 4.76
134 53.02
135 9.75
136 1.59
137 1.32
151 1.72
152 21.16
153 2.52
222 2.65

>  <PREDICTED SPECTRUM>  (3610) 
25 3
26 68
27 281
28 15
29 183
37 8
38 43
39 358
40 188
41 578
42 229
43 820
44 121
45 33
50 84
51 217
52 146
53 338
54 194
55 340
56 142
57 73
59 23
60 156
61 15
62 40
63 139
64 63
65 331
66 235
67 472
68 590
69 276
70 148
71 999
72 262
73 29
74 33
76 16
77 491
78 272
79 676
80 355
81 349
82 153
83 73
84 58
87 1
88 21
89 158
90 63
91 936
92 733
93 708
94 168
95 136
96 79
97 12
99 43
101 20
102 4
103 113
104 71
105 530
106 604
107 400
108 278
109 342
110 134
115 152
117 54
119 794
120 157
121 62
124 11
132 37
133 177
134 775
135 387
136 134
137 58
151 12
152 552
153 64
154 112
179 64
222 125
223 18

$$$$

     RDKit          2D

 17 16  0  0  0  0  0  0  0  0999 V2000
    5.1962    8.2500    0.0000 C   0  0  0  0  0  0  0  0  0  0  0  0
  -14.2894    9.0000    0.0000 C   0  0  0  0  0  0  0  0  0  0  0  0
    3.8971    9.0000    0.0000 C   0  0  0  0  0  0  0  0  0  0  0  0
  -12.9904    8.2500    0.0000 C   0  0  0  0  0  0  0  0  0  0  0  0
    2.5981    8.2500    0.0000 C   0  0  0  0  0  0  0  0  0  0  0  0
    1.2990    9.0000    0.0000 C   0  0  0  0  0  0  0  0  0  0  0  0
    0.0000    8.2500    0.0000 C   0  0  0  0  0  0  0  0  0  0  0  0
   -1.2990    9.0000    0.0000 C   0  0  0  0  0  0  0  0  0  0  0  0
   -2.5981    8.2500    0.0000 C   0  0  0  0  0  0  0  0  0  0  0  0
   -3.8971    9.0000    0.0000 C   0  0  0  0  0  0  0  0  0  0  0  0
   -5.1962    8.2500    0.0000 C   0  0  0  0  0  0  0  0  0  0  0  0
   -6.4952    9.0000    0.0000 C   0  0  0  0  0  0  0  0  0  0  0  0
  -11.6913    9.0000    0.0000 C   0  0  0  0  0  0  0  0  0  0  0  0
   -7.7942    8.2500    0.0000 C   0  0  0  0  0  0  0  0  0  0  0  0
  -10.3923    8.2500    0.0000 C   0  0  0  0  0  0  0  0  0  0  0  0
  -10.3923    6.7500    0.0000 O   0  0  0  0  0  0  0  0  0  0  0  0
   -9.0933    9.0000    0.0000 O   0  0  0  0  0  0  0  0  0  0  0  0
  3  1  1  0
  4  2  1  0
  5  3  1  0
  6  5  1  0
  7  6  1  0
  8  7  1  0
  9  8  1  0
 10  9  1  0
 11 10  1  0
 12 11  1  0
 13  4  1  0
 14 12  1  0
 15 13  1  0
 16 15  2  0
 17 14  1  0
 17 15  1  0
M  END
>  <NAME>  (3611) 
UNDECYL BUTYRATE

>  <SYNONYMS>  (3611) 


>  <SPECTRUM TYPE>  (3611) 
MS1

>  <INSTRUMENT TYPE>  (3611) 
EI-B

>  <INSTRUMENT>  (3611) 
HITACHI M-80B

>  <ION MODE>  (3611) 
P

>  <INCHIKEY>  (3611) 
DPMDQRRFSVRUMR-UHFFFAOYSA-N

>  <FORMULA>  (3611) 
C15H30O2

>  <EXACT MASS>  (3611) 
242.2245802

>  <MW>  (3611) 
242

>  <ID>  (3611) 
JP006402

>  <CONTRIBUTOR>  (3611) 
University of Tokyo Team, {Faculty of Engineering, University of Tokyo

>  <COMMENT>  (3611) 
SMILES=CCCCCCCCCCCOC(=O)CCC
InChI=InChI=1S/C15H30O2/c1-3-5-6-7-8-9-10-11-12-14-17-15(16)13-4-2/h3-14H2,1-2H3
computed SMILES=O=C(OCCCCCCCCCCC)CCC
accession=JP006402
date=2016.01.19 (Created 2008.10.21, modified 2011.05.06)
author=HISAHIRO HAGIWARA, CHEMICAL RESEARCH INSTITUTE OF NON-AQUEOUSSOLUTIONS TOHOKU UNIV.
license=CC BY-NC-SA
exact mass=242.22458
ionization energy=70 eV
ion type=[M]+*
computed spectral entropy=3.1332609722827276
computed normalized entropy=0.8138028191155782
SPLASH=splash10-0596-9000000000-c3360e532db775ef7f9f
submitter=submitter = University of Tokyo Team (Faculty of Engineering, University of Tokyo)
MoNA Rating=3.75

>  <NUM PEAKS>  (3611) 
47

>  <MASS SPECTRAL PEAKS>  (3611) 
27 18.15
28 3.22
29 24.07
31 1.17
39 8.09
40 2
41 54.85
42 18.57
43 99.99
44 3.52
45 1.01
53 2.92
54 4.9
55 41.74
56 29.12
57 35.71
58 1.79
60 3.86
61 2.21
67 4.65
68 8.45
69 25.83
70 30.08
71 74.07
72 3.09
73 2.13
81 1.31
82 9.2
83 23.83
84 18.17
85 5.88
86 1.24
88 5.51
89 69.72
90 2.66
96 3.4
97 19.19
98 8.43
99 1.69
101 1.24
111 7.92
112 3.28
125 2.98
126 6.67
144 1.73
154 6.98
155 1.06

>  <PREDICTED SPECTRUM>  (3611) 
26 61
27 272
28 125
29 361
31 75
36 27
38 37
39 270
40 140
41 647
42 409
43 838
44 168
45 105
51 17
53 116
54 239
55 641
56 543
57 617
58 149
59 51
60 125
65 20
66 49
67 245
68 305
69 526
70 566
71 792
72 216
73 193
74 65
79 20
81 145
82 336
83 517
84 410
85 216
86 117
87 1
88 404
89 999
90 280
91 73
95 127
96 228
97 432
98 319
99 117
101 1
110 135
111 321
112 189
113 24
124 65
125 161
126 283
127 86
129 27
154 342
155 52
156 12
199 56

$$$$

     RDKit          2D

 16 15  0  0  0  0  0  0  0  0999 V2000
    4.5466    7.8750    0.0000 C   0  0  0  0  0  0  0  0  0  0  0  0
  -13.6399    7.8750    0.0000 C   0  0  0  0  0  0  0  0  0  0  0  0
    3.2476    8.6250    0.0000 C   0  0  0  0  0  0  0  0  0  0  0  0
  -12.3409    8.6250    0.0000 C   0  0  0  0  0  0  0  0  0  0  0  0
    1.9486    7.8750    0.0000 C   0  0  0  0  0  0  0  0  0  0  0  0
    0.6495    8.6250    0.0000 C   0  0  0  0  0  0  0  0  0  0  0  0
   -0.6495    7.8750    0.0000 C   0  0  0  0  0  0  0  0  0  0  0  0
   -1.9486    8.6250    0.0000 C   0  0  0  0  0  0  0  0  0  0  0  0
   -3.2476    7.8750    0.0000 C   0  0  0  0  0  0  0  0  0  0  0  0
   -4.5466    8.6250    0.0000 C   0  0  0  0  0  0  0  0  0  0  0  0
   -5.8457    7.8750    0.0000 C   0  0  0  0  0  0  0  0  0  0  0  0
  -11.0418    7.8750    0.0000 C   0  0  0  0  0  0  0  0  0  0  0  0
   -7.1447    8.6250    0.0000 C   0  0  0  0  0  0  0  0  0  0  0  0
   -9.7428    8.6250    0.0000 C   0  0  0  0  0  0  0  0  0  0  0  0
   -9.7428   10.1250    0.0000 O   0  0  0  0  0  0  0  0  0  0  0  0
   -8.4437    7.8750    0.0000 O   0  0  0  0  0  0  0  0  0  0  0  0
  3  1  1  0
  4  2  1  0
  5  3  1  0
  6  5  1  0
  7  6  1  0
  8  7  1  0
  9  8  1  0
 10  9  1  0
 11 10  1  0
 12  4  1  0
 13 11  1  0
 14 12  1  0
 15 14  2  0
 16 13  1  0
 16 14  1  0
M  END
>  <NAME>  (3612) 
DECYL BUTYRATE

>  <SYNONYMS>  (3612) 


>  <SPECTRUM TYPE>  (3612) 
MS1

>  <INSTRUMENT TYPE>  (3612) 
EI-B

>  <INSTRUMENT>  (3612) 
HITACHI M-80B

>  <ION MODE>  (3612) 
P

>  <INCHIKEY>  (3612) 
PUCQHFICPFUPKW-UHFFFAOYSA-N

>  <FORMULA>  (3612) 
C14H28O2

>  <EXACT MASS>  (3612) 
228.208930136

>  <MW>  (3612) 
228

>  <ID>  (3612) 
JP006401

>  <CONTRIBUTOR>  (3612) 
University of Tokyo Team, {Faculty of Engineering, University of Tokyo

>  <COMMENT>  (3612) 
SMILES=CCCCCCCCCCOC(=O)CCC
InChI=InChI=1S/C14H28O2/c1-3-5-6-7-8-9-10-11-13-16-14(15)12-4-2/h3-13H2,1-2H3
computed SMILES=O=C(OCCCCCCCCCC)CCC
accession=JP006401
date=2016.01.19 (Created 2008.10.21, modified 2011.05.06)
author=HISAHIRO HAGIWARA, CHEMICAL RESEARCH INSTITUTE OF NON-AQUEOUSSOLUTIONS TOHOKU UNIV.
license=CC BY-NC-SA
exact mass=228.20893
ionization energy=70 eV
ion type=[M]+*
computed spectral entropy=3.135332510948049
computed normalized entropy=0.8099120924265147
SPLASH=splash10-0596-9000000000-0df1e256ba0a8d996fad
submitter=submitter = University of Tokyo Team (Faculty of Engineering, University of Tokyo)
MoNA Rating=3.75

>  <NUM PEAKS>  (3612) 
48

>  <MASS SPECTRAL PEAKS>  (3612) 
16 1.25
27 18.98
28 4.9
29 24.42
31 1.2
39 8.37
40 1.51
41 51.3
42 20.46
43 99.99
44 3.25
45 1.15
53 2.27
54 4.96
55 37.52
56 34.52
57 30.39
58 2.08
60 3.87
61 2.35
67 3.69
68 7.17
69 24.83
70 34.39
71 76.41
72 3.28
73 2.15
81 1.39
82 7.92
83 23.65
84 17.29
85 6.99
86 1.22
88 5.32
89 66.35
90 2.66
96 2.45
97 14.57
98 8.67
99 1.38
101 1.5
110 1.26
111 7.74
112 9.33
113 1.01
140 10.38
141 1.26
144 1.9

>  <PREDICTED SPECTRUM>  (3612) 
26 61
27 282
28 127
29 369
31 92
36 29
38 39
39 279
40 142
41 665
42 426
43 868
44 181
45 84
51 9
53 114
54 235
55 652
56 569
57 615
58 137
59 57
60 162
61 51
65 4
66 38
67 242
68 304
69 528
70 599
71 824
72 218
73 175
74 19
79 39
81 145
82 324
83 507
84 422
85 183
86 105
87 17
88 361
89 999
90 252
95 115
96 218
97 419
98 297
99 84
110 134
111 300
112 276
113 105
114 14
115 53
125 123
126 71
140 359
141 55
142 13
185 53

$$$$

     RDKit          2D

 14 13  0  0  0  0  0  0  0  0999 V2000
    3.8971    6.7500    0.0000 C   0  0  0  0  0  0  0  0  0  0  0  0
  -11.6913    6.7500    0.0000 C   0  0  0  0  0  0  0  0  0  0  0  0
    2.5981    7.5000    0.0000 C   0  0  0  0  0  0  0  0  0  0  0  0
  -10.3923    7.5000    0.0000 C   0  0  0  0  0  0  0  0  0  0  0  0
    1.2990    6.7500    0.0000 C   0  0  0  0  0  0  0  0  0  0  0  0
    0.0000    7.5000    0.0000 C   0  0  0  0  0  0  0  0  0  0  0  0
   -1.2990    6.7500    0.0000 C   0  0  0  0  0  0  0  0  0  0  0  0
   -2.5981    7.5000    0.0000 C   0  0  0  0  0  0  0  0  0  0  0  0
   -3.8971    6.7500    0.0000 C   0  0  0  0  0  0  0  0  0  0  0  0
   -9.0933    6.7500    0.0000 C   0  0  0  0  0  0  0  0  0  0  0  0
   -5.1962    7.5000    0.0000 C   0  0  0  0  0  0  0  0  0  0  0  0
   -7.7942    7.5000    0.0000 C   0  0  0  0  0  0  0  0  0  0  0  0
   -7.7942    9.0000    0.0000 O   0  0  0  0  0  0  0  0  0  0  0  0
   -6.4952    6.7500    0.0000 O   0  0  0  0  0  0  0  0  0  0  0  0
  3  1  1  0
  4  2  1  0
  5  3  1  0
  6  5  1  0
  7  6  1  0
  8  7  1  0
  9  8  1  0
 10  4  1  0
 11  9  1  0
 12 10  1  0
 13 12  2  0
 14 11  1  0
 14 12  1  0
M  END
>  <NAME>  (3613) 
OCTYL BUTYRATE

>  <SYNONYMS>  (3613) 


>  <SPECTRUM TYPE>  (3613) 
MS1

>  <INSTRUMENT TYPE>  (3613) 
EI-B

>  <INSTRUMENT>  (3613) 
HITACHI M-80B

>  <ION MODE>  (3613) 
P

>  <INCHIKEY>  (3613) 
PWLNAUNEAKQYLH-UHFFFAOYSA-N

>  <FORMULA>  (3613) 
C12H24O2

>  <EXACT MASS>  (3613) 
200.177630008

>  <MW>  (3613) 
200

>  <ID>  (3613) 
JP006400

>  <CONTRIBUTOR>  (3613) 
University of Tokyo Team, {Faculty of Engineering, University of Tokyo

>  <COMMENT>  (3613) 
SMILES=CCCCCCCCOC(=O)CCC
InChI=InChI=1S/C12H24O2/c1-3-5-6-7-8-9-11-14-12(13)10-4-2/h3-11H2,1-2H3
computed SMILES=O=C(OCCCCCCCC)CCC
accession=JP006400
date=2016.01.19 (Created 2008.10.21, modified 2011.05.06)
author=HISAHIRO HAGIWARA, CHEMICAL RESEARCH INSTITUTE OF NON-AQUEOUSSOLUTIONS TOHOKU UNIV.
license=CC BY-NC-SA
exact mass=200.17763
ionization energy=70 eV
ion type=[M]+*
computed spectral entropy=2.9698325225079296
computed normalized entropy=0.8050771404839194
SPLASH=splash10-0596-9000000000-af458bf758cc1f14e6a1
submitter=submitter = University of Tokyo Team (Faculty of Engineering, University of Tokyo)
MoNA Rating=3.75

>  <NUM PEAKS>  (3613) 
40

>  <MASS SPECTRAL PEAKS>  (3613) 
15 1.05
26 1.1
27 26.74
28 7.76
29 27.75
31 1.67
39 11.61
40 2.52
41 56.35
42 24.34
43 99.99
44 3.77
45 1.31
53 1.9
54 2.88
55 32.18
56 36.86
57 29.37
58 1.68
60 5.82
61 2.96
67 2.28
68 5.67
69 22.75
70 40.69
71 86.44
72 2.86
73 3.1
82 5.16
83 24.8
84 21.92
85 1.48
88 5.14
89 63.64
90 2.67
97 2.35
101 1.74
112 19.35
113 1.18
129 1.05

>  <PREDICTED SPECTRUM>  (3613) 
26 68
27 331
28 154
29 400
31 113
36 15
38 27
39 306
40 148
41 706
42 479
43 949
44 187
45 55
51 5
53 105
54 207
55 646
56 657
57 606
58 130
59 20
60 222
61 176
66 16
67 200
68 289
69 507
70 740
71 902
72 236
73 171
81 97
82 254
83 398
84 428
85 201
86 80
87 114
88 364
89 999
90 267
95 64
96 178
97 296
98 48
101 32
110 49
111 100
112 386
113 110
114 56
115 17
117 41
129 37
157 69

$$$$

     RDKit          2D

 11 10  0  0  0  0  0  0  0  0999 V2000
   -5.5209    5.0625    0.0000 C   0  0  0  0  0  0  0  0  0  0  0  0
   -2.9228    2.0625    0.0000 C   0  0  0  0  0  0  0  0  0  0  0  0
    3.5724    4.3125    0.0000 C   0  0  0  0  0  0  0  0  0  0  0  0
   -4.2219    4.3125    0.0000 C   0  0  0  0  0  0  0  0  0  0  0  0
   -1.6238    2.8125    0.0000 C   0  0  0  0  0  0  0  0  0  0  0  0
    2.2733    5.0625    0.0000 C   0  0  0  0  0  0  0  0  0  0  0  0
   -2.9228    5.0625    0.0000 C   0  0  0  0  0  0  0  0  0  0  0  0
   -1.6238    4.3125    0.0000 C   0  0  0  0  0  0  0  0  0  0  0  0
    0.9743    4.3125    0.0000 C   0  0  0  0  0  0  0  0  0  0  0  0
    0.9743    2.8125    0.0000 O   0  0  0  0  0  0  0  0  0  0  0  0
   -0.3248    5.0625    0.0000 O   0  0  0  0  0  0  0  0  0  0  0  0
  4  1  1  0
  5  2  1  0
  6  3  1  0
  7  4  1  0
  8  5  1  0
  8  7  1  0
  9  6  1  0
 10  9  2  0
 11  8  1  0
 11  9  1  0
M  END
>  <NAME>  (3614) 
3-HEXYL PROPIONATE

>  <SYNONYMS>  (3614) 
1-ETHYLBUTYL PROPIONATE

>  <SPECTRUM TYPE>  (3614) 
MS1

>  <INSTRUMENT TYPE>  (3614) 
EI-B

>  <INSTRUMENT>  (3614) 
HITACHI M-80B

>  <ION MODE>  (3614) 
P

>  <INCHIKEY>  (3614) 
GYZCKXAOGZSSCT-UHFFFAOYSA-N

>  <FORMULA>  (3614) 
C9H18O2

>  <EXACT MASS>  (3614) 
158.130679816

>  <MW>  (3614) 
158

>  <ID>  (3614) 
JP006399

>  <CONTRIBUTOR>  (3614) 
University of Tokyo Team, {Faculty of Engineering, University of Tokyo

>  <COMMENT>  (3614) 
SMILES=CCCC(CC)OC(=O)CC
InChI=InChI=1S/C9H18O2/c1-4-7-8(5-2)11-9(10)6-3/h8H,4-7H2,1-3H3
computed SMILES=O=C(OC(CC)CCC)CC
accession=JP006399
date=2016.01.19 (Created 2008.10.21, modified 2011.05.06)
author=HISAHIRO HAGIWARA, CHEMICAL RESEARCH INSTITUTE OF NON-AQUEOUSSOLUTIONS TOHOKU UNIV.
license=CC BY-NC-SA
exact mass=158.13068
ionization energy=70 eV
ion type=[M]+*
computed spectral entropy=2.17211191042236
computed normalized entropy=0.7134491385278086
SPLASH=splash10-0a4i-9000000000-76336a6cc5a31dc3ccab
submitter=submitter = University of Tokyo Team (Faculty of Engineering, University of Tokyo)
MoNA Rating=3.75

>  <NUM PEAKS>  (3614) 
21

>  <MASS SPECTRAL PEAKS>  (3614) 
27 9.02
28 4.57
29 23.84
31 1.26
39 3.17
41 8.64
42 3.85
43 15.92
44 1.46
55 6.8
56 6.52
57 99.99
58 3.8
59 1.2
69 2.99
71 1.94
75 3.08
84 7.24
85 5.65
115 6.72
129 4.29

>  <PREDICTED SPECTRUM>  (3614) 
15 14
26 75
27 305
28 140
29 484
30 89
31 106
39 240
40 89
41 478
42 291
43 441
44 66
45 87
52 5
53 53
54 73
55 390
56 426
57 999
58 268
59 213
60 34
67 16
69 253
72 66
73 314
74 53
75 124
84 260
85 302
86 90
87 74
101 216
102 1
103 18
115 195
129 279

$$$$

     RDKit          2D

 11 10  0  0  0  0  0  0  0  0999 V2000
   -8.4437    5.6250    0.0000 C   0  0  0  0  0  0  0  0  0  0  0  0
    3.2476    4.8750    0.0000 C   0  0  0  0  0  0  0  0  0  0  0  0
   -7.1447    4.8750    0.0000 C   0  0  0  0  0  0  0  0  0  0  0  0
    1.9486    5.6250    0.0000 C   0  0  0  0  0  0  0  0  0  0  0  0
   -5.8457    5.6250    0.0000 C   0  0  0  0  0  0  0  0  0  0  0  0
   -4.5466    4.8750    0.0000 C   0  0  0  0  0  0  0  0  0  0  0  0
   -3.2476    5.6250    0.0000 C   0  0  0  0  0  0  0  0  0  0  0  0
   -1.9486    4.8750    0.0000 C   0  0  0  0  0  0  0  0  0  0  0  0
    0.6495    4.8750    0.0000 C   0  0  0  0  0  0  0  0  0  0  0  0
    0.6495    3.3750    0.0000 O   0  0  0  0  0  0  0  0  0  0  0  0
   -0.6495    5.6250    0.0000 O   0  0  0  0  0  0  0  0  0  0  0  0
  3  1  1  0
  4  2  1  0
  5  3  1  0
  6  5  1  0
  7  6  1  0
  8  7  1  0
  9  4  1  0
 10  9  2  0
 11  8  1  0
 11  9  1  0
M  END
>  <NAME>  (3615) 
HEXYL PROPIONATE

>  <SYNONYMS>  (3615) 


>  <SPECTRUM TYPE>  (3615) 
MS1

>  <INSTRUMENT TYPE>  (3615) 
EI-B

>  <INSTRUMENT>  (3615) 
HITACHI M-80B

>  <ION MODE>  (3615) 
P

>  <INCHIKEY>  (3615) 
GOKKOFHHJFGZHW-UHFFFAOYSA-N

>  <FORMULA>  (3615) 
C9H18O2

>  <EXACT MASS>  (3615) 
158.130679816

>  <MW>  (3615) 
158

>  <ID>  (3615) 
JP006398

>  <CONTRIBUTOR>  (3615) 
University of Tokyo Team, {Faculty of Engineering, University of Tokyo

>  <COMMENT>  (3615) 
SMILES=CCCCCCOC(=O)CC
InChI=InChI=1S/C9H18O2/c1-3-5-6-7-8-11-9(10)4-2/h3-8H2,1-2H3
computed SMILES=O=C(OCCCCCC)CC
accession=JP006398
date=2016.01.19 (Created 2008.10.21, modified 2011.05.06)
author=HISAHIRO HAGIWARA, CHEMICAL RESEARCH INSTITUTE OF NON-AQUEOUSSOLUTIONS TOHOKU UNIV.
license=CC BY-NC-SA
exact mass=158.13068
ionization energy=70 eV
ion type=[M]+*
computed spectral entropy=2.6191002282278086
computed normalized entropy=0.785996243696969
SPLASH=splash10-0a6u-9000000000-1dbab7526fdc13ab4997
submitter=submitter = University of Tokyo Team (Faculty of Engineering, University of Tokyo)
MoNA Rating=3.75

>  <NUM PEAKS>  (3615) 
28

>  <MASS SPECTRAL PEAKS>  (3615) 
26 1.85
27 24.64
28 7.97
29 55.23
30 1.26
31 2.61
39 8.35
40 1.64
41 25.1
42 20.75
43 42.69
44 1.81
53 1.47
54 1.75
55 22.4
56 46.7
57 99.99
58 3.12
69 14.86
72 1.38
74 1.94
75 42.92
76 1.41
83 3.15
84 27.22
85 3.47
87 4.78
99 1.28

>  <PREDICTED SPECTRUM>  (3615) 
26 26
27 163
28 73
29 387
30 5
31 96
33 29
39 166
40 119
41 548
42 348
43 446
44 132
46 3
53 114
54 116
55 462
56 805
57 999
58 172
59 45
67 90
68 200
69 334
70 266
72 5
73 75
74 35
75 456
81 16
82 1
83 223
84 459
85 271
86 6
87 62
97 20
103 76
129 25
158 25
159 7

$$$$

     RDKit          2D

 11 10  0  0  0  0  0  0  0  0999 V2000
   -4.2219    3.1875    0.0000 C   0  0  0  0  0  0  0  0  0  0  0  0
    6.1704    6.1875    0.0000 C   0  0  0  0  0  0  0  0  0  0  0  0
   -2.9228    3.9375    0.0000 C   0  0  0  0  0  0  0  0  0  0  0  0
    4.8714    5.4375    0.0000 C   0  0  0  0  0  0  0  0  0  0  0  0
   -2.9228    5.4375    0.0000 C   0  0  0  0  0  0  0  0  0  0  0  0
   -1.6238    6.1875    0.0000 C   0  0  0  0  0  0  0  0  0  0  0  0
   -0.3248    5.4375    0.0000 C   0  0  0  0  0  0  0  0  0  0  0  0
    0.9743    6.1875    0.0000 C   0  0  0  0  0  0  0  0  0  0  0  0
    3.5724    6.1875    0.0000 C   0  0  0  0  0  0  0  0  0  0  0  0
    3.5724    7.6875    0.0000 O   0  0  0  0  0  0  0  0  0  0  0  0
    2.2733    5.4375    0.0000 O   0  0  0  0  0  0  0  0  0  0  0  0
  3  1  1  0
  4  2  1  0
  5  3  1  0
  5  6  2  0
  7  6  1  0
  8  7  1  0
  9  4  1  0
 10  9  2  0
 11  8  1  0
 11  9  1  0
M  END
>  <NAME>  (3616) 
CIS-3-HEXENYL PROPIONATE

>  <SYNONYMS>  (3616) 


>  <SPECTRUM TYPE>  (3616) 
MS1

>  <INSTRUMENT TYPE>  (3616) 
EI-B

>  <INSTRUMENT>  (3616) 
HITACHI M-80B

>  <ION MODE>  (3616) 
P

>  <INCHIKEY>  (3616) 
LGTLDEUQCOJGFP-WAYWQWQTSA-N

>  <FORMULA>  (3616) 
C9H16O2

>  <EXACT MASS>  (3616) 
156.115029752

>  <MW>  (3616) 
156

>  <ID>  (3616) 
JP006397

>  <CONTRIBUTOR>  (3616) 
University of Tokyo Team, {Faculty of Engineering, University of Tokyo

>  <COMMENT>  (3616) 
SMILES=CCC=CCCOC(=O)CC
InChI=InChI=1S/C9H16O2/c1-3-5-6-7-8-11-9(10)4-2/h5-6H,3-4,7-8H2,1-2H3/b6-5-
computed SMILES=O=C(OCCC=CCC)CC
accession=JP006397
date=2016.01.19 (Created 2008.10.21, modified 2011.05.06)
author=HISAHIRO HAGIWARA, CHEMICAL RESEARCH INSTITUTE OF NON-AQUEOUSSOLUTIONS TOHOKU UNIV.
license=CC BY-NC-SA
exact mass=156.11503
ionization energy=70 eV
ion type=[M]+*
computed spectral entropy=2.326336811067222
computed normalized entropy=0.714017152014752
SPLASH=splash10-0arr-9000000000-113566c588d8678c8221
submitter=submitter = University of Tokyo Team (Faculty of Engineering, University of Tokyo)
MoNA Rating=3.75

>  <NUM PEAKS>  (3616) 
26

>  <MASS SPECTRAL PEAKS>  (3616) 
26 1.67
27 18.94
28 3.6
29 46.47
30 1.09
31 1.87
39 13.21
40 1.54
41 21.27
42 2.86
43 1.37
51 1.31
53 5.13
54 8.97
55 11.56
56 1.44
57 99.99
58 2.93
65 1.28
67 79.76
68 5.33
69 1.34
81 5.78
82 67.99
83 6.07
87 1.35

>  <PREDICTED SPECTRUM>  (3616) 
25 7
26 115
27 332
28 156
29 471
30 104
31 134
32 2
33 5
37 30
38 71
39 387
40 187
41 591
42 226
43 297
44 135
45 12
50 78
51 92
52 101
53 280
54 344
55 356
56 207
57 669
58 108
59 1
60 18
63 52
65 149
66 153
67 916
68 295
69 37
70 53
71 0
72 17
73 4
75 107
76 33
77 17
78 12
79 144
81 353
82 999
83 256
84 24

$$$$

     RDKit          2D

 10  9  0  0  0  0  0  0  0  0999 V2000
   -7.4695    3.9375    0.0000 C   0  0  0  0  0  0  0  0  0  0  0  0
    1.6238    3.1875    0.0000 C   0  0  0  0  0  0  0  0  0  0  0  0
    0.3248    5.4375    0.0000 C   0  0  0  0  0  0  0  0  0  0  0  0
   -6.1704    3.1875    0.0000 C   0  0  0  0  0  0  0  0  0  0  0  0
   -0.9743    3.1875    0.0000 C   0  0  0  0  0  0  0  0  0  0  0  0
   -2.2733    3.9375    0.0000 C   0  0  0  0  0  0  0  0  0  0  0  0
    0.3248    3.9375    0.0000 C   0  0  0  0  0  0  0  0  0  0  0  0
   -4.8714    3.9375    0.0000 C   0  0  0  0  0  0  0  0  0  0  0  0
   -4.8714    5.4375    0.0000 O   0  0  0  0  0  0  0  0  0  0  0  0
   -3.5724    3.1875    0.0000 O   0  0  0  0  0  0  0  0  0  0  0  0
  4  1  1  0
  6  5  1  0
  7  2  1  0
  7  3  1  0
  7  5  1  0
  8  4  1  0
  9  8  2  0
 10  6  1  0
 10  8  1  0
M  END
>  <NAME>  (3617) 
ISOAMYL PROPIONATE

>  <SYNONYMS>  (3617) 
ISOPENTYL PROPIONATE

>  <SPECTRUM TYPE>  (3617) 
MS1

>  <INSTRUMENT TYPE>  (3617) 
EI-B

>  <INSTRUMENT>  (3617) 
HITACHI M-80B

>  <ION MODE>  (3617) 
P

>  <INCHIKEY>  (3617) 
XAOGXQMKWQFZEM-UHFFFAOYSA-N

>  <FORMULA>  (3617) 
C8H16O2

>  <EXACT MASS>  (3617) 
144.115029752

>  <MW>  (3617) 
144

>  <ID>  (3617) 
JP006396

>  <CONTRIBUTOR>  (3617) 
University of Tokyo Team, {Faculty of Engineering, University of Tokyo

>  <COMMENT>  (3617) 
SMILES=CCC(=O)OCCC(C)C
InChI=InChI=1S/C8H16O2/c1-4-8(9)10-6-5-7(2)3/h7H,4-6H2,1-3H3
computed SMILES=O=C(OCCC(C)C)CC
accession=JP006396
date=2016.01.19 (Created 2008.10.21, modified 2011.05.06)
author=HISAHIRO HAGIWARA, CHEMICAL RESEARCH INSTITUTE OF NON-AQUEOUSSOLUTIONS TOHOKU UNIV.
license=CC BY-NC-SA
exact mass=144.11503
ionization energy=70 eV
ion type=[M]+*
computed spectral entropy=2.5645260911665733
computed normalized entropy=0.7615980955189419
SPLASH=splash10-0adi-9000000000-d33d7fd534a8c6063d88
submitter=submitter = University of Tokyo Team (Faculty of Engineering, University of Tokyo)
MoNA Rating=3.75

>  <NUM PEAKS>  (3617) 
29

>  <MASS SPECTRAL PEAKS>  (3617) 
15 1.29
26 2.06
27 21.77
28 7.65
29 44.71
30 1.11
31 2.46
39 9.49
40 1.3
41 19.1
42 15.3
43 34.04
44 1.46
45 1.83
53 1.5
54 1.17
55 40.71
56 4.49
57 99.99
58 3.66
69 6.12
70 69.45
71 10.25
74 1.64
75 15.99
85 1.75
87 5.33
101 6.18
115 1.08

>  <PREDICTED SPECTRUM>  (3617) 
14 12
15 1
25 8
26 101
27 356
28 160
29 482
30 81
31 184
36 16
37 7
38 38
39 265
40 110
41 563
42 347
43 645
44 83
45 38
46 40
47 49
50 57
51 97
52 70
53 152
54 87
55 515
56 546
57 923
58 172
69 221
70 999
71 671
72 230
73 256
74 140
75 191
87 51
88 140
89 271
90 40
101 19

$$$$

     RDKit          2D

 10  9  0  0  0  0  0  0  0  0999 V2000
    2.5981    4.5000    0.0000 C   0  0  0  0  0  0  0  0  0  0  0  0
   -7.7942    4.5000    0.0000 C   0  0  0  0  0  0  0  0  0  0  0  0
    1.2990    5.2500    0.0000 C   0  0  0  0  0  0  0  0  0  0  0  0
   -6.4952    5.2500    0.0000 C   0  0  0  0  0  0  0  0  0  0  0  0
    0.0000    4.5000    0.0000 C   0  0  0  0  0  0  0  0  0  0  0  0
   -1.2990    5.2500    0.0000 C   0  0  0  0  0  0  0  0  0  0  0  0
   -2.5981    4.5000    0.0000 C   0  0  0  0  0  0  0  0  0  0  0  0
   -5.1962    4.5000    0.0000 C   0  0  0  0  0  0  0  0  0  0  0  0
   -5.1962    3.0000    0.0000 O   0  0  0  0  0  0  0  0  0  0  0  0
   -3.8971    5.2500    0.0000 O   0  0  0  0  0  0  0  0  0  0  0  0
  3  1  1  0
  4  2  1  0
  5  3  1  0
  6  5  1  0
  7  6  1  0
  8  4  1  0
  9  8  2  0
 10  7  1  0
 10  8  1  0
M  END
>  <NAME>  (3618) 
AMYL PROPIONATE

>  <SYNONYMS>  (3618) 
PENTYL PROPIONATE

>  <SPECTRUM TYPE>  (3618) 
MS1

>  <INSTRUMENT TYPE>  (3618) 
EI-B

>  <INSTRUMENT>  (3618) 
HITACHI M-80B

>  <ION MODE>  (3618) 
P

>  <INCHIKEY>  (3618) 
TWSRVQVEYJNFKQ-UHFFFAOYSA-N

>  <FORMULA>  (3618) 
C8H16O2

>  <EXACT MASS>  (3618) 
144.115029752

>  <MW>  (3618) 
144

>  <ID>  (3618) 
JP006395

>  <CONTRIBUTOR>  (3618) 
University of Tokyo Team, {Faculty of Engineering, University of Tokyo

>  <COMMENT>  (3618) 
SMILES=CCCCCOC(=O)CC
InChI=InChI=1S/C8H16O2/c1-3-5-6-7-10-8(9)4-2/h3-7H2,1-2H3
computed SMILES=O=C(OCCCCC)CC
accession=JP006395
date=2016.01.19 (Created 2008.10.21, modified 2011.05.06)
author=HISAHIRO HAGIWARA, CHEMICAL RESEARCH INSTITUTE OF NON-AQUEOUSSOLUTIONS TOHOKU UNIV.
license=CC BY-NC-SA
exact mass=144.11503
ionization energy=70 eV
ion type=[M]+*
computed spectral entropy=2.5260433754912506
computed normalized entropy=0.7753126238012642
SPLASH=splash10-0a6u-9000000000-11533b789e166ead320a
submitter=submitter = University of Tokyo Team (Faculty of Engineering, University of Tokyo)
MoNA Rating=3.75

>  <NUM PEAKS>  (3618) 
26

>  <MASS SPECTRAL PEAKS>  (3618) 
26 2
27 23.01
28 8.14
29 53.27
30 1.46
31 2.75
39 8.2
40 1.51
41 18.76
42 24.75
43 28.54
44 1.15
55 20.44
56 2.83
57 99.99
58 3.14
69 6.04
70 41.49
71 5.84
72 1.59
74 2.46
75 38.96
76 1.16
85 1.69
87 6.93
115 1.12

>  <PREDICTED SPECTRUM>  (3618) 
14 5
25 0
26 66
27 249
28 112
29 470
30 6
31 171
39 156
40 80
41 496
42 408
43 448
44 184
45 45
46 0
50 33
51 0
53 71
54 69
55 350
56 569
57 999
58 256
69 158
70 658
71 442
72 74
73 114
74 130
75 353
89 137
115 67
144 64
145 41

$$$$

     RDKit          2D

  9  8  0  0  0  0  0  0  0  0999 V2000
    1.5368    3.1373    0.0000 C   0  0  0  0  0  0  0  0  0  0  0  0
   -4.4094    4.4363    0.0000 C   0  0  0  0  0  0  0  0  0  0  0  0
   -4.9584    2.3873    0.0000 C   0  0  0  0  0  0  0  0  0  0  0  0
   -2.9094    1.8382    0.0000 C   0  0  0  0  0  0  0  0  0  0  0  0
    0.2377    3.8873    0.0000 C   0  0  0  0  0  0  0  0  0  0  0  0
   -1.0613    3.1373    0.0000 C   0  0  0  0  0  0  0  0  0  0  0  0
   -3.6594    3.1373    0.0000 C   0  0  0  0  0  0  0  0  0  0  0  0
   -1.0613    1.6373    0.0000 O   0  0  0  0  0  0  0  0  0  0  0  0
   -2.3603    3.8873    0.0000 O   0  0  0  0  0  0  0  0  0  0  0  0
  5  1  1  0
  6  5  1  0
  7  2  1  0
  7  3  1  0
  7  4  1  0
  8  6  2  0
  9  6  1  0
  9  7  1  0
M  END
>  <NAME>  (3619) 
TERT-BUTYL PROPIONATE

>  <SYNONYMS>  (3619) 


>  <SPECTRUM TYPE>  (3619) 
MS1

>  <INSTRUMENT TYPE>  (3619) 
EI-B

>  <INSTRUMENT>  (3619) 
HITACHI M-80B

>  <ION MODE>  (3619) 
P

>  <INCHIKEY>  (3619) 
JAELLLITIZHOGQ-UHFFFAOYSA-N

>  <FORMULA>  (3619) 
C7H14O2

>  <EXACT MASS>  (3619) 
130.099379688

>  <MW>  (3619) 
130

>  <ID>  (3619) 
JP006394

>  <CONTRIBUTOR>  (3619) 
University of Tokyo Team, {Faculty of Engineering, University of Tokyo

>  <COMMENT>  (3619) 
SMILES=CCC(=O)OC(C)(C)C
InChI=InChI=1S/C7H14O2/c1-5-6(8)9-7(2,3)4/h5H2,1-4H3
computed SMILES=O=C(OC(C)(C)C)CC
accession=JP006394
date=2016.01.19 (Created 2008.10.21, modified 2011.05.06)
author=HISAHIRO HAGIWARA, CHEMICAL RESEARCH INSTITUTE OF NON-AQUEOUSSOLUTIONS TOHOKU UNIV.
license=CC BY-NC-SA
exact mass=130.09938
ionization energy=70 eV
ion type=[M]+*
computed spectral entropy=2.0252323061899506
computed normalized entropy=0.6760391521193293
SPLASH=splash10-0a4i-9000000000-bb978c0b4f7eebf07aa0
submitter=submitter = University of Tokyo Team (Faculty of Engineering, University of Tokyo)
MoNA Rating=3.75

>  <NUM PEAKS>  (3619) 
20

>  <MASS SPECTRAL PEAKS>  (3619) 
15 1.45
26 1.78
27 8.77
29 26.04
31 6.72
32 1.84
39 3.28
41 14.16
42 1.7
43 4.67
45 3.69
46 1.2
55 1.7
56 11.91
57 99.99
58 3.82
59 3.3
75 4.6
102 1.35
115 8.41

>  <PREDICTED SPECTRUM>  (3619) 
14 22
15 80
25 11
26 68
27 167
28 69
29 384
30 64
31 119
37 13
38 57
39 220
40 124
41 548
42 188
43 252
44 117
45 112
47 2
49 45
50 26
53 38
54 6
55 105
56 337
57 999
58 186
59 292
71 5
73 30
74 162
75 175
76 2
115 42
116 2

$$$$

     RDKit          2D

  9  8  0  0  0  0  0  0  0  0999 V2000
    1.9486    3.3750    0.0000 C   0  0  0  0  0  0  0  0  0  0  0  0
   -5.8457    3.3750    0.0000 C   0  0  0  0  0  0  0  0  0  0  0  0
   -4.5466    5.6250    0.0000 C   0  0  0  0  0  0  0  0  0  0  0  0
    0.6495    4.1250    0.0000 C   0  0  0  0  0  0  0  0  0  0  0  0
   -3.2476    3.3750    0.0000 C   0  0  0  0  0  0  0  0  0  0  0  0
   -4.5466    4.1250    0.0000 C   0  0  0  0  0  0  0  0  0  0  0  0
   -0.6495    3.3750    0.0000 C   0  0  0  0  0  0  0  0  0  0  0  0
   -0.6495    1.8750    0.0000 O   0  0  0  0  0  0  0  0  0  0  0  0
   -1.9486    4.1250    0.0000 O   0  0  0  0  0  0  0  0  0  0  0  0
  4  1  1  0
  6  2  1  0
  6  3  1  0
  6  5  1  0
  7  4  1  0
  8  7  2  0
  9  5  1  0
  9  7  1  0
M  END
>  <NAME>  (3620) 
ISOBUTYL PROPIONATE

>  <SYNONYMS>  (3620) 


>  <SPECTRUM TYPE>  (3620) 
MS1

>  <INSTRUMENT TYPE>  (3620) 
EI-B

>  <INSTRUMENT>  (3620) 
HITACHI M-80B

>  <ION MODE>  (3620) 
P

>  <INCHIKEY>  (3620) 
FZXRXKLUIMKDEL-UHFFFAOYSA-N

>  <FORMULA>  (3620) 
C7H14O2

>  <EXACT MASS>  (3620) 
130.099379688

>  <MW>  (3620) 
130

>  <ID>  (3620) 
JP006393

>  <CONTRIBUTOR>  (3620) 
University of Tokyo Team, {Faculty of Engineering, University of Tokyo

>  <COMMENT>  (3620) 
SMILES=CCC(=O)OCC(C)C
InChI=InChI=1S/C7H14O2/c1-4-7(8)9-5-6(2)3/h6H,4-5H2,1-3H3
computed SMILES=O=C(OCC(C)C)CC
accession=JP006393
date=2016.01.19 (Created 2008.10.21, modified 2011.05.06)
author=HISAHIRO HAGIWARA, CHEMICAL RESEARCH INSTITUTE OF NON-AQUEOUSSOLUTIONS TOHOKU UNIV.
license=CC BY-NC-SA
exact mass=130.09938
ionization energy=70 eV
ion type=[M]+*
computed spectral entropy=1.9615393482412307
computed normalized entropy=0.6786460402135227
SPLASH=splash10-0a4i-9000000000-3034700b4ba8624cd760
submitter=submitter = University of Tokyo Team (Faculty of Engineering, University of Tokyo)
MoNA Rating=3.75

>  <NUM PEAKS>  (3620) 
18

>  <MASS SPECTRAL PEAKS>  (3620) 
26 1.56
27 10.05
29 27.64
30 1.35
31 2.32
39 4.32
41 11.87
42 2.05
43 3.74
55 1.92
56 29.3
57 99.99
58 3.55
71 2.61
73 2.31
74 1.5
75 6.66
87 8.94

>  <PREDICTED SPECTRUM>  (3620) 
14 8
15 19
25 15
26 101
27 258
28 151
29 513
30 114
31 168
38 12
39 161
40 75
41 488
42 160
43 216
44 83
45 53
49 20
50 10
52 9
53 49
54 13
55 150
56 499
57 999
58 220
59 126
60 31
73 170
74 136
75 292
76 42
87 2
101 39

$$$$

     RDKit          2D

  9  8  0  0  0  0  0  0  0  0999 V2000
   -6.4952    4.5000    0.0000 C   0  0  0  0  0  0  0  0  0  0  0  0
    2.5981    3.7500    0.0000 C   0  0  0  0  0  0  0  0  0  0  0  0
   -5.1962    3.7500    0.0000 C   0  0  0  0  0  0  0  0  0  0  0  0
    1.2990    4.5000    0.0000 C   0  0  0  0  0  0  0  0  0  0  0  0
   -3.8971    4.5000    0.0000 C   0  0  0  0  0  0  0  0  0  0  0  0
   -2.5981    3.7500    0.0000 C   0  0  0  0  0  0  0  0  0  0  0  0
    0.0000    3.7500    0.0000 C   0  0  0  0  0  0  0  0  0  0  0  0
   -0.0000    2.2500    0.0000 O   0  0  0  0  0  0  0  0  0  0  0  0
   -1.2990    4.5000    0.0000 O   0  0  0  0  0  0  0  0  0  0  0  0
  3  1  1  0
  4  2  1  0
  5  3  1  0
  6  5  1  0
  7  4  1  0
  8  7  2  0
  9  6  1  0
  9  7  1  0
M  END
>  <NAME>  (3621) 
BUTYL PROPIONATE

>  <SYNONYMS>  (3621) 


>  <SPECTRUM TYPE>  (3621) 
MS1

>  <INSTRUMENT TYPE>  (3621) 
EI-B

>  <INSTRUMENT>  (3621) 
HITACHI M-80B

>  <ION MODE>  (3621) 
P

>  <INCHIKEY>  (3621) 
BTMVHUNTONAYDX-UHFFFAOYSA-N

>  <FORMULA>  (3621) 
C7H14O2

>  <EXACT MASS>  (3621) 
130.099379688

>  <MW>  (3621) 
130

>  <ID>  (3621) 
JP006392

>  <CONTRIBUTOR>  (3621) 
University of Tokyo Team, {Faculty of Engineering, University of Tokyo

>  <COMMENT>  (3621) 
SMILES=CCCCOC(=O)CC
InChI=InChI=1S/C7H14O2/c1-3-5-6-9-7(8)4-2/h3-6H2,1-2H3
computed SMILES=O=C(OCCCC)CC
accession=JP006392
date=2016.01.19 (Created 2008.10.21, modified 2011.05.06)
author=HISAHIRO HAGIWARA, CHEMICAL RESEARCH INSTITUTE OF NON-AQUEOUSSOLUTIONS TOHOKU UNIV.
license=CC BY-NC-SA
exact mass=130.09938
ionization energy=70 eV
ion type=[M]+*
computed spectral entropy=2.2491460468364153
computed normalized entropy=0.7387516738152997
SPLASH=splash10-0a6r-9000000000-37f42e865be80a64a749
submitter=submitter = University of Tokyo Team (Faculty of Engineering, University of Tokyo)
MoNA Rating=3.75

>  <NUM PEAKS>  (3621) 
21

>  <MASS SPECTRAL PEAKS>  (3621) 
15 1.3
26 3.61
27 24.44
28 11.31
29 58.81
30 1.48
31 3.71
39 6.59
40 1.04
41 21.81
42 2.5
43 3.58
55 7.15
56 37.02
57 99.99
58 3.56
71 2.35
73 1.38
74 2.68
75 26.22
87 6.38

>  <PREDICTED SPECTRUM>  (3621) 
14 19
15 42
19 10
25 28
26 152
27 396
28 222
29 706
30 173
31 245
38 39
39 227
40 103
41 646
42 165
43 177
44 69
45 105
49 29
53 92
54 79
55 276
56 709
57 999
58 224
59 133
60 10
73 109
74 129
75 366
101 54
130 58
131 19

$$$$

     RDKit          2D

  8  7  0  0  0  0  0  0  0  0999 V2000
    1.6238    3.1875    0.0000 C   0  0  0  0  0  0  0  0  0  0  0  0
   -4.8714    3.9375    0.0000 C   0  0  0  0  0  0  0  0  0  0  0  0
   -3.5724    1.6875    0.0000 C   0  0  0  0  0  0  0  0  0  0  0  0
    0.3248    3.9375    0.0000 C   0  0  0  0  0  0  0  0  0  0  0  0
   -3.5724    3.1875    0.0000 C   0  0  0  0  0  0  0  0  0  0  0  0
   -0.9743    3.1875    0.0000 C   0  0  0  0  0  0  0  0  0  0  0  0
   -0.9743    1.6875    0.0000 O   0  0  0  0  0  0  0  0  0  0  0  0
   -2.2733    3.9375    0.0000 O   0  0  0  0  0  0  0  0  0  0  0  0
  4  1  1  0
  5  2  1  0
  5  3  1  0
  6  4  1  0
  7  6  2  0
  8  5  1  0
  8  6  1  0
M  END
>  <NAME>  (3622) 
ISOPROPYL PROPIONATE

>  <SYNONYMS>  (3622) 


>  <SPECTRUM TYPE>  (3622) 
MS1

>  <INSTRUMENT TYPE>  (3622) 
EI-B

>  <INSTRUMENT>  (3622) 
HITACHI M-80B

>  <ION MODE>  (3622) 
P

>  <INCHIKEY>  (3622) 
IJMWOMHMDSDKGK-UHFFFAOYSA-N

>  <FORMULA>  (3622) 
C6H12O2

>  <EXACT MASS>  (3622) 
116.083729624

>  <MW>  (3622) 
116

>  <ID>  (3622) 
JP006391

>  <CONTRIBUTOR>  (3622) 
University of Tokyo Team, {Faculty of Engineering, University of Tokyo

>  <COMMENT>  (3622) 
SMILES=CCC(=O)OC(C)C
InChI=InChI=1S/C6H12O2/c1-4-6(7)8-5(2)3/h5H,4H2,1-3H3
computed SMILES=O=C(OC(C)C)CC
accession=JP006391
date=2016.01.19 (Created 2008.10.21, modified 2011.05.06)
author=HISAHIRO HAGIWARA, CHEMICAL RESEARCH INSTITUTE OF NON-AQUEOUSSOLUTIONS TOHOKU UNIV.
license=CC BY-NC-SA
exact mass=116.08373
ionization energy=70 eV
ion type=[M]+*
computed spectral entropy=2.2268097539105978
computed normalized entropy=0.7433273572437162
SPLASH=splash10-0a6u-9000000000-1b0dedc2fda09e192985
submitter=submitter = University of Tokyo Team (Faculty of Engineering, University of Tokyo)
MoNA Rating=3.75

>  <NUM PEAKS>  (3622) 
20

>  <MASS SPECTRAL PEAKS>  (3622) 
15 2.43
26 2.99
27 19.45
28 4.37
29 28.73
31 1.39
39 7.18
41 17.05
42 6.62
43 60.85
44 2.42
45 3.71
55 1.11
56 1.11
57 99.99
58 3.14
59 10.01
74 3.76
75 27.67
101 9.82

>  <PREDICTED SPECTRUM>  (3622) 
14 47
15 118
16 18
25 5
26 113
27 346
28 195
29 425
30 21
31 127
37 1
38 40
39 233
40 100
41 597
42 270
43 667
44 156
45 190
53 7
55 76
56 272
57 999
58 287
59 393
60 143
61 146
73 271
74 371
75 152
87 75
101 171
102 10

$$$$

     RDKit          2D

  8  7  0  0  0  0  0  0  0  0999 V2000
    1.9486    3.3750    0.0000 C   0  0  0  0  0  0  0  0  0  0  0  0
   -5.8457    3.3750    0.0000 C   0  0  0  0  0  0  0  0  0  0  0  0
    0.6495    4.1250    0.0000 C   0  0  0  0  0  0  0  0  0  0  0  0
   -4.5466    4.1250    0.0000 C   0  0  0  0  0  0  0  0  0  0  0  0
   -0.6495    3.3750    0.0000 C   0  0  0  0  0  0  0  0  0  0  0  0
   -3.2476    3.3750    0.0000 C   0  0  0  0  0  0  0  0  0  0  0  0
   -3.2476    1.8750    0.0000 O   0  0  0  0  0  0  0  0  0  0  0  0
   -1.9486    4.1250    0.0000 O   0  0  0  0  0  0  0  0  0  0  0  0
  3  1  1  0
  4  2  1  0
  5  3  1  0
  6  4  1  0
  7  6  2  0
  8  5  1  0
  8  6  1  0
M  END
>  <NAME>  (3623) 
PROPYL PROPIONATE

>  <SYNONYMS>  (3623) 


>  <SPECTRUM TYPE>  (3623) 
MS1

>  <INSTRUMENT TYPE>  (3623) 
EI-B

>  <INSTRUMENT>  (3623) 
HITACHI M-80B

>  <ION MODE>  (3623) 
P

>  <INCHIKEY>  (3623) 
MCSINKKTEDDPNK-UHFFFAOYSA-N

>  <FORMULA>  (3623) 
C6H12O2

>  <EXACT MASS>  (3623) 
116.083729624

>  <MW>  (3623) 
116

>  <ID>  (3623) 
JP006390

>  <CONTRIBUTOR>  (3623) 
University of Tokyo Team, {Faculty of Engineering, University of Tokyo

>  <COMMENT>  (3623) 
SMILES=CCCOC(=O)CC
InChI=InChI=1S/C6H12O2/c1-3-5-8-6(7)4-2/h3-5H2,1-2H3
computed SMILES=O=C(OCCC)CC
accession=JP006390
date=2016.01.19 (Created 2008.10.21, modified 2011.05.06)
author=HISAHIRO HAGIWARA, CHEMICAL RESEARCH INSTITUTE OF NON-AQUEOUSSOLUTIONS TOHOKU UNIV.
license=CC BY-NC-SA
exact mass=116.08373
ionization energy=70 eV
ion type=[M]+*
computed spectral entropy=2.2867402856556667
computed normalized entropy=0.751099830082252
SPLASH=splash10-056r-9000000000-9a4b5d04bf6b06ff65da
submitter=submitter = University of Tokyo Team (Faculty of Engineering, University of Tokyo)
MoNA Rating=3.75

>  <NUM PEAKS>  (3623) 
21

>  <MASS SPECTRAL PEAKS>  (3623) 
15 1.89
26 4.75
27 31.9
28 9.78
29 49.79
30 2.01
31 6.49
39 5.72
40 1.06
41 14.85
42 10.41
43 27.1
55 1.11
56 1.75
57 99.99
58 3.78
59 5.76
74 2.65
75 35.02
76 1.07
87 6.58

>  <PREDICTED SPECTRUM>  (3623) 
14 34
15 107
16 13
25 7
26 108
27 371
28 227
29 564
30 118
31 252
33 23
39 162
40 34
41 604
42 250
43 466
44 96
45 145
55 198
56 528
57 999
58 236
59 197
60 52
61 195
73 147
74 242
75 195
87 126
102 16
116 146
117 18

$$$$

     RDKit          2D

  8  7  0  0  0  0  0  0  0  0999 V2000
    1.9486    3.3750    0.0000 C   0  0  0  0  0  0  0  0  0  0  0  0
   -5.8457    3.3750    0.0000 C   0  0  0  0  0  0  0  0  0  0  0  0
    0.6495    4.1250    0.0000 C   0  0  0  0  0  0  0  0  0  0  0  0
   -4.5466    4.1250    0.0000 C   0  0  0  0  0  0  0  0  0  0  0  0
   -0.6495    3.3750    0.0000 C   0  0  0  0  0  0  0  0  0  0  0  0
   -3.2476    3.3750    0.0000 C   0  0  0  0  0  0  0  0  0  0  0  0
   -3.2476    1.8750    0.0000 O   0  0  0  0  0  0  0  0  0  0  0  0
   -1.9486    4.1250    0.0000 O   0  0  0  0  0  0  0  0  0  0  0  0
  3  1  2  0
  4  2  1  0
  5  3  1  0
  6  4  1  0
  7  6  2  0
  8  5  1  0
  8  6  1  0
M  END
>  <NAME>  (3624) 
ALLYL PROPIONATE

>  <SYNONYMS>  (3624) 


>  <SPECTRUM TYPE>  (3624) 
MS1

>  <INSTRUMENT TYPE>  (3624) 
EI-B

>  <INSTRUMENT>  (3624) 
HITACHI M-80B

>  <ION MODE>  (3624) 
P

>  <INCHIKEY>  (3624) 
XRFWKHVQMACVTA-UHFFFAOYSA-N

>  <FORMULA>  (3624) 
C6H10O2

>  <EXACT MASS>  (3624) 
114.06807956

>  <MW>  (3624) 
114

>  <ID>  (3624) 
JP006389

>  <CONTRIBUTOR>  (3624) 
University of Tokyo Team, {Faculty of Engineering, University of Tokyo

>  <COMMENT>  (3624) 
SMILES=C=CCOC(=O)CC
InChI=InChI=1S/C6H10O2/c1-3-5-8-6(7)4-2/h3H,1,4-5H2,2H3
computed SMILES=O=C(OCC=C)CC
accession=JP006389
date=2016.01.19 (Created 2008.10.21, modified 2011.05.06)
author=HISAHIRO HAGIWARA, CHEMICAL RESEARCH INSTITUTE OF NON-AQUEOUSSOLUTIONS TOHOKU UNIV.
license=CC BY-NC-SA
exact mass=114.06808
ionization energy=70 eV
ion type=[M]+*
computed spectral entropy=1.8381235487487613
computed normalized entropy=0.6487769629509021
SPLASH=splash10-0a6r-9000000000-225ad4314e5a35c22f50
submitter=submitter = University of Tokyo Team (Faculty of Engineering, University of Tokyo)
MoNA Rating=3.75

>  <NUM PEAKS>  (3624) 
17

>  <MASS SPECTRAL PEAKS>  (3624) 
15 1.12
26 3.85
27 16.12
28 3.84
29 41.22
30 1.1
31 1.35
38 1.48
39 15.16
40 2.42
41 32.46
42 2.44
55 1.6
56 1.86
57 99.99
58 4.42
75 1.77

>  <PREDICTED SPECTRUM>  (3624) 
14 14
15 17
25 28
26 125
27 372
28 138
29 539
30 80
31 95
37 50
38 114
39 465
40 198
41 815
42 218
43 142
44 59
49 22
50 66
52 14
53 2
54 39
55 147
56 245
57 999
58 308
59 26
85 35
114 87

$$$$

     RDKit          2D

  6  5  0  0  0  0  0  0  0  0999 V2000
    1.2990    2.2500    0.0000 C   0  0  0  0  0  0  0  0  0  0  0  0
   -3.8971    2.2500    0.0000 C   0  0  0  0  0  0  0  0  0  0  0  0
    0.0000    3.0000    0.0000 C   0  0  0  0  0  0  0  0  0  0  0  0
   -1.2990    2.2500    0.0000 C   0  0  0  0  0  0  0  0  0  0  0  0
   -1.2990    0.7500    0.0000 O   0  0  0  0  0  0  0  0  0  0  0  0
   -2.5981    3.0000    0.0000 O   0  0  0  0  0  0  0  0  0  0  0  0
  3  1  1  0
  4  3  1  0
  5  4  2  0
  6  2  1  0
  6  4  1  0
M  END
>  <NAME>  (3625) 
METHYL PROPIONATE

>  <SYNONYMS>  (3625) 


>  <SPECTRUM TYPE>  (3625) 
MS1

>  <INSTRUMENT TYPE>  (3625) 
EI-B

>  <INSTRUMENT>  (3625) 
HITACHI M-80B

>  <ION MODE>  (3625) 
P

>  <INCHIKEY>  (3625) 
RJUFJBKOKNCXHH-UHFFFAOYSA-N

>  <FORMULA>  (3625) 
C4H8O2

>  <EXACT MASS>  (3625) 
88.052429496

>  <MW>  (3625) 
88

>  <ID>  (3625) 
JP006387

>  <CONTRIBUTOR>  (3625) 
University of Tokyo Team, {Faculty of Engineering, University of Tokyo

>  <COMMENT>  (3625) 
SMILES=CCC(=O)OC
InChI=InChI=1S/C4H8O2/c1-3-4(5)6-2/h3H2,1-2H3
computed SMILES=O=C(OC)CC
accession=JP006387
date=2016.01.19 (Created 2008.10.21, modified 2011.05.06)
author=HISAHIRO HAGIWARA, CHEMICAL RESEARCH INSTITUTE OF NON-AQUEOUSSOLUTIONS TOHOKU UNIV.
license=CC BY-NC-SA
exact mass=88.05243
ionization energy=70 eV
ion type=[M]+*
computed spectral entropy=2.3674284093197002
computed normalized entropy=0.7776025494132907
SPLASH=splash10-0a6r-9000000000-ce361e134e986a064bbb
submitter=submitter = University of Tokyo Team (Faculty of Engineering, University of Tokyo)
MoNA Rating=3.75

>  <NUM PEAKS>  (3625) 
21

>  <MASS SPECTRAL PEAKS>  (3625) 
15 13.79
17 3.09
18 12.57
26 7.12
27 22.15
28 12.87
29 69.64
30 2.57
31 7.58
32 2.94
42 5.24
43 3.59
45 8.22
55 4.57
56 4.59
57 99.99
58 4.71
59 32.03
87 3.62
88 38.44
89 2.13

>  <PREDICTED SPECTRUM>  (3625) 
14 131
15 344
16 81
17 14
18 38
25 31
26 198
27 550
28 401
29 911
30 228
31 390
32 252
33 123
38 40
40 113
41 317
42 482
43 414
44 13
45 253
46 145
55 95
56 464
57 999
58 46
59 442
60 285
61 55
73 51
74 284
88 734
89 198

$$$$

     RDKit          2D

 11 11  0  0  0  0  0  0  0  0999 V2000
   -1.6700   -0.9602    0.0000 C   0  0  0  0  0  0  0  0  0  0  0  0
   -0.3708   -1.7100    0.0000 C   0  0  0  0  0  0  0  0  0  0  0  0
    6.1262    0.5406    0.0000 C   0  0  0  0  0  0  0  0  0  0  0  0
    6.1262   -0.9594    0.0000 C   0  0  0  0  0  0  0  0  0  0  0  0
    4.8262    1.2906    0.0000 C   0  0  0  0  0  0  0  0  0  0  0  0
    4.8262   -1.7094    0.0000 C   0  0  0  0  0  0  0  0  0  0  0  0
    3.5262    0.5406    0.0000 C   0  0  0  0  0  0  0  0  0  0  0  0
    3.5262   -0.9594    0.0000 C   0  0  0  0  0  0  0  0  0  0  0  0
    0.9281   -0.9598    0.0000 C   0  0  0  0  0  0  0  0  0  0  0  0
    0.9278    0.5402    0.0000 O   0  0  0  0  0  0  0  0  0  0  0  0
    2.2272   -1.7096    0.0000 O   0  0  0  0  0  0  0  0  0  0  0  0
  2  1  1  0
  4  3  1  0
  5  3  1  0
  6  4  1  0
  7  5  1  0
  8  6  1  0
  8  7  1  0
  9  2  1  0
 10  9  2  0
 11  8  1  0
 11  9  1  0
M  END
>  <NAME>  (3626) 
CYCLOHEXYL PROPIONATE

>  <SYNONYMS>  (3626) 


>  <SPECTRUM TYPE>  (3626) 
MS1

>  <INSTRUMENT TYPE>  (3626) 
EI-B

>  <INSTRUMENT>  (3626) 
HITACHI M-80B

>  <ION MODE>  (3626) 
P

>  <INCHIKEY>  (3626) 
MAMMVUWCKMOLSG-UHFFFAOYSA-N

>  <FORMULA>  (3626) 
C9H16O2

>  <EXACT MASS>  (3626) 
156.115029752

>  <MW>  (3626) 
156

>  <ID>  (3626) 
JP006386

>  <CONTRIBUTOR>  (3626) 
University of Tokyo Team, {Faculty of Engineering, University of Tokyo

>  <COMMENT>  (3626) 
SMILES=CCC(=O)OC(C1)CCCC1
InChI=InChI=1S/C9H16O2/c1-2-9(10)11-8-6-4-3-5-7-8/h8H,2-7H2,1H3
computed SMILES=O=C(OC1CCCCC1)CC
accession=JP006386
date=2016.01.19 (Created 2008.10.21, modified 2011.05.06)
author=HISAHIRO HAGIWARA, CHEMICAL RESEARCH INSTITUTE OF NON-AQUEOUSSOLUTIONS TOHOKU UNIV.
license=CC BY-NC-SA
exact mass=156.11503
ionization energy=70 eV
ion type=[M]+*
computed spectral entropy=2.6377904151312577
computed normalized entropy=0.7833557098373068
SPLASH=splash10-0a7i-9000000000-20b7fe2b6db729446a95
submitter=submitter = University of Tokyo Team (Faculty of Engineering, University of Tokyo)
MoNA Rating=3.75

>  <NUM PEAKS>  (3626) 
29

>  <MASS SPECTRAL PEAKS>  (3626) 
26 1.62
27 19.64
28 4.32
29 44.25
39 11.68
40 1.47
41 22.09
42 4.75
43 3.68
44 2.01
53 3.93
54 14.93
55 28.39
56 4.19
57 99.99
58 3.54
67 42.03
68 2.04
72 4.58
74 1.65
75 26.61
79 1.2
81 10.27
82 64.12
83 25.2
84 1.36
99 3.35
113 1.58
127 1.2

>  <PREDICTED SPECTRUM>  (3626) 
25 14
26 150
27 392
28 178
29 525
30 34
31 60
37 38
38 79
39 394
40 147
41 572
42 178
43 151
44 132
45 6
50 56
51 88
52 54
53 172
54 444
55 542
56 281
57 999
58 121
65 78
66 104
67 718
70 51
71 39
73 97
74 177
75 353
76 54
77 78
78 29
79 96
80 151
81 422
82 972
83 638
84 39
99 68
100 71
101 21
102 24
127 24

$$$$

     RDKit          2D

 15 15  0  0  0  0  0  0  0  0999 V2000
   -5.4859    1.6696    0.0000 C   0  0  0  0  0  0  0  0  0  0  0  0
    3.6073   -3.5804    0.0000 C   0  0  0  0  0  0  0  0  0  0  0  0
    3.6078    0.9201    0.0000 C   0  0  0  0  0  0  0  0  0  0  0  0
   -4.1869    0.9196    0.0000 C   0  0  0  0  0  0  0  0  0  0  0  0
   -2.8879    1.6696    0.0000 C   0  0  0  0  0  0  0  0  0  0  0  0
   -1.5893   -0.5812    0.0000 C   0  0  0  0  0  0  0  0  0  0  0  0
   -0.2903   -1.3312    0.0000 C   0  0  0  0  0  0  0  0  0  0  0  0
   -0.2893    1.6705    0.0000 C   0  0  0  0  0  0  0  0  0  0  0  0
    2.3083   -2.8304    0.0000 C   0  0  0  0  0  0  0  0  0  0  0  0
   -1.5888    0.9196    0.0000 C   0  0  0  0  0  0  0  0  0  0  0  0
    1.0092   -0.5804    0.0000 C   0  0  0  0  0  0  0  0  0  0  0  0
    1.0097    0.9205    0.0000 C   0  0  0  0  0  0  0  0  0  0  0  0
    1.0092   -3.5804    0.0000 O   0  0  0  0  0  0  0  0  0  0  0  0
    2.3089    1.6703    0.0000 O   0  0  0  0  0  0  0  0  0  0  0  0
    2.3083   -1.3304    0.0000 O   0  0  0  0  0  0  0  0  0  0  0  0
  4  1  1  0
  4  5  2  0
  7  6  2  0
  9  2  1  0
 10  5  1  0
 10  6  1  0
 10  8  2  0
 11  7  1  0
 12  8  1  0
 12 11  2  0
 13  9  2  0
 14  3  1  0
 14 12  1  0
 15  9  1  0
 15 11  1  0
M  END
>  <NAME>  (3627) 
ISOEUGENYL ACETATE

>  <SYNONYMS>  (3627) 
4-(1-PROPENYL)-2-METHOXYPHENYL ACETATE

>  <SPECTRUM TYPE>  (3627) 
MS1

>  <INSTRUMENT TYPE>  (3627) 
EI-B

>  <INSTRUMENT>  (3627) 
HITACHI M-80B

>  <ION MODE>  (3627) 
P

>  <INCHIKEY>  (3627) 
IUSBVFZKQJGVEP-SNAWJCMRSA-N

>  <FORMULA>  (3627) 
C12H14O3

>  <EXACT MASS>  (3627) 
206.09429430799997

>  <MW>  (3627) 
206

>  <ID>  (3627) 
JP006385

>  <CONTRIBUTOR>  (3627) 
University of Tokyo Team, {Faculty of Engineering, University of Tokyo

>  <COMMENT>  (3627) 
SMILES=CC=Cc(c1)cc(OC)c(OC(C)=O)c1
InChI=InChI=1S/C12H14O3/c1-4-5-10-6-7-11(15-9(2)13)12(8-10)14-3/h4-8H,1-3H3/b5-4+
computed SMILES=O=C(OC1=CC=C(C=CC)C=C1OC)C
accession=JP006385
date=2016.01.19 (Created 2008.10.21, modified 2011.05.06)
author=HISAHIRO HAGIWARA, CHEMICAL RESEARCH INSTITUTE OF NON-AQUEOUSSOLUTIONS TOHOKU UNIV.
license=CC BY-NC-SA
exact mass=206.09429
ionization energy=70 eV
ion type=[M]+*
computed spectral entropy=2.8763814459344563
computed normalized entropy=0.7647509724177635
SPLASH=splash10-03di-5900000000-b016880787407ead4e15
submitter=submitter = University of Tokyo Team (Faculty of Engineering, University of Tokyo)
MoNA Rating=3.75

>  <NUM PEAKS>  (3627) 
43

>  <MASS SPECTRAL PEAKS>  (3627) 
15 3.51
18 2.61
27 1.62
39 5.03
40 1.31
41 2.08
42 1.27
43 22.79
50 1.79
51 4.14
52 1.75
53 2.28
55 5.65
63 3.12
64 1.17
65 5.36
66 1.78
77 10.04
78 2.75
79 3.61
89 1.71
91 14.72
92 1.94
93 1.46
102 1.01
103 9
104 5.93
105 2.92
107 3.32
115 2.02
121 5.25
131 9.14
132 2.57
133 6.32
137 1.86
147 1.55
149 17.14
150 1.73
163 3.16
164 99.99
165 10.22
206 9.59
207 1.31

>  <PREDICTED SPECTRUM>  (3627) 
14 5
15 51
26 0
27 38
28 25
38 27
39 168
40 38
41 191
42 99
43 352
44 63
45 35
50 133
51 273
52 149
53 175
54 5
55 164
59 10
60 7
61 3
62 100
63 195
64 91
65 266
66 111
67 65
69 6
74 78
75 135
76 96
77 352
78 189
79 198
80 22
81 35
86 0
87 61
88 33
89 241
90 112
91 330
92 114
93 99
94 38
95 73
101 48
102 135
103 262
104 138
105 222
106 69
107 121
110 5
115 149
116 71
117 158
118 114
119 87
120 40
121 334
122 77
123 80
129 95
130 44
131 363
132 143
133 213
134 136
135 127
136 76
137 36
145 41
146 29
147 156
148 46
149 463
150 104
162 65
163 249
164 999
165 302
166 88
175 0
206 374
207 125

$$$$

     RDKit          2D

 14 15  0  0  0  0  0  0  0  0999 V2000
    7.1462    0.6231    0.0000 C   0  0  0  0  0  0  0  0  0  0  0  0
    1.9500   -0.9000    0.0000 C   0  0  0  0  0  0  0  0  0  0  0  0
    0.6300   -1.6600    0.0000 C   0  0  0  0  0  0  0  0  0  0  0  0
    0.6300    1.3800    0.0000 C   0  0  0  0  0  0  0  0  0  0  0  0
    3.2486    1.3708    0.0000 C   0  0  0  0  0  0  0  0  0  0  0  0
   -2.9400   -0.2300    0.0000 C   0  0  0  0  0  0  0  0  0  0  0  0
    5.8467    1.3723    0.0000 C   0  0  0  0  0  0  0  0  0  0  0  0
    1.9500    0.6200    0.0000 C   0  0  0  0  0  0  0  0  0  0  0  0
   -0.6600   -0.9000    0.0000 C   0  0  0  0  0  0  0  0  0  0  0  0
   -0.6600    0.6200    0.0000 C   0  0  0  0  0  0  0  0  0  0  0  0
    5.8458    2.8723    0.0000 O   0  0  0  0  0  0  0  0  0  0  0  0
    4.5481    0.6216    0.0000 O   0  0  0  0  0  0  0  0  0  0  0  0
   -2.0600   -1.3400    0.0000 O   0  0  0  0  0  0  0  0  0  0  0  0
   -2.0900    1.0600    0.0000 O   0  0  0  0  0  0  0  0  0  0  0  0
  3  2  2  0
  7  1  1  0
  8  2  1  0
  8  4  2  0
  8  5  1  0
  9  3  1  0
 10  4  1  0
 10  9  2  0
 11  7  2  0
 12  5  1  0
 12  7  1  0
 13  6  1  0
 13  9  1  0
 14  6  1  0
 14 10  1  0
M  END
>  <NAME>  (3628) 
HELIOTROPYL ACETATE

>  <SYNONYMS>  (3628) 
3,4-METHYLENEDIOXYBENZYL ACETATE

>  <SPECTRUM TYPE>  (3628) 
MS1

>  <INSTRUMENT TYPE>  (3628) 
EI-B

>  <INSTRUMENT>  (3628) 
HITACHI M-80B

>  <ION MODE>  (3628) 
P

>  <INCHIKEY>  (3628) 
PFWYHTORQZAGCA-UHFFFAOYSA-N

>  <FORMULA>  (3628) 
C10H10O4

>  <EXACT MASS>  (3628) 
194.0579088

>  <MW>  (3628) 
194

>  <ID>  (3628) 
JP006383

>  <CONTRIBUTOR>  (3628) 
University of Tokyo Team, {Faculty of Engineering, University of Tokyo

>  <COMMENT>  (3628) 
SMILES=CC(=O)OCc(c1)cc(O2)c(OC2)c1
InChI=InChI=1S/C10H10O4/c1-7(11)12-5-8-2-3-9-10(4-8)14-6-13-9/h2-4H,5-6H2,1H3
computed SMILES=O=C(OCC1=CC=C2OCOC2=C1)C
accession=JP006383
exact mass=194.05791
date=2016.01.19 (Created 2008.10.21, modified 2011.05.06)
author=HISAHIRO HAGIWARA, CHEMICAL RESEARCH INSTITUTE OF NON-AQUEOUSSOLUTIONS TOHOKU UNIV.
license=CC BY-NC-SA
ionization energy=70 eV
ion type=[M]+*
computed spectral entropy=2.9594241607445357
computed normalized entropy=0.791783240088442
SPLASH=splash10-0f76-4900000000-92da8e820031602709c7
submitter=submitter = University of Tokyo Team (Faculty of Engineering, University of Tokyo)
MoNA Rating=3.75

>  <NUM PEAKS>  (3628) 
42

>  <MASS SPECTRAL PEAKS>  (3628) 
15 3.05
27 1.2
29 2.27
38 2.09
39 7.93
42 1.45
43 28.89
50 5.94
51 18.96
52 1.68
53 2.78
62 2.72
63 8.13
64 2.07
65 14.25
66 1.87
67 3.12
74 1.3
75 1.22
76 13.01
77 22.65
78 3.36
79 5.02
91 1.34
93 11.2
94 2.18
104 10.45
105 10.1
106 1.34
121 3.5
122 10.86
123 4.94
134 38.48
135 99.99
136 9.21
149 4.45
150 1.54
151 7.52
152 56.02
153 4.44
194 63.59
195 7.24

>  <PREDICTED SPECTRUM>  (3628) 
14 28
15 35
26 22
27 64
28 33
29 41
37 26
38 58
39 84
40 9
41 111
42 89
43 551
44 97
49 45
50 175
51 353
52 136
53 162
54 18
55 32
61 83
62 127
63 199
64 149
65 192
66 70
67 99
68 20
74 77
75 91
76 134
77 480
78 197
79 195
80 63
89 67
90 66
91 139
92 107
93 111
94 10
103 17
104 86
105 307
106 171
107 44
119 34
121 164
122 103
123 241
124 23
133 146
134 487
135 999
136 267
137 35
149 29
150 16
151 256
152 518
153 138
194 580
195 161
196 33

$$$$

     RDKit          2D

 14 14  0  0  0  0  0  0  0  0999 V2000
   -1.5890   -3.5800    0.0000 C   0  0  0  0  0  0  0  0  0  0  0  0
    1.0090   -3.5800    0.0000 C   0  0  0  0  0  0  0  0  0  0  0  0
   -0.2900    3.1700    0.0000 C   0  0  0  0  0  0  0  0  0  0  0  0
    4.9070   -1.3306    0.0000 C   0  0  0  0  0  0  0  0  0  0  0  0
   -1.5900    0.9200    0.0000 C   0  0  0  0  0  0  0  0  0  0  0  0
   -1.5900   -0.5800    0.0000 C   0  0  0  0  0  0  0  0  0  0  0  0
    1.0100    0.9200    0.0000 C   0  0  0  0  0  0  0  0  0  0  0  0
   -0.2900   -2.8300    0.0000 C   0  0  0  0  0  0  0  0  0  0  0  0
   -0.2900    1.6700    0.0000 C   0  0  0  0  0  0  0  0  0  0  0  0
    3.6081   -0.5804    0.0000 C   0  0  0  0  0  0  0  0  0  0  0  0
   -0.2900   -1.3300    0.0000 C   0  0  0  0  0  0  0  0  0  0  0  0
    1.0100   -0.5800    0.0000 C   0  0  0  0  0  0  0  0  0  0  0  0
    3.6083    0.9196    0.0000 O   0  0  0  0  0  0  0  0  0  0  0  0
    2.3089   -1.3302    0.0000 O   0  0  0  0  0  0  0  0  0  0  0  0
  6  5  2  0
  8  1  1  0
  8  2  1  0
  9  3  1  0
  9  5  1  0
  9  7  2  0
 10  4  1  0
 11  6  1  0
 11  8  1  0
 12  7  1  0
 12 11  2  0
 13 10  2  0
 14 10  1  0
 14 12  1  0
M  END
>  <NAME>  (3629) 
THYMYL ACETATE

>  <SYNONYMS>  (3629) 
2-ISOPROPYL-5-METHYLPHENYL ACETATE

>  <SPECTRUM TYPE>  (3629) 
MS1

>  <INSTRUMENT TYPE>  (3629) 
EI-B

>  <INSTRUMENT>  (3629) 
HITACHI M-80B

>  <ION MODE>  (3629) 
P

>  <INCHIKEY>  (3629) 
WFMIUXMJJBBOGJ-UHFFFAOYSA-N

>  <FORMULA>  (3629) 
C12H16O2

>  <EXACT MASS>  (3629) 
192.115029752

>  <MW>  (3629) 
192

>  <ID>  (3629) 
JP006381

>  <CONTRIBUTOR>  (3629) 
University of Tokyo Team, {Faculty of Engineering, University of Tokyo

>  <COMMENT>  (3629) 
SMILES=CC(=O)Oc(c1)c(ccc(C)1)C(C)C
InChI=InChI=1S/C12H16O2/c1-8(2)11-6-5-9(3)7-12(11)14-10(4)13/h5-8H,1-4H3
computed SMILES=O=C(OC1=CC(=CC=C1C(C)C)C)C
accession=JP006381
date=2016.01.19 (Created 2008.10.21, modified 2011.05.06)
author=HISAHIRO HAGIWARA, CHEMICAL RESEARCH INSTITUTE OF NON-AQUEOUSSOLUTIONS TOHOKU UNIV.
license=CC BY-NC-SA
exact mass=192.11503
ionization energy=70 eV
ion type=[M]+*
computed spectral entropy=2.683424274375556
computed normalized entropy=0.7488238015372838
SPLASH=splash10-000i-5900000000-c9c451f1aab6c0104b9e
submitter=submitter = University of Tokyo Team (Faculty of Engineering, University of Tokyo)
MoNA Rating=3.75

>  <NUM PEAKS>  (3629) 
36

>  <MASS SPECTRAL PEAKS>  (3629) 
15 5.75
18 2.89
27 3.96
28 1.44
39 6.75
41 5.52
42 1.3
43 25.81
51 3.6
52 1.35
53 3.27
55 1.24
63 2.01
65 4.86
77 9.07
78 3.59
79 4.73
89 1.16
91 16.35
92 1.34
103 1.9
105 5.87
107 3.09
109 1.37
115 6.44
116 1.98
117 3.36
121 3.61
133 1.74
134 3
135 99.99
136 9.81
149 2.01
150 33.91
151 3.86
192 7.75

>  <PREDICTED SPECTRUM>  (3629) 
14 3
15 50
27 59
28 14
29 23
38 37
39 175
40 57
41 138
42 28
43 288
44 12
45 8
50 47
51 129
52 88
53 122
54 24
55 137
62 17
63 51
64 20
65 160
66 73
67 102
74 23
75 72
76 23
77 272
78 138
79 172
80 42
81 24
89 54
90 9
91 286
92 85
93 49
94 8
95 36
102 84
103 137
104 70
105 220
106 105
107 286
108 67
109 20
115 173
116 90
117 83
119 87
120 64
121 153
122 44
131 125
132 52
133 59
134 110
135 999
136 368
137 127
148 25
149 161
150 788
151 293
152 46
192 271
193 84

$$$$

     RDKit          2D

 13 13  0  0  0  0  0  0  0  0999 V2000
   -6.8197    3.1321    0.0000 C   0  0  0  0  0  0  0  0  0  0  0  0
    3.5726    1.6321    0.0000 C   0  0  0  0  0  0  0  0  0  0  0  0
    3.5731    3.1329    0.0000 C   0  0  0  0  0  0  0  0  0  0  0  0
    2.2731    0.8813    0.0000 C   0  0  0  0  0  0  0  0  0  0  0  0
   -1.6236    3.1321    0.0000 C   0  0  0  0  0  0  0  0  0  0  0  0
    2.2740    3.8829    0.0000 C   0  0  0  0  0  0  0  0  0  0  0  0
    0.9740    1.6313    0.0000 C   0  0  0  0  0  0  0  0  0  0  0  0
   -0.3245    3.8821    0.0000 C   0  0  0  0  0  0  0  0  0  0  0  0
   -2.9226    3.8821    0.0000 C   0  0  0  0  0  0  0  0  0  0  0  0
   -5.5207    3.8821    0.0000 C   0  0  0  0  0  0  0  0  0  0  0  0
    0.9745    3.1321    0.0000 C   0  0  0  0  0  0  0  0  0  0  0  0
   -5.5207    5.3821    0.0000 O   0  0  0  0  0  0  0  0  0  0  0  0
   -4.2216    3.1321    0.0000 O   0  0  0  0  0  0  0  0  0  0  0  0
  3  2  2  0
  4  2  1  0
  6  3  1  0
  7  4  2  0
  8  5  1  0
  9  5  1  0
 10  1  1  0
 11  6  2  0
 11  7  1  0
 11  8  1  0
 12 10  2  0
 13  9  1  0
 13 10  1  0
M  END
>  <NAME>  (3630) 
3-PHENYLPROPYL ACETATE

>  <SYNONYMS>  (3630) 


>  <SPECTRUM TYPE>  (3630) 
MS1

>  <INSTRUMENT TYPE>  (3630) 
EI-B

>  <INSTRUMENT>  (3630) 
HITACHI M-80B

>  <ION MODE>  (3630) 
P

>  <INCHIKEY>  (3630) 
JRJGKUTZNBZHNK-UHFFFAOYSA-N

>  <FORMULA>  (3630) 
C11H14O2

>  <EXACT MASS>  (3630) 
178.099379688

>  <MW>  (3630) 
178

>  <ID>  (3630) 
JP006379

>  <CONTRIBUTOR>  (3630) 
University of Tokyo Team, {Faculty of Engineering, University of Tokyo

>  <COMMENT>  (3630) 
SMILES=CC(=O)OCCCc(c1)cccc1
InChI=InChI=1S/C11H14O2/c1-10(12)13-9-5-8-11-6-3-2-4-7-11/h2-4,6-7H,5,8-9H2,1H3
computed SMILES=O=C(OCCCC=1C=CC=CC1)C
accession=JP006379
date=2016.01.19 (Created 2008.10.21, modified 2011.05.06)
author=HISAHIRO HAGIWARA, CHEMICAL RESEARCH INSTITUTE OF NON-AQUEOUSSOLUTIONS TOHOKU UNIV.
license=CC BY-NC-SA
exact mass=178.09938
ionization energy=70 eV
ion type=[M]+*
computed spectral entropy=2.403645020884643
computed normalized entropy=0.7138205676732293
SPLASH=splash10-014l-6900000000-37831f4980d74f7589d5
submitter=submitter = University of Tokyo Team (Faculty of Engineering, University of Tokyo)
MoNA Rating=3.75

>  <NUM PEAKS>  (3630) 
29

>  <MASS SPECTRAL PEAKS>  (3630) 
15 4.1
27 2.7
28 1.74
29 1.17
39 7.97
41 2.62
42 1.46
43 53.1
44 1.03
50 2.09
51 7.57
52 1.73
63 3.24
65 9.89
77 10.06
78 6.46
79 4.88
89 2.04
90 1.36
91 44.26
92 5.98
103 6.75
104 3.29
105 9.67
115 3.75
116 3.43
117 90.37
118 99.99
119 9.04

>  <PREDICTED SPECTRUM>  (3630) 
14 11
15 53
25 4
26 41
27 112
28 42
29 73
31 41
37 11
38 37
39 176
40 55
41 114
42 28
43 592
44 72
45 28
50 134
51 184
52 97
53 82
59 15
60 39
61 73
62 57
63 130
64 59
65 236
66 16
75 18
76 37
77 237
78 174
79 126
87 77
89 128
90 107
91 743
92 291
93 12
102 47
103 149
104 146
105 191
106 9
107 35
115 253
116 179
117 872
118 999
119 333
120 115
121 50

$$$$

     RDKit          2D

 13 13  0  0  0  0  0  0  0  0999 V2000
   -6.8197    3.1321    0.0000 C   0  0  0  0  0  0  0  0  0  0  0  0
   -5.5207    3.8821    0.0000 C   0  0  0  0  0  0  0  0  0  0  0  0
    3.5726    1.6321    0.0000 C   0  0  0  0  0  0  0  0  0  0  0  0
    3.5731    3.1329    0.0000 C   0  0  0  0  0  0  0  0  0  0  0  0
    2.2731    0.8813    0.0000 C   0  0  0  0  0  0  0  0  0  0  0  0
    2.2740    3.8829    0.0000 C   0  0  0  0  0  0  0  0  0  0  0  0
    0.9740    1.6313    0.0000 C   0  0  0  0  0  0  0  0  0  0  0  0
   -4.2216    3.1321    0.0000 C   0  0  0  0  0  0  0  0  0  0  0  0
   -0.3245    3.8821    0.0000 C   0  0  0  0  0  0  0  0  0  0  0  0
    0.9745    3.1321    0.0000 C   0  0  0  0  0  0  0  0  0  0  0  0
   -1.6236    3.1321    0.0000 C   0  0  0  0  0  0  0  0  0  0  0  0
   -1.6236    1.6321    0.0000 O   0  0  0  0  0  0  0  0  0  0  0  0
   -2.9226    3.8821    0.0000 O   0  0  0  0  0  0  0  0  0  0  0  0
  2  1  2  0
  4  3  2  0
  5  3  1  0
  6  4  1  0
  7  5  2  0
  8  2  1  0
 10  6  2  0
 10  7  1  0
 10  9  1  0
 11  9  1  0
 12 11  2  0
 13  8  1  0
 13 11  1  0
M  END
>  <NAME>  (3631) 
ALLYL PHENYLACETATE

>  <SYNONYMS>  (3631) 


>  <SPECTRUM TYPE>  (3631) 
MS1

>  <INSTRUMENT TYPE>  (3631) 
EI-B

>  <INSTRUMENT>  (3631) 
HITACHI M-80B

>  <ION MODE>  (3631) 
P

>  <INCHIKEY>  (3631) 
ZCDYAMJXVAUTIM-UHFFFAOYSA-N

>  <FORMULA>  (3631) 
C11H12O2

>  <EXACT MASS>  (3631) 
176.083729624

>  <MW>  (3631) 
176

>  <ID>  (3631) 
JP006378

>  <CONTRIBUTOR>  (3631) 
University of Tokyo Team, {Faculty of Engineering, University of Tokyo

>  <COMMENT>  (3631) 
SMILES=C=CCOC(=O)Cc(c1)cccc1
InChI=InChI=1S/C11H12O2/c1-2-8-13-11(12)9-10-6-4-3-5-7-10/h2-7H,1,8-9H2
computed SMILES=O=C(OCC=C)CC=1C=CC=CC1
accession=JP006378
date=2016.01.19 (Created 2008.10.21, modified 2011.05.06)
author=HISAHIRO HAGIWARA, CHEMICAL RESEARCH INSTITUTE OF NON-AQUEOUSSOLUTIONS TOHOKU UNIV.
license=CC BY-NC-SA
exact mass=176.08373
ionization energy=70 eV
ion type=[M]+*
computed spectral entropy=1.8696219902549038
computed normalized entropy=0.6349671375374153
SPLASH=splash10-0006-9000000000-10bb6fc9d1f1d1892d00
submitter=submitter = University of Tokyo Team (Faculty of Engineering, University of Tokyo)
MoNA Rating=3.75

>  <NUM PEAKS>  (3631) 
19

>  <MASS SPECTRAL PEAKS>  (3631) 
18 1.23
27 2.88
28 1.51
29 1.47
38 1.5
39 15.45
40 1.41
41 26.22
50 1.15
51 3.2
62 1.04
63 4.44
64 1.25
65 13.69
89 3.69
90 2.8
91 99.99
92 10.76
176 6.2

>  <PREDICTED SPECTRUM>  (3631) 
26 54
27 132
28 15
29 132
37 25
38 78
39 296
40 114
41 473
42 114
43 21
44 62
50 65
51 146
52 101
53 42
54 38
55 58
56 25
57 200
58 61
62 74
63 148
64 94
65 312
66 70
68 69
69 10
74 42
75 91
77 73
78 102
79 86
85 112
86 8
89 171
90 193
91 999
92 369
93 104
103 18
104 47
105 51
115 122
116 44
117 125
118 403
119 95
131 198
132 151
135 72
136 21
160 272
176 390
177 126

$$$$

     RDKit          2D

 12 12  0  0  0  0  0  0  0  0999 V2000
   -5.8454    3.6946    0.0000 C   0  0  0  0  0  0  0  0  0  0  0  0
    3.2478    1.4446    0.0000 C   0  0  0  0  0  0  0  0  0  0  0  0
    3.2483    2.9454    0.0000 C   0  0  0  0  0  0  0  0  0  0  0  0
    1.9483    0.6938    0.0000 C   0  0  0  0  0  0  0  0  0  0  0  0
    1.9493    3.6954    0.0000 C   0  0  0  0  0  0  0  0  0  0  0  0
    0.6493    1.4438    0.0000 C   0  0  0  0  0  0  0  0  0  0  0  0
   -0.6493    3.6946    0.0000 C   0  0  0  0  0  0  0  0  0  0  0  0
   -1.9483    2.9446    0.0000 C   0  0  0  0  0  0  0  0  0  0  0  0
   -4.5464    2.9446    0.0000 C   0  0  0  0  0  0  0  0  0  0  0  0
    0.6498    2.9446    0.0000 C   0  0  0  0  0  0  0  0  0  0  0  0
   -4.5464    1.4446    0.0000 O   0  0  0  0  0  0  0  0  0  0  0  0
   -3.2474    3.6946    0.0000 O   0  0  0  0  0  0  0  0  0  0  0  0
  3  2  2  0
  4  2  1  0
  5  3  1  0
  6  4  2  0
  8  7  1  0
  9  1  1  0
 10  5  2  0
 10  6  1  0
 10  7  1  0
 11  9  2  0
 12  8  1  0
 12  9  1  0
M  END
>  <NAME>  (3632) 
PHENYLETHYL ACETATE

>  <SYNONYMS>  (3632) 


>  <SPECTRUM TYPE>  (3632) 
MS1

>  <INSTRUMENT TYPE>  (3632) 
EI-B

>  <INSTRUMENT>  (3632) 
HITACHI M-80B

>  <ION MODE>  (3632) 
P

>  <INCHIKEY>  (3632) 
MDHYEMXUFSJLGV-UHFFFAOYSA-N

>  <FORMULA>  (3632) 
C10H12O2

>  <EXACT MASS>  (3632) 
164.083729624

>  <MW>  (3632) 
164

>  <ID>  (3632) 
JP006377

>  <CONTRIBUTOR>  (3632) 
University of Tokyo Team, {Faculty of Engineering, University of Tokyo

>  <COMMENT>  (3632) 
SMILES=CC(=O)OCCc(c1)cccc1
InChI=InChI=1S/C10H12O2/c1-9(11)12-8-7-10-5-3-2-4-6-10/h2-6H,7-8H2,1H3
computed SMILES=O=C(OCCC=1C=CC=CC1)C
accession=JP006377
date=2016.01.19 (Created 2008.10.21, modified 2011.05.06)
author=HISAHIRO HAGIWARA, CHEMICAL RESEARCH INSTITUTE OF NON-AQUEOUSSOLUTIONS TOHOKU UNIV.
license=CC BY-NC-SA
exact mass=164.08373
ionization energy=70 eV
ion type=[M]+*
computed spectral entropy=2.0255832000404266
computed normalized entropy=0.6653205031246476
SPLASH=splash10-0f6x-9600000000-aeee3186e3cf069e2ea0
submitter=submitter = University of Tokyo Team (Faculty of Engineering, University of Tokyo)
MoNA Rating=3.75

>  <NUM PEAKS>  (3632) 
21

>  <MASS SPECTRAL PEAKS>  (3632) 
15 4.24
27 2.03
39 6.51
41 1.26
42 1.18
43 81.56
44 1.54
50 2.01
51 6.46
52 1.54
63 3.38
65 9.61
77 6.75
78 6.35
79 2.58
89 1.81
91 20.17
92 3.81
103 6.44
104 99.99
105 11.8

>  <PREDICTED SPECTRUM>  (3632) 
14 13
15 46
26 42
27 131
28 23
29 8
37 25
38 54
39 251
40 84
41 105
42 92
43 688
44 145
45 43
49 23
50 158
51 250
52 139
53 88
54 9
60 6
61 96
62 61
63 174
64 94
65 262
66 77
73 124
74 69
75 40
76 76
77 263
78 271
79 128
80 7
87 9
89 150
90 69
91 521
92 226
102 83
103 222
104 999
105 497
106 107
107 37
121 28

$$$$

     RDKit          2D

  8  8  0  0  0  0  0  0  0  0999 V2000
   -1.4636    1.3774    0.0000 C   0  0  0  0  0  0  0  0  0  0  0  0
   -0.6043   -2.4006    0.0000 C   0  0  0  0  0  0  0  0  0  0  0  0
    0.7714   -1.7978    0.0000 C   0  0  0  0  0  0  0  0  0  0  0  0
   -0.8541    0.0068    0.0000 C   0  0  0  0  0  0  0  0  0  0  0  0
   -1.6041   -1.2923    0.0000 C   0  0  0  0  0  0  0  0  0  0  0  0
    0.6057   -0.3049    0.0000 C   0  0  0  0  0  0  0  0  0  0  0  0
   -3.0958   -1.4497    0.0000 O   0  0  0  0  0  0  0  0  0  0  0  0
    1.7179    0.7016    0.0000 O   0  0  0  0  0  0  0  0  0  0  0  0
  3  2  1  0
  4  1  1  0
  5  2  1  0
  5  4  1  0
  6  3  1  0
  6  4  1  0
  7  5  2  0
  8  6  2  0
M  END
>  <NAME>  (3633) 
2-METHYL-1,3-CYCLOPENTANEDIONE

>  <SYNONYMS>  (3633) 


>  <SPECTRUM TYPE>  (3633) 
MS1

>  <INSTRUMENT TYPE>  (3633) 
EI-B

>  <INSTRUMENT>  (3633) 
JEOL JMS-DX-300

>  <ION MODE>  (3633) 
P

>  <INCHIKEY>  (3633) 
HXZILEQYFQYQCE-UHFFFAOYSA-N

>  <FORMULA>  (3633) 
C6H8O2

>  <EXACT MASS>  (3633) 
112.052429496

>  <MW>  (3633) 
112

>  <ID>  (3633) 
JP006376

>  <CONTRIBUTOR>  (3633) 
University of Tokyo Team, {Faculty of Engineering, University of Tokyo

>  <COMMENT>  (3633) 
SMILES=O=C(C1)C(C)C(=O)C1
cas=765-69-5
InChI=InChI=1S/C6H8O2/c1-4-5(7)2-3-6(4)8/h4H,2-3H2,1H3
computed SMILES=O=C1CCC(=O)C1C
accession=JP006376
date=2016.01.19 (Created 2008.10.21, modified 2011.05.06)
author=HISAHIRO HAGIWARA, CHEMICAL RESEARCH INSTITUTE OF NON-AQUEOUSSOLUTIONS TOHOKU UNIV.
license=CC BY-NC-SA
exact mass=112.05243
ionization energy=70 eV
ion type=[M]+*
computed spectral entropy=2.8872810242592992
computed normalized entropy=0.8120951800847745
SPLASH=splash10-0bu0-9200000000-2c67f4d6f117219533ac
submitter=submitter = University of Tokyo Team (Faculty of Engineering, University of Tokyo)
MoNA Rating=3.75

>  <NUM PEAKS>  (3633) 
35

>  <MASS SPECTRAL PEAKS>  (3633) 
31 2.83
32 49.87
37 1.18
38 2.19
39 13.13
40 5.78
41 17.88
42 10.27
43 29.36
44 4.83
45 1.7
50 1.89
51 2.66
52 1.97
53 8.79
54 5.75
55 47.3
56 55.92
57 20.13
58 4.51
63 1.24
65 4.29
66 5.01
67 5.77
68 1.25
69 18.78
70 13.41
82 1.09
83 45.83
84 9.04
85 6.45
97 3.56
111 16.57
112 99.99
113 7.78

>  <PREDICTED SPECTRUM>  (3633) 
28 67
40 9
41 346
42 312
43 229
55 615
56 806
57 306
69 90
70 359
71 44
83 339
84 287
85 29
97 23
112 999
113 129

$$$$

     RDKit          2D

  6  6  0  0  0  0  0  0  0  0999 V2000
    2.5300    1.2990    0.0000 C   0  0  0  0  0  0  0  0  0  0  0  0
   -1.0200   -0.7500    0.0000 C   0  0  0  0  0  0  0  0  0  0  0  0
   -1.0200    0.7500    0.0000 C   0  0  0  0  0  0  0  0  0  0  0  0
    1.7800   -0.0000    0.0000 C   0  0  0  0  0  0  0  0  0  0  0  0
    0.2800    0.0000    0.0000 C   0  0  0  0  0  0  0  0  0  0  0  0
    2.5300   -1.2990    0.0000 O   0  0  0  0  0  0  0  0  0  0  0  0
  3  2  1  0
  4  1  1  0
  5  2  1  0
  5  3  1  0
  5  4  1  0
  6  4  2  0
M  END
>  <NAME>  (3634) 
CYCLOPROPYL METHYL KETONE

>  <SYNONYMS>  (3634) 


>  <SPECTRUM TYPE>  (3634) 
MS1

>  <INSTRUMENT TYPE>  (3634) 
EI-B

>  <INSTRUMENT>  (3634) 
JEOL JMS-DX-300

>  <ION MODE>  (3634) 
P

>  <INCHIKEY>  (3634) 
HVCFCNAITDHQFX-UHFFFAOYSA-N

>  <FORMULA>  (3634) 
C5H8O

>  <EXACT MASS>  (3634) 
84.057514876

>  <MW>  (3634) 
84

>  <ID>  (3634) 
JP006374

>  <CONTRIBUTOR>  (3634) 
University of Tokyo Team, {Faculty of Engineering, University of Tokyo

>  <COMMENT>  (3634) 
SMILES=CC(=O)C(C1)C1
cas=765-43-5
InChI=InChI=1S/C5H8O/c1-4(6)5-2-3-5/h5H,2-3H2,1H3
computed SMILES=O=C(C)C1CC1
accession=JP006374
date=2016.01.19 (Created 2008.10.21, modified 2011.05.06)
author=HISAHIRO HAGIWARA, CHEMICAL RESEARCH INSTITUTE OF NON-AQUEOUSSOLUTIONS TOHOKU UNIV.
license=CC BY-NC-SA
exact mass=84.05751
ionization energy=70 eV
ion type=[M]+*
computed spectral entropy=1.863638324516379
computed normalized entropy=0.6721654421975992
SPLASH=splash10-00kf-9000000000-230b5cc14d7e85f79544
submitter=submitter = University of Tokyo Team (Faculty of Engineering, University of Tokyo)
MoNA Rating=3.75

>  <NUM PEAKS>  (3634) 
16

>  <MASS SPECTRAL PEAKS>  (3634) 
37 1.55
38 3.69
39 25.79
40 1.06
41 55.23
42 7.82
43 99.99
44 1.68
51 1.05
53 1.63
55 2.35
69 77.81
70 3.85
83 3.79
84 27.25
85 1.74

>  <PREDICTED SPECTRUM>  (3634) 
14 60
15 128
16 6
18 20
25 29
26 129
27 303
28 150
29 181
31 21
36 7
37 78
38 126
39 383
40 161
41 593
42 197
43 999
44 153
50 107
51 131
52 43
53 171
54 68
55 208
56 93
57 27
63 2
65 27
66 86
67 51
69 461
70 45
83 155
84 332
85 66

$$$$

     RDKit          2D

 13 13  0  0  0  0  0  0  0  0999 V2000
    3.9079    3.6547    0.0000 C   0  0  0  0  0  0  0  0  0  0  0  0
   -2.9868   -0.3245    0.0000 C   0  0  0  0  0  0  0  0  0  0  0  0
    4.1682    2.1774    0.0000 C   0  0  0  0  0  0  0  0  0  0  0  0
   -1.5772    0.1882    0.0000 C   0  0  0  0  0  0  0  0  0  0  0  0
    2.8802   -2.5270    0.0000 C   0  0  0  0  0  0  0  0  0  0  0  0
    1.3794   -2.5274    0.0000 C   0  0  0  0  0  0  0  0  0  0  0  0
    3.2794   -0.2639    0.0000 C   0  0  0  0  0  0  0  0  0  0  0  0
    0.9813   -0.2635    0.0000 C   0  0  0  0  0  0  0  0  0  0  0  0
    2.1302   -1.2279    0.0000 C   0  0  0  0  0  0  0  0  0  0  0  0
    4.6888   -0.7770    0.0000 O   0  0  0  0  0  0  0  0  0  0  0  0
    1.2421    1.2137    0.0000 O   0  0  0  0  0  0  0  0  0  0  0  0
    3.0190    1.2134    0.0000 O   0  0  0  0  0  0  0  0  0  0  0  0
   -0.4283   -0.7762    0.0000 O   0  0  0  0  0  0  0  0  0  0  0  0
  3  1  1  0
  4  2  1  0
  6  5  1  0
  9  5  1  0
  9  6  1  0
  9  7  1  0
  9  8  1  0
 10  7  2  0
 11  8  2  0
 12  3  1  0
 12  7  1  0
 13  4  1  0
 13  8  1  0
M  END
>  <NAME>  (3635) 
DIETHYL 1,1-CYCLOPROPANEDICARBOXYLATE

>  <SYNONYMS>  (3635) 


>  <SPECTRUM TYPE>  (3635) 
MS1

>  <INSTRUMENT TYPE>  (3635) 
EI-B

>  <INSTRUMENT>  (3635) 
JEOL JMS-DX-300

>  <ION MODE>  (3635) 
P

>  <INCHIKEY>  (3635) 
KYYUCZOHNYSLFV-UHFFFAOYSA-N

>  <FORMULA>  (3635) 
C9H14O4

>  <EXACT MASS>  (3635) 
186.089208928

>  <MW>  (3635) 
186

>  <ID>  (3635) 
JP006373

>  <CONTRIBUTOR>  (3635) 
University of Tokyo Team, {Faculty of Engineering, University of Tokyo

>  <COMMENT>  (3635) 
SMILES=CCOC(=O)C(C1)(C1)C(=O)OCC
cas=1559-02-0
InChI=InChI=1S/C9H14O4/c1-3-12-7(10)9(5-6-9)8(11)13-4-2/h3-6H2,1-2H3
computed SMILES=O=C(OCC)C1(C(=O)OCC)CC1
accession=JP006373
date=2016.01.19 (Created 2008.10.21, modified 2011.05.06)
author=HISAHIRO HAGIWARA, CHEMICAL RESEARCH INSTITUTE OF NON-AQUEOUSSOLUTIONS TOHOKU UNIV.
license=CC BY-NC-SA
exact mass=186.08921
ionization energy=70 eV
ion type=[M]+*
computed spectral entropy=2.9475294318977006
computed normalized entropy=0.7937181180150225
SPLASH=splash10-03dl-3900000000-386aa6d0ba2304031463
submitter=submitter = University of Tokyo Team (Faculty of Engineering, University of Tokyo)
MoNA Rating=3.75

>  <NUM PEAKS>  (3635) 
41

>  <MASS SPECTRAL PEAKS>  (3635) 
30 1.18
31 2.33
39 10.71
40 9.01
41 14.92
42 1.66
45 6.52
53 2.12
54 1.97
55 1.97
57 2.04
59 1.21
67 1.71
68 11.61
69 11.04
71 1.19
82 7.14
83 1.47
84 5.38
85 10.98
86 17.09
87 1.57
95 12.05
96 1.72
97 5
99 3
111 1.25
112 48.25
113 60.9
114 23.55
129 1.09
130 43.39
131 4.76
140 4.78
141 99.99
142 10.52
143 1.82
158 27.07
159 22
160 2.43
186 5.37

>  <PREDICTED SPECTRUM>  (3635) 
25 19
26 195
27 629
28 251
29 578
30 49
31 197
38 61
39 465
40 256
41 678
42 236
43 309
44 172
45 278
51 48
53 181
54 86
55 378
56 253
57 525
58 67
59 5
60 17
66 382
67 680
68 373
69 125
72 20
73 133
81 65
83 461
84 648
85 824
86 294
94 278
95 215
96 29
98 64
99 90
102 80
103 53
111 191
112 751
113 999
114 284
130 20
131 63
140 336
141 477
142 84
157 1
158 202
159 118
186 112
187 35

$$$$

     RDKit          2D

 12 12  0  0  0  0  0  0  0  0999 V2000
   -2.2500   -1.3000    0.0000 C   0  0  0  0  0  0  0  0  0  0  0  0
   -1.3000   -2.2500    0.0000 C   0  0  0  0  0  0  0  0  0  0  0  0
   -2.2500    1.3000    0.0000 C   0  0  0  0  0  0  0  0  0  0  0  0
   -1.3000    2.2500    0.0000 C   0  0  0  0  0  0  0  0  0  0  0  0
    1.3000   -2.2500    0.0000 C   0  0  0  0  0  0  0  0  0  0  0  0
    2.2500   -1.3000    0.0000 C   0  0  0  0  0  0  0  0  0  0  0  0
    1.3000    2.2500    0.0000 C   0  0  0  0  0  0  0  0  0  0  0  0
    2.2500    1.3000    0.0000 C   0  0  0  0  0  0  0  0  0  0  0  0
   -1.5000   -0.0000    0.0000 O   0  0  0  0  0  0  0  0  0  0  0  0
    0.0000   -1.5000    0.0000 O   0  0  0  0  0  0  0  0  0  0  0  0
    0.0000    1.5000    0.0000 O   0  0  0  0  0  0  0  0  0  0  0  0
    1.5000   -0.0000    0.0000 O   0  0  0  0  0  0  0  0  0  0  0  0
  2  1  1  0
  4  3  1  0
  6  5  1  0
  8  7  1  0
  9  1  1  0
  9  3  1  0
 10  2  1  0
 10  5  1  0
 11  4  1  0
 11  7  1  0
 12  6  1  0
 12  8  1  0
M  END
>  <NAME>  (3636) 
1,4,7,10-TETRAOXACYCLODODECANE

>  <SYNONYMS>  (3636) 
12-CROWN-4

>  <SPECTRUM TYPE>  (3636) 
MS1

>  <INSTRUMENT TYPE>  (3636) 
EI-B

>  <INSTRUMENT>  (3636) 
JEOL JMS-DX-300

>  <ION MODE>  (3636) 
P

>  <INCHIKEY>  (3636) 
XQQZRZQVBFHBHL-UHFFFAOYSA-N

>  <FORMULA>  (3636) 
C8H16O4

>  <EXACT MASS>  (3636) 
176.104858992

>  <MW>  (3636) 
176

>  <ID>  (3636) 
JP006372

>  <CONTRIBUTOR>  (3636) 
University of Tokyo Team, {Faculty of Engineering, University of Tokyo

>  <COMMENT>  (3636) 
SMILES=C(C1)OCCOCCOCCO1
InChI=InChI=1S/C8H16O4/c1-2-10-5-6-12-8-7-11-4-3-9-1/h1-8H2
computed SMILES=O1CCOCCOCCOCC1
accession=JP006372
date=2016.01.19 (Created 2008.10.21, modified 2011.05.06)
author=HISAHIRO HAGIWARA, CHEMICAL RESEARCH INSTITUTE OF NON-AQUEOUSSOLUTIONS TOHOKU UNIV.
license=CC BY-NC-SA
exact mass=176.10486
ionization energy=70 eV
ion type=[M]+*
computed spectral entropy=3.1851667612342194
computed normalized entropy=0.7984907244684556
SPLASH=splash10-0ac9-9100000000-0491cee54d834aaf2e40
submitter=submitter = University of Tokyo Team (Faculty of Engineering, University of Tokyo)
MoNA Rating=3.75

>  <NUM PEAKS>  (3636) 
54

>  <MASS SPECTRAL PEAKS>  (3636) 
30 19.19
31 90.49
32 2.47
33 2.36
40 1.14
41 17.17
42 71.48
46 22.18
51 2
54 1.19
55 1.41
56 9.77
57 63.73
58 90.49
59 83.8
60 5.59
61 9.86
62 1.78
63 1.14
69 3.24
70 24.47
71 18.31
72 91.2
73 99.99
74 16.55
75 31.87
76 1.61
85 1.47
86 20.07
87 94.01
88 53.52
90 8.14
91 1.14
92 2.11
99 2.71
100 2.91
101 22.18
102 14.79
103 12.5
104 8.63
105 1.76
107 1.54
113 1.01
114 1.54
115 2.49
117 12.54
118 1.74
119 3.68
128 1.5
132 1.45
133 33.1
134 3.48
175 1.08
177 11.29

>  <PREDICTED SPECTRUM>  (3636) 
14 50
15 142
16 34
17 16
18 47
19 38
25 15
26 126
27 293
28 356
29 451
30 75
31 403
32 59
33 12
41 198
42 372
43 803
44 548
45 999
46 187
47 50
54 3
56 51
57 325
58 395
59 279
70 156
71 139
72 214
73 369
74 68
86 217
87 245
88 186
89 476
90 139
99 29
101 252
102 62
103 85
117 72
133 87
145 3
146 105

$$$$

     RDKit          2D

  5  4  0  0  0  0  0  0  0  0999 V2000
   -3.8971    2.2500    0.0000 C   0  0  0  0  0  0  0  0  0  0  0  0
   -2.5981    1.5000    0.0000 C   0  0  0  0  0  0  0  0  0  0  0  0
   -1.2990    2.2500    0.0000 C   0  0  0  0  0  0  0  0  0  0  0  0
    0.0000    1.5000    0.0000 C   0  0  0  0  0  0  0  0  0  0  0  0
    1.2990    2.2500    0.0000 Br  0  0  0  0  0  0  0  0  0  0  0  0
  2  1  2  0
  3  2  1  0
  4  3  1  0
  5  4  1  0
M  END
>  <NAME>  (3637) 
4-BROMO-1-BUTENE

>  <SYNONYMS>  (3637) 


>  <SPECTRUM TYPE>  (3637) 
MS1

>  <INSTRUMENT TYPE>  (3637) 
EI-B

>  <INSTRUMENT>  (3637) 
JEOL JMS-DX-300

>  <ION MODE>  (3637) 
P

>  <INCHIKEY>  (3637) 
DMAYBPBPEUFIHJ-UHFFFAOYSA-N

>  <FORMULA>  (3637) 
C4H7Br

>  <EXACT MASS>  (3637) 
133.973112324

>  <MW>  (3637) 
134

>  <ID>  (3637) 
JP006371

>  <CONTRIBUTOR>  (3637) 
University of Tokyo Team, {Faculty of Engineering, University of Tokyo

>  <COMMENT>  (3637) 
SMILES=C=CCCBr
cas=5162-44-7
InChI=InChI=1S/C4H7Br/c1-2-3-4-5/h2H,1,3-4H2
computed SMILES=BrCCC=C
accession=JP006371
date=2016.01.19 (Created 2008.10.21, modified 2011.05.06)
author=HISAHIRO HAGIWARA, CHEMICAL RESEARCH INSTITUTE OF NON-AQUEOUSSOLUTIONS TOHOKU UNIV.
license=CC BY-NC-SA
exact mass=133.97311
ionization energy=70 eV
ion type=[M]+*
computed spectral entropy=2.0034957548790038
computed normalized entropy=0.6580656887446495
SPLASH=splash10-0a4l-9000000000-7c322d509c7148c3f242
submitter=submitter = University of Tokyo Team (Faculty of Engineering, University of Tokyo)
MoNA Rating=3.75

>  <NUM PEAKS>  (3637) 
21

>  <MASS SPECTRAL PEAKS>  (3637) 
37 1.97
38 3.13
39 17.74
40 1.35
41 15.46
42 7.63
43 99.27
44 2.16
50 1.64
53 5.92
54 3.41
55 99.99
56 5.26
57 1.53
58 48.37
59 1.62
80 1.93
82 1.85
108 1.45
134 6.16
136 5.97

>  <PREDICTED SPECTRUM>  (3637) 
14 36
15 51
25 53
26 186
27 394
28 196
29 153
36 32
37 137
38 201
39 540
40 174
41 652
42 161
49 66
50 151
51 217
52 102
53 278
54 269
55 999
56 164
67 32
77 43
79 12
81 0
93 123
94 180
106 12
108 83
134 133
136 168

$$$$

     RDKit          2D

 13 14  0  0  0  0  0  0  0  0999 V2000
    1.3000   -3.0000    0.0000 C   0  0  0  0  0  0  0  0  0  0  0  0
    0.0000    2.2500    0.0000 C   0  0  0  0  0  0  0  0  0  0  0  0
   -2.6000   -0.7500    0.0000 C   0  0  0  0  0  0  0  0  0  0  0  0
   -2.6000    0.7500    0.0000 C   0  0  0  0  0  0  0  0  0  0  0  0
   -1.3000   -1.5000    0.0000 C   0  0  0  0  0  0  0  0  0  0  0  0
    2.6000    0.7500    0.0000 C   0  0  0  0  0  0  0  0  0  0  0  0
   -1.3000    1.5000    0.0000 C   0  0  0  0  0  0  0  0  0  0  0  0
    1.3000    1.5000    0.0000 C   0  0  0  0  0  0  0  0  0  0  0  0
    1.3000   -1.5000    0.0000 C   0  0  0  0  0  0  0  0  0  0  0  0
    0.0000   -0.7500    0.0000 C   0  0  0  0  0  0  0  0  0  0  0  0
    2.6000   -0.7500    0.0000 C   0  0  0  0  0  0  0  0  0  0  0  0
    0.0000    0.7500    0.0000 C   0  0  0  0  0  0  0  0  0  0  0  0
    3.8989   -1.5002    0.0000 O   0  0  0  0  0  0  0  0  0  0  0  0
  4  3  1  0
  5  3  1  0
  7  4  1  0
  8  6  1  0
  9  1  1  0
 10  5  1  0
 10  9  2  0
 11  6  1  0
 11  9  1  0
 12  2  1  0
 12  7  1  0
 12  8  1  0
 12 10  1  0
 13 11  2  0
M  END
>  <NAME>  (3638) 
4,4A,5,6,7,8-HEXAHYDRO-1,4A-DIMETHYL-2(3H)-NAPHTHALENONE

>  <SYNONYMS>  (3638) 


>  <SPECTRUM TYPE>  (3638) 
MS1

>  <INSTRUMENT TYPE>  (3638) 
EI-B

>  <INSTRUMENT>  (3638) 
JEOL JMS-DX-300

>  <ION MODE>  (3638) 
P

>  <INCHIKEY>  (3638) 
WNVZKCBLUKHUBI-UHFFFAOYSA-N

>  <FORMULA>  (3638) 
C12H18O

>  <EXACT MASS>  (3638) 
178.135765196

>  <MW>  (3638) 
178

>  <ID>  (3638) 
JP006370

>  <CONTRIBUTOR>  (3638) 
University of Tokyo Team, {Faculty of Engineering, University of Tokyo

>  <COMMENT>  (3638) 
SMILES=O=C(C1)C(C)=C(C2)C(C)(CCC2)C1
InChI=InChI=1S/C12H18O/c1-9-10-5-3-4-7-12(10,2)8-6-11(9)13/h3-8H2,1-2H3
computed SMILES=O=C1C(=C2CCCCC2(C)CC1)C
accession=JP006370
date=2016.01.19 (Created 2008.10.21, modified 2011.05.06)
author=HISAHIRO HAGIWARA, CHEMICAL RESEARCH INSTITUTE OF NON-AQUEOUSSOLUTIONS TOHOKU UNIV.
license=CC BY-NC-SA
exact mass=178.13577
ionization energy=70 eV
ion type=[M]+*
computed spectral entropy=3.7098476823872275
computed normalized entropy=0.9344017425328603
SPLASH=splash10-052f-8900000000-f7d6d70a8da1dc7bd160
submitter=submitter = University of Tokyo Team (Faculty of Engineering, University of Tokyo)
MoNA Rating=3.75

>  <NUM PEAKS>  (3638) 
53

>  <MASS SPECTRAL PEAKS>  (3638) 
39 17.33
41 27.96
42 5.92
43 99.99
53 12.52
55 35.67
57 14.6
58 27.19
65 8.33
67 27.82
68 5.47
69 11.97
77 16.34
79 27.6
80 5.54
81 20.13
83 6.99
91 22.34
93 34
94 8.32
95 19.64
97 6.45
105 14.6
107 31.92
108 9.6
109 35.67
110 14.52
111 14.65
112 13.96
119 9.05
121 32.78
122 11.37
123 18.35
124 7.73
133 13.66
135 32.38
136 32.16
137 21.85
138 8.16
139 5.06
147 6.62
149 16.51
150 9.19
151 11.71
161 6.18
163 23.4
164 5.36
165 7.31
166 6.92
176 6.41
177 25.6
178 3.53
179 9.26

>  <PREDICTED SPECTRUM>  (3638) 
15 6
26 75
27 362
28 190
29 263
38 143
39 659
40 332
41 820
42 348
43 373
44 142
45 99
50 208
51 499
52 331
53 610
54 334
55 683
56 206
57 225
58 43
59 2
60 64
62 99
63 277
64 141
65 508
66 330
67 758
68 374
69 377
70 103
71 110
74 41
75 23
76 41
77 795
78 432
79 999
80 465
81 518
82 320
83 223
84 163
85 43
89 74
90 38
91 874
92 328
93 735
94 545
95 599
96 355
97 213
98 43
99 88
102 32
103 112
104 162
105 518
106 201
107 793
108 640
109 612
110 492
111 297
112 143
115 112
116 82
117 162
118 19
119 289
120 186
121 844
122 833
123 571
124 351
125 102
127 51
129 68
131 132
132 68
133 234
134 166
135 935
136 666
137 630
138 329
145 223
146 2
147 113
148 16
149 519
150 819
151 288
159 124
160 148
161 257
162 36
163 950
164 333
165 53
177 391
178 968
179 378
180 57

$$$$

     RDKit          2D

 13 14  0  0  1  0  0  0  0  0999 V2000
   -1.0100   -3.0000    0.0000 C   0  0  0  0  0  0  0  0  0  0  0  0
    0.4487    2.2416    0.0000 C   0  0  0  0  0  0  0  0  0  0  0  0
    1.7200   -1.2100    0.0000 C   0  0  0  0  0  0  0  0  0  0  0  0
    2.6000    0.0000    0.0000 C   0  0  0  0  0  0  0  0  0  0  0  0
   -2.3100    0.7500    0.0000 C   0  0  0  0  0  0  0  0  0  0  0  0
   -1.0100    1.5000    0.0000 C   0  0  0  0  0  0  0  0  0  0  0  0
   -1.0100   -1.5000    0.0000 C   0  0  0  0  0  0  0  0  0  0  0  0
    0.2900   -0.7500    0.0000 C   0  0  0  0  0  0  0  0  0  0  0  0
   -2.3100   -0.7500    0.0000 C   0  0  0  0  0  0  0  0  0  0  0  0
    1.7200    1.2100    0.0000 C   0  0  0  0  0  0  0  0  0  0  0  0
    0.2900    0.7500    0.0000 C   0  0  0  0  0  0  0  0  0  0  0  0
   -3.6089   -1.5002    0.0000 O   0  0  0  0  0  0  0  0  0  0  0  0
    2.1853    2.6360    0.0000 O   0  0  0  0  0  0  0  0  0  0  0  0
  4  3  1  0
  6  5  1  0
  7  1  1  0
  8  3  1  0
  8  7  2  0
  9  5  1  0
  9  7  1  0
 10  4  1  0
 11  2  1  1
 11  6  1  0
 11  8  1  0
 11 10  1  0
 12  9  2  0
 13 10  2  0
M  END
>  <NAME>  (3639) 
(S)-2,3,7,7A-TETRAHYDRO-4,7A-DIMETHYL-1H-INDENE-1,5(6H)-DIONE

>  <SYNONYMS>  (3639) 


>  <SPECTRUM TYPE>  (3639) 
MS1

>  <INSTRUMENT TYPE>  (3639) 
EI-B

>  <INSTRUMENT>  (3639) 
JEOL JMS-DX-300

>  <ION MODE>  (3639) 
P

>  <INCHIKEY>  (3639) 
NERGSGSEJNCZBN-NSHDSACASA-N

>  <FORMULA>  (3639) 
C11H14O2

>  <EXACT MASS>  (3639) 
178.099379688

>  <MW>  (3639) 
178

>  <ID>  (3639) 
JP006369

>  <CONTRIBUTOR>  (3639) 
University of Tokyo Team, {Faculty of Engineering, University of Tokyo

>  <COMMENT>  (3639) 
SMILES=O=C(C2)C(C)=C(C1)C(C)(C2)C(=O)C1
InChI=InChI=1S/C11H14O2/c1-7-8-3-4-10(13)11(8,2)6-5-9(7)12/h3-6H2,1-2H3/t11-/m0/s1
computed SMILES=O=C1C(=C2CCC(=O)C2(C)CC1)C
accession=JP006369
date=2016.01.19 (Created 2008.10.21, modified 2011.05.06)
author=HISAHIRO HAGIWARA, CHEMICAL RESEARCH INSTITUTE OF NON-AQUEOUSSOLUTIONS TOHOKU UNIV.
license=CC BY-NC-SA
exact mass=178.09938
ionization energy=70 eV
ion type=[M]+*
computed spectral entropy=3.471191997600076
computed normalized entropy=0.8919199068069114
SPLASH=splash10-000i-9300000000-0388f42f2ff4acc95ee5
submitter=submitter = University of Tokyo Team (Faculty of Engineering, University of Tokyo)
MoNA Rating=3.75

>  <NUM PEAKS>  (3639) 
49

>  <MASS SPECTRAL PEAKS>  (3639) 
31 16.02
32 88.79
38 15.3
39 71.72
40 17.61
41 20.05
42 56.61
44 8.84
45 10.06
47 5.61
50 9.45
51 12.07
53 10.54
54 9.93
55 16.27
56 17.43
57 32.6
58 88.79
59 25.17
63 9.81
65 20.11
67 11.88
69 10.91
70 10.85
73 5.36
77 38.82
78 5.24
79 39.55
80 21.27
82 7.37
83 9.45
84 0.64
91 32.85
93 41.01
96 6.46
105 7.13
107 14.81
120 7.37
121 45.16
122 1.67
135 41.26
136 99.99
137 12.74
150 8.17
158 5.3
162 5.48
178 52.22
179 9.81
181 5.18

>  <PREDICTED SPECTRUM>  (3639) 
26 36
27 137
28 37
29 68
33 7
37 51
38 121
39 447
40 257
41 550
42 321
43 296
44 134
45 105
47 3
49 18
50 170
51 384
52 314
53 461
54 253
55 385
56 187
57 213
58 172
59 122
60 18
62 45
63 143
64 100
65 349
66 247
67 443
68 167
69 255
70 122
71 60
72 50
73 32
74 13
75 15
77 432
78 334
79 614
80 249
81 188
82 189
83 121
84 72
85 32
86 17
91 367
92 143
93 406
94 203
95 180
96 138
97 94
99 85
102 7
103 36
105 185
106 100
107 329
108 241
109 37
117 43
119 99
120 134
121 595
122 223
123 153
124 8
133 44
134 43
135 568
136 999
137 300
138 70
149 106
150 179
151 40
161 16
163 93
178 581
179 233
180 58

$$$$

     RDKit          2D

 23 25  0  0  1  0  0  0  0  0999 V2000
   -1.3000   -3.0000    0.0000 C   0  0  0  0  0  0  0  0  0  0  0  0
    0.0000    2.2500    0.0000 C   0  0  0  0  0  0  0  0  0  0  0  0
    2.6000   -0.7500    0.0000 C   0  0  0  0  0  0  0  0  0  0  0  0
    1.3000   -1.5000    0.0000 C   0  0  0  0  0  0  0  0  0  0  0  0
    2.6000    0.7500    0.0000 C   0  0  0  0  0  0  0  0  0  0  0  0
    1.3001    6.0002    0.0000 C   0  0  0  0  0  0  0  0  0  0  0  0
    3.8987    6.0006    0.0000 C   0  0  0  0  0  0  0  0  0  0  0  0
    1.3008    7.5010    0.0000 C   0  0  0  0  0  0  0  0  0  0  0  0
    3.8994    7.5015    0.0000 C   0  0  0  0  0  0  0  0  0  0  0  0
   -2.6000    0.7500    0.0000 C   0  0  0  0  0  0  0  0  0  0  0  0
   -1.3000    1.5000    0.0000 C   0  0  0  0  0  0  0  0  0  0  0  0
   -1.3000   -1.5000    0.0000 C   0  0  0  0  0  0  0  0  0  0  0  0
    2.5990    5.2500    0.0000 C   0  0  0  0  0  0  0  0  0  0  0  0
    2.6005    8.2517    0.0000 C   0  0  0  0  0  0  0  0  0  0  0  0
    0.0000   -0.7500    0.0000 C   0  0  0  0  0  0  0  0  0  0  0  0
   -2.6000   -0.7500    0.0000 C   0  0  0  0  0  0  0  0  0  0  0  0
    1.3000    1.5000    0.0000 C   0  0  0  0  0  0  0  0  0  0  0  0
    2.5990    3.7500    0.0000 C   0  0  0  0  0  0  0  0  0  0  0  0
    0.0000    0.7500    0.0000 C   0  0  0  0  0  0  0  0  0  0  0  0
    2.6005    9.7517    0.0000 Br  0  0  0  0  0  0  0  0  0  0  0  0
   -3.8989   -1.5002    0.0000 O   0  0  0  0  0  0  0  0  0  0  0  0
    3.8981    3.0000    0.0000 O   0  0  0  0  0  0  0  0  0  0  0  0
    1.3000    3.0000    0.0000 O   0  0  0  0  0  0  0  0  0  0  0  0
  4  3  1  0
  5  3  1  0
  8  6  2  0
  9  7  1  0
 11 10  1  0
 12  1  1  0
 13  6  1  0
 13  7  2  0
 14  8  1  0
 14  9  2  0
 15  4  1  0
 15 12  2  0
 16 10  1  0
 16 12  1  0
 17  5  1  0
 18 13  1  0
 19  2  1  1
 19 11  1  0
 19 15  1  0
 19 17  1  0
 20 14  1  0
 21 16  2  0
 22 18  2  0
 17 23  1  1
 23 18  1  0
M  END
>  <NAME>  (3640) 
(4AS,5S)-(+)-1,4ABETA-DIMETHYL-5BETA((P-BROMOBENZOYL)OXY)-4,4A,5,6,7,8-HEXAHYDRONAPHTHALEN-2(3H)-ONE

>  <SYNONYMS>  (3640) 


>  <SPECTRUM TYPE>  (3640) 
MS1

>  <INSTRUMENT TYPE>  (3640) 
EI-B

>  <INSTRUMENT>  (3640) 
JEOL JMS-DX-300

>  <ION MODE>  (3640) 
P

>  <INCHIKEY>  (3640) 
VLZZWVVPCSKXNE-HKUYNNGSSA-N

>  <FORMULA>  (3640) 
C19H21BrO3

>  <EXACT MASS>  (3640) 
376.06740663200003

>  <MW>  (3640) 
376

>  <ID>  (3640) 
JP006368

>  <CONTRIBUTOR>  (3640) 
University of Tokyo Team, {Faculty of Engineering, University of Tokyo

>  <COMMENT>  (3640) 
SMILES=Brc(c3)ccc(c3)C(=O)OC([H])(C2)C(C)(C1)C(CC2)=C(C)C(=O)C1
InChI=InChI=1S/C19H21BrO3/c1-12-15-4-3-5-17(19(15,2)11-10-16(12)21)23-18(22)13-6-8-14(20)9-7-13/h6-9,17H,3-5,10-11H2,1-2H3/t17-,19-/m0/s1
computed SMILES=O=C(OC1CCCC2=C(C(=O)CCC21C)C)C3=CC=C(Br)C=C3
accession=JP006368
date=2016.01.19 (Created 2008.10.21, modified 2011.05.06)
author=HISAHIRO HAGIWARA, CHEMICAL RESEARCH INSTITUTE OF NON-AQUEOUSSOLUTIONS TOHOKU UNIV.
license=CC BY-NC-SA
exact mass=376.06741
ionization energy=70 eV
ion type=[M]+*
computed spectral entropy=2.6187722923266636
computed normalized entropy=0.6962597606545495
SPLASH=splash10-001r-1900000000-9a18b74a6bf628a5c820
submitter=submitter = University of Tokyo Team (Faculty of Engineering, University of Tokyo)
MoNA Rating=3.75

>  <NUM PEAKS>  (3640) 
43

>  <MASS SPECTRAL PEAKS>  (3640) 
27 1.21
39 1.8
41 3.64
50 2.43
51 1.07
53 1.91
55 2.67
65 1.32
67 1.53
75 3.22
76 7
77 4.04
79 3.4
91 4.31
93 2.72
104 5.38
105 4.41
107 1.13
118 11.12
119 3.75
120 1.04
121 1.08
132 7.05
133 3.75
134 1.98
147 1.26
148 1.65
155 9.73
156 1.05
157 10.04
158 3.48
161 2.35
176 22.37
177 2.95
183 99.99
184 8.12
185 99.15
186 7.89
202 1.12
376 5.82
377 1.65
378 5.61
379 1.53

>  <PREDICTED SPECTRUM>  (3640) 
27 19
28 4
29 13
38 6
39 114
40 37
41 143
42 20
43 25
44 16
50 159
51 55
52 15
53 114
54 4
55 115
56 17
57 22
65 121
66 42
67 136
68 1
69 57
70 34
74 32
75 203
76 272
77 166
78 61
79 118
80 72
81 88
82 17
91 163
92 79
93 130
94 1
95 31
97 21
103 80
104 205
105 167
106 67
107 38
109 44
115 46
117 36
118 51
119 131
120 69
121 83
122 22
123 40
129 41
131 77
132 78
133 157
134 164
135 63
136 29
146 10
147 143
148 106
149 49
150 4
155 434
156 43
157 381
158 109
159 10
160 12
161 62
162 45
163 11
175 21
176 262
177 181
178 67
183 999
184 183
185 967
186 237
193 69
194 16
199 0
202 171
253 18
304 4
305 42
376 262
377 79
378 221
379 52

$$$$

     RDKit          2D

 15 15  0  0  1  0  0  0  0  0999 V2000
    6.2062   -0.5808    0.0000 C   0  0  0  0  0  0  0  0  0  0  0  0
   -1.5890   -3.5800    0.0000 C   0  0  0  0  0  0  0  0  0  0  0  0
    1.0090   -3.5800    0.0000 C   0  0  0  0  0  0  0  0  0  0  0  0
   -0.2900    3.1700    0.0000 C   0  0  0  0  0  0  0  0  0  0  0  0
    4.9070   -1.3306    0.0000 C   0  0  0  0  0  0  0  0  0  0  0  0
   -1.5900    0.9200    0.0000 C   0  0  0  0  0  0  0  0  0  0  0  0
   -1.5900   -0.5800    0.0000 C   0  0  0  0  0  0  0  0  0  0  0  0
    1.0100    0.9200    0.0000 C   0  0  0  0  0  0  0  0  0  0  0  0
   -0.2900   -2.8300    0.0000 C   0  0  0  0  0  0  0  0  0  0  0  0
   -0.2900    1.6700    0.0000 C   0  0  0  0  0  0  0  0  0  0  0  0
   -0.2900   -1.3300    0.0000 C   0  0  0  0  0  0  0  0  0  0  0  0
    1.0100   -0.5800    0.0000 C   0  0  0  0  0  0  0  0  0  0  0  0
    3.6081   -0.5804    0.0000 C   0  0  0  0  0  0  0  0  0  0  0  0
    3.6083    0.9196    0.0000 O   0  0  0  0  0  0  0  0  0  0  0  0
    2.3089   -1.3302    0.0000 O   0  0  0  0  0  0  0  0  0  0  0  0
  5  1  2  0
  7  6  1  0
  9  2  1  0
  9  3  1  0
 10  4  1  1
 10  6  1  0
 10  8  1  0
 11  7  1  0
 11  9  1  6
 12  8  1  0
 12 11  1  0
 13  5  1  0
 14 13  2  0
 12 15  1  1
 15 13  1  0
M  END
>  <NAME>  (3641) 
(-)-MENTHYL ACRYLATE

>  <SYNONYMS>  (3641) 


>  <SPECTRUM TYPE>  (3641) 
MS1

>  <INSTRUMENT TYPE>  (3641) 
EI-B

>  <INSTRUMENT>  (3641) 
JEOL JMS-DX-300

>  <ION MODE>  (3641) 
P

>  <INCHIKEY>  (3641) 
XJBRSZAYOKVFRH-GRYCIOLGSA-N

>  <FORMULA>  (3641) 
C13H22O2

>  <EXACT MASS>  (3641) 
210.161979944

>  <MW>  (3641) 
210

>  <ID>  (3641) 
JP006367

>  <CONTRIBUTOR>  (3641) 
University of Tokyo Team, {Faculty of Engineering, University of Tokyo

>  <COMMENT>  (3641) 
SMILES=C=CC(=O)OC([H])(C1)C([H])(C(C)C)CCC([H])(C)1
InChI=InChI=1S/C13H22O2/c1-5-13(14)15-12-8-10(4)6-7-11(12)9(2)3/h5,9-12H,1,6-8H2,2-4H3/t10-,11+,12-/m1/s1
computed SMILES=O=C(OC1CC(C)CCC1C(C)C)C=C
accession=JP006367
date=2016.01.19 (Created 2008.10.21, modified 2011.05.06)
author=HISAHIRO HAGIWARA, CHEMICAL RESEARCH INSTITUTE OF NON-AQUEOUSSOLUTIONS TOHOKU UNIV.
license=CC BY-NC-SA
exact mass=210.16198
ionization energy=70 eV
ion type=[M]+*
computed spectral entropy=2.989040028521803
computed normalized entropy=0.7947038010687252
SPLASH=splash10-053b-9200000000-c92f03dafff5b8946333
submitter=submitter = University of Tokyo Team (Faculty of Engineering, University of Tokyo)
MoNA Rating=3.75

>  <NUM PEAKS>  (3641) 
43

>  <MASS SPECTRAL PEAKS>  (3641) 
32 19.78
39 5.32
40 1.94
41 21.47
42 2.5
43 19.59
44 1.35
53 3.36
54 3.43
55 89.84
56 6.55
57 10.27
58 4.88
65 1.05
67 17.13
68 7.54
69 19.4
70 3.7
71 3.54
73 1.53
77 1.48
79 4
80 8.4
81 66.22
82 32.16
83 13.12
84 2.04
93 1.83
94 11.6
95 99.99
96 27.81
97 5.69
98 1.2
109 9.98
110 5.48
111 2.37
123 38.87
124 4.24
125 2.49
137 3.77
138 85.25
139 9.89
167 1.08

>  <PREDICTED SPECTRUM>  (3641) 
25 19
26 118
27 430
28 181
29 421
30 92
31 18
36 31
37 37
38 86
39 411
40 173
41 704
42 218
43 537
44 98
45 10
50 90
51 207
52 122
53 341
54 364
55 796
56 332
57 408
58 70
62 6
63 78
65 174
66 162
67 533
68 405
69 487
70 231
71 341
72 96
73 164
74 4
77 286
78 92
79 311
80 339
81 908
82 511
83 620
84 108
91 66
92 31
93 223
94 301
95 999
96 535
97 267
98 77
99 34
107 8
109 311
110 196
111 50
113 44
123 644
124 173
125 181
127 11
137 14
138 961
139 428
140 139
141 9
210 1

$$$$

     RDKit          2D

 19 20  0  0  1  0  0  0  0  0999 V2000
   -0.2900    3.1700    0.0000 C   0  0  0  0  0  0  0  0  0  0  0  0
   -1.5890   -3.5800    0.0000 C   0  0  0  0  0  0  0  0  0  0  0  0
    0.2230   -4.2395    0.0000 C   0  0  0  0  0  0  0  0  0  0  0  0
    6.6126   -2.8978    0.0000 C   0  0  0  0  0  0  0  0  0  0  0  0
    1.0100    0.9200    0.0000 C   0  0  0  0  0  0  0  0  0  0  0  0
    1.6933   -1.1575    0.0000 C   0  0  0  0  0  0  0  0  0  0  0  0
    2.1297   -3.7040    0.0000 C   0  0  0  0  0  0  0  0  0  0  0  0
    3.1419   -0.8799    0.0000 C   0  0  0  0  0  0  0  0  0  0  0  0
    3.6536   -3.4535    0.0000 C   0  0  0  0  0  0  0  0  0  0  0  0
    1.0100   -0.5800    0.0000 C   0  0  0  0  0  0  0  0  0  0  0  0
   -1.5900    0.9200    0.0000 C   0  0  0  0  0  0  0  0  0  0  0  0
   -0.2900    1.6700    0.0000 C   0  0  0  0  0  0  0  0  0  0  0  0
    1.1872   -2.5695    0.0000 C   0  0  0  0  0  0  0  0  0  0  0  0
    4.1597   -2.0414    0.0000 C   0  0  0  0  0  0  0  0  0  0  0  0
   -0.2900   -1.3300    0.0000 C   0  0  0  0  0  0  0  0  0  0  0  0
   -1.5900   -0.5800    0.0000 C   0  0  0  0  0  0  0  0  0  0  0  0
   -0.2900   -2.8300    0.0000 C   0  0  0  0  0  0  0  0  0  0  0  0
   -2.8889   -1.3302    0.0000 O   0  0  0  0  0  0  0  0  0  0  0  0
    5.6333   -1.7615    0.0000 O   0  0  0  0  0  0  0  0  0  0  0  0
  8  6  2  0
  9  7  1  0
 10  5  1  0
 12  1  1  6
 12  5  1  0
 12 11  1  0
 13  6  1  0
 13  7  2  0
 14  8  1  0
 14  9  2  0
 15 10  1  0
 16 11  1  0
 16 15  1  0
 17  2  1  0
 17  3  1  0
 17 13  1  0
 15 17  1  1
 16 18  1  6
 19  4  1  0
 19 14  1  0
M  END
>  <NAME>  (3642) 
(1R,2S,5R)-5-METHYL-2-(1-METHYL-1-(4-METHOXYPHENYL)ETHYL)-CYCLOHEXANOL

>  <SYNONYMS>  (3642) 


>  <SPECTRUM TYPE>  (3642) 
MS1

>  <INSTRUMENT TYPE>  (3642) 
EI-B

>  <INSTRUMENT>  (3642) 
JEOL JMS-DX-300

>  <ION MODE>  (3642) 
P

>  <INCHIKEY>  (3642) 
TYFKWJZQXPHTGK-DAXOMENPSA-N

>  <FORMULA>  (3642) 
C17H26O2

>  <EXACT MASS>  (3642) 
262.193280072

>  <MW>  (3642) 
262

>  <ID>  (3642) 
JP006366

>  <CONTRIBUTOR>  (3642) 
University of Tokyo Team, {Faculty of Engineering, University of Tokyo

>  <COMMENT>  (3642) 
SMILES=COc(c2)ccc(c2)C(C)(C)C([H])(C1)C([H])(O)CC([H])(C)C1
InChI=InChI=1S/C17H26O2/c1-12-5-10-15(16(18)11-12)17(2,3)13-6-8-14(19-4)9-7-13/h6-9,12,15-16,18H,5,10-11H2,1-4H3/t12-,15-,16-/m1/s1
computed SMILES=OC1CC(C)CCC1C(C2=CC=C(OC)C=C2)(C)C
accession=JP006366
date=2016.01.19 (Created 2008.10.21, modified 2011.05.06)
author=HISAHIRO HAGIWARA, CHEMICAL RESEARCH INSTITUTE OF NON-AQUEOUSSOLUTIONS TOHOKU UNIV.
license=CC BY-NC-SA
exact mass=262.19328
ionization energy=70 eV
ion type=[M]+*
computed spectral entropy=3.4438661650366464
computed normalized entropy=0.844594614375361
SPLASH=splash10-0udi-4900000000-8cdf3934624b50d58125
submitter=submitter = University of Tokyo Team (Faculty of Engineering, University of Tokyo)
MoNA Rating=3.75

>  <NUM PEAKS>  (3642) 
59

>  <MASS SPECTRAL PEAKS>  (3642) 
32 37.39
40 2.6
41 26.83
53 2.77
55 13.14
57 4.07
59 2.62
65 5.81
67 5.6
69 8.71
70 2.51
71 0.82
77 12.47
78 5.19
79 6.75
81 11.43
82 2.15
90 2.36
91 12.28
92 3.39
93 2.41
94 5.36
95 10.28
103 4.64
105 3.79
106 2.45
107 2.57
108 3.51
109 29.63
110 2.38
115 4.71
117 4.21
119 5.43
121 49.46
122 5.51
123 2.73
127 2.36
128 7.49
129 4.92
131 3.73
133 6.79
134 5
135 16.58
136 2.02
138 2.32
141 4.49
147 3.06
148 22.08
150 99.99
151 8.79
159 2.62
161 8.43
169 25.29
170 8
173 2.81
200 2.21
229 2.68
262 26.83
263 5.15

>  <PREDICTED SPECTRUM>  (3642) 
15 19
17 7
18 9
27 70
28 5
29 54
30 27
31 28
38 15
39 187
40 74
41 382
42 76
43 129
44 3
45 22
50 24
51 119
52 88
53 171
54 45
55 298
56 75
57 302
58 23
59 116
63 78
64 94
65 173
66 92
67 205
68 23
69 215
70 58
71 77
74 1
75 51
76 36
77 386
78 192
79 249
80 62
81 208
82 71
83 118
84 34
85 57
89 111
90 97
91 398
92 127
93 209
94 224
95 282
96 62
97 88
98 36
99 8
102 63
103 167
104 41
105 252
106 144
107 347
108 260
109 400
110 27
111 69
115 182
117 60
118 53
119 229
120 108
121 786
122 336
123 151
124 52
128 102
129 80
131 184
132 2
133 162
134 196
135 572
136 76
137 109
138 6
143 19
144 13
145 108
146 3
147 140
148 361
149 56
150 999
151 421
152 39
159 108
160 69
161 221
163 72
171 8
172 48
173 124
185 27
186 25
187 55
201 56
202 58
203 1
229 210
230 28
243 3
244 133
247 12
262 471
263 199
264 33

$$$$

     RDKit          2D

 30 33  0  0  0  0  0  0  0  0999 V2000
   -2.6000   -0.7500    0.0000 C   0  0  0  0  0  0  0  0  0  0  0  0
    5.2000    5.2500    0.0000 C   0  0  0  0  0  0  0  0  0  0  0  0
   -2.6000    0.7500    0.0000 C   0  0  0  0  0  0  0  0  0  0  0  0
    5.2000    3.7500    0.0000 C   0  0  0  0  0  0  0  0  0  0  0  0
   -1.3000   -1.5000    0.0000 C   0  0  0  0  0  0  0  0  0  0  0  0
    3.9000    6.0000    0.0000 C   0  0  0  0  0  0  0  0  0  0  0  0
   -1.3000    1.5000    0.0000 C   0  0  0  0  0  0  0  0  0  0  0  0
    3.9000    3.0000    0.0000 C   0  0  0  0  0  0  0  0  0  0  0  0
    1.3000   -1.5000    0.0000 C   0  0  0  0  0  0  0  0  0  0  0  0
    1.3000    6.0000    0.0000 C   0  0  0  0  0  0  0  0  0  0  0  0
    2.6000   -0.7500    0.0000 C   0  0  0  0  0  0  0  0  0  0  0  0
    0.0000    5.2500    0.0000 C   0  0  0  0  0  0  0  0  0  0  0  0
    3.8989    1.5002    0.0000 C   0  0  0  0  0  0  0  0  0  0  0  0
   -1.2989    2.9998    0.0000 C   0  0  0  0  0  0  0  0  0  0  0  0
    5.1981    0.7504    0.0000 C   0  0  0  0  0  0  0  0  0  0  0  0
   -2.5981    3.7496    0.0000 C   0  0  0  0  0  0  0  0  0  0  0  0
    0.0000   -0.7500    0.0000 C   0  0  0  0  0  0  0  0  0  0  0  0
    2.6000    5.2500    0.0000 C   0  0  0  0  0  0  0  0  0  0  0  0
    2.6000    0.7500    0.0000 C   0  0  0  0  0  0  0  0  0  0  0  0
    0.0000    3.7500    0.0000 C   0  0  0  0  0  0  0  0  0  0  0  0
    0.0000    0.7500    0.0000 C   0  0  0  0  0  0  0  0  0  0  0  0
    2.6000    3.7500    0.0000 C   0  0  0  0  0  0  0  0  0  0  0  0
    6.4970    1.5006    0.0000 C   0  0  0  0  0  0  0  0  0  0  0  0
   -3.8970    2.9994    0.0000 C   0  0  0  0  0  0  0  0  0  0  0  0
    1.3000    1.5000    0.0000 C   0  0  0  0  0  0  0  0  0  0  0  0
    1.3000    3.0000    0.0000 C   0  0  0  0  0  0  0  0  0  0  0  0
    6.4968    3.0006    0.0000 O   0  0  0  0  0  0  0  0  0  0  0  0
    7.7962    0.7508    0.0000 O   0  0  0  0  0  0  0  0  0  0  0  0
   -3.8968    1.4994    0.0000 O   0  0  0  0  0  0  0  0  0  0  0  0
   -5.1962    3.7492    0.0000 O   0  0  0  0  0  0  0  0  0  0  0  0
  3  1  2  0
  4  2  2  0
  5  1  1  0
  6  2  1  0
  7  3  1  0
  8  4  1  0
 11  9  2  0
 12 10  2  0
 13 15  2  0
 14 16  2  0
 17  5  2  0
 17  9  1  0
 18  6  2  0
 18 10  1  0
 19 11  1  0
 19 13  1  0
 20 12  1  0
 20 14  1  0
 21  7  2  0
 21 17  1  0
 22  8  2  0
 22 18  1  0
 23 15  1  0
 24 16  1  0
 25 19  2  0
 25 21  1  0
 26 20  2  0
 26 22  1  0
 26 25  1  0
 27 23  2  0
 28 23  1  0
 29 24  2  0
 30 24  1  0
M  END
>  <NAME>  (3643) 
1,1'-BINAPHTHYL-2,2'-BISACRYLATE

>  <SYNONYMS>  (3643) 


>  <SPECTRUM TYPE>  (3643) 
MS1

>  <INSTRUMENT TYPE>  (3643) 
EI-B

>  <INSTRUMENT>  (3643) 
JEOL JMS-DX-300

>  <ION MODE>  (3643) 
P

>  <INCHIKEY>  (3643) 
WDKPJHDWIXCUKA-WXUKJITCSA-N

>  <FORMULA>  (3643) 
C26H18O4

>  <EXACT MASS>  (3643) 
394.120509056

>  <MW>  (3643) 
394

>  <ID>  (3643) 
JP006365

>  <CONTRIBUTOR>  (3643) 
University of Tokyo Team, {Faculty of Engineering, University of Tokyo

>  <COMMENT>  (3643) 
SMILES=c(c12)cccc(ccc(c2c(c4C=CC(O)=O)c(c3)c(cc4)ccc3)C=CC(O)=O)1
InChI=InChI=1S/C26H18O4/c27-23(28)15-13-19-11-9-17-5-1-3-7-21(17)25(19)26-20(14-16-24(29)30)12-10-18-6-2-4-8-22(18)26/h1-16H,(H,27,28)(H,29,30)/b15-13+,16-14+
computed SMILES=O=C(O)C=CC1=CC=C2C=CC=CC2=C1C3=C(C=CC(=O)O)C=CC=4C=CC=CC43
accession=JP006365
date=2016.01.19 (Created 2008.10.21, modified 2011.05.06)
author=HISAHIRO HAGIWARA, CHEMICAL RESEARCH INSTITUTE OF NON-AQUEOUSSOLUTIONS TOHOKU UNIV.
license=CC BY-NC-SA
exact mass=394.12051
ionization energy=70 eV
ion type=[M]+*
computed spectral entropy=2.7108451409823817
computed normalized entropy=0.7121317291110683
SPLASH=splash10-052o-3096000000-d81b94b56b75d0364d16
submitter=submitter = University of Tokyo Team (Faculty of Engineering, University of Tokyo)
MoNA Rating=3.75

>  <NUM PEAKS>  (3643) 
45

>  <MASS SPECTRAL PEAKS>  (3643) 
55 77.42
56 2.39
105 1.78
115 1.98
120 1.13
130 1.08
170 1.03
186 1.12
200 1.33
202 1.49
224 2.26
225 1.79
226 9.05
227 4
228 5.38
229 3.22
230 1.17
232 1.06
235 1.19
237 1.97
239 8.12
240 3.38
241 2.16
255 6.33
256 1.36
257 4.63
258 2.8
264 1.07
266 1.72
267 3.15
268 11.53
269 5.69
282 2.64
283 1.08
285 4.72
286 99.99
287 25.51
288 2.85
323 1.16
340 68.77
341 18.07
342 3.35
394 45.45
395 13.27
396 2.26

>  <PREDICTED SPECTRUM>  (3643) 
35 18
36 7
38 52
39 30
41 71
42 33
43 36
44 116
46 31
49 7
50 29
51 104
52 27
53 39
55 149
57 21
63 9
65 10
67 3
69 65
70 53
74 3
75 13
76 13
77 29
78 54
79 16
81 42
82 47
85 0
86 26
87 8
88 20
91 2
93 22
95 10
97 50
98 40
107 66
109 11
110 22
115 41
119 16
120 16
126 50
127 59
128 88
131 50
132 25
138 17
147 6
154 34
156 21
170 47
174 17
214 133
215 17
216 0
223 4
226 381
227 142
228 344
232 9
233 56
239 512
240 384
241 146
242 6
243 24
252 128
255 91
257 407
258 203
264 11
266 147
267 136
268 513
269 106
271 83
273 17
274 35
276 1
282 211
285 339
286 999
287 481
300 0
304 28
314 11
351 0
394 623
395 368
396 119

$$$$

     RDKit          2D

 25 27  0  0  1  0  0  0  0  0999 V2000
    7.0686    7.2594    0.0000 C   0  0  0  0  0  0  0  0  0  0  0  0
   -0.3185    5.9559    0.0000 C   0  0  0  0  0  0  0  0  0  0  0  0
    4.8381    0.6104    0.0000 C   0  0  0  0  0  0  0  0  0  0  0  0
    4.5029    2.5094    0.0000 C   0  0  0  0  0  0  0  0  0  0  0  0
    6.5555    5.8498    0.0000 C   0  0  0  0  0  0  0  0  0  0  0  0
   -2.9500   -0.8900    0.0000 C   0  0  0  0  0  0  0  0  0  0  0  0
   -2.9500    0.6100    0.0000 C   0  0  0  0  0  0  0  0  0  0  0  0
   -1.6500   -1.6400    0.0000 C   0  0  0  0  0  0  0  0  0  0  0  0
   -1.6500    1.3600    0.0000 C   0  0  0  0  0  0  0  0  0  0  0  0
    0.1323    3.3967    0.0000 C   0  0  0  0  0  0  0  0  0  0  0  0
    0.9400   -1.6400    0.0000 C   0  0  0  0  0  0  0  0  0  0  0  0
    2.2400   -0.8900    0.0000 C   0  0  0  0  0  0  0  0  0  0  0  0
    1.0966    2.2478    0.0000 C   0  0  0  0  0  0  0  0  0  0  0  0
    2.1237    5.0683    0.0000 C   0  0  0  0  0  0  0  0  0  0  0  0
    0.9400    1.3600    0.0000 C   0  0  0  0  0  0  0  0  0  0  0  0
    0.6458    4.8069    0.0000 C   0  0  0  0  0  0  0  0  0  0  0  0
   -0.3500   -0.8900    0.0000 C   0  0  0  0  0  0  0  0  0  0  0  0
   -0.3500    0.6100    0.0000 C   0  0  0  0  0  0  0  0  0  0  0  0
    2.2400    0.6100    0.0000 C   0  0  0  0  0  0  0  0  0  0  0  0
    2.5746    2.5091    0.0000 C   0  0  0  0  0  0  0  0  0  0  0  0
    3.0881    3.9194    0.0000 C   0  0  0  0  0  0  0  0  0  0  0  0
    5.0783    5.5894    0.0000 C   0  0  0  0  0  0  0  0  0  0  0  0
    3.5389    1.3602    0.0000 C   0  0  0  0  0  0  0  0  0  0  0  0
    4.1142    6.7384    0.0000 O   0  0  0  0  0  0  0  0  0  0  0  0
    4.5653    4.1798    0.0000 O   0  0  0  0  0  0  0  0  0  0  0  0
  5  1  2  0
  7  6  2  0
  8  6  1  0
  9  7  1  0
 12 11  2  0
 13 10  1  0
 16  2  1  1
 16 10  1  0
 16 14  1  0
 17  8  2  0
 17 11  1  0
 18  9  2  0
 18 15  1  0
 18 17  1  0
 19 12  1  0
 19 15  2  0
 20 13  1  0
 21 14  1  0
 21 20  1  0
 22  5  1  0
 23  3  1  0
 23  4  1  0
 23 19  1  0
 20 23  1  6
 24 22  2  0
 21 25  1  1
 25 22  1  0
M  END
>  <NAME>  (3644) 
(1R,2S,5R)-5-METHYL-2-(1-METHYL-1-(2'-NAPHTHYL)ETHYL)-CYCLOHEXANE-1-YL ACRYLATE

>  <SYNONYMS>  (3644) 


>  <SPECTRUM TYPE>  (3644) 
MS1

>  <INSTRUMENT TYPE>  (3644) 
EI-B

>  <INSTRUMENT>  (3644) 
JEOL JMS-DX-300

>  <ION MODE>  (3644) 
P

>  <INCHIKEY>  (3644) 
NSKRHMFLTQEJFU-MAODMQOUSA-N

>  <FORMULA>  (3644) 
C23H28O2

>  <EXACT MASS>  (3644) 
336.208930136

>  <MW>  (3644) 
336

>  <ID>  (3644) 
JP006364

>  <CONTRIBUTOR>  (3644) 
University of Tokyo Team, {Faculty of Engineering, University of Tokyo

>  <COMMENT>  (3644) 
SMILES=C=CC(=O)OC([H])(C3)C([H])(CCC([H])(C)3)C(C)(C)c(c1)cc(c2)c(ccc2)c1
InChI=InChI=1S/C23H28O2/c1-5-22(24)25-21-14-16(2)10-13-20(21)23(3,4)19-12-11-17-8-6-7-9-18(17)15-19/h5-9,11-12,15-16,20-21H,1,10,13-14H2,2-4H3/t16-,20-,21-/m1/s1
computed SMILES=O=C(OC1CC(C)CCC1C(C=2C=CC=3C=CC=CC3C2)(C)C)C=C
accession=JP006364
date=2016.01.19 (Created 2008.10.21, modified 2011.05.06)
author=HISAHIRO HAGIWARA, CHEMICAL RESEARCH INSTITUTE OF NON-AQUEOUSSOLUTIONS TOHOKU UNIV.
license=CC BY-NC-SA
exact mass=336.20893
ionization energy=70 eV
ion type=[M]+*
computed spectral entropy=2.145800872167912
computed normalized entropy=0.6372475067557493
SPLASH=splash10-014i-1900000000-683529f7108dd6034305
submitter=submitter = University of Tokyo Team (Faculty of Engineering, University of Tokyo)
MoNA Rating=3.75

>  <NUM PEAKS>  (3644) 
29

>  <MASS SPECTRAL PEAKS>  (3644) 
32 4.02
41 4.03
55 9.14
69 1.07
81 1.36
95 2.7
115 1.19
127 0.01
128 3.72
129 4.47
141 13.93
142 1.54
149 2.32
152 2.16
153 2.52
154 1.75
155 4.31
165 1.61
167 4.14
168 9.04
169 99.99
170 16.18
171 1.12
178 1.64
179 1.16
264 1.76
265 1.02
336 0.68
337 1.73

>  <PREDICTED SPECTRUM>  (3644) 
29 16
41 120
42 42
43 34
53 13
55 258
56 2
57 13
59 26
65 4
67 104
68 4
69 82
71 18
79 42
81 54
83 7
91 4
93 10
95 50
97 103
104 23
105 22
115 58
117 22
119 34
121 29
122 48
128 90
129 222
141 464
142 178
151 5
152 45
153 187
155 41
167 91
168 533
169 999
170 490
178 53
198 42
210 54
211 35
336 48
337 160
338 4

$$$$

     RDKit          2D

 29 32  0  0  1  0  0  0  0  0999 V2000
   -0.3185    5.9559    0.0000 C   0  0  0  0  0  0  0  0  0  0  0  0
    4.8381    0.6104    0.0000 C   0  0  0  0  0  0  0  0  0  0  0  0
    4.5029    2.5094    0.0000 C   0  0  0  0  0  0  0  0  0  0  0  0
    9.5100    6.3708    0.0000 C   0  0  0  0  0  0  0  0  0  0  0  0
    8.5456    7.5208    0.0000 C   0  0  0  0  0  0  0  0  0  0  0  0
    8.9971    4.9603    0.0000 C   0  0  0  0  0  0  0  0  0  0  0  0
   -2.9500   -0.8900    0.0000 C   0  0  0  0  0  0  0  0  0  0  0  0
   -2.9500    0.6100    0.0000 C   0  0  0  0  0  0  0  0  0  0  0  0
   -1.6500   -1.6400    0.0000 C   0  0  0  0  0  0  0  0  0  0  0  0
    7.0684    7.2603    0.0000 C   0  0  0  0  0  0  0  0  0  0  0  0
    7.5199    4.6998    0.0000 C   0  0  0  0  0  0  0  0  0  0  0  0
   -1.6500    1.3600    0.0000 C   0  0  0  0  0  0  0  0  0  0  0  0
    0.1323    3.3967    0.0000 C   0  0  0  0  0  0  0  0  0  0  0  0
    0.9400   -1.6400    0.0000 C   0  0  0  0  0  0  0  0  0  0  0  0
    2.2400   -0.8900    0.0000 C   0  0  0  0  0  0  0  0  0  0  0  0
    1.0966    2.2478    0.0000 C   0  0  0  0  0  0  0  0  0  0  0  0
    2.1237    5.0683    0.0000 C   0  0  0  0  0  0  0  0  0  0  0  0
    0.9400    1.3600    0.0000 C   0  0  0  0  0  0  0  0  0  0  0  0
    0.6458    4.8069    0.0000 C   0  0  0  0  0  0  0  0  0  0  0  0
   -0.3500   -0.8900    0.0000 C   0  0  0  0  0  0  0  0  0  0  0  0
    6.5555    5.8498    0.0000 C   0  0  0  0  0  0  0  0  0  0  0  0
   -0.3500    0.6100    0.0000 C   0  0  0  0  0  0  0  0  0  0  0  0
    2.2400    0.6100    0.0000 C   0  0  0  0  0  0  0  0  0  0  0  0
    2.5746    2.5091    0.0000 C   0  0  0  0  0  0  0  0  0  0  0  0
    3.0881    3.9194    0.0000 C   0  0  0  0  0  0  0  0  0  0  0  0
    5.0783    5.5894    0.0000 C   0  0  0  0  0  0  0  0  0  0  0  0
    3.5389    1.3602    0.0000 C   0  0  0  0  0  0  0  0  0  0  0  0
    4.1142    6.7384    0.0000 O   0  0  0  0  0  0  0  0  0  0  0  0
    4.5653    4.1798    0.0000 O   0  0  0  0  0  0  0  0  0  0  0  0
  5  4  2  0
  6  4  1  0
  8  7  2  0
  9  7  1  0
 10  5  1  0
 11  6  2  0
 12  8  1  0
 15 14  2  0
 16 13  1  0
 19  1  1  1
 19 13  1  0
 19 17  1  0
 20  9  2  0
 20 14  1  0
 21 10  2  0
 21 11  1  0
 22 12  2  0
 22 18  1  0
 22 20  1  0
 23 15  1  0
 23 18  2  0
 24 16  1  0
 25 17  1  0
 25 24  1  0
 26 21  1  0
 27  2  1  0
 27  3  1  0
 27 23  1  0
 24 27  1  6
 28 26  2  0
 25 29  1  1
 29 26  1  0
M  END
>  <NAME>  (3645) 
(1R,2S,5R)-5-METHYL-2-(1-METHYL-1-(2'-NAPHTHYL)ETHYL)-CYCLOHEXANE-1-YL BENZOATE

>  <SYNONYMS>  (3645) 


>  <SPECTRUM TYPE>  (3645) 
MS1

>  <INSTRUMENT TYPE>  (3645) 
EI-B

>  <INSTRUMENT>  (3645) 
JEOL JMS-DX-300

>  <ION MODE>  (3645) 
P

>  <INCHIKEY>  (3645) 
JRXOQOLTDOHKHN-UKDVSSAZSA-N

>  <FORMULA>  (3645) 
C27H30O2

>  <EXACT MASS>  (3645) 
386.2245802

>  <MW>  (3645) 
386

>  <ID>  (3645) 
JP006363

>  <CONTRIBUTOR>  (3645) 
University of Tokyo Team, {Faculty of Engineering, University of Tokyo

>  <COMMENT>  (3645) 
SMILES=C([H])(C([H])1C(C)(C)c(c4)cc(c3c4)cccc3)(OC(=O)c(c2)cccc2)CC(CC1)([H])C
InChI=InChI=1S/C27H30O2/c1-19-13-16-24(25(17-19)29-26(28)21-10-5-4-6-11-21)27(2,3)23-15-14-20-9-7-8-12-22(20)18-23/h4-12,14-15,18-19,24-25H,13,16-17H2,1-3H3/t19-,24-,25-/m1/s1
computed SMILES=O=C(OC1CC(C)CCC1C(C=2C=CC=3C=CC=CC3C2)(C)C)C=4C=CC=CC4
accession=JP006363
date=2016.01.19 (Created 2008.10.21, modified 2011.05.06)
author=HISAHIRO HAGIWARA, CHEMICAL RESEARCH INSTITUTE OF NON-AQUEOUSSOLUTIONS TOHOKU UNIV.
license=CC BY-NC-SA
exact mass=386.22458
ionization energy=70 eV
ion type=[M]+*
computed spectral entropy=2.8148844674854727
computed normalized entropy=0.7531121674628612
SPLASH=splash10-014i-3900000000-c83e2a7e5cf3ec640b53
submitter=submitter = University of Tokyo Team (Faculty of Engineering, University of Tokyo)
MoNA Rating=3.75

>  <NUM PEAKS>  (3645) 
42

>  <MASS SPECTRAL PEAKS>  (3645) 
32 6.91
41 5.46
46 1.02
55 2.55
65 1.56
67 1.38
69 2
77 7.15
78 1.4
79 1.97
81 1.42
86 13.66
87 10.2
91 1.81
92 1.49
95 0.26
99 26.05
100 1.79
105 12.42
112 1.15
115 1.05
128 4.38
129 6.55
141 12.71
142 1.81
152 2.27
153 9.09
154 3.29
155 2.03
165 1.17
167 1.77
168 15.73
169 99.99
170 17.66
171 1.56
179 1.52
208 1.41
217 3.44
249 1.56
264 4.29
386 10.16
387 2.42

>  <PREDICTED SPECTRUM>  (3645) 
41 208
43 65
49 13
53 23
55 239
56 45
57 8
65 19
67 79
69 136
77 159
79 73
81 135
82 25
83 28
91 123
93 49
94 14
95 21
99 43
105 119
111 33
115 44
117 33
118 25
119 66
121 77
122 17
123 7
127 78
128 183
129 173
141 253
142 233
143 2
151 8
152 198
153 250
154 171
155 102
161 6
162 11
163 35
165 98
166 35
167 85
168 565
169 999
170 703
171 147
172 43
173 0
178 31
179 107
189 16
196 21
217 266
218 183
219 6
265 19
292 14
386 281
387 151

$$$$

     RDKit          2D

 21 23  0  0  1  0  0  0  0  0999 V2000
   -0.3185    5.9559    0.0000 C   0  0  0  0  0  0  0  0  0  0  0  0
    4.8381    0.6104    0.0000 C   0  0  0  0  0  0  0  0  0  0  0  0
    4.5029    2.5094    0.0000 C   0  0  0  0  0  0  0  0  0  0  0  0
   -2.9500   -0.8900    0.0000 C   0  0  0  0  0  0  0  0  0  0  0  0
   -2.9500    0.6100    0.0000 C   0  0  0  0  0  0  0  0  0  0  0  0
   -1.6500   -1.6400    0.0000 C   0  0  0  0  0  0  0  0  0  0  0  0
   -1.6500    1.3600    0.0000 C   0  0  0  0  0  0  0  0  0  0  0  0
    0.1323    3.3967    0.0000 C   0  0  0  0  0  0  0  0  0  0  0  0
    0.9400   -1.6400    0.0000 C   0  0  0  0  0  0  0  0  0  0  0  0
    2.2400   -0.8900    0.0000 C   0  0  0  0  0  0  0  0  0  0  0  0
    1.0966    2.2478    0.0000 C   0  0  0  0  0  0  0  0  0  0  0  0
    2.1237    5.0683    0.0000 C   0  0  0  0  0  0  0  0  0  0  0  0
    0.9400    1.3600    0.0000 C   0  0  0  0  0  0  0  0  0  0  0  0
    0.6458    4.8069    0.0000 C   0  0  0  0  0  0  0  0  0  0  0  0
   -0.3500   -0.8900    0.0000 C   0  0  0  0  0  0  0  0  0  0  0  0
   -0.3500    0.6100    0.0000 C   0  0  0  0  0  0  0  0  0  0  0  0
    2.2400    0.6100    0.0000 C   0  0  0  0  0  0  0  0  0  0  0  0
    2.5746    2.5091    0.0000 C   0  0  0  0  0  0  0  0  0  0  0  0
    3.0881    3.9194    0.0000 C   0  0  0  0  0  0  0  0  0  0  0  0
    3.5389    1.3602    0.0000 C   0  0  0  0  0  0  0  0  0  0  0  0
    4.5653    4.1798    0.0000 O   0  0  0  0  0  0  0  0  0  0  0  0
  5  4  2  0
  6  4  1  0
  7  5  1  0
 10  9  2  0
 11  8  1  0
 14  1  1  1
 14  8  1  0
 14 12  1  0
 15  6  2  0
 15  9  1  0
 16  7  2  0
 16 13  1  0
 16 15  1  0
 17 10  1  0
 17 13  2  0
 18 11  1  0
 19 12  1  0
 19 18  1  0
 20  2  1  0
 20  3  1  0
 20 17  1  0
 18 20  1  6
 19 21  1  1
M  END
>  <NAME>  (3646) 
(1R,2S,5R)-5-METHYL-2-(1-METHYL-1-(2'-NAPHTHYL)ETHYL)-CYCLOHEXANOL

>  <SYNONYMS>  (3646) 


>  <SPECTRUM TYPE>  (3646) 
MS1

>  <INSTRUMENT TYPE>  (3646) 
EI-B

>  <INSTRUMENT>  (3646) 
JEOL JMS-DX-300

>  <ION MODE>  (3646) 
P

>  <INCHIKEY>  (3646) 
AKVNKXYVBBUSEZ-NIKGAXFTSA-N

>  <FORMULA>  (3646) 
C20H26O

>  <EXACT MASS>  (3646) 
282.198365452

>  <MW>  (3646) 
282

>  <ID>  (3646) 
JP006362

>  <CONTRIBUTOR>  (3646) 
University of Tokyo Team, {Faculty of Engineering, University of Tokyo

>  <COMMENT>  (3646) 
SMILES=[H]C(C)(C3)CC([H])(O)C([H])(C3)C(C)(C)c(c1)cc(c2)c(ccc2)c1
InChI=InChI=1S/C20H26O/c1-14-8-11-18(19(21)12-14)20(2,3)17-10-9-15-6-4-5-7-16(15)13-17/h4-7,9-10,13-14,18-19,21H,8,11-12H2,1-3H3/t14-,18-,19-/m1/s1
computed SMILES=OC1CC(C)CCC1C(C=2C=CC=3C=CC=CC3C2)(C)C
accession=JP006362
date=2016.01.19 (Created 2008.10.21, modified 2011.05.06)
author=HISAHIRO HAGIWARA, CHEMICAL RESEARCH INSTITUTE OF NON-AQUEOUSSOLUTIONS TOHOKU UNIV.
license=CC BY-NC-SA
exact mass=282.19837
ionization energy=70 eV
ion type=[M]+*
computed spectral entropy=2.7043456198821856
computed normalized entropy=0.702400505030259
SPLASH=splash10-0006-9400000000-fb1913c14b4f2831e33a
submitter=submitter = University of Tokyo Team (Faculty of Engineering, University of Tokyo)
MoNA Rating=3.75

>  <NUM PEAKS>  (3646) 
47

>  <MASS SPECTRAL PEAKS>  (3646) 
32 46.04
37 1.56
38 1.35
39 3.33
40 3.19
41 2.99
42 4.16
43 99.99
44 3.58
45 2.56
58 45.78
59 2.77
67 4.17
69 2.25
71 1.04
77 1.13
81 2.19
82 9.56
91 1.09
95 3.48
107 1.51
109 3.3
124 1.38
126 1.26
127 1.85
128 4.08
129 3.18
134 1.16
141 19.81
142 1.21
148 1.91
150 4.32
152 1.88
153 4.87
155 5.41
156 0.18
164 1.45
168 10.19
170 58.03
171 0.42
178 1.18
182 1.06
264 1.51
280 3.05
281 1.26
282 5.41
283 1.78

>  <PREDICTED SPECTRUM>  (3646) 
27 24
29 27
32 16
39 59
40 4
41 293
42 102
43 412
44 58
45 17
51 14
53 53
54 8
55 341
56 46
57 122
58 51
59 2
63 19
65 11
66 0
67 132
68 23
69 195
70 74
71 104
77 58
78 0
79 31
81 109
82 15
83 20
84 3
85 75
86 3
89 1
91 84
95 72
97 57
98 12
101 18
102 50
113 21
114 66
115 161
124 72
125 63
126 181
127 225
128 212
129 202
130 7
138 58
139 66
140 53
141 522
142 306
150 191
151 135
152 235
153 320
154 111
155 256
156 82
168 300
169 111
170 999
171 131
183 16
186 10
207 55
264 109
282 273
283 133

$$$$

     RDKit          2D

 23 24  0  0  1  0  0  0  0  0999 V2000
   -6.7862   -0.5808    0.0000 C   0  0  0  0  0  0  0  0  0  0  0  0
   -0.2900    3.1700    0.0000 C   0  0  0  0  0  0  0  0  0  0  0  0
   -1.5890   -3.5800    0.0000 C   0  0  0  0  0  0  0  0  0  0  0  0
    0.2230   -4.2395    0.0000 C   0  0  0  0  0  0  0  0  0  0  0  0
    6.6126   -2.8978    0.0000 C   0  0  0  0  0  0  0  0  0  0  0  0
   -5.4870   -1.3306    0.0000 C   0  0  0  0  0  0  0  0  0  0  0  0
    1.0100    0.9200    0.0000 C   0  0  0  0  0  0  0  0  0  0  0  0
    1.6933   -1.1575    0.0000 C   0  0  0  0  0  0  0  0  0  0  0  0
    2.1297   -3.7040    0.0000 C   0  0  0  0  0  0  0  0  0  0  0  0
    3.1419   -0.8799    0.0000 C   0  0  0  0  0  0  0  0  0  0  0  0
    3.6536   -3.4535    0.0000 C   0  0  0  0  0  0  0  0  0  0  0  0
    1.0100   -0.5800    0.0000 C   0  0  0  0  0  0  0  0  0  0  0  0
   -1.5900    0.9200    0.0000 C   0  0  0  0  0  0  0  0  0  0  0  0
   -0.2900    1.6700    0.0000 C   0  0  0  0  0  0  0  0  0  0  0  0
    1.1872   -2.5695    0.0000 C   0  0  0  0  0  0  0  0  0  0  0  0
    4.1597   -2.0414    0.0000 C   0  0  0  0  0  0  0  0  0  0  0  0
   -0.2900   -1.3300    0.0000 C   0  0  0  0  0  0  0  0  0  0  0  0
   -1.5900   -0.5800    0.0000 C   0  0  0  0  0  0  0  0  0  0  0  0
   -4.1881   -0.5804    0.0000 C   0  0  0  0  0  0  0  0  0  0  0  0
   -0.2900   -2.8300    0.0000 C   0  0  0  0  0  0  0  0  0  0  0  0
   -4.1883    0.9196    0.0000 O   0  0  0  0  0  0  0  0  0  0  0  0
    5.6333   -1.7615    0.0000 O   0  0  0  0  0  0  0  0  0  0  0  0
   -2.8889   -1.3302    0.0000 O   0  0  0  0  0  0  0  0  0  0  0  0
  6  1  2  0
 10  8  2  0
 11  9  1  0
 12  7  1  0
 14  2  1  6
 14  7  1  0
 14 13  1  0
 15  8  1  0
 15  9  2  0
 16 10  1  0
 16 11  2  0
 17 12  1  0
 18 13  1  0
 18 17  1  0
 19  6  1  0
 20  3  1  0
 20  4  1  0
 20 15  1  0
 17 20  1  1
 21 19  2  0
 22  5  1  0
 22 16  1  0
 18 23  1  6
 23 19  1  0
M  END
>  <NAME>  (3647) 
(1R,2S,5R)-5-METHYL-2-(1-METHYL-1-(4-METHOXYPHENYL)ETHYL)-CYCLOHEXANE-1-YL ACRYLATE

>  <SYNONYMS>  (3647) 


>  <SPECTRUM TYPE>  (3647) 
MS1

>  <INSTRUMENT TYPE>  (3647) 
EI-B

>  <INSTRUMENT>  (3647) 
JEOL JMS-DX-300

>  <ION MODE>  (3647) 
P

>  <INCHIKEY>  (3647) 
SSBMCNGYTXITRG-ZTFGCOKTSA-N

>  <FORMULA>  (3647) 
C20H28O3

>  <EXACT MASS>  (3647) 
316.20384475599997

>  <MW>  (3647) 
316

>  <ID>  (3647) 
JP006361

>  <CONTRIBUTOR>  (3647) 
University of Tokyo Team, {Faculty of Engineering, University of Tokyo

>  <COMMENT>  (3647) 
SMILES=C=CC(=O)OC([H])(C2)C([H])(CCC([H])(C)2)C(C)(C)c(c1)ccc(OC)c1
InChI=InChI=1S/C20H28O3/c1-6-19(21)23-18-13-14(2)7-12-17(18)20(3,4)15-8-10-16(22-5)11-9-15/h6,8-11,14,17-18H,1,7,12-13H2,2-5H3/t14-,17-,18-/m1/s1
computed SMILES=O=C(OC1CC(C)CCC1C(C2=CC=C(OC)C=C2)(C)C)C=C
accession=JP006361
date=2016.01.19 (Created 2008.10.21, modified 2011.05.06)
author=HISAHIRO HAGIWARA, CHEMICAL RESEARCH INSTITUTE OF NON-AQUEOUSSOLUTIONS TOHOKU UNIV.
license=CC BY-NC-SA
exact mass=316.20384
ionization energy=70 eV
ion type=[M]+*
computed spectral entropy=3.2869440391202422
computed normalized entropy=0.8910413256943257
SPLASH=splash10-006x-5901000000-33eb126c6bf5535ce874
submitter=submitter = University of Tokyo Team (Faculty of Engineering, University of Tokyo)
MoNA Rating=3.75

>  <NUM PEAKS>  (3647) 
40

>  <MASS SPECTRAL PEAKS>  (3647) 
39 12.78
41 63.47
53 6.54
65 10.28
67 9.39
69 8.33
77 23.74
78 7.39
79 15.82
81 11.71
90 5.14
91 41.09
92 7.6
93 5.96
94 14.15
95 11.94
103 13.21
105 10.86
106 6.46
108 6.23
109 51.44
115 10.72
117 7.87
119 13.23
121 99.99
122 8.89
128 5.44
129 5.28
131 5.12
133 15.94
134 13.92
135 32.49
147 5.28
148 35.46
151 10.8
159 5.61
161 15.71
173 5.5
316 39.8
317 8.04

>  <PREDICTED SPECTRUM>  (3647) 
26 3
27 73
28 19
29 74
38 35
39 250
40 75
41 440
42 19
43 128
45 5
50 23
51 117
52 68
53 195
54 26
55 401
56 69
57 210
58 32
59 41
61 12
62 6
63 82
64 72
65 240
66 86
67 220
68 15
69 225
70 44
71 95
75 18
76 30
77 396
78 160
79 308
80 63
81 267
82 57
83 131
84 31
85 59
86 22
87 4
89 127
90 91
91 495
92 170
93 372
94 247
95 331
96 25
102 69
103 149
104 23
105 339
106 90
107 266
108 206
109 410
110 90
111 40
115 170
116 79
117 143
118 36
119 273
120 69
121 999
122 413
123 168
124 50
125 50
127 22
128 175
129 179
130 14
131 132
132 75
133 350
134 229
135 522
136 137
137 114
143 6
145 85
146 18
147 165
148 658
149 116
150 120
151 167
152 47
153 14
157 49
159 307
160 197
161 361
162 61
163 69
164 32
165 58
166 4
173 114
174 7
175 28
180 15
186 23
187 10
188 8
197 32
198 41
199 26
200 19
201 13
315 10
316 496
317 202
318 17

$$$$

     RDKit          2D

 19 20  0  0  1  0  0  0  0  0999 V2000
   -0.2900    3.1700    0.0000 C   0  0  0  0  0  0  0  0  0  0  0  0
   -1.5890   -3.5800    0.0000 C   0  0  0  0  0  0  0  0  0  0  0  0
    0.2230   -4.2395    0.0000 C   0  0  0  0  0  0  0  0  0  0  0  0
    6.6126   -2.8978    0.0000 C   0  0  0  0  0  0  0  0  0  0  0  0
    1.0100    0.9200    0.0000 C   0  0  0  0  0  0  0  0  0  0  0  0
    1.6933   -1.1575    0.0000 C   0  0  0  0  0  0  0  0  0  0  0  0
    2.1297   -3.7040    0.0000 C   0  0  0  0  0  0  0  0  0  0  0  0
    3.1419   -0.8799    0.0000 C   0  0  0  0  0  0  0  0  0  0  0  0
    3.6536   -3.4535    0.0000 C   0  0  0  0  0  0  0  0  0  0  0  0
    1.0100   -0.5800    0.0000 C   0  0  0  0  0  0  0  0  0  0  0  0
   -1.5900    0.9200    0.0000 C   0  0  0  0  0  0  0  0  0  0  0  0
   -0.2900    1.6700    0.0000 C   0  0  0  0  0  0  0  0  0  0  0  0
    1.1872   -2.5695    0.0000 C   0  0  0  0  0  0  0  0  0  0  0  0
    4.1597   -2.0414    0.0000 C   0  0  0  0  0  0  0  0  0  0  0  0
   -0.2900   -1.3300    0.0000 C   0  0  0  0  0  0  0  0  0  0  0  0
   -1.5900   -0.5800    0.0000 C   0  0  0  0  0  0  0  0  0  0  0  0
   -0.2900   -2.8300    0.0000 C   0  0  0  0  0  0  0  0  0  0  0  0
   -2.8889   -1.3302    0.0000 O   0  0  0  0  0  0  0  0  0  0  0  0
    5.6333   -1.7615    0.0000 O   0  0  0  0  0  0  0  0  0  0  0  0
  8  6  2  0
  9  7  1  0
 10  5  1  0
 12  1  1  6
 12  5  1  0
 12 11  1  0
 13  6  1  0
 13  7  2  0
 14  8  1  0
 14  9  2  0
 15 10  1  0
 16 11  1  0
 16 15  1  0
 17  2  1  0
 17  3  1  0
 17 13  1  0
 15 17  1  1
 18 16  2  0
 19  4  1  0
 19 14  1  0
M  END
>  <NAME>  (3648) 
(2S,5R)-5-METHYL-2-(1-METHYL-1-(4-METHOXYPHENYL)ETHYL)-CYCLOHEXANONE

>  <SYNONYMS>  (3648) 


>  <SPECTRUM TYPE>  (3648) 
MS1

>  <INSTRUMENT TYPE>  (3648) 
EI-B

>  <INSTRUMENT>  (3648) 
JEOL JMS-DX-300

>  <ION MODE>  (3648) 
P

>  <INCHIKEY>  (3648) 
WQDWOPQKSKJKPZ-IUODEOHRSA-N

>  <FORMULA>  (3648) 
C17H24O2

>  <EXACT MASS>  (3648) 
260.177630008

>  <MW>  (3648) 
260

>  <ID>  (3648) 
JP006360

>  <CONTRIBUTOR>  (3648) 
University of Tokyo Team, {Faculty of Engineering, University of Tokyo

>  <COMMENT>  (3648) 
SMILES=COc(c2)ccc(c2)C(C)(C)C([H])(C1)C(=O)CC([H])(C)C1
InChI=InChI=1S/C17H24O2/c1-12-5-10-15(16(18)11-12)17(2,3)13-6-8-14(19-4)9-7-13/h6-9,12,15H,5,10-11H2,1-4H3/t12-,15-/m1/s1
computed SMILES=O=C1CC(C)CCC1C(C2=CC=C(OC)C=C2)(C)C
accession=JP006360
date=2016.01.19 (Created 2008.10.21, modified 2011.05.06)
author=HISAHIRO HAGIWARA, CHEMICAL RESEARCH INSTITUTE OF NON-AQUEOUSSOLUTIONS TOHOKU UNIV.
license=CC BY-NC-SA
exact mass=260.17763
ionization energy=70 eV
ion type=[M]+*
computed spectral entropy=3.801185080793859
computed normalized entropy=0.8831616154680548
SPLASH=splash10-0ukl-4910000000-de3d3a7b0cb00db59d77
submitter=submitter = University of Tokyo Team (Faculty of Engineering, University of Tokyo)
MoNA Rating=3.75

>  <NUM PEAKS>  (3648) 
74

>  <MASS SPECTRAL PEAKS>  (3648) 
32 13.67
39 18.86
41 21.75
43 29.74
51 5.19
53 6.48
55 9.57
56 3.26
58 10.72
63 3.12
65 6.38
69 8.53
77 14.59
78 5.72
79 6.41
81 4.19
89 3.36
90 3.92
91 25.07
92 4.56
93 6.14
94 8.67
95 7.16
103 8.14
104 3.02
105 9.74
107 8.96
109 36.47
110 3.05
112 3
115 13.62
117 5.92
118 3.19
119 4.75
121 63.75
122 7.02
128 6.82
129 5.24
131 7.09
133 10.13
134 11.45
135 61.12
136 4.6
137 4.99
139 7.99
145 3.05
147 10.48
148 10.43
150 99.99
151 9.04
153 5.87
154 3.45
157 3.44
158 3
159 5.02
161 11.23
162 3.53
169 4.07
171 5.46
175 3.85
177 8.16
185 10.94
186 3
199 9.43
200 13.18
201 4.24
214 8.84
215 4.14
227 12.06
242 7.11
243 3.43
246 4.43
260 42.8
261 8.06

>  <PREDICTED SPECTRUM>  (3648) 
15 17
17 17
18 20
26 34
27 131
28 80
29 154
30 60
31 18
33 6
38 49
39 340
40 154
41 601
42 130
43 505
44 112
45 80
50 95
51 241
52 164
53 313
54 114
55 467
56 164
57 309
58 37
59 99
60 16
62 61
63 184
64 155
65 321
66 161
67 316
68 95
69 306
70 52
71 118
74 31
75 100
76 86
77 515
78 262
79 346
80 138
81 308
82 117
83 209
84 95
85 77
89 163
90 109
91 623
92 271
93 283
94 166
95 293
96 79
97 107
98 77
99 20
102 120
103 264
104 148
105 351
106 151
107 427
108 307
109 534
110 182
111 190
112 73
115 317
116 167
117 242
118 171
119 338
120 121
121 766
122 338
123 126
124 24
125 15
127 98
128 156
129 188
130 106
131 270
132 146
133 362
134 258
135 994
136 153
137 225
138 56
139 20
141 51
142 67
143 188
144 153
145 205
146 135
147 258
148 283
149 256
150 999
151 487
152 155
153 63
156 42
157 161
158 110
159 214
160 144
161 460
162 213
163 147
164 37
168 11
169 112
170 109
171 315
172 117
173 124
174 120
175 278
176 129
177 187
182 25
183 75
184 97
185 260
186 144
187 105
188 1
189 75
199 279
200 207
201 172
202 44
203 138
204 22
211 2
213 116
214 51
215 137
217 165
218 77
227 448
228 119
229 28
231 3
241 29
242 328
243 139
244 29
245 119
246 20
260 598
261 243
262 53

$$$$

     RDKit          2D

 15 16  0  0  0  0  0  0  0  0999 V2000
    2.5990   -5.2500    0.0000 C   0  0  0  0  0  0  0  0  0  0  0  0
   -2.6000   -0.7500    0.0000 C   0  0  0  0  0  0  0  0  0  0  0  0
   -2.6000    0.7500    0.0000 C   0  0  0  0  0  0  0  0  0  0  0  0
   -1.3000   -1.5000    0.0000 C   0  0  0  0  0  0  0  0  0  0  0  0
   -1.3000    1.5000    0.0000 C   0  0  0  0  0  0  0  0  0  0  0  0
    2.6000   -0.7500    0.0000 C   0  0  0  0  0  0  0  0  0  0  0  0
    2.6000    0.7500    0.0000 C   0  0  0  0  0  0  0  0  0  0  0  0
    0.0000   -0.7500    0.0000 C   0  0  0  0  0  0  0  0  0  0  0  0
    0.0000    0.7500    0.0000 C   0  0  0  0  0  0  0  0  0  0  0  0
    1.3000   -1.5000    0.0000 C   0  0  0  0  0  0  0  0  0  0  0  0
    1.3000    1.5000    0.0000 C   0  0  0  0  0  0  0  0  0  0  0  0
    1.3000   -3.0000    0.0000 C   0  0  0  0  0  0  0  0  0  0  0  0
    1.3000    3.0000    0.0000 O   0  0  0  0  0  0  0  0  0  0  0  0
    0.0010   -3.7500    0.0000 O   0  0  0  0  0  0  0  0  0  0  0  0
    2.5990   -3.7500    0.0000 O   0  0  0  0  0  0  0  0  0  0  0  0
  3  2  1  0
  4  2  1  0
  5  3  1  0
  7  6  1  0
  8  4  1  0
  9  5  1  0
  9  8  1  0
 10  6  1  0
 10  8  1  0
 11  7  1  0
 11  9  1  0
 12 10  1  0
 13 11  2  0
 14 12  2  0
 15  1  1  0
 15 12  1  0
M  END
>  <NAME>  (3649) 
METHYL 4(3H)-OXO-1,2,4AALPHA,5,6,7,8,8ABETA-OCTAHYDRONAPHTHALENE-1BETA-CARBOXYLATE

>  <SYNONYMS>  (3649) 


>  <SPECTRUM TYPE>  (3649) 
MS1

>  <INSTRUMENT TYPE>  (3649) 
EI-B

>  <INSTRUMENT>  (3649) 
JEOL JMS-DX-300

>  <ION MODE>  (3649) 
P

>  <INCHIKEY>  (3649) 
JPFUEZPXKCRLTQ-UHFFFAOYSA-N

>  <FORMULA>  (3649) 
C12H18O3

>  <EXACT MASS>  (3649) 
210.12559443599997

>  <MW>  (3649) 
210

>  <ID>  (3649) 
JP006357

>  <CONTRIBUTOR>  (3649) 
University of Tokyo Team, {Faculty of Engineering, University of Tokyo

>  <COMMENT>  (3649) 
SMILES=COC(=O)C(C1)C(C2)C(CCC2)C(=O)C1
InChI=InChI=1S/C12H18O3/c1-15-12(14)10-6-7-11(13)9-5-3-2-4-8(9)10/h8-10H,2-7H2,1H3
computed SMILES=O=C(OC)C1CCC(=O)C2CCCCC12
accession=JP006357
date=2016.01.19 (Created 2008.10.21, modified 2011.05.06)
author=HISAHIRO HAGIWARA, CHEMICAL RESEARCH INSTITUTE OF NON-AQUEOUSSOLUTIONS TOHOKU UNIV.
license=CC BY-NC-SA
exact mass=210.12559
ionization energy=70 eV
ion type=[M]+*
computed spectral entropy=3.8342410281354717
computed normalized entropy=0.9118956782840519
SPLASH=splash10-0gz9-6910000000-9ba47c2b7187bad055be
submitter=submitter = University of Tokyo Team (Faculty of Engineering, University of Tokyo)
MoNA Rating=3.75

>  <NUM PEAKS>  (3649) 
67

>  <MASS SPECTRAL PEAKS>  (3649) 
32 15.74
39 5.25
41 33.77
51 5.08
53 17.87
54 13.24
55 36.39
65 9.79
67 29.84
68 14.43
69 9.39
70 20.41
71 14.75
72 5.8
74 8.8
77 15.57
78 8.24
79 53.11
80 34.59
81 57.38
82 16.89
83 68.2
85 6.31
87 0.2
91 34.59
92 5.41
93 19.43
94 35.25
95 42.3
96 8.77
98 6.29
99 12.54
100 93.11
101 11.43
105 5.25
107 26.56
108 27.62
109 88.52
111 12.79
121 16.19
122 23.03
123 12.54
124 31.64
125 6.76
128 51.15
129 6.48
132 13.03
133 68.52
134 6.15
139 6.68
140 7.23
141 38.85
142 52.13
143 18.93
149 5.98
150 80.98
151 50.98
152 6.17
154 41.97
155 7.05
167 8.16
178 10
179 25.16
182 18.61
192 6.39
210 99.99
211 13.48

>  <PREDICTED SPECTRUM>  (3649) 
26 63
27 277
28 36
29 149
33 21
38 9
39 385
40 163
41 570
42 191
43 190
44 11
45 74
50 63
51 185
52 151
53 458
54 339
55 601
56 134
57 103
58 3
59 268
60 34
63 80
64 32
65 299
66 353
67 722
68 394
69 327
70 140
71 243
72 13
73 168
74 223
75 68
77 418
78 247
79 757
80 580
81 889
82 426
83 377
84 187
85 160
86 49
87 462
88 52
90 4
91 540
92 291
93 562
94 586
95 674
96 310
97 125
98 196
99 270
100 612
101 259
102 23
103 35
104 2
105 268
106 197
107 543
108 523
109 669
110 285
111 299
113 259
114 54
115 61
116 35
117 109
118 25
119 78
120 45
121 411
122 676
123 641
124 467
125 176
126 91
127 173
128 299
129 153
130 140
131 136
132 504
133 595
134 338
135 158
136 151
137 40
139 246
140 248
141 438
142 461
143 330
144 69
147 1
148 44
149 214
150 999
151 670
152 202
153 245
154 337
155 181
156 42
160 132
161 10
165 18
166 110
167 328
168 106
169 102
177 161
178 564
179 480
180 110
181 113
182 369
183 50
192 323
193 79
194 17
195 74
210 927
211 396
212 120

$$$$

     RDKit          2D

 13 14  0  0  0  0  0  0  0  0999 V2000
    1.3243    3.7354    0.0000 C   0  0  0  0  0  0  0  0  0  0  0  0
    0.0252   -0.0146    0.0000 C   0  0  0  0  0  0  0  0  0  0  0  0
   -1.2738    2.2354    0.0000 C   0  0  0  0  0  0  0  0  0  0  0  0
   -1.2738   -0.7646    0.0000 C   0  0  0  0  0  0  0  0  0  0  0  0
   -2.5728    1.4854    0.0000 C   0  0  0  0  0  0  0  0  0  0  0  0
   -4.9469   -0.5192    0.0000 C   0  0  0  0  0  0  0  0  0  0  0  0
   -4.1969   -1.8182    0.0000 C   0  0  0  0  0  0  0  0  0  0  0  0
    1.3243    2.2354    0.0000 C   0  0  0  0  0  0  0  0  0  0  0  0
    0.0252    1.4854    0.0000 C   0  0  0  0  0  0  0  0  0  0  0  0
   -2.5728   -0.0146    0.0000 C   0  0  0  0  0  0  0  0  0  0  0  0
    2.6233    1.4854    0.0000 O   0  0  0  0  0  0  0  0  0  0  0  0
   -3.9432    0.5955    0.0000 O   0  0  0  0  0  0  0  0  0  0  0  0
   -2.7296   -1.5063    0.0000 O   0  0  0  0  0  0  0  0  0  0  0  0
  4  2  1  0
  5  3  1  0
  7  6  1  0
  8  1  1  0
  9  2  2  0
  9  3  1  0
  9  8  1  0
 10  4  1  0
 10  5  1  0
 11  8  2  0
 12  6  1  0
 12 10  1  0
 13  7  1  0
 13 10  1  0
M  END
>  <NAME>  (3650) 
1-ACETYL-4,4-ETHYLENEDIOXYCYCLOHEXENE

>  <SYNONYMS>  (3650) 


>  <SPECTRUM TYPE>  (3650) 
MS1

>  <INSTRUMENT TYPE>  (3650) 
EI-B

>  <INSTRUMENT>  (3650) 
JEOL JMS-DX-300

>  <ION MODE>  (3650) 
P

>  <INCHIKEY>  (3650) 
VKNUGMHPVXDEJF-UHFFFAOYSA-N

>  <FORMULA>  (3650) 
C10H14O3

>  <EXACT MASS>  (3650) 
182.094294308

>  <MW>  (3650) 
182

>  <ID>  (3650) 
JP006351

>  <CONTRIBUTOR>  (3650) 
University of Tokyo Team, {Faculty of Engineering, University of Tokyo

>  <COMMENT>  (3650) 
SMILES=CC(=O)C(C1)=C([H])CC(O2)(OCC2)C1
InChI=InChI=1S/C10H14O3/c1-8(11)9-2-4-10(5-3-9)12-6-7-13-10/h2H,3-7H2,1H3
computed SMILES=O=C(C1=CCC2(OCCO2)CC1)C
accession=JP006351
date=2016.01.19 (Created 2008.10.21, modified 2011.05.06)
author=HISAHIRO HAGIWARA, CHEMICAL RESEARCH INSTITUTE OF NON-AQUEOUSSOLUTIONS TOHOKU UNIV.
license=CC BY-NC-SA
exact mass=182.09429
ionization energy=70 eV
ion type=[M]+*
computed spectral entropy=3.333817211918449
computed normalized entropy=0.8521977522352489
SPLASH=splash10-053f-9500000000-4f91d05973d2ca16b5ba
submitter=submitter = University of Tokyo Team (Faculty of Engineering, University of Tokyo)
MoNA Rating=3.75

>  <NUM PEAKS>  (3650) 
50

>  <MASS SPECTRAL PEAKS>  (3650) 
31 3.64
37 8.65
38 7.86
39 31.97
40 3.49
41 18.75
42 75.35
44 16.19
45 5.95
51 4.35
52 4.27
53 15.74
54 2.79
55 6.52
57 8.02
58 71.15
59 7.23
65 7.8
66 4.62
67 10.38
73 7.93
77 9.86
81 7.6
83 3.09
85 2.27
87 28.97
88 4.37
94 6.65
95 23.56
96 4.39
99 9.76
108 3.56
109 23.46
110 13.04
121 4.85
123 7.78
125 2.24
136 4.22
137 12.01
138 2.47
139 7.68
140 2.62
151 7.96
152 10.24
154 11.31
167 29.52
168 2.54
182 99.99
183 11.58
184 2.02

>  <PREDICTED SPECTRUM>  (3650) 
14 23
15 15
19 6
25 8
26 49
27 157
28 93
29 164
30 2
31 17
33 3
36 22
37 39
38 118
39 319
40 188
41 307
42 478
43 629
44 111
45 169
50 131
51 235
52 220
53 259
54 159
55 270
56 128
57 95
58 25
62 24
63 78
64 104
65 192
66 169
67 218
68 118
69 88
70 16
76 36
77 199
78 203
79 210
80 173
81 317
82 246
83 103
86 159
87 816
88 107
91 21
92 69
93 140
94 190
95 470
96 233
97 91
98 12
99 93
105 94
106 17
107 198
108 136
109 399
110 332
111 133
120 77
121 223
122 125
123 273
124 70
125 57
137 291
138 170
139 205
140 61
152 101
153 69
154 214
155 129
167 477
168 128
181 144
182 999
183 332
184 95

$$$$

     RDKit          2D

  9  9  0  0  0  0  0  0  0  0999 V2000
   -2.9228    0.8825    0.0000 C   0  0  0  0  0  0  0  0  0  0  0  0
    2.2733   -0.6175    0.0000 C   0  0  0  0  0  0  0  0  0  0  0  0
    2.2738    0.8833    0.0000 C   0  0  0  0  0  0  0  0  0  0  0  0
    0.9738   -1.3683    0.0000 C   0  0  0  0  0  0  0  0  0  0  0  0
    0.9748    1.6333    0.0000 C   0  0  0  0  0  0  0  0  0  0  0  0
   -0.3252   -0.6183    0.0000 C   0  0  0  0  0  0  0  0  0  0  0  0
   -1.6238    1.6325    0.0000 C   0  0  0  0  0  0  0  0  0  0  0  0
   -0.3248    0.8825    0.0000 C   0  0  0  0  0  0  0  0  0  0  0  0
   -1.6238    3.1325    0.0000 O   0  0  0  0  0  0  0  0  0  0  0  0
  3  2  1  0
  4  2  1  0
  5  3  1  0
  6  4  1  0
  7  1  1  0
  8  5  2  0
  8  6  1  0
  8  7  1  0
  9  7  2  0
M  END
>  <NAME>  (3651) 
1-ACETYLCYCLOHEXENE

>  <SYNONYMS>  (3651) 


>  <SPECTRUM TYPE>  (3651) 
MS1

>  <INSTRUMENT TYPE>  (3651) 
EI-B

>  <INSTRUMENT>  (3651) 
JEOL JMS-DX-300

>  <ION MODE>  (3651) 
P

>  <INCHIKEY>  (3651) 
LTYLUDGDHUEBGX-UHFFFAOYSA-N

>  <FORMULA>  (3651) 
C8H12O

>  <EXACT MASS>  (3651) 
124.088815004

>  <MW>  (3651) 
124

>  <ID>  (3651) 
JP006350

>  <CONTRIBUTOR>  (3651) 
University of Tokyo Team, {Faculty of Engineering, University of Tokyo

>  <COMMENT>  (3651) 
SMILES=CC(=O)C(C1)=C([H])CCC1
InChI=InChI=1S/C8H12O/c1-7(9)8-5-3-2-4-6-8/h5H,2-4,6H2,1H3
computed SMILES=O=C(C1=CCCCC1)C
accession=JP006350
date=2016.01.19 (Created 2008.10.21, modified 2011.05.06)
author=HISAHIRO HAGIWARA, CHEMICAL RESEARCH INSTITUTE OF NON-AQUEOUSSOLUTIONS TOHOKU UNIV.
license=CC BY-NC-SA
exact mass=124.08882
ionization energy=70 eV
ion type=[M]+*
computed spectral entropy=2.9504512186220335
computed normalized entropy=0.7844440944025581
SPLASH=splash10-001i-9200000000-05170061fb0fcdd888dc
submitter=submitter = University of Tokyo Team (Faculty of Engineering, University of Tokyo)
MoNA Rating=3.75

>  <NUM PEAKS>  (3651) 
43

>  <MASS SPECTRAL PEAKS>  (3651) 
37 1.08
38 2.09
39 15.58
41 20.17
42 3.04
43 28.25
44 5.45
45 1.79
49 1.27
50 2.6
51 5.43
52 2.65
53 17.83
54 18
55 6.24
58 18.62
59 1.11
63 1.12
65 4.33
66 3.69
67 46.83
68 2.55
71 2.32
75 2.12
77 9.07
78 2.01
79 37.6
80 12.93
81 99.99
82 48.94
83 3.09
84 1.77
91 2.79
95 2.07
102 1.01
105 1.41
107 1.22
109 54.72
110 3.67
117 1.44
124 58.8
125 17.69
126 1.45

>  <PREDICTED SPECTRUM>  (3651) 
14 5
15 2
26 45
27 147
28 48
29 39
37 67
38 131
39 378
40 183
41 316
42 44
43 897
44 106
45 104
49 21
50 166
51 283
52 233
53 490
54 231
55 198
56 26
57 13
58 13
61 71
62 82
63 158
64 99
65 262
66 182
67 348
68 197
69 58
77 243
78 32
79 389
80 151
81 999
82 360
83 72
91 140
94 5
95 166
96 261
97 152
105 40
107 125
108 9
109 622
110 148
123 201
124 798
125 250
126 21

$$$$

     RDKit          2D

 11 10  0  0  1  0  0  0  0  0999 V2000
   -6.8200    5.0625    0.0000 C   0  0  0  0  0  0  0  0  0  0  0  0
   -5.5209    2.8125    0.0000 C   0  0  0  0  0  0  0  0  0  0  0  0
   -0.3248    2.8125    0.0000 C   0  0  0  0  0  0  0  0  0  0  0  0
   -2.9228    4.3125    0.0000 C   0  0  0  0  0  0  0  0  0  0  0  0
   -4.2219    5.0625    0.0000 C   0  0  0  0  0  0  0  0  0  0  0  0
   -1.6238    5.0625    0.0000 C   0  0  0  0  0  0  0  0  0  0  0  0
    0.9743    5.0625    0.0000 C   0  0  0  0  0  0  0  0  0  0  0  0
    2.2733    4.3125    0.0000 C   0  0  0  0  0  0  0  0  0  0  0  0
   -5.5209    4.3125    0.0000 C   0  0  0  0  0  0  0  0  0  0  0  0
   -0.3248    4.3125    0.0000 C   0  0  0  0  0  0  0  0  0  0  0  0
    3.5724    5.0625    0.0000 O   0  0  0  0  0  0  0  0  0  0  0  0
  5  4  1  0
  6  4  1  0
  8  7  1  0
  9  1  2  0
  9  2  1  0
  9  5  1  0
 10  3  1  1
 10  6  1  0
 10  7  1  0
 11  8  1  0
M  END
>  <NAME>  (3652) 
3(S)-CITRONELOL

>  <SYNONYMS>  (3652) 


>  <SPECTRUM TYPE>  (3652) 
MS1

>  <INSTRUMENT TYPE>  (3652) 
EI-B

>  <INSTRUMENT>  (3652) 
JEOL JMS-DX-300

>  <ION MODE>  (3652) 
P

>  <INCHIKEY>  (3652) 
JGQFVRIQXUFPAH-JTQLQIEISA-N

>  <FORMULA>  (3652) 
C10H20O

>  <EXACT MASS>  (3652) 
156.15141526

>  <MW>  (3652) 
156

>  <ID>  (3652) 
JP006349

>  <CONTRIBUTOR>  (3652) 
University of Tokyo Team, {Faculty of Engineering, University of Tokyo

>  <COMMENT>  (3652) 
SMILES=OCCC([H])(C)CCCC(C)=C
InChI=InChI=1S/C10H20O/c1-9(2)5-4-6-10(3)7-8-11/h10-11H,1,4-8H2,2-3H3/t10-/m0/s1
computed SMILES=OCCC(C)CCCC(=C)C
accession=JP006349
date=2016.01.19 (Created 2008.10.21, modified 2011.05.06)
author=HISAHIRO HAGIWARA, CHEMICAL RESEARCH INSTITUTE OF NON-AQUEOUSSOLUTIONS TOHOKU UNIV.
license=CC BY-NC-SA
exact mass=156.15142
ionization energy=70 eV
ion type=[M]+*
computed spectral entropy=3.1292238880095047
computed normalized entropy=0.8173196609322138
SPLASH=splash10-067l-9000000000-95551f92ce5fa91af3b4
submitter=submitter = University of Tokyo Team (Faculty of Engineering, University of Tokyo)
MoNA Rating=3.75

>  <NUM PEAKS>  (3652) 
46

>  <MASS SPECTRAL PEAKS>  (3652) 
31 21.84
39 25.09
41 99.99
42 11.08
43 21.99
45 3.49
51 2.38
52 1.41
53 13.99
54 5.6
55 65.63
56 44.45
57 15.52
65 2.72
66 1.5
67 55.17
68 29.77
69 81.78
70 16.71
71 25.29
72 1.53
77 1.95
79 3.74
80 0.37
81 45.7
82 49.58
83 14.06
84 2.36
85 3.44
86 2.52
91 1.07
93 1.28
94 1.67
95 35.13
96 7.85
97 1.25
99 1.32
109 13.79
110 5.28
111 1.64
112 1.51
123 19.73
124 2.06
138 9.58
139 1.28
156 7.04

>  <PREDICTED SPECTRUM>  (3652) 
15 25
17 20
18 55
19 23
26 49
27 330
28 127
29 417
30 93
31 272
32 55
33 2
37 33
38 93
39 462
40 175
41 999
42 385
43 495
44 168
45 244
47 25
50 63
51 149
52 83
53 326
54 335
55 807
56 519
57 427
58 111
59 58
60 22
61 13
62 4
63 42
65 143
66 139
67 616
68 539
69 885
70 358
71 298
72 105
73 88
77 178
78 71
79 177
80 134
81 662
82 644
83 360
84 157
85 140
86 48
91 97
92 11
93 116
94 136
95 636
96 425
97 159
98 11
99 33
100 35
101 67
107 0
109 408
110 301
111 105
112 67
113 66
114 16
123 381
124 153
125 60
126 9
127 3
128 26
138 276
139 56
141 11
156 123
157 50

$$$$

     RDKit          2D

 11 10  0  0  1  0  0  0  0  0999 V2000
   -6.8200    5.0625    0.0000 C   0  0  0  0  0  0  0  0  0  0  0  0
   -5.5209    2.8125    0.0000 C   0  0  0  0  0  0  0  0  0  0  0  0
   -0.3248    2.8125    0.0000 C   0  0  0  0  0  0  0  0  0  0  0  0
   -2.9228    4.3125    0.0000 C   0  0  0  0  0  0  0  0  0  0  0  0
   -4.2219    5.0625    0.0000 C   0  0  0  0  0  0  0  0  0  0  0  0
   -1.6238    5.0625    0.0000 C   0  0  0  0  0  0  0  0  0  0  0  0
    0.9743    5.0625    0.0000 C   0  0  0  0  0  0  0  0  0  0  0  0
    2.2733    4.3125    0.0000 C   0  0  0  0  0  0  0  0  0  0  0  0
   -5.5209    4.3125    0.0000 C   0  0  0  0  0  0  0  0  0  0  0  0
   -0.3248    4.3125    0.0000 C   0  0  0  0  0  0  0  0  0  0  0  0
    3.5724    5.0625    0.0000 O   0  0  0  0  0  0  0  0  0  0  0  0
  5  4  1  0
  6  4  1  0
  8  7  1  0
  9  1  1  0
  9  2  1  0
  9  5  2  0
 10  3  1  1
 10  6  1  0
 10  7  1  0
 11  8  2  0
M  END
>  <NAME>  (3653) 
3(S)-CITRONELAL

>  <SYNONYMS>  (3653) 


>  <SPECTRUM TYPE>  (3653) 
MS1

>  <INSTRUMENT TYPE>  (3653) 
EI-B

>  <INSTRUMENT>  (3653) 
JEOL JMS-DX-300

>  <ION MODE>  (3653) 
P

>  <INCHIKEY>  (3653) 
NEHNMFOYXAPHSD-JTQLQIEISA-N

>  <FORMULA>  (3653) 
C10H18O

>  <EXACT MASS>  (3653) 
154.135765196

>  <MW>  (3653) 
154

>  <ID>  (3653) 
JP006348

>  <CONTRIBUTOR>  (3653) 
University of Tokyo Team, {Faculty of Engineering, University of Tokyo

>  <COMMENT>  (3653) 
SMILES=O=CCC([H])(C)CCC=C(C)C
InChI=InChI=1S/C10H18O/c1-9(2)5-4-6-10(3)7-8-11/h5,8,10H,4,6-7H2,1-3H3/t10-/m0/s1
computed SMILES=O=CCC(C)CCC=C(C)C
accession=JP006348
date=2016.01.19 (Created 2008.10.21, modified 2011.05.06)
author=HISAHIRO HAGIWARA, CHEMICAL RESEARCH INSTITUTE OF NON-AQUEOUSSOLUTIONS TOHOKU UNIV.
license=CC BY-NC-SA
exact mass=154.13577
ionization energy=70 eV
ion type=[M]+*
computed spectral entropy=3.2347437006310082
computed normalized entropy=0.8355917689410765
SPLASH=splash10-05mo-9100000000-b8f41a4c5767a5173327
submitter=submitter = University of Tokyo Team (Faculty of Engineering, University of Tokyo)
MoNA Rating=3.75

>  <NUM PEAKS>  (3653) 
48

>  <MASS SPECTRAL PEAKS>  (3653) 
39 20.39
41 99.99
42 9.81
43 19.62
44 1.61
51 2.38
52 1.21
53 11.21
54 3.35
55 44.35
56 28.4
57 9.81
59 2.16
65 2.24
66 1.14
67 19.42
68 10.84
69 84.91
70 13.59
71 11.94
72 3.25
77 2.22
79 4.01
80 2.06
81 11.62
82 5.58
83 12.29
84 15.03
85 3.48
91 1.56
93 6.84
94 1.98
95 38.82
96 5.63
97 8.37
98 8.06
107 1.97
109 12.36
110 15.1
111 16.49
112 7.67
121 16.7
122 1.78
123 2.59
136 7.15
139 5.42
154 10.03
155 1.02

>  <PREDICTED SPECTRUM>  (3653) 
26 46
27 295
28 85
29 294
30 9
31 52
32 10
36 2
37 15
38 56
39 376
40 148
41 894
42 328
43 607
44 161
45 72
50 93
51 163
52 108
53 341
54 241
55 738
56 528
57 333
58 192
59 116
60 5
61 0
62 23
63 60
65 153
66 128
67 535
68 376
69 999
70 434
71 356
72 197
76 2
77 187
78 87
79 239
80 190
81 384
82 368
83 371
84 315
85 199
86 71
89 4
91 144
92 53
93 247
94 198
95 563
96 409
97 238
98 173
99 128
100 7
103 27
105 53
107 143
108 16
109 411
110 354
111 317
112 192
113 52
119 57
121 362
122 119
123 112
125 87
126 45
136 226
137 107
139 105
140 15
154 186
155 37

$$$$

     RDKit          2D

  9  9  0  0  0  0  0  0  0  0999 V2000
   -0.2633    1.6636    0.0000 C   0  0  0  0  0  0  0  0  0  0  0  0
   -0.2649   -2.8740    0.0000 C   0  0  0  0  0  0  0  0  0  0  0  0
   -1.5558   -2.1182    0.0000 C   0  0  0  0  0  0  0  0  0  0  0  0
    1.0341   -2.1240    0.0000 C   0  0  0  0  0  0  0  0  0  0  0  0
   -0.2636    0.1636    0.0000 C   0  0  0  0  0  0  0  0  0  0  0  0
   -1.5539   -0.5814    0.0000 C   0  0  0  0  0  0  0  0  0  0  0  0
    1.0360   -0.5872    0.0000 C   0  0  0  0  0  0  0  0  0  0  0  0
   -2.8525    0.1694    0.0000 O   0  0  0  0  0  0  0  0  0  0  0  0
    2.3356    0.1618    0.0000 O   0  0  0  0  0  0  0  0  0  0  0  0
  3  2  1  0
  4  2  1  0
  5  1  1  0
  6  3  1  0
  6  5  1  0
  7  4  1  0
  7  5  1  0
  8  6  2  0
  9  7  2  0
M  END
>  <NAME>  (3654) 
2-METHYLCYCLOHEXAN-1,3-DIONE

>  <SYNONYMS>  (3654) 


>  <SPECTRUM TYPE>  (3654) 
MS1

>  <INSTRUMENT TYPE>  (3654) 
EI-B

>  <INSTRUMENT>  (3654) 
JEOL JMS-DX-300

>  <ION MODE>  (3654) 
P

>  <INCHIKEY>  (3654) 
VSGJHHIAMHUZKF-UHFFFAOYSA-N

>  <FORMULA>  (3654) 
C7H10O2

>  <EXACT MASS>  (3654) 
126.06807956

>  <MW>  (3654) 
126

>  <ID>  (3654) 
JP006347

>  <CONTRIBUTOR>  (3654) 
University of Tokyo Team, {Faculty of Engineering, University of Tokyo

>  <COMMENT>  (3654) 
SMILES=O=C(C1)C(C)C(=O)CC1
InChI=InChI=1S/C7H10O2/c1-5-6(8)3-2-4-7(5)9/h5H,2-4H2,1H3
computed SMILES=O=C1CCCC(=O)C1C
accession=JP006347
date=2016.01.19 (Created 2008.10.21, modified 2011.05.06)
author=HISAHIRO HAGIWARA, CHEMICAL RESEARCH INSTITUTE OF NON-AQUEOUSSOLUTIONS TOHOKU UNIV.
license=CC BY-NC-SA
exact mass=126.06808
ionization energy=70 eV
ion type=[M]+*
computed spectral entropy=3.1663974357409237
computed normalized entropy=0.7798157559450188
SPLASH=splash10-0a6v-9100000000-f42b1ba9bd6ea75a904b
submitter=submitter = University of Tokyo Team (Faculty of Engineering, University of Tokyo)
MoNA Rating=3.75

>  <NUM PEAKS>  (3654) 
58

>  <MASS SPECTRAL PEAKS>  (3654) 
15 2.73
26 4.42
27 23.18
29 7.93
31 4.07
35 1.39
38 1.62
39 13.63
41 15.87
42 57.73
43 20.04
44 5.98
45 42.9
46 1.57
50 1.27
51 1.61
52 1.22
53 5.49
54 2.44
55 99.99
56 39.32
57 12.21
58 4.19
59 0.73
60 1.09
67 1.77
68 1.69
69 8.97
70 51.53
71 8.58
72 3.64
73 6.93
75 1.09
77 1.39
79 1.56
80 1.18
81 2.04
83 31.78
84 3.63
85 2.38
86 1.18
87 7.99
88 3.05
89 18.49
90 1.04
91 1.09
97 12.3
98 68.93
99 4.93
101 1.77
103 3.38
107 1.33
111 1.17
117 1.58
119 1.46
121 1.23
126 64.44
127 5.61

>  <PREDICTED SPECTRUM>  (3654) 
26 64
27 222
28 147
29 47
38 16
39 346
40 166
41 409
42 580
43 313
44 37
50 44
51 147
52 30
53 97
54 120
55 765
56 439
57 192
63 9
65 142
66 32
67 124
68 34
69 529
70 942
71 296
72 31
81 28
82 59
83 567
84 387
93 43
97 358
98 534
99 118
109 47
111 283
112 29
125 44
126 999
127 249
128 20

$$$$

     RDKit          2D

  9  9  0  0  0  0  0  0  0  0999 V2000
    2.6052   -0.7613    0.0000 C   0  0  0  0  0  0  0  0  0  0  0  0
   -2.6041   -0.8953    0.0000 C   0  0  0  0  0  0  0  0  0  0  0  0
   -0.0300    2.1400    0.0000 C   0  0  0  0  0  0  0  0  0  0  0  0
    1.2600    1.4400    0.0000 C   0  0  0  0  0  0  0  0  0  0  0  0
   -1.3200    1.4000    0.0000 C   0  0  0  0  0  0  0  0  0  0  0  0
    1.2900   -0.0400    0.0000 C   0  0  0  0  0  0  0  0  0  0  0  0
   -1.3200   -0.1200    0.0000 C   0  0  0  0  0  0  0  0  0  0  0  0
    0.0100   -0.8200    0.0000 C   0  0  0  0  0  0  0  0  0  0  0  0
    0.0571   -2.3193    0.0000 O   0  0  0  0  0  0  0  0  0  0  0  0
  4  3  1  0
  5  3  1  0
  6  1  1  0
  6  4  2  0
  7  2  1  0
  7  5  1  0
  8  6  1  0
  8  7  1  0
  9  8  2  0
M  END
>  <NAME>  (3655) 
2,6-DIMETHYL-2-CYCLOHEXENONE

>  <SYNONYMS>  (3655) 


>  <SPECTRUM TYPE>  (3655) 
MS1

>  <INSTRUMENT TYPE>  (3655) 
EI-B

>  <INSTRUMENT>  (3655) 
JEOL JMS-DX-300

>  <ION MODE>  (3655) 
P

>  <INCHIKEY>  (3655) 
OBDPTOBECPVDMB-UHFFFAOYSA-N

>  <FORMULA>  (3655) 
C8H12O

>  <EXACT MASS>  (3655) 
124.088815004

>  <MW>  (3655) 
124

>  <ID>  (3655) 
JP006345

>  <CONTRIBUTOR>  (3655) 
University of Tokyo Team, {Faculty of Engineering, University of Tokyo

>  <COMMENT>  (3655) 
SMILES=CC(C1)C(=O)C(C)=CC1
InChI=InChI=1S/C8H12O/c1-6-4-3-5-7(2)8(6)9/h4,7H,3,5H2,1-2H3
computed SMILES=O=C1C(=CCCC1C)C
accession=JP006345
date=2016.01.19 (Created 2008.10.21, modified 2011.05.06)
author=HISAHIRO HAGIWARA, CHEMICAL RESEARCH INSTITUTE OF NON-AQUEOUSSOLUTIONS TOHOKU UNIV.
license=CC BY-NC-SA
exact mass=124.08882
ionization energy=70 eV
ion type=[M]+*
computed spectral entropy=2.7128458992113185
computed normalized entropy=0.730521947731822
SPLASH=splash10-001i-9100000000-8dbaafb962c39fc9695c
submitter=submitter = University of Tokyo Team (Faculty of Engineering, University of Tokyo)
MoNA Rating=3.75

>  <NUM PEAKS>  (3655) 
41

>  <MASS SPECTRAL PEAKS>  (3655) 
31 1.48
32 16.42
37 1.83
38 1.48
39 14.81
41 11.17
42 1.58
43 0.12
44 1.13
45 2.33
50 1.36
51 2.56
52 2.18
53 6.43
54 27.62
55 8.64
56 3.04
57 1.86
58 2.11
59 2.59
63 0.98
65 2.56
67 4.22
68 2.59
69 8.84
70 1.66
73 5.2
77 1.68
79 3.21
81 3.59
82 99.99
83 6.35
85 1.68
87 2.61
91 2.08
95 2.23
96 3.11
101 2.39
109 1.98
124 46.85
125 5.05

>  <PREDICTED SPECTRUM>  (3655) 
26 57
27 143
28 44
38 58
39 339
40 179
41 466
42 235
43 87
50 91
51 205
52 164
53 337
54 419
55 299
56 32
63 18
65 158
66 127
67 519
68 290
69 225
70 37
77 96
78 94
79 123
80 126
81 265
82 999
83 305
95 123
96 109
109 66
123 3
124 597
125 174

$$$$

     RDKit          2D

 12 12  0  0  0  0  0  0  0  0999 V2000
   -2.3489   -3.4543    0.0000 C   0  0  0  0  0  0  0  0  0  0  0  0
    0.2500   -1.9700    0.0000 C   0  0  0  0  0  0  0  0  0  0  0  0
    1.5700   -1.2100    0.0000 C   0  0  0  0  0  0  0  0  0  0  0  0
   -2.3423   -1.9543    0.0000 C   0  0  0  0  0  0  0  0  0  0  0  0
   -1.0400   -1.2100    0.0000 C   0  0  0  0  0  0  0  0  0  0  0  0
    1.5700    0.3000    0.0000 C   0  0  0  0  0  0  0  0  0  0  0  0
   -1.0400    0.3000    0.0000 C   0  0  0  0  0  0  0  0  0  0  0  0
    0.2500    1.0500    0.0000 C   0  0  0  0  0  0  0  0  0  0  0  0
   -3.6381   -1.1986    0.0000 O   0  0  0  0  0  0  0  0  0  0  0  0
    2.8664    1.0545    0.0000 O   0  0  0  0  0  0  0  0  0  0  0  0
   -2.3402    1.0480    0.0000 O   0  0  0  0  0  0  0  0  0  0  0  0
    0.2426    2.5500    0.0000 O   0  0  0  0  0  0  0  0  0  0  0  0
  3  2  2  0
  4  1  1  0
  5  2  1  0
  5  4  1  0
  6  3  1  0
  7  5  2  0
  8  6  2  0
  8  7  1  0
  9  4  2  0
 10  6  1  0
 11  7  1  0
 12  8  1  0
M  END
>  <NAME>  (3656) 
2,3,4-TRIHYDROXYACETOPHENONE

>  <SYNONYMS>  (3656) 


>  <SPECTRUM TYPE>  (3656) 
MS1

>  <INSTRUMENT TYPE>  (3656) 
EI-B

>  <INSTRUMENT>  (3656) 
HITACHI RMU-7L

>  <ION MODE>  (3656) 
P

>  <INCHIKEY>  (3656) 
XIROXSOOOAZHLL-UHFFFAOYSA-N

>  <FORMULA>  (3656) 
C8H8O4

>  <EXACT MASS>  (3656) 
168.042258736

>  <MW>  (3656) 
168

>  <ID>  (3656) 
JP006344

>  <CONTRIBUTOR>  (3656) 
University of Tokyo Team, {Faculty of Engineering, University of Tokyo

>  <COMMENT>  (3656) 
SMILES=CC(=O)c(c1)c(O)c(O)c(O)c1
InChI=InChI=1S/C8H8O4/c1-4(9)5-2-3-6(10)8(12)7(5)11/h2-3,10-12H,1H3
computed SMILES=O=C(C1=CC=C(O)C(O)=C1O)C
accession=JP006344
date=2016.01.19 (Created 2008.10.21, modified 2011.05.06)
author=EGUCHI S, FAC. OF SCIENCE, HIROSHIMA UNIV.
license=CC BY-NC-SA
exact mass=168.04226
ionization energy=70 eV
ion type=[M]+*
computed spectral entropy=2.393089044862087
computed normalized entropy=0.6444170200218807
SPLASH=splash10-0udi-3900000000-8961e8b0df80eb14cfea
submitter=submitter = University of Tokyo Team (Faculty of Engineering, University of Tokyo)
MoNA Rating=3.75

>  <NUM PEAKS>  (3656) 
41

>  <MASS SPECTRAL PEAKS>  (3656) 
40 1.2
41 4.5
42 1
43 1.04
51 6.2
52 3.5
53 5.5
55 0.3
62 1.5
63 3.5
64 1
65 0.43
66 3.8
67 2.7
68 4
69 0.1
70 1
78 2.5
79 11.5
81 0.1
83 1
93 5
94 1.1
95 0.11
97 1.5
106 2.5
107 6
108 0.1
109 1
121 2.2
122 1
123 0.1
124 1.2
125 4.5
135 1.5
148 0.1
149 5.2
153 99.99
154 8.5
168 5.1
169 5.5

>  <PREDICTED SPECTRUM>  (3656) 
15 6
27 37
28 28
29 30
37 27
38 73
39 179
40 84
41 187
42 116
43 298
44 89
45 59
49 9
50 97
51 225
52 270
53 318
54 151
55 160
56 20
57 44
61 15
62 4
64 48
65 118
66 169
67 172
68 53
69 174
70 97
71 9
76 26
77 135
78 144
79 243
80 149
81 99
82 58
83 6
92 41
93 84
94 41
95 72
96 47
97 179
98 69
105 17
106 16
107 112
108 16
109 26
110 23
111 5
121 110
122 101
123 84
124 61
125 426
126 96
127 3
135 2
139 123
149 71
150 131
151 94
152 72
153 999
154 310
155 129
167 120
168 883
169 274
170 70

$$$$

     RDKit          2D

 14 14  0  0  0  0  0  0  0  0999 V2000
    3.5724    2.7374    0.0000 C   0  0  0  0  0  0  0  0  0  0  0  0
   -2.9227   -1.0126    0.0000 C   0  0  0  0  0  0  0  0  0  0  0  0
   -0.3248    3.4885    0.0000 C   0  0  0  0  0  0  0  0  0  0  0  0
    0.9748   -1.7634    0.0000 C   0  0  0  0  0  0  0  0  0  0  0  0
   -0.3252    0.4883    0.0000 C   0  0  0  0  0  0  0  0  0  0  0  0
    3.5724    1.2374    0.0000 C   0  0  0  0  0  0  0  0  0  0  0  0
   -0.3247   -1.0126    0.0000 C   0  0  0  0  0  0  0  0  0  0  0  0
    2.2739   -1.0134    0.0000 C   0  0  0  0  0  0  0  0  0  0  0  0
    0.9739    1.2383    0.0000 C   0  0  0  0  0  0  0  0  0  0  0  0
    2.2734    0.4874    0.0000 C   0  0  0  0  0  0  0  0  0  0  0  0
    4.8715    0.4874    0.0000 O   0  0  0  0  0  0  0  0  0  0  0  0
    3.5730   -1.7632    0.0000 O   0  0  0  0  0  0  0  0  0  0  0  0
   -1.6237   -1.7626    0.0000 O   0  0  0  0  0  0  0  0  0  0  0  0
    0.9741    2.7383    0.0000 O   0  0  0  0  0  0  0  0  0  0  0  0
  6  1  1  0
  7  4  2  0
  7  5  1  0
  8  4  1  0
  9  5  2  0
 10  6  1  0
 10  8  2  0
 10  9  1  0
 11  6  2  0
 12  8  1  0
 13  2  1  0
 13  7  1  0
 14  3  1  0
 14  9  1  0
M  END
>  <NAME>  (3657) 
2-HYDROXY-4,6-DIMETHOXYACETOPHENONE

>  <SYNONYMS>  (3657) 


>  <SPECTRUM TYPE>  (3657) 
MS1

>  <INSTRUMENT TYPE>  (3657) 
EI-B

>  <INSTRUMENT>  (3657) 
HITACHI RMU-7L

>  <ION MODE>  (3657) 
P

>  <INCHIKEY>  (3657) 
FBUBVLUPUDBFME-UHFFFAOYSA-N

>  <FORMULA>  (3657) 
C10H12O4

>  <EXACT MASS>  (3657) 
196.073558864

>  <MW>  (3657) 
196

>  <ID>  (3657) 
JP006343

>  <CONTRIBUTOR>  (3657) 
University of Tokyo Team, {Faculty of Engineering, University of Tokyo

>  <COMMENT>  (3657) 
SMILES=COc(c1)cc(OC)c(C(C)=O)c(O)1
InChI=InChI=1S/C10H12O4/c1-6(11)10-8(12)4-7(13-2)5-9(10)14-3/h4-5,12H,1-3H3
computed SMILES=O=C(C=1C(O)=CC(OC)=CC1OC)C
accession=JP006343
date=2016.01.19 (Created 2008.10.21, modified 2011.05.06)
author=EGUCHI S, FAC. OF SCIENCE, HIROSHIMA UNIV.
license=CC BY-NC-SA
exact mass=196.07356
ionization energy=70 eV
ion type=[M]+*
computed spectral entropy=2.7828094302227564
computed normalized entropy=0.6716676173952101
SPLASH=splash10-001i-2900000000-7f4577d7995fbddd577f
submitter=submitter = University of Tokyo Team (Faculty of Engineering, University of Tokyo)
MoNA Rating=3.75

>  <NUM PEAKS>  (3657) 
63

>  <MASS SPECTRAL PEAKS>  (3657) 
40 1.5
41 2.8
42 1.2
43 0.95
50 2.5
51 4.5
52 2.5
53 0.55
54 2.5
55 3.2
59 2.5
61 0.15
62 2.5
63 3
64 2.2
65 0.35
66 3.2
67 2.7
68 1.5
69 0.7
77 3
79 3
80 2
81 0.27
82 1.2
83 1.2
84 2.1
91 0.2
92 1
93 1
94 1.2
95 0.63
108 1.5
109 2.5
110 3
111 0.25
119 1
121 1.8
122 1.8
123 0.37
124 1.8
125 2.8
135 1.5
136 0.1
137 8
138 5.5
139 1.1
149 0.1
151 2.7
152 1
153 1.5
163 0.18
165 1.5
166 5.5
167 2
177 0.19
178 2.8
179 1.7
181 99.99
182 0.9
195 1
196 30.5
197 4.2

>  <PREDICTED SPECTRUM>  (3657) 
15 19
27 19
28 0
38 23
39 80
40 44
41 96
42 40
43 279
44 8
50 20
51 79
52 89
53 129
54 108
55 114
56 16
57 30
61 20
62 23
63 53
64 30
65 18
66 82
67 96
68 98
69 223
70 25
77 102
78 67
79 97
80 79
81 86
82 58
83 39
84 54
85 47
91 29
92 8
93 35
95 57
96 28
97 25
99 22
107 55
108 7
109 33
110 82
111 46
112 12
113 56
120 14
121 12
122 64
123 94
124 43
125 76
135 69
136 0
137 0
138 134
139 75
140 62
149 14
150 8
151 32
153 80
163 35
166 129
167 106
178 49
179 76
180 40
181 999
182 273
183 68
196 623
197 173
198 13

$$$$

     RDKit          2D

 15 15  0  0  0  0  0  0  0  0999 V2000
    3.3281   -0.4204    0.0000 C   0  0  0  0  0  0  0  0  0  0  0  0
   -1.8707   -3.4190    0.0000 C   0  0  0  0  0  0  0  0  0  0  0  0
   -2.6198   -2.1194    0.0000 H   0  0  0  0  0  0  0  0  0  0  0  0
   -3.1704   -4.1680    0.0000 H   0  0  0  0  0  0  0  0  0  0  0  0
   -1.1217   -4.7186    0.0000 H   0  0  0  0  0  0  0  0  0  0  0  0
   -1.9000    1.1000    0.0000 C   0  0  0  0  0  0  0  0  0  0  0  0
   -0.6000    1.8400    0.0000 C   0  0  0  0  0  0  0  0  0  0  0  0
   -1.9000   -0.4000    0.0000 C   0  0  0  0  0  0  0  0  0  0  0  0
    2.0289   -1.1702    0.0000 C   0  0  0  0  0  0  0  0  0  0  0  0
    0.7300    1.0700    0.0000 C   0  0  0  0  0  0  0  0  0  0  0  0
   -0.5700   -1.1700    0.0000 C   0  0  0  0  0  0  0  0  0  0  0  0
    0.7300   -0.4200    0.0000 C   0  0  0  0  0  0  0  0  0  0  0  0
    2.0287   -2.6702    0.0000 O   0  0  0  0  0  0  0  0  0  0  0  0
    2.0295    1.8192    0.0000 O   0  0  0  0  0  0  0  0  0  0  0  0
   -0.5711   -2.6700    0.0000 O   0  0  0  0  0  0  0  0  0  0  0  0
  2  3  1  0
  2  4  1  0
  2  5  1  0
  7  6  2  0
  8  6  1  0
  9  1  1  0
 10  7  1  0
 11  8  2  0
 12  9  1  0
 12 10  2  0
 12 11  1  0
 13  9  2  0
 14 10  1  0
 15  2  1  0
 15 11  1  0
M  ISO  3   3   2   4   2   5   2
M  END
>  <NAME>  (3658) 
2-HYDROXY-6-METHOXYACETOPHENONE (6,6,6-D3)

>  <SYNONYMS>  (3658) 
2-HYDROXY-6-DEUTEROMETHOXYACETOPHENONE

>  <SPECTRUM TYPE>  (3658) 
MS1

>  <INSTRUMENT TYPE>  (3658) 
EI-B

>  <INSTRUMENT>  (3658) 
HITACHI RMU-7L

>  <ION MODE>  (3658) 
P

>  <INCHIKEY>  (3658) 
UENLHUMCIOWYQN-BMSJAHLVSA-N

>  <FORMULA>  (3658) 
C9H10O3

>  <EXACT MASS>  (3658) 
169.081824418

>  <MW>  (3658) 
169

>  <ID>  (3658) 
JP006340

>  <CONTRIBUTOR>  (3658) 
University of Tokyo Team, {Faculty of Engineering, University of Tokyo

>  <COMMENT>  (3658) 
SMILES=[2H]C([2H])([2H])Oc(c1)c(C(C)=O)c(O)cc1
InChI=InChI=1S/C9H10O3/c1-6(10)9-7(11)4-3-5-8(9)12-2/h3-5,11H,1-2H3/i2D3
computed SMILES=[H]C([H])([H])OC=1C=CC=C(O)C1C(=O)C
accession=JP006340
date=2016.01.19 (Created 2008.10.21, modified 2011.05.06)
author=EGUCHI S, FAC. OF SCIENCE, HIROSHIMA UNIV.
license=CC BY-NC-SA
exact mass=166.06299
ionization energy=70 eV
ion type=[M]+*
computed spectral entropy=3.307898052407145
computed normalized entropy=0.8112489702212603
SPLASH=splash10-0udi-9500000000-552276658ba27c7087cc
submitter=submitter = University of Tokyo Team (Faculty of Engineering, University of Tokyo)
MoNA Rating=3.75

>  <NUM PEAKS>  (3658) 
59

>  <MASS SPECTRAL PEAKS>  (3658) 
40 11
41 7.5
42 12.5
43 7.95
44 5.5
49 2.5
50 19.5
51 4.95
52 45.5
53 40
54 3.8
55 1.07
56 2.5
61 3
62 11.5
63 1.95
64 9.5
65 13.8
66 34.5
67 1
68 5.5
69 9.5
70 6
74 0.4
75 3.5
76 3.5
77 16.5
78 0.75
79 12
80 14.5
81 4
82 0.15
83 3.5
91 2
92 3
93 0.35
94 11
95 3.9
98 3
105 0.35
106 1
107 5.5
108 19.5
109 0.3
121 2.5
122 4
123 2.8
136 1.35
137 3.8
149 3
150 3.5
151 0.4
152 3
153 6
154 99.99
155 1.05
169 34
170 5.5
171 1

>  <PREDICTED SPECTRUM>  (3658) 
25 0
26 54
27 90
33 30
34 2
37 97
38 187
39 437
40 183
41 207
42 150
43 479
44 136
45 118
46 14
49 36
50 196
51 331
52 348
53 438
54 260
55 239
56 94
57 116
58 59
59 74
60 34
61 77
62 164
63 228
64 228
65 309
66 221
67 280
68 160
69 238
70 70
71 74
72 26
74 39
75 22
76 119
77 166
78 150
79 191
80 272
81 242
82 238
83 187
84 84
85 99
86 55
87 20
89 0
90 33
91 20
92 105
93 139
94 199
95 303
96 106
97 42
98 37
99 94
102 7
107 145
108 264
109 252
110 182
111 212
112 67
121 137
122 193
123 120
124 67
125 46
126 165
127 73
136 197
137 180
138 22
139 45
140 12
151 112
152 171
153 21
154 999
155 326
156 106
169 899
170 287
171 95

$$$$

     RDKit          2D

 12 12  0  0  0  0  0  0  0  0999 V2000
    3.3281   -0.4204    0.0000 C   0  0  0  0  0  0  0  0  0  0  0  0
   -1.8707   -3.4190    0.0000 C   0  0  0  0  0  0  0  0  0  0  0  0
   -1.9000    1.1000    0.0000 C   0  0  0  0  0  0  0  0  0  0  0  0
   -0.6000    1.8400    0.0000 C   0  0  0  0  0  0  0  0  0  0  0  0
   -1.9000   -0.4000    0.0000 C   0  0  0  0  0  0  0  0  0  0  0  0
    2.0289   -1.1702    0.0000 C   0  0  0  0  0  0  0  0  0  0  0  0
    0.7300    1.0700    0.0000 C   0  0  0  0  0  0  0  0  0  0  0  0
   -0.5700   -1.1700    0.0000 C   0  0  0  0  0  0  0  0  0  0  0  0
    0.7300   -0.4200    0.0000 C   0  0  0  0  0  0  0  0  0  0  0  0
    2.0287   -2.6702    0.0000 O   0  0  0  0  0  0  0  0  0  0  0  0
    2.0295    1.8192    0.0000 O   0  0  0  0  0  0  0  0  0  0  0  0
   -0.5711   -2.6700    0.0000 O   0  0  0  0  0  0  0  0  0  0  0  0
  4  3  2  0
  5  3  1  0
  6  1  1  0
  7  4  1  0
  8  5  2  0
  9  6  1  0
  9  7  2  0
  9  8  1  0
 10  6  2  0
 11  7  1  0
 12  2  1  0
 12  8  1  0
M  END
>  <NAME>  (3659) 
2-HYDROXY-6-METHOXYACETHPHENONE

>  <SYNONYMS>  (3659) 


>  <SPECTRUM TYPE>  (3659) 
MS1

>  <INSTRUMENT TYPE>  (3659) 
EI-B

>  <INSTRUMENT>  (3659) 
HITACHI RMU-7L

>  <ION MODE>  (3659) 
P

>  <INCHIKEY>  (3659) 
UENLHUMCIOWYQN-UHFFFAOYSA-N

>  <FORMULA>  (3659) 
C9H10O3

>  <EXACT MASS>  (3659) 
166.06299417999998

>  <MW>  (3659) 
166

>  <ID>  (3659) 
JP006339

>  <CONTRIBUTOR>  (3659) 
University of Tokyo Team, {Faculty of Engineering, University of Tokyo

>  <COMMENT>  (3659) 
SMILES=COc(c1)c(C(C)=O)c(O)cc1
InChI=InChI=1S/C9H10O3/c1-6(10)9-7(11)4-3-5-8(9)12-2/h3-5,11H,1-2H3
computed SMILES=O=C(C=1C(O)=CC=CC1OC)C
accession=JP006339
date=2016.01.19 (Created 2008.10.21, modified 2011.05.06)
author=EGUCHI S, FAC. OF SCIENCE, HIROSHIMA UNIV.
license=CC BY-NC-SA
exact mass=166.06299
ionization energy=70 eV
ion type=[M]+*
computed spectral entropy=3.331011744727637
computed normalized entropy=0.8275082528551175
SPLASH=splash10-03xr-9700000000-02248fcb7b9a86d7776f
submitter=submitter = University of Tokyo Team (Faculty of Engineering, University of Tokyo)
MoNA Rating=3.75

>  <NUM PEAKS>  (3659) 
56

>  <MASS SPECTRAL PEAKS>  (3659) 
40 6.5
41 7
42 6.9
43 7.4
50 14
51 26
52 22.8
53 2.05
54 9.8
55 13
61 2
62 0.9
63 17
64 8.2
65 29.5
66 0.9
67 7
68 1.8
69 7
74 0.35
75 3.5
76 3.5
77 17
78 0.4
79 8.5
80 8.5
81 7
90 0.2
91 5.5
92 5.5
93 15.5
94 0.55
95 5
105 5.5
106 1.5
107 0.55
108 20.8
109 2.5
119 3.5
120 0.38
121 4.9
122 3.5
123 3.7
124 0.2
133 1.5
136 14.5
137 4.5
157 0.5
158 7.2
159 3.2
160 2
161 99.99
162 10
163 2.5
166 39.5
167 5

>  <PREDICTED SPECTRUM>  (3659) 
14 17
15 71
26 18
27 59
28 24
29 43
37 44
38 100
39 240
40 101
41 166
42 57
43 440
44 18
49 27
50 168
51 263
52 205
53 238
54 98
55 112
61 57
62 125
63 191
64 132
65 220
66 156
67 120
68 37
69 46
74 17
75 56
76 93
77 338
78 167
79 231
80 152
81 72
82 5
89 14
90 53
91 140
92 145
93 114
94 69
95 153
96 3
105 170
106 69
107 223
108 247
109 129
110 5
118 39
119 142
120 97
121 91
122 15
123 136
124 13
133 48
135 33
136 200
137 105
148 133
149 69
150 44
151 999
152 298
153 84
166 666
167 213
168 40

$$$$

     RDKit          2D

 15 15  0  0  0  0  0  0  0  0999 V2000
   -2.8011    0.7311    0.0000 C   0  0  0  0  0  0  0  0  0  0  0  0
    3.6949   -1.5195    0.0000 C   0  0  0  0  0  0  0  0  0  0  0  0
    2.9449   -2.8186    0.0000 H   0  0  0  0  0  0  0  0  0  0  0  0
    4.9940   -2.2695    0.0000 H   0  0  0  0  0  0  0  0  0  0  0  0
    4.4449   -0.2205    0.0000 H   0  0  0  0  0  0  0  0  0  0  0  0
    1.0973   -3.0204    0.0000 C   0  0  0  0  0  0  0  0  0  0  0  0
   -0.2017   -3.7704    0.0000 C   0  0  0  0  0  0  0  0  0  0  0  0
   -0.2027   -0.7687    0.0000 C   0  0  0  0  0  0  0  0  0  0  0  0
   -2.8008   -0.7689    0.0000 C   0  0  0  0  0  0  0  0  0  0  0  0
    1.0969   -1.5195    0.0000 C   0  0  0  0  0  0  0  0  0  0  0  0
   -1.5017   -1.5187    0.0000 C   0  0  0  0  0  0  0  0  0  0  0  0
   -1.5012   -3.0195    0.0000 C   0  0  0  0  0  0  0  0  0  0  0  0
   -4.0998   -1.5191    0.0000 O   0  0  0  0  0  0  0  0  0  0  0  0
   -2.8002   -3.7695    0.0000 O   0  0  0  0  0  0  0  0  0  0  0  0
    2.3959   -0.7695    0.0000 O   0  0  0  0  0  0  0  0  0  0  0  0
  2  3  1  0
  2  4  1  0
  2  5  1  0
  7  6  2  0
  9  1  1  0
 10  6  1  0
 10  8  2  0
 11  8  1  0
 11  9  1  0
 12  7  1  0
 12 11  2  0
 13  9  2  0
 14 12  1  0
 15  2  1  0
 15 10  1  0
M  ISO  3   3   2   4   2   5   2
M  END
>  <NAME>  (3660) 
2-HYDROXY-5-METHOXYACETOPHENONE (5,5,5-D3)

>  <SYNONYMS>  (3660) 
2-HYDROXY-5-DEUTEROMETHOXYACETOPHENONE

>  <SPECTRUM TYPE>  (3660) 
MS1

>  <INSTRUMENT TYPE>  (3660) 
EI-B

>  <INSTRUMENT>  (3660) 
HITACHI RMU-7L

>  <ION MODE>  (3660) 
P

>  <INCHIKEY>  (3660) 
MLIBGOFSXXWRIY-BMSJAHLVSA-N

>  <FORMULA>  (3660) 
C9H10O3

>  <EXACT MASS>  (3660) 
169.081824418

>  <MW>  (3660) 
169

>  <ID>  (3660) 
JP006338

>  <CONTRIBUTOR>  (3660) 
University of Tokyo Team, {Faculty of Engineering, University of Tokyo

>  <COMMENT>  (3660) 
SMILES=[2H]C([2H])([2H])Oc(c1)cc(C(C)=O)c(O)c1
InChI=InChI=1S/C9H10O3/c1-6(10)8-5-7(12-2)3-4-9(8)11/h3-5,11H,1-2H3/i2D3
computed SMILES=[H]C([H])([H])OC1=CC=C(O)C(=C1)C(=O)C
accession=JP006338
date=2016.01.19 (Created 2008.10.21, modified 2011.05.06)
author=EGUCHI S, FAC. OF SCIENCE, HIROSHIMA UNIV.
license=CC BY-NC-SA
exact mass=166.06299
ionization energy=70 eV
ion type=[M]+*
computed spectral entropy=3.486207069915213
computed normalized entropy=0.8001928080569428
SPLASH=splash10-0udi-8900000000-83ac0166cccfd92b7962
submitter=submitter = University of Tokyo Team (Faculty of Engineering, University of Tokyo)
MoNA Rating=3.75

>  <NUM PEAKS>  (3660) 
78

>  <MASS SPECTRAL PEAKS>  (3660) 
40 10
41 5
42 2.8
43 6.4
44 2.2
50 20
51 26
52 3.45
53 32
54 11
55 13
56 0.3
57 2
61 5.5
62 8.1
63 2.5
64 6
65 9.5
66 22.8
67 1.25
68 3.5
69 5.5
70 7.5
71 0.2
72 3
73 1.8
74 3.8
75 0.3
76 2
77 41
78 8.5
79 2.95
80 19.5
81 3
82 2
90 0.18
91 2.5
92 4.5
93 3.5
94 1
95 5.5
96 3
97 2.5
98 4.25
99 2.7
105 27.5
106 3.8
107 0.7
108 41
109 11
110 1
111 0.1
112 4.5
119 1
120 1
122 0.2
123 2.5
124 1.5
125 2.5
126 1.55
127 3
133 13
134 2
135 0.2
136 2
137 2
140 2.5
149 0.2
150 1.7
151 22.2
152 4
153 0.4
154 99.99
155 10.5
156 2.5
168 0.15
169 69.5
170 8.5

>  <PREDICTED SPECTRUM>  (3660) 
17 0
26 33
27 62
28 23
29 61
32 4
33 17
34 12
36 16
37 47
38 105
39 225
40 111
41 113
42 165
43 407
44 168
45 160
46 34
47 1
49 22
50 122
51 240
52 274
53 296
54 208
55 243
56 135
57 67
58 44
59 21
60 19
61 72
62 101
63 152
64 149
65 264
66 188
67 228
68 181
69 165
70 80
71 33
74 2
75 10
76 43
77 135
78 133
79 170
80 178
81 181
82 192
83 148
84 57
85 20
86 32
87 64
90 55
91 49
92 50
93 98
94 120
95 180
96 92
97 56
98 76
99 109
100 6
106 32
107 82
108 152
109 186
110 145
111 119
112 20
122 110
123 89
124 68
125 99
126 178
127 76
128 27
136 145
137 115
140 37
142 25
151 157
152 202
153 89
154 999
155 310
156 169
169 973
170 300
171 131

$$$$

     RDKit          2D

 12 12  0  0  0  0  0  0  0  0999 V2000
    3.2831   -2.2331    0.0000 C   0  0  0  0  0  0  0  0  0  0  0  0
   -3.2129    0.0176    0.0000 C   0  0  0  0  0  0  0  0  0  0  0  0
   -0.6153    1.5184    0.0000 C   0  0  0  0  0  0  0  0  0  0  0  0
    0.6837    2.2684    0.0000 C   0  0  0  0  0  0  0  0  0  0  0  0
    0.6847   -0.7333    0.0000 C   0  0  0  0  0  0  0  0  0  0  0  0
    3.2829   -0.7331    0.0000 C   0  0  0  0  0  0  0  0  0  0  0  0
   -0.6148    0.0176    0.0000 C   0  0  0  0  0  0  0  0  0  0  0  0
    1.9837    0.0167    0.0000 C   0  0  0  0  0  0  0  0  0  0  0  0
    1.9832    1.5176    0.0000 C   0  0  0  0  0  0  0  0  0  0  0  0
    4.5818    0.0171    0.0000 O   0  0  0  0  0  0  0  0  0  0  0  0
    3.2823    2.2676    0.0000 O   0  0  0  0  0  0  0  0  0  0  0  0
   -1.9139   -0.7324    0.0000 O   0  0  0  0  0  0  0  0  0  0  0  0
  4  3  2  0
  6  1  1  0
  7  3  1  0
  7  5  2  0
  8  5  1  0
  8  6  1  0
  9  4  1  0
  9  8  2  0
 10  6  2  0
 11  9  1  0
 12  2  1  0
 12  7  1  0
M  END
>  <NAME>  (3661) 
2-HYDROXY-5-METHOXYACETOPHENONE

>  <SYNONYMS>  (3661) 


>  <SPECTRUM TYPE>  (3661) 
MS1

>  <INSTRUMENT TYPE>  (3661) 
EI-B

>  <INSTRUMENT>  (3661) 
HITACHI RMU-7L

>  <ION MODE>  (3661) 
P

>  <INCHIKEY>  (3661) 
MLIBGOFSXXWRIY-UHFFFAOYSA-N

>  <FORMULA>  (3661) 
C9H10O3

>  <EXACT MASS>  (3661) 
166.06299417999998

>  <MW>  (3661) 
166

>  <ID>  (3661) 
JP006337

>  <CONTRIBUTOR>  (3661) 
University of Tokyo Team, {Faculty of Engineering, University of Tokyo

>  <COMMENT>  (3661) 
SMILES=COc(c1)cc(C(C)=O)c(O)c1
InChI=InChI=1S/C9H10O3/c1-6(10)8-5-7(12-2)3-4-9(8)11/h3-5,11H,1-2H3
computed SMILES=O=C(C1=CC(OC)=CC=C1O)C
accession=JP006337
date=2016.01.19 (Created 2008.10.21, modified 2011.05.06)
author=EGUCHI S, FAC. OF SCIENCE, HIROSHIMA UNIV.
license=CC BY-NC-SA
exact mass=166.06299
ionization energy=70 eV
ion type=[M]+*
computed spectral entropy=2.811068845478288
computed normalized entropy=0.7342209819013261
SPLASH=splash10-0uxr-4900000000-6e602d5739dc8a58efea
submitter=submitter = University of Tokyo Team (Faculty of Engineering, University of Tokyo)
MoNA Rating=3.75

>  <NUM PEAKS>  (3661) 
46

>  <MASS SPECTRAL PEAKS>  (3661) 
40 1.5
41 20.5
42 2.5
43 4
50 5.5
51 7.5
52 10.5
53 1.1
54 5.5
55 6.5
61 1
62 0.3
63 5
64 1.5
65 5
66 0.2
67 2.5
68 1
69 4.5
74 0.15
77 12
79 6.5
80 5
81 0.35
82 1.5
83 2
92 1
93 0.1
95 14
105 8
106 2.5
107 0.35
108 10.8
109 4.5
123 13.5
124 0.15
133 12
137 1.5
148 7
149 0.18
150 1
151 99.99
152 10.5
153 0.18
166 72
168 8.8

>  <PREDICTED SPECTRUM>  (3661) 
14 28
15 75
16 0
17 6
18 7
25 2
26 43
27 24
28 9
29 30
33 2
37 75
38 133
39 241
40 109
41 229
42 143
43 605
44 69
49 67
50 261
51 356
52 312
53 350
54 159
55 224
56 21
60 14
61 80
62 189
63 261
64 159
65 227
66 189
67 206
68 109
69 163
74 53
75 59
76 86
77 270
78 170
79 291
80 183
81 133
82 62
88 43
89 23
90 49
91 141
92 104
93 91
94 123
95 296
96 82
97 5
105 126
106 81
107 225
108 290
109 116
110 32
118 16
119 171
120 97
121 94
122 139
123 278
124 94
133 72
134 2
135 46
136 111
137 155
147 14
148 206
149 167
150 177
151 999
152 324
153 124
165 164
166 873
167 282
168 102

$$$$

     RDKit          2D

 15 15  0  0  0  0  0  0  0  0999 V2000
   -3.8978   -2.0496    0.0000 C   0  0  0  0  0  0  0  0  0  0  0  0
    2.5989    1.7010    0.0000 C   0  0  0  0  0  0  0  0  0  0  0  0
    1.8491    0.4019    0.0000 H   0  0  0  0  0  0  0  0  0  0  0  0
    3.8981    0.9513    0.0000 H   0  0  0  0  0  0  0  0  0  0  0  0
    3.3487    3.0002    0.0000 H   0  0  0  0  0  0  0  0  0  0  0  0
    0.0008    0.2006    0.0000 C   0  0  0  0  0  0  0  0  0  0  0  0
   -1.2992   -0.5494    0.0000 C   0  0  0  0  0  0  0  0  0  0  0  0
   -1.2992    2.4506    0.0000 C   0  0  0  0  0  0  0  0  0  0  0  0
   -3.8981   -0.5496    0.0000 C   0  0  0  0  0  0  0  0  0  0  0  0
    0.0008    1.7006    0.0000 C   0  0  0  0  0  0  0  0  0  0  0  0
   -2.5992    0.2006    0.0000 C   0  0  0  0  0  0  0  0  0  0  0  0
   -2.5992    1.7006    0.0000 C   0  0  0  0  0  0  0  0  0  0  0  0
   -5.1972    0.2002    0.0000 O   0  0  0  0  0  0  0  0  0  0  0  0
   -3.8981    2.4508    0.0000 O   0  0  0  0  0  0  0  0  0  0  0  0
    1.2998    2.4508    0.0000 O   0  0  0  0  0  0  0  0  0  0  0  0
  2  3  1  0
  2  4  1  0
  2  5  1  0
  7  6  2  0
  9  1  1  0
 10  6  1  0
 10  8  2  0
 11  7  1  0
 11  9  1  0
 12  8  1  0
 12 11  2  0
 13  9  2  0
 14 12  1  0
 15  2  1  0
 15 10  1  0
M  ISO  3   3   2   4   2   5   2
M  END
>  <NAME>  (3662) 
2-HYDROXY-4-METHOXYACETOPHENONE (4,4,4-D3)

>  <SYNONYMS>  (3662) 
2-HYDROXY-4-DEUTEROMETHOXYACETOPHENONE

>  <SPECTRUM TYPE>  (3662) 
MS1

>  <INSTRUMENT TYPE>  (3662) 
EI-B

>  <INSTRUMENT>  (3662) 
HITACHI RMU-7L

>  <ION MODE>  (3662) 
P

>  <INCHIKEY>  (3662) 
UILPJVPSNHJFIK-BMSJAHLVSA-N

>  <FORMULA>  (3662) 
C9H10O3

>  <EXACT MASS>  (3662) 
169.081824418

>  <MW>  (3662) 
169

>  <ID>  (3662) 
JP006336

>  <CONTRIBUTOR>  (3662) 
University of Tokyo Team, {Faculty of Engineering, University of Tokyo

>  <COMMENT>  (3662) 
SMILES=[2H]C([2H])([2H])Oc(c1)cc(O)c(c1)C(C)=O
InChI=InChI=1S/C9H10O3/c1-6(10)8-4-3-7(12-2)5-9(8)11/h3-5,11H,1-2H3/i2D3
computed SMILES=[H]C([H])([H])OC1=CC=C(C(O)=C1)C(=O)C
accession=JP006336
date=2016.01.19 (Created 2008.10.21, modified 2011.05.06)
author=EGUCHI S, FAC. OF SCIENCE, HIROSHIMA UNIV.
license=CC BY-NC-SA
exact mass=166.06299
ionization energy=70 eV
ion type=[M]+*
computed spectral entropy=2.5181577258002457
computed normalized entropy=0.6577157443132238
SPLASH=splash10-0udi-3900000000-47a88bad8ed95e738e65
submitter=submitter = University of Tokyo Team (Faculty of Engineering, University of Tokyo)
MoNA Rating=3.75

>  <NUM PEAKS>  (3662) 
46

>  <MASS SPECTRAL PEAKS>  (3662) 
40 2.5
41 2
42 2.5
43 1.85
44 1.5
50 4.2
51 7.5
52 0.83
53 6.3
54 1.9
55 2.5
62 0.25
63 5.4
64 2.2
65 2.5
66 0.45
67 1.8
69 6.5
70 1.5
77 0.25
79 6.5
80 4.2
81 1
91 0.1
93 1
94 3
97 1
98 1.98
99 1.5
105 1.5
107 1.5
108 0.8
123 1.8
125 1
126 3
136 0.1
137 1
140 3
151 1.1
152 0.18
153 5.5
154 99.99
155 12.5
168 0.25
169 44
170 3.8

>  <PREDICTED SPECTRUM>  (3662) 
33 25
34 14
36 10
37 56
38 98
39 188
40 88
41 92
42 97
43 384
44 152
45 195
46 63
47 50
49 35
50 123
51 197
52 206
53 227
54 126
55 114
56 63
57 41
58 85
59 13
60 44
61 75
62 108
63 165
64 132
65 200
66 132
67 143
68 107
69 151
70 80
71 28
72 37
73 40
74 19
75 49
76 60
77 130
78 119
79 116
80 112
81 119
82 133
83 126
84 46
85 22
86 43
89 24
90 33
91 29
92 30
93 54
94 96
95 163
96 91
97 77
98 102
99 38
102 13
106 31
107 88
108 39
109 79
110 100
111 105
112 13
122 45
123 34
124 63
125 67
126 112
127 35
128 48
136 33
137 38
139 1
140 23
151 55
152 142
153 49
154 999
155 328
156 156
168 21
169 697
170 225
171 140

$$$$

     RDKit          2D

 24 27  0  0  1  0  0  0  0  0999 V2000
    4.8236    1.8512    0.0000 C   0  0  0  0  0  0  0  0  0  0  0  0
   -1.1000    1.1500    0.0000 C   0  0  0  0  0  0  0  0  0  0  0  0
   -3.3641   -3.7492    0.0000 C   0  0  0  0  0  0  0  0  0  0  0  0
   -3.4264   -5.4190    0.0000 C   0  0  0  0  0  0  0  0  0  0  0  0
   -3.7000   -0.3500    0.0000 C   0  0  0  0  0  0  0  0  0  0  0  0
    0.9900    2.9800    0.0000 C   0  0  0  0  0  0  0  0  0  0  0  0
   -0.0300    1.8800    0.0000 C   0  0  0  0  0  0  0  0  0  0  0  0
    0.2000   -2.6000    0.0000 C   0  0  0  0  0  0  0  0  0  0  0  0
   -2.4000    0.4000    0.0000 C   0  0  0  0  0  0  0  0  0  0  0  0
   -3.7000   -1.8500    0.0000 C   0  0  0  0  0  0  0  0  0  0  0  0
    1.5000   -1.8500    0.0000 C   0  0  0  0  0  0  0  0  0  0  0  0
    1.3100    1.4800    0.0000 C   0  0  0  0  0  0  0  0  0  0  0  0
    3.3400    1.6300    0.0000 C   0  0  0  0  0  0  0  0  0  0  0  0
    2.4900    2.8700    0.0000 C   0  0  0  0  0  0  0  0  0  0  0  0
   -1.1000   -1.8500    0.0000 C   0  0  0  0  0  0  0  0  0  0  0  0
    0.2000    0.4000    0.0000 C   0  0  0  0  0  0  0  0  0  0  0  0
    2.8900    0.2000    0.0000 C   0  0  0  0  0  0  0  0  0  0  0  0
   -1.4359   -3.7492    0.0000 C   0  0  0  0  0  0  0  0  0  0  0  0
   -1.1000   -0.3500    0.0000 C   0  0  0  0  0  0  0  0  0  0  0  0
   -2.4000   -2.6000    0.0000 C   0  0  0  0  0  0  0  0  0  0  0  0
    1.5000   -0.3500    0.0000 C   0  0  0  0  0  0  0  0  0  0  0  0
    3.9881   -0.8218    0.0000 O   0  0  0  0  0  0  0  0  0  0  0  0
    0.0413   -3.4889    0.0000 O   0  0  0  0  0  0  0  0  0  0  0  0
   -1.9491   -5.1587    0.0000 O   0  0  0  0  0  0  0  0  0  0  0  0
  7  6  1  0
  9  5  1  0
 10  5  1  0
 11  8  1  0
 13  1  1  1
 14  6  1  6
 14 12  1  0
 14 13  1  0
 15  8  1  1
 16  7  1  1
 17 13  1  0
 19  2  1  1
 19  9  1  0
 19 15  1  0
 19 16  1  0
 20  3  1  1
 20 10  1  0
 20 15  1  0
 20 18  1  0
 21 11  1  1
 21 12  1  0
 21 16  1  0
 21 17  1  0
 22 17  2  0
 23 18  2  0
 24  4  1  0
 24 18  1  0
M  END
>  <NAME>  (3663) 
(16R)-ENT-15-OXOKAURAN-18-OIC ACID METHYLESTER

>  <SYNONYMS>  (3663) 


>  <SPECTRUM TYPE>  (3663) 
MS1

>  <INSTRUMENT TYPE>  (3663) 
EI-B

>  <INSTRUMENT>  (3663) 
HITACHI RMU-7L

>  <ION MODE>  (3663) 
P

>  <INCHIKEY>  (3663) 
PRNXIACAYGXMDC-OFJPHGDMSA-N

>  <FORMULA>  (3663) 
C21H32O3

>  <EXACT MASS>  (3663) 
332.23514488399996

>  <MW>  (3663) 
332

>  <ID>  (3663) 
JP006333

>  <CONTRIBUTOR>  (3663) 
University of Tokyo Team, {Faculty of Engineering, University of Tokyo

>  <COMMENT>  (3663) 
SMILES=COC(=O)C(C)(C4)C([H])(C3)C(C)(CC4)C([H])(C2)C(C3)(C1)C(=O)C([H])(C)C([H])(C2)1
InChI=InChI=1S/C21H32O3/c1-13-14-6-7-16-19(2)9-5-10-20(3,18(23)24-4)15(19)8-11-21(16,12-14)17(13)22/h13-16H,5-12H2,1-4H3/t13-,14+,15-,16-,19+,20-,21+/m1/s1
computed SMILES=O=C(OC)C1(C)CCCC2(C)C1CCC34C(=O)C(C)C(CCC32)C4
accession=JP006333
date=2016.01.19 (Created 2008.10.21, modified 2011.05.06)
author=EGUCHI S, FAC. OF SCIENCE, HIROSHIMA UNIV.
license=CC BY-NC-SA
exact mass=332.23514
ionization energy=70 eV
ion type=[M]+*
computed spectral entropy=3.9362185339858073
computed normalized entropy=0.8705003489027827
SPLASH=splash10-0096-9510000000-dc75397f8b45df1bb7ee
submitter=submitter = University of Tokyo Team (Faculty of Engineering, University of Tokyo)
MoNA Rating=3.75

>  <NUM PEAKS>  (3663) 
92

>  <MASS SPECTRAL PEAKS>  (3663) 
40 4
41 99.99
42 10.5
43 5.2
45 7
53 27.2
54 7
55 8.35
56 13.8
57 28.5
58 5.5
59 1.65
65 13
66 5.5
67 46
68 0.95
69 28
70 5.5
71 11.5
73 0.85
77 30
78 7
79 58
80 1.3
81 51
82 9
83 11.4
84 0.8
85 9.5
91 45.5
92 26
93 4.85
94 22
95 27
96 6.2
97 0.9
101 13.5
104 5.5
105 30
106 1.6
107 36.5
108 10.5
109 28
110 0.6
115 7.5
117 9.5
119 17
120 0.85
121 57.5
122 20
123 33
129 0.55
131 11.5
132 1.8
133 12.5
134 0.18
135 1
145 10
147 9.5
149 1.55
150 5.5
159 7
160 1.5
161 0.7
169 6.5
170 2
173 7
181 0.6
189 5.5
190 2
199 9
200 0.1
214 11
215 8.5
229 16
230 0.5
239 9.5
240 1
257 12.5
258 0.5
259 3
272 19.5
273 11.5
274 3.45
275 8
289 2.8
299 5.5
300 0.25
314 7.5
317 3
332 19
333 4

>  <PREDICTED SPECTRUM>  (3663) 
27 39
29 132
33 15
39 285
40 150
41 842
42 378
43 624
44 170
45 250
51 96
52 58
53 423
54 141
55 690
56 257
57 250
58 328
59 442
60 95
65 293
66 226
67 822
68 305
69 430
70 131
71 223
72 137
73 91
74 31
77 590
78 293
79 908
80 378
81 999
82 419
83 378
84 16
85 140
87 106
88 59
91 861
92 341
93 684
94 424
95 790
96 319
97 255
98 30
99 44
101 210
102 0
103 102
104 90
105 572
106 323
107 680
108 436
109 550
110 134
111 103
113 41
115 255
116 115
117 304
118 118
119 315
120 148
121 900
122 488
123 674
124 162
125 38
128 46
129 118
130 108
131 371
132 142
133 312
134 115
135 223
136 75
137 131
138 31
139 15
143 58
144 49
145 247
146 66
147 287
148 117
149 231
150 190
151 139
152 9
157 94
159 311
160 17
161 32
163 10
164 5
167 42
169 56
170 28
171 113
172 51
173 161
174 55
175 110
177 36
178 29
181 52
182 45
183 101
185 33
187 99
189 131
195 98
198 1
199 277
200 32
201 142
202 34
203 119
204 43
213 164
214 216
215 212
216 73
217 117
229 405
230 109
231 74
232 84
233 48
237 7
239 226
240 105
254 39
255 119
256 35
257 360
258 101
259 377
260 100
272 365
273 632
274 504
275 296
288 87
289 97
299 70
300 45
303 27
304 31
314 167
315 4
317 347
318 80
332 668
333 332
334 55

$$$$

     RDKit          2D

 23 26  0  0  1  0  0  0  0  0999 V2000
    4.8236    1.8512    0.0000 C   0  0  0  0  0  0  0  0  0  0  0  0
   -1.1000    1.1500    0.0000 C   0  0  0  0  0  0  0  0  0  0  0  0
   -3.3641   -3.7492    0.0000 C   0  0  0  0  0  0  0  0  0  0  0  0
   -3.7000   -0.3500    0.0000 C   0  0  0  0  0  0  0  0  0  0  0  0
    0.9900    2.9800    0.0000 C   0  0  0  0  0  0  0  0  0  0  0  0
   -0.0300    1.8800    0.0000 C   0  0  0  0  0  0  0  0  0  0  0  0
    0.2000   -2.6000    0.0000 C   0  0  0  0  0  0  0  0  0  0  0  0
   -2.4000    0.4000    0.0000 C   0  0  0  0  0  0  0  0  0  0  0  0
   -3.7000   -1.8500    0.0000 C   0  0  0  0  0  0  0  0  0  0  0  0
    1.5000   -1.8500    0.0000 C   0  0  0  0  0  0  0  0  0  0  0  0
    1.3100    1.4800    0.0000 C   0  0  0  0  0  0  0  0  0  0  0  0
    3.3400    1.6300    0.0000 C   0  0  0  0  0  0  0  0  0  0  0  0
    2.4900    2.8700    0.0000 C   0  0  0  0  0  0  0  0  0  0  0  0
   -1.1000   -1.8500    0.0000 C   0  0  0  0  0  0  0  0  0  0  0  0
    0.2000    0.4000    0.0000 C   0  0  0  0  0  0  0  0  0  0  0  0
    2.8900    0.2000    0.0000 C   0  0  0  0  0  0  0  0  0  0  0  0
   -1.4359   -3.7492    0.0000 C   0  0  0  0  0  0  0  0  0  0  0  0
   -1.1000   -0.3500    0.0000 C   0  0  0  0  0  0  0  0  0  0  0  0
   -2.4000   -2.6000    0.0000 C   0  0  0  0  0  0  0  0  0  0  0  0
    1.5000   -0.3500    0.0000 C   0  0  0  0  0  0  0  0  0  0  0  0
    3.9881   -0.8218    0.0000 O   0  0  0  0  0  0  0  0  0  0  0  0
    0.0413   -3.4889    0.0000 O   0  0  0  0  0  0  0  0  0  0  0  0
   -1.9491   -5.1587    0.0000 O   0  0  0  0  0  0  0  0  0  0  0  0
  6  5  1  0
  8  4  1  0
  9  4  1  0
 10  7  1  0
 12  1  1  1
 13  5  1  6
 13 11  1  0
 13 12  1  0
 14  7  1  1
 15  6  1  1
 16 12  1  0
 18  2  1  1
 18  8  1  0
 18 14  1  0
 18 15  1  0
 19  3  1  6
 19  9  1  0
 19 14  1  0
 19 17  1  0
 20 10  1  1
 20 11  1  0
 20 15  1  0
 20 16  1  0
 21 16  2  0
 22 17  2  0
 23 17  1  0
M  END
>  <NAME>  (3664) 
(16R)-ENT-15-OXOKAURAN-18-OIC ACID

>  <SYNONYMS>  (3664) 


>  <SPECTRUM TYPE>  (3664) 
MS1

>  <INSTRUMENT TYPE>  (3664) 
EI-B

>  <INSTRUMENT>  (3664) 
HITACHI RMU-7L

>  <ION MODE>  (3664) 
P

>  <INCHIKEY>  (3664) 
TUIVCCRIADUHNA-OPXKYWMESA-N

>  <FORMULA>  (3664) 
C20H30O3

>  <EXACT MASS>  (3664) 
318.21949481999997

>  <MW>  (3664) 
318

>  <ID>  (3664) 
JP006332

>  <CONTRIBUTOR>  (3664) 
University of Tokyo Team, {Faculty of Engineering, University of Tokyo

>  <COMMENT>  (3664) 
SMILES=OC(=O)C(C)(C4)C([H])(C3)C(C)(CC4)C([H])(C2)C(C3)(C1)C(=O)C([H])(C)C([H])(C2)1
InChI=InChI=1S/C20H30O3/c1-12-13-5-6-15-18(2)8-4-9-19(3,17(22)23)14(18)7-10-20(15,11-13)16(12)21/h12-15H,4-11H2,1-3H3,(H,22,23)/t12-,13+,14-,15-,18+,19+,20+/m1/s1
computed SMILES=O=C(O)C1(C)CCCC2(C)C1CCC34C(=O)C(C)C(CCC32)C4
accession=JP006332
date=2016.01.19 (Created 2008.10.21, modified 2011.05.06)
author=EGUCHI S, FAC. OF SCIENCE, HIROSHIMA UNIV.
license=CC BY-NC-SA
exact mass=318.21949
ionization energy=70 eV
ion type=[M]+*
computed spectral entropy=4.027151193268046
computed normalized entropy=0.867099966545142
SPLASH=splash10-054o-9510000000-f36ea91c209d0b311d2f
submitter=submitter = University of Tokyo Team (Faculty of Engineering, University of Tokyo)
MoNA Rating=3.75

>  <NUM PEAKS>  (3664) 
104

>  <MASS SPECTRAL PEAKS>  (3664) 
40 5.5
41 99.99
42 10.5
43 5.8
44 2
45 10
53 31.5
54 0.82
55 86.5
56 8.5
57 18
58 1.05
59 7.5
65 15.5
66 7.7
67 6.15
68 12.5
69 29
70 5.5
71 1.05
77 45.5
78 10.5
79 76.5
80 1.8
81 69
82 12.5
83 9.5
87 1.05
91 64.5
92 39.7
93 52.4
94 3.98
95 39.6
96 10
97 10.5
101 0.87
104 8.5
105 38.4
106 29.3
107 6.1
108 16.6
109 44.3
110 10.5
111 0.8
115 11.5
117 14
118 6.8
119 2.15
120 10.5
121 53.2
122 25
123 3.73
124 9.5
129 6
131 15.7
132 0.65
133 15.9
134 8.8
135 15.9
136 0.7
137 6.5
139 12.5
143 7
145 1.55
147 13
149 11.4
150 10.5
151 1.1
159 10.5
160 1.5
161 9.5
166 0.64
167 12
173 12.5
174 6.7
175 0.75
189 6.2
199 8.7
200 1.5
204 0.75
205 9
214 6
215 9
229 1.25
239 11.2
240 1.5
241 1
243 1
245 17.4
246 2.5
257 14
258 0.1
259 2
260 42
261 21.5
272 1.8
273 8
274 5.5
275 11.5
285 0.55
300 0.5
303 1
318 27.5
319 6.5

>  <PREDICTED SPECTRUM>  (3664) 
27 22
29 127
31 0
39 312
40 167
41 972
42 374
43 728
44 322
45 309
46 54
47 39
50 14
51 190
52 130
53 568
54 231
55 854
56 307
57 319
58 310
59 181
60 84
63 105
64 12
65 445
66 222
67 856
68 311
69 505
70 90
71 240
72 83
73 41
74 68
77 642
78 342
79 954
80 371
81 999
82 362
83 326
84 99
85 140
86 26
87 83
91 914
92 418
93 813
94 396
95 782
96 263
97 306
98 37
99 104
100 19
101 33
103 121
104 95
105 790
106 470
107 782
108 416
109 661
110 231
111 136
112 46
113 106
114 14
115 333
116 187
117 391
118 231
119 488
120 312
121 906
122 485
123 733
124 244
125 92
126 20
128 55
129 185
130 95
131 457
132 143
133 453
134 333
135 315
136 249
137 273
138 90
139 258
141 11
142 30
143 230
144 61
145 277
146 128
147 440
148 213
149 343
150 193
151 201
152 129
153 61
155 138
156 30
157 92
158 41
159 328
160 81
161 258
162 58
163 81
164 21
165 83
166 15
167 117
168 50
169 90
171 178
172 9
173 273
174 21
175 189
176 6
177 37
178 59
179 10
181 1
184 4
185 70
186 46
187 178
188 96
189 242
190 73
191 51
195 3
197 6
199 196
200 81
201 136
202 33
203 37
204 3
205 97
213 44
214 150
215 216
216 64
217 48
218 45
219 53
223 9
227 90
229 35
230 5
231 15
232 40
242 50
243 174
244 176
245 682
246 329
247 74
248 20
257 152
258 115
259 218
260 653
261 468
262 229
272 155
273 273
274 401
275 350
276 70
285 80
289 40
290 71
300 155
301 106
303 314
304 48
318 589
319 257
320 93

$$$$

     RDKit          2D

 22 25  0  0  1  0  0  0  0  0999 V2000
    4.8236    1.8512    0.0000 C   0  0  0  0  0  0  0  0  0  0  0  0
   -3.3641   -3.7492    0.0000 C   0  0  0  0  0  0  0  0  0  0  0  0
   -1.1000    1.1500    0.0000 C   0  0  0  0  0  0  0  0  0  0  0  0
   -3.7000   -0.3500    0.0000 C   0  0  0  0  0  0  0  0  0  0  0  0
    0.9900    2.9800    0.0000 C   0  0  0  0  0  0  0  0  0  0  0  0
   -0.0300    1.8800    0.0000 C   0  0  0  0  0  0  0  0  0  0  0  0
    0.2000   -2.6000    0.0000 C   0  0  0  0  0  0  0  0  0  0  0  0
   -3.7000   -1.8500    0.0000 C   0  0  0  0  0  0  0  0  0  0  0  0
   -2.4000    0.4000    0.0000 C   0  0  0  0  0  0  0  0  0  0  0  0
    1.5000   -1.8500    0.0000 C   0  0  0  0  0  0  0  0  0  0  0  0
    1.3100    1.4800    0.0000 C   0  0  0  0  0  0  0  0  0  0  0  0
   -1.4359   -3.7492    0.0000 C   0  0  0  0  0  0  0  0  0  0  0  0
    3.3400    1.6300    0.0000 C   0  0  0  0  0  0  0  0  0  0  0  0
    2.4900    2.8700    0.0000 C   0  0  0  0  0  0  0  0  0  0  0  0
   -1.1000   -1.8500    0.0000 C   0  0  0  0  0  0  0  0  0  0  0  0
    0.2000    0.4000    0.0000 C   0  0  0  0  0  0  0  0  0  0  0  0
    2.8900    0.2000    0.0000 C   0  0  0  0  0  0  0  0  0  0  0  0
   -2.4000   -2.6000    0.0000 C   0  0  0  0  0  0  0  0  0  0  0  0
   -1.1000   -0.3500    0.0000 C   0  0  0  0  0  0  0  0  0  0  0  0
    1.5000   -0.3500    0.0000 C   0  0  0  0  0  0  0  0  0  0  0  0
   -1.9491   -5.1587    0.0000 O   0  0  0  0  0  0  0  0  0  0  0  0
    3.9881   -0.8218    0.0000 O   0  0  0  0  0  0  0  0  0  0  0  0
  6  5  1  0
  8  4  1  0
  9  4  1  0
 10  7  1  0
 13  1  1  1
 14  5  1  6
 14 11  1  0
 14 13  1  0
 15  7  1  1
 16  6  1  1
 17 13  1  0
 18  2  1  6
 18  8  1  0
 18 12  1  0
 18 15  1  0
 19  3  1  0
 19  9  1  0
 19 15  1  0
 19 16  1  0
 20 10  1  1
 20 11  1  0
 20 16  1  0
 20 17  1  0
 21 12  1  0
 22 17  2  0
M  END
>  <NAME>  (3665) 
(16R)-ENT-18-HYDOXYKAURAN-15-ONE

>  <SYNONYMS>  (3665) 


>  <SPECTRUM TYPE>  (3665) 
MS1

>  <INSTRUMENT TYPE>  (3665) 
EI-B

>  <INSTRUMENT>  (3665) 
HITACHI RMU-7L

>  <ION MODE>  (3665) 
P

>  <INCHIKEY>  (3665) 
YIVOCKREJGXBSH-OSQPDDNXSA-N

>  <FORMULA>  (3665) 
C20H32O2

>  <EXACT MASS>  (3665) 
304.240230264

>  <MW>  (3665) 
304

>  <ID>  (3665) 
JP006331

>  <CONTRIBUTOR>  (3665) 
University of Tokyo Team, {Faculty of Engineering, University of Tokyo

>  <COMMENT>  (3665) 
SMILES=OCC(C)(C4)C([H])(C3)C(C)(CC4)C([H])(C2)C(C3)(C1)C(=O)C([H])(C)C([H])(C2)1
InChI=InChI=1S/C20H32O2/c1-13-14-5-6-16-19(3)9-4-8-18(2,12-21)15(19)7-10-20(16,11-14)17(13)22/h13-16,21H,4-12H2,1-3H3/t13-,14+,15+,16-,18-,19?,20+/m1/s1
computed SMILES=O=C1C(C)C2CCC3C1(CCC4C(C)(CO)CCCC34C)C2
accession=JP006331
date=2016.01.19 (Created 2008.10.21, modified 2011.05.06)
author=EGUCHI S, FAC. OF SCIENCE, HIROSHIMA UNIV.
license=CC BY-NC-SA
exact mass=304.24023
ionization energy=70 eV
ion type=[M]+*
computed spectral entropy=3.981305213053881
computed normalized entropy=0.8421786757783541
SPLASH=splash10-0006-9410000000-663c157a1d9f71fd28a9
submitter=submitter = University of Tokyo Team (Faculty of Engineering, University of Tokyo)
MoNA Rating=3.75

>  <NUM PEAKS>  (3665) 
113

>  <MASS SPECTRAL PEAKS>  (3665) 
40 4
41 99.99
42 4
43 4.05
45 11.5
51 40
52 17
53 1.42
54 4.5
55 77
56 14.2
57 2.32
65 14
67 28.4
68 8
69 2.73
70 9.1
71 13.5
74 12.2
77 2.1
78 2.5
79 63.5
80 9
81 4.95
82 11.5
83 36.5
84 15
85 2.85
91 58.2
92 16.5
93 28.5
94 1.55
95 30.5
96 9.2
97 13.5
105 2.49
106 14.5
107 28
108 11.5
109 2.65
110 8
111 10.5
112 2
115 0.66
119 19.5
120 11.5
121 19.5
122 1.05
123 33
124 10.5
125 9.5
131 1
133 14.5
134 9
135 20.5
141 0.8
145 19.7
146 3
147 16.5
148 0.3
149 14
150 1.5
151 8.5
159 0.68
160 2
161 8.2
162 1.8
163 1.35
164 2
165 3
171 2.1
172 0.15
173 6
174 2
175 3.8
176 0.1
177 2
187 3
189 2
191 0.35
199 1.5
201 2.4
202 1
203 0.2
213 2.5
214 1
215 10
228 0.1
229 1.8
231 2.5
241 1.5
242 0.1
243 2.5
244 1.5
245 2.4
246 2.15
253 1.5
254 1
255 8
256 0.2
257 2
259 3.9
261 6.5
273 0.27
274 30.5
275 7.5
286 3.5
287 0.1
288 2
289 6.5
304 22.5
305 0.5
306 1

>  <PREDICTED SPECTRUM>  (3665) 
31 39
39 164
40 74
41 633
42 207
43 474
44 66
45 57
51 8
53 311
54 50
55 551
56 170
57 181
58 77
65 245
66 70
67 727
68 311
69 463
70 91
71 165
77 487
78 177
79 745
80 279
81 897
82 286
83 313
84 18
85 55
91 661
92 276
93 700
94 376
95 724
96 117
97 213
99 43
103 30
104 12
105 621
106 302
107 610
108 399
109 766
110 122
111 13
115 13
116 55
117 284
118 34
119 456
120 193
121 610
122 107
123 919
125 48
128 2
129 115
131 323
133 494
134 447
135 398
136 33
137 123
141 15
143 32
145 41
147 284
148 200
149 248
150 65
151 14
153 58
157 9
159 106
161 303
163 7
171 22
173 189
174 18
175 305
177 26
185 59
189 34
191 27
201 7
203 91
204 38
205 34
209 15
215 27
229 64
230 19
231 41
243 0
245 114
246 292
247 120
248 15
255 135
259 36
260 164
261 45
271 54
272 11
273 999
274 465
275 88
286 222
289 199
304 548
305 137
306 23

$$$$

     RDKit          2D

 23 26  0  0  1  0  0  0  0  0999 V2000
   -3.3641   -3.7492    0.0000 C   0  0  0  0  0  0  0  0  0  0  0  0
   -1.4359   -3.7492    0.0000 C   0  0  0  0  0  0  0  0  0  0  0  0
   -1.1000    1.1500    0.0000 C   0  0  0  0  0  0  0  0  0  0  0  0
    6.8574    3.4679    0.0000 C   0  0  0  0  0  0  0  0  0  0  0  0
   -3.7000   -0.3500    0.0000 C   0  0  0  0  0  0  0  0  0  0  0  0
    0.9900    2.9800    0.0000 C   0  0  0  0  0  0  0  0  0  0  0  0
   -0.0300    1.8800    0.0000 C   0  0  0  0  0  0  0  0  0  0  0  0
    0.2000   -2.6000    0.0000 C   0  0  0  0  0  0  0  0  0  0  0  0
   -3.7000   -1.8500    0.0000 C   0  0  0  0  0  0  0  0  0  0  0  0
   -2.4000    0.4000    0.0000 C   0  0  0  0  0  0  0  0  0  0  0  0
    1.5000   -1.8500    0.0000 C   0  0  0  0  0  0  0  0  0  0  0  0
    1.3100    1.4800    0.0000 C   0  0  0  0  0  0  0  0  0  0  0  0
    4.8236    1.8512    0.0000 C   0  0  0  0  0  0  0  0  0  0  0  0
    2.4900    2.8700    0.0000 C   0  0  0  0  0  0  0  0  0  0  0  0
    3.3400    1.6300    0.0000 C   0  0  0  0  0  0  0  0  0  0  0  0
   -1.1000   -1.8500    0.0000 C   0  0  0  0  0  0  0  0  0  0  0  0
    0.2000    0.4000    0.0000 C   0  0  0  0  0  0  0  0  0  0  0  0
    2.8900    0.2000    0.0000 C   0  0  0  0  0  0  0  0  0  0  0  0
   -2.4000   -2.6000    0.0000 C   0  0  0  0  0  0  0  0  0  0  0  0
   -1.1000   -0.3500    0.0000 C   0  0  0  0  0  0  0  0  0  0  0  0
    1.5000   -0.3500    0.0000 C   0  0  0  0  0  0  0  0  0  0  0  0
    3.9881   -0.8218    0.0000 O   0  0  0  0  0  0  0  0  0  0  0  0
    5.3738    3.2467    0.0000 O   0  0  0  0  0  0  0  0  0  0  0  0
  7  6  1  0
  9  5  1  0
 10  5  1  0
 11  8  1  0
 14  6  1  6
 14 12  1  0
 15 13  1  6
 15 14  1  0
 16  8  1  1
 17  7  1  1
 18 15  1  0
 19  1  1  0
 19  2  1  0
 19  9  1  0
 19 16  1  0
 20  3  1  1
 20 10  1  0
 20 16  1  0
 20 17  1  0
 21 11  1  1
 21 12  1  0
 21 17  1  0
 21 18  1  0
 22 18  2  0
 23  4  1  0
 23 13  1  0
M  END
>  <NAME>  (3666) 
(16R)-ENT-17-METHOXYKAURAN-15-ONE

>  <SYNONYMS>  (3666) 


>  <SPECTRUM TYPE>  (3666) 
MS1

>  <INSTRUMENT TYPE>  (3666) 
EI-B

>  <INSTRUMENT>  (3666) 
HITACHI RMU-7L

>  <ION MODE>  (3666) 
P

>  <INCHIKEY>  (3666) 
PABWEJPEEQIDES-GQDVPIKJSA-N

>  <FORMULA>  (3666) 
C21H34O2

>  <EXACT MASS>  (3666) 
318.255880328

>  <MW>  (3666) 
318

>  <ID>  (3666) 
JP006330

>  <CONTRIBUTOR>  (3666) 
University of Tokyo Team, {Faculty of Engineering, University of Tokyo

>  <COMMENT>  (3666) 
SMILES=COCC([H])(C(=O)1)C([H])(C4)CC(C3)1C([H])(C4)C(C)(C2)C([H])(C3)C(C)(C)CC2
InChI=InChI=1S/C21H34O2/c1-19(2)9-5-10-20(3)16(19)8-11-21-12-14(6-7-17(20)21)15(13-23-4)18(21)22/h14-17H,5-13H2,1-4H3/t14-,15-,16-,17+,20-,21-/m0/s1
computed SMILES=O=C1C(COC)C2CCC3C1(CCC4C(C)(C)CCCC43C)C2
accession=JP006330
date=2016.01.19 (Created 2008.10.21, modified 2011.05.06)
author=EGUCHI S, FAC. OF SCIENCE, HIROSHIMA UNIV.
license=CC BY-NC-SA
exact mass=318.25588
ionization energy=70 eV
ion type=[M]+*
computed spectral entropy=4.218552640675919
computed normalized entropy=0.8214015196240526
SPLASH=splash10-0006-9440000000-4c5ed1933aba7edcfc76
submitter=submitter = University of Tokyo Team (Faculty of Engineering, University of Tokyo)
MoNA Rating=3.75

>  <NUM PEAKS>  (3666) 
170

>  <MASS SPECTRAL PEAKS>  (3666) 
40 2.5
41 99.99
42 3.5
43 2.85
45 74.5
46 2.9
47 2.5
50 0.2
51 4
52 4.5
53 30
54 0.3
55 63.4
56 4.2
57 23
65 0.6
66 2.9
67 42
68 5.5
69 5.3
70 4
71 5.2
72 2.5
73 0.25
74 1.5
75 2.3
76 2.3
77 0.95
78 3.5
79 44
80 6
81 4.7
82 6.5
83 5.5
84 4
85 0.48
91 45
92 11
93 34.5
94 0.75
95 27.7
96 4.5
97 6.7
98 0.15
103 2.9
104 4
105 25.5
106 0.3
107 19.7
108 3.8
109 16.5
110 0.25
111 4
112 2
115 4.7
116 0.22
117 1.8
118 3.2
119 9
120 0.52
121 12.5
122 6.5
123 25
124 0.38
125 2
130 1.1
131 6.4
132 0.25
133 8.5
134 2.7
135 5
136 0.78
137 17
138 2.8
139 3
141 0.3
142 2
143 2.8
144 1.8
145 0.55
146 2.5
147 8
148 5.2
149 1.45
150 3
151 1.5
152 2.1
153 0.2
154 1.5
155 2
156 1.5
157 0.34
158 1.5
159 5.5
160 2.5
161 0.72
162 5.7
163 5
164 3
165 0.35
166 2.5
167 3.5
168 2.5
169 0.25
171 2.5
172 1
173 6.5
174 0.24
175 5.1
176 3
177 3.5
180 0.45
181 14.5
182 4.5
183 2.5
185 0.3
186 1
187 4.2
188 2.5
189 0.6
190 3.5
191 2.5
193 2.5
194 0.35
195 3
199 3
201 4
202 0.3
203 3
204 2.5
205 3.3
213 0.47
214 1.5
215 42.4
216 9
217 0.31
218 13.1
219 3
223 3.5
229 0.15
230 85
231 21
232 4
243 1.1
244 5
253 10.9
254 3.5
255 0.5
256 2.1
257 8
258 5.8
259 0.45
268 7
269 1.5
271 5
272 0.35
273 15.5
274 5.7
275 4.5
285 0.9
286 29
287 9.2
288 5.4
300 0.55
303 16
304 4.5
317 3
318 4.75
319 6.5
320 1

>  <PREDICTED SPECTRUM>  (3666) 
27 117
28 47
29 269
30 51
31 89
33 39
39 354
40 222
41 999
42 314
43 719
44 302
45 765
46 103
47 27
50 6
51 144
52 139
53 433
54 191
55 794
56 263
57 348
58 107
59 102
60 37
63 90
64 54
65 286
66 213
67 870
68 388
69 837
70 307
71 352
72 144
73 128
74 51
76 19
77 511
78 290
79 649
80 426
81 940
82 559
83 348
84 203
85 276
86 71
87 77
88 77
89 56
91 640
92 310
93 661
94 405
95 998
96 308
97 388
98 199
99 278
100 75
101 120
102 41
103 109
104 126
105 510
106 334
107 596
108 457
109 760
110 369
111 248
112 118
113 210
114 87
115 179
116 104
117 254
118 18
119 307
120 262
121 648
122 625
123 985
124 317
125 251
126 222
127 123
128 131
129 124
130 4
131 145
132 57
133 290
134 233
135 390
136 223
137 523
138 252
139 144
140 33
141 42
143 5
145 43
146 39
147 252
148 161
149 259
150 323
151 238
152 1
153 120
154 50
155 44
157 86
159 194
160 12
161 161
162 48
163 200
164 58
165 170
166 76
167 219
168 137
169 57
173 115
175 482
176 115
177 387
178 70
179 137
180 140
181 93
182 65
184 10
185 39
187 129
188 21
189 251
190 107
191 244
192 32
193 202
194 177
195 320
196 101
199 59
201 93
202 28
203 105
204 167
205 128
206 88
207 53
208 41
209 102
210 44
215 61
216 83
217 93
219 14
229 63
230 46
241 5
243 22
245 84
247 45
255 40
256 16
257 165
258 71
259 54
260 45
273 522
274 195
275 80
285 70
286 252
287 133
303 85
318 360
319 69
320 108

$$$$

     RDKit          2D

 21 24  0  0  1  0  0  0  0  0999 V2000
    4.8236    1.8512    0.0000 C   0  0  0  0  0  0  0  0  0  0  0  0
   -3.3641   -3.7492    0.0000 C   0  0  0  0  0  0  0  0  0  0  0  0
   -1.4359   -3.7492    0.0000 C   0  0  0  0  0  0  0  0  0  0  0  0
   -1.1000    1.1500    0.0000 C   0  0  0  0  0  0  0  0  0  0  0  0
   -3.7000   -0.3500    0.0000 C   0  0  0  0  0  0  0  0  0  0  0  0
    0.9900    2.9800    0.0000 C   0  0  0  0  0  0  0  0  0  0  0  0
   -0.0300    1.8800    0.0000 C   0  0  0  0  0  0  0  0  0  0  0  0
    0.2000   -2.6000    0.0000 C   0  0  0  0  0  0  0  0  0  0  0  0
   -3.7000   -1.8500    0.0000 C   0  0  0  0  0  0  0  0  0  0  0  0
   -2.4000    0.4000    0.0000 C   0  0  0  0  0  0  0  0  0  0  0  0
    1.5000   -1.8500    0.0000 C   0  0  0  0  0  0  0  0  0  0  0  0
    1.3100    1.4800    0.0000 C   0  0  0  0  0  0  0  0  0  0  0  0
    3.3400    1.6300    0.0000 C   0  0  0  0  0  0  0  0  0  0  0  0
    2.4900    2.8700    0.0000 C   0  0  0  0  0  0  0  0  0  0  0  0
   -1.1000   -1.8500    0.0000 C   0  0  0  0  0  0  0  0  0  0  0  0
    0.2000    0.4000    0.0000 C   0  0  0  0  0  0  0  0  0  0  0  0
    2.8900    0.2000    0.0000 C   0  0  0  0  0  0  0  0  0  0  0  0
   -2.4000   -2.6000    0.0000 C   0  0  0  0  0  0  0  0  0  0  0  0
   -1.1000   -0.3500    0.0000 C   0  0  0  0  0  0  0  0  0  0  0  0
    1.5000   -0.3500    0.0000 C   0  0  0  0  0  0  0  0  0  0  0  0
    3.9881   -0.8218    0.0000 O   0  0  0  0  0  0  0  0  0  0  0  0
  7  6  1  0
  9  5  1  0
 10  5  1  0
 11  8  1  0
 13  1  1  1
 14  6  1  6
 14 12  1  0
 14 13  1  0
 15  8  1  1
 16  7  1  1
 17 13  1  0
 18  2  1  0
 18  3  1  0
 18  9  1  0
 18 15  1  0
 19  4  1  1
 19 10  1  0
 19 15  1  0
 19 16  1  0
 20 11  1  1
 20 12  1  0
 20 16  1  0
 20 17  1  0
 21 17  2  0
M  END
>  <NAME>  (3667) 
(16R)-ENT-KAURAN-15-ONE

>  <SYNONYMS>  (3667) 


>  <SPECTRUM TYPE>  (3667) 
MS1

>  <INSTRUMENT TYPE>  (3667) 
EI-B

>  <INSTRUMENT>  (3667) 
HITACHI RMU-7L

>  <ION MODE>  (3667) 
P

>  <INCHIKEY>  (3667) 
WLPSBNSWPFRIPG-YSBNHYEQSA-N

>  <FORMULA>  (3667) 
C20H32O

>  <EXACT MASS>  (3667) 
288.245315644

>  <MW>  (3667) 
288

>  <ID>  (3667) 
JP006328

>  <CONTRIBUTOR>  (3667) 
University of Tokyo Team, {Faculty of Engineering, University of Tokyo

>  <COMMENT>  (3667) 
SMILES=CC(C)(C4)C([H])(C3)C(C)(CC4)C([H])(C2)C(C3)(C1)C(=O)C([H])(C)C([H])(C2)1
InChI=InChI=1S/C20H32O/c1-13-14-6-7-16-19(4)10-5-9-18(2,3)15(19)8-11-20(16,12-14)17(13)21/h13-16H,5-12H2,1-4H3/t13-,14+,15+,16-,19+,20+/m1/s1
computed SMILES=O=C1C(C)C2CCC3C1(CCC4C(C)(C)CCCC43C)C2
accession=JP006328
date=2016.01.19 (Created 2008.10.21, modified 2011.05.06)
author=EGUCHI S, FAC. OF SCIENCE, HIROSHIMA UNIV.
license=CC BY-NC-SA
exact mass=288.24532
ionization energy=70 eV
ion type=[M]+*
computed spectral entropy=3.9040762241183105
computed normalized entropy=0.8321864679673355
SPLASH=splash10-05ox-9310000000-96f27c85829a17458376
submitter=submitter = University of Tokyo Team (Faculty of Engineering, University of Tokyo)
MoNA Rating=3.75

>  <NUM PEAKS>  (3667) 
109

>  <MASS SPECTRAL PEAKS>  (3667) 
40 7.1
41 99.99
42 11.4
43 3.21
44 2.9
50 2.9
51 5
52 0.43
53 31.4
54 8.6
55 77.1
56 1.43
57 12.9
58 5
65 15
66 0.82
67 53.6
68 19.3
69 39.3
70 0.57
71 2.9
76 3.6
77 37.1
78 1.14
79 60
80 13.6
81 49.3
82 1.07
83 8.2
84 2.5
85 2.5
91 6.64
92 24.3
93 46.8
94 13.6
95 3
96 5.7
97 4.3
103 5.7
104 0.71
105 30
106 10
107 25
108 0.75
109 17.9
110 3.9
111 4.3
115 0.68
116 4.3
117 12.1
118 4.3
119 1.71
120 7
121 12.1
122 6.8
123 3.08
124 4.3
125 2.9
127 2.1
128 0.5
129 5.7
130 3.6
131 10
132 0.43
133 10
134 4.3
135 8.6
136 0.57
137 17.5
138 4.3
141 2.9
142 0.25
143 3.9
144 2.9
145 10
146 0.5
147 10.7
148 4.3
149 8.6
150 0.43
151 3.6
157 2.9
158 2.1
159 0.46
160 2.9
161 5
162 2.5
163 0.43
164 2.9
165 2.1
213 3.6
214 0.14
215 20
216 3.9
217 2.9
230 3.5
231 4.3
232 2.9
245 11
246 0.29
255 4.5
256 1.5
270 1.4
271 0.14
272 0.7
273 10.5
275 1.1
288 2
289 5

>  <PREDICTED SPECTRUM>  (3667) 
29 84
39 131
40 84
41 684
42 191
43 406
44 109
51 65
52 57
53 335
54 95
55 649
56 160
57 221
58 124
63 7
65 215
66 70
67 566
68 299
69 532
70 57
71 143
77 394
78 176
79 469
80 239
81 693
82 356
83 245
84 83
85 35
91 451
92 226
93 433
94 348
95 607
96 245
97 241
98 23
104 42
105 367
106 222
107 434
108 329
109 591
110 230
111 114
115 25
116 16
117 146
118 59
119 219
120 298
121 581
122 574
123 802
124 587
125 201
126 26
129 6
131 137
132 35
133 190
134 133
135 353
136 394
137 465
138 276
139 28
143 1
145 79
146 53
147 238
148 164
149 312
150 320
151 196
152 48
158 27
159 181
160 100
161 144
162 15
163 206
164 238
165 278
166 117
173 109
174 54
175 218
176 127
177 191
178 112
179 15
184 14
185 34
186 44
187 45
188 41
189 258
190 79
191 187
192 105
193 18
200 5
201 94
202 39
203 284
204 84
205 32
214 76
215 188
216 142
217 248
218 139
219 106
229 132
230 235
231 295
232 210
233 78
243 2
244 201
245 285
246 80
255 117
257 6
259 130
260 41
270 82
271 81
273 600
274 181
288 999
289 454
290 109

$$$$

     RDKit          2D

 21 22  0  0  1  0  0  0  0  0999 V2000
   -2.9729    2.9646    0.0000 C   0  0  0  0  0  0  0  0  0  0  0  0
    2.1084   -1.3605    0.0000 C   0  0  0  0  0  0  0  0  0  0  0  0
    1.1045   -2.4751    0.0000 H   0  0  0  0  0  0  0  0  0  0  0  0
    3.2229   -2.3644    0.0000 H   0  0  0  0  0  0  0  0  0  0  0  0
    4.9046   -0.4525    0.0000 H   0  0  0  0  0  0  0  0  0  0  0  0
    1.7517    0.9685    0.0000 C   0  0  0  0  0  0  0  0  0  0  0  0
    3.3981   -0.8594    0.0000 H   0  0  0  0  0  0  0  0  0  0  0  0
    2.8663    1.9723    0.0000 H   0  0  0  0  0  0  0  0  0  0  0  0
    0.7478    2.0830    0.0000 H   0  0  0  0  0  0  0  0  0  0  0  0
   -6.8709   -0.7858    0.0000 C   0  0  0  0  0  0  0  0  0  0  0  0
   -2.9729    1.4646    0.0000 C   0  0  0  0  0  0  0  0  0  0  0  0
   -2.9729   -1.5354    0.0000 C   0  0  0  0  0  0  0  0  0  0  0  0
   -1.6729    0.7146    0.0000 C   0  0  0  0  0  0  0  0  0  0  0  0
   -1.6729   -0.7854    0.0000 C   0  0  0  0  0  0  0  0  0  0  0  0
   -4.2729   -0.7854    0.0000 C   0  0  0  0  0  0  0  0  0  0  0  0
    0.6371   -0.0354    0.0000 C   0  0  0  0  0  0  0  0  0  0  0  0
   -2.9729   -3.0354    0.0000 O   0  0  0  0  0  0  0  0  0  0  0  0
   -5.5718   -1.5356    0.0000 O   0  0  0  0  0  0  0  0  0  0  0  0
   -4.2729    0.7146    0.0000 O   0  0  0  0  0  0  0  0  0  0  0  0
   -0.2429    1.1746    0.0000 O   0  0  0  0  0  0  0  0  0  0  0  0
   -0.2429   -1.2454    0.0000 O   0  0  0  0  0  0  0  0  0  0  0  0
  2  3  1  0
  2  4  1  0
  2  5  1  0
  6  7  1  0
  6  8  1  0
  6  9  1  0
 11  1  1  6
 13 11  1  0
 14 12  1  0
 14 13  1  0
 15 12  1  0
 16  2  1  0
 16  6  1  0
 12 17  1  1
 18 10  1  0
 15 18  1  6
 19 11  1  0
 19 15  1  0
 13 20  1  6
 20 16  1  0
 14 21  1  6
 21 16  1  0
M  ISO  6   3   2   4   2   5   2   7   2   8   2   9   2
M  END
>  <NAME>  (3668) 
METHYL 3,4-O-ISOPROPYLIDENE-BETA-D-FUCOPYRANOSIDE (3,3,3,4,4,4-D6)

>  <SYNONYMS>  (3668) 
METHYL 3,4-O-HEXADEUTEROISOPROPYLIDENE-BETA-D-FUCOPYRANOSIDE

>  <SPECTRUM TYPE>  (3668) 
MS1

>  <INSTRUMENT TYPE>  (3668) 
EI-B

>  <INSTRUMENT>  (3668) 
HITACHI RMU-6L

>  <ION MODE>  (3668) 
P

>  <INCHIKEY>  (3668) 
UONDNTMXANWPHZ-ZPOOEJENSA-N

>  <FORMULA>  (3668) 
C10H18O5

>  <EXACT MASS>  (3668) 
224.153084152

>  <MW>  (3668) 
224

>  <ID>  (3668) 
JP006327

>  <CONTRIBUTOR>  (3668) 
University of Tokyo Team, {Faculty of Engineering, University of Tokyo

>  <COMMENT>  (3668) 
SMILES=COC(O2)C(O)C([H])(O1)C([H])(C(C)2)OC(C([2H])([2H])[2H])(C([2H])([2H])[2H])1
InChI=InChI=1S/C10H18O5/c1-5-7-8(15-10(2,3)14-7)6(11)9(12-4)13-5/h5-9,11H,1-4H3/t5-,6-,7+,8-,9-/m1/s1/i2D3,3D3
computed SMILES=[H]C([H])([H])C1(OC2C(O)C(OC)OC(C)C2O1)C([H])([H])[H]
ionization energy=70 eV
accession=JP006327
date=2016.01.19 (Created 2008.10.21, modified 2011.05.06)
author=EGUCHI S, FAC. OF SCIENCE, HIROSHIMA UNIV.
license=CC BY-NC-SA
exact mass=218.11542
ion type=[M]+*
computed spectral entropy=3.7337484509387644
computed normalized entropy=0.8218151429463797
SPLASH=splash10-052b-9200000000-6f4b12ae281decf2d8e4
submitter=submitter = University of Tokyo Team (Faculty of Engineering, University of Tokyo)
MoNA Rating=3.75

>  <NUM PEAKS>  (3668) 
94

>  <MASS SPECTRAL PEAKS>  (3668) 
40 4.8
41 26.2
42 14.3
43 4.63
44 9.5
45 31
46 99.99
47 0.48
48 3.6
49 3.6
50 1.2
51 0.12
52 1.2
53 7.1
54 4.8
55 1.9
56 10.7
57 21.4
58 11.9
59 1.31
60 14.3
61 21.4
62 4.8
63 0.48
64 15.8
65 63.1
66 4.8
67 0.36
68 2.4
69 13.1
70 4.8
71 5.24
72 9.5
73 10.7
74 28.6
75 0.6
76 2.4
77 2.4
78 2.4
79 0.36
80 1.2
81 4.8
82 3.6
83 2.38
84 4.8
85 7.1
86 3.6
87 3.1
88 27.4
89 4.8
90 3.6
91 0.12
92 1.2
95 2.4
96 1.2
97 0.48
98 2.4
99 7.1
100 8.3
101 0.95
102 6
103 2.4
104 6
105 2.86
106 31
107 15.5
108 2.4
109 0.24
110 1.2
111 8.3
112 2.4
113 0.29
114 2.4
115 2.4
116 4.8
117 0.12
118 2.4
119 3.6
120 2.4
121 0.29
125 2.4
126 1.2
127 6
128 0.6
129 3.6
130 2.4
135 3.6
143 0.95
144 2.4
193 8.3
206 21.4
207 0.12
224 2.4
225 0.3

>  <PREDICTED SPECTRUM>  (3668) 
25 5
26 53
27 45
28 45
29 109
31 247
32 41
33 45
36 13
39 47
40 43
41 373
42 322
43 999
44 112
45 869
46 196
47 209
48 48
49 105
50 53
51 117
52 15
53 142
54 162
55 625
56 195
57 794
58 604
59 919
60 342
61 422
62 20
63 64
64 76
65 47
67 119
68 79
69 410
70 162
71 946
72 474
73 498
74 364
75 397
76 81
77 110
78 93
79 105
80 1
81 255
82 85
83 137
84 122
85 850
86 462
87 406
88 182
89 218
90 135
91 291
92 73
93 175
94 113
95 208
97 357
98 27
99 85
100 128
101 310
102 161
103 149
104 92
105 221
106 99
107 82
109 62
111 119
112 17
113 177
114 66
115 530
116 191
117 294
118 125
119 72
120 105
121 44
122 42
123 7
127 197
129 81
130 113
131 306
132 137
133 219
134 195
135 34
136 79
137 57
139 45
145 12
146 43
147 64
148 109
149 153
150 172
151 62
161 40
163 115
164 61
165 114
166 60
175 19
176 39
177 101
179 62
180 90
192 11
193 145
194 79
195 47
209 51

$$$$

     RDKit          2D

 21 22  0  0  1  0  0  0  0  0999 V2000
   -5.5718    1.4648    0.0000 C   0  0  0  0  0  0  0  0  0  0  0  0
    2.1084   -1.3605    0.0000 C   0  0  0  0  0  0  0  0  0  0  0  0
    1.1045   -2.4751    0.0000 H   0  0  0  0  0  0  0  0  0  0  0  0
    3.2229   -2.3644    0.0000 H   0  0  0  0  0  0  0  0  0  0  0  0
    4.9046   -0.4525    0.0000 H   0  0  0  0  0  0  0  0  0  0  0  0
    1.7517    0.9685    0.0000 C   0  0  0  0  0  0  0  0  0  0  0  0
    3.3981   -0.8594    0.0000 H   0  0  0  0  0  0  0  0  0  0  0  0
    2.8663    1.9723    0.0000 H   0  0  0  0  0  0  0  0  0  0  0  0
    0.7478    2.0830    0.0000 H   0  0  0  0  0  0  0  0  0  0  0  0
   -4.2719   -3.7854    0.0000 C   0  0  0  0  0  0  0  0  0  0  0  0
   -4.2729    0.7146    0.0000 C   0  0  0  0  0  0  0  0  0  0  0  0
   -2.9729    1.4646    0.0000 C   0  0  0  0  0  0  0  0  0  0  0  0
   -1.6729    0.7146    0.0000 C   0  0  0  0  0  0  0  0  0  0  0  0
   -1.6729   -0.7854    0.0000 C   0  0  0  0  0  0  0  0  0  0  0  0
   -2.9729   -1.5354    0.0000 C   0  0  0  0  0  0  0  0  0  0  0  0
    0.6371   -0.0354    0.0000 C   0  0  0  0  0  0  0  0  0  0  0  0
   -2.9729    2.9646    0.0000 O   0  0  0  0  0  0  0  0  0  0  0  0
   -2.9729   -3.0354    0.0000 O   0  0  0  0  0  0  0  0  0  0  0  0
   -4.2729   -0.7854    0.0000 O   0  0  0  0  0  0  0  0  0  0  0  0
   -0.2429    1.1746    0.0000 O   0  0  0  0  0  0  0  0  0  0  0  0
   -0.2429   -1.2454    0.0000 O   0  0  0  0  0  0  0  0  0  0  0  0
  2  3  1  0
  2  4  1  0
  2  5  1  0
  6  7  1  0
  6  8  1  0
  6  9  1  0
 11  1  1  1
 12 11  1  0
 13 12  1  0
 14 13  1  0
 15 14  1  0
 16  2  1  0
 16  6  1  0
 12 17  1  6
 18 10  1  0
 15 18  1  6
 19 11  1  0
 19 15  1  0
 13 20  1  1
 20 16  1  0
 14 21  1  1
 21 16  1  0
M  ISO  6   3   2   4   2   5   2   7   2   8   2   9   2
M  END
>  <NAME>  (3669) 
METHYL 2,3-O-ISOPROPYLIDENE-ALPHA-L-RHAMNOPYRANOSIDE (2,2,2,3,3,3-D6)

>  <SYNONYMS>  (3669) 
METHYL 2,3-O-HEXADEUTEROISOPROPYLIDENE-ALPHA-L-RHAMNOPYRANOSIDE

>  <SPECTRUM TYPE>  (3669) 
MS1

>  <INSTRUMENT TYPE>  (3669) 
EI-B

>  <INSTRUMENT>  (3669) 
HITACHI RMU-7L

>  <ION MODE>  (3669) 
P

>  <INCHIKEY>  (3669) 
TVKKWQAJQZHTDN-XQPZCLEZSA-N

>  <FORMULA>  (3669) 
C10H18O5

>  <EXACT MASS>  (3669) 
224.153084152

>  <MW>  (3669) 
224

>  <ID>  (3669) 
JP006326

>  <CONTRIBUTOR>  (3669) 
University of Tokyo Team, {Faculty of Engineering, University of Tokyo

>  <COMMENT>  (3669) 
SMILES=COC(O2)C([H])(O1)C([H])(C(O)C(C)2)OC(C([2H])([2H])[2H])(C([2H])([2H])[2H])1
InChI=InChI=1S/C10H18O5/c1-5-6(11)7-8(9(12-4)13-5)15-10(2,3)14-7/h5-9,11H,1-4H3/t5-,6-,7+,8+,9+/m0/s1/i2D3,3D3
computed SMILES=[H]C([H])([H])C1(OC2C(OC)OC(C)C(O)C2O1)C([H])([H])[H]
accession=JP006326
date=2016.01.19 (Created 2008.10.21, modified 2011.05.06)
author=EGUCHI S, FAC. OF SCIENCE, HIROSHIMA UNIV.
license=CC BY-NC-SA
exact mass=218.11542
ionization energy=70 eV
ion type=[M]+*
computed spectral entropy=3.696145115505589
computed normalized entropy=0.8135384765104001
SPLASH=splash10-0abj-9400000000-b8e7259c249d4b459e22
submitter=submitter = University of Tokyo Team (Faculty of Engineering, University of Tokyo)
MoNA Rating=3.75

>  <NUM PEAKS>  (3669) 
94

>  <MASS SPECTRAL PEAKS>  (3669) 
40 4.3
41 9.6
42 7.8
43 2.61
44 6.1
45 25.2
46 47
47 0.43
48 4.3
49 5.2
53 5.2
54 0.52
55 10.9
56 7.8
57 20
58 1.57
59 7.4
60 8.3
61 20.4
62 0.7
63 4.8
64 16.5
65 51.3
66 0.43
67 3
68 3.5
69 7
70 0.26
71 67.8
72 7.4
73 6.1
74 0.56
75 6.1
76 3
77 3.9
78 0.61
79 9.6
80 1.8
81 2.6
82 0.74
83 11.3
84 3.9
85 14.8
86 0.61
87 16.5
88 52.2
89 5.2
90 0.26
98 3.5
99 3
100 9.1
101 0.52
102 3.5
103 3.9
104 6.1
105 2.87
106 99.99
107 16.5
108 2.6
111 0.48
112 8.7
113 3.5
114 1.8
115 0.35
116 4.3
117 3.5
118 5.2
119 0.48
120 5.2
121 6.1
122 6.3
125 0.35
128 3.5
129 6.1
130 2.6
131 0.26
132 1.8
133 1.8
134 2.6
135 0.7
136 1.8
143 5.2
144 5.6
145 0.18
146 1.8
174 4.3
192 4.3
193 0.96
194 1.8
205 2.6
206 11.3
207 0.18
224 3.5
225 0.9

>  <PREDICTED SPECTRUM>  (3669) 
25 17
26 80
27 96
28 70
29 120
30 21
31 292
32 60
33 69
36 1
39 37
40 43
41 315
42 246
43 999
44 102
45 902
46 183
47 245
48 76
49 125
50 49
51 135
52 11
53 125
54 116
55 555
56 90
57 758
58 510
59 979
60 501
61 416
62 11
63 54
64 48
65 42
67 110
68 100
69 373
70 52
71 802
72 273
73 572
74 357
75 361
76 91
77 83
78 101
79 149
80 65
81 208
82 93
83 6
84 74
85 872
86 249
87 348
88 107
89 151
90 118
91 382
92 129
93 194
94 99
95 191
97 469
99 100
100 256
101 422
102 180
103 218
104 61
105 213
106 103
107 140
109 67
110 10
111 145
113 171
114 17
115 479
116 85
117 282
118 57
119 69
120 79
121 129
122 93
127 185
129 79
130 94
131 279
132 182
133 273
134 159
135 36
136 55
137 32
139 25
147 78
148 116
149 128
150 169
151 79
161 93
163 82
165 108
166 106
177 61
179 29
180 35
193 80
194 23
206 27
209 75
223 5

$$$$

     RDKit          2D

 15 16  0  0  1  0  0  0  0  0999 V2000
   -1.0100    3.0000    0.0000 C   0  0  0  0  0  0  0  0  0  0  0  0
    3.7146   -1.0039    0.0000 C   0  0  0  0  0  0  0  0  0  0  0  0
    3.7146    1.0039    0.0000 C   0  0  0  0  0  0  0  0  0  0  0  0
   -4.9081   -0.7504    0.0000 C   0  0  0  0  0  0  0  0  0  0  0  0
   -1.0100    1.5000    0.0000 C   0  0  0  0  0  0  0  0  0  0  0  0
   -1.0100   -1.5000    0.0000 C   0  0  0  0  0  0  0  0  0  0  0  0
    0.2900    0.7500    0.0000 C   0  0  0  0  0  0  0  0  0  0  0  0
    0.2900   -0.7500    0.0000 C   0  0  0  0  0  0  0  0  0  0  0  0
   -2.3100   -0.7500    0.0000 C   0  0  0  0  0  0  0  0  0  0  0  0
    2.6000    0.0000    0.0000 C   0  0  0  0  0  0  0  0  0  0  0  0
   -1.0100   -3.0000    0.0000 O   0  0  0  0  0  0  0  0  0  0  0  0
   -3.6089   -1.5002    0.0000 O   0  0  0  0  0  0  0  0  0  0  0  0
   -2.3100    0.7500    0.0000 O   0  0  0  0  0  0  0  0  0  0  0  0
    1.7200    1.2100    0.0000 O   0  0  0  0  0  0  0  0  0  0  0  0
    1.7200   -1.2100    0.0000 O   0  0  0  0  0  0  0  0  0  0  0  0
  5  1  1  6
  7  5  1  0
  8  6  1  0
  8  7  1  0
  9  6  1  0
 10  2  1  0
 10  3  1  0
  6 11  1  1
 12  4  1  0
  9 12  1  6
 13  5  1  0
 13  9  1  0
  7 14  1  6
 14 10  1  0
  8 15  1  6
 15 10  1  0
M  END
>  <NAME>  (3670) 
METHYL 3,4-O-ISOPROPYLIDENE-BETA-D-FUCOPYRANOSIDE

>  <SYNONYMS>  (3670) 


>  <SPECTRUM TYPE>  (3670) 
MS1

>  <INSTRUMENT TYPE>  (3670) 
EI-B

>  <INSTRUMENT>  (3670) 
HITACHI RMU-6L

>  <ION MODE>  (3670) 
P

>  <INCHIKEY>  (3670) 
UONDNTMXANWPHZ-SYHAXYEDSA-N

>  <FORMULA>  (3670) 
C10H18O5

>  <EXACT MASS>  (3670) 
218.11542367599998

>  <MW>  (3670) 
218

>  <ID>  (3670) 
JP006325

>  <CONTRIBUTOR>  (3670) 
University of Tokyo Team, {Faculty of Engineering, University of Tokyo

>  <COMMENT>  (3670) 
SMILES=COC(O1)C(O)C([H])(O2)C([H])(OC(C)(C)2)C(C)1
InChI=InChI=1S/C10H18O5/c1-5-7-8(15-10(2,3)14-7)6(11)9(12-4)13-5/h5-9,11H,1-4H3/t5-,6-,7+,8-,9-/m1/s1
computed SMILES=OC1C(OC)OC(C)C2OC(OC12)(C)C
accession=JP006325
date=2016.01.19 (Created 2008.10.21, modified 2011.05.06)
author=EGUCHI S, FAC. OF SCIENCE, HIROSHIMA UNIV.
license=CC BY-NC-SA
exact mass=218.11542
ionization energy=70 eV
ion type=[M]+*
computed spectral entropy=3.253323635671531
computed normalized entropy=0.7945896067686773
SPLASH=splash10-0f6x-9200000000-f48342813c5a4f83fbbd
submitter=submitter = University of Tokyo Team (Faculty of Engineering, University of Tokyo)
MoNA Rating=3.75

>  <NUM PEAKS>  (3670) 
60

>  <MASS SPECTRAL PEAKS>  (3670) 
40 3.5
41 24.3
42 7
43 99.99
44 5.2
45 15.7
53 4.3
54 0.35
55 20.9
56 13
57 20.9
58 8.61
60 7
61 20
69 5.2
70 0.26
71 60.9
72 7
73 11.3
74 2.7
75 3.5
81 1.7
82 2.6
83 3.13
84 3.5
85 34.8
86 3.5
87 4
88 7.8
89 1.7
99 48.7
100 7.48
101 45.2
102 3.5
103 3.5
111 1.13
112 1.7
113 5.2
114 1.7
115 0.26
116 10.4
117 1.7
118 1.7
119 0.17
125 3.5
127 1.7
128 13.9
129 0.87
130 1.7
131 1.7
143 7
145 0.17
146 1.7
160 1.7
186 2.6
187 0.96
203 24.3
204 3.5
218 0.9
219 0.1

>  <PREDICTED SPECTRUM>  (3670) 
25 5
26 64
27 190
28 93
29 240
30 67
31 219
32 26
33 69
37 1
38 21
39 233
40 133
41 568
42 328
43 999
44 213
45 561
46 45
47 62
53 131
54 105
55 408
56 251
57 578
58 428
59 659
60 364
61 374
67 28
68 128
69 270
70 153
71 618
72 282
73 516
74 321
75 200
81 104
82 42
83 202
84 175
85 563
86 268
87 264
88 123
89 131
97 171
98 107
99 448
100 616
101 618
102 316
103 158
111 81
112 31
113 196
114 209
115 145
116 149
117 120
125 93
126 11
127 139
128 142
129 205
130 182
131 192
143 219
144 0
145 86
159 43
160 84
173 36
174 25
186 97
187 161
188 16
203 552
204 178
205 52

$$$$

     RDKit          2D

 15 16  0  0  1  0  0  0  0  0999 V2000
   -3.6089    1.5002    0.0000 C   0  0  0  0  0  0  0  0  0  0  0  0
    3.7146   -1.0039    0.0000 C   0  0  0  0  0  0  0  0  0  0  0  0
    3.7146    1.0039    0.0000 C   0  0  0  0  0  0  0  0  0  0  0  0
   -2.3090   -3.7500    0.0000 C   0  0  0  0  0  0  0  0  0  0  0  0
   -2.3100    0.7500    0.0000 C   0  0  0  0  0  0  0  0  0  0  0  0
   -1.0100    1.5000    0.0000 C   0  0  0  0  0  0  0  0  0  0  0  0
    0.2900    0.7500    0.0000 C   0  0  0  0  0  0  0  0  0  0  0  0
    0.2900   -0.7500    0.0000 C   0  0  0  0  0  0  0  0  0  0  0  0
   -1.0100   -1.5000    0.0000 C   0  0  0  0  0  0  0  0  0  0  0  0
    2.6000    0.0000    0.0000 C   0  0  0  0  0  0  0  0  0  0  0  0
   -1.0100    3.0000    0.0000 O   0  0  0  0  0  0  0  0  0  0  0  0
   -1.0100   -3.0000    0.0000 O   0  0  0  0  0  0  0  0  0  0  0  0
   -2.3100   -0.7500    0.0000 O   0  0  0  0  0  0  0  0  0  0  0  0
    1.7200    1.2100    0.0000 O   0  0  0  0  0  0  0  0  0  0  0  0
    1.7200   -1.2100    0.0000 O   0  0  0  0  0  0  0  0  0  0  0  0
  5  1  1  1
  6  5  1  0
  7  6  1  0
  8  7  1  0
  9  8  1  0
 10  2  1  0
 10  3  1  0
  6 11  1  6
 12  4  1  0
  9 12  1  6
 13  5  1  0
 13  9  1  0
  7 14  1  1
 14 10  1  0
  8 15  1  1
 15 10  1  0
M  END
>  <NAME>  (3671) 
METHYL 2,3-O-ISOPROPYLIDENE-ALPHA-L-RHAMNOPYRANOSIDE

>  <SYNONYMS>  (3671) 


>  <SPECTRUM TYPE>  (3671) 
MS1

>  <INSTRUMENT TYPE>  (3671) 
EI-B

>  <INSTRUMENT>  (3671) 
HITACHI RMU-6L

>  <ION MODE>  (3671) 
P

>  <INCHIKEY>  (3671) 
TVKKWQAJQZHTDN-OFPUPOEVSA-N

>  <FORMULA>  (3671) 
C10H18O5

>  <EXACT MASS>  (3671) 
218.115423676

>  <MW>  (3671) 
218

>  <ID>  (3671) 
JP006324

>  <CONTRIBUTOR>  (3671) 
University of Tokyo Team, {Faculty of Engineering, University of Tokyo

>  <COMMENT>  (3671) 
SMILES=COC(O1)C(O2)C(OC(C)(C)2)C(O)C(C)1
InChI=InChI=1S/C10H18O5/c1-5-6(11)7-8(9(12-4)13-5)15-10(2,3)14-7/h5-9,11H,1-4H3/t5-,6-,7+,8+,9+/m0/s1
computed SMILES=OC1C(OC(OC)C2OC(OC12)(C)C)C
accession=JP006324
date=2016.01.19 (Created 2008.10.21, modified 2011.05.06)
author=EGUCHI S, FAC. OF SCIENCE, HIROSHIMA UNIV.
license=CC BY-NC-SA
exact mass=218.11542
ionization energy=70 eV
ion type=[M]+*
computed spectral entropy=3.287508760524832
computed normalized entropy=0.7662369976034297
SPLASH=splash10-0zfr-9400000000-cc032d8d44a538ed8eb4
submitter=submitter = University of Tokyo Team (Faculty of Engineering, University of Tokyo)
MoNA Rating=3.75

>  <NUM PEAKS>  (3671) 
73

>  <MASS SPECTRAL PEAKS>  (3671) 
40 3.1
41 17.7
42 6.6
43 1.63
44 4.3
45 21.4
46 1.4
47 0.47
48 2.3
49 2.4
50 1.4
51 0.11
53 4.6
54 4
55 34.3
56 0.97
57 21.7
58 18.7
59 49.1
60 0.91
61 12.2
70 1.1
71 58.3
72 0.51
73 16.6
74 4.4
75 6.9
81 0.17
82 4
83 14
84 2.9
85 6.17
86 4.6
87 12.4
88 1.7
89 0.11
97 2.9
98 1.4
99 32
100 99.99
101 27.1
102 2.1
103 2.2
111 1.37
112 5.4
113 2
114 1.3
115 0.49
116 2.1
117 1.3
118 1.1
119 0.14
125 1.3
127 1.4
128 2
129 1.14
130 1.4
131 1.3
140 1.1
141 0.1
143 6.3
144 1.3
171 5.7
172 0.11
185 1.7
186 1.9
187 9.1
188 0.16
203 14.4
204 2.1
205 1
218 0.14
219 0.8

>  <PREDICTED SPECTRUM>  (3671) 
26 47
27 166
28 56
29 205
30 18
31 275
33 125
38 28
39 249
40 150
41 585
42 321
43 972
44 123
45 605
46 30
47 26
51 6
52 46
53 182
54 99
55 459
56 234
57 784
58 565
59 995
60 330
61 359
67 88
68 146
69 233
70 112
71 613
72 315
73 472
74 322
75 187
79 35
81 78
82 5
83 289
84 172
85 721
86 316
87 276
88 134
89 43
95 82
97 152
98 96
99 590
100 999
101 774
102 298
103 105
110 9
111 225
112 37
113 110
114 184
115 85
117 77
118 31
125 135
126 111
127 186
128 218
129 234
130 187
131 161
143 270
144 3
145 84
159 21
160 144
161 54
171 40
174 13
186 68
187 218
203 671
204 212
205 13

$$$$

     RDKit          2D

 40 43  0  0  1  0  0  0  0  0999 V2000
   -8.7054   -0.5047    0.0000 C   0  0  0  0  0  0  0  0  0  0  0  0
   -8.8609   -4.3939    0.0000 C   0  0  0  0  0  0  0  0  0  0  0  0
   -2.3658    2.3575    0.0000 C   0  0  0  0  0  0  0  0  0  0  0  0
  -15.5363   -1.1324    0.0000 C   0  0  0  0  0  0  0  0  0  0  0  0
  -14.5720   -2.8020    0.0000 C   0  0  0  0  0  0  0  0  0  0  0  0
    2.3588   -1.6464    0.0000 C   0  0  0  0  0  0  0  0  0  0  0  0
    1.3549   -2.7609    0.0000 H   0  0  0  0  0  0  0  0  0  0  0  0
    3.4733   -2.6502    0.0000 H   0  0  0  0  0  0  0  0  0  0  0  0
    3.6839   -0.1751    0.0000 H   0  0  0  0  0  0  0  0  0  0  0  0
    3.0721    1.0039    0.0000 C   0  0  0  0  0  0  0  0  0  0  0  0
    4.3972   -0.4673    0.0000 H   0  0  0  0  0  0  0  0  0  0  0  0
    4.1866    2.0077    0.0000 H   0  0  0  0  0  0  0  0  0  0  0  0
    2.0682    2.1184    0.0000 H   0  0  0  0  0  0  0  0  0  0  0  0
   -5.2999   -0.2437    0.0000 C   0  0  0  0  0  0  0  0  0  0  0  0
  -10.1616   -0.6427    0.0000 C   0  0  0  0  0  0  0  0  0  0  0  0
   -7.2282   -0.2440    0.0000 C   0  0  0  0  0  0  0  0  0  0  0  0
  -12.7609    0.8586    0.0000 C   0  0  0  0  0  0  0  0  0  0  0  0
  -11.4591   -4.3946    0.0000 C   0  0  0  0  0  0  0  0  0  0  0  0
  -12.7587   -3.6439    0.0000 C   0  0  0  0  0  0  0  0  0  0  0  0
   -8.8619   -1.3933    0.0000 C   0  0  0  0  0  0  0  0  0  0  0  0
  -14.0598    0.1084    0.0000 C   0  0  0  0  0  0  0  0  0  0  0  0
  -11.4612    0.1079    0.0000 C   0  0  0  0  0  0  0  0  0  0  0  0
   -7.5628   -2.1431    0.0000 C   0  0  0  0  0  0  0  0  0  0  0  0
  -10.1601   -3.6444    0.0000 C   0  0  0  0  0  0  0  0  0  0  0  0
   -2.3658    0.8575    0.0000 C   0  0  0  0  0  0  0  0  0  0  0  0
  -10.1609   -2.1435    0.0000 C   0  0  0  0  0  0  0  0  0  0  0  0
  -12.7594   -2.1431    0.0000 C   0  0  0  0  0  0  0  0  0  0  0  0
   -2.3658   -2.1425    0.0000 C   0  0  0  0  0  0  0  0  0  0  0  0
   -1.0658    0.1075    0.0000 C   0  0  0  0  0  0  0  0  0  0  0  0
   -1.0658   -1.3925    0.0000 C   0  0  0  0  0  0  0  0  0  0  0  0
   -3.6658   -1.3925    0.0000 C   0  0  0  0  0  0  0  0  0  0  0  0
  -14.0591   -1.3925    0.0000 C   0  0  0  0  0  0  0  0  0  0  0  0
    1.2442   -0.6425    0.0000 C   0  0  0  0  0  0  0  0  0  0  0  0
   -6.2639   -1.3929    0.0000 C   0  0  0  0  0  0  0  0  0  0  0  0
  -11.4605   -1.3929    0.0000 C   0  0  0  0  0  0  0  0  0  0  0  0
   -2.3658   -3.6425    0.0000 O   0  0  0  0  0  0  0  0  0  0  0  0
   -3.6658    0.1075    0.0000 O   0  0  0  0  0  0  0  0  0  0  0  0
    0.3642    0.5675    0.0000 O   0  0  0  0  0  0  0  0  0  0  0  0
    0.3642   -1.8525    0.0000 O   0  0  0  0  0  0  0  0  0  0  0  0
   -4.9647   -2.1427    0.0000 O   0  0  0  0  0  0  0  0  0  0  0  0
  6  7  1  0
  6  8  1  0
  6  9  1  0
 10 11  1  0
 10 12  1  0
 10 13  1  0
 16  1  2  0
 19 18  1  0
 21 17  1  0
 22 17  1  0
 23 20  1  0
 24  2  1  0
 24 18  2  0
 25  3  1  6
 26 20  1  1
 26 24  1  0
 27 19  1  1
 29 25  1  0
 30 28  1  0
 30 29  1  0
 31 28  1  0
 32  4  1  0
 32  5  1  0
 32 21  1  0
 32 27  1  0
 33  6  1  0
 33 10  1  0
 34 14  1  1
 34 16  1  0
 34 23  1  0
 35 15  1  1
 35 22  1  0
 35 26  1  0
 35 27  1  0
 28 36  1  1
 37 25  1  0
 37 31  1  0
 29 38  1  6
 38 33  1  0
 30 39  1  6
 39 33  1  0
 31 40  1  6
 34 40  1  0
M  ISO  6   7   2   8   2   9   2  11   2  12   2  13   2
M  END
>  <NAME>  (3672) 
LABDA-7,14-DIEN-13(R)-OL-BETA-D-FUCOPYRANOSIDE 3,4-O-ISOPROPYLIDENE DERIVATIVE (3,3,3,4,4,4-D6)

>  <SYNONYMS>  (3672) 
LABDA-7,14-DIEN-13(R)-OL-BETA-D-FUCOPYRANOSIDE 3,4-O-HEXADEUTEROISOPROPYLIDENE DERIVATIVE

>  <SPECTRUM TYPE>  (3672) 
MS1

>  <INSTRUMENT TYPE>  (3672) 
EI-B

>  <INSTRUMENT>  (3672) 
HITACHI RMU-6L

>  <ION MODE>  (3672) 
P

>  <INCHIKEY>  (3672) 
XXWIHOYJEBPTAM-QEZZSVBVSA-N

>  <FORMULA>  (3672) 
C29H48O5

>  <EXACT MASS>  (3672) 
482.387835112

>  <MW>  (3672) 
482

>  <ID>  (3672) 
JP006323

>  <CONTRIBUTOR>  (3672) 
University of Tokyo Team, {Faculty of Engineering, University of Tokyo

>  <COMMENT>  (3672) 
SMILES=C(C=4C)(C(C3)(C)C([H])(CC([H])4)C(CC3)(C)C)(CCC(C=C)(OC(C([H])(O)2)([H])OC([H])(C)C([H])(C12[H])OC(O1)(C([2H])([2H])[2H])C([2H])([2H])[2H])C)[H]
InChI=InChI=1S/C29H48O5/c1-10-28(8,34-25-22(30)24-23(19(3)31-25)32-27(6,7)33-24)17-14-20-18(2)12-13-21-26(4,5)15-11-16-29(20,21)9/h10,12,19-25,30H,1,11,13-17H2,2-9H3/t19-,20+,21+,22-,23+,24-,25+,28+,29-/m1/s1/i6D3,7D3
computed SMILES=[H]C([H])([H])C1(OC2C(OC(OC(C=C)(C)CCC3C(=CCC4C(C)(C)CCCC34C)C)C(O)C2O1)C)C([H])([H])[H]
accession=JP006323
date=2016.01.19 (Created 2008.10.21, modified 2011.05.06)
author=EGUCHI S, FAC. OF SCIENCE, HIROSHIMA UNIV.
license=CC BY-NC-SA
exact mass=476.35017
ionization energy=70 eV
ion type=[M]+*
computed spectral entropy=4.560851267933847
computed normalized entropy=0.8666387539873245
SPLASH=splash10-0ktf-9820000000-2bfc11cc782e55ee9c34
submitter=submitter = University of Tokyo Team (Faculty of Engineering, University of Tokyo)
MoNA Rating=3.75

>  <NUM PEAKS>  (3672) 
193

>  <MASS SPECTRAL PEAKS>  (3672) 
40 1.5
41 74
42 10
43 2.29
44 5
45 4
46 6.5
47 0.45
48 3.4
49 5.5
50 4.2
51 0.65
52 7
53 21
54 11
55 5.15
56 10.5
57 32
58 6.5
59 1.05
60 6.5
61 6.5
62 3.5
63 0.55
64 4
65 38.9
66 6.5
67 2.1
68 6
69 41
70 10
71 2.8
72 6.5
73 19
74 6
75 0.55
76 4
77 17.2
78 5.5
79 2.28
80 18.5
81 34.7
82 12
83 0.4
84 19.5
85 11.5
86 3.5
87 0.8
88 10.7
89 3.5
90 3
91 1.28
92 7.2
93 27.5
94 11.5
95 3.15
96 10.5
97 14
98 5
99 1.45
100 6.5
101 4
102 3.5
103 0.2
104 2.8
105 16.5
106 7
107 1.4
108 10.5
109 38.7
110 10
111 0.61
112 2.5
113 3.1
114 2
115 0.6
116 5.5
117 3
118 24
119 1.05
120 6.5
121 3.2
122 5.5
123 1.1
124 5.5
125 3
126 6.5
127 0.4
128 21
129 9
130 12.7
131 0.64
132 18.4
133 10.5
134 26.7
135 1.05
136 5.5
137 4.5
138 3
139 0.15
140 1
141 6.1
142 3.5
143 0.45
144 7.8
145 12.5
146 6
147 1.05
148 13
149 11.5
150 5.5
151 0.35
152 2
153 2
154 1
155 0.25
156 3
157 3.5
158 5.5
160 0.25
161 12
162 8
163 13.5
164 0.45
165 6
166 4
167 2
168 0.38
169 2.8
170 3
171 4.1
172 0.15
173 5
174 4
175 8.7
176 0.55
177 6.8
178 3.5
179 3.5
180 0.25
181 3.5
182 1.5
183 3
184 0.3
185 3.5
186 4.5
187 6
188 0.42
189 16
190 10.5
191 30.5
192 0.65
193 10.5
194 3
204 99.99
205 1.35
206 4
207 6.5
208 4.5
209 0.75
210 2.5
215 4.5
216 3.5
217 0.4
218 3.5
219 5.8
220 5.8
221 0.45
255 3.5
256 2.5
257 6
258 0.25
259 2.5
260 2
261 1.5
262 0.65
263 2.5
264 1.5
269 3.1
270 0.4
271 5.5
272 6.5
273 2
289 0.09
290 0.3
331 0.5
340 0.3
396 0.05
430 0.3
449 0.2
464 2.2
465 0.03
482 0.3

>  <PREDICTED SPECTRUM>  (3672) 
18 13
25 27
26 94
27 231
28 182
29 291
30 119
31 162
33 24
37 12
38 49
39 262
40 145
41 698
42 284
43 999
44 290
45 314
46 135
47 143
48 69
49 37
50 107
51 160
52 144
53 319
54 236
55 768
56 345
57 534
58 213
59 377
60 261
61 157
62 34
63 120
64 103
65 206
66 172
67 511
68 329
69 766
70 269
71 572
72 345
73 418
74 200
75 291
76 131
77 389
78 212
79 456
80 278
81 633
82 347
83 617
84 295
85 513
86 224
87 201
88 161
89 174
90 69
91 442
92 224
93 495
94 216
95 638
96 327
97 562
98 257
99 332
100 247
101 196
102 126
103 205
104 135
105 450
106 229
107 463
108 192
109 712
110 237
111 363
112 210
113 461
114 200
115 476
116 187
117 180
118 104
119 448
120 194
121 454
122 333
123 332
124 201
125 199
126 217
127 422
128 229
129 278
130 150
131 282
132 77
133 434
134 233
135 386
136 196
137 323
138 114
139 209
140 116
141 328
142 189
143 410
144 212
145 384
146 262
147 262
148 215
149 307
150 244
151 313
152 131
153 226
154 137
155 228
156 134
157 263
158 225
159 338
160 127
161 303
162 147
163 81
164 78
165 126
166 71
167 193
168 133
169 192
170 158
171 207
172 213
173 258
174 175
175 209
176 154
177 344
178 158
179 228
180 129
181 173
182 120
183 187
184 145
185 167
186 112
187 350
188 214
189 414
190 190
191 158
192 136
193 230
194 102
195 160
196 67
197 174
198 77
199 226
200 125
201 221
202 150
203 262
204 498
205 503
206 98
207 256
208 189
209 244
210 109
211 152
212 57
213 153
214 78
215 245
216 174
217 321
218 185
219 131
220 54
221 170
222 87
223 220
224 81
225 164
226 60
227 226
228 108
229 153
230 60
231 156
232 128
233 166
234 89
235 99
236 33
237 70
238 40
239 134
240 83
241 162
242 92
243 193
244 69
245 133
246 67
247 60
248 91
249 110
250 134
251 122
253 64
254 23
255 106
257 224
258 95
259 136
260 69
261 132
262 85
263 98
264 59
265 108
266 14
267 89
268 99
269 184
270 74
271 70
272 18
273 148
274 99
275 34
276 55
277 76
278 7
279 17
283 15
285 61
286 42
287 41
288 72
289 149
290 81
291 111
292 17
293 116
294 8
296 39
297 104
299 1
301 35
302 105
303 87
304 59
305 113
306 79
307 122
308 79
309 94
310 66
311 70
312 22
313 77
314 16
315 52
316 15
319 155
320 42
321 177
322 22
323 112
324 91
325 118
327 30
328 7
329 4
330 28
331 48
332 37
333 4
334 25
335 49
336 62
337 100
338 97
339 130
340 50
341 84
342 50
343 8
349 88
350 73
353 73
355 84
357 211
358 14
359 10
361 10
364 29
367 1
369 0
370 0
375 42
377 13
378 26
380 24
383 65
385 13
391 16
394 23
395 47
403 66
404 0
408 44
409 31
411 19
415 7
417 20
434 34
438 4
452 1
455 23
464 56
465 2

$$$$

     RDKit          2D

 34 37  0  0  1  0  0  0  0  0999 V2000
  -15.3018    0.7521    0.0000 C   0  0  0  0  0  0  0  0  0  0  0  0
  -12.7037   -0.7479    0.0000 C   0  0  0  0  0  0  0  0  0  0  0  0
  -10.1063    3.7527    0.0000 C   0  0  0  0  0  0  0  0  0  0  0  0
   -1.0100    3.0000    0.0000 C   0  0  0  0  0  0  0  0  0  0  0  0
   -3.4313    0.4901    0.0000 C   0  0  0  0  0  0  0  0  0  0  0  0
   -4.3954    2.1599    0.0000 C   0  0  0  0  0  0  0  0  0  0  0  0
    3.7146   -1.0039    0.0000 C   0  0  0  0  0  0  0  0  0  0  0  0
    3.7146    1.0039    0.0000 C   0  0  0  0  0  0  0  0  0  0  0  0
   -8.8062    0.0012    0.0000 C   0  0  0  0  0  0  0  0  0  0  0  0
  -14.0028    1.5021    0.0000 C   0  0  0  0  0  0  0  0  0  0  0  0
  -11.4047    1.5021    0.0000 C   0  0  0  0  0  0  0  0  0  0  0  0
   -7.5081    3.7529    0.0000 C   0  0  0  0  0  0  0  0  0  0  0  0
  -10.1057    0.7521    0.0000 C   0  0  0  0  0  0  0  0  0  0  0  0
   -6.2086    3.0021    0.0000 C   0  0  0  0  0  0  0  0  0  0  0  0
   -6.2071   -1.5004    0.0000 C   0  0  0  0  0  0  0  0  0  0  0  0
   -7.5066   -0.7496    0.0000 C   0  0  0  0  0  0  0  0  0  0  0  0
  -12.7037    0.7521    0.0000 C   0  0  0  0  0  0  0  0  0  0  0  0
   -8.8071    3.0029    0.0000 C   0  0  0  0  0  0  0  0  0  0  0  0
   -1.0100    1.5000    0.0000 C   0  0  0  0  0  0  0  0  0  0  0  0
   -8.8066    1.5021    0.0000 C   0  0  0  0  0  0  0  0  0  0  0  0
   -6.2081    1.5012    0.0000 C   0  0  0  0  0  0  0  0  0  0  0  0
   -4.9081   -0.7504    0.0000 C   0  0  0  0  0  0  0  0  0  0  0  0
   -1.0100   -1.5000    0.0000 C   0  0  0  0  0  0  0  0  0  0  0  0
    0.2900    0.7500    0.0000 C   0  0  0  0  0  0  0  0  0  0  0  0
    0.2900   -0.7500    0.0000 C   0  0  0  0  0  0  0  0  0  0  0  0
   -2.3100   -0.7500    0.0000 C   0  0  0  0  0  0  0  0  0  0  0  0
   -4.9086    0.7504    0.0000 C   0  0  0  0  0  0  0  0  0  0  0  0
    2.6000    0.0000    0.0000 C   0  0  0  0  0  0  0  0  0  0  0  0
   -7.5071    0.7512    0.0000 C   0  0  0  0  0  0  0  0  0  0  0  0
   -1.0100   -3.0000    0.0000 O   0  0  0  0  0  0  0  0  0  0  0  0
   -2.3100    0.7500    0.0000 O   0  0  0  0  0  0  0  0  0  0  0  0
   -3.6089   -1.5002    0.0000 O   0  0  0  0  0  0  0  0  0  0  0  0
    1.7200    1.2100    0.0000 O   0  0  0  0  0  0  0  0  0  0  0  0
    1.7200   -1.2100    0.0000 O   0  0  0  0  0  0  0  0  0  0  0  0
 10  1  2  0
 13 11  1  0
 14 12  1  0
 16 15  1  0
 17  2  1  6
 17 10  1  0
 17 11  1  0
 18  3  1  0
 18 12  2  0
 19  4  1  6
 20 13  1  1
 20 18  1  0
 21 14  1  1
 22 15  1  0
 24 19  1  0
 25 23  1  0
 25 24  1  0
 26 23  1  0
 27  5  1  0
 27  6  1  0
 27 21  1  0
 27 22  1  0
 28  7  1  0
 28  8  1  0
 29  9  1  1
 29 16  1  0
 29 20  1  0
 29 21  1  0
 23 30  1  1
 31 19  1  0
 31 26  1  0
 32 22  1  0
 26 32  1  6
 24 33  1  6
 33 28  1  0
 25 34  1  6
 34 28  1  0
M  END
>  <NAME>  (3673) 
LABDA-7,14-DIEN-13(R)-OL-BETA-D-FUCOPYRANOSIDE 3,4-O-ISOPROPYLIDENE DERIVATIVE

>  <SYNONYMS>  (3673) 


>  <SPECTRUM TYPE>  (3673) 
MS1

>  <INSTRUMENT TYPE>  (3673) 
EI-B

>  <INSTRUMENT>  (3673) 
HITACHI RMU-6L

>  <ION MODE>  (3673) 
P

>  <INCHIKEY>  (3673) 
IEIKJOXKWGQASR-IGPZGSHMSA-N

>  <FORMULA>  (3673) 
C29H48O5

>  <EXACT MASS>  (3673) 
476.35017463599996

>  <MW>  (3673) 
476

>  <ID>  (3673) 
JP006321

>  <CONTRIBUTOR>  (3673) 
University of Tokyo Team, {Faculty of Engineering, University of Tokyo

>  <COMMENT>  (3673) 
SMILES=CC(C)(C2OC([H])(O4)C([H])(O)C(C(C([H])(C)4)3[H])(OC(C)(C)O3)[H])C([H])(C1(C)CC2)CC([H])=C(C)C(CCC([H])(C)C=C)1[H]
InChI=InChI=1S/C29H48O5/c1-10-17(2)11-13-20-18(3)12-14-21-27(5,6)22(15-16-29(20,21)9)32-26-23(30)25-24(19(4)31-26)33-28(7,8)34-25/h10,12,17,19-26,30H,1,11,13-16H2,2-9H3/t17-,19-,20+,21+,22?,23-,24+,25-,26+,29-/m1/s1
computed SMILES=OC1C(OC(C)C2OC(OC12)(C)C)OC3CCC4(C)C(C(=CCC4C3(C)C)C)CCC(C=C)C
accession=JP006321
date=2016.01.19 (Created 2008.10.21, modified 2011.05.06)
author=EGUCHI S, FAC. OF SCIENCE, HIROSHIMA UNIV.
license=CC BY-NC-SA
exact mass=476.35017
ionization energy=70 eV
ion type=[M]+*
computed spectral entropy=3.886554554044276
computed normalized entropy=0.8076487239532397
SPLASH=splash10-0pb9-9630000000-fe16923f18c541ad8218
submitter=submitter = University of Tokyo Team (Faculty of Engineering, University of Tokyo)
MoNA Rating=3.75

>  <NUM PEAKS>  (3673) 
123

>  <MASS SPECTRAL PEAKS>  (3673) 
40 1
41 21.2
42 3.2
43 5
44 1.5
45 3.5
52 1
53 0.55
54 1.1
55 28.4
56 3
57 1.85
58 2.5
59 40
60 3.4
61 0.25
65 2.5
66 1.5
67 8.6
68 0.64
69 18.8
70 2
71 13
72 0.15
73 7
74 1
77 5.5
78 0.15
79 8.9
80 10.5
81 35.5
82 0.45
83 8.7
84 2.7
85 5.5
86 0.2
87 3.5
91 7
92 3.5
93 1.65
94 5.5
95 15.5
96 3.5
98 1.02
99 13
100 4
101 5
102 0.11
103 1.1
104 1
105 8.4
106 0.35
107 11
108 13.4
109 33.4
110 0.32
111 3
112 1
113 3.5
115 0.35
116 1.5
117 2
118 1.5
119 1.07
120 6
121 11.2
122 8.5
123 0.68
124 3.5
125 1.5
127 2.5
128 0.35
129 13.5
130 1.5
143 1
144 0.15
145 5.5
146 1
147 4
148 0.7
149 5.5
150 1.5
151 1.5
157 1.05
158 1.5
159 2.4
160 1.4
161 0.95
162 3.5
163 4
164 1.5
171 0.12
173 1.5
175 2.5
176 1.5
177 0.3
187 8.5
188 1.5
189 9
190 0.25
191 13
192 3.5
193 1.5
201 0.3
202 1.5
203 3.5
204 99.99
205 1.85
206 3.9
257 3.2
258 1
271 0.4
272 5.5
273 4
274 1.2
289 0.07
331 0.4
337 0.2
390 0.3
443 0.02
461 2
467 0.5
476 0.1

>  <PREDICTED SPECTRUM>  (3673) 
27 12
29 75
30 41
31 4
39 114
40 33
41 358
42 131
43 311
44 143
45 220
46 54
47 12
50 0
51 62
52 102
53 157
54 118
55 419
56 90
57 298
58 188
59 440
60 123
61 95
62 7
63 37
64 0
65 98
66 73
67 255
68 158
69 390
70 69
71 300
72 120
73 298
74 86
75 59
77 200
78 102
79 283
80 231
81 473
82 141
83 217
84 111
85 190
86 54
87 92
88 46
89 75
90 10
91 143
92 165
93 377
94 199
95 382
96 119
97 179
98 51
99 183
100 124
101 268
102 136
103 108
104 35
105 79
106 86
107 387
108 274
109 521
110 40
111 133
112 79
113 168
114 59
115 97
116 136
117 155
118 44
119 82
120 118
121 265
122 264
123 117
124 54
125 63
126 50
127 96
128 49
129 220
130 107
131 138
132 65
133 68
134 55
135 144
136 96
137 60
138 26
139 25
140 22
142 17
143 90
144 120
145 165
146 99
147 196
148 177
149 139
150 21
151 16
152 19
153 43
155 37
156 34
157 39
158 6
159 88
160 3
161 140
162 130
163 200
164 93
165 80
166 46
167 56
168 33
170 3
171 15
172 24
173 118
174 24
175 69
176 143
177 157
178 31
179 42
180 22
187 230
188 119
189 368
190 284
191 362
192 133
193 77
194 11
201 86
202 166
203 338
204 999
205 161
206 129
207 24
208 10
209 6
210 8
214 18
217 15
218 47
219 9
221 13
223 7
229 146
230 50
231 78
245 1
247 15
255 74
256 70
257 111
258 50
268 6
269 22
270 19
271 114
272 118
273 71
274 60
276 27
285 28
295 17
297 2
331 62
332 30
343 7
357 8
405 3
461 176

$$$$

     RDKit          2D

 34 37  0  0  1  0  0  0  0  0999 V2000
   -4.7504   -2.8614    0.0000 C   0  0  0  0  0  0  0  0  0  0  0  0
   -1.0092   -7.4998    0.0000 C   0  0  0  0  0  0  0  0  0  0  0  0
   -3.6089    1.5002    0.0000 C   0  0  0  0  0  0  0  0  0  0  0  0
   -7.1721  -11.6492    0.0000 C   0  0  0  0  0  0  0  0  0  0  0  0
   -5.2440  -11.6492    0.0000 C   0  0  0  0  0  0  0  0  0  0  0  0
    3.7146   -1.0039    0.0000 C   0  0  0  0  0  0  0  0  0  0  0  0
    3.7146    1.0039    0.0000 C   0  0  0  0  0  0  0  0  0  0  0  0
   -2.8221   -2.3405    0.0000 C   0  0  0  0  0  0  0  0  0  0  0  0
   -4.9081   -6.7500    0.0000 C   0  0  0  0  0  0  0  0  0  0  0  0
   -3.7862   -4.0105    0.0000 C   0  0  0  0  0  0  0  0  0  0  0  0
   -7.5081   -8.2500    0.0000 C   0  0  0  0  0  0  0  0  0  0  0  0
   -2.3081   -9.7500    0.0000 C   0  0  0  0  0  0  0  0  0  0  0  0
   -3.6081  -10.5000    0.0000 C   0  0  0  0  0  0  0  0  0  0  0  0
   -3.6081   -6.0000    0.0000 C   0  0  0  0  0  0  0  0  0  0  0  0
   -7.5081   -9.7500    0.0000 C   0  0  0  0  0  0  0  0  0  0  0  0
   -6.2081   -7.5000    0.0000 C   0  0  0  0  0  0  0  0  0  0  0  0
   -2.3090   -5.2500    0.0000 C   0  0  0  0  0  0  0  0  0  0  0  0
   -2.3081   -8.2500    0.0000 C   0  0  0  0  0  0  0  0  0  0  0  0
   -2.3100    0.7500    0.0000 C   0  0  0  0  0  0  0  0  0  0  0  0
   -3.6081   -7.5000    0.0000 C   0  0  0  0  0  0  0  0  0  0  0  0
   -4.9081   -9.7500    0.0000 C   0  0  0  0  0  0  0  0  0  0  0  0
   -1.0100    1.5000    0.0000 C   0  0  0  0  0  0  0  0  0  0  0  0
    0.2900    0.7500    0.0000 C   0  0  0  0  0  0  0  0  0  0  0  0
    0.2900   -0.7500    0.0000 C   0  0  0  0  0  0  0  0  0  0  0  0
   -1.0100   -1.5000    0.0000 C   0  0  0  0  0  0  0  0  0  0  0  0
   -6.2081  -10.5000    0.0000 C   0  0  0  0  0  0  0  0  0  0  0  0
    2.6000    0.0000    0.0000 C   0  0  0  0  0  0  0  0  0  0  0  0
   -2.3090   -3.7500    0.0000 C   0  0  0  0  0  0  0  0  0  0  0  0
   -4.9081   -8.2500    0.0000 C   0  0  0  0  0  0  0  0  0  0  0  0
   -1.0100    3.0000    0.0000 O   0  0  0  0  0  0  0  0  0  0  0  0
   -2.3100   -0.7500    0.0000 O   0  0  0  0  0  0  0  0  0  0  0  0
    1.7200    1.2100    0.0000 O   0  0  0  0  0  0  0  0  0  0  0  0
    1.7200   -1.2100    0.0000 O   0  0  0  0  0  0  0  0  0  0  0  0
   -1.0100   -3.0000    0.0000 O   0  0  0  0  0  0  0  0  0  0  0  0
 10  1  2  0
 13 12  1  0
 15 11  1  0
 16 11  1  0
 17 14  1  0
 18  2  1  0
 18 12  2  0
 19  3  1  1
 20 14  1  1
 20 18  1  0
 21 13  1  1
 22 19  1  0
 23 22  1  0
 24 23  1  0
 25 24  1  0
 26  4  1  0
 26  5  1  0
 26 15  1  0
 26 21  1  0
 27  6  1  0
 27  7  1  0
 28  8  1  1
 28 10  1  0
 28 17  1  0
 29  9  1  1
 29 16  1  0
 29 20  1  0
 29 21  1  0
 22 30  1  6
 31 19  1  0
 31 25  1  0
 23 32  1  1
 32 27  1  0
 24 33  1  1
 33 27  1  0
 25 34  1  6
 28 34  1  0
M  END
>  <NAME>  (3674) 
LABDA-7,14-DIEN-13(R)-OL-ALPHA-L-RHAMNOPYRANOSIDE 2,3-O-ISOPROPYLIDENE DERIVATIVE

>  <SYNONYMS>  (3674) 


>  <SPECTRUM TYPE>  (3674) 
MS1

>  <INSTRUMENT TYPE>  (3674) 
EI-B

>  <INSTRUMENT>  (3674) 
HITACHI RMU-6L

>  <ION MODE>  (3674) 
P

>  <INCHIKEY>  (3674) 
CYVZURJWSZNEAQ-QEUCPSMUSA-N

>  <FORMULA>  (3674) 
C29H48O5

>  <EXACT MASS>  (3674) 
476.35017463599996

>  <MW>  (3674) 
476

>  <ID>  (3674) 
JP006320

>  <CONTRIBUTOR>  (3674) 
University of Tokyo Team, {Faculty of Engineering, University of Tokyo

>  <COMMENT>  (3674) 
SMILES=C(C=4C)(C(C3)(C)C([H])(CC([H])4)C(CC3)(C)C)([H])CCC(C=C)(OC([H])(O2)C(O1)(C(C([H])(O)C2([H])C)(OC(C)(C)1)[H])[H])C
InChI=InChI=1S/C29H48O5/c1-10-28(8,34-25-24-23(22(30)19(3)31-25)32-27(6,7)33-24)17-14-20-18(2)12-13-21-26(4,5)15-11-16-29(20,21)9/h10,12,19-25,30H,1,11,13-17H2,2-9H3/t19-,20-,21-,22-,23+,24+,25-,28-,29+/m0/s1
computed SMILES=OC1C(OC(OC(C=C)(C)CCC2C(=CCC3C(C)(C)CCCC23C)C)C4OC(OC14)(C)C)C
accession=JP006320
date=2016.01.19 (Created 2008.10.21, modified 2011.05.06)
author=EGUCHI S, FAC. OF SCIENCE, HIROSHIMA UNIV.
license=CC BY-NC-SA
exact mass=476.35017
ionization energy=70 eV
ion type=[M]+*
computed spectral entropy=4.3591465129765075
computed normalized entropy=0.8376519814629861
SPLASH=splash10-0pb9-9720000000-fd352cfd0c5a76fe8d5a
submitter=submitter = University of Tokyo Team (Faculty of Engineering, University of Tokyo)
MoNA Rating=3.75

>  <NUM PEAKS>  (3674) 
182

>  <MASS SPECTRAL PEAKS>  (3674) 
40 4
41 54.3
42 6.8
43 8.83
44 4.5
45 9.5
46 1.5
47 0.1
51 3.1
52 1.5
53 11.6
54 0.47
55 51.5
56 8.5
57 27.7
58 0.9
59 61.1
60 5.5
61 3.5
62 0.15
63 1.2
64 1.8
65 4.5
66 0.25
67 15.6
68 10.5
69 41.6
70 0.7
71 23.5
72 3.8
73 9.4
74 0.26
75 1.5
76 1
77 11.7
78 0.37
79 18.5
80 20.5
81 58.5
82 1.11
83 22.8
84 10.9
85 22.8
86 0.24
87 2.4
88 1.2
89 1.7
90 0.15
91 15.6
92 6.4
93 28.9
94 0.94
95 17.3
96 6.1
97 13.2
98 0.34
99 11.9
100 19.5
101 10
102 0.21
103 3.1
104 7
105 16.3
106 0.7
107 22.7
108 16.5
109 49
110 0.7
111 7
112 2.8
113 24.1
114 0.7
115 7
116 2
117 4.5
118 0.25
119 19.5
120 9.5
121 20.8
122 1.18
123 12.6
124 9.6
125 4.4
126 0.18
127 4.8
128 4.8
129 23.7
130 0.34
131 4.4
132 1.6
133 14
134 0.84
135 18.5
136 6.9
137 8.2
138 0.22
139 2.1
140 1.1
141 2.1
142 0.46
143 2.5
144 1.8
145 20.8
146 0.42
147 8.3
148 10.5
149 10.9
150 0.27
151 3.6
152 2
153 1.8
154 0.15
155 2.2
156 1.2
157 7
158 0.22
159 4.2
160 2.1
161 16.4
162 0.45
163 8.5
164 2.1
165 2.1
166 0.17
167 3.8
168 1.4
169 1.9
170 0.19
171 4.6
172 1.9
173 3.2
174 0.15
175 5.1
176 3.4
177 6.9
178 0.22
179 1.5
186 4.5
187 16
188 0.41
189 13.5
190 4.5
191 15.7
192 0.45
193 1.8
201 7.1
202 2.2
203 1.07
204 99.99
205 23
215 14
216 0.25
217 2.1
218 3.2
219 1.8
220 0.24
229 5
249 1.8
257 4
258 0.18
259 1
271 9.5
272 5.5
273 0.4
286 0.7
288 0.6
289 1.6
290 0.14
291 0.5
315 0.3
318 0.4
319 0.04
332 0.4
344 0.5
377 0.3
390 0.05
400 0.3
418 1.4
443 0.2
461 0.2
462 0.7
476 0.1

>  <PREDICTED SPECTRUM>  (3674) 
18 11
25 7
26 39
27 143
28 83
29 246
30 131
31 69
37 25
38 53
39 260
40 97
41 599
42 221
43 508
44 226
45 364
46 95
47 84
48 11
49 18
50 76
51 139
52 134
53 300
54 110
55 575
56 265
57 611
58 232
59 489
60 268
61 197
62 61
63 109
64 109
65 270
66 132
67 427
68 332
69 750
70 237
71 520
72 264
73 366
74 201
75 179
76 86
77 375
78 179
79 437
80 365
81 667
82 264
83 397
84 215
85 421
86 172
87 193
88 114
89 131
90 79
91 456
92 331
93 529
94 238
95 515
96 213
97 401
98 152
99 295
100 191
101 216
102 90
103 178
104 120
105 420
106 253
107 514
108 342
109 651
110 179
111 323
112 138
113 394
114 80
115 192
116 168
117 207
118 122
119 335
120 283
121 362
122 229
123 263
124 152
125 133
126 158
127 281
128 131
129 344
130 106
131 175
132 94
133 342
134 201
135 293
136 248
137 296
138 108
139 127
140 79
141 130
142 42
143 247
144 214
145 312
146 148
147 381
148 378
149 297
150 98
151 117
152 109
153 148
154 72
155 175
156 104
157 170
158 23
159 171
160 135
161 430
162 139
163 225
164 116
165 119
166 92
167 98
168 93
169 83
170 81
171 148
172 142
173 223
174 76
175 161
176 206
177 324
178 88
179 54
180 16
181 86
182 62
183 43
184 74
185 47
186 43
187 223
188 75
189 381
190 194
191 327
192 145
193 71
194 1
196 20
197 39
198 36
199 47
200 12
201 316
202 138
203 158
204 999
205 481
206 109
207 52
208 48
209 59
211 16
214 21
215 216
216 71
217 89
218 86
219 103
220 53
221 78
222 55
223 33
224 5
225 35
226 25
227 59
228 4
229 128
231 53
232 7
233 51
234 18
236 19
239 19
241 2
242 3
243 69
244 34
245 80
253 17
255 76
257 153
258 67
259 44
260 27
261 8
269 15
270 46
271 298
272 213
273 84
274 8
275 34
285 68
286 33
287 6
288 53
289 48
297 21
298 1
299 93
300 34
303 44
306 2
315 99
316 12
317 15
318 51
319 45
328 2
329 49
330 10
331 65
332 38
343 20
344 1
357 25
360 4
367 11
372 2
401 2
450 18
452 5
461 63
476 23

$$$$

     RDKit          2D

 31 33  0  0  1  0  0  0  0  0999 V2000
    3.8081    7.4000    0.0000 C   0  0  0  0  0  0  0  0  0  0  0  0
    3.8089    1.4002    0.0000 C   0  0  0  0  0  0  0  0  0  0  0  0
    0.1397   10.0280    0.0000 C   0  0  0  0  0  0  0  0  0  0  0  0
   -2.3541   -2.7492    0.0000 C   0  0  0  0  0  0  0  0  0  0  0  0
   -0.4259   -2.7492    0.0000 C   0  0  0  0  0  0  0  0  0  0  0  0
    1.9960    6.5595    0.0000 C   0  0  0  0  0  0  0  0  0  0  0  0
   -0.0900    2.1500    0.0000 C   0  0  0  0  0  0  0  0  0  0  0  0
    3.8081    5.9000    0.0000 C   0  0  0  0  0  0  0  0  0  0  0  0
   -2.6900    0.6500    0.0000 C   0  0  0  0  0  0  0  0  0  0  0  0
    2.5100   -0.8500    0.0000 C   0  0  0  0  0  0  0  0  0  0  0  0
    1.2100   -1.6000    0.0000 C   0  0  0  0  0  0  0  0  0  0  0  0
    1.2100    2.9000    0.0000 C   0  0  0  0  0  0  0  0  0  0  0  0
   -2.6900   -0.8500    0.0000 C   0  0  0  0  0  0  0  0  0  0  0  0
   -1.3900    1.4000    0.0000 C   0  0  0  0  0  0  0  0  0  0  0  0
    2.5090    3.6500    0.0000 C   0  0  0  0  0  0  0  0  0  0  0  0
    2.5100    0.6500    0.0000 C   0  0  0  0  0  0  0  0  0  0  0  0
   -0.3784    8.6203    0.0000 C   0  0  0  0  0  0  0  0  0  0  0  0
    1.2100    1.4000    0.0000 C   0  0  0  0  0  0  0  0  0  0  0  0
   -0.0900   -0.8500    0.0000 C   0  0  0  0  0  0  0  0  0  0  0  0
   -1.8467    8.3667    0.0000 C   0  0  0  0  0  0  0  0  0  0  0  0
   -2.3742    6.9563    0.0000 C   0  0  0  0  0  0  0  0  0  0  0  0
   -1.4006    5.7849    0.0000 C   0  0  0  0  0  0  0  0  0  0  0  0
    0.0676    6.0386    0.0000 C   0  0  0  0  0  0  0  0  0  0  0  0
   -1.3900   -1.6000    0.0000 C   0  0  0  0  0  0  0  0  0  0  0  0
    2.5090    5.1500    0.0000 C   0  0  0  0  0  0  0  0  0  0  0  0
   -0.0900    0.6500    0.0000 C   0  0  0  0  0  0  0  0  0  0  0  0
   -2.8037    9.5217    0.0000 O   0  0  0  0  0  0  0  0  0  0  0  0
   -3.8532    6.7058    0.0000 O   0  0  0  0  0  0  0  0  0  0  0  0
   -1.9193    4.3775    0.0000 O   0  0  0  0  0  0  0  0  0  0  0  0
    0.5820    7.4670    0.0000 O   0  0  0  0  0  0  0  0  0  0  0  0
    1.0318    4.8895    0.0000 O   0  0  0  0  0  0  0  0  0  0  0  0
  8  1  2  0
 11 10  1  0
 13  9  1  0
 14  9  1  0
 15 12  1  0
 16  2  1  0
 16 10  2  0
 17  3  1  0
 18 12  1  1
 18 16  1  0
 19 11  1  1
 20 17  1  0
 21 20  1  0
 22 21  1  0
 23 22  1  0
 24  4  1  0
 24  5  1  0
 24 13  1  0
 24 19  1  0
 25  6  1  6
 25  8  1  0
 25 15  1  0
 26  7  1  1
 26 14  1  0
 26 18  1  0
 26 19  1  0
 20 27  1  6
 21 28  1  6
 29 22  1  0
 30 17  1  0
 30 23  1  0
 23 31  1  1
 25 31  1  0
M  END
>  <NAME>  (3675) 
LABDA-7,14-DIEN-13(R)-OL-ALPHA-L-6-DEOXYIDOPYRANOSIDE

>  <SYNONYMS>  (3675) 


>  <SPECTRUM TYPE>  (3675) 
MS1

>  <INSTRUMENT TYPE>  (3675) 
EI-B

>  <INSTRUMENT>  (3675) 
HITACHI RMU-6L

>  <ION MODE>  (3675) 
P

>  <INCHIKEY>  (3675) 
SHBMAOBNYQEHHP-NBNQVVCBSA-N

>  <FORMULA>  (3675) 
C26H44O5

>  <EXACT MASS>  (3675) 
436.31887450799996

>  <MW>  (3675) 
436

>  <ID>  (3675) 
JP006319

>  <CONTRIBUTOR>  (3675) 
University of Tokyo Team, {Faculty of Engineering, University of Tokyo

>  <COMMENT>  (3675) 
SMILES=CC(C)(C3)C([H])(C(C)1CC3)CC(=C(C([H])(CCC(OC([H])(C([H])(O)2)OC([H])(C)C([H])(O)C([H])(O)2)(C)C=C)1)C)[H]
InChI=InChI=1S/C26H44O5/c1-8-25(6,31-23-22(29)21(28)20(27)17(3)30-23)15-12-18-16(2)10-11-19-24(4,5)13-9-14-26(18,19)7/h8,10,17-23,27-29H,1,9,11-15H2,2-7H3/t17?,18-,19-,20+,21+,22?,23-,25-,26+/m0/s1
computed SMILES=OC1C(OC(C)C(O)C1O)OC(C=C)(C)CCC2C(=CCC3C(C)(C)CCCC23C)C
accession=JP006319
date=2016.01.19 (Created 2008.10.21, modified 2011.05.06)
author=EGUCHI S, FAC. OF SCIENCE, HIROSHIMA UNIV.
license=CC BY-NC-SA
exact mass=436.31887
ionization energy=70 eV
ion type=[M]+*
computed spectral entropy=4.597748774462405
computed normalized entropy=0.8531615471035786
SPLASH=splash10-0pxv-9620000000-1479872e01cf3a1ceee5
submitter=submitter = University of Tokyo Team (Faculty of Engineering, University of Tokyo)
MoNA Rating=3.75

>  <NUM PEAKS>  (3675) 
219

>  <MASS SPECTRAL PEAKS>  (3675) 
40 7.5
41 42
42 19.5
43 5.2
44 24
45 58.5
46 14
47 1.3
48 6
49 5
50 2.8
51 0.55
52 3.5
53 25.5
54 8.5
55 7.55
56 14.5
57 50
58 23.5
59 1.65
60 55.5
61 18
62 1.5
63 0.3
64 1.5
65 10.5
66 4.5
67 3.55
68 19.5
69 81
70 14
71 5.1
72 12.5
73 52.5
74 11.5
75 2.15
76 59
77 20.5
78 30.5
79 1.05
80 32
81 6
82 13.5
83 0.55
84 1.5
85 1.7
86 6.5
87 1.35
88 5
89 6
90 2
91 2.8
92 9.5
93 43
94 17
95 5.55
96 13
97 18
98 12
99 1.4
100 7.5
101 5.5
102 5.5
103 0.85
104 3.5
105 28
106 11.5
107 3.55
108 25.5
109 66
110 14
111 1.65
112 9
113 5.5
114 2.5
115 0.85
116 3
117 15
118 5
119 3.55
120 12
121 7.5
122 6.5
123 0.65
124 13
125 3.5
126 8.3
127 0.45
128 7.5
129 14
130 3
131 0.82
132 4.5
133 22.5
134 11.5
135 2.8
136 13
137 16.5
138 8.5
139 0.65
140 3.5
141 6
142 4
143 0.45
144 4.5
145 10.5
146 5.5
147 1.95
148 13.5
149 16.5
150 6
151 1.05
152 5
153 5
154 2.5
155 0.35
156 2
157 4.5
158 2.5
159 0.75
160 2.5
161 19.5
162 7
163 1.35
164 13
165 8
166 5
167 0.55
168 1.5
169 2.5
170 1.5
171 0.35
172 1.5
173 8.5
174 3
175 1
176 5
177 15
178 5.5
179 0.5
180 3
181 3
182 2
183 0.3
184 1.5
185 4.5
186 2
187 1.1
188 5.5
189 21.5
190 7.5
191 2.32
192 7.1
193 5.5
194 3.5
195 0.25
196 1.5
197 1.5
198 1
199 0.35
200 1.5
201 8.5
202 5
203 0.8
204 99.99
205 27.4
206 7
207 0.55
208 2.5
209 2
215 3.5
216 0.2
217 4.5
218 4.5
219 5
220 0.6
221 4.5
222 2.5
233 2
243 0.2
244 1
245 2.5
246 1
247 0.1
255 3.5
257 5.5
258 2.5
259 0.28
261 2.5
262 2.3
263 1.5
270 0.25
271 9.5
272 7.5
273 5
274 0.3
275 3
276 2
286 1
287 0.13
288 2.6
289 2.4
290 1.5
302 0.11
303 1
304 1.7
305 0.9
306 0.08
316 0.4
318 0.6
320 0.5
322 0.05
331 1.1
332 0.5
337 0.4
350 0.04
403 0.1
418 0.2
436 0.3

>  <PREDICTED SPECTRUM>  (3675) 
17 19
18 89
19 4
25 29
26 57
27 124
28 87
29 195
30 128
31 108
32 35
33 43
34 14
36 41
37 102
38 140
39 303
40 172
41 646
42 387
43 549
44 335
45 493
46 171
47 164
48 86
49 93
50 218
51 243
52 220
53 367
54 267
55 559
56 356
57 598
58 331
59 428
60 418
61 304
62 145
63 172
64 210
65 288
66 278
67 482
68 357
69 715
70 367
71 492
72 347
73 443
74 362
75 358
76 239
77 421
78 303
79 460
80 410
81 587
82 321
83 249
84 308
85 346
86 253
87 303
88 147
89 195
90 148
91 325
92 379
93 537
94 321
95 507
96 352
97 366
98 237
99 301
100 210
101 213
102 187
103 273
104 224
105 455
106 383
107 400
108 415
109 621
110 197
111 199
112 207
113 268
114 191
115 225
116 215
117 348
118 220
119 316
120 422
121 317
122 255
123 303
124 304
125 164
126 214
127 296
128 255
129 281
130 211
131 229
132 221
133 464
134 266
135 183
136 275
137 273
138 192
139 122
140 108
141 163
142 137
143 152
144 206
145 462
146 247
147 178
148 380
149 201
150 209
151 130
152 182
153 110
154 70
155 135
156 128
157 144
158 173
159 150
160 147
161 438
162 273
163 249
164 312
165 162
166 135
167 94
168 69
169 144
170 54
171 52
172 172
173 205
174 219
175 129
176 258
177 342
178 158
179 163
180 41
181 91
182 35
183 67
184 53
185 61
186 84
187 156
188 250
189 323
190 124
191 262
192 266
193 214
194 139
195 20
196 54
197 101
198 40
199 112
200 34
201 258
202 94
203 161
204 999
205 568
206 292
207 161
208 161
210 32
211 23
212 42
213 81
214 96
215 163
216 88
217 156
218 132
219 175
220 151
221 164
222 89
223 20
224 46
227 42
228 68
229 77
230 80
231 133
232 146
233 71
234 19
235 33
236 8
239 59
240 31
241 109
242 79
243 102
244 143
245 230
246 100
247 43
248 42
249 18
250 37
255 63
257 239
258 209
259 183
260 124
261 126
262 113
263 50
270 80
271 351
272 263
273 208
274 231
275 196
276 79
287 35
288 83
289 101
290 74
291 70
303 54
307 2
314 0
315 113
316 109
317 62
318 16
319 63
320 40
331 1
332 18
334 12
341 31
343 20
344 38
347 28
363 11
365 14
367 2
391 5

$$$$

     RDKit          2D

 31 33  0  0  1  0  0  0  0  0999 V2000
    3.8081    7.4000    0.0000 C   0  0  0  0  0  0  0  0  0  0  0  0
    3.8089    1.4002    0.0000 C   0  0  0  0  0  0  0  0  0  0  0  0
    0.1397   10.0280    0.0000 C   0  0  0  0  0  0  0  0  0  0  0  0
   -2.3541   -2.7492    0.0000 C   0  0  0  0  0  0  0  0  0  0  0  0
   -0.4259   -2.7492    0.0000 C   0  0  0  0  0  0  0  0  0  0  0  0
    1.9960    6.5595    0.0000 C   0  0  0  0  0  0  0  0  0  0  0  0
   -0.0900    2.1500    0.0000 C   0  0  0  0  0  0  0  0  0  0  0  0
    3.8081    5.9000    0.0000 C   0  0  0  0  0  0  0  0  0  0  0  0
   -2.6900    0.6500    0.0000 C   0  0  0  0  0  0  0  0  0  0  0  0
    2.5100   -0.8500    0.0000 C   0  0  0  0  0  0  0  0  0  0  0  0
    1.2100   -1.6000    0.0000 C   0  0  0  0  0  0  0  0  0  0  0  0
    1.2100    2.9000    0.0000 C   0  0  0  0  0  0  0  0  0  0  0  0
   -2.6900   -0.8500    0.0000 C   0  0  0  0  0  0  0  0  0  0  0  0
   -1.3900    1.4000    0.0000 C   0  0  0  0  0  0  0  0  0  0  0  0
    2.5090    3.6500    0.0000 C   0  0  0  0  0  0  0  0  0  0  0  0
    2.5100    0.6500    0.0000 C   0  0  0  0  0  0  0  0  0  0  0  0
   -0.3784    8.6203    0.0000 C   0  0  0  0  0  0  0  0  0  0  0  0
    1.2100    1.4000    0.0000 C   0  0  0  0  0  0  0  0  0  0  0  0
   -0.0900   -0.8500    0.0000 C   0  0  0  0  0  0  0  0  0  0  0  0
   -1.8467    8.3667    0.0000 C   0  0  0  0  0  0  0  0  0  0  0  0
   -2.3742    6.9563    0.0000 C   0  0  0  0  0  0  0  0  0  0  0  0
   -1.4006    5.7849    0.0000 C   0  0  0  0  0  0  0  0  0  0  0  0
    0.0676    6.0386    0.0000 C   0  0  0  0  0  0  0  0  0  0  0  0
   -1.3900   -1.6000    0.0000 C   0  0  0  0  0  0  0  0  0  0  0  0
    2.5090    5.1500    0.0000 C   0  0  0  0  0  0  0  0  0  0  0  0
   -0.0900    0.6500    0.0000 C   0  0  0  0  0  0  0  0  0  0  0  0
   -2.8037    9.5217    0.0000 O   0  0  0  0  0  0  0  0  0  0  0  0
   -3.8532    6.7058    0.0000 O   0  0  0  0  0  0  0  0  0  0  0  0
   -1.9193    4.3775    0.0000 O   0  0  0  0  0  0  0  0  0  0  0  0
    0.5820    7.4670    0.0000 O   0  0  0  0  0  0  0  0  0  0  0  0
    1.0318    4.8895    0.0000 O   0  0  0  0  0  0  0  0  0  0  0  0
  8  1  2  0
 11 10  1  0
 13  9  1  0
 14  9  1  0
 15 12  1  0
 16  2  1  0
 16 10  2  0
 17  3  1  0
 18 12  1  1
 18 16  1  0
 19 11  1  1
 20 17  1  0
 21 20  1  0
 22 21  1  0
 23 22  1  0
 24  4  1  0
 24  5  1  0
 24 13  1  0
 24 19  1  0
 25  6  1  6
 25  8  1  0
 25 15  1  0
 26  7  1  1
 26 14  1  0
 26 18  1  0
 26 19  1  0
 20 27  1  1
 21 28  1  6
 29 22  1  0
 30 17  1  0
 30 23  1  0
 23 31  1  1
 25 31  1  0
M  END
>  <NAME>  (3676) 
LABDA-7,14-DIEN-13(R)-OL-BETA-D-FUCOPYRANOSIDE

>  <SYNONYMS>  (3676) 


>  <SPECTRUM TYPE>  (3676) 
MS1

>  <INSTRUMENT TYPE>  (3676) 
EI-B

>  <INSTRUMENT>  (3676) 
HITACHI RMU-6L

>  <ION MODE>  (3676) 
P

>  <INCHIKEY>  (3676) 
SHBMAOBNYQEHHP-GOGYNWEZSA-N

>  <FORMULA>  (3676) 
C26H44O5

>  <EXACT MASS>  (3676) 
436.31887450799996

>  <MW>  (3676) 
436

>  <ID>  (3676) 
JP006318

>  <CONTRIBUTOR>  (3676) 
University of Tokyo Team, {Faculty of Engineering, University of Tokyo

>  <COMMENT>  (3676) 
SMILES=[H]C(C)(C([H])(O)3)OC([H])(C([H])(O)C3([H])O)OC(CCC([H])(C(C)12)C(=CCC([H])1C(CCC2)(C)C)C)(C)C=C
InChI=InChI=1S/C26H44O5/c1-8-25(6,31-23-22(29)21(28)20(27)17(3)30-23)15-12-18-16(2)10-11-19-24(4,5)13-9-14-26(18,19)7/h8,10,17-23,27-29H,1,9,11-15H2,2-7H3/t17?,18-,19-,20-,21+,22?,23-,25-,26+/m0/s1
computed SMILES=OC1C(OC(C)C(O)C1O)OC(C=C)(C)CCC2C(=CCC3C(C)(C)CCCC23C)C
accession=JP006318
date=2016.01.19 (Created 2008.10.21, modified 2011.05.06)
author=EGUCHI S, FAC. OF SCIENCE, HIROSHIMA UNIV.
license=CC BY-NC-SA
exact mass=436.31887
ionization energy=70 eV
ion type=[M]+*
computed spectral entropy=4.446275978870248
computed normalized entropy=0.8491025032706236
SPLASH=splash10-1003-9720000000-d1788184701c3bdfd367
submitter=submitter = University of Tokyo Team (Faculty of Engineering, University of Tokyo)
MoNA Rating=3.75

>  <NUM PEAKS>  (3676) 
188

>  <MASS SPECTRAL PEAKS>  (3676) 
40 3
41 53.1
42 7.3
43 4.55
44 5.5
45 33.3
46 2.1
47 0.15
48 2
49 1.5
50 1.5
51 0.5
52 2.1
53 11.4
54 5.1
55 4.55
56 11.6
57 47.7
58 5.5
59 3.35
60 13.5
61 6.7
62 1.5
63 0.27
64 2.1
65 5
66 2.8
67 1.7
68 6.5
69 33
70 17
71 3.35
72 5.3
73 20.5
74 17
75 1.65
76 5
77 5.5
78 20.5
79 1.65
80 16.5
81 36.4
82 10.7
83 1.99
84 6.7
85 9.5
86 2.5
87 0.41
88 2
89 2.5
90 1.5
91 1.6
92 5.4
93 23.2
94 8.5
95 2.55
96 7
97 3
98 4.5
99 0.18
100 2
101 2.7
102 2.2
103 0.4
104 5.5
105 14
106 5.2
107 1.65
108 14.3
109 33
110 5.2
111 0.7
112 8.3
113 10.3
114 2.1
115 0.42
116 8.4
117 10.5
118 2.1
119 2
120 8.5
121 19
122 11
123 1.1
124 5.5
125 5
126 2.5
127 0.45
128 4.3
129 5.5
130 2.5
131 0.45
132 3.5
133 14.5
134 8.5
135 0.2
136 7
137 7
138 2.7
139 0.25
140 1.5
141 4
142 2.5
143 0.28
144 2.2
145 5
146 2.1
147 0.5
148 2.5
149 10
150 9.1
151 0.83
152 8
153 4.1
154 2.9
155 0.29
156 2
157 2.5
158 2
159 0.25
160 2
161 2.5
162 2.3
163 1.65
164 5.6
165 8.1
166 3.5
167 0.25
168 1.5
169 22.5
170 2.5
171 0.2
172 1.1
173 1.1
174 2.5
175 0.15
176 7.2
177 4.5
178 5.5
179 0.25
180 2
181 2.5
182 2
183 0.18
184 1.1
185 1.5
186 1.1
187 0.25
188 2.2
189 14.5
190 4.4
191 1.63
192 2.8
193 1.5
194 1.5
201 0.27
202 2.2
203 7.8
204 99.99
205 2.55
206 3.5
218 5
219 3.1
220 0.4
221 1.8
249 5.5
257 4.8
258 0.18
263 4
271 3
272 5.5
273 0.65
274 2
279 18.5
288 0.3
289 0.05
290 0.4
291 0.2
324 0.3
337 0.04
350 0.3
352 0.6
367 0.5
380 0.01
390 0.3
403 0.2
418 0.1
436 0.3

>  <PREDICTED SPECTRUM>  (3676) 
17 19
18 89
19 4
25 29
26 57
27 124
28 87
29 195
30 128
31 108
32 35
33 43
34 14
36 41
37 102
38 140
39 303
40 172
41 646
42 387
43 549
44 335
45 493
46 171
47 164
48 86
49 93
50 218
51 243
52 220
53 367
54 267
55 559
56 356
57 598
58 331
59 428
60 418
61 304
62 145
63 172
64 210
65 288
66 278
67 482
68 357
69 715
70 367
71 492
72 347
73 443
74 362
75 358
76 239
77 421
78 303
79 460
80 410
81 587
82 321
83 249
84 308
85 346
86 253
87 303
88 147
89 195
90 148
91 325
92 379
93 537
94 321
95 507
96 352
97 366
98 237
99 301
100 210
101 213
102 187
103 273
104 224
105 455
106 383
107 400
108 415
109 621
110 197
111 199
112 207
113 268
114 191
115 225
116 215
117 348
118 220
119 316
120 422
121 317
122 255
123 303
124 304
125 164
126 214
127 296
128 255
129 281
130 211
131 229
132 221
133 464
134 266
135 183
136 275
137 273
138 192
139 122
140 108
141 163
142 137
143 152
144 206
145 462
146 247
147 178
148 380
149 201
150 209
151 130
152 182
153 110
154 70
155 135
156 128
157 144
158 173
159 150
160 147
161 438
162 273
163 249
164 312
165 162
166 135
167 94
168 69
169 144
170 54
171 52
172 172
173 205
174 219
175 129
176 258
177 342
178 158
179 163
180 41
181 91
182 35
183 67
184 53
185 61
186 84
187 156
188 250
189 323
190 124
191 262
192 266
193 214
194 139
195 20
196 54
197 101
198 40
199 112
200 34
201 258
202 94
203 161
204 999
205 568
206 292
207 161
208 161
210 32
211 23
212 42
213 81
214 96
215 163
216 88
217 156
218 132
219 175
220 151
221 164
222 89
223 20
224 46
227 42
228 68
229 77
230 80
231 133
232 146
233 71
234 19
235 33
236 8
239 59
240 31
241 109
242 79
243 102
244 143
245 230
246 100
247 43
248 42
249 18
250 37
255 63
257 239
258 209
259 183
260 124
261 126
262 113
263 50
270 80
271 351
272 263
273 208
274 231
275 196
276 79
287 35
288 83
289 101
290 74
291 70
303 54
307 2
314 0
315 113
316 109
317 62
318 16
319 63
320 40
331 1
332 18
334 12
341 31
343 20
344 38
347 28
363 11
365 14
367 2
391 5

$$$$

     RDKit          2D

 21 22  0  0  1  0  0  0  0  0999 V2000
    3.8081    7.4000    0.0000 C   0  0  0  0  0  0  0  0  0  0  0  0
    3.8089    1.4002    0.0000 C   0  0  0  0  0  0  0  0  0  0  0  0
   -2.3541   -2.7492    0.0000 C   0  0  0  0  0  0  0  0  0  0  0  0
   -0.4259   -2.7492    0.0000 C   0  0  0  0  0  0  0  0  0  0  0  0
    1.9960    6.5595    0.0000 C   0  0  0  0  0  0  0  0  0  0  0  0
   -0.0900    2.1500    0.0000 C   0  0  0  0  0  0  0  0  0  0  0  0
    3.8081    5.9000    0.0000 C   0  0  0  0  0  0  0  0  0  0  0  0
   -2.6900    0.6500    0.0000 C   0  0  0  0  0  0  0  0  0  0  0  0
    2.5100   -0.8500    0.0000 C   0  0  0  0  0  0  0  0  0  0  0  0
    1.2100   -1.6000    0.0000 C   0  0  0  0  0  0  0  0  0  0  0  0
    1.2100    2.9000    0.0000 C   0  0  0  0  0  0  0  0  0  0  0  0
   -2.6900   -0.8500    0.0000 C   0  0  0  0  0  0  0  0  0  0  0  0
   -1.3900    1.4000    0.0000 C   0  0  0  0  0  0  0  0  0  0  0  0
    2.5090    3.6500    0.0000 C   0  0  0  0  0  0  0  0  0  0  0  0
    2.5100    0.6500    0.0000 C   0  0  0  0  0  0  0  0  0  0  0  0
    1.2100    1.4000    0.0000 C   0  0  0  0  0  0  0  0  0  0  0  0
   -0.0900   -0.8500    0.0000 C   0  0  0  0  0  0  0  0  0  0  0  0
   -1.3900   -1.6000    0.0000 C   0  0  0  0  0  0  0  0  0  0  0  0
    2.5090    5.1500    0.0000 C   0  0  0  0  0  0  0  0  0  0  0  0
   -0.0900    0.6500    0.0000 C   0  0  0  0  0  0  0  0  0  0  0  0
    1.0318    4.8895    0.0000 O   0  0  0  0  0  0  0  0  0  0  0  0
  7  1  2  0
 10  9  1  0
 12  8  1  0
 13  8  1  0
 14 11  1  0
 15  2  1  0
 15  9  2  0
 16 11  1  1
 16 15  1  0
 17 10  1  1
 18  3  1  0
 18  4  1  0
 18 12  1  0
 18 17  1  0
 19  5  1  6
 19  7  1  0
 19 14  1  0
 20  6  1  1
 20 13  1  0
 20 16  1  0
 20 17  1  0
 19 21  1  0
M  END
>  <NAME>  (3677) 
LABDA-7,14-DIEN-13(R)-OL

>  <SYNONYMS>  (3677) 


>  <SPECTRUM TYPE>  (3677) 
MS1

>  <INSTRUMENT TYPE>  (3677) 
EI-B

>  <INSTRUMENT>  (3677) 
HITACHI RMU-6L

>  <ION MODE>  (3677) 
P

>  <INCHIKEY>  (3677) 
YHUUQRPBUXILLV-QGZVKYPTSA-N

>  <FORMULA>  (3677) 
C20H34O

>  <EXACT MASS>  (3677) 
290.26096570799996

>  <MW>  (3677) 
290

>  <ID>  (3677) 
JP006316

>  <CONTRIBUTOR>  (3677) 
University of Tokyo Team, {Faculty of Engineering, University of Tokyo

>  <COMMENT>  (3677) 
SMILES=C=CC(C)(O)CCC([H])(C(C)=2)C(C)(C1)C([H])(CC([H])2)C(C)(C)CC1
InChI=InChI=1S/C20H34O/c1-7-19(5,21)14-11-16-15(2)9-10-17-18(3,4)12-8-13-20(16,17)6/h7,9,16-17,21H,1,8,10-14H2,2-6H3/t16-,17-,19-,20+/m0/s1
computed SMILES=OC(C=C)(C)CCC1C(=CCC2C(C)(C)CCCC12C)C
accession=JP006316
date=2016.01.19 (Created 2008.10.21, modified 2011.05.06)
author=EGUCHI S, FAC. OF SCIENCE, HIROSHIMA UNIV.
license=CC BY-NC-SA
exact mass=290.26097
ionization energy=70 eV
ion type=[M]+*
computed spectral entropy=4.1382536790473505
computed normalized entropy=0.8436334081094522
SPLASH=splash10-0k9x-9720000000-4425b2b900838b5bcc5c
submitter=submitter = University of Tokyo Team (Faculty of Engineering, University of Tokyo)
MoNA Rating=3.75

>  <NUM PEAKS>  (3677) 
135

>  <MASS SPECTRAL PEAKS>  (3677) 
40 4.5
41 60.5
42 5
43 3.65
44 2.5
45 3.4
46 1
47 2.75
48 14.3
49 9.5
50 5
51 0.35
52 2
53 15.5
54 3.3
55 4.77
56 5.5
57 7.5
58 2
59 0.35
65 7
66 3.1
67 27.2
68 1.14
69 38.5
70 5.5
71 22.1
72 0.25
73 2.1
77 16.5
78 4.2
79 2.4
80 51
81 45
82 11.5
83 5.34
84 7.5
85 30.5
87 9
88 0.1
91 29.5
92 10.5
93 45.5
94 1.25
95 35.5
96 8.4
97 7.5
98 0.2
103 2.8
104 1.5
105 26.5
106 1.15
107 32.2
108 22.5
109 52.5
110 0.8
111 5.5
112 2.5
113 1.5
114 0.12
115 3.4
116 2.5
117 5.4
118 0.25
119 28.5
120 13.1
121 30.5
122 1.82
123 21.5
124 11.5
125 5.5
126 0.18
127 1.5
128 2.5
129 2.5
130 0.15
131 7
132 3.5
133 24.5
134 1.15
135 18.5
136 9.5
137 11.5
138 0.38
139 2.2
141 1
143 2.1
144 0.18
145 8.4
146 3.5
147 11.8
148 1.58
149 8.5
150 3.2
151 4.5
152 0.18
159 6
160 3
161 21.5
162 0.7
163 5.5
164 2.3
165 1.5
166 0.23
167 1.5
173 4
174 3
175 0.5
176 4
177 4.3
178 1.8
179 0.18
187 13
188 3
189 15.5
190 0.4
191 8.4
192 2.5
201 2.5
202 1.15
203 6.2
204 99.99
205 25
206 0.31
218 3.2
219 1.5
220 2.6
221 0.18
245 2.5
246 1.8
257 5.5
258 0.25
272 4.9
273 2.5
290 2

>  <PREDICTED SPECTRUM>  (3677) 
18 5
26 33
27 164
28 44
29 231
31 51
32 11
38 31
39 389
40 170
41 917
42 253
43 688
44 189
45 295
46 7
47 8
50 96
51 213
52 155
53 487
54 201
55 742
56 283
57 391
58 144
59 325
60 104
61 30
62 34
63 115
64 103
65 318
66 161
67 623
68 363
69 851
70 236
71 432
72 214
73 122
74 38
75 49
76 85
77 521
78 192
79 609
80 429
81 824
82 379
83 357
84 169
85 315
86 108
87 101
88 38
89 131
90 13
91 615
92 363
93 700
94 416
95 684
96 210
97 258
98 121
99 166
102 62
103 172
104 129
105 591
106 352
107 650
108 412
109 821
110 133
111 235
112 100
113 92
114 0
115 183
116 139
117 310
118 123
119 575
120 332
121 524
122 361
123 480
124 199
125 143
126 104
127 137
128 136
129 208
130 157
131 249
132 212
133 551
134 308
135 574
136 336
137 415
138 197
139 126
140 31
141 22
143 111
144 78
145 298
146 158
147 385
148 378
149 267
150 214
151 91
152 9
156 56
157 27
158 9
159 193
160 215
161 437
162 208
163 239
164 114
165 137
166 157
167 43
168 43
169 15
171 97
172 65
173 227
174 198
175 273
176 239
177 262
178 126
179 70
185 115
186 2
187 338
188 202
189 488
190 239
191 446
192 198
193 51
197 55
198 10
199 36
201 243
202 194
203 311
204 999
205 526
206 141
208 31
213 17
214 43
215 164
216 138
217 151
218 91
219 184
220 12
229 157
230 52
231 48
232 52
243 114
245 114
247 50
256 9
257 281
258 96
272 236
273 91
275 82
276 2
290 97
291 34

$$$$

     RDKit          2D

 11 12  0  0  0  0  0  0  0  0999 V2000
    1.5853    2.6360    0.0000 C   0  0  0  0  0  0  0  0  0  0  0  0
   -3.3100   -0.7500    0.0000 C   0  0  0  0  0  0  0  0  0  0  0  0
   -1.8100   -2.2500    0.0000 C   0  0  0  0  0  0  0  0  0  0  0  0
    2.0000   -0.0000    0.0000 C   0  0  0  0  0  0  0  0  0  0  0  0
    1.1200   -1.2100    0.0000 C   0  0  0  0  0  0  0  0  0  0  0  0
    1.1200    1.2100    0.0000 C   0  0  0  0  0  0  0  0  0  0  0  0
   -0.3100   -0.7500    0.0000 C   0  0  0  0  0  0  0  0  0  0  0  0
   -0.3100    0.7500    0.0000 C   0  0  0  0  0  0  0  0  0  0  0  0
   -1.8100    0.7500    0.0000 C   0  0  0  0  0  0  0  0  0  0  0  0
   -1.8100   -0.7500    0.0000 C   0  0  0  0  0  0  0  0  0  0  0  0
   -2.8707    1.8107    0.0000 O   0  0  0  0  0  0  0  0  0  0  0  0
  5  4  1  0
  6  1  1  0
  6  4  2  0
  7  5  1  0
  8  6  1  0
  8  7  1  0
  9  8  1  0
 10  2  1  0
 10  3  1  0
 10  7  1  0
 10  9  1  0
 11  9  2  0
M  END
>  <NAME>  (3678) 
FILIFOLONE

>  <SYNONYMS>  (3678) 


>  <SPECTRUM TYPE>  (3678) 
MS1

>  <INSTRUMENT TYPE>  (3678) 
EI-B

>  <INSTRUMENT>  (3678) 
HITACHI RMS-4

>  <ION MODE>  (3678) 
P

>  <INCHIKEY>  (3678) 
JVEJBTZZORGEKF-UHFFFAOYSA-N

>  <FORMULA>  (3678) 
C10H14O

>  <EXACT MASS>  (3678) 
150.104465068

>  <MW>  (3678) 
150

>  <ID>  (3678) 
JP006311

>  <CONTRIBUTOR>  (3678) 
University of Tokyo Team, {Faculty of Engineering, University of Tokyo

>  <COMMENT>  (3678) 
SMILES=CC(=C2)C(C(=O)1)C(C2)C(C)(C)1
InChI=InChI=1S/C10H14O/c1-6-4-5-7-8(6)9(11)10(7,2)3/h4,7-8H,5H2,1-3H3
computed SMILES=O=C1C2C(=CCC2C1(C)C)C
accession=JP006311
date=2016.01.19 (Created 2008.10.21, modified 2011.05.06)
author=EGUCHI S, FAC. OF SCIENCE, HIROSHIMA UNIV.
license=CC BY-NC-SA
exact mass=150.10447
ionization energy=70 eV
ion type=[M]+*
computed spectral entropy=3.192442226961078
computed normalized entropy=0.811949085531818
SPLASH=splash10-0536-9200000000-ea9324114254e4aa08eb
submitter=submitter = University of Tokyo Team (Faculty of Engineering, University of Tokyo)
MoNA Rating=3.75

>  <NUM PEAKS>  (3678) 
51

>  <MASS SPECTRAL PEAKS>  (3678) 
40 12
41 53.9
42 26.7
43 1.94
50 9.7
51 20.7
52 12
53 2.95
54 5.5
55 10.1
56 32.2
57 3.22
63 8.3
64 2.3
65 17.5
66 0.51
67 10.1
68 3.2
69 8.3
70 3.78
71 4.6
77 30.9
78 10.1
79 6.41
80 99.99
81 19.8
82 4.1
83 0.18
91 56.7
92 9.7
93 31.3
94 0.6
95 4.6
103 2.8
104 1.4
105 1.75
106 5.5
107 82.5
108 30.4
109 0.78
119 3.7
120 0.9
121 6.5
122 2.95
123 6
133 2.8
134 1.4
135 0.69
136 1.4
150 12.4
151 1.8

>  <PREDICTED SPECTRUM>  (3678) 
26 5
27 277
28 15
29 102
37 0
38 123
39 623
40 274
41 778
42 147
43 251
44 38
50 224
51 463
52 389
53 705
54 283
55 225
56 88
57 52
59 72
60 4
62 80
63 273
64 135
65 591
66 405
67 627
68 348
69 451
70 72
71 101
74 21
75 86
77 720
78 370
79 999
80 547
81 502
82 261
83 52
89 24
91 979
92 453
93 975
94 519
95 237
103 160
104 112
105 552
106 264
107 821
108 542
109 134
117 92
118 32
121 254
122 428
123 163
132 75
133 66
135 386
136 96
149 27
150 748
151 258
152 19

$$$$

     RDKit          2D

 11 12  0  0  0  0  0  0  0  0999 V2000
   -0.6885   -2.6036    0.0000 C   0  0  0  0  0  0  0  0  0  0  0  0
    0.9054    1.6596    0.0000 C   0  0  0  0  0  0  0  0  0  0  0  0
   -0.9849   -0.5925    0.0000 C   0  0  0  0  0  0  0  0  0  0  0  0
    0.6104   -0.3534    0.0000 C   0  0  0  0  0  0  0  0  0  0  0  0
    1.9104    0.3966    0.0000 C   0  0  0  0  0  0  0  0  0  0  0  0
    0.6104   -1.8534    0.0000 C   0  0  0  0  0  0  0  0  0  0  0  0
    3.2104   -0.3534    0.0000 C   0  0  0  0  0  0  0  0  0  0  0  0
    1.9104   -2.6034    0.0000 C   0  0  0  0  0  0  0  0  0  0  0  0
    3.2104   -1.8534    0.0000 C   0  0  0  0  0  0  0  0  0  0  0  0
    1.9104   -1.1034    0.0000 C   0  0  0  0  0  0  0  0  0  0  0  0
    4.5093   -2.6036    0.0000 O   0  0  0  0  0  0  0  0  0  0  0  0
  5  4  1  0
  6  1  1  0
  6  4  2  0
  7  5  1  0
  8  6  1  0
  9  7  1  0
  9  8  1  0
 10  2  1  0
 10  3  1  0
 10  7  1  0
 10  8  1  0
 11  9  2  0
M  END
>  <NAME>  (3679) 
CHRYSANTHENONE

>  <SYNONYMS>  (3679) 


>  <SPECTRUM TYPE>  (3679) 
MS1

>  <INSTRUMENT TYPE>  (3679) 
EI-B

>  <INSTRUMENT>  (3679) 
HITACHI RMS-4

>  <ION MODE>  (3679) 
P

>  <INCHIKEY>  (3679) 
IECBDTGWSQNQID-UHFFFAOYSA-N

>  <FORMULA>  (3679) 
C10H14O

>  <EXACT MASS>  (3679) 
150.104465068

>  <MW>  (3679) 
150

>  <ID>  (3679) 
JP006310

>  <CONTRIBUTOR>  (3679) 
University of Tokyo Team, {Faculty of Engineering, University of Tokyo

>  <COMMENT>  (3679) 
SMILES=CC(=C2)C(C(=O)1)C(C)(C)C(C2)1
InChI=InChI=1S/C10H14O/c1-6-4-5-7-9(11)8(6)10(7,2)3/h4,7-8H,5H2,1-3H3
computed SMILES=O=C1C2C(=CCC1C2(C)C)C
accession=JP006310
date=2016.01.19 (Created 2008.10.21, modified 2011.05.06)
license=CC BY-NC-SA
author=EGUCHI S, FAC. OF SCIENCE, HIROSHIMA UNIV.
exact mass=150.10447
ionization energy=70 eV
ion type=[M]+*
computed spectral entropy=2.924423462386161
computed normalized entropy=0.7554305380025493
SPLASH=splash10-0a4l-9600000000-e0800ab65d54087c9785
submitter=submitter = University of Tokyo Team (Faculty of Engineering, University of Tokyo)
MoNA Rating=3.75

>  <NUM PEAKS>  (3679) 
48

>  <MASS SPECTRAL PEAKS>  (3679) 
40 6
41 30.5
42 3.5
43 0.64
44 1.1
50 3.5
51 11
52 0.48
53 12.8
54 2.7
55 6.6
56 0.14
57 1.4
62 1.2
63 3.9
65 1.21
66 3.4
67 8.2
68 1.1
69 0.18
70 8.5
77 16.3
78 4.1
79 2.77
80 33.9
81 6
82 4.3
83 0.14
91 54.3
92 8.7
93 9
94 0.23
95 4.3
96 1.4
103 2
105 1.7
106 3.2
107 99.99
108 12.6
109 0.41
120 3.4
122 27.1
123 3.5
135 0.57
136 0.5
149 1.1
150 11.7
151 1.4

>  <PREDICTED SPECTRUM>  (3679) 
27 74
29 4
39 266
40 120
41 420
42 82
43 13
44 37
45 10
50 83
51 229
52 163
53 332
54 96
55 146
57 47
58 19
63 116
64 43
65 249
66 204
67 352
68 202
69 188
70 82
77 509
78 250
79 671
80 248
81 144
82 70
91 695
92 276
93 481
94 319
95 79
103 19
105 387
106 395
107 999
108 472
109 92
117 20
121 169
122 322
123 71
135 328
136 21
149 49
150 583
151 171

$$$$

     RDKit          2D

 12 13  0  0  1  0  0  0  0  0999 V2000
    2.4631   -2.9580    0.0000 C   0  0  0  0  0  0  0  0  0  0  0  0
    0.6504    2.2017    0.0000 C   0  0  0  0  0  0  0  0  0  0  0  0
   -1.7323    0.2818    0.0000 C   0  0  0  0  0  0  0  0  0  0  0  0
    3.7631    0.7920    0.0000 C   0  0  0  0  0  0  0  0  0  0  0  0
    1.1631   -0.7080    0.0000 C   0  0  0  0  0  0  0  0  0  0  0  0
    2.4631   -1.4580    0.0000 C   0  0  0  0  0  0  0  0  0  0  0  0
    2.4631    1.5420    0.0000 C   0  0  0  0  0  0  0  0  0  0  0  0
    3.7631   -0.7080    0.0000 C   0  0  0  0  0  0  0  0  0  0  0  0
    1.7631    0.5020    0.0000 C   0  0  0  0  0  0  0  0  0  0  0  0
    1.1631    0.7920    0.0000 C   0  0  0  0  0  0  0  0  0  0  0  0
   -0.6327    1.0603    0.0000 O   0  0  0  0  0  0  0  0  0  0  0  0
    2.2831   -0.4880    0.0000 O   0  0  0  0  0  0  0  0  0  0  0  0
  6  1  1  0
  6  5  2  0
  7  4  1  0
  8  4  1  0
  8  6  1  0
  7  9  1  6
 10  2  1  0
 10  3  1  0
 10  5  1  0
 10  7  1  0
 11  9  2  0
  8 12  1  6
 12  9  1  0
M  END
>  <NAME>  (3680) 
FILIFOLIDE A

>  <SYNONYMS>  (3680) 


>  <SPECTRUM TYPE>  (3680) 
MS1

>  <INSTRUMENT TYPE>  (3680) 
EI-B

>  <INSTRUMENT>  (3680) 
HITACHI RMS-4

>  <ION MODE>  (3680) 
P

>  <INCHIKEY>  (3680) 
JHKNAYGQYUKKDQ-YUMQZZPRSA-N

>  <FORMULA>  (3680) 
C10H14O2

>  <EXACT MASS>  (3680) 
166.099379688

>  <MW>  (3680) 
166

>  <ID>  (3680) 
JP006309

>  <CONTRIBUTOR>  (3680) 
University of Tokyo Team, {Faculty of Engineering, University of Tokyo

>  <COMMENT>  (3680) 
SMILES=CC(=C1)C([H])(O2)CC([H])(C(=O)2)C(C)(C)1
InChI=InChI=1S/C10H14O2/c1-6-5-10(2,3)7-4-8(6)12-9(7)11/h5,7-8H,4H2,1-3H3/t7-,8-/m0/s1
computed SMILES=O=C1OC2C(=CC(C)(C)C1C2)C
accession=JP006309
date=2016.01.19 (Created 2008.10.21, modified 2011.05.06)
author=EGUCHI S, FAC. OF SCIENCE, HIROSHIMA UNIV.
license=CC BY-NC-SA
exact mass=166.09938
ionization energy=70 eV
ion type=[M]+*
computed spectral entropy=2.7770252212781212
computed normalized entropy=0.7173549535281922
SPLASH=splash10-0a4l-9700000000-67a4efc9877d11e0a66a
submitter=submitter = University of Tokyo Team (Faculty of Engineering, University of Tokyo)
MoNA Rating=3.75

>  <NUM PEAKS>  (3680) 
48

>  <MASS SPECTRAL PEAKS>  (3680) 
40 5.2
41 33.1
42 4.7
43 0.67
44 1
45 1.5
50 5
51 0.95
52 4.3
53 11.2
54 2.3
55 0.93
62 1.3
63 3.8
64 1.2
65 1.05
66 2.7
67 7.7
68 1.3
69 0.43
70 2.7
77 12.2
78 4.7
79 0.15
80 2.7
81 2.8
82 1.8
83 0.2
91 40.5
92 6.5
93 4.7
94 0.18
95 3.5
96 1.2
98 3.2
105 1.5
106 2.7
107 99.99
108 11.2
109 0.23
111 2
121 2.8
122 20
123 0.53
138 1
151 1.2
166 5.2
167 1.8

>  <PREDICTED SPECTRUM>  (3680) 
26 9
27 81
28 21
29 21
37 23
38 78
39 290
40 137
41 363
42 114
43 325
44 67
49 4
50 131
51 254
52 179
53 298
54 135
55 69
56 24
60 20
61 12
62 57
63 154
64 113
65 247
66 122
67 226
68 139
69 76
70 69
74 43
75 14
76 10
77 406
78 202
79 347
80 227
81 120
82 126
83 51
89 44
90 36
91 490
92 189
93 311
94 209
95 222
96 1
104 13
105 240
106 262
107 999
108 553
109 128
119 18
120 7
121 229
122 337
123 155
124 17
138 46
151 102
152 9
166 195
167 50

$$$$

     RDKit          2D

 12 14  0  0  1  0  0  0  0  0999 V2000
   -0.4995    4.8167    0.0000 C   0  0  0  0  0  0  0  0  0  0  0  0
   -2.3896    3.8536    0.0000 C   0  0  0  0  0  0  0  0  0  0  0  0
    1.4918   -0.1568    0.0000 C   0  0  0  0  0  0  0  0  0  0  0  0
   -2.3083    0.7500    0.0000 C   0  0  0  0  0  0  0  0  0  0  0  0
   -1.4266    1.9635    0.0000 C   0  0  0  0  0  0  0  0  0  0  0  0
   -1.4266   -0.4635    0.0000 C   0  0  0  0  0  0  0  0  0  0  0  0
    0.0000    1.5000    0.0000 C   0  0  0  0  0  0  0  0  0  0  0  0
    0.4635    2.9266    0.0000 C   0  0  0  0  0  0  0  0  0  0  0  0
   -0.9631    3.3901    0.0000 C   0  0  0  0  0  0  0  0  0  0  0  0
    0.0000    0.0000    0.0000 C   0  0  0  0  0  0  0  0  0  0  0  0
    1.8000    3.6076    0.0000 O   0  0  0  0  0  0  0  0  0  0  0  0
   -0.3119   -1.4672    0.0000 O   0  0  0  0  0  0  0  0  0  0  0  0
  5  4  1  6
  6  4  1  1
  7  5  1  0
  7  8  1  6
  9  1  1  0
  9  2  1  0
  9  5  1  0
  9  8  1  0
 10  3  1  6
 10  6  1  0
 10  7  1  0
 11  8  2  0
  6 12  1  0
 12 10  1  0
M  END
>  <NAME>  (3681) 
EPOXYFILIFOLONE

>  <SYNONYMS>  (3681) 
FILIFOLONE EPOXIDE

>  <SPECTRUM TYPE>  (3681) 
MS1

>  <INSTRUMENT TYPE>  (3681) 
EI-B

>  <INSTRUMENT>  (3681) 
HITACHI RMS-4

>  <ION MODE>  (3681) 
P

>  <INCHIKEY>  (3681) 
UMXWFBSAWGHMMF-DOACCVQLSA-N

>  <FORMULA>  (3681) 
C10H14O2

>  <EXACT MASS>  (3681) 
166.099379688

>  <MW>  (3681) 
166

>  <ID>  (3681) 
JP006308

>  <CONTRIBUTOR>  (3681) 
University of Tokyo Team, {Faculty of Engineering, University of Tokyo

>  <COMMENT>  (3681) 
SMILES=O=C(C(C)(C)3)C([H])(C([H])23)C(C)(O1)C([H])(C2)1
InChI=InChI=1S/C10H14O2/c1-9(2)5-4-6-10(3,12-6)7(5)8(9)11/h5-7H,4H2,1-3H3/t5-,6-,7+,10-/m0/s1
computed SMILES=O=C1C2C(CC3OC32C)C1(C)C
ion type=[M]+*
accession=JP006308
date=2016.01.19 (Created 2008.10.21, modified 2011.05.06)
author=EGUCHI S, FAC. OF SCIENCE, HIROSHIMA UNIV.
license=CC BY-NC-SA
exact mass=166.09938
ionization energy=70 eV
computed spectral entropy=3.1982062637499227
computed normalized entropy=0.7690060527420056
SPLASH=splash10-00kf-9000000000-8f3e5ece5b1410dfc8ea
submitter=submitter = University of Tokyo Team (Faculty of Engineering, University of Tokyo)
MoNA Rating=3.75

>  <NUM PEAKS>  (3681) 
64

>  <MASS SPECTRAL PEAKS>  (3681) 
40 41.4
41 99.99
42 30.1
43 5.48
44 2
45 1.5
50 5.3
51 1.31
52 6.3
53 33.3
54 6.3
55 2.05
56 2.5
57 1.5
59 1
62 0.15
63 3.3
64 1
65 9.1
66 0.4
67 47
68 23.2
69 31.8
70 3.03
71 2.5
77 11.6
78 3.3
79 1.41
80 8.1
81 15.7
82 32.3
83 0.48
85 3.8
91 7.1
92 1.3
93 0.45
94 2
95 46.7
96 8.1
97 0.33
98 32.3
99 2.5
105 4
106 0.1
107 5.1
108 3.3
109 7.3
110 0.18
111 2.5
121 2.3
122 2.5
123 1.84
124 3
137 4.8
138 4
139 0.1
148 1.3
149 0.5
150 0.8
151 0.81
152 1.3
165 0.3
166 2
167 0.5

>  <PREDICTED SPECTRUM>  (3681) 
26 85
27 329
28 124
29 251
31 68
34 7
37 80
38 149
39 690
40 351
41 999
42 471
43 425
44 149
45 86
50 180
51 343
52 291
53 574
54 435
55 515
56 355
57 133
58 47
59 119
61 10
62 58
63 181
64 135
65 344
66 200
67 763
68 657
69 741
70 420
71 129
72 85
75 65
76 38
77 406
78 195
79 396
80 338
81 622
82 371
83 258
84 185
85 70
89 23
90 16
91 378
92 214
93 229
94 236
95 527
96 446
97 329
98 400
99 65
100 8
103 37
105 169
106 124
107 300
108 188
109 265
110 115
111 92
112 40
113 3
115 56
117 67
119 83
121 161
122 145
123 261
124 210
125 63
133 124
134 30
137 141
138 131
139 30
148 88
149 1
150 27
151 126
152 15
165 33
166 170
167 42

$$$$

     RDKit          2D

 12 14  0  0  0  0  0  0  0  0999 V2000
   -2.5551   -1.9014    0.0000 C   0  0  0  0  0  0  0  0  0  0  0  0
   -0.6236   -1.9213    0.0000 C   0  0  0  0  0  0  0  0  0  0  0  0
    0.5098    2.7652    0.0000 C   0  0  0  0  0  0  0  0  0  0  0  0
   -2.8475    1.5063    0.0000 C   0  0  0  0  0  0  0  0  0  0  0  0
   -2.8675    0.0063    0.0000 C   0  0  0  0  0  0  0  0  0  0  0  0
   -1.5375    2.2363    0.0000 C   0  0  0  0  0  0  0  0  0  0  0  0
   -1.5675    0.7463    0.0000 C   0  0  0  0  0  0  0  0  0  0  0  0
   -0.2775   -0.0237    0.0000 C   0  0  0  0  0  0  0  0  0  0  0  0
   -1.5775   -0.7637    0.0000 C   0  0  0  0  0  0  0  0  0  0  0  0
   -0.2575    1.4763    0.0000 C   0  0  0  0  0  0  0  0  0  0  0  0
    0.9591   -0.7570    0.0000 O   0  0  0  0  0  0  0  0  0  0  0  0
    1.0325    0.7063    0.0000 O   0  0  0  0  0  0  0  0  0  0  0  0
  5  4  1  0
  6  4  1  0
  7  5  1  0
  7  6  1  0
  9  1  1  0
  9  2  1  0
  9  5  1  0
  9  8  1  0
 10  3  1  0
 10  6  1  0
 10  8  1  0
 11  7  2  0
 12  8  1  0
 12 10  1  0
M  END
>  <NAME>  (3682) 
2,4,4-TRIMETHYLBICYCLO(3.1.1)HEPTAN-2,3-EPOXY-6-ONE

>  <SYNONYMS>  (3682) 


>  <SPECTRUM TYPE>  (3682) 
MS1

>  <INSTRUMENT TYPE>  (3682) 
EI-B

>  <INSTRUMENT>  (3682) 
HITACHI RMS-4

>  <ION MODE>  (3682) 
P

>  <INCHIKEY>  (3682) 
LUANZWPGTAHQBV-UHFFFAOYSA-N

>  <FORMULA>  (3682) 
C10H14O2

>  <EXACT MASS>  (3682) 
166.099379688

>  <MW>  (3682) 
166

>  <ID>  (3682) 
JP006307

>  <CONTRIBUTOR>  (3682) 
University of Tokyo Team, {Faculty of Engineering, University of Tokyo

>  <COMMENT>  (3682) 
SMILES=O=C(C32)C(C3)C(C)(O1)C1C(C)(C)2
InChI=InChI=1S/C10H14O2/c1-9(2)5-4-6(7(5)11)10(3)8(9)12-10/h5-6,8H,4H2,1-3H3
computed SMILES=O=C1C2CC1C(C)(C)C3OC23C
accession=JP006307
date=2016.01.19 (Created 2008.10.21, modified 2011.05.06)
author=EGUCHI S, FAC. OF SCIENCE, HIROSHIMA UNIV.
license=CC BY-NC-SA
exact mass=166.09938
ionization energy=70 eV
ion type=[M]+*
computed spectral entropy=3.3826184817918272
computed normalized entropy=0.807374041555449
SPLASH=splash10-05mo-9100000000-82ca5294ddfa4c81db3a
submitter=submitter = University of Tokyo Team (Faculty of Engineering, University of Tokyo)
MoNA Rating=3.75

>  <NUM PEAKS>  (3682) 
66

>  <MASS SPECTRAL PEAKS>  (3682) 
40 40
41 72.1
42 48.5
43 9.2
44 1.5
50 12.5
51 30.7
52 1.5
53 40.9
54 23.6
55 72.4
56 1.1
57 14.2
58 1
59 5.5
62 0.31
63 8.7
64 2.4
65 15.7
66 0.47
67 59.1
68 6.3
69 79.5
70 1.1
71 15
72 3.1
76 1
77 1.81
78 9.4
79 26.8
80 5.5
81 0.79
82 37.8
83 60.6
84 12.6
85 1.1
91 52.8
92 9.4
93 25.2
94 0.87
95 83.5
96 37.8
97 11
98 3.15
99 6.3
103 1.6
104 1
105 2.05
106 3.1
107 99.99
108 7.9
109 1.26
110 1
111 3
121 3.1
122 0.63
123 43.2
124 4.7
125 2.4
137 0.24
138 1.6
139 1
151 1
165 0.16
166 4.7
167 1

>  <PREDICTED SPECTRUM>  (3682) 
26 61
27 354
28 61
29 290
31 5
37 75
38 143
39 688
40 350
41 999
42 383
43 693
44 203
45 97
50 174
51 381
52 318
53 636
54 435
55 687
56 337
57 309
58 151
59 93
60 8
61 24
62 48
63 174
64 103
65 390
66 341
67 904
68 592
69 914
70 441
71 321
72 189
77 464
78 277
79 666
80 467
81 615
82 543
83 715
84 277
85 188
89 9
90 11
91 613
92 363
93 418
94 274
95 865
96 562
97 526
98 353
99 98
103 76
104 4
105 306
106 225
107 928
108 231
109 412
110 329
111 200
119 9
121 209
122 323
123 709
124 325
125 221
137 116
138 170
139 71
148 2
149 11
150 2
151 175
152 19
165 24
166 227
167 80

$$$$

     RDKit          2D

 12 14  0  0  1  0  0  0  0  0999 V2000
   -2.7714   -1.7494    0.0000 C   0  0  0  0  0  0  0  0  0  0  0  0
   -0.0070   -0.7841    0.0000 C   0  0  0  0  0  0  0  0  0  0  0  0
   -0.1524    3.1592    0.0000 C   0  0  0  0  0  0  0  0  0  0  0  0
   -2.2397   -0.3697    0.0000 C   0  0  0  0  0  0  0  0  0  0  0  0
   -3.5297    0.4003    0.0000 C   0  0  0  0  0  0  0  0  0  0  0  0
   -0.9397    0.3703    0.0000 C   0  0  0  0  0  0  0  0  0  0  0  0
   -3.5097    1.9003    0.0000 C   0  0  0  0  0  0  0  0  0  0  0  0
   -2.1997    2.6303    0.0000 C   0  0  0  0  0  0  0  0  0  0  0  0
   -2.2297    1.1403    0.0000 C   0  0  0  0  0  0  0  0  0  0  0  0
   -0.9197    1.8703    0.0000 C   0  0  0  0  0  0  0  0  0  0  0  0
   -4.7979    2.6687    0.0000 O   0  0  0  0  0  0  0  0  0  0  0  0
    0.3703    1.1003    0.0000 O   0  0  0  0  0  0  0  0  0  0  0  0
  5  4  1  1
  6  4  1  0
  7  5  1  0
  8  7  1  1
  9  1  1  0
  9  2  1  0
  9  5  1  0
  9  8  1  0
 10  3  1  6
 10  6  1  0
 10  8  1  0
 11  7  2  0
  6 12  1  1
 12 10  1  0
M  END
>  <NAME>  (3683) 
EPOXYCHRYSANTHENONE

>  <SYNONYMS>  (3683) 
CHRYSANTHENONE EPOXIDE

>  <SPECTRUM TYPE>  (3683) 
MS1

>  <INSTRUMENT TYPE>  (3683) 
EI-B

>  <INSTRUMENT>  (3683) 
HITACHI RMS-4

>  <ION MODE>  (3683) 
P

>  <INCHIKEY>  (3683) 
MJKUEDLCFFNGOC-LVWRQZDYSA-N

>  <FORMULA>  (3683) 
C10H14O2

>  <EXACT MASS>  (3683) 
166.099379688

>  <MW>  (3683) 
166

>  <ID>  (3683) 
JP006306

>  <CONTRIBUTOR>  (3683) 
University of Tokyo Team, {Faculty of Engineering, University of Tokyo

>  <COMMENT>  (3683) 
SMILES=O=C(C([H])23)C([H])(C(C)(C)3)C(C)(O1)C([H])(C2)1
InChI=InChI=1S/C10H14O2/c1-9(2)5-4-6-10(3,12-6)8(9)7(5)11/h5-6,8H,4H2,1-3H3/t5-,6-,8+,10-/m0/s1
computed SMILES=O=C1C2CC3OC3(C)C1C2(C)C
accession=JP006306
date=2016.01.19 (Created 2008.10.21, modified 2011.05.06)
author=EGUCHI S, FAC. OF SCIENCE, HIROSHIMA UNIV.
license=CC BY-NC-SA
exact mass=166.09938
ionization energy=70 eV
ion type=[M]+*
computed spectral entropy=3.1591994371628553
computed normalized entropy=0.7848256947173455
SPLASH=splash10-066u-9300000000-98c33e08e98a1714acb7
submitter=submitter = University of Tokyo Team (Faculty of Engineering, University of Tokyo)
MoNA Rating=3.75

>  <NUM PEAKS>  (3683) 
56

>  <MASS SPECTRAL PEAKS>  (3683) 
40 31.8
41 92.2
42 10.1
43 7.33
44 3.1
45 2.3
50 3.9
51 1.01
52 5.4
53 25.2
54 7
55 3.57
56 3.5
57 2.3
67 52.7
68 1.55
69 93
70 10.9
71 2.3
77 1.16
78 3.9
79 20.5
80 7.4
81 1.24
82 10.5
83 8.5
85 4.3
91 4.57
92 7.8
93 7.4
94 3.9
95 1.71
96 5.4
97 6.6
98 69.8
99 6.58
105 15.5
106 3.5
107 99.99
108 1.12
109 10.9
110 1.2
111 10.5
112 0.12
121 15.1
122 18.3
123 15.2
124 0.27
125 2.3
137 2.3
138 1.2
139 0.43
151 5.8
165 4.7
166 8.1
167 1.2

>  <PREDICTED SPECTRUM>  (3683) 
25 1
26 78
27 316
28 137
29 222
30 40
31 1
36 11
37 66
38 134
39 581
40 303
41 876
42 303
43 309
44 51
45 107
50 149
51 276
52 227
53 471
54 222
55 357
56 223
57 123
59 15
61 7
62 64
63 147
64 77
65 275
66 201
67 781
68 436
69 999
70 332
71 123
74 0
75 36
76 15
77 320
78 138
79 424
80 221
81 280
82 176
83 290
84 187
85 93
86 11
89 15
90 7
91 351
92 170
93 340
94 228
95 461
96 217
97 481
98 565
99 204
103 124
104 1
105 280
106 75
107 856
108 308
109 340
110 128
111 89
119 51
121 230
122 299
123 490
124 167
125 116
126 40
133 7
136 25
137 128
138 143
151 296
152 60
165 40
166 322
167 108

$$$$

     RDKit          2D

 17 20  0  0  0  0  0  0  0  0999 V2000
    0.3208    3.1852    0.0000 C   0  0  0  0  0  0  0  0  0  0  0  0
   -0.2305    4.9726    0.0000 C   0  0  0  0  0  0  0  0  0  0  0  0
   -5.4933    2.1041    0.0000 C   0  0  0  0  0  0  0  0  0  0  0  0
   -1.4144   -0.4995    0.0000 C   0  0  0  0  0  0  0  0  0  0  0  0
   -3.5915    4.7207    0.0000 C   0  0  0  0  0  0  0  0  0  0  0  0
   -2.0957    4.8328    0.0000 C   0  0  0  0  0  0  0  0  0  0  0  0
   -4.4365    3.4814    0.0000 C   0  0  0  0  0  0  0  0  0  0  0  0
   -2.5981    1.5000    0.0000 C   0  0  0  0  0  0  0  0  0  0  0  0
   -1.2990    2.2500    0.0000 C   0  0  0  0  0  0  0  0  0  0  0  0
   -3.1461    0.1037    0.0000 C   0  0  0  0  0  0  0  0  0  0  0  0
   -4.5424    0.6517    0.0000 C   0  0  0  0  0  0  0  0  0  0  0  0
    0.0000    1.5000    0.0000 C   0  0  0  0  0  0  0  0  0  0  0  0
   -1.0755    3.7332    0.0000 C   0  0  0  0  0  0  0  0  0  0  0  0
   -3.9944    2.0480    0.0000 C   0  0  0  0  0  0  0  0  0  0  0  0
    0.0000    0.0000    0.0000 C   0  0  0  0  0  0  0  0  0  0  0  0
   -2.5826   -1.2864    0.0000 O   0  0  0  0  0  0  0  0  0  0  0  0
    1.2990    0.7500    0.0000 O   0  0  0  0  0  0  0  0  0  0  0  0
  6  5  1  0
  7  5  1  0
  9  8  1  0
 10  8  1  0
 11 10  1  0
 12  9  1  0
 13  1  1  0
 13  2  1  0
 13  6  1  0
 13  9  1  0
 14  3  1  0
 14  7  1  0
 14  8  1  0
 14 11  1  0
 15  4  1  0
 15 11  1  0
 15 12  1  0
 16 10  2  0
 17 12  1  0
 17 15  1  0
M  END
>  <NAME>  (3684) 
EPOXYVULGARONE A

>  <SYNONYMS>  (3684) 


>  <SPECTRUM TYPE>  (3684) 
MS1

>  <INSTRUMENT TYPE>  (3684) 
EI-B

>  <INSTRUMENT>  (3684) 
HITACHI RMS-4

>  <ION MODE>  (3684) 
P

>  <INCHIKEY>  (3684) 
OQTBYTAMNHCEOE-UHFFFAOYSA-N

>  <FORMULA>  (3684) 
C15H22O2

>  <EXACT MASS>  (3684) 
234.161979944

>  <MW>  (3684) 
234

>  <ID>  (3684) 
JP006305

>  <CONTRIBUTOR>  (3684) 
University of Tokyo Team, {Faculty of Engineering, University of Tokyo

>  <COMMENT>  (3684) 
SMILES=CC(C)(C4)C(C32)C(C(=O)1)C(C)(CC4)C1C(C)(O3)2
InChI=InChI=1S/C15H22O2/c1-13(2)6-5-7-14(3)8-9(13)12-15(4,17-12)11(14)10(8)16/h8-9,11-12H,5-7H2,1-4H3
computed SMILES=O=C1C2C3C4OC4(C)C1C2(C)CCCC3(C)C
accession=JP006305
date=2016.01.19 (Created 2008.10.21, modified 2011.05.06)
author=EGUCHI S, FAC. OF SCIENCE, HIROSHIMA UNIV.
license=CC BY-NC-SA
exact mass=234.16198
ionization energy=70 eV
ion type=[M]+*
computed spectral entropy=3.864213155586871
computed normalized entropy=0.8587503558352182
SPLASH=splash10-0a4i-9800000000-1700166005fc5b00521a
submitter=submitter = University of Tokyo Team (Faculty of Engineering, University of Tokyo)
MoNA Rating=3.75

>  <NUM PEAKS>  (3684) 
90

>  <MASS SPECTRAL PEAKS>  (3684) 
40 17.5
41 81
42 14.5
43 3.7
50 3.5
51 11
52 8
53 2.95
54 9
55 44
56 48
57 0.8
63 6
64 5
65 23
66 0.95
67 33
68 11
69 31
70 0.5
71 4
77 45
78 14.5
79 4.9
80 12.5
81 52
82 14
83 1
84 5.5
85 9
89 4
91 7
92 14
93 38
94 14
95 5.2
96 13
97 6
98 9
103 0.95
104 6
105 59
106 99.99
107 7.9
108 32
109 29
110 7
111 0.6
115 9
116 4.5
117 7
118 0.55
119 91
120 35
121 39
122 1.7
123 9
124 6
128 6
129 0.45
130 4
131 7
132 4.5
133 1.75
134 11
135 22
136 7
137 4.3
138 7
145 11.5
146 3
147 2.45
148 8
149 9.5
150 4
151 0.8
161 5
162 3
163 6.5
173 0.5
175 14.5
176 5
190 26
191 1
206 6.5
207 1.5
219 6.5
220 0.25
234 6.5
235 2.5

>  <PREDICTED SPECTRUM>  (3684) 
26 65
27 315
28 143
29 280
30 142
31 78
37 23
38 98
39 612
40 291
41 999
42 402
43 838
44 238
45 154
49 9
50 204
51 400
52 303
53 609
54 384
55 815
56 460
57 332
58 137
59 191
60 59
61 3
62 67
63 236
64 158
65 456
66 311
67 650
68 315
69 636
70 183
71 258
72 84
73 68
74 48
75 49
76 99
77 697
78 441
79 664
80 383
81 702
82 466
83 463
84 245
85 412
86 63
87 89
89 185
90 87
91 728
92 451
93 724
94 519
95 508
96 364
97 288
98 162
99 120
102 56
103 258
104 277
105 725
106 662
107 655
108 562
109 562
110 271
111 256
112 105
113 36
115 303
116 165
117 343
118 295
119 793
120 500
121 726
122 392
123 324
124 243
125 70
126 19
127 33
128 157
129 118
130 164
131 346
132 202
133 411
134 464
135 582
136 401
137 370
138 203
139 69
143 42
144 52
145 273
146 194
147 395
148 277
149 282
150 196
151 112
152 58
157 49
158 10
159 117
160 159
161 217
162 216
163 275
164 101
165 72
166 22
173 166
174 69
175 374
176 158
177 94
178 48
179 28
187 26
189 117
190 316
191 254
192 99
201 90
203 40
205 86
206 268
207 114
216 35
219 191
220 42
233 30
234 302
235 100

$$$$

     RDKit          2D

 10 10  0  0  0  0  0  0  0  0999 V2000
   -0.0000   -3.0000    0.0000 C   0  0  0  0  0  0  0  0  0  0  0  0
    2.5989    1.5002    0.0000 C   0  0  0  0  0  0  0  0  0  0  0  0
   -2.5989    1.5002    0.0000 C   0  0  0  0  0  0  0  0  0  0  0  0
    1.3000   -0.7500    0.0000 C   0  0  0  0  0  0  0  0  0  0  0  0
   -1.3000   -0.7500    0.0000 C   0  0  0  0  0  0  0  0  0  0  0  0
   -0.0000   -1.5000    0.0000 C   0  0  0  0  0  0  0  0  0  0  0  0
    1.3000    0.7500    0.0000 C   0  0  0  0  0  0  0  0  0  0  0  0
   -1.3000    0.7500    0.0000 C   0  0  0  0  0  0  0  0  0  0  0  0
   -0.0000    1.5000    0.0000 C   0  0  0  0  0  0  0  0  0  0  0  0
    0.0000    3.0000    0.0000 N   0  0  0  0  0  0  0  0  0  0  0  0
  6  1  1  0
  6  4  2  0
  6  5  1  0
  7  2  1  0
  7  4  1  0
  8  3  1  0
  8  5  2  0
  9  7  2  0
  9  8  1  0
 10  9  1  0
M  END
>  <NAME>  (3685) 
2,4,6-TRIMETHYLANILINE

>  <SYNONYMS>  (3685) 
MESIDINE

>  <SPECTRUM TYPE>  (3685) 
MS1

>  <INSTRUMENT TYPE>  (3685) 
EI-B

>  <INSTRUMENT>  (3685) 
HITACHI M-80

>  <ION MODE>  (3685) 
P

>  <INCHIKEY>  (3685) 
KWVPRPSXBZNOHS-UHFFFAOYSA-N

>  <FORMULA>  (3685) 
C9H13N

>  <EXACT MASS>  (3685) 
135.104799416

>  <MW>  (3685) 
135

>  <ID>  (3685) 
JP006303

>  <CONTRIBUTOR>  (3685) 
University of Tokyo Team, {Faculty of Engineering, University of Tokyo

>  <COMMENT>  (3685) 
SMILES=Cc(c1)cc(C)c(N)c(C)1
cas=88-05-1
InChI=InChI=1S/C9H13N/c1-6-4-7(2)9(10)8(3)5-6/h4-5H,10H2,1-3H3
computed SMILES=NC=1C(=CC(=CC1C)C)C
accession=JP006303
date=2016.01.19 (Created 2008.10.21, modified 2011.05.06)
author=MASS SPECTROSCOPY SOC. OF JAPAN (MSSJ)
license=CC BY-NC-SA
exact mass=135.1048
ionization energy=70 eV
ion type=[M]+*
computed spectral entropy=3.5542191690051124
computed normalized entropy=0.8284005985274585
SPLASH=splash10-0080-9700000000-d968eac9ad8e411b2f47
submitter=submitter = University of Tokyo Team (Faculty of Engineering, University of Tokyo)
MoNA Rating=3.75

>  <NUM PEAKS>  (3685) 
73

>  <MASS SPECTRAL PEAKS>  (3685) 
13 1.06
14 2.39
15 18.39
17 2.58
18 1.97
26 3.93
27 30.12
28 19.89
29 16.8
30 5.81
31 16.4
32 14.09
37 1.8
38 7.26
39 38.01
40 6.63
41 15.01
42 11.14
43 1.5
50 7.2
51 15.93
52 13.69
53 10.92
54 9.21
55 1.93
58 1.95
59 1.93
60 0.99
61 1.03
62 3.98
63 10.73
64 3.43
65 15.22
66 6.75
67 3.93
68 3.12
74 2.13
75 2.15
76 2.17
77 16.23
78 7.32
79 8.95
80 6.07
81 1.18
86 0.57
87 0.73
89 2.9
90 1.73
91 23.06
92 4.96
93 9.09
94 5.23
95 1.18
102 1.64
103 4.44
104 3.56
105 3.16
106 8.52
107 5.18
108 3.59
115 5.26
116 2.04
117 6.51
118 6.62
119 5.68
120 99.16
121 9.58
130 0.92
132 2.77
133 2.02
134 57.12
135 99.99
136 10.64

>  <PREDICTED SPECTRUM>  (3685) 
14 9
15 52
26 49
27 194
28 90
29 60
30 42
32 3
33 25
34 13
36 35
37 47
38 129
39 403
40 182
41 346
42 183
43 152
44 59
45 17
49 15
50 190
51 285
52 199
53 266
54 136
55 126
56 33
57 63
58 15
60 14
61 84
62 99
63 172
64 114
65 286
66 203
67 195
68 125
69 93
71 16
73 0
74 132
75 101
76 87
77 390
78 236
79 270
80 158
81 115
87 5
89 99
90 1
91 412
92 222
93 306
94 201
95 117
99 13
100 3
101 33
102 109
103 236
104 146
105 260
106 189
107 162
108 182
109 50
115 53
116 117
117 211
118 328
119 361
120 656
121 214
130 40
132 155
133 95
134 859
135 999
136 296
137 44

$$$$

     RDKit          2D

  8  7  0  0  1  0  0  0  0  0999 V2000
    1.6238    3.1875    0.0000 C   0  0  0  0  0  0  0  0  0  0  0  0
   -0.9743    3.1875    0.0000 C   0  0  0  0  0  0  0  0  0  0  0  0
   -2.2733    3.9375    0.0000 C   0  0  0  0  0  0  0  0  0  0  0  0
   -3.5724    3.1875    0.0000 C   0  0  0  0  0  0  0  0  0  0  0  0
   -2.2733    5.4375    0.0000 N   0  0  0  0  0  0  0  0  0  0  0  0
   -3.5724    1.6875    0.0000 O   0  0  0  0  0  0  0  0  0  0  0  0
   -4.8714    3.9375    0.0000 O   0  0  0  0  0  0  0  0  0  0  0  0
    0.3248    3.9375    0.0000 S   0  0  0  0  0  0  0  0  0  0  0  0
  3  2  1  0
  4  3  1  0
  3  5  1  1
  6  4  2  0
  7  4  1  0
  8  1  1  0
  8  2  1  0
M  END
>  <NAME>  (3686) 
S-METHYL-L-CYSTEINE

>  <SYNONYMS>  (3686) 


>  <SPECTRUM TYPE>  (3686) 
MS1

>  <INSTRUMENT TYPE>  (3686) 
EI-B

>  <INSTRUMENT>  (3686) 
HITACHI M-80

>  <ION MODE>  (3686) 
P

>  <INCHIKEY>  (3686) 
IDIDJDIHTAOVLG-VKHMYHEASA-N

>  <FORMULA>  (3686) 
C4H9NO2S

>  <EXACT MASS>  (3686) 
135.035399528

>  <MW>  (3686) 
135

>  <ID>  (3686) 
JP006302

>  <CONTRIBUTOR>  (3686) 
University of Tokyo Team, {Faculty of Engineering, University of Tokyo

>  <COMMENT>  (3686) 
SMILES=OC(=O)C(N)CSC
cas=1187-84-4
InChI=InChI=1S/C4H9NO2S/c1-8-2-3(5)4(6)7/h3H,2,5H2,1H3,(H,6,7)/t3-/m0/s1
computed SMILES=O=C(O)C(N)CSC
accession=JP006302
date=2016.01.19 (Created 2008.10.21, modified 2011.05.06)
author=MASS SPECTROSCOPY SOC. OF JAPAN (MSSJ)
license=CC BY-NC-SA
exact mass=135.0354
ionization energy=70 eV
ion type=[M]+*
computed spectral entropy=3.2942416027402794
computed normalized entropy=0.7891557226846944
SPLASH=splash10-03fv-9000000000-d790345dc4143a2c43ef
submitter=submitter = University of Tokyo Team (Faculty of Engineering, University of Tokyo)
MoNA Rating=3.75

>  <NUM PEAKS>  (3686) 
65

>  <MASS SPECTRAL PEAKS>  (3686) 
12 1.33
13 1.55
14 7.09
15 30.79
16 17.21
17 23.46
18 16.5
19 2.8
26 4.3
27 27
28 96.41
29 14.34
30 28.47
31 1.32
32 3.23
33 1.42
34 1.03
35 18
36 1.64
37 0.96
38 1.13
39 2.48
40 7.31
41 21.66
42 67.01
43 75.22
44 20.9
45 74.39
46 40.85
47 29.65
48 6.67
49 2.41
53 0.8
54 0.56
55 1.83
56 1.96
57 3.3
58 5.68
59 4.36
60 1.94
61 99.99
62 57.44
63 7.08
64 2.92
69 0.51
70 1.46
71 0.68
72 1.06
73 3.86
74 52.67
75 13.38
76 1.39
77 0.73
87 6.42
88 1.46
89 1.2
90 29.04
91 1.85
92 1.37
103 0.9
118 1.82
119 2.63
135 11.16
136 1.75
137 0.61

>  <PREDICTED SPECTRUM>  (3686) 
15 72
26 16
27 94
28 73
29 37
30 112
32 26
33 70
34 70
35 130
36 18
37 5
39 52
40 53
41 497
42 509
43 547
44 381
45 607
46 609
47 571
48 364
49 167
50 138
51 48
52 30
53 60
54 79
55 178
56 212
57 153
59 189
61 913
62 350
63 224
64 175
65 20
68 28
69 53
70 101
71 51
72 67
73 216
74 999
75 539
78 1
79 6
87 229
88 207
89 83
90 570
91 16
92 153
117 19
118 141
119 102
135 337
136 101
137 62

$$$$

     RDKit          2D

 15 16  0  0  0  0  0  0  0  0999 V2000
    3.8971    1.0700    0.0000 C   0  0  0  0  0  0  0  0  0  0  0  0
   -5.1962    4.8200    0.0000 C   0  0  0  0  0  0  0  0  0  0  0  0
    3.8976    2.5708    0.0000 C   0  0  0  0  0  0  0  0  0  0  0  0
    2.5976    0.3192    0.0000 C   0  0  0  0  0  0  0  0  0  0  0  0
   -3.8966    5.5708    0.0000 C   0  0  0  0  0  0  0  0  0  0  0  0
   -5.1966    3.3192    0.0000 C   0  0  0  0  0  0  0  0  0  0  0  0
    2.5986    3.3208    0.0000 C   0  0  0  0  0  0  0  0  0  0  0  0
    1.2986    1.0692    0.0000 C   0  0  0  0  0  0  0  0  0  0  0  0
   -2.5976    4.8208    0.0000 C   0  0  0  0  0  0  0  0  0  0  0  0
   -3.8976    2.5692    0.0000 C   0  0  0  0  0  0  0  0  0  0  0  0
    1.2990    2.5700    0.0000 C   0  0  0  0  0  0  0  0  0  0  0  0
   -2.5981    3.3200    0.0000 C   0  0  0  0  0  0  0  0  0  0  0  0
    0.0000    3.3200    0.0000 C   0  0  0  0  0  0  0  0  0  0  0  0
   -1.2990    2.5700    0.0000 N   0  0  0  0  0  0  0  0  0  0  0  0
    0.0000    4.8200    0.0000 O   0  0  0  0  0  0  0  0  0  0  0  0
  3  1  2  0
  4  1  1  0
  5  2  2  0
  6  2  1  0
  7  3  1  0
  8  4  2  0
  9  5  1  0
 10  6  2  0
 11  7  2  0
 11  8  1  0
 12  9  2  0
 12 10  1  0
 13 11  1  0
 14 12  1  0
 14 13  2  3
 15 13  1  0
M  END
>  <NAME>  (3687) 
BENZANILIDE

>  <SYNONYMS>  (3687) 


>  <SPECTRUM TYPE>  (3687) 
MS1

>  <INSTRUMENT TYPE>  (3687) 
EI-B

>  <INSTRUMENT>  (3687) 
HITACHI M-80

>  <ION MODE>  (3687) 
P

>  <INCHIKEY>  (3687) 
ZVSKZLHKADLHSD-UHFFFAOYSA-N

>  <FORMULA>  (3687) 
C13H11NO

>  <EXACT MASS>  (3687) 
197.084063972

>  <MW>  (3687) 
197

>  <ID>  (3687) 
JP006300

>  <CONTRIBUTOR>  (3687) 
University of Tokyo Team, {Faculty of Engineering, University of Tokyo

>  <COMMENT>  (3687) 
SMILES=O=C(Nc(c2)cccc2)c(c1)cccc1
cas=93-98-1
InChI=InChI=1S/C13H11NO/c15-13(11-7-3-1-4-8-11)14-12-9-5-2-6-10-12/h1-10H,(H,14,15)
computed SMILES=OC(=NC=1C=CC=CC1)C=2C=CC=CC2
accession=JP006300
date=2016.01.19 (Created 2008.10.21, modified 2011.05.06)
author=MASS SPECTROSCOPY SOC. OF JAPAN (MSSJ)
license=CC BY-NC-SA
exact mass=197.08406
ionization energy=70 eV
ion type=[M]+*
computed spectral entropy=2.276684699085358
computed normalized entropy=0.6693774114258398
SPLASH=splash10-0a4i-7900000000-beaf1f14ef82e35fd664
submitter=submitter = University of Tokyo Team (Faculty of Engineering, University of Tokyo)
MoNA Rating=3.75

>  <NUM PEAKS>  (3687) 
30

>  <MASS SPECTRAL PEAKS>  (3687) 
27 1.76
28 1.23
38 2.17
39 8.76
40 0.97
41 0.53
50 5.61
51 17.61
52 2.23
62 0.79
63 2.65
64 2.02
65 10.13
66 1.53
74 1.48
75 1.24
76 2.15
77 47.47
78 4.11
91 1.05
92 3.37
93 3.27
105 99.99
106 7.78
167 0.67
180 2.44
181 0.56
197 33.56
198 8.37
199 0.91

>  <PREDICTED SPECTRUM>  (3687) 
14 25
15 52
16 4
17 1
18 10
26 9
27 0
28 44
32 7
33 3
37 33
38 85
39 236
40 51
41 60
43 17
50 264
51 605
52 173
53 17
57 36
61 20
62 49
63 118
64 90
65 237
66 101
67 4
69 72
70 51
71 38
74 168
75 92
76 100
77 999
78 301
79 15
81 13
82 14
85 6
91 108
92 464
93 217
94 53
98 81
99 115
105 399
116 26
119 18
120 310
121 56
151 14
152 33
165 56
178 26
180 206
194 11
195 56
196 146
197 323
198 108

$$$$

     RDKit          2D

 15 16  0  0  0  0  0  0  0  0999 V2000
    3.2481    2.1950    0.0000 C   0  0  0  0  0  0  0  0  0  0  0  0
   -7.1442    2.1950    0.0000 C   0  0  0  0  0  0  0  0  0  0  0  0
    3.2486    3.6958    0.0000 C   0  0  0  0  0  0  0  0  0  0  0  0
    1.9486    1.4442    0.0000 C   0  0  0  0  0  0  0  0  0  0  0  0
   -5.8447    1.4442    0.0000 C   0  0  0  0  0  0  0  0  0  0  0  0
   -7.1447    3.6958    0.0000 C   0  0  0  0  0  0  0  0  0  0  0  0
    1.9495    4.4458    0.0000 C   0  0  0  0  0  0  0  0  0  0  0  0
    0.6495    2.1942    0.0000 C   0  0  0  0  0  0  0  0  0  0  0  0
   -4.5457    2.1942    0.0000 C   0  0  0  0  0  0  0  0  0  0  0  0
   -5.8457    4.4458    0.0000 C   0  0  0  0  0  0  0  0  0  0  0  0
   -0.6490    4.4450    0.0000 C   0  0  0  0  0  0  0  0  0  0  0  0
   -3.2471    4.4450    0.0000 C   0  0  0  0  0  0  0  0  0  0  0  0
    0.6500    3.6950    0.0000 C   0  0  0  0  0  0  0  0  0  0  0  0
   -4.5462    3.6950    0.0000 C   0  0  0  0  0  0  0  0  0  0  0  0
   -1.9481    3.6950    0.0000 N   0  0  0  0  0  0  0  0  0  0  0  0
  3  1  2  0
  4  1  1  0
  5  2  2  0
  6  2  1  0
  7  3  1  0
  8  4  2  0
  9  5  1  0
 10  6  2  0
 13  7  2  0
 13  8  1  0
 13 11  1  0
 14  9  2  0
 14 10  1  0
 14 12  1  0
 15 11  1  0
 15 12  1  0
M  END
>  <NAME>  (3688) 
DIBENZYLAMINE

>  <SYNONYMS>  (3688) 


>  <SPECTRUM TYPE>  (3688) 
MS1

>  <INSTRUMENT TYPE>  (3688) 
EI-B

>  <INSTRUMENT>  (3688) 
HITACHI M-80

>  <ION MODE>  (3688) 
P

>  <INCHIKEY>  (3688) 
BWLUMTFWVZZZND-UHFFFAOYSA-N

>  <FORMULA>  (3688) 
C14H15N

>  <EXACT MASS>  (3688) 
197.12044948

>  <MW>  (3688) 
197

>  <ID>  (3688) 
JP006297

>  <CONTRIBUTOR>  (3688) 
University of Tokyo Team, {Faculty of Engineering, University of Tokyo

>  <COMMENT>  (3688) 
SMILES=c(c2)ccc(c2)CNCc(c1)cccc1
cas=103-49-1
InChI=InChI=1S/C14H15N/c1-3-7-13(8-4-1)11-15-12-14-9-5-2-6-10-14/h1-10,15H,11-12H2
computed SMILES=C=1C=CC(=CC1)CNCC=2C=CC=CC2
accession=JP006297
date=2016.01.19 (Created 2008.10.21, modified 2011.05.06)
author=MASS SPECTROSCOPY SOC. OF JAPAN (MSSJ)
license=CC BY-NC-SA
exact mass=197.12045
ionization energy=70 eV
ion type=[M]+*
computed spectral entropy=3.1995935417362578
computed normalized entropy=0.8097687132508681
SPLASH=splash10-0006-9200000000-e142ee7e89298b4b6ea3
submitter=submitter = University of Tokyo Team (Faculty of Engineering, University of Tokyo)
MoNA Rating=3.75

>  <NUM PEAKS>  (3688) 
52

>  <MASS SPECTRAL PEAKS>  (3688) 
13 1.89
14 3.64
15 12.57
16 1.11
17 3.51
18 5.99
26 0.94
27 3.4
28 13.22
29 26.94
30 3.34
31 31.38
32 22.18
38 2.14
39 12.6
40 0.98
41 3.21
42 0.89
50 7.07
51 16.53
52 4.58
53 1.26
62 1.73
63 7.3
64 2.27
65 23.17
66 1.59
74 1.66
76 2.43
77 15.27
78 7.76
79 6.58
89 5.75
90 3.1
91 99.99
92 20.82
93 1.32
103 1.44
104 7.34
105 4.14
106 40.4
107 3.6
117 1.33
118 5.54
119 0.89
120 6.84
121 0.76
194 1.38
195 1.5
196 9.33
197 8.66
198 1.14

>  <PREDICTED SPECTRUM>  (3688) 
14 1
15 13
26 38
27 111
28 101
29 74
30 81
31 16
37 30
38 77
39 258
40 67
41 133
42 4
43 12
44 40
49 29
50 141
51 262
52 132
53 68
61 9
62 84
63 219
64 84
65 423
66 103
74 44
75 22
76 78
77 259
78 207
79 280
80 111
89 222
90 154
91 999
92 356
93 56
103 61
104 190
105 122
106 503
107 183
108 68
117 75
118 106
119 155
120 320
121 26
167 14
181 101
194 14
195 66
196 384
197 292
198 102

$$$$

     RDKit          2D

  9  9  0  0  0  0  0  0  0  0999 V2000
   -0.3325    2.4400    0.0000 C   0  0  0  0  0  0  0  0  0  0  0  0
   -1.6200   -1.3100    0.0000 C   0  0  0  0  0  0  0  0  0  0  0  0
   -0.3300   -2.0600    0.0000 C   0  0  0  0  0  0  0  0  0  0  0  0
   -1.6200    0.1900    0.0000 C   0  0  0  0  0  0  0  0  0  0  0  0
    0.9700   -1.3100    0.0000 C   0  0  0  0  0  0  0  0  0  0  0  0
    2.2689    0.9402    0.0000 C   0  0  0  0  0  0  0  0  0  0  0  0
   -0.3300    0.9400    0.0000 C   0  0  0  0  0  0  0  0  0  0  0  0
    0.9700    0.1900    0.0000 C   0  0  0  0  0  0  0  0  0  0  0  0
    3.5681    0.1904    0.0000 Br  0  0  0  0  0  0  0  0  0  0  0  0
  3  2  2  0
  4  2  1  0
  5  3  1  0
  7  1  1  0
  7  4  2  0
  8  5  2  0
  8  6  1  0
  8  7  1  0
  9  6  1  0
M  END
>  <NAME>  (3689) 
ALPHA-BROMO-O-XYLENE

>  <SYNONYMS>  (3689) 
2-METHYLBENZYL BROMIDE

>  <SPECTRUM TYPE>  (3689) 
MS1

>  <INSTRUMENT TYPE>  (3689) 
EI-B

>  <INSTRUMENT>  (3689) 
HITACHI M-80

>  <ION MODE>  (3689) 
P

>  <INCHIKEY>  (3689) 
WGVYCXYGPNNUQA-UHFFFAOYSA-N

>  <FORMULA>  (3689) 
C8H9Br

>  <EXACT MASS>  (3689) 
183.988762388

>  <MW>  (3689) 
184

>  <ID>  (3689) 
JP006296

>  <CONTRIBUTOR>  (3689) 
University of Tokyo Team, {Faculty of Engineering, University of Tokyo

>  <COMMENT>  (3689) 
SMILES=BrCc(c1)c(C)ccc1
cas=89-92-9
InChI=InChI=1S/C8H9Br/c1-7-4-2-3-5-8(7)6-9/h2-5H,6H2,1H3
computed SMILES=BrCC=1C=CC=CC1C
accession=JP006296
date=2016.01.19 (Created 2008.10.21, modified 2011.05.06)
author=MASS SPECTROSCOPY SOC. OF JAPAN (MSSJ)
license=CC BY-NC-SA
exact mass=183.98876
ionization energy=70 eV
ion type=[M]+*
computed spectral entropy=2.901935311993176
computed normalized entropy=0.7579543267369677
SPLASH=splash10-0a6r-9700000000-c7d4e2510ed9836b6041
submitter=submitter = University of Tokyo Team (Faculty of Engineering, University of Tokyo)
MoNA Rating=3.75

>  <NUM PEAKS>  (3689) 
46

>  <MASS SPECTRAL PEAKS>  (3689) 
15 2.8
26 3.14
27 10.73
28 1.22
29 1.1
31 1.26
32 1.11
37 1.68
38 5.22
39 15.25
40 1.61
41 0.83
49 1.07
50 10.3
51 18.4
52 7.18
53 2.47
61 1.54
62 4.24
63 9.63
64 2.01
65 3.52
66 0.58
74 2.84
75 2.08
76 2.19
77 17.96
78 11.61
79 14.58
80 1.09
81 2.85
82 0.93
87 0.63
89 2.88
90 1.1
91 1.88
92 0.63
102 2.6
103 13.08
104 8.71
105 99.99
106 9.21
171 0.52
184 4.58
185 0.64
186 4.44

>  <PREDICTED SPECTRUM>  (3689) 
15 9
26 112
27 227
28 49
29 53
37 63
38 143
39 362
40 123
41 132
44 54
45 5
49 41
50 281
51 422
52 281
53 147
54 43
55 8
58 5
61 85
62 128
63 244
64 162
65 276
66 103
74 124
75 208
76 113
77 536
78 373
79 320
80 156
81 33
82 52
83 49
86 84
87 54
88 43
89 66
90 70
91 265
92 35
101 48
102 174
103 515
104 435
105 999
106 322
107 41
184 227
185 87
186 202
187 62

$$$$

     RDKit          2D

  4  3  0  0  0  0  0  0  0  0999 V2000
   -2.5981    2.2500    0.0000 C   0  0  0  0  0  0  0  0  0  0  0  0
    0.0000    2.2500    0.0000 C   0  0  0  0  0  0  0  0  0  0  0  0
   -1.2990    1.5000    0.0000 N   0  0  0  0  0  0  0  0  0  0  0  0
    1.2990    1.5000    0.0000 O   0  0  0  0  0  0  0  0  0  0  0  0
  3  1  1  0
  3  2  2  3
  4  2  1  0
M  END
>  <NAME>  (3690) 
N-METHYLFORMAMIDE

>  <SYNONYMS>  (3690) 
N-FORMYLMETHYLAMINE

>  <SPECTRUM TYPE>  (3690) 
MS1

>  <INSTRUMENT TYPE>  (3690) 
EI-B

>  <INSTRUMENT>  (3690) 
HITACHI M-80

>  <ION MODE>  (3690) 
P

>  <INCHIKEY>  (3690) 
ATHHXGZTWNVVOU-UHFFFAOYSA-N

>  <FORMULA>  (3690) 
C2H5NO

>  <EXACT MASS>  (3690) 
59.03711378

>  <MW>  (3690) 
59

>  <ID>  (3690) 
JP006295

>  <CONTRIBUTOR>  (3690) 
University of Tokyo Team, {Faculty of Engineering, University of Tokyo

>  <COMMENT>  (3690) 
SMILES=CNC=O
cas=123-39-7
InChI=InChI=1S/C2H5NO/c1-3-2-4/h2H,1H3,(H,3,4)
computed SMILES=OC=NC
accession=JP006295
date=2016.01.19 (Created 2008.10.21, modified 2011.05.06)
author=MASS SPECTROSCOPY SOC. OF JAPAN (MSSJ)
license=CC BY-NC-SA
exact mass=59.03711
ionization energy=70 eV
ion type=[M]+*
computed spectral entropy=2.0234779537995076
computed normalized entropy=0.645345777874409
SPLASH=splash10-057i-9000000000-60a7888b3706e6c01b2b
submitter=submitter = University of Tokyo Team (Faculty of Engineering, University of Tokyo)
MoNA Rating=3.75

>  <NUM PEAKS>  (3690) 
23

>  <MASS SPECTRAL PEAKS>  (3690) 
12 1.04
13 2.12
14 3.82
15 13.69
16 1.48
18 0.87
26 1.19
27 11.69
28 85.67
29 36.48
30 99.99
31 3.89
32 1.33
38 1.19
39 1.32
40 1.73
41 2.59
42 1.64
43 2.25
44 1.25
58 7.39
59 80.69
60 6.67

>  <PREDICTED SPECTRUM>  (3690) 
14 106
15 232
16 66
17 15
18 50
19 10
25 66
26 239
27 461
28 441
29 538
30 999
31 407
32 69
37 42
38 234
39 375
40 327
41 689
42 980
43 586
44 358
45 186
53 103
57 382
58 367
59 971
60 300

$$$$

     RDKit          2D

 11 11  0  0  0  0  0  0  0  0999 V2000
   -1.3000    0.7500    0.0000 C   0  0  0  0  0  0  0  0  0  0  0  0
    0.0000   -1.5000    0.0000 C   0  0  0  0  0  0  0  0  0  0  0  0
    0.0000    1.5000    0.0000 C   0  0  0  0  0  0  0  0  0  0  0  0
    1.3000   -0.7500    0.0000 C   0  0  0  0  0  0  0  0  0  0  0  0
   -3.8981   -0.7504    0.0000 C   0  0  0  0  0  0  0  0  0  0  0  0
   -1.3000   -0.7500    0.0000 C   0  0  0  0  0  0  0  0  0  0  0  0
    1.3000    0.7500    0.0000 C   0  0  0  0  0  0  0  0  0  0  0  0
   -2.5989   -1.5002    0.0000 C   0  0  0  0  0  0  0  0  0  0  0  0
   -5.1970   -1.5006    0.0000 Br  0  0  0  0  0  0  0  0  0  0  0  0
    2.5989    1.5002    0.0000 Br  0  0  0  0  0  0  0  0  0  0  0  0
   -2.5987   -3.0002    0.0000 O   0  0  0  0  0  0  0  0  0  0  0  0
  3  1  2  0
  4  2  1  0
  6  1  1  0
  6  2  2  0
  7  3  1  0
  7  4  2  0
  8  5  1  0
  8  6  1  0
  9  5  1  0
 10  7  1  0
 11  8  2  0
M  END
>  <NAME>  (3691) 
2,4'-DIBROMOACETOPHENONE

>  <SYNONYMS>  (3691) 
4'-BROMOPHENACYL BROMIDE

>  <SPECTRUM TYPE>  (3691) 
MS1

>  <INSTRUMENT TYPE>  (3691) 
EI-B

>  <INSTRUMENT>  (3691) 
HITACHI M-80

>  <ION MODE>  (3691) 
P

>  <INCHIKEY>  (3691) 
FKJSFKCZZIXQIP-UHFFFAOYSA-N

>  <FORMULA>  (3691) 
C8H6Br2O

>  <EXACT MASS>  (3691) 
275.878539012

>  <MW>  (3691) 
276

>  <ID>  (3691) 
JP006294

>  <CONTRIBUTOR>  (3691) 
University of Tokyo Team, {Faculty of Engineering, University of Tokyo

>  <COMMENT>  (3691) 
SMILES=BrCC(=O)c(c1)ccc(Br)c1
cas=99-73-0
InChI=InChI=1S/C8H6Br2O/c9-5-8(11)6-1-3-7(10)4-2-6/h1-4H,5H2
computed SMILES=O=C(C1=CC=C(Br)C=C1)CBr
accession=JP006294
date=2016.01.19 (Created 2008.10.21, modified 2011.05.06)
author=MASS SPECTROSCOPY SOC. OF JAPAN (MSSJ)
license=CC BY-NC-SA
exact mass=275.87854
ionization energy=70 eV
ion type=[M]+*
computed spectral entropy=3.508973929133761
computed normalized entropy=0.7898378077746849
SPLASH=splash10-0kd3-9500000000-202189ff7d67a8b35f04
submitter=submitter = University of Tokyo Team (Faculty of Engineering, University of Tokyo)
MoNA Rating=3.75

>  <NUM PEAKS>  (3691) 
85

>  <MASS SPECTRAL PEAKS>  (3691) 
13 1.76
14 9.88
15 1.69
25 0.84
26 4.51
27 4.29
28 2.53
29 2.72
32 0.67
36 0.92
37 8.96
38 12.9
39 9.55
40 1.14
41 2.81
42 28.61
43 2.57
44 0.62
45 1.06
48 0.6
49 6.65
50 61.26
51 13.5
52 1.53
53 1.53
60 1.02
61 6.72
62 10.87
63 19.18
64 4.68
72 0.52
73 7.91
74 34.73
75 44.35
76 40.48
77 4.08
79 13.2
80 2.94
81 13.53
82 2.88
84 0.52
85 1.71
86 2.56
87 2.26
88 1.29
89 20.89
90 24.62
91 2.25
92 1.88
93 19.96
94 2.13
95 18.52
96 1.61
98 1.01
104 5.55
106 0.75
107 0.69
117 1.23
118 0.87
119 1.13
121 0.93
123 0.85
128 0.67
129 1.6
130 0.7
131 1.65
143 0.72
145 0.54
154 0.57
155 29.11
156 2.53
157 28.75
158 1.97
169 12.7
170 1.05
171 12.04
183 99.99
184 7.89
185 95.79
186 7.33
236 0.61
276 4.16
278 8.18
279 0.8
280 4.01

>  <PREDICTED SPECTRUM>  (3691) 
14 23
18 8
25 9
26 34
27 37
28 1
29 27
33 25
34 12
35 10
36 66
37 211
38 284
39 327
40 170
41 74
42 141
43 116
44 145
45 25
48 13
49 178
50 560
51 377
52 152
53 143
55 42
56 14
60 30
61 132
62 292
63 336
64 198
65 87
66 53
70 33
73 176
74 392
75 637
76 560
77 254
78 150
79 161
80 155
81 145
82 136
84 12
86 87
87 68
88 25
89 361
90 183
91 115
92 18
93 269
94 58
95 163
96 148
98 45
99 30
100 20
104 284
105 15
106 13
107 19
110 3
118 180
120 64
121 143
123 18
126 33
128 30
129 10
131 62
155 513
156 91
157 609
158 170
159 5
160 10
169 43
171 85
183 999
184 238
185 950
186 237
187 15
198 72
199 41
200 28
276 97
278 229
279 52
280 169

$$$$

     RDKit          2D

 12 12  0  0  1  0  0  0  0  0999 V2000
   -2.6578    1.9493    0.0000 C   0  0  0  0  0  0  0  0  0  0  0  0
   -1.7955    0.7219    0.0000 C   0  0  0  0  0  0  0  0  0  0  0  0
    0.6884   -0.2708    0.0000 C   0  0  0  0  0  0  0  0  0  0  0  0
    2.0628    0.3098    0.0000 C   0  0  0  0  0  0  0  0  0  0  0  0
   -0.3014    0.8549    0.0000 C   0  0  0  0  0  0  0  0  0  0  0  0
    1.9330    1.8050    0.0000 C   0  0  0  0  0  0  0  0  0  0  0  0
   -4.1518    1.8162    0.0000 O   0  0  0  0  0  0  0  0  0  0  0  0
   -2.4273   -0.6386    0.0000 O   0  0  0  0  0  0  0  0  0  0  0  0
    0.3538   -1.7330    0.0000 O   0  0  0  0  0  0  0  0  0  0  0  0
    3.3476   -0.4643    0.0000 O   0  0  0  0  0  0  0  0  0  0  0  0
    3.0645    2.7897    0.0000 O   0  0  0  0  0  0  0  0  0  0  0  0
    0.4746    2.1389    0.0000 O   0  0  0  0  0  0  0  0  0  0  0  0
  2  1  1  0
  4  3  2  0
  5  2  1  0
  5  3  1  0
  6  4  1  0
  7  1  1  0
  2  8  1  1
  9  3  1  0
 10  4  1  0
 11  6  2  0
  5 12  1  1
 12  6  1  0
M  END
>  <NAME>  (3692) 
L-ASCORBIC ACID

>  <SYNONYMS>  (3692) 
VITAMIN C

>  <SPECTRUM TYPE>  (3692) 
MS1

>  <INSTRUMENT TYPE>  (3692) 
EI-B

>  <INSTRUMENT>  (3692) 
HITACHI M-80

>  <ION MODE>  (3692) 
P

>  <INCHIKEY>  (3692) 
CIWBSHSKHKDKBQ-JLAZNSOCSA-N

>  <FORMULA>  (3692) 
C6H8O6

>  <EXACT MASS>  (3692) 
176.03208797599999

>  <MW>  (3692) 
176

>  <ID>  (3692) 
JP006292

>  <CONTRIBUTOR>  (3692) 
University of Tokyo Team, {Faculty of Engineering, University of Tokyo

>  <COMMENT>  (3692) 
SMILES=OCC(O)C(O1)C(O)=C(O)C(=O)1
cas=50-81-7
InChI=InChI=1S/C6H8O6/c7-1-2(8)5-3(9)4(10)6(11)12-5/h2,5,7-10H,1H2/t2-,5+/m0/s1
computed SMILES=O=C1OC(C(O)=C1O)C(O)CO
accession=JP006292
date=2016.01.19 (Created 2008.10.21, modified 2011.05.06)
author=MASS SPECTROSCOPY SOC. OF JAPAN (MSSJ)
license=CC BY-NC-SA
exact mass=176.03209
ionization energy=70 eV
ion type=[M]+*
computed spectral entropy=2.8005050516381647
computed normalized entropy=0.6957168632206416
SPLASH=splash10-004i-4900000000-e99089fd55560fb70cfe
submitter=submitter = University of Tokyo Team (Faculty of Engineering, University of Tokyo)
MoNA Rating=3.75

>  <NUM PEAKS>  (3692) 
56

>  <MASS SPECTRAL PEAKS>  (3692) 
15 1.18
30 0.98
31 5.83
39 1.32
41 0.72
42 1.73
43 10.57
44 1.91
45 2.56
53 0.59
54 1.2
55 4.65
56 0.99
57 1.42
58 2.28
59 1.21
60 1.12
61 4.13
68 0.65
69 1.92
70 2.69
71 5.02
72 0.95
73 1.92
74 0.52
76 1.05
81 0.94
83 0.55
84 0.87
85 9.73
86 0.52
87 1.74
88 0.6
89 0.94
91 1.17
95 2.71
97 1.72
100 1.3
101 2.64
102 1.78
113 2.77
115 3.83
116 17.04
117 1.16
119 3.01
129 2.76
130 0.66
131 2.15
141 9.46
142 0.7
159 4.79
161 0.72
176 2.74
177 99.99
178 7.11
179 1.5

>  <PREDICTED SPECTRUM>  (3692) 
14 46
15 100
16 24
17 39
18 73
19 44
25 34
26 115
27 275
28 246
29 306
30 105
31 332
32 66
33 66
35 28
36 39
37 13
38 57
39 99
40 106
41 213
42 293
43 999
44 491
45 510
46 101
47 149
49 83
51 16
52 18
53 180
54 192
55 299
56 82
57 315
58 178
59 284
60 448
61 320
62 13
65 36
69 307
70 220
71 390
72 173
73 319
74 185
75 41
78 26
82 143
83 81
84 20
85 216
86 158
87 187
88 224
89 107
98 88
99 146
100 262
101 182
102 265
103 122
104 54
114 39
115 157
116 224
117 141
118 35
127 35
128 53
129 131
130 32
131 52
134 22
146 106
158 55
176 66

$$$$

     RDKit          2D

 11 11  0  0  0  0  0  0  0  0999 V2000
   -0.0000   -1.5000    0.0000 C   0  0  0  0  0  0  0  0  0  0  0  0
   -1.3000    0.7500    0.0000 C   0  0  0  0  0  0  0  0  0  0  0  0
    1.3000   -0.7500    0.0000 C   0  0  0  0  0  0  0  0  0  0  0  0
    0.0000    1.5000    0.0000 C   0  0  0  0  0  0  0  0  0  0  0  0
   -1.3000   -0.7500    0.0000 C   0  0  0  0  0  0  0  0  0  0  0  0
    1.3000    0.7500    0.0000 C   0  0  0  0  0  0  0  0  0  0  0  0
   -2.5989   -1.5002    0.0000 N   0  0  0  0  0  0  0  0  0  0  0  0
    3.3491    0.2013    0.0000 N   0  0  0  0  0  0  0  0  0  0  0  0
    3.8978    2.2504    0.0000 O   0  0  0  0  0  0  0  0  0  0  0  0
    1.8487    2.7991    0.0000 O   0  0  0  0  0  0  0  0  0  0  0  0
    2.5989    1.5002    0.0000 S   0  0  0  0  0  0  0  0  0  0  0  0
  3  1  2  0
  4  2  1  0
  5  1  1  0
  5  2  2  0
  6  3  1  0
  6  4  2  0
  7  5  1  0
 11  6  1  0
 11  8  1  0
 11  9  2  0
 11 10  2  0
M  END
>  <NAME>  (3693) 
SULFANILAMIDE

>  <SYNONYMS>  (3693) 


>  <SPECTRUM TYPE>  (3693) 
MS1

>  <INSTRUMENT TYPE>  (3693) 
EI-B

>  <INSTRUMENT>  (3693) 
HITACHI M-80

>  <ION MODE>  (3693) 
P

>  <INCHIKEY>  (3693) 
FDDDEECHVMSUSB-UHFFFAOYSA-N

>  <FORMULA>  (3693) 
C6H8N2O2S

>  <EXACT MASS>  (3693) 
172.030648496

>  <MW>  (3693) 
172

>  <ID>  (3693) 
JP006291

>  <CONTRIBUTOR>  (3693) 
University of Tokyo Team, {Faculty of Engineering, University of Tokyo

>  <COMMENT>  (3693) 
SMILES=Nc(c1)ccc(c1)S(N)(=O)=O
cas=63-74-1
InChI=InChI=1S/C6H8N2O2S/c7-5-1-3-6(4-2-5)11(8,9)10/h1-4H,7H2,(H2,8,9,10)
computed SMILES=O=S(=O)(N)C1=CC=C(N)C=C1
accession=JP006291
date=2016.01.19 (Created 2008.10.21, modified 2011.05.06)
author=MASS SPECTROSCOPY SOC. OF JAPAN (MSSJ)
license=CC BY-NC-SA
exact mass=172.03065
ionization energy=70 eV
ion type=[M]+*
computed spectral entropy=2.779009784314917
computed normalized entropy=0.7140642607943771
SPLASH=splash10-0avl-9800000000-517ec40f53253fdb0135
submitter=submitter = University of Tokyo Team (Faculty of Engineering, University of Tokyo)
MoNA Rating=3.75

>  <NUM PEAKS>  (3693) 
49

>  <MASS SPECTRAL PEAKS>  (3693) 
15 0.61
27 1.75
28 11.39
32 1.98
38 1.52
39 18.56
40 1.26
41 5.59
42 2.54
43 0.96
44 0.96
45 0.59
46 0.68
48 0.95
50 0.96
51 1.57
52 5.41
53 5.88
54 4.66
55 0.54
62 0.75
63 7.31
64 11.08
65 70.78
66 10.04
67 0.9
75 0.71
78 0.86
79 1.02
80 16.03
81 2.3
90 2.49
91 7.06
92 81.93
93 7.12
106 0.55
107 8.24
108 51.25
109 5.93
123 0.95
124 0.75
125 0.5
140 4.44
156 72.92
157 5.74
158 3.77
172 99.99
173 8.53
174 5.35

>  <PREDICTED SPECTRUM>  (3693) 
16 47
17 38
18 8
25 2
26 42
27 91
28 69
29 68
36 30
37 81
38 177
39 408
40 74
41 285
43 1
44 30
45 65
46 78
48 83
49 35
50 139
51 127
52 167
53 220
54 143
55 24
61 61
62 190
63 399
64 394
65 931
66 314
67 81
74 55
75 20
80 273
81 96
82 69
91 362
92 999
93 402
94 188
107 193
108 813
109 350
140 59
156 756
157 255
158 213
172 965
173 312
174 227
175 34

$$$$

     RDKit          2D

 15 15  0  0  0  0  0  0  0  0999 V2000
    7.7951    1.5010    0.0000 C   0  0  0  0  0  0  0  0  0  0  0  0
   -0.0000   -1.5000    0.0000 C   0  0  0  0  0  0  0  0  0  0  0  0
   -1.3000    0.7500    0.0000 C   0  0  0  0  0  0  0  0  0  0  0  0
    1.3000   -0.7500    0.0000 C   0  0  0  0  0  0  0  0  0  0  0  0
    0.0000    1.5000    0.0000 C   0  0  0  0  0  0  0  0  0  0  0  0
   -1.3000   -0.7500    0.0000 C   0  0  0  0  0  0  0  0  0  0  0  0
    1.3000    0.7500    0.0000 C   0  0  0  0  0  0  0  0  0  0  0  0
    5.1970    1.5006    0.0000 C   0  0  0  0  0  0  0  0  0  0  0  0
   -2.5989   -1.5002    0.0000 N   0  0  0  0  0  0  0  0  0  0  0  0
    3.8981    0.7504    0.0000 N   0  0  0  0  0  0  0  0  0  0  0  0
    5.1968    3.0006    0.0000 O   0  0  0  0  0  0  0  0  0  0  0  0
    3.5629    2.6494    0.0000 O   0  0  0  0  0  0  0  0  0  0  0  0
    1.6346    2.6491    0.0000 O   0  0  0  0  0  0  0  0  0  0  0  0
    6.4962    0.7508    0.0000 O   0  0  0  0  0  0  0  0  0  0  0  0
    2.5989    1.5002    0.0000 S   0  0  0  0  0  0  0  0  0  0  0  0
  4  2  2  0
  5  3  1  0
  6  2  1  0
  6  3  2  0
  7  4  1  0
  7  5  2  0
  9  6  1  0
 10  8  2  3
 11  8  1  0
 14  1  1  0
 14  8  1  0
 15  7  1  0
 15 10  1  0
 15 12  2  0
 15 13  2  0
M  END
>  <NAME>  (3694) 
METHYL (4-AMINOBENZENESULFONYL)CARBAMATE

>  <SYNONYMS>  (3694) 
ASULAM

>  <SPECTRUM TYPE>  (3694) 
MS1

>  <INSTRUMENT TYPE>  (3694) 
EI-B

>  <INSTRUMENT>  (3694) 
HITACHI M-80

>  <ION MODE>  (3694) 
P

>  <INCHIKEY>  (3694) 
VGPYEHKOIGNJKV-UHFFFAOYSA-N

>  <FORMULA>  (3694) 
C8H10N2O4S

>  <EXACT MASS>  (3694) 
230.0361278

>  <MW>  (3694) 
230

>  <ID>  (3694) 
JP006290

>  <CONTRIBUTOR>  (3694) 
University of Tokyo Team, {Faculty of Engineering, University of Tokyo

>  <COMMENT>  (3694) 
SMILES=COC(=O)NS(=O)(=O)c(c1)ccc(N)c1
InChI=InChI=1S/C8H10N2O4S/c1-14-8(11)10-15(12,13)7-4-2-6(9)3-5-7/h2-5H,9H2,1H3,(H,10,11)
computed SMILES=O=S(=O)(N=C(O)OC)C1=CC=C(N)C=C1
accession=JP006290
date=2016.01.19 (Created 2008.10.21, modified 2011.05.06)
author=MASS SPECTROSCOPY SOC. OF JAPAN (MSSJ)
license=CC BY-NC-SA
exact mass=230.03613
ionization energy=70 eV
ion type=[M]+*
computed spectral entropy=3.227243482295167
computed normalized entropy=0.7731059131885123
SPLASH=splash10-0a5c-9500000000-5c27b1b83dc177d76639
submitter=submitter = University of Tokyo Team (Faculty of Engineering, University of Tokyo)
MoNA Rating=3.75

>  <NUM PEAKS>  (3694) 
65

>  <MASS SPECTRAL PEAKS>  (3694) 
14 1.15
15 20.61
27 1.23
28 5.53
29 25.31
30 4.12
31 38.41
32 68.42
33 4.65
38 2.12
39 17.98
40 1.3
41 5.47
42 2.52
43 1.04
44 1.97
48 1.3
50 1.06
51 1.77
52 6.02
53 4.61
54 2.97
58 2.5
59 4.79
62 1.09
63 7.52
64 8.48
65 67.65
66 9.62
67 0.97
78 1.2
79 2.44
80 10.15
81 1.15
90 3.55
91 7.32
92 99.99
93 8.4
94 0.65
105 1.32
106 1.99
107 7.57
108 55.35
109 67.26
110 4.79
123 2.02
124 0.8
134 4.03
135 0.68
140 6.02
141 0.57
156 63.93
157 5.11
158 3.27
166 11.98
167 1.33
172 1.52
173 4.08
187 0.75
198 18.19
199 2.06
200 1
230 33.98
231 4.35
232 2.05

>  <PREDICTED SPECTRUM>  (3694) 
14 2
15 42
16 4
17 0
26 23
27 91
28 106
29 95
30 34
31 72
32 32
33 51
34 9
37 15
38 101
39 292
40 97
41 285
42 244
43 140
44 99
45 148
46 58
48 73
49 8
50 137
51 138
52 176
53 147
54 113
55 58
56 52
57 25
58 85
59 74
60 119
62 80
63 288
64 271
65 784
66 263
67 4
68 8
69 41
74 80
75 140
76 112
77 136
78 85
79 118
80 252
81 65
83 36
84 24
85 1
90 80
91 320
92 999
93 274
94 106
99 1
104 49
105 14
106 173
107 100
108 804
109 178
111 70
112 7
113 13
117 43
118 15
119 51
120 48
122 52
123 26
126 53
130 27
131 11
139 17
140 424
141 31
142 30
143 59
144 5
145 42
154 23
155 36
156 799
157 311
158 272
165 75
166 182
167 54
169 22
170 0
171 140
172 185
173 76
183 30
184 10
198 138
199 183
230 733
231 281
232 183
233 54

$$$$

     RDKit          2D

 17 18  0  0  0  0  0  0  0  0999 V2000
   -3.7326    1.3580    0.0000 C   0  0  0  0  0  0  0  0  0  0  0  0
    5.3257    4.6950    0.0000 C   0  0  0  0  0  0  0  0  0  0  0  0
    6.6244    2.4442    0.0000 C   0  0  0  0  0  0  0  0  0  0  0  0
    4.0253    3.9458    0.0000 C   0  0  0  0  0  0  0  0  0  0  0  0
    5.3239    1.6950    0.0000 C   0  0  0  0  0  0  0  0  0  0  0  0
   -1.2434    2.3076    0.0000 C   0  0  0  0  0  0  0  0  0  0  0  0
   -2.2412    1.1974    0.0000 C   0  0  0  0  0  0  0  0  0  0  0  0
    6.6253    3.9442    0.0000 C   0  0  0  0  0  0  0  0  0  0  0  0
    4.0244    2.4458    0.0000 C   0  0  0  0  0  0  0  0  0  0  0  0
    0.1269    1.6975    0.0000 C   0  0  0  0  0  0  0  0  0  0  0  0
    7.9247    4.6936    0.0000 N   0  0  0  0  0  0  0  0  0  0  0  0
   -0.0304    0.2131    0.0000 N   0  0  0  0  0  0  0  0  0  0  0  0
    1.4263    2.4469    0.0000 N   0  0  0  0  0  0  0  0  0  0  0  0
    1.7603    0.5477    0.0000 O   0  0  0  0  0  0  0  0  0  0  0  0
    3.6887    0.5468    0.0000 O   0  0  0  0  0  0  0  0  0  0  0  0
   -1.4978   -0.1078    0.0000 O   0  0  0  0  0  0  0  0  0  0  0  0
    2.7250    1.6963    0.0000 S   0  0  0  0  0  0  0  0  0  0  0  0
  4  2  2  0
  5  3  1  0
  7  1  1  0
  7  6  2  0
  8  2  1  0
  8  3  2  0
  9  4  1  0
  9  5  2  0
 10  6  1  0
 11  8  1  0
 12 10  2  0
 13 10  1  0
 16  7  1  0
 16 12  1  0
 17  9  1  0
 17 13  1  0
 17 14  2  0
 17 15  2  0
M  END
>  <NAME>  (3695) 
SULFOMETHOXAZOLE

>  <SYNONYMS>  (3695) 
4-AMINO-N'-(5-METHYL-3-ISOXAZOLYL)-BENZENESULFONAMIDE

>  <SPECTRUM TYPE>  (3695) 
MS1

>  <INSTRUMENT TYPE>  (3695) 
EI-B

>  <INSTRUMENT>  (3695) 
HITACHI M-80

>  <ION MODE>  (3695) 
P

>  <INCHIKEY>  (3695) 
JLKIGFTWXXRPMT-UHFFFAOYSA-N

>  <FORMULA>  (3695) 
C10H11N3O3S

>  <EXACT MASS>  (3695) 
253.05211221199997

>  <MW>  (3695) 
253

>  <ID>  (3695) 
JP006289

>  <CONTRIBUTOR>  (3695) 
University of Tokyo Team, {Faculty of Engineering, University of Tokyo

>  <COMMENT>  (3695) 
SMILES=Nc(c2)ccc(c2)S(=O)(=O)Nc(n1)cc(C)o1
InChI=InChI=1S/C10H11N3O3S/c1-7-6-10(12-16-7)13-17(14,15)9-4-2-8(11)3-5-9/h2-6H,11H2,1H3,(H,12,13)
computed SMILES=O=S(=O)(NC1=NOC(=C1)C)C2=CC=C(N)C=C2
computed normalized entropy=0.770047610949711
accession=JP006289
date=2016.01.19 (Created 2008.10.21, modified 2011.05.06)
author=MASS SPECTROSCOPY SOC. OF JAPAN (MSSJ)
license=CC BY-NC-SA
exact mass=253.05211
ionization energy=70 eV
ion type=[M]+*
computed spectral entropy=3.1780899732723773
SPLASH=splash10-05mo-8900000000-8a6ba1e89f89f5cb1e3c
submitter=submitter = University of Tokyo Team (Faculty of Engineering, University of Tokyo)
MoNA Rating=3.75

>  <NUM PEAKS>  (3695) 
62

>  <MASS SPECTRAL PEAKS>  (3695) 
15 0.99
27 1.37
28 5.75
30 0.9
39 10.65
40 1.65
41 5.59
42 2.53
43 10.97
52 3.9
53 2.43
54 2.02
55 1.75
63 2.4
64 4.72
65 48.36
66 8.39
67 5.12
68 2.04
69 1.49
78 0.87
79 3.03
80 6.1
81 0.62
83 0.91
90 1.36
91 5.88
92 99.99
93 10.18
97 0.91
98 1.1
105 1.96
106 8.74
107 5.21
108 54.39
109 4.38
118 3.46
119 33.35
120 3.09
123 0.79
124 0.68
140 9.59
141 0.85
142 0.52
145 0.63
146 2.41
147 2.82
156 49.74
157 5.13
158 2.68
160 1.53
162 35.32
163 3.85
174 19.25
175 2.1
188 4.75
189 11.39
190 1.39
191 0.55
253 11.69
254 2.81
255 1.96

>  <PREDICTED SPECTRUM>  (3695) 
15 2
26 19
27 53
28 71
33 8
34 8
37 55
38 149
39 393
40 165
41 282
42 183
43 203
44 55
45 19
48 90
50 115
51 164
52 327
53 217
54 191
55 156
56 114
57 24
58 19
62 77
63 301
64 388
65 795
66 365
67 136
68 69
69 131
70 58
71 25
74 31
76 59
77 111
78 82
79 36
80 191
81 195
82 101
83 38
90 33
91 181
92 999
93 363
94 75
95 72
96 23
97 213
98 141
99 49
104 103
105 168
106 196
107 125
108 867
109 269
110 16
113 31
117 37
118 106
119 319
120 246
121 114
122 42
129 7
130 53
131 111
132 293
133 197
134 88
135 48
140 154
144 31
145 261
146 278
147 460
148 188
149 30
156 830
157 340
158 279
160 74
162 66
172 154
173 175
174 251
175 145
188 262
189 466
190 179
191 9
192 16
253 192
254 37
255 66
256 5

$$$$

     RDKit          2D

  9  9  0  0  0  0  0  0  0  0999 V2000
    0.0000    2.3300    0.0000 C   0  0  0  0  0  0  0  0  0  0  0  0
    0.0000   -2.1700    0.0000 C   0  0  0  0  0  0  0  0  0  0  0  0
    1.3000   -1.4200    0.0000 C   0  0  0  0  0  0  0  0  0  0  0  0
   -1.3000   -1.4200    0.0000 C   0  0  0  0  0  0  0  0  0  0  0  0
    0.0000    0.8300    0.0000 C   0  0  0  0  0  0  0  0  0  0  0  0
    1.3000    0.0800    0.0000 C   0  0  0  0  0  0  0  0  0  0  0  0
   -1.3000    0.0800    0.0000 C   0  0  0  0  0  0  0  0  0  0  0  0
    2.5989    0.8302    0.0000 Cl  0  0  0  0  0  0  0  0  0  0  0  0
   -2.5989    0.8302    0.0000 Cl  0  0  0  0  0  0  0  0  0  0  0  0
  3  2  2  0
  4  2  1  0
  5  1  1  0
  6  3  1  0
  6  5  2  0
  7  4  2  0
  7  5  1  0
  8  6  1  0
  9  7  1  0
M  END
>  <NAME>  (3696) 
2,6-DICHLOROTOLUENE

>  <SYNONYMS>  (3696) 


>  <SPECTRUM TYPE>  (3696) 
MS1

>  <INSTRUMENT TYPE>  (3696) 
EI-B

>  <INSTRUMENT>  (3696) 
HITACHI M-80

>  <ION MODE>  (3696) 
P

>  <INCHIKEY>  (3696) 
DMEDNTFWIHCBRK-UHFFFAOYSA-N

>  <FORMULA>  (3696) 
C7H6Cl2

>  <EXACT MASS>  (3696) 
159.984655552

>  <MW>  (3696) 
160

>  <ID>  (3696) 
JP006284

>  <CONTRIBUTOR>  (3696) 
University of Tokyo Team, {Faculty of Engineering, University of Tokyo

>  <COMMENT>  (3696) 
SMILES=Cc(c(Cl)1)c(Cl)ccc1
cas=118-69-4
InChI=InChI=1S/C7H6Cl2/c1-5-6(8)3-2-4-7(5)9/h2-4H,1H3
computed SMILES=ClC1=CC=CC(Cl)=C1C
accession=JP006284
date=2016.01.19 (Created 2008.10.21, modified 2011.05.06)
author=MASS SPECTROSCOPY SOC. OF JAPAN (MSSJ)
license=CC BY-NC-SA
exact mass=159.98466
ionization energy=70 eV
ion type=[M]+*
computed spectral entropy=3.3670633549053246
computed normalized entropy=0.8007870395513076
SPLASH=splash10-03fr-8900000000-17059a3df3d916b83d85
submitter=submitter = University of Tokyo Team (Faculty of Engineering, University of Tokyo)
MoNA Rating=3.75

>  <NUM PEAKS>  (3696) 
67

>  <MASS SPECTRAL PEAKS>  (3696) 
13 0.5
14 1.41
15 4.17
26 4.02
27 3.56
28 1.36
29 7.21
30 0.89
31 10.48
32 7.16
35 2.63
36 2.78
37 6.91
38 7.33
39 12.31
40 0.76
43 3.25
44 5.13
45 0.75
47 1.62
48 0.92
49 4.6
50 10.82
51 8.75
52 0.89
60 3.31
61 9.83
62 21.07
63 34.05
64 4.33
65 1.5
72 2.24
73 12.35
74 5.83
75 6.69
76 0.6
84 2.89
85 4.9
86 6.37
87 7.52
88 2.42
89 56.05
90 8.89
91 1.5
96 0.98
97 6.03
98 0.83
99 9.94
100 0.62
101 2.75
109 1
110 0.47
111 0.44
123 6.91
124 14.57
125 99.99
126 14.98
127 44.93
128 3.61
133 1.57
159 9.67
160 73.06
161 12.14
162 47.67
163 4.67
164 7.75
165 0.59

>  <PREDICTED SPECTRUM>  (3696) 
14 35
15 32
18 28
25 42
26 76
27 89
28 83
30 58
31 36
32 12
33 5
35 136
36 127
37 220
38 236
39 280
40 68
43 16
44 77
47 98
48 126
49 254
50 439
51 457
52 107
53 52
55 70
56 104
57 36
58 25
60 173
61 401
62 409
63 511
64 158
65 117
69 41
70 8
71 30
72 132
73 415
74 332
75 415
76 48
80 18
81 63
82 28
83 133
84 166
85 295
86 324
87 267
88 171
89 551
90 343
91 254
92 12
94 41
95 10
96 108
97 143
98 82
99 162
100 119
101 87
107 99
108 43
109 95
110 49
111 64
112 15
123 280
124 158
125 999
126 337
127 722
128 212
129 107
133 132
159 69
160 719
161 289
162 643
163 188
164 289
165 72

$$$$

     RDKit          2D

 12 13  0  0  0  0  0  0  0  0999 V2000
   -2.7200   -1.0200    0.0000 C   0  0  0  0  0  0  0  0  0  0  0  0
   -2.7200    0.4800    0.0000 C   0  0  0  0  0  0  0  0  0  0  0  0
    2.4800   -1.0200    0.0000 C   0  0  0  0  0  0  0  0  0  0  0  0
   -1.4200   -1.7700    0.0000 C   0  0  0  0  0  0  0  0  0  0  0  0
    1.1800   -1.7700    0.0000 C   0  0  0  0  0  0  0  0  0  0  0  0
    2.4800    0.4800    0.0000 C   0  0  0  0  0  0  0  0  0  0  0  0
   -1.4200    1.2300    0.0000 C   0  0  0  0  0  0  0  0  0  0  0  0
    1.1800    2.7300    0.0000 C   0  0  0  0  0  0  0  0  0  0  0  0
   -0.1200   -1.0200    0.0000 C   0  0  0  0  0  0  0  0  0  0  0  0
    1.1800    1.2300    0.0000 C   0  0  0  0  0  0  0  0  0  0  0  0
   -0.1200    0.4800    0.0000 C   0  0  0  0  0  0  0  0  0  0  0  0
    2.4790    3.4800    0.0000 Cl  0  0  0  0  0  0  0  0  0  0  0  0
  2  1  2  0
  4  1  1  0
  5  3  2  0
  6  3  1  0
  7  2  1  0
  9  4  2  0
  9  5  1  0
 10  6  2  0
 10  8  1  0
 11  7  2  0
 11  9  1  0
 11 10  1  0
 12  8  1  0
M  END
>  <NAME>  (3697) 
1-(CHLOROMETHYL)NAPHTHALENE

>  <SYNONYMS>  (3697) 


>  <SPECTRUM TYPE>  (3697) 
MS1

>  <INSTRUMENT TYPE>  (3697) 
EI-B

>  <INSTRUMENT>  (3697) 
HITACHI M-80

>  <ION MODE>  (3697) 
P

>  <INCHIKEY>  (3697) 
XMWGTKZEDLCVIG-UHFFFAOYSA-N

>  <FORMULA>  (3697) 
C11H9Cl

>  <EXACT MASS>  (3697) 
176.039277968

>  <MW>  (3697) 
176

>  <ID>  (3697) 
JP006283

>  <CONTRIBUTOR>  (3697) 
University of Tokyo Team, {Faculty of Engineering, University of Tokyo

>  <COMMENT>  (3697) 
SMILES=ClCc(c1)c(c2)c(ccc2)cc1
cas=86-52-2
InChI=InChI=1S/C11H9Cl/c12-8-10-6-3-5-9-4-1-2-7-11(9)10/h1-7H,8H2
computed SMILES=ClCC1=CC=CC=2C=CC=CC21
accession=JP006283
date=2016.01.19 (Created 2008.10.21, modified 2011.05.06)
author=MASS SPECTROSCOPY SOC. OF JAPAN (MSSJ)
license=CC BY-NC-SA
exact mass=176.03928
ionization energy=70 eV
ion type=[M]+*
computed spectral entropy=2.7744580909360383
computed normalized entropy=0.6988045592984621
SPLASH=splash10-0006-2900000000-f3e776903abb3ddf0a8f
submitter=submitter = University of Tokyo Team (Faculty of Engineering, University of Tokyo)
MoNA Rating=3.75

>  <NUM PEAKS>  (3697) 
53

>  <MASS SPECTRAL PEAKS>  (3697) 
28 1.28
29 2.41
31 3.23
32 2.36
35 0.65
36 0.43
37 0.67
38 1.81
39 4.5
50 3.23
51 3.41
52 0.74
57 2.65
61 1.03
62 4.17
63 7.47
64 0.91
65 1.26
69 2.12
70 2.98
74 3.4
75 2.49
76 1.39
77 0.76
85 0.65
86 2.09
87 3.07
88 2.19
89 3.76
91 0.98
98 0.86
99 0.62
102 1.14
113 3.11
114 1.9
115 25.49
116 2.43
126 0.83
127 0.51
128 0.73
137 0.61
138 0.95
139 17.17
140 4.4
141 99.99
142 13.27
143 0.79
149 0.91
175 0.96
176 23.96
177 3.23
178 7.69
179 0.91

>  <PREDICTED SPECTRUM>  (3697) 
27 27
32 2
35 22
36 61
37 17
38 79
39 181
40 17
44 25
49 67
50 168
51 249
52 51
55 17
56 14
57 139
58 47
61 85
62 151
63 245
64 112
65 123
69 23
70 44
71 57
73 43
74 164
75 180
76 161
77 138
81 24
82 116
83 38
84 37
85 36
86 141
87 127
88 83
89 171
90 6
91 70
98 113
99 14
100 30
101 66
102 132
107 13
108 16
109 8
113 18
114 17
115 536
116 91
121 30
125 88
126 85
127 264
128 53
129 290
138 36
139 303
140 339
141 999
142 375
143 73
150 24
151 138
152 62
176 681
177 209
178 398
179 106

$$$$

     RDKit          2D

  9  9  0  0  0  0  0  0  0  0999 V2000
    3.8981   -0.7504    0.0000 C   0  0  0  0  0  0  0  0  0  0  0  0
    2.5987   -3.0002    0.0000 C   0  0  0  0  0  0  0  0  0  0  0  0
   -0.0000    1.5000    0.0000 C   0  0  0  0  0  0  0  0  0  0  0  0
   -1.3000    0.7500    0.0000 C   0  0  0  0  0  0  0  0  0  0  0  0
    1.3000    0.7500    0.0000 C   0  0  0  0  0  0  0  0  0  0  0  0
   -1.3000   -0.7500    0.0000 C   0  0  0  0  0  0  0  0  0  0  0  0
    1.3000   -0.7500    0.0000 C   0  0  0  0  0  0  0  0  0  0  0  0
   -0.0000   -1.5000    0.0000 N   0  0  0  0  0  0  0  0  0  0  0  0
    2.5989   -1.5002    0.0000 N   0  0  0  0  0  0  0  0  0  0  0  0
  4  3  2  0
  5  3  1  0
  6  4  1  0
  7  5  2  0
  8  6  2  0
  8  7  1  0
  9  1  1  0
  9  2  1  0
  9  7  1  0
M  END
>  <NAME>  (3698) 
2-DIMETHYLAMINOPYRIDINE

>  <SYNONYMS>  (3698) 


>  <SPECTRUM TYPE>  (3698) 
MS1

>  <INSTRUMENT TYPE>  (3698) 
EI-B

>  <INSTRUMENT>  (3698) 
HITACHI M-80

>  <ION MODE>  (3698) 
P

>  <INCHIKEY>  (3698) 
PSHKMPUSSFXUIA-UHFFFAOYSA-N

>  <FORMULA>  (3698) 
C7H10N2

>  <EXACT MASS>  (3698) 
122.08439831999999

>  <MW>  (3698) 
122

>  <ID>  (3698) 
JP006281

>  <CONTRIBUTOR>  (3698) 
University of Tokyo Team, {Faculty of Engineering, University of Tokyo

>  <COMMENT>  (3698) 
SMILES=CN(C)c(c1)nccc1
cas=5683-33-0
InChI=InChI=1S/C7H10N2/c1-9(2)7-5-3-4-6-8-7/h3-6H,1-2H3
computed SMILES=N=1C=CC=CC1N(C)C
accession=JP006281
date=2016.01.19 (Created 2008.10.21, modified 2011.05.06)
author=MASS SPECTROSCOPY SOC. OF JAPAN (MSSJ)
license=CC BY-NC-SA
exact mass=122.0844
ionization energy=70 eV
ion type=[M]+*
computed spectral entropy=3.106740423638892
computed normalized entropy=0.7982743769405618
SPLASH=splash10-00mo-9100000000-fe4ecba803adb634dabd
submitter=submitter = University of Tokyo Team (Faculty of Engineering, University of Tokyo)
MoNA Rating=3.75

>  <NUM PEAKS>  (3698) 
49

>  <MASS SPECTRAL PEAKS>  (3698) 
13 1.1
14 10.33
15 99.99
16 1.57
26 7.72
27 10.22
28 39.65
29 4.7
30 0.85
37 3.03
38 6.55
39 14.38
40 11.09
41 13.64
42 70.46
43 7.71
44 7.26
49 2.95
50 13.12
51 22.72
52 21.58
53 9
54 1.65
55 0.78
63 1.1
64 2.55
65 1.69
66 1.9
67 1.03
68 0.99
69 1.47
75 2.65
76 4.88
77 1.72
78 33.58
79 31.41
80 7.14
81 0.62
92 2.6
93 39.9
94 4.58
95 0.5
105 1.39
106 0.57
107 49.23
108 4.14
121 5.32
122 25.38
123 3.25

>  <PREDICTED SPECTRUM>  (3698) 
26 5
27 45
28 51
29 32
30 39
37 15
38 118
39 159
40 91
41 55
42 335
43 116
44 448
45 61
46 17
49 33
50 137
51 278
52 343
53 205
54 113
60 53
62 36
63 60
64 92
65 132
66 160
67 159
69 109
74 14
75 30
76 87
77 146
78 543
79 429
80 373
81 151
82 8
90 58
91 88
92 169
93 827
94 353
95 123
105 127
106 208
107 999
108 307
109 82
119 74
120 64
121 403
122 824
123 225
124 11

$$$$

     RDKit          2D

 12 14  0  0  0  0  0  0  0  0999 V2000
   -2.6000   -1.2500    0.0000 C   0  0  0  0  0  0  0  0  0  0  0  0
    2.6000   -1.2500    0.0000 C   0  0  0  0  0  0  0  0  0  0  0  0
   -1.3000   -2.0000    0.0000 C   0  0  0  0  0  0  0  0  0  0  0  0
    1.3000   -2.0000    0.0000 C   0  0  0  0  0  0  0  0  0  0  0  0
   -2.6000    0.2500    0.0000 C   0  0  0  0  0  0  0  0  0  0  0  0
    2.6000    0.2500    0.0000 C   0  0  0  0  0  0  0  0  0  0  0  0
   -1.3000    2.5000    0.0000 C   0  0  0  0  0  0  0  0  0  0  0  0
    1.3000    2.5000    0.0000 C   0  0  0  0  0  0  0  0  0  0  0  0
    0.0000   -1.2500    0.0000 C   0  0  0  0  0  0  0  0  0  0  0  0
   -1.3000    1.0000    0.0000 C   0  0  0  0  0  0  0  0  0  0  0  0
    1.3000    1.0000    0.0000 C   0  0  0  0  0  0  0  0  0  0  0  0
    0.0000    0.2500    0.0000 C   0  0  0  0  0  0  0  0  0  0  0  0
  3  1  2  0
  4  2  1  0
  5  1  1  0
  6  2  2  0
  8  7  1  0
  9  3  1  0
  9  4  2  0
 10  5  2  0
 10  7  1  0
 11  6  1  0
 11  8  1  0
 12  9  1  0
 12 10  1  0
 12 11  2  0
M  END
>  <NAME>  (3699) 
ACENAPHTHENE

>  <SYNONYMS>  (3699) 


>  <SPECTRUM TYPE>  (3699) 
MS1

>  <INSTRUMENT TYPE>  (3699) 
EI-B

>  <INSTRUMENT>  (3699) 
HITACHI M-80

>  <ION MODE>  (3699) 
P

>  <INCHIKEY>  (3699) 
CWRYPZZKDGJXCA-UHFFFAOYSA-N

>  <FORMULA>  (3699) 
C12H10

>  <EXACT MASS>  (3699) 
154.07825032

>  <MW>  (3699) 
154

>  <ID>  (3699) 
JP006280

>  <CONTRIBUTOR>  (3699) 
University of Tokyo Team, {Faculty of Engineering, University of Tokyo

>  <COMMENT>  (3699) 
SMILES=c(c3)cc(C1)c(c32)c(ccc2)C1
cas=83-32-9
InChI=InChI=1S/C12H10/c1-3-9-4-2-6-11-8-7-10(5-1)12(9)11/h1-6H,7-8H2
computed SMILES=C=1C=C2C=CC=C3C2=C(C1)CC3
accession=JP006280
date=2016.01.19 (Created 2008.10.21, modified 2011.05.06)
author=MASS SPECTROSCOPY SOC. OF JAPAN (MSSJ)
license=CC BY-NC-SA
exact mass=154.07825
ionization energy=70 eV
ion type=[M]+*
computed spectral entropy=3.3521226258615293
computed normalized entropy=0.825555885689042
SPLASH=splash10-0w2i-9200000000-50dd4c10ddaf643da72f
submitter=submitter = University of Tokyo Team (Faculty of Engineering, University of Tokyo)
MoNA Rating=3.75

>  <NUM PEAKS>  (3699) 
58

>  <MASS SPECTRAL PEAKS>  (3699) 
26 34.48
27 67.61
28 3.98
29 1.02
37 7.3
38 38.76
39 99.99
40 6.07
41 1.81
49 1.97
50 59.77
51 51.89
52 12.14
53 1.49
61 10.88
62 42.02
63 74.64
64 9.81
65 4.59
73 2.41
74 36.62
75 32.2
76 16.39
77 9.84
78 3.45
85 4.47
86 18.85
87 29.47
88 7.48
89 9.48
90 0.97
97 0.88
98 11.53
99 6.74
100 3.17
101 2.89
102 10.92
103 1.21
109 0.94
111 2.87
112 1.11
113 7.47
114 1.76
115 7.92
122 1.07
124 0.68
125 0.72
126 7.09
127 4.07
128 2.84
139 1.19
150 5.11
151 9.07
152 22.69
153 45.91
154 59.16
155 8.62
156 0.71

>  <PREDICTED SPECTRUM>  (3699) 
26 27
27 58
38 23
39 155
41 25
43 40
44 26
49 27
50 142
51 163
52 60
53 7
55 5
56 20
57 45
62 165
63 219
64 53
69 67
70 39
73 0
74 189
75 226
76 232
77 61
81 70
82 77
83 82
84 15
85 39
86 117
87 192
88 112
89 80
94 6
95 27
96 15
98 127
99 66
100 148
101 165
102 183
110 93
113 96
114 46
115 202
124 24
125 87
126 316
127 322
128 223
129 27
137 8
138 45
139 271
140 71
149 37
150 226
151 415
152 787
153 999
154 962
155 372
156 83

$$$$

     RDKit          2D

 10 10  0  0  0  0  0  0  0  0999 V2000
    0.0008   -2.2500    0.0000 C   0  0  0  0  0  0  0  0  0  0  0  0
   -1.2992    0.0000    0.0000 C   0  0  0  0  0  0  0  0  0  0  0  0
   -1.2992   -3.0000    0.0000 C   0  0  0  0  0  0  0  0  0  0  0  0
   -2.5992   -0.7500    0.0000 C   0  0  0  0  0  0  0  0  0  0  0  0
    0.0008   -0.7500    0.0000 C   0  0  0  0  0  0  0  0  0  0  0  0
   -2.5992   -2.2500    0.0000 C   0  0  0  0  0  0  0  0  0  0  0  0
    1.2998    0.0002    0.0000 C   0  0  0  0  0  0  0  0  0  0  0  0
   -3.8981   -3.0002    0.0000 I   0  0  0  0  0  0  0  0  0  0  0  0
    2.5989   -0.7496    0.0000 O   0  0  0  0  0  0  0  0  0  0  0  0
    1.2995    1.5002    0.0000 O   0  0  0  0  0  0  0  0  0  0  0  0
  3  1  2  0
  4  2  1  0
  5  1  1  0
  5  2  2  0
  6  3  1  0
  6  4  2  0
  7  5  1  0
  8  6  1  0
  9  7  1  0
 10  7  2  0
M  END
>  <NAME>  (3700) 
4-IODOBENZOIC ACID

>  <SYNONYMS>  (3700) 


>  <SPECTRUM TYPE>  (3700) 
MS1

>  <INSTRUMENT TYPE>  (3700) 
EI-B

>  <INSTRUMENT>  (3700) 
HITACHI M-80

>  <ION MODE>  (3700) 
P

>  <INCHIKEY>  (3700) 
GHICCUXQJBDNRN-UHFFFAOYSA-N

>  <FORMULA>  (3700) 
C7H5IO2

>  <EXACT MASS>  (3700) 
247.9334274

>  <MW>  (3700) 
248

>  <ID>  (3700) 
JP006273

>  <CONTRIBUTOR>  (3700) 
University of Tokyo Team, {Faculty of Engineering, University of Tokyo

>  <COMMENT>  (3700) 
SMILES=OC(=O)c(c1)ccc(I)c1
cas=619-58-9
InChI=InChI=1S/C7H5IO2/c8-6-3-1-5(2-4-6)7(9)10/h1-4H,(H,9,10)
computed SMILES=O=C(O)C1=CC=C(I)C=C1
accession=JP006273
date=2016.01.19 (Created 2008.10.21, modified 2011.05.06)
author=MASS SPECTROSCOPY SOC. OF JAPAN (MSSJ)
license=CC BY-NC-SA
exact mass=247.93342
ionization energy=70 eV
ion type=[M]+*
computed spectral entropy=2.542183810853162
computed normalized entropy=0.6939104774008215
SPLASH=splash10-0002-6190000000-91b2a2b8b1809074e7ca
submitter=submitter = University of Tokyo Team (Faculty of Engineering, University of Tokyo)
MoNA Rating=3.75

>  <NUM PEAKS>  (3700) 
39

>  <MASS SPECTRAL PEAKS>  (3700) 
37 1.19
38 1.56
49 1
50 14.71
51 6.13
53 1.49
62 0.58
63 1.38
64 0.88
65 30.73
66 1.8
73 1.59
74 8.06
75 9.62
76 19.01
77 2.71
78 1.07
92 0.93
93 1.88
103 2.39
104 4.47
105 0.95
110 1.05
121 12.08
122 1.3
127 4.26
128 1.42
152 0.79
153 0.75
186 0.88
203 7.19
204 0.78
220 0.88
231 34.32
232 2.63
242 0.94
248 99.99
249 9.54
250 0.84

>  <PREDICTED SPECTRUM>  (3700) 
14 1
17 17
18 32
25 24
26 38
27 34
28 8
29 21
33 5
34 10
36 84
37 203
38 243
39 223
40 122
42 19
44 148
45 338
49 195
50 697
51 451
52 193
53 216
54 16
57 85
60 66
61 183
62 142
63 128
64 26
65 283
66 129
68 89
73 315
74 512
75 558
76 863
77 482
78 144
79 58
80 24
81 106
85 17
86 11
91 20
92 83
93 157
94 74
104 340
105 160
119 21
121 222
127 351
128 108
203 476
204 99
231 999
232 245
247 23
248 852
249 224
250 43

$$$$

     RDKit          2D

 15 15  0  0  0  0  0  0  0  0999 V2000
   -2.3900   -2.2000    0.0000 C   0  0  0  0  0  0  0  0  0  0  0  0
   -1.1500   -3.0400    0.0000 C   0  0  0  0  0  0  0  0  0  0  0  0
   -3.1900    0.1700    0.0000 C   0  0  0  0  0  0  0  0  0  0  0  0
   -2.7700    1.6200    0.0000 C   0  0  0  0  0  0  0  0  0  0  0  0
    1.3500   -2.9400    0.0000 C   0  0  0  0  0  0  0  0  0  0  0  0
    2.5100   -1.9900    0.0000 C   0  0  0  0  0  0  0  0  0  0  0  0
   -0.7800    3.1700    0.0000 C   0  0  0  0  0  0  0  0  0  0  0  0
    0.7000    3.1700    0.0000 C   0  0  0  0  0  0  0  0  0  0  0  0
    3.1500    0.3100    0.0000 C   0  0  0  0  0  0  0  0  0  0  0  0
    2.6500    1.7400    0.0000 C   0  0  0  0  0  0  0  0  0  0  0  0
   -1.9800   -0.7200    0.0000 O   0  0  0  0  0  0  0  0  0  0  0  0
    0.0500   -2.1300    0.0000 O   0  0  0  0  0  0  0  0  0  0  0  0
   -1.2800    1.7000    0.0000 O   0  0  0  0  0  0  0  0  0  0  0  0
    1.9700   -0.5900    0.0000 O   0  0  0  0  0  0  0  0  0  0  0  0
    1.1700    1.7400    0.0000 O   0  0  0  0  0  0  0  0  0  0  0  0
  2  1  1  0
  4  3  1  0
  6  5  1  0
  8  7  1  0
 10  9  1  0
 11  1  1  0
 11  3  1  0
 12  2  1  0
 12  5  1  0
 13  4  1  0
 13  7  1  0
 14  6  1  0
 14  9  1  0
 15  8  1  0
 15 10  1  0
M  END
>  <NAME>  (3701) 
15-CROWN-5

>  <SYNONYMS>  (3701) 
1,4,7,10,13-PENTAOXACYCLOPENTADECANE

>  <SPECTRUM TYPE>  (3701) 
MS1

>  <INSTRUMENT TYPE>  (3701) 
EI-B

>  <INSTRUMENT>  (3701) 
HITACHI M-80

>  <ION MODE>  (3701) 
P

>  <INCHIKEY>  (3701) 
VFTFKUDGYRBSAL-UHFFFAOYSA-N

>  <FORMULA>  (3701) 
C10H20O5

>  <EXACT MASS>  (3701) 
220.13107373999998

>  <MW>  (3701) 
220

>  <ID>  (3701) 
JP006268

>  <CONTRIBUTOR>  (3701) 
University of Tokyo Team, {Faculty of Engineering, University of Tokyo

>  <COMMENT>  (3701) 
SMILES=C(C1)OCCOCCOCCOCCO1
cas=33100-27-5
InChI=InChI=1S/C10H20O5/c1-2-12-5-6-14-9-10-15-8-7-13-4-3-11-1/h1-10H2
computed SMILES=O1CCOCCOCCOCCOCC1
accession=JP006268
date=2016.01.19 (Created 2008.10.21, modified 2011.05.06)
author=MASS SPECTROSCOPY SOC. OF JAPAN (MSSJ)
license=CC BY-NC-SA
exact mass=220.13107
ionization energy=70 eV
ion type=[M]+*
computed spectral entropy=3.1940305750655194
computed normalized entropy=0.8044825530745167
SPLASH=splash10-000m-9100000000-b7f8e0574d3f521b51e2
submitter=submitter = University of Tokyo Team (Faculty of Engineering, University of Tokyo)
MoNA Rating=3.75

>  <NUM PEAKS>  (3701) 
53

>  <MASS SPECTRAL PEAKS>  (3701) 
15 5.4
19 1.48
26 1.84
27 11.23
28 36.23
29 22.11
30 5.2
31 27.76
32 9.31
41 5.4
42 13.91
43 60.23
44 40.07
45 99.99
46 2.69
56 2.03
57 11.2
58 22.9
59 20.53
60 1.45
61 1.28
69 0.95
70 6.2
71 9.25
72 15.98
73 32.62
74 1.55
75 4.34
86 5.69
87 30.75
88 25.73
89 57.3
90 2.95
91 0.65
99 0.87
100 0.8
101 10.11
102 2.82
103 2.67
104 0.7
105 1.41
114 0.87
115 1.7
116 0.92
117 4.8
118 1.31
119 1.06
131 4.83
132 0.65
133 27.99
134 1.79
177 2.39
221 0.62

>  <PREDICTED SPECTRUM>  (3701) 
14 32
15 97
16 27
17 9
18 23
19 23
25 1
26 88
27 196
28 289
29 334
30 120
31 331
32 31
33 11
41 51
42 337
43 724
44 557
45 999
46 146
47 49
54 47
55 46
56 80
57 289
58 475
59 313
60 57
69 45
70 256
71 225
72 338
73 415
74 66
75 88
76 2
85 56
86 285
87 342
88 212
89 422
90 106
91 12
99 150
100 77
101 228
102 54
103 257
114 48
115 125
117 109
132 92
133 263
134 78
159 5
161 75
177 71
190 31

$$$$

     RDKit          2D

 11 11  0  0  0  0  0  0  0  0999 V2000
   -1.3000    0.7500    0.0000 C   0  0  0  0  0  0  0  0  0  0  0  0
    0.0000    1.5000    0.0000 C   0  0  0  0  0  0  0  0  0  0  0  0
   -1.3000   -0.7500    0.0000 C   0  0  0  0  0  0  0  0  0  0  0  0
    1.3000    0.7500    0.0000 C   0  0  0  0  0  0  0  0  0  0  0  0
    0.0000   -1.5000    0.0000 C   0  0  0  0  0  0  0  0  0  0  0  0
    1.3000   -0.7500    0.0000 C   0  0  0  0  0  0  0  0  0  0  0  0
    2.5989   -1.5002    0.0000 N   0  0  0  0  0  0  0  0  0  0  0  0
    2.5989    1.5002    0.0000 O   0  0  0  0  0  0  0  0  0  0  0  0
   -0.0000   -3.0000    0.0000 O   0  0  0  0  0  0  0  0  0  0  0  0
    3.8981   -0.7504    0.0000 O   0  0  0  0  0  0  0  0  0  0  0  0
    2.5987   -3.0002    0.0000 O   0  0  0  0  0  0  0  0  0  0  0  0
  2  1  2  0
  3  1  1  0
  4  2  1  0
  5  3  2  0
  6  4  2  0
  6  5  1  0
  7  6  1  0
  8  4  1  0
  9  5  1  0
 10  7  1  0
 11  7  2  0
M  CHG  2   7   1  10  -1
M  END
>  <NAME>  (3702) 
2-NITRORESORCINOL

>  <SYNONYMS>  (3702) 


>  <SPECTRUM TYPE>  (3702) 
MS1

>  <INSTRUMENT TYPE>  (3702) 
EI-B

>  <INSTRUMENT>  (3702) 
HITACHI M-80

>  <ION MODE>  (3702) 
P

>  <INCHIKEY>  (3702) 
ZLCPKMIJYMHZMJ-UHFFFAOYSA-N

>  <FORMULA>  (3702) 
C6H5NO4

>  <EXACT MASS>  (3702) 
155.02185764

>  <MW>  (3702) 
155

>  <ID>  (3702) 
JP006266

>  <CONTRIBUTOR>  (3702) 
University of Tokyo Team, {Faculty of Engineering, University of Tokyo

>  <COMMENT>  (3702) 
SMILES=[O-1][N+1](=O)c(c(O)1)c(O)ccc1
cas=601-89-8
InChI=InChI=1S/C6H5NO4/c8-4-2-1-3-5(9)6(4)7(10)11/h1-3,8-9H
computed SMILES=O=N(=O)C=1C(O)=CC=CC1O
accession=JP006266
date=2016.01.19 (Created 2008.10.21, modified 2011.05.06)
author=MASS SPECTROSCOPY SOC. OF JAPAN (MSSJ)
license=CC BY-NC-SA
exact mass=155.02186
ionization energy=70 eV
ion type=[M]+*
computed spectral entropy=2.881241795736657
computed normalized entropy=0.7327999928980247
SPLASH=splash10-0a4i-8900000000-515f30ef784e83de0569
submitter=submitter = University of Tokyo Team (Faculty of Engineering, University of Tokyo)
MoNA Rating=3.75

>  <NUM PEAKS>  (3702) 
51

>  <MASS SPECTRAL PEAKS>  (3702) 
26 1.62
27 2.29
29 1.47
30 4.39
37 2.24
38 4.33
39 14.71
40 1.42
41 1.17
42 0.95
49 1.44
50 6.15
51 13.01
54 7.3
55 6.29
56 0.54
61 1.67
62 3.39
63 5.54
64 1.99
65 3.63
66 4.18
67 1.39
68 2.64
69 2.14
70 4.09
77 1.55
78 0.56
79 7.54
80 5.45
81 26.77
82 2.7
83 0.56
91 1.43
93 11.09
94 2.81
95 33.6
96 4.5
97 1.65
107 1.26
108 1.45
109 99.99
110 6.28
111 0.65
122 2.29
137 14.59
138 1.81
139 1.63
155 81.43
156 6.61
157 0.87

>  <PREDICTED SPECTRUM>  (3702) 
16 1
18 20
25 11
26 78
27 143
28 79
29 164
30 146
31 57
32 11
33 7
34 14
36 59
37 134
38 212
39 384
40 200
41 370
42 184
43 109
44 121
45 98
46 177
47 8
49 80
50 164
51 323
52 414
53 555
54 404
55 344
56 47
57 115
61 42
62 109
63 230
64 196
65 141
66 77
67 178
68 197
69 400
70 100
71 101
72 3
75 21
77 30
78 19
79 306
80 448
81 719
82 373
83 147
84 34
91 71
92 163
93 210
94 53
95 194
96 55
97 224
98 66
99 11
107 209
108 373
109 650
110 350
111 136
122 38
125 93
127 16
137 132
138 197
139 102
155 999
156 285
157 47

$$$$

     RDKit          2D

 15 15  0  0  0  0  0  0  0  0999 V2000
    1.6244   -3.1882    0.0000 C   0  0  0  0  0  0  0  0  0  0  0  0
    0.3248   -2.4373    0.0000 C   0  0  0  0  0  0  0  0  0  0  0  0
    2.9234   -2.4382    0.0000 C   0  0  0  0  0  0  0  0  0  0  0  0
    0.3244   -0.9365    0.0000 C   0  0  0  0  0  0  0  0  0  0  0  0
    2.9229   -0.9373    0.0000 C   0  0  0  0  0  0  0  0  0  0  0  0
    1.6234   -0.1865    0.0000 C   0  0  0  0  0  0  0  0  0  0  0  0
   -0.9748   -0.1867    0.0000 C   0  0  0  0  0  0  0  0  0  0  0  0
    1.6236    1.3135    0.0000 C   0  0  0  0  0  0  0  0  0  0  0  0
    4.2220   -0.1873    0.0000 N   0  0  0  0  0  0  0  0  0  0  0  0
   -0.9750    1.3133    0.0000 O   0  0  0  0  0  0  0  0  0  0  0  0
   -2.2737   -0.9369    0.0000 O   0  0  0  0  0  0  0  0  0  0  0  0
    0.3247    2.0637    0.0000 O   0  0  0  0  0  0  0  0  0  0  0  0
    2.9228    2.0633    0.0000 O   0  0  0  0  0  0  0  0  0  0  0  0
    5.5210   -0.9373    0.0000 O   0  0  0  0  0  0  0  0  0  0  0  0
    4.2220    1.3127    0.0000 O   0  0  0  0  0  0  0  0  0  0  0  0
  2  1  2  0
  3  1  1  0
  4  2  1  0
  5  3  2  0
  6  4  2  0
  6  5  1  0
  7  4  1  0
  8  6  1  0
  9  5  1  0
 10  7  2  0
 11  7  1  0
 12  8  2  0
 13  8  1  0
 14  9  1  0
 15  9  2  0
M  CHG  2   9   1  14  -1
M  END
>  <NAME>  (3703) 
3-NITROPHTHALIC ACID

>  <SYNONYMS>  (3703) 


>  <SPECTRUM TYPE>  (3703) 
MS1

>  <INSTRUMENT TYPE>  (3703) 
EI-B

>  <INSTRUMENT>  (3703) 
HITACHI M-80

>  <ION MODE>  (3703) 
P

>  <INCHIKEY>  (3703) 
KFIRODWJCYBBHY-UHFFFAOYSA-N

>  <FORMULA>  (3703) 
C8H5NO6

>  <EXACT MASS>  (3703) 
211.01168687999998

>  <MW>  (3703) 
211

>  <ID>  (3703) 
JP006265

>  <CONTRIBUTOR>  (3703) 
University of Tokyo Team, {Faculty of Engineering, University of Tokyo

>  <COMMENT>  (3703) 
SMILES=OC(=O)c(c1)c(C(O)=O)c(cc1)[N+1]([O-1])=O
cas=603-11-2
InChI=InChI=1S/C8H5NO6/c10-7(11)4-2-1-3-5(9(14)15)6(4)8(12)13/h1-3H,(H,10,11)(H,12,13)
computed SMILES=O=C(O)C1=CC=CC(=C1C(=O)O)N(=O)=O
accession=JP006265
date=2016.01.19 (Created 2008.10.21, modified 2011.05.06)
author=MASS SPECTROSCOPY SOC. OF JAPAN (MSSJ)
license=CC BY-NC-SA
exact mass=211.01169
ionization energy=70 eV
ion type=[M]+*
computed spectral entropy=3.455963183250728
computed normalized entropy=0.8107489379778334
SPLASH=splash10-016s-9800000000-fb85d9e5b63ce3083e3d
submitter=submitter = University of Tokyo Team (Faculty of Engineering, University of Tokyo)
MoNA Rating=3.75

>  <NUM PEAKS>  (3703) 
71

>  <MASS SPECTRAL PEAKS>  (3703) 
30 11.96
37 3.65
38 4.52
39 12.09
40 0.59
44 3.35
45 8.99
46 2.85
49 2.93
50 17.82
51 9.41
52 2.11
53 11.65
54 0.58
55 3.27
61 3.68
62 6.52
63 23.81
64 12.43
65 38.43
66 4.58
67 0.77
69 1.76
73 8.33
74 43.28
75 94.31
76 16.15
77 8.61
78 1.89
79 2.36
80 0.71
81 26.25
82 1.49
89 0.91
90 1.4
91 21.51
92 19.23
93 14.41
94 1.3
103 22.46
104 11.22
105 7.11
106 1.21
107 6.3
108 0.96
109 6.52
110 0.5
119 30.47
120 5.44
121 37.83
122 3.39
123 20.56
124 1.42
135 0.79
137 11
138 1.11
147 5.49
148 3.4
149 89.7
150 8.95
151 1.15
163 1.09
167 99.99
168 8.42
169 1.18
177 1.32
193 1
194 10.08
195 1.74
211 5.86
212 0.85

>  <PREDICTED SPECTRUM>  (3703) 
16 40
17 48
18 125
25 34
26 23
28 82
29 201
30 334
32 33
34 27
36 127
37 324
38 361
39 447
40 220
41 67
42 16
43 195
44 601
45 652
46 239
48 72
49 156
50 535
51 414
52 299
53 527
54 55
55 195
56 24
57 109
58 12
60 67
61 326
62 524
63 620
64 432
65 669
66 308
67 126
68 70
69 36
71 62
73 330
74 862
75 999
76 277
77 244
79 326
80 267
81 351
82 56
83 66
85 26
87 2
89 228
90 137
91 534
92 465
93 299
94 57
102 72
103 518
104 215
105 144
107 152
108 238
109 295
110 6
119 502
120 319
121 460
122 59
123 138
133 8
134 53
135 88
137 44
147 319
148 372
149 982
150 526
151 255
163 256
164 11
165 112
166 11
167 642
168 138
181 209
182 20
193 60
194 241
195 40
211 424
212 28

$$$$

     RDKit          2D

 11 11  0  0  0  0  0  0  0  0999 V2000
   -3.8981    0.3879    0.0000 C   0  0  0  0  0  0  0  0  0  0  0  0
   -0.0000   -1.8800    0.0000 C   0  0  0  0  0  0  0  0  0  0  0  0
    1.3000   -1.1200    0.0000 C   0  0  0  0  0  0  0  0  0  0  0  0
   -1.3000   -1.1200    0.0000 C   0  0  0  0  0  0  0  0  0  0  0  0
    0.0000    1.1200    0.0000 C   0  0  0  0  0  0  0  0  0  0  0  0
    1.3000    0.3800    0.0000 C   0  0  0  0  0  0  0  0  0  0  0  0
   -1.3000    0.3800    0.0000 C   0  0  0  0  0  0  0  0  0  0  0  0
    2.5967    1.1340    0.0000 N   0  0  0  0  0  0  0  0  0  0  0  0
    3.8981    0.3879    0.0000 O   0  0  0  0  0  0  0  0  0  0  0  0
    2.5922    2.6340    0.0000 O   0  0  0  0  0  0  0  0  0  0  0  0
   -2.5967    1.1340    0.0000 O   0  0  0  0  0  0  0  0  0  0  0  0
  3  2  2  0
  4  2  1  0
  6  3  1  0
  6  5  2  0
  7  4  2  0
  7  5  1  0
  8  6  1  0
  9  8  1  0
 10  8  2  0
 11  1  1  0
 11  7  1  0
M  CHG  2   8   1   9  -1
M  END
>  <NAME>  (3704) 
3-NITROANISOL

>  <SYNONYMS>  (3704) 


>  <SPECTRUM TYPE>  (3704) 
MS1

>  <INSTRUMENT TYPE>  (3704) 
EI-B

>  <INSTRUMENT>  (3704) 
HITACHI M-80

>  <ION MODE>  (3704) 
P

>  <INCHIKEY>  (3704) 
WGYFINWERLNPHR-UHFFFAOYSA-N

>  <FORMULA>  (3704) 
C7H7NO3

>  <EXACT MASS>  (3704) 
153.04259308399998

>  <MW>  (3704) 
153

>  <ID>  (3704) 
JP006264

>  <CONTRIBUTOR>  (3704) 
University of Tokyo Team, {Faculty of Engineering, University of Tokyo

>  <COMMENT>  (3704) 
SMILES=COc(c1)cc(cc1)[N+1]([O-1])=O
cas=555-03-3
InChI=InChI=1S/C7H7NO3/c1-11-7-4-2-3-6(5-7)8(9)10/h2-5H,1H3
computed SMILES=O=N(=O)C=1C=CC=C(OC)C1
accession=JP006264
date=2016.01.19 (Created 2008.10.21, modified 2011.05.06)
author=MASS SPECTROSCOPY SOC. OF JAPAN (MSSJ)
license=CC BY-NC-SA
exact mass=153.04259
ionization energy=70 eV
ion type=[M]+*
computed spectral entropy=2.6710588723938185
computed normalized entropy=0.7342943246173809
SPLASH=splash10-0udl-9500000000-d3180d15d0d07e0b4c67
submitter=submitter = University of Tokyo Team (Faculty of Engineering, University of Tokyo)
MoNA Rating=3.75

>  <NUM PEAKS>  (3704) 
38

>  <MASS SPECTRAL PEAKS>  (3704) 
15 0.5
37 1.27
38 5.41
39 2.68
41 1.87
46 1.21
50 10.3
51 4.8
52 3.05
53 2.57
61 1.92
62 6.6
63 26.6
64 25.06
65 3.7
66 1.03
67 0.65
73 1.07
74 5.61
75 5.12
76 7.54
77 54.99
78 5
79 3.31
80 2.3
92 60.1
93 4.9
94 0.56
95 17.28
96 1.17
106 0.92
107 42
108 4.54
123 2.28
137 1.13
153 99.99
154 8.3
155 0.93

>  <PREDICTED SPECTRUM>  (3704) 
14 56
15 188
16 20
17 10
18 26
25 28
26 127
27 121
28 100
29 149
30 445
31 61
32 16
37 138
38 240
39 298
40 71
41 155
46 138
49 74
50 379
51 424
52 358
53 295
54 107
61 171
62 310
63 599
64 444
65 324
66 173
67 47
69 39
74 101
75 240
76 253
77 624
78 394
79 371
80 271
81 25
90 66
91 147
92 543
93 130
94 165
95 402
96 4
106 364
107 613
108 90
122 46
123 400
124 69
137 54
153 999
154 274
155 62

$$$$

     RDKit          2D

 10 10  0  0  0  0  0  0  0  0999 V2000
   -2.5989    1.5002    0.0000 C   0  0  0  0  0  0  0  0  0  0  0  0
   -1.3000   -0.7500    0.0000 C   0  0  0  0  0  0  0  0  0  0  0  0
    0.0000    1.5000    0.0000 C   0  0  0  0  0  0  0  0  0  0  0  0
    0.0000   -1.5000    0.0000 C   0  0  0  0  0  0  0  0  0  0  0  0
    1.3000    0.7500    0.0000 C   0  0  0  0  0  0  0  0  0  0  0  0
   -1.3000    0.7500    0.0000 C   0  0  0  0  0  0  0  0  0  0  0  0
    1.3000   -0.7500    0.0000 C   0  0  0  0  0  0  0  0  0  0  0  0
    2.5989   -1.5002    0.0000 N   0  0  0  0  0  0  0  0  0  0  0  0
    3.8981   -0.7504    0.0000 O   0  0  0  0  0  0  0  0  0  0  0  0
    2.5987   -3.0002    0.0000 O   0  0  0  0  0  0  0  0  0  0  0  0
  4  2  2  0
  5  3  1  0
  6  1  1  0
  6  2  1  0
  6  3  2  0
  7  4  1  0
  7  5  2  0
  8  7  1  0
  9  8  1  0
 10  8  2  0
M  CHG  2   8   1   9  -1
M  END
>  <NAME>  (3705) 
4-NITROTOLUENE

>  <SYNONYMS>  (3705) 


>  <SPECTRUM TYPE>  (3705) 
MS1

>  <INSTRUMENT TYPE>  (3705) 
EI-B

>  <INSTRUMENT>  (3705) 
HITACHI M-80

>  <ION MODE>  (3705) 
P

>  <INCHIKEY>  (3705) 
ZPTVNYMJQHSSEA-UHFFFAOYSA-N

>  <FORMULA>  (3705) 
C7H7NO2

>  <EXACT MASS>  (3705) 
137.047678464

>  <MW>  (3705) 
137

>  <ID>  (3705) 
JP006263

>  <CONTRIBUTOR>  (3705) 
University of Tokyo Team, {Faculty of Engineering, University of Tokyo

>  <COMMENT>  (3705) 
SMILES=Cc(c1)ccc(c1)[N+1]([O-1])=O
cas=99-99-0
InChI=InChI=1S/C7H7NO2/c1-6-2-4-7(5-3-6)8(9)10/h2-5H,1H3
computed SMILES=O=N(=O)C1=CC=C(C=C1)C
accession=JP006263
date=2016.01.19 (Created 2008.10.21, modified 2011.05.06)
author=MASS SPECTROSCOPY SOC. OF JAPAN (MSSJ)
license=CC BY-NC-SA
exact mass=137.04768
ionization energy=70 eV
ion type=[M]+*
computed spectral entropy=2.8388459145701246
computed normalized entropy=0.7595229660437312
SPLASH=splash10-000l-9300000000-58923284bdcd815b5ebb
submitter=submitter = University of Tokyo Team (Faculty of Engineering, University of Tokyo)
MoNA Rating=3.75

>  <NUM PEAKS>  (3705) 
42

>  <MASS SPECTRAL PEAKS>  (3705) 
26 1.35
27 3.53
28 1.01
30 10.88
37 1.68
38 4.5
39 24.35
40 1.63
41 4.98
46 4.75
49 0.88
50 9.05
51 12.2
52 3.94
53 2.95
61 2.76
62 7.93
63 20.49
64 5.35
65 58.87
66 3.27
74 2.23
75 2.08
76 1.24
77 16.51
78 4.16
79 16.52
80 1.12
85 0.93
86 1.79
87 1.53
88 0.52
89 13.84
90 4.97
91 99.99
92 8.15
107 26.2
108 2.03
121 3.29
137 81.2
138 7.86
139 0.66

>  <PREDICTED SPECTRUM>  (3705) 
16 8
18 12
25 14
26 58
27 59
28 89
30 446
32 21
36 2
37 109
38 183
39 363
40 96
41 122
46 4
50 228
51 423
52 306
53 186
61 53
62 228
63 541
64 300
65 502
66 70
74 11
75 69
76 32
77 491
78 380
79 390
80 140
86 28
89 617
90 487
91 999
92 281
106 80
107 666
108 147
120 132
121 58
137 863
138 194

$$$$

     RDKit          2D

 12 13  0  0  0  0  0  0  0  0999 V2000
    4.8381    0.6104    0.0000 C   0  0  0  0  0  0  0  0  0  0  0  0
    3.5389    1.3602    0.0000 C   0  0  0  0  0  0  0  0  0  0  0  0
   -2.9500   -0.8900    0.0000 C   0  0  0  0  0  0  0  0  0  0  0  0
   -2.9500    0.6100    0.0000 C   0  0  0  0  0  0  0  0  0  0  0  0
   -1.6500   -1.6400    0.0000 C   0  0  0  0  0  0  0  0  0  0  0  0
   -1.6500    1.3600    0.0000 C   0  0  0  0  0  0  0  0  0  0  0  0
    2.2400   -0.8900    0.0000 C   0  0  0  0  0  0  0  0  0  0  0  0
    0.9400   -1.6400    0.0000 C   0  0  0  0  0  0  0  0  0  0  0  0
    0.9400    1.3600    0.0000 C   0  0  0  0  0  0  0  0  0  0  0  0
    2.2400    0.6100    0.0000 C   0  0  0  0  0  0  0  0  0  0  0  0
   -0.3500   -0.8900    0.0000 C   0  0  0  0  0  0  0  0  0  0  0  0
   -0.3500    0.6100    0.0000 C   0  0  0  0  0  0  0  0  0  0  0  0
  2  1  2  0
  4  3  2  0
  5  3  1  0
  6  4  1  0
  8  7  2  0
 10  2  1  0
 10  7  1  0
 10  9  2  0
 11  5  2  0
 11  8  1  0
 12  6  2  0
 12  9  1  0
 12 11  1  0
M  END
>  <NAME>  (3706) 
2-VINYLNAPHTHALENE

>  <SYNONYMS>  (3706) 


>  <SPECTRUM TYPE>  (3706) 
MS1

>  <INSTRUMENT TYPE>  (3706) 
EI-B

>  <INSTRUMENT>  (3706) 
HITACHI M-80

>  <ION MODE>  (3706) 
P

>  <INCHIKEY>  (3706) 
KXYAVSFOJVUIHT-UHFFFAOYSA-N

>  <FORMULA>  (3706) 
C12H10

>  <EXACT MASS>  (3706) 
154.07825032

>  <MW>  (3706) 
154

>  <ID>  (3706) 
JP006262

>  <CONTRIBUTOR>  (3706) 
University of Tokyo Team, {Faculty of Engineering, University of Tokyo

>  <COMMENT>  (3706) 
SMILES=C=Cc(c1)cc(c2)c(ccc2)c1
cas=827-54-3
InChI=InChI=1S/C12H10/c1-2-10-7-8-11-5-3-4-6-12(11)9-10/h2-9H,1H2
computed SMILES=C=CC=1C=CC=2C=CC=CC2C1
accession=JP006262
date=2016.01.19 (Created 2008.10.21, modified 2011.05.06)
author=MASS SPECTROSCOPY SOC. OF JAPAN (MSSJ)
license=CC BY-NC-SA
exact mass=154.07825
ionization energy=70 eV
ion type=[M]+*
computed spectral entropy=2.6952716970979456
computed normalized entropy=0.7257895225095023
SPLASH=splash10-0udi-3900000000-16808a92f795606de84d
submitter=submitter = University of Tokyo Team (Faculty of Engineering, University of Tokyo)
MoNA Rating=3.75

>  <NUM PEAKS>  (3706) 
41

>  <MASS SPECTRAL PEAKS>  (3706) 
38 1.63
39 4.58
50 5.56
51 7.05
52 1.26
61 1.17
62 3.45
63 8.56
64 4.01
65 0.85
74 5.11
75 5.87
76 13.13
77 7.26
78 0.93
86 1.82
87 2.65
88 0.65
89 1.59
98 1.93
99 1.24
100 0.72
101 1.98
102 2.48
113 1
114 0.3
115 4.19
116 0.41
125 0.63
126 4.91
127 5.24
128 10.53
129 1.14
139 2.47
150 2.95
151 8.22
152 27.04
153 41.55
154 99.99
155 13.19
156 0.81

>  <PREDICTED SPECTRUM>  (3706) 
26 19
27 33
38 28
39 141
40 19
41 51
49 12
50 131
51 184
52 47
57 41
61 11
62 134
63 207
64 68
65 15
71 25
74 168
75 214
76 170
77 130
78 37
82 3
83 52
84 46
85 33
86 90
87 156
88 110
89 183
90 35
98 42
99 78
100 72
101 132
102 200
103 39
110 17
113 77
114 107
115 304
125 0
126 258
127 475
128 361
129 130
137 22
138 22
139 222
140 106
141 35
150 79
151 273
152 419
153 656
154 999
155 351
156 61

$$$$

     RDKit          2D

 12 12  0  0  0  0  0  0  0  0999 V2000
   -2.3389   -1.9502    0.0000 C   0  0  0  0  0  0  0  0  0  0  0  0
    1.5600   -1.2000    0.0000 C   0  0  0  0  0  0  0  0  0  0  0  0
    2.8589    1.0502    0.0000 C   0  0  0  0  0  0  0  0  0  0  0  0
    0.2600    2.5500    0.0000 C   0  0  0  0  0  0  0  0  0  0  0  0
   -1.0400   -1.2000    0.0000 C   0  0  0  0  0  0  0  0  0  0  0  0
    1.5600    0.3000    0.0000 C   0  0  0  0  0  0  0  0  0  0  0  0
    0.2600    1.0500    0.0000 C   0  0  0  0  0  0  0  0  0  0  0  0
   -1.0400    0.3000    0.0000 C   0  0  0  0  0  0  0  0  0  0  0  0
    0.2600   -1.9500    0.0000 N   0  0  0  0  0  0  0  0  0  0  0  0
    4.1581    0.3004    0.0000 O   0  0  0  0  0  0  0  0  0  0  0  0
   -1.0390    3.3000    0.0000 O   0  0  0  0  0  0  0  0  0  0  0  0
   -2.3389    1.0502    0.0000 O   0  0  0  0  0  0  0  0  0  0  0  0
  5  1  1  0
  6  2  2  0
  6  3  1  0
  7  4  1  0
  7  6  1  0
  8  5  1  0
  8  7  2  0
  9  2  1  0
  9  5  2  0
 10  3  1  0
 11  4  1  0
 12  8  1  0
M  END
>  <NAME>  (3707) 
PYRIDOXINE

>  <SYNONYMS>  (3707) 
VITAMIN B6

>  <SPECTRUM TYPE>  (3707) 
MS1

>  <INSTRUMENT TYPE>  (3707) 
EI-B

>  <INSTRUMENT>  (3707) 
HITACHI M-80

>  <ION MODE>  (3707) 
P

>  <INCHIKEY>  (3707) 
LXNHXLLTXMVWPM-UHFFFAOYSA-N

>  <FORMULA>  (3707) 
C8H11NO3

>  <EXACT MASS>  (3707) 
169.07389321199997

>  <MW>  (3707) 
169

>  <ID>  (3707) 
JP006258

>  <CONTRIBUTOR>  (3707) 
University of Tokyo Team, {Faculty of Engineering, University of Tokyo

>  <COMMENT>  (3707) 
SMILES=OCc(c1)c(CO)c(O)c(C)n1
cas=58-56-0
InChI=InChI=1S/C8H11NO3/c1-5-8(12)7(4-11)6(3-10)2-9-5/h2,10-12H,3-4H2,1H3
computed SMILES=OC=1C(=NC=C(C1CO)CO)C
accession=JP006258
date=2016.01.19 (Created 2008.10.21, modified 2011.05.06)
author=MASS SPECTROSCOPY SOC. OF JAPAN (MSSJ)
license=CC BY-NC-SA
exact mass=169.07389
ionization energy=70 eV
ion type=[M]+*
computed spectral entropy=3.651919231949723
computed normalized entropy=0.8407188806333078
SPLASH=splash10-0f6x-9400000000-486db54a30b61c2eb9d4
submitter=submitter = University of Tokyo Team (Faculty of Engineering, University of Tokyo)
MoNA Rating=3.75

>  <NUM PEAKS>  (3707) 
77

>  <MASS SPECTRAL PEAKS>  (3707) 
15 2.82
26 3.59
27 13.83
28 20.59
29 10.24
30 1.2
31 14.79
32 4.31
37 1.39
38 5.15
39 31.7
40 5.07
41 8.9
42 21.19
43 7.57
44 0.89
50 7.28
51 19.99
52 13.53
53 22.47
54 17.63
55 7.76
56 0.59
57 1.01
58 0.56
61 0.97
62 1.63
63 4.22
64 3.87
65 8.02
66 6.89
67 9.47
68 3.8
69 2.07
70 0.93
74 0.94
75 0.93
76 1.15
77 4.81
78 3.53
79 4.99
80 14.11
81 18.68
82 14.84
83 1.56
91 2.39
92 5.1
93 5.12
94 99.99
95 11.39
96 1.2
104 1.29
105 3.98
106 47.78
107 10.65
108 7.06
109 1.75
110 2.03
120 4.65
121 1.89
122 24.14
123 9.04
124 1.65
133 5.01
134 2.21
135 0.77
136 9.76
137 1.19
138 2.09
149 0.75
150 7.5
151 45.73
152 4.63
153 1.28
169 42.64
170 4.62
171 0.62

>  <PREDICTED SPECTRUM>  (3707) 
17 11
18 16
25 0
26 14
27 23
28 36
29 39
31 91
34 3
37 64
38 118
39 330
40 191
41 426
42 434
43 344
44 158
45 198
46 51
47 16
49 48
50 251
51 440
52 430
53 433
54 302
55 307
56 222
57 216
58 177
59 76
60 82
61 92
62 130
63 273
64 234
65 419
66 324
67 363
68 275
69 222
70 208
71 131
72 22
73 96
74 122
75 122
76 86
77 415
78 346
79 252
80 322
81 248
82 218
83 219
84 94
85 95
86 24
87 26
89 8
90 77
91 159
92 182
93 274
94 461
95 379
96 197
97 73
98 79
99 57
102 12
104 107
105 259
106 248
107 151
108 350
109 141
110 151
111 151
112 29
118 101
120 221
121 158
122 758
123 547
124 206
125 44
132 158
133 242
134 178
135 140
136 105
138 83
140 29
148 3
149 69
150 671
151 999
152 321
153 90
166 16
169 722
170 235
171 21

$$$$

     RDKit          2D

 11 11  0  0  0  0  0  0  0  0999 V2000
    2.2420    3.2180    0.0000 C   0  0  0  0  0  0  0  0  0  0  0  0
    3.5249    2.4903    0.0000 C   0  0  0  0  0  0  0  0  0  0  0  0
    0.9649    2.4656    0.0000 C   0  0  0  0  0  0  0  0  0  0  0  0
    3.5611    0.9907    0.0000 C   0  0  0  0  0  0  0  0  0  0  0  0
   -0.3239    0.2280    0.0000 C   0  0  0  0  0  0  0  0  0  0  0  0
    0.9708    0.9855    0.0000 C   0  0  0  0  0  0  0  0  0  0  0  0
    2.2537    0.2578    0.0000 C   0  0  0  0  0  0  0  0  0  0  0  0
    2.2499   -1.2422    0.0000 N   0  0  0  0  0  0  0  0  0  0  0  0
   -1.6273    0.9705    0.0000 O   0  0  0  0  0  0  0  0  0  0  0  0
    3.5470   -1.9955    0.0000 O   0  0  0  0  0  0  0  0  0  0  0  0
    0.9490   -1.9889    0.0000 O   0  0  0  0  0  0  0  0  0  0  0  0
  2  1  2  0
  3  1  1  0
  4  2  1  0
  6  3  2  0
  6  5  1  0
  7  4  2  0
  7  6  1  0
  8  7  1  0
  9  5  1  0
 10  8  1  0
 11  8  2  0
M  CHG  2   8   1  10  -1
M  END
>  <NAME>  (3708) 
2-NITROBENZYL ALCOHOL

>  <SYNONYMS>  (3708) 


>  <SPECTRUM TYPE>  (3708) 
MS1

>  <INSTRUMENT TYPE>  (3708) 
EI-B

>  <INSTRUMENT>  (3708) 
HITACHI M-80

>  <ION MODE>  (3708) 
P

>  <INCHIKEY>  (3708) 
BWRBVBFLFQKBPT-UHFFFAOYSA-N

>  <FORMULA>  (3708) 
C7H7NO3

>  <EXACT MASS>  (3708) 
153.042593084

>  <MW>  (3708) 
153

>  <ID>  (3708) 
JP006256

>  <CONTRIBUTOR>  (3708) 
University of Tokyo Team, {Faculty of Engineering, University of Tokyo

>  <COMMENT>  (3708) 
SMILES=OCc(c1)c(ccc1)[N+1]([O-1])=O
cas=612-25-9
InChI=InChI=1S/C7H7NO3/c9-5-6-3-1-2-4-7(6)8(10)11/h1-4,9H,5H2
computed SMILES=O=N(=O)C=1C=CC=CC1CO
accession=JP006256
date=2016.01.19 (Created 2008.10.21, modified 2011.05.06)
author=MASS SPECTROSCOPY SOC. OF JAPAN (MSSJ)
license=CC BY-NC-SA
exact mass=153.04259
ionization energy=70 eV
ion type=[M]+*
computed spectral entropy=2.9399099946499834
computed normalized entropy=0.7723064502173312
SPLASH=splash10-004i-9100000000-cb66ab7814f3e732b336
submitter=submitter = University of Tokyo Team (Faculty of Engineering, University of Tokyo)
MoNA Rating=3.75

>  <NUM PEAKS>  (3708) 
45

>  <MASS SPECTRAL PEAKS>  (3708) 
30 6.95
31 2.95
37 1.01
38 2.3
39 11.99
40 1.33
41 4.35
46 1.03
47 1.17
50 11.21
51 28.71
52 21.37
53 10.45
54 0.63
55 1.81
61 0.94
62 2.51
63 7.69
64 12.89
65 14.28
66 2.25
67 2.11
74 3.25
75 2.88
76 6.98
77 99.99
78 23.27
79 75.09
80 8.47
81 1.31
89 3.44
90 3.56
91 40.77
94 1.57
95 1.52
104 3.99
105 23.47
106 3.75
107 2.8
108 2.4
119 1.15
120 2.43
121 2.08
135 12.46
136 2.01

>  <PREDICTED SPECTRUM>  (3708) 
14 38
15 18
16 29
17 47
18 49
19 3
25 41
26 151
27 285
28 170
29 255
30 210
31 221
32 15
37 161
38 255
39 520
40 177
41 250
42 116
43 142
44 146
45 69
46 87
49 152
50 509
51 764
52 461
53 369
54 140
55 178
56 4
57 20
58 6
60 35
61 179
62 294
63 557
64 411
65 736
66 256
67 166
68 26
69 64
70 86
73 51
74 250
75 237
76 321
77 999
78 730
79 525
80 251
81 130
82 5
83 106
86 58
87 62
89 243
90 281
91 301
92 577
93 279
94 248
95 105
96 81
102 0
104 125
105 433
106 446
107 533
108 292
109 109
118 231
119 130
120 163
121 30
122 172
123 149
124 135
125 15
134 58
135 321
136 271
137 86
152 48
153 192
154 50

$$$$

     RDKit          2D

 16 17  0  0  0  0  0  0  0  0999 V2000
   -3.8977    4.8202    0.0000 C   0  0  0  0  0  0  0  0  0  0  0  0
   -2.5988    2.5696    0.0000 C   0  0  0  0  0  0  0  0  0  0  0  0
   -5.1971    4.0692    0.0000 C   0  0  0  0  0  0  0  0  0  0  0  0
   -3.8982    1.8185    0.0000 C   0  0  0  0  0  0  0  0  0  0  0  0
    1.2990    4.8212    0.0000 C   0  0  0  0  0  0  0  0  0  0  0  0
   -0.0010    2.5696    0.0000 C   0  0  0  0  0  0  0  0  0  0  0  0
    2.5981    4.0712    0.0000 C   0  0  0  0  0  0  0  0  0  0  0  0
    1.2981    1.8196    0.0000 C   0  0  0  0  0  0  0  0  0  0  0  0
   -1.2995    4.8204    0.0000 C   0  0  0  0  0  0  0  0  0  0  0  0
   -2.5986    4.0704    0.0000 C   0  0  0  0  0  0  0  0  0  0  0  0
   -0.0005    4.0704    0.0000 C   0  0  0  0  0  0  0  0  0  0  0  0
   -5.1974    2.5683    0.0000 C   0  0  0  0  0  0  0  0  0  0  0  0
    2.5976    2.5704    0.0000 N   0  0  0  0  0  0  0  0  0  0  0  0
   -6.4964    1.8183    0.0000 N   0  0  0  0  0  0  0  0  0  0  0  0
   -7.7954    2.5683    0.0000 O   0  0  0  0  0  0  0  0  0  0  0  0
   -6.4964    0.3183    0.0000 O   0  0  0  0  0  0  0  0  0  0  0  0
  3  1  2  0
  4  2  1  0
  7  5  2  0
  8  6  1  0
 10  1  1  0
 10  2  2  0
 10  9  1  0
 11  5  1  0
 11  6  2  0
 11  9  1  0
 12  3  1  0
 12  4  2  0
 13  7  1  0
 13  8  2  0
 14 12  1  0
 15 14  1  0
 16 14  2  0
M  CHG  2  14   1  15  -1
M  END
>  <NAME>  (3709) 
4-(4-NITROBENZYL)PYRIDINE

>  <SYNONYMS>  (3709) 


>  <SPECTRUM TYPE>  (3709) 
MS1

>  <INSTRUMENT TYPE>  (3709) 
EI-B

>  <INSTRUMENT>  (3709) 
HITACHI M-80

>  <ION MODE>  (3709) 
P

>  <INCHIKEY>  (3709) 
MNHKUCBXXMFQDM-UHFFFAOYSA-N

>  <FORMULA>  (3709) 
C12H10N2O2

>  <EXACT MASS>  (3709) 
214.07422756

>  <MW>  (3709) 
214

>  <ID>  (3709) 
JP006255

>  <CONTRIBUTOR>  (3709) 
University of Tokyo Team, {Faculty of Engineering, University of Tokyo

>  <COMMENT>  (3709) 
SMILES=[O-1][N+1](=O)c(c2)ccc(c2)Cc(c1)ccnc1
cas=1083-48-3
InChI=InChI=1S/C12H10N2O2/c15-14(16)12-3-1-10(2-4-12)9-11-5-7-13-8-6-11/h1-8H,9H2
computed SMILES=O=N(=O)C1=CC=C(C=C1)CC=2C=CN=CC2
accession=JP006255
date=2016.01.19 (Created 2008.10.21, modified 2011.05.06)
author=MASS SPECTROSCOPY SOC. OF JAPAN (MSSJ)
license=CC BY-NC-SA
exact mass=214.07423
ionization energy=70 eV
ion type=[M]+*
computed spectral entropy=3.217654981812786
computed normalized entropy=0.7523746049535148
SPLASH=splash10-02t9-3940000000-5f69fdcb9427ffac5e02
submitter=submitter = University of Tokyo Team (Faculty of Engineering, University of Tokyo)
MoNA Rating=3.75

>  <NUM PEAKS>  (3709) 
72

>  <MASS SPECTRAL PEAKS>  (3709) 
30 6.99
32 1.55
38 1.39
39 9.8
40 0.85
41 1.06
50 5.87
51 11.34
52 2.93
53 0.66
54 1.71
55 0.54
57 1.19
61 0.53
62 3.19
63 10.35
64 3.08
65 6.99
66 0.67
74 1.85
75 2.34
76 2.2
77 5.83
78 5.95
79 1.02
84 3.03
86 1.02
87 1.82
88 1.37
91 1.88
92 2.63
93 0.5
101 0.8
102 2.27
103 1.13
106 1.49
107 3.55
113 1.99
114 2.3
115 15.71
116 3.07
117 1.81
126 1.1
127 2.64
128 4.57
129 2.23
130 1.09
138 0.84
139 16.11
140 9.03
141 8.64
142 1.65
153 0.96
154 3.52
155 1.85
156 10.45
157 1.46
164 0.54
165 1.08
166 13.26
167 75.31
168 47.74
169 6.23
183 1.28
184 7.72
185 1.06
197 4.28
198 1.44
213 2.34
214 99.99
215 14.16
216 1.41

>  <PREDICTED SPECTRUM>  (3709) 
14 8
15 9
16 9
17 7
26 25
27 32
28 49
29 9
30 135
33 18
34 2
37 55
38 150
39 331
40 142
41 126
42 85
43 37
44 92
46 174
50 327
51 503
52 279
53 115
54 60
55 107
56 34
57 48
61 33
62 209
63 431
64 233
65 316
66 87
67 72
69 22
70 51
71 14
74 175
75 194
76 212
77 388
78 390
79 229
80 101
82 95
83 107
84 103
85 38
86 111
87 115
88 97
89 333
90 233
91 252
92 280
93 148
94 93
97 31
98 47
99 42
100 52
101 103
102 142
104 3
106 94
107 64
108 65
109 61
110 69
111 14
113 136
114 112
115 246
116 128
117 76
118 19
119 47
120 54
121 67
122 42
126 95
127 216
128 278
129 99
137 3
138 18
139 315
140 270
141 221
142 55
150 36
151 152
152 347
153 305
154 205
155 163
156 177
164 20
165 124
166 440
167 683
168 580
169 193
183 53
184 299
185 13
197 116
198 113
212 56
213 358
214 999
215 367
216 84

$$$$

     RDKit          2D

 18 17  0  0  0  0  0  0  0  0999 V2000
  -15.5885    9.0000    0.0000 C   0  0  0  0  0  0  0  0  0  0  0  0
  -14.2894    8.2500    0.0000 C   0  0  0  0  0  0  0  0  0  0  0  0
  -12.9904    9.0000    0.0000 C   0  0  0  0  0  0  0  0  0  0  0  0
  -11.6913    8.2500    0.0000 C   0  0  0  0  0  0  0  0  0  0  0  0
  -10.3923    9.0000    0.0000 C   0  0  0  0  0  0  0  0  0  0  0  0
   -9.0933    8.2500    0.0000 C   0  0  0  0  0  0  0  0  0  0  0  0
   -7.7942    9.0000    0.0000 C   0  0  0  0  0  0  0  0  0  0  0  0
   -6.4952    8.2500    0.0000 C   0  0  0  0  0  0  0  0  0  0  0  0
   -5.1962    9.0000    0.0000 C   0  0  0  0  0  0  0  0  0  0  0  0
   -3.8971    8.2500    0.0000 C   0  0  0  0  0  0  0  0  0  0  0  0
   -2.5981    9.0000    0.0000 C   0  0  0  0  0  0  0  0  0  0  0  0
   -1.2990    8.2500    0.0000 C   0  0  0  0  0  0  0  0  0  0  0  0
    0.0000    9.0000    0.0000 C   0  0  0  0  0  0  0  0  0  0  0  0
    1.2990    8.2500    0.0000 C   0  0  0  0  0  0  0  0  0  0  0  0
    2.5981    9.0000    0.0000 C   0  0  0  0  0  0  0  0  0  0  0  0
    3.8971    8.2500    0.0000 C   0  0  0  0  0  0  0  0  0  0  0  0
    3.8971    6.7500    0.0000 O   0  0  0  0  0  0  0  0  0  0  0  0
    5.1962    9.0000    0.0000 O   0  0  0  0  0  0  0  0  0  0  0  0
  2  1  1  0
  3  2  1  0
  4  3  1  0
  5  4  1  0
  6  5  1  0
  7  6  1  0
  8  7  1  0
  9  8  1  0
 10  9  1  0
 11 10  1  0
 12 11  1  0
 13 12  1  0
 14 13  1  0
 15 14  1  0
 16 15  1  0
 17 16  2  0
 18 16  1  0
M  END
>  <NAME>  (3710) 
PALMITIC ACID

>  <SYNONYMS>  (3710) 


>  <SPECTRUM TYPE>  (3710) 
MS1

>  <INSTRUMENT TYPE>  (3710) 
EI-B

>  <INSTRUMENT>  (3710) 
HITACHI M-80

>  <ION MODE>  (3710) 
P

>  <INCHIKEY>  (3710) 
IPCSVZSSVZVIGE-UHFFFAOYSA-N

>  <FORMULA>  (3710) 
C16H32O2

>  <EXACT MASS>  (3710) 
256.240230264

>  <MW>  (3710) 
256

>  <ID>  (3710) 
JP006253

>  <CONTRIBUTOR>  (3710) 
University of Tokyo Team, {Faculty of Engineering, University of Tokyo

>  <COMMENT>  (3710) 
SMILES=CCCCCCCCCCCCCCCC(O)=O
cas=57-10-3
InChI=InChI=1S/C16H32O2/c1-2-3-4-5-6-7-8-9-10-11-12-13-14-15-16(17)18/h2-15H2,1H3,(H,17,18)
computed SMILES=O=C(O)CCCCCCCCCCCCCCC
accession=JP006253
date=2016.01.19 (Created 2008.10.21, modified 2011.05.06)
author=MASS SPECTROSCOPY SOC. OF JAPAN (MSSJ)
license=CC BY-NC-SA
exact mass=256.24023
ionization energy=70 eV
ion type=[M]+*
computed spectral entropy=3.7907016229784167
computed normalized entropy=0.7890684881853792
SPLASH=splash10-0abc-9110000000-6d7f0dbe5b588850b941
submitter=submitter = University of Tokyo Team (Faculty of Engineering, University of Tokyo)
MoNA Rating=3.75

>  <NUM PEAKS>  (3710) 
122

>  <MASS SPECTRAL PEAKS>  (3710) 
14 1.3
15 1.35
29 43.82
30 1.09
31 2.12
32 5.83
39 18.29
40 4.41
41 89.83
42 22.04
43 99.99
44 4.51
45 10.46
50 0.56
51 1.05
52 0.76
53 6.95
54 6.64
55 70.35
56 21.38
57 72.94
58 3.84
59 4.69
60 86.92
61 22.16
62 0.86
65 1.33
66 0.84
67 10.42
68 6.99
69 42.11
70 12.85
71 37.61
72 2.46
73 93.14
74 8.59
75 0.78
77 1.24
78 0.59
79 2.88
80 1.2
81 6.83
82 6.05
83 25.41
84 11.34
85 22.57
86 2.19
87 16.98
88 2.31
91 1.22
92 0.57
93 2.95
94 1.04
95 6.82
96 5.03
97 18.95
98 11.47
99 7.84
100 1.1
101 8.78
102 3.24
107 1.41
108 1.1
109 2.54
110 3.07
111 9.02
112 4.32
113 5.14
114 0.88
115 13.54
116 5.75
117 0.56
121 2.88
122 0.47
123 1.04
124 1.39
125 4.17
126 1.98
127 3.84
128 0.6
129 35.27
130 3.84
135 1.22
136 1.81
137 0.87
138 1.21
139 1.88
140 1.28
141 2.64
143 5.23
144 1.33
149 1.04
152 1.02
153 1.26
154 1.25
155 1.24
157 11.16
158 1.88
166 0.75
167 0.69
168 1.27
169 0.34
171 11.03
172 1.82
185 11.13
186 1.51
194 2.9
195 0.78
196 2.95
197 1.75
199 4.75
200 1.03
213 20.66
214 3.38
227 5.42
228 2.02
239 0.95
241 0.69
242 1.14
256 82.08
257 14.71
258 1.55

>  <PREDICTED SPECTRUM>  (3710) 
0 1
15 38
16 10
17 30
18 68
25 1
26 63
27 294
28 181
29 432
30 84
31 117
32 13
34 10
36 10
37 11
38 38
39 260
40 119
41 789
42 385
43 999
44 189
45 278
46 83
47 60
49 7
50 11
51 75
52 39
53 223
54 299
55 887
56 555
57 840
58 202
59 216
60 689
61 452
62 52
63 22
65 102
66 71
67 345
68 314
69 666
70 462
71 553
72 182
73 802
74 238
75 147
76 34
77 69
78 10
79 168
80 109
81 284
82 295
83 644
84 536
85 407
86 169
87 339
88 173
89 84
91 50
92 2
93 126
94 96
95 331
96 316
97 532
98 604
99 286
100 135
101 319
102 190
103 115
104 36
107 143
108 91
109 239
110 209
111 404
112 298
113 197
114 105
115 280
116 216
117 96
120 12
121 105
122 55
123 123
124 149
125 274
126 180
127 138
128 47
129 437
130 106
131 14
132 32
133 63
134 30
135 194
136 45
137 149
138 167
139 128
140 157
141 114
142 68
143 160
144 104
145 17
149 50
150 70
151 63
152 126
153 158
154 172
155 93
156 13
157 188
158 121
159 124
160 59
162 44
163 146
164 25
165 68
166 28
167 72
168 72
169 51
170 15
171 164
172 50
173 19
177 138
178 81
179 47
180 55
181 151
182 52
183 43
184 22
185 90
186 48
187 54
188 2
191 37
193 9
194 143
195 163
196 191
197 180
198 86
199 167
200 74
201 5
202 4
209 117
210 102
211 38
213 216
214 111
215 89
216 19
220 93
227 145
228 49
237 27
238 158
239 132
240 12
256 415
257 196
258 51
259 2

$$$$

     RDKit          2D

 28 28  0  0  0  0  0  0  0  0999 V2000
   13.9513    3.1974    0.0000 C   0  0  0  0  0  0  0  0  0  0  0  0
  -12.0296    0.1729    0.0000 C   0  0  0  0  0  0  0  0  0  0  0  0
   12.6535    2.4452    0.0000 C   0  0  0  0  0  0  0  0  0  0  0  0
  -10.7307    0.9232    0.0000 C   0  0  0  0  0  0  0  0  0  0  0  0
   11.3532    3.1931    0.0000 C   0  0  0  0  0  0  0  0  0  0  0  0
   -9.4315    0.1734    0.0000 C   0  0  0  0  0  0  0  0  0  0  0  0
   10.0554    2.4409    0.0000 C   0  0  0  0  0  0  0  0  0  0  0  0
   -8.1326    0.9236    0.0000 C   0  0  0  0  0  0  0  0  0  0  0  0
    8.7551    3.1887    0.0000 C   0  0  0  0  0  0  0  0  0  0  0  0
   -6.8335    0.1738    0.0000 C   0  0  0  0  0  0  0  0  0  0  0  0
    7.4573    2.4365    0.0000 C   0  0  0  0  0  0  0  0  0  0  0  0
   -5.5345    0.9240    0.0000 C   0  0  0  0  0  0  0  0  0  0  0  0
   -0.3427    5.4178    0.0000 C   0  0  0  0  0  0  0  0  0  0  0  0
   -1.6372    4.6757    0.0000 C   0  0  0  0  0  0  0  0  0  0  0  0
    6.1570    3.1844    0.0000 C   0  0  0  0  0  0  0  0  0  0  0  0
   -4.2354    0.1742    0.0000 C   0  0  0  0  0  0  0  0  0  0  0  0
    0.9564    4.6678    0.0000 C   0  0  0  0  0  0  0  0  0  0  0  0
   -1.6377    3.1748    0.0000 C   0  0  0  0  0  0  0  0  0  0  0  0
    4.8593    2.4322    0.0000 C   0  0  0  0  0  0  0  0  0  0  0  0
   -2.9365    0.9244    0.0000 C   0  0  0  0  0  0  0  0  0  0  0  0
    0.9609    3.1757    0.0000 C   0  0  0  0  0  0  0  0  0  0  0  0
   -0.3386    2.4248    0.0000 C   0  0  0  0  0  0  0  0  0  0  0  0
    2.2612    2.4278    0.0000 C   0  0  0  0  0  0  0  0  0  0  0  0
   -0.3384    0.9248    0.0000 C   0  0  0  0  0  0  0  0  0  0  0  0
    2.2637    0.9278    0.0000 O   0  0  0  0  0  0  0  0  0  0  0  0
    0.9608    0.1750    0.0000 O   0  0  0  0  0  0  0  0  0  0  0  0
    3.5590    3.1800    0.0000 O   0  0  0  0  0  0  0  0  0  0  0  0
   -1.6373    0.1746    0.0000 O   0  0  0  0  0  0  0  0  0  0  0  0
  3  1  1  0
  4  2  1  0
  5  3  1  0
  6  4  1  0
  7  5  1  0
  8  6  1  0
  9  7  1  0
 10  8  1  0
 11  9  1  0
 12 10  1  0
 14 13  2  0
 15 11  1  0
 16 12  1  0
 17 13  1  0
 18 14  1  0
 19 15  1  0
 20 16  1  0
 21 17  2  0
 22 18  2  0
 22 21  1  0
 23 21  1  0
 24 22  1  0
 25 23  2  0
 26 24  2  0
 27 19  1  0
 27 23  1  0
 28 20  1  0
 28 24  1  0
M  END
>  <NAME>  (3711) 
DIOCTYL PHTHALATE

>  <SYNONYMS>  (3711) 
BIS(2-ETHYLHEXYL) PHTHALATE

>  <SPECTRUM TYPE>  (3711) 
MS1

>  <INSTRUMENT TYPE>  (3711) 
EI-B

>  <INSTRUMENT>  (3711) 
HITACHI M-80

>  <ION MODE>  (3711) 
P

>  <INCHIKEY>  (3711) 
MQIUGAXCHLFZKX-UHFFFAOYSA-N

>  <FORMULA>  (3711) 
C24H38O4

>  <EXACT MASS>  (3711) 
390.277009696

>  <MW>  (3711) 
390

>  <ID>  (3711) 
JP006241

>  <CONTRIBUTOR>  (3711) 
University of Tokyo Team, {Faculty of Engineering, University of Tokyo

>  <COMMENT>  (3711) 
SMILES=CCCCCCCCOC(=O)c(c1)c(ccc1)C(=O)OCCCCCCCC
cas=117-81-7
InChI=InChI=1S/C24H38O4/c1-3-5-7-9-11-15-19-27-23(25)21-17-13-14-18-22(21)24(26)28-20-16-12-10-8-6-4-2/h13-14,17-18H,3-12,15-16,19-20H2,1-2H3
computed SMILES=O=C(OCCCCCCCC)C=1C=CC=CC1C(=O)OCCCCCCCC
accession=JP006241
date=2016.01.19 (Created 2008.10.21, modified 2011.05.06)
author=MASS SPECTROSCOPY SOC. OF JAPAN (MSSJ)
license=CC BY-NC-SA
exact mass=390.27701
ionization energy=70 eV
ion type=[M]+*
computed spectral entropy=2.86758785299334
computed normalized entropy=0.6727194947099111
SPLASH=splash10-0002-6910000000-d66b3b7c8cc64102dea3
submitter=submitter = University of Tokyo Team (Faculty of Engineering, University of Tokyo)
MoNA Rating=3.75

>  <NUM PEAKS>  (3711) 
71

>  <MASS SPECTRAL PEAKS>  (3711) 
43 0.78
45 0.2
50 0.88
51 0.27
52 0.25
53 0.96
54 1.15
55 14.07
56 6.56
57 34.96
58 1.37
63 0.23
65 1.3
66 0.25
67 1.03
68 1.11
69 6.52
70 19.53
71 22.65
72 1.6
73 0.27
74 0.25
75 0.32
76 2.82
77 1.21
78 0.51
79 0.58
81 0.99
82 1.48
83 6.25
84 3.66
85 0.56
91 0.42
92 0.23
93 1.93
94 0.22
95 0.35
97 0.51
98 0.28
104 6.8
105 2.14
106 0.37
109 0.22
110 0.61
111 0.56
112 9.8
113 12.39
114 1.2
115 0.24
121 1.4
122 1.82
123 0.68
132 2.41
133 0.85
148 0.4
149 99.99
150 11.88
151 1.32
162 0.61
163 0.4
167 39
168 3.96
169 0.32
179 0.24
180 0.31
261 0.49
262 0.42
279 18.23
280 3.49
281 0.44
390 0.3

>  <PREDICTED SPECTRUM>  (3711) 
26 13
27 84
28 13
29 134
38 6
39 118
40 34
41 244
42 167
43 282
44 82
50 94
51 50
52 14
53 71
54 77
55 246
56 173
57 238
58 17
65 83
66 2
67 109
68 81
69 174
70 134
71 204
72 15
74 15
76 140
77 94
78 39
79 17
81 64
82 76
83 125
84 85
85 93
91 21
93 105
95 46
96 25
97 75
98 51
99 35
101 5
104 170
105 124
106 27
111 38
112 41
113 23
115 18
121 104
122 119
123 94
126 7
132 29
140 5
141 1
149 999
150 289
151 99
167 97
219 20
233 60
234 15
237 61
238 20
251 119
252 50
261 22
265 25
275 30
279 19
293 47
295 10
307 75
308 19
321 78

$$$$

     RDKit          2D

 33 34  0  0  1  0  0  0  0  0999 V2000
   22.6446   -0.7533    0.0000 C   0  0  0  0  0  0  0  0  0  0  0  0
   21.3452   -3.0031    0.0000 C   0  0  0  0  0  0  0  0  0  0  0  0
   16.1491   -3.0023    0.0000 C   0  0  0  0  0  0  0  0  0  0  0  0
   10.9529   -3.0015    0.0000 C   0  0  0  0  0  0  0  0  0  0  0  0
    5.7568   -3.0006    0.0000 C   0  0  0  0  0  0  0  0  0  0  0  0
    3.1589    1.5002    0.0000 C   0  0  0  0  0  0  0  0  0  0  0  0
   -3.3400    0.7500    0.0000 C   0  0  0  0  0  0  0  0  0  0  0  0
   -3.3400   -0.7500    0.0000 C   0  0  0  0  0  0  0  0  0  0  0  0
   18.7474   -1.5027    0.0000 C   0  0  0  0  0  0  0  0  0  0  0  0
   13.5512   -1.5019    0.0000 C   0  0  0  0  0  0  0  0  0  0  0  0
    8.3551   -1.5010    0.0000 C   0  0  0  0  0  0  0  0  0  0  0  0
   20.0465   -0.7529    0.0000 C   0  0  0  0  0  0  0  0  0  0  0  0
   17.4485   -0.7525    0.0000 C   0  0  0  0  0  0  0  0  0  0  0  0
   14.8504   -0.7521    0.0000 C   0  0  0  0  0  0  0  0  0  0  0  0
   12.2523   -0.7517    0.0000 C   0  0  0  0  0  0  0  0  0  0  0  0
    9.6542   -0.7512    0.0000 C   0  0  0  0  0  0  0  0  0  0  0  0
    7.0562   -0.7508    0.0000 C   0  0  0  0  0  0  0  0  0  0  0  0
   -2.0400    1.5000    0.0000 C   0  0  0  0  0  0  0  0  0  0  0  0
   -2.0400   -1.5000    0.0000 C   0  0  0  0  0  0  0  0  0  0  0  0
    4.4581   -0.7504    0.0000 C   0  0  0  0  0  0  0  0  0  0  0  0
    3.1589   -1.5002    0.0000 C   0  0  0  0  0  0  0  0  0  0  0  0
   21.3455   -1.5031    0.0000 C   0  0  0  0  0  0  0  0  0  0  0  0
   16.1493   -1.5023    0.0000 C   0  0  0  0  0  0  0  0  0  0  0  0
   10.9531   -1.5015    0.0000 C   0  0  0  0  0  0  0  0  0  0  0  0
    5.7570   -1.5006    0.0000 C   0  0  0  0  0  0  0  0  0  0  0  0
    1.8600    0.7500    0.0000 C   0  0  0  0  0  0  0  0  0  0  0  0
    1.8600   -0.7500    0.0000 C   0  0  0  0  0  0  0  0  0  0  0  0
   -0.7400    0.7500    0.0000 C   0  0  0  0  0  0  0  0  0  0  0  0
   -0.7400   -0.7500    0.0000 C   0  0  0  0  0  0  0  0  0  0  0  0
    0.5600    1.5000    0.0000 C   0  0  0  0  0  0  0  0  0  0  0  0
    0.5600   -1.5000    0.0000 C   0  0  0  0  0  0  0  0  0  0  0  0
    0.5600    3.0000    0.0000 O   0  0  0  0  0  0  0  0  0  0  0  0
    0.5600   -3.0000    0.0000 O   0  0  0  0  0  0  0  0  0  0  0  0
  8  7  2  0
 12  9  1  0
 13  9  1  0
 14 10  1  0
 15 10  1  0
 16 11  1  0
 17 11  1  0
 18  7  1  0
 19  8  1  0
 21 20  1  0
 22  1  1  0
 22  2  1  0
 22 12  1  0
 23  3  1  1
 23 13  1  0
 23 14  1  0
 24  4  1  1
 24 15  1  0
 24 16  1  0
 25  5  1  0
 25 17  1  0
 20 25  2  0
 26  6  1  0
 27 21  1  0
 27 26  2  0
 28 18  2  0
 29 19  2  0
 29 28  1  0
 30 26  1  0
 30 28  1  0
 31 27  1  0
 31 29  1  0
 32 30  2  0
 33 31  2  0
M  END
>  <NAME>  (3712) 
VITAMIN K1

>  <SYNONYMS>  (3712) 
PHYLLOQUINONE

>  <SPECTRUM TYPE>  (3712) 
MS1

>  <INSTRUMENT TYPE>  (3712) 
EI-B

>  <INSTRUMENT>  (3712) 
HITACHI M-80

>  <ION MODE>  (3712) 
P

>  <INCHIKEY>  (3712) 
MBWXNTAXLNYFJB-NKFFZRIASA-N

>  <FORMULA>  (3712) 
C31H46O2

>  <EXACT MASS>  (3712) 
450.349780712

>  <MW>  (3712) 
450

>  <ID>  (3712) 
JP006238

>  <CONTRIBUTOR>  (3712) 
University of Tokyo Team, {Faculty of Engineering, University of Tokyo

>  <COMMENT>  (3712) 
SMILES=c(c1CC=C(CCCC(CCCC(CCCC(C)C)([H])C)([H])C)C)(=O)c(c2)c(ccc2)c(=O)c(C)1
cas=84-80-0
InChI=InChI=1S/C31H46O2/c1-22(2)12-9-13-23(3)14-10-15-24(4)16-11-17-25(5)20-21-27-26(6)30(32)28-18-7-8-19-29(28)31(27)33/h7-8,18-20,22-24H,9-17,21H2,1-6H3/b25-20+/t23-,24-/m1/s1
computed SMILES=O=C1C=2C=CC=CC2C(=O)C(=C1C)CC=C(C)CCCC(C)CCCC(C)CCCC(C)C
accession=JP006238
date=2016.01.19 (Created 2008.10.21, modified 2011.05.06)
author=MASS SPECTROSCOPY SOC. OF JAPAN (MSSJ)
license=CC BY-NC-SA
exact mass=450.34978
ionization energy=70 eV
ion type=[M]+*
computed spectral entropy=3.884594965217839
computed normalized entropy=0.7635422917334113
SPLASH=splash10-0udl-9740400000-e47d11ed7b15a667d611
submitter=submitter = University of Tokyo Team (Faculty of Engineering, University of Tokyo)
MoNA Rating=3.75

>  <NUM PEAKS>  (3712) 
162

>  <MASS SPECTRAL PEAKS>  (3712) 
39 3.79
40 0.93
41 31.55
42 5.96
43 67.38
44 2.04
50 0.59
51 0.73
53 2.64
54 0.75
55 27.59
56 6.05
57 37.55
58 1.72
65 1.01
67 3.96
68 1.51
69 15.52
70 2.43
71 15.56
72 0.77
75 0.51
76 2.56
77 4.23
78 0.61
79 2.12
80 0.74
81 5
82 1.23
83 6.29
84 0.87
85 4.21
89 0.57
90 0.17
91 2.51
92 0.47
93 1.72
94 1.02
95 3.37
96 0.72
97 4.1
98 0.44
99 0.57
103 0.78
104 2.48
105 7.08
106 0.6
107 1.04
108 0.38
109 2.49
110 0.43
111 1.82
112 0.34
113 0.4
114 0.31
115 3.75
116 0.68
117 0.46
119 0.83
121 0.72
122 0.21
123 1.12
124 0.3
125 0.57
127 1.36
128 3.4
129 2.76
130 0.77
131 0.73
132 0.31
133 3.47
134 0.45
137 0.51
139 0.62
141 3.76
142 1.12
143 0.98
144 0.43
145 0.57
147 1.83
151 0.41
152 2.06
153 1.9
154 0.7
155 1.11
157 3
158 2.44
159 1.22
160 0.58
161 0.99
165 3.02
166 1.29
167 1.1
168 0.7
169 2.18
170 0.78
171 1.96
172 0.59
173 1.32
174 1.84
175 0.41
178 2.27
179 1.91
180 0.63
181 4.82
182 1.52
183 1.47
184 0.78
185 1.12
186 37.39
187 23.98
188 4.13
189 0.69
191 0.47
192 0.45
193 1.43
194 0.88
195 3.19
196 1.88
197 12.36
198 36.06
199 8.75
200 4.32
201 0.95
207 1.27
208 1.2
209 3.16
210 3.31
211 8
212 3.04
213 1.98
214 0.5
221 1.51
222 1.13
223 3.35
224 7.36
225 49.58
226 21.03
227 7.96
228 1.57
235 0.58
236 0.36
237 1.22
238 1.45
239 5.46
240 1.77
241 1.35
242 1.15
252 0.4
253 1.33
254 0.97
267 1.52
268 0.73
433 0.45
435 3.06
436 1.07
448 0.71
449 0.76
450 99.99
451 34.27
452 6.87
453 0.99

>  <PREDICTED SPECTRUM>  (3712) 
28 7
29 1
41 52
43 211
50 61
51 45
53 22
55 430
56 168
57 448
65 15
67 125
69 437
70 14
71 240
73 43
75 1
77 59
78 69
79 75
80 53
81 309
82 19
83 163
85 169
93 45
94 16
95 182
97 94
102 21
104 29
109 347
110 48
111 10
113 35
114 8
115 51
116 46
118 69
119 51
120 69
121 65
122 29
123 62
124 51
125 47
126 78
127 153
128 78
129 215
131 116
133 64
135 13
137 41
141 39
142 15
143 83
144 150
145 98
147 76
149 37
155 30
156 83
157 165
158 9
159 18
163 79
164 15
165 44
167 11
169 182
170 161
171 224
172 183
173 235
174 98
175 32
178 10
183 223
184 271
185 794
186 492
187 245
188 113
189 72
190 6
197 283
198 400
199 264
200 177
201 52
204 23
208 36
209 29
211 441
212 259
213 65
223 250
224 223
225 999
226 689
227 541
228 159
239 89
240 116
241 9
253 40
254 166
255 68
267 24
268 21
349 42
409 19
411 45
431 62
432 23
435 335
449 11
450 801
451 482
452 273
453 30

$$$$

     RDKit          2D

 33 34  0  0  0  0  0  0  0  0999 V2000
   22.6446   -0.7533    0.0000 C   0  0  0  0  0  0  0  0  0  0  0  0
   21.3452   -3.0031    0.0000 C   0  0  0  0  0  0  0  0  0  0  0  0
   16.1491   -3.0023    0.0000 C   0  0  0  0  0  0  0  0  0  0  0  0
   10.9529   -3.0015    0.0000 C   0  0  0  0  0  0  0  0  0  0  0  0
    5.7568   -3.0006    0.0000 C   0  0  0  0  0  0  0  0  0  0  0  0
    3.1589    1.5002    0.0000 C   0  0  0  0  0  0  0  0  0  0  0  0
   -3.3400    0.7500    0.0000 C   0  0  0  0  0  0  0  0  0  0  0  0
   -3.3400   -0.7500    0.0000 C   0  0  0  0  0  0  0  0  0  0  0  0
   18.7474   -1.5027    0.0000 C   0  0  0  0  0  0  0  0  0  0  0  0
   13.5512   -1.5019    0.0000 C   0  0  0  0  0  0  0  0  0  0  0  0
    8.3551   -1.5010    0.0000 C   0  0  0  0  0  0  0  0  0  0  0  0
   20.0465   -0.7529    0.0000 C   0  0  0  0  0  0  0  0  0  0  0  0
   17.4485   -0.7525    0.0000 C   0  0  0  0  0  0  0  0  0  0  0  0
   14.8504   -0.7521    0.0000 C   0  0  0  0  0  0  0  0  0  0  0  0
   12.2523   -0.7517    0.0000 C   0  0  0  0  0  0  0  0  0  0  0  0
    9.6542   -0.7512    0.0000 C   0  0  0  0  0  0  0  0  0  0  0  0
    7.0562   -0.7508    0.0000 C   0  0  0  0  0  0  0  0  0  0  0  0
   -2.0400    1.5000    0.0000 C   0  0  0  0  0  0  0  0  0  0  0  0
   -2.0400   -1.5000    0.0000 C   0  0  0  0  0  0  0  0  0  0  0  0
    4.4581   -0.7504    0.0000 C   0  0  0  0  0  0  0  0  0  0  0  0
    3.1589   -1.5002    0.0000 C   0  0  0  0  0  0  0  0  0  0  0  0
   21.3455   -1.5031    0.0000 C   0  0  0  0  0  0  0  0  0  0  0  0
   16.1493   -1.5023    0.0000 C   0  0  0  0  0  0  0  0  0  0  0  0
   10.9531   -1.5015    0.0000 C   0  0  0  0  0  0  0  0  0  0  0  0
    5.7570   -1.5006    0.0000 C   0  0  0  0  0  0  0  0  0  0  0  0
    1.8600    0.7500    0.0000 C   0  0  0  0  0  0  0  0  0  0  0  0
    1.8600   -0.7500    0.0000 C   0  0  0  0  0  0  0  0  0  0  0  0
   -0.7400    0.7500    0.0000 C   0  0  0  0  0  0  0  0  0  0  0  0
   -0.7400   -0.7500    0.0000 C   0  0  0  0  0  0  0  0  0  0  0  0
    0.5600    1.5000    0.0000 C   0  0  0  0  0  0  0  0  0  0  0  0
    0.5600   -1.5000    0.0000 C   0  0  0  0  0  0  0  0  0  0  0  0
    0.5600    3.0000    0.0000 O   0  0  0  0  0  0  0  0  0  0  0  0
    0.5600   -3.0000    0.0000 O   0  0  0  0  0  0  0  0  0  0  0  0
  8  7  2  0
 12  9  1  0
 13  9  1  0
 14 10  1  0
 15 10  1  0
 16 11  1  0
 17 11  1  0
 18  7  1  0
 19  8  1  0
 21 20  1  0
 22  1  1  0
 22  2  1  0
 22 12  2  0
 23  3  1  0
 23 13  1  0
 14 23  2  0
 24  4  1  0
 24 15  1  0
 16 24  2  0
 25  5  1  0
 25 17  1  0
 20 25  2  0
 26  6  1  0
 27 21  1  0
 27 26  2  0
 28 18  2  0
 29 19  2  0
 29 28  1  0
 30 26  1  0
 30 28  1  0
 31 27  1  0
 31 29  1  0
 32 30  2  0
 33 31  2  0
M  END
>  <NAME>  (3713) 
VITAMIN K2

>  <SYNONYMS>  (3713) 
MENSAQUINONE

>  <SPECTRUM TYPE>  (3713) 
MS1

>  <INSTRUMENT TYPE>  (3713) 
EI-B

>  <INSTRUMENT>  (3713) 
HITACHI M-80

>  <ION MODE>  (3713) 
P

>  <INCHIKEY>  (3713) 
DKHGMERMDICWDU-GHDNBGIDSA-N

>  <FORMULA>  (3713) 
C31H40O2

>  <EXACT MASS>  (3713) 
444.30283052

>  <MW>  (3713) 
444

>  <ID>  (3713) 
JP006237

>  <CONTRIBUTOR>  (3713) 
University of Tokyo Team, {Faculty of Engineering, University of Tokyo

>  <COMMENT>  (3713) 
SMILES=C(C)(CCC=C(C)CCC=C(C)C)=CCCC(C)=CCc(c(=O)1)c(C)c(=O)c(c2)c1ccc2
InChI=InChI=1S/C31H40O2/c1-22(2)12-9-13-23(3)14-10-15-24(4)16-11-17-25(5)20-21-27-26(6)30(32)28-18-7-8-19-29(28)31(27)33/h7-8,12,14,16,18-20H,9-11,13,15,17,21H2,1-6H3/b23-14+,24-16+,25-20+
computed SMILES=O=C1C=2C=CC=CC2C(=O)C(=C1C)CC=C(C)CCC=C(C)CCC=C(C)CCC=C(C)C
accession=JP006237
date=2016.01.19 (Created 2008.10.21, modified 2011.05.06)
author=MASS SPECTROSCOPY SOC. OF JAPAN (MSSJ)
license=CC BY-NC-SA
exact mass=444.30283
ionization energy=70 eV
ion type=[M]+*
computed spectral entropy=4.074737137528043
computed normalized entropy=0.7805477775965409
SPLASH=splash10-014l-9430000000-936e4020e35c79ab80a8
submitter=submitter = University of Tokyo Team (Faculty of Engineering, University of Tokyo)
MoNA Rating=3.75

>  <NUM PEAKS>  (3713) 
185

>  <MASS SPECTRAL PEAKS>  (3713) 
36 0.6
39 5.28
40 2.2
41 54.27
42 0.28
43 15.92
44 1.05
45 0.68
50 0.82
51 1.2
52 0.63
53 8.94
54 1.01
55 12.25
56 0.99
57 1.88
63 0.57
65 2.13
66 1.12
67 10.94
68 12.02
69 99.99
70 5.51
71 0.78
73 0.46
74 0.23
75 0.54
76 2.48
77 6.93
78 1.09
79 5.64
80 1.8
81 27.94
82 2.75
83 1.54
85 0.33
89 0.61
93 8.73
94 1.44
95 8.07
96 0.77
97 0.84
101 0.23
102 0.37
103 1
104 2.02
105 5.28
106 0.76
107 5.32
108 1.19
109 4.42
110 0.53
111 0.51
115 3.62
116 0.52
117 0.54
119 2.23
120 0.94
121 7.44
122 3.55
123 3.54
124 0.43
127 1.09
128 2.66
129 1.74
130 0.38
131 0.62
133 2.85
134 1.49
135 5.3
136 3.73
137 4.13
138 0.49
139 0.65
141 1.99
142 0.69
143 0.59
145 0.76
147 2.29
148 0.59
149 1.57
151 0.42
152 1.97
153 1.44
154 0.49
155 0.71
157 1.39
158 0.47
159 0.9
160 0.34
161 1.29
162 0.29
163 0.55
165 2.45
166 1.01
167 0.93
168 0.71
169 1.16
170 0.26
171 0.86
173 0.91
174 0.75
175 1.03
176 0.37
177 0.52
178 2.82
179 1.68
180 0.47
181 4.43
182 1.2
183 0.55
184 0.4
185 0.58
186 5.26
187 9.01
188 1.54
189 1.91
190 0.47
191 0.55
192 0.3
193 1.67
194 0.74
195 3.37
196 2.9
197 6.51
198 3.35
199 1.4
200 0.63
201 0.7
202 0.33
203 0.79
204 1.41
205 0.5
206 0.28
207 0.72
208 0.54
209 2.17
210 1.9
211 2.22
212 0.74
213 0.82
215 0.38
221 2.54
222 1.14
223 2.58
224 10.55
225 30.55
226 6.55
227 6.02
228 0.96
235 0.32
236 0.24
237 0.84
238 2.1
239 12.7
240 5.62
241 1.19
242 0.52
249 0.29
250 0.27
251 1.16
252 1.42
253 0.74
254 0.34
257 1.06
258 0.63
259 0.41
263 0.41
264 0.4
265 2.89
266 1.03
267 0.67
289 0.51
294 0.48
295 0.26
307 3.14
308 2.06
309 0.37
375 1.06
376 0.49
429 0.54
430 0.25
444 10.09
445 3.36
446 0.98

>  <PREDICTED SPECTRUM>  (3713) 
27 50
29 63
39 51
40 48
41 614
42 41
43 397
44 63
45 60
50 37
51 43
52 12
53 207
54 95
55 320
56 71
57 132
58 39
59 88
65 15
66 15
67 356
68 194
69 999
70 151
71 78
73 52
74 42
75 37
76 36
77 203
78 57
79 239
80 148
81 652
82 117
83 116
84 34
85 51
89 26
91 147
92 53
93 288
94 86
95 430
96 67
97 130
98 56
99 13
102 51
103 130
104 125
105 321
106 127
107 341
108 147
109 501
110 134
111 108
112 43
113 56
114 8
115 150
116 39
117 76
118 18
119 197
120 140
121 296
122 91
123 311
124 33
125 103
127 87
128 78
129 112
130 32
131 88
132 26
133 203
134 146
135 326
136 322
137 358
138 88
139 49
141 58
143 54
144 52
145 84
146 28
147 163
148 33
149 200
150 112
151 154
152 91
153 79
154 80
155 112
157 92
158 106
159 132
160 35
161 171
162 74
163 95
164 63
165 129
166 54
167 83
168 118
169 234
170 143
171 192
172 134
173 123
174 99
175 161
176 82
177 109
178 178
179 60
180 57
181 60
182 57
183 101
184 156
185 141
186 256
187 251
188 141
189 244
190 65
191 78
192 61
193 98
194 137
195 255
196 180
197 273
198 219
199 63
200 22
201 47
202 17
204 56
205 101
207 18
208 147
209 73
210 115
211 217
212 104
213 111
214 74
215 85
220 16
221 82
222 68
223 199
224 280
225 612
226 201
227 167
228 67
229 13
237 127
238 221
239 486
240 283
241 160
242 51
251 106
252 140
253 73
254 11
264 51
265 117
266 56
267 38
291 81
293 105
294 95
306 66
307 186
308 245
309 43
333 54
340 58
341 28
350 9
362 1
375 124
376 62
401 3
402 19
426 24
428 1
429 63
430 74
431 4
442 17
443 66
444 229
445 132
446 101

$$$$

     RDKit          2D

  6  5  0  0  0  0  0  0  0  0999 V2000
   -4.5466    3.3750    0.0000 C   0  0  0  0  0  0  0  0  0  0  0  0
    1.9486    2.6250    0.0000 C   0  0  0  0  0  0  0  0  0  0  0  0
   -3.2476    2.6250    0.0000 C   0  0  0  0  0  0  0  0  0  0  0  0
   -1.9486    3.3750    0.0000 C   0  0  0  0  0  0  0  0  0  0  0  0
   -0.6495    2.6250    0.0000 C   0  0  0  0  0  0  0  0  0  0  0  0
    0.6495    3.3750    0.0000 Si  0  0  0  0  0  4  0  0  0  0  0  0
  3  1  1  0
  4  3  1  0
  5  4  1  0
  6  2  1  0
  6  5  1  0
M  END
>  <NAME>  (3714) 
BUTYLMETHYLSILANE

>  <SYNONYMS>  (3714) 


>  <SPECTRUM TYPE>  (3714) 
MS1

>  <INSTRUMENT TYPE>  (3714) 
EI-B

>  <INSTRUMENT>  (3714) 
HITACHI RMU-6M

>  <ION MODE>  (3714) 
P

>  <INCHIKEY>  (3714) 
MFGTZDMAYACKNE-UHFFFAOYSA-N

>  <FORMULA>  (3714) 
C5H14Si

>  <EXACT MASS>  (3714) 
102.08647697800001

>  <MW>  (3714) 
102

>  <ID>  (3714) 
JP006023

>  <CONTRIBUTOR>  (3714) 
University of Tokyo Team, {Faculty of Engineering, University of Tokyo

>  <COMMENT>  (3714) 
SMILES=CCCC[SiH2]C
InChI=InChI=1S/C5H14Si/c1-3-4-5-6-2/h3-6H2,1-2H3
computed SMILES=CCCC[SiH2]C
accession=JP006023
date=2016.01.19 (Created 2008.10.21, modified 2011.05.06)
author=YAMAMOTO M, DEP. CHEMISTRY, FAC. SCIENCE, NARA WOMEN'S UNIV.
license=CC BY-NC-SA
exact mass=102.08648
ionization energy=70 eV
ion type=[M]+*
computed spectral entropy=2.3799993324496618
computed normalized entropy=0.6749166217792552
SPLASH=splash10-00dj-9000000000-83298483ae3d008afeed
submitter=submitter = University of Tokyo Team (Faculty of Engineering, University of Tokyo)
MoNA Rating=3.75

>  <NUM PEAKS>  (3714) 
34

>  <MASS SPECTRAL PEAKS>  (3714) 
27 6.8
28 3.7
29 3.9
31 0.29
32 1.2
39 3.9
41 8.8
42 0.31
43 19.5
44 11
45 87.6
46 0.57
47 3
53 1.8
55 2.8
56 2.04
57 2.5
58 9.5
59 30.6
60 0.25
61 1.3
70 1
71 2.9
72 2.31
73 99.99
74 10.6
75 3.5
85 0.37
86 1.3
87 2.7
100 13
101 0.59
102 5.5
103 1

>  <PREDICTED SPECTRUM>  (3714) 
27 64
29 102
31 73
32 21
39 65
41 322
42 73
43 349
44 320
45 735
46 48
47 138
55 199
56 306
57 422
58 371
59 999
60 213
70 3
71 190
72 339
73 791
74 401
75 125
85 55
87 256
100 204
101 250
102 331
103 23

$$$$

     RDKit          2D

  8  7  0  0  0  0  0  0  0  0999 V2000
    1.6740    0.1005    0.0000 C   0  0  0  0  0  0  0  0  0  0  0  0
   -0.9240    1.6005    0.0000 C   0  0  0  0  0  0  0  0  0  0  0  0
   -0.3750   -0.4486    0.0000 C   0  0  0  0  0  0  0  0  0  0  0  0
    2.4240    1.3995    0.0000 C   0  0  0  0  0  0  0  0  0  0  0  0
    1.8750    3.4486    0.0000 C   0  0  0  0  0  0  0  0  0  0  0  0
   -0.1740    2.8995    0.0000 C   0  0  0  0  0  0  0  0  0  0  0  0
    0.3750    0.8505    0.0000 C   0  0  0  0  0  0  0  0  0  0  0  0
    1.1250    2.1495    0.0000 C   0  0  0  0  0  0  0  0  0  0  0  0
  7  1  1  0
  7  2  1  0
  7  3  1  0
  8  4  1  0
  8  5  1  0
  8  6  1  0
  8  7  1  0
M  END
>  <NAME>  (3715) 
HEXAMETHYLETHANE

>  <SYNONYMS>  (3715) 
2,2,3,3-TERTMETHYLBUTANE

>  <SPECTRUM TYPE>  (3715) 
MS1

>  <INSTRUMENT TYPE>  (3715) 
EI-B

>  <INSTRUMENT>  (3715) 
HITACHI RMU-6M

>  <ION MODE>  (3715) 
P

>  <INCHIKEY>  (3715) 
OMMLUKLXGSRPHK-UHFFFAOYSA-N

>  <FORMULA>  (3715) 
C8H18

>  <EXACT MASS>  (3715) 
114.14085057599999

>  <MW>  (3715) 
114

>  <ID>  (3715) 
JP006022

>  <CONTRIBUTOR>  (3715) 
University of Tokyo Team, {Faculty of Engineering, University of Tokyo

>  <COMMENT>  (3715) 
SMILES=CC(C)(C)C(C)(C)C
InChI=InChI=1S/C8H18/c1-7(2,3)8(4,5)6/h1-6H3
computed SMILES=CC(C)(C)C(C)(C)C
accession=JP006022
date=2016.01.19 (Created 2008.10.21, modified 2011.05.06)
author=YAMAMOTO M, DEP. CHEMISTRY, FAC. SCIENCE, NARA WOMEN'S UNIV.
license=CC BY-NC-SA
exact mass=114.14085
ionization energy=70 eV
ion type=[M]+*
computed spectral entropy=1.7445061695772182
computed normalized entropy=0.556373588799705
SPLASH=splash10-0a4i-9000000000-dcfa906988445e9870c6
submitter=submitter = University of Tokyo Team (Faculty of Engineering, University of Tokyo)
MoNA Rating=3.75

>  <NUM PEAKS>  (3715) 
23

>  <MASS SPECTRAL PEAKS>  (3715) 
15 0.8
27 3.9
28 3.4
29 1.09
32 1
39 5.1
40 1.1
41 2.15
42 1.3
43 14.5
44 0.7
51 0.06
53 1.2
55 3.3
56 35.3
57 99.99
58 4.6
67 0.6
69 1.6
71 0.06
83 1
99 7.9
100 0.8

>  <PREDICTED SPECTRUM>  (3715) 
14 21
15 85
25 11
26 54
27 211
28 108
29 345
37 42
38 73
39 318
40 144
41 596
42 271
43 385
44 57
50 22
51 81
52 65
53 123
54 33
55 251
56 473
57 999
58 193
59 8
65 26
69 52
70 87
71 64
99 70
100 63
114 55
115 9

$$$$

     RDKit          2D

  6  5  0  0  0  0  0  0  0  0999 V2000
   -0.0000   -0.0000    0.0000 C   0  0  0  0  0  0  0  0  0  0  0  0
    1.2990    2.2500    0.0000 C   0  0  0  0  0  0  0  0  0  0  0  0
   -1.2990    3.7500    0.0000 C   0  0  0  0  0  0  0  0  0  0  0  0
   -2.5981    1.5000    0.0000 C   0  0  0  0  0  0  0  0  0  0  0  0
   -0.0000    1.5000    0.0000 C   0  0  0  0  0  0  0  0  0  0  0  0
   -1.2990    2.2500    0.0000 C   0  0  0  0  0  0  0  0  0  0  0  0
  5  1  1  0
  5  2  1  0
  6  3  1  0
  6  4  1  0
  6  5  1  0
M  END
>  <NAME>  (3716) 
2,3-DIMETHYLBUTANE

>  <SYNONYMS>  (3716) 


>  <SPECTRUM TYPE>  (3716) 
MS1

>  <INSTRUMENT TYPE>  (3716) 
EI-B

>  <INSTRUMENT>  (3716) 
HITACHI RMU-6M

>  <ION MODE>  (3716) 
P

>  <INCHIKEY>  (3716) 
ZFFMLCVRJBZUDZ-UHFFFAOYSA-N

>  <FORMULA>  (3716) 
C6H14

>  <EXACT MASS>  (3716) 
86.109550448

>  <MW>  (3716) 
86

>  <ID>  (3716) 
JP006021

>  <CONTRIBUTOR>  (3716) 
University of Tokyo Team, {Faculty of Engineering, University of Tokyo

>  <COMMENT>  (3716) 
SMILES=CC(C)C(C)C
InChI=InChI=1S/C6H14/c1-5(2)6(3)4/h5-6H,1-4H3
computed SMILES=CC(C)C(C)C
accession=JP006021
date=2016.01.19 (Created 2008.10.21, modified 2011.05.06)
author=YAMAMOTO M, DEP. CHEMISTRY, FAC. SCIENCE, NARA WOMEN'S UNIV.
license=CC BY-NC-SA
exact mass=86.10955
ionization energy=70 eV
ion type=[M]+*
computed spectral entropy=1.8500331836670896
computed normalized entropy=0.5678263863815847
SPLASH=splash10-0006-9000000000-3c7a22f4ffc77da13848
submitter=submitter = University of Tokyo Team (Faculty of Engineering, University of Tokyo)
MoNA Rating=3.75

>  <NUM PEAKS>  (3716) 
26

>  <MASS SPECTRAL PEAKS>  (3716) 
15 1
26 0.8
27 13.1
28 0.38
29 6.2
32 1
38 0.8
39 0.96
40 1.7
41 26.2
42 94.2
43 99.99
44 3.3
50 0.6
51 0.9
53 0.17
55 4.8
56 0.9
57 1.1
69 0.08
70 1.1
71 21.3
72 1.4
85 0.12
86 8.1
87 0.7

>  <PREDICTED SPECTRUM>  (3716) 
14 23
15 102
16 11
18 21
25 32
26 86
27 513
28 258
29 369
31 29
32 2
36 32
37 73
38 135
39 493
40 227
41 854
42 478
43 999
44 480
45 97
51 1
52 23
53 241
55 795
56 232
57 395
58 86
68 3
70 176
71 272
72 72
86 439
87 118

$$$$

     RDKit          2D

 14 14  0  0  1  0  0  0  0  0999 V2000
    1.0090   -3.5800    0.0000 C   0  0  0  0  0  0  0  0  0  0  0  0
   -1.5890   -3.5800    0.0000 C   0  0  0  0  0  0  0  0  0  0  0  0
   -0.2900    3.1700    0.0000 C   0  0  0  0  0  0  0  0  0  0  0  0
    4.9070   -1.3306    0.0000 C   0  0  0  0  0  0  0  0  0  0  0  0
   -1.5900    0.9200    0.0000 C   0  0  0  0  0  0  0  0  0  0  0  0
   -1.5900   -0.5800    0.0000 C   0  0  0  0  0  0  0  0  0  0  0  0
    1.0100    0.9200    0.0000 C   0  0  0  0  0  0  0  0  0  0  0  0
   -0.2900   -2.8300    0.0000 C   0  0  0  0  0  0  0  0  0  0  0  0
   -0.2900    1.6700    0.0000 C   0  0  0  0  0  0  0  0  0  0  0  0
    3.6081   -0.5804    0.0000 C   0  0  0  0  0  0  0  0  0  0  0  0
   -0.2900   -1.3300    0.0000 C   0  0  0  0  0  0  0  0  0  0  0  0
    1.0100   -0.5800    0.0000 C   0  0  0  0  0  0  0  0  0  0  0  0
    3.6083    0.9196    0.0000 O   0  0  0  0  0  0  0  0  0  0  0  0
    2.3089   -1.3302    0.0000 O   0  0  0  0  0  0  0  0  0  0  0  0
  6  5  1  0
  8  1  2  0
  8  2  1  0
  9  3  1  1
  9  5  1  0
  9  7  1  0
 10  4  1  0
 11  6  1  0
 11  8  1  6
 12  7  1  0
 12 11  1  0
 13 10  2  0
 14 10  1  0
 12 14  1  1
M  END
>  <NAME>  (3717) 
ISOPULEGYL ACETATE(EQUATORIAL)

>  <SYNONYMS>  (3717) 


>  <SPECTRUM TYPE>  (3717) 
MS1

>  <INSTRUMENT TYPE>  (3717) 
EI-B

>  <INSTRUMENT>  (3717) 
HITACHI RMU-6M

>  <ION MODE>  (3717) 
P

>  <INCHIKEY>  (3717) 
HLHIVJRLODSUCI-ADEWGFFLSA-N

>  <FORMULA>  (3717) 
C12H20O2

>  <EXACT MASS>  (3717) 
196.14632988

>  <MW>  (3717) 
196

>  <ID>  (3717) 
JP006014

>  <CONTRIBUTOR>  (3717) 
University of Tokyo Team, {Faculty of Engineering, University of Tokyo

>  <COMMENT>  (3717) 
SMILES=CC(=O)OC(C1)C(CCC(C)1)C(C)=C
InChI=InChI=1S/C12H20O2/c1-8(2)11-6-5-9(3)7-12(11)14-10(4)13/h9,11-12H,1,5-7H2,2-4H3/t9-,11+,12-/m1/s1
computed SMILES=O=C(OC1CC(C)CCC1C(=C)C)C
accession=JP006014
date=2016.01.19 (Created 2008.10.21, modified 2011.05.06)
author=YAMAMOTO M, DEP. CHEMISTRY, FAC. SCIENCE, NARA WOMEN'S UNIV.
license=CC BY-NC-SA
exact mass=196.14633
ionization energy=70 eV
ion type=[M]+*
computed spectral entropy=3.361317841523044
computed normalized entropy=0.7566017784115867
SPLASH=splash10-0006-9300000000-cba940c1d1f1aaf19f8e
submitter=submitter = University of Tokyo Team (Faculty of Engineering, University of Tokyo)
MoNA Rating=3.75

>  <NUM PEAKS>  (3717) 
85

>  <MASS SPECTRAL PEAKS>  (3717) 
15 3.48
28 1.24
29 8.22
30 0.16
31 0.44
32 0.27
38 0.24
39 9.74
40 2.31
41 23.22
42 2.27
43 99.99
44 2.3
45 0.41
50 0.26
51 1.18
52 0.87
53 7.15
54 1.42
55 12.71
56 2.71
57 1.3
58 0.4
59 0.38
61 0.36
62 0.27
65 1.74
66 1.16
67 9.5
68 9.09
69 12.33
70 1.26
71 4.54
72 0.47
77 3.21
78 0.89
79 10.24
80 9.24
81 28.31
82 4.27
83 2.55
84 3.15
85 2.27
86 0.33
91 2.52
92 4.83
93 23.86
94 13.69
95 8.33
96 1.44
97 4.15
98 1.7
99 0.5
101 0.29
105 0.95
106 0.4
107 5.66
108 7.77
109 8.83
110 2.23
111 2.8
112 1.5
113 0.41
115 0.1
119 0.29
120 1.02
121 23.51
122 2.52
123 1.28
124 0.26
125 0.39
134 0.48
135 2.59
136 42.96
137 5.21
138 1.44
139 2.14
140 0.24
145 0.49
152 0.41
153 0.67
154 0.9
163 0.65
196 2.27
197 0.34

>  <PREDICTED SPECTRUM>  (3717) 
26 37
27 267
28 61
29 211
31 26
38 45
39 318
40 140
41 585
42 150
43 999
44 90
45 31
50 44
51 138
52 115
53 320
54 222
55 447
56 135
57 257
58 117
59 69
61 18
62 4
63 39
64 24
65 185
66 237
67 503
68 362
69 384
70 167
71 280
72 125
77 249
78 124
79 470
80 417
81 632
82 382
83 287
84 111
85 87
86 34
91 270
92 307
93 778
94 510
95 437
96 202
97 218
98 105
99 75
105 97
106 80
107 524
108 410
109 236
110 181
111 224
112 94
119 15
121 720
122 229
123 64
124 11
125 27
135 157
136 731
137 290
138 126
139 133
152 1
153 33
154 65

$$$$

     RDKit          2D

 14 14  0  0  1  0  0  0  0  0999 V2000
   -2.2389    2.0451    0.0000 C   0  0  0  0  0  0  0  0  0  0  0  0
   -3.5379   -0.2049    0.0000 C   0  0  0  0  0  0  0  0  0  0  0  0
    2.9573   -2.4549    0.0000 C   0  0  0  0  0  0  0  0  0  0  0  0
    5.5560    0.5453    0.0000 C   0  0  0  0  0  0  0  0  0  0  0  0
    0.3587   -2.4557    0.0000 C   0  0  0  0  0  0  0  0  0  0  0  0
   -0.9403   -1.7057    0.0000 C   0  0  0  0  0  0  0  0  0  0  0  0
    0.3597    0.5459    0.0000 C   0  0  0  0  0  0  0  0  0  0  0  0
   -2.2389    0.5451    0.0000 C   0  0  0  0  0  0  0  0  0  0  0  0
    1.6583   -1.7049    0.0000 C   0  0  0  0  0  0  0  0  0  0  0  0
    4.2568   -0.2045    0.0000 C   0  0  0  0  0  0  0  0  0  0  0  0
   -0.9398   -0.2049    0.0000 C   0  0  0  0  0  0  0  0  0  0  0  0
    1.6587   -0.2041    0.0000 C   0  0  0  0  0  0  0  0  0  0  0  0
    4.2566   -1.7045    0.0000 O   0  0  0  0  0  0  0  0  0  0  0  0
    2.9579    0.5457    0.0000 O   0  0  0  0  0  0  0  0  0  0  0  0
  6  5  1  0
  8  1  2  0
  8  2  1  0
  9  3  1  0
  9  5  1  0
 10  4  1  0
 11  6  1  0
 11  7  1  0
 11  8  1  0
 12  7  1  0
 12  9  1  0
 13 10  2  0
 14 10  1  0
 12 14  1  1
M  END
>  <NAME>  (3718) 
DIHYDROCARVENYL ACETATE(EQUATORIAL)

>  <SYNONYMS>  (3718) 


>  <SPECTRUM TYPE>  (3718) 
MS1

>  <INSTRUMENT TYPE>  (3718) 
EI-B

>  <INSTRUMENT>  (3718) 
HITACHI RMU-6M

>  <ION MODE>  (3718) 
P

>  <INCHIKEY>  (3718) 
TUSIZTVSUSBSQI-QEWOUOOISA-N

>  <FORMULA>  (3718) 
C12H20O2

>  <EXACT MASS>  (3718) 
196.14632988

>  <MW>  (3718) 
196

>  <ID>  (3718) 
JP006012

>  <CONTRIBUTOR>  (3718) 
University of Tokyo Team, {Faculty of Engineering, University of Tokyo

>  <COMMENT>  (3718) 
SMILES=CC(=O)OC([H])(C1)C(C)CCC(C(C)=C)1
InChI=InChI=1S/C12H20O2/c1-8(2)11-6-5-9(3)12(7-11)14-10(4)13/h9,11-12H,1,5-7H2,2-4H3/t9?,11?,12-/m1/s1
computed SMILES=O=C(OC1CC(C(=C)C)CCC1C)C
accession=JP006012
date=2016.01.19 (Created 2008.10.21, modified 2011.05.06)
author=YAMAMOTO M, DEP. CHEMISTRY, FAC. SCIENCE, NARA WOMEN'S UNIV.
license=CC BY-NC-SA
exact mass=196.14633
ionization energy=70 eV
ion type=[M]+*
computed spectral entropy=3.364965327718862
computed normalized entropy=0.7769966569902879
SPLASH=splash10-0006-9400000000-0ac164b598b2cc6a7b08
submitter=submitter = University of Tokyo Team (Faculty of Engineering, University of Tokyo)
MoNA Rating=3.75

>  <NUM PEAKS>  (3718) 
76

>  <MASS SPECTRAL PEAKS>  (3718) 
15 5.49
27 12.98
28 7.69
29 15.27
30 0.42
31 0.71
32 1.83
38 0.4
39 18.79
40 5.18
41 44.06
42 4.45
43 96.98
44 2.07
45 0.71
50 0.84
51 2.82
52 1.39
53 15.51
54 3.15
55 24.63
56 2.64
57 1.94
58 0.99
59 0.31
60 0.18
61 0.44
63 0.66
65 3.7
66 2.38
67 24.79
68 29.98
69 13.2
70 1.5
71 1.83
72 3.5
73 0.18
77 6.96
78 1.72
79 44.79
80 9.21
81 23.31
82 14.43
83 5.02
84 1.7
85 0.84
91 6.06
92 5.64
93 65.9
94 25.75
95 16.26
96 2.25
97 5.24
98 0.71
105 3.33
106 1.17
107 70.7
108 23.31
109 5.49
110 1.94
111 2.16
112 0.44
119 1.01
120 0.82
121 62.77
122 6.59
123 0.9
135 2.23
136 99.99
137 13.17
138 0.71
139 0.24
152 3.48
153 0.84
154 3.39
155 0.42

>  <PREDICTED SPECTRUM>  (3718) 
26 32
27 253
28 109
29 226
30 11
31 16
36 0
37 27
38 74
39 393
40 205
41 774
42 219
43 821
44 119
45 63
46 11
49 32
50 103
51 178
52 167
53 410
54 233
55 548
56 260
57 328
58 82
59 28
60 55
61 100
62 52
63 87
64 32
65 233
66 247
67 574
68 521
69 672
70 227
71 173
72 113
73 43
77 344
78 142
79 571
80 473
81 690
82 411
83 248
84 187
85 137
86 73
91 367
92 436
93 999
94 498
95 527
96 206
97 157
98 91
99 80
100 11
105 272
106 229
107 812
108 608
109 143
110 101
111 103
112 48
119 41
121 862
122 327
123 142
124 89
125 88
126 11
135 138
136 905
137 466
138 76
139 115
153 39
154 2

$$$$

     RDKit          2D

 10 11  0  0  0  0  0  0  0  0999 V2000
    3.3289    1.3502    0.0000 C   0  0  0  0  0  0  0  0  0  0  0  0
   -2.8341    0.9992    0.0000 C   0  0  0  0  0  0  0  0  0  0  0  0
   -2.8341   -1.2992    0.0000 C   0  0  0  0  0  0  0  0  0  0  0  0
    2.0300   -0.9000    0.0000 C   0  0  0  0  0  0  0  0  0  0  0  0
    0.7300   -1.6500    0.0000 C   0  0  0  0  0  0  0  0  0  0  0  0
    0.7300    1.3500    0.0000 C   0  0  0  0  0  0  0  0  0  0  0  0
    2.0300    0.6000    0.0000 C   0  0  0  0  0  0  0  0  0  0  0  0
   -0.5700   -0.9000    0.0000 C   0  0  0  0  0  0  0  0  0  0  0  0
   -0.5700    0.6000    0.0000 C   0  0  0  0  0  0  0  0  0  0  0  0
   -1.8700   -0.1500    0.0000 C   0  0  0  0  0  0  0  0  0  0  0  0
  5  4  1  0
  7  1  1  0
  7  4  1  0
  7  6  1  0
  8  5  1  0
  9  6  1  0
  9  8  1  0
 10  2  1  0
 10  3  1  0
 10  8  1  0
 10  9  1  0
M  END
>  <NAME>  (3719) 
CARANE

>  <SYNONYMS>  (3719) 
3,7,7-TRIMETHYLBICYCLO(4.1.0)HEPTANE

>  <SPECTRUM TYPE>  (3719) 
MS1

>  <INSTRUMENT TYPE>  (3719) 
EI-B

>  <INSTRUMENT>  (3719) 
HITACHI M-80

>  <ION MODE>  (3719) 
P

>  <INCHIKEY>  (3719) 
BWRHOYDPVJPXMF-UHFFFAOYSA-N

>  <FORMULA>  (3719) 
C10H18

>  <EXACT MASS>  (3719) 
138.140850576

>  <MW>  (3719) 
138

>  <ID>  (3719) 
JP006006

>  <CONTRIBUTOR>  (3719) 
University of Tokyo Team, {Faculty of Engineering, University of Tokyo

>  <COMMENT>  (3719) 
SMILES=CC(C2)CC(C(C2)1)C(C)(C)1
InChI=InChI=1S/C10H18/c1-7-4-5-8-9(6-7)10(8,2)3/h7-9H,4-6H2,1-3H3
computed SMILES=CC1CCC2C(C1)C2(C)C
accession=JP006006
date=2016.01.19 (Created 2008.10.21, modified 2011.05.06)
author=YAMAMOTO M, DEP. CHEMISTRY, FAC. SCIENCE, NARA WOMEN'S UNIV.
license=CC BY-NC-SA
exact mass=138.14085
ionization energy=70 eV
ion type=[M]+*
computed spectral entropy=2.9691110349222556
computed normalized entropy=0.8104438581124901
SPLASH=splash10-00l2-9100000000-c31fe137b5b7dd5e9786
submitter=submitter = University of Tokyo Team (Faculty of Engineering, University of Tokyo)
MoNA Rating=3.75

>  <NUM PEAKS>  (3719) 
39

>  <MASS SPECTRAL PEAKS>  (3719) 
27 8.74
28 1.36
29 7.55
39 13.38
40 2.69
41 33.17
42 2.84
43 6.21
51 1.91
52 1.27
53 9.3
54 4.36
55 27.74
56 3.61
57 3.88
65 2.98
66 1.73
67 51.06
68 11.39
69 16.61
70 2.14
77 4.49
79 9.83
80 4.84
81 73.21
82 27.81
83 5.87
91 3
93 3.93
94 8.81
95 99.99
96 17.51
97 1.44
109 7.8
110 1.62
123 25.22
124 2.23
138 25.26
139 2.53

>  <PREDICTED SPECTRUM>  (3719) 
26 13
27 245
28 38
29 202
38 40
39 454
40 180
41 791
42 208
43 292
50 94
51 215
52 138
53 381
54 328
55 660
56 331
57 200
63 49
65 182
66 173
67 868
68 536
69 683
70 292
71 43
77 324
78 124
79 412
80 275
81 868
82 606
83 343
84 77
91 217
92 55
93 268
94 435
95 999
96 576
97 225
105 136
106 2
107 142
109 408
110 213
121 62
123 710
124 190
138 438
139 106

$$$$

     RDKit          2D

 16 16  0  0  0  0  0  0  0  0999 V2000
    6.0613   -3.8215    0.0000 C   0  0  0  0  0  0  0  0  0  0  0  0
    1.0157    3.3579    0.0000 C   0  0  0  0  0  0  0  0  0  0  0  0
    4.7622   -3.0715    0.0000 C   0  0  0  0  0  0  0  0  0  0  0  0
    3.4632   -3.8215    0.0000 C   0  0  0  0  0  0  0  0  0  0  0  0
    2.1642   -3.0715    0.0000 C   0  0  0  0  0  0  0  0  0  0  0  0
    0.8651   -3.8215    0.0000 C   0  0  0  0  0  0  0  0  0  0  0  0
   -2.0508   -1.2720    0.0000 C   0  0  0  0  0  0  0  0  0  0  0  0
   -2.8008   -2.5710    0.0000 C   0  0  0  0  0  0  0  0  0  0  0  0
    0.5239   -0.5801    0.0000 C   0  0  0  0  0  0  0  0  0  0  0  0
   -0.5910   -1.5836    0.0000 C   0  0  0  0  0  0  0  0  0  0  0  0
   -0.4339   -3.0715    0.0000 C   0  0  0  0  0  0  0  0  0  0  0  0
   -1.8010   -3.6794    0.0000 C   0  0  0  0  0  0  0  0  0  0  0  0
    0.2123    0.8871    0.0000 C   0  0  0  0  0  0  0  0  0  0  0  0
   -2.1126   -5.1467    0.0000 O   0  0  0  0  0  0  0  0  0  0  0  0
   -1.2142    1.3510    0.0000 O   0  0  0  0  0  0  0  0  0  0  0  0
    1.3273    1.8906    0.0000 O   0  0  0  0  0  0  0  0  0  0  0  0
  3  1  1  0
  4  3  1  0
  5  4  1  0
  6  5  1  0
  8  7  1  0
 10  7  1  0
 10  9  1  0
 11  6  1  0
 11 10  1  0
 12  8  1  0
 12 11  1  0
 13  9  1  0
 14 12  2  0
 15 13  2  0
 16  2  1  0
 16 13  1  0
M  END
>  <NAME>  (3720) 
METHYL DIHYDROJASMONATE

>  <SYNONYMS>  (3720) 


>  <SPECTRUM TYPE>  (3720) 
MS1

>  <INSTRUMENT TYPE>  (3720) 
EI-B

>  <INSTRUMENT>  (3720) 
HITACHI RMU-6M

>  <ION MODE>  (3720) 
P

>  <INCHIKEY>  (3720) 
KVWWIYGFBYDJQC-UHFFFAOYSA-N

>  <FORMULA>  (3720) 
C13H22O3

>  <EXACT MASS>  (3720) 
226.156894564

>  <MW>  (3720) 
226

>  <ID>  (3720) 
JP006001

>  <CONTRIBUTOR>  (3720) 
University of Tokyo Team, {Faculty of Engineering, University of Tokyo

>  <COMMENT>  (3720) 
SMILES=CCCCCC(C(=O)1)C(CC1)CC(=O)OC
InChI=InChI=1S/C13H22O3/c1-3-4-5-6-11-10(7-8-12(11)14)9-13(15)16-2/h10-11H,3-9H2,1-2H3
computed SMILES=O=C(OC)CC1CCC(=O)C1CCCCC
accession=JP006001
date=2016.01.19 (Created 2008.10.21, modified 2011.05.06)
author=YAMAMOTO M, DEP. CHEMISTRY, FAC. SCIENCE, NARA WOMEN'S UNIV.
license=CC BY-NC-SA
exact mass=226.15689
ionization energy=70 eV
ion type=[M]+*
computed spectral entropy=3.3593433483720534
computed normalized entropy=0.7263487773858993
SPLASH=splash10-053r-9300000000-62390431d97df2804646
submitter=submitter = University of Tokyo Team (Faculty of Engineering, University of Tokyo)
MoNA Rating=3.75

>  <NUM PEAKS>  (3720) 
102

>  <MASS SPECTRAL PEAKS>  (3720) 
15 6.3
17 3.3
18 15.2
26 0.06
27 8.2
28 3.1
29 10
30 0.05
31 0.7
32 0.8
39 6.9
40 0.18
41 20.8
42 2.7
43 5.8
44 0.07
45 1.2
51 0.9
52 0.9
53 0.54
54 5.3
55 13.4
56 2.2
57 0.15
58 0.7
59 6.5
65 1.6
66 0.12
67 8.9
68 3.9
69 7.2
70 0.11
71 2.3
72 0.7
73 0.6
74 0.73
75 5.4
76 0.6
77 1.7
78 0.08
79 3.8
80 1.2
81 5.8
82 2.47
83 99.99
84 7.2
85 2.8
86 0.06
87 1.2
91 1.5
92 0.7
93 0.21
94 0.8
95 4.7
96 8.6
97 0.58
98 0.8
99 1.2
101 0.6
105 0.09
107 0.9
108 0.7
109 4
110 0.17
111 1.5
112 1.1
113 1.3
114 0.07
115 0.7
119 0.8
121 0.6
123 0.18
124 1.3
125 0.7
127 0.8
128 0.09
133 0.8
134 0.7
135 1.1
137 0.18
138 1.6
139 0.6
141 1.1
149 0.12
151 2.4
152 2.8
153 31.2
154 0.36
155 1.4
156 42.5
157 4
158 0.07
164 0.5
165 1.5
166 0.7
169 0.19
194 1.6
195 4.2
196 0.8
197 0.06
226 5.9
227 1.1

>  <PREDICTED SPECTRUM>  (3720) 
15 10
17 0
26 40
27 368
28 193
29 462
31 201
32 38
33 35
36 3
37 8
38 73
39 521
40 248
41 999
42 444
43 758
44 212
45 178
47 46
50 44
51 194
52 124
53 437
54 371
55 924
56 308
57 361
58 33
59 569
60 57
61 199
62 28
63 74
64 24
65 222
66 229
67 730
68 445
69 688
70 195
71 330
72 48
73 31
74 858
75 263
76 107
77 336
78 87
79 509
80 281
81 758
82 457
83 643
84 279
85 218
87 513
88 200
89 75
91 326
92 175
93 603
94 432
95 744
96 572
97 599
98 100
99 185
100 126
101 412
102 14
105 198
106 129
107 336
108 622
109 545
110 459
111 285
112 42
113 20
116 15
119 279
120 246
121 637
122 527
123 517
124 458
125 466
126 178
127 122
128 31
130 6
131 38
132 38
133 202
134 223
135 183
136 41
137 475
138 362
139 151
140 156
141 92
142 314
143 63
144 103
147 6
148 132
149 213
150 271
151 354
152 356
153 710
154 139
155 525
156 537
157 134
159 36
163 30
165 215
166 314
167 34
169 593
170 237
176 108
177 321
183 10
193 115
194 413
195 519
196 140
197 92
198 28
208 237
226 435
227 235
228 55

$$$$

     RDKit          2D

 12 12  0  0  0  0  0  0  0  0999 V2000
   -0.9959   -4.6350    0.0000 C   0  0  0  0  0  0  0  0  0  0  0  0
    3.2424    0.8564    0.0000 C   0  0  0  0  0  0  0  0  0  0  0  0
    0.3031   -3.8850    0.0000 C   0  0  0  0  0  0  0  0  0  0  0  0
    0.3031   -2.3850    0.0000 C   0  0  0  0  0  0  0  0  0  0  0  0
    1.6021   -1.6350    0.0000 C   0  0  0  0  0  0  0  0  0  0  0  0
    2.9012   -2.3850    0.0000 C   0  0  0  0  0  0  0  0  0  0  0  0
    5.8171    0.1645    0.0000 C   0  0  0  0  0  0  0  0  0  0  0  0
    6.5671   -1.1345    0.0000 C   0  0  0  0  0  0  0  0  0  0  0  0
    4.3573   -0.1471    0.0000 C   0  0  0  0  0  0  0  0  0  0  0  0
    4.2002   -1.6350    0.0000 C   0  0  0  0  0  0  0  0  0  0  0  0
    5.5673   -2.2429    0.0000 C   0  0  0  0  0  0  0  0  0  0  0  0
    5.8789   -3.7102    0.0000 O   0  0  0  0  0  0  0  0  0  0  0  0
  3  1  1  0
  4  3  1  0
  4  5  2  0
  6  5  1  0
  8  7  1  0
  9  2  1  0
  9  7  1  0
 10  6  1  0
 10  9  2  0
 11  8  1  0
 11 10  1  0
 12 11  2  0
M  END
>  <NAME>  (3721) 
CIS-JASMONE

>  <SYNONYMS>  (3721) 
CIS-3-METHYL-2-(2-PENTENYL)-2-CYCLOPENTEN-1-ONE

>  <SPECTRUM TYPE>  (3721) 
MS1

>  <INSTRUMENT TYPE>  (3721) 
EI-B

>  <INSTRUMENT>  (3721) 
HITACHI RMU-6M

>  <ION MODE>  (3721) 
P

>  <INCHIKEY>  (3721) 
XMLSXPIVAXONDL-PLNGDYQASA-N

>  <FORMULA>  (3721) 
C11H16O

>  <EXACT MASS>  (3721) 
164.120115132

>  <MW>  (3721) 
164

>  <ID>  (3721) 
JP005999

>  <CONTRIBUTOR>  (3721) 
University of Tokyo Team, {Faculty of Engineering, University of Tokyo

>  <COMMENT>  (3721) 
SMILES=CCC=CCC(=C(C)1)C(=O)CC1
InChI=InChI=1S/C11H16O/c1-3-4-5-6-10-9(2)7-8-11(10)12/h4-5H,3,6-8H2,1-2H3/b5-4-
computed SMILES=O=C1C(=C(C)CC1)CC=CCC
accession=JP005999
date=2016.01.19 (Created 2008.10.21, modified 2011.05.06)
author=YAMAMOTO M, DEP. CHEMISTRY, FAC. SCIENCE, NARA WOMEN'S UNIV.
license=CC BY-NC-SA
exact mass=164.12012
ionization energy=70 eV
ion type=[M]+*
computed spectral entropy=3.4576561044471434
computed normalized entropy=0.7742335965229866
SPLASH=splash10-03dl-9700000000-626f6beb94dae241c8a7
submitter=submitter = University of Tokyo Team (Faculty of Engineering, University of Tokyo)
MoNA Rating=3.75

>  <NUM PEAKS>  (3721) 
87

>  <MASS SPECTRAL PEAKS>  (3721) 
15 1.1
27 26.4
28 4.2
32 0.9
38 1.8
39 31.5
40 0.62
41 42.7
42 2.1
43 0.87
50 3.4
51 11.7
52 6.8
53 2.11
54 3.2
55 30.8
56 1.8
57 0.11
58 0.9
62 1.1
63 4.1
64 0.18
65 13.4
66 7.2
67 21.5
68 0.42
69 2.4
74 1.1
75 0.9
76 0.06
77 25.3
78 6.5
79 48.3
80 0.91
81 24.4
82 8.2
83 1.2
89 0.12
91 29.5
92 4.7
93 31.9
94 0.77
95 10.2
96 2.1
97 1.2
99 0.08
102 0.7
103 2.4
104 1.1
105 1.14
106 2.7
107 17.2
108 5.1
109 3.01
110 59.3
111 5.3
115 2
116 0.13
117 3
118 0.8
119 2.9
120 0.18
121 14.1
122 41.9
123 9.4
124 0.11
128 0.6
129 0.9
130 0.7
131 1.46
132 2
133 2.4
134 1.2
135 4.05
136 8.8
137 1.3
145 1.9
146 0.14
147 2.6
148 0.5
149 47.4
150 0.52
151 0.7
163 2.3
164 99.99
165 1.26
166 1.3

>  <PREDICTED SPECTRUM>  (3721) 
25 7
26 138
27 492
28 115
29 397
31 14
37 60
38 158
39 700
40 306
41 872
42 198
43 428
44 129
49 5
50 257
51 500
52 388
53 664
54 278
55 589
56 182
57 215
58 71
59 77
60 41
61 25
62 128
63 255
64 155
65 530
66 400
67 716
68 286
69 303
70 49
71 111
72 69
74 65
75 148
76 49
77 786
78 390
79 930
80 469
81 478
82 327
83 226
84 49
85 95
86 10
87 50
89 111
90 47
91 762
92 370
93 842
94 507
95 526
96 341
97 125
98 70
102 80
103 310
104 211
105 601
106 384
107 999
108 521
109 330
110 150
111 55
115 110
116 102
117 330
118 139
119 406
120 286
121 933
122 479
123 281
124 88
129 82
130 20
131 330
132 97
133 280
134 195
135 919
136 431
137 148
145 195
146 149
147 248
148 121
149 832
150 273
151 17
161 40
162 114
163 383
164 978
165 350
166 66

$$$$

     RDKit          2D

  6  6  0  0  0  0  0  0  0  0999 V2000
    2.2128    0.6850    0.0000 C   0  0  0  0  0  0  0  0  0  0  0  0
   -1.6500    0.1800    0.0000 C   0  0  0  0  0  0  0  0  0  0  0  0
   -1.1500   -1.2300    0.0000 C   0  0  0  0  0  0  0  0  0  0  0  0
   -0.4300    1.0800    0.0000 C   0  0  0  0  0  0  0  0  0  0  0  0
    0.3400   -1.2100    0.0000 C   0  0  0  0  0  0  0  0  0  0  0  0
    0.7900    0.2100    0.0000 C   0  0  0  0  0  0  0  0  0  0  0  0
  3  2  1  0
  4  2  1  0
  5  3  1  0
  6  1  1  0
  6  4  1  0
  6  5  1  0
M  END
>  <NAME>  (3722) 
METHYLCYCLOPENTANE

>  <SYNONYMS>  (3722) 


>  <SPECTRUM TYPE>  (3722) 
MS1

>  <INSTRUMENT TYPE>  (3722) 
EI-B

>  <INSTRUMENT>  (3722) 
HITACHI RMU-6M

>  <ION MODE>  (3722) 
P

>  <INCHIKEY>  (3722) 
GDOPTJXRTPNYNR-UHFFFAOYSA-N

>  <FORMULA>  (3722) 
C6H12

>  <EXACT MASS>  (3722) 
84.093900384

>  <MW>  (3722) 
84

>  <ID>  (3722) 
JP005995

>  <CONTRIBUTOR>  (3722) 
University of Tokyo Team, {Faculty of Engineering, University of Tokyo

>  <COMMENT>  (3722) 
SMILES=CC(C1)CCC1
InChI=InChI=1S/C6H12/c1-6-4-2-3-5-6/h6H,2-5H2,1H3
computed SMILES=CC1CCCC1
accession=JP005995
date=2016.01.19 (Created 2008.10.21, modified 2011.05.06)
author=YAMAMOTO M, DEP. CHEMISTRY, FAC. SCIENCE, NARA WOMEN'S UNIV.
license=CC BY-NC-SA
exact mass=84.0939
ionization energy=70 eV
ion type=[M]+*
computed spectral entropy=2.4017179769199144
computed normalized entropy=0.6929893229832469
SPLASH=splash10-0a4l-9000000000-f36947d92a09565016ad
submitter=submitter = University of Tokyo Team (Faculty of Engineering, University of Tokyo)
MoNA Rating=3.75

>  <NUM PEAKS>  (3722) 
32

>  <MASS SPECTRAL PEAKS>  (3722) 
15 1
17 1.9
18 8.7
26 0.14
27 12.5
28 5.7
29 7.5
32 0.07
37 0.6
38 1.4
39 15.6
40 0.37
41 51.4
42 24
43 10.5
50 0.11
51 1.8
52 0.7
53 3.4
54 0.3
55 24.1
56 99.99
57 4.8
65 0.08
66 0.6
67 2.6
68 4.1
69 3.72
70 2.2
83 1
84 25.5
85 1.8

>  <PREDICTED SPECTRUM>  (3722) 
14 5
15 37
25 14
26 137
27 473
28 287
29 430
30 58
32 21
34 2
35 19
37 61
38 98
39 477
40 235
41 801
42 569
43 445
44 59
49 4
50 105
51 173
52 93
53 250
54 249
55 843
56 999
57 483
58 23
63 41
65 95
66 69
67 272
68 317
69 778
70 831
71 99
77 48
78 87
79 50
80 5
81 122
82 141
83 110
84 325
85 49

$$$$

     RDKit          2D

  7  7  0  0  0  0  0  0  0  0999 V2000
   -2.0749    1.4187    0.0000 C   0  0  0  0  0  0  0  0  0  0  0  0
   -0.6521    1.8937    0.0000 C   0  0  0  0  0  0  0  0  0  0  0  0
    1.7166   -1.1990    0.0000 C   0  0  0  0  0  0  0  0  0  0  0  0
    2.6877   -0.0610    0.0000 C   0  0  0  0  0  0  0  0  0  0  0  0
    0.3272   -0.5925    0.0000 C   0  0  0  0  0  0  0  0  0  0  0  0
    1.9254    1.2193    0.0000 C   0  0  0  0  0  0  0  0  0  0  0  0
    0.4707    0.8991    0.0000 C   0  0  0  0  0  0  0  0  0  0  0  0
  2  1  1  0
  4  3  1  0
  5  3  1  0
  6  4  1  0
  7  2  1  0
  7  5  1  0
  7  6  1  0
M  END
>  <NAME>  (3723) 
ETHYLCYLOPENTANE

>  <SYNONYMS>  (3723) 


>  <SPECTRUM TYPE>  (3723) 
MS1

>  <INSTRUMENT TYPE>  (3723) 
EI-B

>  <INSTRUMENT>  (3723) 
HITACHI RMU-6M

>  <ION MODE>  (3723) 
P

>  <INCHIKEY>  (3723) 
IFTRQJLVEBNKJK-UHFFFAOYSA-N

>  <FORMULA>  (3723) 
C7H14

>  <EXACT MASS>  (3723) 
98.109550448

>  <MW>  (3723) 
98

>  <ID>  (3723) 
JP005994

>  <CONTRIBUTOR>  (3723) 
University of Tokyo Team, {Faculty of Engineering, University of Tokyo

>  <COMMENT>  (3723) 
SMILES=CCC(C1)CCC1
InChI=InChI=1S/C7H14/c1-2-7-5-3-4-6-7/h7H,2-6H2,1H3
computed SMILES=CCC1CCCC1
accession=JP005994
date=2016.01.19 (Created 2008.10.21, modified 2011.05.06)
author=YAMAMOTO M, DEP. CHEMISTRY, FAC. SCIENCE, NARA WOMEN'S UNIV.
license=CC BY-NC-SA
exact mass=98.10955
ionization energy=70 eV
ion type=[M]+*
computed spectral entropy=2.677664432710784
computed normalized entropy=0.7258747448970125
SPLASH=splash10-05tf-9000000000-ded33dd9b182a639bed0
submitter=submitter = University of Tokyo Team (Faculty of Engineering, University of Tokyo)
MoNA Rating=3.75

>  <NUM PEAKS>  (3723) 
40

>  <MASS SPECTRAL PEAKS>  (3723) 
15 1.2
17 2
18 9.4
26 0.16
27 20.6
28 4.9
29 16.4
32 0.1
37 0.6
38 1.4
39 26.8
40 0.47
41 76
42 44.7
43 8.3
50 0.15
51 2.5
52 1.3
53 6.3
54 0.64
55 52.2
56 49.2
57 7.8
63 0.09
65 1.7
66 1.1
67 11.5
68 7.99
69 99.99
70 61.4
71 3.3
77 0.07
79 0.7
81 0.7
82 1
83 0.94
84 0.9
97 1.1
98 33
99 2.8

>  <PREDICTED SPECTRUM>  (3723) 
14 25
15 102
25 29
26 186
27 579
28 401
29 657
30 163
31 151
32 58
33 16
35 8
37 64
38 140
39 634
40 313
41 906
42 541
43 398
50 123
51 198
52 130
53 274
54 298
55 904
56 666
57 264
58 62
65 135
66 151
67 388
68 450
69 999
70 805
71 167
77 160
78 70
79 105
80 21
81 141
82 88
83 210
97 45
98 375
99 78

$$$$

     RDKit          2D

  7  7  0  0  0  0  0  0  0  0999 V2000
   -3.0958   -1.4497    0.0000 C   0  0  0  0  0  0  0  0  0  0  0  0
   -0.6043   -2.4006    0.0000 C   0  0  0  0  0  0  0  0  0  0  0  0
    0.7714   -1.7978    0.0000 C   0  0  0  0  0  0  0  0  0  0  0  0
   -0.8541    0.0068    0.0000 C   0  0  0  0  0  0  0  0  0  0  0  0
   -1.6041   -1.2923    0.0000 C   0  0  0  0  0  0  0  0  0  0  0  0
    0.6057   -0.3049    0.0000 C   0  0  0  0  0  0  0  0  0  0  0  0
    1.7179    0.7016    0.0000 O   0  0  0  0  0  0  0  0  0  0  0  0
  3  2  1  0
  5  1  1  0
  5  2  1  0
  5  4  1  0
  6  3  1  0
  6  4  1  0
  7  6  2  0
M  END
>  <NAME>  (3724) 
3-METHYLCYCLOPENTANONE

>  <SYNONYMS>  (3724) 


>  <SPECTRUM TYPE>  (3724) 
MS1

>  <INSTRUMENT TYPE>  (3724) 
EI-B

>  <INSTRUMENT>  (3724) 
HITACHI RMU-6M

>  <ION MODE>  (3724) 
P

>  <INCHIKEY>  (3724) 
AOKRXIIIYJGNNU-UHFFFAOYSA-N

>  <FORMULA>  (3724) 
C6H10O

>  <EXACT MASS>  (3724) 
98.07316494

>  <MW>  (3724) 
98

>  <ID>  (3724) 
JP005992

>  <CONTRIBUTOR>  (3724) 
University of Tokyo Team, {Faculty of Engineering, University of Tokyo

>  <COMMENT>  (3724) 
SMILES=CC(C1)CC(=O)C1
InChI=InChI=1S/C6H10O/c1-5-2-3-6(7)4-5/h5H,2-4H2,1H3
computed SMILES=O=C1CCC(C)C1
accession=JP005992
date=2016.01.19 (Created 2008.10.21, modified 2011.05.06)
author=YAMAMOTO M, DEP. CHEMISTRY, FAC. SCIENCE, NARA WOMEN'S UNIV.
license=CC BY-NC-SA
exact mass=98.07316
ionization energy=70 eV
ion type=[M]+*
computed spectral entropy=2.4417959719718407
computed normalized entropy=0.7683305891972583
SPLASH=splash10-05mo-9000000000-dde13156f41833bd22a8
submitter=submitter = University of Tokyo Team (Faculty of Engineering, University of Tokyo)
MoNA Rating=3.75

>  <NUM PEAKS>  (3724) 
24

>  <MASS SPECTRAL PEAKS>  (3724) 
15 3.2
26 5.9
27 32.6
28 4.41
29 16.2
37 1.7
38 4.2
39 3.37
40 8.2
41 62.2
42 84.6
43 0.6
50 2.9
51 3.4
53 6.1
54 0.29
55 66.3
56 37.7
57 2.5
69 99.99
70 10.1
83 9.5
98 58.8
99 4.3

>  <PREDICTED SPECTRUM>  (3724) 
14 4
15 13
26 95
27 286
28 210
29 155
37 45
38 94
39 403
40 226
41 751
42 733
43 239
44 2
49 2
50 128
51 175
52 133
53 220
54 314
55 632
56 999
57 204
63 22
65 96
67 32
68 26
69 610
70 348
71 37
83 157
98 630
99 165

$$$$

     RDKit          2D

  9  9  0  0  0  0  0  0  0  0999 V2000
   -2.9228    0.8825    0.0000 C   0  0  0  0  0  0  0  0  0  0  0  0
    2.2733   -0.6175    0.0000 C   0  0  0  0  0  0  0  0  0  0  0  0
    2.2738    0.8833    0.0000 C   0  0  0  0  0  0  0  0  0  0  0  0
    0.9738   -1.3683    0.0000 C   0  0  0  0  0  0  0  0  0  0  0  0
    0.9748    1.6333    0.0000 C   0  0  0  0  0  0  0  0  0  0  0  0
   -0.3252   -0.6183    0.0000 C   0  0  0  0  0  0  0  0  0  0  0  0
   -1.6238    1.6325    0.0000 C   0  0  0  0  0  0  0  0  0  0  0  0
   -0.3248    0.8825    0.0000 C   0  0  0  0  0  0  0  0  0  0  0  0
   -1.6238    3.1325    0.0000 Cl  0  0  0  0  0  0  0  0  0  0  0  0
  3  2  2  0
  4  2  1  0
  5  3  1  0
  6  4  2  0
  7  1  1  0
  8  5  2  0
  8  6  1  0
  8  7  1  0
  9  7  1  0
M  END
>  <NAME>  (3725) 
1-CHLOROETHYLBENZENE

>  <SYNONYMS>  (3725) 


>  <SPECTRUM TYPE>  (3725) 
MS1

>  <INSTRUMENT TYPE>  (3725) 
EI-B

>  <INSTRUMENT>  (3725) 
HITACHI RMU-6M

>  <ION MODE>  (3725) 
P

>  <INCHIKEY>  (3725) 
GTLWADFFABIGAE-UHFFFAOYSA-N

>  <FORMULA>  (3725) 
C8H9Cl

>  <EXACT MASS>  (3725) 
140.039277968

>  <MW>  (3725) 
140

>  <ID>  (3725) 
JP005888

>  <CONTRIBUTOR>  (3725) 
University of Tokyo Team, {Faculty of Engineering, University of Tokyo

>  <COMMENT>  (3725) 
SMILES=CC(Cl)c(c1)cccc1
InChI=InChI=1S/C8H9Cl/c1-7(9)8-5-3-2-4-6-8/h2-7H,1H3
computed SMILES=ClC(C=1C=CC=CC1)C
accession=JP005888
date=2016.01.19 (Created 2008.10.21, modified 2011.05.06)
author=YAMAMOTO M, DEP. CHEMISTRY, FAC. SCIENCE, NARA WOMEN'S UNIV.
license=CC BY-NC-SA
exact mass=140.03928
ionization energy=70 eV
ion type=[M]+*
computed spectral entropy=2.562884848345048
computed normalized entropy=0.7463291782210639
SPLASH=splash10-0a4i-5900000000-be494a345d58f9db68b8
submitter=submitter = University of Tokyo Team (Faculty of Engineering, University of Tokyo)
MoNA Rating=3.75

>  <NUM PEAKS>  (3725) 
31

>  <MASS SPECTRAL PEAKS>  (3725) 
27 4.41
28 2.86
38 1.76
39 5.73
50 5.95
51 15.2
51.5 1.32
52 4.18
52.5 1.76
53 1.21
62 1.32
63 4.3
65 1.54
74 1.98
75 1.76
76 1.76
77 14.76
78 6.82
79 12.55
89 2.86
90 1.1
102 2.09
103 12.22
104 9.8
105 99.99
106 9.47
125 7.71
127 2.64
140 16.74
141 1.43
142 5.29

>  <PREDICTED SPECTRUM>  (3725) 
14 6
15 32
25 0
26 48
27 146
28 45
32 14
35 18
36 50
37 51
38 91
39 251
40 41
41 101
49 27
50 211
51 316
52 150
53 86
54 5
58 81
61 57
62 119
63 205
64 87
65 158
66 35
73 82
74 119
75 131
76 107
77 375
78 188
79 100
86 13
89 215
90 63
102 51
103 261
104 172
105 999
106 309
107 6
112 3
115 7
125 272
126 29
127 185
139 24
140 472
141 138
142 254
143 38

$$$$

     RDKit          2D

 12 12  0  0  0  0  0  0  0  0999 V2000
   -5.5207    3.1321    0.0000 C   0  0  0  0  0  0  0  0  0  0  0  0
   -4.2216    2.3821    0.0000 C   0  0  0  0  0  0  0  0  0  0  0  0
    3.5726    0.8821    0.0000 C   0  0  0  0  0  0  0  0  0  0  0  0
    2.2731    0.1313    0.0000 C   0  0  0  0  0  0  0  0  0  0  0  0
    3.5731    2.3829    0.0000 C   0  0  0  0  0  0  0  0  0  0  0  0
    0.9740    0.8813    0.0000 C   0  0  0  0  0  0  0  0  0  0  0  0
    2.2740    3.1329    0.0000 C   0  0  0  0  0  0  0  0  0  0  0  0
    0.9745    2.3821    0.0000 C   0  0  0  0  0  0  0  0  0  0  0  0
   -1.6236    2.3821    0.0000 C   0  0  0  0  0  0  0  0  0  0  0  0
   -0.3245    3.1321    0.0000 N   0  0  0  0  0  0  0  0  0  0  0  0
   -1.6236    0.8821    0.0000 O   0  0  0  0  0  0  0  0  0  0  0  0
   -2.9226    3.1321    0.0000 O   0  0  0  0  0  0  0  0  0  0  0  0
  2  1  1  0
  4  3  2  0
  5  3  1  0
  6  4  1  0
  7  5  2  0
  8  6  2  0
  8  7  1  0
 10  8  1  0
 10  9  2  3
 11  9  1  0
 12  2  1  0
 12  9  1  0
M  END
>  <NAME>  (3726) 
PHENYLURETHAN

>  <SYNONYMS>  (3726) 
PHENYLCARBAMIC ACID ETHYL ESTER

>  <SPECTRUM TYPE>  (3726) 
MS1

>  <INSTRUMENT TYPE>  (3726) 
EI-B

>  <INSTRUMENT>  (3726) 
HITACHI RMU-6M

>  <ION MODE>  (3726) 
P

>  <INCHIKEY>  (3726) 
LBKPGNUOUPTQKA-UHFFFAOYSA-N

>  <FORMULA>  (3726) 
C9H11NO2

>  <EXACT MASS>  (3726) 
165.078978592

>  <MW>  (3726) 
165

>  <ID>  (3726) 
JP005886

>  <CONTRIBUTOR>  (3726) 
University of Tokyo Team, {Faculty of Engineering, University of Tokyo

>  <COMMENT>  (3726) 
SMILES=CCOC(=O)Nc(c1)cccc1
InChI=InChI=1S/C9H11NO2/c1-2-12-9(11)10-8-6-4-3-5-7-8/h3-7H,2H2,1H3,(H,10,11)
computed SMILES=OC(=NC=1C=CC=CC1)OCC
accession=JP005886
date=2016.01.19 (Created 2008.10.21, modified 2011.05.06)
author=YAMAMOTO M, DEP. CHEMISTRY, FAC. SCIENCE, NARA WOMEN'S UNIV.
license=CC BY-NC-SA
exact mass=165.07898
ionization energy=70 eV
ion type=[M]+*
computed spectral entropy=3.184093647118635
computed normalized entropy=0.8058459244477548
SPLASH=splash10-016u-9400000000-6330766705794584f74d
submitter=submitter = University of Tokyo Team (Faculty of Engineering, University of Tokyo)
MoNA Rating=3.75

>  <NUM PEAKS>  (3726) 
52

>  <MASS SPECTRAL PEAKS>  (3726) 
26 3.26
27 19.19
28 9.02
29 68.71
30 1.54
31 6.14
32 2.5
37 2.3
38 6.14
39 20.15
40 3.26
41 2.88
43 1.73
44 3.07
45 5.18
46 2.88
50 4.03
51 11.32
52 3.84
54 1.15
59.5 1.15
62 2.11
63 6.72
64 12.09
65 30.52
66 19.96
67 2.88
74 1.15
76 1.15
77 21.5
78 2.88
79 5.76
80 1.34
90 1.53
91 15.74
92 19.96
93 99.99
94 27.83
95 1.92
104 1.15
106 66.22
107 18.81
108 1.73
119 29.37
120 11.52
121 3.45
136 1.73
137 4.61
138 1.34
165 66.8
166 22.27
167 2.5

>  <PREDICTED SPECTRUM>  (3726) 
14 23
15 39
17 8
18 24
25 4
26 65
27 197
28 88
29 222
31 24
37 58
38 162
39 357
40 86
41 204
42 145
43 68
44 63
45 215
46 110
47 61
49 10
50 317
51 598
52 266
53 71
54 36
60 0
62 104
63 289
64 342
65 623
66 242
67 61
74 83
75 78
76 145
77 999
78 433
79 187
90 132
91 368
92 726
93 599
94 204
103 28
104 84
105 285
106 117
107 34
118 258
119 351
120 692
121 243
136 112
137 90
164 16
165 731
166 253
167 38

$$$$

     RDKit          2D

  8  7  0  0  0  0  0  0  0  0999 V2000
    1.9486    2.6250    0.0000 C   0  0  0  0  0  0  0  0  0  0  0  0
   -4.5466    3.3750    0.0000 C   0  0  0  0  0  0  0  0  0  0  0  0
   -0.6495    2.6250    0.0000 C   0  0  0  0  0  0  0  0  0  0  0  0
   -1.9486    3.3750    0.0000 C   0  0  0  0  0  0  0  0  0  0  0  0
   -0.6495    1.1250    0.0000 O   0  0  0  0  0  0  0  0  0  0  0  0
   -1.9486    4.8750    0.0000 O   0  0  0  0  0  0  0  0  0  0  0  0
    0.6495    3.3750    0.0000 O   0  0  0  0  0  0  0  0  0  0  0  0
   -3.2476    2.6250    0.0000 O   0  0  0  0  0  0  0  0  0  0  0  0
  4  3  1  0
  5  3  2  0
  6  4  2  0
  7  1  1  0
  7  3  1  0
  8  2  1  0
  8  4  1  0
M  END
>  <NAME>  (3727) 
METHYL OXALATE

>  <SYNONYMS>  (3727) 


>  <SPECTRUM TYPE>  (3727) 
MS1

>  <INSTRUMENT TYPE>  (3727) 
EI-B

>  <INSTRUMENT>  (3727) 
HITACHI RMU-6M

>  <ION MODE>  (3727) 
P

>  <INCHIKEY>  (3727) 
LOMVENUNSWAXEN-UHFFFAOYSA-N

>  <FORMULA>  (3727) 
C4H6O4

>  <EXACT MASS>  (3727) 
118.026608672

>  <MW>  (3727) 
118

>  <ID>  (3727) 
JP005885

>  <CONTRIBUTOR>  (3727) 
University of Tokyo Team, {Faculty of Engineering, University of Tokyo

>  <COMMENT>  (3727) 
SMILES=COC(=O)C(=O)OC
InChI=InChI=1S/C4H6O4/c1-7-3(5)4(6)8-2/h1-2H3
computed SMILES=O=C(OC)C(=O)OC
accession=JP005885
date=2016.01.19 (Created 2008.10.21, modified 2011.05.06)
author=YAMAMOTO M, DEP. CHEMISTRY, FAC. SCIENCE, NARA WOMEN'S UNIV.
license=CC BY-NC-SA
exact mass=118.02661
ionization energy=70 eV
ion type=[M]+*
computed spectral entropy=1.7214747661322816
computed normalized entropy=0.6356879076435216
SPLASH=splash10-066r-9000000000-8c01a94a9a877ce69f78
submitter=submitter = University of Tokyo Team (Faculty of Engineering, University of Tokyo)
MoNA Rating=3.75

>  <NUM PEAKS>  (3727) 
15

>  <MASS SPECTRAL PEAKS>  (3727) 
14 1.95
15 99.99
16 1.17
28 5.84
29 18.29
30 4.47
31 6.61
33 1.36
43 4.09
44 3.7
45 32.3
59 93.19
60 3.31
91 0.58
118 3.89

>  <PREDICTED SPECTRUM>  (3727) 
14 68
15 315
16 67
17 5
18 8
25 10
26 92
27 154
28 213
29 306
30 233
31 314
32 91
33 56
41 115
42 21
43 95
44 224
45 339
47 8
53 53
54 99
57 89
58 109
59 999
60 229
61 10
87 878
88 318
89 121
118 124

$$$$

     RDKit          2D

 12 12  0  0  0  0  0  0  0  0999 V2000
   -1.2998   -1.9296    0.0000 C   0  0  0  0  0  0  0  0  0  0  0  0
   -0.0007   -1.1796    0.0000 C   0  0  0  0  0  0  0  0  0  0  0  0
    3.8964    2.5704    0.0000 C   0  0  0  0  0  0  0  0  0  0  0  0
    2.5969    3.3212    0.0000 C   0  0  0  0  0  0  0  0  0  0  0  0
    3.8969    1.0696    0.0000 C   0  0  0  0  0  0  0  0  0  0  0  0
    1.2978    2.5712    0.0000 C   0  0  0  0  0  0  0  0  0  0  0  0
    2.5978    0.3196    0.0000 C   0  0  0  0  0  0  0  0  0  0  0  0
    1.2983    1.0704    0.0000 C   0  0  0  0  0  0  0  0  0  0  0  0
   -0.0007    0.3204    0.0000 C   0  0  0  0  0  0  0  0  0  0  0  0
   -1.2998    1.0704    0.0000 C   0  0  0  0  0  0  0  0  0  0  0  0
   -1.2998    2.5704    0.0000 O   0  0  0  0  0  0  0  0  0  0  0  0
   -2.5988    0.3204    0.0000 O   0  0  0  0  0  0  0  0  0  0  0  0
  2  1  1  0
  4  3  2  0
  5  3  1  0
  6  4  1  0
  7  5  2  0
  8  6  2  0
  8  7  1  0
  9  2  1  0
  9  8  1  0
 10  9  1  0
 11 10  2  0
 12 10  1  0
M  END
>  <NAME>  (3728) 
ALPHA-PHENYLBUTYRIC ACID

>  <SYNONYMS>  (3728) 


>  <SPECTRUM TYPE>  (3728) 
MS1

>  <INSTRUMENT TYPE>  (3728) 
EI-B

>  <INSTRUMENT>  (3728) 
HITACHI RMU-6M

>  <ION MODE>  (3728) 
P

>  <INCHIKEY>  (3728) 
OFJWFSNDPCAWDK-UHFFFAOYSA-N

>  <FORMULA>  (3728) 
C10H12O2

>  <EXACT MASS>  (3728) 
164.083729624

>  <MW>  (3728) 
164

>  <ID>  (3728) 
JP005883

>  <CONTRIBUTOR>  (3728) 
University of Tokyo Team, {Faculty of Engineering, University of Tokyo

>  <COMMENT>  (3728) 
SMILES=CCC(C(O)=O)c(c1)cccc1
InChI=InChI=1S/C10H12O2/c1-2-9(10(11)12)8-6-4-3-5-7-8/h3-7,9H,2H2,1H3,(H,11,12)
computed SMILES=O=C(O)C(C=1C=CC=CC1)CC
accession=JP005883
date=2016.01.19 (Created 2008.10.21, modified 2011.05.06)
author=YAMAMOTO M, DEP. CHEMISTRY, FAC. SCIENCE, NARA WOMEN'S UNIV.
license=CC BY-NC-SA
exact mass=164.08373
ionization energy=70 eV
ion type=[M]+*
computed spectral entropy=2.5300503711836453
computed normalized entropy=0.7116181953008988
SPLASH=splash10-0006-9400000000-988e77503c377b5a2e3e
submitter=submitter = University of Tokyo Team (Faculty of Engineering, University of Tokyo)
MoNA Rating=3.75

>  <NUM PEAKS>  (3728) 
35

>  <MASS SPECTRAL PEAKS>  (3728) 
27 3.27
28 3.05
29 1.09
39 8.5
41 12.85
50 2.61
51 7.84
52 2.4
53 1.09
62 1.31
63 4.14
64 1.31
65 4.58
75 1.09
76 1.09
77 9.59
78 6.97
79 8.06
80 3.27
89 3.27
90 3.05
91 99.99
92 13.29
102 1.09
103 4.36
104 3.92
105 1.31
107 2.61
108 1.96
115 3.92
116 1.09
117 3.92
118 2.82
119 62.35
120 6.75

>  <PREDICTED SPECTRUM>  (3728) 
14 9
15 9
16 12
17 30
18 51
19 7
26 57
27 130
28 72
29 111
31 49
32 19
34 12
37 53
38 88
39 235
40 81
41 261
42 53
43 65
45 173
46 43
47 29
49 61
50 244
51 344
52 180
53 111
54 15
55 86
56 6
57 46
58 38
59 101
60 141
61 106
62 146
63 231
64 142
65 292
66 79
73 72
74 174
75 156
76 169
77 316
78 259
79 203
80 27
83 33
85 0
86 14
87 55
88 43
89 163
90 219
91 999
92 304
101 15
102 90
103 248
104 126
105 235
106 116
107 124
115 237
116 20
117 138
118 241
119 474
120 237
121 49
135 51
136 83
137 30
147 59
148 13
149 97
164 353
165 135
166 29

$$$$

     RDKit          2D

  9  9  0  0  0  0  0  0  0  0999 V2000
    2.9228   -0.2425    0.0000 C   0  0  0  0  0  0  0  0  0  0  0  0
    2.9233    1.2583    0.0000 C   0  0  0  0  0  0  0  0  0  0  0  0
    1.6233   -0.9933    0.0000 C   0  0  0  0  0  0  0  0  0  0  0  0
    1.6243    2.0083    0.0000 C   0  0  0  0  0  0  0  0  0  0  0  0
    0.3243   -0.2433    0.0000 C   0  0  0  0  0  0  0  0  0  0  0  0
   -0.9743    2.0075    0.0000 C   0  0  0  0  0  0  0  0  0  0  0  0
   -2.2733    1.2575    0.0000 C   0  0  0  0  0  0  0  0  0  0  0  0
    0.3248    1.2575    0.0000 C   0  0  0  0  0  0  0  0  0  0  0  0
   -3.5724    2.0075    0.0000 Cl  0  0  0  0  0  0  0  0  0  0  0  0
  2  1  2  0
  3  1  1  0
  4  2  1  0
  5  3  2  0
  7  6  1  0
  8  4  2  0
  8  5  1  0
  8  6  1  0
  9  7  1  0
M  END
>  <NAME>  (3729) 
PHENETHYL CHLORIDE

>  <SYNONYMS>  (3729) 
2-CHLOROETHYLBENZENE

>  <SPECTRUM TYPE>  (3729) 
MS1

>  <INSTRUMENT TYPE>  (3729) 
EI-B

>  <INSTRUMENT>  (3729) 
HITACHI RMU-6M

>  <ION MODE>  (3729) 
P

>  <INCHIKEY>  (3729) 
MNNZINNZIQVULG-UHFFFAOYSA-N

>  <FORMULA>  (3729) 
C8H9Cl

>  <EXACT MASS>  (3729) 
140.039277968

>  <MW>  (3729) 
140

>  <ID>  (3729) 
JP005882

>  <CONTRIBUTOR>  (3729) 
University of Tokyo Team, {Faculty of Engineering, University of Tokyo

>  <COMMENT>  (3729) 
SMILES=ClCCc(c1)cccc1
InChI=InChI=1S/C8H9Cl/c9-7-6-8-4-2-1-3-5-8/h1-5H,6-7H2
computed SMILES=ClCCC=1C=CC=CC1
accession=JP005882
date=2016.01.19 (Created 2008.10.21, modified 2011.05.06)
author=YAMAMOTO M, DEP. CHEMISTRY, FAC. SCIENCE, NARA WOMEN'S UNIV.
license=CC BY-NC-SA
exact mass=140.03928
ionization energy=70 eV
ion type=[M]+*
computed spectral entropy=2.034224124979371
computed normalized entropy=0.6400848549367258
SPLASH=splash10-0006-9100000000-6467d024b88853c292d3
submitter=submitter = University of Tokyo Team (Faculty of Engineering, University of Tokyo)
MoNA Rating=3.75

>  <NUM PEAKS>  (3729) 
24

>  <MASS SPECTRAL PEAKS>  (3729) 
27 2.66
28 2.66
38 1.02
39 4.7
50 3.89
51 8.79
52 1.84
63 1.02
64 2.66
66 5.93
74 1.23
75 1.02
77 6.54
78 3.27
79 1.84
89 1.43
91 99.99
92 7.98
103 3.89
104 2.25
105 3.07
140 15.13
141 1.23
142 4.91

>  <PREDICTED SPECTRUM>  (3729) 
26 19
27 105
28 38
29 14
36 40
37 5
38 63
39 156
40 29
41 106
49 89
50 114
51 227
52 87
53 52
62 35
63 131
64 82
65 279
66 36
68 11
75 125
76 80
77 216
78 114
79 38
89 28
90 32
91 999
92 430
93 81
102 89
103 76
104 199
105 135
106 0
115 52
140 402
141 148
142 267
143 99

$$$$

     RDKit          2D

  7  6  0  0  0  0  0  0  0  0999 V2000
    0.6998    0.3885    0.0000 C   0  0  0  0  0  0  0  0  0  0  0  0
    1.2488    2.4375    0.0000 C   0  0  0  0  0  0  0  0  0  0  0  0
   -0.8002    2.9865    0.0000 C   0  0  0  0  0  0  0  0  0  0  0  0
   -1.3493    0.9375    0.0000 C   0  0  0  0  0  0  0  0  0  0  0  0
   -0.0502    1.6875    0.0000 C   0  0  0  0  0  0  0  0  0  0  0  0
   -1.3493   -0.5625    0.0000 Cl  0  0  0  0  0  0  0  0  0  0  0  0
   -2.6483    1.6875    0.0000 O   0  0  0  0  0  0  0  0  0  0  0  0
  5  1  1  0
  5  2  1  0
  5  3  1  0
  5  4  1  0
  6  4  1  0
  7  4  2  0
M  END
>  <NAME>  (3730) 
PIVALOYL CHLORIDE

>  <SYNONYMS>  (3730) 
TRIMETHYLACETYL CHLORIDE

>  <SPECTRUM TYPE>  (3730) 
MS1

>  <INSTRUMENT TYPE>  (3730) 
EI-B

>  <INSTRUMENT>  (3730) 
HITACHI RMU-6M

>  <ION MODE>  (3730) 
P

>  <INCHIKEY>  (3730) 
JVSFQJZRHXAUGT-UHFFFAOYSA-N

>  <FORMULA>  (3730) 
C5H9ClO

>  <EXACT MASS>  (3730) 
120.034192588

>  <MW>  (3730) 
120

>  <ID>  (3730) 
JP005881

>  <CONTRIBUTOR>  (3730) 
University of Tokyo Team, {Faculty of Engineering, University of Tokyo

>  <COMMENT>  (3730) 
SMILES=CC(C)(C)C(=O)Cl
InChI=InChI=1S/C5H9ClO/c1-5(2,3)4(6)7/h1-3H3
computed SMILES=O=C(Cl)C(C)(C)C
accession=JP005881
date=2016.01.19 (Created 2008.10.21, modified 2011.05.06)
author=YAMAMOTO M, DEP. CHEMISTRY, FAC. SCIENCE, NARA WOMEN'S UNIV.
license=CC BY-NC-SA
exact mass=120.03419
ionization energy=70 eV
ion type=[M]+*
computed spectral entropy=1.9372875167516839
computed normalized entropy=0.6363190143542884
SPLASH=splash10-0a4i-9000000000-794c801034004ec757e1
submitter=submitter = University of Tokyo Team (Faculty of Engineering, University of Tokyo)
MoNA Rating=3.75

>  <NUM PEAKS>  (3730) 
21

>  <MASS SPECTRAL PEAKS>  (3730) 
15 2.11
26 1.48
27 7.82
28 3.17
29 30.02
37 1.06
38 2.33
39 13.95
40 2.33
41 47.99
42 4.23
50 1.06
53 1.06
55 3.17
56 2.33
57 99.99
58 4.23
63 1.43
77 3.81
79 1.06
85 2.33

>  <PREDICTED SPECTRUM>  (3730) 
14 33
15 45
25 19
26 113
27 331
28 203
29 406
35 61
36 103
37 62
38 127
39 439
40 169
41 726
42 293
43 331
44 85
49 173
50 163
51 243
52 137
53 213
54 131
55 211
56 349
57 999
58 151
62 85
63 211
64 87
65 139
67 133
69 161
70 7
75 40
76 5
77 86
78 39
79 59
84 107
85 531
86 67
91 14
93 15
120 144
122 63

$$$$

     RDKit          2D

  4  3  0  0  0  0  0  0  0  0999 V2000
    1.2990    1.5000    0.0000 C   0  0  0  0  0  0  0  0  0  0  0  0
    0.0000    2.2500    0.0000 C   0  0  0  0  0  0  0  0  0  0  0  0
   -1.2990    3.0000    0.0000 C   0  0  0  0  0  0  0  0  0  0  0  0
   -2.5981    2.2500    0.0000 Cl  0  0  0  0  0  0  0  0  0  0  0  0
  2  1  3  0
  3  2  1  0
  4  3  1  0
M  END
>  <NAME>  (3731) 
PROPARGYL CHLORIDE

>  <SYNONYMS>  (3731) 
3-CHLORO-1-PROPYNE

>  <SPECTRUM TYPE>  (3731) 
MS1

>  <INSTRUMENT TYPE>  (3731) 
EI-B

>  <INSTRUMENT>  (3731) 
HITACHI RMU-6M

>  <ION MODE>  (3731) 
P

>  <INCHIKEY>  (3731) 
LJZPPWWHKPGCHS-UHFFFAOYSA-N

>  <FORMULA>  (3731) 
C3H3Cl

>  <EXACT MASS>  (3731) 
73.992327776

>  <MW>  (3731) 
74

>  <ID>  (3731) 
JP005880

>  <CONTRIBUTOR>  (3731) 
University of Tokyo Team, {Faculty of Engineering, University of Tokyo

>  <COMMENT>  (3731) 
SMILES=C#CCCl
InChI=InChI=1S/C3H3Cl/c1-2-3-4/h1H,3H2
computed SMILES=ClCC#C
accession=JP005880
date=2016.01.19 (Created 2008.10.21, modified 2011.05.06)
author=YAMAMOTO M, DEP. CHEMISTRY, FAC. SCIENCE, NARA WOMEN'S UNIV.
license=CC BY-NC-SA
exact mass=73.99233
ionization energy=70 eV
ion type=[M]+*
computed spectral entropy=1.8873515537364565
computed normalized entropy=0.6807181817474165
SPLASH=splash10-000i-9000000000-37fc312dc4f19ebdb5b6
submitter=submitter = University of Tokyo Team (Faculty of Engineering, University of Tokyo)
MoNA Rating=3.75

>  <NUM PEAKS>  (3731) 
16

>  <MASS SPECTRAL PEAKS>  (3731) 
24 1.07
25 2.36
26 1.53
35 3
36 7.49
37 21.63
38 25.05
39 99.99
40 3.43
47 3.43
49 1.28
72 1.5
73 4.92
74 43.25
75 3.21
76 14.35

>  <PREDICTED SPECTRUM>  (3731) 
14 48
15 20
25 65
26 58
33 15
35 179
36 186
37 370
38 380
39 999
40 275
41 222
46 24
47 64
48 76
49 275
50 244
61 58
73 167
74 402
75 167
76 255
77 13

$$$$

     RDKit          2D

  5  4  0  0  0  0  0  0  0  0999 V2000
   -0.0000   -0.0000    0.0000 C   0  0  0  0  0  0  0  0  0  0  0  0
    0.0000    1.5000    0.0000 C   0  0  0  0  0  0  0  0  0  0  0  0
   -1.2990    2.2500    0.0000 C   0  0  0  0  0  0  0  0  0  0  0  0
   -1.2990    3.7500    0.0000 Cl  0  0  0  0  0  0  0  0  0  0  0  0
   -2.5981    1.5000    0.0000 O   0  0  0  0  0  0  0  0  0  0  0  0
  2  1  1  0
  3  2  1  0
  4  3  1  0
  5  3  2  0
M  END
>  <NAME>  (3732) 
PROPIONYL CHLORIDE

>  <SYNONYMS>  (3732) 


>  <SPECTRUM TYPE>  (3732) 
MS1

>  <INSTRUMENT TYPE>  (3732) 
EI-B

>  <INSTRUMENT>  (3732) 
HITACHI RMU-6M

>  <ION MODE>  (3732) 
P

>  <INCHIKEY>  (3732) 
RZWZRACFZGVKFM-UHFFFAOYSA-N

>  <FORMULA>  (3732) 
C3H5ClO

>  <EXACT MASS>  (3732) 
92.00289246

>  <MW>  (3732) 
92

>  <ID>  (3732) 
JP005879

>  <CONTRIBUTOR>  (3732) 
University of Tokyo Team, {Faculty of Engineering, University of Tokyo

>  <COMMENT>  (3732) 
SMILES=CCC(=O)Cl
InChI=InChI=1S/C3H5ClO/c1-2-3(4)5/h2H2,1H3
computed SMILES=O=C(Cl)CC
accession=JP005879
date=2016.01.19 (Created 2008.10.21, modified 2011.05.06)
author=YAMAMOTO M, DEP. CHEMISTRY, FAC. SCIENCE, NARA WOMEN'S UNIV.
license=CC BY-NC-SA
exact mass=92.00289
ionization energy=70 eV
ion type=[M]+*
computed spectral entropy=1.9439705938961056
computed normalized entropy=0.6289045275919926
SPLASH=splash10-004i-9000000000-040e44567e9171c6e4c7
submitter=submitter = University of Tokyo Team (Faculty of Engineering, University of Tokyo)
MoNA Rating=3.75

>  <NUM PEAKS>  (3732) 
22

>  <MASS SPECTRAL PEAKS>  (3732) 
25 3.8
26 19
27 60.32
28 15.06
29 99.99
30 2.53
35 1.97
36 1
37 1.41
38 1.12
39 1.26
41 1
42 3.8
44 2.11
49 1.69
53 1.12
55 1.97
56 1.83
57 80.21
58 2.81
63 8.02
65 2.67

>  <PREDICTED SPECTRUM>  (3732) 
14 157
15 306
16 48
17 14
18 26
25 141
26 458
27 910
28 508
29 999
30 109
31 143
35 158
36 217
37 287
38 446
39 883
40 305
42 65
43 121
49 147
50 219
51 187
52 62
53 128
55 143
56 232
57 857
58 33
63 780
64 258
65 332
66 148
92 398
93 38
94 144

$$$$

     RDKit          2D

  4  3  0  0  0  0  0  0  0  0999 V2000
    0.9743    0.5625    0.0000 C   0  0  0  0  0  0  0  0  0  0  0  0
   -1.6238    0.5625    0.0000 C   0  0  0  0  0  0  0  0  0  0  0  0
   -0.3248    1.3125    0.0000 C   0  0  0  0  0  0  0  0  0  0  0  0
   -0.3248    2.8125    0.0000 Br  0  0  0  0  0  0  0  0  0  0  0  0
  3  1  1  0
  3  2  1  0
  4  3  1  0
M  END
>  <NAME>  (3733) 
ISOPROPYL BROMIDE

>  <SYNONYMS>  (3733) 


>  <SPECTRUM TYPE>  (3733) 
MS1

>  <INSTRUMENT TYPE>  (3733) 
EI-B

>  <INSTRUMENT>  (3733) 
HITACHI RMU-6M

>  <ION MODE>  (3733) 
P

>  <INCHIKEY>  (3733) 
NAMYKGVDVNBCFQ-UHFFFAOYSA-N

>  <FORMULA>  (3733) 
C3H7Br

>  <EXACT MASS>  (3733) 
121.973112324

>  <MW>  (3733) 
122

>  <ID>  (3733) 
JP005877

>  <CONTRIBUTOR>  (3733) 
University of Tokyo Team, {Faculty of Engineering, University of Tokyo

>  <COMMENT>  (3733) 
SMILES=CC(C)Br
InChI=InChI=1S/C3H7Br/c1-3(2)4/h3H,1-2H3
computed SMILES=BrC(C)C
accession=JP005877
date=2016.01.19 (Created 2008.10.21, modified 2011.05.06)
author=YAMAMOTO M, DEP. CHEMISTRY, FAC. SCIENCE, NARA WOMEN'S UNIV.
license=CC BY-NC-SA
exact mass=121.97311
ionization energy=70 eV
ion type=[M]+*
computed spectral entropy=1.8465840748334819
computed normalized entropy=0.6660144218366997
SPLASH=splash10-0006-9100000000-87049b3f8abc32cbdd1f
submitter=submitter = University of Tokyo Team (Faculty of Engineering, University of Tokyo)
MoNA Rating=3.75

>  <NUM PEAKS>  (3733) 
16

>  <MASS SPECTRAL PEAKS>  (3733) 
15 1.68
26 2.69
27 29.29
28 2
38 2.02
39 2.69
40 11.45
41 2.02
42 32.32
43 3.37
44 99.99
45 3.37
106 1.68
108 1.35
121 11.78
123 11.45

>  <PREDICTED SPECTRUM>  (3733) 
14 117
15 341
16 10
25 36
26 261
27 619
28 346
29 240
32 28
36 27
37 102
38 208
39 692
40 295
41 943
42 541
43 999
44 301
50 130
51 79
52 104
53 57
54 288
55 53
79 183
80 249
81 129
82 237
94 244
96 30
107 379
109 471
121 6
122 528
123 230
124 564

$$$$

     RDKit          2D

  4  3  0  0  0  0  0  0  0  0999 V2000
   -2.5981    2.2500    0.0000 C   0  0  0  0  0  0  0  0  0  0  0  0
   -1.2990    1.5000    0.0000 C   0  0  0  0  0  0  0  0  0  0  0  0
    0.0000    2.2500    0.0000 C   0  0  0  0  0  0  0  0  0  0  0  0
    1.2990    1.5000    0.0000 Br  0  0  0  0  0  0  0  0  0  0  0  0
  2  1  1  0
  3  2  1  0
  4  3  1  0
M  END
>  <NAME>  (3734) 
PROPYL BROMIDE

>  <SYNONYMS>  (3734) 


>  <SPECTRUM TYPE>  (3734) 
MS1

>  <INSTRUMENT TYPE>  (3734) 
EI-B

>  <INSTRUMENT>  (3734) 
HITACHI RMU-6M

>  <ION MODE>  (3734) 
P

>  <INCHIKEY>  (3734) 
CYNYIHKIEHGYOZ-UHFFFAOYSA-N

>  <FORMULA>  (3734) 
C3H7Br

>  <EXACT MASS>  (3734) 
121.973112324

>  <MW>  (3734) 
122

>  <ID>  (3734) 
JP005876

>  <CONTRIBUTOR>  (3734) 
University of Tokyo Team, {Faculty of Engineering, University of Tokyo

>  <COMMENT>  (3734) 
SMILES=CCCBr
InChI=InChI=1S/C3H7Br/c1-2-3-4/h2-3H2,1H3
computed SMILES=BrCCC
accession=JP005876
date=2016.01.19 (Created 2008.10.21, modified 2011.05.06)
author=YAMAMOTO M, DEP. CHEMISTRY, FAC. SCIENCE, NARA WOMEN'S UNIV.
license=CC BY-NC-SA
exact mass=121.97311
ionization energy=70 eV
ion type=[M]+*
computed spectral entropy=2.105636600384434
computed normalized entropy=0.7028787648925681
SPLASH=splash10-0006-9100000000-866f6f6cbf77d251fbfe
submitter=submitter = University of Tokyo Team (Faculty of Engineering, University of Tokyo)
MoNA Rating=3.75

>  <NUM PEAKS>  (3734) 
20

>  <MASS SPECTRAL PEAKS>  (3734) 
15 2.51
26 4.25
27 37.19
28 4.58
29 5.23
37 1.96
38 3.05
39 13.41
40 2.29
41 36.86
42 9.81
43 99.99
44 3.49
93 1.31
95 1.31
107 1.74
109 1.53
122 14.61
123 0.87
124 14.29

>  <PREDICTED SPECTRUM>  (3734) 
14 97
15 269
16 23
25 74
26 344
27 935
28 404
29 680
30 29
37 93
38 240
39 704
40 332
41 999
42 621
43 774
44 253
45 94
47 29
50 89
51 61
52 62
53 76
54 96
55 73
56 75
66 7
77 25
78 12
79 249
80 426
81 235
82 410
93 210
94 388
95 409
96 465
107 151
109 387
122 591
123 151
124 659
125 73

$$$$

     RDKit          2D

  4  3  0  0  0  0  0  0  0  0999 V2000
    1.2990    1.5000    0.0000 C   0  0  0  0  0  0  0  0  0  0  0  0
    0.0000    2.2500    0.0000 C   0  0  0  0  0  0  0  0  0  0  0  0
   -1.2990    3.0000    0.0000 C   0  0  0  0  0  0  0  0  0  0  0  0
   -2.5981    2.2500    0.0000 Br  0  0  0  0  0  0  0  0  0  0  0  0
  2  1  3  0
  3  2  1  0
  4  3  1  0
M  END
>  <NAME>  (3735) 
PROPARGYL BROMIDE

>  <SYNONYMS>  (3735) 


>  <SPECTRUM TYPE>  (3735) 
MS1

>  <INSTRUMENT TYPE>  (3735) 
EI-B

>  <INSTRUMENT>  (3735) 
HITACHI RMU-6M

>  <ION MODE>  (3735) 
P

>  <INCHIKEY>  (3735) 
YORCIIVHUBAYBQ-UHFFFAOYSA-N

>  <FORMULA>  (3735) 
C3H3Br

>  <EXACT MASS>  (3735) 
117.941812196

>  <MW>  (3735) 
118

>  <ID>  (3735) 
JP005875

>  <CONTRIBUTOR>  (3735) 
University of Tokyo Team, {Faculty of Engineering, University of Tokyo

>  <COMMENT>  (3735) 
SMILES=C#CCBr
InChI=InChI=1S/C3H3Br/c1-2-3-4/h1H,3H2
computed SMILES=BrCC#C
accession=JP005875
date=2016.01.19 (Created 2008.10.21, modified 2011.05.06)
author=YAMAMOTO M, DEP. CHEMISTRY, FAC. SCIENCE, NARA WOMEN'S UNIV.
license=CC BY-NC-SA
exact mass=117.94181
ionization energy=70 eV
ion type=[M]+*
computed spectral entropy=1.789147030095433
computed normalized entropy=0.6606772021313445
SPLASH=splash10-000i-9300000000-55dd22ea86985d58c0b7
submitter=submitter = University of Tokyo Team (Faculty of Engineering, University of Tokyo)
MoNA Rating=3.75

>  <NUM PEAKS>  (3735) 
15

>  <MASS SPECTRAL PEAKS>  (3735) 
24 1.18
25 1.93
26 1.63
36 3.12
37 16.2
38 25.4
39 99.99
40 3.56
79 3.56
81 3.56
117 1.33
118 29.27
119 2.08
120 27.63
121 0.98

>  <PREDICTED SPECTRUM>  (3735) 
14 34
25 120
26 215
28 10
31 39
36 121
37 638
38 636
39 999
40 291
41 178
50 182
51 256
79 264
80 138
81 538
90 58
92 60
93 83
101 100
117 70
118 661
119 201
120 712
121 58

$$$$

     RDKit          2D

 11 10  0  0  0  0  0  0  0  0999 V2000
   -1.2990    6.0000    0.0000 C   0  0  0  0  0  0  0  0  0  0  0  0
   -6.4952    4.5000    0.0000 C   0  0  0  0  0  0  0  0  0  0  0  0
    2.5981    3.7500    0.0000 C   0  0  0  0  0  0  0  0  0  0  0  0
   -2.5981    3.7500    0.0000 C   0  0  0  0  0  0  0  0  0  0  0  0
   -1.2990    4.5000    0.0000 C   0  0  0  0  0  0  0  0  0  0  0  0
   -5.1962    3.7500    0.0000 C   0  0  0  0  0  0  0  0  0  0  0  0
    1.2990    4.5000    0.0000 C   0  0  0  0  0  0  0  0  0  0  0  0
   -5.1962    2.2500    0.0000 O   0  0  0  0  0  0  0  0  0  0  0  0
    1.2990    6.0000    0.0000 O   0  0  0  0  0  0  0  0  0  0  0  0
   -3.8971    4.5000    0.0000 O   0  0  0  0  0  0  0  0  0  0  0  0
    0.0000    3.7500    0.0000 O   0  0  0  0  0  0  0  0  0  0  0  0
  5  1  1  0
  5  4  1  0
  6  2  1  0
  7  3  1  0
  8  6  2  0
  9  7  2  0
 10  4  1  0
 10  6  1  0
 11  5  1  0
 11  7  1  0
M  END
>  <NAME>  (3736) 
PROPYLENE GLYCOL DIACETATE

>  <SYNONYMS>  (3736) 
1,2-DIACETHOXYPROPANE

>  <SPECTRUM TYPE>  (3736) 
MS1

>  <INSTRUMENT TYPE>  (3736) 
EI-B

>  <INSTRUMENT>  (3736) 
HITACHI RMU-6M

>  <ION MODE>  (3736) 
P

>  <INCHIKEY>  (3736) 
MLHOXUWWKVQEJB-UHFFFAOYSA-N

>  <FORMULA>  (3736) 
C7H12O4

>  <EXACT MASS>  (3736) 
160.073558864

>  <MW>  (3736) 
160

>  <ID>  (3736) 
JP005874

>  <CONTRIBUTOR>  (3736) 
University of Tokyo Team, {Faculty of Engineering, University of Tokyo

>  <COMMENT>  (3736) 
SMILES=CC(=O)OCC(C)OC(C)=O
InChI=InChI=1S/C7H12O4/c1-5(11-7(3)9)4-10-6(2)8/h5H,4H2,1-3H3
computed SMILES=O=C(OCC(OC(=O)C)C)C
accession=JP005874
date=2016.01.19 (Created 2008.10.21, modified 2011.05.06)
author=YAMAMOTO M, DEP. CHEMISTRY, FAC. SCIENCE, NARA WOMEN'S UNIV.
license=CC BY-NC-SA
exact mass=160.07356
ionization energy=70 eV
ion type=[M]+*
computed spectral entropy=1.6170238716024148
computed normalized entropy=0.539775829061005
SPLASH=splash10-0006-9000000000-9c9bfe824be08f2b0b28
submitter=submitter = University of Tokyo Team (Faculty of Engineering, University of Tokyo)
MoNA Rating=3.75

>  <NUM PEAKS>  (3736) 
20

>  <MASS SPECTRAL PEAKS>  (3736) 
15 5.39
27 1.25
28 2.67
29 1.15
31 1.06
39 1.15
41 1.35
42 1.92
43 99.99
44 2.5
45 2.31
58 3.27
73 2.31
74 1.54
86 3.75
87 10.49
100 5.1
103 1.15
116 5
117 2.02

>  <PREDICTED SPECTRUM>  (3736) 
14 35
15 129
16 1
26 50
27 146
28 124
29 144
30 42
31 39
37 28
38 61
39 147
40 86
41 188
42 153
43 999
44 179
45 221
50 6
51 8
52 24
53 21
54 20
55 34
57 189
58 204
59 119
60 106
61 167
68 52
69 133
72 73
73 92
74 10
85 69
86 44
87 482
88 173
100 315
101 163
103 85
105 22
117 113
118 1

$$$$

     RDKit          2D

  7  6  0  0  0  0  0  0  0  0999 V2000
    1.4498    2.6115    0.0000 C   0  0  0  0  0  0  0  0  0  0  0  0
   -0.0502    0.0135    0.0000 C   0  0  0  0  0  0  0  0  0  0  0  0
    1.9988    0.5625    0.0000 C   0  0  0  0  0  0  0  0  0  0  0  0
   -0.5993    2.0625    0.0000 C   0  0  0  0  0  0  0  0  0  0  0  0
    0.6998    1.3125    0.0000 C   0  0  0  0  0  0  0  0  0  0  0  0
   -0.5993    3.5625    0.0000 O   0  0  0  0  0  0  0  0  0  0  0  0
   -1.8983    1.3125    0.0000 O   0  0  0  0  0  0  0  0  0  0  0  0
  5  1  1  0
  5  2  1  0
  5  3  1  0
  5  4  1  0
  6  4  2  0
  7  4  1  0
M  END
>  <NAME>  (3737) 
PIVALIC ACID

>  <SYNONYMS>  (3737) 


>  <SPECTRUM TYPE>  (3737) 
MS1

>  <INSTRUMENT TYPE>  (3737) 
EI-B

>  <INSTRUMENT>  (3737) 
HITACHI RMU-6M

>  <ION MODE>  (3737) 
P

>  <INCHIKEY>  (3737) 
IUGYQRQAERSCNH-UHFFFAOYSA-N

>  <FORMULA>  (3737) 
C5H10O2

>  <EXACT MASS>  (3737) 
102.06807956

>  <MW>  (3737) 
102

>  <ID>  (3737) 
JP005872

>  <CONTRIBUTOR>  (3737) 
University of Tokyo Team, {Faculty of Engineering, University of Tokyo

>  <COMMENT>  (3737) 
SMILES=OC(=O)C(C)(C)C
InChI=InChI=1S/C5H10O2/c1-5(2,3)4(6)7/h1-3H3,(H,6,7)
computed SMILES=O=C(O)C(C)(C)C
accession=JP005872
date=2016.01.19 (Created 2008.10.21, modified 2011.05.06)
author=YAMAMOTO M, DEP. CHEMISTRY, FAC. SCIENCE, NARA WOMEN'S UNIV.
license=CC BY-NC-SA
exact mass=102.06808
ionization energy=70 eV
ion type=[M]+*
computed spectral entropy=2.0579542322990205
computed normalized entropy=0.6759530515524398
SPLASH=splash10-0a4i-9000000000-e957b65f703c5d0a437e
submitter=submitter = University of Tokyo Team (Faculty of Engineering, University of Tokyo)
MoNA Rating=3.75

>  <NUM PEAKS>  (3737) 
21

>  <MASS SPECTRAL PEAKS>  (3737) 
15 1.96
27 8.04
28 4.23
29 26.39
31 1.65
32 1.03
38 1.34
39 10.74
40 1.44
41 33.4
42 2.28
43 2.89
45 3.61
55 2.68
56 6.8
57 99.99
58 4.54
59 5.46
69 1.13
87 5.05
102 3.61

>  <PREDICTED SPECTRUM>  (3737) 
14 43
15 87
16 14
26 38
27 245
28 130
29 302
31 15
37 28
38 106
39 493
40 157
41 872
42 205
43 419
44 59
45 429
46 3
50 81
52 9
53 145
55 90
56 104
57 999
58 216
59 391
60 196
69 62
87 52
102 270

$$$$

     RDKit          2D

  4  3  0  0  0  0  0  0  0  0999 V2000
   -2.5981    2.2500    0.0000 C   0  0  0  0  0  0  0  0  0  0  0  0
   -1.2990    1.5000    0.0000 C   0  0  0  0  0  0  0  0  0  0  0  0
    0.0000    2.2500    0.0000 C   0  0  0  0  0  0  0  0  0  0  0  0
    1.2990    1.5000    0.0000 O   0  0  0  0  0  0  0  0  0  0  0  0
  2  1  1  0
  3  2  1  0
  4  3  2  0
M  END
>  <NAME>  (3738) 
PROPIONALDEHYDE

>  <SYNONYMS>  (3738) 


>  <SPECTRUM TYPE>  (3738) 
MS1

>  <INSTRUMENT TYPE>  (3738) 
EI-B

>  <INSTRUMENT>  (3738) 
HITACHI RMU-6M

>  <ION MODE>  (3738) 
P

>  <INCHIKEY>  (3738) 
NBBJYMSMWIIQGU-UHFFFAOYSA-N

>  <FORMULA>  (3738) 
C3H6O

>  <EXACT MASS>  (3738) 
58.041864812

>  <MW>  (3738) 
58

>  <ID>  (3738) 
JP005869

>  <CONTRIBUTOR>  (3738) 
University of Tokyo Team, {Faculty of Engineering, University of Tokyo

>  <COMMENT>  (3738) 
SMILES=CCC=O
InChI=InChI=1S/C3H6O/c1-2-3-4/h3H,2H2,1H3
computed SMILES=O=CCC
accession=JP005869
date=2016.01.19 (Created 2008.10.21, modified 2011.05.06)
author=YAMAMOTO M, DEP. CHEMISTRY, FAC. SCIENCE, NARA WOMEN'S UNIV.
license=CC BY-NC-SA
exact mass=58.04186
ionization energy=70 eV
ion type=[M]+*
computed spectral entropy=2.1596401607353637
computed normalized entropy=0.6887718528593718
SPLASH=splash10-057i-9000000000-8f67579ff6f9ff36070f
submitter=submitter = University of Tokyo Team (Faculty of Engineering, University of Tokyo)
MoNA Rating=3.75

>  <NUM PEAKS>  (3738) 
23

>  <MASS SPECTRAL PEAKS>  (3738) 
13 1.11
14 3.64
15 7.58
26 3.13
27 20.51
28 64.95
29 99.09
30 99.99
31 8.28
32 4.24
33 1.01
37 2.83
38 2.03
39 5.15
40 1.41
41 3.84
42 2.73
43 1.11
53 1.62
55 2.73
57 22.25
58 78.69
59 4.75

>  <PREDICTED SPECTRUM>  (3738) 
14 54
15 29
16 23
19 6
25 72
26 281
27 609
28 293
29 582
30 430
31 380
32 128
37 7
38 43
39 448
40 199
41 438
42 363
43 225
53 210
55 58
56 498
57 665
58 999
59 251
60 212
61 28

$$$$

     RDKit          2D

 14 13  0  0  0  0  0  0  0  0999 V2000
    3.8971    6.0000    0.0000 C   0  0  0  0  0  0  0  0  0  0  0  0
  -10.3923    6.7500    0.0000 C   0  0  0  0  0  0  0  0  0  0  0  0
    2.5981    6.7500    0.0000 C   0  0  0  0  0  0  0  0  0  0  0  0
   -9.0933    6.0000    0.0000 C   0  0  0  0  0  0  0  0  0  0  0  0
    1.2990    6.0000    0.0000 C   0  0  0  0  0  0  0  0  0  0  0  0
   -7.7942    6.7500    0.0000 C   0  0  0  0  0  0  0  0  0  0  0  0
    0.0000    6.7500    0.0000 C   0  0  0  0  0  0  0  0  0  0  0  0
   -6.4952    6.0000    0.0000 C   0  0  0  0  0  0  0  0  0  0  0  0
   -2.5981    6.7500    0.0000 C   0  0  0  0  0  0  0  0  0  0  0  0
   -3.8971    6.0000    0.0000 C   0  0  0  0  0  0  0  0  0  0  0  0
   -2.5981    8.2500    0.0000 O   0  0  0  0  0  0  0  0  0  0  0  0
   -3.8971    4.5000    0.0000 O   0  0  0  0  0  0  0  0  0  0  0  0
   -1.2990    6.0000    0.0000 O   0  0  0  0  0  0  0  0  0  0  0  0
   -5.1962    6.7500    0.0000 O   0  0  0  0  0  0  0  0  0  0  0  0
  3  1  1  0
  4  2  1  0
  5  3  1  0
  6  4  1  0
  7  5  1  0
  8  6  1  0
 10  9  1  0
 11  9  2  0
 12 10  2  0
 13  7  1  0
 13  9  1  0
 14  8  1  0
 14 10  1  0
M  END
>  <NAME>  (3739) 
DIBUTYL OXALATE

>  <SYNONYMS>  (3739) 


>  <SPECTRUM TYPE>  (3739) 
MS1

>  <INSTRUMENT TYPE>  (3739) 
EI-B

>  <INSTRUMENT>  (3739) 
HITACHI RMU-6M

>  <ION MODE>  (3739) 
P

>  <INCHIKEY>  (3739) 
JKRZOJADNVOXPM-UHFFFAOYSA-N

>  <FORMULA>  (3739) 
C10H18O4

>  <EXACT MASS>  (3739) 
202.120509056

>  <MW>  (3739) 
202

>  <ID>  (3739) 
JP005868

>  <CONTRIBUTOR>  (3739) 
University of Tokyo Team, {Faculty of Engineering, University of Tokyo

>  <COMMENT>  (3739) 
SMILES=CCCCOC(=O)C(=O)OCCCC
InChI=InChI=1S/C10H18O4/c1-3-5-7-13-9(11)10(12)14-8-6-4-2/h3-8H2,1-2H3
computed SMILES=O=C(OCCCC)C(=O)OCCCC
accession=JP005868
date=2016.01.19 (Created 2008.10.21, modified 2011.05.06)
author=YAMAMOTO M, DEP. CHEMISTRY, FAC. SCIENCE, NARA WOMEN'S UNIV.
license=CC BY-NC-SA
exact mass=202.12051
ionization energy=70 eV
ion type=[M]+*
computed spectral entropy=1.8217191700085558
computed normalized entropy=0.6727050958165743
SPLASH=splash10-0a4i-9000000000-435ac582c9d39d071d47
submitter=submitter = University of Tokyo Team (Faculty of Engineering, University of Tokyo)
MoNA Rating=3.75

>  <NUM PEAKS>  (3739) 
15

>  <MASS SPECTRAL PEAKS>  (3739) 
27 8.22
28 4.22
29 41.56
31 1.33
39 4.44
41 37.78
42 2.22
43 2.67
55 5.56
56 21.78
57 99.99
58 4.44
101 1.11
102 2.22
147 1.33

>  <PREDICTED SPECTRUM>  (3739) 
14 3
25 6
26 119
27 341
28 241
29 557
30 58
31 175
38 32
39 311
40 108
41 669
42 229
43 343
44 206
45 19
53 48
54 43
55 305
56 457
57 999
58 208
59 13
73 27
83 11
84 51
101 130
102 129
103 0

$$$$

     RDKit          2D

 10 10  0  0  0  0  0  0  0  0999 V2000
    5.1970    1.5006    0.0000 C   0  0  0  0  0  0  0  0  0  0  0  0
    3.8981    0.7504    0.0000 C   0  0  0  0  0  0  0  0  0  0  0  0
   -1.3000    0.7500    0.0000 C   0  0  0  0  0  0  0  0  0  0  0  0
   -0.0000   -1.5000    0.0000 C   0  0  0  0  0  0  0  0  0  0  0  0
    0.0000    1.5000    0.0000 C   0  0  0  0  0  0  0  0  0  0  0  0
    1.3000   -0.7500    0.0000 C   0  0  0  0  0  0  0  0  0  0  0  0
   -1.3000   -0.7500    0.0000 C   0  0  0  0  0  0  0  0  0  0  0  0
    1.3000    0.7500    0.0000 C   0  0  0  0  0  0  0  0  0  0  0  0
   -2.5989   -1.5002    0.0000 N   0  0  0  0  0  0  0  0  0  0  0  0
    2.5989    1.5002    0.0000 O   0  0  0  0  0  0  0  0  0  0  0  0
  2  1  1  0
  5  3  2  0
  6  4  1  0
  7  3  1  0
  7  4  2  0
  8  5  1  0
  8  6  2  0
  9  7  1  0
 10  2  1  0
 10  8  1  0
M  END
>  <NAME>  (3740) 
PARA-PHENETIDINE

>  <SYNONYMS>  (3740) 
4-AMINOPHENETOL

>  <SPECTRUM TYPE>  (3740) 
MS1

>  <INSTRUMENT TYPE>  (3740) 
EI-B

>  <INSTRUMENT>  (3740) 
HITACHI RMU-6M

>  <ION MODE>  (3740) 
P

>  <INCHIKEY>  (3740) 
IMPPGHMHELILKG-UHFFFAOYSA-N

>  <FORMULA>  (3740) 
C8H11NO

>  <EXACT MASS>  (3740) 
137.084063972

>  <MW>  (3740) 
137

>  <ID>  (3740) 
JP005865

>  <CONTRIBUTOR>  (3740) 
University of Tokyo Team, {Faculty of Engineering, University of Tokyo

>  <COMMENT>  (3740) 
SMILES=CCOc(c1)ccc(N)c1
InChI=InChI=1S/C8H11NO/c1-2-10-8-5-3-7(9)4-6-8/h3-6H,2,9H2,1H3
computed SMILES=O(C1=CC=C(N)C=C1)CC
accession=JP005865
date=2016.01.19 (Created 2008.10.21, modified 2011.05.06)
author=YAMAMOTO M, DEP. CHEMISTRY, FAC. SCIENCE, NARA WOMEN'S UNIV.
license=CC BY-NC-SA
exact mass=137.08406
ionization energy=70 eV
ion type=[M]+*
computed spectral entropy=2.436956640334301
computed normalized entropy=0.7031570519743451
SPLASH=splash10-0a4i-4900000000-a69b6fc77ec780acbebe
submitter=submitter = University of Tokyo Team (Faculty of Engineering, University of Tokyo)
MoNA Rating=3.75

>  <NUM PEAKS>  (3740) 
32

>  <MASS SPECTRAL PEAKS>  (3740) 
26 2.5
27 8.75
28 6.56
29 3.75
30 1.88
38 1.56
39 7.19
41 2.5
50 1.25
51 2.81
52 8.75
53 13.13
54 4.38
61 1.88
62 1.25
63 2.81
64 2.5
65 8.13
66 1.56
78 1.25
79 1.88
80 34.06
81 6.56
82 1.56
91 1.25
92 3.13
108 99.99
109 65.94
110 4.69
136 1.25
137 70.94
138 6.56

>  <PREDICTED SPECTRUM>  (3740) 
26 72
27 184
28 135
29 185
36 5
37 32
38 65
39 269
40 72
41 191
42 73
50 124
51 226
52 358
53 333
54 247
55 121
61 23
62 94
63 197
64 132
65 184
66 46
67 4
74 31
75 1
76 28
77 1
78 100
79 164
80 540
81 423
82 124
90 62
91 95
92 171
93 49
94 8
106 50
108 999
109 835
110 274
111 47
137 850
138 275
139 65

$$$$

     RDKit          2D

 10 10  0  0  0  0  0  0  0  0999 V2000
   -3.5811    1.3103    0.0000 C   0  0  0  0  0  0  0  0  0  0  0  0
   -2.2809    0.5625    0.0000 C   0  0  0  0  0  0  0  0  0  0  0  0
    2.9153   -0.9332    0.0000 C   0  0  0  0  0  0  0  0  0  0  0  0
    1.6208   -1.6754    0.0000 C   0  0  0  0  0  0  0  0  0  0  0  0
    2.9158    0.5676    0.0000 C   0  0  0  0  0  0  0  0  0  0  0  0
    0.3217   -0.9254    0.0000 C   0  0  0  0  0  0  0  0  0  0  0  0
    1.6167    1.3176    0.0000 C   0  0  0  0  0  0  0  0  0  0  0  0
    0.3172    0.5668    0.0000 C   0  0  0  0  0  0  0  0  0  0  0  0
    1.6165    2.8176    0.0000 N   0  0  0  0  0  0  0  0  0  0  0  0
   -0.9831    1.3146    0.0000 O   0  0  0  0  0  0  0  0  0  0  0  0
  2  1  1  0
  4  3  2  0
  5  3  1  0
  6  4  1  0
  7  5  2  0
  8  6  2  0
  8  7  1  0
  9  7  1  0
 10  2  1  0
 10  8  1  0
M  END
>  <NAME>  (3741) 
ORTHO-PHENETIDINE

>  <SYNONYMS>  (3741) 
2-AMINOPHENETOL

>  <SPECTRUM TYPE>  (3741) 
MS1

>  <INSTRUMENT TYPE>  (3741) 
EI-B

>  <INSTRUMENT>  (3741) 
HITACHI RMU-6M

>  <ION MODE>  (3741) 
P

>  <INCHIKEY>  (3741) 
ULHFFAFDSSHFDA-UHFFFAOYSA-N

>  <FORMULA>  (3741) 
C8H11NO

>  <EXACT MASS>  (3741) 
137.084063972

>  <MW>  (3741) 
137

>  <ID>  (3741) 
JP005864

>  <CONTRIBUTOR>  (3741) 
University of Tokyo Team, {Faculty of Engineering, University of Tokyo

>  <COMMENT>  (3741) 
SMILES=CCOc(c1)c(N)ccc1
InChI=InChI=1S/C8H11NO/c1-2-10-8-6-4-3-5-7(8)9/h3-6H,2,9H2,1H3
computed SMILES=O(C=1C=CC=CC1N)CC
accession=JP005864
date=2016.01.19 (Created 2008.10.21, modified 2011.05.06)
author=YAMAMOTO M, DEP. CHEMISTRY, FAC. SCIENCE, NARA WOMEN'S UNIV.
license=CC BY-NC-SA
exact mass=137.08406
ionization energy=70 eV
ion type=[M]+*
computed spectral entropy=2.602802863173954
computed normalized entropy=0.7208147418859373
SPLASH=splash10-0a4i-7900000000-c61614886173dc01579a
submitter=submitter = University of Tokyo Team (Faculty of Engineering, University of Tokyo)
MoNA Rating=3.75

>  <NUM PEAKS>  (3741) 
37

>  <MASS SPECTRAL PEAKS>  (3741) 
15 1.04
26 2.35
27 12.27
28 7.31
29 4.44
30 1.83
38 2.35
39 8.88
40 1.57
41 3.39
42 1.83
50 3.13
51 6.01
52 10.71
53 17.23
54 4.18
62 1.04
63 3.66
64 3.39
65 10.97
66 2.09
77 1.04
78 2.61
79 2.61
80 69.71
81 6.53
91 2.61
92 6.27
93 2.61
94 1.57
108 99.99
109 65.54
110 4.44
122 1.83
136 1.04
137 74.15
138 7.05

>  <PREDICTED SPECTRUM>  (3741) 
25 3
26 77
27 152
28 140
29 145
30 22
36 8
37 92
38 155
39 327
40 162
41 290
42 156
43 42
44 65
45 3
46 2
49 68
50 193
51 315
52 464
53 397
54 341
55 204
56 93
57 18
58 2
60 70
61 64
62 119
63 232
64 204
65 275
66 113
67 124
68 80
69 4
74 58
75 31
76 79
77 71
78 167
79 220
80 528
81 468
82 307
83 64
90 113
91 262
92 291
93 154
94 90
97 7
106 174
107 146
108 999
109 759
110 260
119 103
120 90
122 58
136 132
137 862
138 275
139 79

$$$$

     RDKit          2D

  9  9  0  0  0  0  0  0  0  0999 V2000
   -2.9228    0.8825    0.0000 C   0  0  0  0  0  0  0  0  0  0  0  0
    2.2733   -0.6175    0.0000 C   0  0  0  0  0  0  0  0  0  0  0  0
    2.2738    0.8833    0.0000 C   0  0  0  0  0  0  0  0  0  0  0  0
    0.9738   -1.3683    0.0000 C   0  0  0  0  0  0  0  0  0  0  0  0
    0.9748    1.6333    0.0000 C   0  0  0  0  0  0  0  0  0  0  0  0
   -0.3252   -0.6183    0.0000 C   0  0  0  0  0  0  0  0  0  0  0  0
   -1.6238    1.6325    0.0000 C   0  0  0  0  0  0  0  0  0  0  0  0
   -0.3248    0.8825    0.0000 C   0  0  0  0  0  0  0  0  0  0  0  0
   -1.6238    3.1325    0.0000 N   0  0  0  0  0  0  0  0  0  0  0  0
  3  2  2  0
  4  2  1  0
  5  3  1  0
  6  4  2  0
  7  1  1  0
  8  5  2  0
  8  6  1  0
  8  7  1  0
  9  7  1  0
M  END
>  <NAME>  (3742) 
ALPHA-PHENYLETHYLAMINE

>  <SYNONYMS>  (3742) 


>  <SPECTRUM TYPE>  (3742) 
MS1

>  <INSTRUMENT TYPE>  (3742) 
EI-B

>  <INSTRUMENT>  (3742) 
HITACHI RMU-6M

>  <ION MODE>  (3742) 
P

>  <INCHIKEY>  (3742) 
RQEUFEKYXDPUSK-UHFFFAOYSA-N

>  <FORMULA>  (3742) 
C8H11N

>  <EXACT MASS>  (3742) 
121.08914935199999

>  <MW>  (3742) 
121

>  <ID>  (3742) 
JP005863

>  <CONTRIBUTOR>  (3742) 
University of Tokyo Team, {Faculty of Engineering, University of Tokyo

>  <COMMENT>  (3742) 
SMILES=CC(N)c(c1)cccc1
InChI=InChI=1S/C8H11N/c1-7(9)8-5-3-2-4-6-8/h2-7H,9H2,1H3
computed SMILES=NC(C=1C=CC=CC1)C
accession=JP005863
date=2016.01.19 (Created 2008.10.21, modified 2011.05.06)
author=YAMAMOTO M, DEP. CHEMISTRY, FAC. SCIENCE, NARA WOMEN'S UNIV.
license=CC BY-NC-SA
exact mass=121.08915
ionization energy=70 eV
ion type=[M]+*
computed spectral entropy=2.577892092987286
computed normalized entropy=0.75069938805255
SPLASH=splash10-0a6r-9700000000-2e29a83dd23d9c59dd09
submitter=submitter = University of Tokyo Team (Faculty of Engineering, University of Tokyo)
MoNA Rating=3.75

>  <NUM PEAKS>  (3742) 
31

>  <MASS SPECTRAL PEAKS>  (3742) 
15 1.66
27 2.29
28 15.59
30 3.12
39 3.95
41 1.25
43 13.51
44 7.28
45 17.67
50 4.16
51 9.36
52 3.12
53 8.94
59.5 1.46
63 1.87
65 1.66
74 1.46
75 1.04
76 1.23
77 12.89
78 5.41
79 24.12
80 2.08
91 1.66
103 2.7
104 4.57
105 3.74
106 99.99
107 8.32
120 6.86
121 2.7

>  <PREDICTED SPECTRUM>  (3742) 
14 12
15 51
17 15
18 33
25 8
26 66
27 148
28 201
29 42
30 77
31 2
36 43
37 114
38 162
39 339
40 195
41 243
42 383
43 275
44 584
45 121
46 29
49 43
50 259
51 424
52 287
53 259
54 148
59 19
61 2
62 89
63 141
64 60
65 190
66 161
67 130
74 155
75 162
76 160
77 516
78 348
79 416
80 169
81 44
87 4
89 99
90 68
91 268
92 46
93 24
102 69
103 178
104 535
105 453
106 999
107 376
108 35
118 105
120 335
121 145
122 39

$$$$

     RDKit          2D

  7  7  0  0  0  0  0  0  0  0999 V2000
   -0.0000   -1.9300    0.0000 C   0  0  0  0  0  0  0  0  0  0  0  0
   -1.3000    0.3200    0.0000 C   0  0  0  0  0  0  0  0  0  0  0  0
    1.3000    0.3200    0.0000 C   0  0  0  0  0  0  0  0  0  0  0  0
   -1.3000    1.8200    0.0000 C   0  0  0  0  0  0  0  0  0  0  0  0
    1.3000    1.8200    0.0000 C   0  0  0  0  0  0  0  0  0  0  0  0
   -0.0000   -0.4300    0.0000 C   0  0  0  0  0  0  0  0  0  0  0  0
    0.0000    2.5700    0.0000 N   0  0  0  0  0  0  0  0  0  0  0  0
  4  2  1  0
  5  3  1  0
  6  1  1  0
  6  2  1  0
  6  3  1  0
  7  4  1  0
  7  5  1  0
M  END
>  <NAME>  (3743) 
4-PIPECOLINE

>  <SYNONYMS>  (3743) 
4-METHYLPIPERIDINE

>  <SPECTRUM TYPE>  (3743) 
MS1

>  <INSTRUMENT TYPE>  (3743) 
EI-B

>  <INSTRUMENT>  (3743) 
HITACHI RMU-6M

>  <ION MODE>  (3743) 
P

>  <INCHIKEY>  (3743) 
UZOFELREXGAFOI-UHFFFAOYSA-N

>  <FORMULA>  (3743) 
C6H13N

>  <EXACT MASS>  (3743) 
99.10479941599999

>  <MW>  (3743) 
99

>  <ID>  (3743) 
JP005861

>  <CONTRIBUTOR>  (3743) 
University of Tokyo Team, {Faculty of Engineering, University of Tokyo

>  <COMMENT>  (3743) 
SMILES=CC(C1)CCNC1
InChI=InChI=1S/C6H13N/c1-6-2-4-7-5-3-6/h6-7H,2-5H2,1H3
computed SMILES=N1CCC(C)CC1
license=CC BY-NC-SA
accession=JP005861
date=2016.01.19 (Created 2008.10.21, modified 2011.05.06)
author=YAMAMOTO M, DEP. CHEMISTRY, FAC. SCIENCE, NARA WOMEN'S UNIV.
exact mass=99.1048
ionization energy=70 eV
ion type=[M]+*
computed spectral entropy=2.874194356139971
computed normalized entropy=0.808414339870822
SPLASH=splash10-0535-9000000000-5ce0aa47572df9a11a8b
submitter=submitter = University of Tokyo Team (Faculty of Engineering, University of Tokyo)
MoNA Rating=3.75

>  <NUM PEAKS>  (3743) 
35

>  <MASS SPECTRAL PEAKS>  (3743) 
15 4.2
26 2.25
27 17.97
28 29
29 22.75
30 57.91
38 1.76
39 14.55
40 2.54
41 21.68
42 36.23
43 31.35
44 56.25
45 1.76
50 1.17
51 1.86
52 1.37
53 3.81
54 2.93
55 17.09
56 68.46
57 48.73
58 2.34
67 2.25
68 2.54
69 3.61
70 7.52
71 5.08
80 1.76
82 2.73
84 24.61
85 1.37
98 99.99
99 58.89
100 4.1

>  <PREDICTED SPECTRUM>  (3743) 
14 53
15 170
16 9
17 11
18 30
25 23
26 133
27 374
28 369
29 370
30 442
31 32
32 21
34 17
35 43
36 88
37 83
38 106
39 360
40 214
41 571
42 749
43 613
44 469
45 98
49 10
50 65
51 98
52 80
53 193
54 208
55 375
56 999
57 643
58 115
65 67
67 165
68 289
69 254
70 337
71 218
72 32
80 65
81 28
82 301
83 114
84 519
85 130
86 45
96 9
98 422
99 527
100 203
101 122

$$$$

     RDKit          2D

  7  7  0  0  0  0  0  0  0  0999 V2000
    2.2289    1.2902    0.0000 C   0  0  0  0  0  0  0  0  0  0  0  0
   -1.6700    0.5400    0.0000 C   0  0  0  0  0  0  0  0  0  0  0  0
   -0.3700    1.2900    0.0000 C   0  0  0  0  0  0  0  0  0  0  0  0
   -1.6700   -0.9600    0.0000 C   0  0  0  0  0  0  0  0  0  0  0  0
    0.9300   -0.9600    0.0000 C   0  0  0  0  0  0  0  0  0  0  0  0
    0.9300    0.5400    0.0000 C   0  0  0  0  0  0  0  0  0  0  0  0
   -0.3700   -1.7100    0.0000 N   0  0  0  0  0  0  0  0  0  0  0  0
  3  2  1  0
  4  2  1  0
  6  1  1  0
  6  3  1  0
  6  5  1  0
  7  4  1  0
  7  5  1  0
M  END
>  <NAME>  (3744) 
3-PIPECOLINE

>  <SYNONYMS>  (3744) 
3-METHYLPIPERIDINE

>  <SPECTRUM TYPE>  (3744) 
MS1

>  <INSTRUMENT TYPE>  (3744) 
EI-B

>  <INSTRUMENT>  (3744) 
HITACHI RMU-6M

>  <ION MODE>  (3744) 
P

>  <INCHIKEY>  (3744) 
JEGMWWXJUXDNJN-UHFFFAOYSA-N

>  <FORMULA>  (3744) 
C6H13N

>  <EXACT MASS>  (3744) 
99.10479941599999

>  <MW>  (3744) 
99

>  <ID>  (3744) 
JP005860

>  <CONTRIBUTOR>  (3744) 
University of Tokyo Team, {Faculty of Engineering, University of Tokyo

>  <COMMENT>  (3744) 
SMILES=CC(C1)CNCC1
InChI=InChI=1S/C6H13N/c1-6-3-2-4-7-5-6/h6-7H,2-5H2,1H3
computed SMILES=N1CCCC(C)C1
accession=JP005860
date=2016.01.19 (Created 2008.10.21, modified 2011.05.06)
author=YAMAMOTO M, DEP. CHEMISTRY, FAC. SCIENCE, NARA WOMEN'S UNIV.
license=CC BY-NC-SA
exact mass=99.1048
ionization energy=70 eV
ion type=[M]+*
computed spectral entropy=3.097023060150598
computed normalized entropy=0.8234135288968822
SPLASH=splash10-0537-9000000000-ad2920f02ceaf8cd18dd
submitter=submitter = University of Tokyo Team (Faculty of Engineering, University of Tokyo)
MoNA Rating=3.75

>  <NUM PEAKS>  (3744) 
43

>  <MASS SPECTRAL PEAKS>  (3744) 
15 3.97
26 1.99
27 14.24
28 22.85
29 16.56
30 50.99
31 1.32
38 2.32
39 20.86
40 4.3
41 26.16
42 30.13
43 22.52
44 99.99
45 2.65
50 1.32
51 2.32
53 3.64
54 3.64
55 8.94
56 37.75
57 43.38
58 4.3
63 1.66
65 3.64
66 5.63
67 3.31
68 3.97
69 4.3
70 21.19
71 7.95
80 1.32
81 1.99
82 2.98
83 1.32
84 41.72
85 2.65
92 3.97
93 13.91
94 1.33
98 50.99
99 50
100 3.97

>  <PREDICTED SPECTRUM>  (3744) 
14 79
15 245
16 32
17 43
18 91
19 15
25 30
26 207
27 544
28 538
29 542
30 601
31 147
32 51
36 55
37 73
38 142
39 460
40 270
41 776
42 999
43 734
44 674
45 112
46 1
50 65
51 108
52 103
53 235
54 334
55 523
56 907
57 661
58 140
59 8
65 51
66 22
67 276
68 349
69 459
70 644
71 298
72 77
79 28
80 86
81 78
82 321
83 153
84 564
85 170
96 137
97 38
98 358
99 736
100 219

$$$$

     RDKit          2D

  7  7  0  0  0  0  0  0  0  0999 V2000
    2.2289    1.2902    0.0000 C   0  0  0  0  0  0  0  0  0  0  0  0
   -0.3700   -1.7100    0.0000 C   0  0  0  0  0  0  0  0  0  0  0  0
   -1.6700   -0.9600    0.0000 C   0  0  0  0  0  0  0  0  0  0  0  0
    0.9300   -0.9600    0.0000 C   0  0  0  0  0  0  0  0  0  0  0  0
   -1.6700    0.5400    0.0000 C   0  0  0  0  0  0  0  0  0  0  0  0
    0.9300    0.5400    0.0000 C   0  0  0  0  0  0  0  0  0  0  0  0
   -0.3700    1.2900    0.0000 N   0  0  0  0  0  0  0  0  0  0  0  0
  3  2  1  0
  4  2  1  0
  5  3  1  0
  6  1  1  0
  6  4  1  0
  7  5  1  0
  7  6  1  0
M  END
>  <NAME>  (3745) 
2-PIPECOLINE

>  <SYNONYMS>  (3745) 
2-METHYLPIPERIDINE

>  <SPECTRUM TYPE>  (3745) 
MS1

>  <INSTRUMENT TYPE>  (3745) 
EI-B

>  <INSTRUMENT>  (3745) 
HITACHI RMU-6M

>  <ION MODE>  (3745) 
P

>  <INCHIKEY>  (3745) 
NNWUEBIEOFQMSS-UHFFFAOYSA-N

>  <FORMULA>  (3745) 
C6H13N

>  <EXACT MASS>  (3745) 
99.10479941599999

>  <MW>  (3745) 
99

>  <ID>  (3745) 
JP005859

>  <CONTRIBUTOR>  (3745) 
University of Tokyo Team, {Faculty of Engineering, University of Tokyo

>  <COMMENT>  (3745) 
SMILES=CC(C1)NCCC1
InChI=InChI=1S/C6H13N/c1-6-4-2-3-5-7-6/h6-7H,2-5H2,1H3
computed SMILES=N1CCCCC1C
accession=JP005859
date=2016.01.19 (Created 2008.10.21, modified 2011.05.06)
author=YAMAMOTO M, DEP. CHEMISTRY, FAC. SCIENCE, NARA WOMEN'S UNIV.
license=CC BY-NC-SA
exact mass=99.1048
ionization energy=70 eV
ion type=[M]+*
computed spectral entropy=2.7159025583038625
computed normalized entropy=0.8065530014078899
SPLASH=splash10-001i-9000000000-1da129fe173c45ef9d0d
submitter=submitter = University of Tokyo Team (Faculty of Engineering, University of Tokyo)
MoNA Rating=3.75

>  <NUM PEAKS>  (3745) 
29

>  <MASS SPECTRAL PEAKS>  (3745) 
15 3.09
26 1.1
27 9.27
28 17.88
29 5.52
30 17
39 7.73
40 1.32
41 10.6
42 25.39
43 16.34
44 9.27
53 2.43
54 2.21
55 7.51
56 33.55
57 10.82
58 3.75
67 1.55
68 1.77
69 1.77
70 13.02
71 8.17
82 1.77
84 99.99
85 5.96
98 11.26
99 15.67
100 1.1

>  <PREDICTED SPECTRUM>  (3745) 
14 29
15 116
17 5
18 47
26 69
27 238
28 286
29 207
30 389
31 25
32 13
37 29
38 79
39 326
40 200
41 556
42 686
43 487
44 411
45 56
50 61
51 131
52 97
53 186
54 242
55 309
56 831
57 486
58 187
65 98
66 45
67 166
68 170
69 261
70 751
71 352
72 103
80 70
81 3
82 214
83 148
84 999
85 332
86 27
96 40
97 18
98 413
99 520
100 163

$$$$

     RDKit          2D

  4  3  0  0  0  0  0  0  0  0999 V2000
    1.2990    1.5000    0.0000 C   0  0  0  0  0  0  0  0  0  0  0  0
    0.0000    2.2500    0.0000 C   0  0  0  0  0  0  0  0  0  0  0  0
   -1.2990    3.0000    0.0000 C   0  0  0  0  0  0  0  0  0  0  0  0
   -2.5981    2.2500    0.0000 O   0  0  0  0  0  0  0  0  0  0  0  0
  2  1  3  0
  3  2  1  0
  4  3  1  0
M  END
>  <NAME>  (3746) 
PROPARGYL ALCOHOL

>  <SYNONYMS>  (3746) 


>  <SPECTRUM TYPE>  (3746) 
MS1

>  <INSTRUMENT TYPE>  (3746) 
EI-B

>  <INSTRUMENT>  (3746) 
HITACHI RMU-6M

>  <ION MODE>  (3746) 
P

>  <INCHIKEY>  (3746) 
TVDSBUOJIPERQY-UHFFFAOYSA-N

>  <FORMULA>  (3746) 
C3H4O

>  <EXACT MASS>  (3746) 
56.026214748

>  <MW>  (3746) 
56

>  <ID>  (3746) 
JP005857

>  <CONTRIBUTOR>  (3746) 
University of Tokyo Team, {Faculty of Engineering, University of Tokyo

>  <COMMENT>  (3746) 
SMILES=C#CCO
InChI=InChI=1S/C3H4O/c1-2-3-4/h1,4H,3H2
computed SMILES=C#CCO
accession=JP005857
date=2016.01.19 (Created 2008.10.21, modified 2011.05.06)
author=YAMAMOTO M, DEP. CHEMISTRY, FAC. SCIENCE, NARA WOMEN'S UNIV.
license=CC BY-NC-SA
exact mass=56.02621
ionization energy=70 eV
ion type=[M]+*
computed spectral entropy=2.0642989240524305
computed normalized entropy=0.7141984135476699
SPLASH=splash10-0a4i-9000000000-daffa67539f7b0864af6
submitter=submitter = University of Tokyo Team (Faculty of Engineering, University of Tokyo)
MoNA Rating=3.75

>  <NUM PEAKS>  (3746) 
18

>  <MASS SPECTRAL PEAKS>  (3746) 
24 1.64
25 4.74
26 8.21
27 16.61
28 18.43
29 14.78
30 2.37
31 1.82
36 2.19
37 8.21
38 11.68
39 24.45
40 1.09
52 1.09
53 7.48
54 1.64
55 99.99
56 3.47

>  <PREDICTED SPECTRUM>  (3746) 
14 163
15 237
16 100
17 192
18 113
19 112
25 233
26 531
27 934
28 671
29 775
31 273
35 49
36 322
37 565
38 592
39 916
53 407
54 19
55 999
56 648
57 119

$$$$

     RDKit          2D

  5  4  0  0  0  0  0  0  0  0999 V2000
   -1.2990    2.2500    0.0000 C   0  0  0  0  0  0  0  0  0  0  0  0
   -2.5981    1.5000    0.0000 C   0  0  0  0  0  0  0  0  0  0  0  0
    0.0000    1.5000    0.0000 C   0  0  0  0  0  0  0  0  0  0  0  0
   -3.8971    2.2500    0.0000 O   0  0  0  0  0  0  0  0  0  0  0  0
    1.2990    2.2500    0.0000 O   0  0  0  0  0  0  0  0  0  0  0  0
  2  1  1  0
  3  1  1  0
  4  2  1  0
  5  3  1  0
M  END
>  <NAME>  (3747) 
TRIMETHYLENE GLYCOL

>  <SYNONYMS>  (3747) 


>  <SPECTRUM TYPE>  (3747) 
MS1

>  <INSTRUMENT TYPE>  (3747) 
EI-B

>  <INSTRUMENT>  (3747) 
HITACHI RMU-6M

>  <ION MODE>  (3747) 
P

>  <INCHIKEY>  (3747) 
YPFDHNVEDLHUCE-UHFFFAOYSA-N

>  <FORMULA>  (3747) 
C3H8O2

>  <EXACT MASS>  (3747) 
76.052429496

>  <MW>  (3747) 
76

>  <ID>  (3747) 
JP005855

>  <CONTRIBUTOR>  (3747) 
University of Tokyo Team, {Faculty of Engineering, University of Tokyo

>  <COMMENT>  (3747) 
SMILES=OCCCO
InChI=InChI=1S/C3H8O2/c4-2-1-3-5/h4-5H,1-3H2
computed SMILES=OCCCO
accession=JP005855
date=2016.01.19 (Created 2008.10.21, modified 2011.05.06)
author=YAMAMOTO M, DEP. CHEMISTRY, FAC. SCIENCE, NARA WOMEN'S UNIV.
license=CC BY-NC-SA
exact mass=76.05243
ionization energy=70 eV
ion type=[M]+*
computed spectral entropy=2.394875731026359
computed normalized entropy=0.7440099778078326
SPLASH=splash10-057i-9000000000-32874f2605e2fa74ff9d
submitter=submitter = University of Tokyo Team (Faculty of Engineering, University of Tokyo)
MoNA Rating=3.75

>  <NUM PEAKS>  (3747) 
25

>  <MASS SPECTRAL PEAKS>  (3747) 
14 1.74
15 5.72
26 5.72
27 24.63
28 99.99
29 22.89
30 15.92
31 64.68
39 3.23
40 3.48
41 3.23
42 2.74
43 12.69
44 2.74
45 16.17
46 10.45
47 2.99
49 1
56 1.74
57 1.24
58 45.03
59 75.37
60 3.73
75 1
76 0.5

>  <PREDICTED SPECTRUM>  (3747) 
14 110
15 122
16 26
17 25
18 63
19 138
25 82
26 220
27 468
28 631
29 408
30 766
31 999
32 135
33 126
34 24
35 53
36 72
38 161
39 200
40 349
41 349
42 422
43 765
44 111
45 624
46 364
47 413
48 81
49 95
50 57
56 170
57 834
58 883
59 411
60 32
61 94
76 613
77 72

$$$$

     RDKit          2D

  7  6  0  0  0  0  0  0  0  0999 V2000
   -1.9486    4.1250    0.0000 C   0  0  0  0  0  0  0  0  0  0  0  0
   -0.6495    3.3750    0.0000 C   0  0  0  0  0  0  0  0  0  0  0  0
   -3.2476    3.3750    0.0000 C   0  0  0  0  0  0  0  0  0  0  0  0
    0.6495    4.1250    0.0000 C   0  0  0  0  0  0  0  0  0  0  0  0
   -4.5466    4.1250    0.0000 C   0  0  0  0  0  0  0  0  0  0  0  0
    1.9486    3.3750    0.0000 O   0  0  0  0  0  0  0  0  0  0  0  0
   -5.8457    3.3750    0.0000 O   0  0  0  0  0  0  0  0  0  0  0  0
  2  1  1  0
  3  1  1  0
  4  2  1  0
  5  3  1  0
  6  4  1  0
  7  5  1  0
M  END
>  <NAME>  (3748) 
1,5-PENTANEDIOL

>  <SYNONYMS>  (3748) 


>  <SPECTRUM TYPE>  (3748) 
MS1

>  <INSTRUMENT TYPE>  (3748) 
EI-B

>  <INSTRUMENT>  (3748) 
HITACHI RMU-6M

>  <ION MODE>  (3748) 
P

>  <INCHIKEY>  (3748) 
ALQSHHUCVQOPAS-UHFFFAOYSA-N

>  <FORMULA>  (3748) 
C5H12O2

>  <EXACT MASS>  (3748) 
104.083729624

>  <MW>  (3748) 
104

>  <ID>  (3748) 
JP005854

>  <CONTRIBUTOR>  (3748) 
University of Tokyo Team, {Faculty of Engineering, University of Tokyo

>  <COMMENT>  (3748) 
SMILES=OCCCCCO
InChI=InChI=1S/C5H12O2/c6-4-2-1-3-5-7/h6-7H,1-5H2
computed SMILES=OCCCCCO
accession=JP005854
date=2016.01.19 (Created 2008.10.21, modified 2011.05.06)
author=YAMAMOTO M, DEP. CHEMISTRY, FAC. SCIENCE, NARA WOMEN'S UNIV.
license=CC BY-NC-SA
exact mass=104.08373
ionization energy=70 eV
ion type=[M]+*
computed spectral entropy=2.9399500263601444
computed normalized entropy=0.8269092014379416
SPLASH=splash10-0a4l-9000000000-fc6409a522c41d189612
submitter=submitter = University of Tokyo Team (Faculty of Engineering, University of Tokyo)
MoNA Rating=3.75

>  <NUM PEAKS>  (3748) 
35

>  <MASS SPECTRAL PEAKS>  (3748) 
15 6.68
26 2.86
27 28.88
28 21.48
29 33.41
30 3.1
31 96.9
32 2.63
33 2.86
38 1.43
39 16.23
40 5.73
41 69.93
42 13.84
43 34.37
44 50.12
45 17.66
46 1.19
53 6.68
54 3.34
55 57.04
56 99.99
57 65.15
58 11.69
61 2.86
62 1.19
67 19.33
68 42.96
69 4.3
71 5.01
73 10.98
74 22.91
75 1.19
85 3.1
86 3.82

>  <PREDICTED SPECTRUM>  (3748) 
14 16
15 41
16 7
17 5
18 22
19 33
25 12
26 142
27 467
28 262
29 466
30 321
31 612
32 81
33 26
37 44
38 95
39 629
40 290
41 995
42 538
43 583
44 338
45 463
46 108
47 98
49 49
50 65
51 156
52 109
53 411
54 619
55 999
56 624
57 586
58 388
59 156
60 132
61 66
62 41
63 77
65 53
66 88
67 986
68 779
69 277
70 357
71 358
72 7
73 20
74 86
75 30
76 27
77 112
81 407
83 18
85 95
86 243
87 78

$$$$

     RDKit          2D

  4  4  0  0  0  0  0  0  0  0999 V2000
    0.0000    1.0600    0.0000 C   0  0  0  0  0  0  0  0  0  0  0  0
    1.0600   -0.0000    0.0000 C   0  0  0  0  0  0  0  0  0  0  0  0
   -1.0600   -0.0000    0.0000 C   0  0  0  0  0  0  0  0  0  0  0  0
    0.0000   -1.0600    0.0000 O   0  0  0  0  0  0  0  0  0  0  0  0
  2  1  1  0
  3  1  1  0
  4  2  1  0
  4  3  1  0
M  END
>  <NAME>  (3749) 
TRIMETHYLENE OXIDE

>  <SYNONYMS>  (3749) 


>  <SPECTRUM TYPE>  (3749) 
MS1

>  <INSTRUMENT TYPE>  (3749) 
EI-B

>  <INSTRUMENT>  (3749) 
HITACHI RMU-6M

>  <ION MODE>  (3749) 
P

>  <INCHIKEY>  (3749) 
AHHWIHXENZJRFG-UHFFFAOYSA-N

>  <FORMULA>  (3749) 
C3H6O

>  <EXACT MASS>  (3749) 
58.041864812

>  <MW>  (3749) 
58

>  <ID>  (3749) 
JP005851

>  <CONTRIBUTOR>  (3749) 
University of Tokyo Team, {Faculty of Engineering, University of Tokyo

>  <COMMENT>  (3749) 
SMILES=C(C1)CO1
InChI=InChI=1S/C3H6O/c1-2-4-3-1/h1-3H2
computed SMILES=O1CCC1
accession=JP005851
date=2016.01.19 (Created 2008.10.21, modified 2011.05.06)
author=YAMAMOTO M, DEP. CHEMISTRY, FAC. SCIENCE, NARA WOMEN'S UNIV.
license=CC BY-NC-SA
exact mass=58.04186
ionization energy=70 eV
ion type=[M]+*
computed spectral entropy=1.7118703917150344
computed normalized entropy=0.6674090413267371
SPLASH=splash10-004i-9000000000-cfb1e2ef0bcb3a4e9db4
submitter=submitter = University of Tokyo Team (Faculty of Engineering, University of Tokyo)
MoNA Rating=3.75

>  <NUM PEAKS>  (3749) 
13

>  <MASS SPECTRAL PEAKS>  (3749) 
25 1.28
26 13.01
27 20.41
28 99.99
29 17.09
30 3.57
31 7.91
37 1.02
38 1.28
39 1.53
57 6.12
58 47.96
59 1.79

>  <PREDICTED SPECTRUM>  (3749) 
14 120
15 262
16 40
18 15
19 22
25 76
26 376
27 803
28 598
29 864
30 434
31 426
37 159
38 284
39 839
40 447
41 999
42 591
43 612
50 134
51 124
52 131
54 110
57 405
58 827
59 258

$$$$

     RDKit          2D

 14 13  0  0  0  0  0  0  0  0999 V2000
    3.8971    6.7500    0.0000 C   0  0  0  0  0  0  0  0  0  0  0  0
  -11.6913    6.7500    0.0000 C   0  0  0  0  0  0  0  0  0  0  0  0
    2.5981    7.5000    0.0000 C   0  0  0  0  0  0  0  0  0  0  0  0
    1.2990    6.7500    0.0000 C   0  0  0  0  0  0  0  0  0  0  0  0
    0.0000    7.5000    0.0000 C   0  0  0  0  0  0  0  0  0  0  0  0
   -1.2990    6.7500    0.0000 C   0  0  0  0  0  0  0  0  0  0  0  0
   -2.5981    7.5000    0.0000 C   0  0  0  0  0  0  0  0  0  0  0  0
   -3.8971    6.7500    0.0000 C   0  0  0  0  0  0  0  0  0  0  0  0
   -5.1962    7.5000    0.0000 C   0  0  0  0  0  0  0  0  0  0  0  0
   -6.4952    6.7500    0.0000 C   0  0  0  0  0  0  0  0  0  0  0  0
   -7.7942    7.5000    0.0000 C   0  0  0  0  0  0  0  0  0  0  0  0
   -9.0933    6.7500    0.0000 C   0  0  0  0  0  0  0  0  0  0  0  0
   -9.0933    5.2500    0.0000 O   0  0  0  0  0  0  0  0  0  0  0  0
  -10.3923    7.5000    0.0000 O   0  0  0  0  0  0  0  0  0  0  0  0
  3  1  1  0
  4  3  1  0
  5  4  1  0
  6  5  1  0
  7  6  1  0
  8  7  1  0
  9  8  1  0
  9 10  2  0
 11 10  1  0
 12 11  1  0
 13 12  2  0
 14  2  1  0
 14 12  1  0
M  END
>  <NAME>  (3750) 
METHYL 3-UNDECENOATE

>  <SYNONYMS>  (3750) 


>  <SPECTRUM TYPE>  (3750) 
MS1

>  <INSTRUMENT TYPE>  (3750) 
EI-B

>  <INSTRUMENT>  (3750) 
HITACHI RMU-6M

>  <ION MODE>  (3750) 
P

>  <INCHIKEY>  (3750) 
UXEZTQUHDSYCQP-MDZDMXLPSA-N

>  <FORMULA>  (3750) 
C12H22O2

>  <EXACT MASS>  (3750) 
198.161979944

>  <MW>  (3750) 
198

>  <ID>  (3750) 
JP005850

>  <CONTRIBUTOR>  (3750) 
University of Tokyo Team, {Faculty of Engineering, University of Tokyo

>  <COMMENT>  (3750) 
SMILES=CCCCCCCC=CCC(=O)OC
InChI=InChI=1S/C12H22O2/c1-3-4-5-6-7-8-9-10-11-12(13)14-2/h9-10H,3-8,11H2,1-2H3/b10-9+
computed SMILES=O=C(OC)CC=CCCCCCCC
accession=JP005850
date=2016.01.19 (Created 2008.10.21, modified 2011.05.06)
author=YAMAMOTO M, DEP. CHEMISTRY, FAC. SCIENCE, NARA WOMEN'S UNIV.
license=CC BY-NC-SA
exact mass=198.16198
ionization energy=70 eV
ion type=[M]+*
computed spectral entropy=3.846281790440786
computed normalized entropy=0.8526715994776723
SPLASH=splash10-0596-9200000000-7d52ab8a4c2980e32503
submitter=submitter = University of Tokyo Team (Faculty of Engineering, University of Tokyo)
MoNA Rating=3.75

>  <NUM PEAKS>  (3750) 
91

>  <MASS SPECTRAL PEAKS>  (3750) 
15 35.33
26 1.24
27 33.21
28 7.96
29 46.28
30 1.12
31 1.49
39 31.85
40 5.47
41 99.99
42 20.15
43 82.85
44 2.99
45 2.74
51 2.49
52 2.24
53 18.91
54 59.71
55 92.55
56 28.36
57 19.66
58 1.49
59 49.51
60 1.24
65 3.36
66 2.99
67 33.09
68 29.11
69 53.74
70 11.44
71 27.87
72 9.95
73 7.46
74 93.3
75 9.95
76 1
77 2.74
79 5.22
80 3.61
81 24.13
82 30.85
83 40.31
84 45.28
85 20.15
86 2.24
87 25.38
88 3.48
91 1.24
93 1.74
94 3.48
95 15.92
96 43.29
97 15.67
98 19.16
99 4.48
100 2.24
101 12.19
102 1.74
108 1.24
109 6.47
110 10.45
111 4.48
112 1.49
113 9.45
114 21.15
115 11.94
116 1.74
119 2.36
122 6.97
123 12.44
124 61.7
125 12.94
126 1.12
127 5.47
128 6.1
129 2.36
130 1
137 6.97
138 6.72
139 3.98
141 2.98
142 1.12
143 1
148 4.23
151 1
155 2.36
166 28.36
167 6.72
169 1
198 12.44
199 1.99

>  <PREDICTED SPECTRUM>  (3750) 
14 10
15 84
16 3
17 1
18 1
26 89
27 372
28 211
29 399
30 120
31 85
32 43
33 42
34 0
37 25
38 65
39 449
40 209
41 820
42 407
43 658
44 215
45 205
46 15
47 0
49 3
50 123
51 220
52 183
53 430
54 576
55 999
56 479
57 503
58 149
59 592
60 77
61 84
62 74
63 66
64 26
65 230
66 192
67 599
68 522
69 695
70 324
71 424
72 193
73 111
74 909
75 352
76 77
77 224
78 134
79 315
80 237
81 597
82 528
83 538
84 540
85 414
86 88
87 641
88 220
89 75
91 128
92 54
93 153
94 202
95 475
96 641
97 519
98 270
99 252
100 227
101 274
102 166
105 112
106 109
107 150
108 52
109 284
110 326
111 187
112 151
113 265
114 298
115 230
116 144
119 78
120 64
121 89
122 285
123 312
124 643
125 342
126 93
127 186
128 143
129 112
130 64
137 205
138 289
139 137
141 247
142 54
143 85
148 128
149 94
150 28
151 52
155 155
156 53
157 21
165 31
166 512
167 297
168 53
169 72
170 23
198 282
199 94
200 33

$$$$

     RDKit          2D

 11 12  0  0  1  0  0  0  0  0999 V2000
    1.2027   -2.3196    0.0000 C   0  0  0  0  0  0  0  0  0  0  0  0
    2.1672   -0.6497    0.0000 C   0  0  0  0  0  0  0  0  0  0  0  0
   -0.6100    2.8400    0.0000 C   0  0  0  0  0  0  0  0  0  0  0  0
   -1.9100   -0.9100    0.0000 C   0  0  0  0  0  0  0  0  0  0  0  0
   -1.9100    0.5900    0.0000 C   0  0  0  0  0  0  0  0  0  0  0  0
   -1.3600   -0.1500    0.0000 C   0  0  0  0  0  0  0  0  0  0  0  0
   -0.6100   -1.6600    0.0000 C   0  0  0  0  0  0  0  0  0  0  0  0
    0.6900    0.5900    0.0000 C   0  0  0  0  0  0  0  0  0  0  0  0
    0.6900   -0.9100    0.0000 C   0  0  0  0  0  0  0  0  0  0  0  0
   -0.6100    1.3400    0.0000 C   0  0  0  0  0  0  0  0  0  0  0  0
    1.9889    1.3402    0.0000 O   0  0  0  0  0  0  0  0  0  0  0  0
  5  4  1  0
  7  4  1  6
  7  6  1  0
  9  1  1  0
  9  2  1  0
  9  7  1  0
  9  8  1  0
 10  3  1  1
 10  5  1  0
 10  6  1  0
 10  8  1  0
 11  8  2  0
M  END
>  <NAME>  (3751) 
1,3,3-TRIMETHYLBICYCLO(2.2.1)HEPTAN-2-ONE

>  <SYNONYMS>  (3751) 
(+)-FENCHONE

>  <SPECTRUM TYPE>  (3751) 
MS1

>  <INSTRUMENT TYPE>  (3751) 
EI-B

>  <INSTRUMENT>  (3751) 
JEOL JMS-D-300

>  <ION MODE>  (3751) 
P

>  <INCHIKEY>  (3751) 
LHXDLQBQYFFVNW-XCBNKYQSSA-N

>  <FORMULA>  (3751) 
C10H16O

>  <EXACT MASS>  (3751) 
152.120115132

>  <MW>  (3751) 
152

>  <ID>  (3751) 
JP005805

>  <CONTRIBUTOR>  (3751) 
University of Tokyo Team, {Faculty of Engineering, University of Tokyo

>  <COMMENT>  (3751) 
SMILES=O=C(C(C)21)C(C)(C)C([H])(CC2)C1
cas=4695-62-9
InChI=InChI=1S/C10H16O/c1-9(2)7-4-5-10(3,6-7)8(9)11/h7H,4-6H2,1-3H3/t7-,10+/m1/s1
computed SMILES=O=C1C(C)(C)C2CCC1(C)C2
accession=JP005805
date=2016.01.19 (Created 2008.10.21, modified 2011.05.06)
author=FUJISE Y, HAMAMATSU UNIV. SCHOOL OF MEDICINE
license=CC BY-NC-SA
exact mass=152.12012
ionization energy=70 eV
ion type=[M]+*
computed spectral entropy=1.796154432383095
computed normalized entropy=0.6478257730674555
SPLASH=splash10-001i-9100000000-47c4006dbf1ec751f66d
submitter=submitter = University of Tokyo Team (Faculty of Engineering, University of Tokyo)
MoNA Rating=3.75

>  <NUM PEAKS>  (3751) 
16

>  <MASS SPECTRAL PEAKS>  (3751) 
53 2.99
55 2.43
67 4.15
68 3.53
69 39.72
70 2.66
72 2.14
77 1.27
79 3.07
80 13.65
81 99.99
82 8.42
109 4.06
137 1.92
152 16.65
153 1.89

>  <PREDICTED SPECTRUM>  (3751) 
26 57
27 383
28 183
29 284
30 52
38 74
39 573
40 322
41 946
42 349
43 617
44 126
45 69
50 145
51 326
52 246
53 584
54 332
55 771
56 326
57 231
58 75
59 5
60 19
62 32
63 159
64 68
65 406
66 259
67 875
68 541
69 775
70 343
71 271
72 101
74 2
75 1
77 548
78 263
79 694
80 400
81 971
82 619
83 448
84 353
85 118
86 68
91 580
92 301
93 583
94 436
95 892
96 624
97 307
98 89
103 10
105 266
106 119
107 620
108 763
109 999
110 502
111 215
112 5
119 234
120 91
121 305
122 344
123 471
124 611
125 214
134 59
135 35
136 73
137 489
138 182
151 97
152 724
153 260
154 52

$$$$

     RDKit          2D

 11 11  0  0  1  0  0  0  0  0999 V2000
   -2.2386    2.7951    0.0000 C   0  0  0  0  0  0  0  0  0  0  0  0
   -3.5376    0.5451    0.0000 C   0  0  0  0  0  0  0  0  0  0  0  0
    2.9576   -1.7049    0.0000 C   0  0  0  0  0  0  0  0  0  0  0  0
    0.3590   -1.7058    0.0000 C   0  0  0  0  0  0  0  0  0  0  0  0
   -0.9400   -0.9558    0.0000 C   0  0  0  0  0  0  0  0  0  0  0  0
    0.3600    1.2959    0.0000 C   0  0  0  0  0  0  0  0  0  0  0  0
   -2.2386    1.2951    0.0000 C   0  0  0  0  0  0  0  0  0  0  0  0
    1.6585   -0.9549    0.0000 C   0  0  0  0  0  0  0  0  0  0  0  0
   -0.9395    0.5451    0.0000 C   0  0  0  0  0  0  0  0  0  0  0  0
    1.6590    0.5459    0.0000 C   0  0  0  0  0  0  0  0  0  0  0  0
    2.9582    1.2957    0.0000 O   0  0  0  0  0  0  0  0  0  0  0  0
  5  4  1  0
  7  1  2  0
  7  2  1  0
  8  3  1  0
  8  4  2  0
  9  5  1  0
  9  6  1  0
  9  7  1  1
 10  6  1  0
 10  8  1  0
 11 10  2  0
M  END
>  <NAME>  (3752) 
(R)-2-METHYL-5-(1-METHYLETHENYL)-2-CYCLOHEXEN-1-ONE

>  <SYNONYMS>  (3752) 
D-CARVONE

>  <SPECTRUM TYPE>  (3752) 
MS1

>  <INSTRUMENT TYPE>  (3752) 
EI-B

>  <INSTRUMENT>  (3752) 
JEOL JMS-D-300

>  <ION MODE>  (3752) 
P

>  <INCHIKEY>  (3752) 
ULDHMXUKGWMISQ-SECBINFHSA-N

>  <FORMULA>  (3752) 
C10H14O

>  <EXACT MASS>  (3752) 
150.104465068

>  <MW>  (3752) 
150

>  <ID>  (3752) 
JP005802

>  <CONTRIBUTOR>  (3752) 
University of Tokyo Team, {Faculty of Engineering, University of Tokyo

>  <COMMENT>  (3752) 
SMILES=CC(=C)C([H])(C1)CC(=O)C(C)=C([H])1
InChI=InChI=1S/C10H14O/c1-7(2)9-5-4-8(3)10(11)6-9/h4,9H,1,5-6H2,2-3H3/t9-/m1/s1
computed SMILES=O=C1C(=CCC(C(=C)C)C1)C
date=2016.01.19 (Created 2008.10.21, modified 2011.05.06)
author=FUJISE Y, HAMAMATSU UNIV. SCHOOL OF MEDICINE
license=CC BY-NC-SA
exact mass=150.10447
ionization energy=70 eV
computed spectral entropy=2.8804737236778335
ion type=[M]+*
accession=JP005802
computed normalized entropy=0.7862495576458765
SPLASH=splash10-0a59-9300000000-0663a3956cbefc28418a
submitter=submitter = University of Tokyo Team (Faculty of Engineering, University of Tokyo)
MoNA Rating=3.75

>  <NUM PEAKS>  (3752) 
39

>  <MASS SPECTRAL PEAKS>  (3752) 
51 2.06
52 4.53
53 2.36
54 10.69
55 38.95
56 4.22
58 10.96
63 1.35
65 4.88
66 1.68
67 7.27
68 1.7
69 3.77
77 6.92
78 2.08
79 9.39
80 5.08
81 2.86
82 99.99
83 5.64
91 8.89
92 4.22
93 28.69
94 6.3
95 3.79
105 2.86
106 13.32
107 16.39
108 31.21
109 5.74
117 0.88
119 1.66
120 1
121 1.48
122 2.49
132 0.98
135 3.74
150 9.88
151 1.68

>  <PREDICTED SPECTRUM>  (3752) 
14 3
25 14
26 132
27 404
28 181
29 271
30 46
31 19
32 4
37 98
38 198
39 696
40 388
41 815
42 370
43 476
44 126
45 68
46 3
49 37
50 240
51 437
52 353
53 638
54 434
55 335
56 121
57 74
58 43
59 68
60 36
61 76
62 122
63 251
64 115
65 424
66 373
67 840
68 600
69 446
70 185
71 101
72 40
73 86
74 31
75 56
76 3
77 424
78 216
79 703
80 557
81 594
82 468
83 179
84 21
89 47
90 14
91 430
92 264
93 609
94 476
95 385
96 184
97 23
101 24
103 76
104 52
105 212
106 190
107 948
108 999
109 403
110 148
117 189
118 15
119 91
120 22
121 324
122 244
123 51
131 70
132 72
133 111
135 412
136 113
149 130
150 905
151 310
152 64

$$$$

     RDKit          2D

 11 11  0  0  1  0  0  0  0  0999 V2000
   -2.2386    2.7951    0.0000 C   0  0  0  0  0  0  0  0  0  0  0  0
   -3.5376    0.5451    0.0000 C   0  0  0  0  0  0  0  0  0  0  0  0
    2.9576   -1.7049    0.0000 C   0  0  0  0  0  0  0  0  0  0  0  0
    0.3590   -1.7058    0.0000 C   0  0  0  0  0  0  0  0  0  0  0  0
   -0.9400   -0.9558    0.0000 C   0  0  0  0  0  0  0  0  0  0  0  0
    0.3600    1.2959    0.0000 C   0  0  0  0  0  0  0  0  0  0  0  0
   -2.2386    1.2951    0.0000 C   0  0  0  0  0  0  0  0  0  0  0  0
    1.6585   -0.9549    0.0000 C   0  0  0  0  0  0  0  0  0  0  0  0
   -0.9395    0.5451    0.0000 C   0  0  0  0  0  0  0  0  0  0  0  0
    1.6590    0.5459    0.0000 C   0  0  0  0  0  0  0  0  0  0  0  0
    2.9582    1.2957    0.0000 O   0  0  0  0  0  0  0  0  0  0  0  0
  5  4  1  0
  7  1  2  0
  7  2  1  0
  8  3  1  0
  8  4  2  0
  9  5  1  0
  9  6  1  0
  9  7  1  1
 10  6  1  0
 10  8  1  0
 10 11  1  6
M  END
>  <NAME>  (3753) 
(1S-TRANS)-2-METHYL-5-(1-METHYLETHENYL)-2-CYCLOHEXEN-1-OL

>  <SYNONYMS>  (3753) 
L-CARVEOL

>  <SPECTRUM TYPE>  (3753) 
MS1

>  <INSTRUMENT TYPE>  (3753) 
EI-B

>  <INSTRUMENT>  (3753) 
JEOL JMS-D-300

>  <ION MODE>  (3753) 
P

>  <INCHIKEY>  (3753) 
BAVONGHXFVOKBV-ZJUUUORDSA-N

>  <FORMULA>  (3753) 
C10H16O

>  <EXACT MASS>  (3753) 
152.120115132

>  <MW>  (3753) 
152

>  <ID>  (3753) 
JP005800

>  <CONTRIBUTOR>  (3753) 
University of Tokyo Team, {Faculty of Engineering, University of Tokyo

>  <COMMENT>  (3753) 
SMILES=CC(=C)C([H])(C1)CC([H])(O)C(C)=C([H])1
cas=2102-58-1
InChI=InChI=1S/C10H16O/c1-7(2)9-5-4-8(3)10(11)6-9/h4,9-11H,1,5-6H2,2-3H3/t9-,10+/m1/s1
computed SMILES=OC1C(=CCC(C(=C)C)C1)C
accession=JP005800
date=2016.01.19 (Created 2008.10.21, modified 2011.05.06)
author=FUJISE Y, HAMAMATSU UNIV. SCHOOL OF MEDICINE
license=CC BY-NC-SA
exact mass=152.12012
ionization energy=70 eV
ion type=[M]+*
computed spectral entropy=3.542120620321702
computed normalized entropy=0.8424208238163116
SPLASH=splash10-05nf-9700000000-a75055e28480ba00b820
submitter=submitter = University of Tokyo Team (Faculty of Engineering, University of Tokyo)
MoNA Rating=3.75

>  <NUM PEAKS>  (3753) 
67

>  <MASS SPECTRAL PEAKS>  (3753) 
51 5.56
52 15.04
53 3.82
54 15.67
56 24.52
57 7.56
61 0.82
62 2.55
63 6.83
64 3.55
65 18.5
66 5.74
67 14.22
68 7.47
69 16.77
70 2.46
72 1.36
75 2.18
76 1.54
77 36.91
78 9.66
79 20.78
80 12.21
81 10.2
83 23.06
84 54.14
85 4.55
89 3.09
91 95.89
92 38.65
93 33.91
94 8.02
95 8.75
96 8.2
97 2.91
99 2.64
100 1.18
103 6.65
104 4.74
105 31.81
106 8.56
107 3.64
108 7.47
109 77.3
110 10.02
111 1.64
114 1.36
115 9.57
116 3.64
117 21.6
118 3.28
119 99.99
120 10.2
121 2.91
123 7.47
124 2.64
127 2.55
129 1.91
130 1.73
131 3.28
132 10.57
133 5.74
134 63.62
135 6.28
137 7.93
152 14.22
153 1.91

>  <PREDICTED SPECTRUM>  (3753) 
26 34
27 279
28 33
29 172
31 82
37 22
38 91
39 574
40 247
41 925
42 286
43 773
44 184
45 92
46 23
49 31
50 189
51 372
52 269
53 605
54 301
55 664
56 321
57 348
58 94
59 173
60 122
61 54
62 99
63 216
64 116
65 433
66 319
67 794
68 440
69 605
70 300
71 321
72 136
73 38
74 46
75 80
76 27
77 626
78 301
79 810
80 414
81 794
82 462
83 390
84 308
85 92
86 8
88 4
89 98
90 54
91 863
92 450
93 815
94 570
95 522
96 407
97 289
98 101
103 117
104 79
105 531
106 256
107 609
108 553
109 999
110 332
111 83
112 20
115 95
116 32
117 221
118 55
119 846
120 257
121 136
122 67
123 346
124 238
125 73
133 169
134 551
135 196
136 47
137 409
138 123
150 39
151 36
152 558
153 166

$$$$

     RDKit          2D

 11 11  0  0  1  0  0  0  0  0999 V2000
   -2.2386   -2.4551    0.0000 C   0  0  0  0  0  0  0  0  0  0  0  0
   -3.5376   -0.2051    0.0000 C   0  0  0  0  0  0  0  0  0  0  0  0
    2.9576    2.0449    0.0000 C   0  0  0  0  0  0  0  0  0  0  0  0
    0.3590    2.0458    0.0000 C   0  0  0  0  0  0  0  0  0  0  0  0
   -0.9400    1.2958    0.0000 C   0  0  0  0  0  0  0  0  0  0  0  0
    1.6590   -0.2059    0.0000 C   0  0  0  0  0  0  0  0  0  0  0  0
   -2.2386   -0.9551    0.0000 C   0  0  0  0  0  0  0  0  0  0  0  0
    1.6585    1.2949    0.0000 C   0  0  0  0  0  0  0  0  0  0  0  0
   -0.9395   -0.2051    0.0000 C   0  0  0  0  0  0  0  0  0  0  0  0
    0.3600   -0.9559    0.0000 C   0  0  0  0  0  0  0  0  0  0  0  0
    0.3597   -2.4559    0.0000 O   0  0  0  0  0  0  0  0  0  0  0  0
  5  4  1  0
  7  1  2  0
  7  2  1  0
  8  3  1  1
  8  4  1  0
  8  6  1  0
  9  5  1  0
  9  7  1  6
 10  6  1  0
 10  9  1  0
 10 11  1  1
M  END
>  <NAME>  (3754) 
(1R-(1ALPHA,2BETA,5ALPHA))-5-METHYL-2-(1-M

>  <SYNONYMS>  (3754) 
ETHYLETHENYL)CYCLOHEXANOLISO-PULEGOL

>  <SPECTRUM TYPE>  (3754) 
MS1

>  <INSTRUMENT TYPE>  (3754) 
EI-B

>  <INSTRUMENT>  (3754) 
JEOL JMS-D-300

>  <ION MODE>  (3754) 
P

>  <INCHIKEY>  (3754) 
ZYTMANIQRDEHIO-KXUCPTDWSA-N

>  <FORMULA>  (3754) 
C10H18O

>  <EXACT MASS>  (3754) 
154.135765196

>  <MW>  (3754) 
154

>  <ID>  (3754) 
JP005798

>  <CONTRIBUTOR>  (3754) 
University of Tokyo Team, {Faculty of Engineering, University of Tokyo

>  <COMMENT>  (3754) 
SMILES=CC(=C)C([H])(C1)C([H])(O)CC([H])(C)C1
cas=89-79-2
InChI=InChI=1S/C10H18O/c1-7(2)9-5-4-8(3)6-10(9)11/h8-11H,1,4-6H2,2-3H3/t8-,9+,10-/m1/s1
computed SMILES=OC1CC(C)CCC1C(=C)C
accession=JP005798
date=2016.01.19 (Created 2008.10.21, modified 2011.05.06)
author=FUJISE Y, HAMAMATSU UNIV. SCHOOL OF MEDICINE
license=CC BY-NC-SA
exact mass=154.13577
ionization energy=70 eV
ion type=[M]+*
computed spectral entropy=3.6184392832319663
computed normalized entropy=0.8575501068035011
SPLASH=splash10-06di-9200000000-2ce50fb75d3deb9eb8e7
submitter=submitter = University of Tokyo Team (Faculty of Engineering, University of Tokyo)
MoNA Rating=3.75

>  <NUM PEAKS>  (3754) 
68

>  <MASS SPECTRAL PEAKS>  (3754) 
51 1.7
52 10.22
53 5.56
54 38.71
55 8.83
56 88.46
57 62.7
58 4.71
63 2.49
64 1.05
65 10.87
66 5.9
67 80.68
68 90.59
69 98.43
70 26.27
71 89.06
72 9.71
73 2.32
77 24.05
78 4.6
79 60.15
80 30.78
81 99.99
82 20.7
83 36.52
84 59.95
85 17.09
86 2.1
91 20.93
92 16.87
93 85.08
94 29.33
95 54.35
96 12.07
97 33.05
98 23.43
99 5.05
103 1.53
104 0.93
105 8.32
106 2.69
107 34.59
108 10.3
109 25.24
110 28.34
111 38.68
112 20.93
113 2.13
115 1.67
117 2.27
119 5.87
120 1.53
121 84.03
122 8.46
123 8.88
124 1.39
125 2.55
132 1.44
134 1.76
135 1.56
136 54.21
137 5.9
139 19.82
140 1.9
145 1.22
154 15.33
155 2.27

>  <PREDICTED SPECTRUM>  (3754) 
26 66
27 338
28 102
29 292
31 155
38 61
39 517
40 212
41 996
42 339
43 815
44 259
45 143
50 137
51 268
52 194
53 515
54 403
55 849
56 433
57 451
58 266
59 153
62 38
63 121
64 12
65 256
66 209
67 887
68 694
69 708
70 497
71 636
72 198
77 390
78 187
79 593
80 399
81 999
82 440
83 543
84 435
85 247
86 65
91 364
92 164
93 719
94 524
95 768
96 549
97 516
98 355
99 165
105 88
106 42
107 548
108 418
109 488
110 530
111 655
112 308
113 38
119 61
121 970
122 253
123 188
125 236
126 134
135 63
136 753
137 152
139 307
140 52
154 375
155 73

$$$$

     RDKit          2D

 11 11  0  0  1  0  0  0  0  0999 V2000
   -3.5376   -0.2051    0.0000 C   0  0  0  0  0  0  0  0  0  0  0  0
   -2.2386   -2.4551    0.0000 C   0  0  0  0  0  0  0  0  0  0  0  0
    2.9576    2.0449    0.0000 C   0  0  0  0  0  0  0  0  0  0  0  0
    0.3590    2.0458    0.0000 C   0  0  0  0  0  0  0  0  0  0  0  0
   -0.9400    1.2958    0.0000 C   0  0  0  0  0  0  0  0  0  0  0  0
    1.6590   -0.2059    0.0000 C   0  0  0  0  0  0  0  0  0  0  0  0
   -2.2386   -0.9551    0.0000 C   0  0  0  0  0  0  0  0  0  0  0  0
    1.6585    1.2949    0.0000 C   0  0  0  0  0  0  0  0  0  0  0  0
   -0.9395   -0.2051    0.0000 C   0  0  0  0  0  0  0  0  0  0  0  0
    0.3600   -0.9559    0.0000 C   0  0  0  0  0  0  0  0  0  0  0  0
    0.3597   -2.4559    0.0000 O   0  0  0  0  0  0  0  0  0  0  0  0
  5  4  1  0
  7  1  1  0
  7  2  1  0
  8  3  1  0
  8  4  1  0
  8  6  2  0
  9  5  1  0
  9  7  1  6
 10  6  1  0
 10  9  1  0
 10 11  1  6
M  END
>  <NAME>  (3755) 
3-METHYL-6-(1-METHYLETHYL)-2-CYCLOGEXEN-1-OL

>  <SYNONYMS>  (3755) 
(+)CIS-PIPERITOL

>  <SPECTRUM TYPE>  (3755) 
MS1

>  <INSTRUMENT TYPE>  (3755) 
EI-B

>  <INSTRUMENT>  (3755) 
JEOL JMS-D-300

>  <ION MODE>  (3755) 
P

>  <INCHIKEY>  (3755) 
HPOHAUWWDDPHRS-UWVGGRQHSA-N

>  <FORMULA>  (3755) 
C10H18O

>  <EXACT MASS>  (3755) 
154.135765196

>  <MW>  (3755) 
154

>  <ID>  (3755) 
JP005797

>  <CONTRIBUTOR>  (3755) 
University of Tokyo Team, {Faculty of Engineering, University of Tokyo

>  <COMMENT>  (3755) 
SMILES=CC(C1)=C([H])C([H])(O)C([H])(C1)C(C)C
cas=491-04-3
InChI=InChI=1S/C10H18O/c1-7(2)9-5-4-8(3)6-10(9)11/h6-7,9-11H,4-5H2,1-3H3/t9-,10-/m0/s1
computed SMILES=OC1C=C(C)CCC1C(C)C
accession=JP005797
date=2016.01.19 (Created 2008.10.21, modified 2011.05.06)
author=FUJISE Y, HAMAMATSU UNIV. SCHOOL OF MEDICINE
license=CC BY-NC-SA
exact mass=154.13577
ionization energy=70 eV
ion type=[M]+*
computed spectral entropy=3.0652078270506387
computed normalized entropy=0.7961273551406742
SPLASH=splash10-000x-9200000000-b13d6efa256d01cc8a24
submitter=submitter = University of Tokyo Team (Faculty of Engineering, University of Tokyo)
MoNA Rating=3.75

>  <NUM PEAKS>  (3755) 
47

>  <MASS SPECTRAL PEAKS>  (3755) 
51 0.97
52 4.21
53 1.65
54 5.33
55 8.63
56 2.65
57 3.32
59 1.17
63 1.37
65 5.35
66 1.33
67 6.15
68 1.35
69 9.7
70 1.73
71 12.17
77 26.73
78 4.48
79 15.67
80 5.68
81 6.69
82 1.27
83 25.93
84 99.99
85 6.37
91 27.83
92 14.42
93 91.97
94 12.02
95 3.73
96 1.13
97 5.2
105 4.07
106 0.99
107 3.48
108 1.22
111 10.45
112 7.81
119 3.47
121 20.5
122 2.09
136 24.03
137 3
139 31.51
140 3.36
154 11.45
155 1.24

>  <PREDICTED SPECTRUM>  (3755) 
39 87
40 3
41 308
42 105
43 449
44 35
50 19
51 135
52 66
53 224
54 36
55 208
56 55
57 49
63 42
65 265
66 114
67 360
68 223
69 350
70 47
71 170
77 387
78 149
79 406
80 172
81 137
82 61
83 464
84 999
85 325
86 48
91 454
92 328
93 689
94 476
95 271
96 119
97 284
105 165
107 192
108 32
109 81
110 145
111 470
112 236
119 58
121 471
125 81
136 522
137 137
139 380
140 35
153 15
154 486
155 116

$$$$

     RDKit          2D

 16 15  0  0  0  0  0  0  0  0999 V2000
    3.8971    6.7500    0.0000 C   0  0  0  0  0  0  0  0  0  0  0  0
  -11.6913    6.7500    0.0000 C   0  0  0  0  0  0  0  0  0  0  0  0
  -10.3923    9.0000    0.0000 C   0  0  0  0  0  0  0  0  0  0  0  0
   -5.1962    9.0000    0.0000 C   0  0  0  0  0  0  0  0  0  0  0  0
    2.5981    7.5000    0.0000 C   0  0  0  0  0  0  0  0  0  0  0  0
   -7.7942    7.5000    0.0000 C   0  0  0  0  0  0  0  0  0  0  0  0
    1.2990    6.7500    0.0000 C   0  0  0  0  0  0  0  0  0  0  0  0
   -9.0933    6.7500    0.0000 C   0  0  0  0  0  0  0  0  0  0  0  0
   -6.4952    6.7500    0.0000 C   0  0  0  0  0  0  0  0  0  0  0  0
   -3.8971    6.7500    0.0000 C   0  0  0  0  0  0  0  0  0  0  0  0
   -2.5981    7.5000    0.0000 C   0  0  0  0  0  0  0  0  0  0  0  0
  -10.3923    7.5000    0.0000 C   0  0  0  0  0  0  0  0  0  0  0  0
   -5.1962    7.5000    0.0000 C   0  0  0  0  0  0  0  0  0  0  0  0
    0.0000    7.5000    0.0000 C   0  0  0  0  0  0  0  0  0  0  0  0
    0.0000    9.0000    0.0000 O   0  0  0  0  0  0  0  0  0  0  0  0
   -1.2990    6.7500    0.0000 O   0  0  0  0  0  0  0  0  0  0  0  0
  5  1  1  0
  7  5  1  0
  8  6  1  0
  9  6  1  0
 11 10  1  0
 12  2  1  0
 12  3  1  0
 12  8  2  0
 13  4  1  0
 13  9  1  0
 10 13  2  0
 14  7  1  0
 15 14  2  0
 16 11  1  0
 16 14  1  0
M  END
>  <NAME>  (3756) 
(E)-3,7-DIMETHYL-2,6-OCTADIEN-1-YL BUTYRATE

>  <SYNONYMS>  (3756) 
GERANYL BUTYRATE

>  <SPECTRUM TYPE>  (3756) 
MS1

>  <INSTRUMENT TYPE>  (3756) 
EI-B

>  <INSTRUMENT>  (3756) 
JEOL JMS-D-300

>  <ION MODE>  (3756) 
P

>  <INCHIKEY>  (3756) 
ZSBOMYJPSRFZAL-JLHYYAGUSA-N

>  <FORMULA>  (3756) 
C14H24O2

>  <EXACT MASS>  (3756) 
224.177630008

>  <MW>  (3756) 
224

>  <ID>  (3756) 
JP005796

>  <CONTRIBUTOR>  (3756) 
University of Tokyo Team, {Faculty of Engineering, University of Tokyo

>  <COMMENT>  (3756) 
SMILES=CCCC(=O)OCC([H])=C(C)CCC=C(C)C
InChI=InChI=1S/C14H24O2/c1-5-7-14(15)16-11-10-13(4)9-6-8-12(2)3/h8,10H,5-7,9,11H2,1-4H3/b13-10+
computed SMILES=O=C(OCC=C(C)CCC=C(C)C)CCC
accession=JP005796
date=2016.01.19 (Created 2008.10.21, modified 2011.05.06)
author=FUJISE Y, HAMAMATSU UNIV. SCHOOL OF MEDICINE
license=CC BY-NC-SA
exact mass=224.17763
ionization energy=70 eV
ion type=[M]+*
computed spectral entropy=3.035567337782747
computed normalized entropy=0.8070741370864258
SPLASH=splash10-00kf-9100000000-7627e05953e90b0b69d4
submitter=submitter = University of Tokyo Team (Faculty of Engineering, University of Tokyo)
MoNA Rating=3.75

>  <NUM PEAKS>  (3756) 
43

>  <MASS SPECTRAL PEAKS>  (3756) 
51 4.07
52 1.5
53 9.79
55 7.03
60 58.24
61 1.82
65 4.74
66 1.39
67 16.96
68 36.19
69 60.99
70 3.31
71 22.17
72 1.01
73 16.67
77 21.77
78 2.96
79 24.15
80 19.43
81 9.07
82 1.62
85 1.19
87 1.02
88 2.14
91 24.45
92 18.45
93 99.99
94 13.92
95 2.69
103 1.65
105 9.72
106 2.42
107 9.85
108 2.11
119 2.3
121 30.69
122 3.19
123 1.39
136 26.04
137 3.46
154 1.08
155 0.68
207 0.06

>  <PREDICTED SPECTRUM>  (3756) 
26 28
27 173
28 72
29 192
31 9
37 13
38 36
39 231
40 128
41 697
42 208
43 575
44 165
45 22
50 58
51 74
52 83
53 280
54 111
55 304
56 115
57 166
58 19
59 42
60 70
62 14
63 51
64 38
65 170
66 100
67 384
68 729
69 999
70 274
71 595
72 148
73 3
77 224
78 79
79 252
80 533
81 400
82 96
83 44
84 22
85 94
89 55
91 170
92 379
93 840
94 337
95 130
96 16
97 82
105 128
107 368
108 147
109 34
110 26
121 539
122 180
123 165
124 9
136 435
137 150
138 3
150 39
151 18
153 72
154 134
155 73

$$$$

     RDKit          2D

 16 15  0  0  0  0  0  0  0  0999 V2000
    3.8971    6.0000    0.0000 C   0  0  0  0  0  0  0  0  0  0  0  0
    2.5981    8.2500    0.0000 C   0  0  0  0  0  0  0  0  0  0  0  0
  -10.3923    6.7500    0.0000 C   0  0  0  0  0  0  0  0  0  0  0  0
   -9.0933    4.5000    0.0000 C   0  0  0  0  0  0  0  0  0  0  0  0
   -2.5981    8.2500    0.0000 C   0  0  0  0  0  0  0  0  0  0  0  0
    0.0000    6.7500    0.0000 C   0  0  0  0  0  0  0  0  0  0  0  0
    1.2990    6.0000    0.0000 C   0  0  0  0  0  0  0  0  0  0  0  0
   -1.2990    6.0000    0.0000 C   0  0  0  0  0  0  0  0  0  0  0  0
   -3.8971    6.0000    0.0000 C   0  0  0  0  0  0  0  0  0  0  0  0
   -5.1962    6.7500    0.0000 C   0  0  0  0  0  0  0  0  0  0  0  0
    2.5981    6.7500    0.0000 C   0  0  0  0  0  0  0  0  0  0  0  0
   -9.0933    6.0000    0.0000 C   0  0  0  0  0  0  0  0  0  0  0  0
   -2.5981    6.7500    0.0000 C   0  0  0  0  0  0  0  0  0  0  0  0
   -7.7942    6.7500    0.0000 C   0  0  0  0  0  0  0  0  0  0  0  0
   -7.7942    8.2500    0.0000 O   0  0  0  0  0  0  0  0  0  0  0  0
   -6.4952    6.0000    0.0000 O   0  0  0  0  0  0  0  0  0  0  0  0
  7  6  1  0
  8  6  1  0
 10  9  1  0
 11  1  1  0
 11  2  1  0
 11  7  2  0
 12  3  1  0
 12  4  1  0
 13  5  1  0
 13  8  1  0
  9 13  2  0
 14 12  1  0
 15 14  2  0
 16 10  1  0
 16 14  1  0
M  END
>  <NAME>  (3757) 
(E)-3,7-DIMETHYL-2,6-OCTADIEN-1-YL ISOBUTYRATE

>  <SYNONYMS>  (3757) 
GERANYL ISOBUTYRATE

>  <SPECTRUM TYPE>  (3757) 
MS1

>  <INSTRUMENT TYPE>  (3757) 
EI-B

>  <INSTRUMENT>  (3757) 
JEOL JMS-D-300

>  <ION MODE>  (3757) 
P

>  <INCHIKEY>  (3757) 
OGJYXQFXLSCKTP-UKTHLTGXSA-N

>  <FORMULA>  (3757) 
C14H24O2

>  <EXACT MASS>  (3757) 
224.177630008

>  <MW>  (3757) 
224

>  <ID>  (3757) 
JP005795

>  <CONTRIBUTOR>  (3757) 
University of Tokyo Team, {Faculty of Engineering, University of Tokyo

>  <COMMENT>  (3757) 
SMILES=CC(C)=CCCC(C)=C([H])COC(=O)C(C)C
InChI=InChI=1S/C14H24O2/c1-11(2)7-6-8-13(5)9-10-16-14(15)12(3)4/h7,9,12H,6,8,10H2,1-5H3/b13-9+
computed SMILES=O=C(OCC=C(C)CCC=C(C)C)C(C)C
accession=JP005795
date=2016.01.19 (Created 2008.10.21, modified 2011.05.06)
author=FUJISE Y, HAMAMATSU UNIV. SCHOOL OF MEDICINE
license=CC BY-NC-SA
exact mass=224.17763
ionization energy=70 eV
ion type=[M]+*
computed spectral entropy=3.0276065002648234
computed normalized entropy=0.790778290973182
SPLASH=splash10-00kf-9100000000-6145fa1c542d3bb735c5
submitter=submitter = University of Tokyo Team (Faculty of Engineering, University of Tokyo)
MoNA Rating=3.75

>  <NUM PEAKS>  (3757) 
46

>  <MASS SPECTRAL PEAKS>  (3757) 
51 4.22
52 1.83
53 9.91
54 1.06
55 6.74
63 0.91
65 4.58
66 1.61
67 16.57
68 37.55
69 60.77
70 3.93
71 20.47
72 0.98
73 18.98
77 19.3
78 2.92
79 21.75
80 23.38
81 8.98
82 1.28
88 7.38
89 0.9
91 21.93
92 19.33
93 99.99
94 13.84
95 2.28
103 1.34
105 7.96
106 2.14
107 10.33
108 2.35
119 3
121 31.55
122 3.09
123 1.19
136 27.38
137 3.6
138 0.14
139 0.17
153 0.15
154 0.78
155 0.85
156 0.14
224 0.24

>  <PREDICTED SPECTRUM>  (3757) 
25 5
26 30
27 189
28 84
29 222
31 9
37 27
38 50
39 265
40 150
41 741
42 218
43 576
44 158
45 64
50 59
51 79
52 103
53 311
54 138
55 308
56 119
57 214
58 45
59 47
60 27
62 9
63 44
64 34
65 161
66 102
67 417
68 675
69 999
70 321
71 610
72 185
73 11
77 232
78 86
79 342
80 513
81 456
82 146
83 129
84 68
85 163
86 0
89 62
91 198
92 403
93 828
94 315
95 209
96 68
97 121
98 34
105 145
107 406
108 142
109 49
110 17
111 26
121 523
122 210
123 136
124 68
125 23
135 57
136 468
137 222
138 22
150 32
151 88
152 14
153 116
154 106
155 104
168 0
181 31
224 32

$$$$

     RDKit          2D

 14 13  0  0  0  0  0  0  0  0999 V2000
   -8.7685    6.1875    0.0000 C   0  0  0  0  0  0  0  0  0  0  0  0
   -7.4695    3.9375    0.0000 C   0  0  0  0  0  0  0  0  0  0  0  0
   -2.2733    3.9375    0.0000 C   0  0  0  0  0  0  0  0  0  0  0  0
    4.2219    6.1875    0.0000 C   0  0  0  0  0  0  0  0  0  0  0  0
   -4.8714    5.4375    0.0000 C   0  0  0  0  0  0  0  0  0  0  0  0
   -6.1704    6.1875    0.0000 C   0  0  0  0  0  0  0  0  0  0  0  0
   -3.5724    6.1875    0.0000 C   0  0  0  0  0  0  0  0  0  0  0  0
   -0.9743    6.1875    0.0000 C   0  0  0  0  0  0  0  0  0  0  0  0
    0.3248    5.4375    0.0000 C   0  0  0  0  0  0  0  0  0  0  0  0
   -7.4695    5.4375    0.0000 C   0  0  0  0  0  0  0  0  0  0  0  0
   -2.2733    5.4375    0.0000 C   0  0  0  0  0  0  0  0  0  0  0  0
    2.9228    5.4375    0.0000 C   0  0  0  0  0  0  0  0  0  0  0  0
    2.9228    3.9375    0.0000 O   0  0  0  0  0  0  0  0  0  0  0  0
    1.6238    6.1875    0.0000 O   0  0  0  0  0  0  0  0  0  0  0  0
  6  5  1  0
  7  5  1  0
  9  8  1  0
 10  1  1  0
 10  2  1  0
 10  6  2  0
 11  3  1  0
 11  7  1  0
  8 11  2  0
 12  4  1  0
 13 12  2  0
 14  9  1  0
 14 12  1  0
M  END
>  <NAME>  (3758) 
(E)-3,7-DIMETHYL-2,6-OCTADIEN-1-YL ACETATE

>  <SYNONYMS>  (3758) 
GERANYL ACETATE

>  <SPECTRUM TYPE>  (3758) 
MS1

>  <INSTRUMENT TYPE>  (3758) 
EI-B

>  <INSTRUMENT>  (3758) 
JEOL JMS-D-300

>  <ION MODE>  (3758) 
P

>  <INCHIKEY>  (3758) 
HIGQPQRQIQDZMP-DHZHZOJOSA-N

>  <FORMULA>  (3758) 
C12H20O2

>  <EXACT MASS>  (3758) 
196.14632988

>  <MW>  (3758) 
196

>  <ID>  (3758) 
JP005793

>  <CONTRIBUTOR>  (3758) 
University of Tokyo Team, {Faculty of Engineering, University of Tokyo

>  <COMMENT>  (3758) 
SMILES=CC(C)=CCCC(C)=C([H])COC(C)=O
InChI=InChI=1S/C12H20O2/c1-10(2)6-5-7-11(3)8-9-14-12(4)13/h6,8H,5,7,9H2,1-4H3/b11-8+
computed SMILES=O=C(OCC=C(C)CCC=C(C)C)C
accession=JP005793
date=2016.01.19 (Created 2008.10.21, modified 2011.05.06)
author=FUJISE Y, HAMAMATSU UNIV. SCHOOL OF MEDICINE
license=CC BY-NC-SA
exact mass=196.14633
ionization energy=70 eV
ion type=[M]+*
computed spectral entropy=2.985440424192151
computed normalized entropy=0.8039268851032818
SPLASH=splash10-00kf-9200000000-47ea814eba89b6d74c80
submitter=submitter = University of Tokyo Team (Faculty of Engineering, University of Tokyo)
MoNA Rating=3.75

>  <NUM PEAKS>  (3758) 
41

>  <MASS SPECTRAL PEAKS>  (3758) 
51 4.02
52 1.95
53 10.89
54 0.99
55 7.32
60 18.44
63 1.13
65 5.13
66 1.68
67 19.52
68 37.92
69 64.09
70 3.94
77 21.01
78 4.01
79 23.76
80 22.34
81 8.69
82 1.47
84 1.39
85 2.99
91 23.93
92 20.26
93 99.99
94 14.02
95 3.14
103 1.38
105 8.73
106 2.71
107 9.1
108 2.24
109 1.04
115 0.96
117 1.09
119 3.77
121 30.81
122 2.87
123 1.38
127 0.95
136 28.73
137 3.11

>  <PREDICTED SPECTRUM>  (3758) 
25 1
26 34
27 205
28 62
29 164
30 18
37 22
38 69
39 305
40 168
41 815
42 298
43 970
44 209
45 144
50 84
51 151
52 134
53 351
54 269
55 352
56 151
57 192
59 18
60 13
61 88
62 18
63 32
64 15
65 172
66 182
67 573
68 741
69 999
70 295
71 197
72 52
73 90
76 4
77 218
78 88
79 352
80 393
81 420
82 376
83 180
84 224
85 236
86 79
87 18
89 30
91 179
92 320
93 626
94 362
95 470
96 224
97 136
98 35
99 59
101 36
103 46
105 114
107 423
108 264
109 179
110 143
111 112
112 149
113 13
115 49
119 28
121 570
122 258
123 247
124 61
125 51
126 41
127 103
128 30
129 15
134 95
135 97
136 572
137 234
138 127
139 27
140 17
151 1
152 56
153 55
154 5
155 12
196 85
197 4

$$$$

     RDKit          2D

 11 10  0  0  0  0  0  0  0  0999 V2000
   -6.8200    5.0625    0.0000 C   0  0  0  0  0  0  0  0  0  0  0  0
   -5.5209    2.8125    0.0000 C   0  0  0  0  0  0  0  0  0  0  0  0
   -0.3248    2.8125    0.0000 C   0  0  0  0  0  0  0  0  0  0  0  0
   -2.9228    4.3125    0.0000 C   0  0  0  0  0  0  0  0  0  0  0  0
   -4.2219    5.0625    0.0000 C   0  0  0  0  0  0  0  0  0  0  0  0
   -1.6238    5.0625    0.0000 C   0  0  0  0  0  0  0  0  0  0  0  0
    0.9743    5.0625    0.0000 C   0  0  0  0  0  0  0  0  0  0  0  0
    2.2733    4.3125    0.0000 C   0  0  0  0  0  0  0  0  0  0  0  0
   -5.5209    4.3125    0.0000 C   0  0  0  0  0  0  0  0  0  0  0  0
   -0.3248    4.3125    0.0000 C   0  0  0  0  0  0  0  0  0  0  0  0
    3.5724    5.0625    0.0000 O   0  0  0  0  0  0  0  0  0  0  0  0
  5  4  1  0
  6  4  1  0
  8  7  1  0
  9  1  1  0
  9  2  1  0
  9  5  2  0
 10  3  1  0
 10  6  1  0
  7 10  2  0
 11  8  1  0
M  END
>  <NAME>  (3759) 
(E)-3,7-DIMETHYL-2,6-OCTADIEN-1-OL

>  <SYNONYMS>  (3759) 
GERANIOL

>  <SPECTRUM TYPE>  (3759) 
MS1

>  <INSTRUMENT TYPE>  (3759) 
EI-B

>  <INSTRUMENT>  (3759) 
JEOL JMS-D-300

>  <ION MODE>  (3759) 
P

>  <INCHIKEY>  (3759) 
GLZPCOQZEFWAFX-JXMROGBWSA-N

>  <FORMULA>  (3759) 
C10H18O

>  <EXACT MASS>  (3759) 
154.135765196

>  <MW>  (3759) 
154

>  <ID>  (3759) 
JP005792

>  <CONTRIBUTOR>  (3759) 
University of Tokyo Team, {Faculty of Engineering, University of Tokyo

>  <COMMENT>  (3759) 
SMILES=OCC([H])=C(C)CCC=C(C)C
cas=106-24-1
InChI=InChI=1S/C10H18O/c1-9(2)5-4-6-10(3)7-8-11/h5,7,11H,4,6,8H2,1-3H3/b10-7+
computed SMILES=OCC=C(C)CCC=C(C)C
accession=JP005792
date=2016.01.19 (Created 2008.10.21, modified 2011.05.06)
author=FUJISE Y, HAMAMATSU UNIV. SCHOOL OF MEDICINE
license=CC BY-NC-SA
exact mass=154.13577
ionization energy=70 eV
ion type=[M]+*
computed spectral entropy=3.0348965376592743
computed normalized entropy=0.792682370420564
SPLASH=splash10-00kf-9200000000-4a8a23071f388f446451
submitter=submitter = University of Tokyo Team (Faculty of Engineering, University of Tokyo)
MoNA Rating=3.75

>  <NUM PEAKS>  (3759) 
46

>  <MASS SPECTRAL PEAKS>  (3759) 
51 4.08
52 2.42
53 9.53
54 1.04
55 8.6
57 0.96
59 1.61
63 1.09
65 4.25
66 1.63
67 17.68
68 25.32
69 55.7
70 4.06
71 4.82
77 20.58
78 3.16
79 22.17
80 17.59
81 7.9
82 1.37
83 1.79
84 3.14
91 23.85
92 17.39
93 99.99
94 12.55
95 2.72
96 1.74
97 1
103 1.48
105 8.64
106 2.81
107 8.05
108 1.85
109 1.17
111 2.16
115 0.96
117 1.11
119 3.33
121 25.86
122 3.03
123 2.99
136 22.78
137 2.61
154 0.98

>  <PREDICTED SPECTRUM>  (3759) 
26 18
27 229
28 51
29 258
30 17
31 121
32 12
33 0
37 30
38 58
39 368
40 163
41 871
42 272
43 419
44 127
45 119
50 91
51 166
52 107
53 312
54 187
55 384
56 172
57 203
58 90
59 123
62 18
63 70
64 20
65 153
66 118
67 439
68 295
69 999
70 297
71 247
72 114
73 18
77 212
78 125
79 251
80 206
81 334
82 220
83 234
84 193
85 268
86 92
89 21
91 199
92 143
93 294
94 142
95 247
96 143
97 115
98 117
99 34
105 129
107 187
108 50
109 199
110 141
111 213
112 121
113 28
117 16
119 44
121 241
122 95
123 236
124 17
125 57
136 198
137 60
139 104
140 4
154 34

$$$$

     RDKit          2D

 15 16  0  0  0  0  0  0  0  0999 V2000
    5.4292    3.3495    0.0000 C   0  0  0  0  0  0  0  0  0  0  0  0
    0.5941    2.6492    0.0000 C   0  0  0  0  0  0  0  0  0  0  0  0
   -1.3341    2.6492    0.0000 C   0  0  0  0  0  0  0  0  0  0  0  0
    1.6796   -2.0493    0.0000 C   0  0  0  0  0  0  0  0  0  0  0  0
   -1.6700   -0.7500    0.0000 C   0  0  0  0  0  0  0  0  0  0  0  0
    3.1796    2.0498    0.0000 C   0  0  0  0  0  0  0  0  0  0  0  0
   -1.6700    0.7500    0.0000 C   0  0  0  0  0  0  0  0  0  0  0  0
   -0.3700   -1.5000    0.0000 C   0  0  0  0  0  0  0  0  0  0  0  0
    1.6796    2.0493    0.0000 C   0  0  0  0  0  0  0  0  0  0  0  0
    3.9292    3.3490    0.0000 C   0  0  0  0  0  0  0  0  0  0  0  0
   -0.3700    1.5000    0.0000 C   0  0  0  0  0  0  0  0  0  0  0  0
    0.9300   -0.7500    0.0000 C   0  0  0  0  0  0  0  0  0  0  0  0
    0.9300    0.7500    0.0000 C   0  0  0  0  0  0  0  0  0  0  0  0
    3.1788    4.6478    0.0000 O   0  0  0  0  0  0  0  0  0  0  0  0
    2.2300   -0.0000    0.0000 O   0  0  0  0  0  0  0  0  0  0  0  0
  7  5  1  0
  8  5  1  0
  6  9  2  0
 10  1  1  0
 10  6  1  0
 11  2  1  0
 11  3  1  0
 11  7  1  0
 12  4  1  0
 12  8  1  0
 13  9  1  0
 13 11  1  0
 13 12  1  0
 14 10  2  0
 15 12  1  0
 15 13  1  0
M  END
>  <NAME>  (3760) 
(E)-4-(1,2-EPOXY-2,6,6-TRIMETHYLCYCLOHEXAN-1-YL)-3-BUTEN-2-ONE

>  <SYNONYMS>  (3760) 


>  <SPECTRUM TYPE>  (3760) 
MS1

>  <INSTRUMENT TYPE>  (3760) 
EI-B

>  <INSTRUMENT>  (3760) 
JEOL JMS-D-300

>  <ION MODE>  (3760) 
P

>  <INCHIKEY>  (3760) 
ZTJZJYUGOJYHCU-RMKNXTFCSA-N

>  <FORMULA>  (3760) 
C13H20O2

>  <EXACT MASS>  (3760) 
208.14632988

>  <MW>  (3760) 
208

>  <ID>  (3760) 
JP005791

>  <CONTRIBUTOR>  (3760) 
University of Tokyo Team, {Faculty of Engineering, University of Tokyo

>  <COMMENT>  (3760) 
SMILES=CC(=O)C([H])=C([H])C(O1)(C(C)(C)2)C(C)(CCC2)1
InChI=InChI=1S/C13H20O2/c1-10(14)6-9-13-11(2,3)7-5-8-12(13,4)15-13/h6,9H,5,7-8H2,1-4H3/b9-6+
computed SMILES=O=C(C=CC12OC2(C)CCCC1(C)C)C
accession=JP005791
date=2016.01.19 (Created 2008.10.21, modified 2011.05.06)
author=FUJISE Y, HAMAMATSU UNIV. SCHOOL OF MEDICINE
license=CC BY-NC-SA
exact mass=208.14633
ionization energy=70 eV
ion type=[M]+*
computed spectral entropy=3.069556122424831
computed normalized entropy=0.7625560095754611
SPLASH=splash10-00di-3900000000-642601a39cf4828a95cc
submitter=submitter = University of Tokyo Team (Faculty of Engineering, University of Tokyo)
MoNA Rating=3.75

>  <NUM PEAKS>  (3760) 
56

>  <MASS SPECTRAL PEAKS>  (3760) 
51 1.42
53 2.74
55 6.62
65 1.41
67 2.46
69 9.19
70 1.48
75 1.15
77 3.19
79 4.55
80 1.18
81 4.94
82 1.3
83 1.15
91 4.94
93 3.13
95 6.08
96 11.03
97 3.99
98 7.03
105 4.03
107 6.05
108 1.79
109 5.98
111 3.75
115 1.75
117 1.12
119 2.04
121 1.57
122 2.19
123 99.99
124 9.43
125 2.45
131 2.61
132 1.27
133 2.21
135 8.95
136 1.23
137 0.98
140 1.06
142 1.29
147 4.91
148 1.67
150 0.98
157 2.33
159 0.96
165 6.03
166 1.11
173 2.04
175 9.86
176 1.45
177 2.85
190 4.69
191 1.06
193 1.79
208 1.23

>  <PREDICTED SPECTRUM>  (3760) 
15 13
25 3
26 83
27 215
28 133
29 177
30 19
31 7
38 24
39 215
40 87
41 497
42 215
43 999
44 175
45 103
47 6
50 76
51 137
52 109
53 219
54 91
55 331
56 98
57 90
58 21
59 2
60 22
61 23
62 13
63 92
64 33
65 201
66 92
67 213
68 78
69 231
70 53
71 139
72 46
75 4
76 23
77 288
78 106
79 280
80 119
81 308
82 96
83 124
84 50
85 97
86 9
91 321
92 112
93 241
94 78
95 357
96 138
97 159
98 122
99 51
102 0
103 79
104 15
105 225
106 30
107 284
108 118
109 448
110 134
111 152
112 91
117 61
119 104
120 26
121 163
122 153
123 911
124 359
125 197
126 45
128 12
129 16
130 62
131 43
132 10
133 131
134 20
135 165
136 46
137 113
138 38
139 15
145 6
147 114
148 79
149 171
150 116
151 178
152 57
153 15
158 15
163 56
165 310
166 215
167 37
175 50
176 22
179 3
190 10
193 140
194 19
208 156
209 58

$$$$

     RDKit          2D

 15 15  0  0  0  0  0  0  0  0999 V2000
    3.3762    2.0892    0.0000 C   0  0  0  0  0  0  0  0  0  0  0  0
   -1.8200   -0.9121    0.0000 C   0  0  0  0  0  0  0  0  0  0  0  0
    5.0110   -2.0602    0.0000 C   0  0  0  0  0  0  0  0  0  0  0  0
    6.9391   -2.0602    0.0000 C   0  0  0  0  0  0  0  0  0  0  0  0
    7.2751    1.3390    0.0000 C   0  0  0  0  0  0  0  0  0  0  0  0
    5.9751    2.0890    0.0000 C   0  0  0  0  0  0  0  0  0  0  0  0
    3.3762   -0.9112    0.0000 C   0  0  0  0  0  0  0  0  0  0  0  0
    7.2751   -0.1610    0.0000 C   0  0  0  0  0  0  0  0  0  0  0  0
    2.0770   -0.1615    0.0000 C   0  0  0  0  0  0  0  0  0  0  0  0
    4.6751    1.3390    0.0000 C   0  0  0  0  0  0  0  0  0  0  0  0
   -0.5211   -0.1619    0.0000 C   0  0  0  0  0  0  0  0  0  0  0  0
    4.6751   -0.1610    0.0000 C   0  0  0  0  0  0  0  0  0  0  0  0
    5.9751   -0.9110    0.0000 C   0  0  0  0  0  0  0  0  0  0  0  0
   -0.5213    1.3381    0.0000 O   0  0  0  0  0  0  0  0  0  0  0  0
    0.7781   -0.9117    0.0000 O   0  0  0  0  0  0  0  0  0  0  0  0
  6  5  1  0
  8  5  1  0
  7  9  2  0
 10  1  1  0
 10  6  1  0
 11  2  1  0
 12  7  1  0
 12 10  2  0
 13  3  1  0
 13  4  1  0
 13  8  1  0
 13 12  1  0
 14 11  2  0
 15  9  1  0
 15 11  1  0
M  END
>  <NAME>  (3761) 
(E)-2-(2,6,6-TRIMETHYL-1-CYCLOHEXEN-1-YL)-ETHENE-1-YL ACETATE

>  <SYNONYMS>  (3761) 


>  <SPECTRUM TYPE>  (3761) 
MS1

>  <INSTRUMENT TYPE>  (3761) 
EI-B

>  <INSTRUMENT>  (3761) 
JEOL JMS-D-300

>  <ION MODE>  (3761) 
P

>  <INCHIKEY>  (3761) 
QQLXIJJAHMEDSX-VQHVLOKHSA-N

>  <FORMULA>  (3761) 
C13H20O2

>  <EXACT MASS>  (3761) 
208.14632988

>  <MW>  (3761) 
208

>  <ID>  (3761) 
JP005790

>  <CONTRIBUTOR>  (3761) 
University of Tokyo Team, {Faculty of Engineering, University of Tokyo

>  <COMMENT>  (3761) 
SMILES=CC(=O)OC([H])=C([H])C(=C(C)1)C(C)(C)CCC1
InChI=InChI=1S/C13H20O2/c1-10-6-5-8-13(3,4)12(10)7-9-15-11(2)14/h7,9H,5-6,8H2,1-4H3/b9-7+
computed SMILES=O=C(OC=CC1=C(C)CCCC1(C)C)C
accession=JP005790
date=2016.01.19 (Created 2008.10.21, modified 2011.05.06)
author=FUJISE Y, HAMAMATSU UNIV. SCHOOL OF MEDICINE
license=CC BY-NC-SA
exact mass=208.14633
ionization energy=70 eV
ion type=[M]+*
computed spectral entropy=2.877254287376622
computed normalized entropy=0.7649830370288762
SPLASH=splash10-0gb9-3900000000-7c83e4557650ce6a8ea2
submitter=submitter = University of Tokyo Team (Faculty of Engineering, University of Tokyo)
MoNA Rating=3.75

>  <NUM PEAKS>  (3761) 
43

>  <MASS SPECTRAL PEAKS>  (3761) 
52 1.81
54 4.58
55 7.21
57 3.61
65 2.91
67 5.24
69 5.37
71 2.21
77 4.57
79 5.73
80 1.31
81 14.05
82 1.57
83 3.2
84 2.53
91 8
92 1.77
93 11.08
94 2.26
95 23.49
96 2.74
97 5.61
105 5.27
107 9.34
108 2.8
109 7.45
110 18.2
111 3.82
121 3.14
122 3.09
123 7.62
124 1.07
133 7.43
134 1.18
135 2.34
137 2.35
151 92.68
152 9.63
166 99.99
167 11.22
168 0.98
208 19.28
209 2.27

>  <PREDICTED SPECTRUM>  (3761) 
15 6
26 7
27 82
28 68
29 84
38 26
39 120
40 39
41 225
42 55
43 399
44 49
45 62
49 7
50 29
51 96
52 90
53 170
54 91
55 226
56 44
57 140
58 27
59 50
61 13
63 18
65 137
66 93
67 227
68 76
69 160
70 21
71 86
72 6
73 35
75 56
77 204
78 58
79 237
80 61
81 241
82 124
83 176
84 63
85 38
86 1
91 241
92 84
93 244
94 137
95 326
96 93
97 128
98 20
103 32
105 233
106 70
107 249
108 98
109 266
110 165
111 127
115 1
116 3
117 22
119 109
120 31
121 86
122 114
123 290
124 44
125 4
129 13
131 72
133 178
135 133
136 38
137 204
138 58
139 25
149 63
151 999
152 301
153 85
164 6
165 50
166 942
167 315
168 103
193 37
208 275
209 99

$$$$

     RDKit          2D

 14 14  0  0  0  0  0  0  0  0999 V2000
    2.0789   -2.0602    0.0000 C   0  0  0  0  0  0  0  0  0  0  0  0
    5.9762    0.1908    0.0000 C   0  0  0  0  0  0  0  0  0  0  0  0
    0.4441    2.0892    0.0000 C   0  0  0  0  0  0  0  0  0  0  0  0
   -1.4841    2.0892    0.0000 C   0  0  0  0  0  0  0  0  0  0  0  0
   -1.8200   -1.3100    0.0000 C   0  0  0  0  0  0  0  0  0  0  0  0
   -0.5200   -2.0600    0.0000 C   0  0  0  0  0  0  0  0  0  0  0  0
    3.3781    0.1904    0.0000 C   0  0  0  0  0  0  0  0  0  0  0  0
    2.0789    0.9402    0.0000 C   0  0  0  0  0  0  0  0  0  0  0  0
   -1.8200    0.1900    0.0000 C   0  0  0  0  0  0  0  0  0  0  0  0
    0.7800   -1.3100    0.0000 C   0  0  0  0  0  0  0  0  0  0  0  0
    4.6770    0.9406    0.0000 C   0  0  0  0  0  0  0  0  0  0  0  0
    0.7800    0.1900    0.0000 C   0  0  0  0  0  0  0  0  0  0  0  0
   -0.5200    0.9400    0.0000 C   0  0  0  0  0  0  0  0  0  0  0  0
    4.6768    2.4406    0.0000 O   0  0  0  0  0  0  0  0  0  0  0  0
  6  5  1  0
  7  8  2  0
  9  5  1  0
 10  1  1  0
 10  6  1  0
 11  2  1  0
 11  7  1  0
 12  8  1  0
 12 10  2  0
 13  3  1  0
 13  4  1  0
 13  9  1  0
 13 12  1  0
 14 11  2  0
M  END
>  <NAME>  (3762) 
(E)-4-(2,6,6-TRIMETHYL-1-CYCLOHEXEN-1-YL)-3-BUTEN-2-ONE

>  <SYNONYMS>  (3762) 
BETA-IONONE

>  <SPECTRUM TYPE>  (3762) 
MS1

>  <INSTRUMENT TYPE>  (3762) 
EI-B

>  <INSTRUMENT>  (3762) 
JEOL JMS-D-300

>  <ION MODE>  (3762) 
P

>  <INCHIKEY>  (3762) 
PSQYTAPXSHCGMF-BQYQJAHWSA-N

>  <FORMULA>  (3762) 
C13H20O

>  <EXACT MASS>  (3762) 
192.15141526

>  <MW>  (3762) 
192

>  <ID>  (3762) 
JP005789

>  <CONTRIBUTOR>  (3762) 
University of Tokyo Team, {Faculty of Engineering, University of Tokyo

>  <COMMENT>  (3762) 
SMILES=CC(=O)C([H])=C([H])C(=C(C)1)C(C)(C)CCC1
cas=79-77-6
InChI=InChI=1S/C13H20O/c1-10-6-5-9-13(3,4)12(10)8-7-11(2)14/h7-8H,5-6,9H2,1-4H3/b8-7+
computed SMILES=O=C(C=CC1=C(C)CCCC1(C)C)C
accession=JP005789
date=2016.01.19 (Created 2008.10.21, modified 2011.05.06)
author=FUJISE Y, HAMAMATSU UNIV. SCHOOL OF MEDICINE
license=CC BY-NC-SA
exact mass=192.15142
ionization energy=70 eV
ion type=[M]+*
computed spectral entropy=3.0100815156118346
computed normalized entropy=0.7862009532603684
SPLASH=splash10-004i-3900000000-b2fd6907056260485dd2
submitter=submitter = University of Tokyo Team (Faculty of Engineering, University of Tokyo)
MoNA Rating=3.75

>  <NUM PEAKS>  (3762) 
46

>  <MASS SPECTRAL PEAKS>  (3762) 
52 2.37
53 1.05
54 3.63
55 1.74
65 3.93
67 3.49
69 5.56
71 2.96
77 6.47
78 1.57
79 6.6
80 0.97
81 5.18
91 9.85
92 1.65
93 11.17
94 1.88
95 7.88
96 1.35
105 6.43
106 1.15
107 8.18
108 1.47
109 6.35
110 1.96
117 1.63
119 6.23
121 8.32
122 6.9
123 4.31
131 1.64
133 6.04
134 1.6
135 14.09
136 4.41
147 1.14
149 7.11
150 1.11
159 4.44
161 1.51
162 3.28
177 99.99
178 14.22
179 0.98
192 10.1
193 1.59

>  <PREDICTED SPECTRUM>  (3762) 
18 2
26 69
27 242
28 119
29 195
31 5
37 23
38 55
39 321
40 144
41 550
42 126
43 906
44 153
45 57
50 112
51 244
52 132
53 327
54 51
55 424
56 132
57 204
58 71
59 59
60 13
61 3
62 50
63 150
64 102
65 273
66 114
67 353
68 65
69 400
70 88
71 128
72 27
73 29
74 45
75 57
76 33
77 368
78 145
79 420
80 89
81 335
82 118
83 112
84 7
85 38
86 17
87 19
88 18
89 37
91 551
92 187
93 491
94 184
95 442
96 127
97 90
98 50
99 11
102 77
103 120
104 72
105 500
106 198
107 568
108 231
109 278
110 120
111 94
112 47
115 195
116 112
117 203
118 72
119 334
120 154
121 452
122 196
123 197
124 98
125 9
126 1
127 33
128 190
129 128
130 55
131 204
132 44
133 251
134 187
135 379
136 172
137 84
143 45
144 65
145 42
147 108
148 115
149 600
150 198
151 77
159 190
160 47
161 49
162 110
163 97
164 57
165 41
174 12
175 78
176 28
177 999
178 343
179 105
190 53
191 85
192 488
193 150

$$$$

     RDKit          2D

 24 26  0  0  0  0  0  0  0  0999 V2000
   -2.9381    7.2156    0.0000 C   0  0  0  0  0  0  0  0  0  0  0  0
   -4.2334    4.9635    0.0000 C   0  0  0  0  0  0  0  0  0  0  0  0
   -4.2200    0.4700    0.0000 C   0  0  0  0  0  0  0  0  0  0  0  0
   -4.2200   -1.0300    0.0000 C   0  0  0  0  0  0  0  0  0  0  0  0
   -1.6328    3.4678    0.0000 C   0  0  0  0  0  0  0  0  0  0  0  0
   -2.9200    1.2200    0.0000 C   0  0  0  0  0  0  0  0  0  0  0  0
   -2.9200   -1.7800    0.0000 C   0  0  0  0  0  0  0  0  0  0  0  0
    3.5700   -1.0300    0.0000 C   0  0  0  0  0  0  0  0  0  0  0  0
    2.2700   -1.7800    0.0000 C   0  0  0  0  0  0  0  0  0  0  0  0
   -1.6353    4.9678    0.0000 C   0  0  0  0  0  0  0  0  0  0  0  0
   -0.3325    2.7200    0.0000 C   0  0  0  0  0  0  0  0  0  0  0  0
    2.2700    1.2200    0.0000 C   0  0  0  0  0  0  0  0  0  0  0  0
    3.5700    0.4700    0.0000 C   0  0  0  0  0  0  0  0  0  0  0  0
   -1.6200    0.4700    0.0000 C   0  0  0  0  0  0  0  0  0  0  0  0
    0.9700    0.4700    0.0000 C   0  0  0  0  0  0  0  0  0  0  0  0
   -1.6200   -1.0300    0.0000 C   0  0  0  0  0  0  0  0  0  0  0  0
    0.9700   -1.0300    0.0000 C   0  0  0  0  0  0  0  0  0  0  0  0
    4.8689    1.2202    0.0000 C   0  0  0  0  0  0  0  0  0  0  0  0
    5.6191   -0.0787    0.0000 F   0  0  0  0  0  0  0  0  0  0  0  0
    6.1678    1.9704    0.0000 F   0  0  0  0  0  0  0  0  0  0  0  0
    4.1187    2.5191    0.0000 F   0  0  0  0  0  0  0  0  0  0  0  0
   -2.9356    5.7156    0.0000 N   0  0  0  0  0  0  0  0  0  0  0  0
   -0.3300    1.2200    0.0000 N   0  0  0  0  0  0  0  0  0  0  0  0
   -0.3300   -1.7800    0.0000 S   0  0  0  0  0  0  0  0  0  0  0  0
  4  3  2  0
  6  3  1  0
  7  4  1  0
  9  8  1  0
 10  5  1  0
 11  5  1  0
 13  8  2  0
 13 12  1  0
 14  6  2  0
 15 12  2  0
 16  7  2  0
 16 14  1  0
 17  9  2  0
 17 15  1  0
 18 13  1  0
 19 18  1  0
 20 18  1  0
 21 18  1  0
 22  1  1  0
 22  2  1  0
 22 10  1  0
 23 11  1  0
 23 14  1  0
 23 15  1  0
 24 16  1  0
 24 17  1  0
M  END
>  <NAME>  (3763) 
TRIFLUOPROMAZINE

>  <SYNONYMS>  (3763) 
10-(3-DIMETHYLAMINO)PROPYL-2-TRIFLUOROMETHYLPHENOTHIAZINE

>  <SPECTRUM TYPE>  (3763) 
MS1

>  <INSTRUMENT TYPE>  (3763) 
EI-B

>  <INSTRUMENT>  (3763) 
JEOL JMS-D-300

>  <ION MODE>  (3763) 
P

>  <INCHIKEY>  (3763) 
XSCGXQMFQXDFCW-UHFFFAOYSA-N

>  <FORMULA>  (3763) 
C18H19F3N2S

>  <EXACT MASS>  (3763) 
352.122104268

>  <MW>  (3763) 
352

>  <ID>  (3763) 
JP005775

>  <CONTRIBUTOR>  (3763) 
University of Tokyo Team, {Faculty of Engineering, University of Tokyo

>  <COMMENT>  (3763) 
SMILES=CN(C)CCCN(c21)c(c3)c(ccc(C(F)(F)F)3)Sc(cccc2)1
InChI=InChI=1S/C18H19F3N2S/c1-22(2)10-5-11-23-14-6-3-4-7-16(14)24-17-9-8-13(12-15(17)23)18(19,20)21/h3-4,6-9,12H,5,10-11H2,1-2H3
computed SMILES=FC(F)(F)C1=CC=C2SC=3C=CC=CC3N(C2=C1)CCCN(C)C
accession=JP005775
date=2016.01.19 (Created 2008.10.21, modified 2011.05.06)
author=HAMAMATSU UNIV. SCHOOL OF MEDICINE
license=CC BY-NC-SA
exact mass=352.1221
ionization energy=70 eV
ion type=[M]+*
computed spectral entropy=2.347489358339606
computed normalized entropy=0.7122589660165912
SPLASH=splash10-0a4i-9013000000-ef47630a3d0764a3497f
submitter=submitter = University of Tokyo Team (Faculty of Engineering, University of Tokyo)
MoNA Rating=3.75

>  <NUM PEAKS>  (3763) 
27

>  <MASS SPECTRAL PEAKS>  (3763) 
57 1.83
58 99.99
59 5.44
70 3.81
71 2.28
72 3.94
84 3.43
85 17.36
86 30.17
87 1.68
196 1.32
197 1.18
222 1.16
247 1.14
248 5.61
266 6.79
267 4.63
268 1.07
280 3.87
281 2.65
292 1.22
306 16.12
307 8.01
308 2.07
352 28.62
353 6.46
354 2.05

>  <PREDICTED SPECTRUM>  (3763) 
39 7
41 51
42 197
43 45
44 122
45 30
49 52
50 27
51 82
52 17
53 49
54 2
55 0
56 137
57 4
58 999
59 247
61 28
62 8
63 65
64 23
65 31
67 9
68 4
69 65
70 97
71 2
72 106
75 13
77 42
78 41
79 11
81 6
82 21
84 300
85 248
86 252
87 22
89 14
90 0
95 15
96 6
101 4
102 1
112 17
114 30
125 11
127 39
128 19
152 1
154 1
162 7
170 38
172 18
179 19
180 43
181 49
182 7
196 2
198 5
199 11
206 20
207 0
208 8
210 50
212 40
222 3
223 14
224 38
225 1
238 22
239 29
240 50
248 5
250 59
252 59
253 40
254 53
264 1
265 26
266 189
267 159
268 47
278 1
280 87
281 115
282 55
292 20
294 59
306 42
307 19
352 324
353 171
354 69
355 16

$$$$

     RDKit          2D

 25 28  0  0  0  0  0  0  0  0999 V2000
   -3.8988    5.2526    0.0000 C   0  0  0  0  0  0  0  0  0  0  0  0
    6.4981    0.7504    0.0000 C   0  0  0  0  0  0  0  0  0  0  0  0
   -3.9000    0.7500    0.0000 C   0  0  0  0  0  0  0  0  0  0  0  0
   -3.9000   -0.7500    0.0000 C   0  0  0  0  0  0  0  0  0  0  0  0
   -0.0008    7.5010    0.0000 C   0  0  0  0  0  0  0  0  0  0  0  0
   -1.2955    8.2430    0.0000 C   0  0  0  0  0  0  0  0  0  0  0  0
   -0.0001    6.0002    0.0000 C   0  0  0  0  0  0  0  0  0  0  0  0
   -2.6000    1.5000    0.0000 C   0  0  0  0  0  0  0  0  0  0  0  0
   -2.6000   -1.5000    0.0000 C   0  0  0  0  0  0  0  0  0  0  0  0
    3.9000   -0.7500    0.0000 C   0  0  0  0  0  0  0  0  0  0  0  0
    2.6000   -1.5000    0.0000 C   0  0  0  0  0  0  0  0  0  0  0  0
   -1.2990    3.7500    0.0000 C   0  0  0  0  0  0  0  0  0  0  0  0
   -2.5944    7.4928    0.0000 C   0  0  0  0  0  0  0  0  0  0  0  0
    0.0000    3.0000    0.0000 C   0  0  0  0  0  0  0  0  0  0  0  0
    2.6000    1.5000    0.0000 C   0  0  0  0  0  0  0  0  0  0  0  0
   -1.2990    5.2500    0.0000 C   0  0  0  0  0  0  0  0  0  0  0  0
    3.9000    0.7500    0.0000 C   0  0  0  0  0  0  0  0  0  0  0  0
   -1.3000    0.7500    0.0000 C   0  0  0  0  0  0  0  0  0  0  0  0
    1.3000    0.7500    0.0000 C   0  0  0  0  0  0  0  0  0  0  0  0
   -1.3000   -0.7500    0.0000 C   0  0  0  0  0  0  0  0  0  0  0  0
    1.3000   -0.7500    0.0000 C   0  0  0  0  0  0  0  0  0  0  0  0
   -2.5987    6.0006    0.0000 N   0  0  0  0  0  0  0  0  0  0  0  0
   -0.0000    1.5000    0.0000 N   0  0  0  0  0  0  0  0  0  0  0  0
    5.1989    1.5002    0.0000 S   0  0  0  0  0  0  0  0  0  0  0  0
   -0.0000   -1.5000    0.0000 S   0  0  0  0  0  0  0  0  0  0  0  0
  4  3  2  0
  6  5  1  0
  7  5  1  0
  8  3  1  0
  9  4  1  0
 11 10  1  0
 13  6  1  0
 14 12  1  0
 16  7  1  0
 16 12  1  0
 17 10  2  0
 17 15  1  0
 18  8  2  0
 19 15  2  0
 20  9  2  0
 20 18  1  0
 21 11  2  0
 21 19  1  0
 22  1  1  0
 22 13  1  0
 22 16  1  0
 23 14  1  0
 23 18  1  0
 23 19  1  0
 24  2  1  0
 24 17  1  0
 25 20  1  0
 25 21  1  0
M  END
>  <NAME>  (3764) 
THIORIDAZINE

>  <SYNONYMS>  (3764) 
10-(2-(1-METHYL-2-PIPERIZYL)ETHYL)-2-(METHYLTHIO)-10H-PHENOTHIAZINE

>  <SPECTRUM TYPE>  (3764) 
MS1

>  <INSTRUMENT TYPE>  (3764) 
EI-B

>  <INSTRUMENT>  (3764) 
JEOL JMS-D-300

>  <ION MODE>  (3764) 
P

>  <INCHIKEY>  (3764) 
KLBQZWRITKRQQV-UHFFFAOYSA-N

>  <FORMULA>  (3764) 
C21H26N2S2

>  <EXACT MASS>  (3764) 
370.153740832

>  <MW>  (3764) 
370

>  <ID>  (3764) 
JP005774

>  <CONTRIBUTOR>  (3764) 
University of Tokyo Team, {Faculty of Engineering, University of Tokyo

>  <COMMENT>  (3764) 
SMILES=CSc(c4)cc(c(c4)1)N(CCC(C3)N(C)CCC3)c(c2)c(ccc2)S1
cas=50-52-2
InChI=InChI=1S/C21H26N2S2/c1-22-13-6-5-7-16(22)12-14-23-18-8-3-4-9-20(18)25-21-11-10-17(24-2)15-19(21)23/h3-4,8-11,15-16H,5-7,12-14H2,1-2H3
computed SMILES=S1C=2C=CC=CC2N(C3=CC(SC)=CC=C13)CCC4N(C)CCCC4
accession=JP005774
date=2016.01.19 (Created 2008.10.21, modified 2011.05.06)
author=HAMAMATSU UNIV. SCHOOL OF MEDICINE
license=CC BY-NC-SA
exact mass=370.15374
ionization energy=70 eV
ion type=[M]+*
computed spectral entropy=2.0336708872469766
computed normalized entropy=0.6039477936974565
SPLASH=splash10-0002-9112000000-03a53f455eb75bee12b1
submitter=submitter = University of Tokyo Team (Faculty of Engineering, University of Tokyo)
MoNA Rating=3.75

>  <NUM PEAKS>  (3764) 
29

>  <MASS SPECTRAL PEAKS>  (3764) 
56 1.31
68 1.19
70 7.38
84 1.05
96 1.94
97 1.82
98 99.99
99 7.92
111 1.05
112 1.21
124 1.34
125 0.49
126 12.01
127 1.11
185 2.18
186 0.1
198 1.63
210 1
211 2.17
212 1.29
226 2.11
230 1.04
244 2.36
245 4.02
258 3.69
259 2.42
370 19.88
371 5.21
372 2.16

>  <PREDICTED SPECTRUM>  (3764) 
32 11
33 49
34 54
36 39
39 117
40 90
41 368
42 364
43 270
44 415
45 241
46 60
47 96
49 20
50 54
51 105
52 90
53 152
54 110
55 301
56 262
57 218
58 289
59 172
60 46
61 11
62 8
63 140
64 96
65 110
66 69
67 158
68 111
69 201
70 330
71 91
72 111
73 64
74 0
75 43
76 47
77 156
78 111
79 136
80 129
81 146
82 239
83 127
84 223
85 112
86 27
87 8
89 25
90 69
91 98
92 92
93 80
94 96
95 88
96 219
97 116
98 999
99 452
100 36
101 48
103 12
105 6
106 50
107 33
108 154
109 158
110 168
111 157
112 226
113 56
114 69
115 76
116 35
117 48
118 40
119 37
120 24
121 0
122 42
123 0
124 54
125 73
126 48
127 78
128 99
129 105
130 59
132 17
134 55
136 82
137 73
138 0
139 146
140 72
141 33
142 100
143 74
144 58
145 20
146 4
151 117
152 14
153 40
154 14
155 20
156 5
157 50
158 32
159 31
160 17
161 44
163 25
164 30
166 8
167 61
169 27
170 43
171 41
174 2
176 33
177 45
178 53
179 22
181 44
182 11
184 71
185 29
186 54
187 33
188 95
189 79
190 97
191 71
192 7
193 16
194 34
195 45
196 43
197 151
198 117
199 29
200 31
202 3
204 26
209 42
210 70
211 6
212 76
213 196
214 99
215 90
216 66
217 100
219 8
220 53
223 13
224 15
225 3
226 45
227 115
228 69
230 62
231 32
232 50
239 46
240 68
241 42
242 52
243 48
245 4
253 19
254 2
256 71
258 170
259 88
260 38
271 27
272 171
273 117
336 3
337 60
338 66
370 138
371 100
372 59

$$$$

     RDKit          2D

 22 24  0  0  0  0  0  0  0  0999 V2000
   -2.5981    7.3000    0.0000 C   0  0  0  0  0  0  0  0  0  0  0  0
    0.0000    7.3000    0.0000 C   0  0  0  0  0  0  0  0  0  0  0  0
   -2.5981    2.8000    0.0000 C   0  0  0  0  0  0  0  0  0  0  0  0
   -2.5981    5.8000    0.0000 C   0  0  0  0  0  0  0  0  0  0  0  0
    0.0000    5.8000    0.0000 C   0  0  0  0  0  0  0  0  0  0  0  0
    3.9000    0.5500    0.0000 C   0  0  0  0  0  0  0  0  0  0  0  0
   -3.9000    0.5500    0.0000 C   0  0  0  0  0  0  0  0  0  0  0  0
    3.9000   -0.9500    0.0000 C   0  0  0  0  0  0  0  0  0  0  0  0
   -3.9000   -0.9500    0.0000 C   0  0  0  0  0  0  0  0  0  0  0  0
    2.6000    1.3000    0.0000 C   0  0  0  0  0  0  0  0  0  0  0  0
   -2.6000    1.3000    0.0000 C   0  0  0  0  0  0  0  0  0  0  0  0
    2.6000   -1.7000    0.0000 C   0  0  0  0  0  0  0  0  0  0  0  0
   -2.6000   -1.7000    0.0000 C   0  0  0  0  0  0  0  0  0  0  0  0
    0.0000    2.8000    0.0000 C   0  0  0  0  0  0  0  0  0  0  0  0
   -1.2990    3.5500    0.0000 C   0  0  0  0  0  0  0  0  0  0  0  0
    1.3000    0.5500    0.0000 C   0  0  0  0  0  0  0  0  0  0  0  0
   -1.3000    0.5500    0.0000 C   0  0  0  0  0  0  0  0  0  0  0  0
    1.3000   -0.9500    0.0000 C   0  0  0  0  0  0  0  0  0  0  0  0
   -1.3000   -0.9500    0.0000 C   0  0  0  0  0  0  0  0  0  0  0  0
   -1.2990    5.0500    0.0000 N   0  0  0  0  0  0  0  0  0  0  0  0
   -0.0000    1.3000    0.0000 N   0  0  0  0  0  0  0  0  0  0  0  0
   -0.0000   -1.7000    0.0000 S   0  0  0  0  0  0  0  0  0  0  0  0
  4  1  1  0
  5  2  1  0
  8  6  2  0
  9  7  2  0
 10  6  1  0
 11  7  1  0
 12  8  1  0
 13  9  1  0
 15  3  1  0
 15 14  1  0
 16 10  2  0
 17 11  2  0
 18 12  2  0
 18 16  1  0
 19 13  2  0
 19 17  1  0
 20  4  1  0
 20  5  1  0
 20 15  1  0
 21 14  1  0
 21 16  1  0
 21 17  1  0
 22 18  1  0
 22 19  1  0
M  END
>  <NAME>  (3765) 
ETHOPROPAZINE

>  <SYNONYMS>  (3765) 
10-(2-DIETHYLAMINOPROPYL)PHENOTHIAZINE

>  <SPECTRUM TYPE>  (3765) 
MS1

>  <INSTRUMENT TYPE>  (3765) 
EI-B

>  <INSTRUMENT>  (3765) 
JEOL JMS-D-300

>  <ION MODE>  (3765) 
P

>  <INCHIKEY>  (3765) 
CDOZDBSBBXSXLB-UHFFFAOYSA-N

>  <FORMULA>  (3765) 
C19H24N2S

>  <EXACT MASS>  (3765) 
312.16601976799996

>  <MW>  (3765) 
312

>  <ID>  (3765) 
JP005773

>  <CONTRIBUTOR>  (3765) 
University of Tokyo Team, {Faculty of Engineering, University of Tokyo

>  <COMMENT>  (3765) 
SMILES=CCN(CC)C(C)CN(c21)c(c3)c(ccc3)Sc(cccc2)1
cas=522-00-9
InChI=InChI=1S/C19H24N2S/c1-4-20(5-2)15(3)14-21-16-10-6-8-12-18(16)22-19-13-9-7-11-17(19)21/h6-13,15H,4-5,14H2,1-3H3
computed SMILES=S1C=2C=CC=CC2N(C=3C=CC=CC13)CC(N(CC)CC)C
accession=JP005773
date=2016.01.19 (Created 2008.10.21, modified 2011.05.06)
author=HAMAMATSU UNIV. SCHOOL OF MEDICINE
license=CC BY-NC-SA
exact mass=312.16602
ionization energy=70 eV
ion type=[M]+*
computed spectral entropy=1.9676923014502652
computed normalized entropy=0.6191500857097926
SPLASH=splash10-0udi-1900000000-31728da531ce58ffd47f
submitter=submitter = University of Tokyo Team (Faculty of Engineering, University of Tokyo)
MoNA Rating=3.75

>  <NUM PEAKS>  (3765) 
24

>  <MASS SPECTRAL PEAKS>  (3765) 
56 5.13
70 2.82
71 1.22
72 5.76
77 1.14
84 3.71
98 1.31
99 3.74
100 99.99
101 7.16
127 1.07
139 1.19
154 2.57
166 2.87
167 4.76
171 1.01
180 3.17
197 1.12
198 8.42
199 12.51
200 2.47
212 1.5
213 4.38
312 1.56

>  <PREDICTED SPECTRUM>  (3765) 
41 24
44 23
55 73
58 63
63 9
70 47
72 89
77 32
86 73
89 27
96 11
100 471
101 118
102 78
109 23
114 208
116 89
126 197
127 33
128 78
129 24
139 101
140 263
141 118
153 53
154 110
155 42
156 150
166 226
167 550
168 588
169 185
170 163
182 2
184 45
194 47
195 36
196 186
197 426
198 410
199 40
208 159
210 120
211 200
212 999
213 149
238 81
239 226
240 364
241 304
242 40
297 54
311 31
312 522
313 166

$$$$

     RDKit          2D

 20 22  0  0  0  0  0  0  0  0999 V2000
   -2.5981    2.8000    0.0000 C   0  0  0  0  0  0  0  0  0  0  0  0
   -2.5981    5.8000    0.0000 C   0  0  0  0  0  0  0  0  0  0  0  0
    0.0000    5.8000    0.0000 C   0  0  0  0  0  0  0  0  0  0  0  0
    3.9000    0.5500    0.0000 C   0  0  0  0  0  0  0  0  0  0  0  0
   -3.9000    0.5500    0.0000 C   0  0  0  0  0  0  0  0  0  0  0  0
    3.9000   -0.9500    0.0000 C   0  0  0  0  0  0  0  0  0  0  0  0
   -3.9000   -0.9500    0.0000 C   0  0  0  0  0  0  0  0  0  0  0  0
    2.6000    1.3000    0.0000 C   0  0  0  0  0  0  0  0  0  0  0  0
   -2.6000    1.3000    0.0000 C   0  0  0  0  0  0  0  0  0  0  0  0
    2.6000   -1.7000    0.0000 C   0  0  0  0  0  0  0  0  0  0  0  0
   -2.6000   -1.7000    0.0000 C   0  0  0  0  0  0  0  0  0  0  0  0
    0.0000    2.8000    0.0000 C   0  0  0  0  0  0  0  0  0  0  0  0
   -1.2990    3.5500    0.0000 C   0  0  0  0  0  0  0  0  0  0  0  0
    1.3000    0.5500    0.0000 C   0  0  0  0  0  0  0  0  0  0  0  0
   -1.3000    0.5500    0.0000 C   0  0  0  0  0  0  0  0  0  0  0  0
    1.3000   -0.9500    0.0000 C   0  0  0  0  0  0  0  0  0  0  0  0
   -1.3000   -0.9500    0.0000 C   0  0  0  0  0  0  0  0  0  0  0  0
   -1.2990    5.0500    0.0000 N   0  0  0  0  0  0  0  0  0  0  0  0
   -0.0000    1.3000    0.0000 N   0  0  0  0  0  0  0  0  0  0  0  0
   -0.0000   -1.7000    0.0000 S   0  0  0  0  0  0  0  0  0  0  0  0
  6  4  2  0
  7  5  2  0
  8  4  1  0
  9  5  1  0
 10  6  1  0
 11  7  1  0
 13  1  1  0
 13 12  1  0
 14  8  2  0
 15  9  2  0
 16 10  2  0
 16 14  1  0
 17 11  2  0
 17 15  1  0
 18  2  1  0
 18  3  1  0
 18 13  1  0
 19 12  1  0
 19 14  1  0
 19 15  1  0
 20 16  1  0
 20 17  1  0
M  END
>  <NAME>  (3766) 
PROMETHAZINE

>  <SYNONYMS>  (3766) 
10-(2-DIMETHYLAMINOPROPYL)PHENOTHIAZINE

>  <SPECTRUM TYPE>  (3766) 
MS1

>  <INSTRUMENT TYPE>  (3766) 
EI-B

>  <INSTRUMENT>  (3766) 
JEOL JMS-D-300

>  <ION MODE>  (3766) 
P

>  <INCHIKEY>  (3766) 
PWWVAXIEGOYWEE-UHFFFAOYSA-N

>  <FORMULA>  (3766) 
C17H20N2S

>  <EXACT MASS>  (3766) 
284.13471963999996

>  <MW>  (3766) 
284

>  <ID>  (3766) 
JP005772

>  <CONTRIBUTOR>  (3766) 
University of Tokyo Team, {Faculty of Engineering, University of Tokyo

>  <COMMENT>  (3766) 
SMILES=CN(C)C(C)CN(c21)c(c3)c(ccc3)Sc(cccc2)1
cas=60-87-7
InChI=InChI=1S/C17H20N2S/c1-13(18(2)3)12-19-14-8-4-6-10-16(14)20-17-11-7-5-9-15(17)19/h4-11,13H,12H2,1-3H3
computed SMILES=S1C=2C=CC=CC2N(C=3C=CC=CC13)CC(N(C)C)C
accession=JP005772
date=2016.01.19 (Created 2008.10.21, modified 2011.05.06)
author=HAMAMATSU UNIV. SCHOOL OF MEDICINE
license=CC BY-NC-SA
exact mass=284.13472
ionization energy=70 eV
ion type=[M]+*
computed spectral entropy=1.4053812453559718
computed normalized entropy=0.49603791691307464
SPLASH=splash10-00di-9100000000-9bef9a6b83d662fc7e2c
submitter=submitter = University of Tokyo Team (Faculty of Engineering, University of Tokyo)
MoNA Rating=3.75

>  <NUM PEAKS>  (3766) 
17

>  <MASS SPECTRAL PEAKS>  (3766) 
56 2.34
70 2.01
71 2.41
72 99.99
73 4.77
152 1.19
154 1.47
166 1.55
167 2.81
179 1.01
180 3.08
198 5.47
199 5.48
200 1.03
212 1.24
213 4.02
284 3.39

>  <PREDICTED SPECTRUM>  (3766) 
39 20
41 24
42 67
44 173
45 154
51 132
53 2
56 135
57 55
58 75
63 45
65 125
69 274
70 191
71 9
72 581
74 7
75 71
76 18
77 97
78 38
82 97
86 89
89 16
92 9
98 65
100 316
101 117
102 157
113 47
114 50
126 85
127 54
128 9
136 0
139 216
140 351
154 72
155 12
166 474
167 648
168 179
169 455
170 248
171 263
179 8
180 510
181 4
182 1
183 49
184 498
185 234
197 154
198 999
199 613
200 216
209 15
210 28
211 78
212 512
213 428
214 142
224 25
225 30
284 480
285 195
286 46

$$$$

     RDKit          2D

 28 31  0  0  0  0  0  0  0  0999 V2000
   -6.8372    7.9612    0.0000 C   0  0  0  0  0  0  0  0  0  0  0  0
   -4.2200    0.4700    0.0000 C   0  0  0  0  0  0  0  0  0  0  0  0
   -4.2200   -1.0300    0.0000 C   0  0  0  0  0  0  0  0  0  0  0  0
   -1.6328    3.4678    0.0000 C   0  0  0  0  0  0  0  0  0  0  0  0
   -2.9200    1.2200    0.0000 C   0  0  0  0  0  0  0  0  0  0  0  0
   -2.9200   -1.7800    0.0000 C   0  0  0  0  0  0  0  0  0  0  0  0
    3.5700   -1.0300    0.0000 C   0  0  0  0  0  0  0  0  0  0  0  0
    2.2700   -1.7800    0.0000 C   0  0  0  0  0  0  0  0  0  0  0  0
   -1.6353    4.9678    0.0000 C   0  0  0  0  0  0  0  0  0  0  0  0
   -0.3325    2.7200    0.0000 C   0  0  0  0  0  0  0  0  0  0  0  0
   -4.2390    7.9653    0.0000 C   0  0  0  0  0  0  0  0  0  0  0  0
   -5.5342    5.7125    0.0000 C   0  0  0  0  0  0  0  0  0  0  0  0
   -2.9384    7.2165    0.0000 C   0  0  0  0  0  0  0  0  0  0  0  0
   -4.2335    4.9637    0.0000 C   0  0  0  0  0  0  0  0  0  0  0  0
    2.2700    1.2200    0.0000 C   0  0  0  0  0  0  0  0  0  0  0  0
    3.5700    0.4700    0.0000 C   0  0  0  0  0  0  0  0  0  0  0  0
   -1.6200    0.4700    0.0000 C   0  0  0  0  0  0  0  0  0  0  0  0
    0.9700    0.4700    0.0000 C   0  0  0  0  0  0  0  0  0  0  0  0
   -1.6200   -1.0300    0.0000 C   0  0  0  0  0  0  0  0  0  0  0  0
    0.9700   -1.0300    0.0000 C   0  0  0  0  0  0  0  0  0  0  0  0
    4.8689    1.2202    0.0000 C   0  0  0  0  0  0  0  0  0  0  0  0
    5.6191   -0.0787    0.0000 F   0  0  0  0  0  0  0  0  0  0  0  0
    6.1678    1.9704    0.0000 F   0  0  0  0  0  0  0  0  0  0  0  0
    4.1187    2.5191    0.0000 F   0  0  0  0  0  0  0  0  0  0  0  0
   -5.5369    7.2134    0.0000 N   0  0  0  0  0  0  0  0  0  0  0  0
   -2.9356    5.7156    0.0000 N   0  0  0  0  0  0  0  0  0  0  0  0
   -0.3300    1.2200    0.0000 N   0  0  0  0  0  0  0  0  0  0  0  0
   -0.3300   -1.7800    0.0000 S   0  0  0  0  0  0  0  0  0  0  0  0
  3  2  2  0
  5  2  1  0
  6  3  1  0
  8  7  1  0
  9  4  1  0
 10  4  1  0
 13 11  1  0
 14 12  1  0
 16  7  2  0
 16 15  1  0
 17  5  2  0
 18 15  2  0
 19  6  2  0
 19 17  1  0
 20  8  2  0
 20 18  1  0
 21 16  1  0
 22 21  1  0
 23 21  1  0
 24 21  1  0
 25  1  1  0
 25 11  1  0
 25 12  1  0
 26  9  1  0
 26 13  1  0
 26 14  1  0
 27 10  1  0
 27 17  1  0
 27 18  1  0
 28 19  1  0
 28 20  1  0
M  END
>  <NAME>  (3767) 
TRIFLUOPERAZINE

>  <SYNONYMS>  (3767) 
10-(3-(4-METHYLPIPERAZIN-1-YL)PROPYL)-2-(TRIFLUOROMETHYL)-10H-PHENOTHIAZINE

>  <SPECTRUM TYPE>  (3767) 
MS1

>  <INSTRUMENT TYPE>  (3767) 
EI-B

>  <INSTRUMENT>  (3767) 
JEOL JMS-D-300

>  <ION MODE>  (3767) 
P

>  <INCHIKEY>  (3767) 
ZEWQUBUPAILYHI-UHFFFAOYSA-N

>  <FORMULA>  (3767) 
C21H24F3N3S

>  <EXACT MASS>  (3767) 
407.16430342800004

>  <MW>  (3767) 
407

>  <ID>  (3767) 
JP005771

>  <CONTRIBUTOR>  (3767) 
University of Tokyo Team, {Faculty of Engineering, University of Tokyo

>  <COMMENT>  (3767) 
SMILES=CN(C4)CCN(C4)CCCN(c21)c(c3)c(ccc(C(F)(F)F)3)Sc(cccc2)1
cas=117-89-5
InChI=InChI=1S/C21H24F3N3S/c1-25-11-13-26(14-12-25)9-4-10-27-17-5-2-3-6-19(17)28-20-8-7-16(15-18(20)27)21(22,23)24/h2-3,5-8,15H,4,9-14H2,1H3
computed SMILES=FC(F)(F)C1=CC=C2SC=3C=CC=CC3N(C2=C1)CCCN4CCN(C)CC4
accession=JP005771
date=2016.01.19 (Created 2008.10.21, modified 2011.05.06)
author=HAMAMATSU UNIV. SCHOOL OF MEDICINE
license=CC BY-NC-SA
exact mass=407.1643
ionization energy=70 eV
ion type=[M]+*
computed spectral entropy=2.8096843668277027
computed normalized entropy=0.803568794700185
SPLASH=splash10-08mi-8921200000-2aff2d698385cab14cdb
submitter=submitter = University of Tokyo Team (Faculty of Engineering, University of Tokyo)
MoNA Rating=3.75

>  <NUM PEAKS>  (3767) 
33

>  <MASS SPECTRAL PEAKS>  (3767) 
55 9.92
56 9.36
57 6.5
58 13.61
69 1.49
70 76.04
71 21.01
72 3.35
82 1.13
83 3.44
84 6.48
85 7.12
97 3.48
98 0.46
99 5.26
111 5.36
113 99.99
114 9.92
127 22.03
141 34.44
247 1.3
248 11.06
266 13.61
267 12.12
280 9.3
281 3.52
293 1.67
294 2.65
306 11.93
307 7.52
350 1.28
407 45.45
408 8.73

>  <PREDICTED SPECTRUM>  (3767) 
26 3
28 18
38 1
40 22
41 213
42 617
43 583
44 399
45 37
49 22
50 72
51 109
52 22
53 48
54 158
55 277
56 548
57 330
58 276
59 62
60 32
63 16
65 36
66 15
67 29
68 137
69 96
70 970
71 285
72 174
73 26
74 19
75 67
76 37
77 70
78 68
81 66
82 215
83 116
84 377
85 295
86 31
87 47
94 32
95 2
96 102
97 329
98 600
99 254
100 129
101 96
102 44
106 39
107 21
108 59
109 95
110 115
111 251
112 140
113 999
114 323
115 12
117 24
118 26
119 28
120 29
121 56
123 11
124 226
125 258
126 233
127 535
128 126
129 59
131 11
134 73
135 60
136 145
137 85
138 56
139 393
140 229
141 129
142 52
143 107
144 66
145 78
146 31
147 29
148 82
149 61
150 65
151 96
152 102
153 116
154 93
155 54
156 28
157 94
158 8
159 57
160 71
161 36
163 93
164 120
165 103
166 91
167 67
168 6
169 31
170 1
171 40
172 50
173 88
174 81
175 150
176 174
177 115
178 178
179 97
180 226
181 112
182 9
183 41
185 21
186 3
187 39
188 89
189 22
190 52
191 87
192 97
193 78
194 114
195 21
196 63
197 43
200 75
202 40
205 16
206 42
207 69
208 114
209 119
210 45
211 48
215 42
216 52
217 0
218 87
221 59
222 64
223 92
224 42
225 113
231 7
232 135
233 178
234 197
235 140
236 50
237 15
238 52
239 6
244 1
248 81
249 140
250 297
251 216
252 135
253 123
254 9
262 89
264 295
265 256
266 170
267 203
268 103
275 109
276 213
277 99
278 94
279 130
280 412
281 178
282 142
283 15
289 26
290 108
291 118
292 84
293 126
294 102
295 49
298 14
306 101
307 124
308 74
309 161
310 33
311 12
319 93
320 24
321 122
322 9
333 2
335 1
336 45
337 115
350 48
351 84
353 32
388 12
392 13
393 3
405 28
406 124
407 213
408 0
409 60

$$$$

     RDKit          2D

 25 28  0  0  0  0  0  0  0  0999 V2000
   -6.8372    7.9612    0.0000 C   0  0  0  0  0  0  0  0  0  0  0  0
   -4.2200    0.4700    0.0000 C   0  0  0  0  0  0  0  0  0  0  0  0
   -4.2200   -1.0300    0.0000 C   0  0  0  0  0  0  0  0  0  0  0  0
   -1.6328    3.4678    0.0000 C   0  0  0  0  0  0  0  0  0  0  0  0
   -2.9200    1.2200    0.0000 C   0  0  0  0  0  0  0  0  0  0  0  0
   -2.9200   -1.7800    0.0000 C   0  0  0  0  0  0  0  0  0  0  0  0
    3.5700   -1.0300    0.0000 C   0  0  0  0  0  0  0  0  0  0  0  0
    2.2700   -1.7800    0.0000 C   0  0  0  0  0  0  0  0  0  0  0  0
   -1.6353    4.9678    0.0000 C   0  0  0  0  0  0  0  0  0  0  0  0
   -0.3325    2.7200    0.0000 C   0  0  0  0  0  0  0  0  0  0  0  0
   -4.2390    7.9653    0.0000 C   0  0  0  0  0  0  0  0  0  0  0  0
   -5.5342    5.7125    0.0000 C   0  0  0  0  0  0  0  0  0  0  0  0
   -2.9384    7.2165    0.0000 C   0  0  0  0  0  0  0  0  0  0  0  0
   -4.2335    4.9637    0.0000 C   0  0  0  0  0  0  0  0  0  0  0  0
    2.2700    1.2200    0.0000 C   0  0  0  0  0  0  0  0  0  0  0  0
    3.5700    0.4700    0.0000 C   0  0  0  0  0  0  0  0  0  0  0  0
   -1.6200    0.4700    0.0000 C   0  0  0  0  0  0  0  0  0  0  0  0
    0.9700    0.4700    0.0000 C   0  0  0  0  0  0  0  0  0  0  0  0
   -1.6200   -1.0300    0.0000 C   0  0  0  0  0  0  0  0  0  0  0  0
    0.9700   -1.0300    0.0000 C   0  0  0  0  0  0  0  0  0  0  0  0
    4.8689    1.2202    0.0000 Cl  0  0  0  0  0  0  0  0  0  0  0  0
   -5.5369    7.2134    0.0000 N   0  0  0  0  0  0  0  0  0  0  0  0
   -2.9356    5.7156    0.0000 N   0  0  0  0  0  0  0  0  0  0  0  0
   -0.3300    1.2200    0.0000 N   0  0  0  0  0  0  0  0  0  0  0  0
   -0.3300   -1.7800    0.0000 S   0  0  0  0  0  0  0  0  0  0  0  0
  3  2  2  0
  5  2  1  0
  6  3  1  0
  8  7  1  0
  9  4  1  0
 10  4  1  0
 13 11  1  0
 14 12  1  0
 16  7  2  0
 16 15  1  0
 17  5  2  0
 18 15  2  0
 19  6  2  0
 19 17  1  0
 20  8  2  0
 20 18  1  0
 21 16  1  0
 22  1  1  0
 22 11  1  0
 22 12  1  0
 23  9  1  0
 23 13  1  0
 23 14  1  0
 24 10  1  0
 24 17  1  0
 24 18  1  0
 25 19  1  0
 25 20  1  0
M  END
>  <NAME>  (3768) 
PROCHLORPERAZINE

>  <SYNONYMS>  (3768) 
2-CHLORO-10-(3-(4-METHYL-1-PIPERAZINYL)PROPYL)-10H-PHENOTHIAZINE

>  <SPECTRUM TYPE>  (3768) 
MS1

>  <INSTRUMENT TYPE>  (3768) 
EI-B

>  <INSTRUMENT>  (3768) 
JEOL JMS-D-300

>  <ION MODE>  (3768) 
P

>  <INCHIKEY>  (3768) 
WIKYUJGCLQQFNW-UHFFFAOYSA-N

>  <FORMULA>  (3768) 
C20H24ClN3S

>  <EXACT MASS>  (3768) 
373.137946448

>  <MW>  (3768) 
373

>  <ID>  (3768) 
JP005770

>  <CONTRIBUTOR>  (3768) 
University of Tokyo Team, {Faculty of Engineering, University of Tokyo

>  <COMMENT>  (3768) 
SMILES=CN(C4)CCN(C4)CCCN(c21)c(c3)c(ccc(Cl)3)Sc(cccc2)1
cas=58-38-8
InChI=InChI=1S/C20H24ClN3S/c1-22-11-13-23(14-12-22)9-4-10-24-17-5-2-3-6-19(17)25-20-8-7-16(21)15-18(20)24/h2-3,5-8,15H,4,9-14H2,1H3
computed SMILES=ClC1=CC=C2SC=3C=CC=CC3N(C2=C1)CCCN4CCN(C)CC4
accession=JP005770
date=2016.01.19 (Created 2008.10.21, modified 2011.05.06)
author=HAMAMATSU UNIV. SCHOOL OF MEDICINE
license=CC BY-NC-SA
exact mass=373.13795
ionization energy=70 eV
ion type=[M]+*
computed spectral entropy=2.6639885119407034
computed normalized entropy=0.775771240050416
SPLASH=splash10-0229-7933000000-4e14a9a9728c361941d3
submitter=submitter = University of Tokyo Team (Faculty of Engineering, University of Tokyo)
MoNA Rating=3.75

>  <NUM PEAKS>  (3768) 
31

>  <MASS SPECTRAL PEAKS>  (3768) 
56 7.54
57 4.06
58 14.45
70 85.09
71 18.03
72 1.77
84 5.09
85 5.48
97 1.77
99 3.12
111 3.45
113 99.99
114 6.83
127 15.03
141 47.67
198 6.41
214 6.38
232 11.03
233 15.93
234 3.03
235 3.29
246 3.96
247 2.16
259 2.06
260 1.9
272 6.7
273 4.16
274 1.58
373 44.48
374 7.19
375 13.96

>  <PREDICTED SPECTRUM>  (3768) 
15 2
26 45
27 65
28 45
29 31
30 21
35 26
36 72
37 15
38 39
39 93
40 69
41 151
42 641
43 589
44 385
45 103
49 15
50 59
51 65
52 48
53 52
54 191
55 182
56 580
57 278
58 409
59 45
62 18
63 63
65 80
66 20
67 18
68 130
69 12
70 999
71 291
72 233
73 91
74 48
75 99
76 28
77 60
78 76
79 23
80 43
81 79
82 210
83 301
84 443
85 278
86 119
87 68
89 64
90 83
91 132
92 56
94 56
95 34
96 110
97 344
98 415
99 247
100 174
101 188
102 123
103 78
104 20
105 52
106 39
107 68
108 61
109 105
110 99
111 296
112 135
113 911
114 288
115 71
116 24
117 46
118 30
119 23
120 93
121 79
122 41
123 76
124 75
125 156
126 281
127 525
128 130
129 121
130 48
131 21
132 0
134 31
135 29
136 12
137 57
138 113
139 292
140 126
141 163
142 137
143 136
144 189
145 104
146 104
147 64
148 69
149 92
150 13
151 65
152 71
153 81
154 75
155 48
156 63
157 147
158 50
159 31
160 35
161 113
162 47
163 74
164 91
165 29
166 86
167 33
168 101
169 93
171 44
173 31
174 69
175 94
176 118
177 83
178 11
179 14
180 51
181 92
182 131
183 126
184 104
185 91
186 34
189 46
190 61
191 144
192 100
193 71
194 26
195 67
196 75
197 88
198 126
199 110
200 179
201 39
204 74
205 29
208 36
209 31
210 103
211 126
212 182
213 61
214 101
215 104
216 112
217 200
218 257
219 176
220 50
221 37
225 54
226 3
227 7
228 174
229 84
230 259
231 206
232 244
233 268
234 211
235 48
238 20
239 40
240 44
241 100
242 157
243 226
244 213
245 158
246 346
247 164
248 153
249 124
252 57
254 32
255 75
256 130
257 98
258 74
259 92
260 226
261 135
262 61
263 7
270 85
271 100
272 189
273 201
274 230
275 193
276 133
277 72
278 25
279 23
280 5
281 34
282 75
283 64
285 50
286 5
287 77
288 69
289 78
290 52
291 7
292 69
298 27
299 39
300 3
301 128
303 356
304 83
305 151
306 0
315 64
316 119
317 210
318 80
319 28
329 25
330 62
331 49
343 0
344 5
358 47
359 19
370 9
371 61
372 84
373 640
374 335
375 348
376 159
377 96

$$$$

     RDKit          2D

 24 27  0  0  0  0  0  0  0  0999 V2000
   -6.4959    8.0521    0.0000 C   0  0  0  0  0  0  0  0  0  0  0  0
    3.9000    0.5500    0.0000 C   0  0  0  0  0  0  0  0  0  0  0  0
   -3.9000    0.5500    0.0000 C   0  0  0  0  0  0  0  0  0  0  0  0
    3.9000   -0.9500    0.0000 C   0  0  0  0  0  0  0  0  0  0  0  0
   -3.9000   -0.9500    0.0000 C   0  0  0  0  0  0  0  0  0  0  0  0
   -1.2990    3.5500    0.0000 C   0  0  0  0  0  0  0  0  0  0  0  0
    2.6000    1.3000    0.0000 C   0  0  0  0  0  0  0  0  0  0  0  0
   -2.6000    1.3000    0.0000 C   0  0  0  0  0  0  0  0  0  0  0  0
    2.6000   -1.7000    0.0000 C   0  0  0  0  0  0  0  0  0  0  0  0
   -2.6000   -1.7000    0.0000 C   0  0  0  0  0  0  0  0  0  0  0  0
   -1.2990    5.0500    0.0000 C   0  0  0  0  0  0  0  0  0  0  0  0
    0.0000    2.8000    0.0000 C   0  0  0  0  0  0  0  0  0  0  0  0
   -3.8977    8.0519    0.0000 C   0  0  0  0  0  0  0  0  0  0  0  0
   -5.1966    5.8012    0.0000 C   0  0  0  0  0  0  0  0  0  0  0  0
   -2.5983    7.3008    0.0000 C   0  0  0  0  0  0  0  0  0  0  0  0
   -3.8972    5.0502    0.0000 C   0  0  0  0  0  0  0  0  0  0  0  0
    1.3000    0.5500    0.0000 C   0  0  0  0  0  0  0  0  0  0  0  0
   -1.3000    0.5500    0.0000 C   0  0  0  0  0  0  0  0  0  0  0  0
    1.3000   -0.9500    0.0000 C   0  0  0  0  0  0  0  0  0  0  0  0
   -1.3000   -0.9500    0.0000 C   0  0  0  0  0  0  0  0  0  0  0  0
   -5.1969    7.3021    0.0000 N   0  0  0  0  0  0  0  0  0  0  0  0
   -2.5981    5.8000    0.0000 N   0  0  0  0  0  0  0  0  0  0  0  0
   -0.0000    1.3000    0.0000 N   0  0  0  0  0  0  0  0  0  0  0  0
   -0.0000   -1.7000    0.0000 S   0  0  0  0  0  0  0  0  0  0  0  0
  4  2  2  0
  5  3  2  0
  7  2  1  0
  8  3  1  0
  9  4  1  0
 10  5  1  0
 11  6  1  0
 12  6  1  0
 15 13  1  0
 16 14  1  0
 17  7  2  0
 18  8  2  0
 19  9  2  0
 19 17  1  0
 20 10  2  0
 20 18  1  0
 21  1  1  0
 21 13  1  0
 21 14  1  0
 22 11  1  0
 22 15  1  0
 22 16  1  0
 23 12  1  0
 23 17  1  0
 23 18  1  0
 24 19  1  0
 24 20  1  0
M  END
>  <NAME>  (3769) 
PERAZINE

>  <SYNONYMS>  (3769) 
10-(3-(4-METHYL-1-PIPERAZINYL)PROPYL)-10H-PHENOTHIAZINE

>  <SPECTRUM TYPE>  (3769) 
MS1

>  <INSTRUMENT TYPE>  (3769) 
EI-B

>  <INSTRUMENT>  (3769) 
JEOL JMS-D-300

>  <ION MODE>  (3769) 
P

>  <INCHIKEY>  (3769) 
WEYVCQFUGFRXOM-UHFFFAOYSA-N

>  <FORMULA>  (3769) 
C20H25N3S

>  <EXACT MASS>  (3769) 
339.1769188

>  <MW>  (3769) 
339

>  <ID>  (3769) 
JP005769

>  <CONTRIBUTOR>  (3769) 
University of Tokyo Team, {Faculty of Engineering, University of Tokyo

>  <COMMENT>  (3769) 
SMILES=CN(C4)CCN(C4)CCCN(c21)c(c3)c(ccc3)Sc(cccc2)1
cas=84-97-9
InChI=InChI=1S/C20H25N3S/c1-21-13-15-22(16-14-21)11-6-12-23-17-7-2-4-9-19(17)24-20-10-5-3-8-18(20)23/h2-5,7-10H,6,11-16H2,1H3
computed SMILES=S1C=2C=CC=CC2N(C=3C=CC=CC13)CCCN4CCN(C)CC4
accession=JP005769
date=2016.01.19 (Created 2008.10.21, modified 2011.05.06)
author=HAMAMATSU UNIV. SCHOOL OF MEDICINE
license=CC BY-NC-SA
exact mass=339.17692
ionization energy=70 eV
ion type=[M]+*
computed spectral entropy=3.8004634329140994
computed normalized entropy=0.8116951978828574
SPLASH=splash10-01w4-3932000000-826fc2cac2d9f88605f2
submitter=submitter = University of Tokyo Team (Faculty of Engineering, University of Tokyo)
MoNA Rating=3.75

>  <NUM PEAKS>  (3769) 
108

>  <MASS SPECTRAL PEAKS>  (3769) 
51 2.3
52 3.62
56 8.48
57 1.64
58 15.15
59 1.72
62 1.31
63 2.22
65 2.47
69 2.47
70 89.62
71 13.17
72 4.2
75 2.22
77 3.29
78 1.72
80 1.48
82 1.97
83 3.45
84 5.6
85 6.5
86 1.97
88 1.56
89 1.31
93 2.22
96 3.87
97 4.94
98 3.54
99 7.41
100 4.44
101 2.14
105 1.81
106 1.56
108 2.14
111 8.56
112 4.2
113 87.31
114 9.55
115 2.05
117 1.31
125 2.05
126 2.47
127 15.73
128 3.37
130 1.31
135 2.55
136 1.72
138 1.56
139 6.83
140 4.85
141 54.11
142 5.93
148 1.31
151 1.31
152 4.36
153 3.37
154 11.12
155 3.04
165 1.56
166 10.87
167 21.91
168 3.62
170 1.48
171 4.2
172 1.97
178 1.97
179 5.6
180 23.39
181 4.44
184 2.14
191 1.56
192 1.64
193 1.72
196 2.96
197 5.18
198 38.22
199 67.29
200 9.96
201 3.87
205 1.4
206 1.64
207 1.31
210 3.45
211 1.56
212 18.61
213 14.9
214 3.62
223 5.93
224 16.39
225 17.95
226 13.34
227 3.04
236 4.85
237 2.88
238 31.05
239 20.09
240 4.44
241 2.05
268 1.81
269 1.31
282 4.53
295 4.61
296 1.97
337 2.22
339 99.99
340 25.2
341 7.82
342 2.05

>  <PREDICTED SPECTRUM>  (3769) 
26 27
27 41
28 47
30 44
36 56
37 16
38 78
39 133
40 89
41 262
42 596
43 538
44 416
45 208
46 0
50 34
51 60
52 45
53 62
54 164
55 312
56 608
57 294
58 340
59 100
60 60
62 3
63 33
65 91
66 15
67 28
68 160
69 200
70 999
71 376
72 259
73 125
74 112
75 77
76 17
77 86
78 90
80 62
81 123
82 284
83 264
84 466
85 299
86 170
87 130
88 36
89 100
90 61
91 147
92 84
94 87
95 46
96 191
97 540
98 723
99 468
100 119
101 124
102 67
103 11
104 59
105 69
106 56
107 125
108 150
109 141
110 324
111 258
112 309
113 896
114 258
115 113
116 22
117 121
118 89
119 38
120 141
121 24
122 52
123 151
124 240
125 275
126 530
127 606
128 77
130 39
131 28
132 16
134 60
137 16
138 127
139 341
140 270
141 287
142 135
143 131
144 51
145 6
146 65
147 67
148 104
149 101
150 191
151 138
152 41
153 191
154 114
155 114
156 165
157 205
158 49
160 9
161 48
164 134
165 153
166 227
167 116
168 96
169 52
178 25
179 25
180 106
181 151
182 390
183 313
184 247
185 222
186 64
191 33
194 147
195 74
196 312
197 377
198 271
199 354
200 228
207 90
208 192
209 314
210 302
211 186
212 261
213 251
214 179
215 244
216 47
221 11
222 66
223 20
224 61
225 143
226 198
227 147
228 5
237 15
238 159
239 198
240 265
241 309
242 94
243 71
251 57
252 46
253 85
254 0
265 85
266 24
267 134
268 39
269 475
270 65
271 46
279 53
280 121
281 49
282 57
283 140
296 1
297 28
324 89
325 34
337 156
338 177
339 630
340 475
341 102
342 37

$$$$

     RDKit          2D

 26 29  0  0  0  0  0  0  0  0999 V2000
   -4.2200    0.4700    0.0000 C   0  0  0  0  0  0  0  0  0  0  0  0
   -4.2200   -1.0300    0.0000 C   0  0  0  0  0  0  0  0  0  0  0  0
   -1.6328    3.4678    0.0000 C   0  0  0  0  0  0  0  0  0  0  0  0
   -2.9200    1.2200    0.0000 C   0  0  0  0  0  0  0  0  0  0  0  0
   -2.9200   -1.7800    0.0000 C   0  0  0  0  0  0  0  0  0  0  0  0
    3.5700   -1.0300    0.0000 C   0  0  0  0  0  0  0  0  0  0  0  0
    2.2700   -1.7800    0.0000 C   0  0  0  0  0  0  0  0  0  0  0  0
   -5.5342    5.7105    0.0000 C   0  0  0  0  0  0  0  0  0  0  0  0
   -4.2379    7.9643    0.0000 C   0  0  0  0  0  0  0  0  0  0  0  0
   -1.6353    4.9678    0.0000 C   0  0  0  0  0  0  0  0  0  0  0  0
   -0.3325    2.7200    0.0000 C   0  0  0  0  0  0  0  0  0  0  0  0
   -4.2339    4.9626    0.0000 C   0  0  0  0  0  0  0  0  0  0  0  0
   -2.9376    7.2165    0.0000 C   0  0  0  0  0  0  0  0  0  0  0  0
    2.2700    1.2200    0.0000 C   0  0  0  0  0  0  0  0  0  0  0  0
    4.8689    1.2202    0.0000 C   0  0  0  0  0  0  0  0  0  0  0  0
    3.5700    0.4700    0.0000 C   0  0  0  0  0  0  0  0  0  0  0  0
   -5.5362    7.2113    0.0000 C   0  0  0  0  0  0  0  0  0  0  0  0
   -1.6200    0.4700    0.0000 C   0  0  0  0  0  0  0  0  0  0  0  0
    0.9700    0.4700    0.0000 C   0  0  0  0  0  0  0  0  0  0  0  0
   -1.6200   -1.0300    0.0000 C   0  0  0  0  0  0  0  0  0  0  0  0
    0.9700   -1.0300    0.0000 C   0  0  0  0  0  0  0  0  0  0  0  0
    6.1678    1.9704    0.0000 N   0  0  0  0  0  0  0  0  0  0  0  0
   -2.9356    5.7156    0.0000 N   0  0  0  0  0  0  0  0  0  0  0  0
   -0.3300    1.2200    0.0000 N   0  0  0  0  0  0  0  0  0  0  0  0
   -6.8365    7.9591    0.0000 O   0  0  0  0  0  0  0  0  0  0  0  0
   -0.3300   -1.7800    0.0000 S   0  0  0  0  0  0  0  0  0  0  0  0
  2  1  2  0
  4  1  1  0
  5  2  1  0
  7  6  1  0
 10  3  1  0
 11  3  1  0
 12  8  1  0
 13  9  1  0
 16  6  2  0
 16 14  1  0
 16 15  1  0
 17  8  1  0
 17  9  1  0
 18  4  2  0
 19 14  2  0
 20  5  2  0
 20 18  1  0
 21  7  2  0
 21 19  1  0
 22 15  3  0
 23 10  1  0
 23 12  1  0
 23 13  1  0
 24 11  1  0
 24 18  1  0
 24 19  1  0
 25 17  1  0
 26 20  1  0
 26 21  1  0
M  END
>  <NAME>  (3770) 
PERICYAZINE

>  <SYNONYMS>  (3770) 
10-(3-(4-HYDROXY-1-PIPERIDINYL)PROPYL)PHENOTHIAZINE

>  <SPECTRUM TYPE>  (3770) 
MS1

>  <INSTRUMENT TYPE>  (3770) 
EI-B

>  <INSTRUMENT>  (3770) 
JEOL JMS-D-300

>  <ION MODE>  (3770) 
P

>  <INCHIKEY>  (3770) 
LUALIOATIOESLM-UHFFFAOYSA-N

>  <FORMULA>  (3770) 
C21H23N3OS

>  <EXACT MASS>  (3770) 
365.15618335600004

>  <MW>  (3770) 
365

>  <ID>  (3770) 
JP005768

>  <CONTRIBUTOR>  (3770) 
University of Tokyo Team, {Faculty of Engineering, University of Tokyo

>  <COMMENT>  (3770) 
SMILES=N#Cc(c4)cc(c(c4)1)N(CCCN(C3)CCC(O)C3)c(c2)c(ccc2)S1
InChI=InChI=1S/C21H23N3OS/c22-15-16-6-7-21-19(14-16)24(18-4-1-2-5-20(18)26-21)11-3-10-23-12-8-17(25)9-13-23/h1-2,4-7,14,17,25H,3,8-13H2
computed SMILES=N#CC1=CC=C2SC=3C=CC=CC3N(C2=C1)CCCN4CCC(O)CC4
accession=JP005768
date=2016.01.19 (Created 2008.10.21, modified 2011.05.06)
author=HAMAMATSU UNIV. SCHOOL OF MEDICINE
license=CC BY-NC-SA
exact mass=365.15618
ionization energy=70 eV
ion type=[M]+*
computed spectral entropy=2.9646833167840647
computed normalized entropy=0.7743434314591884
SPLASH=splash10-03di-4931000000-bc6eaf361b17af48a30f
submitter=submitter = University of Tokyo Team (Faculty of Engineering, University of Tokyo)
MoNA Rating=3.75

>  <NUM PEAKS>  (3770) 
46

>  <MASS SPECTRAL PEAKS>  (3770) 
51 2.07
52 1.68
53 1.28
54 3.01
55 2.19
56 6.26
57 4.67
58 26.36
68 1.3
69 3.43
70 5.33
71 1.74
82 3.9
83 1.03
84 1.72
96 8.29
97 1.47
98 2.44
100 2.8
110 1.14
112 4.4
113 1.13
114 99.99
115 7.24
124 1.28
126 1.47
128 6.82
140 1.41
141 2.42
142 23.79
179 3.02
191 2.22
192 8.04
205 8.07
223 11.75
224 2.15
225 2.74
237 4.22
238 1.02
249 6.19
250 6.28
251 1.13
263 8.71
264 6.05
365 19.92
366 4.07

>  <PREDICTED SPECTRUM>  (3770) 
33 53
34 45
36 14
38 54
39 402
40 251
41 898
42 999
43 803
44 841
45 292
46 125
47 28
50 124
51 230
52 131
53 272
54 353
55 664
56 612
57 502
58 431
59 153
60 34
61 66
62 109
63 187
64 62
65 198
66 128
67 407
68 541
69 483
70 811
71 441
72 137
73 243
74 161
75 200
76 95
77 261
78 87
79 116
80 219
81 288
82 670
83 352
84 224
85 275
86 211
87 226
88 99
89 192
90 114
91 202
92 141
93 142
94 410
95 358
96 641
97 305
98 790
99 432
100 304
101 353
102 321
103 151
104 25
105 0
106 62
107 111
108 161
109 151
110 371
111 319
112 505
113 272
114 381
115 303
116 232
117 261
118 82
119 24
121 158
122 238
123 171
124 453
125 248
126 373
127 213
128 340
129 148
130 237
131 135
132 196
133 185
134 165
135 118
136 287
137 234
138 311
139 401
140 288
141 347
142 316
143 334
144 290
145 166
146 26
148 17
149 88
150 162
151 231
152 249
153 151
154 65
155 105
156 22
157 48
158 17
159 127
160 106
163 216
164 272
165 251
166 257
167 200
168 139
169 110
170 89
171 141
172 2
173 128
174 45
176 64
177 79
178 86
179 206
180 265
181 295
182 42
183 147
184 112
185 14
186 71
187 198
190 114
191 316
192 357
193 331
194 213
195 187
196 197
197 267
198 43
199 18
205 117
206 93
207 237
208 180
209 257
210 385
211 239
214 174
217 28
219 192
220 381
221 416
222 234
223 732
224 297
225 345
226 115
231 0
233 21
234 76
235 214
236 223
237 74
238 178
239 32
247 34
248 128
249 382
250 205
251 109
252 65
253 37
255 1
264 55
265 415
266 375
267 428
268 174
269 33
280 138
308 38
337 29
347 73
348 32
364 81
365 550
366 165
367 67

$$$$

     RDKit          2D

 23 25  0  0  0  0  0  0  0  0999 V2000
   -2.5981    3.0000    0.0000 C   0  0  0  0  0  0  0  0  0  0  0  0
   -2.5981    7.5000    0.0000 C   0  0  0  0  0  0  0  0  0  0  0  0
   -3.8971    5.2500    0.0000 C   0  0  0  0  0  0  0  0  0  0  0  0
    6.4981    0.7504    0.0000 C   0  0  0  0  0  0  0  0  0  0  0  0
   -3.9000    0.7500    0.0000 C   0  0  0  0  0  0  0  0  0  0  0  0
   -3.9000   -0.7500    0.0000 C   0  0  0  0  0  0  0  0  0  0  0  0
   -2.6000    1.5000    0.0000 C   0  0  0  0  0  0  0  0  0  0  0  0
   -2.6000   -1.5000    0.0000 C   0  0  0  0  0  0  0  0  0  0  0  0
    3.9000   -0.7500    0.0000 C   0  0  0  0  0  0  0  0  0  0  0  0
    2.6000   -1.5000    0.0000 C   0  0  0  0  0  0  0  0  0  0  0  0
    2.6000    1.5000    0.0000 C   0  0  0  0  0  0  0  0  0  0  0  0
   -1.2990    5.2500    0.0000 C   0  0  0  0  0  0  0  0  0  0  0  0
    0.0000    3.0000    0.0000 C   0  0  0  0  0  0  0  0  0  0  0  0
   -1.2990    3.7500    0.0000 C   0  0  0  0  0  0  0  0  0  0  0  0
    3.9000    0.7500    0.0000 C   0  0  0  0  0  0  0  0  0  0  0  0
   -1.3000    0.7500    0.0000 C   0  0  0  0  0  0  0  0  0  0  0  0
    1.3000    0.7500    0.0000 C   0  0  0  0  0  0  0  0  0  0  0  0
   -1.3000   -0.7500    0.0000 C   0  0  0  0  0  0  0  0  0  0  0  0
    1.3000   -0.7500    0.0000 C   0  0  0  0  0  0  0  0  0  0  0  0
   -2.5981    6.0000    0.0000 N   0  0  0  0  0  0  0  0  0  0  0  0
   -0.0000    1.5000    0.0000 N   0  0  0  0  0  0  0  0  0  0  0  0
    5.1989    1.5002    0.0000 O   0  0  0  0  0  0  0  0  0  0  0  0
   -0.0000   -1.5000    0.0000 S   0  0  0  0  0  0  0  0  0  0  0  0
  6  5  2  0
  7  5  1  0
  8  6  1  0
 10  9  1  0
 14  1  1  0
 14 12  1  0
 14 13  1  0
 15  9  2  0
 15 11  1  0
 16  7  2  0
 17 11  2  0
 18  8  2  0
 18 16  1  0
 19 10  2  0
 19 17  1  0
 20  2  1  0
 20  3  1  0
 20 12  1  0
 21 13  1  0
 21 16  1  0
 21 17  1  0
 22  4  1  0
 22 15  1  0
 23 18  1  0
 23 19  1  0
M  END
>  <NAME>  (3771) 
METHOTRIMEPRAZINE

>  <SYNONYMS>  (3771) 
10-(3-DIMETHYLAMINO-2-METHYLPROPYL)-2-METHOXYPHENOTHIAZINE

>  <SPECTRUM TYPE>  (3771) 
MS1

>  <INSTRUMENT TYPE>  (3771) 
EI-B

>  <INSTRUMENT>  (3771) 
JEOL JMS-D-300

>  <ION MODE>  (3771) 
P

>  <INCHIKEY>  (3771) 
VRQVVMDWGGWHTJ-UHFFFAOYSA-N

>  <FORMULA>  (3771) 
C19H24N2OS

>  <EXACT MASS>  (3771) 
328.160934388

>  <MW>  (3771) 
328

>  <ID>  (3771) 
JP005767

>  <CONTRIBUTOR>  (3771) 
University of Tokyo Team, {Faculty of Engineering, University of Tokyo

>  <COMMENT>  (3771) 
SMILES=CN(C)CC(C)CN(c21)c(c3)c(ccc(OC)3)Sc(cccc2)1
InChI=InChI=1S/C19H24N2OS/c1-14(12-20(2)3)13-21-16-7-5-6-8-18(16)23-19-10-9-15(22-4)11-17(19)21/h5-11,14H,12-13H2,1-4H3
computed SMILES=O(C1=CC=C2SC=3C=CC=CC3N(C2=C1)CC(C)CN(C)C)C
accession=JP005767
date=2016.01.19 (Created 2008.10.21, modified 2011.05.06)
author=HAMAMATSU UNIV. SCHOOL OF MEDICINE
license=CC BY-NC-SA
exact mass=328.16093
ionization energy=70 eV
ion type=[M]+*
computed spectral entropy=2.9738239133183546
computed normalized entropy=0.7490189583208122
SPLASH=splash10-0a6r-9374000000-e8486ccc5e112d40aba2
submitter=submitter = University of Tokyo Team (Faculty of Engineering, University of Tokyo)
MoNA Rating=3.75

>  <NUM PEAKS>  (3771) 
53

>  <MASS SPECTRAL PEAKS>  (3771) 
57 1.93
58 99.99
59 7.42
69 1.34
70 1.49
71 1.7
77 1.14
84 6.22
85 2.01
86 2.76
98 1.05
99 2.73
100 22.2
101 1.88
140 1.42
141 1.35
153 1.05
154 1.08
166 1.4
167 3.94
171 1.1
184 1.55
185 10.87
186 3.64
198 2.43
199 2.7
209 1.36
210 7.39
211 1.88
214 1.35
223 1.04
224 0.11
226 1.5
227 2.47
228 11.98
229 12.78
230 2.61
240 1.28
242 10.28
243 5.49
244 1.39
253 1.08
254 1.95
268 5.97
269 8.81
270 4.64
271 1.11
282 7.85
283 9.1
284 2.16
328 48.73
329 11.97
330 1.1

>  <PREDICTED SPECTRUM>  (3771) 
34 8
38 7
39 65
40 39
41 38
42 132
43 73
44 128
45 58
46 11
50 29
51 69
52 24
53 32
55 25
56 73
57 32
58 999
59 137
60 22
62 13
63 53
64 18
65 46
70 85
71 68
72 49
75 15
77 57
78 27
82 6
84 55
85 14
86 40
88 49
89 28
90 38
91 25
102 8
109 19
112 3
113 2
114 13
116 20
122 5
126 9
128 10
130 15
136 111
139 1
156 26
169 54
170 23
182 14
183 65
184 51
185 27
186 31
197 31
198 169
199 14
211 4
212 39
213 100
214 29
226 56
227 6
228 97
229 37
242 28
268 112
269 84
270 46
283 43
328 204
329 77
330 17

$$$$

     RDKit          2D

 20 22  0  0  0  0  0  0  0  0999 V2000
    2.5981   -3.0000    0.0000 C   0  0  0  0  0  0  0  0  0  0  0  0
    2.5981   -6.0000    0.0000 C   0  0  0  0  0  0  0  0  0  0  0  0
   -0.0000   -6.0000    0.0000 C   0  0  0  0  0  0  0  0  0  0  0  0
    3.9000   -0.7500    0.0000 C   0  0  0  0  0  0  0  0  0  0  0  0
    3.9000    0.7500    0.0000 C   0  0  0  0  0  0  0  0  0  0  0  0
   -3.9000    0.7500    0.0000 C   0  0  0  0  0  0  0  0  0  0  0  0
    2.6000   -1.5000    0.0000 C   0  0  0  0  0  0  0  0  0  0  0  0
    2.6000    1.5000    0.0000 C   0  0  0  0  0  0  0  0  0  0  0  0
   -2.6000    1.5000    0.0000 C   0  0  0  0  0  0  0  0  0  0  0  0
   -3.9000   -0.7500    0.0000 C   0  0  0  0  0  0  0  0  0  0  0  0
   -0.0000   -3.0000    0.0000 C   0  0  0  0  0  0  0  0  0  0  0  0
    1.2990   -3.7500    0.0000 C   0  0  0  0  0  0  0  0  0  0  0  0
    1.3000   -0.7500    0.0000 C   0  0  0  0  0  0  0  0  0  0  0  0
    1.3000    0.7500    0.0000 C   0  0  0  0  0  0  0  0  0  0  0  0
   -1.3000    0.7500    0.0000 C   0  0  0  0  0  0  0  0  0  0  0  0
   -1.3000   -0.7500    0.0000 C   0  0  0  0  0  0  0  0  0  0  0  0
   -2.6000   -1.5000    0.0000 N   0  0  0  0  0  0  0  0  0  0  0  0
    1.2990   -5.2500    0.0000 N   0  0  0  0  0  0  0  0  0  0  0  0
   -0.0000   -1.5000    0.0000 N   0  0  0  0  0  0  0  0  0  0  0  0
   -0.0000    1.5000    0.0000 S   0  0  0  0  0  0  0  0  0  0  0  0
  5  4  2  0
  7  4  1  0
  8  5  1  0
  9  6  2  0
 10  6  1  0
 12  1  1  0
 12 11  1  0
 13  7  2  0
 14  8  2  0
 14 13  1  0
 15  9  1  0
 16 15  2  0
 17 10  2  0
 17 16  1  0
 18  2  1  0
 18  3  1  0
 18 12  1  0
 19 11  1  0
 19 13  1  0
 19 16  1  0
 20 14  1  0
 20 15  1  0
M  END
>  <NAME>  (3772) 
ISOTHIPENDYL

>  <SYNONYMS>  (3772) 
10-(2-DIMETHYLAMINO-2-METHYLETHYL)-10H-PYRIDO(3,2-B)(1,4)BENZOTHIAZINE

>  <SPECTRUM TYPE>  (3772) 
MS1

>  <INSTRUMENT TYPE>  (3772) 
EI-B

>  <INSTRUMENT>  (3772) 
JEOL JMS-D-300

>  <ION MODE>  (3772) 
P

>  <INCHIKEY>  (3772) 
OQJBSDFFQWMKBQ-UHFFFAOYSA-N

>  <FORMULA>  (3772) 
C16H19N3S

>  <EXACT MASS>  (3772) 
285.129968608

>  <MW>  (3772) 
285

>  <ID>  (3772) 
JP005766

>  <CONTRIBUTOR>  (3772) 
University of Tokyo Team, {Faculty of Engineering, University of Tokyo

>  <COMMENT>  (3772) 
SMILES=CN(C)C(C)CN(c21)c(n3)c(ccc3)Sc(cccc2)1
InChI=InChI=1S/C16H19N3S/c1-12(18(2)3)11-19-13-7-4-5-8-14(13)20-15-9-6-10-17-16(15)19/h4-10,12H,11H2,1-3H3
computed SMILES=N=1C=CC=C2SC=3C=CC=CC3N(C12)CC(N(C)C)C
accession=JP005766
date=2016.01.19 (Created 2008.10.21, modified 2011.05.06)
author=HAMAMATSU UNIV. SCHOOL OF MEDICINE
license=CC BY-NC-SA
exact mass=285.12997
ionization energy=70 eV
ion type=[M]+*
computed spectral entropy=1.012403168754499
computed normalized entropy=0.39470688409865834
SPLASH=splash10-00di-9000000000-fcb41271c0640c5ac2b5
submitter=submitter = University of Tokyo Team (Faculty of Engineering, University of Tokyo)
MoNA Rating=3.75

>  <NUM PEAKS>  (3772) 
13

>  <MASS SPECTRAL PEAKS>  (3772) 
56 2.19
57 1.14
70 2.15
71 2.14
72 99.99
73 4.67
86 3.47
168 1.86
181 1.37
199 1.57
200 5.5
214 0.21
285 1.15

>  <PREDICTED SPECTRUM>  (3772) 
39 123
40 18
41 37
42 163
44 171
45 142
50 54
51 112
52 35
53 58
54 58
55 45
56 200
57 12
58 123
59 35
63 76
65 177
66 4
69 220
70 143
71 118
72 999
73 49
75 116
76 24
77 56
78 15
82 130
83 0
89 23
96 7
98 120
99 131
100 122
101 113
102 61
113 111
114 174
115 40
121 5
126 98
127 104
136 5
139 200
140 114
141 155
142 6
153 17
154 123
157 197
166 100
167 273
168 154
169 106
170 300
171 211
180 82
181 338
182 38
183 34
184 164
185 567
186 439
187 0
198 288
200 202
209 104
210 36
211 126
212 323
213 904
214 461
215 132
225 112
285 451
286 171
287 63

$$$$

     RDKit          2D

 30 33  0  0  0  0  0  0  0  0999 V2000
    7.7970    1.5006    0.0000 C   0  0  0  0  0  0  0  0  0  0  0  0
    6.4983   -0.7496    0.0000 C   0  0  0  0  0  0  0  0  0  0  0  0
   -6.4959    8.2521    0.0000 C   0  0  0  0  0  0  0  0  0  0  0  0
   -3.9000    0.7500    0.0000 C   0  0  0  0  0  0  0  0  0  0  0  0
   -3.9000   -0.7500    0.0000 C   0  0  0  0  0  0  0  0  0  0  0  0
   -1.2990    3.7500    0.0000 C   0  0  0  0  0  0  0  0  0  0  0  0
   -2.6000    1.5000    0.0000 C   0  0  0  0  0  0  0  0  0  0  0  0
   -2.6000   -1.5000    0.0000 C   0  0  0  0  0  0  0  0  0  0  0  0
    3.9000   -0.7500    0.0000 C   0  0  0  0  0  0  0  0  0  0  0  0
    2.6000   -1.5000    0.0000 C   0  0  0  0  0  0  0  0  0  0  0  0
   -1.2990    5.2500    0.0000 C   0  0  0  0  0  0  0  0  0  0  0  0
    0.0000    3.0000    0.0000 C   0  0  0  0  0  0  0  0  0  0  0  0
   -3.8977    8.2519    0.0000 C   0  0  0  0  0  0  0  0  0  0  0  0
   -5.1966    6.0012    0.0000 C   0  0  0  0  0  0  0  0  0  0  0  0
   -2.5983    7.5008    0.0000 C   0  0  0  0  0  0  0  0  0  0  0  0
   -3.8972    5.2502    0.0000 C   0  0  0  0  0  0  0  0  0  0  0  0
    2.6000    1.5000    0.0000 C   0  0  0  0  0  0  0  0  0  0  0  0
    3.9000    0.7500    0.0000 C   0  0  0  0  0  0  0  0  0  0  0  0
   -1.3000    0.7500    0.0000 C   0  0  0  0  0  0  0  0  0  0  0  0
    1.3000    0.7500    0.0000 C   0  0  0  0  0  0  0  0  0  0  0  0
   -1.3000   -0.7500    0.0000 C   0  0  0  0  0  0  0  0  0  0  0  0
    1.3000   -0.7500    0.0000 C   0  0  0  0  0  0  0  0  0  0  0  0
    6.4981    0.7504    0.0000 N   0  0  0  0  0  0  0  0  0  0  0  0
   -5.1969    7.5021    0.0000 N   0  0  0  0  0  0  0  0  0  0  0  0
   -2.5981    6.0000    0.0000 N   0  0  0  0  0  0  0  0  0  0  0  0
   -0.0000    1.5000    0.0000 N   0  0  0  0  0  0  0  0  0  0  0  0
    6.1629    2.6494    0.0000 O   0  0  0  0  0  0  0  0  0  0  0  0
    4.2346    2.6491    0.0000 O   0  0  0  0  0  0  0  0  0  0  0  0
   -0.0000   -1.5000    0.0000 S   0  0  0  0  0  0  0  0  0  0  0  0
    5.1989    1.5002    0.0000 S   0  0  0  0  0  0  0  0  0  0  0  0
  5  4  2  0
  7  4  1  0
  8  5  1  0
 10  9  1  0
 11  6  1  0
 12  6  1  0
 15 13  1  0
 16 14  1  0
 18  9  2  0
 18 17  1  0
 19  7  2  0
 20 17  2  0
 21  8  2  0
 21 19  1  0
 22 10  2  0
 22 20  1  0
 23  1  1  0
 23  2  1  0
 24  3  1  0
 24 13  1  0
 24 14  1  0
 25 11  1  0
 25 15  1  0
 25 16  1  0
 26 12  1  0
 26 19  1  0
 26 20  1  0
 29 21  1  0
 29 22  1  0
 30 18  1  0
 30 23  1  0
 30 27  2  0
 30 28  2  0
M  END
>  <NAME>  (3773) 
THIOPROPERAZINE

>  <SYNONYMS>  (3773) 
N,N-DIMETHYL-10-(3-(4-METHYL-1-PIPERAZINYL)PROPYL)-10H-PHENOTHIAZINE-2-SULFONAMIDE

>  <SPECTRUM TYPE>  (3773) 
MS1

>  <INSTRUMENT TYPE>  (3773) 
EI-B

>  <INSTRUMENT>  (3773) 
JEOL JMS-D-300

>  <ION MODE>  (3773) 
P

>  <INCHIKEY>  (3773) 
VZYCZNZBPPHOFY-UHFFFAOYSA-N

>  <FORMULA>  (3773) 
C22H30N4O2S2

>  <EXACT MASS>  (3773) 
446.1810182

>  <MW>  (3773) 
446

>  <ID>  (3773) 
JP005765

>  <CONTRIBUTOR>  (3773) 
University of Tokyo Team, {Faculty of Engineering, University of Tokyo

>  <COMMENT>  (3773) 
SMILES=CN(C4)CCN(C4)CCCN(c21)c(c3)c(ccc3S(=O)(=O)N(C)C)Sc(cccc2)1
cas=316-81-4
InChI=InChI=1S/C22H30N4O2S2/c1-23(2)30(27,28)18-9-10-22-20(17-18)26(19-7-4-5-8-21(19)29-22)12-6-11-25-15-13-24(3)14-16-25/h4-5,7-10,17H,6,11-16H2,1-3H3
computed SMILES=O=S(=O)(C1=CC=C2SC=3C=CC=CC3N(C2=C1)CCCN4CCN(C)CC4)N(C)C
accession=JP005765
date=2016.01.19 (Created 2008.10.21, modified 2011.05.06)
author=HAMAMATSU UNIV. SCHOOL OF MEDICINE
license=CC BY-NC-SA
exact mass=446.18102
ionization energy=70 eV
ion type=[M]+*
computed spectral entropy=3.8690694174747975
computed normalized entropy=0.8279929684007644
SPLASH=splash10-0229-6924100000-fcb76747a5faaee6b722
submitter=submitter = University of Tokyo Team (Faculty of Engineering, University of Tokyo)
MoNA Rating=3.75

>  <NUM PEAKS>  (3773) 
107

>  <MASS SPECTRAL PEAKS>  (3773) 
55 1.1
56 12.48
57 7.42
58 10.75
59 2.13
63 1.41
64 1.5
68 1.65
69 2.86
70 86.62
71 32.98
72 7.08
77 1.08
79 2.57
80 1.9
81 1.61
82 3.42
83 4.23
84 8.63
85 12.57
86 1.75
95 1.41
96 4.12
97 13.78
98 13.36
99 10.57
100 1.62
109 1.04
111 10.11
112 2.5
113 99.99
114 22.08
115 1.82
125 1.84
126 3.29
127 69.79
128 6.73
139 4.52
140 2.94
141 34.21
142 3.26
152 1.16
153 2.31
154 0.3
166 1.44
167 2.73
170 1
171 2.16
172 1.25
178 1.8
179 4.74
180 3.19
184 1.12
185 1.29
191 1
196 6.48
197 11.57
198 25.3
199 9.74
200 2.41
209 1.28
210 7.34
211 10.18
212 26.99
213 4.7
214 4.43
222 2.34
223 6.28
224 6.76
225 3.84
226 1.84
236 1.97
237 2.91
238 9.76
239 3.54
240 1.16
266 1.49
267 2.19
268 2.19
287 2.56
305 2.63
306 21.77
307 4.38
308 2.49
319 10.91
320 35.08
321 7.39
322 3.85
332 10.97
333 7.44
334 2.6
337 1.85
338 15.95
339 4.29
340 1.3
345 7.59
346 6.37
347 1.87
359 1.67
387 1.83
389 4.27
390 1.39
402 2.6
403 1.49
446 33.81
447 10.15
448 4.98

>  <PREDICTED SPECTRUM>  (3773) 
26 1
27 0
39 50
40 27
41 95
42 565
43 467
44 355
45 65
46 0
51 19
54 78
55 220
56 433
57 249
58 382
59 17
65 55
67 11
68 97
69 59
70 774
71 262
72 227
73 34
75 29
77 43
78 11
81 12
82 199
83 38
84 327
85 67
91 51
92 23
93 17
94 32
96 96
97 307
98 641
99 484
100 93
101 53
105 38
107 49
109 64
111 244
112 26
113 999
114 241
115 28
118 23
119 19
121 35
123 26
124 34
125 87
126 40
127 256
128 7
129 36
135 22
137 34
138 18
139 202
140 71
141 144
145 129
146 49
147 102
149 53
150 61
151 45
152 167
153 76
154 2
155 17
156 51
157 98
159 43
160 44
161 64
162 28
163 172
164 101
165 84
166 64
167 90
168 44
170 46
171 22
173 44
174 57
175 170
176 14
177 49
178 90
179 84
180 109
181 67
182 51
183 37
184 47
185 74
186 22
187 106
188 52
189 46
190 77
191 112
192 86
193 78
194 16
195 18
196 56
197 49
198 71
199 86
200 25
201 63
202 63
203 59
205 27
206 71
207 5
211 3
213 15
214 45
215 84
216 9
217 191
218 58
219 201
220 67
225 8
227 65
229 34
230 38
231 96
232 25
233 101
234 44
245 3
247 111
248 71
249 4
255 59
257 50
261 8
271 115
273 19
275 5
289 134
290 54
291 49
292 63
301 67
303 196
304 161
305 178
306 79
307 11
317 42
319 40
330 28
331 1
332 46
346 5
347 9
348 2
374 5
375 60
376 108
384 4
388 46
389 74
390 110
391 10
403 6
431 84
432 24
444 1
445 50
446 654
447 366
448 200
449 49

$$$$

     RDKit          2D

 21 23  0  0  0  0  0  0  0  0999 V2000
   -2.5981    2.8000    0.0000 C   0  0  0  0  0  0  0  0  0  0  0  0
   -2.5981    7.3000    0.0000 C   0  0  0  0  0  0  0  0  0  0  0  0
   -3.8971    5.0500    0.0000 C   0  0  0  0  0  0  0  0  0  0  0  0
    3.9000    0.5500    0.0000 C   0  0  0  0  0  0  0  0  0  0  0  0
   -3.9000    0.5500    0.0000 C   0  0  0  0  0  0  0  0  0  0  0  0
    3.9000   -0.9500    0.0000 C   0  0  0  0  0  0  0  0  0  0  0  0
   -3.9000   -0.9500    0.0000 C   0  0  0  0  0  0  0  0  0  0  0  0
    2.6000    1.3000    0.0000 C   0  0  0  0  0  0  0  0  0  0  0  0
   -2.6000    1.3000    0.0000 C   0  0  0  0  0  0  0  0  0  0  0  0
    2.6000   -1.7000    0.0000 C   0  0  0  0  0  0  0  0  0  0  0  0
   -2.6000   -1.7000    0.0000 C   0  0  0  0  0  0  0  0  0  0  0  0
   -1.2990    5.0500    0.0000 C   0  0  0  0  0  0  0  0  0  0  0  0
    0.0000    2.8000    0.0000 C   0  0  0  0  0  0  0  0  0  0  0  0
   -1.2990    3.5500    0.0000 C   0  0  0  0  0  0  0  0  0  0  0  0
    1.3000    0.5500    0.0000 C   0  0  0  0  0  0  0  0  0  0  0  0
   -1.3000    0.5500    0.0000 C   0  0  0  0  0  0  0  0  0  0  0  0
    1.3000   -0.9500    0.0000 C   0  0  0  0  0  0  0  0  0  0  0  0
   -1.3000   -0.9500    0.0000 C   0  0  0  0  0  0  0  0  0  0  0  0
   -2.5981    5.8000    0.0000 N   0  0  0  0  0  0  0  0  0  0  0  0
   -0.0000    1.3000    0.0000 N   0  0  0  0  0  0  0  0  0  0  0  0
   -0.0000   -1.7000    0.0000 S   0  0  0  0  0  0  0  0  0  0  0  0
  6  4  2  0
  7  5  2  0
  8  4  1  0
  9  5  1  0
 10  6  1  0
 11  7  1  0
 14  1  1  0
 14 12  1  0
 14 13  1  0
 15  8  2  0
 16  9  2  0
 17 10  2  0
 17 15  1  0
 18 11  2  0
 18 16  1  0
 19  2  1  0
 19  3  1  0
 19 12  1  0
 20 13  1  0
 20 15  1  0
 20 16  1  0
 21 17  1  0
 21 18  1  0
M  END
>  <NAME>  (3774) 
TRIMEPRAZINE

>  <SYNONYMS>  (3774) 
10-(3-(DIMETHYLAMINO)-2-METHYLPROPYL)PHENOTHIAZINE

>  <SPECTRUM TYPE>  (3774) 
MS1

>  <INSTRUMENT TYPE>  (3774) 
EI-B

>  <INSTRUMENT>  (3774) 
JEOL JMS-D-300

>  <ION MODE>  (3774) 
P

>  <INCHIKEY>  (3774) 
ZZHLYYDVIOPZBE-UHFFFAOYSA-N

>  <FORMULA>  (3774) 
C18H22N2S

>  <EXACT MASS>  (3774) 
298.150369704

>  <MW>  (3774) 
298

>  <ID>  (3774) 
JP005764

>  <CONTRIBUTOR>  (3774) 
University of Tokyo Team, {Faculty of Engineering, University of Tokyo

>  <COMMENT>  (3774) 
SMILES=CN(C)CC(C)CN(c21)c(c3)c(ccc3)Sc(cccc2)1
cas=84-96-8
InChI=InChI=1S/C18H22N2S/c1-14(12-19(2)3)13-20-15-8-4-6-10-17(15)21-18-11-7-5-9-16(18)20/h4-11,14H,12-13H2,1-3H3
computed SMILES=S1C=2C=CC=CC2N(C=3C=CC=CC13)CC(C)CN(C)C
accession=JP005764
date=2016.01.19 (Created 2008.10.21, modified 2011.05.06)
author=HAMAMATSU UNIV. SCHOOL OF MEDICINE
license=CC BY-NC-SA
exact mass=298.15037
ionization energy=70 eV
ion type=[M]+*
computed spectral entropy=2.191708192225199
computed normalized entropy=0.6443931199177031
SPLASH=splash10-0a4i-9240000000-3d6ddecfeef1ce4ea2a2
submitter=submitter = University of Tokyo Team (Faculty of Engineering, University of Tokyo)
MoNA Rating=3.75

>  <NUM PEAKS>  (3774) 
30

>  <MASS SPECTRAL PEAKS>  (3774) 
57 1.43
58 99.99
59 4.27
71 1.12
84 3.24
86 1.82
99 2.79
100 0.79
152 1.17
154 1.81
166 1.23
167 1.97
179 1.3
180 5.65
197 1.14
198 6.97
199 5.63
200 1.16
212 5.9
213 2.02
223 1.47
224 1.26
238 4.41
239 5.54
240 2.13
252 4.4
253 3.61
298 18.43
299 3.83
300 1.28

>  <PREDICTED SPECTRUM>  (3774) 
27 8
28 3
30 4
34 0
39 33
40 5
41 40
42 105
43 53
44 127
45 53
51 48
53 13
56 37
58 999
59 103
63 8
65 38
69 32
70 127
71 39
72 14
77 12
82 33
84 80
86 91
100 32
109 37
126 51
127 65
136 40
139 77
140 35
152 50
153 52
154 27
156 6
166 65
167 194
180 215
181 36
182 14
183 98
194 3
196 70
197 52
198 542
199 166
212 26
213 68
238 153
239 13
240 37
253 2
298 230
299 87
300 18

$$$$

     RDKit          2D

 20 22  0  0  0  0  0  0  0  0999 V2000
   -2.5981    7.3000    0.0000 C   0  0  0  0  0  0  0  0  0  0  0  0
   -3.8971    5.0500    0.0000 C   0  0  0  0  0  0  0  0  0  0  0  0
    3.9000    0.5500    0.0000 C   0  0  0  0  0  0  0  0  0  0  0  0
   -3.9000    0.5500    0.0000 C   0  0  0  0  0  0  0  0  0  0  0  0
    3.9000   -0.9500    0.0000 C   0  0  0  0  0  0  0  0  0  0  0  0
   -3.9000   -0.9500    0.0000 C   0  0  0  0  0  0  0  0  0  0  0  0
   -1.2990    3.5500    0.0000 C   0  0  0  0  0  0  0  0  0  0  0  0
    2.6000    1.3000    0.0000 C   0  0  0  0  0  0  0  0  0  0  0  0
   -2.6000    1.3000    0.0000 C   0  0  0  0  0  0  0  0  0  0  0  0
    2.6000   -1.7000    0.0000 C   0  0  0  0  0  0  0  0  0  0  0  0
   -2.6000   -1.7000    0.0000 C   0  0  0  0  0  0  0  0  0  0  0  0
   -1.2990    5.0500    0.0000 C   0  0  0  0  0  0  0  0  0  0  0  0
    0.0000    2.8000    0.0000 C   0  0  0  0  0  0  0  0  0  0  0  0
    1.3000    0.5500    0.0000 C   0  0  0  0  0  0  0  0  0  0  0  0
   -1.3000    0.5500    0.0000 C   0  0  0  0  0  0  0  0  0  0  0  0
    1.3000   -0.9500    0.0000 C   0  0  0  0  0  0  0  0  0  0  0  0
   -1.3000   -0.9500    0.0000 C   0  0  0  0  0  0  0  0  0  0  0  0
   -2.5981    5.8000    0.0000 N   0  0  0  0  0  0  0  0  0  0  0  0
   -0.0000    1.3000    0.0000 N   0  0  0  0  0  0  0  0  0  0  0  0
   -0.0000   -1.7000    0.0000 S   0  0  0  0  0  0  0  0  0  0  0  0
  5  3  2  0
  6  4  2  0
  8  3  1  0
  9  4  1  0
 10  5  1  0
 11  6  1  0
 12  7  1  0
 13  7  1  0
 14  8  2  0
 15  9  2  0
 16 10  2  0
 16 14  1  0
 17 11  2  0
 17 15  1  0
 18  1  1  0
 18  2  1  0
 18 12  1  0
 19 13  1  0
 19 14  1  0
 19 15  1  0
 20 16  1  0
 20 17  1  0
M  END
>  <NAME>  (3775) 
PROMAZINE

>  <SYNONYMS>  (3775) 
N,N-DIMETHYL-10H-PHENOTHIAZINE-10-PROPANAMINE

>  <SPECTRUM TYPE>  (3775) 
MS1

>  <INSTRUMENT TYPE>  (3775) 
EI-B

>  <INSTRUMENT>  (3775) 
JEOL JMS-D-300

>  <ION MODE>  (3775) 
P

>  <INCHIKEY>  (3775) 
ZGUGWUXLJSTTMA-UHFFFAOYSA-N

>  <FORMULA>  (3775) 
C17H20N2S

>  <EXACT MASS>  (3775) 
284.13471963999996

>  <MW>  (3775) 
284

>  <ID>  (3775) 
JP005763

>  <CONTRIBUTOR>  (3775) 
University of Tokyo Team, {Faculty of Engineering, University of Tokyo

>  <COMMENT>  (3775) 
SMILES=CN(C)CCCN(c21)c(c3)c(ccc3)Sc(cccc2)1
cas=58-40-2
InChI=InChI=1S/C17H20N2S/c1-18(2)12-7-13-19-14-8-3-5-10-16(14)20-17-11-6-4-9-15(17)19/h3-6,8-11H,7,12-13H2,1-2H3
computed SMILES=S1C=2C=CC=CC2N(C=3C=CC=CC13)CCCN(C)C
accession=JP005763
date=2016.01.19 (Created 2008.10.21, modified 2011.05.06)
author=HAMAMATSU UNIV. SCHOOL OF MEDICINE
license=CC BY-NC-SA
exact mass=284.13472
ionization energy=70 eV
ion type=[M]+*
computed spectral entropy=3.007362184840003
computed normalized entropy=0.7611178654197782
SPLASH=splash10-053i-9470000000-c8ea76fcc1b124b82db0
submitter=submitter = University of Tokyo Team (Faculty of Engineering, University of Tokyo)
MoNA Rating=3.75

>  <NUM PEAKS>  (3775) 
52

>  <MASS SPECTRAL PEAKS>  (3775) 
52 1.28
56 1.3
57 1.99
58 99.99
59 5.6
63 1.46
65 1.12
69 2.13
70 4.28
71 2.31
72 3.77
77 2.17
84 4.82
85 16.73
86 39.33
87 0.23
109 1.33
127 2.08
128 1.37
139 1.66
140 1.36
152 2.25
153 1.72
154 4.07
166 2.83
167 3.96
171 1.76
178 1.23
179 2.59
180 10.72
181 1.78
184 1.31
196 1.2
197 2.61
198 16.92
199 27.08
200 4.51
201 1.4
210 1.95
212 9.59
213 5.88
214 1.2
223 2.61
224 5.28
225 5.92
226 3.39
238 28.51
239 11.57
240 3.06
284 57.28
285 12.17
286 3.74

>  <PREDICTED SPECTRUM>  (3775) 
30 1
39 43
40 15
41 76
42 127
43 15
44 151
45 58
46 3
51 56
53 18
56 93
57 70
58 999
59 202
63 51
65 41
69 57
70 173
71 94
72 121
77 56
82 13
84 221
85 211
86 364
91 8
95 5
98 4
109 10
110 2
112 35
113 37
114 8
136 0
139 4
140 39
142 24
144 9
153 32
154 11
156 37
166 76
167 26
171 62
179 41
180 244
182 68
184 51
185 138
186 17
194 27
196 58
197 88
198 419
199 332
210 37
212 83
213 195
214 59
224 0
226 25
238 101
239 97
283 2
284 583
285 275
286 132
287 16

$$$$

     RDKit          2D

 21 23  0  0  0  0  0  0  0  0999 V2000
   -2.9381    7.2156    0.0000 C   0  0  0  0  0  0  0  0  0  0  0  0
   -4.2334    4.9635    0.0000 C   0  0  0  0  0  0  0  0  0  0  0  0
   -4.2200    0.4700    0.0000 C   0  0  0  0  0  0  0  0  0  0  0  0
   -4.2200   -1.0300    0.0000 C   0  0  0  0  0  0  0  0  0  0  0  0
   -1.6328    3.4678    0.0000 C   0  0  0  0  0  0  0  0  0  0  0  0
   -2.9200    1.2200    0.0000 C   0  0  0  0  0  0  0  0  0  0  0  0
   -2.9200   -1.7800    0.0000 C   0  0  0  0  0  0  0  0  0  0  0  0
    3.5700   -1.0300    0.0000 C   0  0  0  0  0  0  0  0  0  0  0  0
    2.2700   -1.7800    0.0000 C   0  0  0  0  0  0  0  0  0  0  0  0
   -1.6353    4.9678    0.0000 C   0  0  0  0  0  0  0  0  0  0  0  0
   -0.3325    2.7200    0.0000 C   0  0  0  0  0  0  0  0  0  0  0  0
    2.2700    1.2200    0.0000 C   0  0  0  0  0  0  0  0  0  0  0  0
    3.5700    0.4700    0.0000 C   0  0  0  0  0  0  0  0  0  0  0  0
   -1.6200    0.4700    0.0000 C   0  0  0  0  0  0  0  0  0  0  0  0
    0.9700    0.4700    0.0000 C   0  0  0  0  0  0  0  0  0  0  0  0
   -1.6200   -1.0300    0.0000 C   0  0  0  0  0  0  0  0  0  0  0  0
    0.9700   -1.0300    0.0000 C   0  0  0  0  0  0  0  0  0  0  0  0
    4.8689    1.2202    0.0000 Cl  0  0  0  0  0  0  0  0  0  0  0  0
   -2.9356    5.7156    0.0000 N   0  0  0  0  0  0  0  0  0  0  0  0
   -0.3300    1.2200    0.0000 N   0  0  0  0  0  0  0  0  0  0  0  0
   -0.3300   -1.7800    0.0000 S   0  0  0  0  0  0  0  0  0  0  0  0
  4  3  2  0
  6  3  1  0
  7  4  1  0
  9  8  1  0
 10  5  1  0
 11  5  1  0
 13  8  2  0
 13 12  1  0
 14  6  2  0
 15 12  2  0
 16  7  2  0
 16 14  1  0
 17  9  2  0
 17 15  1  0
 18 13  1  0
 19  1  1  0
 19  2  1  0
 19 10  1  0
 20 11  1  0
 20 14  1  0
 20 15  1  0
 21 16  1  0
 21 17  1  0
M  END
>  <NAME>  (3776) 
CHLORPROMAZINE

>  <SYNONYMS>  (3776) 
2-CHLORO-N,N-DIMETHYL-10H-PHENOTHIAZINE-10-PROPANAMINE

>  <SPECTRUM TYPE>  (3776) 
MS1

>  <INSTRUMENT TYPE>  (3776) 
EI-B

>  <INSTRUMENT>  (3776) 
JEOL JMS-D-300

>  <ION MODE>  (3776) 
P

>  <INCHIKEY>  (3776) 
ZPEIMTDSQAKGNT-UHFFFAOYSA-N

>  <FORMULA>  (3776) 
C17H19ClN2S

>  <EXACT MASS>  (3776) 
318.095747288

>  <MW>  (3776) 
318

>  <ID>  (3776) 
JP005762

>  <CONTRIBUTOR>  (3776) 
University of Tokyo Team, {Faculty of Engineering, University of Tokyo

>  <COMMENT>  (3776) 
SMILES=CN(C)CCCN(c21)c(c3)c(ccc(Cl)3)Sc(cccc2)1
cas=50-53-3
InChI=InChI=1S/C17H19ClN2S/c1-19(2)10-5-11-20-14-6-3-4-7-16(14)21-17-9-8-13(18)12-15(17)20/h3-4,6-9,12H,5,10-11H2,1-2H3
computed SMILES=ClC1=CC=C2SC=3C=CC=CC3N(C2=C1)CCCN(C)C
accession=JP005762
date=2016.01.19 (Created 2008.10.21, modified 2011.05.06)
author=HAMAMATSU UNIV. SCHOOL OF MEDICINE
license=CC BY-NC-SA
exact mass=318.09575
ionization energy=70 eV
ion type=[M]+*
computed spectral entropy=3.04577879565659
computed normalized entropy=0.7501099726669271
SPLASH=splash10-0a4r-9053000000-9e1cc1d4fc6be5bc73b8
submitter=submitter = University of Tokyo Team (Faculty of Engineering, University of Tokyo)
MoNA Rating=3.75

>  <NUM PEAKS>  (3776) 
58

>  <MASS SPECTRAL PEAKS>  (3776) 
56 1.68
57 2.56
58 99.99
59 0.64
63 1.41
69 2.11
70 4.28
71 2.73
72 4.34
75 1
77 1.28
84 4.68
85 17.68
86 41.51
87 2.63
139 0.12
152 1.63
153 1.54
164 1.11
188 1.39
196 2.95
197 3.08
198 3.17
200 1.26
201 1.39
210 1.05
211 1.37
212 1.33
213 1.27
214 5.23
215 1.01
216 1.77
223 2.43
224 1.08
225 1.06
232 8.26
233 11.64
234 4.87
235 4.32
236 1.01
238 1.26
244 1.09
246 4.33
247 4.01
248 2.11
249 1.43
258 2.12
259 3.91
260 2.06
261 1.51
272 15.1
273 8.35
274 7.04
275 3.14
318 38.93
319 7.98
320 14.07
321 2.95

>  <PREDICTED SPECTRUM>  (3776) 
30 4
36 4
39 49
40 25
41 80
42 255
43 115
44 206
45 70
46 10
49 40
50 38
51 80
52 24
53 46
54 2
55 69
56 134
57 71
58 999
59 170
60 3
61 6
62 7
63 50
64 15
65 49
67 22
68 12
69 36
70 138
71 28
72 178
75 53
77 53
78 34
82 20
83 18
84 249
85 254
86 449
87 22
90 10
91 11
96 0
97 30
98 42
99 31
111 26
113 16
114 6
125 20
126 47
127 62
128 35
136 13
137 23
138 13
139 13
140 23
152 48
154 9
155 3
156 3
157 17
167 8
168 12
170 14
171 20
173 18
174 9
175 2
176 31
177 14
178 21
188 6
189 44
190 52
191 16
192 10
198 0
199 40
204 16
205 52
206 29
208 46
213 20
214 64
216 53
218 60
219 57
220 82
231 32
232 139
233 216
234 88
235 85
236 18
246 77
247 201
248 114
249 28
250 19
258 10
260 42
272 68
273 79
274 27
318 354
319 178
320 216
321 120
322 36

$$$$

     RDKit          2D

 10 10  0  0  0  0  0  0  0  0999 V2000
   -2.9242    2.0631    0.0000 C   0  0  0  0  0  0  0  0  0  0  0  0
   -1.6250    1.3133    0.0000 C   0  0  0  0  0  0  0  0  0  0  0  0
    2.2730   -0.9380    0.0000 C   0  0  0  0  0  0  0  0  0  0  0  0
    3.5721   -0.1880    0.0000 C   0  0  0  0  0  0  0  0  0  0  0  0
   -0.3261    2.0635    0.0000 C   0  0  0  0  0  0  0  0  0  0  0  0
    0.9735   -0.1871    0.0000 C   0  0  0  0  0  0  0  0  0  0  0  0
    3.5716    1.3129    0.0000 C   0  0  0  0  0  0  0  0  0  0  0  0
    0.9730    1.3137    0.0000 C   0  0  0  0  0  0  0  0  0  0  0  0
    2.2721    2.0637    0.0000 C   0  0  0  0  0  0  0  0  0  0  0  0
    2.2723    3.5637    0.0000 O   0  0  0  0  0  0  0  0  0  0  0  0
  2  1  1  0
  4  3  1  0
  5  2  1  0
  6  3  1  0
  7  4  1  0
  8  5  1  0
  8  6  1  0
  9  7  1  0
  9  8  1  0
 10  9  1  0
M  END
>  <NAME>  (3777) 
2-PROPYLCYCLOHEXANOL

>  <SYNONYMS>  (3777) 


>  <SPECTRUM TYPE>  (3777) 
MS1

>  <INSTRUMENT TYPE>  (3777) 
EI-B

>  <INSTRUMENT>  (3777) 
HITACHI M-80

>  <ION MODE>  (3777) 
P

>  <INCHIKEY>  (3777) 
VZBNUCDUQJCIDP-UHFFFAOYSA-N

>  <FORMULA>  (3777) 
C9H18O

>  <EXACT MASS>  (3777) 
142.135765196

>  <MW>  (3777) 
142

>  <ID>  (3777) 
JP005759

>  <CONTRIBUTOR>  (3777) 
University of Tokyo Team, {Faculty of Engineering, University of Tokyo

>  <COMMENT>  (3777) 
SMILES=CCCC(C1)C(O)CCC1
InChI=InChI=1S/C9H18O/c1-2-5-8-6-3-4-7-9(8)10/h8-10H,2-7H2,1H3
computed SMILES=OC1CCCCC1CCC
ion type=[M]+*
accession=JP005759
date=2016.01.19 (Created 2008.10.21, modified 2011.05.06)
author=MASS SPECTROSCOPY SOC. OF JAPAN (MSSJ)
license=CC BY-NC-SA
exact mass=142.13577
ionization energy=70 eV
computed spectral entropy=3.2785534096624547
computed normalized entropy=0.8144762648213957
SPLASH=splash10-05o1-9000000000-1638aa2a694cfe643651
submitter=submitter = University of Tokyo Team (Faculty of Engineering, University of Tokyo)
MoNA Rating=3.75

>  <NUM PEAKS>  (3777) 
56

>  <MASS SPECTRAL PEAKS>  (3777) 
38 0.81
39 29.6
40 4.27
41 61.96
42 11.61
43 30.11
44 25.77
45 6.63
50 0.65
51 2.69
52 1.57
53 12.14
54 24.49
55 50.55
56 13.19
57 73.31
58 9.64
59 1.52
65 2.39
66 10.07
67 46.29
68 46.44
69 24.34
70 10.33
71 21.74
72 3.57
73 1.22
77 2.54
78 0.61
79 5.39
80 3.54
81 47.19
82 99.99
83 13.3
84 1.32
85 5.15
86 0.66
91 0.54
93 0.94
94 1.51
95 40.47
96 34.07
97 3.04
98 3.43
99 13.79
100 1.83
109 4.99
110 0.53
111 0.82
113 2.8
114 0.76
123 0.62
124 30.64
125 4.46
141 0.71
142 0.99

>  <PREDICTED SPECTRUM>  (3777) 
18 8
26 89
27 452
28 161
29 515
30 57
31 269
32 26
37 1
38 70
39 613
40 253
41 999
42 507
43 803
44 552
45 247
46 28
47 36
50 131
51 256
52 134
53 422
54 549
55 871
56 507
57 942
58 431
59 193
60 181
61 14
62 42
63 59
64 13
65 170
66 250
67 854
68 601
69 633
70 755
71 609
72 347
73 56
77 312
78 198
79 305
80 414
81 881
82 981
83 605
84 134
85 271
86 148
87 44
91 267
92 141
93 210
94 66
95 699
96 565
97 274
98 352
99 564
100 203
101 14
106 91
107 28
109 394
110 51
113 144
114 49
123 154
124 697
125 205
142 222
143 34

$$$$

     RDKit          2D

 34 37  0  0  1  0  0  0  0  0999 V2000
    9.5655    7.2342    0.0000 C   0  0  0  0  0  0  0  0  0  0  0  0
   10.0746    4.6865    0.0000 C   0  0  0  0  0  0  0  0  0  0  0  0
    8.1228    2.9718    0.0000 C   0  0  0  0  0  0  0  0  0  0  0  0
    3.2009    4.6377    0.0000 C   0  0  0  0  0  0  0  0  0  0  0  0
   -1.6125    0.9400    0.0000 C   0  0  0  0  0  0  0  0  0  0  0  0
    2.4507    3.1203    0.0000 C   0  0  0  0  0  0  0  0  0  0  0  0
   -6.0504   -0.7943    0.0000 C   0  0  0  0  0  0  0  0  0  0  0  0
   -8.0985   -1.3471    0.0000 C   0  0  0  0  0  0  0  0  0  0  0  0
   -7.5457   -3.3951    0.0000 C   0  0  0  0  0  0  0  0  0  0  0  0
    8.0946    6.9403    0.0000 C   0  0  0  0  0  0  0  0  0  0  0  0
    5.6618    3.8047    0.0000 C   0  0  0  0  0  0  0  0  0  0  0  0
    6.1427    5.2256    0.0000 C   0  0  0  0  0  0  0  0  0  0  0  0
   -0.3200   -2.8400    0.0000 C   0  0  0  0  0  0  0  0  0  0  0  0
    1.0100   -2.0900    0.0000 C   0  0  0  0  0  0  0  0  0  0  0  0
    4.5500    0.8800    0.0000 C   0  0  0  0  0  0  0  0  0  0  0  0
    3.7100   -0.3100    0.0000 C   0  0  0  0  0  0  0  0  0  0  0  0
   -4.2000   -0.5600    0.0000 C   0  0  0  0  0  0  0  0  0  0  0  0
   -0.3200    1.6300    0.0000 C   0  0  0  0  0  0  0  0  0  0  0  0
   -2.8900    0.1600    0.0000 C   0  0  0  0  0  0  0  0  0  0  0  0
    1.0100    2.3900    0.0000 C   0  0  0  0  0  0  0  0  0  0  0  0
   -2.8900   -2.8400    0.0000 C   0  0  0  0  0  0  0  0  0  0  0  0
    8.6037    4.3926    0.0000 C   0  0  0  0  0  0  0  0  0  0  0  0
    4.1909    3.5108    0.0000 C   0  0  0  0  0  0  0  0  0  0  0  0
    7.6137    5.5195    0.0000 C   0  0  0  0  0  0  0  0  0  0  0  0
   -1.6200   -2.0900    0.0000 C   0  0  0  0  0  0  0  0  0  0  0  0
   -4.2000   -2.0900    0.0000 C   0  0  0  0  0  0  0  0  0  0  0  0
    1.0100   -0.5600    0.0000 C   0  0  0  0  0  0  0  0  0  0  0  0
    3.7100    2.0900    0.0000 C   0  0  0  0  0  0  0  0  0  0  0  0
    2.2800    0.1600    0.0000 C   0  0  0  0  0  0  0  0  0  0  0  0
   -0.3200    0.1600    0.0000 C   0  0  0  0  0  0  0  0  0  0  0  0
   -1.6200   -0.5600    0.0000 C   0  0  0  0  0  0  0  0  0  0  0  0
    2.2800    1.6300    0.0000 C   0  0  0  0  0  0  0  0  0  0  0  0
   -5.4977   -2.8424    0.0000 O   0  0  0  0  0  0  0  0  0  0  0  0
   -6.7981   -2.0947    0.0000 Si  0  0  0  0  0  4  0  0  0  0  0  0
 10  1  1  0
 11 12  2  0
 14 13  1  0
 16 15  1  0
 19 17  1  0
 20 18  1  0
 22  2  1  0
 22  3  1  0
 23  4  1  6
 23 11  1  0
 24 10  1  1
 24 12  1  0
 24 22  1  0
 25 13  2  0
 25 21  1  0
 26 17  1  0
 26 21  1  0
 27 14  1  6
 28 15  1  1
 28 23  1  0
 29 16  1  1
 29 27  1  0
 30 18  1  1
 30 27  1  0
 31  5  1  1
 31 19  1  0
 31 25  1  0
 31 30  1  0
 32  6  1  1
 32 20  1  0
 32 28  1  0
 32 29  1  0
 26 33  1  1
 34  7  1  0
 34  8  1  0
 34  9  1  0
 34 33  1  0
M  END
>  <NAME>  (3778) 
STIGMASTEROL TMS ETHER

>  <SYNONYMS>  (3778) 


>  <SPECTRUM TYPE>  (3778) 
MS1

>  <INSTRUMENT TYPE>  (3778) 
EI-B

>  <INSTRUMENT>  (3778) 
HITACHI M-80

>  <ION MODE>  (3778) 
P

>  <INCHIKEY>  (3778) 
SZLWSWKRZSAHBC-MZXORBNVSA-N

>  <FORMULA>  (3778) 
C32H56OSi

>  <EXACT MASS>  (3778) 
484.41004294199996

>  <MW>  (3778) 
484

>  <ID>  (3778) 
JP005754

>  <CONTRIBUTOR>  (3778) 
University of Tokyo Team, {Faculty of Engineering, University of Tokyo

>  <COMMENT>  (3778) 
SMILES=C(C32[H])(C(C4)([H])C(C([H])(C4)C([H])(C)C=CC(CC)([H])C(C)C)(C)CC3)(CC=C(C21C)CC(CC1)(O[Si](C)(C)C)[H])[H]
InChI=InChI=1S/C32H56OSi/c1-10-24(22(2)3)12-11-23(4)28-15-16-29-27-14-13-25-21-26(33-34(7,8)9)17-19-31(25,5)30(27)18-20-32(28,29)6/h11-13,22-24,26-30H,10,14-21H2,1-9H3/b12-11+/t23-,24-,26+,27+,28-,29+,30+,31+,32-/m1/s1
computed SMILES=O(C1CC2=CCC3C(CCC4(C)C(CCC34)C(C=CC(CC)C(C)C)C)C2(C)CC1)[Si](C)(C)C
accession=JP005754
date=2016.01.19 (Created 2008.10.21, modified 2011.05.06)
author=MASS SPECTROSCOPY SOC. OF JAPAN (MSSJ)
license=CC BY-NC-SA
exact mass=484.41004
ionization energy=70 eV
ion type=[M]+*
computed spectral entropy=4.339810637625926
computed normalized entropy=0.869626142054996
SPLASH=splash10-0543-4869200000-337216b766b8173b7f0c
submitter=submitter = University of Tokyo Team (Faculty of Engineering, University of Tokyo)
MoNA Rating=3.75

>  <NUM PEAKS>  (3778) 
147

>  <MASS SPECTRAL PEAKS>  (3778) 
57 21.6
69 11.3
70 3.4
71 7.1
75 2.1
81 21.1
82 3.4
83 78.8
84 6
85 2.1
93 2.7
94 3.2
95 7.1
96 3.2
97 14.5
105 2.5
107 6.8
108 2.3
109 7
110 3.1
111 3.8
119 5.8
120 3.2
121 8.4
122 2.8
123 7
124 2.3
125 2.2
129 62.1
130 10.4
131 6.6
132 3.2
133 18.3
134 2.7
135 5.7
137 5.1
138 2
139 54.2
140 5.7
141 2.3
143 8.3
144 2.5
145 13
146 5.1
147 13.8
148 2.5
149 4.9
151 2.4
155 8.1
156 2.1
157 3.2
158 4.6
159 13.8
160 6
161 9.3
162 2.8
163 3.9
165 4.3
166 2.9
169 3.3
171 2.4
172 3.7
173 4.4
175 3.8
177 2.5
182 2.7
185 3
186 3
187 3.8
189 5.9
196 3
197 2.6
199 4.4
201 3.7
203 3.5
205 2
211 4.6
212 3.5
213 1.05
214 4.9
215 12.4
216 3.2
217 4.8
225 2.1
227 5.2
228 9.4
229 5.5
239 4
240 4.1
241 6.2
242 2.7
243 7.2
253 14.5
254 9.5
255 74.3
256 19.1
257 8.7
258 2.8
267 4.2
271 12.7
272 3.4
273 6.6
281 6.8
282 13.9
283 9.9
284 2.9
295 4.3
296 5.1
300 2.5
301 2.6
309 4
310 2.7
318 4.7
321 2.5
327 2.7
330 4.5
342 5.6
343 20.1
344 11.9
345 6.3
346 2.3
351 32
352 13.2
353 7
354 20.8
355 36.8
356 10.6
357 3.3
365 2.7
366 3.6
367 2.5
372 17
373 5.9
374 2.1
379 24.9
380 9
382 5.2
386 4.2
394 99.99
395 32.8
396 7.4
441 2.1
469 9.7
470 2.7
471 2.4
484 81
485 33

>  <PREDICTED SPECTRUM>  (3778) 
28 10
41 64
43 180
44 86
47 12
53 82
54 56
55 470
56 139
57 269
58 38
59 60
61 26
65 43
66 44
67 313
68 90
69 498
70 243
71 253
72 73
73 377
74 54
75 471
76 94
77 106
78 32
79 247
80 127
81 485
82 212
83 616
84 137
85 181
89 80
91 166
92 99
93 255
94 113
95 395
96 212
97 444
98 33
99 94
100 62
101 49
103 42
105 240
106 47
107 411
108 175
109 402
110 103
111 288
112 11
115 77
116 2
117 157
118 27
119 362
120 198
121 385
122 202
123 377
124 56
125 97
127 51
129 653
130 197
131 267
132 187
133 403
134 200
135 416
136 53
137 246
138 101
139 258
140 68
141 115
142 63
143 281
144 70
145 356
146 172
147 452
148 163
149 285
150 74
151 103
152 12
153 29
155 201
156 106
157 195
158 139
159 394
160 314
161 378
162 143
163 184
164 8
165 44
166 24
167 34
168 5
169 299
170 75
171 181
172 84
173 201
174 7
175 267
176 91
177 117
178 9
179 46
181 153
182 79
183 85
185 159
186 106
187 190
188 64
189 238
191 38
194 15
195 125
196 174
197 180
198 4
199 322
200 27
201 208
202 14
203 87
205 95
207 19
209 69
211 172
212 127
213 170
214 200
215 299
216 75
217 96
221 11
223 4
225 82
226 32
227 216
228 143
229 304
230 137
233 28
239 217
240 184
241 135
242 97
243 152
245 65
247 0
253 349
254 262
255 754
256 389
257 475
258 138
259 135
265 31
266 24
267 141
268 47
271 238
272 89
273 204
274 6
281 299
282 348
283 410
284 210
285 98
286 91
287 117
288 0
289 126
295 9
296 259
297 8
300 22
301 145
302 19
303 56
304 50
305 13
309 139
315 28
316 0
318 131
323 2
324 65
325 27
326 69
327 165
328 16
329 75
330 291
331 23
334 24
338 7
340 27
342 166
343 445
344 367
345 289
346 155
349 23
351 479
352 373
353 266
354 361
355 553
356 369
357 280
358 109
359 25
365 96
366 79
371 98
372 513
373 322
374 34
375 17
379 533
380 278
382 112
386 146
388 10
392 23
394 999
395 539
396 259
441 149
469 257
470 117
471 113
484 959
485 556
486 28
487 76
488 36
489 62

$$$$

     RDKit          2D

 30 33  0  0  1  0  0  0  0  0999 V2000
    9.5655    7.2342    0.0000 C   0  0  0  0  0  0  0  0  0  0  0  0
   10.0746    4.6865    0.0000 C   0  0  0  0  0  0  0  0  0  0  0  0
    8.1228    2.9718    0.0000 C   0  0  0  0  0  0  0  0  0  0  0  0
    3.2009    4.6377    0.0000 C   0  0  0  0  0  0  0  0  0  0  0  0
   -1.6125    0.9400    0.0000 C   0  0  0  0  0  0  0  0  0  0  0  0
    2.4507    3.1203    0.0000 C   0  0  0  0  0  0  0  0  0  0  0  0
    8.0946    6.9403    0.0000 C   0  0  0  0  0  0  0  0  0  0  0  0
    5.6618    3.8047    0.0000 C   0  0  0  0  0  0  0  0  0  0  0  0
    6.1427    5.2256    0.0000 C   0  0  0  0  0  0  0  0  0  0  0  0
   -0.3200   -2.8400    0.0000 C   0  0  0  0  0  0  0  0  0  0  0  0
    1.0100   -2.0900    0.0000 C   0  0  0  0  0  0  0  0  0  0  0  0
    4.5500    0.8800    0.0000 C   0  0  0  0  0  0  0  0  0  0  0  0
    3.7100   -0.3100    0.0000 C   0  0  0  0  0  0  0  0  0  0  0  0
   -4.2000   -0.5600    0.0000 C   0  0  0  0  0  0  0  0  0  0  0  0
   -0.3200    1.6300    0.0000 C   0  0  0  0  0  0  0  0  0  0  0  0
   -2.8900    0.1600    0.0000 C   0  0  0  0  0  0  0  0  0  0  0  0
    1.0100    2.3900    0.0000 C   0  0  0  0  0  0  0  0  0  0  0  0
   -2.8900   -2.8400    0.0000 C   0  0  0  0  0  0  0  0  0  0  0  0
    8.6037    4.3926    0.0000 C   0  0  0  0  0  0  0  0  0  0  0  0
    4.1909    3.5108    0.0000 C   0  0  0  0  0  0  0  0  0  0  0  0
    7.6137    5.5195    0.0000 C   0  0  0  0  0  0  0  0  0  0  0  0
   -1.6200   -2.0900    0.0000 C   0  0  0  0  0  0  0  0  0  0  0  0
   -4.2000   -2.0900    0.0000 C   0  0  0  0  0  0  0  0  0  0  0  0
    1.0100   -0.5600    0.0000 C   0  0  0  0  0  0  0  0  0  0  0  0
    3.7100    2.0900    0.0000 C   0  0  0  0  0  0  0  0  0  0  0  0
    2.2800    0.1600    0.0000 C   0  0  0  0  0  0  0  0  0  0  0  0
   -0.3200    0.1600    0.0000 C   0  0  0  0  0  0  0  0  0  0  0  0
   -1.6200   -0.5600    0.0000 C   0  0  0  0  0  0  0  0  0  0  0  0
    2.2800    1.6300    0.0000 C   0  0  0  0  0  0  0  0  0  0  0  0
   -5.4977   -2.8424    0.0000 O   0  0  0  0  0  0  0  0  0  0  0  0
  7  1  1  0
  9  8  1  0
 11 10  1  0
 13 12  1  0
 16 14  1  0
 17 15  1  0
 19  2  1  0
 19  3  1  0
 20  4  1  6
 20  8  1  0
 21  7  1  1
 21  9  1  0
 21 19  1  0
 22 10  2  0
 22 18  1  0
 23 14  1  0
 23 18  1  0
 24 11  1  6
 25 12  1  1
 25 20  1  0
 26 13  1  1
 26 24  1  0
 27 15  1  1
 27 24  1  0
 28  5  1  1
 28 16  1  0
 28 22  1  0
 28 27  1  0
 29  6  1  1
 29 17  1  0
 29 25  1  0
 29 26  1  0
 23 30  1  1
M  END
>  <NAME>  (3779) 
SITOSTEROL

>  <SYNONYMS>  (3779) 


>  <SPECTRUM TYPE>  (3779) 
MS1

>  <INSTRUMENT TYPE>  (3779) 
EI-B

>  <INSTRUMENT>  (3779) 
HITACHI M-80

>  <ION MODE>  (3779) 
P

>  <INCHIKEY>  (3779) 
KZJWDPNRJALLNS-VJSFXXLFSA-N

>  <FORMULA>  (3779) 
C29H50O

>  <EXACT MASS>  (3779) 
414.38616621999995

>  <MW>  (3779) 
414

>  <ID>  (3779) 
JP005753

>  <CONTRIBUTOR>  (3779) 
University of Tokyo Team, {Faculty of Engineering, University of Tokyo

>  <COMMENT>  (3779) 
SMILES=CC(C4([H])C(CCC([H])(CC)C(C)C)([H])C)(C([H])1CC4)CCC(C3(C)2)(C([H])(CC=C2CC([H])(O)CC3)1)[H]
cas=83-46-5
InChI=InChI=1S/C29H50O/c1-7-21(19(2)3)9-8-20(4)25-12-13-26-24-11-10-22-18-23(30)14-16-28(22,5)27(24)15-17-29(25,26)6/h10,19-21,23-27,30H,7-9,11-18H2,1-6H3/t20-,21-,23+,24+,25-,26+,27+,28+,29-/m1/s1
computed SMILES=OC1CC2=CCC3C(CCC4(C)C(CCC34)C(C)CCC(CC)C(C)C)C2(C)CC1
accession=JP005753
date=2016.01.19 (Created 2008.10.21, modified 2011.05.06)
author=MASS SPECTROSCOPY SOC. OF JAPAN (MSSJ)
license=CC BY-NC-SA
exact mass=414.38617
ionization energy=70 eV
ion type=[M]+*
computed spectral entropy=4.7512723916697865
computed normalized entropy=0.8846755947405001
SPLASH=splash10-0a4l-9822000000-2be95863c114e7cd2597
submitter=submitter = University of Tokyo Team (Faculty of Engineering, University of Tokyo)
MoNA Rating=3.75

>  <NUM PEAKS>  (3779) 
215

>  <MASS SPECTRAL PEAKS>  (3779) 
17 1.8
18 6.5
27 7.7
28 7.1
29 19.6
36 2.6
39 5.8
40 1.5
41 53.3
42 10.2
43 99.99
44 5.1
53 8.2
54 1.9
55 70.2
56 7.2
57 53.7
58 2.7
65 3.8
66 1.8
67 22.8
68 5.3
69 41.7
70 4
71 19.5
72 1.1
73 1.2
77 11.4
78 3.1
79 26
80 4.9
81 43.7
82 6.8
83 21.3
84 3
85 20.9
86 1.4
91 35.2
92 9.1
93 28
94 9.8
95 39.2
96 5.2
97 14.1
98 1.7
99 2.4
103 2.6
104 2.6
105 42.7
106 11.7
107 42.1
108 9.8
109 21
110 3.7
111 7.7
115 4.2
116 2.7
117 13.9
118 7.3
119 28.3
120 19.2
121 22.4
122 5.2
123 11
124 5.1
125 5.7
128 4.2
129 7.6
130 4.7
131 20.7
132 6.8
133 26.6
134 9.1
135 19.3
136 5.1
137 5.8
138 2.8
139 2.1
141 2.6
142 2.7
143 14.1
144 7.1
145 35.2
146 9.7
147 20.8
148 6
149 11.2
150 2.4
151 4.3
152 1.4
155 2.1
156 1.5
157 9.3
158 1.14
159 25.2
160 13.8
161 21.6
162 5.5
163 15.7
164 3.1
165 2.3
169 2.3
170 1.1
171 8.1
172 3.4
173 12.7
174 4.5
175 6.8
176 3.3
177 6
178 8
179 2.7
183 1.9
184 1.1
185 7.7
186 4
187 7.7
188 2.4
189 3.9
190 1.6
191 5.1
192 1.4
193 1.2
197 2.6
198 1.2
199 9.3
200 3.2
201 5.5
202 1.8
203 2.7
205 3.6
207 4.3
211 2.8
212 1.3
213 22.9
214 7.4
215 7.3
216 2
217 3.2
218 1.3
219 2.1
221 1.6
225 1.2
227 4.2
228 6.6
229 9.9
230 2.8
231 13.5
232 4.4
233 2.6
234 2
235 1.2
239 2.2
241 3.1
242 1.1
243 1.2
245 1.7
246 3.4
247 2.3
248 1.3
253 1.9
254 1.6
255 19.6
256 4.6
257 2.1
258 1.1
259 1.2
261 1.3
271 3.9
272 3
273 14.3
274 4
275 6.6
276 2.2
281 4.9
282 1.5
283 2.2
288 2
289 2.5
290 1.1
296 2.8
297 1.2
299 3.8
300 2.1
301 1.9
302 7.1
303 27.1
304 6.3
314 16.3
315 5.1
316 1.2
328 1.4
329 18.8
330 5.2
341 1.4
342 1.5
367 1.3
368 1.1
370 1.1
381 15.3
382 5.4
383 1.3
394 1.2
395 1.1
396 27.6
397 10.2
398 2.2
399 16.4
400 6
401 1.1
412 3.8
413 1.9
414 50
415 16.9
416 2.9

>  <PREDICTED SPECTRUM>  (3779) 
29 49
39 51
40 25
41 649
42 137
43 999
44 170
45 112
49 10
50 32
51 88
52 11
53 321
54 111
55 995
56 209
57 891
58 152
59 82
60 48
65 197
66 45
67 719
68 292
69 902
70 314
71 654
72 36
73 23
75 4
77 424
78 157
79 633
80 209
81 831
82 364
83 638
84 250
85 451
86 112
91 706
92 314
93 697
94 328
95 866
96 318
97 546
98 181
99 178
100 17
103 104
104 111
105 715
106 423
107 842
108 402
109 620
110 295
111 401
112 85
113 81
115 167
116 29
117 358
118 221
119 662
120 388
121 614
122 356
123 500
124 358
125 290
126 64
127 67
128 94
129 261
130 180
131 466
132 251
133 652
134 365
135 545
136 262
137 250
138 143
139 99
140 0
141 154
142 162
143 423
144 208
145 663
146 334
147 598
148 288
149 526
150 169
151 345
152 128
155 62
156 40
157 281
158 282
159 572
160 346
161 547
162 268
163 415
164 115
165 119
166 31
167 12
168 11
169 106
171 261
172 140
173 384
174 167
175 277
176 186
177 292
178 192
179 95
183 116
184 43
185 242
186 181
187 353
188 129
189 346
190 205
191 214
192 152
193 19
197 132
198 67
199 288
200 91
201 336
202 193
203 256
204 108
205 130
211 53
212 67
213 621
214 351
215 506
216 224
217 382
218 130
219 182
220 50
227 188
228 207
229 465
230 305
231 539
232 315
233 351
234 100
239 19
241 85
242 66
243 156
244 132
245 224
246 307
247 225
248 53
255 371
256 213
257 221
258 139
259 173
260 125
261 30
269 70
270 33
271 263
272 236
273 434
274 305
275 192
281 163
282 30
283 59
285 291
286 72
287 124
288 151
289 98
290 23
297 48
299 158
300 228
301 295
302 169
303 234
304 30
310 11
311 12
314 96
315 221
316 83
327 14
329 251
330 97
341 69
342 45
353 85
354 116
355 24
357 88
371 115
372 10
381 305
382 64
383 29
384 53
385 73
396 470
397 223
398 48
399 648
400 335
401 115
412 174
413 66
414 791
415 521
416 165

$$$$

     RDKit          2D

 18 18  0  0  0  0  0  0  0  0999 V2000
    5.7338   -2.1254    0.0000 C   0  0  0  0  0  0  0  0  0  0  0  0
    6.2659   -0.0719    0.0000 C   0  0  0  0  0  0  0  0  0  0  0  0
    4.2124    0.4602    0.0000 C   0  0  0  0  0  0  0  0  0  0  0  0
   -3.3710    2.7294    0.0000 C   0  0  0  0  0  0  0  0  0  0  0  0
   -5.4227    2.1905    0.0000 C   0  0  0  0  0  0  0  0  0  0  0  0
   -4.8837    0.1388    0.0000 C   0  0  0  0  0  0  0  0  0  0  0  0
    1.0651    1.4149    0.0000 C   0  0  0  0  0  0  0  0  0  0  0  0
   -0.2485   -0.8099    0.0000 C   0  0  0  0  0  0  0  0  0  0  0  0
    2.3496    0.6901    0.0000 C   0  0  0  0  0  0  0  0  0  0  0  0
    1.0760   -1.6041    0.0000 C   0  0  0  0  0  0  0  0  0  0  0  0
   -0.2340    0.6649    0.0000 C   0  0  0  0  0  0  0  0  0  0  0  0
    2.3751   -0.8541    0.0000 C   0  0  0  0  0  0  0  0  0  0  0  0
   -1.5293    1.4213    0.0000 C   0  0  0  0  0  0  0  0  0  0  0  0
   -1.5219    2.9213    0.0000 O   0  0  0  0  0  0  0  0  0  0  0  0
    3.6803   -1.5933    0.0000 O   0  0  0  0  0  0  0  0  0  0  0  0
   -2.8320    0.6777    0.0000 O   0  0  0  0  0  0  0  0  0  0  0  0
    4.9731   -0.8326    0.0000 Si  0  0  0  0  0  4  0  0  0  0  0  0
   -4.1273    1.4341    0.0000 Si  0  0  0  0  0  4  0  0  0  0  0  0
  9  7  2  0
 10  8  1  0
 11  7  1  0
 11  8  2  0
 12  9  1  0
 12 10  2  0
 13 11  1  0
 14 13  2  0
 15 12  1  0
 16 13  1  0
 17  1  1  0
 17  2  1  0
 17  3  1  0
 17 15  1  0
 18  4  1  0
 18  5  1  0
 18  6  1  0
 18 16  1  0
M  END
>  <NAME>  (3780) 
P-HYDROXYBENZOIC ACID TMS ETHER TMS ESTER

>  <SYNONYMS>  (3780) 


>  <SPECTRUM TYPE>  (3780) 
MS1

>  <INSTRUMENT TYPE>  (3780) 
EI-B

>  <INSTRUMENT>  (3780) 
HITACHI M-80

>  <ION MODE>  (3780) 
P

>  <INCHIKEY>  (3780) 
XVCXIVAVMFNKDH-UHFFFAOYSA-N

>  <FORMULA>  (3780) 
C13H22O3Si2

>  <EXACT MASS>  (3780) 
282.110747624

>  <MW>  (3780) 
282

>  <ID>  (3780) 
JP005752

>  <CONTRIBUTOR>  (3780) 
University of Tokyo Team, {Faculty of Engineering, University of Tokyo

>  <COMMENT>  (3780) 
SMILES=O=C(O[Si](C)(C)C)c(c1)ccc(c1)O[Si](C)(C)C
InChI=InChI=1S/C13H22O3Si2/c1-17(2,3)15-12-9-7-11(8-10-12)13(14)16-18(4,5)6/h7-10H,1-6H3
computed SMILES=O=C(O[Si](C)(C)C)C1=CC=C(O[Si](C)(C)C)C=C1
accession=JP005752
date=2016.01.19 (Created 2008.10.21, modified 2011.05.06)
author=MASS SPECTROSCOPY SOC. OF JAPAN (MSSJ)
license=CC BY-NC-SA
exact mass=282.11075
ionization energy=70 eV
ion type=[M]+*
computed spectral entropy=3.1434569059700843
computed normalized entropy=0.7709204266580776
SPLASH=splash10-00xr-7490000000-73f5358eda2e78d12d8c
submitter=submitter = University of Tokyo Team (Faculty of Engineering, University of Tokyo)
MoNA Rating=3.75

>  <NUM PEAKS>  (3780) 
59

>  <MASS SPECTRAL PEAKS>  (3780) 
15 2.3
29 1.5
39 1.8
43 8.4
44 3.2
45 16.5
47 2.3
50 1.8
58 2.2
59 4.1
61 1.7
63 2.3
64 2
65 2.5
72 1.9
73 99.99
74 9.9
75 13.8
76 4.6
77 3.4
79 1.5
85 1.4
89 3.7
90 1.7
91 6.7
92 3.7
93 1.9
103 2.1
104 2.3
105 2.3
119 2.3
120 1.5
121 3.6
126 12.7
126.5 2.6
133 4.1
135 6.3
147 3.6
149 5.4
150 2
151 5.3
179 3.7
191 1.7
193 56.6
194 9.9
195 9.8
207 3.1
210 3
223 49.2
224 10.8
225 4.6
267 98.3
268 22.7
269 9.4
270 1.5
281 2.3
282 43
283 10.6
284 4.2

>  <PREDICTED SPECTRUM>  (3780) 
15 39
27 50
28 45
29 81
31 9
38 3
39 24
41 44
42 49
43 164
44 91
45 342
46 66
47 189
48 21
49 40
50 77
51 79
52 41
53 106
54 53
55 147
56 57
57 90
58 64
59 116
60 58
61 97
62 47
63 117
64 94
65 122
66 56
67 107
68 45
69 121
70 76
71 88
72 53
73 766
74 223
75 364
76 154
77 212
78 84
79 144
80 34
81 107
82 100
83 105
84 83
85 74
89 145
90 106
91 208
92 175
93 98
94 38
95 159
96 115
97 125
98 73
99 59
102 32
103 123
104 114
105 178
106 60
107 133
108 36
109 109
110 43
111 44
112 7
115 42
116 5
117 49
118 32
119 187
120 185
121 150
122 99
123 117
124 6
125 29
126 76
127 64
128 28
131 36
133 128
134 87
135 258
136 114
137 90
139 49
140 17
141 16
147 98
148 75
149 229
150 211
151 157
152 35
155 14
163 93
164 40
165 205
166 70
170 11
177 98
178 70
179 57
180 40
181 62
191 54
193 652
194 222
195 174
196 72
197 21
205 4
207 92
208 49
209 102
210 68
211 31
223 595
224 240
225 179
226 50
237 73
238 46
239 17
251 50
253 51
255 4
265 60
266 44
267 999
268 462
269 304
270 104
281 36
282 568
283 279
284 184
285 71

$$$$

     RDKit          2D

 29 32  0  0  1  0  0  0  0  0999 V2000
    9.5655    7.2342    0.0000 C   0  0  0  0  0  0  0  0  0  0  0  0
    7.1046    8.0672    0.0000 C   0  0  0  0  0  0  0  0  0  0  0  0
    8.6037    4.3926    0.0000 C   0  0  0  0  0  0  0  0  0  0  0  0
    3.2009    4.6377    0.0000 C   0  0  0  0  0  0  0  0  0  0  0  0
   -1.6125    0.9400    0.0000 C   0  0  0  0  0  0  0  0  0  0  0  0
    2.4507    3.1203    0.0000 C   0  0  0  0  0  0  0  0  0  0  0  0
    6.1427    5.2256    0.0000 C   0  0  0  0  0  0  0  0  0  0  0  0
    5.6618    3.8047    0.0000 C   0  0  0  0  0  0  0  0  0  0  0  0
   -0.3200   -2.8400    0.0000 C   0  0  0  0  0  0  0  0  0  0  0  0
    1.0100   -2.0900    0.0000 C   0  0  0  0  0  0  0  0  0  0  0  0
    4.5500    0.8800    0.0000 C   0  0  0  0  0  0  0  0  0  0  0  0
    3.7100   -0.3100    0.0000 C   0  0  0  0  0  0  0  0  0  0  0  0
   -4.2000   -0.5600    0.0000 C   0  0  0  0  0  0  0  0  0  0  0  0
   -0.3200    1.6300    0.0000 C   0  0  0  0  0  0  0  0  0  0  0  0
   -2.8900    0.1600    0.0000 C   0  0  0  0  0  0  0  0  0  0  0  0
    1.0100    2.3900    0.0000 C   0  0  0  0  0  0  0  0  0  0  0  0
   -2.8900   -2.8400    0.0000 C   0  0  0  0  0  0  0  0  0  0  0  0
    8.0946    6.9403    0.0000 C   0  0  0  0  0  0  0  0  0  0  0  0
    7.6137    5.5195    0.0000 C   0  0  0  0  0  0  0  0  0  0  0  0
    4.1909    3.5108    0.0000 C   0  0  0  0  0  0  0  0  0  0  0  0
   -1.6200   -2.0900    0.0000 C   0  0  0  0  0  0  0  0  0  0  0  0
   -4.2000   -2.0900    0.0000 C   0  0  0  0  0  0  0  0  0  0  0  0
    1.0100   -0.5600    0.0000 C   0  0  0  0  0  0  0  0  0  0  0  0
    3.7100    2.0900    0.0000 C   0  0  0  0  0  0  0  0  0  0  0  0
    2.2800    0.1600    0.0000 C   0  0  0  0  0  0  0  0  0  0  0  0
   -0.3200    0.1600    0.0000 C   0  0  0  0  0  0  0  0  0  0  0  0
   -1.6200   -0.5600    0.0000 C   0  0  0  0  0  0  0  0  0  0  0  0
    2.2800    1.6300    0.0000 C   0  0  0  0  0  0  0  0  0  0  0  0
   -5.4977   -2.8424    0.0000 O   0  0  0  0  0  0  0  0  0  0  0  0
  8  7  1  0
 10  9  1  0
 12 11  1  0
 15 13  1  0
 16 14  1  0
 18  1  1  0
 18  2  1  0
 19  3  1  6
 19  7  1  0
 19 18  1  0
 20  4  1  6
 20  8  1  0
 21  9  2  0
 21 17  1  0
 22 13  1  0
 22 17  1  0
 23 10  1  6
 24 11  1  1
 24 20  1  0
 25 12  1  1
 25 23  1  0
 26 14  1  1
 26 23  1  0
 27  5  1  0
 27 15  1  0
 27 21  1  0
 27 26  1  0
 28  6  1  0
 28 16  1  0
 28 24  1  0
 28 25  1  0
 22 29  1  1
M  END
>  <NAME>  (3781) 
CAMPESTEROL

>  <SYNONYMS>  (3781) 
(24R)-ERGOST-5-EN-3BETA-OL

>  <SPECTRUM TYPE>  (3781) 
MS1

>  <INSTRUMENT TYPE>  (3781) 
EI-B

>  <INSTRUMENT>  (3781) 
HITACHI M-80

>  <ION MODE>  (3781) 
P

>  <INCHIKEY>  (3781) 
SGNBVLSWZMBQTH-SSKRYHHQSA-N

>  <FORMULA>  (3781) 
C28H48O

>  <EXACT MASS>  (3781) 
400.370516156

>  <MW>  (3781) 
400

>  <ID>  (3781) 
JP005750

>  <CONTRIBUTOR>  (3781) 
University of Tokyo Team, {Faculty of Engineering, University of Tokyo

>  <COMMENT>  (3781) 
SMILES=C(C1)C([H])(O)CC(=C([H])4)C1(C([H])(C3([H])C4)CCC(C)(C23[H])C(CC2)([H])C(CCC([H])(C)C(C)C)([H])C)C
cas=474-62-4
InChI=InChI=1S/C28H48O/c1-18(2)19(3)7-8-20(4)24-11-12-25-23-10-9-21-17-22(29)13-15-27(21,5)26(23)14-16-28(24,25)6/h9,18-20,22-26,29H,7-8,10-17H2,1-6H3/t19-,20-,22+,23+,24-,25+,26+,27?,28?/m1/s1
computed SMILES=OC1CC2=CCC3C(CCC4(C)C(CCC34)C(C)CCC(C)C(C)C)C2(C)CC1
accession=JP005750
date=2016.01.19 (Created 2008.10.21, modified 2011.05.06)
author=MASS SPECTROSCOPY SOC. OF JAPAN (MSSJ)
license=CC BY-NC-SA
exact mass=400.37052
ionization energy=70 eV
ion type=[M]+*
computed spectral entropy=4.730514344953551
computed normalized entropy=0.8945301584614325
SPLASH=splash10-0a4l-9821000000-27c5e57691c268863a33
submitter=submitter = University of Tokyo Team (Faculty of Engineering, University of Tokyo)
MoNA Rating=3.75

>  <NUM PEAKS>  (3781) 
198

>  <MASS SPECTRAL PEAKS>  (3781) 
15 1.8
18 14.3
27 9.8
28 19.8
29 17.9
32 5.3
35 1.5
36 6.4
38 2.5
39 7.3
40 1.7
41 59.8
42 12
43 99.99
44 6.9
53 8.9
55 48.5
56 6.3
57 37.7
58 2.8
65 3.8
66 1.9
67 26
68 4.6
69 35.6
70 3.4
71 32
72 1.9
73 3.6
77 10.1
78 3.9
79 30.4
80 4.8
81 42.1
82 4.7
83 19.2
84 3.2
85 7.9
91 35.6
92 8.8
93 34
94 9.1
95 38.5
96 5.3
97 12.7
98 1.2
103 3.1
104 3.1
105 44.8
106 12.3
107 43.1
108 10.7
109 20.2
110 3.4
111 4.9
115 5.5
116 4
117 15.5
118 7.8
119 27.6
120 19.6
121 21.3
122 5.3
123 11.4
124 6.7
125 5.7
127 1.6
128 4.8
129 8.8
130 4.9
131 20.8
132 7
133 26
134 8.8
135 18.1
136 5.1
137 5.5
138 2.1
141 3.6
142 3
143 15.3
144 6.5
145 38
146 10
147 21.2
148 6
149 9.9
150 2.2
151 4.2
152 1.6
155 2
156 1.7
157 8.9
158 9.9
159 25
160 13.3
161 21
162 5.7
163 14.7
164 2.8
165 2.5
169 1.8
171 6.9
172 3.3
173 10.2
174 4.5
175 6.2
176 3
177 5.1
178 6.5
179 2.7
183 1.7
185 7.5
186 3.6
187 7.4
188 2.3
189 4.2
191 3.8
193 1.3
197 2.7
199 9.2
200 3
201 4.9
202 1.8
203 2.6
205 2.8
207 11.2
208 2.3
209 1.3
211 2
212 1.3
213 22.9
214 7.3
215 6
216 1.4
217 2.6
219 2.1
220 1.8
221 1.3
227 4.2
228 5.9
229 7.9
230 2.4
231 11.5
232 3.5
233 2.4
234 1.8
239 1.7
241 2.7
245 1.7
246 2.5
247 2.5
253 1.8
255 15.1
256 3.6
257 1.9
259 1.9
260 1.5
261 7.2
262 2.4
271 5.7
272 3.2
273 11.3
274 5.1
275 3.3
276 1.3
281 6.3
282 1.7
283 2.2
288 5.6
289 24.4
290 5.3
296 1.7
299 3.4
300 1.6
301 2.1
313 1.4
314 9.7
315 17.1
316 4.3
327 1.3
328 1.7
340 3
341 2.3
343 2
380 1.7
381 1.2
382 27.6
383 9.7
384 2.1
385 12.7
386 4.8
387 1.1
398 2.6
399 1
400 37
401 11.8
402 2.1

>  <PREDICTED SPECTRUM>  (3781) 
29 21
39 54
40 28
41 728
42 149
43 999
44 189
45 223
49 50
50 37
51 82
53 333
54 81
55 961
56 202
57 777
58 158
59 94
60 24
63 24
65 213
66 53
67 662
68 203
69 748
70 233
71 431
72 71
73 89
74 31
75 16
77 392
78 114
79 640
80 172
81 733
82 301
83 589
84 208
85 274
86 67
87 5
89 29
91 629
92 264
93 655
94 276
95 730
96 244
97 403
98 101
99 151
101 14
103 101
104 86
105 696
106 330
107 724
108 345
109 512
110 247
111 309
112 92
113 51
114 23
115 189
116 37
117 349
118 194
119 529
120 384
121 517
122 310
123 407
124 328
125 363
126 121
127 125
128 145
129 208
130 130
131 414
132 214
133 593
134 310
135 492
136 244
137 222
138 109
139 75
141 116
142 121
143 358
144 187
145 575
146 243
147 519
148 303
149 427
150 189
151 363
152 271
153 165
154 65
155 100
156 71
157 262
158 250
159 497
160 318
161 552
162 250
163 346
164 116
165 201
166 104
167 117
168 107
169 110
170 29
171 219
172 194
173 342
174 186
175 285
176 190
177 244
178 239
179 174
180 73
181 65
182 2
183 93
185 181
186 170
187 346
188 140
189 244
190 102
191 154
192 41
193 41
194 42
195 52
197 147
198 55
199 243
200 98
201 278
202 141
203 185
204 107
205 194
206 66
207 49
209 23
211 34
212 49
213 555
214 318
215 382
216 158
217 265
218 175
219 277
220 146
221 5
225 5
227 134
228 196
229 311
230 183
231 465
232 231
233 236
234 122
239 63
241 23
243 80
244 42
245 118
246 219
247 157
248 115
249 37
250 91
253 61
255 373
256 222
257 159
258 103
259 121
260 100
261 153
269 12
271 305
272 195
273 446
274 285
275 211
276 139
277 22
281 57
283 60
285 44
287 107
288 270
289 378
290 129
299 101
300 149
301 276
302 109
313 80
314 120
315 295
316 174
317 35
327 87
328 31
330 42
339 13
340 130
341 97
342 49
343 144
344 32
345 35
353 9
356 59
357 78
358 23
359 11
367 238
368 181
369 83
371 124
372 32
382 407
383 258
384 162
385 488
386 298
387 85
398 123
399 89
400 850
401 469
402 173

$$$$

     RDKit          2D

  5  5  0  0  0  0  0  0  0  0999 V2000
   -1.2100   -0.3900    0.0000 C   0  0  0  0  0  0  0  0  0  0  0  0
   -0.7500    1.0300    0.0000 C   0  0  0  0  0  0  0  0  0  0  0  0
    1.2100   -0.3900    0.0000 C   0  0  0  0  0  0  0  0  0  0  0  0
   -0.0000   -1.2800    0.0000 N   0  0  0  0  0  0  0  0  0  0  0  0
    0.7500    1.0300    0.0000 N   0  0  0  0  0  0  0  0  0  0  0  0
  2  1  2  0
  4  1  1  0
  4  3  2  0
  5  2  1  0
  5  3  1  0
M  END
>  <NAME>  (3782) 
IMIDAZOLE

>  <SYNONYMS>  (3782) 


>  <SPECTRUM TYPE>  (3782) 
MS1

>  <INSTRUMENT TYPE>  (3782) 
EI-B

>  <INSTRUMENT>  (3782) 
HITACHI M-80

>  <ION MODE>  (3782) 
P

>  <INCHIKEY>  (3782) 
RAXXELZNTBOGNW-UHFFFAOYSA-N

>  <FORMULA>  (3782) 
C3H4N2

>  <EXACT MASS>  (3782) 
68.037448128

>  <MW>  (3782) 
68

>  <ID>  (3782) 
JP005749

>  <CONTRIBUTOR>  (3782) 
University of Tokyo Team, {Faculty of Engineering, University of Tokyo

>  <COMMENT>  (3782) 
SMILES=C1=CN=CN1
cas=288-32-4
InChI=InChI=1S/C3H4N2/c1-2-5-3-4-1/h1-3H,(H,4,5)
computed SMILES=N=1C=CNC1
accession=JP005749
date=2016.01.19 (Created 2008.10.21, modified 2011.05.06)
author=MASS SPECTROSCOPY SOC. OF JAPAN (MSSJ)
license=CC BY-NC-SA
exact mass=68.03745
ionization energy=70 eV
ion type=[M]+*
computed spectral entropy=1.6924276417296837
computed normalized entropy=0.7702570138649547
SPLASH=splash10-014l-9000000000-e6b2b7faf77dcf80d593
submitter=submitter = University of Tokyo Team (Faculty of Engineering, University of Tokyo)
MoNA Rating=3.75

>  <NUM PEAKS>  (3782) 
9

>  <MASS SPECTRAL PEAKS>  (3782) 
26 2.1
28 22.4
38 6.2
39 9.1
40 31.3
41 58.6
67 10.1
68 99.99
69 9.7

>  <PREDICTED SPECTRUM>  (3782) 
25 18
26 35
27 8
28 87
38 69
39 119
40 215
41 271
42 177
50 29
51 110
52 192
53 46
67 339
68 999
69 220

$$$$

     RDKit          2D

 16 16  0  0  0  0  0  0  0  0999 V2000
   -3.7973    1.1152    0.0000 C   0  0  0  0  0  0  0  0  0  0  0  0
    1.5152    5.5729    0.0000 C   0  0  0  0  0  0  0  0  0  0  0  0
   -3.3057    3.9029    0.0000 C   0  0  0  0  0  0  0  0  0  0  0  0
   -2.4982    1.8652    0.0000 C   0  0  0  0  0  0  0  0  0  0  0  0
    0.5510    4.4238    0.0000 C   0  0  0  0  0  0  0  0  0  0  0  0
   -2.3416    2.7538    0.0000 C   0  0  0  0  0  0  0  0  0  0  0  0
    3.9969   -0.3848    0.0000 C   0  0  0  0  0  0  0  0  0  0  0  0
    3.9974    1.1161    0.0000 C   0  0  0  0  0  0  0  0  0  0  0  0
    2.6974   -1.1356    0.0000 C   0  0  0  0  0  0  0  0  0  0  0  0
    2.6984    1.8661    0.0000 C   0  0  0  0  0  0  0  0  0  0  0  0
    1.3984   -0.3856    0.0000 C   0  0  0  0  0  0  0  0  0  0  0  0
    1.3989    1.1152    0.0000 C   0  0  0  0  0  0  0  0  0  0  0  0
    0.0998    1.8652    0.0000 C   0  0  0  0  0  0  0  0  0  0  0  0
   -1.1992    1.1152    0.0000 O   0  0  0  0  0  0  0  0  0  0  0  0
    1.0640    3.0143    0.0000 O   0  0  0  0  0  0  0  0  0  0  0  0
   -0.8643    3.0143    0.0000 O   0  0  0  0  0  0  0  0  0  0  0  0
  4  1  1  0
  5  2  1  0
  6  3  1  0
  8  7  2  0
  9  7  1  0
 10  8  1  0
 11  9  2  0
 12 10  2  0
 12 11  1  0
 13 12  1  0
 14  4  1  0
 14 13  1  0
 15  5  1  0
 15 13  1  0
 16  6  1  0
 16 13  1  0
M  END
>  <NAME>  (3783) 
TRIETHYL ORTHOBENZOATE

>  <SYNONYMS>  (3783) 


>  <SPECTRUM TYPE>  (3783) 
MS1

>  <INSTRUMENT TYPE>  (3783) 
EI-B

>  <INSTRUMENT>  (3783) 
HITACHI M-80

>  <ION MODE>  (3783) 
P

>  <INCHIKEY>  (3783) 
BQFPCTXLBRVFJL-UHFFFAOYSA-N

>  <FORMULA>  (3783) 
C13H20O3

>  <EXACT MASS>  (3783) 
224.14124449999997

>  <MW>  (3783) 
224

>  <ID>  (3783) 
JP005748

>  <CONTRIBUTOR>  (3783) 
University of Tokyo Team, {Faculty of Engineering, University of Tokyo

>  <COMMENT>  (3783) 
SMILES=CCOC(OCC)(OCC)c(c1)cccc1
cas=1663-61-2
InChI=InChI=1S/C13H20O3/c1-4-14-13(15-5-2,16-6-3)12-10-8-7-9-11-12/h7-11H,4-6H2,1-3H3
computed SMILES=O(CC)C(OCC)(OCC)C=1C=CC=CC1
date=2016.01.19 (Created 2008.10.21, modified 2011.05.06)
author=MASS SPECTROSCOPY SOC. OF JAPAN (MSSJ)
accession=JP005748
license=CC BY-NC-SA
exact mass=224.14124
ionization energy=70 eV
ion type=[M]+*
computed spectral entropy=2.7364980729399346
computed normalized entropy=0.7826375389825304
SPLASH=splash10-004i-4900000000-e0e23d4149f8a7774613
submitter=submitter = University of Tokyo Team (Faculty of Engineering, University of Tokyo)
MoNA Rating=3.75

>  <NUM PEAKS>  (3783) 
33

>  <MASS SPECTRAL PEAKS>  (3783) 
15 2.1
27 11
28 15
29 20
30 1.9
31 2.5
43 3.2
44 3.3
45 3
50 2.6
51 10.6
63 5.2
69 4
76 2.3
77 34
78 4.9
79 25
80 2.1
91 4.6
105 48
106 6.3
107 2
119 2.4
122 6.6
123 65
124 5.8
147 5.5
150 1.4
151 35
152 3.2
179 99.99
180 13
181 1.4

>  <PREDICTED SPECTRUM>  (3783) 
14 18
15 39
16 0
17 13
18 30
25 19
26 107
27 282
28 129
29 405
30 28
31 190
32 8
37 18
38 45
39 144
41 121
42 6
43 653
44 132
45 93
46 30
47 171
49 52
50 196
51 323
52 97
53 82
57 52
59 17
61 84
62 86
63 170
64 39
65 118
69 29
74 6
75 0
76 82
77 630
78 285
79 375
80 104
81 155
82 7
83 55
87 49
88 1
89 83
91 235
92 10
93 136
94 30
95 245
97 81
102 11
103 77
104 6
105 999
106 403
107 414
108 122
109 59
111 28
121 113
122 63
123 417
124 42
125 188
127 79
134 93
135 315
136 122
137 130
138 48
147 117
149 67
150 310
151 651
152 215
153 31
165 32
166 110
178 17
179 584
180 185
181 140
183 117
185 16
195 261
209 11

$$$$

     RDKit          2D

 19 21  0  0  0  0  0  0  0  0999 V2000
    6.4968    3.0006    0.0000 C   0  0  0  0  0  0  0  0  0  0  0  0
    5.1971    3.7512    0.0000 C   0  0  0  0  0  0  0  0  0  0  0  0
    6.4975    1.4998    0.0000 C   0  0  0  0  0  0  0  0  0  0  0  0
    3.8982    3.0010    0.0000 C   0  0  0  0  0  0  0  0  0  0  0  0
    5.1986    0.7496    0.0000 C   0  0  0  0  0  0  0  0  0  0  0  0
   -1.3000   -1.5000    0.0000 C   0  0  0  0  0  0  0  0  0  0  0  0
   -2.6000   -0.7500    0.0000 C   0  0  0  0  0  0  0  0  0  0  0  0
    2.6000   -0.7500    0.0000 C   0  0  0  0  0  0  0  0  0  0  0  0
    3.8989    1.5002    0.0000 C   0  0  0  0  0  0  0  0  0  0  0  0
    0.0000   -0.7500    0.0000 C   0  0  0  0  0  0  0  0  0  0  0  0
   -2.6000    0.7500    0.0000 C   0  0  0  0  0  0  0  0  0  0  0  0
    1.3000   -1.5000    0.0000 C   0  0  0  0  0  0  0  0  0  0  0  0
    2.6000    0.7500    0.0000 C   0  0  0  0  0  0  0  0  0  0  0  0
   -1.3000    1.5000    0.0000 C   0  0  0  0  0  0  0  0  0  0  0  0
    0.0000    0.7500    0.0000 C   0  0  0  0  0  0  0  0  0  0  0  0
   -3.8989    1.5002    0.0000 O   0  0  0  0  0  0  0  0  0  0  0  0
    1.3000   -3.0000    0.0000 O   0  0  0  0  0  0  0  0  0  0  0  0
   -1.3000    3.0000    0.0000 O   0  0  0  0  0  0  0  0  0  0  0  0
    1.3000    1.5000    0.0000 O   0  0  0  0  0  0  0  0  0  0  0  0
  2  1  2  0
  3  1  1  0
  4  2  1  0
  5  3  2  0
  7  6  2  0
  9  4  2  0
  9  5  1  0
 10  6  1  0
 11  7  1  0
 12  8  1  0
 12 10  1  0
 13  8  1  0
 13  9  1  0
 14 11  2  0
 15 10  2  0
 15 14  1  0
 16 11  1  0
 17 12  2  0
 18 14  1  0
 19 13  1  0
 19 15  1  0
M  END
>  <NAME>  (3784) 
7,8-DIHYDROXYFLAVANONE

>  <SYNONYMS>  (3784) 


>  <SPECTRUM TYPE>  (3784) 
MS1

>  <INSTRUMENT TYPE>  (3784) 
EI-B

>  <INSTRUMENT>  (3784) 
HITACHI M-80

>  <ION MODE>  (3784) 
P

>  <INCHIKEY>  (3784) 
OXEDXEXEXGPMOG-UHFFFAOYSA-N

>  <FORMULA>  (3784) 
C15H12O4

>  <EXACT MASS>  (3784) 
256.073558864

>  <MW>  (3784) 
256

>  <ID>  (3784) 
JP005746

>  <CONTRIBUTOR>  (3784) 
University of Tokyo Team, {Faculty of Engineering, University of Tokyo

>  <COMMENT>  (3784) 
SMILES=Oc(c3)c(O)c(O1)c(c3)C(=O)CC(c(c2)cccc2)1
InChI=InChI=1S/C15H12O4/c16-11-7-6-10-12(17)8-13(19-15(10)14(11)18)9-4-2-1-3-5-9/h1-7,13,16,18H,8H2
computed SMILES=O=C1C2=CC=C(O)C(O)=C2OC(C=3C=CC=CC3)C1
accession=JP005746
date=2016.01.19 (Created 2008.10.21, modified 2011.05.06)
author=MASS SPECTROSCOPY SOC. OF JAPAN (MSSJ)
license=CC BY-NC-SA
exact mass=256.07356
ionization energy=70 eV
ion type=[M]+*
computed spectral entropy=3.113725246600804
computed normalized entropy=0.7431937566041008
SPLASH=splash10-03di-2490000000-a633e63160c826f99254
submitter=submitter = University of Tokyo Team (Faculty of Engineering, University of Tokyo)
MoNA Rating=3.75

>  <NUM PEAKS>  (3784) 
66

>  <MASS SPECTRAL PEAKS>  (3784) 
39 4.4
50 2.4
51 6.8
52 2.8
53 1.8
55 2
63 3.4
64 2.2
65 3.1
66 1.5
68 1.6
70 1.5
75 1.5
76 4.5
77 9.1
78 6
79 2.5
84 3.2
89 2.1
91 3.2
102 2.8
103 4.4
104 2.4
105 2.3
106 1.8
106.5 1.3
107 1.3
114 1.1
115 5.3
123 1.4
124 2.6
126 2.5
127 3.5
128 7
129 3.91
131 1.4
139 6.1
140 1.6
141 2.1
150 1.7
151 1.9
152 30.8
153 4.5
157 1.4
165 1.5
167 1.3
168 1.6
179 1.5
181 2.2
185 1.8
196 2.5
197 5.6
198 1
209 1.2
212 1
213 99.99
214 53.1
215 7.4
227 2.5
228 1.9
238 4
239 1
255 1.3
256 55
257 9.1
258 1.2

>  <PREDICTED SPECTRUM>  (3784) 
27 15
38 47
39 202
40 75
41 83
42 48
43 175
44 66
50 160
51 309
52 239
53 201
54 58
55 132
57 11
61 12
62 84
63 186
64 139
65 182
66 90
67 39
68 32
69 158
74 47
75 101
76 116
77 289
78 280
79 213
80 99
81 42
82 42
83 109
84 32
89 116
90 10
91 207
93 37
94 55
95 66
96 5
97 15
101 37
102 199
103 282
104 330
105 238
106 83
107 103
108 48
109 132
110 105
111 42
112 44
114 25
115 207
116 100
117 5
123 24
124 176
126 84
127 125
128 160
129 95
130 8
131 164
134 20
136 65
137 144
138 16
139 5
140 18
141 15
151 132
152 485
153 165
154 118
155 20
156 55
157 91
167 6
168 126
169 13
179 195
180 56
181 36
183 34
184 38
185 99
186 28
196 33
197 106
198 13
199 47
211 75
212 46
213 999
214 717
215 223
216 41
227 137
228 47
229 8
238 3
239 70
240 0
255 180
256 913
257 359
258 127

$$$$

     RDKit          2D

 14 15  0  0  0  0  0  0  0  0999 V2000
   -6.4970    1.2506    0.0000 C   0  0  0  0  0  0  0  0  0  0  0  0
   -5.1981    0.5004    0.0000 C   0  0  0  0  0  0  0  0  0  0  0  0
   -1.3000   -1.7500    0.0000 C   0  0  0  0  0  0  0  0  0  0  0  0
    1.3000   -1.7500    0.0000 C   0  0  0  0  0  0  0  0  0  0  0  0
   -2.6000   -1.0000    0.0000 C   0  0  0  0  0  0  0  0  0  0  0  0
    2.6000   -1.0000    0.0000 C   0  0  0  0  0  0  0  0  0  0  0  0
   -1.3000    1.2500    0.0000 C   0  0  0  0  0  0  0  0  0  0  0  0
    0.0000   -1.0000    0.0000 C   0  0  0  0  0  0  0  0  0  0  0  0
   -2.6000    0.5000    0.0000 C   0  0  0  0  0  0  0  0  0  0  0  0
    0.0000    0.5000    0.0000 C   0  0  0  0  0  0  0  0  0  0  0  0
    2.6000    0.5000    0.0000 C   0  0  0  0  0  0  0  0  0  0  0  0
    3.8989    1.2502    0.0000 O   0  0  0  0  0  0  0  0  0  0  0  0
   -3.8989    1.2502    0.0000 O   0  0  0  0  0  0  0  0  0  0  0  0
    1.3000    1.2500    0.0000 O   0  0  0  0  0  0  0  0  0  0  0  0
  2  1  1  0
  5  3  2  0
  6  4  2  0
  8  3  1  0
  8  4  1  0
  9  5  1  0
  9  7  2  0
 10  7  1  0
 10  8  2  0
 11  6  1  0
 12 11  2  0
 13  2  1  0
 13  9  1  0
 14 10  1  0
 14 11  1  0
M  END
>  <NAME>  (3785) 
7-ETHOXYCOUMARIN

>  <SYNONYMS>  (3785) 


>  <SPECTRUM TYPE>  (3785) 
MS1

>  <INSTRUMENT TYPE>  (3785) 
EI-B

>  <INSTRUMENT>  (3785) 
HITACHI M-80

>  <ION MODE>  (3785) 
P

>  <INCHIKEY>  (3785) 
LIFAQMGORKPVDH-UHFFFAOYSA-N

>  <FORMULA>  (3785) 
C11H10O3

>  <EXACT MASS>  (3785) 
190.06299417999998

>  <MW>  (3785) 
190

>  <ID>  (3785) 
JP005745

>  <CONTRIBUTOR>  (3785) 
University of Tokyo Team, {Faculty of Engineering, University of Tokyo

>  <COMMENT>  (3785) 
SMILES=CCOc(c1)cc(O2)c(C=CC(=O)2)c1
cas=31005-02-4
InChI=InChI=1S/C11H10O3/c1-2-13-9-5-3-8-4-6-11(12)14-10(8)7-9/h3-7H,2H2,1H3
computed SMILES=O=C1OC=2C=C(OCC)C=CC2C=C1
accession=JP005745
date=2016.01.19 (Created 2008.10.21, modified 2011.05.06)
author=MASS SPECTROSCOPY SOC. OF JAPAN (MSSJ)
license=CC BY-NC-SA
exact mass=190.06299
ionization energy=70 eV
ion type=[M]+*
computed spectral entropy=2.926336938397269
computed normalized entropy=0.7406116015156564
SPLASH=splash10-001l-6900000000-de98e10650cac36f40c5
submitter=submitter = University of Tokyo Team (Faculty of Engineering, University of Tokyo)
MoNA Rating=3.75

>  <NUM PEAKS>  (3785) 
52

>  <MASS SPECTRAL PEAKS>  (3785) 
14 0.5
15 0.83
17 0.98
18 4.29
26 2.71
27 12.05
28 4.82
29 12.5
37 0.75
38 2.86
39 5.57
41 0.9
42 0.45
43 1.51
44.5 0.9
50 4.89
51 15.13
52 3.31
53 1.66
55 0.98
61 1.2
62 4.97
63 11.3
64 2.56
65 2.48
66 0.83
69 5.2
74 1.36
75 1.05
76 2.26
77 11.37
78 11.75
79 2.56
86 0.75
87 0.83
88 0.68
89 6.78
90 0.9
91 0.68
92 0.83
105 11.14
106 3.09
133 4.52
134 99.99
135 7.68
136 0.68
161 1.23
162 22.36
163 2.26
190 50
191 6.33
192 0.65

>  <PREDICTED SPECTRUM>  (3785) 
14 9
15 26
17 0
18 5
25 22
26 105
27 237
28 175
29 298
31 28
37 65
38 100
39 232
40 58
41 110
42 4
44 42
49 115
50 276
51 333
52 193
53 162
54 84
55 83
57 13
61 161
62 235
63 327
64 150
65 129
66 44
68 7
69 212
73 33
74 201
75 199
76 241
77 404
78 324
79 178
80 57
81 22
86 78
87 143
88 105
89 372
90 223
91 64
92 45
103 15
104 93
105 364
106 369
107 171
108 71
117 16
118 63
119 35
124 61
133 364
134 999
135 244
136 40
145 29
161 117
162 735
163 263
164 99
175 29
190 754
191 296
192 105

$$$$

     RDKit          2D

  8  8  0  0  0  0  0  0  0  0999 V2000
   -1.3993   -0.8494    0.0000 C   0  0  0  0  0  0  0  0  0  0  0  0
    1.1753   -1.5413    0.0000 C   0  0  0  0  0  0  0  0  0  0  0  0
    0.0604   -0.5378    0.0000 C   0  0  0  0  0  0  0  0  0  0  0  0
   -2.1493    0.4496    0.0000 C   0  0  0  0  0  0  0  0  0  0  0  0
    2.6018   -1.0775    0.0000 N   0  0  0  0  0  0  0  0  0  0  0  0
   -1.1546    1.5666    0.0000 N   0  0  0  0  0  0  0  0  0  0  0  0
   -3.6415    0.6023    0.0000 O   0  0  0  0  0  0  0  0  0  0  0  0
    0.2175    0.9501    0.0000 O   0  0  0  0  0  0  0  0  0  0  0  0
  3  1  2  0
  3  2  1  0
  4  1  1  0
  5  2  1  0
  6  4  2  0
  7  4  1  0
  8  3  1  0
  8  6  1  0
M  END
>  <NAME>  (3786) 
5-(AMINOMETHYL)-3-ISOXAZOLONE

>  <SYNONYMS>  (3786) 
MUSCIMOL

>  <SPECTRUM TYPE>  (3786) 
MS1

>  <INSTRUMENT TYPE>  (3786) 
EI-B

>  <INSTRUMENT>  (3786) 
HITACHI M-80

>  <ION MODE>  (3786) 
P

>  <INCHIKEY>  (3786) 
ZJQHPWUVQPJPQT-UHFFFAOYSA-N

>  <FORMULA>  (3786) 
C4H6N2O2

>  <EXACT MASS>  (3786) 
114.042927432

>  <MW>  (3786) 
114

>  <ID>  (3786) 
JP005744

>  <CONTRIBUTOR>  (3786) 
University of Tokyo Team, {Faculty of Engineering, University of Tokyo

>  <COMMENT>  (3786) 
SMILES=NCC(O1)=CC(=O)N1
InChI=InChI=1S/C4H6N2O2/c5-2-3-1-4(7)6-8-3/h1H,2,5H2,(H,6,7)
computed SMILES=OC1=NOC(=C1)CN
accession=JP005744
date=2016.01.19 (Created 2008.10.21, modified 2011.05.06)
author=MASS SPECTROSCOPY SOC. OF JAPAN (MSSJ)
license=CC BY-NC-SA
exact mass=114.04293
ionization energy=70 eV
ion type=[M]+*
computed spectral entropy=3.1421012967265343
computed normalized entropy=0.8206831017414884
SPLASH=splash10-003r-9000000000-8a5c7c8119385828f867
submitter=submitter = University of Tokyo Team (Faculty of Engineering, University of Tokyo)
MoNA Rating=3.75

>  <NUM PEAKS>  (3786) 
46

>  <MASS SPECTRAL PEAKS>  (3786) 
14 2.5
15 2.7
16 1
17 1.7
18 3.1
26 2.9
27 7.5
28 49.1
29 18.1
30 99.99
31 2.7
38 4.6
39 11.8
40 5
41 10.1
42 15.2
43 16
44 5.6
45 1.2
47 1.6
48 0.8
49 8
51 4.1
53 2.7
54 7.2
55 6.5
56 6.7
57 2.8
58 2
59 1.7
66 1.2
67 3.5
68 4.8
69 8.7
70 20.5
71 29.5
82 4.4
83 22.2
85 1.7
86 5.3
88 0.7
97 12.8
98 4.9
113 8.9
114 10.3
115 9.5

>  <PREDICTED SPECTRUM>  (3786) 
14 69
15 147
16 62
17 50
18 73
25 35
26 206
27 307
28 403
29 515
30 983
31 253
32 15
33 26
34 39
36 144
37 306
38 511
39 466
40 570
41 801
42 999
43 842
44 840
45 366
46 251
48 18
49 21
50 309
51 597
52 635
53 697
54 733
55 503
56 924
57 639
58 381
59 128
65 14
66 261
67 384
68 667
69 759
70 276
71 243
72 200
73 190
74 14
75 177
76 35
80 242
82 401
83 30
84 489
85 658
86 388
87 29
95 63
96 103
97 789
98 308
99 125
112 70
113 525
114 951
115 325
116 20

$$$$

     RDKit          2D

  9  9  0  0  0  0  0  0  0  0999 V2000
   -1.3000    2.2498    0.0000 C   0  0  0  0  0  0  0  0  0  0  0  0
   -0.0000   -0.0002    0.0000 C   0  0  0  0  0  0  0  0  0  0  0  0
    1.3000    2.2498    0.0000 C   0  0  0  0  0  0  0  0  0  0  0  0
   -1.3000    0.7498    0.0000 N   0  0  0  0  0  0  0  0  0  0  0  0
   -0.0000    2.9998    0.0000 N   0  0  0  0  0  0  0  0  0  0  0  0
    1.3000    0.7498    0.0000 N   0  0  0  0  0  0  0  0  0  0  0  0
   -2.5989    3.0000    0.0000 O   0  0  0  0  0  0  0  0  0  0  0  0
   -0.0000   -1.5002    0.0000 O   0  0  0  0  0  0  0  0  0  0  0  0
    2.5989    3.0000    0.0000 O   0  0  0  0  0  0  0  0  0  0  0  0
  4  1  2  0
  4  2  1  0
  5  1  1  0
  5  3  2  0
  6  2  2  0
  6  3  1  0
  7  1  1  0
  8  2  1  0
  9  3  1  0
M  END
>  <NAME>  (3787) 
CYANURIC ACID

>  <SYNONYMS>  (3787) 
1,3,5-TRIAZINE-2,4,6(1H,3H,5H)-TRIONE

>  <SPECTRUM TYPE>  (3787) 
MS1

>  <INSTRUMENT TYPE>  (3787) 
EI-B

>  <INSTRUMENT>  (3787) 
HITACHI M-80

>  <ION MODE>  (3787) 
P

>  <INCHIKEY>  (3787) 
ZFSLODLOARCGLH-UHFFFAOYSA-N

>  <FORMULA>  (3787) 
C3H3N3O3

>  <EXACT MASS>  (3787) 
129.017440956

>  <MW>  (3787) 
129

>  <ID>  (3787) 
JP005743

>  <CONTRIBUTOR>  (3787) 
University of Tokyo Team, {Faculty of Engineering, University of Tokyo

>  <COMMENT>  (3787) 
SMILES=Oc(n1)nc(O)nc(O)1
cas=108-80-5
InChI=InChI=1S/C3H3N3O3/c7-1-4-2(8)6-3(9)5-1/h(H3,4,5,6,7,8,9)
computed SMILES=OC=1N=C(O)N=C(O)N1
accession=JP005743
date=2016.01.19 (Created 2008.10.21, modified 2011.05.06)
author=MASS SPECTROSCOPY SOC. OF JAPAN (MSSJ)
license=CC BY-NC-SA
exact mass=129.01744
ionization energy=70 eV
ion type=[M]+*
computed spectral entropy=1.276262346716968
computed normalized entropy=0.5808520257243027
SPLASH=splash10-004i-4900000000-61ecfa8dc25736843860
submitter=submitter = University of Tokyo Team (Faculty of Engineering, University of Tokyo)
MoNA Rating=3.75

>  <NUM PEAKS>  (3787) 
9

>  <MASS SPECTRAL PEAKS>  (3787) 
28 3.1
41 1.6
43 33
70 7.2
86 12
87 1.3
129 99.99
130 6.3
131 1.5

>  <PREDICTED SPECTRUM>  (3787) 
14 57
15 176
16 88
17 130
18 179
19 21
25 44
26 156
27 349
28 337
29 553
30 145
31 226
32 77
33 74
34 56
35 11
36 113
37 72
38 132
39 113
40 269
41 400
42 390
43 776
44 896
45 334
46 77
47 14
49 67
50 87
51 49
53 217
54 63
55 162
56 144
57 239
58 258
59 172
60 91
61 7
62 8
65 27
66 87
67 98
69 286
70 370
71 193
72 125
73 90
74 87
75 12
83 103
84 297
85 294
86 380
87 129
92 147
100 109
101 388
102 220
103 29
113 82
114 113
127 57
128 227
129 999
130 253
131 139

$$$$

     RDKit          2D

 24 25  0  0  1  0  0  0  0  0999 V2000
  -11.0418    5.9458    0.0000 C   0  0  0  0  0  0  0  0  0  0  0  0
    4.5466    5.9458    0.0000 C   0  0  0  0  0  0  0  0  0  0  0  0
  -11.0423    4.4450    0.0000 C   0  0  0  0  0  0  0  0  0  0  0  0
   -9.7423    6.6967    0.0000 C   0  0  0  0  0  0  0  0  0  0  0  0
    3.2471    6.6967    0.0000 C   0  0  0  0  0  0  0  0  0  0  0  0
    4.5471    4.4450    0.0000 C   0  0  0  0  0  0  0  0  0  0  0  0
   -9.7433    3.6950    0.0000 C   0  0  0  0  0  0  0  0  0  0  0  0
   -8.4433    5.9467    0.0000 C   0  0  0  0  0  0  0  0  0  0  0  0
    1.9481    5.9467    0.0000 C   0  0  0  0  0  0  0  0  0  0  0  0
    3.2481    3.6950    0.0000 C   0  0  0  0  0  0  0  0  0  0  0  0
   -7.1447    3.6958    0.0000 C   0  0  0  0  0  0  0  0  0  0  0  0
   -1.9486    3.6958    0.0000 C   0  0  0  0  0  0  0  0  0  0  0  0
   -8.4437    4.4458    0.0000 C   0  0  0  0  0  0  0  0  0  0  0  0
    1.9486    4.4458    0.0000 C   0  0  0  0  0  0  0  0  0  0  0  0
   -5.8457    4.4458    0.0000 C   0  0  0  0  0  0  0  0  0  0  0  0
   -3.2476    4.4458    0.0000 C   0  0  0  0  0  0  0  0  0  0  0  0
    0.6495    3.6958    0.0000 C   0  0  0  0  0  0  0  0  0  0  0  0
   -5.8457    5.9458    0.0000 C   0  0  0  0  0  0  0  0  0  0  0  0
   -0.6495    4.4458    0.0000 N   0  0  0  0  0  0  0  0  0  0  0  0
   -4.5466    3.6958    0.0000 N   0  0  0  0  0  0  0  0  0  0  0  0
   -3.2476    5.9458    0.0000 O   0  0  0  0  0  0  0  0  0  0  0  0
    0.6495    2.1958    0.0000 O   0  0  0  0  0  0  0  0  0  0  0  0
   -4.5466    6.6958    0.0000 O   0  0  0  0  0  0  0  0  0  0  0  0
   -7.1447    6.6958    0.0000 O   0  0  0  0  0  0  0  0  0  0  0  0
  3  1  2  0
  4  1  1  0
  5  2  2  0
  6  2  1  0
  7  3  1  0
  8  4  2  0
  9  5  1  0
 10  6  2  0
 13  7  2  0
 13  8  1  0
 13 11  1  0
 14  9  2  0
 14 10  1  0
 15 11  1  6
 16 12  1  0
 17 14  1  0
 18 15  1  0
 19 12  1  0
 19 17  2  3
 15 20  1  0
 20 16  2  3
 21 16  1  0
 22 17  1  0
 23 18  2  0
 24 18  1  0
M  END
>  <NAME>  (3788) 
N-HIPPURYL-L-PHENYLALANINE

>  <SYNONYMS>  (3788) 


>  <SPECTRUM TYPE>  (3788) 
MS1

>  <INSTRUMENT TYPE>  (3788) 
EI-B

>  <INSTRUMENT>  (3788) 
HITACHI M-80

>  <ION MODE>  (3788) 
P

>  <INCHIKEY>  (3788) 
CCLJGZGVIQBNDH-OAHLLOKOSA-N

>  <FORMULA>  (3788) 
C18H18N2O4

>  <EXACT MASS>  (3788) 
326.126657056

>  <MW>  (3788) 
326

>  <ID>  (3788) 
JP005742

>  <CONTRIBUTOR>  (3788) 
University of Tokyo Team, {Faculty of Engineering, University of Tokyo

>  <COMMENT>  (3788) 
SMILES=O=C(CNC(=O)c(c2)cccc2)NC([H])(C(O)=O)Cc(c1)cccc1
InChI=InChI=1S/C18H18N2O4/c21-16(12-19-17(22)14-9-5-2-6-10-14)20-15(18(23)24)11-13-7-3-1-4-8-13/h1-10,15H,11-12H2,(H,19,22)(H,20,21)(H,23,24)/t15-/m1/s1
computed SMILES=O=C(O)C(N=C(O)CN=C(O)C=1C=CC=CC1)CC=2C=CC=CC2
accession=JP005742
date=2016.01.19 (Created 2008.10.21, modified 2011.05.06)
author=MASS SPECTROSCOPY SOC. OF JAPAN (MSSJ)
license=CC BY-NC-SA
exact mass=326.12666
ionization energy=70 eV
ion type=[M]+*
computed spectral entropy=2.853721954784511
computed normalized entropy=0.778947437065598
SPLASH=splash10-0a6s-1900000000-6926a7a90c408dcf5cd2
submitter=submitter = University of Tokyo Team (Faculty of Engineering, University of Tokyo)
MoNA Rating=3.75

>  <NUM PEAKS>  (3788) 
39

>  <MASS SPECTRAL PEAKS>  (3788) 
27 1.4
51 8.6
74 2.3
76 2.1
77 35.9
78 4.8
79 2.6
92 4.1
104 12.4
105 99.99
106 10.4
117 2.7
118 3.2
119 8.5
120 21.2
121 3.3
131 1.9
133 1.8
134 47.8
135 18.2
136 1.7
146 1.9
147 10.3
148 64.2
149 7.2
160 2.2
161 3.8
162 42.1
163 4.9
165 3.7
166 2.2
178 3.4
179 33.6
180 4.1
217 3.3
282 3.5
326 4.1
327 2.1
328 0.5

>  <PREDICTED SPECTRUM>  (3788) 
13 0
14 22
15 50
16 33
17 51
18 78
19 23
25 15
26 58
27 130
28 150
29 128
30 86
31 73
32 29
33 23
34 12
36 29
37 67
38 97
39 293
40 123
41 309
42 379
43 363
44 419
45 252
46 114
47 37
49 41
50 276
51 459
52 248
53 172
54 134
55 207
56 128
57 129
58 114
59 48
60 130
61 92
62 129
63 264
64 155
65 483
66 109
67 49
68 131
69 123
70 127
71 103
72 87
73 94
74 210
75 137
76 191
77 681
78 339
79 253
80 84
81 42
82 54
83 17
84 66
85 35
86 130
87 81
88 61
89 291
90 154
91 999
92 376
93 123
94 87
95 31
96 76
97 60
98 104
99 28
100 71
101 108
102 225
103 495
104 301
105 569
106 169
107 146
108 77
111 3
112 13
114 45
115 258
116 207
117 353
118 230
119 180
120 239
121 233
122 132
123 11
124 3
125 7
126 11
127 15
128 149
129 91
130 170
131 271
132 227
133 127
134 97
135 105
136 25
137 5
142 48
143 32
144 153
145 125
146 217
147 245
148 279
149 120
150 35
152 31
155 22
156 8
157 46
158 82
159 111
160 198
161 164
162 174
163 104
164 31
165 33
166 22
168 30
170 8
171 39
172 81
173 149
174 177
175 120
176 63
177 56
178 106
179 93
180 103
181 32
182 14
183 20
184 38
186 48
187 6
188 55
189 141
190 102
191 78
192 129
193 51
194 80
195 11
196 6
197 28
203 10
204 125
206 98
207 77
208 52
209 34
210 58
211 3
217 64
218 108
219 27
220 41
221 64
222 2
223 65
233 62
234 142
235 241
236 164
237 109
263 128
264 101
265 31
279 25
280 96
281 49
282 96
308 73
309 7
326 18

$$$$

     RDKit          2D

 11 11  0  0  0  0  0  0  0  0999 V2000
   -0.0000   -1.5000    0.0000 C   0  0  0  0  0  0  0  0  0  0  0  0
   -1.3000    0.7500    0.0000 C   0  0  0  0  0  0  0  0  0  0  0  0
    1.3000   -0.7500    0.0000 C   0  0  0  0  0  0  0  0  0  0  0  0
    0.0000    1.5000    0.0000 C   0  0  0  0  0  0  0  0  0  0  0  0
   -1.3000   -0.7500    0.0000 C   0  0  0  0  0  0  0  0  0  0  0  0
    1.3000    0.7500    0.0000 C   0  0  0  0  0  0  0  0  0  0  0  0
   -2.5989   -1.5002    0.0000 N   0  0  0  0  0  0  0  0  0  0  0  0
    3.3491    0.2013    0.0000 O   0  0  0  0  0  0  0  0  0  0  0  0
    3.8978    2.2504    0.0000 O   0  0  0  0  0  0  0  0  0  0  0  0
    1.8487    2.7991    0.0000 O   0  0  0  0  0  0  0  0  0  0  0  0
    2.5989    1.5002    0.0000 S   0  0  0  0  0  0  0  0  0  0  0  0
  3  1  2  0
  4  2  1  0
  5  1  1  0
  5  2  2  0
  6  3  1  0
  6  4  2  0
  7  5  1  0
 11  6  1  0
 11  8  1  0
 11  9  2  0
 11 10  2  0
M  END
>  <NAME>  (3789) 
SULFANILIC ACID

>  <SYNONYMS>  (3789) 


>  <SPECTRUM TYPE>  (3789) 
MS1

>  <INSTRUMENT TYPE>  (3789) 
EI-B

>  <INSTRUMENT>  (3789) 
HITACHI M-80

>  <ION MODE>  (3789) 
P

>  <INCHIKEY>  (3789) 
HVBSAKJJOYLTQU-UHFFFAOYSA-N

>  <FORMULA>  (3789) 
C6H7NO3S

>  <EXACT MASS>  (3789) 
173.01466408399997

>  <MW>  (3789) 
173

>  <ID>  (3789) 
JP005739

>  <CONTRIBUTOR>  (3789) 
University of Tokyo Team, {Faculty of Engineering, University of Tokyo

>  <COMMENT>  (3789) 
SMILES=Nc(c1)ccc(c1)S(O)(=O)=O
cas=121-57-3
InChI=InChI=1S/C6H7NO3S/c7-5-1-3-6(4-2-5)11(8,9)10/h1-4H,7H2,(H,8,9,10)
computed SMILES=O=S(=O)(O)C1=CC=C(N)C=C1
accession=JP005739
date=2016.01.19 (Created 2008.10.21, modified 2011.05.06)
author=MASS SPECTROSCOPY SOC. OF JAPAN (MSSJ)
license=CC BY-NC-SA
exact mass=173.01466
ionization energy=70 eV
ion type=[M]+*
computed spectral entropy=2.7385818926260104
computed normalized entropy=0.8051817008302157
SPLASH=splash10-05fr-8900000000-e928aec8ce5fc6e7ed0e
submitter=submitter = University of Tokyo Team (Faculty of Engineering, University of Tokyo)
MoNA Rating=3.75

>  <NUM PEAKS>  (3789) 
30

>  <MASS SPECTRAL PEAKS>  (3789) 
18 2.3
27 2.9
28 8.9
38 3.6
39 14.8
40 2.1
48 4.6
51 3.1
52 6.3
53 7.3
54 3.6
62 3.5
63 9
64 6.8
65 34.8
66 6.8
80 28.2
81 5.6
91 5.7
92 25.8
93 11.5
104 2.5
106 4.9
108 62.5
109 13.4
140 2.2
156 7.2
173 99.99
174 8.5
175 6

>  <PREDICTED SPECTRUM>  (3789) 
16 11
17 24
18 1
26 24
27 98
28 73
29 77
33 21
34 18
36 22
37 65
38 151
39 385
40 84
41 280
42 103
44 32
45 21
46 73
48 140
50 150
51 155
52 259
53 187
54 110
55 13
61 46
62 148
63 316
64 335
65 834
66 263
67 47
74 50
75 30
76 23
80 249
81 148
82 61
83 32
90 14
91 152
92 999
93 478
94 193
95 28
108 909
109 384
110 68
140 353
156 801
157 442
158 336
173 730
174 255
175 157
176 28

$$$$

     RDKit          2D

 14 15  0  0  0  0  0  0  0  0999 V2000
   -2.6000   -0.7500    0.0000 C   0  0  0  0  0  0  0  0  0  0  0  0
   -2.6000    0.7500    0.0000 C   0  0  0  0  0  0  0  0  0  0  0  0
   -1.3000   -1.5000    0.0000 C   0  0  0  0  0  0  0  0  0  0  0  0
   -1.3000    1.5000    0.0000 C   0  0  0  0  0  0  0  0  0  0  0  0
    0.0000   -0.7500    0.0000 C   0  0  0  0  0  0  0  0  0  0  0  0
    0.0000    0.7500    0.0000 C   0  0  0  0  0  0  0  0  0  0  0  0
    2.6000   -0.7500    0.0000 C   0  0  0  0  0  0  0  0  0  0  0  0
    2.6000    0.7500    0.0000 C   0  0  0  0  0  0  0  0  0  0  0  0
    1.3000   -1.5000    0.0000 C   0  0  0  0  0  0  0  0  0  0  0  0
    1.3000    1.5000    0.0000 C   0  0  0  0  0  0  0  0  0  0  0  0
    3.8989   -1.5002    0.0000 Cl  0  0  0  0  0  0  0  0  0  0  0  0
    3.8989    1.5002    0.0000 Cl  0  0  0  0  0  0  0  0  0  0  0  0
    1.3000   -3.0000    0.0000 O   0  0  0  0  0  0  0  0  0  0  0  0
    1.3000    3.0000    0.0000 O   0  0  0  0  0  0  0  0  0  0  0  0
  2  1  2  0
  3  1  1  0
  4  2  1  0
  5  3  2  0
  6  4  2  0
  6  5  1  0
  8  7  2  0
  9  5  1  0
  9  7  1  0
 10  6  1  0
 10  8  1  0
 11  7  1  0
 12  8  1  0
 13  9  2  0
 14 10  2  0
M  END
>  <NAME>  (3790) 
2,3-DICHLORO-1,4-NAPHTHOQUINONE

>  <SYNONYMS>  (3790) 


>  <SPECTRUM TYPE>  (3790) 
MS1

>  <INSTRUMENT TYPE>  (3790) 
EI-B

>  <INSTRUMENT>  (3790) 
HITACHI M-80

>  <ION MODE>  (3790) 
P

>  <INCHIKEY>  (3790) 
SVPKNMBRVBMTLB-UHFFFAOYSA-N

>  <FORMULA>  (3790) 
C10H4Cl2O2

>  <EXACT MASS>  (3790) 
225.958834728

>  <MW>  (3790) 
226

>  <ID>  (3790) 
JP005738

>  <CONTRIBUTOR>  (3790) 
University of Tokyo Team, {Faculty of Engineering, University of Tokyo

>  <COMMENT>  (3790) 
SMILES=O=c(c(Cl)1)c(c2)c(ccc2)c(=O)c(Cl)1
cas=117-80-6
InChI=InChI=1S/C10H4Cl2O2/c11-7-8(12)10(14)6-4-2-1-3-5(6)9(7)13/h1-4H
computed SMILES=O=C1C(Cl)=C(Cl)C(=O)C=2C=CC=CC12
ionization energy=70 eV
ion type=[M]+*
accession=JP005738
date=2016.01.19 (Created 2008.10.21, modified 2011.05.06)
author=MASS SPECTROSCOPY SOC. OF JAPAN (MSSJ)
license=CC BY-NC-SA
exact mass=225.95883
computed spectral entropy=3.883000959679608
computed normalized entropy=0.8260859864319428
SPLASH=splash10-0fbi-9410000000-5ade8aaec752af81441d
submitter=submitter = University of Tokyo Team (Faculty of Engineering, University of Tokyo)
MoNA Rating=3.75

>  <NUM PEAKS>  (3790) 
110

>  <MASS SPECTRAL PEAKS>  (3790) 
17 2.04
18 6.86
25 1.1
26 5.39
27 5.68
28 3.58
29 3.09
35 7.44
36 2.01
37 13.11
38 16.09
39 10.04
40 0.65
41 0.95
45 4.62
47 5.14
48 0.98
49 13.07
50 99.99
51 17.14
52 8.87
53 6.63
59 8.04
60 4.69
61 17.34
62 9.21
63 10.2
64 1.26
65 6.26
66 6.36
67 0.99
69 0.84
71 1.81
72 2.58
73 17.06
74 84.95
75 45.54
76 77.36
77 12.2
78 1.59
79 0.85
80 0.99
82 0.48
83 0.91
84 6.4
85 12.22
86 7.77
87 60.31
88 1.6
89 18.58
90 0.86
91 16.83
92 2.61
94 40.96
95 1.75
96 26.73
97 6.87
98 16.72
99 46.73
100 9.37
101 3.96
102 1.22
103 1.2
104 17.93
105 2.24
108 8.99
109 15.5
110 4.32
111 5.45
112 1.09
119 0.58
120 1.32
121 1.65
122 1.83
123 3.28
129 2.97
131 1.29
132 0.91
133 2.06
134 3.09
135 50.55
136 7.54
137 17.31
138 2.28
139 1.58
163 85.14
164 9.8
165 26.5
166 2.89
169 1.03
170 2.92
171 0.88
172 2.37
191 78.13
192 9.14
193 26.25
194 3.12
198 11.09
200 6.92
201 0.94
202 1.36
214 3.5
225 1.7
226 50.46
227 7.27
228 36.09
229 4.69
230 6.21
231 0.84
232 0.6

>  <PREDICTED SPECTRUM>  (3790) 
25 13
35 106
36 112
37 144
38 147
39 111
40 65
43 101
44 114
47 104
48 60
49 208
50 394
51 252
52 127
53 106
55 35
56 10
57 22
59 5
60 172
61 286
62 263
63 253
64 81
65 2
66 1
67 26
68 41
69 182
70 31
71 93
72 145
73 353
74 386
75 484
76 196
77 57
80 12
82 18
83 30
84 193
85 278
86 321
87 317
88 76
89 28
90 9
91 9
92 14
94 83
95 17
96 128
97 227
98 168
99 312
100 193
101 134
102 98
103 40
104 55
105 51
106 22
107 113
108 154
109 219
110 187
111 116
112 31
113 43
114 12
115 56
119 4
120 22
121 96
122 148
123 99
124 7
125 40
126 54
127 147
128 158
129 53
134 20
135 165
136 130
137 156
138 33
143 98
155 31
156 36
157 62
159 33
163 380
164 141
165 250
166 59
170 49
171 7
172 54
191 999
192 256
193 740
194 226
195 158
196 31
197 35
198 52
199 23
200 22
226 499
227 160
228 424
229 133
230 231
231 64

$$$$

     RDKit          2D

 12 12  0  0  0  0  0  0  0  0999 V2000
    3.8981    0.0804    0.0000 C   0  0  0  0  0  0  0  0  0  0  0  0
   -1.2990    3.0800    0.0000 C   0  0  0  0  0  0  0  0  0  0  0  0
   -0.0000   -2.1700    0.0000 C   0  0  0  0  0  0  0  0  0  0  0  0
   -1.3000   -1.4200    0.0000 C   0  0  0  0  0  0  0  0  0  0  0  0
    1.3000   -1.4200    0.0000 C   0  0  0  0  0  0  0  0  0  0  0  0
   -2.5989    0.8302    0.0000 C   0  0  0  0  0  0  0  0  0  0  0  0
   -1.3000    0.0800    0.0000 C   0  0  0  0  0  0  0  0  0  0  0  0
    1.3000    0.0800    0.0000 C   0  0  0  0  0  0  0  0  0  0  0  0
   -0.0000    0.8300    0.0000 C   0  0  0  0  0  0  0  0  0  0  0  0
   -3.8981    0.0804    0.0000 O   0  0  0  0  0  0  0  0  0  0  0  0
    2.5989    0.8302    0.0000 O   0  0  0  0  0  0  0  0  0  0  0  0
    0.0000    2.3300    0.0000 O   0  0  0  0  0  0  0  0  0  0  0  0
  4  3  2  0
  5  3  1  0
  7  4  1  0
  7  6  1  0
  8  5  2  0
  9  7  2  0
  9  8  1  0
 10  6  2  0
 11  1  1  0
 11  8  1  0
 12  2  1  0
 12  9  1  0
M  END
>  <NAME>  (3791) 
2,3-DIMETHOXYBENZALDEHYDE

>  <SYNONYMS>  (3791) 


>  <SPECTRUM TYPE>  (3791) 
MS1

>  <INSTRUMENT TYPE>  (3791) 
EI-B

>  <INSTRUMENT>  (3791) 
HITACHI M-80

>  <ION MODE>  (3791) 
P

>  <INCHIKEY>  (3791) 
JIVGSHFYXPRRSZ-UHFFFAOYSA-N

>  <FORMULA>  (3791) 
C9H10O3

>  <EXACT MASS>  (3791) 
166.06299417999998

>  <MW>  (3791) 
166

>  <ID>  (3791) 
JP005737

>  <CONTRIBUTOR>  (3791) 
University of Tokyo Team, {Faculty of Engineering, University of Tokyo

>  <COMMENT>  (3791) 
SMILES=O=Cc(c1)c(OC)c(OC)cc1
cas=86-51-1
InChI=InChI=1S/C9H10O3/c1-11-8-5-3-4-7(6-10)9(8)12-2/h3-6H,1-2H3
computed SMILES=O=CC=1C=CC=C(OC)C1OC
accession=JP005737
date=2016.01.19 (Created 2008.10.21, modified 2011.05.06)
author=MASS SPECTROSCOPY SOC. OF JAPAN (MSSJ)
license=CC BY-NC-SA
exact mass=166.06299
ionization energy=70 eV
ion type=[M]+*
computed spectral entropy=3.8762314985864887
computed normalized entropy=0.8657448968440469
SPLASH=splash10-0gb9-9700000000-e16ac86b1e205e196920
submitter=submitter = University of Tokyo Team (Faculty of Engineering, University of Tokyo)
MoNA Rating=3.75

>  <NUM PEAKS>  (3791) 
88

>  <MASS SPECTRAL PEAKS>  (3791) 
14 2.29
15 27.79
16 0.52
17 0.53
18 2.3
26 2.99
27 2.68
28 4.59
29 16.63
30 1.49
31 2.17
37 2.08
38 5.46
39 13.17
40 0.97
41 10.94
42 0.71
43 1.94
45 0.61
49 1.07
50 14.04
51 29.29
52 26.27
53 10.81
54 1.72
55 5.28
61 1.61
62 5.73
63 15.66
64 6.31
65 23.58
66 3.22
67 11.89
68 0.75
69 2.05
70 0.13
73 0.38
74 3.01
75 3.03
76 24.81
77 33.31
78 11.71
79 12.13
80 12.94
81 2.38
82 0.32
89 0.49
90 10.07
91 6.41
92 7.98
93 11.4
94 2.99
95 20.53
96 1.38
104 10.18
105 17.47
106 7.85
107 15.68
108 21.06
109 8.96
110 0.93
118 2.77
119 7.91
120 15.17
121 8.82
122 9.8
123 13.75
124 3.12
125 0.35
133 8.47
134 1.13
135 5.28
136 10.71
137 9.88
138 1.96
139 0.54
147 1.95
148 19.79
149 9.98
150 2.62
151 27.35
152 2.58
153 0.4
165 10.53
166 99.99
167 13.47
168 1.98
169 0.2

>  <PREDICTED SPECTRUM>  (3791) 
14 41
15 182
16 17
18 2
25 17
26 99
27 164
28 115
29 220
30 74
31 99
32 3
33 0
36 0
37 137
38 213
39 396
40 137
41 210
42 85
43 115
44 90
45 60
46 5
47 39
48 5
49 131
50 439
51 616
52 382
53 438
54 161
55 154
56 46
57 55
59 74
60 5
61 177
62 309
63 542
64 339
65 503
66 260
67 196
68 84
69 127
70 39
74 237
75 312
76 301
77 718
78 408
79 436
80 263
81 177
82 33
83 58
84 10
86 60
87 24
88 66
89 178
90 210
91 435
92 383
93 375
94 302
95 413
96 157
97 111
102 16
103 158
104 235
105 460
106 413
107 610
108 454
109 126
110 102
111 11
116 40
117 168
118 197
119 358
120 465
121 448
122 348
123 557
124 170
125 39
131 25
132 39
133 338
134 256
135 685
136 465
137 532
138 187
139 42
147 47
148 250
149 298
150 173
151 739
152 239
153 73
163 39
165 625
166 999
167 368
168 77

$$$$

     RDKit          2D

 11 11  0  0  0  0  0  0  0  0999 V2000
    3.8981   -0.7504    0.0000 C   0  0  0  0  0  0  0  0  0  0  0  0
    2.5987   -3.0002    0.0000 C   0  0  0  0  0  0  0  0  0  0  0  0
   -1.3000   -0.7500    0.0000 C   0  0  0  0  0  0  0  0  0  0  0  0
    0.0000    1.5000    0.0000 C   0  0  0  0  0  0  0  0  0  0  0  0
    0.0000   -1.5000    0.0000 C   0  0  0  0  0  0  0  0  0  0  0  0
    1.3000    0.7500    0.0000 C   0  0  0  0  0  0  0  0  0  0  0  0
   -2.5989    1.5002    0.0000 C   0  0  0  0  0  0  0  0  0  0  0  0
   -1.3000    0.7500    0.0000 C   0  0  0  0  0  0  0  0  0  0  0  0
    1.3000   -0.7500    0.0000 C   0  0  0  0  0  0  0  0  0  0  0  0
    2.5989   -1.5002    0.0000 N   0  0  0  0  0  0  0  0  0  0  0  0
   -3.8981    0.7504    0.0000 O   0  0  0  0  0  0  0  0  0  0  0  0
  5  3  2  0
  6  4  1  0
  8  3  1  0
  8  4  2  0
  8  7  1  0
  9  5  1  0
  9  6  2  0
 10  1  1  0
 10  2  1  0
 10  9  1  0
 11  7  2  0
M  END
>  <NAME>  (3792) 
4-DIMETHYLAMINOBENZALDEHYDE

>  <SYNONYMS>  (3792) 


>  <SPECTRUM TYPE>  (3792) 
MS1

>  <INSTRUMENT TYPE>  (3792) 
EI-B

>  <INSTRUMENT>  (3792) 
HITACHI M-80

>  <ION MODE>  (3792) 
P

>  <INCHIKEY>  (3792) 
BGNGWHSBYQYVRX-UHFFFAOYSA-N

>  <FORMULA>  (3792) 
C9H11NO

>  <EXACT MASS>  (3792) 
149.084063972

>  <MW>  (3792) 
149

>  <ID>  (3792) 
JP005736

>  <CONTRIBUTOR>  (3792) 
University of Tokyo Team, {Faculty of Engineering, University of Tokyo

>  <COMMENT>  (3792) 
SMILES=O=Cc(c1)ccc(c1)N(C)C
cas=100-10-7
InChI=InChI=1S/C9H11NO/c1-10(2)9-5-3-8(7-11)4-6-9/h3-7H,1-2H3
computed SMILES=O=CC1=CC=C(C=C1)N(C)C
accession=JP005736
date=2016.01.19 (Created 2008.10.21, modified 2011.05.06)
author=MASS SPECTROSCOPY SOC. OF JAPAN (MSSJ)
license=CC BY-NC-SA
exact mass=149.08406
ionization energy=70 eV
ion type=[M]+*
computed spectral entropy=3.2178942434881375
computed normalized entropy=0.7766810533556474
SPLASH=splash10-0002-8900000000-a5df85637be8575d39f8
submitter=submitter = University of Tokyo Team (Faculty of Engineering, University of Tokyo)
MoNA Rating=3.75

>  <NUM PEAKS>  (3792) 
63

>  <MASS SPECTRAL PEAKS>  (3792) 
14 0.96
15 19.48
18 2.25
26 1.27
27 5.58
28 28.27
30 0.7
38 3.36
39 8.91
40 1.77
41 23.49
43 3.43
44 3.18
50 13.29
51 21.09
52 4.17
53 1.94
54 0.82
55 0.86
59 0.83
60 0.89
61 3.61
62 2.92
63 9.93
64 3.98
65 4.98
66 1.92
68 1.28
69 0.74
73 0.58
74 5.49
75 4.71
76 7.19
77 27.39
78 11.66
79 7.18
80 1.23
88 0.63
89 1.52
90 3.52
91 7.41
92 3.61
93 1.76
94 1.27
102 0.89
103 2.69
104 11.74
105 11.77
106 2.81
117 1.19
118 5.35
119 4.66
120 5.98
121 0.93
132 13.45
133 4.48
134 2.03
135 0.7
146 1
148 99.99
149 83.61
150 8.54
151 0.61

>  <PREDICTED SPECTRUM>  (3792) 
14 0
15 32
17 8
26 30
27 118
28 100
29 162
30 68
31 26
36 11
37 31
38 72
39 197
40 86
41 85
42 248
44 52
49 7
50 137
51 236
52 138
53 126
54 22
61 28
62 85
63 151
64 83
65 189
66 96
67 112
68 58
69 61
74 85
75 121
76 134
77 315
78 193
79 175
80 53
81 0
86 9
87 40
89 100
90 109
91 172
92 146
93 129
94 60
102 90
103 167
104 206
105 262
106 137
116 36
117 137
118 208
119 241
120 361
121 168
122 57
130 8
131 93
132 164
133 110
134 138
135 7
146 76
147 75
148 987
149 999
150 314
151 63

$$$$

     RDKit          2D

 24 27  0  0  1  0  0  0  0  0999 V2000
    6.0781    1.9994    0.0000 C   0  0  0  0  0  0  0  0  0  0  0  0
   -1.8400    0.7800    0.0000 C   0  0  0  0  0  0  0  0  0  0  0  0
    2.2172    3.0217    0.0000 C   0  0  0  0  0  0  0  0  0  0  0  0
   -0.5400   -2.9700    0.0000 C   0  0  0  0  0  0  0  0  0  0  0  0
    0.7600   -2.2200    0.0000 C   0  0  0  0  0  0  0  0  0  0  0  0
   -4.4400   -0.7200    0.0000 C   0  0  0  0  0  0  0  0  0  0  0  0
   -0.5400    1.5300    0.0000 C   0  0  0  0  0  0  0  0  0  0  0  0
    3.4800   -0.4400    0.0000 C   0  0  0  0  0  0  0  0  0  0  0  0
   -3.1400    0.0300    0.0000 C   0  0  0  0  0  0  0  0  0  0  0  0
    0.7600    2.2800    0.0000 C   0  0  0  0  0  0  0  0  0  0  0  0
    4.3700    0.7800    0.0000 C   0  0  0  0  0  0  0  0  0  0  0  0
   -3.1400   -2.9700    0.0000 C   0  0  0  0  0  0  0  0  0  0  0  0
    4.7763    2.7447    0.0000 C   0  0  0  0  0  0  0  0  0  0  0  0
   -1.8400   -2.2200    0.0000 C   0  0  0  0  0  0  0  0  0  0  0  0
   -4.4400   -2.2200    0.0000 C   0  0  0  0  0  0  0  0  0  0  0  0
    0.7600   -0.7200    0.0000 C   0  0  0  0  0  0  0  0  0  0  0  0
   -0.5400    0.0300    0.0000 C   0  0  0  0  0  0  0  0  0  0  0  0
    2.0600    0.0300    0.0000 C   0  0  0  0  0  0  0  0  0  0  0  0
   -1.8400   -0.7200    0.0000 C   0  0  0  0  0  0  0  0  0  0  0  0
    2.0600    1.5300    0.0000 C   0  0  0  0  0  0  0  0  0  0  0  0
    3.4800    1.9900    0.0000 C   0  0  0  0  0  0  0  0  0  0  0  0
    4.7709    4.2447    0.0000 O   0  0  0  0  0  0  0  0  0  0  0  0
   -5.7389   -2.9702    0.0000 O   0  0  0  0  0  0  0  0  0  0  0  0
    3.5277    0.4908    0.0000 O   0  0  0  0  0  0  0  0  0  0  0  0
  5  4  1  0
  9  6  1  0
 10  7  1  0
 11  8  1  0
 13  1  1  0
 14  4  1  0
 14 12  2  0
 15  6  1  0
 15 12  1  0
 16  5  1  6
 17  7  1  1
 17 16  1  0
 18  8  1  1
 18 16  1  0
 19  2  1  1
 19  9  1  0
 19 14  1  0
 19 17  1  0
 20  3  1  1
 20 10  1  0
 20 18  1  0
 21 11  1  0
 21 13  1  0
 21 20  1  0
 22 13  2  0
 23 15  2  0
 21 24  1  6
M  END
>  <NAME>  (3793) 
17-ALPHA-HYDROXYPROGESTERONE

>  <SYNONYMS>  (3793) 


>  <SPECTRUM TYPE>  (3793) 
MS1

>  <INSTRUMENT TYPE>  (3793) 
EI-B

>  <INSTRUMENT>  (3793) 
HITACHI M-80

>  <ION MODE>  (3793) 
P

>  <INCHIKEY>  (3793) 
DBPWSSGDRRHUNT-CEGNMAFCSA-N

>  <FORMULA>  (3793) 
C21H30O3

>  <EXACT MASS>  (3793) 
330.21949481999997

>  <MW>  (3793) 
330

>  <ID>  (3793) 
JP005735

>  <CONTRIBUTOR>  (3793) 
University of Tokyo Team, {Faculty of Engineering, University of Tokyo

>  <COMMENT>  (3793) 
SMILES=O=C(C4)C([H])=C(C3)C(C)(C4)C([H])(C2)C([H])(C3)C([H])(C1)C(C)(C2)C(O)(C(C)=O)C1
cas=604-09-1
InChI=InChI=1S/C21H30O3/c1-13(22)21(24)11-8-18-16-5-4-14-12-15(23)6-9-19(14,2)17(16)7-10-20(18,21)3/h12,16-18,24H,4-11H2,1-3H3/t16-,17+,18+,19+,20+,21+/m1/s1
computed SMILES=O=C1C=C2CCC3C(CCC4(C)C3CCC4(O)C(=O)C)C2(C)CC1
accession=JP005735
date=2016.01.19 (Created 2008.10.21, modified 2011.05.06)
author=MASS SPECTROSCOPY SOC. OF JAPAN (MSSJ)
license=CC BY-NC-SA
exact mass=330.21949
ionization energy=70 eV
ion type=[M]+*
computed spectral entropy=4.5354939484441825
computed normalized entropy=0.8618204351086786
SPLASH=splash10-002o-9651000000-b44110f9abcffa42ce35
submitter=submitter = University of Tokyo Team (Faculty of Engineering, University of Tokyo)
MoNA Rating=3.75

>  <NUM PEAKS>  (3793) 
193

>  <MASS SPECTRAL PEAKS>  (3793) 
14 1.48
15 5.41
17 1.25
18 6.11
26 2.01
27 8.45
28 4.87
29 10.87
38 1
39 12.36
40 3.02
41 28.8
42 4.11
43 99.99
44 4.09
45 3.31
50 1.36
51 3.47
52 2.51
53 13.04
54 2.79
55 25.73
56 2.05
57 4.06
58 9.13
59 3.71
63 1.48
64 0.72
65 7.98
66 3.7
67 20.96
68 3.71
69 6.73
70 0.9
71 6.09
72 1.12
77 20.55
78 6.28
79 30.71
80 4.86
81 14.82
82 2.31
83 7.09
84 1.09
85 2.12
86 0.96
87 8.62
88 0.74
89 0.94
90 0.58
91 34.19
92 6.25
93 20.21
94 5.04
95 15.03
96 3.24
97 20.46
98 1.81
99 1.34
100 1.85
101 0.74
102 0.72
103 3.26
104 2.43
105 23.27
106 5.49
107 17.14
108 5.47
109 15.8
110 3.24
111 3.83
112 0.5
113 1.57
114 0.36
115 5.72
116 2.57
117 8.74
118 2.78
119 14.33
120 5.96
121 17.35
122 9.37
123 18.75
124 14.2
125 2.49
127 1.49
128 4.3
129 6.27
130 3.1
131 11.27
132 3.09
133 4.86
138 1.22
141 2.7
142 2.12
143 5.7
144 2.75
145 22.34
146 4.86
147 14.17
148 6.81
149 7.57
150 1.77
151 1.1
155 3.12
156 1.49
157 5.01
158 1.99
159 9.41
160 3.15
161 7.16
162 2.96
163 3.41
164 0.75
165 1.52
169 3.31
170 1.43
171 6.41
172 2.31
173 8.73
174 5.44
175 4
176 1.46
177 1.45
183 2.94
184 1.67
185 4.65
186 2.31
187 6.37
188 2.18
189 3.78
190 1.05
191 1.2
195 1.97
196 0.77
197 1.65
198 1.26
199 3.5
200 2.88
201 5.73
202 2.67
203 1.64
209 1.89
210 0.8
211 7.92
212 2.06
213 5.51
214 2.52
215 3.19
216 1.74
217 1.66
225 2.42
226 2.75
227 6.48
228 4.06
229 53.3
230 10.16
231 1.87
241 1.58
242 6.84
243 8.47
244 18.67
245 5.87
246 0.9
251 3.89
252 1.37
253 0.97
268 0.84
269 21.97
270 5.01
271 1.35
272 0.83
273 0.58
279 1.22
284 0.64
285 1.17
286 1.88
287 96.75
288 20.3
289 2.48
295 0.43
297 1.89
298 0.59
302 2.97
303 0.72
312 7.66
313 2.6
314 0.74
315 3.44
316 0.9
330 40.78
331 20.2
332 3.87

>  <PREDICTED SPECTRUM>  (3793) 
41 458
42 129
43 795
44 103
45 167
49 3
51 126
52 98
53 388
54 122
55 627
56 135
57 284
58 92
59 105
64 1
65 292
66 157
67 607
68 181
69 348
70 37
71 394
72 41
73 161
77 473
78 200
79 581
80 152
81 496
82 103
83 260
84 132
85 277
86 68
87 162
91 731
92 276
93 562
94 189
95 521
96 161
97 343
98 60
99 146
100 111
101 92
103 121
104 76
105 527
106 196
107 596
108 288
109 525
110 222
111 247
115 190
116 89
117 290
118 145
119 460
120 222
121 565
122 440
123 476
124 428
125 163
127 52
128 144
129 251
130 79
131 391
132 161
133 475
134 187
135 476
136 354
137 475
138 201
141 138
142 62
143 290
144 137
145 453
146 175
147 410
148 220
149 350
150 98
151 56
155 89
157 266
158 30
159 440
160 201
161 389
162 183
163 366
164 7
165 35
169 208
171 271
172 73
173 369
174 151
175 228
176 110
177 48
183 102
184 1
185 167
186 77
187 310
188 148
189 223
190 31
195 108
197 121
198 52
199 305
200 67
201 355
202 22
203 103
209 91
211 342
212 103
213 236
214 103
215 176
216 32
217 96
225 265
226 105
227 437
228 204
229 685
230 353
231 271
232 72
239 91
240 124
241 151
242 385
243 523
244 531
245 486
246 71
247 11
251 151
252 22
253 37
254 40
256 18
257 117
259 27
267 0
268 70
269 900
270 367
271 140
272 114
279 49
284 7
285 100
286 88
287 999
288 529
289 27
295 35
297 113
299 3
301 4
302 119
303 107
312 259
313 106
315 87
328 23
330 917
331 389
332 117

$$$$

     RDKit          2D

 10 11  0  0  1  0  0  0  0  0999 V2000
   -0.4775    2.9800    0.0000 C   0  0  0  0  0  0  0  0  0  0  0  0
    1.3259   -2.1785    0.0000 C   0  0  0  0  0  0  0  0  0  0  0  0
    2.2869   -0.5080    0.0000 C   0  0  0  0  0  0  0  0  0  0  0  0
   -1.7800    0.7300    0.0000 C   0  0  0  0  0  0  0  0  0  0  0  0
   -1.7800   -0.7700    0.0000 C   0  0  0  0  0  0  0  0  0  0  0  0
   -0.4800   -0.0200    0.0000 C   0  0  0  0  0  0  0  0  0  0  0  0
   -0.4800    1.4800    0.0000 C   0  0  0  0  0  0  0  0  0  0  0  0
   -0.4800   -1.5200    0.0000 C   0  0  0  0  0  0  0  0  0  0  0  0
    0.8100    0.7300    0.0000 C   0  0  0  0  0  0  0  0  0  0  0  0
    0.8100   -0.7700    0.0000 C   0  0  0  0  0  0  0  0  0  0  0  0
  5  4  1  0
  7  1  2  0
  7  4  1  0
  8  5  1  1
  8  6  1  0
  9  6  1  6
  9  7  1  0
 10  2  1  0
 10  3  1  0
 10  8  1  0
 10  9  1  0
M  END
>  <NAME>  (3794) 
(1S)-(-)-BETA-PINENE

>  <SYNONYMS>  (3794) 


>  <SPECTRUM TYPE>  (3794) 
MS1

>  <INSTRUMENT TYPE>  (3794) 
EI-B

>  <INSTRUMENT>  (3794) 
HITACHI M-80

>  <ION MODE>  (3794) 
P

>  <INCHIKEY>  (3794) 
WTARULDDTDQWMU-IUCAKERBSA-N

>  <FORMULA>  (3794) 
C10H16

>  <EXACT MASS>  (3794) 
136.125200512

>  <MW>  (3794) 
136

>  <ID>  (3794) 
JP005734

>  <CONTRIBUTOR>  (3794) 
University of Tokyo Team, {Faculty of Engineering, University of Tokyo

>  <COMMENT>  (3794) 
SMILES=C=C(C2)C([H])(C1)C(C)(C)C([H])(C2)1
cas=18172-67-3
InChI=InChI=1S/C10H16/c1-7-4-5-8-6-9(7)10(8,2)3/h8-9H,1,4-6H2,2-3H3/t8-,9-/m0/s1
computed SMILES=C=C1CCC2CC1C2(C)C
accession=JP005734
date=2016.01.19 (Created 2008.10.21, modified 2011.05.06)
author=MASS SPECTROSCOPY SOC. OF JAPAN (MSSJ)
license=CC BY-NC-SA
exact mass=136.1252
ionization energy=70 eV
ion type=[M]+*
computed spectral entropy=3.229761786632554
computed normalized entropy=0.829884614199817
SPLASH=splash10-002f-9000000000-30fa40ae82c24567182c
submitter=submitter = University of Tokyo Team (Faculty of Engineering, University of Tokyo)
MoNA Rating=3.75

>  <NUM PEAKS>  (3794) 
49

>  <MASS SPECTRAL PEAKS>  (3794) 
14 2.3
15 3.7
16 1.5
17 5.3
18 18
26 2.5
27 28.5
28 23.8
29 10.2
32 7
38 2.7
39 39.1
40 6.5
41 69.1
42 3.8
43 8.7
50 3.4
51 9.4
52 6
53 16.2
54 2.3
55 10.5
56 1.1
57 1
63 2.9
65 7.8
66 3
67 12.6
68 3.6
69 43.5
70 2.4
77 23
78 5.6
79 26.3
80 11.3
81 3.9
82 1.7
91 19.6
92 9.2
93 99.99
94 13.3
95 2.7
105 3.1
107 4.3
108 1.4
121 10.2
122 0.9
136 7.2
137 0.7

>  <PREDICTED SPECTRUM>  (3794) 
26 60
27 300
28 48
29 180
37 58
38 120
39 517
40 227
41 708
42 161
43 349
44 139
45 80
46 8
49 3
50 167
51 345
52 215
53 416
54 209
55 402
56 133
57 83
58 113
59 128
60 9
61 4
62 67
63 157
64 94
65 307
66 226
67 631
68 344
69 408
70 156
71 38
73 18
74 42
75 83
76 10
77 463
78 253
79 634
80 334
81 399
82 200
83 80
84 21
87 51
89 48
90 10
91 525
92 308
93 999
94 411
95 324
96 147
101 22
102 26
103 119
104 87
105 187
106 173
107 412
108 211
109 92
115 39
116 15
117 42
118 83
119 155
120 80
121 739
122 244
123 9
134 33
135 184
136 394
137 106

$$$$

     RDKit          2D

 10 11  0  0  1  0  0  0  0  0999 V2000
   -0.4775    2.9800    0.0000 C   0  0  0  0  0  0  0  0  0  0  0  0
    1.3259   -2.1785    0.0000 C   0  0  0  0  0  0  0  0  0  0  0  0
    2.2869   -0.5080    0.0000 C   0  0  0  0  0  0  0  0  0  0  0  0
   -1.7800    0.7300    0.0000 C   0  0  0  0  0  0  0  0  0  0  0  0
   -1.7800   -0.7700    0.0000 C   0  0  0  0  0  0  0  0  0  0  0  0
   -0.4800   -0.0200    0.0000 C   0  0  0  0  0  0  0  0  0  0  0  0
   -0.4800    1.4800    0.0000 C   0  0  0  0  0  0  0  0  0  0  0  0
   -0.4800   -1.5200    0.0000 C   0  0  0  0  0  0  0  0  0  0  0  0
    0.8100    0.7300    0.0000 C   0  0  0  0  0  0  0  0  0  0  0  0
    0.8100   -0.7700    0.0000 C   0  0  0  0  0  0  0  0  0  0  0  0
  5  4  1  0
  7  1  1  0
  7  4  2  0
  8  5  1  6
  8  6  1  0
  9  6  1  1
  9  7  1  0
 10  2  1  0
 10  3  1  0
 10  8  1  0
 10  9  1  0
M  END
>  <NAME>  (3795) 
(1R)-(+)-ALPHA-PINENE

>  <SYNONYMS>  (3795) 


>  <SPECTRUM TYPE>  (3795) 
MS1

>  <INSTRUMENT TYPE>  (3795) 
EI-B

>  <INSTRUMENT>  (3795) 
HITACHI M-80

>  <ION MODE>  (3795) 
P

>  <INCHIKEY>  (3795) 
GRWFGVWFFZKLTI-RKDXNWHRSA-N

>  <FORMULA>  (3795) 
C10H16

>  <EXACT MASS>  (3795) 
136.125200512

>  <MW>  (3795) 
136

>  <ID>  (3795) 
JP005733

>  <CONTRIBUTOR>  (3795) 
University of Tokyo Team, {Faculty of Engineering, University of Tokyo

>  <COMMENT>  (3795) 
SMILES=[H]C(C1)=C(C)C([H])(C2)C(C)(C)C([H])12
cas=7785-70-8
InChI=InChI=1S/C10H16/c1-7-4-5-8-6-9(7)10(8,2)3/h4,8-9H,5-6H2,1-3H3/t8-,9-/m1/s1
computed SMILES=C1=C(C)C2CC(C1)C2(C)C
accession=JP005733
date=2016.01.19 (Created 2008.10.21, modified 2011.05.06)
license=CC BY-NC-SA
author=MASS SPECTROSCOPY SOC. OF JAPAN (MSSJ)
exact mass=136.1252
ionization energy=70 eV
ion type=[M]+*
computed spectral entropy=3.1275997057220737
computed normalized entropy=0.8168954419680349
SPLASH=splash10-0006-9100000000-efa1a7d8bd0221192f0d
submitter=submitter = University of Tokyo Team (Faculty of Engineering, University of Tokyo)
MoNA Rating=3.75

>  <NUM PEAKS>  (3795) 
46

>  <MASS SPECTRAL PEAKS>  (3795) 
41 6.72
42 1.48
43 18.57
45 1.78
53 1.78
55 9.94
56 2.33
57 3.56
58 2.99
59 3.99
67 11.97
68 9.04
69 11.9
70 4.16
71 2.79
77 8.25
78 1.86
79 19.18
80 11.69
81 7.98
82 8.38
83 6.83
84 4.39
85 1.41
91 12.77
92 40.56
93 99.99
94 15.18
96 2.39
97 3.31
98 1.63
105 4.99
106 1.67
107 8.24
108 3.26
109 12.5
110 2.05
111 0.96
119 4.24
120 0.83
121 13.25
122 1.42
134 1.4
135 1.8
136 7.35
137 3.53

>  <PREDICTED SPECTRUM>  (3795) 
26 44
27 337
28 41
29 259
30 9
37 18
38 78
39 463
40 164
41 719
42 141
43 279
44 23
50 145
51 315
52 186
53 364
54 88
55 335
56 90
57 44
58 20
62 56
63 173
64 152
65 374
66 241
67 469
68 227
69 432
70 95
74 50
75 103
76 68
77 540
78 293
79 654
80 337
81 328
82 123
89 65
90 63
91 868
92 600
93 999
94 366
95 178
96 63
102 34
103 137
104 73
105 313
106 109
107 341
108 62
109 52
115 21
117 136
118 15
119 366
120 15
121 430
122 144
134 73
135 40
136 284
137 89

$$$$

     RDKit          2D

 10 10  0  0  0  0  0  0  0  0999 V2000
    2.2733    3.1875    0.0000 C   0  0  0  0  0  0  0  0  0  0  0  0
    3.5724    0.9375    0.0000 C   0  0  0  0  0  0  0  0  0  0  0  0
   -0.3252    1.6883    0.0000 C   0  0  0  0  0  0  0  0  0  0  0  0
    0.9748   -0.5633    0.0000 C   0  0  0  0  0  0  0  0  0  0  0  0
   -1.6243    0.9383    0.0000 C   0  0  0  0  0  0  0  0  0  0  0  0
   -0.3243   -1.3133    0.0000 C   0  0  0  0  0  0  0  0  0  0  0  0
    0.9743    0.9375    0.0000 C   0  0  0  0  0  0  0  0  0  0  0  0
    2.2733    1.6875    0.0000 N   0  0  0  0  0  0  0  0  0  0  0  0
   -1.6238   -0.5625    0.0000 N   0  0  0  0  0  0  0  0  0  0  0  0
   -2.9228   -1.3125    0.0000 O   0  0  0  0  0  0  0  0  0  0  0  0
  5  3  2  0
  6  4  1  0
  7  3  1  0
  7  4  2  0
  8  1  1  0
  8  2  1  0
  8  7  1  0
  9  5  1  0
  9  6  2  0
 10  9  1  0
M  CHG  2   9   1  10  -1
M  END
>  <NAME>  (3796) 
4-DIMETHYLAMINOPYRIDINE-N-OXIDE

>  <SYNONYMS>  (3796) 


>  <SPECTRUM TYPE>  (3796) 
MS1

>  <INSTRUMENT TYPE>  (3796) 
EI-B

>  <INSTRUMENT>  (3796) 
HITACHI M-80

>  <ION MODE>  (3796) 
P

>  <INCHIKEY>  (3796) 
WZMNQOYCHMGCSS-UHFFFAOYSA-N

>  <FORMULA>  (3796) 
C7H10N2O

>  <EXACT MASS>  (3796) 
138.07931294

>  <MW>  (3796) 
138

>  <ID>  (3796) 
JP005731

>  <CONTRIBUTOR>  (3796) 
University of Tokyo Team, {Faculty of Engineering, University of Tokyo

>  <COMMENT>  (3796) 
SMILES=CN(C)c(c1)cc[n+1]([O-1])c1
InChI=InChI=1S/C7H10N2O/c1-8(2)7-3-5-9(10)6-4-7/h3-6H,1-2H3
computed SMILES=O=N1=CC=C(C=C1)N(C)C
accession=JP005731
date=2016.01.19 (Created 2008.10.21, modified 2011.05.06)
author=MASS SPECTROSCOPY SOC. OF JAPAN (MSSJ)
license=CC BY-NC-SA
exact mass=138.07931
ionization energy=70 eV
ion type=[M]+*
computed spectral entropy=3.3046584093786837
computed normalized entropy=0.817367426346946
SPLASH=splash10-00di-9700000000-99dca29de550f07d999f
submitter=submitter = University of Tokyo Team (Faculty of Engineering, University of Tokyo)
MoNA Rating=3.75

>  <NUM PEAKS>  (3796) 
57

>  <MASS SPECTRAL PEAKS>  (3796) 
14 6.6
15 10.4
16 3.8
17 9.5
18 44.8
26 2.7
27 4.7
28 25
29 2.3
30 1.8
32 5
38 3.6
39 10.9
40 3.6
41 7.3
42 18.1
43 6.1
44 10.6
50 10.2
51 23.7
52 10.2
53 4.4
54 3.4
55 3.6
57 2.3
63 1.9
64 1.9
65 3
66 5.8
67 3.9
68 5.8
69 3.3
77 1.5
78 16.7
79 7.4
80 5.9
81 2.3
82 10.7
83 1.3
92 3.6
93 3.2
94 8.2
95 3.3
105 7.1
106 7.6
107 7.5
108 4.5
109 3.1
110 1.4
119 2.6
120 2.6
121 99.99
122 89.5
123 7.5
137 1.9
138 32.7
139 2.4

>  <PREDICTED SPECTRUM>  (3796) 
15 49
16 11
25 0
26 52
27 122
28 132
29 89
30 88
34 7
37 70
38 155
39 301
40 145
41 232
42 339
43 234
44 128
49 10
50 169
51 270
52 289
53 179
54 205
55 213
56 171
57 44
59 2
61 54
62 50
63 111
64 151
65 187
66 235
67 196
68 200
69 194
70 72
71 15
76 103
77 143
78 292
79 313
80 274
81 159
82 108
83 84
90 26
91 2
92 276
93 250
94 224
95 148
96 66
104 17
105 170
106 264
107 293
108 159
109 176
110 60
119 96
120 76
121 999
122 834
123 257
136 8
137 175
138 778
139 191
140 7

$$$$

     RDKit          2D

  9  9  0  0  0  0  0  0  0  0999 V2000
   -3.5724    0.9375    0.0000 C   0  0  0  0  0  0  0  0  0  0  0  0
   -0.9748   -0.5633    0.0000 C   0  0  0  0  0  0  0  0  0  0  0  0
    0.3252    1.6883    0.0000 C   0  0  0  0  0  0  0  0  0  0  0  0
    0.3243   -1.3133    0.0000 C   0  0  0  0  0  0  0  0  0  0  0  0
    1.6243    0.9383    0.0000 C   0  0  0  0  0  0  0  0  0  0  0  0
   -0.9743    0.9375    0.0000 C   0  0  0  0  0  0  0  0  0  0  0  0
    1.6238   -0.5625    0.0000 N   0  0  0  0  0  0  0  0  0  0  0  0
    2.9228   -1.3125    0.0000 O   0  0  0  0  0  0  0  0  0  0  0  0
   -2.2733    1.6875    0.0000 O   0  0  0  0  0  0  0  0  0  0  0  0
  4  2  2  0
  5  3  1  0
  6  2  1  0
  6  3  2  0
  7  4  1  0
  7  5  2  0
  8  7  1  0
  9  1  1  0
  9  6  1  0
M  CHG  2   7   1   8  -1
M  END
>  <NAME>  (3797) 
4-METHOXYPYRIDINE-N-OXIDE

>  <SYNONYMS>  (3797) 


>  <SPECTRUM TYPE>  (3797) 
MS1

>  <INSTRUMENT TYPE>  (3797) 
EI-B

>  <INSTRUMENT>  (3797) 
HITACHI M-80

>  <ION MODE>  (3797) 
P

>  <INCHIKEY>  (3797) 
BOFAIBPJCWFJFT-UHFFFAOYSA-N

>  <FORMULA>  (3797) 
C6H7NO2

>  <EXACT MASS>  (3797) 
125.047678464

>  <MW>  (3797) 
125

>  <ID>  (3797) 
JP005730

>  <CONTRIBUTOR>  (3797) 
University of Tokyo Team, {Faculty of Engineering, University of Tokyo

>  <COMMENT>  (3797) 
SMILES=COc(c1)cc[n+1]([O-1])c1
cas=1122-96-9
InChI=InChI=1S/C6H7NO2/c1-9-6-2-4-7(8)5-3-6/h2-5H,1H3
computed SMILES=O=N1=CC=C(OC)C=C1
accession=JP005730
date=2016.01.19 (Created 2008.10.21, modified 2011.05.06)
author=MASS SPECTROSCOPY SOC. OF JAPAN (MSSJ)
license=CC BY-NC-SA
exact mass=125.04768
ionization energy=70 eV
ion type=[M]+*
computed spectral entropy=2.9873384068724307
computed normalized entropy=0.8402379612928724
SPLASH=splash10-004i-9600000000-3db14c1ab9d482847f1f
submitter=submitter = University of Tokyo Team (Faculty of Engineering, University of Tokyo)
MoNA Rating=3.75

>  <NUM PEAKS>  (3797) 
35

>  <MASS SPECTRAL PEAKS>  (3797) 
17 6.2
26 9.8
27 11.2
28 22.6
29 8.4
30 11.2
37 2.7
38 7.7
39 18.7
40 6.1
41 3.5
50 8.1
51 10.7
52 11.8
53 7.6
54 7.7
55 5.8
56 4.7
63 6.2
64 2.5
65 2
66 4.4
67 2
68 5.9
69 4.5
78 2.5
79 7.6
82 8.9
83 3.2
84 4.4
108 2.7
109 14.1
110 36.7
125 99.99
126 7.1

>  <PREDICTED SPECTRUM>  (3797) 
14 1
15 56
16 7
17 1
25 9
26 49
27 82
28 82
29 31
37 66
38 128
39 150
40 58
41 119
42 3
43 30
49 51
50 214
51 220
52 272
53 207
54 251
55 209
56 9
62 43
63 187
64 129
65 135
66 180
67 240
68 150
69 99
70 28
77 11
78 190
79 12
80 155
81 164
82 510
83 143
92 31
93 62
94 154
95 181
96 108
97 42
98 25
106 15
108 20
109 395
110 626
111 150
112 7
124 43
125 999
126 246
127 35

$$$$

     RDKit          2D

 24 27  0  0  1  0  0  0  0  0999 V2000
   -1.6125    0.9400    0.0000 C   0  0  0  0  0  0  0  0  0  0  0  0
    2.4507    3.1203    0.0000 C   0  0  0  0  0  0  0  0  0  0  0  0
   -0.3200   -2.8400    0.0000 C   0  0  0  0  0  0  0  0  0  0  0  0
    1.0100   -2.0900    0.0000 C   0  0  0  0  0  0  0  0  0  0  0  0
    3.7100   -0.3100    0.0000 C   0  0  0  0  0  0  0  0  0  0  0  0
    4.5500    0.8800    0.0000 C   0  0  0  0  0  0  0  0  0  0  0  0
   -4.2000   -0.5600    0.0000 C   0  0  0  0  0  0  0  0  0  0  0  0
   -0.3200    1.6300    0.0000 C   0  0  0  0  0  0  0  0  0  0  0  0
   -2.8900    0.1600    0.0000 C   0  0  0  0  0  0  0  0  0  0  0  0
    1.0100    2.3900    0.0000 C   0  0  0  0  0  0  0  0  0  0  0  0
   -2.8900   -2.8400    0.0000 C   0  0  0  0  0  0  0  0  0  0  0  0
    5.6618    3.8047    0.0000 C   0  0  0  0  0  0  0  0  0  0  0  0
   -1.6200   -2.0900    0.0000 C   0  0  0  0  0  0  0  0  0  0  0  0
   -4.2000   -2.0900    0.0000 C   0  0  0  0  0  0  0  0  0  0  0  0
    1.0100   -0.5600    0.0000 C   0  0  0  0  0  0  0  0  0  0  0  0
    2.2800    0.1600    0.0000 C   0  0  0  0  0  0  0  0  0  0  0  0
   -0.3200    0.1600    0.0000 C   0  0  0  0  0  0  0  0  0  0  0  0
    3.7100    2.0900    0.0000 C   0  0  0  0  0  0  0  0  0  0  0  0
    4.1909    3.5108    0.0000 C   0  0  0  0  0  0  0  0  0  0  0  0
   -1.6200   -0.5600    0.0000 C   0  0  0  0  0  0  0  0  0  0  0  0
    2.2800    1.6300    0.0000 C   0  0  0  0  0  0  0  0  0  0  0  0
    6.1427    5.2256    0.0000 O   0  0  0  0  0  0  0  0  0  0  0  0
   -5.4977   -2.8424    0.0000 O   0  0  0  0  0  0  0  0  0  0  0  0
    3.2009    4.6377    0.0000 O   0  0  0  0  0  0  0  0  0  0  0  0
  4  3  1  0
  6  5  1  0
  9  7  1  0
 10  8  1  0
 13  3  1  0
 13 11  2  0
 14  7  1  0
 14 11  1  0
 15  4  1  6
 16  5  1  1
 16 15  1  0
 17  8  1  1
 17 15  1  0
 18  6  1  0
 19 12  1  0
 18 19  1  1
 20  1  1  1
 20  9  1  0
 20 13  1  0
 20 17  1  0
 21  2  1  1
 21 10  1  0
 21 16  1  0
 21 18  1  0
 22 12  1  0
 23 14  2  0
 24 19  2  0
M  END
>  <NAME>  (3798) 
21-HYDROXYPROGESTERONE

>  <SYNONYMS>  (3798) 
DESOXYCORTICOSTERONE

>  <SPECTRUM TYPE>  (3798) 
MS1

>  <INSTRUMENT TYPE>  (3798) 
EI-B

>  <INSTRUMENT>  (3798) 
HITACHI M-80

>  <ION MODE>  (3798) 
P

>  <INCHIKEY>  (3798) 
ZESRJSPZRDMNHY-YFWFAHHUSA-N

>  <FORMULA>  (3798) 
C21H30O3

>  <EXACT MASS>  (3798) 
330.21949481999997

>  <MW>  (3798) 
330

>  <ID>  (3798) 
JP005729

>  <CONTRIBUTOR>  (3798) 
University of Tokyo Team, {Faculty of Engineering, University of Tokyo

>  <COMMENT>  (3798) 
SMILES=OCC(=O)C(C4)C(C)(C3)C([H])(C4)C([H])(C1)C([H])(C3)C(C)(C2)C(=CC(=O)C2)C1
cas=64-85-7
InChI=InChI=1S/C21H30O3/c1-20-9-7-14(23)11-13(20)3-4-15-16-5-6-18(19(24)12-22)21(16,2)10-8-17(15)20/h11,15-18,22H,3-10,12H2,1-2H3/t15-,16-,17-,18+,20-,21-/m0/s1
computed SMILES=O=C1C=C2CCC3C(CCC4(C)C(C(=O)CO)CCC34)C2(C)CC1
accession=JP005729
date=2016.01.19 (Created 2008.10.21, modified 2011.05.06)
author=MASS SPECTROSCOPY SOC. OF JAPAN (MSSJ)
license=CC BY-NC-SA
exact mass=330.21949
ionization energy=70 eV
ion type=[M]+*
computed spectral entropy=4.427947591623834
computed normalized entropy=0.8631647207268953
SPLASH=splash10-0005-9640000000-847952a8ec3d6fcf23d6
submitter=submitter = University of Tokyo Team (Faculty of Engineering, University of Tokyo)
MoNA Rating=3.75

>  <NUM PEAKS>  (3798) 
169

>  <MASS SPECTRAL PEAKS>  (3798) 
15 1.61
16 1.22
17 4.72
18 17.45
26 1.24
27 8.47
28 9.02
29 13.69
30 1.35
31 22.37
32 2.76
39 11.98
40 2.84
41 32.07
42 4.37
43 14.15
44 1.49
45 2
50 1.37
51 3.48
52 2.6
53 13.99
54 3.42
55 37.03
56 4.66
57 5.36
58 1.97
59 1.37
60 2.12
61 0.87
63 1.48
65 8.17
66 4.05
67 22.97
68 4.29
69 8.9
70 2.02
71 2.82
73 1.43
75 1.05
76 0.67
77 22.14
78 6.54
79 31.97
80 5.65
81 21.24
82 2.95
83 4.1
84 1.25
85 2.3
86 1.88
87 1.66
91 33.9
92 5.98
93 22.17
94 5.32
95 21.71
96 2.89
97 4.93
100 1.1
101 3.27
102 0.75
103 3.41
104 2.36
105 20.14
106 4.4
107 16.04
108 3.46
109 9.07
110 1.43
111 2.33
115 5.5
116 2.45
117 7.8
118 2.36
119 10.9
120 3.37
121 12.83
122 4.24
123 13.14
124 7.41
125 1.58
127 1.36
128 3.99
129 5.45
130 2.2
131 8.64
132 2.66
133 12.83
134 4.68
135 13.34
136 2.79
137 4.65
141 2.2
142 1.69
143 4.68
144 1.87
145 11.18
146 3.06
147 29.42
148 5.77
149 14.37
150 2.01
156 0.92
157 5.7
158 1.8
159 7.42
160 2.4
161 12.63
162 2.25
163 4.74
169 1.4
170 0.6
171 4.29
172 3.51
173 5.59
174 1.83
175 5.92
176 1.25
177 1.64
183 1.63
184 0.65
185 2.46
186 1.42
187 3.68
188 1.62
189 1.89
197 2.59
198 0.67
199 1.37
200 1.99
201 2.24
213 2.04
214 0.77
215 2.56
225 1.78
226 0.62
227 3.81
228 1.3
229 7.24
230 1.65
231 0.82
243 2.81
244 1.65
245 1.04
253 30.91
254 6.78
255 1.41
256 0.75
269 0.85
270 1.1
271 45.13
272 10.01
273 1.42
274 1.02
298 0.57
299 99.99
300 22.44
301 3.5
302 0.58
313 0.67
314 0.5
315 1.1
316 0.9
328 1.82
329 0.82
330 4.76
331 1.78
332 0.33

>  <PREDICTED SPECTRUM>  (3798) 
39 16
41 549
42 110
43 478
44 146
45 138
49 23
51 60
52 62
53 499
54 92
55 843
56 39
57 334
58 8
59 69
65 312
66 118
67 735
68 162
69 393
71 169
73 164
77 644
78 216
79 877
80 220
81 790
82 122
83 353
84 60
85 197
86 80
87 53
91 875
92 227
93 660
94 207
95 593
96 51
97 354
99 139
100 14
101 19
103 214
104 97
105 676
106 191
107 693
108 286
109 672
110 219
111 240
115 238
116 93
117 503
118 153
119 538
120 96
121 578
122 337
123 680
124 606
125 116
127 135
128 273
129 333
130 207
131 468
132 175
133 576
134 166
135 572
136 302
137 441
138 141
139 37
141 104
142 4
143 299
144 115
145 547
146 245
147 723
148 203
149 462
153 33
155 304
156 78
157 336
158 148
159 548
160 143
161 566
162 194
163 409
164 13
165 15
167 30
169 106
170 74
171 362
172 7
173 443
174 103
175 295
177 32
183 208
185 166
187 256
189 105
193 123
195 161
197 202
199 193
201 207
207 195
209 52
211 335
212 71
213 338
214 63
215 246
225 212
226 86
227 315
228 145
229 177
230 19
235 77
236 1
241 109
243 73
244 164
245 59
251 84
253 699
254 173
255 47
256 95
263 25
269 56
270 132
271 631
272 167
273 60
281 484
282 40
283 37
286 13
288 231
297 161
298 185
299 999
300 771
301 262
302 107
312 169
313 101
314 46
315 192
316 80
330 804
331 371
332 82

$$$$

     RDKit          2D

  7  7  0  0  0  0  0  0  0  0999 V2000
   -0.0000   -3.0000    0.0000 C   0  0  0  0  0  0  0  0  0  0  0  0
    1.3000   -2.2500    0.0000 C   0  0  0  0  0  0  0  0  0  0  0  0
   -1.3000   -2.2500    0.0000 C   0  0  0  0  0  0  0  0  0  0  0  0
    1.3000   -0.7500    0.0000 C   0  0  0  0  0  0  0  0  0  0  0  0
   -1.3000   -0.7500    0.0000 C   0  0  0  0  0  0  0  0  0  0  0  0
    0.0000    0.0000    0.0000 N   0  0  0  0  0  0  0  0  0  0  0  0
    0.0000    1.5000    0.0000 O   0  0  0  0  0  0  0  0  0  0  0  0
  2  1  2  0
  3  1  1  0
  4  2  1  0
  5  3  2  0
  6  4  2  0
  6  5  1  0
  7  6  1  0
M  CHG  2   6   1   7  -1
M  END
>  <NAME>  (3799) 
PYRIDINE-N-OXIDE

>  <SYNONYMS>  (3799) 


>  <SPECTRUM TYPE>  (3799) 
MS1

>  <INSTRUMENT TYPE>  (3799) 
EI-B

>  <INSTRUMENT>  (3799) 
HITACHI M-80

>  <ION MODE>  (3799) 
P

>  <INCHIKEY>  (3799) 
ILVXOBCQQYKLDS-UHFFFAOYSA-N

>  <FORMULA>  (3799) 
C5H5NO

>  <EXACT MASS>  (3799) 
95.03711378

>  <MW>  (3799) 
95

>  <ID>  (3799) 
JP005728

>  <CONTRIBUTOR>  (3799) 
University of Tokyo Team, {Faculty of Engineering, University of Tokyo

>  <COMMENT>  (3799) 
SMILES=[O-1][n+1](c1)cccc1
cas=694-59-7
InChI=InChI=1S/C5H5NO/c7-6-4-2-1-3-5-6/h1-5H
computed SMILES=O=N=1C=CC=CC1
accession=JP005728
date=2016.01.19 (Created 2008.10.21, modified 2011.05.06)
author=MASS SPECTROSCOPY SOC. OF JAPAN (MSSJ)
license=CC BY-NC-SA
exact mass=95.03711
ionization energy=70 eV
ion type=[M]+*
computed spectral entropy=2.6773035256681985
computed normalized entropy=0.7871649966870808
SPLASH=splash10-000j-9000000000-8e2277a8d54db2489c09
submitter=submitter = University of Tokyo Team (Faculty of Engineering, University of Tokyo)
MoNA Rating=3.75

>  <NUM PEAKS>  (3799) 
30

>  <MASS SPECTRAL PEAKS>  (3799) 
26 4.2
27 2.5
28 6.5
29 2.5
30 2.6
35 4.9
36 44.2
37 4.3
38 17.7
39 60.6
40 16.5
41 9.6
42 3.9
49 1.5
50 8.1
51 13.7
52 20.5
53 2.9
61 1
62 2.5
63 6.8
64 1.5
65 3.1
66 5.5
67 1.5
78 10.8
79 19.9
80 4
95 99.99
96 16.9

>  <PREDICTED SPECTRUM>  (3799) 
25 45
26 15
28 35
37 125
38 255
39 660
40 303
41 182
49 38
50 301
51 468
52 420
63 45
67 216
68 133
78 173
79 259
95 999
96 287

$$$$

     RDKit          2D

 13 13  0  0  0  0  0  0  0  0999 V2000
    6.8181   -0.2006    0.0000 C   0  0  0  0  0  0  0  0  0  0  0  0
    2.9101    2.0469    0.0000 C   0  0  0  0  0  0  0  0  0  0  0  0
    1.5966   -0.1779    0.0000 C   0  0  0  0  0  0  0  0  0  0  0  0
    0.3158    2.0533    0.0000 C   0  0  0  0  0  0  0  0  0  0  0  0
    4.1946    1.3221    0.0000 C   0  0  0  0  0  0  0  0  0  0  0  0
    2.9211   -0.9721    0.0000 C   0  0  0  0  0  0  0  0  0  0  0  0
   -0.9870    1.3097    0.0000 C   0  0  0  0  0  0  0  0  0  0  0  0
    1.6111    1.2969    0.0000 C   0  0  0  0  0  0  0  0  0  0  0  0
    4.2201   -0.2221    0.0000 C   0  0  0  0  0  0  0  0  0  0  0  0
   -2.2823    2.0661    0.0000 C   0  0  0  0  0  0  0  0  0  0  0  0
   -2.2749    3.5661    0.0000 O   0  0  0  0  0  0  0  0  0  0  0  0
   -3.5850    1.3225    0.0000 O   0  0  0  0  0  0  0  0  0  0  0  0
    5.5253   -0.9613    0.0000 O   0  0  0  0  0  0  0  0  0  0  0  0
  5  2  2  0
  6  3  1  0
  4  7  2  0
  8  2  1  0
  8  3  2  0
  8  4  1  0
  9  5  1  0
  9  6  2  0
 10  7  1  0
 11 10  2  0
 12 10  1  0
 13  1  1  0
 13  9  1  0
M  END
>  <NAME>  (3800) 
4-METHOXYCINNAMIC ACID

>  <SYNONYMS>  (3800) 


>  <SPECTRUM TYPE>  (3800) 
MS1

>  <INSTRUMENT TYPE>  (3800) 
EI-B

>  <INSTRUMENT>  (3800) 
HITACHI M-80

>  <ION MODE>  (3800) 
P

>  <INCHIKEY>  (3800) 
AFDXODALSZRGIH-QPJJXVBHSA-N

>  <FORMULA>  (3800) 
C10H10O3

>  <EXACT MASS>  (3800) 
178.06299417999998

>  <MW>  (3800) 
178

>  <ID>  (3800) 
JP005725

>  <CONTRIBUTOR>  (3800) 
University of Tokyo Team, {Faculty of Engineering, University of Tokyo

>  <COMMENT>  (3800) 
cas=830-09-1
SMILES=COc(c1)ccc(C=CC(O)=O)c1
InChI=InChI=1S/C10H10O3/c1-13-9-5-2-8(3-6-9)4-7-10(11)12/h2-7H,1H3,(H,11,12)/b7-4+
computed SMILES=O=C(O)C=CC1=CC=C(OC)C=C1
accession=JP005725
date=2016.01.19 (Created 2008.10.21, modified 2011.05.06)
author=MASS SPECTROSCOPY SOC. OF JAPAN (MSSJ)
license=CC BY-NC-SA
exact mass=178.06299
ionization energy=70 eV
ion type=[M]+*
computed spectral entropy=3.4992220475380362
computed normalized entropy=0.8104763592902958
SPLASH=splash10-004i-7900000000-6075ede461ba4ee4c7cd
submitter=submitter = University of Tokyo Team (Faculty of Engineering, University of Tokyo)
MoNA Rating=3.75

>  <NUM PEAKS>  (3800) 
75

>  <MASS SPECTRAL PEAKS>  (3800) 
15 9.6
26 1.69
27 2.53
37 1.34
38 3.85
39 9.59
40 1.25
45 9.12
49 0.6
50 8.7
51 10.48
52 2.52
53 3.76
61 1.53
62 8.85
63 21.69
64 8.82
65 7.1
66 1.26
67 0.54
74 4.71
75 5.56
76 3.48
77 20.02
78 3.65
79 12.74
80 1.29
86 0.73
87 1.39
88 0.57
89 21.65
90 12.51
91 7.97
92 5.7
93 0.82
94 0.55
101 1.5
102 4.35
103 4.2
104 0.54
105 0.82
107 6.16
108 1.4
109 0.56
117 8.71
118 8.71
119 1.44
120 0.37
121 5.07
122 0.87
124 0.97
125 1.2
132 13.32
133 20.56
134 2.7
135 5.21
136 0.95
137 1.26
145 0.94
146 1.25
147 3.55
148 0.49
149 0.99
150 2.02
152 0.71
160 1.27
161 32.98
162 3.86
163 4.34
164 0.89
176 2.13
177 18.03
178 99.99
179 10.13
180 1.04

>  <PREDICTED SPECTRUM>  (3800) 
14 11
15 97
17 17
18 18
26 52
27 98
28 37
29 93
31 34
37 80
38 170
39 300
40 103
41 124
42 93
43 178
44 94
45 223
46 28
47 0
49 57
50 321
51 413
52 234
53 260
54 68
55 170
56 14
57 27
59 31
60 25
61 85
62 254
63 452
64 312
65 302
66 140
67 61
68 61
69 195
70 37
71 61
73 32
74 212
75 278
76 235
77 518
78 252
79 238
80 114
81 129
82 81
83 5
86 23
87 117
88 103
89 493
90 359
91 361
92 248
93 75
94 9
95 121
96 25
100 1
101 174
102 272
103 310
104 126
105 208
106 108
107 193
108 291
109 114
115 89
116 90
117 280
118 400
119 263
120 96
121 241
122 59
129 75
130 38
131 171
132 350
133 566
134 314
135 263
136 103
145 114
146 150
147 274
148 67
149 53
150 79
151 33
159 43
160 118
161 365
162 110
163 235
164 70
177 559
178 999
179 346
180 112
181 1

$$$$

     RDKit          2D

 21 24  0  0  1  0  0  0  0  0999 V2000
   -1.6300    0.9100    0.0000 C   0  0  0  0  0  0  0  0  0  0  0  0
    2.4272    3.1517    0.0000 C   0  0  0  0  0  0  0  0  0  0  0  0
   -0.3300   -2.8400    0.0000 C   0  0  0  0  0  0  0  0  0  0  0  0
    0.9700   -2.0900    0.0000 C   0  0  0  0  0  0  0  0  0  0  0  0
    3.6900   -0.3000    0.0000 C   0  0  0  0  0  0  0  0  0  0  0  0
    4.5700    0.9100    0.0000 C   0  0  0  0  0  0  0  0  0  0  0  0
   -4.2300   -0.5900    0.0000 C   0  0  0  0  0  0  0  0  0  0  0  0
   -0.3300    1.6600    0.0000 C   0  0  0  0  0  0  0  0  0  0  0  0
   -2.9300    0.1600    0.0000 C   0  0  0  0  0  0  0  0  0  0  0  0
    0.9700    2.4100    0.0000 C   0  0  0  0  0  0  0  0  0  0  0  0
   -2.9300   -2.8400    0.0000 C   0  0  0  0  0  0  0  0  0  0  0  0
   -1.6300   -2.0900    0.0000 C   0  0  0  0  0  0  0  0  0  0  0  0
   -4.2300   -2.0900    0.0000 C   0  0  0  0  0  0  0  0  0  0  0  0
    0.9700   -0.5900    0.0000 C   0  0  0  0  0  0  0  0  0  0  0  0
    2.2700    0.1600    0.0000 C   0  0  0  0  0  0  0  0  0  0  0  0
   -0.3300    0.1600    0.0000 C   0  0  0  0  0  0  0  0  0  0  0  0
    3.6900    2.1200    0.0000 C   0  0  0  0  0  0  0  0  0  0  0  0
   -1.6300   -0.5900    0.0000 C   0  0  0  0  0  0  0  0  0  0  0  0
    2.2700    1.6600    0.0000 C   0  0  0  0  0  0  0  0  0  0  0  0
   -5.5289   -2.8402    0.0000 O   0  0  0  0  0  0  0  0  0  0  0  0
    4.1538    3.5465    0.0000 O   0  0  0  0  0  0  0  0  0  0  0  0
  4  3  1  0
  6  5  1  0
  9  7  1  0
 10  8  1  0
 12  3  1  0
 12 11  2  0
 13  7  1  0
 13 11  1  0
 14  4  1  6
 15  5  1  1
 15 14  1  0
 16  8  1  1
 16 14  1  0
 17  6  1  0
 18  1  1  1
 18  9  1  0
 18 12  1  0
 18 16  1  0
 19  2  1  1
 19 10  1  0
 19 15  1  0
 19 17  1  0
 20 13  2  0
 21 17  2  0
M  END
>  <NAME>  (3801) 
4-ANDROSTENE-3,17-DIONE

>  <SYNONYMS>  (3801) 


>  <SPECTRUM TYPE>  (3801) 
MS1

>  <INSTRUMENT TYPE>  (3801) 
EI-B

>  <INSTRUMENT>  (3801) 
HITACHI M-80

>  <ION MODE>  (3801) 
P

>  <INCHIKEY>  (3801) 
AEMFNILZOJDQLW-QAGGRKNESA-N

>  <FORMULA>  (3801) 
C19H26O2

>  <EXACT MASS>  (3801) 
286.193280072

>  <MW>  (3801) 
286

>  <ID>  (3801) 
JP005721

>  <CONTRIBUTOR>  (3801) 
University of Tokyo Team, {Faculty of Engineering, University of Tokyo

>  <COMMENT>  (3801) 
SMILES=O=C(C4)C=C(C3)C(C)(C4)C([H])(C2)C([H])(C3)C([H])(C1)C(C)(C2)C(=O)C1
InChI=InChI=1S/C19H26O2/c1-18-9-7-13(20)11-12(18)3-4-14-15-5-6-17(21)19(15,2)10-8-16(14)18/h11,14-16H,3-10H2,1-2H3/t14-,15-,16-,18-,19-/m0/s1
computed SMILES=O=C1C=C2CCC3C4CCC(=O)C4(C)CCC3C2(C)CC1
accession=JP005721
date=2016.01.19 (Created 2008.10.21, modified 2011.05.06)
author=MASS SPECTROSCOPY SOC. OF JAPAN (MSSJ)
license=CC BY-NC-SA
exact mass=286.19328
ionization energy=70 eV
ion type=[M]+*
computed spectral entropy=4.4933571804067425
computed normalized entropy=0.8779528356414611
SPLASH=splash10-000f-8940000000-f2892fe3b281d44164c8
submitter=submitter = University of Tokyo Team (Faculty of Engineering, University of Tokyo)
MoNA Rating=3.75

>  <NUM PEAKS>  (3801) 
167

>  <MASS SPECTRAL PEAKS>  (3801) 
15 1.23
17 0.62
26 0.83
27 15.43
28 9.67
29 15.91
32 1.1
39 21.94
40 4.94
41 46.97
42 6.03
43 7.13
44 1.44
50 1.1
51 5.83
52 4.73
53 23.25
54 4.25
55 34.22
56 3.22
57 2.4
63 2.13
64 1.3
65 12.27
66 6.51
67 29.97
68 5.76
69 4.8
70 0.55
71 1.37
76 0.75
77 29.14
78 9.74
79 46.04
80 8.57
81 20.17
82 3.29
83 3.22
85 0.75
86 3.09
87 2.2
89 1.23
90 0.82
91 47
92 8.58
93 26.07
94 10.15
95 12.83
96 5.01
97 25.04
98 21.13
101 1.1
102 0.89
103 4.39
104 3.57
105 27.3
106 10.22
107 35.12
108 10.63
109 27.1
110 7.48
111 4.73
115 7.48
116 2.95
117 10.56
118 4.39
119 18.18
120 8.51
121 13.79
122 15.44
123 19.14
124 59.61
125 6.99
127 1.51
128 5.28
129 6.65
130 2.81
131 10.7
132 4.32
133 10.91
134 9.74
135 9.74
136 7.82
137 6.65
138 1.92
141 2.95
142 1.99
143 4.94
144 7.48
145 14.27
146 8.58
147 11.46
148 31.35
149 15.64
150 18.45
151 3.09
155 2.13
156 1.44
157 3.64
158 2.61
159 7.27
160 4.18
161 4.94
162 10.56
163 12.9
164 4.53
165 1.3
169 1.65
170 2.47
171 3.09
172 2.4
173 9.12
174 5.9
175 3.36
176 1.65
177 1.51
178 1.03
183 3.09
184 1.51
185 2.88
186 3.84
187 8.92
188 7.07
189 2.61
190 2.4
197 3.22
198 1.37
199 1.92
200 6.11
201 20.03
202 6.93
204 1.65
211 3.09
212 3.09
213 2.4
214 1.65
215 4.94
216 5.49
217 1.17
224 0.82
225 1.85
226 2.13
227 3.09
228 1.1
229 7.13
230 5.83
231 1.23
240 1.17
241 0.55
242 10.15
243 6.65
244 60
245 11.04
246 1.17
253 2.13
254 0.41
257 1.3
258 7.2
259 1.37
268 3.64
269 1.51
271 6.24
272 1.3
285 0.62
286 99.99
287 21.81
288 2.74

>  <PREDICTED SPECTRUM>  (3801) 
27 11
29 22
39 70
40 65
41 404
42 131
43 298
44 52
49 16
50 4
51 82
52 78
53 256
54 82
55 379
56 98
57 191
58 11
60 16
63 18
64 20
65 205
66 79
67 370
68 110
69 172
71 95
73 66
77 296
78 121
79 462
80 112
81 332
82 70
83 151
84 45
85 92
86 37
87 70
91 517
92 201
93 437
94 201
95 336
96 112
97 350
98 87
99 109
100 1
101 72
103 69
104 89
105 447
106 263
107 442
108 265
109 391
110 372
111 172
112 45
113 3
115 89
116 40
117 272
118 209
119 359
120 243
121 358
122 364
123 412
124 621
125 246
126 30
127 9
128 70
129 152
130 42
131 330
132 169
133 299
134 292
135 283
136 201
137 131
138 76
139 46
141 65
142 26
143 204
144 106
145 308
146 251
147 396
148 237
149 344
150 195
151 127
152 70
153 10
155 76
156 41
157 169
158 88
159 310
160 206
161 248
162 223
163 253
164 126
165 105
166 11
167 45
168 36
169 46
170 69
171 208
172 224
173 216
174 197
175 161
176 106
177 90
178 79
179 49
183 143
184 71
185 211
186 190
187 224
188 210
189 104
190 55
191 37
193 5
196 17
197 166
198 48
199 186
200 102
201 276
202 142
203 38
204 21
209 57
210 54
211 174
212 139
213 229
214 111
215 253
216 136
217 95
225 73
226 93
227 135
228 190
229 347
230 306
231 265
232 90
235 94
237 41
242 246
243 158
244 490
245 252
251 39
253 173
254 10
257 29
258 163
259 26
268 247
269 79
270 8
271 339
272 112
273 2
284 39
285 62
286 999
287 469
288 147

$$$$

     RDKit          2D

 11 11  0  0  0  0  0  0  0  0999 V2000
    3.8981    0.7504    0.0000 C   0  0  0  0  0  0  0  0  0  0  0  0
   -1.3000    0.7500    0.0000 C   0  0  0  0  0  0  0  0  0  0  0  0
   -0.0000   -1.5000    0.0000 C   0  0  0  0  0  0  0  0  0  0  0  0
    0.0000    1.5000    0.0000 C   0  0  0  0  0  0  0  0  0  0  0  0
    1.3000   -0.7500    0.0000 C   0  0  0  0  0  0  0  0  0  0  0  0
   -1.3000   -0.7500    0.0000 C   0  0  0  0  0  0  0  0  0  0  0  0
    1.3000    0.7500    0.0000 C   0  0  0  0  0  0  0  0  0  0  0  0
   -2.5989   -1.5002    0.0000 N   0  0  0  0  0  0  0  0  0  0  0  0
   -3.8981   -0.7504    0.0000 O   0  0  0  0  0  0  0  0  0  0  0  0
   -2.5987   -3.0002    0.0000 O   0  0  0  0  0  0  0  0  0  0  0  0
    2.5989    1.5002    0.0000 O   0  0  0  0  0  0  0  0  0  0  0  0
  4  2  2  0
  5  3  1  0
  6  2  1  0
  6  3  2  0
  7  4  1  0
  7  5  2  0
  8  6  1  0
  9  8  1  0
 10  8  2  0
 11  1  1  0
 11  7  1  0
M  CHG  2   8   1   9  -1
M  END
>  <NAME>  (3802) 
4-NITROANISOL

>  <SYNONYMS>  (3802) 


>  <SPECTRUM TYPE>  (3802) 
MS1

>  <INSTRUMENT TYPE>  (3802) 
EI-B

>  <INSTRUMENT>  (3802) 
HITACHI M-80

>  <ION MODE>  (3802) 
P

>  <INCHIKEY>  (3802) 
BNUHAJGCKIQFGE-UHFFFAOYSA-N

>  <FORMULA>  (3802) 
C7H7NO3

>  <EXACT MASS>  (3802) 
153.04259308399998

>  <MW>  (3802) 
153

>  <ID>  (3802) 
JP005719

>  <CONTRIBUTOR>  (3802) 
University of Tokyo Team, {Faculty of Engineering, University of Tokyo

>  <COMMENT>  (3802) 
SMILES=COc(c1)ccc(c1)[N+1]([O-1])=O
cas=100-17-4
InChI=InChI=1S/C7H7NO3/c1-11-7-4-2-6(3-5-7)8(9)10/h2-5H,1H3
computed SMILES=O=N(=O)C1=CC=C(OC)C=C1
accession=JP005719
date=2016.01.19 (Created 2008.10.21, modified 2011.05.06)
author=MASS SPECTROSCOPY SOC. OF JAPAN (MSSJ)
license=CC BY-NC-SA
exact mass=153.04259
ionization energy=70 eV
ion type=[M]+*
computed spectral entropy=3.1412470944125537
computed normalized entropy=0.7525049525390795
SPLASH=splash10-0uk9-9500000000-6b25b134776afb7969fc
submitter=submitter = University of Tokyo Team (Faculty of Engineering, University of Tokyo)
MoNA Rating=3.75

>  <NUM PEAKS>  (3802) 
65

>  <MASS SPECTRAL PEAKS>  (3802) 
15 2.51
16 1.13
17 4.71
18 21.27
37 2.07
38 7.67
39 3.8
40 0.79
41 6.69
42 0.68
43 4.55
44 1.39
46 2.39
49 0.79
50 12.43
51 7.64
52 5.1
53 3.57
54 1.59
55 0.96
56 0.35
57 0.82
58 1.49
61 2.27
62 6.03
63 24
64 27.09
65 4.17
66 1.23
67 1.1
68 0.35
69 3.86
70 0.31
71 0.48
73 1.07
74 5.94
75 5.05
76 6.02
77 46.07
78 4.55
79 2.6
80 5.79
81 0.72
82 0.61
91 0.68
92 50.61
93 3.46
94 0.44
95 16.36
96 1.21
97 0.46
106 0.95
107 10.94
108 10.28
109 0.9
119 0.92
122 0.82
123 60.72
124 4.94
125 0.55
137 7.01
138 0.6
153 99.99
154 8.51
155 1.02

>  <PREDICTED SPECTRUM>  (3802) 
14 66
15 215
16 26
17 6
18 30
19 1
25 37
26 135
27 96
28 123
29 168
30 539
31 160
32 30
33 8
37 159
38 259
39 316
40 84
41 223
42 9
45 23
46 180
49 97
50 349
51 363
52 371
53 342
54 184
56 2
57 24
61 247
62 334
63 611
64 448
65 389
66 178
67 97
68 37
69 120
72 46
74 139
75 289
76 281
77 579
78 373
79 286
80 282
81 247
82 9
91 201
92 478
93 230
94 110
95 478
106 298
107 555
108 117
122 200
123 650
124 119
137 68
153 999
154 264
155 82

$$$$

     RDKit          2D

  9  9  0  0  0  0  0  0  0  0999 V2000
   -2.5989   -0.7504    0.0000 C   0  0  0  0  0  0  0  0  0  0  0  0
    2.5992   -0.7500    0.0000 C   0  0  0  0  0  0  0  0  0  0  0  0
    1.2992    1.5000    0.0000 C   0  0  0  0  0  0  0  0  0  0  0  0
    1.2992   -1.5000    0.0000 C   0  0  0  0  0  0  0  0  0  0  0  0
   -0.0008    0.7500    0.0000 C   0  0  0  0  0  0  0  0  0  0  0  0
    2.5992    0.7500    0.0000 C   0  0  0  0  0  0  0  0  0  0  0  0
   -0.0008   -0.7500    0.0000 C   0  0  0  0  0  0  0  0  0  0  0  0
    3.8981    1.5002    0.0000 N   0  0  0  0  0  0  0  0  0  0  0  0
   -1.2998   -1.5002    0.0000 O   0  0  0  0  0  0  0  0  0  0  0  0
  4  2  2  0
  5  3  1  0
  6  2  1  0
  6  3  2  0
  7  4  1  0
  7  5  2  0
  8  6  1  0
  9  1  1  0
  9  7  1  0
M  END
>  <NAME>  (3803) 
P-ANISIDINE

>  <SYNONYMS>  (3803) 
4-METHOXYANILINE

>  <SPECTRUM TYPE>  (3803) 
MS1

>  <INSTRUMENT TYPE>  (3803) 
EI-B

>  <INSTRUMENT>  (3803) 
HITACHI M-80

>  <ION MODE>  (3803) 
P

>  <INCHIKEY>  (3803) 
BHAAPTBBJKJZER-UHFFFAOYSA-N

>  <FORMULA>  (3803) 
C7H9NO

>  <EXACT MASS>  (3803) 
123.068413908

>  <MW>  (3803) 
123

>  <ID>  (3803) 
JP005718

>  <CONTRIBUTOR>  (3803) 
University of Tokyo Team, {Faculty of Engineering, University of Tokyo

>  <COMMENT>  (3803) 
SMILES=COc(c1)ccc(N)c1
cas=104-94-9
InChI=InChI=1S/C7H9NO/c1-9-7-4-2-6(8)3-5-7/h2-5H,8H2,1H3
computed SMILES=O(C1=CC=C(N)C=C1)C
accession=JP005718
date=2016.01.19 (Created 2008.10.21, modified 2011.05.06)
author=MASS SPECTROSCOPY SOC. OF JAPAN (MSSJ)
license=CC BY-NC-SA
exact mass=123.06841
ionization energy=70 eV
ion type=[M]+*
computed spectral entropy=2.585024495560854
computed normalized entropy=0.6421859986819565
SPLASH=splash10-0ab9-6900000000-7b56ba31080ccebf1c7c
submitter=submitter = University of Tokyo Team (Faculty of Engineering, University of Tokyo)
MoNA Rating=3.75

>  <NUM PEAKS>  (3803) 
56

>  <MASS SPECTRAL PEAKS>  (3803) 
15 2.51
16 0.98
17 2.8
18 13.27
38 1.73
39 5.08
40 0.89
41 3.33
42 0.99
43 7.16
44 1.24
50 1.69
51 3.35
52 9.42
53 11.93
54 3.45
55 1
61 2
62 1.66
63 3.09
64 1.61
65 5.86
66 1.33
67 0.66
68 0.3
69 5.56
71 0.51
73 1.63
74 0.51
75 0.38
76 0.44
77 0.93
78 1.33
79 1.89
80 37.26
81 2.72
82 0.35
90 0.43
91 0.94
92 2.09
93 0.67
94 0.49
95 2.19
96 0.35
107 0.68
108 99.99
109 8.29
110 0.51
111 0.28
119 1.33
120 0.48
121 0.28
122 2.64
123 89.31
124 7.74
125 0.58

>  <PREDICTED SPECTRUM>  (3803) 
14 3
15 50
16 10
17 0
25 21
26 69
27 128
28 98
29 40
37 55
38 123
39 265
40 97
41 245
42 122
50 125
51 227
52 376
53 311
54 220
55 59
61 56
62 93
63 191
64 185
65 271
66 156
67 171
68 26
76 47
77 98
78 192
79 221
80 454
81 229
82 47
90 90
91 122
92 234
93 65
94 87
95 103
96 43
106 47
107 158
108 654
109 216
110 25
120 10
122 60
123 999
124 310
125 76

$$$$

     RDKit          2D

 14 15  0  0  0  0  0  0  0  0999 V2000
   -2.7900    0.7400    0.0000 C   0  0  0  0  0  0  0  0  0  0  0  0
   -2.7900   -0.7300    0.0000 C   0  0  0  0  0  0  0  0  0  0  0  0
   -1.4800    1.4800    0.0000 C   0  0  0  0  0  0  0  0  0  0  0  0
   -1.4800   -1.5000    0.0000 C   0  0  0  0  0  0  0  0  0  0  0  0
    2.3700    0.7400    0.0000 C   0  0  0  0  0  0  0  0  0  0  0  0
    2.3700   -0.7300    0.0000 C   0  0  0  0  0  0  0  0  0  0  0  0
   -0.2400    0.7400    0.0000 C   0  0  0  0  0  0  0  0  0  0  0  0
   -0.2400   -0.7300    0.0000 C   0  0  0  0  0  0  0  0  0  0  0  0
    1.0700    1.4800    0.0000 C   0  0  0  0  0  0  0  0  0  0  0  0
    1.0700   -1.5000    0.0000 N   0  0  0  0  0  0  0  0  0  0  0  0
    1.0725    2.9800    0.0000 N   0  0  0  0  0  0  0  0  0  0  0  0
    1.0725   -3.0000    0.0000 O   0  0  0  0  0  0  0  0  0  0  0  0
    2.3727    3.7279    0.0000 O   0  0  0  0  0  0  0  0  0  0  0  0
   -0.2253    3.7321    0.0000 O   0  0  0  0  0  0  0  0  0  0  0  0
  2  1  2  0
  3  1  1  0
  4  2  1  0
  6  5  1  0
  7  3  2  0
  8  4  2  0
  8  7  1  0
  9  5  2  0
  9  7  1  0
 10  6  2  0
 10  8  1  0
 11  9  1  0
 12 10  1  0
 13 11  1  0
 14 11  2  0
M  CHG  4  10   1  11   1  12  -1  13  -1
M  END
>  <NAME>  (3804) 
4-NITROQUINOLINE-N-OXIDE

>  <SYNONYMS>  (3804) 


>  <SPECTRUM TYPE>  (3804) 
MS1

>  <INSTRUMENT TYPE>  (3804) 
EI-B

>  <INSTRUMENT>  (3804) 
HITACHI M-80

>  <ION MODE>  (3804) 
P

>  <INCHIKEY>  (3804) 
YHQDZJICGQWFHK-UHFFFAOYSA-N

>  <FORMULA>  (3804) 
C9H6N2O3

>  <EXACT MASS>  (3804) 
190.03784205199997

>  <MW>  (3804) 
190

>  <ID>  (3804) 
JP005717

>  <CONTRIBUTOR>  (3804) 
University of Tokyo Team, {Faculty of Engineering, University of Tokyo

>  <COMMENT>  (3804) 
SMILES=[O-1][N+1](=O)c(c1)c(c2)c(ccc2)[n+1]([O-1])c1
cas=56-57-5
InChI=InChI=1S/C9H6N2O3/c12-10-6-5-9(11(13)14)7-3-1-2-4-8(7)10/h1-6H
computed SMILES=O=N(=O)C1=CC=N(=O)C=2C=CC=CC12
accession=JP005717
date=2016.01.19 (Created 2008.10.21, modified 2011.05.06)
author=MASS SPECTROSCOPY SOC. OF JAPAN (MSSJ)
license=CC BY-NC-SA
exact mass=190.03784
ionization energy=70 eV
ion type=[M]+*
computed spectral entropy=3.0817598218719207
computed normalized entropy=0.7837987005890181
SPLASH=splash10-01ox-4900000000-03a2fd7fa185cbfa42a1
submitter=submitter = University of Tokyo Team (Faculty of Engineering, University of Tokyo)
MoNA Rating=3.75

>  <NUM PEAKS>  (3804) 
51

>  <MASS SPECTRAL PEAKS>  (3804) 
28 0.84
30 7.44
38 1.36
39 3.24
50 4.03
51 5.27
52 1.3
53 2.07
61 1.53
62 6.19
63 8.91
64 2.44
65 1.19
74 6.25
75 8.69
76 5.55
77 11.57
78 1.91
85 0.83
86 2.59
87 3.75
88 10.26
89 25.03
90 5.13
98 1.22
99 1.41
100 2.38
101 6.61
102 2.77
103 0.9
104 8.12
105 2.49
113 6.99
114 20.18
115 4.1
116 16.07
117 2.26
127 2.77
128 4.23
132 8.05
133 0.94
134 1.67
143 0.44
144 2.13
160 46.24
161 4.89
174 3.15
175 0.43
190 99.99
191 11.52
192 1.28

>  <PREDICTED SPECTRUM>  (3804) 
16 4
17 1
28 44
30 110
36 4
37 55
38 82
39 126
40 37
41 93
42 51
43 151
44 98
46 56
49 58
50 205
51 252
52 180
53 102
54 20
55 60
56 31
57 67
58 7
60 11
61 141
62 241
63 367
64 214
65 122
66 21
67 26
68 18
69 85
70 48
71 1
73 79
74 223
75 277
76 267
77 215
78 150
79 86
80 62
83 41
84 46
85 67
86 125
87 199
88 271
89 395
90 318
91 188
92 55
93 45
97 35
98 68
99 100
100 147
101 187
102 243
103 122
104 161
105 152
106 114
107 16
111 0
112 20
113 110
114 214
115 228
116 284
117 185
118 107
119 54
120 16
126 96
127 227
128 244
129 100
130 174
131 57
132 168
133 83
134 33
142 8
143 113
144 284
145 148
146 81
158 42
159 31
160 239
161 93
162 17
163 3
173 51
174 243
175 98
176 28
190 999
191 328
192 83

$$$$

     RDKit          2D

 11 11  0  0  0  0  0  0  0  0999 V2000
   -1.3000   -0.7500    0.0000 C   0  0  0  0  0  0  0  0  0  0  0  0
    0.0000    1.5000    0.0000 C   0  0  0  0  0  0  0  0  0  0  0  0
    0.0000   -1.5000    0.0000 C   0  0  0  0  0  0  0  0  0  0  0  0
    1.3000    0.7500    0.0000 C   0  0  0  0  0  0  0  0  0  0  0  0
   -2.5989    1.5002    0.0000 C   0  0  0  0  0  0  0  0  0  0  0  0
   -1.3000    0.7500    0.0000 C   0  0  0  0  0  0  0  0  0  0  0  0
    1.3000   -0.7500    0.0000 C   0  0  0  0  0  0  0  0  0  0  0  0
   -3.8978    2.2504    0.0000 N   0  0  0  0  0  0  0  0  0  0  0  0
    2.5989   -1.5002    0.0000 N   0  0  0  0  0  0  0  0  0  0  0  0
    3.8981   -0.7504    0.0000 O   0  0  0  0  0  0  0  0  0  0  0  0
    2.5987   -3.0002    0.0000 O   0  0  0  0  0  0  0  0  0  0  0  0
  3  1  2  0
  4  2  1  0
  6  1  1  0
  6  2  2  0
  6  5  1  0
  7  3  1  0
  7  4  2  0
  8  5  3  0
  9  7  1  0
 10  9  1  0
 11  9  2  0
M  CHG  2   9   1  10  -1
M  END
>  <NAME>  (3805) 
4-NITROBENZONITRILE

>  <SYNONYMS>  (3805) 


>  <SPECTRUM TYPE>  (3805) 
MS1

>  <INSTRUMENT TYPE>  (3805) 
EI-B

>  <INSTRUMENT>  (3805) 
HITACHI M-80

>  <ION MODE>  (3805) 
P

>  <INCHIKEY>  (3805) 
NKJIFDNZPGLLSH-UHFFFAOYSA-N

>  <FORMULA>  (3805) 
C7H4N2O2

>  <EXACT MASS>  (3805) 
148.027277368

>  <MW>  (3805) 
148

>  <ID>  (3805) 
JP005716

>  <CONTRIBUTOR>  (3805) 
University of Tokyo Team, {Faculty of Engineering, University of Tokyo

>  <COMMENT>  (3805) 
SMILES=N#Cc(c1)ccc(c1)[N+1]([O-1])=O
cas=619-72-7
InChI=InChI=1S/C7H4N2O2/c8-5-6-1-3-7(4-2-6)9(10)11/h1-4H
computed SMILES=N#CC1=CC=C(C=C1)N(=O)=O
accession=JP005716
date=2016.01.19 (Created 2008.10.21, modified 2011.05.06)
author=MASS SPECTROSCOPY SOC. OF JAPAN (MSSJ)
license=CC BY-NC-SA
exact mass=148.02728
ionization energy=70 eV
ion type=[M]+*
computed spectral entropy=2.8015473212527944
computed normalized entropy=0.7448546301919358
SPLASH=splash10-0udi-9600000000-b42a04a0ac1bf67f754d
submitter=submitter = University of Tokyo Team (Faculty of Engineering, University of Tokyo)
MoNA Rating=3.75

>  <NUM PEAKS>  (3805) 
43

>  <MASS SPECTRAL PEAKS>  (3805) 
18 3.73
26 1.14
27 3.5
28 2.6
30 51.72
37 4.71
38 4.32
39 4.96
46 4.06
49 3.23
50 21.28
51 23.89
52 5.58
61 2.49
62 3.79
63 7.19
64 5.83
65 0.71
73 2.48
74 8.64
75 38.79
76 21.83
77 1.58
86 0.57
87 0.81
88 0.82
89 1.06
90 29.13
91 2.31
99 2.99
100 2.06
101 1.58
102 99.99
103 8.53
104 0.47
105 0.89
118 9.89
119 0.92
132 2.38
148 69.1
149 6.48
150 0.99
151 0.34

>  <PREDICTED SPECTRUM>  (3805) 
14 3
16 45
17 9
18 14
25 43
26 92
28 111
29 48
30 826
31 38
32 6
36 29
37 175
38 233
39 145
40 68
42 15
43 14
46 228
48 37
49 141
50 522
51 374
52 207
56 3
61 132
62 137
63 262
64 190
69 36
70 53
73 28
74 396
75 639
76 470
84 25
90 401
91 93
92 16
100 0
101 43
102 999
103 339
104 83
118 325
119 111
132 94
148 729
149 250
150 33

$$$$

     RDKit          2D

 11 11  0  0  0  0  0  0  0  0999 V2000
   -1.3000   -0.7500    0.0000 C   0  0  0  0  0  0  0  0  0  0  0  0
    0.0000    1.5000    0.0000 C   0  0  0  0  0  0  0  0  0  0  0  0
    0.0000   -1.5000    0.0000 C   0  0  0  0  0  0  0  0  0  0  0  0
    1.3000    0.7500    0.0000 C   0  0  0  0  0  0  0  0  0  0  0  0
   -2.5989    1.5002    0.0000 C   0  0  0  0  0  0  0  0  0  0  0  0
   -1.3000    0.7500    0.0000 C   0  0  0  0  0  0  0  0  0  0  0  0
    1.3000   -0.7500    0.0000 C   0  0  0  0  0  0  0  0  0  0  0  0
    2.5989   -1.5002    0.0000 N   0  0  0  0  0  0  0  0  0  0  0  0
   -3.8981    0.7504    0.0000 O   0  0  0  0  0  0  0  0  0  0  0  0
    3.8981   -0.7504    0.0000 O   0  0  0  0  0  0  0  0  0  0  0  0
    2.5987   -3.0002    0.0000 O   0  0  0  0  0  0  0  0  0  0  0  0
  3  1  2  0
  4  2  1  0
  6  1  1  0
  6  2  2  0
  6  5  1  0
  7  3  1  0
  7  4  2  0
  8  7  1  0
  9  5  2  0
 10  8  1  0
 11  8  2  0
M  CHG  2   8   1  10  -1
M  END
>  <NAME>  (3806) 
4-NITROBENZALDEHYDE

>  <SYNONYMS>  (3806) 


>  <SPECTRUM TYPE>  (3806) 
MS1

>  <INSTRUMENT TYPE>  (3806) 
EI-B

>  <INSTRUMENT>  (3806) 
HITACHI M-80

>  <ION MODE>  (3806) 
P

>  <INCHIKEY>  (3806) 
BXRFQSNOROATLV-UHFFFAOYSA-N

>  <FORMULA>  (3806) 
C7H5NO3

>  <EXACT MASS>  (3806) 
151.02694301999998

>  <MW>  (3806) 
151

>  <ID>  (3806) 
JP005715

>  <CONTRIBUTOR>  (3806) 
University of Tokyo Team, {Faculty of Engineering, University of Tokyo

>  <COMMENT>  (3806) 
SMILES=O=Cc(c1)ccc(c1)[N+1]([O-1])=O
cas=555-16-8
InChI=InChI=1S/C7H5NO3/c9-5-6-1-3-7(4-2-6)8(10)11/h1-5H
computed SMILES=O=CC1=CC=C(C=C1)N(=O)=O
accession=JP005715
date=2016.01.19 (Created 2008.10.21, modified 2011.05.06)
author=MASS SPECTROSCOPY SOC. OF JAPAN (MSSJ)
license=CC BY-NC-SA
exact mass=151.02694
ionization energy=70 eV
ion type=[M]+*
computed spectral entropy=2.781644869428291
computed normalized entropy=0.7185482907217797
SPLASH=splash10-0udi-8900000000-af01c134906fa6ff4215
submitter=submitter = University of Tokyo Team (Faculty of Engineering, University of Tokyo)
MoNA Rating=3.75

>  <NUM PEAKS>  (3806) 
48

>  <MASS SPECTRAL PEAKS>  (3806) 
17 0.67
18 2.56
26 0.51
27 1.91
28 1.25
29 4.99
30 7.99
37 1.7
38 2.84
39 4.44
46 2.1
49 1.32
50 19.68
51 37.75
52 1.81
53 0.92
61 1.67
62 2.35
63 3.42
64 2.45
65 9.49
66 0.7
73 2.02
74 11.22
75 9.71
76 15.03
77 49.75
78 3.49
79 0.21
91 0.57
92 7.7
93 2.7
94 0.27
103 1.19
104 14.91
105 21.13
106 1.9
120 4.56
121 0.76
122 0.57
123 0.65
135 2.61
136 0.33
149 0.74
150 78.04
151 99.99
152 9.57
153 1.06

>  <PREDICTED SPECTRUM>  (3806) 
14 80
15 206
16 57
17 15
18 58
25 66
26 153
27 113
28 296
29 515
30 616
31 248
32 43
34 2
36 33
37 197
38 291
39 540
41 13
42 10
44 160
46 210
49 141
50 669
51 592
52 15
53 179
54 41
57 108
60 51
61 120
62 120
63 481
64 172
65 446
66 105
73 187
74 412
75 579
76 695
77 627
78 173
90 8
91 157
92 429
93 155
94 77
104 752
105 405
106 45
107 82
120 166
121 472
122 329
123 127
135 95
150 999
151 905
152 318
153 13

$$$$

     RDKit          2D

 15 16  0  0  0  0  0  0  0  0999 V2000
    3.8971    1.0700    0.0000 C   0  0  0  0  0  0  0  0  0  0  0  0
   -5.1962    4.8200    0.0000 C   0  0  0  0  0  0  0  0  0  0  0  0
    3.8976    2.5708    0.0000 C   0  0  0  0  0  0  0  0  0  0  0  0
    2.5976    0.3192    0.0000 C   0  0  0  0  0  0  0  0  0  0  0  0
   -5.1966    3.3192    0.0000 C   0  0  0  0  0  0  0  0  0  0  0  0
   -3.8966    5.5708    0.0000 C   0  0  0  0  0  0  0  0  0  0  0  0
    2.5986    3.3208    0.0000 C   0  0  0  0  0  0  0  0  0  0  0  0
    1.2986    1.0692    0.0000 C   0  0  0  0  0  0  0  0  0  0  0  0
   -3.8976    2.5692    0.0000 C   0  0  0  0  0  0  0  0  0  0  0  0
   -2.5976    4.8208    0.0000 C   0  0  0  0  0  0  0  0  0  0  0  0
    0.0000    3.3200    0.0000 C   0  0  0  0  0  0  0  0  0  0  0  0
    1.2990    2.5700    0.0000 C   0  0  0  0  0  0  0  0  0  0  0  0
   -2.5981    3.3200    0.0000 C   0  0  0  0  0  0  0  0  0  0  0  0
   -1.2990    2.5700    0.0000 C   0  0  0  0  0  0  0  0  0  0  0  0
   -1.2990    1.0700    0.0000 O   0  0  0  0  0  0  0  0  0  0  0  0
  3  1  2  0
  4  1  1  0
  5  2  2  0
  6  2  1  0
  7  3  1  0
  8  4  2  0
  9  5  1  0
 10  6  2  0
 12  7  2  0
 12  8  1  0
 12 11  1  0
 13  9  2  0
 13 10  1  0
 14 11  1  0
 14 13  1  0
 15 14  2  0
M  END
>  <NAME>  (3807) 
BENZYL PHENYL KETONE

>  <SYNONYMS>  (3807) 
DESOXYBENZOIN

>  <SPECTRUM TYPE>  (3807) 
MS1

>  <INSTRUMENT TYPE>  (3807) 
EI-B

>  <INSTRUMENT>  (3807) 
HITACHI M-80

>  <ION MODE>  (3807) 
P

>  <INCHIKEY>  (3807) 
OTKCEEWUXHVZQI-UHFFFAOYSA-N

>  <FORMULA>  (3807) 
C14H12O

>  <EXACT MASS>  (3807) 
196.088815004

>  <MW>  (3807) 
196

>  <ID>  (3807) 
JP005714

>  <CONTRIBUTOR>  (3807) 
University of Tokyo Team, {Faculty of Engineering, University of Tokyo

>  <COMMENT>  (3807) 
SMILES=O=C(Cc(c2)cccc2)c(c1)cccc1
InChI=InChI=1S/C14H12O/c15-14(13-9-5-2-6-10-13)11-12-7-3-1-4-8-12/h1-10H,11H2
computed SMILES=O=C(C=1C=CC=CC1)CC=2C=CC=CC2
accession=JP005714
date=2016.01.19 (Created 2008.10.21, modified 2011.05.06)
author=MASS SPECTROSCOPY SOC. OF JAPAN (MSSJ)
license=CC BY-NC-SA
exact mass=196.08882
ionization energy=70 eV
ion type=[M]+*
computed spectral entropy=1.8777754203933394
computed normalized entropy=0.5324967221262018
SPLASH=splash10-0a4i-4900000000-59224caa5c9874ac58ea
submitter=submitter = University of Tokyo Team (Faculty of Engineering, University of Tokyo)
MoNA Rating=3.75

>  <NUM PEAKS>  (3807) 
34

>  <MASS SPECTRAL PEAKS>  (3807) 
27 0.44
38 0.5
39 2.06
41 0.39
50 2.41
51 7.63
52 0.72
62 0.54
63 1.56
64 0.45
65 4.08
66 0.33
74 0.89
75 0.7
76 1.18
77 25.56
78 2.03
89 1.23
90 0.71
91 6.47
92 0.56
94 0.23
104 0.28
105 99.99
106 7.86
107 0.48
122 6.94
123 0.57
165 0.95
166 0.24
167 0.2
196 4.9
197 0.95
198 0.1

>  <PREDICTED SPECTRUM>  (3807) 
37 10
38 70
39 264
40 118
41 187
42 10
44 19
50 167
51 339
52 108
53 37
62 50
63 173
64 110
65 340
66 43
69 0
70 20
74 81
75 109
76 94
77 495
78 182
89 195
90 2
91 666
92 257
105 999
106 293
107 8
168 46
196 215
197 56

$$$$

     RDKit          2D

 15 16  0  0  0  0  0  0  0  0999 V2000
    3.2481    2.1950    0.0000 C   0  0  0  0  0  0  0  0  0  0  0  0
   -7.1442    2.1950    0.0000 C   0  0  0  0  0  0  0  0  0  0  0  0
    1.9486    1.4442    0.0000 C   0  0  0  0  0  0  0  0  0  0  0  0
    3.2486    3.6958    0.0000 C   0  0  0  0  0  0  0  0  0  0  0  0
   -7.1447    3.6958    0.0000 C   0  0  0  0  0  0  0  0  0  0  0  0
   -5.8447    1.4442    0.0000 C   0  0  0  0  0  0  0  0  0  0  0  0
    0.6495    2.1942    0.0000 C   0  0  0  0  0  0  0  0  0  0  0  0
    1.9495    4.4458    0.0000 C   0  0  0  0  0  0  0  0  0  0  0  0
   -5.8457    4.4458    0.0000 C   0  0  0  0  0  0  0  0  0  0  0  0
   -4.5457    2.1942    0.0000 C   0  0  0  0  0  0  0  0  0  0  0  0
    0.6500    3.6950    0.0000 C   0  0  0  0  0  0  0  0  0  0  0  0
   -4.5462    3.6950    0.0000 C   0  0  0  0  0  0  0  0  0  0  0  0
   -0.6490    4.4450    0.0000 N   0  0  0  0  0  0  0  0  0  0  0  0
   -3.2471    4.4450    0.0000 N   0  0  0  0  0  0  0  0  0  0  0  0
   -1.9481    3.6950    0.0000 N   0  0  0  0  0  0  0  0  0  0  0  0
  3  1  2  0
  4  1  1  0
  5  2  2  0
  6  2  1  0
  7  3  1  0
  8  4  2  0
  9  5  1  0
 10  6  2  0
 11  7  2  0
 11  8  1  0
 12  9  2  0
 12 10  1  0
 13 11  1  0
 14 12  1  0
 15 13  2  3
 15 14  1  0
M  END
>  <NAME>  (3808) 
DIAZOAMINOBENZENE

>  <SYNONYMS>  (3808) 


>  <SPECTRUM TYPE>  (3808) 
MS1

>  <INSTRUMENT TYPE>  (3808) 
EI-B

>  <INSTRUMENT>  (3808) 
HITACHI M-80

>  <ION MODE>  (3808) 
P

>  <INCHIKEY>  (3808) 
ALIFPGGMJDWMJH-UHFFFAOYSA-N

>  <FORMULA>  (3808) 
C12H11N3

>  <EXACT MASS>  (3808) 
197.095297352

>  <MW>  (3808) 
197

>  <ID>  (3808) 
JP005713

>  <CONTRIBUTOR>  (3808) 
University of Tokyo Team, {Faculty of Engineering, University of Tokyo

>  <COMMENT>  (3808) 
SMILES=c(c2)ccc(c2)NN=Nc(c1)cccc1
InChI=InChI=1S/C12H11N3/c1-3-7-11(8-4-1)13-15-14-12-9-5-2-6-10-12/h1-10H,(H,13,14)
computed SMILES=N(=NC=1C=CC=CC1)NC=2C=CC=CC2
accession=JP005713
date=2016.01.19 (Created 2008.10.21, modified 2011.05.06)
author=MASS SPECTROSCOPY SOC. OF JAPAN (MSSJ)
license=CC BY-NC-SA
exact mass=197.0953
ionization energy=70 eV
ion type=[M]+*
computed spectral entropy=2.2395919825738835
computed normalized entropy=0.6156808070608952
SPLASH=splash10-056r-9400000000-9fb27df30b5e3277b80a
submitter=submitter = University of Tokyo Team (Faculty of Engineering, University of Tokyo)
MoNA Rating=3.75

>  <NUM PEAKS>  (3808) 
38

>  <MASS SPECTRAL PEAKS>  (3808) 
27 1.06
28 0.84
37 0.38
38 1.26
39 5.33
40 0.6
41 0.43
50 3.14
51 16.86
52 1.74
62 0.74
63 2
64 1.79
65 9.3
66 1.85
74 1.03
75 0.79
76 1.31
77 99.99
78 7.72
79 0.34
91 1.2
92 6.08
93 7.8
94 0.55
105 57.52
106 4.49
107 0.18
115 0.56
141 1.06
142 0.5
166 0.39
167 3.15
168 3.8
169 1.74
170 0.24
197 8.96
198 1.37

>  <PREDICTED SPECTRUM>  (3808) 
26 2
27 49
28 45
33 11
37 50
38 105
39 346
40 98
41 126
43 21
44 113
46 21
50 260
51 540
52 135
61 19
62 61
63 217
64 293
65 548
66 157
69 2
74 82
75 126
76 85
77 999
78 184
89 1
91 369
92 612
93 223
105 439
120 398
121 136
150 28
152 6
168 0
169 53
197 475
198 160

$$$$

     RDKit          2D

 12 12  0  0  0  0  0  0  0  0999 V2000
   -2.5989    1.5002    0.0000 C   0  0  0  0  0  0  0  0  0  0  0  0
    0.0000    3.0000    0.0000 C   0  0  0  0  0  0  0  0  0  0  0  0
   -0.0000   -3.0000    0.0000 C   0  0  0  0  0  0  0  0  0  0  0  0
    2.5989   -1.5002    0.0000 C   0  0  0  0  0  0  0  0  0  0  0  0
   -1.3000    0.7500    0.0000 C   0  0  0  0  0  0  0  0  0  0  0  0
    0.0000    1.5000    0.0000 C   0  0  0  0  0  0  0  0  0  0  0  0
   -0.0000   -1.5000    0.0000 C   0  0  0  0  0  0  0  0  0  0  0  0
    1.3000   -0.7500    0.0000 C   0  0  0  0  0  0  0  0  0  0  0  0
   -1.3000   -0.7500    0.0000 C   0  0  0  0  0  0  0  0  0  0  0  0
    1.3000    0.7500    0.0000 C   0  0  0  0  0  0  0  0  0  0  0  0
   -2.5989   -1.5002    0.0000 N   0  0  0  0  0  0  0  0  0  0  0  0
    2.5989    1.5002    0.0000 N   0  0  0  0  0  0  0  0  0  0  0  0
  5  1  1  0
  6  2  1  0
  6  5  2  0
  7  3  1  0
  8  4  1  0
  8  7  1  0
  9  5  1  0
  9  7  2  0
 10  6  1  0
 10  8  2  0
 11  9  1  0
 12 10  1  0
M  END
>  <NAME>  (3809) 
2,3,5,6-TETRAMETHYL-1,4-BENZENEDIAMINE

>  <SYNONYMS>  (3809) 
DIAMINODUROL

>  <SPECTRUM TYPE>  (3809) 
MS1

>  <INSTRUMENT TYPE>  (3809) 
EI-B

>  <INSTRUMENT>  (3809) 
HITACHI M-80

>  <ION MODE>  (3809) 
P

>  <INCHIKEY>  (3809) 
WCZNKVPCIFMXEQ-UHFFFAOYSA-N

>  <FORMULA>  (3809) 
C10H16N2

>  <EXACT MASS>  (3809) 
164.131348512

>  <MW>  (3809) 
164

>  <ID>  (3809) 
JP005712

>  <CONTRIBUTOR>  (3809) 
University of Tokyo Team, {Faculty of Engineering, University of Tokyo

>  <COMMENT>  (3809) 
SMILES=Cc(c(C)1)c(N)c(C)c(C)c(N)1
cas=3102-87-2
InChI=InChI=1S/C10H16N2/c1-5-6(2)10(12)8(4)7(3)9(5)11/h11-12H2,1-4H3
computed SMILES=NC=1C(=C(C(N)=C(C1C)C)C)C
accession=JP005712
date=2016.01.19 (Created 2008.10.21, modified 2011.05.06)
author=MASS SPECTROSCOPY SOC. OF JAPAN (MSSJ)
license=CC BY-NC-SA
exact mass=164.13135
ionization energy=70 eV
ion type=[M]+*
computed spectral entropy=2.282578828457769
computed normalized entropy=0.569600460692752
SPLASH=splash10-03di-1900000000-c1a1df5432c80293e4ce
submitter=submitter = University of Tokyo Team (Faculty of Engineering, University of Tokyo)
MoNA Rating=3.75

>  <NUM PEAKS>  (3809) 
55

>  <MASS SPECTRAL PEAKS>  (3809) 
27 1.02
28 1.34
39 1.15
41 0.82
42 1.46
51 0.65
52 0.68
53 1.1
54 1.05
65 0.85
66 0.86
67 0.87
68 0.42
74 0.57
77 1.12
78 0.42
79 0.64
80 0.69
81 0.71
82 2.58
91 1.04
93 0.78
94 0.65
104 0.44
105 0.63
106 1.42
107 1.16
108 1.74
109 0.6
110 0.62
117 0.66
118 0.49
119 0.79
120 2.14
121 2.08
122 1.87
123 0.65
130 1.08
131 0.83
132 2.95
133 0.86
134 1.35
135 1
136 1.68
137 0.34
146 2.54
147 1.1
148 1.68
149 8.92
150 1.28
162 0.38
163 9.46
164 99.99
165 11.44
166 0.49

>  <PREDICTED SPECTRUM>  (3809) 
2 1
15 16
16 17
17 12
18 19
26 38
27 152
28 112
29 61
30 59
31 41
32 14
33 19
34 10
38 39
39 220
40 107
41 294
42 234
43 248
44 94
45 5
50 82
51 169
52 174
53 181
54 172
55 115
56 120
57 58
58 31
59 35
60 26
61 24
62 44
63 112
64 86
65 216
66 189
67 126
68 118
69 58
70 119
71 118
72 72
73 24
74 12
75 55
76 86
77 251
78 175
79 201
80 175
81 142
82 95
83 75
84 33
85 22
89 140
90 106
91 254
92 154
93 182
94 194
95 125
96 110
97 38
98 22
102 115
103 141
104 175
105 170
106 158
107 111
108 96
109 89
110 112
115 73
116 141
117 189
118 84
119 221
120 229
121 184
122 194
123 62
124 19
130 149
131 111
132 215
133 184
134 203
135 128
136 143
137 127
145 62
146 135
147 242
148 311
149 868
150 322
151 107
152 15
161 133
162 156
163 445
164 999
165 353
166 110
167 3

$$$$

     RDKit          2D

 11 11  0  0  0  0  0  0  0  0999 V2000
    1.8127   -2.1596    0.0000 C   0  0  0  0  0  0  0  0  0  0  0  0
    2.7772   -0.4897    0.0000 C   0  0  0  0  0  0  0  0  0  0  0  0
   -2.7772   -0.4897    0.0000 C   0  0  0  0  0  0  0  0  0  0  0  0
   -1.8127   -2.1596    0.0000 C   0  0  0  0  0  0  0  0  0  0  0  0
    1.3000    0.7500    0.0000 C   0  0  0  0  0  0  0  0  0  0  0  0
   -1.3000    0.7500    0.0000 C   0  0  0  0  0  0  0  0  0  0  0  0
   -0.0000    1.5000    0.0000 C   0  0  0  0  0  0  0  0  0  0  0  0
    1.3000   -0.7500    0.0000 C   0  0  0  0  0  0  0  0  0  0  0  0
   -1.3000   -0.7500    0.0000 C   0  0  0  0  0  0  0  0  0  0  0  0
   -0.0000   -1.5000    0.0000 N   0  0  0  0  0  0  0  0  0  0  0  0
    0.0000    3.0000    0.0000 O   0  0  0  0  0  0  0  0  0  0  0  0
  7  5  1  0
  7  6  1  0
  8  1  1  0
  8  2  1  0
  8  5  1  0
  9  3  1  0
  9  4  1  0
  9  6  1  0
 10  8  1  0
 10  9  1  0
 11  7  1  0
M  END
>  <NAME>  (3810) 
2,2,6,6-TETRAMETHYL-4-PIPERIDINOL

>  <SYNONYMS>  (3810) 


>  <SPECTRUM TYPE>  (3810) 
MS1

>  <INSTRUMENT TYPE>  (3810) 
EI-B

>  <INSTRUMENT>  (3810) 
HITACHI M-80

>  <ION MODE>  (3810) 
P

>  <INCHIKEY>  (3810) 
VDVUCLWJZJHFAV-UHFFFAOYSA-N

>  <FORMULA>  (3810) 
C9H19NO

>  <EXACT MASS>  (3810) 
157.146664228

>  <MW>  (3810) 
157

>  <ID>  (3810) 
JP005711

>  <CONTRIBUTOR>  (3810) 
University of Tokyo Team, {Faculty of Engineering, University of Tokyo

>  <COMMENT>  (3810) 
SMILES=OC(C1)CC(C)(C)NC(C)(C)1
cas=2403-88-5
InChI=InChI=1S/C9H19NO/c1-8(2)5-7(11)6-9(3,4)10-8/h7,10-11H,5-6H2,1-4H3
computed SMILES=OC1CC(NC(C)(C)C1)(C)C
accession=JP005711
date=2016.01.19 (Created 2008.10.21, modified 2011.05.06)
author=MASS SPECTROSCOPY SOC. OF JAPAN (MSSJ)
license=CC BY-NC-SA
exact mass=157.14666
ionization energy=70 eV
ion type=[M]+*
computed spectral entropy=2.7822523405626196
computed normalized entropy=0.6715331564865198
SPLASH=splash10-052f-6900000000-88ca6e5ae66ea60f4fd8
submitter=submitter = University of Tokyo Team (Faculty of Engineering, University of Tokyo)
MoNA Rating=3.75

>  <NUM PEAKS>  (3810) 
63

>  <MASS SPECTRAL PEAKS>  (3810) 
15 1.9
18 6.25
19 0.93
27 2.54
28 2.35
29 4.41
30 3.1
31 0.98
39 3.34
40 0.46
41 7.04
42 19.01
43 4.61
44 2.21
45 0.88
46 0.53
53 1.16
54 0.52
55 3.28
56 3.78
57 5.32
58 59.29
59 2.46
67 0.96
68 0.5
69 0.37
70 1.32
71 1.12
72 1.31
79 0.39
80 0.42
81 0.75
82 2.16
83 1.83
84 1.61
85 7.34
86 8.89
87 0.39
96 1.2
97 0.49
98 5.3
99 2.51
100 0.81
107 1.45
108 1.46
109 0.33
110 0.5
112 2.4
113 0.39
123 0.5
124 10.8
125 1.25
126 0.57
140 13.53
141 1.36
142 99.99
143 10.88
144 0.68
156 0.63
157 1.01
158 82.32
159 8.89
160 0.49

>  <PREDICTED SPECTRUM>  (3810) 
15 22
27 81
28 47
29 91
30 19
32 22
33 15
34 30
36 21
37 16
38 58
39 318
40 196
41 585
42 721
43 521
44 317
45 132
46 14
50 52
51 98
52 63
53 185
54 164
55 401
56 437
57 391
58 999
59 229
60 68
62 14
63 8
65 144
66 61
67 189
68 215
69 224
70 232
71 248
72 126
77 183
78 50
79 71
80 111
81 143
82 238
83 289
84 293
85 248
86 195
87 6
93 32
94 74
95 55
96 182
97 82
98 367
99 283
100 191
101 33
105 6
107 111
108 63
109 67
110 103
111 48
112 25
122 33
123 13
124 400
125 160
126 52
127 8
128 5
138 38
140 205
141 41
142 774
143 245
144 60
157 223
158 52

$$$$

     RDKit          2D

  9  8  0  0  0  0  0  0  0  0999 V2000
    2.2733   -0.6175    0.0000 C   0  0  0  0  0  0  0  0  0  0  0  0
    0.9738   -1.3683    0.0000 C   0  0  0  0  0  0  0  0  0  0  0  0
    2.2738    0.8833    0.0000 C   0  0  0  0  0  0  0  0  0  0  0  0
   -0.3252   -0.6183    0.0000 C   0  0  0  0  0  0  0  0  0  0  0  0
    0.9748    1.6333    0.0000 C   0  0  0  0  0  0  0  0  0  0  0  0
   -0.3248    0.8825    0.0000 C   0  0  0  0  0  0  0  0  0  0  0  0
   -1.6238    1.6325    0.0000 N   0  0  0  0  0  0  0  0  0  0  0  0
   -2.9228    0.8825    0.0000 O   0  0  0  0  0  0  0  0  0  0  0  0
    0.0000    0.0000    0.0000 Cl  0  0  0  0  0  0  0  0  0  0  0  0
  2  1  1  0
  3  1  1  0
  4  2  1  0
  5  3  1  0
  6  4  1  0
  6  5  1  0
  7  6  1  0
  8  7  1  0
M  END
>  <NAME>  (3811) 
N-CYCLOHEXYLHYDROXYLAMINE HYDROCHLORIDE

>  <SYNONYMS>  (3811) 


>  <SPECTRUM TYPE>  (3811) 
MS1

>  <INSTRUMENT TYPE>  (3811) 
EI-B

>  <INSTRUMENT>  (3811) 
HITACHI M-80

>  <ION MODE>  (3811) 
P

>  <INCHIKEY>  (3811) 
SSVAHXZUFFSFER-UHFFFAOYSA-N

>  <FORMULA>  (3811) 
C6H14ClNO

>  <EXACT MASS>  (3811) 
151.076391748

>  <MW>  (3811) 
151

>  <ID>  (3811) 
JP005710

>  <CONTRIBUTOR>  (3811) 
University of Tokyo Team, {Faculty of Engineering, University of Tokyo

>  <COMMENT>  (3811) 
SMILES=C1CCC(CC1)NO.Cl
cas=25100-12-3
InChI=InChI=1S/C6H13NO.ClH/c8-7-6-4-2-1-3-5-6;/h6-8H,1-5H2;1H
computed SMILES=Cl.ONC1CCCCC1
accession=JP005710
date=2016.01.19 (Created 2008.10.21, modified 2011.05.06)
author=MASS SPECTROSCOPY SOC. OF JAPAN (MSSJ)
license=CC BY-NC-SA
exact mass=151.07639
ionization energy=70 eV
ion type=[M]+*
computed spectral entropy=3.187799335821822
computed normalized entropy=0.7636568266704012
SPLASH=splash10-05fr-9000000000-720866d5f7c626b80c1b
submitter=submitter = University of Tokyo Team (Faculty of Engineering, University of Tokyo)
MoNA Rating=3.75

>  <NUM PEAKS>  (3811) 
65

>  <MASS SPECTRAL PEAKS>  (3811) 
15 1.5
17 0.61
18 2.93
19 0.45
26 1.37
27 10.9
28 14.84
29 7.48
30 5.1
31 0.61
32 0.62
33 0.47
34 1.93
35 3.88
36 22.24
37 1.5
38 7.95
39 11.35
40 2.13
41 24.17
42 6.86
43 15.64
44 2.19
45 1.01
46 6.86
50 0.76
51 1.41
52 0.97
53 3.33
54 6.57
55 32.12
56 45.54
57 2.61
58 0.38
59 20.41
60 1.19
61 0.36
63 0.35
65 0.81
66 0.64
71 0.57
72 99.99
73 5.56
74 0.57
77 0.97
78 0.46
79 1.46
80 0.62
81 3.59
82 8.7
83 23.92
84 1.88
85 0.27
86 4.65
87 0.45
96 0.54
97 0.5
98 11.27
99 10.14
100 2.09
113 0.46
114 2.25
115 33.93
116 5.65
117 0.38

>  <PREDICTED SPECTRUM>  (3811) 
14 31
15 61
16 16
17 32
18 34
25 3
26 96
27 301
28 281
29 308
30 359
31 64
32 27
33 39
34 39
36 30
37 40
38 100
39 409
40 206
41 647
42 382
43 409
44 158
45 47
49 11
50 65
51 118
52 138
53 254
54 402
55 519
56 656
57 291
58 30
59 5
60 117
61 82
62 145
63 85
64 57
65 126
66 111
67 362
68 325
69 376
70 508
71 164
72 98
74 129
75 72
76 82
77 184
78 95
79 207
80 261
81 278
82 354
83 105
89 24
90 93
91 205
92 77
93 125
94 275
95 362
96 174
97 55
98 10
104 94
105 74
106 231
107 90
108 999
109 330
110 52
116 88
117 35
118 211
119 122
120 48
121 52
122 297
123 128
132 115
133 206
134 200
135 37
136 177
137 19
148 22
150 177
151 617
152 192
153 2

$$$$

     RDKit          2D

 10  9  0  0  0  0  0  0  0  0999 V2000
   -2.2733    3.9375    0.0000 C   0  0  0  0  0  0  0  0  0  0  0  0
    0.3248    3.9375    0.0000 C   0  0  0  0  0  0  0  0  0  0  0  0
   -0.9743    1.6875    0.0000 C   0  0  0  0  0  0  0  0  0  0  0  0
   -3.5724    3.1875    0.0000 C   0  0  0  0  0  0  0  0  0  0  0  0
    1.6238    3.1875    0.0000 C   0  0  0  0  0  0  0  0  0  0  0  0
    0.3248    0.9375    0.0000 C   0  0  0  0  0  0  0  0  0  0  0  0
   -0.9743    3.1875    0.0000 N   0  0  0  0  0  0  0  0  0  0  0  0
   -4.8714    3.9375    0.0000 O   0  0  0  0  0  0  0  0  0  0  0  0
    2.9228    3.9375    0.0000 O   0  0  0  0  0  0  0  0  0  0  0  0
    0.3248   -0.5625    0.0000 O   0  0  0  0  0  0  0  0  0  0  0  0
  4  1  1  0
  5  2  1  0
  6  3  1  0
  7  1  1  0
  7  2  1  0
  7  3  1  0
  8  4  1  0
  9  5  1  0
 10  6  1  0
M  END
>  <NAME>  (3812) 
TRIETHANOLAMINE

>  <SYNONYMS>  (3812) 


>  <SPECTRUM TYPE>  (3812) 
MS1

>  <INSTRUMENT TYPE>  (3812) 
EI-B

>  <INSTRUMENT>  (3812) 
HITACHI M-80

>  <ION MODE>  (3812) 
P

>  <INCHIKEY>  (3812) 
GSEJCLTVZPLZKY-UHFFFAOYSA-N

>  <FORMULA>  (3812) 
C6H15NO3

>  <EXACT MASS>  (3812) 
149.10519334

>  <MW>  (3812) 
149

>  <ID>  (3812) 
JP005709

>  <CONTRIBUTOR>  (3812) 
University of Tokyo Team, {Faculty of Engineering, University of Tokyo

>  <COMMENT>  (3812) 
SMILES=OCCN(CCO)CCO
cas=102-71-6
InChI=InChI=1S/C6H15NO3/c8-4-1-7(2-5-9)3-6-10/h8-10H,1-6H2
computed SMILES=OCCN(CCO)CCO
accession=JP005709
date=2016.01.19 (Created 2008.10.21, modified 2011.05.06)
author=MASS SPECTROSCOPY SOC. OF JAPAN (MSSJ)
license=CC BY-NC-SA
exact mass=149.10519
ionization energy=70 eV
ion type=[M]+*
computed spectral entropy=2.3763254798188203
computed normalized entropy=0.6206706854285011
SPLASH=splash10-014i-9800000000-98de38ceda39aaf45b22
submitter=submitter = University of Tokyo Team (Faculty of Engineering, University of Tokyo)
MoNA Rating=3.75

>  <NUM PEAKS>  (3812) 
46

>  <MASS SPECTRAL PEAKS>  (3812) 
15 1.39
18 0.66
19 0.91
26 0.31
27 3.19
28 4.2
29 3.23
30 8.42
31 5.13
41 1.67
42 7.98
43 4.25
44 5.99
45 12.57
46 0.3
54 0.56
55 0.34
56 22.53
57 1.38
58 1.69
70 1.53
71 0.16
72 1.16
73 0.37
74 32.91
75 1.52
86 1.09
87 0.39
88 2.38
89 0.18
100 1.17
101 0.1
102 0.42
103 0.14
104 1.44
105 0.26
106 0.64
116 0.28
118 99.99
119 6.11
120 0.58
130 0.4
132 0.32
148 0.46
149 2.01
150 2.32

>  <PREDICTED SPECTRUM>  (3812) 
14 23
15 102
16 8
17 43
18 104
19 53
25 8
26 90
27 268
28 257
29 276
30 258
31 241
32 88
33 23
34 52
38 49
39 125
40 113
41 292
42 479
43 226
44 244
45 447
46 71
51 19
52 2
54 133
55 146
56 625
57 287
58 242
59 144
69 52
70 181
72 140
73 163
74 565
75 99
84 126
86 188
88 275
89 9
90 101
98 7
100 363
101 106
104 74
113 35
116 187
118 999
119 449
120 32
149 34

$$$$

     RDKit          2D

  9  9  0  0  0  0  0  0  0  0999 V2000
    3.5281    0.5402    0.0000 C   0  0  0  0  0  0  0  0  0  0  0  0
    2.2281   -0.2098    0.0000 C   0  0  0  0  0  0  0  0  0  0  0  0
    3.5281    2.0402    0.0000 C   0  0  0  0  0  0  0  0  0  0  0  0
    0.9281    2.0402    0.0000 C   0  0  0  0  0  0  0  0  0  0  0  0
    0.9281    0.5402    0.0000 C   0  0  0  0  0  0  0  0  0  0  0  0
   -0.3708   -0.2100    0.0000 C   0  0  0  0  0  0  0  0  0  0  0  0
    2.2281    2.7902    0.0000 N   0  0  0  0  0  0  0  0  0  0  0  0
   -0.3706   -1.7100    0.0000 O   0  0  0  0  0  0  0  0  0  0  0  0
   -1.6700    0.5398    0.0000 O   0  0  0  0  0  0  0  0  0  0  0  0
  2  1  2  0
  3  1  1  0
  5  2  1  0
  5  4  2  0
  6  5  1  0
  7  3  2  0
  7  4  1  0
  8  6  2  0
  9  6  1  0
M  END
>  <NAME>  (3813) 
NICOTINIC ACID

>  <SYNONYMS>  (3813) 
NIACIN

>  <SPECTRUM TYPE>  (3813) 
MS1

>  <INSTRUMENT TYPE>  (3813) 
EI-B

>  <INSTRUMENT>  (3813) 
HITACHI M-80

>  <ION MODE>  (3813) 
P

>  <INCHIKEY>  (3813) 
PVNIIMVLHYAWGP-UHFFFAOYSA-N

>  <FORMULA>  (3813) 
C6H5NO2

>  <EXACT MASS>  (3813) 
123.0320284

>  <MW>  (3813) 
123

>  <ID>  (3813) 
JP005708

>  <CONTRIBUTOR>  (3813) 
University of Tokyo Team, {Faculty of Engineering, University of Tokyo

>  <COMMENT>  (3813) 
SMILES=OC(=O)c(c1)cncc1
cas=59-67-6
InChI=InChI=1S/C6H5NO2/c8-6(9)5-2-1-3-7-4-5/h1-4H,(H,8,9)
computed SMILES=O=C(O)C=1C=NC=CC1
accession=JP005708
date=2016.01.19 (Created 2008.10.21, modified 2011.05.06)
author=MASS SPECTROSCOPY SOC. OF JAPAN (MSSJ)
license=CC BY-NC-SA
exact mass=123.03203
ionization energy=70 eV
ion type=[M]+*
computed spectral entropy=2.521251227269118
computed normalized entropy=0.7035685510721343
SPLASH=splash10-0kmi-7900000000-9e4efda763cce5ddfe57
submitter=submitter = University of Tokyo Team (Faculty of Engineering, University of Tokyo)
MoNA Rating=3.75

>  <NUM PEAKS>  (3813) 
36

>  <MASS SPECTRAL PEAKS>  (3813) 
26 2.78
27 2.12
28 3.2
29 0.75
37 1.78
38 2.75
39 4.67
40 1.13
41 0.74
42 0.44
44 0.52
45 5.61
48 0.45
49 3.83
50 18.53
51 28.92
52 11.24
53 4.11
66 0.9
67 1.01
68 0.7
75 1.88
76 2.6
77 17.45
78 38.77
79 3.58
80 0.3
94 1.09
95 0.68
105 46.9
106 27.44
107 1.88
122 0.29
123 99.99
124 13.98
125 1.11

>  <PREDICTED SPECTRUM>  (3813) 
16 8
17 11
25 34
26 46
27 28
28 28
29 8
36 49
37 176
38 230
39 321
40 154
41 215
42 55
43 27
44 123
45 317
48 0
49 176
50 542
51 752
52 387
53 275
54 64
57 69
58 64
61 20
62 16
65 47
66 195
67 178
68 161
69 159
76 215
77 376
78 908
79 404
80 103
81 68
93 63
94 113
95 114
96 51
105 9
106 492
107 114
122 230
123 999
124 302
125 35

$$$$

     RDKit          2D

 11 11  0  0  0  0  0  0  0  0999 V2000
   -1.6700   -0.2104    0.0000 C   0  0  0  0  0  0  0  0  0  0  0  0
   -0.3713    2.0398    0.0000 C   0  0  0  0  0  0  0  0  0  0  0  0
    4.8270    0.5402    0.0000 C   0  0  0  0  0  0  0  0  0  0  0  0
    3.5270   -0.2098    0.0000 C   0  0  0  0  0  0  0  0  0  0  0  0
    4.8270    2.0402    0.0000 C   0  0  0  0  0  0  0  0  0  0  0  0
    2.2270    2.0402    0.0000 C   0  0  0  0  0  0  0  0  0  0  0  0
    2.2270    0.5402    0.0000 C   0  0  0  0  0  0  0  0  0  0  0  0
    0.9281   -0.2100    0.0000 C   0  0  0  0  0  0  0  0  0  0  0  0
    3.5270    2.7902    0.0000 N   0  0  0  0  0  0  0  0  0  0  0  0
   -0.3711    0.5398    0.0000 N   0  0  0  0  0  0  0  0  0  0  0  0
    0.9283   -1.7100    0.0000 O   0  0  0  0  0  0  0  0  0  0  0  0
  4  3  2  0
  5  3  1  0
  7  4  1  0
  7  6  2  0
  8  7  1  0
  9  5  2  0
  9  6  1  0
 10  1  1  0
 10  2  1  0
 10  8  1  0
 11  8  2  0
M  END
>  <NAME>  (3814) 
N,N-DIMETHYLNICOTINAMIDE

>  <SYNONYMS>  (3814) 


>  <SPECTRUM TYPE>  (3814) 
MS1

>  <INSTRUMENT TYPE>  (3814) 
EI-B

>  <INSTRUMENT>  (3814) 
HITACHI M-80

>  <ION MODE>  (3814) 
P

>  <INCHIKEY>  (3814) 
FJEVKYZLIRAAKE-UHFFFAOYSA-N

>  <FORMULA>  (3814) 
C8H10N2O

>  <EXACT MASS>  (3814) 
150.07931294

>  <MW>  (3814) 
150

>  <ID>  (3814) 
JP005707

>  <CONTRIBUTOR>  (3814) 
University of Tokyo Team, {Faculty of Engineering, University of Tokyo

>  <COMMENT>  (3814) 
SMILES=CN(C)C(=O)c(c1)cncc1
InChI=InChI=1S/C8H10N2O/c1-10(2)8(11)7-4-3-5-9-6-7/h3-6H,1-2H3
computed SMILES=O=C(C=1C=NC=CC1)N(C)C
accession=JP005707
date=2016.01.19 (Created 2008.10.21, modified 2011.05.06)
author=MASS SPECTROSCOPY SOC. OF JAPAN (MSSJ)
license=CC BY-NC-SA
exact mass=150.07931
ionization energy=70 eV
ion type=[M]+*
computed spectral entropy=2.4932267398582812
computed normalized entropy=0.6406325443825542
SPLASH=splash10-0pdj-6900000000-e5a4e0226ea0610b33c2
submitter=submitter = University of Tokyo Team (Faculty of Engineering, University of Tokyo)
MoNA Rating=3.75

>  <NUM PEAKS>  (3814) 
49

>  <MASS SPECTRAL PEAKS>  (3814) 
15 3.93
18 2.06
26 1.08
27 2.02
28 4.44
29 0.41
37 0.41
38 0.89
39 1.49
40 0.83
41 1.16
42 10.64
43 2.11
44 6.36
45 0.45
49 1.08
50 9.19
51 26.08
52 4.67
53 2.48
72 6.63
73 0.26
75 0.79
76 1.38
77 2.38
78 69.97
79 7.87
80 0.98
92 0.55
93 3.49
94 1.85
95 0.62
104 0.24
105 0.82
106 99.99
107 7.65
108 0.79
109 0.28
120 0.47
121 0.58
122 0.58
123 0.3
133 0.25
134 0.27
135 0.93
149 88.39
150 42.1
151 10.42
152 0.93

>  <PREDICTED SPECTRUM>  (3814) 
26 44
27 14
28 89
29 49
37 3
39 30
40 20
41 58
42 337
43 226
44 266
45 59
49 74
50 337
51 587
52 364
53 93
54 22
56 171
62 18
63 25
66 39
71 21
72 386
73 12
75 128
76 142
77 63
78 842
79 394
80 215
92 0
104 26
105 22
106 999
107 377
108 207
121 79
122 8
135 111
149 766
150 730
151 242

$$$$

     RDKit          2D

 11 11  0  0  0  0  0  0  0  0999 V2000
    0.6471   -2.6191    0.0000 C   0  0  0  0  0  0  0  0  0  0  0  0
   -0.6520   -1.8691    0.0000 C   0  0  0  0  0  0  0  0  0  0  0  0
    1.9416   -1.8769    0.0000 C   0  0  0  0  0  0  0  0  0  0  0  0
    0.6430    0.3740    0.0000 C   0  0  0  0  0  0  0  0  0  0  0  0
   -1.9568    0.3709    0.0000 C   0  0  0  0  0  0  0  0  0  0  0  0
   -0.6565   -0.3769    0.0000 C   0  0  0  0  0  0  0  0  0  0  0  0
    1.9421   -0.3760    0.0000 C   0  0  0  0  0  0  0  0  0  0  0  0
    3.2412    0.3737    0.0000 N   0  0  0  0  0  0  0  0  0  0  0  0
   -3.2546   -0.3812    0.0000 O   0  0  0  0  0  0  0  0  0  0  0  0
    4.5401   -0.3765    0.0000 O   0  0  0  0  0  0  0  0  0  0  0  0
    3.2415    1.8737    0.0000 O   0  0  0  0  0  0  0  0  0  0  0  0
  2  1  2  0
  3  1  1  0
  6  2  1  0
  6  4  2  0
  6  5  1  0
  7  3  2  0
  7  4  1  0
  8  7  1  0
  9  5  1  0
 10  8  1  0
 11  8  2  0
M  CHG  2   8   1  10  -1
M  END
>  <NAME>  (3815) 
3-NITROBENZYL ALCOHOL

>  <SYNONYMS>  (3815) 


>  <SPECTRUM TYPE>  (3815) 
MS1

>  <INSTRUMENT TYPE>  (3815) 
EI-B

>  <INSTRUMENT>  (3815) 
HITACHI M-80

>  <ION MODE>  (3815) 
P

>  <INCHIKEY>  (3815) 
CWNPOQFCIIFQDM-UHFFFAOYSA-N

>  <FORMULA>  (3815) 
C7H7NO3

>  <EXACT MASS>  (3815) 
153.042593084

>  <MW>  (3815) 
153

>  <ID>  (3815) 
JP005704

>  <CONTRIBUTOR>  (3815) 
University of Tokyo Team, {Faculty of Engineering, University of Tokyo

>  <COMMENT>  (3815) 
SMILES=OCc(c1)cc(cc1)[N+1]([O-1])=O
cas=619-25-0
InChI=InChI=1S/C7H7NO3/c9-5-6-2-1-3-7(4-6)8(10)11/h1-4,9H,5H2
computed SMILES=O=N(=O)C1=CC=CC(=C1)CO
accession=JP005704
date=2016.01.19 (Created 2008.10.21, modified 2011.05.06)
author=MASS SPECTROSCOPY SOC. OF JAPAN (MSSJ)
license=CC BY-NC-SA
exact mass=153.04259
ionization energy=70 eV
ion type=[M]+*
computed spectral entropy=3.277962397248224
computed normalized entropy=0.7823943974110765
SPLASH=splash10-0pdr-9600000000-5e187daf5562e5789795
submitter=submitter = University of Tokyo Team (Faculty of Engineering, University of Tokyo)
MoNA Rating=3.75

>  <NUM PEAKS>  (3815) 
66

>  <MASS SPECTRAL PEAKS>  (3815) 
27 5.48
28 1.21
29 5.34
30 7.32
31 7
37 1.44
38 3.25
39 11.67
40 1.33
41 2.84
46 3.11
49 0.82
50 14.82
51 27.09
52 6.94
53 8.88
55 2.24
61 1.6
62 4.42
63 13.84
64 3.52
65 3.45
66 2.1
67 2.23
73 0.98
74 5.87
75 5.3
76 8.25
77 99.99
78 33.2
79 15.81
80 1.22
81 0.67
85 0.47
86 0.97
87 1
88 0.57
89 51.48
90 8.29
91 1.97
92 1.46
93 0.67
94 3.33
95 1.4
104 1.37
105 18.03
106 31.51
107 66.74
108 19.81
109 1.28
110 0.75
121 1.48
122 0.49
123 0.56
124 6.24
125 1.37
135 0.71
136 36.94
137 7.31
138 0.75
150 1.14
151 0.63
152 6.37
153 48.53
154 7.16
155 2.84

>  <PREDICTED SPECTRUM>  (3815) 
14 15
15 6
16 5
17 27
18 20
25 28
26 121
27 250
28 148
29 225
30 276
31 241
32 31
37 145
38 294
39 623
40 195
41 236
43 37
44 65
45 41
46 118
49 48
50 566
51 729
52 412
53 316
54 90
56 60
57 5
58 30
61 120
62 325
63 739
64 338
65 469
66 88
67 171
68 23
74 301
75 351
76 383
77 879
78 657
79 568
80 131
81 79
86 102
89 880
90 486
91 137
92 131
93 65
94 192
95 236
104 64
105 610
106 798
107 924
108 284
109 101
120 103
121 52
122 291
123 251
124 249
125 30
135 90
136 948
137 227
150 82
151 85
152 420
153 999
154 301
155 44

$$$$

     RDKit          2D

 15 15  0  0  0  0  0  0  0  0999 V2000
    1.3000    0.7500    0.0000 C   0  0  0  0  0  0  0  0  0  0  0  0
   -1.3000    0.7500    0.0000 C   0  0  0  0  0  0  0  0  0  0  0  0
    0.0000   -1.5000    0.0000 C   0  0  0  0  0  0  0  0  0  0  0  0
    0.0000    1.5000    0.0000 C   0  0  0  0  0  0  0  0  0  0  0  0
    1.3000   -0.7500    0.0000 C   0  0  0  0  0  0  0  0  0  0  0  0
   -1.3000   -0.7500    0.0000 C   0  0  0  0  0  0  0  0  0  0  0  0
    0.0000    3.0000    0.0000 C   0  0  0  0  0  0  0  0  0  0  0  0
    2.5989   -1.5002    0.0000 C   0  0  0  0  0  0  0  0  0  0  0  0
   -2.5989   -1.5002    0.0000 C   0  0  0  0  0  0  0  0  0  0  0  0
    1.2990    3.7500    0.0000 O   0  0  0  0  0  0  0  0  0  0  0  0
   -1.2990    3.7500    0.0000 O   0  0  0  0  0  0  0  0  0  0  0  0
    3.8981   -0.7504    0.0000 O   0  0  0  0  0  0  0  0  0  0  0  0
    2.5987   -3.0002    0.0000 O   0  0  0  0  0  0  0  0  0  0  0  0
   -2.5987   -3.0002    0.0000 O   0  0  0  0  0  0  0  0  0  0  0  0
   -3.8981   -0.7504    0.0000 O   0  0  0  0  0  0  0  0  0  0  0  0
  4  1  2  0
  4  2  1  0
  5  1  1  0
  5  3  2  0
  6  2  2  0
  6  3  1  0
  7  4  1  0
  8  5  1  0
  9  6  1  0
 10  7  2  0
 11  7  1  0
 12  8  2  0
 13  8  1  0
 14  9  2  0
 15  9  1  0
M  END
>  <NAME>  (3816) 
1,3,5-BENZENETRICARBOXYLIC ACID

>  <SYNONYMS>  (3816) 
TRIMESIC ACID

>  <SPECTRUM TYPE>  (3816) 
MS1

>  <INSTRUMENT TYPE>  (3816) 
EI-B

>  <INSTRUMENT>  (3816) 
HITACHI M-80

>  <ION MODE>  (3816) 
P

>  <INCHIKEY>  (3816) 
QMKYBPDZANOJGF-UHFFFAOYSA-N

>  <FORMULA>  (3816) 
C9H6O6

>  <EXACT MASS>  (3816) 
210.016437912

>  <MW>  (3816) 
210

>  <ID>  (3816) 
JP005702

>  <CONTRIBUTOR>  (3816) 
University of Tokyo Team, {Faculty of Engineering, University of Tokyo

>  <COMMENT>  (3816) 
SMILES=OC(=O)c(c1)cc(C(O)=O)cc(C(O)=O)1
cas=554-95-0
InChI=InChI=1S/C9H6O6/c10-7(11)4-1-5(8(12)13)3-6(2-4)9(14)15/h1-3H,(H,10,11)(H,12,13)(H,14,15)
computed SMILES=O=C(O)C=1C=C(C=C(C1)C(=O)O)C(=O)O
accession=JP005702
date=2016.01.19 (Created 2008.10.21, modified 2011.05.06)
author=MASS SPECTROSCOPY SOC. OF JAPAN (MSSJ)
license=CC BY-NC-SA
exact mass=210.01644
ionization energy=70 eV
ion type=[M]+*
computed spectral entropy=3.5354071263330735
computed normalized entropy=0.7612208367273045
SPLASH=splash10-0296-9420000000-71690f781c3736b430e7
submitter=submitter = University of Tokyo Team (Faculty of Engineering, University of Tokyo)
MoNA Rating=3.75

>  <NUM PEAKS>  (3816) 
104

>  <MASS SPECTRAL PEAKS>  (3816) 
17 0.5
18 2.04
27 1.57
28 3.29
29 1.41
32 1.01
35 1.59
36 3.44
37 2.9
38 3.76
39 11.3
40 0.73
41 2.74
42 1.16
43 3.66
44 4.19
45 22.31
46 0.55
47 2.61
48 1.31
49 3.55
50 18.39
51 13.79
52 2.97
53 16.66
54 1.29
55 5.08
56 1.62
57 3
58 0.7
59 0.4
60 0.74
61 2.85
62 5.08
63 14.59
64 5.36
65 42.08
66 3.53
67 1.54
68 0.47
69 4.33
70 1.3
71 1.65
72 0.98
73 6.93
74 32.34
75 33.5
76 4.86
77 5.48
78 1.5
79 2.31
80 0.87
81 33.85
82 2.65
83 7.76
84 1.35
85 4.79
86 0.72
87 1.16
88 0.93
89 0.61
90 1.2
91 4.79
92 2.89
93 1.95
94 0.45
95 0.58
100 0.41
101 1.7
102 4.24
103 1.81
104 0.66
105 1.02
106 0.38
107 1.14
108 0.52
109 4
110 0.32
119 7.13
120 7.39
121 2.85
122 0.53
147 1.28
148 1.01
149 1.59
150 0.21
165 18.11
166 1.92
167 0.51
182 0.74
183 0.42
185 0.42
189 0.73
191 1.43
192 0.25
193 99.99
194 10.23
195 1.75
196 0.29
209 0.89
210 78.95
211 7.77
212 1.19
213 0.25

>  <PREDICTED SPECTRUM>  (3816) 
25 6
28 13
29 26
37 190
38 308
39 532
40 208
41 203
42 67
43 49
44 298
45 817
46 144
49 26
50 387
51 255
52 134
53 371
54 150
55 117
56 0
57 13
61 79
62 200
63 193
64 110
65 585
66 261
67 8
68 142
74 409
75 215
81 366
91 138
92 61
93 112
104 149
105 60
109 55
118 27
119 243
120 431
121 405
122 82
135 21
137 265
138 72
147 200
148 120
149 143
165 601
166 377
180 96
193 483
194 101
209 23
210 999
211 256
212 9

$$$$

     RDKit          2D

 10 10  0  0  0  0  0  0  0  0999 V2000
   -0.7422   -1.3322    0.0000 C   0  0  0  0  0  0  0  0  0  0  0  0
    0.7678   -1.3122    0.0000 C   0  0  0  0  0  0  0  0  0  0  0  0
   -0.7422    1.2678    0.0000 C   0  0  0  0  0  0  0  0  0  0  0  0
    0.7378    1.2778    0.0000 C   0  0  0  0  0  0  0  0  0  0  0  0
   -1.4822   -0.0422    0.0000 C   0  0  0  0  0  0  0  0  0  0  0  0
    1.5078   -0.0122    0.0000 C   0  0  0  0  0  0  0  0  0  0  0  0
   -2.9822   -0.0472    0.0000 N   0  0  0  0  0  0  0  0  0  0  0  0
    3.0077    0.0033    0.0000 N   0  0  0  0  0  0  0  0  0  0  0  0
   -3.7365    1.2494    0.0000 O   0  0  0  0  0  0  0  0  0  0  0  0
    3.7443    1.3100    0.0000 O   0  0  0  0  0  0  0  0  0  0  0  0
  2  1  2  0
  4  3  2  0
  5  1  1  0
  5  3  1  0
  6  2  1  0
  6  4  1  0
  5  7  2  0
  6  8  2  0
  9  7  1  0
 10  8  1  0
M  END
>  <NAME>  (3817) 
P-BENZOQUINONE DIOXIME

>  <SYNONYMS>  (3817) 
QUINONE DIOXIME

>  <SPECTRUM TYPE>  (3817) 
MS1

>  <INSTRUMENT TYPE>  (3817) 
EI-B

>  <INSTRUMENT>  (3817) 
HITACHI M-80

>  <ION MODE>  (3817) 
P

>  <INCHIKEY>  (3817) 
LNHURPJLTHSVMU-SFECMWDFSA-N

>  <FORMULA>  (3817) 
C6H6N2O2

>  <EXACT MASS>  (3817) 
138.042927432

>  <MW>  (3817) 
138

>  <ID>  (3817) 
JP005701

>  <CONTRIBUTOR>  (3817) 
University of Tokyo Team, {Faculty of Engineering, University of Tokyo

>  <COMMENT>  (3817) 
SMILES=ON=c(c1)ccc(=NO)c1
cas=105-11-3
InChI=InChI=1S/C6H6N2O2/c9-7-5-1-2-6(8-10)4-3-5/h1-4,9-10H/b7-5-,8-6-
computed SMILES=ON=C1C=CC(=NO)C=C1
accession=JP005701
date=2016.01.19 (Created 2008.10.21, modified 2011.05.06)
author=MASS SPECTROSCOPY SOC. OF JAPAN (MSSJ)
license=CC BY-NC-SA
exact mass=138.04293
ionization energy=70 eV
ion type=[M]+*
computed spectral entropy=2.9941115650623935
computed normalized entropy=0.7283394392507111
SPLASH=splash10-000i-9800000000-0a69d710699e60bded5e
submitter=submitter = University of Tokyo Team (Faculty of Engineering, University of Tokyo)
MoNA Rating=3.75

>  <NUM PEAKS>  (3817) 
61

>  <MASS SPECTRAL PEAKS>  (3817) 
18 0.81
26 2.42
27 1.24
28 2.18
29 0.79
30 4
31 0.69
37 1.86
38 2.49
39 5.72
40 2.52
41 1.18
42 1.27
43 1.29
44 1.46
50 3.15
51 6.18
52 16.53
53 9.73
54 1.14
55 0.52
61 1.41
62 2.56
63 8.47
64 6.06
65 4.67
66 2.38
67 0.96
68 1.15
69 0.96
74 0.98
75 1.07
76 4.45
77 4.65
78 17.74
79 3.12
80 2.03
81 0.9
87 0.43
88 0.75
89 0.34
90 5.95
91 4.64
92 1.95
93 0.59
94 0.46
95 2.44
103 2.66
104 0.71
106 1.19
107 4.19
108 6.05
109 0.53
121 0.81
122 2.63
123 1.84
136 1.17
137 0.88
138 99.99
139 10.11
140 0.87

>  <PREDICTED SPECTRUM>  (3817) 
16 4
25 9
26 109
27 186
28 175
29 150
30 254
31 76
32 21
33 51
34 37
36 55
37 156
38 256
39 484
40 294
41 461
42 134
43 157
44 385
45 220
46 72
47 8
48 4
49 114
50 418
51 556
52 620
53 582
54 434
55 363
56 185
57 171
58 68
59 83
60 149
61 182
62 290
63 484
64 411
65 355
66 347
67 169
68 308
69 278
70 168
71 55
72 48
73 35
74 177
75 266
76 297
77 504
78 560
79 459
80 521
81 416
82 290
83 115
84 111
86 17
87 127
88 64
89 201
90 374
91 370
92 356
93 240
94 206
95 269
103 252
104 280
105 367
106 696
107 474
108 454
109 203
110 230
111 104
112 16
119 180
120 480
121 528
122 435
123 170
137 98
138 999
139 292
140 3

$$$$

     RDKit          2D

 10 10  0  0  0  0  0  0  0  0999 V2000
   -0.3252    1.6883    0.0000 C   0  0  0  0  0  0  0  0  0  0  0  0
    0.9748   -0.5633    0.0000 C   0  0  0  0  0  0  0  0  0  0  0  0
   -1.6243    0.9383    0.0000 C   0  0  0  0  0  0  0  0  0  0  0  0
   -0.3243   -1.3133    0.0000 C   0  0  0  0  0  0  0  0  0  0  0  0
    0.9743    0.9375    0.0000 C   0  0  0  0  0  0  0  0  0  0  0  0
   -1.6238   -0.5625    0.0000 N   0  0  0  0  0  0  0  0  0  0  0  0
    2.2733    1.6875    0.0000 N   0  0  0  0  0  0  0  0  0  0  0  0
   -2.9228   -1.3125    0.0000 O   0  0  0  0  0  0  0  0  0  0  0  0
    2.2733    3.1875    0.0000 O   0  0  0  0  0  0  0  0  0  0  0  0
    3.5724    0.9375    0.0000 O   0  0  0  0  0  0  0  0  0  0  0  0
  3  1  2  0
  4  2  1  0
  5  1  1  0
  5  2  2  0
  6  3  1  0
  6  4  2  0
  7  5  1  0
  8  6  1  0
  9  7  1  0
 10  7  2  0
M  CHG  4   6   1   7   1   8  -1   9  -1
M  END
>  <NAME>  (3818) 
4-NITROPYRIDINE-N-OXIDE

>  <SYNONYMS>  (3818) 


>  <SPECTRUM TYPE>  (3818) 
MS1

>  <INSTRUMENT TYPE>  (3818) 
EI-B

>  <INSTRUMENT>  (3818) 
HITACHI M-80

>  <ION MODE>  (3818) 
P

>  <INCHIKEY>  (3818) 
RXKNNAKAVAHBNK-UHFFFAOYSA-N

>  <FORMULA>  (3818) 
C5H4N2O3

>  <EXACT MASS>  (3818) 
140.022191988

>  <MW>  (3818) 
140

>  <ID>  (3818) 
JP005700

>  <CONTRIBUTOR>  (3818) 
University of Tokyo Team, {Faculty of Engineering, University of Tokyo

>  <COMMENT>  (3818) 
SMILES=[O-1][n+1](c1)ccc(c1)[N+1]([O-1])=O
cas=1124-33-0
InChI=InChI=1S/C5H4N2O3/c8-6-3-1-5(2-4-6)7(9)10/h1-4H
computed SMILES=O=N(=O)C1=CC=N(=O)C=C1
accession=JP005700
date=2016.01.19 (Created 2008.10.21, modified 2011.05.06)
author=MASS SPECTROSCOPY SOC. OF JAPAN (MSSJ)
license=CC BY-NC-SA
exact mass=140.02219
ionization energy=70 eV
ion type=[M]+*
computed spectral entropy=2.8843673161671943
computed normalized entropy=0.7411357912819039
SPLASH=splash10-01p6-9500000000-d5908a7ed7f0f1bb6550
submitter=submitter = University of Tokyo Team (Faculty of Engineering, University of Tokyo)
MoNA Rating=3.75

>  <NUM PEAKS>  (3818) 
49

>  <MASS SPECTRAL PEAKS>  (3818) 
26 3.47
27 3.42
28 10.2
29 3.02
30 34.53
31 0.29
37 3.61
38 12.63
39 53.39
40 3.72
41 0.73
42 0.55
46 2.1
48 0.29
49 2.52
50 13.3
51 17.87
52 3.7
53 8.52
54 2.59
55 0.73
56 2.31
60 0.33
61 3.27
62 9.15
63 29.83
64 15.67
65 1.41
66 0.66
67 0.55
68 0.9
75 1.3
76 1.57
77 1.7
78 5.95
79 0.65
82 3.72
84 3.14
93 0.34
94 8.03
95 0.83
110 49.22
111 2.93
112 0.3
124 6.7
125 0.56
140 99.99
141 10.42
142 1.04

>  <PREDICTED SPECTRUM>  (3818) 
14 8
15 3
16 9
25 37
26 84
27 101
28 50
29 103
30 343
32 0
34 2
36 65
37 305
38 455
39 640
40 318
41 379
42 35
43 171
44 22
45 91
46 109
48 85
49 177
50 514
51 574
52 633
53 542
54 217
55 190
56 64
57 173
61 102
62 267
63 369
64 444
65 213
66 335
67 221
68 137
69 83
71 181
76 232
77 311
78 192
79 16
80 151
81 113
82 232
83 55
92 46
93 187
94 361
95 152
96 106
110 419
111 90
123 91
124 281
125 79
140 999
141 271
142 58

$$$$

     RDKit          2D

 12 12  0  0  0  0  0  0  0  0999 V2000
    3.7357    1.3265    0.0000 C   0  0  0  0  0  0  0  0  0  0  0  0
    3.7443   -1.2716    0.0000 C   0  0  0  0  0  0  0  0  0  0  0  0
    0.7500    1.3100    0.0000 C   0  0  0  0  0  0  0  0  0  0  0  0
    0.7500   -1.2900    0.0000 C   0  0  0  0  0  0  0  0  0  0  0  0
   -0.7600    1.2900    0.0000 C   0  0  0  0  0  0  0  0  0  0  0  0
   -0.7300   -1.3000    0.0000 C   0  0  0  0  0  0  0  0  0  0  0  0
    1.4900    0.0200    0.0000 C   0  0  0  0  0  0  0  0  0  0  0  0
   -1.5000   -0.0100    0.0000 C   0  0  0  0  0  0  0  0  0  0  0  0
    2.9900    0.0250    0.0000 N   0  0  0  0  0  0  0  0  0  0  0  0
   -2.9999   -0.0255    0.0000 N   0  0  0  0  0  0  0  0  0  0  0  0
   -3.7633    1.2657    0.0000 O   0  0  0  0  0  0  0  0  0  0  0  0
   -3.7365   -1.3322    0.0000 O   0  0  0  0  0  0  0  0  0  0  0  0
  5  3  2  0
  6  4  1  0
  7  3  1  0
  7  4  2  0
  8  5  1  0
  8  6  2  0
  9  1  1  0
  9  2  1  0
  9  7  1  0
 10  8  1  0
 11 10  1  0
 12 10  2  0
M  CHG  2  10   1  11  -1
M  END
>  <NAME>  (3819) 
N,N-DIMETHYL-4-NITROANILINE

>  <SYNONYMS>  (3819) 


>  <SPECTRUM TYPE>  (3819) 
MS1

>  <INSTRUMENT TYPE>  (3819) 
EI-B

>  <INSTRUMENT>  (3819) 
HITACHI M-80

>  <ION MODE>  (3819) 
P

>  <INCHIKEY>  (3819) 
QJAIOCKFIORVFU-UHFFFAOYSA-N

>  <FORMULA>  (3819) 
C8H10N2O2

>  <EXACT MASS>  (3819) 
166.07422756

>  <MW>  (3819) 
166

>  <ID>  (3819) 
JP005699

>  <CONTRIBUTOR>  (3819) 
University of Tokyo Team, {Faculty of Engineering, University of Tokyo

>  <COMMENT>  (3819) 
SMILES=CN(C)c(c1)ccc(c1)[N+1]([O-1])=O
InChI=InChI=1S/C8H10N2O2/c1-9(2)7-3-5-8(6-4-7)10(11)12/h3-6H,1-2H3
computed SMILES=O=N(=O)C1=CC=C(C=C1)N(C)C
accession=JP005699
date=2016.01.19 (Created 2008.10.21, modified 2011.05.06)
author=MASS SPECTROSCOPY SOC. OF JAPAN (MSSJ)
license=CC BY-NC-SA
exact mass=166.07423
ionization energy=70 eV
ion type=[M]+*
computed spectral entropy=2.930040528309084
computed normalized entropy=0.7452112077205433
SPLASH=splash10-014i-3900000000-e89d0944a6cb3b522f92
submitter=submitter = University of Tokyo Team (Faculty of Engineering, University of Tokyo)
MoNA Rating=3.75

>  <NUM PEAKS>  (3819) 
51

>  <MASS SPECTRAL PEAKS>  (3819) 
18 1.03
28 1.05
30 3.7
39 1.92
41 0.96
42 9.26
46 1.37
50 3.52
51 3.11
52 1.43
62 0.91
63 3.95
64 1.55
65 3.22
66 1.68
67 1.51
68 1.03
69 0.84
74 1.75
75 1.87
76 3.17
77 9.46
78 4.57
79 5.45
80 1.18
90 2.65
91 5.25
92 3.55
93 2.49
94 0.71
103 1.54
104 7.37
105 11.77
106 1.72
107 0.59
108 4.6
117 1.22
118 5.53
119 18.22
120 10.52
121 1.3
136 29.26
137 2.67
149 0.5
150 2.57
163 0.96
165 19.06
166 99.99
167 10.32
168 1.1
169 0.78

>  <PREDICTED SPECTRUM>  (3819) 
14 23
15 102
16 18
17 21
18 22
25 2
26 35
27 60
28 87
29 5
30 233
31 12
32 17
33 7
34 23
36 0
37 111
38 186
39 374
40 180
41 198
42 436
43 145
44 183
45 7
46 194
47 17
48 4
49 38
50 308
51 404
52 295
53 195
54 133
55 22
57 32
60 50
61 120
62 175
63 349
64 253
65 389
66 268
67 155
68 47
69 89
70 71
72 65
73 44
74 131
75 160
76 257
77 463
78 312
79 269
80 184
81 124
82 78
84 4
88 22
89 114
90 242
91 342
92 293
93 266
94 103
95 16
96 1
102 101
103 257
104 411
105 443
106 207
107 116
108 163
109 27
117 63
118 339
119 548
120 505
121 288
122 107
135 4
136 258
137 102
149 136
150 198
151 38
165 652
166 999
167 351
168 131

$$$$

     RDKit          2D

  9  9  0  0  0  0  0  0  0  0999 V2000
    2.9228    0.9375    0.0000 C   0  0  0  0  0  0  0  0  0  0  0  0
    1.6238   -1.3125    0.0000 C   0  0  0  0  0  0  0  0  0  0  0  0
    0.3252    2.4383    0.0000 C   0  0  0  0  0  0  0  0  0  0  0  0
   -0.9748    0.1867    0.0000 C   0  0  0  0  0  0  0  0  0  0  0  0
   -0.9738    3.1883    0.0000 C   0  0  0  0  0  0  0  0  0  0  0  0
   -2.2738    0.9367    0.0000 C   0  0  0  0  0  0  0  0  0  0  0  0
    0.3248    0.9375    0.0000 C   0  0  0  0  0  0  0  0  0  0  0  0
   -2.2733    2.4375    0.0000 N   0  0  0  0  0  0  0  0  0  0  0  0
    1.6238    0.1875    0.0000 N   0  0  0  0  0  0  0  0  0  0  0  0
  5  3  2  0
  6  4  1  0
  7  3  1  0
  7  4  2  0
  8  5  1  0
  8  6  2  0
  9  1  1  0
  9  2  1  0
  9  7  1  0
M  END
>  <NAME>  (3820) 
4-DIMETHYLAMINOPYRIDINE

>  <SYNONYMS>  (3820) 


>  <SPECTRUM TYPE>  (3820) 
MS1

>  <INSTRUMENT TYPE>  (3820) 
EI-B

>  <INSTRUMENT>  (3820) 
HITACHI M-80

>  <ION MODE>  (3820) 
P

>  <INCHIKEY>  (3820) 
VHYFNPMBLIVWCW-UHFFFAOYSA-N

>  <FORMULA>  (3820) 
C7H10N2

>  <EXACT MASS>  (3820) 
122.08439831999999

>  <MW>  (3820) 
122

>  <ID>  (3820) 
JP005697

>  <CONTRIBUTOR>  (3820) 
University of Tokyo Team, {Faculty of Engineering, University of Tokyo

>  <COMMENT>  (3820) 
SMILES=CN(C)c(c1)ccnc1
cas=1122-58-3
InChI=InChI=1S/C7H10N2/c1-9(2)7-3-5-8-6-4-7/h3-6H,1-2H3
computed SMILES=N=1C=CC(=CC1)N(C)C
accession=JP005697
date=2016.01.19 (Created 2008.10.21, modified 2011.05.06)
author=MASS SPECTROSCOPY SOC. OF JAPAN (MSSJ)
license=CC BY-NC-SA
exact mass=122.0844
ionization energy=70 eV
ion type=[M]+*
computed spectral entropy=2.407119576012919
computed normalized entropy=0.60628276923329
SPLASH=splash10-00di-3900000000-c030bfb45064ef8fa8dc
submitter=submitter = University of Tokyo Team (Faculty of Engineering, University of Tokyo)
MoNA Rating=3.75

>  <NUM PEAKS>  (3820) 
53

>  <MASS SPECTRAL PEAKS>  (3820) 
15 2.62
18 1.05
26 0.86
27 1.36
28 2.6
29 0.24
30 0.42
37 0.4
38 0.94
39 2.78
40 1.01
41 1.42
42 6.9
43 1.18
44 4.32
49 0.59
50 4.61
51 10.77
52 4.08
53 1.83
54 1.18
55 0.37
61 1.05
62 0.21
63 0.48
64 0.99
65 1.32
66 1.78
67 1.07
68 1.19
69 0.37
75 0.5
76 0.7
77 0.84
78 10.09
79 4.04
80 3.7
81 0.88
92 2.34
93 2.42
94 6.83
95 1.12
104 0.46
105 5.07
106 4.48
107 3.39
108 0.72
119 2.14
120 0.96
121 99.95
122 99.99
123 10.42
124 0.5

>  <PREDICTED SPECTRUM>  (3820) 
15 59
26 41
27 88
28 65
29 27
30 59
34 5
36 23
37 114
38 192
39 312
40 187
41 269
42 527
43 219
44 324
45 56
49 58
50 315
51 489
52 394
53 288
54 215
55 66
60 4
61 164
62 207
63 321
64 239
65 344
66 265
67 222
68 161
69 37
74 71
75 116
76 200
77 372
78 535
79 358
80 342
81 161
82 76
88 20
89 107
90 137
91 228
92 381
93 349
94 161
95 50
103 5
104 234
105 330
106 446
107 916
108 368
109 78
118 110
119 326
120 333
121 999
122 948
123 250
124 0

$$$$

     RDKit          2D

 15 16  0  0  0  0  0  0  0  0999 V2000
    0.0000   -1.9300    0.0000 C   0  0  0  0  0  0  0  0  0  0  0  0
   -3.8971    4.8200    0.0000 C   0  0  0  0  0  0  0  0  0  0  0  0
    1.3000   -1.1800    0.0000 C   0  0  0  0  0  0  0  0  0  0  0  0
   -1.3000   -1.1800    0.0000 C   0  0  0  0  0  0  0  0  0  0  0  0
   -3.8976    3.3192    0.0000 C   0  0  0  0  0  0  0  0  0  0  0  0
   -2.5976    5.5708    0.0000 C   0  0  0  0  0  0  0  0  0  0  0  0
    1.3000    0.3200    0.0000 C   0  0  0  0  0  0  0  0  0  0  0  0
   -1.3000    0.3200    0.0000 C   0  0  0  0  0  0  0  0  0  0  0  0
   -2.5986    2.5692    0.0000 C   0  0  0  0  0  0  0  0  0  0  0  0
   -1.2986    4.8208    0.0000 C   0  0  0  0  0  0  0  0  0  0  0  0
    1.2990    3.3200    0.0000 C   0  0  0  0  0  0  0  0  0  0  0  0
    0.0000    1.0700    0.0000 C   0  0  0  0  0  0  0  0  0  0  0  0
   -1.2990    3.3200    0.0000 C   0  0  0  0  0  0  0  0  0  0  0  0
    0.0000    2.5700    0.0000 C   0  0  0  0  0  0  0  0  0  0  0  0
    2.5981    4.0700    0.0000 N   0  0  0  0  0  0  0  0  0  0  0  0
  3  1  2  0
  4  1  1  0
  5  2  2  0
  6  2  1  0
  7  3  1  0
  8  4  2  0
  9  5  1  0
 10  6  2  0
 12  7  2  0
 12  8  1  0
 13  9  2  0
 13 10  1  0
 14 11  1  0
 14 12  1  0
 14 13  1  0
 15 11  3  0
M  END
>  <NAME>  (3821) 
DIPHENYLACETONITRILE

>  <SYNONYMS>  (3821) 


>  <SPECTRUM TYPE>  (3821) 
MS1

>  <INSTRUMENT TYPE>  (3821) 
EI-B

>  <INSTRUMENT>  (3821) 
HITACHI M-80

>  <ION MODE>  (3821) 
P

>  <INCHIKEY>  (3821) 
NEBPTMCRLHKPOB-UHFFFAOYSA-N

>  <FORMULA>  (3821) 
C14H11N

>  <EXACT MASS>  (3821) 
193.089149352

>  <MW>  (3821) 
193

>  <ID>  (3821) 
JP005694

>  <CONTRIBUTOR>  (3821) 
University of Tokyo Team, {Faculty of Engineering, University of Tokyo

>  <COMMENT>  (3821) 
SMILES=N#CC(c(c2)cccc2)c(c1)cccc1
cas=86-29-3
InChI=InChI=1S/C14H11N/c15-11-14(12-7-3-1-4-8-12)13-9-5-2-6-10-13/h1-10,14H
computed SMILES=N#CC(C=1C=CC=CC1)C=2C=CC=CC2
accession=JP005694
date=2016.01.19 (Created 2008.10.21, modified 2011.05.06)
author=MASS SPECTROSCOPY SOC. OF JAPAN (MSSJ)
license=CC BY-NC-SA
exact mass=193.08915
ionization energy=70 eV
ion type=[M]+*
computed spectral entropy=2.870819967575494
computed normalized entropy=0.6877224804413671
SPLASH=splash10-0006-2900000000-a9e447bf71fcf2d1d04c
submitter=submitter = University of Tokyo Team (Faculty of Engineering, University of Tokyo)
MoNA Rating=3.75

>  <NUM PEAKS>  (3821) 
65

>  <MASS SPECTRAL PEAKS>  (3821) 
18 0.72
27 0.83
28 0.73
38 0.6
39 3.05
50 2.8
51 8.67
52 1.02
61 0.38
62 1.45
63 3.86
64 1.17
65 1.08
69 0.41
74 1.41
75 1.37
76 1.39
77 6.19
78 0.95
82 1.44
83 1.72
84 0.27
86 0.58
87 1.14
88 1.78
89 7.6
90 4.12
91 0.69
113 0.81
114 1.55
115 6.15
116 8.37
117 0.87
126 0.72
127 0.57
128 0.54
137 0.42
138 0.41
139 2.28
140 1.47
141 0.49
150 0.48
151 0.86
152 2.4
153 1.5
154 0.34
162 0.3
163 2.44
164 3.24
165 36.73
166 17.1
167 3.68
168 0.36
176 0.34
177 1.84
178 4.4
179 0.64
188 0.41
189 0.41
190 5.46
191 3.8
192 16.47
193 99.99
194 15.88
195 1.22

>  <PREDICTED SPECTRUM>  (3821) 
15 3
18 5
26 72
27 83
28 72
29 9
33 1
34 2
36 7
37 34
38 93
39 241
40 99
41 88
42 49
43 107
44 57
45 2
49 22
50 185
51 292
52 141
53 54
54 37
55 44
56 23
57 121
61 85
62 152
63 270
64 157
65 127
66 43
67 7
68 66
69 113
70 101
71 88
72 20
73 3
74 162
75 182
76 187
77 215
78 151
79 81
80 69
81 109
82 187
83 203
84 52
85 65
86 97
87 154
88 162
89 334
90 206
91 167
92 38
93 24
94 57
95 90
96 62
97 95
98 97
99 78
100 131
101 111
102 176
103 41
107 60
108 60
109 30
110 38
111 46
112 30
113 111
114 181
115 354
116 391
117 188
118 52
119 33
121 76
122 61
123 15
124 41
125 84
126 108
127 144
128 0
129 73
133 38
134 20
135 19
136 12
137 74
138 150
139 225
140 124
141 69
148 5
149 73
150 75
151 173
152 257
153 206
154 109
155 81
159 14
162 11
163 218
164 186
165 670
166 438
167 361
168 90
176 126
177 124
178 224
179 112
189 102
190 284
191 218
192 842
193 999
194 435
195 129
196 6

$$$$

     RDKit          2D

 15 15  0  0  0  0  0  0  0  0999 V2000
    1.5000    3.0000    0.0000 C   0  0  0  0  0  0  0  0  0  0  0  0
    0.0000    4.5000    0.0000 C   0  0  0  0  0  0  0  0  0  0  0  0
   -1.5000    3.0000    0.0000 C   0  0  0  0  0  0  0  0  0  0  0  0
    1.8487   -2.7991    0.0000 C   0  0  0  0  0  0  0  0  0  0  0  0
    3.8978   -2.2504    0.0000 C   0  0  0  0  0  0  0  0  0  0  0  0
    3.3491   -0.2013    0.0000 C   0  0  0  0  0  0  0  0  0  0  0  0
    1.3000    0.7500    0.0000 C   0  0  0  0  0  0  0  0  0  0  0  0
   -1.3000    0.7500    0.0000 C   0  0  0  0  0  0  0  0  0  0  0  0
   -0.0000   -1.5000    0.0000 C   0  0  0  0  0  0  0  0  0  0  0  0
    0.0000    1.5000    0.0000 C   0  0  0  0  0  0  0  0  0  0  0  0
    1.3000   -0.7500    0.0000 C   0  0  0  0  0  0  0  0  0  0  0  0
   -1.3000   -0.7500    0.0000 C   0  0  0  0  0  0  0  0  0  0  0  0
    0.0000    3.0000    0.0000 C   0  0  0  0  0  0  0  0  0  0  0  0
    2.5989   -1.5002    0.0000 C   0  0  0  0  0  0  0  0  0  0  0  0
   -2.5989   -1.5002    0.0000 O   0  0  0  0  0  0  0  0  0  0  0  0
 10  7  2  0
 10  8  1  0
 11  7  1  0
 11  9  2  0
 12  8  2  0
 12  9  1  0
 13  1  1  0
 13  2  1  0
 13  3  1  0
 13 10  1  0
 14  4  1  0
 14  5  1  0
 14  6  1  0
 14 11  1  0
 15 12  1  0
M  END
>  <NAME>  (3822) 
3,5-DI-TERT-BUTYLPHENOL

>  <SYNONYMS>  (3822) 


>  <SPECTRUM TYPE>  (3822) 
MS1

>  <INSTRUMENT TYPE>  (3822) 
EI-B

>  <INSTRUMENT>  (3822) 
HITACHI M-80

>  <ION MODE>  (3822) 
P

>  <INCHIKEY>  (3822) 
ZDWSNKPLZUXBPE-UHFFFAOYSA-N

>  <FORMULA>  (3822) 
C14H22O

>  <EXACT MASS>  (3822) 
206.167065324

>  <MW>  (3822) 
206

>  <ID>  (3822) 
JP005692

>  <CONTRIBUTOR>  (3822) 
University of Tokyo Team, {Faculty of Engineering, University of Tokyo

>  <COMMENT>  (3822) 
SMILES=Oc(c1)cc(cc1C(C)(C)C)C(C)(C)C
cas=1138-52-9
InChI=InChI=1S/C14H22O/c1-13(2,3)10-7-11(14(4,5)6)9-12(15)8-10/h7-9,15H,1-6H3
computed SMILES=OC=1C=C(C=C(C1)C(C)(C)C)C(C)(C)C
accession=JP005692
date=2016.01.19 (Created 2008.10.21, modified 2011.05.06)
author=MASS SPECTROSCOPY SOC. OF JAPAN (MSSJ)
license=CC BY-NC-SA
exact mass=206.16707
ionization energy=70 eV
ion type=[M]+*
computed spectral entropy=2.7850504004349053
computed normalized entropy=0.6355621799277754
SPLASH=splash10-052f-4920000000-27f6ecb662543f1b6f8d
submitter=submitter = University of Tokyo Team (Faculty of Engineering, University of Tokyo)
MoNA Rating=3.75

>  <NUM PEAKS>  (3822) 
80

>  <MASS SPECTRAL PEAKS>  (3822) 
15 0.86
18 0.81
27 1.59
28 0.87
29 4.92
39 2.62
40 0.35
41 9.63
42 0.5
43 0.94
51 1.04
52 0.33
53 1.12
55 2.1
57 32.14
58 1.53
65 1.48
66 0.85
67 0.64
73 1.36
74 1.87
77 2.83
78 0.75
79 1.55
80 0.33
87 0.21
88 1.63
89 0.5
90 0.19
91 4.26
92 0.48
93 0.5
94 0.42
95 0.97
102 0.31
103 1.16
104 0.35
105 2.16
106 0.37
107 4.12
108 0.55
109 0.32
115 2.24
116 0.86
117 1.25
118 0.34
119 1.44
120 0.53
121 1.98
122 0.26
127 0.59
128 0.86
129 0.59
130 0.23
131 1.3
132 0.65
133 1.98
134 0.71
135 3.8
136 0.38
145 0.7
146 0.43
147 2.91
148 0.73
149 0.98
150 0.17
161 1.12
162 0.21
163 3.41
164 0.67
175 1.39
176 0.5
177 0.47
190 0.35
191 99.99
192 15.45
193 1.31
206 36.25
207 5.74
208 0.5

>  <PREDICTED SPECTRUM>  (3822) 
0 0
1 8
11 3
14 3
15 46
18 4
27 79
28 26
29 157
30 16
33 3
34 2
38 7
39 140
40 44
41 313
42 53
43 158
44 47
45 24
50 41
51 102
52 60
53 117
54 16
55 145
56 18
57 419
58 74
59 48
60 0
61 2
62 24
63 85
64 74
65 131
66 68
67 93
68 12
69 81
70 13
71 40
72 31
73 68
74 47
75 65
76 63
77 171
78 108
79 141
80 68
81 72
83 41
84 2
85 35
87 28
88 27
89 110
90 50
91 233
92 85
93 94
94 54
95 64
96 28
97 32
100 52
101 7
102 75
103 104
104 55
105 159
106 49
107 97
108 38
109 5
113 27
114 7
115 197
116 98
117 130
118 57
119 149
120 66
121 55
122 1
123 9
126 3
127 58
128 171
129 131
130 58
131 132
132 53
133 144
134 64
135 193
136 8
141 120
142 7
143 64
144 50
145 106
146 24
147 126
148 69
149 125
150 63
151 45
152 43
153 52
157 27
158 14
159 69
160 31
161 100
162 2
163 172
164 81
165 50
166 9
175 200
176 128
177 54
178 2
189 95
190 13
191 999
192 396
193 138
194 0
205 31
206 440
207 166
208 16

$$$$

     RDKit          2D

  9  9  0  0  0  0  0  0  0  0999 V2000
    1.2990   -2.9500    0.0000 C   0  0  0  0  0  0  0  0  0  0  0  0
   -0.0000   -2.2000    0.0000 C   0  0  0  0  0  0  0  0  0  0  0  0
   -0.7400    1.5900    0.0000 C   0  0  0  0  0  0  0  0  0  0  0  0
    0.7400    1.5900    0.0000 C   0  0  0  0  0  0  0  0  0  0  0  0
   -1.2100    0.1700    0.0000 C   0  0  0  0  0  0  0  0  0  0  0  0
    1.2100    0.1700    0.0000 C   0  0  0  0  0  0  0  0  0  0  0  0
   -0.0000   -0.7000    0.0000 N   0  0  0  0  0  0  0  0  0  0  0  0
   -2.6367   -0.2931    0.0000 O   0  0  0  0  0  0  0  0  0  0  0  0
    2.6367   -0.2931    0.0000 O   0  0  0  0  0  0  0  0  0  0  0  0
  2  1  1  0
  4  3  2  0
  5  3  1  0
  6  4  1  0
  7  2  1  0
  7  5  1  0
  7  6  1  0
  8  5  2  0
  9  6  2  0
M  END
>  <NAME>  (3823) 
N-ETHYLMALEIMIDE

>  <SYNONYMS>  (3823) 


>  <SPECTRUM TYPE>  (3823) 
MS1

>  <INSTRUMENT TYPE>  (3823) 
EI-B

>  <INSTRUMENT>  (3823) 
HITACHI M-80

>  <ION MODE>  (3823) 
P

>  <INCHIKEY>  (3823) 
HDFGOPSGAURCEO-UHFFFAOYSA-N

>  <FORMULA>  (3823) 
C6H7NO2

>  <EXACT MASS>  (3823) 
125.047678464

>  <MW>  (3823) 
125

>  <ID>  (3823) 
JP005691

>  <CONTRIBUTOR>  (3823) 
University of Tokyo Team, {Faculty of Engineering, University of Tokyo

>  <COMMENT>  (3823) 
SMILES=CCn(c(=O)1)c(=O)cc1
cas=128-53-0
InChI=InChI=1S/C6H7NO2/c1-2-7-5(8)3-4-6(7)9/h3-4H,2H2,1H3
computed SMILES=O=C1C=CC(=O)N1CC
accession=JP005691
date=2016.01.19 (Created 2008.10.21, modified 2011.05.06)
author=MASS SPECTROSCOPY SOC. OF JAPAN (MSSJ)
license=CC BY-NC-SA
exact mass=125.04768
ionization energy=70 eV
ion type=[M]+*
computed spectral entropy=3.037313233816875
computed normalized entropy=0.8026324068416074
SPLASH=splash10-004i-9100000000-48f43555ac8c500a19ef
submitter=submitter = University of Tokyo Team (Faculty of Engineering, University of Tokyo)
MoNA Rating=3.75

>  <NUM PEAKS>  (3823) 
44

>  <MASS SPECTRAL PEAKS>  (3823) 
14 3.38
15 14.22
16 2.07
18 6.05
25 7.14
26 99.99
27 49.76
28 79.27
29 20.07
30 4.02
31 2.42
32 7.5
36 1.3
37 6.14
38 9.07
40 31.6
41 37.93
42 67.15
44 37.07
45 2.66
50 1.52
51 2.67
52 6.89
53 38.75
54 68.21
55 24.01
56 19.58
57 1.36
61 0.98
63 0.74
64 0.64
68 1.7
69 3.06
70 2.74
71 1.29
80 2.03
82 21.16
83 1.52
96 2.93
110 64.04
111 3.62
124 1.39
125 57.07
126 4.84

>  <PREDICTED SPECTRUM>  (3823) 
14 28
15 80
16 3
17 11
18 40
25 60
26 323
27 434
28 430
29 331
30 4
37 50
38 119
39 288
40 190
41 299
42 317
43 185
44 166
50 66
51 93
52 226
53 259
54 858
55 295
56 301
57 35
64 7
66 115
67 93
68 344
69 256
70 274
71 97
72 46
79 6
80 29
81 16
82 999
83 309
84 80
96 298
97 381
98 119
110 777
111 43
124 120
125 961
126 319
127 134

$$$$

     RDKit          2D

 13 14  0  0  0  0  0  0  0  0999 V2000
    3.8989    1.5002    0.0000 C   0  0  0  0  0  0  0  0  0  0  0  0
   -2.6000   -0.7500    0.0000 C   0  0  0  0  0  0  0  0  0  0  0  0
   -2.6000    0.7500    0.0000 C   0  0  0  0  0  0  0  0  0  0  0  0
   -1.3000   -1.5000    0.0000 C   0  0  0  0  0  0  0  0  0  0  0  0
   -1.3000    1.5000    0.0000 C   0  0  0  0  0  0  0  0  0  0  0  0
    2.6000   -0.7500    0.0000 C   0  0  0  0  0  0  0  0  0  0  0  0
    1.3000   -1.5000    0.0000 C   0  0  0  0  0  0  0  0  0  0  0  0
    1.3000    3.0000    0.0000 C   0  0  0  0  0  0  0  0  0  0  0  0
    2.6000    0.7500    0.0000 C   0  0  0  0  0  0  0  0  0  0  0  0
    0.0000   -0.7500    0.0000 C   0  0  0  0  0  0  0  0  0  0  0  0
    0.0000    0.7500    0.0000 C   0  0  0  0  0  0  0  0  0  0  0  0
    1.3000    1.5000    0.0000 C   0  0  0  0  0  0  0  0  0  0  0  0
    2.5990    3.7500    0.0000 Cl  0  0  0  0  0  0  0  0  0  0  0  0
  3  2  2  0
  4  2  1  0
  5  3  1  0
  7  6  2  0
  9  1  1  0
  9  6  1  0
 10  4  2  0
 10  7  1  0
 11  5  2  0
 11 10  1  0
 12  8  1  0
 12  9  2  0
 12 11  1  0
 13  8  1  0
M  END
>  <NAME>  (3824) 
1-CHLOROMETHYL-2-METHYLNAPHTHALENE

>  <SYNONYMS>  (3824) 


>  <SPECTRUM TYPE>  (3824) 
MS1

>  <INSTRUMENT TYPE>  (3824) 
EI-B

>  <INSTRUMENT>  (3824) 
HITACHI M-80

>  <ION MODE>  (3824) 
P

>  <INCHIKEY>  (3824) 
STBYRSZXHDPASK-UHFFFAOYSA-N

>  <FORMULA>  (3824) 
C12H11Cl

>  <EXACT MASS>  (3824) 
190.054928032

>  <MW>  (3824) 
190

>  <ID>  (3824) 
JP005690

>  <CONTRIBUTOR>  (3824) 
University of Tokyo Team, {Faculty of Engineering, University of Tokyo

>  <COMMENT>  (3824) 
SMILES=ClCc(c(C)1)c(c2)c(ccc2)cc1
cas=6626-23-9
InChI=InChI=1S/C12H11Cl/c1-9-6-7-10-4-2-3-5-11(10)12(9)8-13/h2-7H,8H2,1H3
computed SMILES=ClCC=1C=2C=CC=CC2C=CC1C
accession=JP005690
date=2016.01.19 (Created 2008.10.21, modified 2011.05.06)
author=MASS SPECTROSCOPY SOC. OF JAPAN (MSSJ)
license=CC BY-NC-SA
exact mass=190.05493
ionization energy=70 eV
ion type=[M]+*
computed spectral entropy=2.5014486925154227
computed normalized entropy=0.6980425485327905
SPLASH=splash10-0a4i-1900000000-a9b2102546cb48fa0d85
submitter=submitter = University of Tokyo Team (Faculty of Engineering, University of Tokyo)
MoNA Rating=3.75

>  <NUM PEAKS>  (3824) 
36

>  <MASS SPECTRAL PEAKS>  (3824) 
38 1.63
50 1.44
51 2.51
62 1.27
63 3.59
64 2.23
74 1.61
75 2.01
76 5.64
77 3.29
87 1.18
89 1.14
101 0.71
102 1.27
115 5.73
116 0.74
126 1.75
127 4.78
128 8.04
129 4.16
139 3.6
140 0.87
141 1.04
150 0.98
151 2.79
152 9.04
153 12.34
154 7.22
155 99.99
156 12.57
157 0.94
189 0.53
190 38.52
191 5.19
192 12.15
193 1.67

>  <PREDICTED SPECTRUM>  (3824) 
26 32
27 42
28 21
31 28
32 4
33 12
34 2
35 42
36 60
37 24
38 77
39 159
40 45
41 73
43 35
44 66
45 19
47 13
49 89
50 192
51 249
52 101
53 21
55 4
57 40
58 28
60 6
61 78
62 171
63 233
64 93
65 111
69 74
70 88
71 119
72 24
73 58
74 139
75 160
76 150
77 217
78 76
79 51
80 10
81 79
82 100
83 75
84 56
85 59
86 128
87 154
88 125
89 168
90 13
91 35
93 40
94 44
95 85
96 40
98 100
99 60
100 82
101 129
102 145
103 38
104 32
107 19
108 78
109 27
110 17
113 91
114 92
115 296
116 122
117 26
125 88
126 113
127 258
128 261
129 166
130 47
139 215
140 212
141 162
150 51
151 90
152 173
153 311
154 251
155 999
156 348
157 103
163 30
164 34
166 100
173 8
174 16
175 38
176 0
177 8
189 195
190 441
191 206
192 338
193 99

$$$$

     RDKit          2D

 14 15  0  0  0  0  0  0  0  0999 V2000
   -2.6377    0.8500    0.0000 C   0  0  0  0  0  0  0  0  0  0  0  0
    0.0000    2.7800    0.0000 C   0  0  0  0  0  0  0  0  0  0  0  0
    5.4932    1.7699    0.0000 C   0  0  0  0  0  0  0  0  0  0  0  0
    5.1780    0.3026    0.0000 C   0  0  0  0  0  0  0  0  0  0  0  0
    4.3807    2.7773    0.0000 C   0  0  0  0  0  0  0  0  0  0  0  0
    3.7502   -0.1574    0.0000 C   0  0  0  0  0  0  0  0  0  0  0  0
    2.9530    2.3173    0.0000 C   0  0  0  0  0  0  0  0  0  0  0  0
   -0.7500   -1.0300    0.0000 C   0  0  0  0  0  0  0  0  0  0  0  0
   -1.2100    0.3900    0.0000 C   0  0  0  0  0  0  0  0  0  0  0  0
    2.6377    0.8500    0.0000 C   0  0  0  0  0  0  0  0  0  0  0  0
    0.7500   -1.0300    0.0000 C   0  0  0  0  0  0  0  0  0  0  0  0
    0.0000    1.2800    0.0000 N   0  0  0  0  0  0  0  0  0  0  0  0
    1.2100    0.3900    0.0000 N   0  0  0  0  0  0  0  0  0  0  0  0
    1.6322   -2.2431    0.0000 O   0  0  0  0  0  0  0  0  0  0  0  0
  4  3  2  0
  5  3  1  0
  6  4  1  0
  7  5  2  0
  9  1  1  0
  9  8  2  0
 10  6  2  0
 10  7  1  0
 11  8  1  0
 12  2  1  0
 12  9  1  0
 13 10  1  0
 13 11  1  0
 13 12  1  0
 14 11  2  0
M  END
>  <NAME>  (3825) 
ANTIPYRINE

>  <SYNONYMS>  (3825) 
2,3-DIMETHYL-1-PHENYL-3-PYRAZOLINE-5-ONE

>  <SPECTRUM TYPE>  (3825) 
MS1

>  <INSTRUMENT TYPE>  (3825) 
EI-B

>  <INSTRUMENT>  (3825) 
HITACHI M-80

>  <ION MODE>  (3825) 
P

>  <INCHIKEY>  (3825) 
VEQOALNAAJBPNY-UHFFFAOYSA-N

>  <FORMULA>  (3825) 
C11H12N2O

>  <EXACT MASS>  (3825) 
188.094963004

>  <MW>  (3825) 
188

>  <ID>  (3825) 
JP005689

>  <CONTRIBUTOR>  (3825) 
University of Tokyo Team, {Faculty of Engineering, University of Tokyo

>  <COMMENT>  (3825) 
SMILES=CC(=C2)N(C)N(C(=O)2)c(c1)cccc1
cas=60-80-0
InChI=InChI=1S/C11H12N2O/c1-9-8-11(14)13(12(9)2)10-6-4-3-5-7-10/h3-8H,1-2H3
computed SMILES=O=C1C=C(N(N1C=2C=CC=CC2)C)C
accession=JP005689
date=2016.01.19 (Created 2008.10.21, modified 2011.05.06)
author=MASS SPECTROSCOPY SOC. OF JAPAN (MSSJ)
license=CC BY-NC-SA
exact mass=188.09496
ionization energy=70 eV
ion type=[M]+*
computed spectral entropy=3.371053447639874
computed normalized entropy=0.7882433077135939
SPLASH=splash10-000i-9600000000-297680e0a5f2e22c7de5
submitter=submitter = University of Tokyo Team (Faculty of Engineering, University of Tokyo)
MoNA Rating=3.75

>  <NUM PEAKS>  (3825) 
72

>  <MASS SPECTRAL PEAKS>  (3825) 
15 2.59
26 3.38
27 4.56
28 1.08
36 0.9
37 2.87
39 13.72
40 4.36
42 4.62
43 3.11
50 2.74
51 11.79
52 2.47
53 1.16
54 3.19
55 9.72
56 25.96
57 1.56
62 0.82
63 4.33
64 6.75
65 4.59
66 1.21
67 4.18
68 4.25
69 1.94
75 0.7
76 1.25
77 42.47
78 3.48
79 0.65
82 9.02
83 1.38
84 6.89
89 0.55
90 0.88
91 6.85
92 4.61
93 9.44
94 2.62
95 1.28
96 53.69
97 3.45
103 1.43
104 3.93
105 17.73
106 9.02
107 1.45
115 5
116 3.45
117 2.79
118 3.04
119 1.16
121 2.01
128 0.95
129 3.07
130 3.21
131 1.89
132 1.39
133 0.59
144 1.88
145 2.55
146 1.71
158 1.3
159 4.02
160 1.85
173 5.32
174 0.84
187 9.92
188 99.99
189 14.7
190 1.27

>  <PREDICTED SPECTRUM>  (3825) 
14 6
15 42
17 15
18 23
25 7
26 86
27 153
28 131
29 77
30 45
33 17
34 5
37 119
38 216
39 495
40 278
41 387
42 405
43 152
44 105
45 8
49 20
50 308
51 612
52 285
53 110
54 211
55 255
56 291
57 120
58 38
61 45
62 141
63 296
64 297
65 318
66 184
67 176
68 318
69 386
70 177
71 28
74 132
75 96
76 119
77 837
78 320
79 20
80 12
81 59
82 86
83 181
84 118
85 71
87 15
88 14
89 136
90 181
91 415
92 241
93 312
94 127
96 460
97 284
98 67
102 81
103 147
104 327
105 275
106 156
111 169
115 72
116 125
117 262
118 309
119 251
128 3
129 115
130 155
131 174
132 193
133 54
143 14
144 57
145 126
146 28
147 40
158 11
159 313
160 232
161 122
162 6
173 16
174 2
187 351
188 999
189 360
190 87

$$$$

     RDKit          2D

 14 16  0  0  0  0  0  0  0  0999 V2000
   -1.2990    3.7500    0.0000 C   0  0  0  0  0  0  0  0  0  0  0  0
    0.7500    2.7990    0.0000 C   0  0  0  0  0  0  0  0  0  0  0  0
    0.7500   -1.2990    0.0000 C   0  0  0  0  0  0  0  0  0  0  0  0
   -5.1962    1.5000    0.0000 C   0  0  0  0  0  0  0  0  0  0  0  0
   -5.1962   -0.0000    0.0000 C   0  0  0  0  0  0  0  0  0  0  0  0
   -3.8971    2.2500    0.0000 C   0  0  0  0  0  0  0  0  0  0  0  0
   -3.8971   -0.7500    0.0000 C   0  0  0  0  0  0  0  0  0  0  0  0
    1.2990    0.7500    0.0000 C   0  0  0  0  0  0  0  0  0  0  0  0
   -1.2990    2.2500    0.0000 C   0  0  0  0  0  0  0  0  0  0  0  0
   -2.5981    1.5000    0.0000 C   0  0  0  0  0  0  0  0  0  0  0  0
   -2.5981   -0.0000    0.0000 C   0  0  0  0  0  0  0  0  0  0  0  0
    0.0000    1.5000    0.0000 C   0  0  0  0  0  0  0  0  0  0  0  0
    0.0000    0.0000    0.0000 C   0  0  0  0  0  0  0  0  0  0  0  0
   -1.2990   -0.7500    0.0000 O   0  0  0  0  0  0  0  0  0  0  0  0
  5  4  2  0
  6  4  1  0
  7  5  1  0
  9  1  2  0
 10  6  2  0
 10  9  1  0
 11  7  2  0
 11 10  1  0
 12  2  1  0
 12  8  1  0
 12  9  1  0
 13  3  1  0
 13  8  1  0
 13 12  1  0
 14 11  1  0
 14 13  1  0
M  END
>  <NAME>  (3826) 
1,6-DIMETHYL-5-METHYLENE-3,4-BENZO-2-OXABICYCLO(4.1.0)HEPT-3-ENE

>  <SYNONYMS>  (3826) 


>  <SPECTRUM TYPE>  (3826) 
MS1

>  <INSTRUMENT TYPE>  (3826) 
EI-B

>  <INSTRUMENT>  (3826) 
HITACHI RMS-4

>  <ION MODE>  (3826) 
P

>  <INCHIKEY>  (3826) 
SBDZNYORKBFULW-UHFFFAOYSA-N

>  <FORMULA>  (3826) 
C13H14O

>  <EXACT MASS>  (3826) 
186.104465068

>  <MW>  (3826) 
186

>  <ID>  (3826) 
JP005557

>  <CONTRIBUTOR>  (3826) 
University of Tokyo Team, {Faculty of Engineering, University of Tokyo

>  <COMMENT>  (3826) 
SMILES=c(c3)cc(O1)c(c3)C(=C)C(C)(C2)C(C)12
InChI=InChI=1S/C13H14O/c1-9-10-6-4-5-7-11(10)14-13(3)8-12(9,13)2/h4-7H,1,8H2,2-3H3
computed SMILES=O1C=2C=CC=CC2C(=C)C3(C)CC13C
accession=JP005557
date=2016.01.19 (Created 2008.10.21, modified 2011.05.06)
author=MASS SPECTROSCOPY SOC. OF JAPAN (MSSJ)
license=CC BY-NC-SA
exact mass=186.10447
ionization energy=70 eV
ion type=[M]+*
computed spectral entropy=3.7715160116971793
computed normalized entropy=0.9103049407669118
SPLASH=splash10-002v-4900000000-662d9f011fb835a1160c
submitter=submitter = University of Tokyo Team (Faculty of Engineering, University of Tokyo)
MoNA Rating=3.75

>  <NUM PEAKS>  (3826) 
63

>  <MASS SPECTRAL PEAKS>  (3826) 
39 33
41 14
43 45
50 9
51 24
52 8
53 10
55 7
62 7
63 22
64 9
65 17
74 7
75 10
76 9
77 27
78 9
79 7
89 13
90 6
91 25
92 8
101 6
102 10
103 11
105 5
107 12
115 39
116 9
117 6
118 5
126 4
127 20
128 66
129 18
130 4
131 27
132 8
133 4
139 5
141 18
142 12
143 33
144 12
145 35
146 35
147 7
152 10
153 11
154 4
155 4
156 5
157 9
158 10
159 8
169 9
170 6
171 66
172 16
185 24
186 99.99
187 16
188 3

>  <PREDICTED SPECTRUM>  (3826) 
15 5
26 31
27 113
28 28
29 27
37 36
38 122
39 361
40 132
41 399
42 177
43 288
44 145
49 37
50 284
51 441
52 252
53 286
54 47
55 223
56 55
57 174
58 126
61 71
62 233
63 429
64 276
65 391
66 152
67 177
68 28
69 176
70 103
71 119
72 63
74 200
75 232
76 269
77 456
78 301
79 254
80 61
81 56
82 61
83 34
84 86
85 59
86 114
87 116
88 96
89 326
90 194
91 471
92 217
93 104
94 17
95 9
97 20
98 48
99 34
101 87
102 271
103 264
104 139
105 211
106 122
107 189
108 35
109 36
110 14
111 2
113 56
114 126
115 718
116 387
117 379
118 255
119 125
122 19
126 179
127 423
128 578
129 450
130 240
131 416
132 215
133 179
134 42
139 149
140 75
141 437
142 339
143 601
144 504
145 489
146 364
147 132
148 9
151 6
152 227
153 283
154 192
155 232
156 303
157 420
158 228
159 203
160 73
167 20
168 12
169 345
170 299
171 873
172 325
173 91
183 35
184 49
185 526
186 999
187 375
188 114
189 14

$$$$

     RDKit          2D

 13 15  0  0  0  0  0  0  0  0999 V2000
    1.2990    2.2500    0.0000 C   0  0  0  0  0  0  0  0  0  0  0  0
    1.5000   -0.0000    0.0000 C   0  0  0  0  0  0  0  0  0  0  0  0
   -2.5981    4.5000    0.0000 C   0  0  0  0  0  0  0  0  0  0  0  0
   -3.8971    3.7500    0.0000 C   0  0  0  0  0  0  0  0  0  0  0  0
   -1.2990    3.7500    0.0000 C   0  0  0  0  0  0  0  0  0  0  0  0
   -3.8971    2.2500    0.0000 C   0  0  0  0  0  0  0  0  0  0  0  0
   -0.0000   -1.5000    0.0000 C   0  0  0  0  0  0  0  0  0  0  0  0
    0.0000    1.5000    0.0000 C   0  0  0  0  0  0  0  0  0  0  0  0
   -1.2990    2.2500    0.0000 C   0  0  0  0  0  0  0  0  0  0  0  0
   -2.5981    1.5000    0.0000 C   0  0  0  0  0  0  0  0  0  0  0  0
   -1.2990   -0.7500    0.0000 C   0  0  0  0  0  0  0  0  0  0  0  0
    0.0000    0.0000    0.0000 C   0  0  0  0  0  0  0  0  0  0  0  0
   -2.5981   -0.0000    0.0000 O   0  0  0  0  0  0  0  0  0  0  0  0
  4  3  2  0
  5  3  1  0
  6  4  1  0
  8  1  2  0
  9  5  2  0
  9  8  1  0
 10  6  2  0
 10  9  1  0
 11  7  1  0
 12  2  1  0
 12  7  1  0
 12  8  1  0
 12 11  1  0
 13 10  1  0
 13 11  1  0
M  END
>  <NAME>  (3827) 
6-METHYL-5-METHYLENE-3,4-BENZO-2-OXABICYCLO(4.1.0)HEPT-3-ENE

>  <SYNONYMS>  (3827) 


>  <SPECTRUM TYPE>  (3827) 
MS1

>  <INSTRUMENT TYPE>  (3827) 
EI-B

>  <INSTRUMENT>  (3827) 
HITACHI RMS-4

>  <ION MODE>  (3827) 
P

>  <INCHIKEY>  (3827) 
UFRUXWQYRJYVNJ-UHFFFAOYSA-N

>  <FORMULA>  (3827) 
C12H12O

>  <EXACT MASS>  (3827) 
172.088815004

>  <MW>  (3827) 
172

>  <ID>  (3827) 
JP005556

>  <CONTRIBUTOR>  (3827) 
University of Tokyo Team, {Faculty of Engineering, University of Tokyo

>  <COMMENT>  (3827) 
SMILES=c(c3)cc(O1)c(c3)C(=C)C(C)(C2)C12
InChI=InChI=1S/C12H12O/c1-8-9-5-3-4-6-10(9)13-11-7-12(8,11)2/h3-6,11H,1,7H2,2H3
computed SMILES=O1C=2C=CC=CC2C(=C)C3(C)CC13
accession=JP005556
date=2016.01.19 (Created 2008.10.21, modified 2011.05.06)
author=MASS SPECTROSCOPY SOC. OF JAPAN (MSSJ)
license=CC BY-NC-SA
exact mass=172.08882
ionization energy=70 eV
ion type=[M]+*
computed spectral entropy=3.4469837750761383
computed normalized entropy=0.9222280530667298
SPLASH=splash10-05i0-4900000000-c62cfdfbf178bf859e70
submitter=submitter = University of Tokyo Team (Faculty of Engineering, University of Tokyo)
MoNA Rating=3.75

>  <NUM PEAKS>  (3827) 
42

>  <MASS SPECTRAL PEAKS>  (3827) 
39 36
41 14
43 21
50 17
51 35
63 25
64 13
65 16
74 7
75 11
76 14
77 25
78 10
79 3
89 12
91 16
102 12
103 12
104 7
105 5
107 11
115 30
117 27
119 15
121 10
127 23
128 54
129 38
130 7
131 35
134 8
141 5
144 8
145 28
146 10
157 66
158 11
171 32
172 99.99
173 17
174 17
175 5

>  <PREDICTED SPECTRUM>  (3827) 
14 17
15 60
17 7
18 30
26 81
27 197
28 56
29 102
37 80
38 190
39 432
40 161
41 335
42 189
43 175
44 107
45 49
49 90
50 370
51 547
52 322
53 334
54 106
55 312
56 106
57 118
58 73
61 141
62 278
63 504
64 360
65 465
66 191
67 195
68 72
69 186
70 89
71 106
72 94
73 129
74 269
75 309
76 366
77 594
78 369
79 305
80 118
81 104
82 144
83 96
84 81
85 82
86 154
87 169
88 154
89 333
90 225
91 653
92 366
93 143
94 123
95 104
96 41
97 84
98 115
99 64
100 80
101 150
102 304
103 397
104 278
105 214
106 107
107 159
108 10
109 61
110 45
111 34
113 63
114 99
115 643
116 297
117 269
118 200
119 176
120 157
121 177
122 39
123 20
126 125
127 348
128 489
129 573
130 377
131 417
132 352
133 155
134 107
135 223
137 2
139 213
140 36
141 239
142 217
143 297
144 277
145 208
146 92
147 4
151 15
152 238
153 267
155 161
156 133
157 743
158 269
159 71
169 1
170 53
171 424
172 999
173 349
174 91

$$$$

     RDKit          2D

 16 17  0  0  0  0  0  0  0  0999 V2000
    3.8989   -1.5002    0.0000 C   0  0  0  0  0  0  0  0  0  0  0  0
    3.8989    1.5002    0.0000 C   0  0  0  0  0  0  0  0  0  0  0  0
    4.6491    0.2013    0.0000 H   0  0  0  0  0  0  0  0  0  0  0  0
    5.1978    2.2504    0.0000 H   0  0  0  0  0  0  0  0  0  0  0  0
    3.1487    2.7991    0.0000 H   0  0  0  0  0  0  0  0  0  0  0  0
   -2.6000   -0.7500    0.0000 C   0  0  0  0  0  0  0  0  0  0  0  0
   -2.6000    0.7500    0.0000 C   0  0  0  0  0  0  0  0  0  0  0  0
   -1.3000   -1.5000    0.0000 C   0  0  0  0  0  0  0  0  0  0  0  0
   -1.3000    1.5000    0.0000 C   0  0  0  0  0  0  0  0  0  0  0  0
    2.6000   -0.7500    0.0000 C   0  0  0  0  0  0  0  0  0  0  0  0
    2.6000    0.7500    0.0000 C   0  0  0  0  0  0  0  0  0  0  0  0
    0.0000   -0.7500    0.0000 C   0  0  0  0  0  0  0  0  0  0  0  0
    0.0000    0.7500    0.0000 C   0  0  0  0  0  0  0  0  0  0  0  0
    1.3000   -1.5000    0.0000 C   0  0  0  0  0  0  0  0  0  0  0  0
    1.3000   -3.0000    0.0000 O   0  0  0  0  0  0  0  0  0  0  0  0
    1.3000    1.5000    0.0000 O   0  0  0  0  0  0  0  0  0  0  0  0
  2  3  1  0
  2  4  1  0
  2  5  1  0
  7  6  2  0
  8  6  1  0
  9  7  1  0
 10  1  1  0
 11  2  1  0
 11 10  2  0
 12  8  2  0
 13  9  2  0
 13 12  1  0
 14 10  1  0
 14 12  1  0
 15 14  2  0
 16 11  1  0
 16 13  1  0
M  ISO  3   3   2   4   2   5   2
M  END
>  <NAME>  (3828) 
2-METHYL-3-METHYLBENZOPYRAN-4-ONE (2,2,2-D3)

>  <SYNONYMS>  (3828) 
2-METHYL-3-METHYLCHROMONE (2,2,2-D3)

>  <SPECTRUM TYPE>  (3828) 
MS1

>  <INSTRUMENT TYPE>  (3828) 
EI-B

>  <INSTRUMENT>  (3828) 
HITACHI RMU-7L

>  <ION MODE>  (3828) 
P

>  <INCHIKEY>  (3828) 
KQLDYIIDXBUUCK-BMSJAHLVSA-N

>  <FORMULA>  (3828) 
C11H10O2

>  <EXACT MASS>  (3828) 
177.086909798

>  <MW>  (3828) 
177

>  <ID>  (3828) 
JP005555

>  <CONTRIBUTOR>  (3828) 
University of Tokyo Team, {Faculty of Engineering, University of Tokyo

>  <COMMENT>  (3828) 
SMILES=[2H]C([2H])([2H])C(O1)=C(C)C(=O)c(c2)c(ccc2)1
InChI=InChI=1S/C11H10O2/c1-7-8(2)13-10-6-4-3-5-9(10)11(7)12/h3-6H,1-2H3/i2D3
computed SMILES=[H]C([H])([H])C=1OC=2C=CC=CC2C(=O)C1C
accession=JP005555
date=2016.01.19 (Created 2008.10.21, modified 2011.05.06)
author=MASS SPECTROSCOPY SOC. OF JAPAN (MSSJ)
license=CC BY-NC-SA
exact mass=174.06808
ionization energy=70 eV
ion type=[M]+*
computed spectral entropy=3.3288407778547393
computed normalized entropy=0.8097647575290328
SPLASH=splash10-00b9-4900000000-9752aafadb5550594a58
submitter=submitter = University of Tokyo Team (Faculty of Engineering, University of Tokyo)
MoNA Rating=3.75

>  <NUM PEAKS>  (3828) 
61

>  <MASS SPECTRAL PEAKS>  (3828) 
50 13
51 8
52 2
53 5
54 2
55 6
56 6
57 1
61 2
62 4
63 7
64 15
65 15
74 3
75 5
76 10
77 11
78 4
79 1
83 2
84 2
89 1
90 2
91 2
92 37
93 11
94 3
95 2
101 1
102 2
103 5
104 6
105 5
106 2
107 1
117 2
118 1
119 1
120 20
121 65
122 32
123 1
130 6
131 13
132 8
133 3
146 1
147 2
148 13
149 13
158 1
159 12
160 6
161 1
174 1
175 8
176 35
177 99.99
178 25
179 3
180 1

>  <PREDICTED SPECTRUM>  (3828) 
26 10
27 39
38 20
39 139
40 8
41 1
43 61
44 105
49 29
50 162
51 279
52 109
53 58
54 8
57 42
58 18
61 7
62 83
63 190
64 101
65 101
66 39
67 20
69 2
72 30
74 93
75 109
76 219
77 372
78 147
79 16
81 29
82 51
85 6
86 29
87 18
89 134
90 59
91 88
92 106
93 28
94 70
95 24
96 43
98 38
99 42
100 26
101 39
102 128
103 86
104 91
105 195
106 45
113 19
115 195
116 67
118 47
119 104
120 157
121 222
122 141
123 55
126 48
130 13
133 4
134 52
147 68
148 292
149 292
150 127
151 39
162 58
163 46
176 442
177 999
178 374
179 135

$$$$

     RDKit          2D

 13 14  0  0  0  0  0  0  0  0999 V2000
    3.8989   -1.5002    0.0000 C   0  0  0  0  0  0  0  0  0  0  0  0
    3.8989    1.5002    0.0000 C   0  0  0  0  0  0  0  0  0  0  0  0
   -2.6000   -0.7500    0.0000 C   0  0  0  0  0  0  0  0  0  0  0  0
   -2.6000    0.7500    0.0000 C   0  0  0  0  0  0  0  0  0  0  0  0
   -1.3000   -1.5000    0.0000 C   0  0  0  0  0  0  0  0  0  0  0  0
   -1.3000    1.5000    0.0000 C   0  0  0  0  0  0  0  0  0  0  0  0
    2.6000   -0.7500    0.0000 C   0  0  0  0  0  0  0  0  0  0  0  0
    2.6000    0.7500    0.0000 C   0  0  0  0  0  0  0  0  0  0  0  0
    0.0000   -0.7500    0.0000 C   0  0  0  0  0  0  0  0  0  0  0  0
    0.0000    0.7500    0.0000 C   0  0  0  0  0  0  0  0  0  0  0  0
    1.3000   -1.5000    0.0000 C   0  0  0  0  0  0  0  0  0  0  0  0
    1.3000   -3.0000    0.0000 O   0  0  0  0  0  0  0  0  0  0  0  0
    1.3000    1.5000    0.0000 O   0  0  0  0  0  0  0  0  0  0  0  0
  4  3  2  0
  5  3  1  0
  6  4  1  0
  7  1  1  0
  8  2  1  0
  8  7  2  0
  9  5  2  0
 10  6  2  0
 10  9  1  0
 11  7  1  0
 11  9  1  0
 12 11  2  0
 13  8  1  0
 13 10  1  0
M  END
>  <NAME>  (3829) 
2,3-DIMETHYLBENZOPYRAN-4-ONE

>  <SYNONYMS>  (3829) 
2,3-DIMETHYLCHROMONE

>  <SPECTRUM TYPE>  (3829) 
MS1

>  <INSTRUMENT TYPE>  (3829) 
EI-B

>  <INSTRUMENT>  (3829) 
HITACHI RMU-7L

>  <ION MODE>  (3829) 
P

>  <INCHIKEY>  (3829) 
KQLDYIIDXBUUCK-UHFFFAOYSA-N

>  <FORMULA>  (3829) 
C11H10O2

>  <EXACT MASS>  (3829) 
174.06807956

>  <MW>  (3829) 
174

>  <ID>  (3829) 
JP005554

>  <CONTRIBUTOR>  (3829) 
University of Tokyo Team, {Faculty of Engineering, University of Tokyo

>  <COMMENT>  (3829) 
SMILES=CC(O1)=C(C)C(=O)c(c2)c(ccc2)1
InChI=InChI=1S/C11H10O2/c1-7-8(2)13-10-6-4-3-5-9(10)11(7)12/h3-6H,1-2H3
computed SMILES=O=C1C=2C=CC=CC2OC(=C1C)C
accession=JP005554
date=2016.01.19 (Created 2008.10.21, modified 2011.05.06)
author=MASS SPECTROSCOPY SOC. OF JAPAN (MSSJ)
license=CC BY-NC-SA
exact mass=174.06808
ionization energy=70 eV
ion type=[M]+*
computed spectral entropy=3.4226039906175134
computed normalized entropy=0.8292930811798898
SPLASH=splash10-00di-9800000000-ce02fa82faf5ba848c30
submitter=submitter = University of Tokyo Team (Faculty of Engineering, University of Tokyo)
MoNA Rating=3.75

>  <NUM PEAKS>  (3829) 
62

>  <MASS SPECTRAL PEAKS>  (3829) 
49 2
50 25
51 23
52 4
53 26
54 2
55 8
61 5
62 11
63 37
64 35
65 27
66 3
67 3
68 1
72 1
73 4
74 10
75 15
76 17
77 2
78 1
81 3
82 1
83 2
87 5
88 1
89 4
90 1
91 8
92 40
93 13
94 8
101 1
102 3
103 8
104 7
105 7
115 6
116 1
117 2
118 1
119 1
120 19
121 73
122 9
123 2
130 1
131 19
132 6
133 1
145 22
146 7
147 5
148 2
159 18
160 3
163 5
173 5
174 99.99
175 10
176 2

>  <PREDICTED SPECTRUM>  (3829) 
14 0
15 6
26 33
27 119
28 23
29 94
37 30
38 131
39 320
40 93
41 133
42 56
43 172
44 1
49 1
50 246
51 357
52 186
53 203
54 89
55 122
57 63
61 65
62 199
63 438
64 312
65 434
66 142
67 54
68 32
69 42
73 8
74 207
75 209
76 274
77 381
78 115
79 44
82 40
83 24
85 20
86 48
87 69
88 51
89 311
90 134
91 262
92 476
93 166
98 42
101 37
102 163
103 226
104 100
105 87
114 14
115 318
116 109
117 131
118 60
119 15
120 116
121 249
127 20
128 148
129 78
130 40
131 325
132 76
143 132
144 212
145 650
146 292
147 83
157 33
159 459
160 173
172 82
173 889
174 999
175 346
176 80

$$$$

     RDKit          2D

 14 16  0  0  0  0  0  0  0  0999 V2000
   -1.2990    3.7500    0.0000 C   0  0  0  0  0  0  0  0  0  0  0  0
    0.7500    2.7990    0.0000 C   0  0  0  0  0  0  0  0  0  0  0  0
    0.7500   -1.2990    0.0000 C   0  0  0  0  0  0  0  0  0  0  0  0
   -5.1962    1.5000    0.0000 C   0  0  0  0  0  0  0  0  0  0  0  0
   -5.1962   -0.0000    0.0000 C   0  0  0  0  0  0  0  0  0  0  0  0
   -3.8971    2.2500    0.0000 C   0  0  0  0  0  0  0  0  0  0  0  0
   -3.8971   -0.7500    0.0000 C   0  0  0  0  0  0  0  0  0  0  0  0
    1.2990    0.7500    0.0000 C   0  0  0  0  0  0  0  0  0  0  0  0
   -1.2990    2.2500    0.0000 C   0  0  0  0  0  0  0  0  0  0  0  0
   -2.5981    1.5000    0.0000 C   0  0  0  0  0  0  0  0  0  0  0  0
   -2.5981   -0.0000    0.0000 C   0  0  0  0  0  0  0  0  0  0  0  0
    0.0000    1.5000    0.0000 C   0  0  0  0  0  0  0  0  0  0  0  0
    0.0000    0.0000    0.0000 C   0  0  0  0  0  0  0  0  0  0  0  0
   -1.2990   -0.7500    0.0000 S   0  0  0  0  0  0  0  0  0  0  0  0
  5  4  2  0
  6  4  1  0
  7  5  1  0
  9  1  2  0
 10  6  2  0
 10  9  1  0
 11  7  2  0
 11 10  1  0
 12  2  1  0
 12  8  1  0
 12  9  1  0
 13  3  1  0
 13  8  1  0
 13 12  1  0
 14 11  1  0
 14 13  1  0
M  END
>  <NAME>  (3830) 
1,6-DIMETHYL-5-METHYLENE-3,4-BENZO-2-THIABICYCLO(4.1.0)HEPT-3-ENE

>  <SYNONYMS>  (3830) 


>  <SPECTRUM TYPE>  (3830) 
MS1

>  <INSTRUMENT TYPE>  (3830) 
EI-B

>  <INSTRUMENT>  (3830) 
HITACHI RMU-6L

>  <ION MODE>  (3830) 
P

>  <INCHIKEY>  (3830) 
XSUQCGXKUHOAEX-UHFFFAOYSA-N

>  <FORMULA>  (3830) 
C13H14S

>  <EXACT MASS>  (3830) 
202.081621448

>  <MW>  (3830) 
202

>  <ID>  (3830) 
JP005551

>  <CONTRIBUTOR>  (3830) 
University of Tokyo Team, {Faculty of Engineering, University of Tokyo

>  <COMMENT>  (3830) 
SMILES=c(c3)cc(c(c3)2)C(=C)C(C)(C1)C(C)(S2)1
InChI=InChI=1S/C13H14S/c1-9-10-6-4-5-7-11(10)14-13(3)8-12(9,13)2/h4-7H,1,8H2,2-3H3
computed SMILES=S1C=2C=CC=CC2C(=C)C3(C)CC13C
accession=JP005551
date=2016.01.19 (Created 2008.10.21, modified 2011.05.06)
author=MASS SPECTROSCOPY SOC. OF JAPAN (MSSJ)
license=CC BY-NC-SA
exact mass=202.08162
ionization energy=70 eV
ion type=[M]+*
computed spectral entropy=4.121799335547957
computed normalized entropy=0.92294763484514
SPLASH=splash10-0f79-5910000000-02c19950a0d4692824f4
submitter=submitter = University of Tokyo Team (Faculty of Engineering, University of Tokyo)
MoNA Rating=3.75

>  <NUM PEAKS>  (3830) 
87

>  <MASS SPECTRAL PEAKS>  (3830) 
27 13
29 5
39 28
41 18
43 6
45 17
47 9
50 7
51 18
52 5
53 8
55 5
56 6
57 7
58 5
59 18
61 4
62 6
63 14
64 4
65 9
69 10
74 6
75 8
76 6
77 14
78 5
79 4
82 15
84 6
85 5
86 6
87 6
89 8
90 5
91 22
92 6
101 4
102 7
103 6
105 5
106 6
115 20
116 5
117 21
119 18
121 8
127 8
128 25
129 10
134 13
135 5
139 5
141 15
142 6
143 10
147 25
148 7
152 8
153 10
154 11
155 10
156 17
157 5
158 5
159 5
160 6
161 33
162 8
169 21
170 6
171 17
172 25
173 8
174 5
175 8
184 6
185 8
186 7
187 99.99
188 20
189 7
201 15
202 72
203 15
204 7
205 2

>  <PREDICTED SPECTRUM>  (3830) 
14 9
15 17
25 7
26 80
27 226
28 51
29 123
31 41
32 10
33 31
34 34
36 27
37 112
38 196
39 547
40 192
41 436
42 77
43 152
44 87
45 510
46 50
47 131
49 58
50 334
51 506
52 239
53 275
54 75
55 130
56 3
57 168
58 283
59 337
60 125
61 123
62 205
63 357
64 204
65 326
66 133
67 154
68 38
69 388
70 144
71 202
72 58
73 129
74 182
75 182
76 237
77 481
78 312
79 267
80 53
81 122
82 157
83 123
84 133
85 168
86 91
87 145
88 67
89 256
90 148
91 451
92 189
93 158
94 31
95 56
97 151
98 62
99 83
100 19
101 94
102 252
103 254
104 118
105 132
106 94
108 93
109 130
110 67
111 38
113 80
114 106
115 682
116 293
117 224
118 74
119 141
120 12
121 122
122 79
123 24
124 33
125 78
126 74
127 297
128 503
129 347
130 140
131 118
132 65
133 169
134 260
135 216
136 72
137 4
139 134
140 96
141 200
142 194
143 264
144 67
145 96
146 148
147 351
148 248
149 102
151 3
152 155
153 345
154 378
155 357
156 204
157 186
158 151
159 271
160 302
161 484
162 312
163 88
165 6
167 113
168 171
169 567
170 250
171 322
172 329
173 308
174 152
175 204
176 74
177 11
183 38
184 71
185 335
186 276
187 999
188 382
189 229
190 42
199 79
200 146
201 489
202 878
203 348
204 159
205 43

$$$$

     RDKit          2D

 15 18  0  0  0  0  0  0  0  0999 V2000
    0.9743   -0.5625    0.0000 C   0  0  0  0  0  0  0  0  0  0  0  0
    0.9743    0.9375    0.0000 C   0  0  0  0  0  0  0  0  0  0  0  0
   -1.9136    0.1875    0.0000 C   0  0  0  0  0  0  0  0  0  0  0  0
   -0.3248   -1.3125    0.0000 C   0  0  0  0  0  0  0  0  0  0  0  0
   -0.3248    1.6875    0.0000 C   0  0  0  0  0  0  0  0  0  0  0  0
   -2.7953   -1.0260    0.0000 C   0  0  0  0  0  0  0  0  0  0  0  0
   -2.7953    1.4010    0.0000 C   0  0  0  0  0  0  0  0  0  0  0  0
   -5.5209    0.1875    0.0000 C   0  0  0  0  0  0  0  0  0  0  0  0
   -1.6238   -0.5625    0.0000 C   0  0  0  0  0  0  0  0  0  0  0  0
   -1.6238    0.9375    0.0000 C   0  0  0  0  0  0  0  0  0  0  0  0
   -2.9228   -1.3125    0.0000 C   0  0  0  0  0  0  0  0  0  0  0  0
   -4.2219   -0.5625    0.0000 C   0  0  0  0  0  0  0  0  0  0  0  0
   -4.2219    0.9375    0.0000 C   0  0  0  0  0  0  0  0  0  0  0  0
   -2.9228   -2.8125    0.0000 O   0  0  0  0  0  0  0  0  0  0  0  0
   -2.9228    1.6875    0.0000 S   0  0  0  0  0  0  0  0  0  0  0  0
  2  1  2  0
  4  1  1  0
  5  2  1  0
  6  3  1  0
  7  3  1  0
  9  4  2  0
 10  5  2  0
 10  9  1  0
 11  9  1  0
 12  6  1  0
 12  8  1  0
 12 11  1  0
 13  7  1  0
 13  8  1  0
 13 12  1  0
 14 11  2  0
 15 10  1  0
 15 13  1  0
M  END
>  <NAME>  (3831) 
3,4-BENZO-2-THIATRICYCLO(4.3.1.0)DEC-3-EN-5-ONE

>  <SYNONYMS>  (3831) 


>  <SPECTRUM TYPE>  (3831) 
MS1

>  <INSTRUMENT TYPE>  (3831) 
EI-B

>  <INSTRUMENT>  (3831) 
HITACHI RMU-6L

>  <ION MODE>  (3831) 
P

>  <INCHIKEY>  (3831) 
RMHQTQMPLJWNQF-UHFFFAOYSA-N

>  <FORMULA>  (3831) 
C13H12OS

>  <EXACT MASS>  (3831) 
216.060886004

>  <MW>  (3831) 
216

>  <ID>  (3831) 
JP005549

>  <CONTRIBUTOR>  (3831) 
University of Tokyo Team, {Faculty of Engineering, University of Tokyo

>  <COMMENT>  (3831) 
SMILES=c(c4)cc(S1)c(c4)C(=O)C(C3)(C2)C(CC3)12
InChI=InChI=1S/C13H12OS/c14-11-9-4-1-2-5-10(9)15-13-7-3-6-12(11,13)8-13/h1-2,4-5H,3,6-8H2
computed SMILES=O=C1C=2C=CC=CC2SC34CCCC14C3
accession=JP005549
date=2016.01.19 (Created 2008.10.21, modified 2011.05.06)
author=MASS SPECTROSCOPY SOC. OF JAPAN (MSSJ)
license=CC BY-NC-SA
exact mass=216.06089
ionization energy=70 eV
ion type=[M]+*
computed spectral entropy=3.25716619745993
computed normalized entropy=0.8607301727866541
SPLASH=splash10-0uxr-3890000000-f1d4a70033455d18b16c
submitter=submitter = University of Tokyo Team (Faculty of Engineering, University of Tokyo)
MoNA Rating=3.75

>  <NUM PEAKS>  (3831) 
44

>  <MASS SPECTRAL PEAKS>  (3831) 
39 9.7
41 5
43 7
45 5.3
50 4.9
51 8.2
53 4.7
63 4.5
65 5.2
69 7.7
71 5
76 6.7
79 9
91 4.4
108 8.5
109 5.5
115 10
128 5.3
136 8.6
137 5.5
147 7.5
153 5.8
154 5.1
155 10.2
160 9.3
163 26
172 4
173 9.3
174 17
175 3.8
183 10.3
184 5.3
185 3.6
187 22
188 7
199 15
200 3.5
201 99.99
202 13.3
203 5.3
215 9
216 71
217 11.4
218 4.1

>  <PREDICTED SPECTRUM>  (3831) 
27 21
38 18
39 245
40 51
41 115
45 179
50 110
51 214
52 51
53 88
54 4
55 74
57 4
58 27
62 20
63 143
64 53
65 161
66 13
67 55
69 172
70 1
71 38
74 15
75 55
76 91
77 265
78 128
79 114
80 24
81 29
82 39
85 16
86 8
87 14
89 83
91 181
93 27
95 14
97 23
98 0
101 23
102 127
103 24
104 32
105 31
108 156
109 159
111 52
115 266
116 39
117 31
128 158
135 38
136 441
137 151
139 32
141 0
145 15
146 97
147 152
148 32
153 15
154 107
155 137
159 55
160 166
161 59
162 51
163 38
165 8
167 123
168 5
169 28
171 74
172 24
173 351
174 218
175 253
176 130
182 53
183 223
184 118
185 94
186 100
187 450
188 252
189 102
197 57
198 66
199 286
200 154
201 999
202 329
203 178
204 5
215 242
216 869
217 272
218 114

$$$$

     RDKit          2D

 14 16  0  0  0  0  0  0  0  0999 V2000
   -2.0490    3.5490    0.0000 C   0  0  0  0  0  0  0  0  0  0  0  0
    1.5000    1.5000    0.0000 C   0  0  0  0  0  0  0  0  0  0  0  0
   -3.8971   -2.2500    0.0000 C   0  0  0  0  0  0  0  0  0  0  0  0
   -2.5981   -3.0000    0.0000 C   0  0  0  0  0  0  0  0  0  0  0  0
   -3.8971   -0.7500    0.0000 C   0  0  0  0  0  0  0  0  0  0  0  0
   -1.2990   -2.2500    0.0000 C   0  0  0  0  0  0  0  0  0  0  0  0
    0.0000    3.0000    0.0000 C   0  0  0  0  0  0  0  0  0  0  0  0
   -2.5981    0.0000    0.0000 C   0  0  0  0  0  0  0  0  0  0  0  0
   -1.2990   -0.7500    0.0000 C   0  0  0  0  0  0  0  0  0  0  0  0
   -2.5981    1.5000    0.0000 C   0  0  0  0  0  0  0  0  0  0  0  0
   -1.2990    2.2500    0.0000 C   0  0  0  0  0  0  0  0  0  0  0  0
    0.0000    1.5000    0.0000 C   0  0  0  0  0  0  0  0  0  0  0  0
   -3.8971    2.2500    0.0000 O   0  0  0  0  0  0  0  0  0  0  0  0
    0.0000   -0.0000    0.0000 S   0  0  0  0  0  0  0  0  0  0  0  0
  4  3  2  0
  5  3  1  0
  6  4  1  0
  8  5  2  0
  9  6  2  0
  9  8  1  0
 10  8  1  0
 11  1  1  0
 11  7  1  0
 11 10  1  0
 12  2  1  0
 12  7  1  0
 12 11  1  0
 13 10  2  0
 14  9  1  0
 14 12  1  0
M  END
>  <NAME>  (3832) 
1,6-DIMETHYL-3,4-BENZO-2-THIABICYCLO(4.1.0)HEPT-3-EN-5-ONE

>  <SYNONYMS>  (3832) 


>  <SPECTRUM TYPE>  (3832) 
MS1

>  <INSTRUMENT TYPE>  (3832) 
EI-B

>  <INSTRUMENT>  (3832) 
HITACHI RMU-6L

>  <ION MODE>  (3832) 
P

>  <INCHIKEY>  (3832) 
JNRKQNZIYOQNJR-UHFFFAOYSA-N

>  <FORMULA>  (3832) 
C12H12OS

>  <EXACT MASS>  (3832) 
204.060886004

>  <MW>  (3832) 
204

>  <ID>  (3832) 
JP005546

>  <CONTRIBUTOR>  (3832) 
University of Tokyo Team, {Faculty of Engineering, University of Tokyo

>  <COMMENT>  (3832) 
SMILES=c(c3)cc(S1)c(c3)C(=O)C(C)(C2)C(C)12
InChI=InChI=1S/C12H12OS/c1-11-7-12(11,2)14-9-6-4-3-5-8(9)10(11)13/h3-6H,7H2,1-2H3
computed SMILES=O=C1C=2C=CC=CC2SC3(C)CC13C
accession=JP005546
date=2016.01.19 (Created 2008.10.21, modified 2011.05.06)
author=MASS SPECTROSCOPY SOC. OF JAPAN (MSSJ)
license=CC BY-NC-SA
exact mass=204.06089
ionization energy=70 eV
ion type=[M]+*
computed spectral entropy=3.34862262546624
computed normalized entropy=0.8903069558820208
SPLASH=splash10-0imi-4930000000-32253f8421083ae66b00
submitter=submitter = University of Tokyo Team (Faculty of Engineering, University of Tokyo)
MoNA Rating=3.75

>  <NUM PEAKS>  (3832) 
43

>  <MASS SPECTRAL PEAKS>  (3832) 
41 27
43 7.9
45 6.7
50 5.5
51 7.2
58 12
63 5.6
65 13
67 16
69 9.6
76 7.1
77 7.5
85 14
87 5
91 8.2
108 9
109 7.3
110 18
115 8.4
128 17
129 4.3
134 4.6
135 7.8
136 7.3
137 5
143 11
145 5
147 7.6
161 46
162 14
163 22
164 23
171 32
172 4.5
175 47
176 7.7
177 3.5
189 16
190 2
203 6.2
204 99.99
205 15
206 5.4

>  <PREDICTED SPECTRUM>  (3832) 
26 18
27 36
33 6
34 10
38 42
39 300
40 81
41 182
43 96
45 252
47 31
50 137
51 279
52 92
53 126
54 18
55 53
58 82
59 6
61 29
62 91
63 229
64 89
65 212
66 65
67 131
68 1
69 326
70 26
71 22
74 65
75 119
76 84
77 336
78 163
79 139
80 16
81 47
82 98
83 4
84 29
85 86
86 3
87 76
89 152
90 59
91 222
92 62
93 62
94 10
95 55
96 25
97 43
99 48
101 35
102 152
103 182
104 52
105 75
106 1
108 231
109 269
111 5
115 397
116 153
117 93
118 57
119 47
120 17
121 53
122 5
127 139
128 302
129 153
130 16
131 124
132 37
133 94
134 234
135 197
136 172
137 114
141 28
142 11
143 189
144 65
145 49
146 21
147 193
148 56
155 67
159 122
160 112
161 664
162 407
163 346
164 268
165 12
170 35
171 531
172 199
173 17
174 52
175 532
176 254
177 135
187 150
188 47
189 572
190 195
191 91
192 6
203 228
204 999
205 372
206 208
207 39

$$$$

     RDKit          2D

 15 17  0  0  0  0  0  0  0  0999 V2000
   -5.0741   -1.5501    0.0000 C   0  0  0  0  0  0  0  0  0  0  0  0
   -5.3859   -0.0829    0.0000 C   0  0  0  0  0  0  0  0  0  0  0  0
    2.0400   -0.5993    0.0000 C   0  0  0  0  0  0  0  0  0  0  0  0
   -3.6475   -2.0137    0.0000 C   0  0  0  0  0  0  0  0  0  0  0  0
    2.5036    0.8273    0.0000 C   0  0  0  0  0  0  0  0  0  0  0  0
   -4.2712    0.9208    0.0000 C   0  0  0  0  0  0  0  0  0  0  0  0
    0.5728   -0.9112    0.0000 C   0  0  0  0  0  0  0  0  0  0  0  0
   -1.0410   -1.1668    0.0000 C   0  0  0  0  0  0  0  0  0  0  0  0
    0.0326    1.6301    0.0000 C   0  0  0  0  0  0  0  0  0  0  0  0
   -2.5328   -1.0100    0.0000 C   0  0  0  0  0  0  0  0  0  0  0  0
    1.4999    1.9420    0.0000 C   0  0  0  0  0  0  0  0  0  0  0  0
   -2.8446    0.4573    0.0000 C   0  0  0  0  0  0  0  0  0  0  0  0
   -0.4309    0.2036    0.0000 C   0  0  0  0  0  0  0  0  0  0  0  0
    1.9634    3.3686    0.0000 O   0  0  0  0  0  0  0  0  0  0  0  0
   -1.5456    1.2073    0.0000 S   0  0  0  0  0  0  0  0  0  0  0  0
  2  1  2  0
  4  1  1  0
  5  3  1  0
  6  2  1  0
  7  3  1  0
 10  4  2  0
 10  8  1  0
 11  5  1  0
 11  9  1  0
 12  6  2  0
 12 10  1  0
 13  7  1  0
 13  8  1  0
 13  9  1  0
 14 11  1  0
 15 12  1  0
 15 13  1  0
M  END
>  <NAME>  (3833) 
2,3-BENZO-1-THIASPIRO(4.5)DEC-2-EN-7-OL

>  <SYNONYMS>  (3833) 


>  <SPECTRUM TYPE>  (3833) 
MS1

>  <INSTRUMENT TYPE>  (3833) 
EI-B

>  <INSTRUMENT>  (3833) 
HITACHI RMU-7L

>  <ION MODE>  (3833) 
P

>  <INCHIKEY>  (3833) 
RRJHOAVXFJNTTO-UHFFFAOYSA-N

>  <FORMULA>  (3833) 
C13H16OS

>  <EXACT MASS>  (3833) 
220.092186132

>  <MW>  (3833) 
220

>  <ID>  (3833) 
JP005544

>  <CONTRIBUTOR>  (3833) 
University of Tokyo Team, {Faculty of Engineering, University of Tokyo

>  <COMMENT>  (3833) 
SMILES=OC(C3)CC(CC3)(C1)Sc(c2)c(ccc2)1
InChI=InChI=1S/C13H16OS/c14-11-5-3-7-13(9-11)8-10-4-1-2-6-12(10)15-13/h1-2,4,6,11,14H,3,5,7-9H2
computed SMILES=OC1CCCC2(SC=3C=CC=CC3C2)C1
accession=JP005544
date=2016.01.19 (Created 2008.10.21, modified 2011.05.06)
author=MASS SPECTROSCOPY SOC. OF JAPAN (MSSJ)
license=CC BY-NC-SA
exact mass=220.09219
ionization energy=70 eV
ion type=[M]+*
computed spectral entropy=3.3546606714118408
computed normalized entropy=0.8713070298712327
SPLASH=splash10-006t-2930000000-56c1731520210239d217
submitter=submitter = University of Tokyo Team (Faculty of Engineering, University of Tokyo)
MoNA Rating=3.75

>  <NUM PEAKS>  (3833) 
47

>  <MASS SPECTRAL PEAKS>  (3833) 
41 11.1
43 5.5
45 12.1
55 5.7
57 6.3
77 11.1
79 9.2
91 13.3
97 42.1
115 12.2
116 6.2
117 6.2
119 6.2
121 5.6
123 7.7
124 1
127 3.1
128 12
129 7.7
130 4.1
134 16.2
135 19.3
136 2.9
141 6.5
142 2.7
146 1.8
147 41.4
148 54.8
149 37.2
150 6.2
160 28.2
161 14.5
162 5.5
169 5.3
173 21.1
174 11.3
175 4.3
176 2
177 15.2
178 2.4
187 9.5
201 8.1
202 13.8
203 2.9
220 99.99
221 13.8
222 4.3

>  <PREDICTED SPECTRUM>  (3833) 
27 11
39 135
40 35
41 186
42 0
43 119
44 88
45 258
46 10
47 46
49 9
50 53
51 225
52 114
53 130
54 13
55 89
57 106
58 79
59 77
62 9
63 100
64 70
65 206
66 88
67 75
69 86
71 80
72 100
75 61
76 32
77 310
78 216
79 167
80 16
81 78
85 21
89 140
91 343
92 108
93 91
94 45
95 29
97 105
99 50
102 96
103 109
104 9
105 104
107 49
108 73
109 89
110 29
111 94
113 60
114 3
115 444
116 242
117 224
118 23
119 163
120 183
121 230
122 90
123 4
125 7
126 20
127 218
128 282
129 301
130 184
131 140
133 110
134 165
135 255
136 182
140 2
141 123
142 165
143 217
144 213
145 189
146 288
147 758
148 999
149 561
150 225
157 130
158 84
159 234
160 266
161 359
162 351
163 108
164 68
169 201
170 18
171 53
172 132
173 350
174 296
175 395
176 228
177 249
178 67
179 23
185 57
186 52
187 327
188 47
191 3
200 19
201 245
202 346
203 121
218 2
220 981
221 371
222 147
223 20

$$$$

     RDKit          2D

 11 10  0  0  0  0  0  0  0  0999 V2000
   -6.4952    4.5000    0.0000 C   0  0  0  0  0  0  0  0  0  0  0  0
    2.5981    3.7500    0.0000 C   0  0  0  0  0  0  0  0  0  0  0  0
   -3.8971    4.5000    0.0000 C   0  0  0  0  0  0  0  0  0  0  0  0
   -2.5981    3.7500    0.0000 C   0  0  0  0  0  0  0  0  0  0  0  0
    0.0000    3.7500    0.0000 C   0  0  0  0  0  0  0  0  0  0  0  0
   -5.1962    3.7500    0.0000 C   0  0  0  0  0  0  0  0  0  0  0  0
    1.2990    4.5000    0.0000 C   0  0  0  0  0  0  0  0  0  0  0  0
   -1.2990    4.5000    0.0000 C   0  0  0  0  0  0  0  0  0  0  0  0
   -5.1962    2.2500    0.0000 O   0  0  0  0  0  0  0  0  0  0  0  0
    1.2990    6.0000    0.0000 O   0  0  0  0  0  0  0  0  0  0  0  0
   -1.2990    6.0000    0.0000 O   0  0  0  0  0  0  0  0  0  0  0  0
  4  3  1  0
  6  1  1  0
  6  3  1  0
  7  2  1  0
  7  5  1  0
  8  4  1  0
  8  5  1  0
  9  6  2  0
 10  7  2  0
 11  8  2  0
M  END
>  <NAME>  (3834) 
2,4,7-OCTANETRIONE

>  <SYNONYMS>  (3834) 


>  <SPECTRUM TYPE>  (3834) 
MS1

>  <INSTRUMENT TYPE>  (3834) 
EI-B

>  <INSTRUMENT>  (3834) 
HITACHI RMU-6L

>  <ION MODE>  (3834) 
P

>  <INCHIKEY>  (3834) 
AIVJKJUUXMUBEG-UHFFFAOYSA-N

>  <FORMULA>  (3834) 
C8H12O3

>  <EXACT MASS>  (3834) 
156.07864424399997

>  <MW>  (3834) 
156

>  <ID>  (3834) 
JP005540

>  <CONTRIBUTOR>  (3834) 
University of Tokyo Team, {Faculty of Engineering, University of Tokyo

>  <COMMENT>  (3834) 
SMILES=CC(=O)CCC(=O)CC(C)=O
InChI=InChI=1S/C8H12O3/c1-6(9)3-4-8(11)5-7(2)10/h3-5H2,1-2H3
computed SMILES=O=C(C)CC(=O)CCC(=O)C
accession=JP005540
date=2016.01.19 (Created 2008.10.21, modified 2011.05.06)
author=MASS SPECTROSCOPY SOC. OF JAPAN (MSSJ)
license=CC BY-NC-SA
exact mass=156.07864
ionization energy=70 eV
ion type=[M]+*
computed spectral entropy=2.12771941028484
computed normalized entropy=0.5892461312494198
SPLASH=splash10-004i-9000000000-78cb463115d2a5f0fa75
submitter=submitter = University of Tokyo Team (Faculty of Engineering, University of Tokyo)
MoNA Rating=3.75

>  <NUM PEAKS>  (3834) 
37

>  <MASS SPECTRAL PEAKS>  (3834) 
27 3.8
28 99.99
29 2.7
31 1.2
32 18.3
39 2.2
40 1.8
41 2.3
42 2.3
43 45.8
44 1.3
45 0.3
51 0.3
53 0.8
55 2.7
56 0.7
57 1.2
58 1
67 1.3
69 0.8
71 3.7
72 0.8
85 13.3
86 0.7
95 1
96 1
97 0.3
98 0.8
99 7.3
100 0.5
113 7
114 1.3
123 1
138 1
139 0.3
156 1.3
157 0.3

>  <PREDICTED SPECTRUM>  (3834) 
14 51
15 128
16 22
17 23
18 36
25 10
26 66
27 244
28 169
29 198
30 79
31 76
32 4
37 26
38 70
39 257
40 97
41 233
42 195
43 999
44 196
45 105
50 26
51 51
52 31
53 114
54 29
55 195
56 116
57 259
58 179
59 14
67 40
69 108
70 24
71 285
72 192
73 7
80 17
81 137
82 2
83 88
84 83
85 494
86 152
87 0
95 146
96 98
97 48
98 116
99 342
100 293
101 25
113 176
114 146
115 23
123 87
128 30
138 102
141 132
142 1
155 0
156 170
157 35

$$$$

     RDKit          2D

 26 27  0  0  0  0  0  0  0  0999 V2000
   -2.0993   -0.1420    0.0000 C   0  0  0  0  0  0  0  0  0  0  0  0
    4.3959    3.6080    0.0000 C   0  0  0  0  0  0  0  0  0  0  0  0
    3.6459    2.3089    0.0000 H   0  0  0  0  0  0  0  0  0  0  0  0
    5.6950    2.8580    0.0000 H   0  0  0  0  0  0  0  0  0  0  0  0
    5.1459    4.9070    0.0000 H   0  0  0  0  0  0  0  0  0  0  0  0
   -4.6974    5.8580    0.0000 C   0  0  0  0  0  0  0  0  0  0  0  0
    1.7978   -0.8920    0.0000 C   0  0  0  0  0  0  0  0  0  0  0  0
   -4.6978    4.3571    0.0000 C   0  0  0  0  0  0  0  0  0  0  0  0
   -3.3978    6.6088    0.0000 C   0  0  0  0  0  0  0  0  0  0  0  0
    3.0978   -0.1420    0.0000 C   0  0  0  0  0  0  0  0  0  0  0  0
    0.4978   -0.1420    0.0000 C   0  0  0  0  0  0  0  0  0  0  0  0
   -3.3988    3.6071    0.0000 C   0  0  0  0  0  0  0  0  0  0  0  0
   -2.0988    5.8588    0.0000 C   0  0  0  0  0  0  0  0  0  0  0  0
    3.0978    1.3580    0.0000 C   0  0  0  0  0  0  0  0  0  0  0  0
    0.4978    1.3580    0.0000 C   0  0  0  0  0  0  0  0  0  0  0  0
   -0.8002    2.1080    0.0000 C   0  0  0  0  0  0  0  0  0  0  0  0
   -2.0993    1.3580    0.0000 C   0  0  0  0  0  0  0  0  0  0  0  0
    3.0969    4.3580    0.0000 C   0  0  0  0  0  0  0  0  0  0  0  0
   -2.0993    4.3580    0.0000 C   0  0  0  0  0  0  0  0  0  0  0  0
    1.7978    2.1080    0.0000 C   0  0  0  0  0  0  0  0  0  0  0  0
   -0.8002    3.6080    0.0000 C   0  0  0  0  0  0  0  0  0  0  0  0
    1.7978    3.6080    0.0000 C   0  0  0  0  0  0  0  0  0  0  0  0
    0.4988    4.3580    0.0000 C   0  0  0  0  0  0  0  0  0  0  0  0
   -3.3983    2.1080    0.0000 O   0  0  0  0  0  0  0  0  0  0  0  0
    3.0969    5.8580    0.0000 O   0  0  0  0  0  0  0  0  0  0  0  0
    0.4988    5.8580    0.0000 O   0  0  0  0  0  0  0  0  0  0  0  0
  2  3  1  0
  2  4  1  0
  2  5  1  0
  8  6  2  0
  9  6  1  0
 10  7  2  0
 11  7  1  0
 12  8  1  0
 13  9  2  0
 14 10  1  0
 15 11  2  0
 17  1  1  0
 17 16  1  0
 18  2  1  0
 19 12  2  0
 19 13  1  0
 20 14  2  0
 20 15  1  0
 21 16  1  0
 21 19  1  0
 22 18  1  0
 22 20  1  0
 23 21  1  0
 23 22  1  0
 24 17  2  0
 25 18  2  0
 26 23  2  0
M  ISO  3   3   2   4   2   5   2
M  END
>  <NAME>  (3835) 
3,5-DIPHENYL-2,4,7-OCTANETRIONE (1,1,1-D3)

>  <SYNONYMS>  (3835) 


>  <SPECTRUM TYPE>  (3835) 
MS1

>  <INSTRUMENT TYPE>  (3835) 
EI-B

>  <INSTRUMENT>  (3835) 
HITACHI RMU-6L

>  <ION MODE>  (3835) 
P

>  <INCHIKEY>  (3835) 
XODLHHIXDHKQQO-BMSJAHLVSA-N

>  <FORMULA>  (3835) 
C20H20O3

>  <EXACT MASS>  (3835) 
311.160074738

>  <MW>  (3835) 
311

>  <ID>  (3835) 
JP005539

>  <CONTRIBUTOR>  (3835) 
University of Tokyo Team, {Faculty of Engineering, University of Tokyo

>  <COMMENT>  (3835) 
SMILES=CC(=O)CC(c(c2)cccc2)C(=O)C(C(=O)C([2H])([2H])[2H])c(c1)cccc1
InChI=InChI=1S/C20H20O3/c1-14(21)13-18(16-9-5-3-6-10-16)20(23)19(15(2)22)17-11-7-4-8-12-17/h3-12,18-19H,13H2,1-2H3/i2D3
computed SMILES=[H]C([H])([H])C(=O)C(C=1C=CC=CC1)C(=O)C(C=2C=CC=CC2)CC(=O)C
accession=JP005539
date=2016.01.19 (Created 2008.10.21, modified 2011.05.06)
author=MASS SPECTROSCOPY SOC. OF JAPAN (MSSJ)
license=CC BY-NC-SA
exact mass=308.14124
ionization energy=70 eV
ion type=[M]+*
computed spectral entropy=3.6853818046924878
computed normalized entropy=0.8020208231531859
SPLASH=splash10-03di-8920000000-8898592867b5fb3a220a
submitter=submitter = University of Tokyo Team (Faculty of Engineering, University of Tokyo)
MoNA Rating=3.75

>  <NUM PEAKS>  (3835) 
99

>  <MASS SPECTRAL PEAKS>  (3835) 
27 1.9
28 23
29 2
30 3
32 6.8
39 2.9
41 2.1
43 44.6
44 2.2
45 6.4
46 13.8
51 30.8
52 1.1
55 2.2
56 2.4
57 13.5
58 29.7
59 1.3
63 2.5
65 2
69 1.3
77 6.9
78 3.6
79 3
80 1.6
81 2.4
82 1.5
83 1.1
89 3.6
90 3.4
91 5.3
92 2.7
93 2.4
94 1
102 1.9
103 4
104 3.2
105 7.3
106 2.2
107 2.3
108 3.6
115 2.4
116 1.5
117 3.1
118 4.9
119 3.3
127 1.1
128 1.3
129 1.3
131 1.8
133 1.8
134 1.6
135 8.2
136 23
137 4
138 0.7
147 3.6
148 2.1
149 1.3
161 1.7
162 4.7
163 36.5
164 99.99
165 13.5
166 1.7
174 1.6
175 2.3
176 1.1
178 2.4
189 1.2
190 1.1
202 1.6
203 1.5
204 1.3
205 2.1
206 1.2
207 1.1
224 1
233 0.7
247 12.7
248 6
249 3.4
250 3.4
251 1.6
265 0.7
267 1.1
268 1.7
275 0.8
276 0.9
291 1.5
292 9.1
293 23
294 4.4
295 0.8
309 0.4
310 3.4
311 7.4
312 1.9
313 0.3

>  <PREDICTED SPECTRUM>  (3835) 
15 48
16 2
17 15
18 29
25 1
26 56
27 137
28 98
31 16
38 63
39 297
40 111
41 226
42 46
43 890
44 234
45 165
46 100
50 144
51 421
52 187
53 166
54 10
55 29
59 69
62 92
63 296
64 87
65 327
66 85
69 287
71 99
73 29
74 50
75 93
76 169
77 743
78 430
79 495
85 74
86 51
87 26
89 197
90 286
91 999
92 262
93 11
95 12
98 9
99 72
102 257
103 600
104 472
105 662
106 801
107 303
108 117
110 80
115 383
117 11
118 220
119 197
120 365
121 200
122 311
123 33
128 220
129 30
130 102
131 174
134 86
135 95
136 306
137 256
147 75
148 266
149 334
150 439
151 86
152 136
163 87
164 451
165 349
166 261
167 18
168 161
174 26
175 25
176 123
177 77
178 341
179 271
192 54
193 1
205 97
206 112
207 199
208 121
210 7
212 31
213 68
250 142
251 80
293 964
294 277
295 105
311 257
312 112

$$$$

     RDKit          2D

 23 24  0  0  0  0  0  0  0  0999 V2000
   -2.0392    8.3529    0.0000 C   0  0  0  0  0  0  0  0  0  0  0  0
   -2.5069   -0.3771    0.0000 C   0  0  0  0  0  0  0  0  0  0  0  0
   -7.2354    2.3529    0.0000 C   0  0  0  0  0  0  0  0  0  0  0  0
    2.6892   -0.3771    0.0000 C   0  0  0  0  0  0  0  0  0  0  0  0
   -7.2359    3.8537    0.0000 C   0  0  0  0  0  0  0  0  0  0  0  0
   -5.9359    1.6021    0.0000 C   0  0  0  0  0  0  0  0  0  0  0  0
    1.3897   -1.1279    0.0000 C   0  0  0  0  0  0  0  0  0  0  0  0
    2.6897    1.1237    0.0000 C   0  0  0  0  0  0  0  0  0  0  0  0
   -5.9368    4.6037    0.0000 C   0  0  0  0  0  0  0  0  0  0  0  0
   -4.6368    2.3521    0.0000 C   0  0  0  0  0  0  0  0  0  0  0  0
    0.0907   -0.3779    0.0000 C   0  0  0  0  0  0  0  0  0  0  0  0
    1.3907    1.8737    0.0000 C   0  0  0  0  0  0  0  0  0  0  0  0
   -3.3383    6.1029    0.0000 C   0  0  0  0  0  0  0  0  0  0  0  0
   -2.0392    6.8529    0.0000 C   0  0  0  0  0  0  0  0  0  0  0  0
   -2.5069    1.1229    0.0000 C   0  0  0  0  0  0  0  0  0  0  0  0
   -4.6373    3.8529    0.0000 C   0  0  0  0  0  0  0  0  0  0  0  0
    0.0912    1.1229    0.0000 C   0  0  0  0  0  0  0  0  0  0  0  0
   -3.3383    4.6029    0.0000 C   0  0  0  0  0  0  0  0  0  0  0  0
   -1.2079    1.8729    0.0000 C   0  0  0  0  0  0  0  0  0  0  0  0
   -1.2079    3.3729    0.0000 C   0  0  0  0  0  0  0  0  0  0  0  0
   -0.7402    6.1029    0.0000 O   0  0  0  0  0  0  0  0  0  0  0  0
   -3.8059    1.8729    0.0000 O   0  0  0  0  0  0  0  0  0  0  0  0
    0.0912    4.1229    0.0000 O   0  0  0  0  0  0  0  0  0  0  0  0
  5  3  2  0
  6  3  1  0
  7  4  2  0
  8  4  1  0
  9  5  1  0
 10  6  2  0
 11  7  1  0
 12  8  2  0
 14  1  1  0
 14 13  1  0
 15  2  1  0
 16  9  2  0
 16 10  1  0
 17 11  2  0
 17 12  1  0
 18 13  1  0
 18 16  1  0
 19 15  1  0
 19 17  1  0
 20 18  1  0
 20 19  1  0
 21 14  2  0
 22 15  2  0
 23 20  2  0
M  END
>  <NAME>  (3836) 
3,5-DIPHENYL-2,4,7-OCTANETRIONE

>  <SYNONYMS>  (3836) 


>  <SPECTRUM TYPE>  (3836) 
MS1

>  <INSTRUMENT TYPE>  (3836) 
EI-B

>  <INSTRUMENT>  (3836) 
HITACHI RMU-6L

>  <ION MODE>  (3836) 
P

>  <INCHIKEY>  (3836) 
XODLHHIXDHKQQO-UHFFFAOYSA-N

>  <FORMULA>  (3836) 
C20H20O3

>  <EXACT MASS>  (3836) 
308.14124449999997

>  <MW>  (3836) 
308

>  <ID>  (3836) 
JP005538

>  <CONTRIBUTOR>  (3836) 
University of Tokyo Team, {Faculty of Engineering, University of Tokyo

>  <COMMENT>  (3836) 
SMILES=CC(=O)CC(c(c2)cccc2)C(=O)C(C(C)=O)c(c1)cccc1
InChI=InChI=1S/C20H20O3/c1-14(21)13-18(16-9-5-3-6-10-16)20(23)19(15(2)22)17-11-7-4-8-12-17/h3-12,18-19H,13H2,1-2H3
computed SMILES=O=C(C)CC(C=1C=CC=CC1)C(=O)C(C=2C=CC=CC2)C(=O)C
accession=JP005538
date=2016.01.19 (Created 2008.10.21, modified 2011.05.06)
author=MASS SPECTROSCOPY SOC. OF JAPAN (MSSJ)
license=CC BY-NC-SA
exact mass=308.14124
ionization energy=70 eV
ion type=[M]+*
computed spectral entropy=3.4916594049893495
computed normalized entropy=0.8087247290947254
SPLASH=splash10-01ox-7960000000-382c197fe84c5e493032
submitter=submitter = University of Tokyo Team (Faculty of Engineering, University of Tokyo)
MoNA Rating=3.75

>  <NUM PEAKS>  (3836) 
75

>  <MASS SPECTRAL PEAKS>  (3836) 
27 6.6
39 5
41 9.5
42 9.5
43 62.8
45 3.3
50 1.5
51 4.9
55 27
56 3.4
57 8
60 2.8
63 2.3
65 2.5
69 2.3
71 2.5
72 1.8
77 10.2
78 3.4
79 3.1
89 3.7
90 3.7
91 9.5
92 1.8
94 1.5
102 1.9
103 7.3
104 3.4
105 11.7
106 1.6
115 7.3
116 2
117 4.6
118 4.2
119 4.2
130 1.5
131 4.7
133 23.4
134 10.2
135 1.7
145 1.9
147 6.6
148 2.8
161 99.99
162 18.2
163 1.9
174 3.2
175 5.1
176 1.5
178 2.8
179 2
202 2.4
203 2.4
204 2.1
205 4.8
219 1.8
223 2.6
233 2.1
246 2.1
247 25.5
248 17.5
249 3.8
250 1.7
265 3.8
266 3.3
272 2
273 1.8
274 1.2
275 1
290 62.8
291 14.6
292 2
308 13.1
309 3.5
310 0.4

>  <PREDICTED SPECTRUM>  (3836) 
14 4
15 50
17 9
27 46
28 24
29 42
31 2
39 93
40 24
41 86
43 807
44 88
50 45
51 168
52 20
53 37
55 32
56 102
57 149
59 15
62 12
63 104
65 115
69 122
70 8
71 3
74 30
75 63
76 144
77 398
78 175
79 109
83 17
85 52
87 20
89 176
90 114
91 447
92 122
99 15
100 36
101 39
102 243
103 407
104 328
105 319
106 197
107 138
113 32
115 340
116 104
117 139
118 279
119 355
120 169
121 52
122 3
127 119
128 185
129 46
130 75
131 205
132 135
133 340
134 311
135 140
145 145
146 157
147 245
148 95
149 36
151 78
152 218
160 25
161 707
162 367
163 273
165 17
168 27
171 66
173 39
174 109
175 190
176 89
179 131
187 3
189 165
190 11
201 28
202 71
203 191
204 145
205 296
206 120
207 70
220 27
223 171
224 48
233 62
247 608
248 574
249 219
250 170
251 85
265 217
266 201
272 87
275 196
289 7
290 999
291 441
292 128
293 22
308 418
309 168
310 24
311 20

$$$$

     RDKit          2D

 25 27  0  0  0  0  0  0  0  0999 V2000
   -1.2931   -7.2176    0.0000 C   0  0  0  0  0  0  0  0  0  0  0  0
   -2.5141    0.9738    0.0000 C   0  0  0  0  0  0  0  0  0  0  0  0
   -1.0477    0.6583    0.0000 H   0  0  0  0  0  0  0  0  0  0  0  0
   -2.1986    2.4402    0.0000 H   0  0  0  0  0  0  0  0  0  0  0  0
   -3.9805    1.2893    0.0000 H   0  0  0  0  0  0  0  0  0  0  0  0
   -7.3859   -1.7629    0.0000 C   0  0  0  0  0  0  0  0  0  0  0  0
    2.5658   -0.1192    0.0000 C   0  0  0  0  0  0  0  0  0  0  0  0
   -6.0823   -1.0191    0.0000 C   0  0  0  0  0  0  0  0  0  0  0  0
   -7.3945   -3.2637    0.0000 C   0  0  0  0  0  0  0  0  0  0  0  0
    1.4533    0.8882    0.0000 C   0  0  0  0  0  0  0  0  0  0  0  0
    2.2506   -1.5866    0.0000 C   0  0  0  0  0  0  0  0  0  0  0  0
   -4.7874   -1.7761    0.0000 C   0  0  0  0  0  0  0  0  0  0  0  0
   -6.0995   -4.0207    0.0000 C   0  0  0  0  0  0  0  0  0  0  0  0
    0.0256    0.4282    0.0000 C   0  0  0  0  0  0  0  0  0  0  0  0
    0.8228   -2.0465    0.0000 C   0  0  0  0  0  0  0  0  0  0  0  0
   -3.3517   -5.5265    0.0000 C   0  0  0  0  0  0  0  0  0  0  0  0
   -1.8929   -5.8428    0.0000 C   0  0  0  0  0  0  0  0  0  0  0  0
   -2.8296   -0.4927    0.0000 C   0  0  0  0  0  0  0  0  0  0  0  0
   -4.7960   -3.2769    0.0000 C   0  0  0  0  0  0  0  0  0  0  0  0
   -0.2897   -1.0392    0.0000 C   0  0  0  0  0  0  0  0  0  0  0  0
   -3.5010   -4.0339    0.0000 C   0  0  0  0  0  0  0  0  0  0  0  0
   -1.7174   -1.4991    0.0000 C   0  0  0  0  0  0  0  0  0  0  0  0
   -2.1339   -3.4348    0.0000 C   0  0  0  0  0  0  0  0  0  0  0  0
   -4.2574   -0.9526    0.0000 O   0  0  0  0  0  0  0  0  0  0  0  0
   -1.1278   -4.5502    0.0000 O   0  0  0  0  0  0  0  0  0  0  0  0
  2  3  1  0
  2  4  1  0
  2  5  1  0
  8  6  2  0
  9  6  1  0
 10  7  2  0
 11  7  1  0
 12  8  1  0
 13  9  2  0
 14 10  1  0
 15 11  2  0
 17  1  1  0
 17 16  2  0
 18  2  1  0
 19 12  2  0
 19 13  1  0
 20 14  2  0
 20 15  1  0
 21 16  1  0
 21 19  1  0
 22 18  1  0
 22 20  1  0
 23 21  2  0
 23 22  1  0
 24 18  2  0
 25 17  1  0
 25 23  1  0
M  ISO  3   3   2   4   2   5   2
M  END
>  <NAME>  (3837) 
1-PHENYL-1-(5-METHYL-3-PHENYL-2-FURYL)ACETONE (3,3,3-D3)

>  <SYNONYMS>  (3837) 


>  <SPECTRUM TYPE>  (3837) 
MS1

>  <INSTRUMENT TYPE>  (3837) 
EI-B

>  <INSTRUMENT>  (3837) 
HITACHI RMU-6L

>  <ION MODE>  (3837) 
P

>  <INCHIKEY>  (3837) 
PYTUHOXYDQJXEZ-BMSJAHLVSA-N

>  <FORMULA>  (3837) 
C20H18O2

>  <EXACT MASS>  (3837) 
293.14951005399996

>  <MW>  (3837) 
293

>  <ID>  (3837) 
JP005537

>  <CONTRIBUTOR>  (3837) 
University of Tokyo Team, {Faculty of Engineering, University of Tokyo

>  <COMMENT>  (3837) 
SMILES=[2H]C([2H])([2H])C(=O)C(c(c3)cccc3)c(o2)c(cc(C)2)c(c1)cccc1
InChI=InChI=1S/C20H18O2/c1-14-13-18(16-9-5-3-6-10-16)20(22-14)19(15(2)21)17-11-7-4-8-12-17/h3-13,19H,1-2H3/i2D3
computed SMILES=[H]C([H])([H])C(=O)C(C=1C=CC=CC1)C=2OC(=CC2C=3C=CC=CC3)C
accession=JP005537
date=2016.01.19 (Created 2008.10.21, modified 2011.05.06)
author=MASS SPECTROSCOPY SOC. OF JAPAN (MSSJ)
license=CC BY-NC-SA
exact mass=290.13068
ionization energy=70 eV
ion type=[M]+*
computed spectral entropy=3.8918497042062277
computed normalized entropy=0.8312132905759274
SPLASH=splash10-0002-9570000000-b2042361c796948d6b58
submitter=submitter = University of Tokyo Team (Faculty of Engineering, University of Tokyo)
MoNA Rating=3.75

>  <NUM PEAKS>  (3837) 
108

>  <MASS SPECTRAL PEAKS>  (3837) 
39 6
40 2.9
41 4.4
43 35.6
44 2.4
45 4.4
46 8
47 9.1
49 5.3
50 3.6
51 8.2
52 2.2
55 4
56 1.8
57 2.9
62 1.6
63 3.8
64 1.8
65 4
66 3.6
67 2
69 2
71 2
74 1.8
75 1.8
76 3.1
77 15.8
78 2.7
79 1.6
81 2
82 4.4
83 2
84 21.3
85 1.6
86 14.2
88 3.3
89 3.3
90 2.2
91 4.2
92 1.6
93 1.6
94 7.3
95 1.8
97 1.8
101 2.2
102 8.4
103 2.7
105 14.7
106 3.6
107 1.8
108 1.8
115 4.4
116 2
117 14.2
119 15.1
121 4.9
123 1.8
126 2.7
127 2.9
128 3.1
129 1.8
140 1.6
141 3.8
149 1.8
150 1.1
151 1.8
152 2.2
161 1.3
163 1.3
165 1.8
168 1.3
169 3.8
170 1.3
176 1.3
177 1.3
178 2.2
179 1.8
189 2
190 1.3
190.5 1.3
191 1.3
200 2
201 2
202 10.4
203 8.2
204 4.9
205 2.4
209 2
215 2
216 0.9
217 0.9
218 0.9
219 0.9
228 1.6
229 1.6
230 0.9
231 1.8
232 1.1
245 1.6
246 1.8
247 99.99
248 26.7
249 4
250 1.1
262 2.2
292 2
293 5.3
294 1.6

>  <PREDICTED SPECTRUM>  (3837) 
39 21
41 119
43 479
51 252
55 129
57 24
75 17
76 81
77 670
78 119
102 240
105 72
106 219
115 312
130 168
131 145
132 45
151 78
152 379
165 944
166 156
176 103
178 197
179 259
190 140
207 27
216 158
235 422
250 327
293 999
294 245

$$$$

     RDKit          2D

 22 24  0  0  0  0  0  0  0  0999 V2000
   -2.6199    3.7274    0.0000 C   0  0  0  0  0  0  0  0  0  0  0  0
    1.1704   -3.6363    0.0000 C   0  0  0  0  0  0  0  0  0  0  0  0
   -4.3827   -4.2582    0.0000 C   0  0  0  0  0  0  0  0  0  0  0  0
    4.6569    0.2165    0.0000 C   0  0  0  0  0  0  0  0  0  0  0  0
   -2.8901   -4.1012    0.0000 C   0  0  0  0  0  0  0  0  0  0  0  0
   -5.2658   -3.0447    0.0000 C   0  0  0  0  0  0  0  0  0  0  0  0
    4.3417   -1.2508    0.0000 C   0  0  0  0  0  0  0  0  0  0  0  0
    3.5444    1.2239    0.0000 C   0  0  0  0  0  0  0  0  0  0  0  0
   -2.2806   -2.7306    0.0000 C   0  0  0  0  0  0  0  0  0  0  0  0
   -4.6563   -1.6741    0.0000 C   0  0  0  0  0  0  0  0  0  0  0  0
    2.9140   -1.7108    0.0000 C   0  0  0  0  0  0  0  0  0  0  0  0
    2.1167    0.7640    0.0000 C   0  0  0  0  0  0  0  0  0  0  0  0
   -3.3042    1.1526    0.0000 C   0  0  0  0  0  0  0  0  0  0  0  0
   -2.3044    2.2610    0.0000 C   0  0  0  0  0  0  0  0  0  0  0  0
    0.0582   -2.6298    0.0000 C   0  0  0  0  0  0  0  0  0  0  0  0
   -3.1637   -1.5170    0.0000 C   0  0  0  0  0  0  0  0  0  0  0  0
    1.8015   -0.7034    0.0000 C   0  0  0  0  0  0  0  0  0  0  0  0
   -2.5542   -0.1465    0.0000 C   0  0  0  0  0  0  0  0  0  0  0  0
    0.3737   -1.1634    0.0000 C   0  0  0  0  0  0  0  0  0  0  0  0
   -1.0944    0.1652    0.0000 C   0  0  0  0  0  0  0  0  0  0  0  0
   -1.3695   -3.0898    0.0000 O   0  0  0  0  0  0  0  0  0  0  0  0
   -0.9286    1.6581    0.0000 O   0  0  0  0  0  0  0  0  0  0  0  0
  5  3  2  0
  6  3  1  0
  7  4  2  0
  8  4  1  0
  9  5  1  0
 10  6  2  0
 11  7  1  0
 12  8  2  0
 14  1  1  0
 14 13  2  0
 15  2  1  0
 16  9  2  0
 16 10  1  0
 17 11  2  0
 17 12  1  0
 18 13  1  0
 18 16  1  0
 19 15  1  0
 19 17  1  0
 20 18  2  0
 20 19  1  0
 21 15  2  0
 22 14  1  0
 22 20  1  0
M  END
>  <NAME>  (3838) 
1-PHENYL-1-(5-METHYL-3-PHENYL-2-FURYL)ACETONE

>  <SYNONYMS>  (3838) 


>  <SPECTRUM TYPE>  (3838) 
MS1

>  <INSTRUMENT TYPE>  (3838) 
EI-B

>  <INSTRUMENT>  (3838) 
HITACHI RMU-6L

>  <ION MODE>  (3838) 
P

>  <INCHIKEY>  (3838) 
PYTUHOXYDQJXEZ-UHFFFAOYSA-N

>  <FORMULA>  (3838) 
C20H18O2

>  <EXACT MASS>  (3838) 
290.130679816

>  <MW>  (3838) 
290

>  <ID>  (3838) 
JP005536

>  <CONTRIBUTOR>  (3838) 
University of Tokyo Team, {Faculty of Engineering, University of Tokyo

>  <COMMENT>  (3838) 
SMILES=c(c3)ccc(c3)C(C(C)=O)c(o2)c(cc(C)2)c(c1)cccc1
InChI=InChI=1S/C20H18O2/c1-14-13-18(16-9-5-3-6-10-16)20(22-14)19(15(2)21)17-11-7-4-8-12-17/h3-13,19H,1-2H3
computed SMILES=O=C(C)C(C=1C=CC=CC1)C=2OC(=CC2C=3C=CC=CC3)C
accession=JP005536
license=CC BY-NC-SA
date=2016.01.19 (Created 2008.10.21, modified 2011.05.06)
author=MASS SPECTROSCOPY SOC. OF JAPAN (MSSJ)
exact mass=290.13068
ionization energy=70 eV
ion type=[M]+*
computed spectral entropy=2.579964194665746
computed normalized entropy=0.5957337919344554
SPLASH=splash10-0002-1190000000-cbac982009b7931ec89d
submitter=submitter = University of Tokyo Team (Faculty of Engineering, University of Tokyo)
MoNA Rating=3.75

>  <NUM PEAKS>  (3838) 
76

>  <MASS SPECTRAL PEAKS>  (3838) 
28 0.5
39 1
43 11.2
44 1
50 0.5
51 1.8
52 0.5
55 0.9
63 1.2
65 0.6
69 0.6
74 0.4
75 0.7
76 1.2
77 4.3
78 0.7
88 0.4
89 1.2
90 0.8
91 1.6
101 1.2
102 3.8
103 1.2
105 3.1
106 0.4
115 1.6
116 0.9
126 0.8
127 1.2
128 1.1
129 0.4
133 0.5
139 0.5
141 1.1
147 0.5
149 0.4
150 0.3
151 0.4
152 0.6
161 2
162 0.9
163 0.3
165 0.7
169 1.5
176 0.6
178 1.1
179 0.4
189 1
190 0.7
191 0.5
200 0.7
201 0.9
202 4.9
203 4.2
204 2.6
205 1.2
215 1
216 0.3
217 0.4
228 0.9
229 0.8
231 1
232 0.5
245 0.8
246 1.2
247 99.99
248 20.8
249 2.3
261 0.1
262 0.1
263 0.4
264 0.2
289 0.1
290 2.8
291 0.9
292 0.1

>  <PREDICTED SPECTRUM>  (3838) 
27 18
29 4
38 14
39 125
40 46
41 100
42 53
43 493
44 25
45 48
50 64
51 165
52 50
53 50
55 69
57 12
62 14
63 90
64 9
65 65
67 41
69 60
74 46
75 99
76 118
77 225
78 62
79 18
81 23
82 12
83 31
87 65
88 10
89 74
91 83
95 26
97 57
100 9
101 46
102 120
103 79
104 2
105 106
106 18
107 22
109 20
113 48
114 53
115 162
116 78
117 11
120 1
121 16
123 49
124 27
126 73
127 81
128 117
129 95
131 0
132 4
133 8
139 45
141 49
142 13
144 4
145 68
146 20
150 35
151 21
152 133
153 51
163 31
165 137
166 0
169 94
170 4
171 6
175 64
176 74
177 61
178 204
179 10
183 50
185 1
187 56
188 36
189 165
190 83
191 28
201 81
202 124
203 209
204 210
205 90
215 101
216 68
217 55
218 38
227 62
229 160
230 89
231 83
232 68
233 2
245 115
246 125
247 999
248 456
249 141
250 60
290 263
291 98

$$$$

     RDKit          2D

 22 25  0  0  0  0  0  0  0  0999 V2000
    2.9689   -1.5002    0.0000 C   0  0  0  0  0  0  0  0  0  0  0  0
   -1.6796   -2.0493    0.0000 C   0  0  0  0  0  0  0  0  0  0  0  0
    5.5668    3.0006    0.0000 C   0  0  0  0  0  0  0  0  0  0  0  0
   -3.1788    4.6478    0.0000 C   0  0  0  0  0  0  0  0  0  0  0  0
    4.2671    3.7512    0.0000 C   0  0  0  0  0  0  0  0  0  0  0  0
    5.5675    1.4998    0.0000 C   0  0  0  0  0  0  0  0  0  0  0  0
   -3.9300    3.3486    0.0000 C   0  0  0  0  0  0  0  0  0  0  0  0
   -1.6779    4.6478    0.0000 C   0  0  0  0  0  0  0  0  0  0  0  0
    2.9682    3.0010    0.0000 C   0  0  0  0  0  0  0  0  0  0  0  0
    4.2686    0.7496    0.0000 C   0  0  0  0  0  0  0  0  0  0  0  0
   -3.1804    2.0493    0.0000 C   0  0  0  0  0  0  0  0  0  0  0  0
   -0.9283    3.3486    0.0000 C   0  0  0  0  0  0  0  0  0  0  0  0
   -2.2300    0.0000    0.0000 C   0  0  0  0  0  0  0  0  0  0  0  0
    1.6700   -0.7500    0.0000 C   0  0  0  0  0  0  0  0  0  0  0  0
    2.9689    1.5002    0.0000 C   0  0  0  0  0  0  0  0  0  0  0  0
   -1.6796    2.0493    0.0000 C   0  0  0  0  0  0  0  0  0  0  0  0
    1.6700    0.7500    0.0000 C   0  0  0  0  0  0  0  0  0  0  0  0
    0.3700    1.5000    0.0000 C   0  0  0  0  0  0  0  0  0  0  0  0
   -0.9300   -0.7500    0.0000 C   0  0  0  0  0  0  0  0  0  0  0  0
   -0.9300    0.7500    0.0000 C   0  0  0  0  0  0  0  0  0  0  0  0
    0.3700    3.0000    0.0000 O   0  0  0  0  0  0  0  0  0  0  0  0
    0.3700   -1.5000    0.0000 O   0  0  0  0  0  0  0  0  0  0  0  0
  5  3  2  0
  6  3  1  0
  7  4  2  0
  8  4  1  0
  9  5  1  0
 10  6  2  0
 11  7  1  0
 12  8  2  0
 14  1  1  0
 15  9  2  0
 15 10  1  0
 16 11  2  0
 16 12  1  0
 17 14  2  0
 17 15  1  0
 18 17  1  0
 19  2  1  0
 19 13  1  0
 20 13  1  0
 20 16  1  0
 20 18  1  0
 20 19  1  0
 21 18  2  0
 22 14  1  0
 22 19  1  0
M  END
>  <NAME>  (3839) 
1,3-DIMETHYL-4,6-DIPHENYL-2-OXABICYCLO(4.1.0)HEPT-3-EN-5-ONE

>  <SYNONYMS>  (3839) 


>  <SPECTRUM TYPE>  (3839) 
MS1

>  <INSTRUMENT TYPE>  (3839) 
EI-B

>  <INSTRUMENT>  (3839) 
HITACHI RMS-4

>  <ION MODE>  (3839) 
P

>  <INCHIKEY>  (3839) 
YVOMXSLUOQIDON-UHFFFAOYSA-N

>  <FORMULA>  (3839) 
C20H18O2

>  <EXACT MASS>  (3839) 
290.130679816

>  <MW>  (3839) 
290

>  <ID>  (3839) 
JP005535

>  <CONTRIBUTOR>  (3839) 
University of Tokyo Team, {Faculty of Engineering, University of Tokyo

>  <COMMENT>  (3839) 
SMILES=c(c4)ccc(c4)C(=C(C)2)C(=O)C(c(c3)cccc3)(C1)C(C)(O2)1
InChI=InChI=1S/C20H18O2/c1-14-17(15-9-5-3-6-10-15)18(21)20(13-19(20,2)22-14)16-11-7-4-8-12-16/h3-12H,13H2,1-2H3
computed SMILES=O=C1C(C=2C=CC=CC2)=C(OC3(C)CC13C=4C=CC=CC4)C
accession=JP005535
date=2016.01.19 (Created 2008.10.21, modified 2011.05.06)
author=MASS SPECTROSCOPY SOC. OF JAPAN (MSSJ)
license=CC BY-NC-SA
exact mass=290.13068
ionization energy=70 eV
ion type=[M]+*
computed spectral entropy=3.719297854280946
computed normalized entropy=0.8186345004060341
SPLASH=splash10-0f6x-7920000000-9add140a58a021cc1c0b
submitter=submitter = University of Tokyo Team (Faculty of Engineering, University of Tokyo)
MoNA Rating=3.75

>  <NUM PEAKS>  (3839) 
94

>  <MASS SPECTRAL PEAKS>  (3839) 
27 8.5
28 9
29 3
31 2
32 3
39 7
40 2
41 5
42 2.5
43 99.99
44 4
45 2
50 3
51 8
52 3
53 3
55 37
56 3
57 3
62 2
63 5.5
64 2.5
65 5.5
74 2
75 2
76 2.5
77 21
78 6
88 2
89 7
90 5
91 10.5
92 2
101 2
102 5
103 95.5
104 8.5
105 10.5
114 2
115 24
116 9
117 4.5
118 4.5
127 3.5
128 5.5
129 6.5
130 4.5
131 17.5
132 3.5
133 11.5
134 4
141 2.5
142 2.5
145 3
146 2
147 5
148 2
149 3
158 2
160 2
161 66
162 5.5
170 3
174 8.5
175 5
178 2.5
179 2
185 2
187 2
188 2
189 2
191 2
202 3
203 3.5
204 4.5
205 3
215 2
218 2
219 4.5
220 2
230 2
232 2
233 3
247 10
248 10.5
249 3
261 3
262 4.5
263 2
275 6
276 2.5
290 25
291 7
292 2

>  <PREDICTED SPECTRUM>  (3839) 
14 35
15 78
16 32
17 31
18 53
25 2
26 55
27 134
28 95
29 123
31 42
33 14
34 4
36 24
37 42
38 107
39 432
40 151
41 240
42 179
43 999
44 241
45 104
50 216
51 460
52 237
53 153
54 47
55 136
56 99
57 176
58 52
59 118
61 29
62 126
63 341
64 157
65 284
66 115
67 92
68 4
69 94
70 23
71 106
72 27
73 0
74 118
75 219
76 241
77 680
78 354
79 101
83 51
84 27
85 49
86 29
87 54
88 78
89 429
90 195
91 372
92 99
93 17
95 26
98 27
99 2
101 89
102 362
103 683
104 501
105 319
106 113
107 7
113 8
114 23
115 684
116 329
117 341
118 337
119 211
120 135
121 7
126 5
127 261
128 340
129 339
130 100
131 624
132 280
133 319
134 158
135 35
141 192
142 50
143 150
144 175
145 308
146 279
147 336
148 230
149 47
150 0
153 7
157 35
158 72
159 233
160 449
161 621
162 314
163 88
169 17
170 94
171 72
172 48
173 147
174 225
175 269
176 133
177 98
178 94
185 138
187 221
188 218
189 356
190 53
191 111
192 38
200 20
201 137
202 263
203 249
204 227
205 116
213 53
215 175
216 26
218 0
219 178
220 148
229 17
230 96
231 105
232 137
233 109
244 43
245 132
246 150
247 305
248 231
249 83
261 94
262 164
263 60
275 120
276 50
290 546
291 262
292 94

$$$$

     RDKit          2D

 21 23  0  0  0  0  0  0  0  0999 V2000
    2.5989   -1.5002    0.0000 C   0  0  0  0  0  0  0  0  0  0  0  0
   -2.5989   -1.5002    0.0000 C   0  0  0  0  0  0  0  0  0  0  0  0
    5.1968    3.0006    0.0000 C   0  0  0  0  0  0  0  0  0  0  0  0
   -5.1968    3.0006    0.0000 C   0  0  0  0  0  0  0  0  0  0  0  0
    3.8971    3.7512    0.0000 C   0  0  0  0  0  0  0  0  0  0  0  0
    5.1975    1.4998    0.0000 C   0  0  0  0  0  0  0  0  0  0  0  0
   -5.1975    1.4998    0.0000 C   0  0  0  0  0  0  0  0  0  0  0  0
   -3.8971    3.7512    0.0000 C   0  0  0  0  0  0  0  0  0  0  0  0
    2.5982    3.0010    0.0000 C   0  0  0  0  0  0  0  0  0  0  0  0
    3.8986    0.7496    0.0000 C   0  0  0  0  0  0  0  0  0  0  0  0
   -3.8986    0.7496    0.0000 C   0  0  0  0  0  0  0  0  0  0  0  0
   -2.5982    3.0010    0.0000 C   0  0  0  0  0  0  0  0  0  0  0  0
    1.3000   -0.7500    0.0000 C   0  0  0  0  0  0  0  0  0  0  0  0
   -1.3000   -0.7500    0.0000 C   0  0  0  0  0  0  0  0  0  0  0  0
    2.5989    1.5002    0.0000 C   0  0  0  0  0  0  0  0  0  0  0  0
   -2.5989    1.5002    0.0000 C   0  0  0  0  0  0  0  0  0  0  0  0
    1.3000    0.7500    0.0000 C   0  0  0  0  0  0  0  0  0  0  0  0
   -1.3000    0.7500    0.0000 C   0  0  0  0  0  0  0  0  0  0  0  0
    0.0000    1.5000    0.0000 C   0  0  0  0  0  0  0  0  0  0  0  0
   -0.0000   -1.5000    0.0000 O   0  0  0  0  0  0  0  0  0  0  0  0
    0.0000    3.0000    0.0000 S   0  0  0  0  0  0  0  0  0  0  0  0
  5  3  2  0
  6  3  1  0
  7  4  2  0
  8  4  1  0
  9  5  1  0
 10  6  2  0
 11  7  1  0
 12  8  2  0
 13  1  1  0
 14  2  1  0
 15  9  2  0
 15 10  1  0
 16 11  2  0
 16 12  1  0
 17 13  2  0
 17 15  1  0
 18 14  2  0
 18 16  1  0
 19 17  1  0
 19 18  1  0
 20 13  1  0
 20 14  1  0
 21 19  2  0
M  END
>  <NAME>  (3840) 
2,6-DIMETHYL-3,5-DIPHENYL-4-PYRAN-4-THIONE

>  <SYNONYMS>  (3840) 


>  <SPECTRUM TYPE>  (3840) 
MS1

>  <INSTRUMENT TYPE>  (3840) 
EI-B

>  <INSTRUMENT>  (3840) 
HITACHI RMS-4

>  <ION MODE>  (3840) 
P

>  <INCHIKEY>  (3840) 
RJPSKYMOAGEJKT-UHFFFAOYSA-N

>  <FORMULA>  (3840) 
C19H16OS

>  <EXACT MASS>  (3840) 
292.09218613200005

>  <MW>  (3840) 
292

>  <ID>  (3840) 
JP005534

>  <CONTRIBUTOR>  (3840) 
University of Tokyo Team, {Faculty of Engineering, University of Tokyo

>  <COMMENT>  (3840) 
SMILES=c(c3)ccc(c3)C(=C(C)1)C(=S)C(c(c2)cccc2)=C(C)O1
InChI=InChI=1S/C19H16OS/c1-13-17(15-9-5-3-6-10-15)19(21)18(14(2)20-13)16-11-7-4-8-12-16/h3-12H,1-2H3
computed SMILES=S=C1C(C=2C=CC=CC2)=C(OC(=C1C=3C=CC=CC3)C)C
accession=JP005534
date=2016.01.19 (Created 2008.10.21, modified 2011.05.06)
author=MASS SPECTROSCOPY SOC. OF JAPAN (MSSJ)
license=CC BY-NC-SA
exact mass=292.09219
ionization energy=70 eV
ion type=[M]+*
computed spectral entropy=3.0376705025536226
computed normalized entropy=0.6581996052906337
SPLASH=splash10-0006-2190000000-ae654c58b183d01fbeef
submitter=submitter = University of Tokyo Team (Faculty of Engineering, University of Tokyo)
MoNA Rating=3.75

>  <NUM PEAKS>  (3840) 
101

>  <MASS SPECTRAL PEAKS>  (3840) 
28 1.2
29 0.7
31 1.4
32 1.1
39 1.6
41 1
43 20.3
44 0.7
45 1
51 1.7
55 1.2
57 1.6
63 1.7
65 1.2
69 1
71 0.9
75 0.7
77 3.3
78 0.7
81 0.7
83 0.7
85 0.7
87 0.7
88 0.7
89 2.2
90 0.6
91 2.9
92 0.5
93 0.7
95 0.7
97 0.7
101 1.1
102 0.7
103 1.2
105 1.8
113 0.7
114 0.7
115 5.9
116 0.9
117 1.1
121 1.1
122.5 0.7
123 0.6
123.5 0.7
124 0.6
125 0.4
126 0.7
127 1.1
128 0.9
129 1.4
129.5 0.9
132 1.1
134 0.7
135.5 0.6
136 0.7
137 0.7
138 0.6
138.5 0.6
139 1.1
145 1
146 4
146.5 0.9
147 1.7
171 1.7
184 0.7
185 0.7
186 0.6
187 0.6
189 1.6
199 0.4
200 0.6
201 0.4
202 2
203 0.9
213 1.2
214 0.6
215 4.3
216 1.4
221 1.2
232 0.7
233 0.5
234 2.2
235 0.5
245 1.7
246 0.7
247 5.3
248 2.8
249 0.9
258 0.7
259 0.7
261 0.7
275 0.9
276 0.7
277 0.7
289 0.4
290 1.2
291 99.99
292 48.5
293 13.8
294 3.6
295 0.6

>  <PREDICTED SPECTRUM>  (3840) 
17 2
27 45
28 30
29 6
33 19
34 18
36 18
38 38
39 173
40 67
41 85
42 78
43 445
44 93
45 165
50 86
51 189
52 76
53 71
54 8
55 82
57 31
59 39
60 23
62 45
63 159
64 54
65 119
66 45
67 34
68 22
69 112
71 8
74 22
75 78
76 105
77 258
78 84
79 46
81 43
82 20
83 66
84 13
85 2
86 24
87 49
88 70
89 148
90 63
91 107
92 36
93 42
94 44
95 98
96 50
97 49
98 60
101 65
102 99
103 139
104 76
105 125
106 13
107 19
108 61
109 47
110 59
111 46
112 10
113 66
114 93
115 385
116 158
117 71
118 71
119 41
121 44
122 3
123 51
124 37
125 11
126 119
127 86
128 109
129 77
130 28
131 21
132 9
133 72
134 59
135 6
136 11
137 17
138 55
139 111
140 75
141 57
142 22
143 12
144 50
145 57
146 77
147 73
150 11
151 31
152 59
153 25
154 16
155 31
158 23
159 43
160 35
161 47
162 37
163 16
165 51
166 7
169 52
170 26
171 26
175 31
176 24
178 7
179 13
180 4
186 36
187 12
188 43
189 178
190 88
191 22
192 24
193 20
194 4
197 9
199 4
202 77
203 53
204 66
205 25
213 23
214 23
215 45
216 113
217 80
218 56
219 3
229 44
230 5
231 37
232 61
233 135
234 27
241 24
242 8
245 81
246 13
247 126
248 84
249 79
250 43
258 66
259 87
260 0
263 19
275 53
276 65
277 87
278 35
289 62
290 83
291 999
292 919
293 329
294 203
295 47

$$$$

     RDKit          2D

 21 23  0  0  0  0  0  0  0  0999 V2000
    2.5989   -1.5002    0.0000 C   0  0  0  0  0  0  0  0  0  0  0  0
   -2.5989   -1.5002    0.0000 C   0  0  0  0  0  0  0  0  0  0  0  0
    5.1968    3.0006    0.0000 C   0  0  0  0  0  0  0  0  0  0  0  0
   -5.1968    3.0006    0.0000 C   0  0  0  0  0  0  0  0  0  0  0  0
    3.8971    3.7512    0.0000 C   0  0  0  0  0  0  0  0  0  0  0  0
    5.1975    1.4998    0.0000 C   0  0  0  0  0  0  0  0  0  0  0  0
   -5.1975    1.4998    0.0000 C   0  0  0  0  0  0  0  0  0  0  0  0
   -3.8971    3.7512    0.0000 C   0  0  0  0  0  0  0  0  0  0  0  0
    2.5982    3.0010    0.0000 C   0  0  0  0  0  0  0  0  0  0  0  0
    3.8986    0.7496    0.0000 C   0  0  0  0  0  0  0  0  0  0  0  0
   -3.8986    0.7496    0.0000 C   0  0  0  0  0  0  0  0  0  0  0  0
   -2.5982    3.0010    0.0000 C   0  0  0  0  0  0  0  0  0  0  0  0
    1.3000   -0.7500    0.0000 C   0  0  0  0  0  0  0  0  0  0  0  0
   -1.3000   -0.7500    0.0000 C   0  0  0  0  0  0  0  0  0  0  0  0
    2.5989    1.5002    0.0000 C   0  0  0  0  0  0  0  0  0  0  0  0
   -2.5989    1.5002    0.0000 C   0  0  0  0  0  0  0  0  0  0  0  0
    1.3000    0.7500    0.0000 C   0  0  0  0  0  0  0  0  0  0  0  0
   -1.3000    0.7500    0.0000 C   0  0  0  0  0  0  0  0  0  0  0  0
    0.0000    1.5000    0.0000 C   0  0  0  0  0  0  0  0  0  0  0  0
    0.0000    3.0000    0.0000 O   0  0  0  0  0  0  0  0  0  0  0  0
   -0.0000   -1.5000    0.0000 O   0  0  0  0  0  0  0  0  0  0  0  0
  5  3  2  0
  6  3  1  0
  7  4  2  0
  8  4  1  0
  9  5  1  0
 10  6  2  0
 11  7  1  0
 12  8  2  0
 13  1  1  0
 14  2  1  0
 15  9  2  0
 15 10  1  0
 16 11  2  0
 16 12  1  0
 17 13  2  0
 17 15  1  0
 18 14  2  0
 18 16  1  0
 19 17  1  0
 19 18  1  0
 20 19  2  0
 21 13  1  0
 21 14  1  0
M  END
>  <NAME>  (3841) 
2,6-DIMETHYL-3,5-DIPHENYL-4-PYRONE

>  <SYNONYMS>  (3841) 
2,6-DIMETHYL-3,5-DIPHENYL-GAMMA-PYRONE

>  <SPECTRUM TYPE>  (3841) 
MS1

>  <INSTRUMENT TYPE>  (3841) 
EI-B

>  <INSTRUMENT>  (3841) 
HITACHI RMS-4

>  <ION MODE>  (3841) 
P

>  <INCHIKEY>  (3841) 
YCMLUTKKOKKIMN-UHFFFAOYSA-N

>  <FORMULA>  (3841) 
C19H16O2

>  <EXACT MASS>  (3841) 
276.115029752

>  <MW>  (3841) 
276

>  <ID>  (3841) 
JP005533

>  <CONTRIBUTOR>  (3841) 
University of Tokyo Team, {Faculty of Engineering, University of Tokyo

>  <COMMENT>  (3841) 
SMILES=c(c3)ccc(c3)C(=C(C)1)C(=O)C(c(c2)cccc2)=C(C)O1
InChI=InChI=1S/C19H16O2/c1-13-17(15-9-5-3-6-10-15)19(20)18(14(2)21-13)16-11-7-4-8-12-16/h3-12H,1-2H3
computed SMILES=O=C1C(C=2C=CC=CC2)=C(OC(=C1C=3C=CC=CC3)C)C
accession=JP005533
date=2016.01.19 (Created 2008.10.21, modified 2011.05.06)
author=MASS SPECTROSCOPY SOC. OF JAPAN (MSSJ)
license=CC BY-NC-SA
exact mass=276.11503
ionization energy=70 eV
ion type=[M]+*
computed spectral entropy=3.9272920158704823
computed normalized entropy=0.8232135060301442
SPLASH=splash10-004i-8790000000-60149ccb12c4ad8a9061
submitter=submitter = University of Tokyo Team (Faculty of Engineering, University of Tokyo)
MoNA Rating=3.75

>  <NUM PEAKS>  (3841) 
118

>  <MASS SPECTRAL PEAKS>  (3841) 
27 5.5
28 19.5
29 3.5
31 1.5
32 4.5
38 1.5
39 12.5
40 2
41 5.5
42 2
43 32
44 3.5
45 1
50 3
51 9.5
52 2.5
53 2.5
55 15
56 2.5
57 2
62 3
63 14
64 3.5
65 7.5
66 1.5
67 2.5
69 2
74 2
75 3
76 3
77 14
78 6
79 3
81 2
82 1
83 2
85 1.5
87 2
88 3.5
89 20.5
90 22
91 8.5
92 2.5
93 2
95 2
101 3
102 4
103 10
104 4.5
105 4.5
107 2
109 2
111 1.5
113 2.5
114 5
115 49
116 19
117 3.5
118 22.5
119 3.5
126 2
127 5
128 3.5
129 2
130 1
131 3
133 4
136 2.5
137 2
138 5
139 2
141 2
143 1.5
145 2
149 2
150 1.5
151 1.5
152 2
160 3
161 5
162 1.5
163 1.5
164 1.5
165 3
176 2
177 1.5
178 3
179 2
189 4
190 3
191 2
197 2
200 2
201 2
202 6
203 6
204 3.5
205 7
206 2
215 4.5
216 2
218 2.5
219 1.5
230 1.5
231 2
233 3
234 2
235 4.5
236 1.5
247 2.5
248 3
257 1.5
261 3
262 2
276 99.99
277 84
278 20
279 3.5

>  <PREDICTED SPECTRUM>  (3841) 
14 3
15 17
17 9
18 20
26 16
27 105
28 51
29 92
31 11
33 31
34 23
36 19
37 41
38 90
39 380
40 171
41 173
42 112
43 669
44 143
45 121
50 190
51 349
52 187
53 161
54 63
55 111
56 33
57 115
60 25
61 62
62 152
63 306
64 162
65 238
66 98
67 142
68 80
69 161
70 57
71 46
73 43
74 163
75 237
76 208
77 450
78 175
79 63
80 24
81 75
82 86
83 59
84 50
85 50
86 94
87 136
88 178
89 308
90 182
91 218
92 100
93 83
94 133
95 151
96 140
97 25
98 94
99 85
100 28
101 144
102 248
103 264
104 159
105 188
106 63
107 57
108 39
109 114
110 145
111 99
112 52
113 202
114 205
115 596
116 329
117 208
118 143
119 91
120 19
121 32
122 29
123 62
124 28
125 103
126 209
127 196
128 251
129 187
130 109
131 184
132 67
133 56
134 22
135 11
136 81
137 142
138 151
139 181
140 106
141 124
142 93
143 60
144 75
145 137
146 88
147 75
149 136
150 107
151 136
152 174
153 40
155 10
159 86
160 60
161 51
162 67
163 117
164 61
165 173
166 88
167 30
171 8
172 20
173 71
174 82
175 51
176 138
177 152
178 192
179 54
180 15
187 63
188 83
189 232
190 120
191 120
192 60
193 44
194 1
195 9
200 23
201 87
202 162
203 196
204 166
205 225
206 111
207 0
213 45
214 46
215 156
216 171
217 91
218 95
219 116
220 76
221 45
229 20
231 134
232 101
233 239
234 162
235 27
245 28
246 48
247 233
248 175
249 94
252 13
259 22
260 15
261 119
262 62
273 4
274 34
275 27
276 999
277 509
278 223
279 63

$$$$

     RDKit          2D

 12 13  0  0  0  0  0  0  0  0999 V2000
    2.9689   -1.5002    0.0000 C   0  0  0  0  0  0  0  0  0  0  0  0
    2.9689    1.5002    0.0000 C   0  0  0  0  0  0  0  0  0  0  0  0
   -1.6796   -2.0493    0.0000 C   0  0  0  0  0  0  0  0  0  0  0  0
   -1.6796    2.0493    0.0000 C   0  0  0  0  0  0  0  0  0  0  0  0
   -2.2300    0.0000    0.0000 C   0  0  0  0  0  0  0  0  0  0  0  0
    1.6700   -0.7500    0.0000 C   0  0  0  0  0  0  0  0  0  0  0  0
    1.6700    0.7500    0.0000 C   0  0  0  0  0  0  0  0  0  0  0  0
    0.3700   -1.5000    0.0000 C   0  0  0  0  0  0  0  0  0  0  0  0
   -0.9300   -0.7500    0.0000 C   0  0  0  0  0  0  0  0  0  0  0  0
   -0.9300    0.7500    0.0000 C   0  0  0  0  0  0  0  0  0  0  0  0
    0.3700   -3.0000    0.0000 O   0  0  0  0  0  0  0  0  0  0  0  0
    0.3700    1.5000    0.0000 O   0  0  0  0  0  0  0  0  0  0  0  0
  6  1  1  0
  7  2  1  0
  7  6  2  0
  8  6  1  0
  9  3  1  0
  9  5  1  0
  9  8  1  0
 10  4  1  0
 10  5  1  0
 10  9  1  0
 11  8  2  0
 12  7  1  0
 12 10  1  0
M  END
>  <NAME>  (3842) 
1,3,4,6-TETRAMETHYL-2-OXABICYCLO(4.1.0)HEPT-3-EN-5-ONE

>  <SYNONYMS>  (3842) 


>  <SPECTRUM TYPE>  (3842) 
MS1

>  <INSTRUMENT TYPE>  (3842) 
EI-B

>  <INSTRUMENT>  (3842) 
HITACHI RMS-6L

>  <ION MODE>  (3842) 
P

>  <INCHIKEY>  (3842) 
VCFJZOLLJFVYCM-UHFFFAOYSA-N

>  <FORMULA>  (3842) 
C10H14O2

>  <EXACT MASS>  (3842) 
166.099379688

>  <MW>  (3842) 
166

>  <ID>  (3842) 
JP005532

>  <CONTRIBUTOR>  (3842) 
University of Tokyo Team, {Faculty of Engineering, University of Tokyo

>  <COMMENT>  (3842) 
SMILES=CC(=C(C)2)OC(C)(C1)C(C)(C(=O)2)1
InChI=InChI=1S/C10H14O2/c1-6-7(2)12-10(4)5-9(10,3)8(6)11/h5H2,1-4H3
computed SMILES=O=C1C(=C(OC2(C)CC12C)C)C
accession=JP005532
date=2016.01.19 (Created 2008.10.21, modified 2011.05.06)
author=MASS SPECTROSCOPY SOC. OF JAPAN (MSSJ)
license=CC BY-NC-SA
exact mass=166.09938
ionization energy=70 eV
ion type=[M]+*
computed spectral entropy=3.3355389732075573
computed normalized entropy=0.7990487603444011
SPLASH=splash10-00mo-9200000000-b4a788e5a21d4fb5970f
submitter=submitter = University of Tokyo Team (Faculty of Engineering, University of Tokyo)
MoNA Rating=3.75

>  <NUM PEAKS>  (3842) 
65

>  <MASS SPECTRAL PEAKS>  (3842) 
27 3.4
28 24
29 77.1
30 5.1
38 2.9
39 35.4
40 8
41 48
42 5.1
43 99.99
44 2.9
50 2.9
51 5.7
52 3.4
53 15.4
54 48
55 9.7
56 1.7
57 5.7
63 1.7
65 2.9
66 1.7
67 16.6
68 2.9
69 54.3
70 4
71 1.1
77 3.4
78 1.1
79 3.4
80 1.7
81 2.9
82 2.3
83 3.4
84 1.7
85 9.7
91 1.7
93 1.7
95 5.7
97 4.6
99 9.7
105 1.7
107 1.7
108 1.7
109 17.1
110 1.7
111 1.7
112 2.9
113 1.7
121 1.1
122 1.1
123 25.7
124 15.4
125 4.6
126 20
127 1.7
137 5.7
138 1.1
149 1.1
151 23.4
152 2.9
165 1.7
166 34.3
167 6.9
168 1.1

>  <PREDICTED SPECTRUM>  (3842) 
14 24
15 114
16 3
26 106
27 311
28 175
29 205
30 61
31 33
32 26
36 1
37 108
38 206
39 626
40 312
41 704
42 341
43 999
44 201
45 107
47 14
49 21
50 224
51 401
52 302
53 502
54 260
55 388
56 197
57 218
58 72
59 59
61 23
62 102
63 252
64 124
65 410
66 250
67 578
68 250
69 864
70 155
71 53
74 20
75 24
77 346
78 144
79 331
80 228
81 414
82 347
83 337
84 211
85 231
86 12
89 52
91 335
92 67
93 287
94 121
95 449
96 237
97 337
98 222
99 134
105 219
106 97
107 396
108 320
109 620
110 314
111 275
112 130
113 15
119 53
121 206
122 202
123 895
124 529
125 272
126 229
127 30
136 89
137 267
138 176
139 85
148 70
149 37
151 665
152 199
165 69
166 898
167 305
168 101

$$$$

     RDKit          2D

 10 11  0  0  0  0  0  0  0  0999 V2000
    2.9689    1.5002    0.0000 C   0  0  0  0  0  0  0  0  0  0  0  0
   -1.6796    2.0493    0.0000 C   0  0  0  0  0  0  0  0  0  0  0  0
    1.6700   -0.7500    0.0000 C   0  0  0  0  0  0  0  0  0  0  0  0
   -2.2300    0.0000    0.0000 C   0  0  0  0  0  0  0  0  0  0  0  0
    1.6700    0.7500    0.0000 C   0  0  0  0  0  0  0  0  0  0  0  0
   -0.9300   -0.7500    0.0000 C   0  0  0  0  0  0  0  0  0  0  0  0
    0.3700   -1.5000    0.0000 C   0  0  0  0  0  0  0  0  0  0  0  0
   -0.9300    0.7500    0.0000 C   0  0  0  0  0  0  0  0  0  0  0  0
    0.3700   -3.0000    0.0000 O   0  0  0  0  0  0  0  0  0  0  0  0
    0.3700    1.5000    0.0000 O   0  0  0  0  0  0  0  0  0  0  0  0
  5  1  1  0
  5  3  2  0
  6  4  1  0
  7  3  1  0
  7  6  1  0
  8  2  1  0
  8  4  1  0
  8  6  1  0
  9  7  2  0
 10  5  1  0
 10  8  1  0
M  END
>  <NAME>  (3843) 
1,3-DIMETHYL-2-OXABICYCLO(4.1.0)HEPT-3-EN-5-ONE

>  <SYNONYMS>  (3843) 


>  <SPECTRUM TYPE>  (3843) 
MS1

>  <INSTRUMENT TYPE>  (3843) 
EI-B

>  <INSTRUMENT>  (3843) 
HITACHI RMS-6L

>  <ION MODE>  (3843) 
P

>  <INCHIKEY>  (3843) 
GZOUQKLFUKOBFC-UHFFFAOYSA-N

>  <FORMULA>  (3843) 
C8H10O2

>  <EXACT MASS>  (3843) 
138.06807956

>  <MW>  (3843) 
138

>  <ID>  (3843) 
JP005531

>  <CONTRIBUTOR>  (3843) 
University of Tokyo Team, {Faculty of Engineering, University of Tokyo

>  <COMMENT>  (3843) 
SMILES=CC(=C([H])2)OC(C)(C1)C(C(=O)2)1
InChI=InChI=1S/C8H10O2/c1-5-3-7(9)6-4-8(6,2)10-5/h3,6H,4H2,1-2H3
computed SMILES=O=C1C=C(OC2(C)CC12)C
accession=JP005531
date=2016.01.19 (Created 2008.10.21, modified 2011.05.06)
author=MASS SPECTROSCOPY SOC. OF JAPAN (MSSJ)
license=CC BY-NC-SA
exact mass=138.06808
ionization energy=70 eV
ion type=[M]+*
computed spectral entropy=2.7254142872755893
computed normalized entropy=0.738819015686765
SPLASH=splash10-004l-9000000000-15ed5139c6502addfc6b
submitter=submitter = University of Tokyo Team (Faculty of Engineering, University of Tokyo)
MoNA Rating=3.75

>  <NUM PEAKS>  (3843) 
40

>  <MASS SPECTRAL PEAKS>  (3843) 
26 2
27 13
28 99.99
29 2
31 1.5
32 5
37 1
38 2
39 16.5
40 24.5
41 6
42 2
43 41
44 1.5
45 2
50 1.5
51 2
52 1
53 4.5
54 3.5
55 17
56 1
61 1
65 1
67 4.5
68 20
69 3.5
71 4
85 11.5
95 7.5
96 15
97 1
99 0.5
109 2
110 1
112 0.5
123 1.5
138 11.5
139 2
140 0.2

>  <PREDICTED SPECTRUM>  (3843) 
14 41
15 76
16 3
18 6
25 28
26 146
27 305
28 227
29 143
37 148
38 251
39 579
40 362
41 626
42 344
43 999
44 326
49 17
50 219
51 268
52 246
53 262
54 286
55 211
61 4
62 56
63 98
64 30
65 153
66 204
67 457
68 650
69 458
70 127
71 199
79 1
81 59
82 7
93 40
94 79
95 135
96 406
97 231
109 113
110 208
111 43
123 140
138 339
139 97

$$$$

     RDKit          2D

 14 17  0  0  0  0  0  0  0  0999 V2000
   -4.8526   -0.0310    0.0000 C   0  0  0  0  0  0  0  0  0  0  0  0
   -2.2546   -0.0310    0.0000 C   0  0  0  0  0  0  0  0  0  0  0  0
   -3.9710    1.1825    0.0000 C   0  0  0  0  0  0  0  0  0  0  0  0
   -3.9710   -1.2445    0.0000 C   0  0  0  0  0  0  0  0  0  0  0  0
   -1.3729    1.1825    0.0000 C   0  0  0  0  0  0  0  0  0  0  0  0
   -1.3729   -1.2445    0.0000 C   0  0  0  0  0  0  0  0  0  0  0  0
    1.3527   -0.0310    0.0000 C   0  0  0  0  0  0  0  0  0  0  0  0
   -2.5444    0.7190    0.0000 C   0  0  0  0  0  0  0  0  0  0  0  0
   -2.5444   -0.7810    0.0000 C   0  0  0  0  0  0  0  0  0  0  0  0
   -1.2453    1.4690    0.0000 C   0  0  0  0  0  0  0  0  0  0  0  0
    0.0537    0.7190    0.0000 C   0  0  0  0  0  0  0  0  0  0  0  0
    0.0537   -0.7810    0.0000 C   0  0  0  0  0  0  0  0  0  0  0  0
   -1.2453    2.9690    0.0000 O   0  0  0  0  0  0  0  0  0  0  0  0
   -1.2453   -1.5310    0.0000 O   0  0  0  0  0  0  0  0  0  0  0  0
  3  1  1  0
  4  1  1  0
  5  2  1  0
  6  2  1  0
  8  3  1  0
  9  4  1  0
  9  8  2  0
 10  8  1  0
 11  5  1  0
 11  7  1  0
 11 10  1  0
 12  6  1  0
 12  7  1  0
 12 11  1  0
 13 10  2  0
 14  9  1  0
 14 12  1  0
M  END
>  <NAME>  (3844) 
3,4-TRIMETHYLENE-2-OXATRICYCLO(4.3.1.0(1,6))DEC-3-EN-5-ONE

>  <SYNONYMS>  (3844) 


>  <SPECTRUM TYPE>  (3844) 
MS1

>  <INSTRUMENT TYPE>  (3844) 
EI-B

>  <INSTRUMENT>  (3844) 
HITACHI RMS-4

>  <ION MODE>  (3844) 
P

>  <INCHIKEY>  (3844) 
APMUNNMORCOGEY-UHFFFAOYSA-N

>  <FORMULA>  (3844) 
C12H14O2

>  <EXACT MASS>  (3844) 
190.099379688

>  <MW>  (3844) 
190

>  <ID>  (3844) 
JP005530

>  <CONTRIBUTOR>  (3844) 
University of Tokyo Team, {Faculty of Engineering, University of Tokyo

>  <COMMENT>  (3844) 
SMILES=C(C4)CC(=C42)C(=O)C(C3)(C1)C(CC3)(O2)1
InChI=InChI=1S/C12H14O2/c13-10-8-3-1-4-9(8)14-12-6-2-5-11(10,12)7-12/h1-7H2
computed SMILES=O=C1C2=C(OC34CCCC14C3)CCC2
accession=JP005530
date=2016.01.19 (Created 2008.10.21, modified 2011.05.06)
author=MASS SPECTROSCOPY SOC. OF JAPAN (MSSJ)
license=CC BY-NC-SA
exact mass=190.09938
ionization energy=70 eV
ion type=[M]+*
computed spectral entropy=3.958496940863014
computed normalized entropy=0.8633642352487949
SPLASH=splash10-0f76-9400000000-2557cd77fb04e49a5ffe
submitter=submitter = University of Tokyo Team (Faculty of Engineering, University of Tokyo)
MoNA Rating=3.75

>  <NUM PEAKS>  (3844) 
98

>  <MASS SPECTRAL PEAKS>  (3844) 
26 10
27 37
28 17.5
29 18.5
31 6
38 6.5
39 88.5
40 20.5
41 35.5
42 6
43 8.5
45 2
50 8
51 28
52 36
53 91.5
54 12
55 32.5
56 4
57 6
62 2
63 6.5
64 3
65 16.5
66 25.5
67 12
68 3
69 3
70 2
71 2
77 24.5
78 12
79 34
80 33
81 22.5
82 7
83 4
84 1.5
89 2
91 33.5
92 8.5
93 7
94 7
95 7
96 3
97 3
103 3
104 1.5
105 9.5
106 8.5
107 5
108 5
109 14
110 5
111 21
112 2
115 4
116 5
117 5.5
118 2
119 6.5
120 3
121 3
122 2.5
128 4.5
129 7.5
130 5
131 3
133 15.5
134 28
135 13.5
136 2
141 1.5
142 3
143 6
144 5
145 5
146 2.5
147 16.5
148 5.5
149 6
159 1.5
160 1.5
161 10.5
162 5.5
163 1
170 3
172 2
173 6.5
174 2
175 13.5
176 2.5
187 2
188 1.5
189 6
190 99.99
191 14
192 2

>  <PREDICTED SPECTRUM>  (3844) 
14 5
15 0
25 14
26 133
27 429
28 176
29 300
30 16
31 27
37 69
38 179
39 623
40 297
41 533
42 250
43 294
44 91
45 109
46 4
49 22
50 242
51 434
52 376
53 559
54 345
55 511
56 115
57 103
58 46
62 102
63 254
64 168
65 403
66 342
67 499
68 304
69 237
70 32
71 42
73 13
74 29
75 64
76 64
77 526
78 331
79 685
80 489
81 614
82 233
83 146
84 50
85 44
86 10
87 31
89 129
90 83
91 490
92 318
93 311
94 254
95 265
96 198
97 204
98 103
99 79
101 65
102 23
103 137
104 111
105 287
106 296
107 196
108 300
109 326
110 238
111 236
112 71
113 73
115 199
116 238
117 279
118 211
119 419
120 321
121 178
122 188
123 90
124 103
125 1
126 2
128 64
129 227
130 188
131 300
132 158
133 493
134 537
135 385
136 174
137 15
141 41
143 224
144 184
145 211
146 191
147 418
148 273
149 141
150 19
156 2
157 53
159 77
160 84
161 451
162 366
163 132
171 73
172 223
173 191
174 45
175 340
176 88
187 42
188 44
189 227
190 999
191 372
192 105
193 4

$$$$

     RDKit          2D

 13 15  0  0  0  0  0  0  0  0999 V2000
    3.6100    0.0000    0.0000 C   0  0  0  0  0  0  0  0  0  0  0  0
   -3.6100    0.0000    0.0000 C   0  0  0  0  0  0  0  0  0  0  0  0
    2.7300   -1.2100    0.0000 C   0  0  0  0  0  0  0  0  0  0  0  0
   -2.7300   -1.2100    0.0000 C   0  0  0  0  0  0  0  0  0  0  0  0
    2.7300    1.2100    0.0000 C   0  0  0  0  0  0  0  0  0  0  0  0
   -2.7300    1.2100    0.0000 C   0  0  0  0  0  0  0  0  0  0  0  0
    1.3000   -0.7500    0.0000 C   0  0  0  0  0  0  0  0  0  0  0  0
   -1.3000   -0.7500    0.0000 C   0  0  0  0  0  0  0  0  0  0  0  0
    1.3000    0.7500    0.0000 C   0  0  0  0  0  0  0  0  0  0  0  0
   -1.3000    0.7500    0.0000 C   0  0  0  0  0  0  0  0  0  0  0  0
    0.0000   -1.5000    0.0000 C   0  0  0  0  0  0  0  0  0  0  0  0
   -0.0000   -3.0000    0.0000 O   0  0  0  0  0  0  0  0  0  0  0  0
    0.0000    1.5000    0.0000 O   0  0  0  0  0  0  0  0  0  0  0  0
  3  1  1  0
  4  2  1  0
  5  1  1  0
  6  2  1  0
  7  3  1  0
  8  4  1  0
  9  5  1  0
  9  7  2  0
 10  6  1  0
 10  8  2  0
 11  7  1  0
 11  8  1  0
 12 11  2  0
 13  9  1  0
 13 10  1  0
M  END
>  <NAME>  (3845) 
2,3:5,6-BIS(TRIMETHYLENE)PYRAN-4-ONE

>  <SYNONYMS>  (3845) 


>  <SPECTRUM TYPE>  (3845) 
MS1

>  <INSTRUMENT TYPE>  (3845) 
EI-B

>  <INSTRUMENT>  (3845) 
HITACHI RMS-4

>  <ION MODE>  (3845) 
P

>  <INCHIKEY>  (3845) 
SYXQGSUZSKBHAC-UHFFFAOYSA-N

>  <FORMULA>  (3845) 
C11H12O2

>  <EXACT MASS>  (3845) 
176.083729624

>  <MW>  (3845) 
176

>  <ID>  (3845) 
JP005529

>  <CONTRIBUTOR>  (3845) 
University of Tokyo Team, {Faculty of Engineering, University of Tokyo

>  <COMMENT>  (3845) 
SMILES=O=C(C2=1)C(C3)=C(CC3)OC(CCC2)1
InChI=InChI=1S/C11H12O2/c12-11-7-3-1-5-9(7)13-10-6-2-4-8(10)11/h1-6H2
computed SMILES=O=C1C2=C(OC3=C1CCC3)CCC2
accession=JP005529
date=2016.01.19 (Created 2008.10.21, modified 2011.05.06)
author=MASS SPECTROSCOPY SOC. OF JAPAN (MSSJ)
license=CC BY-NC-SA
exact mass=176.08373
ionization energy=70 eV
ion type=[M]+*
computed spectral entropy=3.3027531975672417
computed normalized entropy=0.7854921861198104
SPLASH=splash10-004i-9700000000-3740ad9283f0f4f92ed8
submitter=submitter = University of Tokyo Team (Faculty of Engineering, University of Tokyo)
MoNA Rating=3.75

>  <NUM PEAKS>  (3845) 
67

>  <MASS SPECTRAL PEAKS>  (3845) 
26 3.5
27 12
28 5
29 4
38 3.5
39 26
40 11
41 10
42 2.5
43 3.5
50 2.5
51 67.5
52 5
53 9.5
54 5
55 12
60 2
62 2
63 6
64 4
65 23
66 22.5
67 4
68 1.5
69 1.5
74 1.5
75 1.5
76 1.5
77 4.5
78 2
79 4
80 1.5
81 3.5
82 3.5
83 1.5
88 1.5
89 2
91 9.5
92 4.5
93 2
94 2
103 2
104 1.5
105 6
106 1.5
107 1.5
108 1.5
109 5
110 2
111 18
112 2
115 3.5
116 2
117 1.5
119 1.5
120 2
121 1.5
129 2.5
130 1.5
147 3.5
148 2
161 2
174 3.5
175 99.99
176 57.5
177 20
178 3.5

>  <PREDICTED SPECTRUM>  (3845) 
14 19
15 39
16 10
17 11
18 24
25 0
26 49
27 158
28 101
29 127
30 65
32 18
33 41
34 30
35 8
36 61
37 88
38 151
39 452
40 231
41 429
42 221
43 290
44 163
45 125
46 48
47 4
48 23
49 68
50 248
51 370
52 297
53 341
54 241
55 275
56 61
57 122
58 32
59 33
60 70
61 34
62 135
63 263
64 184
65 336
66 211
67 229
68 129
69 142
70 33
71 41
72 10
73 53
74 93
75 90
76 137
77 341
78 221
79 349
80 171
81 184
82 88
83 80
84 89
85 55
86 48
87 37
88 6
89 112
90 101
91 300
92 191
93 169
94 100
95 128
96 99
97 22
98 26
99 30
101 89
102 95
103 145
104 92
105 181
106 73
107 69
108 100
109 113
110 85
111 115
112 44
113 53
114 14
115 124
116 135
117 149
118 86
119 206
120 141
121 145
122 30
127 35
128 58
129 119
130 89
131 152
132 62
133 61
134 64
135 71
136 78
137 7
142 33
143 26
144 14
145 39
146 70
147 202
148 157
149 63
150 7
159 31
160 83
161 189
162 37
172 21
173 137
174 155
175 999
176 837
177 314
178 111
179 8

$$$$

     RDKit          2D

 10 11  0  0  0  0  0  0  0  0999 V2000
    2.6000    0.0000    0.0000 C   0  0  0  0  0  0  0  0  0  0  0  0
    1.7200   -1.2100    0.0000 C   0  0  0  0  0  0  0  0  0  0  0  0
    1.7200    1.2100    0.0000 C   0  0  0  0  0  0  0  0  0  0  0  0
   -2.3100   -0.7500    0.0000 C   0  0  0  0  0  0  0  0  0  0  0  0
   -2.3100    0.7500    0.0000 C   0  0  0  0  0  0  0  0  0  0  0  0
    0.2900   -0.7500    0.0000 C   0  0  0  0  0  0  0  0  0  0  0  0
   -1.0100   -1.5000    0.0000 C   0  0  0  0  0  0  0  0  0  0  0  0
    0.2900    0.7500    0.0000 C   0  0  0  0  0  0  0  0  0  0  0  0
   -1.0100   -3.0000    0.0000 O   0  0  0  0  0  0  0  0  0  0  0  0
   -1.0100    1.5000    0.0000 O   0  0  0  0  0  0  0  0  0  0  0  0
  2  1  1  0
  3  1  1  0
  5  4  2  0
  6  2  1  0
  7  4  1  0
  7  6  1  0
  8  3  1  0
  8  6  2  0
  9  7  2  0
 10  5  1  0
 10  8  1  0
M  END
>  <NAME>  (3846) 
2,3-TRIMETHYLENE-4-PYRONE

>  <SYNONYMS>  (3846) 
2,3-TRIMETHYLENE-GAMMA-PYRONE

>  <SPECTRUM TYPE>  (3846) 
MS1

>  <INSTRUMENT TYPE>  (3846) 
EI-B

>  <INSTRUMENT>  (3846) 
HITACHI RMS-4

>  <ION MODE>  (3846) 
P

>  <INCHIKEY>  (3846) 
HZEXINHQHZFXBU-UHFFFAOYSA-N

>  <FORMULA>  (3846) 
C8H8O2

>  <EXACT MASS>  (3846) 
136.052429496

>  <MW>  (3846) 
136

>  <ID>  (3846) 
JP005528

>  <CONTRIBUTOR>  (3846) 
University of Tokyo Team, {Faculty of Engineering, University of Tokyo

>  <COMMENT>  (3846) 
SMILES=O=C(C=1)C(C2)=C(CC2)OC1
InChI=InChI=1S/C8H8O2/c9-7-4-5-10-8-3-1-2-6(7)8/h4-5H,1-3H2
computed SMILES=O=C1C=COC2=C1CCC2
accession=JP005528
date=2016.01.19 (Created 2008.10.21, modified 2011.05.06)
author=MASS SPECTROSCOPY SOC. OF JAPAN (MSSJ)
license=CC BY-NC-SA
exact mass=136.05243
ionization energy=70 eV
ion type=[M]+*
computed spectral entropy=3.691635093408127
computed normalized entropy=0.8604288524447671
SPLASH=splash10-000i-9300000000-80997dc861c1e2113788
submitter=submitter = University of Tokyo Team (Faculty of Engineering, University of Tokyo)
MoNA Rating=3.75

>  <NUM PEAKS>  (3846) 
73

>  <MASS SPECTRAL PEAKS>  (3846) 
26 23
27 31
28 13.5
29 5
30 4.5
32 4.5
37 4.5
38 12
39 55
40 19
41 14
42 10
43 8
44 2
45 3
49 3
50 15
51 26
52 21
53 27.5
54 36.5
55 41
56 4.5
57 2
58 2
60 2
61 3.5
62 7.5
63 15
64 6
65 25
66 35.5
67 9
68 7.5
69 10.5
70 3
71 15
72 2
73 2
74 3
75 3
76 4
77 15
78 6
79 29
80 10.5
81 12
82 44.5
83 13.5
84 3
89 3
90 3
91 3
92 2
93 3
94 3
95 3
105 2
106 2
107 15.5
108 13.5
109 9
110 9
111 2
118 2
119 2
120 2
121 5
134 4
135 99.99
136 98.5
137 27
138 4

>  <PREDICTED SPECTRUM>  (3846) 
14 30
15 74
16 0
18 15
25 34
26 177
27 371
28 178
29 241
30 80
31 26
32 0
33 25
34 28
35 13
36 98
37 207
38 332
39 753
40 389
41 454
42 465
43 412
44 301
45 235
46 74
47 73
48 40
49 186
50 430
51 641
52 515
53 603
54 459
55 627
56 211
57 226
58 84
59 4
60 69
61 178
62 280
63 429
64 311
65 472
66 398
67 426
68 424
69 262
70 172
71 157
72 24
73 103
74 191
75 226
76 234
77 457
78 314
79 519
80 489
81 515
82 419
83 278
84 171
87 7
89 184
90 152
91 285
92 210
93 334
94 217
95 360
96 113
97 129
98 4
102 8
103 102
104 0
105 164
106 139
107 583
108 416
109 300
110 86
117 74
118 58
119 130
120 60
121 240
122 95
133 73
134 85
135 912
136 999
137 356
138 136

$$$$

     RDKit          2D

  9 10  0  0  0  0  0  0  0  0999 V2000
   -2.3100    0.7500    0.0000 C   0  0  0  0  0  0  0  0  0  0  0  0
   -2.3100   -0.7500    0.0000 C   0  0  0  0  0  0  0  0  0  0  0  0
   -1.0100    1.5000    0.0000 C   0  0  0  0  0  0  0  0  0  0  0  0
   -1.0100   -1.5000    0.0000 C   0  0  0  0  0  0  0  0  0  0  0  0
    1.7200    1.2100    0.0000 C   0  0  0  0  0  0  0  0  0  0  0  0
    2.6000    0.0000    0.0000 C   0  0  0  0  0  0  0  0  0  0  0  0
    0.2900    0.7500    0.0000 C   0  0  0  0  0  0  0  0  0  0  0  0
    0.2900   -0.7500    0.0000 C   0  0  0  0  0  0  0  0  0  0  0  0
    1.7200   -1.2100    0.0000 O   0  0  0  0  0  0  0  0  0  0  0  0
  2  1  2  0
  3  1  1  0
  4  2  1  0
  6  5  1  0
  7  3  2  0
  7  5  1  0
  8  4  2  0
  8  7  1  0
  9  6  1  0
  9  8  1  0
M  END
>  <NAME>  (3847) 
DIHYDROBENZOFURAN

>  <SYNONYMS>  (3847) 


>  <SPECTRUM TYPE>  (3847) 
MS1

>  <INSTRUMENT TYPE>  (3847) 
EI-B

>  <INSTRUMENT>  (3847) 
HITACHI RMU-7M

>  <ION MODE>  (3847) 
P

>  <INCHIKEY>  (3847) 
HBEDSQVIWPRPAY-UHFFFAOYSA-N

>  <FORMULA>  (3847) 
C8H8O

>  <EXACT MASS>  (3847) 
120.057514876

>  <MW>  (3847) 
120

>  <ID>  (3847) 
JP005431

>  <CONTRIBUTOR>  (3847) 
University of Tokyo Team, {Faculty of Engineering, University of Tokyo

>  <COMMENT>  (3847) 
SMILES=c(c2)cc(C1)c(c2)OC1
InChI=InChI=1S/C8H8O/c1-2-4-8-7(3-1)5-6-9-8/h1-4H,5-6H2
computed SMILES=O1C=2C=CC=CC2CC1
accession=JP005431
date=2016.01.19 (Created 2008.10.21, modified 2011.05.06)
author=TAJIMA S, GUNMA COLLEGE OF TECHNOLOGY
license=CC BY-NC-SA
exact mass=120.05751
ionization energy=70 eV
ion type=[M]+*
computed spectral entropy=2.2678572256474316
computed normalized entropy=0.6880975357244677
SPLASH=splash10-00dl-9800000000-3ba67e4900f8c1b81fb5
submitter=submitter = University of Tokyo Team (Faculty of Engineering, University of Tokyo)
MoNA Rating=3.75

>  <NUM PEAKS>  (3847) 
27

>  <MASS SPECTRAL PEAKS>  (3847) 
27 2.07
31 3.19
38 2.23
39 7.26
40 1.12
45 4.39
46 2.39
50 2.23
51 4.39
52 1.2
60 1.75
62 2.39
63 6.62
64 2.23
65 7.5
66 1.52
77 1.99
89 9.41
90 5.58
91 65.39
92 14.35
93 1
105 1.2
118 2.79
119 26.71
120 99.99
121 9.25

>  <PREDICTED SPECTRUM>  (3847) 
14 4
15 0
25 16
26 101
27 127
28 68
37 165
38 260
39 464
40 134
41 184
42 36
43 65
44 46
49 82
50 390
51 528
52 279
53 93
57 24
61 140
62 219
63 405
64 354
65 365
66 183
73 112
74 126
75 144
76 196
77 478
78 551
79 150
89 136
90 286
91 575
92 463
93 161
94 45
102 1
105 124
118 147
119 758
120 999
121 272
122 58

$$$$

     RDKit          2D

 12 11  0  0  0  0  0  0  0  0999 V2000
   -5.5920    5.0214    0.0000 C   0  0  0  0  0  0  0  0  0  0  0  0
   -0.2796    0.5638    0.0000 C   0  0  0  0  0  0  0  0  0  0  0  0
   -2.6591    3.1224    0.0000 C   0  0  0  0  0  0  0  0  0  0  0  0
   -4.2930    4.2714    0.0000 C   0  0  0  0  0  0  0  0  0  0  0  0
   -1.2437    1.7128    0.0000 C   0  0  0  0  0  0  0  0  0  0  0  0
    0.9032    4.2714    0.0000 C   0  0  0  0  0  0  0  0  0  0  0  0
    2.2022    5.0214    0.0000 C   0  0  0  0  0  0  0  0  0  0  0  0
   -0.3959    5.0214    0.0000 C   0  0  0  0  0  0  0  0  0  0  0  0
    3.5013    4.2714    0.0000 N   0  0  0  0  0  0  0  0  0  0  0  0
   -2.9939    5.0214    0.0000 O   0  0  0  0  0  0  0  0  0  0  0  0
   -0.7307    3.1224    0.0000 O   0  0  0  0  0  0  0  0  0  0  0  0
   -1.6949    4.2714    0.0000 Si  0  0  0  0  0  4  0  0  0  0  0  0
  4  1  1  0
  5  2  1  0
  7  6  1  0
  8  6  1  0
  9  7  1  0
 10  4  1  0
 11  5  1  0
 12  3  1  0
 12  8  1  0
 12 10  1  0
 12 11  1  0
M  END
>  <NAME>  (3848) 
3-AMINOPROPYLMETHYLDIETHOXYSILANE

>  <SYNONYMS>  (3848) 


>  <SPECTRUM TYPE>  (3848) 
MS1

>  <INSTRUMENT TYPE>  (3848) 
EI-B

>  <INSTRUMENT>  (3848) 
HITACHI RMU-7M

>  <ION MODE>  (3848) 
P

>  <INCHIKEY>  (3848) 
HXLAEGYMDGUSBD-UHFFFAOYSA-N

>  <FORMULA>  (3848) 
C8H21NO2Si

>  <EXACT MASS>  (3848) 
191.134155442

>  <MW>  (3848) 
191

>  <ID>  (3848) 
JP005428

>  <CONTRIBUTOR>  (3848) 
University of Tokyo Team, {Faculty of Engineering, University of Tokyo

>  <COMMENT>  (3848) 
SMILES=NCCC[Si](C)(OCC)OCC
InChI=InChI=1S/C8H21NO2Si/c1-4-10-12(3,11-5-2)8-6-7-9/h4-9H2,1-3H3
computed SMILES=O(CC)[Si](OCC)(C)CCCN
accession=JP005428
date=2016.01.19 (Created 2008.10.21, modified 2011.05.06)
author=TAJIMA S, GUNMA COLLEGE OF TECHNOLOGY
license=CC BY-NC-SA
exact mass=191.13416
ionization energy=70 eV
ion type=[M]+*
computed spectral entropy=3.5640658444811195
computed normalized entropy=0.8389007498951347
SPLASH=splash10-001i-5900000000-9f946c697f0651b8ddd8
submitter=submitter = University of Tokyo Team (Faculty of Engineering, University of Tokyo)
MoNA Rating=3.75

>  <NUM PEAKS>  (3848) 
70

>  <MASS SPECTRAL PEAKS>  (3848) 
15 1.09
27 2.84
28 5.03
29 3.06
30 53.39
31 6.45
41 1.2
43 3.22
44 6.17
45 14.15
46 1.69
47 1.09
56 2.9
57 2.24
58 2.68
59 2.57
60 4.26
61 13.39
62 3.28
63 2.3
71 1.37
72 1.37
73 11.04
74 2.46
75 2.84
76 8.96
77 33.88
78 7.1
79 1.64
86 1.69
87 2.84
88 12.08
89 28.25
90 7.16
91 2.84
98 4.7
99 1.64
100 14.97
101 4.32
102 7.98
103 3.39
104 33.88
105 31.15
106 7.65
107 1.58
115 1.09
116 15.52
117 12.02
118 10
119 3.83
120 3.14
130 14.1
131 2.73
132 1.58
133 99.99
134 36.61
135 7.1
136 1.42
144 4.43
145 32.9
146 15.74
147 3.66
148 5.57
149 7.32
150 2.57
159 1.64
162 12.73
163 2.51
176 6.56
192 1.53

>  <PREDICTED SPECTRUM>  (3848) 
14 11
15 118
16 31
17 64
18 113
19 27
26 114
27 316
28 260
29 496
30 902
31 214
32 28
38 20
39 20
40 9
41 134
42 238
43 346
44 388
45 603
46 205
47 287
48 25
49 16
50 143
51 265
52 108
53 135
54 100
55 139
56 258
57 180
58 605
59 415
60 241
61 313
62 243
63 332
64 140
65 167
66 24
68 49
71 51
72 361
73 452
74 403
75 525
76 336
77 600
78 282
79 402
83 80
85 98
86 164
87 303
88 413
89 527
90 301
91 453
92 164
97 34
99 231
100 419
101 405
102 522
103 558
104 711
105 852
106 83
107 88
113 103
115 238
116 411
117 503
118 201
119 153
128 17
129 292
130 517
131 404
132 298
133 999
134 615
135 328
139 37
144 396
145 333
146 384
147 137
148 210
149 13
161 112
162 217
174 46
176 115
190 57

$$$$

     RDKit          2D

 14 14  0  0  0  0  0  0  0  0999 V2000
    0.3774   -1.8726    0.0000 C   0  0  0  0  0  0  0  0  0  0  0  0
    5.5736    3.3236    0.0000 C   0  0  0  0  0  0  0  0  0  0  0  0
   -0.3726   -0.5736    0.0000 C   0  0  0  0  0  0  0  0  0  0  0  0
    4.2745    2.5736    0.0000 C   0  0  0  0  0  0  0  0  0  0  0  0
   -0.1716    5.3726    0.0000 C   0  0  0  0  0  0  0  0  0  0  0  0
    1.1274    4.6226    0.0000 C   0  0  0  0  0  0  0  0  0  0  0  0
   -0.9216    4.0736    0.0000 C   0  0  0  0  0  0  0  0  0  0  0  0
   -0.3726    2.0245    0.0000 C   0  0  0  0  0  0  0  0  0  0  0  0
    1.6764    2.5736    0.0000 C   0  0  0  0  0  0  0  0  0  0  0  0
    0.3774    3.3236    0.0000 C   0  0  0  0  0  0  0  0  0  0  0  0
   -1.8726    2.0245    0.0000 O   0  0  0  0  0  0  0  0  0  0  0  0
    1.6764    1.0736    0.0000 O   0  0  0  0  0  0  0  0  0  0  0  0
    0.3774    0.7255    0.0000 O   0  0  0  0  0  0  0  0  0  0  0  0
    2.9755    3.3236    0.0000 O   0  0  0  0  0  0  0  0  0  0  0  0
  3  1  1  0
  4  2  1  0
  6  5  1  0
  7  5  1  0
 10  6  1  0
 10  7  1  0
 10  8  1  0
 10  9  1  0
 11  8  2  0
 12  9  2  0
 13  3  1  0
 13  8  1  0
 14  4  1  0
 14  9  1  0
M  END
>  <NAME>  (3849) 
1,1-CYCLOBUTANEDICARBOXYLIC ACID DIETHYL ESTER

>  <SYNONYMS>  (3849) 


>  <SPECTRUM TYPE>  (3849) 
MS1

>  <INSTRUMENT TYPE>  (3849) 
EI-B

>  <INSTRUMENT>  (3849) 
HITACHI RMU-7M

>  <ION MODE>  (3849) 
P

>  <INCHIKEY>  (3849) 
JPNJEJSZSMXWSV-UHFFFAOYSA-N

>  <FORMULA>  (3849) 
C10H16O4

>  <EXACT MASS>  (3849) 
200.104858992

>  <MW>  (3849) 
200

>  <ID>  (3849) 
JP005427

>  <CONTRIBUTOR>  (3849) 
University of Tokyo Team, {Faculty of Engineering, University of Tokyo

>  <COMMENT>  (3849) 
SMILES=CCOC(=O)C(C1)(CC1)C(=O)OCC
InChI=InChI=1S/C10H16O4/c1-3-13-8(11)10(6-5-7-10)9(12)14-4-2/h3-7H2,1-2H3
computed SMILES=O=C(OCC)C1(C(=O)OCC)CCC1
accession=JP005427
date=2016.01.19 (Created 2008.10.21, modified 2011.05.06)
author=TAJIMA S, GUNMA COLLEGE OF TECHNOLOGY
license=CC BY-NC-SA
exact mass=200.10486
ionization energy=70 eV
ion type=[M]+*
computed spectral entropy=3.378439999819314
computed normalized entropy=0.8251479445554413
SPLASH=splash10-056s-9500000000-bef643d516455638c737
submitter=submitter = University of Tokyo Team (Faculty of Engineering, University of Tokyo)
MoNA Rating=3.75

>  <NUM PEAKS>  (3849) 
60

>  <MASS SPECTRAL PEAKS>  (3849) 
15 1.52
26 4.18
27 26.43
28 12.36
29 79.97
30 1.9
31 2.98
32 1.58
39 8.24
40 1.39
41 7.54
42 2.47
43 12.04
44 1.01
45 10.52
51 1.2
52 1.27
53 21.55
54 20.79
55 27.95
56 5.7
57 2.6
58 1.65
59 1.08
69 3.8
70 1.96
71 4.37
72 4.69
73 3.61
80 4.06
81 28.71
82 28.71
83 19.14
84 1.9
85 6.53
97 1.71
98 9.76
99 99.99
100 30.54
101 2.72
108 54.94
109 5.83
110 5.83
111 4.31
113 10.39
125 2.03
126 19.33
127 35.74
128 14.58
129 1.39
143 1.65
144 1.27
145 1.77
154 24.4
155 52.47
156 4.75
171 2.28
173 6.02
200 4.56
201 4.75

>  <PREDICTED SPECTRUM>  (3849) 
25 22
26 215
27 654
28 240
29 651
30 61
31 217
38 51
39 455
40 215
41 629
42 239
43 332
44 129
45 193
47 33
50 1
51 157
52 273
53 741
54 384
55 523
56 44
57 121
65 77
66 66
67 434
68 49
69 244
70 281
71 613
72 153
73 189
80 429
81 842
82 317
83 169
86 132
87 26
88 31
97 454
98 640
99 843
100 322
108 232
109 152
112 31
113 39
116 104
117 129
125 179
126 754
127 999
128 270
129 44
144 58
145 56
154 289
155 403
156 69
171 33
172 198
173 133
200 101
201 39

$$$$

     RDKit          2D

  5  4  0  0  0  0  0  0  0  0999 V2000
    0.0000    0.0000    0.0000 C   0  0  0  0  0  0  0  0  0  0  0  0
   -1.2990    2.2500    0.0000 C   0  0  0  0  0  0  0  0  0  0  0  0
    0.0000    1.5000    0.0000 C   0  0  0  0  0  0  0  0  0  0  0  0
   -1.2990    3.7500    0.0000 N   0  0  0  0  0  0  0  0  0  0  0  0
    1.2990    2.2500    0.0000 O   0  0  0  0  0  0  0  0  0  0  0  0
  3  1  1  0
  3  2  1  0
  4  2  1  0
  5  3  1  0
M  END
>  <NAME>  (3850) 
1-AMINO-2-PROPANOL

>  <SYNONYMS>  (3850) 
2-HYDROXYPROPYLAMINE

>  <SPECTRUM TYPE>  (3850) 
MS1

>  <INSTRUMENT TYPE>  (3850) 
EI-B

>  <INSTRUMENT>  (3850) 
HITACHI RMU-7M

>  <ION MODE>  (3850) 
P

>  <INCHIKEY>  (3850) 
HXKKHQJGJAFBHI-UHFFFAOYSA-N

>  <FORMULA>  (3850) 
C3H9NO

>  <EXACT MASS>  (3850) 
75.068413908

>  <MW>  (3850) 
75

>  <ID>  (3850) 
JP005425

>  <CONTRIBUTOR>  (3850) 
University of Tokyo Team, {Faculty of Engineering, University of Tokyo

>  <COMMENT>  (3850) 
SMILES=NCC(C)O
InChI=InChI=1S/C3H9NO/c1-3(5)2-4/h3,5H,2,4H2,1H3
computed SMILES=OC(C)CN
accession=JP005425
date=2016.01.19 (Created 2008.10.21, modified 2011.05.06)
author=TAJIMA S, GUNMA COLLEGE OF TECHNOLOGY
license=CC BY-NC-SA
exact mass=75.06841
ionization energy=70 eV
ion type=[M]+*
computed spectral entropy=1.8319803911881107
computed normalized entropy=0.6338217172871795
SPLASH=splash10-001i-9000000000-c01f38e3017c6be78f5e
submitter=submitter = University of Tokyo Team (Faculty of Engineering, University of Tokyo)
MoNA Rating=3.75

>  <NUM PEAKS>  (3850) 
18

>  <MASS SPECTRAL PEAKS>  (3850) 
15 2.36
18 3.14
19 1.42
27 3.54
28 6.13
29 3.14
30 99.99
31 20.91
32 6.84
41 2.28
42 4.95
43 2.99
44 6.76
45 11.79
46 1.89
56 1.97
60 3.22
75 1

>  <PREDICTED SPECTRUM>  (3850) 
14 53
15 135
16 43
17 78
18 140
19 6
25 11
26 110
27 234
28 307
29 307
30 999
31 262
32 55
33 10
37 16
38 78
39 178
40 110
41 153
42 273
43 201
45 381
46 167
52 15
54 56
55 19
56 189
57 121
58 131
59 42
60 55
75 45
76 64

$$$$

     RDKit          2D

  8  8  0  0  0  0  0  0  0  0999 V2000
   -0.6520   -2.2491    0.0000 C   0  0  0  0  0  0  0  0  0  0  0  0
   -1.9467    1.4939    0.0000 C   0  0  0  0  0  0  0  0  0  0  0  0
   -1.9512    0.0017    0.0000 C   0  0  0  0  0  0  0  0  0  0  0  0
   -0.6477    2.2439    0.0000 C   0  0  0  0  0  0  0  0  0  0  0  0
    0.6473    0.0009    0.0000 C   0  0  0  0  0  0  0  0  0  0  0  0
   -0.6517   -0.7491    0.0000 C   0  0  0  0  0  0  0  0  0  0  0  0
    0.6468    1.5017    0.0000 C   0  0  0  0  0  0  0  0  0  0  0  0
    1.9446    2.2539    0.0000 O   0  0  0  0  0  0  0  0  0  0  0  0
  3  2  2  0
  4  2  1  0
  6  1  1  0
  6  3  1  0
  6  5  2  0
  7  4  2  0
  7  5  1  0
  8  7  1  0
M  END
>  <NAME>  (3851) 
M-CRESOL

>  <SYNONYMS>  (3851) 
3-METHYLPHENOL

>  <SPECTRUM TYPE>  (3851) 
MS1

>  <INSTRUMENT TYPE>  (3851) 
EI-B

>  <INSTRUMENT>  (3851) 
HITACHI RMU-7M

>  <ION MODE>  (3851) 
P

>  <INCHIKEY>  (3851) 
RLSSMJSEOOYNOY-UHFFFAOYSA-N

>  <FORMULA>  (3851) 
C7H8O

>  <EXACT MASS>  (3851) 
108.057514876

>  <MW>  (3851) 
108

>  <ID>  (3851) 
JP005421

>  <CONTRIBUTOR>  (3851) 
University of Tokyo Team, {Faculty of Engineering, University of Tokyo

>  <COMMENT>  (3851) 
SMILES=Cc(c1)cc(O)cc1
InChI=InChI=1S/C7H8O/c1-6-3-2-4-7(8)5-6/h2-5,8H,1H3
computed SMILES=OC1=CC=CC(=C1)C
accession=JP005421
date=2016.01.19 (Created 2008.10.21, modified 2011.05.06)
author=TAJIMA S, GUNMA COLLEGE OF TECHNOLOGY
license=CC BY-NC-SA
exact mass=108.05751
ionization energy=70 eV
ion type=[M]+*
computed spectral entropy=2.1505690273207363
computed normalized entropy=0.6858788054512333
SPLASH=splash10-0a4i-5900000000-80356192ec6d2f2cce17
submitter=submitter = University of Tokyo Team (Faculty of Engineering, University of Tokyo)
MoNA Rating=3.75

>  <NUM PEAKS>  (3851) 
23

>  <MASS SPECTRAL PEAKS>  (3851) 
27 3.43
38 2.18
39 8.27
40 1.41
41 1.09
50 2.61
51 5.17
52 2.61
53 5.49
54 2.72
55 1.74
63 2.83
65 2.18
77 15.77
78 3.37
79 19.25
80 6.09
89 2.66
90 9.79
91 4.73
107 76.4
108 99.99
109 8.54

>  <PREDICTED SPECTRUM>  (3851) 
14 14
15 53
16 19
17 4
18 11
25 29
26 112
27 237
28 77
29 149
31 24
32 9
36 32
37 128
38 225
39 496
40 154
41 171
42 39
44 23
47 58
49 36
50 330
51 509
52 354
53 362
54 134
55 129
56 54
58 21
60 26
61 173
62 205
63 327
64 184
65 516
66 197
67 50
68 29
69 1
73 19
74 196
75 63
76 43
77 611
78 382
79 627
80 305
81 170
89 118
90 158
91 318
92 126
93 242
94 128
105 70
106 104
107 801
108 999
109 370
110 69

$$$$

     RDKit          2D

  8  8  0  0  0  0  0  0  0  0999 V2000
    1.9489    1.5002    0.0000 C   0  0  0  0  0  0  0  0  0  0  0  0
   -1.9500    0.7500    0.0000 C   0  0  0  0  0  0  0  0  0  0  0  0
   -1.9500   -0.7500    0.0000 C   0  0  0  0  0  0  0  0  0  0  0  0
   -0.6500    1.5000    0.0000 C   0  0  0  0  0  0  0  0  0  0  0  0
   -0.6500   -1.5000    0.0000 C   0  0  0  0  0  0  0  0  0  0  0  0
    0.6500    0.7500    0.0000 C   0  0  0  0  0  0  0  0  0  0  0  0
    0.6500   -0.7500    0.0000 C   0  0  0  0  0  0  0  0  0  0  0  0
    1.9489   -1.5002    0.0000 O   0  0  0  0  0  0  0  0  0  0  0  0
  3  2  2  0
  4  2  1  0
  5  3  1  0
  6  1  1  0
  6  4  2  0
  7  5  2  0
  7  6  1  0
  8  7  1  0
M  END
>  <NAME>  (3852) 
O-CRESOL

>  <SYNONYMS>  (3852) 
2-METHYLPHENOL

>  <SPECTRUM TYPE>  (3852) 
MS1

>  <INSTRUMENT TYPE>  (3852) 
EI-B

>  <INSTRUMENT>  (3852) 
HITACHI RMU-7M

>  <ION MODE>  (3852) 
P

>  <INCHIKEY>  (3852) 
QWVGKYWNOKOFNN-UHFFFAOYSA-N

>  <FORMULA>  (3852) 
C7H8O

>  <EXACT MASS>  (3852) 
108.057514876

>  <MW>  (3852) 
108

>  <ID>  (3852) 
JP005420

>  <CONTRIBUTOR>  (3852) 
University of Tokyo Team, {Faculty of Engineering, University of Tokyo

>  <COMMENT>  (3852) 
SMILES=Cc(c1)c(O)ccc1
InChI=InChI=1S/C7H8O/c1-6-4-2-3-5-7(6)8/h2-5,8H,1H3
computed SMILES=OC=1C=CC=CC1C
accession=JP005420
date=2016.01.19 (Created 2008.10.21, modified 2011.05.06)
author=TAJIMA S, GUNMA COLLEGE OF TECHNOLOGY
license=CC BY-NC-SA
exact mass=108.05751
ionization energy=70 eV
ion type=[M]+*
computed spectral entropy=2.4833432730581744
computed normalized entropy=0.7452553603703042
SPLASH=splash10-0a4i-7900000000-c8eb63e9fe9da99fda0f
submitter=submitter = University of Tokyo Team (Faculty of Engineering, University of Tokyo)
MoNA Rating=3.75

>  <NUM PEAKS>  (3852) 
28

>  <MASS SPECTRAL PEAKS>  (3852) 
26 1.41
27 6.16
29 1.52
31 4.55
38 2.63
39 9.7
40 1.72
45 2.83
50 4.04
51 7.98
52 4.04
53 7.07
53.5 1.82
54 3.84
55 1.72
63 3.54
65 2.22
66 1.41
77 17.98
78 4.34
79 21.21
80 7.88
89 8.48
90 19.49
91 5.66
107 67.37
108 99.99
109 8.89

>  <PREDICTED SPECTRUM>  (3852) 
14 4
16 16
17 6
18 13
25 45
26 124
27 200
28 83
29 54
31 52
36 28
37 152
38 228
39 449
40 167
41 194
42 61
43 80
44 59
46 11
47 18
49 83
50 340
51 473
52 349
53 343
54 140
55 197
56 72
57 98
58 11
59 14
60 51
61 178
62 187
63 325
64 195
65 379
66 168
67 98
68 55
69 23
73 86
74 203
75 156
76 69
77 517
78 351
79 626
80 573
81 268
82 26
89 172
90 207
91 311
92 175
93 125
94 27
105 46
106 149
107 670
108 999
109 306
110 40

$$$$

     RDKit          2D

 16 17  0  0  0  0  0  0  0  0999 V2000
   10.0251    2.7910    0.0000 C   0  0  0  0  0  0  0  0  0  0  0  0
   -1.6700   -0.9600    0.0000 C   0  0  0  0  0  0  0  0  0  0  0  0
   10.0251    1.2910    0.0000 C   0  0  0  0  0  0  0  0  0  0  0  0
    8.7251    3.5410    0.0000 C   0  0  0  0  0  0  0  0  0  0  0  0
   -1.6700    0.5400    0.0000 C   0  0  0  0  0  0  0  0  0  0  0  0
   -0.3700   -1.7100    0.0000 C   0  0  0  0  0  0  0  0  0  0  0  0
    8.7251    0.5410    0.0000 C   0  0  0  0  0  0  0  0  0  0  0  0
    7.4251    2.7910    0.0000 C   0  0  0  0  0  0  0  0  0  0  0  0
   -0.3700    1.2900    0.0000 C   0  0  0  0  0  0  0  0  0  0  0  0
    0.9300   -0.9600    0.0000 C   0  0  0  0  0  0  0  0  0  0  0  0
    4.8270    1.2906    0.0000 C   0  0  0  0  0  0  0  0  0  0  0  0
    3.5281    0.5404    0.0000 C   0  0  0  0  0  0  0  0  0  0  0  0
    7.4251    1.2910    0.0000 C   0  0  0  0  0  0  0  0  0  0  0  0
    0.9300    0.5400    0.0000 C   0  0  0  0  0  0  0  0  0  0  0  0
    6.1262    0.5408    0.0000 O   0  0  0  0  0  0  0  0  0  0  0  0
    2.2289    1.2902    0.0000 O   0  0  0  0  0  0  0  0  0  0  0  0
  3  1  2  0
  4  1  1  0
  5  2  2  0
  6  2  1  0
  7  3  1  0
  8  4  2  0
  9  5  1  0
 10  6  2  0
 12 11  1  0
 13  7  2  0
 13  8  1  0
 14  9  2  0
 14 10  1  0
 15 11  1  0
 15 13  1  0
 16 12  1  0
 16 14  1  0
M  END
>  <NAME>  (3853) 
1,2-DIPHENOXYETHANE

>  <SYNONYMS>  (3853) 


>  <SPECTRUM TYPE>  (3853) 
MS1

>  <INSTRUMENT TYPE>  (3853) 
EI-B

>  <INSTRUMENT>  (3853) 
HITACHI RMU-7M

>  <ION MODE>  (3853) 
P

>  <INCHIKEY>  (3853) 
XCSGHNKDXGYELG-UHFFFAOYSA-N

>  <FORMULA>  (3853) 
C14H14O2

>  <EXACT MASS>  (3853) 
214.099379688

>  <MW>  (3853) 
214

>  <ID>  (3853) 
JP005418

>  <CONTRIBUTOR>  (3853) 
University of Tokyo Team, {Faculty of Engineering, University of Tokyo

>  <COMMENT>  (3853) 
SMILES=c(c2)ccc(c2)OCCOc(c1)cccc1
InChI=InChI=1S/C14H14O2/c1-3-7-13(8-4-1)15-11-12-16-14-9-5-2-6-10-14/h1-10H,11-12H2
computed SMILES=O(C=1C=CC=CC1)CCOC=2C=CC=CC2
license=CC BY-NC-SA
exact mass=214.09938
accession=JP005418
date=2016.01.19 (Created 2008.10.21, modified 2011.05.06)
author=TAJIMA S, GUNMA COLLEGE OF TECHNOLOGY
ionization energy=70 eV
ion type=[M]+*
computed spectral entropy=2.697080094139491
computed normalized entropy=0.8009632150883295
SPLASH=splash10-00fr-9520000000-5267d510262b3f05dd40
submitter=submitter = University of Tokyo Team (Faculty of Engineering, University of Tokyo)
MoNA Rating=3.75

>  <NUM PEAKS>  (3853) 
29

>  <MASS SPECTRAL PEAKS>  (3853) 
27 3.08
28 2.27
38 2.78
39 20.98
40 2.12
43 4.23
50 3.26
51 20.8
55 2.42
63 4.17
64 2.42
65 26.3
66 5.14
77 99.99
78 7.86
79 7.26
91 22.67
92 5.02
93 24
94 16.2
103 7.86
107 9.73
119 5.93
120 59.98
121 78.9
122 6.65
142 1.75
214 65.36
215 10.28

>  <PREDICTED SPECTRUM>  (3853) 
14 1
15 18
18 8
26 60
27 157
28 88
29 61
31 6
32 18
34 16
37 71
38 175
39 469
40 135
41 215
42 114
43 217
44 253
45 148
46 25
50 278
51 562
52 188
53 166
54 20
55 121
56 37
57 73
60 42
61 111
62 156
63 306
64 244
65 538
66 343
67 107
68 11
69 85
73 6
74 89
75 120
76 139
77 999
78 381
79 377
80 110
81 1
82 3
84 16
86 57
89 164
90 169
91 372
92 273
93 439
94 600
95 227
96 63
103 219
104 231
105 137
107 399
108 86
109 17
117 10
118 180
119 245
120 432
121 619
122 270
123 54
133 70
135 56
138 13
139 57
154 60
197 56
199 34
213 106
214 849
215 349
216 111

$$$$

     RDKit          2D

  7  6  0  0  0  0  0  0  0  0999 V2000
   -2.1397    4.0147    0.0000 C   0  0  0  0  0  0  0  0  0  0  0  0
    3.0565    2.5147    0.0000 C   0  0  0  0  0  0  0  0  0  0  0  0
   -0.5058    1.3656    0.0000 C   0  0  0  0  0  0  0  0  0  0  0  0
   -0.8406    3.2647    0.0000 C   0  0  0  0  0  0  0  0  0  0  0  0
    1.7574    3.2647    0.0000 C   0  0  0  0  0  0  0  0  0  0  0  0
    0.4584    2.5147    0.0000 C   0  0  0  0  0  0  0  0  0  0  0  0
    1.4226    1.3656    0.0000 O   0  0  0  0  0  0  0  0  0  0  0  0
  4  1  3  0
  5  2  1  0
  6  3  1  0
  6  4  1  0
  6  5  1  0
  7  6  1  0
M  END
>  <NAME>  (3854) 
3-METHYL-1-PENTYN-3-OL

>  <SYNONYMS>  (3854) 


>  <SPECTRUM TYPE>  (3854) 
MS1

>  <INSTRUMENT TYPE>  (3854) 
EI-B

>  <INSTRUMENT>  (3854) 
HITACHI RMU-7M

>  <ION MODE>  (3854) 
P

>  <INCHIKEY>  (3854) 
QXLPXWSKPNOQLE-UHFFFAOYSA-N

>  <FORMULA>  (3854) 
C6H10O

>  <EXACT MASS>  (3854) 
98.07316494

>  <MW>  (3854) 
98

>  <ID>  (3854) 
JP005416

>  <CONTRIBUTOR>  (3854) 
University of Tokyo Team, {Faculty of Engineering, University of Tokyo

>  <COMMENT>  (3854) 
SMILES=CCC(C)(O)C#C
InChI=InChI=1S/C6H10O/c1-4-6(3,7)5-2/h1,7H,5H2,2-3H3
computed SMILES=C#CC(O)(C)CC
accession=JP005416
date=2016.01.19 (Created 2008.10.21, modified 2011.05.06)
author=TAJIMA S, GUNMA COLLEGE OF TECHNOLOGY
license=CC BY-NC-SA
exact mass=98.07316
ionization energy=70 eV
ion type=[M]+*
computed spectral entropy=1.955826273254522
computed normalized entropy=0.6766694519178817
SPLASH=splash10-014i-9000000000-d08636da239511cea4f5
submitter=submitter = University of Tokyo Team (Faculty of Engineering, University of Tokyo)
MoNA Rating=3.75

>  <NUM PEAKS>  (3854) 
18

>  <MASS SPECTRAL PEAKS>  (3854) 
27 5.86
29 7.42
31 2.19
39 6.95
41 3.91
43 32.58
50 1.64
51 2.58
53 5.63
55 8.13
68 2.19
69 99.99
70 4.69
79 2.66
81 3.75
83 23.44
84 1.48
98 1.56

>  <PREDICTED SPECTRUM>  (3854) 
14 62
15 127
18 29
19 20
25 36
26 120
27 341
28 183
29 327
31 194
32 11
33 7
37 50
38 93
39 324
40 103
41 264
42 4
43 999
44 105
45 2
50 142
51 244
52 159
53 265
54 49
55 221
57 233
59 14
63 37
65 108
66 22
67 33
69 893
70 215
71 25
77 5
78 37
83 114
97 16

$$$$

     RDKit          2D

  7  6  0  0  0  0  0  0  0  0999 V2000
    0.6495    4.1250    0.0000 C   0  0  0  0  0  0  0  0  0  0  0  0
   -0.6495    3.3750    0.0000 C   0  0  0  0  0  0  0  0  0  0  0  0
   -3.2476    3.3750    0.0000 C   0  0  0  0  0  0  0  0  0  0  0  0
   -4.5466    4.1250    0.0000 C   0  0  0  0  0  0  0  0  0  0  0  0
    1.9486    3.3750    0.0000 N   0  0  0  0  0  0  0  0  0  0  0  0
   -1.9486    4.1250    0.0000 N   0  0  0  0  0  0  0  0  0  0  0  0
   -5.8457    3.3750    0.0000 O   0  0  0  0  0  0  0  0  0  0  0  0
  2  1  1  0
  4  3  1  0
  5  1  1  0
  6  2  1  0
  6  3  1  0
  7  4  1  0
M  END
>  <NAME>  (3855) 
2-(2-AMINOETHYLAMINO)ETHANOL

>  <SYNONYMS>  (3855) 


>  <SPECTRUM TYPE>  (3855) 
MS1

>  <INSTRUMENT TYPE>  (3855) 
EI-B

>  <INSTRUMENT>  (3855) 
HITACHI RMU-7M

>  <ION MODE>  (3855) 
P

>  <INCHIKEY>  (3855) 
LHIJANUOQQMGNT-UHFFFAOYSA-N

>  <FORMULA>  (3855) 
C4H12N2O

>  <EXACT MASS>  (3855) 
104.094963004

>  <MW>  (3855) 
104

>  <ID>  (3855) 
JP005415

>  <CONTRIBUTOR>  (3855) 
University of Tokyo Team, {Faculty of Engineering, University of Tokyo

>  <COMMENT>  (3855) 
SMILES=NCCNCCO
InChI=InChI=1S/C4H12N2O/c5-1-2-6-3-4-7/h6-7H,1-5H2
computed SMILES=OCCNCCN
accession=JP005415
date=2016.01.19 (Created 2008.10.21, modified 2011.05.06)
author=TAJIMA S, GUNMA COLLEGE OF TECHNOLOGY
license=CC BY-NC-SA
exact mass=104.09496
ionization energy=70 eV
ion type=[M]+*
computed spectral entropy=2.2631797969063574
computed normalized entropy=0.7830064733796299
SPLASH=splash10-05gl-9000000000-1b0db5fddb9263154c44
submitter=submitter = University of Tokyo Team (Faculty of Engineering, University of Tokyo)
MoNA Rating=3.75

>  <NUM PEAKS>  (3855) 
18

>  <MASS SPECTRAL PEAKS>  (3855) 
15 3.81
27 4.96
28 4.78
29 8.32
30 67.7
31 9.73
41 3.54
42 10.53
43 10.35
44 64.6
45 15.49
56 62.65
57 4.87
73 8.32
74 99.99
75 5.13
88 6.28
105 11.86

>  <PREDICTED SPECTRUM>  (3855) 
14 51
15 210
16 69
17 126
18 232
19 40
26 68
27 258
28 376
29 307
30 999
31 345
32 39
33 1
38 43
39 14
40 145
41 167
42 591
43 544
44 857
45 484
46 173
50 70
51 22
52 34
54 111
56 556
57 262
58 188
59 29
60 50
61 155
62 10
70 90
72 147
73 472
74 599
75 139
85 31
86 236
87 186
88 161
104 31
105 52

$$$$

     RDKit          2D

  8  8  0  0  0  0  0  0  0  0999 V2000
    2.2733   -0.6175    0.0000 C   0  0  0  0  0  0  0  0  0  0  0  0
    2.2738    0.8833    0.0000 C   0  0  0  0  0  0  0  0  0  0  0  0
    0.9738   -1.3683    0.0000 C   0  0  0  0  0  0  0  0  0  0  0  0
    0.9748    1.6333    0.0000 C   0  0  0  0  0  0  0  0  0  0  0  0
   -0.3252   -0.6183    0.0000 C   0  0  0  0  0  0  0  0  0  0  0  0
   -1.6238    1.6325    0.0000 C   0  0  0  0  0  0  0  0  0  0  0  0
   -0.3248    0.8825    0.0000 C   0  0  0  0  0  0  0  0  0  0  0  0
   -2.9228    0.8825    0.0000 N   0  0  0  0  0  0  0  0  0  0  0  0
  2  1  2  0
  3  1  1  0
  4  2  1  0
  5  3  2  0
  7  4  2  0
  7  5  1  0
  7  6  1  0
  8  6  1  0
M  END
>  <NAME>  (3856) 
BENZYLAMINE

>  <SYNONYMS>  (3856) 


>  <SPECTRUM TYPE>  (3856) 
MS1

>  <INSTRUMENT TYPE>  (3856) 
EI-B

>  <INSTRUMENT>  (3856) 
HITACHI RMU-7M

>  <ION MODE>  (3856) 
P

>  <INCHIKEY>  (3856) 
WGQKYBSKWIADBV-UHFFFAOYSA-N

>  <FORMULA>  (3856) 
C7H9N

>  <EXACT MASS>  (3856) 
107.073499288

>  <MW>  (3856) 
107

>  <ID>  (3856) 
JP005414

>  <CONTRIBUTOR>  (3856) 
University of Tokyo Team, {Faculty of Engineering, University of Tokyo

>  <COMMENT>  (3856) 
SMILES=NCc(c1)cccc1
InChI=InChI=1S/C7H9N/c8-6-7-4-2-1-3-5-7/h1-5H,6,8H2
computed SMILES=NCC=1C=CC=CC1
accession=JP005414
date=2016.01.19 (Created 2008.10.21, modified 2011.05.06)
author=TAJIMA S, GUNMA COLLEGE OF TECHNOLOGY
license=CC BY-NC-SA
exact mass=107.0735
ionization energy=70 eV
ion type=[M]+*
computed spectral entropy=2.590054291560261
computed normalized entropy=0.7858563384237778
SPLASH=splash10-0a6r-9700000000-7e253eff483b8a31ec7a
submitter=submitter = University of Tokyo Team (Faculty of Engineering, University of Tokyo)
MoNA Rating=3.75

>  <NUM PEAKS>  (3856) 
27

>  <MASS SPECTRAL PEAKS>  (3856) 
27 3.89
28 18.05
29 5.8
30 31.6
31 8.53
39 6.14
45 4.1
50 5.12
51 11.6
52 4.37
52.5 2.05
53 2.87
63 3.28
65 5.46
77 19.93
78 12.29
79 40.27
80 3.55
89 3.48
90 1.84
91 18.02
92 1.57
104 3.96
105 1.64
106 99.99
107 61.84
108 8.05

>  <PREDICTED SPECTRUM>  (3856) 
14 33
15 50
16 50
17 28
18 24
25 26
26 133
27 177
28 301
29 220
30 785
31 91
36 14
37 139
38 225
39 484
40 186
41 271
42 84
43 19
45 56
49 75
50 346
51 508
52 321
53 211
54 148
55 51
57 50
59 1
61 82
62 203
63 346
64 153
65 540
66 184
67 102
74 152
75 147
76 173
77 492
78 477
79 478
80 151
86 15
87 168
88 9
89 293
90 256
91 999
92 431
93 62
102 30
103 28
104 425
105 263
106 969
107 541
108 142

$$$$

     RDKit          2D

  7  7  0  0  0  0  0  0  0  0999 V2000
   -2.5989    1.5002    0.0000 C   0  0  0  0  0  0  0  0  0  0  0  0
   -0.0000    1.5000    0.0000 C   0  0  0  0  0  0  0  0  0  0  0  0
    1.3000    0.7500    0.0000 C   0  0  0  0  0  0  0  0  0  0  0  0
    0.0000   -1.5000    0.0000 C   0  0  0  0  0  0  0  0  0  0  0  0
   -1.3000    0.7500    0.0000 C   0  0  0  0  0  0  0  0  0  0  0  0
    1.3000   -0.7500    0.0000 O   0  0  0  0  0  0  0  0  0  0  0  0
   -1.3000   -0.7500    0.0000 O   0  0  0  0  0  0  0  0  0  0  0  0
  3  2  1  0
  5  1  1  0
  5  2  1  0
  6  3  1  0
  6  4  1  0
  7  4  1  0
  7  5  1  0
M  END
>  <NAME>  (3857) 
4-METHYL-1,3-DIOXANE

>  <SYNONYMS>  (3857) 


>  <SPECTRUM TYPE>  (3857) 
MS1

>  <INSTRUMENT TYPE>  (3857) 
EI-B

>  <INSTRUMENT>  (3857) 
HITACHI RMU-7M

>  <ION MODE>  (3857) 
P

>  <INCHIKEY>  (3857) 
INCCMBMMWVKEGJ-UHFFFAOYSA-N

>  <FORMULA>  (3857) 
C5H10O2

>  <EXACT MASS>  (3857) 
102.06807956

>  <MW>  (3857) 
102

>  <ID>  (3857) 
JP005413

>  <CONTRIBUTOR>  (3857) 
University of Tokyo Team, {Faculty of Engineering, University of Tokyo

>  <COMMENT>  (3857) 
SMILES=CC(C1)OCOC1
InChI=InChI=1S/C5H10O2/c1-5-2-3-6-4-7-5/h5H,2-4H2,1H3
computed SMILES=O1COC(C)CC1
accession=JP005413
date=2016.01.19 (Created 2008.10.21, modified 2011.05.06)
author=TAJIMA S, GUNMA COLLEGE OF TECHNOLOGY
license=CC BY-NC-SA
exact mass=102.06808
ionization energy=70 eV
ion type=[M]+*
computed spectral entropy=2.7919289964852663
computed normalized entropy=0.8569202796491409
SPLASH=splash10-0kfx-9100000000-c35efcdde61d2ee3ac7f
submitter=submitter = University of Tokyo Team (Faculty of Engineering, University of Tokyo)
MoNA Rating=3.75

>  <NUM PEAKS>  (3857) 
26

>  <MASS SPECTRAL PEAKS>  (3857) 
15 2.19
27 12.43
28 32.6
29 21.74
30 10.71
31 36.36
39 8.52
40 2.58
41 19.08
42 33.23
43 99.99
44 15.95
45 38.55
55 81.47
56 4.3
57 22.05
58 16.65
59 7.51
61 2.19
71 8.6
72 73.89
73 8.21
87 21.89
101 83.11
102 4.69
103 6.65

>  <PREDICTED SPECTRUM>  (3857) 
14 71
15 206
16 6
19 77
25 7
26 175
27 598
28 353
29 683
30 417
31 574
32 99
36 24
37 25
38 102
39 539
40 286
41 999
42 713
43 863
44 402
45 573
46 55
50 67
51 20
53 104
54 210
55 202
56 158
57 504
58 227
69 18
71 246
72 452
73 253
101 482
102 443
103 164

$$$$

     RDKit          2D

  6  5  0  0  0  0  0  0  0  0999 V2000
    0.8002    0.0135    0.0000 C   0  0  0  0  0  0  0  0  0  0  0  0
   -0.6998    2.6115    0.0000 C   0  0  0  0  0  0  0  0  0  0  0  0
    1.3493    2.0625    0.0000 C   0  0  0  0  0  0  0  0  0  0  0  0
    0.0502    1.3125    0.0000 C   0  0  0  0  0  0  0  0  0  0  0  0
   -1.2488    0.5625    0.0000 N   0  0  0  0  0  0  0  0  0  0  0  0
    1.3493    3.5625    0.0000 O   0  0  0  0  0  0  0  0  0  0  0  0
  4  1  1  0
  4  2  1  0
  4  3  1  0
  5  4  1  0
  6  3  1  0
M  END
>  <NAME>  (3858) 
2-AMINO-2-METHYLPROPANOL

>  <SYNONYMS>  (3858) 


>  <SPECTRUM TYPE>  (3858) 
MS1

>  <INSTRUMENT TYPE>  (3858) 
EI-B

>  <INSTRUMENT>  (3858) 
HITACHI RMU-7M

>  <ION MODE>  (3858) 
P

>  <INCHIKEY>  (3858) 
CBTVGIZVANVGBH-UHFFFAOYSA-N

>  <FORMULA>  (3858) 
C4H11NO

>  <EXACT MASS>  (3858) 
89.08406397200001

>  <MW>  (3858) 
89

>  <ID>  (3858) 
JP005412

>  <CONTRIBUTOR>  (3858) 
University of Tokyo Team, {Faculty of Engineering, University of Tokyo

>  <COMMENT>  (3858) 
SMILES=OCC(C)(C)N
InChI=InChI=1S/C4H11NO/c1-4(2,5)3-6/h6H,3,5H2,1-2H3
computed SMILES=OCC(N)(C)C
accession=JP005412
date=2016.01.19 (Created 2008.10.21, modified 2011.05.06)
author=TAJIMA S, GUNMA COLLEGE OF TECHNOLOGY
license=CC BY-NC-SA
exact mass=89.08406
ionization energy=70 eV
ion type=[M]+*
computed spectral entropy=2.003732478861451
computed normalized entropy=0.6805141804734225
SPLASH=splash10-0a4i-9000000000-6a3ec763291bffa9e358
submitter=submitter = University of Tokyo Team (Faculty of Engineering, University of Tokyo)
MoNA Rating=3.75

>  <NUM PEAKS>  (3858) 
19

>  <MASS SPECTRAL PEAKS>  (3858) 
15 2.73
18 15.33
27 2.13
28 4.6
29 4
30 6
31 2.67
39 2.8
41 14.53
42 8.2
43 4.33
55 1.93
56 8.27
57 4
58 99.99
59 4.8
70 1.27
72 5.73
74 3.13

>  <PREDICTED SPECTRUM>  (3858) 
14 61
15 216
16 20
17 35
18 69
19 3
25 5
26 114
27 368
28 310
29 458
30 709
31 496
32 94
33 86
34 5
35 13
36 23
37 41
38 148
39 486
40 230
41 676
42 758
43 572
44 272
45 12
46 20
50 21
52 5
53 124
54 123
55 237
56 255
57 470
58 999
59 464
70 63
71 112
72 174
89 31
90 17
91 52

$$$$

     RDKit          2D

 10  9  0  0  0  0  0  0  0  0999 V2000
   -7.1447    4.8750    0.0000 C   0  0  0  0  0  0  0  0  0  0  0  0
    1.9486    5.6250    0.0000 C   0  0  0  0  0  0  0  0  0  0  0  0
   -5.8457    5.6250    0.0000 C   0  0  0  0  0  0  0  0  0  0  0  0
    0.6495    4.8750    0.0000 C   0  0  0  0  0  0  0  0  0  0  0  0
   -3.2476    5.6250    0.0000 C   0  0  0  0  0  0  0  0  0  0  0  0
   -1.9486    4.8750    0.0000 C   0  0  0  0  0  0  0  0  0  0  0  0
   -8.4437    5.6250    0.0000 Cl  0  0  0  0  0  0  0  0  0  0  0  0
    3.2476    4.8750    0.0000 Cl  0  0  0  0  0  0  0  0  0  0  0  0
   -4.5466    4.8750    0.0000 O   0  0  0  0  0  0  0  0  0  0  0  0
   -0.6495    5.6250    0.0000 O   0  0  0  0  0  0  0  0  0  0  0  0
  3  1  1  0
  4  2  1  0
  6  5  1  0
  7  1  1  0
  8  2  1  0
  9  3  1  0
  9  5  1  0
 10  4  1  0
 10  6  1  0
M  END
>  <NAME>  (3859) 
1,2-BIS(2-CHLOROETHOXY)ETHANE

>  <SYNONYMS>  (3859) 


>  <SPECTRUM TYPE>  (3859) 
MS1

>  <INSTRUMENT TYPE>  (3859) 
EI-B

>  <INSTRUMENT>  (3859) 
HITACHI RMU-7M

>  <ION MODE>  (3859) 
P

>  <INCHIKEY>  (3859) 
AGYUOJIYYGGHKV-UHFFFAOYSA-N

>  <FORMULA>  (3859) 
C6H12Cl2O2

>  <EXACT MASS>  (3859) 
186.021434984

>  <MW>  (3859) 
186

>  <ID>  (3859) 
JP005410

>  <CONTRIBUTOR>  (3859) 
University of Tokyo Team, {Faculty of Engineering, University of Tokyo

>  <COMMENT>  (3859) 
SMILES=ClCCOCCOCCCl
InChI=InChI=1S/C6H12Cl2O2/c7-1-3-9-5-6-10-4-2-8/h1-6H2
computed SMILES=ClCCOCCOCCCl
accession=JP005410
date=2016.01.19 (Created 2008.10.21, modified 2011.05.06)
author=TAJIMA S, GUNMA COLLEGE OF TECHNOLOGY
license=CC BY-NC-SA
exact mass=186.02144
ionization energy=70 eV
ion type=[M]+*
computed spectral entropy=2.6062713836183082
computed normalized entropy=0.7907768162014621
SPLASH=splash10-03dl-9100000000-50807c462c5efa9e298a
submitter=submitter = University of Tokyo Team (Faculty of Engineering, University of Tokyo)
MoNA Rating=3.75

>  <NUM PEAKS>  (3859) 
27

>  <MASS SPECTRAL PEAKS>  (3859) 
15 2.52
27 32.53
28 2.86
29 3.93
31 7.85
43 17.22
44 3.76
45 24.57
49 2.36
59 9.03
62 3.42
63 99.99
64 3.31
65 31.63
72 2.47
73 9.48
93 49.86
94 1.68
95 16.04
101 1.29
106 11.72
107 24.73
108 4.88
109 8.02
115 1
137 4.6
139 1.63

>  <PREDICTED SPECTRUM>  (3859) 
14 49
15 72
17 11
18 28
19 40
25 19
26 117
27 364
28 206
29 246
31 315
32 0
33 12
35 5
36 5
37 18
38 53
41 35
42 95
43 286
44 164
45 577
46 102
47 60
48 25
49 246
50 131
51 181
52 34
53 31
58 99
59 311
60 35
61 101
62 304
63 999
64 352
65 523
66 53
67 8
73 238
79 150
80 73
81 116
82 81
90 8
91 25
92 25
93 288
94 43
95 137
106 124
107 545
108 56
109 371
111 193
113 71
119 21
124 45
125 12
135 46
137 317
139 107
141 98
142 16

$$$$

     RDKit          2D

 13 12  0  0  0  0  0  0  0  0999 V2000
    2.1863    2.8358    0.0000 C   0  0  0  0  0  0  0  0  0  0  0  0
    2.1863    1.3358    0.0000 C   0  0  0  0  0  0  0  0  0  0  0  0
    3.4853    3.5858    0.0000 C   0  0  0  0  0  0  0  0  0  0  0  0
    0.8873    0.5858    0.0000 C   0  0  0  0  0  0  0  0  0  0  0  0
    3.4853    5.0858    0.0000 C   0  0  0  0  0  0  0  0  0  0  0  0
    1.6373   -0.7132    0.0000 F   0  0  0  0  0  0  0  0  0  0  0  0
    0.1373    1.8849    0.0000 F   0  0  0  0  0  0  0  0  0  0  0  0
   -0.4118   -0.1642    0.0000 F   0  0  0  0  0  0  0  0  0  0  0  0
    4.9853    5.0858    0.0000 F   0  0  0  0  0  0  0  0  0  0  0  0
    3.4853    6.5858    0.0000 F   0  0  0  0  0  0  0  0  0  0  0  0
    1.9853    5.0858    0.0000 F   0  0  0  0  0  0  0  0  0  0  0  0
    3.4853    0.5858    0.0000 O   0  0  0  0  0  0  0  0  0  0  0  0
    4.7844    2.8358    0.0000 O   0  0  0  0  0  0  0  0  0  0  0  0
  2  1  1  0
  3  1  1  0
  4  2  1  0
  5  3  1  0
  6  4  1  0
  7  4  1  0
  8  4  1  0
  9  5  1  0
 10  5  1  0
 11  5  1  0
 12  2  2  0
 13  3  2  0
M  END
>  <NAME>  (3860) 
1,1,1,5,5,5-HEXAFLUOROACETYLACETONE

>  <SYNONYMS>  (3860) 
1,1,1,5,5,5-HEXAFLUORO-2,4-PENTADIONE

>  <SPECTRUM TYPE>  (3860) 
MS1

>  <INSTRUMENT TYPE>  (3860) 
EI-B

>  <INSTRUMENT>  (3860) 
HITACHI RMU-7M

>  <ION MODE>  (3860) 
P

>  <INCHIKEY>  (3860) 
QAMFBRUWYYMMGJ-UHFFFAOYSA-N

>  <FORMULA>  (3860) 
C5H2F6O2

>  <EXACT MASS>  (3860) 
207.995898624

>  <MW>  (3860) 
208

>  <ID>  (3860) 
JP005406

>  <CONTRIBUTOR>  (3860) 
University of Tokyo Team, {Faculty of Engineering, University of Tokyo

>  <COMMENT>  (3860) 
SMILES=O=C(CC(=O)C(F)(F)F)C(F)(F)F
InChI=InChI=1S/C5H2F6O2/c6-4(7,8)2(12)1-3(13)5(9,10)11/h1H2
computed SMILES=O=C(CC(=O)C(F)(F)F)C(F)(F)F
accession=JP005406
date=2016.01.19 (Created 2008.10.21, modified 2011.05.06)
author=TAJIMA S, GUNMA COLLEGE OF TECHNOLOGY
license=CC BY-NC-SA
exact mass=207.9959
ionization energy=70 eV
ion type=[M]+*
computed spectral entropy=1.7737324019744767
computed normalized entropy=0.5656946815476301
SPLASH=splash10-014r-9400000000-143ea0627121cb91cf07
submitter=submitter = University of Tokyo Team (Faculty of Engineering, University of Tokyo)
MoNA Rating=3.75

>  <NUM PEAKS>  (3860) 
23

>  <MASS SPECTRAL PEAKS>  (3860) 
19 1
29 1.79
31 2.45
33 1.2
41 3.71
42 4.24
50 1.67
51 1.08
53 1.06
63 1.79
69 99.99
70 2.93
75 1.79
83 1.67
89 3.53
91 4.66
97 1.91
119 5.86
120 1.73
137 1.73
139 50.75
140 2.27
208 2.39

>  <PREDICTED SPECTRUM>  (3860) 
14 30
16 9
19 2
25 17
26 40
27 48
28 6
29 99
31 172
32 6
33 62
34 6
37 108
38 157
39 220
40 68
41 75
42 146
43 63
44 80
45 156
46 47
47 112
48 26
49 35
50 253
51 180
52 57
53 49
55 124
56 27
57 187
58 30
59 62
60 8
62 21
63 190
64 124
65 124
66 51
67 33
69 965
70 169
71 59
73 45
75 218
76 59
77 89
78 106
79 14
81 110
82 97
83 48
84 39
89 13
90 38
91 337
92 105
93 161
94 78
95 69
96 160
97 279
99 59
101 83
111 51
113 20
119 313
120 147
121 104
139 999
140 272
141 143
169 194
171 8
189 135
190 11
208 308
209 70

$$$$

     RDKit          2D

 10  9  0  0  0  0  0  0  0  0999 V2000
   -4.4596    3.2243    0.0000 C   0  0  0  0  0  0  0  0  0  0  0  0
   -1.8615    3.2243    0.0000 C   0  0  0  0  0  0  0  0  0  0  0  0
   -3.1606    2.4743    0.0000 C   0  0  0  0  0  0  0  0  0  0  0  0
   -0.5625    2.4743    0.0000 C   0  0  0  0  0  0  0  0  0  0  0  0
    0.7365    3.2243    0.0000 C   0  0  0  0  0  0  0  0  0  0  0  0
    1.4865    1.9252    0.0000 F   0  0  0  0  0  0  0  0  0  0  0  0
    2.0356    3.9743    0.0000 F   0  0  0  0  0  0  0  0  0  0  0  0
   -0.0135    4.5233    0.0000 F   0  0  0  0  0  0  0  0  0  0  0  0
   -3.1606    0.9743    0.0000 O   0  0  0  0  0  0  0  0  0  0  0  0
   -0.5625    0.9743    0.0000 O   0  0  0  0  0  0  0  0  0  0  0  0
  3  1  1  0
  3  2  1  0
  4  2  1  0
  5  4  1  0
  6  5  1  0
  7  5  1  0
  8  5  1  0
  9  3  2  0
 10  4  2  0
M  END
>  <NAME>  (3861) 
1,1,1-TRIFLUOROACETYLACETONE

>  <SYNONYMS>  (3861) 
1,1,1-TRIFLUORO-2,4-PENTADIONE

>  <SPECTRUM TYPE>  (3861) 
MS1

>  <INSTRUMENT TYPE>  (3861) 
EI-B

>  <INSTRUMENT>  (3861) 
HITACHI RMU-7M

>  <ION MODE>  (3861) 
P

>  <INCHIKEY>  (3861) 
SHXHPUAKLCCLDV-UHFFFAOYSA-N

>  <FORMULA>  (3861) 
C5H5F3O2

>  <EXACT MASS>  (3861) 
154.02416406

>  <MW>  (3861) 
154

>  <ID>  (3861) 
JP005405

>  <CONTRIBUTOR>  (3861) 
University of Tokyo Team, {Faculty of Engineering, University of Tokyo

>  <COMMENT>  (3861) 
SMILES=CC(=O)CC(=O)C(F)(F)F
InChI=InChI=1S/C5H5F3O2/c1-3(9)2-4(10)5(6,7)8/h2H2,1H3
computed SMILES=O=C(C)CC(=O)C(F)(F)F
accession=JP005405
date=2016.01.19 (Created 2008.10.21, modified 2011.05.06)
author=TAJIMA S, GUNMA COLLEGE OF TECHNOLOGY
license=CC BY-NC-SA
exact mass=154.02416
ionization energy=70 eV
ion type=[M]+*
computed spectral entropy=2.5254345094660775
computed normalized entropy=0.7286863685793123
SPLASH=splash10-00ko-9000000000-f8bf974377af1253f3e3
submitter=submitter = University of Tokyo Team (Faculty of Engineering, University of Tokyo)
MoNA Rating=3.75

>  <NUM PEAKS>  (3861) 
32

>  <MASS SPECTRAL PEAKS>  (3861) 
15 8.47
26 1.93
27 7.16
29 7.27
31 6.7
38 2.39
39 8.35
40 1.59
41 7.73
42 8.07
43 99.99
44 4.55
45 5.97
50 2.16
51 3.47
53 1.7
55 3.86
69 50.06
70 1.65
77 1.48
85 57.27
86 2.78
89 1.82
91 2.22
94 4.43
97 1.25
107 3.58
119 5.63
127 1
139 8.64
154 11.08
155 1.82

>  <PREDICTED SPECTRUM>  (3861) 
14 49
15 118
16 21
17 12
25 7
26 46
27 138
28 96
29 120
31 42
32 36
33 8
37 54
38 60
39 284
40 121
41 119
42 261
43 999
44 129
45 108
47 32
50 103
51 52
55 16
57 39
58 18
63 23
64 35
65 98
66 12
67 73
68 8
69 779
70 102
71 108
77 16
84 82
85 636
86 136
87 23
91 172
92 109
93 15
95 3
96 122
97 233
111 88
112 126
134 0
136 44
139 197
153 20
154 367
155 91
156 1

$$$$

     RDKit          2D

 10 10  0  0  0  0  0  0  0  0999 V2000
    6.1262    0.5406    0.0000 C   0  0  0  0  0  0  0  0  0  0  0  0
    6.1262   -0.9594    0.0000 C   0  0  0  0  0  0  0  0  0  0  0  0
    4.8262    1.2906    0.0000 C   0  0  0  0  0  0  0  0  0  0  0  0
    4.8262   -1.7094    0.0000 C   0  0  0  0  0  0  0  0  0  0  0  0
    3.5262    0.5406    0.0000 C   0  0  0  0  0  0  0  0  0  0  0  0
   -0.3708   -1.7100    0.0000 C   0  0  0  0  0  0  0  0  0  0  0  0
    0.9281   -0.9598    0.0000 C   0  0  0  0  0  0  0  0  0  0  0  0
    3.5262   -0.9594    0.0000 C   0  0  0  0  0  0  0  0  0  0  0  0
   -1.6700   -0.9602    0.0000 Cl  0  0  0  0  0  0  0  0  0  0  0  0
    2.2272   -1.7096    0.0000 O   0  0  0  0  0  0  0  0  0  0  0  0
  2  1  2  0
  3  1  1  0
  4  2  1  0
  5  3  2  0
  7  6  1  0
  8  4  2  0
  8  5  1  0
  9  6  1  0
 10  7  1  0
 10  8  1  0
M  END
>  <NAME>  (3862) 
2-CHLOROETHYL PHENYL ETHER

>  <SYNONYMS>  (3862) 
1-PHENOXY-2-CHLOROETHANE

>  <SPECTRUM TYPE>  (3862) 
MS1

>  <INSTRUMENT TYPE>  (3862) 
EI-B

>  <INSTRUMENT>  (3862) 
HITACHI RMU-7M

>  <ION MODE>  (3862) 
P

>  <INCHIKEY>  (3862) 
VQUYNUJARXBNPK-UHFFFAOYSA-N

>  <FORMULA>  (3862) 
C8H9ClO

>  <EXACT MASS>  (3862) 
156.034192588

>  <MW>  (3862) 
156

>  <ID>  (3862) 
JP005404

>  <CONTRIBUTOR>  (3862) 
University of Tokyo Team, {Faculty of Engineering, University of Tokyo

>  <COMMENT>  (3862) 
SMILES=ClCCOc(c1)cccc1
InChI=InChI=1S/C8H9ClO/c9-6-7-10-8-4-2-1-3-5-8/h1-5H,6-7H2
computed SMILES=ClCCOC=1C=CC=CC1
accession=JP005404
date=2016.01.19 (Created 2008.10.21, modified 2011.05.06)
author=TAJIMA S, GUNMA COLLEGE OF TECHNOLOGY
license=CC BY-NC-SA
exact mass=156.03419
ionization energy=70 eV
ion type=[M]+*
computed spectral entropy=2.8171700374296753
computed normalized entropy=0.7988888310665058
SPLASH=splash10-05ox-9100000000-d9ccc56abb8526decfde
submitter=submitter = University of Tokyo Team (Faculty of Engineering, University of Tokyo)
MoNA Rating=3.75

>  <NUM PEAKS>  (3862) 
34

>  <MASS SPECTRAL PEAKS>  (3862) 
26 4
27 33.05
28 3
37 2
38 7.16
39 32.69
40 4.85
49 2.49
50 6.67
51 17.53
52 1.33
53 1.33
55 2.61
61 1.58
62 3.21
63 28.14
64 4.37
65 30.87
66 28.62
67 1.52
77 29.71
78 2.43
79 8.97
91 2.43
93 2.73
94 99.99
95 6.67
107 25.17
108 1.94
121 2
156 27.47
157 2.49
158 9.1
159 1.09

>  <PREDICTED SPECTRUM>  (3862) 
14 18
15 42
25 18
26 98
27 275
28 89
29 60
31 9
32 5
33 5
35 16
36 63
37 81
38 186
39 468
40 171
41 169
42 89
43 51
44 38
45 24
49 166
50 191
51 369
52 93
53 91
54 15
55 99
57 48
60 2
61 70
62 141
63 392
64 214
65 598
66 360
74 130
75 106
76 146
77 488
78 118
79 79
80 53
91 145
92 150
93 406
94 999
95 336
102 59
103 108
107 337
108 23
114 73
119 76
120 204
121 163
122 16
156 494
157 155
158 336
159 137

$$$$

     RDKit          2D

  9  8  0  0  0  0  0  0  0  0999 V2000
    1.5368    3.1373    0.0000 C   0  0  0  0  0  0  0  0  0  0  0  0
    0.2377    3.8873    0.0000 C   0  0  0  0  0  0  0  0  0  0  0  0
   -2.3603    3.8873    0.0000 C   0  0  0  0  0  0  0  0  0  0  0  0
   -3.6594    3.1373    0.0000 C   0  0  0  0  0  0  0  0  0  0  0  0
   -4.4094    4.4363    0.0000 F   0  0  0  0  0  0  0  0  0  0  0  0
   -4.9584    2.3873    0.0000 F   0  0  0  0  0  0  0  0  0  0  0  0
   -2.9094    1.8382    0.0000 F   0  0  0  0  0  0  0  0  0  0  0  0
   -2.3603    5.3873    0.0000 O   0  0  0  0  0  0  0  0  0  0  0  0
   -1.0613    3.1373    0.0000 O   0  0  0  0  0  0  0  0  0  0  0  0
  2  1  1  0
  4  3  1  0
  5  4  1  0
  6  4  1  0
  7  4  1  0
  8  3  2  0
  9  2  1  0
  9  3  1  0
M  END
>  <NAME>  (3863) 
TRIFLUOROACETIC ACID ETHYL ESTER

>  <SYNONYMS>  (3863) 
ETHYL TRIFLUOROACETATE

>  <SPECTRUM TYPE>  (3863) 
MS1

>  <INSTRUMENT TYPE>  (3863) 
EI-B

>  <INSTRUMENT>  (3863) 
HITACHI RMU-7M

>  <ION MODE>  (3863) 
P

>  <INCHIKEY>  (3863) 
STSCVKRWJPWALQ-UHFFFAOYSA-N

>  <FORMULA>  (3863) 
C4H5F3O2

>  <EXACT MASS>  (3863) 
142.02416406

>  <MW>  (3863) 
142

>  <ID>  (3863) 
JP005403

>  <CONTRIBUTOR>  (3863) 
University of Tokyo Team, {Faculty of Engineering, University of Tokyo

>  <COMMENT>  (3863) 
SMILES=CCOC(=O)C(F)(F)F
InChI=InChI=1S/C4H5F3O2/c1-2-9-3(8)4(5,6)7/h2H2,1H3
computed SMILES=O=C(OCC)C(F)(F)F
accession=JP005403
date=2016.01.19 (Created 2008.10.21, modified 2011.05.06)
author=TAJIMA S, GUNMA COLLEGE OF TECHNOLOGY
license=CC BY-NC-SA
exact mass=142.02416
ionization energy=70 eV
ion type=[M]+*
computed spectral entropy=2.0085479981368386
computed normalized entropy=0.6497963157880984
SPLASH=splash10-004i-9000000000-b8b335c3b1c91f1b15d5
submitter=submitter = University of Tokyo Team (Faculty of Engineering, University of Tokyo)
MoNA Rating=3.75

>  <NUM PEAKS>  (3863) 
22

>  <MASS SPECTRAL PEAKS>  (3863) 
15 3.52
26 4.61
27 27.78
28 13.35
29 99.99
30 2.5
31 5.38
33 2.69
43 2.88
44 3.97
45 1.98
47 1.73
50 2.24
51 1.66
69 27.46
73 1.02
97 1.22
99 5.83
115 1
127 1.86
141 3.78
142 1.15

>  <PREDICTED SPECTRUM>  (3863) 
14 85
15 216
16 23
17 4
19 74
25 58
26 246
27 663
28 412
29 948
30 120
31 93
32 57
33 2
37 42
39 17
40 68
41 78
42 83
43 167
44 182
45 483
46 6
47 293
48 23
49 198
50 356
51 254
52 80
65 150
66 148
67 137
69 999
70 235
71 102
73 402
74 112
75 239
78 276
83 79
87 27
94 23
95 448
96 210
97 560
98 114
99 145
114 408
115 303
123 37
127 63
142 145

$$$$

     RDKit          2D

  4  3  0  0  0  0  0  0  0  0999 V2000
    0.9743    0.5625    0.0000 C   0  0  0  0  0  0  0  0  0  0  0  0
   -1.6238    0.5625    0.0000 C   0  0  0  0  0  0  0  0  0  0  0  0
   -0.3248    1.3125    0.0000 C   0  0  0  0  0  0  0  0  0  0  0  0
   -0.3248    2.8125    0.0000 N   0  0  0  0  0  0  0  0  0  0  0  0
  3  1  1  0
  3  2  1  0
  4  3  1  0
M  END
>  <NAME>  (3864) 
ISOPROPYLAMINE

>  <SYNONYMS>  (3864) 


>  <SPECTRUM TYPE>  (3864) 
MS1

>  <INSTRUMENT TYPE>  (3864) 
EI-B

>  <INSTRUMENT>  (3864) 
HITACHI RMU-7M

>  <ION MODE>  (3864) 
P

>  <INCHIKEY>  (3864) 
JJWLVOIRVHMVIS-UHFFFAOYSA-N

>  <FORMULA>  (3864) 
C3H9N

>  <EXACT MASS>  (3864) 
59.073499287999994

>  <MW>  (3864) 
59

>  <ID>  (3864) 
JP005401

>  <CONTRIBUTOR>  (3864) 
University of Tokyo Team, {Faculty of Engineering, University of Tokyo

>  <COMMENT>  (3864) 
SMILES=CC(C)N
InChI=InChI=1S/C3H9N/c1-3(2)4/h3H,4H2,1-2H3
computed SMILES=NC(C)C
accession=JP005401
date=2016.01.19 (Created 2008.10.21, modified 2011.05.06)
author=TAJIMA S, GUNMA COLLEGE OF TECHNOLOGY
license=CC BY-NC-SA
exact mass=59.0735
ionization energy=70 eV
ion type=[M]+*
computed spectral entropy=2.237821363490326
computed normalized entropy=0.7600162133853577
SPLASH=splash10-0006-9000000000-3a7059ff99a8a5e0b6f5
submitter=submitter = University of Tokyo Team (Faculty of Engineering, University of Tokyo)
MoNA Rating=3.75

>  <NUM PEAKS>  (3864) 
19

>  <MASS SPECTRAL PEAKS>  (3864) 
15 6.63
18 22.6
19 8.22
26 1.66
27 7.81
28 8.02
29 2.49
30 2.56
38 1.66
39 6.29
40 3.39
41 12.44
42 14.51
43 10.44
44 99.99
45 36.07
46 3.8
58 7.39
59 4.63

>  <PREDICTED SPECTRUM>  (3864) 
14 99
15 254
16 57
17 69
18 110
25 31
26 163
27 420
28 468
29 280
30 369
31 157
32 27
37 11
38 87
39 270
40 221
41 482
42 714
43 613
44 999
45 222
54 143
56 107
58 329
59 303
60 81

$$$$

     RDKit          2D

  6  6  0  0  0  0  0  0  0  0999 V2000
    2.0279    0.1311    0.0000 C   0  0  0  0  0  0  0  0  0  0  0  0
    1.2779   -1.1679    0.0000 C   0  0  0  0  0  0  0  0  0  0  0  0
    0.9958    1.2235    0.0000 C   0  0  0  0  0  0  0  0  0  0  0  0
   -0.1745   -0.8836    0.0000 C   0  0  0  0  0  0  0  0  0  0  0  0
   -0.3540    0.6056    0.0000 C   0  0  0  0  0  0  0  0  0  0  0  0
   -1.6625    1.3389    0.0000 O   0  0  0  0  0  0  0  0  0  0  0  0
  2  1  1  0
  3  1  1  0
  4  2  1  0
  5  3  1  0
  5  4  1  0
  6  5  1  0
M  END
>  <NAME>  (3865) 
CYCLOPENTANOL

>  <SYNONYMS>  (3865) 


>  <SPECTRUM TYPE>  (3865) 
MS1

>  <INSTRUMENT TYPE>  (3865) 
EI-B

>  <INSTRUMENT>  (3865) 
HITACHI RMU-7M

>  <ION MODE>  (3865) 
P

>  <INCHIKEY>  (3865) 
XCIXKGXIYUWCLL-UHFFFAOYSA-N

>  <FORMULA>  (3865) 
C5H10O

>  <EXACT MASS>  (3865) 
86.07316494

>  <MW>  (3865) 
86

>  <ID>  (3865) 
JP005400

>  <CONTRIBUTOR>  (3865) 
University of Tokyo Team, {Faculty of Engineering, University of Tokyo

>  <COMMENT>  (3865) 
SMILES=OC(C1)CCC1
InChI=InChI=1S/C5H10O/c6-5-3-1-2-4-5/h5-6H,1-4H2
computed SMILES=OC1CCCC1
accession=JP005400
date=2016.01.19 (Created 2008.10.21, modified 2011.05.06)
author=TAJIMA S, GUNMA COLLEGE OF TECHNOLOGY
license=CC BY-NC-SA
exact mass=86.07316
ionization energy=70 eV
ion type=[M]+*
computed spectral entropy=2.7206135968317118
computed normalized entropy=0.7850031488648392
SPLASH=splash10-0a4i-9000000000-21ac54e00a0f56585859
submitter=submitter = University of Tokyo Team (Faculty of Engineering, University of Tokyo)
MoNA Rating=3.75

>  <NUM PEAKS>  (3865) 
32

>  <MASS SPECTRAL PEAKS>  (3865) 
15 2.63
26 3.37
27 14.16
28 7.42
29 17.73
30 5.46
31 6.2
32 2.23
38 2.36
39 14.77
40 5.6
41 19.69
42 7.62
43 13.62
44 38.98
45 13.49
46 1.28
50 1.01
51 1.01
53 2.7
55 4.11
56 2.63
57 99.99
58 51.31
59 4.79
67 7.28
68 6.74
69 2.09
71 2.83
72 1.28
86 7.35
87 3.84

>  <PREDICTED SPECTRUM>  (3865) 
14 8
15 5
16 14
19 12
26 138
27 390
28 177
29 364
30 296
31 316
32 14
33 1
37 55
38 136
39 674
40 319
41 814
42 525
43 673
44 546
45 216
47 17
50 175
51 225
52 88
53 418
54 548
55 277
56 366
57 999
58 524
59 133
63 54
65 131
66 219
67 678
68 476
69 309
70 391
71 221
72 213
78 34
85 18
86 44

$$$$

     RDKit          2D

  7  6  0  0  0  0  0  0  0  0999 V2000
   -0.9743    1.6875    0.0000 C   0  0  0  0  0  0  0  0  0  0  0  0
    0.3248    2.4375    0.0000 C   0  0  0  0  0  0  0  0  0  0  0  0
   -2.2733    2.4375    0.0000 C   0  0  0  0  0  0  0  0  0  0  0  0
    1.6238    1.6875    0.0000 O   0  0  0  0  0  0  0  0  0  0  0  0
    0.3248    3.9375    0.0000 O   0  0  0  0  0  0  0  0  0  0  0  0
   -2.2733    3.9375    0.0000 O   0  0  0  0  0  0  0  0  0  0  0  0
   -3.5724    1.6875    0.0000 O   0  0  0  0  0  0  0  0  0  0  0  0
  2  1  1  0
  3  1  1  0
  4  2  2  0
  5  2  1  0
  6  3  2  0
  7  3  1  0
M  END
>  <NAME>  (3866) 
MALONIC ACID

>  <SYNONYMS>  (3866) 
PROPANEDIOIC ACID

>  <SPECTRUM TYPE>  (3866) 
MS1

>  <INSTRUMENT TYPE>  (3866) 
EI-B

>  <INSTRUMENT>  (3866) 
HITACHI RMU-7M

>  <ION MODE>  (3866) 
P

>  <INCHIKEY>  (3866) 
OFOBLEOULBTSOW-UHFFFAOYSA-N

>  <FORMULA>  (3866) 
C3H4O4

>  <EXACT MASS>  (3866) 
104.010958608

>  <MW>  (3866) 
104

>  <ID>  (3866) 
JP005398

>  <CONTRIBUTOR>  (3866) 
University of Tokyo Team, {Faculty of Engineering, University of Tokyo

>  <COMMENT>  (3866) 
SMILES=OC(=O)CC(O)=O
InChI=InChI=1S/C3H4O4/c4-2(5)1-3(6)7/h1H2,(H,4,5)(H,6,7)
computed SMILES=O=C(O)CC(=O)O
accession=JP005398
date=2016.01.19 (Created 2008.10.21, modified 2011.05.06)
author=TAJIMA S, GUNMA COLLEGE OF TECHNOLOGY
license=CC BY-NC-SA
exact mass=104.01096
ionization energy=70 eV
ion type=[M]+*
computed spectral entropy=2.140694161383248
computed normalized entropy=0.7406293517555715
SPLASH=splash10-0006-9000000000-f239df8fdd12e9a74445
submitter=submitter = University of Tokyo Team (Faculty of Engineering, University of Tokyo)
MoNA Rating=3.75

>  <NUM PEAKS>  (3866) 
18

>  <MASS SPECTRAL PEAKS>  (3866) 
12 4.79
13 3.76
14 11.29
15 29.55
16 5.61
17 1.44
18 2.39
22 1.78
28 10.74
29 6.63
31 2.19
41 2.12
42 7.32
43 52.33
44 99.99
45 45.83
46 1.09
60 25.31

>  <PREDICTED SPECTRUM>  (3866) 
14 168
15 295
16 123
17 145
18 259
19 54
25 134
26 161
27 277
28 346
29 487
30 253
31 222
32 60
33 23
36 118
37 130
38 19
40 224
41 459
42 717
43 999
44 658
45 978
46 182
50 90
55 48
57 144
58 572
59 101
60 655
61 102
68 358
69 258
70 74
71 66
86 682
87 482
88 56

$$$$

     RDKit          2D

  9  8  0  0  0  0  0  0  0  0999 V2000
    1.9486    3.3750    0.0000 C   0  0  0  0  0  0  0  0  0  0  0  0
   -3.2476    3.3750    0.0000 C   0  0  0  0  0  0  0  0  0  0  0  0
   -1.9486    4.1250    0.0000 C   0  0  0  0  0  0  0  0  0  0  0  0
   -4.5466    4.1250    0.0000 C   0  0  0  0  0  0  0  0  0  0  0  0
   -0.6495    3.3750    0.0000 C   0  0  0  0  0  0  0  0  0  0  0  0
   -5.8457    3.3750    0.0000 Cl  0  0  0  0  0  0  0  0  0  0  0  0
   -4.5466    5.6250    0.0000 O   0  0  0  0  0  0  0  0  0  0  0  0
   -0.6495    1.8750    0.0000 O   0  0  0  0  0  0  0  0  0  0  0  0
    0.6495    4.1250    0.0000 O   0  0  0  0  0  0  0  0  0  0  0  0
  3  2  1  0
  4  2  1  0
  5  3  1  0
  6  4  1  0
  7  4  2  0
  8  5  2  0
  9  1  1  0
  9  5  1  0
M  END
>  <NAME>  (3867) 
3-CARBOMETHOXYPROPIONYL CHLORIDE

>  <SYNONYMS>  (3867) 


>  <SPECTRUM TYPE>  (3867) 
MS1

>  <INSTRUMENT TYPE>  (3867) 
EI-B

>  <INSTRUMENT>  (3867) 
HITACHI RMU-7M

>  <ION MODE>  (3867) 
P

>  <INCHIKEY>  (3867) 
SRXOJMOGPYFZKC-UHFFFAOYSA-N

>  <FORMULA>  (3867) 
C5H7ClO3

>  <EXACT MASS>  (3867) 
150.008371764

>  <MW>  (3867) 
150

>  <ID>  (3867) 
JP005397

>  <CONTRIBUTOR>  (3867) 
University of Tokyo Team, {Faculty of Engineering, University of Tokyo

>  <COMMENT>  (3867) 
computed SMILES=O=C(Cl)CCC(=O)OC
SMILES=COC(=O)CCC(=O)Cl
InChI=InChI=1S/C5H7ClO3/c1-9-5(8)3-2-4(6)7/h2-3H2,1H3
accession=JP005397
date=2016.01.19 (Created 2008.10.21, modified 2011.05.06)
author=TAJIMA S, GUNMA COLLEGE OF TECHNOLOGY
license=CC BY-NC-SA
exact mass=150.00837
ionization energy=70 eV
ion type=[M]+*
computed spectral entropy=2.83839173129966
computed normalized entropy=0.8345272010977929
SPLASH=splash10-05r0-9300000000-d56c2a3cb57e57daf5d1
submitter=submitter = University of Tokyo Team (Faculty of Engineering, University of Tokyo)
MoNA Rating=3.75

>  <NUM PEAKS>  (3867) 
30

>  <MASS SPECTRAL PEAKS>  (3867) 
14 6.58
15 25.64
25 3.12
26 20.65
27 38.67
28 41.23
29 26.33
30 4.3
31 7.62
35 4.85
36 5.2
37 2.91
38 2.49
41 3.81
42 11.09
43 4.02
45 6.38
50 3.27
55 68.95
56 18.16
59 31.12
63 8.52
65 3.19
87 11.3
101 4.3
114 16.08
115 99.99
116 5.68
119 13.79
121 4.23

>  <PREDICTED SPECTRUM>  (3867) 
14 51
15 201
16 9
17 0
25 30
26 151
27 352
28 191
29 326
30 48
31 191
33 3
35 84
36 165
37 79
38 115
39 194
40 112
41 136
42 314
43 89
44 133
45 222
47 4
49 159
50 114
51 84
52 100
53 99
54 179
55 925
56 371
57 72
58 10
59 657
60 105
63 279
64 81
65 132
73 79
74 22
75 13
76 45
83 252
84 42
86 109
87 322
90 34
91 292
92 45
93 232
101 89
114 76
115 999
116 281
117 23
118 61
119 390
120 84
121 251
150 9

$$$$

     RDKit          2D

 17 16  0  0  0  0  0  0  0  0999 V2000
    5.5209    7.6875    0.0000 C   0  0  0  0  0  0  0  0  0  0  0  0
   -6.1704    8.4375    0.0000 C   0  0  0  0  0  0  0  0  0  0  0  0
   -4.8714    7.6875    0.0000 C   0  0  0  0  0  0  0  0  0  0  0  0
   -7.4695    7.6875    0.0000 C   0  0  0  0  0  0  0  0  0  0  0  0
   -3.5724    8.4375    0.0000 C   0  0  0  0  0  0  0  0  0  0  0  0
   -8.7685    8.4375    0.0000 C   0  0  0  0  0  0  0  0  0  0  0  0
   -2.2733    7.6875    0.0000 C   0  0  0  0  0  0  0  0  0  0  0  0
  -10.0675    7.6875    0.0000 C   0  0  0  0  0  0  0  0  0  0  0  0
   -0.9743    8.4375    0.0000 C   0  0  0  0  0  0  0  0  0  0  0  0
  -11.3666    8.4375    0.0000 C   0  0  0  0  0  0  0  0  0  0  0  0
    0.3248    7.6875    0.0000 C   0  0  0  0  0  0  0  0  0  0  0  0
  -12.6656    7.6875    0.0000 C   0  0  0  0  0  0  0  0  0  0  0  0
    1.6238    8.4375    0.0000 C   0  0  0  0  0  0  0  0  0  0  0  0
    4.2219    8.4375    0.0000 C   0  0  0  0  0  0  0  0  0  0  0  0
  -13.9647    8.4375    0.0000 F   0  0  0  0  0  0  0  0  0  0  0  0
    4.2219    9.9375    0.0000 O   0  0  0  0  0  0  0  0  0  0  0  0
    2.9228    7.6875    0.0000 O   0  0  0  0  0  0  0  0  0  0  0  0
  3  2  1  0
  4  2  1  0
  5  3  1  0
  6  4  1  0
  7  5  1  0
  8  6  1  0
  9  7  1  0
 10  8  1  0
 11  9  1  0
 12 10  1  0
 13 11  1  0
 14  1  1  0
 15 12  1  0
 16 14  2  0
 17 13  1  0
 17 14  1  0
M  END
>  <NAME>  (3868) 
12-FLUORODODECYL ACETATE

>  <SYNONYMS>  (3868) 


>  <SPECTRUM TYPE>  (3868) 
MS1

>  <INSTRUMENT TYPE>  (3868) 
EI-B

>  <INSTRUMENT>  (3868) 
SHIMADZU QP-1000

>  <ION MODE>  (3868) 
P

>  <INCHIKEY>  (3868) 
GJRKOAXTXXIFAH-UHFFFAOYSA-N

>  <FORMULA>  (3868) 
C14H27FO2

>  <EXACT MASS>  (3868) 
246.199508324

>  <MW>  (3868) 
246

>  <ID>  (3868) 
JP005388

>  <CONTRIBUTOR>  (3868) 
University of Tokyo Team, {Faculty of Engineering, University of Tokyo

>  <COMMENT>  (3868) 
SMILES=FCCCCCCCCCCCCOC(C)=O
InChI=InChI=1S/C14H27FO2/c1-14(16)17-13-11-9-7-5-3-2-4-6-8-10-12-15/h2-13H2,1H3
computed SMILES=O=C(OCCCCCCCCCCCCF)C
accession=JP005388
date=2016.01.19 (Created 2008.10.21, modified 2011.05.06)
author=YAMAOKA R, KYOTO INSTITUTE OF TECHNOLOGY
license=CC BY-NC-SA
exact mass=246.19951
ionization energy=70 eV
ion type=[M]+*
computed spectral entropy=3.0285167993783855
computed normalized entropy=0.7458587133256758
SPLASH=splash10-0006-9100000000-1dd284ae5b91de42040d
submitter=submitter = University of Tokyo Team (Faculty of Engineering, University of Tokyo)
MoNA Rating=3.75

>  <NUM PEAKS>  (3868) 
58

>  <MASS SPECTRAL PEAKS>  (3868) 
41 8.5
42 1.9
43 43.6
44 99.99
45 6.3
46 18.1
48 4.3
54 0.66
55 36.5
56 13.2
57 10.3
58 0.35
59 4.2
61 15.8
67 7.6
68 0.75
69 16.6
70 9.1
71 3.3
72 0.11
73 5.4
74 1.8
75 1.3
81 0.49
82 5.8
83 9.5
84 3.6
85 0.12
86 1.1
87 2.9
88 3.3
89 0.31
95 3.2
96 2.8
97 6.9
98 0.31
101 2.4
102 3.2
103 1.9
109 0.29
110 1.4
111 3.3
112 1.2
114 0.1
115 1.7
116 5.8
117 1.2
123 0.22
125 1.4
129 2.3
130 2.9
133 0.14
137 1.1
143 1.2
144 1.4
157 0.14
158 5.6
186 2.4

>  <PREDICTED SPECTRUM>  (3868) 
27 18
29 89
31 55
33 6
39 59
40 2
41 539
42 382
43 999
44 210
45 152
46 73
47 92
49 42
51 24
52 54
53 156
54 353
55 851
56 576
57 607
58 140
59 131
60 200
61 626
62 110
63 63
65 41
66 135
67 502
68 687
69 868
70 549
71 410
72 109
73 243
74 152
75 173
76 68
77 70
79 94
80 83
81 495
82 740
83 776
84 473
85 208
86 101
87 213
88 183
89 96
90 55
91 12
93 24
94 58
95 472
96 584
97 683
98 297
99 160
100 93
101 188
102 128
103 139
104 51
105 2
107 44
109 318
110 350
111 415
112 240
113 129
114 91
115 199
116 216
117 179
118 31
121 26
123 169
124 235
125 316
126 209
127 33
128 12
129 200
130 236
131 91
137 247
138 177
139 102
140 86
141 33
143 209
144 124
145 154
146 37
153 64
155 83
156 129
157 184
158 209
159 93
167 30
171 18
172 37
173 67
183 14
185 26
186 269
187 111
246 2

$$$$

     RDKit          2D

 13 12  0  0  0  0  0  0  0  0999 V2000
    0.6495    5.6250    0.0000 C   0  0  0  0  0  0  0  0  0  0  0  0
   -0.6495    6.3750    0.0000 C   0  0  0  0  0  0  0  0  0  0  0  0
   -1.9486    5.6250    0.0000 C   0  0  0  0  0  0  0  0  0  0  0  0
   -3.2476    6.3750    0.0000 C   0  0  0  0  0  0  0  0  0  0  0  0
   -4.5466    5.6250    0.0000 C   0  0  0  0  0  0  0  0  0  0  0  0
   -5.8457    6.3750    0.0000 C   0  0  0  0  0  0  0  0  0  0  0  0
   -7.1447    5.6250    0.0000 C   0  0  0  0  0  0  0  0  0  0  0  0
   -7.1447    4.1250    0.0000 C   0  0  0  0  0  0  0  0  0  0  0  0
   -8.4437    3.3750    0.0000 C   0  0  0  0  0  0  0  0  0  0  0  0
   -8.4437    1.8750    0.0000 C   0  0  0  0  0  0  0  0  0  0  0  0
   -7.1447    1.1250    0.0000 C   0  0  0  0  0  0  0  0  0  0  0  0
   -7.1447   -0.3750    0.0000 C   0  0  0  0  0  0  0  0  0  0  0  0
   -5.8457   -1.1250    0.0000 O   0  0  0  0  0  0  0  0  0  0  0  0
  2  1  1  0
  3  2  1  0
  4  3  1  0
  5  4  1  0
  6  5  1  0
  6  7  2  0
  8  7  1  0
  9  8  1  0
  9 10  2  0
 11 10  1  0
 12 11  1  0
 13 12  1  0
M  END
>  <NAME>  (3869) 
(Z,Z)-3,6-DODECADIEN-1-OL

>  <SYNONYMS>  (3869) 


>  <SPECTRUM TYPE>  (3869) 
MS1

>  <INSTRUMENT TYPE>  (3869) 
EI-B

>  <INSTRUMENT>  (3869) 
SHIMADZU QP-1000

>  <ION MODE>  (3869) 
P

>  <INCHIKEY>  (3869) 
WVTVMLXNKUWGBH-HZJYTTRNSA-N

>  <FORMULA>  (3869) 
C12H22O

>  <EXACT MASS>  (3869) 
182.167065324

>  <MW>  (3869) 
182

>  <ID>  (3869) 
JP005386

>  <CONTRIBUTOR>  (3869) 
University of Tokyo Team, {Faculty of Engineering, University of Tokyo

>  <COMMENT>  (3869) 
SMILES=CCCCCC([H])=C([H])CC([H])=C([H])CCO
InChI=InChI=1S/C12H22O/c1-2-3-4-5-6-7-8-9-10-11-12-13/h6-7,9-10,13H,2-5,8,11-12H2,1H3/b7-6-,10-9-
computed SMILES=OCCC=CCC=CCCCCC
accession=JP005386
date=2016.01.19 (Created 2008.10.21, modified 2011.05.06)
author=YAMAOKA R, KYOTO INSTITUTE OF TECHNOLOGY
license=CC BY-NC-SA
exact mass=182.16707
ionization energy=70 eV
ion type=[M]+*
computed spectral entropy=3.6010679586482874
computed normalized entropy=0.7926115586206924
SPLASH=splash10-00kf-9100000000-5d764fe917ce70412659
submitter=submitter = University of Tokyo Team (Faculty of Engineering, University of Tokyo)
MoNA Rating=3.75

>  <NUM PEAKS>  (3869) 
94

>  <MASS SPECTRAL PEAKS>  (3869) 
40 1.1
41 35.6
42 6
43 99.99
44 51.6
45 18.9
46 90.8
47 0.23
51 1.2
52 4.7
53 3
54 3.23
55 87
56 11.6
57 18.1
58 0.97
59 15.1
64 1
65 11.2
66 1.06
67 97.5
68 35.6
69 23.1
70 1.74
71 8.4
72 5.4
73 10.9
74 0.11
75 2
77 22.8
78 6.2
79 9.73
80 31.8
81 45.4
82 17.2
83 1.4
84 8.9
85 1.8
86 3.7
87 1.26
88 4.4
89 21.6
90 3.1
91 2.51
92 5.9
93 42.6
94 16.8
95 2.18
96 16.3
97 15.4
98 12.8
99 0.19
100 1.7
101 4
102 3.2
103 0.95
104 1.1
105 6.7
106 2.5
107 1.99
108 6
109 10.8
110 5.3
111 0.7
112 6.3
113 1.1
114 1.9
115 0.18
116 1.1
117 4
119 1.8
120 0.17
121 14.6
122 3.9
123 2.6
125 0.2
126 1.1
131 4
132 1.6
133 1.19
134 1.2
135 7.6
136 2.2
137 0.1
138 6
139 1.9
147 3.2
149 0.16
151 1.3
163 1
164 3.9
175 0.19
177 2.5
182 1.2

>  <PREDICTED SPECTRUM>  (3869) 
26 43
27 324
28 90
29 356
30 63
31 166
32 4
37 17
38 91
39 529
40 196
41 895
42 300
43 471
44 168
45 149
49 4
50 114
51 260
52 218
53 469
54 649
55 767
56 311
57 407
58 128
59 66
62 55
63 121
64 52
65 336
66 345
67 999
68 728
69 495
70 380
71 240
72 11
73 6
74 25
75 61
76 53
77 518
78 360
79 888
80 716
81 859
82 459
83 425
84 338
85 169
86 5
89 35
90 36
91 421
92 294
93 681
94 422
95 510
96 383
97 348
98 289
99 67
103 32
104 44
105 230
106 183
107 426
108 312
109 401
110 340
111 340
112 223
113 56
115 17
117 62
119 92
120 110
121 354
122 248
123 214
124 44
125 135
126 108
127 60
131 14
133 82
135 253
136 181
137 101
138 244
139 75
140 85
149 257
150 161
151 153
152 14
153 88
154 39
163 32
164 293
165 79
167 12
180 43
181 51
182 297
183 79

$$$$

     RDKit          2D

 17 16  0  0  0  0  0  0  0  0999 V2000
    4.2219   14.4375    0.0000 C   0  0  0  0  0  0  0  0  0  0  0  0
   -3.5724    8.4375    0.0000 C   0  0  0  0  0  0  0  0  0  0  0  0
   -2.2733    7.6875    0.0000 C   0  0  0  0  0  0  0  0  0  0  0  0
   -4.8714    7.6875    0.0000 C   0  0  0  0  0  0  0  0  0  0  0  0
   -0.9743    8.4375    0.0000 C   0  0  0  0  0  0  0  0  0  0  0  0
   -6.1704    8.4375    0.0000 C   0  0  0  0  0  0  0  0  0  0  0  0
    0.3248    7.6875    0.0000 C   0  0  0  0  0  0  0  0  0  0  0  0
   -7.4695    7.6875    0.0000 C   0  0  0  0  0  0  0  0  0  0  0  0
    1.6238    8.4375    0.0000 C   0  0  0  0  0  0  0  0  0  0  0  0
   -8.7685    8.4375    0.0000 C   0  0  0  0  0  0  0  0  0  0  0  0
    1.6238    9.9375    0.0000 C   0  0  0  0  0  0  0  0  0  0  0  0
  -10.0675    7.6875    0.0000 C   0  0  0  0  0  0  0  0  0  0  0  0
    2.9228   10.6875    0.0000 C   0  0  0  0  0  0  0  0  0  0  0  0
    4.2219   12.9375    0.0000 C   0  0  0  0  0  0  0  0  0  0  0  0
  -11.3666    8.4375    0.0000 F   0  0  0  0  0  0  0  0  0  0  0  0
    5.5209   12.1875    0.0000 O   0  0  0  0  0  0  0  0  0  0  0  0
    2.9228   12.1875    0.0000 O   0  0  0  0  0  0  0  0  0  0  0  0
  3  2  1  0
  4  2  1  0
  5  3  1  0
  6  4  1  0
  7  5  1  0
  8  6  1  0
  7  9  2  0
 10  8  1  0
 11  9  1  0
 12 10  1  0
 13 11  1  0
 14  1  1  0
 15 12  1  0
 16 14  2  0
 17 13  1  0
 17 14  1  0
M  END
>  <NAME>  (3870) 
12-FLUORO-(Z)-3-DODECENYL ACETATE

>  <SYNONYMS>  (3870) 


>  <SPECTRUM TYPE>  (3870) 
MS1

>  <INSTRUMENT TYPE>  (3870) 
EI-B

>  <INSTRUMENT>  (3870) 
SHIMADZU QP-1000

>  <ION MODE>  (3870) 
P

>  <INCHIKEY>  (3870) 
JYVIOFGAFDOEFQ-CLFYSBASSA-N

>  <FORMULA>  (3870) 
C14H25FO2

>  <EXACT MASS>  (3870) 
244.18385826

>  <MW>  (3870) 
244

>  <ID>  (3870) 
JP005382

>  <CONTRIBUTOR>  (3870) 
University of Tokyo Team, {Faculty of Engineering, University of Tokyo

>  <COMMENT>  (3870) 
SMILES=FCCCCCCCCC([H])=C([H])CCOC(C)=O
InChI=InChI=1S/C14H25FO2/c1-14(16)17-13-11-9-7-5-3-2-4-6-8-10-12-15/h7,9H,2-6,8,10-13H2,1H3/b9-7-
computed SMILES=O=C(OCCC=CCCCCCCCCF)C
accession=JP005382
date=2016.01.19 (Created 2008.10.21, modified 2011.05.06)
author=YAMAOKA R, KYOTO INSTITUTE OF TECHNOLOGY
license=CC BY-NC-SA
exact mass=244.18386
ionization energy=70 eV
ion type=[M]+*
computed spectral entropy=3.4176471956906935
computed normalized entropy=0.7672610527170235
SPLASH=splash10-066r-9000000000-dd455da3f74de86dec98
submitter=submitter = University of Tokyo Team (Faculty of Engineering, University of Tokyo)
MoNA Rating=3.75

>  <NUM PEAKS>  (3870) 
86

>  <MASS SPECTRAL PEAKS>  (3870) 
41 25.1
42 4.4
43 88.5
44 5.24
45 22.2
46 83.6
47 2.8
48 0.93
52 1.8
53 1.1
54 52.9
55 99.99
56 18
57 26.7
58 9.5
59 1.79
60 1.6
61 4.9
65 3.1
66 0.58
67 68
68 82.7
69 33.6
70 0.94
71 9.8
72 6.1
73 13.4
74 0.25
75 3.3
77 2.5
79 9.5
80 0.32
81 52.6
82 34.2
83 13.7
84 0.28
85 3.2
86 3.6
87 14.7
88 0.75
89 23.2
90 1.2
93 2.1
94 0.38
95 24.1
96 12.8
97 5.2
98 0.12
99 2.3
100 2.3
101 6
102 0.45
103 9.3
107 1.4
108 1.7
109 1.11
110 3.5
111 1.2
113 2.3
114 0.51
115 3.1
116 2.1
117 3.6
119 0.13
121 1.6
123 3.9
127 2.6
128 0.58
129 1.8
130 1.5
131 4.1
132 0.18
133 12.1
134 1.3
141 2.7
142 0.52
145 1.1
147 2.9
155 2.8
156 0.53
163 1.2
175 1.9
177 2.5
183 0.17
184 11.2
185 1.4

>  <PREDICTED SPECTRUM>  (3870) 
27 0
29 96
39 116
40 25
41 657
42 298
43 999
44 218
45 163
46 39
50 10
51 76
52 60
53 335
54 660
55 821
56 295
57 287
58 170
59 127
60 102
61 279
62 38
63 0
65 159
66 284
67 943
68 945
69 555
70 249
71 217
72 125
73 228
74 114
75 51
77 112
78 67
79 303
80 330
81 922
82 819
83 399
84 194
85 223
86 76
87 175
88 171
89 79
91 117
92 99
93 189
94 308
95 713
96 757
97 388
98 173
99 168
100 143
101 130
102 196
103 26
104 59
105 61
106 44
107 247
108 68
109 495
110 358
111 158
112 84
113 157
114 168
115 194
116 132
117 74
118 1
119 10
121 140
122 92
123 285
124 256
125 169
126 83
127 135
128 121
129 135
130 90
131 77
137 141
138 80
139 50
140 26
141 379
142 45
143 169
144 85
145 47
151 96
152 43
153 68
154 17
155 264
156 206
157 65
158 44
159 12
165 57
166 74
167 20
169 36
171 34
183 29
184 540
185 293
186 104
201 40
244 148
245 59

$$$$

     RDKit          2D

 13 12  0  0  0  0  0  0  0  0999 V2000
    4.5466    5.6250    0.0000 C   0  0  0  0  0  0  0  0  0  0  0  0
    3.2476    6.3750    0.0000 C   0  0  0  0  0  0  0  0  0  0  0  0
    1.9486    5.6250    0.0000 C   0  0  0  0  0  0  0  0  0  0  0  0
    0.6495    6.3750    0.0000 C   0  0  0  0  0  0  0  0  0  0  0  0
   -0.6495    5.6250    0.0000 C   0  0  0  0  0  0  0  0  0  0  0  0
   -1.9486    6.3750    0.0000 C   0  0  0  0  0  0  0  0  0  0  0  0
   -3.2476    5.6250    0.0000 C   0  0  0  0  0  0  0  0  0  0  0  0
   -4.5466    6.3750    0.0000 C   0  0  0  0  0  0  0  0  0  0  0  0
   -5.8457    5.6250    0.0000 C   0  0  0  0  0  0  0  0  0  0  0  0
   -7.1447    6.3750    0.0000 C   0  0  0  0  0  0  0  0  0  0  0  0
   -7.1447    7.8750    0.0000 C   0  0  0  0  0  0  0  0  0  0  0  0
   -8.4437    8.6250    0.0000 C   0  0  0  0  0  0  0  0  0  0  0  0
   -8.4437   10.1250    0.0000 O   0  0  0  0  0  0  0  0  0  0  0  0
  2  1  1  0
  3  2  1  0
  4  3  1  0
  5  4  1  0
  6  5  1  0
  7  6  1  0
  8  7  1  0
  9  8  1  0
  9 10  2  0
 11 10  1  0
 12 11  1  0
 13 12  1  0
M  END
>  <NAME>  (3871) 
(Z)-3-DODECEN-1-OL

>  <SYNONYMS>  (3871) 


>  <SPECTRUM TYPE>  (3871) 
MS1

>  <INSTRUMENT TYPE>  (3871) 
EI-B

>  <INSTRUMENT>  (3871) 
SHIMADZU QP-1000

>  <ION MODE>  (3871) 
P

>  <INCHIKEY>  (3871) 
BDGQTWOHKASHQU-KTKRTIGZSA-N

>  <FORMULA>  (3871) 
C12H24O

>  <EXACT MASS>  (3871) 
184.182715388

>  <MW>  (3871) 
184

>  <ID>  (3871) 
JP005380

>  <CONTRIBUTOR>  (3871) 
University of Tokyo Team, {Faculty of Engineering, University of Tokyo

>  <COMMENT>  (3871) 
SMILES=CCCCCCCCC([H])=C([H])CCO
InChI=InChI=1S/C12H24O/c1-2-3-4-5-6-7-8-9-10-11-12-13/h9-10,13H,2-8,11-12H2,1H3/b10-9-
computed SMILES=OCCC=CCCCCCCCC
accession=JP005380
date=2016.01.19 (Created 2008.10.21, modified 2011.05.06)
author=YAMAOKA R, KYOTO INSTITUTE OF TECHNOLOGY
license=CC BY-NC-SA
exact mass=184.18272
ionization energy=70 eV
ion type=[M]+*
computed spectral entropy=3.1060128625564825
computed normalized entropy=0.7682348446251726
SPLASH=splash10-00kf-9000000000-69e659b42c5575782ccf
submitter=submitter = University of Tokyo Team (Faculty of Engineering, University of Tokyo)
MoNA Rating=3.75

>  <NUM PEAKS>  (3871) 
57

>  <MASS SPECTRAL PEAKS>  (3871) 
40 1.2
41 32.4
42 5.9
43 99.99
44 66.2
45 9
46 5.1
51 0.1
52 2.8
53 1.4
54 35
55 8.13
56 24.1
57 38.1
58 2.8
65 0.32
66 6
67 53.1
68 69.3
69 3.59
70 14.6
71 10.1
72 1.2
77 0.29
78 1.9
79 7.5
81 39.1
82 3.82
83 18.2
84 5.2
85 3.4
91 0.26
92 3
93 1.2
95 19.3
96 2.03
97 9.9
98 3
99 1.1
103 0.11
105 1.8
109 10.9
110 11.4
111 0.38
112 1.5
116 1.2
117 1.2
123 0.54
124 5.6
125 1
133 1.4
134 0.34
137 2.8
138 6
149 1.7
166 0.47
167 1.3

>  <PREDICTED SPECTRUM>  (3871) 
15 6
17 5
18 18
25 0
26 52
27 293
28 123
29 412
30 77
31 177
32 45
33 6
37 8
38 48
39 402
40 168
41 983
42 497
43 749
44 276
45 238
46 42
50 62
51 142
52 125
53 385
54 631
55 999
56 598
57 634
58 143
59 112
60 25
61 33
62 18
63 73
65 190
66 240
67 752
68 751
69 762
70 516
71 366
72 113
73 78
74 53
75 6
77 192
78 118
79 291
80 183
81 709
82 736
83 593
84 397
85 224
86 81
87 10
88 20
91 165
92 60
93 166
94 142
95 544
96 584
97 475
98 246
99 123
100 10
105 69
106 7
107 93
108 72
109 386
110 376
111 303
112 167
113 93
114 55
115 8
116 7
119 42
121 5
122 96
123 247
124 202
125 111
126 63
127 32
128 32
135 14
137 176
138 194
139 74
140 139
141 59
142 13
151 50
152 50
153 74
154 18
165 35
166 250
167 86
168 11
182 8
184 81
185 8

$$$$

     RDKit          2D

 17 16  0  0  0  0  0  0  0  0999 V2000
    5.1962    8.2500    0.0000 C   0  0  0  0  0  0  0  0  0  0  0  0
  -14.2894    9.0000    0.0000 C   0  0  0  0  0  0  0  0  0  0  0  0
    3.8971    9.0000    0.0000 C   0  0  0  0  0  0  0  0  0  0  0  0
  -12.9904    8.2500    0.0000 C   0  0  0  0  0  0  0  0  0  0  0  0
    2.5981    8.2500    0.0000 C   0  0  0  0  0  0  0  0  0  0  0  0
    1.2990    9.0000    0.0000 C   0  0  0  0  0  0  0  0  0  0  0  0
    0.0000    8.2500    0.0000 C   0  0  0  0  0  0  0  0  0  0  0  0
   -1.2990    9.0000    0.0000 C   0  0  0  0  0  0  0  0  0  0  0  0
   -2.5981    8.2500    0.0000 C   0  0  0  0  0  0  0  0  0  0  0  0
   -3.8971    9.0000    0.0000 C   0  0  0  0  0  0  0  0  0  0  0  0
   -5.1962    8.2500    0.0000 C   0  0  0  0  0  0  0  0  0  0  0  0
   -6.4952    9.0000    0.0000 C   0  0  0  0  0  0  0  0  0  0  0  0
   -7.7942    8.2500    0.0000 C   0  0  0  0  0  0  0  0  0  0  0  0
   -9.0933    9.0000    0.0000 C   0  0  0  0  0  0  0  0  0  0  0  0
  -11.6913    9.0000    0.0000 C   0  0  0  0  0  0  0  0  0  0  0  0
  -11.6913   10.5000    0.0000 O   0  0  0  0  0  0  0  0  0  0  0  0
  -10.3923    8.2500    0.0000 O   0  0  0  0  0  0  0  0  0  0  0  0
  3  1  1  0
  4  2  1  0
  3  5  2  0
  6  5  1  0
  6  7  2  0
  8  7  1  0
  9  8  1  0
 10  9  1  0
 11 10  1  0
 12 11  1  0
 13 12  1  0
 14 13  1  0
 15  4  1  0
 16 15  2  0
 17 14  1  0
 17 15  1  0
M  END
>  <NAME>  (3872) 
(E,E)-8,10-DODECADIENYL PROPIONATE

>  <SYNONYMS>  (3872) 


>  <SPECTRUM TYPE>  (3872) 
MS1

>  <INSTRUMENT TYPE>  (3872) 
EI-B

>  <INSTRUMENT>  (3872) 
SHIMADZU QP-1000

>  <ION MODE>  (3872) 
P

>  <INCHIKEY>  (3872) 
VBAWYVHXKMJINV-TWTPFVCWSA-N

>  <FORMULA>  (3872) 
C15H26O2

>  <EXACT MASS>  (3872) 
238.193280072

>  <MW>  (3872) 
238

>  <ID>  (3872) 
JP005376

>  <CONTRIBUTOR>  (3872) 
University of Tokyo Team, {Faculty of Engineering, University of Tokyo

>  <COMMENT>  (3872) 
SMILES=CCC(=O)OCCCCCCCC([H])=C([H])C([H])=C([H])C
InChI=InChI=1S/C15H26O2/c1-3-5-6-7-8-9-10-11-12-13-14-17-15(16)4-2/h3,5-7H,4,8-14H2,1-2H3/b5-3+,7-6+
computed SMILES=O=C(OCCCCCCCC=CC=CC)CC
accession=JP005376
date=2016.01.19 (Created 2008.10.21, modified 2011.05.06)
author=YAMAOKA R, KYOTO INSTITUTE OF TECHNOLOGY
license=CC BY-NC-SA
exact mass=238.19328
ionization energy=70 eV
ion type=[M]+*
computed spectral entropy=3.359624261938343
computed normalized entropy=0.820552401216324
SPLASH=splash10-053u-9200000000-57668ae97b483bb007fe
submitter=submitter = University of Tokyo Team (Faculty of Engineering, University of Tokyo)
MoNA Rating=3.75

>  <NUM PEAKS>  (3872) 
60

>  <MASS SPECTRAL PEAKS>  (3872) 
40 1.5
41 34.8
42 8.6
43 9.5
44 19
45 5
46 17.1
51 0.12
52 4.3
53 3.8
54 35.2
55 4.98
56 6.2
57 99.99
58 4.8
59 0.25
65 8.4
66 14
67 75.9
68 8
69 10.3
70 1
71 2.2
73 0.22
75 7.5
77 12.3
78 5.4
79 8.88
80 32.1
81 97.6
82 31.1
83 0.57
87 2.5
89 2.4
91 7.4
92 0.26
93 31.5
94 31.1
95 22.3
96 2.64
97 4.9
103 1.6
105 2.1
107 2.13
108 13.8
109 9.2
110 3.8
111 0.1
121 28.8
122 9.8
123 3.3
133 0.16
135 23.6
136 6.6
149 3.2
163 0.69
164 39.3
165 5.8
238 8
239 1.3

>  <PREDICTED SPECTRUM>  (3872) 
27 36
29 191
38 13
39 151
40 54
41 476
42 176
43 214
44 76
45 48
46 24
50 40
51 140
52 137
53 358
54 397
55 550
56 260
57 649
58 123
59 64
60 5
61 172
62 63
63 57
64 10
65 247
66 335
67 886
68 826
69 381
70 178
71 189
73 93
74 107
75 218
76 62
77 361
78 164
79 776
80 692
81 917
82 712
83 339
84 124
85 149
86 45
87 2
89 26
91 297
92 148
93 626
94 743
95 766
96 446
97 221
98 75
99 18
101 63
105 127
106 67
107 641
108 557
109 545
110 250
111 67
117 28
119 16
120 94
121 562
122 512
123 328
124 75
133 6
135 633
136 328
137 151
138 105
147 17
149 372
150 145
151 44
152 27
163 441
164 999
165 276
166 82
167 10
171 36
178 30
181 60
238 667
239 283

$$$$

     RDKit          2D

 19 18  0  0  0  0  0  0  0  0999 V2000
   -8.7685    4.3125    0.0000 C   0  0  0  0  0  0  0  0  0  0  0  0
    9.4180   11.8125    0.0000 C   0  0  0  0  0  0  0  0  0  0  0  0
   -7.4695    5.0625    0.0000 C   0  0  0  0  0  0  0  0  0  0  0  0
   -7.4695    6.5625    0.0000 C   0  0  0  0  0  0  0  0  0  0  0  0
   -6.1704    7.3125    0.0000 C   0  0  0  0  0  0  0  0  0  0  0  0
   -6.1704    8.8125    0.0000 C   0  0  0  0  0  0  0  0  0  0  0  0
   -4.8714    9.5625    0.0000 C   0  0  0  0  0  0  0  0  0  0  0  0
   -4.8714   11.0625    0.0000 C   0  0  0  0  0  0  0  0  0  0  0  0
   -3.5724   11.8125    0.0000 C   0  0  0  0  0  0  0  0  0  0  0  0
   -2.2733   11.0625    0.0000 C   0  0  0  0  0  0  0  0  0  0  0  0
   -0.9743   11.8125    0.0000 C   0  0  0  0  0  0  0  0  0  0  0  0
    0.3248   11.0625    0.0000 C   0  0  0  0  0  0  0  0  0  0  0  0
    1.6238   11.8125    0.0000 C   0  0  0  0  0  0  0  0  0  0  0  0
    2.9228   11.0625    0.0000 C   0  0  0  0  0  0  0  0  0  0  0  0
    4.2219   11.8125    0.0000 C   0  0  0  0  0  0  0  0  0  0  0  0
    5.5209   11.0625    0.0000 C   0  0  0  0  0  0  0  0  0  0  0  0
    6.8200   11.8125    0.0000 C   0  0  0  0  0  0  0  0  0  0  0  0
    6.8200   13.3125    0.0000 O   0  0  0  0  0  0  0  0  0  0  0  0
    8.1190   11.0625    0.0000 O   0  0  0  0  0  0  0  0  0  0  0  0
  3  1  1  0
  4  3  1  0
  5  4  1  0
  6  5  1  0
  7  6  1  0
  8  7  1  0
  8  9  2  0
 10  9  1  0
 11 10  1  0
 12 11  1  0
 13 12  1  0
 14 13  1  0
 15 14  1  0
 16 15  1  0
 17 16  1  0
 18 17  2  0
 19  2  1  0
 19 17  1  0
M  END
>  <NAME>  (3873) 
(Z)-9-HEXADECENOIC ACID METHYL ESTER

>  <SYNONYMS>  (3873) 
METHYL PALMITOOLEATE

>  <SPECTRUM TYPE>  (3873) 
MS1

>  <INSTRUMENT TYPE>  (3873) 
EI-B

>  <INSTRUMENT>  (3873) 
SHIMADZU QP-1000

>  <ION MODE>  (3873) 
P

>  <INCHIKEY>  (3873) 
IZFGRAGOVZCUFB-HJWRWDBZSA-N

>  <FORMULA>  (3873) 
C17H32O2

>  <EXACT MASS>  (3873) 
268.240230264

>  <MW>  (3873) 
268

>  <ID>  (3873) 
JP005374

>  <CONTRIBUTOR>  (3873) 
University of Tokyo Team, {Faculty of Engineering, University of Tokyo

>  <COMMENT>  (3873) 
SMILES=CCCCCCC([H])=C([H])CCCCCCCC(=O)OC
InChI=InChI=1S/C17H32O2/c1-3-4-5-6-7-8-9-10-11-12-13-14-15-16-17(18)19-2/h8-9H,3-7,10-16H2,1-2H3/b9-8-
computed SMILES=O=C(OC)CCCCCCCC=CCCCCCC
accession=JP005374
date=2016.01.19 (Created 2008.10.21, modified 2011.05.06)
author=YAMAOKA R, KYOTO INSTITUTE OF TECHNOLOGY
license=CC BY-NC-SA
exact mass=268.24023
ionization energy=70 eV
ion type=[M]+*
computed spectral entropy=3.796870015049669
computed normalized entropy=0.8077621263310149
SPLASH=splash10-052g-9200000000-e766f1f17f44a600f63e
submitter=submitter = University of Tokyo Team (Faculty of Engineering, University of Tokyo)
MoNA Rating=3.75

>  <NUM PEAKS>  (3873) 
110

>  <MASS SPECTRAL PEAKS>  (3873) 
40 1.1
41 23.9
42 5.1
43 99.99
44 66.5
45 4.1
46 8.5
52 0.12
54 22.9
55 97.8
56 21.8
57 1.76
58 1.7
59 21.1
65 2.6
66 0.21
67 27.3
68 18.2
69 51.1
70 1.22
71 6.6
72 1.3
73 5
74 4.6
75 5.9
77 1.9
79 6.5
80 0.35
81 20.4
82 14.8
83 30.9
84 2.7
85 5.3
87 26.9
88 2.7
89 0.11
91 1.9
93 3.2
94 3.7
95 1.49
96 30.3
97 29.8
98 25.5
99 0.35
100 1
101 6.2
105 1.5
107 0.3
108 3
109 11.1
110 19.1
111 1.72
112 6.7
113 3.6
114 4.3
115 0.63
119 3.7
120 1.4
121 4.4
123 1.51
124 10.5
125 9.5
126 2.1
127 0.39
128 4.5
129 4
133 3.9
134 0.31
135 4.5
136 2.6
137 10.1
138 1.01
139 6.2
140 1.9
141 8.5
142 0.15
143 3.3
147 3
148 2.6
149 0.26
150 1.5
151 6.6
152 16.7
153 0.51
155 2.3
161 1.8
163 1.2
165 0.42
166 3.8
167 1.5
171 1.2
175 0.13
179 2.5
180 1.4
185 1.2
192 0.54
193 5.4
194 16.1
195 3.5
207 0.28
208 1.8
218 2.7
219 1.7
225 0.11
235 2.4
236 25.2
237 15.8
238 0.25
268 4.7
269 2.4

>  <PREDICTED SPECTRUM>  (3873) 
14 4
15 52
16 8
17 15
18 20
26 46
27 208
28 170
29 310
30 20
31 49
32 36
33 17
36 6
38 15
39 239
40 131
41 622
42 315
43 557
44 155
45 124
50 48
51 109
52 118
53 322
54 500
55 999
56 496
57 535
58 78
59 461
60 106
61 98
62 63
63 58
64 0
65 172
66 145
67 595
68 468
69 788
70 412
71 296
72 125
73 233
74 727
75 281
76 65
77 156
78 98
79 312
80 241
81 568
82 479
83 681
84 583
85 303
86 49
87 585
88 162
89 42
91 188
92 87
93 176
94 202
95 489
96 626
97 618
98 536
99 205
100 131
101 271
102 81
103 6
104 3
105 113
106 79
107 152
108 139
109 390
110 481
111 437
112 207
113 188
114 237
115 287
116 94
117 33
118 35
119 175
120 100
121 176
122 110
123 395
124 310
125 309
126 108
127 146
128 123
129 192
130 64
131 32
132 11
133 166
134 147
135 134
136 101
137 248
138 313
139 191
140 105
141 298
142 141
143 145
144 26
147 90
148 93
149 118
150 83
151 262
152 332
153 192
154 60
155 65
156 23
157 83
158 57
161 63
162 26
163 53
164 11
165 138
166 117
167 62
168 38
169 100
170 3
171 80
172 66
175 48
176 48
177 15
178 46
179 108
180 116
181 30
182 27
183 57
185 53
186 49
192 239
193 167
194 356
195 175
196 47
197 37
199 37
200 24
207 99
208 105
209 32
211 14
213 22
218 136
219 68
220 75
221 21
225 27
236 455
237 364
238 152
239 33
268 288
269 107
270 41

$$$$

     RDKit          2D

 20 19  0  0  0  0  0  0  0  0999 V2000
    7.1447    7.8750    0.0000 C   0  0  0  0  0  0  0  0  0  0  0  0
  -13.6399   12.3750    0.0000 C   0  0  0  0  0  0  0  0  0  0  0  0
    5.8457    8.6250    0.0000 C   0  0  0  0  0  0  0  0  0  0  0  0
    4.5466    7.8750    0.0000 C   0  0  0  0  0  0  0  0  0  0  0  0
    3.2476    8.6250    0.0000 C   0  0  0  0  0  0  0  0  0  0  0  0
    1.9486    7.8750    0.0000 C   0  0  0  0  0  0  0  0  0  0  0  0
    0.6495    8.6250    0.0000 C   0  0  0  0  0  0  0  0  0  0  0  0
    0.6495   10.1250    0.0000 C   0  0  0  0  0  0  0  0  0  0  0  0
   -0.6495   10.8750    0.0000 C   0  0  0  0  0  0  0  0  0  0  0  0
   -0.6495   12.3750    0.0000 C   0  0  0  0  0  0  0  0  0  0  0  0
   -1.9486   13.1250    0.0000 C   0  0  0  0  0  0  0  0  0  0  0  0
   -3.2476   12.3750    0.0000 C   0  0  0  0  0  0  0  0  0  0  0  0
   -4.5466   13.1250    0.0000 C   0  0  0  0  0  0  0  0  0  0  0  0
   -5.8457   12.3750    0.0000 C   0  0  0  0  0  0  0  0  0  0  0  0
   -7.1447   13.1250    0.0000 C   0  0  0  0  0  0  0  0  0  0  0  0
   -8.4437   12.3750    0.0000 C   0  0  0  0  0  0  0  0  0  0  0  0
   -9.7428   13.1250    0.0000 C   0  0  0  0  0  0  0  0  0  0  0  0
  -12.3409   13.1250    0.0000 C   0  0  0  0  0  0  0  0  0  0  0  0
  -12.3409   14.6250    0.0000 O   0  0  0  0  0  0  0  0  0  0  0  0
  -11.0418   12.3750    0.0000 O   0  0  0  0  0  0  0  0  0  0  0  0
  3  1  1  0
  4  3  1  0
  5  4  1  0
  6  5  1  0
  6  7  2  0
  8  7  1  0
  9  8  1  0
 10  9  1  0
 10 11  2  0
 12 11  1  0
 13 12  1  0
 14 13  1  0
 15 14  1  0
 16 15  1  0
 17 16  1  0
 18  2  1  0
 19 18  2  0
 20 17  1  0
 20 18  1  0
M  END
>  <NAME>  (3874) 
(Z,Z)-7,11-HEXADECADIENYL ACETATE

>  <SYNONYMS>  (3874) 


>  <SPECTRUM TYPE>  (3874) 
MS1

>  <INSTRUMENT TYPE>  (3874) 
EI-B

>  <INSTRUMENT>  (3874) 
SHIMADZU QP-1000

>  <ION MODE>  (3874) 
P

>  <INCHIKEY>  (3874) 
BXJHOKLLMOYSRQ-QOXWLJPHSA-N

>  <FORMULA>  (3874) 
C18H32O2

>  <EXACT MASS>  (3874) 
280.240230264

>  <MW>  (3874) 
280

>  <ID>  (3874) 
JP005372

>  <CONTRIBUTOR>  (3874) 
University of Tokyo Team, {Faculty of Engineering, University of Tokyo

>  <COMMENT>  (3874) 
SMILES=CCCCC([H])=C([H])CCC([H])=C([H])CCCCCCOC(C)=O
InChI=InChI=1S/C18H32O2/c1-3-4-5-6-7-8-9-10-11-12-13-14-15-16-17-20-18(2)19/h6-7,10-11H,3-5,8-9,12-17H2,1-2H3/b7-6-,11-10-
computed SMILES=O=C(OCCCCCCC=CCCC=CCCCC)C
accession=JP005372
date=2016.01.19 (Created 2008.10.21, modified 2011.05.06)
author=YAMAOKA R, KYOTO INSTITUTE OF TECHNOLOGY
license=CC BY-NC-SA
exact mass=280.24023
ionization energy=70 eV
ion type=[M]+*
computed spectral entropy=3.4567895081798836
computed normalized entropy=0.7822842720510732
SPLASH=splash10-05nb-9100000000-c8f5884f5fd76e9cc769
submitter=submitter = University of Tokyo Team (Faculty of Engineering, University of Tokyo)
MoNA Rating=3.75

>  <NUM PEAKS>  (3874) 
83

>  <MASS SPECTRAL PEAKS>  (3874) 
41 9.4
42 2
43 44.5
44 9.27
45 16.7
46 77.6
47 1.9
54 2.95
55 99.99
56 8
57 9.4
58 0.82
59 11.5
60 1
61 6.8
65 0.22
66 3.5
67 44.9
68 18.6
69 1.91
70 4.2
71 4.9
72 4.3
73 1.1
75 1.8
77 3
78 1.3
79 1.1
80 8.8
81 45.7
82 27.1
83 1.06
84 1.6
85 1.6
86 3.3
87 0.95
88 3.6
89 15.6
91 2.2
92 0.13
93 7.9
94 6.2
95 20
96 2.37
97 12.5
98 1.5
99 2.8
101 0.36
102 3.2
103 7.2
105 1.1
106 0.1
107 6.3
109 8
110 8.5
111 0.21
115 1.2
117 2.3
119 1.2
120 0.15
121 8.9
122 6.5
123 8.7
124 0.78
125 1.4
131 2.3
132 1.4
133 0.66
134 1.3
135 6
136 4.6
137 0.45
138 3.8
147 2.6
148 1.3
149 0.6
150 2.9
151 1.5
152 1.3
163 0.38
164 1.8
177 2.4
220 3.3

>  <PREDICTED SPECTRUM>  (3874) 
27 81
28 11
29 139
39 148
40 39
41 795
42 273
43 999
44 153
45 107
46 1
49 3
50 17
51 90
52 92
53 372
54 619
55 948
56 233
57 357
58 61
59 51
60 27
61 148
62 6
63 25
65 189
66 283
67 921
68 635
69 561
70 192
71 205
72 68
73 144
74 35
76 3
77 230
78 165
79 568
80 532
81 874
82 729
83 415
84 165
85 197
86 47
87 75
91 295
92 154
93 431
94 412
95 722
96 617
97 309
98 94
99 45
100 5
101 79
103 22
104 22
105 178
106 139
107 364
108 380
109 466
110 366
111 233
112 108
113 56
117 40
118 27
119 132
120 61
121 415
122 296
123 317
124 317
125 151
126 57
127 108
128 41
129 2
132 15
133 77
135 388
136 266
137 185
138 217
139 88
140 45
141 68
145 23
149 245
150 194
151 181
152 189
153 105
154 36
155 14
159 41
163 151
164 119
165 118
166 104
167 59
168 79
169 49
177 127
178 124
179 79
180 69
181 63
191 146
192 170
193 76
194 48
195 42
197 40
203 7
205 89
207 0
209 16
211 12
219 24
220 381
221 171
222 52
223 15
237 68
238 100
280 187
281 39

$$$$

     RDKit          2D

 20 19  0  0  0  0  0  0  0  0999 V2000
   -9.7428    3.3750    0.0000 C   0  0  0  0  0  0  0  0  0  0  0  0
    8.4437   12.3750    0.0000 C   0  0  0  0  0  0  0  0  0  0  0  0
   -8.4437    4.1250    0.0000 C   0  0  0  0  0  0  0  0  0  0  0  0
   -8.4437    5.6250    0.0000 C   0  0  0  0  0  0  0  0  0  0  0  0
   -7.1447    6.3750    0.0000 C   0  0  0  0  0  0  0  0  0  0  0  0
   -7.1447    7.8750    0.0000 C   0  0  0  0  0  0  0  0  0  0  0  0
   -5.8457    8.6250    0.0000 C   0  0  0  0  0  0  0  0  0  0  0  0
   -5.8457   10.1250    0.0000 C   0  0  0  0  0  0  0  0  0  0  0  0
   -4.5466   10.8750    0.0000 C   0  0  0  0  0  0  0  0  0  0  0  0
   -4.5466   12.3750    0.0000 C   0  0  0  0  0  0  0  0  0  0  0  0
   -3.2476   13.1250    0.0000 C   0  0  0  0  0  0  0  0  0  0  0  0
   -1.9486   12.3750    0.0000 C   0  0  0  0  0  0  0  0  0  0  0  0
   -0.6495   13.1250    0.0000 C   0  0  0  0  0  0  0  0  0  0  0  0
    0.6495   12.3750    0.0000 C   0  0  0  0  0  0  0  0  0  0  0  0
    1.9486   13.1250    0.0000 C   0  0  0  0  0  0  0  0  0  0  0  0
    3.2476   12.3750    0.0000 C   0  0  0  0  0  0  0  0  0  0  0  0
    4.5466   13.1250    0.0000 C   0  0  0  0  0  0  0  0  0  0  0  0
    7.1447   13.1250    0.0000 C   0  0  0  0  0  0  0  0  0  0  0  0
    7.1447   14.6250    0.0000 O   0  0  0  0  0  0  0  0  0  0  0  0
    5.8457   12.3750    0.0000 O   0  0  0  0  0  0  0  0  0  0  0  0
  3  1  1  0
  4  3  1  0
  5  4  1  0
  6  5  1  0
  7  6  1  0
  8  7  1  0
  9  8  1  0
 10  9  1  0
 10 11  2  0
 12 11  1  0
 13 12  1  0
 14 13  1  0
 15 14  1  0
 16 15  1  0
 17 16  1  0
 18  2  1  0
 19 18  2  0
 20 17  1  0
 20 18  1  0
M  END
>  <NAME>  (3875) 
(Z)-7-HEXADECENYL ACETATE

>  <SYNONYMS>  (3875) 


>  <SPECTRUM TYPE>  (3875) 
MS1

>  <INSTRUMENT TYPE>  (3875) 
EI-B

>  <INSTRUMENT>  (3875) 
SHIMADZU QP-1000

>  <ION MODE>  (3875) 
P

>  <INCHIKEY>  (3875) 
QVXFGVVYTKZLJN-KHPPLWFESA-N

>  <FORMULA>  (3875) 
C18H34O2

>  <EXACT MASS>  (3875) 
282.255880328

>  <MW>  (3875) 
282

>  <ID>  (3875) 
JP005370

>  <CONTRIBUTOR>  (3875) 
University of Tokyo Team, {Faculty of Engineering, University of Tokyo

>  <COMMENT>  (3875) 
SMILES=CCCCCCCCC([H])=C([H])CCCCCCOC(C)=O
InChI=InChI=1S/C18H34O2/c1-3-4-5-6-7-8-9-10-11-12-13-14-15-16-17-20-18(2)19/h10-11H,3-9,12-17H2,1-2H3/b11-10-
computed SMILES=O=C(OCCCCCCC=CCCCCCCCC)C
accession=JP005370
date=2016.01.19 (Created 2008.10.21, modified 2011.05.06)
author=YAMAOKA R, KYOTO INSTITUTE OF TECHNOLOGY
license=CC BY-NC-SA
exact mass=282.25588
ionization energy=70 eV
ion type=[M]+*
computed spectral entropy=3.307205827106011
computed normalized entropy=0.789374311427486
SPLASH=splash10-00kg-9100000000-88a8e6bacc340e3496b7
submitter=submitter = University of Tokyo Team (Faculty of Engineering, University of Tokyo)
MoNA Rating=3.75

>  <NUM PEAKS>  (3875) 
66

>  <MASS SPECTRAL PEAKS>  (3875) 
41 8
42 1.8
43 48.7
44 99.99
45 13.9
46 59.4
47 1.5
54 2.7
55 48.5
56 11.9
57 17.9
58 0.66
59 8.3
61 8.3
65 1.5
66 0.42
67 45.5
68 24.4
69 25.4
70 0.77
71 5.6
72 3
73 7.7
75 0.13
77 1.5
79 5.2
80 3.5
81 3.47
82 42.7
83 17.7
84 3
85 0.19
86 2.3
87 6.2
88 2.3
89 1
93 1.5
94 1.8
95 25.1
96 3.48
97 12.8
98 2.2
101 2.1
102 0.22
103 4.7
108 3
109 17.6
110 1.33
111 5.1
112 1.1
117 1.3
122 0.15
123 8.5
124 9
125 2.2
131 0.13
133 3.8
137 4.7
138 5.3
147 0.14
151 1.4
165 1.6
166 2.6
194 0.22
222 9.8
223 1.9

>  <PREDICTED SPECTRUM>  (3875) 
27 8
29 105
39 140
40 36
41 705
42 313
43 999
44 181
45 113
50 25
51 82
52 86
53 293
54 563
55 761
56 321
57 399
58 94
59 74
60 32
61 261
62 25
63 52
64 1
65 151
66 260
67 761
68 700
69 583
70 271
71 258
72 64
73 162
74 70
77 158
78 88
79 322
80 283
81 762
82 832
83 505
84 166
85 153
86 67
87 65
88 31
91 121
92 46
93 182
94 232
95 670
96 751
97 374
98 115
99 77
100 19
101 65
105 82
106 23
107 158
108 168
109 503
110 475
111 260
112 94
113 95
114 75
115 69
116 36
121 87
122 134
123 374
124 348
125 170
126 94
127 88
128 41
129 75
130 4
131 10
133 28
134 30
135 93
136 94
137 235
138 266
139 109
140 99
141 47
142 18
143 28
147 5
149 51
150 67
151 181
152 225
153 116
154 55
155 78
156 26
157 21
163 14
164 26
165 152
166 204
167 91
168 50
169 56
171 18
172 20
178 20
179 122
180 115
181 75
182 41
183 36
184 18
185 28
193 106
194 210
195 109
196 47
197 21
207 55
208 8
209 7
210 23
211 31
212 15
221 43
222 517
223 233
224 79
226 18
237 6
239 94
241 24
282 117
283 44

$$$$

     RDKit          2D

 17 16  0  0  0  0  0  0  0  0999 V2000
   -8.1190    3.9375    0.0000 C   0  0  0  0  0  0  0  0  0  0  0  0
   -6.8200    4.6875    0.0000 C   0  0  0  0  0  0  0  0  0  0  0  0
   -6.8200    6.1875    0.0000 C   0  0  0  0  0  0  0  0  0  0  0  0
   -5.5209    6.9375    0.0000 C   0  0  0  0  0  0  0  0  0  0  0  0
   -5.5209    8.4375    0.0000 C   0  0  0  0  0  0  0  0  0  0  0  0
   -4.2219    9.1875    0.0000 C   0  0  0  0  0  0  0  0  0  0  0  0
   -4.2219   10.6875    0.0000 C   0  0  0  0  0  0  0  0  0  0  0  0
   -2.9228   11.4375    0.0000 C   0  0  0  0  0  0  0  0  0  0  0  0
   -1.6238   10.6875    0.0000 C   0  0  0  0  0  0  0  0  0  0  0  0
   -0.3248   11.4375    0.0000 C   0  0  0  0  0  0  0  0  0  0  0  0
    0.9743   10.6875    0.0000 C   0  0  0  0  0  0  0  0  0  0  0  0
    2.2733   11.4375    0.0000 C   0  0  0  0  0  0  0  0  0  0  0  0
    3.5724   10.6875    0.0000 C   0  0  0  0  0  0  0  0  0  0  0  0
    4.8714   11.4375    0.0000 C   0  0  0  0  0  0  0  0  0  0  0  0
    6.1704   10.6875    0.0000 C   0  0  0  0  0  0  0  0  0  0  0  0
    7.4695   11.4375    0.0000 C   0  0  0  0  0  0  0  0  0  0  0  0
    8.7685   10.6875    0.0000 O   0  0  0  0  0  0  0  0  0  0  0  0
  2  1  1  0
  3  2  1  0
  4  3  1  0
  5  4  1  0
  6  5  1  0
  7  6  1  0
  7  8  2  0
  9  8  1  0
 10  9  1  0
 11 10  1  0
 12 11  1  0
 13 12  1  0
 14 13  1  0
 15 14  1  0
 16 15  1  0
 17 16  1  0
M  END
>  <NAME>  (3876) 
(Z)-9-HEXADECEN-1-OL

>  <SYNONYMS>  (3876) 


>  <SPECTRUM TYPE>  (3876) 
MS1

>  <INSTRUMENT TYPE>  (3876) 
EI-B

>  <INSTRUMENT>  (3876) 
SHIMADZU QP-1000

>  <ION MODE>  (3876) 
P

>  <INCHIKEY>  (3876) 
LBIYNOAMNIKVKF-FPLPWBNLSA-N

>  <FORMULA>  (3876) 
C16H32O

>  <EXACT MASS>  (3876) 
240.24531564400002

>  <MW>  (3876) 
240

>  <ID>  (3876) 
JP005368

>  <CONTRIBUTOR>  (3876) 
University of Tokyo Team, {Faculty of Engineering, University of Tokyo

>  <COMMENT>  (3876) 
SMILES=CCCCCCC([H])=C([H])CCCCCCCCO
InChI=InChI=1S/C16H32O/c1-2-3-4-5-6-7-8-9-10-11-12-13-14-15-16-17/h7-8,17H,2-6,9-16H2,1H3/b8-7-
computed SMILES=OCCCCCCCCC=CCCCCCC
accession=JP005368
date=2016.01.19 (Created 2008.10.21, modified 2011.05.06)
author=YAMAOKA R, KYOTO INSTITUTE OF TECHNOLOGY
license=CC BY-NC-SA
exact mass=240.24532
ionization energy=70 eV
ion type=[M]+*
computed spectral entropy=3.3914183680229497
computed normalized entropy=0.7930051759110022
SPLASH=splash10-067j-9100000000-cf863e6bcb2d298bcc92
submitter=submitter = University of Tokyo Team (Faculty of Engineering, University of Tokyo)
MoNA Rating=3.75

>  <NUM PEAKS>  (3876) 
72

>  <MASS SPECTRAL PEAKS>  (3876) 
40 1.1
41 21.7
42 4.9
43 9.56
44 52.3
45 9.3
46 20
52 0.1
54 41.8
55 99.99
56 23.1
57 2.12
58 4.4
59 4.4
65 2.7
66 0.68
67 61.5
68 42.6
69 47.5
70 1.39
71 8.4
72 3
73 7.4
77 0.2
79 5.5
80 4.3
81 51.4
82 6.3
83 25.8
84 5.2
85 4
86 0.14
87 5.4
88 2
89 9.7
93 0.17
95 40.5
96 46.9
97 17
98 0.32
99 1.4
101 1.8
102 1.8
103 0.45
109 24.1
110 21.9
111 6.5
112 0.16
117 1.7
121 1.2
123 13.2
124 1.25
125 2.3
131 1.8
133 5.4
134 0.1
137 6.4
138 6.5
139 1.1
147 0.16
151 2.6
152 2.9
161 1.1
163 0.11
165 2.1
166 2.8
177 1.1
179 0.11
180 1.1
194 2.4
222 7.3
223 1.5

>  <PREDICTED SPECTRUM>  (3876) 
18 5
27 70
28 30
29 170
30 1
31 59
32 19
39 195
40 74
41 879
42 406
43 720
44 264
45 205
46 26
47 11
50 13
51 98
52 92
53 338
54 644
55 999
56 470
57 525
58 108
59 110
60 52
61 63
62 31
63 63
64 8
65 196
66 268
67 894
68 774
69 788
70 416
71 360
72 115
73 147
74 53
75 24
77 188
78 121
79 394
80 320
81 882
82 915
83 636
84 355
85 271
86 115
87 143
88 90
89 22
91 205
92 76
93 208
94 230
95 728
96 789
97 543
98 333
99 171
100 109
101 140
102 46
103 28
105 123
106 33
107 181
108 238
109 570
110 527
111 346
112 184
113 131
114 130
115 85
116 16
117 55
119 93
120 28
121 253
122 204
123 411
124 371
125 204
126 129
127 152
128 124
129 108
130 32
133 45
134 13
135 102
136 94
137 268
138 293
139 115
140 86
141 92
142 11
143 30
144 18
145 19
147 74
148 77
149 79
150 33
151 207
152 223
153 116
154 102
155 71
157 12
158 9
159 0
161 76
162 17
163 68
164 58
165 156
166 166
167 62
168 39
169 53
171 7
172 22
173 30
175 6
178 44
179 88
180 135
181 79
182 52
183 28
185 24
189 1
193 112
194 150
195 74
196 39
197 49
207 16
208 5
209 14
210 36
212 2
221 74
222 304
223 129
224 62
225 29
226 54
239 6
240 12
241 119

$$$$

     RDKit          2D

 13 12  0  0  0  0  0  0  0  0999 V2000
    3.8971    6.7500    0.0000 C   0  0  0  0  0  0  0  0  0  0  0  0
    2.5981    7.5000    0.0000 C   0  0  0  0  0  0  0  0  0  0  0  0
    1.2990    6.7500    0.0000 C   0  0  0  0  0  0  0  0  0  0  0  0
    0.0000    7.5000    0.0000 C   0  0  0  0  0  0  0  0  0  0  0  0
   -1.2990    6.7500    0.0000 C   0  0  0  0  0  0  0  0  0  0  0  0
   -2.5981    7.5000    0.0000 C   0  0  0  0  0  0  0  0  0  0  0  0
   -3.8971    6.7500    0.0000 C   0  0  0  0  0  0  0  0  0  0  0  0
   -5.1962    7.5000    0.0000 C   0  0  0  0  0  0  0  0  0  0  0  0
   -6.4952    6.7500    0.0000 C   0  0  0  0  0  0  0  0  0  0  0  0
   -7.7942    7.5000    0.0000 C   0  0  0  0  0  0  0  0  0  0  0  0
   -9.0933    6.7500    0.0000 C   0  0  0  0  0  0  0  0  0  0  0  0
  -10.3923    7.5000    0.0000 C   0  0  0  0  0  0  0  0  0  0  0  0
  -11.6913    6.7500    0.0000 O   0  0  0  0  0  0  0  0  0  0  0  0
  2  1  1  0
  2  3  2  0
  4  3  1  0
  4  5  2  0
  6  5  1  0
  7  6  1  0
  8  7  1  0
  9  8  1  0
 10  9  1  0
 11 10  1  0
 12 11  1  0
 13 12  1  0
M  END
>  <NAME>  (3877) 
(E,E)-8,10-DODECADIEN-1-OL

>  <SYNONYMS>  (3877) 


>  <SPECTRUM TYPE>  (3877) 
MS1

>  <INSTRUMENT TYPE>  (3877) 
EI-B

>  <INSTRUMENT>  (3877) 
SHIMADZU QP-1000

>  <ION MODE>  (3877) 
P

>  <INCHIKEY>  (3877) 
CSWBSLXBXRFNST-MQQKCMAXSA-N

>  <FORMULA>  (3877) 
C12H22O

>  <EXACT MASS>  (3877) 
182.167065324

>  <MW>  (3877) 
182

>  <ID>  (3877) 
JP005366

>  <CONTRIBUTOR>  (3877) 
University of Tokyo Team, {Faculty of Engineering, University of Tokyo

>  <COMMENT>  (3877) 
SMILES=OCCCCCCCC([H])=C([H])C([H])=C([H])C
InChI=InChI=1S/C12H22O/c1-2-3-4-5-6-7-8-9-10-11-12-13/h2-5,13H,6-12H2,1H3/b3-2+,5-4+
computed SMILES=OCCCCCCCC=CC=CC
accession=JP005366
date=2016.01.19 (Created 2008.10.21, modified 2011.05.06)
author=YAMAOKA R, KYOTO INSTITUTE OF TECHNOLOGY
license=CC BY-NC-SA
exact mass=182.16707
ionization energy=70 eV
ion type=[M]+*
computed spectral entropy=3.3709594045298243
computed normalized entropy=0.7882213178954897
SPLASH=splash10-0002-9100000000-8c375351e5cf881ff389
submitter=submitter = University of Tokyo Team (Faculty of Engineering, University of Tokyo)
MoNA Rating=3.75

>  <NUM PEAKS>  (3877) 
72

>  <MASS SPECTRAL PEAKS>  (3877) 
41 14.8
42 3.6
43 42.1
44 2.34
45 16
46 99.99
47 2.6
52 0.23
53 1.6
54 15.7
55 23.7
56 0.25
57 5.9
58 8.2
59 12.9
60 0.13
65 4
66 4.6
67 36.1
68 5.86
69 7.8
70 3.5
71 3.5
72 0.39
73 28.1
74 1.3
75 2.1
77 0.63
78 1.8
79 31.6
80 8.5
81 4.58
82 14
83 3
84 1.3
86 0.19
87 8.8
88 3.5
89 15.8
91 0.29
92 1.6
93 8.8
94 6.7
95 0.87
96 7
97 2.5
98 2.8
101 0.28
102 2.1
103 6.1
105 1.1
107 0.51
108 2.7
109 3.4
110 1.3
111 0.16
117 2.4
119 1.3
121 5.8
122 0.2
123 1.1
131 2.3
133 5.9
135 0.37
136 1
147 1.3
149 1.2
164 0.36
177 1
181 1.3
182 10.5
183 1.4

>  <PREDICTED SPECTRUM>  (3877) 
10 2
27 40
29 155
30 7
31 91
38 9
39 229
40 94
41 898
42 389
43 651
44 253
45 132
49 9
50 38
51 187
52 144
53 419
54 591
55 862
56 344
57 337
58 122
59 155
60 9
61 85
62 19
63 57
64 1
65 267
66 291
67 999
68 863
69 570
70 328
71 287
72 79
73 36
77 306
78 191
79 624
80 447
81 928
82 786
83 454
84 241
85 259
86 123
87 54
91 217
92 92
93 392
94 344
95 712
96 544
97 341
98 227
99 112
100 26
101 68
105 22
106 67
107 347
108 309
109 399
110 326
111 180
112 103
113 49
114 1
115 79
120 21
121 260
122 238
123 257
124 167
125 100
126 30
127 25
135 270
136 142
137 86
138 114
139 44
140 35
149 100
150 8
151 28
153 23
164 162
165 48
166 27
167 40
182 400
183 157
184 0

$$$$

     RDKit          2D

 22 22  0  0  0  0  0  0  0  0999 V2000
    9.7331    0.0488    0.0000 C   0  0  0  0  0  0  0  0  0  0  0  0
  -15.1493    0.0496    0.0000 C   0  0  0  0  0  0  0  0  0  0  0  0
    8.4342    0.7990    0.0000 C   0  0  0  0  0  0  0  0  0  0  0  0
    7.1351    0.0492    0.0000 C   0  0  0  0  0  0  0  0  0  0  0  0
    5.8362    0.7994    0.0000 C   0  0  0  0  0  0  0  0  0  0  0  0
    4.5370    0.0496    0.0000 C   0  0  0  0  0  0  0  0  0  0  0  0
    3.2381    0.7998    0.0000 C   0  0  0  0  0  0  0  0  0  0  0  0
    1.9389    0.0500    0.0000 C   0  0  0  0  0  0  0  0  0  0  0  0
    0.6400    0.8002    0.0000 C   0  0  0  0  0  0  0  0  0  0  0  0
   -0.6592    0.0504    0.0000 C   0  0  0  0  0  0  0  0  0  0  0  0
   -1.9581    0.8006    0.0000 C   0  0  0  0  0  0  0  0  0  0  0  0
   -8.6542    0.8006    0.0000 C   0  0  0  0  0  0  0  0  0  0  0  0
   -9.9531    0.0504    0.0000 C   0  0  0  0  0  0  0  0  0  0  0  0
   -3.2572    0.0508    0.0000 C   0  0  0  0  0  0  0  0  0  0  0  0
   -7.3551    0.0508    0.0000 C   0  0  0  0  0  0  0  0  0  0  0  0
  -11.2523    0.8002    0.0000 C   0  0  0  0  0  0  0  0  0  0  0  0
   -4.5562    0.8010    0.0000 C   0  0  0  0  0  0  0  0  0  0  0  0
   -6.0562    0.8010    0.0000 C   0  0  0  0  0  0  0  0  0  0  0  0
  -12.5512    0.0500    0.0000 C   0  0  0  0  0  0  0  0  0  0  0  0
  -12.5510   -1.4500    0.0000 O   0  0  0  0  0  0  0  0  0  0  0  0
  -13.8504    0.7998    0.0000 O   0  0  0  0  0  0  0  0  0  0  0  0
   -5.3062    2.1010    0.0000 O   0  0  0  0  0  0  0  0  0  0  0  0
  3  1  1  0
  4  3  1  0
  5  4  1  0
  6  5  1  0
  7  6  1  0
  8  7  1  0
  9  8  1  0
 10  9  1  0
 11 10  1  0
 13 12  1  0
 14 11  1  0
 15 12  1  0
 16 13  1  0
 17 14  1  0
 18 15  1  0
 18 17  1  0
 19 16  1  0
 20 19  2  0
 21  2  1  0
 21 19  1  0
 22 17  1  0
 22 18  1  0
M  END
>  <NAME>  (3878) 
6,7-EPOXYOCTADECANOIC ACID METHYL ESTER

>  <SYNONYMS>  (3878) 


>  <SPECTRUM TYPE>  (3878) 
MS1

>  <INSTRUMENT TYPE>  (3878) 
EI-B

>  <INSTRUMENT>  (3878) 
HITACHI M-80B

>  <ION MODE>  (3878) 
P

>  <INCHIKEY>  (3878) 
XZBRNQGAEDOQPT-UHFFFAOYSA-N

>  <FORMULA>  (3878) 
C19H36O3

>  <EXACT MASS>  (3878) 
312.26644501199996

>  <MW>  (3878) 
312

>  <ID>  (3878) 
JP005364

>  <CONTRIBUTOR>  (3878) 
University of Tokyo Team, {Faculty of Engineering, University of Tokyo

>  <COMMENT>  (3878) 
SMILES=CCCCCCCCCCCC(O1)C(CCCCC(=O)OC)1
InChI=InChI=1S/C19H36O3/c1-3-4-5-6-7-8-9-10-11-14-17-18(22-17)15-12-13-16-19(20)21-2/h17-18H,3-16H2,1-2H3
computed SMILES=O=C(OC)CCCCC1OC1CCCCCCCCCCC
accession=JP005364
date=2016.01.19 (Created 2008.10.21, modified 2011.05.06)
author=YAMAOKA R, KYOTO INSTITUTE OF TECHNOLOGY
license=CC BY-NC-SA
exact mass=312.26645
ionization energy=70 eV
ion type=[M]+*
computed spectral entropy=3.7286732099768587
computed normalized entropy=0.8349193738227138
SPLASH=splash10-07bf-9300000000-5370036622a9596ac699
submitter=submitter = University of Tokyo Team (Faculty of Engineering, University of Tokyo)
MoNA Rating=3.75

>  <NUM PEAKS>  (3878) 
87

>  <MASS SPECTRAL PEAKS>  (3878) 
41 86.08
42 18.71
43 84.2
45 4.38
53 6.77
54 13.01
55 83.74
56 25.46
57 57.79
58 5.85
59 25.5
65 1.34
66 1.71
67 49.31
68 29.72
69 74.04
70 28.78
71 23.71
72 2.29
73 6.94
74 19.87
75 1.01
77 1.89
79 5.01
80 2.84
81 17.48
82 19.41
83 34.99
84 21.01
85 30.7
86 2.04
87 31.31
88 2.59
93 3.57
94 2.58
95 20.28
96 11.29
97 40.27
98 15.13
99 4.03
100 2.25
101 3.43
102 1.14
107 3.17
109 7.95
110 3.17
111 13.26
112 23.9
113 99.99
114 7.65
115 10.9
116 4.72
121 2.02
123 3.89
124 2
125 5.78
126 6.83
127 3.93
128 6.23
129 30.05
130 3.81
135 1.22
137 2.42
138 2.29
139 3.36
140 5.12
141 1.09
143 3.3
144 6.93
145 19.27
146 1.84
147 1.52
153 1.61
154 1.97
155 1.19
157 2.85
158 5.27
165 1.1
166 1.88
171 1.31
172 3.67
183 2.35
197 14.35
198 3.86
225 1.86
238 2.66
239 1.03

>  <PREDICTED SPECTRUM>  (3878) 
15 3
17 17
18 31
25 11
26 60
27 222
28 162
29 333
30 89
31 163
32 53
33 45
34 5
36 5
37 33
38 62
39 322
40 176
41 886
42 483
43 917
44 259
45 293
46 65
47 18
48 35
49 18
50 75
51 158
52 134
53 352
54 425
55 999
56 469
57 752
58 329
59 486
60 174
61 135
62 34
63 65
64 21
65 194
66 215
67 663
68 488
69 809
70 457
71 523
72 192
73 249
74 654
75 226
76 67
77 246
78 166
79 411
80 293
81 648
82 474
83 630
84 465
85 438
86 144
87 679
88 215
89 35
91 238
92 125
93 341
94 322
95 595
96 463
97 531
98 457
99 287
100 181
101 306
102 56
103 70
104 83
105 138
106 106
107 280
108 229
109 434
110 259
111 360
112 293
113 361
114 266
115 329
116 139
117 153
118 102
119 133
120 127
121 280
122 243
123 314
124 294
125 292
126 266
127 275
128 173
129 361
130 173
131 106
132 95
133 89
134 117
135 274
136 178
137 260
138 216
139 283
140 206
141 318
142 176
143 280
144 168
145 110
146 64
147 116
148 106
149 241
150 166
151 159
152 176
153 244
154 274
155 478
156 201
157 291
158 332
159 165
160 107
161 83
162 28
163 93
164 102
165 163
166 144
167 208
168 183
169 186
170 169
171 254
172 226
173 114
174 24
175 51
176 49
177 107
178 100
179 113
180 126
181 149
182 105
183 226
184 90
185 162
186 116
187 87
188 6
189 97
191 17
192 25
193 77
194 105
195 202
196 119
197 153
198 174
199 276
200 134
201 76
202 5
203 13
204 18
205 85
206 55
207 87
208 63
209 128
210 44
211 73
212 75
213 85
214 75
215 43
216 17
217 26
218 62
219 83
220 197
221 89
222 59
223 45
224 45
225 57
226 26
227 100
228 62
229 8
234 9
235 30
236 97
237 109
238 130
239 120
240 49
241 90
242 12
244 16
245 82
246 42
247 41
251 31
252 65
253 54
254 31
255 81
256 52
257 41
261 24
262 135
263 117
264 128
265 63
266 62
268 20
269 60
279 70
280 90
281 195
282 101
283 69
284 171
293 12
294 221
295 156
296 58
297 35
298 23
312 150
313 57

$$$$

     RDKit          2D

 21 20  0  0  0  0  0  0  0  0999 V2000
    1.6238   10.6875    0.0000 C   0  0  0  0  0  0  0  0  0  0  0  0
  -17.8618    2.4375    0.0000 C   0  0  0  0  0  0  0  0  0  0  0  0
    0.3248   11.4375    0.0000 C   0  0  0  0  0  0  0  0  0  0  0  0
   -0.9743   10.6875    0.0000 C   0  0  0  0  0  0  0  0  0  0  0  0
   -2.2733   11.4375    0.0000 C   0  0  0  0  0  0  0  0  0  0  0  0
   -3.5724   10.6875    0.0000 C   0  0  0  0  0  0  0  0  0  0  0  0
   -4.8714   11.4375    0.0000 C   0  0  0  0  0  0  0  0  0  0  0  0
   -6.1704   10.6875    0.0000 C   0  0  0  0  0  0  0  0  0  0  0  0
   -7.4695   11.4375    0.0000 C   0  0  0  0  0  0  0  0  0  0  0  0
   -8.7685   10.6875    0.0000 C   0  0  0  0  0  0  0  0  0  0  0  0
  -10.0675   11.4375    0.0000 C   0  0  0  0  0  0  0  0  0  0  0  0
  -11.3666   10.6875    0.0000 C   0  0  0  0  0  0  0  0  0  0  0  0
  -12.6656   11.4375    0.0000 C   0  0  0  0  0  0  0  0  0  0  0  0
  -13.9647   10.6875    0.0000 C   0  0  0  0  0  0  0  0  0  0  0  0
  -13.9647    9.1875    0.0000 C   0  0  0  0  0  0  0  0  0  0  0  0
  -15.2637    8.4375    0.0000 C   0  0  0  0  0  0  0  0  0  0  0  0
  -15.2637    6.9375    0.0000 C   0  0  0  0  0  0  0  0  0  0  0  0
  -16.5627    6.1875    0.0000 C   0  0  0  0  0  0  0  0  0  0  0  0
  -16.5627    4.6875    0.0000 C   0  0  0  0  0  0  0  0  0  0  0  0
  -15.2637    3.9375    0.0000 O   0  0  0  0  0  0  0  0  0  0  0  0
  -17.8618    3.9375    0.0000 O   0  0  0  0  0  0  0  0  0  0  0  0
  3  1  1  0
  4  3  1  0
  5  4  1  0
  6  5  1  0
  7  6  1  0
  8  7  1  0
  9  8  1  0
 10  9  1  0
 11 10  1  0
 12 11  1  0
 13 12  1  0
 13 14  2  0
 15 14  1  0
 16 15  1  0
 17 16  1  0
 18 17  1  0
 19 18  1  0
 20 19  2  0
 21  2  1  0
 21 19  1  0
M  END
>  <NAME>  (3879) 
(Z)-6-OCTADECENOIC ACID METHYL ESTER

>  <SYNONYMS>  (3879) 


>  <SPECTRUM TYPE>  (3879) 
MS1

>  <INSTRUMENT TYPE>  (3879) 
EI-B

>  <INSTRUMENT>  (3879) 
HITACHI M-80B

>  <ION MODE>  (3879) 
P

>  <INCHIKEY>  (3879) 
QRTVDKVXAFJVRU-YPKPFQOOSA-N

>  <FORMULA>  (3879) 
C19H36O2

>  <EXACT MASS>  (3879) 
296.271530392

>  <MW>  (3879) 
296

>  <ID>  (3879) 
JP005362

>  <CONTRIBUTOR>  (3879) 
University of Tokyo Team, {Faculty of Engineering, University of Tokyo

>  <COMMENT>  (3879) 
SMILES=CCCCCCCCCCCC([H])=C([H])CCCCC(=O)OC
InChI=InChI=1S/C19H36O2/c1-3-4-5-6-7-8-9-10-11-12-13-14-15-16-17-18-19(20)21-2/h13-14H,3-12,15-18H2,1-2H3/b14-13-
computed SMILES=O=C(OC)CCCCC=CCCCCCCCCCCC
accession=JP005362
date=2016.01.19 (Created 2008.10.21, modified 2011.05.06)
author=YAMAOKA R, KYOTO INSTITUTE OF TECHNOLOGY
license=CC BY-NC-SA
exact mass=296.27153
ionization energy=70 eV
ion type=[M]+*
computed spectral entropy=4.014399515856306
computed normalized entropy=0.8491792232416759
SPLASH=splash10-00l7-9200000000-25b3ada4753ac2bcad99
submitter=submitter = University of Tokyo Team (Faculty of Engineering, University of Tokyo)
MoNA Rating=3.75

>  <NUM PEAKS>  (3879) 
113

>  <MASS SPECTRAL PEAKS>  (3879) 
41 99.99
42 15.49
43 86.92
45 4.77
51 1.19
53 11.77
54 34.82
55 85.89
56 20.25
57 42.01
58 2.1
59 27.24
65 4.69
66 2.95
67 44.93
68 36.58
69 54.47
70 15.74
71 20.16
73 4.87
74 83.73
75 11.29
77 4.32
79 17.47
80 12.57
81 46.57
82 28.98
83 40.71
84 70.67
85 14.33
87 39.28
88 2.71
89 1.16
91 3.95
92 1.84
93 5.5
94 5.84
95 32.94
96 58.91
97 47.43
98 38.98
99 5.73
100 1.82
101 9.44
105 2.42
107 2.44
108 3.26
109 16.99
110 28.85
111 25.08
112 6.99
113 6.43
114 5.61
115 7.03
119 4.17
120 1.55
121 6.92
122 2
123 20.43
124 11.34
125 8.32
126 2.14
127 4.78
128 5.74
129 4.66
130 1.06
133 2.75
134 3.54
135 5.99
136 1.32
137 12.09
138 8.11
139 7.19
140 2.13
141 6.98
142 2.31
143 5.8
147 2.15
148 2.56
149 1.72
151 6.44
152 6.49
153 4.77
155 1.75
157 1.12
161 1.16
164 1.76
165 4.84
166 5.56
169 2.47
179 1.6
180 15.43
181 2.9
183 1.81
185 1.9
193 1.9
194 2.73
207 1.18
208 1.33
220 6.13
221 4
222 15.69
223 4.83
235 3.11
236 2.05
246 2.18
247 2.03
253 1.03
264 29.71
265 13.31
266 1.69
296 4
297 1.07

>  <PREDICTED SPECTRUM>  (3879) 
14 5
15 65
16 14
17 23
18 28
25 0
26 45
27 189
28 183
29 312
30 94
31 89
32 40
33 21
36 5
38 7
39 228
40 126
41 617
42 308
43 590
44 160
45 127
50 43
51 97
52 111
53 311
54 495
55 999
56 504
57 583
58 80
59 454
60 107
61 60
62 59
63 47
65 161
66 142
67 591
68 466
69 809
70 424
71 332
72 142
73 183
74 742
75 304
76 70
77 140
78 85
79 303
80 229
81 565
82 500
83 714
84 595
85 321
86 52
87 608
88 166
89 51
91 177
92 79
93 171
94 187
95 498
96 633
97 652
98 552
99 201
100 114
101 284
102 92
104 1
105 112
106 94
107 148
108 170
109 400
110 476
111 477
112 233
113 189
114 243
115 264
116 87
117 27
118 22
119 163
120 104
121 197
122 120
123 382
124 306
125 341
126 147
127 158
128 169
129 190
130 70
131 28
132 1
133 152
134 150
135 158
136 102
137 277
138 313
139 235
140 133
141 287
142 118
143 210
144 82
145 25
146 24
147 113
148 122
149 122
150 73
151 246
152 286
153 181
154 79
155 83
156 45
157 123
158 52
159 2
160 15
161 153
162 87
163 86
164 106
165 173
166 230
167 136
168 73
169 182
170 38
171 87
172 25
174 2
175 58
176 46
177 44
178 65
179 179
180 332
181 171
182 35
183 89
185 77
186 53
189 36
191 29
193 118
194 116
195 52
196 52
197 88
199 98
200 74
203 11
206 21
207 105
208 98
209 32
210 23
211 23
213 51
214 42
220 231
221 190
222 399
223 174
224 53
225 26
227 10
228 17
235 131
236 125
237 43
239 10
241 20
246 138
247 127
248 68
249 6
253 47
262 37
263 21
264 552
265 446
266 134
267 40
296 240
297 102
298 46

$$$$

     RDKit          2D

 21 20  0  0  0  0  0  0  0  0999 V2000
    0.6495    2.6250    0.0000 C   0  0  0  0  0  0  0  0  0  0  0  0
   -3.2476   -1.1250    0.0000 C   0  0  0  0  0  0  0  0  0  0  0  0
    1.9486    3.3750    0.0000 C   0  0  0  0  0  0  0  0  0  0  0  0
    1.9486    4.8750    0.0000 C   0  0  0  0  0  0  0  0  0  0  0  0
    3.2476    5.6250    0.0000 C   0  0  0  0  0  0  0  0  0  0  0  0
    4.5466    4.8750    0.0000 C   0  0  0  0  0  0  0  0  0  0  0  0
    5.8457    5.6250    0.0000 C   0  0  0  0  0  0  0  0  0  0  0  0
    7.1447    4.8750    0.0000 C   0  0  0  0  0  0  0  0  0  0  0  0
    7.1447    3.3750    0.0000 C   0  0  0  0  0  0  0  0  0  0  0  0
    8.4437    2.6250    0.0000 C   0  0  0  0  0  0  0  0  0  0  0  0
    8.4437    1.1250    0.0000 C   0  0  0  0  0  0  0  0  0  0  0  0
    7.1447    0.3750    0.0000 C   0  0  0  0  0  0  0  0  0  0  0  0
    7.1447   -1.1250    0.0000 C   0  0  0  0  0  0  0  0  0  0  0  0
    5.8457   -1.8750    0.0000 C   0  0  0  0  0  0  0  0  0  0  0  0
    4.5466   -1.1250    0.0000 C   0  0  0  0  0  0  0  0  0  0  0  0
    3.2476   -1.8750    0.0000 C   0  0  0  0  0  0  0  0  0  0  0  0
    1.9486   -1.1250    0.0000 C   0  0  0  0  0  0  0  0  0  0  0  0
    0.6495   -1.8750    0.0000 C   0  0  0  0  0  0  0  0  0  0  0  0
   -0.6495   -1.1250    0.0000 C   0  0  0  0  0  0  0  0  0  0  0  0
   -0.6495    0.3750    0.0000 O   0  0  0  0  0  0  0  0  0  0  0  0
   -1.9486   -1.8750    0.0000 O   0  0  0  0  0  0  0  0  0  0  0  0
  3  1  1  0
  4  3  1  0
  4  5  2  0
  6  5  1  0
  7  6  1  0
  7  8  2  0
  9  8  1  0
 10  9  1  0
 10 11  2  0
 12 11  1  0
 13 12  1  0
 13 14  2  0
 15 14  1  0
 16 15  1  0
 17 16  1  0
 18 17  1  0
 19 18  1  0
 20 19  2  0
 21  2  1  0
 21 19  1  0
M  END
>  <NAME>  (3880) 
(Z,Z,Z,Z)-6,9,12,15-OCTADECATETRAENOIC ACID METHYL ESTER

>  <SYNONYMS>  (3880) 


>  <SPECTRUM TYPE>  (3880) 
MS1

>  <INSTRUMENT TYPE>  (3880) 
EI-B

>  <INSTRUMENT>  (3880) 
HITACHI M-80B

>  <ION MODE>  (3880) 
P

>  <INCHIKEY>  (3880) 
BIRKCHKCDPCDEG-GJDCDIHCSA-N

>  <FORMULA>  (3880) 
C19H30O2

>  <EXACT MASS>  (3880) 
290.2245802

>  <MW>  (3880) 
290

>  <ID>  (3880) 
JP005361

>  <CONTRIBUTOR>  (3880) 
University of Tokyo Team, {Faculty of Engineering, University of Tokyo

>  <COMMENT>  (3880) 
SMILES=CCC([H])=C([H])CC([H])=C([H])CC([H])=C([H])CC([H])=C([H])CCCCC(=O)OC
InChI=InChI=1S/C19H30O2/c1-3-4-5-6-7-8-9-10-11-12-13-14-15-16-17-18-19(20)21-2/h4-5,7-8,10-11,13-14H,3,6,9,12,15-18H2,1-2H3/b5-4-,8-7-,11-10-,14-13-
computed SMILES=O=C(OC)CCCCC=CCC=CCC=CCC=CCC
accession=JP005361
date=2016.01.19 (Created 2008.10.21, modified 2011.05.06)
author=YAMAOKA R, KYOTO INSTITUTE OF TECHNOLOGY
license=CC BY-NC-SA
exact mass=290.22458
ionization energy=70 eV
ion type=[M]+*
computed spectral entropy=3.7638127043747165
computed normalized entropy=0.8120890593459295
SPLASH=splash10-054o-9300000000-d1c4f449e87d4021bc51
submitter=submitter = University of Tokyo Team (Faculty of Engineering, University of Tokyo)
MoNA Rating=3.75

>  <NUM PEAKS>  (3880) 
103

>  <MASS SPECTRAL PEAKS>  (3880) 
40 4
41 72.69
42 6.48
43 8.81
44 1.24
45 6.33
50 0.36
51 4.58
52 3.47
53 15.15
54 8.1
55 33.16
56 1.6
57 0.44
59 19.01
63 1.8
65 12.53
66 16.24
67 64.51
68 8.66
69 14.67
70 1.75
71 2.15
73 0.96
74 9.04
77 30.49
78 20.39
79 99.99
80 34.06
81 20.35
82 4.03
83 0.67
84 2.57
85 2.22
87 7.28
89 0.57
91 52.07
92 9.34
93 40.98
94 15.24
95 13.45
96 0.74
97 2.15
98 1.13
99 0.41
101 0.73
103 2.66
104 3.05
105 25.52
106 11.64
107 14.28
108 28.08
109 5.35
111 0.48
113 0.5
115 5.13
116 1.86
117 7.52
118 2.83
119 18.23
120 8.49
121 9.93
122 8.86
123 2.99
128 0.32
129 1.63
130 0.36
131 6.35
132 0.81
133 9.31
134 6.9
135 6.25
136 2.31
137 0.29
141 0.4
145 4.5
147 7.5
148 5.16
149 1.92
150 0.71
159 0.86
161 10.83
162 3.76
173 1.24
174 0.29
175 3.81
176 1.25
183 0.36
185 0.23
187 0.3
189 2.21
194 5.51
195 0.44
201 0.49
208 1.09
210 0.57
215 0.27
221 4.06
222 0.29
233 0.74
234 1.6
236 0.51
290 1

>  <PREDICTED SPECTRUM>  (3880) 
2 5
5 4
27 45
29 30
33 12
39 140
40 50
41 370
42 109
43 198
44 63
45 122
50 74
51 218
52 160
53 383
54 235
55 619
56 192
57 248
58 66
59 323
60 144
61 65
62 72
63 132
64 94
65 386
66 368
67 775
68 261
69 397
70 140
71 244
72 28
73 163
74 237
75 91
76 53
77 606
78 463
79 999
80 652
81 510
82 183
83 225
84 157
85 207
86 44
87 252
88 106
89 98
91 828
92 521
93 779
94 437
95 490
96 193
97 199
98 131
99 126
100 32
101 176
102 79
103 220
104 212
105 631
106 484
107 524
108 556
109 323
110 160
111 131
112 76
113 110
114 18
115 235
116 140
117 410
118 187
119 613
120 372
121 433
122 303
123 182
124 76
125 82
126 41
127 151
128 123
129 300
130 107
131 332
132 178
133 497
134 376
135 333
136 229
137 104
138 37
139 64
140 6
141 110
142 85
143 196
144 93
145 272
146 163
147 365
148 259
149 246
150 214
151 127
152 89
153 73
154 59
155 122
156 50
157 111
158 41
159 190
160 113
161 365
162 173
163 177
164 95
165 109
166 72
167 40
168 63
169 125
170 69
171 167
172 73
173 185
174 75
175 301
176 142
177 90
178 94
179 65
180 51
181 105
182 41
183 88
184 30
185 18
186 27
187 137
188 65
189 171
190 44
191 56
192 36
193 101
194 98
195 78
197 66
199 102
201 110
202 25
203 100
204 91
205 87
206 72
207 119
208 93
209 64
210 22
211 64
213 44
215 116
216 54
217 2
219 82
220 59
221 154
222 140
223 67
229 28
231 24
233 87
234 137
235 97
236 88
237 9
247 86
248 23
249 32
250 6
259 106
260 41
261 133
262 28
275 17
290 135
291 47

$$$$

     RDKit          2D

 21 20  0  0  0  0  0  0  0  0999 V2000
   15.2637    6.1875    0.0000 C   0  0  0  0  0  0  0  0  0  0  0  0
   -4.2219    9.9375    0.0000 C   0  0  0  0  0  0  0  0  0  0  0  0
   13.9647    5.4375    0.0000 C   0  0  0  0  0  0  0  0  0  0  0  0
   13.9647    3.9375    0.0000 C   0  0  0  0  0  0  0  0  0  0  0  0
   12.6656    3.1875    0.0000 C   0  0  0  0  0  0  0  0  0  0  0  0
   11.3666    3.9375    0.0000 C   0  0  0  0  0  0  0  0  0  0  0  0
   10.0675    3.1875    0.0000 C   0  0  0  0  0  0  0  0  0  0  0  0
    8.7685    3.9375    0.0000 C   0  0  0  0  0  0  0  0  0  0  0  0
    8.7685    5.4375    0.0000 C   0  0  0  0  0  0  0  0  0  0  0  0
    7.4695    6.1875    0.0000 C   0  0  0  0  0  0  0  0  0  0  0  0
    7.4695    7.6875    0.0000 C   0  0  0  0  0  0  0  0  0  0  0  0
    6.1704    8.4375    0.0000 C   0  0  0  0  0  0  0  0  0  0  0  0
    6.1704    9.9375    0.0000 C   0  0  0  0  0  0  0  0  0  0  0  0
    4.8714   10.6875    0.0000 C   0  0  0  0  0  0  0  0  0  0  0  0
    3.5724    9.9375    0.0000 C   0  0  0  0  0  0  0  0  0  0  0  0
    2.2733   10.6875    0.0000 C   0  0  0  0  0  0  0  0  0  0  0  0
    0.9743    9.9375    0.0000 C   0  0  0  0  0  0  0  0  0  0  0  0
   -0.3248   10.6875    0.0000 C   0  0  0  0  0  0  0  0  0  0  0  0
   -1.6238    9.9375    0.0000 C   0  0  0  0  0  0  0  0  0  0  0  0
   -1.6238    8.4375    0.0000 O   0  0  0  0  0  0  0  0  0  0  0  0
   -2.9228   10.6875    0.0000 O   0  0  0  0  0  0  0  0  0  0  0  0
  3  1  1  0
  4  3  1  0
  4  5  2  0
  6  5  1  0
  7  6  1  0
  7  8  2  0
  9  8  1  0
 10  9  1  0
 11 10  1  0
 12 11  1  0
 13 12  1  0
 13 14  2  0
 15 14  1  0
 16 15  1  0
 17 16  1  0
 18 17  1  0
 19 18  1  0
 20 19  2  0
 21  2  1  0
 21 19  1  0
M  END
>  <NAME>  (3881) 
(Z,Z,Z)-6,12,15-OCTADECATRIENOIC ACID METHYL ESTER

>  <SYNONYMS>  (3881) 


>  <SPECTRUM TYPE>  (3881) 
MS1

>  <INSTRUMENT TYPE>  (3881) 
EI-B

>  <INSTRUMENT>  (3881) 
HITACHI M-80B

>  <ION MODE>  (3881) 
P

>  <INCHIKEY>  (3881) 
NTHHALPEFAAFAP-RBIKCNJLSA-N

>  <FORMULA>  (3881) 
C19H32O2

>  <EXACT MASS>  (3881) 
292.240230264

>  <MW>  (3881) 
292

>  <ID>  (3881) 
JP005360

>  <CONTRIBUTOR>  (3881) 
University of Tokyo Team, {Faculty of Engineering, University of Tokyo

>  <COMMENT>  (3881) 
SMILES=CCC([H])=C([H])CC([H])=C([H])CCCCC([H])=C([H])CCCCC(=O)OC
InChI=InChI=1S/C19H32O2/c1-3-4-5-6-7-8-9-10-11-12-13-14-15-16-17-18-19(20)21-2/h4-5,7-8,13-14H,3,6,9-12,15-18H2,1-2H3/b5-4-,8-7-,14-13-
computed SMILES=O=C(OC)CCCCC=CCCCCC=CCC=CCC
accession=JP005360
date=2016.01.19 (Created 2008.10.21, modified 2011.05.06)
author=YAMAOKA R, KYOTO INSTITUTE OF TECHNOLOGY
license=CC BY-NC-SA
exact mass=292.24023
ionization energy=70 eV
ion type=[M]+*
computed spectral entropy=3.7551930447496975
computed normalized entropy=0.8208590799277574
SPLASH=splash10-00nf-9200000000-d1553d9d354fa07a7d43
submitter=submitter = University of Tokyo Team (Faculty of Engineering, University of Tokyo)
MoNA Rating=3.75

>  <NUM PEAKS>  (3881) 
97

>  <MASS SPECTRAL PEAKS>  (3881) 
40 5.21
41 97.99
42 1.76
43 16.34
44 2.19
45 6.15
51 4.63
52 1.34
53 18.94
54 21.7
55 51.82
56 4.98
57 0.91
59 18.48
60 0.68
65 14.95
66 12.69
67 99.99
68 11.45
69 13.72
71 5
73 1.82
74 6.6
75 0.83
77 9
78 2.96
79 68.59
80 27.93
81 52.35
82 28.74
83 10.52
85 6.05
87 9.32
88 1.93
91 11.98
92 4.7
93 37.08
94 17.77
95 43.08
96 14.81
97 6.19
99 3.37
101 2.34
105 6.27
106 2.65
107 15.77
108 10.85
109 20.12
110 4.68
111 2.38
113 0.43
115 5.33
116 0.41
117 1.94
119 5.78
120 3.29
121 23.36
122 12.06
123 2.13
125 1.61
126 0.8
131 2.74
134 3.93
135 11.37
136 7.22
137 2.64
139 0.38
145 0.67
147 3.55
148 1.69
149 5.22
150 8.8
151 1.3
154 0.59
161 3.48
162 0.63
163 8.91
164 7.51
165 1.06
173 1.5
175 2.34
176 0.48
177 10.56
178 3.94
189 0.51
191 2.5
192 0.82
196 0.8
207 0.49
208 0.37
209 1.02
210 6.38
222 0.79
223 0.43
235 2.45
249 2.7
292 2.88

>  <PREDICTED SPECTRUM>  (3881) 
39 153
40 34
41 328
42 36
43 130
44 24
45 78
50 35
51 120
52 104
53 379
54 461
55 801
56 180
57 168
58 40
59 398
60 62
61 17
62 18
63 76
64 32
65 307
66 278
67 999
68 468
69 460
70 89
71 198
72 10
73 152
74 278
75 36
76 5
77 416
78 269
79 874
80 688
81 921
82 548
83 372
84 130
85 181
86 16
87 267
88 97
89 42
91 474
92 241
93 682
94 623
95 751
96 435
97 239
98 110
99 76
100 59
101 184
102 41
103 58
104 114
105 284
106 226
107 525
108 647
109 542
110 329
111 159
112 26
113 74
114 12
115 128
116 25
117 147
118 83
119 232
120 179
121 554
122 461
123 298
124 167
125 137
126 34
127 122
128 30
129 154
130 64
131 182
132 84
133 195
134 187
135 525
136 406
137 203
138 95
139 39
140 61
141 82
142 8
143 94
144 33
145 114
146 56
147 240
148 193
149 426
150 413
151 155
152 93
153 59
154 85
155 36
157 84
159 85
161 210
162 136
163 299
164 241
165 147
166 63
167 91
168 41
171 83
172 30
173 116
174 33
175 213
176 96
177 223
178 197
179 46
180 18
181 19
182 53
185 104
186 35
187 32
189 113
190 67
191 200
192 113
193 98
194 68
195 23
196 38
199 69
203 129
204 23
205 57
206 42
207 53
208 82
209 53
210 97
213 43
216 11
217 54
218 111
221 104
222 101
223 110
224 90
231 43
232 19
233 46
234 21
235 128
236 49
237 38
238 9
243 92
249 121
250 39
251 7
260 77
261 122
262 78
263 139
264 25
292 265
293 114
294 21

$$$$

     RDKit          2D

 21 20  0  0  0  0  0  0  0  0999 V2000
  -10.7171    7.3125    0.0000 C   0  0  0  0  0  0  0  0  0  0  0  0
    4.8714    8.8125    0.0000 C   0  0  0  0  0  0  0  0  0  0  0  0
   -9.4180    6.5625    0.0000 C   0  0  0  0  0  0  0  0  0  0  0  0
   -8.1190    7.3125    0.0000 C   0  0  0  0  0  0  0  0  0  0  0  0
   -6.8200    6.5625    0.0000 C   0  0  0  0  0  0  0  0  0  0  0  0
   -6.8200    5.0625    0.0000 C   0  0  0  0  0  0  0  0  0  0  0  0
   -5.5209    4.3125    0.0000 C   0  0  0  0  0  0  0  0  0  0  0  0
   -5.5209    2.8125    0.0000 C   0  0  0  0  0  0  0  0  0  0  0  0
   -4.2219    2.0625    0.0000 C   0  0  0  0  0  0  0  0  0  0  0  0
   -4.2219    0.5625    0.0000 C   0  0  0  0  0  0  0  0  0  0  0  0
   -2.9228   -0.1875    0.0000 C   0  0  0  0  0  0  0  0  0  0  0  0
   -1.6238    0.5625    0.0000 C   0  0  0  0  0  0  0  0  0  0  0  0
   -0.3248   -0.1875    0.0000 C   0  0  0  0  0  0  0  0  0  0  0  0
    0.9743    0.5625    0.0000 C   0  0  0  0  0  0  0  0  0  0  0  0
    0.9743    2.0625    0.0000 C   0  0  0  0  0  0  0  0  0  0  0  0
    2.2733    2.8125    0.0000 C   0  0  0  0  0  0  0  0  0  0  0  0
    2.2733    4.3125    0.0000 C   0  0  0  0  0  0  0  0  0  0  0  0
    3.5724    5.0625    0.0000 C   0  0  0  0  0  0  0  0  0  0  0  0
    3.5724    6.5625    0.0000 C   0  0  0  0  0  0  0  0  0  0  0  0
    2.2733    7.3125    0.0000 O   0  0  0  0  0  0  0  0  0  0  0  0
    4.8714    7.3125    0.0000 O   0  0  0  0  0  0  0  0  0  0  0  0
  3  1  1  0
  4  3  1  0
  4  5  2  0
  6  5  1  0
  7  6  1  0
  8  7  1  0
  9  8  1  0
 10  9  1  0
 10 11  2  0
 12 11  1  0
 13 12  1  0
 13 14  2  0
 15 14  1  0
 16 15  1  0
 17 16  1  0
 18 17  1  0
 19 18  1  0
 20 19  2  0
 21  2  1  0
 21 19  1  0
M  END
>  <NAME>  (3882) 
(Z,Z,Z)-6,9,15-OCTADECATRIENOIC ACID METHYL ESTER

>  <SYNONYMS>  (3882) 


>  <SPECTRUM TYPE>  (3882) 
MS1

>  <INSTRUMENT TYPE>  (3882) 
EI-B

>  <INSTRUMENT>  (3882) 
HITACHI M-80B

>  <ION MODE>  (3882) 
P

>  <INCHIKEY>  (3882) 
SWFJVJVXGIDQRY-WMWLCQRCSA-N

>  <FORMULA>  (3882) 
C19H32O2

>  <EXACT MASS>  (3882) 
292.240230264

>  <MW>  (3882) 
292

>  <ID>  (3882) 
JP005359

>  <CONTRIBUTOR>  (3882) 
University of Tokyo Team, {Faculty of Engineering, University of Tokyo

>  <COMMENT>  (3882) 
SMILES=CCC([H])=C([H])CCCCC([H])=C([H])CC([H])=C([H])CCCCC(=O)OC
InChI=InChI=1S/C19H32O2/c1-3-4-5-6-7-8-9-10-11-12-13-14-15-16-17-18-19(20)21-2/h4-5,10-11,13-14H,3,6-9,12,15-18H2,1-2H3/b5-4-,11-10-,14-13-
computed SMILES=O=C(OC)CCCCC=CCC=CCCCCC=CCC
accession=JP005359
date=2016.01.19 (Created 2008.10.21, modified 2011.05.06)
author=YAMAOKA R, KYOTO INSTITUTE OF TECHNOLOGY
license=CC BY-NC-SA
exact mass=292.24023
ionization energy=70 eV
ion type=[M]+*
computed spectral entropy=3.7045365397216576
computed normalized entropy=0.8134907086650804
SPLASH=splash10-05nf-9200000000-f4616e4dfac647f6f9d8
submitter=submitter = University of Tokyo Team (Faculty of Engineering, University of Tokyo)
MoNA Rating=3.75

>  <NUM PEAKS>  (3882) 
95

>  <MASS SPECTRAL PEAKS>  (3882) 
40 4.55
41 99.99
42 10.86
43 11.97
44 0.4
45 4.09
51 0.75
52 0.55
53 20.17
54 16.5
55 51.63
56 4.05
57 6.39
59 21.86
65 5.39
66 8.51
67 82.19
68 15.62
69 20.57
71 1.94
74 6.97
76 0.31
77 16.22
78 5.86
79 52.9
80 28.54
81 49.49
82 22.78
83 7.51
84 0.59
85 4.27
87 8.89
88 1.2
90 0.29
91 16
92 6.15
93 28.44
94 21.34
95 29.96
96 9.22
97 3.04
98 1.04
99 0.64
101 1.4
103 0.35
104 0.85
105 5.93
106 4.46
107 15.62
108 10.89
109 10.24
110 7.49
111 2.03
115 0.44
117 0.48
118 0.37
119 5.49
120 3.75
121 20.97
122 9.41
123 6.59
124 3.36
129 1.08
131 1.75
133 3.07
134 1.35
135 12.22
136 8.32
137 2.51
138 0.57
140 0.56
145 0.39
147 2.15
148 0.81
149 10.66
150 6.63
151 1.19
154 1.12
155 0.34
161 1.54
163 9.56
164 3.75
168 0.94
173 0.52
176 0.49
177 2.53
178 0.44
191 0.44
196 0.6
210 2.52
249 2.21
250 0.44
263 3.82
264 0.55
292 0.66

>  <PREDICTED SPECTRUM>  (3882) 
39 153
40 34
41 328
42 36
43 130
44 24
45 78
50 35
51 120
52 104
53 379
54 461
55 801
56 180
57 168
58 40
59 398
60 62
61 17
62 18
63 76
64 32
65 307
66 278
67 999
68 468
69 460
70 89
71 198
72 10
73 152
74 278
75 36
76 5
77 416
78 269
79 874
80 688
81 921
82 548
83 372
84 130
85 181
86 16
87 267
88 97
89 42
91 474
92 241
93 682
94 623
95 751
96 435
97 239
98 110
99 76
100 59
101 184
102 41
103 58
104 114
105 284
106 226
107 525
108 647
109 542
110 329
111 159
112 26
113 74
114 12
115 128
116 25
117 147
118 83
119 232
120 179
121 554
122 461
123 298
124 167
125 137
126 34
127 122
128 30
129 154
130 64
131 182
132 84
133 195
134 187
135 525
136 406
137 203
138 95
139 39
140 61
141 82
142 8
143 94
144 33
145 114
146 56
147 240
148 193
149 426
150 413
151 155
152 93
153 59
154 85
155 36
157 84
159 85
161 210
162 136
163 299
164 241
165 147
166 63
167 91
168 41
171 83
172 30
173 116
174 33
175 213
176 96
177 223
178 197
179 46
180 18
181 19
182 53
185 104
186 35
187 32
189 113
190 67
191 200
192 113
193 98
194 68
195 23
196 38
199 69
203 129
204 23
205 57
206 42
207 53
208 82
209 53
210 97
213 43
216 11
217 54
218 111
221 104
222 101
223 110
224 90
231 43
232 19
233 46
234 21
235 128
236 49
237 38
238 9
243 92
249 121
250 39
251 7
260 77
261 122
262 78
263 139
264 25
292 265
293 114
294 21

$$$$

     RDKit          2D

 21 20  0  0  0  0  0  0  0  0999 V2000
    3.2476   -4.1250    0.0000 C   0  0  0  0  0  0  0  0  0  0  0  0
   13.6399    3.3750    0.0000 C   0  0  0  0  0  0  0  0  0  0  0  0
    1.9486   -3.3750    0.0000 C   0  0  0  0  0  0  0  0  0  0  0  0
    0.6495   -4.1250    0.0000 C   0  0  0  0  0  0  0  0  0  0  0  0
   -0.6495   -3.3750    0.0000 C   0  0  0  0  0  0  0  0  0  0  0  0
   -0.6495   -1.8750    0.0000 C   0  0  0  0  0  0  0  0  0  0  0  0
   -1.9486   -1.1250    0.0000 C   0  0  0  0  0  0  0  0  0  0  0  0
   -1.9486    0.3750    0.0000 C   0  0  0  0  0  0  0  0  0  0  0  0
   -0.6495    1.1250    0.0000 C   0  0  0  0  0  0  0  0  0  0  0  0
   -0.6495    2.6250    0.0000 C   0  0  0  0  0  0  0  0  0  0  0  0
    0.6495    3.3750    0.0000 C   0  0  0  0  0  0  0  0  0  0  0  0
    1.9486    2.6250    0.0000 C   0  0  0  0  0  0  0  0  0  0  0  0
    3.2476    3.3750    0.0000 C   0  0  0  0  0  0  0  0  0  0  0  0
    4.5466    2.6250    0.0000 C   0  0  0  0  0  0  0  0  0  0  0  0
    5.8457    3.3750    0.0000 C   0  0  0  0  0  0  0  0  0  0  0  0
    7.1447    2.6250    0.0000 C   0  0  0  0  0  0  0  0  0  0  0  0
    8.4437    3.3750    0.0000 C   0  0  0  0  0  0  0  0  0  0  0  0
    9.7428    2.6250    0.0000 C   0  0  0  0  0  0  0  0  0  0  0  0
   11.0418    3.3750    0.0000 C   0  0  0  0  0  0  0  0  0  0  0  0
   11.0418    4.8750    0.0000 O   0  0  0  0  0  0  0  0  0  0  0  0
   12.3409    2.6250    0.0000 O   0  0  0  0  0  0  0  0  0  0  0  0
  3  1  1  0
  4  3  1  0
  4  5  2  0
  6  5  1  0
  7  6  1  0
  7  8  2  0
  9  8  1  0
 10  9  1  0
 10 11  2  0
 12 11  1  0
 13 12  1  0
 14 13  1  0
 15 14  1  0
 16 15  1  0
 17 16  1  0
 18 17  1  0
 19 18  1  0
 20 19  2  0
 21  2  1  0
 21 19  1  0
M  END
>  <NAME>  (3883) 
(Z,Z,Z)-9,12,15-OCTADECATRIENOIC ACID METHYL ESTER

>  <SYNONYMS>  (3883) 
METHYL ALPHA-LINOLENATE

>  <SPECTRUM TYPE>  (3883) 
MS1

>  <INSTRUMENT TYPE>  (3883) 
EI-B

>  <INSTRUMENT>  (3883) 
HITACHI M-80B

>  <ION MODE>  (3883) 
P

>  <INCHIKEY>  (3883) 
DVWSXZIHSUZZKJ-YSTUJMKBSA-N

>  <FORMULA>  (3883) 
C19H32O2

>  <EXACT MASS>  (3883) 
292.240230264

>  <MW>  (3883) 
292

>  <ID>  (3883) 
JP005358

>  <CONTRIBUTOR>  (3883) 
University of Tokyo Team, {Faculty of Engineering, University of Tokyo

>  <COMMENT>  (3883) 
SMILES=CCC([H])=C([H])CC([H])=C([H])CC([H])=C([H])CCCCCCCC(=O)OC
InChI=InChI=1S/C19H32O2/c1-3-4-5-6-7-8-9-10-11-12-13-14-15-16-17-18-19(20)21-2/h4-5,7-8,10-11H,3,6,9,12-18H2,1-2H3/b5-4-,8-7-,11-10-
computed SMILES=O=C(OC)CCCCCCCC=CCC=CCC=CCC
accession=JP005358
date=2016.01.19 (Created 2008.10.21, modified 2011.05.06)
author=YAMAOKA R, KYOTO INSTITUTE OF TECHNOLOGY
license=CC BY-NC-SA
exact mass=292.24023
ionization energy=70 eV
ion type=[M]+*
computed spectral entropy=3.643261422629152
computed normalized entropy=0.8387257413280771
SPLASH=splash10-055f-9100000000-b4672589fefe1c9de76b
submitter=submitter = University of Tokyo Team (Faculty of Engineering, University of Tokyo)
MoNA Rating=3.75

>  <NUM PEAKS>  (3883) 
77

>  <MASS SPECTRAL PEAKS>  (3883) 
40 3.36
41 63.91
42 5.97
43 24.27
45 3.36
51 2.71
53 17.52
54 11.91
55 51.99
56 3.84
57 5.62
59 16.52
60 1.47
63 1.24
65 8.96
66 11.1
67 64.73
68 19.07
69 18.93
71 2.48
73 2.08
74 12.78
77 23.71
78 11.04
79 99.99
80 42.71
81 50.26
82 10.88
83 6.98
84 1.47
85 2.97
87 12.5
88 1.47
91 27.4
92 6.17
93 46.5
94 20.63
95 54.65
96 6.68
97 3.31
101 1.8
105 7.01
106 4.46
107 17.69
108 38.35
109 11.7
110 1.87
111 2.99
115 2.27
117 2.8
119 3.88
120 3.1
121 14.32
122 4.36
123 4.36
129 2.01
131 1.78
133 2.92
135 9.37
136 6.68
137 1.86
147 1.63
149 7.8
150 4
151 1.2
163 2.73
164 1.98
173 2.7
175 1.29
189 1.03
191 2.38
236 3.71
237 1.43
261 3.02
263 1.5
292 6.49
293 2.69

>  <PREDICTED SPECTRUM>  (3883) 
27 28
28 8
29 40
33 10
39 173
40 64
41 450
42 118
43 211
44 67
45 121
50 60
51 188
52 153
53 401
54 393
55 754
56 242
57 281
58 90
59 391
60 112
61 74
62 22
63 108
64 57
65 349
66 324
67 934
68 426
69 427
70 139
71 237
72 60
73 227
74 283
75 100
76 41
77 565
78 388
79 999
80 723
81 724
82 391
83 283
84 136
85 222
86 43
87 299
88 94
89 82
91 622
92 355
93 752
94 579
95 650
96 333
97 256
98 126
99 127
100 65
101 210
102 36
103 143
104 119
105 408
106 315
107 526
108 708
109 443
110 235
111 159
112 52
113 73
114 14
115 172
116 45
117 193
118 102
119 336
120 227
121 499
122 440
123 230
124 120
125 123
126 32
127 132
128 50
129 212
130 47
131 203
132 78
133 254
134 219
135 436
136 332
137 152
138 43
139 59
140 21
141 92
143 115
144 20
145 145
146 67
147 230
148 175
149 361
150 372
151 162
152 79
153 76
154 75
155 83
157 91
158 10
159 94
160 27
161 177
162 105
163 222
164 232
165 94
166 13
167 52
168 62
169 21
171 88
172 24
173 106
174 44
175 195
176 72
177 178
178 166
179 39
180 10
181 71
182 20
183 34
185 123
186 31
187 45
188 28
189 104
190 48
191 143
192 60
193 59
194 40
195 26
196 58
197 31
199 113
201 28
203 108
204 27
205 86
206 74
207 34
208 50
209 59
210 49
213 76
215 5
217 51
218 69
221 89
222 60
223 134
224 70
231 32
232 29
233 30
234 39
235 105
236 279
237 109
238 89
248 5
249 165
250 75
251 44
260 55
261 188
262 109
263 197
264 80
265 5
277 64
278 4
292 409
293 172
294 53

$$$$

     RDKit          2D

 21 20  0  0  0  0  0  0  0  0999 V2000
    0.0000    0.0000    0.0000 C   0  0  0  0  0  0  0  0  0  0  0  0
   18.1865    6.0000    0.0000 C   0  0  0  0  0  0  0  0  0  0  0  0
    0.0000    1.5000    0.0000 C   0  0  0  0  0  0  0  0  0  0  0  0
   -1.2990    2.2500    0.0000 C   0  0  0  0  0  0  0  0  0  0  0  0
   -1.2990    3.7500    0.0000 C   0  0  0  0  0  0  0  0  0  0  0  0
    0.0000    4.5000    0.0000 C   0  0  0  0  0  0  0  0  0  0  0  0
    0.0000    6.0000    0.0000 C   0  0  0  0  0  0  0  0  0  0  0  0
    1.2990    6.7500    0.0000 C   0  0  0  0  0  0  0  0  0  0  0  0
    2.5981    6.0000    0.0000 C   0  0  0  0  0  0  0  0  0  0  0  0
    3.8971    6.7500    0.0000 C   0  0  0  0  0  0  0  0  0  0  0  0
    5.1962    6.0000    0.0000 C   0  0  0  0  0  0  0  0  0  0  0  0
    6.4952    6.7500    0.0000 C   0  0  0  0  0  0  0  0  0  0  0  0
    7.7942    6.0000    0.0000 C   0  0  0  0  0  0  0  0  0  0  0  0
    9.0933    6.7500    0.0000 C   0  0  0  0  0  0  0  0  0  0  0  0
   10.3923    6.0000    0.0000 C   0  0  0  0  0  0  0  0  0  0  0  0
   11.6913    6.7500    0.0000 C   0  0  0  0  0  0  0  0  0  0  0  0
   12.9904    6.0000    0.0000 C   0  0  0  0  0  0  0  0  0  0  0  0
   14.2894    6.7500    0.0000 C   0  0  0  0  0  0  0  0  0  0  0  0
   15.5885    6.0000    0.0000 C   0  0  0  0  0  0  0  0  0  0  0  0
   15.5885    4.5000    0.0000 O   0  0  0  0  0  0  0  0  0  0  0  0
   16.8875    6.7500    0.0000 O   0  0  0  0  0  0  0  0  0  0  0  0
  3  1  1  0
  4  3  1  0
  4  5  2  0
  6  5  1  0
  7  6  1  0
  7  8  2  0
  9  8  1  0
 10  9  1  0
 11 10  1  0
 12 11  1  0
 13 12  1  0
 14 13  1  0
 15 14  1  0
 16 15  1  0
 17 16  1  0
 18 17  1  0
 19 18  1  0
 20 19  2  0
 21  2  1  0
 21 19  1  0
M  END
>  <NAME>  (3884) 
(Z,Z)-12,15-OCTADECADIENOIC ACID METHYL ESTER

>  <SYNONYMS>  (3884) 


>  <SPECTRUM TYPE>  (3884) 
MS1

>  <INSTRUMENT TYPE>  (3884) 
EI-B

>  <INSTRUMENT>  (3884) 
HITACHI M-80B

>  <ION MODE>  (3884) 
P

>  <INCHIKEY>  (3884) 
SQXLGHNKHZNVRT-UTOQUPLUSA-N

>  <FORMULA>  (3884) 
C19H34O2

>  <EXACT MASS>  (3884) 
294.255880328

>  <MW>  (3884) 
294

>  <ID>  (3884) 
JP005357

>  <CONTRIBUTOR>  (3884) 
University of Tokyo Team, {Faculty of Engineering, University of Tokyo

>  <COMMENT>  (3884) 
SMILES=CCC([H])=C([H])CC([H])=C([H])CCCCCCCCCCC(=O)OC
InChI=InChI=1S/C19H34O2/c1-3-4-5-6-7-8-9-10-11-12-13-14-15-16-17-18-19(20)21-2/h4-5,7-8H,3,6,9-18H2,1-2H3/b5-4-,8-7-
computed SMILES=O=C(OC)CCCCCCCCCCC=CCC=CCC
accession=JP005357
license=CC BY-NC-SA
date=2016.01.19 (Created 2008.10.21, modified 2011.05.06)
author=YAMAOKA R, KYOTO INSTITUTE OF TECHNOLOGY
exact mass=294.25588
ionization energy=70 eV
ion type=[M]+*
computed spectral entropy=3.558957233624269
computed normalized entropy=0.8268827623549708
SPLASH=splash10-0159-9100000000-791da97eec38c1b73101
submitter=submitter = University of Tokyo Team (Faculty of Engineering, University of Tokyo)
MoNA Rating=3.75

>  <NUM PEAKS>  (3884) 
74

>  <MASS SPECTRAL PEAKS>  (3884) 
40 1.13
41 65.82
42 6.38
43 20.58
45 2.95
51 1.47
53 11.19
54 26.85
55 66.97
56 4.47
57 5.35
59 17.42
65 6.49
66 5.91
67 99.99
68 52.82
69 24.15
70 2.59
71 1.92
73 4.13
74 16.88
75 1.59
77 8.4
78 2.32
79 21.51
80 11.16
81 57.8
82 48.07
83 15.91
84 4.49
85 1.9
87 8.72
91 4.71
93 8.49
94 6.19
95 48.38
96 35.69
97 12.94
105 1.12
107 4.65
108 6.61
109 18.58
110 11.67
111 3.78
121 4.93
122 4.58
123 6.95
124 5.18
125 3.42
129 2.27
133 1.65
135 4.64
136 3.28
137 3.55
138 3.93
143 1.92
149 3.23
150 4.07
151 2.55
152 2.67
153 1.36
163 2.79
164 4.02
165 1.64
166 1.49
177 1.76
178 2.16
179 1.72
192 1.67
220 1.78
262 3.41
263 4.75
294 8.5
295 1.85

>  <PREDICTED SPECTRUM>  (3884) 
15 34
26 7
27 107
28 85
29 172
32 9
33 6
39 235
40 118
41 654
42 220
43 511
44 58
45 131
50 39
51 138
52 124
53 387
54 610
55 961
56 336
57 358
58 97
59 488
60 78
61 112
62 9
63 30
64 10
65 245
66 275
67 999
68 717
69 652
70 212
71 239
72 69
73 224
74 462
75 190
76 27
77 336
78 200
79 602
80 482
81 917
82 818
83 513
84 256
85 206
86 26
87 399
88 114
91 273
92 126
93 397
94 376
95 777
96 747
97 408
98 203
99 102
100 33
101 146
102 56
103 47
104 38
105 99
106 105
107 272
108 296
109 548
110 487
111 234
112 63
113 77
114 28
115 133
116 24
117 75
118 27
119 134
120 94
121 300
122 244
123 328
124 252
125 185
126 61
127 57
128 75
129 198
130 36
131 96
133 96
134 45
135 244
136 215
137 249
138 257
139 92
140 55
141 108
142 30
143 169
144 23
145 28
147 81
148 45
149 245
150 256
151 178
152 181
153 98
154 95
155 63
156 40
157 85
159 63
160 12
161 32
162 52
163 162
164 209
165 136
166 143
167 92
168 67
169 10
171 68
173 14
175 11
177 113
178 155
179 102
180 94
181 103
182 44
183 37
184 8
185 14
187 40
191 68
192 83
193 55
194 33
195 84
196 49
199 25
201 8
205 68
206 73
208 17
209 48
210 46
219 14
220 152
221 13
223 35
224 38
225 30
227 0
233 41
234 43
237 14
238 78
239 53
245 13
251 40
252 31
262 206
263 282
264 137
265 91
294 382
295 162
296 26

$$$$

     RDKit          2D

 21 20  0  0  0  0  0  0  0  0999 V2000
    9.0933    6.0000    0.0000 C   0  0  0  0  0  0  0  0  0  0  0  0
  -11.6913   13.5000    0.0000 C   0  0  0  0  0  0  0  0  0  0  0  0
    7.7942    6.7500    0.0000 C   0  0  0  0  0  0  0  0  0  0  0  0
    6.4952    6.0000    0.0000 C   0  0  0  0  0  0  0  0  0  0  0  0
    5.1962    6.7500    0.0000 C   0  0  0  0  0  0  0  0  0  0  0  0
    5.1962    8.2500    0.0000 C   0  0  0  0  0  0  0  0  0  0  0  0
    3.8971    9.0000    0.0000 C   0  0  0  0  0  0  0  0  0  0  0  0
    3.8971   10.5000    0.0000 C   0  0  0  0  0  0  0  0  0  0  0  0
    2.5981   11.2500    0.0000 C   0  0  0  0  0  0  0  0  0  0  0  0
    2.5981   12.7500    0.0000 C   0  0  0  0  0  0  0  0  0  0  0  0
    1.2990   13.5000    0.0000 C   0  0  0  0  0  0  0  0  0  0  0  0
    0.0000   12.7500    0.0000 C   0  0  0  0  0  0  0  0  0  0  0  0
   -1.2990   13.5000    0.0000 C   0  0  0  0  0  0  0  0  0  0  0  0
   -2.5981   12.7500    0.0000 C   0  0  0  0  0  0  0  0  0  0  0  0
   -3.8971   13.5000    0.0000 C   0  0  0  0  0  0  0  0  0  0  0  0
   -5.1962   12.7500    0.0000 C   0  0  0  0  0  0  0  0  0  0  0  0
   -6.4952   13.5000    0.0000 C   0  0  0  0  0  0  0  0  0  0  0  0
   -7.7942   12.7500    0.0000 C   0  0  0  0  0  0  0  0  0  0  0  0
   -9.0933   13.5000    0.0000 C   0  0  0  0  0  0  0  0  0  0  0  0
   -9.0933   15.0000    0.0000 O   0  0  0  0  0  0  0  0  0  0  0  0
  -10.3923   12.7500    0.0000 O   0  0  0  0  0  0  0  0  0  0  0  0
  3  1  1  0
  4  3  1  0
  4  5  2  0
  6  5  1  0
  7  6  1  0
  8  7  1  0
  9  8  1  0
 10  9  1  0
 10 11  2  0
 12 11  1  0
 13 12  1  0
 14 13  1  0
 15 14  1  0
 16 15  1  0
 17 16  1  0
 18 17  1  0
 19 18  1  0
 20 19  2  0
 21  2  1  0
 21 19  1  0
M  END
>  <NAME>  (3885) 
(Z,Z)-9,15-OCTADECADIENOIC ACID METHYL ESTER

>  <SYNONYMS>  (3885) 


>  <SPECTRUM TYPE>  (3885) 
MS1

>  <INSTRUMENT TYPE>  (3885) 
EI-B

>  <INSTRUMENT>  (3885) 
HITACHI M-80B

>  <ION MODE>  (3885) 
P

>  <INCHIKEY>  (3885) 
OTROKOXHZSGHEN-NKIGAPEHSA-N

>  <FORMULA>  (3885) 
C19H34O2

>  <EXACT MASS>  (3885) 
294.255880328

>  <MW>  (3885) 
294

>  <ID>  (3885) 
JP005356

>  <CONTRIBUTOR>  (3885) 
University of Tokyo Team, {Faculty of Engineering, University of Tokyo

>  <COMMENT>  (3885) 
SMILES=CCC([H])=C([H])CCCCC([H])=C([H])CCCCCCCC(=O)OC
InChI=InChI=1S/C19H34O2/c1-3-4-5-6-7-8-9-10-11-12-13-14-15-16-17-18-19(20)21-2/h4-5,10-11H,3,6-9,12-18H2,1-2H3/b5-4-,11-10-
computed SMILES=O=C(OC)CCCCCCCC=CCCCCC=CCC
accession=JP005356
date=2016.01.19 (Created 2008.10.21, modified 2011.05.06)
author=YAMAOKA R, KYOTO INSTITUTE OF TECHNOLOGY
license=CC BY-NC-SA
exact mass=294.25588
ionization energy=70 eV
ion type=[M]+*
computed spectral entropy=3.5278050382586144
computed normalized entropy=0.8170966417251134
SPLASH=splash10-015c-9100000000-be34042db473516c40f2
submitter=submitter = University of Tokyo Team (Faculty of Engineering, University of Tokyo)
MoNA Rating=3.75

>  <NUM PEAKS>  (3885) 
75

>  <MASS SPECTRAL PEAKS>  (3885) 
40 3.31
41 90.23
42 11.27
43 18.8
45 5.41
51 1.69
52 1.08
53 12.75
54 30.38
55 80.75
56 5.94
57 6.03
59 21.22
60 1.04
65 4.24
66 6.93
67 99.99
68 33.29
69 47.12
70 3.46
71 2
73 4.47
74 14.92
77 4.01
79 16.3
80 11.19
81 69.65
82 78.58
83 20.74
84 3.19
87 10.24
91 2.34
93 6.54
94 6.02
95 45.44
96 38.19
97 9.07
98 3.36
101 2.64
105 1.15
107 5.37
108 4.07
109 21.29
110 26.79
111 8.47
115 2.64
121 6.77
122 3.56
123 15.64
124 14.01
125 4.97
127 1.91
129 2.59
135 4.73
136 3.86
137 8.21
138 3.96
139 2.05
149 2.36
150 4.44
151 3.08
152 1.08
157 2.94
163 2.48
164 2.55
178 2.66
179 1.08
192 1.59
206 2.11
238 1.4
251 1.76
252 1.2
263 4.78
294 4.66
295 2.1

>  <PREDICTED SPECTRUM>  (3885) 
27 17
28 16
29 88
39 160
40 66
41 464
42 156
43 172
44 41
45 95
50 35
51 113
52 122
53 373
54 614
55 999
56 297
57 273
58 68
59 450
60 69
61 92
62 33
63 55
64 31
65 230
66 238
67 957
68 615
69 702
70 203
71 189
72 51
73 187
74 442
75 149
76 32
77 272
78 150
79 501
80 434
81 974
82 822
83 570
84 278
85 171
86 19
87 327
88 116
91 250
92 106
93 259
94 422
95 802
96 810
97 424
98 251
99 135
100 47
101 168
102 24
103 35
104 83
105 115
106 107
107 326
108 350
109 640
110 575
111 243
112 51
113 70
114 61
115 108
116 20
117 79
118 61
119 169
120 112
121 430
122 374
123 424
124 381
125 220
126 115
127 115
128 59
129 125
130 12
131 95
132 39
133 165
134 90
135 368
136 309
137 286
138 333
139 169
140 131
141 154
142 29
143 91
144 60
145 135
146 52
147 113
148 68
149 330
150 357
151 206
152 242
153 104
154 84
155 71
156 22
157 14
159 104
161 87
162 3
163 200
164 281
165 238
166 205
167 164
168 133
169 68
171 32
173 110
174 45
175 96
176 32
177 204
178 227
179 174
180 135
181 95
182 106
185 4
187 91
191 115
192 117
193 115
194 104
195 106
196 82
201 46
205 86
206 139
207 22
208 56
209 41
210 62
215 24
218 28
219 66
220 244
221 49
223 47
224 26
233 65
234 95
235 7
245 114
246 27
251 2
260 3
261 26
262 338
263 249
264 68
265 29
294 357
295 144
296 16

$$$$

     RDKit          2D

 21 20  0  0  0  0  0  0  0  0999 V2000
   -1.6238    4.3125    0.0000 C   0  0  0  0  0  0  0  0  0  0  0  0
    0.9743   -1.6875    0.0000 C   0  0  0  0  0  0  0  0  0  0  0  0
   -2.9228    5.0625    0.0000 C   0  0  0  0  0  0  0  0  0  0  0  0
   -4.2219    4.3125    0.0000 C   0  0  0  0  0  0  0  0  0  0  0  0
   -5.5209    5.0625    0.0000 C   0  0  0  0  0  0  0  0  0  0  0  0
   -6.8200    4.3125    0.0000 C   0  0  0  0  0  0  0  0  0  0  0  0
   -8.1190    5.0625    0.0000 C   0  0  0  0  0  0  0  0  0  0  0  0
   -9.4180    4.3125    0.0000 C   0  0  0  0  0  0  0  0  0  0  0  0
   -9.4180    2.8125    0.0000 C   0  0  0  0  0  0  0  0  0  0  0  0
  -10.7171    2.0625    0.0000 C   0  0  0  0  0  0  0  0  0  0  0  0
  -10.7171    0.5625    0.0000 C   0  0  0  0  0  0  0  0  0  0  0  0
   -9.4180   -0.1875    0.0000 C   0  0  0  0  0  0  0  0  0  0  0  0
   -9.4180   -1.6875    0.0000 C   0  0  0  0  0  0  0  0  0  0  0  0
   -8.1190   -2.4375    0.0000 C   0  0  0  0  0  0  0  0  0  0  0  0
   -6.8200   -1.6875    0.0000 C   0  0  0  0  0  0  0  0  0  0  0  0
   -5.5209   -2.4375    0.0000 C   0  0  0  0  0  0  0  0  0  0  0  0
   -4.2219   -1.6875    0.0000 C   0  0  0  0  0  0  0  0  0  0  0  0
   -2.9228   -2.4375    0.0000 C   0  0  0  0  0  0  0  0  0  0  0  0
   -1.6238   -1.6875    0.0000 C   0  0  0  0  0  0  0  0  0  0  0  0
   -1.6238   -0.1875    0.0000 O   0  0  0  0  0  0  0  0  0  0  0  0
   -0.3248   -2.4375    0.0000 O   0  0  0  0  0  0  0  0  0  0  0  0
  3  1  1  0
  4  3  1  0
  5  4  1  0
  6  5  1  0
  7  6  1  0
  7  8  2  0
  9  8  1  0
 10  9  1  0
 10 11  2  0
 12 11  1  0
 13 12  1  0
 13 14  2  0
 15 14  1  0
 16 15  1  0
 17 16  1  0
 18 17  1  0
 19 18  1  0
 20 19  2  0
 21  2  1  0
 21 19  1  0
M  END
>  <NAME>  (3886) 
(Z,Z,Z)-6,9,12-OCTADECATRIENOIC ACID METHYL ESTER

>  <SYNONYMS>  (3886) 


>  <SPECTRUM TYPE>  (3886) 
MS1

>  <INSTRUMENT TYPE>  (3886) 
EI-B

>  <INSTRUMENT>  (3886) 
HITACHI M-80B

>  <ION MODE>  (3886) 
P

>  <INCHIKEY>  (3886) 
JFRWATCOFCPIBM-JPFHKJGASA-N

>  <FORMULA>  (3886) 
C19H32O2

>  <EXACT MASS>  (3886) 
292.240230264

>  <MW>  (3886) 
292

>  <ID>  (3886) 
JP005350

>  <CONTRIBUTOR>  (3886) 
University of Tokyo Team, {Faculty of Engineering, University of Tokyo

>  <COMMENT>  (3886) 
SMILES=CCCCCC([H])=C([H])CC([H])=C([H])CC([H])=C([H])CCCCC(=O)OC
InChI=InChI=1S/C19H32O2/c1-3-4-5-6-7-8-9-10-11-12-13-14-15-16-17-18-19(20)21-2/h7-8,10-11,13-14H,3-6,9,12,15-18H2,1-2H3/b8-7-,11-10-,14-13-
computed SMILES=O=C(OC)CCCCC=CCC=CCC=CCCCCC
accession=JP005350
date=2016.01.19 (Created 2008.10.21, modified 2011.05.06)
author=YAMAOKA R, KYOTO INSTITUTE OF TECHNOLOGY
license=CC BY-NC-SA
exact mass=292.24023
ionization energy=70 eV
ion type=[M]+*
computed spectral entropy=3.730495013396478
computed normalized entropy=0.8537680593419175
SPLASH=splash10-000x-9200000000-0020be36febd0c21e122
submitter=submitter = University of Tokyo Team (Faculty of Engineering, University of Tokyo)
MoNA Rating=3.75

>  <NUM PEAKS>  (3886) 
79

>  <MASS SPECTRAL PEAKS>  (3886) 
41 81.12
42 7.55
43 27.03
44 1.95
45 1.93
50 1.47
51 2.89
53 14.36
54 20.9
55 45.74
56 4.43
57 11.26
58 1.98
59 22.59
63 1.09
65 12.29
66 15.5
67 98.94
68 13.29
69 17.66
71 6.09
74 13.17
77 25.09
78 19.77
79 99.99
80 68.06
81 55.38
82 14.21
83 6.72
84 7.46
85 6.73
87 16.15
91 42.08
92 9.41
93 59.85
94 27.24
95 30.21
96 11.18
97 5.77
99 2.2
101 1.59
105 15.02
106 6.7
107 25.03
108 10.01
109 9.63
110 1.43
117 2.42
118 3.89
119 8.9
120 14.61
121 14.09
122 5.27
123 4.09
131 2.77
133 4.41
134 3.37
135 8.31
136 2.36
137 6.52
144 1.24
147 6.93
148 1.11
149 7.52
150 14.46
151 1.98
157 2.32
161 6.14
162 2.19
163 13.07
164 4.5
175 1.99
176 1.13
177 2.76
194 9.54
221 2.25
222 1.57
292 8.18
293 2.11

>  <PREDICTED SPECTRUM>  (3886) 
26 0
27 74
28 8
29 75
30 13
32 0
33 9
39 240
40 76
41 422
42 124
43 273
44 64
45 97
50 81
51 221
52 168
53 382
54 413
55 721
56 233
57 303
58 86
59 378
60 108
61 44
62 48
63 123
64 83
65 379
66 345
67 902
68 368
69 428
70 121
71 255
72 48
73 178
74 368
75 132
76 79
77 580
78 437
79 999
80 752
81 743
82 360
83 322
84 202
85 265
86 57
87 333
88 127
89 107
90 61
91 759
92 460
93 708
94 519
95 530
96 312
97 236
98 172
99 104
100 63
101 150
102 74
103 163
104 160
105 540
106 429
107 517
108 376
109 387
110 226
111 192
112 94
113 119
114 58
115 220
116 105
117 251
118 170
119 455
120 269
121 489
122 367
123 236
124 201
125 128
126 38
127 139
128 98
129 211
130 133
131 264
132 123
133 355
134 280
135 435
136 346
137 206
138 100
139 100
140 103
141 156
142 48
143 120
144 80
145 196
146 128
147 323
148 258
149 320
150 474
151 191
152 141
153 116
154 152
155 105
156 28
157 136
158 73
159 116
160 22
161 271
162 184
163 248
164 255
165 155
166 87
167 137
168 108
169 43
171 161
172 41
173 113
174 55
175 282
176 133
177 213
178 217
179 121
180 110
181 86
182 67
183 31
185 105
186 50
187 20
188 28
189 161
190 90
191 167
192 81
193 127
194 171
195 84
196 44
199 65
201 26
203 141
204 79
205 92
206 140
207 136
208 109
209 59
210 33
211 10
213 67
215 22
216 25
217 77
218 143
219 63
220 53
221 175
222 154
223 43
224 78
231 26
232 55
233 13
234 19
235 128
236 77
237 26
243 50
244 3
249 87
250 25
260 41
261 148
262 45
263 90
264 39
292 267
293 111
294 8

$$$$

     RDKit          2D

 21 20  0  0  0  0  0  0  0  0999 V2000
  -10.0675    7.3125    0.0000 C   0  0  0  0  0  0  0  0  0  0  0  0
    1.6238   -2.4375    0.0000 C   0  0  0  0  0  0  0  0  0  0  0  0
  -11.3666    6.5625    0.0000 C   0  0  0  0  0  0  0  0  0  0  0  0
  -11.3666    5.0625    0.0000 C   0  0  0  0  0  0  0  0  0  0  0  0
  -12.6656    4.3125    0.0000 C   0  0  0  0  0  0  0  0  0  0  0  0
  -12.6656    2.8125    0.0000 C   0  0  0  0  0  0  0  0  0  0  0  0
  -13.9647    2.0625    0.0000 C   0  0  0  0  0  0  0  0  0  0  0  0
  -13.9647    0.5625    0.0000 C   0  0  0  0  0  0  0  0  0  0  0  0
  -12.6656   -0.1875    0.0000 C   0  0  0  0  0  0  0  0  0  0  0  0
  -12.6656   -1.6875    0.0000 C   0  0  0  0  0  0  0  0  0  0  0  0
  -11.3666   -2.4375    0.0000 C   0  0  0  0  0  0  0  0  0  0  0  0
  -10.0675   -1.6875    0.0000 C   0  0  0  0  0  0  0  0  0  0  0  0
   -8.7685   -2.4375    0.0000 C   0  0  0  0  0  0  0  0  0  0  0  0
   -7.4695   -1.6875    0.0000 C   0  0  0  0  0  0  0  0  0  0  0  0
   -6.1704   -2.4375    0.0000 C   0  0  0  0  0  0  0  0  0  0  0  0
   -4.8714   -1.6875    0.0000 C   0  0  0  0  0  0  0  0  0  0  0  0
   -3.5724   -2.4375    0.0000 C   0  0  0  0  0  0  0  0  0  0  0  0
   -2.2733   -1.6875    0.0000 C   0  0  0  0  0  0  0  0  0  0  0  0
   -0.9743   -2.4375    0.0000 C   0  0  0  0  0  0  0  0  0  0  0  0
   -0.9743   -3.9375    0.0000 O   0  0  0  0  0  0  0  0  0  0  0  0
    0.3248   -1.6875    0.0000 O   0  0  0  0  0  0  0  0  0  0  0  0
  3  1  1  0
  4  3  1  0
  5  4  1  0
  6  5  1  0
  7  6  1  0
  7  8  2  0
  9  8  1  0
 10  9  1  0
 10 11  2  0
 12 11  1  0
 13 12  1  0
 14 13  1  0
 15 14  1  0
 16 15  1  0
 17 16  1  0
 18 17  1  0
 19 18  1  0
 20 19  2  0
 21  2  1  0
 21 19  1  0
M  END
>  <NAME>  (3887) 
(Z,Z)-9,12-OCTADECADIENOIC ACID METHYL ESTER

>  <SYNONYMS>  (3887) 


>  <SPECTRUM TYPE>  (3887) 
MS1

>  <INSTRUMENT TYPE>  (3887) 
EI-B

>  <INSTRUMENT>  (3887) 
HITACHI M-80B

>  <ION MODE>  (3887) 
P

>  <INCHIKEY>  (3887) 
WTTJVINHCBCLGX-NQLNTKRDSA-N

>  <FORMULA>  (3887) 
C19H34O2

>  <EXACT MASS>  (3887) 
294.255880328

>  <MW>  (3887) 
294

>  <ID>  (3887) 
JP005349

>  <CONTRIBUTOR>  (3887) 
University of Tokyo Team, {Faculty of Engineering, University of Tokyo

>  <COMMENT>  (3887) 
SMILES=CCCCCC([H])=C([H])CC([H])=C([H])CCCCCCCC(=O)OC
InChI=InChI=1S/C19H34O2/c1-3-4-5-6-7-8-9-10-11-12-13-14-15-16-17-18-19(20)21-2/h7-8,10-11H,3-6,9,12-18H2,1-2H3/b8-7-,11-10-
computed SMILES=O=C(OC)CCCCCCCC=CCC=CCCCCC
accession=JP005349
date=2016.01.19 (Created 2008.10.21, modified 2011.05.06)
author=YAMAOKA R, KYOTO INSTITUTE OF TECHNOLOGY
license=CC BY-NC-SA
exact mass=294.25588
ionization energy=70 eV
ion type=[M]+*
computed spectral entropy=3.514356321461612
computed normalized entropy=0.8515245673114216
SPLASH=splash10-0159-9100000000-c55236eae15e103cc906
submitter=submitter = University of Tokyo Team (Faculty of Engineering, University of Tokyo)
MoNA Rating=3.75

>  <NUM PEAKS>  (3887) 
62

>  <MASS SPECTRAL PEAKS>  (3887) 
40 3.78
41 72.5
42 18.3
43 29.71
45 10.69
53 12.88
54 39.98
55 68.79
56 8.55
57 4.65
59 21.61
65 4.77
66 10.13
67 99.99
68 39.5
69 33.9
71 1.93
73 8.95
74 7.25
77 13.99
78 4
79 28.57
80 25.58
81 96.03
82 47.89
83 12.43
84 3.46
87 11.88
91 13.32
93 7.47
94 6.61
95 50.94
96 32.97
97 15.94
98 4.74
105 1.08
107 10.03
108 8.21
109 21.75
110 10.68
119 2.4
120 1.71
121 8.64
123 10.45
124 6.88
129 2.47
135 3.52
136 9.48
137 2.58
138 3.37
150 6.88
151 2.8
154 1.45
163 2.39
164 5.49
177 2.86
206 1.06
262 4.22
263 3.45
264 2.34
294 7.25
295 0.92

>  <PREDICTED SPECTRUM>  (3887) 
15 23
26 19
27 152
28 89
29 196
30 36
31 10
32 24
39 249
40 98
41 566
42 199
43 454
44 79
45 114
50 66
51 181
52 154
53 404
54 626
55 938
56 313
57 389
58 119
59 472
60 90
61 60
62 40
63 79
64 48
65 293
66 282
67 999
68 619
69 613
70 193
71 268
72 70
73 192
74 499
75 169
76 74
77 435
78 275
79 749
80 630
81 974
82 730
83 479
84 278
85 256
86 53
87 337
88 112
89 35
90 36
91 399
92 210
93 511
94 509
95 810
96 712
97 397
98 207
99 143
100 94
101 161
102 61
103 102
104 112
105 241
106 181
107 399
108 371
109 602
110 469
111 293
112 121
113 110
114 116
115 218
116 68
117 152
118 140
119 203
120 134
121 424
122 362
123 420
124 357
125 194
126 113
127 127
128 127
129 221
130 113
131 210
132 106
133 174
134 87
135 386
136 398
137 344
138 299
139 158
140 149
141 213
142 104
143 187
144 92
145 119
146 77
147 166
148 98
149 343
150 463
151 229
152 219
153 148
154 201
155 124
156 107
157 103
158 5
159 148
160 101
161 130
162 46
163 208
164 305
165 200
166 179
167 186
168 166
169 36
170 20
171 57
173 130
174 57
175 92
176 47
177 244
178 253
179 163
180 127
181 141
182 134
183 73
184 48
185 54
186 25
187 100
188 33
189 8
191 146
192 106
193 110
194 74
195 148
196 157
197 27
198 5
201 58
203 8
205 104
206 156
207 63
208 102
209 125
210 80
211 10
215 14
218 76
219 66
220 226
221 77
222 60
223 133
224 118
225 1
233 46
234 70
235 42
237 74
238 38
239 3
244 19
245 126
246 44
251 67
252 22
262 223
263 300
264 139
265 68
266 19
294 460
295 201
296 62

$$$$

     RDKit          2D

 21 20  0  0  0  0  0  0  0  0999 V2000
    0.0000    0.0000    0.0000 C   0  0  0  0  0  0  0  0  0  0  0  0
  -20.7846    6.0000    0.0000 C   0  0  0  0  0  0  0  0  0  0  0  0
    0.0000    1.5000    0.0000 C   0  0  0  0  0  0  0  0  0  0  0  0
   -1.2990    2.2500    0.0000 C   0  0  0  0  0  0  0  0  0  0  0  0
   -1.2990    3.7500    0.0000 C   0  0  0  0  0  0  0  0  0  0  0  0
   -2.5981    4.5000    0.0000 C   0  0  0  0  0  0  0  0  0  0  0  0
   -2.5981    6.0000    0.0000 C   0  0  0  0  0  0  0  0  0  0  0  0
   -3.8971    6.7500    0.0000 C   0  0  0  0  0  0  0  0  0  0  0  0
   -5.1962    6.0000    0.0000 C   0  0  0  0  0  0  0  0  0  0  0  0
   -6.4952    6.7500    0.0000 C   0  0  0  0  0  0  0  0  0  0  0  0
   -7.7942    6.0000    0.0000 C   0  0  0  0  0  0  0  0  0  0  0  0
   -9.0933    6.7500    0.0000 C   0  0  0  0  0  0  0  0  0  0  0  0
  -10.3923    6.0000    0.0000 C   0  0  0  0  0  0  0  0  0  0  0  0
  -11.6913    6.7500    0.0000 C   0  0  0  0  0  0  0  0  0  0  0  0
  -12.9904    6.0000    0.0000 C   0  0  0  0  0  0  0  0  0  0  0  0
  -14.2894    6.7500    0.0000 C   0  0  0  0  0  0  0  0  0  0  0  0
  -15.5885    6.0000    0.0000 C   0  0  0  0  0  0  0  0  0  0  0  0
  -16.8875    6.7500    0.0000 C   0  0  0  0  0  0  0  0  0  0  0  0
  -18.1865    6.0000    0.0000 C   0  0  0  0  0  0  0  0  0  0  0  0
  -18.1865    4.5000    0.0000 O   0  0  0  0  0  0  0  0  0  0  0  0
  -19.4856    6.7500    0.0000 O   0  0  0  0  0  0  0  0  0  0  0  0
  3  1  1  0
  4  3  1  0
  5  4  1  0
  6  5  1  0
  7  6  1  0
  7  8  2  0
  9  8  1  0
 10  9  1  0
 11 10  1  0
 12 11  1  0
 13 12  1  0
 14 13  1  0
 15 14  1  0
 16 15  1  0
 17 16  1  0
 18 17  1  0
 19 18  1  0
 20 19  2  0
 21  2  1  0
 21 19  1  0
M  END
>  <NAME>  (3888) 
(Z)-12-OCTADECENOIC ACID METHYL ESTER

>  <SYNONYMS>  (3888) 


>  <SPECTRUM TYPE>  (3888) 
MS1

>  <INSTRUMENT TYPE>  (3888) 
EI-B

>  <INSTRUMENT>  (3888) 
HITACHI M-80B

>  <ION MODE>  (3888) 
P

>  <INCHIKEY>  (3888) 
LMWAESDDOGRMOK-FPLPWBNLSA-N

>  <FORMULA>  (3888) 
C19H36O2

>  <EXACT MASS>  (3888) 
296.271530392

>  <MW>  (3888) 
296

>  <ID>  (3888) 
JP005348

>  <CONTRIBUTOR>  (3888) 
University of Tokyo Team, {Faculty of Engineering, University of Tokyo

>  <COMMENT>  (3888) 
SMILES=CCCCCC([H])=C([H])CCCCCCCCCCC(=O)OC
InChI=InChI=1S/C19H36O2/c1-3-4-5-6-7-8-9-10-11-12-13-14-15-16-17-18-19(20)21-2/h7-8H,3-6,9-18H2,1-2H3/b8-7-
computed SMILES=O=C(OC)CCCCCCCCCCC=CCCCCC
accession=JP005348
date=2016.01.19 (Created 2008.10.21, modified 2011.05.06)
author=YAMAOKA R, KYOTO INSTITUTE OF TECHNOLOGY
license=CC BY-NC-SA
exact mass=296.27153
ionization energy=70 eV
ion type=[M]+*
computed spectral entropy=3.5099337146934597
computed normalized entropy=0.8799066814309717
SPLASH=splash10-05nf-9100000000-a6012de37e96b19c750a
submitter=submitter = University of Tokyo Team (Faculty of Engineering, University of Tokyo)
MoNA Rating=3.75

>  <NUM PEAKS>  (3888) 
54

>  <MASS SPECTRAL PEAKS>  (3888) 
40 3.63
41 70.26
42 21.79
43 46.2
45 6.82
53 11.78
54 20.61
55 99.99
56 11.09
57 10.43
59 21.87
60 2.44
67 27.31
68 13.83
69 36.83
70 22.84
73 5.78
74 46.35
75 2.71
81 13.17
82 16.1
83 38.57
84 37.42
85 3.9
87 28.09
95 16.94
96 24.8
97 27.42
98 20.57
101 7.37
105 4.04
108 2.89
109 10.45
110 15.14
111 14.42
112 2.49
123 5.38
124 9.08
125 11.06
127 2.44
135 3.61
137 2.64
138 11.3
139 6.32
141 2.71
153 2.26
155 1.37
161 1.8
183 1.7
199 1.49
207 3.13
222 3.79
264 20.1
265 13.77

>  <PREDICTED SPECTRUM>  (3888) 
14 5
15 65
16 14
17 23
18 28
25 0
26 45
27 189
28 183
29 312
30 94
31 89
32 40
33 21
36 5
38 7
39 228
40 126
41 617
42 308
43 590
44 160
45 127
50 43
51 97
52 111
53 311
54 495
55 999
56 504
57 583
58 80
59 454
60 107
61 60
62 59
63 47
65 161
66 142
67 591
68 466
69 809
70 424
71 332
72 142
73 183
74 742
75 304
76 70
77 140
78 85
79 303
80 229
81 565
82 500
83 714
84 595
85 321
86 52
87 608
88 166
89 51
91 177
92 79
93 171
94 187
95 498
96 633
97 652
98 552
99 201
100 114
101 284
102 92
104 1
105 112
106 94
107 148
108 170
109 400
110 476
111 477
112 233
113 189
114 243
115 264
116 87
117 27
118 22
119 163
120 104
121 197
122 120
123 382
124 306
125 341
126 147
127 158
128 169
129 190
130 70
131 28
132 1
133 152
134 150
135 158
136 102
137 277
138 313
139 235
140 133
141 287
142 118
143 210
144 82
145 25
146 24
147 113
148 122
149 122
150 73
151 246
152 286
153 181
154 79
155 83
156 45
157 123
158 52
159 2
160 15
161 153
162 87
163 86
164 106
165 173
166 230
167 136
168 73
169 182
170 38
171 87
172 25
174 2
175 58
176 46
177 44
178 65
179 179
180 332
181 171
182 35
183 89
185 77
186 53
189 36
191 29
193 118
194 116
195 52
196 52
197 88
199 98
200 74
203 11
206 21
207 105
208 98
209 32
210 23
211 23
213 51
214 42
220 231
221 190
222 399
223 174
224 53
225 26
227 10
228 17
235 131
236 125
237 43
239 10
241 20
246 138
247 127
248 68
249 6
253 47
262 37
263 21
264 552
265 446
266 134
267 40
296 240
297 102
298 46

$$$$

     RDKit          2D

  7  7  0  0  0  0  0  0  0  0999 V2000
   -0.0000   -1.9300    0.0000 C   0  0  0  0  0  0  0  0  0  0  0  0
    0.0000    2.5700    0.0000 C   0  0  0  0  0  0  0  0  0  0  0  0
   -1.3000    1.8200    0.0000 C   0  0  0  0  0  0  0  0  0  0  0  0
    1.3000    1.8200    0.0000 C   0  0  0  0  0  0  0  0  0  0  0  0
   -1.3000    0.3200    0.0000 C   0  0  0  0  0  0  0  0  0  0  0  0
    1.3000    0.3200    0.0000 C   0  0  0  0  0  0  0  0  0  0  0  0
   -0.0000   -0.4300    0.0000 C   0  0  0  0  0  0  0  0  0  0  0  0
  3  2  1  0
  4  2  1  0
  5  3  1  0
  6  4  1  0
  7  1  1  0
  7  5  2  0
  7  6  1  0
M  END
>  <NAME>  (3889) 
1-METHYLCYCLOHEXENE

>  <SYNONYMS>  (3889) 


>  <SPECTRUM TYPE>  (3889) 
MS1

>  <INSTRUMENT TYPE>  (3889) 
EI-B

>  <INSTRUMENT>  (3889) 
HITACHI RMU-6M

>  <ION MODE>  (3889) 
P

>  <INCHIKEY>  (3889) 
CTMHWPIWNRWQEG-UHFFFAOYSA-N

>  <FORMULA>  (3889) 
C7H12

>  <EXACT MASS>  (3889) 
96.093900384

>  <MW>  (3889) 
96

>  <ID>  (3889) 
JP005341

>  <CONTRIBUTOR>  (3889) 
University of Tokyo Team, {Faculty of Engineering, University of Tokyo

>  <COMMENT>  (3889) 
SMILES=[H]C(C1)=C(C)CCC1
InChI=InChI=1S/C7H12/c1-7-5-3-2-4-6-7/h5H,2-4,6H2,1H3
computed SMILES=C1=C(C)CCCC1
accession=JP005341
date=2016.01.19 (Created 2008.10.21, modified 2011.05.06)
author=YAMAMOTO M, DEP. CHEMISTRY, FAC. SCIENCE, NARA WOMEN'S UNIV.
license=CC BY-NC-SA
exact mass=96.0939
ionization energy=70 eV
ion type=[M]+*
computed spectral entropy=2.8680312205231657
computed normalized entropy=0.7625308763966958
SPLASH=splash10-00lr-9000000000-5168a17331c71387c458
submitter=submitter = University of Tokyo Team (Faculty of Engineering, University of Tokyo)
MoNA Rating=3.75

>  <NUM PEAKS>  (3889) 
43

>  <MASS SPECTRAL PEAKS>  (3889) 
27 1.28
28 14.43
29 2.47
30 7.5
32 0.82
33 0.62
38 0.51
39 2.05
40 23.16
41 5.86
42 16.38
43 3.18
44 1.03
46 0.92
47 1.03
50 2.52
51 5.44
52 2.82
53 17.67
54 18.59
55 33.74
56 2.26
59 0.62
62 0.82
63 1.9
65 4.11
66 3.65
67 39.63
68 42.03
69 2.41
71 1.28
77 5.65
78 1.49
79 10.12
80 2.05
81 99.99
82 6.57
91 2.52
93 1.28
94 0.51
95 7.4
96 38.25
97 2.88

>  <PREDICTED SPECTRUM>  (3889) 
25 13
26 84
27 322
28 149
29 161
37 36
38 98
39 490
40 246
41 575
42 200
43 38
50 154
51 242
52 177
53 505
54 532
55 435
56 139
62 75
63 132
64 43
65 257
66 181
67 999
68 575
69 167
77 330
78 99
79 480
80 40
81 971
82 291
91 55
93 88
94 10
95 193
96 642
97 159

$$$$

     RDKit          2D

  7  7  0  0  0  0  0  0  0  0999 V2000
   -0.0000   -1.9300    0.0000 C   0  0  0  0  0  0  0  0  0  0  0  0
    0.0000    2.5700    0.0000 C   0  0  0  0  0  0  0  0  0  0  0  0
   -1.3000    1.8200    0.0000 C   0  0  0  0  0  0  0  0  0  0  0  0
    1.3000    1.8200    0.0000 C   0  0  0  0  0  0  0  0  0  0  0  0
   -1.3000    0.3200    0.0000 C   0  0  0  0  0  0  0  0  0  0  0  0
    1.3000    0.3200    0.0000 C   0  0  0  0  0  0  0  0  0  0  0  0
   -0.0000   -0.4300    0.0000 C   0  0  0  0  0  0  0  0  0  0  0  0
  3  2  1  0
  4  2  1  0
  5  3  2  0
  6  4  1  0
  7  1  1  0
  7  5  1  0
  7  6  1  0
M  END
>  <NAME>  (3890) 
3-METHYLCYCLOHEXENE

>  <SYNONYMS>  (3890) 


>  <SPECTRUM TYPE>  (3890) 
MS1

>  <INSTRUMENT TYPE>  (3890) 
EI-B

>  <INSTRUMENT>  (3890) 
HITACHI RMU-6M

>  <ION MODE>  (3890) 
P

>  <INCHIKEY>  (3890) 
UZPWKTCMUADILM-UHFFFAOYSA-N

>  <FORMULA>  (3890) 
C7H12

>  <EXACT MASS>  (3890) 
96.093900384

>  <MW>  (3890) 
96

>  <ID>  (3890) 
JP005339

>  <CONTRIBUTOR>  (3890) 
University of Tokyo Team, {Faculty of Engineering, University of Tokyo

>  <COMMENT>  (3890) 
SMILES=CC(C1)C=CCC1
InChI=InChI=1S/C7H12/c1-7-5-3-2-4-6-7/h3,5,7H,2,4,6H2,1H3
computed SMILES=C1=CC(C)CCC1
accession=JP005339
date=2016.01.19 (Created 2008.10.21, modified 2011.05.06)
author=YAMAMOTO M, DEP. CHEMISTRY, FAC. SCIENCE, NARA WOMEN'S UNIV.
license=CC BY-NC-SA
exact mass=96.0939
ionization energy=70 eV
ion type=[M]+*
computed spectral entropy=2.8392619442091993
computed normalized entropy=0.7696814112596656
SPLASH=splash10-00lr-9000000000-34427aee78a6d1324948
submitter=submitter = University of Tokyo Team (Faculty of Engineering, University of Tokyo)
MoNA Rating=3.75

>  <NUM PEAKS>  (3890) 
40

>  <MASS SPECTRAL PEAKS>  (3890) 
27 1.34
28 14.71
29 2.31
30 7
33 0.57
38 0.57
39 2.06
40 22.74
41 5.04
42 17.08
43 2.78
44 0.57
45 0.67
46 0.51
47 0.57
50 2.57
51 5.66
52 3.09
53 17.08
54 19.34
55 32.15
56 2.01
62 0.77
63 1.75
65 4.37
66 3.86
67 33.69
68 37.8
69 2.16
77 6.28
78 1.59
79 11.57
80 2.06
81 99.99
82 6.79
91 1.65
93 0.93
95 7.05
96 33.69
97 2.93

>  <PREDICTED SPECTRUM>  (3890) 
14 13
15 73
25 20
26 134
27 385
28 212
29 206
37 44
38 122
39 561
40 283
41 610
42 301
43 201
44 24
49 36
50 231
51 339
52 275
53 515
54 678
55 537
56 179
57 35
61 9
62 99
63 154
64 80
65 338
66 280
67 988
68 580
69 180
70 72
76 48
77 389
78 236
79 378
80 85
81 999
82 481
83 47
91 97
93 49
94 62
95 209
96 558
97 146

$$$$

     RDKit          2D

  7  7  0  0  0  0  0  0  0  0999 V2000
   -0.0000   -1.9300    0.0000 C   0  0  0  0  0  0  0  0  0  0  0  0
    0.0000    2.5700    0.0000 C   0  0  0  0  0  0  0  0  0  0  0  0
   -1.3000    1.8200    0.0000 C   0  0  0  0  0  0  0  0  0  0  0  0
    1.3000    1.8200    0.0000 C   0  0  0  0  0  0  0  0  0  0  0  0
   -1.3000    0.3200    0.0000 C   0  0  0  0  0  0  0  0  0  0  0  0
    1.3000    0.3200    0.0000 C   0  0  0  0  0  0  0  0  0  0  0  0
   -0.0000   -0.4300    0.0000 C   0  0  0  0  0  0  0  0  0  0  0  0
  3  2  2  0
  4  2  1  0
  5  3  1  0
  6  4  1  0
  7  1  1  0
  7  5  1  0
  7  6  1  0
M  END
>  <NAME>  (3891) 
4-METHYLCYCLOHEXENE

>  <SYNONYMS>  (3891) 


>  <SPECTRUM TYPE>  (3891) 
MS1

>  <INSTRUMENT TYPE>  (3891) 
EI-B

>  <INSTRUMENT>  (3891) 
HITACHI RMU-6M

>  <ION MODE>  (3891) 
P

>  <INCHIKEY>  (3891) 
FSWCCQWDVGZMRD-UHFFFAOYSA-N

>  <FORMULA>  (3891) 
C7H12

>  <EXACT MASS>  (3891) 
96.093900384

>  <MW>  (3891) 
96

>  <ID>  (3891) 
JP005338

>  <CONTRIBUTOR>  (3891) 
University of Tokyo Team, {Faculty of Engineering, University of Tokyo

>  <COMMENT>  (3891) 
SMILES=CC(C1)CC=CC1
InChI=InChI=1S/C7H12/c1-7-5-3-2-4-6-7/h2-3,7H,4-6H2,1H3
computed SMILES=C1=CCC(C)CC1
accession=JP005338
date=2016.01.19 (Created 2008.10.21, modified 2011.05.06)
author=YAMAMOTO M, DEP. CHEMISTRY, FAC. SCIENCE, NARA WOMEN'S UNIV.
license=CC BY-NC-SA
exact mass=96.0939
ionization energy=70 eV
ion type=[M]+*
computed spectral entropy=2.8352191377254745
computed normalized entropy=0.7538070431018963
SPLASH=splash10-0a59-9000000000-cfbaf1b66e4ae62f3838
submitter=submitter = University of Tokyo Team (Faculty of Engineering, University of Tokyo)
MoNA Rating=3.75

>  <NUM PEAKS>  (3891) 
43

>  <MASS SPECTRAL PEAKS>  (3891) 
15 0.88
17 1.81
18 8.16
27 1.46
28 16.18
29 3.97
30 7.94
33 0.53
38 0.62
39 2.16
40 32.95
41 3.88
42 18.96
43 3.57
44 0.53
45 0.62
46 0.53
47 0.62
51 2.87
52 5.91
53 2.87
54 14.77
55 74.59
56 40.67
57 2.25
62 0.71
63 1.72
65 4.01
66 3.35
67 31.13
68 26.46
69 1.72
77 5.82
78 1.46
79 9.44
80 1.85
81 99.99
82 6.97
91 1.81
93 0.79
95 6.44
96 38.45
97 2.95

>  <PREDICTED SPECTRUM>  (3891) 
26 58
27 227
28 84
29 128
32 11
38 22
39 391
40 176
41 513
42 201
43 49
45 14
47 109
49 52
50 123
51 229
52 135
53 407
54 517
55 576
56 161
57 7
61 19
62 65
63 163
64 12
65 240
66 165
67 897
68 364
69 202
70 126
77 240
78 91
79 484
80 120
81 999
82 376
95 241
96 479
97 119

$$$$

     RDKit          2D

  5  4  0  0  0  0  0  0  0  0999 V2000
   -3.8971    2.2500    0.0000 C   0  0  0  0  0  0  0  0  0  0  0  0
    1.2990    2.2500    0.0000 C   0  0  0  0  0  0  0  0  0  0  0  0
   -2.5981    1.5000    0.0000 C   0  0  0  0  0  0  0  0  0  0  0  0
   -1.2990    2.2500    0.0000 C   0  0  0  0  0  0  0  0  0  0  0  0
    0.0000    1.5000    0.0000 Si  0  0  0  0  0  4  0  0  0  0  0  0
  3  1  1  0
  4  3  1  0
  5  2  1  0
  5  4  1  0
M  END
>  <NAME>  (3892) 
METHYLPROPYLSILANE

>  <SYNONYMS>  (3892) 


>  <SPECTRUM TYPE>  (3892) 
MS1

>  <INSTRUMENT TYPE>  (3892) 
EI-B

>  <INSTRUMENT>  (3892) 
HITACHI RMU-6M

>  <ION MODE>  (3892) 
P

>  <INCHIKEY>  (3892) 
ROMCRKSGDFOTBY-UHFFFAOYSA-N

>  <FORMULA>  (3892) 
C4H12Si

>  <EXACT MASS>  (3892) 
88.070826914

>  <MW>  (3892) 
88

>  <ID>  (3892) 
JP005335

>  <CONTRIBUTOR>  (3892) 
University of Tokyo Team, {Faculty of Engineering, University of Tokyo

>  <COMMENT>  (3892) 
SMILES=CCC[SiH2]C
InChI=InChI=1S/C4H12Si/c1-3-4-5-2/h3-5H2,1-2H3
computed SMILES=CCC[SiH2]C
accession=JP005335
date=2016.01.19 (Created 2008.10.21, modified 2011.05.06)
author=YAMAMOTO M, DEP. CHEMISTRY, FAC. SCIENCE, NARA WOMEN'S UNIV.
license=CC BY-NC-SA
exact mass=88.07083
ionization energy=70 eV
ion type=[M]+*
computed spectral entropy=2.5577317174433434
computed normalized entropy=0.7380053729359846
SPLASH=splash10-052n-9000000000-14081c818ecfd2b0f7f4
submitter=submitter = University of Tokyo Team (Faculty of Engineering, University of Tokyo)
MoNA Rating=3.75

>  <NUM PEAKS>  (3892) 
32

>  <MASS SPECTRAL PEAKS>  (3892) 
15 0.8
27 5.7
28 6.8
29 0.5
31 4
39 4.5
41 5.7
42 1.3
43 27
44 49.3
45 99.99
46 0.73
47 3.2
53 2.6
55 2.8
57 0.18
58 30.9
59 40
60 3.6
61 0.15
66 1.3
67 1.3
70 1.7
71 0.59
72 7.1
73 33.1
74 2.8
75 0.1
85 1.4
86 37.7
87 16.4
88 15.6

>  <PREDICTED SPECTRUM>  (3892) 
14 5
26 27
27 115
28 76
29 50
31 73
33 9
39 15
40 25
41 218
42 166
43 499
44 505
45 999
46 92
53 32
54 9
55 166
56 139
57 212
58 452
59 553
60 194
61 61
71 129
72 194
73 434
74 98
86 280
87 380
88 391
89 122

$$$$

     RDKit          2D

  4  3  0  0  0  0  0  0  0  0999 V2000
   -2.5981    2.2500    0.0000 C   0  0  0  0  0  0  0  0  0  0  0  0
    1.2990    1.5000    0.0000 C   0  0  0  0  0  0  0  0  0  0  0  0
   -1.2990    1.5000    0.0000 C   0  0  0  0  0  0  0  0  0  0  0  0
    0.0000    2.2500    0.0000 Si  0  0  0  0  0  4  0  0  0  0  0  0
  3  1  1  0
  4  2  1  0
  4  3  1  0
M  END
>  <NAME>  (3893) 
ETHYLMETHYLSILANE

>  <SYNONYMS>  (3893) 


>  <SPECTRUM TYPE>  (3893) 
MS1

>  <INSTRUMENT TYPE>  (3893) 
EI-B

>  <INSTRUMENT>  (3893) 
HITACHI RMU-6M

>  <ION MODE>  (3893) 
P

>  <INCHIKEY>  (3893) 
BCSGKKPVRAKXLL-UHFFFAOYSA-N

>  <FORMULA>  (3893) 
C3H10Si

>  <EXACT MASS>  (3893) 
74.05517685

>  <MW>  (3893) 
74

>  <ID>  (3893) 
JP005334

>  <CONTRIBUTOR>  (3893) 
University of Tokyo Team, {Faculty of Engineering, University of Tokyo

>  <COMMENT>  (3893) 
SMILES=CC[SiH2]C
InChI=InChI=1S/C3H10Si/c1-3-4-2/h3-4H2,1-2H3
computed SMILES=CC[SiH2]C
accession=JP005334
date=2016.01.19 (Created 2008.10.21, modified 2011.05.06)
author=YAMAMOTO M, DEP. CHEMISTRY, FAC. SCIENCE, NARA WOMEN'S UNIV.
license=CC BY-NC-SA
exact mass=74.05518
ionization energy=70 eV
ion type=[M]+*
computed spectral entropy=2.377449547067175
computed normalized entropy=0.7213492790222501
SPLASH=splash10-00dm-9000000000-654f92399d31f56fba70
submitter=submitter = University of Tokyo Team (Faculty of Engineering, University of Tokyo)
MoNA Rating=3.75

>  <NUM PEAKS>  (3893) 
27

>  <MASS SPECTRAL PEAKS>  (3893) 
26 1
27 4.7
28 9.5
29 0.88
30 1.7
31 11.8
39 0.8
41 0.24
42 8.6
43 31.2
44 80.5
45 99.99
46 7.2
47 3
53 4.2
54 0.1
55 4.2
56 2.6
57 4.8
58 1.41
59 23.2
60 2.1
70 2.1
71 0.25
72 55.1
73 43.4
74 17.2

>  <PREDICTED SPECTRUM>  (3893) 
14 53
15 67
25 12
26 100
27 207
28 203
29 301
30 90
31 488
32 15
33 25
40 47
41 389
42 332
43 722
44 999
45 934
46 207
47 85
53 49
55 143
56 397
57 499
58 418
59 840
60 180
61 87
71 223
72 654
73 784
74 633
75 185

$$$$

     RDKit          2D

  5  4  0  0  0  0  0  0  0  0999 V2000
   -3.8971    2.2500    0.0000 C   0  0  0  0  0  0  0  0  0  0  0  0
    1.2990    2.2500    0.0000 C   0  0  0  0  0  0  0  0  0  0  0  0
   -2.5981    1.5000    0.0000 C   0  0  0  0  0  0  0  0  0  0  0  0
    0.0000    1.5000    0.0000 C   0  0  0  0  0  0  0  0  0  0  0  0
   -1.2990    2.2500    0.0000 Si  0  0  0  0  0  4  0  0  0  0  0  0
  3  1  1  0
  4  2  1  0
  5  3  1  0
  5  4  1  0
M  END
>  <NAME>  (3894) 
DIETHYLSILANE

>  <SYNONYMS>  (3894) 


>  <SPECTRUM TYPE>  (3894) 
MS1

>  <INSTRUMENT TYPE>  (3894) 
EI-B

>  <INSTRUMENT>  (3894) 
HITACHI RMU-6M

>  <ION MODE>  (3894) 
P

>  <INCHIKEY>  (3894) 
UCXUKTLCVSGCNR-UHFFFAOYSA-N

>  <FORMULA>  (3894) 
C4H12Si

>  <EXACT MASS>  (3894) 
88.070826914

>  <MW>  (3894) 
88

>  <ID>  (3894) 
JP005333

>  <CONTRIBUTOR>  (3894) 
University of Tokyo Team, {Faculty of Engineering, University of Tokyo

>  <COMMENT>  (3894) 
SMILES=CC[SiH2]CC
InChI=InChI=1S/C4H12Si/c1-3-5-4-2/h3-5H2,1-2H3
computed SMILES=CC[SiH2]CC
accession=JP005333
date=2016.01.19 (Created 2008.10.21, modified 2011.05.06)
author=YAMAMOTO M, DEP. CHEMISTRY, FAC. SCIENCE, NARA WOMEN'S UNIV.
license=CC BY-NC-SA
exact mass=88.07083
ionization energy=70 eV
ion type=[M]+*
computed spectral entropy=2.121816887168724
computed normalized entropy=0.6591794783682293
SPLASH=splash10-0a4i-9000000000-b438c271a937e8d07177
submitter=submitter = University of Tokyo Team (Faculty of Engineering, University of Tokyo)
MoNA Rating=3.75

>  <NUM PEAKS>  (3894) 
25

>  <MASS SPECTRAL PEAKS>  (3894) 
26 1
27 5.1
28 3.8
29 1.13
30 2.7
31 31.5
32 2.1
33 0.12
42 2.5
43 23.8
44 2.6
45 0.26
53 4.7
54 1.6
55 6.2
56 0.55
57 10
58 99.99
59 96.9
60 0.97
61 3.7
86 16.2
87 17.7
88 1.68
89 2

>  <PREDICTED SPECTRUM>  (3894) 
14 122
15 213
16 58
17 1
18 32
19 6
25 35
26 191
27 620
28 435
29 590
30 303
31 553
32 49
33 110
35 22
38 45
39 331
40 155
41 553
42 409
43 687
44 173
45 313
46 143
47 51
53 40
55 171
56 488
57 579
58 620
59 668
60 180
61 74
69 414
70 201
71 365
72 183
73 689
74 93
83 104
84 496
85 268
86 911
87 369
88 999
89 262
90 185

$$$$

     RDKit          2D

  6  5  0  0  0  0  0  0  0  0999 V2000
    0.0000    0.0000    0.0000 C   0  0  0  0  0  0  0  0  0  0  0  0
   -0.5490    3.5490    0.0000 C   0  0  0  0  0  0  0  0  0  0  0  0
   -2.5981    3.0000    0.0000 C   0  0  0  0  0  0  0  0  0  0  0  0
   -2.0490    0.9510    0.0000 C   0  0  0  0  0  0  0  0  0  0  0  0
    0.0000    1.5000    0.0000 C   0  0  0  0  0  0  0  0  0  0  0  0
   -1.2990    2.2500    0.0000 Si  0  0  0  0  0  4  0  0  0  0  0  0
  5  1  1  0
  6  2  1  0
  6  3  1  0
  6  4  1  0
  6  5  1  0
M  END
>  <NAME>  (3895) 
ETHYLTRIMETHYLSILANE

>  <SYNONYMS>  (3895) 


>  <SPECTRUM TYPE>  (3895) 
MS1

>  <INSTRUMENT TYPE>  (3895) 
EI-B

>  <INSTRUMENT>  (3895) 
HITACHI RMU-6M

>  <ION MODE>  (3895) 
P

>  <INCHIKEY>  (3895) 
UKAJDOBPPOAZSS-UHFFFAOYSA-N

>  <FORMULA>  (3895) 
C5H14Si

>  <EXACT MASS>  (3895) 
102.08647697800001

>  <MW>  (3895) 
102

>  <ID>  (3895) 
JP005332

>  <CONTRIBUTOR>  (3895) 
University of Tokyo Team, {Faculty of Engineering, University of Tokyo

>  <COMMENT>  (3895) 
computed SMILES=CC[Si](C)(C)C
SMILES=CC[Si](C)(C)C
InChI=InChI=1S/C5H14Si/c1-5-6(2,3)4/h5H2,1-4H3
accession=JP005332
date=2016.01.19 (Created 2008.10.21, modified 2011.05.06)
author=YAMAMOTO M, DEP. CHEMISTRY, FAC. SCIENCE, NARA WOMEN'S UNIV.
license=CC BY-NC-SA
exact mass=102.08648
ionization energy=70 eV
ion type=[M]+*
computed spectral entropy=1.7793598382558933
computed normalized entropy=0.567489434110983
SPLASH=splash10-05fr-9000000000-e0c82ddae9b1691b9716
submitter=submitter = University of Tokyo Team (Faculty of Engineering, University of Tokyo)
MoNA Rating=3.75

>  <NUM PEAKS>  (3895) 
23

>  <MASS SPECTRAL PEAKS>  (3895) 
27 1.1
28 3.5
29 3.5
31 0.29
42 1.8
43 11.1
44 2.5
45 0.97
53 1.3
55 1.8
57 1.6
58 0.36
59 51.4
60 3.6
61 1.6
72 0.1
73 99.99
74 7.9
75 3.4
87 2.1
88 2.2
89 0.8
102 5.2

>  <PREDICTED SPECTRUM>  (3895) 
27 38
28 51
29 33
31 86
32 14
39 0
43 225
44 109
45 330
46 53
47 143
53 58
55 12
57 114
58 86
59 563
60 167
61 174
71 4
73 999
74 260
75 391
76 55
87 206
89 26
101 4
102 211
103 107
104 6

$$$$

     RDKit          2D

  8  7  0  0  0  0  0  0  0  0999 V2000
    1.9486    3.3750    0.0000 C   0  0  0  0  0  0  0  0  0  0  0  0
   -3.2476    1.8750    0.0000 C   0  0  0  0  0  0  0  0  0  0  0  0
    0.6495    4.1250    0.0000 C   0  0  0  0  0  0  0  0  0  0  0  0
   -0.6495    3.3750    0.0000 C   0  0  0  0  0  0  0  0  0  0  0  0
   -1.9486    4.1250    0.0000 C   0  0  0  0  0  0  0  0  0  0  0  0
   -4.5466    4.1250    0.0000 C   0  0  0  0  0  0  0  0  0  0  0  0
   -3.2476    3.3750    0.0000 C   0  0  0  0  0  0  0  0  0  0  0  0
   -5.8457    3.3750    0.0000 O   0  0  0  0  0  0  0  0  0  0  0  0
  3  1  1  0
  4  3  1  0
  5  4  1  0
  7  2  1  0
  7  5  1  0
  7  6  1  0
  8  6  1  0
M  END
>  <NAME>  (3896) 
2-METHYL-1-HEXANOL

>  <SYNONYMS>  (3896) 


>  <SPECTRUM TYPE>  (3896) 
MS1

>  <INSTRUMENT TYPE>  (3896) 
EI-B

>  <INSTRUMENT>  (3896) 
HITACHI RMU-6M

>  <ION MODE>  (3896) 
P

>  <INCHIKEY>  (3896) 
LCFKURIJYIJNRU-UHFFFAOYSA-N

>  <FORMULA>  (3896) 
C7H16O

>  <EXACT MASS>  (3896) 
116.120115132

>  <MW>  (3896) 
116

>  <ID>  (3896) 
JP005328

>  <CONTRIBUTOR>  (3896) 
University of Tokyo Team, {Faculty of Engineering, University of Tokyo

>  <COMMENT>  (3896) 
SMILES=CCCCC(C)CO
InChI=InChI=1S/C7H16O/c1-3-4-5-7(2)6-8/h7-8H,3-6H2,1-2H3
computed SMILES=OCC(C)CCCC
accession=JP005328
date=2016.01.19 (Created 2008.10.21, modified 2011.05.06)
author=YAMAMOTO M, DEP. CHEMISTRY, FAC. SCIENCE, NARA WOMEN'S UNIV.
license=CC BY-NC-SA
exact mass=116.12012
ionization energy=70 eV
ion type=[M]+*
computed spectral entropy=2.5982269591537324
computed normalized entropy=0.8071845888184018
SPLASH=splash10-052f-9000000000-b337b824323d290d0e42
submitter=submitter = University of Tokyo Team (Faculty of Engineering, University of Tokyo)
MoNA Rating=3.75

>  <NUM PEAKS>  (3896) 
25

>  <MASS SPECTRAL PEAKS>  (3896) 
27 11.84
28 3.36
29 12.89
31 10.56
39 7.66
40 1.29
41 27.87
42 8.24
43 99.99
44 3.37
45 2.21
53 1.62
54 1.51
55 15.33
56 32.4
57 17.42
59 1.28
68 1.62
69 21.95
70 12.89
83 3.71
84 11.26
85 21.95
86 1.39
98 10.86

>  <PREDICTED SPECTRUM>  (3896) 
14 31
15 92
16 10
19 15
25 18
26 112
27 480
28 226
29 593
30 72
31 333
32 45
37 20
38 80
39 410
40 135
41 820
42 457
43 999
44 186
45 175
50 31
51 60
52 34
53 206
54 129
55 685
56 800
57 840
58 226
59 262
65 25
67 109
68 101
69 632
70 416
71 239
72 54
81 30
83 312
84 462
85 427
86 74
98 211
99 86

$$$$

     RDKit          2D

  6  5  0  0  0  0  0  0  0  0999 V2000
   -1.9486    1.1250    0.0000 C   0  0  0  0  0  0  0  0  0  0  0  0
    1.3995    1.3260    0.0000 C   0  0  0  0  0  0  0  0  0  0  0  0
    1.9486    3.3750    0.0000 C   0  0  0  0  0  0  0  0  0  0  0  0
   -0.6495    1.8750    0.0000 C   0  0  0  0  0  0  0  0  0  0  0  0
    0.6495    2.6250    0.0000 C   0  0  0  0  0  0  0  0  0  0  0  0
   -0.1005    3.9240    0.0000 O   0  0  0  0  0  0  0  0  0  0  0  0
  4  1  3  0
  5  2  1  0
  5  3  1  0
  5  4  1  0
  6  5  1  0
M  END
>  <NAME>  (3897) 
3-METHYL-1-BUTYN-3-OL

>  <SYNONYMS>  (3897) 


>  <SPECTRUM TYPE>  (3897) 
MS1

>  <INSTRUMENT TYPE>  (3897) 
EI-B

>  <INSTRUMENT>  (3897) 
HITACHI RMU-6M

>  <ION MODE>  (3897) 
P

>  <INCHIKEY>  (3897) 
CEBKHWWANWSNTI-UHFFFAOYSA-N

>  <FORMULA>  (3897) 
C5H8O

>  <EXACT MASS>  (3897) 
84.057514876

>  <MW>  (3897) 
84

>  <ID>  (3897) 
JP005326

>  <CONTRIBUTOR>  (3897) 
University of Tokyo Team, {Faculty of Engineering, University of Tokyo

>  <COMMENT>  (3897) 
SMILES=C#CC(C)(C)O
InChI=InChI=1S/C5H8O/c1-4-5(2,3)6/h1,6H,2-3H3
computed SMILES=C#CC(O)(C)C
accession=JP005326
date=2016.01.19 (Created 2008.10.21, modified 2011.05.06)
author=YAMAMOTO M, DEP. CHEMISTRY, FAC. SCIENCE, NARA WOMEN'S UNIV.
license=CC BY-NC-SA
exact mass=84.05751
ionization energy=70 eV
ion type=[M]+*
computed spectral entropy=2.082185012834104
computed normalized entropy=0.6390802078868221
SPLASH=splash10-00di-9000000000-3ef028875ff7d084c478
submitter=submitter = University of Tokyo Team (Faculty of Engineering, University of Tokyo)
MoNA Rating=3.75

>  <NUM PEAKS>  (3897) 
26

>  <MASS SPECTRAL PEAKS>  (3897) 
15 4.73
26 1.48
27 3.65
29 1.58
31 1.28
37 1.68
38 2.86
39 12.72
40 2.17
41 9.66
42 1.97
43 41.66
44 1.28
49 1.08
50 3.64
51 4.34
53 4.53
55 2.07
56 1.28
65 1.18
67 2.07
69 2.66
70 99.99
71 4.63
83 6.8
84 0.49

>  <PREDICTED SPECTRUM>  (3897) 
14 76
15 176
16 18
17 6
18 21
19 11
25 35
26 121
27 221
28 121
29 112
31 154
32 18
33 21
37 101
38 161
39 380
40 173
41 313
42 164
43 775
44 105
49 54
50 186
51 275
52 200
53 284
54 102
55 62
59 247
63 135
64 71
65 197
66 146
67 216
68 32
69 999
70 240
71 39
83 157
84 94
85 1

$$$$

     RDKit          2D

  8  7  0  0  0  0  0  0  0  0999 V2000
    1.8983    1.9620    0.0000 C   0  0  0  0  0  0  0  0  0  0  0  0
    0.5993    4.2120    0.0000 C   0  0  0  0  0  0  0  0  0  0  0  0
   -1.2488    4.0111    0.0000 C   0  0  0  0  0  0  0  0  0  0  0  0
   -3.2978    3.4620    0.0000 C   0  0  0  0  0  0  0  0  0  0  0  0
   -2.7488    1.4130    0.0000 C   0  0  0  0  0  0  0  0  0  0  0  0
   -0.6998    1.9620    0.0000 C   0  0  0  0  0  0  0  0  0  0  0  0
    0.5993    2.7120    0.0000 C   0  0  0  0  0  0  0  0  0  0  0  0
   -1.9988    2.7120    0.0000 C   0  0  0  0  0  0  0  0  0  0  0  0
  7  1  1  0
  7  2  1  0
  7  6  1  0
  8  3  1  0
  8  4  1  0
  8  5  1  0
  8  6  1  0
M  END
>  <NAME>  (3898) 
2,2,4-TRIMETHYLPENTANE

>  <SYNONYMS>  (3898) 


>  <SPECTRUM TYPE>  (3898) 
MS1

>  <INSTRUMENT TYPE>  (3898) 
EI-B

>  <INSTRUMENT>  (3898) 
HITACHI RMU-6M

>  <ION MODE>  (3898) 
P

>  <INCHIKEY>  (3898) 
NHTMVDHEPJAVLT-UHFFFAOYSA-N

>  <FORMULA>  (3898) 
C8H18

>  <EXACT MASS>  (3898) 
114.14085057599999

>  <MW>  (3898) 
114

>  <ID>  (3898) 
JP005324

>  <CONTRIBUTOR>  (3898) 
University of Tokyo Team, {Faculty of Engineering, University of Tokyo

>  <COMMENT>  (3898) 
SMILES=CC(C)CC(C)(C)C
InChI=InChI=1S/C8H18/c1-7(2)6-8(3,4)5/h7H,6H2,1-5H3
computed SMILES=CC(C)CC(C)(C)C
accession=JP005324
date=2016.01.19 (Created 2008.10.21, modified 2011.05.06)
author=YAMAMOTO M, DEP. CHEMISTRY, FAC. SCIENCE, NARA WOMEN'S UNIV.
license=CC BY-NC-SA
exact mass=114.14085
ionization energy=70 eV
ion type=[M]+*
computed spectral entropy=1.7298077688283147
computed normalized entropy=0.69612585606622
SPLASH=splash10-0a4i-9000000000-e5c24987d83bc5fa562f
submitter=submitter = University of Tokyo Team (Faculty of Engineering, University of Tokyo)
MoNA Rating=3.75

>  <NUM PEAKS>  (3898) 
12

>  <MASS SPECTRAL PEAKS>  (3898) 
27 5.38
29 9.61
39 5.12
40 1.25
41 20.64
42 1.25
43 18.92
55 3.4
56 35.9
57 99.99
58 4.54
99 5.86

>  <PREDICTED SPECTRUM>  (3898) 
15 11
25 1
26 19
27 169
28 9
29 301
37 20
38 26
39 200
40 79
41 529
42 163
43 351
44 9
51 43
52 58
53 153
54 79
55 341
56 577
57 999
58 169
59 57
66 1
67 19
69 152
70 58
71 132
85 42
99 138
100 18
114 108
115 31

$$$$

     RDKit          2D

  9  8  0  0  0  0  0  0  0  0999 V2000
    1.9486    3.3750    0.0000 C   0  0  0  0  0  0  0  0  0  0  0  0
   -5.8457    3.3750    0.0000 C   0  0  0  0  0  0  0  0  0  0  0  0
   -4.5466    5.6250    0.0000 C   0  0  0  0  0  0  0  0  0  0  0  0
    0.6495    4.1250    0.0000 C   0  0  0  0  0  0  0  0  0  0  0  0
   -3.2476    3.3750    0.0000 C   0  0  0  0  0  0  0  0  0  0  0  0
   -4.5466    4.1250    0.0000 C   0  0  0  0  0  0  0  0  0  0  0  0
   -1.9486    4.1250    0.0000 C   0  0  0  0  0  0  0  0  0  0  0  0
   -1.9486    5.6250    0.0000 O   0  0  0  0  0  0  0  0  0  0  0  0
   -0.6495    3.3750    0.0000 O   0  0  0  0  0  0  0  0  0  0  0  0
  4  1  1  0
  6  2  1  0
  6  3  1  0
  6  5  1  0
  7  5  1  0
  8  7  2  0
  9  4  1  0
  9  7  1  0
M  END
>  <NAME>  (3899) 
ETHYL ISOVALERATE

>  <SYNONYMS>  (3899) 
3-METHYLBUTANOIC ACID ETHYL ESTER

>  <SPECTRUM TYPE>  (3899) 
MS1

>  <INSTRUMENT TYPE>  (3899) 
EI-B

>  <INSTRUMENT>  (3899) 
HITACHI RMU-6M

>  <ION MODE>  (3899) 
P

>  <INCHIKEY>  (3899) 
PPXUHEORWJQRHJ-UHFFFAOYSA-N

>  <FORMULA>  (3899) 
C7H14O2

>  <EXACT MASS>  (3899) 
130.099379688

>  <MW>  (3899) 
130

>  <ID>  (3899) 
JP005299

>  <CONTRIBUTOR>  (3899) 
University of Tokyo Team, {Faculty of Engineering, University of Tokyo

>  <COMMENT>  (3899) 
SMILES=CCOC(=O)CC(C)C
InChI=InChI=1S/C7H14O2/c1-4-9-7(8)5-6(2)3/h6H,4-5H2,1-3H3
computed SMILES=O=C(OCC)CC(C)C
accession=JP005299
date=2016.01.19 (Created 2008.10.21, modified 2011.05.06)
author=YAMAMOTO M, DEP. CHEMISTRY, FAC. SCIENCE, NARA WOMEN'S UNIV.
license=CC BY-NC-SA
exact mass=130.09938
ionization energy=70 eV
ion type=[M]+*
computed spectral entropy=2.8907043969980384
computed normalized entropy=0.8066664210915103
SPLASH=splash10-002r-9000000000-2e5a458a237911c47c6a
submitter=submitter = University of Tokyo Team (Faculty of Engineering, University of Tokyo)
MoNA Rating=3.75

>  <NUM PEAKS>  (3899) 
36

>  <MASS SPECTRAL PEAKS>  (3899) 
15 4.17
26 2.14
27 24.77
28 4.69
29 67.12
30 1.39
31 1.85
38 1.1
39 14.68
40 2.55
41 37.12
42 8.58
43 22.96
44 1.33
45 18.45
53 1.27
55 5.56
56 7.19
57 62.3
58 2.9
59 13.57
60 43.45
61 24.31
69 3.54
70 15.72
71 1.22
73 6.26
85 68.08
86 4
87 12.29
88 99.99
89 4.87
101 1.39
103 4.23
115 10.32
130 4.93

>  <PREDICTED SPECTRUM>  (3899) 
15 71
26 49
27 277
28 142
29 512
31 92
38 8
39 317
40 93
41 643
42 357
43 525
44 128
45 351
46 110
47 116
53 81
54 63
55 155
56 460
57 962
58 124
59 280
60 625
61 572
69 272
70 99
73 414
74 130
75 245
84 112
85 999
86 72
87 140
88 822
89 216
90 34
101 12
115 194
130 209
131 51

$$$$

     RDKit          2D

  8  7  0  0  0  0  0  0  0  0999 V2000
   -3.5724    3.9375    0.0000 C   0  0  0  0  0  0  0  0  0  0  0  0
   -2.2733    1.6875    0.0000 C   0  0  0  0  0  0  0  0  0  0  0  0
    2.9228    3.1875    0.0000 C   0  0  0  0  0  0  0  0  0  0  0  0
   -0.9743    3.9375    0.0000 C   0  0  0  0  0  0  0  0  0  0  0  0
   -2.2733    3.1875    0.0000 C   0  0  0  0  0  0  0  0  0  0  0  0
    0.3248    3.1875    0.0000 C   0  0  0  0  0  0  0  0  0  0  0  0
    0.3248    1.6875    0.0000 O   0  0  0  0  0  0  0  0  0  0  0  0
    1.6238    3.9375    0.0000 O   0  0  0  0  0  0  0  0  0  0  0  0
  5  1  1  0
  5  2  1  0
  5  4  1  0
  6  4  1  0
  7  6  2  0
  8  3  1  0
  8  6  1  0
M  END
>  <NAME>  (3900) 
METHYL ISOVALERATE

>  <SYNONYMS>  (3900) 
3-METHYLBUTANOIC ACID METHYL ESTER

>  <SPECTRUM TYPE>  (3900) 
MS1

>  <INSTRUMENT TYPE>  (3900) 
EI-B

>  <INSTRUMENT>  (3900) 
HITACHI RMU-6M

>  <ION MODE>  (3900) 
P

>  <INCHIKEY>  (3900) 
OQAGVSWESNCJJT-UHFFFAOYSA-N

>  <FORMULA>  (3900) 
C6H12O2

>  <EXACT MASS>  (3900) 
116.083729624

>  <MW>  (3900) 
116

>  <ID>  (3900) 
JP005298

>  <CONTRIBUTOR>  (3900) 
University of Tokyo Team, {Faculty of Engineering, University of Tokyo

>  <COMMENT>  (3900) 
SMILES=COC(=O)CC(C)C
InChI=InChI=1S/C6H12O2/c1-5(2)4-6(7)8-3/h5H,4H2,1-3H3
computed SMILES=O=C(OC)CC(C)C
accession=JP005298
date=2016.01.19 (Created 2008.10.21, modified 2011.05.06)
author=YAMAMOTO M, DEP. CHEMISTRY, FAC. SCIENCE, NARA WOMEN'S UNIV.
license=CC BY-NC-SA
exact mass=116.08373
ionization energy=70 eV
ion type=[M]+*
computed spectral entropy=2.5749155101326195
computed normalized entropy=0.7812630341908546
SPLASH=splash10-00dl-9000000000-7f5aff59c48fa693bf95
submitter=submitter = University of Tokyo Team (Faculty of Engineering, University of Tokyo)
MoNA Rating=3.75

>  <NUM PEAKS>  (3900) 
27

>  <MASS SPECTRAL PEAKS>  (3900) 
15 15.99
27 11.24
28 2.14
29 16.34
31 2.9
38 1.16
39 12.79
40 2.08
41 27.59
42 5.21
43 34.68
44 1.97
45 1.16
53 1.16
55 3.24
56 4.29
57 25.76
58 1.16
59 20.62
69 4.98
73 2.89
74 99.99
75 4.06
85 30.25
86 1.74
101 13.67
116 2.89

>  <PREDICTED SPECTRUM>  (3900) 
14 50
15 217
16 7
26 58
27 306
28 109
29 407
31 198
32 43
33 87
38 88
39 477
40 212
41 944
42 542
43 944
44 188
45 182
53 78
54 55
55 249
56 333
57 999
58 115
59 731
60 77
61 120
69 210
73 224
74 923
75 189
84 69
85 612
87 182
101 288
102 13
116 201

$$$$

     RDKit          2D

  7  7  0  0  0  0  0  0  0  0999 V2000
   -0.0000   -1.9300    0.0000 C   0  0  0  0  0  0  0  0  0  0  0  0
   -1.3000    0.3200    0.0000 C   0  0  0  0  0  0  0  0  0  0  0  0
    1.3000    0.3200    0.0000 C   0  0  0  0  0  0  0  0  0  0  0  0
   -1.3000    1.8200    0.0000 C   0  0  0  0  0  0  0  0  0  0  0  0
    1.3000    1.8200    0.0000 C   0  0  0  0  0  0  0  0  0  0  0  0
   -0.0000   -0.4300    0.0000 C   0  0  0  0  0  0  0  0  0  0  0  0
    0.0000    2.5700    0.0000 N   0  0  0  0  0  0  0  0  0  0  0  0
  4  2  2  0
  5  3  1  0
  6  1  1  0
  6  2  1  0
  6  3  2  0
  7  4  1  0
  7  5  2  0
M  END
>  <NAME>  (3901) 
GAMMA-PICOLINE

>  <SYNONYMS>  (3901) 
4-METHYLPYRIDINE

>  <SPECTRUM TYPE>  (3901) 
MS1

>  <INSTRUMENT TYPE>  (3901) 
EI-B

>  <INSTRUMENT>  (3901) 
HITACHI RMU-6M

>  <ION MODE>  (3901) 
P

>  <INCHIKEY>  (3901) 
FKNQCJSGGFJEIZ-UHFFFAOYSA-N

>  <FORMULA>  (3901) 
C6H7N

>  <EXACT MASS>  (3901) 
93.057849224

>  <MW>  (3901) 
93

>  <ID>  (3901) 
JP005292

>  <CONTRIBUTOR>  (3901) 
University of Tokyo Team, {Faculty of Engineering, University of Tokyo

>  <COMMENT>  (3901) 
SMILES=Cc(c1)ccnc1
InChI=InChI=1S/C6H7N/c1-6-2-4-7-5-3-6/h2-5H,1H3
computed SMILES=N=1C=CC(=CC1)C
accession=JP005292
date=2016.01.19 (Created 2008.10.21, modified 2011.05.06)
author=YAMAMOTO M, DEP. CHEMISTRY, FAC. SCIENCE, NARA WOMEN'S UNIV.
license=CC BY-NC-SA
exact mass=93.05785
ionization energy=70 eV
ion type=[M]+*
computed spectral entropy=2.5289386090564254
computed normalized entropy=0.7762012511121458
SPLASH=splash10-0006-9000000000-75f1d52abf95872b6e73
submitter=submitter = University of Tokyo Team (Faculty of Engineering, University of Tokyo)
MoNA Rating=3.75

>  <NUM PEAKS>  (3901) 
26

>  <MASS SPECTRAL PEAKS>  (3901) 
26 3.22
27 3.72
28 4
37 3.1
38 6.38
39 22.99
40 10.44
41 3.55
49 1.17
50 5.32
51 8.6
52 4.16
53 5.61
54 7.6
61 1.72
62 2.66
63 5.83
64 3.05
65 18.88
66 36.15
67 8.38
78 4.22
91 1.39
92 21.77
93 99.99
94 7.72

>  <PREDICTED SPECTRUM>  (3901) 
14 28
15 17
16 19
25 50
26 122
27 174
28 177
36 56
37 234
38 331
39 569
40 242
41 285
42 48
48 0
49 109
50 417
51 535
52 188
53 228
54 46
61 131
62 154
63 349
64 286
65 547
66 446
67 225
74 37
75 94
78 281
90 148
91 336
92 935
93 999
94 287

$$$$

     RDKit          2D

  8  8  0  0  0  0  0  0  0  0999 V2000
    2.2733   -0.6175    0.0000 C   0  0  0  0  0  0  0  0  0  0  0  0
    2.2738    0.8833    0.0000 C   0  0  0  0  0  0  0  0  0  0  0  0
    0.9738   -1.3683    0.0000 C   0  0  0  0  0  0  0  0  0  0  0  0
    0.9748    1.6333    0.0000 C   0  0  0  0  0  0  0  0  0  0  0  0
   -0.3252   -0.6183    0.0000 C   0  0  0  0  0  0  0  0  0  0  0  0
   -1.6238    1.6325    0.0000 C   0  0  0  0  0  0  0  0  0  0  0  0
   -0.3248    0.8825    0.0000 C   0  0  0  0  0  0  0  0  0  0  0  0
   -2.9228    0.8825    0.0000 Cl  0  0  0  0  0  0  0  0  0  0  0  0
  2  1  2  0
  3  1  1  0
  4  2  1  0
  5  3  2  0
  7  4  2  0
  7  5  1  0
  7  6  1  0
  8  6  1  0
M  END
>  <NAME>  (3902) 
BENZYL CHLORIDE

>  <SYNONYMS>  (3902) 


>  <SPECTRUM TYPE>  (3902) 
MS1

>  <INSTRUMENT TYPE>  (3902) 
EI-B

>  <INSTRUMENT>  (3902) 
HITACHI RMU-6M

>  <ION MODE>  (3902) 
P

>  <INCHIKEY>  (3902) 
KCXMKQUNVWSEMD-UHFFFAOYSA-N

>  <FORMULA>  (3902) 
C7H7Cl

>  <EXACT MASS>  (3902) 
126.023627904

>  <MW>  (3902) 
126

>  <ID>  (3902) 
JP005288

>  <CONTRIBUTOR>  (3902) 
University of Tokyo Team, {Faculty of Engineering, University of Tokyo

>  <COMMENT>  (3902) 
SMILES=ClCc(c1)cccc1
InChI=InChI=1S/C7H7Cl/c8-6-7-4-2-1-3-5-7/h1-5H,6H2
computed SMILES=ClCC=1C=CC=CC1
accession=JP005288
date=2016.01.19 (Created 2008.10.21, modified 2011.05.06)
author=YAMAMOTO M, DEP. CHEMISTRY, FAC. SCIENCE, NARA WOMEN'S UNIV.
license=CC BY-NC-SA
exact mass=126.02363
ionization energy=70 eV
ion type=[M]+*
computed spectral entropy=2.1071753920912255
computed normalized entropy=0.6630395533169819
SPLASH=splash10-0006-9100000000-67b83a9d6a1325358c6b
submitter=submitter = University of Tokyo Team (Faculty of Engineering, University of Tokyo)
MoNA Rating=3.75

>  <NUM PEAKS>  (3902) 
24

>  <MASS SPECTRAL PEAKS>  (3902) 
37 1.19
38 2.4
39 8.43
41 1.56
43 1.14
44 1.09
45 4.16
45.5 1.14
50 3.29
51 4.68
52 1.3
61 1.25
62 3.17
63 7.7
64 1.94
65 10.61
89 5.2
90 2.29
91 99.99
92 7.81
125 2.81
126 22.04
127 2.7
128 7.28

>  <PREDICTED SPECTRUM>  (3902) 
14 29
15 34
17 1
18 14
25 17
26 58
27 109
28 83
29 17
32 8
35 40
36 70
37 89
38 139
39 289
40 91
41 83
48 0
49 80
50 188
51 246
52 58
58 35
60 57
61 88
62 163
63 251
64 153
65 386
66 55
73 37
74 112
75 46
76 25
86 6
89 240
90 218
91 999
92 372
93 145
125 9
126 439
127 145
128 296
129 89

$$$$

     RDKit          2D

  7  7  0  0  0  0  0  0  0  0999 V2000
    0.0000    2.5700    0.0000 C   0  0  0  0  0  0  0  0  0  0  0  0
    1.3000    1.8200    0.0000 C   0  0  0  0  0  0  0  0  0  0  0  0
   -1.3000    1.8200    0.0000 C   0  0  0  0  0  0  0  0  0  0  0  0
    1.3000    0.3200    0.0000 C   0  0  0  0  0  0  0  0  0  0  0  0
   -1.3000    0.3200    0.0000 C   0  0  0  0  0  0  0  0  0  0  0  0
   -0.0000   -0.4300    0.0000 C   0  0  0  0  0  0  0  0  0  0  0  0
   -0.0000   -1.9300    0.0000 Cl  0  0  0  0  0  0  0  0  0  0  0  0
  2  1  1  0
  3  1  1  0
  4  2  1  0
  5  3  1  0
  6  4  1  0
  6  5  1  0
  7  6  1  0
M  END
>  <NAME>  (3903) 
CYCLOHEXYL CHLORIDE

>  <SYNONYMS>  (3903) 


>  <SPECTRUM TYPE>  (3903) 
MS1

>  <INSTRUMENT TYPE>  (3903) 
EI-B

>  <INSTRUMENT>  (3903) 
HITACHI RMU-6M

>  <ION MODE>  (3903) 
P

>  <INCHIKEY>  (3903) 
UNFUYWDGSFDHCW-UHFFFAOYSA-N

>  <FORMULA>  (3903) 
C6H11Cl

>  <EXACT MASS>  (3903) 
118.05492803199999

>  <MW>  (3903) 
118

>  <ID>  (3903) 
JP005287

>  <CONTRIBUTOR>  (3903) 
University of Tokyo Team, {Faculty of Engineering, University of Tokyo

>  <COMMENT>  (3903) 
SMILES=ClC(C1)CCCC1
InChI=InChI=1S/C6H11Cl/c7-6-4-2-1-3-5-6/h6H,1-5H2
computed SMILES=ClC1CCCCC1
accession=JP005287
date=2016.01.19 (Created 2008.10.21, modified 2011.05.06)
author=YAMAMOTO M, DEP. CHEMISTRY, FAC. SCIENCE, NARA WOMEN'S UNIV.
license=CC BY-NC-SA
exact mass=118.05493
ionization energy=70 eV
ion type=[M]+*
computed spectral entropy=2.457467858308956
computed normalized entropy=0.7542648996525078
SPLASH=splash10-0gb9-9000000000-b1861e1c572fc3b165dd
submitter=submitter = University of Tokyo Team (Faculty of Engineering, University of Tokyo)
MoNA Rating=3.75

>  <NUM PEAKS>  (3903) 
26

>  <MASS SPECTRAL PEAKS>  (3903) 
15 1.19
26 2.49
27 19.73
28 5.7
29 7.56
38 2.12
39 24.24
40 5.07
41 50.09
42 7.25
43 3.68
49 1.45
50 2.59
51 4.45
52 1.97
53 36.8
54 44.63
55 9.86
62 2.75
65 1.76
66 1.71
67 99.99
68 33.05
69 1.96
118 4.4
120 1.3

>  <PREDICTED SPECTRUM>  (3903) 
15 24
26 67
27 253
28 93
29 119
35 28
36 33
37 33
38 98
39 499
40 210
41 638
42 311
43 121
46 137
49 87
50 113
51 212
52 152
53 394
54 682
55 783
56 342
62 106
63 214
64 29
65 227
66 159
67 999
68 395
69 450
74 50
75 132
76 163
77 197
78 129
79 319
80 73
81 985
82 808
83 335
84 48
90 62
91 83
118 97
120 9

$$$$

     RDKit          2D

  5  4  0  0  0  0  0  0  0  0999 V2000
   -1.2990    0.7500    0.0000 C   0  0  0  0  0  0  0  0  0  0  0  0
    0.7500    0.2010    0.0000 C   0  0  0  0  0  0  0  0  0  0  0  0
    1.2990    2.2500    0.0000 C   0  0  0  0  0  0  0  0  0  0  0  0
    0.0000    1.5000    0.0000 C   0  0  0  0  0  0  0  0  0  0  0  0
   -0.7500    2.7990    0.0000 Cl  0  0  0  0  0  0  0  0  0  0  0  0
  4  1  1  0
  4  2  1  0
  4  3  1  0
  5  4  1  0
M  END
>  <NAME>  (3904) 
TERT-BUTYL CHLORIDE

>  <SYNONYMS>  (3904) 


>  <SPECTRUM TYPE>  (3904) 
MS1

>  <INSTRUMENT TYPE>  (3904) 
EI-B

>  <INSTRUMENT>  (3904) 
HITACHI RMU-6M

>  <ION MODE>  (3904) 
P

>  <INCHIKEY>  (3904) 
NBRKLOOSMBRFMH-UHFFFAOYSA-N

>  <FORMULA>  (3904) 
C4H9Cl

>  <EXACT MASS>  (3904) 
92.039277968

>  <MW>  (3904) 
92

>  <ID>  (3904) 
JP005286

>  <CONTRIBUTOR>  (3904) 
University of Tokyo Team, {Faculty of Engineering, University of Tokyo

>  <COMMENT>  (3904) 
SMILES=CC(C)(C)Cl
InChI=InChI=1S/C4H9Cl/c1-4(2,3)5/h1-3H3
computed SMILES=ClC(C)(C)C
accession=JP005286
date=2016.01.19 (Created 2008.10.21, modified 2011.05.06)
author=YAMAMOTO M, DEP. CHEMISTRY, FAC. SCIENCE, NARA WOMEN'S UNIV.
license=CC BY-NC-SA
exact mass=92.03928
ionization energy=70 eV
ion type=[M]+*
computed spectral entropy=2.250424789169349
computed normalized entropy=0.7081141193014229
SPLASH=splash10-0a6u-9000000000-a79b092d10fb12408ae6
submitter=submitter = University of Tokyo Team (Faculty of Engineering, University of Tokyo)
MoNA Rating=3.75

>  <NUM PEAKS>  (3904) 
24

>  <MASS SPECTRAL PEAKS>  (3904) 
15 2.2
26 2.2
27 12.03
28 3.88
29 23.16
37 1.68
38 3.49
39 20.07
40 2.98
41 63.73
42 3.36
49 2.07
50 1.81
51 1.55
53 1.29
55 3.75
56 5.7
57 99.99
58 4.4
59 1.95
76 2.85
77 37.54
78 1.81
79 12.3

>  <PREDICTED SPECTRUM>  (3904) 
14 83
15 161
25 31
26 159
27 416
28 254
29 349
31 20
35 21
36 124
37 79
38 175
39 634
40 256
41 999
42 418
43 241
49 127
50 166
51 226
52 101
53 250
54 213
55 469
56 491
57 950
58 139
63 59
64 94
65 78
77 319
79 188
92 154
93 6
94 84

$$$$

     RDKit          2D

  5  4  0  0  0  0  0  0  0  0999 V2000
   -0.0000   -0.0000    0.0000 C   0  0  0  0  0  0  0  0  0  0  0  0
   -1.2990    3.7500    0.0000 C   0  0  0  0  0  0  0  0  0  0  0  0
    0.0000    1.5000    0.0000 C   0  0  0  0  0  0  0  0  0  0  0  0
   -1.2990    2.2500    0.0000 C   0  0  0  0  0  0  0  0  0  0  0  0
   -2.5981    1.5000    0.0000 Cl  0  0  0  0  0  0  0  0  0  0  0  0
  3  1  1  0
  4  2  1  0
  4  3  1  0
  5  4  1  0
M  END
>  <NAME>  (3905) 
SEC-BUTYL CHLORIDE

>  <SYNONYMS>  (3905) 
1-METHYLPROPYL CHLORIDE

>  <SPECTRUM TYPE>  (3905) 
MS1

>  <INSTRUMENT TYPE>  (3905) 
EI-B

>  <INSTRUMENT>  (3905) 
HITACHI RMU-6M

>  <ION MODE>  (3905) 
P

>  <INCHIKEY>  (3905) 
BSPCSKHALVHRSR-UHFFFAOYSA-N

>  <FORMULA>  (3905) 
C4H9Cl

>  <EXACT MASS>  (3905) 
92.039277968

>  <MW>  (3905) 
92

>  <ID>  (3905) 
JP005283

>  <CONTRIBUTOR>  (3905) 
University of Tokyo Team, {Faculty of Engineering, University of Tokyo

>  <COMMENT>  (3905) 
SMILES=CCC(C)Cl
InChI=InChI=1S/C4H9Cl/c1-3-4(2)5/h4H,3H2,1-2H3
computed SMILES=ClC(C)CC
accession=JP005283
date=2016.01.19 (Created 2008.10.21, modified 2011.05.06)
author=YAMAMOTO M, DEP. CHEMISTRY, FAC. SCIENCE, NARA WOMEN'S UNIV.
license=CC BY-NC-SA
exact mass=92.03928
ionization energy=70 eV
ion type=[M]+*
computed spectral entropy=2.4680154706079787
computed normalized entropy=0.7406554618936678
SPLASH=splash10-0a6r-9000000000-e3b59e25e1a91193d374
submitter=submitter = University of Tokyo Team (Faculty of Engineering, University of Tokyo)
MoNA Rating=3.75

>  <NUM PEAKS>  (3905) 
28

>  <MASS SPECTRAL PEAKS>  (3905) 
15 1.96
26 5.99
27 40.63
28 12.81
29 40.42
37 1.08
38 2.32
39 15.72
40 2.32
41 57.86
42 2.89
49 2.22
50 2.33
51 2.12
53 2.07
55 7.6
56 99.99
57 87.45
58 3.77
61 1.13
62 12.2
63 37.63
64 4.65
65 12.1
76 1.13
77 5.38
79 1.71
92 0.62

>  <PREDICTED SPECTRUM>  (3905) 
14 78
15 185
16 0
25 46
26 279
27 764
28 410
29 669
31 116
35 75
36 125
37 66
38 195
39 683
40 229
41 802
42 172
43 346
44 27
49 119
50 49
51 178
52 85
53 222
54 20
55 38
56 200
57 709
58 53
63 999
64 261
65 589
66 238
77 162
79 102
92 349
93 101
94 171

$$$$

     RDKit          2D

  5  4  0  0  0  0  0  0  0  0999 V2000
   -3.8971    2.2500    0.0000 C   0  0  0  0  0  0  0  0  0  0  0  0
   -2.5981    1.5000    0.0000 C   0  0  0  0  0  0  0  0  0  0  0  0
   -1.2990    2.2500    0.0000 C   0  0  0  0  0  0  0  0  0  0  0  0
    0.0000    1.5000    0.0000 C   0  0  0  0  0  0  0  0  0  0  0  0
    1.2990    2.2500    0.0000 Cl  0  0  0  0  0  0  0  0  0  0  0  0
  2  1  1  0
  3  2  1  0
  4  3  1  0
  5  4  1  0
M  END
>  <NAME>  (3906) 
BUTYL CHLORIDE

>  <SYNONYMS>  (3906) 


>  <SPECTRUM TYPE>  (3906) 
MS1

>  <INSTRUMENT TYPE>  (3906) 
EI-B

>  <INSTRUMENT>  (3906) 
HITACHI RMU-6M

>  <ION MODE>  (3906) 
P

>  <INCHIKEY>  (3906) 
VFWCMGCRMGJXDK-UHFFFAOYSA-N

>  <FORMULA>  (3906) 
C4H9Cl

>  <EXACT MASS>  (3906) 
92.039277968

>  <MW>  (3906) 
92

>  <ID>  (3906) 
JP005282

>  <CONTRIBUTOR>  (3906) 
University of Tokyo Team, {Faculty of Engineering, University of Tokyo

>  <COMMENT>  (3906) 
SMILES=CCCCCl
InChI=InChI=1S/C4H9Cl/c1-2-3-4-5/h2-4H2,1H3
computed SMILES=ClCCCC
accession=JP005282
date=2016.01.19 (Created 2008.10.21, modified 2011.05.06)
author=YAMAMOTO M, DEP. CHEMISTRY, FAC. SCIENCE, NARA WOMEN'S UNIV.
license=CC BY-NC-SA
exact mass=92.03928
ionization energy=70 eV
ion type=[M]+*
computed spectral entropy=2.197915506845977
computed normalized entropy=0.7009789702943727
SPLASH=splash10-0a6u-9000000000-2bbe44ca1f38152734c7
submitter=submitter = University of Tokyo Team (Faculty of Engineering, University of Tokyo)
MoNA Rating=3.75

>  <NUM PEAKS>  (3906) 
23

>  <MASS SPECTRAL PEAKS>  (3906) 
15 1.3
26 4.05
27 28.51
28 15.8
29 17.96
38 1.59
39 9.78
40 2.12
41 53.98
42 4.38
43 34.04
44 1.15
49 2.45
50 1.35
51 1.21
53 1.21
55 7.32
56 99.99
57 5.35
62 1.3
63 4.47
65 1.39
92 0.67

>  <PREDICTED SPECTRUM>  (3906) 
14 104
15 261
16 37
17 6
18 5
19 9
25 63
26 282
27 806
28 411
29 662
30 157
31 109
35 111
36 162
37 100
38 179
39 631
40 251
41 999
42 448
43 626
44 133
47 42
49 316
50 217
51 340
52 165
53 187
54 138
55 449
56 656
57 761
58 262
59 39
63 454
64 127
65 322
66 44
77 112
79 78
92 258
93 97
94 70

$$$$

     RDKit          2D

  8  7  0  0  0  0  0  0  0  0999 V2000
    1.9486    3.3750    0.0000 C   0  0  0  0  0  0  0  0  0  0  0  0
    0.6495    4.1250    0.0000 C   0  0  0  0  0  0  0  0  0  0  0  0
   -0.6495    3.3750    0.0000 C   0  0  0  0  0  0  0  0  0  0  0  0
   -4.5466    4.1250    0.0000 C   0  0  0  0  0  0  0  0  0  0  0  0
   -3.2476    3.3750    0.0000 C   0  0  0  0  0  0  0  0  0  0  0  0
   -5.8457    3.3750    0.0000 Cl  0  0  0  0  0  0  0  0  0  0  0  0
   -3.2476    1.8750    0.0000 O   0  0  0  0  0  0  0  0  0  0  0  0
   -1.9486    4.1250    0.0000 O   0  0  0  0  0  0  0  0  0  0  0  0
  2  1  2  0
  3  2  1  0
  5  4  1  0
  6  4  1  0
  7  5  2  0
  8  3  1  0
  8  5  1  0
M  END
>  <NAME>  (3907) 
CHLOROACETIC ACID ALLYL ESTER

>  <SYNONYMS>  (3907) 
ALLYL CHLOROACETATE

>  <SPECTRUM TYPE>  (3907) 
MS1

>  <INSTRUMENT TYPE>  (3907) 
EI-B

>  <INSTRUMENT>  (3907) 
HITACHI RMU-6M

>  <ION MODE>  (3907) 
P

>  <INCHIKEY>  (3907) 
VMBJJCDVORDOCF-UHFFFAOYSA-N

>  <FORMULA>  (3907) 
C5H7ClO2

>  <EXACT MASS>  (3907) 
134.013457144

>  <MW>  (3907) 
134

>  <ID>  (3907) 
JP005279

>  <CONTRIBUTOR>  (3907) 
University of Tokyo Team, {Faculty of Engineering, University of Tokyo

>  <COMMENT>  (3907) 
SMILES=C=CCOC(=O)CCl
InChI=InChI=1S/C5H7ClO2/c1-2-3-8-5(7)4-6/h2H,1,3-4H2
computed SMILES=O=C(OCC=C)CCl
accession=JP005279
date=2016.01.19 (Created 2008.10.21, modified 2011.05.06)
author=YAMAMOTO M, DEP. CHEMISTRY, FAC. SCIENCE, NARA WOMEN'S UNIV.
license=CC BY-NC-SA
exact mass=134.01346
ionization energy=70 eV
ion type=[M]+*
computed spectral entropy=2.7075336857535235
computed normalized entropy=0.7615382907459356
SPLASH=splash10-054x-9000000000-bbc79634cdf3cdb429e3
submitter=submitter = University of Tokyo Team (Faculty of Engineering, University of Tokyo)
MoNA Rating=3.75

>  <NUM PEAKS>  (3907) 
35

>  <MASS SPECTRAL PEAKS>  (3907) 
14 3.51
15 3.9
26 4.56
27 12.31
28 4.46
29 8.75
30 1.14
31 2.94
37 1.95
38 4.27
39 41.44
40 11.38
41 99.99
42 13.78
43 3.75
47 1
48 2.04
49 28.99
50 2.04
51 8.94
55 3.19
57 27.33
58 83.89
59 2.75
70 1.71
71 4.81
75 1.23
76 3.28
77 54.18
78 2
79 17.11
85 23.57
86 1.23
95 2.09
99 1.14

>  <PREDICTED SPECTRUM>  (3907) 
14 29
25 52
26 200
27 263
28 154
29 182
30 23
31 52
35 42
36 149
37 88
38 124
39 630
40 291
41 999
42 463
43 362
44 246
45 61
48 60
49 613
50 135
51 413
52 97
53 30
54 165
55 119
56 76
57 501
58 261
64 101
71 20
77 817
78 97
79 400
81 137
85 189
90 16

$$$$

     RDKit          2D

  9  8  0  0  0  0  0  0  0  0999 V2000
   -6.4952    4.5000    0.0000 C   0  0  0  0  0  0  0  0  0  0  0  0
   -5.1962    3.7500    0.0000 C   0  0  0  0  0  0  0  0  0  0  0  0
   -3.8971    4.5000    0.0000 C   0  0  0  0  0  0  0  0  0  0  0  0
   -2.5981    3.7500    0.0000 C   0  0  0  0  0  0  0  0  0  0  0  0
    1.2990    4.5000    0.0000 C   0  0  0  0  0  0  0  0  0  0  0  0
    0.0000    3.7500    0.0000 C   0  0  0  0  0  0  0  0  0  0  0  0
    2.5981    3.7500    0.0000 Cl  0  0  0  0  0  0  0  0  0  0  0  0
   -0.0000    2.2500    0.0000 O   0  0  0  0  0  0  0  0  0  0  0  0
   -1.2990    4.5000    0.0000 O   0  0  0  0  0  0  0  0  0  0  0  0
  2  1  1  0
  3  2  1  0
  4  3  1  0
  6  5  1  0
  7  5  1  0
  8  6  2  0
  9  4  1  0
  9  6  1  0
M  END
>  <NAME>  (3908) 
CHLOROACETIC ACID BUTYL ESTER

>  <SYNONYMS>  (3908) 
BUTYL CHLOROACETATE

>  <SPECTRUM TYPE>  (3908) 
MS1

>  <INSTRUMENT TYPE>  (3908) 
EI-B

>  <INSTRUMENT>  (3908) 
HITACHI RMU-6M

>  <ION MODE>  (3908) 
P

>  <INCHIKEY>  (3908) 
YJRGMUWRPCPLNH-UHFFFAOYSA-N

>  <FORMULA>  (3908) 
C6H11ClO2

>  <EXACT MASS>  (3908) 
150.044757272

>  <MW>  (3908) 
150

>  <ID>  (3908) 
JP005278

>  <CONTRIBUTOR>  (3908) 
University of Tokyo Team, {Faculty of Engineering, University of Tokyo

>  <COMMENT>  (3908) 
SMILES=CCCCOC(=O)CCl
InChI=InChI=1S/C6H11ClO2/c1-2-3-4-9-6(8)5-7/h2-5H2,1H3
computed SMILES=O=C(OCCCC)CCl
accession=JP005278
date=2016.01.19 (Created 2008.10.21, modified 2011.05.06)
author=YAMAMOTO M, DEP. CHEMISTRY, FAC. SCIENCE, NARA WOMEN'S UNIV.
license=CC BY-NC-SA
exact mass=150.04476
ionization energy=70 eV
ion type=[M]+*
computed spectral entropy=2.610918358869579
computed normalized entropy=0.7467217825133277
SPLASH=splash10-0a6r-9000000000-bff09048d89d45767b35
submitter=submitter = University of Tokyo Team (Faculty of Engineering, University of Tokyo)
MoNA Rating=3.75

>  <NUM PEAKS>  (3908) 
33

>  <MASS SPECTRAL PEAKS>  (3908) 
14 1.55
15 2.42
26 2.13
27 18.14
28 10.13
29 50.87
30 1.09
31 4.03
39 9.44
40 1.78
41 57.25
42 9.33
43 9.91
48 1.04
49 17.05
51 5.13
53 1
55 12.27
56 99.99
57 73.6
58 3.17
60 1.84
71 2.99
73 1.32
76 1.41
77 40.17
78 1.38
79 12.38
95 5.64
97 1.78
107 5.3
109 1.9
121 1.03

>  <PREDICTED SPECTRUM>  (3908) 
25 6
26 93
27 241
28 175
29 370
30 76
31 168
33 64
36 73
38 33
39 314
40 139
41 759
42 430
43 376
44 123
45 345
46 14
48 83
49 456
50 151
51 348
52 115
53 86
54 127
55 387
56 999
57 888
58 226
59 142
60 75
71 3
73 197
74 103
75 46
76 168
77 939
78 188
79 492
80 103
81 76
95 148
97 74
107 122
121 39

$$$$

     RDKit          2D

  8  7  0  0  0  0  0  0  0  0999 V2000
   -3.5724    3.9375    0.0000 C   0  0  0  0  0  0  0  0  0  0  0  0
   -2.2733    1.6875    0.0000 C   0  0  0  0  0  0  0  0  0  0  0  0
    1.6238    3.9375    0.0000 C   0  0  0  0  0  0  0  0  0  0  0  0
   -2.2733    3.1875    0.0000 C   0  0  0  0  0  0  0  0  0  0  0  0
    0.3248    3.1875    0.0000 C   0  0  0  0  0  0  0  0  0  0  0  0
    2.9228    3.1875    0.0000 Cl  0  0  0  0  0  0  0  0  0  0  0  0
    0.3248    1.6875    0.0000 O   0  0  0  0  0  0  0  0  0  0  0  0
   -0.9743    3.9375    0.0000 O   0  0  0  0  0  0  0  0  0  0  0  0
  4  1  1  0
  4  2  1  0
  5  3  1  0
  6  3  1  0
  7  5  2  0
  8  4  1  0
  8  5  1  0
M  END
>  <NAME>  (3909) 
CHLOROACETIC ACID ISOPROPYL ESTER

>  <SYNONYMS>  (3909) 
ISOPROPYL CHLOROACETATE

>  <SPECTRUM TYPE>  (3909) 
MS1

>  <INSTRUMENT TYPE>  (3909) 
EI-B

>  <INSTRUMENT>  (3909) 
HITACHI RMU-6M

>  <ION MODE>  (3909) 
P

>  <INCHIKEY>  (3909) 
VODRWDBLLGYRJT-UHFFFAOYSA-N

>  <FORMULA>  (3909) 
C5H9ClO2

>  <EXACT MASS>  (3909) 
136.029107208

>  <MW>  (3909) 
136

>  <ID>  (3909) 
JP005277

>  <CONTRIBUTOR>  (3909) 
University of Tokyo Team, {Faculty of Engineering, University of Tokyo

>  <COMMENT>  (3909) 
SMILES=CC(C)OC(=O)CCl
InChI=InChI=1S/C5H9ClO2/c1-4(2)8-5(7)3-6/h4H,3H2,1-2H3
computed SMILES=O=C(OC(C)C)CCl
accession=JP005277
date=2016.01.19 (Created 2008.10.21, modified 2011.05.06)
author=YAMAMOTO M, DEP. CHEMISTRY, FAC. SCIENCE, NARA WOMEN'S UNIV.
license=CC BY-NC-SA
exact mass=136.02911
ionization energy=70 eV
ion type=[M]+*
computed spectral entropy=2.4825453213468958
computed normalized entropy=0.7450158937622847
SPLASH=splash10-00kf-9000000000-c6374d4ba9548e91edc9
submitter=submitter = University of Tokyo Team (Faculty of Engineering, University of Tokyo)
MoNA Rating=3.75

>  <NUM PEAKS>  (3909) 
28

>  <MASS SPECTRAL PEAKS>  (3909) 
14 2.33
15 5.05
26 1.44
27 19
28 1.44
29 2.5
31 1.55
38 1.11
39 8.39
40 1.78
41 28.66
42 10.73
43 99.99
44 3.44
45 7.11
48 1.11
49 17.22
51 5.33
59 8.11
66 1
67 61.94
68 1.55
69 19.33
95 4.94
97 1.67
121 23.22
122 1.05
123 7.55

>  <PREDICTED SPECTRUM>  (3909) 
14 42
15 101
16 5
25 8
26 79
27 281
28 52
29 25
31 36
33 6
36 93
37 7
38 61
39 282
40 110
41 689
42 574
43 999
44 260
45 326
49 354
50 100
51 187
52 17
53 21
57 8
58 86
59 215
60 81
64 31
70 12
73 112
77 639
78 166
79 448
80 11
87 147
94 202
95 262
96 226
97 154
121 350
122 83
123 261
124 38

$$$$

     RDKit          2D

  6  5  0  0  0  0  0  0  0  0999 V2000
    1.2990    2.2500    0.0000 C   0  0  0  0  0  0  0  0  0  0  0  0
   -2.5981    3.0000    0.0000 C   0  0  0  0  0  0  0  0  0  0  0  0
   -1.2990    2.2500    0.0000 C   0  0  0  0  0  0  0  0  0  0  0  0
   -3.8971    2.2500    0.0000 Cl  0  0  0  0  0  0  0  0  0  0  0  0
   -1.2990    0.7500    0.0000 O   0  0  0  0  0  0  0  0  0  0  0  0
    0.0000    3.0000    0.0000 O   0  0  0  0  0  0  0  0  0  0  0  0
  3  2  1  0
  4  2  1  0
  5  3  2  0
  6  1  1  0
  6  3  1  0
M  END
>  <NAME>  (3910) 
CHLOROACETIC ACID METHYL ESTER

>  <SYNONYMS>  (3910) 
METHYL CHLOROACETATE

>  <SPECTRUM TYPE>  (3910) 
MS1

>  <INSTRUMENT TYPE>  (3910) 
EI-B

>  <INSTRUMENT>  (3910) 
HITACHI RMU-6M

>  <ION MODE>  (3910) 
P

>  <INCHIKEY>  (3910) 
QABLOFMHHSOFRJ-UHFFFAOYSA-N

>  <FORMULA>  (3910) 
C3H5ClO2

>  <EXACT MASS>  (3910) 
107.99780708

>  <MW>  (3910) 
108

>  <ID>  (3910) 
JP005275

>  <CONTRIBUTOR>  (3910) 
University of Tokyo Team, {Faculty of Engineering, University of Tokyo

>  <COMMENT>  (3910) 
SMILES=COC(=O)CCl
InChI=InChI=1S/C3H5ClO2/c1-6-3(5)2-4/h2H2,1H3
computed SMILES=O=C(OC)CCl
accession=JP005275
date=2016.01.19 (Created 2008.10.21, modified 2011.05.06)
author=YAMAMOTO M, DEP. CHEMISTRY, FAC. SCIENCE, NARA WOMEN'S UNIV.
license=CC BY-NC-SA
exact mass=107.99781
ionization energy=70 eV
ion type=[M]+*
computed spectral entropy=2.5029203705423932
computed normalized entropy=0.7594187674636884
SPLASH=splash10-0a4i-9000000000-64d1f3bf476efbaa05ae
submitter=submitter = University of Tokyo Team (Faculty of Engineering, University of Tokyo)
MoNA Rating=3.75

>  <NUM PEAKS>  (3910) 
27

>  <MASS SPECTRAL PEAKS>  (3910) 
13 1.85
14 6.45
15 43.33
27 1.37
28 6.08
29 20.35
30 1.26
31 3.28
41 1.79
42 12.42
43 1.32
45 2.91
47 1.79
48 3.75
49 48.35
50 1.69
51 15.59
59 99.99
60 2.38
64 19.18
66 5.97
76 2.59
77 31.18
78 1.42
79 9.83
108 10.41
110 3.33

>  <PREDICTED SPECTRUM>  (3910) 
14 139
15 373
16 61
25 41
26 112
27 261
28 27
29 523
30 139
31 329
32 22
33 119
35 104
36 122
41 184
42 467
43 78
44 131
45 287
48 40
49 677
50 234
51 544
52 133
59 662
60 14
63 68
65 111
73 600
76 36
77 999
78 252
79 595
80 97
81 106
108 269
109 1
110 121

$$$$

     RDKit          2D

 10 10  0  0  0  0  0  0  0  0999 V2000
   -0.3238    1.6700    0.0000 C   0  0  0  0  0  0  0  0  0  0  0  0
    0.9712   -0.5730    0.0000 C   0  0  0  0  0  0  0  0  0  0  0  0
   -1.6229    0.9200    0.0000 C   0  0  0  0  0  0  0  0  0  0  0  0
   -0.3279   -1.3230    0.0000 C   0  0  0  0  0  0  0  0  0  0  0  0
    0.9657    0.9365    0.0000 C   0  0  0  0  0  0  0  0  0  0  0  0
   -1.6410   -0.5685    0.0000 C   0  0  0  0  0  0  0  0  0  0  0  0
    2.2610    1.6930    0.0000 C   0  0  0  0  0  0  0  0  0  0  0  0
   -2.9438   -1.3119    0.0000 Cl  0  0  0  0  0  0  0  0  0  0  0  0
    3.5637    0.9495    0.0000 O   0  0  0  0  0  0  0  0  0  0  0  0
    2.2534    3.1930    0.0000 O   0  0  0  0  0  0  0  0  0  0  0  0
  3  1  2  0
  4  2  1  0
  5  1  1  0
  5  2  2  0
  6  3  1  0
  6  4  2  0
  7  5  1  0
  8  6  1  0
  9  7  1  0
 10  7  2  0
M  END
>  <NAME>  (3911) 
P-CHLOROBENZOIC ACID

>  <SYNONYMS>  (3911) 
4-CHLOROBENZOIC ACID

>  <SPECTRUM TYPE>  (3911) 
MS1

>  <INSTRUMENT TYPE>  (3911) 
EI-B

>  <INSTRUMENT>  (3911) 
HITACHI RMU-6M

>  <ION MODE>  (3911) 
P

>  <INCHIKEY>  (3911) 
XRHGYUZYPHTUJZ-UHFFFAOYSA-N

>  <FORMULA>  (3911) 
C7H5ClO2

>  <EXACT MASS>  (3911) 
155.99780708

>  <MW>  (3911) 
156

>  <ID>  (3911) 
JP005274

>  <CONTRIBUTOR>  (3911) 
University of Tokyo Team, {Faculty of Engineering, University of Tokyo

>  <COMMENT>  (3911) 
SMILES=OC(=O)c(c1)ccc(Cl)c1
InChI=InChI=1S/C7H5ClO2/c8-6-3-1-5(2-4-6)7(9)10/h1-4H,(H,9,10)
computed SMILES=O=C(O)C1=CC=C(Cl)C=C1
accession=JP005274
date=2016.01.19 (Created 2008.10.21, modified 2011.05.06)
author=YAMAMOTO M, DEP. CHEMISTRY, FAC. SCIENCE, NARA WOMEN'S UNIV.
license=CC BY-NC-SA
exact mass=155.99781
ionization energy=70 eV
ion type=[M]+*
computed spectral entropy=2.9890749589975463
computed normalized entropy=0.7680403333238848
SPLASH=splash10-0bti-4900000000-77e4728242ff5dcde92a
submitter=submitter = University of Tokyo Team (Faculty of Engineering, University of Tokyo)
MoNA Rating=3.75

>  <NUM PEAKS>  (3911) 
49

>  <MASS SPECTRAL PEAKS>  (3911) 
26 1.19
27 1.68
28 7.67
36 2.48
37 5.51
37.5 5.65
38 9.7
39 4.21
44 2.92
45 3.2
49 3.37
50 26.22
51 12.46
52 1.01
53 1.8
55.5 3.21
56.5 1.01
61 1.91
62 1.4
63 1.97
64 4.54
65 4.6
69.5 3.2
70.5 1.12
73 4.39
74 16.23
75 33.6
76 8.88
77 7.36
84 1.79
85 3.93
87 1.35
99 1.07
104 1.01
110 2.03
111 49.16
112 4.6
113 16.66
114 1.28
128 2.71
130 1.07
139 99.99
140 8.31
141 34.22
142 2.69
156 84.69
157 6.74
158 29.29
159 2.19

>  <PREDICTED SPECTRUM>  (3911) 
14 5
16 12
17 20
18 19
19 0
25 20
26 34
27 15
28 29
29 39
35 49
36 105
37 156
38 170
39 171
40 16
41 10
43 15
44 67
45 301
46 51
47 114
48 82
49 178
50 471
51 344
52 106
53 183
55 45
56 5
57 97
58 9
60 114
61 190
62 44
63 177
64 40
65 199
66 45
67 5
69 87
73 286
74 332
75 608
76 256
77 222
78 87
79 87
80 1
81 35
83 25
84 163
85 230
86 83
87 5
91 2
92 13
93 95
94 2
99 5
104 32
110 128
111 624
112 180
113 374
114 55
121 316
122 25
127 15
128 39
129 13
139 999
140 176
141 529
142 71
155 128
156 524
157 215
158 224
159 81

$$$$

     RDKit          2D

  9  9  0  0  0  0  0  0  0  0999 V2000
   -0.3162    1.6831    0.0000 C   0  0  0  0  0  0  0  0  0  0  0  0
    0.9788   -0.5599    0.0000 C   0  0  0  0  0  0  0  0  0  0  0  0
   -1.6153    0.9331    0.0000 C   0  0  0  0  0  0  0  0  0  0  0  0
   -0.3203   -1.3099    0.0000 C   0  0  0  0  0  0  0  0  0  0  0  0
    2.2685    1.7061    0.0000 C   0  0  0  0  0  0  0  0  0  0  0  0
    0.9733    0.9496    0.0000 C   0  0  0  0  0  0  0  0  0  0  0  0
   -1.6334   -0.5554    0.0000 C   0  0  0  0  0  0  0  0  0  0  0  0
   -2.9363   -1.2988    0.0000 Cl  0  0  0  0  0  0  0  0  0  0  0  0
    3.5713    0.9627    0.0000 O   0  0  0  0  0  0  0  0  0  0  0  0
  3  1  2  0
  4  2  1  0
  6  1  1  0
  6  2  2  0
  6  5  1  0
  7  3  1  0
  7  4  2  0
  8  7  1  0
  9  5  2  0
M  END
>  <NAME>  (3912) 
P-CHLOROBENZALDEHYDE

>  <SYNONYMS>  (3912) 
4-CHLOROBENZALDEHYDE

>  <SPECTRUM TYPE>  (3912) 
MS1

>  <INSTRUMENT TYPE>  (3912) 
EI-B

>  <INSTRUMENT>  (3912) 
HITACHI RMU-6M

>  <ION MODE>  (3912) 
P

>  <INCHIKEY>  (3912) 
AVPYQKSLYISFPO-UHFFFAOYSA-N

>  <FORMULA>  (3912) 
C7H5ClO

>  <EXACT MASS>  (3912) 
140.00289246

>  <MW>  (3912) 
140

>  <ID>  (3912) 
JP005273

>  <CONTRIBUTOR>  (3912) 
University of Tokyo Team, {Faculty of Engineering, University of Tokyo

>  <COMMENT>  (3912) 
SMILES=O=Cc(c1)ccc(Cl)c1
InChI=InChI=1S/C7H5ClO/c8-7-3-1-6(5-9)2-4-7/h1-5H
computed SMILES=O=CC1=CC=C(Cl)C=C1
accession=JP005273
date=2016.01.19 (Created 2008.10.21, modified 2011.05.06)
author=YAMAMOTO M, DEP. CHEMISTRY, FAC. SCIENCE, NARA WOMEN'S UNIV.
license=CC BY-NC-SA
exact mass=140.00289
ionization energy=70 eV
ion type=[M]+*
computed spectral entropy=2.748644521333556
computed normalized entropy=0.7612038234679122
SPLASH=splash10-01p6-4900000000-c472a44843eaabe4bc7c
submitter=submitter = University of Tokyo Team (Faculty of Engineering, University of Tokyo)
MoNA Rating=3.75

>  <NUM PEAKS>  (3912) 
37

>  <MASS SPECTRAL PEAKS>  (3912) 
26 1.04
27 2.04
29 3.49
37 4.72
37.5 1.57
38 6.7
39 2.15
44 1.22
49 3.5
50 25.89
51 18.48
52 4.78
55 1.22
60 1
61 2.27
62 1.98
63 1.75
73 4.2
74 14.57
75 28.86
76 8.57
77 17.08
78 1.28
84 1.57
85 3.91
86 1
87 1.28
110 1.1
111 55.51
112 8.45
113 18.36
114 2.68
139 99.99
140 71.02
141 37.67
142 24.37
143 1.52

>  <PREDICTED SPECTRUM>  (3912) 
14 37
15 34
16 11
18 6
25 33
26 104
27 16
28 114
29 231
30 20
31 68
32 0
35 45
36 10
37 175
38 160
39 181
47 63
48 141
49 295
50 524
51 443
52 110
57 39
60 78
61 169
62 183
63 395
69 53
73 401
74 382
75 695
76 467
77 527
78 105
83 134
84 247
85 281
86 155
87 167
98 24
104 51
105 47
110 88
111 679
112 336
113 410
114 205
139 999
140 930
141 700
142 418
143 155

$$$$

     RDKit          2D

  8  8  0  0  0  0  0  0  0  0999 V2000
    2.5961    1.5170    0.0000 C   0  0  0  0  0  0  0  0  0  0  0  0
    0.0113    1.4940    0.0000 C   0  0  0  0  0  0  0  0  0  0  0  0
    1.3063   -0.7490    0.0000 C   0  0  0  0  0  0  0  0  0  0  0  0
   -1.2877    0.7440    0.0000 C   0  0  0  0  0  0  0  0  0  0  0  0
    0.0073   -1.4990    0.0000 C   0  0  0  0  0  0  0  0  0  0  0  0
    1.3009    0.7605    0.0000 C   0  0  0  0  0  0  0  0  0  0  0  0
   -1.3059   -0.7445    0.0000 C   0  0  0  0  0  0  0  0  0  0  0  0
   -2.6087   -1.4879    0.0000 Cl  0  0  0  0  0  0  0  0  0  0  0  0
  4  2  2  0
  5  3  1  0
  6  1  1  0
  6  2  1  0
  6  3  2  0
  7  4  1  0
  7  5  2  0
  8  7  1  0
M  END
>  <NAME>  (3913) 
P-CHLOROTOLUENE

>  <SYNONYMS>  (3913) 
4-CHLOROTOLUENE

>  <SPECTRUM TYPE>  (3913) 
MS1

>  <INSTRUMENT TYPE>  (3913) 
EI-B

>  <INSTRUMENT>  (3913) 
HITACHI RMU-6M

>  <ION MODE>  (3913) 
P

>  <INCHIKEY>  (3913) 
NPDACUSDTOMAMK-UHFFFAOYSA-N

>  <FORMULA>  (3913) 
C7H7Cl

>  <EXACT MASS>  (3913) 
126.023627904

>  <MW>  (3913) 
126

>  <ID>  (3913) 
JP005272

>  <CONTRIBUTOR>  (3913) 
University of Tokyo Team, {Faculty of Engineering, University of Tokyo

>  <COMMENT>  (3913) 
computed SMILES=ClC1=CC=C(C=C1)C
SMILES=Cc(c1)ccc(Cl)c1
InChI=InChI=1S/C7H7Cl/c1-6-2-4-7(8)5-3-6/h2-5H,1H3
accession=JP005272
date=2016.01.19 (Created 2008.10.21, modified 2011.05.06)
author=YAMAMOTO M, DEP. CHEMISTRY, FAC. SCIENCE, NARA WOMEN'S UNIV.
license=CC BY-NC-SA
exact mass=126.02363
ionization energy=70 eV
ion type=[M]+*
computed spectral entropy=2.485956913209508
computed normalized entropy=0.7239272499217785
SPLASH=splash10-002f-9300000000-06a13ca9fc2642d0199a
submitter=submitter = University of Tokyo Team (Faculty of Engineering, University of Tokyo)
MoNA Rating=3.75

>  <NUM PEAKS>  (3913) 
31

>  <MASS SPECTRAL PEAKS>  (3913) 
27 1.29
37 1.39
38 2.27
39 8.59
41 1.03
43 2.12
44 2.07
44.5 1.75
45 7.03
50 4.97
51 4.29
61 2.07
62 4.4
63 10.76
64 2.12
65 8.07
73 2.84
74 1.55
75 2.07
86 1.14
87 1.03
89 8.95
90 3.15
91 99.99
92 7.97
99 2.58
125 16.97
126 40.34
127 7.96
128 12.78
129 1.13

>  <PREDICTED SPECTRUM>  (3913) 
14 8
15 11
25 8
26 41
27 24
35 41
36 30
37 92
38 144
39 233
49 30
50 174
51 263
52 13
60 47
61 115
62 175
63 330
64 97
65 326
72 5
73 70
74 45
75 134
76 87
86 113
89 422
90 241
91 999
92 237
99 111
100 50
101 102
111 75
124 158
125 341
126 584
127 303
128 466
129 57

$$$$

     RDKit          2D

  8  8  0  0  0  0  0  0  0  0999 V2000
    1.9603    1.8559    0.0000 C   0  0  0  0  0  0  0  0  0  0  0  0
   -1.9404    1.1322    0.0000 C   0  0  0  0  0  0  0  0  0  0  0  0
   -1.9623   -0.3699    0.0000 C   0  0  0  0  0  0  0  0  0  0  0  0
   -0.6414    1.8822    0.0000 C   0  0  0  0  0  0  0  0  0  0  0  0
   -0.6578   -1.1294    0.0000 C   0  0  0  0  0  0  0  0  0  0  0  0
    0.6545    1.1177    0.0000 C   0  0  0  0  0  0  0  0  0  0  0  0
    0.6413   -0.3794    0.0000 C   0  0  0  0  0  0  0  0  0  0  0  0
    1.9370   -1.1351    0.0000 Cl  0  0  0  0  0  0  0  0  0  0  0  0
  3  2  2  0
  4  2  1  0
  5  3  1  0
  6  1  1  0
  6  4  2  0
  7  5  2  0
  7  6  1  0
  8  7  1  0
M  END
>  <NAME>  (3914) 
O-CHLOROTOLUENE

>  <SYNONYMS>  (3914) 
2-CHLOROTOLUENE

>  <SPECTRUM TYPE>  (3914) 
MS1

>  <INSTRUMENT TYPE>  (3914) 
EI-B

>  <INSTRUMENT>  (3914) 
HITACHI RMU-6M

>  <ION MODE>  (3914) 
P

>  <INCHIKEY>  (3914) 
IBSQPLPBRSHTTG-UHFFFAOYSA-N

>  <FORMULA>  (3914) 
C7H7Cl

>  <EXACT MASS>  (3914) 
126.023627904

>  <MW>  (3914) 
126

>  <ID>  (3914) 
JP005271

>  <CONTRIBUTOR>  (3914) 
University of Tokyo Team, {Faculty of Engineering, University of Tokyo

>  <COMMENT>  (3914) 
SMILES=Cc(c1)c(Cl)ccc1
InChI=InChI=1S/C7H7Cl/c1-6-4-2-3-5-7(6)8/h2-5H,1H3
computed SMILES=ClC=1C=CC=CC1C
accession=JP005271
date=2016.01.19 (Created 2008.10.21, modified 2011.05.06)
author=YAMAMOTO M, DEP. CHEMISTRY, FAC. SCIENCE, NARA WOMEN'S UNIV.
license=CC BY-NC-SA
exact mass=126.02363
ionization energy=70 eV
ion type=[M]+*
computed spectral entropy=2.4715378324530244
computed normalized entropy=0.7339829813714206
SPLASH=splash10-002f-9200000000-5c62ea65db101410dcba
submitter=submitter = University of Tokyo Team (Faculty of Engineering, University of Tokyo)
MoNA Rating=3.75

>  <NUM PEAKS>  (3914) 
29

>  <MASS SPECTRAL PEAKS>  (3914) 
27 1.2
37 1.39
38 2.32
39 9.28
43 1.9
44 2.07
44.5 1.67
45 6.7
50 4.08
51 4.46
61 2.07
62 4.59
63 11.89
64 2.65
65 8.26
73 2.32
74 1.25
75 1.58
86 1.16
89 13.19
90 10.87
91 99.99
92 7.98
99 2.16
125 10.49
126 38.03
127 6.13
128 12.54
129 1.02

>  <PREDICTED SPECTRUM>  (3914) 
14 26
15 78
16 3
17 11
18 16
25 32
26 93
27 151
28 82
29 6
30 14
31 46
32 13
33 16
34 19
35 48
36 76
37 143
38 186
39 292
40 102
41 69
44 47
45 120
46 20
47 76
48 32
49 96
50 245
51 334
52 177
53 30
54 28
57 80
58 89
59 2
60 113
61 143
62 188
63 293
64 148
65 172
66 23
69 17
70 51
71 65
72 108
73 154
74 125
75 146
76 42
81 7
83 9
84 43
85 52
86 100
87 75
89 331
90 203
91 999
92 251
96 6
98 10
99 136
100 22
101 11
111 49
112 1
124 11
125 335
126 393
127 252
128 325
129 65

$$$$

     RDKit          2D

  8  8  0  0  0  0  0  0  0  0999 V2000
    1.9467   -1.4939    0.0000 C   0  0  0  0  0  0  0  0  0  0  0  0
    1.9512   -0.0017    0.0000 C   0  0  0  0  0  0  0  0  0  0  0  0
    0.6477   -2.2439    0.0000 C   0  0  0  0  0  0  0  0  0  0  0  0
   -0.6473   -0.0009    0.0000 C   0  0  0  0  0  0  0  0  0  0  0  0
    0.6517    0.7491    0.0000 C   0  0  0  0  0  0  0  0  0  0  0  0
   -0.6468   -1.5017    0.0000 C   0  0  0  0  0  0  0  0  0  0  0  0
    0.6520    2.2491    0.0000 Cl  0  0  0  0  0  0  0  0  0  0  0  0
   -1.9446   -2.2539    0.0000 N   0  0  0  0  0  0  0  0  0  0  0  0
  2  1  2  0
  3  1  1  0
  5  2  1  0
  5  4  2  0
  6  3  2  0
  6  4  1  0
  7  5  1  0
  8  6  1  0
M  END
>  <NAME>  (3915) 
M-CHLOROANILINE

>  <SYNONYMS>  (3915) 
3-CHLOROANILINE

>  <SPECTRUM TYPE>  (3915) 
MS1

>  <INSTRUMENT TYPE>  (3915) 
EI-B

>  <INSTRUMENT>  (3915) 
HITACHI RMU-6M

>  <ION MODE>  (3915) 
P

>  <INCHIKEY>  (3915) 
PNPCRKVUWYDDST-UHFFFAOYSA-N

>  <FORMULA>  (3915) 
C6H6ClN

>  <EXACT MASS>  (3915) 
127.01887687199999

>  <MW>  (3915) 
127

>  <ID>  (3915) 
JP005269

>  <CONTRIBUTOR>  (3915) 
University of Tokyo Team, {Faculty of Engineering, University of Tokyo

>  <COMMENT>  (3915) 
SMILES=Nc(c1)cc(Cl)cc1
InChI=InChI=1S/C6H6ClN/c7-5-2-1-3-6(8)4-5/h1-4H,8H2
computed SMILES=ClC1=CC=CC(N)=C1
accession=JP005269
date=2016.01.19 (Created 2008.10.21, modified 2011.05.06)
author=YAMAMOTO M, DEP. CHEMISTRY, FAC. SCIENCE, NARA WOMEN'S UNIV.
license=CC BY-NC-SA
exact mass=127.01888
ionization energy=70 eV
ion type=[M]+*
computed spectral entropy=2.6441827965271485
computed normalized entropy=0.7437198133055479
SPLASH=splash10-004i-7900000000-54dad2f5a9187b00fde0
submitter=submitter = University of Tokyo Team (Faculty of Engineering, University of Tokyo)
MoNA Rating=3.75

>  <NUM PEAKS>  (3915) 
35

>  <MASS SPECTRAL PEAKS>  (3915) 
37 2.75
38 4.39
39 8.57
40 1.07
41 3.47
42 1.17
44.5 1.83
45.5 8.39
50 2.24
51 1.64
52 4.08
61 2.34
62 3.47
63 7.54
63.5 6.21
64 6.23
64.5 1.99
65 23.51
66 2.85
73 2.75
74 1.22
75 1.43
90 2.24
91 5.77
92 18.46
93 1.38
99 5.2
100 7.34
101 2.19
102 2.45
126 1.84
127 99.99
128 7.65
129 31.64
130 2.24

>  <PREDICTED SPECTRUM>  (3915) 
14 15
15 12
16 11
25 45
26 76
27 36
28 9
35 98
36 154
37 245
38 350
39 375
40 180
41 227
42 93
47 52
48 37
49 158
50 343
51 268
52 326
53 134
54 139
56 72
57 34
58 1
60 144
61 225
62 321
63 478
64 430
65 634
66 206
71 4
72 125
73 225
74 153
75 239
76 69
77 11
80 36
84 21
85 20
86 65
87 69
88 20
90 331
91 299
92 742
93 226
98 27
99 204
100 383
101 179
102 217
126 189
127 999
128 317
129 505
130 89

$$$$

     RDKit          2D

  8  8  0  0  0  0  0  0  0  0999 V2000
   -1.3000    0.7500    0.0000 C   0  0  0  0  0  0  0  0  0  0  0  0
    0.0000    1.5000    0.0000 C   0  0  0  0  0  0  0  0  0  0  0  0
   -1.3000   -0.7500    0.0000 C   0  0  0  0  0  0  0  0  0  0  0  0
    1.3000    0.7500    0.0000 C   0  0  0  0  0  0  0  0  0  0  0  0
    0.0000   -1.5000    0.0000 C   0  0  0  0  0  0  0  0  0  0  0  0
    1.3000   -0.7500    0.0000 C   0  0  0  0  0  0  0  0  0  0  0  0
   -0.0000   -3.0000    0.0000 Cl  0  0  0  0  0  0  0  0  0  0  0  0
    2.5989   -1.5002    0.0000 N   0  0  0  0  0  0  0  0  0  0  0  0
  2  1  2  0
  3  1  1  0
  4  2  1  0
  5  3  2  0
  6  4  2  0
  6  5  1  0
  7  5  1  0
  8  6  1  0
M  END
>  <NAME>  (3916) 
O-CHLOROANILINE

>  <SYNONYMS>  (3916) 
2-CHLOROANILINE

>  <SPECTRUM TYPE>  (3916) 
MS1

>  <INSTRUMENT TYPE>  (3916) 
EI-B

>  <INSTRUMENT>  (3916) 
HITACHI RMU-6M

>  <ION MODE>  (3916) 
P

>  <INCHIKEY>  (3916) 
AKCRQHGQIJBRMN-UHFFFAOYSA-N

>  <FORMULA>  (3916) 
C6H6ClN

>  <EXACT MASS>  (3916) 
127.01887687199999

>  <MW>  (3916) 
127

>  <ID>  (3916) 
JP005268

>  <CONTRIBUTOR>  (3916) 
University of Tokyo Team, {Faculty of Engineering, University of Tokyo

>  <COMMENT>  (3916) 
SMILES=Nc(c1)c(Cl)ccc1
InChI=InChI=1S/C6H6ClN/c7-5-3-1-2-4-6(5)8/h1-4H,8H2
computed SMILES=ClC=1C=CC=CC1N
accession=JP005268
date=2016.01.19 (Created 2008.10.21, modified 2011.05.06)
author=YAMAMOTO M, DEP. CHEMISTRY, FAC. SCIENCE, NARA WOMEN'S UNIV.
license=CC BY-NC-SA
exact mass=127.01888
ionization energy=70 eV
ion type=[M]+*
computed spectral entropy=2.642583004082149
computed normalized entropy=0.7493797034180983
SPLASH=splash10-004i-7900000000-67f5307905643f810ff5
submitter=submitter = University of Tokyo Team (Faculty of Engineering, University of Tokyo)
MoNA Rating=3.75

>  <NUM PEAKS>  (3916) 
34

>  <MASS SPECTRAL PEAKS>  (3916) 
37 2.92
38 4.83
39 8.11
40 1.06
41 3.76
42 1.24
44.5 1.95
45.5 8.95
50 1.91
51 1.86
52 5.62
61 2.13
62 3.14
63 8.2
63.5 6.52
64 9.66
64.5 2.08
65 18.12
66 2.52
73 3.01
75 1.19
90 2.53
91 8.16
92 17.38
93 1.46
99 4.09
100 5.4
101 2.08
102 1.82
126 1.81
127 99.99
128 7.71
129 32.54
130 2.35

>  <PREDICTED SPECTRUM>  (3916) 
14 2
18 9
25 19
26 55
27 77
28 28
35 64
36 104
37 179
38 266
39 339
40 143
41 212
42 111
47 50
48 1
49 99
50 243
51 270
52 302
53 109
54 89
57 25
60 118
61 149
62 263
63 428
64 337
65 508
66 142
67 4
72 49
73 226
74 114
75 213
76 75
80 47
84 37
86 12
87 33
88 45
89 38
90 435
91 316
92 544
93 227
98 57
99 205
100 204
101 105
102 113
112 10
126 78
127 999
128 275
129 573
130 132

$$$$

     RDKit          2D

 19 19  0  0  0  0  0  0  0  0999 V2000
   11.1575   -0.8991    0.0000 C   0  0  0  0  0  0  0  0  0  0  0  0
   -3.9842   -6.4421    0.0000 C   0  0  0  0  0  0  0  0  0  0  0  0
    9.6804   -0.6383    0.0000 C   0  0  0  0  0  0  0  0  0  0  0  0
    8.7159   -1.7872    0.0000 C   0  0  0  0  0  0  0  0  0  0  0  0
    7.2388   -1.5264    0.0000 C   0  0  0  0  0  0  0  0  0  0  0  0
    6.2744   -2.6753    0.0000 C   0  0  0  0  0  0  0  0  0  0  0  0
    4.7972   -2.4145    0.0000 C   0  0  0  0  0  0  0  0  0  0  0  0
    3.8328   -3.5633    0.0000 C   0  0  0  0  0  0  0  0  0  0  0  0
    2.3556   -3.3025    0.0000 C   0  0  0  0  0  0  0  0  0  0  0  0
   -2.6845   -4.1914    0.0000 C   0  0  0  0  0  0  0  0  0  0  0  0
    1.3912   -4.4514    0.0000 C   0  0  0  0  0  0  0  0  0  0  0  0
   -1.3850   -3.4406    0.0000 C   0  0  0  0  0  0  0  0  0  0  0  0
    0.4272   -2.7811    0.0000 C   0  0  0  0  0  0  0  0  0  0  0  0
   -2.6850   -5.6923    0.0000 C   0  0  0  0  0  0  0  0  0  0  0  0
   -1.3860   -6.4423    0.0000 C   0  0  0  0  0  0  0  0  0  0  0  0
   -0.0860   -4.1906    0.0000 C   0  0  0  0  0  0  0  0  0  0  0  0
   -0.5368   -1.6320    0.0000 O   0  0  0  0  0  0  0  0  0  0  0  0
   -1.3857   -7.9423    0.0000 O   0  0  0  0  0  0  0  0  0  0  0  0
   -0.0865   -5.6914    0.0000 O   0  0  0  0  0  0  0  0  0  0  0  0
  3  1  1  0
  4  3  1  0
  5  4  1  0
  6  5  1  0
  7  6  1  0
  8  7  1  0
  9  8  1  0
 11  9  1  0
 12 10  1  0
 14  2  1  0
 14 10  2  0
 15 14  1  0
 16 11  1  0
 16 12  1  0
 16 13  1  0
 17 13  1  0
 18 15  2  0
 19 15  1  0
 19 16  1  0
M  END
>  <NAME>  (3917) 
5,6-DIHYDRO-6-HYDROXYMETHYL-3-METHYL-6-NONYL-2H-PYRAN-2-ONE

>  <SYNONYMS>  (3917) 


>  <SPECTRUM TYPE>  (3917) 
MS1

>  <INSTRUMENT TYPE>  (3917) 
EI-B

>  <INSTRUMENT>  (3917) 
JEOL JMS-DX-300

>  <ION MODE>  (3917) 
P

>  <INCHIKEY>  (3917) 
QSCPZTHCXWAHQG-UHFFFAOYSA-N

>  <FORMULA>  (3917) 
C16H28O3

>  <EXACT MASS>  (3917) 
268.20384475599997

>  <MW>  (3917) 
268

>  <ID>  (3917) 
JP005235

>  <CONTRIBUTOR>  (3917) 
University of Tokyo Team, {Faculty of Engineering, University of Tokyo

>  <COMMENT>  (3917) 
SMILES=CCCCCCCCCC(CO)(C1)OC(=O)C(C)=C1
InChI=InChI=1S/C16H28O3/c1-3-4-5-6-7-8-9-11-16(13-17)12-10-14(2)15(18)19-16/h10,17H,3-9,11-13H2,1-2H3
computed SMILES=O=C1OC(CO)(CC=C1C)CCCCCCCCC
accession=JP005235
date=2016.01.19 (Created 2008.10.21, modified 2011.05.06)
author=HISAHIRO HAGIWARA, CHEMICAL RESEARCH INSTITUTE OF NON-AQUEOUSSOLUTIONS TOHOKU UNIV.
license=CC BY-NC-SA
exact mass=268.20384
ionization energy=70 eV
ion type=[M]+*
computed spectral entropy=2.7495118341837324
computed normalized entropy=0.6992964823515383
SPLASH=splash10-000i-9000000000-d02a6e50ad395f343347
submitter=submitter = University of Tokyo Team (Faculty of Engineering, University of Tokyo)
MoNA Rating=3.75

>  <NUM PEAKS>  (3917) 
51

>  <MASS SPECTRAL PEAKS>  (3917) 
14 1.3
17 5.7
18 23.4
27 0.46
28 29.7
29 12
31 2
32 0.57
39 2.6
40 1
41 16.5
42 0.27
43 24.8
44 3.2
45 1.1
53 0.15
54 1.4
55 13
56 7.1
57 1.32
58 1.2
67 7.1
68 1.5
69 0.51
70 1.1
71 4.6
73 1.1
81 0.33
82 1.3
83 4.5
84 4.8
85 99.99
86 6.1
95 3
97 1.9
98 0.18
101 4.8
109 1.4
111 1.3
115 0.01
151 1.1
155 5.6
156 1.1
194 0.01
195 1.5
211 1.2
226 1.1
253 0.55
254 1.1
266 1.2
267 1.2

>  <PREDICTED SPECTRUM>  (3917) 
27 129
28 26
29 256
31 25
38 8
39 254
40 111
41 647
42 102
43 999
44 18
45 14
51 46
52 30
53 254
54 67
55 653
56 198
57 533
65 75
66 29
67 292
68 101
69 499
70 204
71 593
77 16
79 9
81 226
82 87
83 336
84 104
85 965
86 243
93 99
95 215
96 161
97 275
99 141
109 34
111 31
113 217
123 75

$$$$

     RDKit          2D

 19 19  0  0  1  0  0  0  0  0999 V2000
   11.1575   -0.8991    0.0000 C   0  0  0  0  0  0  0  0  0  0  0  0
   -3.9842   -6.4421    0.0000 C   0  0  0  0  0  0  0  0  0  0  0  0
    9.6804   -0.6383    0.0000 C   0  0  0  0  0  0  0  0  0  0  0  0
    8.7159   -1.7872    0.0000 C   0  0  0  0  0  0  0  0  0  0  0  0
    7.2388   -1.5264    0.0000 C   0  0  0  0  0  0  0  0  0  0  0  0
    6.2744   -2.6753    0.0000 C   0  0  0  0  0  0  0  0  0  0  0  0
    4.7972   -2.4145    0.0000 C   0  0  0  0  0  0  0  0  0  0  0  0
    3.8328   -3.5633    0.0000 C   0  0  0  0  0  0  0  0  0  0  0  0
    2.3556   -3.3025    0.0000 C   0  0  0  0  0  0  0  0  0  0  0  0
   -2.6845   -4.1914    0.0000 C   0  0  0  0  0  0  0  0  0  0  0  0
    1.3912   -4.4514    0.0000 C   0  0  0  0  0  0  0  0  0  0  0  0
   -1.3850   -3.4406    0.0000 C   0  0  0  0  0  0  0  0  0  0  0  0
    0.4272   -2.7811    0.0000 C   0  0  0  0  0  0  0  0  0  0  0  0
   -2.6850   -5.6923    0.0000 C   0  0  0  0  0  0  0  0  0  0  0  0
   -1.3860   -6.4423    0.0000 C   0  0  0  0  0  0  0  0  0  0  0  0
   -0.0860   -4.1906    0.0000 C   0  0  0  0  0  0  0  0  0  0  0  0
   -0.5368   -1.6320    0.0000 O   0  0  0  0  0  0  0  0  0  0  0  0
   -1.3857   -7.9423    0.0000 O   0  0  0  0  0  0  0  0  0  0  0  0
   -0.0865   -5.6914    0.0000 O   0  0  0  0  0  0  0  0  0  0  0  0
  3  1  1  0
  4  3  1  0
  5  4  1  0
  6  5  1  0
  7  6  1  0
  8  7  1  0
  9  8  1  0
 11  9  1  0
 12 10  1  0
 14  2  1  6
 14 10  1  0
 15 14  1  0
 16 11  1  1
 16 12  1  0
 16 13  1  0
 17 13  1  0
 18 15  2  0
 19 15  1  0
 19 16  1  0
M  END
>  <NAME>  (3918) 
3,4,5,6-TETRAHYDRO-(6ALPHA)-HYDROXYMETHYL-(3ALPHA)-METHYL-(6BETA)-NONYL-2H-PYRAN-2-ONE

>  <SYNONYMS>  (3918) 
2-EPI-MALYNGOLIDE

>  <SPECTRUM TYPE>  (3918) 
MS1

>  <INSTRUMENT TYPE>  (3918) 
EI-B

>  <INSTRUMENT>  (3918) 
JEOL JMS-DX-300

>  <ION MODE>  (3918) 
P

>  <INCHIKEY>  (3918) 
OEXPVULGTKWKEH-GDBMZVCRSA-N

>  <FORMULA>  (3918) 
C16H30O3

>  <EXACT MASS>  (3918) 
270.21949481999997

>  <MW>  (3918) 
270

>  <ID>  (3918) 
JP005234

>  <CONTRIBUTOR>  (3918) 
University of Tokyo Team, {Faculty of Engineering, University of Tokyo

>  <COMMENT>  (3918) 
SMILES=CCCCCCCCCC(CO)(C1)OC(=O)C([H])(C)C1
InChI=InChI=1S/C16H30O3/c1-3-4-5-6-7-8-9-11-16(13-17)12-10-14(2)15(18)19-16/h14,17H,3-13H2,1-2H3/t14-,16-/m1/s1
computed SMILES=O=C1OC(CO)(CCCCCCCCC)CCC1C
accession=JP005234
date=2016.01.19 (Created 2008.10.21, modified 2011.05.06)
author=HISAHIRO HAGIWARA, CHEMICAL RESEARCH INSTITUTE OF NON-AQUEOUSSOLUTIONS TOHOKU UNIV.
license=CC BY-NC-SA
exact mass=270.21949
ionization energy=70 eV
ion type=[M]+*
computed spectral entropy=3.2852098965848695
computed normalized entropy=0.7785765843145336
SPLASH=splash10-052o-9240000000-b6060321174fe6b11aee
submitter=submitter = University of Tokyo Team (Faculty of Engineering, University of Tokyo)
MoNA Rating=3.75

>  <NUM PEAKS>  (3918) 
68

>  <MASS SPECTRAL PEAKS>  (3918) 
27 11.4
29 26.2
31 12.6
39 0.74
41 50.2
42 9.4
43 47.3
44 0.15
45 1.4
53 4.5
54 4.3
55 4.13
56 15.7
57 39.5
58 5.6
59 0.19
67 10.9
68 5.5
69 20.4
70 0.48
71 34.2
72 3.4
73 1.3
74 0.13
77 1.1
79 3.6
80 1.3
81 0.14
82 5.4
83 9.7
84 3
85 1.76
86 1.3
93 1.9
95 11.6
96 0.38
97 7.8
98 4.3
99 1.4
107 0.01
109 3.2
110 3.1
111 7.1
112 0.14
113 1.5
115 7.1
123 1.6
124 0.11
125 1.5
126 3.1
127 1
137 0.18
139 2.1
140 1.1
143 27.4
144 0.22
151 1.4
155 26.6
156 3
166 0.13
211 35.1
212 6
223 2.9
226 0.11
239 99.99
240 17.4
241 2
270 0.3

>  <PREDICTED SPECTRUM>  (3918) 
18 8
26 20
27 208
28 97
29 289
30 13
31 170
39 168
40 59
41 466
42 185
43 536
44 75
45 87
51 3
52 27
53 163
54 84
55 475
56 226
57 521
58 84
59 119
65 38
66 44
67 290
68 75
69 416
70 203
71 469
72 90
73 167
74 24
77 52
79 166
81 243
82 106
83 416
84 145
85 261
86 6
87 63
93 71
95 284
96 63
97 341
98 110
99 138
101 33
107 73
109 235
110 101
111 226
112 67
113 47
115 255
116 55
123 121
125 133
126 47
127 126
128 19
129 93
137 28
139 168
140 106
141 256
142 18
143 362
144 130
151 15
153 22
155 134
157 69
169 19
183 66
197 20
211 454
212 132
225 5
239 999
240 391
241 120
270 23
271 9

$$$$

     RDKit          2D

 27 29  0  0  1  0  0  0  0  0999 V2000
    0.4758   -7.8665    0.0000 C   0  0  0  0  0  0  0  0  0  0  0  0
   -1.9655   -6.9776    0.0000 C   0  0  0  0  0  0  0  0  0  0  0  0
    3.8089    1.4002    0.0000 C   0  0  0  0  0  0  0  0  0  0  0  0
   -2.3541   -2.7492    0.0000 C   0  0  0  0  0  0  0  0  0  0  0  0
   -0.0900    2.1500    0.0000 C   0  0  0  0  0  0  0  0  0  0  0  0
    1.0173    4.9932    0.0000 C   0  0  0  0  0  0  0  0  0  0  0  0
   -0.9391   -4.1587    0.0000 C   0  0  0  0  0  0  0  0  0  0  0  0
   -2.6900    0.6500    0.0000 C   0  0  0  0  0  0  0  0  0  0  0  0
    0.0249   -5.3078    0.0000 C   0  0  0  0  0  0  0  0  0  0  0  0
    2.5100   -0.8500    0.0000 C   0  0  0  0  0  0  0  0  0  0  0  0
    1.2100   -1.6000    0.0000 C   0  0  0  0  0  0  0  0  0  0  0  0
    1.2100    2.9000    0.0000 C   0  0  0  0  0  0  0  0  0  0  0  0
   -0.4259   -2.7492    0.0000 C   0  0  0  0  0  0  0  0  0  0  0  0
   -2.6900   -0.8500    0.0000 C   0  0  0  0  0  0  0  0  0  0  0  0
   -1.3900    1.4000    0.0000 C   0  0  0  0  0  0  0  0  0  0  0  0
    2.5090    3.6500    0.0000 C   0  0  0  0  0  0  0  0  0  0  0  0
    3.4962    7.3672    0.0000 C   0  0  0  0  0  0  0  0  0  0  0  0
    4.6109    6.3635    0.0000 C   0  0  0  0  0  0  0  0  0  0  0  0
   -0.4882   -6.7173    0.0000 C   0  0  0  0  0  0  0  0  0  0  0  0
    2.5100    0.6500    0.0000 C   0  0  0  0  0  0  0  0  0  0  0  0
    1.2100    1.4000    0.0000 C   0  0  0  0  0  0  0  0  0  0  0  0
   -0.0900   -0.8500    0.0000 C   0  0  0  0  0  0  0  0  0  0  0  0
   -1.3900   -1.6000    0.0000 C   0  0  0  0  0  0  0  0  0  0  0  0
   -0.0900    0.6500    0.0000 C   0  0  0  0  0  0  0  0  0  0  0  0
    2.5090    5.1500    0.0000 C   0  0  0  0  0  0  0  0  0  0  0  0
    2.1972    6.6172    0.0000 O   0  0  0  0  0  0  0  0  0  0  0  0
    4.0008    4.9932    0.0000 O   0  0  0  0  0  0  0  0  0  0  0  0
  9  7  1  0
 11 10  1  0
 13  7  1  0
 14  8  1  0
 15  8  1  0
 16 12  1  0
 18 17  1  0
 19  1  1  0
 19  2  1  0
 19  9  2  0
 20  3  1  0
 20 10  1  0
 21 12  1  0
 21 20  2  0
 22 11  1  0
 23  4  1  1
 23 13  1  0
 23 14  1  0
 23 22  1  0
 24  5  1  1
 24 15  1  0
 24 21  1  0
 24 22  1  0
 25  6  1  0
 25 16  1  0
 26 17  1  0
 26 25  1  0
 27 18  1  0
 27 25  1  0
M  END
>  <NAME>  (3919) 
5-(3-ETHYLENEDIOXYBUTYL)-1-(4-METHYL-3-PENTENYL)-(1BETA,4ABETA),6-TRIMETHYL-1,2,3,4,4A,7,8,8A-OCTAHYDRONAPHTHALENE

>  <SYNONYMS>  (3919) 


>  <SPECTRUM TYPE>  (3919) 
MS1

>  <INSTRUMENT TYPE>  (3919) 
EI-B

>  <INSTRUMENT>  (3919) 
JEOL JMS-DX-300

>  <ION MODE>  (3919) 
P

>  <INCHIKEY>  (3919) 
BBPHUYZEVNFFEW-HEYJASKDSA-N

>  <FORMULA>  (3919) 
C25H42O2

>  <EXACT MASS>  (3919) 
374.318480584

>  <MW>  (3919) 
374

>  <ID>  (3919) 
JP005227

>  <CONTRIBUTOR>  (3919) 
University of Tokyo Team, {Faculty of Engineering, University of Tokyo

>  <COMMENT>  (3919) 
SMILES=CC(C)=CCCC(C)(C3)C(C1)C(C)(CC3)C(CCC(C)(O2)OCC2)=C(C)C1
InChI=InChI=1S/C25H42O2/c1-19(2)9-7-13-23(4)14-8-15-24(5)21(20(3)10-11-22(23)24)12-16-25(6)26-17-18-27-25/h9,22H,7-8,10-18H2,1-6H3/t22?,23-,24-/m1/s1
computed SMILES=O1CCOC1(C)CCC2=C(C)CCC3C2(C)CCCC3(C)CCC=C(C)C
accession=JP005227
date=2016.01.19 (Created 2008.10.21, modified 2011.05.06)
author=HISAHIRO HAGIWARA, CHEMICAL RESEARCH INSTITUTE OF NON-AQUEOUSSOLUTIONS TOHOKU UNIV.
license=CC BY-NC-SA
exact mass=374.31848
ionization energy=70 eV
ion type=[M]+*
computed spectral entropy=3.8705810385387456
computed normalized entropy=0.8499529369531027
SPLASH=splash10-0079-9620000000-ebf839fd06a1863bb4d3
submitter=submitter = University of Tokyo Team (Faculty of Engineering, University of Tokyo)
MoNA Rating=3.75

>  <NUM PEAKS>  (3919) 
95

>  <MASS SPECTRAL PEAKS>  (3919) 
32 25.9
41 24.3
42 2.2
43 3.21
44 5
45 5.2
53 2.5
55 1.76
56 2.5
57 8.2
67 6.7
69 0.39
70 5
71 7.7
73 20.3
77 0.29
79 6.3
81 13.8
82 2.6
83 1.05
87 99.99
88 5.4
89 4.3
91 0.74
93 11.1
94 2
95 16.6
96 0.22
97 3.8
99 3.4
103 2.2
105 0.97
106 3.7
107 11.1
108 4.6
109 1.19
113 2.3
115 5.3
116 7
117 0.24
119 24.9
120 7
121 21.4
122 0.52
123 6
131 4
132 2.4
133 1.58
134 6.3
135 8.2
137 2.6
145 0.53
146 7.6
147 9.3
148 2.4
149 1.33
157 3
159 9.5
160 3.4
161 0.55
163 2.6
167 5.1
168 2.2
171 0.29
173 15.6
174 3.8
175 10.9
176 0.25
177 6.3
187 5.4
188 2.1
189 0.62
190 2.4
199 2.2
201 2
213 0.39
215 7.2
227 3.9
228 2.1
229 0.63
230 8
231 2.8
257 7.4
258 0.23
259 12.2
260 2.5
272 4.9
290 0.33
297 13.7
298 3.4
312 9.1
313 0.26
359 2.7
374 9
375 2.5

>  <PREDICTED SPECTRUM>  (3919) 
26 12
27 105
28 29
29 114
31 35
38 33
39 56
40 36
41 340
42 126
43 497
44 37
45 290
53 88
54 6
55 233
56 30
57 107
58 13
59 9
61 41
65 41
66 54
67 252
68 131
69 330
70 64
71 109
73 214
74 40
75 39
77 145
78 68
79 201
80 82
81 322
82 108
83 105
84 43
85 110
86 59
87 999
88 157
89 67
91 167
92 68
93 272
94 94
95 298
96 69
97 112
98 1
99 176
100 17
101 80
102 15
103 105
105 165
106 74
107 321
108 104
109 224
110 32
111 35
113 183
115 323
116 47
117 157
119 354
120 158
121 378
122 59
123 180
125 50
127 63
129 40
131 261
133 145
134 124
135 379
136 178
137 93
139 8
141 28
143 18
144 6
145 233
146 27
147 193
148 113
149 114
150 32
151 43
152 32
153 63
155 31
156 72
157 264
159 380
160 33
161 93
162 48
163 21
164 1
165 47
167 16
172 1
173 442
174 111
175 370
176 6
177 142
179 52
183 9
185 21
187 115
188 56
189 136
190 86
191 49
192 7
193 18
199 58
200 14
201 109
202 20
203 45
205 19
215 213
216 57
217 1
227 26
228 23
229 145
230 11
231 123
232 50
243 33
245 38
257 65
258 41
259 328
260 63
270 30
271 67
272 97
303 5
304 14
312 6
313 19
359 89
374 245
375 151
376 36

$$$$

     RDKit          2D

 24 26  0  0  1  0  0  0  0  0999 V2000
    0.5658   -8.7265    0.0000 C   0  0  0  0  0  0  0  0  0  0  0  0
   -1.8755   -7.8376    0.0000 C   0  0  0  0  0  0  0  0  0  0  0  0
    3.8989    0.5402    0.0000 C   0  0  0  0  0  0  0  0  0  0  0  0
   -2.2641   -3.6092    0.0000 C   0  0  0  0  0  0  0  0  0  0  0  0
   -0.8491   -5.0187    0.0000 C   0  0  0  0  0  0  0  0  0  0  0  0
   -2.6000   -0.2100    0.0000 C   0  0  0  0  0  0  0  0  0  0  0  0
    0.1149   -6.1678    0.0000 C   0  0  0  0  0  0  0  0  0  0  0  0
    2.6000   -1.7100    0.0000 C   0  0  0  0  0  0  0  0  0  0  0  0
    1.3000   -2.4600    0.0000 C   0  0  0  0  0  0  0  0  0  0  0  0
   -0.3359   -3.6092    0.0000 C   0  0  0  0  0  0  0  0  0  0  0  0
   -2.6000   -1.7100    0.0000 C   0  0  0  0  0  0  0  0  0  0  0  0
   -1.3000    0.5400    0.0000 C   0  0  0  0  0  0  0  0  0  0  0  0
   -0.7500    4.5583    0.0000 C   0  0  0  0  0  0  0  0  0  0  0  0
    0.7500    4.5583    0.0000 C   0  0  0  0  0  0  0  0  0  0  0  0
   -0.3982   -7.5773    0.0000 C   0  0  0  0  0  0  0  0  0  0  0  0
    2.6000   -0.2100    0.0000 C   0  0  0  0  0  0  0  0  0  0  0  0
    0.0000   -1.7100    0.0000 C   0  0  0  0  0  0  0  0  0  0  0  0
    1.3000    0.5400    0.0000 C   0  0  0  0  0  0  0  0  0  0  0  0
   -0.0000    2.2500    0.0000 C   0  0  0  0  0  0  0  0  0  0  0  0
   -1.3000   -2.4600    0.0000 C   0  0  0  0  0  0  0  0  0  0  0  0
    0.0000   -0.2100    0.0000 C   0  0  0  0  0  0  0  0  0  0  0  0
    1.3000    2.0400    0.0000 O   0  0  0  0  0  0  0  0  0  0  0  0
   -1.2135    3.1317    0.0000 O   0  0  0  0  0  0  0  0  0  0  0  0
    1.2135    3.1317    0.0000 O   0  0  0  0  0  0  0  0  0  0  0  0
  7  5  1  0
  9  8  1  0
 10  5  1  0
 11  6  1  0
 12  6  1  0
 14 13  1  0
 15  1  1  0
 15  2  1  0
 15  7  2  0
 16  3  1  0
 16  8  1  0
 17  9  1  1
 18 16  1  0
 20  4  1  1
 20 10  1  0
 20 11  1  0
 20 17  1  0
 21 12  1  0
 21 17  1  0
 21 18  1  0
 21 19  1  1
 22 18  2  0
 23 13  1  0
 23 19  1  0
 24 14  1  0
 24 19  1  0
M  END
>  <NAME>  (3920) 
4ABETA-ETHYLENEDIOXYMETHYL-(1BETA),6-DIMETHYL-(1ALPHA)-(4-METHYL-3-PENTENYL)-1,2,3,4,4A,7,8,8A-OCTAHYDRONAPHTHALENE-5(6H)-ONE

>  <SYNONYMS>  (3920) 


>  <SPECTRUM TYPE>  (3920) 
MS1

>  <INSTRUMENT TYPE>  (3920) 
EI-B

>  <INSTRUMENT>  (3920) 
JEOL JMS-DX-300

>  <ION MODE>  (3920) 
P

>  <INCHIKEY>  (3920) 
YXNQMYYPGYBXJH-JMCPUQKHSA-N

>  <FORMULA>  (3920) 
C21H34O3

>  <EXACT MASS>  (3920) 
334.25079494799996

>  <MW>  (3920) 
334

>  <ID>  (3920) 
JP005226

>  <CONTRIBUTOR>  (3920) 
University of Tokyo Team, {Faculty of Engineering, University of Tokyo

>  <COMMENT>  (3920) 
SMILES=CC(C)=CCCC(C)(C3)C([H])(C1)C(CC3)(C(O2)OCC2)C(=O)C(C)C1
InChI=InChI=1S/C21H34O3/c1-15(2)7-5-10-20(4)11-6-12-21(19-23-13-14-24-19)17(20)9-8-16(3)18(21)22/h7,16-17,19H,5-6,8-14H2,1-4H3/t16?,17-,20+,21+/m0/s1
computed SMILES=O=C1C(C)CCC2C(C)(CCC=C(C)C)CCCC12C3OCCO3
accession=JP005226
date=2016.01.19 (Created 2008.10.21, modified 2011.05.06)
author=HISAHIRO HAGIWARA, CHEMICAL RESEARCH INSTITUTE OF NON-AQUEOUSSOLUTIONS TOHOKU UNIV.
license=CC BY-NC-SA
exact mass=334.25079
ionization energy=70 eV
ion type=[M]+*
computed spectral entropy=3.9291711598142047
computed normalized entropy=0.7852144926386888
SPLASH=splash10-00kg-9410000000-4b7f8bcb8bbf81a69577
submitter=submitter = University of Tokyo Team (Faculty of Engineering, University of Tokyo)
MoNA Rating=3.75

>  <NUM PEAKS>  (3920) 
149

>  <MASS SPECTRAL PEAKS>  (3920) 
39 9.8
40 2
41 94.2
42 0.54
43 30.3
44 2.5
45 99.99
46 0.16
51 1.4
52 1.8
53 20.3
54 0.38
55 66.6
56 8.1
57 5.9
59 0.13
65 7.2
66 4.2
67 40.8
68 1.13
69 93.3
70 6.6
71 2.7
74 8.61
75 13.6
77 15
78 3.9
79 2.87
80 5.9
81 35.2
82 12.6
83 1.38
84 2
85 1.2
87 1
91 2.02
92 4
93 30.8
94 10.2
95 2.72
96 4.6
97 4.6
98 2
99 0.11
100 17.2
101 2.6
103 1.6
104 0.14
105 17.1
106 3.9
107 19.1
108 0.63
109 15.1
110 3.6
111 4.4
112 0.21
113 8.4
114 5.7
115 2.3
116 0.02
117 3.4
118 1.7
119 10
120 0.26
121 10.6
122 3.9
123 7.8
124 0.28
125 9.5
126 3.1
127 4.4
128 0.21
129 2.7
131 4.1
132 1.2
133 0.81
134 4.3
135 10.5
136 6.7
137 0.64
138 2.9
139 3.6
140 1.3
141 0.11
145 3.4
147 6.1
148 2.8
149 1.08
150 3.1
151 4
152 1.1
153 0.36
155 1.8
159 4.6
160 1
161 0.72
162 3
163 4.1
165 1.7
166 0.24
167 2.8
169 1.2
170 1.4
173 0.24
174 2.7
175 8.7
176 4.1
177 0.1
178 29.5
179 8.5
180 1.9
181 0.01
182 1.6
183 1.6
184 1.5
186 0.15
187 1.4
189 4.7
190 1.9
191 0.06
192 1.3
193 1.3
197 5
201 0.12
203 1.7
205 1.7
217 1.5
229 0.12
230 1.2
234 1.6
242 1.1
247 0.01
248 2.4
249 1.6
250 50
251 1.42
252 3
253 1.7
256 1.5
260 0.03
261 2.7
262 2.2
263 1.4
264 0.18
291 1.6
320 3.9
334 37.6
335 1.09
336 2

>  <PREDICTED SPECTRUM>  (3920) 
26 15
27 120
29 142
31 41
33 9
34 12
38 50
39 382
40 238
41 963
42 318
43 849
44 197
45 475
46 123
47 114
48 14
49 62
50 123
51 200
52 156
53 491
54 261
55 839
56 369
57 217
58 210
59 235
60 179
61 159
62 63
63 79
64 61
65 307
66 276
67 753
68 434
69 999
70 353
71 351
72 136
73 338
74 244
75 266
76 111
77 410
78 227
79 577
80 356
81 858
82 515
83 384
84 191
85 259
86 239
87 347
88 77
89 133
90 12
91 413
92 285
93 805
94 351
95 750
96 403
97 334
98 212
99 353
100 257
101 181
102 84
103 127
104 98
105 315
106 234
107 478
108 386
109 548
110 287
111 343
112 282
113 305
114 132
115 265
116 127
117 249
118 86
119 257
120 163
121 522
122 222
123 321
124 180
125 313
126 172
127 248
128 173
129 198
130 127
131 236
132 69
133 282
134 126
135 367
136 314
137 275
138 128
139 198
140 154
141 151
142 167
143 137
145 129
146 57
147 120
148 98
149 277
150 171
151 101
152 59
153 164
154 26
155 110
156 54
157 110
158 49
159 287
160 144
161 252
162 127
163 243
164 119
165 260
166 150
167 94
168 7
169 83
171 66
172 22
173 189
174 127
175 315
176 145
177 304
178 249
179 163
180 97
181 162
182 52
183 82
185 84
187 154
188 43
189 208
190 117
191 135
192 83
193 38
194 53
195 26
196 63
197 108
198 42
199 75
200 6
201 93
203 276
204 28
205 257
206 90
207 133
209 15
211 25
213 89
214 28
215 88
217 59
219 148
220 26
221 19
224 17
229 9
230 35
231 133
233 94
234 78
244 0
246 14
247 82
248 179
249 45
250 444
251 179
252 157
253 21
261 101
262 132
263 25
264 16
265 91
272 47
273 24
275 45
291 125
292 42
301 6
303 11
319 16
333 15
334 703
335 255
336 124

$$$$

     RDKit          2D

 23 23  0  0  1  0  0  0  0  0999 V2000
    5.1968   -3.0006    0.0000 C   0  0  0  0  0  0  0  0  0  0  0  0
   11.6923   -0.7517    0.0000 C   0  0  0  0  0  0  0  0  0  0  0  0
   -0.0000   -3.0000    0.0000 C   0  0  0  0  0  0  0  0  0  0  0  0
    2.7772    0.4897    0.0000 C   0  0  0  0  0  0  0  0  0  0  0  0
    1.3610    4.7182    0.0000 C   0  0  0  0  0  0  0  0  0  0  0  0
    7.7951   -1.5010    0.0000 C   0  0  0  0  0  0  0  0  0  0  0  0
    6.4962   -0.7508    0.0000 C   0  0  0  0  0  0  0  0  0  0  0  0
    9.0942   -0.7512    0.0000 C   0  0  0  0  0  0  0  0  0  0  0  0
    3.8981   -0.7504    0.0000 C   0  0  0  0  0  0  0  0  0  0  0  0
    2.5989   -1.5002    0.0000 C   0  0  0  0  0  0  0  0  0  0  0  0
   -1.3000    0.7500    0.0000 C   0  0  0  0  0  0  0  0  0  0  0  0
    0.0000    1.5000    0.0000 C   0  0  0  0  0  0  0  0  0  0  0  0
    5.1970   -1.5006    0.0000 C   0  0  0  0  0  0  0  0  0  0  0  0
   10.3931   -1.5015    0.0000 C   0  0  0  0  0  0  0  0  0  0  0  0
    0.0000   -1.5000    0.0000 C   0  0  0  0  0  0  0  0  0  0  0  0
    1.3000   -0.7500    0.0000 C   0  0  0  0  0  0  0  0  0  0  0  0
   -1.3000   -0.7500    0.0000 C   0  0  0  0  0  0  0  0  0  0  0  0
    1.8127    2.1596    0.0000 C   0  0  0  0  0  0  0  0  0  0  0  0
    1.3000    0.7500    0.0000 C   0  0  0  0  0  0  0  0  0  0  0  0
   10.3929   -3.0015    0.0000 O   0  0  0  0  0  0  0  0  0  0  0  0
   -2.5989   -1.5002    0.0000 O   0  0  0  0  0  0  0  0  0  0  0  0
    3.2899    2.4204    0.0000 O   0  0  0  0  0  0  0  0  0  0  0  0
    0.8483    3.3085    0.0000 O   0  0  0  0  0  0  0  0  0  0  0  0
  7  6  1  0
  8  6  1  0
  9 10  2  0
 12 11  1  0
 13  1  1  0
  7 13  2  0
 13  9  1  0
 14  2  1  0
 14  8  1  0
 15  3  1  0
 16 10  1  0
 16 15  2  0
 17 11  1  0
 17 15  1  0
 19  4  1  1
 19 12  1  0
 19 16  1  0
 19 18  1  0
 20 14  2  0
 21 17  2  0
 22 18  2  0
 23  5  1  0
 23 18  1  0
M  END
>  <NAME>  (3921) 
METHYL 2-((1E),(3E)-3-METHYL-7-OXOOCTA-1,3-DIENYL)-1,3-DIMETHYL-4-OXOCYCLOHEX-2-ENYL-1-CARBOXYLATE

>  <SYNONYMS>  (3921) 
TRISPORIC ACID B METHYL ESTER

>  <SPECTRUM TYPE>  (3921) 
MS1

>  <INSTRUMENT TYPE>  (3921) 
EI-B

>  <INSTRUMENT>  (3921) 
JEOL JMS-DX-300

>  <ION MODE>  (3921) 
P

>  <INCHIKEY>  (3921) 
IBEKLXNZXQHTGY-OUOIIHKDSA-N

>  <FORMULA>  (3921) 
C19H26O4

>  <EXACT MASS>  (3921) 
318.183109312

>  <MW>  (3921) 
318

>  <ID>  (3921) 
JP005224

>  <CONTRIBUTOR>  (3921) 
University of Tokyo Team, {Faculty of Engineering, University of Tokyo

>  <COMMENT>  (3921) 
SMILES=CC(=O)CCC=C(C)C=CC(=C(C)1)C(C)(CCC(=O)1)C(=O)OC
InChI=InChI=1S/C19H26O4/c1-13(7-6-8-14(2)20)9-10-16-15(3)17(21)11-12-19(16,4)18(22)23-5/h7,9-10H,6,8,11-12H2,1-5H3/b10-9+,13-7+/t19-/m0/s1
computed SMILES=O=C(OC)C1(C(C=CC(=CCCC(=O)C)C)=C(C(=O)CC1)C)C
accession=JP005224
date=2016.01.19 (Created 2008.10.21, modified 2011.05.06)
author=HISAHIRO HAGIWARA, CHEMICAL RESEARCH INSTITUTE OF NON-AQUEOUSSOLUTIONS TOHOKU UNIV.
license=CC BY-NC-SA
exact mass=318.18311
ionization energy=70 eV
ion type=[M]+*
computed spectral entropy=3.305132847572705
computed normalized entropy=0.8842763500029951
SPLASH=splash10-014l-6923000000-7e4c3e4a77865bfb1a63
submitter=submitter = University of Tokyo Team (Faculty of Engineering, University of Tokyo)
MoNA Rating=3.75

>  <NUM PEAKS>  (3921) 
42

>  <MASS SPECTRAL PEAKS>  (3921) 
32 11.8
42 20.2
43 99.99
55 3.01
69 11
77 13.3
79 14.2
81 0.13
91 23
93 23.8
95 10.5
105 1.69
117 10.7
119 18.1
123 10.8
131 0.15
133 18.4
135 12.9
143 12
145 2.04
147 16.6
149 19.3
157 17.1
158 0.1
159 32.7
160 23.1
161 23.5
163 1.04
173 33.7
175 13.4
183 24.4
185 1.75
187 21.1
197 29.2
200 14.7
201 3.34
215 36.4
243 11.7
260 19.9
275 2.54
318 93.1
319 21.7

>  <PREDICTED SPECTRUM>  (3921) 
14 11
15 39
16 2
17 8
18 21
25 8
26 51
27 190
28 86
29 175
30 24
31 68
33 5
34 6
37 4
38 43
39 231
40 119
41 460
42 132
43 999
44 175
45 187
47 72
48 8
49 49
50 75
51 162
52 100
53 259
54 95
55 325
56 76
57 186
58 137
59 300
60 94
61 80
62 23
63 97
64 69
65 209
66 113
67 252
68 105
69 275
70 93
71 193
72 80
73 69
74 38
75 88
76 60
77 352
78 163
79 267
80 106
81 234
82 114
83 158
84 95
85 162
86 86
87 34
88 30
89 71
90 23
91 376
92 158
93 270
94 134
95 247
96 118
97 135
98 64
99 82
100 63
101 147
102 125
103 140
104 80
105 315
106 126
107 257
108 133
109 294
110 129
111 171
112 58
113 102
115 198
116 108
117 156
118 104
119 327
120 119
121 289
122 171
123 251
124 150
125 148
126 46
127 168
128 241
129 274
130 161
131 268
132 127
133 205
134 173
135 345
136 160
137 201
138 134
139 128
140 58
141 160
142 151
143 234
144 151
145 299
146 165
147 284
148 168
149 208
150 124
151 198
152 143
153 122
154 90
155 217
156 184
157 256
158 177
159 306
160 171
161 224
162 131
163 199
164 73
165 145
166 103
167 184
168 143
169 161
170 79
171 241
172 137
173 238
174 195
175 206
176 94
177 117
178 93
179 145
180 129
181 232
182 151
183 224
184 196
185 268
186 147
187 253
188 126
189 236
190 150
191 171
192 88
193 84
194 93
195 135
196 94
197 175
198 107
199 201
200 204
201 289
202 156
203 178
204 87
205 131
206 101
207 94
208 13
209 63
210 50
211 76
212 89
213 137
214 106
215 344
216 223
217 224
218 108
219 161
220 5
221 36
222 21
223 47
224 54
225 193
227 121
228 72
229 185
230 70
231 106
232 125
233 212
234 74
235 4
239 11
240 30
241 101
242 135
243 238
244 163
245 204
246 87
247 163
248 84
249 101
251 15
252 16
255 6
257 101
258 161
259 211
260 332
261 210
262 55
263 16
271 4
273 33
275 509
276 145
277 10
285 36
286 6
287 21
289 12
291 16
300 52
301 73
302 29
303 161
304 49
316 48
318 422
319 200
320 71

$$$$

     RDKit          2D

 17 18  0  0  0  0  0  0  0  0999 V2000
    4.4175   -2.1516    0.0000 C   0  0  0  0  0  0  0  0  0  0  0  0
    2.3846   -3.7694    0.0000 C   0  0  0  0  0  0  0  0  0  0  0  0
   -2.5193   -2.4880    0.0000 C   0  0  0  0  0  0  0  0  0  0  0  0
   -2.9400    0.1500    0.0000 C   0  0  0  0  0  0  0  0  0  0  0  0
    2.0000    1.5100    0.0000 C   0  0  0  0  0  0  0  0  0  0  0  0
    2.6500    0.1500    0.0000 C   0  0  0  0  0  0  0  0  0  0  0  0
   -2.0600    1.3700    0.0000 C   0  0  0  0  0  0  0  0  0  0  0  0
    0.2089    3.3030    0.0000 C   0  0  0  0  0  0  0  0  0  0  0  0
    1.3103    4.3213    0.0000 C   0  0  0  0  0  0  0  0  0  0  0  0
    0.5400   -1.5300    0.0000 C   0  0  0  0  0  0  0  0  0  0  0  0
    2.9340   -2.3737    0.0000 C   0  0  0  0  0  0  0  0  0  0  0  0
   -2.0600   -1.0600    0.0000 C   0  0  0  0  0  0  0  0  0  0  0  0
    0.5400    1.8400    0.0000 C   0  0  0  0  0  0  0  0  0  0  0  0
    2.0000   -1.2000    0.0000 C   0  0  0  0  0  0  0  0  0  0  0  0
   -0.6400    0.9100    0.0000 C   0  0  0  0  0  0  0  0  0  0  0  0
   -0.6400   -0.5900    0.0000 C   0  0  0  0  0  0  0  0  0  0  0  0
    0.9792    5.7843    0.0000 O   0  0  0  0  0  0  0  0  0  0  0  0
  6  5  2  0
  7  4  2  0
  9  8  1  0
 11  1  1  0
 11  2  1  0
 12  3  1  0
 12  4  1  0
 13  5  1  0
 13  8  1  0
 14  6  1  0
 14 10  2  0
 14 11  1  0
 15  7  1  0
 15 13  2  0
 16 10  1  0
 16 12  2  0
 16 15  1  0
 17  9  1  0
M  END
>  <NAME>  (3922) 
4-(2-HYDROXYETHYL)-7-ISOPROPYL-1-METHYLAZULENE

>  <SYNONYMS>  (3922) 


>  <SPECTRUM TYPE>  (3922) 
MS1

>  <INSTRUMENT TYPE>  (3922) 
EI-B

>  <INSTRUMENT>  (3922) 
JEOL JMS-HX-100

>  <ION MODE>  (3922) 
P

>  <INCHIKEY>  (3922) 
IKCSTPCYLTYEQG-UHFFFAOYSA-N

>  <FORMULA>  (3922) 
C16H20O

>  <EXACT MASS>  (3922) 
228.15141526

>  <MW>  (3922) 
228

>  <ID>  (3922) 
JP005157

>  <CONTRIBUTOR>  (3922) 
University of Tokyo Team, {Faculty of Engineering, University of Tokyo

>  <COMMENT>  (3922) 
SMILES=OCCC(C=2)=C(C=1)C(C=C(C(C)C)C2)=C(C)C1
InChI=InChI=1S/C16H20O/c1-11(2)14-6-5-13(8-9-17)15-7-4-12(3)16(15)10-14/h4-7,10-11,17H,8-9H2,1-3H3
computed SMILES=OCCC1=CC=C(C=C2C1=CC=C2C)C(C)C
accession=JP005157
date=2016.01.19 (Created 2008.10.21, modified 2011.05.06)
author=HAYASHI A, FAC. OF SCIENCE AND TECHNOLOGY, KINKI UNIV.
license=CC BY-NC-SA
exact mass=228.15142
ionization energy=70 eV
ion type=[M]+*
computed spectral entropy=4.168650655879553
computed normalized entropy=0.8399720254110067
SPLASH=splash10-00or-2930000000-6057264564613cf50298
submitter=submitter = University of Tokyo Team (Faculty of Engineering, University of Tokyo)
MoNA Rating=3.75

>  <NUM PEAKS>  (3922) 
143

>  <MASS SPECTRAL PEAKS>  (3922) 
35 0.79
39 5.78
40 0.77
41 10.66
42 2.23
43 20.66
44 4.5
45 2.49
50 1.25
51 4.67
52 1.06
53 2.98
54 0.58
55 6.42
56 3.75
57 6.7
58 0.64
60 1.33
61 2.16
62 1
63 4.49
64 1.64
65 2.9
67 1.51
68 0.61
69 3.4
70 2.26
71 3.73
73 1.21
74 2.44
75 2.29
76 4.51
77 6.48
78 1.68
79 1.58
81 1.83
82 2.53
83 3.37
84 1.25
85 1.47
86 0.82
87 1.48
88 1.41
89 4.4
90 1.5
91 5.27
92 0.78
93 1.02
95 1.31
96 0.75
97 1.56
98 0.77
99 0.83
101 1.15
102 1.84
103 1.32
104 0.76
105 2.77
107 0.72
109 0.79
111 0.99
112 0.72
113 1.28
114 3.7
115 12.24
116 2.32
117 1.34
118 4.55
119 1
123 0.58
125 0.66
126 1.91
127 6.01
128 15.3
129 10.37
130 1.77
131 1.09
133 0.53
137 0.57
138 0.55
139 5.6
140 1.68
141 18.38
142 12.58
143 34.72
144 5.1
145 1.16
149 6.2
150 2.5
151 5.55
152 21.7
153 20.56
154 12.03
155 16.86
156 4.74
157 19.6
158 4.08
159 0.78
163 1.94
164 2.46
165 28.81
166 11.67
167 26.25
168 12.03
169 23.24
170 7.57
171 3.42
172 0.67
176 1.5
177 1.56
178 6.43
179 7
180 4.7
181 11.32
182 12.35
183 12.18
184 5.95
185 27.87
186 4.66
187 0.76
189 0.71
191 0.64
193 1.02
194 0.84
195 5.08
196 1.92
197 5.91
198 3.87
199 3.83
200 0.87
209 1.34
210 1.07
211 4.81
212 1.86
213 48.04
214 8.82
215 0.95
226 1.11
227 5.64
228 99.99
229 20.83
230 2.23
231 0.27

>  <PREDICTED SPECTRUM>  (3922) 
14 10
15 46
16 2
17 3
18 18
26 21
27 119
28 54
29 123
30 10
31 79
38 38
39 180
40 81
41 284
42 125
43 504
44 102
45 226
46 7
49 10
50 116
51 217
52 92
53 183
54 61
55 198
56 64
57 207
58 52
60 10
62 74
63 215
64 131
65 192
66 53
67 147
68 56
69 143
70 115
71 212
72 21
73 59
74 157
75 193
76 219
77 290
78 156
79 128
80 15
81 153
82 146
83 213
84 122
85 103
86 99
87 155
88 148
89 173
90 55
91 283
92 60
93 46
94 12
95 127
96 95
97 115
98 114
99 86
100 75
101 168
102 152
103 140
104 94
105 180
106 69
107 68
108 48
109 86
110 80
111 88
112 69
113 138
114 85
115 441
116 214
117 215
118 24
119 68
120 33
121 20
122 38
125 81
126 193
127 265
128 437
129 431
130 215
131 130
132 22
133 69
138 40
139 281
140 165
141 481
142 346
143 387
144 183
145 120
147 56
149 48
150 132
151 189
152 437
153 438
154 379
155 472
156 290
157 350
158 208
159 80
160 17
161 58
162 50
163 125
164 188
165 512
166 346
167 429
168 280
169 384
170 237
171 255
172 87
173 34
176 89
177 135
178 340
179 312
180 216
181 349
182 210
183 559
184 336
185 538
186 249
187 46
189 7
191 47
193 148
194 62
195 295
196 113
197 265
198 246
199 197
200 103
207 47
209 151
210 138
211 126
212 69
213 524
214 238
215 67
224 28
226 129
227 107
228 999
229 415
230 135

$$$$

     RDKit          2D

 28 28  0  0  0  0  0  0  0  0999 V2000
    7.2459   -2.0500    0.0000 C   0  0  0  0  0  0  0  0  0  0  0  0
    7.7953   -0.0010    0.0000 C   0  0  0  0  0  0  0  0  0  0  0  0
    5.7464    0.5483    0.0000 C   0  0  0  0  0  0  0  0  0  0  0  0
   -0.5490    5.0490    0.0000 C   0  0  0  0  0  0  0  0  0  0  0  0
   -2.5981    4.5000    0.0000 C   0  0  0  0  0  0  0  0  0  0  0  0
   -2.0490    2.4510    0.0000 C   0  0  0  0  0  0  0  0  0  0  0  0
   -3.1483    0.5487    0.0000 C   0  0  0  0  0  0  0  0  0  0  0  0
   -5.1972   -0.0006    0.0000 C   0  0  0  0  0  0  0  0  0  0  0  0
   -4.6479   -2.0496    0.0000 C   0  0  0  0  0  0  0  0  0  0  0  0
    3.1474   -5.0493    0.0000 C   0  0  0  0  0  0  0  0  0  0  0  0
    5.1965   -4.5006    0.0000 C   0  0  0  0  0  0  0  0  0  0  0  0
    4.6478   -2.4515    0.0000 C   0  0  0  0  0  0  0  0  0  0  0  0
    1.3000    0.7500    0.0000 C   0  0  0  0  0  0  0  0  0  0  0  0
   -0.0000   -1.5000    0.0000 C   0  0  0  0  0  0  0  0  0  0  0  0
   -1.3000    0.7500    0.0000 C   0  0  0  0  0  0  0  0  0  0  0  0
    3.8981   -0.7504    0.0000 C   0  0  0  0  0  0  0  0  0  0  0  0
    1.3000   -0.7500    0.0000 C   0  0  0  0  0  0  0  0  0  0  0  0
    0.0000    1.5000    0.0000 C   0  0  0  0  0  0  0  0  0  0  0  0
   -1.3000   -0.7500    0.0000 C   0  0  0  0  0  0  0  0  0  0  0  0
    2.5989   -1.5002    0.0000 C   0  0  0  0  0  0  0  0  0  0  0  0
    6.4962   -0.7508    0.0000 C   0  0  0  0  0  0  0  0  0  0  0  0
    5.1970   -1.5006    0.0000 N   0  0  0  0  0  0  0  0  0  0  0  0
    0.0000    3.0000    0.0000 O   0  0  0  0  0  0  0  0  0  0  0  0
   -2.5989   -1.5002    0.0000 O   0  0  0  0  0  0  0  0  0  0  0  0
    2.5987   -3.0002    0.0000 O   0  0  0  0  0  0  0  0  0  0  0  0
   -1.2990    3.7500    0.0000 Si  0  0  0  0  0  4  0  0  0  0  0  0
   -3.8981   -0.7504    0.0000 Si  0  0  0  0  0  4  0  0  0  0  0  0
    3.8976   -3.7504    0.0000 Si  0  0  0  0  0  4  0  0  0  0  0  0
 17 13  2  0
 17 14  1  0
 18 13  1  0
 18 15  2  0
 19 14  2  0
 19 15  1  0
 20 16  1  0
 20 17  1  0
 21  1  1  0
 21  2  1  0
 21  3  1  0
 22 16  1  0
 22 21  1  0
 23 18  1  0
 24 19  1  0
 25 20  1  0
 26  4  1  0
 26  5  1  0
 26  6  1  0
 26 23  1  0
 27  7  1  0
 27  8  1  0
 27  9  1  0
 27 24  1  0
 28 10  1  0
 28 11  1  0
 28 12  1  0
 28 25  1  0
M  END
>  <NAME>  (3923) 
(TERT-BUTYL)(2-(3,5-DITRIMETHYLSILYLOXYPHENYL)-2-TRIMETHYLSILYLOXYETHYL)AMINE

>  <SYNONYMS>  (3923) 
TRI-TMS-TERBUTALINE

>  <SPECTRUM TYPE>  (3923) 
MS1

>  <INSTRUMENT TYPE>  (3923) 
EI-B

>  <INSTRUMENT>  (3923) 
JEOL JMS-HX-100

>  <ION MODE>  (3923) 
P

>  <INCHIKEY>  (3923) 
HCOIHNBLVDOGQK-UHFFFAOYSA-N

>  <FORMULA>  (3923) 
C21H43NO3Si3

>  <EXACT MASS>  (3923) 
441.255073826

>  <MW>  (3923) 
441

>  <ID>  (3923) 
JP005155

>  <CONTRIBUTOR>  (3923) 
University of Tokyo Team, {Faculty of Engineering, University of Tokyo

>  <COMMENT>  (3923) 
SMILES=CC(C)(C)NCC(O[Si](C)(C)C)c(c1)cc(O[Si](C)(C)C)cc(O[Si](C)(C)C)1
InChI=InChI=1S/C21H43NO3Si3/c1-21(2,3)22-16-20(25-28(10,11)12)17-13-18(23-26(4,5)6)15-19(14-17)24-27(7,8)9/h13-15,20,22H,16H2,1-12H3
computed SMILES=O(C=1C=C(O[Si](C)(C)C)C=C(C1)C(O[Si](C)(C)C)CNC(C)(C)C)[Si](C)(C)C
accession=JP005155
date=2016.01.19 (Created 2008.10.21, modified 2011.05.06)
author=HAYASHI A, FAC. OF SCIENCE AND TECHNOLOGY, KINKI UNIV.
license=CC BY-NC-SA
exact mass=441.25507
ionization energy=70 eV
ion type=[M]+*
computed spectral entropy=2.91227003663192
computed normalized entropy=0.668456431788852
SPLASH=splash10-0a4i-2019000000-101504a804493824ce50
submitter=submitter = University of Tokyo Team (Faculty of Engineering, University of Tokyo)
MoNA Rating=3.75

>  <NUM PEAKS>  (3923) 
78

>  <MASS SPECTRAL PEAKS>  (3923) 
40 0.55
41 1.17
43 0.57
44 0.54
45 0.66
57 2.29
59 0.84
73 16.15
74 2.06
82 0.51
86 36.38
87 2.59
133 0.67
147 4.02
148 0.7
177 0.55
179 0.86
191 0.55
195 0.71
206 0.85
207 0.92
221 2.28
222 0.53
223 0.59
235 0.58
237 0.93
239 1.18
240 0.53
250 0.53
251 1.6
252 0.58
263 0.62
264 0.75
265 2.01
266 0.64
267 1.56
269 0.89
278 0.72
279 0.85
280 3.33
281 4.33
282 1.24
283 1.3
284 0.84
294 1.87
295 0.52
296 0.84
325 0.98
327 0.62
328 0.52
336 5.89
337 1.86
338 1.27
339 1.36
340 1.84
341 0.87
342 0.75
343 0.67
350 0.69
351 0.51
352 0.75
353 1.04
354 0.95
355 17.47
356 99.99
357 36.91
358 17.12
359 3.61
360 1.14
370 4.61
371 1.73
372 0.98
376 0.51
399 0.67
415 0.65
426 9.74
427 3.86
428 1.5

>  <PREDICTED SPECTRUM>  (3923) 
27 12
29 59
30 291
31 55
32 10
39 48
41 125
42 34
43 23
44 196
45 72
47 17
56 50
57 157
58 342
59 216
60 59
61 43
72 142
73 922
74 199
75 324
76 73
77 29
86 926
87 195
91 29
100 82
102 122
103 89
104 22
105 141
106 10
115 1
116 46
117 47
119 40
131 40
133 118
135 49
144 8
145 92
147 368
148 0
149 113
156 9
161 50
172 79
174 222
175 87
176 157
177 82
189 22
190 49
191 95
192 92
193 56
194 36
206 58
207 86
208 17
219 20
220 28
221 53
223 39
233 87
234 99
235 33
240 27
245 30
246 84
247 108
251 41
262 63
265 84
267 55
281 49
282 23
283 28
284 1
297 109
298 3
299 13
308 34
336 151
337 83
338 30
339 40
352 68
353 101
354 31
355 999
356 545
357 457
358 271
359 24
369 11
370 135
371 86
372 75
423 8
426 132
427 58
428 63
441 89
442 22

$$$$

     RDKit          2D

 38 40  0  0  0  0  0  0  0  0999 V2000
    3.3628   -4.7521    0.0000 C   0  0  0  0  0  0  0  0  0  0  0  0
   -3.0989   -4.3922    0.0000 C   0  0  0  0  0  0  0  0  0  0  0  0
    1.1212   -6.1998    0.0000 C   0  0  0  0  0  0  0  0  0  0  0  0
   -6.9965    0.8570    0.0000 C   0  0  0  0  0  0  0  0  0  0  0  0
    6.1024    1.9937    0.0000 C   0  0  0  0  0  0  0  0  0  0  0  0
   -0.3416   -5.8859    0.0000 C   0  0  0  0  0  0  0  0  0  0  0  0
   -5.6975    0.1070    0.0000 C   0  0  0  0  0  0  0  0  0  0  0  0
    4.6745    1.5344    0.0000 C   0  0  0  0  0  0  0  0  0  0  0  0
   -5.6965    3.1086    0.0000 C   0  0  0  0  0  0  0  0  0  0  0  0
    6.8986   -0.4814    0.0000 C   0  0  0  0  0  0  0  0  0  0  0  0
   -1.7999   -2.1422    0.0000 C   0  0  0  0  0  0  0  0  0  0  0  0
    1.1865   -2.3178    0.0000 C   0  0  0  0  0  0  0  0  0  0  0  0
    1.8706   -4.9049    0.0000 C   0  0  0  0  0  0  0  0  0  0  0  0
   -1.7999   -3.6422    0.0000 C   0  0  0  0  0  0  0  0  0  0  0  0
   -6.9960    2.3578    0.0000 C   0  0  0  0  0  0  0  0  0  0  0  0
    7.2145    0.9858    0.0000 C   0  0  0  0  0  0  0  0  0  0  0  0
   -0.5008   -4.3922    0.0000 C   0  0  0  0  0  0  0  0  0  0  0  0
    0.8704   -3.7841    0.0000 C   0  0  0  0  0  0  0  0  0  0  0  0
   -4.3980    0.8578    0.0000 C   0  0  0  0  0  0  0  0  0  0  0  0
    4.3586    0.0672    0.0000 C   0  0  0  0  0  0  0  0  0  0  0  0
   -4.3975    2.3586    0.0000 C   0  0  0  0  0  0  0  0  0  0  0  0
    5.4707   -0.9407    0.0000 C   0  0  0  0  0  0  0  0  0  0  0  0
   -3.0989   -1.3922    0.0000 N   0  0  0  0  0  0  0  0  0  0  0  0
    2.6145   -1.8585    0.0000 N   0  0  0  0  0  0  0  0  0  0  0  0
   -3.0989    0.1078    0.0000 N   0  0  0  0  0  0  0  0  0  0  0  0
    2.9307   -0.3922    0.0000 N   0  0  0  0  0  0  0  0  0  0  0  0
   -8.2951    3.1078    0.0000 N   0  0  0  0  0  0  0  0  0  0  0  0
    8.6424    1.4452    0.0000 N   0  0  0  0  0  0  0  0  0  0  0  0
   -3.0983    3.1084    0.0000 N   0  0  0  0  0  0  0  0  0  0  0  0
    5.1542   -2.4070    0.0000 N   0  0  0  0  0  0  0  0  0  0  0  0
   -8.2951    4.6078    0.0000 O   0  0  0  0  0  0  0  0  0  0  0  0
   -9.5941    2.3578    0.0000 O   0  0  0  0  0  0  0  0  0  0  0  0
    8.9586    2.9115    0.0000 O   0  0  0  0  0  0  0  0  0  0  0  0
    9.7542    0.4382    0.0000 O   0  0  0  0  0  0  0  0  0  0  0  0
   -3.0981    4.6084    0.0000 O   0  0  0  0  0  0  0  0  0  0  0  0
   -1.7994    2.3582    0.0000 O   0  0  0  0  0  0  0  0  0  0  0  0
    6.2659   -3.4141    0.0000 O   0  0  0  0  0  0  0  0  0  0  0  0
    3.7262   -2.8661    0.0000 O   0  0  0  0  0  0  0  0  0  0  0  0
  6  3  1  0
  7  4  2  0
  8  5  2  0
 13  1  1  0
 13  3  1  0
 14  2  1  0
 14 11  1  0
 15  4  1  0
 15  9  2  0
 16  5  1  0
 16 10  2  0
 17  6  1  0
 17 14  1  0
 18 12  1  0
 18 13  1  0
 18 17  1  0
 19  7  1  0
 20  8  1  0
 21  9  1  0
 21 19  2  0
 22 10  1  0
 22 20  2  0
 11 23  2  0
 12 24  2  0
 25 19  1  0
 25 23  1  0
 26 20  1  0
 26 24  1  0
 27 15  1  0
 28 16  1  0
 29 21  1  0
 30 22  1  0
 31 27  1  0
 32 27  2  0
 33 28  1  0
 34 28  2  0
 35 29  1  0
 36 29  2  0
 37 30  1  0
 38 30  2  0
M  CHG  8  27   1  28   1  29   1  30   1  31  -1  33  -1  35  -1  37  -1
M  END
>  <NAME>  (3924) 
2-(1-(2,4-DINITROPHENYLHYDRAZONOMETHYL)ETHYL)-5-METHYLCYCLOPENTANECARBALDEHYDE 2,4-DINITROPHENYLHYDRAZONE

>  <SYNONYMS>  (3924) 
IRIDODIAL BIS-2,4-DINITROPHENYLHYDRAZONE

>  <SPECTRUM TYPE>  (3924) 
MS1

>  <INSTRUMENT TYPE>  (3924) 
EI-B

>  <INSTRUMENT>  (3924) 
JEOL JMS-HX-100

>  <ION MODE>  (3924) 
P

>  <INCHIKEY>  (3924) 
SCNCMQWVAQHERI-ASIDMNOUSA-N

>  <FORMULA>  (3924) 
C22H24N8O8

>  <EXACT MASS>  (3924) 
528.171709728

>  <MW>  (3924) 
528

>  <ID>  (3924) 
JP005154

>  <CONTRIBUTOR>  (3924) 
University of Tokyo Team, {Faculty of Engineering, University of Tokyo

>  <COMMENT>  (3924) 
SMILES=[O-1][N+1](=O)c(c1)cc([N+1]([O-1])=O)c(NN=CC(C)C(C2)C(C=NNc(c3)c([N+1]([O-1])=O)cc([N+1]([O-1])=O)c3)C(C)C2)c1
InChI=InChI=1S/C22H24N8O8/c1-13-3-6-17(14(2)11-23-25-19-7-4-15(27(31)32)9-21(19)29(35)36)18(13)12-24-26-20-8-5-16(28(33)34)10-22(20)30(37)38/h4-5,7-14,17-18,25-26H,3,6H2,1-2H3/b23-11+,24-12+
computed SMILES=O=N(=O)C1=CC=C(NN=CC(C)C2CCC(C)C2C=NNC3=CC=C(C=C3N(=O)=O)N(=O)=O)C(=C1)N(=O)=O
license=CC BY-NC-SA
accession=JP005154
date=2016.01.19 (Created 2008.10.21, modified 2011.05.06)
author=HAYASHI A, FAC. OF SCIENCE AND TECHNOLOGY, KINKI UNIV.
exact mass=528.17171
ionization energy=70 eV
ion type=[M]+*
computed spectral entropy=4.625276439858393
computed normalized entropy=0.8634746464793198
SPLASH=splash10-001i-9512000000-74fe984a2b839a918ce4
submitter=submitter = University of Tokyo Team (Faculty of Engineering, University of Tokyo)
MoNA Rating=3.75

>  <NUM PEAKS>  (3924) 
212

>  <MASS SPECTRAL PEAKS>  (3924) 
35 0.57
37 0.87
38 2.97
39 12.22
40 2.72
41 36.47
42 6.04
43 11.05
44 15.06
45 2.01
46 0.83
50 2.32
51 7.06
52 5.77
53 11.78
54 4.58
55 24.45
56 6.18
57 7.48
58 1.09
60 1.41
61 1.43
62 2.92
63 7.92
64 5.85
65 6.46
66 4.2
67 20.04
68 7.47
69 7.92
70 4.58
71 3.04
73 1.3
74 1.34
75 7.29
76 4.95
77 16.22
78 9.54
79 21.44
80 9.45
81 37.06
82 6.32
83 3.56
84 1.35
85 1.65
87 0.61
88 0.81
89 2.23
90 4.67
91 14.52
92 6.49
93 19.37
94 15.35
95 12.29
96 3.22
97 2.24
98 1.19
99 0.56
101 0.58
102 1.16
103 2.75
104 2.56
105 6.54
106 7.81
107 16.33
108 8.66
109 8.47
110 2.03
111 1.26
115 2.8
116 2.29
117 5.5
118 4.61
119 4.67
120 3.79
121 7.76
122 5.03
123 8.18
124 1.43
125 0.65
127 1.03
128 1.91
129 2.7
130 3.65
131 4.54
132 4.49
133 5.41
134 7.96
135 8.11
136 3.97
137 3.37
138 2.06
139 0.65
140 0.62
141 1.02
142 1.11
143 1.94
144 2.27
145 2.06
146 4.14
147 3.13
148 15.35
149 7.94
150 7.88
151 3.42
152 3.58
153 4.71
154 1.45
155 1.58
156 2.1
157 2.52
158 1.37
159 1.46
160 0.65
161 0.9
162 0.75
163 1.34
164 3.32
165 4.34
166 1.55
167 4.1
168 2.98
169 2.01
170 1.5
171 1.37
176 1.32
177 2.35
178 1.57
179 0.99
180 1.33
181 2.8
182 1.8
183 5.02
184 3.04
185 1.08
189 1.14
190 1.1
191 1.38
193 1.45
194 1.28
195 6.17
196 1.82
197 1.23
202 1.55
203 4
204 1.35
205 1.16
209 1
210 1.61
215 1.42
216 1.13
217 1.33
220 1.25
228 1.45
229 1.77
230 0.9
231 1.06
237 1.55
238 0.99
241 1.37
242 1.29
243 1.19
249 1.64
255 1.67
256 1.01
257 1.09
268 0.99
269 1.37
270 0.82
271 1.55
272 0.63
275 1.09
282 1.13
283 1.71
284 1.3
285 2.16
286 0.89
287 0.7
288 1.08
289 1.02
290 0.64
291 2.15
295 1.52
296 1.04
297 1.73
298 1.73
299 3.6
300 1.32
301 1.26
302 0.56
313 1.5
314 0.95
315 5.05
316 1.18
317 0.67
328 0.59
329 4.11
330 2.29
331 99.99
332 21.27
333 3.29
334 0.39
345 0.59
346 0.62
477 0.38
493 1.11
494 0.57
496 0.66
511 0.49
526 1.33
528 4.72
529 1.24

>  <PREDICTED SPECTRUM>  (3924) 
14 7
15 11
16 8
17 34
18 61
25 7
26 91
27 296
28 287
29 332
30 319
31 161
32 22
37 25
38 68
39 111
40 103
41 570
42 206
43 480
44 227
45 113
46 58
49 26
50 193
51 355
52 299
53 401
54 292
55 619
56 209
57 297
58 58
59 75
60 89
61 206
62 254
63 378
64 298
65 292
66 247
67 488
68 344
69 339
70 118
71 153
72 9
73 130
74 196
75 375
76 324
77 567
78 398
79 564
80 331
81 525
82 311
83 177
84 131
85 51
86 39
87 36
88 82
89 203
90 278
91 440
92 355
93 477
94 309
95 536
96 290
97 221
98 122
99 76
100 28
101 122
102 98
103 135
104 183
105 396
106 265
107 499
108 300
109 365
110 121
111 82
112 29
113 48
114 87
115 142
116 193
117 318
118 207
119 273
120 168
121 407
122 468
123 313
124 152
125 104
126 66
127 86
128 131
129 181
130 141
131 246
132 82
133 194
134 180
135 190
136 150
137 262
138 229
139 38
140 55
141 43
142 51
143 30
144 85
145 89
146 110
147 186
148 209
149 253
150 160
151 186
152 369
153 189
154 83
155 97
156 45
157 44
158 121
160 61
161 138
162 144
163 112
164 130
165 219
166 158
167 143
168 272
169 81
170 93
171 116
172 90
173 47
174 24
175 87
176 100
177 215
178 199
179 52
180 116
181 247
182 123
183 374
184 200
185 55
186 46
187 75
188 104
189 168
190 125
191 75
194 50
195 113
196 123
197 137
198 70
199 70
200 45
201 10
202 47
203 134
204 101
205 66
206 96
207 33
208 6
209 31
210 86
211 24
212 56
213 16
214 58
215 120
216 62
217 103
218 89
219 4
220 85
221 74
222 26
223 50
224 154
225 83
226 72
227 89
228 139
229 173
230 153
231 176
232 71
234 8
237 29
238 35
239 70
240 84
241 144
242 109
243 114
244 54
245 48
247 16
249 35
250 23
253 5
254 87
255 213
256 160
257 133
258 67
259 70
261 48
262 17
266 19
268 111
269 83
270 144
271 61
272 68
273 71
274 18
275 73
276 46
277 44
281 24
282 36
284 156
285 172
286 107
287 50
288 55
289 140
290 87
291 49
296 70
297 98
298 76
299 105
300 138
301 170
302 99
303 102
304 16
311 59
313 139
314 132
315 204
316 159
317 81
328 110
329 376
330 236
331 999
332 446
333 147
340 2
345 33
347 50
348 19
360 2
361 9
363 22
370 8
378 28
398 47
400 8
405 18
410 1
411 2
415 13
417 14
420 44
427 9
429 25
430 7
432 22
439 20
461 42
462 11
463 4
466 7
467 4
474 15
476 1
477 63
489 3
491 5
493 157
494 117
495 26
496 89
499 14
511 100
512 30
528 225
529 182
531 20
532 12
533 1

$$$$

     RDKit          2D

 16 17  0  0  0  0  0  0  0  0999 V2000
   -3.8987   -3.0002    0.0000 C   0  0  0  0  0  0  0  0  0  0  0  0
   -5.1981   -0.7504    0.0000 C   0  0  0  0  0  0  0  0  0  0  0  0
    1.3000   -3.0000    0.0000 C   0  0  0  0  0  0  0  0  0  0  0  0
    0.0000    2.2500    0.0000 C   0  0  0  0  0  0  0  0  0  0  0  0
   -2.6000    0.7500    0.0000 C   0  0  0  0  0  0  0  0  0  0  0  0
    2.6000    0.7500    0.0000 C   0  0  0  0  0  0  0  0  0  0  0  0
   -1.3000    1.5000    0.0000 C   0  0  0  0  0  0  0  0  0  0  0  0
    1.3000    1.5000    0.0000 C   0  0  0  0  0  0  0  0  0  0  0  0
   -1.3000   -1.5000    0.0000 C   0  0  0  0  0  0  0  0  0  0  0  0
   -3.8989   -1.5002    0.0000 C   0  0  0  0  0  0  0  0  0  0  0  0
    1.3000   -1.5000    0.0000 C   0  0  0  0  0  0  0  0  0  0  0  0
   -2.6000   -0.7500    0.0000 C   0  0  0  0  0  0  0  0  0  0  0  0
    0.0000   -0.7500    0.0000 C   0  0  0  0  0  0  0  0  0  0  0  0
    2.6000   -0.7500    0.0000 C   0  0  0  0  0  0  0  0  0  0  0  0
    0.0000    0.7500    0.0000 C   0  0  0  0  0  0  0  0  0  0  0  0
    3.8989   -1.5002    0.0000 O   0  0  0  0  0  0  0  0  0  0  0  0
  7  5  1  0
  8  6  1  0
 10  1  2  0
 10  2  1  0
 11  3  1  0
 12  5  1  0
 12  9  1  0
 12 10  1  0
 13  9  1  0
 13 11  2  0
 14  6  1  0
 14 11  1  0
 15  4  1  0
 15  7  1  0
 15  8  1  0
 15 13  1  0
 16 14  2  0
M  END
>  <NAME>  (3925) 
7-ISOPROPENYL-1,4A-DIMETHYL-3,4,5,6,7,8-HEXAHYDRO-2-NAPHTHALENONE

>  <SYNONYMS>  (3925) 


>  <SPECTRUM TYPE>  (3925) 
MS1

>  <INSTRUMENT TYPE>  (3925) 
EI-B

>  <INSTRUMENT>  (3925) 
JEOL JMS-HX-100

>  <ION MODE>  (3925) 
P

>  <INCHIKEY>  (3925) 
KUFXJZXMWHNCEH-UHFFFAOYSA-N

>  <FORMULA>  (3925) 
C15H22O

>  <EXACT MASS>  (3925) 
218.167065324

>  <MW>  (3925) 
218

>  <ID>  (3925) 
JP005153

>  <CONTRIBUTOR>  (3925) 
University of Tokyo Team, {Faculty of Engineering, University of Tokyo

>  <COMMENT>  (3925) 
SMILES=CC(=C)C(C1)CC(=C(C)2)C(C)(CCC(=O)2)C1
InChI=InChI=1S/C15H22O/c1-10(2)12-5-7-15(4)8-6-14(16)11(3)13(15)9-12/h12H,1,5-9H2,2-4H3
computed SMILES=O=C1C(=C2CC(C(=C)C)CCC2(C)CC1)C
accession=JP005153
date=2016.01.19 (Created 2008.10.21, modified 2011.05.06)
author=HAYASHI A, FAC. OF SCIENCE AND TECHNOLOGY, KINKI UNIV.
license=CC BY-NC-SA
exact mass=218.16707
ionization energy=70 eV
ion type=[M]+*
computed spectral entropy=4.214876724812701
computed normalized entropy=0.8834951493539113
SPLASH=splash10-0006-7910000000-df760ddca07d59ed812c
submitter=submitter = University of Tokyo Team (Faculty of Engineering, University of Tokyo)
MoNA Rating=3.75

>  <NUM PEAKS>  (3925) 
118

>  <MASS SPECTRAL PEAKS>  (3925) 
38 1.25
39 44.3
40 8.54
41 90.25
42 6.24
43 14.28
45 0.96
50 2.47
51 14.55
52 9.08
53 52.28
54 7.39
55 54.28
56 3.6
57 2.56
58 1.31
59 0.87
63 5.4
64 3.64
65 27.42
66 10.44
67 50.1
68 9.41
69 19.71
70 2.1
71 2.22
72 0.86
73 0.97
74 1.48
75 1.22
76 1.15
77 54.15
78 13.76
79 61.23
80 17.83
81 42.27
82 17.83
83 7.28
86 1.3
89 1.92
91 72.58
92 13.04
93 70.3
94 17.17
95 37.83
96 10.13
97 9.42
103 7.16
104 4.13
105 52.74
106 17.24
107 54.62
108 36.98
109 47.63
110 20.03
111 16.25
112 1.87
115 9.29
116 4.21
117 12.94
118 5.47
119 50.96
120 23.52
121 55.64
122 29.53
123 15.76
124 20.83
125 2.48
127 1.68
128 5.07
129 5.81
130 2.55
131 12.55
132 12.86
133 48.68
134 24.9
135 27.53
136 57.62
137 46.69
138 10.33
141 1.58
142 1.65
143 6.91
144 2.65
145 9.48
146 7.11
147 67.17
148 21.06
149 11.65
150 19.86
151 3.29
157 13.16
158 2.94
159 6.95
160 5.43
161 58.83
162 28.66
163 10.19
164 2.15
171 2.24
172 3.05
173 1.75
174 1.91
175 49.3
176 21.78
177 7.29
185 10.84
186 1.91
189 8.32
190 10.55
191 1.7
200 2.75
201 3.54
203 42.41
204 7.03
218 99.99
219 18.38
220 1.71

>  <PREDICTED SPECTRUM>  (3925) 
26 79
27 403
28 151
29 409
30 6
37 7
38 90
39 632
40 283
41 999
42 300
43 626
44 158
45 66
50 179
51 415
52 275
53 591
54 240
55 768
56 181
57 257
58 92
59 106
60 70
62 33
63 183
64 134
65 488
66 285
67 703
68 303
69 608
70 103
71 151
72 39
74 38
75 37
76 69
77 715
78 371
79 847
80 383
81 708
82 321
83 332
84 160
85 68
89 94
90 1
91 880
92 388
93 857
94 482
95 672
96 298
97 194
98 65
99 11
102 78
103 223
104 158
105 729
106 365
107 812
108 547
109 604
110 265
111 222
112 43
114 32
115 305
116 182
117 351
118 198
119 715
120 413
121 761
122 516
123 396
124 172
125 104
126 36
127 136
128 238
129 294
130 179
131 353
132 170
133 587
134 474
135 572
136 633
137 314
138 91
139 49
141 99
142 99
143 229
144 214
145 413
146 273
147 820
148 500
149 453
150 351
151 187
152 121
156 74
157 223
158 59
159 242
160 247
161 672
162 572
163 346
164 156
165 45
171 60
172 50
173 202
174 165
175 908
176 443
177 277
178 153
185 269
186 36
187 83
188 67
189 573
190 579
191 209
199 60
200 74
201 111
202 24
203 951
204 356
205 104
217 164
218 934
219 395
220 104

$$$$

     RDKit          2D

 15 16  0  0  0  0  0  0  0  0999 V2000
    3.6987   -2.8302    0.0000 C   0  0  0  0  0  0  0  0  0  0  0  0
    4.9981   -0.5804    0.0000 C   0  0  0  0  0  0  0  0  0  0  0  0
   -1.5000   -2.8300    0.0000 C   0  0  0  0  0  0  0  0  0  0  0  0
   -0.2000    2.4200    0.0000 C   0  0  0  0  0  0  0  0  0  0  0  0
   -2.8000    0.9200    0.0000 C   0  0  0  0  0  0  0  0  0  0  0  0
   -2.8000   -0.5800    0.0000 C   0  0  0  0  0  0  0  0  0  0  0  0
    2.4000    0.9200    0.0000 C   0  0  0  0  0  0  0  0  0  0  0  0
   -1.5000    1.6700    0.0000 C   0  0  0  0  0  0  0  0  0  0  0  0
    1.1000    1.6700    0.0000 C   0  0  0  0  0  0  0  0  0  0  0  0
    1.1000   -1.3300    0.0000 C   0  0  0  0  0  0  0  0  0  0  0  0
    3.6989   -1.3302    0.0000 C   0  0  0  0  0  0  0  0  0  0  0  0
   -1.5000   -1.3300    0.0000 C   0  0  0  0  0  0  0  0  0  0  0  0
    2.4000   -0.5800    0.0000 C   0  0  0  0  0  0  0  0  0  0  0  0
   -0.2000   -0.5800    0.0000 C   0  0  0  0  0  0  0  0  0  0  0  0
   -0.2000    0.9200    0.0000 C   0  0  0  0  0  0  0  0  0  0  0  0
  6  5  1  0
  8  5  1  0
  9  7  1  0
 11  1  2  0
 11  2  1  0
 12  3  2  0
 12  6  1  0
 13  7  1  0
 13 10  1  0
 13 11  1  0
 14 10  1  0
 14 12  1  0
 15  4  1  0
 15  8  1  0
 15  9  1  0
 15 14  1  0
M  END
>  <NAME>  (3926) 
7-ISOPROPENYL-4A-METHYL-1-DECAHYDRONAPHTHYLIDENE

>  <SYNONYMS>  (3926) 


>  <SPECTRUM TYPE>  (3926) 
MS1

>  <INSTRUMENT TYPE>  (3926) 
EI-B

>  <INSTRUMENT>  (3926) 
JEOL JMS-HX-100

>  <ION MODE>  (3926) 
P

>  <INCHIKEY>  (3926) 
YOVSPTNQHMDJAG-UHFFFAOYSA-N

>  <FORMULA>  (3926) 
C15H24

>  <EXACT MASS>  (3926) 
204.187800768

>  <MW>  (3926) 
204

>  <ID>  (3926) 
JP005152

>  <CONTRIBUTOR>  (3926) 
University of Tokyo Team, {Faculty of Engineering, University of Tokyo

>  <COMMENT>  (3926) 
SMILES=CC(=C)C(C1)CC(C(=C)2)C(C)(CCC2)C1
cas=17066-67-0
InChI=InChI=1S/C15H24/c1-11(2)13-7-9-15(4)8-5-6-12(3)14(15)10-13/h13-14H,1,3,5-10H2,2,4H3
computed SMILES=C=C(C)C1CCC2(C)CCCC(=C)C2C1
accession=JP005152
date=2016.01.19 (Created 2008.10.21, modified 2011.05.06)
author=HAYASHI A, FAC. OF SCIENCE AND TECHNOLOGY, KINKI UNIV.
license=CC BY-NC-SA
exact mass=204.1878
ionization energy=70 eV
ion type=[M]+*
computed spectral entropy=3.7681054014778965
computed normalized entropy=0.928003518751718
SPLASH=splash10-052f-9600000000-77ccff44fcef614446d5
submitter=submitter = University of Tokyo Team (Faculty of Engineering, University of Tokyo)
MoNA Rating=3.75

>  <NUM PEAKS>  (3926) 
58

>  <MASS SPECTRAL PEAKS>  (3926) 
39 40.76
41 99.99
42 7.48
43 25.05
44 1.51
51 8.91
53 44.85
54 8.4
55 58.42
56 6.41
57 24.32
65 18.94
66 8.78
67 70.49
68 28.91
69 29
70 3.77
71 9.56
77 39.58
78 12.43
79 78.15
80 34.43
81 71.29
82 32.27
83 6.98
85 2.37
91 54.08
92 16.25
93 92.63
94 32.8
95 51.89
96 9.91
97 7.86
99 7.72
105 83.62
106 23.37
107 84.93
108 49.6
109 26.73
119 40.39
120 15.75
121 63.2
122 27.01
123 23.76
133 42.42
134 15.96
135 27.07
136 8.64
147 34.89
148 19.96
149 12.79
161 44.49
162 16.15
175 17.49
176 7.79
189 41.27
204 44.86
205 8.54

>  <PREDICTED SPECTRUM>  (3926) 
26 62
27 345
28 115
29 340
30 10
31 12
37 10
38 72
39 481
40 244
41 891
42 221
43 411
44 70
50 113
51 285
52 237
53 560
54 256
55 692
56 277
57 259
58 47
59 24
62 55
63 181
64 110
65 406
66 222
67 768
68 523
69 647
70 248
71 153
74 10
75 12
76 35
77 563
78 308
79 814
80 489
81 896
82 429
83 275
84 152
85 36
88 9
89 97
90 68
91 730
92 425
93 999
94 608
95 732
96 395
97 297
98 82
102 35
103 198
104 139
105 612
106 392
107 872
108 672
109 644
110 194
111 229
112 143
114 41
115 213
116 158
117 268
118 197
119 595
120 431
121 780
122 563
123 333
124 100
125 53
126 13
127 71
128 135
129 188
130 105
131 251
132 145
133 575
134 482
135 438
136 366
137 71
138 18
141 20
142 55
143 268
144 88
145 241
146 184
147 470
148 407
149 323
150 107
157 101
158 105
159 107
160 131
161 591
162 335
163 176
164 44
171 222
172 21
173 129
175 334
176 292
177 122
186 93
187 66
188 8
189 506
190 190
191 32
202 20
204 381
205 131

$$$$

     RDKit          2D

 22 24  0  0  0  0  0  0  0  0999 V2000
    1.3000    6.0000    0.0000 C   0  0  0  0  0  0  0  0  0  0  0  0
    0.0000    5.2500    0.0000 C   0  0  0  0  0  0  0  0  0  0  0  0
    2.6000    5.2500    0.0000 C   0  0  0  0  0  0  0  0  0  0  0  0
   -2.6000    0.7500    0.0000 C   0  0  0  0  0  0  0  0  0  0  0  0
   -2.6000   -0.7500    0.0000 C   0  0  0  0  0  0  0  0  0  0  0  0
    0.0000    3.7500    0.0000 C   0  0  0  0  0  0  0  0  0  0  0  0
    2.6000    3.7500    0.0000 C   0  0  0  0  0  0  0  0  0  0  0  0
   -1.3000    1.5000    0.0000 C   0  0  0  0  0  0  0  0  0  0  0  0
   -1.3000   -1.5000    0.0000 C   0  0  0  0  0  0  0  0  0  0  0  0
    5.1981    0.7504    0.0000 C   0  0  0  0  0  0  0  0  0  0  0  0
    1.3000    3.0000    0.0000 C   0  0  0  0  0  0  0  0  0  0  0  0
   -0.0000    0.7500    0.0000 C   0  0  0  0  0  0  0  0  0  0  0  0
   -0.0000   -0.7500    0.0000 C   0  0  0  0  0  0  0  0  0  0  0  0
    6.4970    1.5006    0.0000 C   0  0  0  0  0  0  0  0  0  0  0  0
    1.3000    1.5000    0.0000 C   0  0  0  0  0  0  0  0  0  0  0  0
    2.6000    0.7500    0.0000 C   0  0  0  0  0  0  0  0  0  0  0  0
    2.6000   -0.7500    0.0000 C   0  0  0  0  0  0  0  0  0  0  0  0
    1.3000   -1.5000    0.0000 N   0  0  0  0  0  0  0  0  0  0  0  0
    6.4968    3.0006    0.0000 O   0  0  0  0  0  0  0  0  0  0  0  0
    7.7962    0.7508    0.0000 O   0  0  0  0  0  0  0  0  0  0  0  0
    3.8989   -1.5002    0.0000 O   0  0  0  0  0  0  0  0  0  0  0  0
    3.8989    1.5002    0.0000 O   0  0  0  0  0  0  0  0  0  0  0  0
  2  1  2  0
  3  1  1  0
  5  4  2  0
  6  2  1  0
  7  3  2  0
  8  4  1  0
  9  5  1  0
 11  6  2  0
 11  7  1  0
 12  8  2  0
 13  9  2  0
 13 12  1  0
 14 10  1  0
 15 11  1  0
 15 12  1  0
 16 15  2  0
 17 16  1  0
 18 13  1  0
 18 17  2  0
 19 14  2  0
 20 14  1  0
 21 17  1  0
 22 10  1  0
 22 16  1  0
M  END
>  <NAME>  (3927) 
2-OXO-4-PHENYL-1,2-DIHYDROQUINOLIN-3-YLOXYACETIC ACID

>  <SYNONYMS>  (3927) 


>  <SPECTRUM TYPE>  (3927) 
MS1

>  <INSTRUMENT TYPE>  (3927) 
EI-B

>  <INSTRUMENT>  (3927) 
JEOL JMS-HX-100

>  <ION MODE>  (3927) 
P

>  <INCHIKEY>  (3927) 
CXHYJXBDMMINFW-UHFFFAOYSA-N

>  <FORMULA>  (3927) 
C17H13NO4

>  <EXACT MASS>  (3927) 
295.084457896

>  <MW>  (3927) 
295

>  <ID>  (3927) 
JP005150

>  <CONTRIBUTOR>  (3927) 
University of Tokyo Team, {Faculty of Engineering, University of Tokyo

>  <COMMENT>  (3927) 
SMILES=OC(=O)COC(C(=O)1)=C(c(c3)cccc3)c(c2)c(ccc2)N1
InChI=InChI=1S/C17H13NO4/c19-14(20)10-22-16-15(11-6-2-1-3-7-11)12-8-4-5-9-13(12)18-17(16)21/h1-9H,10H2,(H,18,21)(H,19,20)
computed SMILES=O=C(O)COC1=C(O)N=C2C=CC=CC2=C1C=3C=CC=CC3
accession=JP005150
date=2016.01.19 (Created 2008.10.21, modified 2011.05.06)
author=HAYASHI A, FAC. OF SCIENCE AND TECHNOLOGY, KINKI UNIV.
license=CC BY-NC-SA
exact mass=295.08446
ionization energy=70 eV
ion type=[M]+*
computed spectral entropy=3.731350991208554
computed normalized entropy=0.8067833351346467
SPLASH=splash10-0udi-0390000000-6af66c7bc8cd5a3a134d
submitter=submitter = University of Tokyo Team (Faculty of Engineering, University of Tokyo)
MoNA Rating=3.75

>  <NUM PEAKS>  (3927) 
102

>  <MASS SPECTRAL PEAKS>  (3927) 
39 1.31
44 0.91
50 0.84
51 1.77
52 0.61
62 0.79
63 2.15
64 0.56
65 0.59
74 0.67
75 1.73
76 3.71
77 6.2
78 0.8
81 1
82 1.87
86 0.61
87 0.92
88 1.94
89 2.72
90 1.85
91 1.18
95 2.04
96 0.68
100 0.55
101 2.84
102 1.91
103 0.78
104 0.75
109 0.64
110 1
113 0.82
114 0.81
115 1.43
116 1.2
124 6.71
125 1.71
126 1.89
127 2.23
128 1.32
139 2
140 1.28
150 1.27
151 4.42
152 8.83
153 4.05
154 1.16
163 3.91
164 4.39
165 9.51
166 2.16
174 0.64
175 0.96
176 1.87
177 3.11
178 4.61
179 7.99
180 13.31
181 3.39
188 0.52
189 0.96
190 8.58
191 5.82
192 2.2
193 3.25
194 2.2
201 1.15
202 8.52
203 2.66
204 5.34
205 1.62
206 1.52
207 2.69
208 20.46
209 3.69
215 1.35
216 0.59
218 0.81
219 2.51
220 32.51
221 9.23
222 7.62
223 1.67
232 8.28
233 15.65
234 4.41
235 2.31
236 14.34
237 8.98
238 1.79
248 6.07
249 5.73
250 99.99
251 27.22
252 3.69
266 0.61
277 6.16
278 1.46
294 1.79
295 26.04
296 5.39
297 0.8

>  <PREDICTED SPECTRUM>  (3927) 
17 5
18 8
29 2
31 73
33 22
34 5
36 43
38 50
39 202
40 108
41 142
42 125
43 167
44 216
45 211
49 5
50 182
51 348
52 148
53 100
54 24
55 107
56 69
57 85
58 29
59 36
60 70
61 11
62 129
63 262
64 155
65 196
66 49
69 84
70 86
71 60
74 101
75 221
76 280
77 434
78 152
79 24
80 7
81 36
82 92
83 119
84 56
85 22
86 82
87 139
88 285
89 297
90 136
91 113
92 9
93 14
94 43
95 13
96 82
97 35
98 31
99 58
100 84
101 266
102 223
103 185
104 159
105 125
106 62
107 27
108 20
109 61
110 59
111 46
112 37
113 93
114 82
115 248
116 192
117 72
118 25
121 24
122 43
123 6
124 21
125 20
126 123
127 163
128 174
129 135
130 47
131 12
138 69
139 168
140 142
141 44
142 29
149 6
150 94
151 229
152 321
153 120
154 84
155 115
156 11
163 90
164 166
165 324
166 321
167 181
168 101
175 7
176 114
177 165
178 245
179 219
180 348
181 256
182 134
189 125
190 220
191 200
192 244
193 373
194 289
195 143
202 39
203 72
204 165
205 245
206 406
207 254
208 738
209 324
210 10
218 24
219 258
220 542
221 641
222 456
223 240
224 33
231 47
232 113
233 79
234 205
235 140
236 317
237 174
238 39
248 174
249 209
250 999
251 426
252 97
266 42
267 85
268 15
277 47
294 46
295 782
296 319
297 84

$$$$

     RDKit          2D

 25 28  0  0  0  0  0  0  0  0999 V2000
    0.9449   -4.4487    0.0000 C   0  0  0  0  0  0  0  0  0  0  0  0
   -4.0636    2.7287    0.0000 C   0  0  0  0  0  0  0  0  0  0  0  0
   -5.3779    1.3195    0.0000 C   0  0  0  0  0  0  0  0  0  0  0  0
   -2.6953   -6.0200    0.0000 C   0  0  0  0  0  0  0  0  0  0  0  0
   -3.5420   -4.7914    0.0000 C   0  0  0  0  0  0  0  0  0  0  0  0
    3.8800    1.2400    0.0000 C   0  0  0  0  0  0  0  0  0  0  0  0
    4.2200   -0.2200    0.0000 C   0  0  0  0  0  0  0  0  0  0  0  0
   -1.1997   -5.9050    0.0000 C   0  0  0  0  0  0  0  0  0  0  0  0
   -2.8940   -3.4377    0.0000 C   0  0  0  0  0  0  0  0  0  0  0  0
    2.4500    1.6800    0.0000 C   0  0  0  0  0  0  0  0  0  0  0  0
    3.1200   -1.2400    0.0000 C   0  0  0  0  0  0  0  0  0  0  0  0
   -2.4500    1.6800    0.0000 C   0  0  0  0  0  0  0  0  0  0  0  0
   -4.2200   -0.2200    0.0000 C   0  0  0  0  0  0  0  0  0  0  0  0
   -0.5509   -4.5613    0.0000 C   0  0  0  0  0  0  0  0  0  0  0  0
   -1.3984   -3.3226    0.0000 C   0  0  0  0  0  0  0  0  0  0  0  0
    1.3500    0.6600    0.0000 C   0  0  0  0  0  0  0  0  0  0  0  0
    1.6900   -0.8000    0.0000 C   0  0  0  0  0  0  0  0  0  0  0  0
   -1.3500    0.6600    0.0000 C   0  0  0  0  0  0  0  0  0  0  0  0
   -3.1200   -1.2400    0.0000 C   0  0  0  0  0  0  0  0  0  0  0  0
   -1.6900   -0.8000    0.0000 C   0  0  0  0  0  0  0  0  0  0  0  0
   -0.7500   -1.9700    0.0000 C   0  0  0  0  0  0  0  0  0  0  0  0
   -3.8800    1.2400    0.0000 C   0  0  0  0  0  0  0  0  0  0  0  0
    0.0000    1.3100    0.0000 N   0  0  0  0  0  0  0  0  0  0  0  0
    0.7500   -1.9700    0.0000 N   0  0  0  0  0  0  0  0  0  0  0  0
   -3.4541   -2.7023    0.0000 O   0  0  0  0  0  0  0  0  0  0  0  0
  5  4  2  0
  7  6  2  0
  8  4  1  0
  9  5  1  0
 10  6  1  0
 11  7  1  0
 14  1  1  0
 14  8  2  0
 15  9  2  0
 15 14  1  0
 16 10  2  0
 17 11  2  0
 17 16  1  0
 18 12  1  0
 19 13  1  0
 20 18  2  0
 20 19  1  0
 21 15  1  0
 21 20  1  0
 22  2  1  0
 22  3  1  0
 22 12  1  0
 22 13  1  0
 23 16  1  0
 23 18  1  0
 24 17  1  0
 24 21  2  0
 25 19  2  0
M  END
>  <NAME>  (3928) 
3,3-DIMETHYL-11-O-TOLYL-2,3,4,5-TETRAHYDRO-1H-DIBENZO(B,E)(1,4)-DIAZEPIN-1-ONE

>  <SYNONYMS>  (3928) 


>  <SPECTRUM TYPE>  (3928) 
MS1

>  <INSTRUMENT TYPE>  (3928) 
EI-B

>  <INSTRUMENT>  (3928) 
JEOL JMS-HX-100

>  <ION MODE>  (3928) 
P

>  <INCHIKEY>  (3928) 
NDVVNGHRFCMKLV-UHFFFAOYSA-N

>  <FORMULA>  (3928) 
C22H22N2O

>  <EXACT MASS>  (3928) 
330.173213324

>  <MW>  (3928) 
330

>  <ID>  (3928) 
JP005149

>  <CONTRIBUTOR>  (3928) 
University of Tokyo Team, {Faculty of Engineering, University of Tokyo

>  <COMMENT>  (3928) 
SMILES=Cc(c4)c(ccc4)C(=N1)C(C(=O)3)=C(CC(C)(C)C3)Nc(c2)c(ccc2)1
InChI=InChI=1S/C22H22N2O/c1-14-8-4-5-9-15(14)21-20-18(12-22(2,3)13-19(20)25)23-16-10-6-7-11-17(16)24-21/h4-11,23H,12-13H2,1-3H3
computed SMILES=O=C1C=2C(=NC=3C=CC=CC3NC2CC(C)(C)C1)C4=CC=CC=C4C
accession=JP005149
date=2016.01.19 (Created 2008.10.21, modified 2011.05.06)
author=HAYASHI A, FAC. OF SCIENCE AND TECHNOLOGY, KINKI UNIV.
license=CC BY-NC-SA
exact mass=330.17321
ionization energy=70 eV
ion type=[M]+*
computed spectral entropy=3.775357439441467
computed normalized entropy=0.8432149726223915
SPLASH=splash10-000t-2397000000-1e88f659e08197de4c24
submitter=submitter = University of Tokyo Team (Faculty of Engineering, University of Tokyo)
MoNA Rating=3.75

>  <NUM PEAKS>  (3928) 
88

>  <MASS SPECTRAL PEAKS>  (3928) 
39 6.72
41 6.8
43 8.33
51 4.07
53 2.17
55 4.84
58 2.41
63 3.6
64 2.07
65 7.29
76 3.05
77 10.13
78 2.51
83 4.94
89 4.41
90 2.7
91 6.08
92 3.56
102 5.69
103 3.37
114 2.58
115 12.79
116 5.29
117 2.15
118 2.26
119 2.9
121 2.45
122 3.43
127 3.6
128 7.57
129 5.07
130 2.77
131 3.52
132 2.13
136 2.75
139 2.22
140 2.3
141 3.09
142 2.58
143 5.39
149 2.27
150 6.21
157 2.61
165 11.53
195 2.01
203 2.07
204 6.69
205 3.61
206 4.45
207 5.97
208 2.02
209 2.72
217 3.06
218 3.79
219 4.42
229 3.54
230 4.15
231 13.37
232 6.29
233 3.3
242 2.11
243 4.83
245 45.76
246 99.99
247 23.91
248 2.76
256 2.04
257 2.5
259 5.2
271 2.64
272 2.3
273 10.87
274 6.85
275 3.01
285 2.09
287 5.8
301 3.36
302 24.75
303 6.27
313 17.65
314 5.66
315 62.11
316 17.07
317 2.39
329 12.24
330 59.16
331 16.62
332 2.37

>  <PREDICTED SPECTRUM>  (3928) 
33 19
34 1
38 4
39 215
40 99
41 233
42 94
43 159
44 99
45 45
50 133
51 247
52 135
53 120
54 44
55 135
56 92
57 86
58 12
59 5
62 77
63 221
64 130
65 267
66 120
67 105
68 18
69 88
70 26
71 3
74 78
75 229
76 220
77 389
78 194
79 114
80 46
81 33
82 32
83 169
84 123
85 10
87 53
88 50
89 329
90 280
91 330
92 131
93 28
95 46
96 62
97 105
98 85
99 16
100 32
101 112
102 218
103 183
104 215
105 108
106 57
107 37
108 52
109 77
110 27
111 12
113 54
114 120
115 249
116 296
117 196
118 112
119 82
120 31
121 77
126 90
127 179
128 212
129 164
130 103
131 110
132 74
135 100
136 25
137 28
138 7
139 43
140 109
141 74
142 115
143 131
144 49
145 34
147 36
148 11
149 82
150 84
151 103
152 88
153 92
154 94
155 90
156 40
157 72
158 20
163 39
164 59
165 131
166 76
167 66
168 49
169 50
170 79
171 74
172 35
177 87
178 93
179 99
180 116
181 85
189 59
190 54
191 51
192 23
193 69
194 70
195 46
196 24
197 27
198 31
201 2
203 135
204 131
205 169
206 89
207 52
209 15
215 15
216 52
217 189
218 272
219 157
220 67
228 60
229 101
230 74
231 280
232 160
233 64
239 48
240 42
241 61
242 53
243 104
244 79
245 519
246 999
247 473
248 149
253 30
255 51
256 67
257 143
258 131
259 210
260 139
261 44
270 81
271 144
272 216
273 285
274 307
275 231
285 107
286 57
287 227
288 97
289 26
299 68
300 53
301 267
302 260
303 165
313 421
314 219
315 803
316 393
317 123
329 356
330 798
331 363
332 152

$$$$

     RDKit          2D

 20 21  0  0  0  0  0  0  0  0999 V2000
   -1.6353    4.6878    0.0000 C   0  0  0  0  0  0  0  0  0  0  0  0
   -2.9306    2.4356    0.0000 C   0  0  0  0  0  0  0  0  0  0  0  0
    7.6438   -0.0689    0.0000 C   0  0  0  0  0  0  0  0  0  0  0  0
    6.6796    1.6012    0.0000 C   0  0  0  0  0  0  0  0  0  0  0  0
   -1.6200   -1.3100    0.0000 C   0  0  0  0  0  0  0  0  0  0  0  0
   -0.3300   -2.0600    0.0000 C   0  0  0  0  0  0  0  0  0  0  0  0
   -1.6200    0.1900    0.0000 C   0  0  0  0  0  0  0  0  0  0  0  0
    0.9700   -1.3100    0.0000 C   0  0  0  0  0  0  0  0  0  0  0  0
    3.5678   -1.3104    0.0000 C   0  0  0  0  0  0  0  0  0  0  0  0
    4.8675    0.9415    0.0000 C   0  0  0  0  0  0  0  0  0  0  0  0
    6.1664   -1.3092    0.0000 C   0  0  0  0  0  0  0  0  0  0  0  0
   -1.6328    3.1878    0.0000 C   0  0  0  0  0  0  0  0  0  0  0  0
    3.5681    0.1904    0.0000 C   0  0  0  0  0  0  0  0  0  0  0  0
    4.8670   -2.0602    0.0000 C   0  0  0  0  0  0  0  0  0  0  0  0
   -0.3300    0.9400    0.0000 C   0  0  0  0  0  0  0  0  0  0  0  0
    0.9700    0.1900    0.0000 C   0  0  0  0  0  0  0  0  0  0  0  0
    6.1666    0.1917    0.0000 C   0  0  0  0  0  0  0  0  0  0  0  0
   -0.3325    2.4400    0.0000 N   0  0  0  0  0  0  0  0  0  0  0  0
    2.2689    0.9402    0.0000 N   0  0  0  0  0  0  0  0  0  0  0  0
    4.8675   -3.5602    0.0000 O   0  0  0  0  0  0  0  0  0  0  0  0
  6  5  2  0
  7  5  1  0
  8  6  1  0
 12  1  1  0
 12  2  1  0
 13  9  2  0
 13 10  1  0
 14  9  1  0
 14 11  1  0
 15  7  2  0
 16  8  2  0
 16 15  1  0
 17  3  1  0
 17  4  1  0
 17 10  1  0
 17 11  1  0
 18 12  1  0
 18 15  1  0
 19 13  1  0
 19 16  1  0
 20 14  2  0
M  END
>  <NAME>  (3929) 
3-(2-ISOPROPYLAMINOANILINO)-5,5-DIMETHYL-2-CYCLOHEXEN-E-ONE

>  <SYNONYMS>  (3929) 


>  <SPECTRUM TYPE>  (3929) 
MS1

>  <INSTRUMENT TYPE>  (3929) 
EI-B

>  <INSTRUMENT>  (3929) 
JEOL JMS-HX-100

>  <ION MODE>  (3929) 
P

>  <INCHIKEY>  (3929) 
AKAQOFZTVJADDM-UHFFFAOYSA-N

>  <FORMULA>  (3929) 
C17H24N2O

>  <EXACT MASS>  (3929) 
272.188863388

>  <MW>  (3929) 
272

>  <ID>  (3929) 
JP005148

>  <CONTRIBUTOR>  (3929) 
University of Tokyo Team, {Faculty of Engineering, University of Tokyo

>  <COMMENT>  (3929) 
SMILES=CC(C)Nc(c2)c(ccc2)NC(=C1)CC(C)(C)CC(=O)1
InChI=InChI=1S/C17H24N2O/c1-12(2)18-15-7-5-6-8-16(15)19-13-9-14(20)11-17(3,4)10-13/h5-9,12,18-19H,10-11H2,1-4H3
computed SMILES=O=C1C=C(NC=2C=CC=CC2NC(C)C)CC(C)(C)C1
accession=JP005148
date=2016.01.19 (Created 2008.10.21, modified 2011.05.06)
author=HAYASHI A, FAC. OF SCIENCE AND TECHNOLOGY, KINKI UNIV.
license=CC BY-NC-SA
exact mass=272.18886
ionization energy=70 eV
ion type=[M]+*
computed spectral entropy=3.8422852523098756
computed normalized entropy=0.8625922041466257
SPLASH=splash10-00si-5950000000-240fd57cd4b2a30d1259
submitter=submitter = University of Tokyo Team (Faculty of Engineering, University of Tokyo)
MoNA Rating=3.75

>  <NUM PEAKS>  (3929) 
86

>  <MASS SPECTRAL PEAKS>  (3929) 
39 23.28
40 3.41
41 32.87
42 9.09
43 21.79
44 4.03
51 5.91
52 4.83
53 9.68
55 23.93
56 5.16
57 7.51
58 5.53
65 22.99
66 5.64
67 11.79
68 4.57
69 12.26
71 3.11
77 18.16
78 6.23
79 8.06
80 9.04
81 6.12
83 61.89
84 4.92
90 3.38
91 10.35
92 22.33
93 16.96
94 3.01
97 4.1
100 4.81
103 3.65
104 5.5
105 3.74
106 3.31
107 7.69
108 3.81
109 3.43
117 7.25
118 9.21
119 39.02
120 4.76
129 3.9
130 9.69
131 18.16
132 97.17
133 99.99
134 11.38
135 3.93
143 4.01
144 6.2
145 27.73
146 8.24
147 4.68
149 21
157 5.15
158 5.93
159 32.19
160 7.33
169 3.24
171 4.93
172 4.6
173 41.01
174 88.47
175 19.74
183 3.09
185 3.45
187 4.07
199 9.36
200 4.48
201 18.1
213 3.23
214 3.58
215 90.9
216 47.63
217 6.85
229 9.64
255 3.09
257 60.43
258 12.54
271 3.3
272 80.95
273 17.86
274 2.9

>  <PREDICTED SPECTRUM>  (3929) 
27 54
28 12
29 88
33 21
34 9
37 9
38 67
39 451
40 205
41 645
42 499
43 511
44 145
50 110
51 280
52 271
53 312
54 215
55 434
56 212
57 295
58 183
62 21
63 165
64 194
65 470
66 259
67 308
68 229
69 286
70 73
71 77
75 53
76 86
77 438
78 277
79 324
80 211
81 233
82 183
83 542
84 247
85 45
89 93
90 138
91 487
92 407
93 426
94 206
95 149
96 143
97 86
98 32
99 29
100 11
102 30
103 123
104 266
105 328
106 405
107 414
108 303
109 154
110 110
116 28
117 268
118 481
119 551
120 245
121 109
123 74
124 60
129 127
130 244
131 489
132 999
133 979
134 362
135 78
141 13
143 268
144 255
145 434
146 305
147 303
148 96
149 197
156 63
157 264
158 335
159 488
160 353
161 136
162 7
169 140
170 168
171 310
172 300
173 772
174 714
175 444
176 98
183 72
184 121
185 167
186 56
187 195
188 7
189 39
197 30
198 102
199 298
200 192
201 331
202 56
213 116
214 217
215 937
216 640
217 217
229 364
230 53
240 44
241 16
243 88
244 66
255 162
257 874
258 415
259 96
271 198
272 980
273 425
274 130

$$$$

     RDKit          2D

 17 18  0  0  0  0  0  0  0  0999 V2000
    8.6000    2.5981    0.0000 C   0  0  0  0  0  0  0  0  0  0  0  0
    5.1105    2.7762    0.0000 C   0  0  0  0  0  0  0  0  0  0  0  0
    3.4405    1.8121    0.0000 C   0  0  0  0  0  0  0  0  0  0  0  0
   -2.3100   -0.7500    0.0000 C   0  0  0  0  0  0  0  0  0  0  0  0
   -2.3100    0.7500    0.0000 C   0  0  0  0  0  0  0  0  0  0  0  0
   -1.0100   -1.5000    0.0000 C   0  0  0  0  0  0  0  0  0  0  0  0
   -1.0100    1.5000    0.0000 C   0  0  0  0  0  0  0  0  0  0  0  0
    6.3500    1.2990    0.0000 C   0  0  0  0  0  0  0  0  0  0  0  0
    4.1000   -0.0000    0.0000 C   0  0  0  0  0  0  0  0  0  0  0  0
    7.1000    2.5981    0.0000 C   0  0  0  0  0  0  0  0  0  0  0  0
    0.2900   -0.7500    0.0000 C   0  0  0  0  0  0  0  0  0  0  0  0
    0.2900    0.7500    0.0000 C   0  0  0  0  0  0  0  0  0  0  0  0
    2.6000    0.0000    0.0000 C   0  0  0  0  0  0  0  0  0  0  0  0
    4.8500    1.2990    0.0000 C   0  0  0  0  0  0  0  0  0  0  0  0
    1.7200   -1.2100    0.0000 N   0  0  0  0  0  0  0  0  0  0  0  0
    6.3500    3.8971    0.0000 O   0  0  0  0  0  0  0  0  0  0  0  0
    1.7200    1.2100    0.0000 S   0  0  0  0  0  0  0  0  0  0  0  0
  5  4  2  0
  6  4  1  0
  7  5  1  0
 10  1  1  0
 10  8  1  0
 11  6  2  0
 12  7  2  0
 12 11  1  0
 13  9  1  0
 14  2  1  0
 14  3  1  0
 14  8  1  0
 14  9  1  0
 15 11  1  0
 15 13  2  0
 16 10  2  0
 17 12  1  0
 17 13  1  0
M  END
>  <NAME>  (3930) 
2-(2,2-DIMETHYL-4-OXOPENTYL)BENZOTHIAZOLE

>  <SYNONYMS>  (3930) 


>  <SPECTRUM TYPE>  (3930) 
MS1

>  <INSTRUMENT TYPE>  (3930) 
EI-B

>  <INSTRUMENT>  (3930) 
JEOL JMS-HX-100

>  <ION MODE>  (3930) 
P

>  <INCHIKEY>  (3930) 
URIOICYHTUHHPI-UHFFFAOYSA-N

>  <FORMULA>  (3930) 
C14H17NOS

>  <EXACT MASS>  (3930) 
247.103085164

>  <MW>  (3930) 
247

>  <ID>  (3930) 
JP005147

>  <CONTRIBUTOR>  (3930) 
University of Tokyo Team, {Faculty of Engineering, University of Tokyo

>  <COMMENT>  (3930) 
SMILES=CC(=O)CC(C)(C)Cc(n1)sc(c2)c(ccc2)1
InChI=InChI=1S/C14H17NOS/c1-10(16)8-14(2,3)9-13-15-11-6-4-5-7-12(11)17-13/h4-7H,8-9H2,1-3H3
computed SMILES=O=C(C)CC(C)(C)CC1=NC=2C=CC=CC2S1
accession=JP005147
date=2016.01.19 (Created 2008.10.21, modified 2011.05.06)
author=HAYASHI A, FAC. OF SCIENCE AND TECHNOLOGY, KINKI UNIV.
license=CC BY-NC-SA
exact mass=247.10308
ionization energy=70 eV
ion type=[M]+*
computed spectral entropy=2.9024933902527947
computed normalized entropy=0.7419417999908043
SPLASH=splash10-0006-4910000000-43cab3ffd3f15477acc1
submitter=submitter = University of Tokyo Team (Faculty of Engineering, University of Tokyo)
MoNA Rating=3.75

>  <NUM PEAKS>  (3930) 
50

>  <MASS SPECTRAL PEAKS>  (3930) 
39 5.84
40 3.15
41 6.78
42 1.22
43 70.14
44 3.86
45 9.26
51 1.79
53 1.6
55 4.74
56 1.54
57 3.53
58 2.52
61 1.41
63 3
65 3.36
69 6.92
71 1.51
77 3.13
81 1.27
82 2.41
83 3.73
85 1.07
97 1.16
104 3.32
108 8.04
109 4.83
116 1.06
117 1.11
121 2.39
136 1.78
148 9.54
149 66.56
150 8.58
151 3.89
162 1.49
173 2.37
174 5.69
175 1.99
177 1.3
188 2.35
189 14.49
190 99.99
191 16.54
192 6.51
232 7.93
233 1.34
247 19.21
248 3.44
249 1.26

>  <PREDICTED SPECTRUM>  (3930) 
27 5
28 12
29 17
33 4
37 3
38 42
39 161
40 79
41 186
42 79
43 472
44 31
45 101
47 20
49 3
50 52
51 89
52 53
53 116
54 63
55 176
56 45
57 111
58 96
59 15
63 99
64 31
65 104
66 21
67 79
68 4
69 256
70 72
71 134
72 4
74 25
75 27
76 35
77 70
78 49
79 43
80 22
81 96
82 103
83 69
84 52
85 40
86 52
87 49
88 2
89 0
90 48
91 78
93 10
96 65
97 63
98 111
99 41
103 3
104 36
105 46
107 75
108 273
109 181
110 48
111 1
112 8
116 10
118 5
119 3
121 41
122 31
132 2
133 50
134 36
135 11
136 23
147 26
148 280
149 712
150 284
151 134
163 21
164 15
166 10
176 31
177 97
188 13
189 293
190 999
191 425
192 270
193 46
204 41
232 186
233 67
234 5
247 357
248 157
249 93
250 36

$$$$

     RDKit          2D

 27 30  0  0  0  0  0  0  0  0999 V2000
    2.8940   -3.4374    0.0000 C   0  0  0  0  0  0  0  0  0  0  0  0
    0.5512   -4.5605    0.0000 C   0  0  0  0  0  0  0  0  0  0  0  0
   -4.0636    2.7287    0.0000 C   0  0  0  0  0  0  0  0  0  0  0  0
   -5.3779    1.3195    0.0000 C   0  0  0  0  0  0  0  0  0  0  0  0
   -2.6951   -6.0279    0.0000 C   0  0  0  0  0  0  0  0  0  0  0  0
   -1.1987   -5.9135    0.0000 C   0  0  0  0  0  0  0  0  0  0  0  0
   -3.5432   -4.7896    0.0000 C   0  0  0  0  0  0  0  0  0  0  0  0
    3.8800    1.2400    0.0000 C   0  0  0  0  0  0  0  0  0  0  0  0
    4.2200   -0.2200    0.0000 C   0  0  0  0  0  0  0  0  0  0  0  0
   -0.5503   -4.5609    0.0000 C   0  0  0  0  0  0  0  0  0  0  0  0
   -2.8948   -3.4370    0.0000 C   0  0  0  0  0  0  0  0  0  0  0  0
    2.4500    1.6800    0.0000 C   0  0  0  0  0  0  0  0  0  0  0  0
    3.1200   -1.2400    0.0000 C   0  0  0  0  0  0  0  0  0  0  0  0
   -2.4500    1.6800    0.0000 C   0  0  0  0  0  0  0  0  0  0  0  0
   -4.2200   -0.2200    0.0000 C   0  0  0  0  0  0  0  0  0  0  0  0
    1.3984   -3.3226    0.0000 C   0  0  0  0  0  0  0  0  0  0  0  0
   -1.3984   -3.3226    0.0000 C   0  0  0  0  0  0  0  0  0  0  0  0
    1.3500    0.6600    0.0000 C   0  0  0  0  0  0  0  0  0  0  0  0
   -1.3500    0.6600    0.0000 C   0  0  0  0  0  0  0  0  0  0  0  0
    1.6900   -0.8000    0.0000 C   0  0  0  0  0  0  0  0  0  0  0  0
   -3.1200   -1.2400    0.0000 C   0  0  0  0  0  0  0  0  0  0  0  0
   -1.6900   -0.8000    0.0000 C   0  0  0  0  0  0  0  0  0  0  0  0
   -0.7500   -1.9700    0.0000 C   0  0  0  0  0  0  0  0  0  0  0  0
   -3.8800    1.2400    0.0000 C   0  0  0  0  0  0  0  0  0  0  0  0
    0.0000    1.3100    0.0000 N   0  0  0  0  0  0  0  0  0  0  0  0
    0.7500   -1.9700    0.0000 N   0  0  0  0  0  0  0  0  0  0  0  0
   -3.4541   -2.7023    0.0000 O   0  0  0  0  0  0  0  0  0  0  0  0
  6  5  2  0
  7  5  1  0
  9  8  2  0
 10  6  1  0
 11  7  2  0
 12  8  1  0
 13  9  1  0
 16  1  1  0
 16  2  1  0
 17 10  2  0
 17 11  1  0
 18 12  2  0
 19 14  1  0
 20 13  2  0
 20 18  1  0
 21 15  1  0
 22 19  2  0
 22 21  1  0
 23 17  1  0
 23 22  1  0
 24  3  1  0
 24  4  1  0
 24 14  1  0
 24 15  1  0
 25 18  1  0
 25 19  1  0
 26 16  1  0
 26 20  1  0
 26 23  1  0
 27 21  2  0
M  END
>  <NAME>  (3931) 
10-ISOPROPYL-3,3-DIMETHYL-11-PHENYL-2,3,4,5,10,11-HEXAHYDRO-1H-DIBENZO(B,E)(1,4)-DIAZEPIN-1-ONE

>  <SYNONYMS>  (3931) 


>  <SPECTRUM TYPE>  (3931) 
MS1

>  <INSTRUMENT TYPE>  (3931) 
EI-B

>  <INSTRUMENT>  (3931) 
JEOL JMS-HX-100

>  <ION MODE>  (3931) 
P

>  <INCHIKEY>  (3931) 
SEVRCRYZZRHOEP-UHFFFAOYSA-N

>  <FORMULA>  (3931) 
C24H28N2O

>  <EXACT MASS>  (3931) 
360.22016351599996

>  <MW>  (3931) 
360

>  <ID>  (3931) 
JP005146

>  <CONTRIBUTOR>  (3931) 
University of Tokyo Team, {Faculty of Engineering, University of Tokyo

>  <COMMENT>  (3931) 
SMILES=c(c4)ccc(c4)C(N(C(C)C)1)C(C(=O)3)=C(CC(C)(C)C3)Nc(c2)c(ccc2)1
InChI=InChI=1S/C24H28N2O/c1-16(2)26-20-13-9-8-12-18(20)25-19-14-24(3,4)15-21(27)22(19)23(26)17-10-6-5-7-11-17/h5-13,16,23,25H,14-15H2,1-4H3
computed SMILES=O=C1C2=C(NC=3C=CC=CC3N(C2C=4C=CC=CC4)C(C)C)CC(C)(C)C1
accession=JP005146
date=2016.01.19 (Created 2008.10.21, modified 2011.05.06)
author=HAYASHI A, FAC. OF SCIENCE AND TECHNOLOGY, KINKI UNIV.
license=CC BY-NC-SA
exact mass=360.22016
ionization energy=70 eV
ion type=[M]+*
computed spectral entropy=4.115715537993605
computed normalized entropy=0.8755946664399628
SPLASH=splash10-0w29-3459000000-1c43a50e0b9ad8d0f243
submitter=submitter = University of Tokyo Team (Faculty of Engineering, University of Tokyo)
MoNA Rating=3.75

>  <NUM PEAKS>  (3931) 
110

>  <MASS SPECTRAL PEAKS>  (3931) 
39 5.61
40 2.26
41 12.92
42 3.46
43 13.35
44 2.47
51 3.98
53 2.41
55 9.11
65 7.99
76 2.48
77 13.15
78 3.63
83 16.44
89 3.07
90 2.7
91 13.37
92 8.47
93 3.18
102 5.61
103 4.43
104 3.44
105 2.41
115 7.55
116 4.62
117 3.87
118 3.51
119 10.24
127 4.79
128 7.39
129 9.16
130 6.64
131 6.53
132 8.42
133 14.39
134 2.11
141 2.63
142 3.33
143 4.64
144 2.88
145 2.39
152 2.61
155 3.48
156 2.45
157 3.72
158 12.05
159 6.41
165 3.42
167 2.23
168 2.19
169 3.34
172 2.6
173 3.16
180 2.25
181 2.45
182 2.17
183 3.34
184 2.65
185 5.32
194 2.18
195 4.17
197 2.29
199 2.18
204 2.14
206 2.01
215 6.26
216 2.24
217 3.89
218 5.9
219 9.89
220 4.96
226 16.97
227 4.88
231 6.16
232 6.1
233 6.5
234 2.62
239 6.11
241 15.49
242 3.41
245 5.57
246 10.17
247 2.86
259 2.62
261 17.81
262 4.12
267 4.66
269 3.29
273 2.12
275 4.53
276 7.43
283 31.22
284 7.37
287 2.36
289 4.94
301 3.02
302 99.99
303 37.11
304 9.37
315 5.45
317 58.89
318 15.66
319 2.09
330 4.48
345 32.95
346 9.23
359 11.22
360 63.79
361 18.72
362 2.86

>  <PREDICTED SPECTRUM>  (3931) 
39 97
40 37
41 221
42 143
43 308
44 50
47 5
50 15
51 178
52 92
53 60
54 71
55 140
56 143
57 147
58 137
59 52
63 81
64 13
65 164
66 43
67 65
68 47
69 30
70 43
71 51
74 39
75 56
76 46
77 411
78 176
79 89
80 46
81 83
82 13
83 210
84 175
85 27
88 21
89 143
90 166
91 428
92 107
93 67
94 14
95 56
96 44
97 96
98 4
99 48
100 14
101 84
102 277
103 288
104 280
105 101
106 53
107 24
109 25
110 62
111 18
113 24
114 34
115 213
116 231
117 169
118 198
119 148
120 105
121 15
122 18
123 76
127 116
128 225
129 296
130 378
131 311
132 268
133 122
134 94
135 57
137 32
139 45
140 50
141 118
142 120
143 372
144 263
145 132
146 48
147 46
151 21
152 29
153 14
154 52
155 147
156 110
157 210
158 182
159 109
160 72
163 20
165 64
166 51
167 115
168 83
169 86
170 49
171 107
172 89
173 133
178 50
179 79
180 92
181 88
182 70
183 92
184 119
185 177
186 59
187 80
188 4
189 20
191 22
192 21
193 36
194 52
195 158
196 75
197 120
198 143
199 147
200 68
201 67
202 44
203 72
204 190
205 69
206 98
207 64
210 11
211 38
212 31
213 75
214 59
215 170
216 168
217 287
218 224
219 226
220 183
221 73
223 24
224 74
225 90
226 137
227 136
228 1
229 63
230 59
231 135
232 132
233 209
234 206
235 75
239 150
240 25
241 293
242 123
243 120
244 98
245 143
246 137
247 187
248 106
252 36
255 37
256 7
258 64
259 127
260 112
261 230
262 120
263 52
267 81
268 63
269 162
270 26
272 76
273 122
274 174
275 230
276 183
277 84
283 506
284 173
285 141
286 73
287 103
288 77
289 107
290 40
300 54
301 89
302 999
303 559
304 251
305 30
315 92
316 18
317 703
318 303
319 91
327 30
329 64
330 51
343 28
345 574
346 286
347 26
359 229
360 680
361 325
362 111
363 1

$$$$

     RDKit          2D

 25 27  0  0  0  0  0  0  0  0999 V2000
   -5.0798    0.8915    0.0000 C   0  0  0  0  0  0  0  0  0  0  0  0
   -7.0083    0.8918    0.0000 C   0  0  0  0  0  0  0  0  0  0  0  0
    4.3523   -3.2696    0.0000 C   0  0  0  0  0  0  0  0  0  0  0  0
    3.0538   -2.5170    0.0000 C   0  0  0  0  0  0  0  0  0  0  0  0
    4.3507   -4.7704    0.0000 C   0  0  0  0  0  0  0  0  0  0  0  0
   -3.4494   -7.7588    0.0000 C   0  0  0  0  0  0  0  0  0  0  0  0
   -4.7382   -7.0068    0.0000 C   0  0  0  0  0  0  0  0  0  0  0  0
    1.7537   -3.2652    0.0000 C   0  0  0  0  0  0  0  0  0  0  0  0
    3.0507   -5.5186    0.0000 C   0  0  0  0  0  0  0  0  0  0  0  0
   -2.1482   -7.0108    0.0000 C   0  0  0  0  0  0  0  0  0  0  0  0
   -4.7359   -5.5068    0.0000 C   0  0  0  0  0  0  0  0  0  0  0  0
   -6.0432   -3.2590    0.0000 C   0  0  0  0  0  0  0  0  0  0  0  0
   -7.3432   -1.0073    0.0000 C   0  0  0  0  0  0  0  0  0  0  0  0
   -4.7447   -1.0082    0.0000 C   0  0  0  0  0  0  0  0  0  0  0  0
    1.7522   -4.7660    0.0000 C   0  0  0  0  0  0  0  0  0  0  0  0
   -7.3428   -2.5082    0.0000 C   0  0  0  0  0  0  0  0  0  0  0  0
   -4.7442   -2.5090    0.0000 C   0  0  0  0  0  0  0  0  0  0  0  0
   -2.1459   -5.5108    0.0000 C   0  0  0  0  0  0  0  0  0  0  0  0
   -3.4448   -4.7588    0.0000 C   0  0  0  0  0  0  0  0  0  0  0  0
    0.4521   -5.5143    0.0000 C   0  0  0  0  0  0  0  0  0  0  0  0
   -6.0442   -0.2573    0.0000 C   0  0  0  0  0  0  0  0  0  0  0  0
   -0.8459   -4.7625    0.0000 N   0  0  0  0  0  0  0  0  0  0  0  0
   -8.6418   -3.2582    0.0000 O   0  0  0  0  0  0  0  0  0  0  0  0
    0.4501   -7.0143    0.0000 O   0  0  0  0  0  0  0  0  0  0  0  0
   -3.4451   -3.2588    0.0000 S   0  0  0  0  0  0  0  0  0  0  0  0
  4  3  2  0
  5  3  1  0
  7  6  2  0
  8  4  1  0
  9  5  2  0
 10  6  1  0
 11  7  1  0
 15  8  2  0
 15  9  1  0
 16 12  1  0
 16 13  1  0
 17 12  1  0
 17 14  1  0
 18 10  2  0
 19 11  2  0
 19 18  1  0
 20 15  1  0
 21  1  1  0
 21  2  1  0
 21 13  1  0
 21 14  1  0
 22 18  1  0
 22 20  2  3
 23 16  2  0
 24 20  1  0
 25 17  1  0
 25 19  1  0
M  END
>  <NAME>  (3932) 
3-(2-BENZOYLAMINOPHENYLTHIO)-5,5-DIMETHYL-1-CYCLOHEXANONE

>  <SYNONYMS>  (3932) 


>  <SPECTRUM TYPE>  (3932) 
MS1

>  <INSTRUMENT TYPE>  (3932) 
EI-B

>  <INSTRUMENT>  (3932) 
JEOL JMS-HX-100

>  <ION MODE>  (3932) 
P

>  <INCHIKEY>  (3932) 
LDVNHMXTVMRLBL-UHFFFAOYSA-N

>  <FORMULA>  (3932) 
C21H23NO2S

>  <EXACT MASS>  (3932) 
353.144949976

>  <MW>  (3932) 
353

>  <ID>  (3932) 
JP005145

>  <CONTRIBUTOR>  (3932) 
University of Tokyo Team, {Faculty of Engineering, University of Tokyo

>  <COMMENT>  (3932) 
SMILES=c(c3)ccc(c3)C(=O)Nc(c2)c(ccc2)SC(C1)CC(C)(C)CC(=O)1
InChI=InChI=1S/C21H23NO2S/c1-21(2)13-16(23)12-17(14-21)25-19-11-7-6-10-18(19)22-20(24)15-8-4-3-5-9-15/h3-11,17H,12-14H2,1-2H3,(H,22,24)
computed SMILES=O=C1CC(SC=2C=CC=CC2N=C(O)C=3C=CC=CC3)CC(C)(C)C1
accession=JP005145
date=2016.01.19 (Created 2008.10.21, modified 2011.05.06)
author=HAYASHI A, FAC. OF SCIENCE AND TECHNOLOGY, KINKI UNIV.
license=CC BY-NC-SA
exact mass=353.14495
ionization energy=70 eV
ion type=[M]+*
computed spectral entropy=3.022421109451415
computed normalized entropy=0.7114097903504961
SPLASH=splash10-0a6r-9730000000-2c07d086703344cf3820
submitter=submitter = University of Tokyo Team (Faculty of Engineering, University of Tokyo)
MoNA Rating=3.75

>  <NUM PEAKS>  (3932) 
70

>  <MASS SPECTRAL PEAKS>  (3932) 
39 3.31
40 0.99
41 16.12
42 1.14
43 4.84
44 1.88
45 0.6
50 0.74
51 4.02
52 0.64
53 1.66
54 0.51
55 25.03
56 2.49
57 3.42
60 0.84
63 0.52
65 1.22
67 1.92
68 4.97
69 19.74
70 1.23
71 1.67
73 0.87
76 0.94
77 30.49
78 2.56
79 1.18
80 1.24
81 2.79
82 0.8
83 10.2
84 1.12
85 0.89
91 0.73
93 0.79
95 1.31
96 0.78
97 1.89
99 1.31
104 0.5
105 99.99
106 8.88
107 1.07
108 0.5
109 1.06
111 0.58
123 0.71
124 1.37
125 7.02
126 0.78
149 1.93
150 3.71
151 0.45
167 0.88
196 7.75
197 1.45
198 0.45
211 2.65
212 1.01
228 0.96
229 40.11
230 7.86
231 2.63
232 0.44
248 2.86
249 0.53
353 4.97
354 1.43
355 0.44

>  <PREDICTED SPECTRUM>  (3932) 
27 37
28 74
29 81
30 44
33 3
38 10
39 342
40 141
41 581
42 217
43 414
44 78
45 320
47 87
50 154
51 521
52 233
53 381
54 130
55 443
56 229
57 319
58 43
60 26
63 203
64 104
65 461
66 243
67 343
68 82
69 367
70 147
71 117
72 33
73 55
74 61
75 40
76 101
77 999
78 270
79 68
80 112
81 276
82 141
83 126
84 189
85 162
86 153
89 47
90 35
91 279
92 236
93 223
94 37
95 69
96 6
97 90
98 40
100 19
101 57
102 101
103 207
104 263
105 299
106 71
108 142
109 376
110 267
111 82
112 32
113 52
115 298
116 137
117 194
118 159
119 99
120 10
121 56
122 133
123 159
124 124
125 127
126 135
127 103
128 305
129 245
130 201
131 88
132 68
135 20
136 29
137 39
138 32
139 92
140 299
141 137
142 92
143 60
144 101
145 63
146 144
147 115
148 105
149 52
150 109
151 186
152 224
153 123
154 149
155 44
156 240
157 154
158 180
159 99
160 64
161 16
162 99
164 188
166 67
170 61
171 204
172 132
173 72
174 99
176 24
178 34
180 36
182 72
184 219
185 93
186 141
192 122
197 69
198 225
199 109
200 221
201 240
202 526
203 59
210 57
211 78
212 298
213 199
214 269
215 186
216 63
225 18
226 224
227 283
228 300
229 603
230 654
231 305
232 131
237 57
242 263
243 375
244 249
245 234
246 44
247 22
248 102
249 115
261 177
262 118
263 68
264 148
265 18
306 57
335 72
336 4
353 458
354 210
355 44

$$$$

     RDKit          2D

 24 25  0  0  0  0  0  0  0  0999 V2000
    6.4894    1.9537    0.0000 C   0  0  0  0  0  0  0  0  0  0  0  0
    3.8912    4.9544    0.0000 C   0  0  0  0  0  0  0  0  0  0  0  0
   -1.3048   -4.0463    0.0000 C   0  0  0  0  0  0  0  0  0  0  0  0
   -4.9505    1.8947    0.0000 C   0  0  0  0  0  0  0  0  0  0  0  0
   -4.4376    0.4842    0.0000 C   0  0  0  0  0  0  0  0  0  0  0  0
   -3.9861    3.0447    0.0000 C   0  0  0  0  0  0  0  0  0  0  0  0
   -2.9604    0.2237    0.0000 C   0  0  0  0  0  0  0  0  0  0  0  0
   -2.5089    2.7842    0.0000 C   0  0  0  0  0  0  0  0  0  0  0  0
    2.5928   -0.2971    0.0000 C   0  0  0  0  0  0  0  0  0  0  0  0
    3.8918    0.4529    0.0000 C   0  0  0  0  0  0  0  0  0  0  0  0
    1.2928    1.9546    0.0000 C   0  0  0  0  0  0  0  0  0  0  0  0
   -0.5188    1.1133    0.0000 C   0  0  0  0  0  0  0  0  0  0  0  0
   -1.4830   -0.5567    0.0000 C   0  0  0  0  0  0  0  0  0  0  0  0
   -1.9960    1.3737    0.0000 C   0  0  0  0  0  0  0  0  0  0  0  0
    1.2932    0.4537    0.0000 C   0  0  0  0  0  0  0  0  0  0  0  0
    3.8913    1.9537    0.0000 C   0  0  0  0  0  0  0  0  0  0  0  0
    2.5918    2.7046    0.0000 C   0  0  0  0  0  0  0  0  0  0  0  0
   -0.0058   -1.7963    0.0000 C   0  0  0  0  0  0  0  0  0  0  0  0
   -0.0058   -0.2963    0.0000 C   0  0  0  0  0  0  0  0  0  0  0  0
   -2.9602   -0.8172    0.0000 N   0  0  0  0  0  0  0  0  0  0  0  0
    1.2932   -2.5463    0.0000 O   0  0  0  0  0  0  0  0  0  0  0  0
    5.1904    2.7037    0.0000 O   0  0  0  0  0  0  0  0  0  0  0  0
    2.5920    4.2046    0.0000 O   0  0  0  0  0  0  0  0  0  0  0  0
   -1.3048   -2.5463    0.0000 O   0  0  0  0  0  0  0  0  0  0  0  0
  5  4  2  0
  6  4  1  0
  7  5  1  0
  8  6  2  0
 10  9  2  0
 14  7  2  0
 14  8  1  0
 14 12  1  0
 15  9  1  0
 15 11  2  0
 16 10  1  0
 17 11  1  0
 17 16  2  0
 19 12  1  0
 19 13  1  0
 19 15  1  0
 19 18  1  0
 20 13  3  0
 21 18  2  0
 22  1  1  0
 22 16  1  0
 23  2  1  0
 23 17  1  0
 24  3  1  0
 24 18  1  0
M  END
>  <NAME>  (3933) 
METHYL 2-CYANO-2-(3,4-DIMETHOXYPHENYL)-3-PHENYLPROPIONATE

>  <SYNONYMS>  (3933) 


>  <SPECTRUM TYPE>  (3933) 
MS1

>  <INSTRUMENT TYPE>  (3933) 
EI-B

>  <INSTRUMENT>  (3933) 
JEOL JMS-HX-100

>  <ION MODE>  (3933) 
P

>  <INCHIKEY>  (3933) 
CLPZAUNVVJMFAY-UHFFFAOYSA-N

>  <FORMULA>  (3933) 
C19H19NO4

>  <EXACT MASS>  (3933) 
325.131408088

>  <MW>  (3933) 
325

>  <ID>  (3933) 
JP005143

>  <CONTRIBUTOR>  (3933) 
University of Tokyo Team, {Faculty of Engineering, University of Tokyo

>  <COMMENT>  (3933) 
SMILES=COc(c2)c(OC)cc(c2)C(C#N)(Cc(c1)cccc1)C(=O)OC
InChI=InChI=1S/C19H19NO4/c1-22-16-10-9-15(11-17(16)23-2)19(13-20,18(21)24-3)12-14-7-5-4-6-8-14/h4-11H,12H2,1-3H3
computed SMILES=N#CC(C(=O)OC)(C1=CC=C(OC)C(OC)=C1)CC=2C=CC=CC2
license=CC BY-NC-SA
accession=JP005143
date=2016.01.19 (Created 2008.10.21, modified 2011.05.06)
author=HAYASHI A, FAC. OF SCIENCE AND TECHNOLOGY, KINKI UNIV.
exact mass=325.13141
ionization energy=70 eV
ion type=[M]+*
computed spectral entropy=2.538511429252604
computed normalized entropy=0.6127030851983718
SPLASH=splash10-001i-3192000000-de82880ff81259e3874e
submitter=submitter = University of Tokyo Team (Faculty of Engineering, University of Tokyo)
MoNA Rating=3.75

>  <NUM PEAKS>  (3933) 
63

>  <MASS SPECTRAL PEAKS>  (3933) 
39 0.78
45 1.09
50 0.6
51 1.31
59 0.71
63 1.04
65 2.71
75 0.65
76 0.72
77 1.36
79 0.58
89 1.06
90 0.74
91 36.28
92 3.11
101 0.52
102 0.77
103 0.69
115 0.65
117 1.08
119 0.56
127 0.6
128 0.51
130 0.61
146 0.56
151 0.61
152 1.48
153 1.53
160 1.24
165 1.74
166 0.54
174 0.94
175 1.37
176 2.15
177 1.09
178 0.97
179 0.45
180 0.43
181 0.73
188 3.74
189 0.89
190 1.62
191 2.09
203 5.69
204 1.59
206 1.07
208 0.73
218 0.57
219 1.04
220 0.49
224 0.48
234 99.99
235 14.93
236 1.97
239 0.75
250 0.89
251 0.9
265 0.43
266 4.47
267 1.2
325 33.75
326 7.08
327 1.04

>  <PREDICTED SPECTRUM>  (3933) 
39 29
40 6
41 59
43 3
44 10
50 43
51 94
52 40
53 11
55 20
57 1
59 119
62 4
63 62
64 34
65 118
66 24
69 48
75 22
76 68
77 152
78 86
79 67
83 29
89 34
90 22
91 277
92 53
95 18
97 1
102 32
103 78
104 61
105 51
106 9
107 2
114 14
115 64
116 12
118 26
119 14
120 25
121 23
128 46
129 9
131 24
132 15
133 11
139 33
144 18
146 1
148 4
149 6
151 19
152 98
153 78
154 36
160 0
164 28
165 90
166 54
174 68
175 34
176 64
177 16
178 62
179 25
180 22
183 14
189 36
190 64
191 78
192 25
202 18
203 32
204 44
206 111
218 43
219 24
220 52
234 999
235 284
236 95
250 74
251 89
266 161
267 74
325 432
326 154
327 24

$$$$

     RDKit          2D

 26 27  0  0  0  0  0  0  0  0999 V2000
    6.6376    1.8427    0.0000 C   0  0  0  0  0  0  0  0  0  0  0  0
    4.0394    4.8433    0.0000 C   0  0  0  0  0  0  0  0  0  0  0  0
   -1.1567   -4.1573    0.0000 C   0  0  0  0  0  0  0  0  0  0  0  0
   -3.3251   -2.3378    0.0000 C   0  0  0  0  0  0  0  0  0  0  0  0
   -5.2750    1.8670    0.0000 C   0  0  0  0  0  0  0  0  0  0  0  0
   -4.7621    0.4565    0.0000 C   0  0  0  0  0  0  0  0  0  0  0  0
   -4.3107    3.0170    0.0000 C   0  0  0  0  0  0  0  0  0  0  0  0
   -3.2849    0.1960    0.0000 C   0  0  0  0  0  0  0  0  0  0  0  0
   -2.8334    2.7565    0.0000 C   0  0  0  0  0  0  0  0  0  0  0  0
    2.7409   -0.4082    0.0000 C   0  0  0  0  0  0  0  0  0  0  0  0
    4.0400    0.3418    0.0000 C   0  0  0  0  0  0  0  0  0  0  0  0
    1.4409    1.8435    0.0000 C   0  0  0  0  0  0  0  0  0  0  0  0
   -0.3707    1.0022    0.0000 C   0  0  0  0  0  0  0  0  0  0  0  0
   -2.3206    1.3460    0.0000 C   0  0  0  0  0  0  0  0  0  0  0  0
    1.4414    0.3427    0.0000 C   0  0  0  0  0  0  0  0  0  0  0  0
    4.0395    1.8427    0.0000 C   0  0  0  0  0  0  0  0  0  0  0  0
    2.7400    2.5935    0.0000 C   0  0  0  0  0  0  0  0  0  0  0  0
    0.1424   -1.9073    0.0000 C   0  0  0  0  0  0  0  0  0  0  0  0
   -1.3348   -0.6678    0.0000 C   0  0  0  0  0  0  0  0  0  0  0  0
    0.1424   -0.4073    0.0000 C   0  0  0  0  0  0  0  0  0  0  0  0
    1.4414   -2.6573    0.0000 O   0  0  0  0  0  0  0  0  0  0  0  0
   -2.2990    0.4813    0.0000 O   0  0  0  0  0  0  0  0  0  0  0  0
    5.3385    2.5927    0.0000 O   0  0  0  0  0  0  0  0  0  0  0  0
    2.7402    4.0935    0.0000 O   0  0  0  0  0  0  0  0  0  0  0  0
   -1.1567   -2.6573    0.0000 O   0  0  0  0  0  0  0  0  0  0  0  0
   -1.8479   -2.0773    0.0000 O   0  0  0  0  0  0  0  0  0  0  0  0
  6  5  2  0
  7  5  1  0
  8  6  1  0
  9  7  2  0
 11 10  2  0
 14  8  2  0
 14  9  1  0
 14 13  1  0
 15 10  1  0
 15 12  2  0
 16 11  1  0
 17 12  1  0
 17 16  2  0
 20 13  1  0
 20 15  1  0
 20 18  1  0
 20 19  1  0
 21 18  2  0
 22 19  2  0
 23  1  1  0
 23 16  1  0
 24  2  1  0
 24 17  1  0
 25  3  1  0
 25 18  1  0
 26  4  1  0
 26 19  1  0
M  END
>  <NAME>  (3934) 
DIMETHYL 2-BENZYL-2-(3,4-DIMETHOXYPHENYL)MALONATE

>  <SYNONYMS>  (3934) 


>  <SPECTRUM TYPE>  (3934) 
MS1

>  <INSTRUMENT TYPE>  (3934) 
EI-B

>  <INSTRUMENT>  (3934) 
JEOL JMS-HX-100

>  <ION MODE>  (3934) 
P

>  <INCHIKEY>  (3934) 
UHEVCYGHLILPDY-UHFFFAOYSA-N

>  <FORMULA>  (3934) 
C20H22O6

>  <EXACT MASS>  (3934) 
358.141638424

>  <MW>  (3934) 
358

>  <ID>  (3934) 
JP005142

>  <CONTRIBUTOR>  (3934) 
University of Tokyo Team, {Faculty of Engineering, University of Tokyo

>  <COMMENT>  (3934) 
SMILES=COc(c2)c(OC)cc(c2)C(Cc(c1)cccc1)(C(=O)OC)C(=O)OC
InChI=InChI=1S/C20H22O6/c1-23-16-11-10-15(12-17(16)24-2)20(18(21)25-3,19(22)26-4)13-14-8-6-5-7-9-14/h5-12H,13H2,1-4H3
computed SMILES=O=C(OC)C(C(=O)OC)(C1=CC=C(OC)C(OC)=C1)CC=2C=CC=CC2
accession=JP005142
date=2016.01.19 (Created 2008.10.21, modified 2011.05.06)
author=HAYASHI A, FAC. OF SCIENCE AND TECHNOLOGY, KINKI UNIV.
license=CC BY-NC-SA
exact mass=358.14164
ionization energy=70 eV
ion type=[M]+*
computed spectral entropy=3.10830805231308
computed normalized entropy=0.7073259794138572
SPLASH=splash10-014i-1292000000-ddaf8abb0b1506938f52
submitter=submitter = University of Tokyo Team (Faculty of Engineering, University of Tokyo)
MoNA Rating=3.75

>  <NUM PEAKS>  (3934) 
81

>  <MASS SPECTRAL PEAKS>  (3934) 
39 0.85
43 0.67
45 2.23
51 1.06
59 2.07
63 0.94
65 1.97
75 0.55
76 1.42
77 1.97
78 0.63
79 0.59
89 0.89
91 10.9
92 1.02
102 0.61
103 0.74
104 0.57
105 1.02
107 0.51
115 0.99
119 1.55
120 0.66
121 4.81
122 0.85
127 0.63
128 0.69
133 1.94
134 0.7
135 0.54
137 0.64
139 0.77
141 0.58
151 2.19
152 2.92
153 2.3
154 1
163 1.32
164 0.84
165 10.88
166 2.31
176 0.5
177 0.76
178 1.96
179 1.72
181 8.22
182 1.22
193 2.21
194 0.85
195 0.71
196 0.83
205 0.79
207 1.65
208 2.7
209 2
211 1.45
220 7.77
221 2.8
222 0.6
223 0.5
224 0.79
225 0.74
235 5.41
236 2.88
237 1.25
239 20.01
240 3.94
241 0.79
252 0.76
265 0.53
267 99.99
268 15.94
269 2.63
271 1.96
294 1.37
298 0.56
299 6.15
300 1.35
358 35.85
359 8.29
360 1.36

>  <PREDICTED SPECTRUM>  (3934) 
41 1
42 6
43 68
44 32
45 49
51 71
52 25
53 48
55 37
56 16
59 143
63 16
65 116
69 78
75 24
76 26
77 123
78 57
79 48
83 10
89 38
90 37
91 255
92 12
94 10
95 59
96 9
97 41
102 10
103 28
104 64
105 75
106 36
107 50
115 77
116 17
117 0
118 15
119 9
121 111
128 67
129 31
130 3
132 45
133 67
134 42
135 17
139 4
141 44
142 27
143 26
148 32
149 80
150 1
151 116
152 105
153 23
157 8
161 2
162 26
163 23
164 8
165 114
166 183
167 39
168 3
176 56
177 70
179 9
180 12
181 112
182 26
186 1
193 81
194 6
195 54
196 92
207 113
208 67
209 43
221 166
222 88
223 32
224 32
225 45
235 180
236 35
237 124
239 292
240 63
253 9
267 999
268 403
269 182
283 33
299 143
300 129
358 464
359 194
360 46

$$$$

     RDKit          2D

 17 17  0  0  0  0  0  0  0  0999 V2000
    4.5816   -0.0179    0.0000 C   0  0  0  0  0  0  0  0  0  0  0  0
    4.5821    1.4826    0.0000 C   0  0  0  0  0  0  0  0  0  0  0  0
   -5.8107    1.4821    0.0000 C   0  0  0  0  0  0  0  0  0  0  0  0
   -0.6150   -0.0187    0.0000 C   0  0  0  0  0  0  0  0  0  0  0  0
    0.6840   -0.7687    0.0000 C   0  0  0  0  0  0  0  0  0  0  0  0
    0.6850    2.2330    0.0000 C   0  0  0  0  0  0  0  0  0  0  0  0
   -1.9136    3.7321    0.0000 C   0  0  0  0  0  0  0  0  0  0  0  0
   -0.6145    1.4821    0.0000 C   0  0  0  0  0  0  0  0  0  0  0  0
   -1.9136    2.2321    0.0000 C   0  0  0  0  0  0  0  0  0  0  0  0
    1.9835   -0.0179    0.0000 C   0  0  0  0  0  0  0  0  0  0  0  0
    1.9840    1.4830    0.0000 C   0  0  0  0  0  0  0  0  0  0  0  0
   -3.2126    1.4821    0.0000 C   0  0  0  0  0  0  0  0  0  0  0  0
   -1.9136    5.2321    0.0000 N   0  0  0  0  0  0  0  0  0  0  0  0
   -3.2126   -0.0179    0.0000 O   0  0  0  0  0  0  0  0  0  0  0  0
    3.2826   -0.7679    0.0000 O   0  0  0  0  0  0  0  0  0  0  0  0
    3.2832    2.2328    0.0000 O   0  0  0  0  0  0  0  0  0  0  0  0
   -4.5117    2.2321    0.0000 O   0  0  0  0  0  0  0  0  0  0  0  0
  5  4  2  0
  8  4  1  0
  8  6  2  0
  9  7  1  0
  9  8  1  0
 10  5  1  0
 11  6  1  0
 11 10  2  0
 12  9  1  0
 13  7  3  0
 14 12  2  0
 15  1  1  0
 15 10  1  0
 16  2  1  0
 16 11  1  0
 17  3  1  0
 17 12  1  0
M  END
>  <NAME>  (3935) 
METHYL 2-(3,4-DIMETHOXYPHENYL)-2-CYANOACETATE

>  <SYNONYMS>  (3935) 


>  <SPECTRUM TYPE>  (3935) 
MS1

>  <INSTRUMENT TYPE>  (3935) 
EI-B

>  <INSTRUMENT>  (3935) 
JEOL JMS-HX-100

>  <ION MODE>  (3935) 
P

>  <INCHIKEY>  (3935) 
DUGGTIYZQSBNOY-UHFFFAOYSA-N

>  <FORMULA>  (3935) 
C12H13NO4

>  <EXACT MASS>  (3935) 
235.084457896

>  <MW>  (3935) 
235

>  <ID>  (3935) 
JP005141

>  <CONTRIBUTOR>  (3935) 
University of Tokyo Team, {Faculty of Engineering, University of Tokyo

>  <COMMENT>  (3935) 
SMILES=COC(=O)C(C#N)c(c1)cc(OC)c(OC)c1
InChI=InChI=1S/C12H13NO4/c1-15-10-5-4-8(6-11(10)16-2)9(7-13)12(14)17-3/h4-6,9H,1-3H3
computed SMILES=N#CC(C(=O)OC)C1=CC=C(OC)C(OC)=C1
accession=JP005141
date=2016.01.19 (Created 2008.10.21, modified 2011.05.06)
author=HAYASHI A, FAC. OF SCIENCE AND TECHNOLOGY, KINKI UNIV.
license=CC BY-NC-SA
exact mass=235.08446
ion type=[M]+*
ionization energy=70 eV
computed spectral entropy=2.2054505132385573
computed normalized entropy=0.5978646200485029
SPLASH=splash10-004i-1920000000-bfc970a2a813e9f7715e
submitter=submitter = University of Tokyo Team (Faculty of Engineering, University of Tokyo)
MoNA Rating=3.75

>  <NUM PEAKS>  (3935) 
40

>  <MASS SPECTRAL PEAKS>  (3935) 
39 1.36
50 0.98
51 1.29
52 0.5
59 3.94
62 0.82
63 3.37
64 1.75
75 1.22
76 2.02
77 1.24
78 1.21
79 0.59
88 0.84
89 1.02
90 3.24
92 0.66
102 1.4
103 2.44
104 1.12
105 1.04
106 1.04
107 0.64
115 2.4
116 0.87
117 0.87
130 3.8
131 5.1
132 3.55
133 2.35
146 0.74
148 0.76
160 1.72
161 0.63
176 99.99
177 13.37
178 1.41
235 34.76
236 5.06
237 0.74

>  <PREDICTED SPECTRUM>  (3935) 
14 4
15 86
16 13
17 15
18 23
26 34
27 94
28 58
29 83
30 3
31 30
32 13
33 3
37 1
38 52
39 117
40 46
41 40
42 0
43 56
44 74
45 50
49 8
50 98
51 158
52 79
53 55
54 26
55 94
57 20
59 122
61 7
62 63
63 142
64 93
65 100
66 65
67 25
69 63
70 28
71 9
74 58
75 65
76 143
77 173
78 95
79 101
87 1
88 45
89 115
90 84
91 40
92 55
93 19
94 38
101 13
102 96
103 104
104 114
105 127
106 46
107 37
108 29
109 9
115 119
116 53
117 80
118 105
119 57
121 38
127 0
128 44
129 79
130 146
131 114
132 168
133 189
134 64
137 32
144 80
145 125
146 179
148 109
149 120
150 66
151 28
158 2
159 46
160 141
161 145
174 58
175 14
176 999
177 382
178 110
192 27
235 526
236 203
237 40

$$$$

     RDKit          2D

 19 19  0  0  0  0  0  0  0  0999 V2000
    3.2826   -2.2679    0.0000 C   0  0  0  0  0  0  0  0  0  0  0  0
    4.5821    1.4826    0.0000 C   0  0  0  0  0  0  0  0  0  0  0  0
   -5.8107    1.4821    0.0000 C   0  0  0  0  0  0  0  0  0  0  0  0
   -3.2126    5.9821    0.0000 C   0  0  0  0  0  0  0  0  0  0  0  0
   -0.6150   -0.0187    0.0000 C   0  0  0  0  0  0  0  0  0  0  0  0
    0.6840   -0.7687    0.0000 C   0  0  0  0  0  0  0  0  0  0  0  0
    0.6850    2.2330    0.0000 C   0  0  0  0  0  0  0  0  0  0  0  0
   -0.6145    1.4821    0.0000 C   0  0  0  0  0  0  0  0  0  0  0  0
    1.9835   -0.0179    0.0000 C   0  0  0  0  0  0  0  0  0  0  0  0
    1.9840    1.4830    0.0000 C   0  0  0  0  0  0  0  0  0  0  0  0
   -1.9136    2.2321    0.0000 C   0  0  0  0  0  0  0  0  0  0  0  0
   -3.2126    1.4821    0.0000 C   0  0  0  0  0  0  0  0  0  0  0  0
   -1.9136    3.7321    0.0000 C   0  0  0  0  0  0  0  0  0  0  0  0
   -3.2126   -0.0179    0.0000 O   0  0  0  0  0  0  0  0  0  0  0  0
   -0.6145    4.4821    0.0000 O   0  0  0  0  0  0  0  0  0  0  0  0
    3.2826   -0.7679    0.0000 O   0  0  0  0  0  0  0  0  0  0  0  0
    3.2832    2.2328    0.0000 O   0  0  0  0  0  0  0  0  0  0  0  0
   -4.5117    2.2321    0.0000 O   0  0  0  0  0  0  0  0  0  0  0  0
   -3.2126    4.4821    0.0000 O   0  0  0  0  0  0  0  0  0  0  0  0
  6  5  2  0
  8  5  1  0
  8  7  2  0
  9  6  1  0
 10  7  1  0
 10  9  2  0
 11  8  1  0
 12 11  1  0
 13 11  1  0
 14 12  2  0
 15 13  2  0
 16  1  1  0
 16  9  1  0
 17  2  1  0
 17 10  1  0
 18  3  1  0
 18 12  1  0
 19  4  1  0
 19 13  1  0
M  END
>  <NAME>  (3936) 
DIMETHYL 2-(3,4-DIMETHOXYPHENYL)MALONATE

>  <SYNONYMS>  (3936) 


>  <SPECTRUM TYPE>  (3936) 
MS1

>  <INSTRUMENT TYPE>  (3936) 
EI-B

>  <INSTRUMENT>  (3936) 
JEOL JMS-HX-100

>  <ION MODE>  (3936) 
P

>  <INCHIKEY>  (3936) 
XAVJSXAJKRURQW-UHFFFAOYSA-N

>  <FORMULA>  (3936) 
C13H16O6

>  <EXACT MASS>  (3936) 
268.09468823199995

>  <MW>  (3936) 
268

>  <ID>  (3936) 
JP005140

>  <CONTRIBUTOR>  (3936) 
University of Tokyo Team, {Faculty of Engineering, University of Tokyo

>  <COMMENT>  (3936) 
SMILES=COC(=O)C(C(=O)OC)c(c1)cc(OC)c(OC)c1
InChI=InChI=1S/C13H16O6/c1-16-9-6-5-8(7-10(9)17-2)11(12(14)18-3)13(15)19-4/h5-7,11H,1-4H3
computed SMILES=O=C(OC)C(C(=O)OC)C1=CC=C(OC)C(OC)=C1
accession=JP005140
date=2016.01.19 (Created 2008.10.21, modified 2011.05.06)
author=HAYASHI A, FAC. OF SCIENCE AND TECHNOLOGY, KINKI UNIV.
license=CC BY-NC-SA
exact mass=268.09469
ionization energy=70 eV
ion type=[M]+*
computed spectral entropy=2.7038794301423272
computed normalized entropy=0.6343144472812403
SPLASH=splash10-0aor-1490000000-edcfa8eb01ed9806fe25
submitter=submitter = University of Tokyo Team (Faculty of Engineering, University of Tokyo)
MoNA Rating=3.75

>  <NUM PEAKS>  (3936) 
71

>  <MASS SPECTRAL PEAKS>  (3936) 
38 0.52
39 0.71
45 1.03
50 1.12
51 1.47
53 0.65
59 3.23
62 0.57
63 2.34
64 1.63
65 1.28
66 0.6
75 0.77
76 1.22
77 3.26
78 0.93
79 1.75
89 1.16
90 0.82
91 1.03
92 3.3
95 1.08
105 1.28
106 0.82
107 2.47
108 0.55
109 0.49
119 0.75
120 1.38
121 1.02
122 0.41
123 0.74
133 1.18
134 0.85
135 4.69
136 1.42
137 1.52
138 0.62
147 0.48
148 0.64
149 0.6
150 0.61
151 5.72
152 0.76
162 0.52
163 5.75
164 0.93
165 3.91
166 6.6
167 1.22
176 1.76
177 0.7
178 6.98
179 1.59
181 32.08
182 3.87
183 0.46
193 1.29
194 1.18
207 0.69
208 0.62
209 99.99
210 14.17
211 1.82
221 0.45
235 1
236 0.79
253 0.4
268 80.04
269 12.1
270 2.02

>  <PREDICTED SPECTRUM>  (3936) 
15 77
26 5
27 19
29 6
36 5
38 20
39 63
40 25
41 89
43 97
44 90
45 61
47 14
49 46
50 83
51 162
52 76
53 116
54 18
55 105
56 1
57 55
59 218
62 56
63 152
64 74
65 134
66 72
67 88
69 117
70 47
71 51
74 44
75 62
76 118
77 195
78 129
79 175
80 53
81 33
82 32
83 34
84 14
85 20
86 5
89 114
90 104
91 202
92 101
93 88
94 45
95 72
96 20
97 30
99 10
102 61
103 89
104 89
105 133
106 116
107 147
108 14
109 57
110 10
111 25
113 6
115 3
117 40
118 107
119 138
120 73
121 157
122 88
123 92
124 19
125 22
126 28
127 45
128 68
129 7
130 5
131 4
132 59
133 101
134 153
135 263
136 167
137 175
138 168
139 111
146 4
147 53
148 133
149 200
150 282
151 229
152 86
153 96
154 2
161 60
162 97
163 263
164 204
165 336
166 309
167 178
168 9
176 115
177 311
178 284
179 196
180 52
181 375
182 163
191 48
193 174
194 224
208 31
209 999
210 377
211 59
223 45
224 5
268 814
269 324
270 126
271 8

$$$$

     RDKit          2D

 21 22  0  0  0  0  0  0  0  0999 V2000
    4.8725   -0.2422    0.0000 C   0  0  0  0  0  0  0  0  0  0  0  0
    2.2730    2.7569    0.0000 C   0  0  0  0  0  0  0  0  0  0  0  0
   -5.5217    4.2565    0.0000 C   0  0  0  0  0  0  0  0  0  0  0  0
   -4.2222    5.0073    0.0000 C   0  0  0  0  0  0  0  0  0  0  0  0
   -5.5222    2.7557    0.0000 C   0  0  0  0  0  0  0  0  0  0  0  0
    0.9748   -2.4933    0.0000 C   0  0  0  0  0  0  0  0  0  0  0  0
   -2.9232    4.2573    0.0000 C   0  0  0  0  0  0  0  0  0  0  0  0
   -4.2232    2.0057    0.0000 C   0  0  0  0  0  0  0  0  0  0  0  0
   -0.3253   -1.7435    0.0000 C   0  0  0  0  0  0  0  0  0  0  0  0
    2.2747   -1.7431    0.0000 C   0  0  0  0  0  0  0  0  0  0  0  0
   -1.6246    2.0065    0.0000 C   0  0  0  0  0  0  0  0  0  0  0  0
   -2.9236    2.7565    0.0000 C   0  0  0  0  0  0  0  0  0  0  0  0
   -0.3256   -0.2435    0.0000 C   0  0  0  0  0  0  0  0  0  0  0  0
   -1.6246    0.5065    0.0000 C   0  0  0  0  0  0  0  0  0  0  0  0
    2.2744   -0.2431    0.0000 C   0  0  0  0  0  0  0  0  0  0  0  0
    0.9743    0.5067    0.0000 C   0  0  0  0  0  0  0  0  0  0  0  0
   -2.9236   -0.2435    0.0000 C   0  0  0  0  0  0  0  0  0  0  0  0
   -2.9236   -1.7435    0.0000 N   0  0  0  0  0  0  0  0  0  0  0  0
   -4.2227    0.5065    0.0000 O   0  0  0  0  0  0  0  0  0  0  0  0
    3.5732    0.5073    0.0000 O   0  0  0  0  0  0  0  0  0  0  0  0
    0.9741    2.0067    0.0000 O   0  0  0  0  0  0  0  0  0  0  0  0
  4  3  2  0
  5  3  1  0
  7  4  1  0
  8  5  2  0
  9  6  2  0
 10  6  1  0
 12  7  2  0
 12  8  1  0
 12 11  1  0
 13  9  1  0
 14 11  1  0
 14 13  1  0
 15 10  2  0
 16 13  2  0
 16 15  1  0
 17 14  1  0
 18 17  2  0
 19 17  1  0
 20  1  1  0
 20 15  1  0
 21  2  1  0
 21 16  1  0
M  END
>  <NAME>  (3937) 
2-(2,3-DIMETHOXYPHENYL)-3-PHENYLPROPANAMIDE

>  <SYNONYMS>  (3937) 


>  <SPECTRUM TYPE>  (3937) 
MS1

>  <INSTRUMENT TYPE>  (3937) 
EI-B

>  <INSTRUMENT>  (3937) 
JEOL JMS-HX-100

>  <ION MODE>  (3937) 
P

>  <INCHIKEY>  (3937) 
XLADAWOYVRSIJI-UHFFFAOYSA-N

>  <FORMULA>  (3937) 
C17H19NO3

>  <EXACT MASS>  (3937) 
285.136493468

>  <MW>  (3937) 
285

>  <ID>  (3937) 
JP005139

>  <CONTRIBUTOR>  (3937) 
University of Tokyo Team, {Faculty of Engineering, University of Tokyo

>  <COMMENT>  (3937) 
SMILES=COc(c2)c(OC)c(cc2)C(C(N)=O)Cc(c1)cccc1
InChI=InChI=1S/C17H19NO3/c1-20-15-10-6-9-13(16(15)21-2)14(17(18)19)11-12-7-4-3-5-8-12/h3-10,14H,11H2,1-2H3,(H2,18,19)
computed SMILES=N=C(O)C(C=1C=CC=C(OC)C1OC)CC=2C=CC=CC2
accession=JP005139
date=2016.01.19 (Created 2008.10.21, modified 2011.05.06)
author=HAYASHI A, FAC. OF SCIENCE AND TECHNOLOGY, KINKI UNIV.
license=CC BY-NC-SA
exact mass=285.13649
ionization energy=70 eV
ion type=[M]+*
computed spectral entropy=3.425892704463168
computed normalized entropy=0.7361241709648884
SPLASH=splash10-0006-1940000000-1c27da0f83e85bd1c67a
submitter=submitter = University of Tokyo Team (Faculty of Engineering, University of Tokyo)
MoNA Rating=3.75

>  <NUM PEAKS>  (3937) 
105

>  <MASS SPECTRAL PEAKS>  (3937) 
39 1.73
41 0.51
44 0.63
45 0.63
50 0.78
51 2.46
52 0.73
53 0.62
55 0.86
63 1.7
64 1.19
65 3.64
66 0.56
75 0.73
76 2
77 4.08
78 1.91
79 1.24
80 0.66
82 0.52
83 0.5
89 1.79
90 0.82
91 12.62
92 1.88
93 0.71
94 0.52
95 0.61
102 0.9
103 3.47
104 1.6
105 2.4
106 0.91
107 1.2
108 1.23
109 0.57
113 0.5
115 2.08
117 1.74
118 0.8
119 0.83
120 1.5
121 1.97
122 1.68
123 0.84
124 3.07
125 0.54
127 1.37
128 2.29
129 1.48
131 0.55
132 0.52
133 1
134 0.77
135 1.73
136 1.33
137 0.92
138 4.54
139 3.75
140 0.56
141 1.32
148 2.38
149 0.98
150 2.18
151 8.47
152 4.88
153 2.99
154 1.41
155 1.59
162 1.68
163 11.72
164 2.57
165 7.08
166 31.61
167 5.73
168 0.86
176 3.12
177 2.09
178 4.13
179 3.27
180 0.77
181 1.95
182 0.86
183 0.86
193 1.41
194 99.99
195 14.55
196 2.41
197 0.62
208 0.74
209 2.07
210 4.53
211 1.51
225 0.88
226 3.99
227 0.98
239 0.63
240 1.33
241 32.29
242 5.96
243 0.67
267 0.77
285 56.59
286 12.04
287 1.27

>  <PREDICTED SPECTRUM>  (3937) 
27 20
29 33
33 6
36 7
37 2
38 47
39 169
40 62
41 176
42 76
43 213
44 93
45 69
49 31
50 131
51 269
52 134
53 95
54 23
55 93
56 17
57 82
58 16
59 4
60 54
62 76
63 189
64 125
65 327
66 103
67 67
68 26
69 83
70 61
71 61
73 9
74 86
75 113
76 152
77 377
78 202
79 147
80 45
81 87
82 71
83 76
84 83
85 27
86 44
87 18
88 87
89 206
90 93
91 666
92 217
93 85
94 27
95 70
96 47
97 72
98 79
99 49
100 32
101 20
102 95
103 254
104 168
105 148
106 119
107 162
108 52
109 81
110 52
111 39
113 36
114 62
115 213
116 102
117 87
118 91
119 107
120 163
121 195
122 23
123 75
124 27
125 38
126 62
127 139
128 224
129 38
131 65
132 55
133 107
134 160
135 159
136 54
137 80
138 32
139 46
140 64
141 84
142 102
143 56
144 29
145 0
146 18
147 68
148 141
149 134
150 111
151 184
152 236
153 177
154 43
155 61
156 36
162 106
163 143
164 147
165 187
166 259
167 133
168 138
169 51
170 59
171 23
173 6
176 137
177 150
178 145
179 186
180 212
181 169
182 23
183 61
184 50
185 22
192 71
193 129
194 999
195 455
196 203
197 60
198 5
199 43
206 126
207 52
208 141
209 114
210 135
211 102
212 59
213 49
223 17
224 80
225 65
226 61
227 50
237 40
238 121
239 145
240 120
241 36
242 10
252 119
253 60
254 94
255 34
268 46
270 24
284 0
285 656
286 275
287 81

$$$$

     RDKit          2D

 26 27  0  0  0  0  0  0  0  0999 V2000
    1.9478    1.4446    0.0000 C   0  0  0  0  0  0  0  0  0  0  0  0
   -5.8449    8.9462    0.0000 C   0  0  0  0  0  0  0  0  0  0  0  0
   -1.9472    8.1956    0.0000 C   0  0  0  0  0  0  0  0  0  0  0  0
   -9.7435    3.6946    0.0000 C   0  0  0  0  0  0  0  0  0  0  0  0
   -9.7440    2.1938    0.0000 C   0  0  0  0  0  0  0  0  0  0  0  0
   -8.4440    4.4454    0.0000 C   0  0  0  0  0  0  0  0  0  0  0  0
   -8.4450    1.4438    0.0000 C   0  0  0  0  0  0  0  0  0  0  0  0
   -7.1449    3.6954    0.0000 C   0  0  0  0  0  0  0  0  0  0  0  0
   -5.8463    4.4448    0.0000 C   0  0  0  0  0  0  0  0  0  0  0  0
   -5.8456    5.9456    0.0000 C   0  0  0  0  0  0  0  0  0  0  0  0
   -5.8464    1.4446    0.0000 C   0  0  0  0  0  0  0  0  0  0  0  0
   -1.9493    2.1946    0.0000 C   0  0  0  0  0  0  0  0  0  0  0  0
    0.6488    2.1946    0.0000 C   0  0  0  0  0  0  0  0  0  0  0  0
   -7.1454    2.1946    0.0000 C   0  0  0  0  0  0  0  0  0  0  0  0
   -4.5474    3.6946    0.0000 C   0  0  0  0  0  0  0  0  0  0  0  0
   -4.5474    2.1946    0.0000 C   0  0  0  0  0  0  0  0  0  0  0  0
   -3.2483    1.4446    0.0000 C   0  0  0  0  0  0  0  0  0  0  0  0
   -4.5459    6.6962    0.0000 C   0  0  0  0  0  0  0  0  0  0  0  0
   -3.2477    4.4452    0.0000 C   0  0  0  0  0  0  0  0  0  0  0  0
   -3.2470    5.9460    0.0000 C   0  0  0  0  0  0  0  0  0  0  0  0
   -1.9488    3.6950    0.0000 Cl  0  0  0  0  0  0  0  0  0  0  0  0
    0.6488    3.6946    0.0000 O   0  0  0  0  0  0  0  0  0  0  0  0
   -3.2483   -0.0554    0.0000 O   0  0  0  0  0  0  0  0  0  0  0  0
   -4.5459    8.1962    0.0000 O   0  0  0  0  0  0  0  0  0  0  0  0
   -1.9477    6.6956    0.0000 O   0  0  0  0  0  0  0  0  0  0  0  0
   -0.6502    1.4446    0.0000 O   0  0  0  0  0  0  0  0  0  0  0  0
  5  4  2  0
  6  4  1  0
  7  5  1  0
  8  6  2  0
 10  9  2  0
 13  1  1  0
 14  7  2  0
 14  8  1  0
 14 11  1  0
 15  9  1  0
 16 11  1  0
 16 15  1  0
 17 12  1  0
 17 16  1  0
 18 10  1  0
 19 15  2  0
 20 18  2  0
 20 19  1  0
 21 19  1  0
 22 13  2  0
 23 17  2  0
 24  2  1  0
 24 18  1  0
 25  3  1  0
 25 20  1  0
 26 12  1  0
 26 13  1  0
M  END
>  <NAME>  (3938) 
1-ACETOXY-3-(2-CHLORO-3,4-DIMETHOXYPHENYL)-4-PHENYL-2-BUTANONE

>  <SYNONYMS>  (3938) 


>  <SPECTRUM TYPE>  (3938) 
MS1

>  <INSTRUMENT TYPE>  (3938) 
EI-B

>  <INSTRUMENT>  (3938) 
JEOL JMS-HX-100

>  <ION MODE>  (3938) 
P

>  <INCHIKEY>  (3938) 
IHZNCXSMDVOALJ-UHFFFAOYSA-N

>  <FORMULA>  (3938) 
C20H21ClO5

>  <EXACT MASS>  (3938) 
376.107751452

>  <MW>  (3938) 
376

>  <ID>  (3938) 
JP005138

>  <CONTRIBUTOR>  (3938) 
University of Tokyo Team, {Faculty of Engineering, University of Tokyo

>  <COMMENT>  (3938) 
SMILES=CC(=O)OCC(=O)C(Cc(c2)cccc2)c(c1)c(Cl)c(OC)c(OC)c1
InChI=InChI=1S/C20H21ClO5/c1-13(22)26-12-17(23)16(11-14-7-5-4-6-8-14)15-9-10-18(24-2)20(25-3)19(15)21/h4-10,16H,11-12H2,1-3H3
computed SMILES=O=C(OCC(=O)C(C1=CC=C(OC)C(OC)=C1Cl)CC=2C=CC=CC2)C
accession=JP005138
date=2016.01.19 (Created 2008.10.21, modified 2011.05.06)
author=HAYASHI A, FAC. OF SCIENCE AND TECHNOLOGY, KINKI UNIV.
license=CC BY-NC-SA
exact mass=376.10775
ionization energy=70 eV
ion type=[M]+*
computed spectral entropy=3.7530981579192426
computed normalized entropy=0.7984499169983317
SPLASH=splash10-004l-6591000000-4dfb5fcbb042e376fbf8
submitter=submitter = University of Tokyo Team (Faculty of Engineering, University of Tokyo)
MoNA Rating=3.75

>  <NUM PEAKS>  (3938) 
110

>  <MASS SPECTRAL PEAKS>  (3938) 
39 2.59
41 2.55
42 1.54
43 99.99
45 2.59
50 1.04
51 3.22
55 4
57 1.85
60 1.17
63 3.39
65 6.1
71 1.02
73 6.15
75 2.08
76 2.14
77 6.33
78 1.45
81 1.15
89 3
91 28.51
92 2.74
97 1.18
101 5.89
102 1.84
103 6.31
104 1.54
105 3.65
113 1.24
115 2.74
117 2.88
119 2.31
125 1.32
126 1.16
127 1.65
128 1.43
129 2.04
139 3.47
141 2.19
147 1.11
149 3.4
150 1.02
151 2.81
152 9.1
153 7.14
154 2.49
155 1.5
163 1.3
164 1.35
165 12.47
166 3.98
167 2.31
169 1.56
171 1.15
176 1.43
177 2.35
178 4.39
179 4.85
180 1.79
181 3.88
182 2.21
183 1.29
185 7.89
186 1.03
187 2.63
191 1.07
192 2.44
193 2.67
194 2.62
195 2.24
196 1.44
197 4.32
198 1.75
199 2.96
200 1.28
201 1.08
207 1.74
208 4.5
209 4.09
210 1.4
211 1.13
212 1.45
215 4.99
217 1.97
224 3.05
225 7.39
226 1.45
227 3.21
228 1.78
229 1.33
239 4.89
240 28.75
241 5.36
243 1.17
244 2.1
250 2.72
260 3.14
262 1.08
274 1.51
275 86.88
276 17.67
277 31.05
278 5.66
285 12.21
286 1.84
287 4.3
376 31.14
377 7.2
378 11.12
379 2.41

>  <PREDICTED SPECTRUM>  (3938) 
36 5
39 45
40 9
41 158
42 73
43 575
44 92
45 59
50 27
51 78
52 32
53 44
55 127
57 79
58 49
59 52
60 33
63 116
64 49
65 176
66 11
67 28
69 10
71 92
72 24
73 48
75 52
76 68
77 188
78 85
79 54
82 2
83 35
84 23
85 41
86 19
87 11
88 15
89 134
90 85
91 454
92 139
93 48
97 62
98 24
99 85
101 141
102 73
103 149
104 123
105 60
111 14
113 18
114 40
115 73
116 11
117 91
118 32
119 113
120 7
121 109
123 29
125 63
126 48
127 109
128 130
129 139
130 41
131 85
132 43
133 56
135 62
136 9
137 75
138 47
139 147
141 152
142 83
143 27
144 3
145 3
148 8
149 127
150 90
151 99
152 201
153 258
154 89
155 64
157 60
159 26
161 76
162 60
163 78
164 77
165 335
166 126
167 107
168 67
169 100
170 37
171 130
172 23
173 15
176 32
177 77
178 96
179 136
180 45
181 231
182 112
183 165
184 104
185 91
186 33
189 1
190 6
191 62
192 100
193 113
194 87
195 138
196 100
197 164
198 86
199 136
200 63
201 38
203 6
207 16
208 47
209 92
210 92
211 188
212 178
213 67
215 118
222 39
224 85
225 127
226 121
227 93
228 130
229 116
231 46
233 14
238 30
239 242
240 369
241 215
242 19
243 41
244 55
254 56
257 65
258 56
259 112
260 72
273 66
275 999
276 453
277 526
278 206
279 42
285 171
286 59
287 2
292 49
376 494
377 191
378 276
379 97

$$$$

     RDKit          2D

 22 23  0  0  0  0  0  0  0  0999 V2000
   -6.1354    0.5454    0.0000 C   0  0  0  0  0  0  0  0  0  0  0  0
   -3.5372   -2.4552    0.0000 C   0  0  0  0  0  0  0  0  0  0  0  0
    1.6588    6.5454    0.0000 C   0  0  0  0  0  0  0  0  0  0  0  0
    5.5559    4.2954    0.0000 C   0  0  0  0  0  0  0  0  0  0  0  0
    4.2564    5.0462    0.0000 C   0  0  0  0  0  0  0  0  0  0  0  0
    5.5564    2.7946    0.0000 C   0  0  0  0  0  0  0  0  0  0  0  0
    2.9574    4.2962    0.0000 C   0  0  0  0  0  0  0  0  0  0  0  0
    4.2574    2.0446    0.0000 C   0  0  0  0  0  0  0  0  0  0  0  0
   -2.2388    2.7962    0.0000 C   0  0  0  0  0  0  0  0  0  0  0  0
   -3.5378    2.0462    0.0000 C   0  0  0  0  0  0  0  0  0  0  0  0
    1.6588    2.0454    0.0000 C   0  0  0  0  0  0  0  0  0  0  0  0
   -0.9388    0.5446    0.0000 C   0  0  0  0  0  0  0  0  0  0  0  0
    2.9578    2.7954    0.0000 C   0  0  0  0  0  0  0  0  0  0  0  0
   -0.9393    2.0454    0.0000 C   0  0  0  0  0  0  0  0  0  0  0  0
    0.3598    2.7954    0.0000 C   0  0  0  0  0  0  0  0  0  0  0  0
   -3.5374    0.5454    0.0000 C   0  0  0  0  0  0  0  0  0  0  0  0
   -2.2378   -0.2054    0.0000 C   0  0  0  0  0  0  0  0  0  0  0  0
    0.3598    4.2954    0.0000 C   0  0  0  0  0  0  0  0  0  0  0  0
   -0.9393    5.0454    0.0000 O   0  0  0  0  0  0  0  0  0  0  0  0
   -4.8364   -0.2046    0.0000 O   0  0  0  0  0  0  0  0  0  0  0  0
   -2.2381   -1.7054    0.0000 O   0  0  0  0  0  0  0  0  0  0  0  0
    1.6588    5.0454    0.0000 O   0  0  0  0  0  0  0  0  0  0  0  0
  5  4  2  0
  6  4  1  0
  7  5  1  0
  8  6  2  0
 10  9  2  0
 13  7  2  0
 13  8  1  0
 13 11  1  0
 14  9  1  0
 14 12  2  0
 15 11  1  0
 15 14  1  0
 16 10  1  0
 17 12  1  0
 17 16  2  0
 18 15  1  0
 19 18  2  0
 20  1  1  0
 20 16  1  0
 21  2  1  0
 21 17  1  0
 22  3  1  0
 22 18  1  0
M  END
>  <NAME>  (3939) 
METHYL 3-PHENYL-2-(3,4-DIMETHOXYPHENYL)PROPIONATE

>  <SYNONYMS>  (3939) 


>  <SPECTRUM TYPE>  (3939) 
MS1

>  <INSTRUMENT TYPE>  (3939) 
EI-B

>  <INSTRUMENT>  (3939) 
JEOL JMS-HX-100

>  <ION MODE>  (3939) 
P

>  <INCHIKEY>  (3939) 
PTHKYMVDSUZYTR-UHFFFAOYSA-N

>  <FORMULA>  (3939) 
C18H20O4

>  <EXACT MASS>  (3939) 
300.13615912

>  <MW>  (3939) 
300

>  <ID>  (3939) 
JP005137

>  <CONTRIBUTOR>  (3939) 
University of Tokyo Team, {Faculty of Engineering, University of Tokyo

>  <COMMENT>  (3939) 
SMILES=COC(=O)C(Cc(c2)cccc2)c(c1)cc(OC)c(OC)c1
InChI=InChI=1S/C18H20O4/c1-20-16-10-9-14(12-17(16)21-2)15(18(19)22-3)11-13-7-5-4-6-8-13/h4-10,12,15H,11H2,1-3H3
computed SMILES=O=C(OC)C(C1=CC=C(OC)C(OC)=C1)CC=2C=CC=CC2
accession=JP005137
date=2016.01.19 (Created 2008.10.21, modified 2011.05.06)
author=HAYASHI A, FAC. OF SCIENCE AND TECHNOLOGY, KINKI UNIV.
license=CC BY-NC-SA
exact mass=300.13616
ionization energy=70 eV
ion type=[M]+*
computed spectral entropy=2.7699110057581593
computed normalized entropy=0.6519746046419083
SPLASH=splash10-0a4i-2492000000-f272a500bdd26cf331f2
submitter=submitter = University of Tokyo Team (Faculty of Engineering, University of Tokyo)
MoNA Rating=3.75

>  <NUM PEAKS>  (3939) 
70

>  <MASS SPECTRAL PEAKS>  (3939) 
39 0.91
43 0.43
45 0.9
50 0.44
51 1.77
52 0.47
58 0.44
59 0.39
63 1.59
64 1.18
65 2.6
75 0.53
76 1.6
77 3.25
78 1.36
79 0.54
89 1.45
90 0.66
91 9.7
92 1.23
102 0.71
103 1.73
104 0.42
105 1.05
107 0.64
115 0.96
120 1.06
121 0.58
127 0.54
128 1.16
133 0.4
135 1.48
136 0.54
137 0.58
138 0.44
141 0.45
149 0.43
150 0.41
151 3.78
152 1.97
153 1.5
154 0.63
155 0.84
163 2.5
164 0.95
165 4.91
166 5.34
167 0.96
168 0.4
177 0.64
178 3.8
179 1.46
181 20.59
182 2.53
183 0.7
193 0.69
194 1.2
195 0.83
209 99.99
210 14.38
211 2.15
225 0.45
226 0.95
239 0.6
240 0.58
241 8.6
242 1.38
300 31.38
301 6.64
302 0.88

>  <PREDICTED SPECTRUM>  (3939) 
33 3
39 61
40 16
41 31
43 3
44 2
50 39
51 126
52 56
53 37
55 54
57 29
59 96
62 8
63 86
64 36
65 169
66 36
69 21
75 38
76 47
77 209
78 103
79 113
80 10
81 21
83 19
89 56
90 63
91 255
92 56
93 13
95 70
102 66
103 87
104 10
105 64
106 74
107 81
108 19
115 72
119 26
121 170
122 44
123 33
124 6
127 17
128 90
134 21
135 102
137 24
138 24
139 35
141 1
149 110
150 78
151 138
152 64
153 37
163 3
164 37
165 185
166 183
167 10
168 2
177 7
179 55
180 1
181 314
182 99
183 70
195 19
198 10
209 999
210 386
211 105
226 67
239 2
241 180
242 86
300 358
301 167
302 72

$$$$

     RDKit          2D

 19 20  0  0  0  0  0  0  0  0999 V2000
    0.9966    5.4825    0.0000 C   0  0  0  0  0  0  0  0  0  0  0  0
    2.2795    4.7548    0.0000 C   0  0  0  0  0  0  0  0  0  0  0  0
    4.8981   -1.2372    0.0000 C   0  0  0  0  0  0  0  0  0  0  0  0
   -0.2804    4.7301    0.0000 C   0  0  0  0  0  0  0  0  0  0  0  0
    3.5963   -1.9841    0.0000 C   0  0  0  0  0  0  0  0  0  0  0  0
    4.9016    0.2628    0.0000 C   0  0  0  0  0  0  0  0  0  0  0  0
    2.3157    3.2552    0.0000 C   0  0  0  0  0  0  0  0  0  0  0  0
   -1.5693    2.4925    0.0000 C   0  0  0  0  0  0  0  0  0  0  0  0
   -0.2746    3.2500    0.0000 C   0  0  0  0  0  0  0  0  0  0  0  0
    2.2981   -1.2310    0.0000 C   0  0  0  0  0  0  0  0  0  0  0  0
    3.6034    1.0159    0.0000 C   0  0  0  0  0  0  0  0  0  0  0  0
    1.0083    2.5222    0.0000 C   0  0  0  0  0  0  0  0  0  0  0  0
   -2.8726    3.2350    0.0000 C   0  0  0  0  0  0  0  0  0  0  0  0
    2.3017    0.2690    0.0000 C   0  0  0  0  0  0  0  0  0  0  0  0
    0.9974   -1.9782    0.0000 Cl  0  0  0  0  0  0  0  0  0  0  0  0
    3.6070    2.5159    0.0000 Cl  0  0  0  0  0  0  0  0  0  0  0  0
    1.0045    1.0222    0.0000 N   0  0  0  0  0  0  0  0  0  0  0  0
   -2.8813    4.7349    0.0000 O   0  0  0  0  0  0  0  0  0  0  0  0
   -4.1673    2.4775    0.0000 O   0  0  0  0  0  0  0  0  0  0  0  0
  2  1  2  0
  4  1  1  0
  5  3  2  0
  6  3  1  0
  7  2  1  0
  9  4  2  0
  9  8  1  0
 10  5  1  0
 11  6  2  0
 12  7  2  0
 12  9  1  0
 13  8  1  0
 14 10  2  0
 14 11  1  0
 15 10  1  0
 16 11  1  0
 17 12  1  0
 17 14  1  0
 18 13  2  0
 19 13  1  0
M  END
>  <NAME>  (3940) 
2-(2,6-DICHLOROANILINO)PHENYLACETIC ACID

>  <SYNONYMS>  (3940) 


>  <SPECTRUM TYPE>  (3940) 
MS1

>  <INSTRUMENT TYPE>  (3940) 
EI-B

>  <INSTRUMENT>  (3940) 
JEOL JMS-HX-100

>  <ION MODE>  (3940) 
P

>  <INCHIKEY>  (3940) 
DCOPUUMXTXDBNB-UHFFFAOYSA-N

>  <FORMULA>  (3940) 
C14H11Cl2NO2

>  <EXACT MASS>  (3940) 
295.016683952

>  <MW>  (3940) 
295

>  <ID>  (3940) 
JP005136

>  <CONTRIBUTOR>  (3940) 
University of Tokyo Team, {Faculty of Engineering, University of Tokyo

>  <COMMENT>  (3940) 
SMILES=OC(=O)Cc(c2)c(ccc2)Nc(c(Cl)1)c(Cl)ccc1
InChI=InChI=1S/C14H11Cl2NO2/c15-10-5-3-6-11(16)14(10)17-12-7-2-1-4-9(12)8-13(18)19/h1-7,17H,8H2,(H,18,19)
computed SMILES=O=C(O)CC=1C=CC=CC1NC=2C(Cl)=CC=CC2Cl
accession=JP005136
date=2016.01.19 (Created 2008.10.21, modified 2011.05.06)
author=HAYASHI A, FAC. OF SCIENCE AND TECHNOLOGY, KINKI UNIV.
license=CC BY-NC-SA
exact mass=295.01668
ionization energy=70 eV
ion type=[M]+*
computed spectral entropy=3.7709446749655116
computed normalized entropy=0.7849559025349552
SPLASH=splash10-03xv-3390000000-cd724f772f8ff3648856
submitter=submitter = University of Tokyo Team (Faculty of Engineering, University of Tokyo)
MoNA Rating=3.75

>  <NUM PEAKS>  (3940) 
122

>  <MASS SPECTRAL PEAKS>  (3940) 
35 1.59
38 1.47
39 8.35
40 0.94
41 2.18
42 0.53
43 1.69
44 1.31
45 3.65
50 3.79
51 10.02
52 4.93
53 2.17
55 1.26
56 0.61
57 1.53
61 0.84
62 2.64
63 8.42
64 2.6
65 2.76
66 0.57
67 0.53
69 1.33
71 0.82
73 1.73
74 3.17
75 6.5
76 8.07
77 11.34
78 6.77
79 1.84
81 0.76
83 0.58
84 0.71
85 0.85
86 0.68
87 1.14
88 1.78
89 10.25
90 5.17
91 1.43
93 1.57
94 0.95
97 0.6
98 0.67
99 1.21
100 1.07
101 1.22
102 1.07
103 0.55
104 1.1
105 0.61
106 3.11
107 7.72
108 2.82
109 2.88
110 0.85
111 1.8
113 0.83
114 0.64
115 0.6
124 2.68
125 1.73
126 1.65
127 1.56
128 1.13
133 0.67
135 0.6
136 0.81
138 0.85
139 1.01
140 0.95
145 1.21
147 0.86
149 1.11
150 2.62
151 10.15
152 6.46
153 1.81
154 0.62
161 0.5
164 1.41
165 0.82
166 1.3
167 0.68
174 0.54
176 1.39
177 8.21
178 12.12
179 16.39
180 8.36
181 2.01
186 0.51
201 1.17
212 0.76
213 4.88
214 99.99
215 27.73
216 40.27
217 9.28
218 1.5
241 0.61
242 39.02
243 6.77
244 13.3
245 2.14
248 1.09
250 1.92
251 0.53
252 0.94
277 4.8
278 0.97
279 3.23
280 0.57
281 0.56
295 38.54
296 6.52
297 25.2
298 4.14
299 4.64
300 0.75

>  <PREDICTED SPECTRUM>  (3940) 
17 0
35 47
36 140
37 77
38 153
39 204
40 37
41 11
43 12
44 161
45 378
46 29
47 1
49 163
50 316
51 427
52 282
53 155
54 33
55 107
56 25
57 16
61 193
62 342
63 562
64 288
65 325
66 28
69 16
71 1
72 28
73 216
74 250
75 463
76 298
77 394
78 143
79 73
80 6
81 132
82 202
83 197
84 23
85 101
86 139
87 203
88 252
89 484
90 378
91 168
92 22
93 50
95 109
96 143
97 207
98 51
99 339
100 24
101 263
102 308
104 37
105 94
107 85
108 23
109 176
110 109
111 139
112 65
113 209
114 292
115 194
116 25
117 14
123 141
124 104
125 298
126 281
127 311
128 96
129 86
132 25
135 41
136 9
137 46
138 134
139 186
140 97
141 167
142 61
145 17
147 66
149 238
150 201
151 418
152 436
153 263
154 237
155 128
156 9
161 79
162 114
163 167
164 397
165 50
166 195
167 45
168 32
170 107
173 71
175 55
176 211
177 149
178 622
179 309
180 326
181 123
182 129
186 177
187 175
188 177
189 82
190 232
194 56
198 58
200 90
201 99
206 135
207 262
208 111
212 72
213 290
214 691
215 562
216 332
217 124
233 6
241 7
242 999
243 360
244 506
245 189
248 31
249 160
250 190
251 200
252 90
262 166
263 43
264 11
277 710
278 133
279 492
280 178
281 170
295 557
296 143
297 456
298 146
299 155

$$$$

     RDKit          2D

 18 19  0  0  0  0  0  0  0  0999 V2000
    2.5987    3.0002    0.0000 C   0  0  0  0  0  0  0  0  0  0  0  0
   -7.7948   -3.0010    0.0000 C   0  0  0  0  0  0  0  0  0  0  0  0
   -6.4952   -3.7517    0.0000 C   0  0  0  0  0  0  0  0  0  0  0  0
   -7.7956   -1.5002    0.0000 C   0  0  0  0  0  0  0  0  0  0  0  0
   -5.1963   -3.0015    0.0000 C   0  0  0  0  0  0  0  0  0  0  0  0
   -6.4966   -0.7500    0.0000 C   0  0  0  0  0  0  0  0  0  0  0  0
   -1.3000    0.7500    0.0000 C   0  0  0  0  0  0  0  0  0  0  0  0
    0.0000    1.5000    0.0000 C   0  0  0  0  0  0  0  0  0  0  0  0
   -0.0000   -1.5000    0.0000 C   0  0  0  0  0  0  0  0  0  0  0  0
   -3.8981   -0.7504    0.0000 C   0  0  0  0  0  0  0  0  0  0  0  0
    2.5989    1.5002    0.0000 C   0  0  0  0  0  0  0  0  0  0  0  0
   -5.1970   -1.5006    0.0000 C   0  0  0  0  0  0  0  0  0  0  0  0
   -1.3000   -0.7500    0.0000 C   0  0  0  0  0  0  0  0  0  0  0  0
    1.3000    0.7500    0.0000 C   0  0  0  0  0  0  0  0  0  0  0  0
    1.3000   -0.7500    0.0000 C   0  0  0  0  0  0  0  0  0  0  0  0
    3.8981    0.7504    0.0000 O   0  0  0  0  0  0  0  0  0  0  0  0
    2.5989   -1.5002    0.0000 O   0  0  0  0  0  0  0  0  0  0  0  0
   -2.5989   -1.5002    0.0000 O   0  0  0  0  0  0  0  0  0  0  0  0
  3  2  2  0
  4  2  1  0
  5  3  1  0
  6  4  2  0
  8  7  2  0
 11  1  1  0
 12  5  2  0
 12  6  1  0
 12 10  1  0
 13  7  1  0
 13  9  2  0
 14  8  1  0
 14 11  1  0
 15  9  1  0
 15 14  2  0
 16 11  2  0
 17 15  1  0
 18 10  1  0
 18 13  1  0
M  END
>  <NAME>  (3941) 
1-ACETYL-2-HYDROXY-4-BENZYLOXYBENZENE

>  <SYNONYMS>  (3941) 


>  <SPECTRUM TYPE>  (3941) 
MS1

>  <INSTRUMENT TYPE>  (3941) 
EI-B

>  <INSTRUMENT>  (3941) 
JEOL JMS-HX-100

>  <ION MODE>  (3941) 
P

>  <INCHIKEY>  (3941) 
AGQNLHOTLJFJCG-UHFFFAOYSA-N

>  <FORMULA>  (3941) 
C15H14O3

>  <EXACT MASS>  (3941) 
242.09429430799997

>  <MW>  (3941) 
242

>  <ID>  (3941) 
JP005135

>  <CONTRIBUTOR>  (3941) 
University of Tokyo Team, {Faculty of Engineering, University of Tokyo

>  <COMMENT>  (3941) 
SMILES=CC(=O)c(c1)c(O)cc(OCc(c2)cccc2)c1
InChI=InChI=1S/C15H14O3/c1-11(16)14-8-7-13(9-15(14)17)18-10-12-5-3-2-4-6-12/h2-9,17H,10H2,1H3
computed SMILES=O=C(C1=CC=C(OCC=2C=CC=CC2)C=C1O)C
accession=JP005135
date=2016.01.19 (Created 2008.10.21, modified 2011.05.06)
author=HAYASHI A, FAC. OF SCIENCE AND TECHNOLOGY, KINKI UNIV.
license=CC BY-NC-SA
exact mass=242.09429
ionization energy=70 eV
ion type=[M]+*
computed spectral entropy=2.1824387438992714
computed normalized entropy=0.5086725032215004
SPLASH=splash10-0006-9030000000-3ed128357bdb65415452
submitter=submitter = University of Tokyo Team (Faculty of Engineering, University of Tokyo)
MoNA Rating=3.75

>  <NUM PEAKS>  (3941) 
73

>  <MASS SPECTRAL PEAKS>  (3941) 
38 0.45
39 2.76
40 0.35
41 0.99
42 0.26
43 2.95
50 0.76
51 1.98
52 1.06
53 0.65
55 0.39
56 0.17
57 0.44
61 0.33
62 0.47
63 1.95
64 0.8
65 8.1
66 0.73
67 0.52
68 0.25
69 0.41
70 0.38
71 0.31
75 0.29
76 0.28
77 1.59
78 0.33
79 0.51
80 0.41
81 0.19
82 0.3
83 0.22
85 0.16
89 1.5
90 0.85
91 99.99
92 8.57
93 0.54
95 0.51
97 0.18
105 0.91
108 1.26
109 0.25
111 0.27
113 0.27
115 0.5
118 0.29
120 0.29
121 0.84
123 1.03
128 0.33
129 0.36
136 0.3
137 0.7
141 0.36
149 0.57
152 0.37
153 0.24
157 0.27
164 0.42
165 0.25
181 0.25
197 0.28
198 0.26
199 0.8
200 0.33
225 0.24
227 2.32
228 0.47
242 39.91
243 6.68
244 0.92

>  <PREDICTED SPECTRUM>  (3941) 
38 21
39 92
40 12
41 123
42 28
43 229
49 12
50 40
51 107
52 77
53 82
55 34
62 55
63 144
64 69
65 295
66 61
67 22
69 39
77 82
78 16
79 65
80 21
81 56
89 80
91 999
92 279
93 52
94 3
95 31
107 7
108 12
109 53
123 22
136 2
151 47
199 77
200 20
224 37
225 37
227 65
228 0
241 20
242 381
243 157
244 16

$$$$

     RDKit          2D

 14 15  0  0  0  0  0  0  0  0999 V2000
    7.4270    2.7906    0.0000 C   0  0  0  0  0  0  0  0  0  0  0  0
   -1.6700   -0.9600    0.0000 C   0  0  0  0  0  0  0  0  0  0  0  0
    6.1270    3.5406    0.0000 C   0  0  0  0  0  0  0  0  0  0  0  0
    7.4270    1.2906    0.0000 C   0  0  0  0  0  0  0  0  0  0  0  0
   -0.3700   -1.7100    0.0000 C   0  0  0  0  0  0  0  0  0  0  0  0
   -1.6700    0.5400    0.0000 C   0  0  0  0  0  0  0  0  0  0  0  0
    4.8270    2.7906    0.0000 C   0  0  0  0  0  0  0  0  0  0  0  0
    6.1270    0.5406    0.0000 C   0  0  0  0  0  0  0  0  0  0  0  0
    0.9300   -0.9600    0.0000 C   0  0  0  0  0  0  0  0  0  0  0  0
   -0.3700    1.2900    0.0000 C   0  0  0  0  0  0  0  0  0  0  0  0
    4.8270    1.2906    0.0000 C   0  0  0  0  0  0  0  0  0  0  0  0
    0.9300    0.5400    0.0000 C   0  0  0  0  0  0  0  0  0  0  0  0
    3.5281    0.5404    0.0000 S   0  0  0  0  0  0  0  0  0  0  0  0
    2.2289    1.2902    0.0000 S   0  0  0  0  0  0  0  0  0  0  0  0
  3  1  2  0
  4  1  1  0
  5  2  2  0
  6  2  1  0
  7  3  1  0
  8  4  2  0
  9  5  1  0
 10  6  2  0
 11  7  2  0
 11  8  1  0
 12  9  2  0
 12 10  1  0
 13 11  1  0
 14 12  1  0
 14 13  1  0
M  END
>  <NAME>  (3942) 
DIPHENYLDISULFIDE

>  <SYNONYMS>  (3942) 


>  <SPECTRUM TYPE>  (3942) 
MS1

>  <INSTRUMENT TYPE>  (3942) 
EI-B

>  <INSTRUMENT>  (3942) 
JEOL JMS-HX-100

>  <ION MODE>  (3942) 
P

>  <INCHIKEY>  (3942) 
GUUVPOWQJOLRAS-UHFFFAOYSA-N

>  <FORMULA>  (3942) 
C12H10S2

>  <EXACT MASS>  (3942) 
218.02239232

>  <MW>  (3942) 
218

>  <ID>  (3942) 
JP005133

>  <CONTRIBUTOR>  (3942) 
University of Tokyo Team, {Faculty of Engineering, University of Tokyo

>  <COMMENT>  (3942) 
SMILES=c(c2)ccc(c2)SSc(c1)cccc1
cas=882-33-7
InChI=InChI=1S/C12H10S2/c1-3-7-11(8-4-1)13-14-12-9-5-2-6-10-12/h1-10H
computed SMILES=S(SC=1C=CC=CC1)C=2C=CC=CC2
accession=JP005133
date=2016.01.19 (Created 2008.10.21, modified 2011.05.06)
author=HAYASHI A, FAC. OF SCIENCE AND TECHNOLOGY, KINKI UNIV.
license=CC BY-NC-SA
exact mass=218.02239
ionization energy=70 eV
ion type=[M]+*
computed spectral entropy=2.9711462131472883
computed normalized entropy=0.7381084788158394
SPLASH=splash10-066r-8950000000-606fa4f2d89db624bc13
submitter=submitter = University of Tokyo Team (Faculty of Engineering, University of Tokyo)
MoNA Rating=3.75

>  <NUM PEAKS>  (3942) 
56

>  <MASS SPECTRAL PEAKS>  (3942) 
37 0.72
38 2.77
39 22.29
40 0.67
44 1.24
45 7.53
50 5.89
51 15.84
52 1.33
57 2.17
58 3
59 1.65
61 0.61
62 1.72
63 5.48
64 1.02
65 43.34
66 3.92
69 17.72
70 1.36
71 1.33
74 1.84
75 1.78
76 1.07
77 12.98
78 1.92
81 1.72
82 4.94
83 2.7
84 0.86
93 0.66
96 0.96
97 1.11
107 0.56
108 9.36
109 99.99
110 11.51
111 6.19
112 0.5
140 7.06
141 5.48
142 1.07
152 1.4
153 1.44
154 18.07
155 2.55
184 5.61
185 13.59
186 3.82
187 1.02
217 1.29
218 91.25
219 16.62
220 11.28
221 1.59
222 0.39

>  <PREDICTED SPECTRUM>  (3942) 
26 15
27 85
37 28
38 105
39 342
40 14
41 15
44 18
45 283
47 95
49 62
50 253
51 572
52 100
53 73
57 219
58 43
61 30
62 52
63 218
64 60
65 479
66 218
67 4
69 532
70 104
71 123
73 46
74 111
75 129
76 74
77 719
78 252
79 138
80 34
81 115
82 181
83 147
84 184
91 115
92 34
93 93
99 37
107 37
108 369
109 903
110 764
111 403
112 131
125 45
126 29
127 13
140 66
141 233
151 56
153 97
154 169
183 45
184 300
185 316
186 449
218 999
219 460
220 366
221 105

$$$$

     RDKit          2D

 24 24  0  0  0  0  0  0  0  0999 V2000
   15.0079   -5.5812    0.0000 C   0  0  0  0  0  0  0  0  0  0  0  0
   -7.0764   -6.3294    0.0000 C   0  0  0  0  0  0  0  0  0  0  0  0
   13.7087   -6.3310    0.0000 C   0  0  0  0  0  0  0  0  0  0  0  0
   12.4098   -5.5808    0.0000 C   0  0  0  0  0  0  0  0  0  0  0  0
   11.1106   -6.3306    0.0000 C   0  0  0  0  0  0  0  0  0  0  0  0
    9.8117   -5.5804    0.0000 C   0  0  0  0  0  0  0  0  0  0  0  0
    8.5125   -6.3302    0.0000 C   0  0  0  0  0  0  0  0  0  0  0  0
    7.2136   -5.5800    0.0000 C   0  0  0  0  0  0  0  0  0  0  0  0
    5.9145   -6.3298    0.0000 C   0  0  0  0  0  0  0  0  0  0  0  0
    4.6156   -5.5796    0.0000 C   0  0  0  0  0  0  0  0  0  0  0  0
    3.3164   -6.3294    0.0000 C   0  0  0  0  0  0  0  0  0  0  0  0
    2.0175   -5.5792    0.0000 C   0  0  0  0  0  0  0  0  0  0  0  0
    0.7183   -6.3290    0.0000 C   0  0  0  0  0  0  0  0  0  0  0  0
   -3.1798   -8.5802    0.0000 C   0  0  0  0  0  0  0  0  0  0  0  0
   -0.5806   -5.5788    0.0000 C   0  0  0  0  0  0  0  0  0  0  0  0
   -1.8802   -7.8294    0.0000 C   0  0  0  0  0  0  0  0  0  0  0  0
   -4.4788   -7.8302    0.0000 C   0  0  0  0  0  0  0  0  0  0  0  0
   -1.8798   -6.3285    0.0000 C   0  0  0  0  0  0  0  0  0  0  0  0
   -4.4783   -6.3294    0.0000 C   0  0  0  0  0  0  0  0  0  0  0  0
   -3.1788   -5.5785    0.0000 C   0  0  0  0  0  0  0  0  0  0  0  0
   -3.1790   -4.0785    0.0000 C   0  0  0  0  0  0  0  0  0  0  0  0
   -1.8801   -3.3283    0.0000 O   0  0  0  0  0  0  0  0  0  0  0  0
   -4.4782   -3.3288    0.0000 O   0  0  0  0  0  0  0  0  0  0  0  0
   -5.7774   -5.5794    0.0000 O   0  0  0  0  0  0  0  0  0  0  0  0
  3  1  1  0
  4  3  1  0
  5  4  1  0
  6  5  1  0
  7  6  1  0
  8  7  1  0
  9  8  1  0
 10  9  1  0
 11 10  1  0
 12 11  1  0
 13 12  1  0
 15 13  1  0
 16 14  2  0
 17 14  1  0
 18 15  1  0
 18 16  1  0
 19 17  2  0
 20 18  2  0
 20 19  1  0
 21 20  1  0
 22 21  2  0
 23 21  1  0
 24  2  1  0
 24 19  1  0
M  END
>  <NAME>  (3943) 
2-TRIDECYL-6-METHOXYBENZOIC ACID

>  <SYNONYMS>  (3943) 


>  <SPECTRUM TYPE>  (3943) 
MS1

>  <INSTRUMENT TYPE>  (3943) 
EI-B

>  <INSTRUMENT>  (3943) 
JEOL JMS-HX-100

>  <ION MODE>  (3943) 
P

>  <INCHIKEY>  (3943) 
DDGQLWOLBRRZGR-UHFFFAOYSA-N

>  <FORMULA>  (3943) 
C21H34O3

>  <EXACT MASS>  (3943) 
334.25079494799996

>  <MW>  (3943) 
334

>  <ID>  (3943) 
JP005132

>  <CONTRIBUTOR>  (3943) 
University of Tokyo Team, {Faculty of Engineering, University of Tokyo

>  <COMMENT>  (3943) 
SMILES=CCCCCCCCCCCCCc(c1)c(C(O)=O)c(OC)cc1
InChI=InChI=1S/C21H34O3/c1-3-4-5-6-7-8-9-10-11-12-13-15-18-16-14-17-19(24-2)20(18)21(22)23/h14,16-17H,3-13,15H2,1-2H3,(H,22,23)
computed SMILES=O=C(O)C=1C(OC)=CC=CC1CCCCCCCCCCCCC
accession=JP005132
date=2016.01.19 (Created 2008.10.21, modified 2011.05.06)
author=HAYASHI A, FAC. OF SCIENCE AND TECHNOLOGY, KINKI UNIV.
license=CC BY-NC-SA
exact mass=334.25079
ionization energy=70 eV
ion type=[M]+*
computed spectral entropy=3.9513994791069944
computed normalized entropy=0.8239307871222555
SPLASH=splash10-03ec-4902000000-53b1dedec19d88186905
submitter=submitter = University of Tokyo Team (Faculty of Engineering, University of Tokyo)
MoNA Rating=3.75

>  <NUM PEAKS>  (3943) 
121

>  <MASS SPECTRAL PEAKS>  (3943) 
39 5.06
40 1.05
41 31.4
42 5.78
43 43.13
44 1.71
51 2.19
53 2.8
54 1.4
55 15.3
56 3.62
57 13.78
63 1.32
65 4.06
66 1.4
67 2.98
68 1
69 4.96
70 1.24
71 2.45
76 1.1
77 10.55
78 4.91
79 7.61
80 1.03
81 2.01
83 1.52
89 3.13
90 8.12
91 14.45
92 2.72
93 1.85
94 1.6
95 1.28
97 1.19
102 1.52
103 6.94
104 3.12
105 10.2
106 2.06
107 9.69
108 2.77
109 2.28
115 5.38
116 2.28
117 3.12
118 5.66
119 3.74
120 2.16
121 22.2
122 15.05
123 2.08
127 1.32
128 2.45
129 2.73
130 2.02
131 4.35
132 3.53
133 6.51
134 6
135 8.92
136 1.74
144 1.87
145 2.8
146 5.84
147 10.71
148 20.93
149 5.89
150 4.29
151 4.69
152 1.28
157 1.08
158 1.73
159 4.15
160 4.54
161 93.68
162 22.93
163 6.54
164 2.43
165 18.08
166 40.26
167 4.19
171 1.52
173 2.37
174 3.51
175 18.64
176 6.7
177 6.87
178 3.27
179 7.71
180 1.24
185 1.1
187 1.68
189 3.95
190 3.88
191 1.14
199 1.5
201 1.1
203 2.66
204 3.45
207 1.23
217 2.24
231 1.39
259 1.15
273 1.28
287 1.02
290 2.09
298 1.23
299 1.58
302 1.05
315 1.78
316 5.17
317 7.55
318 1.82
320 1.55
332 1
333 1.38
334 99.99
335 24.41
336 3.72
337 0.44

>  <PREDICTED SPECTRUM>  (3943) 
17 30
18 33
26 2
27 63
28 29
29 55
34 3
38 0
39 161
40 66
41 396
42 55
43 430
44 81
45 80
49 2
50 43
51 140
52 64
53 134
54 60
55 297
56 77
57 176
60 20
63 87
64 51
65 166
66 50
67 134
68 45
69 194
70 38
71 112
76 49
77 334
78 196
79 228
80 71
81 113
82 72
83 85
84 52
85 54
89 154
90 144
91 314
92 117
93 90
94 39
95 81
96 0
97 58
98 17
101 21
102 31
103 163
104 150
105 285
106 132
107 277
108 172
109 107
110 38
111 15
114 22
115 135
116 107
117 134
118 150
119 132
120 79
121 458
122 240
123 145
124 10
125 31
127 43
128 18
129 71
130 47
131 142
132 176
133 293
134 333
135 316
136 165
137 150
138 93
139 40
141 36
142 31
144 73
145 128
146 255
147 397
148 574
149 284
150 191
151 215
152 180
153 106
155 8
157 110
158 81
159 169
160 302
161 999
162 501
163 282
164 123
165 324
166 452
167 83
168 28
170 5
171 113
172 97
173 148
174 226
175 512
176 364
177 287
178 113
179 276
180 94
181 27
185 106
186 115
187 129
188 112
189 202
190 157
191 157
192 53
194 90
199 103
200 19
201 82
202 57
203 199
204 107
205 89
206 7
207 104
213 62
214 14
215 46
216 20
217 149
218 22
219 67
227 4
229 74
230 13
231 114
232 0
243 39
244 8
245 104
246 51
249 3
257 76
259 160
260 3
269 37
273 104
274 40
275 64
276 23
277 37
278 4
283 22
284 1
287 116
288 95
289 40
290 120
298 89
299 63
301 30
302 23
303 28
304 20
315 121
316 306
317 254
318 97
319 31
320 1
332 108
333 86
334 995
335 492
336 216
337 48

$$$$

     RDKit          2D

 23 23  0  0  0  0  0  0  0  0999 V2000
   14.6832   -5.7687    0.0000 C   0  0  0  0  0  0  0  0  0  0  0  0
   13.3840   -6.5185    0.0000 C   0  0  0  0  0  0  0  0  0  0  0  0
   12.0851   -5.7683    0.0000 C   0  0  0  0  0  0  0  0  0  0  0  0
   10.7860   -6.5181    0.0000 C   0  0  0  0  0  0  0  0  0  0  0  0
    9.4870   -5.7679    0.0000 C   0  0  0  0  0  0  0  0  0  0  0  0
    8.1879   -6.5177    0.0000 C   0  0  0  0  0  0  0  0  0  0  0  0
    6.8890   -5.7674    0.0000 C   0  0  0  0  0  0  0  0  0  0  0  0
    5.5898   -6.5172    0.0000 C   0  0  0  0  0  0  0  0  0  0  0  0
    4.2909   -5.7670    0.0000 C   0  0  0  0  0  0  0  0  0  0  0  0
    2.9917   -6.5168    0.0000 C   0  0  0  0  0  0  0  0  0  0  0  0
    1.6928   -5.7666    0.0000 C   0  0  0  0  0  0  0  0  0  0  0  0
    0.3936   -6.5164    0.0000 C   0  0  0  0  0  0  0  0  0  0  0  0
   -3.5044   -8.7677    0.0000 C   0  0  0  0  0  0  0  0  0  0  0  0
   -0.9053   -5.7662    0.0000 C   0  0  0  0  0  0  0  0  0  0  0  0
   -2.2049   -8.0168    0.0000 C   0  0  0  0  0  0  0  0  0  0  0  0
   -4.8035   -8.0177    0.0000 C   0  0  0  0  0  0  0  0  0  0  0  0
   -2.2044   -6.5160    0.0000 C   0  0  0  0  0  0  0  0  0  0  0  0
   -4.8030   -6.5168    0.0000 C   0  0  0  0  0  0  0  0  0  0  0  0
   -3.5035   -5.7660    0.0000 C   0  0  0  0  0  0  0  0  0  0  0  0
   -3.5037   -4.2660    0.0000 C   0  0  0  0  0  0  0  0  0  0  0  0
   -6.1020   -5.7668    0.0000 O   0  0  0  0  0  0  0  0  0  0  0  0
   -2.2048   -3.5158    0.0000 O   0  0  0  0  0  0  0  0  0  0  0  0
   -4.8029   -3.5162    0.0000 O   0  0  0  0  0  0  0  0  0  0  0  0
  2  1  1  0
  3  2  1  0
  4  3  1  0
  5  4  1  0
  6  5  1  0
  7  6  1  0
  8  7  1  0
  9  8  1  0
 10  9  1  0
 11 10  1  0
 12 11  1  0
 14 12  1  0
 15 13  2  0
 16 13  1  0
 17 14  1  0
 17 15  1  0
 18 16  2  0
 19 17  2  0
 19 18  1  0
 20 19  1  0
 21 18  1  0
 22 20  2  0
 23 20  1  0
M  END
>  <NAME>  (3944) 
2-TRIDECYL-6-HYDROXYBENZOIC ACID

>  <SYNONYMS>  (3944) 


>  <SPECTRUM TYPE>  (3944) 
MS1

>  <INSTRUMENT TYPE>  (3944) 
EI-B

>  <INSTRUMENT>  (3944) 
JEOL JMS-HX-100

>  <ION MODE>  (3944) 
P

>  <INCHIKEY>  (3944) 
VEPUCZUJLKAVNM-UHFFFAOYSA-N

>  <FORMULA>  (3944) 
C20H32O3

>  <EXACT MASS>  (3944) 
320.23514488399996

>  <MW>  (3944) 
320

>  <ID>  (3944) 
JP005131

>  <CONTRIBUTOR>  (3944) 
University of Tokyo Team, {Faculty of Engineering, University of Tokyo

>  <COMMENT>  (3944) 
SMILES=CCCCCCCCCCCCCc(c1)c(C(O)=O)c(O)cc1
InChI=InChI=1S/C20H32O3/c1-2-3-4-5-6-7-8-9-10-11-12-14-17-15-13-16-18(21)19(17)20(22)23/h13,15-16,21H,2-12,14H2,1H3,(H,22,23)
computed SMILES=O=C(O)C=1C(O)=CC=CC1CCCCCCCCCCCCC
ionization energy=70 eV
computed spectral entropy=4.277387262066551
computed normalized entropy=0.8631026087776575
ion type=[M]+*
accession=JP005131
date=2016.01.19 (Created 2008.10.21, modified 2011.05.06)
author=HAYASHI A, FAC. OF SCIENCE AND TECHNOLOGY, KINKI UNIV.
license=CC BY-NC-SA
exact mass=320.23514
SPLASH=splash10-0596-5912000000-e3210e2a3d493d9d31eb
submitter=submitter = University of Tokyo Team (Faculty of Engineering, University of Tokyo)
MoNA Rating=3.75

>  <NUM PEAKS>  (3944) 
142

>  <MASS SPECTRAL PEAKS>  (3944) 
39 9.85
40 1.76
41 50.92
42 8.76
43 61.24
44 3.41
45 1.17
51 4.91
52 1.91
53 4.57
54 2.15
55 25.5
56 5.07
57 19.35
58 0.85
59 1.11
60 1.3
63 1.89
64 1.13
65 6.74
66 2.7
67 7.39
68 1.83
69 8.89
70 1.86
71 3.32
73 1.05
76 1.09
77 19.97
78 9.89
79 7.65
80 1.46
81 4.79
82 1.14
83 3.32
85 1.33
89 3.22
90 2.86
91 18.14
92 4.11
93 2.63
94 1.65
95 5.18
97 2.23
102 1.57
103 5.6
104 3.07
105 50.12
106 9.92
107 24.86
108 11.36
109 2.2
115 4.54
116 2.14
117 2.98
118 7.58
119 7.61
120 7.82
121 7.64
122 2.17
123 1.81
127 2.29
128 1.7
129 2.16
130 1.72
131 5.95
132 8.16
133 18.65
134 40.04
135 9.34
136 5.62
143 1.11
144 5.69
145 11.17
146 20.86
147 50.04
148 23.29
149 9
150 1.7
151 20.38
152 22.77
153 2.19
157 4.73
158 5.29
159 7.38
160 10.99
161 33.81
162 14.69
163 3.27
164 1.49
165 2.71
171 4.54
172 4.71
173 5.93
174 5.56
175 12.59
176 6.29
177 1.63
183 1.17
185 8.65
186 4.37
187 3.29
188 3.05
189 7.19
190 1.9
199 7.49
200 4.24
201 1.86
202 1.3
203 3.15
213 4.24
214 1.66
217 2.23
227 4.01
228 2.11
231 3.52
241 3.14
242 1.49
245 5.48
246 1.95
255 2.65
256 1.77
259 9.33
260 2.75
269 1.47
273 11
274 3.04
276 2.43
284 7.87
285 4.33
286 1.15
287 1.59
301 1.99
302 31.61
303 7.24
304 1.87
308 1.52
318 2.9
319 1.48
320 99.99
321 22.05
322 3.3

>  <PREDICTED SPECTRUM>  (3944) 
17 31
18 27
26 7
27 78
28 8
29 69
34 17
36 16
37 15
38 27
39 202
40 84
41 511
42 148
43 691
44 201
45 127
49 4
50 75
51 203
52 138
53 183
54 81
55 457
56 105
57 315
58 19
60 74
62 32
63 137
64 89
65 253
66 118
67 263
68 103
69 353
70 89
71 246
73 119
74 75
75 36
76 89
77 451
78 260
79 348
80 152
81 296
82 138
83 209
84 79
85 157
89 130
90 141
91 456
92 180
93 231
94 164
95 223
96 84
97 185
98 135
99 47
100 45
101 27
102 97
103 224
104 228
105 488
106 360
107 530
108 371
109 268
110 155
111 154
112 56
113 16
114 54
115 268
116 178
117 262
118 247
119 277
120 230
121 418
122 238
123 272
124 136
125 72
126 39
127 117
128 163
129 219
130 171
131 332
132 381
133 549
134 648
135 412
136 310
137 265
138 137
139 124
141 122
142 114
143 98
144 217
145 303
146 508
147 789
148 653
149 331
150 164
151 446
152 460
153 379
154 131
155 19
156 70
157 222
158 212
159 423
160 437
161 825
162 483
163 294
164 124
165 171
166 102
167 25
169 2
170 87
171 289
172 271
173 291
174 400
175 505
176 263
177 218
178 54
179 62
180 78
183 46
184 112
185 354
186 300
187 282
188 217
189 442
190 213
191 107
193 55
197 64
198 76
199 388
200 289
201 227
202 167
203 269
204 129
205 71
213 266
214 153
215 192
216 126
217 248
218 78
219 32
221 36
227 236
228 246
229 159
230 41
231 232
232 138
233 9
234 9
240 69
241 258
242 118
243 87
244 43
245 313
246 198
247 16
249 26
255 239
256 177
257 188
258 124
259 477
260 240
261 86
262 15
263 34
264 19
265 2
269 236
270 63
271 28
273 354
274 271
275 154
276 154
277 47
283 62
284 346
285 240
286 101
287 190
288 64
289 18
291 52
292 16
300 146
301 205
302 750
303 310
304 189
305 23
316 56
317 6
318 246
319 148
320 999
321 494
322 213
323 54

$$$$

     RDKit          2D

 27 28  0  0  0  0  0  0  0  0999 V2000
  -17.2140    9.8820    0.0000 C   0  0  0  0  0  0  0  0  0  0  0  0
   -2.9227    9.1332    0.0000 C   0  0  0  0  0  0  0  0  0  0  0  0
   -4.2217    9.8832    0.0000 C   0  0  0  0  0  0  0  0  0  0  0  0
   -1.6236    9.8832    0.0000 C   0  0  0  0  0  0  0  0  0  0  0  0
   -5.5207    9.1332    0.0000 C   0  0  0  0  0  0  0  0  0  0  0  0
   -0.3246    9.1332    0.0000 C   0  0  0  0  0  0  0  0  0  0  0  0
   -6.8198    9.8832    0.0000 C   0  0  0  0  0  0  0  0  0  0  0  0
    0.9745    9.8832    0.0000 C   0  0  0  0  0  0  0  0  0  0  0  0
   -8.1188    9.1332    0.0000 C   0  0  0  0  0  0  0  0  0  0  0  0
    7.4696    7.6332    0.0000 C   0  0  0  0  0  0  0  0  0  0  0  0
    2.2735    9.1332    0.0000 C   0  0  0  0  0  0  0  0  0  0  0  0
    7.4701    9.1341    0.0000 C   0  0  0  0  0  0  0  0  0  0  0  0
    6.1701    6.8824    0.0000 C   0  0  0  0  0  0  0  0  0  0  0  0
   -9.4178    9.8832    0.0000 C   0  0  0  0  0  0  0  0  0  0  0  0
  -13.3163   12.1330    0.0000 C   0  0  0  0  0  0  0  0  0  0  0  0
    3.5725    9.8832    0.0000 C   0  0  0  0  0  0  0  0  0  0  0  0
    6.1711    9.8841    0.0000 C   0  0  0  0  0  0  0  0  0  0  0  0
    4.8711    7.6324    0.0000 C   0  0  0  0  0  0  0  0  0  0  0  0
  -10.7169    9.1332    0.0000 C   0  0  0  0  0  0  0  0  0  0  0  0
  -12.0162   11.3832    0.0000 C   0  0  0  0  0  0  0  0  0  0  0  0
  -14.6162   11.3828    0.0000 C   0  0  0  0  0  0  0  0  0  0  0  0
    4.8716    9.1332    0.0000 C   0  0  0  0  0  0  0  0  0  0  0  0
  -12.0159    9.8832    0.0000 C   0  0  0  0  0  0  0  0  0  0  0  0
  -14.6159    9.8828    0.0000 C   0  0  0  0  0  0  0  0  0  0  0  0
  -13.3158    9.1330    0.0000 C   0  0  0  0  0  0  0  0  0  0  0  0
  -13.3156    7.6330    0.0000 O   0  0  0  0  0  0  0  0  0  0  0  0
  -15.9147    9.1324    0.0000 O   0  0  0  0  0  0  0  0  0  0  0  0
  3  2  1  0
  4  2  1  0
  5  3  1  0
  6  4  1  0
  7  5  1  0
  8  6  1  0
  9  7  1  0
 11  8  1  0
 12 10  2  0
 13 10  1  0
 14  9  1  0
 16 11  1  0
 17 12  1  0
 18 13  2  0
 19 14  1  0
 20 15  2  0
 21 15  1  0
 22 16  1  0
 22 17  2  0
 22 18  1  0
 23 19  1  0
 23 20  1  0
 24 21  2  0
 25 23  2  0
 25 24  1  0
 26 25  1  0
 27  1  1  0
 27 24  1  0
M  END
>  <NAME>  (3945) 
1-(2-HYDROXY-3-METHOXYPHENYL)-12-PHENYLDODECANE

>  <SYNONYMS>  (3945) 


>  <SPECTRUM TYPE>  (3945) 
MS1

>  <INSTRUMENT TYPE>  (3945) 
EI-B

>  <INSTRUMENT>  (3945) 
JEOL JMS-HX-100

>  <ION MODE>  (3945) 
P

>  <INCHIKEY>  (3945) 
FVKLYKTYJMVZBN-UHFFFAOYSA-N

>  <FORMULA>  (3945) 
C25H36O2

>  <EXACT MASS>  (3945) 
368.271530392

>  <MW>  (3945) 
368

>  <ID>  (3945) 
JP005130

>  <CONTRIBUTOR>  (3945) 
University of Tokyo Team, {Faculty of Engineering, University of Tokyo

>  <COMMENT>  (3945) 
SMILES=C(CCCCCCc(c2)c(O)c(OC)cc2)CCCCCc(c1)cccc1
InChI=InChI=1S/C25H36O2/c1-27-24-21-15-20-23(25(24)26)19-14-9-7-5-3-2-4-6-8-11-16-22-17-12-10-13-18-22/h10,12-13,15,17-18,20-21,26H,2-9,11,14,16,19H2,1H3
computed SMILES=OC=1C(OC)=CC=CC1CCCCCCCCCCCCC=2C=CC=CC2
accession=JP005130
date=2016.01.19 (Created 2008.10.21, modified 2011.05.06)
author=HAYASHI A, FAC. OF SCIENCE AND TECHNOLOGY, KINKI UNIV.
license=CC BY-NC-SA
exact mass=368.27153
ionization energy=70 eV
ion type=[M]+*
computed spectral entropy=2.9107333268485407
computed normalized entropy=0.6534589993233622
SPLASH=splash10-014r-3906000000-88d7589cae22d4cefc61
submitter=submitter = University of Tokyo Team (Faculty of Engineering, University of Tokyo)
MoNA Rating=3.75

>  <NUM PEAKS>  (3945) 
86

>  <MASS SPECTRAL PEAKS>  (3945) 
39 1.12
41 4.54
42 0.69
43 2.63
51 0.77
53 0.83
54 0.44
55 3.61
56 0.92
57 1.64
60 0.41
65 2.43
66 1.22
67 1.16
68 0.56
69 2.58
70 0.58
71 0.78
75 0.16
77 3.02
78 2.25
79 2.94
80 0.71
81 2.05
82 0.75
83 0.83
85 0.67
89 0.53
90 0.48
91 27.6
92 4.24
93 1.18
94 2.34
95 1.16
96 0.52
97 0.7
99 0.39
103 1.76
104 2
105 3.31
106 7.61
107 3.83
108 0.97
109 2.53
110 0.6
111 0.65
115 0.87
117 1.44
118 0.57
119 1.51
120 1.04
121 1.31
122 5.13
123 5.76
124 4.34
125 1.86
126 0.52
129 0.52
131 1.67
132 0.55
133 1.08
134 0.39
135 1.31
136 1.7
137 77.4
138 46.47
139 4.63
140 0.8
145 0.13
149 0.59
150 3.42
151 2.22
152 0.16
161 0.38
163 0.72
164 0.89
165 0.52
177 0.5
179 0.59
213 0.4
276 0.56
354 0.9
367 0.41
368 99.99
369 27.6
370 3.99

>  <PREDICTED SPECTRUM>  (3945) 
26 7
27 64
28 37
29 11
39 93
40 17
41 209
42 48
43 171
44 31
50 50
51 87
52 71
53 112
54 64
55 150
56 122
57 155
58 29
63 33
64 28
65 227
66 110
67 115
68 45
69 182
70 98
71 54
74 0
76 20
77 205
78 152
79 189
80 119
81 118
82 33
83 61
84 89
85 33
89 110
90 89
91 596
92 298
93 185
94 185
95 106
96 81
97 67
98 41
99 6
100 4
102 17
103 134
104 149
105 282
106 208
107 136
108 104
109 177
110 72
111 65
112 40
113 36
115 101
116 9
117 97
118 44
119 102
120 70
121 76
122 352
123 211
124 55
125 58
126 6
127 25
128 63
129 64
130 58
131 131
132 14
133 99
134 128
135 127
136 89
137 999
138 744
139 170
140 35
141 28
145 8
146 33
147 42
148 16
149 46
150 88
151 97
152 98
153 31
155 42
156 24
157 17
158 17
159 19
161 58
163 93
164 4
165 46
166 27
168 3
169 25
171 59
172 14
175 20
176 5
177 34
179 86
180 4
184 0
189 38
200 36
206 4
207 19
213 8
217 53
218 50
219 27
235 10
245 1
246 45
247 35
249 80
277 53
278 12
367 51
368 876
369 465
370 164
371 23

$$$$

     RDKit          2D

 25 26  0  0  0  0  0  0  0  0999 V2000
  -15.2654    8.7570    0.0000 C   0  0  0  0  0  0  0  0  0  0  0  0
   -2.2731    8.7582    0.0000 C   0  0  0  0  0  0  0  0  0  0  0  0
   -3.5722    8.0082    0.0000 C   0  0  0  0  0  0  0  0  0  0  0  0
   -0.9741    8.0082    0.0000 C   0  0  0  0  0  0  0  0  0  0  0  0
   -4.8712    8.7582    0.0000 C   0  0  0  0  0  0  0  0  0  0  0  0
    0.3249    8.7582    0.0000 C   0  0  0  0  0  0  0  0  0  0  0  0
   -6.1703    8.0082    0.0000 C   0  0  0  0  0  0  0  0  0  0  0  0
    6.8201    6.5082    0.0000 C   0  0  0  0  0  0  0  0  0  0  0  0
    1.6240    8.0082    0.0000 C   0  0  0  0  0  0  0  0  0  0  0  0
    6.8206    8.0091    0.0000 C   0  0  0  0  0  0  0  0  0  0  0  0
    5.5206    5.7574    0.0000 C   0  0  0  0  0  0  0  0  0  0  0  0
   -7.4693    8.7582    0.0000 C   0  0  0  0  0  0  0  0  0  0  0  0
  -11.3677   11.0080    0.0000 C   0  0  0  0  0  0  0  0  0  0  0  0
    2.9230    8.7582    0.0000 C   0  0  0  0  0  0  0  0  0  0  0  0
    5.5216    8.7591    0.0000 C   0  0  0  0  0  0  0  0  0  0  0  0
    4.2216    6.5074    0.0000 C   0  0  0  0  0  0  0  0  0  0  0  0
   -8.7683    8.0082    0.0000 C   0  0  0  0  0  0  0  0  0  0  0  0
  -10.0676   10.2582    0.0000 C   0  0  0  0  0  0  0  0  0  0  0  0
  -12.6676   10.2578    0.0000 C   0  0  0  0  0  0  0  0  0  0  0  0
    4.2221    8.0082    0.0000 C   0  0  0  0  0  0  0  0  0  0  0  0
  -10.0674    8.7582    0.0000 C   0  0  0  0  0  0  0  0  0  0  0  0
  -12.6674    8.7578    0.0000 C   0  0  0  0  0  0  0  0  0  0  0  0
  -11.3672    8.0080    0.0000 C   0  0  0  0  0  0  0  0  0  0  0  0
  -11.3670    6.5080    0.0000 O   0  0  0  0  0  0  0  0  0  0  0  0
  -13.9662    8.0074    0.0000 O   0  0  0  0  0  0  0  0  0  0  0  0
  3  2  1  0
  4  2  1  0
  5  3  1  0
  6  4  1  0
  7  5  1  0
  9  6  1  0
 10  8  2  0
 11  8  1  0
 12  7  1  0
 14  9  1  0
 15 10  1  0
 16 11  2  0
 17 12  1  0
 18 13  2  0
 19 13  1  0
 20 14  1  0
 20 15  2  0
 20 16  1  0
 21 17  1  0
 21 18  1  0
 22 19  2  0
 23 21  2  0
 23 22  1  0
 24 23  1  0
 25  1  1  0
 25 22  1  0
M  END
>  <NAME>  (3946) 
1-(2-HYDROXY-3-METHOXYPHENYL)-10-PHENYLDECANE

>  <SYNONYMS>  (3946) 


>  <SPECTRUM TYPE>  (3946) 
MS1

>  <INSTRUMENT TYPE>  (3946) 
EI-B

>  <INSTRUMENT>  (3946) 
JEOL JMS-HX-100

>  <ION MODE>  (3946) 
P

>  <INCHIKEY>  (3946) 
CXDMGALFOYTAAG-UHFFFAOYSA-N

>  <FORMULA>  (3946) 
C23H32O2

>  <EXACT MASS>  (3946) 
340.240230264

>  <MW>  (3946) 
340

>  <ID>  (3946) 
JP005129

>  <CONTRIBUTOR>  (3946) 
University of Tokyo Team, {Faculty of Engineering, University of Tokyo

>  <COMMENT>  (3946) 
SMILES=C(CCCCCc(c2)c(O)c(OC)cc2)CCCCc(c1)cccc1
InChI=InChI=1S/C23H32O2/c1-25-22-19-13-18-21(23(22)24)17-12-7-5-3-2-4-6-9-14-20-15-10-8-11-16-20/h8,10-11,13,15-16,18-19,24H,2-7,9,12,14,17H2,1H3
computed SMILES=OC=1C(OC)=CC=CC1CCCCCCCCCCC=2C=CC=CC2
accession=JP005129
date=2016.01.19 (Created 2008.10.21, modified 2011.05.06)
author=HAYASHI A, FAC. OF SCIENCE AND TECHNOLOGY, KINKI UNIV.
license=CC BY-NC-SA
exact mass=340.24023
ionization energy=70 eV
ion type=[M]+*
computed spectral entropy=3.3774657509222945
computed normalized entropy=0.7302671577271175
SPLASH=splash10-000f-5904000000-7bd8e094a9e316d78f28
submitter=submitter = University of Tokyo Team (Faculty of Engineering, University of Tokyo)
MoNA Rating=3.75

>  <NUM PEAKS>  (3946) 
102

>  <MASS SPECTRAL PEAKS>  (3946) 
39 4.38
40 0.93
41 5.68
43 9.52
44 9.88
45 1.94
50 0.65
51 2.11
55 3.04
57 7.47
59 0.72
61 1.41
63 1.05
65 6.51
66 2.91
67 3.42
69 6.58
71 3.35
73 5.51
74 1.1
76 0.74
77 6.86
78 4.96
79 6.99
80 1.33
81 1.74
82 1.71
83 1.24
84 1.35
85 2.22
89 1.18
90 0.99
91 43.65
92 7.09
93 2.31
94 4.61
95 0.92
96 1.12
97 2.46
98 1.35
99 1.09
101 0.82
102 0.69
103 3.37
104 2.8
105 5.9
106 11.43
107 5.91
108 1.26
109 4.8
110 1.03
111 1.41
113 0.91
115 1.09
116 1
117 3.1
119 2.71
120 1.52
121 2.5
122 7.81
123 7.49
124 6.5
125 2.43
126 0.76
127 0.61
129 0.69
131 2.07
132 0.73
133 1.74
134 0.58
135 2
136 2.63
137 99.99
138 63.04
139 6.78
140 0.91
141 0.67
143 0.63
145 0.59
147 1.78
148 0.66
149 0.62
150 5.04
151 2.79
152 0.81
163 1.34
164 1.84
165 0.91
179 0.67
185 1.02
199 0.63
207 1.96
208 0.65
213 1.02
221 1.34
248 0.77
256 0.72
262 0.93
281 1.21
340 99.64
341 27.94
342 3.94

>  <PREDICTED SPECTRUM>  (3946) 
26 4
27 64
28 38
29 34
38 7
39 108
40 33
41 223
42 58
43 162
44 76
45 34
50 52
51 103
52 87
53 120
54 65
55 157
56 93
57 140
58 18
63 42
64 31
65 238
66 110
67 110
69 158
70 67
71 46
76 24
77 225
78 167
79 199
80 118
81 132
82 13
83 44
84 95
85 36
89 115
90 77
91 601
92 294
93 180
94 189
95 104
96 98
97 84
98 30
99 2
100 11
102 18
103 154
104 157
105 286
106 217
107 163
108 87
109 209
110 110
111 90
112 31
113 11
115 97
116 4
117 93
118 43
119 100
120 47
121 74
122 334
123 235
124 76
125 34
126 18
127 47
128 41
130 9
131 123
133 72
134 66
135 171
136 133
137 999
138 733
139 149
140 3
141 36
143 34
147 27
148 26
149 62
150 99
151 147
152 108
153 83
154 9
155 20
156 8
161 44
162 5
163 0
167 5
169 0
172 50
173 10
175 27
176 3
177 16
178 33
179 45
185 9
189 96
190 78
191 58
207 33
208 5
217 1
218 87
219 58
221 94
248 17
249 49
250 2
323 3
339 54
340 865
341 436
342 154
343 23

$$$$

     RDKit          2D

 19 19  0  0  0  0  0  0  0  0999 V2000
   -4.2216    6.8821    0.0000 C   0  0  0  0  0  0  0  0  0  0  0  0
   -5.5207    7.6321    0.0000 C   0  0  0  0  0  0  0  0  0  0  0  0
   -2.9226    7.6321    0.0000 C   0  0  0  0  0  0  0  0  0  0  0  0
   -6.8197    6.8821    0.0000 C   0  0  0  0  0  0  0  0  0  0  0  0
   -1.6236    6.8821    0.0000 C   0  0  0  0  0  0  0  0  0  0  0  0
   -8.1187    7.6321    0.0000 C   0  0  0  0  0  0  0  0  0  0  0  0
   -0.3245    7.6321    0.0000 C   0  0  0  0  0  0  0  0  0  0  0  0
   -9.4178    6.8821    0.0000 C   0  0  0  0  0  0  0  0  0  0  0  0
    6.1707    5.3821    0.0000 C   0  0  0  0  0  0  0  0  0  0  0  0
    0.9745    6.8821    0.0000 C   0  0  0  0  0  0  0  0  0  0  0  0
    6.1712    6.8829    0.0000 C   0  0  0  0  0  0  0  0  0  0  0  0
    4.8712    4.6313    0.0000 C   0  0  0  0  0  0  0  0  0  0  0  0
  -10.7168    7.6321    0.0000 C   0  0  0  0  0  0  0  0  0  0  0  0
    2.2736    7.6321    0.0000 C   0  0  0  0  0  0  0  0  0  0  0  0
    4.8721    7.6329    0.0000 C   0  0  0  0  0  0  0  0  0  0  0  0
    3.5721    5.3813    0.0000 C   0  0  0  0  0  0  0  0  0  0  0  0
  -12.0159    6.8821    0.0000 C   0  0  0  0  0  0  0  0  0  0  0  0
    3.5726    6.8821    0.0000 C   0  0  0  0  0  0  0  0  0  0  0  0
  -13.3149    7.6321    0.0000 O   0  0  0  0  0  0  0  0  0  0  0  0
  2  1  1  0
  3  1  1  0
  4  2  1  0
  5  3  1  0
  6  4  1  0
  7  5  1  0
  8  6  1  0
 10  7  1  0
 11  9  2  0
 12  9  1  0
 13  8  1  0
 14 10  1  0
 15 11  1  0
 16 12  2  0
 17 13  1  0
 18 14  1  0
 18 15  2  0
 18 16  1  0
 19 17  1  0
M  END
>  <NAME>  (3947) 
12-PHEMYLDODECAN-1-OL

>  <SYNONYMS>  (3947) 
12-PHENYL-1-DODECANOL

>  <SPECTRUM TYPE>  (3947) 
MS1

>  <INSTRUMENT TYPE>  (3947) 
EI-B

>  <INSTRUMENT>  (3947) 
JEOL JMS-HX-100

>  <ION MODE>  (3947) 
P

>  <INCHIKEY>  (3947) 
DXFKBQGRBJLAPG-UHFFFAOYSA-N

>  <FORMULA>  (3947) 
C18H30O

>  <EXACT MASS>  (3947) 
262.22966558

>  <MW>  (3947) 
262

>  <ID>  (3947) 
JP005128

>  <CONTRIBUTOR>  (3947) 
University of Tokyo Team, {Faculty of Engineering, University of Tokyo

>  <COMMENT>  (3947) 
SMILES=OCCCCCCCCCCCCc(c1)cccc1
InChI=InChI=1S/C18H30O/c19-17-13-8-6-4-2-1-3-5-7-10-14-18-15-11-9-12-16-18/h9,11-12,15-16,19H,1-8,10,13-14,17H2
computed SMILES=OCCCCCCCCCCCCC=1C=CC=CC1
accession=JP005128
date=2016.01.19 (Created 2008.10.21, modified 2011.05.06)
author=HAYASHI A, FAC. OF SCIENCE AND TECHNOLOGY, KINKI UNIV.
license=CC BY-NC-SA
exact mass=262.22967
ionization energy=70 eV
ion type=[M]+*
computed spectral entropy=2.921019082876264
computed normalized entropy=0.7163684265467664
SPLASH=splash10-0f6x-9700000000-6496e5b8b6475d5603ca
submitter=submitter = University of Tokyo Team (Faculty of Engineering, University of Tokyo)
MoNA Rating=3.75

>  <NUM PEAKS>  (3947) 
59

>  <MASS SPECTRAL PEAKS>  (3947) 
39 2.34
41 12.35
42 2.21
43 6.13
51 1.01
53 1.05
54 1.44
55 17.57
56 1.65
57 2.19
65 4.36
67 2.78
68 1.38
69 9.97
70 0.75
71 0.59
77 2.96
78 3.57
79 3.31
80 0.95
81 1.91
82 1.27
83 5.24
89 0.77
90 0.85
91 80.68
92 51.97
93 5.2
94 3.73
95 1.39
96 0.71
97 3.88
103 2.59
104 99.99
105 21.78
106 2.7
107 0.64
111 0.69
115 1.05
116 0.64
117 23.65
118 9.37
119 2.54
120 0.6
121 0.55
131 10.55
132 3.77
133 3.29
134 1.07
145 2.82
146 0.89
159 1.33
160 0.85
174 0.96
244 6.58
245 1.38
262 14.46
263 3.02
264 0.28

>  <PREDICTED SPECTRUM>  (3947) 
16 0
17 20
18 25
19 8
25 2
26 60
27 196
28 82
29 233
30 9
31 152
32 29
38 23
39 187
40 55
41 414
42 191
43 359
44 77
45 24
49 17
50 73
51 161
52 85
53 145
54 207
55 372
56 132
57 220
58 29
62 29
63 67
64 67
65 300
66 156
67 259
68 183
69 315
70 150
71 168
73 33
74 16
76 48
77 234
78 254
79 166
80 152
81 163
82 213
83 207
84 106
85 139
86 27
87 1
89 80
90 61
91 999
92 678
93 273
94 146
95 112
96 178
97 178
98 70
99 21
102 18
103 104
104 898
105 481
106 228
107 90
108 36
109 95
110 59
111 46
112 50
115 148
116 75
117 452
118 236
119 161
120 117
121 66
122 67
123 12
126 3
127 10
129 70
130 11
131 125
132 269
133 245
134 141
135 86
136 35
137 46
143 15
145 110
146 26
147 62
153 36
154 64
157 11
159 107
160 35
161 51
162 32
170 67
171 27
172 64
173 125
174 63
175 79
187 44
188 38
201 37
202 28
216 86
217 51
218 3
230 59
244 191
245 122
260 67
262 300
263 129

$$$$

     RDKit          2D

 17 17  0  0  0  0  0  0  0  0999 V2000
   -3.5721    6.5071    0.0000 C   0  0  0  0  0  0  0  0  0  0  0  0
   -4.8712    5.7571    0.0000 C   0  0  0  0  0  0  0  0  0  0  0  0
   -2.2731    5.7571    0.0000 C   0  0  0  0  0  0  0  0  0  0  0  0
   -6.1702    6.5071    0.0000 C   0  0  0  0  0  0  0  0  0  0  0  0
   -0.9740    6.5071    0.0000 C   0  0  0  0  0  0  0  0  0  0  0  0
   -7.4692    5.7571    0.0000 C   0  0  0  0  0  0  0  0  0  0  0  0
    5.5212    4.2571    0.0000 C   0  0  0  0  0  0  0  0  0  0  0  0
    0.3250    5.7571    0.0000 C   0  0  0  0  0  0  0  0  0  0  0  0
    5.5216    5.7579    0.0000 C   0  0  0  0  0  0  0  0  0  0  0  0
    4.2216    3.5063    0.0000 C   0  0  0  0  0  0  0  0  0  0  0  0
   -8.7683    6.5071    0.0000 C   0  0  0  0  0  0  0  0  0  0  0  0
    1.6240    6.5071    0.0000 C   0  0  0  0  0  0  0  0  0  0  0  0
    4.2226    6.5079    0.0000 C   0  0  0  0  0  0  0  0  0  0  0  0
    2.9226    4.2563    0.0000 C   0  0  0  0  0  0  0  0  0  0  0  0
  -10.0673    5.7571    0.0000 C   0  0  0  0  0  0  0  0  0  0  0  0
    2.9231    5.7571    0.0000 C   0  0  0  0  0  0  0  0  0  0  0  0
  -11.3663    6.5071    0.0000 O   0  0  0  0  0  0  0  0  0  0  0  0
  2  1  1  0
  3  1  1  0
  4  2  1  0
  5  3  1  0
  6  4  1  0
  8  5  1  0
  9  7  2  0
 10  7  1  0
 11  6  1  0
 12  8  1  0
 13  9  1  0
 14 10  2  0
 15 11  1  0
 16 12  1  0
 16 13  2  0
 16 14  1  0
 17 15  1  0
M  END
>  <NAME>  (3948) 
10-PHENYLDECAN-1-OL

>  <SYNONYMS>  (3948) 
10-PHENYL-1-DECANOL

>  <SPECTRUM TYPE>  (3948) 
MS1

>  <INSTRUMENT TYPE>  (3948) 
EI-B

>  <INSTRUMENT>  (3948) 
JEOL JMS-HX-100

>  <ION MODE>  (3948) 
P

>  <INCHIKEY>  (3948) 
WNFXODBOMMSELY-UHFFFAOYSA-N

>  <FORMULA>  (3948) 
C16H26O

>  <EXACT MASS>  (3948) 
234.198365452

>  <MW>  (3948) 
234

>  <ID>  (3948) 
JP005127

>  <CONTRIBUTOR>  (3948) 
University of Tokyo Team, {Faculty of Engineering, University of Tokyo

>  <COMMENT>  (3948) 
SMILES=OCCCCCCCCCCc(c1)cccc1
InChI=InChI=1S/C16H26O/c17-15-11-6-4-2-1-3-5-8-12-16-13-9-7-10-14-16/h7,9-10,13-14,17H,1-6,8,11-12,15H2
computed SMILES=OCCCCCCCCCCC=1C=CC=CC1
accession=JP005127
date=2016.01.19 (Created 2008.10.21, modified 2011.05.06)
author=HAYASHI A, FAC. OF SCIENCE AND TECHNOLOGY, KINKI UNIV.
license=CC BY-NC-SA
exact mass=234.19837
ionization energy=70 eV
ion type=[M]+*
computed spectral entropy=2.943765881980457
computed normalized entropy=0.7078260732452218
SPLASH=splash10-0f6x-9610000000-d7ff83701b1103a91506
submitter=submitter = University of Tokyo Team (Faculty of Engineering, University of Tokyo)
MoNA Rating=3.75

>  <NUM PEAKS>  (3948) 
64

>  <MASS SPECTRAL PEAKS>  (3948) 
39 3.46
41 14.64
42 1.59
43 1.67
51 1.66
53 1.41
54 1.57
55 16.84
56 1.89
57 2.85
63 0.91
65 7.11
66 0.74
67 2.94
68 1.72
69 11.84
70 0.96
77 4.35
78 4.6
79 4.46
80 0.96
81 2.37
82 1.68
83 5.41
89 1.27
90 0.97
91 95.07
92 57.45
93 5.6
94 3.63
95 1.54
96 0.88
97 0.66
103 2.78
104 99.99
105 22.52
106 2.63
107 1.02
115 1.6
116 0.75
117 25.5
118 9.59
119 2.65
120 0.82
130 0.52
131 8.67
132 3.66
133 3.36
134 1.3
135 0.6
145 2.65
146 0.95
147 0.67
159 1.55
160 0.91
173 0.65
174 0.54
188 0.71
199 0.55
216 5.48
217 1.06
234 20.56
235 4.14
236 0.45

>  <PREDICTED SPECTRUM>  (3948) 
17 9
18 11
19 7
25 1
26 56
27 202
28 90
29 233
30 15
31 157
32 32
38 32
39 203
40 61
41 406
42 182
43 321
44 84
45 62
49 25
50 91
51 178
52 97
53 143
54 180
55 318
56 99
57 212
58 47
61 10
62 40
63 83
64 81
65 304
66 147
67 219
68 184
69 265
70 124
71 110
74 3
75 17
76 65
77 243
78 265
79 192
80 144
81 159
82 185
83 187
84 105
85 100
86 11
87 61
89 88
90 53
91 999
92 657
93 256
94 126
95 81
96 78
97 130
98 26
99 8
101 19
102 39
103 87
104 857
105 459
106 212
107 129
108 36
109 74
110 31
111 20
115 142
116 63
117 450
118 201
119 106
120 34
121 26
122 31
129 25
130 7
131 187
132 289
133 217
134 95
142 31
143 30
144 3
145 169
146 68
147 77
148 0
154 40
159 69
160 57
162 18
172 19
173 44
174 33
175 30
187 17
188 91
189 44
190 4
202 41
216 145
217 104
232 43
234 245
235 41

$$$$

     RDKit          2D

 14 13  0  0  0  0  0  0  0  0999 V2000
  -11.3666    8.4375    0.0000 C   0  0  0  0  0  0  0  0  0  0  0  0
  -10.0675    7.6875    0.0000 C   0  0  0  0  0  0  0  0  0  0  0  0
   -8.7685    8.4375    0.0000 C   0  0  0  0  0  0  0  0  0  0  0  0
   -7.4695    7.6875    0.0000 C   0  0  0  0  0  0  0  0  0  0  0  0
   -6.1704    8.4375    0.0000 C   0  0  0  0  0  0  0  0  0  0  0  0
   -4.8714    7.6875    0.0000 C   0  0  0  0  0  0  0  0  0  0  0  0
   -3.5724    8.4375    0.0000 C   0  0  0  0  0  0  0  0  0  0  0  0
   -2.2733    7.6875    0.0000 C   0  0  0  0  0  0  0  0  0  0  0  0
   -0.9743    8.4375    0.0000 C   0  0  0  0  0  0  0  0  0  0  0  0
    0.3248    7.6875    0.0000 C   0  0  0  0  0  0  0  0  0  0  0  0
    1.6238    8.4375    0.0000 C   0  0  0  0  0  0  0  0  0  0  0  0
    2.9228    7.6875    0.0000 C   0  0  0  0  0  0  0  0  0  0  0  0
    2.9228    6.1875    0.0000 C   0  0  0  0  0  0  0  0  0  0  0  0
    4.2219    5.4375    0.0000 O   0  0  0  0  0  0  0  0  0  0  0  0
  2  1  1  0
  3  2  1  0
  4  3  1  0
  5  4  1  0
  6  5  1  0
  7  6  1  0
  8  7  1  0
  9  8  1  0
 10  9  1  0
 11 10  1  0
 11 12  2  0
 13 12  1  0
 14 13  1  0
M  END
>  <NAME>  (3949) 
(Z)-2-TRIDECEN-1-OL

>  <SYNONYMS>  (3949) 


>  <SPECTRUM TYPE>  (3949) 
MS1

>  <INSTRUMENT TYPE>  (3949) 
EI-B

>  <INSTRUMENT>  (3949) 
JEOL JMS-HX-100

>  <ION MODE>  (3949) 
P

>  <INCHIKEY>  (3949) 
VPYJHNADOJDSGU-QXMHVHEDSA-N

>  <FORMULA>  (3949) 
C13H26O

>  <EXACT MASS>  (3949) 
198.198365452

>  <MW>  (3949) 
198

>  <ID>  (3949) 
JP005126

>  <CONTRIBUTOR>  (3949) 
University of Tokyo Team, {Faculty of Engineering, University of Tokyo

>  <COMMENT>  (3949) 
SMILES=CCCCCCCCCCC([H])=C([H])CO
InChI=InChI=1S/C13H26O/c1-2-3-4-5-6-7-8-9-10-11-12-13-14/h11-12,14H,2-10,13H2,1H3/b12-11-
computed SMILES=OCC=CCCCCCCCCCC
accession=JP005126
date=2016.01.19 (Created 2008.10.21, modified 2011.05.06)
author=HAYASHI A, FAC. OF SCIENCE AND TECHNOLOGY, KINKI UNIV.
license=CC BY-NC-SA
exact mass=198.19837
ionization energy=70 eV
ion type=[M]+*
computed spectral entropy=3.330755244131143
computed normalized entropy=0.8238221638765142
SPLASH=splash10-0aou-9000000000-d100174becd06d967c78
submitter=submitter = University of Tokyo Team (Faculty of Engineering, University of Tokyo)
MoNA Rating=3.75

>  <NUM PEAKS>  (3949) 
57

>  <MASS SPECTRAL PEAKS>  (3949) 
39 12.38
40 2.69
41 58.84
42 16.18
43 73.61
44 14.77
45 5.61
51 0.87
52 0.65
53 7.3
54 25.01
55 54.07
56 28.67
57 99.99
58 10.24
59 1.15
65 1.39
66 6.31
67 39.86
68 43.11
69 35.54
70 20.88
71 20.02
72 7.29
73 1.92
77 1.07
79 2.81
80 2.41
81 32.68
82 52.36
83 27.85
84 10.36
85 8.2
86 1.47
93 0.71
94 1.54
95 27.15
96 27.44
97 14.99
98 4.67
99 2.72
109 11.99
110 8.99
111 4.32
112 2.01
113 0.99
123 5.13
124 5.85
125 1.27
126 1.54
137 2.27
138 1.83
151 0.67
152 2.41
180 1.16
181 0.18
198 0.35

>  <PREDICTED SPECTRUM>  (3949) 
25 1
26 48
27 279
28 109
29 336
30 53
31 161
32 14
33 3
37 4
38 36
39 337
40 157
41 999
42 514
43 936
44 388
45 161
46 30
47 9
49 1
50 42
51 83
52 93
53 349
54 562
55 932
56 621
57 886
58 236
59 113
60 52
61 33
63 31
65 139
66 239
67 667
68 673
69 717
70 529
71 526
72 223
73 119
74 54
75 18
77 120
78 69
79 271
80 180
81 658
82 675
83 635
84 353
85 325
86 134
87 70
88 26
91 151
92 39
93 121
94 146
95 484
96 536
97 465
98 265
99 161
100 93
105 23
106 18
107 80
108 42
109 338
110 332
111 266
112 180
113 89
114 4
115 20
121 52
122 62
123 218
124 205
125 95
126 101
127 87
128 57
136 9
137 141
138 165
139 72
140 39
141 23
149 5
151 78
152 86
153 45
154 76
155 31
165 57
166 45
167 43
169 7
180 119
181 57

$$$$

     RDKit          2D

 14 15  0  0  0  0  0  0  0  0999 V2000
    6.1270    3.5406    0.0000 C   0  0  0  0  0  0  0  0  0  0  0  0
   -0.3700   -1.7100    0.0000 C   0  0  0  0  0  0  0  0  0  0  0  0
    7.4270    2.7906    0.0000 C   0  0  0  0  0  0  0  0  0  0  0  0
   -1.6700   -0.9600    0.0000 C   0  0  0  0  0  0  0  0  0  0  0  0
    4.8270    2.7906    0.0000 C   0  0  0  0  0  0  0  0  0  0  0  0
    0.9300   -0.9600    0.0000 C   0  0  0  0  0  0  0  0  0  0  0  0
    3.5281    0.5404    0.0000 C   0  0  0  0  0  0  0  0  0  0  0  0
    2.2289    1.2902    0.0000 C   0  0  0  0  0  0  0  0  0  0  0  0
    7.4270    1.2906    0.0000 C   0  0  0  0  0  0  0  0  0  0  0  0
   -1.6700    0.5400    0.0000 C   0  0  0  0  0  0  0  0  0  0  0  0
    4.8270    1.2906    0.0000 C   0  0  0  0  0  0  0  0  0  0  0  0
    0.9300    0.5400    0.0000 C   0  0  0  0  0  0  0  0  0  0  0  0
    6.1270    0.5406    0.0000 N   0  0  0  0  0  0  0  0  0  0  0  0
   -0.3700    1.2900    0.0000 N   0  0  0  0  0  0  0  0  0  0  0  0
  3  1  2  0
  4  2  2  0
  5  1  1  0
  6  2  1  0
  7  8  2  0
  9  3  1  0
 10  4  1  0
 11  5  2  0
 11  7  1  0
 12  6  2  0
 12  8  1  0
 13  9  2  0
 13 11  1  0
 14 10  2  0
 14 12  1  0
M  END
>  <NAME>  (3950) 
2,2'-TRANS-VINYLENEDIPYRIDINE

>  <SYNONYMS>  (3950) 


>  <SPECTRUM TYPE>  (3950) 
MS1

>  <INSTRUMENT TYPE>  (3950) 
EI-B

>  <INSTRUMENT>  (3950) 
MX-1309

>  <ION MODE>  (3950) 
P

>  <INCHIKEY>  (3950) 
HKEOCEQLCZEBMK-BQYQJAHWSA-N

>  <FORMULA>  (3950) 
C12H10N2

>  <EXACT MASS>  (3950) 
182.08439832

>  <MW>  (3950) 
182

>  <ID>  (3950) 
JP005106

>  <CONTRIBUTOR>  (3950) 
University of Tokyo Team, {Faculty of Engineering, University of Tokyo

>  <COMMENT>  (3950) 
SMILES=[H]C(c(c2)nccc2)=C([H])c(c1)nccc1
InChI=InChI=1S/C12H10N2/c1-3-9-13-11(5-1)7-8-12-6-2-4-10-14-12/h1-10H/b8-7+
computed SMILES=N=1C=CC=CC1C=CC2=NC=CC=C2
accession=JP005106
date=2016.01.19 (Created 2008.10.21, modified 2011.05.06)
author=SASAKI S, TOYOHASHI UNIV. OF TECH.
license=CC BY-NC-SA
exact mass=182.0844
ionization energy=70 eV
ion type=[M]+*
computed spectral entropy=2.480244068072201
computed normalized entropy=0.7033438727431794
SPLASH=splash10-001i-4900000000-61885906bd1eb44fbf8b
submitter=submitter = University of Tokyo Team (Faculty of Engineering, University of Tokyo)
MoNA Rating=3.75

>  <NUM PEAKS>  (3950) 
34

>  <MASS SPECTRAL PEAKS>  (3950) 
50 5.6
51 17.9
52 12.1
62 0.11
63 4.5
64 2.6
65 1.2
75 0.2
76 3.9
77 13.8
78 25.9
79 0.89
80 1.2
90 5.9
91 13.1
101 0.14
102 1.6
103 1.4
104 28.3
105 0.23
126 1.3
127 4.5
128 2.6
129 0.17
130 1.3
152 1.6
153 2.1
154 1.03
155 2.5
179 3.8
180 3.8
181 99.99
182 51.1
183 6

>  <PREDICTED SPECTRUM>  (3950) 
26 23
37 5
39 6
50 173
51 353
52 205
53 76
54 3
62 4
63 97
64 88
65 85
75 54
76 104
77 264
78 380
79 159
89 8
90 130
91 117
92 28
101 23
102 64
103 89
104 339
105 122
127 125
128 106
129 130
130 57
153 44
154 201
155 114
156 24
179 97
180 107
181 999
182 521
183 107

$$$$

     RDKit          2D

 14 15  0  0  0  0  0  0  0  0999 V2000
   -1.2990    2.5700    0.0000 C   0  0  0  0  0  0  0  0  0  0  0  0
    0.0000    3.3200    0.0000 C   0  0  0  0  0  0  0  0  0  0  0  0
   -3.8976    2.5692    0.0000 C   0  0  0  0  0  0  0  0  0  0  0  0
   -2.5976    4.8208    0.0000 C   0  0  0  0  0  0  0  0  0  0  0  0
    2.5986    3.3208    0.0000 C   0  0  0  0  0  0  0  0  0  0  0  0
    1.2986    1.0692    0.0000 C   0  0  0  0  0  0  0  0  0  0  0  0
   -5.1966    3.3192    0.0000 C   0  0  0  0  0  0  0  0  0  0  0  0
   -3.8966    5.5708    0.0000 C   0  0  0  0  0  0  0  0  0  0  0  0
    3.8976    2.5708    0.0000 C   0  0  0  0  0  0  0  0  0  0  0  0
    2.5976    0.3192    0.0000 C   0  0  0  0  0  0  0  0  0  0  0  0
   -2.5981    3.3200    0.0000 C   0  0  0  0  0  0  0  0  0  0  0  0
    1.2990    2.5700    0.0000 C   0  0  0  0  0  0  0  0  0  0  0  0
   -5.1962    4.8200    0.0000 N   0  0  0  0  0  0  0  0  0  0  0  0
    3.8971    1.0700    0.0000 N   0  0  0  0  0  0  0  0  0  0  0  0
  1  2  2  0
  7  3  2  0
  8  4  1  0
  9  5  2  0
 10  6  1  0
 11  1  1  0
 11  3  1  0
 11  4  2  0
 12  2  1  0
 12  5  1  0
 12  6  2  0
 13  7  1  0
 13  8  2  0
 14  9  1  0
 14 10  2  0
M  END
>  <NAME>  (3951) 
4,4'-TRANS-VINYLENEDIPYRIDINE

>  <SYNONYMS>  (3951) 


>  <SPECTRUM TYPE>  (3951) 
MS1

>  <INSTRUMENT TYPE>  (3951) 
EI-B

>  <INSTRUMENT>  (3951) 
MX-1309

>  <ION MODE>  (3951) 
P

>  <INCHIKEY>  (3951) 
MGFJDEHFNMWYBD-OWOJBTEDSA-N

>  <FORMULA>  (3951) 
C12H10N2

>  <EXACT MASS>  (3951) 
182.08439832

>  <MW>  (3951) 
182

>  <ID>  (3951) 
JP005105

>  <CONTRIBUTOR>  (3951) 
University of Tokyo Team, {Faculty of Engineering, University of Tokyo

>  <COMMENT>  (3951) 
SMILES=n(c2)ccc(c2)C=Cc(c1)ccnc1
InChI=InChI=1S/C12H10N2/c1(11-3-7-13-8-4-11)2-12-5-9-14-10-6-12/h1-10H/b2-1+
computed SMILES=N=1C=CC(=CC1)C=CC=2C=CN=CC2
accession=JP005105
date=2016.01.19 (Created 2008.10.21, modified 2011.05.06)
author=SASAKI S, TOYOHASHI UNIV. OF TECH.
license=CC BY-NC-SA
exact mass=182.0844
ionization energy=70 eV
ion type=[M]+*
computed spectral entropy=2.895325582547365
computed normalized entropy=0.7562279364169258
SPLASH=splash10-0ugi-9600000000-909a6430546f52bff5f0
submitter=submitter = University of Tokyo Team (Faculty of Engineering, University of Tokyo)
MoNA Rating=3.75

>  <NUM PEAKS>  (3951) 
46

>  <MASS SPECTRAL PEAKS>  (3951) 
50 23.9
51 64.9
52 19.3
61 0.21
62 6.7
63 33.8
64 12.6
65 0.46
75 13.4
76 19.6
77 61
78 1.37
79 6.6
80 1.2
84 4.3
87 0.33
88 2.5
89 8.4
90 6
91 0.83
98 1.3
99 2
100 1.8
101 1.05
102 9.2
103 3.9
104 2.9
114 0.11
115 1.5
126 3
127 12.5
128 0.54
129 3.7
140 1.3
141 1.3
142 0.12
152 2
153 3
154 23.2
155 1.02
156 1.4
179 3.9
180 3.3
181 9.91
182 99.99
183 14.3

>  <PREDICTED SPECTRUM>  (3951) 
26 94
27 158
28 79
29 20
36 30
37 154
38 251
39 441
40 196
41 209
42 77
43 62
44 56
49 119
50 464
51 627
52 405
53 261
54 151
55 100
56 9
57 78
61 152
62 279
63 443
64 282
65 253
66 91
67 107
68 63
69 100
70 88
71 23
73 55
74 284
75 342
76 400
77 415
78 430
79 204
80 109
81 24
82 74
83 52
84 95
85 110
86 170
87 198
88 174
89 231
90 101
91 37
96 24
97 35
98 113
99 170
100 128
101 191
102 214
103 262
104 354
105 157
106 67
110 48
111 89
112 40
113 127
114 96
115 245
116 137
124 6
125 129
126 242
127 341
128 335
129 348
130 187
131 162
138 46
139 156
140 163
141 95
142 133
143 27
151 87
152 242
153 334
154 419
155 342
156 173
157 54
165 17
166 26
167 132
168 11
179 153
180 215
181 999
182 973
183 321
184 57

$$$$

     RDKit          2D

 14 15  0  0  0  0  0  0  0  0999 V2000
    7.4248    2.7910    0.0000 C   0  0  0  0  0  0  0  0  0  0  0  0
    6.1252    3.5417    0.0000 C   0  0  0  0  0  0  0  0  0  0  0  0
    7.4256    1.2902    0.0000 C   0  0  0  0  0  0  0  0  0  0  0  0
   -0.3700   -1.7100    0.0000 C   0  0  0  0  0  0  0  0  0  0  0  0
   -1.6700   -0.9600    0.0000 C   0  0  0  0  0  0  0  0  0  0  0  0
    4.8263    2.7915    0.0000 C   0  0  0  0  0  0  0  0  0  0  0  0
    6.1266    0.5400    0.0000 C   0  0  0  0  0  0  0  0  0  0  0  0
    0.9300   -0.9600    0.0000 C   0  0  0  0  0  0  0  0  0  0  0  0
    3.5281    0.5404    0.0000 C   0  0  0  0  0  0  0  0  0  0  0  0
    2.2289    1.2902    0.0000 C   0  0  0  0  0  0  0  0  0  0  0  0
   -1.6700    0.5400    0.0000 C   0  0  0  0  0  0  0  0  0  0  0  0
    4.8270    1.2906    0.0000 C   0  0  0  0  0  0  0  0  0  0  0  0
    0.9300    0.5400    0.0000 C   0  0  0  0  0  0  0  0  0  0  0  0
   -0.3700    1.2900    0.0000 N   0  0  0  0  0  0  0  0  0  0  0  0
  2  1  2  0
  3  1  1  0
  5  4  2  0
  6  2  1  0
  7  3  2  0
  8  4  1  0
  9 10  2  0
 11  5  1  0
 12  6  2  0
 12  7  1  0
 12  9  1  0
 13  8  2  0
 13 10  1  0
 14 11  2  0
 14 13  1  0
M  END
>  <NAME>  (3952) 
2-(TRANS-STYRYL)PYRIDINE

>  <SYNONYMS>  (3952) 


>  <SPECTRUM TYPE>  (3952) 
MS1

>  <INSTRUMENT TYPE>  (3952) 
EI-B

>  <INSTRUMENT>  (3952) 
MX-1309

>  <ION MODE>  (3952) 
P

>  <INCHIKEY>  (3952) 
BIAWAXVRXKIUQB-MDZDMXLPSA-N

>  <FORMULA>  (3952) 
C13H11N

>  <EXACT MASS>  (3952) 
181.089149352

>  <MW>  (3952) 
181

>  <ID>  (3952) 
JP005104

>  <CONTRIBUTOR>  (3952) 
University of Tokyo Team, {Faculty of Engineering, University of Tokyo

>  <COMMENT>  (3952) 
SMILES=[H]C(c(c2)cccc2)=C([H])c(c1)nccc1
InChI=InChI=1S/C13H11N/c1-2-6-12(7-3-1)9-10-13-8-4-5-11-14-13/h1-11H/b10-9+
computed SMILES=N=1C=CC=CC1C=CC=2C=CC=CC2
accession=JP005104
date=2016.01.19 (Created 2008.10.21, modified 2011.05.06)
author=SASAKI S, TOYOHASHI UNIV. OF TECH.
license=CC BY-NC-SA
exact mass=181.08915
ionization energy=70 eV
ion type=[M]+*
computed spectral entropy=2.1986925854400474
computed normalized entropy=0.6598312254623419
SPLASH=splash10-001i-2900000000-1c4ce796226bcc051aa8
submitter=submitter = University of Tokyo Team (Faculty of Engineering, University of Tokyo)
MoNA Rating=3.75

>  <NUM PEAKS>  (3952) 
28

>  <MASS SPECTRAL PEAKS>  (3952) 
50 2.6
51 8.1
52 1.7
63 0.38
64 1
75 2.2
76 5.7
77 1.13
78 6.9
79 5.8
89 6.4
90 1.08
91 1.4
101 1
102 2.2
104 0.14
126 12.2
127 2.9
128 2.2
151 0.4
152 11.8
153 4
154 1.6
178 0.48
179 4.7
180 99.99
181 32.9
182 6.5

>  <PREDICTED SPECTRUM>  (3952) 
26 33
27 65
28 37
37 31
38 64
39 140
40 36
41 28
42 12
44 29
49 42
50 191
51 323
52 170
53 76
54 8
61 20
62 110
63 223
64 107
65 106
71 56
74 69
75 160
76 193
77 328
78 236
79 82
86 16
87 65
88 40
89 157
90 98
92 6
96 5
99 33
100 6
101 107
102 128
103 130
104 118
105 12
110 5
111 10
113 40
114 14
115 39
124 0
125 48
126 89
127 182
128 135
139 31
151 140
152 210
153 160
154 100
155 12
177 26
178 163
179 213
180 999
181 509
182 86

$$$$

     RDKit          2D

 40 43  0  0  0  0  0  0  0  0999 V2000
  -20.1648    2.5103    0.0000 C   0  0  0  0  0  0  0  0  0  0  0  0
   14.9672   -7.0108    0.0000 C   0  0  0  0  0  0  0  0  0  0  0  0
  -18.8559    1.7777    0.0000 C   0  0  0  0  0  0  0  0  0  0  0  0
   13.6583   -6.2781    0.0000 C   0  0  0  0  0  0  0  0  0  0  0  0
  -17.5669    2.5450    0.0000 C   0  0  0  0  0  0  0  0  0  0  0  0
   12.3694   -7.0454    0.0000 C   0  0  0  0  0  0  0  0  0  0  0  0
  -16.2580    1.8124    0.0000 C   0  0  0  0  0  0  0  0  0  0  0  0
   11.0604   -6.3128    0.0000 C   0  0  0  0  0  0  0  0  0  0  0  0
  -14.9691    2.5796    0.0000 C   0  0  0  0  0  0  0  0  0  0  0  0
    9.7715   -7.0800    0.0000 C   0  0  0  0  0  0  0  0  0  0  0  0
   -9.7408   -0.3807    0.0000 C   0  0  0  0  0  0  0  0  0  0  0  0
   -8.4386    1.8508    0.0000 C   0  0  0  0  0  0  0  0  0  0  0  0
    4.5432   -4.1198    0.0000 C   0  0  0  0  0  0  0  0  0  0  0  0
    3.2410   -6.3513    0.0000 C   0  0  0  0  0  0  0  0  0  0  0  0
  -11.0290    0.3377    0.0000 C   0  0  0  0  0  0  0  0  0  0  0  0
   -9.7671    2.6382    0.0000 C   0  0  0  0  0  0  0  0  0  0  0  0
    5.8314   -4.8381    0.0000 C   0  0  0  0  0  0  0  0  0  0  0  0
    4.5695   -7.1387    0.0000 C   0  0  0  0  0  0  0  0  0  0  0  0
  -13.6602    1.8470    0.0000 C   0  0  0  0  0  0  0  0  0  0  0  0
    8.4626   -6.3474    0.0000 C   0  0  0  0  0  0  0  0  0  0  0  0
   -4.5479   -0.3747    0.0000 C   0  0  0  0  0  0  0  0  0  0  0  0
   -5.8465   -2.6255    0.0000 C   0  0  0  0  0  0  0  0  0  0  0  0
   -0.6497   -4.1257    0.0000 C   0  0  0  0  0  0  0  0  0  0  0  0
    0.6489   -1.8749    0.0000 C   0  0  0  0  0  0  0  0  0  0  0  0
   -8.4456    0.3759    0.0000 C   0  0  0  0  0  0  0  0  0  0  0  0
    3.2480   -4.8764    0.0000 C   0  0  0  0  0  0  0  0  0  0  0  0
   -4.5474   -1.8755    0.0000 C   0  0  0  0  0  0  0  0  0  0  0  0
   -0.6502   -2.6249    0.0000 C   0  0  0  0  0  0  0  0  0  0  0  0
  -11.0623    1.8816    0.0000 C   0  0  0  0  0  0  0  0  0  0  0  0
    5.8647   -6.3821    0.0000 C   0  0  0  0  0  0  0  0  0  0  0  0
   -7.1465   -0.3739    0.0000 C   0  0  0  0  0  0  0  0  0  0  0  0
    1.9489   -4.1266    0.0000 C   0  0  0  0  0  0  0  0  0  0  0  0
   -5.8474    0.3761    0.0000 N   0  0  0  0  0  0  0  0  0  0  0  0
   -7.1460   -1.8747    0.0000 N   0  0  0  0  0  0  0  0  0  0  0  0
    0.6498   -4.8766    0.0000 N   0  0  0  0  0  0  0  0  0  0  0  0
    1.9484   -2.6257    0.0000 N   0  0  0  0  0  0  0  0  0  0  0  0
   -3.2483   -2.6253    0.0000 N   0  0  0  0  0  0  0  0  0  0  0  0
   -1.9493   -1.8751    0.0000 N   0  0  0  0  0  0  0  0  0  0  0  0
  -12.3713    2.6143    0.0000 O   0  0  0  0  0  0  0  0  0  0  0  0
    7.1737   -7.1147    0.0000 O   0  0  0  0  0  0  0  0  0  0  0  0
  3  1  1  0
  4  2  1  0
  5  3  1  0
  6  4  1  0
  7  5  1  0
  8  6  1  0
  9  7  1  0
 10  8  1  0
 15 11  2  0
 16 12  1  0
 17 13  2  0
 18 14  1  0
 19  9  1  0
 20 10  1  0
 25 11  1  0
 25 12  2  0
 26 13  1  0
 26 14  2  0
 27 21  2  0
 27 22  1  0
 28 23  2  0
 28 24  1  0
 29 15  1  0
 29 16  2  0
 30 17  1  0
 30 18  2  0
 31 25  1  0
 32 26  1  0
 33 21  1  0
 33 31  2  0
 34 22  2  0
 34 31  1  0
 35 23  1  0
 35 32  2  0
 36 24  2  0
 36 32  1  0
 37 27  1  0
 38 28  1  0
 37 38  2  0
 39 19  1  0
 39 29  1  0
 40 20  1  0
 40 30  1  0
M  END
>  <NAME>  (3953) 
2,2'-DI(4-HEXYLOXYPHENYL)-5,5'-DIAZODIPYRIMIDINE

>  <SYNONYMS>  (3953) 


>  <SPECTRUM TYPE>  (3953) 
MS1

>  <INSTRUMENT TYPE>  (3953) 
EI-B

>  <INSTRUMENT>  (3953) 
MS-902

>  <ION MODE>  (3953) 
P

>  <INCHIKEY>  (3953) 
NVKCRPKKJGPKEK-HEFFKOSUSA-N

>  <FORMULA>  (3953) 
C32H38N6O2

>  <EXACT MASS>  (3953) 
538.305624456

>  <MW>  (3953) 
538

>  <ID>  (3953) 
JP005088

>  <CONTRIBUTOR>  (3953) 
University of Tokyo Team, {Faculty of Engineering, University of Tokyo

>  <COMMENT>  (3953) 
SMILES=C(CC)CCCOc(c1)ccc(c(n4)ncc(c4)N=Nc(c3)cnc(n3)c(c2)ccc(OCCCCCC)c2)c1
InChI=InChI=1S/C32H38N6O2/c1-3-5-7-9-19-39-29-15-11-25(12-16-29)31-33-21-27(22-34-31)37-38-28-23-35-32(36-24-28)26-13-17-30(18-14-26)40-20-10-8-6-4-2/h11-18,21-24H,3-10,19-20H2,1-2H3/b38-37+
computed SMILES=N(=NC1=CN=C(N=C1)C=2C=CC(OCCCCCC)=CC2)C3=CN=C(N=C3)C=4C=CC(OCCCCCC)=CC4
accession=JP005088
date=2016.01.19 (Created 2008.10.21, modified 2011.05.06)
author=SASAKI S, TOYOHASHI UNIV. OF TECH.
license=CC BY-NC-SA
exact mass=538.30562
ionization energy=70 eV
ion type=[M]+*
computed spectral entropy=3.362049281162834
computed normalized entropy=0.7316564944577801
SPLASH=splash10-007c-5902140000-491b25c2d367d1bf2b57
submitter=submitter = University of Tokyo Team (Faculty of Engineering, University of Tokyo)
MoNA Rating=3.75

>  <NUM PEAKS>  (3953) 
99

>  <MASS SPECTRAL PEAKS>  (3953) 
38 1.2
39 5.2
40 17.8
41 2.42
42 3.9
43 59.1
44 10.1
50 0.13
51 1.7
53 2.3
54 1
55 1.48
56 3.2
57 7.7
63 1.3
65 0.5
67 3.4
68 1
69 4.3
70 0.11
71 1.5
76 1.7
77 2.3
78 0.13
79 1.8
80 1
81 3.9
82 0.13
83 3.5
84 1
85 2.7
89 0.12
91 2.7
93 4.2
94 1
95 0.34
96 1.2
97 2
103 2.7
104 0.14
105 1.3
107 1.2
109 2.8
111 0.13
115 2.2
116 1.8
119 5
120 1.61
121 1.3
123 1.8
127 2.2
128 0.11
130 1.2
131 1.5
132 2.2
135 0.1
142 3.7
143 2.9
144 28.5
145 0.33
149 1.5
154 1.3
155 1.1
157 0.11
158 5.1
159 16.8
160 2.2
170 0.42
171 92.6
172 12.1
173 1.1
177 0.1
185 6.6
186 30.2
187 3.42
188 4.3
189 1.9
197 1.7
199 11.4
200 0.18
223 1.1
224 1.7
228 2.1
255 0.77
256 1.7
271 7.9
272 1.4
369 0.64
370 63.8
371 14.8
372 1.8
453 0.19
454 28.2
455 9.4
456 1.5
537 0.12
538 99.99
539 36.9
540 6.5

>  <PREDICTED SPECTRUM>  (3953) 
27 177
28 56
29 181
38 36
39 164
41 592
42 265
43 999
44 290
45 18
50 72
51 31
52 40
53 73
55 394
56 154
57 134
58 29
62 6
63 108
64 70
65 209
66 6
67 76
69 214
70 38
71 89
76 145
77 106
78 57
79 61
80 7
84 14
85 55
86 93
87 56
89 76
90 42
91 86
92 53
93 102
95 26
97 7
99 7
102 68
103 13
105 56
106 60
107 142
108 2
109 0
114 9
115 48
116 72
117 20
118 47
119 227
120 255
121 346
123 17
124 25
125 41
126 44
128 11
130 24
131 3
132 24
133 3
136 85
137 29
138 2
147 76
151 13
156 28
157 28
158 45
160 0
161 32
162 58
164 45
166 81
167 21
168 58
171 1
174 85
175 48
176 57
182 20
184 0
185 18
186 12
188 19
191 113
192 105
193 25
194 23
200 49
201 137
202 11
204 5
205 57
206 69
207 14
209 11
212 17
219 116
220 95
222 1
223 0
224 22
233 43
234 96
235 27
237 57
238 19
241 27
242 2
246 43
247 46
248 92
249 36
250 130
251 81
252 17
256 37
262 12
270 30
273 0
274 11
275 32
286 28
290 21
317 81
318 49
332 98
333 25
342 18
358 10
360 10
369 172
370 20
398 46
411 82
442 46
450 8
453 213
454 595
455 327
456 17
537 1
538 714
540 225

$$$$

     RDKit          2D

 40 45  0  0  0  0  0  0  0  0999 V2000
   -5.1968    3.0006    0.0000 C   0  0  0  0  0  0  0  0  0  0  0  0
   -0.0000   -6.0000    0.0000 C   0  0  0  0  0  0  0  0  0  0  0  0
   14.2918   -0.7496    0.0000 C   0  0  0  0  0  0  0  0  0  0  0  0
    9.0951    8.2510    0.0000 C   0  0  0  0  0  0  0  0  0  0  0  0
   -5.1975    1.4998    0.0000 C   0  0  0  0  0  0  0  0  0  0  0  0
   -3.8971    3.7512    0.0000 C   0  0  0  0  0  0  0  0  0  0  0  0
    1.3000   -5.2500    0.0000 C   0  0  0  0  0  0  0  0  0  0  0  0
   -1.3000   -5.2500    0.0000 C   0  0  0  0  0  0  0  0  0  0  0  0
   14.2925    0.7512    0.0000 C   0  0  0  0  0  0  0  0  0  0  0  0
   12.9922   -1.5002    0.0000 C   0  0  0  0  0  0  0  0  0  0  0  0
    7.7951    7.5010    0.0000 C   0  0  0  0  0  0  0  0  0  0  0  0
   10.3951    7.5010    0.0000 C   0  0  0  0  0  0  0  0  0  0  0  0
   -3.8986    0.7496    0.0000 C   0  0  0  0  0  0  0  0  0  0  0  0
   -2.5982    3.0010    0.0000 C   0  0  0  0  0  0  0  0  0  0  0  0
    1.3000   -3.7500    0.0000 C   0  0  0  0  0  0  0  0  0  0  0  0
   -1.3000   -3.7500    0.0000 C   0  0  0  0  0  0  0  0  0  0  0  0
   12.9936    1.5015    0.0000 C   0  0  0  0  0  0  0  0  0  0  0  0
   11.6933   -0.7500    0.0000 C   0  0  0  0  0  0  0  0  0  0  0  0
    7.7951    6.0010    0.0000 C   0  0  0  0  0  0  0  0  0  0  0  0
   10.3951    6.0010    0.0000 C   0  0  0  0  0  0  0  0  0  0  0  0
    3.8981    0.7504    0.0000 C   0  0  0  0  0  0  0  0  0  0  0  0
    5.1970    1.5006    0.0000 C   0  0  0  0  0  0  0  0  0  0  0  0
   -1.3000   -0.7500    0.0000 C   0  0  0  0  0  0  0  0  0  0  0  0
   10.3951    3.0010    0.0000 C   0  0  0  0  0  0  0  0  0  0  0  0
   -2.5989    1.5002    0.0000 C   0  0  0  0  0  0  0  0  0  0  0  0
   -0.0000   -3.0000    0.0000 C   0  0  0  0  0  0  0  0  0  0  0  0
   11.6940    0.7508    0.0000 C   0  0  0  0  0  0  0  0  0  0  0  0
    9.0951    5.2510    0.0000 C   0  0  0  0  0  0  0  0  0  0  0  0
   -1.3000    0.7500    0.0000 C   0  0  0  0  0  0  0  0  0  0  0  0
    0.0000   -1.5000    0.0000 C   0  0  0  0  0  0  0  0  0  0  0  0
   10.3951    1.5010    0.0000 C   0  0  0  0  0  0  0  0  0  0  0  0
    9.0951    3.7510    0.0000 C   0  0  0  0  0  0  0  0  0  0  0  0
    1.3000    0.7500    0.0000 C   0  0  0  0  0  0  0  0  0  0  0  0
    7.7951    1.5010    0.0000 C   0  0  0  0  0  0  0  0  0  0  0  0
    0.0000    1.5000    0.0000 N   0  0  0  0  0  0  0  0  0  0  0  0
    1.3000   -0.7500    0.0000 N   0  0  0  0  0  0  0  0  0  0  0  0
    9.0951    0.7510    0.0000 N   0  0  0  0  0  0  0  0  0  0  0  0
    7.7951    3.0010    0.0000 N   0  0  0  0  0  0  0  0  0  0  0  0
    2.5989    1.5002    0.0000 O   0  0  0  0  0  0  0  0  0  0  0  0
    6.4962    0.7508    0.0000 O   0  0  0  0  0  0  0  0  0  0  0  0
  5  1  2  0
  6  1  1  0
  7  2  2  0
  8  2  1  0
  9  3  2  0
 10  3  1  0
 11  4  2  0
 12  4  1  0
 13  5  1  0
 14  6  2  0
 15  7  1  0
 16  8  2  0
 17  9  1  0
 18 10  2  0
 19 11  1  0
 20 12  2  0
 22 21  1  0
 25 13  2  0
 25 14  1  0
 26 15  2  0
 26 16  1  0
 27 17  2  0
 27 18  1  0
 28 19  2  0
 28 20  1  0
 29 23  2  0
 29 25  1  0
 30 23  1  0
 30 26  1  0
 31 24  2  0
 31 27  1  0
 32 24  1  0
 32 28  1  0
 35 29  1  0
 35 33  2  0
 36 30  2  0
 36 33  1  0
 37 31  1  0
 37 34  2  0
 38 32  2  0
 38 34  1  0
 39 21  1  0
 39 33  1  0
 40 22  1  0
 40 34  1  0
M  END
>  <NAME>  (3954) 
4,4',6,6'-TETRAPHENYL-2,2'-ETHYLENEDIOXYDIPYRIMIDINE

>  <SYNONYMS>  (3954) 


>  <SPECTRUM TYPE>  (3954) 
MS1

>  <INSTRUMENT TYPE>  (3954) 
EI-B

>  <INSTRUMENT>  (3954) 
MS-902

>  <ION MODE>  (3954) 
P

>  <INCHIKEY>  (3954) 
YSJCUZMQWZRYBT-UHFFFAOYSA-N

>  <FORMULA>  (3954) 
C34H26N4O2

>  <EXACT MASS>  (3954) 
522.205576072

>  <MW>  (3954) 
522

>  <ID>  (3954) 
JP005087

>  <CONTRIBUTOR>  (3954) 
University of Tokyo Team, {Faculty of Engineering, University of Tokyo

>  <COMMENT>  (3954) 
SMILES=c(c5c(c6)cccc6)c(nc(n5)OCCOc(n3)nc(cc3c(c4)cccc4)c(c2)cccc2)c(c1)cccc1
InChI=InChI=1S/C34H26N4O2/c1-5-13-25(14-6-1)29-23-30(26-15-7-2-8-16-26)36-33(35-29)39-21-22-40-34-37-31(27-17-9-3-10-18-27)24-32(38-34)28-19-11-4-12-20-28/h1-20,23-24H,21-22H2
computed SMILES=N=1C(=NC(=CC1C=2C=CC=CC2)C=3C=CC=CC3)OCCOC=4N=C(C=C(N4)C=5C=CC=CC5)C=6C=CC=CC6
accession=JP005087
date=2016.01.19 (Created 2008.10.21, modified 2011.05.06)
author=SASAKI S, TOYOHASHI UNIV. OF TECH.
license=CC BY-NC-SA
exact mass=522.20558
ionization energy=70 eV
ion type=[M]+*
computed spectral entropy=2.5650272295522183
computed normalized entropy=0.6662152974117022
SPLASH=splash10-004j-0190000000-becc75dfd620ef126e75
submitter=submitter = University of Tokyo Team (Faculty of Engineering, University of Tokyo)
MoNA Rating=3.75

>  <NUM PEAKS>  (3954) 
47

>  <MASS SPECTRAL PEAKS>  (3954) 
39 1
58 2.5
76 1.3
77 1.04
83 2.9
85 1.2
88 3.2
91 0.33
102 1.9
103 3.7
104 5.8
115 0.31
116 2.5
117 1.2
128 4.4
129 1.32
130 2.1
141 1.2
142 1.2
143 0.37
156 2
170 1.8
171 4.6
189 0.13
199 2
203 1
204 3.2
205 0.12
206 1
210 3
230 1.6
231 1.05
232 4.1
233 1.2
245 2
246 0.12
247 51.3
248 16.8
249 9.3
250 0.12
258 1.2
261 3.2
273 48.5
274 8.44
275 99.99
276 17.8
277 2

>  <PREDICTED SPECTRUM>  (3954) 
17 17
18 37
38 12
39 153
40 136
41 283
42 35
43 87
44 130
45 86
50 69
51 296
52 195
53 65
57 99
58 84
61 84
62 90
63 40
64 78
65 68
68 213
69 84
70 17
74 67
75 60
76 139
77 472
78 27
79 27
81 20
83 13
87 71
88 88
89 94
90 53
91 201
92 50
102 207
103 209
104 361
105 165
106 114
108 8
109 85
110 82
111 171
116 260
117 287
118 15
119 150
120 154
122 21
123 49
124 14
128 232
129 417
130 173
133 71
134 114
135 109
139 35
140 84
141 19
142 1
143 176
144 55
145 103
146 87
149 7
150 7
151 14
152 33
153 57
156 44
161 13
171 28
172 22
173 95
175 0
176 28
177 124
181 72
186 37
187 118
188 124
189 181
190 40
191 127
193 63
196 42
197 10
199 12
200 1
202 127
203 105
204 36
205 39
206 32
207 25
209 99
210 69
214 42
215 55
216 62
217 53
218 51
219 17
221 112
224 14
229 30
230 96
231 335
232 165
233 131
235 67
236 37
243 43
244 65
245 208
246 332
247 745
248 593
249 433
250 123
258 41
259 89
260 230
261 296
262 208
263 78
264 41
272 199
273 800
274 963
275 999
276 620
277 273
286 90
287 168
288 133
289 149
290 107
291 24
301 14
302 53
303 69
305 8
358 34
418 60
420 29
463 17

$$$$

     RDKit          2D

 30 33  0  0  0  0  0  0  0  0999 V2000
   -3.8965    3.7511    0.0000 C   0  0  0  0  0  0  0  0  0  0  0  0
   -2.5974   -6.0004    0.0000 C   0  0  0  0  0  0  0  0  0  0  0  0
    5.1966   -2.9995    0.0000 C   0  0  0  0  0  0  0  0  0  0  0  0
   -7.7946   -2.9997    0.0000 C   0  0  0  0  0  0  0  0  0  0  0  0
   -1.2975   -5.2502    0.0000 C   0  0  0  0  0  0  0  0  0  0  0  0
   -3.8975   -5.2506    0.0000 C   0  0  0  0  0  0  0  0  0  0  0  0
    5.1971   -1.4987    0.0000 C   0  0  0  0  0  0  0  0  0  0  0  0
    3.8971   -3.7504    0.0000 C   0  0  0  0  0  0  0  0  0  0  0  0
   -6.4952   -3.7508    0.0000 C   0  0  0  0  0  0  0  0  0  0  0  0
   -7.7949   -1.4989    0.0000 C   0  0  0  0  0  0  0  0  0  0  0  0
   -1.2977   -3.7502    0.0000 C   0  0  0  0  0  0  0  0  0  0  0  0
   -3.8977   -3.7506    0.0000 C   0  0  0  0  0  0  0  0  0  0  0  0
    3.8980   -0.7487    0.0000 C   0  0  0  0  0  0  0  0  0  0  0  0
    2.5980   -3.0004    0.0000 C   0  0  0  0  0  0  0  0  0  0  0  0
   -5.1961   -3.0010    0.0000 C   0  0  0  0  0  0  0  0  0  0  0  0
   -6.4957   -0.7491    0.0000 C   0  0  0  0  0  0  0  0  0  0  0  0
   -2.5979   -3.0004    0.0000 C   0  0  0  0  0  0  0  0  0  0  0  0
    2.5985   -1.4995    0.0000 C   0  0  0  0  0  0  0  0  0  0  0  0
   -5.1963   -1.5002    0.0000 C   0  0  0  0  0  0  0  0  0  0  0  0
   -2.5981   -1.5004    0.0000 C   0  0  0  0  0  0  0  0  0  0  0  0
    1.2995   -0.7495    0.0000 C   0  0  0  0  0  0  0  0  0  0  0  0
    0.0005   -1.4995    0.0000 C   0  0  0  0  0  0  0  0  0  0  0  0
   -3.8971   -0.7504    0.0000 C   0  0  0  0  0  0  0  0  0  0  0  0
   -1.2986   -0.7495    0.0000 C   0  0  0  0  0  0  0  0  0  0  0  0
   -2.5971    1.5013    0.0000 C   0  0  0  0  0  0  0  0  0  0  0  0
    1.2995    0.7505    0.0000 Br  0  0  0  0  0  0  0  0  0  0  0  0
    0.0005   -2.9995    0.0000 Br  0  0  0  0  0  0  0  0  0  0  0  0
   -3.8967    0.7505    0.0000 N   0  0  0  0  0  0  0  0  0  0  0  0
   -1.2981    0.7513    0.0000 N   0  0  0  0  0  0  0  0  0  0  0  0
   -2.5974    3.0013    0.0000 O   0  0  0  0  0  0  0  0  0  0  0  0
  5  2  2  0
  6  2  1  0
  7  3  2  0
  8  3  1  0
  9  4  2  0
 10  4  1  0
 11  5  1  0
 12  6  2  0
 13  7  1  0
 14  8  2  0
 15  9  1  0
 16 10  2  0
 17 11  2  0
 17 12  1  0
 18 13  2  0
 18 14  1  0
 19 15  2  0
 19 16  1  0
 20 17  1  0
 21 18  1  0
 22 21  1  0
 23 19  1  0
 23 20  2  0
 24 20  1  0
 24 22  1  0
 26 21  1  0
 27 22  1  0
 28 23  1  0
 28 25  2  0
 29 24  2  0
 29 25  1  0
 30  1  1  0
 30 25  1  0
M  END
>  <NAME>  (3955) 
4-(ALPHA,BETA-DIBROMOPHENETHYL)-2-METHOXY-5,6-DIPHENYLPYRIMIDINE

>  <SYNONYMS>  (3955) 


>  <SPECTRUM TYPE>  (3955) 
MS1

>  <INSTRUMENT TYPE>  (3955) 
EI-B

>  <INSTRUMENT>  (3955) 
MS-902

>  <ION MODE>  (3955) 
P

>  <INCHIKEY>  (3955) 
HFWYESJTBLLQKD-UHFFFAOYSA-N

>  <FORMULA>  (3955) 
C25H20Br2N2O

>  <EXACT MASS>  (3955) 
521.99423746

>  <MW>  (3955) 
522

>  <ID>  (3955) 
JP005086

>  <CONTRIBUTOR>  (3955) 
University of Tokyo Team, {Faculty of Engineering, University of Tokyo

>  <COMMENT>  (3955) 
SMILES=COc(n1)nc(C(Br)C(Br)c(c4)cccc4)c(c(c3)cccc3)c1c(c2)cccc2
InChI=InChI=1S/C25H20Br2N2O/c1-30-25-28-23(19-15-9-4-10-16-19)20(17-11-5-2-6-12-17)24(29-25)22(27)21(26)18-13-7-3-8-14-18/h2-16,21-22H,1H3
computed SMILES=BrC(C=1C=CC=CC1)C(Br)C=2N=C(N=C(C=3C=CC=CC3)C2C=4C=CC=CC4)OC
accession=JP005086
date=2016.01.19 (Created 2008.10.21, modified 2011.05.06)
author=SASAKI S, TOYOHASHI UNIV. OF TECH.
license=CC BY-NC-SA
exact mass=521.99424
ionization energy=70 eV
ion type=[M]+*
computed spectral entropy=3.1458602763013546
computed normalized entropy=0.6908092491704768
SPLASH=splash10-03di-1349500000-fe01712d5228cbb5df94
submitter=submitter = University of Tokyo Team (Faculty of Engineering, University of Tokyo)
MoNA Rating=3.75

>  <NUM PEAKS>  (3955) 
95

>  <MASS SPECTRAL PEAKS>  (3955) 
32 3.1
36 2.3
51 1.5
76 0.13
77 6
79 1.3
80 4.4
81 0.16
82 4.5
89 1.8
91 3.4
101 0.2
102 1.2
103 1
104 1.5
115 0.12
118 8.7
126 1.2
127 1.1
128 0.27
129 1.1
135 1.3
138 1.3
139 0.12
140 1.2
143 1.7
145 2.2
146 0.11
151 2.4
152 5.8
152.5 5
153 0.31
153.5 1.3
158 1
159 1.3
160 0.14
160.5 1.5
164 1
165 2.4
166 0.13
166.5 1.3
167 4.5
167.5 1.3
175 0.2
176 1.6
177 1.1
178 1.6
181 0.23
181.5 4.4
182 7.4
182.5 1.9
189 0.1
190 1.3
201 1.2
202 4.2
203 0.28
204 1.2
216 1.5
217 1.5
227 0.13
228 2.4
229 1
230 2.8
242 0.1
245 4.9
246 1.5
253 1.2
255 0.13
260 3.1
272 1.1
285 2.6
286 0.1
287 46.8
289 1.7
291 1.1
304 0.34
305 1.3
306 6.8
307 2.3
329 0.12
331 1.6
333 1.1
347 5
348 0.22
349 2.3
361 1.9
362 1
363 99.99
364 47.1
365 8.6
443 50.6
444 1.36
445 51.7
448 1.8
524 1.2

>  <PREDICTED SPECTRUM>  (3955) 
33 9
39 136
40 36
41 151
42 142
43 178
44 65
45 257
46 19
47 57
50 148
51 279
52 159
53 135
54 39
55 79
56 53
57 41
59 41
60 98
61 9
62 101
63 294
64 143
65 197
66 107
67 132
68 90
69 191
70 102
71 38
72 0
74 126
75 220
76 333
77 569
78 115
79 152
80 328
81 303
82 407
83 141
84 97
86 50
87 74
88 170
89 239
90 90
91 98
92 49
93 34
94 154
95 89
96 207
97 44
98 18
99 46
101 72
102 264
103 261
104 315
105 251
106 52
107 71
108 238
109 118
110 44
111 141
113 179
114 109
115 308
116 120
117 80
118 92
119 70
120 4
121 59
122 8
123 73
124 74
125 3
126 161
127 326
128 343
129 204
130 116
131 148
132 93
133 37
134 14
135 98
136 198
137 127
138 212
139 251
140 216
141 160
142 125
143 153
144 172
145 133
146 145
147 17
149 40
150 158
151 418
152 424
153 313
154 143
155 214
156 49
157 160
158 73
159 6
162 18
163 225
164 168
165 558
166 181
167 241
168 56
169 217
170 123
171 79
173 7
174 71
176 267
177 123
178 73
179 66
180 42
181 114
182 195
183 229
184 212
185 136
186 102
187 33
188 71
189 192
190 56
191 64
192 62
193 166
195 88
196 87
197 148
198 51
199 65
200 34
201 75
202 280
203 88
204 46
205 162
207 52
209 206
210 59
211 129
212 26
213 66
215 66
216 137
217 19
218 24
219 60
220 66
221 101
222 52
223 47
224 5
225 0
227 37
228 45
229 142
230 95
231 55
232 85
233 130
234 101
235 119
236 125
237 105
239 48
240 2
241 26
242 149
243 99
244 111
245 44
246 51
247 30
248 53
249 23
250 34
251 27
253 28
255 53
256 71
257 34
258 169
259 96
260 173
261 210
262 165
263 98
264 76
267 31
271 46
272 132
273 85
274 19
275 155
276 93
277 109
278 10
280 2
285 9
286 32
287 156
288 73
289 142
290 68
291 130
292 59
293 136
294 48
301 45
303 86
304 119
305 103
306 121
307 97
308 109
318 58
319 91
320 151
321 337
322 189
323 130
324 93
327 30
333 43
334 22
335 193
336 151
337 48
340 3
347 7
348 43
349 2
362 14
363 284
364 497
365 356
367 34
384 8
385 45
398 17
399 64
402 31
403 23
404 0
411 83
412 142
413 245
414 106
427 25
441 68
442 114
443 999
444 358
445 973
446 426
447 190
490 12
491 42
493 42
506 6
514 18
521 223
522 109
523 154
524 101
525 122
526 41
527 37

$$$$

     RDKit          2D

 28 32  0  0  0  0  0  0  0  0999 V2000
    3.0600    2.2000    0.0000 C   0  0  0  0  0  0  0  0  0  0  0  0
    1.7600    2.9500    0.0000 C   0  0  0  0  0  0  0  0  0  0  0  0
    3.0600    0.7000    0.0000 C   0  0  0  0  0  0  0  0  0  0  0  0
    0.4600    2.2000    0.0000 C   0  0  0  0  0  0  0  0  0  0  0  0
   -3.4289    2.9502    0.0000 C   0  0  0  0  0  0  0  0  0  0  0  0
   -0.8304    2.9506    0.0000 C   0  0  0  0  0  0  0  0  0  0  0  0
   -4.7289   -3.8002    0.0000 C   0  0  0  0  0  0  0  0  0  0  0  0
   -6.0289   -1.5502    0.0000 C   0  0  0  0  0  0  0  0  0  0  0  0
    1.7600   -1.5500    0.0000 C   0  0  0  0  0  0  0  0  0  0  0  0
   -3.4282    4.4510    0.0000 C   0  0  0  0  0  0  0  0  0  0  0  0
   -0.8296    4.4515    0.0000 C   0  0  0  0  0  0  0  0  0  0  0  0
   -6.0289   -4.5502    0.0000 C   0  0  0  0  0  0  0  0  0  0  0  0
   -7.3289   -2.3002    0.0000 C   0  0  0  0  0  0  0  0  0  0  0  0
    0.4600   -2.3000    0.0000 C   0  0  0  0  0  0  0  0  0  0  0  0
    1.7600   -0.0500    0.0000 C   0  0  0  0  0  0  0  0  0  0  0  0
   -2.1300    2.2000    0.0000 C   0  0  0  0  0  0  0  0  0  0  0  0
   -4.7289   -2.3002    0.0000 C   0  0  0  0  0  0  0  0  0  0  0  0
   -2.1286    5.2017    0.0000 C   0  0  0  0  0  0  0  0  0  0  0  0
   -7.3289   -3.8002    0.0000 C   0  0  0  0  0  0  0  0  0  0  0  0
    0.4600    0.7000    0.0000 C   0  0  0  0  0  0  0  0  0  0  0  0
   -0.8300   -1.5500    0.0000 C   0  0  0  0  0  0  0  0  0  0  0  0
   -0.8300   -0.0500    0.0000 C   0  0  0  0  0  0  0  0  0  0  0  0
   -2.1300    0.7000    0.0000 C   0  0  0  0  0  0  0  0  0  0  0  0
   -3.4300   -1.5500    0.0000 C   0  0  0  0  0  0  0  0  0  0  0  0
   -2.1286    6.7017    0.0000 Br  0  0  0  0  0  0  0  0  0  0  0  0
   -8.6278   -4.5504    0.0000 Br  0  0  0  0  0  0  0  0  0  0  0  0
   -2.1300   -2.3000    0.0000 N   0  0  0  0  0  0  0  0  0  0  0  0
   -3.4300   -0.0500    0.0000 N   0  0  0  0  0  0  0  0  0  0  0  0
  2  1  2  0
  3  1  1  0
  4  2  1  0
 10  5  2  0
 11  6  1  0
 12  7  2  0
 13  8  1  0
 14  9  2  0
 15  3  2  0
 15  9  1  0
 16  5  1  0
 16  6  2  0
 17  7  1  0
 17  8  2  0
 18 10  1  0
 18 11  2  0
 19 12  1  0
 19 13  2  0
 20  4  2  0
 20 15  1  0
 21 14  1  0
 22 20  1  0
 22 21  2  0
 23 16  1  0
 23 22  1  0
 24 17  1  0
 25 18  1  0
 26 19  1  0
 27 21  1  0
 27 24  2  0
 28 23  2  0
 28 24  1  0
M  END
>  <NAME>  (3956) 
1,3-DI(4-BROMOPHENYL)BENZO(F)QUINAZOLINE

>  <SYNONYMS>  (3956) 


>  <SPECTRUM TYPE>  (3956) 
MS1

>  <INSTRUMENT TYPE>  (3956) 
EI-B

>  <INSTRUMENT>  (3956) 
MS-902

>  <ION MODE>  (3956) 
P

>  <INCHIKEY>  (3956) 
BVWXZSVFMDWDQR-UHFFFAOYSA-N

>  <FORMULA>  (3956) 
C24H14Br2N2

>  <EXACT MASS>  (3956) 
487.952372648

>  <MW>  (3956) 
488

>  <ID>  (3956) 
JP005085

>  <CONTRIBUTOR>  (3956) 
University of Tokyo Team, {Faculty of Engineering, University of Tokyo

>  <COMMENT>  (3956) 
SMILES=Brc(c5)ccc(c5)c(n1)nc(c(c4)ccc(Br)c4)c(c32)c(ccc(cccc3)2)1
InChI=InChI=1S/C24H14Br2N2/c25-18-10-5-16(6-11-18)23-22-20-4-2-1-3-15(20)9-14-21(22)27-24(28-23)17-7-12-19(26)13-8-17/h1-14H
computed SMILES=BrC1=CC=C(C=C1)C2=NC=3C=CC4=CC=CC=C4C3C(=N2)C=5C=CC(Br)=CC5
accession=JP005085
date=2016.01.19 (Created 2008.10.21, modified 2011.05.06)
author=SASAKI S, TOYOHASHI UNIV. OF TECH.
license=CC BY-NC-SA
exact mass=487.95237
ionization energy=70 eV
ion type=[M]+*
computed spectral entropy=3.628258257550958
computed normalized entropy=0.7828415138760622
SPLASH=splash10-000f-1411900000-627f6492d52c5d2ba545
submitter=submitter = University of Tokyo Team (Faculty of Engineering, University of Tokyo)
MoNA Rating=3.75

>  <NUM PEAKS>  (3956) 
103

>  <MASS SPECTRAL PEAKS>  (3956) 
40 5.9
41 3.3
43 2.9
44 0.59
45 3.6
47 3.2
48 1.7
49 0.11
50 1.9
51 2
55 2.7
56 0.21
57 4.3
67 1.1
69 2.4
71 0.32
74 2
75 4.5
76 5.9
77 0.29
79 1.6
80 4.7
81 1.6
82 0.51
87 3
95 1.4
97 1.6
99 0.22
100 6
101 1.7
102 2
124 0.18
125 6.3
126 39.8
127 4.9
136 0.19
137 3.4
137.5 3.1
138 2.3
149 1.49
149.5 2.2
150.5 8.1
151 15.5
151.5 0.87
152 10.6
153 1.5
157 1.5
162.5 0.13
163 3
163.5 16.4
164 23.8
164.5 3.34
165 51.8
165.5 12.9
166 1.6
176 0.16
198 1.1
199 9
200 4.8
201 0.29
202 1.5
203.5 1.3
204 1.3
204.5 1.41
205 5.5
205.5 17.1
206 3.8
223 0.11
225 3.8
226 6
227 8.8
228 0.3
251 1.6
252 8.4
253 7.5
254 0.2
280 2.5
301 1.5
302 1.7
303 0.13
327 6.2
328 6.2
329 15.9
330 0.93
331 9.2
332 2.2
333 11
334 0.21
335 1.5
407 9.5
408 17.9
409 2.65
410 19.3
411 18.8
412 5.2
435 0.11
487 44.1
488 52.9
489 93.4
490 99.99
491 64.5
492 54.6
493 10.1

>  <PREDICTED SPECTRUM>  (3956) 
18 0
34 8
38 64
39 234
40 79
41 97
42 164
43 254
44 148
45 52
50 358
51 431
52 203
53 11
55 46
57 32
61 43
62 140
63 285
64 71
65 47
69 142
70 2
73 172
74 209
75 522
76 456
77 392
78 79
79 15
80 35
82 68
86 153
87 201
88 305
89 323
90 112
98 47
99 134
100 159
101 285
102 712
103 328
104 74
105 45
106 53
109 10
111 124
112 99
113 125
114 317
115 297
116 157
117 98
118 192
119 76
120 77
121 45
122 0
123 182
124 86
125 158
126 274
127 147
128 141
129 63
130 100
131 32
133 66
136 99
137 14
138 97
139 3
140 395
141 27
142 44
143 27
144 80
145 64
146 76
147 189
148 229
149 172
150 171
151 285
152 164
153 123
154 158
155 171
156 56
157 13
162 73
163 61
164 140
165 83
166 29
167 3
169 46
170 89
171 47
173 46
174 113
175 141
176 255
177 379
178 268
179 188
180 187
181 336
183 143
187 15
188 40
189 188
190 212
191 7
192 6
197 49
198 36
199 15
201 59
202 66
203 214
204 70
207 51
208 27
209 34
210 2
213 53
214 40
215 121
216 102
217 37
224 51
225 103
226 155
227 190
228 184
229 162
230 158
231 92
233 94
247 68
248 25
249 118
250 26
251 81
252 122
253 133
254 164
255 91
256 12
261 68
262 99
263 93
264 42
265 10
270 1
276 157
277 129
278 46
279 51
280 48
281 15
286 23
287 13
291 16
293 59
300 121
301 48
302 117
303 39
306 202
307 409
308 343
309 400
310 178
311 57
326 50
327 44
328 236
329 264
330 219
331 186
333 220
335 144
407 237
408 109
409 121
410 153
411 125
412 31
413 55
486 110
487 748
488 735
489 230
490 999
491 737
492 685
493 406

$$$$

     RDKit          2D

 34 38  0  0  0  0  0  0  0  0999 V2000
   -0.8310    7.4500    0.0000 C   0  0  0  0  0  0  0  0  0  0  0  0
   -8.6254   -6.0508    0.0000 C   0  0  0  0  0  0  0  0  0  0  0  0
   -4.7287    6.7002    0.0000 C   0  0  0  0  0  0  0  0  0  0  0  0
   -7.3262   -6.8012    0.0000 C   0  0  0  0  0  0  0  0  0  0  0  0
    3.0600    2.2000    0.0000 C   0  0  0  0  0  0  0  0  0  0  0  0
    1.7600    2.9500    0.0000 C   0  0  0  0  0  0  0  0  0  0  0  0
    3.0600    0.7000    0.0000 C   0  0  0  0  0  0  0  0  0  0  0  0
    0.4600    2.2000    0.0000 C   0  0  0  0  0  0  0  0  0  0  0  0
    1.7600   -1.5500    0.0000 C   0  0  0  0  0  0  0  0  0  0  0  0
   -0.8300    2.9500    0.0000 C   0  0  0  0  0  0  0  0  0  0  0  0
   -6.0286   -1.5496    0.0000 C   0  0  0  0  0  0  0  0  0  0  0  0
    0.4600   -2.3000    0.0000 C   0  0  0  0  0  0  0  0  0  0  0  0
   -0.8300    4.4500    0.0000 C   0  0  0  0  0  0  0  0  0  0  0  0
   -7.3275   -2.2998    0.0000 C   0  0  0  0  0  0  0  0  0  0  0  0
   -3.4300    2.9500    0.0000 C   0  0  0  0  0  0  0  0  0  0  0  0
   -4.7282   -3.8010    0.0000 C   0  0  0  0  0  0  0  0  0  0  0  0
    1.7600   -0.0500    0.0000 C   0  0  0  0  0  0  0  0  0  0  0  0
   -2.1300    2.2000    0.0000 C   0  0  0  0  0  0  0  0  0  0  0  0
   -4.7289   -2.3002    0.0000 C   0  0  0  0  0  0  0  0  0  0  0  0
    0.4600    0.7000    0.0000 C   0  0  0  0  0  0  0  0  0  0  0  0
   -0.8300   -1.5500    0.0000 C   0  0  0  0  0  0  0  0  0  0  0  0
   -2.1300    5.2000    0.0000 C   0  0  0  0  0  0  0  0  0  0  0  0
   -7.3268   -3.8006    0.0000 C   0  0  0  0  0  0  0  0  0  0  0  0
   -3.4300    4.4500    0.0000 C   0  0  0  0  0  0  0  0  0  0  0  0
   -6.0271   -4.5512    0.0000 C   0  0  0  0  0  0  0  0  0  0  0  0
   -0.8300   -0.0500    0.0000 C   0  0  0  0  0  0  0  0  0  0  0  0
   -2.1300    0.7000    0.0000 C   0  0  0  0  0  0  0  0  0  0  0  0
   -3.4300   -1.5500    0.0000 C   0  0  0  0  0  0  0  0  0  0  0  0
   -2.1300   -2.3000    0.0000 N   0  0  0  0  0  0  0  0  0  0  0  0
   -3.4300   -0.0500    0.0000 N   0  0  0  0  0  0  0  0  0  0  0  0
   -2.1300    6.7000    0.0000 O   0  0  0  0  0  0  0  0  0  0  0  0
   -8.6257   -4.5508    0.0000 O   0  0  0  0  0  0  0  0  0  0  0  0
   -4.7289    5.2002    0.0000 O   0  0  0  0  0  0  0  0  0  0  0  0
   -6.0271   -6.0512    0.0000 O   0  0  0  0  0  0  0  0  0  0  0  0
  6  5  2  0
  7  5  1  0
  8  6  1  0
 12  9  2  0
 13 10  2  0
 14 11  2  0
 17  7  2  0
 17  9  1  0
 18 10  1  0
 18 15  2  0
 19 11  1  0
 19 16  2  0
 20  8  2  0
 20 17  1  0
 21 12  1  0
 22 13  1  0
 23 14  1  0
 24 15  1  0
 24 22  2  0
 25 16  1  0
 25 23  2  0
 26 20  1  0
 26 21  2  0
 27 18  1  0
 27 26  1  0
 28 19  1  0
 29 21  1  0
 29 28  2  0
 30 27  2  0
 30 28  1  0
 31  1  1  0
 31 22  1  0
 32  2  1  0
 32 23  1  0
 33  3  1  0
 33 24  1  0
 34  4  1  0
 34 25  1  0
M  END
>  <NAME>  (3957) 
1,3-DI(3,4-DIMETHOXYPHENYL)BENZO(F)QUINAZOLINE

>  <SYNONYMS>  (3957) 


>  <SPECTRUM TYPE>  (3957) 
MS1

>  <INSTRUMENT TYPE>  (3957) 
EI-B

>  <INSTRUMENT>  (3957) 
MS-902

>  <ION MODE>  (3957) 
P

>  <INCHIKEY>  (3957) 
XCDSYIVMRAJUSN-UHFFFAOYSA-N

>  <FORMULA>  (3957) 
C28H24N2O4

>  <EXACT MASS>  (3957) 
452.173607248

>  <MW>  (3957) 
452

>  <ID>  (3957) 
JP005083

>  <CONTRIBUTOR>  (3957) 
University of Tokyo Team, {Faculty of Engineering, University of Tokyo

>  <COMMENT>  (3957) 
SMILES=c(c15)cccc(c(c3cc5)c(nc(c(c4)cc(c(OC)c4)OC)n3)c(c2)cc(c(OC)c2)OC)1
InChI=InChI=1S/C28H24N2O4/c1-31-22-13-10-18(15-24(22)33-3)27-26-20-8-6-5-7-17(20)9-12-21(26)29-28(30-27)19-11-14-23(32-2)25(16-19)34-4/h5-16H,1-4H3
computed SMILES=N1=C(N=C(C=2C=CC(OC)=C(OC)C2)C3=C1C=CC4=CC=CC=C43)C5=CC=C(OC)C(OC)=C5
accession=JP005083
date=2016.01.19 (Created 2008.10.21, modified 2011.05.06)
author=SASAKI S, TOYOHASHI UNIV. OF TECH.
license=CC BY-NC-SA
exact mass=452.17361
ionization energy=70 eV
ion type=[M]+*
computed spectral entropy=3.3854048091530413
computed normalized entropy=0.7259459683792938
SPLASH=splash10-0udi-0301900000-6f3b5f7e12acd4ab2fd5
submitter=submitter = University of Tokyo Team (Faculty of Engineering, University of Tokyo)
MoNA Rating=3.75

>  <NUM PEAKS>  (3957) 
106

>  <MASS SPECTRAL PEAKS>  (3957) 
127 1
133 1.5
139 1.7
139.5 0.29
140 3.2
145 2.7
145.5 3.7
146 0.3
146.5 1.6
147 1.1
151 1
151.5 0.25
152 4.7
152.5 2.5
153 2.4
153.5 0.12
154 1.7
158 1.9
158.5 1.5
159 0.13
159.5 1.6
160 2.2
160.5 1.4
161 0.21
161.5 1.7
166 1.7
166.5 1.7
167 0.41
167.5 2.9
168 1.7
173 1.2
173.5 0.12
174 2
174.5 1.2
175 2
175.5 0.14
180 1.8
180.5 1
181 2.4
181.5 0.21
182 2.1
182.5 1
183 1.9
188 0.18
188.5 1.6
189 6.2
189.5 2.2
190 0.1
196.5 1.1
197 2.2
203 2.5
203.5 0.11
204 2.5
204.5 1.1
210 1.1
210.5 0.47
211 2.3
218 1.1
218.5 1.9
226 1.16
226.5 3.5
227 1
279 1.6
285 0.35
287 1.1
292 1.1
319 1
321 0.14
335 1.3
349 2.1
350 1.1
362 0.11
363 1.8
364 1
365 1.6
366 0.18
375 1.1
376 1.4
377 2.5
378 0.2
379 1.2
390 1.9
391 2.7
392 0.26
393 4.5
394 2
405 2.9
406 1.39
407 7.9
408 2.1
409 1.8
419 0.29
420 1.5
421 9.8
422 4.7
423 0.4
424 1.1
435 15.2
436 7.6
437 1.48
438 4.4
451 50.8
452 99.99
453 2.97
454 6.5
455 1

>  <PREDICTED SPECTRUM>  (3957) 
27 7
29 38
33 2
34 7
36 4
39 30
40 12
41 72
42 68
43 159
44 83
45 60
50 26
51 62
52 5
53 9
55 50
56 16
57 59
62 7
63 72
64 7
65 19
69 30
70 4
74 5
75 61
76 65
77 116
78 35
79 39
81 10
82 12
83 29
88 32
89 46
91 58
92 1
94 3
95 39
99 1
100 22
102 0
103 15
104 22
105 27
106 41
107 27
109 23
110 11
111 5
113 12
114 17
115 99
117 19
118 1
119 53
120 34
121 13
125 33
126 60
127 42
128 2
130 24
131 11
132 27
133 61
134 0
135 23
137 62
138 91
139 105
140 87
141 64
142 25
143 9
144 5
145 42
146 36
147 68
148 46
149 82
150 26
151 124
152 103
153 113
154 76
155 117
156 41
157 30
158 54
159 68
160 75
161 60
162 32
163 74
164 44
165 48
166 51
167 77
168 61
169 41
170 36
171 25
172 7
173 83
174 67
175 76
176 87
177 64
178 27
179 11
180 23
181 49
182 39
183 37
184 25
185 47
186 42
187 7
188 51
189 72
190 35
191 83
192 52
193 45
194 15
195 22
196 25
197 76
198 54
199 67
200 66
201 80
202 65
203 90
204 64
205 47
206 25
207 37
208 39
209 66
210 18
211 18
213 20
214 37
215 46
216 65
217 92
218 85
219 59
220 15
221 10
222 12
223 33
224 21
225 55
226 59
227 34
228 32
229 30
230 40
231 88
232 37
233 17
235 27
236 25
237 87
238 49
239 65
240 20
241 15
242 12
243 16
244 32
245 28
246 28
247 27
248 16
250 17
251 51
252 66
253 16
255 6
261 14
262 15
264 13
265 42
266 35
267 3
275 7
276 18
279 44
280 35
289 34
290 16
291 56
292 24
293 29
294 61
295 41
305 0
306 21
307 39
308 37
309 21
319 24
320 63
321 36
322 71
323 32
324 6
332 7
333 98
334 61
335 62
336 46
337 31
346 11
347 98
348 122
349 101
350 61
351 38
358 4
359 9
360 45
361 134
362 140
363 164
364 97
365 91
366 81
375 37
376 110
377 215
378 181
379 112
380 47
389 64
390 107
391 202
392 141
393 229
394 166
395 43
403 16
404 58
405 160
406 276
407 257
408 162
409 139
410 75
419 100
420 125
421 311
422 203
423 152
424 69
425 39
435 242
436 235
437 520
438 303
439 119
450 7
451 697
452 999
453 581
454 248
455 81

$$$$

     RDKit          2D

 30 34  0  0  0  0  0  0  0  0999 V2000
   -6.0270    2.9510    0.0000 C   0  0  0  0  0  0  0  0  0  0  0  0
   -3.4302   -6.0504    0.0000 C   0  0  0  0  0  0  0  0  0  0  0  0
    3.0600    2.2000    0.0000 C   0  0  0  0  0  0  0  0  0  0  0  0
    1.7600    2.9500    0.0000 C   0  0  0  0  0  0  0  0  0  0  0  0
   -0.8296    4.4515    0.0000 C   0  0  0  0  0  0  0  0  0  0  0  0
   -7.3289   -2.3002    0.0000 C   0  0  0  0  0  0  0  0  0  0  0  0
   -2.1286    5.2017    0.0000 C   0  0  0  0  0  0  0  0  0  0  0  0
   -7.3289   -3.8002    0.0000 C   0  0  0  0  0  0  0  0  0  0  0  0
    3.0600    0.7000    0.0000 C   0  0  0  0  0  0  0  0  0  0  0  0
    0.4600    2.2000    0.0000 C   0  0  0  0  0  0  0  0  0  0  0  0
   -0.8304    2.9506    0.0000 C   0  0  0  0  0  0  0  0  0  0  0  0
   -6.0289   -1.5502    0.0000 C   0  0  0  0  0  0  0  0  0  0  0  0
   -3.4282    4.4510    0.0000 C   0  0  0  0  0  0  0  0  0  0  0  0
   -6.0289   -4.5502    0.0000 C   0  0  0  0  0  0  0  0  0  0  0  0
    1.7600   -1.5500    0.0000 C   0  0  0  0  0  0  0  0  0  0  0  0
    0.4600   -2.3000    0.0000 C   0  0  0  0  0  0  0  0  0  0  0  0
    1.7600   -0.0500    0.0000 C   0  0  0  0  0  0  0  0  0  0  0  0
    0.4600    0.7000    0.0000 C   0  0  0  0  0  0  0  0  0  0  0  0
   -2.1300    2.2000    0.0000 C   0  0  0  0  0  0  0  0  0  0  0  0
   -4.7289   -2.3002    0.0000 C   0  0  0  0  0  0  0  0  0  0  0  0
   -0.8300   -1.5500    0.0000 C   0  0  0  0  0  0  0  0  0  0  0  0
   -3.4289    2.9502    0.0000 C   0  0  0  0  0  0  0  0  0  0  0  0
   -4.7289   -3.8002    0.0000 C   0  0  0  0  0  0  0  0  0  0  0  0
   -0.8300   -0.0500    0.0000 C   0  0  0  0  0  0  0  0  0  0  0  0
   -2.1300    0.7000    0.0000 C   0  0  0  0  0  0  0  0  0  0  0  0
   -3.4300   -1.5500    0.0000 C   0  0  0  0  0  0  0  0  0  0  0  0
   -2.1300   -2.3000    0.0000 N   0  0  0  0  0  0  0  0  0  0  0  0
   -3.4300   -0.0500    0.0000 N   0  0  0  0  0  0  0  0  0  0  0  0
   -4.7282    2.2006    0.0000 O   0  0  0  0  0  0  0  0  0  0  0  0
   -3.4300   -4.5504    0.0000 O   0  0  0  0  0  0  0  0  0  0  0  0
  4  3  2  0
  7  5  2  0
  8  6  2  0
  9  3  1  0
 10  4  1  0
 11  5  1  0
 12  6  1  0
 13  7  1  0
 14  8  1  0
 16 15  2  0
 17  9  2  0
 17 15  1  0
 18 10  2  0
 18 17  1  0
 19 11  2  0
 20 12  2  0
 21 16  1  0
 22 13  2  0
 22 19  1  0
 23 14  2  0
 23 20  1  0
 24 18  1  0
 24 21  2  0
 25 19  1  0
 25 24  1  0
 26 20  1  0
 27 21  1  0
 27 26  2  0
 28 25  2  0
 28 26  1  0
 29  1  1  0
 29 22  1  0
 30  2  1  0
 30 23  1  0
M  END
>  <NAME>  (3958) 
1,3-DI(2-METHOXYPHENYL)BENZO(F)QUINAZOLINE

>  <SYNONYMS>  (3958) 


>  <SPECTRUM TYPE>  (3958) 
MS1

>  <INSTRUMENT TYPE>  (3958) 
EI-B

>  <INSTRUMENT>  (3958) 
MS-902

>  <ION MODE>  (3958) 
P

>  <INCHIKEY>  (3958) 
ZGFNWRPKMZWLGN-UHFFFAOYSA-N

>  <FORMULA>  (3958) 
C26H20N2O2

>  <EXACT MASS>  (3958) 
392.15247788

>  <MW>  (3958) 
392

>  <ID>  (3958) 
JP005079

>  <CONTRIBUTOR>  (3958) 
University of Tokyo Team, {Faculty of Engineering, University of Tokyo

>  <COMMENT>  (3958) 
SMILES=c(c12)cccc(ccc(n4)c2c(nc(c(c(OC)5)cccc5)4)c(c(OC)3)cccc3)1
InChI=InChI=1S/C26H20N2O2/c1-29-22-13-7-5-11-19(22)25-24-18-10-4-3-9-17(18)15-16-21(24)27-26(28-25)20-12-6-8-14-23(20)30-2/h3-16H,1-2H3
computed SMILES=N1=C(N=C(C=2C=CC=CC2OC)C3=C1C=CC4=CC=CC=C43)C=5C=CC=CC5OC
accession=JP005079
date=2016.01.19 (Created 2008.10.21, modified 2011.05.06)
author=SASAKI S, TOYOHASHI UNIV. OF TECH.
license=CC BY-NC-SA
exact mass=392.15248
ionization energy=70 eV
ion type=[M]+*
computed spectral entropy=3.8529884736662847
computed normalized entropy=0.7890937487845905
SPLASH=splash10-0006-9626000000-af67cc2881bf0b1fa4f3
submitter=submitter = University of Tokyo Team (Faculty of Engineering, University of Tokyo)
MoNA Rating=3.75

>  <NUM PEAKS>  (3958) 
132

>  <MASS SPECTRAL PEAKS>  (3958) 
50 4.9
51 15.1
52 7.2
53 0.29
56 1.6
57 2.6
62 1.9
63 0.55
64 1.6
65 8.3
71 1.3
74 0.22
75 1.9
76 3.9
77 22.6
78 0.88
79 10.1
89 2.3
90 1.2
91 99.99
92 8.3
93 1
101 1.2
102 0.19
103 8.4
104 14.5
105 24.8
106 5.83
107 6.3
120 12.5
121 1.2
125 0.14
126 9.1
127 3.4
128 1.1
139 0.12
140 1.4
145.5 1
146 1.5
146.5 0.12
150 1.4
151 1.6
151.5 1.8
152 0.48
152.5 1.3
153 2.4
158 3.5
158.5 0.34
159 3.2
159.5 2.5
160 1.6
164 0.16
164.5 1.7
165 4.7
165.5 2.6
166 0.29
166.5 1.3
167 1.8
173.5 2
174 0.36
174.5 1.3
180 2.2
180.5 1.1
181 0.14
188 2.7
188.5 2.3
189 2.6
196 0.4
196.5 1.1
201 1
202 1.4
215 0.2
216 1.7
223 1
226 2
227 0.72
228 1.4
229 1
230 12.4
231 0.36
240 1.1
241 1.1
242 1.2
243 0.13
244 2.2
245 1.1
246 1.1
253 0.53
254 1.4
255 2.1
256 2.8
257 0.77
258 6.6
259 3.3
260 2.7
269 0.12
272 1
273 1.3
284 1.1
285 0.78
286 2
287 3.1
292 1.2
317 0.12
318 2.1
319 1.6
331 6.7
332 0.23
333 1.9
345 1.7
346 2.7
347 0.79
348 2.7
349 3.6
350 1.1
359 0.19
360 1.1
361 6
362 2.2
363 0.59
364 2
373 3.3
374 2
375 0.41
376 1.4
377 18
378 14.4
379 0.31
391 14.4
392 46
393 13.6
394 2.3

>  <PREDICTED SPECTRUM>  (3958) 
27 32
29 13
33 8
34 5
36 13
37 10
38 81
39 333
40 141
41 264
42 84
43 121
44 54
50 241
51 320
52 159
53 94
54 16
55 88
56 37
57 130
61 25
62 123
63 299
64 173
65 401
66 71
69 165
70 39
71 0
74 123
75 284
76 398
77 529
78 261
79 207
80 58
81 54
82 6
83 47
84 80
85 65
86 1
87 144
88 113
89 331
90 154
91 839
92 367
93 130
94 90
95 48
97 55
98 94
99 78
100 92
101 143
102 241
103 140
104 372
105 263
106 316
107 219
108 141
109 75
111 24
112 99
113 186
114 279
115 165
116 66
117 97
118 187
119 238
120 386
121 174
122 79
123 82
124 24
125 141
126 413
127 136
128 128
129 89
130 119
131 161
132 154
133 67
134 93
135 105
136 85
137 141
138 174
139 165
140 228
141 110
142 83
143 163
144 129
145 201
146 138
147 82
148 89
150 61
151 137
152 262
153 123
154 42
155 25
156 50
157 98
158 116
159 146
160 113
161 157
162 94
163 77
164 97
165 176
166 106
167 191
168 144
169 140
170 136
171 157
172 110
173 218
174 220
175 94
176 77
177 64
179 58
180 61
182 12
183 46
184 25
185 62
186 96
187 155
188 177
189 146
190 135
191 82
192 32
193 25
194 0
195 54
197 15
198 44
199 14
200 115
201 185
202 237
203 141
204 137
205 139
206 9
207 2
208 22
209 43
210 114
211 114
212 94
213 70
214 168
215 276
216 226
217 153
218 41
219 2
221 2
224 39
226 92
227 225
228 229
229 334
230 322
231 328
232 189
233 49
238 7
239 87
240 136
241 175
242 53
243 314
244 297
245 309
246 121
247 1
250 118
251 40
252 102
253 130
254 132
255 177
256 185
257 223
258 324
259 265
260 153
261 92
265 3
269 95
270 92
271 251
272 140
273 147
274 73
275 40
276 74
280 60
283 21
285 380
286 247
287 208
288 132
289 48
291 63
292 19
294 32
298 8
299 25
300 10
301 113
302 28
303 50
304 41
305 39
306 55
315 38
316 106
317 134
318 181
319 138
320 199
321 36
322 19
329 82
330 73
331 355
332 272
333 225
334 170
342 50
343 86
344 109
345 203
346 245
347 279
348 297
349 236
350 111
358 49
359 318
360 205
361 328
362 320
363 389
364 253
365 91
373 150
374 95
375 217
376 127
377 859
378 461
379 182
380 35
391 488
392 999
393 558
394 144
395 64

$$$$

     RDKit          2D

 29 34  0  0  0  0  0  0  0  0999 V2000
    2.2081   -6.5755    0.0000 C   0  0  0  0  0  0  0  0  0  0  0  0
    7.4042    2.4245    0.0000 C   0  0  0  0  0  0  0  0  0  0  0  0
    3.5081   -5.8255    0.0000 C   0  0  0  0  0  0  0  0  0  0  0  0
    0.9081   -5.8255    0.0000 C   0  0  0  0  0  0  0  0  0  0  0  0
    6.1047    3.1754    0.0000 C   0  0  0  0  0  0  0  0  0  0  0  0
    7.4047    0.9237    0.0000 C   0  0  0  0  0  0  0  0  0  0  0  0
   -2.3478   -5.8999    0.0000 C   0  0  0  0  0  0  0  0  0  0  0  0
   -0.8561   -5.7431    0.0000 C   0  0  0  0  0  0  0  0  0  0  0  0
   -3.2295   -4.6864    0.0000 C   0  0  0  0  0  0  0  0  0  0  0  0
    3.5081   -4.3255    0.0000 C   0  0  0  0  0  0  0  0  0  0  0  0
    0.9081   -4.3255    0.0000 C   0  0  0  0  0  0  0  0  0  0  0  0
    4.8057    2.4254    0.0000 C   0  0  0  0  0  0  0  0  0  0  0  0
    6.1057    0.1737    0.0000 C   0  0  0  0  0  0  0  0  0  0  0  0
   -0.2460   -4.3728    0.0000 C   0  0  0  0  0  0  0  0  0  0  0  0
   -3.5011   -2.1026    0.0000 C   0  0  0  0  0  0  0  0  0  0  0  0
   -2.8910   -0.7322    0.0000 C   0  0  0  0  0  0  0  0  0  0  0  0
   -2.6194   -3.3161    0.0000 C   0  0  0  0  0  0  0  0  0  0  0  0
    2.2081   -3.5755    0.0000 C   0  0  0  0  0  0  0  0  0  0  0  0
    4.8062    0.9245    0.0000 C   0  0  0  0  0  0  0  0  0  0  0  0
   -1.1276   -3.1593    0.0000 C   0  0  0  0  0  0  0  0  0  0  0  0
   -1.3992   -0.5755    0.0000 C   0  0  0  0  0  0  0  0  0  0  0  0
   -0.5175   -1.7890    0.0000 C   0  0  0  0  0  0  0  0  0  0  0  0
    0.9091   -1.3255    0.0000 C   0  0  0  0  0  0  0  0  0  0  0  0
    2.2081   -2.0755    0.0000 C   0  0  0  0  0  0  0  0  0  0  0  0
    3.5071    0.1745    0.0000 C   0  0  0  0  0  0  0  0  0  0  0  0
    0.9091    0.1745    0.0000 C   0  0  0  0  0  0  0  0  0  0  0  0
   -0.5175    0.6381    0.0000 N   0  0  0  0  0  0  0  0  0  0  0  0
    3.5071   -1.3255    0.0000 N   0  0  0  0  0  0  0  0  0  0  0  0
    2.2081    0.9245    0.0000 N   0  0  0  0  0  0  0  0  0  0  0  0
  3  1  2  0
  4  1  1  0
  5  2  2  0
  6  2  1  0
  8  7  2  0
  9  7  1  0
 10  3  1  0
 11  4  2  0
 12  5  1  0
 13  6  2  0
 14  8  1  0
 16 15  2  0
 17  9  2  0
 17 15  1  0
 18 10  2  0
 18 11  1  0
 19 12  2  0
 19 13  1  0
 20 14  1  0
 20 17  1  0
 21 16  1  0
 22 20  2  0
 22 21  1  0
 23 22  1  0
 24 18  1  0
 24 23  2  0
 25 19  1  0
 26 23  1  0
 27 21  2  0
 27 26  1  0
 28 24  1  0
 28 25  2  0
 29 25  1  0
 29 26  2  0
M  END
>  <NAME>  (3959) 
9,11-DIPHENYLBENZO(E)PYRIMIDO(4,5-B)INDOLE

>  <SYNONYMS>  (3959) 


>  <SPECTRUM TYPE>  (3959) 
MS1

>  <INSTRUMENT TYPE>  (3959) 
EI-B

>  <INSTRUMENT>  (3959) 
MS-902

>  <ION MODE>  (3959) 
P

>  <INCHIKEY>  (3959) 
ILMXIHSUBMOWPZ-UHFFFAOYSA-N

>  <FORMULA>  (3959) 
C26H17N3

>  <EXACT MASS>  (3959) 
371.14224754400004

>  <MW>  (3959) 
371

>  <ID>  (3959) 
JP005077

>  <CONTRIBUTOR>  (3959) 
University of Tokyo Team, {Faculty of Engineering, University of Tokyo

>  <COMMENT>  (3959) 
SMILES=c(c(c(c6)cccc6)4)(c(nc(c(c5)cccc5)n4)1)c(c32)c(ccc2=CC=CC3)=N1
InChI=InChI=1S/C26H17N3/c1-3-10-18(11-4-1)24-23-22-20-14-8-7-9-17(20)15-16-21(22)27-26(23)29-25(28-24)19-12-5-2-6-13-19/h1-13,15-16H,14H2
computed SMILES=N=1C(=NC(C=2C=CC=CC2)=C3C1N=C4C=CC5=CC=CCC5=C43)C=6C=CC=CC6
accession=JP005077
date=2016.01.19 (Created 2008.10.21, modified 2011.05.06)
author=SASAKI S, TOYOHASHI UNIV. OF TECH.
license=CC BY-NC-SA
exact mass=371.14225
ionization energy=70 eV
ion type=[M]+*
computed spectral entropy=2.5478785283580248
computed normalized entropy=0.6512943622322016
SPLASH=splash10-00di-0219000000-461aaa5ebf7bf57216d7
submitter=submitter = University of Tokyo Team (Faculty of Engineering, University of Tokyo)
MoNA Rating=3.75

>  <NUM PEAKS>  (3959) 
50

>  <MASS SPECTRAL PEAKS>  (3959) 
36 2.3
44 12.2
69 0.66
73 1.2
77 2
80 1
106.5 0.12
107 1
119.5 1
120 1.4
120.5 0.15
131 4.9
133 1.1
133.5 1.1
138 0.24
139 1.4
164 3.5
165 2.2
170.5 0.12
171 1.9
172 1.8
177 1.2
183 0.12
183.5 1
184 3.4
185 21.6
186 1.85
189 1.2
190 1
213 3
214 0.25
215 1.3
238 2.1
239 2.5
240 0.86
241 2.5
265 5.2
266 12
267 0.47
268 1.8
291 1.8
292 3.2
293 0.18
325 18.9
368 1.6
369 4.8
370 76.3
371 99.99
372 25.2
373 3.2

>  <PREDICTED SPECTRUM>  (3959) 
38 24
39 149
40 51
41 53
42 11
43 25
44 58
45 1
50 105
51 264
52 119
53 30
57 35
62 39
63 141
64 81
65 5
66 3
69 27
74 45
75 85
76 156
77 447
78 152
79 33
82 18
86 6
88 5
89 44
91 49
92 0
102 92
103 181
104 204
105 41
108 4
109 40
113 42
114 47
115 101
116 4
119 0
122 2
126 13
127 99
128 81
129 54
130 4
131 30
134 11
135 19
136 35
137 4
138 7
139 35
140 39
145 27
148 20
149 8
150 19
151 85
152 105
153 62
163 33
164 80
165 156
166 42
176 23
177 81
181 3
184 60
185 52
187 41
189 64
190 113
191 59
192 14
195 66
196 20
208 12
209 23
211 59
212 48
213 78
214 66
215 1
216 17
222 12
225 7
226 20
227 18
235 21
237 20
238 16
239 60
240 73
241 121
250 77
251 69
252 8
263 40
264 67
265 57
266 63
267 245
268 225
269 42
278 15
291 37
292 140
293 68
294 117
295 56
339 25
340 85
341 33
342 92
343 10
344 33
345 40
354 16
355 10
368 62
369 169
370 752
371 999
372 521
373 111
374 72

$$$$

     RDKit          2D

 28 31  0  0  0  0  0  0  0  0999 V2000
   -3.8965    3.7511    0.0000 C   0  0  0  0  0  0  0  0  0  0  0  0
    5.1966   -2.9995    0.0000 C   0  0  0  0  0  0  0  0  0  0  0  0
   -2.5974   -6.0004    0.0000 C   0  0  0  0  0  0  0  0  0  0  0  0
   -7.7946   -2.9997    0.0000 C   0  0  0  0  0  0  0  0  0  0  0  0
    5.1971   -1.4987    0.0000 C   0  0  0  0  0  0  0  0  0  0  0  0
    3.8971   -3.7504    0.0000 C   0  0  0  0  0  0  0  0  0  0  0  0
   -1.2975   -5.2502    0.0000 C   0  0  0  0  0  0  0  0  0  0  0  0
   -3.8975   -5.2506    0.0000 C   0  0  0  0  0  0  0  0  0  0  0  0
   -6.4952   -3.7508    0.0000 C   0  0  0  0  0  0  0  0  0  0  0  0
   -7.7949   -1.4989    0.0000 C   0  0  0  0  0  0  0  0  0  0  0  0
    3.8980   -0.7487    0.0000 C   0  0  0  0  0  0  0  0  0  0  0  0
    2.5980   -3.0004    0.0000 C   0  0  0  0  0  0  0  0  0  0  0  0
   -1.2977   -3.7502    0.0000 C   0  0  0  0  0  0  0  0  0  0  0  0
   -3.8977   -3.7506    0.0000 C   0  0  0  0  0  0  0  0  0  0  0  0
   -5.1961   -3.0010    0.0000 C   0  0  0  0  0  0  0  0  0  0  0  0
   -6.4957   -0.7491    0.0000 C   0  0  0  0  0  0  0  0  0  0  0  0
    1.2995   -0.7495    0.0000 C   0  0  0  0  0  0  0  0  0  0  0  0
    0.0005   -1.4995    0.0000 C   0  0  0  0  0  0  0  0  0  0  0  0
    2.5985   -1.4995    0.0000 C   0  0  0  0  0  0  0  0  0  0  0  0
   -2.5979   -3.0004    0.0000 C   0  0  0  0  0  0  0  0  0  0  0  0
   -5.1963   -1.5002    0.0000 C   0  0  0  0  0  0  0  0  0  0  0  0
   -1.2986   -0.7495    0.0000 C   0  0  0  0  0  0  0  0  0  0  0  0
   -2.5981   -1.5004    0.0000 C   0  0  0  0  0  0  0  0  0  0  0  0
   -3.8971   -0.7504    0.0000 C   0  0  0  0  0  0  0  0  0  0  0  0
   -2.5971    1.5013    0.0000 C   0  0  0  0  0  0  0  0  0  0  0  0
   -1.2981    0.7513    0.0000 N   0  0  0  0  0  0  0  0  0  0  0  0
   -3.8967    0.7505    0.0000 N   0  0  0  0  0  0  0  0  0  0  0  0
   -2.5974    3.0013    0.0000 O   0  0  0  0  0  0  0  0  0  0  0  0
  5  2  2  0
  6  2  1  0
  7  3  2  0
  8  3  1  0
  9  4  2  0
 10  4  1  0
 11  5  1  0
 12  6  2  0
 13  7  1  0
 14  8  2  0
 15  9  1  0
 16 10  2  0
 18 17  1  0
 19 11  2  0
 19 12  1  0
 19 17  1  0
 20 13  2  0
 20 14  1  0
 21 15  2  0
 21 16  1  0
 22 18  1  0
 23 20  1  0
 23 22  2  0
 24 21  1  0
 24 23  1  0
 26 22  1  0
 26 25  2  0
 27 24  2  0
 27 25  1  0
 28  1  1  0
 28 25  1  0
M  END
>  <NAME>  (3960) 
2-METHOXY-4-PHENETHYL-5,6-DIPHENYLPYRIMIDINE

>  <SYNONYMS>  (3960) 


>  <SPECTRUM TYPE>  (3960) 
MS1

>  <INSTRUMENT TYPE>  (3960) 
EI-B

>  <INSTRUMENT>  (3960) 
MS-902

>  <ION MODE>  (3960) 
P

>  <INCHIKEY>  (3960) 
XVUHEFHMMXQDDJ-UHFFFAOYSA-N

>  <FORMULA>  (3960) 
C25H22N2O

>  <EXACT MASS>  (3960) 
366.17321332399996

>  <MW>  (3960) 
366

>  <ID>  (3960) 
JP005076

>  <CONTRIBUTOR>  (3960) 
University of Tokyo Team, {Faculty of Engineering, University of Tokyo

>  <COMMENT>  (3960) 
SMILES=COc(n1)nc(c(c4)cccc4)c(c(c3)cccc3)c(CCc(c2)cccc2)1
InChI=InChI=1S/C25H22N2O/c1-28-25-26-22(18-17-19-11-5-2-6-12-19)23(20-13-7-3-8-14-20)24(27-25)21-15-9-4-10-16-21/h2-16H,17-18H2,1H3
computed SMILES=N=1C(=NC(=C(C=2C=CC=CC2)C1C=3C=CC=CC3)CCC=4C=CC=CC4)OC
accession=JP005076
date=2016.01.19 (Created 2008.10.21, modified 2011.05.06)
author=SASAKI S, TOYOHASHI UNIV. OF TECH.
license=CC BY-NC-SA
exact mass=366.17321
ionization energy=70 eV
ion type=[M]+*
computed spectral entropy=3.542309972519761
computed normalized entropy=0.749316558818867
SPLASH=splash10-014i-4479000000-7082d1dba88a9e7a91e0
submitter=submitter = University of Tokyo Team (Faculty of Engineering, University of Tokyo)
MoNA Rating=3.75

>  <NUM PEAKS>  (3960) 
113

>  <MASS SPECTRAL PEAKS>  (3960) 
32 2.3
39 5.3
41 1.6
42 0.26
50 1.5
51 7.3
52 1.4
54 0.13
58 1.3
63 3.2
64 1
65 1.13
75 1.1
77 18.6
78 4.1
79 0.15
83 1.3
88 1.6
89 6.5
90 0.16
91 40.4
92 3.2
101 1.6
102 0.33
103 5.3
104 6.9
105 1.6
114 0.2
115 9.4
116 2.3
117 1.3
118 0.65
126 1.3
127 2.3
128 4.1
129 0.68
130 3.7
132 1.1
136 1.3
138 0.11
139 1.7
140 2.7
144 1.3
150 0.11
151 2.9
152 3.4
155 1.4
156 0.22
157 4.9
163 1.3
164 1.7
165 0.76
166 1.6
167 1.2
175 1
176 0.5
177 5.1
178 9.2
179 2.5
189 0.35
190 5.3
191 4.1
192 1.7
201 0.16
202 4.4
203 6.5
204 7.2
205 0.21
215 2.1
216 2.9
217 4
218 0.35
219 2.3
228 1.1
229 4
230 0.26
231 3.3
232 2
241 1.1
242 0.14
243 2.7
244 1.5
245 5.7
246 0.17
247 2.7
248 1
258 1.5
259 0.29
260 1.7
261 25
262 5
263 0.35
271 1.1
273 10.1
274 14
275 0.81
276 1.6
287 4.1
289 37.2
290 0.8
291 1.6
308 1.9
309 1
337 0.11
349 1.2
351 4.1
352 1.1
364 0.2
364.5 1
365 74.1
366 99.99
367 2.32
368 2.6

>  <PREDICTED SPECTRUM>  (3960) 
33 1
39 173
40 63
41 181
42 136
43 288
44 126
45 40
49 32
50 125
51 283
52 154
53 188
54 79
55 104
56 55
57 53
62 92
63 214
64 79
65 438
66 120
67 140
68 130
69 136
70 10
71 14
74 56
75 116
76 173
77 381
78 218
79 190
80 59
81 33
82 45
83 56
84 65
86 60
87 115
88 95
89 265
90 97
91 999
92 265
93 44
95 30
96 53
97 43
100 24
101 127
102 208
103 366
104 373
105 221
106 153
107 101
108 75
109 111
110 53
111 17
112 42
113 47
114 140
115 430
116 248
117 277
118 131
119 102
120 90
121 120
122 57
123 63
124 26
125 78
126 125
127 219
128 295
129 348
130 157
131 167
132 101
133 90
134 99
135 102
136 73
137 39
138 66
139 97
140 177
141 180
142 130
143 187
144 150
145 164
146 91
147 77
148 101
149 88
150 70
151 117
152 141
153 86
154 19
155 93
156 84
157 86
158 123
159 85
160 102
161 91
162 113
163 125
164 109
165 151
166 144
167 72
168 30
169 72
170 87
171 114
172 89
173 121
174 144
175 51
176 107
177 86
178 156
179 93
180 94
181 56
182 1
183 43
184 38
185 90
186 68
187 75
188 139
189 161
190 140
191 156
192 128
193 99
194 36
195 4
198 46
199 142
200 90
201 129
202 64
203 133
204 132
205 197
206 126
207 126
208 78
215 132
216 99
217 174
218 152
219 185
220 128
221 103
226 16
227 48
228 49
229 73
230 95
231 168
232 167
233 191
234 120
235 82
236 3
242 40
243 188
244 192
245 168
246 216
247 210
248 180
249 188
250 38
251 33
257 45
258 44
259 128
260 130
261 261
262 233
263 189
264 3
265 14
266 4
267 13
273 131
274 107
275 405
276 173
277 44
287 163
289 468
290 162
291 69
305 9
306 44
307 46
308 94
309 43
320 63
321 76
322 40
323 92
324 10
333 78
334 96
335 198
336 220
337 379
338 200
339 77
348 13
349 81
351 323
352 145
363 23
365 670
366 707
367 490
368 137
369 31

$$$$

     RDKit          2D

 28 31  0  0  0  0  0  0  0  0999 V2000
   -3.8965    3.7511    0.0000 C   0  0  0  0  0  0  0  0  0  0  0  0
    5.1966   -2.9995    0.0000 C   0  0  0  0  0  0  0  0  0  0  0  0
   -2.5974   -6.0004    0.0000 C   0  0  0  0  0  0  0  0  0  0  0  0
   -7.7946   -2.9997    0.0000 C   0  0  0  0  0  0  0  0  0  0  0  0
    5.1971   -1.4987    0.0000 C   0  0  0  0  0  0  0  0  0  0  0  0
    3.8971   -3.7504    0.0000 C   0  0  0  0  0  0  0  0  0  0  0  0
   -1.2975   -5.2502    0.0000 C   0  0  0  0  0  0  0  0  0  0  0  0
   -3.8975   -5.2506    0.0000 C   0  0  0  0  0  0  0  0  0  0  0  0
   -6.4952   -3.7508    0.0000 C   0  0  0  0  0  0  0  0  0  0  0  0
   -7.7949   -1.4989    0.0000 C   0  0  0  0  0  0  0  0  0  0  0  0
    3.8980   -0.7487    0.0000 C   0  0  0  0  0  0  0  0  0  0  0  0
    2.5980   -3.0004    0.0000 C   0  0  0  0  0  0  0  0  0  0  0  0
   -1.2977   -3.7502    0.0000 C   0  0  0  0  0  0  0  0  0  0  0  0
   -3.8977   -3.7506    0.0000 C   0  0  0  0  0  0  0  0  0  0  0  0
   -5.1961   -3.0010    0.0000 C   0  0  0  0  0  0  0  0  0  0  0  0
   -6.4957   -0.7491    0.0000 C   0  0  0  0  0  0  0  0  0  0  0  0
    1.2995   -0.7495    0.0000 C   0  0  0  0  0  0  0  0  0  0  0  0
    0.0005   -1.4995    0.0000 C   0  0  0  0  0  0  0  0  0  0  0  0
    2.5985   -1.4995    0.0000 C   0  0  0  0  0  0  0  0  0  0  0  0
   -2.5979   -3.0004    0.0000 C   0  0  0  0  0  0  0  0  0  0  0  0
   -5.1963   -1.5002    0.0000 C   0  0  0  0  0  0  0  0  0  0  0  0
   -1.2986   -0.7495    0.0000 C   0  0  0  0  0  0  0  0  0  0  0  0
   -2.5981   -1.5004    0.0000 C   0  0  0  0  0  0  0  0  0  0  0  0
   -3.8971   -0.7504    0.0000 C   0  0  0  0  0  0  0  0  0  0  0  0
   -2.5971    1.5013    0.0000 C   0  0  0  0  0  0  0  0  0  0  0  0
   -1.2981    0.7513    0.0000 N   0  0  0  0  0  0  0  0  0  0  0  0
   -3.8967    0.7505    0.0000 N   0  0  0  0  0  0  0  0  0  0  0  0
   -2.5974    3.0013    0.0000 O   0  0  0  0  0  0  0  0  0  0  0  0
  5  2  2  0
  6  2  1  0
  7  3  2  0
  8  3  1  0
  9  4  2  0
 10  4  1  0
 11  5  1  0
 12  6  2  0
 13  7  1  0
 14  8  2  0
 15  9  1  0
 16 10  2  0
 17 18  2  0
 19 11  2  0
 19 12  1  0
 19 17  1  0
 20 13  2  0
 20 14  1  0
 21 15  2  0
 21 16  1  0
 22 18  1  0
 23 20  1  0
 23 22  2  0
 24 21  1  0
 24 23  1  0
 26 22  1  0
 26 25  2  0
 27 24  2  0
 27 25  1  0
 28  1  1  0
 28 25  1  0
M  END
>  <NAME>  (3961) 
2-METHOXY-4,5-DIPHENYL-6-STYRYLPYRIMIDINE

>  <SYNONYMS>  (3961) 


>  <SPECTRUM TYPE>  (3961) 
MS1

>  <INSTRUMENT TYPE>  (3961) 
EI-B

>  <INSTRUMENT>  (3961) 
MS-902

>  <ION MODE>  (3961) 
P

>  <INCHIKEY>  (3961) 
JNQXQVXORRLFKD-ISLYRVAYSA-N

>  <FORMULA>  (3961) 
C25H20N2O

>  <EXACT MASS>  (3961) 
364.15756325999996

>  <MW>  (3961) 
364

>  <ID>  (3961) 
JP005075

>  <CONTRIBUTOR>  (3961) 
University of Tokyo Team, {Faculty of Engineering, University of Tokyo

>  <COMMENT>  (3961) 
SMILES=COc(n1)nc(c(c4)cccc4)c(c(c3)cccc3)c(C=Cc(c2)cccc2)1
InChI=InChI=1S/C25H20N2O/c1-28-25-26-22(18-17-19-11-5-2-6-12-19)23(20-13-7-3-8-14-20)24(27-25)21-15-9-4-10-16-21/h2-18H,1H3/b18-17+
computed SMILES=N=1C(=NC(C=2C=CC=CC2)=C(C1C=CC=3C=CC=CC3)C=4C=CC=CC4)OC
accession=JP005075
date=2016.01.19 (Created 2008.10.21, modified 2011.05.06)
author=SASAKI S, TOYOHASHI UNIV. OF TECH.
license=CC BY-NC-SA
exact mass=364.15756
ionization energy=70 eV
ion type=[M]+*
computed spectral entropy=3.7107417359237047
computed normalized entropy=0.7660194929912364
SPLASH=splash10-01p9-2495000000-fdeab19cbd58b9d235dc
submitter=submitter = University of Tokyo Team (Faculty of Engineering, University of Tokyo)
MoNA Rating=3.75

>  <NUM PEAKS>  (3961) 
127

>  <MASS SPECTRAL PEAKS>  (3961) 
32 1.7
39 3.2
50 1.7
51 0.7
52 1.6
58 1.1
63 3.2
65 0.26
75 2
76 3.9
77 20.9
78 0.31
83 2.4
85 2
87 1.1
88 0.17
89 4.4
91 8
100 1
101 0.35
102 4
103 3.3
104 4
105 0.11
113 1.3
114 1.5
115 3.8
116 0.14
118 15.2
119 1.4
125 1.2
126 0.32
127 2.8
128 7
129 2.4
138 0.13
139 2.6
140 2.5
141 1.2
143 0.1
145.5 1.4
150 1.4
151 3.5
151.5 0.11
152 7.4
152.5 2.4
153 2.4
155 0.1
163 2.2
164 1.5
165 4.7
166 0.1
167 1.2
169 1
173 1.2
174 0.22
175 1.4
176 4.6
177 2.6
178 0.53
179 1
189 2.8
190 4.5
191 0.22
194 1.1
200 1.7
201 2.9
202 1.31
203 6.1
204 2.2
209 1.7
214 0.18
215 2.8
216 2.9
217 3.5
218 0.14
219 1
226 1.4
227 3
228 0.39
229 1.9
230 7.2
231 1.7
242 0.26
243 1.7
244 1.4
245 2.4
246 0.15
253 2.6
255 3.2
256 1.1
257 0.14
260 2.4
261 1.1
271 6.8
272 0.24
277 1.2
278 1.2
285 3.2
286 0.2
287 99.99
288 18.4
289 3.5
290 0.14
291 1.8
302 1
303 1
304 0.5
305 2
306 8.2
307 4
308 0.1
319 1.3
329 1.3
331 1.3
332 0.12
333 1.8
347 5.1
348 2.4
349 0.43
350 1.5
361 1.4
362 1.2
363 7.48
364 60.4
365 12.6
366 1.5

>  <PREDICTED SPECTRUM>  (3961) 
38 29
39 168
40 85
41 88
42 129
43 142
44 89
50 108
51 286
52 109
53 91
54 52
55 21
56 6
57 66
58 6
62 36
63 137
64 71
65 127
66 48
67 73
68 34
69 37
70 29
71 32
74 46
75 94
76 117
77 472
78 171
79 76
80 27
81 52
82 74
83 6
84 3
86 46
87 57
88 67
89 164
90 43
91 237
92 72
94 26
95 6
96 11
97 21
98 21
99 52
100 84
101 109
102 143
103 222
104 135
105 117
106 62
107 42
108 65
109 36
110 3
111 21
112 41
113 129
114 121
115 279
116 96
117 90
118 49
119 49
121 60
122 20
123 40
124 30
125 126
126 206
127 272
128 200
129 123
130 74
131 72
132 41
133 49
134 58
135 46
136 18
137 40
138 65
139 189
140 152
141 145
142 48
143 81
144 40
145 57
146 43
147 12
148 16
149 71
150 103
151 171
152 216
153 155
154 95
155 124
156 78
157 67
158 25
159 91
160 22
161 95
162 50
163 129
164 113
165 193
166 102
167 80
168 29
169 26
170 11
174 7
175 38
176 106
177 167
178 184
179 107
180 59
181 70
182 41
183 50
184 63
187 42
188 57
189 169
190 111
191 116
192 81
193 108
194 30
195 29
196 25
199 12
200 11
201 102
202 201
203 136
204 131
205 98
206 91
207 83
208 14
209 27
213 22
214 62
215 166
216 134
217 129
218 122
219 83
226 37
227 87
228 142
229 138
230 136
231 120
232 161
233 91
234 65
239 0
240 43
241 187
242 130
243 128
244 132
245 95
246 90
247 58
248 5
252 0
253 87
254 124
255 30
256 76
257 164
258 121
259 147
260 78
261 162
262 64
263 3
264 31
265 43
266 37
267 25
268 8
269 58
270 34
271 103
272 77
273 97
274 38
276 40
277 21
282 3
283 22
285 235
286 106
287 592
288 285
289 88
290 53
291 80
292 82
293 17
298 11
301 9
302 11
303 46
304 75
305 36
306 111
307 62
308 1
316 39
317 46
318 131
319 155
320 164
321 169
322 131
323 19
329 9
331 98
332 67
333 162
334 116
335 145
336 130
337 51
338 33
346 7
347 74
348 106
349 172
350 57
351 7
361 76
362 67
363 999
364 918
365 411
366 159
367 28

$$$$

     RDKit          2D

 27 30  0  0  0  0  0  0  0  0999 V2000
    5.1966   -2.9995    0.0000 C   0  0  0  0  0  0  0  0  0  0  0  0
   -2.5974   -6.0004    0.0000 C   0  0  0  0  0  0  0  0  0  0  0  0
   -7.7946   -2.9997    0.0000 C   0  0  0  0  0  0  0  0  0  0  0  0
    5.1971   -1.4987    0.0000 C   0  0  0  0  0  0  0  0  0  0  0  0
    3.8971   -3.7504    0.0000 C   0  0  0  0  0  0  0  0  0  0  0  0
   -1.2975   -5.2502    0.0000 C   0  0  0  0  0  0  0  0  0  0  0  0
   -3.8975   -5.2506    0.0000 C   0  0  0  0  0  0  0  0  0  0  0  0
   -6.4952   -3.7508    0.0000 C   0  0  0  0  0  0  0  0  0  0  0  0
   -7.7949   -1.4989    0.0000 C   0  0  0  0  0  0  0  0  0  0  0  0
    3.8980   -0.7487    0.0000 C   0  0  0  0  0  0  0  0  0  0  0  0
    2.5980   -3.0004    0.0000 C   0  0  0  0  0  0  0  0  0  0  0  0
   -1.2977   -3.7502    0.0000 C   0  0  0  0  0  0  0  0  0  0  0  0
   -3.8977   -3.7506    0.0000 C   0  0  0  0  0  0  0  0  0  0  0  0
   -5.1961   -3.0010    0.0000 C   0  0  0  0  0  0  0  0  0  0  0  0
   -6.4957   -0.7491    0.0000 C   0  0  0  0  0  0  0  0  0  0  0  0
    1.2995   -0.7495    0.0000 C   0  0  0  0  0  0  0  0  0  0  0  0
    0.0005   -1.4995    0.0000 C   0  0  0  0  0  0  0  0  0  0  0  0
    2.5985   -1.4995    0.0000 C   0  0  0  0  0  0  0  0  0  0  0  0
   -2.5979   -3.0004    0.0000 C   0  0  0  0  0  0  0  0  0  0  0  0
   -5.1963   -1.5002    0.0000 C   0  0  0  0  0  0  0  0  0  0  0  0
   -1.2986   -0.7495    0.0000 C   0  0  0  0  0  0  0  0  0  0  0  0
   -2.5981   -1.5004    0.0000 C   0  0  0  0  0  0  0  0  0  0  0  0
   -3.8971   -0.7504    0.0000 C   0  0  0  0  0  0  0  0  0  0  0  0
   -2.5971    1.5013    0.0000 C   0  0  0  0  0  0  0  0  0  0  0  0
   -1.2981    0.7513    0.0000 N   0  0  0  0  0  0  0  0  0  0  0  0
   -3.8967    0.7505    0.0000 N   0  0  0  0  0  0  0  0  0  0  0  0
   -2.5974    3.0013    0.0000 O   0  0  0  0  0  0  0  0  0  0  0  0
  4  1  2  0
  5  1  1  0
  6  2  2  0
  7  2  1  0
  8  3  2  0
  9  3  1  0
 10  4  1  0
 11  5  2  0
 12  6  1  0
 13  7  2  0
 14  8  1  0
 15  9  2  0
 16 17  2  0
 18 10  2  0
 18 11  1  0
 18 16  1  0
 19 12  2  0
 19 13  1  0
 20 14  2  0
 20 15  1  0
 21 17  1  0
 22 19  1  0
 22 21  2  0
 23 20  1  0
 23 22  1  0
 25 21  1  0
 25 24  2  0
 26 23  2  0
 26 24  1  0
 27 24  1  0
M  END
>  <NAME>  (3962) 
4,5-DIPHENYL-6-STYRYL-1,2-DIHYDROPYRIMIDIN-2-ONE

>  <SYNONYMS>  (3962) 


>  <SPECTRUM TYPE>  (3962) 
MS1

>  <INSTRUMENT TYPE>  (3962) 
EI-B

>  <INSTRUMENT>  (3962) 
MS-902

>  <ION MODE>  (3962) 
P

>  <INCHIKEY>  (3962) 
XVZMRIDMPDUGKB-WUKNDPDISA-N

>  <FORMULA>  (3962) 
C24H18N2O

>  <EXACT MASS>  (3962) 
350.14191319599996

>  <MW>  (3962) 
350

>  <ID>  (3962) 
JP005074

>  <CONTRIBUTOR>  (3962) 
University of Tokyo Team, {Faculty of Engineering, University of Tokyo

>  <COMMENT>  (3962) 
SMILES=c(c4)ccc(c4)C=CC(N2)=C(c(c3)cccc3)C(=NC(=O)2)c(c1)cccc1
InChI=InChI=1S/C24H18N2O/c27-24-25-21(17-16-18-10-4-1-5-11-18)22(19-12-6-2-7-13-19)23(26-24)20-14-8-3-9-15-20/h1-17H,(H,25,26,27)/b17-16+
computed SMILES=OC=1N=C(C=CC=2C=CC=CC2)C(C=3C=CC=CC3)=C(N1)C=4C=CC=CC4
accession=JP005074
date=2016.01.19 (Created 2008.10.21, modified 2011.05.06)
author=SASAKI S, TOYOHASHI UNIV. OF TECH.
license=CC BY-NC-SA
exact mass=350.14191
ionization energy=70 eV
ion type=[M]+*
computed spectral entropy=3.776143858845982
computed normalized entropy=0.7745622604597451
SPLASH=splash10-0uk9-4695000000-5c4cd91aaf72cba24d6d
submitter=submitter = University of Tokyo Team (Faculty of Engineering, University of Tokyo)
MoNA Rating=3.75

>  <NUM PEAKS>  (3962) 
131

>  <MASS SPECTRAL PEAKS>  (3962) 
32 2.2
38 1
39 5.6
43 0.37
44 1.2
50 3.1
51 14.3
52 0.26
62 1.6
63 5.5
65 3.1
74 0.19
75 2.9
76 6.1
77 41
78 0.48
79 1
87 1.4
88 3.1
89 0.64
90 2.1
91 11.4
92 1.1
94.5 0.1
100 1
101 4.3
102 5.6
103 0.72
104 33.9
105 4.6
109 1.1
113 0.19
114 2.1
115 6.1
116 2.1
120 0.1
125 1
126 4.2
127 4.6
128 0.64
129 2.3
130 3.1
132 1.3
136 0.16
138 1.3
139 3.1
140 6.4
141 0.14
145 1.1
146 1.4
150 2.6
151 0.44
152 6.2
153 2.4
163 2.2
164 0.23
165 7.4
166 1.8
167 2.1
174 0.11
175 2.3
176 5.7
177 3.9
178 0.63
179 1.3
188 1.1
189 4.1
190 0.54
191 3.7
192 1.9
193 1.6
195 0.14
200 2.1
201 3.3
202 14.6
203 0.81
204 3.3
205 1
214 1.8
215 0.13
216 4.6
217 8
218 5
219 0.29
226 1.2
227 4.1
228 4.4
229 0.24
230 7.1
231 2.4
232 1.3
242 0.13
243 1.4
244 1.3
245 1.6
246 0.22
247 1.4
252 1.1
253 4.1
254 0.11
255 1.8
258 2.3
259 1
271 0.76
272 2.4
273 99.99
274 18.7
275 0.23
276 1.9
277 1.3
278 1.3
289 0.14
290 1.1
291 1.3
303 1
304 0.46
305 2.1
306 10.9
307 6.8
308 0.88
309 1.8
319 1.1
321 2.9
322 0.11
323 1.3
347 2.6
348 1.6
349 8.33
350 66.4
351 13
352 2.8

>  <PREDICTED SPECTRUM>  (3962) 
27 11
38 44
39 188
40 97
41 88
42 94
43 110
44 92
45 11
50 152
51 363
52 162
53 113
54 33
55 70
57 32
62 60
63 179
64 90
65 154
66 81
67 82
68 65
69 41
70 14
71 18
74 68
75 134
76 189
77 627
78 240
79 75
80 19
81 56
82 52
83 35
86 53
87 82
88 81
89 228
90 83
91 157
92 58
93 6
94 56
95 19
96 54
97 38
98 0
99 24
100 60
101 118
102 230
103 295
104 302
105 155
106 85
107 34
108 38
109 50
110 19
111 9
112 25
113 124
114 146
115 317
116 154
117 102
118 66
119 53
120 0
121 41
122 34
123 20
125 62
126 138
127 253
128 231
129 158
130 70
131 70
132 57
133 16
134 11
135 46
136 22
137 38
138 57
139 142
140 165
141 108
142 68
143 112
144 81
145 80
146 25
147 66
148 30
149 105
150 65
151 134
152 194
153 95
154 48
155 118
156 94
157 43
158 25
159 16
160 36
161 39
162 27
163 122
164 106
165 173
166 92
167 106
168 76
169 56
170 45
172 23
173 39
175 38
176 96
177 151
178 157
179 116
180 77
181 20
182 1
184 4
185 32
187 56
188 47
189 163
190 155
191 185
192 161
193 122
194 29
195 43
199 2
200 67
201 124
202 129
203 112
204 108
205 117
206 30
207 14
213 34
214 74
215 102
216 114
217 110
218 246
219 161
220 107
226 76
227 123
228 150
229 57
230 121
231 66
232 23
238 6
240 3
241 31
242 18
243 139
244 136
245 124
246 137
247 171
248 66
250 12
251 11
252 14
253 50
254 54
255 84
256 51
257 20
258 47
262 17
263 37
264 12
265 40
271 219
272 82
273 649
274 294
275 91
276 66
277 30
278 56
279 19
280 12
283 34
290 39
291 62
292 129
293 30
295 25
296 42
297 27
302 54
303 37
304 114
305 72
306 98
307 150
308 114
309 10
317 40
318 45
319 105
320 124
321 177
322 117
323 13
324 4
329 7
332 15
333 105
334 69
335 48
347 55
348 48
349 999
350 830
351 366
352 150
353 21

$$$$

     RDKit          2D

 27 31  0  0  0  0  0  0  0  0999 V2000
   -2.1300   -6.8000    0.0000 C   0  0  0  0  0  0  0  0  0  0  0  0
   -0.8300   -6.0500    0.0000 C   0  0  0  0  0  0  0  0  0  0  0  0
   -3.4300   -6.0500    0.0000 C   0  0  0  0  0  0  0  0  0  0  0  0
    3.0600    2.2000    0.0000 C   0  0  0  0  0  0  0  0  0  0  0  0
    1.7600    2.9500    0.0000 C   0  0  0  0  0  0  0  0  0  0  0  0
   -6.0282    2.9523    0.0000 C   0  0  0  0  0  0  0  0  0  0  0  0
   -7.3275    2.2027    0.0000 C   0  0  0  0  0  0  0  0  0  0  0  0
    3.0600    0.7000    0.0000 C   0  0  0  0  0  0  0  0  0  0  0  0
   -0.8300   -4.5500    0.0000 C   0  0  0  0  0  0  0  0  0  0  0  0
   -3.4300   -4.5500    0.0000 C   0  0  0  0  0  0  0  0  0  0  0  0
    0.4600    2.2000    0.0000 C   0  0  0  0  0  0  0  0  0  0  0  0
   -4.7289    2.2010    0.0000 C   0  0  0  0  0  0  0  0  0  0  0  0
   -7.3275    0.7019    0.0000 C   0  0  0  0  0  0  0  0  0  0  0  0
    1.7600   -1.5500    0.0000 C   0  0  0  0  0  0  0  0  0  0  0  0
    0.4600   -2.3000    0.0000 C   0  0  0  0  0  0  0  0  0  0  0  0
    1.7600   -0.0500    0.0000 C   0  0  0  0  0  0  0  0  0  0  0  0
   -2.1300   -3.8000    0.0000 C   0  0  0  0  0  0  0  0  0  0  0  0
    0.4600    0.7000    0.0000 C   0  0  0  0  0  0  0  0  0  0  0  0
   -4.7289    0.7002    0.0000 C   0  0  0  0  0  0  0  0  0  0  0  0
   -0.8300   -1.5500    0.0000 C   0  0  0  0  0  0  0  0  0  0  0  0
   -6.0282   -0.0494    0.0000 C   0  0  0  0  0  0  0  0  0  0  0  0
   -2.1300   -2.3000    0.0000 C   0  0  0  0  0  0  0  0  0  0  0  0
   -0.8300   -0.0500    0.0000 C   0  0  0  0  0  0  0  0  0  0  0  0
   -3.4300   -0.0500    0.0000 C   0  0  0  0  0  0  0  0  0  0  0  0
   -3.4300   -1.5500    0.0000 N   0  0  0  0  0  0  0  0  0  0  0  0
   -2.1300    0.7000    0.0000 N   0  0  0  0  0  0  0  0  0  0  0  0
   -6.0289   -1.5494    0.0000 O   0  0  0  0  0  0  0  0  0  0  0  0
  2  1  2  0
  3  1  1  0
  5  4  2  0
  7  6  2  0
  8  4  1  0
  9  2  1  0
 10  3  2  0
 11  5  1  0
 12  6  1  0
 13  7  1  0
 15 14  1  0
 16  8  2  0
 16 14  1  0
 17  9  2  0
 17 10  1  0
 18 11  2  0
 18 16  1  0
 19 12  2  0
 20 15  1  0
 21 13  2  0
 21 19  1  0
 22 17  1  0
 22 20  1  0
 23 18  1  0
 23 20  2  0
 24 19  1  0
 25 22  2  0
 25 24  1  0
 26 23  1  0
 26 24  2  0
 27 21  1  0
M  END
>  <NAME>  (3963) 
2-(2-HYDROXYPHENYL)-4-PHENYL-5,6-DIHYDROBENZO(H)QUINAZOLINE

>  <SYNONYMS>  (3963) 


>  <SPECTRUM TYPE>  (3963) 
MS1

>  <INSTRUMENT TYPE>  (3963) 
EI-B

>  <INSTRUMENT>  (3963) 
MS-902

>  <ION MODE>  (3963) 
P

>  <INCHIKEY>  (3963) 
LRBKHMOUDPDKHY-UHFFFAOYSA-N

>  <FORMULA>  (3963) 
C24H18N2O

>  <EXACT MASS>  (3963) 
350.14191319599996

>  <MW>  (3963) 
350

>  <ID>  (3963) 
JP005073

>  <CONTRIBUTOR>  (3963) 
University of Tokyo Team, {Faculty of Engineering, University of Tokyo

>  <COMMENT>  (3963) 
SMILES=c(c5)ccc(c5)c(n3)c(C1)c(nc(c(c4)c(O)ccc4)3)c(c2)c(ccc2)C1
InChI=InChI=1S/C24H18N2O/c27-21-13-7-6-12-19(21)24-25-22(17-9-2-1-3-10-17)20-15-14-16-8-4-5-11-18(16)23(20)26-24/h1-13,27H,14-15H2
computed SMILES=OC=1C=CC=CC1C=2N=C(C=3C=CC=CC3)C4=C(N2)C=5C=CC=CC5CC4
accession=JP005073
date=2016.01.19 (Created 2008.10.21, modified 2011.05.06)
author=SASAKI S, TOYOHASHI UNIV. OF TECH.
license=CC BY-NC-SA
exact mass=350.14191
ionization energy=70 eV
ion type=[M]+*
computed spectral entropy=2.0103559432194715
computed normalized entropy=0.5654456071390347
SPLASH=splash10-0udi-0109000000-741e2a6a93082866a2c1
submitter=submitter = University of Tokyo Team (Faculty of Engineering, University of Tokyo)
MoNA Rating=3.75

>  <NUM PEAKS>  (3963) 
35

>  <MASS SPECTRAL PEAKS>  (3963) 
77 2.8
83 1.8
85 1.4
115 0.29
126 1.9
127 4
128 2.9
146 0.1
147 1.7
149 1.3
152 1.7
153 0.18
154 1
159 1.1
159.5 1.2
160 0.25
161 1.7
165 1.6
165.5 1.1
174 0.31
175 6.6
176 1.5
202 1.3
230 0.33
246 1.3
255 1.1
319 1
321 0.25
322 1.5
347 3.3
348 10.7
349 3.17
350 99.99
351 23.8
352 2.9

>  <PREDICTED SPECTRUM>  (3963) 
29 16
33 2
36 3
38 18
39 151
40 61
41 72
42 28
43 57
44 63
50 61
51 143
52 76
53 21
57 61
62 23
63 142
64 91
65 71
69 24
70 13
74 9
75 69
76 141
77 235
78 72
79 0
87 17
88 46
89 128
90 92
91 95
92 32
101 28
102 160
103 101
104 82
105 10
106 23
107 54
108 13
113 30
114 75
115 211
116 108
117 74
118 83
119 46
120 58
121 73
122 37
123 35
125 26
126 68
127 97
128 129
129 114
130 62
131 10
132 28
133 3
134 32
135 45
136 25
139 58
140 90
141 120
142 57
143 64
144 87
145 94
146 31
147 36
148 54
149 66
150 27
151 73
152 101
153 59
154 41
155 79
156 38
160 8
161 39
162 66
163 97
164 48
165 78
166 51
170 7
172 47
173 33
174 74
175 83
176 90
177 60
178 40
179 10
180 21
187 37
188 57
189 77
190 120
191 96
192 76
200 15
201 12
202 54
203 66
204 76
205 40
216 45
217 25
218 53
219 22
228 26
229 50
230 113
231 63
232 16
243 52
244 19
245 44
246 100
247 26
255 25
256 1
257 29
258 4
273 0
274 2
292 9
293 30
294 3
304 0
305 58
306 74
307 60
318 53
319 21
320 45
321 146
322 138
323 51
333 54
334 51
335 72
336 12
347 109
348 170
349 667
350 999
351 482
352 189
353 33

$$$$

     RDKit          2D

 21 23  0  0  0  0  0  0  0  0999 V2000
    2.2735   -2.0624    0.0000 C   0  0  0  0  0  0  0  0  0  0  0  0
    0.9740   -1.3116    0.0000 C   0  0  0  0  0  0  0  0  0  0  0  0
    2.2740   -3.5632    0.0000 C   0  0  0  0  0  0  0  0  0  0  0  0
   -0.3251   -2.0616    0.0000 C   0  0  0  0  0  0  0  0  0  0  0  0
    0.9749   -4.3132    0.0000 C   0  0  0  0  0  0  0  0  0  0  0  0
   -2.9228   -3.5626    0.0000 C   0  0  0  0  0  0  0  0  0  0  0  0
   -8.1204   -2.0622    0.0000 C   0  0  0  0  0  0  0  0  0  0  0  0
   -0.3246   -3.5624    0.0000 C   0  0  0  0  0  0  0  0  0  0  0  0
   -1.6236   -4.3124    0.0000 C   0  0  0  0  0  0  0  0  0  0  0  0
   -4.2222   -4.3136    0.0000 C   0  0  0  0  0  0  0  0  0  0  0  0
   -5.5213   -3.5639    0.0000 C   0  0  0  0  0  0  0  0  0  0  0  0
   -6.8204   -4.3139    0.0000 C   0  0  0  0  0  0  0  0  0  0  0  0
   -5.5218   -2.0630    0.0000 C   0  0  0  0  0  0  0  0  0  0  0  0
   -2.9233   -6.5643    0.0000 C   0  0  0  0  0  0  0  0  0  0  0  0
   -6.8206   -5.8139    0.0000 Cl  0  0  0  0  0  0  0  0  0  0  0  0
   -4.2228   -1.3130    0.0000 Cl  0  0  0  0  0  0  0  0  0  0  0  0
   -2.9228   -8.0643    0.0000 Cl  0  0  0  0  0  0  0  0  0  0  0  0
   -8.1199   -3.5630    0.0000 N   0  0  0  0  0  0  0  0  0  0  0  0
   -6.8213   -1.3122    0.0000 N   0  0  0  0  0  0  0  0  0  0  0  0
   -1.6239   -5.8132    0.0000 N   0  0  0  0  0  0  0  0  0  0  0  0
   -4.2224   -5.8145    0.0000 N   0  0  0  0  0  0  0  0  0  0  0  0
  2  1  2  0
  3  1  1  0
  4  2  1  0
  5  3  2  0
  8  4  2  0
  8  5  1  0
  9  6  2  0
  9  8  1  0
 10  6  1  0
 11 10  1  0
 12 11  2  0
 13 11  1  0
 15 12  1  0
 16 13  1  0
 17 14  1  0
 18  7  2  0
 18 12  1  0
 19  7  1  0
 19 13  2  0
 20  9  1  0
 20 14  2  0
 21 10  2  0
 21 14  1  0
M  END
>  <NAME>  (3964) 
2,4',6'-TRICHLORO-6-PHENYL-4,5'-BIPYRIMIDINE

>  <SYNONYMS>  (3964) 


>  <SPECTRUM TYPE>  (3964) 
MS1

>  <INSTRUMENT TYPE>  (3964) 
EI-B

>  <INSTRUMENT>  (3964) 
MS-902

>  <ION MODE>  (3964) 
P

>  <INCHIKEY>  (3964) 
XCTTWVSSTMNUNV-UHFFFAOYSA-N

>  <FORMULA>  (3964) 
C14H7Cl3N4

>  <EXACT MASS>  (3964) 
335.973629264

>  <MW>  (3964) 
336

>  <ID>  (3964) 
JP005072

>  <CONTRIBUTOR>  (3964) 
University of Tokyo Team, {Faculty of Engineering, University of Tokyo

>  <COMMENT>  (3964) 
SMILES=c(c3)ccc(c3)c(n2)cc(nc(Cl)2)c(c(Cl)1)c(Cl)ncn1
InChI=InChI=1S/C14H7Cl3N4/c15-12-11(13(16)19-7-18-12)10-6-9(20-14(17)21-10)8-4-2-1-3-5-8/h1-7H
computed SMILES=ClC=1N=C(C=C(N1)C2=C(Cl)N=CN=C2Cl)C=3C=CC=CC3
accession=JP005072
date=2016.01.19 (Created 2008.10.21, modified 2011.05.06)
author=SASAKI S, TOYOHASHI UNIV. OF TECH.
license=CC BY-NC-SA
exact mass=335.97363
ionization energy=70 eV
ion type=[M]+*
computed spectral entropy=3.2283312040312206
computed normalized entropy=0.721038272928648
SPLASH=splash10-000i-1239000000-1e2191e6155e869218d9
submitter=submitter = University of Tokyo Team (Faculty of Engineering, University of Tokyo)
MoNA Rating=3.75

>  <NUM PEAKS>  (3964) 
88

>  <MASS SPECTRAL PEAKS>  (3964) 
51 5.9
52 4.3
63 1.8
64 0.18
75 3.1
77 12.8
78 7.2
83 0.14
84 1.8
85 1.4
86 1.7
87 0.15
88 1
89 1.9
94.5 1.6
95.5 0.12
101 2.8
102 6.8
103 6.4
104 0.31
106 7.7
106.5 2.2
107 1.2
107.5 0.19
110 1.7
111 1.8
112 1.1
119.5 0.44
120 1.7
120.5 4.7
121 1.3
127 0.2
128 7.5
129 10
130 4.9
137 0.49
137.5 3.4
138 6.6
138.5 3.9
139 0.32
151 1.8
151.5 1
152 1.4
153 0.13
154.5 1.1
169 2.1
170 1.2
171 0.13
172 2.1
173 1.6
174 1.4
177 0.26
178 2.9
179 1.6
186 1
189 0.11
199 1.6
201 1
203 1.2
204 0.37
212 1
213 2.9
238 6.1
239 0.17
240 6.3
241 1.1
242 1.5
265 0.32
266 2.4
267 1.2
274 55.3
275 1.22
276 36.1
277 8.2
278 6.8
279 0.13
301 46.1
302 8.2
303 30.5
304 0.53
305 5.3
335 1.2
336 99.99
337 1.97
338 97.4
339 18.4
340 35.3
342 4.2

>  <PREDICTED SPECTRUM>  (3964) 
35 44
36 85
37 51
38 128
39 154
40 104
41 113
42 75
43 103
44 178
47 132
49 164
50 417
51 468
52 289
53 129
54 25
55 115
57 17
60 66
61 187
62 353
63 451
64 340
65 154
66 82
67 58
68 47
69 109
70 57
72 85
73 167
74 373
75 531
76 512
77 433
78 165
82 88
84 185
85 217
86 258
87 272
88 257
89 185
90 176
91 156
92 68
94 11
96 107
97 143
98 248
99 275
100 375
101 335
102 427
103 201
104 142
105 63
106 38
107 54
108 37
109 101
110 153
111 139
112 81
113 126
114 196
115 144
116 158
117 66
118 55
119 114
120 81
121 75
122 138
123 93
124 231
125 66
126 299
127 333
128 343
129 210
130 40
131 61
132 4
133 116
134 54
135 173
136 143
137 192
138 191
139 246
140 147
141 140
142 163
143 124
144 5
145 1
146 18
147 43
148 127
149 41
150 51
151 68
152 46
153 98
155 38
157 35
158 51
159 3
160 33
161 37
162 67
163 1
164 30
167 7
168 77
169 70
170 106
171 82
172 73
173 15
174 96
175 56
176 181
177 62
178 13
179 36
180 43
181 69
182 49
183 86
184 67
185 14
186 12
188 19
192 31
193 1
194 79
199 10
200 29
201 17
202 47
203 14
204 43
205 51
207 38
208 93
209 132
210 102
211 173
212 105
213 185
214 123
215 89
216 24
218 26
220 18
222 2
225 5
230 31
231 15
236 6
237 39
238 193
239 200
240 336
241 196
242 114
248 28
249 13
265 246
266 35
267 103
274 132
275 40
276 90
301 999
302 372
303 752
304 259
305 232
335 188
336 930
337 326
338 865
339 293
340 446
341 107

$$$$

     RDKit          2D

 26 30  0  0  0  0  0  0  0  0999 V2000
   -2.1300    5.2000    0.0000 C   0  0  0  0  0  0  0  0  0  0  0  0
   -7.3268   -3.8006    0.0000 C   0  0  0  0  0  0  0  0  0  0  0  0
   -3.4300    4.4500    0.0000 C   0  0  0  0  0  0  0  0  0  0  0  0
   -0.8300    4.4500    0.0000 C   0  0  0  0  0  0  0  0  0  0  0  0
   -6.0271   -4.5512    0.0000 C   0  0  0  0  0  0  0  0  0  0  0  0
   -7.3275   -2.2998    0.0000 C   0  0  0  0  0  0  0  0  0  0  0  0
    3.0600    2.2000    0.0000 C   0  0  0  0  0  0  0  0  0  0  0  0
    1.7600    2.9500    0.0000 C   0  0  0  0  0  0  0  0  0  0  0  0
    3.0600    0.7000    0.0000 C   0  0  0  0  0  0  0  0  0  0  0  0
   -3.4300    2.9500    0.0000 C   0  0  0  0  0  0  0  0  0  0  0  0
   -0.8300    2.9500    0.0000 C   0  0  0  0  0  0  0  0  0  0  0  0
   -4.7282   -3.8010    0.0000 C   0  0  0  0  0  0  0  0  0  0  0  0
   -6.0286   -1.5496    0.0000 C   0  0  0  0  0  0  0  0  0  0  0  0
    0.4600    2.2000    0.0000 C   0  0  0  0  0  0  0  0  0  0  0  0
    1.7600   -1.5500    0.0000 C   0  0  0  0  0  0  0  0  0  0  0  0
    0.4600   -2.3000    0.0000 C   0  0  0  0  0  0  0  0  0  0  0  0
    1.7600   -0.0500    0.0000 C   0  0  0  0  0  0  0  0  0  0  0  0
   -2.1300    2.2000    0.0000 C   0  0  0  0  0  0  0  0  0  0  0  0
   -4.7289   -2.3002    0.0000 C   0  0  0  0  0  0  0  0  0  0  0  0
    0.4600    0.7000    0.0000 C   0  0  0  0  0  0  0  0  0  0  0  0
   -0.8300   -1.5500    0.0000 C   0  0  0  0  0  0  0  0  0  0  0  0
   -0.8300   -0.0500    0.0000 C   0  0  0  0  0  0  0  0  0  0  0  0
   -2.1300    0.7000    0.0000 C   0  0  0  0  0  0  0  0  0  0  0  0
   -3.4300   -1.5500    0.0000 C   0  0  0  0  0  0  0  0  0  0  0  0
   -2.1300   -2.3000    0.0000 N   0  0  0  0  0  0  0  0  0  0  0  0
   -3.4300   -0.0500    0.0000 N   0  0  0  0  0  0  0  0  0  0  0  0
  3  1  2  0
  4  1  1  0
  5  2  2  0
  6  2  1  0
  8  7  2  0
  9  7  1  0
 10  3  1  0
 11  4  2  0
 12  5  1  0
 13  6  2  0
 14  8  1  0
 16 15  2  0
 17  9  2  0
 17 15  1  0
 18 10  2  0
 18 11  1  0
 19 12  2  0
 19 13  1  0
 20 14  2  0
 20 17  1  0
 21 16  1  0
 22 20  1  0
 22 21  2  0
 23 18  1  0
 23 22  1  0
 24 19  1  0
 25 21  1  0
 25 24  2  0
 26 23  1  0
 26 24  1  0
M  END
>  <NAME>  (3965) 
1,3-DIPHENYL-1,2-DIHYDROBENZO(F)QUINAZOLINE

>  <SYNONYMS>  (3965) 


>  <SPECTRUM TYPE>  (3965) 
MS1

>  <INSTRUMENT TYPE>  (3965) 
EI-B

>  <INSTRUMENT>  (3965) 
MS-902

>  <ION MODE>  (3965) 
P

>  <INCHIKEY>  (3965) 
RLLZDIXPNCTESL-UHFFFAOYSA-N

>  <FORMULA>  (3965) 
C24H18N2

>  <EXACT MASS>  (3965) 
334.146998576

>  <MW>  (3965) 
334

>  <ID>  (3965) 
JP005071

>  <CONTRIBUTOR>  (3965) 
University of Tokyo Team, {Faculty of Engineering, University of Tokyo

>  <COMMENT>  (3965) 
SMILES=c(c5)ccc(c5)C(=N1)NC(c(c4)cccc4)c(c32)c(ccc(cccc3)2)1
InChI=InChI=1S/C24H18N2/c1-3-10-18(11-4-1)23-22-20-14-8-7-9-17(20)15-16-21(22)25-24(26-23)19-12-5-2-6-13-19/h1-16,23H,(H,25,26)
computed SMILES=N=1C=2C=CC=3C=CC=CC3C2C(NC1C=4C=CC=CC4)C=5C=CC=CC5
accession=JP005071
date=2016.01.19 (Created 2008.10.21, modified 2011.05.06)
author=SASAKI S, TOYOHASHI UNIV. OF TECH.
license=CC BY-NC-SA
exact mass=334.147
ionization energy=70 eV
ion type=[M]+*
computed spectral entropy=2.3652065380837715
computed normalized entropy=0.6411720869452728
SPLASH=splash10-0a4i-1291000000-2d64136af02a52102d61
submitter=submitter = University of Tokyo Team (Faculty of Engineering, University of Tokyo)
MoNA Rating=3.75

>  <NUM PEAKS>  (3965) 
40

>  <MASS SPECTRAL PEAKS>  (3965) 
45.5 11.8
55 1.5
57 2.6
70 0.1
81 2
83 6.1
85 2.9
95 0.12
125 1
126 3.1
127 5
128 0.23
129 1.4
131 1
149 7.3
152 0.49
153 2.9
159.5 1.1
165 1.5
166 0.29
167 3.6
179 7.4
201 1.1
202 0.21
205 1
227 1
228 1.2
229 0.14
230 3.3
253 1.5
255 1.5
256 0.18
257 99.99
258 18.7
259 1.7
331 0.5
332 3.1
333 3.1
334 14.9
335 4.4

>  <PREDICTED SPECTRUM>  (3965) 
14 5
15 4
16 13
17 24
18 38
25 5
26 25
27 53
28 85
29 64
30 46
32 0
33 11
36 22
37 50
38 108
39 283
40 125
41 182
42 113
43 125
44 111
45 33
49 12
50 205
51 375
52 182
53 78
55 69
57 86
62 87
63 194
64 108
65 151
66 60
67 12
69 61
70 23
71 74
74 66
75 140
76 166
77 523
78 250
79 99
81 21
82 14
83 62
84 19
85 14
86 60
87 89
88 82
89 160
90 86
91 185
92 59
93 48
94 53
95 94
96 20
97 12
98 36
99 58
100 83
101 60
102 105
103 91
104 252
105 254
106 206
107 128
108 90
109 27
110 30
111 20
112 50
113 144
114 134
115 183
116 63
118 32
119 43
120 57
121 48
122 25
123 31
125 71
126 214
127 230
128 201
129 97
130 28
131 78
132 119
133 156
134 126
135 128
136 2
137 41
138 103
139 154
140 193
141 38
142 17
143 42
144 31
145 11
146 63
147 66
149 142
150 143
151 177
152 273
153 169
154 50
158 26
159 66
162 21
163 138
164 154
165 221
166 88
171 38
173 102
174 11
175 70
176 101
177 103
178 40
179 170
180 90
181 43
185 26
186 13
187 40
188 90
189 75
190 24
197 27
198 124
199 120
200 113
201 174
202 191
203 144
204 43
213 46
214 101
215 36
216 0
225 90
226 119
227 191
228 336
229 470
230 214
231 73
238 17
239 8
240 44
241 3
254 137
255 272
256 112
257 999
258 378
259 42
260 7
263 0
265 0
275 5
276 14
290 53
291 72
292 28
303 23
304 17
305 138
306 60
331 80
332 155
333 340
334 439
335 209
336 50

$$$$

     RDKit          2D

 23 25  0  0  0  0  0  0  0  0999 V2000
    6.1553   -0.9201    0.0000 C   0  0  0  0  0  0  0  0  0  0  0  0
   -9.4665   -0.9951    0.0000 C   0  0  0  0  0  0  0  0  0  0  0  0
    0.9375   -0.9664    0.0000 C   0  0  0  0  0  0  0  0  0  0  0  0
    2.2182   -3.2103    0.0000 C   0  0  0  0  0  0  0  0  0  0  0  0
   -5.5475   -3.2234    0.0000 C   0  0  0  0  0  0  0  0  0  0  0  0
   -4.2449   -0.9921    0.0000 C   0  0  0  0  0  0  0  0  0  0  0  0
    2.2039   -0.2104    0.0000 C   0  0  0  0  0  0  0  0  0  0  0  0
    3.5646   -2.4539    0.0000 C   0  0  0  0  0  0  0  0  0  0  0  0
   -6.8356   -2.5049    0.0000 C   0  0  0  0  0  0  0  0  0  0  0  0
   -5.5733   -0.2045    0.0000 C   0  0  0  0  0  0  0  0  0  0  0  0
   -1.6536   -2.4662    0.0000 C   0  0  0  0  0  0  0  0  0  0  0  0
    0.9446   -2.4664    0.0000 C   0  0  0  0  0  0  0  0  0  0  0  0
   -4.2522   -2.4670    0.0000 C   0  0  0  0  0  0  0  0  0  0  0  0
    3.5574   -0.9539    0.0000 C   0  0  0  0  0  0  0  0  0  0  0  0
   -6.8686   -0.9609    0.0000 C   0  0  0  0  0  0  0  0  0  0  0  0
   -0.3546   -3.2162    0.0000 C   0  0  0  0  0  0  0  0  0  0  0  0
   -2.9531   -3.2170    0.0000 C   0  0  0  0  0  0  0  0  0  0  0  0
   -1.6546   -5.4679    0.0000 C   0  0  0  0  0  0  0  0  0  0  0  0
   -1.6543   -6.9679    0.0000 Cl  0  0  0  0  0  0  0  0  0  0  0  0
   -0.3550   -4.7170    0.0000 N   0  0  0  0  0  0  0  0  0  0  0  0
   -2.9536   -4.7179    0.0000 N   0  0  0  0  0  0  0  0  0  0  0  0
    4.8466   -0.1871    0.0000 O   0  0  0  0  0  0  0  0  0  0  0  0
   -8.1774   -0.2281    0.0000 O   0  0  0  0  0  0  0  0  0  0  0  0
  7  3  2  0
  8  4  1  0
  9  5  2  0
 10  6  1  0
 12  3  1  0
 12  4  2  0
 13  5  1  0
 13  6  2  0
 14  7  1  0
 14  8  2  0
 15  9  1  0
 15 10  2  0
 16 11  2  0
 16 12  1  0
 17 11  1  0
 17 13  1  0
 19 18  1  0
 20 16  1  0
 20 18  2  0
 21 17  2  0
 21 18  1  0
 22  1  1  0
 22 14  1  0
 23  2  1  0
 23 15  1  0
M  END
>  <NAME>  (3966) 
2-CHLORO-4,6-BIS(4-METHOXYPHENYL)PYRIMIDINE

>  <SYNONYMS>  (3966) 


>  <SPECTRUM TYPE>  (3966) 
MS1

>  <INSTRUMENT TYPE>  (3966) 
EI-B

>  <INSTRUMENT>  (3966) 
MS-902

>  <ION MODE>  (3966) 
P

>  <INCHIKEY>  (3966) 
DKOMXBVVTZTZDB-UHFFFAOYSA-N

>  <FORMULA>  (3966) 
C18H15ClN2O2

>  <EXACT MASS>  (3966) 
326.0822054

>  <MW>  (3966) 
326

>  <ID>  (3966) 
JP005070

>  <CONTRIBUTOR>  (3966) 
University of Tokyo Team, {Faculty of Engineering, University of Tokyo

>  <COMMENT>  (3966) 
SMILES=COc(c3)ccc(c3)c(n2)cc(nc(Cl)2)c(c1)ccc(OC)c1
InChI=InChI=1S/C18H15ClN2O2/c1-22-14-7-3-12(4-8-14)16-11-17(21-18(19)20-16)13-5-9-15(23-2)10-6-13/h3-11H,1-2H3
computed SMILES=ClC=1N=C(C=C(N1)C=2C=CC(OC)=CC2)C=3C=CC(OC)=CC3
accession=JP005070
date=2016.01.19 (Created 2008.10.21, modified 2011.05.06)
author=SASAKI S, TOYOHASHI UNIV. OF TECH.
license=CC BY-NC-SA
exact mass=326.08221
ionization energy=70 eV
ion type=[M]+*
computed spectral entropy=3.5550553457561644
computed normalized entropy=0.760792973955688
SPLASH=splash10-004i-4449000000-3b7bb1639996a3c420ba
submitter=submitter = University of Tokyo Team (Faculty of Engineering, University of Tokyo)
MoNA Rating=3.75

>  <NUM PEAKS>  (3966) 
107

>  <MASS SPECTRAL PEAKS>  (3966) 
32 2.5
38 1.2
39 5.6
50 0.3
51 5.1
52 1.2
62 3.8
63 1.37
64 5.2
65 1.7
74 1.6
75 0.38
76 4
77 7.7
78 1.4
87 0.17
88 3.4
89 20.2
90 4.7
92 0.55
95.5 1.2
99 1
101 1.9
102 0.29
103 2.9
104 1.2
113 1
114 0.43
115 4
116 3.1
117 5.1
118 0.12
119 1
120 1.2
123 1.4
125 0.12
126 2.3
127 2.2
128 1.6
133 2.6
134 1.4
137 0.57
140 1
141 0.12
141.5 1.4
142 1
143 2.1
150 0.34
151 2.5
152 3.8
153 1.7
157 0.14
158 3.5
159 11.1
163 3.8
164 0.3
165 1.4
177 2.8
178 5.3
179 0.3
190 3.6
191 2.5
192 1
203 0.15
204 1.4
205 3.1
206 2.2
207 0.19
216 1
222 1.6
233 2.6
234 0.12
239 2.6
240 7
241 1.4
242 0.23
248 6.1
249 1.9
250 1.6
252 0.34
253 1
254 1.6
261 1.4
267 0.1
268 3.1
269 1.2
270 1
275 0.12
276 3.2
277 1
282 1.2
283 0.82
284 1.9
285 3.2
291 19.1
292 0.4
295 3
296 1.2
297 1.5
311 0.38
312 1
313 1.9
325 1.3
326 99.99
327 20.8
328 32.7
329 5.6

>  <PREDICTED SPECTRUM>  (3966) 
15 9
27 5
33 7
34 7
36 25
38 6
39 55
40 9
41 74
42 13
43 47
44 53
49 23
50 88
51 144
52 65
53 59
55 24
62 86
63 193
64 135
65 90
66 17
68 8
69 49
74 38
75 99
76 146
77 141
78 49
79 28
82 20
83 51
84 30
85 46
86 49
87 85
88 85
89 118
90 99
91 59
92 73
95 11
98 5
99 32
100 42
101 98
102 140
103 100
104 30
105 22
106 13
107 5
108 35
109 11
110 36
111 21
112 29
113 68
114 84
115 96
116 72
117 45
118 13
119 26
121 56
122 36
123 24
124 33
125 20
126 102
127 90
128 130
129 69
130 7
132 56
133 162
134 109
135 37
136 3
137 58
138 84
139 91
140 78
141 69
142 35
143 1
144 6
145 23
146 15
147 42
148 20
149 108
150 53
151 96
152 160
153 118
154 35
155 50
161 22
162 24
163 51
164 77
165 91
166 62
167 15
169 34
170 26
177 34
178 74
179 61
180 43
183 12
184 18
188 40
189 82
190 100
191 84
192 98
193 59
194 63
195 16
196 20
197 40
198 16
203 65
204 46
205 141
206 88
207 104
208 40
209 39
213 17
217 52
218 54
219 94
220 170
221 143
222 151
223 135
224 12
225 23
226 10
231 46
233 88
234 79
235 77
236 25
240 3
241 8
243 2
246 20
247 195
248 188
249 198
250 145
251 49
252 16
259 93
260 69
261 146
262 2
264 30
268 30
270 33
271 18
275 90
276 37
281 57
282 25
283 340
284 194
285 220
286 95
287 77
289 22
291 189
292 82
293 8
294 31
295 76
296 59
297 82
298 99
299 17
300 23
310 42
311 313
312 143
313 231
314 109
315 47
325 57
326 999
327 405
328 605
329 261
330 142
331 25

$$$$

     RDKit          2D

 25 28  0  0  0  0  0  0  0  0999 V2000
   -5.1968    3.0006    0.0000 C   0  0  0  0  0  0  0  0  0  0  0  0
   -0.0000   -6.0000    0.0000 C   0  0  0  0  0  0  0  0  0  0  0  0
    6.4971   -0.7512    0.0000 C   0  0  0  0  0  0  0  0  0  0  0  0
   -5.1975    1.4998    0.0000 C   0  0  0  0  0  0  0  0  0  0  0  0
   -3.8971    3.7512    0.0000 C   0  0  0  0  0  0  0  0  0  0  0  0
    1.3000   -5.2500    0.0000 C   0  0  0  0  0  0  0  0  0  0  0  0
   -1.3000   -5.2500    0.0000 C   0  0  0  0  0  0  0  0  0  0  0  0
    5.1981   -1.5012    0.0000 C   0  0  0  0  0  0  0  0  0  0  0  0
    6.4966    0.7496    0.0000 C   0  0  0  0  0  0  0  0  0  0  0  0
   -3.8986    0.7496    0.0000 C   0  0  0  0  0  0  0  0  0  0  0  0
   -2.5982    3.0010    0.0000 C   0  0  0  0  0  0  0  0  0  0  0  0
    1.3000   -3.7500    0.0000 C   0  0  0  0  0  0  0  0  0  0  0  0
   -1.3000   -3.7500    0.0000 C   0  0  0  0  0  0  0  0  0  0  0  0
    3.8986   -0.7504    0.0000 C   0  0  0  0  0  0  0  0  0  0  0  0
    5.1971    1.5004    0.0000 C   0  0  0  0  0  0  0  0  0  0  0  0
   -1.3000   -0.7500    0.0000 C   0  0  0  0  0  0  0  0  0  0  0  0
   -2.5989    1.5002    0.0000 C   0  0  0  0  0  0  0  0  0  0  0  0
   -0.0000   -3.0000    0.0000 C   0  0  0  0  0  0  0  0  0  0  0  0
    3.8981    0.7504    0.0000 C   0  0  0  0  0  0  0  0  0  0  0  0
   -1.3000    0.7500    0.0000 C   0  0  0  0  0  0  0  0  0  0  0  0
    0.0000   -1.5000    0.0000 C   0  0  0  0  0  0  0  0  0  0  0  0
    1.3000    0.7500    0.0000 C   0  0  0  0  0  0  0  0  0  0  0  0
    0.0000    1.5000    0.0000 N   0  0  0  0  0  0  0  0  0  0  0  0
    1.3000   -0.7500    0.0000 N   0  0  0  0  0  0  0  0  0  0  0  0
    2.5989    1.5002    0.0000 O   0  0  0  0  0  0  0  0  0  0  0  0
  4  1  2  0
  5  1  1  0
  6  2  2  0
  7  2  1  0
  8  3  2  0
  9  3  1  0
 10  4  1  0
 11  5  2  0
 12  6  1  0
 13  7  2  0
 14  8  1  0
 15  9  2  0
 17 10  2  0
 17 11  1  0
 18 12  2  0
 18 13  1  0
 19 14  2  0
 19 15  1  0
 20 16  2  0
 20 17  1  0
 21 16  1  0
 21 18  1  0
 23 20  1  0
 23 22  2  0
 24 21  2  0
 24 22  1  0
 25 19  1  0
 25 22  1  0
M  END
>  <NAME>  (3967) 
2-PHENOXY-4,6-DIPHENYLPYRIMIDINE

>  <SYNONYMS>  (3967) 


>  <SPECTRUM TYPE>  (3967) 
MS1

>  <INSTRUMENT TYPE>  (3967) 
EI-B

>  <INSTRUMENT>  (3967) 
MS-902

>  <ION MODE>  (3967) 
P

>  <INCHIKEY>  (3967) 
JFBGDKDDIHPIEL-UHFFFAOYSA-N

>  <FORMULA>  (3967) 
C22H16N2O

>  <EXACT MASS>  (3967) 
324.12626313199996

>  <MW>  (3967) 
324

>  <ID>  (3967) 
JP005069

>  <CONTRIBUTOR>  (3967) 
University of Tokyo Team, {Faculty of Engineering, University of Tokyo

>  <COMMENT>  (3967) 
SMILES=c(c4)ccc(c4)Oc(n1)nc(c(c3)cccc3)cc1c(c2)cccc2
InChI=InChI=1S/C22H16N2O/c1-4-10-17(11-5-1)20-16-21(18-12-6-2-7-13-18)24-22(23-20)25-19-14-8-3-9-15-19/h1-16H
computed SMILES=N=1C(=NC(=CC1C=2C=CC=CC2)C=3C=CC=CC3)OC=4C=CC=CC4
accession=JP005069
date=2016.01.19 (Created 2008.10.21, modified 2011.05.06)
author=SASAKI S, TOYOHASHI UNIV. OF TECH.
license=CC BY-NC-SA
exact mass=324.12626
ionization energy=70 eV
ion type=[M]+*
computed spectral entropy=2.9413100350922194
computed normalized entropy=0.6812549236373209
SPLASH=splash10-00fr-7319000000-48a8535e880dccbeac74
submitter=submitter = University of Tokyo Team (Faculty of Engineering, University of Tokyo)
MoNA Rating=3.75

>  <NUM PEAKS>  (3967) 
75

>  <MASS SPECTRAL PEAKS>  (3967) 
39 7.3
50 3.7
51 22.6
52 0.26
62 1.4
63 3.8
64 1.6
65 0.43
66 1.2
74 2.5
75 3.8
76 0.95
77 76
78 5.7
79 1.2
88 0.17
89 5
90 4
91 1.2
93 0.12
101 2.5
102 7.9
103 4.3
104 0.33
114 1.6
115 2.1
116 5.5
117 0.12
118 1.2
127 2.1
128 3.2
129 2.64
130 2.6
139.5 1.2
140 1.7
141 0.25
144 1.9
145 1.2
151 1.2
152 0.14
153 1.5
154 1.2
162 1.5
165 0.35
166 1.5
169 1.2
176 1.2
177 0.23
178 1.9
180 6
181 1.2
189 0.23
190 2.4
191 2.5
192 1.5
193 0.25
203 2.9
204 4.8
205 1.6
219 0.14
220 1.2
221 3.2
229 1.2
232 2.5
239 0.59
245 1.5
247 8.2
280 0.12
282 2.6
295 1.7
296 1.9
322 0.15
323 99.99
324 52
325 9.7

>  <PREDICTED SPECTRUM>  (3967) 
33 14
36 10
37 41
38 113
39 340
40 172
41 88
42 81
43 83
44 113
45 67
49 10
50 274
51 599
52 256
53 108
54 34
55 23
56 19
57 55
58 0
61 33
62 149
63 288
64 196
65 223
66 125
67 91
68 60
69 83
70 80
74 172
75 271
76 278
77 928
78 311
79 98
80 14
81 86
82 90
83 117
84 41
86 76
87 101
88 125
89 244
90 157
91 194
92 96
93 71
94 104
95 95
96 72
97 78
98 85
99 65
100 113
101 202
102 338
103 252
104 311
105 49
106 17
108 9
109 33
110 46
111 73
112 44
113 109
114 126
115 266
116 228
117 147
118 114
119 83
120 30
121 51
122 38
123 31
125 70
126 147
127 264
128 285
129 308
130 110
131 38
132 13
133 13
134 11
135 55
137 15
138 70
139 132
140 174
141 109
142 134
143 100
144 109
145 51
146 36
147 80
149 46
150 42
151 131
152 155
153 127
154 89
155 120
156 102
157 27
158 36
159 38
160 35
161 84
162 41
163 133
164 134
165 218
166 104
167 78
168 11
169 26
171 128
173 49
174 2
175 51
176 128
177 161
178 167
179 115
180 260
181 34
187 12
188 38
189 138
190 121
191 161
192 201
193 187
194 114
199 4
200 39
201 89
202 122
203 127
204 173
205 163
206 93
207 62
208 11
214 19
216 86
217 81
218 188
219 88
220 136
221 149
226 0
227 95
229 63
230 22
231 187
232 102
233 23
241 17
245 109
246 60
247 368
248 198
249 75
250 6
267 21
280 16
281 14
282 95
283 32
284 19
293 2
294 39
295 163
296 164
297 58
321 91
322 85
323 999
324 786
325 355
326 97

$$$$

     RDKit          2D

 23 25  0  0  0  0  0  0  0  0999 V2000
   -0.0000   -6.0000    0.0000 C   0  0  0  0  0  0  0  0  0  0  0  0
    5.1989    1.5002    0.0000 C   0  0  0  0  0  0  0  0  0  0  0  0
    5.1989    3.0002    0.0000 C   0  0  0  0  0  0  0  0  0  0  0  0
    1.3000   -5.2500    0.0000 C   0  0  0  0  0  0  0  0  0  0  0  0
   -1.3000   -5.2500    0.0000 C   0  0  0  0  0  0  0  0  0  0  0  0
    3.8989    0.7502    0.0000 C   0  0  0  0  0  0  0  0  0  0  0  0
    3.8989    3.7502    0.0000 C   0  0  0  0  0  0  0  0  0  0  0  0
    1.3000   -3.7500    0.0000 C   0  0  0  0  0  0  0  0  0  0  0  0
   -1.3000   -3.7500    0.0000 C   0  0  0  0  0  0  0  0  0  0  0  0
   -1.3000   -0.7500    0.0000 C   0  0  0  0  0  0  0  0  0  0  0  0
    2.5989    1.5002    0.0000 C   0  0  0  0  0  0  0  0  0  0  0  0
    2.5989    3.0002    0.0000 C   0  0  0  0  0  0  0  0  0  0  0  0
   -1.3000    0.7500    0.0000 C   0  0  0  0  0  0  0  0  0  0  0  0
    0.0000   -1.5000    0.0000 C   0  0  0  0  0  0  0  0  0  0  0  0
    1.3000    0.7500    0.0000 C   0  0  0  0  0  0  0  0  0  0  0  0
   -2.5989    1.5002    0.0000 C   0  0  0  0  0  0  0  0  0  0  0  0
   -1.8487    2.7991    0.0000 F   0  0  0  0  0  0  0  0  0  0  0  0
   -3.8978    2.2504    0.0000 F   0  0  0  0  0  0  0  0  0  0  0  0
   -3.3491    0.2013    0.0000 F   0  0  0  0  0  0  0  0  0  0  0  0
    0.0000    1.5000    0.0000 N   0  0  0  0  0  0  0  0  0  0  0  0
    1.3000   -0.7500    0.0000 N   0  0  0  0  0  0  0  0  0  0  0  0
   -0.0000   -3.0000    0.0000 N   0  0  0  0  0  0  0  0  0  0  0  0
    1.3000    3.7504    0.0000 O   0  0  0  0  0  0  0  0  0  0  0  0
  3  2  2  0
  4  1  1  0
  5  1  1  0
  6  2  1  0
  7  3  1  0
  8  4  1  0
  9  5  1  0
 11  6  2  0
 12  7  2  0
 12 11  1  0
 13 10  2  0
 14 10  1  0
 15 11  1  0
 16 13  1  0
 17 16  1  0
 18 16  1  0
 19 16  1  0
 20 13  1  0
 20 15  2  0
 21 14  2  0
 21 15  1  0
 22  8  1  0
 22  9  1  0
 22 14  1  0
 23 12  1  0
M  END
>  <NAME>  (3968) 
2-(2-HYDROXYPHENYL)-4-PIPERIDINO-6-TRIFLUOROMETHYLPYRIMIDINE

>  <SYNONYMS>  (3968) 


>  <SPECTRUM TYPE>  (3968) 
MS1

>  <INSTRUMENT TYPE>  (3968) 
EI-B

>  <INSTRUMENT>  (3968) 
MS-902

>  <ION MODE>  (3968) 
P

>  <INCHIKEY>  (3968) 
VWGOMZPDBSWHRL-UHFFFAOYSA-N

>  <FORMULA>  (3968) 
C16H16F3N3O

>  <EXACT MASS>  (3968) 
323.124546792

>  <MW>  (3968) 
323

>  <ID>  (3968) 
JP005067

>  <CONTRIBUTOR>  (3968) 
University of Tokyo Team, {Faculty of Engineering, University of Tokyo

>  <COMMENT>  (3968) 
SMILES=C(C3)CCN(C3)c(c2)nc(nc2C(F)(F)F)c(c1)c(O)ccc1
InChI=InChI=1S/C16H16F3N3O/c17-16(18,19)13-10-14(22-8-4-1-5-9-22)21-15(20-13)11-6-2-3-7-12(11)23/h2-3,6-7,10,23H,1,4-5,8-9H2
computed SMILES=FC(F)(F)C=1N=C(N=C(C1)N2CCCCC2)C=3C=CC=CC3O
accession=JP005067
date=2016.01.19 (Created 2008.10.21, modified 2011.05.06)
author=SASAKI S, TOYOHASHI UNIV. OF TECH.
license=CC BY-NC-SA
exact mass=323.12455
ionization energy=70 eV
ion type=[M]+*
computed spectral entropy=2.715174365516915
computed normalized entropy=0.6715656531783621
SPLASH=splash10-00di-2159000000-93e3a9b6881de282541c
submitter=submitter = University of Tokyo Team (Faculty of Engineering, University of Tokyo)
MoNA Rating=3.75

>  <NUM PEAKS>  (3968) 
57

>  <MASS SPECTRAL PEAKS>  (3968) 
50 2.3
52 2
53 2.1
54 0.13
55 2.9
56 1
63 1.4
65 0.13
67 1.4
68 1.1
69 2.2
71 0.14
75 1.5
79 3.2
81 1.1
82 0.24
84 14.1
85 1.3
102 1.1
106 0.11
109.5 1.1
117 1.1
118 2.9
119 0.86
120 7.3
141 1.8
147.5 1.4
149 0.3
161 1.8
161.5 1.5
171 1.1
186 0.14
211 1.6
212 3.5
213 1.1
239 0.49
240 8.3
241 1.7
255 1.1
267 0.53
268 10.5
269 4.6
280 4
281 0.31
282 2.7
294 24.8
295 4.9
296 0.11
304 2.1
306 1.1
308 2.8
309 0.11
321 1.4
322 12.4
323 99.99
324 1.71
325 2.7

>  <PREDICTED SPECTRUM>  (3968) 
29 8
33 29
34 4
36 2
37 21
38 72
39 337
40 195
41 476
42 461
43 255
44 219
45 18
50 145
51 218
52 226
53 261
54 208
55 405
56 330
57 100
59 5
61 15
62 99
63 195
64 213
65 236
66 197
67 262
68 205
69 273
70 153
71 47
74 32
75 143
76 149
77 198
78 229
79 173
80 136
81 142
82 155
83 163
84 794
85 180
86 26
87 43
88 37
89 120
90 152
91 215
92 216
93 168
94 99
95 58
96 45
97 3
98 2
99 57
100 24
101 62
102 101
103 51
104 123
105 141
106 161
107 79
108 89
109 123
110 102
111 58
112 23
114 47
115 84
116 114
117 83
118 137
119 146
120 153
121 79
122 115
123 59
124 14
125 30
127 33
128 83
129 83
130 122
131 99
132 155
133 144
134 108
135 37
136 104
137 134
138 123
142 41
143 41
144 101
145 76
146 33
148 24
150 27
152 35
153 73
154 56
155 79
156 106
157 85
158 99
159 19
163 39
167 6
168 23
169 100
170 129
171 141
172 99
173 87
174 26
180 19
181 33
182 100
183 129
184 187
185 86
186 136
187 65
188 16
192 12
196 68
197 55
198 46
199 37
200 52
201 19
203 8
204 25
205 22
209 5
210 20
211 104
212 236
213 118
214 61
221 22
222 14
223 39
224 37
226 20
237 93
238 40
239 352
240 617
241 265
248 5
249 25
250 22
251 50
252 12
253 58
254 340
255 391
256 173
266 80
267 503
268 563
269 256
276 43
277 35
278 10
279 44
280 477
281 352
282 367
283 63
294 839
295 336
296 130
304 151
305 83
306 87
307 78
308 427
309 171
310 17
320 46
321 73
322 429
323 999
324 410
325 128

$$$$

     RDKit          2D

 23 25  0  0  0  0  0  0  0  0999 V2000
    9.0935    3.0003    0.0000 C   0  0  0  0  0  0  0  0  0  0  0  0
   -5.1961   -0.7502    0.0000 C   0  0  0  0  0  0  0  0  0  0  0  0
    7.7940    3.7511    0.0000 C   0  0  0  0  0  0  0  0  0  0  0  0
    9.0940    1.4994    0.0000 C   0  0  0  0  0  0  0  0  0  0  0  0
   -5.1968    0.7507    0.0000 C   0  0  0  0  0  0  0  0  0  0  0  0
   -3.8965   -1.5008    0.0000 C   0  0  0  0  0  0  0  0  0  0  0  0
    6.4950    3.0011    0.0000 C   0  0  0  0  0  0  0  0  0  0  0  0
    7.7950    0.7494    0.0000 C   0  0  0  0  0  0  0  0  0  0  0  0
   -3.8979    1.5009    0.0000 C   0  0  0  0  0  0  0  0  0  0  0  0
   -2.5976   -0.7506    0.0000 C   0  0  0  0  0  0  0  0  0  0  0  0
    5.1969   -0.7506    0.0000 C   0  0  0  0  0  0  0  0  0  0  0  0
    3.8979   -1.5006    0.0000 C   0  0  0  0  0  0  0  0  0  0  0  0
    6.4955    1.5003    0.0000 C   0  0  0  0  0  0  0  0  0  0  0  0
   -2.5983    0.7503    0.0000 C   0  0  0  0  0  0  0  0  0  0  0  0
    5.1964    0.7503    0.0000 C   0  0  0  0  0  0  0  0  0  0  0  0
    2.5979    0.7511    0.0000 C   0  0  0  0  0  0  0  0  0  0  0  0
   -0.0002    0.7507    0.0000 C   0  0  0  0  0  0  0  0  0  0  0  0
   -1.2994    1.5005    0.0000 N   0  0  0  0  0  0  0  0  0  0  0  0
    3.8969    1.5011    0.0000 N   0  0  0  0  0  0  0  0  0  0  0  0
    1.2987    1.5009    0.0000 N   0  0  0  0  0  0  0  0  0  0  0  0
    2.5983   -0.7497    0.0000 N   0  0  0  0  0  0  0  0  0  0  0  0
    0.0000   -0.7493    0.0000 O   0  0  0  0  0  0  0  0  0  0  0  0
    1.2993   -1.4997    0.0000 O   0  0  0  0  0  0  0  0  0  0  0  0
  3  1  2  0
  4  1  1  0
  5  2  2  0
  6  2  1  0
  7  3  1  0
  8  4  2  0
  9  5  1  0
 10  6  2  0
 12 11  1  0
 13  7  2  0
 13  8  1  0
 14  9  2  0
 14 10  1  0
 15 11  2  0
 15 13  1  0
 18 14  1  0
 18 17  2  3
 19 15  1  0
 19 16  1  0
 20 16  2  3
 20 17  1  0
 21 12  2  0
 21 16  1  0
 22 17  1  0
 23 21  1  0
M  CHG  2  21   1  23  -1
M  END
>  <NAME>  (3969) 
4-PHENYL-2-(N'-PHENYLUREIDO)PYRIMIDINE-1-OXIDE

>  <SYNONYMS>  (3969) 


>  <SPECTRUM TYPE>  (3969) 
MS1

>  <INSTRUMENT TYPE>  (3969) 
EI-B

>  <INSTRUMENT>  (3969) 
MS-902

>  <ION MODE>  (3969) 
P

>  <INCHIKEY>  (3969) 
WXZOCNMWVLUOMZ-UHFFFAOYSA-N

>  <FORMULA>  (3969) 
C17H14N4O2

>  <EXACT MASS>  (3969) 
306.111675688

>  <MW>  (3969) 
306

>  <ID>  (3969) 
JP005066

>  <CONTRIBUTOR>  (3969) 
University of Tokyo Team, {Faculty of Engineering, University of Tokyo

>  <COMMENT>  (3969) 
SMILES=O=C(Nc(c3)cccc3)Nc([n+1]([O-1])2)nc(cc2)c(c1)cccc1
InChI=InChI=1S/C17H14N4O2/c22-17(18-14-9-5-2-6-10-14)20-16-19-15(11-12-21(16)23)13-7-3-1-4-8-13/h1-12H,(H2,18,19,20,22)
computed SMILES=O=N1=CC=C(NC1=NC(O)=NC=2C=CC=CC2)C=3C=CC=CC3
accession=JP005066
date=2016.01.19 (Created 2008.10.21, modified 2011.05.06)
author=SASAKI S, TOYOHASHI UNIV. OF TECH.
license=CC BY-NC-SA
exact mass=306.11168
ionization energy=70 eV
ion type=[M]+*
computed spectral entropy=3.357361865534129
computed normalized entropy=0.7825180290331546
SPLASH=splash10-0006-9410000000-bd94dee6a8f3b565b57f
submitter=submitter = University of Tokyo Team (Faculty of Engineering, University of Tokyo)
MoNA Rating=3.75

>  <NUM PEAKS>  (3969) 
73

>  <MASS SPECTRAL PEAKS>  (3969) 
37 1.4
38 2.6
39 8.4
40 0.19
41 3.5
42 1.4
43 1.2
44 2.12
45 1.6
45.5 1.3
46.5 2.6
50 0.49
51 9.9
52 3.2
54 1.6
57.5 0.11
62 2.1
63 6.4
64 6.7
65 1.28
66 23.2
67 2.6
70 3.5
74 0.19
75 2.6
76 4.9
77 19.1
78 0.32
89 4.1
90 4.1
91 9.7
92 0.78
93 99.99
94 7.5
98 1.3
101 0.17
102 6.7
103 4.9
104 4.6
105 1.88
106 1.5
113 6.4
114 1.3
115 0.61
116 3.8
117 3.2
119 18.3
120 0.17
128 4.9
129 6.4
130 1.4
142 0.19
143 2.6
144 1.6
145 2
146 0.26
155 1.7
165 1.1
169 3.2
170 2.9
171 29
172 3.5
186 4.8
187 1.74
188 2
197 3.6
198 1.4
213 4.06
214 18.6
215 2
290 5.8
291 0.1
306 2.6

>  <PREDICTED SPECTRUM>  (3969) 
16 11
17 22
18 13
26 1
27 17
28 47
30 56
37 29
38 88
39 274
40 93
41 138
42 155
43 130
44 167
45 24
50 218
51 558
52 232
53 162
54 53
55 64
56 34
57 73
58 3
62 80
63 279
64 264
65 336
66 161
67 56
68 33
69 77
70 44
71 24
74 62
75 145
76 198
77 999
78 361
79 135
80 23
81 75
82 61
83 45
84 19
85 60
86 38
88 52
89 132
90 149
91 163
92 212
93 367
94 216
95 89
96 11
97 2
101 43
102 102
103 310
104 427
105 194
106 33
109 45
111 27
113 22
114 51
115 121
116 140
117 134
118 153
119 251
120 186
121 131
122 81
127 94
128 151
129 172
130 182
131 144
132 163
133 53
134 22
139 65
140 105
141 100
142 154
143 220
144 204
145 213
146 162
147 8
152 117
153 51
154 111
155 179
156 189
157 136
158 189
159 47
168 160
169 224
170 235
171 185
172 88
173 13
175 29
178 36
179 78
180 67
184 130
185 224
186 317
187 39
194 202
195 44
196 170
197 157
198 213
199 82
203 56
205 1
211 39
212 91
213 142
214 180
215 35
219 25
229 68
230 61
231 66
232 76
245 15
247 51
259 25
260 36
261 191
262 90
273 24
274 72
275 59
288 69
289 556
290 325
291 40
304 30
305 104
306 501
307 346
308 82

$$$$

     RDKit          2D

 23 26  0  0  0  0  0  0  0  0999 V2000
   -9.9256   -3.8031    0.0000 C   0  0  0  0  0  0  0  0  0  0  0  0
   -8.6262   -6.0529    0.0000 C   0  0  0  0  0  0  0  0  0  0  0  0
    3.0600    2.2000    0.0000 C   0  0  0  0  0  0  0  0  0  0  0  0
    1.7600    2.9500    0.0000 C   0  0  0  0  0  0  0  0  0  0  0  0
    3.0600    0.7000    0.0000 C   0  0  0  0  0  0  0  0  0  0  0  0
    0.4600    2.2000    0.0000 C   0  0  0  0  0  0  0  0  0  0  0  0
   -6.0282   -1.5506    0.0000 C   0  0  0  0  0  0  0  0  0  0  0  0
   -4.7289   -3.8010    0.0000 C   0  0  0  0  0  0  0  0  0  0  0  0
    1.7600   -1.5500    0.0000 C   0  0  0  0  0  0  0  0  0  0  0  0
   -7.3275   -2.3019    0.0000 C   0  0  0  0  0  0  0  0  0  0  0  0
   -6.0282   -4.5523    0.0000 C   0  0  0  0  0  0  0  0  0  0  0  0
    0.4600   -2.3000    0.0000 C   0  0  0  0  0  0  0  0  0  0  0  0
   -2.1300    0.7000    0.0000 C   0  0  0  0  0  0  0  0  0  0  0  0
    1.7600   -0.0500    0.0000 C   0  0  0  0  0  0  0  0  0  0  0  0
   -4.7289   -2.3002    0.0000 C   0  0  0  0  0  0  0  0  0  0  0  0
   -7.3275   -3.8027    0.0000 C   0  0  0  0  0  0  0  0  0  0  0  0
    0.4600    0.7000    0.0000 C   0  0  0  0  0  0  0  0  0  0  0  0
   -0.8300   -0.0500    0.0000 C   0  0  0  0  0  0  0  0  0  0  0  0
   -0.8300   -1.5500    0.0000 C   0  0  0  0  0  0  0  0  0  0  0  0
   -3.4300   -1.5500    0.0000 C   0  0  0  0  0  0  0  0  0  0  0  0
   -3.4300   -0.0500    0.0000 N   0  0  0  0  0  0  0  0  0  0  0  0
   -2.1300   -2.3000    0.0000 N   0  0  0  0  0  0  0  0  0  0  0  0
   -8.6264   -4.5529    0.0000 N   0  0  0  0  0  0  0  0  0  0  0  0
  4  3  2  0
  5  3  1  0
  6  4  1  0
 10  7  2  0
 11  8  1  0
 12  9  2  0
 14  5  2  0
 14  9  1  0
 15  7  1  0
 15  8  2  0
 16 10  1  0
 16 11  2  0
 17  6  2  0
 17 14  1  0
 18 13  2  0
 18 17  1  0
 19 12  1  0
 19 18  1  0
 20 15  1  0
 21 13  1  0
 21 20  2  0
 22 19  2  0
 22 20  1  0
 23  1  1  0
 23  2  1  0
 23 16  1  0
M  END
>  <NAME>  (3970) 
3-(4-DIMETHYLAMINOPHENYL)BENZO(F)QUINAZOLINE

>  <SYNONYMS>  (3970) 


>  <SPECTRUM TYPE>  (3970) 
MS1

>  <INSTRUMENT TYPE>  (3970) 
EI-B

>  <INSTRUMENT>  (3970) 
MS-902

>  <ION MODE>  (3970) 
P

>  <INCHIKEY>  (3970) 
GBGROYFHCSRCGK-UHFFFAOYSA-N

>  <FORMULA>  (3970) 
C20H17N3

>  <EXACT MASS>  (3970) 
299.14224754400004

>  <MW>  (3970) 
299

>  <ID>  (3970) 
JP005065

>  <CONTRIBUTOR>  (3970) 
University of Tokyo Team, {Faculty of Engineering, University of Tokyo

>  <COMMENT>  (3970) 
SMILES=CN(C)c(c4)ccc(c4)c(n3)nc(c1)c(c3)c(c2)c(ccc2)c1
InChI=InChI=1S/C20H17N3/c1-23(2)16-10-7-15(8-11-16)20-21-13-18-17-6-4-3-5-14(17)9-12-19(18)22-20/h3-13H,1-2H3
computed SMILES=N1=CC=2C(N=C1C=3C=CC(=CC3)N(C)C)=CC=C4C=CC=CC42
accession=JP005065
date=2016.01.19 (Created 2008.10.21, modified 2011.05.06)
author=SASAKI S, TOYOHASHI UNIV. OF TECH.
license=CC BY-NC-SA
exact mass=299.14225
ionization energy=70 eV
ion type=[M]+*
computed spectral entropy=3.100525329495791
computed normalized entropy=0.7273652769928
SPLASH=splash10-0002-0491000000-9a45721840b9e285e99c
submitter=submitter = University of Tokyo Team (Faculty of Engineering, University of Tokyo)
MoNA Rating=3.75

>  <NUM PEAKS>  (3970) 
71

>  <MASS SPECTRAL PEAKS>  (3970) 
69 2.1
71 1.4
75 1.8
76 0.29
77 4.6
78 1.3
79 1.1
81 0.2
91 1.7
95 2.3
97 1.5
100 0.2
101 1.4
102 1.7
103 1.5
104 0.22
105 1.4
114 1.2
118 1.1
120 0.37
121 1.8
125 2.2
126 11.3
127 0.51
127.5 3.7
128 5.6
129 2.1
130 0.16
131 1
134 1.6
135 2.7
141 0.17
141.5 2.2
142 1.7
145 7.4
146 0.21
148.5 2
149 15.7
149.5 16.1
150 0.29
152 4.7
153 2.2
179 2.4
194 0.11
201 1.4
227 2.8
228 2.9
229 0.18
242 1.3
247 2.6
253 1.7
254 0.16
255 8.7
256 5.9
257 4.8
258 0.12
268 1.8
269 2.6
270 1.7
271 0.19
281 1.2
282 8.6
283 18.6
284 0.93
285 3.7
286 1.5
287 1.2
298 7.68
299 99.99
300 33.1
301 3.8

>  <PREDICTED SPECTRUM>  (3970) 
15 1
17 0
27 51
29 52
30 46
36 0
39 122
40 52
41 34
42 125
43 47
44 125
45 8
50 46
51 61
52 15
57 31
58 14
62 25
63 85
64 16
65 28
71 17
74 5
75 94
76 116
77 108
78 19
83 5
85 34
86 19
87 23
88 84
89 76
90 33
91 44
100 22
101 55
102 110
103 17
104 55
105 34
106 22
113 54
114 122
115 137
116 37
117 29
119 17
120 8
122 29
125 3
126 85
127 102
128 82
129 95
130 3
131 16
132 19
133 25
134 44
135 5
139 21
140 99
141 87
142 66
150 41
151 70
152 112
153 63
154 36
155 23
156 15
167 3
168 71
169 23
227 71
228 48
240 29
241 41
243 35
253 120
254 146
255 270
256 168
257 88
267 65
268 90
269 92
270 70
271 38
272 5
282 179
283 256
284 418
285 194
286 25
297 34
298 571
299 999
300 509
301 168
302 20

$$$$

     RDKit          2D

 22 24  0  0  0  0  0  0  0  0999 V2000
  -11.2242   -0.0488    0.0000 C   0  0  0  0  0  0  0  0  0  0  0  0
   -9.9251    0.7010    0.0000 C   0  0  0  0  0  0  0  0  0  0  0  0
   -8.6262   -0.0492    0.0000 C   0  0  0  0  0  0  0  0  0  0  0  0
    3.0600    2.2000    0.0000 C   0  0  0  0  0  0  0  0  0  0  0  0
    1.7600    2.9500    0.0000 C   0  0  0  0  0  0  0  0  0  0  0  0
    3.0600    0.7000    0.0000 C   0  0  0  0  0  0  0  0  0  0  0  0
    0.4600    2.2000    0.0000 C   0  0  0  0  0  0  0  0  0  0  0  0
    1.7600   -1.5500    0.0000 C   0  0  0  0  0  0  0  0  0  0  0  0
    0.4600   -2.3000    0.0000 C   0  0  0  0  0  0  0  0  0  0  0  0
   -7.3270    0.7006    0.0000 C   0  0  0  0  0  0  0  0  0  0  0  0
   -3.4300   -1.5500    0.0000 C   0  0  0  0  0  0  0  0  0  0  0  0
    1.7600   -0.0500    0.0000 C   0  0  0  0  0  0  0  0  0  0  0  0
   -3.4300   -0.0500    0.0000 C   0  0  0  0  0  0  0  0  0  0  0  0
    0.4600    0.7000    0.0000 C   0  0  0  0  0  0  0  0  0  0  0  0
   -0.8300   -1.5500    0.0000 C   0  0  0  0  0  0  0  0  0  0  0  0
   -2.1300    0.7000    0.0000 C   0  0  0  0  0  0  0  0  0  0  0  0
   -4.7289    0.7002    0.0000 C   0  0  0  0  0  0  0  0  0  0  0  0
   -2.1300   -2.3000    0.0000 N   0  0  0  0  0  0  0  0  0  0  0  0
   -0.8300   -0.0500    0.0000 N   0  0  0  0  0  0  0  0  0  0  0  0
   -2.1300    2.2000    0.0000 O   0  0  0  0  0  0  0  0  0  0  0  0
   -4.7287    2.2002    0.0000 O   0  0  0  0  0  0  0  0  0  0  0  0
   -6.0281   -0.0496    0.0000 O   0  0  0  0  0  0  0  0  0  0  0  0
  2  1  1  0
  3  2  1  0
  5  4  2  0
  6  4  1  0
  7  5  1  0
  9  8  2  0
 10  3  1  0
 12  6  2  0
 12  8  1  0
 13 11  2  0
 14  7  2  0
 14 12  1  0
 15  9  1  0
 16 13  1  0
 17 13  1  0
 18 11  1  0
 18 15  2  0
 19 14  1  0
 19 15  1  0
 19 16  1  0
 20 16  2  0
 21 17  2  0
 22 10  1  0
 22 17  1  0
M  END
>  <NAME>  (3971) 
1-OXO-1H-PYRIMIDO(1,2-A)QUINOLINE-2-CARBOXYLIC ACID BUTYL ESTER

>  <SYNONYMS>  (3971) 


>  <SPECTRUM TYPE>  (3971) 
MS1

>  <INSTRUMENT TYPE>  (3971) 
EI-B

>  <INSTRUMENT>  (3971) 
MS-902

>  <ION MODE>  (3971) 
P

>  <INCHIKEY>  (3971) 
LDBMQSOXPOLETB-UHFFFAOYSA-N

>  <FORMULA>  (3971) 
C17H16N2O3

>  <EXACT MASS>  (3971) 
296.11609237199997

>  <MW>  (3971) 
296

>  <ID>  (3971) 
JP005064

>  <CONTRIBUTOR>  (3971) 
University of Tokyo Team, {Faculty of Engineering, University of Tokyo

>  <COMMENT>  (3971) 
SMILES=CCCCOC(=O)C(=C([H])3)C(=O)N(c21)C(=N3)C([H])=C([H])c(cccc2)1
cas=63455-53-8
InChI=InChI=1S/C17H16N2O3/c1-2-3-10-22-17(21)13-11-18-15-9-8-12-6-4-5-7-14(12)19(15)16(13)20/h4-9,11H,2-3,10H2,1H3
computed SMILES=O=C(OCCCC)C1=CN=C2C=CC=3C=CC=CC3N2C1=O
accession=JP005064
date=2016.01.19 (Created 2008.10.21, modified 2011.05.06)
author=SASAKI S, TOYOHASHI UNIV. OF TECH.
license=CC BY-NC-SA
exact mass=296.11609
ionization energy=70 eV
ion type=[M]+*
computed spectral entropy=2.6197340271753187
computed normalized entropy=0.84752444093062
SPLASH=splash10-004j-0980000000-148df66c0a6c8e97faac
submitter=submitter = University of Tokyo Team (Faculty of Engineering, University of Tokyo)
MoNA Rating=3.75

>  <NUM PEAKS>  (3971) 
22

>  <MASS SPECTRAL PEAKS>  (3971) 
64 8
77 7.8
101 14
128 99.99
129 24
140 14
155 10
168 4.7
169 9.6
194 3.2
195 23
196 6
197 9.4
212 34
213 4.7
223 9.5
224 16
240 46
241 12
268 0.33
296 60
297 17

>  <PREDICTED SPECTRUM>  (3971) 
29 35
41 148
55 53
56 50
57 125
63 68
64 120
70 6
75 170
76 104
77 118
84 51
89 95
95 60
101 372
103 7
110 18
112 71
113 33
114 6
115 107
128 999
129 435
138 35
139 83
140 317
141 120
142 72
155 180
166 103
167 205
168 612
169 249
194 322
195 745
196 866
197 176
211 55
212 773
213 242
222 8
223 980
224 346
239 20
240 889
241 360
251 24
268 128
296 981
297 446
298 94

$$$$

     RDKit          2D

 22 25  0  0  0  0  0  0  0  0999 V2000
   -9.9391   -3.8481    0.0000 C   0  0  0  0  0  0  0  0  0  0  0  0
    3.0600    2.2000    0.0000 C   0  0  0  0  0  0  0  0  0  0  0  0
    1.7600    2.9500    0.0000 C   0  0  0  0  0  0  0  0  0  0  0  0
    3.0600    0.7000    0.0000 C   0  0  0  0  0  0  0  0  0  0  0  0
    0.4600    2.2000    0.0000 C   0  0  0  0  0  0  0  0  0  0  0  0
   -4.7213   -3.8002    0.0000 C   0  0  0  0  0  0  0  0  0  0  0  0
   -6.0027   -1.5567    0.0000 C   0  0  0  0  0  0  0  0  0  0  0  0
    1.7600   -1.5500    0.0000 C   0  0  0  0  0  0  0  0  0  0  0  0
   -5.9875   -4.5566    0.0000 C   0  0  0  0  0  0  0  0  0  0  0  0
   -7.3489   -2.3135    0.0000 C   0  0  0  0  0  0  0  0  0  0  0  0
    0.4600   -2.3000    0.0000 C   0  0  0  0  0  0  0  0  0  0  0  0
   -2.1300    0.7000    0.0000 C   0  0  0  0  0  0  0  0  0  0  0  0
    1.7600   -0.0500    0.0000 C   0  0  0  0  0  0  0  0  0  0  0  0
   -4.7289   -2.3002    0.0000 C   0  0  0  0  0  0  0  0  0  0  0  0
   -7.3413   -3.8135    0.0000 C   0  0  0  0  0  0  0  0  0  0  0  0
    0.4600    0.7000    0.0000 C   0  0  0  0  0  0  0  0  0  0  0  0
   -0.8300   -0.0500    0.0000 C   0  0  0  0  0  0  0  0  0  0  0  0
   -0.8300   -1.5500    0.0000 C   0  0  0  0  0  0  0  0  0  0  0  0
   -3.4300   -1.5500    0.0000 C   0  0  0  0  0  0  0  0  0  0  0  0
   -3.4300   -0.0500    0.0000 N   0  0  0  0  0  0  0  0  0  0  0  0
   -2.1300   -2.3000    0.0000 N   0  0  0  0  0  0  0  0  0  0  0  0
   -8.6302   -4.5808    0.0000 O   0  0  0  0  0  0  0  0  0  0  0  0
  3  2  2  0
  4  2  1  0
  5  3  1  0
  9  6  2  0
 10  7  1  0
 11  8  2  0
 13  4  2  0
 13  8  1  0
 14  6  1  0
 14  7  2  0
 15  9  1  0
 15 10  2  0
 16  5  2  0
 16 13  1  0
 17 12  2  0
 17 16  1  0
 18 11  1  0
 18 17  1  0
 19 14  1  0
 20 12  1  0
 20 19  2  0
 21 18  2  0
 21 19  1  0
 22  1  1  0
 22 15  1  0
M  END
>  <NAME>  (3972) 
3-(4-METHOXYPHENYL)BENZO(F)QUINAZOLINE

>  <SYNONYMS>  (3972) 


>  <SPECTRUM TYPE>  (3972) 
MS1

>  <INSTRUMENT TYPE>  (3972) 
EI-B

>  <INSTRUMENT>  (3972) 
MS-902

>  <ION MODE>  (3972) 
P

>  <INCHIKEY>  (3972) 
CADPXUBGTFMZAG-UHFFFAOYSA-N

>  <FORMULA>  (3972) 
C19H14N2O

>  <EXACT MASS>  (3972) 
286.11061306799996

>  <MW>  (3972) 
286

>  <ID>  (3972) 
JP005063

>  <CONTRIBUTOR>  (3972) 
University of Tokyo Team, {Faculty of Engineering, University of Tokyo

>  <COMMENT>  (3972) 
SMILES=COc(c4)ccc(c4)c(n3)nc(c1)c(c3)c(c2)c(ccc2)c1
cas=68725-85-9
InChI=InChI=1S/C19H14N2O/c1-22-15-9-6-14(7-10-15)19-20-12-17-16-5-3-2-4-13(16)8-11-18(17)21-19/h2-12H,1H3
computed SMILES=N1=CC=2C(N=C1C=3C=CC(OC)=CC3)=CC=C4C=CC=CC42
accession=JP005063
date=2016.01.19 (Created 2008.10.21, modified 2011.05.06)
author=SASAKI S, TOYOHASHI UNIV. OF TECH.
license=CC BY-NC-SA
exact mass=286.11061
ionization energy=70 eV
ion type=[M]+*
computed spectral entropy=1.8683746466163298
computed normalized entropy=0.5734558889869245
SPLASH=splash10-000i-0190000000-b6a4d607b26ec57f66d5
submitter=submitter = University of Tokyo Team (Faculty of Engineering, University of Tokyo)
MoNA Rating=3.75

>  <NUM PEAKS>  (3972) 
26

>  <MASS SPECTRAL PEAKS>  (3972) 
75 1
99 1
107.5 1.2
108 0.11
121 1.6
121.5 4.7
122 1.2
125 0.14
126 16
127 2.2
127.5 1.1
143 0.65
144 1.6
152 1.8
216 1.7
242 0.46
243 5
244 1.5
257 2.1
259 0.15
271 9.4
272 2.7
285 6.3
286 99.99
287 20
288 2.2

>  <PREDICTED SPECTRUM>  (3972) 
27 3
38 0
39 69
40 32
41 22
43 28
44 34
50 47
51 91
52 23
55 5
62 61
63 137
64 92
65 5
74 51
75 131
76 100
77 112
83 6
86 0
87 49
88 77
89 97
90 65
91 29
92 1
99 19
100 14
101 94
102 110
103 46
104 11
113 29
114 51
115 113
116 36
125 39
126 127
127 121
128 70
129 56
134 48
137 18
138 38
139 56
140 92
141 25
144 4
151 46
152 78
153 74
155 27
163 27
164 102
166 26
169 1
177 52
188 53
189 60
190 36
191 8
214 88
215 132
216 108
217 53
227 34
228 47
240 0
241 131
242 286
243 356
244 179
245 14
254 50
255 68
256 28
257 32
259 1
270 75
271 354
272 162
284 46
285 233
286 999
287 448
288 167
289 15

$$$$

     RDKit          2D

 17 18  0  0  0  0  0  0  0  0999 V2000
    6.1107    3.5160    0.0000 C   0  0  0  0  0  0  0  0  0  0  0  0
    7.3895    2.7811    0.0000 C   0  0  0  0  0  0  0  0  0  0  0  0
   -0.3700   -1.7100    0.0000 C   0  0  0  0  0  0  0  0  0  0  0  0
   -1.6700   -0.9600    0.0000 C   0  0  0  0  0  0  0  0  0  0  0  0
    4.8295    2.7708    0.0000 C   0  0  0  0  0  0  0  0  0  0  0  0
    0.9300   -0.9600    0.0000 C   0  0  0  0  0  0  0  0  0  0  0  0
    7.4173    1.2813    0.0000 C   0  0  0  0  0  0  0  0  0  0  0  0
    3.5281    0.5404    0.0000 C   0  0  0  0  0  0  0  0  0  0  0  0
    2.2289    1.2902    0.0000 C   0  0  0  0  0  0  0  0  0  0  0  0
   -1.6700    0.5400    0.0000 C   0  0  0  0  0  0  0  0  0  0  0  0
    4.8270    1.2906    0.0000 C   0  0  0  0  0  0  0  0  0  0  0  0
    0.9300    0.5400    0.0000 C   0  0  0  0  0  0  0  0  0  0  0  0
    6.1058    0.5557    0.0000 C   0  0  0  0  0  0  0  0  0  0  0  0
   -0.3700    1.2900    0.0000 N   0  0  0  0  0  0  0  0  0  0  0  0
    6.0936   -0.9442    0.0000 N   0  0  0  0  0  0  0  0  0  0  0  0
    7.3865   -1.7048    0.0000 O   0  0  0  0  0  0  0  0  0  0  0  0
    4.7885   -1.6836    0.0000 O   0  0  0  0  0  0  0  0  0  0  0  0
  2  1  2  0
  4  3  2  0
  5  1  1  0
  6  3  1  0
  7  2  1  0
  8  9  2  0
 10  4  1  0
 11  5  2  0
 11  8  1  0
 12  6  2  0
 12  9  1  0
 13  7  2  0
 13 11  1  0
 14 10  2  0
 14 12  1  0
 15 13  1  0
 16 15  1  0
 17 15  2  0
M  CHG  2  15   1  16  -1
M  END
>  <NAME>  (3973) 
2-(2-(2-NITROPHENYL)-TRANS-VINYL)PYRIDINE

>  <SYNONYMS>  (3973) 


>  <SPECTRUM TYPE>  (3973) 
MS1

>  <INSTRUMENT TYPE>  (3973) 
EI-B

>  <INSTRUMENT>  (3973) 
MX-1309

>  <ION MODE>  (3973) 
P

>  <INCHIKEY>  (3973) 
YADNATDOWRSAOC-CMDGGOBGSA-N

>  <FORMULA>  (3973) 
C13H10N2O2

>  <EXACT MASS>  (3973) 
226.07422756

>  <MW>  (3973) 
226

>  <ID>  (3973) 
JP005029

>  <CONTRIBUTOR>  (3973) 
University of Tokyo Team, {Faculty of Engineering, University of Tokyo

>  <COMMENT>  (3973) 
SMILES=[O-1][N+1](=O)c(c2)c(ccc2)C([H])=C([H])c(c1)nccc1
InChI=InChI=1S/C13H10N2O2/c16-15(17)13-7-2-1-5-11(13)8-9-12-6-3-4-10-14-12/h1-10H/b9-8+
computed SMILES=O=N(=O)C=1C=CC=CC1C=CC2=NC=CC=C2
accession=JP005029
date=2016.01.19 (Created 2008.10.21, modified 2011.05.06)
author=SASAKI S, TOYOHASHI UNIV. OF TECH.
license=CC BY-NC-SA
exact mass=226.07423
ionization energy=70 eV
ion type=[M]+*
computed spectral entropy=3.4094601135242573
computed normalized entropy=0.7872708489825506
SPLASH=splash10-00o0-3910000000-d32e778b81325eb7cec1
submitter=submitter = University of Tokyo Team (Faculty of Engineering, University of Tokyo)
MoNA Rating=3.75

>  <NUM PEAKS>  (3973) 
76

>  <MASS SPECTRAL PEAKS>  (3973) 
62 2.4
63 8.2
65 8.4
75 0.52
76 9.8
77 19
78 29.7
79 2.04
80 2.1
84 7.4
87 1.4
88 0.12
89 9
90 3.3
91 8
92 3.08
93 3
97 1
98 1
99 0.12
101 3.5
102 4.9
103 1.5
104 0.42
105 6.6
106 2
108 1.6
114 1.15
115 2.9
119 42.2
120 5.9
121 0.11
125 1.2
126 3
127 6.8
128 0.37
129 1.2
130 1
139 4.1
140 0.32
141 2.9
142 1
149 1
150 0.29
151 6.9
152 14.8
153 5.2
154 0.62
155 2.3
156 11.2
165 1.1
166 0.68
167 19.7
168 4.4
169 2.3
177 0.29
178 12.8
179 16.5
180 99.99
181 2.59
182 3.5
192 1.1
193 1.4
194 0.25
195 1.7
196 1.1
197 5.6
198 0.1
206 9.4
207 1
209 2.6
223 0.32
224 2.6
225 10.3
226 14.3
227 3

>  <PREDICTED SPECTRUM>  (3973) 
16 0
17 6
28 34
29 6
30 18
38 54
39 80
40 11
41 26
43 2
44 11
49 29
50 181
51 284
52 137
53 97
55 26
56 25
57 0
62 129
63 218
64 158
65 211
66 85
67 26
70 70
74 95
75 156
76 259
77 288
78 318
79 276
80 93
81 24
82 12
83 28
84 66
87 24
88 34
89 174
90 175
91 142
92 304
93 149
94 76
95 15
96 19
97 64
98 45
99 80
101 76
102 166
103 46
104 162
105 163
106 59
107 92
113 19
114 98
115 34
119 449
120 311
121 133
122 50
125 38
126 134
127 155
128 149
129 6
130 87
135 6
139 112
140 81
141 96
142 69
150 103
151 210
152 323
153 219
154 183
155 68
156 83
164 30
165 74
166 150
167 387
168 168
169 73
170 3
171 4
177 33
178 305
179 232
180 999
181 461
182 197
183 61
192 51
193 80
194 97
195 105
196 153
197 249
198 21
209 18
223 67
224 49
225 216
226 274
227 113

$$$$

     RDKit          2D

 17 18  0  0  0  0  0  0  0  0999 V2000
   -0.3700   -1.7100    0.0000 C   0  0  0  0  0  0  0  0  0  0  0  0
   -1.6700   -0.9600    0.0000 C   0  0  0  0  0  0  0  0  0  0  0  0
    7.4206    1.2945    0.0000 C   0  0  0  0  0  0  0  0  0  0  0  0
    6.1204    0.5465    0.0000 C   0  0  0  0  0  0  0  0  0  0  0  0
    0.9300   -0.9600    0.0000 C   0  0  0  0  0  0  0  0  0  0  0  0
    7.4273    2.7867    0.0000 C   0  0  0  0  0  0  0  0  0  0  0  0
    3.5281    0.5404    0.0000 C   0  0  0  0  0  0  0  0  0  0  0  0
    2.2289    1.2902    0.0000 C   0  0  0  0  0  0  0  0  0  0  0  0
   -1.6700    0.5400    0.0000 C   0  0  0  0  0  0  0  0  0  0  0  0
    4.8288    2.7915    0.0000 C   0  0  0  0  0  0  0  0  0  0  0  0
    4.8270    1.2906    0.0000 C   0  0  0  0  0  0  0  0  0  0  0  0
    0.9300    0.5400    0.0000 C   0  0  0  0  0  0  0  0  0  0  0  0
    6.1290    3.5395    0.0000 C   0  0  0  0  0  0  0  0  0  0  0  0
   -0.3700    1.2900    0.0000 N   0  0  0  0  0  0  0  0  0  0  0  0
    6.1315    5.0395    0.0000 N   0  0  0  0  0  0  0  0  0  0  0  0
    7.4318    5.7873    0.0000 O   0  0  0  0  0  0  0  0  0  0  0  0
    4.8337    5.7917    0.0000 O   0  0  0  0  0  0  0  0  0  0  0  0
  2  1  2  0
  4  3  2  0
  5  1  1  0
  6  3  1  0
  7  8  2  0
  9  2  1  0
 11  4  1  0
 11  7  1  0
 11 10  2  0
 12  5  2  0
 12  8  1  0
 13  6  2  0
 13 10  1  0
 14  9  2  0
 14 12  1  0
 15 13  1  0
 16 15  1  0
 17 15  2  0
M  CHG  2  15   1  16  -1
M  END
>  <NAME>  (3974) 
2-(2-(3-NITROPHENYL)-TRANS-VINYL)PYRIDINE

>  <SYNONYMS>  (3974) 


>  <SPECTRUM TYPE>  (3974) 
MS1

>  <INSTRUMENT TYPE>  (3974) 
EI-B

>  <INSTRUMENT>  (3974) 
MX-1309

>  <ION MODE>  (3974) 
P

>  <INCHIKEY>  (3974) 
NFTQPJVUAHNPTC-BQYQJAHWSA-N

>  <FORMULA>  (3974) 
C13H10N2O2

>  <EXACT MASS>  (3974) 
226.07422756

>  <MW>  (3974) 
226

>  <ID>  (3974) 
JP005028

>  <CONTRIBUTOR>  (3974) 
University of Tokyo Team, {Faculty of Engineering, University of Tokyo

>  <COMMENT>  (3974) 
SMILES=[O-1][N+1](=O)c(c2)cc(cc2)C([H])=C([H])c(c1)nccc1
InChI=InChI=1S/C13H10N2O2/c16-15(17)13-6-3-4-11(10-13)7-8-12-5-1-2-9-14-12/h1-10H/b8-7+
computed SMILES=O=N(=O)C=1C=CC=C(C=CC2=NC=CC=C2)C1
accession=JP005028
date=2016.01.19 (Created 2008.10.21, modified 2011.05.06)
author=SASAKI S, TOYOHASHI UNIV. OF TECH.
license=CC BY-NC-SA
exact mass=226.07423
ionization energy=70 eV
ion type=[M]+*
computed spectral entropy=2.694083203240877
computed normalized entropy=0.6997350444549942
SPLASH=splash10-004i-2590000000-9d61cf39a15b065e8ea9
submitter=submitter = University of Tokyo Team (Faculty of Engineering, University of Tokyo)
MoNA Rating=3.75

>  <NUM PEAKS>  (3974) 
47

>  <MASS SPECTRAL PEAKS>  (3974) 
62 1.7
63 5.9
64 1.5
75 0.45
76 9.4
77 16.2
78 11.3
79 0.14
80 1.3
87 1.2
88 1.1
89 1.1
90 7.2
101 2.8
102 3.2
104 0.32
139 1.4
140 1.9
141 4.4
149 0.11
150 3
151 8.1
152 19.4
153 0.89
154 3.5
165 1
166 1.6
167 0.78
168 1.8
177 2.5
178 26.9
179 1.08
180 26.1
181 3.2
192 1
193 0.16
194 1
195 2.6
196 1
209 0.1
210 17.9
211 3.5
223 4.6
224 0.44
225 99.99
226 65.6
227 1.06

>  <PREDICTED SPECTRUM>  (3974) 
28 7
30 28
38 26
39 71
40 16
41 8
42 10
44 2
46 34
50 181
51 238
52 139
53 26
55 5
56 0
61 32
62 129
63 248
64 113
65 82
66 27
68 3
74 102
75 214
76 219
77 261
78 219
79 131
80 26
84 51
86 43
87 50
88 76
89 221
90 154
91 19
92 9
96 6
98 24
99 17
100 19
101 136
102 119
103 42
104 149
105 48
106 0
113 19
114 79
124 20
125 17
126 91
127 102
128 69
129 21
139 123
140 141
141 62
150 102
151 254
152 327
153 214
154 147
155 35
164 49
165 127
166 139
167 157
168 120
176 71
177 164
178 381
179 494
180 404
181 180
182 27
192 20
193 0
194 31
195 107
196 113
197 72
198 28
209 55
210 138
211 56
223 73
224 183
225 999
226 741
227 216
228 55

$$$$

     RDKit          2D

 17 18  0  0  0  0  0  0  0  0999 V2000
    8.7236    5.0433    0.0000 C   0  0  0  0  0  0  0  0  0  0  0  0
   10.0236    4.2933    0.0000 C   0  0  0  0  0  0  0  0  0  0  0  0
    7.4236    4.2933    0.0000 C   0  0  0  0  0  0  0  0  0  0  0  0
    4.8256    2.7929    0.0000 C   0  0  0  0  0  0  0  0  0  0  0  0
    2.2274    2.7923    0.0000 C   0  0  0  0  0  0  0  0  0  0  0  0
    3.5266    0.5419    0.0000 C   0  0  0  0  0  0  0  0  0  0  0  0
    6.1247    2.0431    0.0000 C   0  0  0  0  0  0  0  0  0  0  0  0
    0.9281    2.0410    0.0000 C   0  0  0  0  0  0  0  0  0  0  0  0
    2.2274   -0.2094    0.0000 C   0  0  0  0  0  0  0  0  0  0  0  0
   10.0236    2.7933    0.0000 C   0  0  0  0  0  0  0  0  0  0  0  0
    3.5266    2.0427    0.0000 C   0  0  0  0  0  0  0  0  0  0  0  0
    7.4236    2.7933    0.0000 C   0  0  0  0  0  0  0  0  0  0  0  0
    0.9281    0.5402    0.0000 C   0  0  0  0  0  0  0  0  0  0  0  0
    8.7236    2.0433    0.0000 N   0  0  0  0  0  0  0  0  0  0  0  0
   -0.3708   -0.2100    0.0000 N   0  0  0  0  0  0  0  0  0  0  0  0
   -1.6700    0.5398    0.0000 O   0  0  0  0  0  0  0  0  0  0  0  0
   -0.3706   -1.7100    0.0000 O   0  0  0  0  0  0  0  0  0  0  0  0
  2  1  2  0
  3  1  1  0
  4  7  2  0
  8  5  2  0
  9  6  1  0
 10  2  1  0
 11  4  1  0
 11  5  1  0
 11  6  2  0
 12  3  2  0
 12  7  1  0
 13  8  1  0
 13  9  2  0
 14 10  2  0
 14 12  1  0
 15 13  1  0
 16 15  1  0
 17 15  2  0
M  CHG  2  15   1  16  -1
M  END
>  <NAME>  (3975) 
2-(2-(4-NITROPHENYL)-TRANS-VINYL)PYRIDINE

>  <SYNONYMS>  (3975) 


>  <SPECTRUM TYPE>  (3975) 
MS1

>  <INSTRUMENT TYPE>  (3975) 
EI-B

>  <INSTRUMENT>  (3975) 
MX-1309

>  <ION MODE>  (3975) 
P

>  <INCHIKEY>  (3975) 
RBWIGCZMJZUUCB-QPJJXVBHSA-N

>  <FORMULA>  (3975) 
C13H10N2O2

>  <EXACT MASS>  (3975) 
226.07422756

>  <MW>  (3975) 
226

>  <ID>  (3975) 
JP005027

>  <CONTRIBUTOR>  (3975) 
University of Tokyo Team, {Faculty of Engineering, University of Tokyo

>  <COMMENT>  (3975) 
SMILES=[O-1][N+1](=O)c(c2)ccc(c2)C([H])=C([H])c(c1)nccc1
InChI=InChI=1S/C13H10N2O2/c16-15(17)13-8-5-11(6-9-13)4-7-12-3-1-2-10-14-12/h1-10H/b7-4+
computed SMILES=O=N(=O)C1=CC=C(C=CC2=NC=CC=C2)C=C1
accession=JP005027
date=2016.01.19 (Created 2008.10.21, modified 2011.05.06)
author=SASAKI S, TOYOHASHI UNIV. OF TECH.
license=CC BY-NC-SA
exact mass=226.07423
ionization energy=70 eV
ion type=[M]+*
computed spectral entropy=2.506031286816619
computed normalized entropy=0.679347568276276
SPLASH=splash10-004i-3790000000-bcf9a4ae4d8266f4df69
submitter=submitter = University of Tokyo Team (Faculty of Engineering, University of Tokyo)
MoNA Rating=3.75

>  <NUM PEAKS>  (3975) 
40

>  <MASS SPECTRAL PEAKS>  (3975) 
50 3.1
51 8.4
52 6.2
62 0.11
63 4.7
64 1.5
75 3.9
76 0.52
77 10
78 7.6
79 9.8
89 0.6
90 3.8
101 2.1
102 2.2
103 0.1
104 2
114 1.1
139 1
140 0.14
141 2.6
149 1
150 1.6
151 0.47
152 10.1
153 6.3
154 2.4
166 0.1
167 6.2
168 1.6
177 1.8
178 1.94
179 66.3
180 14.8
181 1.7
195 0.12
210 1.8
225 99.99
226 51.9
227 7.7

>  <PREDICTED SPECTRUM>  (3975) 
30 5
38 10
39 54
40 2
46 33
50 190
51 283
52 152
61 34
62 129
63 244
64 109
65 104
66 22
74 77
75 175
76 195
77 254
78 294
79 121
80 11
86 20
87 18
88 52
89 194
90 140
101 145
102 105
103 52
104 138
105 62
106 0
113 8
114 106
124 20
126 46
127 28
128 7
139 59
140 130
141 50
150 46
151 197
152 254
153 162
154 81
164 15
165 88
166 120
167 177
168 116
176 15
177 135
178 333
179 800
180 388
181 148
182 15
192 1
194 12
195 67
196 39
210 62
223 0
224 87
225 999
226 727
227 218
228 43

$$$$

     RDKit          2D

 17 18  0  0  0  0  0  0  0  0999 V2000
   -1.6700    0.5398    0.0000 C   0  0  0  0  0  0  0  0  0  0  0  0
   -0.3706   -1.7100    0.0000 C   0  0  0  0  0  0  0  0  0  0  0  0
    8.7236    5.0433    0.0000 C   0  0  0  0  0  0  0  0  0  0  0  0
   10.0236    4.2933    0.0000 C   0  0  0  0  0  0  0  0  0  0  0  0
    7.4236    4.2933    0.0000 C   0  0  0  0  0  0  0  0  0  0  0  0
    4.8256    2.7929    0.0000 C   0  0  0  0  0  0  0  0  0  0  0  0
    2.2274    2.7923    0.0000 C   0  0  0  0  0  0  0  0  0  0  0  0
    3.5266    0.5419    0.0000 C   0  0  0  0  0  0  0  0  0  0  0  0
    6.1247    2.0431    0.0000 C   0  0  0  0  0  0  0  0  0  0  0  0
    0.9281    2.0410    0.0000 C   0  0  0  0  0  0  0  0  0  0  0  0
    2.2274   -0.2094    0.0000 C   0  0  0  0  0  0  0  0  0  0  0  0
   10.0236    2.7933    0.0000 C   0  0  0  0  0  0  0  0  0  0  0  0
    3.5266    2.0427    0.0000 C   0  0  0  0  0  0  0  0  0  0  0  0
    7.4236    2.7933    0.0000 C   0  0  0  0  0  0  0  0  0  0  0  0
    0.9281    0.5402    0.0000 C   0  0  0  0  0  0  0  0  0  0  0  0
    8.7236    2.0433    0.0000 N   0  0  0  0  0  0  0  0  0  0  0  0
   -0.3708   -0.2100    0.0000 N   0  0  0  0  0  0  0  0  0  0  0  0
  4  3  2  0
  5  3  1  0
  6  9  2  0
 10  7  2  0
 11  8  1  0
 12  4  1  0
 13  6  1  0
 13  7  1  0
 13  8  2  0
 14  5  2  0
 14  9  1  0
 15 10  1  0
 15 11  2  0
 16 12  2  0
 16 14  1  0
 17  1  1  0
 17  2  1  0
 17 15  1  0
M  END
>  <NAME>  (3976) 
2-(2-(4-DIMETHYLAMINOPHENYL)-TRANS-VINYL)PYRIDINE

>  <SYNONYMS>  (3976) 


>  <SPECTRUM TYPE>  (3976) 
MS1

>  <INSTRUMENT TYPE>  (3976) 
EI-B

>  <INSTRUMENT>  (3976) 
MX-1309

>  <ION MODE>  (3976) 
P

>  <INCHIKEY>  (3976) 
BKJUFUDGHOBEFF-RMKNXTFCSA-N

>  <FORMULA>  (3976) 
C15H16N2

>  <EXACT MASS>  (3976) 
224.131348512

>  <MW>  (3976) 
224

>  <ID>  (3976) 
JP005026

>  <CONTRIBUTOR>  (3976) 
University of Tokyo Team, {Faculty of Engineering, University of Tokyo

>  <COMMENT>  (3976) 
SMILES=CN(C)c(c2)ccc(c2)C([H])=C([H])c(c1)nccc1
InChI=InChI=1S/C15H16N2/c1-17(2)15-10-7-13(8-11-15)6-9-14-5-3-4-12-16-14/h3-12H,1-2H3/b9-6+
computed SMILES=N=1C=CC=CC1C=CC2=CC=C(C=C2)N(C)C
accession=JP005026
date=2016.01.19 (Created 2008.10.21, modified 2011.05.06)
author=SASAKI S, TOYOHASHI UNIV. OF TECH.
license=CC BY-NC-SA
exact mass=224.13135
ionization energy=70 eV
ion type=[M]+*
computed spectral entropy=2.285952142400017
computed normalized entropy=0.6196874066596735
SPLASH=splash10-00di-0290000000-0de4afa77b5dc75411e0
submitter=submitter = University of Tokyo Team (Faculty of Engineering, University of Tokyo)
MoNA Rating=3.75

>  <NUM PEAKS>  (3976) 
40

>  <MASS SPECTRAL PEAKS>  (3976) 
75 1.1
76 2.2
77 2.7
78 0.2
79 1.3
84 2.5
89 1.7
90 0.22
101 1
102 1
103 4.4
104 0.42
111 13.9
112 8.3
127 1
128 0.1
130 1
151 1.5
152 2.8
153 0.16
154 1.1
166 1
167 3.1
168 0.18
178 6.4
179 6.4
180 6.4
181 0.17
192 1.3
193 1.4
194 1.5
206 0.1
207 25.5
208 9.9
209 3.5
221 0.13
222 1
223 99.99
224 85.4
225 15

>  <PREDICTED SPECTRUM>  (3976) 
15 27
26 21
27 56
28 27
37 7
38 36
39 113
40 32
41 42
42 53
43 41
44 89
50 109
51 171
52 109
53 59
54 11
55 60
58 1
62 57
63 134
64 83
65 109
66 45
67 28
69 2
74 62
75 103
76 132
77 206
78 184
79 100
80 13
81 10
82 17
83 51
84 49
85 33
87 6
88 30
89 106
90 102
91 131
92 98
93 37
96 21
97 35
98 13
99 15
101 37
102 111
103 107
104 130
105 135
106 84
107 5
110 12
111 60
112 18
113 24
114 27
115 73
116 47
117 94
118 90
119 39
120 5
126 23
127 78
128 70
129 17
130 71
131 68
132 91
133 25
134 32
139 39
140 31
141 5
142 26
143 11
146 9
148 2
151 60
152 100
153 59
154 125
155 59
156 74
164 13
165 117
166 105
167 123
168 97
169 50
171 12
177 15
178 78
179 144
180 346
181 223
182 99
183 11
191 44
192 116
193 131
194 149
195 121
196 66
205 44
206 121
207 274
208 386
209 332
210 94
221 135
222 164
223 999
224 701
225 204
226 13

$$$$

     RDKit          2D

 15 16  0  0  0  0  0  0  0  0999 V2000
    7.4474    3.5438    0.0000 C   0  0  0  0  0  0  0  0  0  0  0  0
    8.7474    2.7938    0.0000 C   0  0  0  0  0  0  0  0  0  0  0  0
    6.1474    2.7938    0.0000 C   0  0  0  0  0  0  0  0  0  0  0  0
    0.9645    1.2830    0.0000 C   0  0  0  0  0  0  0  0  0  0  0  0
    2.2486   -0.9663    0.0000 C   0  0  0  0  0  0  0  0  0  0  0  0
    3.5494    1.2934    0.0000 C   0  0  0  0  0  0  0  0  0  0  0  0
   -0.3382    0.5393    0.0000 C   0  0  0  0  0  0  0  0  0  0  0  0
    0.9459   -1.7100    0.0000 C   0  0  0  0  0  0  0  0  0  0  0  0
    4.8485    0.5436    0.0000 C   0  0  0  0  0  0  0  0  0  0  0  0
    8.7474    1.2938    0.0000 C   0  0  0  0  0  0  0  0  0  0  0  0
    2.2504    0.5432    0.0000 C   0  0  0  0  0  0  0  0  0  0  0  0
   -0.3636   -0.9491    0.0000 C   0  0  0  0  0  0  0  0  0  0  0  0
    6.1474    1.2938    0.0000 C   0  0  0  0  0  0  0  0  0  0  0  0
   -1.6700   -1.6862    0.0000 Cl  0  0  0  0  0  0  0  0  0  0  0  0
    7.4474    0.5438    0.0000 N   0  0  0  0  0  0  0  0  0  0  0  0
  2  1  2  0
  3  1  1  0
  7  4  2  0
  8  5  1  0
  6  9  2  0
 10  2  1  0
 11  4  1  0
 11  5  2  0
 11  6  1  0
 12  7  1  0
 12  8  2  0
 13  3  2  0
 13  9  1  0
 14 12  1  0
 15 10  2  0
 15 13  1  0
M  END
>  <NAME>  (3977) 
2-(2-(4-CHLOROPHENYL)-TRANS-VINYL)PYRIDINE

>  <SYNONYMS>  (3977) 


>  <SPECTRUM TYPE>  (3977) 
MS1

>  <INSTRUMENT TYPE>  (3977) 
EI-B

>  <INSTRUMENT>  (3977) 
MX-1309

>  <ION MODE>  (3977) 
P

>  <INCHIKEY>  (3977) 
KSRMKBJYFVLXQU-RMKNXTFCSA-N

>  <FORMULA>  (3977) 
C13H10ClN

>  <EXACT MASS>  (3977) 
215.050177

>  <MW>  (3977) 
215

>  <ID>  (3977) 
JP005025

>  <CONTRIBUTOR>  (3977) 
University of Tokyo Team, {Faculty of Engineering, University of Tokyo

>  <COMMENT>  (3977) 
SMILES=Clc(c2)ccc(c2)C([H])=C([H])c(c1)nccc1
InChI=InChI=1S/C13H10ClN/c14-12-7-4-11(5-8-12)6-9-13-3-1-2-10-15-13/h1-10H/b9-6+
computed SMILES=ClC1=CC=C(C=C1)C=CC2=NC=CC=C2
accession=JP005025
date=2016.01.19 (Created 2008.10.21, modified 2011.05.06)
author=SASAKI S, TOYOHASHI UNIV. OF TECH.
license=CC BY-NC-SA
exact mass=215.05018
ionization energy=70 eV
ion type=[M]+*
computed spectral entropy=2.1199445032404327
computed normalized entropy=0.6432188817071288
SPLASH=splash10-03di-2190000000-b8a1be38d6a1142c7258
submitter=submitter = University of Tokyo Team (Faculty of Engineering, University of Tokyo)
MoNA Rating=3.75

>  <NUM PEAKS>  (3977) 
27

>  <MASS SPECTRAL PEAKS>  (3977) 
50 1.9
51 5.3
52 6
62 0.1
63 2.6
75 3.3
76 4.9
77 0.4
78 5.1
79 5.2
89 10.5
90 0.42
126 1.1
127 1
150 1
151 0.33
152 5.2
153 1.6
177 1.2
178 0.91
179 8.9
180 5.1
214 99.99
215 2.86
216 36.3
217 9.8
218 1

>  <PREDICTED SPECTRUM>  (3977) 
36 2
37 6
38 36
39 67
44 0
49 101
50 192
51 299
52 191
53 22
57 18
61 16
62 122
63 194
64 69
65 70
66 10
71 9
73 11
74 67
75 267
76 183
77 198
78 247
79 132
80 8
84 22
85 47
86 22
87 31
88 55
89 191
90 111
91 5
96 9
97 4
99 40
101 154
102 180
103 89
104 107
105 0
111 145
112 1
113 106
114 57
117 1
124 74
125 76
126 83
127 89
128 60
137 46
139 21
140 30
149 48
150 99
151 232
152 258
153 150
154 105
159 2
176 9
177 80
178 257
179 226
180 450
181 145
187 1
212 22
213 113
214 999
215 658
216 506
217 362
218 94

$$$$

     RDKit          2D

 16 17  0  0  0  0  0  0  0  0999 V2000
   10.0372    2.8386    0.0000 C   0  0  0  0  0  0  0  0  0  0  0  0
   -0.3700   -1.7100    0.0000 C   0  0  0  0  0  0  0  0  0  0  0  0
   -1.6700   -0.9600    0.0000 C   0  0  0  0  0  0  0  0  0  0  0  0
    0.9300   -0.9600    0.0000 C   0  0  0  0  0  0  0  0  0  0  0  0
    3.5281    0.5404    0.0000 C   0  0  0  0  0  0  0  0  0  0  0  0
    4.8194    2.7906    0.0000 C   0  0  0  0  0  0  0  0  0  0  0  0
    6.1008    0.5471    0.0000 C   0  0  0  0  0  0  0  0  0  0  0  0
    2.2289    1.2902    0.0000 C   0  0  0  0  0  0  0  0  0  0  0  0
    6.0855    3.5470    0.0000 C   0  0  0  0  0  0  0  0  0  0  0  0
    7.4470    1.3039    0.0000 C   0  0  0  0  0  0  0  0  0  0  0  0
   -1.6700    0.5400    0.0000 C   0  0  0  0  0  0  0  0  0  0  0  0
    4.8270    1.2906    0.0000 C   0  0  0  0  0  0  0  0  0  0  0  0
    0.9300    0.5400    0.0000 C   0  0  0  0  0  0  0  0  0  0  0  0
    7.4393    2.8039    0.0000 C   0  0  0  0  0  0  0  0  0  0  0  0
   -0.3700    1.2900    0.0000 N   0  0  0  0  0  0  0  0  0  0  0  0
    8.7283    3.5712    0.0000 O   0  0  0  0  0  0  0  0  0  0  0  0
  3  2  2  0
  4  2  1  0
  5  8  2  0
  9  6  2  0
 10  7  1  0
 11  3  1  0
 12  5  1  0
 12  6  1  0
 12  7  2  0
 13  4  2  0
 13  8  1  0
 14  9  1  0
 14 10  2  0
 15 11  2  0
 15 13  1  0
 16  1  1  0
 16 14  1  0
M  END
>  <NAME>  (3978) 
2-(2-(4-METHOXYPHENYL)-TRANS-VINYL)PYRIDINE

>  <SYNONYMS>  (3978) 


>  <SPECTRUM TYPE>  (3978) 
MS1

>  <INSTRUMENT TYPE>  (3978) 
EI-B

>  <INSTRUMENT>  (3978) 
MX-1309

>  <ION MODE>  (3978) 
P

>  <INCHIKEY>  (3978) 
YVXLWJRTXKPYON-VMPITWQZSA-N

>  <FORMULA>  (3978) 
C14H13NO

>  <EXACT MASS>  (3978) 
211.099714036

>  <MW>  (3978) 
211

>  <ID>  (3978) 
JP005023

>  <CONTRIBUTOR>  (3978) 
University of Tokyo Team, {Faculty of Engineering, University of Tokyo

>  <COMMENT>  (3978) 
SMILES=COc(c2)ccc(c2)C([H])=C([H])c(c1)nccc1
InChI=InChI=1S/C14H13NO/c1-16-14-9-6-12(7-10-14)5-8-13-4-2-3-11-15-13/h2-11H,1H3/b8-5+
computed SMILES=N=1C=CC=CC1C=CC2=CC=C(OC)C=C2
accession=JP005023
date=2016.01.19 (Created 2008.10.21, modified 2011.05.06)
author=SASAKI S, TOYOHASHI UNIV. OF TECH.
license=CC BY-NC-SA
exact mass=211.09971
ionization energy=70 eV
ion type=[M]+*
computed spectral entropy=1.333825159632845
computed normalized entropy=0.4614718352367606
SPLASH=splash10-03di-0090000000-8b7352a74d36d95a3b8f
submitter=submitter = University of Tokyo Team (Faculty of Engineering, University of Tokyo)
MoNA Rating=3.75

>  <NUM PEAKS>  (3978) 
18

>  <MASS SPECTRAL PEAKS>  (3978) 
50 1.3
62 1
77 1
78 0.11
79 1
89 1.4
90 1.2
132 0.12
140 1
141 1.3
166 2.2
167 1.6
168 5.5
178 1.1
180 1.1
210 99.99
211 41.8
212 6

>  <PREDICTED SPECTRUM>  (3978) 
45 3
50 9
51 93
52 3
63 79
64 30
65 26
75 14
76 42
77 165
78 135
89 85
90 51
91 64
92 42
102 42
104 12
105 1
106 38
108 10
133 18
139 66
140 74
141 89
150 40
151 34
152 89
166 93
167 391
168 281
169 44
178 38
179 45
180 144
181 10
195 210
196 254
197 9
210 999
211 611
212 74

$$$$

     RDKit          2D

 15 14  0  0  0  0  0  0  0  0999 V2000
    4.1716    7.0245    0.0000 C   0  0  0  0  0  0  0  0  0  0  0  0
   -9.3678    9.0736    0.0000 C   0  0  0  0  0  0  0  0  0  0  0  0
  -11.4168    8.5245    0.0000 C   0  0  0  0  0  0  0  0  0  0  0  0
  -10.8678    6.4755    0.0000 C   0  0  0  0  0  0  0  0  0  0  0  0
    2.8726    7.7745    0.0000 C   0  0  0  0  0  0  0  0  0  0  0  0
    1.5736    7.0245    0.0000 C   0  0  0  0  0  0  0  0  0  0  0  0
    0.2745    7.7745    0.0000 C   0  0  0  0  0  0  0  0  0  0  0  0
   -1.0245    7.0245    0.0000 C   0  0  0  0  0  0  0  0  0  0  0  0
   -2.3236    7.7745    0.0000 C   0  0  0  0  0  0  0  0  0  0  0  0
   -3.6226    7.0245    0.0000 C   0  0  0  0  0  0  0  0  0  0  0  0
   -4.9216    7.7745    0.0000 C   0  0  0  0  0  0  0  0  0  0  0  0
   -6.2207    7.0245    0.0000 C   0  0  0  0  0  0  0  0  0  0  0  0
   -7.5197    7.7745    0.0000 C   0  0  0  0  0  0  0  0  0  0  0  0
   -8.8187    7.0245    0.0000 C   0  0  0  0  0  0  0  0  0  0  0  0
  -10.1178    7.7745    0.0000 Si  0  0  0  0  0  4  0  0  0  0  0  0
  5  1  1  0
  6  5  1  0
  7  6  1  0
  8  7  1  0
  9  8  1  0
 10  9  1  0
 11 10  1  0
 11 12  2  0
 13 12  1  0
 14 13  1  0
 15  2  1  0
 15  3  1  0
 15  4  1  0
 15 14  1  0
M  END
>  <NAME>  (3979) 
TRIMETHYL(3-UNDECENYL)SILANE

>  <SYNONYMS>  (3979) 


>  <SPECTRUM TYPE>  (3979) 
MS1

>  <INSTRUMENT TYPE>  (3979) 
EI-B

>  <INSTRUMENT>  (3979) 
JEOL JMS-D-3000

>  <ION MODE>  (3979) 
P

>  <INCHIKEY>  (3979) 
NZAXKKKKVBISRC-VAWYXSNFSA-N

>  <FORMULA>  (3979) 
C14H30Si

>  <EXACT MASS>  (3979) 
226.21167749

>  <MW>  (3979) 
226

>  <ID>  (3979) 
JP005004

>  <CONTRIBUTOR>  (3979) 
University of Tokyo Team, {Faculty of Engineering, University of Tokyo

>  <COMMENT>  (3979) 
SMILES=CCCCCCCC=CCC[Si](C)(C)C
InChI=InChI=1S/C14H30Si/c1-5-6-7-8-9-10-11-12-13-14-15(2,3)4/h11-12H,5-10,13-14H2,1-4H3/b12-11+
computed SMILES=C(=CCC[Si](C)(C)C)CCCCCCC
accession=JP005004
date=2016.01.19 (Created 2008.10.21, modified 2011.05.06)
author=MASS SPECTROSCOPY SOC. OF JAPAN (MSSJ)
license=CC BY-NC-SA
exact mass=226.21168
ionization energy=70 eV
ion type=[M]+*
computed spectral entropy=1.402307354267479
computed normalized entropy=0.54671931443329
SPLASH=splash10-00di-9000000000-3b590ff6d388ab94de04
submitter=submitter = University of Tokyo Team (Faculty of Engineering, University of Tokyo)
MoNA Rating=3.75

>  <NUM PEAKS>  (3979) 
13

>  <MASS SPECTRAL PEAKS>  (3979) 
41 3.18
43 2.33
45 3.45
55 2.22
59 8.57
73 99.99
74 8.66
75 3.77
99 6.53
113 1.86
127 2.97
211 2.31
226 3.09

>  <PREDICTED SPECTRUM>  (3979) 
27 10
29 38
41 56
43 107
44 48
45 93
53 18
54 6
55 122
57 63
58 41
59 313
66 3
67 98
68 14
69 74
70 19
73 999
74 251
75 250
76 22
82 13
83 169
84 11
85 124
86 50
93 11
95 38
96 1
97 44
99 102
100 12
101 26
109 13
113 140
114 9
126 35
127 81
128 8
129 79
141 62
155 58
169 90
183 60
211 173
212 42
226 191
227 53

$$$$

     RDKit          2D

 18 17  0  0  0  0  0  0  0  0999 V2000
    3.3550    6.9390    0.0000 C   0  0  0  0  0  0  0  0  0  0  0  0
  -10.9344    7.6890    0.0000 C   0  0  0  0  0  0  0  0  0  0  0  0
  -10.4429    4.9013    0.0000 C   0  0  0  0  0  0  0  0  0  0  0  0
   -8.0634    4.1199    0.0000 C   0  0  0  0  0  0  0  0  0  0  0  0
    2.0560    7.6890    0.0000 C   0  0  0  0  0  0  0  0  0  0  0  0
   -9.6354    6.9390    0.0000 C   0  0  0  0  0  0  0  0  0  0  0  0
   -9.4787    6.0504    0.0000 C   0  0  0  0  0  0  0  0  0  0  0  0
   -6.5861    4.3803    0.0000 C   0  0  0  0  0  0  0  0  0  0  0  0
    0.7569    6.9390    0.0000 C   0  0  0  0  0  0  0  0  0  0  0  0
   -0.5421    7.6890    0.0000 C   0  0  0  0  0  0  0  0  0  0  0  0
   -1.8411    6.9390    0.0000 C   0  0  0  0  0  0  0  0  0  0  0  0
   -3.1402    7.6890    0.0000 C   0  0  0  0  0  0  0  0  0  0  0  0
   -4.4392    6.9390    0.0000 C   0  0  0  0  0  0  0  0  0  0  0  0
   -5.7383    7.6890    0.0000 C   0  0  0  0  0  0  0  0  0  0  0  0
   -8.3363    7.6890    0.0000 O   0  0  0  0  0  0  0  0  0  0  0  0
   -8.0015    5.7899    0.0000 O   0  0  0  0  0  0  0  0  0  0  0  0
   -6.0731    5.7899    0.0000 O   0  0  0  0  0  0  0  0  0  0  0  0
   -7.0373    6.9390    0.0000 Si  0  0  0  0  0  4  0  0  0  0  0  0
  5  1  1  0
  6  2  1  0
  7  3  1  0
  8  4  1  0
  9  5  1  0
 10  9  1  0
 11 10  1  0
 12 11  1  0
 13 12  1  0
 13 14  2  0
 15  6  1  0
 16  7  1  0
 17  8  1  0
 18 14  1  0
 18 15  1  0
 18 16  1  0
 18 17  1  0
M  END
>  <NAME>  (3980) 
TRIETHOXY(1-OCTENYL)SILANE

>  <SYNONYMS>  (3980) 


>  <SPECTRUM TYPE>  (3980) 
MS1

>  <INSTRUMENT TYPE>  (3980) 
EI-B

>  <INSTRUMENT>  (3980) 
JEOL JMS-D-3000

>  <ION MODE>  (3980) 
P

>  <INCHIKEY>  (3980) 
SDIRFAFFHXXYEL-BUHFOSPRSA-N

>  <FORMULA>  (3980) 
C14H30O3Si

>  <EXACT MASS>  (3980) 
274.19642135

>  <MW>  (3980) 
274

>  <ID>  (3980) 
JP005002

>  <CONTRIBUTOR>  (3980) 
University of Tokyo Team, {Faculty of Engineering, University of Tokyo

>  <COMMENT>  (3980) 
SMILES=CCCCCCC=C[Si](OCC)(OCC)OCC
cas=106865-23-0
InChI=InChI=1S/C14H30O3Si/c1-5-9-10-11-12-13-14-18(15-6-2,16-7-3)17-8-4/h13-14H,5-12H2,1-4H3/b14-13+
computed SMILES=O(CC)[Si](OCC)(OCC)C=CCCCCCC
accession=JP005002
date=2016.01.19 (Created 2008.10.21, modified 2011.05.06)
author=MASS SPECTROSCOPY SOC. OF JAPAN (MSSJ)
license=CC BY-NC-SA
exact mass=274.19642
ionization energy=70 eV
ion type=[M]+*
computed spectral entropy=2.893069518893458
computed normalized entropy=0.7556386768284001
SPLASH=splash10-03di-1900000000-8ec0bf6ef09e3ca770c4
submitter=submitter = University of Tokyo Team (Faculty of Engineering, University of Tokyo)
MoNA Rating=3.75

>  <NUM PEAKS>  (3980) 
46

>  <MASS SPECTRAL PEAKS>  (3980) 
55 1.85
62 1.58
63 9.55
67 1.79
73 5.5
76 1.58
77 2
79 10.17
81 1.5
89 2.29
91 8.88
99 2.2
103 2.83
107 6.12
108 2.11
117 2.08
118 2.79
119 31.76
120 3.47
121 2
127 4.44
132 1.44
133 1.99
135 9.93
141 2.65
143 1.92
145 3.11
146 1.86
147 5.97
149 1.5
157 1.59
158 1.91
159 3.32
163 99.99
164 11.77
165 5.04
171 3.8
187 2.04
189 10.08
190 1.62
204 1.47
215 1.51
228 5.94
229 5.72
259 1.48
274 1.62

>  <PREDICTED SPECTRUM>  (3980) 
26 20
27 41
28 15
29 114
31 20
39 34
41 128
43 24
45 191
46 54
47 67
51 3
53 51
54 38
55 102
56 43
57 3
59 65
61 15
62 53
63 125
65 57
66 1
67 13
69 29
73 113
75 11
77 120
78 20
79 253
80 76
81 134
82 82
83 86
85 10
87 92
89 144
90 100
91 248
92 48
93 88
95 22
97 74
101 103
103 37
105 54
107 323
108 79
109 52
111 16
113 65
117 216
118 158
119 602
120 105
121 116
123 34
131 65
132 41
133 118
134 51
135 403
136 45
139 6
145 143
146 109
147 194
148 39
149 83
155 10
156 15
157 159
158 42
159 81
160 18
161 101
162 76
163 999
164 385
165 214
167 20
168 40
171 7
173 33
175 16
189 171
190 30
192 7
203 56
204 79
215 7
217 1
220 1
228 115
229 233
230 66
232 15
273 50
274 129
275 20

$$$$

     RDKit          2D

 19 20  0  0  0  0  0  0  0  0999 V2000
   -4.1510   -4.7758    0.0000 C   0  0  0  0  0  0  0  0  0  0  0  0
   -5.4230   -3.9809    0.0000 C   0  0  0  0  0  0  0  0  0  0  0  0
   -5.3707   -2.4818    0.0000 C   0  0  0  0  0  0  0  0  0  0  0  0
   -6.6428   -1.6870    0.0000 C   0  0  0  0  0  0  0  0  0  0  0  0
   -6.5905   -0.1879    0.0000 C   0  0  0  0  0  0  0  0  0  0  0  0
   -7.8626    0.6070    0.0000 C   0  0  0  0  0  0  0  0  0  0  0  0
   -7.8102    2.1061    0.0000 C   0  0  0  0  0  0  0  0  0  0  0  0
   -7.6000    6.3600    0.0000 C   0  0  0  0  0  0  0  0  0  0  0  0
  -10.3330    6.2026    0.0000 C   0  0  0  0  0  0  0  0  0  0  0  0
  -10.4600    6.3600    0.0000 C   0  0  0  0  0  0  0  0  0  0  0  0
   -6.7200    5.1500    0.0000 C   0  0  0  0  0  0  0  0  0  0  0  0
  -10.6397    5.1500    0.0000 C   0  0  0  0  0  0  0  0  0  0  0  0
  -11.3400    5.1500    0.0000 C   0  0  0  0  0  0  0  0  0  0  0  0
   -9.0823    2.9009    0.0000 C   0  0  0  0  0  0  0  0  0  0  0  0
   -9.0300    5.9000    0.0000 N   0  0  0  0  0  0  0  0  0  0  0  0
   -7.6000    3.9300    0.0000 O   0  0  0  0  0  0  0  0  0  0  0  0
  -10.3330    4.0974    0.0000 O   0  0  0  0  0  0  0  0  0  0  0  0
  -10.4600    3.9300    0.0000 O   0  0  0  0  0  0  0  0  0  0  0  0
   -9.0300    4.4000    0.0000 Si  0  0  0  0  0  4  0  0  0  0  0  0
  2  1  1  0
  3  2  1  0
  4  3  1  0
  5  4  1  0
  6  5  1  0
  7  6  1  0
 11  8  1  0
 12  9  1  0
 13 10  1  0
 14  7  1  0
 15  8  1  0
 15  9  1  0
 15 10  1  0
 16 11  1  0
 17 12  1  0
 18 13  1  0
 19 14  1  0
 19 16  1  0
 19 17  1  0
 19 18  1  0
M  END
>  <NAME>  (3981) 
1-OCTYLSILATRANE

>  <SYNONYMS>  (3981) 


>  <SPECTRUM TYPE>  (3981) 
MS1

>  <INSTRUMENT TYPE>  (3981) 
EI-B

>  <INSTRUMENT>  (3981) 
JEOL JMS-D-3000

>  <ION MODE>  (3981) 
P

>  <INCHIKEY>  (3981) 
RPEZIKXYNXVEST-UHFFFAOYSA-N

>  <FORMULA>  (3981) 
C14H29NO3Si

>  <EXACT MASS>  (3981) 
287.191670318

>  <MW>  (3981) 
287

>  <ID>  (3981) 
JP005001

>  <CONTRIBUTOR>  (3981) 
University of Tokyo Team, {Faculty of Engineering, University of Tokyo

>  <COMMENT>  (3981) 
SMILES=CCCCCCCC[Si](O2)(O1)OCCN(CC2)CC1
InChI=InChI=1S/C14H29NO3Si/c1-2-3-4-5-6-7-14-19-16-11-8-15(9-12-17-19)10-13-18-19/h2-14H2,1H3
computed SMILES=O1CCN2CCO[Si]1(OCC2)CCCCCCCC
accession=JP005001
date=2016.01.19 (Created 2008.10.21, modified 2011.05.06)
author=MASS SPECTROSCOPY SOC. OF JAPAN (MSSJ)
license=CC BY-NC-SA
exact mass=287.19167
ionization energy=70 eV
ion type=[M]+*
computed spectral entropy=0.8313682186213537
computed normalized entropy=0.39980360205257287
SPLASH=splash10-00di-0900000000-69523157de906a68bd7e
submitter=submitter = University of Tokyo Team (Faculty of Engineering, University of Tokyo)
MoNA Rating=3.75

>  <NUM PEAKS>  (3981) 
8

>  <MASS SPECTRAL PEAKS>  (3981) 
102 1.44
130 2.49
132 1.35
149 1.62
174 99.99
175 12.52
176 4.76
287 1.83

>  <PREDICTED SPECTRUM>  (3981) 
41 5
43 33
55 38
56 69
57 7
58 48
61 19
69 40
70 15
71 9
76 10
77 30
84 1
86 11
89 0
100 45
105 6
108 11
113 29
129 24
130 137
131 70
141 24
172 77
174 999
175 340
176 249
272 18
286 0
287 213
288 55

$$$$

     RDKit          2D

 19 21  0  0  0  0  0  0  0  0999 V2000
   -7.9672   -2.3912    0.0000 C   0  0  0  0  0  0  0  0  0  0  0  0
   -6.6418   -1.6870    0.0000 C   0  0  0  0  0  0  0  0  0  0  0  0
   -9.2403   -1.5963    0.0000 C   0  0  0  0  0  0  0  0  0  0  0  0
   -6.5895   -0.1879    0.0000 C   0  0  0  0  0  0  0  0  0  0  0  0
   -9.1879   -0.0972    0.0000 C   0  0  0  0  0  0  0  0  0  0  0  0
   -7.8102    2.1061    0.0000 C   0  0  0  0  0  0  0  0  0  0  0  0
   -7.6000    6.3600    0.0000 C   0  0  0  0  0  0  0  0  0  0  0  0
  -10.3330    6.2026    0.0000 C   0  0  0  0  0  0  0  0  0  0  0  0
  -10.4600    6.3600    0.0000 C   0  0  0  0  0  0  0  0  0  0  0  0
   -6.7200    5.1500    0.0000 C   0  0  0  0  0  0  0  0  0  0  0  0
  -10.6397    5.1500    0.0000 C   0  0  0  0  0  0  0  0  0  0  0  0
  -11.3400    5.1500    0.0000 C   0  0  0  0  0  0  0  0  0  0  0  0
   -9.0823    2.9009    0.0000 C   0  0  0  0  0  0  0  0  0  0  0  0
   -7.8626    0.6070    0.0000 C   0  0  0  0  0  0  0  0  0  0  0  0
   -9.0300    5.9000    0.0000 N   0  0  0  0  0  0  0  0  0  0  0  0
   -7.6000    3.9300    0.0000 O   0  0  0  0  0  0  0  0  0  0  0  0
  -10.3330    4.0974    0.0000 O   0  0  0  0  0  0  0  0  0  0  0  0
  -10.4600    3.9300    0.0000 O   0  0  0  0  0  0  0  0  0  0  0  0
   -9.0300    4.4000    0.0000 Si  0  0  0  0  0  4  0  0  0  0  0  0
  2  1  2  0
  3  1  1  0
  4  2  1  0
  5  3  1  0
 10  7  1  0
 11  8  1  0
 12  9  1  0
 13  6  1  0
 14  4  1  0
 14  5  1  0
 14  6  1  0
 15  7  1  0
 15  8  1  0
 15  9  1  0
 16 10  1  0
 17 11  1  0
 18 12  1  0
 19 13  1  0
 19 16  1  0
 19 17  1  0
 19 18  1  0
M  END
>  <NAME>  (3982) 
1-(2-(3-CYCLOHEXENYL)ETHYL)SILATRANE

>  <SYNONYMS>  (3982) 


>  <SPECTRUM TYPE>  (3982) 
MS1

>  <INSTRUMENT TYPE>  (3982) 
EI-B

>  <INSTRUMENT>  (3982) 
JEOL JMS-D-3000

>  <ION MODE>  (3982) 
P

>  <INCHIKEY>  (3982) 
CTIDMPCTUFVTFC-UHFFFAOYSA-N

>  <FORMULA>  (3982) 
C14H25NO3Si

>  <EXACT MASS>  (3982) 
283.16037019

>  <MW>  (3982) 
283

>  <ID>  (3982) 
JP005000

>  <CONTRIBUTOR>  (3982) 
University of Tokyo Team, {Faculty of Engineering, University of Tokyo

>  <COMMENT>  (3982) 
SMILES=[H]C(C3)=C([H])CC(C3)CC[Si](O2)(O1)OCCN(CC2)CC1
InChI=InChI=1S/C14H25NO3Si/c1-2-4-14(5-3-1)6-13-19-16-10-7-15(8-11-17-19)9-12-18-19/h1-2,14H,3-13H2
computed SMILES=O1CCN2CCO[Si]1(OCC2)CCC3CC=CCC3
accession=JP005000
date=2016.01.19 (Created 2008.10.21, modified 2011.05.06)
author=MASS SPECTROSCOPY SOC. OF JAPAN (MSSJ)
license=CC BY-NC-SA
exact mass=283.16037
ionization energy=70 eV
ion type=[M]+*
computed spectral entropy=0.944222663231516
computed normalized entropy=0.37998315281263073
SPLASH=splash10-00di-0900000000-14d7daee907d959d59f3
submitter=submitter = University of Tokyo Team (Faculty of Engineering, University of Tokyo)
MoNA Rating=3.75

>  <NUM PEAKS>  (3982) 
12

>  <MASS SPECTRAL PEAKS>  (3982) 
56 1.13
63 1.01
88 1
89 1.15
105 1.02
106 1.26
130 2.77
172 1.23
174 99.99
175 12.67
176 5.21
283 0.45

>  <PREDICTED SPECTRUM>  (3982) 
42 35
49 8
51 29
54 58
55 39
56 88
63 22
64 20
65 52
66 57
67 1
68 7
71 34
73 20
76 3
77 50
78 14
79 35
80 69
89 72
90 6
91 0
94 41
100 62
101 26
104 44
105 19
106 14
109 31
110 13
117 23
118 24
126 10
130 135
131 2
132 11
133 12
152 21
153 3
167 29
169 17
172 3
174 999
175 296
176 172
194 16
283 100
284 51

$$$$

     RDKit          2D

 16 16  0  0  0  0  0  0  0  0999 V2000
    2.2265    2.5893    0.0000 C   0  0  0  0  0  0  0  0  0  0  0  0
   -1.1213    0.8878    0.0000 C   0  0  0  0  0  0  0  0  0  0  0  0
   -1.6700   -1.1613    0.0000 C   0  0  0  0  0  0  0  0  0  0  0  0
    0.3791   -1.7100    0.0000 C   0  0  0  0  0  0  0  0  0  0  0  0
    3.5257    1.8395    0.0000 C   0  0  0  0  0  0  0  0  0  0  0  0
    8.7240    1.8400    0.0000 C   0  0  0  0  0  0  0  0  0  0  0  0
    7.4240    2.5900    0.0000 C   0  0  0  0  0  0  0  0  0  0  0  0
    8.7240    0.3400    0.0000 C   0  0  0  0  0  0  0  0  0  0  0  0
    6.1240    1.8400    0.0000 C   0  0  0  0  0  0  0  0  0  0  0  0
    7.4240   -0.4100    0.0000 C   0  0  0  0  0  0  0  0  0  0  0  0
    2.2270   -0.4107    0.0000 C   0  0  0  0  0  0  0  0  0  0  0  0
    0.9278    0.3391    0.0000 C   0  0  0  0  0  0  0  0  0  0  0  0
    3.5259    0.3395    0.0000 C   0  0  0  0  0  0  0  0  0  0  0  0
    6.1240    0.3400    0.0000 C   0  0  0  0  0  0  0  0  0  0  0  0
    4.8251   -0.4102    0.0000 S   0  0  0  0  0  0  0  0  0  0  0  0
   -0.3711   -0.4111    0.0000 Si  0  0  0  0  0  4  0  0  0  0  0  0
  5  1  1  0
  7  6  2  0
  8  6  1  0
  9  7  1  0
 10  8  2  0
 12 11  1  0
 13  5  1  0
 13 11  1  0
 14  9  2  0
 14 10  1  0
 15 13  1  0
 15 14  1  0
 16  2  1  0
 16  3  1  0
 16  4  1  0
 16 12  1  0
M  END
>  <NAME>  (3983) 
TRIMETHYL(3-PHENYLTHIOPENTYL)SILANE

>  <SYNONYMS>  (3983) 


>  <SPECTRUM TYPE>  (3983) 
MS1

>  <INSTRUMENT TYPE>  (3983) 
EI-B

>  <INSTRUMENT>  (3983) 
JEOL JMS-D-3000

>  <ION MODE>  (3983) 
P

>  <INCHIKEY>  (3983) 
SWCGWXTVPFCQKY-UHFFFAOYSA-N

>  <FORMULA>  (3983) 
C14H24SSi

>  <EXACT MASS>  (3983) 
252.13679829799997

>  <MW>  (3983) 
252

>  <ID>  (3983) 
JP004999

>  <CONTRIBUTOR>  (3983) 
University of Tokyo Team, {Faculty of Engineering, University of Tokyo

>  <COMMENT>  (3983) 
SMILES=CCC(CC[Si](C)(C)C)Sc(c1)cccc1
InChI=InChI=1S/C14H24SSi/c1-5-13(11-12-16(2,3)4)15-14-9-7-6-8-10-14/h6-10,13H,5,11-12H2,1-4H3
computed SMILES=S(C=1C=CC=CC1)C(CC)CC[Si](C)(C)C
accession=JP004999
date=2016.01.19 (Created 2008.10.21, modified 2011.05.06)
author=MASS SPECTROSCOPY SOC. OF JAPAN (MSSJ)
license=CC BY-NC-SA
exact mass=252.1368
ionization energy=70 eV
ion type=[M]+*
computed spectral entropy=2.07871109917662
computed normalized entropy=0.682770825867521
SPLASH=splash10-00di-9200000000-8f0c1e60e032e5f4e71d
submitter=submitter = University of Tokyo Team (Faculty of Engineering, University of Tokyo)
MoNA Rating=3.75

>  <NUM PEAKS>  (3983) 
21

>  <MASS SPECTRAL PEAKS>  (3983) 
42 3.3
43 3.3
45 6.47
51 3.16
55 2.61
59 5.64
69 1.65
73 99.99
74 8.4
75 5.5
77 2.47
99 2.2
109 3.44
110 5.78
119 2.89
151 5.78
167 12.39
169 2.61
182 3.3
237 7.57
252 5.37

>  <PREDICTED SPECTRUM>  (3983) 
29 4
39 42
40 2
41 30
43 81
44 7
45 169
50 17
51 98
52 39
53 47
55 114
59 266
61 24
63 7
65 95
66 27
67 28
69 65
70 64
71 48
73 999
74 263
75 285
76 37
77 76
78 79
79 60
80 17
91 80
93 78
95 60
96 3
105 2
106 1
107 36
108 11
109 133
110 182
111 36
119 61
121 115
122 17
123 4
143 67
151 136
167 443
169 19
179 2
180 20
181 31
182 54
183 68
209 15
211 39
223 23
224 8
237 194
238 71
252 193
253 100
254 33

$$$$

     RDKit          2D

 18 17  0  0  0  0  0  0  0  0999 V2000
    3.3550    6.9390    0.0000 C   0  0  0  0  0  0  0  0  0  0  0  0
  -10.9344    7.6890    0.0000 C   0  0  0  0  0  0  0  0  0  0  0  0
  -10.4429    4.9013    0.0000 C   0  0  0  0  0  0  0  0  0  0  0  0
   -8.0634    4.1199    0.0000 C   0  0  0  0  0  0  0  0  0  0  0  0
    2.0560    7.6890    0.0000 C   0  0  0  0  0  0  0  0  0  0  0  0
   -9.6354    6.9390    0.0000 C   0  0  0  0  0  0  0  0  0  0  0  0
   -9.4787    6.0504    0.0000 C   0  0  0  0  0  0  0  0  0  0  0  0
   -6.5861    4.3803    0.0000 C   0  0  0  0  0  0  0  0  0  0  0  0
    0.7569    6.9390    0.0000 C   0  0  0  0  0  0  0  0  0  0  0  0
   -0.5421    7.6890    0.0000 C   0  0  0  0  0  0  0  0  0  0  0  0
   -1.8411    6.9390    0.0000 C   0  0  0  0  0  0  0  0  0  0  0  0
   -3.1402    7.6890    0.0000 C   0  0  0  0  0  0  0  0  0  0  0  0
   -4.4392    6.9390    0.0000 C   0  0  0  0  0  0  0  0  0  0  0  0
   -5.7383    7.6890    0.0000 C   0  0  0  0  0  0  0  0  0  0  0  0
   -8.3363    7.6890    0.0000 O   0  0  0  0  0  0  0  0  0  0  0  0
   -8.0015    5.7899    0.0000 O   0  0  0  0  0  0  0  0  0  0  0  0
   -6.0731    5.7899    0.0000 O   0  0  0  0  0  0  0  0  0  0  0  0
   -7.0373    6.9390    0.0000 Si  0  0  0  0  0  4  0  0  0  0  0  0
  5  1  1  0
  6  2  1  0
  7  3  1  0
  8  4  1  0
  9  5  1  0
 10  9  1  0
 11 10  1  0
 12 11  1  0
 13 12  1  0
 14 13  1  0
 15  6  1  0
 16  7  1  0
 17  8  1  0
 18 14  1  0
 18 15  1  0
 18 16  1  0
 18 17  1  0
M  END
>  <NAME>  (3984) 
TRIETHOXYOCTYLSILANE

>  <SYNONYMS>  (3984) 


>  <SPECTRUM TYPE>  (3984) 
MS1

>  <INSTRUMENT TYPE>  (3984) 
EI-B

>  <INSTRUMENT>  (3984) 
JEOL JMS-D-3000

>  <ION MODE>  (3984) 
P

>  <INCHIKEY>  (3984) 
MSRJTTSHWYDFIU-UHFFFAOYSA-N

>  <FORMULA>  (3984) 
C14H32O3Si

>  <EXACT MASS>  (3984) 
276.212071414

>  <MW>  (3984) 
276

>  <ID>  (3984) 
JP004998

>  <CONTRIBUTOR>  (3984) 
University of Tokyo Team, {Faculty of Engineering, University of Tokyo

>  <COMMENT>  (3984) 
SMILES=CCCCCCCC[Si](OCC)(OCC)OCC
cas=2943-75-1
InChI=InChI=1S/C14H32O3Si/c1-5-9-10-11-12-13-14-18(15-6-2,16-7-3)17-8-4/h5-14H2,1-4H3
computed SMILES=O(CC)[Si](OCC)(OCC)CCCCCCCC
accession=JP004998
date=2016.01.19 (Created 2008.10.21, modified 2011.05.06)
author=MASS SPECTROSCOPY SOC. OF JAPAN (MSSJ)
license=CC BY-NC-SA
exact mass=276.21207
ionization energy=70 eV
ion type=[M]+*
computed spectral entropy=1.538176610395059
computed normalized entropy=0.5828507752119602
SPLASH=splash10-03di-0900000000-221a37e3aa875b4a302e
submitter=submitter = University of Tokyo Team (Faculty of Engineering, University of Tokyo)
MoNA Rating=3.75

>  <NUM PEAKS>  (3984) 
14

>  <MASS SPECTRAL PEAKS>  (3984) 
63 3.95
73 1.3
79 4.17
91 3.56
107 2.92
119 15.82
120 1.52
135 4.33
149 3.9
163 99.99
164 12.6
165 4.85
231 1.81
276 1.85

>  <PREDICTED SPECTRUM>  (3984) 
15 4
26 31
27 91
28 90
29 196
30 4
31 36
39 87
40 8
41 196
42 14
43 98
44 9
45 121
47 78
50 3
51 51
53 54
54 20
55 100
56 68
57 110
58 24
59 37
61 40
62 60
63 130
64 17
65 70
67 4
69 89
71 32
73 16
74 18
75 147
76 54
77 231
78 63
79 246
80 50
81 65
82 31
83 86
85 59
88 62
89 166
90 86
91 220
92 55
93 46
94 16
95 5
97 52
102 20
103 16
104 2
105 65
107 176
108 1
111 45
113 5
114 6
115 4
116 24
117 144
118 217
119 584
120 154
121 100
122 6
123 55
131 50
133 96
134 46
135 229
136 47
137 37
147 158
148 116
149 187
150 76
159 74
163 999
164 300
165 210
166 36
167 0
191 54
215 6
231 165
232 101
261 39
262 17
275 25
276 31

$$$$

     RDKit          2D

 14 13  0  0  0  0  0  0  0  0999 V2000
  -11.2796    6.0368    0.0000 C   0  0  0  0  0  0  0  0  0  0  0  0
    2.4608    4.7377    0.0000 C   0  0  0  0  0  0  0  0  0  0  0  0
    3.0099    6.7868    0.0000 C   0  0  0  0  0  0  0  0  0  0  0  0
    0.9608    7.3358    0.0000 C   0  0  0  0  0  0  0  0  0  0  0  0
   -9.9805    5.2868    0.0000 C   0  0  0  0  0  0  0  0  0  0  0  0
   -8.6815    6.0368    0.0000 C   0  0  0  0  0  0  0  0  0  0  0  0
   -7.3825    5.2868    0.0000 C   0  0  0  0  0  0  0  0  0  0  0  0
   -6.0834    6.0368    0.0000 C   0  0  0  0  0  0  0  0  0  0  0  0
   -4.7844    5.2868    0.0000 C   0  0  0  0  0  0  0  0  0  0  0  0
   -3.4853    6.0368    0.0000 C   0  0  0  0  0  0  0  0  0  0  0  0
   -2.1863    5.2868    0.0000 C   0  0  0  0  0  0  0  0  0  0  0  0
   -0.8873    6.0368    0.0000 C   0  0  0  0  0  0  0  0  0  0  0  0
    0.4118    5.2868    0.0000 C   0  0  0  0  0  0  0  0  0  0  0  0
    1.7108    6.0368    0.0000 Si  0  0  0  0  0  4  0  0  0  0  0  0
  5  1  1  0
  6  5  1  0
  7  6  1  0
  8  7  1  0
  9  8  1  0
 10  9  1  0
 10 11  2  0
 12 11  1  0
 13 12  1  0
 14  2  1  0
 14  3  1  0
 14  4  1  0
 14 13  1  0
M  END
>  <NAME>  (3985) 
3-DECENYLTRIMETHYLSILANE

>  <SYNONYMS>  (3985) 


>  <SPECTRUM TYPE>  (3985) 
MS1

>  <INSTRUMENT TYPE>  (3985) 
EI-B

>  <INSTRUMENT>  (3985) 
JEOL JMS-D-3000

>  <ION MODE>  (3985) 
P

>  <INCHIKEY>  (3985) 
CXYBIESMEVGOIP-ZHACJKMWSA-N

>  <FORMULA>  (3985) 
C13H28Si

>  <EXACT MASS>  (3985) 
212.196027426

>  <MW>  (3985) 
212

>  <ID>  (3985) 
JP004997

>  <CONTRIBUTOR>  (3985) 
University of Tokyo Team, {Faculty of Engineering, University of Tokyo

>  <COMMENT>  (3985) 
SMILES=CCCCCCC=CCC[Si](C)(C)C
InChI=InChI=1S/C13H28Si/c1-5-6-7-8-9-10-11-12-13-14(2,3)4/h10-11H,5-9,12-13H2,1-4H3/b11-10+
computed SMILES=C(=CCC[Si](C)(C)C)CCCCCC
accession=JP004997
date=2016.01.19 (Created 2008.10.21, modified 2011.05.06)
author=MASS SPECTROSCOPY SOC. OF JAPAN (MSSJ)
license=CC BY-NC-SA
exact mass=212.19603
ionization energy=70 eV
ion type=[M]+*
computed spectral entropy=1.876577932134126
computed normalized entropy=0.5984951024947225
SPLASH=splash10-00di-9100000000-a8a9fdf8d289ad61ff14
submitter=submitter = University of Tokyo Team (Faculty of Engineering, University of Tokyo)
MoNA Rating=3.75

>  <NUM PEAKS>  (3985) 
23

>  <MASS SPECTRAL PEAKS>  (3985) 
42 2.16
45 3.25
59 10.04
72 1.66
73 99.99
74 8.17
75 4.44
80 1.18
85 1.26
99 6.24
113 2.45
114 1.03
127 2.47
129 1.6
138 1.81
159 9.67
160 1.32
169 1.87
174 2.16
177 2.73
197 3.04
212 3.72
213 1.03

>  <PREDICTED SPECTRUM>  (3985) 
27 10
29 3
41 17
43 89
44 15
45 85
53 3
55 79
57 15
59 267
60 15
66 2
67 59
68 17
69 92
70 22
71 4
72 60
73 999
74 250
75 208
83 48
85 80
86 10
95 7
97 16
99 111
109 17
111 6
112 14
113 96
114 13
122 7
127 74
128 11
129 113
141 76
142 6
155 75
169 41
197 135
198 14
212 189
213 53

$$$$

     RDKit          2D

  8  8  0  0  0  0  0  0  0  0999 V2000
    2.5961    1.5170    0.0000 C   0  0  0  0  0  0  0  0  0  0  0  0
    0.0113    1.4940    0.0000 C   0  0  0  0  0  0  0  0  0  0  0  0
    1.3063   -0.7490    0.0000 C   0  0  0  0  0  0  0  0  0  0  0  0
   -1.2877    0.7440    0.0000 C   0  0  0  0  0  0  0  0  0  0  0  0
    0.0073   -1.4990    0.0000 C   0  0  0  0  0  0  0  0  0  0  0  0
    1.3009    0.7605    0.0000 C   0  0  0  0  0  0  0  0  0  0  0  0
   -1.3059   -0.7445    0.0000 C   0  0  0  0  0  0  0  0  0  0  0  0
   -2.6087   -1.4879    0.0000 Cl  0  0  0  0  0  0  0  0  0  0  0  0
  4  2  2  0
  5  3  1  0
  6  1  1  0
  6  2  1  0
  6  3  2  0
  7  4  1  0
  7  5  2  0
  8  7  1  0
M  END
>  <NAME>  (3986) 
P-CHLOROTOLUENE

>  <SYNONYMS>  (3986) 
1-CHLORO-4-METHYLBENZENE

>  <SPECTRUM TYPE>  (3986) 
MS1

>  <INSTRUMENT TYPE>  (3986) 
EI-B

>  <INSTRUMENT>  (3986) 
JEOL JMS-D-3000

>  <ION MODE>  (3986) 
P

>  <INCHIKEY>  (3986) 
NPDACUSDTOMAMK-UHFFFAOYSA-N

>  <FORMULA>  (3986) 
C7H7Cl

>  <EXACT MASS>  (3986) 
126.023627904

>  <MW>  (3986) 
126

>  <ID>  (3986) 
JP004996

>  <CONTRIBUTOR>  (3986) 
University of Tokyo Team, {Faculty of Engineering, University of Tokyo

>  <COMMENT>  (3986) 
SMILES=Cc(c1)ccc(Cl)c1
cas=106-43-4
InChI=InChI=1S/C7H7Cl/c1-6-2-4-7(8)5-3-6/h2-5H,1H3
computed SMILES=ClC1=CC=C(C=C1)C
accession=JP004996
date=2016.01.19 (Created 2008.10.21, modified 2011.05.06)
author=MASS SPECTROSCOPY SOC. OF JAPAN (MSSJ)
license=CC BY-NC-SA
exact mass=126.02363
ionization energy=70 eV
ion type=[M]+*
computed spectral entropy=2.1912883738062305
computed normalized entropy=0.6988653854546755
SPLASH=splash10-002f-9400000000-da4d4e7fa2dc673e749c
submitter=submitter = University of Tokyo Team (Faculty of Engineering, University of Tokyo)
MoNA Rating=3.75

>  <NUM PEAKS>  (3986) 
23

>  <MASS SPECTRAL PEAKS>  (3986) 
43 1.92
44 1.5
45 7.05
50 3.27
51 3.12
61 1.42
62 3.12
63 8.98
64 1.85
65 7.51
73 2.27
74 1.34
75 2.15
89 7.36
90 2.73
91 99.99
92 7.67
99 2.23
125 16.19
126 39.2
127 8.13
128 12.02
129 1

>  <PREDICTED SPECTRUM>  (3986) 
14 8
15 11
25 8
26 41
27 24
35 41
36 30
37 92
38 144
39 233
49 30
50 174
51 263
52 13
60 47
61 115
62 175
63 330
64 97
65 326
72 5
73 70
74 45
75 134
76 87
86 113
89 422
90 241
91 999
92 237
99 111
100 50
101 102
111 75
124 158
125 341
126 584
127 303
128 466
129 57

$$$$

     RDKit          2D

  8  8  0  0  0  0  0  0  0  0999 V2000
    2.5967    1.1340    0.0000 C   0  0  0  0  0  0  0  0  0  0  0  0
   -0.0000   -1.8800    0.0000 C   0  0  0  0  0  0  0  0  0  0  0  0
    1.3000   -1.1200    0.0000 C   0  0  0  0  0  0  0  0  0  0  0  0
   -1.3000   -1.1200    0.0000 C   0  0  0  0  0  0  0  0  0  0  0  0
   -0.0000    1.1200    0.0000 C   0  0  0  0  0  0  0  0  0  0  0  0
    1.3000    0.3800    0.0000 C   0  0  0  0  0  0  0  0  0  0  0  0
   -1.3000    0.3800    0.0000 C   0  0  0  0  0  0  0  0  0  0  0  0
   -2.5967    1.1340    0.0000 Cl  0  0  0  0  0  0  0  0  0  0  0  0
  3  2  2  0
  4  2  1  0
  6  1  1  0
  6  3  1  0
  6  5  2  0
  7  4  2  0
  7  5  1  0
  8  7  1  0
M  END
>  <NAME>  (3987) 
M-CHLOROTOLUENE

>  <SYNONYMS>  (3987) 


>  <SPECTRUM TYPE>  (3987) 
MS1

>  <INSTRUMENT TYPE>  (3987) 
EI-B

>  <INSTRUMENT>  (3987) 
JEOL JMS-D-3000

>  <ION MODE>  (3987) 
P

>  <INCHIKEY>  (3987) 
OSOUNOBYRMOXQQ-UHFFFAOYSA-N

>  <FORMULA>  (3987) 
C7H7Cl

>  <EXACT MASS>  (3987) 
126.023627904

>  <MW>  (3987) 
126

>  <ID>  (3987) 
JP004995

>  <CONTRIBUTOR>  (3987) 
University of Tokyo Team, {Faculty of Engineering, University of Tokyo

>  <COMMENT>  (3987) 
SMILES=Cc(c1)cc(Cl)cc1
cas=108-41-8
InChI=InChI=1S/C7H7Cl/c1-6-3-2-4-7(8)5-6/h2-5H,1H3
computed SMILES=ClC1=CC=CC(=C1)C
accession=JP004995
date=2016.01.19 (Created 2008.10.21, modified 2011.05.06)
author=MASS SPECTROSCOPY SOC. OF JAPAN (MSSJ)
license=CC BY-NC-SA
exact mass=126.02363
ionization energy=70 eV
ion type=[M]+*
computed spectral entropy=2.197084723952627
computed normalized entropy=0.7007140095461981
SPLASH=splash10-002f-9400000000-c49525ddb410ce828d26
submitter=submitter = University of Tokyo Team (Faculty of Engineering, University of Tokyo)
MoNA Rating=3.75

>  <NUM PEAKS>  (3987) 
23

>  <MASS SPECTRAL PEAKS>  (3987) 
43 1.58
44 1.77
45 7.61
50 3.31
51 3.49
61 1.58
62 3.44
63 9.38
64 2.07
65 8.2
73 2.17
74 1.14
75 2.31
89 7.96
90 2.73
91 99.99
92 7.87
99 2.22
125 12.23
126 41.39
127 7.17
128 13.46
129 1.01

>  <PREDICTED SPECTRUM>  (3987) 
14 31
15 93
17 7
18 17
25 23
26 98
27 152
28 59
31 30
33 5
34 7
35 79
36 73
37 143
38 205
39 331
40 77
41 30
44 26
47 62
48 66
49 118
50 277
51 334
52 185
53 49
54 24
56 11
57 32
58 90
60 111
61 222
62 250
63 364
64 179
65 284
66 56
70 12
71 15
72 117
73 186
74 152
75 195
76 157
83 24
84 80
85 118
86 177
87 110
88 25
89 421
90 238
91 999
92 252
93 24
99 194
100 85
101 14
111 134
112 15
113 58
124 30
125 350
126 572
127 317
128 470
129 105

$$$$

     RDKit          2D

  8  8  0  0  0  0  0  0  0  0999 V2000
   -4.7860    0.7500    0.0000 C   0  0  0  0  0  0  0  0  0  0  0  0
    0.0000    1.5000    0.0000 C   0  0  0  0  0  0  0  0  0  0  0  0
    0.0000    0.0000    0.0000 C   0  0  0  0  0  0  0  0  0  0  0  0
   -1.1727    2.4352    0.0000 C   0  0  0  0  0  0  0  0  0  0  0  0
   -1.1727   -0.9352    0.0000 C   0  0  0  0  0  0  0  0  0  0  0  0
   -2.6351    2.1015    0.0000 C   0  0  0  0  0  0  0  0  0  0  0  0
   -2.6351   -0.6015    0.0000 C   0  0  0  0  0  0  0  0  0  0  0  0
   -3.2860    0.7500    0.0000 B   0  0  0  0  0  0  0  0  0  0  0  0
  3  2  2  0
  4  2  1  0
  5  3  1  0
  6  4  2  0
  7  5  2  0
  8  1  1  0
  8  6  1  0
  8  7  1  0
M  END
>  <NAME>  (3988) 
1-METHYL-1-BORACYCLOHEPTA-2,4,6-TRIENE

>  <SYNONYMS>  (3988) 


>  <SPECTRUM TYPE>  (3988) 
MS1

>  <INSTRUMENT TYPE>  (3988) 
EI-B

>  <INSTRUMENT>  (3988) 
JEOL JMS-D-3000

>  <ION MODE>  (3988) 
P

>  <INCHIKEY>  (3988) 
METKHXNXRUJTPV-UHFFFAOYSA-N

>  <FORMULA>  (3988) 
C7H9B

>  <EXACT MASS>  (3988) 
104.079730688

>  <MW>  (3988) 
104

>  <ID>  (3988) 
JP004994

>  <CONTRIBUTOR>  (3988) 
University of Tokyo Team, {Faculty of Engineering, University of Tokyo

>  <COMMENT>  (3988) 
SMILES=[H]C(=C([H])1)C([H])=C([H])[B](C)C([H])=C([H])1
InChI=InChI=1S/C7H9B/c1-8-6-4-2-3-5-7-8/h2-7H,1H3
computed SMILES=C1=CC=CB(C=C1)C
accession=JP004994
author=MASS SPECTROSCOPY SOC. OF JAPAN (MSSJ)
date=2016.01.19 (Created 2008.10.21, modified 2011.05.06)
license=CC BY-NC-SA
exact mass=104.07973
ionization energy=70 eV
ion type=[M]+*
computed spectral entropy=2.6925412202041263
computed normalized entropy=0.816952212646495
SPLASH=splash10-0udi-9700000000-5e4d8990377d0bd3f113
submitter=submitter = University of Tokyo Team (Faculty of Engineering, University of Tokyo)
MoNA Rating=3.75

>  <NUM PEAKS>  (3988) 
27

>  <MASS SPECTRAL PEAKS>  (3988) 
43 2.08
44 3.02
45 3.95
49 1.66
50 13.22
51 17.6
52 9.16
61 6.97
62 3.75
63 12.5
69 3.64
73 3.02
74 4.89
75 4.68
76 8.95
77 17.29
78 29.58
79 6.35
86 1.56
87 8.22
88 7.39
89 28.12
101 3.43
102 24.68
103 99.99
104 27.91
105 3.54

>  <PREDICTED SPECTRUM>  (3988) 
25 24
26 136
27 290
28 104
29 52
36 31
37 107
38 132
39 148
40 90
41 166
42 88
43 91
44 42
45 69
46 75
47 13
48 30
49 112
50 344
51 608
52 311
53 172
54 114
55 44
56 17
57 30
60 2
61 175
62 182
63 254
64 124
65 160
69 12
71 73
72 16
73 107
74 232
75 211
76 280
77 455
78 467
79 197
85 15
86 76
87 147
88 157
89 456
90 132
99 34
100 6
101 245
102 450
103 999
104 693
105 195

$$$$

     RDKit          2D

 12 12  0  0  0  0  0  0  0  0999 V2000
   -2.5989   -1.5002    0.0000 C   0  0  0  0  0  0  0  0  0  0  0  0
    5.1970    1.5006    0.0000 C   0  0  0  0  0  0  0  0  0  0  0  0
    3.8976    3.7504    0.0000 C   0  0  0  0  0  0  0  0  0  0  0  0
   -1.3000    0.7500    0.0000 C   0  0  0  0  0  0  0  0  0  0  0  0
   -0.0000   -1.5000    0.0000 C   0  0  0  0  0  0  0  0  0  0  0  0
    0.0000    1.5000    0.0000 C   0  0  0  0  0  0  0  0  0  0  0  0
    1.3000   -0.7500    0.0000 C   0  0  0  0  0  0  0  0  0  0  0  0
   -1.3000   -0.7500    0.0000 C   0  0  0  0  0  0  0  0  0  0  0  0
    1.3000    0.7500    0.0000 C   0  0  0  0  0  0  0  0  0  0  0  0
    2.5989    1.5002    0.0000 C   0  0  0  0  0  0  0  0  0  0  0  0
    3.8981    0.7504    0.0000 O   0  0  0  0  0  0  0  0  0  0  0  0
    2.5987    3.0002    0.0000 O   0  0  0  0  0  0  0  0  0  0  0  0
  6  4  2  0
  7  5  1  0
  8  1  1  0
  8  4  1  0
  8  5  2  0
  9  6  1  0
  9  7  2  0
 10  9  1  0
 11  2  1  0
 11 10  1  0
 12  3  1  0
 12 10  1  0
M  END
>  <NAME>  (3989) 
P-TOLUALDEHYDE DIMETHYLACETAL

>  <SYNONYMS>  (3989) 


>  <SPECTRUM TYPE>  (3989) 
MS1

>  <INSTRUMENT TYPE>  (3989) 
EI-B

>  <INSTRUMENT>  (3989) 
JEOL JMS-D-3000

>  <ION MODE>  (3989) 
P

>  <INCHIKEY>  (3989) 
MKZGLAOLSFUPRT-UHFFFAOYSA-N

>  <FORMULA>  (3989) 
C10H14O2

>  <EXACT MASS>  (3989) 
166.099379688

>  <MW>  (3989) 
166

>  <ID>  (3989) 
JP004989

>  <CONTRIBUTOR>  (3989) 
University of Tokyo Team, {Faculty of Engineering, University of Tokyo

>  <COMMENT>  (3989) 
SMILES=COC(OC)c(c1)ccc(C)c1
cas=3395-83-3
InChI=InChI=1S/C10H14O2/c1-8-4-6-9(7-5-8)10(11-2)12-3/h4-7,10H,1-3H3
computed SMILES=O(C)C(OC)C1=CC=C(C=C1)C
accession=JP004989
date=2016.01.19 (Created 2008.10.21, modified 2011.05.06)
author=MASS SPECTROSCOPY SOC. OF JAPAN (MSSJ)
license=CC BY-NC-SA
exact mass=166.09938
ionization energy=70 eV
ion type=[M]+*
computed spectral entropy=1.9304181984639348
computed normalized entropy=0.634062726733401
SPLASH=splash10-000i-4900000000-1dc8523d33d3e53f1779
submitter=submitter = University of Tokyo Team (Faculty of Engineering, University of Tokyo)
MoNA Rating=3.75

>  <NUM PEAKS>  (3989) 
21

>  <MASS SPECTRAL PEAKS>  (3989) 
47 1.78
50 1
51 2.41
59 3.31
63 2.33
65 6.67
74 1.21
75 10.17
77 1.81
79 1.75
89 1.69
90 0.92
91 23.14
92 3.01
105 3.55
119 12.13
120 3.83
135 99.99
136 10.21
165 1.03
166 3.14

>  <PREDICTED SPECTRUM>  (3989) 
15 39
27 11
29 41
30 17
31 77
32 21
38 8
39 96
45 9
50 59
51 141
52 63
53 36
59 137
61 5
63 68
65 185
66 45
74 12
75 166
77 172
78 23
89 128
90 34
91 351
92 111
103 61
104 21
105 237
119 275
120 206
121 85
135 999
136 274
137 29
165 1
166 175
167 21

$$$$

     RDKit          2D

 11 11  0  0  0  0  0  0  0  0999 V2000
   -4.8712    2.0071    0.0000 C   0  0  0  0  0  0  0  0  0  0  0  0
   -0.9740    4.2571    0.0000 C   0  0  0  0  0  0  0  0  0  0  0  0
   -3.5721    2.7571    0.0000 C   0  0  0  0  0  0  0  0  0  0  0  0
    2.9231    0.5071    0.0000 C   0  0  0  0  0  0  0  0  0  0  0  0
    1.6236   -0.2437    0.0000 C   0  0  0  0  0  0  0  0  0  0  0  0
    2.9236    2.0079    0.0000 C   0  0  0  0  0  0  0  0  0  0  0  0
    0.3245    0.5063    0.0000 C   0  0  0  0  0  0  0  0  0  0  0  0
    1.6245    2.7579    0.0000 C   0  0  0  0  0  0  0  0  0  0  0  0
   -2.2731    2.0071    0.0000 C   0  0  0  0  0  0  0  0  0  0  0  0
    0.3250    2.0071    0.0000 C   0  0  0  0  0  0  0  0  0  0  0  0
   -0.9740    2.7571    0.0000 N   0  0  0  0  0  0  0  0  0  0  0  0
  3  1  2  0
  5  4  2  0
  6  4  1  0
  7  5  1  0
  8  6  2  0
  9  3  1  0
 10  7  2  0
 10  8  1  0
 11  2  1  0
 11  9  1  0
 11 10  1  0
M  END
>  <NAME>  (3990) 
N-ALLYL-N-METHYLANILINE

>  <SYNONYMS>  (3990) 


>  <SPECTRUM TYPE>  (3990) 
MS1

>  <INSTRUMENT TYPE>  (3990) 
EI-B

>  <INSTRUMENT>  (3990) 
JEOL JMS-D-3000

>  <ION MODE>  (3990) 
P

>  <INCHIKEY>  (3990) 
WJYIMFNLIJXFMX-UHFFFAOYSA-N

>  <FORMULA>  (3990) 
C10H13N

>  <EXACT MASS>  (3990) 
147.104799416

>  <MW>  (3990) 
147

>  <ID>  (3990) 
JP004988

>  <CONTRIBUTOR>  (3990) 
University of Tokyo Team, {Faculty of Engineering, University of Tokyo

>  <COMMENT>  (3990) 
SMILES=C=CCN(C)c(c1)cccc1
cas=6628-07-5
InChI=InChI=1S/C10H13N/c1-3-9-11(2)10-7-5-4-6-8-10/h3-8H,1,9H2,2H3
computed SMILES=C=CCN(C=1C=CC=CC1)C
accession=JP004988
date=2016.01.19 (Created 2008.10.21, modified 2011.05.06)
author=MASS SPECTROSCOPY SOC. OF JAPAN (MSSJ)
license=CC BY-NC-SA
exact mass=147.1048
ionization energy=70 eV
ion type=[M]+*
computed spectral entropy=2.8076948711810195
computed normalized entropy=0.7464890951869182
SPLASH=splash10-006t-2900000000-242c0d8f7a53af7ccdf5
submitter=submitter = University of Tokyo Team (Faculty of Engineering, University of Tokyo)
MoNA Rating=3.75

>  <NUM PEAKS>  (3990) 
43

>  <MASS SPECTRAL PEAKS>  (3990) 
42 10.17
50 2.05
51 9.75
52 1.84
56 1.53
63 1.87
64 1.27
65 2.95
66 1.56
68 0.85
70 3.17
72 0.85
73 3.14
74 1.77
75 0.85
76 1.11
77 29.75
78 5.32
79 5.06
91 9.65
92 1.77
93 0.87
103 2.53
104 15.05
105 14.51
106 8.23
107 1.27
115 1.01
117 3.9
118 4.52
119 1.51
120 99.99
121 9.37
129 1.65
130 7.85
131 7.43
132 11.17
133 1.23
144 4.11
145 1.25
146 28.33
147 73.29
148 8.68

>  <PREDICTED SPECTRUM>  (3990) 
26 23
27 115
28 57
29 25
30 19
37 9
38 60
39 220
40 58
41 196
42 205
43 106
44 69
49 2
50 133
51 282
52 119
53 64
54 82
55 74
56 90
57 7
62 55
63 158
64 111
65 253
66 87
67 42
68 9
70 47
74 61
75 80
76 106
77 498
78 238
79 168
89 89
90 56
91 286
92 209
93 131
94 54
102 12
103 150
104 318
105 258
106 306
107 158
108 20
115 102
116 82
117 193
118 249
119 174
120 999
121 322
122 44
128 14
129 82
130 279
131 246
132 409
133 145
144 146
145 62
146 421
147 718
148 258
149 67

$$$$

     RDKit          2D

 13 13  0  0  0  0  0  0  0  0999 V2000
    5.1970    1.5006    0.0000 C   0  0  0  0  0  0  0  0  0  0  0  0
    3.8976    3.7504    0.0000 C   0  0  0  0  0  0  0  0  0  0  0  0
   -1.3000    0.7500    0.0000 C   0  0  0  0  0  0  0  0  0  0  0  0
   -0.0000   -1.5000    0.0000 C   0  0  0  0  0  0  0  0  0  0  0  0
    0.0000    1.5000    0.0000 C   0  0  0  0  0  0  0  0  0  0  0  0
    1.3000   -0.7500    0.0000 C   0  0  0  0  0  0  0  0  0  0  0  0
   -2.5989   -1.5002    0.0000 C   0  0  0  0  0  0  0  0  0  0  0  0
   -1.3000   -0.7500    0.0000 C   0  0  0  0  0  0  0  0  0  0  0  0
    1.3000    0.7500    0.0000 C   0  0  0  0  0  0  0  0  0  0  0  0
    2.5989    1.5002    0.0000 C   0  0  0  0  0  0  0  0  0  0  0  0
   -3.8978   -2.2504    0.0000 N   0  0  0  0  0  0  0  0  0  0  0  0
    3.8981    0.7504    0.0000 O   0  0  0  0  0  0  0  0  0  0  0  0
    2.5987    3.0002    0.0000 O   0  0  0  0  0  0  0  0  0  0  0  0
  5  3  2  0
  6  4  1  0
  8  3  1  0
  8  4  2  0
  8  7  1  0
  9  5  1  0
  9  6  2  0
 10  9  1  0
 11  7  3  0
 12  1  1  0
 12 10  1  0
 13  2  1  0
 13 10  1  0
M  END
>  <NAME>  (3991) 
P-CYANOBENZALDEHYDE DIMETHYLACETAL

>  <SYNONYMS>  (3991) 


>  <SPECTRUM TYPE>  (3991) 
MS1

>  <INSTRUMENT TYPE>  (3991) 
EI-B

>  <INSTRUMENT>  (3991) 
JEOL JMS-D-3000

>  <ION MODE>  (3991) 
P

>  <INCHIKEY>  (3991) 
KAIKLOZUJNGBNP-UHFFFAOYSA-N

>  <FORMULA>  (3991) 
C10H11NO2

>  <EXACT MASS>  (3991) 
177.078978592

>  <MW>  (3991) 
177

>  <ID>  (3991) 
JP004987

>  <CONTRIBUTOR>  (3991) 
University of Tokyo Team, {Faculty of Engineering, University of Tokyo

>  <COMMENT>  (3991) 
SMILES=N#Cc(c1)ccc(c1)C(OC)OC
InChI=InChI=1S/C10H11NO2/c1-12-10(13-2)9-5-3-8(7-11)4-6-9/h3-6,10H,1-2H3
computed SMILES=N#CC1=CC=C(C=C1)C(OC)OC
accession=JP004987
date=2016.01.19 (Created 2008.10.21, modified 2011.05.06)
author=MASS SPECTROSCOPY SOC. OF JAPAN (MSSJ)
license=CC BY-NC-SA
exact mass=177.07898
ionization energy=70 eV
ion type=[M]+*
computed spectral entropy=1.7468070614860534
computed normalized entropy=0.5737540442606324
SPLASH=splash10-0002-1900000000-ad0fe4754b872ecf4203
submitter=submitter = University of Tokyo Team (Faculty of Engineering, University of Tokyo)
MoNA Rating=3.75

>  <NUM PEAKS>  (3991) 
21

>  <MASS SPECTRAL PEAKS>  (3991) 
47 0.95
50 1.47
51 1.93
59 1.74
74 1.36
75 7.86
76 2.89
77 1.06
89 1
91 3.65
102 8.93
103 1.69
116 6.32
117 1.81
118 2.14
130 8.33
131 1.79
146 99.99
147 10.81
176 1.26
177 0.98

>  <PREDICTED SPECTRUM>  (3991) 
14 16
15 64
16 10
26 15
27 74
28 61
29 146
30 125
31 107
32 4
33 3
37 19
38 59
39 78
40 33
42 14
44 36
45 57
50 136
51 178
52 92
53 43
54 1
59 116
60 9
61 32
62 70
63 82
64 36
65 10
74 93
75 226
76 126
77 218
78 16
87 4
88 97
89 105
90 89
91 38
100 72
101 138
102 261
103 200
104 23
105 23
116 184
117 71
118 92
119 78
130 166
131 241
132 95
146 999
147 292
148 22
177 181
178 33

$$$$

     RDKit          2D

  8  7  0  0  0  0  0  0  0  0999 V2000
   -4.2219    2.8125    0.0000 C   0  0  0  0  0  0  0  0  0  0  0  0
   -1.0748    0.7635    0.0000 C   0  0  0  0  0  0  0  0  0  0  0  0
    0.9743    1.3125    0.0000 C   0  0  0  0  0  0  0  0  0  0  0  0
    0.4252    3.3615    0.0000 C   0  0  0  0  0  0  0  0  0  0  0  0
   -2.9228    2.0625    0.0000 C   0  0  0  0  0  0  0  0  0  0  0  0
   -1.6238    2.8125    0.0000 C   0  0  0  0  0  0  0  0  0  0  0  0
   -1.6238    4.3125    0.0000 Br  0  0  0  0  0  0  0  0  0  0  0  0
   -0.3248    2.0625    0.0000 Si  0  0  0  0  0  4  0  0  0  0  0  0
  5  1  2  0
  6  5  1  0
  7  6  1  0
  8  2  1  0
  8  3  1  0
  8  4  1  0
  8  6  1  0
M  END
>  <NAME>  (3992) 
ALPHA-BROMOALLYLTRIMETHYLSILANE

>  <SYNONYMS>  (3992) 


>  <SPECTRUM TYPE>  (3992) 
MS1

>  <INSTRUMENT TYPE>  (3992) 
EI-B

>  <INSTRUMENT>  (3992) 
JEOL JMS-D-3000

>  <ION MODE>  (3992) 
P

>  <INCHIKEY>  (3992) 
CNCUFOZUVQDEDC-UHFFFAOYSA-N

>  <FORMULA>  (3992) 
C6H13BrSi

>  <EXACT MASS>  (3992) 
191.99698904599998

>  <MW>  (3992) 
192

>  <ID>  (3992) 
JP004985

>  <CONTRIBUTOR>  (3992) 
University of Tokyo Team, {Faculty of Engineering, University of Tokyo

>  <COMMENT>  (3992) 
SMILES=C=CC(Br)[Si](C)(C)C
cas=94397-40-7
InChI=InChI=1S/C6H13BrSi/c1-5-6(7)8(2,3)4/h5-6H,1H2,2-4H3
computed SMILES=BrC(C=C)[Si](C)(C)C
accession=JP004985
date=2016.01.19 (Created 2008.10.21, modified 2011.05.06)
author=MASS SPECTROSCOPY SOC. OF JAPAN (MSSJ)
license=CC BY-NC-SA
exact mass=191.99699
ionization energy=70 eV
ion type=[M]+*
computed spectral entropy=2.11875308900111
computed normalized entropy=0.6959229673424355
SPLASH=splash10-00di-9000000000-7dca1bd30cac344bd741
submitter=submitter = University of Tokyo Team (Faculty of Engineering, University of Tokyo)
MoNA Rating=3.75

>  <NUM PEAKS>  (3992) 
21

>  <MASS SPECTRAL PEAKS>  (3992) 
41 2.64
43 31.85
45 26.37
46 1.11
58 12.69
59 32.9
60 1.27
73 99.99
74 29.23
75 3.6
93 1.64
97 5.84
98 0.99
113 3.29
123 2.76
125 2.64
133 1.8
149 3.23
151 3.73
192 1.21
194 1.71

>  <PREDICTED SPECTRUM>  (3992) 
26 7
27 62
29 1
38 9
39 143
40 25
41 160
42 28
43 244
44 34
45 343
50 24
51 81
52 32
53 162
54 30
55 132
56 46
57 224
58 237
59 308
60 38
61 1
65 1
67 106
69 9
71 86
72 286
73 999
74 325
85 61
86 20
91 19
93 21
97 75
99 20
111 41
112 5
113 178
114 8
121 20
123 116
125 79
137 224
139 210
149 29
151 30
165 48
177 122
179 81
192 69
193 6
194 100

$$$$

     RDKit          2D

 14 14  0  0  0  0  0  0  0  0999 V2000
   -4.4962    5.4556    0.0000 C   0  0  0  0  0  0  0  0  0  0  0  0
   -6.5452    4.9066    0.0000 C   0  0  0  0  0  0  0  0  0  0  0  0
   -5.9962    2.8576    0.0000 C   0  0  0  0  0  0  0  0  0  0  0  0
    3.8471    1.9066    0.0000 C   0  0  0  0  0  0  0  0  0  0  0  0
    3.8476    3.4074    0.0000 C   0  0  0  0  0  0  0  0  0  0  0  0
    2.5476    1.1558    0.0000 C   0  0  0  0  0  0  0  0  0  0  0  0
   -1.3490    3.4066    0.0000 C   0  0  0  0  0  0  0  0  0  0  0  0
   -2.6481    4.1566    0.0000 C   0  0  0  0  0  0  0  0  0  0  0  0
    2.5486    4.1574    0.0000 C   0  0  0  0  0  0  0  0  0  0  0  0
    1.2486    1.9058    0.0000 C   0  0  0  0  0  0  0  0  0  0  0  0
   -0.0500    4.1566    0.0000 C   0  0  0  0  0  0  0  0  0  0  0  0
   -3.9471    3.4066    0.0000 C   0  0  0  0  0  0  0  0  0  0  0  0
    1.2490    3.4066    0.0000 C   0  0  0  0  0  0  0  0  0  0  0  0
   -5.2462    4.1566    0.0000 Si  0  0  0  0  0  4  0  0  0  0  0  0
  5  4  2  0
  6  4  1  0
  8  7  1  0
  9  5  1  0
 10  6  2  0
  7 11  2  0
 12  8  1  0
 13  9  2  0
 13 10  1  0
 13 11  1  0
 14  1  1  0
 14  2  1  0
 14  3  1  0
 14 12  1  0
M  END
>  <NAME>  (3993) 
(4-PHENYL-3-BUTENYL)TRIMETHYLSILANE

>  <SYNONYMS>  (3993) 
1-PHENYL-4-TRIMETHYLSILYL-1-BUTENE

>  <SPECTRUM TYPE>  (3993) 
MS1

>  <INSTRUMENT TYPE>  (3993) 
EI-B

>  <INSTRUMENT>  (3993) 
JEOL JMS-D-3000

>  <ION MODE>  (3993) 
P

>  <INCHIKEY>  (3993) 
ZVCCRJYTBSOWGI-YRNVUSSQSA-N

>  <FORMULA>  (3993) 
C13H20Si

>  <EXACT MASS>  (3993) 
204.13342717

>  <MW>  (3993) 
204

>  <ID>  (3993) 
JP004984

>  <CONTRIBUTOR>  (3993) 
University of Tokyo Team, {Faculty of Engineering, University of Tokyo

>  <COMMENT>  (3993) 
SMILES=c(c1)ccc(c1)C=CCC[Si](C)(C)C
InChI=InChI=1S/C13H20Si/c1-14(2,3)12-8-7-11-13-9-5-4-6-10-13/h4-7,9-11H,8,12H2,1-3H3/b11-7+
computed SMILES=C=1C=CC(=CC1)C=CCC[Si](C)(C)C
accession=JP004984
date=2016.01.19 (Created 2008.10.21, modified 2011.05.06)
author=MASS SPECTROSCOPY SOC. OF JAPAN (MSSJ)
license=CC BY-NC-SA
exact mass=204.13343
ionization energy=70 eV
ion type=[M]+*
computed spectral entropy=2.3176295671567133
computed normalized entropy=0.6955244073644372
SPLASH=splash10-00di-9300000000-571f9934d6f211fb7832
submitter=submitter = University of Tokyo Team (Faculty of Engineering, University of Tokyo)
MoNA Rating=3.75

>  <NUM PEAKS>  (3993) 
28

>  <MASS SPECTRAL PEAKS>  (3993) 
43 2.97
44 7.18
45 5.88
51 1.28
58 1.11
59 10.29
72 1.47
73 99.99
74 8.89
75 4.54
77 1.34
91 2.72
104 2.97
105 1.16
115 4.6
116 1.22
117 3.22
121 1.2
128 2.49
129 4.67
130 23.73
131 3.02
135 4.02
145 1.78
161 5.73
189 2.43
204 13.51
205 2.79

>  <PREDICTED SPECTRUM>  (3993) 
29 10
31 30
39 4
43 70
44 54
45 233
46 45
47 11
51 33
52 4
53 18
55 23
57 57
58 102
59 175
60 43
61 4
63 7
65 23
67 5
71 23
72 112
73 999
74 298
75 243
76 19
77 63
78 63
85 48
89 21
91 122
92 23
102 39
103 68
104 61
105 2
115 207
116 120
117 196
118 48
121 46
127 42
128 88
129 274
130 313
131 125
132 12
135 95
145 14
147 55
148 52
149 10
161 72
162 25
189 146
190 55
204 310
205 124
206 39

$$$$

     RDKit          2D

 14 14  0  0  0  0  0  0  0  0999 V2000
   -4.4962    5.4556    0.0000 C   0  0  0  0  0  0  0  0  0  0  0  0
   -6.5452    4.9066    0.0000 C   0  0  0  0  0  0  0  0  0  0  0  0
   -5.9962    2.8576    0.0000 C   0  0  0  0  0  0  0  0  0  0  0  0
    3.8471    1.9066    0.0000 C   0  0  0  0  0  0  0  0  0  0  0  0
    3.8476    3.4074    0.0000 C   0  0  0  0  0  0  0  0  0  0  0  0
    2.5476    1.1558    0.0000 C   0  0  0  0  0  0  0  0  0  0  0  0
   -1.3490    3.4066    0.0000 C   0  0  0  0  0  0  0  0  0  0  0  0
   -2.6481    4.1566    0.0000 C   0  0  0  0  0  0  0  0  0  0  0  0
    2.5486    4.1574    0.0000 C   0  0  0  0  0  0  0  0  0  0  0  0
    1.2486    1.9058    0.0000 C   0  0  0  0  0  0  0  0  0  0  0  0
   -0.0500    4.1566    0.0000 C   0  0  0  0  0  0  0  0  0  0  0  0
   -3.9471    3.4066    0.0000 C   0  0  0  0  0  0  0  0  0  0  0  0
    1.2490    3.4066    0.0000 C   0  0  0  0  0  0  0  0  0  0  0  0
   -5.2462    4.1566    0.0000 Si  0  0  0  0  0  4  0  0  0  0  0  0
  5  4  2  0
  6  4  1  0
  7  8  2  0
  9  5  1  0
 10  6  2  0
 11  7  1  0
 12  8  1  0
 13  9  2  0
 13 10  1  0
 13 11  1  0
 14  1  1  0
 14  2  1  0
 14  3  1  0
 14 12  1  0
M  END
>  <NAME>  (3994) 
(4-PHENYL-2-BUTENYL)TRIMETHYLSILANE

>  <SYNONYMS>  (3994) 
1-PHENYL-4-TRIMETHYLSILYL-2-BUTENE

>  <SPECTRUM TYPE>  (3994) 
MS1

>  <INSTRUMENT TYPE>  (3994) 
EI-B

>  <INSTRUMENT>  (3994) 
JEOL JMS-D-3000

>  <ION MODE>  (3994) 
P

>  <INCHIKEY>  (3994) 
SPZMUNLMWTULJC-BQYQJAHWSA-N

>  <FORMULA>  (3994) 
C13H20Si

>  <EXACT MASS>  (3994) 
204.13342717

>  <MW>  (3994) 
204

>  <ID>  (3994) 
JP004983

>  <CONTRIBUTOR>  (3994) 
University of Tokyo Team, {Faculty of Engineering, University of Tokyo

>  <COMMENT>  (3994) 
SMILES=c(c1)ccc(c1)CC=CC[Si](C)(C)C
InChI=InChI=1S/C13H20Si/c1-14(2,3)12-8-7-11-13-9-5-4-6-10-13/h4-10H,11-12H2,1-3H3/b8-7+
computed SMILES=C=1C=CC(=CC1)CC=CC[Si](C)(C)C
accession=JP004983
date=2016.01.19 (Created 2008.10.21, modified 2011.05.06)
author=MASS SPECTROSCOPY SOC. OF JAPAN (MSSJ)
license=CC BY-NC-SA
exact mass=204.13343
ionization energy=70 eV
ion type=[M]+*
computed spectral entropy=1.7833285539191852
computed normalized entropy=0.6056598783460063
SPLASH=splash10-00di-9100000000-5462a3e25cde805ff9c6
submitter=submitter = University of Tokyo Team (Faculty of Engineering, University of Tokyo)
MoNA Rating=3.75

>  <NUM PEAKS>  (3994) 
19

>  <MASS SPECTRAL PEAKS>  (3994) 
43 2.31
45 6.29
59 7.14
65 1.21
73 99.99
74 8.49
75 4.27
77 1.24
91 3.21
115 1.83
128 1.71
129 2.67
130 12.66
131 1.63
135 3.76
161 2.23
189 1.12
204 9.38
205 1.94

>  <PREDICTED SPECTRUM>  (3994) 
27 57
28 15
29 16
31 67
39 58
41 2
43 108
44 90
45 292
46 52
51 74
52 15
53 38
57 4
58 94
59 245
60 29
65 111
66 76
72 55
73 999
74 271
75 201
76 16
77 59
78 50
85 71
91 162
92 126
93 2
97 21
99 58
104 7
105 7
115 97
116 76
118 2
121 7
129 69
130 256
131 91
132 30
133 5
135 268
136 66
137 115
189 100
190 58
204 245
205 88
206 9

$$$$

     RDKit          2D

 17 17  0  0  0  0  0  0  0  0999 V2000
   -4.4962    5.4556    0.0000 C   0  0  0  0  0  0  0  0  0  0  0  0
   -6.5452    4.9066    0.0000 C   0  0  0  0  0  0  0  0  0  0  0  0
   -5.9962    2.8576    0.0000 C   0  0  0  0  0  0  0  0  0  0  0  0
    3.8471    1.9066    0.0000 C   0  0  0  0  0  0  0  0  0  0  0  0
    3.8476    3.4074    0.0000 C   0  0  0  0  0  0  0  0  0  0  0  0
    2.5476    1.1558    0.0000 C   0  0  0  0  0  0  0  0  0  0  0  0
    2.5486    4.1574    0.0000 C   0  0  0  0  0  0  0  0  0  0  0  0
    1.2486    1.9058    0.0000 C   0  0  0  0  0  0  0  0  0  0  0  0
   -0.0500    4.1566    0.0000 C   0  0  0  0  0  0  0  0  0  0  0  0
   -1.3490    3.4066    0.0000 C   0  0  0  0  0  0  0  0  0  0  0  0
    1.2490    3.4066    0.0000 C   0  0  0  0  0  0  0  0  0  0  0  0
   -2.6481    4.1566    0.0000 C   0  0  0  0  0  0  0  0  0  0  0  0
   -3.9471    3.4066    0.0000 C   0  0  0  0  0  0  0  0  0  0  0  0
   -4.9113    2.2575    0.0000 Cl  0  0  0  0  0  0  0  0  0  0  0  0
   -2.9829    2.2575    0.0000 Cl  0  0  0  0  0  0  0  0  0  0  0  0
   -2.6481    5.6566    0.0000 O   0  0  0  0  0  0  0  0  0  0  0  0
   -5.2462    4.1566    0.0000 Si  0  0  0  0  0  4  0  0  0  0  0  0
  5  4  2  0
  6  4  1  0
  7  5  1  0
  8  6  2  0
 10  9  1  0
 11  7  2  0
 11  8  1  0
 11  9  1  0
 12 10  1  0
 13 12  1  0
 14 13  1  0
 15 13  1  0
 16 12  1  0
 17  1  1  0
 17  2  1  0
 17  3  1  0
 17 13  1  0
M  END
>  <NAME>  (3995) 
1,1-DICHLORO-4-PHENYL-1-TRIMETHYLSILYL-2-BUTANOL

>  <SYNONYMS>  (3995) 


>  <SPECTRUM TYPE>  (3995) 
MS1

>  <INSTRUMENT TYPE>  (3995) 
EI-B

>  <INSTRUMENT>  (3995) 
JEOL JMS-D-3000

>  <ION MODE>  (3995) 
P

>  <INCHIKEY>  (3995) 
CNMYGWLCQSBOOX-UHFFFAOYSA-N

>  <FORMULA>  (3995) 
C13H20Cl2OSi

>  <EXACT MASS>  (3995) 
290.06604715000003

>  <MW>  (3995) 
290

>  <ID>  (3995) 
JP004982

>  <CONTRIBUTOR>  (3995) 
University of Tokyo Team, {Faculty of Engineering, University of Tokyo

>  <COMMENT>  (3995) 
SMILES=c(c1)ccc(c1)CCC(O)C(Cl)(Cl)[Si](C)(C)C
InChI=InChI=1S/C13H20Cl2OSi/c1-17(2,3)13(14,15)12(16)10-9-11-7-5-4-6-8-11/h4-8,12,16H,9-10H2,1-3H3
computed SMILES=ClC(Cl)(C(O)CCC=1C=CC=CC1)[Si](C)(C)C
accession=JP004982
date=2016.01.19 (Created 2008.10.21, modified 2011.05.06)
author=MASS SPECTROSCOPY SOC. OF JAPAN (MSSJ)
license=CC BY-NC-SA
exact mass=290.06605
ionization energy=70 eV
ion type=[M]+*
computed spectral entropy=2.7776578374932064
computed normalized entropy=0.8088725065327252
SPLASH=splash10-004l-8930000000-9ff99bb7635893c5bb1e
submitter=submitter = University of Tokyo Team (Faculty of Engineering, University of Tokyo)
MoNA Rating=3.75

>  <NUM PEAKS>  (3995) 
31

>  <MASS SPECTRAL PEAKS>  (3995) 
45 12.24
59 3.14
72 3.9
73 91.32
74 5.46
75 12.42
91 99.99
93 31.14
95 3.72
103 3.9
104 37.89
117 35.62
123 8.33
125 72.87
126 4.23
127 21.5
129 90.17
130 6.85
165 11.46
185 2.75
200 28.06
201 4.28
202 17.9
203 3.9
204 3.45
207 20.67
208 4.55
239 13.7
241 4.76
254 1.37
290 0.45

>  <PREDICTED SPECTRUM>  (3995) 
29 107
39 71
41 37
43 154
44 19
45 429
46 15
47 42
49 49
50 2
51 142
52 33
53 65
55 116
58 42
59 94
60 14
61 1
63 177
65 307
67 51
69 63
70 17
71 32
72 92
73 999
74 211
75 364
76 56
77 195
78 137
79 199
81 66
83 157
84 69
85 16
89 135
90 49
91 997
92 323
93 676
94 37
95 235
101 10
102 113
103 255
104 466
105 188
106 31
110 37
111 61
113 23
115 134
117 577
118 124
119 81
121 100
123 78
125 391
126 129
127 266
128 77
129 537
130 302
131 35
132 25
133 31
135 64
139 22
141 74
143 30
147 61
148 10
150 60
156 12
157 19
158 89
165 226
166 16
167 68
171 135
183 83
185 139
200 406
201 254
202 312
203 37
204 87
207 521
208 276
209 49
211 23
223 77
237 44
239 406
241 189
257 11
275 93
277 1
290 83
292 44

$$$$

     RDKit          2D

 14 10  0  0  0  0  0  0  0  0999 V2000
   -1.6700   -0.9602    0.0000 C   0  0  0  0  0  3  0  0  0  0  0  0
   -0.3708   -1.7100    0.0000 C   0  0  0  0  0  0  0  0  0  0  0  0
    6.1262    0.5406    0.0000 C   0  0  0  0  0  0  0  0  0  0  0  0
    4.8262    1.2906    0.0000 C   0  0  0  0  0  0  0  0  0  0  0  0
    6.1262   -0.9594    0.0000 C   0  0  0  0  0  0  0  0  0  0  0  0
    3.5262    0.5406    0.0000 C   0  0  0  0  0  0  0  0  0  0  0  0
    4.8262   -1.7094    0.0000 C   0  0  0  0  0  0  0  0  0  0  0  0
    0.9281   -0.9598    0.0000 C   0  0  0  0  0  0  0  0  0  0  0  0
    3.5262   -0.9594    0.0000 C   0  0  0  0  0  0  0  0  0  0  0  0
    2.2272   -1.7096    0.0000 S   0  0  0  0  0  0  0  0  0  0  0  0
    0.0000    0.0000    0.0000 C   0  0  0  0  0  3  0  0  0  0  0  0
    0.0000    0.0000    0.0000 C   0  0  0  0  0  3  0  0  0  0  0  0
    0.0000    0.0000    0.0000 C   0  0  0  0  0  3  0  0  0  0  0  0
    0.0000    0.0000    0.0000 Sn  0  0  0  0  0 15  0  0  0  0  0  0
  2  1  1  0
  4  3  2  0
  5  3  1  0
  6  4  1  0
  7  5  2  0
  8  2  1  0
  9  6  2  0
  9  7  1  0
 10  8  1  0
 10  9  1  0
M  RAD  4   1   2  11   2  12   2  13   2
M  END
>  <NAME>  (3996) 
PHENYL-3-TRIMETHYLSTANNYLPROPYL SULFIDE

>  <SYNONYMS>  (3996) 
1-PHENYLTHIO-3-TRIMETHYLSTANNYLPROPANE

>  <SPECTRUM TYPE>  (3996) 
MS1

>  <INSTRUMENT TYPE>  (3996) 
EI-B

>  <INSTRUMENT>  (3996) 
JEOL JMS-D-3000

>  <ION MODE>  (3996) 
P

>  <INCHIKEY>  (3996) 
HMJQOLXJRJTWPL-UHFFFAOYSA-N

>  <FORMULA>  (3996) 
C12H20SSn

>  <EXACT MASS>  (3996) 
316.03076634

>  <MW>  (3996) 
316

>  <ID>  (3996) 
JP004979

>  <CONTRIBUTOR>  (3996) 
University of Tokyo Team, {Faculty of Engineering, University of Tokyo

>  <COMMENT>  (3996) 
SMILES=c(c1)ccc(c1)SCCC[Sn](C)(C)C
InChI=InChI=1S/C9H11S.3CH3.Sn/c1-2-8-10-9-6-4-3-5-7-9;;;;/h3-7H,1-2,8H2;3*1H3;
computed SMILES=[Sn].S(C=1C=CC=CC1)CC[CH2].[CH3].[CH3].[CH3]
accession=JP004979
date=2016.01.19 (Created 2008.10.21, modified 2011.05.06)
author=MASS SPECTROSCOPY SOC. OF JAPAN (MSSJ)
license=CC BY-NC-SA
exact mass=316.03077
ionization energy=70 eV
ion type=[M]+*
computed spectral entropy=3.1810735000271833
computed normalized entropy=0.9546453377376666
SPLASH=splash10-0zfs-1794000000-bdaaeffa0497d36e43a1
submitter=submitter = University of Tokyo Team (Faculty of Engineering, University of Tokyo)
MoNA Rating=3.75

>  <NUM PEAKS>  (3996) 
28

>  <MASS SPECTRAL PEAKS>  (3996) 
45 24.78
77 40.59
91 16.66
109 16.23
123 27.35
131 17.94
133 30.34
135 41.45
150 28.2
162 16.23
163 53.41
164 21.79
165 66.66
227 19.23
229 26.92
255 31.62
256 22.22
257 54.27
258 23.93
259 76.49
297 44.01
298 28.63
299 72.22
300 35.47
301 99.99
302 17.94
303 19.23
305 18.8

>  <PREDICTED SPECTRUM>  (3996) 
14 0
15 0
18 5
25 23
26 88
27 160
28 65
29 133
32 39
34 5
36 6
37 50
38 136
39 433
40 91
41 279
42 160
43 30
44 59
45 486
46 92
47 144
49 35
50 214
51 416
52 111
53 137
54 7
56 22
57 224
58 308
59 89
60 101
61 26
62 73
63 113
64 27
65 431
66 226
67 69
69 160
71 103
72 12
73 47
74 107
75 90
76 38
77 423
78 189
79 247
80 5
81 96
83 47
84 86
85 94
86 3
89 5
91 216
92 37
95 33
96 70
97 228
98 93
99 51
103 16
104 41
105 188
106 10
108 40
109 484
110 447
115 75
116 25
117 54
118 24
119 32
121 49
123 999
125 135
126 81
128 13
129 168
130 65
131 114
137 60
138 35
147 9
160 49
161 77
162 82
163 142
164 74
165 34
166 26
176 18
178 138
179 311
180 102
188 59
189 131
190 133
191 198
192 7
193 187
194 62
195 29
197 74
198 40
199 167
206 215
207 802
208 203
209 7
212 42
239 103
240 5
283 95
316 558
317 137
318 125

$$$$

     RDKit          2D

 14 14  0  0  0  0  0  0  0  0999 V2000
   -1.1213    0.8878    0.0000 C   0  0  0  0  0  0  0  0  0  0  0  0
   -1.6700   -1.1613    0.0000 C   0  0  0  0  0  0  0  0  0  0  0  0
    0.3791   -1.7100    0.0000 C   0  0  0  0  0  0  0  0  0  0  0  0
    8.7240    1.8400    0.0000 C   0  0  0  0  0  0  0  0  0  0  0  0
    7.4240    2.5900    0.0000 C   0  0  0  0  0  0  0  0  0  0  0  0
    8.7240    0.3400    0.0000 C   0  0  0  0  0  0  0  0  0  0  0  0
    2.2270   -0.4107    0.0000 C   0  0  0  0  0  0  0  0  0  0  0  0
    6.1240    1.8400    0.0000 C   0  0  0  0  0  0  0  0  0  0  0  0
    7.4240   -0.4100    0.0000 C   0  0  0  0  0  0  0  0  0  0  0  0
    3.5259    0.3395    0.0000 C   0  0  0  0  0  0  0  0  0  0  0  0
    0.9278    0.3391    0.0000 C   0  0  0  0  0  0  0  0  0  0  0  0
    6.1240    0.3400    0.0000 C   0  0  0  0  0  0  0  0  0  0  0  0
    4.8251   -0.4102    0.0000 S   0  0  0  0  0  0  0  0  0  0  0  0
   -0.3711   -0.4111    0.0000 Si  0  0  0  0  0  4  0  0  0  0  0  0
  5  4  2  0
  6  4  1  0
  8  5  1  0
  9  6  2  0
 10  7  1  0
 11  7  1  0
 12  8  2  0
 12  9  1  0
 13 10  1  0
 13 12  1  0
 14  1  1  0
 14  2  1  0
 14  3  1  0
 14 11  1  0
M  END
>  <NAME>  (3997) 
(3-PHENYLTHIOPROPYL)TRIMETHYLSILANE

>  <SYNONYMS>  (3997) 
PHENYL-3-TRIMETHYLSILYLPROPYL SULFIDE

>  <SPECTRUM TYPE>  (3997) 
MS1

>  <INSTRUMENT TYPE>  (3997) 
EI-B

>  <INSTRUMENT>  (3997) 
JEOL JMS-D-3000

>  <ION MODE>  (3997) 
P

>  <INCHIKEY>  (3997) 
LOBCIEZDGYXMPV-UHFFFAOYSA-N

>  <FORMULA>  (3997) 
C12H20SSi

>  <EXACT MASS>  (3997) 
224.10549817

>  <MW>  (3997) 
224

>  <ID>  (3997) 
JP004978

>  <CONTRIBUTOR>  (3997) 
University of Tokyo Team, {Faculty of Engineering, University of Tokyo

>  <COMMENT>  (3997) 
SMILES=C[Si](C)(C)CCCSc(c1)cccc1
InChI=InChI=1S/C12H20SSi/c1-14(2,3)11-7-10-13-12-8-5-4-6-9-12/h4-6,8-9H,7,10-11H2,1-3H3
computed SMILES=S(C=1C=CC=CC1)CCC[Si](C)(C)C
accession=JP004978
date=2016.01.19 (Created 2008.10.21, modified 2011.05.06)
author=MASS SPECTROSCOPY SOC. OF JAPAN (MSSJ)
license=CC BY-NC-SA
exact mass=224.1055
ionization energy=70 eV
ion type=[M]+*
computed spectral entropy=2.5308838637524054
computed normalized entropy=0.7679032569414438
SPLASH=splash10-00di-9340000000-07fb862d683e941564a2
submitter=submitter = University of Tokyo Team (Faculty of Engineering, University of Tokyo)
MoNA Rating=3.75

>  <NUM PEAKS>  (3997) 
27

>  <MASS SPECTRAL PEAKS>  (3997) 
42 2.8
43 5.07
44 3.29
45 14.1
51 3.14
59 7.96
65 2.84
72 3.33
73 99.99
74 9.02
75 5.34
77 5.07
91 5
109 3.67
110 3.41
118 5.45
151 5.87
167 32.25
168 4.51
169 3.03
181 2.95
182 5.87
209 55.87
210 10.46
211 5.61
224 14.29
225 3.03

>  <PREDICTED SPECTRUM>  (3997) 
27 105
28 22
29 159
31 50
38 15
39 153
40 37
41 153
42 65
43 251
44 136
45 371
46 44
47 120
50 73
51 161
52 44
53 66
55 16
57 18
58 52
59 311
60 19
61 37
63 44
65 130
66 73
67 4
69 87
70 28
73 999
74 263
75 298
76 51
77 236
78 128
79 27
82 49
83 30
84 21
85 61
86 20
90 4
91 142
93 85
94 3
97 2
99 9
102 12
105 77
106 42
107 4
108 39
109 238
110 201
111 12
115 141
117 44
118 0
119 69
121 46
123 140
124 9
135 64
136 72
137 118
138 29
139 53
150 33
151 215
152 86
165 9
166 31
167 531
168 275
169 49
181 201
182 45
183 53
209 698
210 330
211 217
212 88
224 351
225 159
226 111

$$$$

     RDKit          2D

 16 16  0  0  0  0  0  0  0  0999 V2000
    6.4962   -0.7508    0.0000 C   0  0  0  0  0  0  0  0  0  0  0  0
    1.1830   -5.2077    0.0000 C   0  0  0  0  0  0  0  0  0  0  0  0
    6.0042   -3.5384    0.0000 C   0  0  0  0  0  0  0  0  0  0  0  0
    5.1970   -1.5006    0.0000 C   0  0  0  0  0  0  0  0  0  0  0  0
    2.1474   -4.0587    0.0000 C   0  0  0  0  0  0  0  0  0  0  0  0
    5.0402   -2.3892    0.0000 C   0  0  0  0  0  0  0  0  0  0  0  0
   -1.3000    0.7500    0.0000 C   0  0  0  0  0  0  0  0  0  0  0  0
    0.0000    1.5000    0.0000 C   0  0  0  0  0  0  0  0  0  0  0  0
   -1.3000   -0.7500    0.0000 C   0  0  0  0  0  0  0  0  0  0  0  0
    1.3000    0.7500    0.0000 C   0  0  0  0  0  0  0  0  0  0  0  0
    0.0000   -1.5000    0.0000 C   0  0  0  0  0  0  0  0  0  0  0  0
    1.3000   -0.7500    0.0000 C   0  0  0  0  0  0  0  0  0  0  0  0
    3.8981   -0.7504    0.0000 O   0  0  0  0  0  0  0  0  0  0  0  0
    1.6346   -2.6491    0.0000 O   0  0  0  0  0  0  0  0  0  0  0  0
    3.5629   -2.6494    0.0000 O   0  0  0  0  0  0  0  0  0  0  0  0
    2.5989   -1.5002    0.0000 Si  0  0  0  0  0  4  0  0  0  0  0  0
  4  1  1  0
  5  2  1  0
  6  3  1  0
  8  7  2  0
  9  7  1  0
 10  8  1  0
 11  9  2  0
 12 10  2  0
 12 11  1  0
 13  4  1  0
 14  5  1  0
 15  6  1  0
 16 12  1  0
 16 13  1  0
 16 14  1  0
 16 15  1  0
M  END
>  <NAME>  (3998) 
PHENYLTRIETHOXYSILANE

>  <SYNONYMS>  (3998) 


>  <SPECTRUM TYPE>  (3998) 
MS1

>  <INSTRUMENT TYPE>  (3998) 
EI-B

>  <INSTRUMENT>  (3998) 
JEOL JMS-D-3000

>  <ION MODE>  (3998) 
P

>  <INCHIKEY>  (3998) 
JCVQKRGIASEUKR-UHFFFAOYSA-N

>  <FORMULA>  (3998) 
C12H20O3Si

>  <EXACT MASS>  (3998) 
240.11817102999998

>  <MW>  (3998) 
240

>  <ID>  (3998) 
JP004977

>  <CONTRIBUTOR>  (3998) 
University of Tokyo Team, {Faculty of Engineering, University of Tokyo

>  <COMMENT>  (3998) 
SMILES=CCO[Si](OCC)(OCC)c(c1)cccc1
InChI=InChI=1S/C12H20O3Si/c1-4-13-16(14-5-2,15-6-3)12-10-8-7-9-11-12/h7-11H,4-6H2,1-3H3
computed SMILES=O(CC)[Si](OCC)(OCC)C=1C=CC=CC1
accession=JP004977
date=2016.01.19 (Created 2008.10.21, modified 2011.05.06)
author=MASS SPECTROSCOPY SOC. OF JAPAN (MSSJ)
license=CC BY-NC-SA
exact mass=240.11817
ionization energy=70 eV
ion type=[M]+*
computed spectral entropy=2.698392792586467
computed normalized entropy=0.916436989076395
SPLASH=splash10-0002-1900000000-9329b6347a07770a8650
submitter=submitter = University of Tokyo Team (Faculty of Engineering, University of Tokyo)
MoNA Rating=3.75

>  <NUM PEAKS>  (3998) 
19

>  <MASS SPECTRAL PEAKS>  (3998) 
45 17.63
77 13.55
79 12.16
91 15.01
105 11.74
118 22.03
119 30.02
121 10.64
123 18.08
135 36.55
139 33.77
147 99.99
151 24.65
162 65.9
163 16.53
181 16.62
195 67.06
196 13.55
240 31.38

>  <PREDICTED SPECTRUM>  (3998) 
15 1
25 2
26 92
27 273
28 103
29 435
30 104
31 216
37 18
38 64
39 251
40 19
41 125
42 35
43 341
44 128
45 752
46 127
47 183
49 26
50 299
51 441
52 190
53 169
55 14
58 25
59 140
61 60
62 245
63 492
64 215
65 450
66 198
67 3
69 196
73 108
74 50
75 69
76 164
77 784
78 493
79 783
80 207
81 193
87 59
88 30
89 231
90 157
91 913
92 481
93 338
94 162
95 16
97 66
102 160
103 308
104 398
105 719
106 181
107 712
108 178
109 106
115 79
117 301
118 228
119 891
120 498
121 728
122 374
123 572
124 151
125 288
126 48
127 260
128 62
130 43
131 310
133 337
134 318
135 878
136 340
137 775
138 67
139 608
140 105
141 132
145 235
147 502
148 381
149 401
150 349
151 535
152 257
153 454
154 78
155 67
161 230
162 475
163 521
164 281
165 346
166 171
167 192
168 184
169 40
176 68
177 166
178 178
179 346
180 33
181 465
182 136
183 45
193 35
194 298
195 999
196 561
197 281
223 195
238 43
239 255
240 253
241 112

$$$$

     RDKit          2D

 13 14  0  0  0  0  0  0  0  0999 V2000
   -4.5601    3.7189    0.0000 C   0  0  0  0  0  0  0  0  0  0  0  0
   -5.1095    1.6699    0.0000 C   0  0  0  0  0  0  0  0  0  0  0  0
   -3.0605    1.1206    0.0000 C   0  0  0  0  0  0  0  0  0  0  0  0
    2.8868    0.9190    0.0000 C   0  0  0  0  0  0  0  0  0  0  0  0
    2.8873    2.4199    0.0000 C   0  0  0  0  0  0  0  0  0  0  0  0
    1.5873    0.1682    0.0000 C   0  0  0  0  0  0  0  0  0  0  0  0
    1.5883    3.1699    0.0000 C   0  0  0  0  0  0  0  0  0  0  0  0
    0.2883    0.9182    0.0000 C   0  0  0  0  0  0  0  0  0  0  0  0
   -1.7611    4.4685    0.0000 C   0  0  0  0  0  0  0  0  0  0  0  0
    0.2887    2.4190    0.0000 C   0  0  0  0  0  0  0  0  0  0  0  0
   -1.0103    3.1690    0.0000 C   0  0  0  0  0  0  0  0  0  0  0  0
   -2.5111    3.1695    0.0000 C   0  0  0  0  0  0  0  0  0  0  0  0
   -3.8103    2.4197    0.0000 Si  0  0  0  0  0  4  0  0  0  0  0  0
  5  4  2  0
  6  4  1  0
  7  5  1  0
  8  6  2  0
 10  7  2  0
 10  8  1  0
 11  9  1  0
 11 10  1  0
 12  9  1  0
 12 11  1  0
 13  1  1  0
 13  2  1  0
 13  3  1  0
 13 12  1  0
M  END
>  <NAME>  (3999) 
1-PHENYL-2-TRIMETHYLSILYLCYCLOPROPANE

>  <SYNONYMS>  (3999) 


>  <SPECTRUM TYPE>  (3999) 
MS1

>  <INSTRUMENT TYPE>  (3999) 
EI-B

>  <INSTRUMENT>  (3999) 
JEOL JMS-D-3000

>  <ION MODE>  (3999) 
P

>  <INCHIKEY>  (3999) 
YGQICJZACGXFSO-UHFFFAOYSA-N

>  <FORMULA>  (3999) 
C12H18Si

>  <EXACT MASS>  (3999) 
190.117777106

>  <MW>  (3999) 
190

>  <ID>  (3999) 
JP004976

>  <CONTRIBUTOR>  (3999) 
University of Tokyo Team, {Faculty of Engineering, University of Tokyo

>  <COMMENT>  (3999) 
SMILES=c(c2)ccc(c2)C(C1)C1[Si](C)(C)C
InChI=InChI=1S/C12H18Si/c1-13(2,3)12-9-11(12)10-7-5-4-6-8-10/h4-8,11-12H,9H2,1-3H3
computed SMILES=C=1C=CC(=CC1)C2CC2[Si](C)(C)C
accession=JP004976
computed spectral entropy=1.3443794060590322
date=2016.01.19 (Created 2008.10.21, modified 2011.05.06)
author=MASS SPECTROSCOPY SOC. OF JAPAN (MSSJ)
license=CC BY-NC-SA
exact mass=190.11778
ionization energy=70 eV
ion type=[M]+*
computed normalized entropy=0.49643814044209855
SPLASH=splash10-00di-9100000000-3ed7d49df69c617571d0
submitter=submitter = University of Tokyo Team (Faculty of Engineering, University of Tokyo)
MoNA Rating=3.75

>  <NUM PEAKS>  (3999) 
15

>  <MASS SPECTRAL PEAKS>  (3999) 
45 3.75
59 6.13
65 1
72 1.31
73 99.99
74 8.82
75 1.59
115 2.56
121 1.62
135 1.59
145 1.08
159 1.18
175 3.29
190 8.51
191 2.19

>  <PREDICTED SPECTRUM>  (3999) 
27 4
29 20
31 13
43 147
44 96
45 302
46 46
47 30
51 45
52 14
53 41
55 60
57 43
58 82
59 271
60 50
71 21
72 45
73 999
74 259
75 230
76 16
77 71
78 65
79 15
85 67
91 66
93 27
97 60
102 37
103 63
104 50
105 83
115 83
116 209
117 91
118 5
135 137
136 51
145 28
147 102
175 172
176 44
177 10
189 47
190 309
191 132
192 47

$$$$

     RDKit          2D

 16 16  0  0  0  0  0  0  0  0999 V2000
   -2.7838    3.3492    0.0000 C   0  0  0  0  0  0  0  0  0  0  0  0
   -0.2218    0.9887    0.0000 C   0  0  0  0  0  0  0  0  0  0  0  0
    0.3273   -1.0603    0.0000 C   0  0  0  0  0  0  0  0  0  0  0  0
   -1.7218   -1.6094    0.0000 C   0  0  0  0  0  0  0  0  0  0  0  0
    1.6263    4.1897    0.0000 C   0  0  0  0  0  0  0  0  0  0  0  0
    0.3268    4.9405    0.0000 C   0  0  0  0  0  0  0  0  0  0  0  0
    1.6268    2.6888    0.0000 C   0  0  0  0  0  0  0  0  0  0  0  0
   -0.9722    4.1905    0.0000 C   0  0  0  0  0  0  0  0  0  0  0  0
    0.3278    1.9388    0.0000 C   0  0  0  0  0  0  0  0  0  0  0  0
   -0.9718    2.6897    0.0000 C   0  0  0  0  0  0  0  0  0  0  0  0
   -3.7480    1.6792    0.0000 C   0  0  0  0  0  0  0  0  0  0  0  0
   -2.2708    1.9397    0.0000 C   0  0  0  0  0  0  0  0  0  0  0  0
   -4.2610    0.2696    0.0000 Cl  0  0  0  0  0  0  0  0  0  0  0  0
   -4.7122    2.8282    0.0000 Cl  0  0  0  0  0  0  0  0  0  0  0  0
   -2.2708    0.4397    0.0000 O   0  0  0  0  0  0  0  0  0  0  0  0
   -0.9718   -0.3103    0.0000 Si  0  0  0  0  0  4  0  0  0  0  0  0
  6  5  2  0
  7  5  1  0
  8  6  1  0
  9  7  2  0
 10  8  2  0
 10  9  1  0
 12  1  1  0
 12 10  1  0
 12 11  1  0
 13 11  1  0
 14 11  1  0
 15 12  1  0
 16  2  1  0
 16  3  1  0
 16  4  1  0
 16 15  1  0
M  END
>  <NAME>  (4000) 
1,1-DICHLORO-2-PHENYL-2-TRIMETHYLSILOXYPROPANE

>  <SYNONYMS>  (4000) 


>  <SPECTRUM TYPE>  (4000) 
MS1

>  <INSTRUMENT TYPE>  (4000) 
EI-B

>  <INSTRUMENT>  (4000) 
JEOL JMS-D-3000

>  <ION MODE>  (4000) 
P

>  <INCHIKEY>  (4000) 
VMXRBRRRVHEDKG-UHFFFAOYSA-N

>  <FORMULA>  (4000) 
C12H18Cl2OSi

>  <EXACT MASS>  (4000) 
276.050397086

>  <MW>  (4000) 
276

>  <ID>  (4000) 
JP004975

>  <CONTRIBUTOR>  (4000) 
University of Tokyo Team, {Faculty of Engineering, University of Tokyo

>  <COMMENT>  (4000) 
SMILES=c(c1)ccc(c1)C(C)(C(Cl)Cl)O[Si](C)(C)C
InChI=InChI=1S/C12H18Cl2OSi/c1-12(11(13)14,15-16(2,3)4)10-8-6-5-7-9-10/h5-9,11H,1-4H3
computed SMILES=ClC(Cl)C(O[Si](C)(C)C)(C=1C=CC=CC1)C
accession=JP004975
date=2016.01.19 (Created 2008.10.21, modified 2011.05.06)
author=MASS SPECTROSCOPY SOC. OF JAPAN (MSSJ)
license=CC BY-NC-SA
exact mass=276.0504
ionization energy=70 eV
ion type=[M]+*
computed spectral entropy=2.4809967522455096
computed normalized entropy=0.752766855009216
SPLASH=splash10-006x-6900000000-1e83da04b8322f07669a
submitter=submitter = University of Tokyo Team (Faculty of Engineering, University of Tokyo)
MoNA Rating=3.75

>  <NUM PEAKS>  (4000) 
27

>  <MASS SPECTRAL PEAKS>  (4000) 
45 11.78
47 3.6
51 4.08
65 3.26
73 74.45
74 12.32
75 2.92
78 5.19
79 2.82
81 4.86
89 3.09
91 3.34
93 6.69
95 6.95
103 5.62
105 35.49
106 4.74
115 9.75
125 2.72
133 25.2
134 4.15
177 3.47
193 99.99
194 17.89
195 7.75
261 0.45
263 0.3

>  <PREDICTED SPECTRUM>  (4000) 
28 6
29 4
36 29
41 23
44 17
45 153
47 66
51 72
52 15
53 34
55 32
57 13
58 23
59 38
61 16
63 71
65 115
66 7
67 42
73 505
74 123
75 281
76 63
77 190
78 87
79 117
80 23
81 6
89 10
91 109
92 86
93 229
95 146
97 40
102 16
103 69
104 51
105 331
106 148
113 35
115 166
117 27
118 27
127 30
132 13
133 135
157 47
177 67
191 0
193 999
194 413
195 284
196 19
261 16

$$$$

     RDKit          2D

 14 15  0  0  0  0  0  0  0  0999 V2000
   -1.6700   -0.9600    0.0000 C   0  0  0  0  0  0  0  0  0  0  0  0
   -0.3700   -1.7100    0.0000 C   0  0  0  0  0  0  0  0  0  0  0  0
   -1.6700    0.5400    0.0000 C   0  0  0  0  0  0  0  0  0  0  0  0
    6.1266    0.5417    0.0000 C   0  0  0  0  0  0  0  0  0  0  0  0
    6.1264   -0.9592    0.0000 C   0  0  0  0  0  0  0  0  0  0  0  0
    0.9300   -0.9600    0.0000 C   0  0  0  0  0  0  0  0  0  0  0  0
   -0.3700    1.2900    0.0000 C   0  0  0  0  0  0  0  0  0  0  0  0
    4.8275    1.2915    0.0000 C   0  0  0  0  0  0  0  0  0  0  0  0
    3.5278   -0.9604    0.0000 C   0  0  0  0  0  0  0  0  0  0  0  0
    4.8270   -1.7102    0.0000 C   0  0  0  0  0  0  0  0  0  0  0  0
    0.9300    0.5400    0.0000 C   0  0  0  0  0  0  0  0  0  0  0  0
    3.5281    0.5404    0.0000 C   0  0  0  0  0  0  0  0  0  0  0  0
    4.8275   -3.2102    0.0000 O   0  0  0  0  0  0  0  0  0  0  0  0
    2.2289    1.2902    0.0000 S   0  0  0  0  0  0  0  0  0  0  0  0
  2  1  2  0
  3  1  1  0
  5  4  1  0
  6  2  1  0
  7  3  2  0
  8  4  1  0
 10  5  1  0
 10  9  1  0
 11  6  2  0
 11  7  1  0
 12  8  1  0
 12  9  1  0
 13 10  2  0
 14 11  1  0
 14 12  1  0
M  END
>  <NAME>  (4001) 
3-PHENYLTHIOCYCLOHEXANONE

>  <SYNONYMS>  (4001) 


>  <SPECTRUM TYPE>  (4001) 
MS1

>  <INSTRUMENT TYPE>  (4001) 
EI-B

>  <INSTRUMENT>  (4001) 
JEOL JMS-D-3000

>  <ION MODE>  (4001) 
P

>  <INCHIKEY>  (4001) 
ODZCHNYVOXNEKZ-UHFFFAOYSA-N

>  <FORMULA>  (4001) 
C12H14OS

>  <EXACT MASS>  (4001) 
206.076536068

>  <MW>  (4001) 
206

>  <ID>  (4001) 
JP004974

>  <CONTRIBUTOR>  (4001) 
University of Tokyo Team, {Faculty of Engineering, University of Tokyo

>  <COMMENT>  (4001) 
SMILES=O=C(C2)CC(CC2)Sc(c1)cccc1
InChI=InChI=1S/C12H14OS/c13-10-5-4-8-12(9-10)14-11-6-2-1-3-7-11/h1-3,6-7,12H,4-5,8-9H2
computed SMILES=O=C1CCCC(SC=2C=CC=CC2)C1
accession=JP004974
date=2016.01.19 (Created 2008.10.21, modified 2011.05.06)
author=MASS SPECTROSCOPY SOC. OF JAPAN (MSSJ)
license=CC BY-NC-SA
exact mass=206.07654
ionization energy=70 eV
ion type=[M]+*
computed spectral entropy=2.552999263142144
computed normalized entropy=0.8033215922156459
SPLASH=splash10-0aov-9120000000-635cc5a359f4bd8f1fb0
submitter=submitter = University of Tokyo Team (Faculty of Engineering, University of Tokyo)
MoNA Rating=3.75

>  <NUM PEAKS>  (4001) 
24

>  <MASS SPECTRAL PEAKS>  (4001) 
42 81.46
45 4.95
51 6.75
53 3.85
55 39.97
65 13.39
66 9.64
67 6.02
68 15.78
69 99.99
70 6.06
77 7.33
84 4.17
91 3.82
96 9.67
97 77.41
98 5.95
109 17.28
110 46.01
111 3.84
135 4.01
206 77
207 10.89
208 4.37

>  <PREDICTED SPECTRUM>  (4001) 
26 2
27 108
28 13
29 46
33 1
34 7
37 5
38 41
39 300
40 109
41 494
42 310
43 111
44 72
45 274
49 22
50 137
51 304
52 121
53 274
54 142
55 423
56 85
57 150
59 172
60 46
62 12
63 119
65 432
66 274
67 267
68 189
69 499
70 177
71 150
72 26
74 33
77 299
78 161
79 165
80 55
81 112
82 131
83 112
84 106
85 25
87 46
89 10
91 182
92 19
95 21
96 194
97 999
98 304
99 102
109 422
110 900
111 117
115 38
128 13
129 166
130 98
135 2
139 32
149 12
206 799
207 281
208 183
209 37

$$$$

     RDKit          2D

 15 14  0  0  0  0  0  0  0  0999 V2000
   -1.3000    0.7500    0.0000 C   0  0  0  0  0  0  0  0  0  0  0  0
    0.0000    1.5000    0.0000 C   0  0  0  0  0  0  0  0  0  0  0  0
   -1.3000   -0.7500    0.0000 C   0  0  0  0  0  0  0  0  0  0  0  0
    1.3000    0.7500    0.0000 C   0  0  0  0  0  0  0  0  0  0  0  0
    0.0000   -1.5000    0.0000 C   0  0  0  0  0  3  0  0  0  0  0  0
    1.3000   -0.7500    0.0000 C   0  0  0  0  0  0  0  0  0  0  0  0
    2.5989   -1.5002    0.0000 F   0  0  0  0  0  0  0  0  0  0  0  0
   -1.3000    0.7500    0.0000 C   0  0  0  0  0  0  0  0  0  0  0  0
    0.0000    1.5000    0.0000 C   0  0  0  0  0  0  0  0  0  0  0  0
   -1.3000   -0.7500    0.0000 C   0  0  0  0  0  0  0  0  0  0  0  0
    1.3000    0.7500    0.0000 C   0  0  0  0  0  0  0  0  0  0  0  0
    0.0000   -1.5000    0.0000 C   0  0  0  0  0  3  0  0  0  0  0  0
    1.3000   -0.7500    0.0000 C   0  0  0  0  0  0  0  0  0  0  0  0
    2.5989   -1.5002    0.0000 F   0  0  0  0  0  0  0  0  0  0  0  0
    0.0000    0.0000    0.0000 Hg  0  0  0  0  0 15  0  0  0  0  0  0
  2  1  2  0
  3  1  1  0
  4  2  1  0
  5  3  2  0
  6  4  2  0
  6  5  1  0
  7  6  1  0
  9  8  2  0
 10  8  1  0
 11  9  1  0
 12 10  2  0
 13 11  2  0
 13 12  1  0
 14 13  1  0
M  RAD  2   5   2  12   2
M  END
>  <NAME>  (4002) 
BIS(O-FLUOROPHENYL)MERCURY

>  <SYNONYMS>  (4002) 


>  <SPECTRUM TYPE>  (4002) 
MS1

>  <INSTRUMENT TYPE>  (4002) 
EI-B

>  <INSTRUMENT>  (4002) 
JEOL JMS-D-3000

>  <ION MODE>  (4002) 
P

>  <INCHIKEY>  (4002) 
VCIMYPFASJQYDJ-UHFFFAOYSA-N

>  <FORMULA>  (4002) 
C12H8F2Hg

>  <EXACT MASS>  (4002) 
392.030049696

>  <MW>  (4002) 
392

>  <ID>  (4002) 
JP004973

>  <CONTRIBUTOR>  (4002) 
University of Tokyo Team, {Faculty of Engineering, University of Tokyo

>  <COMMENT>  (4002) 
SMILES=Fc(c2)c(ccc2)[Hg]c(c1)c(F)ccc1
InChI=InChI=1S/2C6H4F.Hg/c2*7-6-4-2-1-3-5-6;/h2*1-4H;
computed SMILES=[Hg].FC1=[C]C=CC=C1.FC1=[C]C=CC=C1
accession=JP004973
date=2016.01.19 (Created 2008.10.21, modified 2011.05.06)
author=MASS SPECTROSCOPY SOC. OF JAPAN (MSSJ)
license=CC BY-NC-SA
exact mass=392.03003
ionization energy=70 eV
ion type=[M]+*
computed spectral entropy=2.7216958317540096
computed normalized entropy=0.8082734541814647
SPLASH=splash10-0007-3039000000-5450f19952542e8eae61
submitter=submitter = University of Tokyo Team (Faculty of Engineering, University of Tokyo)
MoNA Rating=3.75

>  <NUM PEAKS>  (4002) 
29

>  <MASS SPECTRAL PEAKS>  (4002) 
28 4.59
32 1.39
70 1.56
95 50.41
96 68.44
97 4.02
189 1.69
190 7.62
191 1.02
198 1.42
199 2.21
200 3.75
201 1.84
202 4.34
293 12
294 19.41
295 28.88
296 17.77
297 36.89
298 2.01
299 7.71
388 31.59
389 58.02
390 82.24
391 52.89
392 99.99
393 12.57
394 22.59
395 2.45

>  <PREDICTED SPECTRUM>  (4002) 
25 21
26 151
27 225
28 5
31 57
33 82
36 97
37 159
38 334
39 726
40 179
44 4
45 191
49 41
50 532
51 997
52 256
53 93
55 44
57 76
62 298
63 462
64 268
65 248
66 59
68 15
69 234
70 209
73 48
74 339
75 392
76 121
77 999
78 297
82 266
83 190
84 181
85 54
87 84
89 306
90 71
91 97
92 210
93 201
94 53
95 104
96 40
97 148
98 97
99 119
100 109
101 731
102 74
103 43
104 93
106 100
107 198
108 50
110 191
111 169
112 192
113 59
114 48
115 129
116 54
117 132
118 58
119 109
120 1
125 72
126 543
127 639
128 276
129 112
130 220
132 7
134 53
138 79
139 232
140 159
142 806
143 77
145 61
146 5
152 103
154 17
159 22
161 31
167 56
170 35
172 29
173 147
174 207
175 175
201 43
202 76
205 153
207 249
208 18
209 75
210 211
212 214
213 20
214 111
217 40
243 80
244 24
245 351
246 198
251 96
271 53
272 45
273 611
299 123
309 202
313 38
314 188
315 399
392 880
393 265

$$$$

     RDKit          2D

 15 15  0  0  0  0  0  0  0  0999 V2000
   -3.1086    0.0467    0.0000 C   0  0  0  0  0  0  0  0  0  0  0  0
   -4.0728    1.7167    0.0000 C   0  0  0  0  0  0  0  0  0  0  0  0
   -6.8490   -3.0919    0.0000 C   0  0  0  0  0  0  0  0  0  0  0  0
   -4.9207   -3.0919    0.0000 C   0  0  0  0  0  0  0  0  0  0  0  0
   -0.6887   -1.9428    0.0000 C   0  0  0  0  0  0  0  0  0  0  0  0
   -1.9877   -1.1928    0.0000 C   0  0  0  0  0  0  0  0  0  0  0  0
   -7.1839    0.3072    0.0000 C   0  0  0  0  0  0  0  0  0  0  0  0
    0.6103   -1.1928    0.0000 C   0  0  0  0  0  0  0  0  0  0  0  0
   -3.2868   -1.9428    0.0000 C   0  0  0  0  0  0  0  0  0  0  0  0
   -5.8848    1.0572    0.0000 C   0  0  0  0  0  0  0  0  0  0  0  0
   -7.1839   -1.1928    0.0000 C   0  0  0  0  0  0  0  0  0  0  0  0
    1.9094   -1.9428    0.0000 Cl  0  0  0  0  0  0  0  0  0  0  0  0
   -4.5858   -1.1928    0.0000 N   0  0  0  0  0  0  0  0  0  0  0  0
   -4.5858    0.3072    0.0000 Si  0  0  0  0  0  4  0  0  0  0  0  0
   -5.8848   -1.9428    0.0000 Si  0  0  0  0  0  4  0  0  0  0  0  0
  6  5  1  0
  8  5  1  0
  9  6  1  0
 10  7  1  0
 11  7  1  0
 12  8  1  0
 13  9  1  0
 14  1  1  0
 14  2  1  0
 14 10  1  0
 14 13  1  0
 15  3  1  0
 15  4  1  0
 15 11  1  0
 15 13  1  0
M  END
>  <NAME>  (4003) 
1-(4-CHLOROBUTYL)-2,2,6,6-TETRAMETHYL-2,6-DISILAPIPERIDINE

>  <SYNONYMS>  (4003) 


>  <SPECTRUM TYPE>  (4003) 
MS1

>  <INSTRUMENT TYPE>  (4003) 
EI-B

>  <INSTRUMENT>  (4003) 
JEOL JMS-D-3000

>  <ION MODE>  (4003) 
P

>  <INCHIKEY>  (4003) 
ZYFRNLUVMCUXNF-UHFFFAOYSA-N

>  <FORMULA>  (4003) 
C11H26ClNSi2

>  <EXACT MASS>  (4003) 
263.129230572

>  <MW>  (4003) 
263

>  <ID>  (4003) 
JP004972

>  <CONTRIBUTOR>  (4003) 
University of Tokyo Team, {Faculty of Engineering, University of Tokyo

>  <COMMENT>  (4003) 
SMILES=ClCCCCN([Si](C)(C)1)[Si](C)(C)CCC1
InChI=InChI=1S/C11H26ClNSi2/c1-14(2)10-7-11-15(3,4)13(14)9-6-5-8-12/h5-11H2,1-4H3
computed SMILES=ClCCCCN1[Si](C)(C)CCC[Si]1(C)C
ionization energy=70 eV
accession=JP004972
date=2016.01.19 (Created 2008.10.21, modified 2011.05.06)
author=MASS SPECTROSCOPY SOC. OF JAPAN (MSSJ)
license=CC BY-NC-SA
exact mass=263.12923
ion type=[M]+*
computed spectral entropy=2.243722395835199
computed normalized entropy=0.7155881150845339
SPLASH=splash10-000i-4910000000-dabb1fc54cf41c50268f
submitter=submitter = University of Tokyo Team (Faculty of Engineering, University of Tokyo)
MoNA Rating=3.75

>  <NUM PEAKS>  (4003) 
23

>  <MASS SPECTRAL PEAKS>  (4003) 
41 3.78
43 4.01
45 3.7
59 18.81
73 11.32
85 4.69
86 5.48
88 6.78
93 3.86
99 4.01
100 2.89
117 1.8
130 1.82
144 3.6
158 1.8
170 2.92
186 99.99
187 19.65
188 9.29
206 9.31
207 1.72
208 3.88
263 1.22

>  <PREDICTED SPECTRUM>  (4003) 
39 9
40 3
41 160
42 156
43 183
44 27
45 112
49 47
51 4
53 17
55 117
56 18
58 54
59 287
60 14
63 46
65 11
67 22
69 0
70 8
71 51
72 6
73 185
74 20
75 29
78 1
93 62
130 6
131 31
142 5
144 132
158 136
159 6
184 4
185 43
186 999
187 512
188 322
248 40
263 106
265 45

$$$$

     RDKit          2D

 15 15  0  0  0  0  0  0  0  0999 V2000
   -2.5476    4.3306    0.0000 C   0  0  0  0  0  0  0  0  0  0  0  0
   -4.5966    3.7816    0.0000 C   0  0  0  0  0  0  0  0  0  0  0  0
   -4.0476    1.7326    0.0000 C   0  0  0  0  0  0  0  0  0  0  0  0
    3.1976    0.7816    0.0000 C   0  0  0  0  0  0  0  0  0  0  0  0
    3.1981    2.2824    0.0000 C   0  0  0  0  0  0  0  0  0  0  0  0
    1.8981    0.0308    0.0000 C   0  0  0  0  0  0  0  0  0  0  0  0
    1.8990    3.0324    0.0000 C   0  0  0  0  0  0  0  0  0  0  0  0
    0.5990    0.7808    0.0000 C   0  0  0  0  0  0  0  0  0  0  0  0
    0.5995    2.2816    0.0000 C   0  0  0  0  0  0  0  0  0  0  0  0
   -0.6995    3.0316    0.0000 C   0  0  0  0  0  0  0  0  0  0  0  0
   -1.9986    2.2816    0.0000 C   0  0  0  0  0  0  0  0  0  0  0  0
   -2.9627    1.1325    0.0000 Cl  0  0  0  0  0  0  0  0  0  0  0  0
   -1.0344    1.1325    0.0000 Cl  0  0  0  0  0  0  0  0  0  0  0  0
   -0.6995    4.5316    0.0000 O   0  0  0  0  0  0  0  0  0  0  0  0
   -3.2976    3.0316    0.0000 Si  0  0  0  0  0  4  0  0  0  0  0  0
  5  4  2  0
  6  4  1  0
  7  5  1  0
  8  6  2  0
  9  7  2  0
  9  8  1  0
 10  9  1  0
 11 10  1  0
 12 11  1  0
 13 11  1  0
 14 10  1  0
 15  1  1  0
 15  2  1  0
 15  3  1  0
 15 11  1  0
M  END
>  <NAME>  (4004) 
2,2-DICHLORO-1-PHENYL-2-TRIMETHYLSILYLETHANOL

>  <SYNONYMS>  (4004) 


>  <SPECTRUM TYPE>  (4004) 
MS1

>  <INSTRUMENT TYPE>  (4004) 
EI-B

>  <INSTRUMENT>  (4004) 
JEOL JMS-D-3000

>  <ION MODE>  (4004) 
P

>  <INCHIKEY>  (4004) 
OWRRAILSOARBMK-UHFFFAOYSA-N

>  <FORMULA>  (4004) 
C11H16Cl2OSi

>  <EXACT MASS>  (4004) 
262.034747022

>  <MW>  (4004) 
262

>  <ID>  (4004) 
JP004971

>  <CONTRIBUTOR>  (4004) 
University of Tokyo Team, {Faculty of Engineering, University of Tokyo

>  <COMMENT>  (4004) 
SMILES=c(c1)ccc(c1)C(O)C(Cl)(Cl)[Si](C)(C)C
InChI=InChI=1S/C11H16Cl2OSi/c1-15(2,3)11(12,13)10(14)9-7-5-4-6-8-9/h4-8,10,14H,1-3H3
computed SMILES=ClC(Cl)(C(O)C=1C=CC=CC1)[Si](C)(C)C
accession=JP004971
date=2016.01.19 (Created 2008.10.21, modified 2011.05.06)
author=MASS SPECTROSCOPY SOC. OF JAPAN (MSSJ)
license=CC BY-NC-SA
exact mass=262.03475
ionization energy=70 eV
ion type=[M]+*
computed spectral entropy=2.623661369237038
computed normalized entropy=0.8052742877994302
SPLASH=splash10-0adi-5900000000-cf69747ffd1faca28ba9
submitter=submitter = University of Tokyo Team (Faculty of Engineering, University of Tokyo)
MoNA Rating=3.75

>  <NUM PEAKS>  (4004) 
26

>  <MASS SPECTRAL PEAKS>  (4004) 
43 3.1
44 2.72
45 5.97
51 3.38
65 3.09
73 25.99
74 2.66
75 15.22
77 9.02
79 18.06
91 4.95
93 16.39
95 8.05
102 3.35
105 4.54
107 99.99
108 7.79
119 11.49
137 6.73
155 3.55
172 18.97
174 11.96
179 17.02
180 2.89
183 2.46
226 1.42

>  <PREDICTED SPECTRUM>  (4004) 
27 0
28 5
29 3
36 4
41 47
42 11
43 118
44 39
45 118
47 39
48 6
49 64
50 56
51 218
52 63
53 57
55 70
57 54
58 60
59 107
63 82
64 8
65 121
66 15
67 44
69 44
72 50
73 692
74 185
75 255
76 83
77 430
78 138
79 408
80 115
81 21
82 98
83 56
84 30
89 17
91 226
92 66
93 382
94 13
95 239
97 30
99 14
101 97
102 72
105 64
107 999
108 267
109 19
110 3
111 15
113 42
115 22
116 53
117 15
118 39
119 297
120 159
121 91
122 43
127 121
129 3
136 30
137 266
138 155
139 129
155 244
156 203
157 45
171 86
172 470
173 92
174 314
175 13
179 702
180 76
186 31
209 4
210 52
211 119
213 0
247 6

$$$$

     RDKit          2D

 15 15  0  0  0  0  0  0  0  0999 V2000
   -2.2231    3.7686    0.0000 C   0  0  0  0  0  0  0  0  0  0  0  0
   -4.2721    3.2195    0.0000 C   0  0  0  0  0  0  0  0  0  0  0  0
   -3.7231    1.1705    0.0000 C   0  0  0  0  0  0  0  0  0  0  0  0
    3.5221    0.2195    0.0000 C   0  0  0  0  0  0  0  0  0  0  0  0
    3.5226    1.7204    0.0000 C   0  0  0  0  0  0  0  0  0  0  0  0
    2.2226   -0.5313    0.0000 C   0  0  0  0  0  0  0  0  0  0  0  0
    2.2236    2.4704    0.0000 C   0  0  0  0  0  0  0  0  0  0  0  0
    0.9236    0.2187    0.0000 C   0  0  0  0  0  0  0  0  0  0  0  0
    0.9240    1.7195    0.0000 C   0  0  0  0  0  0  0  0  0  0  0  0
   -0.3750    2.4695    0.0000 C   0  0  0  0  0  0  0  0  0  0  0  0
   -0.3750    3.9695    0.0000 C   0  0  0  0  0  0  0  0  0  0  0  0
   -1.6740    4.7195    0.0000 Cl  0  0  0  0  0  0  0  0  0  0  0  0
    0.9240    4.7195    0.0000 Cl  0  0  0  0  0  0  0  0  0  0  0  0
   -1.6740    1.7195    0.0000 O   0  0  0  0  0  0  0  0  0  0  0  0
   -2.9731    2.4695    0.0000 Si  0  0  0  0  0  4  0  0  0  0  0  0
  5  4  2  0
  6  4  1  0
  7  5  1  0
  8  6  2  0
  9  7  2  0
  9  8  1  0
 10  9  1  0
 11 10  1  0
 12 11  1  0
 13 11  1  0
 14 10  1  0
 15  1  1  0
 15  2  1  0
 15  3  1  0
 15 14  1  0
M  END
>  <NAME>  (4005) 
1,1-DICHLORO-2-PHENYL-2-TRIMETHYLSILOXYETHANE

>  <SYNONYMS>  (4005) 


>  <SPECTRUM TYPE>  (4005) 
MS1

>  <INSTRUMENT TYPE>  (4005) 
EI-B

>  <INSTRUMENT>  (4005) 
JEOL JMS-D-3000

>  <ION MODE>  (4005) 
P

>  <INCHIKEY>  (4005) 
WUTQBTWFSIXMBI-UHFFFAOYSA-N

>  <FORMULA>  (4005) 
C11H16Cl2OSi

>  <EXACT MASS>  (4005) 
262.034747022

>  <MW>  (4005) 
262

>  <ID>  (4005) 
JP004970

>  <CONTRIBUTOR>  (4005) 
University of Tokyo Team, {Faculty of Engineering, University of Tokyo

>  <COMMENT>  (4005) 
SMILES=c(c1)ccc(c1)C(C(Cl)Cl)O[Si](C)(C)C
InChI=InChI=1S/C11H16Cl2OSi/c1-15(2,3)14-10(11(12)13)9-7-5-4-6-8-9/h4-8,10-11H,1-3H3
computed SMILES=ClC(Cl)C(O[Si](C)(C)C)C=1C=CC=CC1
accession=JP004970
date=2016.01.19 (Created 2008.10.21, modified 2011.05.06)
author=MASS SPECTROSCOPY SOC. OF JAPAN (MSSJ)
license=CC BY-NC-SA
exact mass=262.03475
ionization energy=70 eV
ion type=[M]+*
computed spectral entropy=2.7198667508571295
computed normalized entropy=0.855827778901828
SPLASH=splash10-005c-6900000000-b8a8fc29876ca6575f7d
submitter=submitter = University of Tokyo Team (Faculty of Engineering, University of Tokyo)
MoNA Rating=3.75

>  <NUM PEAKS>  (4005) 
24

>  <MASS SPECTRAL PEAKS>  (4005) 
43 7.25
45 15.24
51 7.87
65 6.24
74 17.72
75 17.1
77 17.49
79 5.96
90 4.69
91 29.9
92 12.57
93 47.11
95 17.91
102 9.62
103 19.8
105 7.22
119 29.98
138 8.63
163 5.51
179 99.99
180 70.74
181 20.56
247 1.82
249 1.37

>  <PREDICTED SPECTRUM>  (4005) 
36 42
39 39
43 90
44 133
45 214
47 109
49 15
50 40
51 184
52 80
53 31
54 10
55 88
58 33
59 39
61 18
62 45
63 192
64 25
65 260
66 43
67 59
73 175
74 205
75 296
76 82
77 349
78 213
79 216
80 75
81 39
82 24
83 86
84 31
85 32
89 53
90 106
91 384
92 235
93 624
94 93
95 306
96 34
97 113
101 29
102 154
103 442
104 117
105 256
106 65
107 34
111 22
113 60
115 203
116 28
117 20
118 100
119 299
120 51
121 27
128 22
133 0
134 48
135 113
136 85
137 62
138 43
139 12
143 46
154 10
155 23
156 23
161 77
163 2
172 2
179 999
180 745
181 431
182 34
195 128
211 182
247 115
248 17
249 9
262 13
264 8

$$$$

     RDKit          2D

 13 13  0  0  0  0  0  0  0  0999 V2000
   -5.1959    2.5696    0.0000 C   0  0  0  0  0  0  0  0  0  0  0  0
   -3.8969    0.3196    0.0000 C   0  0  0  0  0  0  0  0  0  0  0  0
   -3.8969    3.3196    0.0000 C   0  0  0  0  0  0  0  0  0  0  0  0
   -2.5978    1.0696    0.0000 C   0  0  0  0  0  0  0  0  0  0  0  0
    2.5983    1.0696    0.0000 C   0  0  0  0  0  0  0  0  0  0  0  0
    2.5988    2.5704    0.0000 C   0  0  0  0  0  0  0  0  0  0  0  0
    1.2988    0.3188    0.0000 C   0  0  0  0  0  0  0  0  0  0  0  0
    1.2998    3.3204    0.0000 C   0  0  0  0  0  0  0  0  0  0  0  0
   -0.0002    1.0688    0.0000 C   0  0  0  0  0  0  0  0  0  0  0  0
    0.0002    2.5696    0.0000 C   0  0  0  0  0  0  0  0  0  0  0  0
   -1.2988    3.3196    0.0000 C   0  0  0  0  0  0  0  0  0  0  0  0
   -2.5978    2.5696    0.0000 N   0  0  0  0  0  0  0  0  0  0  0  0
   -1.2988    4.8196    0.0000 O   0  0  0  0  0  0  0  0  0  0  0  0
  3  1  1  0
  4  2  1  0
  6  5  2  0
  7  5  1  0
  8  6  1  0
  9  7  2  0
 10  8  2  0
 10  9  1  0
 11 10  1  0
 12  3  1  0
 12  4  1  0
 12 11  1  0
 13 11  2  0
M  END
>  <NAME>  (4006) 
N,N-DIETHYLBENZAMIDE

>  <SYNONYMS>  (4006) 


>  <SPECTRUM TYPE>  (4006) 
MS1

>  <INSTRUMENT TYPE>  (4006) 
EI-B

>  <INSTRUMENT>  (4006) 
JEOL JMS-D-3000

>  <ION MODE>  (4006) 
P

>  <INCHIKEY>  (4006) 
JLNGEXDJAQASHD-UHFFFAOYSA-N

>  <FORMULA>  (4006) 
C11H15NO

>  <EXACT MASS>  (4006) 
177.1153641

>  <MW>  (4006) 
177

>  <ID>  (4006) 
JP004969

>  <CONTRIBUTOR>  (4006) 
University of Tokyo Team, {Faculty of Engineering, University of Tokyo

>  <COMMENT>  (4006) 
SMILES=CCN(CC)C(=O)c(c1)cccc1
InChI=InChI=1S/C11H15NO/c1-3-12(4-2)11(13)10-8-6-5-7-9-10/h5-9H,3-4H2,1-2H3
computed SMILES=O=C(C=1C=CC=CC1)N(CC)CC
accession=JP004969
date=2016.01.19 (Created 2008.10.21, modified 2011.05.06)
author=MASS SPECTROSCOPY SOC. OF JAPAN (MSSJ)
license=CC BY-NC-SA
exact mass=177.11536
ionization energy=70 eV
ion type=[M]+*
computed spectral entropy=1.788047006966725
computed normalized entropy=0.6602709972802452
SPLASH=splash10-0a6r-3900000000-c2ac50229b0f5be1728e
submitter=submitter = University of Tokyo Team (Faculty of Engineering, University of Tokyo)
MoNA Rating=3.75

>  <NUM PEAKS>  (4006) 
15

>  <MASS SPECTRAL PEAKS>  (4006) 
51 3.49
52 12.31
53 1.04
56 2.08
72 1.26
76 2.01
77 39.86
78 3.41
105 99.99
106 8.22
134 2.28
148 3.31
176 20.38
177 14.72
178 1.71

>  <PREDICTED SPECTRUM>  (4006) 
26 12
27 124
28 68
29 127
38 21
39 114
40 45
41 143
42 185
43 102
44 92
50 176
51 377
52 98
53 7
54 4
56 129
57 31
58 262
62 15
63 4
64 24
70 14
71 3
72 298
73 32
74 87
75 102
76 171
77 715
78 233
79 53
89 17
91 3
100 72
102 11
103 28
104 170
105 999
106 307
107 24
121 27
122 69
132 65
134 113
135 34
148 252
149 136
150 33
162 68
176 588
177 517
178 192
179 7

$$$$

     RDKit          2D

 16 16  0  0  0  0  0  0  0  0999 V2000
    4.6840    1.7974    0.0000 C   0  0  0  0  0  0  0  0  0  0  0  0
    5.2228    3.8492    0.0000 C   0  0  0  0  0  0  0  0  0  0  0  0
    3.1710    4.3879    0.0000 C   0  0  0  0  0  0  0  0  0  0  0  0
   -1.2553    3.0566    0.0000 C   0  0  0  0  0  0  0  0  0  0  0  0
    0.0397    0.8136    0.0000 C   0  0  0  0  0  0  0  0  0  0  0  0
   -2.5543    2.3066    0.0000 C   0  0  0  0  0  0  0  0  0  0  0  0
   -1.2593    0.0636    0.0000 C   0  0  0  0  0  0  0  0  0  0  0  0
    0.0342    2.3231    0.0000 C   0  0  0  0  0  0  0  0  0  0  0  0
   -2.5725    0.8181    0.0000 C   0  0  0  0  0  0  0  0  0  0  0  0
    1.3295    3.0796    0.0000 C   0  0  0  0  0  0  0  0  0  0  0  0
    2.6323    2.3361    0.0000 C   0  0  0  0  0  0  0  0  0  0  0  0
   -3.8753    0.0747    0.0000 Cl  0  0  0  0  0  0  0  0  0  0  0  0
    1.6739    1.1822    0.0000 Cl  0  0  0  0  0  0  0  0  0  0  0  0
    3.6022    1.1919    0.0000 Cl  0  0  0  0  0  0  0  0  0  0  0  0
    1.3219    4.5796    0.0000 O   0  0  0  0  0  0  0  0  0  0  0  0
    3.9275    3.0926    0.0000 Si  0  0  0  0  0  4  0  0  0  0  0  0
  6  4  2  0
  7  5  1  0
  8  4  1  0
  8  5  2  0
  9  6  1  0
  9  7  2  0
 10  8  1  0
 11 10  1  0
 12  9  1  0
 13 11  1  0
 14 11  1  0
 15 10  1  0
 16  1  1  0
 16  2  1  0
 16  3  1  0
 16 11  1  0
M  END
>  <NAME>  (4007) 
1-(P-CHLOROPHENYL)-2,2-DICHLORO-2-TRIMETHYLSILYLETHANOL

>  <SYNONYMS>  (4007) 


>  <SPECTRUM TYPE>  (4007) 
MS1

>  <INSTRUMENT TYPE>  (4007) 
EI-B

>  <INSTRUMENT>  (4007) 
JEOL JMS-D-3000

>  <ION MODE>  (4007) 
P

>  <INCHIKEY>  (4007) 
WJDFXRPGSMEIJW-UHFFFAOYSA-N

>  <FORMULA>  (4007) 
C11H15Cl3OSi

>  <EXACT MASS>  (4007) 
295.99577466999995

>  <MW>  (4007) 
296

>  <ID>  (4007) 
JP004968

>  <CONTRIBUTOR>  (4007) 
University of Tokyo Team, {Faculty of Engineering, University of Tokyo

>  <COMMENT>  (4007) 
SMILES=Clc(c1)ccc(c1)C(O)C(Cl)(Cl)[Si](C)(C)C
InChI=InChI=1S/C11H15Cl3OSi/c1-16(2,3)11(13,14)10(15)8-4-6-9(12)7-5-8/h4-7,10,15H,1-3H3
computed SMILES=ClC1=CC=C(C=C1)C(O)C(Cl)(Cl)[Si](C)(C)C
accession=JP004968
date=2016.01.19 (Created 2008.10.21, modified 2011.05.06)
author=MASS SPECTROSCOPY SOC. OF JAPAN (MSSJ)
license=CC BY-NC-SA
exact mass=295.99577
ionization energy=70 eV
ion type=[M]+*
computed spectral entropy=2.758520759167771
computed normalized entropy=0.827836572078444
SPLASH=splash10-0006-9820000000-9e927c7eb82fff3670e5
submitter=submitter = University of Tokyo Team (Faculty of Engineering, University of Tokyo)
MoNA Rating=3.75

>  <NUM PEAKS>  (4007) 
28

>  <MASS SPECTRAL PEAKS>  (4007) 
43 3.88
45 9.11
51 3.14
63 3.73
65 5.01
73 57.03
74 5.54
75 34.18
77 19.41
89 4.47
93 32.6
95 14.74
113 6.39
125 3.66
136 6.48
139 4.92
141 99.99
142 8.06
143 32.22
153 9.62
155 3.12
171 6.75
173 4.29
206 21.04
208 20.13
210 6.53
260 4.61
262 3.27

>  <PREDICTED SPECTRUM>  (4007) 
27 2
28 36
29 39
36 62
39 70
41 5
43 155
44 101
45 400
46 17
47 45
49 113
50 81
51 250
52 15
55 90
57 71
58 46
59 138
60 22
61 60
62 31
63 139
65 122
69 152
70 48
71 14
72 20
73 811
74 305
75 567
76 120
77 534
78 173
79 207
80 53
81 31
83 102
85 95
87 38
88 37
89 106
91 50
92 63
93 773
94 164
95 352
97 71
99 89
101 95
102 36
107 152
111 236
113 388
115 39
123 49
125 293
127 116
133 11
135 41
136 127
139 378
140 95
141 999
142 310
143 505
144 70
145 34
153 205
154 46
155 75
156 42
160 88
161 53
171 351
172 137
173 59
206 476
207 86
208 402
209 121
210 34
211 19
245 92

$$$$

     RDKit          2D

 16 16  0  0  0  0  0  0  0  0999 V2000
  -12.4532    6.1553    0.0000 C   0  0  0  0  0  0  0  0  0  0  0  0
  -12.4572    4.1490    0.0000 C   0  0  0  0  0  0  0  0  0  0  0  0
   -8.4186    7.2697    0.0000 C   0  0  0  0  0  0  0  0  0  0  0  0
   -9.6414    7.2697    0.0000 C   0  0  0  0  0  0  0  0  0  0  0  0
   -9.6386    3.0290    0.0000 C   0  0  0  0  0  0  0  0  0  0  0  0
   -8.4214    3.0290    0.0000 C   0  0  0  0  0  0  0  0  0  0  0  0
   -5.6028    4.1490    0.0000 C   0  0  0  0  0  0  0  0  0  0  0  0
   -5.6068    6.1553    0.0000 C   0  0  0  0  0  0  0  0  0  0  0  0
  -10.4600    6.3600    0.0000 C   0  0  0  0  0  0  0  0  0  0  0  0
   -7.6000    3.9300    0.0000 C   0  0  0  0  0  0  0  0  0  0  0  0
  -10.4600    3.9300    0.0000 N   0  0  0  0  0  0  0  0  0  0  0  0
   -7.6000    6.3600    0.0000 N   0  0  0  0  0  0  0  0  0  0  0  0
  -11.3400    5.1500    0.0000 Si  0  0  0  0  0  4  0  0  0  0  0  0
   -9.0300    5.9000    0.0000 Si  0  0  0  0  0  4  0  0  0  0  0  0
   -9.0300    4.4000    0.0000 Si  0  0  0  0  0  4  0  0  0  0  0  0
   -6.7200    5.1500    0.0000 Si  0  0  0  0  0  4  0  0  0  0  0  0
 13  1  1  0
 13  2  1  0
 13  9  1  0
 13 11  1  0
 14  3  1  0
 14  4  1  0
 14  9  1  0
 14 12  1  0
 15  5  1  0
 15  6  1  0
 15 10  1  0
 15 11  1  0
 16  7  1  0
 16  8  1  0
 16 10  1  0
 16 12  1  0
M  END
>  <NAME>  (4008) 
2,2,4,4,6,6,8,8-OCTAMETHYL-1,5-DIAZA-2,4,6,8-TETRASILACYCLOOCTANE

>  <SYNONYMS>  (4008) 


>  <SPECTRUM TYPE>  (4008) 
MS1

>  <INSTRUMENT TYPE>  (4008) 
EI-B

>  <INSTRUMENT>  (4008) 
JEOL JMS-D-3000

>  <ION MODE>  (4008) 
P

>  <INCHIKEY>  (4008) 
NVVQBMDSDDUFJD-UHFFFAOYSA-N

>  <FORMULA>  (4008) 
C10H30N2Si4

>  <EXACT MASS>  (4008) 
290.14860508

>  <MW>  (4008) 
290

>  <ID>  (4008) 
JP004967

>  <CONTRIBUTOR>  (4008) 
University of Tokyo Team, {Faculty of Engineering, University of Tokyo

>  <COMMENT>  (4008) 
SMILES=C[Si](C)(C1)N[Si](C)(C)C[Si](C)(C)N[Si](C)(C)1
InChI=InChI=1S/C10H30N2Si4/c1-13(2)9-14(3,4)12-16(7,8)10-15(5,6)11-13/h11-12H,9-10H2,1-8H3
computed SMILES=N1[Si](C)(C)C[Si](N[Si](C)(C)C[Si]1(C)C)(C)C
accession=JP004967
date=2016.01.19 (Created 2008.10.21, modified 2011.05.06)
author=MASS SPECTROSCOPY SOC. OF JAPAN (MSSJ)
license=CC BY-NC-SA
exact mass=290.14861
ionization energy=70 eV
ion type=[M]+*
computed spectral entropy=2.2683271790385238
computed normalized entropy=0.7046954596738451
SPLASH=splash10-004i-0190000000-2d6e0f51ea7a8eb76b25
submitter=submitter = University of Tokyo Team (Faculty of Engineering, University of Tokyo)
MoNA Rating=3.75

>  <NUM PEAKS>  (4008) 
25

>  <MASS SPECTRAL PEAKS>  (4008) 
59 1.45
73 5.22
74 1.74
100 3.26
114 1.81
116 1.81
130 11.46
131 4.42
170 1.66
172 1.3
186 2.97
187 5.22
188 2.39
189 1.59
203 3.62
242 1.88
243 3.04
258 6.6
259 20.46
260 6.09
261 3.55
275 99.99
276 32.43
277 18.57
278 3.99

>  <PREDICTED SPECTRUM>  (4008) 
17 1
29 7
32 2
39 9
43 13
45 95
58 8
59 94
67 8
69 8
72 23
73 295
74 54
81 28
82 17
83 73
85 17
100 21
101 43
102 24
112 8
113 24
114 4
115 14
117 22
119 24
129 86
130 201
131 208
148 19
156 21
157 55
158 29
159 55
160 20
161 1
169 25
170 39
173 15
174 35
183 1
185 118
186 53
187 196
188 22
189 135
203 111
215 16
217 2
243 61
245 69
246 8
247 4
258 2
259 403
260 182
261 162
262 25
263 20
275 999
276 546
277 381
278 135
279 15

$$$$

     RDKit          2D

 11 10  0  0  0  0  0  0  0  0999 V2000
   -8.2697    4.9755    0.0000 C   0  0  0  0  0  0  0  0  0  0  0  0
    0.0736    2.9264    0.0000 C   0  0  0  0  0  0  0  0  0  0  0  0
    2.1226    3.4755    0.0000 C   0  0  0  0  0  0  0  0  0  0  0  0
    1.5736    5.5245    0.0000 C   0  0  0  0  0  0  0  0  0  0  0  0
   -6.9707    4.2255    0.0000 C   0  0  0  0  0  0  0  0  0  0  0  0
   -5.6716    4.9755    0.0000 C   0  0  0  0  0  0  0  0  0  0  0  0
   -4.3726    4.2255    0.0000 C   0  0  0  0  0  0  0  0  0  0  0  0
   -3.0736    4.9755    0.0000 C   0  0  0  0  0  0  0  0  0  0  0  0
   -1.7745    4.2255    0.0000 C   0  0  0  0  0  0  0  0  0  0  0  0
   -0.4755    4.9755    0.0000 C   0  0  0  0  0  0  0  0  0  0  0  0
    0.8236    4.2255    0.0000 Si  0  0  0  0  0  4  0  0  0  0  0  0
  5  1  1  0
  6  5  1  0
  7  6  1  0
  8  7  1  0
  8  9  2  0
 10  9  1  0
 11  2  1  0
 11  3  1  0
 11  4  1  0
 11 10  1  0
M  END
>  <NAME>  (4009) 
2-HEPTENYLTRIMETHYLSILANE

>  <SYNONYMS>  (4009) 
1-TRIMETHYLSILYL-2-HEPTENE

>  <SPECTRUM TYPE>  (4009) 
MS1

>  <INSTRUMENT TYPE>  (4009) 
EI-B

>  <INSTRUMENT>  (4009) 
JEOL JMS-D-3000

>  <ION MODE>  (4009) 
P

>  <INCHIKEY>  (4009) 
UGNHZGDOTJSVAL-CMDGGOBGSA-N

>  <FORMULA>  (4009) 
C10H22Si

>  <EXACT MASS>  (4009) 
170.149077234

>  <MW>  (4009) 
170

>  <ID>  (4009) 
JP004966

>  <CONTRIBUTOR>  (4009) 
University of Tokyo Team, {Faculty of Engineering, University of Tokyo

>  <COMMENT>  (4009) 
SMILES=CCCCC=CC[Si](C)(C)C
InChI=InChI=1S/C10H22Si/c1-5-6-7-8-9-10-11(2,3)4/h8-9H,5-7,10H2,1-4H3/b9-8+
computed SMILES=C(=CC[Si](C)(C)C)CCCC
accession=JP004966
date=2016.01.19 (Created 2008.10.21, modified 2011.05.06)
author=MASS SPECTROSCOPY SOC. OF JAPAN (MSSJ)
license=CC BY-NC-SA
exact mass=170.14908
ionization energy=70 eV
ion type=[M]+*
computed spectral entropy=1.5759414290102796
computed normalized entropy=0.5684007210911491
SPLASH=splash10-00di-9100000000-048c16150592020e8abc
submitter=submitter = University of Tokyo Team (Faculty of Engineering, University of Tokyo)
MoNA Rating=3.75

>  <NUM PEAKS>  (4009) 
16

>  <MASS SPECTRAL PEAKS>  (4009) 
45 5.02
59 5.83
73 99.99
74 8.48
75 4.23
77 1.33
79 2.94
85 1.18
93 1.52
94 10.73
95 1.57
111 4.66
153 3.68
168 7.05
169 1.09
170 0.53

>  <PREDICTED SPECTRUM>  (4009) 
27 25
29 43
39 65
41 36
43 151
44 86
45 224
51 33
53 24
54 14
55 15
57 18
58 88
59 241
66 19
67 33
71 30
72 31
73 999
74 241
75 226
77 29
80 1
85 26
96 60
99 68
101 1
113 89
115 1
127 79
155 79
156 18
170 118
171 13

$$$$

     RDKit          2D

 13 12  0  0  0  0  0  0  0  0999 V2000
   -7.1447    3.3750    0.0000 C   0  0  0  0  0  0  0  0  0  0  0  0
   -1.3995    1.3260    0.0000 C   0  0  0  0  0  0  0  0  0  0  0  0
    0.6495    1.8750    0.0000 C   0  0  0  0  0  0  0  0  0  0  0  0
    0.1005    3.9240    0.0000 C   0  0  0  0  0  0  0  0  0  0  0  0
   -0.4486    4.8750    0.0000 C   0  0  0  0  0  0  0  0  0  0  0  0
   -1.9486    6.3750    0.0000 C   0  0  0  0  0  0  0  0  0  0  0  0
   -3.4486    4.8750    0.0000 C   0  0  0  0  0  0  0  0  0  0  0  0
   -5.8457    2.6250    0.0000 C   0  0  0  0  0  0  0  0  0  0  0  0
   -4.5466    3.3750    0.0000 C   0  0  0  0  0  0  0  0  0  0  0  0
   -3.2476    2.6250    0.0000 C   0  0  0  0  0  0  0  0  0  0  0  0
   -1.9486    3.3750    0.0000 N   0  0  0  0  0  0  0  0  0  0  0  0
   -0.6495    2.6250    0.0000 Si  0  0  0  0  0  4  0  0  0  0  0  0
   -1.9486    4.8750    0.0000 Si  0  0  0  0  0  4  0  0  0  0  0  0
  8  1  1  0
  9  8  1  0
 10  9  1  0
 11 10  1  0
 12  2  1  0
 12  3  1  0
 12  4  1  0
 12 11  1  0
 13  5  1  0
 13  6  1  0
 13  7  1  0
 13 11  1  0
M  END
>  <NAME>  (4010) 
BUTYLBIS(TRIMETHYLSILYL)AMINE

>  <SYNONYMS>  (4010) 


>  <SPECTRUM TYPE>  (4010) 
MS1

>  <INSTRUMENT TYPE>  (4010) 
EI-B

>  <INSTRUMENT>  (4010) 
JEOL JMS-D-3000

>  <ION MODE>  (4010) 
P

>  <INCHIKEY>  (4010) 
VJVMYSNNXQHHFU-UHFFFAOYSA-N

>  <FORMULA>  (4010) 
C10H27NSi2

>  <EXACT MASS>  (4010) 
217.16820292399998

>  <MW>  (4010) 
217

>  <ID>  (4010) 
JP004965

>  <CONTRIBUTOR>  (4010) 
University of Tokyo Team, {Faculty of Engineering, University of Tokyo

>  <COMMENT>  (4010) 
SMILES=CCCCN([Si](C)(C)C)[Si](C)(C)C
InChI=InChI=1S/C10H27NSi2/c1-8-9-10-11(12(2,3)4)13(5,6)7/h8-10H2,1-7H3
computed SMILES=N(CCCC)([Si](C)(C)C)[Si](C)(C)C
accession=JP004965
date=2016.01.19 (Created 2008.10.21, modified 2011.05.06)
author=MASS SPECTROSCOPY SOC. OF JAPAN (MSSJ)
license=CC BY-NC-SA
exact mass=217.1682
ionization energy=70 eV
ion type=[M]+*
computed spectral entropy=2.5908762542833332
computed normalized entropy=0.7694234142456502
SPLASH=splash10-00di-5910000000-6e38b1e0a58a7ebe95f5
submitter=submitter = University of Tokyo Team (Faculty of Engineering, University of Tokyo)
MoNA Rating=3.75

>  <NUM PEAKS>  (4010) 
29

>  <MASS SPECTRAL PEAKS>  (4010) 
41 2.41
43 2.54
45 9.66
47 1.54
59 19.26
60 1.98
72 1.54
73 50.68
74 4.33
75 7.49
86 22.49
87 2.29
94 1.42
100 11.58
101 1.85
102 4.33
114 2.47
117 1.73
128 34.01
129 4.33
130 6.19
131 2.97
174 99.99
175 17.84
176 8.85
202 25.58
203 5.32
204 2.29
217 3.34

>  <PREDICTED SPECTRUM>  (4010) 
27 2
28 8
29 45
30 25
31 36
32 11
41 16
43 55
44 39
45 78
46 7
55 27
56 25
57 31
58 22
59 244
60 65
61 27
70 19
71 3
73 429
74 79
75 114
85 39
86 417
87 104
89 4
99 22
100 298
101 125
102 70
103 20
105 2
114 83
115 54
116 61
117 46
128 135
129 66
130 134
131 47
132 24
142 53
145 43
147 81
174 999
175 390
176 254
177 15
186 0
202 277
203 133
204 54
217 78
218 6

$$$$

     RDKit          2D

 13 13  0  0  0  0  0  0  0  0999 V2000
   -5.1962   -3.0000    0.0000 C   0  0  0  0  0  0  0  0  0  0  0  0
   -2.2632   -1.8991    0.0000 C   0  0  0  0  0  0  0  0  0  0  0  0
   -0.3349   -1.8991    0.0000 C   0  0  0  0  0  0  0  0  0  0  0  0
   -3.1111    2.9095    0.0000 C   0  0  0  0  0  0  0  0  0  0  0  0
   -4.0753    1.2395    0.0000 C   0  0  0  0  0  0  0  0  0  0  0  0
   -3.8971   -2.2500    0.0000 C   0  0  0  0  0  0  0  0  0  0  0  0
    0.0000    1.5000    0.0000 C   0  0  0  0  0  0  0  0  0  0  0  0
   -3.8971   -0.7500    0.0000 C   0  0  0  0  0  0  0  0  0  0  0  0
    0.0000   -0.0000    0.0000 C   0  0  0  0  0  0  0  0  0  0  0  0
   -1.2990    2.2500    0.0000 C   0  0  0  0  0  0  0  0  0  0  0  0
   -2.5981   -0.0000    0.0000 N   0  0  0  0  0  0  0  0  0  0  0  0
   -1.2990   -0.7500    0.0000 Si  0  0  0  0  0  4  0  0  0  0  0  0
   -2.5981    1.5000    0.0000 Si  0  0  0  0  0  4  0  0  0  0  0  0
  6  1  1  0
  8  6  1  0
  9  7  1  0
 10  7  1  0
 11  8  1  0
 12  2  1  0
 12  3  1  0
 12  9  1  0
 12 11  1  0
 13  4  1  0
 13  5  1  0
 13 10  1  0
 13 11  1  0
M  END
>  <NAME>  (4011) 
1-PROPYL-2,2,6,6-TETRAMETHYL-2,6-DISILAPIPERIDINE

>  <SYNONYMS>  (4011) 


>  <SPECTRUM TYPE>  (4011) 
MS1

>  <INSTRUMENT TYPE>  (4011) 
EI-B

>  <INSTRUMENT>  (4011) 
JEOL JMS-D-3000

>  <ION MODE>  (4011) 
P

>  <INCHIKEY>  (4011) 
HKEZIKHMMUJDIJ-UHFFFAOYSA-N

>  <FORMULA>  (4011) 
C10H25NSi2

>  <EXACT MASS>  (4011) 
215.15255286

>  <MW>  (4011) 
215

>  <ID>  (4011) 
JP004964

>  <CONTRIBUTOR>  (4011) 
University of Tokyo Team, {Faculty of Engineering, University of Tokyo

>  <COMMENT>  (4011) 
SMILES=CCCN([Si](C)(C)1)[Si](C)(C)CCC1
InChI=InChI=1S/C10H25NSi2/c1-6-8-11-12(2,3)9-7-10-13(11,4)5/h6-10H2,1-5H3
computed SMILES=N1(CCC)[Si](C)(C)CCC[Si]1(C)C
accession=JP004964
date=2016.01.19 (Created 2008.10.21, modified 2011.05.06)
author=MASS SPECTROSCOPY SOC. OF JAPAN (MSSJ)
license=CC BY-NC-SA
exact mass=215.15255
ionization energy=70 eV
ion type=[M]+*
computed spectral entropy=2.1762353425103464
computed normalized entropy=0.6602982583748694
SPLASH=splash10-000i-1910000000-df11085171f06e6c54d9
submitter=submitter = University of Tokyo Team (Faculty of Engineering, University of Tokyo)
MoNA Rating=3.75

>  <NUM PEAKS>  (4011) 
27

>  <MASS SPECTRAL PEAKS>  (4011) 
43 2.68
45 3.13
59 11.13
73 6.59
85 2.1
86 2.34
88 3.68
99 1.5
100 2.36
114 2.04
115 1.25
116 1.38
117 2.77
130 1.37
131 1.63
144 2.38
158 1.42
159 3.32
170 1.46
172 3.17
186 99.99
187 20.05
188 8.82
200 14.51
201 3.09
202 1.42
215 2.68

>  <PREDICTED SPECTRUM>  (4011) 
27 26
28 5
29 11
31 16
39 5
41 32
42 51
43 46
44 47
45 163
46 10
47 8
51 1
53 1
54 24
55 36
56 61
57 49
58 108
59 286
60 69
61 60
67 6
69 16
70 51
71 28
72 55
73 260
74 42
75 43
77 51
84 30
85 54
86 116
87 80
88 62
89 25
98 31
99 51
100 97
102 18
103 31
104 17
105 32
112 4
113 30
114 121
115 132
116 77
117 50
118 21
127 2
128 26
129 60
130 66
131 64
132 17
140 35
141 40
142 91
143 52
144 31
145 101
155 10
156 27
157 61
158 99
159 54
170 96
171 105
172 72
184 19
185 4
186 999
187 376
188 221
189 85
200 146
201 62
215 101
216 39

$$$$

     RDKit          2D

 13 13  0  0  0  0  0  0  0  0999 V2000
    0.5418   -0.9097    0.0000 C   0  0  0  0  0  0  0  0  0  0  0  0
   -6.9418    1.6884    0.0000 C   0  0  0  0  0  0  0  0  0  0  0  0
   -5.4500    0.3452    0.0000 C   0  0  0  0  0  0  0  0  0  0  0  0
   -2.0491    2.3087    0.0000 C   0  0  0  0  0  0  0  0  0  0  0  0
   -2.4664    4.2722    0.0000 C   0  0  0  0  0  0  0  0  0  0  0  0
   -0.9582   -0.9097    0.0000 C   0  0  0  0  0  0  0  0  0  0  0  0
   -1.7082    0.3893    0.0000 C   0  0  0  0  0  0  0  0  0  0  0  0
   -3.2082    0.3893    0.0000 C   0  0  0  0  0  0  0  0  0  0  0  0
   -5.7619    3.3124    0.0000 C   0  0  0  0  0  0  0  0  0  0  0  0
   -4.4628    4.0624    0.0000 C   0  0  0  0  0  0  0  0  0  0  0  0
   -3.9582    1.6884    0.0000 N   0  0  0  0  0  0  0  0  0  0  0  0
   -5.4500    1.8452    0.0000 Si  0  0  0  0  0  4  0  0  0  0  0  0
   -3.3481    3.0587    0.0000 Si  0  0  0  0  0  4  0  0  0  0  0  0
  6  1  1  0
  7  6  1  0
  8  7  1  0
 10  9  1  0
 11  8  1  0
 12  2  1  0
 12  3  1  0
 12  9  1  0
 12 11  1  0
 13  4  1  0
 13  5  1  0
 13 10  1  0
 13 11  1  0
M  END
>  <NAME>  (4012) 
1-BUTYL-2,2,5,5-TETRAMETHYL-2,5-DISILAPYRROLIDINE

>  <SYNONYMS>  (4012) 


>  <SPECTRUM TYPE>  (4012) 
MS1

>  <INSTRUMENT TYPE>  (4012) 
EI-B

>  <INSTRUMENT>  (4012) 
JEOL JMS-D-3000

>  <ION MODE>  (4012) 
P

>  <INCHIKEY>  (4012) 
MFAHYUQAWVRZMH-UHFFFAOYSA-N

>  <FORMULA>  (4012) 
C10H25NSi2

>  <EXACT MASS>  (4012) 
215.15255286

>  <MW>  (4012) 
215

>  <ID>  (4012) 
JP004963

>  <CONTRIBUTOR>  (4012) 
University of Tokyo Team, {Faculty of Engineering, University of Tokyo

>  <COMMENT>  (4012) 
SMILES=CCCCN([Si](C)(C)1)[Si](C)(C)CC1
InChI=InChI=1S/C10H25NSi2/c1-6-7-8-11-12(2,3)9-10-13(11,4)5/h6-10H2,1-5H3
computed SMILES=N1(CCCC)[Si](C)(C)CC[Si]1(C)C
accession=JP004963
date=2016.01.19 (Created 2008.10.21, modified 2011.05.06)
author=MASS SPECTROSCOPY SOC. OF JAPAN (MSSJ)
license=CC BY-NC-SA
exact mass=215.15255
ionization energy=70 eV
ion type=[M]+*
computed spectral entropy=2.5513444556155336
computed normalized entropy=0.6870324339443292
SPLASH=splash10-00di-2900000000-212cb433e79d1669c459
submitter=submitter = University of Tokyo Team (Faculty of Engineering, University of Tokyo)
MoNA Rating=3.75

>  <NUM PEAKS>  (4012) 
41

>  <MASS SPECTRAL PEAKS>  (4012) 
41 2.08
43 2.38
45 4.26
58 1.37
59 13.71
60 1.16
71 1.82
72 1.32
73 12.29
74 1.42
79 1.92
85 3.4
86 2.08
100 2.79
101 1.57
102 1.21
103 1.77
114 1.01
115 1.11
116 2.33
117 9.34
118 1.52
119 1.01
128 1.16
129 1.37
130 2.03
131 1.37
132 1.16
144 1.37
145 7.56
146 1.32
158 2.59
160 1.32
172 99.99
173 19.14
174 8.37
175 1.11
198 1.06
200 10.86
201 2.23
215 2.64

>  <PREDICTED SPECTRUM>  (4012) 
27 7
29 7
39 39
40 29
41 67
42 34
43 87
44 41
45 173
46 18
53 37
54 17
55 74
56 18
57 72
58 190
59 485
60 72
61 54
69 9
71 77
72 36
73 352
74 92
75 49
76 6
78 62
83 37
84 33
85 84
86 119
87 64
88 29
89 9
96 7
97 16
98 11
99 79
100 143
101 51
102 115
103 39
114 53
115 124
116 83
117 102
118 10
128 92
129 86
130 135
131 100
132 83
142 6
143 25
144 128
145 133
146 68
158 82
159 20
170 25
171 40
172 999
173 400
174 236
175 54
186 31
200 239
201 107
202 4
215 167
216 62
217 20

$$$$

     RDKit          2D

 13 13  0  0  0  0  0  0  0  0999 V2000
   -5.1962   -3.0000    0.0000 C   0  0  0  0  0  0  0  0  0  0  0  0
   -2.2632   -1.8991    0.0000 C   0  0  0  0  0  0  0  0  0  0  0  0
   -0.3349   -1.8991    0.0000 C   0  0  0  0  0  0  0  0  0  0  0  0
   -3.1111    2.9095    0.0000 C   0  0  0  0  0  0  0  0  0  0  0  0
   -4.0753    1.2395    0.0000 C   0  0  0  0  0  0  0  0  0  0  0  0
   -3.8971   -2.2500    0.0000 C   0  0  0  0  0  0  0  0  0  0  0  0
    0.0000    1.5000    0.0000 C   0  0  0  0  0  0  0  0  0  0  0  0
   -3.8971   -0.7500    0.0000 C   0  0  0  0  0  0  0  0  0  0  0  0
    0.0000   -0.0000    0.0000 C   0  0  0  0  0  0  0  0  0  0  0  0
   -1.2990    2.2500    0.0000 C   0  0  0  0  0  0  0  0  0  0  0  0
   -2.5981   -0.0000    0.0000 N   0  0  0  0  0  0  0  0  0  0  0  0
   -1.2990   -0.7500    0.0000 Si  0  0  0  0  0  4  0  0  0  0  0  0
   -2.5981    1.5000    0.0000 Si  0  0  0  0  0  4  0  0  0  0  0  0
  6  1  2  0
  8  6  1  0
  9  7  1  0
 10  7  1  0
 11  8  1  0
 12  2  1  0
 12  3  1  0
 12  9  1  0
 12 11  1  0
 13  4  1  0
 13  5  1  0
 13 10  1  0
 13 11  1  0
M  END
>  <NAME>  (4013) 
1-ALLYL-2,2,6,6-TETRAMETHYL-2,6-DISILAPIPERIDINE

>  <SYNONYMS>  (4013) 


>  <SPECTRUM TYPE>  (4013) 
MS1

>  <INSTRUMENT TYPE>  (4013) 
EI-B

>  <INSTRUMENT>  (4013) 
JEOL JMS-D-3000

>  <ION MODE>  (4013) 
P

>  <INCHIKEY>  (4013) 
LXIRELDZPWPPQB-UHFFFAOYSA-N

>  <FORMULA>  (4013) 
C10H23NSi2

>  <EXACT MASS>  (4013) 
213.136902796

>  <MW>  (4013) 
213

>  <ID>  (4013) 
JP004962

>  <CONTRIBUTOR>  (4013) 
University of Tokyo Team, {Faculty of Engineering, University of Tokyo

>  <COMMENT>  (4013) 
SMILES=C=CCN([Si](C)(C)1)[Si](C)(C)CCC1
InChI=InChI=1S/C10H23NSi2/c1-6-8-11-12(2,3)9-7-10-13(11,4)5/h6H,1,7-10H2,2-5H3
computed SMILES=C=CCN1[Si](C)(C)CCC[Si]1(C)C
accession=JP004962
date=2016.01.19 (Created 2008.10.21, modified 2011.05.06)
author=MASS SPECTROSCOPY SOC. OF JAPAN (MSSJ)
license=CC BY-NC-SA
exact mass=213.1369
ionization energy=70 eV
ion type=[M]+*
computed spectral entropy=2.830042259444363
computed normalized entropy=0.8686182948903471
SPLASH=splash10-0002-3910000000-3f3d7bc1e73268d48b5d
submitter=submitter = University of Tokyo Team (Faculty of Engineering, University of Tokyo)
MoNA Rating=3.75

>  <NUM PEAKS>  (4013) 
26

>  <MASS SPECTRAL PEAKS>  (4013) 
42 1.91
43 1.43
45 14.35
52 14.35
58 9.09
59 22
66 9.56
69 1.91
72 10.04
73 11
75 13.87
102 8.13
117 11.96
119 4.3
131 14.83
132 7.65
133 14.35
159 44.01
160 11
161 9.09
174 10.04
186 7.65
198 99.99
199 18.66
200 13.87
213 17.7

>  <PREDICTED SPECTRUM>  (4013) 
27 17
28 17
29 0
30 28
31 13
39 88
40 12
41 182
42 76
43 131
44 58
45 251
46 33
53 24
54 51
55 28
56 50
58 119
59 384
60 65
61 57
67 48
70 23
71 58
72 91
73 290
74 110
75 137
76 29
83 4
84 37
85 54
86 131
87 1
88 73
89 71
90 43
97 41
98 40
99 30
100 55
101 21
102 116
103 22
104 60
113 60
114 164
115 164
116 146
117 134
118 64
129 39
130 133
131 235
132 191
133 132
140 5
141 42
142 112
143 106
144 70
145 41
156 21
157 64
158 96
159 227
160 121
170 6
171 22
172 156
173 116
174 157
186 75
187 35
198 999
199 436
200 353
201 86
212 10
213 280
214 120
215 42

$$$$

     RDKit          2D

 11  6  0  0  0  0  0  0  0  0999 V2000
    1.9486    3.3750    0.0000 C   0  0  0  0  0  3  0  0  0  0  0  0
   -5.8457    3.3750    0.0000 C   0  0  0  0  0  0  0  0  0  0  0  0
    0.6495    4.1250    0.0000 C   0  0  0  0  0  0  0  0  0  0  0  0
   -4.5466    4.1250    0.0000 C   0  0  0  0  0  0  0  0  0  0  0  0
   -0.6495    3.3750    0.0000 C   0  0  0  0  0  0  0  0  0  0  0  0
   -3.2476    3.3750    0.0000 C   0  0  0  0  0  0  0  0  0  0  0  0
   -1.9486    4.1250    0.0000 C   0  0  0  0  0  0  0  0  0  0  0  0
    0.0000    0.0000    0.0000 C   0  0  0  0  0  3  0  0  0  0  0  0
    0.0000    0.0000    0.0000 C   0  0  0  0  0  3  0  0  0  0  0  0
    0.0000    0.0000    0.0000 C   0  0  0  0  0  3  0  0  0  0  0  0
    0.0000    0.0000    0.0000 Sn  0  0  0  0  0 15  0  0  0  0  0  0
  3  1  1  0
  4  2  1  0
  5  3  1  0
  6  4  1  0
  5  7  2  0
  7  6  1  0
M  RAD  4   1   2   8   2   9   2  10   2
M  END
>  <NAME>  (4014) 
3-HEPTENYLTRIMETHYLSTANNANE

>  <SYNONYMS>  (4014) 
1-TRIMETHYLSTANNYL-3-HEPTENE

>  <SPECTRUM TYPE>  (4014) 
MS1

>  <INSTRUMENT TYPE>  (4014) 
EI-B

>  <INSTRUMENT>  (4014) 
JEOL JMS-D-3000

>  <ION MODE>  (4014) 
P

>  <INCHIKEY>  (4014) 
TZNXFWLGOAUSQR-IGFSWITOSA-N

>  <FORMULA>  (4014) 
C10H22Sn

>  <EXACT MASS>  (4014) 
262.074345404

>  <MW>  (4014) 
262

>  <ID>  (4014) 
JP004961

>  <CONTRIBUTOR>  (4014) 
University of Tokyo Team, {Faculty of Engineering, University of Tokyo

>  <COMMENT>  (4014) 
SMILES=CCCC=CCC[Sn](C)(C)C
InChI=InChI=1S/C7H13.3CH3.Sn/c1-3-5-7-6-4-2;;;;/h5,7H,1,3-4,6H2,2H3;3*1H3;/b7-5+;;;;
computed SMILES=[Sn].[CH3].[CH3].[CH3].[CH2]CC=CCCC
accession=JP004961
date=2016.01.19 (Created 2008.10.21, modified 2011.05.06)
author=MASS SPECTROSCOPY SOC. OF JAPAN (MSSJ)
license=CC BY-NC-SA
exact mass=262.07435
ionization energy=70 eV
ion type=[M]+*
computed spectral entropy=3.2519015935028435
computed normalized entropy=0.8939723901268216
SPLASH=splash10-03xs-0920000000-1a30c2658f8f53a41cd2
submitter=submitter = University of Tokyo Team (Faculty of Engineering, University of Tokyo)
MoNA Rating=3.75

>  <NUM PEAKS>  (4014) 
38

>  <MASS SPECTRAL PEAKS>  (4014) 
41 5.54
55 6.89
118 7.5
120 5.08
131 10.83
132 10.41
133 18.2
134 7.92
135 24.03
137 5.36
139 6.43
146 6.3
147 19.75
148 14.67
149 31.15
150 17.69
151 35.72
153 8.51
155 6.73
157 5.02
161 45.2
162 25.14
163 75.07
164 28.93
165 99.99
166 5.3
167 15.19
169 18.57
243 15.76
244 9.55
245 26.1
246 11.58
247 34.13
248 5.15
249 7.46
251 9.19
260 5.38
262 7.16

>  <PREDICTED SPECTRUM>  (4014) 
25 10
26 112
27 328
28 174
29 176
37 44
38 145
39 659
40 277
41 999
42 189
43 241
49 69
50 129
51 204
52 189
53 457
54 585
55 819
56 219
57 75
62 49
63 83
65 227
66 120
67 952
68 291
69 387
70 53
71 13
77 211
78 98
79 224
80 38
81 222
82 55
93 24
94 11
95 46
96 57
120 20
121 152
124 77
125 87
134 48
135 541
136 211
137 139
138 71
149 29
150 67
151 138
152 195
153 197
163 126
164 88
165 283
166 235
167 141
177 12
178 39
179 73
180 327
181 136
191 252
192 253
193 187
194 237
195 97
196 4
203 93
204 59
205 647
206 246
207 28
208 81
217 69
218 260
219 233
220 737
221 294
222 133
232 27
233 609
234 446
235 14
246 35
247 306
262 378

$$$$

     RDKit          2D

 11 10  0  0  0  0  0  0  0  0999 V2000
    2.5111    3.6998    0.0000 C   0  0  0  0  0  0  0  0  0  0  0  0
    1.2120    5.9498    0.0000 C   0  0  0  0  0  0  0  0  0  0  0  0
   -6.0332    4.9988    0.0000 C   0  0  0  0  0  0  0  0  0  0  0  0
   -6.5822    2.9498    0.0000 C   0  0  0  0  0  0  0  0  0  0  0  0
   -4.5332    2.4007    0.0000 C   0  0  0  0  0  0  0  0  0  0  0  0
   -1.3861    4.4498    0.0000 C   0  0  0  0  0  0  0  0  0  0  0  0
   -2.6851    3.6998    0.0000 C   0  0  0  0  0  0  0  0  0  0  0  0
   -0.0870    3.6998    0.0000 C   0  0  0  0  0  0  0  0  0  0  0  0
   -3.9841    4.4498    0.0000 C   0  0  0  0  0  0  0  0  0  0  0  0
    1.2120    4.4498    0.0000 C   0  0  0  0  0  0  0  0  0  0  0  0
   -5.2832    3.6998    0.0000 Si  0  0  0  0  0  4  0  0  0  0  0  0
  7  6  1  0
  6  8  2  0
  9  7  1  0
 10  1  1  0
 10  2  1  0
 10  8  1  0
 11  3  1  0
 11  4  1  0
 11  5  1  0
 11  9  1  0
M  END
>  <NAME>  (4015) 
5-METHYL-3-HEXENYLTRIMETHYLSILANE

>  <SYNONYMS>  (4015) 
5-METHYL-1-TRIMETHYLSILYL-3-HEXENE

>  <SPECTRUM TYPE>  (4015) 
MS1

>  <INSTRUMENT TYPE>  (4015) 
EI-B

>  <INSTRUMENT>  (4015) 
JEOL JMS-D-3000

>  <ION MODE>  (4015) 
P

>  <INCHIKEY>  (4015) 
JULRGPRGMOYRIX-SOFGYWHQSA-N

>  <FORMULA>  (4015) 
C10H22Si

>  <EXACT MASS>  (4015) 
170.149077234

>  <MW>  (4015) 
170

>  <ID>  (4015) 
JP004960

>  <CONTRIBUTOR>  (4015) 
University of Tokyo Team, {Faculty of Engineering, University of Tokyo

>  <COMMENT>  (4015) 
SMILES=CC(C)C=CCC[Si](C)(C)C
InChI=InChI=1S/C10H22Si/c1-10(2)8-6-7-9-11(3,4)5/h6,8,10H,7,9H2,1-5H3/b8-6+
computed SMILES=C(=CC(C)C)CC[Si](C)(C)C
accession=JP004960
date=2016.01.19 (Created 2008.10.21, modified 2011.05.06)
author=MASS SPECTROSCOPY SOC. OF JAPAN (MSSJ)
license=CC BY-NC-SA
exact mass=170.14908
ionization energy=70 eV
ion type=[M]+*
computed spectral entropy=2.2059030735497287
computed normalized entropy=0.6619951046863402
SPLASH=splash10-00di-9200000000-4665438a32d8c0fcc91e
submitter=submitter = University of Tokyo Team (Faculty of Engineering, University of Tokyo)
MoNA Rating=3.75

>  <NUM PEAKS>  (4015) 
28

>  <MASS SPECTRAL PEAKS>  (4015) 
41 2.94
43 2.61
44 5.06
45 4.16
55 1.37
56 1.28
58 1.24
59 6.56
72 1.35
73 99.99
74 8.84
75 3.92
81 2.12
82 1.13
85 1.97
95 1.65
96 2.23
99 4.65
101 2.34
113 1.39
117 5.25
119 5.28
121 1.67
127 6.61
128 1.05
155 4.63
170 16.78
171 2.83

>  <PREDICTED SPECTRUM>  (4015) 
27 28
39 17
41 62
43 52
44 62
45 187
54 7
55 32
58 27
59 132
67 37
69 23
70 10
71 21
72 29
73 999
74 268
75 227
80 18
81 13
82 45
83 79
96 32
97 14
98 17
99 81
101 37
113 98
127 111
155 149
156 31
170 178
171 46

$$$$

     RDKit          2D

 17 17  0  0  0  0  0  0  0  0999 V2000
    4.8277   -3.2094    0.0000 C   0  0  0  0  0  0  0  0  0  0  0  0
    8.1753   -0.0079    0.0000 C   0  0  0  0  0  0  0  0  0  0  0  0
    8.7240    2.0412    0.0000 C   0  0  0  0  0  0  0  0  0  0  0  0
    6.6749    2.5900    0.0000 C   0  0  0  0  0  0  0  0  0  0  0  0
    4.8275   -1.7094    0.0000 C   0  0  0  0  0  0  0  0  0  0  0  0
   -1.6700   -0.9600    0.0000 C   0  0  0  0  0  0  0  0  0  0  0  0
   -0.3700   -1.7100    0.0000 C   0  0  0  0  0  0  0  0  0  0  0  0
   -1.6700    0.5400    0.0000 C   0  0  0  0  0  0  0  0  0  0  0  0
    3.5283   -0.9596    0.0000 C   0  0  0  0  0  0  0  0  0  0  0  0
    0.9300   -0.9600    0.0000 C   0  0  0  0  0  0  0  0  0  0  0  0
   -0.3700    1.2900    0.0000 C   0  0  0  0  0  0  0  0  0  0  0  0
    4.8270    1.2906    0.0000 C   0  0  0  0  0  0  0  0  0  0  0  0
    6.1262    0.5408    0.0000 C   0  0  0  0  0  0  0  0  0  0  0  0
    3.5281    0.5404    0.0000 C   0  0  0  0  0  0  0  0  0  0  0  0
    0.9300    0.5400    0.0000 C   0  0  0  0  0  0  0  0  0  0  0  0
    2.2289    1.2902    0.0000 S   0  0  0  0  0  0  0  0  0  0  0  0
    7.4251    1.2910    0.0000 Si  0  0  0  0  0  4  0  0  0  0  0  0
  5  1  2  0
  7  6  2  0
  8  6  1  0
  9  5  1  0
 10  7  1  0
 11  8  2  0
 13 12  1  0
 14  9  1  0
 14 12  1  0
 15 10  2  0
 15 11  1  0
 16 14  1  0
 16 15  1  0
 17  2  1  0
 17  3  1  0
 17  4  1  0
 17 13  1  0
M  END
>  <NAME>  (4016) 
(3-PHENYLTHIO-5-HEXENYL)TRIMETHYLSILANE

>  <SYNONYMS>  (4016) 
4-PHENYLTHIO-6-TRIMETHYLSILYL-1-HEXENE

>  <SPECTRUM TYPE>  (4016) 
MS1

>  <INSTRUMENT TYPE>  (4016) 
EI-B

>  <INSTRUMENT>  (4016) 
JEOL JMS-D-3000

>  <ION MODE>  (4016) 
P

>  <INCHIKEY>  (4016) 
LZQJZXYYZMVBJU-UHFFFAOYSA-N

>  <FORMULA>  (4016) 
C15H24SSi

>  <EXACT MASS>  (4016) 
264.13679829800003

>  <MW>  (4016) 
264

>  <ID>  (4016) 
JP004959

>  <CONTRIBUTOR>  (4016) 
University of Tokyo Team, {Faculty of Engineering, University of Tokyo

>  <COMMENT>  (4016) 
SMILES=C=CCC(CC[Si](C)(C)C)Sc(c1)cccc1
InChI=InChI=1S/C15H24SSi/c1-5-9-14(12-13-17(2,3)4)16-15-10-7-6-8-11-15/h5-8,10-11,14H,1,9,12-13H2,2-4H3
computed SMILES=S(C=1C=CC=CC1)C(CC=C)CC[Si](C)(C)C
accession=JP004959
date=2016.01.19 (Created 2008.10.21, modified 2011.05.06)
author=MASS SPECTROSCOPY SOC. OF JAPAN (MSSJ)
license=CC BY-NC-SA
exact mass=264.1368
ionization energy=70 eV
ion type=[M]+*
computed spectral entropy=2.161205125379762
computed normalized entropy=0.6633336674217086
SPLASH=splash10-00di-9110000000-ad431a8ac2d876adeb54
submitter=submitter = University of Tokyo Team (Faculty of Engineering, University of Tokyo)
MoNA Rating=3.75

>  <NUM PEAKS>  (4016) 
26

>  <MASS SPECTRAL PEAKS>  (4016) 
41 3.47
45 6.94
53 1.41
59 5.84
65 2.24
67 1.6
72 1.67
73 99.99
74 9.06
75 5.91
77 2.57
79 1.6
85 1.47
91 3.14
101 1.73
109 3.59
110 2.63
135 1.6
151 2.12
167 11.18
168 1.79
182 1.92
223 14.01
224 3.47
249 3.66
264 3.92

>  <PREDICTED SPECTRUM>  (4016) 
38 2
39 82
40 20
41 25
43 52
45 219
47 0
50 16
51 110
52 32
53 53
55 52
57 3
59 306
61 5
63 17
65 140
66 56
67 133
69 18
71 50
73 999
74 238
75 197
76 11
77 135
78 57
79 18
81 75
82 24
83 30
85 4
91 162
92 35
93 71
97 25
98 50
107 45
108 16
109 89
110 123
122 7
123 37
131 9
133 101
134 14
135 68
151 162
163 48
167 336
221 4
223 484
224 206
225 46
249 88
250 17
264 191
265 63

$$$$

     RDKit          2D

 14 13  0  0  0  0  0  0  0  0999 V2000
   -7.3825    3.7868    0.0000 C   0  0  0  0  0  0  0  0  0  0  0  0
   -3.4853    1.5368    0.0000 C   0  0  0  0  0  0  0  0  0  0  0  0
    1.1618    2.4877    0.0000 C   0  0  0  0  0  0  0  0  0  0  0  0
    1.7108    4.5368    0.0000 C   0  0  0  0  0  0  0  0  0  0  0  0
   -0.3382    5.0858    0.0000 C   0  0  0  0  0  0  0  0  0  0  0  0
   -6.0834    3.0368    0.0000 C   0  0  0  0  0  0  0  0  0  0  0  0
   -4.7844    3.7868    0.0000 C   0  0  0  0  0  0  0  0  0  0  0  0
   -3.4853    3.0368    0.0000 C   0  0  0  0  0  0  0  0  0  0  0  0
   -2.1863    3.7868    0.0000 C   0  0  0  0  0  0  0  0  0  0  0  0
   -0.8873    3.0368    0.0000 C   0  0  0  0  0  0  0  0  0  0  0  0
   -1.8514    1.8877    0.0000 Cl  0  0  0  0  0  0  0  0  0  0  0  0
    0.0769    1.8877    0.0000 Cl  0  0  0  0  0  0  0  0  0  0  0  0
   -2.1863    5.2868    0.0000 O   0  0  0  0  0  0  0  0  0  0  0  0
    0.4118    3.7868    0.0000 Si  0  0  0  0  0  4  0  0  0  0  0  0
  6  1  1  0
  7  6  1  0
  8  2  1  0
  8  7  1  0
  9  8  1  0
 10  9  1  0
 11 10  1  0
 12 10  1  0
 13  9  1  0
 14  3  1  0
 14  4  1  0
 14  5  1  0
 14 10  1  0
M  END
>  <NAME>  (4017) 
1,1-DICHLORO-3-METHYL-1-TRIMETHYLSILYL-2-HEXANOL

>  <SYNONYMS>  (4017) 


>  <SPECTRUM TYPE>  (4017) 
MS1

>  <INSTRUMENT TYPE>  (4017) 
EI-B

>  <INSTRUMENT>  (4017) 
JEOL JMS-D-3000

>  <ION MODE>  (4017) 
P

>  <INCHIKEY>  (4017) 
SSUALHCFYMRLAJ-UHFFFAOYSA-N

>  <FORMULA>  (4017) 
C10H22Cl2OSi

>  <EXACT MASS>  (4017) 
256.081697214

>  <MW>  (4017) 
256

>  <ID>  (4017) 
JP004958

>  <CONTRIBUTOR>  (4017) 
University of Tokyo Team, {Faculty of Engineering, University of Tokyo

>  <COMMENT>  (4017) 
SMILES=CCCC(C)C(O)C(Cl)(Cl)[Si](C)(C)C
cas=88920-81-4
InChI=InChI=1S/C10H22Cl2OSi/c1-6-7-8(2)9(13)10(11,12)14(3,4)5/h8-9,13H,6-7H2,1-5H3
computed SMILES=ClC(Cl)(C(O)C(C)CCC)[Si](C)(C)C
accession=JP004958
date=2016.01.19 (Created 2008.10.21, modified 2011.05.06)
author=MASS SPECTROSCOPY SOC. OF JAPAN (MSSJ)
license=CC BY-NC-SA
exact mass=256.0817
ionization energy=70 eV
ion type=[M]+*
computed spectral entropy=2.8124179997114442
computed normalized entropy=0.8268905576826663
SPLASH=splash10-00di-9200000000-befb85019e9f134cabdc
submitter=submitter = University of Tokyo Team (Faculty of Engineering, University of Tokyo)
MoNA Rating=3.75

>  <NUM PEAKS>  (4017) 
30

>  <MASS SPECTRAL PEAKS>  (4017) 
42 4.82
43 24.43
45 15.06
55 20.14
57 7.21
59 10.01
70 99.99
71 18.44
73 64.89
74 6.88
75 27.28
83 25.64
89 8.6
91 4.05
93 14.09
95 8.62
101 18.53
105 4.04
110 6.3
112 4.47
123 19.56
125 12.83
163 3.49
173 4.17
177 6.02
178 2.08
179 2.33
185 1.03
205 1.07
220 0.59

>  <PREDICTED SPECTRUM>  (4017) 
29 8
36 56
39 49
41 196
42 69
43 384
45 406
47 53
49 43
50 5
51 19
53 90
54 15
55 501
56 147
57 245
58 45
59 120
61 83
63 44
65 84
67 130
68 22
69 134
70 316
71 228
73 999
74 276
75 539
76 135
77 96
79 44
82 4
83 366
91 154
93 522
94 4
95 374
96 103
97 28
101 251
102 130
103 25
105 56
107 110
109 78
110 53
113 166
121 85
122 75
123 214
124 95
131 106
149 10
151 11
166 57
168 10
173 137
177 118
205 110

$$$$

     RDKit          2D

 14 13  0  0  0  0  0  0  0  0999 V2000
   -8.2697    4.9755    0.0000 C   0  0  0  0  0  0  0  0  0  0  0  0
    0.0736    2.9264    0.0000 C   0  0  0  0  0  0  0  0  0  0  0  0
    2.1226    3.4755    0.0000 C   0  0  0  0  0  0  0  0  0  0  0  0
    1.5736    5.5245    0.0000 C   0  0  0  0  0  0  0  0  0  0  0  0
   -6.9707    4.2255    0.0000 C   0  0  0  0  0  0  0  0  0  0  0  0
   -5.6716    4.9755    0.0000 C   0  0  0  0  0  0  0  0  0  0  0  0
   -4.3726    4.2255    0.0000 C   0  0  0  0  0  0  0  0  0  0  0  0
   -3.0736    4.9755    0.0000 C   0  0  0  0  0  0  0  0  0  0  0  0
   -1.7745    4.2255    0.0000 C   0  0  0  0  0  0  0  0  0  0  0  0
   -0.4755    4.9755    0.0000 C   0  0  0  0  0  0  0  0  0  0  0  0
    0.4887    6.1245    0.0000 Cl  0  0  0  0  0  0  0  0  0  0  0  0
   -1.4397    6.1245    0.0000 Cl  0  0  0  0  0  0  0  0  0  0  0  0
   -1.7745    2.7255    0.0000 O   0  0  0  0  0  0  0  0  0  0  0  0
    0.8236    4.2255    0.0000 Si  0  0  0  0  0  4  0  0  0  0  0  0
  5  1  1  0
  6  5  1  0
  7  6  1  0
  8  7  1  0
  9  8  1  0
 10  9  1  0
 11 10  1  0
 12 10  1  0
 13  9  1  0
 14  2  1  0
 14  3  1  0
 14  4  1  0
 14 10  1  0
M  END
>  <NAME>  (4018) 
1,1-DICHLORO-1-TRIMETHYLSILYL-2-HEPTANOL

>  <SYNONYMS>  (4018) 


>  <SPECTRUM TYPE>  (4018) 
MS1

>  <INSTRUMENT TYPE>  (4018) 
EI-B

>  <INSTRUMENT>  (4018) 
JEOL JMS-D-3000

>  <ION MODE>  (4018) 
P

>  <INCHIKEY>  (4018) 
OHGNPNQLXCOCCC-UHFFFAOYSA-N

>  <FORMULA>  (4018) 
C10H22Cl2OSi

>  <EXACT MASS>  (4018) 
256.081697214

>  <MW>  (4018) 
256

>  <ID>  (4018) 
JP004957

>  <CONTRIBUTOR>  (4018) 
University of Tokyo Team, {Faculty of Engineering, University of Tokyo

>  <COMMENT>  (4018) 
SMILES=CCCCCC(O)C(Cl)(Cl)[Si](C)(C)C
cas=88920-80-3
InChI=InChI=1S/C10H22Cl2OSi/c1-5-6-7-8-9(13)10(11,12)14(2,3)4/h9,13H,5-8H2,1-4H3
computed SMILES=ClC(Cl)(C(O)CCCCC)[Si](C)(C)C
accession=JP004957
date=2016.01.19 (Created 2008.10.21, modified 2011.05.06)
author=MASS SPECTROSCOPY SOC. OF JAPAN (MSSJ)
license=CC BY-NC-SA
exact mass=256.0817
ionization energy=70 eV
ion type=[M]+*
computed spectral entropy=2.5954369174839647
computed normalized entropy=0.8396639504786185
SPLASH=splash10-00di-9000000000-fe36138b3b45d855626e
submitter=submitter = University of Tokyo Team (Faculty of Engineering, University of Tokyo)
MoNA Rating=3.75

>  <NUM PEAKS>  (4018) 
22

>  <MASS SPECTRAL PEAKS>  (4018) 
42 11.25
43 7.6
45 10.08
55 10.38
57 15.61
68 11.61
70 30.88
73 99.99
74 8.69
75 54.37
76 4.49
83 23.93
91 11.91
93 32.18
95 25.7
99 5.09
143 5.15
149 11.2
163 8.99
173 3.73
177 1.28
220 2.07

>  <PREDICTED SPECTRUM>  (4018) 
36 64
39 43
40 2
41 202
42 124
43 323
44 75
45 345
47 84
49 67
50 4
51 47
52 14
53 95
54 53
55 469
56 146
57 332
58 97
59 128
60 9
61 57
63 42
65 95
67 141
68 41
69 86
70 238
71 179
72 116
73 999
74 288
75 709
76 199
77 125
78 16
79 105
80 26
82 72
83 527
84 42
85 33
91 134
93 660
94 154
95 485
96 99
97 23
101 187
102 118
103 95
104 49
105 64
107 127
109 70
110 156
111 15
113 124
121 98
122 36
123 96
124 47
130 7
131 93
132 69
133 26
139 53
140 20
149 138
151 35
166 142
167 61
168 190
170 20
173 70
174 14
177 93
205 98
241 41

$$$$

     RDKit          2D

 14 14  0  0  0  0  0  0  0  0999 V2000
    6.4962   -0.7508    0.0000 C   0  0  0  0  0  0  0  0  0  0  0  0
    2.1474   -4.0587    0.0000 C   0  0  0  0  0  0  0  0  0  0  0  0
    5.0402   -2.3892    0.0000 C   0  0  0  0  0  0  0  0  0  0  0  0
    5.1970   -1.5006    0.0000 C   0  0  0  0  0  0  0  0  0  0  0  0
   -1.3000    0.7500    0.0000 C   0  0  0  0  0  0  0  0  0  0  0  0
    0.0000    1.5000    0.0000 C   0  0  0  0  0  0  0  0  0  0  0  0
   -1.3000   -0.7500    0.0000 C   0  0  0  0  0  0  0  0  0  0  0  0
    1.3000    0.7500    0.0000 C   0  0  0  0  0  0  0  0  0  0  0  0
   -0.0000   -1.5000    0.0000 C   0  0  0  0  0  0  0  0  0  0  0  0
    1.3000   -0.7500    0.0000 C   0  0  0  0  0  0  0  0  0  0  0  0
    1.6346   -2.6491    0.0000 O   0  0  0  0  0  0  0  0  0  0  0  0
    3.5629   -2.6494    0.0000 O   0  0  0  0  0  0  0  0  0  0  0  0
    3.8981   -0.7504    0.0000 O   0  0  0  0  0  0  0  0  0  0  0  0
    2.5989   -1.5002    0.0000 Si  0  0  0  0  0  4  0  0  0  0  0  0
  4  1  1  0
  6  5  2  0
  7  5  1  0
  8  6  1  0
  9  7  2  0
 10  8  2  0
 10  9  1  0
 11  2  1  0
 12  3  1  0
 13  4  1  0
 14 10  1  0
 14 11  1  0
 14 12  1  0
 14 13  1  0
M  END
>  <NAME>  (4019) 
ETHOXY DIMETHOXY PHENYLSILANE

>  <SYNONYMS>  (4019) 


>  <SPECTRUM TYPE>  (4019) 
MS1

>  <INSTRUMENT TYPE>  (4019) 
EI-B

>  <INSTRUMENT>  (4019) 
JEOL JMS-D-3000

>  <ION MODE>  (4019) 
P

>  <INCHIKEY>  (4019) 
CBXRNQWZWLYUFD-UHFFFAOYSA-N

>  <FORMULA>  (4019) 
C10H16O3Si

>  <EXACT MASS>  (4019) 
212.086870902

>  <MW>  (4019) 
212

>  <ID>  (4019) 
JP004956

>  <CONTRIBUTOR>  (4019) 
University of Tokyo Team, {Faculty of Engineering, University of Tokyo

>  <COMMENT>  (4019) 
SMILES=CCO[Si](OC)(OC)c(c1)cccc1
InChI=InChI=1S/C10H16O3Si/c1-4-13-14(11-2,12-3)10-8-6-5-7-9-10/h5-9H,4H2,1-3H3
computed SMILES=O(C)[Si](OC)(OCC)C=1C=CC=CC1
accession=JP004956
date=2016.01.19 (Created 2008.10.21, modified 2011.05.06)
author=MASS SPECTROSCOPY SOC. OF JAPAN (MSSJ)
license=CC BY-NC-SA
exact mass=212.08687
ionization energy=70 eV
ion type=[M]+*
computed spectral entropy=2.641556609724572
computed normalized entropy=0.8971340986908097
SPLASH=splash10-014i-2900000000-c4adbbc57b9b07d88a9c
submitter=submitter = University of Tokyo Team (Faculty of Engineering, University of Tokyo)
MoNA Rating=3.75

>  <NUM PEAKS>  (4019) 
19

>  <MASS SPECTRAL PEAKS>  (4019) 
59 15.1
77 18.78
84 9.31
90 23
91 40.36
104 24.89
105 11.05
107 61.05
119 77.68
120 11.42
121 9.84
123 11.89
134 82.73
135 20.47
136 11.47
137 25.15
167 99.99
168 16.52
212 39.63

>  <PREDICTED SPECTRUM>  (4019) 
27 40
29 98
31 10
39 71
45 110
47 3
50 110
51 214
52 49
53 41
55 17
59 112
61 7
62 79
63 182
64 67
65 254
66 77
67 5
75 95
76 28
77 403
78 234
79 235
80 26
81 3
89 140
90 198
91 706
92 269
93 108
95 1
103 115
104 291
105 383
106 210
107 495
108 95
109 102
117 148
118 139
119 634
120 334
121 334
122 118
123 101
133 55
134 669
135 636
136 325
137 260
139 43
151 71
165 91
166 57
167 999
168 372
169 51
180 19
195 2
212 354
213 98

$$$$

     RDKit          2D

 13 13  0  0  0  0  0  0  0  0999 V2000
    5.5772   -0.0083    0.0000 C   0  0  0  0  0  0  0  0  0  0  0  0
    6.1259    2.0408    0.0000 C   0  0  0  0  0  0  0  0  0  0  0  0
    4.0768    2.5895    0.0000 C   0  0  0  0  0  0  0  0  0  0  0  0
   -1.6700   -0.9600    0.0000 C   0  0  0  0  0  0  0  0  0  0  0  0
   -0.3700   -1.7100    0.0000 C   0  0  0  0  0  0  0  0  0  0  0  0
   -1.6700    0.5400    0.0000 C   0  0  0  0  0  0  0  0  0  0  0  0
    0.9300   -0.9600    0.0000 C   0  0  0  0  0  0  0  0  0  0  0  0
   -0.3700    1.2900    0.0000 C   0  0  0  0  0  0  0  0  0  0  0  0
    0.9300    0.5400    0.0000 C   0  0  0  0  0  0  0  0  0  0  0  0
    3.5281    0.5404    0.0000 C   0  0  0  0  0  0  0  0  0  0  0  0
    3.5283   -0.9596    0.0000 Cl  0  0  0  0  0  0  0  0  0  0  0  0
    2.2289    1.2902    0.0000 S   0  0  0  0  0  0  0  0  0  0  0  0
    4.8270    1.2906    0.0000 Si  0  0  0  0  0  4  0  0  0  0  0  0
  5  4  2  0
  6  4  1  0
  7  5  1  0
  8  6  2  0
  9  7  2  0
  9  8  1  0
 11 10  1  0
 12  9  1  0
 12 10  1  0
 13  1  1  0
 13  2  1  0
 13  3  1  0
 13 10  1  0
M  END
>  <NAME>  (4020) 
CHLORO(TRIMETHYLSILYL)METHYL PHENYL SULFIDE

>  <SYNONYMS>  (4020) 


>  <SPECTRUM TYPE>  (4020) 
MS1

>  <INSTRUMENT TYPE>  (4020) 
EI-B

>  <INSTRUMENT>  (4020) 
JEOL JMS-D-3000

>  <ION MODE>  (4020) 
P

>  <INCHIKEY>  (4020) 
QNJUWMRZLQBWEU-UHFFFAOYSA-N

>  <FORMULA>  (4020) 
C10H15ClSSi

>  <EXACT MASS>  (4020) 
230.03522568999998

>  <MW>  (4020) 
230

>  <ID>  (4020) 
JP004955

>  <CONTRIBUTOR>  (4020) 
University of Tokyo Team, {Faculty of Engineering, University of Tokyo

>  <COMMENT>  (4020) 
SMILES=c(c1)ccc(c1)SC(Cl)[Si](C)(C)C
cas=79239-13-7
InChI=InChI=1S/C10H15ClSSi/c1-13(2,3)10(11)12-9-7-5-4-6-8-9/h4-8,10H,1-3H3
computed SMILES=ClC(SC=1C=CC=CC1)[Si](C)(C)C
accession=JP004955
date=2016.01.19 (Created 2008.10.21, modified 2011.05.06)
author=MASS SPECTROSCOPY SOC. OF JAPAN (MSSJ)
license=CC BY-NC-SA
exact mass=230.03523
ionization energy=70 eV
ion type=[M]+*
computed spectral entropy=3.251165303281443
computed normalized entropy=0.8353842300631907
SPLASH=splash10-00di-8900000000-f3c3b068d626091fc670
submitter=submitter = University of Tokyo Team (Faculty of Engineering, University of Tokyo)
MoNA Rating=3.75

>  <NUM PEAKS>  (4020) 
49

>  <MASS SPECTRAL PEAKS>  (4020) 
43 14.62
44 9.91
45 16.28
50 2.97
51 10.7
55 5.11
57 4.04
58 3.62
59 10.66
63 3.91
65 7.96
66 4.67
69 3.91
71 23.88
72 2.64
73 87.21
74 8.29
75 11.25
77 15.73
78 23.88
79 4.35
85 4.21
91 7.58
93 16.55
95 6.55
99 3.43
103 2.66
105 7.16
109 10.95
110 11.19
113 4.67
121 99.99
122 85.68
123 17.26
124 4.94
135 9.13
136 3.41
137 6.51
151 20.55
152 2.95
153 3.58
165 3.1
167 15.46
179 3.37
187 6.01
195 8.17
196 2.55
230 10.47
232 4.25

>  <PREDICTED SPECTRUM>  (4020) 
26 9
27 32
29 79
31 29
35 1
37 15
38 85
39 230
40 54
41 155
42 66
43 323
44 107
45 481
46 44
47 102
49 40
50 159
51 272
52 102
53 120
55 15
56 10
57 146
58 190
59 228
60 94
61 136
62 85
63 215
64 84
65 378
66 222
67 23
69 150
71 120
72 3
73 999
74 283
75 206
76 75
77 266
78 196
79 164
80 1
81 160
82 38
83 46
84 14
85 160
86 36
89 40
90 72
91 247
92 79
93 440
94 60
95 223
97 67
99 57
102 48
103 61
104 72
105 43
109 436
110 414
111 6
117 27
118 0
119 50
120 139
121 910
122 698
123 578
124 226
125 71
131 60
134 13
135 399
137 369
138 93
139 40
147 54
149 115
151 287
152 8
153 17
167 547
177 59
179 131
187 33
195 278
196 39
203 15
215 90
217 19
230 215
231 70
232 124
233 35

$$$$

     RDKit          2D

 13 12  0  0  0  0  0  0  0  0999 V2000
   -5.3469    4.4130    0.0000 C   0  0  0  0  0  0  0  0  0  0  0  0
   -4.0478    2.1630    0.0000 C   0  0  0  0  0  0  0  0  0  0  0  0
    0.3983    2.3639    0.0000 C   0  0  0  0  0  0  0  0  0  0  0  0
    2.4474    2.9130    0.0000 C   0  0  0  0  0  0  0  0  0  0  0  0
    1.8983    4.9620    0.0000 C   0  0  0  0  0  0  0  0  0  0  0  0
   -2.7488    4.4130    0.0000 C   0  0  0  0  0  0  0  0  0  0  0  0
   -4.0478    3.6630    0.0000 C   0  0  0  0  0  0  0  0  0  0  0  0
   -1.4498    3.6630    0.0000 C   0  0  0  0  0  0  0  0  0  0  0  0
   -0.1507    4.4130    0.0000 C   0  0  0  0  0  0  0  0  0  0  0  0
    0.8135    5.5620    0.0000 Cl  0  0  0  0  0  0  0  0  0  0  0  0
   -1.1149    5.5620    0.0000 Cl  0  0  0  0  0  0  0  0  0  0  0  0
   -1.4498    2.1630    0.0000 O   0  0  0  0  0  0  0  0  0  0  0  0
    1.1483    3.6630    0.0000 Si  0  0  0  0  0  4  0  0  0  0  0  0
  7  1  1  0
  7  2  1  0
  7  6  1  0
  8  6  1  0
  9  8  1  0
 10  9  1  0
 11  9  1  0
 12  8  1  0
 13  3  1  0
 13  4  1  0
 13  5  1  0
 13  9  1  0
M  END
>  <NAME>  (4021) 
1,1-DICHLORO-4-METHYL-1-TRIMETHYLSILYL-2-PENTANOL

>  <SYNONYMS>  (4021) 


>  <SPECTRUM TYPE>  (4021) 
MS1

>  <INSTRUMENT TYPE>  (4021) 
EI-B

>  <INSTRUMENT>  (4021) 
JEOL JMS-D-3000

>  <ION MODE>  (4021) 
P

>  <INCHIKEY>  (4021) 
JIFGAVHEDYIENH-UHFFFAOYSA-N

>  <FORMULA>  (4021) 
C9H20Cl2OSi

>  <EXACT MASS>  (4021) 
242.06604715

>  <MW>  (4021) 
242

>  <ID>  (4021) 
JP004954

>  <CONTRIBUTOR>  (4021) 
University of Tokyo Team, {Faculty of Engineering, University of Tokyo

>  <COMMENT>  (4021) 
SMILES=CC(C)CC(O)C(Cl)(Cl)[Si](C)(C)C
cas=88920-85-8
InChI=InChI=1S/C9H20Cl2OSi/c1-7(2)6-8(12)9(10,11)13(3,4)5/h7-8,12H,6H2,1-5H3
computed SMILES=ClC(Cl)(C(O)CC(C)C)[Si](C)(C)C
accession=JP004954
date=2016.01.19 (Created 2008.10.21, modified 2011.05.06)
author=MASS SPECTROSCOPY SOC. OF JAPAN (MSSJ)
license=CC BY-NC-SA
exact mass=242.06605
ionization energy=70 eV
ion type=[M]+*
computed spectral entropy=2.9833498048560196
computed normalized entropy=0.85323705223299
SPLASH=splash10-0596-9100000000-addedf71efbfcfde4254
submitter=submitter = University of Tokyo Team (Faculty of Engineering, University of Tokyo)
MoNA Rating=3.75

>  <NUM PEAKS>  (4021) 
33

>  <MASS SPECTRAL PEAKS>  (4021) 
41 36.15
43 99.99
45 53.85
55 19.98
56 46.52
57 14.08
58 25.59
59 44.33
69 70.21
73 93.43
74 30.54
75 44.24
81 14.84
87 25.3
93 27.68
95 12.55
110 13.03
152 15.98
154 12.74
163 12.55
164 6.94
165 6.27
166 1.99
169 1.71
183 5.42
185 2.85
187 2.18
191 10.18
192 1.33
193 4.18
198 1.04
206 4.18
208 1.99

>  <PREDICTED SPECTRUM>  (4021) 
26 2
27 115
28 24
29 153
31 95
35 22
36 83
37 9
38 45
39 120
40 69
41 371
42 206
43 566
44 90
45 396
46 43
47 110
49 81
50 21
51 84
52 44
53 128
54 23
55 410
56 155
57 270
58 215
59 243
60 44
61 91
62 11
63 52
65 58
67 73
68 40
69 440
70 222
71 195
72 70
73 999
74 260
75 385
76 132
77 214
78 125
79 156
80 20
81 167
82 87
83 118
85 72
86 28
87 100
89 20
91 121
93 622
94 92
95 387
96 76
97 102
98 2
99 93
100 39
101 12
102 72
105 50
106 37
107 138
108 45
109 211
110 142
111 59
112 29
113 124
114 39
115 0
117 110
118 3
119 12
123 51
135 16
137 87
141 4
142 11
151 37
152 137
154 160
155 1
156 75
159 12
163 188
164 121
165 171
166 103
167 19
185 68
187 52
189 83
191 242
192 15
193 32

$$$$

     RDKit          2D

 10  9  0  0  0  0  0  0  0  0999 V2000
    2.1863    4.2623    0.0000 C   0  0  0  0  0  0  0  0  0  0  0  0
   -6.3579    5.5613    0.0000 C   0  0  0  0  0  0  0  0  0  0  0  0
   -6.9070    3.5123    0.0000 C   0  0  0  0  0  0  0  0  0  0  0  0
   -4.8579    2.9632    0.0000 C   0  0  0  0  0  0  0  0  0  0  0  0
    0.8873    5.0123    0.0000 C   0  0  0  0  0  0  0  0  0  0  0  0
   -0.4118    4.2623    0.0000 C   0  0  0  0  0  0  0  0  0  0  0  0
   -1.7108    5.0123    0.0000 C   0  0  0  0  0  0  0  0  0  0  0  0
   -3.0099    4.2623    0.0000 C   0  0  0  0  0  0  0  0  0  0  0  0
   -4.3089    5.0123    0.0000 C   0  0  0  0  0  0  0  0  0  0  0  0
   -5.6079    4.2623    0.0000 Si  0  0  0  0  0  4  0  0  0  0  0  0
  5  1  1  0
  6  5  1  0
  6  7  2  0
  8  7  1  0
  9  8  1  0
 10  2  1  0
 10  3  1  0
 10  4  1  0
 10  9  1  0
M  END
>  <NAME>  (4022) 
3-HEXENYLTRIMETHYLSILANE

>  <SYNONYMS>  (4022) 
1-TRIMETHYLSILYL-3-HEXENE

>  <SPECTRUM TYPE>  (4022) 
MS1

>  <INSTRUMENT TYPE>  (4022) 
EI-B

>  <INSTRUMENT>  (4022) 
JEOL JMS-D-3000

>  <ION MODE>  (4022) 
P

>  <INCHIKEY>  (4022) 
VLFAYCDTMFFDTR-VOTSOKGWSA-N

>  <FORMULA>  (4022) 
C9H20Si

>  <EXACT MASS>  (4022) 
156.13342717

>  <MW>  (4022) 
156

>  <ID>  (4022) 
JP004953

>  <CONTRIBUTOR>  (4022) 
University of Tokyo Team, {Faculty of Engineering, University of Tokyo

>  <COMMENT>  (4022) 
SMILES=CCC=CCC[Si](C)(C)C
cas=103110-63-0
InChI=InChI=1S/C9H20Si/c1-5-6-7-8-9-10(2,3)4/h6-7H,5,8-9H2,1-4H3/b7-6+
computed SMILES=C(=CCC[Si](C)(C)C)CC
accession=JP004953
date=2016.01.19 (Created 2008.10.21, modified 2011.05.06)
author=MASS SPECTROSCOPY SOC. OF JAPAN (MSSJ)
license=CC BY-NC-SA
exact mass=156.13343
ionization energy=70 eV
ion type=[M]+*
computed spectral entropy=1.7454575086428061
computed normalized entropy=0.5826480303502156
SPLASH=splash10-00di-9100000000-db10523a2a81664de191
submitter=submitter = University of Tokyo Team (Faculty of Engineering, University of Tokyo)
MoNA Rating=3.75

>  <NUM PEAKS>  (4022) 
20

>  <MASS SPECTRAL PEAKS>  (4022) 
41 1.71
43 3.4
44 1.36
45 5.84
58 1.15
59 10.53
67 1.23
72 1.28
73 99.99
74 8.76
75 3.84
78 1.01
81 1.4
82 1.59
85 2.76
99 4.45
113 6.35
141 2.6
156 7.02
157 1.04

>  <PREDICTED SPECTRUM>  (4022) 
29 2
39 22
41 41
43 114
44 79
45 188
53 24
54 6
55 44
58 48
59 344
60 44
67 21
71 13
72 38
73 999
74 261
75 142
82 76
85 139
86 47
87 6
89 33
99 95
100 42
101 40
113 166
114 39
115 5
127 35
128 4
141 115
142 18
156 164
157 47
158 0

$$$$

     RDKit          2D

 12 12  0  0  0  0  0  0  0  0999 V2000
   -0.7332   -2.5705    0.0000 C   0  0  0  0  0  0  0  0  0  0  0  0
   -0.2202   -0.9800    0.0000 C   0  0  0  0  0  0  0  0  0  0  0  0
    0.7440    0.6900    0.0000 C   0  0  0  0  0  0  0  0  0  0  0  0
   -4.8085    0.6900    0.0000 C   0  0  0  0  0  0  0  0  0  0  0  0
   -3.8443   -0.9800    0.0000 C   0  0  0  0  0  0  0  0  0  0  0  0
   -2.0323   -1.8205    0.0000 C   0  0  0  0  0  0  0  0  0  0  0  0
   -2.0323    2.6795    0.0000 C   0  0  0  0  0  0  0  0  0  0  0  0
   -0.7332    1.9295    0.0000 C   0  0  0  0  0  0  0  0  0  0  0  0
   -3.3313    1.9295    0.0000 C   0  0  0  0  0  0  0  0  0  0  0  0
   -2.0323   -0.3205    0.0000 N   0  0  0  0  0  0  0  0  0  0  0  0
   -0.7332    0.4295    0.0000 Si  0  0  0  0  0  4  0  0  0  0  0  0
   -3.3313    0.4295    0.0000 Si  0  0  0  0  0  4  0  0  0  0  0  0
  6  1  1  0
  8  7  1  0
  9  7  1  0
 10  6  1  0
 11  2  1  0
 11  3  1  0
 11  8  1  0
 11 10  1  0
 12  4  1  0
 12  5  1  0
 12  9  1  0
 12 10  1  0
M  END
>  <NAME>  (4023) 
1-ETHYL-2,2,6,6-TETRAMETHYL-2,6-DISILAPIPERIDINE

>  <SYNONYMS>  (4023) 


>  <SPECTRUM TYPE>  (4023) 
MS1

>  <INSTRUMENT TYPE>  (4023) 
EI-B

>  <INSTRUMENT>  (4023) 
JEOL JMS-D-3000

>  <ION MODE>  (4023) 
P

>  <INCHIKEY>  (4023) 
WIXJPVASNJQNDE-UHFFFAOYSA-N

>  <FORMULA>  (4023) 
C9H23NSi2

>  <EXACT MASS>  (4023) 
201.136902796

>  <MW>  (4023) 
201

>  <ID>  (4023) 
JP004952

>  <CONTRIBUTOR>  (4023) 
University of Tokyo Team, {Faculty of Engineering, University of Tokyo

>  <COMMENT>  (4023) 
SMILES=CCN([Si](C)(C)1)[Si](C)(C)CCC1
InChI=InChI=1S/C9H23NSi2/c1-6-10-11(2,3)8-7-9-12(10,4)5/h6-9H2,1-5H3
computed SMILES=N1(CC)[Si](C)(C)CCC[Si]1(C)C
accession=JP004952
date=2016.01.19 (Created 2008.10.21, modified 2011.05.06)
author=MASS SPECTROSCOPY SOC. OF JAPAN (MSSJ)
license=CC BY-NC-SA
exact mass=201.1369
ionization energy=70 eV
ion type=[M]+*
computed spectral entropy=2.1463077452687487
computed normalized entropy=0.6943637228071248
SPLASH=splash10-000i-2900000000-cf6c02f8a7b22730befb
submitter=submitter = University of Tokyo Team (Faculty of Engineering, University of Tokyo)
MoNA Rating=3.75

>  <NUM PEAKS>  (4023) 
22

>  <MASS SPECTRAL PEAKS>  (4023) 
45 4.7
59 14.93
70 1.57
73 9.23
85 3.18
86 4.6
88 3.09
99 1.89
100 6.45
101 2.04
102 1.84
115 1.57
116 1.54
117 4.68
130 1.8
144 2.19
158 11.44
186 99.99
187 20.04
188 8.61
201 8.57
202 1.89

>  <PREDICTED SPECTRUM>  (4023) 
27 31
28 17
29 18
39 42
41 1
42 54
43 133
44 45
45 181
46 37
47 7
58 51
59 294
60 34
61 28
70 3
72 24
73 298
74 58
75 77
84 64
85 77
86 89
89 2
100 97
101 65
102 120
103 52
114 26
115 71
116 4
117 1
118 10
119 11
124 86
126 9
128 33
129 116
130 97
131 74
142 38
143 3
144 79
156 2
157 6
158 123
159 40
160 21
170 25
172 56
186 999
187 424
188 239
189 8
200 5
201 279
202 115
203 37

$$$$

     RDKit          2D

 11 11  0  0  0  0  0  0  0  0999 V2000
   -0.6456    2.6126    0.0000 C   0  0  0  0  0  0  0  0  0  0  0  0
    0.6494    0.3696    0.0000 C   0  0  0  0  0  0  0  0  0  0  0  0
   -1.9447    1.8626    0.0000 C   0  0  0  0  0  0  0  0  0  0  0  0
   -0.6497   -0.3804    0.0000 C   0  0  0  0  0  0  0  0  0  0  0  0
    1.9392    2.6356    0.0000 C   0  0  0  0  0  0  0  0  0  0  0  0
    0.6439    1.8791    0.0000 C   0  0  0  0  0  0  0  0  0  0  0  0
   -1.9628    0.3741    0.0000 C   0  0  0  0  0  0  0  0  0  0  0  0
    3.2419    1.8921    0.0000 C   0  0  0  0  0  0  0  0  0  0  0  0
   -3.2656   -0.3693    0.0000 Cl  0  0  0  0  0  0  0  0  0  0  0  0
    4.5372    2.6487    0.0000 Cl  0  0  0  0  0  0  0  0  0  0  0  0
    3.2495    0.3922    0.0000 Cl  0  0  0  0  0  0  0  0  0  0  0  0
  3  1  2  0
  4  2  1  0
  6  1  1  0
  6  2  2  0
  6  5  1  0
  7  3  1  0
  7  4  2  0
  8  5  2  0
  9  7  1  0
 10  8  1  0
 11  8  1  0
M  END
>  <NAME>  (4024) 
1,1-DICHLORO-2-(P-CHLOROPHENYL)ETHENE

>  <SYNONYMS>  (4024) 
4,BETA,BETA-TRICHLOROSTYRENE

>  <SPECTRUM TYPE>  (4024) 
MS1

>  <INSTRUMENT TYPE>  (4024) 
EI-B

>  <INSTRUMENT>  (4024) 
JEOL JMS-D-3000

>  <ION MODE>  (4024) 
P

>  <INCHIKEY>  (4024) 
XHNKLLVUWOTSGX-UHFFFAOYSA-N

>  <FORMULA>  (4024) 
C8H5Cl3

>  <EXACT MASS>  (4024) 
205.9456832

>  <MW>  (4024) 
206

>  <ID>  (4024) 
JP004951

>  <CONTRIBUTOR>  (4024) 
University of Tokyo Team, {Faculty of Engineering, University of Tokyo

>  <COMMENT>  (4024) 
SMILES=Clc(c1)ccc(c1)C=C(Cl)Cl
cas=5263-17-2
InChI=InChI=1S/C8H5Cl3/c9-7-3-1-6(2-4-7)5-8(10)11/h1-5H
computed SMILES=ClC(Cl)=CC1=CC=C(Cl)C=C1
accession=JP004951
date=2016.01.19 (Created 2008.10.21, modified 2011.05.06)
author=MASS SPECTROSCOPY SOC. OF JAPAN (MSSJ)
license=CC BY-NC-SA
exact mass=205.94568
ionization energy=70 eV
ion type=[M]+*
computed spectral entropy=2.8289121945856817
computed normalized entropy=0.8489611564798406
SPLASH=splash10-0a4i-2690000000-b64f370d844d59577808
submitter=submitter = University of Tokyo Team (Faculty of Engineering, University of Tokyo)
MoNA Rating=3.75

>  <NUM PEAKS>  (4024) 
28

>  <MASS SPECTRAL PEAKS>  (4024) 
50 10.64
67 7.74
68 11.31
74 14.75
75 8.28
85 15.49
86 9.4
99 7.46
100 5.71
101 9.7
103 6.82
104 6.46
135 11.21
136 44.37
137 6.59
138 13.84
146 8.91
148 5.61
170 7.29
171 26.15
172 8.97
173 17.33
206 99.99
207 6.69
208 97.82
209 14.72
210 32.54
212 5.88

>  <PREDICTED SPECTRUM>  (4024) 
25 5
26 2
35 38
36 40
37 21
38 15
43 9
44 49
47 31
49 81
50 264
51 226
52 17
60 96
61 104
62 130
63 154
67 24
68 70
72 20
73 167
74 322
75 414
76 129
77 89
79 18
80 26
81 33
84 86
85 201
86 194
87 118
91 39
93 38
94 10
96 15
97 55
98 148
99 221
100 250
101 387
102 181
103 178
105 44
109 124
110 68
111 68
120 10
123 3
133 138
134 78
135 293
136 914
137 372
138 395
139 122
140 6
154 3
170 200
171 633
172 286
173 496
174 134
175 145
206 999
207 279
208 912
209 266
210 523
211 121

$$$$

     RDKit          2D

 13 13  0  0  0  0  0  0  0  0999 V2000
    3.2478    1.4446    0.0000 C   0  0  0  0  0  0  0  0  0  0  0  0
    3.2483    2.9454    0.0000 C   0  0  0  0  0  0  0  0  0  0  0  0
    1.9483    0.6938    0.0000 C   0  0  0  0  0  0  0  0  0  0  0  0
    1.9493    3.6954    0.0000 C   0  0  0  0  0  0  0  0  0  0  0  0
    0.6493    1.4438    0.0000 C   0  0  0  0  0  0  0  0  0  0  0  0
   -0.6493    3.6946    0.0000 C   0  0  0  0  0  0  0  0  0  0  0  0
   -1.9483    2.9446    0.0000 C   0  0  0  0  0  0  0  0  0  0  0  0
    0.6498    2.9446    0.0000 C   0  0  0  0  0  0  0  0  0  0  0  0
   -3.2474    3.6946    0.0000 C   0  0  0  0  0  0  0  0  0  0  0  0
   -4.5464    2.9446    0.0000 C   0  0  0  0  0  0  0  0  0  0  0  0
   -5.8454    3.6946    0.0000 Cl  0  0  0  0  0  0  0  0  0  0  0  0
   -4.5464    1.4446    0.0000 Cl  0  0  0  0  0  0  0  0  0  0  0  0
   -3.2474    5.1946    0.0000 O   0  0  0  0  0  0  0  0  0  0  0  0
  2  1  2  0
  3  1  1  0
  4  2  1  0
  5  3  2  0
  7  6  1  0
  8  4  2  0
  8  5  1  0
  8  6  1  0
  9  7  1  0
 10  9  1  0
 11 10  1  0
 12 10  1  0
 13  9  1  0
M  END
>  <NAME>  (4025) 
1,1-DICHLORO-4-PHENYL-2-BUTANOL

>  <SYNONYMS>  (4025) 


>  <SPECTRUM TYPE>  (4025) 
MS1

>  <INSTRUMENT TYPE>  (4025) 
EI-B

>  <INSTRUMENT>  (4025) 
JEOL JMS-D-3000

>  <ION MODE>  (4025) 
P

>  <INCHIKEY>  (4025) 
AVSJCXYYYDSTTG-UHFFFAOYSA-N

>  <FORMULA>  (4025) 
C10H12Cl2O

>  <EXACT MASS>  (4025) 
218.026520364

>  <MW>  (4025) 
218

>  <ID>  (4025) 
JP004950

>  <CONTRIBUTOR>  (4025) 
University of Tokyo Team, {Faculty of Engineering, University of Tokyo

>  <COMMENT>  (4025) 
SMILES=ClC(Cl)C(O)CCc(c1)cccc1
InChI=InChI=1S/C10H12Cl2O/c11-10(12)9(13)7-6-8-4-2-1-3-5-8/h1-5,9-10,13H,6-7H2
computed SMILES=ClC(Cl)C(O)CCC=1C=CC=CC1
accession=JP004950
date=2016.01.19 (Created 2008.10.21, modified 2011.05.06)
author=MASS SPECTROSCOPY SOC. OF JAPAN (MSSJ)
license=CC BY-NC-SA
exact mass=218.02652
ionization energy=70 eV
ion type=[M]+*
computed spectral entropy=2.3130917226338026
computed normalized entropy=0.709951867797771
SPLASH=splash10-0006-9600000000-5f0243cc4ae7922a4c0a
submitter=submitter = University of Tokyo Team (Faculty of Engineering, University of Tokyo)
MoNA Rating=3.75

>  <NUM PEAKS>  (4025) 
26

>  <MASS SPECTRAL PEAKS>  (4025) 
49 1.23
65 7.17
68 1.43
83 2.16
85 1.94
89 1.33
91 99.99
92 22.39
104 17.67
105 1.99
117 26.57
118 3.42
125 10.18
129 5.56
135 3.5
143 1.67
146 4.1
147 6.15
174 2.65
182 8.31
183 1.65
184 3.18
218 6.07
219 1.23
220 4.27
222 1.16

>  <PREDICTED SPECTRUM>  (4025) 
19 0
27 11
35 11
36 70
38 27
39 104
40 6
41 74
49 38
50 67
51 139
52 66
53 67
55 39
57 68
62 61
63 125
65 239
66 3
69 5
74 24
75 47
76 8
77 73
78 97
79 92
83 129
85 40
89 104
90 38
91 999
92 374
93 7
94 5
99 0
101 26
102 29
103 21
104 96
105 119
113 23
115 35
117 378
118 11
119 80
125 62
126 13
127 24
129 55
133 1
134 8
135 247
136 11
145 20
146 202
147 153
148 22
182 88
183 34
184 45
218 219
219 75
220 167
221 41

$$$$

     RDKit          2D

 11 11  0  0  0  0  0  0  0  0999 V2000
    1.2821    1.2761    0.0000 C   0  0  0  0  0  0  0  0  0  0  0  0
   -4.5326    1.6817    0.0000 C   0  0  0  0  0  0  0  0  0  0  0  0
   -4.8114   -0.1679    0.0000 C   0  0  0  0  0  0  0  0  0  0  0  0
   -0.3749   -0.6493    0.0000 C   0  0  0  0  0  0  0  0  0  0  0  0
   -1.6739   -1.3993    0.0000 C   0  0  0  0  0  0  0  0  0  0  0  0
   -1.1716    1.9335    0.0000 C   0  0  0  0  0  0  0  0  0  0  0  0
   -2.6674    1.8214    0.0000 C   0  0  0  0  0  0  0  0  0  0  0  0
   -0.1513    0.8340    0.0000 C   0  0  0  0  0  0  0  0  0  0  0  0
   -3.0702   -0.8513    0.0000 C   0  0  0  0  0  0  0  0  0  0  0  0
   -3.5123    0.5821    0.0000 C   0  0  0  0  0  0  0  0  0  0  0  0
   -4.1698   -1.8715    0.0000 O   0  0  0  0  0  0  0  0  0  0  0  0
  5  4  1  0
  7  6  1  0
  8  1  1  0
  8  4  1  0
  8  6  2  0
  9  5  1  0
 10  2  1  0
 10  3  1  0
 10  7  1  0
 10  9  1  0
 11  9  2  0
M  END
>  <NAME>  (4026) 
KARAHANAENONE

>  <SYNONYMS>  (4026) 
2,2,5-TRIMETHYL-4-CYCLOHEPTEN-1-ONE

>  <SPECTRUM TYPE>  (4026) 
MS1

>  <INSTRUMENT TYPE>  (4026) 
EI-B

>  <INSTRUMENT>  (4026) 
JEOL JMS-D-3000

>  <ION MODE>  (4026) 
P

>  <INCHIKEY>  (4026) 
SKKTZNHVYFHGDC-UHFFFAOYSA-N

>  <FORMULA>  (4026) 
C10H16O

>  <EXACT MASS>  (4026) 
152.120115132

>  <MW>  (4026) 
152

>  <ID>  (4026) 
JP004949

>  <CONTRIBUTOR>  (4026) 
University of Tokyo Team, {Faculty of Engineering, University of Tokyo

>  <COMMENT>  (4026) 
SMILES=CC(C1)=CCC(C)(C)C(=O)C1
InChI=InChI=1S/C10H16O/c1-8-4-5-9(11)10(2,3)7-6-8/h6H,4-5,7H2,1-3H3
computed SMILES=O=C1CCC(=CCC1(C)C)C
accession=JP004949
date=2016.01.19 (Created 2008.10.21, modified 2011.05.06)
author=MASS SPECTROSCOPY SOC. OF JAPAN (MSSJ)
license=CC BY-NC-SA
exact mass=152.12012
ionization energy=70 eV
ion type=[M]+*
computed spectral entropy=2.966248274996121
computed normalized entropy=0.9104236907594552
SPLASH=splash10-0fr2-9300000000-4dd178a06286135f9ed3
submitter=submitter = University of Tokyo Team (Faculty of Engineering, University of Tokyo)
MoNA Rating=3.75

>  <NUM PEAKS>  (4026) 
26

>  <MASS SPECTRAL PEAKS>  (4026) 
42 38.49
43 18.29
53 14.03
55 18.68
56 9.31
67 47.6
68 22.36
69 14.62
70 26.62
77 7.27
79 14.75
81 44.59
82 12.85
83 7.08
84 6.49
91 7.08
93 10.42
94 8.85
95 64.78
96 48.59
97 26.36
109 52.52
110 21.31
137 19.8
152 99.99
153 11.73

>  <PREDICTED SPECTRUM>  (4026) 
27 8
39 135
40 80
41 422
42 202
43 209
44 2
50 22
51 115
52 72
53 309
54 233
55 360
56 168
57 84
60 7
63 56
65 175
66 94
67 702
68 542
69 461
70 235
71 112
77 219
78 52
79 326
80 108
81 736
82 531
83 360
84 126
91 281
92 120
93 318
94 223
95 779
96 755
97 362
98 95
105 82
107 113
108 307
109 779
110 363
111 58
119 89
123 205
124 188
125 31
134 89
135 125
137 385
138 75
152 999
153 352
154 50

$$$$

     RDKit          2D

  7  6  0  0  0  0  0  0  0  0999 V2000
    1.6238    1.6875    0.0000 C   0  0  0  0  0  0  0  0  0  0  0  0
    0.3248    3.9375    0.0000 C   0  0  0  0  0  0  0  0  0  0  0  0
   -3.5724    1.6875    0.0000 C   0  0  0  0  0  0  0  0  0  0  0  0
    0.3248    2.4375    0.0000 C   0  0  0  0  0  0  0  0  0  0  0  0
   -2.2733    2.4375    0.0000 C   0  0  0  0  0  0  0  0  0  0  0  0
   -2.2733    3.9375    0.0000 O   0  0  0  0  0  0  0  0  0  0  0  0
   -0.9743    1.6875    0.0000 O   0  0  0  0  0  0  0  0  0  0  0  0
  4  1  2  0
  4  2  1  0
  5  3  1  0
  6  5  2  0
  7  4  1  0
  7  5  1  0
M  END
>  <NAME>  (4027) 
ISOPROPENYL ACETATE

>  <SYNONYMS>  (4027) 


>  <SPECTRUM TYPE>  (4027) 
MS1

>  <INSTRUMENT TYPE>  (4027) 
EI-B

>  <INSTRUMENT>  (4027) 
JEOL JMS-D-3000

>  <ION MODE>  (4027) 
P

>  <INCHIKEY>  (4027) 
HETCEOQFVDFGSY-UHFFFAOYSA-N

>  <FORMULA>  (4027) 
C5H8O2

>  <EXACT MASS>  (4027) 
100.052429496

>  <MW>  (4027) 
100

>  <ID>  (4027) 
JP004939

>  <CONTRIBUTOR>  (4027) 
University of Tokyo Team, {Faculty of Engineering, University of Tokyo

>  <COMMENT>  (4027) 
SMILES=CC(=C)OC(C)=O
InChI=InChI=1S/C5H8O2/c1-4(2)7-5(3)6/h1H2,2-3H3
computed SMILES=O=C(OC(=C)C)C
accession=JP004939
date=2016.01.19 (Created 2008.10.21, modified 2011.05.06)
author=MASS SPECTROSCOPY SOC. OF JAPAN (MSSJ)
license=CC BY-NC-SA
exact mass=100.05243
ionization energy=70 eV
ion type=[M]+*
computed spectral entropy=1.2047472559725867
computed normalized entropy=0.5793609639054125
SPLASH=splash10-0006-9000000000-abe0e6beac8338461e08
submitter=submitter = University of Tokyo Team (Faculty of Engineering, University of Tokyo)
MoNA Rating=3.75

>  <NUM PEAKS>  (4027) 
8

>  <MASS SPECTRAL PEAKS>  (4027) 
40 4.38
42 5.52
43 99.99
44 3.62
57 2.84
58 19.26
72 8.05
100 5.63

>  <PREDICTED SPECTRUM>  (4027) 
14 82
15 212
16 30
18 1
25 37
26 125
27 209
28 150
29 152
37 71
38 130
39 254
40 148
41 393
42 374
43 999
44 191
45 166
49 1
53 52
57 103
58 551
59 159
60 7
100 130
101 15

$$$$

     RDKit          2D

  7  6  0  0  0  0  0  0  0  0999 V2000
    1.9486    2.6250    0.0000 C   0  0  0  0  0  0  0  0  0  0  0  0
   -4.5466    3.3750    0.0000 C   0  0  0  0  0  0  0  0  0  0  0  0
    0.6495    3.3750    0.0000 C   0  0  0  0  0  0  0  0  0  0  0  0
   -3.2476    2.6250    0.0000 C   0  0  0  0  0  0  0  0  0  0  0  0
   -0.6495    2.6250    0.0000 C   0  0  0  0  0  0  0  0  0  0  0  0
   -0.6495    1.1250    0.0000 O   0  0  0  0  0  0  0  0  0  0  0  0
   -1.9486    3.3750    0.0000 O   0  0  0  0  0  0  0  0  0  0  0  0
  3  1  2  0
  4  2  1  0
  5  3  1  0
  6  5  2  0
  7  4  1  0
  7  5  1  0
M  END
>  <NAME>  (4028) 
ETHYL ACRYLATE

>  <SYNONYMS>  (4028) 


>  <SPECTRUM TYPE>  (4028) 
MS1

>  <INSTRUMENT TYPE>  (4028) 
EI-B

>  <INSTRUMENT>  (4028) 
JEOL JMS-D-3000

>  <ION MODE>  (4028) 
P

>  <INCHIKEY>  (4028) 
JIGUQPWFLRLWPJ-UHFFFAOYSA-N

>  <FORMULA>  (4028) 
C5H8O2

>  <EXACT MASS>  (4028) 
100.052429496

>  <MW>  (4028) 
100

>  <ID>  (4028) 
JP004938

>  <CONTRIBUTOR>  (4028) 
University of Tokyo Team, {Faculty of Engineering, University of Tokyo

>  <COMMENT>  (4028) 
SMILES=CCOC(=O)C=C
cas=140-88-5
InChI=InChI=1S/C5H8O2/c1-3-5(6)7-4-2/h3H,1,4H2,2H3
computed SMILES=O=C(OCC)C=C
accession=JP004938
date=2016.01.19 (Created 2008.10.21, modified 2011.05.06)
author=MASS SPECTROSCOPY SOC. OF JAPAN (MSSJ)
license=CC BY-NC-SA
exact mass=100.05243
ionization energy=70 eV
ion type=[M]+*
computed spectral entropy=1.773596893510676
computed normalized entropy=0.6549350129435563
SPLASH=splash10-0a4i-9000000000-9fb2ce6a8c6e827cca22
submitter=submitter = University of Tokyo Team (Faculty of Engineering, University of Tokyo)
MoNA Rating=3.75

>  <NUM PEAKS>  (4028) 
15

>  <MASS SPECTRAL PEAKS>  (4028) 
43 9.19
44 1.31
45 10.83
53 1.23
54 4.43
55 99.99
56 13.02
57 1.84
58 4.94
72 1.61
73 10.8
82 4.96
85 5.15
99 9.01
100 3.42

>  <PREDICTED SPECTRUM>  (4028) 
14 22
15 7
19 9
25 49
26 199
27 582
28 463
29 548
30 16
31 51
36 15
37 32
38 73
39 361
40 115
41 352
42 146
43 134
44 76
45 147
53 44
54 274
55 999
56 233
57 67
71 73
72 314
73 131
85 65
100 179
101 37

$$$$

     RDKit          2D

  7  6  0  0  0  0  0  0  0  0999 V2000
    1.6238    1.6875    0.0000 C   0  0  0  0  0  0  0  0  0  0  0  0
    0.3248    3.9375    0.0000 C   0  0  0  0  0  0  0  0  0  0  0  0
   -3.5724    1.6875    0.0000 C   0  0  0  0  0  0  0  0  0  0  0  0
    0.3248    2.4375    0.0000 C   0  0  0  0  0  0  0  0  0  0  0  0
   -0.9743    1.6875    0.0000 C   0  0  0  0  0  0  0  0  0  0  0  0
   -0.9743    0.1875    0.0000 O   0  0  0  0  0  0  0  0  0  0  0  0
   -2.2733    2.4375    0.0000 O   0  0  0  0  0  0  0  0  0  0  0  0
  4  1  2  0
  4  2  1  0
  5  4  1  0
  6  5  2  0
  7  3  1  0
  7  5  1  0
M  END
>  <NAME>  (4029) 
METHYL 2-METHYLPROPENOATE

>  <SYNONYMS>  (4029) 
METHYL METHACRYLATE

>  <SPECTRUM TYPE>  (4029) 
MS1

>  <INSTRUMENT TYPE>  (4029) 
EI-B

>  <INSTRUMENT>  (4029) 
JEOL JMS-D-3000

>  <ION MODE>  (4029) 
P

>  <INCHIKEY>  (4029) 
VVQNEPGJFQJSBK-UHFFFAOYSA-N

>  <FORMULA>  (4029) 
C5H8O2

>  <EXACT MASS>  (4029) 
100.052429496

>  <MW>  (4029) 
100

>  <ID>  (4029) 
JP004937

>  <CONTRIBUTOR>  (4029) 
University of Tokyo Team, {Faculty of Engineering, University of Tokyo

>  <COMMENT>  (4029) 
SMILES=COC(=O)C(C)=C
InChI=InChI=1S/C5H8O2/c1-4(2)5(6)7-3/h1H2,2-3H3
computed SMILES=O=C(OC)C(=C)C
accession=JP004937
date=2016.01.19 (Created 2008.10.21, modified 2011.05.06)
author=MASS SPECTROSCOPY SOC. OF JAPAN (MSSJ)
license=CC BY-NC-SA
exact mass=100.05243
ionization energy=70 eV
ion type=[M]+*
computed spectral entropy=1.831304138731848
computed normalized entropy=0.6463700104242879
SPLASH=splash10-014i-9200000000-598b3051ae73088545da
submitter=submitter = University of Tokyo Team (Faculty of Engineering, University of Tokyo)
MoNA Rating=3.75

>  <NUM PEAKS>  (4029) 
17

>  <MASS SPECTRAL PEAKS>  (4029) 
40 3.5
42 6.03
45 1.37
53 1.95
54 1.28
55 8.35
56 3.53
57 1.32
59 11.49
68 1.91
69 99.99
70 5.17
82 2.63
85 5.01
99 11.49
100 45.77
101 2.82

>  <PREDICTED SPECTRUM>  (4029) 
14 72
15 239
16 27
25 49
26 226
27 522
28 223
29 516
30 86
31 272
32 37
33 48
36 70
37 208
38 313
39 835
40 408
41 896
42 376
43 319
44 128
45 265
49 65
50 240
51 102
53 182
54 34
55 319
56 33
57 283
58 91
59 456
65 10
67 161
68 276
69 999
70 257
71 241
72 108
75 10
85 326
99 135
100 409
101 78

$$$$

     RDKit          2D

  6  5  0  0  0  0  0  0  0  0999 V2000
    1.2990    2.2500    0.0000 C   0  0  0  0  0  0  0  0  0  0  0  0
   -3.8971    2.2500    0.0000 C   0  0  0  0  0  0  0  0  0  0  0  0
    0.0000    3.0000    0.0000 C   0  0  0  0  0  0  0  0  0  0  0  0
   -2.5981    3.0000    0.0000 C   0  0  0  0  0  0  0  0  0  0  0  0
   -2.5981    4.5000    0.0000 O   0  0  0  0  0  0  0  0  0  0  0  0
   -1.2990    2.2500    0.0000 O   0  0  0  0  0  0  0  0  0  0  0  0
  3  1  2  0
  4  2  1  0
  5  4  2  0
  6  3  1  0
  6  4  1  0
M  END
>  <NAME>  (4030) 
VINYL ACETATE

>  <SYNONYMS>  (4030) 
ACETIC ACID ETHENYL ESTER

>  <SPECTRUM TYPE>  (4030) 
MS1

>  <INSTRUMENT TYPE>  (4030) 
EI-B

>  <INSTRUMENT>  (4030) 
JEOL JMS-D-3000

>  <ION MODE>  (4030) 
P

>  <INCHIKEY>  (4030) 
XTXRWKRVRITETP-UHFFFAOYSA-N

>  <FORMULA>  (4030) 
C4H6O2

>  <EXACT MASS>  (4030) 
86.036779432

>  <MW>  (4030) 
86

>  <ID>  (4030) 
JP004934

>  <CONTRIBUTOR>  (4030) 
University of Tokyo Team, {Faculty of Engineering, University of Tokyo

>  <COMMENT>  (4030) 
SMILES=C=COC(C)=O
cas=108-05-4
InChI=InChI=1S/C4H6O2/c1-3-6-4(2)5/h3H,1H2,2H3
computed SMILES=O=C(OC=C)C
accession=JP004934
date=2016.01.19 (Created 2008.10.21, modified 2011.05.06)
author=MASS SPECTROSCOPY SOC. OF JAPAN (MSSJ)
license=CC BY-NC-SA
exact mass=86.03678
ionization energy=70 eV
ion type=[M]+*
computed spectral entropy=0.5959445012026152
computed normalized entropy=0.42988308826502997
SPLASH=splash10-0006-9000000000-822a98d017022e0d3838
submitter=submitter = University of Tokyo Team (Faculty of Engineering, University of Tokyo)
MoNA Rating=3.75

>  <NUM PEAKS>  (4030) 
4

>  <MASS SPECTRAL PEAKS>  (4030) 
42 6.08
43 99.99
44 2.55
86 10.55

>  <PREDICTED SPECTRUM>  (4030) 
14 86
15 197
16 48
17 21
18 32
25 23
26 124
27 290
28 186
29 212
31 48
37 6
38 55
39 131
40 59
41 312
42 309
43 999
44 227
45 143
57 12
86 94
87 13

$$$$

     RDKit          2D

 11 12  0  0  0  0  0  0  0  0999 V2000
   -2.6000   -0.7500    0.0000 C   0  0  0  0  0  0  0  0  0  0  0  0
   -2.6000    0.7500    0.0000 C   0  0  0  0  0  0  0  0  0  0  0  0
    2.6000   -0.7500    0.0000 C   0  0  0  0  0  0  0  0  0  0  0  0
   -1.3000   -1.5000    0.0000 C   0  0  0  0  0  0  0  0  0  0  0  0
    1.3000   -1.5000    0.0000 C   0  0  0  0  0  0  0  0  0  0  0  0
   -1.3000    1.5000    0.0000 C   0  0  0  0  0  0  0  0  0  0  0  0
    2.6000    0.7500    0.0000 C   0  0  0  0  0  0  0  0  0  0  0  0
    0.0000   -0.7500    0.0000 C   0  0  0  0  0  0  0  0  0  0  0  0
    0.0000    0.7500    0.0000 C   0  0  0  0  0  0  0  0  0  0  0  0
    1.3000    1.5000    0.0000 C   0  0  0  0  0  0  0  0  0  0  0  0
    1.3000    3.0000    0.0000 Cl  0  0  0  0  0  0  0  0  0  0  0  0
  2  1  2  0
  4  1  1  0
  5  3  2  0
  6  2  1  0
  7  3  1  0
  8  4  2  0
  8  5  1  0
  9  6  2  0
  9  8  1  0
 10  7  2  0
 10  9  1  0
 11 10  1  0
M  END
>  <NAME>  (4031) 
1-CHLORONAPHTHALENE

>  <SYNONYMS>  (4031) 


>  <SPECTRUM TYPE>  (4031) 
MS1

>  <INSTRUMENT TYPE>  (4031) 
EI-B

>  <INSTRUMENT>  (4031) 
JEOL JMS-D-3000

>  <ION MODE>  (4031) 
P

>  <INCHIKEY>  (4031) 
JTPNRXUCIXHOKM-UHFFFAOYSA-N

>  <FORMULA>  (4031) 
C10H7Cl

>  <EXACT MASS>  (4031) 
162.023627904

>  <MW>  (4031) 
162

>  <ID>  (4031) 
JP004931

>  <CONTRIBUTOR>  (4031) 
University of Tokyo Team, {Faculty of Engineering, University of Tokyo

>  <COMMENT>  (4031) 
SMILES=Clc(c1)c(c2)c(ccc2)cc1
cas=90-13-1
InChI=InChI=1S/C10H7Cl/c11-10-7-3-5-8-4-1-2-6-9(8)10/h1-7H
computed SMILES=ClC1=CC=CC=2C=CC=CC12
accession=JP004931
date=2016.01.19 (Created 2008.10.21, modified 2011.05.06)
author=MASS SPECTROSCOPY SOC. OF JAPAN (MSSJ)
license=CC BY-NC-SA
exact mass=162.02363
ionization energy=70 eV
ion type=[M]+*
computed spectral entropy=1.9836245531814372
computed normalized entropy=0.6515388188975594
SPLASH=splash10-03di-1900000000-b37a4cf2f132a52a5bba
submitter=submitter = University of Tokyo Team (Faculty of Engineering, University of Tokyo)
MoNA Rating=3.75

>  <NUM PEAKS>  (4031) 
21

>  <MASS SPECTRAL PEAKS>  (4031) 
50 1.41
51 1.37
63 4.75
68 1.89
74 2.08
75 2.87
76 1.27
77 2.76
81 6.22
82 1.95
98 1.12
99 1.42
101 2.42
125 1.81
126 11.55
127 24.18
128 2.66
162 99.99
163 11.84
164 32.94
165 3.78

>  <PREDICTED SPECTRUM>  (4031) 
35 29
36 43
37 102
38 115
39 170
40 14
41 33
43 88
44 28
47 35
49 116
50 277
51 234
52 37
57 83
58 19
60 4
61 162
62 286
63 418
64 84
65 98
69 37
70 38
71 89
72 131
73 209
74 361
75 330
76 184
77 31
81 44
82 99
84 55
85 122
86 232
87 239
88 91
89 45
91 3
92 14
93 12
95 54
96 74
98 149
99 182
100 251
101 186
102 17
107 9
108 33
109 16
110 31
114 109
123 71
124 0
125 238
126 481
127 776
128 349
129 117
134 20
135 21
137 15
150 8
161 58
162 999
163 405
164 782
165 244
166 61

$$$$

     RDKit          2D

 10  9  0  0  0  0  0  0  0  0999 V2000
   -4.8714    3.9375    0.0000 C   0  0  0  0  0  0  0  0  0  0  0  0
    2.9228    3.9375    0.0000 C   0  0  0  0  0  0  0  0  0  0  0  0
    0.3248   -0.5625    0.0000 C   0  0  0  0  0  0  0  0  0  0  0  0
   -3.5724    3.1875    0.0000 C   0  0  0  0  0  0  0  0  0  0  0  0
    1.6238    3.1875    0.0000 C   0  0  0  0  0  0  0  0  0  0  0  0
    0.3248    0.9375    0.0000 C   0  0  0  0  0  0  0  0  0  0  0  0
   -0.9743    3.1875    0.0000 C   0  0  0  0  0  0  0  0  0  0  0  0
   -2.2733    3.9375    0.0000 O   0  0  0  0  0  0  0  0  0  0  0  0
    0.3248    3.9375    0.0000 O   0  0  0  0  0  0  0  0  0  0  0  0
   -0.9743    1.6875    0.0000 O   0  0  0  0  0  0  0  0  0  0  0  0
  4  1  1  0
  5  2  1  0
  6  3  1  0
  8  4  1  0
  8  7  1  0
  9  5  1  0
  9  7  1  0
 10  6  1  0
 10  7  1  0
M  END
>  <NAME>  (4032) 
TRIETHYL ORTHOFORMATE

>  <SYNONYMS>  (4032) 


>  <SPECTRUM TYPE>  (4032) 
MS1

>  <INSTRUMENT TYPE>  (4032) 
EI-B

>  <INSTRUMENT>  (4032) 
JEOL JMS-D-300

>  <ION MODE>  (4032) 
P

>  <INCHIKEY>  (4032) 
GKASDNZWUGIAMG-UHFFFAOYSA-N

>  <FORMULA>  (4032) 
C7H16O3

>  <EXACT MASS>  (4032) 
148.109944372

>  <MW>  (4032) 
148

>  <ID>  (4032) 
JP004928

>  <CONTRIBUTOR>  (4032) 
University of Tokyo Team, {Faculty of Engineering, University of Tokyo

>  <COMMENT>  (4032) 
SMILES=CCOC(OCC)OCC
InChI=InChI=1S/C7H16O3/c1-4-8-7(9-5-2)10-6-3/h7H,4-6H2,1-3H3
computed SMILES=O(CC)C(OCC)OCC
accession=JP004928
date=2016.01.19 (Created 2008.10.21, modified 2011.05.06)
author=MASS SPECTROSCOPY SOC. OF JAPAN (MSSJ)
license=CC BY-NC-SA
exact mass=148.10994
ionization energy=70 eV
ion type=[M]+*
computed spectral entropy=1.443202804273503
computed normalized entropy=0.6018623167763575
SPLASH=splash10-0f92-9400000000-830692210143934501d6
submitter=submitter = University of Tokyo Team (Faculty of Engineering, University of Tokyo)
MoNA Rating=3.75

>  <NUM PEAKS>  (4032) 
11

>  <MASS SPECTRAL PEAKS>  (4032) 
43 1.81
45 8.24
47 99.99
48 1.26
63 2.91
75 56.37
76 1.98
91 1.07
103 76.65
104 4.51
147 1.35

>  <PREDICTED SPECTRUM>  (4032) 
14 30
15 10
17 11
18 33
19 38
25 21
26 116
27 368
28 193
29 553
30 94
31 334
32 35
33 60
34 11
36 5
38 5
39 152
40 84
41 260
42 190
43 474
44 249
45 388
46 154
47 920
48 142
49 92
50 48
51 17
53 102
54 5
56 42
57 274
58 111
59 143
60 77
61 13
62 2
71 52
73 150
75 639
76 130
77 27
86 96
91 70
102 12
103 999
104 271
105 9
119 154

$$$$

     RDKit          2D

  7  6  0  0  0  0  0  0  0  0999 V2000
   -1.9486    4.1250    0.0000 C   0  0  0  0  0  0  0  0  0  0  0  0
   -0.6495    3.3750    0.0000 C   0  0  0  0  0  0  0  0  0  0  0  0
   -3.2476    3.3750    0.0000 C   0  0  0  0  0  0  0  0  0  0  0  0
    0.6495    4.1250    0.0000 C   0  0  0  0  0  0  0  0  0  0  0  0
   -4.5466    4.1250    0.0000 C   0  0  0  0  0  0  0  0  0  0  0  0
    1.9486    3.3750    0.0000 Br  0  0  0  0  0  0  0  0  0  0  0  0
   -5.8457    3.3750    0.0000 Br  0  0  0  0  0  0  0  0  0  0  0  0
  2  1  1  0
  3  1  1  0
  4  2  1  0
  5  3  1  0
  6  4  1  0
  7  5  1  0
M  END
>  <NAME>  (4033) 
1,5-DIBROMOPENTANE

>  <SYNONYMS>  (4033) 


>  <SPECTRUM TYPE>  (4033) 
MS1

>  <INSTRUMENT TYPE>  (4033) 
EI-B

>  <INSTRUMENT>  (4033) 
JEOL JMS-D-3000

>  <ION MODE>  (4033) 
P

>  <INCHIKEY>  (4033) 
IBODDUNKEPPBKW-UHFFFAOYSA-N

>  <FORMULA>  (4033) 
C5H10Br2

>  <EXACT MASS>  (4033) 
227.91492452

>  <MW>  (4033) 
228

>  <ID>  (4033) 
JP004921

>  <CONTRIBUTOR>  (4033) 
University of Tokyo Team, {Faculty of Engineering, University of Tokyo

>  <COMMENT>  (4033) 
SMILES=BrCCCCCBr
cas=111-24-0
InChI=InChI=1S/C5H10Br2/c6-4-2-1-3-5-7/h1-5H2
computed SMILES=BrCCCCCBr
accession=JP004921
date=2016.01.19 (Created 2008.10.21, modified 2011.05.06)
author=MASS SPECTROSCOPY SOC. OF JAPAN (MSSJ)
license=CC BY-NC-SA
exact mass=227.91493
ionization energy=70 eV
ion type=[M]+*
computed spectral entropy=1.847757303184297
computed normalized entropy=0.6069120333256532
SPLASH=splash10-014i-9200000000-b46f99a6b435df9b10c5
submitter=submitter = University of Tokyo Team (Faculty of Engineering, University of Tokyo)
MoNA Rating=3.75

>  <NUM PEAKS>  (4033) 
21

>  <MASS SPECTRAL PEAKS>  (4033) 
42 7.68
43 8.48
53 2.45
55 1
67 2.75
68 3.71
69 99.99
70 5.74
80 1.21
82 1.18
93 1.15
95 1.28
107 5.23
109 4.98
148 7.87
149 6.76
150 8.05
151 6.41
228 0.24
230 0.45
232 0.24

>  <PREDICTED SPECTRUM>  (4033) 
14 14
15 11
25 26
26 152
27 405
28 161
29 243
36 0
37 43
38 78
39 429
40 159
41 820
42 234
43 289
47 27
50 94
51 198
52 82
53 325
54 152
55 999
57 136
63 97
65 192
66 139
67 209
68 89
69 638
70 187
71 102
77 114
79 191
80 29
81 87
82 27
83 293
93 185
94 238
95 306
96 68
97 24
107 476
109 360
110 50
111 13
119 100
121 105
122 106
123 264
124 47
133 15
135 728
137 515
148 193
149 605
150 240
151 583
152 205
228 82
229 3
230 106
232 35

$$$$

     RDKit          2D

  8  7  0  0  0  0  0  0  0  0999 V2000
   -3.5724    3.9375    0.0000 C   0  0  0  0  0  0  0  0  0  0  0  0
    2.9228    3.1875    0.0000 C   0  0  0  0  0  0  0  0  0  0  0  0
   -0.9743    3.9375    0.0000 C   0  0  0  0  0  0  0  0  0  0  0  0
   -2.2733    3.1875    0.0000 C   0  0  0  0  0  0  0  0  0  0  0  0
    0.3248    3.1875    0.0000 C   0  0  0  0  0  0  0  0  0  0  0  0
   -2.2733    1.6875    0.0000 O   0  0  0  0  0  0  0  0  0  0  0  0
    0.3248    1.6875    0.0000 O   0  0  0  0  0  0  0  0  0  0  0  0
    1.6238    3.9375    0.0000 O   0  0  0  0  0  0  0  0  0  0  0  0
  4  1  1  0
  4  3  1  0
  5  3  1  0
  6  4  2  0
  7  5  2  0
  8  2  1  0
  8  5  1  0
M  END
>  <NAME>  (4034) 
METHYL ACETOACETATE

>  <SYNONYMS>  (4034) 


>  <SPECTRUM TYPE>  (4034) 
MS1

>  <INSTRUMENT TYPE>  (4034) 
EI-B

>  <INSTRUMENT>  (4034) 
JEOL JMS-D-3000

>  <ION MODE>  (4034) 
P

>  <INCHIKEY>  (4034) 
WRQNANDWMGAFTP-UHFFFAOYSA-N

>  <FORMULA>  (4034) 
C5H8O3

>  <EXACT MASS>  (4034) 
116.04734411599999

>  <MW>  (4034) 
116

>  <ID>  (4034) 
JP004920

>  <CONTRIBUTOR>  (4034) 
University of Tokyo Team, {Faculty of Engineering, University of Tokyo

>  <COMMENT>  (4034) 
SMILES=COC(=O)CC(C)=O
InChI=InChI=1S/C5H8O3/c1-4(6)3-5(7)8-2/h3H2,1-2H3
computed SMILES=O=C(OC)CC(=O)C
accession=JP004920
date=2016.01.19 (Created 2008.10.21, modified 2011.05.06)
author=MASS SPECTROSCOPY SOC. OF JAPAN (MSSJ)
license=CC BY-NC-SA
exact mass=116.04734
ionization energy=70 eV
ion type=[M]+*
computed spectral entropy=1.6924741969181238
computed normalized entropy=0.6413177076243605
SPLASH=splash10-0006-9000000000-f8789e71041e62cce331
submitter=submitter = University of Tokyo Team (Faculty of Engineering, University of Tokyo)
MoNA Rating=3.75

>  <NUM PEAKS>  (4034) 
14

>  <MASS SPECTRAL PEAKS>  (4034) 
42 9.91
43 99.99
44 4.62
57 2.58
58 1.72
59 10.96
69 6.56
74 9.71
84 5.02
85 9.2
86 1.28
88 3
101 3.1
116 5.45

>  <PREDICTED SPECTRUM>  (4034) 
14 88
15 228
16 33
17 5
25 24
26 79
27 195
28 133
29 203
31 184
32 82
33 56
37 18
38 76
40 103
41 330
42 461
43 999
44 163
45 105
53 62
54 112
55 2
56 148
57 111
58 258
59 429
60 31
61 23
69 279
70 14
73 100
74 351
75 27
84 189
85 405
86 76
101 125
116 316
117 96

$$$$

     RDKit          2D

  7  6  0  0  0  0  0  0  0  0999 V2000
    1.2990    2.2500    0.0000 C   0  0  0  0  0  0  0  0  0  0  0  0
   -3.8971    2.2500    0.0000 C   0  0  0  0  0  0  0  0  0  0  0  0
   -0.0000    0.0000    0.0000 C   0  0  0  0  0  0  0  0  0  0  0  0
   -1.2990    2.2500    0.0000 C   0  0  0  0  0  0  0  0  0  0  0  0
    0.0000    3.0000    0.0000 O   0  0  0  0  0  0  0  0  0  0  0  0
   -2.5981    3.0000    0.0000 O   0  0  0  0  0  0  0  0  0  0  0  0
   -1.2990    0.7500    0.0000 O   0  0  0  0  0  0  0  0  0  0  0  0
  5  1  1  0
  5  4  1  0
  6  2  1  0
  6  4  1  0
  7  3  1  0
  7  4  1  0
M  END
>  <NAME>  (4035) 
TRIMETHYL ORTHOFORMATE

>  <SYNONYMS>  (4035) 
TRIMEOXYMETHANE

>  <SPECTRUM TYPE>  (4035) 
MS1

>  <INSTRUMENT TYPE>  (4035) 
EI-B

>  <INSTRUMENT>  (4035) 
JEOL JMS-D-3000

>  <ION MODE>  (4035) 
P

>  <INCHIKEY>  (4035) 
PYOKUURKVVELLB-UHFFFAOYSA-N

>  <FORMULA>  (4035) 
C4H10O3

>  <EXACT MASS>  (4035) 
106.06299417999999

>  <MW>  (4035) 
106

>  <ID>  (4035) 
JP004916

>  <CONTRIBUTOR>  (4035) 
University of Tokyo Team, {Faculty of Engineering, University of Tokyo

>  <COMMENT>  (4035) 
SMILES=COC(OC)OC
cas=149-73-5
InChI=InChI=1S/C4H10O3/c1-5-4(6-2)7-3/h4H,1-3H3
computed SMILES=O(C)C(OC)OC
accession=JP004916
date=2016.01.19 (Created 2008.10.21, modified 2011.05.06)
author=MASS SPECTROSCOPY SOC. OF JAPAN (MSSJ)
license=CC BY-NC-SA
exact mass=106.06299
ionization energy=70 eV
ion type=[M]+*
computed spectral entropy=0.8462167470185022
computed normalized entropy=0.434869383578331
SPLASH=splash10-004i-9000000000-6dda3526ae52cdb0f0b2
submitter=submitter = University of Tokyo Team (Faculty of Engineering, University of Tokyo)
MoNA Rating=3.75

>  <NUM PEAKS>  (4035) 
7

>  <MASS SPECTRAL PEAKS>  (4035) 
43 1.21
45 2.19
47 21.87
60 1.51
75 99.99
76 3.59
105 2.57

>  <PREDICTED SPECTRUM>  (4035) 
14 34
15 210
16 3
17 12
18 30
19 4
25 12
26 37
27 62
28 195
29 360
30 197
31 378
32 80
33 110
34 0
36 1
38 40
39 109
40 7
41 104
42 55
43 255
44 228
45 323
46 34
47 388
48 40
49 28
50 37
51 19
53 85
59 535
60 199
61 177
75 999
76 127
77 72
91 67

$$$$

     RDKit          2D

  6  5  0  0  0  0  0  0  0  0999 V2000
   -1.9486    3.3750    0.0000 C   0  0  0  0  0  0  0  0  0  0  0  0
   -0.6495    2.6250    0.0000 C   0  0  0  0  0  0  0  0  0  0  0  0
   -3.2476    2.6250    0.0000 C   0  0  0  0  0  0  0  0  0  0  0  0
    0.6495    3.3750    0.0000 C   0  0  0  0  0  0  0  0  0  0  0  0
   -4.5466    3.3750    0.0000 Cl  0  0  0  0  0  0  0  0  0  0  0  0
    1.9486    2.6250    0.0000 Cl  0  0  0  0  0  0  0  0  0  0  0  0
  2  1  1  0
  3  1  1  0
  4  2  1  0
  5  3  1  0
  6  4  1  0
M  END
>  <NAME>  (4036) 
1,4-DICHLOROBUTANE

>  <SYNONYMS>  (4036) 


>  <SPECTRUM TYPE>  (4036) 
MS1

>  <INSTRUMENT TYPE>  (4036) 
EI-B

>  <INSTRUMENT>  (4036) 
JEOL JMS-D-3000

>  <ION MODE>  (4036) 
P

>  <INCHIKEY>  (4036) 
KJDRSWPQXHESDQ-UHFFFAOYSA-N

>  <FORMULA>  (4036) 
C4H8Cl2

>  <EXACT MASS>  (4036) 
126.00030561599999

>  <MW>  (4036) 
126

>  <ID>  (4036) 
JP004915

>  <CONTRIBUTOR>  (4036) 
University of Tokyo Team, {Faculty of Engineering, University of Tokyo

>  <COMMENT>  (4036) 
SMILES=ClCCCCCl
cas=110-56-5
InChI=InChI=1S/C4H8Cl2/c5-3-1-2-4-6/h1-4H2
computed SMILES=ClCCCCCl
accession=JP004915
date=2016.01.19 (Created 2008.10.21, modified 2011.05.06)
author=MASS SPECTROSCOPY SOC. OF JAPAN (MSSJ)
license=CC BY-NC-SA
exact mass=126.00031
ionization energy=70 eV
ion type=[M]+*
computed spectral entropy=1.8466448791568726
computed normalized entropy=0.6517846187019201
SPLASH=splash10-0a4i-9000000000-4f89cf9b30df87f74e43
submitter=submitter = University of Tokyo Team (Faculty of Engineering, University of Tokyo)
MoNA Rating=3.75

>  <NUM PEAKS>  (4036) 
17

>  <MASS SPECTRAL PEAKS>  (4036) 
42 1.49
49 5.71
51 2.49
53 3.75
54 8.27
55 99.99
56 4.68
61 1.13
62 14.8
63 6.06
64 4.83
65 1.79
75 5.38
77 2.27
90 18.2
91 1.16
92 5.92

>  <PREDICTED SPECTRUM>  (4036) 
14 62
15 47
18 18
25 50
26 236
27 619
28 330
29 523
30 159
31 83
35 120
36 207
37 80
38 149
39 526
40 193
41 528
42 300
43 93
44 3
46 26
47 93
48 36
49 282
50 121
51 227
52 93
53 308
54 274
55 919
56 326
57 63
62 151
63 520
64 150
65 371
66 73
67 174
68 16
70 75
75 175
76 23
77 95
79 45
81 111
83 335
84 1
86 19
89 54
90 163
91 999
92 173
93 394
100 55
106 23
119 108
126 146
127 32
128 133

$$$$

     RDKit          2D

  7  6  0  0  0  0  0  0  0  0999 V2000
    0.6495    4.1250    0.0000 C   0  0  0  0  0  0  0  0  0  0  0  0
   -4.5466    4.1250    0.0000 C   0  0  0  0  0  0  0  0  0  0  0  0
   -0.6495    3.3750    0.0000 C   0  0  0  0  0  0  0  0  0  0  0  0
   -3.2476    3.3750    0.0000 C   0  0  0  0  0  0  0  0  0  0  0  0
    1.9486    3.3750    0.0000 Cl  0  0  0  0  0  0  0  0  0  0  0  0
   -5.8457    3.3750    0.0000 Cl  0  0  0  0  0  0  0  0  0  0  0  0
   -1.9486    4.1250    0.0000 O   0  0  0  0  0  0  0  0  0  0  0  0
  3  1  1  0
  4  2  1  0
  5  1  1  0
  6  2  1  0
  7  3  1  0
  7  4  1  0
M  END
>  <NAME>  (4037) 
BIS(2-CHLOROETHYL) ETHER

>  <SYNONYMS>  (4037) 


>  <SPECTRUM TYPE>  (4037) 
MS1

>  <INSTRUMENT TYPE>  (4037) 
EI-B

>  <INSTRUMENT>  (4037) 
JEOL JMS-D-3000

>  <ION MODE>  (4037) 
P

>  <INCHIKEY>  (4037) 
ZNSMNVMLTJELDZ-UHFFFAOYSA-N

>  <FORMULA>  (4037) 
C4H8Cl2O

>  <EXACT MASS>  (4037) 
141.995220236

>  <MW>  (4037) 
142

>  <ID>  (4037) 
JP004914

>  <CONTRIBUTOR>  (4037) 
University of Tokyo Team, {Faculty of Engineering, University of Tokyo

>  <COMMENT>  (4037) 
SMILES=ClCCOCCCl
InChI=InChI=1S/C4H8Cl2O/c5-1-3-7-4-2-6/h1-4H2
computed SMILES=ClCCOCCCl
accession=JP004914
date=2016.01.19 (Created 2008.10.21, modified 2011.05.06)
author=MASS SPECTROSCOPY SOC. OF JAPAN (MSSJ)
license=CC BY-NC-SA
exact mass=141.99522
ionization energy=70 eV
ion type=[M]+*
computed spectral entropy=1.524230244229912
computed normalized entropy=0.613395374172286
SPLASH=splash10-01ox-9000000000-88c9c34737f002a9f00c
submitter=submitter = University of Tokyo Team (Faculty of Engineering, University of Tokyo)
MoNA Rating=3.75

>  <NUM PEAKS>  (4037) 
12

>  <MASS SPECTRAL PEAKS>  (4037) 
43 1.6
45 1.12
49 3.22
62 2.01
63 78.5
64 2.37
65 24.74
93 99.99
94 3.76
95 32.31
96 1.2
142 0.88

>  <PREDICTED SPECTRUM>  (4037) 
14 56
15 117
16 8
17 11
18 22
19 18
25 32
26 121
27 340
28 176
29 182
31 230
33 15
35 41
36 58
37 69
38 115
42 64
43 111
44 57
45 236
46 49
47 88
48 38
49 301
50 140
51 212
59 91
60 36
61 154
62 366
63 999
64 390
65 507
66 74
67 53
73 70
79 122
80 116
81 105
82 36
83 3
85 4
92 14
93 563
94 68
95 282
96 65
97 170
98 26
99 42
107 87
109 92
113 108
127 71
141 74
142 61
144 1

$$$$

     RDKit          2D

  6  5  0  0  0  0  0  0  0  0999 V2000
   -1.9486    3.3750    0.0000 C   0  0  0  0  0  0  0  0  0  0  0  0
   -0.6495    2.6250    0.0000 C   0  0  0  0  0  0  0  0  0  0  0  0
   -3.2476    2.6250    0.0000 C   0  0  0  0  0  0  0  0  0  0  0  0
    0.6495    3.3750    0.0000 C   0  0  0  0  0  0  0  0  0  0  0  0
   -4.5466    3.3750    0.0000 Cl  0  0  0  0  0  0  0  0  0  0  0  0
    1.9486    2.6250    0.0000 Cl  0  0  0  0  0  0  0  0  0  0  0  0
  1  2  2  0
  3  1  1  0
  4  2  1  0
  5  3  1  0
  6  4  1  0
M  END
>  <NAME>  (4038) 
TRANS-1,4-DICHLORO-2-BUTENE

>  <SYNONYMS>  (4038) 


>  <SPECTRUM TYPE>  (4038) 
MS1

>  <INSTRUMENT TYPE>  (4038) 
EI-B

>  <INSTRUMENT>  (4038) 
JEOL JMS-D-3000

>  <ION MODE>  (4038) 
P

>  <INCHIKEY>  (4038) 
FQDIANVAWVHZIR-OWOJBTEDSA-N

>  <FORMULA>  (4038) 
C4H6Cl2

>  <EXACT MASS>  (4038) 
123.98465555199999

>  <MW>  (4038) 
124

>  <ID>  (4038) 
JP004912

>  <CONTRIBUTOR>  (4038) 
University of Tokyo Team, {Faculty of Engineering, University of Tokyo

>  <COMMENT>  (4038) 
SMILES=ClCC=CCCl
cas=764-41-0
InChI=InChI=1S/C4H6Cl2/c5-3-1-2-4-6/h1-2H,3-4H2/b2-1+
computed SMILES=ClCC=CCCl
accession=JP004912
date=2016.01.19 (Created 2008.10.21, modified 2011.05.06)
author=MASS SPECTROSCOPY SOC. OF JAPAN (MSSJ)
license=CC BY-NC-SA
exact mass=123.98466
ionization energy=70 eV
ion type=[M]+*
computed spectral entropy=2.5535456115676447
computed normalized entropy=0.7837538212168248
SPLASH=splash10-004i-9000000000-17ef71e72caab134c987
submitter=submitter = University of Tokyo Team (Faculty of Engineering, University of Tokyo)
MoNA Rating=3.75

>  <NUM PEAKS>  (4038) 
26

>  <MASS SPECTRAL PEAKS>  (4038) 
49 6.52
50 5.13
51 10.55
52 2.54
53 40.17
54 10.58
57 1.37
61 2.52
62 23.57
63 3.11
64 7.74
73 1.11
75 99.99
76 3.64
77 32.92
78 1.08
87 2.13
88 13.1
89 41.58
90 6.1
91 11.96
93 3.07
95 1.66
124 17.33
126 11.46
128 1.92

>  <PREDICTED SPECTRUM>  (4038) 
14 60
15 8
25 57
26 186
27 336
28 170
29 126
31 55
32 21
33 27
35 158
36 195
37 188
38 153
39 451
40 123
41 357
42 226
44 24
47 178
48 185
49 503
50 241
51 406
52 132
53 421
54 223
55 132
56 9
59 26
60 176
61 172
62 236
63 346
64 233
65 72
67 8
68 72
69 143
70 10
71 69
72 33
73 46
74 46
75 493
76 146
77 286
78 5
84 56
87 112
88 58
89 999
90 254
91 590
92 178
93 120
95 11
96 58
124 275
125 72
126 235
127 38
128 72

$$$$

     RDKit          2D

  4  3  0  0  0  0  0  0  0  0999 V2000
   -1.2990    1.5000    0.0000 C   0  0  0  0  0  0  0  0  0  0  0  0
    0.0000    2.2500    0.0000 C   0  0  0  0  0  0  0  0  0  0  0  0
   -2.5981    2.2500    0.0000 Cl  0  0  0  0  0  0  0  0  0  0  0  0
    1.2990    1.5000    0.0000 Cl  0  0  0  0  0  0  0  0  0  0  0  0
  2  1  1  0
  3  1  1  0
  4  2  1  0
M  END
>  <NAME>  (4039) 
1,2-DICHLOROETHANE

>  <SYNONYMS>  (4039) 


>  <SPECTRUM TYPE>  (4039) 
MS1

>  <INSTRUMENT TYPE>  (4039) 
EI-B

>  <INSTRUMENT>  (4039) 
JEOL JMS-D-3000

>  <ION MODE>  (4039) 
P

>  <INCHIKEY>  (4039) 
WSLDOOZREJYCGB-UHFFFAOYSA-N

>  <FORMULA>  (4039) 
C2H4Cl2

>  <EXACT MASS>  (4039) 
97.969005488

>  <MW>  (4039) 
98

>  <ID>  (4039) 
JP004910

>  <CONTRIBUTOR>  (4039) 
University of Tokyo Team, {Faculty of Engineering, University of Tokyo

>  <COMMENT>  (4039) 
SMILES=ClCCCl
cas=107-06-2
InChI=InChI=1S/C2H4Cl2/c3-1-2-4/h1-2H2
computed SMILES=ClCCCl
accession=JP004910
date=2016.01.19 (Created 2008.10.21, modified 2011.05.06)
author=MASS SPECTROSCOPY SOC. OF JAPAN (MSSJ)
license=CC BY-NC-SA
exact mass=97.96901
ionization energy=70 eV
ion type=[M]+*
computed spectral entropy=2.6967147249391403
computed normalized entropy=0.8182185085539359
SPLASH=splash10-03dj-9000000000-cbc052552f77ec2f97a6
submitter=submitter = University of Tokyo Team (Faculty of Engineering, University of Tokyo)
MoNA Rating=3.75

>  <NUM PEAKS>  (4039) 
27

>  <MASS SPECTRAL PEAKS>  (4039) 
42 5.07
43 61.22
44 2.84
45 30.04
46 1.6
47 1.95
48 3.15
49 62.65
50 1.85
51 21.22
57 1.22
58 27.89
59 41.91
60 4.44
61 20.8
62 99.99
63 35.38
64 34.84
65 10.12
73 2.29
74 24.98
75 1.26
97 1.36
98 29.28
99 1.34
100 19.09
102 3.11

>  <PREDICTED SPECTRUM>  (4039) 
14 116
15 169
16 18
25 83
26 242
27 505
28 192
29 108
31 84
32 22
33 7
35 196
36 397
37 188
38 225
39 225
40 56
41 40
42 92
47 86
48 120
49 738
50 310
51 478
52 275
53 310
54 121
61 302
62 471
63 999
64 376
65 617
66 109
69 47
77 38
78 3
94 44
95 16
96 74
97 170
98 477
99 178
100 385
101 105
102 133
103 5

$$$$

     RDKit          2D

  9 10  0  0  0  0  0  0  0  0999 V2000
   -6.7200    5.1500    0.0000 C   0  0  0  0  0  0  0  0  0  0  0  0
   -7.6000    3.9300    0.0000 C   0  0  0  0  0  0  0  0  0  0  0  0
   -7.6000    6.3600    0.0000 C   0  0  0  0  0  0  0  0  0  0  0  0
   -9.0300    4.4000    0.0000 C   0  0  0  0  0  0  0  0  0  0  0  0
   -9.0300    5.9000    0.0000 C   0  0  0  0  0  0  0  0  0  0  0  0
  -10.4600    3.9300    0.0000 C   0  0  0  0  0  0  0  0  0  0  0  0
  -11.9506    6.5191    0.0000 C   0  0  0  0  0  0  0  0  0  0  0  0
  -10.4600    6.3600    0.0000 C   0  0  0  0  0  0  0  0  0  0  0  0
  -11.3400    5.1500    0.0000 C   0  0  0  0  0  0  0  0  0  0  0  0
  2  1  1  0
  3  1  1  0
  4  2  1  0
  5  3  1  0
  6  4  1  0
  8  5  1  0
  8  7  1  0
  9  6  1  0
  9  7  1  0
  9  8  1  0
M  END
>  <NAME>  (4040) 
BICYCLO(6.1.0)NONANE

>  <SYNONYMS>  (4040) 


>  <SPECTRUM TYPE>  (4040) 
MS1

>  <INSTRUMENT TYPE>  (4040) 
EI-B

>  <INSTRUMENT>  (4040) 
JEOL JMS-D-3000

>  <ION MODE>  (4040) 
P

>  <INCHIKEY>  (4040) 
FYECUAIUGWFPJF-UHFFFAOYSA-N

>  <FORMULA>  (4040) 
C9H16

>  <EXACT MASS>  (4040) 
124.12520051199999

>  <MW>  (4040) 
124

>  <ID>  (4040) 
JP004905

>  <CONTRIBUTOR>  (4040) 
University of Tokyo Team, {Faculty of Engineering, University of Tokyo

>  <COMMENT>  (4040) 
SMILES=C(C2)CCC(C1)C(CC2)1
cas=286-60-2
InChI=InChI=1S/C9H16/c1-2-4-6-9-7-8(9)5-3-1/h8-9H,1-7H2
computed SMILES=C1CCCC2CC2CC1
accession=JP004905
date=2016.01.19 (Created 2008.10.21, modified 2011.05.06)
author=MASS SPECTROSCOPY SOC. OF JAPAN (MSSJ)
license=CC BY-NC-SA
exact mass=124.1252
ionization energy=70 eV
ion type=[M]+*
computed spectral entropy=2.70804355595557
computed normalized entropy=0.8216558240149295
SPLASH=splash10-0gc1-9000000000-137cb3b1e6823371194f
submitter=submitter = University of Tokyo Team (Faculty of Engineering, University of Tokyo)
MoNA Rating=3.75

>  <NUM PEAKS>  (4040) 
27

>  <MASS SPECTRAL PEAKS>  (4040) 
41 72.55
42 6.5
51 3.33
52 2.2
53 14.88
54 89.86
55 68.81
56 8.71
57 3.45
65 3.45
66 9.05
67 99.99
68 45.33
69 14.77
70 4.01
77 3.62
79 7.64
80 3.73
81 69.38
82 52
83 12.67
95 37.06
96 69.89
97 5.48
109 4.75
124 16.24
125 1.58

>  <PREDICTED SPECTRUM>  (4040) 
26 35
27 229
28 89
29 186
32 9
37 29
38 83
39 517
40 221
41 719
42 356
43 189
49 1
50 116
51 240
52 171
53 387
54 696
55 713
56 376
57 125
62 20
63 114
64 52
65 206
66 298
67 999
68 716
69 402
70 200
77 240
78 140
79 257
80 300
81 976
82 807
83 318
84 36
91 156
92 72
93 137
95 497
96 732
97 149
109 196
123 24
124 321
125 66

$$$$

     RDKit          2D

 10 10  0  0  0  0  0  0  0  0999 V2000
    3.1239   -2.0857    0.0000 C   0  0  0  0  0  0  0  0  0  0  0  0
   -2.2174   -1.3410    0.0000 C   0  0  0  0  0  0  0  0  0  0  0  0
   -0.5936   -2.5218    0.0000 C   0  0  0  0  0  0  0  0  0  0  0  0
    1.6322   -2.2431    0.0000 C   0  0  0  0  0  0  0  0  0  0  0  0
    1.2100    0.3900    0.0000 C   0  0  0  0  0  0  0  0  0  0  0  0
    0.0000    1.2800    0.0000 C   0  0  0  0  0  0  0  0  0  0  0  0
    0.7500   -1.0300    0.0000 C   0  0  0  0  0  0  0  0  0  0  0  0
   -1.2100    0.3900    0.0000 C   0  0  0  0  0  0  0  0  0  0  0  0
   -0.7500   -1.0300    0.0000 C   0  0  0  0  0  0  0  0  0  0  0  0
   -2.6377    0.8500    0.0000 O   0  0  0  0  0  0  0  0  0  0  0  0
  4  1  2  0
  6  5  1  0
  7  4  1  0
  7  5  1  0
  8  6  1  0
  9  2  1  0
  9  3  1  0
  9  7  1  0
  9  8  1  0
 10  8  2  0
M  END
>  <NAME>  (4041) 
2,2-DIMETHYL-3-VINYLCYCLOPENTANONE

>  <SYNONYMS>  (4041) 


>  <SPECTRUM TYPE>  (4041) 
MS1

>  <INSTRUMENT TYPE>  (4041) 
EI-B

>  <INSTRUMENT>  (4041) 
JEOL JMS-D-3000

>  <ION MODE>  (4041) 
P

>  <INCHIKEY>  (4041) 
FXJIIGNUCAFHEE-UHFFFAOYSA-N

>  <FORMULA>  (4041) 
C9H14O

>  <EXACT MASS>  (4041) 
138.104465068

>  <MW>  (4041) 
138

>  <ID>  (4041) 
JP004903

>  <CONTRIBUTOR>  (4041) 
University of Tokyo Team, {Faculty of Engineering, University of Tokyo

>  <COMMENT>  (4041) 
SMILES=C=CC(C1)C(C)(C)C(=O)C1
InChI=InChI=1S/C9H14O/c1-4-7-5-6-8(10)9(7,2)3/h4,7H,1,5-6H2,2-3H3
computed SMILES=O=C1CCC(C=C)C1(C)C
accession=JP004903
date=2016.01.19 (Created 2008.10.21, modified 2011.05.06)
author=MASS SPECTROSCOPY SOC. OF JAPAN (MSSJ)
license=CC BY-NC-SA
exact mass=138.10447
ionization energy=70 eV
ion type=[M]+*
computed spectral entropy=2.928628436298099
computed normalized entropy=0.8885841609777819
SPLASH=splash10-00m1-9200000000-b6b3bdc959d214d960fd
submitter=submitter = University of Tokyo Team (Faculty of Engineering, University of Tokyo)
MoNA Rating=3.75

>  <NUM PEAKS>  (4041) 
27

>  <MASS SPECTRAL PEAKS>  (4041) 
42 46.72
43 14.4
53 13.92
54 16.96
55 31.84
56 10.24
59 5.44
67 75.68
68 16
69 17.6
70 37.92
77 6.72
79 18.56
81 73.28
82 54.88
83 21.12
84 5.12
95 45.12
96 68.8
97 9.76
105 7.68
109 8.16
110 7.52
120 5.28
123 24.8
138 99.99
139 10.24

>  <PREDICTED SPECTRUM>  (4041) 
26 10
27 112
28 53
29 5
39 289
40 128
41 467
42 177
43 154
50 24
51 136
52 90
53 421
54 485
55 423
56 259
57 78
63 50
65 161
66 199
67 999
68 777
69 544
70 375
71 82
77 230
78 61
79 344
80 94
81 798
82 719
83 438
84 181
91 188
92 0
93 118
94 210
95 783
96 593
97 252
105 212
109 367
110 266
111 41
120 76
121 11
123 353
124 37
137 4
138 896
139 240
140 20

$$$$

     RDKit          2D

 11 11  0  0  0  0  0  0  0  0999 V2000
   -1.6700   -0.9600    0.0000 C   0  0  0  0  0  0  0  0  0  0  0  0
   -0.3700   -1.7100    0.0000 C   0  0  0  0  0  0  0  0  0  0  0  0
   -1.6700    0.5400    0.0000 C   0  0  0  0  0  0  0  0  0  0  0  0
    4.8270    1.2906    0.0000 C   0  0  0  0  0  0  0  0  0  0  0  0
    0.9300   -0.9600    0.0000 C   0  0  0  0  0  0  0  0  0  0  0  0
   -0.3700    1.2900    0.0000 C   0  0  0  0  0  0  0  0  0  0  0  0
    6.1262    0.5408    0.0000 C   0  0  0  0  0  0  0  0  0  0  0  0
    3.5281    0.5404    0.0000 C   0  0  0  0  0  0  0  0  0  0  0  0
    0.9300    0.5400    0.0000 C   0  0  0  0  0  0  0  0  0  0  0  0
    7.4251    1.2910    0.0000 Br  0  0  0  0  0  0  0  0  0  0  0  0
    2.2289    1.2902    0.0000 S   0  0  0  0  0  0  0  0  0  0  0  0
  2  1  2  0
  3  1  1  0
  5  2  1  0
  6  3  2  0
  7  4  1  0
  8  4  1  0
  9  5  2  0
  9  6  1  0
 10  7  1  0
 11  8  1  0
 11  9  1  0
M  END
>  <NAME>  (4042) 
3-BROMOPROPYL PHENYL SULFIDE

>  <SYNONYMS>  (4042) 


>  <SPECTRUM TYPE>  (4042) 
MS1

>  <INSTRUMENT TYPE>  (4042) 
EI-B

>  <INSTRUMENT>  (4042) 
JEOL JMS-D-3000

>  <ION MODE>  (4042) 
P

>  <INCHIKEY>  (4042) 
QKGLUZCZUKTKCC-UHFFFAOYSA-N

>  <FORMULA>  (4042) 
C9H11BrS

>  <EXACT MASS>  (4042) 
229.976483452

>  <MW>  (4042) 
230

>  <ID>  (4042) 
JP004901

>  <CONTRIBUTOR>  (4042) 
University of Tokyo Team, {Faculty of Engineering, University of Tokyo

>  <COMMENT>  (4042) 
SMILES=BrCCCSc(c1)cccc1
cas=3238-98-0
InChI=InChI=1S/C9H11BrS/c10-7-4-8-11-9-5-2-1-3-6-9/h1-3,5-6H,4,7-8H2
computed SMILES=BrCCCSC=1C=CC=CC1
accession=JP004901
date=2016.01.19 (Created 2008.10.21, modified 2011.05.06)
author=MASS SPECTROSCOPY SOC. OF JAPAN (MSSJ)
license=CC BY-NC-SA
exact mass=229.97648
ionization energy=70 eV
ion type=[M]+*
computed spectral entropy=2.3685689754712067
computed normalized entropy=0.7108114067544641
SPLASH=splash10-0089-1950000000-5c4e60e857b7e89387be
submitter=submitter = University of Tokyo Team (Faculty of Engineering, University of Tokyo)
MoNA Rating=3.75

>  <NUM PEAKS>  (4042) 
28

>  <MASS SPECTRAL PEAKS>  (4042) 
41 8.37
45 14.69
65 1.12
66 2.69
73 2.89
77 2.24
79 2
91 2.03
109 10.11
110 43.55
111 4.31
112 2.18
117 1.41
121 1.12
123 99.99
124 9.4
125 4.94
137 1.71
149 1.23
151 9.55
168 2.21
188 1.24
190 1.14
230 55.8
231 6.37
232 56.51
233 6.46
234 2.79

>  <PREDICTED SPECTRUM>  (4042) 
26 8
27 120
29 39
39 111
41 249
43 240
44 162
45 442
50 38
51 180
53 24
57 46
58 104
59 65
63 47
65 290
66 78
69 163
74 27
75 55
77 267
78 106
79 88
81 8
82 46
84 0
91 149
95 10
103 1
104 6
105 98
108 118
109 403
110 565
111 163
112 89
117 45
118 46
121 207
122 45
123 999
124 153
125 191
131 39
135 14
150 37
151 192
152 52
230 662
231 199
232 614
233 223
234 154

$$$$

     RDKit          2D

 11 11  0  0  0  0  0  0  0  0999 V2000
   -0.1782    1.7605    0.0000 C   0  0  0  0  0  0  0  0  0  0  0  0
   -1.8121    2.9095    0.0000 C   0  0  0  0  0  0  0  0  0  0  0  0
   -3.7404    2.9095    0.0000 C   0  0  0  0  0  0  0  0  0  0  0  0
   -0.9642   -1.8991    0.0000 C   0  0  0  0  0  0  0  0  0  0  0  0
    0.0000   -0.2291    0.0000 C   0  0  0  0  0  0  0  0  0  0  0  0
   -4.0753   -0.4895    0.0000 C   0  0  0  0  0  0  0  0  0  0  0  0
   -4.0753    1.0105    0.0000 C   0  0  0  0  0  0  0  0  0  0  0  0
   -2.7762   -1.2395    0.0000 C   0  0  0  0  0  0  0  0  0  0  0  0
   -1.4772    1.0105    0.0000 N   0  0  0  0  0  0  0  0  0  0  0  0
   -2.7762    1.7605    0.0000 Si  0  0  0  0  0  4  0  0  0  0  0  0
   -1.4772   -0.4895    0.0000 Si  0  0  0  0  0  4  0  0  0  0  0  0
  7  6  1  0
  8  6  1  0
  9  1  1  0
 10  2  1  0
 10  3  1  0
 10  7  1  0
 10  9  1  0
 11  4  1  0
 11  5  1  0
 11  8  1  0
 11  9  1  0
M  END
>  <NAME>  (4043) 
1,2,2,6,6-PENTAMETHYL-2,6-DISILAPIPERIDINE

>  <SYNONYMS>  (4043) 


>  <SPECTRUM TYPE>  (4043) 
MS1

>  <INSTRUMENT TYPE>  (4043) 
EI-B

>  <INSTRUMENT>  (4043) 
JEOL JMS-D-3000

>  <ION MODE>  (4043) 
P

>  <INCHIKEY>  (4043) 
XSFQDEKDQXXGQN-UHFFFAOYSA-N

>  <FORMULA>  (4043) 
C8H21NSi2

>  <EXACT MASS>  (4043) 
187.121252732

>  <MW>  (4043) 
187

>  <ID>  (4043) 
JP004900

>  <CONTRIBUTOR>  (4043) 
University of Tokyo Team, {Faculty of Engineering, University of Tokyo

>  <COMMENT>  (4043) 
SMILES=CN([Si](C)(C)1)[Si](C)(C)CCC1
InChI=InChI=1S/C8H21NSi2/c1-9-10(2,3)7-6-8-11(9,4)5/h6-8H2,1-5H3
computed SMILES=N1(C)[Si](C)(C)CCC[Si]1(C)C
accession=JP004900
date=2016.01.19 (Created 2008.10.21, modified 2011.05.06)
author=MASS SPECTROSCOPY SOC. OF JAPAN (MSSJ)
license=CC BY-NC-SA
exact mass=187.12125
ionization energy=70 eV
ion type=[M]+*
computed spectral entropy=2.7545888694519247
computed normalized entropy=0.8180418378812263
SPLASH=splash10-00di-6900000000-fc51ba9d6f2c11e7bd71
submitter=submitter = University of Tokyo Team (Faculty of Engineering, University of Tokyo)
MoNA Rating=3.75

>  <NUM PEAKS>  (4043) 
29

>  <MASS SPECTRAL PEAKS>  (4043) 
42 2.69
43 10.29
45 8.87
51 3.33
58 3.33
59 24.6
64 29.15
65 4.4
71 2.98
72 4.16
73 17.43
78 8.8
79 9.91
85 3.54
86 5.67
88 6.01
100 3.69
101 3.45
117 7.78
130 4.28
144 39.94
145 6.64
146 4.3
159 3.83
172 99.99
173 17.91
174 8.4
187 13.58
188 2.74

>  <PREDICTED SPECTRUM>  (4043) 
29 19
39 10
40 8
41 10
42 76
43 105
44 103
45 242
46 27
47 14
53 28
54 14
55 34
56 5
57 52
58 97
59 488
60 103
61 57
70 52
71 97
72 177
73 444
74 86
75 114
76 20
77 19
78 5
79 28
83 14
84 12
85 55
86 147
87 97
88 45
89 62
91 37
99 27
100 131
101 30
102 103
103 45
104 39
105 54
111 10
112 53
113 56
114 75
115 86
116 76
117 103
129 68
130 160
131 77
142 8
143 5
144 486
145 245
146 201
147 66
156 15
158 198
159 102
160 19
172 999
173 429
174 271
175 40
186 45
187 396
188 150
189 40

$$$$

     RDKit          2D

 18 20  0  0  0  0  0  0  0  0999 V2000
    3.9000   -0.7500    0.0000 C   0  0  0  0  0  0  0  0  0  0  0  0
    3.9000    0.7500    0.0000 C   0  0  0  0  0  0  0  0  0  0  0  0
   -3.9000   -0.7500    0.0000 C   0  0  0  0  0  0  0  0  0  0  0  0
   -3.9000    0.7500    0.0000 C   0  0  0  0  0  0  0  0  0  0  0  0
    2.6000   -1.5000    0.0000 C   0  0  0  0  0  0  0  0  0  0  0  0
    2.6000    1.5000    0.0000 C   0  0  0  0  0  0  0  0  0  0  0  0
   -2.6000   -1.5000    0.0000 C   0  0  0  0  0  0  0  0  0  0  0  0
   -2.6000    1.5000    0.0000 C   0  0  0  0  0  0  0  0  0  0  0  0
   -0.0000   -3.0000    0.0000 C   0  0  0  0  0  0  0  0  0  0  0  0
    0.0000    3.0000    0.0000 C   0  0  0  0  0  0  0  0  0  0  0  0
    1.3000   -0.7500    0.0000 C   0  0  0  0  0  0  0  0  0  0  0  0
    1.3000    0.7500    0.0000 C   0  0  0  0  0  0  0  0  0  0  0  0
   -1.3000   -0.7500    0.0000 C   0  0  0  0  0  0  0  0  0  0  0  0
   -1.3000    0.7500    0.0000 C   0  0  0  0  0  0  0  0  0  0  0  0
   -0.0000   -1.5000    0.0000 C   0  0  0  0  0  0  0  0  0  0  0  0
   -0.0000    1.5000    0.0000 C   0  0  0  0  0  0  0  0  0  0  0  0
   -0.0000   -4.5000    0.0000 N   0  0  0  0  0  0  0  0  0  0  0  0
    0.0000    4.5000    0.0000 N   0  0  0  0  0  0  0  0  0  0  0  0
  2  1  2  0
  4  3  1  0
  5  1  1  0
  6  2  1  0
  7  3  2  0
  8  4  2  0
 11  5  2  0
 12  6  2  0
 12 11  1  0
 13  7  1  0
 14  8  1  0
 14 13  1  0
 15  9  1  0
 15 11  1  0
 15 13  2  0
 16 10  1  0
 16 12  1  0
 16 14  2  0
 17  9  3  0
 18 10  3  0
M  END
>  <NAME>  (4044) 
9,10-DICYANOANTHRACENE

>  <SYNONYMS>  (4044) 


>  <SPECTRUM TYPE>  (4044) 
MS1

>  <INSTRUMENT TYPE>  (4044) 
EI-B

>  <INSTRUMENT>  (4044) 
JEOL JMS-D-3000

>  <ION MODE>  (4044) 
P

>  <INCHIKEY>  (4044) 
BIOPPFDHKHWJIA-UHFFFAOYSA-N

>  <FORMULA>  (4044) 
C16H8N2

>  <EXACT MASS>  (4044) 
228.068748256

>  <MW>  (4044) 
228

>  <ID>  (4044) 
JP004837

>  <CONTRIBUTOR>  (4044) 
University of Tokyo Team, {Faculty of Engineering, University of Tokyo

>  <COMMENT>  (4044) 
SMILES=N#Cc(c21)c(c3)c(ccc3)c(C#N)c(cccc2)1
cas=1217-45-4
InChI=InChI=1S/C16H8N2/c17-9-15-11-5-1-2-6-12(11)16(10-18)14-8-4-3-7-13(14)15/h1-8H
computed SMILES=N#CC=1C=2C=CC=CC2C(C#N)=C3C=CC=CC13
accession=JP004837
date=2016.01.19 (Created 2008.10.21, modified 2011.05.06)
author=MASS SPECTROSCOPY SOC. OF JAPAN (MSSJ)
license=CC BY-NC-SA
exact mass=228.06875
ionization energy=70 eV
ion type=[M]+*
computed spectral entropy=2.160292814599159
computed normalized entropy=0.6415512398290935
SPLASH=splash10-004i-1190000000-b58b7eb7ac26e99fd7ca
submitter=submitter = University of Tokyo Team (Faculty of Engineering, University of Tokyo)
MoNA Rating=3.75

>  <NUM PEAKS>  (4044) 
29

>  <MASS SPECTRAL PEAKS>  (4044) 
51 1.1
73 1.21
74 2.26
75 2.26
86 1.21
87 5.91
88 1.45
98 1.16
99 1.33
100 2.55
101 6.5
114 6.9
147 1.04
150 1.16
151 1.16
174 2.95
175 3.59
176 1.39
177 1.1
199 3.54
200 5.62
201 8.76
202 3.07
207 1.56
226 3.13
227 5.74
228 99.99
229 18.97
230 1.68

>  <PREDICTED SPECTRUM>  (4044) 
26 17
37 17
38 41
39 53
40 33
41 25
49 16
50 129
51 120
52 46
61 67
62 91
63 95
64 6
74 169
75 175
76 122
77 60
85 5
86 99
87 169
88 114
89 18
91 41
97 0
98 82
99 171
100 170
101 135
102 26
110 29
111 84
112 110
113 34
120 4
122 26
123 93
124 98
125 131
126 35
127 49
137 60
138 90
145 36
146 14
148 14
149 129
150 221
151 144
152 94
153 12
161 33
162 12
171 19
173 225
174 271
175 222
176 158
177 190
178 56
186 19
188 95
189 10
198 50
199 131
200 278
201 372
202 279
203 93
224 8
225 26
226 195
227 224
228 999
229 442
230 126
231 6

$$$$

     RDKit          2D

 13 14  0  0  0  0  0  0  0  0999 V2000
    6.1271    0.5392    0.0000 C   0  0  0  0  0  0  0  0  0  0  0  0
   -1.6700    0.5404    0.0000 C   0  0  0  0  0  0  0  0  0  0  0  0
    6.1271   -0.9608    0.0000 C   0  0  0  0  0  0  0  0  0  0  0  0
    4.8271    1.2892    0.0000 C   0  0  0  0  0  0  0  0  0  0  0  0
   -0.3710    1.2904    0.0000 C   0  0  0  0  0  0  0  0  0  0  0  0
   -1.6695   -0.9604    0.0000 C   0  0  0  0  0  0  0  0  0  0  0  0
    4.8271   -1.7108    0.0000 C   0  0  0  0  0  0  0  0  0  0  0  0
    3.5271    0.5392    0.0000 C   0  0  0  0  0  0  0  0  0  0  0  0
    0.9286    0.5396    0.0000 C   0  0  0  0  0  0  0  0  0  0  0  0
   -0.3700   -1.7112    0.0000 C   0  0  0  0  0  0  0  0  0  0  0  0
    3.5271   -0.9608    0.0000 C   0  0  0  0  0  0  0  0  0  0  0  0
    0.9290   -0.9612    0.0000 C   0  0  0  0  0  0  0  0  0  0  0  0
    2.2282   -1.7110    0.0000 O   0  0  0  0  0  0  0  0  0  0  0  0
  3  1  2  0
  4  1  1  0
  5  2  2  0
  6  2  1  0
  7  3  1  0
  8  4  2  0
  9  5  1  0
 10  6  2  0
 11  7  2  0
 11  8  1  0
 12  9  2  0
 12 10  1  0
 13 11  1  0
 13 12  1  0
M  END
>  <NAME>  (4045) 
DIPHENYL ETHER

>  <SYNONYMS>  (4045) 
PHENYL ETHER

>  <SPECTRUM TYPE>  (4045) 
MS1

>  <INSTRUMENT TYPE>  (4045) 
EI-B

>  <INSTRUMENT>  (4045) 
JEOL JMS-D-3000

>  <ION MODE>  (4045) 
P

>  <INCHIKEY>  (4045) 
USIUVYZYUHIAEV-UHFFFAOYSA-N

>  <FORMULA>  (4045) 
C12H10O

>  <EXACT MASS>  (4045) 
170.07316494

>  <MW>  (4045) 
170

>  <ID>  (4045) 
JP004835

>  <CONTRIBUTOR>  (4045) 
University of Tokyo Team, {Faculty of Engineering, University of Tokyo

>  <COMMENT>  (4045) 
SMILES=c(c2)ccc(c2)Oc(c1)cccc1
cas=101-84-8
InChI=InChI=1S/C12H10O/c1-3-7-11(8-4-1)13-12-9-5-2-6-10-12/h1-10H
computed SMILES=O(C=1C=CC=CC1)C=2C=CC=CC2
accession=JP004835
date=2016.01.19 (Created 2008.10.21, modified 2011.05.06)
author=MASS SPECTROSCOPY SOC. OF JAPAN (MSSJ)
license=CC BY-NC-SA
exact mass=170.07316
ionization energy=70 eV
ion type=[M]+*
computed spectral entropy=2.4018372687265037
computed normalized entropy=0.7207952757378081
SPLASH=splash10-00di-4900000000-5a461502693f815d0a1c
submitter=submitter = University of Tokyo Team (Faculty of Engineering, University of Tokyo)
MoNA Rating=3.75

>  <NUM PEAKS>  (4045) 
28

>  <MASS SPECTRAL PEAKS>  (4045) 
50 5
51 24.09
52 1.35
55 1.18
63 2.99
64 1.34
65 4.06
66 1.21
70 3.37
71 4.53
74 1.33
75 1.41
76 1.77
77 34.07
78 2.49
84 1.11
85 3.47
94 4.93
115 7.65
116 1.43
139 1.85
141 32.36
142 20.33
143 2.36
169 17.92
170 99.99
171 13.53
172 1.12

>  <PREDICTED SPECTRUM>  (4045) 
26 22
27 56
28 31
37 26
38 112
39 326
40 82
44 21
46 14
47 2
49 43
50 274
51 649
52 106
53 97
54 52
55 86
57 50
62 109
63 233
64 152
65 352
66 199
67 22
69 79
70 54
71 6
74 120
75 113
76 163
77 900
78 297
79 23
81 21
83 44
84 7
87 22
89 73
91 10
92 137
93 237
94 348
95 84
102 10
113 22
114 50
115 313
116 183
127 47
139 167
140 89
141 382
142 218
143 78
152 22
153 129
168 50
169 441
170 999
171 358
172 69

$$$$

     RDKit          2D

 13 12  0  0  0  0  0  0  0  0999 V2000
    4.6740    1.6005    0.0000 C   0  0  0  0  0  0  0  0  0  0  0  0
    2.0760    0.1005    0.0000 C   0  0  0  0  0  0  0  0  0  0  0  0
    4.1250   -0.4486    0.0000 C   0  0  0  0  0  0  0  0  0  0  0  0
    1.6740    4.1986    0.0000 C   0  0  0  0  0  0  0  0  0  0  0  0
   -0.3750    4.7476    0.0000 C   0  0  0  0  0  0  0  0  0  0  0  0
   -0.9240    2.6986    0.0000 C   0  0  0  0  0  0  0  0  0  0  0  0
    3.3750    3.4486    0.0000 C   0  0  0  0  0  0  0  0  0  0  0  0
   -0.2845    1.6365    0.0000 C   0  0  0  0  0  0  0  0  0  0  0  0
    3.3750    0.8505    0.0000 C   0  0  0  0  0  0  0  0  0  0  0  0
    0.3750    3.4486    0.0000 C   0  0  0  0  0  0  0  0  0  0  0  0
    1.3855    0.6723    0.0000 Cl  0  0  0  0  0  0  0  0  0  0  0  0
    2.6250    2.1495    0.0000 Si  0  0  0  0  0  4  0  0  0  0  0  0
    1.1250    2.1495    0.0000 Si  0  0  0  0  0  4  0  0  0  0  0  0
  9  1  1  0
  9  2  1  0
  9  3  1  0
 10  4  1  0
 10  5  1  0
 10  6  1  0
 12  7  1  0
 12  9  1  0
 13  8  1  0
 13 10  1  0
 13 11  1  0
 13 12  1  0
M  END
>  <NAME>  (4046) 
1,2-DI-TERT-BUTYL-1-CHLORO-1,2-DIMETHYLDISILANE

>  <SYNONYMS>  (4046) 


>  <SPECTRUM TYPE>  (4046) 
MS1

>  <INSTRUMENT TYPE>  (4046) 
EI-B

>  <INSTRUMENT>  (4046) 
JEOL JMS-D-3000

>  <ION MODE>  (4046) 
P

>  <INCHIKEY>  (4046) 
NHPCBPMRAYGCSY-UHFFFAOYSA-N

>  <FORMULA>  (4046) 
C10H25ClSi2

>  <EXACT MASS>  (4046) 
236.11833153999999

>  <MW>  (4046) 
236

>  <ID>  (4046) 
JP004834

>  <CONTRIBUTOR>  (4046) 
University of Tokyo Team, {Faculty of Engineering, University of Tokyo

>  <COMMENT>  (4046) 
SMILES=CC(C)(C)[SiH](C)[Si](C)(Cl)C(C)(C)C
InChI=InChI=1S/C10H25ClSi2/c1-9(2,3)12(7)13(8,11)10(4,5)6/h12H,1-8H3
computed SMILES=Cl[Si](C)([SiH](C)C(C)(C)C)C(C)(C)C
accession=JP004834
date=2016.01.19 (Created 2008.10.21, modified 2011.05.06)
author=MASS SPECTROSCOPY SOC. OF JAPAN (MSSJ)
license=CC BY-NC-SA
exact mass=236.11833
ionization energy=70 eV
ion type=[M]+*
computed spectral entropy=3.201750351554001
computed normalized entropy=0.7819933820656103
SPLASH=splash10-059i-9300000000-d319ca24da33c55d9e0b
submitter=submitter = University of Tokyo Team (Faculty of Engineering, University of Tokyo)
MoNA Rating=3.75

>  <NUM PEAKS>  (4046) 
60

>  <MASS SPECTRAL PEAKS>  (4046) 
43 16.88
44 2.36
45 7.3
55 1.36
56 3.73
57 15.54
58 16.26
59 59.74
60 4.87
61 2.27
63 3.45
65 2.46
69 1.19
71 3.4
72 7.78
73 92.7
74 8.26
75 3.47
79 2.74
81 1.15
83 1.11
85 99.99
86 10.57
87 4.33
93 21.76
94 1.9
95 7.98
99 5.98
100 35.44
101 10.94
102 2.43
105 1.15
113 1.85
119 1.3
121 1.23
122 2.94
123 6.15
124 2.41
125 2.67
127 1.07
135 2.47
136 1.33
137 16.22
138 2.53
139 6.71
151 3.57
153 1.59
157 2.84
179 22.14
180 9.1
181 10.12
182 3.39
187 9.44
188 1.37
189 6.77
191 1.55
229 1.47
236 4.82
237 1.13
238 2.12

>  <PREDICTED SPECTRUM>  (4046) 
26 11
27 93
28 20
29 131
31 98
38 23
39 168
40 69
41 223
42 118
43 262
44 132
45 288
46 58
47 7
49 13
50 61
51 113
52 34
53 112
54 74
55 127
56 249
57 460
58 302
59 628
60 163
61 72
62 18
63 137
65 108
66 35
67 151
68 41
69 139
70 73
71 234
72 482
73 999
74 271
75 49
76 34
78 163
79 155
80 49
81 66
82 27
83 106
84 80
85 808
86 444
87 170
88 11
93 493
94 124
95 317
96 82
97 74
99 191
100 754
101 316
102 110
103 96
104 36
105 28
106 61
107 51
108 35
109 143
111 17
115 75
116 42
117 125
118 29
119 72
121 147
122 131
123 250
124 70
125 82
126 14
135 46
136 143
137 335
138 137
139 122
140 18
151 90
153 79
179 514
180 222
181 344
182 88
183 33
221 11
223 51
235 102
236 156
237 61
238 144
239 31

$$$$

     RDKit          2D

 14 13  0  0  0  0  0  0  0  0999 V2000
    4.6740    1.6005    0.0000 C   0  0  0  0  0  0  0  0  0  0  0  0
    2.0760    0.1005    0.0000 C   0  0  0  0  0  0  0  0  0  0  0  0
    4.1250   -0.4486    0.0000 C   0  0  0  0  0  0  0  0  0  0  0  0
    1.6740    4.1986    0.0000 C   0  0  0  0  0  0  0  0  0  0  0  0
   -0.3750    4.7476    0.0000 C   0  0  0  0  0  0  0  0  0  0  0  0
   -0.9240    2.6986    0.0000 C   0  0  0  0  0  0  0  0  0  0  0  0
    4.0345    2.6625    0.0000 C   0  0  0  0  0  0  0  0  0  0  0  0
   -0.2845    1.6365    0.0000 C   0  0  0  0  0  0  0  0  0  0  0  0
    3.3750    0.8505    0.0000 C   0  0  0  0  0  0  0  0  0  0  0  0
    0.3750    3.4486    0.0000 C   0  0  0  0  0  0  0  0  0  0  0  0
    2.3645    3.6267    0.0000 F   0  0  0  0  0  0  0  0  0  0  0  0
    1.3855    0.6723    0.0000 F   0  0  0  0  0  0  0  0  0  0  0  0
    2.6250    2.1495    0.0000 Si  0  0  0  0  0  4  0  0  0  0  0  0
    1.1250    2.1495    0.0000 Si  0  0  0  0  0  4  0  0  0  0  0  0
  9  1  1  0
  9  2  1  0
  9  3  1  0
 10  4  1  0
 10  5  1  0
 10  6  1  0
 13  7  1  0
 13  9  1  0
 13 11  1  0
 14  8  1  0
 14 10  1  0
 14 12  1  0
 14 13  1  0
M  END
>  <NAME>  (4047) 
1,2-DI-TERT-BUTYL-1,2-DIFLUORO-1,2-DIMETHYLDISILANE

>  <SYNONYMS>  (4047) 


>  <SPECTRUM TYPE>  (4047) 
MS1

>  <INSTRUMENT TYPE>  (4047) 
EI-B

>  <INSTRUMENT>  (4047) 
JEOL JMS-D-3000

>  <ION MODE>  (4047) 
P

>  <INCHIKEY>  (4047) 
DCFFYZURNZFNOS-UHFFFAOYSA-N

>  <FORMULA>  (4047) 
C10H24F2Si2

>  <EXACT MASS>  (4047) 
238.138460268

>  <MW>  (4047) 
238

>  <ID>  (4047) 
JP004833

>  <CONTRIBUTOR>  (4047) 
University of Tokyo Team, {Faculty of Engineering, University of Tokyo

>  <COMMENT>  (4047) 
SMILES=CC(C)(C)[Si](C)(F)[Si](C)(F)C(C)(C)C
InChI=InChI=1S/C10H24F2Si2/c1-9(2,3)13(7,11)14(8,12)10(4,5)6/h1-8H3
computed SMILES=F[Si](C)(C(C)(C)C)[Si](F)(C)C(C)(C)C
accession=JP004833
date=2016.01.19 (Created 2008.10.21, modified 2011.05.06)
author=MASS SPECTROSCOPY SOC. OF JAPAN (MSSJ)
license=CC BY-NC-SA
exact mass=238.13846
ionization energy=70 eV
ion type=[M]+*
computed spectral entropy=2.8228297437779037
computed normalized entropy=0.7552378974240022
SPLASH=splash10-0kp0-9200000000-e6e90e7b1eee2f5979fb
submitter=submitter = University of Tokyo Team (Faculty of Engineering, University of Tokyo)
MoNA Rating=3.75

>  <NUM PEAKS>  (4047) 
42

>  <MASS SPECTRAL PEAKS>  (4047) 
43 11.69
44 3.07
45 3.11
47 5.12
49 5.31
55 1.19
56 5.12
57 17.51
58 29.1
59 51.02
60 4.25
61 1.73
62 1.42
63 6.11
72 16.83
73 83.79
74 8.6
75 3.16
76 1.48
77 80.21
78 5.97
79 2.87
81 1.17
85 99.99
86 9.29
87 4.19
89 2.93
99 3.22
100 83.15
101 10.01
102 3.41
103 9.18
104 1.17
118 4.28
119 5.45
125 1.23
139 2.52
153 5.29
181 7.14
182 1.52
238 6.88
239 1.63

>  <PREDICTED SPECTRUM>  (4047) 
29 22
31 111
39 76
40 45
41 191
42 112
43 106
44 78
45 149
46 56
47 186
49 69
50 120
51 165
52 53
53 75
54 70
55 186
56 291
57 585
58 586
59 760
60 155
61 86
62 35
63 194
64 18
65 37
66 29
67 50
68 30
69 191
70 48
71 125
72 323
73 999
74 317
75 151
76 74
77 787
78 354
79 133
81 175
82 51
83 102
84 129
85 913
86 337
87 314
88 137
89 101
90 20
97 81
100 919
101 305
102 181
103 308
104 104
105 105
106 22
109 15
119 170
125 56
131 30
136 103
139 43
153 152
155 54
167 3
181 234
182 4
238 245
239 72
240 20

$$$$

     RDKit          2D

 14 13  0  0  0  0  0  0  0  0999 V2000
    4.6740    1.6005    0.0000 C   0  0  0  0  0  0  0  0  0  0  0  0
    2.0760    0.1005    0.0000 C   0  0  0  0  0  0  0  0  0  0  0  0
    4.1250   -0.4486    0.0000 C   0  0  0  0  0  0  0  0  0  0  0  0
    1.6740    4.1986    0.0000 C   0  0  0  0  0  0  0  0  0  0  0  0
   -0.3750    4.7476    0.0000 C   0  0  0  0  0  0  0  0  0  0  0  0
   -0.9240    2.6986    0.0000 C   0  0  0  0  0  0  0  0  0  0  0  0
    4.0345    2.6625    0.0000 C   0  0  0  0  0  0  0  0  0  0  0  0
   -0.2845    1.6365    0.0000 C   0  0  0  0  0  0  0  0  0  0  0  0
    3.3750    0.8505    0.0000 C   0  0  0  0  0  0  0  0  0  0  0  0
    0.3750    3.4486    0.0000 C   0  0  0  0  0  0  0  0  0  0  0  0
    2.3645    3.6267    0.0000 Cl  0  0  0  0  0  0  0  0  0  0  0  0
    1.3855    0.6723    0.0000 Cl  0  0  0  0  0  0  0  0  0  0  0  0
    2.6250    2.1495    0.0000 Si  0  0  0  0  0  4  0  0  0  0  0  0
    1.1250    2.1495    0.0000 Si  0  0  0  0  0  4  0  0  0  0  0  0
  9  1  1  0
  9  2  1  0
  9  3  1  0
 10  4  1  0
 10  5  1  0
 10  6  1  0
 13  7  1  0
 13  9  1  0
 13 11  1  0
 14  8  1  0
 14 10  1  0
 14 12  1  0
 14 13  1  0
M  END
>  <NAME>  (4048) 
1,2-DI-TERT-BUTYL-1,2-DICHLORO-1,2-DIMETHYLDISILANE

>  <SYNONYMS>  (4048) 


>  <SPECTRUM TYPE>  (4048) 
MS1

>  <INSTRUMENT TYPE>  (4048) 
EI-B

>  <INSTRUMENT>  (4048) 
JEOL JMS-D-3000

>  <ION MODE>  (4048) 
P

>  <INCHIKEY>  (4048) 
FRISHBNSKGDUHD-UHFFFAOYSA-N

>  <FORMULA>  (4048) 
C10H24Cl2Si2

>  <EXACT MASS>  (4048) 
270.079359188

>  <MW>  (4048) 
270

>  <ID>  (4048) 
JP004832

>  <CONTRIBUTOR>  (4048) 
University of Tokyo Team, {Faculty of Engineering, University of Tokyo

>  <COMMENT>  (4048) 
SMILES=CC(C)(C)[Si](C)(Cl)[Si](C)(Cl)C(C)(C)C
InChI=InChI=1S/C10H24Cl2Si2/c1-9(2,3)13(7,11)14(8,12)10(4,5)6/h1-8H3
computed SMILES=Cl[Si](C)(C(C)(C)C)[Si](Cl)(C)C(C)(C)C
accession=JP004832
date=2016.01.19 (Created 2008.10.21, modified 2011.05.06)
author=MASS SPECTROSCOPY SOC. OF JAPAN (MSSJ)
license=CC BY-NC-SA
exact mass=270.07936
ionization energy=70 eV
ion type=[M]+*
computed spectral entropy=3.1847333284354575
computed normalized entropy=0.7657664965812729
SPLASH=splash10-059l-9200000000-fb97bac8f2212d977b10
submitter=submitter = University of Tokyo Team (Faculty of Engineering, University of Tokyo)
MoNA Rating=3.75

>  <NUM PEAKS>  (4048) 
64

>  <MASS SPECTRAL PEAKS>  (4048) 
43 15.02
44 1.91
45 3.81
55 1.82
56 4.51
57 36.47
58 15.76
59 32.1
60 2.87
61 1.31
63 6.57
65 5.85
67 1.58
72 10.48
73 86.16
74 7.94
75 6.09
78 2.18
79 6.34
80 1.46
81 2.05
83 1.08
85 99.99
86 10.24
87 3.89
92 1.48
93 83.35
94 6.7
95 30.25
96 2.05
97 1.11
99 3.36
100 48.2
101 6.57
102 1.99
105 8.3
106 1.22
107 2.96
113 1.55
115 1.09
119 10.1
120 5.32
121 4.05
122 1.99
134 6.5
135 10.19
136 3.55
137 4.15
153 1.24
157 2.05
158 1.08
159 1.4
167 1.4
169 1.88
171 1.67
195 1.71
211 1
213 7.7
214 3.91
215 5.56
216 2.7
217 1.36
270 2.46
272 1.69

>  <PREDICTED SPECTRUM>  (4048) 
27 18
29 61
31 34
35 28
36 30
37 3
38 26
39 144
40 78
41 238
42 104
43 168
44 64
45 176
46 4
47 85
49 69
50 85
51 149
52 58
53 110
54 98
55 123
56 233
57 505
58 350
59 498
60 97
61 87
62 26
63 235
65 242
66 86
67 209
68 59
69 55
71 123
72 354
73 874
74 280
75 89
76 39
77 159
78 282
79 332
80 110
81 85
82 114
83 38
84 36
85 760
86 248
87 108
88 8
89 11
91 23
93 999
94 308
95 641
96 193
97 95
98 46
99 132
100 615
101 256
103 50
104 46
105 164
106 123
107 150
108 139
109 39
110 13
113 164
115 201
116 76
117 64
118 80
119 345
120 152
121 166
122 129
123 37
124 17
128 11
129 84
130 19
133 79
134 165
135 303
136 245
137 237
138 19
142 5
151 17
156 45
157 205
158 35
159 17
187 2
213 235
214 102
215 277
216 110
217 111
257 32
269 11
270 102
271 30
272 88

$$$$

     RDKit          2D

 14 13  0  0  0  0  0  0  0  0999 V2000
    4.6740    1.6005    0.0000 C   0  0  0  0  0  0  0  0  0  0  0  0
    2.0760    0.1005    0.0000 C   0  0  0  0  0  0  0  0  0  0  0  0
    4.1250   -0.4486    0.0000 C   0  0  0  0  0  0  0  0  0  0  0  0
    1.6740    4.1986    0.0000 C   0  0  0  0  0  0  0  0  0  0  0  0
   -0.3750    4.7476    0.0000 C   0  0  0  0  0  0  0  0  0  0  0  0
   -0.9240    2.6986    0.0000 C   0  0  0  0  0  0  0  0  0  0  0  0
    4.0345    2.6625    0.0000 C   0  0  0  0  0  0  0  0  0  0  0  0
   -0.2845    1.6365    0.0000 C   0  0  0  0  0  0  0  0  0  0  0  0
    3.3750    0.8505    0.0000 C   0  0  0  0  0  0  0  0  0  0  0  0
    0.3750    3.4486    0.0000 C   0  0  0  0  0  0  0  0  0  0  0  0
    2.3645    3.6267    0.0000 Cl  0  0  0  0  0  0  0  0  0  0  0  0
    1.3855    0.6723    0.0000 F   0  0  0  0  0  0  0  0  0  0  0  0
    2.6250    2.1495    0.0000 Si  0  0  0  0  0  4  0  0  0  0  0  0
    1.1250    2.1495    0.0000 Si  0  0  0  0  0  4  0  0  0  0  0  0
  9  1  1  0
  9  2  1  0
  9  3  1  0
 10  4  1  0
 10  5  1  0
 10  6  1  0
 13  7  1  0
 13  9  1  0
 13 11  1  0
 14  8  1  0
 14 10  1  0
 14 12  1  0
 14 13  1  0
M  END
>  <NAME>  (4049) 
1,2-DI-TERT-BUTYL-1-CHLORO-2-FLUORO-1,2-DIMETHYLDISILANE

>  <SYNONYMS>  (4049) 


>  <SPECTRUM TYPE>  (4049) 
MS1

>  <INSTRUMENT TYPE>  (4049) 
EI-B

>  <INSTRUMENT>  (4049) 
JEOL JMS-D-3000

>  <ION MODE>  (4049) 
P

>  <INCHIKEY>  (4049) 
GFHWQOCAOXRKLP-UHFFFAOYSA-N

>  <FORMULA>  (4049) 
C10H24ClFSi2

>  <EXACT MASS>  (4049) 
254.10890972800001

>  <MW>  (4049) 
254

>  <ID>  (4049) 
JP004831

>  <CONTRIBUTOR>  (4049) 
University of Tokyo Team, {Faculty of Engineering, University of Tokyo

>  <COMMENT>  (4049) 
SMILES=CC(C)(C)[Si](C)(F)[Si](C)(Cl)C(C)(C)C
InChI=InChI=1S/C10H24ClFSi2/c1-9(2,3)13(7,11)14(8,12)10(4,5)6/h1-8H3
computed SMILES=F[Si](C)(C(C)(C)C)[Si](Cl)(C)C(C)(C)C
accession=JP004831
date=2016.01.19 (Created 2008.10.21, modified 2011.05.06)
author=MASS SPECTROSCOPY SOC. OF JAPAN (MSSJ)
license=CC BY-NC-SA
exact mass=254.10891
ionization energy=70 eV
ion type=[M]+*
computed spectral entropy=3.0581843933565653
computed normalized entropy=0.7597309821140248
SPLASH=splash10-0kg9-9200000000-9b20715cd1875f0fecc3
submitter=submitter = University of Tokyo Team (Faculty of Engineering, University of Tokyo)
MoNA Rating=3.75

>  <NUM PEAKS>  (4049) 
56

>  <MASS SPECTRAL PEAKS>  (4049) 
43 11.63
44 1.51
45 3.46
47 3.14
49 2.92
55 1.45
56 4.95
57 18.92
58 21.14
59 35.67
60 3.25
61 1.62
63 3.47
65 2.11
72 14.14
73 76.39
74 7.19
75 7.83
77 40.12
78 3.47
79 4.08
81 1.05
85 99.99
86 9.74
87 4.42
89 1.26
93 24.23
94 2
95 9.12
97 1.06
99 3.31
100 69.83
101 9.4
102 3
103 4.05
105 1.37
118 2.36
119 8.23
120 1.14
121 2.75
123 1.38
134 3.93
135 1.66
136 1.65
137 2.48
141 1.71
153 1.11
155 1.22
169 1.68
171 1.33
179 2.83
197 4.21
198 1.46
199 1.95
254 3.96
256 1.53

>  <PREDICTED SPECTRUM>  (4049) 
27 18
28 9
29 112
31 45
39 103
40 63
41 264
42 126
43 286
44 94
45 195
46 1
47 146
49 120
50 125
51 148
52 43
53 88
54 68
55 97
56 350
57 664
58 431
59 566
60 90
61 126
62 45
63 266
64 39
65 106
66 63
67 158
68 42
69 195
70 41
71 174
72 420
73 999
74 377
75 128
76 89
77 480
78 379
79 334
80 49
81 158
82 38
83 94
84 55
85 970
86 421
87 160
88 31
89 179
90 40
91 159
92 18
93 703
94 115
95 276
96 86
97 21
98 29
99 88
100 992
101 359
102 56
103 144
104 90
105 130
106 127
107 71
108 57
109 57
113 155
114 26
115 44
117 110
118 226
119 464
120 138
121 151
135 92
136 173
137 9
141 151
142 23
147 19
155 40
171 73
197 282
198 100
199 215
253 9
254 151
255 32
256 44

$$$$

     RDKit          2D

  5  4  0  0  0  0  0  0  0  0999 V2000
    0.0000    0.0000    0.0000 C   0  0  0  0  0  0  0  0  0  0  0  0
    1.2990    2.2500    0.0000 C   0  0  0  0  0  0  0  0  0  0  0  0
   -1.2990    2.2500    0.0000 C   0  0  0  0  0  0  0  0  0  0  0  0
    0.0000    1.5000    0.0000 C   0  0  0  0  0  0  0  0  0  0  0  0
   -1.2990    3.7500    0.0000 Br  0  0  0  0  0  0  0  0  0  0  0  0
  4  1  1  0
  4  2  1  0
  4  3  1  0
  5  3  1  0
M  END
>  <NAME>  (4050) 
1-BROMO-2-METHYLPROPANE

>  <SYNONYMS>  (4050) 


>  <SPECTRUM TYPE>  (4050) 
MS1

>  <INSTRUMENT TYPE>  (4050) 
EI-B

>  <INSTRUMENT>  (4050) 
JEOL JMS-D-3000

>  <ION MODE>  (4050) 
P

>  <INCHIKEY>  (4050) 
HLVFKOKELQSXIQ-UHFFFAOYSA-N

>  <FORMULA>  (4050) 
C4H9Br

>  <EXACT MASS>  (4050) 
135.988762388

>  <MW>  (4050) 
136

>  <ID>  (4050) 
JP004829

>  <CONTRIBUTOR>  (4050) 
University of Tokyo Team, {Faculty of Engineering, University of Tokyo

>  <COMMENT>  (4050) 
SMILES=CC(C)CBr
cas=78-77-3
InChI=InChI=1S/C4H9Br/c1-4(2)3-5/h4H,3H2,1-2H3
computed SMILES=BrCC(C)C
accession=JP004829
date=2016.01.19 (Created 2008.10.21, modified 2011.05.06)
author=MASS SPECTROSCOPY SOC. OF JAPAN (MSSJ)
license=CC BY-NC-SA
exact mass=135.98876
ionization energy=70 eV
ion type=[M]+*
computed spectral entropy=1.3115035291940262
computed normalized entropy=0.527787846398945
SPLASH=splash10-0a4i-9000000000-a2abbf1893c3661e5c13
submitter=submitter = University of Tokyo Team (Faculty of Engineering, University of Tokyo)
MoNA Rating=3.75

>  <NUM PEAKS>  (4050) 
12

>  <MASS SPECTRAL PEAKS>  (4050) 
42 9.22
43 34.27
55 3.33
56 2.23
57 99.99
58 4.31
93 1.02
95 0.97
121 2.17
123 2
136 2.2
138 2.14

>  <PREDICTED SPECTRUM>  (4050) 
14 84
15 263
16 13
25 29
26 227
27 649
28 308
29 469
30 91
36 32
37 114
38 209
39 594
40 267
41 999
42 569
43 874
44 235
50 50
51 84
52 70
53 132
54 148
55 474
56 552
57 956
58 268
79 159
80 3
81 95
93 107
94 49
95 239
96 114
121 269
123 424
124 12
136 99
137 6
138 155

$$$$

     RDKit          2D

 10 10  0  0  0  0  0  0  0  0999 V2000
   -1.3000    0.7500    0.0000 C   0  0  0  0  0  0  0  0  0  0  0  0
   -0.0000   -1.5000    0.0000 C   0  0  0  0  0  0  0  0  0  0  0  0
    0.0000    1.5000    0.0000 C   0  0  0  0  0  0  0  0  0  0  0  0
    1.3000   -0.7500    0.0000 C   0  0  0  0  0  0  0  0  0  0  0  0
   -1.3000   -0.7500    0.0000 C   0  0  0  0  0  0  0  0  0  0  0  0
    1.3000    0.7500    0.0000 C   0  0  0  0  0  0  0  0  0  0  0  0
   -2.5989   -1.5002    0.0000 Br  0  0  0  0  0  0  0  0  0  0  0  0
    2.5989    1.5002    0.0000 N   0  0  0  0  0  0  0  0  0  0  0  0
    3.8981    0.7504    0.0000 O   0  0  0  0  0  0  0  0  0  0  0  0
    2.5987    3.0002    0.0000 O   0  0  0  0  0  0  0  0  0  0  0  0
  3  1  2  0
  4  2  1  0
  5  1  1  0
  5  2  2  0
  6  3  1  0
  6  4  2  0
  7  5  1  0
  8  6  1  0
  9  8  1  0
 10  8  2  0
M  CHG  2   8   1   9  -1
M  END
>  <NAME>  (4051) 
1-BROMO-4-NITROBENZENE

>  <SYNONYMS>  (4051) 


>  <SPECTRUM TYPE>  (4051) 
MS1

>  <INSTRUMENT TYPE>  (4051) 
EI-B

>  <INSTRUMENT>  (4051) 
JEOL JMS-D-3000

>  <ION MODE>  (4051) 
P

>  <INCHIKEY>  (4051) 
ZDFBKZUDCQQKAC-UHFFFAOYSA-N

>  <FORMULA>  (4051) 
C6H4BrNO2

>  <EXACT MASS>  (4051) 
200.942540468

>  <MW>  (4051) 
201

>  <ID>  (4051) 
JP004828

>  <CONTRIBUTOR>  (4051) 
University of Tokyo Team, {Faculty of Engineering, University of Tokyo

>  <COMMENT>  (4051) 
SMILES=[O-1][N+1](=O)c(c1)ccc(Br)c1
cas=586-78-7
InChI=InChI=1S/C6H4BrNO2/c7-5-1-3-6(4-2-5)8(9)10/h1-4H
computed SMILES=O=N(=O)C1=CC=C(Br)C=C1
accession=JP004828
date=2016.01.19 (Created 2008.10.21, modified 2011.05.06)
author=MASS SPECTROSCOPY SOC. OF JAPAN (MSSJ)
license=CC BY-NC-SA
exact mass=200.94254
ionization energy=70 eV
ion type=[M]+*
computed spectral entropy=2.7911919555707936
computed normalized entropy=0.7788969455742084
SPLASH=splash10-0zi0-8960000000-c01faa456f981c912aa6
submitter=submitter = University of Tokyo Team (Faculty of Engineering, University of Tokyo)
MoNA Rating=3.75

>  <NUM PEAKS>  (4051) 
36

>  <MASS SPECTRAL PEAKS>  (4051) 
49 3.25
50 47.13
51 6.79
61 2.44
62 2.66
63 5.93
64 5.33
73 5.96
74 27.26
75 83.05
76 66.95
77 4.74
92 2.91
117 1.93
119 1.84
129 2.79
131 2.76
143 21.17
144 1.29
145 20.3
146 1.25
154 1.1
155 77.36
156 6.27
157 74.72
158 5.38
171 34.4
172 2.58
173 33.5
174 2.41
185 2.48
187 2.49
201 99.99
202 7.75
203 98.79
204 7.33

>  <PREDICTED SPECTRUM>  (4051) 
16 39
18 14
25 9
26 40
28 84
30 443
31 115
32 12
36 65
37 247
38 368
39 261
40 44
41 72
46 234
49 156
50 840
51 405
52 134
53 55
57 40
61 62
62 91
63 639
64 383
65 27
69 80
72 34
73 161
74 640
75 935
76 999
77 250
78 69
79 124
80 107
81 219
91 71
92 339
93 192
94 181
106 107
117 284
119 213
122 192
129 97
138 51
143 502
145 603
146 37
147 62
155 494
156 389
157 723
158 57
159 69
171 333
172 50
173 378
174 111
185 53
187 93
201 797
202 193
203 856
204 212
205 6

$$$$

     RDKit          2D

 24 24  0  0  0  0  0  0  0  0999 V2000
   -5.0509   -0.5917    0.0000 C   0  0  0  0  0  0  0  0  0  0  0  0
   -4.4951   -2.6389    0.0000 C   0  0  0  0  0  0  0  0  0  0  0  0
   -2.4479   -2.0831    0.0000 C   0  0  0  0  0  0  0  0  0  0  0  0
   -2.4614    2.0150    0.0000 C   0  0  0  0  0  0  0  0  0  0  0  0
   -4.5123    2.5572    0.0000 C   0  0  0  0  0  0  0  0  0  0  0  0
   -5.0545    0.5064    0.0000 C   0  0  0  0  0  0  0  0  0  0  0  0
    2.4584   -2.0400    0.0000 C   0  0  0  0  0  0  0  0  0  0  0  0
    4.5130   -2.5679    0.0000 C   0  0  0  0  0  0  0  0  0  0  0  0
    5.0408   -0.5133    0.0000 C   0  0  0  0  0  0  0  0  0  0  0  0
    5.0295    0.5847    0.0000 C   0  0  0  0  0  0  0  0  0  0  0  0
    4.4593    2.6280    0.0000 C   0  0  0  0  0  0  0  0  0  0  0  0
    2.4161    2.0578    0.0000 C   0  0  0  0  0  0  0  0  0  0  0  0
   -0.7637   -1.3209    0.0000 C   0  0  0  0  0  0  0  0  0  0  0  0
   -0.7637    1.2791    0.0000 C   0  0  0  0  0  0  0  0  0  0  0  0
    0.7463   -1.3009    0.0000 C   0  0  0  0  0  0  0  0  0  0  0  0
    0.7163    1.2891    0.0000 C   0  0  0  0  0  0  0  0  0  0  0  0
   -1.5037   -0.0309    0.0000 C   0  0  0  0  0  0  0  0  0  0  0  0
    1.4863   -0.0009    0.0000 C   0  0  0  0  0  0  0  0  0  0  0  0
   -3.0037   -0.0359    0.0000 N   0  0  0  0  0  0  0  0  0  0  0  0
    2.9862    0.0146    0.0000 N   0  0  0  0  0  0  0  0  0  0  0  0
   -3.7494   -1.3374    0.0000 Si  0  0  0  0  0  4  0  0  0  0  0  0
   -3.7580    1.2607    0.0000 Si  0  0  0  0  0  4  0  0  0  0  0  0
    3.7496   -1.2767    0.0000 Si  0  0  0  0  0  4  0  0  0  0  0  0
    3.7228    1.3213    0.0000 Si  0  0  0  0  0  4  0  0  0  0  0  0
 15 13  2  0
 16 14  1  0
 17 13  1  0
 17 14  2  0
 18 15  1  0
 18 16  2  0
 19 17  1  0
 20 18  1  0
 21  1  1  0
 21  2  1  0
 21  3  1  0
 21 19  1  0
 22  4  1  0
 22  5  1  0
 22  6  1  0
 22 19  1  0
 23  7  1  0
 23  8  1  0
 23  9  1  0
 23 20  1  0
 24 10  1  0
 24 11  1  0
 24 12  1  0
 24 20  1  0
M  END
>  <NAME>  (4052) 
N,N,N',N'-TETRAKIS(TRIMETHYLSILYL)-',4-PHENYLENEDIAMINE

>  <SYNONYMS>  (4052) 


>  <SPECTRUM TYPE>  (4052) 
MS1

>  <INSTRUMENT TYPE>  (4052) 
EI-B

>  <INSTRUMENT>  (4052) 
JEOL JMS-D-3000

>  <ION MODE>  (4052) 
P

>  <INCHIKEY>  (4052) 
XQKWWUIRCYZBMX-UHFFFAOYSA-N

>  <FORMULA>  (4052) 
C18H40N2Si4

>  <EXACT MASS>  (4052) 
396.2268554

>  <MW>  (4052) 
396

>  <ID>  (4052) 
JP004827

>  <CONTRIBUTOR>  (4052) 
University of Tokyo Team, {Faculty of Engineering, University of Tokyo

>  <COMMENT>  (4052) 
SMILES=C[Si](C)(C)N([Si](C)(C)C)c(c1)ccc(c1)N([Si](C)(C)C)[Si](C)(C)C
cas=25811-68-1
InChI=InChI=1S/C18H40N2Si4/c1-21(2,3)19(22(4,5)6)17-13-15-18(16-14-17)20(23(7,8)9)24(10,11)12/h13-16H,1-12H3
computed SMILES=C=1C=C(C=CC1N([Si](C)(C)C)[Si](C)(C)C)N([Si](C)(C)C)[Si](C)(C)C
accession=JP004827
date=2016.01.19 (Created 2008.10.21, modified 2011.05.06)
author=MASS SPECTROSCOPY SOC. OF JAPAN (MSSJ)
license=CC BY-NC-SA
exact mass=396.22686
ionization energy=70 eV
ion type=[M]+*
computed spectral entropy=2.655226368110792
computed normalized entropy=0.715006015883578
SPLASH=splash10-001j-1009000000-d86312fd74f6425fabf4
submitter=submitter = University of Tokyo Team (Faculty of Engineering, University of Tokyo)
MoNA Rating=3.75

>  <NUM PEAKS>  (4052) 
41

>  <MASS SPECTRAL PEAKS>  (4052) 
45 2.5
59 1.76
73 26.76
74 2.68
75 2.43
100 1.09
130 5.36
131 1.03
183 15.12
184 3.17
194 1.76
206 1.34
208 1.03
220 1.09
234 1.34
235 1.76
266 1.52
277 1.64
291 1.15
292 1.28
293 3.65
294 1.4
309 1.76
324 1.09
335 1.15
349 1.09
365 12.37
366 5.3
367 3.1
368 1.09
379 4.2
381 99.99
382 39.63
383 20.97
384 5.79
385 1.58
396 66.15
397 27.43
398 14.02
399 3.84
400 1.15

>  <PREDICTED SPECTRUM>  (4052) 
27 25
41 4
45 143
46 1
53 3
55 55
59 3
70 0
73 565
74 118
75 89
83 8
85 0
97 0
98 5
100 78
111 14
114 6
115 17
121 32
123 35
124 28
126 11
130 189
131 16
139 2
140 8
152 0
155 16
165 21
172 3
174 11
180 0
184 20
190 46
192 21
193 15
195 35
208 29
219 27
220 92
222 3
234 22
235 95
236 24
237 22
250 19
251 10
263 34
275 16
277 64
278 9
280 10
289 47
290 12
291 113
292 65
293 275
294 36
305 3
306 7
308 77
309 62
319 8
336 10
349 32
351 54
364 12
365 348
366 232
367 194
368 109
369 50
370 13
379 97
380 63
381 999
382 649
383 492
384 238
385 109
395 95
396 831
397 495
398 384
399 163
400 55

$$$$

     RDKit          2D

 17 17  0  0  0  0  0  0  0  0999 V2000
    3.8981    0.7504    0.0000 C   0  0  0  0  0  0  0  0  0  0  0  0
   -3.1483    0.5487    0.0000 C   0  0  0  0  0  0  0  0  0  0  0  0
   -5.1972   -0.0006    0.0000 C   0  0  0  0  0  0  0  0  0  0  0  0
   -4.6479   -2.0496    0.0000 C   0  0  0  0  0  0  0  0  0  0  0  0
   -4.0987   -3.0004    0.0000 C   0  0  0  0  0  0  0  0  0  0  0  0
   -2.5984   -4.5002    0.0000 C   0  0  0  0  0  0  0  0  0  0  0  0
   -1.0987   -3.0000    0.0000 C   0  0  0  0  0  0  0  0  0  0  0  0
   -1.3000    0.7500    0.0000 C   0  0  0  0  0  0  0  0  0  0  0  0
   -0.0000   -1.5000    0.0000 C   0  0  0  0  0  0  0  0  0  0  0  0
    0.0000    1.5000    0.0000 C   0  0  0  0  0  0  0  0  0  0  0  0
    1.3000   -0.7500    0.0000 C   0  0  0  0  0  0  0  0  0  0  0  0
   -1.3000   -0.7500    0.0000 C   0  0  0  0  0  0  0  0  0  0  0  0
    1.3000    0.7500    0.0000 C   0  0  0  0  0  0  0  0  0  0  0  0
   -2.5989   -1.5002    0.0000 N   0  0  0  0  0  0  0  0  0  0  0  0
    2.5989    1.5002    0.0000 O   0  0  0  0  0  0  0  0  0  0  0  0
   -3.8981   -0.7504    0.0000 Si  0  0  0  0  0  4  0  0  0  0  0  0
   -2.5987   -3.0002    0.0000 Si  0  0  0  0  0  4  0  0  0  0  0  0
 10  8  2  0
 11  9  1  0
 12  8  1  0
 12  9  2  0
 13 10  1  0
 13 11  2  0
 14 12  1  0
 15  1  1  0
 15 13  1  0
 16  2  1  0
 16  3  1  0
 16  4  1  0
 16 14  1  0
 17  5  1  0
 17  6  1  0
 17  7  1  0
 17 14  1  0
M  END
>  <NAME>  (4053) 
4-N,N-BIS(TRIMETHYLSILYL)ANISIDINE

>  <SYNONYMS>  (4053) 


>  <SPECTRUM TYPE>  (4053) 
MS1

>  <INSTRUMENT TYPE>  (4053) 
EI-B

>  <INSTRUMENT>  (4053) 
JEOL JMS-D-3000

>  <ION MODE>  (4053) 
P

>  <INCHIKEY>  (4053) 
YQDOBHUSDRFHKO-UHFFFAOYSA-N

>  <FORMULA>  (4053) 
C13H25NOSi2

>  <EXACT MASS>  (4053) 
267.14746748

>  <MW>  (4053) 
267

>  <ID>  (4053) 
JP004826

>  <CONTRIBUTOR>  (4053) 
University of Tokyo Team, {Faculty of Engineering, University of Tokyo

>  <COMMENT>  (4053) 
SMILES=COc(c1)ccc(c1)N([Si](C)(C)C)[Si](C)(C)C
InChI=InChI=1S/C13H25NOSi2/c1-15-13-10-8-12(9-11-13)14(16(2,3)4)17(5,6)7/h8-11H,1-7H3
computed SMILES=O(C1=CC=C(C=C1)N([Si](C)(C)C)[Si](C)(C)C)C
accession=JP004826
date=2016.01.19 (Created 2008.10.21, modified 2011.05.06)
author=MASS SPECTROSCOPY SOC. OF JAPAN (MSSJ)
license=CC BY-NC-SA
exact mass=267.14747
ionization energy=70 eV
ion type=[M]+*
computed spectral entropy=2.190859720930635
computed normalized entropy=0.6806288406668627
SPLASH=splash10-0udi-1090000000-53d2b14c484e47447771
submitter=submitter = University of Tokyo Team (Faculty of Engineering, University of Tokyo)
MoNA Rating=3.75

>  <NUM PEAKS>  (4053) 
25

>  <MASS SPECTRAL PEAKS>  (4053) 
43 1.69
45 5.79
59 3.54
73 22.65
74 2.06
75 1.66
130 1.12
164 3.38
179 1.56
180 1.41
206 3.36
220 1.1
221 2.64
222 1.73
236 2.78
237 7.47
238 2.09
250 1.07
252 99.99
253 24.49
254 9.85
255 1.54
267 28.76
268 7.19
269 2.73

>  <PREDICTED SPECTRUM>  (4053) 
15 18
27 39
28 13
29 34
30 12
31 4
39 40
41 29
42 13
43 103
44 53
45 226
46 62
47 27
50 10
51 37
52 45
53 88
54 54
55 62
56 31
57 24
58 29
59 103
60 53
61 52
62 22
63 85
64 43
65 55
66 28
67 56
68 15
69 37
70 50
71 11
72 35
73 523
74 137
75 141
76 38
77 87
78 51
79 65
80 35
81 34
82 35
83 81
84 38
85 17
86 15
87 33
88 12
89 111
90 52
91 37
92 37
93 56
94 37
95 67
96 17
97 30
98 10
99 7
100 43
101 42
102 55
103 44
104 42
105 89
106 65
107 100
108 64
109 38
110 1
111 12
114 14
115 27
116 11
117 26
118 65
119 44
120 35
121 47
122 52
123 64
124 34
125 7
126 16
127 16
128 11
130 88
132 47
133 31
134 61
135 78
136 47
137 29
138 10
139 41
140 27
141 3
144 30
145 1
146 51
147 57
148 80
149 74
150 60
151 54
152 20
153 13
154 9
155 6
158 10
160 12
161 11
162 54
163 63
164 131
165 83
166 65
167 17
168 5
173 2
175 5
176 71
177 45
178 71
179 137
180 90
181 35
190 41
191 79
192 80
193 26
194 80
195 48
196 4
205 43
206 106
207 117
208 70
209 52
218 12
219 21
220 114
221 82
222 204
223 88
224 27
235 14
236 190
237 265
238 146
239 71
240 5
250 48
252 999
253 487
254 308
255 124
256 47
267 506
268 224
269 137
270 33

$$$$

     RDKit          2D

 16 16  0  0  0  0  0  0  0  0999 V2000
   -0.5500    3.5487    0.0000 C   0  0  0  0  0  0  0  0  0  0  0  0
   -2.5989    2.9994    0.0000 C   0  0  0  0  0  0  0  0  0  0  0  0
   -2.0496    0.9504    0.0000 C   0  0  0  0  0  0  0  0  0  0  0  0
   -1.5004   -0.0004    0.0000 C   0  0  0  0  0  0  0  0  0  0  0  0
   -0.0001   -1.5002    0.0000 C   0  0  0  0  0  0  0  0  0  0  0  0
    1.4996    0.0000    0.0000 C   0  0  0  0  0  0  0  0  0  0  0  0
    3.8983    2.2500    0.0000 C   0  0  0  0  0  0  0  0  0  0  0  0
    2.5983    4.5000    0.0000 C   0  0  0  0  0  0  0  0  0  0  0  0
    2.5983    1.5000    0.0000 C   0  0  0  0  0  0  0  0  0  0  0  0
    1.2983    3.7500    0.0000 C   0  0  0  0  0  0  0  0  0  0  0  0
    3.8983    3.7500    0.0000 C   0  0  0  0  0  0  0  0  0  0  0  0
    1.2983    2.2500    0.0000 C   0  0  0  0  0  0  0  0  0  0  0  0
    5.1972    4.5002    0.0000 Cl  0  0  0  0  0  0  0  0  0  0  0  0
   -0.0006    1.4998    0.0000 N   0  0  0  0  0  0  0  0  0  0  0  0
   -1.2998    2.2496    0.0000 Si  0  0  0  0  0  4  0  0  0  0  0  0
   -0.0004   -0.0002    0.0000 Si  0  0  0  0  0  4  0  0  0  0  0  0
  9  7  2  0
 10  8  1  0
 11  7  1  0
 11  8  2  0
 12  9  1  0
 12 10  2  0
 13 11  1  0
 14 12  1  0
 15  1  1  0
 15  2  1  0
 15  3  1  0
 15 14  1  0
 16  4  1  0
 16  5  1  0
 16  6  1  0
 16 14  1  0
M  END
>  <NAME>  (4054) 
4-CHLORO-N,N-BIS(TRIMETHYLSILYL)ANILINE

>  <SYNONYMS>  (4054) 


>  <SPECTRUM TYPE>  (4054) 
MS1

>  <INSTRUMENT TYPE>  (4054) 
EI-B

>  <INSTRUMENT>  (4054) 
JEOL JMS-D-3000

>  <ION MODE>  (4054) 
P

>  <INCHIKEY>  (4054) 
FTAAFHOZHUFYBM-UHFFFAOYSA-N

>  <FORMULA>  (4054) 
C12H22ClNSi2

>  <EXACT MASS>  (4054) 
271.09793044400004

>  <MW>  (4054) 
271

>  <ID>  (4054) 
JP004825

>  <CONTRIBUTOR>  (4054) 
University of Tokyo Team, {Faculty of Engineering, University of Tokyo

>  <COMMENT>  (4054) 
SMILES=Clc(c1)ccc(c1)N([Si](C)(C)C)[Si](C)(C)C
InChI=InChI=1S/C12H22ClNSi2/c1-15(2,3)14(16(4,5)6)12-9-7-11(13)8-10-12/h7-10H,1-6H3
computed SMILES=ClC1=CC=C(C=C1)N([Si](C)(C)C)[Si](C)(C)C
accession=JP004825
date=2016.01.19 (Created 2008.10.21, modified 2011.05.06)
author=MASS SPECTROSCOPY SOC. OF JAPAN (MSSJ)
license=CC BY-NC-SA
exact mass=271.09793
ionization energy=70 eV
ion type=[M]+*
computed spectral entropy=2.4947578402058266
computed normalized entropy=0.7198349528567614
SPLASH=splash10-0a4i-2090000000-830121da1f7e263ae35b
submitter=submitter = University of Tokyo Team (Faculty of Engineering, University of Tokyo)
MoNA Rating=3.75

>  <NUM PEAKS>  (4054) 
32

>  <MASS SPECTRAL PEAKS>  (4054) 
43 3.62
45 9.99
59 5.1
63 1.27
70 1.01
73 37.87
74 3.24
75 1.6
93 4.22
95 1.77
100 1.35
121 1.9
130 1.77
148 2.86
183 1.6
184 1.11
206 4.87
207 1.18
220 1.08
221 7.56
222 1.88
240 3.6
242 1.64
256 99.99
257 23.25
258 41.1
259 8.9
260 3.18
271 18.72
272 4.49
273 7.67
274 1.68

>  <PREDICTED SPECTRUM>  (4054) 
15 11
27 9
29 39
39 32
42 18
43 91
44 25
45 260
46 38
47 35
50 23
51 27
52 34
53 49
54 33
55 26
57 31
58 47
59 106
60 27
61 35
62 20
63 102
64 27
65 82
66 37
67 52
68 6
70 8
71 13
72 48
73 574
74 159
75 206
76 55
77 18
78 10
81 7
82 1
83 42
84 22
85 42
86 38
87 18
89 47
91 30
93 107
94 20
95 77
97 17
99 58
100 48
101 69
102 65
109 20
110 43
111 90
113 39
114 15
115 1
117 11
118 14
119 28
125 106
126 0
127 46
128 35
129 15
130 138
131 73
134 32
138 5
140 3
141 17
142 16
143 38
144 84
145 30
146 86
147 8
148 91
149 48
155 44
160 18
162 89
163 41
164 1
166 21
168 89
169 22
170 29
176 2
177 60
180 6
182 74
183 125
184 137
185 17
196 26
198 19
199 21
206 66
219 33
220 141
221 242
222 93
223 18
224 26
226 40
236 75
239 2
240 216
241 64
242 103
243 0
244 14
256 999
257 499
258 696
259 298
260 159
271 408
272 183
273 296
274 116
275 32

$$$$

     RDKit          2D

 16 16  0  0  0  0  0  0  0  0999 V2000
   -0.5500    3.5487    0.0000 C   0  0  0  0  0  0  0  0  0  0  0  0
   -2.5989    2.9994    0.0000 C   0  0  0  0  0  0  0  0  0  0  0  0
   -2.0496    0.9504    0.0000 C   0  0  0  0  0  0  0  0  0  0  0  0
   -1.5004   -0.0004    0.0000 C   0  0  0  0  0  0  0  0  0  0  0  0
   -0.0001   -1.5002    0.0000 C   0  0  0  0  0  0  0  0  0  0  0  0
    1.4996    0.0000    0.0000 C   0  0  0  0  0  0  0  0  0  0  0  0
    3.8983    2.2500    0.0000 C   0  0  0  0  0  0  0  0  0  0  0  0
    2.5983    4.5000    0.0000 C   0  0  0  0  0  0  0  0  0  0  0  0
    2.5983    1.5000    0.0000 C   0  0  0  0  0  0  0  0  0  0  0  0
    1.2983    3.7500    0.0000 C   0  0  0  0  0  0  0  0  0  0  0  0
    3.8983    3.7500    0.0000 C   0  0  0  0  0  0  0  0  0  0  0  0
    1.2983    2.2500    0.0000 C   0  0  0  0  0  0  0  0  0  0  0  0
    5.1972    4.5002    0.0000 Br  0  0  0  0  0  0  0  0  0  0  0  0
   -0.0006    1.4998    0.0000 N   0  0  0  0  0  0  0  0  0  0  0  0
   -1.2998    2.2496    0.0000 Si  0  0  0  0  0  4  0  0  0  0  0  0
   -0.0004   -0.0002    0.0000 Si  0  0  0  0  0  4  0  0  0  0  0  0
  9  7  2  0
 10  8  1  0
 11  7  1  0
 11  8  2  0
 12  9  1  0
 12 10  2  0
 13 11  1  0
 14 12  1  0
 15  1  1  0
 15  2  1  0
 15  3  1  0
 15 14  1  0
 16  4  1  0
 16  5  1  0
 16  6  1  0
 16 14  1  0
M  END
>  <NAME>  (4055) 
4-BROMO-N,N-BIS(TRIMETHYLSILYL)ANILINE

>  <SYNONYMS>  (4055) 


>  <SPECTRUM TYPE>  (4055) 
MS1

>  <INSTRUMENT TYPE>  (4055) 
EI-B

>  <INSTRUMENT>  (4055) 
JEOL JMS-D-3000

>  <ION MODE>  (4055) 
P

>  <INCHIKEY>  (4055) 
YJYMZGDBOMZWSR-UHFFFAOYSA-N

>  <FORMULA>  (4055) 
C12H22BrNSi2

>  <EXACT MASS>  (4055) 
315.0474148640001

>  <MW>  (4055) 
315

>  <ID>  (4055) 
JP004824

>  <CONTRIBUTOR>  (4055) 
University of Tokyo Team, {Faculty of Engineering, University of Tokyo

>  <COMMENT>  (4055) 
SMILES=Brc(c1)ccc(c1)N([Si](C)(C)C)[Si](C)(C)C
InChI=InChI=1S/C12H22BrNSi2/c1-15(2,3)14(16(4,5)6)12-9-7-11(13)8-10-12/h7-10H,1-6H3
computed SMILES=BrC1=CC=C(C=C1)N([Si](C)(C)C)[Si](C)(C)C
accession=JP004824
date=2016.01.19 (Created 2008.10.21, modified 2011.05.06)
author=MASS SPECTROSCOPY SOC. OF JAPAN (MSSJ)
license=CC BY-NC-SA
exact mass=315.04742
ionization energy=70 eV
ion type=[M]+*
computed spectral entropy=2.97329855760416
computed normalized entropy=0.7453774000838815
SPLASH=splash10-0uk9-2139000000-4c33528dabb69db6b4ac
submitter=submitter = University of Tokyo Team (Faculty of Engineering, University of Tokyo)
MoNA Rating=3.75

>  <NUM PEAKS>  (4055) 
54

>  <MASS SPECTRAL PEAKS>  (4055) 
43 6.44
44 1.92
45 15.4
57 1.08
58 1.77
59 8.4
70 1.51
73 58.81
74 5.2
75 2.49
83 1.06
84 1.45
90 1.23
100 3.03
109 1
119 1.06
121 1.77
130 4.9
131 1
132 1.47
134 1.25
137 3.32
139 3.39
146 1.13
147 1.04
148 2.73
149 1.83
162 1.79
163 1.66
190 2.3
192 1.53
206 31.09
207 7.02
208 2.81
220 4.67
221 65.13
222 15.25
223 5.54
227 2.02
229 1.94
235 1.57
284 2.41
286 2.6
300 95.21
301 22.79
302 99.99
303 22.44
304 8.57
305 1.36
315 27.31
316 6.61
317 28.91
318 6.61
319 2.51

>  <PREDICTED SPECTRUM>  (4055) 
14 1
15 64
26 12
27 15
28 14
29 85
31 18
33 4
38 21
39 63
40 9
41 20
42 43
43 136
44 83
45 224
46 48
47 4
50 55
51 59
52 54
53 36
54 35
55 72
56 44
57 45
58 58
59 111
61 32
62 56
63 103
64 42
65 27
66 23
67 9
68 8
70 27
72 5
73 501
74 158
75 136
76 92
77 53
78 49
81 12
82 40
83 46
84 38
85 13
86 50
87 55
89 65
90 62
91 95
92 2
93 27
94 31
95 31
97 2
99 18
101 19
102 45
103 24
105 41
106 3
107 66
109 87
110 10
111 89
112 0
114 11
115 24
116 13
117 41
118 38
119 111
120 61
121 27
122 3
123 2
125 45
127 0
128 40
129 13
130 134
131 70
132 106
133 66
134 89
135 93
136 64
137 193
138 5
139 110
141 21
142 57
143 6
144 23
145 13
146 96
147 99
148 112
149 46
155 24
156 0
157 45
158 47
161 24
162 58
163 70
169 34
170 7
171 46
172 60
174 17
175 61
176 89
177 5
178 33
182 24
186 50
187 3
188 28
192 81
193 68
203 77
204 117
205 90
206 312
207 167
208 36
210 8
212 23
214 26
218 32
219 37
220 307
221 564
222 246
223 139
228 20
234 6
235 20
236 82
237 15
270 27
272 16
284 179
285 58
286 205
287 89
288 99
299 20
300 851
301 407
302 999
303 418
304 296
306 82
314 48
315 414
316 241
317 505
318 206
319 124

$$$$

     RDKit          2D

  8  8  0  0  0  0  0  0  0  0999 V2000
   -1.3000    0.7500    0.0000 C   0  0  0  0  0  0  0  0  0  0  0  0
   -0.0000   -1.5000    0.0000 C   0  0  0  0  0  0  0  0  0  0  0  0
    0.0000    1.5000    0.0000 C   0  0  0  0  0  0  0  0  0  0  0  0
    1.3000   -0.7500    0.0000 C   0  0  0  0  0  0  0  0  0  0  0  0
   -1.3000   -0.7500    0.0000 C   0  0  0  0  0  0  0  0  0  0  0  0
    1.3000    0.7500    0.0000 C   0  0  0  0  0  0  0  0  0  0  0  0
   -2.5989   -1.5002    0.0000 Br  0  0  0  0  0  0  0  0  0  0  0  0
    2.5989    1.5002    0.0000 Cl  0  0  0  0  0  0  0  0  0  0  0  0
  3  1  2  0
  4  2  1  0
  5  1  1  0
  5  2  2  0
  6  3  1  0
  6  4  2  0
  7  5  1  0
  8  6  1  0
M  END
>  <NAME>  (4056) 
1-BROMO-4-CHLOROBENZENE

>  <SYNONYMS>  (4056) 


>  <SPECTRUM TYPE>  (4056) 
MS1

>  <INSTRUMENT TYPE>  (4056) 
EI-B

>  <INSTRUMENT>  (4056) 
JEOL JMS-D-3000

>  <ION MODE>  (4056) 
P

>  <INCHIKEY>  (4056) 
NHDODQWIKUYWMW-UHFFFAOYSA-N

>  <FORMULA>  (4056) 
C6H4BrCl

>  <EXACT MASS>  (4056) 
189.918489908

>  <MW>  (4056) 
190

>  <ID>  (4056) 
JP004822

>  <CONTRIBUTOR>  (4056) 
University of Tokyo Team, {Faculty of Engineering, University of Tokyo

>  <COMMENT>  (4056) 
SMILES=Clc(c1)ccc(Br)c1
cas=106-39-8
InChI=InChI=1S/C6H4BrCl/c7-5-1-3-6(8)4-2-5/h1-4H
computed SMILES=ClC1=CC=C(Br)C=C1
accession=JP004822
date=2016.01.19 (Created 2008.10.21, modified 2011.05.06)
author=MASS SPECTROSCOPY SOC. OF JAPAN (MSSJ)
license=CC BY-NC-SA
exact mass=189.91849
ionization energy=70 eV
ion type=[M]+*
computed spectral entropy=2.6612128913897286
computed normalized entropy=0.7426255970998888
SPLASH=splash10-0006-4900000000-714f10b888e94e883cb0
submitter=submitter = University of Tokyo Team (Faculty of Engineering, University of Tokyo)
MoNA Rating=3.75

>  <NUM PEAKS>  (4056) 
36

>  <MASS SPECTRAL PEAKS>  (4056) 
40 1.12
42 1.25
43 12.82
45 6.72
49 2.41
50 14.89
51 3.94
55 2.96
56 1.07
58 5.58
59 9.73
61 1.42
73 4.14
74 14.81
75 31.93
76 6.23
77 1.87
78 1.71
84 1.36
85 2.35
95 4.8
96 6.68
97 1.61
110 1.48
111 65.28
112 4.77
113 20.3
114 1.5
155 1.16
157 1.07
190 77.95
191 5.58
192 99.99
193 6.81
194 25.06
195 1.66

>  <PREDICTED SPECTRUM>  (4056) 
14 5
25 71
26 85
28 79
31 54
32 81
35 122
36 115
37 245
38 240
39 108
40 92
43 2
44 47
46 14
47 86
48 122
49 264
50 738
51 347
52 23
56 75
57 106
60 108
61 278
62 141
63 248
64 63
65 102
68 5
69 108
72 174
73 331
74 633
75 937
76 689
77 154
78 37
79 209
80 63
81 179
82 51
83 102
84 197
85 319
86 116
87 20
93 48
95 11
109 73
110 118
111 837
112 310
113 538
114 180
155 289
157 271
158 53
159 4
188 101
189 69
190 844
191 279
192 999
193 288
194 561
195 143

$$$$

     RDKit          2D

 21 22  0  0  0  0  0  0  0  0999 V2000
    6.0532   -2.7460    0.0000 C   0  0  0  0  0  0  0  0  0  0  0  0
   -5.1704   -2.7460    0.0000 C   0  0  0  0  0  0  0  0  0  0  0  0
    3.4554    1.7548    0.0000 C   0  0  0  0  0  0  0  0  0  0  0  0
    0.8565   -2.7466    0.0000 C   0  0  0  0  0  0  0  0  0  0  0  0
   -0.1236   -2.9608    0.0000 C   0  0  0  0  0  0  0  0  0  0  0  0
   -2.5726    1.7548    0.0000 C   0  0  0  0  0  0  0  0  0  0  0  0
    4.7547   -0.4952    0.0000 C   0  0  0  0  0  0  0  0  0  0  0  0
    3.4547   -2.7468    0.0000 C   0  0  0  0  0  0  0  0  0  0  0  0
   -2.5719   -2.7468    0.0000 C   0  0  0  0  0  0  0  0  0  0  0  0
   -3.8719   -0.4952    0.0000 C   0  0  0  0  0  0  0  0  0  0  0  0
    4.7542   -1.9960    0.0000 C   0  0  0  0  0  0  0  0  0  0  0  0
   -3.8714   -1.9960    0.0000 C   0  0  0  0  0  0  0  0  0  0  0  0
    3.4557    0.2548    0.0000 C   0  0  0  0  0  0  0  0  0  0  0  0
    2.1557   -1.9968    0.0000 C   0  0  0  0  0  0  0  0  0  0  0  0
   -1.2728   -1.9968    0.0000 C   0  0  0  0  0  0  0  0  0  0  0  0
   -2.5728    0.2548    0.0000 C   0  0  0  0  0  0  0  0  0  0  0  0
    2.1561   -0.4960    0.0000 C   0  0  0  0  0  0  0  0  0  0  0  0
   -1.2733   -0.4960    0.0000 C   0  0  0  0  0  0  0  0  0  0  0  0
    1.4056    1.6431    0.0000 F   0  0  0  0  0  0  0  0  0  0  0  0
   -0.5228    1.6431    0.0000 F   0  0  0  0  0  0  0  0  0  0  0  0
    0.4414    0.4940    0.0000 Si  0  0  0  0  0  4  0  0  0  0  0  0
 11  1  1  0
 11  7  2  0
 11  8  1  0
 12  2  1  0
 12  9  2  0
 12 10  1  0
 13  3  1  0
 13  7  1  0
 14  4  1  0
 14  8  2  0
 15  5  1  0
 15  9  1  0
 16  6  1  0
 16 10  2  0
 17 13  2  0
 17 14  1  0
 18 15  2  0
 18 16  1  0
 21 17  1  0
 21 18  1  0
 21 19  1  0
 21 20  1  0
M  END
>  <NAME>  (4057) 
DIFLUORODIMESITYLSILANE

>  <SYNONYMS>  (4057) 


>  <SPECTRUM TYPE>  (4057) 
MS1

>  <INSTRUMENT TYPE>  (4057) 
EI-B

>  <INSTRUMENT>  (4057) 
JEOL JMS-D-3000

>  <ION MODE>  (4057) 
P

>  <INCHIKEY>  (4057) 
WXVJHQLEUYJXTJ-UHFFFAOYSA-N

>  <FORMULA>  (4057) 
C18H22F2Si

>  <EXACT MASS>  (4057) 
304.145883674

>  <MW>  (4057) 
304

>  <ID>  (4057) 
JP004819

>  <CONTRIBUTOR>  (4057) 
University of Tokyo Team, {Faculty of Engineering, University of Tokyo

>  <COMMENT>  (4057) 
SMILES=Cc(c2)cc(C)c(c(C)2)[Si](F)(F)c(c(C)1)c(C)cc(C)c1
InChI=InChI=1S/C18H22F2Si/c1-11-7-13(3)17(14(4)8-11)21(19,20)18-15(5)9-12(2)10-16(18)6/h7-10H,1-6H3
computed SMILES=F[Si](F)(C=1C(=CC(=CC1C)C)C)C=2C(=CC(=CC2C)C)C
accession=JP004819
date=2016.01.19 (Created 2008.10.21, modified 2011.05.06)
author=MASS SPECTROSCOPY SOC. OF JAPAN (MSSJ)
license=CC BY-NC-SA
exact mass=304.14588
ionization energy=70 eV
ion type=[M]+*
computed spectral entropy=2.901948090023448
computed normalized entropy=0.7537238543100363
SPLASH=splash10-014i-4690000000-7e9eb621ad46cf15b0c2
submitter=submitter = University of Tokyo Team (Faculty of Engineering, University of Tokyo)
MoNA Rating=3.75

>  <NUM PEAKS>  (4057) 
47

>  <MASS SPECTRAL PEAKS>  (4057) 
40 11.96
51 2.49
52 1.08
53 2.35
55 1.07
56 1.3
57 68.19
58 3.11
63 4.01
65 2.75
77 6.44
78 2.41
79 2.76
91 11.79
92 1.35
93 1.62
102 1.35
103 4.93
104 3.42
105 4.53
113 2.89
115 5.29
116 1.47
117 7.08
118 3.87
119 99.99
120 31.87
121 2.73
145 1.4
154 1.06
181 3.94
182 3.41
183 1.51
184 1.08
215 1.12
217 69.91
218 44.49
219 52.52
220 29.78
221 12.43
222 5.65
223 1.14
274 16.38
275 3.33
276 11.23
277 2.17
278 2.14

>  <PREDICTED SPECTRUM>  (4057) 
39 120
40 43
41 50
50 5
51 139
52 64
53 96
54 16
55 51
57 75
63 74
65 127
66 8
67 31
69 8
77 193
78 79
79 117
83 1
89 37
91 323
92 66
93 78
96 20
102 16
103 227
104 148
105 178
115 253
116 166
117 407
118 395
119 999
120 669
121 122
122 4
141 20
143 4
153 11
154 42
155 14
164 39
169 6
170 114
171 47
177 2
178 16
184 23
185 1
190 28
203 45
212 7
213 4
215 15
216 135
217 657
218 503
219 507
220 440
221 369
222 175
223 6
233 10
234 24
270 48
272 2
274 273
275 93
276 152
304 5

$$$$

     RDKit          2D

 21 22  0  0  0  0  0  0  0  0999 V2000
    6.0532   -2.7460    0.0000 C   0  0  0  0  0  0  0  0  0  0  0  0
   -5.1704   -2.7460    0.0000 C   0  0  0  0  0  0  0  0  0  0  0  0
    3.4554    1.7548    0.0000 C   0  0  0  0  0  0  0  0  0  0  0  0
    0.8565   -2.7466    0.0000 C   0  0  0  0  0  0  0  0  0  0  0  0
   -0.1236   -2.9608    0.0000 C   0  0  0  0  0  0  0  0  0  0  0  0
   -2.5726    1.7548    0.0000 C   0  0  0  0  0  0  0  0  0  0  0  0
    4.7547   -0.4952    0.0000 C   0  0  0  0  0  0  0  0  0  0  0  0
    3.4547   -2.7468    0.0000 C   0  0  0  0  0  0  0  0  0  0  0  0
   -2.5719   -2.7468    0.0000 C   0  0  0  0  0  0  0  0  0  0  0  0
   -3.8719   -0.4952    0.0000 C   0  0  0  0  0  0  0  0  0  0  0  0
    4.7542   -1.9960    0.0000 C   0  0  0  0  0  0  0  0  0  0  0  0
   -3.8714   -1.9960    0.0000 C   0  0  0  0  0  0  0  0  0  0  0  0
    3.4557    0.2548    0.0000 C   0  0  0  0  0  0  0  0  0  0  0  0
    2.1557   -1.9968    0.0000 C   0  0  0  0  0  0  0  0  0  0  0  0
   -1.2728   -1.9968    0.0000 C   0  0  0  0  0  0  0  0  0  0  0  0
   -2.5728    0.2548    0.0000 C   0  0  0  0  0  0  0  0  0  0  0  0
    2.1561   -0.4960    0.0000 C   0  0  0  0  0  0  0  0  0  0  0  0
   -1.2733   -0.4960    0.0000 C   0  0  0  0  0  0  0  0  0  0  0  0
    1.4056    1.6431    0.0000 Cl  0  0  0  0  0  0  0  0  0  0  0  0
   -0.5228    1.6431    0.0000 Cl  0  0  0  0  0  0  0  0  0  0  0  0
    0.4414    0.4940    0.0000 Si  0  0  0  0  0  4  0  0  0  0  0  0
 11  1  1  0
 11  7  2  0
 11  8  1  0
 12  2  1  0
 12  9  2  0
 12 10  1  0
 13  3  1  0
 13  7  1  0
 14  4  1  0
 14  8  2  0
 15  5  1  0
 15  9  1  0
 16  6  1  0
 16 10  2  0
 17 13  2  0
 17 14  1  0
 18 15  2  0
 18 16  1  0
 21 17  1  0
 21 18  1  0
 21 19  1  0
 21 20  1  0
M  END
>  <NAME>  (4058) 
DICHLORODIMESITYLSILANE

>  <SYNONYMS>  (4058) 
DICHLOROBIS(2,4,6-TRIMETHYLPHENYL)SILANE

>  <SPECTRUM TYPE>  (4058) 
MS1

>  <INSTRUMENT TYPE>  (4058) 
EI-B

>  <INSTRUMENT>  (4058) 
JEOL JMS-D-3000

>  <ION MODE>  (4058) 
P

>  <INCHIKEY>  (4058) 
RUSBLLCPBKKDKQ-UHFFFAOYSA-N

>  <FORMULA>  (4058) 
C18H22Cl2Si

>  <EXACT MASS>  (4058) 
336.086782594

>  <MW>  (4058) 
336

>  <ID>  (4058) 
JP004818

>  <CONTRIBUTOR>  (4058) 
University of Tokyo Team, {Faculty of Engineering, University of Tokyo

>  <COMMENT>  (4058) 
SMILES=Cc(c2)cc(C)c(c(C)2)[Si](Cl)(Cl)c(c(C)1)c(C)cc(C)c1
cas=5599-27-9
InChI=InChI=1S/C18H22Cl2Si/c1-11-7-13(3)17(14(4)8-11)21(19,20)18-15(5)9-12(2)10-16(18)6/h7-10H,1-6H3
computed SMILES=Cl[Si](Cl)(C=1C(=CC(=CC1C)C)C)C=2C(=CC(=CC2C)C)C
accession=JP004818
date=2016.01.19 (Created 2008.10.21, modified 2011.05.06)
author=MASS SPECTROSCOPY SOC. OF JAPAN (MSSJ)
license=CC BY-NC-SA
exact mass=336.08678
ionization energy=70 eV
ion type=[M]+*
computed spectral entropy=2.5964536076496842
computed normalized entropy=0.7087238754103391
SPLASH=splash10-00di-0911000000-bb3c70fe13b413465900
submitter=submitter = University of Tokyo Team (Faculty of Engineering, University of Tokyo)
MoNA Rating=3.75

>  <NUM PEAKS>  (4058) 
39

>  <MASS SPECTRAL PEAKS>  (4058) 
40 1.16
63 1.47
65 1.3
77 2.96
78 1.17
79 1.39
91 5.38
103 3.26
104 1.55
105 17.29
106 1.55
115 2.98
116 1.09
117 6.71
118 15.04
119 9.33
120 99.99
121 10.5
150 1.81
179 1.04
180 3.91
181 2.03
182 1.55
201 1.05
216 9.48
217 2.22
218 6.66
219 1.44
220 1.54
285 1.06
321 15.65
322 3.75
323 10.88
324 2.49
325 2.21
336 1.44
337 0.37
338 0.98
339 0.28

>  <PREDICTED SPECTRUM>  (4058) 
35 5
36 44
39 67
43 37
44 36
45 4
50 4
51 130
52 55
53 28
57 45
63 111
65 163
67 9
71 22
73 25
75 32
77 311
78 145
79 204
87 38
89 106
91 359
92 91
93 113
102 46
103 323
104 162
105 391
106 9
107 65
113 88
115 145
116 62
117 266
118 361
119 402
120 999
121 103
125 18
127 32
151 57
152 36
153 123
154 7
165 47
169 35
178 0
179 95
180 99
181 196
182 24
183 23
186 33
187 33
188 84
190 29
200 19
201 155
202 61
203 30
216 455
217 161
218 326
219 130
220 33
248 31
249 116
250 55
251 114
273 14
285 54
292 15
300 7
301 8
302 44
306 63
321 284
322 197
323 252
324 125
325 139
336 109
337 23
338 88
339 3
340 8

$$$$

     RDKit          2D

 16 16  0  0  0  0  0  0  0  0999 V2000
   -3.4853    0.9877    0.0000 C   0  0  0  0  0  0  0  0  0  0  0  0
   -0.8875   -3.5131    0.0000 C   0  0  0  0  0  0  0  0  0  0  0  0
    1.7114    0.9884    0.0000 C   0  0  0  0  0  0  0  0  0  0  0  0
    3.7599   -2.5613    0.0000 C   0  0  0  0  0  0  0  0  0  0  0  0
    4.3089   -0.5123    0.0000 C   0  0  0  0  0  0  0  0  0  0  0  0
    2.2599    0.0368    0.0000 C   0  0  0  0  0  0  0  0  0  0  0  0
   -2.1868   -1.2631    0.0000 C   0  0  0  0  0  0  0  0  0  0  0  0
   -0.8868    0.9886    0.0000 C   0  0  0  0  0  0  0  0  0  0  0  0
   -2.1863    0.2377    0.0000 C   0  0  0  0  0  0  0  0  0  0  0  0
   -0.8877   -2.0131    0.0000 C   0  0  0  0  0  0  0  0  0  0  0  0
    0.4123    0.2386    0.0000 C   0  0  0  0  0  0  0  0  0  0  0  0
    0.4118   -1.2623    0.0000 C   0  0  0  0  0  0  0  0  0  0  0  0
    3.0099   -1.2623    0.0000 C   0  0  0  0  0  0  0  0  0  0  0  0
    0.7466   -3.1613    0.0000 Cl  0  0  0  0  0  0  0  0  0  0  0  0
    2.6750   -3.1613    0.0000 Cl  0  0  0  0  0  0  0  0  0  0  0  0
    1.7108   -2.0123    0.0000 Si  0  0  0  0  0  4  0  0  0  0  0  0
  9  1  1  0
  9  7  2  0
  9  8  1  0
 10  2  1  0
 10  7  1  0
 11  3  1  0
 11  8  2  0
 12 10  2  0
 12 11  1  0
 13  4  1  0
 13  5  1  0
 13  6  1  0
 16 12  1  0
 16 13  1  0
 16 14  1  0
 16 15  1  0
M  END
>  <NAME>  (4059) 
TERT-BUTYLDICHLOROMESITYLSILANE

>  <SYNONYMS>  (4059) 


>  <SPECTRUM TYPE>  (4059) 
MS1

>  <INSTRUMENT TYPE>  (4059) 
EI-B

>  <INSTRUMENT>  (4059) 
JEOL JMS-D-3000

>  <ION MODE>  (4059) 
P

>  <INCHIKEY>  (4059) 
AGBTWRCKSJZBSE-UHFFFAOYSA-N

>  <FORMULA>  (4059) 
C13H20Cl2Si

>  <EXACT MASS>  (4059) 
274.07113253

>  <MW>  (4059) 
274

>  <ID>  (4059) 
JP004817

>  <CONTRIBUTOR>  (4059) 
University of Tokyo Team, {Faculty of Engineering, University of Tokyo

>  <COMMENT>  (4059) 
SMILES=Cc(c1)cc(C)c(c(C)1)[Si](Cl)(Cl)C(C)(C)C
InChI=InChI=1S/C13H20Cl2Si/c1-9-7-10(2)12(11(3)8-9)16(14,15)13(4,5)6/h7-8H,1-6H3
computed SMILES=Cl[Si](Cl)(C=1C(=CC(=CC1C)C)C)C(C)(C)C
accession=JP004817
date=2016.01.19 (Created 2008.10.21, modified 2011.05.06)
author=MASS SPECTROSCOPY SOC. OF JAPAN (MSSJ)
license=CC BY-NC-SA
exact mass=274.07113
ionization energy=70 eV
ion type=[M]+*
computed spectral entropy=3.177786448640346
computed normalized entropy=0.7670005101205198
SPLASH=splash10-00ri-1931000000-782fc32f1030b72bd767
submitter=submitter = University of Tokyo Team (Faculty of Engineering, University of Tokyo)
MoNA Rating=3.75

>  <NUM PEAKS>  (4059) 
63

>  <MASS SPECTRAL PEAKS>  (4059) 
40 3.92
51 2.69
52 1.18
53 2.92
63 1.49
65 3.52
77 8.77
78 3.43
79 3.99
81 1.56
89 2.45
91 15.22
92 2.14
93 1.48
96 1.46
102 2.25
103 9.38
104 4.45
105 45.13
106 4.38
115 8.34
116 2.78
117 15.17
118 36.92
119 43.51
120 89.32
121 9.24
128 1.6
129 1.35
132 1.98
133 1.03
137 1.01
143 2.09
152 2.64
165 2.08
169 7.09
170 1.09
178 1.47
179 1.25
183 4.27
184 23.11
185 17.35
186 3.22
189 1.15
191 2.01
192 2.09
193 1.68
205 1.4
206 2.09
207 2.97
208 1.18
221 3.21
222 1.34
223 4.21
238 2.43
273 1.81
274 1.6
289 99.99
290 24.47
291 6.17
304 41.34
305 10.47
306 2.67

>  <PREDICTED SPECTRUM>  (4059) 
27 12
29 37
35 7
36 28
39 137
40 27
41 230
42 46
43 86
44 15
50 46
51 173
52 63
53 122
54 42
55 73
57 142
58 7
62 9
63 170
64 2
65 231
67 58
75 34
76 41
77 231
78 175
79 160
80 10
89 144
90 56
91 416
92 156
93 190
102 38
103 274
104 283
105 498
106 75
113 78
115 230
116 83
117 397
118 580
119 894
120 999
121 142
124 9
127 9
128 7
132 129
139 14
140 24
141 55
142 31
146 4
154 43
156 57
157 3
167 17
181 11
183 373
184 279
185 353
186 110
187 47
219 82
220 41
221 15
222 41
223 158
225 5
238 217
240 7
274 97
275 18
276 68

$$$$

     RDKit          2D

 13 13  0  0  0  0  0  0  0  0999 V2000
    3.2476    1.1250    0.0000 C   0  0  0  0  0  0  0  0  0  0  0  0
   -1.9492    1.1256    0.0000 C   0  0  0  0  0  0  0  0  0  0  0  0
    0.6498   -3.3758    0.0000 C   0  0  0  0  0  0  0  0  0  0  0  0
    0.6490    1.1258    0.0000 C   0  0  0  0  0  0  0  0  0  0  0  0
    1.9490   -1.1258    0.0000 C   0  0  0  0  0  0  0  0  0  0  0  0
    1.9486    0.3750    0.0000 C   0  0  0  0  0  0  0  0  0  0  0  0
   -0.6500    0.3758    0.0000 C   0  0  0  0  0  0  0  0  0  0  0  0
    0.6500   -1.8758    0.0000 C   0  0  0  0  0  0  0  0  0  0  0  0
   -0.6495   -1.1250    0.0000 C   0  0  0  0  0  0  0  0  0  0  0  0
   -2.6986   -0.5760    0.0000 Cl  0  0  0  0  0  0  0  0  0  0  0  0
   -3.2476   -2.6250    0.0000 Cl  0  0  0  0  0  0  0  0  0  0  0  0
   -1.1986   -3.1740    0.0000 Cl  0  0  0  0  0  0  0  0  0  0  0  0
   -1.9486   -1.8750    0.0000 Si  0  0  0  0  0  4  0  0  0  0  0  0
  6  1  1  0
  6  4  2  0
  6  5  1  0
  7  2  1  0
  7  4  1  0
  8  3  1  0
  8  5  2  0
  9  7  2  0
  9  8  1  0
 13  9  1  0
 13 10  1  0
 13 11  1  0
 13 12  1  0
M  END
>  <NAME>  (4060) 
TRICHLOROMESITYLSILANE

>  <SYNONYMS>  (4060) 


>  <SPECTRUM TYPE>  (4060) 
MS1

>  <INSTRUMENT TYPE>  (4060) 
EI-B

>  <INSTRUMENT>  (4060) 
JEOL JMS-D-3000

>  <ION MODE>  (4060) 
P

>  <INCHIKEY>  (4060) 
DNKIGCMPHGFTRD-UHFFFAOYSA-N

>  <FORMULA>  (4060) 
C9H11Cl3Si

>  <EXACT MASS>  (4060) 
251.96955992199997

>  <MW>  (4060) 
252

>  <ID>  (4060) 
JP004816

>  <CONTRIBUTOR>  (4060) 
University of Tokyo Team, {Faculty of Engineering, University of Tokyo

>  <COMMENT>  (4060) 
SMILES=Cc(c1)cc(C)c(c(C)1)[Si](Cl)(Cl)Cl
InChI=InChI=1S/C9H11Cl3Si/c1-6-4-7(2)9(8(3)5-6)13(10,11)12/h4-5H,1-3H3
computed SMILES=Cl[Si](Cl)(Cl)C=1C(=CC(=CC1C)C)C
accession=JP004816
date=2016.01.19 (Created 2008.10.21, modified 2011.05.06)
author=MASS SPECTROSCOPY SOC. OF JAPAN (MSSJ)
license=CC BY-NC-SA
exact mass=251.96956
ionization energy=70 eV
ion type=[M]+*
computed spectral entropy=3.034826114537761
computed normalized entropy=0.775768984570585
SPLASH=splash10-014i-2960000000-e9c9ed2a8b319a967d91
submitter=submitter = University of Tokyo Team (Faculty of Engineering, University of Tokyo)
MoNA Rating=3.75

>  <NUM PEAKS>  (4060) 
50

>  <MASS SPECTRAL PEAKS>  (4060) 
40 1.35
50 1.38
51 3.93
52 1.66
53 2.32
63 3.33
65 3.29
77 7.21
78 2.72
79 1.98
89 1.47
90 1.51
91 10.95
92 1.12
102 1.8
103 5.34
104 2.72
105 1.09
108 2.04
109 1.35
115 6.5
116 1.92
117 8.57
118 27.04
119 99.99
120 10.22
133 3.29
135 3.17
137 1.42
165 1.21
179 1.22
180 7.08
181 1.86
182 2.56
201 2.54
203 1.73
216 26.29
217 6.14
218 18.44
219 3.81
220 3.69
237 1.62
239 1.66
252 26.53
253 4.85
254 26.4
255 4.32
256 9.44
257 1.4
258 1.32

>  <PREDICTED SPECTRUM>  (4060) 
39 88
41 20
50 12
51 162
52 93
53 66
63 208
64 14
65 289
66 41
67 64
75 31
77 175
78 187
79 117
82 30
89 101
90 125
91 399
92 115
93 44
99 9
100 24
101 19
102 122
103 184
104 53
105 155
106 83
107 2
113 108
115 272
116 225
117 267
118 488
119 999
120 278
121 107
122 2
123 58
124 32
134 19
139 37
140 16
152 7
153 37
154 30
165 27
167 54
178 3
180 168
181 132
182 20
201 142
202 67
203 154
204 74
216 447
217 258
218 371
219 198
220 193
221 9
222 23
237 62
238 23
239 100
241 24
252 426
253 187
254 444
255 189
256 293
257 104

$$$$

     RDKit          2D

 21 21  0  0  0  0  0  0  0  0999 V2000
    3.1483   -0.5487    0.0000 C   0  0  0  0  0  0  0  0  0  0  0  0
    5.1972    0.0006    0.0000 C   0  0  0  0  0  0  0  0  0  0  0  0
    4.6479    2.0496    0.0000 C   0  0  0  0  0  0  0  0  0  0  0  0
   -5.9472   -0.2017    0.0000 C   0  0  0  0  0  0  0  0  0  0  0  0
   -6.4959   -2.2508    0.0000 C   0  0  0  0  0  0  0  0  0  0  0  0
   -4.4468   -2.7995    0.0000 C   0  0  0  0  0  0  0  0  0  0  0  0
    3.5629    2.6494    0.0000 C   0  0  0  0  0  0  0  0  0  0  0  0
    1.6346    2.6491    0.0000 C   0  0  0  0  0  0  0  0  0  0  0  0
   -2.9341    0.3988    0.0000 C   0  0  0  0  0  0  0  0  0  0  0  0
   -4.8624    0.3985    0.0000 C   0  0  0  0  0  0  0  0  0  0  0  0
   -1.3000    0.7500    0.0000 C   0  0  0  0  0  0  0  0  0  0  0  0
   -0.0000   -1.5000    0.0000 C   0  0  0  0  0  0  0  0  0  0  0  0
    0.0000    1.5000    0.0000 C   0  0  0  0  0  0  0  0  0  0  0  0
    1.3000   -0.7500    0.0000 C   0  0  0  0  0  0  0  0  0  0  0  0
   -1.3000   -0.7500    0.0000 C   0  0  0  0  0  0  0  0  0  0  0  0
    1.3000    0.7500    0.0000 C   0  0  0  0  0  0  0  0  0  0  0  0
   -2.5989   -1.5002    0.0000 O   0  0  0  0  0  0  0  0  0  0  0  0
    3.8981    0.7504    0.0000 Si  0  0  0  0  0  4  0  0  0  0  0  0
   -5.1970   -1.5006    0.0000 Si  0  0  0  0  0  4  0  0  0  0  0  0
    2.5989    1.5002    0.0000 Si  0  0  0  0  0  4  0  0  0  0  0  0
   -3.8981   -0.7504    0.0000 Si  0  0  0  0  0  4  0  0  0  0  0  0
 13 11  2  0
 14 12  1  0
 15 11  1  0
 15 12  2  0
 16 13  1  0
 16 14  2  0
 17 15  1  0
 18  1  1  0
 18  2  1  0
 18  3  1  0
 19  4  1  0
 19  5  1  0
 19  6  1  0
 20  7  1  0
 20  8  1  0
 20 16  1  0
 20 18  1  0
 21  9  1  0
 21 10  1  0
 21 17  1  0
 21 19  1  0
M  END
>  <NAME>  (4061) 
1-PENTAMETHYLDISILANYLOXY-4-PENTAMETHYLDISILANYLBENZENE

>  <SYNONYMS>  (4061) 


>  <SPECTRUM TYPE>  (4061) 
MS1

>  <INSTRUMENT TYPE>  (4061) 
EI-B

>  <INSTRUMENT>  (4061) 
JEOL JMS-D-3000

>  <ION MODE>  (4061) 
P

>  <INCHIKEY>  (4061) 
YAOOGXJXOIJGSB-UHFFFAOYSA-N

>  <FORMULA>  (4061) 
C16H34OSi4

>  <EXACT MASS>  (4061) 
354.16867182799996

>  <MW>  (4061) 
354

>  <ID>  (4061) 
JP004815

>  <CONTRIBUTOR>  (4061) 
University of Tokyo Team, {Faculty of Engineering, University of Tokyo

>  <COMMENT>  (4061) 
SMILES=C[Si](C)(C)[Si](C)(C)Oc(c1)ccc(c1)[Si](C)(C)[Si](C)(C)C
InChI=InChI=1S/C16H34OSi4/c1-18(2,3)20(7,8)16-13-11-15(12-14-16)17-21(9,10)19(4,5)6/h11-14H,1-10H3
computed SMILES=O(C1=CC=C(C=C1)[Si](C)(C)[Si](C)(C)C)[Si](C)(C)[Si](C)(C)C
accession=JP004815
date=2016.01.19 (Created 2008.10.21, modified 2011.05.06)
author=MASS SPECTROSCOPY SOC. OF JAPAN (MSSJ)
license=CC BY-NC-SA
exact mass=354.16867
ionization energy=70 eV
ion type=[M]+*
computed spectral entropy=2.4948430224325757
computed normalized entropy=0.7074838222062207
SPLASH=splash10-00di-9720000000-26cfb8f211aa5dc4c063
submitter=submitter = University of Tokyo Team (Faculty of Engineering, University of Tokyo)
MoNA Rating=3.75

>  <NUM PEAKS>  (4061) 
34

>  <MASS SPECTRAL PEAKS>  (4061) 
43 2.67
45 6.58
59 2.83
73 99.99
74 8.51
75 4.69
83 1.22
116 3.01
117 1.73
119 2.73
121 1.38
131 22.21
132 3.55
133 3
134 1.94
135 1.4
145 1.06
147 8.24
148 1.8
149 2.99
151 1.24
192 2.98
193 32.92
194 6.93
195 3.05
205 1.14
207 3.35
223 5.4
224 1.19
251 1.22
281 11.86
282 3.49
283 1.67
354 1.93

>  <PREDICTED SPECTRUM>  (4061) 
29 35
39 0
41 30
43 127
44 113
45 161
57 195
58 84
59 159
60 11
63 3
69 9
71 52
72 5
73 999
74 274
75 245
77 72
85 24
87 5
91 50
92 22
93 119
99 15
100 6
101 62
105 88
114 49
115 63
116 289
117 286
118 132
119 116
121 51
123 1
131 536
132 163
133 160
134 108
135 123
147 371
148 87
149 184
150 44
151 34
165 45
176 21
177 98
178 36
189 31
191 134
192 110
193 627
194 232
195 243
204 70
205 191
206 85
207 321
208 120
223 261
224 155
225 18
251 59
252 18
265 10
266 0
280 2
281 314
282 205
283 182
339 55
340 55
341 16
354 178
355 96
356 70
357 11

$$$$

     RDKit          2D

 18 19  0  0  0  0  0  0  0  0999 V2000
    4.5466    2.1950    0.0000 C   0  0  0  0  0  0  0  0  0  0  0  0
   -7.1447    5.9450    0.0000 C   0  0  0  0  0  0  0  0  0  0  0  0
    4.5471    3.6958    0.0000 C   0  0  0  0  0  0  0  0  0  0  0  0
    3.2471    1.4442    0.0000 C   0  0  0  0  0  0  0  0  0  0  0  0
   -7.1452    4.4442    0.0000 C   0  0  0  0  0  0  0  0  0  0  0  0
   -5.8452    6.6958    0.0000 C   0  0  0  0  0  0  0  0  0  0  0  0
    3.2481    4.4458    0.0000 C   0  0  0  0  0  0  0  0  0  0  0  0
    1.9481    2.1942    0.0000 C   0  0  0  0  0  0  0  0  0  0  0  0
   -5.8462    3.6942    0.0000 C   0  0  0  0  0  0  0  0  0  0  0  0
   -4.5462    5.9458    0.0000 C   0  0  0  0  0  0  0  0  0  0  0  0
   -0.6495    3.6950    0.0000 C   0  0  0  0  0  0  0  0  0  0  0  0
   -1.9486    4.4450    0.0000 C   0  0  0  0  0  0  0  0  0  0  0  0
    1.9486    3.6950    0.0000 C   0  0  0  0  0  0  0  0  0  0  0  0
   -4.5466    4.4450    0.0000 C   0  0  0  0  0  0  0  0  0  0  0  0
    0.6495    4.4450    0.0000 C   0  0  0  0  0  0  0  0  0  0  0  0
   -3.2476    3.6950    0.0000 C   0  0  0  0  0  0  0  0  0  0  0  0
    0.6495    5.9450    0.0000 O   0  0  0  0  0  0  0  0  0  0  0  0
   -3.2476    2.1950    0.0000 O   0  0  0  0  0  0  0  0  0  0  0  0
  3  1  2  0
  4  1  1  0
  5  2  2  0
  6  2  1  0
  7  3  1  0
  8  4  2  0
  9  5  1  0
 10  6  2  0
 12 11  1  0
 13  7  2  0
 13  8  1  0
 14  9  2  0
 14 10  1  0
 15 11  1  0
 15 13  1  0
 16 12  1  0
 16 14  1  0
 17 15  2  0
 18 16  2  0
M  END
>  <NAME>  (4062) 
1,4-DIPHENYLBUTANE-1,4-DIONE

>  <SYNONYMS>  (4062) 


>  <SPECTRUM TYPE>  (4062) 
MS1

>  <INSTRUMENT TYPE>  (4062) 
EI-B

>  <INSTRUMENT>  (4062) 
JEOL JMS-D-3000

>  <ION MODE>  (4062) 
P

>  <INCHIKEY>  (4062) 
OSWWFLDIIGGSJV-UHFFFAOYSA-N

>  <FORMULA>  (4062) 
C16H14O2

>  <EXACT MASS>  (4062) 
238.099379688

>  <MW>  (4062) 
238

>  <ID>  (4062) 
JP004814

>  <CONTRIBUTOR>  (4062) 
University of Tokyo Team, {Faculty of Engineering, University of Tokyo

>  <COMMENT>  (4062) 
SMILES=O=C(CCC(=O)c(c2)cccc2)c(c1)cccc1
InChI=InChI=1S/C16H14O2/c17-15(13-7-3-1-4-8-13)11-12-16(18)14-9-5-2-6-10-14/h1-10H,11-12H2
computed SMILES=O=C(C=1C=CC=CC1)CCC(=O)C=2C=CC=CC2
accession=JP004814
date=2016.01.19 (Created 2008.10.21, modified 2011.05.06)
author=MASS SPECTROSCOPY SOC. OF JAPAN (MSSJ)
license=CC BY-NC-SA
exact mass=238.09938
ionization energy=70 eV
ion type=[M]+*
computed spectral entropy=1.5535548481719286
computed normalized entropy=0.6251964629353259
SPLASH=splash10-0a4i-3910000000-201eacae0824c53c4519
submitter=submitter = University of Tokyo Team (Faculty of Engineering, University of Tokyo)
MoNA Rating=3.75

>  <NUM PEAKS>  (4062) 
12

>  <MASS SPECTRAL PEAKS>  (4062) 
50 1.63
51 7.73
55 2.24
76 1.1
77 31.59
78 2.37
105 99.99
106 8.06
133 10.81
134 1.07
238 15.68
239 2.83

>  <PREDICTED SPECTRUM>  (4062) 
14 0
15 5
17 2
18 1
26 18
27 108
28 52
29 70
34 0
37 29
38 77
39 184
40 69
41 46
42 104
43 13
44 64
50 239
51 462
52 159
53 85
54 34
55 71
56 14
62 87
63 170
64 90
65 159
66 20
74 119
75 140
76 164
77 792
78 285
79 53
85 20
86 23
87 15
88 28
89 137
90 94
91 260
92 84
93 47
98 3
102 7
103 58
104 75
105 999
106 282
107 53
115 171
116 71
117 105
118 105
119 103
120 116
121 40
131 42
132 46
133 577
134 226
135 74
148 1
152 9
161 167
162 59
165 5
192 5
193 55
210 112
211 3
220 116
221 88
222 3
237 15
238 540
239 224
240 108

$$$$

     RDKit          2D

 18 18  0  0  0  0  0  0  0  0999 V2000
   -3.1483    0.5487    0.0000 C   0  0  0  0  0  0  0  0  0  0  0  0
   -5.1972   -0.0006    0.0000 C   0  0  0  0  0  0  0  0  0  0  0  0
   -4.6479   -2.0496    0.0000 C   0  0  0  0  0  0  0  0  0  0  0  0
    3.1483   -0.5487    0.0000 C   0  0  0  0  0  0  0  0  0  0  0  0
    5.1972    0.0006    0.0000 C   0  0  0  0  0  0  0  0  0  0  0  0
    4.6479    2.0496    0.0000 C   0  0  0  0  0  0  0  0  0  0  0  0
    3.5629    2.6494    0.0000 C   0  0  0  0  0  0  0  0  0  0  0  0
    1.6346    2.6491    0.0000 C   0  0  0  0  0  0  0  0  0  0  0  0
   -1.3000    0.7500    0.0000 C   0  0  0  0  0  0  0  0  0  0  0  0
    0.0000   -1.5000    0.0000 C   0  0  0  0  0  0  0  0  0  0  0  0
    0.0000    1.5000    0.0000 C   0  0  0  0  0  0  0  0  0  0  0  0
    1.3000   -0.7500    0.0000 C   0  0  0  0  0  0  0  0  0  0  0  0
   -1.3000   -0.7500    0.0000 C   0  0  0  0  0  0  0  0  0  0  0  0
    1.3000    0.7500    0.0000 C   0  0  0  0  0  0  0  0  0  0  0  0
   -2.5989   -1.5002    0.0000 O   0  0  0  0  0  0  0  0  0  0  0  0
   -3.8981   -0.7504    0.0000 Si  0  0  0  0  0  4  0  0  0  0  0  0
    3.8981    0.7504    0.0000 Si  0  0  0  0  0  4  0  0  0  0  0  0
    2.5989    1.5002    0.0000 Si  0  0  0  0  0  4  0  0  0  0  0  0
 11  9  2  0
 12 10  1  0
 13  9  1  0
 13 10  2  0
 14 11  1  0
 14 12  2  0
 15 13  1  0
 16  1  1  0
 16  2  1  0
 16  3  1  0
 16 15  1  0
 17  4  1  0
 17  5  1  0
 17  6  1  0
 18  7  1  0
 18  8  1  0
 18 14  1  0
 18 17  1  0
M  END
>  <NAME>  (4063) 
1-PENTAMETHYLDISILANYL-4-TRIMETHYLSILOXYBENZENE

>  <SYNONYMS>  (4063) 


>  <SPECTRUM TYPE>  (4063) 
MS1

>  <INSTRUMENT TYPE>  (4063) 
EI-B

>  <INSTRUMENT>  (4063) 
JEOL JMS-D-3000

>  <ION MODE>  (4063) 
P

>  <INCHIKEY>  (4063) 
NPRHWBLCHAPWGX-UHFFFAOYSA-N

>  <FORMULA>  (4063) 
C14H28OSi3

>  <EXACT MASS>  (4063) 
296.144795106

>  <MW>  (4063) 
296

>  <ID>  (4063) 
JP004813

>  <CONTRIBUTOR>  (4063) 
University of Tokyo Team, {Faculty of Engineering, University of Tokyo

>  <COMMENT>  (4063) 
SMILES=C[Si](C)(C)Oc(c1)ccc(c1)[Si](C)(C)[Si](C)(C)C
InChI=InChI=1S/C14H28OSi3/c1-16(2,3)15-13-9-11-14(12-10-13)18(7,8)17(4,5)6/h9-12H,1-8H3
computed SMILES=O(C1=CC=C(C=C1)[Si](C)(C)[Si](C)(C)C)[Si](C)(C)C
accession=JP004813
date=2016.01.19 (Created 2008.10.21, modified 2011.05.06)
author=MASS SPECTROSCOPY SOC. OF JAPAN (MSSJ)
license=CC BY-NC-SA
exact mass=296.1448
ionization energy=70 eV
ion type=[M]+*
computed spectral entropy=2.3495031192738223
computed normalized entropy=0.6841909941321638
SPLASH=splash10-00di-3390000000-6146b8252127d27f4bd6
submitter=submitter = University of Tokyo Team (Faculty of Engineering, University of Tokyo)
MoNA Rating=3.75

>  <NUM PEAKS>  (4063) 
31

>  <MASS SPECTRAL PEAKS>  (4063) 
43 1.15
45 4.77
59 1.96
73 46.81
74 4.13
75 2.64
83 1.08
119 1.97
121 1.42
131 2.22
133 2.28
134 1.9
135 1.38
147 5.34
148 1.41
149 2.35
179 2.16
193 31.96
194 6.52
195 2.96
207 2.78
208 1.39
223 99.99
224 22.2
225 9.2
226 1.42
281 7.8
282 2.35
283 1.07
296 4.79
297 1.45

>  <PREDICTED SPECTRUM>  (4063) 
29 21
40 3
41 14
43 150
44 107
45 202
46 19
47 11
57 83
58 104
59 182
61 21
63 35
65 17
73 738
74 185
75 209
76 37
77 71
85 2
89 33
90 26
91 80
92 32
93 44
95 26
105 39
107 49
117 65
118 57
119 99
131 253
133 110
134 86
135 297
136 35
146 29
147 73
148 45
149 164
150 80
151 72
165 136
166 92
167 74
177 58
178 4
179 79
193 736
194 250
195 50
197 13
207 158
208 194
209 15
223 999
224 475
225 318
226 78
227 28
265 33
281 232
282 134
283 60
296 255
297 133
298 68
299 23

$$$$

     RDKit          2D

 15 16  0  0  0  0  0  0  0  0999 V2000
   -2.2746   -3.5637    0.0000 C   0  0  0  0  0  0  0  0  0  0  0  0
    5.5225   -3.5625    0.0000 C   0  0  0  0  0  0  0  0  0  0  0  0
   -2.2742   -2.0629    0.0000 C   0  0  0  0  0  0  0  0  0  0  0  0
   -0.9756   -4.3137    0.0000 C   0  0  0  0  0  0  0  0  0  0  0  0
    4.2225   -4.3125    0.0000 C   0  0  0  0  0  0  0  0  0  0  0  0
    5.5225   -2.0625    0.0000 C   0  0  0  0  0  0  0  0  0  0  0  0
   -0.9746   -1.3121    0.0000 C   0  0  0  0  0  0  0  0  0  0  0  0
    0.3239   -3.5629    0.0000 C   0  0  0  0  0  0  0  0  0  0  0  0
    2.9225   -3.5625    0.0000 C   0  0  0  0  0  0  0  0  0  0  0  0
    4.2225   -1.3125    0.0000 C   0  0  0  0  0  0  0  0  0  0  0  0
    1.6238    0.1877    0.0000 C   0  0  0  0  0  0  0  0  0  0  0  0
    0.3244   -2.0621    0.0000 C   0  0  0  0  0  0  0  0  0  0  0  0
    2.9225   -2.0625    0.0000 C   0  0  0  0  0  0  0  0  0  0  0  0
    2.9230    0.9375    0.0000 Cl  0  0  0  0  0  0  0  0  0  0  0  0
    1.6236   -1.3123    0.0000 Si  0  0  0  0  0  4  0  0  0  0  0  0
  3  1  2  0
  4  1  1  0
  5  2  2  0
  6  2  1  0
  7  3  1  0
  8  4  2  0
  9  5  1  0
 10  6  2  0
 12  7  2  0
 12  8  1  0
 13  9  2  0
 13 10  1  0
 14 11  1  0
 15 11  1  0
 15 12  1  0
 15 13  1  0
M  END
>  <NAME>  (4064) 
CHLOROMETHYLDIPHENYLSILANE

>  <SYNONYMS>  (4064) 


>  <SPECTRUM TYPE>  (4064) 
MS1

>  <INSTRUMENT TYPE>  (4064) 
EI-B

>  <INSTRUMENT>  (4064) 
JEOL JMS-D-3000

>  <ION MODE>  (4064) 
P

>  <INCHIKEY>  (4064) 
FEHFUPASEBBYRC-UHFFFAOYSA-N

>  <FORMULA>  (4064) 
C13H13ClSi

>  <EXACT MASS>  (4064) 
232.04750462599998

>  <MW>  (4064) 
232

>  <ID>  (4064) 
JP004812

>  <CONTRIBUTOR>  (4064) 
University of Tokyo Team, {Faculty of Engineering, University of Tokyo

>  <COMMENT>  (4064) 
computed SMILES=ClC[SiH](C=1C=CC=CC1)C=2C=CC=CC2
SMILES=ClC[SiH](c(c2)cccc2)c(c1)cccc1
cas=144-79-6
InChI=InChI=1S/C13H13ClSi/c14-11-15(12-7-3-1-4-8-12)13-9-5-2-6-10-13/h1-10,15H,11H2
accession=JP004812
date=2016.01.19 (Created 2008.10.21, modified 2011.05.06)
author=MASS SPECTROSCOPY SOC. OF JAPAN (MSSJ)
license=CC BY-NC-SA
exact mass=232.0475
ionization energy=70 eV
ion type=[M]+*
computed spectral entropy=2.416639900093657
computed normalized entropy=0.703741672926816
SPLASH=splash10-014i-0190000000-1b0267478f413db1d85c
submitter=submitter = University of Tokyo Team (Faculty of Engineering, University of Tokyo)
MoNA Rating=3.75

>  <NUM PEAKS>  (4064) 
31

>  <MASS SPECTRAL PEAKS>  (4064) 
51 1.34
63 5.33
65 1.92
77 1.38
91 5.52
98 4.01
103 1.14
105 1.7
139 1.3
152 2.2
153 1.29
154 3.83
155 9.83
156 1.3
157 2.92
165 1.37
180 2.22
181 7.7
182 1.52
195 1.22
199 2.63
215 2.52
217 99.99
218 18.8
219 37.23
220 6.73
221 1.62
232 25.61
233 5.23
234 9.8
235 1.79

>  <PREDICTED SPECTRUM>  (4064) 
15 9
25 18
26 111
27 235
28 113
29 267
34 12
35 7
36 84
37 44
38 188
39 479
40 149
41 483
42 146
43 313
44 85
45 268
47 82
49 180
50 464
51 753
52 394
53 625
54 222
55 337
56 21
57 335
60 29
61 290
62 252
63 490
64 229
65 445
66 315
67 306
68 101
69 355
71 63
73 174
74 203
75 225
76 251
77 831
78 656
79 468
80 82
81 178
85 54
89 156
90 184
91 564
92 69
93 246
95 65
97 16
101 2
103 61
104 92
105 450
106 362
107 20
111 202
112 112
113 97
115 142
117 49
119 262
120 207
121 56
122 20
128 94
129 125
131 108
139 568
140 190
141 344
152 74
153 180
154 290
155 686
156 628
157 400
158 88
175 8
181 374
197 999
198 255
199 475
231 258
232 633
233 331
234 351
235 147
236 56

$$$$

     RDKit          2D

 14 13  0  0  0  0  0  0  0  0999 V2000
    1.7205   -0.6081    0.0000 C   0  0  0  0  0  0  0  0  0  0  0  0
    0.2205    1.9900    0.0000 C   0  0  0  0  0  0  0  0  0  0  0  0
   -0.3286   -0.0591    0.0000 C   0  0  0  0  0  0  0  0  0  0  0  0
    4.3186    2.8719    0.0000 C   0  0  0  0  0  0  0  0  0  0  0  0
    4.8676    4.9209    0.0000 C   0  0  0  0  0  0  0  0  0  0  0  0
    2.8186    5.4700    0.0000 C   0  0  0  0  0  0  0  0  0  0  0  0
    1.7205    5.4700    0.0000 C   0  0  0  0  0  0  0  0  0  0  0  0
   -0.3286    4.9209    0.0000 C   0  0  0  0  0  0  0  0  0  0  0  0
    0.2205    2.8719    0.0000 C   0  0  0  0  0  0  0  0  0  0  0  0
    2.2695    1.4409    0.0000 C   0  0  0  0  0  0  0  0  0  0  0  0
    2.2695    3.4209    0.0000 C   0  0  0  0  0  0  0  0  0  0  0  0
    0.9705    0.6909    0.0000 Si  0  0  0  0  0  4  0  0  0  0  0  0
    3.5686    4.1709    0.0000 Si  0  0  0  0  0  4  0  0  0  0  0  0
    0.9705    4.1709    0.0000 Si  0  0  0  0  0  4  0  0  0  0  0  0
 11 10  2  3
 12  1  1  0
 12  2  1  0
 12  3  1  0
 12 10  1  0
 13  4  1  0
 13  5  1  0
 13  6  1  0
 13 11  1  0
 14  7  1  0
 14  8  1  0
 14  9  1  0
 14 11  1  0
M  END
>  <NAME>  (4065) 
TRIS(TRIMETHYLSILYL)ETHYLENE

>  <SYNONYMS>  (4065) 


>  <SPECTRUM TYPE>  (4065) 
MS1

>  <INSTRUMENT TYPE>  (4065) 
EI-B

>  <INSTRUMENT>  (4065) 
JEOL JMS-D-3000

>  <ION MODE>  (4065) 
P

>  <INCHIKEY>  (4065) 
CUFNUQSBSOKXJH-UHFFFAOYSA-N

>  <FORMULA>  (4065) 
C11H28Si3

>  <EXACT MASS>  (4065) 
244.149880486

>  <MW>  (4065) 
244

>  <ID>  (4065) 
JP004810

>  <CONTRIBUTOR>  (4065) 
University of Tokyo Team, {Faculty of Engineering, University of Tokyo

>  <COMMENT>  (4065) 
SMILES=C[Si](C)(C)C=C([Si](C)(C)C)[Si](C)(C)C
InChI=InChI=1S/C11H28Si3/c1-12(2,3)10-11(13(4,5)6)14(7,8)9/h10H,1-9H3
computed SMILES=C(=C([Si](C)(C)C)[Si](C)(C)C)[Si](C)(C)C
accession=JP004810
date=2016.01.19 (Created 2008.10.21, modified 2011.05.06)
author=MASS SPECTROSCOPY SOC. OF JAPAN (MSSJ)
license=CC BY-NC-SA
exact mass=244.14988
ionization energy=70 eV
ion type=[M]+*
computed spectral entropy=1.9865428010888024
computed normalized entropy=0.674676165865453
SPLASH=splash10-00di-9400000000-2204b4256a6ae5c69de8
submitter=submitter = University of Tokyo Team (Faculty of Engineering, University of Tokyo)
MoNA Rating=3.75

>  <NUM PEAKS>  (4065) 
19

>  <MASS SPECTRAL PEAKS>  (4065) 
43 2.1
45 9.44
59 1.83
73 99.99
74 7.86
75 3.94
83 2.71
97 2.48
141 11.97
142 2.22
143 1.27
155 13.94
156 19.56
157 4.11
158 1.85
171 4.14
229 3.51
244 6.59
245 1.9

>  <PREDICTED SPECTRUM>  (4065) 
31 41
41 18
43 175
44 10
45 353
46 18
53 24
54 11
55 85
57 44
58 13
59 344
66 39
67 65
68 7
69 84
73 999
74 246
75 107
81 26
82 21
83 169
85 75
95 13
96 44
97 148
98 40
99 23
109 8
113 69
115 37
117 25
125 47
126 58
128 6
129 49
130 60
131 127
139 19
141 667
142 277
143 164
145 8
155 401
156 672
157 330
158 111
169 56
170 244
171 90
172 18
229 232
230 135
231 25
244 273
245 108
246 64

$$$$

     RDKit          2D

 13 13  0  0  0  0  0  0  0  0999 V2000
   -5.3834    4.1934    0.0000 C   0  0  0  0  0  0  0  0  0  0  0  0
   -5.9324    2.1443    0.0000 C   0  0  0  0  0  0  0  0  0  0  0  0
   -3.8834    1.5953    0.0000 C   0  0  0  0  0  0  0  0  0  0  0  0
    3.1608    1.3943    0.0000 C   0  0  0  0  0  0  0  0  0  0  0  0
    3.1613    2.8952    0.0000 C   0  0  0  0  0  0  0  0  0  0  0  0
    1.8613    0.6435    0.0000 C   0  0  0  0  0  0  0  0  0  0  0  0
    1.8623    3.6452    0.0000 C   0  0  0  0  0  0  0  0  0  0  0  0
    0.5623    1.3935    0.0000 C   0  0  0  0  0  0  0  0  0  0  0  0
   -0.7363    3.6443    0.0000 C   0  0  0  0  0  0  0  0  0  0  0  0
   -2.0353    2.8943    0.0000 C   0  0  0  0  0  0  0  0  0  0  0  0
    0.5627    2.8943    0.0000 C   0  0  0  0  0  0  0  0  0  0  0  0
   -3.3344    3.6443    0.0000 O   0  0  0  0  0  0  0  0  0  0  0  0
   -4.6334    2.8943    0.0000 Si  0  0  0  0  0  4  0  0  0  0  0  0
  5  4  2  0
  6  4  1  0
  7  5  1  0
  8  6  2  0
 10  9  1  0
 11  7  2  0
 11  8  1  0
 11  9  1  0
 12 10  1  0
 13  1  1  0
 13  2  1  0
 13  3  1  0
 13 12  1  0
M  END
>  <NAME>  (4066) 
1-PHENYL-2-TRIMETHYLSI1OXYETHANE

>  <SYNONYMS>  (4066) 


>  <SPECTRUM TYPE>  (4066) 
MS1

>  <INSTRUMENT TYPE>  (4066) 
EI-B

>  <INSTRUMENT>  (4066) 
JEOL JMS-D-3000

>  <ION MODE>  (4066) 
P

>  <INCHIKEY>  (4066) 
ZDEFWWOHFSCODL-UHFFFAOYSA-N

>  <FORMULA>  (4066) 
C11H18OSi

>  <EXACT MASS>  (4066) 
194.112691726

>  <MW>  (4066) 
194

>  <ID>  (4066) 
JP004809

>  <CONTRIBUTOR>  (4066) 
University of Tokyo Team, {Faculty of Engineering, University of Tokyo

>  <COMMENT>  (4066) 
SMILES=c(c1)ccc(c1)CCO[Si](C)(C)C
InChI=InChI=1S/C11H18OSi/c1-13(2,3)12-10-9-11-7-5-4-6-8-11/h4-8H,9-10H2,1-3H3
computed SMILES=O(CCC=1C=CC=CC1)[Si](C)(C)C
accession=JP004809
date=2016.01.19 (Created 2008.10.21, modified 2011.05.06)
author=MASS SPECTROSCOPY SOC. OF JAPAN (MSSJ)
license=CC BY-NC-SA
exact mass=194.11269
ionization energy=70 eV
ion type=[M]+*
computed spectral entropy=2.396489950334894
computed normalized entropy=0.7116956962894824
SPLASH=splash10-0fmi-9800000000-92a480bc5a3c44bfd70f
submitter=submitter = University of Tokyo Team (Faculty of Engineering, University of Tokyo)
MoNA Rating=3.75

>  <NUM PEAKS>  (4066) 
29

>  <MASS SPECTRAL PEAKS>  (4066) 
43 3.15
44 1.66
45 6.74
47 3.2
51 2.53
58 3.99
59 3.55
61 2.47
65 1.92
72 1.77
73 99.99
74 8.83
75 28.15
76 2.43
77 7.62
78 2.1
79 3.65
88 1.42
90 2.78
91 1.9
103 73.43
104 11.16
105 22.12
106 1.86
161 4.87
179 46.17
180 7.49
181 2.08
194 0.24

>  <PREDICTED SPECTRUM>  (4066) 
14 19
15 56
17 0
18 29
26 55
27 75
28 44
29 43
31 135
33 1
36 6
37 34
38 75
39 258
40 88
41 209
42 102
43 296
44 89
45 409
46 97
47 223
49 67
50 203
51 362
52 204
53 150
54 55
55 126
56 34
57 205
58 277
59 344
60 139
61 282
62 125
63 244
64 93
65 285
66 159
67 70
70 7
71 105
72 150
73 999
74 343
75 713
76 217
77 565
78 344
79 296
80 87
81 129
83 23
85 28
86 72
87 98
88 105
89 324
90 121
91 576
92 202
93 125
94 15
95 16
99 39
101 161
102 145
103 973
104 832
105 812
106 145
107 15
115 13
117 69
119 23
121 16
122 18
131 132
132 15
133 101
135 24
146 66
147 43
149 132
161 121
163 181
164 233
165 62
179 631
180 282
181 185
182 34
194 131
195 50

$$$$

     RDKit          2D

 15 14  0  0  0  0  0  0  0  0999 V2000
   -3.8568    2.0125    0.0000 C   0  0  0  0  0  0  0  0  0  0  0  0
   -2.7587    0.5125    0.0000 C   0  0  0  0  0  0  0  0  0  0  0  0
   -1.2587   -0.9875    0.0000 C   0  0  0  0  0  0  0  0  0  0  0  0
    0.7213    0.5125    0.0000 C   0  0  0  0  0  0  0  0  0  0  0  0
    0.7367   -0.8373    0.0000 C   0  0  0  0  0  0  0  0  0  0  0  0
    2.6411    1.3249    0.0000 C   0  0  0  0  0  0  0  0  0  0  0  0
    1.5077    3.5353    0.0000 C   0  0  0  0  0  0  0  0  0  0  0  0
    0.7903    2.5616    0.0000 C   0  0  0  0  0  0  0  0  0  0  0  0
    0.2413    4.6106    0.0000 C   0  0  0  0  0  0  0  0  0  0  0  0
   -1.8078    4.0616    0.0000 C   0  0  0  0  0  0  0  0  0  0  0  0
   -2.5578    2.7625    0.0000 O   0  0  0  0  0  0  0  0  0  0  0  0
   -1.2587    0.5125    0.0000 Si  0  0  0  0  0  4  0  0  0  0  0  0
    1.1639    1.5853    0.0000 Si  0  0  0  0  0  4  0  0  0  0  0  0
   -0.5087    3.3116    0.0000 Si  0  0  0  0  0  4  0  0  0  0  0  0
   -1.2587    2.0125    0.0000 Si  0  0  0  0  0  4  0  0  0  0  0  0
 11  1  1  0
 12  2  1  0
 12  3  1  0
 12  4  1  0
 13  5  1  0
 13  6  1  0
 13  7  1  0
 14  8  1  0
 14  9  1  0
 14 10  1  0
 15 11  1  0
 15 12  1  0
 15 13  1  0
 15 14  1  0
M  END
>  <NAME>  (4067) 
METHOXYTRIS(TRIMETHYLSILYL)SILANE

>  <SYNONYMS>  (4067) 


>  <SPECTRUM TYPE>  (4067) 
MS1

>  <INSTRUMENT TYPE>  (4067) 
EI-B

>  <INSTRUMENT>  (4067) 
JEOL JMS-D-3000

>  <ION MODE>  (4067) 
P

>  <INCHIKEY>  (4067) 
VGECNGCCOSRMRH-UHFFFAOYSA-N

>  <FORMULA>  (4067) 
C10H30OSi4

>  <EXACT MASS>  (4067) 
278.1373717

>  <MW>  (4067) 
278

>  <ID>  (4067) 
JP004808

>  <CONTRIBUTOR>  (4067) 
University of Tokyo Team, {Faculty of Engineering, University of Tokyo

>  <COMMENT>  (4067) 
SMILES=CO[Si]([Si](C)(C)C)([Si](C)(C)C)[Si](C)(C)C
InChI=InChI=1S/C10H30OSi4/c1-11-15(12(2,3)4,13(5,6)7)14(8,9)10/h1-10H3
computed SMILES=O(C)[Si]([Si](C)(C)C)([Si](C)(C)C)[Si](C)(C)C
accession=JP004808
date=2016.01.19 (Created 2008.10.21, modified 2011.05.06)
author=MASS SPECTROSCOPY SOC. OF JAPAN (MSSJ)
license=CC BY-NC-SA
exact mass=278.13737
ionization energy=70 eV
ion type=[M]+*
computed spectral entropy=3.4260875025662787
computed normalized entropy=0.8064237588538823
SPLASH=splash10-08or-4950000000-0eda4012cca231fcdab1
submitter=submitter = University of Tokyo Team (Faculty of Engineering, University of Tokyo)
MoNA Rating=3.75

>  <NUM PEAKS>  (4067) 
70

>  <MASS SPECTRAL PEAKS>  (4067) 
43 4.01
45 12.32
58 1.27
59 24.75
60 1.74
71 1.08
73 99.99
74 8.03
75 7.32
85 2.4
89 10.15
90 1.08
99 4.2
100 3.82
101 6.04
102 1.79
103 2.03
113 2.59
114 3.87
115 12.94
116 5.47
117 24.79
118 4.1
119 1.22
129 17.43
130 2.64
131 44.87
132 7.69
133 4.01
145 4.86
146 1.32
147 13.08
148 2.36
149 1.13
157 2.4
159 30.27
160 6.75
161 6.42
162 1.27
173 5.9
174 6.14
175 60.65
176 14.02
177 6.7
178 1.03
187 1.13
189 27.3
190 11.38
191 4.34
192 1.27
203 2.22
204 1.27
205 45.96
206 10.15
207 5.76
208 1.13
219 1.51
233 3.21
247 1.41
248 1.18
250 1.22
252 2.12
254 1.27
263 86.96
264 26.54
265 16.62
266 3.58
278 6.37
279 2.59
280 1.08

>  <PREDICTED SPECTRUM>  (4067) 
15 27
28 9
29 83
31 48
41 33
43 159
44 23
45 203
46 24
47 51
55 13
56 7
57 92
58 34
59 395
60 22
61 25
66 9
67 11
69 115
70 28
71 64
72 45
73 981
74 255
75 195
76 7
77 56
81 10
83 44
85 106
87 5
89 69
91 53
93 23
95 22
99 119
100 131
101 181
102 85
103 151
104 83
105 52
109 38
113 112
114 41
115 209
116 210
117 399
118 141
119 226
120 3
121 20
127 16
128 107
129 312
130 258
131 604
132 242
133 184
137 35
143 71
144 2
145 123
146 123
147 320
148 118
149 58
150 43
151 48
157 74
158 50
159 433
160 206
161 116
162 35
171 158
172 111
173 371
174 195
175 650
176 317
177 256
178 89
179 18
187 76
188 19
189 469
190 259
191 267
192 102
203 54
204 76
205 728
206 256
207 255
220 0
231 32
233 144
247 200
248 74
249 58
263 999
264 574
265 428
266 203
267 76
278 253
279 134
280 61
281 2

$$$$

     RDKit          2D

 13 12  0  0  0  0  0  0  0  0999 V2000
    4.2990    5.3971    0.0000 C   0  0  0  0  0  0  0  0  0  0  0  0
    4.2990    2.3971    0.0000 C   0  0  0  0  0  0  0  0  0  0  0  0
    5.7990    3.8971    0.0000 C   0  0  0  0  0  0  0  0  0  0  0  0
   -1.5000    2.0490    0.0000 C   0  0  0  0  0  0  0  0  0  0  0  0
   -0.9510    0.0000    0.0000 C   0  0  0  0  0  0  0  0  0  0  0  0
    1.0981    0.5490    0.0000 C   0  0  0  0  0  0  0  0  0  0  0  0
    0.8095    4.0753    0.0000 C   0  0  0  0  0  0  0  0  0  0  0  0
   -0.8605    3.1111    0.0000 C   0  0  0  0  0  0  0  0  0  0  0  0
    2.7990    3.8971    0.0000 C   0  0  0  0  0  0  0  0  0  0  0  0
    2.0490    2.5981    0.0000 C   0  0  0  0  0  0  0  0  0  0  0  0
    4.2990    3.8971    0.0000 Si  0  0  0  0  0  4  0  0  0  0  0  0
   -0.2010    1.2990    0.0000 Si  0  0  0  0  0  4  0  0  0  0  0  0
    0.5490    2.5981    0.0000 Si  0  0  0  0  0  4  0  0  0  0  0  0
  9 10  2  0
 11  1  1  0
 11  2  1  0
 11  3  1  0
 11  9  1  0
 12  4  1  0
 12  5  1  0
 12  6  1  0
 13  7  1  0
 13  8  1  0
 13 10  1  0
 13 12  1  0
M  END
>  <NAME>  (4068) 
(E)-PENTAMETHYLDISILANYLTRIMETHYLSILYLETHYLENE

>  <SYNONYMS>  (4068) 


>  <SPECTRUM TYPE>  (4068) 
MS1

>  <INSTRUMENT TYPE>  (4068) 
EI-B

>  <INSTRUMENT>  (4068) 
JEOL JMS-D-3000

>  <ION MODE>  (4068) 
P

>  <INCHIKEY>  (4068) 
JNIYOGWIJMFISY-MDZDMXLPSA-N

>  <FORMULA>  (4068) 
C10H26Si3

>  <EXACT MASS>  (4068) 
230.134230422

>  <MW>  (4068) 
230

>  <ID>  (4068) 
JP004807

>  <CONTRIBUTOR>  (4068) 
University of Tokyo Team, {Faculty of Engineering, University of Tokyo

>  <COMMENT>  (4068) 
SMILES=C[Si](C)(C)C([H])=C([H])[Si](C)(C)[Si](C)(C)C
InChI=InChI=1S/C10H26Si3/c1-11(2,3)9-10-13(7,8)12(4,5)6/h9-10H,1-8H3/b10-9+
computed SMILES=C(=C[Si](C)(C)[Si](C)(C)C)[Si](C)(C)C
accession=JP004807
date=2016.01.19 (Created 2008.10.21, modified 2011.05.06)
author=MASS SPECTROSCOPY SOC. OF JAPAN (MSSJ)
license=CC BY-NC-SA
exact mass=230.13423
ionization energy=70 eV
ion type=[M]+*
computed spectral entropy=1.893031799560993
computed normalized entropy=0.6319095388705054
SPLASH=splash10-00di-9300000000-b3e651021a63ae014fdc
submitter=submitter = University of Tokyo Team (Faculty of Engineering, University of Tokyo)
MoNA Rating=3.75

>  <NUM PEAKS>  (4068) 
20

>  <MASS SPECTRAL PEAKS>  (4068) 
43 3
45 7.1
59 4.12
73 99.99
75 3.35
83 2.72
85 1.23
117 1.5
127 5.13
131 2.25
141 8.41
142 2.93
155 2.2
156 2.39
157 21.23
158 4.36
159 1.92
215 1.99
230 7.35
231 1.96

>  <PREDICTED SPECTRUM>  (4068) 
43 134
44 28
45 204
59 295
60 6
68 0
69 67
73 999
74 241
75 97
83 81
84 21
85 106
86 4
97 1
99 96
100 138
101 71
102 27
111 38
117 48
127 181
128 16
129 193
130 2
131 156
132 11
141 119
142 298
143 20
156 175
157 370
158 147
215 114
216 16
230 265
231 87
232 27

$$$$

     RDKit          2D

 12 12  0  0  0  0  0  0  0  0999 V2000
   -1.3000    0.3512    0.0000 C   0  0  0  0  0  0  0  0  0  0  0  0
   -0.0013   -1.8990    0.0000 C   0  0  0  0  0  0  0  0  0  0  0  0
    2.2624    1.4997    0.0000 C   0  0  0  0  0  0  0  0  0  0  0  0
    5.1970   -1.8994    0.0000 C   0  0  0  0  0  0  0  0  0  0  0  0
    3.8970   -2.6494    0.0000 C   0  0  0  0  0  0  0  0  0  0  0  0
    5.1970   -0.3994    0.0000 C   0  0  0  0  0  0  0  0  0  0  0  0
    2.5970   -1.8994    0.0000 C   0  0  0  0  0  0  0  0  0  0  0  0
    3.8970    0.3506    0.0000 C   0  0  0  0  0  0  0  0  0  0  0  0
   -0.0011   -0.3990    0.0000 C   0  0  0  0  0  0  0  0  0  0  0  0
    2.5970   -0.3994    0.0000 C   0  0  0  0  0  0  0  0  0  0  0  0
    0.3341    1.5000    0.0000 Cl  0  0  0  0  0  0  0  0  0  0  0  0
    1.2981    0.3508    0.0000 Si  0  0  0  0  0  4  0  0  0  0  0  0
  5  4  2  0
  6  4  1  0
  7  5  1  0
  8  6  2  0
  9  1  1  0
  9  2  1  0
 10  7  2  0
 10  8  1  0
 12  3  1  0
 12  9  1  0
 12 10  1  0
 12 11  1  0
M  END
>  <NAME>  (4069) 
CHLOROISOPROPYLMETHYLPHENYLSILANE

>  <SYNONYMS>  (4069) 


>  <SPECTRUM TYPE>  (4069) 
MS1

>  <INSTRUMENT TYPE>  (4069) 
EI-B

>  <INSTRUMENT>  (4069) 
JEOL JMS-D-3000

>  <ION MODE>  (4069) 
P

>  <INCHIKEY>  (4069) 
KZSZEXYXZJZLHY-UHFFFAOYSA-N

>  <FORMULA>  (4069) 
C10H15ClSi

>  <EXACT MASS>  (4069) 
198.06315469

>  <MW>  (4069) 
198

>  <ID>  (4069) 
JP004806

>  <CONTRIBUTOR>  (4069) 
University of Tokyo Team, {Faculty of Engineering, University of Tokyo

>  <COMMENT>  (4069) 
SMILES=CC(C)[Si](C)(Cl)c(c1)cccc1
cas=51657-50-2
InChI=InChI=1S/C10H15ClSi/c1-9(2)12(3,11)10-7-5-4-6-8-10/h4-9H,1-3H3
computed SMILES=Cl[Si](C=1C=CC=CC1)(C)C(C)C
accession=JP004806
date=2016.01.19 (Created 2008.10.21, modified 2011.05.06)
author=MASS SPECTROSCOPY SOC. OF JAPAN (MSSJ)
license=CC BY-NC-SA
exact mass=198.06315
ionization energy=70 eV
ion type=[M]+*
computed spectral entropy=2.069630380331592
computed normalized entropy=0.6512257157409448
SPLASH=splash10-0a4i-2900000000-07a8392fa6b1946de865
submitter=submitter = University of Tokyo Team (Faculty of Engineering, University of Tokyo)
MoNA Rating=3.75

>  <NUM PEAKS>  (4069) 
24

>  <MASS SPECTRAL PEAKS>  (4069) 
43 1.28
51 2.01
53 1.42
63 13.05
65 4.98
77 1.47
78 1.71
79 2.41
91 10.75
93 1.83
103 1.55
105 2.7
119 1.77
120 1.4
137 6.92
140 1.41
141 1.89
155 99.99
156 13.15
157 35.87
158 4.32
159 1.41
198 5.19
200 2.01

>  <PREDICTED SPECTRUM>  (4069) 
27 19
28 26
29 8
39 89
40 10
41 24
42 40
43 105
44 66
45 78
51 79
53 64
59 83
63 122
65 239
66 55
67 73
75 40
77 133
78 75
79 90
91 349
92 143
93 229
95 178
103 64
105 85
111 23
117 4
119 149
120 147
121 85
125 3
136 5
137 108
138 2
139 20
141 30
155 999
156 347
157 707
158 251
159 63
185 3
198 170
199 48
200 103
201 7

$$$$

     RDKit          2D

 12 12  0  0  0  0  0  0  0  0999 V2000
   -1.3000    0.3512    0.0000 C   0  0  0  0  0  0  0  0  0  0  0  0
   -1.1432    1.2398    0.0000 C   0  0  0  0  0  0  0  0  0  0  0  0
    2.2624    1.4997    0.0000 C   0  0  0  0  0  0  0  0  0  0  0  0
    5.1970   -1.8994    0.0000 C   0  0  0  0  0  0  0  0  0  0  0  0
    3.8970   -2.6494    0.0000 C   0  0  0  0  0  0  0  0  0  0  0  0
    5.1970   -0.3994    0.0000 C   0  0  0  0  0  0  0  0  0  0  0  0
    2.5970   -1.8994    0.0000 C   0  0  0  0  0  0  0  0  0  0  0  0
    3.8970    0.3506    0.0000 C   0  0  0  0  0  0  0  0  0  0  0  0
    2.5970   -0.3994    0.0000 C   0  0  0  0  0  0  0  0  0  0  0  0
   -0.0011   -0.3990    0.0000 O   0  0  0  0  0  0  0  0  0  0  0  0
    0.3341    1.5000    0.0000 O   0  0  0  0  0  0  0  0  0  0  0  0
    1.2981    0.3508    0.0000 Si  0  0  0  0  0  4  0  0  0  0  0  0
  5  4  2  0
  6  4  1  0
  7  5  1  0
  8  6  2  0
  9  7  2  0
  9  8  1  0
 10  1  1  0
 11  2  1  0
 12  3  1  0
 12  9  1  0
 12 10  1  0
 12 11  1  0
M  END
>  <NAME>  (4070) 
DIMETHOXYMETHYLPHENYLSILANE

>  <SYNONYMS>  (4070) 


>  <SPECTRUM TYPE>  (4070) 
MS1

>  <INSTRUMENT TYPE>  (4070) 
EI-B

>  <INSTRUMENT>  (4070) 
JEOL JMS-D-3000

>  <ION MODE>  (4070) 
P

>  <INCHIKEY>  (4070) 
CVQVSVBUMVSJES-UHFFFAOYSA-N

>  <FORMULA>  (4070) 
C9H14O2Si

>  <EXACT MASS>  (4070) 
182.076306218

>  <MW>  (4070) 
182

>  <ID>  (4070) 
JP004805

>  <CONTRIBUTOR>  (4070) 
University of Tokyo Team, {Faculty of Engineering, University of Tokyo

>  <COMMENT>  (4070) 
SMILES=CO[Si](C)(OC)c(c1)cccc1
cas=3027-21-2
InChI=InChI=1S/C9H14O2Si/c1-10-12(3,11-2)9-7-5-4-6-8-9/h4-8H,1-3H3
computed SMILES=O(C)[Si](OC)(C=1C=CC=CC1)C
accession=JP004805
date=2016.01.19 (Created 2008.10.21, modified 2011.05.06)
author=MASS SPECTROSCOPY SOC. OF JAPAN (MSSJ)
license=CC BY-NC-SA
exact mass=182.07631
ionization energy=70 eV
ion type=[M]+*
computed spectral entropy=2.4478041192534348
computed normalized entropy=0.7128169016053254
SPLASH=splash10-014i-3900000000-5f90eb2eb739562a2f50
submitter=submitter = University of Tokyo Team (Faculty of Engineering, University of Tokyo)
MoNA Rating=3.75

>  <NUM PEAKS>  (4070) 
31

>  <MASS SPECTRAL PEAKS>  (4070) 
43 1.83
45 3.41
51 2.31
53 1.22
59 13.64
60 1.57
61 1.44
65 1.26
74 2.05
75 9.05
77 2.79
78 2.23
84 2.53
90 1.13
91 16.31
92 1.44
104 1.26
105 8.31
106 1
107 9.93
108 1.26
121 5.51
137 27.95
138 3.54
139 1.39
151 3.23
167 99.99
168 13.73
169 4.81
182 8.88
183 1.66

>  <PREDICTED SPECTRUM>  (4070) 
14 4
15 40
26 29
27 83
28 27
29 88
31 100
37 31
38 87
39 186
40 43
41 63
42 49
43 274
44 73
45 368
46 60
47 113
49 28
50 134
51 275
52 108
53 139
54 26
55 65
58 37
59 260
60 97
61 166
62 71
63 177
64 56
65 207
66 96
67 66
69 46
70 7
73 103
74 38
75 202
76 81
77 432
78 235
79 143
80 16
83 42
89 181
90 97
91 381
92 112
93 216
95 158
96 39
97 108
104 241
105 419
106 163
107 253
108 102
109 219
110 20
119 181
120 105
121 419
122 150
123 316
124 167
125 118
135 87
136 109
137 383
138 120
139 85
151 130
152 94
153 83
165 88
166 51
167 999
168 351
169 194
170 17
181 13
182 192
183 34

$$$$

     RDKit          2D

 11 11  0  0  0  0  0  0  0  0999 V2000
    3.3491    0.2013    0.0000 C   0  0  0  0  0  0  0  0  0  0  0  0
    3.8978    2.2504    0.0000 C   0  0  0  0  0  0  0  0  0  0  0  0
    1.8487    2.7991    0.0000 C   0  0  0  0  0  0  0  0  0  0  0  0
   -1.3000    0.7500    0.0000 C   0  0  0  0  0  0  0  0  0  0  0  0
   -0.0000   -1.5000    0.0000 C   0  0  0  0  0  0  0  0  0  0  0  0
    0.0000    1.5000    0.0000 C   0  0  0  0  0  0  0  0  0  0  0  0
    1.3000   -0.7500    0.0000 C   0  0  0  0  0  0  0  0  0  0  0  0
   -1.3000   -0.7500    0.0000 C   0  0  0  0  0  0  0  0  0  0  0  0
    1.3000    0.7500    0.0000 C   0  0  0  0  0  0  0  0  0  0  0  0
   -2.5989   -1.5002    0.0000 O   0  0  0  0  0  0  0  0  0  0  0  0
    2.5989    1.5002    0.0000 Si  0  0  0  0  0  4  0  0  0  0  0  0
  6  4  2  0
  7  5  1  0
  8  4  1  0
  8  5  2  0
  9  6  1  0
  9  7  2  0
 10  8  1  0
 11  1  1  0
 11  2  1  0
 11  3  1  0
 11  9  1  0
M  END
>  <NAME>  (4071) 
4-TRIMETHYLSILYLPHENOL

>  <SYNONYMS>  (4071) 


>  <SPECTRUM TYPE>  (4071) 
MS1

>  <INSTRUMENT TYPE>  (4071) 
EI-B

>  <INSTRUMENT>  (4071) 
JEOL JMS-D-3000

>  <ION MODE>  (4071) 
P

>  <INCHIKEY>  (4071) 
ZOMMEPFDNFYOHO-UHFFFAOYSA-N

>  <FORMULA>  (4071) 
C9H14OSi

>  <EXACT MASS>  (4071) 
166.08139159799998

>  <MW>  (4071) 
166

>  <ID>  (4071) 
JP004804

>  <CONTRIBUTOR>  (4071) 
University of Tokyo Team, {Faculty of Engineering, University of Tokyo

>  <COMMENT>  (4071) 
SMILES=Oc(c1)ccc(c1)[Si](C)(C)C
InChI=InChI=1S/C9H14OSi/c1-11(2,3)9-6-4-8(10)5-7-9/h4-7,10H,1-3H3
computed SMILES=OC1=CC=C(C=C1)[Si](C)(C)C
accession=JP004804
date=2016.01.19 (Created 2008.10.21, modified 2011.05.06)
author=MASS SPECTROSCOPY SOC. OF JAPAN (MSSJ)
license=CC BY-NC-SA
exact mass=166.08139
ionization energy=70 eV
ion type=[M]+*
computed spectral entropy=2.1011968548730975
computed normalized entropy=0.6701325884125237
SPLASH=splash10-0udi-3900000000-c6ab56043a7896be5cdf
submitter=submitter = University of Tokyo Team (Faculty of Engineering, University of Tokyo)
MoNA Rating=3.75

>  <NUM PEAKS>  (4071) 
23

>  <MASS SPECTRAL PEAKS>  (4071) 
43 2.48
45 4.23
47 1.44
51 4.49
59 1.26
61 1.93
65 1.29
68 1.14
73 6.45
75 8.52
76 2.06
77 8.98
91 7.51
95 3.43
121 2.11
123 1.16
135 3.42
151 99.99
152 14.38
153 4.55
166 26.93
167 4.24
168 1.19

>  <PREDICTED SPECTRUM>  (4071) 
15 21
27 46
28 30
29 93
31 49
38 19
39 73
40 10
42 18
43 195
44 66
45 135
46 2
47 54
50 43
51 91
52 45
53 119
54 36
55 60
57 63
58 33
59 137
60 15
61 26
63 69
64 9
65 98
66 90
67 96
68 26
69 46
70 30
73 207
74 71
75 179
77 123
78 18
79 28
80 1
81 30
82 13
83 70
84 21
91 121
92 72
93 105
94 10
95 58
96 4
105 55
107 131
108 53
109 71
121 133
122 36
123 69
133 42
135 123
149 45
150 27
151 999
152 365
153 159
154 4
166 431
167 167
168 35

$$$$

     RDKit          2D

 12 12  0  0  0  0  0  0  0  0999 V2000
    3.1483   -0.5487    0.0000 C   0  0  0  0  0  0  0  0  0  0  0  0
    5.1972    0.0006    0.0000 C   0  0  0  0  0  0  0  0  0  0  0  0
    4.6479    2.0496    0.0000 C   0  0  0  0  0  0  0  0  0  0  0  0
   -1.3000    0.7500    0.0000 C   0  0  0  0  0  0  0  0  0  0  0  0
   -0.0000   -1.5000    0.0000 C   0  0  0  0  0  0  0  0  0  0  0  0
    0.0000    1.5000    0.0000 C   0  0  0  0  0  0  0  0  0  0  0  0
    1.3000   -0.7500    0.0000 C   0  0  0  0  0  0  0  0  0  0  0  0
   -1.3000   -0.7500    0.0000 C   0  0  0  0  0  0  0  0  0  0  0  0
    1.3000    0.7500    0.0000 C   0  0  0  0  0  0  0  0  0  0  0  0
   -2.5989   -1.5002    0.0000 Br  0  0  0  0  0  0  0  0  0  0  0  0
    2.5989    1.5002    0.0000 O   0  0  0  0  0  0  0  0  0  0  0  0
    3.8981    0.7504    0.0000 Si  0  0  0  0  0  4  0  0  0  0  0  0
  6  4  2  0
  7  5  1  0
  8  4  1  0
  8  5  2  0
  9  6  1  0
  9  7  2  0
 10  8  1  0
 11  9  1  0
 12  1  1  0
 12  2  1  0
 12  3  1  0
 12 11  1  0
M  END
>  <NAME>  (4072) 
1-BROMO-4-TRIMETHYLSILOXYBENZENE

>  <SYNONYMS>  (4072) 


>  <SPECTRUM TYPE>  (4072) 
MS1

>  <INSTRUMENT TYPE>  (4072) 
EI-B

>  <INSTRUMENT>  (4072) 
JEOL JMS-D-3000

>  <ION MODE>  (4072) 
P

>  <INCHIKEY>  (4072) 
HWKPTBHJWBSOOP-UHFFFAOYSA-N

>  <FORMULA>  (4072) 
C9H13BrOSi

>  <EXACT MASS>  (4072) 
243.991903666

>  <MW>  (4072) 
244

>  <ID>  (4072) 
JP004803

>  <CONTRIBUTOR>  (4072) 
University of Tokyo Team, {Faculty of Engineering, University of Tokyo

>  <COMMENT>  (4072) 
SMILES=C[Si](C)(C)Oc(c1)ccc(Br)c1
InChI=InChI=1S/C9H13BrOSi/c1-12(2,3)11-9-6-4-8(10)5-7-9/h4-7H,1-3H3
computed SMILES=BrC1=CC=C(O[Si](C)(C)C)C=C1
accession=JP004803
date=2016.01.19 (Created 2008.10.21, modified 2011.05.06)
author=MASS SPECTROSCOPY SOC. OF JAPAN (MSSJ)
license=CC BY-NC-SA
exact mass=243.9919
ionization energy=70 eV
ion type=[M]+*
computed spectral entropy=3.580482957381057
computed normalized entropy=0.8017368163991083
SPLASH=splash10-00av-4690000000-336d98d0f67dd3899114
submitter=submitter = University of Tokyo Team (Faculty of Engineering, University of Tokyo)
MoNA Rating=3.75

>  <NUM PEAKS>  (4072) 
87

>  <MASS SPECTRAL PEAKS>  (4072) 
42 1.31
43 7.11
44 3.55
45 10.73
46 2.86
47 2.53
50 5.96
51 2.5
53 2.96
55 1.94
57 1.08
58 1.77
59 1.77
60 2.27
61 4.64
62 3.49
63 9.38
64 4.84
65 15.31
66 1.54
67 1.91
72 1.41
73 46.6
74 6.78
75 17.06
76 8.3
77 3.98
79 1.71
85 1.31
86 1.87
87 2.07
89 2.93
90 3.95
91 10.01
92 2.27
93 9.94
94 1.02
100 2.23
101 1.54
105 1.61
107 1.08
109 1.44
114 17.75
115 17.35
116 3.09
117 1.44
119 1.51
121 4.41
123 2.27
125 2.14
135 17.39
136 2.89
137 27.76
138 2.04
139 27.04
140 1.91
141 1.31
143 3.45
145 3.45
148 1.31
149 26.21
150 49.53
151 6.22
152 2.4
155 6.45
157 6.15
164 1.05
169 1.58
171 3.52
172 26.15
173 3.88
174 25.95
175 2.2
199 2.6
201 3.19
213 1.38
215 1.48
229 99.2
230 14.29
231 99.99
232 13.96
233 4.47
244 72.03
245 11.19
246 71.6
247 10.44
248 3.39

>  <PREDICTED SPECTRUM>  (4072) 
14 2
15 62
26 7
27 72
28 50
29 88
31 58
37 8
38 51
39 49
40 5
41 82
42 63
43 183
44 71
45 237
46 38
47 71
49 33
50 112
51 133
52 75
53 111
54 55
55 131
56 56
57 105
58 26
59 129
61 81
62 109
63 215
64 117
65 109
66 87
67 56
68 19
69 78
70 79
71 83
72 42
73 506
74 191
75 255
76 118
77 218
78 131
79 125
80 53
81 53
82 77
83 99
84 41
85 1
87 20
88 2
89 120
90 107
91 176
92 115
93 118
94 59
95 83
96 51
98 11
99 30
102 28
103 103
104 103
105 149
106 121
107 278
108 116
109 250
110 59
111 77
113 52
115 98
116 45
117 94
118 22
119 107
120 86
121 178
122 137
123 128
124 21
125 83
129 1
131 24
132 20
133 158
134 88
135 360
136 183
137 495
138 49
139 438
141 56
143 113
145 112
146 7
147 94
148 104
149 381
150 547
151 235
152 156
155 69
156 16
157 46
163 18
164 96
165 103
166 21
169 8
170 10
171 86
172 46
173 14
199 36
201 86
211 10
213 105
214 50
215 144
216 87
217 52
227 81
228 36
229 912
230 281
231 999
232 373
233 218
235 26
243 44
244 609
245 302
246 683
247 254
248 143

$$$$

     RDKit          2D

 11 10  0  0  0  0  0  0  0  0999 V2000
    2.0490    4.0981    0.0000 C   0  0  0  0  0  0  0  0  0  0  0  0
    2.0490    1.0981    0.0000 C   0  0  0  0  0  0  0  0  0  0  0  0
    3.5490    2.5981    0.0000 C   0  0  0  0  0  0  0  0  0  0  0  0
   -1.5000    2.0490    0.0000 C   0  0  0  0  0  0  0  0  0  0  0  0
   -0.9510    0.0000    0.0000 C   0  0  0  0  0  0  0  0  0  0  0  0
    1.0981    0.5490    0.0000 C   0  0  0  0  0  0  0  0  0  0  0  0
    0.8095    4.0753    0.0000 C   0  0  0  0  0  0  0  0  0  0  0  0
   -0.8605    3.1111    0.0000 C   0  0  0  0  0  0  0  0  0  0  0  0
    2.0490    2.5981    0.0000 Si  0  0  0  0  0  4  0  0  0  0  0  0
   -0.2010    1.2990    0.0000 Si  0  0  0  0  0  4  0  0  0  0  0  0
    0.5490    2.5981    0.0000 Si  0  0  0  0  0  4  0  0  0  0  0  0
  9  1  1  0
  9  2  1  0
  9  3  1  0
 10  4  1  0
 10  5  1  0
 10  6  1  0
 11  7  1  0
 11  8  1  0
 11  9  1  0
 11 10  1  0
M  END
>  <NAME>  (4073) 
OCTAMETHYLTRISILANE

>  <SYNONYMS>  (4073) 


>  <SPECTRUM TYPE>  (4073) 
MS1

>  <INSTRUMENT TYPE>  (4073) 
EI-B

>  <INSTRUMENT>  (4073) 
JEOL JMS-D-3000

>  <ION MODE>  (4073) 
P

>  <INCHIKEY>  (4073) 
DDIMPUQNMJIVKL-UHFFFAOYSA-N

>  <FORMULA>  (4073) 
C8H24Si3

>  <EXACT MASS>  (4073) 
204.118580358

>  <MW>  (4073) 
204

>  <ID>  (4073) 
JP004802

>  <CONTRIBUTOR>  (4073) 
University of Tokyo Team, {Faculty of Engineering, University of Tokyo

>  <COMMENT>  (4073) 
cas=3704-44-7
SMILES=C[Si](C)(C)[Si](C)(C)[Si](C)(C)C
InChI=InChI=1S/C8H24Si3/c1-9(2,3)11(7,8)10(4,5)6/h1-8H3
computed SMILES=C[Si](C)(C)[Si](C)(C)[Si](C)(C)C
accession=JP004802
date=2016.01.19 (Created 2008.10.21, modified 2011.05.06)
author=MASS SPECTROSCOPY SOC. OF JAPAN (MSSJ)
license=CC BY-NC-SA
exact mass=204.11858
ionization energy=70 eV
ion type=[M]+*
computed spectral entropy=2.558800310702211
computed normalized entropy=0.7679001402490965
SPLASH=splash10-00si-3910000000-571acf4a7bbd85970673
submitter=submitter = University of Tokyo Team (Faculty of Engineering, University of Tokyo)
MoNA Rating=3.75

>  <NUM PEAKS>  (4073) 
28

>  <MASS SPECTRAL PEAKS>  (4073) 
43 2.95
45 8.49
59 5.06
73 83.43
74 7.25
75 3.59
85 1.45
99 2.49
101 7.22
113 1.27
115 11.86
116 46.63
117 8.54
118 3.81
129 5.53
130 2.02
131 99.99
132 16.84
133 8.4
145 5.44
173 1.97
187 2.25
189 28.37
190 6.72
191 3.8
204 35.73
205 8.93
206 4.69

>  <PREDICTED SPECTRUM>  (4073) 
31 24
39 1
41 50
42 44
43 229
44 45
45 316
46 57
47 30
54 20
55 32
57 190
58 64
59 225
69 129
70 13
71 80
72 71
73 999
74 292
75 253
76 15
77 37
85 8
87 2
91 85
101 189
102 26
103 58
105 3
114 27
115 187
116 272
117 163
129 168
130 163
131 577
132 252
133 147
147 163
173 296
174 296
175 1
189 221
190 135
191 5
204 294
205 135
206 61

$$$$

     RDKit          2D

 10  9  0  0  0  0  0  0  0  0999 V2000
    1.8983    1.9620    0.0000 C   0  0  0  0  0  0  0  0  0  0  0  0
    0.5993    4.2120    0.0000 C   0  0  0  0  0  0  0  0  0  0  0  0
   -1.2488    4.0111    0.0000 C   0  0  0  0  0  0  0  0  0  0  0  0
   -3.2978    3.4620    0.0000 C   0  0  0  0  0  0  0  0  0  0  0  0
   -2.7488    1.4130    0.0000 C   0  0  0  0  0  0  0  0  0  0  0  0
   -1.6639    0.8130    0.0000 C   0  0  0  0  0  0  0  0  0  0  0  0
    0.2644    0.8130    0.0000 C   0  0  0  0  0  0  0  0  0  0  0  0
    0.5993    2.7120    0.0000 Si  0  0  0  0  0  4  0  0  0  0  0  0
   -1.9988    2.7120    0.0000 Si  0  0  0  0  0  4  0  0  0  0  0  0
   -0.6998    1.9620    0.0000 Si  0  0  0  0  0  4  0  0  0  0  0  0
  8  1  1  0
  8  2  1  0
  9  3  1  0
  9  4  1  0
  9  5  1  0
 10  6  1  0
 10  7  1  0
 10  8  1  0
 10  9  1  0
M  END
>  <NAME>  (4074) 
1,1,1,2,2,3,3-HEPTAMETHYLTRISILANE

>  <SYNONYMS>  (4074) 


>  <SPECTRUM TYPE>  (4074) 
MS1

>  <INSTRUMENT TYPE>  (4074) 
EI-B

>  <INSTRUMENT>  (4074) 
JEOL JMS-D-3000

>  <ION MODE>  (4074) 
P

>  <INCHIKEY>  (4074) 
YNNGBLKAOSDCHG-UHFFFAOYSA-N

>  <FORMULA>  (4074) 
C7H22Si3

>  <EXACT MASS>  (4074) 
190.10293029399998

>  <MW>  (4074) 
190

>  <ID>  (4074) 
JP004800

>  <CONTRIBUTOR>  (4074) 
University of Tokyo Team, {Faculty of Engineering, University of Tokyo

>  <COMMENT>  (4074) 
SMILES=C[SiH](C)[Si](C)(C)[Si](C)(C)C
InChI=InChI=1S/C7H22Si3/c1-8(2)10(6,7)9(3,4)5/h8H,1-7H3
computed SMILES=C[SiH](C)[Si](C)(C)[Si](C)(C)C
accession=JP004800
date=2016.01.19 (Created 2008.10.21, modified 2011.05.06)
author=MASS SPECTROSCOPY SOC. OF JAPAN (MSSJ)
license=CC BY-NC-SA
exact mass=190.10293
ionization energy=70 eV
ion type=[M]+*
computed spectral entropy=2.7035788491285926
computed normalized entropy=0.7379646121103972
SPLASH=splash10-01b9-4900000000-69b496b343e7d8b97bd8
submitter=submitter = University of Tokyo Team (Faculty of Engineering, University of Tokyo)
MoNA Rating=3.75

>  <NUM PEAKS>  (4074) 
39

>  <MASS SPECTRAL PEAKS>  (4074) 
43 6.37
45 11.78
57 1.04
59 12.26
60 1.07
69 1.65
71 1.2
73 99.99
74 8.46
75 4.75
85 2.66
87 1.46
99 3.57
100 1.13
101 15.35
102 11.91
103 3.09
104 1.13
113 1.17
115 9.59
116 94.3
117 36.15
118 10.25
119 2.34
129 3.05
131 59.25
132 10.25
133 5.01
145 1.33
159 2.01
173 3.54
174 2.27
175 20.46
176 4.36
177 2.53
189 1.82
190 9.3
191 2.4
192 1.23

>  <PREDICTED SPECTRUM>  (4074) 
31 9
43 344
44 59
45 243
55 114
56 6
57 210
58 115
59 423
60 99
69 7
71 58
72 77
73 999
74 258
75 148
77 47
85 42
87 122
91 36
98 5
99 145
100 25
101 344
102 217
103 105
113 63
115 423
116 774
117 583
118 173
119 78
121 53
129 105
130 198
131 705
132 200
133 124
159 8
173 180
174 172
175 429
176 244
177 159
187 11
188 169
189 257
190 445
191 193
192 128

$$$$

     RDKit          2D

  9  8  0  0  0  0  0  0  0  0999 V2000
   -4.2219    2.8125    0.0000 C   0  0  0  0  0  0  0  0  0  0  0  0
   -1.0748    0.7635    0.0000 C   0  0  0  0  0  0  0  0  0  0  0  0
    0.9743    1.3125    0.0000 C   0  0  0  0  0  0  0  0  0  0  0  0
    0.4252    3.3615    0.0000 C   0  0  0  0  0  0  0  0  0  0  0  0
   -0.6596    3.9616    0.0000 C   0  0  0  0  0  0  0  0  0  0  0  0
   -2.5880    3.9616    0.0000 C   0  0  0  0  0  0  0  0  0  0  0  0
   -2.9228    2.0625    0.0000 C   0  0  0  0  0  0  0  0  0  0  0  0
   -0.3248    2.0625    0.0000 Si  0  0  0  0  0  4  0  0  0  0  0  0
   -1.6238    2.8125    0.0000 Si  0  0  0  0  0  4  0  0  0  0  0  0
  7  1  1  0
  8  2  1  0
  8  3  1  0
  8  4  1  0
  9  5  1  0
  9  6  1  0
  9  7  1  0
  9  8  1  0
M  END
>  <NAME>  (4075) 
ETHYLPENTAMETHYLDISILANE

>  <SYNONYMS>  (4075) 


>  <SPECTRUM TYPE>  (4075) 
MS1

>  <INSTRUMENT TYPE>  (4075) 
EI-B

>  <INSTRUMENT>  (4075) 
JEOL JMS-D-3000

>  <ION MODE>  (4075) 
P

>  <INCHIKEY>  (4075) 
AIYNVZFMBDWFLW-UHFFFAOYSA-N

>  <FORMULA>  (4075) 
C7H20Si2

>  <EXACT MASS>  (4075) 
160.1103537

>  <MW>  (4075) 
160

>  <ID>  (4075) 
JP004799

>  <CONTRIBUTOR>  (4075) 
University of Tokyo Team, {Faculty of Engineering, University of Tokyo

>  <COMMENT>  (4075) 
SMILES=CC[Si](C)(C)[Si](C)(C)C
InChI=InChI=1S/C7H20Si2/c1-7-9(5,6)8(2,3)4/h7H2,1-6H3
computed SMILES=CC[Si](C)(C)[Si](C)(C)C
accession=JP004799
date=2016.01.19 (Created 2008.10.21, modified 2011.05.06)
author=MASS SPECTROSCOPY SOC. OF JAPAN (MSSJ)
license=CC BY-NC-SA
exact mass=160.11035
ionization energy=70 eV
ion type=[M]+*
computed spectral entropy=2.6865782772641493
computed normalized entropy=0.7497039428014325
SPLASH=splash10-05g0-9300000000-85814d2a052131a35587
submitter=submitter = University of Tokyo Team (Faculty of Engineering, University of Tokyo)
MoNA Rating=3.75

>  <NUM PEAKS>  (4075) 
36

>  <MASS SPECTRAL PEAKS>  (4075) 
43 8.91
44 2.34
45 12.05
55 1.36
57 1.68
58 6.58
59 66.7
60 5.24
61 2.56
69 1.12
71 1.45
72 3.05
73 99.99
74 9.13
75 4
85 5.27
86 8.52
87 72.45
88 7.36
89 2.83
99 1.2
101 2.05
115 3.01
116 1.03
117 39.11
118 5.97
119 3.12
129 1.4
131 32.49
132 5.2
133 2.72
145 11.82
146 2.05
160 25.05
161 4.63
162 2.07

>  <PREDICTED SPECTRUM>  (4075) 
27 1
28 1
29 126
31 101
42 60
43 212
44 106
45 422
46 128
47 140
53 68
54 23
55 13
56 4
57 109
58 124
59 605
60 222
61 236
66 3
67 1
69 24
71 95
72 120
73 999
74 270
75 237
76 54
77 118
85 205
86 205
87 291
88 75
89 184
90 45
91 99
100 80
101 199
102 160
103 735
104 243
105 201
115 37
117 114
118 59
119 40
131 731
132 301
133 211
134 25
143 50
144 61
145 400
146 173
147 126
159 84
160 177
161 66

$$$$

     RDKit          2D

  9  8  0  0  0  0  0  0  0  0999 V2000
    0.9926    2.4721    0.0000 C   0  0  0  0  0  0  0  0  0  0  0  0
   -4.2035    2.4721    0.0000 C   0  0  0  0  0  0  0  0  0  0  0  0
    0.8359    1.5836    0.0000 C   0  0  0  0  0  0  0  0  0  0  0  0
   -1.1543   -0.0865    0.0000 C   0  0  0  0  0  0  0  0  0  0  0  0
   -2.5697    1.3231    0.0000 C   0  0  0  0  0  0  0  0  0  0  0  0
   -0.3064    3.2221    0.0000 C   0  0  0  0  0  0  0  0  0  0  0  0
   -2.9045    3.2221    0.0000 C   0  0  0  0  0  0  0  0  0  0  0  0
   -0.6413    1.3231    0.0000 Si  0  0  0  0  0  4  0  0  0  0  0  0
   -1.6055    2.4721    0.0000 Si  0  0  0  0  0  4  0  0  0  0  0  0
  6  1  1  0
  7  2  1  0
  8  3  1  0
  8  4  1  0
  9  5  1  0
  9  6  1  0
  9  7  1  0
  9  8  1  0
M  END
>  <NAME>  (4076) 
1,1-DIETHYL-1,2,2-TRIMETHYLDISILANE

>  <SYNONYMS>  (4076) 


>  <SPECTRUM TYPE>  (4076) 
MS1

>  <INSTRUMENT TYPE>  (4076) 
EI-B

>  <INSTRUMENT>  (4076) 
JEOL JMS-D-3000

>  <ION MODE>  (4076) 
P

>  <INCHIKEY>  (4076) 
KPISIPFWLMPWOU-UHFFFAOYSA-N

>  <FORMULA>  (4076) 
C7H20Si2

>  <EXACT MASS>  (4076) 
160.1103537

>  <MW>  (4076) 
160

>  <ID>  (4076) 
JP004798

>  <CONTRIBUTOR>  (4076) 
University of Tokyo Team, {Faculty of Engineering, University of Tokyo

>  <COMMENT>  (4076) 
SMILES=CC[Si](C)(CC)[SiH](C)C
InChI=InChI=1S/C7H20Si2/c1-6-9(5,7-2)8(3)4/h8H,6-7H2,1-5H3
computed SMILES=CC[Si](C)(CC)[SiH](C)C
accession=JP004798
date=2016.01.19 (Created 2008.10.21, modified 2011.05.06)
author=MASS SPECTROSCOPY SOC. OF JAPAN (MSSJ)
license=CC BY-NC-SA
exact mass=160.11035
ionization energy=70 eV
ion type=[M]+*
computed spectral entropy=2.6018280383512074
computed normalized entropy=0.7205447759530832
SPLASH=splash10-0uk9-7900000000-82858b4839c5d9738d69
submitter=submitter = University of Tokyo Team (Faculty of Engineering, University of Tokyo)
MoNA Rating=3.75

>  <NUM PEAKS>  (4076) 
37

>  <MASS SPECTRAL PEAKS>  (4076) 
43 7.45
44 2.08
45 15.1
55 1.31
57 1.67
58 1.67
59 17.04
60 1.31
69 1.34
71 5.77
72 5.29
73 99.16
74 9.02
75 3.79
85 2.85
86 1.71
87 3.57
88 3
89 8.09
90 1.13
100 3.69
101 99.99
102 11.96
103 41.79
104 5.69
105 2.9
115 1.13
116 1.94
117 8.05
118 1.24
131 9.06
132 1.45
144 2.23
145 4.58
160 19.53
161 3.52
162 1.64

>  <PREDICTED SPECTRUM>  (4076) 
28 28
29 9
31 117
42 27
43 368
44 259
45 420
46 87
47 12
53 1
55 41
56 51
57 159
58 176
59 649
60 248
61 116
69 81
70 12
71 205
72 371
73 958
74 245
75 242
77 197
79 41
85 212
86 179
87 324
88 152
89 256
90 79
91 33
99 119
100 441
101 999
102 477
103 723
104 269
105 151
115 123
117 203
118 42
131 286
132 92
133 77
144 24
145 110
146 93
159 62
160 380
161 191
162 95

$$$$

     RDKit          2D

 10  9  0  0  0  0  0  0  0  0999 V2000
   -0.0775    4.0652    0.0000 C   0  0  0  0  0  0  0  0  0  0  0  0
   -3.9747    1.8152    0.0000 C   0  0  0  0  0  0  0  0  0  0  0  0
   -1.5615   -0.2980    0.0000 C   0  0  0  0  0  0  0  0  0  0  0  0
    0.5518   -0.4829    0.0000 C   0  0  0  0  0  0  0  0  0  0  0  0
   -2.3408    0.6662    0.0000 C   0  0  0  0  0  0  0  0  0  0  0  0
   -0.0775    2.5652    0.0000 C   0  0  0  0  0  0  0  0  0  0  0  0
   -2.6756    2.5652    0.0000 C   0  0  0  0  0  0  0  0  0  0  0  0
    0.7367    1.6303    0.0000 Cl  0  0  0  0  0  0  0  0  0  0  0  0
   -0.4124    0.6662    0.0000 Si  0  0  0  0  0  4  0  0  0  0  0  0
   -1.3766    1.8152    0.0000 Si  0  0  0  0  0  4  0  0  0  0  0  0
  6  1  1  0
  7  2  1  0
  9  3  1  0
  9  4  1  0
  9  8  1  0
 10  5  1  0
 10  6  1  0
 10  7  1  0
 10  9  1  0
M  END
>  <NAME>  (4077) 
1-CHLORO-2,2-DIETHYL-1,1,2-TRIMETHYLDISILANE

>  <SYNONYMS>  (4077) 


>  <SPECTRUM TYPE>  (4077) 
MS1

>  <INSTRUMENT TYPE>  (4077) 
EI-B

>  <INSTRUMENT>  (4077) 
JEOL JMS-D-3000

>  <ION MODE>  (4077) 
P

>  <INCHIKEY>  (4077) 
HMACUZHWIGKBMY-UHFFFAOYSA-N

>  <FORMULA>  (4077) 
C7H19ClSi2

>  <EXACT MASS>  (4077) 
194.071381348

>  <MW>  (4077) 
194

>  <ID>  (4077) 
JP004797

>  <CONTRIBUTOR>  (4077) 
University of Tokyo Team, {Faculty of Engineering, University of Tokyo

>  <COMMENT>  (4077) 
SMILES=CC[Si](C)(CC)[Si](C)(C)Cl
InChI=InChI=1S/C7H19ClSi2/c1-6-10(5,7-2)9(3,4)8/h6-7H2,1-5H3
computed SMILES=Cl[Si](C)(C)[Si](C)(CC)CC
accession=JP004797
date=2016.01.19 (Created 2008.10.21, modified 2011.05.06)
author=MASS SPECTROSCOPY SOC. OF JAPAN (MSSJ)
license=CC BY-NC-SA
exact mass=194.07138
ionization energy=70 eV
ion type=[M]+*
computed spectral entropy=2.771673414703289
computed normalized entropy=0.741551206437625
SPLASH=splash10-0uk9-9800000000-fb2e245280c8e76be787
submitter=submitter = University of Tokyo Team (Faculty of Engineering, University of Tokyo)
MoNA Rating=3.75

>  <NUM PEAKS>  (4077) 
42

>  <MASS SPECTRAL PEAKS>  (4077) 
43 6.22
44 2.26
45 13.89
55 1.53
57 1.59
58 2.54
59 19.42
60 1.52
61 1.76
63 1.64
65 2.22
71 3.68
72 7.7
73 99.99
74 9.16
75 5.24
79 2.28
85 1.83
87 7.92
89 1.56
93 4.7
95 1.59
100 32.61
101 79.93
102 10.26
103 5.28
119 2.53
123 3.33
125 1.23
131 3.21
137 16.8
138 2.3
139 6.61
147 3.78
151 5.19
153 2.13
159 4.5
165 3.99
167 1.53
179 1.63
194 4.02
196 1.63

>  <PREDICTED SPECTRUM>  (4077) 
27 24
28 18
29 64
31 90
39 53
42 63
43 216
44 201
45 202
46 33
47 26
50 0
51 112
52 19
53 42
54 18
55 3
56 73
57 191
58 206
59 562
60 167
61 119
63 126
64 4
65 130
66 67
67 37
68 7
69 37
70 11
71 131
72 294
73 999
74 346
75 248
76 35
77 175
78 162
79 77
80 17
81 24
85 55
86 118
87 326
88 95
89 81
93 343
94 28
95 145
96 29
97 4
99 88
100 461
101 456
102 252
103 193
104 67
107 77
109 108
111 25
115 4
121 71
123 127
125 25
136 0
137 337
138 94
139 208
140 3
141 61
151 117
153 7
160 24
165 287
166 15
167 116
179 92
180 0
181 54
193 46
194 83
195 25
196 41

$$$$

     RDKit          2D

 11 10  0  0  0  0  0  0  0  0999 V2000
    2.0490    4.0981    0.0000 C   0  0  0  0  0  0  0  0  0  0  0  0
    2.0490    1.0981    0.0000 C   0  0  0  0  0  0  0  0  0  0  0  0
   -1.5000    2.0490    0.0000 C   0  0  0  0  0  0  0  0  0  0  0  0
   -0.9510    0.0000    0.0000 C   0  0  0  0  0  0  0  0  0  0  0  0
    0.8095    4.0753    0.0000 C   0  0  0  0  0  0  0  0  0  0  0  0
   -0.8605    3.1111    0.0000 C   0  0  0  0  0  0  0  0  0  0  0  0
    3.5490    2.5981    0.0000 Cl  0  0  0  0  0  0  0  0  0  0  0  0
    1.0981    0.5490    0.0000 Cl  0  0  0  0  0  0  0  0  0  0  0  0
    2.0490    2.5981    0.0000 Si  0  0  0  0  0  4  0  0  0  0  0  0
   -0.2010    1.2990    0.0000 Si  0  0  0  0  0  4  0  0  0  0  0  0
    0.5490    2.5981    0.0000 Si  0  0  0  0  0  4  0  0  0  0  0  0
  9  1  1  0
  9  2  1  0
  9  7  1  0
 10  3  1  0
 10  4  1  0
 10  8  1  0
 11  5  1  0
 11  6  1  0
 11  9  1  0
 11 10  1  0
M  END
>  <NAME>  (4078) 
1,3-DICHLORO-1,1,2,2,3,3-HEXAMETHYLTRISILANE

>  <SYNONYMS>  (4078) 


>  <SPECTRUM TYPE>  (4078) 
MS1

>  <INSTRUMENT TYPE>  (4078) 
EI-B

>  <INSTRUMENT>  (4078) 
JEOL JMS-D-3000

>  <ION MODE>  (4078) 
P

>  <INCHIKEY>  (4078) 
VXZHPKCBWCBOAU-UHFFFAOYSA-N

>  <FORMULA>  (4078) 
C6H18Cl2Si3

>  <EXACT MASS>  (4078) 
244.00933552599997

>  <MW>  (4078) 
244

>  <ID>  (4078) 
JP004794

>  <CONTRIBUTOR>  (4078) 
University of Tokyo Team, {Faculty of Engineering, University of Tokyo

>  <COMMENT>  (4078) 
SMILES=C[Si](C)(Cl)[Si](C)(C)[Si](C)(C)Cl
InChI=InChI=1S/C6H18Cl2Si3/c1-9(2,7)11(5,6)10(3,4)8/h1-6H3
computed SMILES=Cl[Si](C)(C)[Si](C)(C)[Si](Cl)(C)C
accession=JP004794
date=2016.01.19 (Created 2008.10.21, modified 2011.05.06)
author=MASS SPECTROSCOPY SOC. OF JAPAN (MSSJ)
license=CC BY-NC-SA
exact mass=244.00934
ionization energy=70 eV
ion type=[M]+*
computed spectral entropy=2.689669465908847
computed normalized entropy=0.7196113462655789
SPLASH=splash10-0fk9-9710000000-746fdbca9036f9a0f1fe
submitter=submitter = University of Tokyo Team (Faculty of Engineering, University of Tokyo)
MoNA Rating=3.75

>  <NUM PEAKS>  (4078) 
42

>  <MASS SPECTRAL PEAKS>  (4078) 
43 7.49
44 1.21
45 7.61
55 1.39
58 2.08
59 3.92
63 2.06
65 3.56
67 1.14
73 99.99
74 8.66
75 4.21
85 1.27
93 8.12
95 2.93
101 2.32
116 32.16
117 5.51
118 2.49
119 1.11
121 1
131 9.03
132 1.48
133 1.48
135 2.29
137 1
147 1.76
151 39.39
152 6.05
153 15.52
154 2.21
155 1
191 5.21
205 2.83
209 2.84
211 1.44
221 6.97
222 1.67
229 1.36
231 1.03
244 0.69
246 0.52

>  <PREDICTED SPECTRUM>  (4078) 
31 31
39 31
43 144
44 98
45 247
46 18
47 7
51 12
55 1
56 16
57 64
58 137
59 385
60 22
63 125
65 203
66 79
71 27
72 182
73 999
74 299
75 132
77 34
78 73
79 64
80 47
81 54
85 85
88 24
92 68
93 613
94 92
95 178
96 30
97 21
98 5
99 41
100 92
101 153
102 47
103 36
107 13
108 9
109 175
113 72
114 101
115 99
116 437
117 231
118 190
119 81
120 26
121 127
123 9
125 21
129 37
131 166
132 63
135 106
136 111
137 142
149 7
151 663
152 366
153 441
154 136
155 96
201 2
209 49
229 120
230 42
231 47
244 120
245 51
246 43
247 4

$$$$

     RDKit          2D

  8  8  0  0  0  0  0  0  0  0999 V2000
   -1.3000    0.7500    0.0000 C   0  0  0  0  0  0  0  0  0  0  0  0
   -0.0000   -1.5000    0.0000 C   0  0  0  0  0  0  0  0  0  0  0  0
    0.0000    1.5000    0.0000 C   0  0  0  0  0  0  0  0  0  0  0  0
    1.3000   -0.7500    0.0000 C   0  0  0  0  0  0  0  0  0  0  0  0
   -1.3000   -0.7500    0.0000 C   0  0  0  0  0  0  0  0  0  0  0  0
    1.3000    0.7500    0.0000 C   0  0  0  0  0  0  0  0  0  0  0  0
   -2.5989   -1.5002    0.0000 Br  0  0  0  0  0  0  0  0  0  0  0  0
    2.5989    1.5002    0.0000 O   0  0  0  0  0  0  0  0  0  0  0  0
  3  1  2  0
  4  2  1  0
  5  1  1  0
  5  2  2  0
  6  3  1  0
  6  4  2  0
  7  5  1  0
  8  6  1  0
M  END
>  <NAME>  (4079) 
4-BROMOPHENOL

>  <SYNONYMS>  (4079) 


>  <SPECTRUM TYPE>  (4079) 
MS1

>  <INSTRUMENT TYPE>  (4079) 
EI-B

>  <INSTRUMENT>  (4079) 
JEOL JMS-D-3000

>  <ION MODE>  (4079) 
P

>  <INCHIKEY>  (4079) 
GZFGOTFRPZRKDS-UHFFFAOYSA-N

>  <FORMULA>  (4079) 
C6H5BrO

>  <EXACT MASS>  (4079) 
171.95237688

>  <MW>  (4079) 
172

>  <ID>  (4079) 
JP004793

>  <CONTRIBUTOR>  (4079) 
University of Tokyo Team, {Faculty of Engineering, University of Tokyo

>  <COMMENT>  (4079) 
SMILES=Oc(c1)ccc(Br)c1
cas=106-41-2
InChI=InChI=1S/C6H5BrO/c7-5-1-3-6(8)4-2-5/h1-4,8H
computed SMILES=BrC1=CC=C(O)C=C1
accession=JP004793
date=2016.01.19 (Created 2008.10.21, modified 2011.05.06)
author=MASS SPECTROSCOPY SOC. OF JAPAN (MSSJ)
license=CC BY-NC-SA
exact mass=171.95238
ionization energy=70 eV
ion type=[M]+*
computed spectral entropy=2.5007403027184654
computed normalized entropy=0.7504762373024275
SPLASH=splash10-00di-6900000000-bd0a78cdcabcc25baaa9
submitter=submitter = University of Tokyo Team (Faculty of Engineering, University of Tokyo)
MoNA Rating=3.75

>  <NUM PEAKS>  (4079) 
28

>  <MASS SPECTRAL PEAKS>  (4079) 
43 1.42
46 6.29
49 1.84
50 6.04
51 2.34
53 5.28
60 1.42
61 5.28
62 8.3
63 17.86
64 10.57
65 55.28
66 3.77
74 2.93
86 6.79
87 6.29
92 3.27
93 34.73
94 2.76
117 2.34
119 3.94
143 9.22
145 9.47
171 6.62
172 99.99
173 12.5
174 97.65
175 6.79

>  <PREDICTED SPECTRUM>  (4079) 
16 13
17 26
18 29
25 60
26 92
27 124
28 43
29 142
31 98
33 1
36 63
37 247
38 325
39 379
40 27
41 171
43 121
44 113
45 157
46 2
47 25
48 40
49 104
50 349
51 117
53 140
54 45
55 75
56 82
57 294
58 13
60 42
61 173
62 259
63 508
64 369
65 506
66 186
67 61
68 42
73 40
74 142
75 220
76 187
81 179
82 85
83 31
84 27
85 18
92 315
93 513
94 146
108 39
116 47
117 129
119 240
126 25
127 21
128 21
141 1
143 195
144 107
145 304
146 80
155 84
156 9
157 95
170 19
171 108
172 999
173 305
174 904
175 239

$$$$

     RDKit          2D

  5  4  0  0  0  0  0  0  0  0999 V2000
   -1.2990    0.7500    0.0000 C   0  0  0  0  0  0  0  0  0  0  0  0
    0.7500    0.2010    0.0000 C   0  0  0  0  0  0  0  0  0  0  0  0
    1.2990    2.2500    0.0000 C   0  0  0  0  0  0  0  0  0  0  0  0
   -0.7500    2.7990    0.0000 Cl  0  0  0  0  0  0  0  0  0  0  0  0
    0.0000    1.5000    0.0000 Ge  0  0  0  0  0  4  0  0  0  0  0  0
  5  1  1  0
  5  2  1  0
  5  3  1  0
  5  4  1  0
M  END
>  <NAME>  (4080) 
CHLOROTRIMETHYLGERMANE

>  <SYNONYMS>  (4080) 


>  <SPECTRUM TYPE>  (4080) 
MS1

>  <INSTRUMENT TYPE>  (4080) 
EI-B

>  <INSTRUMENT>  (4080) 
JEOL JMS-D-3000

>  <ION MODE>  (4080) 
P

>  <INCHIKEY>  (4080) 
ZZBNZZCHSNOXOH-UHFFFAOYSA-N

>  <FORMULA>  (4080) 
C3H9ClGe

>  <EXACT MASS>  (4080) 
153.96045576799997

>  <MW>  (4080) 
154

>  <ID>  (4080) 
JP004791

>  <CONTRIBUTOR>  (4080) 
University of Tokyo Team, {Faculty of Engineering, University of Tokyo

>  <COMMENT>  (4080) 
SMILES=C[Ge](C)(C)Cl
cas=1529-47-1
InChI=InChI=1S/C3H9ClGe/c1-5(2,3)4/h1-3H3
computed SMILES=Cl[Ge](C)(C)C
accession=JP004791
date=2016.01.19 (Created 2008.10.21, modified 2011.05.06)
author=MASS SPECTROSCOPY SOC. OF JAPAN (MSSJ)
license=CC BY-NC-SA
exact mass=153.96046
ionization energy=70 eV
ion type=[M]+*
computed spectral entropy=3.169830724920412
computed normalized entropy=0.791007530045577
SPLASH=splash10-000i-1900000000-6781bb2787cfec92ac63
submitter=submitter = University of Tokyo Team (Faculty of Engineering, University of Tokyo)
MoNA Rating=3.75

>  <NUM PEAKS>  (4080) 
55

>  <MASS SPECTRAL PEAKS>  (4080) 
43 2.35
58 1.29
70 2.32
71 2.42
72 2.84
73 3.85
74 3.22
75 4.03
84 1.92
85 8.77
86 3.19
87 15
88 6.75
89 17.03
90 2.19
91 7.64
93 1.17
99 1.82
100 2.83
101 1.85
102 3.77
103 2.76
104 4.75
105 6.42
107 11.07
108 2.38
109 14.93
110 1.05
111 6.85
113 1.15
115 30.61
116 1.8
117 40.63
118 14.77
119 54.4
120 3.58
121 12.17
122 5.1
123 3.35
124 5.94
125 1.64
126 2.41
135 46.83
136 1.56
137 76.29
138 19.65
139 99.99
140 8.49
141 43.49
142 1.07
143 5.54
150 1.49
152 2.18
154 2.97
156 1.23

>  <PREDICTED SPECTRUM>  (4080) 
14 1
26 14
27 34
36 23
39 93
40 5
43 133
44 18
45 56
50 10
51 62
55 40
56 46
57 10
63 95
65 25
67 30
69 55
70 75
71 194
72 16
73 160
74 95
75 107
76 7
77 57
79 69
85 309
87 416
88 291
89 570
90 192
91 271
92 6
95 15
97 1
99 74
100 245
101 296
102 223
103 280
104 200
105 253
106 37
107 302
108 105
109 461
111 191
113 149
114 4
115 566
116 38
117 624
118 300
119 671
120 222
121 240
122 88
123 143
124 89
125 105
126 51
135 658
137 891
138 488
139 999
140 238
141 636
142 98
143 88
150 125
152 149
153 38
154 202
155 19
156 93

$$$$

     RDKit          2D

  5  4  0  0  0  0  0  0  0  0999 V2000
   -1.2990    0.7500    0.0000 C   0  0  0  0  0  0  0  0  0  0  0  0
    0.7500    0.2010    0.0000 C   0  0  0  0  0  0  0  0  0  0  0  0
    1.2990    2.2500    0.0000 Cl  0  0  0  0  0  0  0  0  0  0  0  0
   -0.7500    2.7990    0.0000 Cl  0  0  0  0  0  0  0  0  0  0  0  0
    0.0000    1.5000    0.0000 Ge  0  0  0  0  0  4  0  0  0  0  0  0
  5  1  1  0
  5  2  1  0
  5  3  1  0
  5  4  1  0
M  END
>  <NAME>  (4081) 
DICHLORODIMETHYLGERMANE

>  <SYNONYMS>  (4081) 


>  <SPECTRUM TYPE>  (4081) 
MS1

>  <INSTRUMENT TYPE>  (4081) 
EI-B

>  <INSTRUMENT>  (4081) 
JEOL JMS-D-3000

>  <ION MODE>  (4081) 
P

>  <INCHIKEY>  (4081) 
YQECBLVSMFAWIZ-UHFFFAOYSA-N

>  <FORMULA>  (4081) 
C2H6Cl2Ge

>  <EXACT MASS>  (4081) 
173.905833352

>  <MW>  (4081) 
174

>  <ID>  (4081) 
JP004790

>  <CONTRIBUTOR>  (4081) 
University of Tokyo Team, {Faculty of Engineering, University of Tokyo

>  <COMMENT>  (4081) 
SMILES=C[Ge](C)(Cl)Cl
cas=1529-48-2
InChI=InChI=1S/C2H6Cl2Ge/c1-5(2,3)4/h1-2H3
computed SMILES=Cl[Ge](Cl)(C)C
accession=JP004790
date=2016.01.19 (Created 2008.10.21, modified 2011.05.06)
author=MASS SPECTROSCOPY SOC. OF JAPAN (MSSJ)
license=CC BY-NC-SA
exact mass=173.90583
ionization energy=70 eV
ion type=[M]+*
computed spectral entropy=3.0351929028663056
computed normalized entropy=0.7883315698125996
SPLASH=splash10-0a4i-0900000000-dc360d963018af4a1592
submitter=submitter = University of Tokyo Team (Faculty of Engineering, University of Tokyo)
MoNA Rating=3.75

>  <NUM PEAKS>  (4081) 
47

>  <MASS SPECTRAL PEAKS>  (4081) 
70 1.57
72 2.08
84 1.3
85 3.44
86 2
87 4.93
88 3.14
89 4.97
105 11.63
107 18.93
108 4.53
109 25.24
110 1.56
111 11.41
113 1.62
120 2.01
121 1.36
122 3.36
123 2.44
124 3.7
125 1.05
126 1.46
135 15.06
136 1.02
137 25.65
138 7.34
139 33.45
140 3.45
141 14.91
142 1.1
143 2.04
144 1.16
155 37.77
157 72.86
158 15.37
159 99.99
160 10.56
161 62.24
162 2.26
163 16
165 1.45
170 4.24
172 8.09
173 1.77
174 11.38
175 1.24
176 6.98

>  <PREDICTED SPECTRUM>  (4081) 
14 34
26 117
27 17
28 123
35 80
36 62
37 0
38 20
39 112
41 21
42 3
43 138
44 41
45 85
47 12
49 53
50 48
51 210
53 25
55 251
56 180
57 308
58 82
59 185
61 65
62 39
63 242
64 15
65 79
67 0
69 19
71 62
74 64
75 7
76 106
77 54
78 170
79 63
80 22
81 79
82 45
83 40
85 13
87 248
88 100
89 441
90 148
91 199
92 181
93 207
94 175
95 236
96 40
97 157
98 21
99 30
100 246
101 117
108 13
109 37
110 32
111 23
121 181
122 133
123 298
124 193
125 343
127 354
129 341
131 63
133 31
134 21
135 244
136 126
137 403
138 241
139 536
140 287
141 398
142 210
143 158
153 43
155 714
156 45
157 941
158 572
159 999
160 277
161 772
162 143
163 362
170 139
172 109
174 188
175 37
176 154

$$$$

     RDKit          2D

 10 10  0  0  0  0  0  0  0  0999 V2000
    4.0601    2.5380    0.0000 C   0  0  0  0  0  0  0  0  0  0  0  0
    2.4306   -0.6695    0.0000 C   0  0  0  0  0  0  0  0  0  0  0  0
    3.3100    1.2390    0.0000 C   0  0  0  0  0  0  0  0  0  0  0  0
   -0.9000   -1.4800    0.0000 C   0  0  0  0  0  0  0  0  0  0  0  0
    1.8100    1.2390    0.0000 C   0  0  0  0  0  0  0  0  0  0  0  0
    0.6000   -1.4800    0.0000 C   0  0  0  0  0  0  0  0  0  0  0  0
   -1.3600   -0.0600    0.0000 C   0  0  0  0  0  0  0  0  0  0  0  0
    1.0600   -0.0600    0.0000 C   0  0  0  0  0  0  0  0  0  0  0  0
   -2.7865    0.4038    0.0000 O   0  0  0  0  0  0  0  0  0  0  0  0
   -0.1500    0.8200    0.0000 O   0  0  0  0  0  0  0  0  0  0  0  0
  3  1  2  0
  5  3  1  0
  6  4  1  0
  7  4  1  0
  8  2  1  0
  8  5  1  0
  8  6  1  0
  9  7  2  0
 10  7  1  0
 10  8  1  0
M  END
>  <NAME>  (4082) 
4-METHYL-6-HEPTEN-4-OLIDE

>  <SYNONYMS>  (4082) 


>  <SPECTRUM TYPE>  (4082) 
MS1

>  <INSTRUMENT TYPE>  (4082) 
EI-B

>  <INSTRUMENT>  (4082) 
JEOL JMS-D-3000

>  <ION MODE>  (4082) 
P

>  <INCHIKEY>  (4082) 
HSHSOYVJJCKZDP-UHFFFAOYSA-N

>  <FORMULA>  (4082) 
C8H12O2

>  <EXACT MASS>  (4082) 
140.083729624

>  <MW>  (4082) 
140

>  <ID>  (4082) 
JP004789

>  <CONTRIBUTOR>  (4082) 
University of Tokyo Team, {Faculty of Engineering, University of Tokyo

>  <COMMENT>  (4082) 
SMILES=C=CCC(C)(C1)OC(=O)C1
InChI=InChI=1S/C8H12O2/c1-3-5-8(2)6-4-7(9)10-8/h3H,1,4-6H2,2H3
computed SMILES=O=C1OC(C)(CC=C)CC1
accession=JP004789
date=2016.01.19 (Created 2008.10.21, modified 2011.05.06)
author=MASS SPECTROSCOPY SOC. OF JAPAN (MSSJ)
license=CC BY-NC-SA
exact mass=140.08373
ionization energy=70 eV
ion type=[M]+*
computed spectral entropy=1.1873795346765523
computed normalized entropy=0.47783667639098376
SPLASH=splash10-0002-9000000000-49b20d696fe378e75179
submitter=submitter = University of Tokyo Team (Faculty of Engineering, University of Tokyo)
MoNA Rating=3.75

>  <NUM PEAKS>  (4082) 
12

>  <MASS SPECTRAL PEAKS>  (4082) 
55 2.64
57 7.89
67 1.5
69 1.17
71 12.31
79 1.78
81 2.94
85 1.83
99 99.99
100 6.14
125 1.85
140 0.52

>  <PREDICTED SPECTRUM>  (4082) 
28 14
39 73
41 145
42 57
43 124
44 25
51 1
53 89
54 68
55 339
56 56
57 55
65 2
66 67
67 77
68 16
69 143
70 54
71 174
77 42
79 50
81 92
83 21
85 55
95 60
97 65
99 999
100 198
101 14
125 8
140 64

$$$$

     RDKit          2D

 19 21  0  0  0  0  0  0  0  0999 V2000
    0.0000    2.2500    0.0000 C   0  0  0  0  0  0  0  0  0  0  0  0
   -3.8526   -2.3912    0.0000 C   0  0  0  0  0  0  0  0  0  0  0  0
   -9.8284   -3.2811    0.0000 C   0  0  0  0  0  0  0  0  0  0  0  0
   -9.8284   -1.7811    0.0000 C   0  0  0  0  0  0  0  0  0  0  0  0
   -8.5294   -4.0311    0.0000 C   0  0  0  0  0  0  0  0  0  0  0  0
   -1.0570   -0.1235    0.0000 C   0  0  0  0  0  0  0  0  0  0  0  0
   -2.5847    1.9785    0.0000 C   0  0  0  0  0  0  0  0  0  0  0  0
   -2.2716   -1.0051    0.0000 C   0  0  0  0  0  0  0  0  0  0  0  0
   -3.7993    1.0970    0.0000 C   0  0  0  0  0  0  0  0  0  0  0  0
   -8.5294   -1.0311    0.0000 C   0  0  0  0  0  0  0  0  0  0  0  0
   -7.2303   -3.2811    0.0000 C   0  0  0  0  0  0  0  0  0  0  0  0
   -5.6063    0.0225    0.0000 C   0  0  0  0  0  0  0  0  0  0  0  0
   -5.8600   -2.3912    0.0000 C   0  0  0  0  0  0  0  0  0  0  0  0
   -1.2135    1.3683    0.0000 C   0  0  0  0  0  0  0  0  0  0  0  0
   -3.6428   -0.3948    0.0000 C   0  0  0  0  0  0  0  0  0  0  0  0
   -7.0735   -0.2894    0.0000 C   0  0  0  0  0  0  0  0  0  0  0  0
   -4.8563   -1.2765    0.0000 C   0  0  0  0  0  0  0  0  0  0  0  0
   -7.2303   -1.7811    0.0000 C   0  0  0  0  0  0  0  0  0  0  0  0
   -8.1882    0.7143    0.0000 O   0  0  0  0  0  0  0  0  0  0  0  0
  4  3  1  0
  5  3  1  0
  8  6  2  0
  9  7  1  0
 10  4  1  0
 11  5  1  0
 14  1  1  0
 14  6  1  0
 14  7  2  0
 15  8  1  0
 15  9  2  0
 16 12  1  0
 17  2  1  0
 17 12  1  0
 17 13  1  0
 17 15  1  0
 18 10  1  0
 18 11  1  0
 18 13  1  0
 18 16  1  0
 19 16  2  0
M  END
>  <NAME>  (4083) 
3-METHYL-3-PARA-TOLYLSPIRO(4,5)DECAN-1-ONE

>  <SYNONYMS>  (4083) 


>  <SPECTRUM TYPE>  (4083) 
MS1

>  <INSTRUMENT TYPE>  (4083) 
EI-B

>  <INSTRUMENT>  (4083) 
JEOL JMS-D-3000

>  <ION MODE>  (4083) 
P

>  <INCHIKEY>  (4083) 
CRGRICRBYBKJMS-UHFFFAOYSA-N

>  <FORMULA>  (4083) 
C18H24O

>  <EXACT MASS>  (4083) 
256.18271538799996

>  <MW>  (4083) 
256

>  <ID>  (4083) 
JP004788

>  <CONTRIBUTOR>  (4083) 
University of Tokyo Team, {Faculty of Engineering, University of Tokyo

>  <COMMENT>  (4083) 
SMILES=Cc(c3)ccc(c3)C(C)(C1)CC(C2)(CCCC2)C(=O)1
InChI=InChI=1S/C18H24O/c1-14-6-8-15(9-7-14)17(2)12-16(19)18(13-17)10-4-3-5-11-18/h6-9H,3-5,10-13H2,1-2H3
computed SMILES=O=C1CC(C2=CC=C(C=C2)C)(C)CC13CCCCC3
accession=JP004788
date=2016.01.19 (Created 2008.10.21, modified 2011.05.06)
author=MASS SPECTROSCOPY SOC. OF JAPAN (MSSJ)
license=CC BY-NC-SA
exact mass=256.18272
ionization energy=70 eV
ion type=[M]+*
computed spectral entropy=3.2272884989513586
computed normalized entropy=0.8478000105404884
SPLASH=splash10-053r-1950000000-d6c286b042f4e186b977
submitter=submitter = University of Tokyo Team (Faculty of Engineering, University of Tokyo)
MoNA Rating=3.75

>  <NUM PEAKS>  (4083) 
45

>  <MASS SPECTRAL PEAKS>  (4083) 
54 2.8
55 4.51
67 5.13
77 3.77
79 3.87
81 9.32
82 3.46
91 11.29
92 4.61
93 4.4
95 7.59
96 3.34
105 12.39
115 8.32
116 4.17
117 18.45
118 2.91
119 23.85
120 2.73
123 3.93
124 5.01
128 2.93
129 3.07
131 9.35
132 99.99
133 19.07
143 4.64
145 8.19
157 6.25
159 17.26
160 3.64
161 5.89
171 3.13
173 2.77
175 9.78
188 10.83
199 4.07
201 47.49
202 7.85
213 12.26
214 8.36
215 10.94
241 13.25
256 64.07
257 12.87

>  <PREDICTED SPECTRUM>  (4083) 
39 153
40 22
41 355
42 19
43 33
51 43
53 151
54 36
55 230
56 22
63 46
65 152
67 192
77 205
78 103
79 204
80 28
81 121
82 54
89 40
91 417
92 103
93 118
94 19
95 129
96 74
102 56
103 97
104 109
105 420
106 154
107 62
108 57
115 341
116 147
117 347
118 219
119 610
120 261
121 36
122 16
123 79
124 120
127 32
128 204
129 182
130 24
131 379
132 999
133 596
136 43
139 3
143 87
144 57
145 359
146 191
147 137
157 74
158 38
159 259
160 342
161 99
171 70
172 16
173 322
174 107
175 264
187 78
188 349
189 58
199 106
200 88
201 630
202 193
213 432
214 317
215 420
216 123
227 64
239 34
241 287
242 117
255 46
256 921
257 420
258 80

$$$$

     RDKit          2D

 19 21  0  0  0  0  0  0  0  0999 V2000
   -5.3224   -2.9391    0.0000 C   0  0  0  0  0  0  0  0  0  0  0  0
   -2.0942    1.5277    0.0000 C   0  0  0  0  0  0  0  0  0  0  0  0
    0.4896   -2.9641    0.0000 C   0  0  0  0  0  0  0  0  0  0  0  0
   -0.8094   -2.2141    0.0000 C   0  0  0  0  0  0  0  0  0  0  0  0
    1.7887   -2.2141    0.0000 C   0  0  0  0  0  0  0  0  0  0  0  0
   -4.4335   -0.4977    0.0000 C   0  0  0  0  0  0  0  0  0  0  0  0
   -2.7629   -2.4880    0.0000 C   0  0  0  0  0  0  0  0  0  0  0  0
   -3.2834    0.4665    0.0000 C   0  0  0  0  0  0  0  0  0  0  0  0
   -1.6127   -1.5239    0.0000 C   0  0  0  0  0  0  0  0  0  0  0  0
    1.2396    2.3442    0.0000 C   0  0  0  0  0  0  0  0  0  0  0  0
   -0.8094   -0.7141    0.0000 C   0  0  0  0  0  0  0  0  0  0  0  0
    1.7887   -0.7141    0.0000 C   0  0  0  0  0  0  0  0  0  0  0  0
   -0.2604    2.3442    0.0000 C   0  0  0  0  0  0  0  0  0  0  0  0
   -4.1733   -1.9749    0.0000 C   0  0  0  0  0  0  0  0  0  0  0  0
   -1.8730   -0.0466    0.0000 C   0  0  0  0  0  0  0  0  0  0  0  0
    1.7031    0.9176    0.0000 C   0  0  0  0  0  0  0  0  0  0  0  0
   -0.7239    0.9176    0.0000 C   0  0  0  0  0  0  0  0  0  0  0  0
    0.4896    0.0359    0.0000 C   0  0  0  0  0  0  0  0  0  0  0  0
    3.1297    0.4540    0.0000 O   0  0  0  0  0  0  0  0  0  0  0  0
  4  3  1  0
  5  3  1  0
  8  6  2  0
  9  7  1  0
 11  4  1  0
 12  5  1  0
 13 10  1  0
 14  1  1  0
 14  6  1  0
 14  7  2  0
 15  8  1  0
 15  9  2  0
 16 10  1  0
 17  2  1  0
 17 13  1  0
 17 15  1  0
 18 11  1  0
 18 12  1  0
 18 16  1  0
 18 17  1  0
 19 16  2  0
M  END
>  <NAME>  (4084) 
4-METHYL-4-PARA-TOLYLSPIRO(4,5)DECAN-1-ONE

>  <SYNONYMS>  (4084) 


>  <SPECTRUM TYPE>  (4084) 
MS1

>  <INSTRUMENT TYPE>  (4084) 
EI-B

>  <INSTRUMENT>  (4084) 
JEOL JMS-D-3000

>  <ION MODE>  (4084) 
P

>  <INCHIKEY>  (4084) 
QBXOFBXUZLPVDH-UHFFFAOYSA-N

>  <FORMULA>  (4084) 
C18H24O

>  <EXACT MASS>  (4084) 
256.182715388

>  <MW>  (4084) 
256

>  <ID>  (4084) 
JP004787

>  <CONTRIBUTOR>  (4084) 
University of Tokyo Team, {Faculty of Engineering, University of Tokyo

>  <COMMENT>  (4084) 
SMILES=Cc(c3)ccc(c3)C(C)(C1)C(C2)(CCCC2)C(=O)C1
InChI=InChI=1S/C18H24O/c1-14-6-8-15(9-7-14)17(2)13-10-16(19)18(17)11-4-3-5-12-18/h6-9H,3-5,10-13H2,1-2H3
computed SMILES=O=C1CCC(C2=CC=C(C=C2)C)(C)C13CCCCC3
accession=JP004787
date=2016.01.19 (Created 2008.10.21, modified 2011.05.06)
author=MASS SPECTROSCOPY SOC. OF JAPAN (MSSJ)
license=CC BY-NC-SA
exact mass=256.18272
ionization energy=70 eV
ion type=[M]+*
computed spectral entropy=3.046146645470783
computed normalized entropy=0.8098868849760938
SPLASH=splash10-001i-6920000000-6360669ff611e21c076e
submitter=submitter = University of Tokyo Team (Faculty of Engineering, University of Tokyo)
MoNA Rating=3.75

>  <NUM PEAKS>  (4084) 
43

>  <MASS SPECTRAL PEAKS>  (4084) 
29 3.16
32 92.33
40 6.42
41 5.48
43 8.52
44 3.55
53 2.47
55 6.4
67 7.28
77 3.74
79 5.15
80 6.03
81 14.53
82 2.98
83 23.3
91 9.47
92 2.93
95 3.74
105 8.57
109 4.91
110 3.21
111 8.5
115 5.65
116 2.8
117 8.83
119 8.65
124 47.38
125 5.24
128 4.21
129 4.46
130 2.75
131 10.51
132 99.99
133 18.47
137 2.51
143 4.24
145 20.16
146 4.61
160 7.58
173 3.43
241 3.58
256 53.11
257 10.73

>  <PREDICTED SPECTRUM>  (4084) 
27 2
29 4
39 146
40 4
41 399
42 64
43 159
44 24
51 83
52 13
53 191
54 49
55 331
56 39
57 41
63 48
64 23
65 178
67 262
68 0
69 47
77 211
78 105
79 170
80 35
81 273
82 109
83 319
84 44
91 355
92 79
93 56
94 0
95 135
96 108
97 70
102 79
103 75
104 120
105 321
106 128
107 13
108 51
109 220
110 105
111 21
115 310
116 89
117 303
118 116
119 230
120 82
122 61
123 201
124 325
125 191
127 43
128 175
129 205
130 90
131 255
132 999
133 309
137 168
138 49
139 36
143 136
144 127
145 358
146 274
147 22
154 6
160 11
171 5
172 21
173 170
174 7
198 30
213 157
214 109
241 115
256 629
257 249
258 46

$$$$

     RDKit          2D

 18 20  0  0  0  0  0  0  0  0999 V2000
  -13.9799    7.9949    0.0000 C   0  0  0  0  0  0  0  0  0  0  0  0
   -6.7200    5.1500    0.0000 C   0  0  0  0  0  0  0  0  0  0  0  0
   -7.6000    3.9300    0.0000 C   0  0  0  0  0  0  0  0  0  0  0  0
  -16.4065    2.9654    0.0000 C   0  0  0  0  0  0  0  0  0  0  0  0
   -7.6000    6.3600    0.0000 C   0  0  0  0  0  0  0  0  0  0  0  0
  -16.5645    4.4579    0.0000 C   0  0  0  0  0  0  0  0  0  0  0  0
  -15.0353    2.3551    0.0000 C   0  0  0  0  0  0  0  0  0  0  0  0
   -9.0300    4.4000    0.0000 C   0  0  0  0  0  0  0  0  0  0  0  0
   -9.0300    5.9000    0.0000 C   0  0  0  0  0  0  0  0  0  0  0  0
  -15.3513    5.3401    0.0000 C   0  0  0  0  0  0  0  0  0  0  0  0
  -13.8222    3.2373    0.0000 C   0  0  0  0  0  0  0  0  0  0  0  0
  -10.4600    3.9300    0.0000 C   0  0  0  0  0  0  0  0  0  0  0  0
  -11.3392    7.5753    0.0000 C   0  0  0  0  0  0  0  0  0  0  0  0
  -12.7668    7.1127    0.0000 C   0  0  0  0  0  0  0  0  0  0  0  0
  -10.4600    6.3600    0.0000 C   0  0  0  0  0  0  0  0  0  0  0  0
  -13.9802    4.7298    0.0000 C   0  0  0  0  0  0  0  0  0  0  0  0
  -11.3400    5.1500    0.0000 C   0  0  0  0  0  0  0  0  0  0  0  0
  -12.7670    5.6120    0.0000 N   0  0  0  0  0  0  0  0  0  0  0  0
  3  2  1  0
  5  2  1  0
  6  4  1  0
  7  4  1  0
  8  3  1  0
  9  5  1  0
 10  6  1  0
 11  7  1  0
 12  8  1  0
 14  1  1  0
 14 13  2  0
 15  9  1  0
 15 13  1  0
 16 10  1  0
 16 11  1  0
 17 12  1  0
 17 15  2  0
 18 14  1  0
 18 16  1  0
 18 17  1  0
M  END
>  <NAME>  (4085) 
1-CYCLOHEXYL-2-METHYL-4,5,6,7,8,9-HEXAHYDROCYCLOOCTA(B)PYRROLE

>  <SYNONYMS>  (4085) 


>  <SPECTRUM TYPE>  (4085) 
MS1

>  <INSTRUMENT TYPE>  (4085) 
EI-B

>  <INSTRUMENT>  (4085) 
JEOL JMS-D-3000

>  <ION MODE>  (4085) 
P

>  <INCHIKEY>  (4085) 
PVLINPQETXKYJN-UHFFFAOYSA-N

>  <FORMULA>  (4085) 
C17H27N

>  <EXACT MASS>  (4085) 
245.21434986399998

>  <MW>  (4085) 
245

>  <ID>  (4085) 
JP004786

>  <CONTRIBUTOR>  (4085) 
University of Tokyo Team, {Faculty of Engineering, University of Tokyo

>  <COMMENT>  (4085) 
SMILES=C(C3)CCc(c([H])1)c(CC3)n(C(C2)CCCC2)c(C)1
InChI=InChI=1S/C17H27N/c1-14-13-15-9-5-2-3-8-12-17(15)18(14)16-10-6-4-7-11-16/h13,16H,2-12H2,1H3
computed SMILES=C=1C2=C(N(C1C)C3CCCCC3)CCCCCC2
accession=JP004786
date=2016.01.19 (Created 2008.10.21, modified 2011.05.06)
author=MASS SPECTROSCOPY SOC. OF JAPAN (MSSJ)
license=CC BY-NC-SA
exact mass=245.21435
ionization energy=70 eV
ion type=[M]+*
computed spectral entropy=3.7278914445599103
computed normalized entropy=0.9180996839205097
SPLASH=splash10-0ldm-4970000000-40008f56db2ef9ac9dcc
submitter=submitter = University of Tokyo Team (Faculty of Engineering, University of Tokyo)
MoNA Rating=3.75

>  <NUM PEAKS>  (4085) 
58

>  <MASS SPECTRAL PEAKS>  (4085) 
41 41.47
42 10.23
53 8.43
55 39.06
65 8.33
66 5.57
67 8.21
77 10.59
79 11.84
81 8.04
83 10.34
91 9.33
93 8.61
94 29.49
95 10.13
96 6.56
106 9.21
107 40.72
108 40.92
109 8.94
117 6.52
118 7.06
120 44.76
121 29.39
122 12.56
131 5.8
132 25.07
133 11.31
134 29.53
135 10.29
144 5.65
146 16.58
148 11.06
160 11.14
161 6.86
162 24.72
163 19.43
164 12.01
174 5.37
176 19.88
177 17.22
188 6.35
189 21.05
190 33.34
191 11.61
202 66.83
203 13.53
214 6.7
216 54.85
217 76.68
218 12.71
228 7.18
230 11.05
242 5.4
243 28.51
244 18.76
245 99.99
246 19.31

>  <PREDICTED SPECTRUM>  (4085) 
26 19
27 121
28 11
29 173
30 15
36 20
39 184
40 78
41 482
42 125
43 158
44 22
51 130
52 95
53 234
54 187
55 569
56 69
57 32
63 32
64 71
65 162
66 103
67 216
68 39
69 68
75 45
77 254
78 131
79 289
80 198
81 263
82 82
83 190
89 36
90 102
91 307
92 209
93 296
94 209
95 287
96 51
102 4
103 43
104 32
105 66
106 432
107 464
108 512
109 287
110 8
115 51
116 50
117 68
118 254
119 110
120 473
121 466
122 239
128 19
129 28
130 83
131 89
132 213
133 213
134 645
135 465
136 127
142 40
144 91
146 251
147 83
148 344
149 195
150 16
154 25
159 55
160 269
161 235
162 541
163 455
164 275
165 15
174 176
175 90
176 282
177 171
186 41
188 198
189 247
190 494
191 352
202 382
203 212
204 180
205 16
214 142
216 703
217 541
218 200
219 35
228 61
229 27
230 311
231 170
242 142
243 361
244 480
245 999
246 419
247 66

$$$$

     RDKit          2D

 17 19  0  0  0  0  0  0  0  0999 V2000
    4.3800   -0.0000    0.0000 C   0  0  0  0  0  0  0  0  0  0  0  0
   -2.7100   -0.0000    0.0000 C   0  0  0  0  0  0  0  0  0  0  0  0
    3.3958   -5.4880    0.0000 C   0  0  0  0  0  0  0  0  0  0  0  0
   -2.0600    1.3500    0.0000 C   0  0  0  0  0  0  0  0  0  0  0  0
    1.9273   -5.1783    0.0000 C   0  0  0  0  0  0  0  0  0  0  0  0
    4.3991   -4.3718    0.0000 C   0  0  0  0  0  0  0  0  0  0  0  0
   -2.0600   -1.3500    0.0000 C   0  0  0  0  0  0  0  0  0  0  0  0
   -0.6000    1.6900    0.0000 C   0  0  0  0  0  0  0  0  0  0  0  0
    1.4620   -3.7523    0.0000 C   0  0  0  0  0  0  0  0  0  0  0  0
    3.9338   -2.9458    0.0000 C   0  0  0  0  0  0  0  0  0  0  0  0
   -0.6000   -1.6900    0.0000 C   0  0  0  0  0  0  0  0  0  0  0  0
    2.0000    1.2100    0.0000 C   0  0  0  0  0  0  0  0  0  0  0  0
    2.8800   -0.0000    0.0000 C   0  0  0  0  0  0  0  0  0  0  0  0
    0.5700    0.7500    0.0000 C   0  0  0  0  0  0  0  0  0  0  0  0
    2.4653   -2.6360    0.0000 C   0  0  0  0  0  0  0  0  0  0  0  0
    0.5700   -0.7500    0.0000 C   0  0  0  0  0  0  0  0  0  0  0  0
    2.0000   -1.2100    0.0000 N   0  0  0  0  0  0  0  0  0  0  0  0
  4  2  1  0
  5  3  1  0
  6  3  1  0
  7  2  1  0
  8  4  1  0
  9  5  1  0
 10  6  1  0
 11  7  1  0
 13  1  1  0
 13 12  2  0
 14  8  1  0
 14 12  1  0
 15  9  1  0
 15 10  1  0
 16 11  1  0
 16 14  2  0
 17 13  1  0
 17 15  1  0
 17 16  1  0
M  END
>  <NAME>  (4086) 
1-CYCLOHEXYL-2-METHYL-1,4,5,6,7,8-HEXAHYDRO-1-AZAAZULENE

>  <SYNONYMS>  (4086) 


>  <SPECTRUM TYPE>  (4086) 
MS1

>  <INSTRUMENT TYPE>  (4086) 
EI-B

>  <INSTRUMENT>  (4086) 
JEOL JMS-D-3000

>  <ION MODE>  (4086) 
P

>  <INCHIKEY>  (4086) 
ZBJSOGJLJZYIHY-UHFFFAOYSA-N

>  <FORMULA>  (4086) 
C16H25N

>  <EXACT MASS>  (4086) 
231.19869979999999

>  <MW>  (4086) 
231

>  <ID>  (4086) 
JP004785

>  <CONTRIBUTOR>  (4086) 
University of Tokyo Team, {Faculty of Engineering, University of Tokyo

>  <COMMENT>  (4086) 
SMILES=C(C3)CCC(C3)n(c(C)1)c(C2)c(CCCC2)c([H])1
InChI=InChI=1S/C16H25N/c1-13-12-14-8-4-2-7-11-16(14)17(13)15-9-5-3-6-10-15/h12,15H,2-11H2,1H3
computed SMILES=C=1C2=C(N(C1C)C3CCCCC3)CCCCC2
accession=JP004785
date=2016.01.19 (Created 2008.10.21, modified 2011.05.06)
author=MASS SPECTROSCOPY SOC. OF JAPAN (MSSJ)
license=CC BY-NC-SA
exact mass=231.1987
ionization energy=70 eV
ion type=[M]+*
computed spectral entropy=3.105969918301689
computed normalized entropy=0.9131989619443404
SPLASH=splash10-053s-4960000000-73f728064cfa5e826609
submitter=submitter = University of Tokyo Team (Faculty of Engineering, University of Tokyo)
MoNA Rating=3.75

>  <NUM PEAKS>  (4086) 
30

>  <MASS SPECTRAL PEAKS>  (4086) 
41 27.68
42 6.37
55 25.01
77 7.53
79 8.74
91 5.75
93 7.4
94 15.12
95 14.43
107 22.53
108 27.51
120 31.66
121 16.79
132 8.9
134 14.09
146 9.06
147 5.9
148 48.45
149 32.68
150 17.86
176 8.33
177 9.35
190 8.5
202 21.61
203 12.95
216 13.51
229 8.77
230 16.66
231 99.99
232 18.12

>  <PREDICTED SPECTRUM>  (4086) 
26 24
27 135
28 39
29 181
30 26
36 3
39 166
40 68
41 453
42 64
43 96
51 141
52 102
53 223
54 179
55 538
56 63
57 38
62 6
63 34
64 67
65 164
66 92
67 232
68 60
69 0
75 21
77 270
78 148
79 317
80 223
81 252
82 40
83 183
89 35
90 98
91 280
92 211
93 309
94 327
95 292
96 87
101 4
103 19
104 67
105 56
106 431
107 507
108 518
109 185
115 20
116 45
117 84
118 113
119 200
120 612
121 489
122 126
128 56
130 108
131 4
132 238
133 106
134 359
135 207
136 26
145 51
146 265
147 230
148 597
149 666
150 330
151 45
156 63
158 43
159 21
160 157
161 77
162 272
163 151
171 0
172 47
174 218
175 251
176 533
177 354
188 371
189 214
190 168
200 75
202 738
203 568
204 196
205 44
214 114
215 21
216 393
217 187
228 155
229 336
230 495
231 999
232 413
233 54

$$$$

     RDKit          2D

 18 18  0  0  0  0  0  0  0  0999 V2000
  -11.0027   -2.6476    0.0000 C   0  0  0  0  0  0  0  0  0  0  0  0
   -2.0876   -3.8871    0.0000 C   0  0  0  0  0  0  0  0  0  0  0  0
   -1.1234   -5.5572    0.0000 C   0  0  0  0  0  0  0  0  0  0  0  0
    1.6529   -0.7485    0.0000 C   0  0  0  0  0  0  0  0  0  0  0  0
   -0.2755   -0.7485    0.0000 C   0  0  0  0  0  0  0  0  0  0  0  0
   -9.7036   -1.8976    0.0000 C   0  0  0  0  0  0  0  0  0  0  0  0
   -8.4046   -2.6476    0.0000 C   0  0  0  0  0  0  0  0  0  0  0  0
   -7.1055   -1.8976    0.0000 C   0  0  0  0  0  0  0  0  0  0  0  0
   -5.8065   -2.6476    0.0000 C   0  0  0  0  0  0  0  0  0  0  0  0
   -4.5075   -1.8976    0.0000 C   0  0  0  0  0  0  0  0  0  0  0  0
   -3.2084   -2.6476    0.0000 C   0  0  0  0  0  0  0  0  0  0  0  0
    1.9877   -4.1476    0.0000 C   0  0  0  0  0  0  0  0  0  0  0  0
   -1.9094   -1.8976    0.0000 C   0  0  0  0  0  0  0  0  0  0  0  0
    0.6887   -4.8976    0.0000 C   0  0  0  0  0  0  0  0  0  0  0  0
    1.9877   -2.6476    0.0000 C   0  0  0  0  0  0  0  0  0  0  0  0
   -0.6103   -2.6476    0.0000 N   0  0  0  0  0  0  0  0  0  0  0  0
   -0.6103   -4.1476    0.0000 Si  0  0  0  0  0  4  0  0  0  0  0  0
    0.6887   -1.8976    0.0000 Si  0  0  0  0  0  4  0  0  0  0  0  0
  6  1  1  0
  7  6  1  0
  8  7  1  0
  9  8  1  0
 10  9  1  0
 11 10  1  0
 13 11  1  0
 14 12  1  0
 15 12  1  0
 16 13  1  0
 17  2  1  0
 17  3  1  0
 17 14  1  0
 17 16  1  0
 18  4  1  0
 18  5  1  0
 18 15  1  0
 18 16  1  0
M  END
>  <NAME>  (4087) 
1-OCTYL-2,2,6,6-TETRAMETHYL-2,6-DISILAPIPERIDINE

>  <SYNONYMS>  (4087) 


>  <SPECTRUM TYPE>  (4087) 
MS1

>  <INSTRUMENT TYPE>  (4087) 
EI-B

>  <INSTRUMENT>  (4087) 
JEOL JMS-D-3000

>  <ION MODE>  (4087) 
P

>  <INCHIKEY>  (4087) 
AFMAQORKHHJCAG-UHFFFAOYSA-N

>  <FORMULA>  (4087) 
C15H35NSi2

>  <EXACT MASS>  (4087) 
285.23080318

>  <MW>  (4087) 
285

>  <ID>  (4087) 
JP004784

>  <CONTRIBUTOR>  (4087) 
University of Tokyo Team, {Faculty of Engineering, University of Tokyo

>  <COMMENT>  (4087) 
SMILES=CCCCCCCCN([Si](C)(C)1)[Si](C)(C)CCC1
InChI=InChI=1S/C15H35NSi2/c1-6-7-8-9-10-11-13-16-17(2,3)14-12-15-18(16,4)5/h6-15H2,1-5H3
computed SMILES=N1(CCCCCCCC)[Si](C)(C)CCC[Si]1(C)C
accession=JP004784
date=2016.01.19 (Created 2008.10.21, modified 2011.05.06)
author=MASS SPECTROSCOPY SOC. OF JAPAN (MSSJ)
license=CC BY-NC-SA
exact mass=285.2308
ionization energy=70 eV
ion type=[M]+*
computed spectral entropy=1.5604199222723794
computed normalized entropy=0.5299549195324565
SPLASH=splash10-000i-1900000000-02775825fa26b180afd8
submitter=submitter = University of Tokyo Team (Faculty of Engineering, University of Tokyo)
MoNA Rating=3.75

>  <NUM PEAKS>  (4087) 
19

>  <MASS SPECTRAL PEAKS>  (4087) 
44 1.01
59 6.16
73 3.53
85 1.51
86 1.27
88 1.46
99 1.07
117 1.16
144 1.13
158 1.27
184 1.06
186 99.99
187 20.27
188 8.45
189 1.07
270 5.83
271 1.4
284 1.06
285 3.65

>  <PREDICTED SPECTRUM>  (4087) 
41 35
43 29
45 20
58 45
59 280
60 9
67 3
69 9
71 30
73 180
75 13
88 2
128 38
158 53
185 23
186 999
187 377
188 152
270 228
271 79
284 19
285 168
286 22

$$$$

     RDKit          2D

 19 19  0  0  0  0  0  0  0  0999 V2000
  -14.2904   -0.7521    0.0000 C   0  0  0  0  0  0  0  0  0  0  0  0
    2.5989    1.5002    0.0000 C   0  0  0  0  0  0  0  0  0  0  0  0
  -12.9912   -1.5019    0.0000 C   0  0  0  0  0  0  0  0  0  0  0  0
  -11.6923   -0.7517    0.0000 C   0  0  0  0  0  0  0  0  0  0  0  0
  -10.3931   -1.5015    0.0000 C   0  0  0  0  0  0  0  0  0  0  0  0
   -9.0942   -0.7512    0.0000 C   0  0  0  0  0  0  0  0  0  0  0  0
   -7.7951   -1.5010    0.0000 C   0  0  0  0  0  0  0  0  0  0  0  0
   -6.4962   -0.7508    0.0000 C   0  0  0  0  0  0  0  0  0  0  0  0
    0.0000    1.5000    0.0000 C   0  0  0  0  0  0  0  0  0  0  0  0
    1.3000   -0.7500    0.0000 C   0  0  0  0  0  0  0  0  0  0  0  0
   -1.3000    0.7500    0.0000 C   0  0  0  0  0  0  0  0  0  0  0  0
   -0.0000   -1.5000    0.0000 C   0  0  0  0  0  0  0  0  0  0  0  0
   -5.1970   -1.5006    0.0000 C   0  0  0  0  0  0  0  0  0  0  0  0
    1.3000    0.7500    0.0000 C   0  0  0  0  0  0  0  0  0  0  0  0
   -1.3000   -0.7500    0.0000 C   0  0  0  0  0  0  0  0  0  0  0  0
   -3.5629   -2.6494    0.0000 O   0  0  0  0  0  0  0  0  0  0  0  0
   -1.6346   -2.6491    0.0000 O   0  0  0  0  0  0  0  0  0  0  0  0
   -3.8981   -0.7504    0.0000 O   0  0  0  0  0  0  0  0  0  0  0  0
   -2.5989   -1.5002    0.0000 S   0  0  0  0  0  0  0  0  0  0  0  0
  3  1  1  0
  4  3  1  0
  5  4  1  0
  6  5  1  0
  7  6  1  0
  8  7  1  0
 11  9  2  0
 12 10  1  0
 13  8  1  0
 14  2  1  0
 14  9  1  0
 14 10  2  0
 15 11  1  0
 15 12  2  0
 18 13  1  0
 19 15  1  0
 19 16  2  0
 19 17  2  0
 19 18  1  0
M  END
>  <NAME>  (4088) 
OCTYL P-TOLUENESULFONATE

>  <SYNONYMS>  (4088) 
4-METHYLBENZENESULFONIC ACID OCTYL ESTER

>  <SPECTRUM TYPE>  (4088) 
MS1

>  <INSTRUMENT TYPE>  (4088) 
EI-B

>  <INSTRUMENT>  (4088) 
JEOL JMS-D-3000

>  <ION MODE>  (4088) 
P

>  <INCHIKEY>  (4088) 
LYQJBZLAANNIER-UHFFFAOYSA-N

>  <FORMULA>  (4088) 
C15H24O3S

>  <EXACT MASS>  (4088) 
284.144615628

>  <MW>  (4088) 
284

>  <ID>  (4088) 
JP004783

>  <CONTRIBUTOR>  (4088) 
University of Tokyo Team, {Faculty of Engineering, University of Tokyo

>  <COMMENT>  (4088) 
SMILES=CCCCCCCCOS(=O)(=O)c(c1)ccc(C)c1
cas=3386-35-4
InChI=InChI=1S/C15H24O3S/c1-3-4-5-6-7-8-13-18-19(16,17)15-11-9-14(2)10-12-15/h9-12H,3-8,13H2,1-2H3
computed SMILES=O=S(=O)(OCCCCCCCC)C1=CC=C(C=C1)C
accession=JP004783
date=2016.01.19 (Created 2008.10.21, modified 2011.05.06)
author=MASS SPECTROSCOPY SOC. OF JAPAN (MSSJ)
license=CC BY-NC-SA
exact mass=284.14462
ionization energy=70 eV
ion type=[M]+*
computed spectral entropy=2.9446448483451997
computed normalized entropy=0.8836927143437464
SPLASH=splash10-00dl-9400000000-93a513565490bc4670a3
submitter=submitter = University of Tokyo Team (Faculty of Engineering, University of Tokyo)
MoNA Rating=3.75

>  <NUM PEAKS>  (4088) 
28

>  <MASS SPECTRAL PEAKS>  (4088) 
41 34.08
42 15.72
43 22.41
55 38.13
56 45.27
57 20.26
65 15.64
68 6.85
69 39.9
70 50.76
71 8.17
82 7.3
83 32.43
84 67.76
85 5.15
91 63.02
92 10.68
107 4.62
111 4.95
112 61.28
113 5.98
155 29.46
157 4.66
172 38.09
173 99.99
174 10.27
175 5.36
284 0.33

>  <PREDICTED SPECTRUM>  (4088) 
25 3
26 88
27 283
28 147
29 368
30 76
31 113
33 8
36 16
37 1
38 79
39 326
40 139
41 596
42 359
43 560
44 132
49 2
50 147
51 185
52 124
53 170
54 295
55 635
56 680
57 461
58 82
62 102
63 272
64 119
65 443
66 176
67 260
68 273
69 707
70 634
71 229
73 14
74 76
76 40
77 210
78 124
79 145
80 130
81 98
82 306
83 576
84 551
85 224
86 34
89 229
90 237
91 911
92 399
93 126
94 73
95 29
96 70
97 423
98 210
99 85
100 44
107 270
108 138
109 90
111 93
112 528
113 174
114 68
139 27
148 34
154 80
155 681
156 230
157 208
168 2
172 582
173 999
174 283
175 214

$$$$

     RDKit          2D

 17 16  0  0  0  0  0  0  0  0999 V2000
  -11.0418    5.6250    0.0000 C   0  0  0  0  0  0  0  0  0  0  0  0
   -0.1005    3.5760    0.0000 C   0  0  0  0  0  0  0  0  0  0  0  0
    1.9486    4.1250    0.0000 C   0  0  0  0  0  0  0  0  0  0  0  0
    1.3995    6.1740    0.0000 C   0  0  0  0  0  0  0  0  0  0  0  0
    0.8505    7.1250    0.0000 C   0  0  0  0  0  0  0  0  0  0  0  0
   -0.6495    8.6250    0.0000 C   0  0  0  0  0  0  0  0  0  0  0  0
   -2.1495    7.1250    0.0000 C   0  0  0  0  0  0  0  0  0  0  0  0
   -9.7428    4.8750    0.0000 C   0  0  0  0  0  0  0  0  0  0  0  0
   -8.4437    5.6250    0.0000 C   0  0  0  0  0  0  0  0  0  0  0  0
   -7.1447    4.8750    0.0000 C   0  0  0  0  0  0  0  0  0  0  0  0
   -5.8457    5.6250    0.0000 C   0  0  0  0  0  0  0  0  0  0  0  0
   -4.5466    4.8750    0.0000 C   0  0  0  0  0  0  0  0  0  0  0  0
   -3.2476    5.6250    0.0000 C   0  0  0  0  0  0  0  0  0  0  0  0
   -1.9486    4.8750    0.0000 C   0  0  0  0  0  0  0  0  0  0  0  0
   -0.6495    5.6250    0.0000 N   0  0  0  0  0  0  0  0  0  0  0  0
    0.6495    4.8750    0.0000 Si  0  0  0  0  0  4  0  0  0  0  0  0
   -0.6495    7.1250    0.0000 Si  0  0  0  0  0  4  0  0  0  0  0  0
  8  1  1  0
  9  8  1  0
 10  9  1  0
 11 10  1  0
 12 11  1  0
 13 12  1  0
 14 13  1  0
 15 14  1  0
 16  2  1  0
 16  3  1  0
 16  4  1  0
 16 15  1  0
 17  5  1  0
 17  6  1  0
 17  7  1  0
 17 15  1  0
M  END
>  <NAME>  (4089) 
N-OCTYLBIS(TRIMETHYLSILYL)AMINE

>  <SYNONYMS>  (4089) 


>  <SPECTRUM TYPE>  (4089) 
MS1

>  <INSTRUMENT TYPE>  (4089) 
EI-B

>  <INSTRUMENT>  (4089) 
JEOL JMS-D-3000

>  <ION MODE>  (4089) 
P

>  <INCHIKEY>  (4089) 
JQZMOUCEQQEWJG-UHFFFAOYSA-N

>  <FORMULA>  (4089) 
C14H35NSi2

>  <EXACT MASS>  (4089) 
273.23080318

>  <MW>  (4089) 
273

>  <ID>  (4089) 
JP004782

>  <CONTRIBUTOR>  (4089) 
University of Tokyo Team, {Faculty of Engineering, University of Tokyo

>  <COMMENT>  (4089) 
SMILES=CCCCCCCCN([Si](C)(C)C)[Si](C)(C)C
InChI=InChI=1S/C14H35NSi2/c1-8-9-10-11-12-13-14-15(16(2,3)4)17(5,6)7/h8-14H2,1-7H3
computed SMILES=N(CCCCCCCC)([Si](C)(C)C)[Si](C)(C)C
accession=JP004782
date=2016.01.19 (Created 2008.10.21, modified 2011.05.06)
author=MASS SPECTROSCOPY SOC. OF JAPAN (MSSJ)
license=CC BY-NC-SA
exact mass=273.2308
ionization energy=70 eV
ion type=[M]+*
computed spectral entropy=1.9351408310218294
computed normalized entropy=0.6572188606094532
SPLASH=splash10-00di-1920000000-9cfa3943d6db57ea88cd
submitter=submitter = University of Tokyo Team (Faculty of Engineering, University of Tokyo)
MoNA Rating=3.75

>  <NUM PEAKS>  (4089) 
19

>  <MASS SPECTRAL PEAKS>  (4089) 
41 1.1
45 1.33
59 5.25
73 15.69
74 1.51
86 5.4
100 2.8
130 1.79
131 1.3
172 1.22
174 99.99
175 19.56
176 8.48
184 5.72
258 18.34
259 4.9
260 1.77
273 5.05
274 1.45

>  <PREDICTED SPECTRUM>  (4089) 
27 40
28 5
29 59
31 43
39 11
41 76
42 0
43 61
44 48
45 115
46 22
55 63
56 38
57 27
58 44
59 243
60 73
61 55
69 45
70 65
71 27
72 93
73 494
74 112
75 110
85 15
86 295
87 89
97 22
99 74
100 206
101 61
102 50
111 24
113 25
114 11
115 47
116 27
117 12
126 23
127 15
128 29
129 67
130 213
131 62
132 16
143 6
144 3
147 38
157 8
160 26
172 114
174 999
175 506
176 313
177 20
184 100
186 7
201 8
258 379
259 188
260 87
272 19
273 120
274 19

$$$$

     RDKit          2D

 17 17  0  0  0  0  0  0  0  0999 V2000
    0.5418   -3.5078    0.0000 C   0  0  0  0  0  0  0  0  0  0  0  0
  -11.4418    1.6884    0.0000 C   0  0  0  0  0  0  0  0  0  0  0  0
   -9.9500    0.3452    0.0000 C   0  0  0  0  0  0  0  0  0  0  0  0
   -6.5491    2.3087    0.0000 C   0  0  0  0  0  0  0  0  0  0  0  0
   -6.9664    4.2722    0.0000 C   0  0  0  0  0  0  0  0  0  0  0  0
   -0.9582   -3.5078    0.0000 C   0  0  0  0  0  0  0  0  0  0  0  0
   -1.7082   -2.2087    0.0000 C   0  0  0  0  0  0  0  0  0  0  0  0
   -3.2082   -2.2087    0.0000 C   0  0  0  0  0  0  0  0  0  0  0  0
   -3.9582   -0.9097    0.0000 C   0  0  0  0  0  0  0  0  0  0  0  0
   -5.4582   -0.9097    0.0000 C   0  0  0  0  0  0  0  0  0  0  0  0
   -6.2082    0.3893    0.0000 C   0  0  0  0  0  0  0  0  0  0  0  0
   -7.7082    0.3893    0.0000 C   0  0  0  0  0  0  0  0  0  0  0  0
  -10.2619    3.3124    0.0000 C   0  0  0  0  0  0  0  0  0  0  0  0
   -8.9628    4.0624    0.0000 C   0  0  0  0  0  0  0  0  0  0  0  0
   -8.4582    1.6884    0.0000 N   0  0  0  0  0  0  0  0  0  0  0  0
   -9.9500    1.8452    0.0000 Si  0  0  0  0  0  4  0  0  0  0  0  0
   -7.8481    3.0587    0.0000 Si  0  0  0  0  0  4  0  0  0  0  0  0
  6  1  1  0
  7  6  1  0
  8  7  1  0
  9  8  1  0
 10  9  1  0
 11 10  1  0
 12 11  1  0
 14 13  1  0
 15 12  1  0
 16  2  1  0
 16  3  1  0
 16 13  1  0
 16 15  1  0
 17  4  1  0
 17  5  1  0
 17 14  1  0
 17 15  1  0
M  END
>  <NAME>  (4090) 
1-OCTYL-2,2,5,5-TETRAMETHYL-2,5-DISILAPYRROLIDINE

>  <SYNONYMS>  (4090) 


>  <SPECTRUM TYPE>  (4090) 
MS1

>  <INSTRUMENT TYPE>  (4090) 
EI-B

>  <INSTRUMENT>  (4090) 
JEOL JMS-D-3000

>  <ION MODE>  (4090) 
P

>  <INCHIKEY>  (4090) 
WEJCEXJZYNXOMD-UHFFFAOYSA-N

>  <FORMULA>  (4090) 
C14H33NSi2

>  <EXACT MASS>  (4090) 
271.215153116

>  <MW>  (4090) 
271

>  <ID>  (4090) 
JP004781

>  <CONTRIBUTOR>  (4090) 
University of Tokyo Team, {Faculty of Engineering, University of Tokyo

>  <COMMENT>  (4090) 
SMILES=CCCCCCCCN([Si](C)(C)1)[Si](C)(C)CC1
InChI=InChI=1S/C14H33NSi2/c1-6-7-8-9-10-11-12-15-16(2,3)13-14-17(15,4)5/h6-14H2,1-5H3
computed SMILES=N1(CCCCCCCC)[Si](C)(C)CC[Si]1(C)C
accession=JP004781
date=2016.01.19 (Created 2008.10.21, modified 2011.05.06)
author=MASS SPECTROSCOPY SOC. OF JAPAN (MSSJ)
license=CC BY-NC-SA
exact mass=271.21515
ionization energy=70 eV
ion type=[M]+*
computed spectral entropy=1.6528191418534768
computed normalized entropy=0.5613358448071435
SPLASH=splash10-00di-1900000000-9f1bb4ebbd912fdd7ba3
submitter=submitter = University of Tokyo Team (Faculty of Engineering, University of Tokyo)
MoNA Rating=3.75

>  <NUM PEAKS>  (4090) 
19

>  <MASS SPECTRAL PEAKS>  (4090) 
41 1.68
43 1.15
45 1.22
59 9.34
73 8.68
86 1.18
100 1.69
116 1.63
117 2.13
130 1.21
144 1.1
158 1.33
172 99.99
173 18.45
174 8.31
198 2.52
256 4.58
257 1.19
271 1.49

>  <PREDICTED SPECTRUM>  (4090) 
39 37
40 29
41 89
43 61
44 13
45 35
53 7
54 13
55 53
56 17
57 69
58 206
59 354
60 89
61 22
67 19
69 65
70 46
71 41
73 306
74 71
99 30
102 18
114 56
128 14
130 61
144 82
158 12
170 24
172 999
173 400
174 212
186 23
256 277
257 130
270 10
271 157
272 39

$$$$

     RDKit          2D

 17 18  0  0  0  0  0  0  0  0999 V2000
   -3.0621   -1.8251    0.0000 C   0  0  0  0  0  0  0  0  0  0  0  0
   -2.0979   -3.4951    0.0000 C   0  0  0  0  0  0  0  0  0  0  0  0
    0.6784    1.3135    0.0000 C   0  0  0  0  0  0  0  0  0  0  0  0
   -1.2500    1.3135    0.0000 C   0  0  0  0  0  0  0  0  0  0  0  0
   -6.7810   -2.0855    0.0000 C   0  0  0  0  0  0  0  0  0  0  0  0
   -5.4815   -2.8364    0.0000 C   0  0  0  0  0  0  0  0  0  0  0  0
   -6.7815   -0.5847    0.0000 C   0  0  0  0  0  0  0  0  0  0  0  0
    1.0132   -2.0855    0.0000 C   0  0  0  0  0  0  0  0  0  0  0  0
   -4.1825   -2.0864    0.0000 C   0  0  0  0  0  0  0  0  0  0  0  0
   -5.4825    0.1653    0.0000 C   0  0  0  0  0  0  0  0  0  0  0  0
   -0.2858   -2.8355    0.0000 C   0  0  0  0  0  0  0  0  0  0  0  0
    1.0132   -0.5855    0.0000 C   0  0  0  0  0  0  0  0  0  0  0  0
   -2.8839    0.1645    0.0000 C   0  0  0  0  0  0  0  0  0  0  0  0
   -4.1829   -0.5855    0.0000 C   0  0  0  0  0  0  0  0  0  0  0  0
   -1.5849   -0.5855    0.0000 N   0  0  0  0  0  0  0  0  0  0  0  0
   -1.5849   -2.0855    0.0000 Si  0  0  0  0  0  4  0  0  0  0  0  0
   -0.2858    0.1645    0.0000 Si  0  0  0  0  0  4  0  0  0  0  0  0
  6  5  2  0
  7  5  1  0
  9  6  1  0
 10  7  2  0
 11  8  1  0
 12  8  1  0
 14  9  2  0
 14 10  1  0
 14 13  1  0
 15 13  1  0
 16  1  1  0
 16  2  1  0
 16 11  1  0
 16 15  1  0
 17  3  1  0
 17  4  1  0
 17 12  1  0
 17 15  1  0
M  END
>  <NAME>  (4091) 
1-BENZYL-2,2,6,6-TETRAMETHYL-2,6-DISILAPIPERIDINE

>  <SYNONYMS>  (4091) 


>  <SPECTRUM TYPE>  (4091) 
MS1

>  <INSTRUMENT TYPE>  (4091) 
EI-B

>  <INSTRUMENT>  (4091) 
JEOL JMS-D-3000

>  <ION MODE>  (4091) 
P

>  <INCHIKEY>  (4091) 
XYGDRIWRTXHXLG-UHFFFAOYSA-N

>  <FORMULA>  (4091) 
C14H25NSi2

>  <EXACT MASS>  (4091) 
263.15255286

>  <MW>  (4091) 
263

>  <ID>  (4091) 
JP004780

>  <CONTRIBUTOR>  (4091) 
University of Tokyo Team, {Faculty of Engineering, University of Tokyo

>  <COMMENT>  (4091) 
SMILES=c(c2)ccc(c2)CN([Si](C)(C)1)[Si](C)(C)CCC1
InChI=InChI=1S/C14H25NSi2/c1-16(2)11-8-12-17(3,4)15(16)13-14-9-6-5-7-10-14/h5-7,9-10H,8,11-13H2,1-4H3
computed SMILES=C=1C=CC(=CC1)CN2[Si](C)(C)CCC[Si]2(C)C
accession=JP004780
date=2016.01.19 (Created 2008.10.21, modified 2011.05.06)
author=MASS SPECTROSCOPY SOC. OF JAPAN (MSSJ)
license=CC BY-NC-SA
exact mass=263.15255
ionization energy=70 eV
ion type=[M]+*
computed spectral entropy=2.250754522425882
computed normalized entropy=0.7513203173378695
SPLASH=splash10-0002-1190000000-d77c324a38b66a63fbbb
submitter=submitter = University of Tokyo Team (Faculty of Engineering, University of Tokyo)
MoNA Rating=3.75

>  <NUM PEAKS>  (4091) 
20

>  <MASS SPECTRAL PEAKS>  (4091) 
44 2.8
59 11.71
73 7.14
91 6.57
100 3.01
117 2.58
121 2.99
130 3.42
135 4.4
144 2.29
148 6.17
186 7.52
206 15.62
207 3.37
220 4.03
248 99.99
249 25.55
250 9.51
263 20.19
264 5.42

>  <PREDICTED SPECTRUM>  (4091) 
43 86
44 46
45 100
58 91
59 305
60 15
65 31
70 20
72 72
73 298
74 74
75 46
78 2
84 33
85 82
86 81
89 1
91 322
92 43
100 79
101 33
102 86
103 74
104 13
105 63
115 14
116 67
117 56
118 43
130 4
131 35
132 30
133 19
135 363
136 19
144 112
146 17
147 29
148 14
158 26
159 45
161 8
163 69
164 4
186 364
187 90
188 57
191 46
193 43
206 128
207 51
220 112
221 57
232 18
248 999
249 488
250 272
251 59
262 51
263 408
264 192
265 93

$$$$

     RDKit          2D

 16 15  0  0  0  0  0  0  0  0999 V2000
  -11.2796    6.0368    0.0000 C   0  0  0  0  0  0  0  0  0  0  0  0
    2.4608    4.7377    0.0000 C   0  0  0  0  0  0  0  0  0  0  0  0
    3.0099    6.7868    0.0000 C   0  0  0  0  0  0  0  0  0  0  0  0
    0.9608    7.3358    0.0000 C   0  0  0  0  0  0  0  0  0  0  0  0
   -0.5524    4.1377    0.0000 C   0  0  0  0  0  0  0  0  0  0  0  0
    1.3760    4.1377    0.0000 C   0  0  0  0  0  0  0  0  0  0  0  0
   -9.9805    5.2868    0.0000 C   0  0  0  0  0  0  0  0  0  0  0  0
   -8.6815    6.0368    0.0000 C   0  0  0  0  0  0  0  0  0  0  0  0
   -7.3825    5.2868    0.0000 C   0  0  0  0  0  0  0  0  0  0  0  0
   -6.0834    6.0368    0.0000 C   0  0  0  0  0  0  0  0  0  0  0  0
   -4.7844    5.2868    0.0000 C   0  0  0  0  0  0  0  0  0  0  0  0
   -3.4853    6.0368    0.0000 C   0  0  0  0  0  0  0  0  0  0  0  0
   -2.1863    5.2868    0.0000 C   0  0  0  0  0  0  0  0  0  0  0  0
    1.7108    6.0368    0.0000 C   0  0  0  0  0  0  0  0  0  0  0  0
   -0.8873    6.0368    0.0000 N   0  0  0  0  0  0  0  0  0  0  0  0
    0.4118    5.2868    0.0000 Si  0  0  0  0  0  4  0  0  0  0  0  0
  7  1  1  0
  8  7  1  0
  9  8  1  0
 10  9  1  0
 11 10  1  0
 12 11  1  0
 13 12  1  0
 14  2  1  0
 14  3  1  0
 14  4  1  0
 15 13  1  0
 16  5  1  0
 16  6  1  0
 16 14  1  0
 16 15  1  0
M  END
>  <NAME>  (4092) 
N-OCTYL(TERT-BUTYLDIMETHYLSILYL)AMINE

>  <SYNONYMS>  (4092) 


>  <SPECTRUM TYPE>  (4092) 
MS1

>  <INSTRUMENT TYPE>  (4092) 
EI-B

>  <INSTRUMENT>  (4092) 
JEOL JMS-D-3000

>  <ION MODE>  (4092) 
P

>  <INCHIKEY>  (4092) 
UNIQFZXKPCLILS-UHFFFAOYSA-N

>  <FORMULA>  (4092) 
C14H33NSi

>  <EXACT MASS>  (4092) 
243.238226586

>  <MW>  (4092) 
243

>  <ID>  (4092) 
JP004779

>  <CONTRIBUTOR>  (4092) 
University of Tokyo Team, {Faculty of Engineering, University of Tokyo

>  <COMMENT>  (4092) 
SMILES=CCCCCCCCN[Si](C)(C)C(C)(C)C
InChI=InChI=1S/C14H33NSi/c1-7-8-9-10-11-12-13-15-16(5,6)14(2,3)4/h15H,7-13H2,1-6H3
computed SMILES=N(CCCCCCCC)[Si](C)(C)C(C)(C)C
accession=JP004779
date=2016.01.19 (Created 2008.10.21, modified 2011.05.06)
author=MASS SPECTROSCOPY SOC. OF JAPAN (MSSJ)
license=CC BY-NC-SA
exact mass=243.23823
ionization energy=70 eV
ion type=[M]+*
computed spectral entropy=2.819980347985355
computed normalized entropy=0.8462806947695666
SPLASH=splash10-059i-9200000000-e10142586ddc87bffe60
submitter=submitter = University of Tokyo Team (Faculty of Engineering, University of Tokyo)
MoNA Rating=3.75

>  <NUM PEAKS>  (4092) 
28

>  <MASS SPECTRAL PEAKS>  (4092) 
41 25.79
43 15.71
44 4.36
45 8.53
55 11.94
57 7.5
58 11.73
59 74.92
60 9.39
69 11.6
72 6.44
73 99.99
74 26.05
75 14.46
85 5.82
86 16.37
87 11.88
88 82.19
89 7.54
99 6.11
100 7.88
114 8.3
128 5.66
144 28.21
187 46.71
188 12.68
228 3.2
243 2.01

>  <PREDICTED SPECTRUM>  (4092) 
27 134
28 70
29 267
30 223
31 69
39 154
40 6
41 465
42 159
43 650
44 349
45 194
46 99
47 63
53 165
54 54
55 445
56 302
57 427
58 332
59 850
60 327
61 244
62 119
63 57
67 157
69 398
70 261
71 157
72 234
73 999
74 520
75 355
76 197
79 76
81 42
82 29
83 177
84 97
85 281
86 422
87 355
88 631
89 443
90 136
95 38
96 23
97 123
98 121
99 132
100 329
101 248
102 157
103 68
104 111
111 28
112 90
113 8
114 244
115 119
116 215
117 94
128 223
129 35
130 95
142 216
143 60
144 577
154 41
158 116
170 65
171 51
172 144
184 231
186 168
187 910
188 391
189 62
228 334
229 129
230 39
242 83
243 216
244 103

$$$$

     RDKit          2D

 15 16  0  0  0  0  0  0  0  0999 V2000
  -10.4600    6.3600    0.0000 C   0  0  0  0  0  0  0  0  0  0  0  0
  -11.3400    5.1500    0.0000 C   0  0  0  0  0  0  0  0  0  0  0  0
   -9.0300    5.9000    0.0000 C   0  0  0  0  0  0  0  0  0  0  0  0
   -2.7348    1.5679    0.0000 C   0  0  0  0  0  0  0  0  0  0  0  0
  -10.4600    3.9300    0.0000 C   0  0  0  0  0  0  0  0  0  0  0  0
   -7.6000    6.3600    0.0000 C   0  0  0  0  0  0  0  0  0  0  0  0
   -3.7386    0.4522    0.0000 C   0  0  0  0  0  0  0  0  0  0  0  0
   -3.1981    2.9954    0.0000 C   0  0  0  0  0  0  0  0  0  0  0  0
   -9.0300    4.4000    0.0000 C   0  0  0  0  0  0  0  0  0  0  0  0
   -6.7200    5.1500    0.0000 C   0  0  0  0  0  0  0  0  0  0  0  0
   -5.2059    0.7641    0.0000 C   0  0  0  0  0  0  0  0  0  0  0  0
   -4.6653    3.3073    0.0000 C   0  0  0  0  0  0  0  0  0  0  0  0
   -7.6000    3.9300    0.0000 C   0  0  0  0  0  0  0  0  0  0  0  0
   -5.6692    2.1916    0.0000 C   0  0  0  0  0  0  0  0  0  0  0  0
   -7.1364    2.5034    0.0000 N   0  0  0  0  0  0  0  0  0  0  0  0
  2  1  1  0
  3  1  1  0
  5  2  1  0
  6  3  1  0
  7  4  1  0
  8  4  1  0
  9  5  1  0
 10  6  1  0
 11  7  1  0
 12  8  1  0
 13  9  1  0
 13 10  1  0
 14 11  1  0
 14 12  1  0
 15 13  2  3
 15 14  1  0
M  END
>  <NAME>  (4093) 
N-CYCLOHEXYLCYCLOOCTANIMINE

>  <SYNONYMS>  (4093) 


>  <SPECTRUM TYPE>  (4093) 
MS1

>  <INSTRUMENT TYPE>  (4093) 
EI-B

>  <INSTRUMENT>  (4093) 
JEOL JMS-D-3000

>  <ION MODE>  (4093) 
P

>  <INCHIKEY>  (4093) 
QEPBYAZZLLFREJ-UHFFFAOYSA-N

>  <FORMULA>  (4093) 
C14H25N

>  <EXACT MASS>  (4093) 
207.19869979999999

>  <MW>  (4093) 
207

>  <ID>  (4093) 
JP004778

>  <CONTRIBUTOR>  (4093) 
University of Tokyo Team, {Faculty of Engineering, University of Tokyo

>  <COMMENT>  (4093) 
SMILES=C(C2)CCCC(CC2)=NC(C1)CCCC1
InChI=InChI=1S/C14H25N/c1-2-5-9-13(10-6-3-1)15-14-11-7-4-8-12-14/h14H,1-12H2
computed SMILES=N(=C1CCCCCCC1)C2CCCCC2
accession=JP004778
date=2016.01.19 (Created 2008.10.21, modified 2011.05.06)
author=MASS SPECTROSCOPY SOC. OF JAPAN (MSSJ)
license=CC BY-NC-SA
exact mass=207.1987
ionization energy=70 eV
ion type=[M]+*
computed spectral entropy=3.124669260222798
computed normalized entropy=0.9186968322008354
SPLASH=splash10-056r-2910000000-550dcb01ab1ec7695dbf
submitter=submitter = University of Tokyo Team (Faculty of Engineering, University of Tokyo)
MoNA Rating=3.75

>  <NUM PEAKS>  (4093) 
30

>  <MASS SPECTRAL PEAKS>  (4093) 
41 14.69
43 10.39
54 12.22
55 28.44
58 9.18
67 10.67
82 17.55
83 33.66
96 10.34
97 14.86
98 17.49
110 12.51
123 14
124 17.95
126 50.02
136 26.4
139 20.16
150 13.54
152 64.17
153 11.23
164 76.45
165 24.81
166 13.35
178 53.74
179 99.99
180 13.8
192 32.68
206 26.23
207 77.75
208 14.59

>  <PREDICTED SPECTRUM>  (4093) 
14 15
15 42
16 18
17 17
18 17
25 0
26 165
27 503
28 341
29 453
30 274
31 46
32 10
33 19
34 19
36 7
37 66
38 71
39 545
40 254
41 999
42 463
43 444
44 250
45 123
46 54
50 68
51 165
52 156
53 402
54 584
55 982
56 615
57 298
58 111
59 82
60 16
62 27
63 98
64 88
65 224
66 204
67 573
68 485
69 529
70 447
71 206
72 139
73 23
75 5
77 234
78 177
79 397
80 355
81 496
82 603
83 643
84 371
85 119
86 109
91 153
92 65
93 195
94 318
95 443
96 610
97 552
98 730
99 288
100 86
102 62
103 38
105 83
106 52
107 175
108 394
109 380
110 433
111 360
112 259
113 146
114 85
115 56
116 151
117 20
118 4
119 19
120 47
121 95
122 329
123 227
124 439
125 557
126 705
127 202
128 15
130 33
132 31
133 24
134 52
135 120
136 464
137 293
138 353
139 196
147 39
148 91
149 90
150 501
151 397
152 362
153 309
154 66
162 121
163 24
164 812
165 441
166 254
167 138
168 2
174 8
176 34
178 465
179 288
180 134
190 21
191 76
192 287
193 135
204 34
205 147
206 380
207 644
208 267

$$$$

     RDKit          2D

 15 16  0  0  0  0  0  0  0  0999 V2000
   -1.9647    1.6863    0.0000 C   0  0  0  0  0  0  0  0  0  0  0  0
   -2.5795   -0.2220    0.0000 C   0  0  0  0  0  0  0  0  0  0  0  0
    0.5936   -2.5218    0.0000 C   0  0  0  0  0  0  0  0  0  0  0  0
    5.1522   -1.9630    0.0000 C   0  0  0  0  0  0  0  0  0  0  0  0
    4.6880   -0.5358    0.0000 C   0  0  0  0  0  0  0  0  0  0  0  0
    4.1490   -3.0793    0.0000 C   0  0  0  0  0  0  0  0  0  0  0  0
    3.2206   -0.2248    0.0000 C   0  0  0  0  0  0  0  0  0  0  0  0
    2.6816   -2.7683    0.0000 C   0  0  0  0  0  0  0  0  0  0  0  0
    1.2100    0.3900    0.0000 C   0  0  0  0  0  0  0  0  0  0  0  0
   -0.7500   -1.0300    0.0000 C   0  0  0  0  0  0  0  0  0  0  0  0
    2.2174   -1.3410    0.0000 C   0  0  0  0  0  0  0  0  0  0  0  0
    0.0000    1.2800    0.0000 C   0  0  0  0  0  0  0  0  0  0  0  0
   -1.2100    0.3900    0.0000 C   0  0  0  0  0  0  0  0  0  0  0  0
    0.7500   -1.0300    0.0000 C   0  0  0  0  0  0  0  0  0  0  0  0
    0.0000    2.7800    0.0000 O   0  0  0  0  0  0  0  0  0  0  0  0
  5  4  2  0
  6  4  1  0
  7  5  1  0
  8  6  2  0
 11  7  2  0
 11  8  1  0
 12  9  1  0
 13  1  1  0
 13  2  1  0
 13 10  1  0
 13 12  1  0
 14  3  1  0
 14  9  1  0
 14 10  1  0
 14 11  1  0
 15 12  2  0
M  END
>  <NAME>  (4094) 
2,2,4-TRIMETHYL-4-PHENYLCYCLOPENTANONE

>  <SYNONYMS>  (4094) 


>  <SPECTRUM TYPE>  (4094) 
MS1

>  <INSTRUMENT TYPE>  (4094) 
EI-B

>  <INSTRUMENT>  (4094) 
JEOL JMS-D-3000

>  <ION MODE>  (4094) 
P

>  <INCHIKEY>  (4094) 
SHZFCSMUTTUMRK-UHFFFAOYSA-N

>  <FORMULA>  (4094) 
C14H18O

>  <EXACT MASS>  (4094) 
202.135765196

>  <MW>  (4094) 
202

>  <ID>  (4094) 
JP004776

>  <CONTRIBUTOR>  (4094) 
University of Tokyo Team, {Faculty of Engineering, University of Tokyo

>  <COMMENT>  (4094) 
SMILES=c(c2)ccc(c2)C(C)(C1)CC(C)(C)C(=O)1
InChI=InChI=1S/C14H18O/c1-13(2)10-14(3,9-12(13)15)11-7-5-4-6-8-11/h4-8H,9-10H2,1-3H3
computed SMILES=O=C1CC(C=2C=CC=CC2)(C)CC1(C)C
accession=JP004776
date=2016.01.19 (Created 2008.10.21, modified 2011.05.06)
author=MASS SPECTROSCOPY SOC. OF JAPAN (MSSJ)
license=CC BY-NC-SA
exact mass=202.13577
ionization energy=70 eV
ion type=[M]+*
computed spectral entropy=2.617247131321273
computed normalized entropy=0.769507569725998
SPLASH=splash10-014i-2910000000-d8a6d8fd4ed5624dff4f
submitter=submitter = University of Tokyo Team (Faculty of Engineering, University of Tokyo)
MoNA Rating=3.75

>  <NUM PEAKS>  (4094) 
30

>  <MASS SPECTRAL PEAKS>  (4094) 
41 8.32
43 1.67
51 3.96
53 1.82
55 3.24
56 5.7
65 2.82
70 1.99
77 8.3
78 7.14
79 1.63
91 10.74
102 1.79
103 10.15
105 2.84
115 6.98
116 2.19
117 21.69
118 99.99
119 11.65
128 2.29
129 2.28
131 2.85
145 23.77
146 4.82
159 7.88
160 2.19
187 3.5
202 33.88
203 5.31

>  <PREDICTED SPECTRUM>  (4094) 
39 70
40 10
41 58
42 12
50 41
51 190
52 59
53 42
55 39
57 3
59 6
63 67
64 29
65 72
67 26
68 11
69 31
70 39
77 359
78 194
79 67
81 9
83 36
89 33
90 93
91 385
92 47
102 10
103 175
104 37
105 282
106 75
107 33
108 20
115 252
116 192
117 473
118 999
119 200
120 23
128 142
131 106
144 179
145 351
146 125
158 5
159 175
160 23
174 67
187 70
202 380
203 141

$$$$

     RDKit          2D

 16 16  0  0  0  0  0  0  0  0999 V2000
    0.2250   -0.4161    0.0000 C   0  0  0  0  0  0  0  0  0  0  0  0
    2.2740    0.1329    0.0000 C   0  0  0  0  0  0  0  0  0  0  0  0
    1.7250    2.1820    0.0000 C   0  0  0  0  0  0  0  0  0  0  0  0
    1.1760    3.1329    0.0000 C   0  0  0  0  0  0  0  0  0  0  0  0
   -0.3240    4.6329    0.0000 C   0  0  0  0  0  0  0  0  0  0  0  0
   -1.8240    3.1329    0.0000 C   0  0  0  0  0  0  0  0  0  0  0  0
   -5.5202    3.1329    0.0000 C   0  0  0  0  0  0  0  0  0  0  0  0
   -5.5207    1.6321    0.0000 C   0  0  0  0  0  0  0  0  0  0  0  0
   -4.2207    3.8837    0.0000 C   0  0  0  0  0  0  0  0  0  0  0  0
   -4.2216    0.8821    0.0000 C   0  0  0  0  0  0  0  0  0  0  0  0
   -2.9216    3.1337    0.0000 C   0  0  0  0  0  0  0  0  0  0  0  0
   -1.6231    0.8829    0.0000 C   0  0  0  0  0  0  0  0  0  0  0  0
   -2.9221    1.6329    0.0000 C   0  0  0  0  0  0  0  0  0  0  0  0
   -0.3240    1.6329    0.0000 N   0  0  0  0  0  0  0  0  0  0  0  0
    0.9750    0.8829    0.0000 Si  0  0  0  0  0  4  0  0  0  0  0  0
   -0.3240    3.1329    0.0000 Si  0  0  0  0  0  4  0  0  0  0  0  0
  8  7  2  0
  9  7  1  0
 10  8  1  0
 11  9  2  0
 13 10  2  0
 13 11  1  0
 13 12  1  0
 14 12  1  0
 15  1  1  0
 15  2  1  0
 15  3  1  0
 15 14  1  0
 16  4  1  0
 16  5  1  0
 16  6  1  0
 16 14  1  0
M  END
>  <NAME>  (4095) 
N-BENZYLBIS(TRIMETHYLSILYL)AMINE

>  <SYNONYMS>  (4095) 


>  <SPECTRUM TYPE>  (4095) 
MS1

>  <INSTRUMENT TYPE>  (4095) 
EI-B

>  <INSTRUMENT>  (4095) 
JEOL JMS-D-3000

>  <ION MODE>  (4095) 
P

>  <INCHIKEY>  (4095) 
MISAGEOFUVTSBB-UHFFFAOYSA-N

>  <FORMULA>  (4095) 
C13H25NSi2

>  <EXACT MASS>  (4095) 
251.15255286000001

>  <MW>  (4095) 
251

>  <ID>  (4095) 
JP004774

>  <CONTRIBUTOR>  (4095) 
University of Tokyo Team, {Faculty of Engineering, University of Tokyo

>  <COMMENT>  (4095) 
SMILES=c(c1)ccc(c1)CN([Si](C)(C)C)[Si](C)(C)C
InChI=InChI=1S/C13H25NSi2/c1-15(2,3)14(16(4,5)6)12-13-10-8-7-9-11-13/h7-11H,12H2,1-6H3
computed SMILES=C=1C=CC(=CC1)CN([Si](C)(C)C)[Si](C)(C)C
accession=JP004774
date=2016.01.19 (Created 2008.10.21, modified 2011.05.06)
author=MASS SPECTROSCOPY SOC. OF JAPAN (MSSJ)
license=CC BY-NC-SA
exact mass=251.15255
ionization energy=70 eV
ion type=[M]+*
computed spectral entropy=2.595702404409772
computed normalized entropy=0.8167584764055379
SPLASH=splash10-000i-4590000000-575bc61204838fcc9672
submitter=submitter = University of Tokyo Team (Faculty of Engineering, University of Tokyo)
MoNA Rating=3.75

>  <NUM PEAKS>  (4095) 
24

>  <MASS SPECTRAL PEAKS>  (4095) 
43 2.97
45 7.47
59 13.71
73 41.36
74 3.62
86 10.52
91 9.94
100 6.53
111 5.87
121 2.53
130 4.28
135 20.39
136 2.97
162 32.65
163 5.22
174 17.12
175 3.26
176 2.32
236 99.99
237 24.09
238 9.57
251 27.21
252 6.96
253 2.46

>  <PREDICTED SPECTRUM>  (4095) 
15 37
27 2
28 10
29 26
31 67
39 41
41 31
42 22
43 93
44 69
45 363
46 94
47 68
50 21
51 47
55 47
56 42
57 68
58 103
59 318
60 77
61 33
63 28
65 96
66 16
68 2
69 30
70 11
71 28
72 82
73 777
74 212
75 171
76 49
77 93
78 28
84 15
85 50
86 231
87 94
88 34
89 136
90 60
91 350
92 82
93 70
94 24
99 65
100 242
101 79
102 86
103 107
104 110
105 95
106 70
109 25
114 48
115 22
116 41
117 116
118 92
119 67
120 70
121 89
128 22
129 56
130 349
131 199
132 233
133 140
134 19
135 219
136 60
137 37
144 83
145 125
146 137
147 175
148 307
149 112
150 64
151 71
152 8
159 8
160 216
161 130
162 286
163 210
164 82
165 136
174 248
175 167
176 151
177 87
178 143
179 88
190 53
205 15
207 5
220 217
221 55
222 1
234 61
235 29
236 999
237 500
238 323
239 95
240 59
250 119
251 416
252 186
253 114
254 16

$$$$

     RDKit          2D

 19 18  0  0  0  0  0  0  0  0999 V2000
    2.8358    5.3873    0.0000 C   0  0  0  0  0  0  0  0  0  0  0  0
    0.2377    0.8873    0.0000 C   0  0  0  0  0  0  0  0  0  0  0  0
   -4.9584    3.8873    0.0000 C   0  0  0  0  0  0  0  0  0  0  0  0
   -8.3065    6.6863    0.0000 C   0  0  0  0  0  0  0  0  0  0  0  0
   -8.8555    4.6373    0.0000 C   0  0  0  0  0  0  0  0  0  0  0  0
   -6.8065    4.0882    0.0000 C   0  0  0  0  0  0  0  0  0  0  0  0
    1.5368    6.1373    0.0000 C   0  0  0  0  0  0  0  0  0  0  0  0
   -1.0613    1.6373    0.0000 C   0  0  0  0  0  0  0  0  0  0  0  0
   -3.6594    6.1373    0.0000 C   0  0  0  0  0  0  0  0  0  0  0  0
   -4.9584    5.3873    0.0000 C   0  0  0  0  0  0  0  0  0  0  0  0
   -2.3603    5.3873    0.0000 C   0  0  0  0  0  0  0  0  0  0  0  0
   -1.0613    6.1373    0.0000 C   0  0  0  0  0  0  0  0  0  0  0  0
   -2.3603    3.8873    0.0000 C   0  0  0  0  0  0  0  0  0  0  0  0
   -1.0613    7.6373    0.0000 O   0  0  0  0  0  0  0  0  0  0  0  0
   -3.6594    3.1373    0.0000 O   0  0  0  0  0  0  0  0  0  0  0  0
    0.2377    5.3873    0.0000 O   0  0  0  0  0  0  0  0  0  0  0  0
   -1.0613    3.1373    0.0000 O   0  0  0  0  0  0  0  0  0  0  0  0
   -6.2575    6.1373    0.0000 O   0  0  0  0  0  0  0  0  0  0  0  0
   -7.5565    5.3873    0.0000 Si  0  0  0  0  0  4  0  0  0  0  0  0
  7  1  1  0
  8  2  1  0
 10  3  2  0
 10  9  1  0
 11  9  1  0
 12 11  1  0
 13 11  1  0
 14 12  2  0
 15 13  2  0
 16  7  1  0
 16 12  1  0
 17  8  1  0
 17 13  1  0
 18 10  1  0
 19  4  1  0
 19  5  1  0
 19  6  1  0
 19 18  1  0
M  END
>  <NAME>  (4096) 
DIETHYL (2-TRIMETHYLSILOXY-2-PROPENYL)MALONATE

>  <SYNONYMS>  (4096) 


>  <SPECTRUM TYPE>  (4096) 
MS1

>  <INSTRUMENT TYPE>  (4096) 
EI-B

>  <INSTRUMENT>  (4096) 
JEOL JMS-D-3000

>  <ION MODE>  (4096) 
P

>  <INCHIKEY>  (4096) 
XRQYWQXVPALWDW-UHFFFAOYSA-N

>  <FORMULA>  (4096) 
C13H24O5Si

>  <EXACT MASS>  (4096) 
288.139300398

>  <MW>  (4096) 
288

>  <ID>  (4096) 
JP004773

>  <CONTRIBUTOR>  (4096) 
University of Tokyo Team, {Faculty of Engineering, University of Tokyo

>  <COMMENT>  (4096) 
SMILES=CCOC(=O)C(CC(=C)O[Si](C)(C)C)C(=O)OCC
InChI=InChI=1S/C13H24O5Si/c1-7-16-12(14)11(13(15)17-8-2)9-10(3)18-19(4,5)6/h11H,3,7-9H2,1-2,4-6H3
computed SMILES=O=C(OCC)C(C(=O)OCC)CC(O[Si](C)(C)C)=C
accession=JP004773
date=2016.01.19 (Created 2008.10.21, modified 2011.05.06)
author=MASS SPECTROSCOPY SOC. OF JAPAN (MSSJ)
license=CC BY-NC-SA
exact mass=288.1393
ionization energy=70 eV
ion type=[M]+*
computed spectral entropy=3.3912077693406557
computed normalized entropy=0.8351817179880322
SPLASH=splash10-01ba-9880000000-f942b96be7f21c9fe123
submitter=submitter = University of Tokyo Team (Faculty of Engineering, University of Tokyo)
MoNA Rating=3.75

>  <NUM PEAKS>  (4096) 
58

>  <MASS SPECTRAL PEAKS>  (4096) 
42 12.92
44 6.9
46 2.4
51 1.75
53 8.4
58 2.52
60 2.45
72 2.51
73 61.66
74 5.29
75 30.98
76 2.21
77 3.05
81 2.06
85 1.94
96 1.74
97 58.26
98 4.44
99 4.2
101 6.91
102 2.2
103 4.66
111 2.24
124 16.49
125 15.28
127 13.46
128 8.56
129 3.62
130 1.67
141 18.89
142 3.02
143 8.81
145 1.76
155 4.72
169 5.78
170 3.8
171 22.67
172 3.13
173 4.44
174 5.41
185 2.25
187 4.59
197 20.73
198 4.27
199 10.32
214 2.12
215 99.99
216 19.17
217 11.4
218 1.61
227 3.18
242 10.34
243 19.51
244 3.89
245 6.6
273 8.07
288 11.34
289 2.33

>  <PREDICTED SPECTRUM>  (4096) 
26 42
27 248
28 74
29 387
31 21
39 37
41 162
42 86
43 215
44 136
45 374
46 96
47 155
53 196
54 55
55 301
56 45
57 217
58 1
59 4
60 37
61 75
67 256
68 136
69 423
70 170
71 171
72 78
73 927
74 334
75 660
76 162
77 135
79 26
81 169
82 31
83 133
84 46
85 128
86 32
87 24
91 38
95 290
96 236
97 574
98 221
99 309
100 35
101 212
102 101
103 274
104 21
105 10
109 83
111 144
112 56
113 61
114 70
115 210
116 114
117 184
123 240
124 280
125 349
126 132
127 461
128 263
129 447
130 117
131 99
132 8
133 23
134 72
140 72
141 553
142 345
143 434
144 94
145 110
147 28
151 0
153 149
154 27
155 187
159 23
160 61
161 28
168 61
169 419
170 381
171 470
172 183
173 217
174 86
175 31
185 104
187 271
188 90
189 0
196 25
197 436
198 293
199 393
200 41
201 80
202 34
214 221
215 999
216 430
217 261
218 87
227 111
242 182
243 566
244 209
245 219
246 40
273 256
274 50
288 336
289 127
290 1

$$$$

     RDKit          2D

 14 14  0  0  0  0  0  0  0  0999 V2000
   -3.8978   -2.0496    0.0000 C   0  0  0  0  0  0  0  0  0  0  0  0
   -5.1972    0.2002    0.0000 C   0  0  0  0  0  0  0  0  0  0  0  0
    1.8491    0.4019    0.0000 C   0  0  0  0  0  0  0  0  0  0  0  0
    3.8981    0.9513    0.0000 C   0  0  0  0  0  0  0  0  0  0  0  0
    3.3487    3.0002    0.0000 C   0  0  0  0  0  0  0  0  0  0  0  0
    0.0008    0.2006    0.0000 C   0  0  0  0  0  0  0  0  0  0  0  0
   -1.2992    2.4506    0.0000 C   0  0  0  0  0  0  0  0  0  0  0  0
   -1.2992   -0.5494    0.0000 C   0  0  0  0  0  0  0  0  0  0  0  0
   -2.5992    1.7006    0.0000 C   0  0  0  0  0  0  0  0  0  0  0  0
    1.2998    2.4508    0.0000 C   0  0  0  0  0  0  0  0  0  0  0  0
   -3.8981   -0.5496    0.0000 C   0  0  0  0  0  0  0  0  0  0  0  0
    0.0008    1.7006    0.0000 C   0  0  0  0  0  0  0  0  0  0  0  0
   -2.5992    0.2006    0.0000 C   0  0  0  0  0  0  0  0  0  0  0  0
    2.5989    1.7010    0.0000 Si  0  0  0  0  0  4  0  0  0  0  0  0
  8  6  1  0
  9  7  1  0
 11  1  2  0
 11  2  1  0
 12  6  2  0
 12  7  1  0
 12 10  1  0
 13  8  1  0
 13  9  1  0
 13 11  1  0
 14  3  1  0
 14  4  1  0
 14  5  1  0
 14 10  1  0
M  END
>  <NAME>  (4097) 
1-TRIMETHYLSILYLMETHYL-4-ISOPROPENYLCYCLOHEXENE

>  <SYNONYMS>  (4097) 


>  <SPECTRUM TYPE>  (4097) 
MS1

>  <INSTRUMENT TYPE>  (4097) 
EI-B

>  <INSTRUMENT>  (4097) 
JEOL JMS-D-3000

>  <ION MODE>  (4097) 
P

>  <INCHIKEY>  (4097) 
FDRSHCOPRLFDOK-UHFFFAOYSA-N

>  <FORMULA>  (4097) 
C13H24Si

>  <EXACT MASS>  (4097) 
208.164727298

>  <MW>  (4097) 
208

>  <ID>  (4097) 
JP004772

>  <CONTRIBUTOR>  (4097) 
University of Tokyo Team, {Faculty of Engineering, University of Tokyo

>  <COMMENT>  (4097) 
SMILES=CC(=C)C(C1)CC=C(C1)C[Si](C)(C)C
InChI=InChI=1S/C13H24Si/c1-11(2)13-8-6-12(7-9-13)10-14(3,4)5/h6,13H,1,7-10H2,2-5H3
computed SMILES=C=C(C)C1CC=C(CC1)C[Si](C)(C)C
accession=JP004772
date=2016.01.19 (Created 2008.10.21, modified 2011.05.06)
author=MASS SPECTROSCOPY SOC. OF JAPAN (MSSJ)
license=CC BY-NC-SA
exact mass=208.16473
ionization energy=70 eV
ion type=[M]+*
computed spectral entropy=1.9872084967486678
computed normalized entropy=0.596364506044133
SPLASH=splash10-00di-9100000000-d8466d9ba3adc1b94cac
submitter=submitter = University of Tokyo Team (Faculty of Engineering, University of Tokyo)
MoNA Rating=3.75

>  <NUM PEAKS>  (4097) 
28

>  <MASS SPECTRAL PEAKS>  (4097) 
42 2.72
43 3.17
45 6.06
53 1.21
58 1.7
59 5.69
67 1.21
72 1.04
73 99.99
74 8.27
75 4.58
77 1.74
79 1.58
91 2.17
92 1.66
93 3.01
94 1.15
98 3.88
105 1.07
119 1.92
125 1.41
134 7.54
135 1.05
140 2.52
149 1.01
151 1.03
208 5.2
209 1.05

>  <PREDICTED SPECTRUM>  (4097) 
41 38
43 107
44 49
45 210
53 35
59 200
60 61
67 15
68 8
69 20
72 47
73 999
74 292
75 216
77 91
78 6
79 107
85 18
86 32
87 19
91 70
93 2
99 4
105 72
107 32
117 3
118 26
119 44
133 4
134 150
135 58
140 95
141 206
142 12
165 51
193 60
208 183
209 47
210 1

$$$$

     RDKit          2D

 16 17  0  0  0  0  0  0  0  0999 V2000
   -7.5051    0.7141    0.0000 C   0  0  0  0  0  0  0  0  0  0  0  0
   -6.0133   -0.6291    0.0000 C   0  0  0  0  0  0  0  0  0  0  0  0
   -2.6124    1.3344    0.0000 C   0  0  0  0  0  0  0  0  0  0  0  0
   -3.0298    3.2979    0.0000 C   0  0  0  0  0  0  0  0  0  0  0  0
    0.7284   -0.5849    0.0000 C   0  0  0  0  0  0  0  0  0  0  0  0
   -0.0216    0.7151    0.0000 C   0  0  0  0  0  0  0  0  0  0  0  0
   -0.0216   -1.8849    0.0000 C   0  0  0  0  0  0  0  0  0  0  0  0
   -1.5216    0.7151    0.0000 C   0  0  0  0  0  0  0  0  0  0  0  0
   -1.5216   -1.8849    0.0000 C   0  0  0  0  0  0  0  0  0  0  0  0
   -6.3252    2.3381    0.0000 C   0  0  0  0  0  0  0  0  0  0  0  0
   -5.0262    3.0881    0.0000 C   0  0  0  0  0  0  0  0  0  0  0  0
   -3.7716   -0.5849    0.0000 C   0  0  0  0  0  0  0  0  0  0  0  0
   -2.2716   -0.5849    0.0000 C   0  0  0  0  0  0  0  0  0  0  0  0
   -4.5216    0.7141    0.0000 N   0  0  0  0  0  0  0  0  0  0  0  0
   -6.0133    0.8709    0.0000 Si  0  0  0  0  0  4  0  0  0  0  0  0
   -3.9115    2.0844    0.0000 Si  0  0  0  0  0  4  0  0  0  0  0  0
  6  5  2  0
  7  5  1  0
  8  6  1  0
  9  7  2  0
 11 10  1  0
 13  8  2  0
 13  9  1  0
 13 12  1  0
 14 12  1  0
 15  1  1  0
 15  2  1  0
 15 10  1  0
 15 14  1  0
 16  3  1  0
 16  4  1  0
 16 11  1  0
 16 14  1  0
M  END
>  <NAME>  (4098) 
1-BENZYL-2,2,5,5-TETRAMETHYL-2,5-DISILAPYRROLIDINE

>  <SYNONYMS>  (4098) 


>  <SPECTRUM TYPE>  (4098) 
MS1

>  <INSTRUMENT TYPE>  (4098) 
EI-B

>  <INSTRUMENT>  (4098) 
JEOL JMS-D-3000

>  <ION MODE>  (4098) 
P

>  <INCHIKEY>  (4098) 
ZWHJOKVPBMQCSF-UHFFFAOYSA-N

>  <FORMULA>  (4098) 
C13H23NSi2

>  <EXACT MASS>  (4098) 
249.136902796

>  <MW>  (4098) 
249

>  <ID>  (4098) 
JP004771

>  <CONTRIBUTOR>  (4098) 
University of Tokyo Team, {Faculty of Engineering, University of Tokyo

>  <COMMENT>  (4098) 
SMILES=c(c2)ccc(c2)CN([Si](C)(C)1)[Si](C)(C)CC1
InChI=InChI=1S/C13H23NSi2/c1-15(2)10-11-16(3,4)14(15)12-13-8-6-5-7-9-13/h5-9H,10-12H2,1-4H3
computed SMILES=C=1C=CC(=CC1)CN2[Si](C)(C)CC[Si]2(C)C
accession=JP004771
date=2016.01.19 (Created 2008.10.21, modified 2011.05.06)
author=MASS SPECTROSCOPY SOC. OF JAPAN (MSSJ)
license=CC BY-NC-SA
exact mass=249.1369
ionization energy=70 eV
ion type=[M]+*
computed spectral entropy=2.3567517673675353
computed normalized entropy=0.762445615978843
SPLASH=splash10-001i-2290000000-07a63c2456f871e6387b
submitter=submitter = University of Tokyo Team (Faculty of Engineering, University of Tokyo)
MoNA Rating=3.75

>  <NUM PEAKS>  (4098) 
22

>  <MASS SPECTRAL PEAKS>  (4098) 
43 3.77
45 3.49
59 13.42
73 10.2
85 3.49
91 13
100 5.59
103 4.61
117 5.87
121 2.79
130 6.57
135 2.65
145 4.61
171 2.37
172 10.9
206 2.23
234 99.99
235 22.79
236 9.51
248 2.79
249 14.54
250 4.05

>  <PREDICTED SPECTRUM>  (4098) 
41 7
42 14
43 26
44 34
45 75
54 7
55 26
56 12
57 12
58 89
59 219
60 29
65 73
70 12
71 24
72 71
73 204
74 33
75 19
84 10
85 20
88 22
89 12
91 418
92 78
100 35
102 56
103 48
104 19
105 7
115 27
116 37
117 23
118 28
121 33
128 54
129 56
130 152
131 46
133 2
135 100
144 99
145 114
146 43
149 12
156 48
158 32
162 4
163 16
171 146
172 261
173 71
174 75
176 11
177 40
178 15
179 44
192 66
193 24
206 75
207 59
218 78
219 1
234 999
235 470
236 304
237 75
248 78
249 358
250 171
251 90

$$$$

     RDKit          2D

 16 16  0  0  0  0  0  0  0  0999 V2000
   -5.1962    2.5700    0.0000 C   0  0  0  0  0  0  0  0  0  0  0  0
   -1.2990    6.3200    0.0000 C   0  0  0  0  0  0  0  0  0  0  0  0
   -3.8971    1.8200    0.0000 C   0  0  0  0  0  0  0  0  0  0  0  0
    3.8971    0.3200    0.0000 C   0  0  0  0  0  0  0  0  0  0  0  0
    3.8976    1.8208    0.0000 C   0  0  0  0  0  0  0  0  0  0  0  0
    2.5976   -0.4308    0.0000 C   0  0  0  0  0  0  0  0  0  0  0  0
    2.5986    2.5708    0.0000 C   0  0  0  0  0  0  0  0  0  0  0  0
    1.2986    0.3192    0.0000 C   0  0  0  0  0  0  0  0  0  0  0  0
    0.0000    4.0700    0.0000 C   0  0  0  0  0  0  0  0  0  0  0  0
   -1.2990    4.8200    0.0000 C   0  0  0  0  0  0  0  0  0  0  0  0
    1.2990    1.8200    0.0000 C   0  0  0  0  0  0  0  0  0  0  0  0
    0.0000    2.5700    0.0000 C   0  0  0  0  0  0  0  0  0  0  0  0
   -1.2990    1.8200    0.0000 C   0  0  0  0  0  0  0  0  0  0  0  0
   -2.5981    4.0700    0.0000 O   0  0  0  0  0  0  0  0  0  0  0  0
   -1.2990    0.3200    0.0000 O   0  0  0  0  0  0  0  0  0  0  0  0
   -2.5981    2.5700    0.0000 O   0  0  0  0  0  0  0  0  0  0  0  0
  3  1  1  0
  5  4  2  0
  6  4  1  0
  7  5  1  0
  8  6  2  0
 10  2  1  0
 10  9  1  0
 11  7  2  0
 11  8  1  0
 12  9  1  0
 12 11  1  0
 13 12  1  0
 14 10  2  0
 15 13  2  0
 16  3  1  0
 16 13  1  0
M  END
>  <NAME>  (4099) 
ETHYL 4-OXO-2-PHENYLPENTANOATE

>  <SYNONYMS>  (4099) 


>  <SPECTRUM TYPE>  (4099) 
MS1

>  <INSTRUMENT TYPE>  (4099) 
EI-B

>  <INSTRUMENT>  (4099) 
JEOL JMS-D-3000

>  <ION MODE>  (4099) 
P

>  <INCHIKEY>  (4099) 
MPTUXQOIIUTVGD-UHFFFAOYSA-N

>  <FORMULA>  (4099) 
C13H16O3

>  <EXACT MASS>  (4099) 
220.10994437199997

>  <MW>  (4099) 
220

>  <ID>  (4099) 
JP004770

>  <CONTRIBUTOR>  (4099) 
University of Tokyo Team, {Faculty of Engineering, University of Tokyo

>  <COMMENT>  (4099) 
SMILES=CCOC(=O)C(CC(C)=O)c(c1)cccc1
InChI=InChI=1S/C13H16O3/c1-3-16-13(15)12(9-10(2)14)11-7-5-4-6-8-11/h4-8,12H,3,9H2,1-2H3
computed SMILES=O=C(OCC)C(C=1C=CC=CC1)CC(=O)C
accession=JP004770
date=2016.01.19 (Created 2008.10.21, modified 2011.05.06)
author=MASS SPECTROSCOPY SOC. OF JAPAN (MSSJ)
license=CC BY-NC-SA
exact mass=220.10994
ionization energy=70 eV
ion type=[M]+*
computed spectral entropy=2.5784700793474786
computed normalized entropy=0.7581065695421028
SPLASH=splash10-0a4i-5390000000-920861c86a9c8d13051f
submitter=submitter = University of Tokyo Team (Faculty of Engineering, University of Tokyo)
MoNA Rating=3.75

>  <NUM PEAKS>  (4099) 
30

>  <MASS SPECTRAL PEAKS>  (4099) 
40 8.69
53 6.14
56 30.15
57 1.72
67 6.71
69 2.28
77 2.39
79 1.88
80 1.79
81 10.02
91 4.4
95 6.26
105 6.44
115 2.69
119 3.56
121 3.08
128 2.25
129 2.37
131 3.42
133 2.13
145 11.68
149 2.25
161 3.97
163 2.11
177 7.09
189 3.65
205 99.99
206 16
220 26.72
221 4.5

>  <PREDICTED SPECTRUM>  (4099) 
14 16
15 57
26 2
27 126
28 60
29 128
31 65
38 42
39 164
40 43
43 999
44 54
45 108
50 112
51 247
52 87
53 91
55 5
57 4
62 73
63 182
64 89
65 149
66 46
73 62
74 50
75 113
76 94
77 415
78 213
79 240
83 41
86 18
89 122
90 168
91 475
92 123
102 152
103 347
104 394
105 241
106 102
107 119
115 134
116 0
117 141
118 267
119 105
129 21
130 110
131 321
132 128
133 54
135 71
145 256
146 91
147 22
149 151
159 143
160 136
163 416
164 3
175 129
176 56
177 307
178 115
187 5
202 65
205 797
206 311
220 642
221 248
222 72

$$$$

     RDKit          2D

 15 14  0  0  0  0  0  0  0  0999 V2000
   -3.2268    0.8525    0.0000 C   0  0  0  0  0  0  0  0  0  0  0  0
   -3.9180    4.7725    0.0000 C   0  0  0  0  0  0  0  0  0  0  0  0
   -3.9180    1.4325    0.0000 C   0  0  0  0  0  0  0  0  0  0  0  0
    3.2684    3.1025    0.0000 C   0  0  0  0  0  0  0  0  0  0  0  0
    3.1118    2.2139    0.0000 C   0  0  0  0  0  0  0  0  0  0  0  0
    0.2192    0.5439    0.0000 C   0  0  0  0  0  0  0  0  0  0  0  0
   -1.9277    1.6025    0.0000 C   0  0  0  0  0  0  0  0  0  0  0  0
   -2.4407    4.5120    0.0000 C   0  0  0  0  0  0  0  0  0  0  0  0
   -3.4049    2.8420    0.0000 C   0  0  0  0  0  0  0  0  0  0  0  0
    1.9694    3.8525    0.0000 C   0  0  0  0  0  0  0  0  0  0  0  0
    1.6345    1.9534    0.0000 C   0  0  0  0  0  0  0  0  0  0  0  0
   -0.2938    1.9534    0.0000 C   0  0  0  0  0  0  0  0  0  0  0  0
   -0.6287    3.8525    0.0000 N   0  0  0  0  0  0  0  0  0  0  0  0
   -1.9277    3.1025    0.0000 Si  0  0  0  0  0  4  0  0  0  0  0  0
    0.6704    3.1025    0.0000 Si  0  0  0  0  0  4  0  0  0  0  0  0
  7  1  1  0
  8  2  1  0
  9  3  1  0
 10  4  1  0
 11  5  1  0
 12  6  1  0
 14  7  1  0
 14  8  1  0
 14  9  1  0
 14 13  1  0
 15 10  1  0
 15 11  1  0
 15 12  1  0
 15 13  1  0
M  END
>  <NAME>  (4100) 
HEXAETHYLDISILAZANE

>  <SYNONYMS>  (4100) 
BIS(TRIETHYLSILYL)AMINE

>  <SPECTRUM TYPE>  (4100) 
MS1

>  <INSTRUMENT TYPE>  (4100) 
EI-B

>  <INSTRUMENT>  (4100) 
JEOL JMS-D-3000

>  <ION MODE>  (4100) 
P

>  <INCHIKEY>  (4100) 
APDDLLVYBXGBRF-UHFFFAOYSA-N

>  <FORMULA>  (4100) 
C12H31NSi2

>  <EXACT MASS>  (4100) 
245.199503052

>  <MW>  (4100) 
245

>  <ID>  (4100) 
JP004769

>  <CONTRIBUTOR>  (4100) 
University of Tokyo Team, {Faculty of Engineering, University of Tokyo

>  <COMMENT>  (4100) 
SMILES=CC[Si](CC)(CC)N[Si](CC)(CC)CC
InChI=InChI=1S/C12H31NSi2/c1-7-14(8-2,9-3)13-15(10-4,11-5)12-6/h13H,7-12H2,1-6H3
computed SMILES=N([Si](CC)(CC)CC)[Si](CC)(CC)CC
accession=JP004769
date=2016.01.19 (Created 2008.10.21, modified 2011.05.06)
author=MASS SPECTROSCOPY SOC. OF JAPAN (MSSJ)
license=CC BY-NC-SA
exact mass=245.1995
ionization energy=70 eV
ion type=[M]+*
computed spectral entropy=2.6141462281871424
computed normalized entropy=0.7931661470115094
SPLASH=splash10-014i-4890000000-085430b80fc7031841f3
submitter=submitter = University of Tokyo Team (Faculty of Engineering, University of Tokyo)
MoNA Rating=3.75

>  <NUM PEAKS>  (4100) 
27

>  <MASS SPECTRAL PEAKS>  (4100) 
51 3.64
57 2.7
59 11.86
65 11.04
72 3.29
74 1.99
76 5.52
80 9.98
87 5.87
94 4.93
100 4.34
102 9.28
104 8.34
130 7.87
132 9.87
158 4.11
160 21.62
161 3.76
186 4.34
188 38.19
189 8.81
190 2.58
216 99.99
217 22.79
218 8.1
219 0.94
245 0.94

>  <PREDICTED SPECTRUM>  (4100) 
45 33
46 9
47 5
50 20
55 33
56 25
57 151
58 3
59 317
60 43
61 56
65 28
69 9
72 45
73 81
74 185
75 43
76 160
77 28
86 6
87 328
88 16
89 50
90 62
91 0
93 40
100 139
101 0
102 190
103 141
104 183
105 115
114 28
116 2
118 13
128 36
130 287
131 71
132 122
133 84
158 114
159 50
160 542
161 201
162 55
186 179
187 46
188 905
189 292
190 186
216 999
217 459
218 307
219 130
244 2
245 158
246 25

$$$$

     RDKit          2D

 15 14  0  0  0  0  0  0  0  0999 V2000
    5.6813    1.9785    0.0000 C   0  0  0  0  0  0  0  0  0  0  0  0
    3.0832    0.4785    0.0000 C   0  0  0  0  0  0  0  0  0  0  0  0
    5.1323   -0.0706    0.0000 C   0  0  0  0  0  0  0  0  0  0  0  0
   -0.5977    5.3265    0.0000 C   0  0  0  0  0  0  0  0  0  0  0  0
   -2.0977    3.8265    0.0000 C   0  0  0  0  0  0  0  0  0  0  0  0
   -0.5977    2.3265    0.0000 C   0  0  0  0  0  0  0  0  0  0  0  0
    5.0418    3.0405    0.0000 C   0  0  0  0  0  0  0  0  0  0  0  0
    3.3718    4.0047    0.0000 C   0  0  0  0  0  0  0  0  0  0  0  0
    2.3118    4.3396    0.0000 C   0  0  0  0  0  0  0  0  0  0  0  0
    0.6418    5.3037    0.0000 C   0  0  0  0  0  0  0  0  0  0  0  0
    4.3823    1.2285    0.0000 C   0  0  0  0  0  0  0  0  0  0  0  0
   -0.5977    3.8265    0.0000 C   0  0  0  0  0  0  0  0  0  0  0  0
    1.6523    2.5275    0.0000 N   0  0  0  0  0  0  0  0  0  0  0  0
    3.6323    2.5275    0.0000 Si  0  0  0  0  0  4  0  0  0  0  0  0
    0.9023    3.8265    0.0000 Si  0  0  0  0  0  4  0  0  0  0  0  0
 11  1  1  0
 11  2  1  0
 11  3  1  0
 12  4  1  0
 12  5  1  0
 12  6  1  0
 14  7  1  0
 14  8  1  0
 14 11  1  0
 14 13  1  0
 15  9  1  0
 15 10  1  0
 15 12  1  0
 15 13  1  0
M  END
>  <NAME>  (4101) 
BIS(TERT-BUTYLDIMETHYLSILYL)AMINE

>  <SYNONYMS>  (4101) 


>  <SPECTRUM TYPE>  (4101) 
MS1

>  <INSTRUMENT TYPE>  (4101) 
EI-B

>  <INSTRUMENT>  (4101) 
JEOL JMS-D-3000

>  <ION MODE>  (4101) 
P

>  <INCHIKEY>  (4101) 
ZBLRLJUOIRWSCE-UHFFFAOYSA-N

>  <FORMULA>  (4101) 
C12H31NSi2

>  <EXACT MASS>  (4101) 
245.199503052

>  <MW>  (4101) 
245

>  <ID>  (4101) 
JP004768

>  <CONTRIBUTOR>  (4101) 
University of Tokyo Team, {Faculty of Engineering, University of Tokyo

>  <COMMENT>  (4101) 
SMILES=CC(C)(C)[Si](C)(C)N[Si](C)(C)C(C)(C)C
InChI=InChI=1S/C12H31NSi2/c1-11(2,3)14(7,8)13-15(9,10)12(4,5)6/h13H,1-10H3
computed SMILES=N([Si](C)(C)C(C)(C)C)[Si](C)(C)C(C)(C)C
accession=JP004768
date=2016.01.19 (Created 2008.10.21, modified 2011.05.06)
author=MASS SPECTROSCOPY SOC. OF JAPAN (MSSJ)
license=CC BY-NC-SA
exact mass=245.1995
ionization energy=70 eV
ion type=[M]+*
computed spectral entropy=2.276121265311601
computed normalized entropy=0.6906049534153768
SPLASH=splash10-000b-1900000000-dc2799c2be20be85ec9b
submitter=submitter = University of Tokyo Team (Faculty of Engineering, University of Tokyo)
MoNA Rating=3.75

>  <NUM PEAKS>  (4101) 
27

>  <MASS SPECTRAL PEAKS>  (4101) 
41 3.53
45 2.05
57 3.65
59 3.44
66 2.43
73 15.14
74 7.5
75 1.07
99 2.7
100 4.33
102 1.16
113 1.22
116 7.29
117 1.37
130 18.05
131 2.85
132 7.18
133 1.16
146 99.99
147 16.66
148 7.71
188 93.93
189 18.67
190 7.44
230 4.48
231 1.09
245 0.65

>  <PREDICTED SPECTRUM>  (4101) 
28 1
29 40
31 13
39 9
40 6
41 59
42 41
43 136
44 119
45 128
46 72
47 49
55 48
56 115
57 198
58 194
59 367
60 176
61 75
62 9
66 12
69 7
70 16
71 66
72 113
73 655
74 260
75 106
76 104
77 54
80 0
83 67
84 29
85 141
86 65
87 31
88 93
89 43
90 0
91 35
99 98
100 176
101 66
102 86
103 70
104 20
105 44
106 3
108 8
109 14
114 14
115 42
116 192
117 84
118 111
119 23
128 35
129 52
130 388
131 275
132 473
133 210
134 149
135 33
142 18
144 81
145 78
146 931
147 575
148 329
149 161
156 18
157 9
158 40
159 66
160 128
161 55
172 72
173 39
174 10
186 5
188 999
189 458
190 280
191 134
192 7
230 213
231 80
232 41
245 77
246 20

$$$$

     RDKit          2D

 14 13  0  0  0  0  0  0  0  0999 V2000
    1.0526    5.8577    0.0000 C   0  0  0  0  0  0  0  0  0  0  0  0
   -6.7416    4.3577    0.0000 C   0  0  0  0  0  0  0  0  0  0  0  0
   -5.4426    2.1077    0.0000 C   0  0  0  0  0  0  0  0  0  0  0  0
   -1.2106    2.4587    0.0000 C   0  0  0  0  0  0  0  0  0  0  0  0
   -0.4313    1.4945    0.0000 C   0  0  0  0  0  0  0  0  0  0  0  0
    1.6819    1.3096    0.0000 C   0  0  0  0  0  0  0  0  0  0  0  0
    1.0526    4.3577    0.0000 C   0  0  0  0  0  0  0  0  0  0  0  0
   -2.8445    3.6077    0.0000 C   0  0  0  0  0  0  0  0  0  0  0  0
   -4.1435    4.3577    0.0000 C   0  0  0  0  0  0  0  0  0  0  0  0
   -1.5455    4.3577    0.0000 C   0  0  0  0  0  0  0  0  0  0  0  0
   -5.4426    3.6077    0.0000 C   0  0  0  0  0  0  0  0  0  0  0  0
   -0.2464    3.6077    0.0000 C   0  0  0  0  0  0  0  0  0  0  0  0
    1.8668    3.4228    0.0000 F   0  0  0  0  0  0  0  0  0  0  0  0
    0.7178    2.4587    0.0000 Si  0  0  0  0  0  4  0  0  0  0  0  0
  7  1  2  0
  9  8  1  0
 10  8  1  0
 11  2  1  0
 11  3  1  0
 11  9  2  0
 12  4  1  0
 12  7  1  0
 12 10  1  0
 14  5  1  0
 14  6  1  0
 14 12  1  0
 14 13  1  0
M  END
>  <NAME>  (4102) 
3-(DIMETHYLFLUOROSILYL)-3,7-DIMETHYL-1,6-OCTADIENE

>  <SYNONYMS>  (4102) 


>  <SPECTRUM TYPE>  (4102) 
MS1

>  <INSTRUMENT TYPE>  (4102) 
EI-B

>  <INSTRUMENT>  (4102) 
JEOL JMS-D-3000

>  <ION MODE>  (4102) 
P

>  <INCHIKEY>  (4102) 
IUEPASPTDFFCEL-UHFFFAOYSA-N

>  <FORMULA>  (4102) 
C12H23FSi

>  <EXACT MASS>  (4102) 
214.15530548599997

>  <MW>  (4102) 
214

>  <ID>  (4102) 
JP004767

>  <CONTRIBUTOR>  (4102) 
University of Tokyo Team, {Faculty of Engineering, University of Tokyo

>  <COMMENT>  (4102) 
SMILES=CC(C)=CCCC(C)(C=C)[Si](C)(C)F
InChI=InChI=1S/C12H23FSi/c1-7-12(4,14(5,6)13)10-8-9-11(2)3/h7,9H,1,8,10H2,2-6H3
computed SMILES=F[Si](C)(C)C(C=C)(C)CCC=C(C)C
accession=JP004767
license=CC BY-NC-SA
date=2016.01.19 (Created 2008.10.21, modified 2011.05.06)
author=MASS SPECTROSCOPY SOC. OF JAPAN (MSSJ)
exact mass=214.15531
ionization energy=70 eV
ion type=[M]+*
computed spectral entropy=1.9931221497263742
computed normalized entropy=0.6271517904113536
SPLASH=splash10-004i-9200000000-f62a95dabc459b48798f
submitter=submitter = University of Tokyo Team (Faculty of Engineering, University of Tokyo)
MoNA Rating=3.75

>  <NUM PEAKS>  (4102) 
24

>  <MASS SPECTRAL PEAKS>  (4102) 
40 1.63
41 1.96
42 10.98
48 1.75
49 3.53
53 1.72
55 2.24
56 1.48
60 1.94
64 1.33
67 1.41
68 2.08
69 11.07
70 1.48
73 1.47
77 99.99
78 7.32
79 3.7
145 26.58
146 4.4
147 2.64
171 1.98
199 1.49
214 3.53

>  <PREDICTED SPECTRUM>  (4102) 
27 29
29 28
39 122
40 22
41 475
42 125
43 321
44 85
45 83
47 24
49 18
50 33
51 192
52 57
53 140
55 151
57 145
58 86
59 161
63 87
64 37
65 206
66 12
67 324
68 94
69 642
71 38
72 11
73 246
74 172
75 428
76 115
77 929
78 251
79 266
80 222
81 185
82 18
91 79
92 136
93 291
99 75
101 77
103 314
104 102
105 80
110 7
113 163
115 103
117 216
122 13
127 61
128 55
129 58
130 44
131 264
132 90
133 10
143 22
144 48
145 999
146 545
147 116
171 218
172 36
199 40
214 319
215 36

$$$$

     RDKit          2D

 15 15  0  0  0  0  0  0  0  0999 V2000
    5.7524    1.0739    0.0000 C   0  0  0  0  0  0  0  0  0  0  0  0
   -4.0936    1.6171    0.0000 C   0  0  0  0  0  0  0  0  0  0  0  0
   -4.6392   -0.4328    0.0000 C   0  0  0  0  0  0  0  0  0  0  0  0
   -2.5893   -0.9784    0.0000 C   0  0  0  0  0  0  0  0  0  0  0  0
    0.5602   -1.9185    0.0000 C   0  0  0  0  0  0  0  0  0  0  0  0
   -0.7389   -1.1685    0.0000 C   0  0  0  0  0  0  0  0  0  0  0  0
    1.8547   -1.1763    0.0000 C   0  0  0  0  0  0  0  0  0  0  0  0
    0.5561    1.0745    0.0000 C   0  0  0  0  0  0  0  0  0  0  0  0
   -2.0437    1.0715    0.0000 C   0  0  0  0  0  0  0  0  0  0  0  0
   -0.7434    0.3237    0.0000 C   0  0  0  0  0  0  0  0  0  0  0  0
    1.8552    0.3245    0.0000 C   0  0  0  0  0  0  0  0  0  0  0  0
    3.1543    1.0743    0.0000 C   0  0  0  0  0  0  0  0  0  0  0  0
    3.1546    2.5743    0.0000 O   0  0  0  0  0  0  0  0  0  0  0  0
    4.4533    0.3241    0.0000 O   0  0  0  0  0  0  0  0  0  0  0  0
   -3.3414    0.3193    0.0000 Si  0  0  0  0  0  4  0  0  0  0  0  0
  6  5  1  0
  7  5  1  0
 10  6  2  0
 10  8  1  0
 10  9  1  0
 11  7  1  0
 11  8  1  0
 12 11  1  0
 13 12  2  0
 14  1  1  0
 14 12  1  0
 15  2  1  0
 15  3  1  0
 15  4  1  0
 15  9  1  0
M  END
>  <NAME>  (4103) 
METHYL 3-TRIMETHYLSILYLMETHYL-3-CYCLOHEXENECARBOXYLATE

>  <SYNONYMS>  (4103) 


>  <SPECTRUM TYPE>  (4103) 
MS1

>  <INSTRUMENT TYPE>  (4103) 
EI-B

>  <INSTRUMENT>  (4103) 
JEOL JMS-D-3000

>  <ION MODE>  (4103) 
P

>  <INCHIKEY>  (4103) 
MHABJOQBNQANTI-UHFFFAOYSA-N

>  <FORMULA>  (4103) 
C12H22O2Si

>  <EXACT MASS>  (4103) 
226.138906474

>  <MW>  (4103) 
226

>  <ID>  (4103) 
JP004766

>  <CONTRIBUTOR>  (4103) 
University of Tokyo Team, {Faculty of Engineering, University of Tokyo

>  <COMMENT>  (4103) 
SMILES=COC(=O)C(C1)CC(=CC1)C[Si](C)(C)C
InChI=InChI=1S/C12H22O2Si/c1-14-12(13)11-7-5-6-10(8-11)9-15(2,3)4/h6,11H,5,7-9H2,1-4H3
computed SMILES=O=C(OC)C1CC(=CCC1)C[Si](C)(C)C
accession=JP004766
date=2016.01.19 (Created 2008.10.21, modified 2011.05.06)
author=MASS SPECTROSCOPY SOC. OF JAPAN (MSSJ)
license=CC BY-NC-SA
exact mass=226.13891
ionization energy=70 eV
ion type=[M]+*
computed spectral entropy=2.4887522400957383
computed normalized entropy=0.8174524218506767
SPLASH=splash10-00dl-9110000000-91ed1df06d778c80836d
submitter=submitter = University of Tokyo Team (Faculty of Engineering, University of Tokyo)
MoNA Rating=3.75

>  <NUM PEAKS>  (4103) 
21

>  <MASS SPECTRAL PEAKS>  (4103) 
58 6.86
59 7.79
73 99.99
74 6.16
75 8.37
79 35.46
80 4.76
89 17.32
92 6.27
93 14.41
94 67.32
95 5.93
104 4.06
107 3.72
122 20.81
195 12.67
205 15.11
211 6.16
220 6.27
226 16.27
227 4.3

>  <PREDICTED SPECTRUM>  (4103) 
27 21
29 27
39 10
41 20
43 70
45 338
51 69
52 64
53 133
54 3
55 138
59 283
60 22
61 40
64 0
65 131
66 133
67 198
68 54
69 167
71 9
73 999
74 289
75 403
76 67
77 189
78 133
79 443
80 121
81 75
83 42
85 14
89 371
90 45
91 201
92 137
93 342
94 595
95 285
96 55
97 79
99 73
104 75
105 74
107 223
108 5
121 130
122 427
123 38
125 13
135 40
136 88
151 40
153 0
159 0
166 12
167 183
168 34
183 79
194 35
195 141
196 21
211 146
212 1
226 349
227 156
228 40

$$$$

     RDKit          2D

 14 14  0  0  0  0  0  0  0  0999 V2000
   -7.1055   -0.3976    0.0000 C   0  0  0  0  0  0  0  0  0  0  0  0
   -3.3866   -1.6371    0.0000 C   0  0  0  0  0  0  0  0  0  0  0  0
   -2.4224   -3.3072    0.0000 C   0  0  0  0  0  0  0  0  0  0  0  0
    0.3538    1.5015    0.0000 C   0  0  0  0  0  0  0  0  0  0  0  0
   -1.5745    1.5015    0.0000 C   0  0  0  0  0  0  0  0  0  0  0  0
   -5.8065    0.3524    0.0000 C   0  0  0  0  0  0  0  0  0  0  0  0
   -4.5075   -0.3976    0.0000 C   0  0  0  0  0  0  0  0  0  0  0  0
    0.6887   -1.8976    0.0000 C   0  0  0  0  0  0  0  0  0  0  0  0
   -3.2084    0.3524    0.0000 C   0  0  0  0  0  0  0  0  0  0  0  0
   -0.6103   -2.6476    0.0000 C   0  0  0  0  0  0  0  0  0  0  0  0
    0.6887   -0.3976    0.0000 C   0  0  0  0  0  0  0  0  0  0  0  0
   -1.9094   -0.3976    0.0000 N   0  0  0  0  0  0  0  0  0  0  0  0
   -1.9094   -1.8976    0.0000 Si  0  0  0  0  0  4  0  0  0  0  0  0
   -0.6103    0.3524    0.0000 Si  0  0  0  0  0  4  0  0  0  0  0  0
  6  1  1  0
  7  6  1  0
  9  7  1  0
 10  8  1  0
 11  8  1  0
 12  9  1  0
 13  2  1  0
 13  3  1  0
 13 10  1  0
 13 12  1  0
 14  4  1  0
 14  5  1  0
 14 11  1  0
 14 12  1  0
M  END
>  <NAME>  (4104) 
1-BUTYL-2,2,6,6-TETRAMETHYL-2,6-DISILAPIPERIDINE

>  <SYNONYMS>  (4104) 


>  <SPECTRUM TYPE>  (4104) 
MS1

>  <INSTRUMENT TYPE>  (4104) 
EI-B

>  <INSTRUMENT>  (4104) 
JEOL JMS-D-3000

>  <ION MODE>  (4104) 
P

>  <INCHIKEY>  (4104) 
ZWDFPXZHLQWYKN-UHFFFAOYSA-N

>  <FORMULA>  (4104) 
C11H27NSi2

>  <EXACT MASS>  (4104) 
229.16820292399998

>  <MW>  (4104) 
229

>  <ID>  (4104) 
JP004765

>  <CONTRIBUTOR>  (4104) 
University of Tokyo Team, {Faculty of Engineering, University of Tokyo

>  <COMMENT>  (4104) 
SMILES=CCCCN([Si](C)(C)1)[Si](C)(C)CCC1
InChI=InChI=1S/C11H27NSi2/c1-6-7-9-12-13(2,3)10-8-11-14(12,4)5/h6-11H2,1-5H3
computed SMILES=N1(CCCC)[Si](C)(C)CCC[Si]1(C)C
accession=JP004765
date=2016.01.19 (Created 2008.10.21, modified 2011.05.06)
author=MASS SPECTROSCOPY SOC. OF JAPAN (MSSJ)
license=CC BY-NC-SA
exact mass=229.1682
ionization energy=70 eV
ion type=[M]+*
computed spectral entropy=1.3382210043405136
computed normalized entropy=0.6435482688585024
SPLASH=splash10-000i-1900000000-81e9d858aad4c6dbb2be
submitter=submitter = University of Tokyo Team (Faculty of Engineering, University of Tokyo)
MoNA Rating=3.75

>  <NUM PEAKS>  (4104) 
8

>  <MASS SPECTRAL PEAKS>  (4104) 
59 10.19
73 5.62
88 2.34
186 99.99
187 20.29
188 8.73
214 9.15
229 4.99

>  <PREDICTED SPECTRUM>  (4104) 
42 2
45 117
55 8
56 6
57 42
58 52
59 448
60 32
69 10
70 6
71 77
72 46
73 308
74 2
75 31
78 30
86 18
99 41
100 89
101 54
102 88
112 5
113 81
114 87
115 20
128 75
129 158
130 110
131 54
156 55
157 28
158 88
159 39
172 58
186 999
187 350
188 184
189 26
214 163
215 53
229 161
230 34

$$$$

     RDKit          2D

 13 13  0  0  0  0  0  0  0  0999 V2000
    3.1483   -0.5487    0.0000 C   0  0  0  0  0  0  0  0  0  0  0  0
    5.1972    0.0006    0.0000 C   0  0  0  0  0  0  0  0  0  0  0  0
    4.6479    2.0496    0.0000 C   0  0  0  0  0  0  0  0  0  0  0  0
   -1.3000    0.7500    0.0000 C   0  0  0  0  0  0  0  0  0  0  0  0
   -0.0000   -1.5000    0.0000 C   0  0  0  0  0  0  0  0  0  0  0  0
    0.0000    1.5000    0.0000 C   0  0  0  0  0  0  0  0  0  0  0  0
    1.3000   -0.7500    0.0000 C   0  0  0  0  0  0  0  0  0  0  0  0
   -2.5989   -1.5002    0.0000 C   0  0  0  0  0  0  0  0  0  0  0  0
    2.5989    1.5002    0.0000 C   0  0  0  0  0  0  0  0  0  0  0  0
   -1.3000   -0.7500    0.0000 C   0  0  0  0  0  0  0  0  0  0  0  0
    1.3000    0.7500    0.0000 C   0  0  0  0  0  0  0  0  0  0  0  0
   -3.8981   -0.7504    0.0000 O   0  0  0  0  0  0  0  0  0  0  0  0
    3.8981    0.7504    0.0000 Si  0  0  0  0  0  4  0  0  0  0  0  0
  6  4  1  0
  7  5  1  0
 10  4  1  0
 10  5  1  0
 10  8  1  0
 11  6  2  0
 11  7  1  0
 11  9  1  0
 12  8  2  0
 13  1  1  0
 13  2  1  0
 13  3  1  0
 13  9  1  0
M  END
>  <NAME>  (4105) 
4-TRIMETHYLSILYLMETHYL-3-CYCLOHEXENEC-1-ARBALDEHYDE

>  <SYNONYMS>  (4105) 


>  <SPECTRUM TYPE>  (4105) 
MS1

>  <INSTRUMENT TYPE>  (4105) 
EI-B

>  <INSTRUMENT>  (4105) 
JEOL JMS-D-3000

>  <ION MODE>  (4105) 
P

>  <INCHIKEY>  (4105) 
PTJDAESHYAVRRS-UHFFFAOYSA-N

>  <FORMULA>  (4105) 
C11H20OSi

>  <EXACT MASS>  (4105) 
196.12834179

>  <MW>  (4105) 
196

>  <ID>  (4105) 
JP004764

>  <CONTRIBUTOR>  (4105) 
University of Tokyo Team, {Faculty of Engineering, University of Tokyo

>  <COMMENT>  (4105) 
computed SMILES=O=CC1CC=C(CC1)C[Si](C)(C)C
SMILES=O=CC(C1)CC=C(C1)C[Si](C)(C)C
cas=74043-11-1
InChI=InChI=1S/C11H20OSi/c1-13(2,3)9-11-6-4-10(8-12)5-7-11/h6,8,10H,4-5,7,9H2,1-3H3
accession=JP004764
date=2016.01.19 (Created 2008.10.21, modified 2011.05.06)
author=MASS SPECTROSCOPY SOC. OF JAPAN (MSSJ)
license=CC BY-NC-SA
exact mass=196.12834
ionization energy=70 eV
ion type=[M]+*
computed spectral entropy=2.386496166711964
computed normalized entropy=0.7016635316665127
SPLASH=splash10-00di-9300000000-b6a2a4caf7685746c6c1
submitter=submitter = University of Tokyo Team (Faculty of Engineering, University of Tokyo)
MoNA Rating=3.75

>  <NUM PEAKS>  (4105) 
30

>  <MASS SPECTRAL PEAKS>  (4105) 
41 2.1
43 4.19
45 10.05
53 1.37
55 1.11
57 1.09
59 6.91
65 1.09
72 1.28
73 99.99
74 8.67
75 12.91
77 3.12
78 4.97
79 2.61
80 2.75
91 5.85
92 1.62
93 3.03
103 10.28
104 1.2
105 1.91
106 10.28
107 1.43
129 36.83
130 4.43
131 1.63
151 2.15
181 2.28
196 3.66

>  <PREDICTED SPECTRUM>  (4105) 
31 6
39 50
41 34
43 10
44 54
45 254
51 31
52 0
53 75
59 183
60 42
65 72
66 47
67 66
69 49
73 999
74 270
75 292
76 22
77 165
78 74
79 137
91 170
92 51
93 147
100 0
103 13
104 103
105 138
106 168
107 25
122 45
128 27
129 377
130 141
181 68
196 140
197 24

$$$$

     RDKit          2D

 14 14  0  0  0  0  0  0  0  0999 V2000
    0.0000    3.0000    0.0000 C   0  0  0  0  0  0  0  0  0  0  0  0
   -2.7772   -0.4897    0.0000 C   0  0  0  0  0  0  0  0  0  0  0  0
   -1.8127   -2.1596    0.0000 C   0  0  0  0  0  0  0  0  0  0  0  0
    5.1970    1.5006    0.0000 C   0  0  0  0  0  0  0  0  0  0  0  0
   -1.3000    0.7500    0.0000 C   0  0  0  0  0  0  0  0  0  0  0  0
   -0.0000   -1.5000    0.0000 C   0  0  0  0  0  0  0  0  0  0  0  0
    0.0000    1.5000    0.0000 C   0  0  0  0  0  0  0  0  0  0  0  0
    1.3000   -0.7500    0.0000 C   0  0  0  0  0  0  0  0  0  0  0  0
    1.3000    0.7500    0.0000 C   0  0  0  0  0  0  0  0  0  0  0  0
    2.5989    1.5002    0.0000 C   0  0  0  0  0  0  0  0  0  0  0  0
   -1.3000   -0.7500    0.0000 C   0  0  0  0  0  0  0  0  0  0  0  0
    2.5989   -1.5002    0.0000 O   0  0  0  0  0  0  0  0  0  0  0  0
    2.5987    3.0002    0.0000 O   0  0  0  0  0  0  0  0  0  0  0  0
    3.8981    0.7504    0.0000 O   0  0  0  0  0  0  0  0  0  0  0  0
  7  1  1  0
  7  5  1  0
  8  6  1  0
  9  7  2  0
  9  8  1  0
 10  9  1  0
 11  2  1  0
 11  3  1  0
 11  5  1  0
 11  6  1  0
 12  8  2  0
 13 10  2  0
 14  4  1  0
 14 10  1  0
M  END
>  <NAME>  (4106) 
3,5,5-TRIMETHYL-2-METHOXYCARBONYL-2-CYCLOHEXENONE

>  <SYNONYMS>  (4106) 


>  <SPECTRUM TYPE>  (4106) 
MS1

>  <INSTRUMENT TYPE>  (4106) 
EI-B

>  <INSTRUMENT>  (4106) 
JEOL JMS-D-3000

>  <ION MODE>  (4106) 
P

>  <INCHIKEY>  (4106) 
NRQHBEIJFHZERL-UHFFFAOYSA-N

>  <FORMULA>  (4106) 
C11H16O3

>  <EXACT MASS>  (4106) 
196.10994437199997

>  <MW>  (4106) 
196

>  <ID>  (4106) 
JP004763

>  <CONTRIBUTOR>  (4106) 
University of Tokyo Team, {Faculty of Engineering, University of Tokyo

>  <COMMENT>  (4106) 
SMILES=COC(=O)C(=C(C)1)C(=O)CC(C)(C)C1
InChI=InChI=1S/C11H16O3/c1-7-5-11(2,3)6-8(12)9(7)10(13)14-4/h5-6H2,1-4H3
computed SMILES=O=C(OC)C=1C(=O)CC(C)(C)CC1C
accession=JP004763
date=2016.01.19 (Created 2008.10.21, modified 2011.05.06)
author=MASS SPECTROSCOPY SOC. OF JAPAN (MSSJ)
license=CC BY-NC-SA
exact mass=196.10994
ionization energy=70 eV
ion type=[M]+*
computed spectral entropy=2.9890326545160826
computed normalized entropy=0.8624525175451053
SPLASH=splash10-03e9-7900000000-8032da41321fd223eef5
submitter=submitter = University of Tokyo Team (Faculty of Engineering, University of Tokyo)
MoNA Rating=3.75

>  <NUM PEAKS>  (4106) 
32

>  <MASS SPECTRAL PEAKS>  (4106) 
41 26.28
43 4.82
51 6.2
53 20.28
54 13.15
55 15.19
59 8.57
65 4.74
66 5.51
67 25
77 11.2
79 8.84
81 8.4
82 93.14
83 26.13
91 6.79
93 10.11
95 7.73
96 5.45
108 7.27
109 18.08
112 99.99
113 7.48
121 7.4
123 5.12
138 5.89
140 43.67
149 19.59
164 68.61
165 33.07
196 32.26
197 4.24

>  <PREDICTED SPECTRUM>  (4106) 
31 32
33 37
38 37
39 378
40 187
41 606
42 269
43 207
45 4
50 91
51 233
52 169
53 417
54 244
55 484
56 136
57 76
58 10
59 486
65 165
66 242
67 412
68 108
69 130
74 1
77 214
78 66
79 256
80 549
81 695
82 497
83 642
91 173
93 284
94 114
95 323
96 236
97 181
107 222
108 453
109 253
110 85
111 19
112 945
113 403
114 121
121 157
122 89
123 124
125 23
135 103
136 169
137 204
138 102
139 16
140 510
141 21
149 464
164 999
165 582
166 20
181 35
196 631
197 161

$$$$

     RDKit          2D

 14 14  0  0  0  0  0  0  0  0999 V2000
    3.6169    1.0147    0.0000 C   0  0  0  0  0  0  0  0  0  0  0  0
    0.0549   -3.1350    0.0000 C   0  0  0  0  0  0  0  0  0  0  0  0
    1.9834   -3.1353    0.0000 C   0  0  0  0  0  0  0  0  0  0  0  0
   -4.1773   -1.9853    0.0000 C   0  0  0  0  0  0  0  0  0  0  0  0
    1.0184    1.0155    0.0000 C   0  0  0  0  0  0  0  0  0  0  0  0
    2.3184   -1.2361    0.0000 C   0  0  0  0  0  0  0  0  0  0  0  0
    2.3179    0.2647    0.0000 C   0  0  0  0  0  0  0  0  0  0  0  0
   -0.2807    0.2655    0.0000 C   0  0  0  0  0  0  0  0  0  0  0  0
   -0.2802   -1.2353    0.0000 C   0  0  0  0  0  0  0  0  0  0  0  0
   -1.5792   -1.9853    0.0000 C   0  0  0  0  0  0  0  0  0  0  0  0
    1.0193   -1.9861    0.0000 C   0  0  0  0  0  0  0  0  0  0  0  0
   -1.5798    1.0153    0.0000 O   0  0  0  0  0  0  0  0  0  0  0  0
   -1.5792   -3.4853    0.0000 O   0  0  0  0  0  0  0  0  0  0  0  0
   -2.8783   -1.2353    0.0000 O   0  0  0  0  0  0  0  0  0  0  0  0
  7  1  1  0
  7  5  2  0
  7  6  1  0
  8  5  1  0
  9  8  1  0
 10  9  1  0
 11  2  1  0
 11  3  1  0
 11  6  1  0
 11  9  1  0
 12  8  2  0
 13 10  2  0
 14  4  1  0
 14 10  1  0
M  END
>  <NAME>  (4107) 
3,5,5-TRIMETHYL-6-METHOXYCARBONYL-2-CYCLOHEXENONE

>  <SYNONYMS>  (4107) 


>  <SPECTRUM TYPE>  (4107) 
MS1

>  <INSTRUMENT TYPE>  (4107) 
EI-B

>  <INSTRUMENT>  (4107) 
JEOL JMS-D-3000

>  <ION MODE>  (4107) 
P

>  <INCHIKEY>  (4107) 
DVRUDYWXVMIYKQ-UHFFFAOYSA-N

>  <FORMULA>  (4107) 
C11H16O3

>  <EXACT MASS>  (4107) 
196.10994437199997

>  <MW>  (4107) 
196

>  <ID>  (4107) 
JP004762

>  <CONTRIBUTOR>  (4107) 
University of Tokyo Team, {Faculty of Engineering, University of Tokyo

>  <COMMENT>  (4107) 
SMILES=COC(=O)C(C(=O)1)C(C)(C)CC(C)=C1
InChI=InChI=1S/C11H16O3/c1-7-5-8(12)9(10(13)14-4)11(2,3)6-7/h5,9H,6H2,1-4H3
computed SMILES=O=C(OC)C1C(=O)C=C(C)CC1(C)C
accession=JP004762
date=2016.01.19 (Created 2008.10.21, modified 2011.05.06)
author=MASS SPECTROSCOPY SOC. OF JAPAN (MSSJ)
license=CC BY-NC-SA
exact mass=196.10994
ionization energy=70 eV
ion type=[M]+*
computed spectral entropy=2.3833130933533124
computed normalized entropy=0.7231283556345115
SPLASH=splash10-001i-9400000000-1828f07b8fb0921a8495
submitter=submitter = University of Tokyo Team (Faculty of Engineering, University of Tokyo)
MoNA Rating=3.75

>  <NUM PEAKS>  (4107) 
27

>  <MASS SPECTRAL PEAKS>  (4107) 
41 2.26
44 5.36
51 1.57
53 5.53
54 12.25
55 2.57
59 2.13
67 1.42
77 2.48
79 2.19
82 99.99
83 14.33
93 3.37
108 2.91
109 2.52
122 3.69
123 1.64
136 3.08
137 6.97
138 7.08
149 17.28
150 1.9
164 6.29
165 5.03
181 4.9
196 14.01
197 1.69

>  <PREDICTED SPECTRUM>  (4107) 
26 9
27 108
28 3
29 31
32 19
39 338
40 117
41 301
42 113
45 93
50 18
51 161
52 93
53 322
54 307
55 227
59 172
65 193
66 86
67 339
69 74
71 1
77 141
79 45
80 126
81 247
82 999
83 573
91 104
92 8
93 244
94 46
95 79
96 45
105 2
106 21
107 21
108 68
109 121
110 76
121 83
122 101
123 35
133 88
137 382
138 197
149 436
164 422
165 340
181 73
196 384
197 112

$$$$

     RDKit          2D

 14 14  0  0  0  0  0  0  0  0999 V2000
   -6.8197    3.1321    0.0000 C   0  0  0  0  0  0  0  0  0  0  0  0
    3.5726    1.6321    0.0000 C   0  0  0  0  0  0  0  0  0  0  0  0
    3.5731    3.1329    0.0000 C   0  0  0  0  0  0  0  0  0  0  0  0
    2.2731    0.8813    0.0000 C   0  0  0  0  0  0  0  0  0  0  0  0
    2.2740    3.8829    0.0000 C   0  0  0  0  0  0  0  0  0  0  0  0
    0.9740    1.6313    0.0000 C   0  0  0  0  0  0  0  0  0  0  0  0
   -0.3245    3.8821    0.0000 C   0  0  0  0  0  0  0  0  0  0  0  0
   -4.2216    3.1321    0.0000 C   0  0  0  0  0  0  0  0  0  0  0  0
   -5.5207    3.8821    0.0000 C   0  0  0  0  0  0  0  0  0  0  0  0
    0.9745    3.1321    0.0000 C   0  0  0  0  0  0  0  0  0  0  0  0
   -1.6236    3.1321    0.0000 C   0  0  0  0  0  0  0  0  0  0  0  0
   -5.5207    5.3821    0.0000 O   0  0  0  0  0  0  0  0  0  0  0  0
   -1.6236    1.6321    0.0000 O   0  0  0  0  0  0  0  0  0  0  0  0
   -2.9226    3.8821    0.0000 O   0  0  0  0  0  0  0  0  0  0  0  0
  3  2  2  0
  4  2  1  0
  5  3  1  0
  6  4  2  0
  9  1  1  0
  9  8  1  0
 10  5  2  0
 10  6  1  0
 10  7  1  0
 11  7  1  0
 12  9  2  0
 13 11  2  0
 14  8  1  0
 14 11  1  0
M  END
>  <NAME>  (4108) 
2-OXOPROPYL PHENYLACETATE

>  <SYNONYMS>  (4108) 


>  <SPECTRUM TYPE>  (4108) 
MS1

>  <INSTRUMENT TYPE>  (4108) 
EI-B

>  <INSTRUMENT>  (4108) 
JEOL JMS-D-3000

>  <ION MODE>  (4108) 
P

>  <INCHIKEY>  (4108) 
MXZBBLQECZKOBV-UHFFFAOYSA-N

>  <FORMULA>  (4108) 
C11H12O3

>  <EXACT MASS>  (4108) 
192.078644244

>  <MW>  (4108) 
192

>  <ID>  (4108) 
JP004761

>  <CONTRIBUTOR>  (4108) 
University of Tokyo Team, {Faculty of Engineering, University of Tokyo

>  <COMMENT>  (4108) 
SMILES=CC(=O)COC(=O)Cc(c1)cccc1
InChI=InChI=1S/C11H12O3/c1-9(12)8-14-11(13)7-10-5-3-2-4-6-10/h2-6H,7-8H2,1H3
computed SMILES=O=C(OCC(=O)C)CC=1C=CC=CC1
accession=JP004761
date=2016.01.19 (Created 2008.10.21, modified 2011.05.06)
author=MASS SPECTROSCOPY SOC. OF JAPAN (MSSJ)
license=CC BY-NC-SA
exact mass=192.07864
ionization energy=70 eV
ion type=[M]+*
computed spectral entropy=1.9166783549631945
computed normalized entropy=0.6631252017070292
SPLASH=splash10-00kf-9300000000-4e4725b9e9d3dc6e6521
submitter=submitter = University of Tokyo Team (Faculty of Engineering, University of Tokyo)
MoNA Rating=3.75

>  <NUM PEAKS>  (4108) 
18

>  <MASS SPECTRAL PEAKS>  (4108) 
40 1.91
41 1.26
42 34.19
48 1.05
49 2.55
56 4.15
63 3.13
65 11.79
71 2.13
85 1.01
89 3.81
90 3.83
91 99.99
92 9.44
118 48.28
119 15.82
120 1.35
192 1.63

>  <PREDICTED SPECTRUM>  (4108) 
26 18
27 66
29 57
38 32
39 185
40 69
41 165
42 122
43 366
44 70
45 24
50 70
51 108
52 50
53 33
55 6
56 30
57 156
58 112
59 42
62 51
63 136
64 77
65 299
66 63
74 31
77 57
78 26
79 56
89 198
90 189
91 999
92 332
118 720
119 359
135 51
136 16
192 123
193 26

$$$$

     RDKit          2D

 13 13  0  0  0  0  0  0  0  0999 V2000
   -5.8454    3.6946    0.0000 C   0  0  0  0  0  0  0  0  0  0  0  0
    3.2478    1.4446    0.0000 C   0  0  0  0  0  0  0  0  0  0  0  0
    3.2483    2.9454    0.0000 C   0  0  0  0  0  0  0  0  0  0  0  0
    1.9483    0.6938    0.0000 C   0  0  0  0  0  0  0  0  0  0  0  0
    1.9493    3.6954    0.0000 C   0  0  0  0  0  0  0  0  0  0  0  0
    0.6493    1.4438    0.0000 C   0  0  0  0  0  0  0  0  0  0  0  0
   -3.2474    3.6946    0.0000 C   0  0  0  0  0  0  0  0  0  0  0  0
   -1.9483    2.9446    0.0000 C   0  0  0  0  0  0  0  0  0  0  0  0
   -4.5464    2.9446    0.0000 C   0  0  0  0  0  0  0  0  0  0  0  0
    0.6498    2.9446    0.0000 C   0  0  0  0  0  0  0  0  0  0  0  0
   -0.6493    3.6946    0.0000 C   0  0  0  0  0  0  0  0  0  0  0  0
   -4.5464    1.4446    0.0000 O   0  0  0  0  0  0  0  0  0  0  0  0
   -0.6493    5.1946    0.0000 O   0  0  0  0  0  0  0  0  0  0  0  0
  3  2  2  0
  4  2  1  0
  5  3  1  0
  6  4  2  0
  8  7  1  0
  9  1  1  0
  9  7  1  0
 10  5  2  0
 10  6  1  0
 11  8  1  0
 11 10  1  0
 12  9  2  0
 13 11  2  0
M  END
>  <NAME>  (4109) 
1-PHENYL-1,4-PENTANEDIONE

>  <SYNONYMS>  (4109) 


>  <SPECTRUM TYPE>  (4109) 
MS1

>  <INSTRUMENT TYPE>  (4109) 
EI-B

>  <INSTRUMENT>  (4109) 
JEOL JMS-D-3000

>  <ION MODE>  (4109) 
P

>  <INCHIKEY>  (4109) 
RBLXWIPBPPVLPU-UHFFFAOYSA-N

>  <FORMULA>  (4109) 
C11H12O2

>  <EXACT MASS>  (4109) 
176.083729624

>  <MW>  (4109) 
176

>  <ID>  (4109) 
JP004760

>  <CONTRIBUTOR>  (4109) 
University of Tokyo Team, {Faculty of Engineering, University of Tokyo

>  <COMMENT>  (4109) 
SMILES=CC(=O)CCC(=O)c(c1)cccc1
cas=583-05-1
InChI=InChI=1S/C11H12O2/c1-9(12)7-8-11(13)10-5-3-2-4-6-10/h2-6H,7-8H2,1H3
computed SMILES=O=C(C=1C=CC=CC1)CCC(=O)C
accession=JP004760
date=2016.01.19 (Created 2008.10.21, modified 2011.05.06)
author=MASS SPECTROSCOPY SOC. OF JAPAN (MSSJ)
license=CC BY-NC-SA
exact mass=176.08373
ionization energy=70 eV
ion type=[M]+*
computed spectral entropy=2.372199397002619
computed normalized entropy=0.7369651785494865
SPLASH=splash10-0a4i-3900000000-833d98f53f0115f00be5
submitter=submitter = University of Tokyo Team (Faculty of Engineering, University of Tokyo)
MoNA Rating=3.75

>  <NUM PEAKS>  (4109) 
25

>  <MASS SPECTRAL PEAKS>  (4109) 
43 17.96
50 3.32
51 12.46
55 2.79
63 1.39
76 1.78
77 37.95
78 3.36
79 1.99
105 99.99
106 7.75
115 8.61
116 1.32
128 1.98
129 2.6
131 1.68
133 8.78
134 4
157 9.09
158 20.29
159 3.78
161 14.2
162 1.51
174 1.48
176 5.13

>  <PREDICTED SPECTRUM>  (4109) 
14 31
15 94
16 11
17 18
18 42
25 16
26 77
27 178
28 110
29 175
30 22
31 25
37 38
38 70
39 165
40 81
41 172
42 166
43 709
44 83
45 33
49 65
50 225
51 440
52 163
53 165
54 52
55 153
56 85
57 62
62 78
63 105
64 51
65 109
66 66
69 12
70 63
71 237
72 41
74 119
75 86
76 143
77 667
78 272
79 218
86 53
87 9
89 36
90 42
91 154
92 55
98 24
99 137
100 8
102 19
103 9
105 999
106 404
107 60
115 127
116 44
118 32
120 272
128 20
130 31
131 22
133 358
134 146
148 20
158 128
159 69
161 183
162 67
175 62
176 338
177 112

$$$$

     RDKit          2D

 15 14  0  0  0  0  0  0  0  0999 V2000
    2.5981    4.5000    0.0000 C   0  0  0  0  0  0  0  0  0  0  0  0
   -7.7942    4.5000    0.0000 C   0  0  0  0  0  0  0  0  0  0  0  0
   -1.2990    0.7500    0.0000 C   0  0  0  0  0  0  0  0  0  0  0  0
    1.2990    5.2500    0.0000 C   0  0  0  0  0  0  0  0  0  0  0  0
   -6.4952    5.2500    0.0000 C   0  0  0  0  0  0  0  0  0  0  0  0
   -2.5981    3.0000    0.0000 C   0  0  0  0  0  0  0  0  0  0  0  0
   -1.2990    2.2500    0.0000 C   0  0  0  0  0  0  0  0  0  0  0  0
   -2.5981    4.5000    0.0000 C   0  0  0  0  0  0  0  0  0  0  0  0
   -1.2990    5.2500    0.0000 C   0  0  0  0  0  0  0  0  0  0  0  0
   -3.8971    5.2500    0.0000 C   0  0  0  0  0  0  0  0  0  0  0  0
    0.0000    3.0000    0.0000 O   0  0  0  0  0  0  0  0  0  0  0  0
   -1.2990    6.7500    0.0000 O   0  0  0  0  0  0  0  0  0  0  0  0
   -3.8971    6.7500    0.0000 O   0  0  0  0  0  0  0  0  0  0  0  0
    0.0000    4.5000    0.0000 O   0  0  0  0  0  0  0  0  0  0  0  0
   -5.1962    4.5000    0.0000 O   0  0  0  0  0  0  0  0  0  0  0  0
  4  1  1  0
  5  2  1  0
  7  3  1  0
  7  6  1  0
  8  6  1  0
  9  8  1  0
 10  8  1  0
 11  7  2  0
 12  9  2  0
 13 10  2  0
 14  4  1  0
 14  9  1  0
 15  5  1  0
 15 10  1  0
M  END
>  <NAME>  (4110) 
DIETHYL (2-OXOPROPYL)MALONATE

>  <SYNONYMS>  (4110) 


>  <SPECTRUM TYPE>  (4110) 
MS1

>  <INSTRUMENT TYPE>  (4110) 
EI-B

>  <INSTRUMENT>  (4110) 
JEOL JMS-D-3000

>  <ION MODE>  (4110) 
P

>  <INCHIKEY>  (4110) 
KGZCSZOGMMZHKB-UHFFFAOYSA-N

>  <FORMULA>  (4110) 
C10H16O5

>  <EXACT MASS>  (4110) 
216.09977361199998

>  <MW>  (4110) 
216

>  <ID>  (4110) 
JP004759

>  <CONTRIBUTOR>  (4110) 
University of Tokyo Team, {Faculty of Engineering, University of Tokyo

>  <COMMENT>  (4110) 
SMILES=CCOC(=O)C(CC(C)=O)C(=O)OCC
InChI=InChI=1S/C10H16O5/c1-4-14-9(12)8(6-7(3)11)10(13)15-5-2/h8H,4-6H2,1-3H3
computed SMILES=O=C(OCC)C(C(=O)OCC)CC(=O)C
accession=JP004759
date=2016.01.19 (Created 2008.10.21, modified 2011.05.06)
author=MASS SPECTROSCOPY SOC. OF JAPAN (MSSJ)
license=CC BY-NC-SA
exact mass=216.09977
ionization energy=70 eV
ion type=[M]+*
computed spectral entropy=3.123819159443216
computed normalized entropy=0.794495852879099
SPLASH=splash10-00bc-4900000000-0ee24ee02467bcb83894
submitter=submitter = University of Tokyo Team (Faculty of Engineering, University of Tokyo)
MoNA Rating=3.75

>  <NUM PEAKS>  (4110) 
51

>  <MASS SPECTRAL PEAKS>  (4110) 
41 1.89
42 3.25
43 99.99
45 7.31
46 1
53 2.06
54 1.43
55 35.95
56 4.3
57 1.77
58 1.61
69 1.92
71 2.84
72 2.03
73 48.38
74 2.96
82 1.07
85 1
87 1.05
96 1.12
97 18.98
98 5.51
99 15.4
100 24.49
101 60.11
102 19.34
103 1.4
115 2.84
117 2.57
124 3.9
125 85.63
126 6.22
127 25.96
128 67.17
129 14.19
130 1.25
143 23.1
144 4.49
145 6.18
146 1.31
155 3.98
170 4.94
171 49.29
172 4.54
173 22.39
174 45.89
175 11.03
176 1.25
201 12.28
202 1.31
216 2.15

>  <PREDICTED SPECTRUM>  (4110) 
26 45
27 206
28 69
29 441
31 73
39 148
40 29
41 53
42 69
43 999
44 258
45 318
46 45
53 204
54 107
55 653
56 346
57 277
58 89
60 29
61 77
66 10
68 95
69 161
70 87
71 324
72 187
73 491
74 196
75 119
79 32
81 113
82 199
83 208
84 30
85 135
86 36
89 48
96 78
97 372
98 345
99 591
100 620
101 752
102 367
103 183
113 5
115 304
117 249
124 324
125 800
126 390
127 648
128 886
129 396
130 145
131 124
142 195
143 521
144 191
145 276
146 349
155 68
157 30
158 35
159 122
168 34
169 27
170 317
171 780
172 370
173 689
174 854
175 249
188 16
201 278
202 59
216 181
217 41

$$$$

     RDKit          2D

 15 14  0  0  0  0  0  0  0  0999 V2000
   -1.4836    0.9827    0.0000 C   0  0  0  0  0  0  0  0  0  0  0  0
   -4.9295    2.7913    0.0000 C   0  0  0  0  0  0  0  0  0  0  0  0
    0.2666    7.2913    0.0000 C   0  0  0  0  0  0  0  0  0  0  0  0
    2.8862    2.9132    0.0000 C   0  0  0  0  0  0  0  0  0  0  0  0
   -0.5194    2.1318    0.0000 C   0  0  0  0  0  0  0  0  0  0  0  0
   -2.3315    2.7913    0.0000 C   0  0  0  0  0  0  0  0  0  0  0  0
   -3.6305    3.5413    0.0000 C   0  0  0  0  0  0  0  0  0  0  0  0
   -1.0324    5.0413    0.0000 C   0  0  0  0  0  0  0  0  0  0  0  0
    0.4448    3.8018    0.0000 C   0  0  0  0  0  0  0  0  0  0  0  0
   -1.0324    3.5413    0.0000 C   0  0  0  0  0  0  0  0  0  0  0  0
   -3.6305    5.0413    0.0000 O   0  0  0  0  0  0  0  0  0  0  0  0
   -2.3315    5.7913    0.0000 O   0  0  0  0  0  0  0  0  0  0  0  0
    0.9578    5.2113    0.0000 O   0  0  0  0  0  0  0  0  0  0  0  0
    0.2666    5.7913    0.0000 O   0  0  0  0  0  0  0  0  0  0  0  0
    1.4090    2.6527    0.0000 O   0  0  0  0  0  0  0  0  0  0  0  0
  5  1  1  0
  7  2  1  0
  7  6  1  0
 10  5  1  0
 10  6  1  0
 10  8  1  0
 10  9  1  0
 11  7  2  0
 12  8  2  0
 13  9  2  0
 14  3  1  0
 14  8  1  0
 15  4  1  0
 15  9  1  0
M  END
>  <NAME>  (4111) 
DIMETHYL ETHYL(2-OXOPROPYL)MALONATE

>  <SYNONYMS>  (4111) 


>  <SPECTRUM TYPE>  (4111) 
MS1

>  <INSTRUMENT TYPE>  (4111) 
EI-B

>  <INSTRUMENT>  (4111) 
JEOL JMS-D-3000

>  <ION MODE>  (4111) 
P

>  <INCHIKEY>  (4111) 
PBRWHUUBOYQIEO-UHFFFAOYSA-N

>  <FORMULA>  (4111) 
C10H16O5

>  <EXACT MASS>  (4111) 
216.09977361199998

>  <MW>  (4111) 
216

>  <ID>  (4111) 
JP004758

>  <CONTRIBUTOR>  (4111) 
University of Tokyo Team, {Faculty of Engineering, University of Tokyo

>  <COMMENT>  (4111) 
SMILES=COC(=O)C(CC)(CC(C)=O)C(=O)OC
InChI=InChI=1S/C10H16O5/c1-5-10(6-7(2)11,8(12)14-3)9(13)15-4/h5-6H2,1-4H3
computed SMILES=O=C(OC)C(C(=O)OC)(CC(=O)C)CC
accession=JP004758
date=2016.01.19 (Created 2008.10.21, modified 2011.05.06)
author=MASS SPECTROSCOPY SOC. OF JAPAN (MSSJ)
license=CC BY-NC-SA
exact mass=216.09977
ionization energy=70 eV
ion type=[M]+*
computed spectral entropy=2.945499259084151
computed normalized entropy=0.7783698873553264
SPLASH=splash10-054o-7900000000-0ced305c2a338fc13791
submitter=submitter = University of Tokyo Team (Faculty of Engineering, University of Tokyo)
MoNA Rating=3.75

>  <NUM PEAKS>  (4111) 
44

>  <MASS SPECTRAL PEAKS>  (4111) 
41 5.05
42 2.32
43 99.99
44 2.98
45 3.05
53 4.85
54 2.66
55 15.91
56 1.01
58 3.46
59 24.18
69 1.92
71 3.77
79 1.05
81 6.34
82 4.13
83 10.54
85 1.74
95 3.38
97 2.44
99 3.61
113 20.31
114 10.96
115 12.5
124 2.69
125 29.95
126 2.56
127 52.15
128 3.73
129 2.67
141 10.31
142 5.93
145 14.34
146 1.22
155 1.2
156 1.05
157 3.5
159 43.4
160 3.39
173 1.49
184 1.1
185 9.51
201 1.26
216 0.06

>  <PREDICTED SPECTRUM>  (4111) 
14 15
15 96
26 56
27 225
28 93
29 207
30 0
31 43
32 5
33 20
38 50
39 286
40 111
41 322
42 138
43 999
44 178
45 79
53 219
54 87
55 423
56 168
57 254
58 160
59 459
60 37
61 4
65 96
67 75
68 53
69 325
71 132
73 87
74 7
75 8
79 1
80 15
81 219
82 231
83 247
84 91
85 214
86 0
87 134
89 25
95 23
96 87
97 231
98 62
99 310
100 112
101 118
103 59
104 2
109 72
110 15
111 51
113 335
114 222
115 267
116 41
117 90
124 71
125 414
126 203
127 536
128 178
129 46
131 77
132 4
141 262
142 187
143 113
145 149
146 25
155 83
156 175
157 272
158 95
159 624
160 111
173 124
174 86
185 209
201 76

$$$$

     RDKit          2D

 12 12  0  0  0  0  0  0  0  0999 V2000
    5.2185   -1.3785    0.0000 C   0  0  0  0  0  0  0  0  0  0  0  0
    1.8127   -2.1596    0.0000 C   0  0  0  0  0  0  0  0  0  0  0  0
   -1.3000    0.7500    0.0000 C   0  0  0  0  0  0  0  0  0  0  0  0
    0.0000    1.5000    0.0000 C   0  0  0  0  0  0  0  0  0  0  0  0
   -1.3000   -0.7500    0.0000 C   0  0  0  0  0  0  0  0  0  0  0  0
    1.3000    0.7500    0.0000 C   0  0  0  0  0  0  0  0  0  0  0  0
    2.7772   -0.4897    0.0000 C   0  0  0  0  0  0  0  0  0  0  0  0
    3.7413   -1.6389    0.0000 C   0  0  0  0  0  0  0  0  0  0  0  0
    0.0000   -1.5000    0.0000 C   0  0  0  0  0  0  0  0  0  0  0  0
    1.3000   -0.7500    0.0000 C   0  0  0  0  0  0  0  0  0  0  0  0
    3.2281   -3.0483    0.0000 O   0  0  0  0  0  0  0  0  0  0  0  0
   -0.0000   -3.0000    0.0000 O   0  0  0  0  0  0  0  0  0  0  0  0
  4  3  1  0
  5  3  1  0
  6  4  1  0
  8  1  1  0
  8  7  1  0
  9  5  1  0
 10  2  1  0
 10  6  1  0
 10  7  1  0
 10  9  1  0
 11  8  2  0
 12  9  2  0
M  END
>  <NAME>  (4112) 
2-METHYL-2-(2-OXOPROPYL)CYCLOHEXANONE

>  <SYNONYMS>  (4112) 


>  <SPECTRUM TYPE>  (4112) 
MS1

>  <INSTRUMENT TYPE>  (4112) 
EI-B

>  <INSTRUMENT>  (4112) 
JEOL JMS-D-3000

>  <ION MODE>  (4112) 
P

>  <INCHIKEY>  (4112) 
GSNMEWFUVUYCCQ-UHFFFAOYSA-N

>  <FORMULA>  (4112) 
C10H16O2

>  <EXACT MASS>  (4112) 
168.115029752

>  <MW>  (4112) 
168

>  <ID>  (4112) 
JP004757

>  <CONTRIBUTOR>  (4112) 
University of Tokyo Team, {Faculty of Engineering, University of Tokyo

>  <COMMENT>  (4112) 
SMILES=CC(=O)CC(C)(C1)C(=O)CCC1
InChI=InChI=1S/C10H16O2/c1-8(11)7-10(2)6-4-3-5-9(10)12/h3-7H2,1-2H3
computed SMILES=O=C(C)CC1(C(=O)CCCC1)C
accession=JP004757
date=2016.01.19 (Created 2008.10.21, modified 2011.05.06)
author=MASS SPECTROSCOPY SOC. OF JAPAN (MSSJ)
license=CC BY-NC-SA
exact mass=168.11503
ionization energy=70 eV
ion type=[M]+*
computed spectral entropy=3.1497837003880838
computed normalized entropy=0.8136450914103741
SPLASH=splash10-0006-9300000000-1947cb7d05e51c9f2213
submitter=submitter = University of Tokyo Team (Faculty of Engineering, University of Tokyo)
MoNA Rating=3.75

>  <NUM PEAKS>  (4112) 
48

>  <MASS SPECTRAL PEAKS>  (4112) 
40 17.73
42 16.3
43 99.99
44 10.82
45 1.52
51 1.25
53 4.15
54 2.3
55 35.08
56 4.07
57 2.07
58 6.27
59 2.57
67 10.89
68 3.09
69 10.21
70 2.6
71 2.6
73 2.58
77 1.67
79 3.86
80 1.37
81 8.41
82 15.25
83 7.69
84 5.66
85 7.3
86 1.36
91 2.04
93 6.71
95 2.84
97 8.9
98 4.33
107 4.23
108 4.22
109 3.36
110 8.63
111 57.04
112 6.19
122 3.21
124 6.66
125 10.28
126 3.88
135 4.85
150 3.12
153 2.48
168 13.74
169 1.69

>  <PREDICTED SPECTRUM>  (4112) 
14 14
15 51
16 4
17 14
18 23
26 49
27 224
28 149
29 166
30 24
31 38
32 4
37 23
38 76
39 301
40 174
41 452
42 278
43 999
44 172
45 96
50 71
51 142
52 119
53 288
54 190
55 421
56 166
57 171
58 187
59 24
63 40
64 9
65 117
66 106
67 326
68 224
69 381
70 139
71 218
72 67
77 77
78 10
79 191
80 131
81 292
82 264
83 314
84 175
85 189
86 50
91 70
92 31
93 170
94 66
95 275
96 113
97 260
98 189
99 95
100 18
107 250
108 258
109 179
110 571
111 688
112 281
113 118
121 66
122 93
123 103
124 176
125 493
126 272
127 47
128 6
135 212
136 64
140 31
150 280
151 106
153 169
154 10
168 343
169 119

$$$$

     RDKit          2D

 12 12  0  0  0  0  0  0  0  0999 V2000
    1.3245   -0.6144    0.0000 C   0  0  0  0  0  0  0  0  0  0  0  0
   -5.7147   -0.1086    0.0000 C   0  0  0  0  0  0  0  0  0  0  0  0
   -4.4157    0.6414    0.0000 C   0  0  0  0  0  0  0  0  0  0  0  0
   -5.9383   -1.5919    0.0000 C   0  0  0  0  0  0  0  0  0  0  0  0
   -3.0194    0.0934    0.0000 C   0  0  0  0  0  0  0  0  0  0  0  0
   -4.9180   -2.6915    0.0000 C   0  0  0  0  0  0  0  0  0  0  0  0
   -1.0940   -1.5636    0.0000 C   0  0  0  0  0  0  0  0  0  0  0  0
   -0.1587   -0.3908    0.0000 C   0  0  0  0  0  0  0  0  0  0  0  0
   -2.5772   -1.3400    0.0000 C   0  0  0  0  0  0  0  0  0  0  0  0
   -3.4222   -2.5794    0.0000 C   0  0  0  0  0  0  0  0  0  0  0  0
   -0.7068    1.0055    0.0000 O   0  0  0  0  0  0  0  0  0  0  0  0
   -2.6722   -3.8784    0.0000 O   0  0  0  0  0  0  0  0  0  0  0  0
  3  2  1  0
  4  2  1  0
  5  3  1  0
  6  4  1  0
  8  1  1  0
  8  7  1  0
  9  5  1  0
  9  7  1  0
 10  6  1  0
 10  9  1  0
 11  8  2  0
 12 10  2  0
M  END
>  <NAME>  (4113) 
2-(2-OXOPROPYL)CYCLOHEPTANONE

>  <SYNONYMS>  (4113) 


>  <SPECTRUM TYPE>  (4113) 
MS1

>  <INSTRUMENT TYPE>  (4113) 
EI-B

>  <INSTRUMENT>  (4113) 
JEOL JMS-D-3000

>  <ION MODE>  (4113) 
P

>  <INCHIKEY>  (4113) 
UJSZNPKZSFYPBL-UHFFFAOYSA-N

>  <FORMULA>  (4113) 
C10H16O2

>  <EXACT MASS>  (4113) 
168.115029752

>  <MW>  (4113) 
168

>  <ID>  (4113) 
JP004755

>  <CONTRIBUTOR>  (4113) 
University of Tokyo Team, {Faculty of Engineering, University of Tokyo

>  <COMMENT>  (4113) 
SMILES=CC(=O)CC(C1)C(=O)CCCC1
InChI=InChI=1S/C10H16O2/c1-8(11)7-9-5-3-2-4-6-10(9)12/h9H,2-7H2,1H3
computed SMILES=O=C(C)CC1C(=O)CCCCC1
accession=JP004755
date=2016.01.19 (Created 2008.10.21, modified 2011.05.06)
author=MASS SPECTROSCOPY SOC. OF JAPAN (MSSJ)
license=CC BY-NC-SA
exact mass=168.11503
ionization energy=70 eV
ion type=[M]+*
computed spectral entropy=3.055818421900158
computed normalized entropy=0.9074992445532867
SPLASH=splash10-0006-9400000000-40e5e526f02ead149e7b
submitter=submitter = University of Tokyo Team (Faculty of Engineering, University of Tokyo)
MoNA Rating=3.75

>  <NUM PEAKS>  (4113) 
29

>  <MASS SPECTRAL PEAKS>  (4113) 
40 7.32
41 20.3
43 99.99
55 41
58 11.82
67 10.28
69 10.53
71 9.51
79 14.52
81 8.35
82 7.84
83 11.18
84 7.19
93 7.71
95 7.45
96 14.01
97 15.55
98 35.34
107 9.89
108 11.31
110 9.64
111 40.23
121 15.8
122 9.25
125 20.82
135 11.69
149 10.28
150 26.47
168 20.95

>  <PREDICTED SPECTRUM>  (4113) 
14 31
15 70
16 6
17 15
18 32
25 6
26 101
27 392
28 238
29 332
30 54
31 136
37 26
38 90
39 413
40 193
41 572
42 242
43 999
44 140
45 151
50 75
51 169
52 125
53 327
54 172
55 488
56 142
57 192
58 181
59 14
63 70
64 7
65 182
66 159
67 395
68 228
69 366
70 172
71 256
72 64
77 211
78 98
79 308
80 191
81 372
82 252
83 364
84 198
85 332
86 11
91 240
92 110
93 271
94 131
95 258
96 102
97 435
98 519
99 82
105 67
106 5
107 315
108 233
109 157
110 431
111 656
112 222
113 106
115 5
121 147
122 159
123 169
124 106
125 559
126 240
127 53
128 4
135 254
136 30
139 98
140 107
149 36
150 305
151 122
153 160
168 501
169 212
170 59

$$$$

     RDKit          2D

 10 10  0  0  0  0  0  0  0  0999 V2000
    2.5987    3.0002    0.0000 C   0  0  0  0  0  0  0  0  0  0  0  0
    3.8981    0.7504    0.0000 C   0  0  0  0  0  0  0  0  0  0  0  0
   -2.5989   -1.5002    0.0000 C   0  0  0  0  0  0  0  0  0  0  0  0
   -1.3000    0.7500    0.0000 C   0  0  0  0  0  0  0  0  0  0  0  0
   -0.0000   -1.5000    0.0000 C   0  0  0  0  0  0  0  0  0  0  0  0
    0.0000    1.5000    0.0000 C   0  0  0  0  0  0  0  0  0  0  0  0
    1.3000   -0.7500    0.0000 C   0  0  0  0  0  0  0  0  0  0  0  0
    2.5989    1.5002    0.0000 C   0  0  0  0  0  0  0  0  0  0  0  0
   -1.3000   -0.7500    0.0000 C   0  0  0  0  0  0  0  0  0  0  0  0
    1.3000    0.7500    0.0000 C   0  0  0  0  0  0  0  0  0  0  0  0
  6  4  1  0
  7  5  1  0
  8  1  2  0
  8  2  1  0
  9  3  2  0
  9  4  1  0
  9  5  1  0
 10  6  1  0
 10  7  1  0
 10  8  1  0
M  END
>  <NAME>  (4114) 
PARA-MENTA-1(7),8-DIENE

>  <SYNONYMS>  (4114) 
1-ISOPROPENYL-4-METHYLENECYCLOHEXANE

>  <SPECTRUM TYPE>  (4114) 
MS1

>  <INSTRUMENT TYPE>  (4114) 
EI-B

>  <INSTRUMENT>  (4114) 
JEOL JMS-D-3000

>  <ION MODE>  (4114) 
P

>  <INCHIKEY>  (4114) 
GOQRXDTWKVYHJH-UHFFFAOYSA-N

>  <FORMULA>  (4114) 
C10H16

>  <EXACT MASS>  (4114) 
136.125200512

>  <MW>  (4114) 
136

>  <ID>  (4114) 
JP004754

>  <CONTRIBUTOR>  (4114) 
University of Tokyo Team, {Faculty of Engineering, University of Tokyo

>  <COMMENT>  (4114) 
SMILES=CC(=C)C(C1)CCC(=C)C1
InChI=InChI=1S/C10H16/c1-8(2)10-6-4-9(3)5-7-10/h10H,1,3-7H2,2H3
computed SMILES=C=C1CCC(C(=C)C)CC1
accession=JP004754
date=2016.01.19 (Created 2008.10.21, modified 2011.05.06)
author=MASS SPECTROSCOPY SOC. OF JAPAN (MSSJ)
license=CC BY-NC-SA
exact mass=136.1252
ionization energy=70 eV
ion type=[M]+*
computed spectral entropy=2.559099954085529
computed normalized entropy=0.8853878215127038
SPLASH=splash10-0006-9100000000-0366ad427ff073025058
submitter=submitter = University of Tokyo Team (Faculty of Engineering, University of Tokyo)
MoNA Rating=3.75

>  <NUM PEAKS>  (4114) 
18

>  <MASS SPECTRAL PEAKS>  (4114) 
42 24.72
43 7.1
53 11.44
55 7.87
67 16.42
68 10.28
69 21.15
77 11.88
79 35.26
80 16.55
81 8.2
91 14.16
92 10.94
93 99.99
94 16.3
106 11.08
121 9.81
136 24.61

>  <PREDICTED SPECTRUM>  (4114) 
25 3
26 62
27 319
28 118
29 209
37 31
38 68
39 462
40 203
41 677
42 164
43 158
44 19
49 8
50 128
51 257
52 205
53 471
54 357
55 391
56 125
57 125
59 32
60 19
61 10
62 80
63 134
64 35
65 316
66 282
67 819
68 604
69 289
70 37
74 60
75 61
76 31
77 513
78 292
79 881
80 706
81 781
82 323
83 62
89 65
90 37
91 464
92 274
93 999
94 698
95 508
96 157
102 32
103 49
105 201
106 145
107 508
108 389
109 154
119 97
121 644
122 197
123 24
136 448
137 116

$$$$

     RDKit          2D

 11 12  0  0  0  0  0  0  0  0999 V2000
   -2.7100   -0.0000    0.0000 C   0  0  0  0  0  0  0  0  0  0  0  0
   -2.0600    1.3500    0.0000 C   0  0  0  0  0  0  0  0  0  0  0  0
   -2.0600   -1.3500    0.0000 C   0  0  0  0  0  0  0  0  0  0  0  0
   -0.6000    1.6900    0.0000 C   0  0  0  0  0  0  0  0  0  0  0  0
   -0.6000   -1.6900    0.0000 C   0  0  0  0  0  0  0  0  0  0  0  0
    2.0000    1.2100    0.0000 C   0  0  0  0  0  0  0  0  0  0  0  0
    2.0000   -1.2100    0.0000 C   0  0  0  0  0  0  0  0  0  0  0  0
    0.5700    0.7500    0.0000 C   0  0  0  0  0  0  0  0  0  0  0  0
    0.5700   -0.7500    0.0000 C   0  0  0  0  0  0  0  0  0  0  0  0
    2.8800   -0.0000    0.0000 C   0  0  0  0  0  0  0  0  0  0  0  0
    4.3800   -0.0000    0.0000 O   0  0  0  0  0  0  0  0  0  0  0  0
  2  1  1  0
  3  1  1  0
  4  2  1  0
  5  3  1  0
  8  4  1  0
  8  6  2  0
  9  5  1  0
  9  7  1  0
  9  8  1  0
 10  6  1  0
 10  7  1  0
 11 10  2  0
M  END
>  <NAME>  (4115) 
BICYCLO(5.3.0)DEC-7-EN-9-ONE

>  <SYNONYMS>  (4115) 


>  <SPECTRUM TYPE>  (4115) 
MS1

>  <INSTRUMENT TYPE>  (4115) 
EI-B

>  <INSTRUMENT>  (4115) 
JEOL JMS-D-3000

>  <ION MODE>  (4115) 
P

>  <INCHIKEY>  (4115) 
LPTBBUOSXDRPJK-UHFFFAOYSA-N

>  <FORMULA>  (4115) 
C10H14O

>  <EXACT MASS>  (4115) 
150.104465068

>  <MW>  (4115) 
150

>  <ID>  (4115) 
JP004753

>  <CONTRIBUTOR>  (4115) 
University of Tokyo Team, {Faculty of Engineering, University of Tokyo

>  <COMMENT>  (4115) 
SMILES=O=C(C1)C=C(C2)C(CCCC2)1
InChI=InChI=1S/C10H14O/c11-10-6-8-4-2-1-3-5-9(8)7-10/h6,9H,1-5,7H2
computed SMILES=O=C1C=C2CCCCCC2C1
accession=JP004753
date=2016.01.19 (Created 2008.10.21, modified 2011.05.06)
author=MASS SPECTROSCOPY SOC. OF JAPAN (MSSJ)
license=CC BY-NC-SA
exact mass=150.10447
ionization energy=70 eV
ion type=[M]+*
computed spectral entropy=2.697363226662726
computed normalized entropy=0.8010472981441494
SPLASH=splash10-0uka-2900000000-b13fbdffb134f10eac1f
submitter=submitter = University of Tokyo Team (Faculty of Engineering, University of Tokyo)
MoNA Rating=3.75

>  <NUM PEAKS>  (4115) 
29

>  <MASS SPECTRAL PEAKS>  (4115) 
41 2.41
43 6.74
44 2.13
55 4.45
57 6.73
77 4.6
79 10.27
81 4.31
91 5.99
92 1.88
93 4.29
95 6.69
96 27.1
97 2.1
99 3.8
105 2.07
107 11.83
108 21.28
109 11.93
110 2.76
117 1.88
121 39.34
122 22.38
123 2.31
135 24.14
136 2.41
149 45.37
150 99.99
151 11.36

>  <PREDICTED SPECTRUM>  (4115) 
26 19
27 102
38 10
39 203
40 52
41 229
42 24
43 13
45 31
50 57
51 210
52 128
53 201
54 129
55 194
63 97
64 31
65 186
66 150
67 263
68 196
69 97
77 296
78 194
79 380
80 259
81 301
82 234
83 91
91 343
92 98
93 226
94 221
95 300
96 237
97 53
103 78
104 22
105 152
106 52
107 494
108 532
109 445
110 179
117 69
119 95
120 17
121 680
122 586
123 162
131 4
133 37
135 547
136 173
149 477
150 999
151 312
152 30

$$$$

     RDKit          2D

 11 11  0  0  0  0  0  0  0  0999 V2000
   -2.5989   -1.5002    0.0000 C   0  0  0  0  0  0  0  0  0  0  0  0
    5.1970    1.5006    0.0000 C   0  0  0  0  0  0  0  0  0  0  0  0
   -1.3000    0.7500    0.0000 C   0  0  0  0  0  0  0  0  0  0  0  0
   -0.0000   -1.5000    0.0000 C   0  0  0  0  0  0  0  0  0  0  0  0
    0.0000    1.5000    0.0000 C   0  0  0  0  0  0  0  0  0  0  0  0
    1.3000   -0.7500    0.0000 C   0  0  0  0  0  0  0  0  0  0  0  0
   -1.3000   -0.7500    0.0000 C   0  0  0  0  0  0  0  0  0  0  0  0
    1.3000    0.7500    0.0000 C   0  0  0  0  0  0  0  0  0  0  0  0
    2.5989    1.5002    0.0000 C   0  0  0  0  0  0  0  0  0  0  0  0
    2.5987    3.0002    0.0000 O   0  0  0  0  0  0  0  0  0  0  0  0
    3.8981    0.7504    0.0000 O   0  0  0  0  0  0  0  0  0  0  0  0
  5  3  1  0
  6  4  1  0
  7  1  2  0
  7  3  1  0
  7  4  1  0
  8  5  1  0
  8  6  1  0
  9  8  1  0
 10  9  2  0
 11  2  1  0
 11  9  1  0
M  END
>  <NAME>  (4116) 
METHYL 4-METHYLENECYCLOHEXANECARBOXYLATE

>  <SYNONYMS>  (4116) 


>  <SPECTRUM TYPE>  (4116) 
MS1

>  <INSTRUMENT TYPE>  (4116) 
EI-B

>  <INSTRUMENT>  (4116) 
JEOL JMS-D-3000

>  <ION MODE>  (4116) 
P

>  <INCHIKEY>  (4116) 
SYRKANZKKKAWNJ-UHFFFAOYSA-N

>  <FORMULA>  (4116) 
C9H14O2

>  <EXACT MASS>  (4116) 
154.099379688

>  <MW>  (4116) 
154

>  <ID>  (4116) 
JP004750

>  <CONTRIBUTOR>  (4116) 
University of Tokyo Team, {Faculty of Engineering, University of Tokyo

>  <COMMENT>  (4116) 
SMILES=COC(=O)C(C1)CCC(=C)C1
InChI=InChI=1S/C9H14O2/c1-7-3-5-8(6-4-7)9(10)11-2/h8H,1,3-6H2,2H3
computed SMILES=O=C(OC)C1CCC(=C)CC1
accession=JP004750
date=2016.01.19 (Created 2008.10.21, modified 2011.05.06)
author=MASS SPECTROSCOPY SOC. OF JAPAN (MSSJ)
license=CC BY-NC-SA
exact mass=154.09938
ionization energy=70 eV
ion type=[M]+*
computed spectral entropy=2.812011381939142
computed normalized entropy=0.767562184987355
SPLASH=splash10-000g-9100000000-594f493605fd4b954e02
submitter=submitter = University of Tokyo Team (Faculty of Engineering, University of Tokyo)
MoNA Rating=3.75

>  <NUM PEAKS>  (4116) 
39

>  <MASS SPECTRAL PEAKS>  (4116) 
40 3.28
42 13.83
43 1.71
45 1.36
51 2.6
52 1.67
53 8.71
54 3.62
55 29.96
56 1.37
59 4.67
63 1.01
65 3.7
66 2.91
67 15.99
68 19.61
69 2.12
77 8.07
78 2.01
79 33.36
80 5.43
81 2.44
87 58.63
88 2.71
91 5.15
92 1.15
93 9.47
94 99.99
95 57.62
96 4.19
107 1.09
111 1.39
122 27.77
123 14.14
124 1.26
125 1.23
139 2.12
154 10.21
155 1.13

>  <PREDICTED SPECTRUM>  (4116) 
15 4
26 42
27 261
28 43
29 204
31 63
33 30
38 40
39 290
40 102
41 425
42 101
43 173
44 8
45 146
50 66
51 150
52 101
53 280
54 154
55 450
57 21
59 230
61 31
63 20
65 159
66 253
67 424
68 268
69 52
70 6
71 40
74 172
75 44
77 369
78 152
79 599
80 308
81 339
82 57
83 56
86 11
87 473
88 133
91 202
92 48
93 340
94 999
95 878
96 242
97 38
98 55
99 2
100 95
107 63
111 97
112 54
113 28
122 447
123 345
124 63
139 109
154 363
155 75

$$$$

     RDKit          2D

 11 10  0  0  0  0  0  0  0  0999 V2000
    2.1863    4.2623    0.0000 C   0  0  0  0  0  0  0  0  0  0  0  0
   -6.3579    5.5613    0.0000 C   0  0  0  0  0  0  0  0  0  0  0  0
   -6.9070    3.5123    0.0000 C   0  0  0  0  0  0  0  0  0  0  0  0
   -4.8579    2.9632    0.0000 C   0  0  0  0  0  0  0  0  0  0  0  0
    0.8873    5.0123    0.0000 C   0  0  0  0  0  0  0  0  0  0  0  0
   -1.7108    5.0123    0.0000 C   0  0  0  0  0  0  0  0  0  0  0  0
   -4.3089    5.0123    0.0000 C   0  0  0  0  0  0  0  0  0  0  0  0
   -3.0099    4.2623    0.0000 C   0  0  0  0  0  0  0  0  0  0  0  0
   -3.0099    2.7623    0.0000 O   0  0  0  0  0  0  0  0  0  0  0  0
   -0.4118    4.2623    0.0000 O   0  0  0  0  0  0  0  0  0  0  0  0
   -5.6079    4.2623    0.0000 Si  0  0  0  0  0  4  0  0  0  0  0  0
  5  1  1  0
  8  6  1  0
  8  7  1  0
  9  8  2  0
 10  5  1  0
 10  6  1  0
 11  2  1  0
 11  3  1  0
 11  4  1  0
 11  7  1  0
M  END
>  <NAME>  (4117) 
1-ETHOXY-3-TRIMETHYLSILYL-2-PROPANONE

>  <SYNONYMS>  (4117) 


>  <SPECTRUM TYPE>  (4117) 
MS1

>  <INSTRUMENT TYPE>  (4117) 
EI-B

>  <INSTRUMENT>  (4117) 
JEOL JMS-D-3000

>  <ION MODE>  (4117) 
P

>  <INCHIKEY>  (4117) 
DRFOZBMDVDTHMQ-UHFFFAOYSA-N

>  <FORMULA>  (4117) 
C8H18O2Si

>  <EXACT MASS>  (4117) 
174.107606346

>  <MW>  (4117) 
174

>  <ID>  (4117) 
JP004749

>  <CONTRIBUTOR>  (4117) 
University of Tokyo Team, {Faculty of Engineering, University of Tokyo

>  <COMMENT>  (4117) 
SMILES=CCOCC(=O)C[Si](C)(C)C
InChI=InChI=1S/C8H18O2Si/c1-5-10-6-8(9)7-11(2,3)4/h5-7H2,1-4H3
computed SMILES=O=C(COCC)C[Si](C)(C)C
accession=JP004749
date=2016.01.19 (Created 2008.10.21, modified 2011.05.06)
author=MASS SPECTROSCOPY SOC. OF JAPAN (MSSJ)
license=CC BY-NC-SA
exact mass=174.10761
ionization energy=70 eV
ion type=[M]+*
computed spectral entropy=1.630474350238323
computed normalized entropy=0.6020842411173544
SPLASH=splash10-014i-1900000000-f7181051d5c42d13662e
submitter=submitter = University of Tokyo Team (Faculty of Engineering, University of Tokyo)
MoNA Rating=3.75

>  <NUM PEAKS>  (4117) 
15

>  <MASS SPECTRAL PEAKS>  (4117) 
58 2
59 1.73
73 20.13
74 1.89
75 6.28
103 1.58
115 99.99
116 11.98
117 5.09
129 1.29
130 26.82
131 3.93
132 1.45
159 1.94
174 0.21

>  <PREDICTED SPECTRUM>  (4117) 
27 9
31 100
42 11
43 111
44 101
45 200
53 13
59 209
60 7
61 48
69 35
70 37
71 50
72 112
73 463
74 108
75 223
76 5
89 9
115 999
116 332
117 229
129 42
130 422
131 286
132 98
145 121
159 185
160 24
174 204
175 38

$$$$

     RDKit          2D

 11 10  0  0  0  0  0  0  0  0999 V2000
    2.1863    4.2623    0.0000 C   0  0  0  0  0  0  0  0  0  0  0  0
   -3.0099    2.7623    0.0000 C   0  0  0  0  0  0  0  0  0  0  0  0
   -6.3579    5.5613    0.0000 C   0  0  0  0  0  0  0  0  0  0  0  0
   -6.9070    3.5123    0.0000 C   0  0  0  0  0  0  0  0  0  0  0  0
   -4.8579    2.9632    0.0000 C   0  0  0  0  0  0  0  0  0  0  0  0
    0.8873    5.0123    0.0000 C   0  0  0  0  0  0  0  0  0  0  0  0
   -1.7108    5.0123    0.0000 C   0  0  0  0  0  0  0  0  0  0  0  0
   -3.0099    4.2623    0.0000 C   0  0  0  0  0  0  0  0  0  0  0  0
   -0.4118    4.2623    0.0000 O   0  0  0  0  0  0  0  0  0  0  0  0
   -4.3089    5.0123    0.0000 O   0  0  0  0  0  0  0  0  0  0  0  0
   -5.6079    4.2623    0.0000 Si  0  0  0  0  0  4  0  0  0  0  0  0
  6  1  1  0
  8  2  2  0
  8  7  1  0
  9  6  1  0
  9  7  1  0
 10  8  1  0
 11  3  1  0
 11  4  1  0
 11  5  1  0
 11 10  1  0
M  END
>  <NAME>  (4118) 
3-ETHOXY-2-TRIMETHYLSILOXYPROPENE

>  <SYNONYMS>  (4118) 


>  <SPECTRUM TYPE>  (4118) 
MS1

>  <INSTRUMENT TYPE>  (4118) 
EI-B

>  <INSTRUMENT>  (4118) 
JEOL JMS-D-3000

>  <ION MODE>  (4118) 
P

>  <INCHIKEY>  (4118) 
CRMAIVBWLODODC-UHFFFAOYSA-N

>  <FORMULA>  (4118) 
C8H18O2Si

>  <EXACT MASS>  (4118) 
174.10760634599998

>  <MW>  (4118) 
174

>  <ID>  (4118) 
JP004748

>  <CONTRIBUTOR>  (4118) 
University of Tokyo Team, {Faculty of Engineering, University of Tokyo

>  <COMMENT>  (4118) 
SMILES=CCOCC(=C)O[Si](C)(C)C
InChI=InChI=1S/C8H18O2Si/c1-6-9-7-8(2)10-11(3,4)5/h2,6-7H2,1,3-5H3
computed SMILES=O(C(=C)COCC)[Si](C)(C)C
accession=JP004748
date=2016.01.19 (Created 2008.10.21, modified 2011.05.06)
author=MASS SPECTROSCOPY SOC. OF JAPAN (MSSJ)
license=CC BY-NC-SA
exact mass=174.10761
ionization energy=70 eV
ion type=[M]+*
computed spectral entropy=2.032318398906739
computed normalized entropy=0.7700925539207689
SPLASH=splash10-001i-2900000000-c65b1a36448fcfe82525
submitter=submitter = University of Tokyo Team (Faculty of Engineering, University of Tokyo)
MoNA Rating=3.75

>  <NUM PEAKS>  (4118) 
14

>  <MASS SPECTRAL PEAKS>  (4118) 
18 7.63
32 7.62
73 20.8
75 18.48
115 54.51
116 6.18
117 3.47
130 99.99
131 14.94
132 4.48
145 8.84
147 3.78
174 17.92
175 2.26

>  <PREDICTED SPECTRUM>  (4118) 
27 16
31 34
43 29
44 55
45 182
47 38
52 2
53 22
54 31
56 5
57 57
59 92
61 44
67 0
69 8
72 55
73 466
74 114
75 295
77 34
88 23
89 8
101 36
102 101
103 12
115 744
116 231
117 119
130 999
131 372
132 104
145 165
159 166
160 38
174 384
175 123
176 24

$$$$

     RDKit          2D

 10  9  0  0  0  0  0  0  0  0999 V2000
   -4.4596    3.2243    0.0000 C   0  0  0  0  0  0  0  0  0  0  0  0
    1.4865    1.9252    0.0000 C   0  0  0  0  0  0  0  0  0  0  0  0
    2.0356    3.9743    0.0000 C   0  0  0  0  0  0  0  0  0  0  0  0
   -0.0135    4.5233    0.0000 C   0  0  0  0  0  0  0  0  0  0  0  0
   -1.8615    3.2243    0.0000 C   0  0  0  0  0  0  0  0  0  0  0  0
   -3.1606    2.4743    0.0000 C   0  0  0  0  0  0  0  0  0  0  0  0
   -0.5625    2.4743    0.0000 C   0  0  0  0  0  0  0  0  0  0  0  0
    0.7365    3.2243    0.0000 C   0  0  0  0  0  0  0  0  0  0  0  0
   -3.1606    0.9743    0.0000 O   0  0  0  0  0  0  0  0  0  0  0  0
   -0.5625    0.9743    0.0000 O   0  0  0  0  0  0  0  0  0  0  0  0
  6  1  1  0
  6  5  1  0
  7  5  1  0
  8  2  1  0
  8  3  1  0
  8  4  1  0
  8  7  1  0
  9  6  2  0
 10  7  2  0
M  END
>  <NAME>  (4119) 
5,5-DIMETHYLHEXAN-2,4-DIONE

>  <SYNONYMS>  (4119) 


>  <SPECTRUM TYPE>  (4119) 
MS1

>  <INSTRUMENT TYPE>  (4119) 
EI-B

>  <INSTRUMENT>  (4119) 
JEOL JMS-D-3000

>  <ION MODE>  (4119) 
P

>  <INCHIKEY>  (4119) 
LCLCVVVHIPPHCG-UHFFFAOYSA-N

>  <FORMULA>  (4119) 
C8H14O2

>  <EXACT MASS>  (4119) 
142.099379688

>  <MW>  (4119) 
142

>  <ID>  (4119) 
JP004747

>  <CONTRIBUTOR>  (4119) 
University of Tokyo Team, {Faculty of Engineering, University of Tokyo

>  <COMMENT>  (4119) 
cas=7307-04-2
InChI=InChI=1S/C8H14O2/c1-6(9)5-7(10)8(2,3)4/h5H2,1-4H3
SMILES=CC(=O)CC(=O)C(C)(C)C
computed SMILES=O=C(C)CC(=O)C(C)(C)C
accession=JP004747
date=2016.01.19 (Created 2008.10.21, modified 2011.05.06)
author=MASS SPECTROSCOPY SOC. OF JAPAN (MSSJ)
license=CC BY-NC-SA
exact mass=142.09938
ionization energy=70 eV
ion type=[M]+*
computed spectral entropy=2.6044157079160324
computed normalized entropy=0.7993672616888126
SPLASH=splash10-052o-9100000000-3fcb4be8549999c686c1
submitter=submitter = University of Tokyo Team (Faculty of Engineering, University of Tokyo)
MoNA Rating=3.75

>  <NUM PEAKS>  (4119) 
26

>  <MASS SPECTRAL PEAKS>  (4119) 
18 7.39
28 9.86
29 6.84
41 17.68
42 2.73
43 70.1
55 4.11
56 14.74
57 98.9
58 20.3
59 6.57
69 7.27
71 9.76
83 3.38
84 30.09
85 99.99
86 19.47
87 5.27
98 4.38
99 5.36
112 4.2
113 2.22
114 13.13
127 5.28
142 56.49
143 5.3

>  <PREDICTED SPECTRUM>  (4119) 
14 46
15 186
16 14
17 10
18 31
25 3
26 95
27 402
28 208
29 503
30 94
31 148
38 77
39 453
40 174
41 718
42 338
43 999
44 134
45 157
51 81
53 170
54 26
55 139
56 94
57 828
58 370
59 115
67 126
68 42
69 356
70 131
71 137
72 46
81 10
82 22
84 103
85 897
86 221
87 33
99 161
100 131
101 11
127 171
142 512
143 187
144 0

$$$$

     RDKit          2D

 11 10  0  0  0  0  0  0  0  0999 V2000
    2.9228    3.1875    0.0000 C   0  0  0  0  0  0  0  0  0  0  0  0
    1.6238    5.4375    0.0000 C   0  0  0  0  0  0  0  0  0  0  0  0
   -6.1704    3.9375    0.0000 C   0  0  0  0  0  0  0  0  0  0  0  0
    0.3248    3.1875    0.0000 C   0  0  0  0  0  0  0  0  0  0  0  0
   -2.2733    3.1875    0.0000 C   0  0  0  0  0  0  0  0  0  0  0  0
    1.6238    3.9375    0.0000 C   0  0  0  0  0  0  0  0  0  0  0  0
   -0.9743    3.9375    0.0000 C   0  0  0  0  0  0  0  0  0  0  0  0
   -3.5724    3.9375    0.0000 C   0  0  0  0  0  0  0  0  0  0  0  0
   -0.9743    5.4375    0.0000 O   0  0  0  0  0  0  0  0  0  0  0  0
   -3.5724    5.4375    0.0000 O   0  0  0  0  0  0  0  0  0  0  0  0
   -4.8714    3.1875    0.0000 O   0  0  0  0  0  0  0  0  0  0  0  0
  6  1  1  0
  6  2  1  0
  6  4  2  0
  7  4  1  0
  7  5  1  0
  8  5  1  0
  9  7  2  0
 10  8  2  0
 11  3  1  0
 11  8  1  0
M  END
>  <NAME>  (4120) 
METHYL 5-METHYL-3-KETO-4-HEXENOATE

>  <SYNONYMS>  (4120) 


>  <SPECTRUM TYPE>  (4120) 
MS1

>  <INSTRUMENT TYPE>  (4120) 
EI-B

>  <INSTRUMENT>  (4120) 
JEOL JMS-D-3000

>  <ION MODE>  (4120) 
P

>  <INCHIKEY>  (4120) 
BRUOTCVCYPVYPM-UHFFFAOYSA-N

>  <FORMULA>  (4120) 
C8H12O3

>  <EXACT MASS>  (4120) 
156.07864424399997

>  <MW>  (4120) 
156

>  <ID>  (4120) 
JP004746

>  <CONTRIBUTOR>  (4120) 
University of Tokyo Team, {Faculty of Engineering, University of Tokyo

>  <COMMENT>  (4120) 
SMILES=COC(=O)CC(=O)C=C(C)C
InChI=InChI=1S/C8H12O3/c1-6(2)4-7(9)5-8(10)11-3/h4H,5H2,1-3H3
computed SMILES=O=C(OC)CC(=O)C=C(C)C
accession=JP004746
date=2016.01.19 (Created 2008.10.21, modified 2011.05.06)
author=MASS SPECTROSCOPY SOC. OF JAPAN (MSSJ)
license=CC BY-NC-SA
exact mass=156.07864
ionization energy=70 eV
ion type=[M]+*
computed spectral entropy=2.509877616321999
computed normalized entropy=0.7379394179985606
SPLASH=splash10-001i-9000000000-4c39713ab49ee8855d01
submitter=submitter = University of Tokyo Team (Faculty of Engineering, University of Tokyo)
MoNA Rating=3.75

>  <NUM PEAKS>  (4120) 
30

>  <MASS SPECTRAL PEAKS>  (4120) 
41 5.37
42 2
43 17.29
44 6.04
50 1.84
51 2.71
52 1.06
53 7.48
54 3.18
55 56.77
56 3.24
59 1.84
67 2.4
69 7.51
77 1.17
79 1.5
81 1.86
82 18.15
83 99.99
84 5.94
95 3.62
96 13.1
98 26.85
99 2.12
101 2.04
123 2.28
124 10.93
125 2.25
141 3.1
156 8.28

>  <PREDICTED SPECTRUM>  (4120) 
15 20
26 0
27 125
28 2
29 150
32 15
38 22
39 292
40 85
41 240
42 172
43 384
44 38
50 33
51 95
52 49
53 248
54 236
55 677
56 175
57 95
59 78
65 10
66 6
67 183
68 79
69 66
73 59
79 18
81 127
82 521
83 999
84 171
95 107
96 330
97 145
98 87
100 36
101 109
124 280
125 183
138 25
141 94
156 263
157 14

$$$$

     RDKit          2D

  9  9  0  0  0  0  0  0  0  0999 V2000
    0.0000    2.7800    0.0000 C   0  0  0  0  0  0  0  0  0  0  0  0
    1.6322   -2.2431    0.0000 C   0  0  0  0  0  0  0  0  0  0  0  0
   -2.6377    0.8500    0.0000 C   0  0  0  0  0  0  0  0  0  0  0  0
    1.2100    0.3900    0.0000 C   0  0  0  0  0  0  0  0  0  0  0  0
    0.0000    1.2800    0.0000 C   0  0  0  0  0  0  0  0  0  0  0  0
    0.7500   -1.0300    0.0000 C   0  0  0  0  0  0  0  0  0  0  0  0
   -1.2100    0.3900    0.0000 C   0  0  0  0  0  0  0  0  0  0  0  0
   -0.7500   -1.0300    0.0000 C   0  0  0  0  0  0  0  0  0  0  0  0
   -1.6322   -2.2431    0.0000 O   0  0  0  0  0  0  0  0  0  0  0  0
  5  1  1  0
  5  4  1  0
  6  2  1  0
  6  4  1  0
  7  3  1  0
  7  5  2  0
  8  6  1  0
  8  7  1  0
  9  8  2  0
M  END
>  <NAME>  (4121) 
2,3,5-TRIMETHYLCYCLOPENT-2-ENONE

>  <SYNONYMS>  (4121) 


>  <SPECTRUM TYPE>  (4121) 
MS1

>  <INSTRUMENT TYPE>  (4121) 
EI-B

>  <INSTRUMENT>  (4121) 
JEOL JMS-D-3000

>  <ION MODE>  (4121) 
P

>  <INCHIKEY>  (4121) 
HNZWNWPTJZTRTK-UHFFFAOYSA-N

>  <FORMULA>  (4121) 
C8H12O

>  <EXACT MASS>  (4121) 
124.088815004

>  <MW>  (4121) 
124

>  <ID>  (4121) 
JP004745

>  <CONTRIBUTOR>  (4121) 
University of Tokyo Team, {Faculty of Engineering, University of Tokyo

>  <COMMENT>  (4121) 
SMILES=CC(C1)=C(C)C(=O)C(C)1
InChI=InChI=1S/C8H12O/c1-5-4-6(2)8(9)7(5)3/h6H,4H2,1-3H3
computed SMILES=O=C1C(=C(C)CC1C)C
accession=JP004745
date=2016.01.19 (Created 2008.10.21, modified 2011.05.06)
author=MASS SPECTROSCOPY SOC. OF JAPAN (MSSJ)
license=CC BY-NC-SA
exact mass=124.08882
ionization energy=70 eV
ion type=[M]+*
computed spectral entropy=2.7776134407600477
computed normalized entropy=0.833566316916726
SPLASH=splash10-0a4i-9600000000-7919e132429a553a629a
submitter=submitter = University of Tokyo Team (Faculty of Engineering, University of Tokyo)
MoNA Rating=3.75

>  <NUM PEAKS>  (4121) 
28

>  <MASS SPECTRAL PEAKS>  (4121) 
41 20.84
42 5.19
43 46.52
50 3
51 6.43
52 3.89
53 17.72
54 12.62
55 12.02
56 3.27
57 38.56
65 3.71
67 18.09
68 5.48
71 4.84
77 4.09
79 11.86
81 55.27
82 4.51
85 3.49
95 3.69
96 15.46
109 99.99
110 7.48
113 21.42
123 8.52
124 63.76
125 6.1

>  <PREDICTED SPECTRUM>  (4121) 
27 45
38 58
39 293
40 136
41 467
42 85
43 537
44 58
50 126
51 227
52 176
53 438
54 247
55 208
56 121
57 6
62 14
63 64
65 173
66 66
67 450
68 171
69 98
70 16
77 203
78 25
79 295
80 79
81 692
82 145
91 84
95 213
96 337
97 81
106 40
107 55
109 999
110 205
123 170
124 741
125 163

$$$$

     RDKit          2D

 12 11  0  0  0  0  0  0  0  0999 V2000
    2.2733    4.3125    0.0000 C   0  0  0  0  0  0  0  0  0  0  0  0
   -6.8200    5.0625    0.0000 C   0  0  0  0  0  0  0  0  0  0  0  0
    0.9743    5.0625    0.0000 C   0  0  0  0  0  0  0  0  0  0  0  0
   -4.2219    5.0625    0.0000 C   0  0  0  0  0  0  0  0  0  0  0  0
   -2.9228    2.8125    0.0000 C   0  0  0  0  0  0  0  0  0  0  0  0
   -5.5209    4.3125    0.0000 C   0  0  0  0  0  0  0  0  0  0  0  0
   -2.9228    4.3125    0.0000 C   0  0  0  0  0  0  0  0  0  0  0  0
   -1.6238    5.0625    0.0000 C   0  0  0  0  0  0  0  0  0  0  0  0
   -2.9228    1.3125    0.0000 N   0  0  0  0  0  0  0  0  0  0  0  0
   -5.5209    2.8125    0.0000 O   0  0  0  0  0  0  0  0  0  0  0  0
   -1.6238    6.5625    0.0000 O   0  0  0  0  0  0  0  0  0  0  0  0
   -0.3248    4.3125    0.0000 O   0  0  0  0  0  0  0  0  0  0  0  0
  3  1  1  0
  6  2  1  0
  6  4  1  0
  7  4  1  0
  7  5  1  0
  8  7  1  0
  9  5  3  0
 10  6  2  0
 11  8  2  0
 12  3  1  0
 12  8  1  0
M  END
>  <NAME>  (4122) 
ETHYL ALPHA-CYANO-GAMMA-KETOVALERATE

>  <SYNONYMS>  (4122) 


>  <SPECTRUM TYPE>  (4122) 
MS1

>  <INSTRUMENT TYPE>  (4122) 
EI-B

>  <INSTRUMENT>  (4122) 
JEOL JMS-D-3000

>  <ION MODE>  (4122) 
P

>  <INCHIKEY>  (4122) 
WCOOHFKTZREKRW-UHFFFAOYSA-N

>  <FORMULA>  (4122) 
C8H11NO3

>  <EXACT MASS>  (4122) 
169.07389321199997

>  <MW>  (4122) 
169

>  <ID>  (4122) 
JP004744

>  <CONTRIBUTOR>  (4122) 
University of Tokyo Team, {Faculty of Engineering, University of Tokyo

>  <COMMENT>  (4122) 
SMILES=CCOC(=O)C(C#N)CC(C)=O
InChI=InChI=1S/C8H11NO3/c1-3-12-8(11)7(5-9)4-6(2)10/h7H,3-4H2,1-2H3
computed SMILES=N#CC(C(=O)OCC)CC(=O)C
accession=JP004744
date=2016.01.19 (Created 2008.10.21, modified 2011.05.06)
author=MASS SPECTROSCOPY SOC. OF JAPAN (MSSJ)
license=CC BY-NC-SA
exact mass=169.07389
ionization energy=70 eV
ion type=[M]+*
computed spectral entropy=1.5457978636156848
computed normalized entropy=0.5348093577903057
SPLASH=splash10-0006-9100000000-ad7398f4976d5aa0111c
submitter=submitter = University of Tokyo Team (Faculty of Engineering, University of Tokyo)
MoNA Rating=3.75

>  <NUM PEAKS>  (4122) 
18

>  <MASS SPECTRAL PEAKS>  (4122) 
41 2.75
42 99.99
43 1.16
44 1.74
50 2.52
51 1.52
52 20.57
53 1.96
80 1.57
82 1.38
96 1.63
98 4.35
106 1.42
123 1.22
124 13.19
126 1.34
152 1.91
169 2.83

>  <PREDICTED SPECTRUM>  (4122) 
14 22
15 65
16 7
25 17
26 52
27 93
28 81
29 237
38 65
39 212
40 127
41 222
42 360
43 999
44 145
45 68
50 12
51 116
52 223
53 301
54 304
55 267
56 82
57 16
65 49
66 176
67 49
68 6
70 73
71 32
80 125
81 169
82 180
83 159
84 52
92 113
95 87
96 212
97 154
98 163
99 120
108 78
109 36
110 16
111 79
112 119
113 75
124 324
125 77
126 108
127 26
140 64
169 293
170 120

$$$$

     RDKit          2D

 10 10  0  0  0  0  0  0  0  0999 V2000
   -0.0682   -0.8923    0.0000 C   0  0  0  0  0  0  0  0  0  0  0  0
    0.8959    0.7777    0.0000 C   0  0  0  0  0  0  0  0  0  0  0  0
   -4.6566    0.7777    0.0000 C   0  0  0  0  0  0  0  0  0  0  0  0
   -3.6924   -0.8923    0.0000 C   0  0  0  0  0  0  0  0  0  0  0  0
   -1.8803    2.7673    0.0000 C   0  0  0  0  0  0  0  0  0  0  0  0
   -0.5813    2.0173    0.0000 C   0  0  0  0  0  0  0  0  0  0  0  0
   -3.1794    2.0173    0.0000 C   0  0  0  0  0  0  0  0  0  0  0  0
   -1.8803   -0.2327    0.0000 N   0  0  0  0  0  0  0  0  0  0  0  0
   -0.5813    0.5173    0.0000 Si  0  0  0  0  0  4  0  0  0  0  0  0
   -3.1794    0.5173    0.0000 Si  0  0  0  0  0  4  0  0  0  0  0  0
  6  5  1  0
  7  5  1  0
  9  1  1  0
  9  2  1  0
  9  6  1  0
  9  8  1  0
 10  3  1  0
 10  4  1  0
 10  7  1  0
 10  8  1  0
M  END
>  <NAME>  (4123) 
2,2,6,6-TETRAMETHYL-2,6-DISILAPIPERIDINE

>  <SYNONYMS>  (4123) 


>  <SPECTRUM TYPE>  (4123) 
MS1

>  <INSTRUMENT TYPE>  (4123) 
EI-B

>  <INSTRUMENT>  (4123) 
JEOL JMS-D-3000

>  <ION MODE>  (4123) 
P

>  <INCHIKEY>  (4123) 
VVNWHIYYCOBFMW-UHFFFAOYSA-N

>  <FORMULA>  (4123) 
C7H19NSi2

>  <EXACT MASS>  (4123) 
173.105602668

>  <MW>  (4123) 
173

>  <ID>  (4123) 
JP004743

>  <CONTRIBUTOR>  (4123) 
University of Tokyo Team, {Faculty of Engineering, University of Tokyo

>  <COMMENT>  (4123) 
SMILES=C[Si](C)(C1)N[Si](C)(C)CC1
InChI=InChI=1S/C7H19NSi2/c1-9(2)6-5-7-10(3,4)8-9/h8H,5-7H2,1-4H3
computed SMILES=N1[Si](C)(C)CCC[Si]1(C)C
accession=JP004743
date=2016.01.19 (Created 2008.10.21, modified 2011.05.06)
author=MASS SPECTROSCOPY SOC. OF JAPAN (MSSJ)
license=CC BY-NC-SA
exact mass=173.1056
ionization energy=70 eV
ion type=[M]+*
computed spectral entropy=1.425412140163464
computed normalized entropy=0.7325169360237229
SPLASH=splash10-0a4i-0900000000-d48db79dd18dacdf6079
submitter=submitter = University of Tokyo Team (Faculty of Engineering, University of Tokyo)
MoNA Rating=3.75

>  <NUM PEAKS>  (4123) 
7

>  <MASS SPECTRAL PEAKS>  (4123) 
57 8.62
116 8.06
130 27.1
158 99.99
159 18.29
160 7.98
173 9.78

>  <PREDICTED SPECTRUM>  (4123) 
43 2
45 52
59 142
73 139
75 1
101 23
102 70
115 35
116 78
117 16
118 17
130 233
131 60
142 45
144 34
158 999
159 406
160 266
173 211
174 54

$$$$

     RDKit          2D

  9  9  0  0  0  0  0  0  0  0999 V2000
    1.1480    1.5688    0.0000 C   0  0  0  0  0  0  0  0  0  0  0  0
   -0.3438    2.9120    0.0000 C   0  0  0  0  0  0  0  0  0  0  0  0
   -3.7447    0.9485    0.0000 C   0  0  0  0  0  0  0  0  0  0  0  0
   -3.3273   -1.0151    0.0000 C   0  0  0  0  0  0  0  0  0  0  0  0
   -0.0319   -0.0552    0.0000 C   0  0  0  0  0  0  0  0  0  0  0  0
   -1.3309   -0.8052    0.0000 C   0  0  0  0  0  0  0  0  0  0  0  0
   -1.8355    1.5688    0.0000 N   0  0  0  0  0  0  0  0  0  0  0  0
   -0.3438    1.4120    0.0000 Si  0  0  0  0  0  4  0  0  0  0  0  0
   -2.4456    0.1985    0.0000 Si  0  0  0  0  0  4  0  0  0  0  0  0
  6  5  1  0
  8  1  1  0
  8  2  1  0
  8  5  1  0
  8  7  1  0
  9  3  1  0
  9  4  1  0
  9  6  1  0
  9  7  1  0
M  END
>  <NAME>  (4124) 
2,2,5,5-TETRAMETHYL-2,5-DISILAPYRROLIDINE

>  <SYNONYMS>  (4124) 


>  <SPECTRUM TYPE>  (4124) 
MS1

>  <INSTRUMENT TYPE>  (4124) 
EI-B

>  <INSTRUMENT>  (4124) 
JEOL JMS-D-3000

>  <ION MODE>  (4124) 
P

>  <INCHIKEY>  (4124) 
IPKOJSMGLIKFLO-UHFFFAOYSA-N

>  <FORMULA>  (4124) 
C6H17NSi2

>  <EXACT MASS>  (4124) 
159.089952604

>  <MW>  (4124) 
159

>  <ID>  (4124) 
JP004742

>  <CONTRIBUTOR>  (4124) 
University of Tokyo Team, {Faculty of Engineering, University of Tokyo

>  <COMMENT>  (4124) 
SMILES=C[Si](C)(C1)N[Si](C)(C)C1
InChI=InChI=1S/C6H17NSi2/c1-8(2)5-6-9(3,4)7-8/h7H,5-6H2,1-4H3
computed SMILES=N1[Si](C)(C)CC[Si]1(C)C
accession=JP004742
date=2016.01.19 (Created 2008.10.21, modified 2011.05.06)
author=MASS SPECTROSCOPY SOC. OF JAPAN (MSSJ)
license=CC BY-NC-SA
exact mass=159.08995
ionization energy=70 eV
ion type=[M]+*
computed spectral entropy=2.368983410133312
computed normalized entropy=0.7454195355381839
SPLASH=splash10-0006-2900000000-6ecfe08357ebc65b522b
submitter=submitter = University of Tokyo Team (Faculty of Engineering, University of Tokyo)
MoNA Rating=3.75

>  <NUM PEAKS>  (4124) 
24

>  <MASS SPECTRAL PEAKS>  (4124) 
45 3.64
51 2.58
52 2.9
57 3.45
59 6.97
64 7.32
66 3.16
70 3.03
72 2.35
73 13.1
74 2.26
86 2.45
100 9.81
102 2.35
116 26.83
117 13.07
118 4.19
130 3.55
132 2.22
144 99.99
145 25.83
146 9.58
159 6.26
160 2.71

>  <PREDICTED SPECTRUM>  (4124) 
26 13
27 49
28 46
29 64
30 43
31 42
39 7
41 24
42 56
43 119
44 127
45 204
46 26
47 1
55 0
56 29
58 47
59 213
60 38
61 49
67 15
68 6
72 117
73 382
74 85
75 58
77 20
83 29
84 66
85 28
86 65
87 36
88 30
89 40
91 9
100 103
101 76
102 115
103 35
114 51
115 64
116 343
117 153
118 53
128 74
130 141
131 27
132 10
144 999
145 403
146 269
147 54
158 0
159 178
160 96
161 12

$$$$

     RDKit          2D

  8  7  0  0  0  0  0  0  0  0999 V2000
    1.6740    0.1005    0.0000 C   0  0  0  0  0  0  0  0  0  0  0  0
   -0.9240    1.6005    0.0000 C   0  0  0  0  0  0  0  0  0  0  0  0
   -0.3750   -0.4486    0.0000 C   0  0  0  0  0  0  0  0  0  0  0  0
    2.4240    1.3995    0.0000 C   0  0  0  0  0  0  0  0  0  0  0  0
    1.8750    3.4486    0.0000 C   0  0  0  0  0  0  0  0  0  0  0  0
    0.3750    0.8505    0.0000 C   0  0  0  0  0  0  0  0  0  0  0  0
   -0.1740    2.8995    0.0000 N   0  0  0  0  0  0  0  0  0  0  0  0
    1.1250    2.1495    0.0000 Si  0  0  0  0  0  4  0  0  0  0  0  0
  6  1  1  0
  6  2  1  0
  6  3  1  0
  8  4  1  0
  8  5  1  0
  8  6  1  0
  8  7  1  0
M  END
>  <NAME>  (4125) 
TERT-BUTYLDIMETHYLSILYLAMINE

>  <SYNONYMS>  (4125) 


>  <SPECTRUM TYPE>  (4125) 
MS1

>  <INSTRUMENT TYPE>  (4125) 
EI-B

>  <INSTRUMENT>  (4125) 
JEOL JMS-D-3000

>  <ION MODE>  (4125) 
P

>  <INCHIKEY>  (4125) 
FPTVUFLXTAXDDB-UHFFFAOYSA-N

>  <FORMULA>  (4125) 
C6H17NSi

>  <EXACT MASS>  (4125) 
131.113026074

>  <MW>  (4125) 
131

>  <ID>  (4125) 
JP004741

>  <CONTRIBUTOR>  (4125) 
University of Tokyo Team, {Faculty of Engineering, University of Tokyo

>  <COMMENT>  (4125) 
SMILES=CC(C)(C)[Si](C)(C)N
InChI=InChI=1S/C6H17NSi/c1-6(2,3)8(4,5)7/h7H2,1-5H3
computed SMILES=N[Si](C)(C)C(C)(C)C
accession=JP004741
date=2016.01.19 (Created 2008.10.21, modified 2011.05.06)
author=MASS SPECTROSCOPY SOC. OF JAPAN (MSSJ)
license=CC BY-NC-SA
exact mass=131.11303
ionization energy=70 eV
ion type=[M]+*
computed spectral entropy=1.2094986452571097
computed normalized entropy=0.4583070749105096
SPLASH=splash10-00di-9000000000-7ad7d149e47884f392c3
submitter=submitter = University of Tokyo Team (Faculty of Engineering, University of Tokyo)
MoNA Rating=3.75

>  <NUM PEAKS>  (4125) 
14

>  <MASS SPECTRAL PEAKS>  (4125) 
41 1.67
43 3.67
44 4.24
45 1.91
46 2.73
58 1.47
59 2.5
60 1.68
73 2.82
74 99.99
75 5.3
76 3.42
116 1.31
131 2.02

>  <PREDICTED SPECTRUM>  (4125) 
15 16
26 13
27 82
28 69
29 152
30 94
31 78
32 14
39 126
40 48
41 177
42 121
43 166
44 246
45 190
46 23
47 28
48 16
53 36
54 11
55 96
56 99
57 181
58 116
59 178
60 120
61 35
72 17
73 81
74 999
75 319
76 140
116 155
117 48
131 87
132 32

$$$$

     RDKit          2D

  7  6  0  0  0  0  0  0  0  0999 V2000
    1.4498    2.6115    0.0000 C   0  0  0  0  0  0  0  0  0  0  0  0
   -0.0502    0.0135    0.0000 C   0  0  0  0  0  0  0  0  0  0  0  0
    1.9988    0.5625    0.0000 C   0  0  0  0  0  0  0  0  0  0  0  0
   -0.5993    2.0625    0.0000 C   0  0  0  0  0  0  0  0  0  0  0  0
   -1.8983    1.3125    0.0000 Cl  0  0  0  0  0  0  0  0  0  0  0  0
   -0.5993    3.5625    0.0000 Cl  0  0  0  0  0  0  0  0  0  0  0  0
    0.6998    1.3125    0.0000 Si  0  0  0  0  0  4  0  0  0  0  0  0
  5  4  1  0
  6  4  1  0
  7  1  1  0
  7  2  1  0
  7  3  1  0
  7  4  1  0
M  END
>  <NAME>  (4126) 
DICHLOROMETHYLTRIMETHYLSILANE

>  <SYNONYMS>  (4126) 


>  <SPECTRUM TYPE>  (4126) 
MS1

>  <INSTRUMENT TYPE>  (4126) 
EI-B

>  <INSTRUMENT>  (4126) 
JEOL JMS-D-3000

>  <ION MODE>  (4126) 
P

>  <INCHIKEY>  (4126) 
XJTUNBKAWATELL-UHFFFAOYSA-N

>  <FORMULA>  (4126) 
C4H10Cl2Si

>  <EXACT MASS>  (4126) 
155.99288221

>  <MW>  (4126) 
156

>  <ID>  (4126) 
JP004740

>  <CONTRIBUTOR>  (4126) 
University of Tokyo Team, {Faculty of Engineering, University of Tokyo

>  <COMMENT>  (4126) 
SMILES=C[Si](C)(C)C(Cl)Cl
cas=5926-38-5
InChI=InChI=1S/C4H10Cl2Si/c1-7(2,3)4(5)6/h4H,1-3H3
computed SMILES=ClC(Cl)[Si](C)(C)C
accession=JP004740
date=2016.01.19 (Created 2008.10.21, modified 2011.05.06)
author=MASS SPECTROSCOPY SOC. OF JAPAN (MSSJ)
license=CC BY-NC-SA
exact mass=155.99288
ionization energy=70 eV
ion type=[M]+*
computed spectral entropy=2.041501377047993
computed normalized entropy=0.6705489674678008
SPLASH=splash10-00di-9300000000-7d28c0c436b7d9c6f40b
submitter=submitter = University of Tokyo Team (Faculty of Engineering, University of Tokyo)
MoNA Rating=3.75

>  <NUM PEAKS>  (4126) 
21

>  <MASS SPECTRAL PEAKS>  (4126) 
42 1.44
43 4.66
44 1.25
45 12.43
53 1.13
63 5.59
65 4.18
73 99.99
74 8.65
75 3.91
78 1.37
79 2.1
93 11.9
94 1.01
95 4.49
113 31.11
114 2.17
115 21.27
116 1.32
117 4.04
156 0.47

>  <PREDICTED SPECTRUM>  (4126) 
14 0
25 5
26 37
27 66
29 91
35 24
36 70
37 1
38 21
39 76
40 19
41 49
42 4
43 105
44 84
45 197
47 98
48 4
49 28
50 9
51 89
52 48
53 59
55 54
57 54
58 24
59 140
60 3
61 13
63 166
65 166
66 19
67 76
71 33
73 999
74 258
75 294
76 47
77 167
78 140
79 113
80 42
83 41
85 54
93 355
95 191
100 16
101 29
113 390
114 0
115 360
121 54
123 74
156 28

$$$$

     RDKit          2D

  8  7  0  0  0  0  0  0  0  0999 V2000
    1.6740    0.1005    0.0000 C   0  0  0  0  0  0  0  0  0  0  0  0
   -0.9240    1.6005    0.0000 C   0  0  0  0  0  0  0  0  0  0  0  0
   -0.3750   -0.4486    0.0000 C   0  0  0  0  0  0  0  0  0  0  0  0
    2.4240    1.3995    0.0000 C   0  0  0  0  0  0  0  0  0  0  0  0
    1.8750    3.4486    0.0000 C   0  0  0  0  0  0  0  0  0  0  0  0
    0.3750    0.8505    0.0000 C   0  0  0  0  0  0  0  0  0  0  0  0
   -0.1740    2.8995    0.0000 O   0  0  0  0  0  0  0  0  0  0  0  0
    1.1250    2.1495    0.0000 Si  0  0  0  0  0  4  0  0  0  0  0  0
  6  1  1  0
  6  2  1  0
  6  3  1  0
  8  4  1  0
  8  5  1  0
  8  6  1  0
  8  7  1  0
M  END
>  <NAME>  (4127) 
TERT-BUTYLDIMETHYLSILANOL

>  <SYNONYMS>  (4127) 


>  <SPECTRUM TYPE>  (4127) 
MS1

>  <INSTRUMENT TYPE>  (4127) 
EI-B

>  <INSTRUMENT>  (4127) 
JEOL JMS-D-3000

>  <ION MODE>  (4127) 
P

>  <INCHIKEY>  (4127) 
FGWRMMTYIZKYMA-UHFFFAOYSA-N

>  <FORMULA>  (4127) 
C6H16OSi

>  <EXACT MASS>  (4127) 
132.097041662

>  <MW>  (4127) 
132

>  <ID>  (4127) 
JP004739

>  <CONTRIBUTOR>  (4127) 
University of Tokyo Team, {Faculty of Engineering, University of Tokyo

>  <COMMENT>  (4127) 
SMILES=CC(C)(C)[Si](C)(C)O
InChI=InChI=1S/C6H16OSi/c1-6(2,3)8(4,5)7/h7H,1-5H3
computed SMILES=O[Si](C)(C)C(C)(C)C
accession=JP004739
date=2016.01.19 (Created 2008.10.21, modified 2011.05.06)
author=MASS SPECTROSCOPY SOC. OF JAPAN (MSSJ)
license=CC BY-NC-SA
exact mass=132.09704
ionization energy=70 eV
ion type=[M]+*
computed spectral entropy=1.2552347990637136
computed normalized entropy=0.48937995419371033
SPLASH=splash10-004i-9000000000-1ef01eb9977cbb19c712
submitter=submitter = University of Tokyo Team (Faculty of Engineering, University of Tokyo)
MoNA Rating=3.75

>  <NUM PEAKS>  (4127) 
13

>  <MASS SPECTRAL PEAKS>  (4127) 
41 3.08
43 1.46
45 4.39
47 3.59
56 1.97
57 1.25
60 1.04
61 2.19
74 3.79
75 99.99
76 7.88
77 4.02
132 4.73

>  <PREDICTED SPECTRUM>  (4127) 
15 25
26 15
27 107
28 67
29 232
30 2
31 160
32 21
33 2
39 82
40 41
41 221
42 50
43 206
44 56
45 277
46 37
47 195
48 40
49 14
55 114
56 203
57 328
58 89
59 168
60 150
61 240
71 68
73 118
74 36
75 999
76 209
77 209
117 177
118 36
132 72
133 7

$$$$

     RDKit          2D

  8  7  0  0  0  0  0  0  0  0999 V2000
    1.1262    2.5493    0.0000 C   0  0  0  0  0  0  0  0  0  0  0  0
   -4.0699    2.5493    0.0000 C   0  0  0  0  0  0  0  0  0  0  0  0
   -3.9132    1.6607    0.0000 C   0  0  0  0  0  0  0  0  0  0  0  0
   -0.1728    3.2993    0.0000 C   0  0  0  0  0  0  0  0  0  0  0  0
   -2.7709    3.2993    0.0000 C   0  0  0  0  0  0  0  0  0  0  0  0
   -2.4360    1.4002    0.0000 C   0  0  0  0  0  0  0  0  0  0  0  0
   -0.5077    1.4002    0.0000 Cl  0  0  0  0  0  0  0  0  0  0  0  0
   -1.4718    2.5493    0.0000 Si  0  0  0  0  0  4  0  0  0  0  0  0
  4  1  1  0
  5  2  1  0
  6  3  1  0
  8  4  1  0
  8  5  1  0
  8  6  1  0
  8  7  1  0
M  END
>  <NAME>  (4128) 
CHLOROTRIETHYLSILANE

>  <SYNONYMS>  (4128) 


>  <SPECTRUM TYPE>  (4128) 
MS1

>  <INSTRUMENT TYPE>  (4128) 
EI-B

>  <INSTRUMENT>  (4128) 
JEOL JMS-D-3000

>  <ION MODE>  (4128) 
P

>  <INCHIKEY>  (4128) 
DCFKHNIGBAHNSS-UHFFFAOYSA-N

>  <FORMULA>  (4128) 
C6H15ClSi

>  <EXACT MASS>  (4128) 
150.06315469

>  <MW>  (4128) 
150

>  <ID>  (4128) 
JP004738

>  <CONTRIBUTOR>  (4128) 
University of Tokyo Team, {Faculty of Engineering, University of Tokyo

>  <COMMENT>  (4128) 
SMILES=CC[Si](Cl)(CC)CC
cas=994-30-9
InChI=InChI=1S/C6H15ClSi/c1-4-8(7,5-2)6-3/h4-6H2,1-3H3
computed SMILES=Cl[Si](CC)(CC)CC
accession=JP004738
date=2016.01.19 (Created 2008.10.21, modified 2011.05.06)
author=MASS SPECTROSCOPY SOC. OF JAPAN (MSSJ)
license=CC BY-NC-SA
exact mass=150.06315
ionization energy=70 eV
ion type=[M]+*
computed spectral entropy=2.3459002340618698
computed normalized entropy=0.7040084805414674
SPLASH=splash10-00dl-8900000000-e4f35c9e55012532dcca
submitter=submitter = University of Tokyo Team (Faculty of Engineering, University of Tokyo)
MoNA Rating=3.75

>  <NUM PEAKS>  (4128) 
28

>  <MASS SPECTRAL PEAKS>  (4128) 
43 1.66
57 1.63
58 1.88
59 1.54
63 8.6
64 1.42
65 14.32
66 1.23
67 4.36
79 2.04
86 2.04
87 2.73
91 2.7
92 4.81
93 70.95
94 6.89
95 26.44
96 1.85
114 2.17
115 4.31
121 99.99
122 9.86
123 36.81
124 3.38
125 1.3
150 11.63
151 1.45
152 4.48

>  <PREDICTED SPECTRUM>  (4128) 
25 0
26 69
27 150
28 63
29 196
30 22
31 49
35 16
36 41
38 28
39 255
40 0
41 109
42 100
43 150
44 77
45 28
47 104
49 66
50 6
51 133
52 57
53 95
54 53
55 165
56 40
57 208
58 141
59 332
60 84
61 23
63 317
64 111
65 532
66 142
67 463
68 109
69 146
71 51
77 109
78 6
79 153
80 83
83 38
84 7
85 66
87 165
89 72
91 204
92 175
93 690
94 255
95 532
96 88
97 89
107 16
115 149
117 24
119 56
121 999
122 334
123 583
124 193
125 60
149 52
150 129
151 41
152 32

$$$$

     RDKit          2D

  9  8  0  0  0  0  0  0  0  0999 V2000
    0.4755    3.8236    0.0000 C   0  0  0  0  0  0  0  0  0  0  0  0
    1.2255   -0.4755    0.0000 C   0  0  0  0  0  0  0  0  0  0  0  0
   -0.2745    2.1226    0.0000 C   0  0  0  0  0  0  0  0  0  0  0  0
   -0.8236    0.0736    0.0000 C   0  0  0  0  0  0  0  0  0  0  0  0
    3.0736    3.8236    0.0000 C   0  0  0  0  0  0  0  0  0  0  0  0
    1.7745    3.0736    0.0000 C   0  0  0  0  0  0  0  0  0  0  0  0
    3.0736    5.3236    0.0000 Cl  0  0  0  0  0  0  0  0  0  0  0  0
    1.7745    1.5736    0.0000 O   0  0  0  0  0  0  0  0  0  0  0  0
    0.4755    0.8236    0.0000 Si  0  0  0  0  0  4  0  0  0  0  0  0
  6  1  2  0
  6  5  1  0
  7  5  1  0
  8  6  1  0
  9  2  1  0
  9  3  1  0
  9  4  1  0
  9  8  1  0
M  END
>  <NAME>  (4129) 
3-CHLORO-2-TRIMETHYLSILOXYPROPENE

>  <SYNONYMS>  (4129) 


>  <SPECTRUM TYPE>  (4129) 
MS1

>  <INSTRUMENT TYPE>  (4129) 
EI-B

>  <INSTRUMENT>  (4129) 
JEOL JMS-D-3000

>  <ION MODE>  (4129) 
P

>  <INCHIKEY>  (4129) 
OHLRLWSRPAPEMZ-UHFFFAOYSA-N

>  <FORMULA>  (4129) 
C6H13ClOSi

>  <EXACT MASS>  (4129) 
164.042419246

>  <MW>  (4129) 
164

>  <ID>  (4129) 
JP004736

>  <CONTRIBUTOR>  (4129) 
University of Tokyo Team, {Faculty of Engineering, University of Tokyo

>  <COMMENT>  (4129) 
SMILES=ClCC(=C)O[Si](C)(C)C
InChI=InChI=1S/C6H13ClOSi/c1-6(5-7)8-9(2,3)4/h1,5H2,2-4H3
computed SMILES=ClCC(O[Si](C)(C)C)=C
accession=JP004736
date=2016.01.19 (Created 2008.10.21, modified 2011.05.06)
author=MASS SPECTROSCOPY SOC. OF JAPAN (MSSJ)
license=CC BY-NC-SA
exact mass=164.04242
ionization energy=70 eV
ion type=[M]+*
computed spectral entropy=2.273149282482692
computed normalized entropy=0.8394044104343014
SPLASH=splash10-0002-9600000000-9d413625678c1e5b12d0
submitter=submitter = University of Tokyo Team (Faculty of Engineering, University of Tokyo)
MoNA Rating=3.75

>  <NUM PEAKS>  (4129) 
15

>  <MASS SPECTRAL PEAKS>  (4129) 
72 5.73
73 44.3
74 4.69
75 6.25
93 52.71
95 99.99
96 7.18
97 29.98
113 7.41
149 75.4
150 8.94
151 27.13
164 37.09
165 5.36
166 14.42

>  <PREDICTED SPECTRUM>  (4129) 
27 64
28 17
29 60
39 24
42 10
43 103
44 20
45 193
47 65
49 34
51 19
53 65
54 33
55 174
56 65
57 114
58 65
59 60
63 198
64 17
65 112
67 149
68 20
69 89
71 48
72 106
73 459
74 66
75 18
76 28
77 47
78 8
79 125
80 38
81 108
83 18
85 49
93 999
94 298
95 908
96 319
97 271
98 14
107 62
110 14
113 258
115 126
121 25
122 25
129 68
130 25
149 752
150 246
151 465
152 113
153 47
164 514
165 162
166 298
167 80

$$$$

     RDKit          2D

  9  8  0  0  0  0  0  0  0  0999 V2000
    1.2255   -0.4755    0.0000 C   0  0  0  0  0  0  0  0  0  0  0  0
   -0.2745    2.1226    0.0000 C   0  0  0  0  0  0  0  0  0  0  0  0
   -0.8236    0.0736    0.0000 C   0  0  0  0  0  0  0  0  0  0  0  0
    3.0736    3.8236    0.0000 C   0  0  0  0  0  0  0  0  0  0  0  0
    1.7745    1.5736    0.0000 C   0  0  0  0  0  0  0  0  0  0  0  0
    1.7745    3.0736    0.0000 C   0  0  0  0  0  0  0  0  0  0  0  0
    3.0736    5.3236    0.0000 Cl  0  0  0  0  0  0  0  0  0  0  0  0
    0.4755    3.8236    0.0000 O   0  0  0  0  0  0  0  0  0  0  0  0
    0.4755    0.8236    0.0000 Si  0  0  0  0  0  4  0  0  0  0  0  0
  6  4  1  0
  6  5  1  0
  7  4  1  0
  8  6  2  0
  9  1  1  0
  9  2  1  0
  9  3  1  0
  9  5  1  0
M  END
>  <NAME>  (4130) 
1-CHLORO-3-TRIMETHYLSILYL-2-PROPANONE

>  <SYNONYMS>  (4130) 


>  <SPECTRUM TYPE>  (4130) 
MS1

>  <INSTRUMENT TYPE>  (4130) 
EI-B

>  <INSTRUMENT>  (4130) 
JEOL JMS-D-3000

>  <ION MODE>  (4130) 
P

>  <INCHIKEY>  (4130) 
GVDVPDPHJUOSTN-UHFFFAOYSA-N

>  <FORMULA>  (4130) 
C6H13ClOSi

>  <EXACT MASS>  (4130) 
164.04241924599998

>  <MW>  (4130) 
164

>  <ID>  (4130) 
JP004735

>  <CONTRIBUTOR>  (4130) 
University of Tokyo Team, {Faculty of Engineering, University of Tokyo

>  <COMMENT>  (4130) 
SMILES=ClCC(=O)C[Si](C)(C)C
InChI=InChI=1S/C6H13ClOSi/c1-9(2,3)5-6(8)4-7/h4-5H2,1-3H3
computed SMILES=O=C(CCl)C[Si](C)(C)C
accession=JP004735
date=2016.01.19 (Created 2008.10.21, modified 2011.05.06)
author=MASS SPECTROSCOPY SOC. OF JAPAN (MSSJ)
license=CC BY-NC-SA
exact mass=164.04242
ionization energy=70 eV
ion type=[M]+*
computed spectral entropy=2.42922284560076
computed normalized entropy=0.8108945071779889
SPLASH=splash10-0002-9800000000-e30a40b3c7b698814a32
submitter=submitter = University of Tokyo Team (Faculty of Engineering, University of Tokyo)
MoNA Rating=3.75

>  <NUM PEAKS>  (4130) 
20

>  <MASS SPECTRAL PEAKS>  (4130) 
72 4
73 21.97
74 2.67
75 3.53
93 45.36
94 4.03
95 99.99
96 7.36
97 31.72
113 9.31
115 49.88
116 5.58
117 2.54
149 68.04
150 7.2
151 24.67
152 2.63
164 30.52
165 3.84
166 11.47

>  <PREDICTED SPECTRUM>  (4130) 
14 0
29 45
39 18
42 10
43 142
44 9
45 176
47 55
49 113
51 15
53 86
54 4
55 167
56 37
57 106
58 34
59 135
60 20
61 80
63 233
65 145
67 154
69 108
72 33
73 411
74 114
76 43
77 74
79 155
80 18
81 66
83 108
85 121
87 124
91 12
93 999
94 197
95 888
96 297
97 399
98 50
99 98
101 8
106 5
107 165
109 25
110 16
111 74
113 337
114 111
115 522
116 125
117 47
121 67
122 44
149 800
150 293
151 466
152 116
153 30
164 387
165 108
166 243
167 49

$$$$

     RDKit          2D

 10  9  0  0  0  0  0  0  0  0999 V2000
    5.3603    1.9118    0.0000 C   0  0  0  0  0  0  0  0  0  0  0  0
    3.8603    4.5099    0.0000 C   0  0  0  0  0  0  0  0  0  0  0  0
    5.9094    3.9608    0.0000 C   0  0  0  0  0  0  0  0  0  0  0  0
    2.0123    4.7108    0.0000 C   0  0  0  0  0  0  0  0  0  0  0  0
    0.7132    2.4608    0.0000 C   0  0  0  0  0  0  0  0  0  0  0  0
    2.0123    3.2108    0.0000 C   0  0  0  0  0  0  0  0  0  0  0  0
    3.3113    5.4608    0.0000 Cl  0  0  0  0  0  0  0  0  0  0  0  0
   -0.5858    3.2108    0.0000 Cl  0  0  0  0  0  0  0  0  0  0  0  0
    3.3113    2.4608    0.0000 O   0  0  0  0  0  0  0  0  0  0  0  0
    4.6103    3.2108    0.0000 Si  0  0  0  0  0  4  0  0  0  0  0  0
  4  6  2  0
  6  5  1  0
  7  4  1  0
  8  5  1  0
  9  6  1  0
 10  1  1  0
 10  2  1  0
 10  3  1  0
 10  9  1  0
M  END
>  <NAME>  (4131) 
1,3-DICHLORO-2-TRIMETHYLSILOXYPROPENE

>  <SYNONYMS>  (4131) 


>  <SPECTRUM TYPE>  (4131) 
MS1

>  <INSTRUMENT TYPE>  (4131) 
EI-B

>  <INSTRUMENT>  (4131) 
JEOL JMS-D-3000

>  <ION MODE>  (4131) 
P

>  <INCHIKEY>  (4131) 
ZHKMMCJJRXLVPW-XQRVVYSFSA-N

>  <FORMULA>  (4131) 
C6H12Cl2OSi

>  <EXACT MASS>  (4131) 
198.00344689399998

>  <MW>  (4131) 
198

>  <ID>  (4131) 
JP004734

>  <CONTRIBUTOR>  (4131) 
University of Tokyo Team, {Faculty of Engineering, University of Tokyo

>  <COMMENT>  (4131) 
SMILES=ClCC(=CCl)O[Si](C)(C)C
InChI=InChI=1S/C6H12Cl2OSi/c1-10(2,3)9-6(4-7)5-8/h4H,5H2,1-3H3/b6-4-
computed SMILES=ClC=C(O[Si](C)(C)C)CCl
accession=JP004734
date=2016.01.19 (Created 2008.10.21, modified 2011.05.06)
author=MASS SPECTROSCOPY SOC. OF JAPAN (MSSJ)
license=CC BY-NC-SA
exact mass=198.00345
ionization energy=70 eV
ion type=[M]+*
computed spectral entropy=2.8681956788780503
computed normalized entropy=0.8432899820346126
SPLASH=splash10-00di-9400000000-8044a8bfbbcaed521c04
submitter=submitter = University of Tokyo Team (Faculty of Engineering, University of Tokyo)
MoNA Rating=3.75

>  <NUM PEAKS>  (4131) 
30

>  <MASS SPECTRAL PEAKS>  (4131) 
27 10.9
36 5.13
39 4.2
43 10.73
45 16.47
47 3.56
53 16.27
55 10.52
63 4.55
65 6.93
69 4.65
72 2.65
73 99.99
74 10.53
75 8.3
79 4.5
93 46.21
94 3.46
95 21.99
111 9.85
113 43.08
114 2.78
115 29.42
117 5.57
147 3.52
183 21.52
185 14.8
187 2.73
198 9.29
200 6.16

>  <PREDICTED SPECTRUM>  (4131) 
15 28
26 12
27 103
28 41
29 39
31 17
35 21
36 46
38 18
39 45
41 27
42 51
43 196
44 119
45 299
46 48
47 120
49 70
50 20
51 99
52 44
53 91
54 73
55 222
56 44
57 136
58 82
59 119
60 73
61 108
62 77
63 249
64 36
65 186
66 49
67 103
68 66
69 137
70 105
71 43
72 232
73 757
74 195
75 139
76 42
78 11
79 116
80 53
81 103
82 23
83 77
85 102
89 118
90 57
91 92
92 52
93 999
94 344
95 710
96 188
97 51
98 22
103 5
105 45
107 130
108 32
110 4
111 62
113 348
115 250
116 41
117 174
119 86
121 3
145 77
147 158
148 25
149 102
183 342
184 98
185 294
186 38
187 116
198 243
199 76
200 216
201 60
202 29

$$$$

     RDKit          2D

 10  9  0  0  0  0  0  0  0  0999 V2000
    1.3260   -0.6495    0.0000 C   0  0  0  0  0  0  0  0  0  0  0  0
   -0.1740    1.9486    0.0000 C   0  0  0  0  0  0  0  0  0  0  0  0
    3.9240    2.3505    0.0000 C   0  0  0  0  0  0  0  0  0  0  0  0
    1.8750    1.3995    0.0000 C   0  0  0  0  0  0  0  0  0  0  0  0
    1.8750    2.8995    0.0000 C   0  0  0  0  0  0  0  0  0  0  0  0
   -0.7231   -0.1005    0.0000 Cl  0  0  0  0  0  0  0  0  0  0  0  0
    4.4731    4.3995    0.0000 Cl  0  0  0  0  0  0  0  0  0  0  0  0
    2.4240    4.9486    0.0000 Cl  0  0  0  0  0  0  0  0  0  0  0  0
    0.5760    0.6495    0.0000 Si  0  0  0  0  0  4  0  0  0  0  0  0
    3.1740    3.6495    0.0000 Si  0  0  0  0  0  4  0  0  0  0  0  0
  5  4  1  0
  9  1  1  0
  9  2  1  0
  9  4  1  0
  9  6  1  0
 10  3  1  0
 10  5  1  0
 10  7  1  0
 10  8  1  0
M  END
>  <NAME>  (4132) 
2,2,5-TRICHLORO-5-METHYL-2,5-DISILAHEXANE

>  <SYNONYMS>  (4132) 


>  <SPECTRUM TYPE>  (4132) 
MS1

>  <INSTRUMENT TYPE>  (4132) 
EI-B

>  <INSTRUMENT>  (4132) 
JEOL JMS-D-3000

>  <ION MODE>  (4132) 
P

>  <INCHIKEY>  (4132) 
NIRGYLDVTGAPIO-UHFFFAOYSA-N

>  <FORMULA>  (4132) 
C5H13Cl3Si2

>  <EXACT MASS>  (4132) 
233.962136516

>  <MW>  (4132) 
234

>  <ID>  (4132) 
JP004732

>  <CONTRIBUTOR>  (4132) 
University of Tokyo Team, {Faculty of Engineering, University of Tokyo

>  <COMMENT>  (4132) 
SMILES=C[Si](C)(Cl)CC[Si](C)(Cl)Cl
InChI=InChI=1S/C5H13Cl3Si2/c1-9(2,6)4-5-10(3,7)8/h4-5H2,1-3H3
computed SMILES=Cl[Si](Cl)(C)CC[Si](Cl)(C)C
accession=JP004732
date=2016.01.19 (Created 2008.10.21, modified 2011.05.06)
author=MASS SPECTROSCOPY SOC. OF JAPAN (MSSJ)
license=CC BY-NC-SA
exact mass=233.96214
ionization energy=70 eV
ion type=[M]+*
computed spectral entropy=2.0277523571491805
computed normalized entropy=0.7905623365429694
SPLASH=splash10-0a4i-6910000000-af431a73edf63558c574
submitter=submitter = University of Tokyo Team (Faculty of Engineering, University of Tokyo)
MoNA Rating=3.75

>  <NUM PEAKS>  (4132) 
13

>  <MASS SPECTRAL PEAKS>  (4132) 
59 16.04
79 20.14
94 67.69
96 24.54
105 18.82
106 99.99
107 13.96
108 34.94
221 12.12
222 1.63
223 4.45
234 1.56
236 1.47

>  <PREDICTED SPECTRUM>  (4132) 
33 22
36 17
44 8
49 9
50 21
51 117
52 40
54 31
57 32
58 108
59 213
60 37
63 382
64 91
65 436
66 37
67 70
69 15
70 16
71 156
72 288
74 95
75 14
77 75
78 485
79 427
80 321
81 170
85 126
86 208
87 6
89 13
90 3
91 165
92 248
93 999
94 303
95 466
96 180
97 141
98 142
99 43
100 259
101 31
103 14
104 7
105 340
106 784
107 327
108 467
113 471
114 14
115 380
117 182
119 49
121 44
125 103
126 48
127 65
128 14
171 28
199 153
200 33
201 79
202 26
207 154
209 33
219 295
220 68
221 271
222 27
223 145
234 6
236 32

$$$$

     RDKit          2D

  6  5  0  0  0  0  0  0  0  0999 V2000
   -4.5466    3.3750    0.0000 C   0  0  0  0  0  0  0  0  0  0  0  0
   -3.2476    2.6250    0.0000 C   0  0  0  0  0  0  0  0  0  0  0  0
   -1.9486    3.3750    0.0000 C   0  0  0  0  0  0  0  0  0  0  0  0
   -0.6495    2.6250    0.0000 C   0  0  0  0  0  0  0  0  0  0  0  0
    0.6495    3.3750    0.0000 C   0  0  0  0  0  0  0  0  0  0  0  0
    1.9486    2.6250    0.0000 O   0  0  0  0  0  0  0  0  0  0  0  0
  2  1  2  0
  3  2  1  0
  4  3  1  0
  5  4  1  0
  6  5  1  0
M  END
>  <NAME>  (4133) 
4-PENTEN-1-OL

>  <SYNONYMS>  (4133) 


>  <SPECTRUM TYPE>  (4133) 
MS1

>  <INSTRUMENT TYPE>  (4133) 
EI-B

>  <INSTRUMENT>  (4133) 
JEOL JMS-D-3000

>  <ION MODE>  (4133) 
P

>  <INCHIKEY>  (4133) 
LQAVWYMTUMSFBE-UHFFFAOYSA-N

>  <FORMULA>  (4133) 
C5H10O

>  <EXACT MASS>  (4133) 
86.07316494

>  <MW>  (4133) 
86

>  <ID>  (4133) 
JP004731

>  <CONTRIBUTOR>  (4133) 
University of Tokyo Team, {Faculty of Engineering, University of Tokyo

>  <COMMENT>  (4133) 
SMILES=C=CCCCO
cas=821-09-0
InChI=InChI=1S/C5H10O/c1-2-3-4-5-6/h2,6H,1,3-5H2
computed SMILES=OCCCC=C
accession=JP004731
date=2016.01.19 (Created 2008.10.21, modified 2011.05.06)
author=MASS SPECTROSCOPY SOC. OF JAPAN (MSSJ)
license=CC BY-NC-SA
exact mass=86.07316
ionization energy=70 eV
ion type=[M]+*
computed spectral entropy=1.654886650684278
computed normalized entropy=0.6451927192519996
SPLASH=splash10-00kf-9000000000-215d4d2a171d667c3b34
submitter=submitter = University of Tokyo Team (Faculty of Engineering, University of Tokyo)
MoNA Rating=3.75

>  <NUM PEAKS>  (4133) 
13

>  <MASS SPECTRAL PEAKS>  (4133) 
41 15.51
42 3.4
43 99.99
44 1.16
53 8.92
54 1.38
55 3.4
61 2.86
67 37.83
68 77.25
69 5.31
73 2.44
86 1.27

>  <PREDICTED SPECTRUM>  (4133) 
14 27
15 25
16 15
18 2
19 47
25 16
26 157
27 431
28 207
29 314
30 108
31 344
32 39
36 17
37 119
38 196
39 682
40 340
41 999
42 478
43 434
44 280
45 341
46 80
49 109
50 205
51 282
52 172
53 520
54 477
55 453
56 296
57 398
58 256
59 99
62 33
63 42
65 151
66 33
67 650
68 431
69 217
70 60
71 324
72 27
85 41
86 94

$$$$

     RDKit          2D

 20 20  0  0  0  0  0  0  0  0999 V2000
    9.0942    0.7512    0.0000 C   0  0  0  0  0  0  0  0  0  0  0  0
    7.7948    3.0010    0.0000 C   0  0  0  0  0  0  0  0  0  0  0  0
    3.5629    2.6494    0.0000 C   0  0  0  0  0  0  0  0  0  0  0  0
   -3.1483    0.5487    0.0000 C   0  0  0  0  0  0  0  0  0  0  0  0
   -5.1972   -0.0006    0.0000 C   0  0  0  0  0  0  0  0  0  0  0  0
   -4.6479   -2.0496    0.0000 C   0  0  0  0  0  0  0  0  0  0  0  0
    5.1970    1.5006    0.0000 C   0  0  0  0  0  0  0  0  0  0  0  0
    6.4962    0.7508    0.0000 C   0  0  0  0  0  0  0  0  0  0  0  0
   -1.3000    0.7500    0.0000 C   0  0  0  0  0  0  0  0  0  0  0  0
   -0.0000   -1.5000    0.0000 C   0  0  0  0  0  0  0  0  0  0  0  0
    0.0000    1.5000    0.0000 C   0  0  0  0  0  0  0  0  0  0  0  0
    1.3000   -0.7500    0.0000 C   0  0  0  0  0  0  0  0  0  0  0  0
    3.8981    0.7504    0.0000 C   0  0  0  0  0  0  0  0  0  0  0  0
   -2.5989   -1.5002    0.0000 C   0  0  0  0  0  0  0  0  0  0  0  0
    7.7951    1.5010    0.0000 C   0  0  0  0  0  0  0  0  0  0  0  0
   -1.3000   -0.7500    0.0000 C   0  0  0  0  0  0  0  0  0  0  0  0
    1.3000    0.7500    0.0000 C   0  0  0  0  0  0  0  0  0  0  0  0
    2.5989    1.5002    0.0000 C   0  0  0  0  0  0  0  0  0  0  0  0
    1.6346    2.6491    0.0000 O   0  0  0  0  0  0  0  0  0  0  0  0
   -3.8981   -0.7504    0.0000 Si  0  0  0  0  0  4  0  0  0  0  0  0
  8  7  1  0
 11  9  1  0
 12 10  1  0
 13  7  1  0
 15  1  1  0
 15  2  1  0
 15  8  2  0
 16  9  2  0
 16 10  1  0
 16 14  1  0
 17 11  1  0
 17 12  1  0
 18  3  1  0
 18 13  1  0
 18 17  1  0
 19 18  1  0
 20  4  1  0
 20  5  1  0
 20  6  1  0
 20 14  1  0
M  END
>  <NAME>  (4134) 
2-(4-TRIMETHYLSILYLMETHYL-3-CYCLOHEXENYL)-6-METHYL-5-HEPTEN-2-OL

>  <SYNONYMS>  (4134) 


>  <SPECTRUM TYPE>  (4134) 
MS1

>  <INSTRUMENT TYPE>  (4134) 
EI-B

>  <INSTRUMENT>  (4134) 
JEOL JMS-D-3000

>  <ION MODE>  (4134) 
P

>  <INCHIKEY>  (4134) 
JYKDIEVVWXVFHF-UHFFFAOYSA-N

>  <FORMULA>  (4134) 
C18H34OSi

>  <EXACT MASS>  (4134) 
294.237892238

>  <MW>  (4134) 
294

>  <ID>  (4134) 
JP004730

>  <CONTRIBUTOR>  (4134) 
University of Tokyo Team, {Faculty of Engineering, University of Tokyo

>  <COMMENT>  (4134) 
SMILES=CC(C)=CCCC(C)(O)C(C1)CC=C(C1)C[Si](C)(C)C
InChI=InChI=1S/C18H34OSi/c1-15(2)8-7-13-18(3,19)17-11-9-16(10-12-17)14-20(4,5)6/h8-9,17,19H,7,10-14H2,1-6H3
computed SMILES=OC(C)(CCC=C(C)C)C1CC=C(CC1)C[Si](C)(C)C
accession=JP004730
date=2016.01.19 (Created 2008.10.21, modified 2011.05.06)
author=MASS SPECTROSCOPY SOC. OF JAPAN (MSSJ)
license=CC BY-NC-SA
exact mass=294.23789
ionization energy=70 eV
ion type=[M]+*
computed spectral entropy=2.520492456382739
computed normalized entropy=0.7485212418633451
SPLASH=splash10-00di-9110000000-65e853b786b42f593184
submitter=submitter = University of Tokyo Team (Faculty of Engineering, University of Tokyo)
MoNA Rating=3.75

>  <NUM PEAKS>  (4134) 
29

>  <MASS SPECTRAL PEAKS>  (4134) 
41 10
45 5.08
55 3.08
59 4.69
67 2.77
69 12.31
73 99.99
74 8.25
75 7.96
79 2.99
80 4.57
91 4.04
92 4.7
93 17.45
94 2.58
98 2.92
105 3
107 2.77
109 5.58
121 3.81
133 3.97
191 5.79
193 2.69
206 2.7
207 2.57
261 1.6
276 14.62
277 3.97
294 0.49

>  <PREDICTED SPECTRUM>  (4134) 
27 38
29 29
41 154
43 41
45 215
53 20
55 176
56 20
58 25
59 329
67 119
68 31
69 334
73 999
74 309
75 317
76 9
77 98
79 123
81 51
82 41
83 56
85 51
86 16
87 16
91 137
92 41
93 209
94 16
95 32
103 34
104 44
105 148
106 89
107 107
109 186
115 11
117 41
119 84
121 119
122 1
129 25
132 30
133 131
134 5
135 13
147 6
161 52
167 21
189 59
199 45
202 7
261 46
276 358
277 119
279 0
294 95

$$$$

     RDKit          2D

 19 19  0  0  0  0  0  0  0  0999 V2000
    9.0942    0.7512    0.0000 C   0  0  0  0  0  0  0  0  0  0  0  0
    7.7948    3.0010    0.0000 C   0  0  0  0  0  0  0  0  0  0  0  0
   -3.1483    0.5487    0.0000 C   0  0  0  0  0  0  0  0  0  0  0  0
   -5.1972   -0.0006    0.0000 C   0  0  0  0  0  0  0  0  0  0  0  0
   -4.6479   -2.0496    0.0000 C   0  0  0  0  0  0  0  0  0  0  0  0
    5.1970    1.5006    0.0000 C   0  0  0  0  0  0  0  0  0  0  0  0
    6.4962    0.7508    0.0000 C   0  0  0  0  0  0  0  0  0  0  0  0
    3.8981    0.7504    0.0000 C   0  0  0  0  0  0  0  0  0  0  0  0
   -1.3000    0.7500    0.0000 C   0  0  0  0  0  0  0  0  0  0  0  0
   -0.0000   -1.5000    0.0000 C   0  0  0  0  0  0  0  0  0  0  0  0
    0.0000    1.5000    0.0000 C   0  0  0  0  0  0  0  0  0  0  0  0
    1.3000   -0.7500    0.0000 C   0  0  0  0  0  0  0  0  0  0  0  0
   -2.5989   -1.5002    0.0000 C   0  0  0  0  0  0  0  0  0  0  0  0
    7.7951    1.5010    0.0000 C   0  0  0  0  0  0  0  0  0  0  0  0
   -1.3000   -0.7500    0.0000 C   0  0  0  0  0  0  0  0  0  0  0  0
    1.3000    0.7500    0.0000 C   0  0  0  0  0  0  0  0  0  0  0  0
    2.5989    1.5002    0.0000 C   0  0  0  0  0  0  0  0  0  0  0  0
    2.5987    3.0002    0.0000 O   0  0  0  0  0  0  0  0  0  0  0  0
   -3.8981   -0.7504    0.0000 Si  0  0  0  0  0  4  0  0  0  0  0  0
  7  6  1  0
  8  6  1  0
 11  9  1  0
 12 10  1  0
 14  1  1  0
 14  2  1  0
 14  7  2  0
 15  9  2  0
 15 10  1  0
 15 13  1  0
 16 11  1  0
 16 12  1  0
 17  8  1  0
 17 16  1  0
 18 17  1  0
 19  3  1  0
 19  4  1  0
 19  5  1  0
 19 13  1  0
M  END
>  <NAME>  (4135) 
1-(4-TRIMETHYLSILYLMETHYL-3-CYCLOHEXENYL)-5-METHYL-4-HEXEN-1-OL

>  <SYNONYMS>  (4135) 


>  <SPECTRUM TYPE>  (4135) 
MS1

>  <INSTRUMENT TYPE>  (4135) 
EI-B

>  <INSTRUMENT>  (4135) 
JEOL JMS-D-3000

>  <ION MODE>  (4135) 
P

>  <INCHIKEY>  (4135) 
GYSUXFPJPGFPTA-UHFFFAOYSA-N

>  <FORMULA>  (4135) 
C17H32OSi

>  <EXACT MASS>  (4135) 
280.22224217400003

>  <MW>  (4135) 
280

>  <ID>  (4135) 
JP004729

>  <CONTRIBUTOR>  (4135) 
University of Tokyo Team, {Faculty of Engineering, University of Tokyo

>  <COMMENT>  (4135) 
SMILES=CC(C)=CCCC(O)C(C1)CC([H])=C(C1)C[Si](C)(C)C
InChI=InChI=1S/C17H32OSi/c1-14(2)7-6-8-17(18)16-11-9-15(10-12-16)13-19(3,4)5/h7,9,16-18H,6,8,10-13H2,1-5H3
computed SMILES=OC(CCC=C(C)C)C1CC=C(CC1)C[Si](C)(C)C
accession=JP004729
date=2016.01.19 (Created 2008.10.21, modified 2011.05.06)
author=MASS SPECTROSCOPY SOC. OF JAPAN (MSSJ)
license=CC BY-NC-SA
exact mass=280.22224
ionization energy=70 eV
ion type=[M]+*
computed spectral entropy=2.5532212815755915
computed normalized entropy=0.7367039362442539
SPLASH=splash10-00di-9100000000-88a3d645ad3844765f62
submitter=submitter = University of Tokyo Team (Faculty of Engineering, University of Tokyo)
MoNA Rating=3.75

>  <NUM PEAKS>  (4135) 
32

>  <MASS SPECTRAL PEAKS>  (4135) 
42 14.5
43 2.73
45 6.96
55 4.29
57 1.95
59 3.91
67 3.41
69 12.6
73 99.99
74 8.91
75 15.62
77 2.52
79 4.37
82 3.76
91 4.49
92 2.19
93 4.14
95 3.72
104 2.27
105 2.44
106 5.29
107 1.85
111 1.78
115 1.81
119 3.82
152 3.86
165 3.42
166 3.2
167 3.18
213 6.08
262 1.03
280 1.78

>  <PREDICTED SPECTRUM>  (4135) 
28 20
29 71
39 19
40 3
41 204
42 75
43 125
44 106
45 204
46 18
47 5
51 8
53 51
54 10
55 83
56 33
57 37
58 58
59 221
60 69
65 69
66 6
67 138
69 243
70 58
71 134
72 89
73 999
74 295
75 295
76 21
77 184
78 19
79 183
80 44
81 81
82 46
83 6
91 170
92 95
93 253
95 107
103 64
104 118
105 114
106 86
107 86
109 96
115 98
117 74
118 5
119 93
121 16
127 42
128 15
131 7
133 2
135 10
143 134
144 6
146 21
147 35
165 16
175 45
190 29
213 133
262 44
265 21
280 154
281 7

$$$$

     RDKit          2D

 11 10  0  0  0  0  0  0  0  0999 V2000
   -0.0000   -0.0000    0.0000 C   0  0  0  0  0  0  0  0  0  0  0  0
    1.2990    2.2500    0.0000 C   0  0  0  0  0  0  0  0  0  0  0  0
   -2.5981    0.0000    0.0000 C   0  0  0  0  0  0  0  0  0  0  0  0
   -2.5981    6.0000    0.0000 C   0  0  0  0  0  0  0  0  0  0  0  0
   -0.0000    1.5000    0.0000 C   0  0  0  0  0  0  0  0  0  0  0  0
   -2.5981    1.5000    0.0000 C   0  0  0  0  0  0  0  0  0  0  0  0
   -1.2990    2.2500    0.0000 C   0  0  0  0  0  0  0  0  0  0  0  0
   -1.2990    3.7500    0.0000 C   0  0  0  0  0  0  0  0  0  0  0  0
   -3.8971    2.2500    0.0000 O   0  0  0  0  0  0  0  0  0  0  0  0
    0.0000    4.5000    0.0000 O   0  0  0  0  0  0  0  0  0  0  0  0
   -2.5981    4.5000    0.0000 O   0  0  0  0  0  0  0  0  0  0  0  0
  5  1  1  0
  5  2  1  0
  6  3  1  0
  7  5  2  0
  7  6  1  0
  8  7  1  0
  9  6  2  0
 10  8  2  0
 11  4  1  0
 11  8  1  0
M  END
>  <NAME>  (4136) 
METHYL ALPHA-ACETYLDIMETHYLACRYLATE

>  <SYNONYMS>  (4136) 


>  <SPECTRUM TYPE>  (4136) 
MS1

>  <INSTRUMENT TYPE>  (4136) 
EI-B

>  <INSTRUMENT>  (4136) 
JEOL JMS-D-3000

>  <ION MODE>  (4136) 
P

>  <INCHIKEY>  (4136) 
CDHWLGSCWGPPCT-UHFFFAOYSA-N

>  <FORMULA>  (4136) 
C8H12O3

>  <EXACT MASS>  (4136) 
156.078644244

>  <MW>  (4136) 
156

>  <ID>  (4136) 
JP004728

>  <CONTRIBUTOR>  (4136) 
University of Tokyo Team, {Faculty of Engineering, University of Tokyo

>  <COMMENT>  (4136) 
SMILES=COC(=O)C(=C(C)C)C(C)=O
InChI=InChI=1S/C8H12O3/c1-5(2)7(6(3)9)8(10)11-4/h1-4H3
computed SMILES=O=C(OC)C(C(=O)C)=C(C)C
accession=JP004728
date=2016.01.19 (Created 2008.10.21, modified 2011.05.06)
author=MASS SPECTROSCOPY SOC. OF JAPAN (MSSJ)
license=CC BY-NC-SA
exact mass=156.07864
ionization energy=70 eV
ion type=[M]+*
computed spectral entropy=2.8481690133879307
computed normalized entropy=0.7947966962928928
SPLASH=splash10-0537-9300000000-341ffe8985e9fe67c24f
submitter=submitter = University of Tokyo Team (Faculty of Engineering, University of Tokyo)
MoNA Rating=3.75

>  <NUM PEAKS>  (4136) 
36

>  <MASS SPECTRAL PEAKS>  (4136) 
41 17.21
42 2.68
43 99.99
45 1.61
50 1.7
51 2.77
52 1.61
53 7.7
54 6.38
55 14.75
56 1.41
59 12.6
66 3.94
67 42.77
68 8.46
69 1.72
73 12.92
81 2.77
82 21.4
83 52.49
84 3.58
95 3.58
96 88.18
97 7.15
98 1.29
99 5.07
109 46.02
110 2.99
114 2.2
123 1.55
124 49.35
125 29.45
126 1.98
141 12.38
156 31.92
157 2.68

>  <PREDICTED SPECTRUM>  (4136) 
14 16
15 139
26 60
27 266
28 84
29 223
31 103
32 20
33 29
37 16
38 126
39 458
40 228
41 606
42 312
43 929
44 175
45 105
50 95
51 244
52 171
53 450
54 220
55 403
56 133
57 101
58 43
59 501
65 191
66 66
67 400
68 195
69 222
73 23
81 575
82 496
83 560
84 115
85 10
91 79
95 187
96 607
97 287
98 118
99 146
109 846
110 80
111 67
113 60
114 19
124 999
125 652
126 108
127 39
141 461
142 31
156 504
157 54

$$$$

     RDKit          2D

 16 17  0  0  0  0  0  0  0  0999 V2000
   -4.4483    0.5487    0.0000 C   0  0  0  0  0  0  0  0  0  0  0  0
   -6.4972   -0.0006    0.0000 C   0  0  0  0  0  0  0  0  0  0  0  0
   -5.9479   -2.0496    0.0000 C   0  0  0  0  0  0  0  0  0  0  0  0
    2.6000   -0.7500    0.0000 C   0  0  0  0  0  0  0  0  0  0  0  0
    1.3000   -1.5000    0.0000 C   0  0  0  0  0  0  0  0  0  0  0  0
    2.6000    0.7500    0.0000 C   0  0  0  0  0  0  0  0  0  0  0  0
   -2.6000    0.7500    0.0000 C   0  0  0  0  0  0  0  0  0  0  0  0
   -1.3000    1.5000    0.0000 C   0  0  0  0  0  0  0  0  0  0  0  0
   -1.3000   -1.5000    0.0000 C   0  0  0  0  0  0  0  0  0  0  0  0
   -3.8989   -1.5002    0.0000 C   0  0  0  0  0  0  0  0  0  0  0  0
   -2.6000   -0.7500    0.0000 C   0  0  0  0  0  0  0  0  0  0  0  0
    0.0000   -0.7500    0.0000 C   0  0  0  0  0  0  0  0  0  0  0  0
    0.0000    0.7500    0.0000 C   0  0  0  0  0  0  0  0  0  0  0  0
    1.3000    1.5000    0.0000 C   0  0  0  0  0  0  0  0  0  0  0  0
    1.3000    3.0000    0.0000 O   0  0  0  0  0  0  0  0  0  0  0  0
   -5.1981   -0.7504    0.0000 Si  0  0  0  0  0  4  0  0  0  0  0  0
  5  4  1  0
  6  4  1  0
  8  7  1  0
 11  7  2  0
 11  9  1  0
 11 10  1  0
 12  5  1  0
 12  9  1  0
 13  8  1  0
 13 12  1  0
 14  6  1  0
 14 13  1  0
 15 14  2  0
 16  1  1  0
 16  2  1  0
 16  3  1  0
 16 10  1  0
M  END
>  <NAME>  (4137) 
6-TRIMETHYLSILYLMETHYL-3,4,4A,5,8,8A-HEXAHYDRO-1(2H)-NAPHTHALENONE

>  <SYNONYMS>  (4137) 


>  <SPECTRUM TYPE>  (4137) 
MS1

>  <INSTRUMENT TYPE>  (4137) 
EI-B

>  <INSTRUMENT>  (4137) 
JEOL JMS-D-3000

>  <ION MODE>  (4137) 
P

>  <INCHIKEY>  (4137) 
RWOJYFLMIFUXLK-UHFFFAOYSA-N

>  <FORMULA>  (4137) 
C14H24OSi

>  <EXACT MASS>  (4137) 
236.15964191799998

>  <MW>  (4137) 
236

>  <ID>  (4137) 
JP004727

>  <CONTRIBUTOR>  (4137) 
University of Tokyo Team, {Faculty of Engineering, University of Tokyo

>  <COMMENT>  (4137) 
computed SMILES=O=C1CCCC2CC(=CCC12)C[Si](C)(C)C
SMILES=O=C(C2)C(C1)C(CC2)CC(=C1)C[Si](C)(C)C
cas=82096-10-4
InChI=InChI=1S/C14H24OSi/c1-16(2,3)10-11-7-8-13-12(9-11)5-4-6-14(13)15/h7,12-13H,4-6,8-10H2,1-3H3
accession=JP004727
date=2016.01.19 (Created 2008.10.21, modified 2011.05.06)
author=MASS SPECTROSCOPY SOC. OF JAPAN (MSSJ)
license=CC BY-NC-SA
exact mass=236.15964
ionization energy=70 eV
ion type=[M]+*
computed spectral entropy=2.5985407405482555
computed normalized entropy=0.7798263079632008
SPLASH=splash10-00di-9610000000-3b4e3b71538b85289c49
submitter=submitter = University of Tokyo Team (Faculty of Engineering, University of Tokyo)
MoNA Rating=3.75

>  <NUM PEAKS>  (4137) 
28

>  <MASS SPECTRAL PEAKS>  (4137) 
42 2.94
43 2.17
45 10.33
55 1.9
59 7.07
73 99.99
74 8.94
75 17.01
77 4.39
79 2.82
91 7.13
92 2.65
104 7.92
105 8.01
117 3.54
118 7.82
129 2.61
131 11.15
145 3.9
146 16.87
147 2.74
149 2.72
169 41.5
170 6.48
171 2.01
203 4.05
236 12.87
237 2.76

>  <PREDICTED SPECTRUM>  (4137) 
27 4
28 4
29 14
41 31
43 18
45 274
47 30
51 24
53 86
55 55
59 254
60 68
61 18
65 43
66 17
67 85
73 999
74 294
75 436
76 83
77 192
78 98
79 219
80 0
81 50
91 238
92 102
93 88
95 20
103 183
104 170
105 186
109 35
115 18
117 240
118 145
119 89
127 6
129 167
130 47
131 251
132 25
144 33
145 217
146 350
147 62
153 51
154 46
155 2
162 46
167 144
168 251
169 422
170 163
179 5
180 34
181 159
182 98
193 42
194 16
208 17
221 138
222 31
236 302
237 135
238 16

$$$$

     RDKit          2D

 15 15  0  0  0  0  0  0  0  0999 V2000
    9.0942    0.7512    0.0000 C   0  0  0  0  0  0  0  0  0  0  0  0
    7.7948    3.0010    0.0000 C   0  0  0  0  0  0  0  0  0  0  0  0
   -2.5989   -1.5002    0.0000 C   0  0  0  0  0  0  0  0  0  0  0  0
    5.1970    1.5006    0.0000 C   0  0  0  0  0  0  0  0  0  0  0  0
    6.4962    0.7508    0.0000 C   0  0  0  0  0  0  0  0  0  0  0  0
    3.8981    0.7504    0.0000 C   0  0  0  0  0  0  0  0  0  0  0  0
   -1.3000    0.7500    0.0000 C   0  0  0  0  0  0  0  0  0  0  0  0
   -0.0000   -1.5000    0.0000 C   0  0  0  0  0  0  0  0  0  0  0  0
    0.0000    1.5000    0.0000 C   0  0  0  0  0  0  0  0  0  0  0  0
    1.3000   -0.7500    0.0000 C   0  0  0  0  0  0  0  0  0  0  0  0
    7.7951    1.5010    0.0000 C   0  0  0  0  0  0  0  0  0  0  0  0
   -1.3000   -0.7500    0.0000 C   0  0  0  0  0  0  0  0  0  0  0  0
    1.3000    0.7500    0.0000 C   0  0  0  0  0  0  0  0  0  0  0  0
    2.5989    1.5002    0.0000 C   0  0  0  0  0  0  0  0  0  0  0  0
    2.5987    3.0002    0.0000 O   0  0  0  0  0  0  0  0  0  0  0  0
  5  4  1  0
  6  4  1  0
  9  7  1  0
 10  8  1  0
 11  1  1  0
 11  2  1  0
 11  5  2  0
 12  3  2  0
 12  7  1  0
 12  8  1  0
 13  9  1  0
 13 10  1  0
 14  6  1  0
 14 13  1  0
 15 14  1  0
M  END
>  <NAME>  (4138) 
1-(4-METHYLENECYCLOHEXYL)-5-METHYL-4-HEXEN-1-OL

>  <SYNONYMS>  (4138) 


>  <SPECTRUM TYPE>  (4138) 
MS1

>  <INSTRUMENT TYPE>  (4138) 
EI-B

>  <INSTRUMENT>  (4138) 
JEOL JMS-D-3000

>  <ION MODE>  (4138) 
P

>  <INCHIKEY>  (4138) 
YNTXRJAXNARKST-UHFFFAOYSA-N

>  <FORMULA>  (4138) 
C14H24O

>  <EXACT MASS>  (4138) 
208.182715388

>  <MW>  (4138) 
208

>  <ID>  (4138) 
JP004726

>  <CONTRIBUTOR>  (4138) 
University of Tokyo Team, {Faculty of Engineering, University of Tokyo

>  <COMMENT>  (4138) 
SMILES=CC(C)=CCCC(O)C(C1)CCC(=C)C1
InChI=InChI=1S/C14H24O/c1-11(2)5-4-6-14(15)13-9-7-12(3)8-10-13/h5,13-15H,3-4,6-10H2,1-2H3
computed SMILES=OC(CCC=C(C)C)C1CCC(=C)CC1
accession=JP004726
date=2016.01.19 (Created 2008.10.21, modified 2011.05.06)
exact mass=208.18272
author=MASS SPECTROSCOPY SOC. OF JAPAN (MSSJ)
license=CC BY-NC-SA
ionization energy=70 eV
ion type=[M]+*
computed spectral entropy=3.1575211387361493
computed normalized entropy=0.88112305054442
SPLASH=splash10-067m-9200000000-5e56e632536c522ea2f8
submitter=submitter = University of Tokyo Team (Faculty of Engineering, University of Tokyo)
MoNA Rating=3.75

>  <NUM PEAKS>  (4138) 
36

>  <MASS SPECTRAL PEAKS>  (4138) 
42 99.99
43 27.07
53 19.23
55 51.36
56 15.23
57 20.62
67 53.52
68 15.61
69 81.21
70 10.39
79 31.01
81 28.46
82 93.82
83 16.17
91 25.29
92 14.5
93 27.57
94 14.11
95 80.87
96 11.56
105 19.89
106 36.29
107 13.56
119 16.78
123 16.28
147 21.9
151 29.4
161 1.66
165 11.17
166 1.94
175 2.72
190 6.55
191 1.55
193 1.16
208 4.55
209 1.11

>  <PREDICTED SPECTRUM>  (4138) 
27 122
29 158
31 60
39 385
40 150
41 999
42 408
43 651
44 155
45 168
50 32
51 167
52 110
53 497
54 319
55 678
56 291
57 417
58 128
59 152
63 30
65 206
66 197
67 770
68 516
69 928
70 232
71 79
72 57
77 379
78 163
79 638
80 352
81 857
82 688
83 211
84 123
91 364
92 310
93 902
94 492
95 936
96 287
97 126
105 355
106 267
107 415
108 137
109 165
119 343
120 5
121 246
122 44
123 256
124 29
133 5
134 122
136 8
147 396
164 36
165 199
175 376
176 0
190 460
191 102
193 33
208 214
209 57

$$$$

     RDKit          2D

 15 15  0  0  0  0  0  0  0  0999 V2000
    9.0942    0.7512    0.0000 C   0  0  0  0  0  0  0  0  0  0  0  0
    7.7948    3.0010    0.0000 C   0  0  0  0  0  0  0  0  0  0  0  0
   -2.5989   -1.5002    0.0000 C   0  0  0  0  0  0  0  0  0  0  0  0
    5.1970    1.5006    0.0000 C   0  0  0  0  0  0  0  0  0  0  0  0
    6.4962    0.7508    0.0000 C   0  0  0  0  0  0  0  0  0  0  0  0
    3.8981    0.7504    0.0000 C   0  0  0  0  0  0  0  0  0  0  0  0
   -1.3000    0.7500    0.0000 C   0  0  0  0  0  0  0  0  0  0  0  0
   -0.0000   -1.5000    0.0000 C   0  0  0  0  0  0  0  0  0  0  0  0
    0.0000    1.5000    0.0000 C   0  0  0  0  0  0  0  0  0  0  0  0
    1.3000   -0.7500    0.0000 C   0  0  0  0  0  0  0  0  0  0  0  0
    7.7951    1.5010    0.0000 C   0  0  0  0  0  0  0  0  0  0  0  0
   -1.3000   -0.7500    0.0000 C   0  0  0  0  0  0  0  0  0  0  0  0
    1.3000    0.7500    0.0000 C   0  0  0  0  0  0  0  0  0  0  0  0
    2.5989    1.5002    0.0000 C   0  0  0  0  0  0  0  0  0  0  0  0
    2.5987    3.0002    0.0000 O   0  0  0  0  0  0  0  0  0  0  0  0
  5  4  1  0
  6  4  1  0
  9  7  1  0
 10  8  1  0
 11  1  1  0
 11  2  1  0
 11  5  2  0
 12  3  2  0
 12  7  1  0
 12  8  1  0
 13  9  1  0
 13 10  1  0
 14  6  1  0
 14 13  1  0
 15 14  2  0
M  END
>  <NAME>  (4139) 
4-METHYLENECYCLOHEXYL 4-METHYL-3-PENTENYLKETONE

>  <SYNONYMS>  (4139) 


>  <SPECTRUM TYPE>  (4139) 
MS1

>  <INSTRUMENT TYPE>  (4139) 
EI-B

>  <INSTRUMENT>  (4139) 
JEOL JMS-D-3000

>  <ION MODE>  (4139) 
P

>  <INCHIKEY>  (4139) 
RUVQJUFOCKSEQX-UHFFFAOYSA-N

>  <FORMULA>  (4139) 
C14H22O

>  <EXACT MASS>  (4139) 
206.167065324

>  <MW>  (4139) 
206

>  <ID>  (4139) 
JP004725

>  <CONTRIBUTOR>  (4139) 
University of Tokyo Team, {Faculty of Engineering, University of Tokyo

>  <COMMENT>  (4139) 
SMILES=CC(C)=CCCC(=O)C(C1)CCC(=C)C1
InChI=InChI=1S/C14H22O/c1-11(2)5-4-6-14(15)13-9-7-12(3)8-10-13/h5,13H,3-4,6-10H2,1-2H3
computed SMILES=O=C(CCC=C(C)C)C1CCC(=C)CC1
accession=JP004725
date=2016.01.19 (Created 2008.10.21, modified 2011.05.06)
author=MASS SPECTROSCOPY SOC. OF JAPAN (MSSJ)
license=CC BY-NC-SA
exact mass=206.16707
ionization energy=70 eV
ion type=[M]+*
computed spectral entropy=2.9497633564209957
computed normalized entropy=0.867272029646058
SPLASH=splash10-052r-9710000000-72b1ba0dbd27a79fd917
submitter=submitter = University of Tokyo Team (Faculty of Engineering, University of Tokyo)
MoNA Rating=3.75

>  <NUM PEAKS>  (4139) 
30

>  <MASS SPECTRAL PEAKS>  (4139) 
41 20.84
43 13.15
44 5.62
53 4.94
55 15.29
65 3.53
67 8.34
69 21.33
77 10.3
79 15.58
80 3.71
81 14.19
83 26.09
91 9.8
92 3.89
93 13.31
94 4.6
95 9.85
97 4.81
105 6.48
107 4.28
121 27.45
122 3.81
136 4.23
139 99.99
140 9.96
145 10.82
163 10.48
206 38.8
207 5.49

>  <PREDICTED SPECTRUM>  (4139) 
27 39
29 73
39 181
40 40
41 739
42 98
43 582
50 1
51 132
52 51
53 336
54 61
55 561
56 17
57 127
65 179
66 92
67 477
68 242
69 999
70 120
71 68
77 464
78 176
79 531
80 297
81 554
82 176
83 234
85 60
91 381
92 336
93 686
94 210
95 442
96 10
105 230
106 21
107 282
108 51
109 172
110 103
120 103
121 503
122 171
123 99
124 24
135 119
136 360
137 16
148 135
163 463
164 66
191 32
206 546
207 157

$$$$

     RDKit          2D

 15 16  0  0  0  0  0  0  0  0999 V2000
   -2.5990    3.7500    0.0000 C   0  0  0  0  0  0  0  0  0  0  0  0
   -0.0010    3.7500    0.0000 C   0  0  0  0  0  0  0  0  0  0  0  0
    3.8989    1.5002    0.0000 C   0  0  0  0  0  0  0  0  0  0  0  0
    2.6000   -0.7500    0.0000 C   0  0  0  0  0  0  0  0  0  0  0  0
    1.3000   -1.5000    0.0000 C   0  0  0  0  0  0  0  0  0  0  0  0
   -2.6000    0.7500    0.0000 C   0  0  0  0  0  0  0  0  0  0  0  0
   -2.6000   -0.7500    0.0000 C   0  0  0  0  0  0  0  0  0  0  0  0
    1.3000    1.5000    0.0000 C   0  0  0  0  0  0  0  0  0  0  0  0
   -1.3000    3.0000    0.0000 C   0  0  0  0  0  0  0  0  0  0  0  0
    2.6000    0.7500    0.0000 C   0  0  0  0  0  0  0  0  0  0  0  0
   -1.3000    1.5000    0.0000 C   0  0  0  0  0  0  0  0  0  0  0  0
    0.0000   -0.7500    0.0000 C   0  0  0  0  0  0  0  0  0  0  0  0
    0.0000    0.7500    0.0000 C   0  0  0  0  0  0  0  0  0  0  0  0
   -1.3000   -1.5000    0.0000 C   0  0  0  0  0  0  0  0  0  0  0  0
   -1.3000   -3.0000    0.0000 O   0  0  0  0  0  0  0  0  0  0  0  0
  5  4  1  0
  7  6  1  0
  9  1  1  0
  9  2  1  0
 10  3  2  0
 10  4  1  0
 10  8  1  0
 11  6  1  0
 11  9  1  0
 12  5  1  0
 13  8  1  0
 13 11  1  0
 13 12  1  0
 14  7  1  0
 14 12  1  0
 15 14  2  0
M  END
>  <NAME>  (4140) 
4-ISOPROPYL-6-METHYLENE-3,4,4A,5,6,7,8,8A-OCTAHYDRO-1(2H)-NAPHTHALENONE

>  <SYNONYMS>  (4140) 


>  <SPECTRUM TYPE>  (4140) 
MS1

>  <INSTRUMENT TYPE>  (4140) 
EI-B

>  <INSTRUMENT>  (4140) 
JEOL JMS-D-3000

>  <ION MODE>  (4140) 
P

>  <INCHIKEY>  (4140) 
JSJLUTZQCLOLOV-UHFFFAOYSA-N

>  <FORMULA>  (4140) 
C14H22O

>  <EXACT MASS>  (4140) 
206.167065324

>  <MW>  (4140) 
206

>  <ID>  (4140) 
JP004724

>  <CONTRIBUTOR>  (4140) 
University of Tokyo Team, {Faculty of Engineering, University of Tokyo

>  <COMMENT>  (4140) 
SMILES=CC(C)C(C1)C(C2)C(CCC(=C)2)C(=O)C1
cas=82096-16-0
InChI=InChI=1S/C14H22O/c1-9(2)11-6-7-14(15)12-5-4-10(3)8-13(11)12/h9,11-13H,3-8H2,1-2H3
computed SMILES=O=C1CCC(C(C)C)C2CC(=C)CCC12
accession=JP004724
date=2016.01.19 (Created 2008.10.21, modified 2011.05.06)
author=MASS SPECTROSCOPY SOC. OF JAPAN (MSSJ)
license=CC BY-NC-SA
exact mass=206.16707
ionization energy=70 eV
ion type=[M]+*
computed spectral entropy=3.1543139618186014
computed normalized entropy=0.9274127925728018
SPLASH=splash10-053r-9410000000-dbe58e3a031386772c52
submitter=submitter = University of Tokyo Team (Faculty of Engineering, University of Tokyo)
MoNA Rating=3.75

>  <NUM PEAKS>  (4140) 
30

>  <MASS SPECTRAL PEAKS>  (4140) 
43 18.09
53 11.4
55 30.17
67 19.64
69 23.52
77 16.68
79 32.45
80 24.44
81 60.21
82 10.1
83 99.99
91 20.78
92 11.97
93 31.76
94 10
95 17.86
105 11.4
107 13.9
109 10.78
119 9.24
121 31.87
123 11.1
135 10.88
136 12.35
139 50.57
145 34.75
163 33.75
188 9.76
206 57.26
207 9.07

>  <PREDICTED SPECTRUM>  (4140) 
39 95
41 577
42 24
43 621
51 15
53 359
54 113
55 714
57 44
65 175
66 81
67 676
68 219
69 554
71 61
77 418
78 36
79 674
80 272
81 999
82 366
83 540
91 675
92 289
93 933
94 402
95 680
96 211
105 408
107 357
108 73
109 391
110 31
117 38
118 59
119 328
120 116
121 526
122 128
123 68
133 148
135 492
136 242
145 715
146 128
163 941
164 194
173 130
178 3
188 402
189 54
191 188
206 903
207 250

$$$$

     RDKit          2D

 15 15  0  0  0  0  0  0  0  0999 V2000
    3.3491    0.2013    0.0000 C   0  0  0  0  0  0  0  0  0  0  0  0
    3.8978    2.2504    0.0000 C   0  0  0  0  0  0  0  0  0  0  0  0
   -3.1483    0.5487    0.0000 C   0  0  0  0  0  0  0  0  0  0  0  0
   -5.1972   -0.0006    0.0000 C   0  0  0  0  0  0  0  0  0  0  0  0
   -4.6479   -2.0496    0.0000 C   0  0  0  0  0  0  0  0  0  0  0  0
   -1.3000    0.7500    0.0000 C   0  0  0  0  0  0  0  0  0  0  0  0
    0.0000   -1.5000    0.0000 C   0  0  0  0  0  0  0  0  0  0  0  0
    0.0000    1.5000    0.0000 C   0  0  0  0  0  0  0  0  0  0  0  0
    1.3000   -0.7500    0.0000 C   0  0  0  0  0  0  0  0  0  0  0  0
   -2.5989   -1.5002    0.0000 C   0  0  0  0  0  0  0  0  0  0  0  0
   -1.3000   -0.7500    0.0000 C   0  0  0  0  0  0  0  0  0  0  0  0
    1.3000    0.7500    0.0000 C   0  0  0  0  0  0  0  0  0  0  0  0
    2.5989    1.5002    0.0000 C   0  0  0  0  0  0  0  0  0  0  0  0
    1.8487    2.7991    0.0000 O   0  0  0  0  0  0  0  0  0  0  0  0
   -3.8981   -0.7504    0.0000 Si  0  0  0  0  0  4  0  0  0  0  0  0
  8  6  1  0
  9  7  1  0
 11  6  2  0
 11  7  1  0
 11 10  1  0
 12  8  1  0
 12  9  1  0
 13  1  1  0
 13  2  1  0
 13 12  1  0
 14 13  1  0
 15  3  1  0
 15  4  1  0
 15  5  1  0
 15 10  1  0
M  END
>  <NAME>  (4141) 
2-(4-TRIMETHYLSILYLMETHYL-3-CYCLOHEXENYL)-2-PROPANOL

>  <SYNONYMS>  (4141) 


>  <SPECTRUM TYPE>  (4141) 
MS1

>  <INSTRUMENT TYPE>  (4141) 
EI-B

>  <INSTRUMENT>  (4141) 
JEOL JMS-D-3000

>  <ION MODE>  (4141) 
P

>  <INCHIKEY>  (4141) 
JKVMEKIYWAVPHZ-UHFFFAOYSA-N

>  <FORMULA>  (4141) 
C13H26OSi

>  <EXACT MASS>  (4141) 
226.175291982

>  <MW>  (4141) 
226

>  <ID>  (4141) 
JP004723

>  <CONTRIBUTOR>  (4141) 
University of Tokyo Team, {Faculty of Engineering, University of Tokyo

>  <COMMENT>  (4141) 
SMILES=CC(C)(O)C(C1)CC=C(C1)C[Si](C)(C)C
InChI=InChI=1S/C13H26OSi/c1-13(2,14)12-8-6-11(7-9-12)10-15(3,4)5/h6,12,14H,7-10H2,1-5H3
computed SMILES=OC(C)(C)C1CC=C(CC1)C[Si](C)(C)C
accession=JP004723
date=2016.01.19 (Created 2008.10.21, modified 2011.05.06)
author=MASS SPECTROSCOPY SOC. OF JAPAN (MSSJ)
license=CC BY-NC-SA
exact mass=226.17529
ionization energy=70 eV
ion type=[M]+*
computed spectral entropy=2.450653509931319
computed normalized entropy=0.7711176842032949
SPLASH=splash10-00di-9010000000-a42ca9fdbf78932f4aa2
submitter=submitter = University of Tokyo Team (Faculty of Engineering, University of Tokyo)
MoNA Rating=3.75

>  <NUM PEAKS>  (4141) 
24

>  <MASS SPECTRAL PEAKS>  (4141) 
42 2.57
43 5.28
45 7.99
59 12.87
69 3.52
71 2.71
73 99.99
74 11.24
75 16.26
77 4.74
79 4.33
91 5.28
92 7.72
93 18.97
94 5.14
121 2.71
134 6.5
135 2.71
149 2.84
193 3.11
208 25.74
209 5.14
211 2.84
226 5.28

>  <PREDICTED SPECTRUM>  (4141) 
31 21
39 6
41 27
43 115
45 231
53 54
55 57
57 65
58 54
59 460
61 8
66 13
73 999
74 316
75 420
76 42
77 176
78 82
79 216
80 80
81 75
91 206
92 99
93 215
94 86
103 57
105 47
107 85
108 0
109 26
118 2
119 93
121 152
122 74
131 212
132 53
133 41
134 86
135 59
136 103
137 82
150 1
152 39
159 56
167 29
193 207
208 433
209 154
211 86
226 162
227 5

$$$$

     RDKit          2D

 16 17  0  0  0  0  0  0  0  0999 V2000
   -1.4390   -5.5000    0.0000 C   0  0  0  0  0  0  0  0  0  0  0  0
    1.1596    3.0977    0.0000 C   0  0  0  0  0  0  0  0  0  0  0  0
    0.6112    5.1469    0.0000 C   0  0  0  0  0  0  0  0  0  0  0  0
   -1.4380    4.5985    0.0000 C   0  0  0  0  0  0  0  0  0  0  0  0
   -1.4400   -1.0000    0.0000 C   0  0  0  0  0  0  0  0  0  0  0  0
   -1.4400    0.5000    0.0000 C   0  0  0  0  0  0  0  0  0  0  0  0
    1.1600   -1.0000    0.0000 C   0  0  0  0  0  0  0  0  0  0  0  0
   -0.8896    2.5493    0.0000 C   0  0  0  0  0  0  0  0  0  0  0  0
   -0.1400   -1.7500    0.0000 C   0  0  0  0  0  0  0  0  0  0  0  0
    1.1600    0.5000    0.0000 C   0  0  0  0  0  0  0  0  0  0  0  0
   -0.1400   -3.2500    0.0000 C   0  0  0  0  0  0  0  0  0  0  0  0
   -0.1400    1.2500    0.0000 C   0  0  0  0  0  0  0  0  0  0  0  0
    1.1590   -4.0000    0.0000 O   0  0  0  0  0  0  0  0  0  0  0  0
   -1.4390   -4.0000    0.0000 O   0  0  0  0  0  0  0  0  0  0  0  0
    1.1600    2.0000    0.0000 O   0  0  0  0  0  0  0  0  0  0  0  0
   -0.1392    3.8481    0.0000 Si  0  0  0  0  0  4  0  0  0  0  0  0
  6  5  1  0
  9  5  1  0
  9  7  1  0
 10  7  1  0
 11  9  1  0
 12  6  1  0
 12  8  1  0
 12 10  1  0
 13 11  2  0
 14  1  1  0
 14 11  1  0
 15 10  1  0
 15 12  1  0
 16  2  1  0
 16  3  1  0
 16  4  1  0
 16  8  1  0
M  END
>  <NAME>  (4142) 
METHYL 3,4-EPOXY-4-TRIMETHYLSILYLMETHYLCYCLOHEXANECARBOXYLATE

>  <SYNONYMS>  (4142) 


>  <SPECTRUM TYPE>  (4142) 
MS1

>  <INSTRUMENT TYPE>  (4142) 
EI-B

>  <INSTRUMENT>  (4142) 
JEOL JMS-D-3000

>  <ION MODE>  (4142) 
P

>  <INCHIKEY>  (4142) 
ZRXHXHKQHYXCHY-UHFFFAOYSA-N

>  <FORMULA>  (4142) 
C12H22O3Si

>  <EXACT MASS>  (4142) 
242.13382109399998

>  <MW>  (4142) 
242

>  <ID>  (4142) 
JP004722

>  <CONTRIBUTOR>  (4142) 
University of Tokyo Team, {Faculty of Engineering, University of Tokyo

>  <COMMENT>  (4142) 
SMILES=COC(=O)C(C2)CC(O1)C(C2)(C[Si](C)(C)C)1
InChI=InChI=1S/C12H22O3Si/c1-14-11(13)9-5-6-12(8-16(2,3)4)10(7-9)15-12/h9-10H,5-8H2,1-4H3
computed SMILES=O=C(OC)C1CCC2(OC2C1)C[Si](C)(C)C
accession=JP004722
date=2016.01.19 (Created 2008.10.21, modified 2011.05.06)
author=MASS SPECTROSCOPY SOC. OF JAPAN (MSSJ)
license=CC BY-NC-SA
exact mass=242.13382
ionization energy=70 eV
ion type=[M]+*
computed spectral entropy=2.9386577491457393
computed normalized entropy=0.855756755676767
SPLASH=splash10-05c6-9300000000-a2470f8237378e321703
submitter=submitter = University of Tokyo Team (Faculty of Engineering, University of Tokyo)
MoNA Rating=3.75

>  <NUM PEAKS>  (4142) 
31

>  <MASS SPECTRAL PEAKS>  (4142) 
43 7.61
45 15.22
47 7.59
55 32.29
59 18.85
61 14.77
73 81.8
74 8.6
75 99.99
76 8.07
77 15.73
87 9.01
89 30.33
91 27.25
92 8.28
93 74.8
94 6.23
109 7.33
121 6.95
149 25.24
151 7.27
159 32.93
167 30.28
182 12.33
183 65.96
184 11.61
213 1.36
224 2.21
227 7.58
228 1.39
242 2.28

>  <PREDICTED SPECTRUM>  (4142) 
39 30
41 100
43 175
44 64
45 219
47 57
51 28
53 130
55 329
58 76
59 377
60 130
61 197
65 137
66 129
67 225
68 78
69 96
70 45
73 999
74 272
75 701
76 160
77 268
78 149
79 317
80 1
81 83
82 1
85 7
87 50
88 61
89 493
90 90
91 299
92 183
93 688
94 249
95 239
96 42
101 50
103 33
104 32
105 157
106 49
107 79
108 59
109 129
110 89
111 50
115 135
117 97
119 32
121 128
123 96
129 10
130 6
135 71
138 77
139 4
141 38
149 301
150 82
151 152
152 83
155 11
159 122
160 44
165 148
166 67
167 342
168 59
175 34
181 42
182 241
183 766
184 314
185 109
187 7
198 69
199 104
210 52
211 46
213 33
227 262
228 50
242 117
243 8

$$$$

     RDKit          2D

 21 23  0  0  0  0  0  0  0  0999 V2000
   -0.5490    5.0490    0.0000 C   0  0  0  0  0  0  0  0  0  0  0  0
   -2.5981    4.5000    0.0000 C   0  0  0  0  0  0  0  0  0  0  0  0
   -2.0490    2.4510    0.0000 C   0  0  0  0  0  0  0  0  0  0  0  0
    1.4772    2.7395    0.0000 C   0  0  0  0  0  0  0  0  0  0  0  0
    0.5130    4.4095    0.0000 C   0  0  0  0  0  0  0  0  0  0  0  0
    3.9000   -0.7500    0.0000 C   0  0  0  0  0  0  0  0  0  0  0  0
   -3.9000   -0.7500    0.0000 C   0  0  0  0  0  0  0  0  0  0  0  0
    3.9000    0.7500    0.0000 C   0  0  0  0  0  0  0  0  0  0  0  0
   -3.9000    0.7500    0.0000 C   0  0  0  0  0  0  0  0  0  0  0  0
    2.6000   -1.5000    0.0000 C   0  0  0  0  0  0  0  0  0  0  0  0
   -2.6000   -1.5000    0.0000 C   0  0  0  0  0  0  0  0  0  0  0  0
    2.6000    1.5000    0.0000 C   0  0  0  0  0  0  0  0  0  0  0  0
   -2.6000    1.5000    0.0000 C   0  0  0  0  0  0  0  0  0  0  0  0
   -0.0000   -1.5000    0.0000 C   0  0  0  0  0  0  0  0  0  0  0  0
    1.3000   -0.7500    0.0000 C   0  0  0  0  0  0  0  0  0  0  0  0
   -1.3000   -0.7500    0.0000 C   0  0  0  0  0  0  0  0  0  0  0  0
    1.3000    0.7500    0.0000 C   0  0  0  0  0  0  0  0  0  0  0  0
   -1.3000    0.7500    0.0000 C   0  0  0  0  0  0  0  0  0  0  0  0
   -0.0000    1.5000    0.0000 C   0  0  0  0  0  0  0  0  0  0  0  0
   -1.2990    3.7500    0.0000 Si  0  0  0  0  0  4  0  0  0  0  0  0
    0.0000    3.0000    0.0000 Si  0  0  0  0  0  4  0  0  0  0  0  0
  8  6  2  0
  9  7  1  0
 10  6  1  0
 11  7  2  0
 12  8  1  0
 13  9  2  0
 15 10  2  0
 15 14  1  0
 16 11  1  0
 16 14  2  0
 17 12  2  0
 17 15  1  0
 18 13  1  0
 18 16  1  0
 19 17  1  0
 19 18  2  0
 20  1  1  0
 20  2  1  0
 20  3  1  0
 21  4  1  0
 21  5  1  0
 21 19  1  0
 21 20  1  0
M  END
>  <NAME>  (4143) 
9-(PENTAMETHYLDISILANYL)ANTHRACENE

>  <SYNONYMS>  (4143) 
9-ANTHRYLPENTAMETHYLDISILANE

>  <SPECTRUM TYPE>  (4143) 
MS1

>  <INSTRUMENT TYPE>  (4143) 
EI-B

>  <INSTRUMENT>  (4143) 
JEOL JMS-D-3000

>  <ION MODE>  (4143) 
P

>  <INCHIKEY>  (4143) 
FHUHBAOZQYFCRI-UHFFFAOYSA-N

>  <FORMULA>  (4143) 
C19H24Si2

>  <EXACT MASS>  (4143) 
308.141653828

>  <MW>  (4143) 
308

>  <ID>  (4143) 
JP004721

>  <CONTRIBUTOR>  (4143) 
University of Tokyo Team, {Faculty of Engineering, University of Tokyo

>  <COMMENT>  (4143) 
SMILES=c(c3)cc(c1)c(c3)c(c(c2)c(ccc2)1)[Si](C)(C)[Si](C)(C)C
InChI=InChI=1S/C19H24Si2/c1-20(2,3)21(4,5)19-17-12-8-6-10-15(17)14-16-11-7-9-13-18(16)19/h6-14H,1-5H3
computed SMILES=C=1C=CC2=C(C1)C=C3C=CC=CC3=C2[Si](C)(C)[Si](C)(C)C
accession=JP004721
date=2016.01.19 (Created 2008.10.21, modified 2011.05.06)
author=MASS SPECTROSCOPY SOC. OF JAPAN (MSSJ)
license=CC BY-NC-SA
exact mass=308.14165
ionization energy=70 eV
ion type=[M]+*
computed spectral entropy=3.207962513187645
computed normalized entropy=0.7900523427752641
SPLASH=splash10-000i-2291000000-367bfb3ba73ec208e55c
submitter=submitter = University of Tokyo Team (Faculty of Engineering, University of Tokyo)
MoNA Rating=3.75

>  <NUM PEAKS>  (4143) 
58

>  <MASS SPECTRAL PEAKS>  (4143) 
43 4.27
45 6.97
47 1.7
53 1.79
59 2.82
63 1.19
73 19.56
74 2.1
75 14.27
76 4.88
77 2.13
88 2.09
89 3.72
117 1.03
150 1.32
151 2.11
152 2.79
165 2.6
176 3.36
177 2.18
178 18.02
179 4.73
180 3.33
181 1.29
189 1.8
191 3.37
192 1.6
193 1.4
195 1.06
202 1.79
203 2.03
204 2.37
205 5.95
206 1.63
207 2.46
208 3.8
209 1.23
217 7.1
218 3.13
219 10.05
220 7.14
221 1.85
231 1.97
232 1.62
233 7.76
234 4.36
235 99.99
236 24.09
237 7.09
249 2.13
250 3.89
251 1.29
277 1.63
293 4
294 1.3
308 21.6
309 7
310 2.59

>  <PREDICTED SPECTRUM>  (4143) 
43 21
44 42
45 179
46 25
47 7
53 0
55 11
58 73
59 67
63 25
73 487
74 99
75 162
76 39
77 30
88 21
89 6
100 6
101 43
102 90
103 35
105 13
113 42
117 33
126 18
128 14
129 75
130 71
134 21
135 82
145 21
146 12
147 11
149 31
150 81
151 92
152 84
153 48
157 1
158 47
159 23
163 81
164 43
165 98
166 71
167 29
176 124
177 177
178 248
179 199
180 131
181 148
182 23
189 133
190 92
191 122
192 121
193 84
194 39
195 20
202 61
203 17
204 237
205 230
206 167
207 188
208 143
209 129
216 12
217 400
218 163
219 255
220 300
221 163
222 12
231 110
232 86
233 183
234 158
235 999
236 519
237 225
250 58
293 178
294 113
295 26
306 0
308 242
309 245
310 125
311 34

$$$$

     RDKit          2D

 10 10  0  0  0  0  0  0  0  0999 V2000
    2.5989    1.5002    0.0000 C   0  0  0  0  0  0  0  0  0  0  0  0
    2.5989   -1.5002    0.0000 C   0  0  0  0  0  0  0  0  0  0  0  0
   -2.5989    1.5002    0.0000 C   0  0  0  0  0  0  0  0  0  0  0  0
   -2.5989   -1.5002    0.0000 C   0  0  0  0  0  0  0  0  0  0  0  0
    0.0000    1.5000    0.0000 C   0  0  0  0  0  0  0  0  0  0  0  0
   -0.0000   -1.5000    0.0000 C   0  0  0  0  0  0  0  0  0  0  0  0
    1.3000    0.7500    0.0000 C   0  0  0  0  0  0  0  0  0  0  0  0
    1.3000   -0.7500    0.0000 C   0  0  0  0  0  0  0  0  0  0  0  0
   -1.3000    0.7500    0.0000 C   0  0  0  0  0  0  0  0  0  0  0  0
   -1.3000   -0.7500    0.0000 C   0  0  0  0  0  0  0  0  0  0  0  0
  7  1  1  0
  7  5  2  0
  8  2  1  0
  8  6  2  0
  8  7  1  0
  9  3  1  0
  9  5  1  0
 10  4  1  0
 10  6  1  0
 10  9  2  0
M  END
>  <NAME>  (4144) 
1,2,4,5-TETRAMETHYLBENZENE

>  <SYNONYMS>  (4144) 
DURENE

>  <SPECTRUM TYPE>  (4144) 
MS1

>  <INSTRUMENT TYPE>  (4144) 
EI-B

>  <INSTRUMENT>  (4144) 
JEOL JMS-D-3000

>  <ION MODE>  (4144) 
P

>  <INCHIKEY>  (4144) 
SQNZJJAZBFDUTD-UHFFFAOYSA-N

>  <FORMULA>  (4144) 
C10H14

>  <EXACT MASS>  (4144) 
134.109550448

>  <MW>  (4144) 
134

>  <ID>  (4144) 
JP004716

>  <CONTRIBUTOR>  (4144) 
University of Tokyo Team, {Faculty of Engineering, University of Tokyo

>  <COMMENT>  (4144) 
SMILES=Cc(c1)c(C)cc(C)c(C)1
cas=95-93-2
InChI=InChI=1S/C10H14/c1-7-5-9(3)10(4)6-8(7)2/h5-6H,1-4H3
computed SMILES=C=1C(=C(C=C(C1C)C)C)C
accession=JP004716
date=2016.01.19 (Created 2008.10.21, modified 2011.05.06)
author=MASS SPECTROSCOPY SOC. OF JAPAN (MSSJ)
license=CC BY-NC-SA
exact mass=134.10955
ionization energy=70 eV
ion type=[M]+*
computed spectral entropy=2.229209860516243
computed normalized entropy=0.6620178247080826
SPLASH=splash10-0159-2900000000-c5e275a652f2792c1cad
submitter=submitter = University of Tokyo Team (Faculty of Engineering, University of Tokyo)
MoNA Rating=3.75

>  <NUM PEAKS>  (4144) 
29

>  <MASS SPECTRAL PEAKS>  (4144) 
50 1.09
51 3.58
52 1.34
53 2.76
57 1.1
58 1.17
63 2.11
64 2.28
65 5.36
66 2.77
67 1.54
77 6.11
78 1.57
79 2.53
91 11.32
92 1.17
93 1.34
103 2.87
104 1.75
105 3.1
115 4.86
116 2.1
117 6.08
118 2.3
119 99.99
120 10.04
133 12.67
134 64.76
135 7.2

>  <PREDICTED SPECTRUM>  (4144) 
14 45
15 126
16 14
17 5
18 26
26 90
27 285
28 134
29 84
32 24
36 19
37 61
38 124
39 351
40 129
41 205
42 27
49 12
50 197
51 287
52 157
53 225
54 67
58 119
59 34
61 70
62 139
63 239
64 165
65 234
66 85
67 86
68 19
71 19
73 28
74 165
75 171
76 126
77 278
78 156
79 213
80 83
81 9
82 20
85 3
86 61
87 68
88 6
89 119
91 409
92 181
93 163
94 60
99 57
100 13
101 78
102 100
103 144
104 125
105 267
106 72
107 116
108 1
113 3
115 451
116 236
117 262
118 137
119 999
120 297
121 61
128 113
129 43
131 128
132 136
133 361
134 873
135 293
136 58

$$$$

     RDKit          2D

  9  9  0  0  0  0  0  0  0  0999 V2000
   -3.5724    2.0075    0.0000 C   0  0  0  0  0  0  0  0  0  0  0  0
   -2.2733    1.2575    0.0000 C   0  0  0  0  0  0  0  0  0  0  0  0
    2.9228   -0.2425    0.0000 C   0  0  0  0  0  0  0  0  0  0  0  0
    2.9233    1.2583    0.0000 C   0  0  0  0  0  0  0  0  0  0  0  0
    1.6233   -0.9933    0.0000 C   0  0  0  0  0  0  0  0  0  0  0  0
   -0.9743    2.0075    0.0000 C   0  0  0  0  0  0  0  0  0  0  0  0
    1.6243    2.0083    0.0000 C   0  0  0  0  0  0  0  0  0  0  0  0
    0.3243   -0.2433    0.0000 C   0  0  0  0  0  0  0  0  0  0  0  0
    0.3248    1.2575    0.0000 C   0  0  0  0  0  0  0  0  0  0  0  0
  2  1  2  0
  4  3  2  0
  5  3  1  0
  6  2  1  0
  7  4  1  0
  8  5  2  0
  9  6  1  0
  9  7  2  0
  9  8  1  0
M  END
>  <NAME>  (4145) 
ALLYLBENZENE

>  <SYNONYMS>  (4145) 


>  <SPECTRUM TYPE>  (4145) 
MS1

>  <INSTRUMENT TYPE>  (4145) 
EI-B

>  <INSTRUMENT>  (4145) 
JEOL JMS-D-3000

>  <ION MODE>  (4145) 
P

>  <INCHIKEY>  (4145) 
HJWLCRVIBGQPNF-UHFFFAOYSA-N

>  <FORMULA>  (4145) 
C9H10

>  <EXACT MASS>  (4145) 
118.07825032

>  <MW>  (4145) 
118

>  <ID>  (4145) 
JP004714

>  <CONTRIBUTOR>  (4145) 
University of Tokyo Team, {Faculty of Engineering, University of Tokyo

>  <COMMENT>  (4145) 
SMILES=C=CCc(c1)cccc1
cas=300-57-2
InChI=InChI=1S/C9H10/c1-2-6-9-7-4-3-5-8-9/h2-5,7-8H,1,6H2
computed SMILES=C=CCC=1C=CC=CC1
accession=JP004714
date=2016.01.19 (Created 2008.10.21, modified 2011.05.06)
author=MASS SPECTROSCOPY SOC. OF JAPAN (MSSJ)
license=CC BY-NC-SA
exact mass=118.07825
ionization energy=70 eV
ion type=[M]+*
computed spectral entropy=2.2627952734847216
computed normalized entropy=0.7029768765862142
SPLASH=splash10-014i-3900000000-77b3ba66c4073c4892cb
submitter=submitter = University of Tokyo Team (Faculty of Engineering, University of Tokyo)
MoNA Rating=3.75

>  <NUM PEAKS>  (4145) 
25

>  <MASS SPECTRAL PEAKS>  (4145) 
50 3.43
51 8.45
52 2.14
57 1.4
58 6.79
62 1.98
63 5.6
64 1.3
65 9.85
74 1.23
75 1.16
76 1.1
77 5.17
78 6.22
89 4.65
90 2.31
91 33.91
92 3.16
102 1.57
103 7.93
115 27.1
116 7.42
117 99.99
118 82.97
119 8.02

>  <PREDICTED SPECTRUM>  (4145) 
14 7
15 45
16 1
25 13
26 126
27 264
28 100
29 54
36 7
37 100
38 178
39 423
40 169
41 302
42 67
43 36
44 17
49 48
50 272
51 406
52 210
53 124
56 2
57 124
58 37
61 120
62 211
63 339
64 193
65 332
66 129
67 24
69 8
70 46
71 38
73 63
74 193
75 212
76 182
77 356
78 332
79 139
83 34
85 1
86 87
87 151
88 136
89 278
90 148
91 698
92 300
93 43
97 20
98 64
99 11
100 37
101 103
102 247
103 484
104 228
105 13
113 78
114 71
115 594
116 440
117 999
118 940
119 270
120 39

$$$$

     RDKit          2D

  8  8  0  0  0  0  0  0  0  0999 V2000
   -0.0005    1.5008    0.0000 C   0  0  0  0  0  0  0  0  0  0  0  0
   -1.2995    0.7508    0.0000 C   0  0  0  0  0  0  0  0  0  0  0  0
    1.2995   -0.7508    0.0000 C   0  0  0  0  0  0  0  0  0  0  0  0
    0.0005   -1.5008    0.0000 C   0  0  0  0  0  0  0  0  0  0  0  0
    1.2990    0.7500    0.0000 C   0  0  0  0  0  0  0  0  0  0  0  0
   -1.2990   -0.7500    0.0000 C   0  0  0  0  0  0  0  0  0  0  0  0
    2.5981    1.5000    0.0000 O   0  0  0  0  0  0  0  0  0  0  0  0
   -2.5981   -1.5000    0.0000 O   0  0  0  0  0  0  0  0  0  0  0  0
  2  1  2  0
  4  3  2  0
  5  1  1  0
  5  3  1  0
  6  2  1  0
  6  4  1  0
  7  5  2  0
  8  6  2  0
M  END
>  <NAME>  (4146) 
1,4-BENZOQUINONE

>  <SYNONYMS>  (4146) 
2,5-CYCLOHEXADIENE-1,4-DIONE

>  <SPECTRUM TYPE>  (4146) 
MS1

>  <INSTRUMENT TYPE>  (4146) 
EI-B

>  <INSTRUMENT>  (4146) 
JEOL JMS-D-3000

>  <ION MODE>  (4146) 
P

>  <INCHIKEY>  (4146) 
AZQWKYJCGOJGHM-UHFFFAOYSA-N

>  <FORMULA>  (4146) 
C6H4O2

>  <EXACT MASS>  (4146) 
108.021129368

>  <MW>  (4146) 
108

>  <ID>  (4146) 
JP004713

>  <CONTRIBUTOR>  (4146) 
University of Tokyo Team, {Faculty of Engineering, University of Tokyo

>  <COMMENT>  (4146) 
SMILES=[H]c(c([H])1)c(=O)c([H])c([H])c(=O)1
cas=106-51-4
InChI=InChI=1S/C6H4O2/c7-5-1-2-6(8)4-3-5/h1-4H
computed SMILES=O=C1C=CC(=O)C=C1
accession=JP004713
date=2016.01.19 (Created 2008.10.21, modified 2011.05.06)
author=MASS SPECTROSCOPY SOC. OF JAPAN (MSSJ)
license=CC BY-NC-SA
exact mass=108.02113
ionization energy=70 eV
ion type=[M]+*
computed spectral entropy=1.9635631419957054
computed normalized entropy=0.6930516355625158
SPLASH=splash10-0zgi-9500000000-c8bfbbc465fad7929f87
submitter=submitter = University of Tokyo Team (Faculty of Engineering, University of Tokyo)
MoNA Rating=3.75

>  <NUM PEAKS>  (4146) 
17

>  <MASS SPECTRAL PEAKS>  (4146) 
49 2.15
50 4.89
51 3.94
52 16.25
53 14.28
54 69.78
55 3.16
61 2.04
62 1.68
63 1.03
80 27.63
81 1.85
82 33.67
83 1.55
108 99.99
109 6.93
110 1.8

>  <PREDICTED SPECTRUM>  (4146) 
17 20
18 46
25 262
26 506
27 286
28 359
29 163
31 43
32 53
36 46
37 193
38 273
39 169
40 107
42 6
44 51
48 74
49 74
50 243
51 456
52 707
53 541
54 876
55 91
56 78
61 29
63 274
64 286
65 191
79 392
80 926
81 309
82 480
106 14
107 43
108 999
109 286
110 108

$$$$

     RDKit          2D

 24 24  0  0  0  0  0  0  0  0999 V2000
    1.7147   -5.0099    0.0000 C   0  0  0  0  0  0  0  0  0  0  0  0
    3.0137   -2.7599    0.0000 C   0  0  0  0  0  0  0  0  0  0  0  0
    1.9157    3.2401    0.0000 C   0  0  0  0  0  0  0  0  0  0  0  0
    0.4157    4.7401    0.0000 C   0  0  0  0  0  0  0  0  0  0  0  0
   -1.0843    3.2401    0.0000 C   0  0  0  0  0  0  0  0  0  0  0  0
   -3.3491   -0.2013    0.0000 C   0  0  0  0  0  0  0  0  0  0  0  0
   -3.8978   -2.2504    0.0000 C   0  0  0  0  0  0  0  0  0  0  0  0
   -1.8487   -2.7991    0.0000 C   0  0  0  0  0  0  0  0  0  0  0  0
    2.2644   -2.5591    0.0000 C   0  0  0  0  0  0  0  0  0  0  0  0
    4.3135   -2.0103    0.0000 C   0  0  0  0  0  0  0  0  0  0  0  0
    3.7648    0.0388    0.0000 C   0  0  0  0  0  0  0  0  0  0  0  0
   -0.8843    0.9901    0.0000 C   0  0  0  0  0  0  0  0  0  0  0  0
    1.7157    0.9901    0.0000 C   0  0  0  0  0  0  0  0  0  0  0  0
    1.7147   -3.5099    0.0000 C   0  0  0  0  0  0  0  0  0  0  0  0
    0.4157    1.7401    0.0000 C   0  0  0  0  0  0  0  0  0  0  0  0
   -0.8843   -0.5099    0.0000 C   0  0  0  0  0  0  0  0  0  0  0  0
    1.7157   -0.5099    0.0000 C   0  0  0  0  0  0  0  0  0  0  0  0
    0.4157   -1.2599    0.0000 C   0  0  0  0  0  0  0  0  0  0  0  0
    0.4157    3.2401    0.0000 C   0  0  0  0  0  0  0  0  0  0  0  0
   -2.5989   -1.5002    0.0000 C   0  0  0  0  0  0  0  0  0  0  0  0
    3.0146   -1.2601    0.0000 C   0  0  0  0  0  0  0  0  0  0  0  0
   -1.0616   -2.4995    0.0000 F   0  0  0  0  0  0  0  0  0  0  0  0
   -0.0974   -4.1695    0.0000 O   0  0  0  0  0  0  0  0  0  0  0  0
    0.4157   -2.7599    0.0000 Si  0  0  0  0  0  4  0  0  0  0  0  0
 14  1  1  0
 14  2  1  0
 15 12  2  0
 15 13  1  0
 16 12  1  0
 17 13  2  0
 18 16  2  0
 18 17  1  0
 19  3  1  0
 19  4  1  0
 19  5  1  0
 19 15  1  0
 20  6  1  0
 20  7  1  0
 20  8  1  0
 20 16  1  0
 21  9  1  0
 21 10  1  0
 21 11  1  0
 21 17  1  0
 24 14  1  0
 24 18  1  0
 24 22  1  0
 24 23  1  0
M  END
>  <NAME>  (4147) 
FLUOROISOPROPYL(2,4,6-TRI-TERT-BUTYLPHENYL)SILANOL

>  <SYNONYMS>  (4147) 


>  <SPECTRUM TYPE>  (4147) 
MS1

>  <INSTRUMENT TYPE>  (4147) 
EI-B

>  <INSTRUMENT>  (4147) 
JEOL JMS-D-3000

>  <ION MODE>  (4147) 
P

>  <INCHIKEY>  (4147) 
CHNRYWBDALCSCB-UHFFFAOYSA-N

>  <FORMULA>  (4147) 
C21H37FOSi

>  <EXACT MASS>  (4147) 
352.259770554

>  <MW>  (4147) 
352

>  <ID>  (4147) 
JP004711

>  <CONTRIBUTOR>  (4147) 
University of Tokyo Team, {Faculty of Engineering, University of Tokyo

>  <COMMENT>  (4147) 
SMILES=CC(C)(C)c(c1)cc(C(C)(C)C)c(c1C(C)(C)C)[Si](O)(F)C(C)C
InChI=InChI=1S/C21H37FOSi/c1-14(2)24(22,23)18-16(20(6,7)8)12-15(19(3,4)5)13-17(18)21(9,10)11/h12-14,23H,1-11H3
computed SMILES=F[Si](O)(C=1C(=CC(=CC1C(C)(C)C)C(C)(C)C)C(C)(C)C)C(C)C
accession=JP004711
date=2016.01.19 (Created 2008.10.21, modified 2011.05.06)
author=MASS SPECTROSCOPY SOC. OF JAPAN (MSSJ)
license=CC BY-NC-SA
exact mass=352.25977
ionization energy=70 eV
ion type=[M]+*
computed spectral entropy=2.4685190254862976
computed normalized entropy=0.6738030539472848
SPLASH=splash10-053r-5190000000-e5a9b6ee2cc13719a295
submitter=submitter = University of Tokyo Team (Faculty of Engineering, University of Tokyo)
MoNA Rating=3.75

>  <NUM PEAKS>  (4147) 
39

>  <MASS SPECTRAL PEAKS>  (4147) 
43 4.02
55 2.41
57 62.03
58 2.88
63 1.19
65 1.25
77 8.25
79 23.33
80 1.36
91 2.33
105 1.17
107 1.99
115 1.55
117 1.39
128 2.31
129 1.72
131 2.19
138 2.04
141 1.15
143 1.18
157 1.01
173 1.46
175 1.05
189 1.19
215 1.76
229 1.28
235 1.7
253 7.42
254 1.59
281 99.99
282 23.54
283 6.31
291 8.47
292 2.16
296 11.16
297 2.75
309 2.45
337 1.25
352 1.74

>  <PREDICTED SPECTRUM>  (4147) 
29 31
39 36
41 173
42 0
43 88
44 26
51 19
53 32
55 135
56 64
57 510
58 48
64 16
65 30
66 15
67 24
69 24
71 13
77 123
78 40
79 53
83 18
91 79
93 23
101 16
105 64
107 51
108 11
115 63
117 29
128 55
129 45
131 46
132 22
141 54
142 5
143 13
145 10
155 23
182 2
184 35
223 17
225 48
231 160
251 0
253 82
281 999
282 430
283 191
284 28
296 151
297 51
324 10
337 48
352 85

$$$$

     RDKit          2D

 22 22  0  0  0  0  0  0  0  0999 V2000
   -2.3677    3.2191    0.0000 C   0  0  0  0  0  0  0  0  0  0  0  0
   -4.4167    2.6701    0.0000 C   0  0  0  0  0  0  0  0  0  0  0  0
   -3.8677    0.6210    0.0000 C   0  0  0  0  0  0  0  0  0  0  0  0
   -2.0198   -2.5810    0.0000 C   0  0  0  0  0  0  0  0  0  0  0  0
   -0.5196   -4.0807    0.0000 C   0  0  0  0  0  0  0  0  0  0  0  0
    0.9802   -2.5805    0.0000 C   0  0  0  0  0  0  0  0  0  0  0  0
    3.2446    0.8615    0.0000 C   0  0  0  0  0  0  0  0  0  0  0  0
    3.7940    2.9104    0.0000 C   0  0  0  0  0  0  0  0  0  0  0  0
    1.7450    3.4598    0.0000 C   0  0  0  0  0  0  0  0  0  0  0  0
    1.7442   -2.6190    0.0000 C   0  0  0  0  0  0  0  0  0  0  0  0
   -1.8191   -0.3307    0.0000 C   0  0  0  0  0  0  0  0  0  0  0  0
   -0.5191    1.9209    0.0000 C   0  0  0  0  0  0  0  0  0  0  0  0
   -1.8186    1.1701    0.0000 C   0  0  0  0  0  0  0  0  0  0  0  0
   -0.5201   -1.0807    0.0000 C   0  0  0  0  0  0  0  0  0  0  0  0
    0.7799    1.1709    0.0000 C   0  0  0  0  0  0  0  0  0  0  0  0
    0.7795   -0.3299    0.0000 C   0  0  0  0  0  0  0  0  0  0  0  0
   -3.1177    1.9201    0.0000 C   0  0  0  0  0  0  0  0  0  0  0  0
   -0.5198   -2.5807    0.0000 C   0  0  0  0  0  0  0  0  0  0  0  0
    2.4948    2.1606    0.0000 C   0  0  0  0  0  0  0  0  0  0  0  0
    3.7932   -2.0699    0.0000 F   0  0  0  0  0  0  0  0  0  0  0  0
    3.2442   -0.0209    0.0000 O   0  0  0  0  0  0  0  0  0  0  0  0
    2.4942   -1.3199    0.0000 Si  0  0  0  0  0  4  0  0  0  0  0  0
 13 11  2  0
 13 12  1  0
 14 11  1  0
 15 12  2  0
 16 14  2  0
 16 15  1  0
 17  1  1  0
 17  2  1  0
 17  3  1  0
 17 13  1  0
 18  4  1  0
 18  5  1  0
 18  6  1  0
 18 14  1  0
 19  7  1  0
 19  8  1  0
 19  9  1  0
 19 15  1  0
 22 10  1  0
 22 16  1  0
 22 20  1  0
 22 21  1  0
M  END
>  <NAME>  (4148) 
FLUORO(METHYL)(2,4,6-TRI-TERT-BUTYLPHENYL)SILANOL

>  <SYNONYMS>  (4148) 


>  <SPECTRUM TYPE>  (4148) 
MS1

>  <INSTRUMENT TYPE>  (4148) 
EI-B

>  <INSTRUMENT>  (4148) 
JEOL JMS-D-3000

>  <ION MODE>  (4148) 
P

>  <INCHIKEY>  (4148) 
UGWOVUFMECJNIU-UHFFFAOYSA-N

>  <FORMULA>  (4148) 
C19H33FOSi

>  <EXACT MASS>  (4148) 
324.228470426

>  <MW>  (4148) 
324

>  <ID>  (4148) 
JP004709

>  <CONTRIBUTOR>  (4148) 
University of Tokyo Team, {Faculty of Engineering, University of Tokyo

>  <COMMENT>  (4148) 
SMILES=CC(C)(C)c(c1)cc(C(C)(C)C)c([Si](C)(O)F)c1C(C)(C)C
InChI=InChI=1S/C19H33FOSi/c1-17(2,3)13-11-14(18(4,5)6)16(22(10,20)21)15(12-13)19(7,8)9/h11-12,21H,1-10H3
computed SMILES=F[Si](O)(C=1C(=CC(=CC1C(C)(C)C)C(C)(C)C)C(C)(C)C)C
accession=JP004709
date=2016.01.19 (Created 2008.10.21, modified 2011.05.06)
author=MASS SPECTROSCOPY SOC. OF JAPAN (MSSJ)
license=CC BY-NC-SA
exact mass=324.22847
ionization energy=70 eV
ion type=[M]+*
computed spectral entropy=1.8779376355139124
computed normalized entropy=0.6168250272177865
SPLASH=splash10-0udi-2090000000-8fb9c95b3ec17998ec08
submitter=submitter = University of Tokyo Team (Faculty of Engineering, University of Tokyo)
MoNA Rating=3.75

>  <NUM PEAKS>  (4148) 
21

>  <MASS SPECTRAL PEAKS>  (4148) 
55 1.33
57 30.84
58 1.39
77 3.53
79 8.85
91 1.26
128 1.77
129 1.08
131 1.08
138 2.15
173 1.09
189 1.12
231 3.56
253 99.99
254 21.34
255 5.92
268 8.87
269 1.96
291 2.29
309 1.06
324 3.41

>  <PREDICTED SPECTRUM>  (4148) 
39 37
41 176
43 56
44 8
51 12
53 36
55 134
56 51
57 536
58 67
65 40
66 16
67 48
69 26
71 33
74 2
77 123
78 31
79 68
91 20
101 12
102 0
103 28
105 43
107 12
115 30
119 20
127 22
128 49
129 49
143 5
145 19
157 1
205 18
217 1
225 22
231 275
235 22
253 999
254 436
255 211
268 159
269 31
309 109
324 134

$$$$

     RDKit          2D

 22 22  0  0  0  0  0  0  0  0999 V2000
    1.2990   -5.0490    0.0000 C   0  0  0  0  0  0  0  0  0  0  0  0
   -1.2990   -5.0490    0.0000 C   0  0  0  0  0  0  0  0  0  0  0  0
    2.5987    1.7012    0.0000 C   0  0  0  0  0  0  0  0  0  0  0  0
    3.8981   -0.5486    0.0000 C   0  0  0  0  0  0  0  0  0  0  0  0
   -3.8981   -0.5486    0.0000 C   0  0  0  0  0  0  0  0  0  0  0  0
   -2.5987    1.7012    0.0000 C   0  0  0  0  0  0  0  0  0  0  0  0
   -0.5490    3.7500    0.0000 C   0  0  0  0  0  0  0  0  0  0  0  0
   -2.5981    3.2010    0.0000 C   0  0  0  0  0  0  0  0  0  0  0  0
   -2.0490    1.1519    0.0000 C   0  0  0  0  0  0  0  0  0  0  0  0
    1.3000   -2.0490    0.0000 C   0  0  0  0  0  0  0  0  0  0  0  0
   -1.3000   -2.0490    0.0000 C   0  0  0  0  0  0  0  0  0  0  0  0
   -0.0000   -4.2990    0.0000 C   0  0  0  0  0  0  0  0  0  0  0  0
    2.5989    0.2012    0.0000 C   0  0  0  0  0  0  0  0  0  0  0  0
   -2.5989    0.2012    0.0000 C   0  0  0  0  0  0  0  0  0  0  0  0
    0.0000   -2.7990    0.0000 C   0  0  0  0  0  0  0  0  0  0  0  0
    1.3000   -0.5490    0.0000 C   0  0  0  0  0  0  0  0  0  0  0  0
   -1.3000   -0.5490    0.0000 C   0  0  0  0  0  0  0  0  0  0  0  0
    0.0000    0.2010    0.0000 C   0  0  0  0  0  0  0  0  0  0  0  0
   -1.2990    2.4510    0.0000 C   0  0  0  0  0  0  0  0  0  0  0  0
    1.4772    1.4405    0.0000 F   0  0  0  0  0  0  0  0  0  0  0  0
    0.5130    3.1105    0.0000 O   0  0  0  0  0  0  0  0  0  0  0  0
    0.0000    1.7010    0.0000 Si  0  0  0  0  0  4  0  0  0  0  0  0
 12  1  1  0
 12  2  1  0
 13  3  1  0
 13  4  1  0
 14  5  1  0
 14  6  1  0
 15 10  2  0
 15 11  1  0
 15 12  1  0
 16 10  1  0
 16 13  1  0
 17 11  2  0
 17 14  1  0
 18 16  2  0
 18 17  1  0
 19  7  1  0
 19  8  1  0
 19  9  1  0
 22 18  1  0
 22 19  1  0
 22 20  1  0
 22 21  1  0
M  END
>  <NAME>  (4149) 
TERT-BUTYLFLUORO(2,4,6-TRIISOPROPYLPHENYL)SILANOL

>  <SYNONYMS>  (4149) 


>  <SPECTRUM TYPE>  (4149) 
MS1

>  <INSTRUMENT TYPE>  (4149) 
EI-B

>  <INSTRUMENT>  (4149) 
JEOL JMS-D-3000

>  <ION MODE>  (4149) 
P

>  <INCHIKEY>  (4149) 
PLHNVQGPMAWVKH-UHFFFAOYSA-N

>  <FORMULA>  (4149) 
C19H33FOSi

>  <EXACT MASS>  (4149) 
324.228470426

>  <MW>  (4149) 
324

>  <ID>  (4149) 
JP004708

>  <CONTRIBUTOR>  (4149) 
University of Tokyo Team, {Faculty of Engineering, University of Tokyo

>  <COMMENT>  (4149) 
SMILES=CC(C)c(c1)cc(C(C)C)c(c(C(C)C)1)[Si](O)(F)C(C)(C)C
InChI=InChI=1S/C19H33FOSi/c1-12(2)15-10-16(13(3)4)18(17(11-15)14(5)6)22(20,21)19(7,8)9/h10-14,21H,1-9H3
computed SMILES=F[Si](O)(C=1C(=CC(=CC1C(C)C)C(C)C)C(C)C)C(C)(C)C
accession=JP004708
date=2016.01.19 (Created 2008.10.21, modified 2011.05.06)
author=MASS SPECTROSCOPY SOC. OF JAPAN (MSSJ)
license=CC BY-NC-SA
exact mass=324.22847
ionization energy=70 eV
ion type=[M]+*
computed spectral entropy=2.622950483951591
computed normalized entropy=0.701760923737357
SPLASH=splash10-0002-1190000000-6c2da6b66cde0ffc2ead
submitter=submitter = University of Tokyo Team (Faculty of Engineering, University of Tokyo)
MoNA Rating=3.75

>  <NUM PEAKS>  (4149) 
42

>  <MASS SPECTRAL PEAKS>  (4149) 
43 13.2
57 2.53
63 1.36
77 5.05
79 9.12
91 2.69
105 1.62
115 1.74
117 2.53
128 1.84
129 2.46
131 1.49
141 1.49
143 1.89
145 1.85
159 1.15
161 1.51
165 2.22
187 2.01
189 2.39
191 1.1
203 1.6
204 1.88
205 1.26
207 2.06
225 1.07
229 1.8
233 1.85
235 6.92
236 1.52
247 1.2
249 99.99
250 22.14
251 6.76
252 1.02
253 1.88
267 38.64
268 9.62
269 2.55
291 1.5
324 9.91
325 2.68

>  <PREDICTED SPECTRUM>  (4149) 
29 22
39 21
41 203
43 383
45 18
53 58
55 92
56 64
57 99
65 8
67 69
69 126
71 22
77 64
79 121
80 24
81 47
83 26
85 6
91 137
93 11
95 6
101 17
103 33
105 97
115 144
116 17
117 76
119 3
123 39
125 5
128 99
129 60
131 74
141 3
143 64
144 30
147 84
149 47
153 14
165 48
173 13
175 50
186 68
187 123
188 16
189 127
190 10
193 51
201 24
203 96
204 102
205 104
206 42
207 73
208 9
221 135
225 42
231 77
232 99
233 86
234 47
235 195
237 4
247 123
248 106
249 999
250 583
251 219
265 6
267 441
268 186
269 97
291 171
306 61
324 217
325 78

$$$$

     RDKit          2D

 22 22  0  0  0  0  0  0  0  0999 V2000
   -2.3677    3.2191    0.0000 C   0  0  0  0  0  0  0  0  0  0  0  0
   -4.4167    2.6701    0.0000 C   0  0  0  0  0  0  0  0  0  0  0  0
   -3.8677    0.6210    0.0000 C   0  0  0  0  0  0  0  0  0  0  0  0
   -2.0198   -2.5810    0.0000 C   0  0  0  0  0  0  0  0  0  0  0  0
   -0.5196   -4.0807    0.0000 C   0  0  0  0  0  0  0  0  0  0  0  0
    0.9802   -2.5805    0.0000 C   0  0  0  0  0  0  0  0  0  0  0  0
    3.2446    0.8615    0.0000 C   0  0  0  0  0  0  0  0  0  0  0  0
    3.7940    2.9104    0.0000 C   0  0  0  0  0  0  0  0  0  0  0  0
    1.7450    3.4598    0.0000 C   0  0  0  0  0  0  0  0  0  0  0  0
    1.7442   -2.6190    0.0000 C   0  0  0  0  0  0  0  0  0  0  0  0
   -1.8191   -0.3307    0.0000 C   0  0  0  0  0  0  0  0  0  0  0  0
   -0.5191    1.9209    0.0000 C   0  0  0  0  0  0  0  0  0  0  0  0
   -1.8186    1.1701    0.0000 C   0  0  0  0  0  0  0  0  0  0  0  0
   -0.5201   -1.0807    0.0000 C   0  0  0  0  0  0  0  0  0  0  0  0
    0.7799    1.1709    0.0000 C   0  0  0  0  0  0  0  0  0  0  0  0
    0.7795   -0.3299    0.0000 C   0  0  0  0  0  0  0  0  0  0  0  0
   -3.1177    1.9201    0.0000 C   0  0  0  0  0  0  0  0  0  0  0  0
   -0.5198   -2.5807    0.0000 C   0  0  0  0  0  0  0  0  0  0  0  0
    2.4948    2.1606    0.0000 C   0  0  0  0  0  0  0  0  0  0  0  0
    3.7932   -2.0699    0.0000 F   0  0  0  0  0  0  0  0  0  0  0  0
    3.2442   -0.0209    0.0000 F   0  0  0  0  0  0  0  0  0  0  0  0
    2.4942   -1.3199    0.0000 Si  0  0  0  0  0  4  0  0  0  0  0  0
 13 11  2  0
 13 12  1  0
 14 11  1  0
 15 12  2  0
 16 14  2  0
 16 15  1  0
 17  1  1  0
 17  2  1  0
 17  3  1  0
 17 13  1  0
 18  4  1  0
 18  5  1  0
 18  6  1  0
 18 14  1  0
 19  7  1  0
 19  8  1  0
 19  9  1  0
 19 15  1  0
 22 10  1  0
 22 16  1  0
 22 20  1  0
 22 21  1  0
M  END
>  <NAME>  (4150) 
(2,4,6-TRI-TERT-BUTYLPHENYL)(DIFLUORO)METHYLSILANE

>  <SYNONYMS>  (4150) 
1,3,5-TRI-TERT-BUTYL-2-(DIFLUOROMETHYLSILYL)BENZENE

>  <SPECTRUM TYPE>  (4150) 
MS1

>  <INSTRUMENT TYPE>  (4150) 
EI-B

>  <INSTRUMENT>  (4150) 
JEOL JMS-D-3000

>  <ION MODE>  (4150) 
P

>  <INCHIKEY>  (4150) 
PNHOHXUAISPGBF-UHFFFAOYSA-N

>  <FORMULA>  (4150) 
C19H32F2Si

>  <EXACT MASS>  (4150) 
326.224133994

>  <MW>  (4150) 
326

>  <ID>  (4150) 
JP004707

>  <CONTRIBUTOR>  (4150) 
University of Tokyo Team, {Faculty of Engineering, University of Tokyo

>  <COMMENT>  (4150) 
SMILES=CC(C)(C)c(c1)cc(C(C)(C)C)c([Si](C)(F)F)c1C(C)(C)C
InChI=InChI=1S/C19H32F2Si/c1-17(2,3)13-11-14(18(4,5)6)16(22(10,20)21)15(12-13)19(7,8)9/h11-12H,1-10H3
computed SMILES=F[Si](F)(C=1C(=CC(=CC1C(C)(C)C)C(C)(C)C)C(C)(C)C)C
accession=JP004707
date=2016.01.19 (Created 2008.10.21, modified 2011.05.06)
author=MASS SPECTROSCOPY SOC. OF JAPAN (MSSJ)
license=CC BY-NC-SA
exact mass=326.22413
ionization energy=70 eV
ion type=[M]+*
computed spectral entropy=1.756482120375242
computed normalized entropy=0.5769319019007368
SPLASH=splash10-0a4i-3090000000-2db16e6ff172f91a7ed4
submitter=submitter = University of Tokyo Team (Faculty of Engineering, University of Tokyo)
MoNA Rating=3.75

>  <NUM PEAKS>  (4150) 
21

>  <MASS SPECTRAL PEAKS>  (4150) 
43 1.25
55 1.95
57 45
58 2.12
77 1.13
81 3.14
91 1.36
115 1.05
128 1.2
129 1.13
131 1.07
227 1.37
231 1.22
255 99.99
256 21.22
257 5.67
270 7.98
271 1.8
311 1.87
326 4.33
327 1.13

>  <PREDICTED SPECTRUM>  (4150) 
29 9
39 29
41 181
43 17
51 27
53 27
55 126
56 52
57 637
58 95
65 33
66 21
67 35
69 3
71 4
73 23
74 12
77 123
78 41
79 44
81 22
91 66
92 3
105 63
115 90
117 44
118 7
119 36
128 64
129 102
130 22
145 25
191 18
199 45
207 23
227 73
231 218
255 999
256 466
257 239
258 12
269 9
270 170
271 63
311 137
312 7
326 172
327 25

$$$$

     RDKit          2D

 19 19  0  0  0  0  0  0  0  0999 V2000
    1.5000    3.0000    0.0000 C   0  0  0  0  0  0  0  0  0  0  0  0
    0.0000    4.5000    0.0000 C   0  0  0  0  0  0  0  0  0  0  0  0
   -1.5000    3.0000    0.0000 C   0  0  0  0  0  0  0  0  0  0  0  0
   -3.3491   -0.2013    0.0000 C   0  0  0  0  0  0  0  0  0  0  0  0
   -3.8978   -2.2504    0.0000 C   0  0  0  0  0  0  0  0  0  0  0  0
   -1.8487   -2.7991    0.0000 C   0  0  0  0  0  0  0  0  0  0  0  0
    1.8487   -2.7991    0.0000 C   0  0  0  0  0  0  0  0  0  0  0  0
    3.8978   -2.2504    0.0000 C   0  0  0  0  0  0  0  0  0  0  0  0
    3.3491   -0.2013    0.0000 C   0  0  0  0  0  0  0  0  0  0  0  0
   -1.3000    0.7500    0.0000 C   0  0  0  0  0  0  0  0  0  0  0  0
    1.3000    0.7500    0.0000 C   0  0  0  0  0  0  0  0  0  0  0  0
    0.0000    1.5000    0.0000 C   0  0  0  0  0  0  0  0  0  0  0  0
   -1.3000   -0.7500    0.0000 C   0  0  0  0  0  0  0  0  0  0  0  0
    1.3000   -0.7500    0.0000 C   0  0  0  0  0  0  0  0  0  0  0  0
    0.0000   -1.5000    0.0000 C   0  0  0  0  0  0  0  0  0  0  0  0
    0.0000    3.0000    0.0000 C   0  0  0  0  0  0  0  0  0  0  0  0
   -2.5989   -1.5002    0.0000 C   0  0  0  0  0  0  0  0  0  0  0  0
    2.5989   -1.5002    0.0000 C   0  0  0  0  0  0  0  0  0  0  0  0
   -0.0000   -3.0000    0.0000 Br  0  0  0  0  0  0  0  0  0  0  0  0
 12 10  2  0
 12 11  1  0
 13 10  1  0
 14 11  2  0
 15 13  2  0
 15 14  1  0
 16  1  1  0
 16  2  1  0
 16  3  1  0
 16 12  1  0
 17  4  1  0
 17  5  1  0
 17  6  1  0
 17 13  1  0
 18  7  1  0
 18  8  1  0
 18  9  1  0
 18 14  1  0
 19 15  1  0
M  END
>  <NAME>  (4151) 
2-BROMO-1,3,5-TRI-TERT-BUTYLBENZENE

>  <SYNONYMS>  (4151) 
2,4,6-TRI-TERT-BUTYLPHENYLBROMIDE

>  <SPECTRUM TYPE>  (4151) 
MS1

>  <INSTRUMENT TYPE>  (4151) 
EI-B

>  <INSTRUMENT>  (4151) 
JEOL JMS-D-3000

>  <ION MODE>  (4151) 
P

>  <INCHIKEY>  (4151) 
JOKZWHPYNRDCOA-UHFFFAOYSA-N

>  <FORMULA>  (4151) 
C18H29Br

>  <EXACT MASS>  (4151) 
324.145263028

>  <MW>  (4151) 
324

>  <ID>  (4151) 
JP004706

>  <CONTRIBUTOR>  (4151) 
University of Tokyo Team, {Faculty of Engineering, University of Tokyo

>  <COMMENT>  (4151) 
SMILES=CC(C)(C)c(c1)cc(C(C)(C)C)c(Br)c1C(C)(C)C
InChI=InChI=1S/C18H29Br/c1-16(2,3)12-10-13(17(4,5)6)15(19)14(11-12)18(7,8)9/h10-11H,1-9H3
computed SMILES=BrC=1C(=CC(=CC1C(C)(C)C)C(C)(C)C)C(C)(C)C
accession=JP004706
date=2016.01.19 (Created 2008.10.21, modified 2011.05.06)
author=MASS SPECTROSCOPY SOC. OF JAPAN (MSSJ)
license=CC BY-NC-SA
exact mass=324.14526
ionization energy=70 eV
ion type=[M]+*
computed spectral entropy=2.8360973734566537
computed normalized entropy=0.7077268703056763
SPLASH=splash10-0bt9-5209000000-2ce7c52d34b07e1d9c34
submitter=submitter = University of Tokyo Team (Faculty of Engineering, University of Tokyo)
MoNA Rating=3.75

>  <NUM PEAKS>  (4151) 
55

>  <MASS SPECTRAL PEAKS>  (4151) 
43 1.94
53 1.5
55 5.26
57 99.99
58 4.8
65 1.34
71 1.57
77 2.6
78 1.07
79 1.63
91 4.12
105 2.34
115 4
116 1.45
117 2.27
119 1.44
127 1.18
128 4.15
129 3.8
130 1.44
131 3.55
133 2.07
134 1.56
141 2.85
142 2.29
143 2.89
144 1.1
145 2.21
147 1.86
148 1.02
153 1.06
155 1.37
157 2.03
158 1.31
159 1.41
171 1.07
173 3.51
187 2.4
215 3.02
229 1.69
239 1.14
253 1.19
255 1.02
267 1.6
269 1.42
281 3.37
283 3.23
309 60.45
310 12.24
311 59.41
312 11.74
324 19.66
325 4.13
326 19.45
327 3.91

>  <PREDICTED SPECTRUM>  (4151) 
15 38
29 141
30 14
39 64
40 14
41 417
42 24
43 88
44 18
51 59
53 73
55 203
56 35
57 999
58 115
59 9
63 47
64 27
65 53
66 12
67 38
69 35
70 9
71 60
72 23
73 10
77 191
78 81
79 76
80 1
82 16
83 23
87 4
91 212
93 42
102 26
103 55
104 20
105 170
106 30
107 35
115 187
116 66
117 130
118 12
119 204
120 55
127 74
128 285
129 234
130 120
131 215
132 38
133 131
135 4
139 99
141 245
142 66
143 169
144 98
145 173
146 118
147 42
148 44
152 39
153 28
155 59
156 78
157 106
158 43
159 129
161 14
163 49
169 11
170 44
171 126
172 79
173 80
174 89
175 53
176 26
181 42
183 88
185 117
186 20
187 210
188 74
189 178
190 21
197 157
198 82
199 147
200 66
201 38
203 111
204 5
205 28
213 56
215 193
216 44
217 41
218 73
227 14
229 72
230 117
231 98
245 140
246 100
251 10
252 26
253 263
254 100
255 218
267 92
268 202
269 159
270 103
279 24
281 170
282 7
283 171
284 4
293 126
294 22
295 85
296 54
297 64
298 60
309 641
310 221
311 656
312 230
313 25
324 379
325 101
326 399
327 144
328 17

$$$$

     RDKit          2D

 15 15  0  0  0  0  0  0  0  0999 V2000
   -1.2990    3.7500    0.0000 C   0  0  0  0  0  0  0  0  0  0  0  0
    1.2990    3.7500    0.0000 C   0  0  0  0  0  0  0  0  0  0  0  0
    2.5987   -3.0002    0.0000 C   0  0  0  0  0  0  0  0  0  0  0  0
    3.8981   -0.7504    0.0000 C   0  0  0  0  0  0  0  0  0  0  0  0
   -3.8981   -0.7504    0.0000 C   0  0  0  0  0  0  0  0  0  0  0  0
   -2.5987   -3.0002    0.0000 C   0  0  0  0  0  0  0  0  0  0  0  0
    1.3000    0.7500    0.0000 C   0  0  0  0  0  0  0  0  0  0  0  0
   -1.3000    0.7500    0.0000 C   0  0  0  0  0  0  0  0  0  0  0  0
    0.0000   -1.5000    0.0000 C   0  0  0  0  0  0  0  0  0  0  0  0
    0.0000    3.0000    0.0000 C   0  0  0  0  0  0  0  0  0  0  0  0
    2.5989   -1.5002    0.0000 C   0  0  0  0  0  0  0  0  0  0  0  0
   -2.5989   -1.5002    0.0000 C   0  0  0  0  0  0  0  0  0  0  0  0
    0.0000    1.5000    0.0000 C   0  0  0  0  0  0  0  0  0  0  0  0
    1.3000   -0.7500    0.0000 C   0  0  0  0  0  0  0  0  0  0  0  0
   -1.3000   -0.7500    0.0000 C   0  0  0  0  0  0  0  0  0  0  0  0
 10  1  1  0
 10  2  1  0
 11  3  1  0
 11  4  1  0
 12  5  1  0
 12  6  1  0
 13  7  2  0
 13  8  1  0
 13 10  1  0
 14  7  1  0
 14  9  2  0
 14 11  1  0
 15  8  2  0
 15  9  1  0
 15 12  1  0
M  END
>  <NAME>  (4152) 
1,3,5-TRIISOPROPYLBENZENE

>  <SYNONYMS>  (4152) 


>  <SPECTRUM TYPE>  (4152) 
MS1

>  <INSTRUMENT TYPE>  (4152) 
EI-B

>  <INSTRUMENT>  (4152) 
JEOL JMS-D-3000

>  <ION MODE>  (4152) 
P

>  <INCHIKEY>  (4152) 
VUMCUSHVMYIRMB-UHFFFAOYSA-N

>  <FORMULA>  (4152) 
C15H24

>  <EXACT MASS>  (4152) 
204.187800768

>  <MW>  (4152) 
204

>  <ID>  (4152) 
JP004705

>  <CONTRIBUTOR>  (4152) 
University of Tokyo Team, {Faculty of Engineering, University of Tokyo

>  <COMMENT>  (4152) 
SMILES=CC(C)c(c1)cc(C(C)C)cc(C(C)C)1
cas=717-74-8
InChI=InChI=1S/C15H24/c1-10(2)13-7-14(11(3)4)9-15(8-13)12(5)6/h7-12H,1-6H3
computed SMILES=C=1C(=CC(=CC1C(C)C)C(C)C)C(C)C
accession=JP004705
date=2016.01.19 (Created 2008.10.21, modified 2011.05.06)
author=MASS SPECTROSCOPY SOC. OF JAPAN (MSSJ)
license=CC BY-NC-SA
exact mass=204.1878
ionization energy=70 eV
ion type=[M]+*
computed spectral entropy=2.5602280474313734
computed normalized entropy=0.7260256089981185
SPLASH=splash10-000l-2910000000-01f6f06b484cc7a176a4
submitter=submitter = University of Tokyo Team (Faculty of Engineering, University of Tokyo)
MoNA Rating=3.75

>  <NUM PEAKS>  (4152) 
34

>  <MASS SPECTRAL PEAKS>  (4152) 
43 30.47
51 1.05
53 1.35
65 1.77
71 1.05
73 1.02
77 2.86
78 1.17
79 4.23
87 6.45
91 15.14
92 1.3
103 1.29
105 13.4
106 1.25
115 3.23
116 1.83
117 3.48
119 5.74
128 2.63
129 2.34
130 1.03
131 3.06
133 5.99
145 2.47
147 4.09
161 43.82
162 6.04
173 2.23
189 99.99
190 15.48
191 1.15
204 31.05
205 5.31

>  <PREDICTED SPECTRUM>  (4152) 
14 10
15 23
26 26
27 229
28 107
29 184
34 7
36 7
37 13
38 63
39 369
40 133
41 598
42 155
43 710
44 150
45 63
50 100
51 246
52 124
53 229
54 60
55 255
56 36
57 181
58 18
62 58
63 172
64 97
65 288
66 113
67 155
69 117
70 42
71 160
72 39
73 7
74 77
75 37
76 23
77 342
78 163
79 261
80 32
81 29
83 88
85 9
86 8
87 16
89 78
90 29
91 564
92 203
93 159
94 17
95 63
102 81
103 182
104 125
105 449
106 190
107 129
108 0
115 260
116 165
117 287
118 158
119 445
120 178
121 94
127 117
128 226
129 202
130 163
131 281
132 184
133 318
134 94
135 46
141 35
142 24
143 79
144 60
145 237
146 161
147 381
148 108
149 69
156 48
157 25
159 173
160 143
161 501
162 271
163 86
173 61
174 115
175 113
176 87
177 4
187 63
189 999
190 406
191 82
202 63
203 108
204 579
205 228
206 34

$$$$

     RDKit          2D

 16 16  0  0  0  0  0  0  0  0999 V2000
    1.2990   -3.0002    0.0000 C   0  0  0  0  0  0  0  0  0  0  0  0
   -1.2990   -3.0002    0.0000 C   0  0  0  0  0  0  0  0  0  0  0  0
    2.5987    3.7500    0.0000 C   0  0  0  0  0  0  0  0  0  0  0  0
    3.8981    1.5002    0.0000 C   0  0  0  0  0  0  0  0  0  0  0  0
   -3.8981    1.5002    0.0000 C   0  0  0  0  0  0  0  0  0  0  0  0
   -2.5987    3.7500    0.0000 C   0  0  0  0  0  0  0  0  0  0  0  0
    1.3000   -0.0002    0.0000 C   0  0  0  0  0  0  0  0  0  0  0  0
   -1.3000   -0.0002    0.0000 C   0  0  0  0  0  0  0  0  0  0  0  0
   -0.0000   -2.2502    0.0000 C   0  0  0  0  0  0  0  0  0  0  0  0
    2.5989    2.2500    0.0000 C   0  0  0  0  0  0  0  0  0  0  0  0
   -2.5989    2.2500    0.0000 C   0  0  0  0  0  0  0  0  0  0  0  0
    0.0000   -0.7502    0.0000 C   0  0  0  0  0  0  0  0  0  0  0  0
    1.3000    1.4998    0.0000 C   0  0  0  0  0  0  0  0  0  0  0  0
   -1.3000    1.4998    0.0000 C   0  0  0  0  0  0  0  0  0  0  0  0
    0.0000    2.2498    0.0000 C   0  0  0  0  0  0  0  0  0  0  0  0
    0.0000    3.7498    0.0000 Br  0  0  0  0  0  0  0  0  0  0  0  0
  9  1  1  0
  9  2  1  0
 10  3  1  0
 10  4  1  0
 11  5  1  0
 11  6  1  0
 12  7  2  0
 12  8  1  0
 12  9  1  0
 13  7  1  0
 13 10  1  0
 14  8  2  0
 14 11  1  0
 15 13  2  0
 15 14  1  0
 16 15  1  0
M  END
>  <NAME>  (4153) 
2-BROMO-1,3,5-TRIISOPROPYLBENZENE

>  <SYNONYMS>  (4153) 
2,4,6-TRIISOPROPYLPHENYLBROMIDE

>  <SPECTRUM TYPE>  (4153) 
MS1

>  <INSTRUMENT TYPE>  (4153) 
EI-B

>  <INSTRUMENT>  (4153) 
JEOL JMS-D-3000

>  <ION MODE>  (4153) 
P

>  <INCHIKEY>  (4153) 
FUMMYHVKFAHQST-UHFFFAOYSA-N

>  <FORMULA>  (4153) 
C15H23Br

>  <EXACT MASS>  (4153) 
282.098312836

>  <MW>  (4153) 
282

>  <ID>  (4153) 
JP004704

>  <CONTRIBUTOR>  (4153) 
University of Tokyo Team, {Faculty of Engineering, University of Tokyo

>  <COMMENT>  (4153) 
SMILES=CC(C)c(c1)cc(C(C)C)c(Br)c(C(C)C)1
InChI=InChI=1S/C15H23Br/c1-9(2)12-7-13(10(3)4)15(16)14(8-12)11(5)6/h7-11H,1-6H3
computed SMILES=BrC=1C(=CC(=CC1C(C)C)C(C)C)C(C)C
accession=JP004704
date=2016.01.19 (Created 2008.10.21, modified 2011.05.06)
author=MASS SPECTROSCOPY SOC. OF JAPAN (MSSJ)
license=CC BY-NC-SA
exact mass=282.09831
ionization energy=70 eV
ion type=[M]+*
computed spectral entropy=3.276984329238686
computed normalized entropy=0.771328233301247
SPLASH=splash10-014i-2390000000-4462eee6986b6aeb9038
submitter=submitter = University of Tokyo Team (Faculty of Engineering, University of Tokyo)
MoNA Rating=3.75

>  <NUM PEAKS>  (4153) 
70

>  <MASS SPECTRAL PEAKS>  (4153) 
43 68.68
51 2.27
53 2.27
55 1.63
63 1.63
64 3.34
65 3.41
70 1.13
71 3.34
76 1.92
77 6.9
78 2.27
79 2.06
91 11.24
92 1.06
103 1.77
104 1.7
105 5.83
111 1.35
112 1.35
115 8.89
116 3.84
117 11.1
118 4.55
119 4.83
126 1.56
127 3.91
128 9.25
129 8.46
130 5.05
131 7.04
132 2.2
133 1.35
141 4.27
142 3.13
143 4.19
144 2.49
145 8.68
146 4.69
147 1.13
157 1.56
159 5.62
169 1.35
171 1.42
173 2.98
183 2.34
185 1.7
197 1.42
199 1.28
203 7.4
204 1.06
211 3.77
213 3.41
225 5.62
227 6.12
239 10.96
240 1.42
241 11.95
242 1.13
253 2.34
255 1.99
267 99.99
268 16.15
269 97.93
270 15.08
271 1.77
282 38.93
283 6.9
284 38.5
285 6.61

>  <PREDICTED SPECTRUM>  (4153) 
14 7
15 46
18 8
26 52
27 223
28 126
29 214
30 38
31 0
32 1
36 0
37 0
38 38
39 211
40 86
41 322
42 152
43 301
44 127
45 50
47 41
49 30
50 98
51 209
52 109
53 134
54 44
55 83
56 20
57 14
58 31
59 54
62 64
63 180
64 124
65 169
66 61
67 62
69 9
70 35
71 23
72 33
73 49
74 149
75 156
76 108
77 290
78 185
79 148
80 48
81 39
82 28
83 65
84 2
85 58
86 92
87 128
88 106
89 139
90 37
91 309
92 136
93 49
94 9
95 19
97 70
98 59
99 51
100 50
101 136
102 195
103 182
104 82
105 212
106 55
107 82
109 34
113 56
114 140
115 440
116 165
117 251
118 47
119 138
120 1
125 5
126 124
127 247
128 397
129 442
130 207
131 271
132 123
133 131
134 35
135 41
139 96
140 26
141 188
142 152
143 226
144 162
145 245
146 73
147 133
148 145
149 58
151 66
152 48
153 136
154 68
155 129
156 132
157 192
158 134
159 251
160 146
161 243
162 89
163 48
165 0
169 135
170 189
171 214
172 139
173 282
174 118
175 160
176 86
181 95
182 32
183 105
185 178
186 137
187 414
188 534
189 310
190 189
191 10
195 31
196 29
197 18
198 67
199 34
201 169
202 127
203 220
204 107
205 13
209 124
210 35
211 65
213 20
214 20
216 3
220 24
221 2
222 31
223 89
224 41
225 48
226 46
235 32
237 25
238 105
239 254
240 81
241 133
243 1
251 61
252 50
253 160
254 116
255 112
265 61
266 68
267 942
268 390
269 999
270 409
271 189
281 98
282 572
283 248
284 627
285 262
286 172

$$$$

     RDKit          2D

 10 10  0  0  0  0  0  0  0  0999 V2000
   -0.0000   -3.0000    0.0000 C   0  0  0  0  0  0  0  0  0  0  0  0
    2.5989    1.5002    0.0000 C   0  0  0  0  0  0  0  0  0  0  0  0
   -2.5989    1.5002    0.0000 C   0  0  0  0  0  0  0  0  0  0  0  0
    1.3000   -0.7500    0.0000 C   0  0  0  0  0  0  0  0  0  0  0  0
   -1.3000   -0.7500    0.0000 C   0  0  0  0  0  0  0  0  0  0  0  0
   -0.0000   -1.5000    0.0000 C   0  0  0  0  0  0  0  0  0  0  0  0
    1.3000    0.7500    0.0000 C   0  0  0  0  0  0  0  0  0  0  0  0
   -1.3000    0.7500    0.0000 C   0  0  0  0  0  0  0  0  0  0  0  0
   -0.0000    1.5000    0.0000 C   0  0  0  0  0  0  0  0  0  0  0  0
    0.0000    3.0000    0.0000 Br  0  0  0  0  0  0  0  0  0  0  0  0
  6  1  1  0
  6  4  2  0
  6  5  1  0
  7  2  1  0
  7  4  1  0
  8  3  1  0
  8  5  2  0
  9  7  2  0
  9  8  1  0
 10  9  1  0
M  END
>  <NAME>  (4154) 
2-BROMO-1,3,5-TRIMETHYLBENZENE

>  <SYNONYMS>  (4154) 
MESITYLBROMIDE

>  <SPECTRUM TYPE>  (4154) 
MS1

>  <INSTRUMENT TYPE>  (4154) 
EI-B

>  <INSTRUMENT>  (4154) 
JEOL JMS-D-3000

>  <ION MODE>  (4154) 
P

>  <INCHIKEY>  (4154) 
RRTLQRYOJOSPEA-UHFFFAOYSA-N

>  <FORMULA>  (4154) 
C9H11Br

>  <EXACT MASS>  (4154) 
198.004412452

>  <MW>  (4154) 
198

>  <ID>  (4154) 
JP004702

>  <CONTRIBUTOR>  (4154) 
University of Tokyo Team, {Faculty of Engineering, University of Tokyo

>  <COMMENT>  (4154) 
SMILES=Cc(c1)cc(C)c(Br)c(C)1
cas=576-83-0
InChI=InChI=1S/C9H11Br/c1-6-4-7(2)9(10)8(3)5-6/h4-5H,1-3H3
computed SMILES=BrC=1C(=CC(=CC1C)C)C
accession=JP004702
date=2016.01.19 (Created 2008.10.21, modified 2011.05.06)
author=MASS SPECTROSCOPY SOC. OF JAPAN (MSSJ)
license=CC BY-NC-SA
exact mass=198.00441
ionization energy=70 eV
ion type=[M]+*
computed spectral entropy=2.9516641945096116
computed normalized entropy=0.7753942469135751
SPLASH=splash10-0gba-2920000000-ab319d49dafecca67e58
submitter=submitter = University of Tokyo Team (Faculty of Engineering, University of Tokyo)
MoNA Rating=3.75

>  <NUM PEAKS>  (4154) 
45

>  <MASS SPECTRAL PEAKS>  (4154) 
50 2.56
51 7.12
52 2.38
53 2.93
57 4.52
58 8.48
59 2.04
62 1.39
63 4.2
64 1.03
65 5.4
74 1.33
75 1.58
76 1.21
77 10.61
78 4.77
79 4.09
89 1.73
91 22.71
92 2.7
93 3.29
98 2.49
99 3.12
102 2.2
103 10.67
104 7.06
105 10.09
107 7.31
115 8.05
116 2.31
117 14.88
118 8.85
119 99.99
120 30.21
121 5.24
135 1.32
149 2.21
164 2.77
183 5.85
185 5.76
197 4.53
198 66.92
199 11.28
200 66.11
201 2.24

>  <PREDICTED SPECTRUM>  (4154) 
14 17
15 89
16 5
17 10
18 19
25 1
26 119
27 197
28 107
29 74
32 17
36 10
37 72
38 175
39 363
40 126
41 107
44 15
49 16
50 267
51 427
52 247
53 195
54 42
61 55
62 133
63 258
64 141
65 306
66 105
67 41
68 14
69 16
74 163
75 189
76 140
77 499
78 309
79 263
80 107
81 35
82 47
86 24
87 48
89 198
90 86
91 507
92 176
93 140
98 81
99 26
102 217
103 318
104 394
105 225
106 120
115 360
116 89
117 453
118 372
119 999
120 315
121 87
183 245
184 12
185 298
186 49
197 154
198 768
199 336
200 855
201 256
202 24

$$$$

     RDKit          2D

 23 23  0  0  0  0  0  0  0  0999 V2000
    5.1831   -1.2675    0.0000 C   0  0  0  0  0  0  0  0  0  0  0  0
   -1.8611    3.0316    0.0000 C   0  0  0  0  0  0  0  0  0  0  0  0
   -3.9101    2.4825    0.0000 C   0  0  0  0  0  0  0  0  0  0  0  0
   -3.3611    0.4335    0.0000 C   0  0  0  0  0  0  0  0  0  0  0  0
   -1.5132   -3.2485    0.0000 C   0  0  0  0  0  0  0  0  0  0  0  0
   -0.0129   -4.7483    0.0000 C   0  0  0  0  0  0  0  0  0  0  0  0
    1.4868   -3.2480    0.0000 C   0  0  0  0  0  0  0  0  0  0  0  0
    3.3354    0.4340    0.0000 C   0  0  0  0  0  0  0  0  0  0  0  0
    3.8848    2.4830    0.0000 C   0  0  0  0  0  0  0  0  0  0  0  0
    1.8359    3.0323    0.0000 C   0  0  0  0  0  0  0  0  0  0  0  0
    3.8841   -0.5175    0.0000 C   0  0  0  0  0  0  0  0  0  0  0  0
   -1.3125   -0.5183    0.0000 C   0  0  0  0  0  0  0  0  0  0  0  0
   -0.0125    1.7334    0.0000 C   0  0  0  0  0  0  0  0  0  0  0  0
   -1.3121    0.9825    0.0000 C   0  0  0  0  0  0  0  0  0  0  0  0
   -0.0135   -1.2683    0.0000 C   0  0  0  0  0  0  0  0  0  0  0  0
    1.2865    0.9834    0.0000 C   0  0  0  0  0  0  0  0  0  0  0  0
    1.2860   -0.5175    0.0000 C   0  0  0  0  0  0  0  0  0  0  0  0
   -2.6111    1.7325    0.0000 C   0  0  0  0  0  0  0  0  0  0  0  0
   -0.0132   -3.2483    0.0000 C   0  0  0  0  0  0  0  0  0  0  0  0
    2.5857    1.7332    0.0000 C   0  0  0  0  0  0  0  0  0  0  0  0
    1.6209   -2.4165    0.0000 F   0  0  0  0  0  0  0  0  0  0  0  0
    3.5492   -2.4165    0.0000 F   0  0  0  0  0  0  0  0  0  0  0  0
    2.5851   -1.2675    0.0000 Si  0  0  0  0  0  4  0  0  0  0  0  0
 11  1  1  0
 14 12  2  0
 14 13  1  0
 15 12  1  0
 16 13  2  0
 17 15  2  0
 17 16  1  0
 18  2  1  0
 18  3  1  0
 18  4  1  0
 18 14  1  0
 19  5  1  0
 19  6  1  0
 19  7  1  0
 19 15  1  0
 20  8  1  0
 20  9  1  0
 20 10  1  0
 20 16  1  0
 23 11  1  0
 23 17  1  0
 23 21  1  0
 23 22  1  0
M  END
>  <NAME>  (4155) 
ETHYLDIFLUORO(2,4,6-TRI-TERT-BUTYLPHENYL)SILANE

>  <SYNONYMS>  (4155) 
1,3,5-TRI-TERT-BUTYL-2-(ETHYLDIFLUOROSILYL)BENZENE

>  <SPECTRUM TYPE>  (4155) 
MS1

>  <INSTRUMENT TYPE>  (4155) 
EI-B

>  <INSTRUMENT>  (4155) 
JEOL JMS-D-3000

>  <ION MODE>  (4155) 
P

>  <INCHIKEY>  (4155) 
QCSVJWLHWUAGLU-UHFFFAOYSA-N

>  <FORMULA>  (4155) 
C20H34F2Si

>  <EXACT MASS>  (4155) 
340.239784058

>  <MW>  (4155) 
340

>  <ID>  (4155) 
JP004701

>  <CONTRIBUTOR>  (4155) 
University of Tokyo Team, {Faculty of Engineering, University of Tokyo

>  <COMMENT>  (4155) 
SMILES=CC[Si](F)(F)c(c1C(C)(C)C)c(cc(C(C)(C)C)c1)C(C)(C)C
InChI=InChI=1S/C20H34F2Si/c1-11-23(21,22)17-15(19(5,6)7)12-14(18(2,3)4)13-16(17)20(8,9)10/h12-13H,11H2,1-10H3
computed SMILES=F[Si](F)(C=1C(=CC(=CC1C(C)(C)C)C(C)(C)C)C(C)(C)C)CC
accession=JP004701
date=2016.01.19 (Created 2008.10.21, modified 2011.05.06)
author=MASS SPECTROSCOPY SOC. OF JAPAN (MSSJ)
license=CC BY-NC-SA
exact mass=340.23978
ionization energy=70 eV
ion type=[M]+*
computed spectral entropy=1.9158209007387634
computed normalized entropy=0.5812851116813277
SPLASH=splash10-066r-4090000000-1b2dc8c38ef7051d1217
submitter=submitter = University of Tokyo Team (Faculty of Engineering, University of Tokyo)
MoNA Rating=3.75

>  <NUM PEAKS>  (4155) 
27

>  <MASS SPECTRAL PEAKS>  (4155) 
43 1.63
55 2.59
57 57.92
58 2.75
67 1.38
77 1.21
91 2.39
95 3.57
105 1.25
115 1.66
117 1.39
128 1.6
129 1.76
131 1.68
141 1.18
142 1
143 1.44
173 1.12
189 1.08
241 1.17
269 99.99
270 22.5
271 5.85
284 7.53
285 1.03
325 1.46
340 2.39

>  <PREDICTED SPECTRUM>  (4155) 
29 13
39 4
41 157
43 21
51 18
53 7
55 111
56 63
57 572
58 80
65 15
66 18
67 21
77 124
78 42
79 38
91 73
102 4
103 51
105 54
115 82
116 7
117 31
119 75
120 5
128 57
129 92
130 31
131 38
132 13
143 42
173 2
213 78
221 6
231 139
239 5
241 73
269 999
270 456
271 239
272 21
283 3
284 172
285 90
312 64
325 123
326 20
340 154
341 3

$$$$

     RDKit          2D

 24 24  0  0  0  0  0  0  0  0999 V2000
    1.7147   -5.0099    0.0000 C   0  0  0  0  0  0  0  0  0  0  0  0
    3.0137   -2.7599    0.0000 C   0  0  0  0  0  0  0  0  0  0  0  0
    1.9157    3.2401    0.0000 C   0  0  0  0  0  0  0  0  0  0  0  0
    0.4157    4.7401    0.0000 C   0  0  0  0  0  0  0  0  0  0  0  0
   -1.0843    3.2401    0.0000 C   0  0  0  0  0  0  0  0  0  0  0  0
   -3.3491   -0.2013    0.0000 C   0  0  0  0  0  0  0  0  0  0  0  0
   -3.8978   -2.2504    0.0000 C   0  0  0  0  0  0  0  0  0  0  0  0
   -1.8487   -2.7991    0.0000 C   0  0  0  0  0  0  0  0  0  0  0  0
    2.2644   -2.5591    0.0000 C   0  0  0  0  0  0  0  0  0  0  0  0
    4.3135   -2.0103    0.0000 C   0  0  0  0  0  0  0  0  0  0  0  0
    3.7648    0.0388    0.0000 C   0  0  0  0  0  0  0  0  0  0  0  0
   -0.8843    0.9901    0.0000 C   0  0  0  0  0  0  0  0  0  0  0  0
    1.7157    0.9901    0.0000 C   0  0  0  0  0  0  0  0  0  0  0  0
    1.7147   -3.5099    0.0000 C   0  0  0  0  0  0  0  0  0  0  0  0
    0.4157    1.7401    0.0000 C   0  0  0  0  0  0  0  0  0  0  0  0
   -0.8843   -0.5099    0.0000 C   0  0  0  0  0  0  0  0  0  0  0  0
    1.7157   -0.5099    0.0000 C   0  0  0  0  0  0  0  0  0  0  0  0
    0.4157   -1.2599    0.0000 C   0  0  0  0  0  0  0  0  0  0  0  0
    0.4157    3.2401    0.0000 C   0  0  0  0  0  0  0  0  0  0  0  0
   -2.5989   -1.5002    0.0000 C   0  0  0  0  0  0  0  0  0  0  0  0
    3.0146   -1.2601    0.0000 C   0  0  0  0  0  0  0  0  0  0  0  0
   -1.0616   -2.4995    0.0000 F   0  0  0  0  0  0  0  0  0  0  0  0
   -0.0974   -4.1695    0.0000 F   0  0  0  0  0  0  0  0  0  0  0  0
    0.4157   -2.7599    0.0000 Si  0  0  0  0  0  4  0  0  0  0  0  0
 14  1  1  0
 14  2  1  0
 15 12  2  0
 15 13  1  0
 16 12  1  0
 17 13  2  0
 18 16  2  0
 18 17  1  0
 19  3  1  0
 19  4  1  0
 19  5  1  0
 19 15  1  0
 20  6  1  0
 20  7  1  0
 20  8  1  0
 20 16  1  0
 21  9  1  0
 21 10  1  0
 21 11  1  0
 21 17  1  0
 24 14  1  0
 24 18  1  0
 24 22  1  0
 24 23  1  0
M  END
>  <NAME>  (4156) 
DIFLUOROISOPROPYL(2,4,6-TRI-TERT-BUTYLPHENYL)SILANE

>  <SYNONYMS>  (4156) 
1,3,5-TRI-TERT-BUTYL-2-(DEFLUOROISOPROPYLSILYL)BENZENE

>  <SPECTRUM TYPE>  (4156) 
MS1

>  <INSTRUMENT TYPE>  (4156) 
EI-B

>  <INSTRUMENT>  (4156) 
JEOL JMS-D-3000

>  <ION MODE>  (4156) 
P

>  <INCHIKEY>  (4156) 
DIOHUZHBUVEMJL-UHFFFAOYSA-N

>  <FORMULA>  (4156) 
C21H36F2Si

>  <EXACT MASS>  (4156) 
354.255434122

>  <MW>  (4156) 
354

>  <ID>  (4156) 
JP004700

>  <CONTRIBUTOR>  (4156) 
University of Tokyo Team, {Faculty of Engineering, University of Tokyo

>  <COMMENT>  (4156) 
SMILES=CC(C)(C)c(c1)cc(C(C)(C)C)c(c1C(C)(C)C)[Si](F)(F)C(C)C
InChI=InChI=1S/C21H36F2Si/c1-14(2)24(22,23)18-16(20(6,7)8)12-15(19(3,4)5)13-17(18)21(9,10)11/h12-14H,1-11H3
computed SMILES=F[Si](F)(C=1C(=CC(=CC1C(C)(C)C)C(C)(C)C)C(C)(C)C)C(C)C
accession=JP004700
date=2016.01.19 (Created 2008.10.21, modified 2011.05.06)
author=MASS SPECTROSCOPY SOC. OF JAPAN (MSSJ)
license=CC BY-NC-SA
exact mass=354.25543
ionization energy=70 eV
ion type=[M]+*
computed spectral entropy=1.7064960796790523
computed normalized entropy=0.5795657820567757
SPLASH=splash10-053r-4090000000-e75bb9cae1cd7588a09c
submitter=submitter = University of Tokyo Team (Faculty of Engineering, University of Tokyo)
MoNA Rating=3.75

>  <NUM PEAKS>  (4156) 
19

>  <MASS SPECTRAL PEAKS>  (4156) 
43 2.58
55 1.84
57 61.94
58 2.85
81 4
91 1.36
117 1.12
129 1.02
131 1.38
189 1.17
231 1.52
255 1.12
283 99.99
284 23.54
285 6.08
298 8.58
299 2.06
339 1.64
354 1.73

>  <PREDICTED SPECTRUM>  (4156) 
29 6
39 6
41 165
44 1
51 7
55 125
56 32
57 549
58 80
65 5
66 4
67 12
69 25
77 98
78 20
79 9
81 4
91 57
101 5
105 11
109 3
115 30
117 51
119 19
128 10
129 10
130 9
131 6
133 16
143 16
145 9
147 0
184 7
185 36
186 42
227 60
231 134
255 95
283 999
284 445
285 183
298 171
299 80
339 63
354 125
355 15

$$$$

     RDKit          2D

 24 24  0  0  0  0  0  0  0  0999 V2000
   -2.0963    4.7998    0.0000 C   0  0  0  0  0  0  0  0  0  0  0  0
   -3.7663    3.8353    0.0000 C   0  0  0  0  0  0  0  0  0  0  0  0
   -0.4297    5.7452    0.0000 C   0  0  0  0  0  0  0  0  0  0  0  0
    0.5530    2.8098    0.0000 C   0  0  0  0  0  0  0  0  0  0  0  0
   -2.7174    0.0458    0.0000 C   0  0  0  0  0  0  0  0  0  0  0  0
   -1.1170    2.1998    0.0000 C   0  0  0  0  0  0  0  0  0  0  0  0
    3.2925    2.3585    0.0000 C   0  0  0  0  0  0  0  0  0  0  0  0
    3.2925    4.2866    0.0000 C   0  0  0  0  0  0  0  0  0  0  0  0
   -1.5163   -1.0902    0.0000 C   0  0  0  0  0  0  0  0  0  0  0  0
    0.1537   -2.0547    0.0000 C   0  0  0  0  0  0  0  0  0  0  0  0
    2.9103    0.7500    0.0000 C   0  0  0  0  0  0  0  0  0  0  0  0
    0.2442    1.0585    0.0000 C   0  0  0  0  0  0  0  0  0  0  0  0
   -3.1066    2.0226    0.0000 C   0  0  0  0  0  0  0  0  0  0  0  0
   -2.3566    0.7226    0.0000 C   0  0  0  0  0  0  0  0  0  0  0  0
   -0.1066    4.6226    0.0000 C   0  0  0  0  0  0  0  0  0  0  0  0
    1.3934    4.6226    0.0000 C   0  0  0  0  0  0  0  0  0  0  0  0
    1.3934   -0.5774    0.0000 C   0  0  0  0  0  0  0  0  0  0  0  0
    2.1434    0.7226    0.0000 C   0  0  0  0  0  0  0  0  0  0  0  0
   -2.3566    3.3226    0.0000 Si  0  0  0  0  0  4  0  0  0  0  0  0
   -0.8566    3.3226    0.0000 Si  0  0  0  0  0  4  0  0  0  0  0  0
   -0.8566    0.7226    0.0000 Si  0  0  0  0  0  4  0  0  0  0  0  0
    2.1434    3.3226    0.0000 Si  0  0  0  0  0  4  0  0  0  0  0  0
   -0.1066   -0.5774    0.0000 Si  0  0  0  0  0  4  0  0  0  0  0  0
    1.3934    2.0226    0.0000 Si  0  0  0  0  0  4  0  0  0  0  0  0
 14 13  3  0
 16 15  3  0
 18 17  3  0
 19  1  1  0
 19  2  1  0
 19 13  1  0
 20  3  1  0
 20  4  1  0
 20 15  1  0
 20 19  1  0
 21  5  1  0
 21  6  1  0
 21 14  1  0
 22  7  1  0
 22  8  1  0
 22 16  1  0
 23  9  1  0
 23 10  1  0
 23 17  1  0
 23 21  1  0
 24 11  1  0
 24 12  1  0
 24 18  1  0
 24 22  1  0
M  END
>  <NAME>  (4157) 
1,1,2,2,5,5,6,6,9,9,10,10-DODECAMETHYL-1,2,5,6,9,10-HEXASILA-3,7,11-CYCLODODECATRIYNE

>  <SYNONYMS>  (4157) 
DODECAMETHYL-3,4,7,8,11,12-HEXASILACYCLODODECA-1,5,9-TRIYNE

>  <SPECTRUM TYPE>  (4157) 
MS1

>  <INSTRUMENT TYPE>  (4157) 
EI-B

>  <INSTRUMENT>  (4157) 
Unknown

>  <ION MODE>  (4157) 
P

>  <INCHIKEY>  (4157) 
QDTVPSUSAHRZKV-UHFFFAOYSA-N

>  <FORMULA>  (4157) 
C18H36Si6

>  <EXACT MASS>  (4157) 
420.143260332

>  <MW>  (4157) 
420

>  <ID>  (4157) 
JP004699

>  <CONTRIBUTOR>  (4157) 
University of Tokyo Team, {Faculty of Engineering, University of Tokyo

>  <COMMENT>  (4157) 
SMILES=C[Si](C)(C#1)[Si](C)(C)C#C[Si](C)(C)[Si](C)(C)C#C[Si](C)(C)[Si](C)(C)C1
InChI=InChI=1S/C18H36Si6/c1-19(2)13-14-21(5,6)23(9,10)17-18-24(11,12)22(7,8)16-15-20(19,3)4/h1-12H3
computed SMILES=C1#C[Si](C)(C)[Si](C#C[Si](C)(C)[Si](C#C[Si](C)(C)[Si]1(C)C)(C)C)(C)C
accession=JP004699
date=2016.01.19 (Created 2008.10.21, modified 2011.05.06)
author=MASS SPECTROSCOPY SOC. OF JAPAN (MSSJ)
license=CC BY-NC-SA
exact mass=420.14326
ionization energy=70 eV
ion type=[M]+*
computed spectral entropy=3.017472074126179
computed normalized entropy=0.7753369485202285
SPLASH=splash10-05fr-9601400000-737a6ea3cf6fffb1aa13
submitter=submitter = University of Tokyo Team (Faculty of Engineering, University of Tokyo)
MoNA Rating=3.75

>  <NUM PEAKS>  (4157) 
49

>  <MASS SPECTRAL PEAKS>  (4157) 
43 3.17
45 7.5
59 4.4
67 2.07
73 99.99
74 8.93
75 3.9
83 8.57
85 2.84
97 9.75
99 6.01
101 3.77
109 2.29
111 3.25
113 3.01
115 2.1
116 39.61
117 6.38
118 3.1
123 3.86
125 7.55
126 1.27
127 2.34
129 2.98
139 2.16
141 3.83
153 3.26
155 11.28
156 2.09
157 1.89
165 2.38
167 2.18
177 2.2
183 6.47
191 2.01
207 2.93
231 2.12
235 2.63
259 3.01
265 3.48
289 3.1
307 2.22
317 2.91
331 2.62
333 2.13
347 17.22
361 5.78
405 62.03
420 16.63

>  <PREDICTED SPECTRUM>  (4157) 
28 30
41 46
42 63
44 62
45 250
55 0
57 43
59 173
61 19
67 59
69 42
70 26
72 3
73 999
74 205
75 116
82 82
83 142
84 1
85 34
93 13
95 61
96 33
97 138
98 35
99 73
100 38
101 66
102 26
103 0
107 33
108 60
109 99
111 177
112 56
113 127
114 71
115 2
116 602
117 341
118 120
119 30
121 18
123 32
124 35
125 156
126 48
127 115
128 37
131 84
135 3
138 12
139 159
140 39
141 174
142 15
152 1
153 78
154 32
155 296
156 47
157 97
167 89
191 37
215 39
259 124
272 4
289 74
317 111
331 108
333 113
347 429
349 15
361 288
362 20
363 25
405 754
420 410
422 17

$$$$

     RDKit          2D

 27 27  0  0  0  0  0  0  0  0999 V2000
   -1.8451    3.9882    0.0000 C   0  0  0  0  0  0  0  0  0  0  0  0
   -3.0700    3.6603    0.0000 C   0  0  0  0  0  0  0  0  0  0  0  0
   -0.6670    1.5494    0.0000 C   0  0  0  0  0  0  0  0  0  0  0  0
    1.4468    1.3608    0.0000 C   0  0  0  0  0  0  0  0  0  0  0  0
   -4.3700   -0.8881    0.0000 C   0  0  0  0  0  0  0  0  0  0  0  0
   -2.4419   -0.8881    0.0000 C   0  0  0  0  0  0  0  0  0  0  0  0
    3.5968   -0.3986    0.0000 C   0  0  0  0  0  0  0  0  0  0  0  0
    4.5613    1.2714    0.0000 C   0  0  0  0  0  0  0  0  0  0  0  0
    0.6713    0.0008    0.0000 C   0  0  0  0  0  0  0  0  0  0  0  0
   -1.4827   -1.5996    0.0000 C   0  0  0  0  0  0  0  0  0  0  0  0
    2.2968   -2.6486    0.0000 C   0  0  0  0  0  0  0  0  0  0  0  0
    3.2841   -1.2391    0.0000 C   0  0  0  0  0  0  0  0  0  0  0  0
   -4.7059    2.5111    0.0000 C   0  0  0  0  0  0  0  0  0  0  0  0
   -4.7059    1.0111    0.0000 C   0  0  0  0  0  0  0  0  0  0  0  0
    1.7841    3.2611    0.0000 C   0  0  0  0  0  0  0  0  0  0  0  0
    3.0841    2.5111    0.0000 C   0  0  0  0  0  0  0  0  0  0  0  0
   -0.8059   -1.2389    0.0000 C   0  0  0  0  0  0  0  0  0  0  0  0
    0.4841   -1.9889    0.0000 C   0  0  0  0  0  0  0  0  0  0  0  0
   -0.8059    3.2611    0.0000 O   0  0  0  0  0  0  0  0  0  0  0  0
   -2.1059    1.0111    0.0000 O   0  0  0  0  0  0  0  0  0  0  0  0
    1.7841    0.2611    0.0000 O   0  0  0  0  0  0  0  0  0  0  0  0
   -2.1059    2.5111    0.0000 Si  0  0  0  0  0  4  0  0  0  0  0  0
    0.4841    2.5111    0.0000 Si  0  0  0  0  0  4  0  0  0  0  0  0
   -3.4059    0.2611    0.0000 Si  0  0  0  0  0  4  0  0  0  0  0  0
    3.0841    1.0111    0.0000 Si  0  0  0  0  0  4  0  0  0  0  0  0
   -0.8059    0.2611    0.0000 Si  0  0  0  0  0  4  0  0  0  0  0  0
    1.7841   -1.2389    0.0000 Si  0  0  0  0  0  4  0  0  0  0  0  0
 14 13  3  0
 16 15  3  0
 18 17  3  0
 22  1  1  0
 22  2  1  0
 22 13  1  0
 22 19  1  0
 23  3  1  0
 23  4  1  0
 23 15  1  0
 23 19  1  0
 24  5  1  0
 24  6  1  0
 24 14  1  0
 24 20  1  0
 25  7  1  0
 25  8  1  0
 25 16  1  0
 25 21  1  0
 26  9  1  0
 26 10  1  0
 26 17  1  0
 26 20  1  0
 27 11  1  0
 27 12  1  0
 27 18  1  0
 27 21  1  0
M  END
>  <NAME>  (4158) 
2,2,5,5,7,7,10,10,12,12,15,15-DODECAMETHYL-1,6,11-TRIOXA-2,5,7,10,12,15-HEXASILA-3,8,13-CYCLOPENTADECATRIYNE

>  <SYNONYMS>  (4158) 
DODECAMETHYL-4,9,14-TRIOXA-3,5,8,10,13,15-HEXASILACYCLOPENTADECA-1,6,11-TRIYNE

>  <SPECTRUM TYPE>  (4158) 
MS1

>  <INSTRUMENT TYPE>  (4158) 
EI-B

>  <INSTRUMENT>  (4158) 
Unknown

>  <ION MODE>  (4158) 
P

>  <INCHIKEY>  (4158) 
FVXVINSCAYJVGZ-UHFFFAOYSA-N

>  <FORMULA>  (4158) 
C18H36O3Si6

>  <EXACT MASS>  (4158) 
468.128004192

>  <MW>  (4158) 
468

>  <ID>  (4158) 
JP004698

>  <CONTRIBUTOR>  (4158) 
University of Tokyo Team, {Faculty of Engineering, University of Tokyo

>  <COMMENT>  (4158) 
SMILES=C[Si](C)(C#1)O[Si](C)(C)C#C[Si](C)(C)O[Si](C)(C)C#C[Si](C)(C)O[Si](C)(C)C1
InChI=InChI=1S/C18H36O3Si6/c1-22(2)13-14-24(5,6)20-26(9,10)17-18-27(11,12)21-25(7,8)16-15-23(3,4)19-22/h1-12H3
computed SMILES=C1#C[Si](O[Si](C#C[Si](O[Si](C#C[Si](O[Si]1(C)C)(C)C)(C)C)(C)C)(C)C)(C)C
accession=JP004698
date=2016.01.19 (Created 2008.10.21, modified 2011.05.06)
author=MASS SPECTROSCOPY SOC. OF JAPAN (MSSJ)
license=CC BY-NC-SA
exact mass=468.128
ionization energy=70 eV
ion type=[M]+*
computed spectral entropy=2.7359073153761093
computed normalized entropy=0.6858656949838031
SPLASH=splash10-0uk9-4101900000-a7c420ad482a9b68d5ba
submitter=submitter = University of Tokyo Team (Faculty of Engineering, University of Tokyo)
MoNA Rating=3.75

>  <NUM PEAKS>  (4158) 
54

>  <MASS SPECTRAL PEAKS>  (4158) 
45 2.75
59 1.78
73 85.6
74 7.92
75 3.3
83 3.91
97 5.77
117 1.38
131 1.36
133 1.08
141 2.59
147 6.35
148 1.05
155 4.12
157 3.35
179 1.17
189 1.26
207 5.57
208 1.15
215 1.44
219 5.9
220 2.83
223 1.18
231 1.2
247 1.25
297 1.47
321 1.26
365 12.76
366 5.13
367 3.27
368 1.01
379 1.57
380 1.37
381 3.5
382 1.5
383 3.14
384 1.16
385 1.47
394 1.04
395 1.85
396 1.03
423 1.49
437 1.64
438 1
453 99.99
454 50.46
455 32.96
456 11.45
457 4.33
468 2.92
469 1.54
470 1
471 1.57
473 1.05

>  <PREDICTED SPECTRUM>  (4158) 
29 5
43 48
45 137
59 219
67 30
69 44
70 18
71 37
72 50
73 838
74 186
75 127
83 78
85 93
97 20
109 26
117 51
131 211
133 83
147 412
149 73
155 58
156 39
157 122
159 40
173 52
189 6
207 170
208 102
215 74
217 12
218 4
219 106
229 26
230 22
231 42
232 34
233 25
279 6
307 15
309 10
365 361
366 164
367 228
380 17
381 151
382 7
383 66
385 46
395 108
396 11
423 23
437 70
438 28
453 999
454 713
455 605
456 320
457 239
468 128
469 112
470 34
471 11

$$$$

     RDKit          2D

 18 17  0  0  0  0  0  0  0  0999 V2000
    0.9981   -0.8017    0.0000 C   0  0  0  0  0  0  0  0  0  0  0  0
   -0.5019    1.7964    0.0000 C   0  0  0  0  0  0  0  0  0  0  0  0
   -1.0509   -0.2526    0.0000 C   0  0  0  0  0  0  0  0  0  0  0  0
   -0.5019    2.6783    0.0000 C   0  0  0  0  0  0  0  0  0  0  0  0
   -1.0509    4.7274    0.0000 C   0  0  0  0  0  0  0  0  0  0  0  0
    0.9981    5.2764    0.0000 C   0  0  0  0  0  0  0  0  0  0  0  0
    2.0962   -0.8017    0.0000 C   0  0  0  0  0  0  0  0  0  0  0  0
    4.1452   -0.2526    0.0000 C   0  0  0  0  0  0  0  0  0  0  0  0
    2.5119    5.5164    0.0000 C   0  0  0  0  0  0  0  0  0  0  0  0
    4.5609    4.9674    0.0000 C   0  0  0  0  0  0  0  0  0  0  0  0
    1.5472    1.2474    0.0000 C   0  0  0  0  0  0  0  0  0  0  0  0
    1.5472    3.2274    0.0000 C   0  0  0  0  0  0  0  0  0  0  0  0
    3.5962    1.7964    0.0000 F   0  0  0  0  0  0  0  0  0  0  0  0
    4.0119    2.9183    0.0000 F   0  0  0  0  0  0  0  0  0  0  0  0
    0.2481    0.4974    0.0000 Si  0  0  0  0  0  4  0  0  0  0  0  0
    0.2481    3.9774    0.0000 Si  0  0  0  0  0  4  0  0  0  0  0  0
    2.8462    0.4974    0.0000 Si  0  0  0  0  0  4  0  0  0  0  0  0
    3.2619    4.2174    0.0000 Si  0  0  0  0  0  4  0  0  0  0  0  0
 11 12  2  0
 15  1  1  0
 15  2  1  0
 15  3  1  0
 15 11  1  0
 16  4  1  0
 16  5  1  0
 16  6  1  0
 16 12  1  0
 17  7  1  0
 17  8  1  0
 17 11  1  0
 17 13  1  0
 18  9  1  0
 18 10  1  0
 18 12  1  0
 18 14  1  0
M  END
>  <NAME>  (4159) 
(Z)-1,2-BIS(FLUORODIMETHYLSILYL)-1,2-BIS(TRIMETHYLSILYL)ETHYLENE

>  <SYNONYMS>  (4159) 


>  <SPECTRUM TYPE>  (4159) 
MS1

>  <INSTRUMENT TYPE>  (4159) 
EI-B

>  <INSTRUMENT>  (4159) 
Unknown

>  <ION MODE>  (4159) 
P

>  <INCHIKEY>  (4159) 
FPBYTAWRHHCVKE-QXMHVHEDSA-N

>  <FORMULA>  (4159) 
C12H30F2Si4

>  <EXACT MASS>  (4159) 
324.13926352

>  <MW>  (4159) 
324

>  <ID>  (4159) 
JP004697

>  <CONTRIBUTOR>  (4159) 
University of Tokyo Team, {Faculty of Engineering, University of Tokyo

>  <COMMENT>  (4159) 
SMILES=C[Si](C)(C)C([Si](C)(C)F)=C([Si](C)(C)C)[Si](C)(C)F
InChI=InChI=1S/C12H30F2Si4/c1-15(2,3)11(17(7,8)13)12(16(4,5)6)18(9,10)14/h1-10H3/b12-11-
computed SMILES=F[Si](C(=C([Si](F)(C)C)[Si](C)(C)C)[Si](C)(C)C)(C)C
accession=JP004697
license=CC BY-NC-SA
date=2016.01.19 (Created 2008.10.21, modified 2011.05.06)
author=MASS SPECTROSCOPY SOC. OF JAPAN (MSSJ)
exact mass=324.13926
ionization energy=70 eV
ion type=[M]+*
computed spectral entropy=3.1049512334346927
computed normalized entropy=0.7583512296653314
SPLASH=splash10-05gl-5921000000-a9f0a870c7229522928a
submitter=submitter = University of Tokyo Team (Faculty of Engineering, University of Tokyo)
MoNA Rating=3.75

>  <NUM PEAKS>  (4159) 
60

>  <MASS SPECTRAL PEAKS>  (4159) 
43 2.72
44 2.47
45 10.3
47 1.16
49 1.11
58 1.65
59 1.89
71 0.97
72 2.47
73 99.99
74 6.95
75 4.66
77 5.2
83 2.81
85 0.92
96 1.16
97 4.66
99 1.16
101 1.02
115 1.6
116 1.7
119 1.02
125 2.33
129 1.26
131 42.68
132 6.66
133 3.74
135 2.67
139 1.6
140 58.19
141 9.38
142 4.32
143 1.55
144 0.92
145 1.21
149 1.84
153 0.97
155 33.64
156 5.54
157 3.3
159 33.59
160 5.25
161 2.81
163 2.96
217 15.21
218 3.59
219 1.94
221 1.36
232 35.14
233 9.57
234 4.66
235 1.21
236 2.09
247 0.92
251 1.4
309 15.5
310 4.91
311 2.86
324 3.54
325 1.36

>  <PREDICTED SPECTRUM>  (4159) 
29 29
31 82
43 118
45 202
46 10
51 21
55 121
56 33
57 43
58 28
59 223
63 18
69 103
70 36
71 32
72 23
73 999
74 215
75 206
77 148
79 80
81 50
82 10
83 174
84 1
85 123
87 24
93 71
95 60
96 22
97 194
99 174
101 21
103 90
104 11
105 38
107 5
109 29
111 68
113 82
115 56
116 20
117 67
119 68
121 75
123 54
124 11
125 106
126 71
127 113
129 164
130 58
131 632
132 213
133 110
134 3
135 136
136 4
137 15
139 195
140 208
141 260
142 173
143 142
144 97
145 187
146 117
147 16
149 81
151 54
152 26
153 27
154 11
155 596
156 110
157 73
158 110
159 214
160 182
161 160
163 159
165 45
168 100
169 71
170 76
171 136
173 25
174 82
175 25
176 73
177 27
179 17
184 12
189 51
191 55
193 110
201 17
213 20
216 21
217 371
218 298
219 190
221 79
225 73
231 197
232 680
233 333
234 136
235 74
236 164
237 9
238 9
251 99
290 16
294 21
305 61
309 379
310 191
311 184
312 72
324 177
325 51
326 38

$$$$

     RDKit          2D

  8  8  0  0  0  0  0  0  0  0999 V2000
   -2.5989   -1.5002    0.0000 C   0  0  0  0  0  0  0  0  0  0  0  0
   -1.3000    0.7500    0.0000 C   0  0  0  0  0  0  0  0  0  0  0  0
   -0.0000   -1.5000    0.0000 C   0  0  0  0  0  0  0  0  0  0  0  0
    0.0000    1.5000    0.0000 C   0  0  0  0  0  0  0  0  0  0  0  0
    1.3000   -0.7500    0.0000 C   0  0  0  0  0  0  0  0  0  0  0  0
   -1.3000   -0.7500    0.0000 C   0  0  0  0  0  0  0  0  0  0  0  0
    1.3000    0.7500    0.0000 C   0  0  0  0  0  0  0  0  0  0  0  0
    2.5989    1.5002    0.0000 Br  0  0  0  0  0  0  0  0  0  0  0  0
  4  2  2  0
  5  3  1  0
  6  1  1  0
  6  2  1  0
  6  3  2  0
  7  4  1  0
  7  5  2  0
  8  7  1  0
M  END
>  <NAME>  (4160) 
PARA-BROMOTOLUENE

>  <SYNONYMS>  (4160) 
4-BROMOTOLUENE

>  <SPECTRUM TYPE>  (4160) 
MS1

>  <INSTRUMENT TYPE>  (4160) 
EI-B

>  <INSTRUMENT>  (4160) 
JEOL JMS-D-3000

>  <ION MODE>  (4160) 
P

>  <INCHIKEY>  (4160) 
ZBTMRBYMKUEVEU-UHFFFAOYSA-N

>  <FORMULA>  (4160) 
C7H7Br

>  <EXACT MASS>  (4160) 
169.973112324

>  <MW>  (4160) 
170

>  <ID>  (4160) 
JP004692

>  <CONTRIBUTOR>  (4160) 
University of Tokyo Team, {Faculty of Engineering, University of Tokyo

>  <COMMENT>  (4160) 
SMILES=Cc(c1)ccc(Br)c1
cas=106-38-7
InChI=InChI=1S/C7H7Br/c1-6-2-4-7(8)5-3-6/h2-5H,1H3
computed SMILES=BrC1=CC=C(C=C1)C
accession=JP004692
date=2016.01.19 (Created 2008.10.21, modified 2011.05.06)
author=MASS SPECTROSCOPY SOC. OF JAPAN (MSSJ)
license=CC BY-NC-SA
exact mass=169.97311
ionization energy=70 eV
ion type=[M]+*
computed spectral entropy=2.2858640455106163
computed normalized entropy=0.7101435935647542
SPLASH=splash10-00dl-8900000000-41a373afcd3528e9670d
submitter=submitter = University of Tokyo Team (Faculty of Engineering, University of Tokyo)
MoNA Rating=3.75

>  <NUM PEAKS>  (4160) 
25

>  <MASS SPECTRAL PEAKS>  (4160) 
44 1.89
45 5.29
50 4.95
51 4.32
61 1.79
62 4.24
63 9.98
64 2.7
65 17.47
66 1.05
74 1.42
75 1.81
76 1.02
85 3.28
86 3.4
87 1.06
89 11.65
90 10.52
91 99.99
92 8.33
169 13.29
170 86.32
171 19.87
172 84.85
173 6.86

>  <PREDICTED SPECTRUM>  (4160) 
14 21
15 29
16 16
17 10
18 23
25 42
26 130
27 151
28 110
31 36
32 41
37 107
38 204
39 383
40 85
41 53
43 15
44 63
45 75
49 63
50 293
51 338
52 142
53 71
55 29
61 178
62 254
63 394
64 207
65 454
66 96
71 5
73 26
74 218
75 162
76 51
77 133
78 210
79 195
80 39
81 30
83 26
84 48
85 31
86 116
87 116
88 52
89 609
90 402
91 999
92 327
93 45
119 16
135 16
155 21
157 21
167 20
168 3
169 376
170 777
171 354
172 662
173 213

$$$$

     RDKit          2D

  8  8  0  0  0  0  0  0  0  0999 V2000
   -0.0000   -3.0000    0.0000 C   0  0  0  0  0  0  0  0  0  0  0  0
   -1.3000    0.7500    0.0000 C   0  0  0  0  0  0  0  0  0  0  0  0
    0.0000    1.5000    0.0000 C   0  0  0  0  0  0  0  0  0  0  0  0
   -1.3000   -0.7500    0.0000 C   0  0  0  0  0  0  0  0  0  0  0  0
    1.3000    0.7500    0.0000 C   0  0  0  0  0  0  0  0  0  0  0  0
    0.0000   -1.5000    0.0000 C   0  0  0  0  0  0  0  0  0  0  0  0
    1.3000   -0.7500    0.0000 C   0  0  0  0  0  0  0  0  0  0  0  0
    2.5989   -1.5002    0.0000 Br  0  0  0  0  0  0  0  0  0  0  0  0
  3  2  2  0
  4  2  1  0
  5  3  1  0
  6  1  1  0
  6  4  2  0
  7  5  2  0
  7  6  1  0
  8  7  1  0
M  END
>  <NAME>  (4161) 
ORTHO-BROMOTOLUENE

>  <SYNONYMS>  (4161) 
2-BROMOTOLUENE

>  <SPECTRUM TYPE>  (4161) 
MS1

>  <INSTRUMENT TYPE>  (4161) 
EI-B

>  <INSTRUMENT>  (4161) 
JEOL JMS-D-3000

>  <ION MODE>  (4161) 
P

>  <INCHIKEY>  (4161) 
QSSXJPIWXQTSIX-UHFFFAOYSA-N

>  <FORMULA>  (4161) 
C7H7Br

>  <EXACT MASS>  (4161) 
169.973112324

>  <MW>  (4161) 
170

>  <ID>  (4161) 
JP004691

>  <CONTRIBUTOR>  (4161) 
University of Tokyo Team, {Faculty of Engineering, University of Tokyo

>  <COMMENT>  (4161) 
SMILES=Cc(c1)c(Br)ccc1
cas=95-46-5
InChI=InChI=1S/C7H7Br/c1-6-4-2-3-5-7(6)8/h2-5H,1H3
computed SMILES=BrC=1C=CC=CC1C
accession=JP004691
date=2016.01.19 (Created 2008.10.21, modified 2011.05.06)
author=MASS SPECTROSCOPY SOC. OF JAPAN (MSSJ)
license=CC BY-NC-SA
exact mass=169.97311
ionization energy=70 eV
ion type=[M]+*
computed spectral entropy=2.3624354285272933
computed normalized entropy=0.7433591608700487
SPLASH=splash10-006x-9500000000-1eab3a6a4824ddea82d3
submitter=submitter = University of Tokyo Team (Faculty of Engineering, University of Tokyo)
MoNA Rating=3.75

>  <NUM PEAKS>  (4161) 
24

>  <MASS SPECTRAL PEAKS>  (4161) 
43 1.66
44 1.34
45 5.14
50 4.54
51 5
52 1.1
61 1.95
62 5.36
63 13.02
64 3.76
65 18.1
74 1.63
75 1.45
85 2.87
86 2.83
89 17.89
90 19.95
91 99.99
92 7.8
169 4.72
170 53.31
171 8.59
172 52.39
173 4.08

>  <PREDICTED SPECTRUM>  (4161) 
14 6
18 7
25 39
26 113
27 126
28 78
29 14
31 50
32 9
36 12
37 136
38 205
39 304
40 100
41 10
43 83
44 95
45 26
49 94
50 308
51 376
52 199
53 76
56 7
57 107
58 83
60 13
61 197
62 241
63 338
64 189
65 208
66 35
69 64
70 70
71 61
72 110
73 30
74 192
75 179
76 102
77 211
78 139
79 80
80 12
81 4
82 46
83 69
84 81
85 132
86 117
87 122
88 32
89 395
90 311
91 999
92 308
93 34
98 49
102 26
113 2
117 95
118 0
169 185
170 734
171 297
172 722
173 210

$$$$

     RDKit          2D

 10  9  0  0  0  0  0  0  0  0999 V2000
    1.0514   -0.9240    0.0000 C   0  0  0  0  0  0  0  0  0  0  0  0
   -0.4486    1.6740    0.0000 C   0  0  0  0  0  0  0  0  0  0  0  0
    4.9486    1.3260    0.0000 C   0  0  0  0  0  0  0  0  0  0  0  0
    5.4976    3.3750    0.0000 C   0  0  0  0  0  0  0  0  0  0  0  0
    1.6005    1.1250    0.0000 C   0  0  0  0  0  0  0  0  0  0  0  0
    2.8995    1.8750    0.0000 C   0  0  0  0  0  0  0  0  0  0  0  0
   -0.9976   -0.3750    0.0000 F   0  0  0  0  0  0  0  0  0  0  0  0
    3.4486    3.9240    0.0000 F   0  0  0  0  0  0  0  0  0  0  0  0
    0.3014    0.3750    0.0000 Si  0  0  0  0  0  4  0  0  0  0  0  0
    4.1986    2.6250    0.0000 Si  0  0  0  0  0  4  0  0  0  0  0  0
  6  5  3  0
  9  1  1  0
  9  2  1  0
  9  5  1  0
  9  7  1  0
 10  3  1  0
 10  4  1  0
 10  6  1  0
 10  8  1  0
M  END
>  <NAME>  (4162) 
BIS(FLUORODIMETHYLSILYL)ACETYLENE

>  <SYNONYMS>  (4162) 


>  <SPECTRUM TYPE>  (4162) 
MS1

>  <INSTRUMENT TYPE>  (4162) 
EI-B

>  <INSTRUMENT>  (4162) 
Unknown

>  <ION MODE>  (4162) 
P

>  <INCHIKEY>  (4162) 
WLXDJYZDTGKMSI-UHFFFAOYSA-N

>  <FORMULA>  (4162) 
C6H12F2Si2

>  <EXACT MASS>  (4162) 
178.044559884

>  <MW>  (4162) 
178

>  <ID>  (4162) 
JP004690

>  <CONTRIBUTOR>  (4162) 
University of Tokyo Team, {Faculty of Engineering, University of Tokyo

>  <COMMENT>  (4162) 
SMILES=C[Si](C)(F)C#C[Si](C)(C)F
InChI=InChI=1S/C6H12F2Si2/c1-9(2,7)5-6-10(3,4)8/h1-4H3
computed SMILES=F[Si](C#C[Si](F)(C)C)(C)C
accession=JP004690
date=2016.01.19 (Created 2008.10.21, modified 2011.05.06)
author=MASS SPECTROSCOPY SOC. OF JAPAN (MSSJ)
license=CC BY-NC-SA
exact mass=178.04456
ionization energy=70 eV
ion type=[M]+*
computed spectral entropy=2.7698999601607213
computed normalized entropy=0.7670902599201881
SPLASH=splash10-03di-9600000000-0b0c2dd074a0d1f789ac
submitter=submitter = University of Tokyo Team (Faculty of Engineering, University of Tokyo)
MoNA Rating=3.75

>  <NUM PEAKS>  (4162) 
37

>  <MASS SPECTRAL PEAKS>  (4162) 
42 3.36
43 38.7
45 18.28
47 11.7
49 3.78
53 3.58
55 3.46
57 1.21
58 15.94
59 26.08
66 2.16
67 4.94
69 2.94
73 5.71
74 17.74
75 1.49
77 5.75
79 1.05
81 3.88
82 1.88
83 4.13
87 2.43
96 1.98
97 16.16
98 1.95
101 2.11
133 3.78
135 2.47
137 1.51
145 1.16
147 1.21
151 1.51
153 1.51
163 99.99
164 16.61
165 8.14
178 4.37

>  <PREDICTED SPECTRUM>  (4162) 
14 5
15 38
25 0
26 20
27 26
28 9
29 97
31 86
32 3
33 24
36 27
37 44
38 86
39 167
40 86
41 82
42 160
43 364
44 113
45 263
46 68
47 223
48 87
49 95
50 128
51 163
52 116
53 197
54 121
55 126
56 28
57 128
58 91
59 274
60 78
61 98
62 46
63 136
64 89
65 151
66 127
67 167
68 59
69 85
70 64
71 122
72 89
73 274
74 126
75 159
76 91
77 250
78 127
79 183
80 56
81 117
82 34
83 136
84 20
85 84
86 55
87 26
91 55
92 52
93 4
94 42
95 5
97 207
99 53
103 30
105 95
106 74
107 51
108 2
109 33
110 3
115 23
133 108
134 10
135 83
136 33
137 21
138 7
147 34
163 999
164 365
165 239
166 46
178 86
179 25

$$$$

     RDKit          2D

 10  9  0  0  0  0  0  0  0  0999 V2000
    1.3260   -0.6495    0.0000 C   0  0  0  0  0  0  0  0  0  0  0  0
   -0.1740    1.9486    0.0000 C   0  0  0  0  0  0  0  0  0  0  0  0
   -0.7231   -0.1005    0.0000 C   0  0  0  0  0  0  0  0  0  0  0  0
    3.9240    2.3505    0.0000 C   0  0  0  0  0  0  0  0  0  0  0  0
    4.4731    4.3995    0.0000 C   0  0  0  0  0  0  0  0  0  0  0  0
    2.4240    4.9486    0.0000 C   0  0  0  0  0  0  0  0  0  0  0  0
    1.8750    1.3995    0.0000 C   0  0  0  0  0  0  0  0  0  0  0  0
    1.8750    2.8995    0.0000 C   0  0  0  0  0  0  0  0  0  0  0  0
    0.5760    0.6495    0.0000 Si  0  0  0  0  0  4  0  0  0  0  0  0
    3.1740    3.6495    0.0000 Si  0  0  0  0  0  4  0  0  0  0  0  0
  8  7  2  3
  9  1  1  0
  9  2  1  0
  9  3  1  0
  9  7  1  0
 10  4  1  0
 10  5  1  0
 10  6  1  0
 10  8  1  0
M  END
>  <NAME>  (4163) 
1,2-BIS(TRIMETHYLSILYL)ETHENE

>  <SYNONYMS>  (4163) 


>  <SPECTRUM TYPE>  (4163) 
MS1

>  <INSTRUMENT TYPE>  (4163) 
EI-B

>  <INSTRUMENT>  (4163) 
JEOL JMS-D-3000

>  <ION MODE>  (4163) 
P

>  <INCHIKEY>  (4163) 
AMGXUPKDZBCKPF-UHFFFAOYSA-N

>  <FORMULA>  (4163) 
C8H20Si2

>  <EXACT MASS>  (4163) 
172.1103537

>  <MW>  (4163) 
172

>  <ID>  (4163) 
JP004689

>  <CONTRIBUTOR>  (4163) 
University of Tokyo Team, {Faculty of Engineering, University of Tokyo

>  <COMMENT>  (4163) 
SMILES=C[Si](C)(C)C=C[Si](C)(C)C
InChI=InChI=1S/C8H20Si2/c1-9(2,3)7-8-10(4,5)6/h7-8H,1-6H3
computed SMILES=C(=C[Si](C)(C)C)[Si](C)(C)C
computed InChI=InChI=1S/C8H20Si2/c1-9(2,3)7-8-10(4,5)6/h7-8H,1-6H3/b8-7+
accession=JP004689
date=2016.01.19 (Created 2008.10.21, modified 2011.05.06)
author=MASS SPECTROSCOPY SOC. OF JAPAN (MSSJ)
license=CC BY-NC-SA
exact mass=172.11035
ionization energy=70 eV
ion type=[M]+*
computed spectral entropy=2.0427172838730887
computed normalized entropy=0.6937543275056678
SPLASH=splash10-00di-9300000000-3cdccd591d0dbabed314
submitter=submitter = University of Tokyo Team (Faculty of Engineering, University of Tokyo)
MoNA Rating=3.75

>  <NUM PEAKS>  (4163) 
19

>  <MASS SPECTRAL PEAKS>  (4163) 
43 3.5
45 8.58
58 1.41
59 3.56
71 1.67
73 99.99
74 8.99
75 4
83 4.69
84 1.45
98 3.57
99 17.25
100 2.05
157 28.75
158 5.27
159 2.4
172 22.3
173 4.18
174 1.89

>  <PREDICTED SPECTRUM>  (4163) 
15 11
27 24
28 2
29 11
31 36
39 10
41 35
42 25
43 375
44 87
45 345
46 21
53 43
55 106
57 3
58 6
59 412
60 12
67 7
69 268
70 115
71 85
72 74
73 999
74 234
75 133
83 168
84 155
85 134
87 58
97 91
98 94
99 125
100 12
101 33
113 51
115 26
128 3
129 14
130 2
141 140
142 25
143 58
157 572
158 245
159 165
160 16
172 238
173 95
174 52

$$$$

     RDKit          2D

  9  8  0  0  0  0  0  0  0  0999 V2000
    2.5981    4.5000    0.0000 C   0  0  0  0  0  0  0  0  0  0  0  0
    1.2990    5.2500    0.0000 C   0  0  0  0  0  0  0  0  0  0  0  0
    0.0000    4.5000    0.0000 C   0  0  0  0  0  0  0  0  0  0  0  0
   -1.2990    5.2500    0.0000 C   0  0  0  0  0  0  0  0  0  0  0  0
   -2.5981    4.5000    0.0000 C   0  0  0  0  0  0  0  0  0  0  0  0
   -3.8971    5.2500    0.0000 C   0  0  0  0  0  0  0  0  0  0  0  0
   -5.1962    4.5000    0.0000 C   0  0  0  0  0  0  0  0  0  0  0  0
   -6.4952    5.2500    0.0000 C   0  0  0  0  0  0  0  0  0  0  0  0
   -7.7942    4.5000    0.0000 N   0  0  0  0  0  0  0  0  0  0  0  0
  2  1  1  0
  3  2  1  0
  4  3  1  0
  5  4  1  0
  6  5  1  0
  7  6  1  0
  8  7  1  0
  9  8  1  0
M  END
>  <NAME>  (4164) 
OCTYLAMINE

>  <SYNONYMS>  (4164) 
1-OCTANAMINE

>  <SPECTRUM TYPE>  (4164) 
MS1

>  <INSTRUMENT TYPE>  (4164) 
EI-B

>  <INSTRUMENT>  (4164) 
JEOL JMS-D-3000

>  <ION MODE>  (4164) 
P

>  <INCHIKEY>  (4164) 
IOQPZZOEVPZRBK-UHFFFAOYSA-N

>  <FORMULA>  (4164) 
C8H19N

>  <EXACT MASS>  (4164) 
129.151749608

>  <MW>  (4164) 
129

>  <ID>  (4164) 
JP004688

>  <CONTRIBUTOR>  (4164) 
University of Tokyo Team, {Faculty of Engineering, University of Tokyo

>  <COMMENT>  (4164) 
SMILES=CCCCCCCCN
cas=111-86-4
InChI=InChI=1S/C8H19N/c1-2-3-4-5-6-7-8-9/h2-9H2,1H3
computed SMILES=NCCCCCCCC
accession=JP004688
date=2016.01.19 (Created 2008.10.21, modified 2011.05.06)
author=MASS SPECTROSCOPY SOC. OF JAPAN (MSSJ)
license=CC BY-NC-SA
exact mass=129.15175
ionization energy=70 eV
ion type=[M]+*
computed spectral entropy=2.9195300700965223
computed normalized entropy=0.8583830170625841
SPLASH=splash10-0006-9100000000-c0c97bb23194955f2ecf
submitter=submitter = University of Tokyo Team (Faculty of Engineering, University of Tokyo)
MoNA Rating=3.75

>  <NUM PEAKS>  (4164) 
30

>  <MASS SPECTRAL PEAKS>  (4164) 
41 96.06
42 32.8
43 50.43
44 99.99
45 73.17
53 6.48
54 5.56
55 46.44
56 38.11
57 11.85
58 4.39
59 19
67 4.64
68 4.75
69 32.95
70 18.9
71 3.47
72 17.42
73 6.94
82 3.78
83 12.77
84 10.98
86 44.71
87 5.31
100 21.25
112 4.7
114 3.67
128 9.29
129 35.25
130 5.21

>  <PREDICTED SPECTRUM>  (4164) 
15 41
16 5
17 25
18 76
27 139
28 236
29 159
30 999
31 304
32 40
39 167
40 95
41 454
42 350
43 399
44 600
45 263
46 31
53 64
54 135
55 221
56 516
57 387
58 137
59 43
67 89
68 84
69 169
70 193
71 156
72 217
73 33
82 13
83 99
84 242
85 161
86 300
87 60
100 188
112 148
113 53
114 58
128 102
129 235
130 53

$$$$

     RDKit          2D

 12 11  0  0  0  0  0  0  0  0999 V2000
    2.5478    3.0870    0.0000 C   0  0  0  0  0  0  0  0  0  0  0  0
   -3.1974    5.1361    0.0000 C   0  0  0  0  0  0  0  0  0  0  0  0
   -5.2464    4.5870    0.0000 C   0  0  0  0  0  0  0  0  0  0  0  0
   -4.6974    2.5380    0.0000 C   0  0  0  0  0  0  0  0  0  0  0  0
    1.2488    3.8370    0.0000 C   0  0  0  0  0  0  0  0  0  0  0  0
   -0.0502    3.0870    0.0000 C   0  0  0  0  0  0  0  0  0  0  0  0
   -1.3493    3.8370    0.0000 C   0  0  0  0  0  0  0  0  0  0  0  0
   -1.3493    5.3370    0.0000 C   0  0  0  0  0  0  0  0  0  0  0  0
   -2.6483    6.0870    0.0000 Cl  0  0  0  0  0  0  0  0  0  0  0  0
   -0.0502    6.0870    0.0000 Cl  0  0  0  0  0  0  0  0  0  0  0  0
   -2.6483    3.0870    0.0000 O   0  0  0  0  0  0  0  0  0  0  0  0
   -3.9474    3.8370    0.0000 Si  0  0  0  0  0  4  0  0  0  0  0  0
  5  1  1  0
  6  5  1  0
  7  6  1  0
  8  7  1  0
  9  8  1  0
 10  8  1  0
 11  7  1  0
 12  2  1  0
 12  3  1  0
 12  4  1  0
 12 11  1  0
M  END
>  <NAME>  (4165) 
1,1-DICHLORO-2-TRIMETHYLSILOXYPENTANE

>  <SYNONYMS>  (4165) 


>  <SPECTRUM TYPE>  (4165) 
MS1

>  <INSTRUMENT TYPE>  (4165) 
EI-B

>  <INSTRUMENT>  (4165) 
JEOL JMS-D-3000

>  <ION MODE>  (4165) 
P

>  <INCHIKEY>  (4165) 
HKBOWMWBSOSAMJ-UHFFFAOYSA-N

>  <FORMULA>  (4165) 
C8H18Cl2OSi

>  <EXACT MASS>  (4165) 
228.05039708599998

>  <MW>  (4165) 
228

>  <ID>  (4165) 
JP004687

>  <CONTRIBUTOR>  (4165) 
University of Tokyo Team, {Faculty of Engineering, University of Tokyo

>  <COMMENT>  (4165) 
SMILES=CCCC(C(Cl)Cl)O[Si](C)(C)C
InChI=InChI=1S/C8H18Cl2OSi/c1-5-6-7(8(9)10)11-12(2,3)4/h7-8H,5-6H2,1-4H3
computed SMILES=ClC(Cl)C(O[Si](C)(C)C)CCC
accession=JP004687
date=2016.01.19 (Created 2008.10.21, modified 2011.05.06)
author=MASS SPECTROSCOPY SOC. OF JAPAN (MSSJ)
license=CC BY-NC-SA
exact mass=228.0504
ionization energy=70 eV
ion type=[M]+*
computed spectral entropy=2.712084984047669
computed normalized entropy=0.8228820461419363
SPLASH=splash10-00dj-9500000000-2d198fe6b26d235ac3db
submitter=submitter = University of Tokyo Team (Faculty of Engineering, University of Tokyo)
MoNA Rating=3.75

>  <NUM PEAKS>  (4165) 
27

>  <MASS SPECTRAL PEAKS>  (4165) 
41 9.38
45 9.9
57 14.77
65 3.33
67 15.92
73 99.99
74 10.47
75 11.17
79 4.07
85 4.36
93 49.57
94 4.5
95 21.78
103 24.27
105 6.48
123 6.35
145 67.58
146 10.01
147 3.36
171 5.46
173 3.74
177 13.73
179 5.06
185 7.82
187 5.08
213 6.73
215 4.46

>  <PREDICTED SPECTRUM>  (4165) 
27 3
29 51
36 36
39 99
40 7
41 118
42 83
43 308
44 206
45 339
46 2
47 84
49 6
51 77
52 32
53 92
54 31
55 155
56 67
57 163
58 186
59 205
60 2
61 91
63 202
64 1
65 266
66 75
67 223
68 91
69 37
70 3
71 125
72 140
73 918
74 192
75 375
76 71
77 112
78 102
79 206
80 91
81 88
82 9
83 140
85 208
86 53
87 31
89 7
91 101
92 70
93 999
94 222
95 665
96 106
99 41
101 151
102 114
103 345
104 39
105 124
107 80
109 96
111 15
113 224
115 246
119 99
120 13
121 107
122 2
123 110
138 103
143 41
145 730
146 274
147 200
149 94
157 1
159 4
161 65
171 62
173 124
175 49
177 261
179 172
180 77
185 202
186 88
187 100
213 279
214 93
215 156
216 20

$$$$

     RDKit          2D

 12 11  0  0  0  0  0  0  0  0999 V2000
   -6.3212    3.8505    0.0000 C   0  0  0  0  0  0  0  0  0  0  0  0
   -0.5760    1.8014    0.0000 C   0  0  0  0  0  0  0  0  0  0  0  0
    1.4731    2.3505    0.0000 C   0  0  0  0  0  0  0  0  0  0  0  0
    0.9240    4.3995    0.0000 C   0  0  0  0  0  0  0  0  0  0  0  0
   -5.0221    3.1005    0.0000 C   0  0  0  0  0  0  0  0  0  0  0  0
   -3.7231    3.8505    0.0000 C   0  0  0  0  0  0  0  0  0  0  0  0
   -2.4240    3.1005    0.0000 C   0  0  0  0  0  0  0  0  0  0  0  0
   -1.1250    3.8505    0.0000 C   0  0  0  0  0  0  0  0  0  0  0  0
   -0.1608    4.9995    0.0000 Cl  0  0  0  0  0  0  0  0  0  0  0  0
   -2.0892    4.9995    0.0000 Cl  0  0  0  0  0  0  0  0  0  0  0  0
   -2.4240    1.6005    0.0000 O   0  0  0  0  0  0  0  0  0  0  0  0
    0.1740    3.1005    0.0000 Si  0  0  0  0  0  4  0  0  0  0  0  0
  5  1  1  0
  6  5  1  0
  7  6  1  0
  8  7  1  0
  9  8  1  0
 10  8  1  0
 11  7  1  0
 12  2  1  0
 12  3  1  0
 12  4  1  0
 12  8  1  0
M  END
>  <NAME>  (4166) 
1,1-DICHLORO-1-TRIMETHYLSILYL-2-PENTANOL

>  <SYNONYMS>  (4166) 


>  <SPECTRUM TYPE>  (4166) 
MS1

>  <INSTRUMENT TYPE>  (4166) 
EI-B

>  <INSTRUMENT>  (4166) 
JEOL JMS-D-3000

>  <ION MODE>  (4166) 
P

>  <INCHIKEY>  (4166) 
LPDRWGIWGCOOKJ-UHFFFAOYSA-N

>  <FORMULA>  (4166) 
C8H18Cl2OSi

>  <EXACT MASS>  (4166) 
228.05039708599998

>  <MW>  (4166) 
228

>  <ID>  (4166) 
JP004686

>  <CONTRIBUTOR>  (4166) 
University of Tokyo Team, {Faculty of Engineering, University of Tokyo

>  <COMMENT>  (4166) 
SMILES=CCCC(O)C(Cl)(Cl)[Si](C)(C)C
InChI=InChI=1S/C8H18Cl2OSi/c1-5-6-7(11)8(9,10)12(2,3)4/h7,11H,5-6H2,1-4H3
computed SMILES=ClC(Cl)(C(O)CCC)[Si](C)(C)C
accession=JP004686
date=2016.01.19 (Created 2008.10.21, modified 2011.05.06)
author=MASS SPECTROSCOPY SOC. OF JAPAN (MSSJ)
license=CC BY-NC-SA
exact mass=228.0504
ionization energy=70 eV
ion type=[M]+*
computed spectral entropy=3.077377475311614
computed normalized entropy=0.8879434445150928
SPLASH=splash10-006x-9300000000-67841fd2437242a22438
submitter=submitter = University of Tokyo Team (Faculty of Engineering, University of Tokyo)
MoNA Rating=3.75

>  <NUM PEAKS>  (4166) 
32

>  <MASS SPECTRAL PEAKS>  (4166) 
42 46.79
45 22.26
55 37.25
65 11.35
67 29.21
73 99.99
74 18.02
75 64.5
76 17.66
77 9.26
89 9.78
91 29.43
93 38.37
95 19.45
96 11.98
97 9.34
102 12.97
103 20.48
109 20.48
110 11.59
111 15.04
112 8.32
113 8.04
138 37.4
140 23.78
145 13.44
163 2.26
177 7.3
178 1.16
179 2.63
185 1.14
193 0.22

>  <PREDICTED SPECTRUM>  (4166) 
29 35
36 49
38 9
39 75
40 40
41 171
42 122
43 316
44 68
45 368
47 65
49 52
50 6
51 62
52 49
53 123
54 63
55 423
56 121
57 196
58 105
59 111
61 133
62 0
63 92
65 143
66 65
67 204
68 107
69 217
70 230
71 166
72 42
73 999
74 275
75 638
76 184
77 158
78 63
79 147
80 46
81 92
82 89
83 234
84 43
85 75
91 176
92 48
93 697
94 174
95 398
96 135
97 139
98 30
101 132
102 155
103 257
104 150
105 116
106 56
107 67
109 135
110 187
111 33
113 115
119 1
121 22
123 97
126 9
127 13
138 273
139 77
140 190
142 26
145 138
146 81
149 139
151 25
152 19
177 243
184 8
185 21
213 41

$$$$

     RDKit          2D

  9  8  0  0  0  0  0  0  0  0999 V2000
    2.5981    4.5000    0.0000 C   0  0  0  0  0  0  0  0  0  0  0  0
    1.2990    5.2500    0.0000 C   0  0  0  0  0  0  0  0  0  0  0  0
    0.0000    4.5000    0.0000 C   0  0  0  0  0  0  0  0  0  0  0  0
   -1.2990    5.2500    0.0000 C   0  0  0  0  0  0  0  0  0  0  0  0
   -2.5981    4.5000    0.0000 C   0  0  0  0  0  0  0  0  0  0  0  0
   -3.8971    5.2500    0.0000 C   0  0  0  0  0  0  0  0  0  0  0  0
   -5.1962    4.5000    0.0000 C   0  0  0  0  0  0  0  0  0  0  0  0
   -6.4952    5.2500    0.0000 C   0  0  0  0  0  0  0  0  0  0  0  0
   -7.7942    4.5000    0.0000 I   0  0  0  0  0  0  0  0  0  0  0  0
  2  1  1  0
  3  2  1  0
  4  3  1  0
  5  4  1  0
  6  5  1  0
  7  6  1  0
  8  7  1  0
  9  8  1  0
M  END
>  <NAME>  (4167) 
1-IODOOCTANE

>  <SYNONYMS>  (4167) 


>  <SPECTRUM TYPE>  (4167) 
MS1

>  <INSTRUMENT TYPE>  (4167) 
EI-B

>  <INSTRUMENT>  (4167) 
JEOL JMS-D-3000

>  <ION MODE>  (4167) 
P

>  <INCHIKEY>  (4167) 
UWLHSHAHTBJTBA-UHFFFAOYSA-N

>  <FORMULA>  (4167) 
C8H17I

>  <EXACT MASS>  (4167) 
240.037498544

>  <MW>  (4167) 
240

>  <ID>  (4167) 
JP004685

>  <CONTRIBUTOR>  (4167) 
University of Tokyo Team, {Faculty of Engineering, University of Tokyo

>  <COMMENT>  (4167) 
SMILES=CCCCCCCCI
cas=629-27-6
InChI=InChI=1S/C8H17I/c1-2-3-4-5-6-7-8-9/h2-8H2,1H3
computed SMILES=ICCCCCCCC
accession=JP004685
date=2016.01.19 (Created 2008.10.21, modified 2011.05.06)
author=MASS SPECTROSCOPY SOC. OF JAPAN (MSSJ)
license=CC BY-NC-SA
exact mass=240.03749
ionization energy=70 eV
ion type=[M]+*
computed spectral entropy=2.094943267735059
computed normalized entropy=0.6881024234794528
SPLASH=splash10-05fu-9100000000-442b8708e7e2a2d2acfd
submitter=submitter = University of Tokyo Team (Faculty of Engineering, University of Tokyo)
MoNA Rating=3.75

>  <NUM PEAKS>  (4167) 
21

>  <MASS SPECTRAL PEAKS>  (4167) 
42 22.2
43 44.73
44 4.57
53 1.17
55 8.84
56 1.81
57 93.4
58 4.67
69 2.29
71 99.99
72 6.2
84 1.09
85 2.88
113 26.82
114 2.78
141 1.27
155 8.99
169 1.22
183 1.2
240 13.15
241 1.32

>  <PREDICTED SPECTRUM>  (4167) 
25 9
26 67
27 301
28 51
29 418
30 7
31 54
37 32
38 76
39 301
40 131
41 662
42 267
43 797
44 136
50 41
51 54
52 61
53 170
54 133
55 470
56 337
57 999
58 200
59 1
65 27
67 82
68 42
69 274
70 191
71 676
72 171
73 90
78 27
83 140
84 87
85 496
86 182
99 133
111 19
112 28
113 358
114 39
127 210
128 108
141 67
154 3
155 166
183 153
240 52

$$$$

     RDKit          2D

  9  8  0  0  0  0  0  0  0  0999 V2000
    2.5981    4.5000    0.0000 C   0  0  0  0  0  0  0  0  0  0  0  0
    1.2990    5.2500    0.0000 C   0  0  0  0  0  0  0  0  0  0  0  0
    0.0000    4.5000    0.0000 C   0  0  0  0  0  0  0  0  0  0  0  0
   -1.2990    5.2500    0.0000 C   0  0  0  0  0  0  0  0  0  0  0  0
   -2.5981    4.5000    0.0000 C   0  0  0  0  0  0  0  0  0  0  0  0
   -3.8971    5.2500    0.0000 C   0  0  0  0  0  0  0  0  0  0  0  0
   -5.1962    4.5000    0.0000 C   0  0  0  0  0  0  0  0  0  0  0  0
   -6.4952    5.2500    0.0000 C   0  0  0  0  0  0  0  0  0  0  0  0
   -7.7942    4.5000    0.0000 Br  0  0  0  0  0  0  0  0  0  0  0  0
  2  1  1  0
  3  2  1  0
  4  3  1  0
  5  4  1  0
  6  5  1  0
  7  6  1  0
  8  7  1  0
  9  8  1  0
M  END
>  <NAME>  (4168) 
1-BROMOOCTANE

>  <SYNONYMS>  (4168) 


>  <SPECTRUM TYPE>  (4168) 
MS1

>  <INSTRUMENT TYPE>  (4168) 
EI-B

>  <INSTRUMENT>  (4168) 
JEOL JMS-D-3000

>  <ION MODE>  (4168) 
P

>  <INCHIKEY>  (4168) 
VMKOFRJSULQZRM-UHFFFAOYSA-N

>  <FORMULA>  (4168) 
C8H17Br

>  <EXACT MASS>  (4168) 
192.051362644

>  <MW>  (4168) 
192

>  <ID>  (4168) 
JP004684

>  <CONTRIBUTOR>  (4168) 
University of Tokyo Team, {Faculty of Engineering, University of Tokyo

>  <COMMENT>  (4168) 
SMILES=CCCCCCCCBr
cas=111-83-1
InChI=InChI=1S/C8H17Br/c1-2-3-4-5-6-7-8-9/h2-8H2,1H3
computed SMILES=BrCCCCCCCC
accession=JP004684
date=2016.01.19 (Created 2008.10.21, modified 2011.05.06)
author=MASS SPECTROSCOPY SOC. OF JAPAN (MSSJ)
license=CC BY-NC-SA
exact mass=192.05136
ionization energy=70 eV
ion type=[M]+*
computed spectral entropy=2.6726377709889064
computed normalized entropy=0.7401546741426119
SPLASH=splash10-0a4u-9300000000-a8f3edf1e27e2eed470b
submitter=submitter = University of Tokyo Team (Faculty of Engineering, University of Tokyo)
MoNA Rating=3.75

>  <NUM PEAKS>  (4168) 
37

>  <MASS SPECTRAL PEAKS>  (4168) 
40 2.12
42 62.72
43 82.82
53 3.36
54 2.14
55 55.54
56 20.18
57 99.99
58 4.92
67 2.1
68 1.5
69 30.86
70 13.41
71 71.44
72 4.13
73 4.46
75 1.78
83 8.91
84 4.07
85 5.28
99 1.1
107 3.42
109 3.32
113 1.17
121 1.3
123 1.03
130 1.77
135 70.37
136 3.41
137 68.52
138 3.28
149 6.25
151 6.02
185 2.02
187 1.1
192 1.08
194 1.01

>  <PREDICTED SPECTRUM>  (4168) 
15 37
25 3
26 110
27 489
28 207
29 517
30 85
31 10
36 17
37 26
38 105
39 498
40 234
41 999
42 563
43 923
44 285
50 33
51 119
52 90
53 284
54 229
55 921
56 669
57 957
58 239
65 112
66 68
67 308
68 228
69 788
70 352
71 573
79 103
80 58
81 162
82 181
83 481
84 226
85 108
86 81
93 121
95 142
96 45
97 335
107 238
108 33
109 170
111 85
112 48
113 230
120 24
121 160
122 44
123 69
134 6
135 675
136 136
137 578
148 132
149 306
150 142
151 301
152 31
163 21
164 68
165 100
192 114
194 86

$$$$

     RDKit          2D

  9  9  0  0  0  0  0  0  0  0999 V2000
    2.9228   -0.2425    0.0000 C   0  0  0  0  0  0  0  0  0  0  0  0
    2.9233    1.2583    0.0000 C   0  0  0  0  0  0  0  0  0  0  0  0
    1.6233   -0.9933    0.0000 C   0  0  0  0  0  0  0  0  0  0  0  0
    1.6243    2.0083    0.0000 C   0  0  0  0  0  0  0  0  0  0  0  0
    0.3243   -0.2433    0.0000 C   0  0  0  0  0  0  0  0  0  0  0  0
   -0.9743    2.0075    0.0000 C   0  0  0  0  0  0  0  0  0  0  0  0
   -2.2733    1.2575    0.0000 C   0  0  0  0  0  0  0  0  0  0  0  0
    0.3248    1.2575    0.0000 C   0  0  0  0  0  0  0  0  0  0  0  0
   -3.5724    2.0075    0.0000 O   0  0  0  0  0  0  0  0  0  0  0  0
  2  1  2  0
  3  1  1  0
  4  2  1  0
  5  3  1  0
  7  6  1  0
  8  4  1  0
  8  5  1  0
  8  6  1  0
  9  7  1  0
M  END
>  <NAME>  (4169) 
2-(3-CYCLOHEXENYL)ETHANOL

>  <SYNONYMS>  (4169) 


>  <SPECTRUM TYPE>  (4169) 
MS1

>  <INSTRUMENT TYPE>  (4169) 
EI-B

>  <INSTRUMENT>  (4169) 
JEOL JMS-D-3000

>  <ION MODE>  (4169) 
P

>  <INCHIKEY>  (4169) 
FELLSOCIMJMONP-UHFFFAOYSA-N

>  <FORMULA>  (4169) 
C8H14O

>  <EXACT MASS>  (4169) 
126.104465068

>  <MW>  (4169) 
126

>  <ID>  (4169) 
JP004683

>  <CONTRIBUTOR>  (4169) 
University of Tokyo Team, {Faculty of Engineering, University of Tokyo

>  <COMMENT>  (4169) 
SMILES=OCCC(C1)CC=CC1
InChI=InChI=1S/C8H14O/c9-7-6-8-4-2-1-3-5-8/h1-2,8-9H,3-7H2
computed SMILES=OCCC1CC=CCC1
accession=JP004683
date=2016.01.19 (Created 2008.10.21, modified 2011.05.06)
author=MASS SPECTROSCOPY SOC. OF JAPAN (MSSJ)
license=CC BY-NC-SA
exact mass=126.10447
ionization energy=70 eV
ion type=[M]+*
computed spectral entropy=3.2798315032526704
computed normalized entropy=0.856656751990487
SPLASH=splash10-005d-9000000000-6dae003548c772745e8b
submitter=submitter = University of Tokyo Team (Faculty of Engineering, University of Tokyo)
MoNA Rating=3.75

>  <NUM PEAKS>  (4169) 
46

>  <MASS SPECTRAL PEAKS>  (4169) 
42 32.33
43 10
44 3.71
50 3.31
51 8.56
52 5.75
53 12.88
54 14.27
55 26.14
56 5.26
57 12.67
58 8.79
63 1.64
65 7.28
66 6.65
67 38.97
68 11.22
69 9.65
70 46.89
71 7.45
77 28.48
78 11.04
79 76.75
80 27.51
81 10.65
82 13.56
83 27.81
84 4.58
91 22.28
92 2.7
93 55.86
94 2.22
95 6
96 4.01
97 23.24
98 99.99
99 7.51
104 1.63
105 2.18
106 1.52
107 4.29
108 32.54
109 3.34
111 2.07
124 2.13
126 3

>  <PREDICTED SPECTRUM>  (4169) 
17 0
18 3
26 114
27 392
28 103
29 302
30 88
31 280
36 9
37 48
38 139
39 606
40 252
41 716
42 272
43 344
44 238
45 261
46 81
47 100
48 45
49 39
50 178
51 306
52 236
53 476
54 564
55 509
56 214
57 338
58 175
59 100
60 84
61 54
62 100
63 198
64 83
65 320
66 519
67 743
68 358
69 246
70 372
71 178
72 85
73 25
74 44
75 96
76 26
77 462
78 385
79 999
80 808
81 729
82 417
83 278
84 185
85 42
89 31
91 421
92 321
93 743
94 540
95 267
96 186
97 229
98 160
107 285
108 748
109 220
110 43
111 33
125 17
126 140
127 46

$$$$

     RDKit          2D

 11 11  0  0  0  0  0  0  0  0999 V2000
    2.5983    0.3196    0.0000 C   0  0  0  0  0  0  0  0  0  0  0  0
    2.5988    1.8204    0.0000 C   0  0  0  0  0  0  0  0  0  0  0  0
    1.2988   -0.4312    0.0000 C   0  0  0  0  0  0  0  0  0  0  0  0
    1.2998    2.5704    0.0000 C   0  0  0  0  0  0  0  0  0  0  0  0
   -0.0002    0.3188    0.0000 C   0  0  0  0  0  0  0  0  0  0  0  0
    0.0002    1.8196    0.0000 C   0  0  0  0  0  0  0  0  0  0  0  0
   -1.2988    2.5696    0.0000 C   0  0  0  0  0  0  0  0  0  0  0  0
   -2.5978    1.8196    0.0000 C   0  0  0  0  0  0  0  0  0  0  0  0
   -3.8969    2.5696    0.0000 Cl  0  0  0  0  0  0  0  0  0  0  0  0
   -2.5978    0.3196    0.0000 Cl  0  0  0  0  0  0  0  0  0  0  0  0
   -1.2988    4.0696    0.0000 O   0  0  0  0  0  0  0  0  0  0  0  0
  2  1  2  0
  3  1  1  0
  4  2  1  0
  5  3  2  0
  6  4  2  0
  6  5  1  0
  7  6  1  0
  8  7  1  0
  9  8  1  0
 10  8  1  0
 11  7  1  0
M  END
>  <NAME>  (4170) 
2,2-DICHLORO-1-PHENYLETHANOL

>  <SYNONYMS>  (4170) 


>  <SPECTRUM TYPE>  (4170) 
MS1

>  <INSTRUMENT TYPE>  (4170) 
EI-B

>  <INSTRUMENT>  (4170) 
JEOL JMS-D-3000

>  <ION MODE>  (4170) 
P

>  <INCHIKEY>  (4170) 
XNSCLDYOTQWNGW-UHFFFAOYSA-N

>  <FORMULA>  (4170) 
C8H8Cl2O

>  <EXACT MASS>  (4170) 
189.995220236

>  <MW>  (4170) 
190

>  <ID>  (4170) 
JP004680

>  <CONTRIBUTOR>  (4170) 
University of Tokyo Team, {Faculty of Engineering, University of Tokyo

>  <COMMENT>  (4170) 
SMILES=ClC(Cl)C(O)c(c1)cccc1
InChI=InChI=1S/C8H8Cl2O/c9-8(10)7(11)6-4-2-1-3-5-6/h1-5,7-8,11H
computed SMILES=ClC(Cl)C(O)C=1C=CC=CC1
accession=JP004680
date=2016.01.19 (Created 2008.10.21, modified 2011.05.06)
author=MASS SPECTROSCOPY SOC. OF JAPAN (MSSJ)
license=CC BY-NC-SA
exact mass=189.99522
ionization energy=70 eV
ion type=[M]+*
computed spectral entropy=2.7750247824151684
computed normalized entropy=0.8081057433151457
SPLASH=splash10-0a6r-9800000000-982c6b6998f31ba7a6e8
submitter=submitter = University of Tokyo Team (Faculty of Engineering, University of Tokyo)
MoNA Rating=3.75

>  <NUM PEAKS>  (4170) 
31

>  <MASS SPECTRAL PEAKS>  (4170) 
45 3.87
49 4.58
52 9.48
53 4.61
62 4.67
63 10.74
64 2.36
65 8.74
73 2.36
74 6.55
75 6.98
76 5.86
78 23.27
79 26.83
80 13.19
83 8.51
85 5.84
89 8.74
90 4.55
101 3.53
102 5.47
103 8.86
107 99.99
108 5.32
109 3.07
126 2.42
127 4.81
137 2.45
138 5.12
190 4.5
192 2.7

>  <PREDICTED SPECTRUM>  (4170) 
19 15
25 11
26 34
27 20
28 7
30 16
31 7
33 12
35 87
36 96
37 82
38 107
39 91
40 4
41 5
47 39
48 45
49 134
50 247
51 278
52 181
53 129
55 43
57 52
60 2
61 107
62 97
63 193
64 67
65 60
66 40
71 32
73 175
74 116
75 138
76 148
77 173
78 229
79 411
80 197
83 290
84 92
85 243
87 67
89 155
90 108
91 23
99 18
101 1
102 96
103 73
105 20
107 999
108 286
109 156
111 12
117 15
118 78
119 48
120 7
127 146
137 83
138 105
190 135
191 19
192 96
193 4
194 22

$$$$

     RDKit          2D

 11 11  0  0  0  0  0  0  0  0999 V2000
    5.1948    1.1419    0.0000 C   0  0  0  0  0  0  0  0  0  0  0  0
   -0.0000   -1.8800    0.0000 C   0  0  0  0  0  0  0  0  0  0  0  0
    1.3000   -1.1200    0.0000 C   0  0  0  0  0  0  0  0  0  0  0  0
   -1.3000   -1.1200    0.0000 C   0  0  0  0  0  0  0  0  0  0  0  0
   -0.0000    1.1200    0.0000 C   0  0  0  0  0  0  0  0  0  0  0  0
    1.3000    0.3800    0.0000 C   0  0  0  0  0  0  0  0  0  0  0  0
   -1.3000    0.3800    0.0000 C   0  0  0  0  0  0  0  0  0  0  0  0
    2.5967    1.1340    0.0000 C   0  0  0  0  0  0  0  0  0  0  0  0
   -2.5967    1.1340    0.0000 Cl  0  0  0  0  0  0  0  0  0  0  0  0
    2.5922    2.6340    0.0000 O   0  0  0  0  0  0  0  0  0  0  0  0
    3.8981    0.3879    0.0000 O   0  0  0  0  0  0  0  0  0  0  0  0
  3  2  2  0
  4  2  1  0
  6  3  1  0
  6  5  2  0
  7  4  2  0
  7  5  1  0
  8  6  1  0
  9  7  1  0
 10  8  2  0
 11  1  1  0
 11  8  1  0
M  END
>  <NAME>  (4171) 
METHYL M-CHLOROBENZOATE

>  <SYNONYMS>  (4171) 
2-CHLOROBENZOIC ACID METHYL ESTER

>  <SPECTRUM TYPE>  (4171) 
MS1

>  <INSTRUMENT TYPE>  (4171) 
EI-B

>  <INSTRUMENT>  (4171) 
JEOL JMS-D-3000

>  <ION MODE>  (4171) 
P

>  <INCHIKEY>  (4171) 
XRDRKVPNHIWTBX-UHFFFAOYSA-N

>  <FORMULA>  (4171) 
C8H7ClO2

>  <EXACT MASS>  (4171) 
170.013457144

>  <MW>  (4171) 
170

>  <ID>  (4171) 
JP004679

>  <CONTRIBUTOR>  (4171) 
University of Tokyo Team, {Faculty of Engineering, University of Tokyo

>  <COMMENT>  (4171) 
SMILES=COC(=O)c(c1)cc(Cl)cc1
cas=610-96-8
InChI=InChI=1S/C8H7ClO2/c1-11-8(10)6-3-2-4-7(9)5-6/h2-5H,1H3
computed SMILES=O=C(OC)C=1C=CC=C(Cl)C1
accession=JP004679
date=2016.01.19 (Created 2008.10.21, modified 2011.05.06)
author=MASS SPECTROSCOPY SOC. OF JAPAN (MSSJ)
license=CC BY-NC-SA
exact mass=170.01346
ionization energy=70 eV
ion type=[M]+*
computed spectral entropy=2.044214295138066
computed normalized entropy=0.8525035760850578
SPLASH=splash10-01w0-1900000000-e303ebdd66d909670413
submitter=submitter = University of Tokyo Team (Faculty of Engineering, University of Tokyo)
MoNA Rating=3.75

>  <NUM PEAKS>  (4171) 
11

>  <MASS SPECTRAL PEAKS>  (4171) 
50 10.98
74 5.94
75 25.58
76 6.84
111 50
113 16.44
139 99.99
140 9.68
141 39.82
170 42.61
172 13.97

>  <PREDICTED SPECTRUM>  (4171) 
14 19
15 101
16 19
25 7
26 57
27 65
28 57
29 163
31 81
35 49
36 68
37 118
38 155
39 100
40 6
41 8
43 78
44 64
47 38
48 18
49 185
50 451
51 326
52 106
53 150
55 10
56 10
59 225
60 91
61 173
62 174
63 208
64 100
65 28
66 5
67 19
68 52
69 75
70 41
72 29
73 239
74 424
75 687
76 363
77 110
78 28
79 32
82 2
83 80
84 170
85 244
86 92
91 55
92 73
99 61
104 19
109 95
110 65
111 664
112 110
113 367
135 119
136 13
139 999
140 298
141 616
142 184
143 26
169 124
170 454
171 143
172 281
173 80

$$$$

     RDKit          2D

 10 10  0  0  0  0  0  0  0  0999 V2000
    2.5983    0.3196    0.0000 C   0  0  0  0  0  0  0  0  0  0  0  0
    2.5988    1.8204    0.0000 C   0  0  0  0  0  0  0  0  0  0  0  0
    1.2988   -0.4312    0.0000 C   0  0  0  0  0  0  0  0  0  0  0  0
    1.2998    2.5704    0.0000 C   0  0  0  0  0  0  0  0  0  0  0  0
   -0.0002    0.3188    0.0000 C   0  0  0  0  0  0  0  0  0  0  0  0
   -1.2988    2.5696    0.0000 C   0  0  0  0  0  0  0  0  0  0  0  0
    0.0002    1.8196    0.0000 C   0  0  0  0  0  0  0  0  0  0  0  0
   -2.5978    1.8196    0.0000 C   0  0  0  0  0  0  0  0  0  0  0  0
   -3.8969    2.5696    0.0000 Cl  0  0  0  0  0  0  0  0  0  0  0  0
   -2.5978    0.3196    0.0000 Cl  0  0  0  0  0  0  0  0  0  0  0  0
  2  1  2  0
  3  1  1  0
  4  2  1  0
  5  3  2  0
  7  4  2  0
  7  5  1  0
  7  6  1  0
  8  6  2  0
  9  8  1  0
 10  8  1  0
M  END
>  <NAME>  (4172) 
1,1-DICHLORO-2-PHENYLETHENE

>  <SYNONYMS>  (4172) 
(2,2-DICHLOROETHENYL)BENZENE

>  <SPECTRUM TYPE>  (4172) 
MS1

>  <INSTRUMENT TYPE>  (4172) 
EI-B

>  <INSTRUMENT>  (4172) 
JEOL JMS-D-3000

>  <ION MODE>  (4172) 
P

>  <INCHIKEY>  (4172) 
CISIJYCKDJSTMX-UHFFFAOYSA-N

>  <FORMULA>  (4172) 
C8H6Cl2

>  <EXACT MASS>  (4172) 
171.984655552

>  <MW>  (4172) 
172

>  <ID>  (4172) 
JP004678

>  <CONTRIBUTOR>  (4172) 
University of Tokyo Team, {Faculty of Engineering, University of Tokyo

>  <COMMENT>  (4172) 
SMILES=ClC(Cl)=Cc(c1)cccc1
cas=698-88-4
InChI=InChI=1S/C8H6Cl2/c9-8(10)6-7-4-2-1-3-5-7/h1-6H
computed SMILES=ClC(Cl)=CC=1C=CC=CC1
accession=JP004678
date=2016.01.19 (Created 2008.10.21, modified 2011.05.06)
author=MASS SPECTROSCOPY SOC. OF JAPAN (MSSJ)
license=CC BY-NC-SA
exact mass=171.98466
ionization energy=70 eV
ion type=[M]+*
computed spectral entropy=2.5780089811810605
computed normalized entropy=0.7822016337557631
SPLASH=splash10-00di-2900000000-53edbd4c51a2ec2ad4cc
submitter=submitter = University of Tokyo Team (Faculty of Engineering, University of Tokyo)
MoNA Rating=3.75

>  <NUM PEAKS>  (4172) 
27

>  <MASS SPECTRAL PEAKS>  (4172) 
50 8.77
51 12.83
62 1.83
63 2.6
68 10.57
69 3.44
74 4.8
75 8.19
76 3.05
77 3.87
86 3.42
87 2.59
99 1.85
101 20.86
102 31.66
103 2.72
112 7.59
114 2.43
136 4.67
137 26.4
138 3.81
139 8.88
172 99.99
173 9.41
174 64.32
175 5.91
176 10.99

>  <PREDICTED SPECTRUM>  (4172) 
35 24
36 45
37 11
38 34
39 138
40 2
43 95
44 27
49 20
50 274
51 362
52 86
61 94
62 187
63 296
64 49
65 45
69 82
72 6
73 137
74 276
75 323
76 221
77 207
78 48
81 50
82 86
84 23
85 73
86 181
87 130
88 63
89 117
90 44
93 18
94 8
96 9
98 63
99 121
100 101
101 583
102 861
103 306
104 11
134 26
135 74
136 299
137 957
138 374
139 518
140 95
171 16
172 999
173 287
174 718
175 217
176 284
177 34

$$$$

     RDKit          2D

 12 12  0  0  0  0  0  0  0  0999 V2000
    3.2478    1.4446    0.0000 C   0  0  0  0  0  0  0  0  0  0  0  0
    3.2483    2.9454    0.0000 C   0  0  0  0  0  0  0  0  0  0  0  0
    1.9483    0.6938    0.0000 C   0  0  0  0  0  0  0  0  0  0  0  0
   -1.9483    2.9446    0.0000 C   0  0  0  0  0  0  0  0  0  0  0  0
    1.9493    3.6954    0.0000 C   0  0  0  0  0  0  0  0  0  0  0  0
    0.6493    1.4438    0.0000 C   0  0  0  0  0  0  0  0  0  0  0  0
   -0.6493    3.6946    0.0000 C   0  0  0  0  0  0  0  0  0  0  0  0
   -3.2474    3.6946    0.0000 C   0  0  0  0  0  0  0  0  0  0  0  0
    0.6498    2.9446    0.0000 C   0  0  0  0  0  0  0  0  0  0  0  0
   -4.5464    2.9446    0.0000 C   0  0  0  0  0  0  0  0  0  0  0  0
   -5.8454    3.6946    0.0000 Cl  0  0  0  0  0  0  0  0  0  0  0  0
   -4.5464    1.4446    0.0000 Cl  0  0  0  0  0  0  0  0  0  0  0  0
  2  1  2  0
  3  1  1  0
  5  2  1  0
  6  3  2  0
  7  4  1  0
  8  4  1  0
  9  5  2  0
  9  6  1  0
  9  7  1  0
 10  8  2  0
 11 10  1  0
 12 10  1  0
M  END
>  <NAME>  (4173) 
1,1-DICHLORO-4-PHENYL-1-BUTENE

>  <SYNONYMS>  (4173) 


>  <SPECTRUM TYPE>  (4173) 
MS1

>  <INSTRUMENT TYPE>  (4173) 
EI-B

>  <INSTRUMENT>  (4173) 
JEOL JMS-D-3000

>  <ION MODE>  (4173) 
P

>  <INCHIKEY>  (4173) 
UNJBNXSLPCBXPD-UHFFFAOYSA-N

>  <FORMULA>  (4173) 
C10H10Cl2

>  <EXACT MASS>  (4173) 
200.01595568

>  <MW>  (4173) 
200

>  <ID>  (4173) 
JP004677

>  <CONTRIBUTOR>  (4173) 
University of Tokyo Team, {Faculty of Engineering, University of Tokyo

>  <COMMENT>  (4173) 
SMILES=ClC(Cl)=CCCc(c1)cccc1
InChI=InChI=1S/C10H10Cl2/c11-10(12)8-4-7-9-5-2-1-3-6-9/h1-3,5-6,8H,4,7H2
computed SMILES=ClC(Cl)=CCCC=1C=CC=CC1
ionization energy=70 eV
ion type=[M]+*
accession=JP004677
date=2016.01.19 (Created 2008.10.21, modified 2011.05.06)
author=MASS SPECTROSCOPY SOC. OF JAPAN (MSSJ)
license=CC BY-NC-SA
exact mass=200.01596
computed spectral entropy=1.525334117760201
computed normalized entropy=0.5010093204965135
SPLASH=splash10-0006-9100000000-22d5a9fd6efec5af9480
submitter=submitter = University of Tokyo Team (Faculty of Engineering, University of Tokyo)
MoNA Rating=3.75

>  <NUM PEAKS>  (4173) 
21

>  <MASS SPECTRAL PEAKS>  (4173) 
44 1.81
50 1.14
51 3.53
63 2.1
64 1.16
65 7.9
77 1.86
78 1.04
89 1.28
91 99.99
92 7.78
117 1.88
119 1.8
127 1.02
128 1.45
129 1.5
164 2.22
165 4.81
166 1.22
167 1.61
200 1.34

>  <PREDICTED SPECTRUM>  (4173) 
35 9
36 61
38 32
39 124
44 6
49 22
50 59
51 116
52 28
61 21
62 60
63 85
64 15
65 236
66 39
70 3
72 41
73 36
74 28
75 68
76 4
77 106
78 58
89 23
91 999
92 372
93 98
102 35
103 59
104 119
105 48
117 61
128 136
165 122
166 18
200 168
201 24
202 121
203 13
204 19

$$$$

     RDKit          2D

 11 10  0  0  0  0  0  0  0  0999 V2000
    6.2476    3.7231    0.0000 C   0  0  0  0  0  0  0  0  0  0  0  0
    4.7476    1.1250    0.0000 C   0  0  0  0  0  0  0  0  0  0  0  0
    6.7966    1.6740    0.0000 C   0  0  0  0  0  0  0  0  0  0  0  0
    2.8995    2.4240    0.0000 C   0  0  0  0  0  0  0  0  0  0  0  0
    1.6005    3.1740    0.0000 C   0  0  0  0  0  0  0  0  0  0  0  0
    4.1986    3.1740    0.0000 C   0  0  0  0  0  0  0  0  0  0  0  0
   -0.9976    3.1740    0.0000 C   0  0  0  0  0  0  0  0  0  0  0  0
   -2.2966    2.4240    0.0000 Cl  0  0  0  0  0  0  0  0  0  0  0  0
   -0.9976    4.6740    0.0000 Cl  0  0  0  0  0  0  0  0  0  0  0  0
    0.3014    2.4240    0.0000 Si  0  0  0  0  0  4  0  0  0  0  0  0
    5.4976    2.4240    0.0000 Si  0  0  0  0  0  4  0  0  0  0  0  0
  5  4  1  0
  6  4  1  0
  8  7  1  0
  9  7  1  0
 10  5  1  0
 10  7  1  0
 11  1  1  0
 11  2  1  0
 11  3  1  0
 11  6  1  0
M  END
>  <NAME>  (4174) 
1-DICHLOROMETHYLSILYL-3-TRIMETHYLSILYLPROPANE

>  <SYNONYMS>  (4174) 


>  <SPECTRUM TYPE>  (4174) 
MS1

>  <INSTRUMENT TYPE>  (4174) 
EI-B

>  <INSTRUMENT>  (4174) 
JEOL JMS-D-3000

>  <ION MODE>  (4174) 
P

>  <INCHIKEY>  (4174) 
DFVDZCPIGDUXFT-UHFFFAOYSA-N

>  <FORMULA>  (4174) 
C7H18Cl2Si2

>  <EXACT MASS>  (4174) 
228.032408996

>  <MW>  (4174) 
228

>  <ID>  (4174) 
JP004676

>  <CONTRIBUTOR>  (4174) 
University of Tokyo Team, {Faculty of Engineering, University of Tokyo

>  <COMMENT>  (4174) 
SMILES=C[Si](C)(C)CCC[SiH2]C(Cl)Cl
InChI=InChI=1S/C7H18Cl2Si2/c1-11(2,3)6-4-5-10-7(8)9/h7H,4-6,10H2,1-3H3
computed SMILES=ClC(Cl)[SiH2]CCC[Si](C)(C)C
accession=JP004676
date=2016.01.19 (Created 2008.10.21, modified 2011.05.06)
author=MASS SPECTROSCOPY SOC. OF JAPAN (MSSJ)
license=CC BY-NC-SA
exact mass=228.03241
ionization energy=70 eV
ion type=[M]+*
computed spectral entropy=2.590753784362325
computed normalized entropy=0.7693870438382991
SPLASH=splash10-00di-9330000000-81dfac245d42bb316e9b
submitter=submitter = University of Tokyo Team (Faculty of Engineering, University of Tokyo)
MoNA Rating=3.75

>  <NUM PEAKS>  (4174) 
29

>  <MASS SPECTRAL PEAKS>  (4174) 
43 1.73
45 5.82
58 1.45
59 7.16
63 2.71
65 1.33
72 5.31
73 99.99
74 8.1
75 3.54
79 1.77
85 11.25
92 5.15
93 4.6
94 2.12
95 1.69
113 10.46
114 1.29
115 7.08
117 1.29
119 14.16
120 16.68
121 6.53
122 5.74
213 29.24
214 4.8
215 21.13
216 3.42
217 4.64

>  <PREDICTED SPECTRUM>  (4174) 
36 29
42 10
43 100
44 162
45 267
47 31
53 6
55 38
57 33
58 80
59 249
63 92
64 0
65 173
66 38
67 79
71 43
72 202
73 999
74 272
75 183
77 11
78 56
79 131
80 26
81 11
85 230
86 132
87 31
91 48
92 114
93 688
94 123
95 362
96 14
97 46
98 21
99 38
100 112
101 84
102 42
103 31
105 33
107 95
108 11
109 1
113 67
115 145
119 194
120 285
121 201
122 130
123 42
127 19
145 120
147 28
149 93
161 13
177 29
185 100
186 51
193 14
213 400
214 143
215 249
216 52
217 88

$$$$

     RDKit          2D

 11 10  0  0  0  0  0  0  0  0999 V2000
    5.3603    3.9608    0.0000 C   0  0  0  0  0  0  0  0  0  0  0  0
    3.8603    1.3627    0.0000 C   0  0  0  0  0  0  0  0  0  0  0  0
   -1.3358    3.9608    0.0000 C   0  0  0  0  0  0  0  0  0  0  0  0
   -1.8849    1.9118    0.0000 C   0  0  0  0  0  0  0  0  0  0  0  0
    2.0123    2.6618    0.0000 C   0  0  0  0  0  0  0  0  0  0  0  0
    3.3113    3.4118    0.0000 C   0  0  0  0  0  0  0  0  0  0  0  0
    0.7132    3.4118    0.0000 C   0  0  0  0  0  0  0  0  0  0  0  0
    5.9094    1.9118    0.0000 Cl  0  0  0  0  0  0  0  0  0  0  0  0
    0.1642    1.3627    0.0000 Cl  0  0  0  0  0  0  0  0  0  0  0  0
    4.6103    2.6618    0.0000 Si  0  0  0  0  0  4  0  0  0  0  0  0
   -0.5858    2.6618    0.0000 Si  0  0  0  0  0  4  0  0  0  0  0  0
  6  5  1  0
  7  5  1  0
 10  1  1  0
 10  2  1  0
 10  6  1  0
 10  8  1  0
 11  3  1  0
 11  4  1  0
 11  7  1  0
 11  9  1  0
M  END
>  <NAME>  (4175) 
1,3-BIS(CHLORODIMETHYLSILYL)PROPANE

>  <SYNONYMS>  (4175) 


>  <SPECTRUM TYPE>  (4175) 
MS1

>  <INSTRUMENT TYPE>  (4175) 
EI-B

>  <INSTRUMENT>  (4175) 
JEOL JMS-D-3000

>  <ION MODE>  (4175) 
P

>  <INCHIKEY>  (4175) 
XJYPEWPGZBASNR-UHFFFAOYSA-N

>  <FORMULA>  (4175) 
C7H18Cl2Si2

>  <EXACT MASS>  (4175) 
228.032408996

>  <MW>  (4175) 
228

>  <ID>  (4175) 
JP004675

>  <CONTRIBUTOR>  (4175) 
University of Tokyo Team, {Faculty of Engineering, University of Tokyo

>  <COMMENT>  (4175) 
SMILES=C[Si](C)(Cl)CCC[Si](C)(C)Cl
InChI=InChI=1S/C7H18Cl2Si2/c1-10(2,8)6-5-7-11(3,4)9/h5-7H2,1-4H3
computed SMILES=Cl[Si](C)(C)CCC[Si](Cl)(C)C
accession=JP004675
date=2016.01.19 (Created 2008.10.21, modified 2011.05.06)
author=MASS SPECTROSCOPY SOC. OF JAPAN (MSSJ)
license=CC BY-NC-SA
exact mass=228.03241
ionization energy=70 eV
ion type=[M]+*
computed spectral entropy=2.7477312625343684
computed normalized entropy=0.8336975931292223
SPLASH=splash10-006x-9210000000-e3611a0886e052fb0da6
submitter=submitter = University of Tokyo Team (Faculty of Engineering, University of Tokyo)
MoNA Rating=3.75

>  <NUM PEAKS>  (4175) 
27

>  <MASS SPECTRAL PEAKS>  (4175) 
59 13.91
63 14.36
65 18.85
67 5.28
72 59.1
73 11.07
74 3.27
79 7.67
85 12.89
92 8.23
93 99.99
94 8.21
95 27.48
99 3.72
100 33.13
101 3.7
119 13.78
121 6.09
147 21.78
148 3.92
159 3.12
193 3.16
213 22.67
214 3.83
215 16.12
217 3.46
228 0.41

>  <PREDICTED SPECTRUM>  (4175) 
43 66
44 94
45 19
54 10
57 5
58 48
59 207
60 3
63 218
64 42
65 307
66 62
67 76
71 104
72 371
73 220
74 85
78 206
79 216
80 142
81 55
82 36
84 37
85 223
86 217
87 64
91 18
92 164
93 999
94 332
95 493
96 123
97 10
98 42
99 240
100 328
101 141
102 0
103 31
105 9
106 15
107 125
108 92
109 94
110 30
113 92
115 125
119 142
120 125
121 201
122 35
123 41
135 37
137 26
145 14
193 101
195 29
213 287
214 119
215 231
216 38
217 131
228 34
230 43

$$$$

     RDKit          2D

  8  7  0  0  0  0  0  0  0  0999 V2000
    1.8983    1.9620    0.0000 C   0  0  0  0  0  0  0  0  0  0  0  0
    0.5993    4.2120    0.0000 C   0  0  0  0  0  0  0  0  0  0  0  0
   -1.2488    4.0111    0.0000 C   0  0  0  0  0  0  0  0  0  0  0  0
   -3.2978    3.4620    0.0000 C   0  0  0  0  0  0  0  0  0  0  0  0
   -2.7488    1.4130    0.0000 C   0  0  0  0  0  0  0  0  0  0  0  0
   -0.6998    1.9620    0.0000 C   0  0  0  0  0  0  0  0  0  0  0  0
    0.5993    2.7120    0.0000 C   0  0  0  0  0  0  0  0  0  0  0  0
   -1.9988    2.7120    0.0000 Si  0  0  0  0  0  4  0  0  0  0  0  0
  7  1  2  0
  7  2  1  0
  7  6  1  0
  8  3  1  0
  8  4  1  0
  8  5  1  0
  8  6  1  0
M  END
>  <NAME>  (4176) 
(2-METHYL-2-PROPENYL)TRIMETHYLSILANE

>  <SYNONYMS>  (4176) 
2,4,4-TRIMETHYL-4-SILA-1-PENTENE

>  <SPECTRUM TYPE>  (4176) 
MS1

>  <INSTRUMENT TYPE>  (4176) 
EI-B

>  <INSTRUMENT>  (4176) 
JEOL JMS-D-3000

>  <ION MODE>  (4176) 
P

>  <INCHIKEY>  (4176) 
OWVJMAKUWHECNI-UHFFFAOYSA-N

>  <FORMULA>  (4176) 
C7H16Si

>  <EXACT MASS>  (4176) 
128.102127042

>  <MW>  (4176) 
128

>  <ID>  (4176) 
JP004674

>  <CONTRIBUTOR>  (4176) 
University of Tokyo Team, {Faculty of Engineering, University of Tokyo

>  <COMMENT>  (4176) 
SMILES=CC(=C)C[Si](C)(C)C
InChI=InChI=1S/C7H16Si/c1-7(2)6-8(3,4)5/h1,6H2,2-5H3
computed SMILES=C=C(C)C[Si](C)(C)C
accession=JP004674
date=2016.01.19 (Created 2008.10.21, modified 2011.05.06)
author=MASS SPECTROSCOPY SOC. OF JAPAN (MSSJ)
license=CC BY-NC-SA
exact mass=128.10213
ionization energy=70 eV
ion type=[M]+*
computed spectral entropy=1.3824392065649866
computed normalized entropy=0.6003857189778834
SPLASH=splash10-00di-9100000000-900702a6c9e55beb11d1
submitter=submitter = University of Tokyo Team (Faculty of Engineering, University of Tokyo)
MoNA Rating=3.75

>  <NUM PEAKS>  (4176) 
10

>  <MASS SPECTRAL PEAKS>  (4176) 
45 5.33
59 9.73
73 99.99
74 7.14
75 3.35
85 6.16
113 11.46
114 1.36
128 10.77
129 1.37

>  <PREDICTED SPECTRUM>  (4176) 
27 4
29 0
31 2
39 55
43 148
44 60
45 235
46 24
53 60
55 23
57 40
58 81
59 324
60 69
72 104
73 999
74 227
75 229
85 229
86 16
113 269
114 12
128 275
129 94
130 25

$$$$

     RDKit          2D

  9  8  0  0  0  0  0  0  0  0999 V2000
    1.9486    3.3750    0.0000 C   0  0  0  0  0  0  0  0  0  0  0  0
   -1.9486    5.6250    0.0000 C   0  0  0  0  0  0  0  0  0  0  0  0
    0.6495    4.1250    0.0000 C   0  0  0  0  0  0  0  0  0  0  0  0
   -0.6495    3.3750    0.0000 C   0  0  0  0  0  0  0  0  0  0  0  0
   -3.2476    3.3750    0.0000 C   0  0  0  0  0  0  0  0  0  0  0  0
   -1.9486    4.1250    0.0000 C   0  0  0  0  0  0  0  0  0  0  0  0
   -4.5466    4.1250    0.0000 C   0  0  0  0  0  0  0  0  0  0  0  0
   -5.8457    3.3750    0.0000 Cl  0  0  0  0  0  0  0  0  0  0  0  0
   -4.5466    5.6250    0.0000 Cl  0  0  0  0  0  0  0  0  0  0  0  0
  3  1  1  0
  4  3  1  0
  6  2  1  0
  6  4  1  0
  6  5  1  0
  7  5  2  0
  8  7  1  0
  9  7  1  0
M  END
>  <NAME>  (4177) 
1,1-DICHLORO-3-METHYL-1-HEXENE

>  <SYNONYMS>  (4177) 


>  <SPECTRUM TYPE>  (4177) 
MS1

>  <INSTRUMENT TYPE>  (4177) 
EI-B

>  <INSTRUMENT>  (4177) 
JEOL JMS-D-3000

>  <ION MODE>  (4177) 
P

>  <INCHIKEY>  (4177) 
ZKIPLTGOCRHGCH-UHFFFAOYSA-N

>  <FORMULA>  (4177) 
C7H12Cl2

>  <EXACT MASS>  (4177) 
166.031605744

>  <MW>  (4177) 
166

>  <ID>  (4177) 
JP004673

>  <CONTRIBUTOR>  (4177) 
University of Tokyo Team, {Faculty of Engineering, University of Tokyo

>  <COMMENT>  (4177) 
SMILES=CCCC(C)C=C(Cl)Cl
InChI=InChI=1S/C7H12Cl2/c1-3-4-6(2)5-7(8)9/h5-6H,3-4H2,1-2H3
computed SMILES=ClC(Cl)=CC(C)CCC
accession=JP004673
date=2016.01.19 (Created 2008.10.21, modified 2011.05.06)
author=MASS SPECTROSCOPY SOC. OF JAPAN (MSSJ)
license=CC BY-NC-SA
exact mass=166.03161
ionization energy=70 eV
ion type=[M]+*
computed spectral entropy=2.7404836478158137
computed normalized entropy=0.8411302783188876
SPLASH=splash10-00di-9600000000-2381328771d14c197ee6
submitter=submitter = University of Tokyo Team (Faculty of Engineering, University of Tokyo)
MoNA Rating=3.75

>  <NUM PEAKS>  (4177) 
26

>  <MASS SPECTRAL PEAKS>  (4177) 
41 19.22
42 12.33
43 23.77
51 10.01
53 4.94
55 21.31
56 3.85
65 3.78
70 99.99
71 6.08
75 4.03
87 26.11
89 15.89
91 2.74
95 2.78
109 15.83
110 11.54
111 10.42
112 7.58
123 67.24
124 6.53
125 44.38
126 3.57
127 7.53
166 12.5
168 7.99

>  <PREDICTED SPECTRUM>  (4177) 
26 0
27 190
29 48
35 4
38 24
39 371
40 99
41 762
42 358
43 775
45 49
47 24
49 90
50 46
51 171
52 5
53 292
54 71
55 961
56 341
57 55
59 245
60 155
61 318
62 73
63 260
65 205
66 11
67 162
68 10
69 46
70 826
71 374
75 334
77 249
81 113
83 27
87 450
88 400
89 626
90 145
91 118
93 12
95 243
98 33
99 74
105 143
107 3
109 566
110 486
111 161
122 53
123 999
124 309
125 926
126 285
127 344
166 356
167 40
168 276
169 3
170 91

$$$$

     RDKit          2D

  9  8  0  0  0  0  0  0  0  0999 V2000
   -7.4695    3.9375    0.0000 C   0  0  0  0  0  0  0  0  0  0  0  0
   -6.1704    3.1875    0.0000 C   0  0  0  0  0  0  0  0  0  0  0  0
   -4.8714    3.9375    0.0000 C   0  0  0  0  0  0  0  0  0  0  0  0
   -3.5724    3.1875    0.0000 C   0  0  0  0  0  0  0  0  0  0  0  0
   -2.2733    3.9375    0.0000 C   0  0  0  0  0  0  0  0  0  0  0  0
   -0.9743    3.1875    0.0000 C   0  0  0  0  0  0  0  0  0  0  0  0
    0.3248    3.9375    0.0000 C   0  0  0  0  0  0  0  0  0  0  0  0
    1.6238    3.1875    0.0000 Cl  0  0  0  0  0  0  0  0  0  0  0  0
    0.3248    5.4375    0.0000 Cl  0  0  0  0  0  0  0  0  0  0  0  0
  2  1  1  0
  3  2  1  0
  4  3  1  0
  5  4  1  0
  6  5  1  0
  7  6  2  0
  8  7  1  0
  9  7  1  0
M  END
>  <NAME>  (4178) 
1,1-DICHLORO-1-HEPTENE

>  <SYNONYMS>  (4178) 


>  <SPECTRUM TYPE>  (4178) 
MS1

>  <INSTRUMENT TYPE>  (4178) 
EI-B

>  <INSTRUMENT>  (4178) 
JEOL JMS-D-3000

>  <ION MODE>  (4178) 
P

>  <INCHIKEY>  (4178) 
SHIGTIVKNFPBPY-UHFFFAOYSA-N

>  <FORMULA>  (4178) 
C7H12Cl2

>  <EXACT MASS>  (4178) 
166.031605744

>  <MW>  (4178) 
166

>  <ID>  (4178) 
JP004672

>  <CONTRIBUTOR>  (4178) 
University of Tokyo Team, {Faculty of Engineering, University of Tokyo

>  <COMMENT>  (4178) 
SMILES=CCCCCC=C(Cl)Cl
InChI=InChI=1S/C7H12Cl2/c1-2-3-4-5-6-7(8)9/h6H,2-5H2,1H3
computed SMILES=ClC(Cl)=CCCCCC
accession=JP004672
date=2016.01.19 (Created 2008.10.21, modified 2011.05.06)
author=MASS SPECTROSCOPY SOC. OF JAPAN (MSSJ)
license=CC BY-NC-SA
exact mass=166.03161
ionization energy=70 eV
ion type=[M]+*
computed spectral entropy=2.7606852896521428
computed normalized entropy=0.7535522959109087
SPLASH=splash10-0abc-9100000000-8b58749e55025eb101c6
submitter=submitter = University of Tokyo Team (Faculty of Engineering, University of Tokyo)
MoNA Rating=3.75

>  <NUM PEAKS>  (4178) 
39

>  <MASS SPECTRAL PEAKS>  (4178) 
42 88.63
43 9.23
49 4
50 1.78
51 7.36
53 4.32
54 1.95
55 67.58
56 10.64
57 62.45
58 2.86
61 1.96
63 1.67
65 3.4
67 2.39
68 14.2
69 14.19
70 99.99
71 5.8
73 4.34
75 5.58
77 1.84
83 11.44
85 3.52
87 4.71
88 3.65
89 3.13
90 1.63
95 11.59
96 2.34
98 1.47
104 2.07
109 15.96
110 1.97
111 10.2
113 1.72
166 13.88
168 8.62
170 1.48

>  <PREDICTED SPECTRUM>  (4178) 
27 208
28 12
29 119
30 59
36 61
38 55
39 429
40 101
41 999
42 653
43 947
44 165
47 8
49 137
50 134
51 250
52 122
53 319
54 361
55 960
56 883
57 905
58 139
59 4
60 170
61 148
62 123
63 318
64 47
65 269
66 98
67 376
68 357
69 602
70 759
71 312
72 67
73 155
74 141
75 355
76 149
77 234
78 55
79 90
81 245
82 316
83 454
84 95
85 96
86 25
87 79
88 134
89 325
90 285
91 15
93 60
94 18
95 278
96 359
97 134
98 288
99 11
101 69
102 82
108 27
109 666
110 222
111 317
112 62
130 14
137 32
166 365
167 39
168 263
169 24
170 49

$$$$

     RDKit          2D

  7  8  0  0  0  0  0  0  0  0999 V2000
    1.6700   -0.7500    0.0000 C   0  0  0  0  0  0  0  0  0  0  0  0
    1.6700    0.7500    0.0000 C   0  0  0  0  0  0  0  0  0  0  0  0
    0.3700   -1.5000    0.0000 C   0  0  0  0  0  0  0  0  0  0  0  0
    0.3700    1.5000    0.0000 C   0  0  0  0  0  0  0  0  0  0  0  0
   -2.2300    0.0000    0.0000 C   0  0  0  0  0  0  0  0  0  0  0  0
   -0.9300   -0.7500    0.0000 C   0  0  0  0  0  0  0  0  0  0  0  0
   -0.9300    0.7500    0.0000 C   0  0  0  0  0  0  0  0  0  0  0  0
  2  1  1  0
  3  1  1  0
  4  2  1  0
  6  3  1  0
  6  5  1  0
  7  4  1  0
  7  5  1  0
  7  6  1  0
M  END
>  <NAME>  (4179) 
NORCARANE

>  <SYNONYMS>  (4179) 
BICYCLO(4.1.0)HEPTANE

>  <SPECTRUM TYPE>  (4179) 
MS1

>  <INSTRUMENT TYPE>  (4179) 
EI-B

>  <INSTRUMENT>  (4179) 
JEOL JMS-D-3000

>  <ION MODE>  (4179) 
P

>  <INCHIKEY>  (4179) 
WPHGSKGZRAQSGP-UHFFFAOYSA-N

>  <FORMULA>  (4179) 
C7H12

>  <EXACT MASS>  (4179) 
96.093900384

>  <MW>  (4179) 
96

>  <ID>  (4179) 
JP004671

>  <CONTRIBUTOR>  (4179) 
University of Tokyo Team, {Faculty of Engineering, University of Tokyo

>  <COMMENT>  (4179) 
SMILES=C(C2)CC(C1)C(C2)1
cas=286-08-8
InChI=InChI=1S/C7H12/c1-2-4-7-5-6(7)3-1/h6-7H,1-5H2
computed SMILES=C1CCC2CC2C1
accession=JP004671
date=2016.01.19 (Created 2008.10.21, modified 2011.05.06)
author=MASS SPECTROSCOPY SOC. OF JAPAN (MSSJ)
license=CC BY-NC-SA
exact mass=96.0939
ionization energy=70 eV
ion type=[M]+*
computed spectral entropy=2.335611166365067
computed normalized entropy=0.793227906195655
SPLASH=splash10-0gc0-9000000000-e330b8a0a61cadd07dd2
submitter=submitter = University of Tokyo Team (Faculty of Engineering, University of Tokyo)
MoNA Rating=3.75

>  <NUM PEAKS>  (4179) 
19

>  <MASS SPECTRAL PEAKS>  (4179) 
41 26.38
42 2.66
51 3.41
53 20.04
54 73.63
55 51.88
56 3.17
65 4.5
66 10.59
67 99.99
68 56.9
73 2.87
77 3.56
79 6.21
81 95.77
82 5.45
95 7.88
96 54.77
97 4.68

>  <PREDICTED SPECTRUM>  (4179) 
27 32
38 40
39 369
40 189
41 487
42 220
43 9
50 71
51 196
52 146
53 373
54 595
55 561
56 139
57 80
63 37
65 182
66 225
67 999
68 768
69 239
70 97
77 277
78 115
79 250
81 935
82 255
91 39
95 118
96 647
97 179

$$$$

     RDKit          2D

 11 10  0  0  0  0  0  0  0  0999 V2000
    5.3603    3.9608    0.0000 C   0  0  0  0  0  0  0  0  0  0  0  0
    3.8603    1.3627    0.0000 C   0  0  0  0  0  0  0  0  0  0  0  0
    5.9094    1.9118    0.0000 C   0  0  0  0  0  0  0  0  0  0  0  0
   -1.3358    3.9608    0.0000 C   0  0  0  0  0  0  0  0  0  0  0  0
   -1.8849    1.9118    0.0000 C   0  0  0  0  0  0  0  0  0  0  0  0
    0.1642    1.3627    0.0000 C   0  0  0  0  0  0  0  0  0  0  0  0
    2.0123    2.6618    0.0000 C   0  0  0  0  0  0  0  0  0  0  0  0
    3.3113    3.4118    0.0000 C   0  0  0  0  0  0  0  0  0  0  0  0
    0.7132    3.4118    0.0000 C   0  0  0  0  0  0  0  0  0  0  0  0
    4.6103    2.6618    0.0000 Si  0  0  0  0  0  4  0  0  0  0  0  0
   -0.5858    2.6618    0.0000 Si  0  0  0  0  0  4  0  0  0  0  0  0
  8  7  1  0
  9  7  1  0
 10  1  1  0
 10  2  1  0
 10  3  1  0
 10  8  1  0
 11  4  1  0
 11  5  1  0
 11  6  1  0
 11  9  1  0
M  END
>  <NAME>  (4180) 
1,3-BIS(TRIMETHYLSILYL)PROPANE

>  <SYNONYMS>  (4180) 


>  <SPECTRUM TYPE>  (4180) 
MS1

>  <INSTRUMENT TYPE>  (4180) 
EI-B

>  <INSTRUMENT>  (4180) 
JEOL JMS-D-3000

>  <ION MODE>  (4180) 
P

>  <INCHIKEY>  (4180) 
YMPSYNWHUIOPJH-UHFFFAOYSA-N

>  <FORMULA>  (4180) 
C9H24Si2

>  <EXACT MASS>  (4180) 
188.14165382800002

>  <MW>  (4180) 
188

>  <ID>  (4180) 
JP004668

>  <CONTRIBUTOR>  (4180) 
University of Tokyo Team, {Faculty of Engineering, University of Tokyo

>  <COMMENT>  (4180) 
SMILES=C[Si](C)(C)CCC[Si](C)(C)C
InChI=InChI=1S/C9H24Si2/c1-10(2,3)8-7-9-11(4,5)6/h7-9H2,1-6H3
computed SMILES=C[Si](C)(C)CCC[Si](C)(C)C
accession=JP004668
date=2016.01.19 (Created 2008.10.21, modified 2011.05.06)
author=MASS SPECTROSCOPY SOC. OF JAPAN (MSSJ)
license=CC BY-NC-SA
exact mass=188.14165
ionization energy=70 eV
ion type=[M]+*
computed spectral entropy=2.6370278004691063
computed normalized entropy=0.7913763373216413
SPLASH=splash10-00di-9300000000-859084ab896dc2bff487
submitter=submitter = University of Tokyo Team (Faculty of Engineering, University of Tokyo)
MoNA Rating=3.75

>  <NUM PEAKS>  (4180) 
28

>  <MASS SPECTRAL PEAKS>  (4180) 
42 1.94
43 20.87
44 2.23
45 9.9
49 8.54
51 3.3
58 9.41
59 8.64
72 14.75
73 99.99
74 9.7
75 3.59
84 6.69
85 4.07
86 3.68
99 27.57
100 18.34
101 4.36
114 10.58
115 2.23
117 1.65
119 1.45
159 2.03
173 26.89
174 5.72
175 2.03
188 7.28
189 1.26

>  <PREDICTED SPECTRUM>  (4180) 
31 2
43 53
44 16
45 249
46 38
47 17
55 28
57 36
58 112
59 299
60 44
61 4
66 13
69 38
71 14
72 73
73 999
74 257
75 133
83 28
85 255
86 81
87 58
99 167
100 26
102 48
103 21
114 27
115 6
117 8
131 134
145 42
147 41
148 25
171 24
173 333
174 136
175 23
188 63
189 10

$$$$

     RDKit          2D

  8  7  0  0  0  0  0  0  0  0999 V2000
    3.8236    3.0736    0.0000 C   0  0  0  0  0  0  0  0  0  0  0  0
    2.3236    0.4755    0.0000 C   0  0  0  0  0  0  0  0  0  0  0  0
    4.3726    1.0245    0.0000 C   0  0  0  0  0  0  0  0  0  0  0  0
    0.4755    1.7745    0.0000 C   0  0  0  0  0  0  0  0  0  0  0  0
   -0.8236    2.5245    0.0000 C   0  0  0  0  0  0  0  0  0  0  0  0
    1.7745    2.5245    0.0000 C   0  0  0  0  0  0  0  0  0  0  0  0
   -2.1226    1.7745    0.0000 Br  0  0  0  0  0  0  0  0  0  0  0  0
    3.0736    1.7745    0.0000 Si  0  0  0  0  0  4  0  0  0  0  0  0
  5  4  1  0
  6  4  1  0
  7  5  1  0
  8  1  1  0
  8  2  1  0
  8  3  1  0
  8  6  1  0
M  END
>  <NAME>  (4181) 
3-BROMOPROPYLTRIMETHYLSILANE

>  <SYNONYMS>  (4181) 


>  <SPECTRUM TYPE>  (4181) 
MS1

>  <INSTRUMENT TYPE>  (4181) 
EI-B

>  <INSTRUMENT>  (4181) 
JEOL JMS-D-3000

>  <ION MODE>  (4181) 
P

>  <INCHIKEY>  (4181) 
NVEYOAXSXPSFHL-UHFFFAOYSA-N

>  <FORMULA>  (4181) 
C6H15BrSi

>  <EXACT MASS>  (4181) 
194.01263911

>  <MW>  (4181) 
194

>  <ID>  (4181) 
JP004665

>  <CONTRIBUTOR>  (4181) 
University of Tokyo Team, {Faculty of Engineering, University of Tokyo

>  <COMMENT>  (4181) 
SMILES=BrCCC[Si](C)(C)C
InChI=InChI=1S/C6H15BrSi/c1-8(2,3)6-4-5-7/h4-6H2,1-3H3
computed SMILES=BrCCC[Si](C)(C)C
accession=JP004665
date=2016.01.19 (Created 2008.10.21, modified 2011.05.06)
author=MASS SPECTROSCOPY SOC. OF JAPAN (MSSJ)
license=CC BY-NC-SA
exact mass=194.01264
ionization energy=70 eV
ion type=[M]+*
computed spectral entropy=2.4050906876190528
computed normalized entropy=0.7297359624885917
SPLASH=splash10-000i-8900000000-097a2a7ed7dd60b51a6a
submitter=submitter = University of Tokyo Team (Faculty of Engineering, University of Tokyo)
MoNA Rating=3.75

>  <NUM PEAKS>  (4181) 
27

>  <MASS SPECTRAL PEAKS>  (4181) 
41 5.59
42 69.93
43 16.22
44 6.04
45 13.19
55 3.48
57 2.93
58 3.02
59 4.94
72 4.39
73 97.15
74 7.33
75 4.67
107 3.94
109 6.32
111 3.11
123 3.29
125 3.11
137 99.99
138 10.26
139 99.08
140 8.34
141 4.12
152 8.06
154 8.34
179 3.2
181 3.66

>  <PREDICTED SPECTRUM>  (4181) 
26 2
27 79
28 29
29 107
31 59
39 69
40 22
41 239
42 122
43 251
44 104
45 315
47 99
50 17
51 7
53 78
55 178
56 75
57 200
58 173
59 270
60 66
61 99
63 6
69 114
71 4
72 157
73 833
74 236
75 161
93 72
107 191
109 269
123 113
125 62
137 999
138 385
139 861
140 238
141 150
151 39
152 27
153 17
179 123
181 96
194 20
196 30

$$$$

     RDKit          2D

  9  8  0  0  0  0  0  0  0  0999 V2000
    2.0490    4.0981    0.0000 C   0  0  0  0  0  0  0  0  0  0  0  0
    2.0490    1.0981    0.0000 C   0  0  0  0  0  0  0  0  0  0  0  0
   -1.5000    2.0490    0.0000 C   0  0  0  0  0  0  0  0  0  0  0  0
   -0.9510    0.0000    0.0000 C   0  0  0  0  0  0  0  0  0  0  0  0
    0.5490    2.5981    0.0000 C   0  0  0  0  0  0  0  0  0  0  0  0
    3.5490    2.5981    0.0000 Cl  0  0  0  0  0  0  0  0  0  0  0  0
    1.0981    0.5490    0.0000 Cl  0  0  0  0  0  0  0  0  0  0  0  0
    2.0490    2.5981    0.0000 Si  0  0  0  0  0  4  0  0  0  0  0  0
   -0.2010    1.2990    0.0000 Si  0  0  0  0  0  4  0  0  0  0  0  0
  8  1  1  0
  8  2  1  0
  8  5  1  0
  8  6  1  0
  9  3  1  0
  9  4  1  0
  9  5  1  0
  9  7  1  0
M  END
>  <NAME>  (4182) 
BIS(CHLORODIMETHYLSILYL)METHANE

>  <SYNONYMS>  (4182) 


>  <SPECTRUM TYPE>  (4182) 
MS1

>  <INSTRUMENT TYPE>  (4182) 
EI-B

>  <INSTRUMENT>  (4182) 
JEOL JMS-D-3000

>  <ION MODE>  (4182) 
P

>  <INCHIKEY>  (4182) 
VTDZAHJRMRMQNP-UHFFFAOYSA-N

>  <FORMULA>  (4182) 
C5H14Cl2Si2

>  <EXACT MASS>  (4182) 
200.001108868

>  <MW>  (4182) 
200

>  <ID>  (4182) 
JP004662

>  <CONTRIBUTOR>  (4182) 
University of Tokyo Team, {Faculty of Engineering, University of Tokyo

>  <COMMENT>  (4182) 
SMILES=C[Si](C)(Cl)C[Si](C)(C)Cl
cas=5357-38-0
InChI=InChI=1S/C5H14Cl2Si2/c1-8(2,6)5-9(3,4)7/h5H2,1-4H3
computed SMILES=Cl[Si](C)(C)C[Si](Cl)(C)C
accession=JP004662
date=2016.01.19 (Created 2008.10.21, modified 2011.05.06)
author=MASS SPECTROSCOPY SOC. OF JAPAN (MSSJ)
license=CC BY-NC-SA
exact mass=200.00111
ionization energy=70 eV
ion type=[M]+*
computed spectral entropy=2.6227141983169107
computed normalized entropy=0.7788784623439057
SPLASH=splash10-000i-2900000000-4fc4ec25d1d710054c98
submitter=submitter = University of Tokyo Team (Faculty of Engineering, University of Tokyo)
MoNA Rating=3.75

>  <NUM PEAKS>  (4182) 
29

>  <MASS SPECTRAL PEAKS>  (4182) 
43 4.93
45 2.72
55 2.09
59 3.77
63 5.71
65 5.5
71 2.88
72 12.95
73 11.12
75 3.35
79 3.2
85 4.4
86 1.99
93 17.83
95 6.45
131 10.12
149 8.65
151 4.03
165 14.58
166 2.78
167 10.38
169 3.77
171 1.99
185 99.99
186 15.73
187 71.72
188 10.54
189 15.63
190 1.99

>  <PREDICTED SPECTRUM>  (4182) 
15 19
27 5
28 12
29 71
30 0
31 36
39 16
42 8
43 244
44 127
45 157
47 17
48 11
53 17
55 6
57 23
58 63
59 192
60 43
62 31
63 116
64 33
65 103
66 52
67 99
68 4
70 40
71 31
72 134
73 406
74 83
75 139
76 48
77 50
78 54
79 74
80 33
81 5
83 42
85 64
86 38
87 25
91 123
92 65
93 318
94 102
95 210
96 6
97 36
99 40
101 23
102 26
103 10
105 32
106 13
107 8
112 11
113 122
114 13
115 104
119 31
120 56
121 70
122 10
130 55
131 88
135 44
137 49
149 252
150 100
151 82
152 18
155 15
156 33
165 428
166 50
167 326
168 69
169 195
171 89
172 21
173 49
174 32
184 37
185 999
186 424
187 834
188 280
189 317
191 50
200 77
201 28
202 85

$$$$

     RDKit          2D

  7  6  0  0  0  0  0  0  0  0999 V2000
    1.6238    3.1875    0.0000 C   0  0  0  0  0  0  0  0  0  0  0  0
    0.3248    3.9375    0.0000 C   0  0  0  0  0  0  0  0  0  0  0  0
   -0.9743    3.1875    0.0000 C   0  0  0  0  0  0  0  0  0  0  0  0
   -2.2733    3.9375    0.0000 C   0  0  0  0  0  0  0  0  0  0  0  0
   -3.5724    3.1875    0.0000 C   0  0  0  0  0  0  0  0  0  0  0  0
   -4.8714    3.9375    0.0000 Cl  0  0  0  0  0  0  0  0  0  0  0  0
   -3.5724    1.6875    0.0000 Cl  0  0  0  0  0  0  0  0  0  0  0  0
  2  1  1  0
  3  2  1  0
  4  3  1  0
  5  4  2  0
  6  5  1  0
  7  5  1  0
M  END
>  <NAME>  (4183) 
1,1-DICHLORO-1-PENTENE

>  <SYNONYMS>  (4183) 


>  <SPECTRUM TYPE>  (4183) 
MS1

>  <INSTRUMENT TYPE>  (4183) 
EI-B

>  <INSTRUMENT>  (4183) 
JEOL JMS-D-3000

>  <ION MODE>  (4183) 
P

>  <INCHIKEY>  (4183) 
ZNPAFRLFBXOLET-UHFFFAOYSA-N

>  <FORMULA>  (4183) 
C5H8Cl2

>  <EXACT MASS>  (4183) 
138.000305616

>  <MW>  (4183) 
138

>  <ID>  (4183) 
JP004661

>  <CONTRIBUTOR>  (4183) 
University of Tokyo Team, {Faculty of Engineering, University of Tokyo

>  <COMMENT>  (4183) 
SMILES=CCCC=C(Cl)Cl
InChI=InChI=1S/C5H8Cl2/c1-2-3-4-5(6)7/h4H,2-3H2,1H3
computed SMILES=ClC(Cl)=CCCC
accession=JP004661
date=2016.01.19 (Created 2008.10.21, modified 2011.05.06)
author=MASS SPECTROSCOPY SOC. OF JAPAN (MSSJ)
license=CC BY-NC-SA
exact mass=138.00031
ionization energy=70 eV
ion type=[M]+*
computed spectral entropy=2.4490010028180427
computed normalized entropy=0.751666187370012
SPLASH=splash10-0006-9400000000-49202441f3646d5503c1
submitter=submitter = University of Tokyo Team (Faculty of Engineering, University of Tokyo)
MoNA Rating=3.75

>  <NUM PEAKS>  (4183) 
26

>  <MASS SPECTRAL PEAKS>  (4183) 
41 12.95
42 99.99
43 5.06
49 4.36
50 2.03
51 3.97
55 1.98
57 2.54
61 2.04
65 2.63
67 4.43
73 3.84
75 5.84
83 5.95
85 3.99
87 2.5
96 10.87
97 2.74
98 6.85
103 2.38
109 40.39
110 2.48
111 25.62
113 4.28
138 15.52
140 9.88

>  <PREDICTED SPECTRUM>  (4183) 
15 47
25 8
26 106
27 350
28 58
29 158
37 57
38 141
39 665
40 185
41 915
42 575
43 343
44 79
45 21
47 141
48 37
49 114
50 91
51 224
52 67
53 135
54 58
55 226
56 289
57 125
59 42
60 66
61 159
62 142
63 307
64 60
65 324
66 129
67 414
68 252
69 17
70 81
71 102
73 319
74 259
75 438
76 220
77 193
78 6
79 23
80 1
81 46
82 156
83 398
84 12
87 197
89 33
96 681
97 151
98 633
99 153
100 117
102 53
103 91
104 17
109 999
110 386
111 748
112 310
113 250
123 148
138 450
139 53
140 371
141 46
142 135

$$$$

     RDKit          2D

  7  6  0  0  0  0  0  0  0  0999 V2000
    1.4498    2.6115    0.0000 C   0  0  0  0  0  0  0  0  0  0  0  0
   -0.0502    0.0135    0.0000 C   0  0  0  0  0  0  0  0  0  0  0  0
    1.9988    0.5625    0.0000 C   0  0  0  0  0  0  0  0  0  0  0  0
   -0.5993    2.0625    0.0000 C   0  0  0  0  0  0  0  0  0  0  0  0
   -1.8983    1.3125    0.0000 I   0  0  0  0  0  0  0  0  0  0  0  0
   -0.5993    3.5625    0.0000 I   0  0  0  0  0  0  0  0  0  0  0  0
    0.6998    1.3125    0.0000 Si  0  0  0  0  0  4  0  0  0  0  0  0
  5  4  1  0
  6  4  1  0
  7  1  1  0
  7  2  1  0
  7  3  1  0
  7  4  1  0
M  END
>  <NAME>  (4184) 
(DIIODOMETHYL)TRIMETHYLSILANE

>  <SYNONYMS>  (4184) 


>  <SPECTRUM TYPE>  (4184) 
MS1

>  <INSTRUMENT TYPE>  (4184) 
EI-B

>  <INSTRUMENT>  (4184) 
JEOL JMS-D-3000

>  <ION MODE>  (4184) 
P

>  <INCHIKEY>  (4184) 
RXBPBTHLRBDCFU-UHFFFAOYSA-N

>  <FORMULA>  (4184) 
C4H10I2Si

>  <EXACT MASS>  (4184) 
339.86412285

>  <MW>  (4184) 
340

>  <ID>  (4184) 
JP004660

>  <CONTRIBUTOR>  (4184) 
University of Tokyo Team, {Faculty of Engineering, University of Tokyo

>  <COMMENT>  (4184) 
SMILES=C[Si](C)(C)C(I)I
InChI=InChI=1S/C4H10I2Si/c1-7(2,3)4(5)6/h4H,1-3H3
computed SMILES=IC(I)[Si](C)(C)C
accession=JP004660
date=2016.01.19 (Created 2008.10.21, modified 2011.05.06)
author=MASS SPECTROSCOPY SOC. OF JAPAN (MSSJ)
license=CC BY-NC-SA
exact mass=339.86411
ionization energy=70 eV
ion type=[M]+*
computed spectral entropy=2.5635620037161284
computed normalized entropy=0.842024342455844
SPLASH=splash10-000g-6968000000-ad1c209704066aa31e93
submitter=submitter = University of Tokyo Team (Faculty of Engineering, University of Tokyo)
MoNA Rating=3.75

>  <NUM PEAKS>  (4184) 
21

>  <MASS SPECTRAL PEAKS>  (4184) 
42 13.34
53 11.65
55 13.15
59 13.53
73 49.43
75 8.45
155 9.21
157 13.15
171 6.76
185 80.45
186 18.79
187 9.21
198 9.58
283 6.39
297 75.75
298 10.33
299 6.01
325 12.03
340 99.99
341 18.98
342 7.7

>  <PREDICTED SPECTRUM>  (4184) 
14 2
27 46
29 51
32 14
39 65
41 44
43 143
44 4
45 137
47 38
53 98
55 177
56 8
57 78
58 34
59 173
60 24
61 36
67 36
68 19
69 11
71 129
72 39
73 603
74 141
75 179
81 49
83 48
84 26
85 123
86 58
93 5
111 23
113 51
114 1
123 26
125 48
129 21
139 49
141 86
142 104
143 130
144 17
155 150
156 147
157 435
158 143
159 5
169 59
170 52
171 273
183 63
184 15
185 869
186 391
187 105
197 10
198 216
199 14
213 176
283 194
297 816
298 308
299 239
325 322
326 96
340 999
341 348
342 249

$$$$

     RDKit          2D

  7  6  0  0  0  0  0  0  0  0999 V2000
    1.4498    2.6115    0.0000 C   0  0  0  0  0  0  0  0  0  0  0  0
   -0.0502    0.0135    0.0000 C   0  0  0  0  0  0  0  0  0  0  0  0
    1.9988    0.5625    0.0000 C   0  0  0  0  0  0  0  0  0  0  0  0
   -0.5993    2.0625    0.0000 C   0  0  0  0  0  0  0  0  0  0  0  0
   -1.8983    1.3125    0.0000 Cl  0  0  0  0  0  0  0  0  0  0  0  0
   -0.5993    3.5625    0.0000 I   0  0  0  0  0  0  0  0  0  0  0  0
    0.6998    1.3125    0.0000 Si  0  0  0  0  0  4  0  0  0  0  0  0
  5  4  1  0
  6  4  1  0
  7  1  1  0
  7  2  1  0
  7  3  1  0
  7  4  1  0
M  END
>  <NAME>  (4185) 
(CHLOROIODOMETHYL)TRIMETHYLSILANE

>  <SYNONYMS>  (4185) 


>  <SPECTRUM TYPE>  (4185) 
MS1

>  <INSTRUMENT TYPE>  (4185) 
EI-B

>  <INSTRUMENT>  (4185) 
JEOL JMS-D-3000

>  <ION MODE>  (4185) 
P

>  <INCHIKEY>  (4185) 
CSULUJJLSAGOBX-UHFFFAOYSA-N

>  <FORMULA>  (4185) 
C4H10ClISi

>  <EXACT MASS>  (4185) 
247.92850253

>  <MW>  (4185) 
248

>  <ID>  (4185) 
JP004659

>  <CONTRIBUTOR>  (4185) 
University of Tokyo Team, {Faculty of Engineering, University of Tokyo

>  <COMMENT>  (4185) 
SMILES=C[Si](C)(C)C(Cl)I
InChI=InChI=1S/C4H10ClISi/c1-7(2,3)4(5)6/h4H,1-3H3
computed SMILES=ClC(I)[Si](C)(C)C
accession=JP004659
date=2016.01.19 (Created 2008.10.21, modified 2011.05.06)
author=MASS SPECTROSCOPY SOC. OF JAPAN (MSSJ)
license=CC BY-NC-SA
exact mass=247.9285
ionization energy=70 eV
ion type=[M]+*
computed spectral entropy=2.649836588682092
computed normalized entropy=0.8133081870837494
SPLASH=splash10-05fu-9020000000-8890edb8a816d1b58bf6
submitter=submitter = University of Tokyo Team (Faculty of Engineering, University of Tokyo)
MoNA Rating=3.75

>  <NUM PEAKS>  (4185) 
26

>  <MASS SPECTRAL PEAKS>  (4185) 
41 4.13
42 2.95
43 17.25
44 34.69
45 14.06
57 2.83
58 4.66
59 14.24
63 6.2
65 4.9
73 99.99
74 16.43
75 4.49
78 4.13
79 4.66
93 23.46
95 9.51
127 2.3
155 3.01
185 2.77
205 35.75
206 2.48
207 14
248 21.33
249 2.24
250 7.09

>  <PREDICTED SPECTRUM>  (4185) 
39 63
42 66
43 243
44 234
45 295
47 58
50 50
51 94
53 78
57 15
58 133
59 285
60 33
61 28
63 211
64 42
65 244
66 42
67 153
68 21
70 3
71 43
72 116
73 921
74 302
75 138
76 96
77 78
78 93
79 209
80 29
91 158
92 166
93 972
94 147
95 619
96 51
97 11
105 140
106 104
107 97
111 11
116 34
120 37
121 13
129 2
141 56
142 60
155 105
169 72
170 34
177 24
179 12
181 20
197 4
205 999
206 314
207 456
208 22
233 144
235 62
248 557
249 152
250 302
251 39

$$$$

     RDKit          2D

  6  5  0  0  0  0  0  0  0  0999 V2000
    0.8002    0.0135    0.0000 C   0  0  0  0  0  0  0  0  0  0  0  0
    1.3493    2.0625    0.0000 C   0  0  0  0  0  0  0  0  0  0  0  0
    1.3493    3.5625    0.0000 Cl  0  0  0  0  0  0  0  0  0  0  0  0
   -0.6998    2.6115    0.0000 Cl  0  0  0  0  0  0  0  0  0  0  0  0
   -1.2488    0.5625    0.0000 Cl  0  0  0  0  0  0  0  0  0  0  0  0
    0.0502    1.3125    0.0000 Si  0  0  0  0  0  4  0  0  0  0  0  0
  3  2  1  0
  6  1  1  0
  6  2  1  0
  6  4  1  0
  6  5  1  0
M  END
>  <NAME>  (4186) 
DICHLORO(CHLOROMETHYL)METHYLSILANE

>  <SYNONYMS>  (4186) 


>  <SPECTRUM TYPE>  (4186) 
MS1

>  <INSTRUMENT TYPE>  (4186) 
EI-B

>  <INSTRUMENT>  (4186) 
JEOL JMS-D-3000

>  <ION MODE>  (4186) 
P

>  <INCHIKEY>  (4186) 
JAYBZWYBCUJLNQ-UHFFFAOYSA-N

>  <FORMULA>  (4186) 
C2H5Cl3Si

>  <EXACT MASS>  (4186) 
161.92260972999998

>  <MW>  (4186) 
162

>  <ID>  (4186) 
JP004658

>  <CONTRIBUTOR>  (4186) 
University of Tokyo Team, {Faculty of Engineering, University of Tokyo

>  <COMMENT>  (4186) 
SMILES=ClC[Si](C)(Cl)Cl
cas=1558-33-4
InChI=InChI=1S/C2H5Cl3Si/c1-6(4,5)2-3/h2H2,1H3
computed SMILES=ClC[Si](Cl)(Cl)C
accession=JP004658
date=2016.01.19 (Created 2008.10.21, modified 2011.05.06)
author=MASS SPECTROSCOPY SOC. OF JAPAN (MSSJ)
license=CC BY-NC-SA
exact mass=161.92261
ionization energy=70 eV
ion type=[M]+*
computed spectral entropy=2.6858563815732195
computed normalized entropy=0.7280954596057296
SPLASH=splash10-03xr-2900000000-e817da5b36dbc1c86294
submitter=submitter = University of Tokyo Team (Faculty of Engineering, University of Tokyo)
MoNA Rating=3.75

>  <NUM PEAKS>  (4186) 
40

>  <MASS SPECTRAL PEAKS>  (4186) 
43 1.27
44 3.82
49 3.48
51 1.14
59 1.4
63 19.83
64 1.95
65 7.09
77 1.82
78 1.14
79 7.26
80 1.14
81 2.63
95 2.42
98 3.82
99 5.9
100 3.05
101 4.33
109 19.49
110 1.48
111 7.3
112 2.2
113 99.99
114 6.92
115 68.78
116 4.11
117 12.35
123 2.46
127 3.09
129 2.29
133 1.91
135 1.78
143 1.57
145 1.27
147 7.77
149 7.81
151 3.09
162 4.24
164 4.5
166 1.78

>  <PREDICTED SPECTRUM>  (4186) 
14 13
15 26
26 120
27 161
28 46
29 41
31 47
33 1
35 39
36 56
37 17
38 54
39 8
42 93
45 39
47 128
48 74
49 306
50 173
51 327
52 122
53 123
54 50
55 130
56 31
57 23
59 26
61 118
62 70
63 762
64 189
65 458
66 101
67 24
69 60
74 13
76 88
78 453
79 491
80 166
81 259
83 91
84 128
85 294
86 219
87 172
88 72
89 8
96 121
97 116
98 392
99 403
100 360
101 328
102 20
103 6
104 0
106 147
111 55
112 203
113 999
114 194
115 619
116 216
117 344
118 65
119 190
120 13
121 10
135 290
136 22
147 202
148 45
149 155
151 33
161 14
162 133
163 77
164 146

$$$$

     RDKit          2D

  8  8  0  0  0  0  0  0  0  0999 V2000
   -1.3000    0.7500    0.0000 C   0  0  0  0  0  0  0  0  0  0  0  0
    0.0000    1.5000    0.0000 C   0  0  0  0  0  0  0  0  0  0  0  0
   -1.3000   -0.7500    0.0000 C   0  0  0  0  0  0  0  0  0  0  0  0
    1.3000   -0.7500    0.0000 C   0  0  0  0  0  0  0  0  0  0  0  0
    1.3000    0.7500    0.0000 C   0  0  0  0  0  0  0  0  0  0  0  0
   -0.0000   -1.5000    0.0000 C   0  0  0  0  0  0  0  0  0  0  0  0
    2.5989    1.5002    0.0000 Cl  0  0  0  0  0  0  0  0  0  0  0  0
   -0.0000   -3.0000    0.0000 Cl  0  0  0  0  0  0  0  0  0  0  0  0
  2  1  2  0
  3  1  1  0
  5  2  1  0
  5  4  2  0
  6  3  2  0
  6  4  1  0
  7  5  1  0
  8  6  1  0
M  END
>  <NAME>  (4187) 
1,3-DICHLOROBENZENE

>  <SYNONYMS>  (4187) 


>  <SPECTRUM TYPE>  (4187) 
MS1

>  <INSTRUMENT TYPE>  (4187) 
EI-B

>  <INSTRUMENT>  (4187) 
JEOL JMS-D-3000

>  <ION MODE>  (4187) 
P

>  <INCHIKEY>  (4187) 
ZPQOPVIELGIULI-UHFFFAOYSA-N

>  <FORMULA>  (4187) 
C6H4Cl2

>  <EXACT MASS>  (4187) 
145.969005488

>  <MW>  (4187) 
146

>  <ID>  (4187) 
JP004655

>  <CONTRIBUTOR>  (4187) 
University of Tokyo Team, {Faculty of Engineering, University of Tokyo

>  <COMMENT>  (4187) 
SMILES=Clc(c1)cc(Cl)cc1
InChI=InChI=1S/C6H4Cl2/c7-5-2-1-3-6(8)4-5/h1-4H
computed SMILES=ClC1=CC=CC(Cl)=C1
accession=JP004655
date=2016.01.19 (Created 2008.10.21, modified 2011.05.06)
author=MASS SPECTROSCOPY SOC. OF JAPAN (MSSJ)
license=CC BY-NC-SA
exact mass=145.96901
ionization energy=70 eV
ion type=[M]+*
computed spectral entropy=2.269084322060181
computed normalized entropy=0.7236767685721203
SPLASH=splash10-0002-2900000000-2281bf748000d702c707
submitter=submitter = University of Tokyo Team (Faculty of Engineering, University of Tokyo)
MoNA Rating=3.75

>  <NUM PEAKS>  (4187) 
23

>  <MASS SPECTRAL PEAKS>  (4187) 
49 1.96
50 10.32
51 3.74
55 5.11
56 1.63
61 1.41
73 7.86
74 10.73
75 20.45
76 2.67
84 2.28
85 2.62
86 1.35
109 1.52
110 2.29
111 34.44
112 3.02
113 11.16
146 99.99
147 6.99
148 64.12
149 4.33
150 10.7

>  <PREDICTED SPECTRUM>  (4187) 
25 34
26 46
31 50
35 115
36 91
37 151
38 107
39 44
40 4
43 63
47 62
48 75
49 217
50 408
51 232
52 56
60 51
61 159
62 95
63 130
68 19
72 149
73 239
74 482
75 646
76 429
77 190
78 2
84 158
85 174
86 115
87 23
92 21
96 43
109 142
110 221
111 487
112 183
113 368
114 124
115 102
119 5
146 999
147 336
148 909
149 287
150 403
151 114

$$$$

     RDKit          2D

  8  8  0  0  0  0  0  0  0  0999 V2000
   -1.3000    0.7500    0.0000 C   0  0  0  0  0  0  0  0  0  0  0  0
    0.0000    1.5000    0.0000 C   0  0  0  0  0  0  0  0  0  0  0  0
   -0.0000   -1.5000    0.0000 C   0  0  0  0  0  0  0  0  0  0  0  0
    1.3000   -0.7500    0.0000 C   0  0  0  0  0  0  0  0  0  0  0  0
   -1.3000   -0.7500    0.0000 C   0  0  0  0  0  0  0  0  0  0  0  0
    1.3000    0.7500    0.0000 C   0  0  0  0  0  0  0  0  0  0  0  0
   -2.5989   -1.5002    0.0000 Cl  0  0  0  0  0  0  0  0  0  0  0  0
    2.5989    1.5002    0.0000 Cl  0  0  0  0  0  0  0  0  0  0  0  0
  2  1  2  0
  4  3  1  0
  5  1  1  0
  5  3  2  0
  6  2  1  0
  6  4  2  0
  7  5  1  0
  8  6  1  0
M  END
>  <NAME>  (4188) 
1,4-DICHLOROBENZENE

>  <SYNONYMS>  (4188) 


>  <SPECTRUM TYPE>  (4188) 
MS1

>  <INSTRUMENT TYPE>  (4188) 
EI-B

>  <INSTRUMENT>  (4188) 
JEOL JMS-D-3000

>  <ION MODE>  (4188) 
P

>  <INCHIKEY>  (4188) 
OCJBOOLMMGQPQU-UHFFFAOYSA-N

>  <FORMULA>  (4188) 
C6H4Cl2

>  <EXACT MASS>  (4188) 
145.969005488

>  <MW>  (4188) 
146

>  <ID>  (4188) 
JP004654

>  <CONTRIBUTOR>  (4188) 
University of Tokyo Team, {Faculty of Engineering, University of Tokyo

>  <COMMENT>  (4188) 
SMILES=Clc(c1)ccc(Cl)c1
cas=106-46-7
InChI=InChI=1S/C6H4Cl2/c7-5-1-2-6(8)4-3-5/h1-4H
computed SMILES=ClC1=CC=C(Cl)C=C1
accession=JP004654
date=2016.01.19 (Created 2008.10.21, modified 2011.05.06)
author=MASS SPECTROSCOPY SOC. OF JAPAN (MSSJ)
license=CC BY-NC-SA
exact mass=145.96901
ionization energy=70 eV
ion type=[M]+*
computed spectral entropy=2.2201850154638807
computed normalized entropy=0.7080813621612653
SPLASH=splash10-0002-2900000000-324c6fc09e913a17becf
submitter=submitter = University of Tokyo Team (Faculty of Engineering, University of Tokyo)
MoNA Rating=3.75

>  <NUM PEAKS>  (4188) 
23

>  <MASS SPECTRAL PEAKS>  (4188) 
49 1.68
50 9.63
51 3.07
55 4.31
56 1.34
61 1.24
73 7.57
74 10.89
75 18.65
76 2.32
84 1.77
85 2.28
86 1.17
109 1.23
110 2.14
111 31.13
112 2.67
113 10.2
146 99.99
147 6.95
148 64.47
149 4.33
150 10.34

>  <PREDICTED SPECTRUM>  (4188) 
25 17
26 15
35 155
36 94
37 162
38 131
39 88
40 22
43 175
47 54
48 48
49 205
50 530
51 268
61 144
72 157
73 377
74 513
75 999
76 463
77 123
84 104
85 259
86 139
101 76
102 51
110 64
111 946
112 302
113 510
114 130
115 34
144 33
146 993
147 317
148 935
149 259
150 464
151 99

$$$$

     RDKit          2D

 24 26  0  0  0  0  0  0  0  0999 V2000
    3.7979    1.2902    0.0000 C   0  0  0  0  0  0  0  0  0  0  0  0
   -0.2352   -1.8338    0.0000 C   0  0  0  0  0  0  0  0  0  0  0  0
    1.6740   -1.2135    0.0000 C   0  0  0  0  0  0  0  0  0  0  0  0
    1.6740    2.7135    0.0000 C   0  0  0  0  0  0  0  0  0  0  0  0
   -0.2352    3.3338    0.0000 C   0  0  0  0  0  0  0  0  0  0  0  0
    2.3713   -0.2537    0.0000 C   0  0  0  0  0  0  0  0  0  0  0  0
    2.3713    1.7537    0.0000 C   0  0  0  0  0  0  0  0  0  0  0  0
   -4.6922   -2.6450    0.0000 C   0  0  0  0  0  0  0  0  0  0  0  0
   -4.6922    4.1450    0.0000 C   0  0  0  0  0  0  0  0  0  0  0  0
   -3.3213   -3.2559    0.0000 C   0  0  0  0  0  0  0  0  0  0  0  0
   -4.8496   -1.1525    0.0000 C   0  0  0  0  0  0  0  0  0  0  0  0
   -4.8496    2.6525    0.0000 C   0  0  0  0  0  0  0  0  0  0  0  0
   -3.3213    4.7559    0.0000 C   0  0  0  0  0  0  0  0  0  0  0  0
   -2.1078   -2.3742    0.0000 C   0  0  0  0  0  0  0  0  0  0  0  0
   -3.6360   -0.2708    0.0000 C   0  0  0  0  0  0  0  0  0  0  0  0
   -3.6360    1.7708    0.0000 C   0  0  0  0  0  0  0  0  0  0  0  0
   -2.1078    3.8742    0.0000 C   0  0  0  0  0  0  0  0  0  0  0  0
   -2.2652   -0.8817    0.0000 C   0  0  0  0  0  0  0  0  0  0  0  0
   -2.2652    2.3817    0.0000 C   0  0  0  0  0  0  0  0  0  0  0  0
   -1.0516    0.0000    0.0000 C   0  0  0  0  0  0  0  0  0  0  0  0
   -1.0516    1.5000    0.0000 C   0  0  0  0  0  0  0  0  0  0  0  0
    0.3750   -0.4635    0.0000 Si  0  0  0  0  0  4  0  0  0  0  0  0
    0.3750    1.9635    0.0000 Si  0  0  0  0  0  4  0  0  0  0  0  0
    1.2566    0.7500    0.0000 Si  0  0  0  0  0  4  0  0  0  0  0  0
  7  1  1  0
 10  8  2  0
 11  8  1  0
 12  9  2  0
 13  9  1  0
 14 10  1  0
 15 11  2  0
 16 12  1  0
 17 13  2  0
 18 14  2  0
 18 15  1  0
 19 16  2  0
 19 17  1  0
 20 18  1  0
 21 19  1  0
 21 20  2  0
 22  2  1  0
 22  3  1  0
 22 20  1  0
 23  4  1  0
 23  5  1  0
 23 21  1  0
 24  6  1  0
 24  7  1  0
 24 22  1  0
 24 23  1  0
M  END
>  <NAME>  (4189) 
2-ETHYL-1,1,2,3,3-PENTAMETHYL-4,5-DIPHENYL-1,2,3-TRISILACYCLOPENT-4-ENE

>  <SYNONYMS>  (4189) 


>  <SPECTRUM TYPE>  (4189) 
MS1

>  <INSTRUMENT TYPE>  (4189) 
EI-B

>  <INSTRUMENT>  (4189) 
JEOL JMS-D-3000

>  <ION MODE>  (4189) 
P

>  <INCHIKEY>  (4189) 
WNWHEIYCWOFGOD-UHFFFAOYSA-N

>  <FORMULA>  (4189) 
C21H30Si3

>  <EXACT MASS>  (4189) 
366.16553054999997

>  <MW>  (4189) 
366

>  <ID>  (4189) 
JP004653

>  <CONTRIBUTOR>  (4189) 
University of Tokyo Team, {Faculty of Engineering, University of Tokyo

>  <COMMENT>  (4189) 
SMILES=c(c3)ccc(c3)C(=C(c(c2)cccc2)1)[Si](C)(C)[Si](C)(CC)[Si](C)(C)1
InChI=InChI=1S/C21H30Si3/c1-7-24(6)22(2,3)20(18-14-10-8-11-15-18)21(23(24,4)5)19-16-12-9-13-17-19/h8-17H,7H2,1-6H3
computed SMILES=C=1C=CC(=CC1)C2=C(C=3C=CC=CC3)[Si](C)(C)[Si](C)(CC)[Si]2(C)C
accession=JP004653
date=2016.01.19 (Created 2008.10.21, modified 2011.05.06)
author=MASS SPECTROSCOPY SOC. OF JAPAN (MSSJ)
license=CC BY-NC-SA
exact mass=366.16553
ionization energy=70 eV
ion type=[M]+*
computed spectral entropy=4.547426664254491
computed normalized entropy=0.8658015860278093
SPLASH=splash10-01b9-4944000000-10cdad965296f7719640
submitter=submitter = University of Tokyo Team (Faculty of Engineering, University of Tokyo)
MoNA Rating=3.75

>  <NUM PEAKS>  (4189) 
191

>  <MASS SPECTRAL PEAKS>  (4189) 
43 14.11
45 8.2
50 1.14
51 1.98
53 2.18
58 2.63
59 46.42
60 3.82
61 2.23
63 1.68
71 1.14
72 1.88
73 99.99
74 10.38
75 5.51
76 3.57
77 2.38
83 1.29
85 6.01
86 3.97
87 9.69
88 2.68
89 4.37
93 1.64
95 1.09
99 7.65
100 3.62
101 7.9
102 20.12
103 6.51
104 2.33
105 15.05
106 2.43
107 2.88
109 1.09
111 1.09
113 5.06
114 2.38
115 11.92
116 14.01
117 17.94
118 3.13
119 3.97
120 1.39
121 8.1
122 1.44
125 1.29
126 1.98
127 2.23
128 1.34
129 11.23
130 25.74
131 11.72
132 3.72
133 3.87
135 37.77
136 5.76
137 2.23
139 1.64
140 1.29
141 1.64
143 4.62
144 1.44
145 13.32
146 2.68
147 4.87
148 2.73
149 6.56
150 2.23
151 2.63
152 3.13
154 1.88
155 2.08
157 2.23
158 1.29
159 11.72
160 11.67
161 5.91
162 2.53
163 12.27
164 10.48
165 4.07
166 1.24
169 1.14
171 1.49
173 2.53
175 4.32
176 6.11
177 13.22
178 43.88
179 12.27
180 3.37
181 2.08
183 1.24
187 3.77
188 9.39
189 3.52
190 1.78
191 5.96
192 14.11
193 9.54
194 2.93
195 3.33
197 10.08
198 2.03
199 1.34
201 1.78
202 4.67
203 7.85
204 2.73
205 2.68
206 1.09
207 2.58
208 1.73
209 2.08
211 1.59
215 1.34
216 4.82
217 7.85
218 3.08
219 3.82
220 1.24
221 9.44
222 2.18
223 1.24
231 8.59
232 2.33
233 3.87
234 1.14
235 1.88
237 1.59
239 1.93
245 1.93
247 2.73
248 1.19
249 4.07
250 1.68
251 1.39
253 1.78
259 2.98
260 1.09
261 1.83
262 1.24
263 8.34
264 7.3
265 11.72
266 3.67
267 1.83
273 1.24
275 3.03
276 1.34
277 7.1
278 6.01
279 23.8
280 6.95
281 3.92
282 1.34
291 1.78
292 2.38
293 17.49
294 6.66
295 24.7
296 7.6
297 2.98
307 4.97
308 2.13
309 4.07
310 9.84
311 3.42
312 1.39
321 3.87
322 1.78
323 8.79
324 3.28
325 1.68
335 2.63
336 1.29
337 22.96
338 8.69
339 4.62
340 1.34
351 7.1
352 2.63
353 5.11
354 2.68
355 1.34
366 95.17
367 38.41
368 38.41
369 4.47
370 1.09

>  <PREDICTED SPECTRUM>  (4189) 
15 19
25 11
26 63
27 176
28 91
29 210
30 20
31 106
32 8
38 21
39 69
40 0
41 118
42 9
43 333
44 142
45 173
46 88
47 63
50 10
51 133
52 44
53 88
54 19
55 162
56 82
57 201
58 195
59 496
60 156
61 142
62 50
63 92
64 10
65 96
66 54
67 88
69 92
70 50
71 122
72 138
73 898
74 259
75 205
76 71
77 254
78 121
79 107
81 36
82 2
83 91
84 29
85 160
86 148
87 185
88 103
89 116
90 84
91 120
92 26
93 156
95 86
97 9
98 23
99 135
100 142
101 148
102 176
103 248
104 118
105 217
106 72
107 148
109 60
112 17
113 126
114 108
115 243
116 280
117 277
118 150
119 160
120 91
121 344
122 35
123 32
125 5
126 53
127 118
128 160
129 390
130 149
131 355
132 180
133 183
134 163
135 499
136 206
137 143
138 58
139 66
140 88
141 74
142 92
143 122
144 107
145 294
146 172
147 189
148 120
149 212
150 130
151 248
152 209
153 110
154 122
155 86
156 90
157 124
158 112
159 215
160 195
161 198
162 155
163 261
164 140
165 186
166 99
167 99
168 55
169 81
171 113
172 71
173 207
174 141
175 234
176 261
177 363
178 545
179 270
180 134
181 60
182 62
183 19
187 77
188 133
189 198
190 149
191 339
192 201
193 257
194 172
195 110
196 2
199 2
200 15
201 140
202 154
203 147
204 175
205 225
206 135
207 206
208 166
209 124
210 18
211 114
212 10
215 77
216 126
217 174
218 102
219 112
220 100
221 236
222 161
223 97
229 17
230 56
231 248
232 111
233 189
234 143
235 226
236 160
237 164
238 65
245 66
246 63
247 126
248 110
249 148
250 131
251 134
252 70
253 60
254 7
259 113
260 6
261 138
262 113
263 177
264 182
265 230
266 193
267 142
268 3
273 24
274 12
275 172
276 54
277 230
278 233
279 377
280 277
281 213
282 42
283 9
289 138
290 88
291 172
292 159
293 451
294 359
295 499
296 243
297 161
298 51
305 69
306 101
307 260
308 247
309 289
310 301
311 165
312 11
320 45
321 163
322 167
323 197
324 123
325 78
335 153
336 129
337 499
338 347
339 240
340 132
341 7
349 15
350 1
351 378
352 226
353 214
354 115
355 5
364 5
365 50
366 999
367 604
368 441
369 224
370 109

$$$$

     RDKit          2D

 14 13  0  0  0  0  0  0  0  0999 V2000
    1.9486    2.6250    0.0000 C   0  0  0  0  0  0  0  0  0  0  0  0
   -1.1007    0.0664    0.0000 C   0  0  0  0  0  0  0  0  0  0  0  0
    1.7919    1.7364    0.0000 C   0  0  0  0  0  0  0  0  0  0  0  0
   -4.5466    3.3750    0.0000 C   0  0  0  0  0  0  0  0  0  0  0  0
   -1.4974    5.9336    0.0000 C   0  0  0  0  0  0  0  0  0  0  0  0
   -4.3900    4.2636    0.0000 C   0  0  0  0  0  0  0  0  0  0  0  0
    0.6495    3.3750    0.0000 C   0  0  0  0  0  0  0  0  0  0  0  0
   -1.6137    1.4759    0.0000 C   0  0  0  0  0  0  0  0  0  0  0  0
    0.3147    1.4759    0.0000 C   0  0  0  0  0  0  0  0  0  0  0  0
   -3.2476    2.6250    0.0000 C   0  0  0  0  0  0  0  0  0  0  0  0
   -0.9844    4.5241    0.0000 C   0  0  0  0  0  0  0  0  0  0  0  0
   -2.9127    4.5241    0.0000 C   0  0  0  0  0  0  0  0  0  0  0  0
   -0.6495    2.6250    0.0000 Si  0  0  0  0  0  4  0  0  0  0  0  0
   -1.9486    3.3750    0.0000 Si  0  0  0  0  0  4  0  0  0  0  0  0
  7  1  1  0
  8  2  1  0
  9  3  1  0
 10  4  1  0
 11  5  1  0
 12  6  1  0
 13  7  1  0
 13  8  1  0
 13  9  1  0
 14 10  1  0
 14 11  1  0
 14 12  1  0
 14 13  1  0
M  END
>  <NAME>  (4190) 
HEXAETHYLDISILANE

>  <SYNONYMS>  (4190) 


>  <SPECTRUM TYPE>  (4190) 
MS1

>  <INSTRUMENT TYPE>  (4190) 
EI-B

>  <INSTRUMENT>  (4190) 
JEOL JMS-D-3000

>  <ION MODE>  (4190) 
P

>  <INCHIKEY>  (4190) 
XEJUFRSVJVTIFW-UHFFFAOYSA-N

>  <FORMULA>  (4190) 
C12H30Si2

>  <EXACT MASS>  (4190) 
230.18860402

>  <MW>  (4190) 
230

>  <ID>  (4190) 
JP004651

>  <CONTRIBUTOR>  (4190) 
University of Tokyo Team, {Faculty of Engineering, University of Tokyo

>  <COMMENT>  (4190) 
SMILES=CC[Si](CC)(CC)[Si](CC)(CC)CC
cas=1633-09-6
InChI=InChI=1S/C12H30Si2/c1-7-13(8-2,9-3)14(10-4,11-5)12-6/h7-12H2,1-6H3
computed SMILES=CC[Si](CC)(CC)[Si](CC)(CC)CC
accession=JP004651
date=2016.01.19 (Created 2008.10.21, modified 2011.05.06)
author=MASS SPECTROSCOPY SOC. OF JAPAN (MSSJ)
license=CC BY-NC-SA
exact mass=230.1886
ionization energy=70 eV
ion type=[M]+*
computed spectral entropy=2.886881641141354
computed normalized entropy=0.7723747511068774
SPLASH=splash10-014r-8920000000-3e308c2a634e1d9fb155
submitter=submitter = University of Tokyo Team (Faculty of Engineering, University of Tokyo)
MoNA Rating=3.75

>  <NUM PEAKS>  (4190) 
42

>  <MASS SPECTRAL PEAKS>  (4190) 
43 3.31
45 3.71
55 2.04
56 1.21
57 10.13
58 6.71
59 37.83
60 3.34
61 2.18
71 1.35
73 1.73
75 1.35
83 1.33
85 7.28
86 7.61
87 99.99
88 12.34
89 13.9
90 1.73
101 1.34
103 1.38
113 6.25
114 15.3
115 99.45
116 14.26
117 20.16
118 2.75
119 1.23
143 1.1
144 1.03
145 27.57
146 4.67
147 2.2
173 28.98
174 5.66
175 2.63
201 30.23
202 6.47
203 2.68
230 25.41
231 6.27
232 2.38

>  <PREDICTED SPECTRUM>  (4190) 
25 16
26 83
27 176
28 124
29 260
30 297
31 178
39 82
40 96
41 140
42 41
43 39
45 95
46 11
47 31
51 17
53 84
54 12
55 201
56 142
57 558
58 290
59 716
60 285
61 250
62 63
63 30
65 66
67 65
68 34
69 103
70 56
71 143
72 22
73 38
81 38
83 200
84 21
85 413
86 317
87 898
88 411
89 502
90 167
91 19
98 9
99 31
103 33
105 17
113 352
114 297
115 999
116 588
117 551
118 189
119 4
143 105
144 201
145 559
146 88
171 29
172 280
173 782
174 154
201 363
202 119
203 108
228 54
229 48
230 55
231 29

$$$$

     RDKit          2D

 12 13  0  0  0  0  0  0  0  0999 V2000
    0.0210    0.5966    0.0000 C   0  0  0  0  0  0  0  0  0  0  0  0
   -1.2789   -0.1537    0.0000 C   0  0  0  0  0  0  0  0  0  0  0  0
    0.0207    2.0966    0.0000 C   0  0  0  0  0  0  0  0  0  0  0  0
   -5.9802    1.6326    0.0000 C   0  0  0  0  0  0  0  0  0  0  0  0
   -6.2921    3.0998    0.0000 C   0  0  0  0  0  0  0  0  0  0  0  0
   -2.5790    0.5961    0.0000 C   0  0  0  0  0  0  0  0  0  0  0  0
   -1.2794    2.8463    0.0000 C   0  0  0  0  0  0  0  0  0  0  0  0
   -4.4884    1.4758    0.0000 C   0  0  0  0  0  0  0  0  0  0  0  0
   -4.9930    3.8498    0.0000 C   0  0  0  0  0  0  0  0  0  0  0  0
   -2.5793    2.0961    0.0000 C   0  0  0  0  0  0  0  0  0  0  0  0
   -2.9966    4.0597    0.0000 Cl  0  0  0  0  0  0  0  0  0  0  0  0
   -3.8783    2.8461    0.0000 Si  0  0  0  0  0  4  0  0  0  0  0  0
  2  1  2  0
  3  1  1  0
  5  4  1  0
  6  2  1  0
  7  3  2  0
  8  4  1  0
  9  5  1  0
 10  6  2  0
 10  7  1  0
 12  8  1  0
 12  9  1  0
 12 10  1  0
 12 11  1  0
M  END
>  <NAME>  (4191) 
1-CHLORO-1-PHENYL-1-SILACYCLOPENTANE

>  <SYNONYMS>  (4191) 


>  <SPECTRUM TYPE>  (4191) 
MS1

>  <INSTRUMENT TYPE>  (4191) 
EI-B

>  <INSTRUMENT>  (4191) 
JEOL JMS-D-3000

>  <ION MODE>  (4191) 
P

>  <INCHIKEY>  (4191) 
YSIVTLKOXHCOIE-UHFFFAOYSA-N

>  <FORMULA>  (4191) 
C10H13ClSi

>  <EXACT MASS>  (4191) 
196.047504626

>  <MW>  (4191) 
196

>  <ID>  (4191) 
JP004650

>  <CONTRIBUTOR>  (4191) 
University of Tokyo Team, {Faculty of Engineering, University of Tokyo

>  <COMMENT>  (4191) 
SMILES=c(c2)ccc(c2)[Si](Cl)(C1)CCC1
InChI=InChI=1S/C10H13ClSi/c11-12(8-4-5-9-12)10-6-2-1-3-7-10/h1-3,6-7H,4-5,8-9H2
computed SMILES=Cl[Si]1(C=2C=CC=CC2)CCCC1
accession=JP004650
date=2016.01.19 (Created 2008.10.21, modified 2011.05.06)
author=MASS SPECTROSCOPY SOC. OF JAPAN (MSSJ)
license=CC BY-NC-SA
exact mass=196.0475
ionization energy=70 eV
ion type=[M]+*
computed spectral entropy=3.162828840040614
computed normalized entropy=0.7724872179111545
SPLASH=splash10-00kf-2900000000-39b3d15aa621dfc707cd
submitter=submitter = University of Tokyo Team (Faculty of Engineering, University of Tokyo)
MoNA Rating=3.75

>  <NUM PEAKS>  (4191) 
60

>  <MASS SPECTRAL PEAKS>  (4191) 
50 1.77
51 4.23
53 3.97
55 1.25
63 47.62
64 2.71
65 16.72
66 1.51
67 1.09
73 1.3
75 1.25
77 3.34
78 3.86
79 3.13
82 2.45
83 1.82
84 1.56
89 1.35
90 3.65
91 13.74
92 1.62
93 1.09
103 2.19
104 1.56
105 10.71
106 1.72
107 1.56
115 1.09
117 5.33
118 17.98
119 3.76
120 6.27
121 1.35
122 1.2
131 2.71
132 9.2
133 1.77
139 1.3
140 99.99
141 28.9
142 37.89
143 10.45
144 2.35
154 6.42
155 2.03
156 2.56
157 1.09
159 1.09
161 1.15
166 1.46
167 22.63
168 86.3
169 21.01
170 31.52
171 4.49
172 1.41
196 46.88
197 8.46
198 17.35
199 2.66

>  <PREDICTED SPECTRUM>  (4191) 
26 29
27 54
28 23
35 9
36 30
38 37
39 146
40 53
41 117
42 59
43 94
44 38
45 30
49 10
50 104
51 214
52 149
53 143
54 113
55 86
61 35
62 85
63 299
64 126
65 248
66 126
67 125
68 60
69 41
73 16
74 13
75 76
76 75
77 225
78 224
79 140
80 95
81 23
82 20
84 21
85 53
86 73
87 0
89 132
90 143
91 242
92 180
93 57
94 73
95 50
96 13
97 44
98 9
99 13
101 53
103 63
104 108
105 237
106 182
107 82
111 5
112 36
113 113
114 113
115 111
116 1
117 182
118 213
119 141
120 39
121 34
122 23
124 23
125 25
126 106
127 59
129 6
131 159
132 160
133 80
134 43
138 79
139 112
140 957
141 397
142 490
143 203
144 156
145 7
151 4
153 90
154 98
155 176
156 129
157 24
161 50
165 64
166 96
167 320
168 999
169 432
170 552
171 231
172 16
181 26
195 19
196 626
197 242
198 340
199 135

$$$$

     RDKit          2D

  8  8  0  0  0  0  0  0  0  0999 V2000
    2.2733   -0.6175    0.0000 C   0  0  0  0  0  0  0  0  0  0  0  0
    2.2738    0.8833    0.0000 C   0  0  0  0  0  0  0  0  0  0  0  0
    0.9738   -1.3683    0.0000 C   0  0  0  0  0  0  0  0  0  0  0  0
    0.9748    1.6333    0.0000 C   0  0  0  0  0  0  0  0  0  0  0  0
   -0.3252   -0.6183    0.0000 C   0  0  0  0  0  0  0  0  0  0  0  0
   -1.6238    1.6325    0.0000 C   0  0  0  0  0  0  0  0  0  0  0  0
   -0.3248    0.8825    0.0000 C   0  0  0  0  0  0  0  0  0  0  0  0
   -2.9228    0.8825    0.0000 I   0  0  0  0  0  0  0  0  0  0  0  0
  2  1  2  0
  3  1  1  0
  4  2  1  0
  5  3  2  0
  7  4  2  0
  7  5  1  0
  7  6  1  0
  8  6  1  0
M  END
>  <NAME>  (4192) 
BENZYL IODIDE

>  <SYNONYMS>  (4192) 


>  <SPECTRUM TYPE>  (4192) 
MS1

>  <INSTRUMENT TYPE>  (4192) 
EI-B

>  <INSTRUMENT>  (4192) 
JEOL JMS-D-3000

>  <ION MODE>  (4192) 
P

>  <INCHIKEY>  (4192) 
XJTQJERLRPWUGL-UHFFFAOYSA-N

>  <FORMULA>  (4192) 
C7H7I

>  <EXACT MASS>  (4192) 
217.959248224

>  <MW>  (4192) 
218

>  <ID>  (4192) 
JP004648

>  <CONTRIBUTOR>  (4192) 
University of Tokyo Team, {Faculty of Engineering, University of Tokyo

>  <COMMENT>  (4192) 
SMILES=c(c1)ccc(c1)CI
cas=620-05-3
InChI=InChI=1S/C7H7I/c8-6-7-4-2-1-3-5-7/h1-5H,6H2
computed SMILES=ICC=1C=CC=CC1
accession=JP004648
date=2016.01.19 (Created 2008.10.21, modified 2011.05.06)
author=MASS SPECTROSCOPY SOC. OF JAPAN (MSSJ)
license=CC BY-NC-SA
exact mass=217.95924
ionization energy=70 eV
ion type=[M]+*
computed spectral entropy=1.1600395686338518
computed normalized entropy=0.46683426467260675
SPLASH=splash10-0006-9000000000-2b5e04d017144ec55080
submitter=submitter = University of Tokyo Team (Faculty of Engineering, University of Tokyo)
MoNA Rating=3.75

>  <NUM PEAKS>  (4192) 
12

>  <MASS SPECTRAL PEAKS>  (4192) 
50 1.24
51 1.8
62 1.18
63 3.1
64 1.2
65 8.18
89 3.46
90 2.1
91 99.99
92 8.12
127 2.94
218 3.15

>  <PREDICTED SPECTRUM>  (4192) 
25 5
26 41
27 94
28 24
36 1
37 60
38 116
39 273
40 73
41 156
49 27
50 181
51 299
52 155
53 43
55 9
61 51
62 126
63 225
64 130
65 372
66 72
74 64
75 28
76 27
77 178
78 100
86 12
89 222
90 212
91 999
92 332
127 131
216 21
218 481
219 157
220 25

$$$$

     RDKit          2D

 23 23  0  0  0  0  0  0  0  0999 V2000
   -8.1314    2.4264    0.0000 C   0  0  0  0  0  0  0  0  0  0  0  0
   -4.2305    0.1829    0.0000 C   0  0  0  0  0  0  0  0  0  0  0  0
    7.4571    5.4452    0.0000 C   0  0  0  0  0  0  0  0  0  0  0  0
    6.1585    3.1950    0.0000 C   0  0  0  0  0  0  0  0  0  0  0  0
   -6.8336    3.1785    0.0000 C   0  0  0  0  0  0  0  0  0  0  0  0
   -2.9328    0.9351    0.0000 C   0  0  0  0  0  0  0  0  0  0  0  0
   -5.5333    2.4307    0.0000 C   0  0  0  0  0  0  0  0  0  0  0  0
    3.5644    0.2016    0.0000 C   0  0  0  0  0  0  0  0  0  0  0  0
    4.8589    0.9438    0.0000 C   0  0  0  0  0  0  0  0  0  0  0  0
   -4.2356    3.1829    0.0000 C   0  0  0  0  0  0  0  0  0  0  0  0
    2.2654    0.9516    0.0000 C   0  0  0  0  0  0  0  0  0  0  0  0
    4.8594    2.4446    0.0000 C   0  0  0  0  0  0  0  0  0  0  0  0
   -1.6375    3.1872    0.0000 C   0  0  0  0  0  0  0  0  0  0  0  0
    6.1582    4.6950    0.0000 C   0  0  0  0  0  0  0  0  0  0  0  0
   -2.9353    2.4351    0.0000 C   0  0  0  0  0  0  0  0  0  0  0  0
    2.2609    2.4438    0.0000 C   0  0  0  0  0  0  0  0  0  0  0  0
    3.5604    3.1946    0.0000 C   0  0  0  0  0  0  0  0  0  0  0  0
    0.9606    3.1916    0.0000 C   0  0  0  0  0  0  0  0  0  0  0  0
    3.5601    4.6946    0.0000 C   0  0  0  0  0  0  0  0  0  0  0  0
    0.9581    4.6916    0.0000 O   0  0  0  0  0  0  0  0  0  0  0  0
    2.2610    5.4444    0.0000 O   0  0  0  0  0  0  0  0  0  0  0  0
   -0.3372    2.4394    0.0000 O   0  0  0  0  0  0  0  0  0  0  0  0
    4.8591    5.4448    0.0000 O   0  0  0  0  0  0  0  0  0  0  0  0
  5  1  1  0
  6  2  1  0
  7  5  1  0
  9  8  2  0
 10  7  1  0
 11  8  1  0
 12  9  1  0
 14  3  1  0
 14  4  1  0
 15  6  1  0
 15 10  1  0
 15 13  1  0
 16 11  2  0
 17 12  2  0
 17 16  1  0
 18 16  1  0
 19 17  1  0
 20 18  2  0
 21 19  2  0
 22 13  1  0
 22 18  1  0
 23 14  1  0
 23 19  1  0
M  END
>  <NAME>  (4193) 
1,2-BENZENEDICARBOXYLIC ACID ISOPROPYL 2-ETHYLHEXYL ESTER

>  <SYNONYMS>  (4193) 


>  <SPECTRUM TYPE>  (4193) 
MS1

>  <INSTRUMENT TYPE>  (4193) 
EI-B

>  <INSTRUMENT>  (4193) 
JEOL JMS-DX-303

>  <ION MODE>  (4193) 
P

>  <INCHIKEY>  (4193) 
NDQBOQJEHVQCJE-UHFFFAOYSA-N

>  <FORMULA>  (4193) 
C19H28O4

>  <EXACT MASS>  (4193) 
320.198759376

>  <MW>  (4193) 
320

>  <ID>  (4193) 
JP004646

>  <CONTRIBUTOR>  (4193) 
University of Tokyo Team, {Faculty of Engineering, University of Tokyo

>  <COMMENT>  (4193) 
SMILES=CCCCC(CC)COC(=O)c(c1)c(ccc1)C(=O)OC(C)C
InChI=InChI=1S/C19H28O4/c1-5-7-10-15(6-2)13-22-18(20)16-11-8-9-12-17(16)19(21)23-14(3)4/h8-9,11-12,14-15H,5-7,10,13H2,1-4H3
computed SMILES=O=C(OCC(CC)CCCC)C=1C=CC=CC1C(=O)OC(C)C
accession=JP004646
date=2016.01.19 (Created 2008.10.21, modified 2011.05.06)
author=MASS SPECTROSCOPY SOC. OF JAPAN (MSSJ)
license=CC BY-NC-SA
exact mass=320.19876
ionization energy=70 eV
ion type=[M]+*
computed spectral entropy=2.6421823892118184
computed normalized entropy=0.7069063504936843
SPLASH=splash10-0002-4920000000-67379cdc663420ef0ba3
submitter=submitter = University of Tokyo Team (Faculty of Engineering, University of Tokyo)
MoNA Rating=3.75

>  <NUM PEAKS>  (4193) 
42

>  <MASS SPECTRAL PEAKS>  (4193) 
27 1.74
29 0.91
32 4.99
39 1.56
41 7.81
42 1.7
43 6.56
44 1.12
50 0.65
55 5.2
56 3.19
57 6.37
59 0.64
65 2.25
69 2.44
70 11.06
71 4.07
76 2.41
77 1.09
82 0.88
83 3.87
84 2.36
93 2.35
104 3.08
105 1.66
112 5.11
113 2.84
121 2.34
122 1.74
132 0.83
149 99.99
150 10.59
151 1.26
167 15.5
168 1.18
191 5.68
192 1.08
209 30.27
210 3.9
211 0.64
261 0.5
320 0.6

>  <PREDICTED SPECTRUM>  (4193) 
27 79
28 1
29 77
39 52
41 142
42 106
43 185
50 47
51 27
53 25
54 31
55 191
56 134
57 158
59 40
65 109
67 37
68 17
69 96
70 247
71 172
75 3
76 132
77 107
78 4
81 5
82 13
83 115
84 65
91 17
93 113
97 6
104 199
105 166
106 29
112 273
113 145
120 12
121 140
122 161
123 61
132 72
149 999
150 316
151 101
167 232
168 43
191 245
192 95
209 392
210 127
211 32
251 15

$$$$

     RDKit          2D

 19 22  0  0  1  0  0  0  0  0999 V2000
    2.3487    3.1916    0.0000 C   0  0  0  0  0  0  0  0  0  0  0  0
   -1.7100    0.9500    0.0000 C   0  0  0  0  0  0  0  0  0  0  0  0
   -4.3000   -2.0500    0.0000 C   0  0  0  0  0  0  0  0  0  0  0  0
   -4.3000   -0.5500    0.0000 C   0  0  0  0  0  0  0  0  0  0  0  0
    4.5000    0.9500    0.0000 C   0  0  0  0  0  0  0  0  0  0  0  0
   -3.0100   -2.8000    0.0000 C   0  0  0  0  0  0  0  0  0  0  0  0
    3.6200   -0.2700    0.0000 C   0  0  0  0  0  0  0  0  0  0  0  0
   -0.4100   -2.8000    0.0000 C   0  0  0  0  0  0  0  0  0  0  0  0
    0.8900   -2.0500    0.0000 C   0  0  0  0  0  0  0  0  0  0  0  0
   -0.4100    1.7000    0.0000 C   0  0  0  0  0  0  0  0  0  0  0  0
    3.6200    2.1600    0.0000 C   0  0  0  0  0  0  0  0  0  0  0  0
   -3.0100    0.2000    0.0000 C   0  0  0  0  0  0  0  0  0  0  0  0
    0.8900    2.4500    0.0000 C   0  0  0  0  0  0  0  0  0  0  0  0
   -1.7100   -2.0500    0.0000 C   0  0  0  0  0  0  0  0  0  0  0  0
    0.8900   -0.5500    0.0000 C   0  0  0  0  0  0  0  0  0  0  0  0
    2.1900    0.2000    0.0000 C   0  0  0  0  0  0  0  0  0  0  0  0
   -0.4100    0.2000    0.0000 C   0  0  0  0  0  0  0  0  0  0  0  0
    2.1900    1.7000    0.0000 C   0  0  0  0  0  0  0  0  0  0  0  0
   -1.7100   -0.5500    0.0000 C   0  0  0  0  0  0  0  0  0  0  0  0
  4  3  1  0
  6  3  1  0
  7  5  1  0
  9  8  1  0
 11  5  1  0
 12  4  1  0
 13 10  1  0
 14  6  1  6
 14  8  1  0
 15  9  1  6
 16  7  1  1
 16 15  1  0
 17 10  1  1
 17 15  1  0
 18  1  1  1
 18 11  1  0
 18 13  1  0
 18 16  1  0
 19  2  1  1
 19 12  1  0
 19 14  1  0
 19 17  1  0
M  END
>  <NAME>  (4194) 
5-BETA-ANDROSTANE

>  <SYNONYMS>  (4194) 


>  <SPECTRUM TYPE>  (4194) 
MS1

>  <INSTRUMENT TYPE>  (4194) 
EI-B

>  <INSTRUMENT>  (4194) 
HITACHI RMU-6M

>  <ION MODE>  (4194) 
P

>  <INCHIKEY>  (4194) 
QZLYKIGBANMMBK-DYKIIFRCSA-N

>  <FORMULA>  (4194) 
C19H32

>  <EXACT MASS>  (4194) 
260.250401024

>  <MW>  (4194) 
260

>  <ID>  (4194) 
JP004645

>  <CONTRIBUTOR>  (4194) 
University of Tokyo Team, {Faculty of Engineering, University of Tokyo

>  <COMMENT>  (4194) 
SMILES=C(C4)CC([H])(C3)C(C)(C4)C([H])(C1)C([H])(C3)C([H])(C2)C(C)(CC2)C1
cas=438-23-3
InChI=InChI=1S/C19H32/c1-18-11-5-7-16(18)15-9-8-14-6-3-4-12-19(14,2)17(15)10-13-18/h14-17H,3-13H2,1-2H3/t14-,15-,16-,17-,18-,19-/m0/s1
computed SMILES=CC12CCCC2C3CCC4CCCCC4(C)C3CC1
accession=JP004645
date=2016.01.19 (Created 2008.10.21, modified 2011.05.06)
author=YAMAMOTO M, DEP. CHEMISTRY, FAC. SCIENCE, NARA WOMEN'S UNIV.
license=CC BY-NC-SA
exact mass=260.2504
ionization energy=70 eV
ion type=[M]+*
computed spectral entropy=3.841845946189115
computed normalized entropy=0.8742497207196575
SPLASH=splash10-0002-9770000000-031d9eab9656f5d5d66e
submitter=submitter = University of Tokyo Team (Faculty of Engineering, University of Tokyo)
MoNA Rating=3.75

>  <NUM PEAKS>  (4194) 
81

>  <MASS SPECTRAL PEAKS>  (4194) 
27 2.6
29 8.95
39 6.1
40 1.15
41 28.19
42 2.1
43 5.9
53 8.5
54 3.75
55 30.69
56 2.5
57 2
65 3.7
66 2
67 37.37
68 7
69 10.1
77 8.75
78 2
79 21.24
80 5.65
81 43.28
82 6.7
83 7.75
91 10.75
92 2.25
93 20.49
94 14.69
95 51.61
96 17.59
97 4.5
105 6.45
106 2.6
107 23.19
108 15.59
109 24.24
110 5.15
111 2.75
117 1.5
119 3.75
120 2.5
121 21.19
122 8.15
123 8.6
124 1.5
133 5.7
134 3.5
135 40.05
136 9.75
137 5.75
147 6.5
148 12.14
149 25.79
150 12.74
151 6.2
161 8.05
162 4.5
163 12.54
164 7.1
165 3.25
175 13.64
176 5.5
177 3.05
178 2.2
189 10.1
190 4.45
203 40.32
204 23.64
205 3.85
217 10.95
218 8.45
219 1.95
231 3.5
232 3.5
244 1.3
245 99.99
246 20.64
247 1.95
260 81.72
261 17.44
262 1.55

>  <PREDICTED SPECTRUM>  (4194) 
39 38
40 36
41 659
42 206
43 324
44 119
51 42
52 31
53 372
54 182
55 784
56 209
57 273
58 15
65 157
66 118
67 826
68 522
69 590
70 122
71 79
77 314
78 84
79 531
80 338
81 890
82 573
83 594
84 147
91 337
92 130
93 534
94 372
95 999
96 556
97 395
98 50
99 3
105 302
106 126
107 555
108 594
109 849
110 460
111 267
119 58
120 65
121 513
122 424
123 435
124 119
125 84
131 4
133 108
134 69
135 645
136 283
137 322
147 294
148 392
149 668
150 396
151 179
161 201
162 308
163 430
164 234
165 76
175 343
176 248
177 460
178 93
189 260
190 223
191 69
202 23
203 619
204 329
205 119
217 617
218 528
219 100
231 115
232 165
245 885
246 372
247 51
260 959
261 387
262 73

$$$$

     RDKit          2D

 26 27  0  0  0  0  0  0  0  0999 V2000
   15.2502  -13.3626    0.0000 C   0  0  0  0  0  0  0  0  0  0  0  0
   -2.3090    3.7500    0.0000 C   0  0  0  0  0  0  0  0  0  0  0  0
   13.7826  -13.0525    0.0000 C   0  0  0  0  0  0  0  0  0  0  0  0
   13.3173  -11.6265    0.0000 C   0  0  0  0  0  0  0  0  0  0  0  0
   11.8497  -11.3164    0.0000 C   0  0  0  0  0  0  0  0  0  0  0  0
   11.3844   -9.8904    0.0000 C   0  0  0  0  0  0  0  0  0  0  0  0
    9.9168   -9.5803    0.0000 C   0  0  0  0  0  0  0  0  0  0  0  0
    9.4515   -8.1543    0.0000 C   0  0  0  0  0  0  0  0  0  0  0  0
    7.9839   -7.8443    0.0000 C   0  0  0  0  0  0  0  0  0  0  0  0
    7.5186   -6.4182    0.0000 C   0  0  0  0  0  0  0  0  0  0  0  0
    6.0510   -6.1082    0.0000 C   0  0  0  0  0  0  0  0  0  0  0  0
    5.5858   -4.6822    0.0000 C   0  0  0  0  0  0  0  0  0  0  0  0
    4.1182   -4.3721    0.0000 C   0  0  0  0  0  0  0  0  0  0  0  0
    3.6529   -2.9461    0.0000 C   0  0  0  0  0  0  0  0  0  0  0  0
   -2.3100   -0.7500    0.0000 C   0  0  0  0  0  0  0  0  0  0  0  0
   -1.0100   -1.5000    0.0000 C   0  0  0  0  0  0  0  0  0  0  0  0
    2.1853   -2.6360    0.0000 C   0  0  0  0  0  0  0  0  0  0  0  0
   -2.3100    0.7500    0.0000 C   0  0  0  0  0  0  0  0  0  0  0  0
    0.2900   -0.7500    0.0000 C   0  0  0  0  0  0  0  0  0  0  0  0
    1.7200   -1.2100    0.0000 C   0  0  0  0  0  0  0  0  0  0  0  0
   -1.0100    1.5000    0.0000 C   0  0  0  0  0  0  0  0  0  0  0  0
    0.2900    0.7500    0.0000 C   0  0  0  0  0  0  0  0  0  0  0  0
    1.7200    1.2100    0.0000 C   0  0  0  0  0  0  0  0  0  0  0  0
    2.1853    2.6360    0.0000 O   0  0  0  0  0  0  0  0  0  0  0  0
   -1.0100    3.0000    0.0000 O   0  0  0  0  0  0  0  0  0  0  0  0
    2.6000    0.0000    0.0000 O   0  0  0  0  0  0  0  0  0  0  0  0
  3  1  1  0
  4  3  1  0
  5  4  1  0
  6  5  1  0
  7  6  1  0
  8  7  1  0
  9  8  1  0
 10  9  1  0
 11 10  1  0
 12 11  1  0
 13 12  1  0
 14 13  1  0
 16 15  2  0
 17 14  1  0
 18 15  1  0
 19 16  1  0
 20 17  1  0
 20 19  1  0
 21 18  2  0
 22 19  2  0
 22 21  1  0
 23 22  1  0
 24 23  2  0
 25  2  1  0
 25 21  1  0
 26 20  1  0
 26 23  1  0
M  END
>  <NAME>  (4195) 
7-METHOXY-3-TETRADECANYL-2-OXAINDAN-1-ONE

>  <SYNONYMS>  (4195) 
7-METHOXY-3-TETRADECANYLPHTHALIDE

>  <SPECTRUM TYPE>  (4195) 
MS1

>  <INSTRUMENT TYPE>  (4195) 
EI-B

>  <INSTRUMENT>  (4195) 
SHIMADZU LKB-9000B

>  <ION MODE>  (4195) 
P

>  <INCHIKEY>  (4195) 
PTWYVJKLACDNEO-UHFFFAOYSA-N

>  <FORMULA>  (4195) 
C23H36O3

>  <EXACT MASS>  (4195) 
360.26644501199996

>  <MW>  (4195) 
360

>  <ID>  (4195) 
JP004592

>  <CONTRIBUTOR>  (4195) 
University of Tokyo Team, {Faculty of Engineering, University of Tokyo

>  <COMMENT>  (4195) 
SMILES=CCCCCCCCCCCCCCC(O1)c(c2)c(c(OC)cc2)C(=O)1
InChI=InChI=1S/C23H36O3/c1-3-4-5-6-7-8-9-10-11-12-13-14-17-20-19-16-15-18-21(25-2)22(19)23(24)26-20/h15-16,18,20H,3-14,17H2,1-2H3
computed SMILES=O=C1OC(C=2C=CC=C(OC)C12)CCCCCCCCCCCCCC
accession=JP004592
date=2016.01.19 (Created 2008.10.21, modified 2011.05.06)
license=CC BY-NC-SA
author=HAYASHI A, DEPT. OF CHEMISTRY, FAC. OF SCI. AND TECHNOLOGY, KINKI UNIV.
exact mass=360.26645
ionization energy=70 eV
ion type=[M]+*
computed spectral entropy=3.996722963966594
computed normalized entropy=0.7987141986751279
SPLASH=splash10-03di-8901000000-e595ba911e2792099a38
submitter=submitter = University of Tokyo Team (Faculty of Engineering, University of Tokyo)
MoNA Rating=3.75

>  <NUM PEAKS>  (4195) 
149

>  <MASS SPECTRAL PEAKS>  (4195) 
38 1.5
39 7.9
41 35.9
42 1.55
43 34.1
50 1.2
51 0.9
53 0.21
54 4.5
55 30
56 50.6
57 1.69
58 2.3
59 1.7
60 9.5
61 1.17
63 1.1
64 1
65 2.5
66 0.19
67 8.2
68 8.8
69 21.4
70 5.15
71 9.7
72 3
73 1.8
74 0.09
75 1.6
76 2.9
77 8
78 0.18
79 2.7
81 6.7
82 5.3
83 0.91
84 6.2
85 7.9
86 1.6
87 0.08
91 3.6
92 3.2
93 2.5
94 0.16
95 4.5
96 3.3
97 9.6
98 0.98
99 18.4
100 3.9
101 0.9
103 0.13
104 2
105 4.9
106 1.1
107 0.29
108 1.1
109 3.6
110 8.3
111 0.28
112 1.9
113 12.1
114 3.3
115 0.2
116 0.8
117 1.4
118 1.7
119 0.33
120 3
121 3.7
122 1.7
123 0.21
124 1.1
125 2.6
126 1.1
127 0.14
128 1.1
129 1.7
131 1.8
132 0.32
133 3.7
134 2.9
135 22
136 0.28
137 2.5
138 3.2
139 1.5
140 0.3
141 5.4
142 3
143 10.7
144 0.16
145 3.9
146 5.4
147 5.5
148 0.5
149 14.8
150 2.6
151 1.2
155 0.09
156 1.1
157 0.8
158 0.8
159 0.45
160 6.6
161 6.3
162 2.5
163 99.99
164 23.5
165 4.4
166 11
167 0.25
168 0.9
169 1.9
171 0.8
173 0.37
174 4.6
175 4.7
176 2.9
177 2.22
178 7.7
179 1.8
184 3
185 0.09
186 0.7
187 2.4
188 1.4
189 0.31
190 1.2
191 1.6
192 0.9
201 0.17
202 0.8
203 1.3
205 1
206 0.2
215 1.1
217 0.8
219 0.8
223 0.08
224 10
225 1.7
231 1.6
331 0.18
358 0.9
359 1.9
360 46.6
361 1.1
362 1.6

>  <PREDICTED SPECTRUM>  (4195) 
17 6
18 26
26 12
27 165
28 70
29 267
30 15
31 7
32 9
34 5
37 13
38 44
39 288
40 108
41 729
42 266
43 889
44 173
45 182
50 160
51 250
52 133
53 277
54 182
55 625
56 270
57 518
58 44
59 157
60 65
61 61
62 82
63 261
64 104
65 227
66 107
67 296
68 170
69 460
70 84
71 334
73 148
74 121
75 201
76 172
77 451
78 223
79 304
80 103
81 336
82 167
83 319
84 103
85 215
86 81
87 79
88 48
89 180
90 136
91 215
92 156
93 173
94 115
95 249
96 118
97 235
98 19
99 126
101 101
102 86
103 222
104 204
105 432
106 146
107 330
108 152
109 273
110 76
111 74
113 120
114 51
115 133
116 89
117 191
118 171
119 236
120 179
121 543
122 196
123 38
129 113
130 70
131 137
132 164
133 281
134 232
135 503
136 278
137 203
138 7
144 48
145 265
146 214
147 256
148 273
149 628
150 239
151 66
152 49
157 55
158 28
159 174
160 148
161 376
162 232
163 945
164 410
165 441
166 399
172 54
173 257
174 184
175 269
176 321
177 447
178 254
179 187
180 9
185 18
186 9
187 165
188 109
189 119
190 47
191 278
192 317
194 135
196 32
201 20
202 63
205 243
206 49
215 65
217 74
219 26
229 42
230 23
231 40
233 5
243 30
301 77
302 59
315 79
316 17
329 5
330 80
331 23
342 89
343 58
344 4
345 51
346 0
358 80
359 226
360 999
361 114
362 202
363 24

$$$$

     RDKit          2D

 28 29  0  0  0  0  0  0  0  0999 V2000
   -9.3781    5.4560    0.0000 C   0  0  0  0  0  0  0  0  0  0  0  0
   -8.0902    3.1996    0.0000 C   0  0  0  0  0  0  0  0  0  0  0  0
    2.3094    4.6485    0.0000 C   0  0  0  0  0  0  0  0  0  0  0  0
    1.0141    5.4049    0.0000 C   0  0  0  0  0  0  0  0  0  0  0  0
    3.6121    5.3921    0.0000 C   0  0  0  0  0  0  0  0  0  0  0  0
   -0.2887    4.6613    0.0000 C   0  0  0  0  0  0  0  0  0  0  0  0
   15.3003    4.6463    0.0000 C   0  0  0  0  0  0  0  0  0  0  0  0
    4.9074    4.6357    0.0000 C   0  0  0  0  0  0  0  0  0  0  0  0
   15.3124    3.1464    0.0000 C   0  0  0  0  0  0  0  0  0  0  0  0
   13.9943    5.3858    0.0000 C   0  0  0  0  0  0  0  0  0  0  0  0
   -1.5840    5.4177    0.0000 C   0  0  0  0  0  0  0  0  0  0  0  0
    6.2102    5.3793    0.0000 C   0  0  0  0  0  0  0  0  0  0  0  0
   14.0185    2.3859    0.0000 C   0  0  0  0  0  0  0  0  0  0  0  0
   12.7004    4.6253    0.0000 C   0  0  0  0  0  0  0  0  0  0  0  0
   -2.8867    4.6741    0.0000 C   0  0  0  0  0  0  0  0  0  0  0  0
    8.8045    5.3729    0.0000 C   0  0  0  0  0  0  0  0  0  0  0  0
    7.4910    3.1481    0.0000 C   0  0  0  0  0  0  0  0  0  0  0  0
   10.0890    4.6481    0.0000 C   0  0  0  0  0  0  0  0  0  0  0  0
    8.8155    2.3539    0.0000 C   0  0  0  0  0  0  0  0  0  0  0  0
   -6.7801    5.4432    0.0000 C   0  0  0  0  0  0  0  0  0  0  0  0
   -8.0828    4.6996    0.0000 C   0  0  0  0  0  0  0  0  0  0  0  0
    7.5055    4.6229    0.0000 C   0  0  0  0  0  0  0  0  0  0  0  0
   12.7125    3.1254    0.0000 C   0  0  0  0  0  0  0  0  0  0  0  0
   10.1145    3.1039    0.0000 C   0  0  0  0  0  0  0  0  0  0  0  0
   -4.1820    5.4304    0.0000 C   0  0  0  0  0  0  0  0  0  0  0  0
   -5.4847    4.6868    0.0000 N   0  0  0  0  0  0  0  0  0  0  0  0
   -4.1746    6.9304    0.0000 O   0  0  0  0  0  0  0  0  0  0  0  0
   11.4197    2.3647    0.0000 O   0  0  0  0  0  0  0  0  0  0  0  0
  4  3  1  0
  5  3  1  0
  4  6  2  0
  8  5  1  0
  9  7  2  0
 10  7  1  0
 11  6  1  0
 12  8  1  0
 13  9  1  0
 14 10  2  0
 11 15  2  0
 18 16  2  0
 19 17  1  0
 21  1  1  0
 21  2  1  0
 21 20  1  0
 22 12  1  0
 22 16  1  0
 22 17  2  0
 23 13  2  0
 23 14  1  0
 24 18  1  0
 24 19  2  0
 25 15  1  0
 26 20  1  0
 26 25  2  3
 27 25  1  0
 28 23  1  0
 28 24  1  0
M  END
>  <NAME>  (4196) 
N-ISOBUTYL 9-(PARA-PHENOXYPHENYL)-2,4-NONADIENAMIDE

>  <SYNONYMS>  (4196) 


>  <SPECTRUM TYPE>  (4196) 
MS1

>  <INSTRUMENT TYPE>  (4196) 
EI-B

>  <INSTRUMENT>  (4196) 
JEOL JMS-HX-100

>  <ION MODE>  (4196) 
P

>  <INCHIKEY>  (4196) 
OTARDPWABOQJQA-OKOYHYLBSA-N

>  <FORMULA>  (4196) 
C25H31NO2

>  <EXACT MASS>  (4196) 
377.235479232

>  <MW>  (4196) 
377

>  <ID>  (4196) 
JP004591

>  <CONTRIBUTOR>  (4196) 
University of Tokyo Team, {Faculty of Engineering, University of Tokyo

>  <COMMENT>  (4196) 
SMILES=CC(C)CNC(=O)C=CC=CCCCCc(c2)ccc(c2)Oc(c1)cccc1
InChI=InChI=1S/C25H31NO2/c1-21(2)20-26-25(27)15-11-6-4-3-5-8-12-22-16-18-24(19-17-22)28-23-13-9-7-10-14-23/h4,6-7,9-11,13-19,21H,3,5,8,12,20H2,1-2H3,(H,26,27)/b6-4+,15-11+
computed SMILES=OC(=NCC(C)C)C=CC=CCCCCC1=CC=C(OC=2C=CC=CC2)C=C1
accession=JP004591
date=2016.01.19 (Created 2008.10.21, modified 2011.05.06)
author=HAYASHI A, DEPT. OF CHEMISTRY, FAC. OF SCI. AND TECHNOLOGY, KINKI UNIV.
license=CC BY-NC-SA
exact mass=377.23548
ionization energy=70 eV
ion type=[M]+*
computed spectral entropy=4.209657740779865
computed normalized entropy=0.8855743914685453
SPLASH=splash10-0fc3-5922000000-af125467c3769ec4aa83
submitter=submitter = University of Tokyo Team (Faculty of Engineering, University of Tokyo)
MoNA Rating=3.75

>  <NUM PEAKS>  (4196) 
116

>  <MASS SPECTRAL PEAKS>  (4196) 
39 8.06
40 2.47
41 19.71
42 2.17
43 6.5
44 4.03
51 10.51
53 11.24
55 28.72
56 5.49
57 27.83
58 2.27
60 10.51
65 7.99
66 12.7
67 9.86
68 2.3
69 4.06
71 2.5
72 3.55
74 4.17
77 41.65
78 6.96
79 9.37
80 2.49
81 15.71
82 4.11
83 3.26
84 2.19
85 4.24
86 2.06
89 3.57
90 4.13
91 11.95
93 3.44
94 7
95 5.55
96 8.38
98 7.89
100 4.28
103 3
104 2.93
107 18.65
108 2.95
109 2.25
110 3.23
115 32.81
116 16.44
117 8.04
118 2.11
121 2.44
126 4.89
127 2.7
128 10.57
129 7.95
130 3.75
131 2.7
138 2.79
141 31.75
142 5.26
143 2.66
152 32.27
153 27.6
154 32.95
155 10.59
156 3.19
161 3.9
165 2.07
166 4.48
167 2.89
168 5.51
169 6.6
170 7.75
180 8.77
181 9.82
182 2.91
183 99.99
184 19.69
185 3.23
194 47.56
195 7.32
196 15.21
197 6.7
207 2.85
209 15.49
210 6.49
211 2.07
212 3.64
221 2.44
222 2.79
223 4.14
233 2.08
235 5.08
236 4.91
237 4.28
238 2.2
240 3.08
249 2.08
250 4.85
254 2.2
262 23.71
263 7.35
276 14.39
277 13.79
278 8.02
296 3.41
304 3.32
305 11.1
306 2.87
309 9.73
310 2.49
322 6.05
376 2.41
377 71.81
378 21.86
379 3.56

>  <PREDICTED SPECTRUM>  (4196) 
18 4
26 3
27 189
28 24
29 238
30 55
39 411
40 109
41 817
42 202
43 430
44 229
45 62
50 145
51 383
52 168
53 271
54 73
55 602
56 166
57 468
58 50
63 201
64 118
65 453
66 177
67 353
68 46
69 161
70 56
71 145
72 89
73 36
74 59
75 69
76 125
77 784
78 361
79 494
80 125
81 260
82 16
83 128
84 195
85 69
86 36
89 263
90 265
91 769
92 349
93 392
94 174
95 61
98 32
100 5
102 42
103 288
104 216
105 423
106 160
107 397
108 160
109 10
111 70
112 29
113 33
114 64
115 508
116 309
117 263
118 172
119 43
121 102
126 115
127 381
128 406
129 332
130 148
131 479
132 215
133 122
134 60
135 173
137 34
139 95
140 74
141 225
142 66
143 92
144 92
145 129
146 112
147 133
148 45
152 193
153 361
154 184
155 270
156 190
157 161
158 169
159 86
160 105
161 104
164 144
165 145
166 165
167 87
168 289
169 179
170 107
171 12
172 188
173 118
174 101
175 43
177 33
178 108
179 106
180 217
181 624
182 213
183 999
184 378
185 65
186 140
187 51
191 61
192 129
193 111
194 163
195 146
196 210
197 206
203 67
204 65
205 51
207 97
208 330
209 207
210 428
211 98
212 49
221 38
222 68
223 62
224 143
225 116
231 40
234 86
235 140
236 130
237 117
242 100
247 23
249 36
250 179
251 82
252 62
254 47
262 42
263 26
264 134
265 85
266 88
273 28
276 65
277 77
278 100
289 10
290 82
292 261
293 268
294 219
295 197
303 38
304 15
305 14
306 69
320 131
321 124
322 155
332 70
334 102
360 21
377 734
378 362
379 156

$$$$

     RDKit          2D

 26 27  0  0  0  0  0  0  0  0999 V2000
   -9.3873    4.6964    0.0000 C   0  0  0  0  0  0  0  0  0  0  0  0
   -8.0846    5.4400    0.0000 C   0  0  0  0  0  0  0  0  0  0  0  0
    1.0048    4.6453    0.0000 C   0  0  0  0  0  0  0  0  0  0  0  0
   -0.2905    5.4017    0.0000 C   0  0  0  0  0  0  0  0  0  0  0  0
    2.3075    5.3889    0.0000 C   0  0  0  0  0  0  0  0  0  0  0  0
   -1.5932    4.6581    0.0000 C   0  0  0  0  0  0  0  0  0  0  0  0
   13.9957    4.6431    0.0000 C   0  0  0  0  0  0  0  0  0  0  0  0
    3.6029    4.6325    0.0000 C   0  0  0  0  0  0  0  0  0  0  0  0
   14.0079    3.1432    0.0000 C   0  0  0  0  0  0  0  0  0  0  0  0
   12.6897    5.3826    0.0000 C   0  0  0  0  0  0  0  0  0  0  0  0
   -2.8885    5.4145    0.0000 C   0  0  0  0  0  0  0  0  0  0  0  0
    4.9056    5.3761    0.0000 C   0  0  0  0  0  0  0  0  0  0  0  0
   12.7140    2.3827    0.0000 C   0  0  0  0  0  0  0  0  0  0  0  0
   11.3958    4.6221    0.0000 C   0  0  0  0  0  0  0  0  0  0  0  0
   -4.1913    4.6709    0.0000 C   0  0  0  0  0  0  0  0  0  0  0  0
    7.5000    5.3697    0.0000 C   0  0  0  0  0  0  0  0  0  0  0  0
    6.1864    3.1449    0.0000 C   0  0  0  0  0  0  0  0  0  0  0  0
    8.7845    4.6449    0.0000 C   0  0  0  0  0  0  0  0  0  0  0  0
    7.5109    2.3507    0.0000 C   0  0  0  0  0  0  0  0  0  0  0  0
    6.2009    4.6197    0.0000 C   0  0  0  0  0  0  0  0  0  0  0  0
   11.4080    3.1222    0.0000 C   0  0  0  0  0  0  0  0  0  0  0  0
    8.8100    3.1007    0.0000 C   0  0  0  0  0  0  0  0  0  0  0  0
   -5.4866    5.4272    0.0000 C   0  0  0  0  0  0  0  0  0  0  0  0
   -5.4792    6.9272    0.0000 O   0  0  0  0  0  0  0  0  0  0  0  0
   -6.7893    4.6836    0.0000 O   0  0  0  0  0  0  0  0  0  0  0  0
   10.1151    2.3615    0.0000 O   0  0  0  0  0  0  0  0  0  0  0  0
  2  1  1  0
  4  3  1  0
  5  3  1  0
  4  6  2  0
  8  5  1  0
  9  7  2  0
 10  7  1  0
 11  6  1  0
 12  8  1  0
 13  9  1  0
 14 10  2  0
 11 15  2  0
 18 16  2  0
 19 17  1  0
 20 12  1  0
 20 16  1  0
 20 17  2  0
 21 13  2  0
 21 14  1  0
 22 18  1  0
 22 19  2  0
 23 15  1  0
 24 23  2  0
 25  2  1  0
 25 23  1  0
 26 21  1  0
 26 22  1  0
M  END
>  <NAME>  (4197) 
ETHYL 9-(PARA-PHENOXYPHENYL)-2,4-NONADIENOATE

>  <SYNONYMS>  (4197) 


>  <SPECTRUM TYPE>  (4197) 
MS1

>  <INSTRUMENT TYPE>  (4197) 
EI-B

>  <INSTRUMENT>  (4197) 
JEOL JMS-HX-100

>  <ION MODE>  (4197) 
P

>  <INCHIKEY>  (4197) 
CICFIKLRBCYDKV-OKOYHYLBSA-N

>  <FORMULA>  (4197) 
C23H26O3

>  <EXACT MASS>  (4197) 
350.188194692

>  <MW>  (4197) 
350

>  <ID>  (4197) 
JP004590

>  <CONTRIBUTOR>  (4197) 
University of Tokyo Team, {Faculty of Engineering, University of Tokyo

>  <COMMENT>  (4197) 
SMILES=CCOC(=O)C=CC=CCCCCc(c2)ccc(c2)Oc(c1)cccc1
InChI=InChI=1S/C23H26O3/c1-2-25-23(24)15-11-6-4-3-5-8-12-20-16-18-22(19-17-20)26-21-13-9-7-10-14-21/h4,6-7,9-11,13-19H,2-3,5,8,12H2,1H3/b6-4+,15-11+
computed SMILES=O=C(OCC)C=CC=CCCCCC1=CC=C(OC=2C=CC=CC2)C=C1
accession=JP004590
date=2016.01.19 (Created 2008.10.21, modified 2011.05.06)
author=HAYASHI A, DEPT. OF CHEMISTRY, FAC. OF SCI. AND TECHNOLOGY, KINKI UNIV.
license=CC BY-NC-SA
exact mass=350.18819
ionization energy=70 eV
ion type=[M]+*
computed spectral entropy=3.831744752094285
computed normalized entropy=0.8795044389059629
SPLASH=splash10-003r-4941000000-8e6fc749cfe98a0ba5a0
submitter=submitter = University of Tokyo Team (Faculty of Engineering, University of Tokyo)
MoNA Rating=3.75

>  <NUM PEAKS>  (4197) 
78

>  <MASS SPECTRAL PEAKS>  (4197) 
39 5.88
41 5.99
51 10.02
53 5.45
55 9.04
65 7.08
66 6.54
67 4.93
77 39.59
78 6.01
79 7.08
81 5.39
86 3.6
89 3.87
90 4.34
91 12.08
93 2.77
94 3.04
97 4.3
99 2.89
103 2.92
104 2.75
105 2.01
107 17.52
108 2.39
114 8.4
115 16.63
116 22.17
117 8.39
121 2.93
125 4.08
127 4.94
128 5.12
129 6.78
130 2.88
131 4.13
139 2.27
141 4.49
142 3.13
143 2.81
152 4.32
153 5.85
154 5.74
155 7.28
167 5.82
168 2.68
169 3.8
170 11.53
180 2.3
181 5.03
182 3.13
183 99.99
184 19.72
185 2.42
196 21.08
197 6.24
209 26.54
210 6.81
211 2.32
221 3.48
222 2.77
223 4.04
233 2.59
235 6.89
236 6.38
237 3.66
262 4.98
268 31.01
269 7.01
275 2.73
276 22.22
277 15.38
278 3.12
282 2.55
305 11.58
306 2.87
350 36.28
351 10.21

>  <PREDICTED SPECTRUM>  (4197) 
26 47
27 143
28 6
29 238
30 7
31 76
39 225
40 55
41 226
42 39
43 67
44 0
45 91
50 94
51 327
52 131
53 253
54 111
55 343
56 23
57 39
62 7
63 123
64 62
65 303
66 134
67 154
68 12
69 49
71 4
74 22
75 18
76 45
77 569
78 272
79 322
80 64
81 301
82 101
83 70
89 190
90 95
91 362
92 93
93 98
94 125
95 32
97 66
99 76
102 62
103 188
104 239
105 216
106 94
107 460
108 124
109 52
111 16
114 83
115 410
116 327
117 161
118 90
119 28
120 40
121 137
122 25
123 51
125 58
126 30
127 318
128 288
129 323
130 186
131 160
132 34
133 35
139 106
140 52
141 251
142 142
143 193
144 89
145 104
146 13
147 5
149 60
151 72
152 210
153 278
154 138
155 322
156 89
157 119
158 64
159 86
160 30
161 13
165 217
166 45
167 191
168 157
169 220
170 178
171 152
172 45
173 39
178 90
180 86
181 338
182 199
183 999
184 447
185 97
186 6
193 31
194 66
195 56
196 437
197 236
198 145
199 1
208 100
209 294
210 272
211 111
212 16
215 60
220 88
221 147
222 154
223 166
224 39
225 67
235 140
236 125
237 120
238 35
239 4
248 15
251 15
262 161
263 126
266 11
267 63
268 319
275 201
276 416
277 440
278 108
279 49
280 11
281 7
289 29
292 3
303 23
304 59
305 296
306 36
321 51
350 586
351 318
352 61

$$$$

     RDKit          2D

 24 25  0  0  0  0  0  0  0  0999 V2000
    5.2279    2.9835    0.0000 C   0  0  0  0  0  0  0  0  0  0  0  0
    6.5232    2.2271    0.0000 C   0  0  0  0  0  0  0  0  0  0  0  0
    3.9252    2.2399    0.0000 C   0  0  0  0  0  0  0  0  0  0  0  0
    7.8259    2.9707    0.0000 C   0  0  0  0  0  0  0  0  0  0  0  0
   -7.7630    2.9856    0.0000 C   0  0  0  0  0  0  0  0  0  0  0  0
    2.6298    2.9963    0.0000 C   0  0  0  0  0  0  0  0  0  0  0  0
   -7.7752    4.4856    0.0000 C   0  0  0  0  0  0  0  0  0  0  0  0
   -6.4570    2.2462    0.0000 C   0  0  0  0  0  0  0  0  0  0  0  0
    9.1212    2.2143    0.0000 C   0  0  0  0  0  0  0  0  0  0  0  0
    1.3271    2.2527    0.0000 C   0  0  0  0  0  0  0  0  0  0  0  0
   -6.4813    5.2461    0.0000 C   0  0  0  0  0  0  0  0  0  0  0  0
   -5.1631    3.0067    0.0000 C   0  0  0  0  0  0  0  0  0  0  0  0
   10.4240    2.9579    0.0000 C   0  0  0  0  0  0  0  0  0  0  0  0
   -1.2673    2.2591    0.0000 C   0  0  0  0  0  0  0  0  0  0  0  0
    0.0463    4.4839    0.0000 C   0  0  0  0  0  0  0  0  0  0  0  0
   -2.5518    2.9839    0.0000 C   0  0  0  0  0  0  0  0  0  0  0  0
   -1.2782    5.2781    0.0000 C   0  0  0  0  0  0  0  0  0  0  0  0
    0.0318    3.0091    0.0000 C   0  0  0  0  0  0  0  0  0  0  0  0
   -5.1752    4.5066    0.0000 C   0  0  0  0  0  0  0  0  0  0  0  0
   -2.5773    4.5281    0.0000 C   0  0  0  0  0  0  0  0  0  0  0  0
   11.7193    2.2015    0.0000 C   0  0  0  0  0  0  0  0  0  0  0  0
   11.7119    0.7015    0.0000 O   0  0  0  0  0  0  0  0  0  0  0  0
   13.0220    2.9451    0.0000 O   0  0  0  0  0  0  0  0  0  0  0  0
   -3.8824    5.2673    0.0000 O   0  0  0  0  0  0  0  0  0  0  0  0
  2  1  1  0
  3  1  1  0
  2  4  2  0
  6  3  1  0
  7  5  2  0
  8  5  1  0
  9  4  1  0
 10  6  1  0
 11  7  1  0
 12  8  2  0
  9 13  2  0
 16 14  2  0
 17 15  1  0
 18 10  1  0
 18 14  1  0
 18 15  2  0
 19 11  2  0
 19 12  1  0
 20 16  1  0
 20 17  2  0
 21 13  1  0
 22 21  2  0
 23 21  1  0
 24 19  1  0
 24 20  1  0
M  END
>  <NAME>  (4198) 
9-(PARA-PHENOXYPHNYL)-2,4-NONADIENOIC ACID

>  <SYNONYMS>  (4198) 


>  <SPECTRUM TYPE>  (4198) 
MS1

>  <INSTRUMENT TYPE>  (4198) 
EI-B

>  <INSTRUMENT>  (4198) 
JEOL JMS-HX-100

>  <ION MODE>  (4198) 
P

>  <INCHIKEY>  (4198) 
XRGBVKNNGJJCAV-SUMSYXJWSA-N

>  <FORMULA>  (4198) 
C21H22O3

>  <EXACT MASS>  (4198) 
322.156894564

>  <MW>  (4198) 
322

>  <ID>  (4198) 
JP004589

>  <CONTRIBUTOR>  (4198) 
University of Tokyo Team, {Faculty of Engineering, University of Tokyo

>  <COMMENT>  (4198) 
SMILES=OC(=O)C=CC=CCCCCc(c2)ccc(c2)Oc(c1)cccc1
InChI=InChI=1S/C21H22O3/c22-21(23)13-9-4-2-1-3-6-10-18-14-16-20(17-15-18)24-19-11-7-5-8-12-19/h2,4-5,7-9,11-17H,1,3,6,10H2,(H,22,23)/b4-2+,13-9+
computed SMILES=O=C(O)C=CC=CCCCCC1=CC=C(OC=2C=CC=CC2)C=C1
accession=JP004589
date=2016.01.19 (Created 2008.10.21, modified 2011.05.06)
author=HAYASHI A, DEPT. OF CHEMISTRY, FAC. OF SCI. AND TECHNOLOGY, KINKI UNIV.
license=CC BY-NC-SA
exact mass=322.15689
ionization energy=70 eV
ion type=[M]+*
computed spectral entropy=3.628126666654455
computed normalized entropy=0.8456266086233751
SPLASH=splash10-0089-5932000000-e9da515bac42fac9e184
submitter=submitter = University of Tokyo Team (Faculty of Engineering, University of Tokyo)
MoNA Rating=3.75

>  <NUM PEAKS>  (4198) 
73

>  <MASS SPECTRAL PEAKS>  (4198) 
39 9.47
41 12.31
43 3.57
44 3.2
45 2.28
50 2.19
51 14.19
52 2.33
53 4.58
55 5.73
57 3.13
63 2.34
65 8.66
66 3.06
67 5.47
69 2.46
76 2.05
77 46.33
78 7.62
79 6.06
81 2.83
89 4.98
90 5.31
91 14.2
93 2.1
97 3.48
103 3.35
104 2.96
107 18.97
108 2.59
115 19.63
116 25.58
117 9.43
127 2.97
128 5.46
129 7.52
130 2.8
131 4.41
139 2.05
141 4.59
142 3.16
143 3.16
152 2.83
153 4.78
154 3.37
155 7.76
165 2.17
169 3.16
170 12.7
171 2.05
181 4.78
183 99.99
184 19.85
185 2.48
196 20.46
197 6.37
209 38.59
210 9.12
221 4.36
222 2.51
223 2.91
235 8.75
236 8.42
237 2.83
240 35.41
241 6.75
254 2.95
262 2.33
276 2.2
277 5.54
322 71.09
323 18.6
324 2.88

>  <PREDICTED SPECTRUM>  (4198) 
26 34
27 139
28 25
29 147
30 2
31 84
39 235
40 34
41 326
42 64
43 98
44 38
45 99
47 8
50 94
51 349
52 127
53 190
54 55
55 442
56 9
57 21
62 4
63 142
64 71
65 328
66 125
67 216
68 23
69 71
71 17
74 32
75 80
76 89
77 648
78 323
79 359
80 85
81 207
82 79
83 139
84 31
85 40
86 41
89 194
90 121
91 476
92 151
93 148
94 148
95 50
97 67
99 35
101 21
102 110
103 201
104 282
105 192
106 74
107 552
108 122
109 52
111 114
113 51
114 127
115 492
116 387
117 286
118 164
119 48
120 9
121 64
122 10
123 86
127 239
128 310
129 354
130 141
131 229
132 94
133 44
135 55
139 58
140 23
141 258
142 163
143 126
145 42
146 11
147 19
149 50
150 44
151 23
152 146
153 306
154 188
155 407
156 5
157 53
158 4
159 12
165 180
166 86
167 57
168 174
169 205
170 149
171 18
180 79
181 357
182 176
183 999
184 443
185 164
192 3
193 108
194 108
195 226
196 436
197 253
198 81
199 87
207 106
208 130
209 329
210 333
211 165
212 33
221 194
223 59
226 5
228 72
233 38
234 117
235 200
236 201
237 112
238 65
239 93
240 487
247 92
248 79
251 4
263 26
275 107
276 154
277 309
278 63
306 20
322 972
323 410
324 126

$$$$

     RDKit          2D

 19 20  0  0  0  0  0  0  0  0999 V2000
   -1.6700   -0.9600    0.0000 C   0  0  0  0  0  0  0  0  0  0  0  0
   10.0118   -1.8003    0.0000 C   0  0  0  0  0  0  0  0  0  0  0  0
    8.7226   -1.0334    0.0000 C   0  0  0  0  0  0  0  0  0  0  0  0
   -1.6700    0.5400    0.0000 C   0  0  0  0  0  0  0  0  0  0  0  0
   -0.3700   -1.7100    0.0000 C   0  0  0  0  0  0  0  0  0  0  0  0
   11.3205   -1.0672    0.0000 C   0  0  0  0  0  0  0  0  0  0  0  0
    7.4139   -1.7665    0.0000 C   0  0  0  0  0  0  0  0  0  0  0  0
   -0.3700    1.2900    0.0000 C   0  0  0  0  0  0  0  0  0  0  0  0
    0.9300   -0.9600    0.0000 C   0  0  0  0  0  0  0  0  0  0  0  0
    4.8197   -1.7391    0.0000 C   0  0  0  0  0  0  0  0  0  0  0  0
    6.1512    0.4751    0.0000 C   0  0  0  0  0  0  0  0  0  0  0  0
    3.5411   -1.0039    0.0000 C   0  0  0  0  0  0  0  0  0  0  0  0
    4.8331    1.2799    0.0000 C   0  0  0  0  0  0  0  0  0  0  0  0
   12.6096   -1.8341    0.0000 C   0  0  0  0  0  0  0  0  0  0  0  0
    6.1247   -0.9996    0.0000 C   0  0  0  0  0  0  0  0  0  0  0  0
    0.9300    0.5400    0.0000 C   0  0  0  0  0  0  0  0  0  0  0  0
    3.5281    0.5404    0.0000 C   0  0  0  0  0  0  0  0  0  0  0  0
   13.9183   -1.1010    0.0000 O   0  0  0  0  0  0  0  0  0  0  0  0
    2.2289    1.2902    0.0000 O   0  0  0  0  0  0  0  0  0  0  0  0
  3  2  1  0
  4  1  2  0
  5  1  1  0
  6  2  1  0
  7  3  1  0
  8  4  1  0
  9  5  2  0
 12 10  2  0
 13 11  1  0
 14  6  1  0
 15  7  1  0
 15 10  1  0
 15 11  2  0
 16  8  2  0
 16  9  1  0
 17 12  1  0
 17 13  2  0
 18 14  2  0
 19 16  1  0
 19 17  1  0
M  END
>  <NAME>  (4199) 
5-(PARA-PHENOXYPHENYL)PENTANAL

>  <SYNONYMS>  (4199) 


>  <SPECTRUM TYPE>  (4199) 
MS1

>  <INSTRUMENT TYPE>  (4199) 
EI-B

>  <INSTRUMENT>  (4199) 
JEOL JMS-HX-100

>  <ION MODE>  (4199) 
P

>  <INCHIKEY>  (4199) 
PTCVKJYCZZJKTC-UHFFFAOYSA-N

>  <FORMULA>  (4199) 
C17H18O2

>  <EXACT MASS>  (4199) 
254.130679816

>  <MW>  (4199) 
254

>  <ID>  (4199) 
JP004588

>  <CONTRIBUTOR>  (4199) 
University of Tokyo Team, {Faculty of Engineering, University of Tokyo

>  <COMMENT>  (4199) 
SMILES=O=CCCCCc(c2)ccc(c2)Oc(c1)cccc1
InChI=InChI=1S/C17H18O2/c18-14-6-2-3-7-15-10-12-17(13-11-15)19-16-8-4-1-5-9-16/h1,4-5,8-14H,2-3,6-7H2
computed SMILES=O=CCCCCC1=CC=C(OC=2C=CC=CC2)C=C1
accession=JP004588
date=2016.01.19 (Created 2008.10.21, modified 2011.05.06)
author=HAYASHI A, DEPT. OF CHEMISTRY, FAC. OF SCI. AND TECHNOLOGY, KINKI UNIV.
license=CC BY-NC-SA
exact mass=254.13068
ionization energy=70 eV
ion type=[M]+*
computed spectral entropy=2.897212470727474
computed normalized entropy=0.7405918796253073
SPLASH=splash10-001i-5920000000-f1d304356981df1746b8
submitter=submitter = University of Tokyo Team (Faculty of Engineering, University of Tokyo)
MoNA Rating=3.75

>  <NUM PEAKS>  (4199) 
50

>  <MASS SPECTRAL PEAKS>  (4199) 
39 6.06
41 3.47
43 1.54
50 2.76
51 15.9
52 2.07
53 1.42
55 2.45
63 2.74
64 1.42
65 4.62
71 1.37
75 1.04
76 1.91
77 33.99
78 5
79 1.03
89 3.83
90 2.65
91 8.96
92 1.1
103 2.02
104 1.98
107 11.75
108 1.1
115 6.98
116 3.97
117 4.96
127 1.96
128 2.84
129 2.9
133 1.12
141 1.39
143 1.19
152 1.42
153 2.71
154 1.84
155 4.26
165 1.26
170 1.26
181 1.59
183 99.99
184 18.06
185 1.7
196 1.95
197 1.5
209 2.35
210 1.75
254 35.47
255 7.16

>  <PREDICTED SPECTRUM>  (4199) 
18 0
26 13
27 68
29 57
31 15
38 34
39 225
40 57
41 219
42 24
43 84
44 40
45 17
50 149
51 355
52 175
53 144
54 14
55 180
56 13
62 13
63 150
64 84
65 274
66 108
67 38
69 19
74 37
75 111
76 113
77 593
78 335
79 202
80 37
81 72
82 3
83 45
84 30
89 166
90 182
91 414
92 77
94 69
102 78
103 184
104 114
105 67
107 553
108 113
114 31
115 309
116 271
117 154
118 1
126 1
127 163
128 217
129 195
130 13
131 181
132 11
141 151
142 28
143 3
152 10
153 158
154 153
155 201
156 10
158 9
165 72
166 8
167 60
168 92
169 17
171 1
172 81
180 79
181 336
182 140
183 999
184 641
195 27
196 297
197 138
198 20
209 9
210 152
226 3
227 2
236 65
252 13
253 18
254 669
255 264
256 52

$$$$

     RDKit          2D

 26 26  0  0  0  0  0  0  0  0999 V2000
    9.0940   -7.5002    0.0000 C   0  0  0  0  0  0  0  0  0  0  0  0
   -9.0917  -12.0008    0.0000 C   0  0  0  0  0  0  0  0  0  0  0  0
  -15.5882   -8.2498    0.0000 C   0  0  0  0  0  0  0  0  0  0  0  0
    7.7950   -8.2502    0.0000 C   0  0  0  0  0  0  0  0  0  0  0  0
    6.4959   -7.5002    0.0000 C   0  0  0  0  0  0  0  0  0  0  0  0
    5.1969   -8.2502    0.0000 C   0  0  0  0  0  0  0  0  0  0  0  0
    3.8978   -7.5002    0.0000 C   0  0  0  0  0  0  0  0  0  0  0  0
    2.5988   -8.2502    0.0000 C   0  0  0  0  0  0  0  0  0  0  0  0
    1.2998   -7.5002    0.0000 C   0  0  0  0  0  0  0  0  0  0  0  0
    0.0007   -8.2502    0.0000 C   0  0  0  0  0  0  0  0  0  0  0  0
   -1.2983   -7.5002    0.0000 C   0  0  0  0  0  0  0  0  0  0  0  0
   -2.5974   -8.2502    0.0000 C   0  0  0  0  0  0  0  0  0  0  0  0
   -3.8964   -7.5002    0.0000 C   0  0  0  0  0  0  0  0  0  0  0  0
   -5.1954   -8.2502    0.0000 C   0  0  0  0  0  0  0  0  0  0  0  0
   -6.4945   -7.5002    0.0000 C   0  0  0  0  0  0  0  0  0  0  0  0
   -7.7935   -8.2502    0.0000 C   0  0  0  0  0  0  0  0  0  0  0  0
   -9.0925   -7.5002    0.0000 C   0  0  0  0  0  0  0  0  0  0  0  0
  -11.6901  -10.5010    0.0000 C   0  0  0  0  0  0  0  0  0  0  0  0
  -12.9897   -9.7502    0.0000 C   0  0  0  0  0  0  0  0  0  0  0  0
  -10.3916   -8.2502    0.0000 C   0  0  0  0  0  0  0  0  0  0  0  0
  -10.3911   -9.7510    0.0000 C   0  0  0  0  0  0  0  0  0  0  0  0
  -12.9901   -8.2494    0.0000 C   0  0  0  0  0  0  0  0  0  0  0  0
  -11.6911   -7.4994    0.0000 C   0  0  0  0  0  0  0  0  0  0  0  0
  -11.6909   -5.9994    0.0000 O   0  0  0  0  0  0  0  0  0  0  0  0
   -9.0919  -10.5008    0.0000 O   0  0  0  0  0  0  0  0  0  0  0  0
  -14.2893   -7.4996    0.0000 O   0  0  0  0  0  0  0  0  0  0  0  0
  4  1  1  0
  5  4  1  0
  6  5  1  0
  7  6  1  0
  7  8  2  0
  9  8  1  0
 10  9  1  0
 11 10  1  0
 12 11  1  0
 13 12  1  0
 14 13  1  0
 15 14  1  0
 16 15  1  0
 17 16  1  0
 19 18  2  0
 20 17  1  0
 21 18  1  0
 21 20  2  0
 22 19  1  0
 23 20  1  0
 23 22  2  0
 24 23  1  0
 25  2  1  0
 25 21  1  0
 26  3  1  0
 26 22  1  0
M  END
>  <NAME>  (4200) 
3,6-DIMETHOXY-2-(10-PENTADECENYL)PHENOL

>  <SYNONYMS>  (4200) 


>  <SPECTRUM TYPE>  (4200) 
MS1

>  <INSTRUMENT TYPE>  (4200) 
EI-B

>  <INSTRUMENT>  (4200) 
JEOL JMS-HX-100

>  <ION MODE>  (4200) 
P

>  <INCHIKEY>  (4200) 
XVPHAYWQBAYETP-BQYQJAHWSA-N

>  <FORMULA>  (4200) 
C23H38O3

>  <EXACT MASS>  (4200) 
362.282095076

>  <MW>  (4200) 
362

>  <ID>  (4200) 
JP004587

>  <CONTRIBUTOR>  (4200) 
University of Tokyo Team, {Faculty of Engineering, University of Tokyo

>  <COMMENT>  (4200) 
SMILES=CCCCC=CCCCCCCCCCc(c(OC)1)c(O)c(OC)cc1
InChI=InChI=1S/C23H38O3/c1-4-5-6-7-8-9-10-11-12-13-14-15-16-17-20-21(25-2)18-19-22(26-3)23(20)24/h7-8,18-19,24H,4-6,9-17H2,1-3H3/b8-7+
computed SMILES=OC=1C(OC)=CC=C(OC)C1CCCCCCCCCC=CCCCC
accession=JP004587
date=2016.01.19 (Created 2008.10.21, modified 2011.05.06)
author=HAYASHI A, DEPT. OF CHEMISTRY, FAC. OF SCI. AND TECHNOLOGY, KINKI UNIV.
license=CC BY-NC-SA
exact mass=362.2821
ionization energy=70 eV
ion type=[M]+*
computed spectral entropy=2.5631551818510485
computed normalized entropy=0.7098347965418261
SPLASH=splash10-03xr-3908000000-3313d451511190905514
submitter=submitter = University of Tokyo Team (Faculty of Engineering, University of Tokyo)
MoNA Rating=3.75

>  <NUM PEAKS>  (4200) 
37

>  <MASS SPECTRAL PEAKS>  (4200) 
39 1.99
41 9.56
42 1.71
43 6.15
53 1.56
54 1.55
55 11.78
57 1.44
67 3.59
69 3.51
77 2.13
79 2.73
81 3.56
83 1.26
91 2.64
94 1.51
95 2.19
97 1.23
107 4.49
109 2.19
122 4.57
123 3.99
137 14.08
138 2.19
139 2.44
151 1.46
152 2.21
153 18.47
154 3.72
165 1.88
166 1.94
167 72.57
168 8.44
180 1.61
362 99.99
363 27.59
364 4.34

>  <PREDICTED SPECTRUM>  (4200) 
27 16
29 31
39 58
41 293
43 165
51 15
53 93
54 47
55 310
56 24
57 85
65 111
66 75
67 200
68 22
69 196
77 220
78 45
79 183
80 50
81 192
82 32
83 38
91 183
93 74
94 67
95 140
96 59
97 73
103 49
105 123
107 108
108 16
109 149
110 24
111 49
115 31
119 7
121 85
122 66
123 170
124 75
125 68
131 41
135 21
137 220
138 233
139 131
140 9
141 2
146 8
147 46
149 18
151 95
152 60
153 143
154 118
155 121
157 3
161 24
163 14
165 133
166 190
167 999
168 352
169 35
177 19
181 35
196 1
245 8
362 917
363 413
364 129

$$$$

     RDKit          2D

 26 26  0  0  0  0  0  0  0  0999 V2000
   20.7855   -1.5031    0.0000 C   0  0  0  0  0  0  0  0  0  0  0  0
   -3.8981   -0.7504    0.0000 C   0  0  0  0  0  0  0  0  0  0  0  0
   19.4865   -0.7529    0.0000 C   0  0  0  0  0  0  0  0  0  0  0  0
   18.1874   -1.5027    0.0000 C   0  0  0  0  0  0  0  0  0  0  0  0
   16.8885   -0.7525    0.0000 C   0  0  0  0  0  0  0  0  0  0  0  0
   15.5893   -1.5023    0.0000 C   0  0  0  0  0  0  0  0  0  0  0  0
   14.2904   -0.7521    0.0000 C   0  0  0  0  0  0  0  0  0  0  0  0
   12.9912   -1.5019    0.0000 C   0  0  0  0  0  0  0  0  0  0  0  0
   11.6923   -0.7517    0.0000 C   0  0  0  0  0  0  0  0  0  0  0  0
   10.3931   -1.5015    0.0000 C   0  0  0  0  0  0  0  0  0  0  0  0
    9.0942   -0.7512    0.0000 C   0  0  0  0  0  0  0  0  0  0  0  0
    7.7951   -1.5010    0.0000 C   0  0  0  0  0  0  0  0  0  0  0  0
    6.4962   -0.7508    0.0000 C   0  0  0  0  0  0  0  0  0  0  0  0
    5.1970   -1.5006    0.0000 C   0  0  0  0  0  0  0  0  0  0  0  0
    3.8981   -0.7504    0.0000 C   0  0  0  0  0  0  0  0  0  0  0  0
    2.5989   -1.5002    0.0000 C   0  0  0  0  0  0  0  0  0  0  0  0
   -1.3000    0.7500    0.0000 C   0  0  0  0  0  0  0  0  0  0  0  0
    1.3000   -0.7500    0.0000 C   0  0  0  0  0  0  0  0  0  0  0  0
    0.0000    1.5000    0.0000 C   0  0  0  0  0  0  0  0  0  0  0  0
   -1.3000   -0.7500    0.0000 C   0  0  0  0  0  0  0  0  0  0  0  0
    1.3000    0.7500    0.0000 C   0  0  0  0  0  0  0  0  0  0  0  0
    0.0000   -1.5000    0.0000 C   0  0  0  0  0  0  0  0  0  0  0  0
    0.0000    3.0000    0.0000 O   0  0  0  0  0  0  0  0  0  0  0  0
    2.5989    1.5002    0.0000 O   0  0  0  0  0  0  0  0  0  0  0  0
   -0.0000   -3.0000    0.0000 O   0  0  0  0  0  0  0  0  0  0  0  0
   -2.5989   -1.5002    0.0000 O   0  0  0  0  0  0  0  0  0  0  0  0
  3  1  1  0
  4  3  1  0
  5  4  1  0
  6  5  1  0
  6  7  2  0
  8  7  1  0
  9  8  1  0
 10  9  1  0
 11 10  1  0
 12 11  1  0
 13 12  1  0
 14 13  1  0
 15 14  1  0
 16 15  1  0
 18 16  1  0
 19 17  1  0
 20 17  2  0
 21 18  2  0
 21 19  1  0
 22 18  1  0
 22 20  1  0
 23 19  2  0
 24 21  1  0
 25 22  2  0
 26  2  1  0
 26 20  1  0
M  END
>  <NAME>  (4201) 
2-HYDROXY-5-METHOXY-3-(10-PENTADECENYL)-PARA-BENZOQUINONE

>  <SYNONYMS>  (4201) 
MAESANINE

>  <SPECTRUM TYPE>  (4201) 
MS1

>  <INSTRUMENT TYPE>  (4201) 
EI-B

>  <INSTRUMENT>  (4201) 
JEOL JMS-HX-100

>  <ION MODE>  (4201) 
P

>  <INCHIKEY>  (4201) 
WVHQJXPRVZBEFP-VOTSOKGWSA-N

>  <FORMULA>  (4201) 
C22H34O4

>  <EXACT MASS>  (4201) 
362.245709568

>  <MW>  (4201) 
362

>  <ID>  (4201) 
JP004586

>  <CONTRIBUTOR>  (4201) 
University of Tokyo Team, {Faculty of Engineering, University of Tokyo

>  <COMMENT>  (4201) 
SMILES=CCCCC=CCCCCCCCCCc(c(O)1)c(=O)c(OC)cc(=O)1
InChI=InChI=1S/C22H34O4/c1-3-4-5-6-7-8-9-10-11-12-13-14-15-16-18-21(24)19(23)17-20(26-2)22(18)25/h6-7,17,24H,3-5,8-16H2,1-2H3/b7-6+
computed SMILES=O=C1C=C(OC)C(=O)C(=C1O)CCCCCCCCCC=CCCCC
accession=JP004586
date=2016.01.19 (Created 2008.10.21, modified 2011.05.06)
author=HAYASHI A, DEPT. OF CHEMISTRY, FAC. OF SCI. AND TECHNOLOGY, KINKI UNIV.
license=CC BY-NC-SA
exact mass=362.24571
ionization energy=70 eV
ion type=[M]+*
computed spectral entropy=3.0860400982627434
computed normalized entropy=0.8483758082296177
SPLASH=splash10-02t9-5904000000-df702e0f77911f8f93c0
submitter=submitter = University of Tokyo Team (Faculty of Engineering, University of Tokyo)
MoNA Rating=3.75

>  <NUM PEAKS>  (4201) 
38

>  <MASS SPECTRAL PEAKS>  (4201) 
39 5.83
41 37.99
42 4.86
43 16.57
53 5.64
54 6.52
55 53.29
56 5.3
57 6.17
67 16.58
69 20.6
79 4.93
81 13.1
83 7.77
95 10.21
109 5.67
125 5.84
139 20.35
140 4.11
141 7.17
149 5.5
153 20.08
154 5.38
155 10.1
156 9.72
163 5.31
167 27.93
168 99.99
169 84.34
170 12.39
179 4.01
182 7.37
193 8.53
348 5.4
362 95.43
363 26.63
364 22.27
365 4.66

>  <PREDICTED SPECTRUM>  (4201) 
29 44
41 576
42 144
43 463
44 53
52 36
53 258
54 208
55 741
56 49
57 217
65 6
66 59
67 348
68 71
69 460
77 160
78 3
79 219
80 98
81 368
82 115
83 197
95 121
96 22
97 62
98 51
107 111
109 84
111 145
112 90
113 48
115 9
123 153
124 130
125 192
127 15
128 31
135 53
136 134
137 23
138 102
139 394
140 238
141 272
142 58
151 59
153 406
154 291
155 287
156 155
157 32
166 130
167 871
168 736
169 761
170 356
171 26
181 173
182 215
183 76
184 54
195 11
196 105
197 41
334 70
335 25
362 999
363 540
364 534
365 252

$$$$

     RDKit          2D

 28 28  0  0  0  0  0  0  0  0999 V2000
   -8.3761   -6.3301    0.0000 C   0  0  0  0  0  0  0  0  0  0  0  0
   16.3061   -8.5826    0.0000 C   0  0  0  0  0  0  0  0  0  0  0  0
   16.3062   -5.5824    0.0000 C   0  0  0  0  0  0  0  0  0  0  0  0
   -7.0769   -5.5803    0.0000 C   0  0  0  0  0  0  0  0  0  0  0  0
   15.0070   -7.8328    0.0000 C   0  0  0  0  0  0  0  0  0  0  0  0
   -5.7780   -6.3305    0.0000 C   0  0  0  0  0  0  0  0  0  0  0  0
   -4.4789   -5.5807    0.0000 C   0  0  0  0  0  0  0  0  0  0  0  0
   -3.1799   -6.3309    0.0000 C   0  0  0  0  0  0  0  0  0  0  0  0
   -1.8808   -5.5811    0.0000 C   0  0  0  0  0  0  0  0  0  0  0  0
   -0.5819   -6.3314    0.0000 C   0  0  0  0  0  0  0  0  0  0  0  0
    0.7173   -5.5816    0.0000 C   0  0  0  0  0  0  0  0  0  0  0  0
    2.0162   -6.3318    0.0000 C   0  0  0  0  0  0  0  0  0  0  0  0
    3.3154   -5.5820    0.0000 C   0  0  0  0  0  0  0  0  0  0  0  0
    4.6143   -6.3322    0.0000 C   0  0  0  0  0  0  0  0  0  0  0  0
    5.9134   -5.5824    0.0000 C   0  0  0  0  0  0  0  0  0  0  0  0
    7.2124   -6.3326    0.0000 C   0  0  0  0  0  0  0  0  0  0  0  0
    8.5115   -5.5828    0.0000 C   0  0  0  0  0  0  0  0  0  0  0  0
   12.4096   -3.3316    0.0000 C   0  0  0  0  0  0  0  0  0  0  0  0
    9.8104   -6.3330    0.0000 C   0  0  0  0  0  0  0  0  0  0  0  0
   11.1101   -4.0824    0.0000 C   0  0  0  0  0  0  0  0  0  0  0  0
   13.7086   -4.0816    0.0000 C   0  0  0  0  0  0  0  0  0  0  0  0
   11.1096   -5.5832    0.0000 C   0  0  0  0  0  0  0  0  0  0  0  0
   13.7082   -5.5824    0.0000 C   0  0  0  0  0  0  0  0  0  0  0  0
   12.4086   -6.3332    0.0000 C   0  0  0  0  0  0  0  0  0  0  0  0
   12.4089   -7.8332    0.0000 C   0  0  0  0  0  0  0  0  0  0  0  0
   11.1100   -8.5834    0.0000 O   0  0  0  0  0  0  0  0  0  0  0  0
   15.0072   -6.3324    0.0000 O   0  0  0  0  0  0  0  0  0  0  0  0
   13.7080   -8.5830    0.0000 O   0  0  0  0  0  0  0  0  0  0  0  0
  4  1  1  0
  5  2  1  0
  6  4  1  0
  7  6  1  0
  8  7  1  0
  9  8  1  0
 10  9  1  0
 11 10  1  0
 12 11  1  0
 13 12  1  0
 14 13  1  0
 15 14  1  0
 16 15  1  0
 17 16  1  0
 17 19  2  0
 20 18  2  0
 21 18  1  0
 22 19  1  0
 22 20  1  0
 23 21  2  0
 24 22  2  0
 24 23  1  0
 25 24  1  0
 26 25  2  0
 27  3  1  0
 27 23  1  0
 28  5  1  0
 28 25  1  0
M  END
>  <NAME>  (4202) 
ETHYL2-METHOXY-6(1-PENTDECENYL)BENZOATE

>  <SYNONYMS>  (4202) 


>  <SPECTRUM TYPE>  (4202) 
MS1

>  <INSTRUMENT TYPE>  (4202) 
EI-B

>  <INSTRUMENT>  (4202) 
JEOL JMS-HX-100

>  <ION MODE>  (4202) 
P

>  <INCHIKEY>  (4202) 
JUWPXQAVBPMMNP-HTXNQAPBSA-N

>  <FORMULA>  (4202) 
C25H40O3

>  <EXACT MASS>  (4202) 
388.29774513999996

>  <MW>  (4202) 
388

>  <ID>  (4202) 
JP004585

>  <CONTRIBUTOR>  (4202) 
University of Tokyo Team, {Faculty of Engineering, University of Tokyo

>  <COMMENT>  (4202) 
SMILES=CCCCCCCCCCCCCC=Cc(c1)c(C(=O)OCC)c(OC)cc1
InChI=InChI=1S/C25H40O3/c1-4-6-7-8-9-10-11-12-13-14-15-16-17-19-22-20-18-21-23(27-3)24(22)25(26)28-5-2/h17-21H,4-16H2,1-3H3/b19-17+
computed SMILES=O=C(OCC)C=1C(OC)=CC=CC1C=CCCCCCCCCCCCCC
accession=JP004585
date=2016.01.19 (Created 2008.10.21, modified 2011.05.06)
author=HAYASHI A, DEPT. OF CHEMISTRY, FAC. OF SCI. AND TECHNOLOGY, KINKI UNIV.
license=CC BY-NC-SA
exact mass=388.29775
ionization energy=70 eV
ion type=[M]+*
computed spectral entropy=3.8486185810811637
computed normalized entropy=0.8171979829344181
SPLASH=splash10-0a4l-1963000000-a07041eb831b561e1701
submitter=submitter = University of Tokyo Team (Faculty of Engineering, University of Tokyo)
MoNA Rating=3.75

>  <NUM PEAKS>  (4202) 
111

>  <MASS SPECTRAL PEAKS>  (4202) 
40 1.93
43 0.79
44 0.14
45 0.89
55 0.9
56 0.32
57 1.53
67 0.69
69 1.52
70 0.38
71 0.89
81 1.19
83 1.36
85 0.38
91 0.28
95 0.81
97 1
121 2.04
122 0.86
123 0.35
128 0.36
129 0.96
130 0.35
131 0.33
132 1.23
133 0.4
135 0.5
145 0.83
146 1.46
147 5.71
148 5.37
149 1.62
150 0.59
155 0.28
156 0.85
157 0.42
158 0.41
159 1.94
160 2
161 5.89
162 1.01
163 3.95
164 1.97
165 1.41
166 0.51
170 0.31
171 0.38
172 0.33
173 3.11
177 9.5
178 1.59
179 0.6
183 0.38
185 0.58
186 0.35
187 12.58
188 5.33
189 1.89
190 0.44
191 0.83
192 6.05
193 1.47
194 12.93
195 1.61
197 0.04
199 0.9
200 0.33
201 5.37
202 1.37
203 0.53
205 34.59
206 7.36
207 1.48
211 0.51
213 0.5
215 3.21
216 0.78
219 4.53
220 2.85
221 0.48
229 0.1
230 0.37
233 1.41
234 0.47
243 0.31
247 0.76
248 0.31
261 1.13
262 0.28
275 0.88
276 0.28
289 0.56
303 0.41
313 0.38
315 1.23
316 0.35
317 0.46
324 0.31
327 0.31
331 0.46
340 0.35
341 0.88
342 3.66
343 8.56
344 2.22
345 0.57
359 12.2
360 3.18
361 0.52
387 0.35
390 0.9

>  <PREDICTED SPECTRUM>  (4202) 
27 70
29 158
30 102
33 11
34 21
39 215
40 73
41 643
42 64
43 709
44 104
45 165
49 50
51 78
52 13
53 156
54 54
55 387
56 79
57 214
58 45
59 31
63 58
64 54
65 173
66 27
67 207
69 227
70 43
71 108
73 168
75 86
77 319
78 210
79 308
80 48
81 78
82 13
83 57
85 14
86 18
89 175
90 179
91 348
92 90
93 31
95 32
97 80
101 69
102 78
103 218
104 184
105 479
106 206
107 234
108 36
109 28
115 245
116 260
117 325
118 318
119 325
120 35
121 303
122 125
123 154
127 86
128 33
129 193
130 166
131 277
132 343
133 297
134 303
135 212
136 3
137 22
141 52
142 58
143 50
144 178
145 397
146 323
147 382
148 347
149 400
150 454
151 112
155 160
156 47
157 330
158 135
159 246
160 215
161 810
162 205
163 489
164 158
165 236
166 76
169 29
170 50
171 124
172 227
173 382
174 298
175 327
176 348
177 597
178 253
179 171
180 277
183 59
184 12
185 216
186 160
187 385
188 374
189 235
190 122
191 299
192 469
193 351
194 492
195 95
199 53
200 139
201 355
202 224
203 189
204 46
205 463
206 237
207 78
211 74
213 139
214 8
215 257
216 87
219 378
220 274
221 108
225 70
226 5
227 149
228 74
229 176
230 6
233 205
234 111
240 73
241 37
243 65
255 24
256 12
257 37
258 78
270 26
271 2
285 85
299 6
313 119
314 31
316 4
327 106
329 42
330 69
332 14
341 55
342 392
343 713
344 243
345 7
359 37
371 106
374 32
387 35
388 999
389 410
390 218
391 50

$$$$

     RDKit          2D

 28 28  0  0  0  0  0  0  0  0999 V2000
   -8.3761   -6.3301    0.0000 C   0  0  0  0  0  0  0  0  0  0  0  0
   16.3061   -8.5826    0.0000 C   0  0  0  0  0  0  0  0  0  0  0  0
   16.3062   -5.5824    0.0000 C   0  0  0  0  0  0  0  0  0  0  0  0
   -7.0769   -5.5803    0.0000 C   0  0  0  0  0  0  0  0  0  0  0  0
   15.0070   -7.8328    0.0000 C   0  0  0  0  0  0  0  0  0  0  0  0
   -5.7780   -6.3305    0.0000 C   0  0  0  0  0  0  0  0  0  0  0  0
   -4.4789   -5.5807    0.0000 C   0  0  0  0  0  0  0  0  0  0  0  0
   -3.1799   -6.3309    0.0000 C   0  0  0  0  0  0  0  0  0  0  0  0
   -1.8808   -5.5811    0.0000 C   0  0  0  0  0  0  0  0  0  0  0  0
   -0.5819   -6.3314    0.0000 C   0  0  0  0  0  0  0  0  0  0  0  0
    0.7173   -5.5816    0.0000 C   0  0  0  0  0  0  0  0  0  0  0  0
    2.0162   -6.3318    0.0000 C   0  0  0  0  0  0  0  0  0  0  0  0
    3.3154   -5.5820    0.0000 C   0  0  0  0  0  0  0  0  0  0  0  0
    4.6143   -6.3322    0.0000 C   0  0  0  0  0  0  0  0  0  0  0  0
    5.9134   -5.5824    0.0000 C   0  0  0  0  0  0  0  0  0  0  0  0
    7.2124   -6.3326    0.0000 C   0  0  0  0  0  0  0  0  0  0  0  0
    8.5115   -5.5828    0.0000 C   0  0  0  0  0  0  0  0  0  0  0  0
   12.4096   -3.3316    0.0000 C   0  0  0  0  0  0  0  0  0  0  0  0
    9.8104   -6.3330    0.0000 C   0  0  0  0  0  0  0  0  0  0  0  0
   11.1101   -4.0824    0.0000 C   0  0  0  0  0  0  0  0  0  0  0  0
   13.7086   -4.0816    0.0000 C   0  0  0  0  0  0  0  0  0  0  0  0
   11.1096   -5.5832    0.0000 C   0  0  0  0  0  0  0  0  0  0  0  0
   13.7082   -5.5824    0.0000 C   0  0  0  0  0  0  0  0  0  0  0  0
   12.4086   -6.3332    0.0000 C   0  0  0  0  0  0  0  0  0  0  0  0
   12.4089   -7.8332    0.0000 C   0  0  0  0  0  0  0  0  0  0  0  0
   11.1100   -8.5834    0.0000 O   0  0  0  0  0  0  0  0  0  0  0  0
   15.0072   -6.3324    0.0000 O   0  0  0  0  0  0  0  0  0  0  0  0
   13.7080   -8.5830    0.0000 O   0  0  0  0  0  0  0  0  0  0  0  0
  4  1  1  0
  5  2  1  0
  6  4  1  0
  7  6  1  0
  8  7  1  0
  9  8  1  0
 10  9  1  0
 11 10  1  0
 12 11  1  0
 13 12  1  0
 14 13  1  0
 15 14  1  0
 16 15  1  0
 17 16  1  0
 19 17  1  0
 20 18  2  0
 21 18  1  0
 22 19  1  0
 22 20  1  0
 23 21  2  0
 24 22  2  0
 24 23  1  0
 25 24  1  0
 26 25  2  0
 27  3  1  0
 27 23  1  0
 28  5  1  0
 28 25  1  0
M  END
>  <NAME>  (4203) 
ETHYL 2-METHOXY-6-PENTADECYLBENZOATE

>  <SYNONYMS>  (4203) 


>  <SPECTRUM TYPE>  (4203) 
MS1

>  <INSTRUMENT TYPE>  (4203) 
EI-B

>  <INSTRUMENT>  (4203) 
JEOL JMS-HX-100

>  <ION MODE>  (4203) 
P

>  <INCHIKEY>  (4203) 
SQFAYXIKUHVPRT-UHFFFAOYSA-N

>  <FORMULA>  (4203) 
C25H42O3

>  <EXACT MASS>  (4203) 
390.313395204

>  <MW>  (4203) 
390

>  <ID>  (4203) 
JP004584

>  <CONTRIBUTOR>  (4203) 
University of Tokyo Team, {Faculty of Engineering, University of Tokyo

>  <COMMENT>  (4203) 
SMILES=CCCCCCCCCCCCCCCc(c1)c(C(=O)OCC)c(OC)cc1
InChI=InChI=1S/C25H42O3/c1-4-6-7-8-9-10-11-12-13-14-15-16-17-19-22-20-18-21-23(27-3)24(22)25(26)28-5-2/h18,20-21H,4-17,19H2,1-3H3
computed SMILES=O=C(OCC)C=1C(OC)=CC=CC1CCCCCCCCCCCCCCC
accession=JP004584
date=2016.01.19 (Created 2008.10.21, modified 2011.05.06)
author=HAYASHI A, DEPT. OF CHEMISTRY, FAC. OF SCI. AND TECHNOLOGY, KINKI UNIV.
license=CC BY-NC-SA
exact mass=390.3134
ionization energy=70 eV
ion type=[M]+*
computed spectral entropy=3.4910802287689005
computed normalized entropy=0.8597781620629373
SPLASH=splash10-03dl-2901000000-3f13d6f68bfb07c5ca58
submitter=submitter = University of Tokyo Team (Faculty of Engineering, University of Tokyo)
MoNA Rating=3.75

>  <NUM PEAKS>  (4203) 
58

>  <MASS SPECTRAL PEAKS>  (4203) 
39 2.29
41 17.66
42 2.65
43 26.7
55 14.64
57 9.61
67 2.63
69 6.45
71 2.29
77 4.77
78 2.16
79 3.52
81 2.02
83 2.62
90 4
91 9.31
103 2.82
105 4.74
107 3.13
115 2.34
119 2.02
121 29.3
122 9.69
131 2.18
132 2.39
133 4.01
134 3.75
135 7.65
146 4.2
147 10.68
148 16.41
149 8.17
150 6.09
159 4.25
160 3.59
161 99.99
162 24.98
163 10.1
165 9.73
174 2.3
175 19.14
176 7.6
177 3.75
179 3.87
189 4.01
190 4.51
193 9.26
194 36.71
195 4.87
203 3.25
204 3.87
207 10.05
217 2.74
344 2.93
345 34.47
346 9.46
390 24.15
391 7.07

>  <PREDICTED SPECTRUM>  (4203) 
17 9
18 19
26 3
27 92
28 11
29 146
39 125
40 54
41 411
42 101
43 501
44 36
45 103
49 8
51 78
52 24
53 135
54 69
55 297
56 80
57 231
58 23
59 11
63 28
64 5
65 86
66 9
67 169
68 58
69 226
70 55
71 159
75 5
77 196
78 117
79 213
80 26
81 105
82 74
83 117
84 84
85 54
89 68
90 81
91 271
92 32
93 17
95 30
97 72
101 2
103 112
104 81
105 311
106 79
107 133
108 1
109 5
111 0
115 109
116 26
117 108
118 92
119 189
120 18
121 386
122 108
123 7
127 58
131 111
132 138
133 201
134 154
135 168
136 37
137 54
144 26
145 73
146 124
147 268
148 338
149 233
150 212
151 122
157 39
158 49
159 144
160 210
161 999
162 413
163 256
164 65
165 286
166 163
167 68
172 32
173 21
174 125
175 383
176 278
177 146
178 66
179 261
180 106
188 72
189 220
190 181
191 147
192 50
193 146
194 315
195 132
196 50
202 61
203 224
204 181
205 75
207 196
208 42
217 114
218 77
219 11
221 65
222 39
227 16
229 37
231 131
232 50
242 10
243 20
259 42
260 34
287 0
291 7
301 16
305 5
315 37
317 4
329 46
332 28
344 196
345 686
346 228
389 4
390 655
391 261
392 117
393 2

$$$$

     RDKit          2D

 21 21  0  0  0  0  0  0  0  0999 V2000
   19.1165    0.5429    0.0000 C   0  0  0  0  0  0  0  0  0  0  0  0
   17.8174    1.2927    0.0000 C   0  0  0  0  0  0  0  0  0  0  0  0
    8.7242    0.5412    0.0000 C   0  0  0  0  0  0  0  0  0  0  0  0
   10.0231    1.2915    0.0000 C   0  0  0  0  0  0  0  0  0  0  0  0
    7.4251    1.2910    0.0000 C   0  0  0  0  0  0  0  0  0  0  0  0
   11.3223    0.5417    0.0000 C   0  0  0  0  0  0  0  0  0  0  0  0
    6.1262    0.5408    0.0000 C   0  0  0  0  0  0  0  0  0  0  0  0
   -1.6700   -0.9600    0.0000 C   0  0  0  0  0  0  0  0  0  0  0  0
   -1.6700    0.5400    0.0000 C   0  0  0  0  0  0  0  0  0  0  0  0
   -0.3700   -1.7100    0.0000 C   0  0  0  0  0  0  0  0  0  0  0  0
   12.6212    1.2919    0.0000 C   0  0  0  0  0  0  0  0  0  0  0  0
    4.8270    1.2906    0.0000 C   0  0  0  0  0  0  0  0  0  0  0  0
   -0.3700    1.2900    0.0000 C   0  0  0  0  0  0  0  0  0  0  0  0
    0.9300   -0.9600    0.0000 C   0  0  0  0  0  0  0  0  0  0  0  0
   13.9204    0.5421    0.0000 C   0  0  0  0  0  0  0  0  0  0  0  0
    3.5281    0.5404    0.0000 C   0  0  0  0  0  0  0  0  0  0  0  0
    0.9300    0.5400    0.0000 C   0  0  0  0  0  0  0  0  0  0  0  0
   15.2193    1.2923    0.0000 C   0  0  0  0  0  0  0  0  0  0  0  0
   15.2191    2.7923    0.0000 O   0  0  0  0  0  0  0  0  0  0  0  0
   16.5185    0.5425    0.0000 O   0  0  0  0  0  0  0  0  0  0  0  0
    2.2289    1.2902    0.0000 O   0  0  0  0  0  0  0  0  0  0  0  0
  2  1  1  0
  4  3  1  0
  5  3  1  0
  4  6  2  0
  7  5  1  0
  9  8  2  0
 10  8  1  0
 11  6  1  0
 12  7  1  0
 13  9  1  0
 14 10  2  0
 11 15  2  0
 16 12  1  0
 17 13  2  0
 17 14  1  0
 18 15  1  0
 19 18  2  0
 20  2  1  0
 20 18  1  0
 21 16  1  0
 21 17  1  0
M  END
>  <NAME>  (4204) 
ETHYL 10-PHENOXY-2,4-DECADIENOATE

>  <SYNONYMS>  (4204) 


>  <SPECTRUM TYPE>  (4204) 
MS1

>  <INSTRUMENT TYPE>  (4204) 
EI-B

>  <INSTRUMENT>  (4204) 
SHIMADZU LKB-9000B

>  <ION MODE>  (4204) 
P

>  <INCHIKEY>  (4204) 
UBCABTOWERAKNF-OKOYHYLBSA-N

>  <FORMULA>  (4204) 
C18H24O3

>  <EXACT MASS>  (4204) 
288.17254462799997

>  <MW>  (4204) 
288

>  <ID>  (4204) 
JP004583

>  <CONTRIBUTOR>  (4204) 
University of Tokyo Team, {Faculty of Engineering, University of Tokyo

>  <COMMENT>  (4204) 
SMILES=CCOC(=O)C=CC=CCCCCCOc(c1)cccc1
InChI=InChI=1S/C18H24O3/c1-2-20-18(19)15-11-6-4-3-5-7-12-16-21-17-13-9-8-10-14-17/h4,6,8-11,13-15H,2-3,5,7,12,16H2,1H3/b6-4+,15-11+
computed SMILES=O=C(OCC)C=CC=CCCCCCOC=1C=CC=CC1
accession=JP004583
date=2016.01.19 (Created 2008.10.21, modified 2011.05.06)
author=HAYASHI A, DEPT. OF CHEMISTRY, FAC. OF SCI. AND TECHNOLOGY, KINKI UNIV.
license=CC BY-NC-SA
exact mass=288.17254
ionization energy=70 eV
ion type=[M]+*
computed spectral entropy=3.7832948999452998
computed normalized entropy=0.7760290813133925
SPLASH=splash10-056v-9510000000-ed0a8eb548e48e739715
submitter=submitter = University of Tokyo Team (Faculty of Engineering, University of Tokyo)
MoNA Rating=3.75

>  <NUM PEAKS>  (4204) 
131

>  <MASS SPECTRAL PEAKS>  (4204) 
37 0.5
38 1.7
39 18.5
41 2.6
42 1.8
43 9.1
45 1.9
47 0.05
50 2.5
51 9.9
52 2.6
53 1.54
54 3.2
55 38.4
56 2.5
57 0.27
60 0.6
61 0.9
62 0.6
63 0.25
64 2.3
65 27.2
66 25.9
67 4.58
68 10.3
69 7.2
70 1.3
71 0.19
73 0.8
74 0.5
75 0.9
76 0.16
77 57.8
78 12
79 70.7
80 1.02
81 38.5
82 5
83 9.5
84 0.58
85 2.1
86 2.5
87 0.5
88 0.15
90 0.6
91 19.7
92 6.4
93 2.86
94 99.99
95 18.5
96 0.5
97 1.9
98 3.2
99 9.3
100 0.8
101 0.13
102 0.5
103 0.6
104 1.7
105 1.04
106 9.3
107 57.4
108 5.1
109 0.21
110 1
111 9.1
112 7.9
113 0.18
114 5.9
115 1.6
116 0.7
117 0.13
118 1
119 20.5
120 21.2
121 6.85
122 10.3
123 8.3
124 8
125 2.78
126 2.3
127 5.9
128 1.3
129 0.14
130 1.4
131 9.7
132 1.4
133 0.92
134 1.1
135 1
137 3.7
138 0.14
139 1.8
140 1.7
141 0.8
144 0.06
145 1.1
146 1.1
147 6.6
148 1.79
149 69.1
150 8.7
151 2.8
152 0.35
153 5.3
154 0.6
157 0.5
159 0.15
160 0.5
161 0.6
165 10.3
166 0.25
167 2.7
171 0.5
173 0.7
194 0.7
195 22
196 2.9
200 0.8
203 0.07
204 0.6
214 0.7
215 0.6
225 0.14
242 9
243 12.5
244 2.1
287 0.08
288 36.4
289 7.8
290 1

>  <PREDICTED SPECTRUM>  (4204) 
26 51
27 174
28 28
29 282
31 66
34 8
37 7
38 64
39 397
40 210
41 511
42 179
43 360
44 91
45 235
46 56
47 55
49 5
50 131
51 395
52 175
53 343
54 251
55 577
56 179
57 164
58 19
59 33
61 65
62 57
63 185
64 85
65 449
66 396
67 530
68 289
69 308
70 70
71 153
72 6
73 53
74 37
75 111
76 57
77 793
78 332
79 813
80 273
81 590
82 213
83 280
84 130
85 145
86 86
87 112
88 13
89 145
90 31
91 455
92 202
93 433
94 999
95 483
96 239
97 237
98 121
99 169
100 46
101 123
102 79
103 175
104 157
105 245
106 146
107 859
108 284
109 244
110 116
111 181
112 147
113 163
114 100
115 168
116 86
117 77
118 109
119 246
120 284
121 308
122 235
123 287
124 143
125 170
126 76
127 186
130 21
131 120
132 69
133 182
134 59
135 180
136 62
137 123
138 75
139 144
140 64
146 27
147 214
148 147
149 461
150 268
151 187
152 85
153 80
156 17
157 30
158 72
159 84
160 74
161 51
163 2
165 134
166 55
167 250
173 13
176 28
177 149
178 32
184 29
185 61
186 5
187 10
193 78
194 118
195 516
196 91
197 48
200 9
213 94
214 133
215 51
216 5
229 30
241 129
242 301
243 421
244 93
245 19
288 549
289 229
290 51

$$$$

     RDKit          2D

 10  9  0  0  0  0  0  0  0  0999 V2000
    2.5981    4.5000    0.0000 C   0  0  0  0  0  0  0  0  0  0  0  0
    1.2990    5.2500    0.0000 C   0  0  0  0  0  0  0  0  0  0  0  0
    0.0000    4.5000    0.0000 C   0  0  0  0  0  0  0  0  0  0  0  0
   -1.2990    5.2500    0.0000 C   0  0  0  0  0  0  0  0  0  0  0  0
   -2.5981    4.5000    0.0000 C   0  0  0  0  0  0  0  0  0  0  0  0
   -3.8971    5.2500    0.0000 C   0  0  0  0  0  0  0  0  0  0  0  0
   -5.1962    4.5000    0.0000 C   0  0  0  0  0  0  0  0  0  0  0  0
   -6.4952    5.2500    0.0000 C   0  0  0  0  0  0  0  0  0  0  0  0
   -6.4952    6.7500    0.0000 O   0  0  0  0  0  0  0  0  0  0  0  0
   -7.7942    4.5000    0.0000 O   0  0  0  0  0  0  0  0  0  0  0  0
  2  1  1  0
  3  2  1  0
  4  3  1  0
  4  5  2  0
  6  5  1  0
  6  7  2  0
  8  7  1  0
  9  8  2  0
 10  8  1  0
M  END
>  <NAME>  (4205) 
2,4-OCTADIENOIC ACID

>  <SYNONYMS>  (4205) 


>  <SPECTRUM TYPE>  (4205) 
MS1

>  <INSTRUMENT TYPE>  (4205) 
EI-B

>  <INSTRUMENT>  (4205) 
SHIMADZU LKB-9000B

>  <ION MODE>  (4205) 
P

>  <INCHIKEY>  (4205) 
QZGIOJSVUOCUMC-YTXTXJHMSA-N

>  <FORMULA>  (4205) 
C8H12O2

>  <EXACT MASS>  (4205) 
140.083729624

>  <MW>  (4205) 
140

>  <ID>  (4205) 
JP004582

>  <CONTRIBUTOR>  (4205) 
University of Tokyo Team, {Faculty of Engineering, University of Tokyo

>  <COMMENT>  (4205) 
SMILES=CCCC=CC=CC(O)=O
cas=83615-26-3
InChI=InChI=1S/C8H12O2/c1-2-3-4-5-6-7-8(9)10/h4-7H,2-3H2,1H3,(H,9,10)/b5-4+,7-6+
computed SMILES=O=C(O)C=CC=CCCC
accession=JP004582
date=2016.01.19 (Created 2008.10.21, modified 2011.05.06)
author=HAYASHI A, DEPT. OF CHEMISTRY, FAC. OF SCI. AND TECHNOLOGY, KINKI UNIV.
license=CC BY-NC-SA
exact mass=140.08373
ionization energy=70 eV
ion type=[M]+*
computed spectral entropy=3.216757017615405
computed normalized entropy=0.7794165921205544
SPLASH=splash10-0005-9000000000-c25d99f74a022b97d871
submitter=submitter = University of Tokyo Team (Faculty of Engineering, University of Tokyo)
MoNA Rating=3.75

>  <NUM PEAKS>  (4205) 
62

>  <MASS SPECTRAL PEAKS>  (4205) 
31 1.7
37 1.3
38 4.4
39 4.49
41 42.1
42 28.5
43 11.4
44 0.12
45 10
47 0.5
50 4.4
51 1.01
52 6.2
53 20.9
54 4.2
55 3.45
56 2.6
57 3.6
59 0.5
60 0.06
61 0.5
62 1.5
63 4.6
64 0.14
65 20.9
66 10.8
67 27.8
68 0.96
69 7.9
70 24.3
71 2.9
73 0.09
74 0.6
75 0.8
77 9.7
78 0.26
79 17.1
80 6.2
81 13.3
82 0.22
83 7.1
84 9.8
85 0.8
86 0.6
91 3.4
92 0.5
93 5.4
94 0.55
95 25.8
96 3.1
97 99.99
98 2.85
99 9.5
100 0.5
107 2.2
111 0.56
112 0.9
122 0.9
123 1.7
125 0.27
140 32.4
141 3

>  <PREDICTED SPECTRUM>  (4205) 
25 3
26 42
27 173
28 11
29 101
33 4
37 33
38 94
39 330
40 135
41 484
42 190
43 391
44 112
45 307
46 19
47 62
48 31
49 44
50 152
51 278
52 206
53 352
54 232
55 339
56 184
57 145
58 90
59 82
60 19
61 1
62 36
63 118
64 70
65 264
66 184
67 459
68 182
69 336
70 159
71 165
72 5
73 25
77 400
78 173
79 439
80 245
81 428
82 226
83 213
84 185
85 92
86 6
87 9
91 110
92 12
93 211
94 135
95 460
96 220
97 999
98 317
99 76
107 120
111 71
112 56
122 75
123 170
124 9
125 83
137 3
138 12
139 4
140 624
141 198
142 43

$$$$

     RDKit          2D

 16 15  0  0  0  0  0  0  0  0999 V2000
    5.1962    8.2500    0.0000 C   0  0  0  0  0  0  0  0  0  0  0  0
    3.8971    9.0000    0.0000 C   0  0  0  0  0  0  0  0  0  0  0  0
    2.5981    8.2500    0.0000 C   0  0  0  0  0  0  0  0  0  0  0  0
    1.2990    9.0000    0.0000 C   0  0  0  0  0  0  0  0  0  0  0  0
    0.0000    8.2500    0.0000 C   0  0  0  0  0  0  0  0  0  0  0  0
   -1.2990    9.0000    0.0000 C   0  0  0  0  0  0  0  0  0  0  0  0
   -2.5981    8.2500    0.0000 C   0  0  0  0  0  0  0  0  0  0  0  0
   -3.8971    9.0000    0.0000 C   0  0  0  0  0  0  0  0  0  0  0  0
   -5.1962    8.2500    0.0000 C   0  0  0  0  0  0  0  0  0  0  0  0
   -6.4952    9.0000    0.0000 C   0  0  0  0  0  0  0  0  0  0  0  0
   -7.7942    8.2500    0.0000 C   0  0  0  0  0  0  0  0  0  0  0  0
   -9.0933    9.0000    0.0000 C   0  0  0  0  0  0  0  0  0  0  0  0
  -10.3923    8.2500    0.0000 C   0  0  0  0  0  0  0  0  0  0  0  0
  -11.6913    9.0000    0.0000 C   0  0  0  0  0  0  0  0  0  0  0  0
  -12.9904    8.2500    0.0000 C   0  0  0  0  0  0  0  0  0  0  0  0
  -14.2894    9.0000    0.0000 O   0  0  0  0  0  0  0  0  0  0  0  0
  2  1  1  0
  3  2  1  0
  4  3  1  0
  5  4  1  0
  5  6  2  0
  7  6  1  0
  8  7  1  0
  9  8  1  0
 10  9  1  0
 11 10  1  0
 12 11  1  0
 13 12  1  0
 14 13  1  0
 15 14  1  0
 16 15  2  0
M  END
>  <NAME>  (4206) 
10-PENTADECENAL

>  <SYNONYMS>  (4206) 


>  <SPECTRUM TYPE>  (4206) 
MS1

>  <INSTRUMENT TYPE>  (4206) 
EI-B

>  <INSTRUMENT>  (4206) 
JEOL JMS-HX-100

>  <ION MODE>  (4206) 
P

>  <INCHIKEY>  (4206) 
CQHGVQUJJPIQQW-AATRIKPKSA-N

>  <FORMULA>  (4206) 
C15H28O

>  <EXACT MASS>  (4206) 
224.214015516

>  <MW>  (4206) 
224

>  <ID>  (4206) 
JP004581

>  <CONTRIBUTOR>  (4206) 
University of Tokyo Team, {Faculty of Engineering, University of Tokyo

>  <COMMENT>  (4206) 
SMILES=CCCCC=CCCCCCCCCC=O
InChI=InChI=1S/C15H28O/c1-2-3-4-5-6-7-8-9-10-11-12-13-14-15-16/h5-6,15H,2-4,7-14H2,1H3/b6-5+
computed SMILES=O=CCCCCCCCCC=CCCCC
accession=JP004581
date=2016.01.19 (Created 2008.10.21, modified 2011.05.06)
author=HAYASHI A, DEPT. OF CHEMISTRY, FAC. OF SCI. AND TECHNOLOGY, KINKI UNIV.
license=CC BY-NC-SA
exact mass=224.21402
ionization energy=70 eV
ion type=[M]+*
computed spectral entropy=3.717824920271921
computed normalized entropy=0.8090811646975926
SPLASH=splash10-0a5d-9200000000-16382fc28fcbee24a341
submitter=submitter = University of Tokyo Team (Faculty of Engineering, University of Tokyo)
MoNA Rating=3.75

>  <NUM PEAKS>  (4206) 
99

>  <MASS SPECTRAL PEAKS>  (4206) 
38 0.27
39 10.86
41 58.26
42 12.59
43 29.39
44 0.54
45 1.72
50 0.3
51 1.18
52 0.63
53 7.57
54 27.29
55 99.99
56 28.83
57 20.7
58 3.15
59 1.46
65 2.05
66 3.65
67 43.91
68 28.2
69 5.17
70 26.34
71 10.51
72 2.44
73 0.74
77 2.18
78 1.35
79 12.23
80 1.17
81 40.59
82 36.29
83 31.92
84 2.04
85 6.99
86 2.17
87 0.5
91 1.36
92 0.48
93 11.17
94 9.88
95 31.02
96 26.16
97 24.04
98 36.32
99 4.51
100 1.09
105 0.43
107 7.44
108 7.11
109 13.39
110 13.46
111 17.91
112 1.19
113 1.73
114 0.58
120 0.39
121 16.26
122 6.14
123 5.59
124 8.09
125 5.63
126 2.49
127 0.62
128 0.84
131 1.17
135 9.54
136 3.57
137 2.98
138 3.38
139 2.09
140 1.37
141 0.41
142 0.99
149 3.76
150 1.4
151 1.25
152 1.64
153 1.3
154 1.11
156 0.31
163 1.67
164 0.8
165 0.57
167 0.95
168 0.84
169 1.11
177 0.82
178 0.8
180 2.01
181 1.42
182 0.64
193 0.37
195 0.67
206 14.38
207 2.5
219 0.03
224 4.49
225 0.83

>  <PREDICTED SPECTRUM>  (4206) 
26 21
27 163
28 48
29 257
30 33
31 69
32 22
34 2
36 14
37 7
38 27
39 268
40 138
41 975
42 491
43 812
44 363
45 238
46 40
47 25
48 24
49 38
50 56
51 125
52 119
53 346
54 603
55 999
56 547
57 653
58 257
59 170
60 62
61 66
62 29
63 68
64 22
65 202
66 254
67 734
68 665
69 732
70 489
71 432
72 245
73 209
74 89
75 54
76 25
77 184
78 127
79 361
80 306
81 708
82 702
83 606
84 434
85 314
86 201
87 75
88 1
91 163
92 86
93 275
94 230
95 604
96 631
97 529
98 456
99 230
100 95
101 97
102 6
103 30
104 11
105 144
106 90
107 232
108 227
109 404
110 401
111 382
112 278
113 163
114 109
115 77
116 21
117 49
119 38
120 6
121 231
122 161
123 225
124 254
125 200
126 135
127 105
128 98
129 66
131 34
132 12
133 32
134 42
135 254
136 155
137 186
138 179
139 107
140 62
141 72
142 94
143 28
145 8
147 84
148 20
149 199
150 119
151 113
152 130
153 104
154 87
155 55
156 21
157 35
159 4
161 0
162 35
163 109
164 94
165 83
166 81
167 94
168 80
169 43
172 54
177 121
178 61
179 89
180 101
181 107
182 111
183 55
192 1
193 23
195 6
196 28
205 35
206 117
207 147
208 81
209 105
210 62
221 83
223 31
224 145
225 82
226 56

$$$$

     RDKit          2D

 18 17  0  0  0  0  0  0  0  0999 V2000
   -7.1447    5.6250    0.0000 C   0  0  0  0  0  0  0  0  0  0  0  0
   11.0418   10.1250    0.0000 C   0  0  0  0  0  0  0  0  0  0  0  0
   -5.8457    6.3750    0.0000 C   0  0  0  0  0  0  0  0  0  0  0  0
   -5.8457    7.8750    0.0000 C   0  0  0  0  0  0  0  0  0  0  0  0
   -4.5466    8.6250    0.0000 C   0  0  0  0  0  0  0  0  0  0  0  0
   -4.5466   10.1250    0.0000 C   0  0  0  0  0  0  0  0  0  0  0  0
   -3.2476   10.8750    0.0000 C   0  0  0  0  0  0  0  0  0  0  0  0
   -1.9486   10.1250    0.0000 C   0  0  0  0  0  0  0  0  0  0  0  0
   -0.6495   10.8750    0.0000 C   0  0  0  0  0  0  0  0  0  0  0  0
    0.6495   10.1250    0.0000 C   0  0  0  0  0  0  0  0  0  0  0  0
    1.9486   10.8750    0.0000 C   0  0  0  0  0  0  0  0  0  0  0  0
    3.2476   10.1250    0.0000 C   0  0  0  0  0  0  0  0  0  0  0  0
    4.5466   10.8750    0.0000 C   0  0  0  0  0  0  0  0  0  0  0  0
    5.8457   10.1250    0.0000 C   0  0  0  0  0  0  0  0  0  0  0  0
    7.1447   10.8750    0.0000 C   0  0  0  0  0  0  0  0  0  0  0  0
    8.4437   10.1250    0.0000 C   0  0  0  0  0  0  0  0  0  0  0  0
    8.4437    8.6250    0.0000 O   0  0  0  0  0  0  0  0  0  0  0  0
    9.7428   10.8750    0.0000 O   0  0  0  0  0  0  0  0  0  0  0  0
  3  1  1  0
  4  3  1  0
  5  4  1  0
  6  5  1  0
  6  7  2  0
  8  7  1  0
  9  8  1  0
 10  9  1  0
 11 10  1  0
 12 11  1  0
 13 12  1  0
 14 13  1  0
 15 14  1  0
 16 15  1  0
 17 16  2  0
 18  2  1  0
 18 16  1  0
M  END
>  <NAME>  (4207) 
METHYL (Z)-10-PENTADECENOATE

>  <SYNONYMS>  (4207) 


>  <SPECTRUM TYPE>  (4207) 
MS1

>  <INSTRUMENT TYPE>  (4207) 
EI-B

>  <INSTRUMENT>  (4207) 
JEOL JMS-HX-100

>  <ION MODE>  (4207) 
P

>  <INCHIKEY>  (4207) 
JEDIPLFNJDRCFD-SREVYHEPSA-N

>  <FORMULA>  (4207) 
C16H30O2

>  <EXACT MASS>  (4207) 
254.2245802

>  <MW>  (4207) 
254

>  <ID>  (4207) 
JP004580

>  <CONTRIBUTOR>  (4207) 
University of Tokyo Team, {Faculty of Engineering, University of Tokyo

>  <COMMENT>  (4207) 
SMILES=CCCCC=CCCCCCCCCC(=O)OC
InChI=InChI=1S/C16H30O2/c1-3-4-5-6-7-8-9-10-11-12-13-14-15-16(17)18-2/h6-7H,3-5,8-15H2,1-2H3/b7-6-
computed SMILES=O=C(OC)CCCCCCCCC=CCCCC
accession=JP004580
date=2016.01.19 (Created 2008.10.21, modified 2011.05.06)
author=HAYASHI A, DEPT. OF CHEMISTRY, FAC. OF SCI. AND TECHNOLOGY, KINKI UNIV.
license=CC BY-NC-SA
exact mass=254.22458
ionization energy=70 eV
ion type=[M]+*
computed spectral entropy=3.758873165650424
computed normalized entropy=0.8627781463436867
SPLASH=splash10-0awa-9200000000-e19e54480862687b5a6c
submitter=submitter = University of Tokyo Team (Faculty of Engineering, University of Tokyo)
MoNA Rating=3.75

>  <NUM PEAKS>  (4207) 
78

>  <MASS SPECTRAL PEAKS>  (4207) 
45 2.63
53 7.46
54 19
55 99.99
56 21.51
57 12.53
59 14.59
65 1.88
66 1.58
67 24.79
68 18.12
69 52.9
70 13.43
71 4.78
73 5.28
74 63.27
75 8.11
77 1.73
79 5.24
80 3.55
81 23.29
82 16.93
83 35.43
84 30.87
85 5.99
87 41.53
88 4.34
91 1.73
93 3.02
94 3.9
95 17.6
96 27.75
97 28
98 23.75
99 3.51
101 6.74
107 2.3
108 2.59
109 9.56
110 15.26
111 12.48
112 5.04
113 3.4
114 4.46
115 6.86
119 2.22
121 2.8
122 1.71
123 11.94
124 9.38
125 7.73
126 1.55
127 4.13
128 4.18
129 3.84
133 2.09
134 1.41
135 2.65
137 7.02
138 12.55
139 5.79
141 4.38
143 2.46
147 1.56
149 1.43
151 4.14
152 4.18
153 1.72
165 2.37
178 3.99
179 3
180 14.23
181 2.82
193 1.55
222 14.64
223 10.36
224 1.5
254 2.82

>  <PREDICTED SPECTRUM>  (4207) 
14 4
15 38
16 8
17 15
18 26
26 35
27 180
28 145
29 264
30 32
31 22
32 31
33 6
38 5
39 229
40 106
41 617
42 300
43 523
44 99
45 137
50 40
51 114
52 102
53 300
54 476
55 999
56 455
57 463
58 95
59 435
60 61
61 54
62 49
63 55
64 1
65 164
66 140
67 566
68 440
69 731
70 367
71 256
72 91
73 138
74 749
75 302
76 63
77 153
78 78
79 285
80 196
81 511
82 441
83 629
84 551
85 263
86 58
87 581
88 144
89 36
91 153
92 52
93 145
94 180
95 425
96 595
97 579
98 509
99 194
100 43
101 257
102 92
103 10
104 7
105 113
106 66
107 107
108 108
109 357
110 448
111 371
112 191
113 136
114 195
115 254
116 73
117 24
118 19
119 177
120 66
121 182
122 96
123 345
124 295
125 294
126 89
127 183
128 145
129 195
130 34
132 2
133 150
134 125
135 114
136 80
137 255
138 325
139 224
140 83
141 226
142 67
143 123
144 82
145 28
146 4
147 81
148 75
149 112
150 23
151 214
152 221
153 96
154 28
155 94
157 63
158 60
161 62
162 60
163 49
164 8
165 124
166 85
167 17
168 24
169 25
171 44
172 56
178 204
179 160
180 400
181 169
182 43
183 48
185 3
193 106
194 99
195 15
199 47
204 31
205 47
206 33
207 6
211 59
222 434
223 362
224 149
225 32
226 0
254 233
255 89
256 51

$$$$

     RDKit          2D

 16 15  0  0  0  0  0  0  0  0999 V2000
    8.4437   12.3750    0.0000 C   0  0  0  0  0  0  0  0  0  0  0  0
    7.1447   11.6250    0.0000 C   0  0  0  0  0  0  0  0  0  0  0  0
    7.1447   10.1250    0.0000 C   0  0  0  0  0  0  0  0  0  0  0  0
    5.8457    9.3750    0.0000 C   0  0  0  0  0  0  0  0  0  0  0  0
    5.8457    7.8750    0.0000 C   0  0  0  0  0  0  0  0  0  0  0  0
    4.5466    7.1250    0.0000 C   0  0  0  0  0  0  0  0  0  0  0  0
    3.2476    7.8750    0.0000 C   0  0  0  0  0  0  0  0  0  0  0  0
    1.9486    7.1250    0.0000 C   0  0  0  0  0  0  0  0  0  0  0  0
    0.6495    7.8750    0.0000 C   0  0  0  0  0  0  0  0  0  0  0  0
   -0.6495    7.1250    0.0000 C   0  0  0  0  0  0  0  0  0  0  0  0
   -1.9486    7.8750    0.0000 C   0  0  0  0  0  0  0  0  0  0  0  0
   -3.2476    7.1250    0.0000 C   0  0  0  0  0  0  0  0  0  0  0  0
   -4.5466    7.8750    0.0000 C   0  0  0  0  0  0  0  0  0  0  0  0
   -5.8457    7.1250    0.0000 C   0  0  0  0  0  0  0  0  0  0  0  0
   -7.1447    7.8750    0.0000 C   0  0  0  0  0  0  0  0  0  0  0  0
   -8.4437    7.1250    0.0000 O   0  0  0  0  0  0  0  0  0  0  0  0
  2  1  1  0
  3  2  1  0
  4  3  1  0
  5  4  1  0
  5  6  2  0
  7  6  1  0
  8  7  1  0
  9  8  1  0
 10  9  1  0
 11 10  1  0
 12 11  1  0
 13 12  1  0
 14 13  1  0
 15 14  1  0
 16 15  1  0
M  END
>  <NAME>  (4208) 
(Z)-10-PENTADECENE-1-OL

>  <SYNONYMS>  (4208) 


>  <SPECTRUM TYPE>  (4208) 
MS1

>  <INSTRUMENT TYPE>  (4208) 
EI-B

>  <INSTRUMENT>  (4208) 
JEOL JMS-HX-100

>  <ION MODE>  (4208) 
P

>  <INCHIKEY>  (4208) 
YWAXGXIQALUWKR-WAYWQWQTSA-N

>  <FORMULA>  (4208) 
C15H30O

>  <EXACT MASS>  (4208) 
226.22966558000002

>  <MW>  (4208) 
226

>  <ID>  (4208) 
JP004579

>  <CONTRIBUTOR>  (4208) 
University of Tokyo Team, {Faculty of Engineering, University of Tokyo

>  <COMMENT>  (4208) 
SMILES=CCCCC([H])=C([H])CCCCCCCCCO
InChI=InChI=1S/C15H30O/c1-2-3-4-5-6-7-8-9-10-11-12-13-14-15-16/h5-6,16H,2-4,7-15H2,1H3/b6-5-
computed SMILES=OCCCCCCCCCC=CCCCC
accession=JP004579
date=2016.01.19 (Created 2008.10.21, modified 2011.05.06)
author=HAYASHI A, DEPT. OF CHEMISTRY, FAC. OF SCI. AND TECHNOLOGY, KINKI UNIV.
license=CC BY-NC-SA
exact mass=226.22967
ionization energy=70 eV
ion type=[M]+*
computed spectral entropy=3.2677443083274973
computed normalized entropy=0.7592227899822068
SPLASH=splash10-067j-9000000000-73087b15960fd726a3a4
submitter=submitter = University of Tokyo Team (Faculty of Engineering, University of Tokyo)
MoNA Rating=3.75

>  <NUM PEAKS>  (4208) 
74

>  <MASS SPECTRAL PEAKS>  (4208) 
38 0.3
39 10
40 2.17
41 59.64
42 13.9
43 27.32
44 2.05
45 1.81
50 0.2
51 0.65
52 0.53
53 7.35
54 39.74
55 99.99
56 22.26
57 14.31
58 1.28
59 0.4
65 1.78
66 4.73
67 53.16
68 43.44
69 50.48
70 12.94
71 5.36
72 0.8
73 0.53
77 1.54
78 0.41
79 3.79
80 3.06
81 50.54
82 65.95
83 27.45
84 5.36
85 3.2
86 0.55
91 0.68
93 1.21
94 1.45
95 39.67
96 45.75
97 14.18
98 2.58
99 0.86
107 0.39
108 0.51
109 19.07
110 16.2
111 3.64
112 0.88
113 0.25
121 0.26
122 0.43
123 8.12
124 7.01
125 1.08
126 0.61
136 0.19
137 3.7
138 3.34
139 0.48
140 0.35
149 0.44
151 1.65
152 2.03
153 0.28
165 0.8
166 0.82
179 0.46
180 1.53
181 0.22
208 4.66
209 0.82

>  <PREDICTED SPECTRUM>  (4208) 
27 74
28 3
29 66
31 52
32 1
38 11
39 219
40 81
41 912
42 438
43 722
44 232
45 131
50 10
51 79
52 69
53 321
54 640
55 999
56 440
57 509
58 65
59 65
60 50
61 73
63 3
65 160
66 236
67 806
68 727
69 725
70 352
71 320
72 68
73 133
74 53
75 26
77 150
78 92
79 311
80 200
81 774
82 798
83 512
84 263
85 191
86 89
87 75
88 24
91 129
92 15
93 161
94 133
95 651
96 682
97 433
98 216
99 112
100 51
101 72
103 11
105 42
107 130
108 172
109 454
110 434
111 268
112 113
113 97
114 91
115 17
116 32
119 46
121 95
122 75
123 314
124 290
125 129
126 76
127 70
128 58
135 56
136 54
137 249
138 223
139 74
140 74
141 54
142 0
143 2
147 5
149 51
150 31
151 131
152 125
153 62
154 44
155 35
157 0
165 114
166 128
167 64
168 0
169 10
179 83
180 64
181 59
182 25
193 6
194 13
195 33
197 28
207 57
208 287
209 118
210 46
211 6
224 21
226 127
227 25

$$$$

     RDKit          2D

 18 18  0  0  0  0  0  0  0  0999 V2000
   -3.2976    3.0316    0.0000 C   0  0  0  0  0  0  0  0  0  0  0  0
    4.4966    3.0316    0.0000 C   0  0  0  0  0  0  0  0  0  0  0  0
    4.4971    4.5324    0.0000 C   0  0  0  0  0  0  0  0  0  0  0  0
    3.1971    2.2808    0.0000 C   0  0  0  0  0  0  0  0  0  0  0  0
    3.1981    5.2824    0.0000 C   0  0  0  0  0  0  0  0  0  0  0  0
    1.8981    3.0308    0.0000 C   0  0  0  0  0  0  0  0  0  0  0  0
   -4.5966    5.2816    0.0000 C   0  0  0  0  0  0  0  0  0  0  0  0
   -5.8957    4.5316    0.0000 C   0  0  0  0  0  0  0  0  0  0  0  0
    0.5995    5.2816    0.0000 C   0  0  0  0  0  0  0  0  0  0  0  0
    1.8986    4.5316    0.0000 C   0  0  0  0  0  0  0  0  0  0  0  0
   -1.9986    5.2816    0.0000 C   0  0  0  0  0  0  0  0  0  0  0  0
   -3.2976    4.5316    0.0000 N   0  0  0  0  0  0  0  0  0  0  0  0
   -1.9986    6.7816    0.0000 O   0  0  0  0  0  0  0  0  0  0  0  0
   -6.4447    6.5806    0.0000 O   0  0  0  0  0  0  0  0  0  0  0  0
   -8.4937    6.0316    0.0000 O   0  0  0  0  0  0  0  0  0  0  0  0
   -7.9447    3.9826    0.0000 O   0  0  0  0  0  0  0  0  0  0  0  0
   -0.6995    4.5316    0.0000 O   0  0  0  0  0  0  0  0  0  0  0  0
   -7.1947    5.2816    0.0000 P   0  0  0  0  0  0  0  0  0  0  0  0
  3  2  2  0
  4  2  1  0
  5  3  1  0
  6  4  2  0
  8  7  1  0
 10  5  2  0
 10  6  1  0
 10  9  1  0
 12  1  1  0
 12  7  1  0
 12 11  1  0
 13 11  2  0
 17  9  1  0
 17 11  1  0
 18  8  1  0
 18 14  1  0
 18 15  1  0
 18 16  2  0
M  END
>  <NAME>  (4209) 
2-(N-BENZYLOXYCARBONYL-N-METHYLAMINO)ETHYLPHOSPHONIC ACID

>  <SYNONYMS>  (4209) 


>  <SPECTRUM TYPE>  (4209) 
MS1

>  <INSTRUMENT TYPE>  (4209) 
EI-B

>  <INSTRUMENT>  (4209) 
JEOL JMS-HX-100

>  <ION MODE>  (4209) 
P

>  <INCHIKEY>  (4209) 
KNNQEYPDIAAUJQ-UHFFFAOYSA-N

>  <FORMULA>  (4209) 
C11H16NO5P

>  <EXACT MASS>  (4209) 
273.076609242

>  <MW>  (4209) 
273

>  <ID>  (4209) 
JP004578

>  <CONTRIBUTOR>  (4209) 
University of Tokyo Team, {Faculty of Engineering, University of Tokyo

>  <COMMENT>  (4209) 
SMILES=O=C(OCc(c1)cccc1)N(C)CCP(O)(O)=O
InChI=InChI=1S/C11H16NO5P/c1-12(7-8-18(14,15)16)11(13)17-9-10-5-3-2-4-6-10/h2-6H,7-9H2,1H3,(H2,14,15,16)
computed SMILES=O=C(OCC=1C=CC=CC1)N(C)CCP(=O)(O)O
accession=JP004578
date=2016.01.19 (Created 2008.10.21, modified 2011.05.06)
author=HAYASHI A, DEPT. OF CHEMISTRY, FAC. OF SCI. AND TECHNOLOGY, KINKI UNIV.
license=CC BY-NC-SA
exact mass=273.07661
ionization energy=70 eV
ion type=[M]+*
computed spectral entropy=3.461497496287615
computed normalized entropy=0.7453070965511444
SPLASH=splash10-0006-9300000000-cefee5aafe817b384778
submitter=submitter = University of Tokyo Team (Faculty of Engineering, University of Tokyo)
MoNA Rating=3.75

>  <NUM PEAKS>  (4209) 
104

>  <MASS SPECTRAL PEAKS>  (4209) 
36 2.73
38 0.87
39 5.47
40 1.85
41 6.24
42 3.76
43 5.39
44 19.55
45 2.21
46 0.32
47 0.39
50 1.64
51 4.09
52 1.33
53 1.07
54 0.87
55 4.22
56 3.38
57 12.25
58 1.6
59 0.37
60 2.07
61 1.31
62 0.78
63 2.91
64 0.92
65 11.61
66 0.91
67 1.52
68 1.23
69 5.2
70 1.46
71 3.04
73 2.32
74 0.53
76 0.49
77 5.71
78 1.73
79 7.31
80 1.3
81 4.94
82 1.48
83 2.62
84 1.16
85 1.67
86 0.35
87 0.74
89 3.52
90 3.16
91 99.99
92 9.69
93 1
94 1.43
95 1.98
96 0.93
97 1.57
98 1.21
99 0.39
101 0.53
102 0.51
104 2.27
105 1.26
106 0.57
107 5.56
108 9.07
109 6.99
110 0.74
111 0.9
112 0.31
115 0.51
116 0.31
117 0.16
118 1.56
119 0.5
120 4.11
121 0.71
122 0.89
123 0.64
125 0.53
129 1
134 0.81
135 0.31
136 0.16
137 0.56
138 41.69
139 7.98
140 0.78
143 0.15
146 0.73
149 0.69
152 0.91
165 0.34
166 13.64
167 1
185 0.49
193 0.48
213 0.32
228 4.24
229 0.83
236 0.69
256 0.36
264 0.16
273 7.79
274 1.18

>  <PREDICTED SPECTRUM>  (4209) 
18 15
26 3
28 6
30 13
33 2
34 11
36 26
37 11
38 57
39 140
40 69
41 161
42 329
43 178
44 649
45 155
46 55
47 49
48 18
49 61
50 154
51 216
52 156
53 132
54 144
55 116
56 209
57 210
58 247
59 67
60 118
61 82
62 120
63 217
64 89
65 388
66 101
67 117
68 122
69 122
70 131
71 95
72 74
73 3
74 177
75 34
76 89
77 265
78 169
79 319
80 167
81 71
82 180
83 130
84 162
85 92
86 25
87 20
88 304
89 223
90 199
91 999
92 358
93 140
94 110
95 148
96 80
97 11
98 69
99 88
100 146
103 2
104 84
105 172
106 171
107 366
108 378
109 146
110 158
111 67
113 55
114 16
117 57
118 12
119 28
120 201
121 174
122 85
123 60
131 39
132 126
133 51
134 123
135 41
136 67
137 5
138 356
139 236
140 109
149 25
155 20
156 72
164 79
165 145
166 474
167 195
170 9
183 57
228 98
229 29
273 159
274 76

$$$$

     RDKit          2D

 25 27  0  0  0  0  0  0  0  0999 V2000
    5.1105    2.7762    0.0000 C   0  0  0  0  0  0  0  0  0  0  0  0
    3.4405    1.8121    0.0000 C   0  0  0  0  0  0  0  0  0  0  0  0
   13.8500    3.8971    0.0000 C   0  0  0  0  0  0  0  0  0  0  0  0
   13.1000    5.1971    0.0000 C   0  0  0  0  0  0  0  0  0  0  0  0
   13.1000    2.5971    0.0000 C   0  0  0  0  0  0  0  0  0  0  0  0
   -2.3100   -0.7500    0.0000 C   0  0  0  0  0  0  0  0  0  0  0  0
   -2.3100    0.7500    0.0000 C   0  0  0  0  0  0  0  0  0  0  0  0
   11.6000    5.1971    0.0000 C   0  0  0  0  0  0  0  0  0  0  0  0
   11.6000    2.5971    0.0000 C   0  0  0  0  0  0  0  0  0  0  0  0
   -1.0100   -1.5000    0.0000 C   0  0  0  0  0  0  0  0  0  0  0  0
   -1.0100    1.5000    0.0000 C   0  0  0  0  0  0  0  0  0  0  0  0
    8.6000    2.5981    0.0000 C   0  0  0  0  0  0  0  0  0  0  0  0
    6.3500    1.2990    0.0000 C   0  0  0  0  0  0  0  0  0  0  0  0
    4.1000   -0.0000    0.0000 C   0  0  0  0  0  0  0  0  0  0  0  0
   10.8500    3.8971    0.0000 C   0  0  0  0  0  0  0  0  0  0  0  0
    7.1000    2.5981    0.0000 C   0  0  0  0  0  0  0  0  0  0  0  0
    0.2900   -0.7500    0.0000 C   0  0  0  0  0  0  0  0  0  0  0  0
    9.3500    3.8971    0.0000 C   0  0  0  0  0  0  0  0  0  0  0  0
    0.2900    0.7500    0.0000 C   0  0  0  0  0  0  0  0  0  0  0  0
    2.6000    0.0000    0.0000 C   0  0  0  0  0  0  0  0  0  0  0  0
    4.8500    1.2990    0.0000 C   0  0  0  0  0  0  0  0  0  0  0  0
    1.7200   -1.2100    0.0000 N   0  0  0  0  0  0  0  0  0  0  0  0
    6.3500    3.8971    0.0000 O   0  0  0  0  0  0  0  0  0  0  0  0
    8.6000    5.1962    0.0000 O   0  0  0  0  0  0  0  0  0  0  0  0
    1.7200    1.2100    0.0000 S   0  0  0  0  0  0  0  0  0  0  0  0
  4  3  2  0
  5  3  1  0
  7  6  2  0
  8  4  1  0
  9  5  2  0
 10  6  1  0
 11  7  1  0
 15  8  2  0
 15  9  1  0
 16 12  1  0
 16 13  1  0
 17 10  2  0
 18 12  1  0
 18 15  1  0
 19 11  2  0
 19 17  1  0
 20 14  1  0
 21  1  1  0
 21  2  1  0
 21 13  1  0
 21 14  1  0
 22 17  1  0
 22 20  2  0
 23 16  2  0
 24 18  2  0
 25 19  1  0
 25 20  1  0
M  END
>  <NAME>  (4210) 
2-(2,2-DIMETHYL-4,6-DIOXO-6-PHENYLHEXYL)BENZOTHIAZOLE

>  <SYNONYMS>  (4210) 


>  <SPECTRUM TYPE>  (4210) 
MS1

>  <INSTRUMENT TYPE>  (4210) 
EI-B

>  <INSTRUMENT>  (4210) 
JEOL JMS-HX-100

>  <ION MODE>  (4210) 
P

>  <INCHIKEY>  (4210) 
WRLWXBVNBFQXMJ-UHFFFAOYSA-N

>  <FORMULA>  (4210) 
C21H21NO2S

>  <EXACT MASS>  (4210) 
351.1292999120001

>  <MW>  (4210) 
351

>  <ID>  (4210) 
JP004577

>  <CONTRIBUTOR>  (4210) 
University of Tokyo Team, {Faculty of Engineering, University of Tokyo

>  <COMMENT>  (4210) 
SMILES=O=C(CC(=O)c(c3)cccc3)CC(C)(C)Cc(n1)sc(c2)c(ccc2)1
InChI=InChI=1S/C21H21NO2S/c1-21(2,14-20-22-17-10-6-7-11-19(17)25-20)13-16(23)12-18(24)15-8-4-3-5-9-15/h3-11H,12-14H2,1-2H3
computed SMILES=O=C(C=1C=CC=CC1)CC(=O)CC(C)(C)CC2=NC=3C=CC=CC3S2
accession=JP004577
date=2016.01.19 (Created 2008.10.21, modified 2011.05.06)
author=HAYASHI A, DEPT. OF CHEMISTRY, FAC. OF SCI. AND TECHNOLOGY, KINKI UNIV.
license=CC BY-NC-SA
exact mass=351.1293
ionization energy=70 eV
ion type=[M]+*
computed spectral entropy=2.8046034428818616
computed normalized entropy=0.7710067390109104
SPLASH=splash10-0007-3900000000-ed9c4e3ab135556665fc
submitter=submitter = University of Tokyo Team (Faculty of Engineering, University of Tokyo)
MoNA Rating=3.75

>  <NUM PEAKS>  (4210) 
38

>  <MASS SPECTRAL PEAKS>  (4210) 
39 4.21
41 4.99
43 2.25
45 7.28
51 4.8
55 6.82
63 2.19
65 4.4
69 31.37
77 24.26
78 2.84
83 8.19
91 3.09
104 2.72
105 30.72
106 2.62
108 5.6
109 4.61
147 11.68
148 7.78
149 87.08
150 10.84
151 4.96
161 2.95
162 2.26
172 2.02
174 3.69
175 2.24
188 2.6
189 5.16
190 99.99
191 14.95
192 5.92
204 2.13
216 2.91
278 2.31
351 9.5
352 2.42

>  <PREDICTED SPECTRUM>  (4210) 
18 3
39 156
40 45
41 201
42 19
43 133
44 58
45 30
50 29
51 201
52 14
53 72
54 32
55 104
57 13
63 98
65 143
67 57
69 715
70 46
75 55
76 48
77 562
78 165
79 38
81 24
82 26
83 87
84 7
88 28
89 8
91 131
92 31
93 61
94 8
95 8
96 9
97 46
102 48
103 75
104 55
105 669
106 180
107 44
108 81
109 110
110 13
115 22
118 20
119 40
120 79
121 30
122 52
125 5
126 39
127 59
130 63
131 30
132 107
134 13
135 26
136 42
143 26
144 84
145 41
146 128
147 160
148 366
149 971
150 233
151 20
161 53
162 196
163 139
164 55
172 13
173 68
174 273
175 223
176 141
177 106
188 176
189 335
190 999
191 573
192 338
193 37
204 204
205 19
216 19
308 7
351 300
352 110
353 13

$$$$

     RDKit          2D

  7  7  0  0  0  0  0  0  0  0999 V2000
   -0.3700   -1.7100    0.0000 C   0  0  0  0  0  0  0  0  0  0  0  0
   -1.6700   -0.9600    0.0000 C   0  0  0  0  0  0  0  0  0  0  0  0
    0.9300   -0.9600    0.0000 C   0  0  0  0  0  0  0  0  0  0  0  0
   -1.6700    0.5400    0.0000 C   0  0  0  0  0  0  0  0  0  0  0  0
    0.9300    0.5400    0.0000 C   0  0  0  0  0  0  0  0  0  0  0  0
    2.2289    1.2902    0.0000 O   0  0  0  0  0  0  0  0  0  0  0  0
   -0.3700    1.2900    0.0000 O   0  0  0  0  0  0  0  0  0  0  0  0
  2  1  1  0
  3  1  1  0
  4  2  1  0
  5  3  1  0
  6  5  2  0
  7  4  1  0
  7  5  1  0
M  END
>  <NAME>  (4211) 
TETRAHYDRO-2-PYRONE

>  <SYNONYMS>  (4211) 
TETRAHYDROPYRAN-2-ONE

>  <SPECTRUM TYPE>  (4211) 
MS1

>  <INSTRUMENT TYPE>  (4211) 
EI-B

>  <INSTRUMENT>  (4211) 
SHIMADZU LKB-9000B

>  <ION MODE>  (4211) 
P

>  <INCHIKEY>  (4211) 
OZJPLYNZGCXSJM-UHFFFAOYSA-N

>  <FORMULA>  (4211) 
C5H8O2

>  <EXACT MASS>  (4211) 
100.052429496

>  <MW>  (4211) 
100

>  <ID>  (4211) 
JP004576

>  <CONTRIBUTOR>  (4211) 
University of Tokyo Team, {Faculty of Engineering, University of Tokyo

>  <COMMENT>  (4211) 
SMILES=O=C(C1)OCCC1
cas=542-28-9
InChI=InChI=1S/C5H8O2/c6-5-3-1-2-4-7-5/h1-4H2
computed SMILES=O=C1OCCCC1
accession=JP004576
date=2016.01.19 (Created 2008.10.21, modified 2011.05.06)
author=HAYASHI A, DEPT. OF CHEMISTRY, FAC. OF SCI. AND TECHNOLOGY, KINKI UNIV.
license=CC BY-NC-SA
exact mass=100.05243
ionization energy=70 eV
ion type=[M]+*
computed spectral entropy=2.2165121075361625
computed normalized entropy=0.6516858208484682
SPLASH=splash10-0006-9100000000-5cbf9b97b1ef90d8f999
submitter=submitter = University of Tokyo Team (Faculty of Engineering, University of Tokyo)
MoNA Rating=3.75

>  <NUM PEAKS>  (4211) 
30

>  <MASS SPECTRAL PEAKS>  (4211) 
37 2.1
38 3.5
39 22
41 8.28
42 99.99
43 8.8
44 12.3
45 0.58
47 0.6
48 1
50 1.7
51 0.17
53 1.7
54 1.3
55 18.9
56 6.95
57 3.4
68 0.8
70 15.1
71 0.32
73 0.9
75 0.8
76 0.9
81 0.07
83 3.1
85 1.9
86 0.6
99 0.07
100 24.1
101 1.4

>  <PREDICTED SPECTRUM>  (4211) 
14 89
15 217
16 68
17 59
18 85
19 7
25 56
26 287
27 599
28 492
29 486
30 128
31 255
32 26
34 5
35 28
36 46
37 85
38 181
39 568
40 329
41 934
42 929
43 657
44 338
45 294
46 66
49 23
50 149
51 116
52 70
53 268
54 636
55 999
56 856
57 305
58 217
59 128
60 484
61 128
67 97
68 56
69 74
70 371
71 316
72 266
73 254
82 150
100 383
101 249

$$$$

     RDKit          2D

 12 13  0  0  0  0  0  0  0  0999 V2000
    2.1853    2.6360    0.0000 C   0  0  0  0  0  0  0  0  0  0  0  0
   -2.3100    0.7500    0.0000 C   0  0  0  0  0  0  0  0  0  0  0  0
   -1.0100    1.5000    0.0000 C   0  0  0  0  0  0  0  0  0  0  0  0
   -2.3100   -0.7500    0.0000 C   0  0  0  0  0  0  0  0  0  0  0  0
    1.7200    1.2100    0.0000 C   0  0  0  0  0  0  0  0  0  0  0  0
    0.2900    0.7500    0.0000 C   0  0  0  0  0  0  0  0  0  0  0  0
   -1.0100   -1.5000    0.0000 C   0  0  0  0  0  0  0  0  0  0  0  0
    0.2900   -0.7500    0.0000 C   0  0  0  0  0  0  0  0  0  0  0  0
    2.6000    0.0000    0.0000 C   0  0  0  0  0  0  0  0  0  0  0  0
   -1.0100   -3.0000    0.0000 O   0  0  0  0  0  0  0  0  0  0  0  0
    4.1000   -0.0000    0.0000 O   0  0  0  0  0  0  0  0  0  0  0  0
    1.7200   -1.2100    0.0000 O   0  0  0  0  0  0  0  0  0  0  0  0
  3  2  1  0
  4  2  1  0
  5  1  2  0
  6  3  1  0
  6  5  1  0
  7  4  1  0
  8  6  1  0
  8  7  1  0
  9  5  1  0
 10  7  1  0
 11  9  2  0
 12  8  1  0
 12  9  1  0
M  END
>  <NAME>  (4212) 
7-HYDROXYOCTAHYDRO-3-METHYLENE-1-BENZOFRAN-2-ONE

>  <SYNONYMS>  (4212) 


>  <SPECTRUM TYPE>  (4212) 
MS1

>  <INSTRUMENT TYPE>  (4212) 
EI-B

>  <INSTRUMENT>  (4212) 
JEOL JMS-HX-100

>  <ION MODE>  (4212) 
P

>  <INCHIKEY>  (4212) 
LBZLIYFBRVMLEG-UHFFFAOYSA-N

>  <FORMULA>  (4212) 
C9H12O3

>  <EXACT MASS>  (4212) 
168.078644244

>  <MW>  (4212) 
168

>  <ID>  (4212) 
JP004575

>  <CONTRIBUTOR>  (4212) 
University of Tokyo Team, {Faculty of Engineering, University of Tokyo

>  <COMMENT>  (4212) 
SMILES=OC(C2)C(O1)C(CC2)C(=C)C(=O)1
InChI=InChI=1S/C9H12O3/c1-5-6-3-2-4-7(10)8(6)12-9(5)11/h6-8,10H,1-4H2
computed SMILES=O=C1OC2C(O)CCCC2C1=C
accession=JP004575
date=2016.01.19 (Created 2008.10.21, modified 2011.05.06)
author=HAYASHI A, DEPT. OF CHEMISTRY, FAC. OF SCI. AND TECHNOLOGY, KINKI UNIV.
license=CC BY-NC-SA
exact mass=168.07864
ionization energy=70 eV
ion type=[M]+*
computed spectral entropy=3.542784779684592
computed normalized entropy=0.8966252228441428
SPLASH=splash10-0fg6-9200000000-0866512144acd25b25c6
submitter=submitter = University of Tokyo Team (Faculty of Engineering, University of Tokyo)
MoNA Rating=3.75

>  <NUM PEAKS>  (4212) 
52

>  <MASS SPECTRAL PEAKS>  (4212) 
38 8.56
39 78.41
40 18.44
41 67.01
42 13.41
43 33.55
44 22.19
45 3.44
50 10.38
51 22.13
52 15.76
53 50.29
54 11.59
55 38.27
56 4.74
57 30.69
58 5.02
63 5.91
65 16.2
66 19.13
67 39.21
68 10.35
69 12.01
70 14.95
71 3.49
77 29.89
78 8.8
79 78.09
80 11.78
81 20.26
82 4.65
83 12.75
84 5.21
91 19.09
93 53.82
94 32.12
95 16.94
96 7.62
97 9.43
98 3.46
105 3.84
107 5.66
109 14.87
111 10.84
112 10.9
121 9.34
122 99.99
123 13.79
124 3.69
139 6.89
150 75.39
151 10.36

>  <PREDICTED SPECTRUM>  (4212) 
19 6
25 8
26 128
27 356
28 75
29 388
31 119
37 97
38 207
39 767
40 339
41 849
42 419
43 522
44 313
45 284
46 34
49 9
50 239
51 459
52 376
53 606
54 353
55 643
56 278
57 476
58 215
60 15
61 35
62 102
63 196
64 142
65 449
66 590
67 693
68 535
69 358
70 420
71 253
72 44
74 39
76 58
77 586
78 405
79 762
80 415
81 569
82 321
83 365
84 208
85 154
86 42
89 94
91 359
92 195
93 608
94 657
95 597
96 371
97 219
98 187
99 58
100 29
104 192
105 302
106 183
107 252
108 142
109 288
110 109
111 448
112 244
113 26
121 355
122 999
123 379
124 285
125 113
135 85
139 136
140 61
149 66
150 764
151 274
168 99
169 9

$$$$

     RDKit          2D

 15 16  0  0  0  0  0  0  0  0999 V2000
   -0.2668   -3.1525    0.0000 C   0  0  0  0  0  0  0  0  0  0  0  0
   -4.2100    0.0000    0.0000 C   0  0  0  0  0  0  0  0  0  0  0  0
   -0.2668    3.1525    0.0000 C   0  0  0  0  0  0  0  0  0  0  0  0
    2.0000    1.2100    0.0000 C   0  0  0  0  0  0  0  0  0  0  0  0
    2.8800   -0.0000    0.0000 C   0  0  0  0  0  0  0  0  0  0  0  0
   -2.0600   -1.3500    0.0000 C   0  0  0  0  0  0  0  0  0  0  0  0
   -0.6000   -1.6900    0.0000 C   0  0  0  0  0  0  0  0  0  0  0  0
   -2.7100   -0.0000    0.0000 C   0  0  0  0  0  0  0  0  0  0  0  0
   -0.6000    1.6900    0.0000 C   0  0  0  0  0  0  0  0  0  0  0  0
    0.5700    0.7500    0.0000 C   0  0  0  0  0  0  0  0  0  0  0  0
    2.0000   -1.2100    0.0000 C   0  0  0  0  0  0  0  0  0  0  0  0
    0.5700   -0.7500    0.0000 C   0  0  0  0  0  0  0  0  0  0  0  0
   -2.0600    1.3500    0.0000 C   0  0  0  0  0  0  0  0  0  0  0  0
    2.4653   -2.6360    0.0000 O   0  0  0  0  0  0  0  0  0  0  0  0
   -2.9979    2.5207    0.0000 O   0  0  0  0  0  0  0  0  0  0  0  0
  5  4  2  0
  7  1  1  0
  7  6  2  0
  8  2  1  0
  8  6  1  0
  9  3  1  0
 10  4  1  0
 10  9  2  0
 11  5  1  0
 12  7  1  0
 12 10  1  0
 12 11  2  0
 13  8  2  0
 13  9  1  0
 14 11  1  0
 15 13  1  0
M  END
>  <NAME>  (4213) 
1,5-DIHYDROXY-4,6,8-TRIMETHYLAZULENE

>  <SYNONYMS>  (4213) 


>  <SPECTRUM TYPE>  (4213) 
MS1

>  <INSTRUMENT TYPE>  (4213) 
EI-B

>  <INSTRUMENT>  (4213) 
JEOL JMS-HX-100

>  <ION MODE>  (4213) 
P

>  <INCHIKEY>  (4213) 
UYNMLOQGFXASNF-UHFFFAOYSA-N

>  <FORMULA>  (4213) 
C13H14O2

>  <EXACT MASS>  (4213) 
202.099379688

>  <MW>  (4213) 
202

>  <ID>  (4213) 
JP004574

>  <CONTRIBUTOR>  (4213) 
University of Tokyo Team, {Faculty of Engineering, University of Tokyo

>  <COMMENT>  (4213) 
SMILES=CC(C=1)=C(O)C(C)=C(C=2)C(=C(O)C2)C(C)1
InChI=InChI=1S/C13H14O2/c1-7-6-8(2)13(15)9(3)10-4-5-11(14)12(7)10/h4-6,14-15H,1-3H3
computed SMILES=OC1=CC=C2C1=C(C=C(C(O)=C2C)C)C
accession=JP004574
date=2016.01.19 (Created 2008.10.21, modified 2011.05.06)
license=CC BY-NC-SA
author=HAYASHI A, DEPT. OF CHEMISTRY, FAC. OF SCI. AND TECHNOLOGY, KINKI UNIV.
exact mass=202.09938
ionization energy=70 eV
ion type=[M]+*
computed spectral entropy=3.550113001314616
computed normalized entropy=0.8504512810579197
SPLASH=splash10-0f89-4910000000-230ad510949cc810c5c5
submitter=submitter = University of Tokyo Team (Faculty of Engineering, University of Tokyo)
MoNA Rating=3.75

>  <NUM PEAKS>  (4213) 
65

>  <MASS SPECTRAL PEAKS>  (4213) 
38 2.05
39 24.9
40 4.05
41 10.38
42 2.62
43 6.49
50 6.54
51 20.47
52 7.84
53 12.11
55 4.05
57.5 1.73
58 2.46
62 2.97
63 12.4
64 6.58
64.5 1.68
65 14.96
66 2.95
67 2.87
71 2.46
72 1.67
73 1.89
74 3.46
75 4.8
76 4.22
77 21.84
78 8.38
79 6.42
86 1.83
87 5.1
89 4.97
91 35.1
92 3.87
102 3.88
103 7.47
104 2.43
105 8.08
115 31.42
116 15.98
117 14.58
118 5.98
119 3.96
127 6.89
128 17.1
129 15.56
130 9.14
131 99.99
132 43.8
133 5.61
141 3.76
143 1.92
144 2.05
145 17.17
146 46.44
147 7.99
149 1.95
157 1.85
159 29.04
160 3.95
173 12.11
174 63.62
175 8.65
202 81.55
203 12.92

>  <PREDICTED SPECTRUM>  (4213) 
14 21
15 52
16 6
18 6
26 45
27 196
28 70
29 112
37 24
38 116
39 417
40 143
41 371
42 112
43 209
44 102
49 7
50 263
51 519
52 305
53 455
54 114
55 330
57 75
58 7
61 105
62 197
63 375
64 222
65 475
66 209
67 293
68 61
69 175
71 15
72 74
74 185
75 172
76 158
77 663
78 312
79 452
80 37
81 38
83 11
86 87
87 89
88 46
89 294
90 120
91 676
92 203
93 84
94 21
102 238
103 548
104 271
105 355
106 125
107 92
115 640
116 311
117 317
118 222
119 136
120 76
122 46
127 289
128 468
129 357
130 193
131 915
132 707
133 411
134 167
136 201
141 114
143 155
144 126
145 504
146 706
147 377
148 59
149 7
156 91
157 177
158 116
159 679
160 247
161 0
169 1
171 30
172 13
173 278
174 946
175 389
183 13
187 143
188 44
201 74
202 999
203 358
204 68

$$$$

     RDKit          2D

 27 30  0  0  0  0  0  0  0  0999 V2000
   -3.0331    6.0702    0.0000 C   0  0  0  0  0  0  0  0  0  0  0  0
    3.0331    6.0702    0.0000 C   0  0  0  0  0  0  0  0  0  0  0  0
    1.3000   -6.5000    0.0000 C   0  0  0  0  0  0  0  0  0  0  0  0
    2.6000   -5.7500    0.0000 C   0  0  0  0  0  0  0  0  0  0  0  0
   -0.0000   -5.7500    0.0000 C   0  0  0  0  0  0  0  0  0  0  0  0
   -2.6000   -1.2500    0.0000 C   0  0  0  0  0  0  0  0  0  0  0  0
    2.6000   -4.2500    0.0000 C   0  0  0  0  0  0  0  0  0  0  0  0
   -0.0000   -4.2500    0.0000 C   0  0  0  0  0  0  0  0  0  0  0  0
   -1.3000   -2.0000    0.0000 C   0  0  0  0  0  0  0  0  0  0  0  0
   -2.6000    0.2500    0.0000 C   0  0  0  0  0  0  0  0  0  0  0  0
    2.6000   -1.2500    0.0000 C   0  0  0  0  0  0  0  0  0  0  0  0
    1.3000   -3.5000    0.0000 C   0  0  0  0  0  0  0  0  0  0  0  0
    1.3000   -2.0000    0.0000 C   0  0  0  0  0  0  0  0  0  0  0  0
    0.0000   -1.2500    0.0000 C   0  0  0  0  0  0  0  0  0  0  0  0
   -1.3000    1.0000    0.0000 C   0  0  0  0  0  0  0  0  0  0  0  0
    2.6000    0.2500    0.0000 C   0  0  0  0  0  0  0  0  0  0  0  0
   -1.3000    2.5000    0.0000 C   0  0  0  0  0  0  0  0  0  0  0  0
    1.3000    2.5000    0.0000 C   0  0  0  0  0  0  0  0  0  0  0  0
    1.3000    1.0000    0.0000 C   0  0  0  0  0  0  0  0  0  0  0  0
   -2.3607    3.5607    0.0000 C   0  0  0  0  0  0  0  0  0  0  0  0
    2.3607    3.5607    0.0000 C   0  0  0  0  0  0  0  0  0  0  0  0
    0.0000    0.2500    0.0000 N   0  0  0  0  0  0  0  0  0  0  0  0
    3.8989    1.0002    0.0000 O   0  0  0  0  0  0  0  0  0  0  0  0
   -3.8095    3.1724    0.0000 O   0  0  0  0  0  0  0  0  0  0  0  0
    3.8095    3.1724    0.0000 O   0  0  0  0  0  0  0  0  0  0  0  0
   -1.9724    5.0095    0.0000 O   0  0  0  0  0  0  0  0  0  0  0  0
    1.9724    5.0095    0.0000 O   0  0  0  0  0  0  0  0  0  0  0  0
  4  3  2  0
  5  3  1  0
  7  4  1  0
  8  5  2  0
  9  6  1  0
 10  6  2  0
 12  7  2  0
 12  8  1  0
 13 11  2  0
 13 12  1  0
 14  9  2  0
 14 13  1  0
 15 10  1  0
 16 11  1  0
 17 15  2  0
 18 17  1  0
 19 16  1  0
 19 18  2  0
 20 17  1  0
 21 18  1  0
 22 14  1  0
 22 15  1  0
 22 19  1  0
 23 16  2  0
 24 20  2  0
 25 21  2  0
 26  1  1  0
 26 20  1  0
 27  2  1  0
 27 21  1  0
M  END
>  <NAME>  (4214) 
1,2-DIMETHOXYCARBONYL-3-OXO-5-PHENYL-4,5-DEHYDROPIPERIDINO(2,1,6-CD)INDOLIZINE

>  <SYNONYMS>  (4214) 


>  <SPECTRUM TYPE>  (4214) 
MS1

>  <INSTRUMENT TYPE>  (4214) 
EI-B

>  <INSTRUMENT>  (4214) 
JEOL JMS-HX-100

>  <ION MODE>  (4214) 
P

>  <INCHIKEY>  (4214) 
UISUVSVDSFOHCY-UHFFFAOYSA-N

>  <FORMULA>  (4214) 
C21H15NO5

>  <EXACT MASS>  (4214) 
361.09502258

>  <MW>  (4214) 
361

>  <ID>  (4214) 
JP004573

>  <CONTRIBUTOR>  (4214) 
University of Tokyo Team, {Faculty of Engineering, University of Tokyo

>  <COMMENT>  (4214) 
SMILES=COC(=O)c(c(C(=O)OC)1)c(C([H])=4)n(C(=C([H])C([H])4)2)c(C(=O)C([H])=C(c(c3)cccc3)2)1
InChI=InChI=1S/C21H15NO5/c1-26-20(24)17-15-10-6-9-14-13(12-7-4-3-5-8-12)11-16(23)19(22(14)15)18(17)21(25)27-2/h3-11H,1-2H3
computed SMILES=O=C(OC)C1=C2C=CC=C3C(=CC(=O)C(=C1C(=O)OC)N32)C=4C=CC=CC4
accession=JP004573
date=2016.01.19 (Created 2008.10.21, modified 2011.05.06)
author=HAYASHI A, DEPT. OF CHEMISTRY, FAC. OF SCI. AND TECHNOLOGY, KINKI UNIV.
license=CC BY-NC-SA
exact mass=361.09502
ionization energy=70 eV
ion type=[M]+*
computed spectral entropy=3.184666113945979
computed normalized entropy=0.8226558385814993
SPLASH=splash10-01ot-1193000000-b663d8b2dc49c176ca01
submitter=submitter = University of Tokyo Team (Faculty of Engineering, University of Tokyo)
MoNA Rating=3.75

>  <NUM PEAKS>  (4214) 
48

>  <MASS SPECTRAL PEAKS>  (4214) 
41 2.13
43 2.47
44 10.95
51 2.22
57 2.17
63 2.08
77 2.37
78 4.68
94 2.57
95 2.43
108 10.55
122 4.51
123 2.1
135 6.18
136 5.96
151 2.85
163 2.12
165 3.19
187 3.59
188 3.49
189 4.8
190 3.02
213 2.42
214 8.93
215 15.4
216 15.49
217 17.24
218 3.03
228 4.14
229 6.98
230 2.96
243 4.31
244 6.02
245 99.99
246 21.01
247 2.26
257 2.97
258 2.64
259 5.87
272 9.52
273 23.51
274 5.08
302 3.22
330 17.06
331 7.87
361 48.76
362 12.18
363 2.15

>  <PREDICTED SPECTRUM>  (4214) 
14 9
15 47
28 35
29 18
31 25
32 2
33 9
38 14
39 183
40 11
41 12
43 80
44 119
50 25
51 109
57 26
59 144
62 69
63 150
64 7
65 4
74 52
75 119
76 108
77 71
86 35
87 65
89 62
90 35
98 50
99 37
100 52
101 2
103 46
104 37
105 78
106 50
110 11
111 58
112 46
113 70
114 29
116 1
117 29
118 9
123 7
125 37
126 99
127 64
135 41
138 99
145 23
149 33
150 30
151 198
159 25
161 89
162 95
163 152
164 152
165 38
171 112
173 65
175 116
176 39
177 38
185 118
187 181
188 199
189 225
190 188
191 44
192 96
201 16
202 67
203 68
204 63
212 62
213 310
214 314
215 481
216 462
217 497
218 187
219 88
228 253
229 338
230 232
231 271
242 59
243 490
244 543
245 999
246 468
247 63
257 227
258 381
259 341
271 75
272 352
273 600
274 232
275 79
300 51
302 147
330 702
331 384
361 920
362 487
363 140

$$$$

     RDKit          2D

 18 20  0  0  0  0  0  0  0  0999 V2000
   -3.9427    1.3596    0.0000 C   0  0  0  0  0  0  0  0  0  0  0  0
   -4.9072   -0.3103    0.0000 C   0  0  0  0  0  0  0  0  0  0  0  0
    3.0589   -2.3002    0.0000 C   0  0  0  0  0  0  0  0  0  0  0  0
    1.7600    2.9500    0.0000 C   0  0  0  0  0  0  0  0  0  0  0  0
    3.0600    2.2000    0.0000 C   0  0  0  0  0  0  0  0  0  0  0  0
    0.4600    2.2000    0.0000 C   0  0  0  0  0  0  0  0  0  0  0  0
    3.0600    0.7000    0.0000 C   0  0  0  0  0  0  0  0  0  0  0  0
   -2.1300   -2.3000    0.0000 C   0  0  0  0  0  0  0  0  0  0  0  0
   -3.4300   -1.5500    0.0000 C   0  0  0  0  0  0  0  0  0  0  0  0
    0.4600    0.7000    0.0000 C   0  0  0  0  0  0  0  0  0  0  0  0
   -0.8300   -1.5500    0.0000 C   0  0  0  0  0  0  0  0  0  0  0  0
    1.7600   -0.0500    0.0000 C   0  0  0  0  0  0  0  0  0  0  0  0
   -0.8300   -0.0500    0.0000 C   0  0  0  0  0  0  0  0  0  0  0  0
    0.4600   -2.3000    0.0000 C   0  0  0  0  0  0  0  0  0  0  0  0
   -3.4300   -0.0500    0.0000 C   0  0  0  0  0  0  0  0  0  0  0  0
    1.7600   -1.5500    0.0000 N   0  0  0  0  0  0  0  0  0  0  0  0
    0.4575   -3.8000    0.0000 O   0  0  0  0  0  0  0  0  0  0  0  0
   -2.1300    0.7000    0.0000 O   0  0  0  0  0  0  0  0  0  0  0  0
  5  4  2  0
  6  4  1  0
  7  5  1  0
  9  8  2  0
 10  6  2  0
 11  8  1  0
 12  7  2  0
 12 10  1  0
 13 10  1  0
 13 11  2  0
 14 11  1  0
 15  1  1  0
 15  2  1  0
 15  9  1  0
 16  3  1  0
 16 12  1  0
 16 14  1  0
 17 14  2  0
 18 13  1  0
 18 15  1  0
M  END
>  <NAME>  (4215) 
N-METHYLFLINDERSINE

>  <SYNONYMS>  (4215) 
2,2,6-TRIMETHYL-2H-PYRANO(3,2-C)QUINOLIN-5(6H)-ONE

>  <SPECTRUM TYPE>  (4215) 
MS1

>  <INSTRUMENT TYPE>  (4215) 
EI-B

>  <INSTRUMENT>  (4215) 
JEOL JMS-HX-100

>  <ION MODE>  (4215) 
P

>  <INCHIKEY>  (4215) 
RJZFGBNKPOVCHQ-UHFFFAOYSA-N

>  <FORMULA>  (4215) 
C15H15NO2

>  <EXACT MASS>  (4215) 
241.11027872

>  <MW>  (4215) 
241

>  <ID>  (4215) 
JP004572

>  <CONTRIBUTOR>  (4215) 
University of Tokyo Team, {Faculty of Engineering, University of Tokyo

>  <COMMENT>  (4215) 
SMILES=CC(C)(C=3)OC(=C(C3)1)c(c2)c(ccc2)N(C)C(=O)1
InChI=InChI=1S/C15H15NO2/c1-15(2)9-8-11-13(18-15)10-6-4-5-7-12(10)16(3)14(11)17/h4-9H,1-3H3
computed SMILES=O=C1C=2C=CC(OC2C=3C=CC=CC3N1C)(C)C
accession=JP004572
date=2016.01.19 (Created 2008.10.21, modified 2011.05.06)
author=HAYASHI A, DEPT. OF CHEMISTRY, FAC. OF SCI. AND TECHNOLOGY, KINKI UNIV.
license=CC BY-NC-SA
exact mass=241.11028
ionization energy=70 eV
ion type=[M]+*
computed spectral entropy=2.074992859267255
computed normalized entropy=0.6100771658989141
SPLASH=splash10-004i-1090000000-eae38f6a791f6e36dddb
submitter=submitter = University of Tokyo Team (Faculty of Engineering, University of Tokyo)
MoNA Rating=3.75

>  <NUM PEAKS>  (4215) 
30

>  <MASS SPECTRAL PEAKS>  (4215) 
39 2.36
43 2.01
51 2.39
63 1.96
64 1.35
65 1.22
76 1.43
77 6.72
78 2.52
79 1.72
91 1.25
92 1.22
128 1.37
132 1.86
134 1.39
154 1.9
183 2.34
184 1.21
198 2.01
200 2.26
211 1.21
212 1.23
224 2.15
225 1.45
226 99.99
227 17.95
228 1.87
240 4.01
241 20.76
242 3.7

>  <PREDICTED SPECTRUM>  (4215) 
27 7
38 7
39 105
40 38
41 60
42 65
43 86
44 41
45 5
49 4
50 82
51 140
52 92
53 94
54 31
55 78
56 68
57 20
58 15
62 45
63 138
64 73
65 109
66 44
67 60
68 29
69 30
70 47
71 18
74 24
75 69
76 137
77 216
78 108
79 106
80 32
81 16
82 51
83 43
84 20
86 18
87 1
88 0
89 121
90 73
91 102
92 58
93 5
94 1
96 2
97 29
98 42
99 31
101 41
102 104
103 97
104 163
105 193
106 62
112 7
113 23
114 42
115 180
116 54
117 8
118 51
126 36
127 84
128 123
129 110
130 99
131 32
139 49
140 86
141 58
142 108
143 77
144 130
145 45
146 9
152 28
153 25
154 102
155 48
156 44
158 90
165 13
167 28
168 161
169 127
170 175
171 40
172 9
182 57
183 80
184 22
196 165
197 76
198 237
199 95
210 92
211 138
212 221
213 71
214 19
224 106
225 58
226 999
227 427
228 67
240 182
241 762
242 318
243 79

$$$$

     RDKit          2D

 12 13  0  0  0  0  0  0  0  0999 V2000
   -2.3100    0.7500    0.0000 C   0  0  0  0  0  0  0  0  0  0  0  0
   -2.3100   -0.7500    0.0000 C   0  0  0  0  0  0  0  0  0  0  0  0
   -1.0000    1.5000    0.0000 C   0  0  0  0  0  0  0  0  0  0  0  0
   -1.0000   -1.5000    0.0000 C   0  0  0  0  0  0  0  0  0  0  0  0
    0.3000    0.7500    0.0000 C   0  0  0  0  0  0  0  0  0  0  0  0
    0.2900   -0.7500    0.0000 C   0  0  0  0  0  0  0  0  0  0  0  0
    1.7200    1.2100    0.0000 C   0  0  0  0  0  0  0  0  0  0  0  0
    2.6000   -0.0000    0.0000 N   0  0  0  0  0  0  0  0  0  0  0  0
    2.1838    2.6365    0.0000 O   0  0  0  0  0  0  0  0  0  0  0  0
    1.0980   -2.5795    0.0000 O   0  0  0  0  0  0  0  0  0  0  0  0
    3.0063   -1.9647    0.0000 O   0  0  0  0  0  0  0  0  0  0  0  0
    1.7100   -1.2100    0.0000 S   0  0  0  0  0  0  0  0  0  0  0  0
  2  1  2  0
  3  1  1  0
  4  2  1  0
  5  3  2  0
  6  4  2  0
  6  5  1  0
  7  5  1  0
  8  7  2  0
  9  7  1  0
 12  6  1  0
 12  8  1  0
 12 10  2  0
 12 11  2  0
M  END
>  <NAME>  (4216) 
SACCHARIN

>  <SYNONYMS>  (4216) 
2,3-DIHYDRO-3-OXOBENZISOSULFONAZOLE

>  <SPECTRUM TYPE>  (4216) 
MS1

>  <INSTRUMENT TYPE>  (4216) 
EI-B

>  <INSTRUMENT>  (4216) 
JEOL JMS-HX-100

>  <ION MODE>  (4216) 
P

>  <INCHIKEY>  (4216) 
CVHZOJJKTDOEJC-UHFFFAOYSA-N

>  <FORMULA>  (4216) 
C7H5NO3S

>  <EXACT MASS>  (4216) 
182.99901401999998

>  <MW>  (4216) 
183

>  <ID>  (4216) 
JP004570

>  <CONTRIBUTOR>  (4216) 
University of Tokyo Team, {Faculty of Engineering, University of Tokyo

>  <COMMENT>  (4216) 
SMILES=C1=CC=C2C(=C1)C(=O)NS2(=O)=O
cas=81-07-2
InChI=InChI=1S/C7H5NO3S/c9-7-5-3-1-2-4-6(5)12(10,11)8-7/h1-4H,(H,8,9)
computed SMILES=O=S1(=O)N=C(O)C=2C=CC=CC21
accession=JP004570
date=2016.01.19 (Created 2008.10.21, modified 2011.05.06)
author=HAYASHI A, DEPT. OF CHEMISTRY, FAC. OF SCI. AND TECHNOLOGY, KINKI UNIV.
license=CC BY-NC-SA
exact mass=182.99901
ionization energy=70 eV
ion type=[M]+*
computed spectral entropy=3.3401708800104553
computed normalized entropy=0.841291006489769
SPLASH=splash10-0fiv-9200000000-3cbd853d90d67ac630ab
submitter=submitter = University of Tokyo Team (Faculty of Engineering, University of Tokyo)
MoNA Rating=3.75

>  <NUM PEAKS>  (4216) 
53

>  <MASS SPECTRAL PEAKS>  (4216) 
37 12.59
38 24.24
39 15.98
40 1.89
41 2.85
42 3.41
43 44.53
44 7.38
45 4.19
48 61.29
49 9.27
50 87.65
51 11.26
52 11.44
53 5.59
57 1.57
58 1.24
61 5.44
62 8.27
63 30.93
64 23.79
65 10.33
66 1.45
69 8.12
70 2.88
73 8.41
74 44.92
75 28.55
76 99.99
77 10.3
78 1.71
79 5.35
81 1.88
82 1.28
84 4.35
90 3.47
91 10.13
92 46.12
93 4.09
95 1.93
96 2.21
103 16.92
104 24.1
105 2.18
112 1.99
119 42.54
120 39.73
121 5.02
122 1.65
140 6.35
183 59.39
184 15.72
185 4.56

>  <PREDICTED SPECTRUM>  (4216) 
16 28
17 17
18 0
27 11
32 11
37 150
38 207
39 341
40 158
41 98
42 84
43 32
44 188
45 116
46 97
48 224
49 98
50 743
51 443
52 289
53 286
54 56
55 71
56 152
57 76
61 106
62 342
63 485
64 528
65 391
66 134
67 68
68 88
69 214
70 245
71 80
73 89
74 545
75 748
76 837
77 342
78 97
80 10
81 1
83 83
84 43
89 75
90 621
91 788
92 408
93 110
100 122
102 514
103 827
104 756
105 291
109 41
118 275
119 726
120 452
121 9
135 290
137 204
138 0
167 80
183 999
184 259
185 116

$$$$

     RDKit          2D

 11 10  0  0  0  0  0  0  0  0999 V2000
    2.5981    4.5000    0.0000 C   0  0  0  0  0  0  0  0  0  0  0  0
   -3.8971    6.7500    0.0000 C   0  0  0  0  0  0  0  0  0  0  0  0
   -7.7942    4.5000    0.0000 C   0  0  0  0  0  0  0  0  0  0  0  0
    1.2990    5.2500    0.0000 C   0  0  0  0  0  0  0  0  0  0  0  0
   -5.1962    4.5000    0.0000 C   0  0  0  0  0  0  0  0  0  0  0  0
   -2.5981    4.5000    0.0000 C   0  0  0  0  0  0  0  0  0  0  0  0
   -3.8971    5.2500    0.0000 C   0  0  0  0  0  0  0  0  0  0  0  0
    0.0000    4.5000    0.0000 C   0  0  0  0  0  0  0  0  0  0  0  0
    0.0000    3.0000    0.0000 O   0  0  0  0  0  0  0  0  0  0  0  0
   -6.4952    5.2500    0.0000 O   0  0  0  0  0  0  0  0  0  0  0  0
   -1.2990    5.2500    0.0000 O   0  0  0  0  0  0  0  0  0  0  0  0
  4  1  2  0
  7  2  1  0
  7  5  1  0
  7  6  1  0
  8  4  1  0
  9  8  2  0
 10  3  1  0
 10  5  1  0
 11  6  1  0
 11  8  1  0
M  END
>  <NAME>  (4217) 
2-METHYL-3-METHOXYPROPYL 2-PROPENOATE

>  <SYNONYMS>  (4217) 


>  <SPECTRUM TYPE>  (4217) 
MS1

>  <INSTRUMENT TYPE>  (4217) 
EI-B

>  <INSTRUMENT>  (4217) 
JEOL JMS-HX-100

>  <ION MODE>  (4217) 
P

>  <INCHIKEY>  (4217) 
RCQZQQQKVUVYAW-UHFFFAOYSA-N

>  <FORMULA>  (4217) 
C8H14O3

>  <EXACT MASS>  (4217) 
158.094294308

>  <MW>  (4217) 
158

>  <ID>  (4217) 
JP004569

>  <CONTRIBUTOR>  (4217) 
University of Tokyo Team, {Faculty of Engineering, University of Tokyo

>  <COMMENT>  (4217) 
SMILES=COCC(C)COC(=O)C=C
InChI=InChI=1S/C8H14O3/c1-4-8(9)11-6-7(2)5-10-3/h4,7H,1,5-6H2,2-3H3
computed SMILES=O=C(OCC(C)COC)C=C
accession=JP004569
date=2016.01.19 (Created 2008.10.21, modified 2011.05.06)
author=HAYASHI A, DEPT. OF CHEMISTRY, FAC. OF SCI. AND TECHNOLOGY, KINKI UNIV.
license=CC BY-NC-SA
exact mass=158.09429
ionization energy=70 eV
ion type=[M]+*
computed spectral entropy=2.4375255426101914
computed normalized entropy=0.6263201679156523
SPLASH=splash10-0bt9-9300000000-46f7bc84532b76603a85
submitter=submitter = University of Tokyo Team (Faculty of Engineering, University of Tokyo)
MoNA Rating=3.75

>  <NUM PEAKS>  (4217) 
49

>  <MASS SPECTRAL PEAKS>  (4217) 
38 0.15
39 2.36
41 14.18
42 3.51
43 5.15
44 0.24
45 20.24
46 0.56
53 0.52
54 0.65
55 99.99
56 4.93
57 2.32
58 7.96
59 24.97
60 1.04
67 0.18
68 1.42
69 1.02
70 0.48
71 1.48
72 2.38
73 37.79
74 2.04
75 0.25
84 0.43
85 0.7
86 0.68
87 1.9
89 6.12
90 0.29
95 0.14
99 1.42
100 0.48
101 0.49
103 2.69
104 0.21
112 0.39
113 81.5
114 7.04
115 0.78
116 3.18
117 3.06
118 0.24
130 1.89
131 0.21
143 0.36
157 4.07
158 0.45

>  <PREDICTED SPECTRUM>  (4217) 
14 22
15 81
19 9
25 10
26 97
27 334
28 133
29 268
30 69
31 196
32 22
33 17
36 35
37 18
38 55
39 316
40 122
41 486
42 259
43 296
44 190
45 877
46 193
50 1
51 22
53 159
54 198
55 999
56 295
57 264
58 364
59 330
60 63
69 214
70 152
71 70
72 206
73 537
83 242
85 211
86 125
87 156
97 5
98 21
99 66
100 45
101 41
112 105
113 980
114 310
115 90
128 85
143 27

$$$$

     RDKit          2D

 12 12  0  0  0  0  0  0  0  0999 V2000
   -4.1871    1.6701    0.0000 C   0  0  0  0  0  0  0  0  0  0  0  0
   -0.2905   -0.5808    0.0000 C   0  0  0  0  0  0  0  0  0  0  0  0
    1.0085   -1.3308    0.0000 C   0  0  0  0  0  0  0  0  0  0  0  0
    1.0095    1.6709    0.0000 C   0  0  0  0  0  0  0  0  0  0  0  0
   -0.2900    0.9201    0.0000 C   0  0  0  0  0  0  0  0  0  0  0  0
    2.3080   -0.5799    0.0000 C   0  0  0  0  0  0  0  0  0  0  0  0
    2.3085    0.9209    0.0000 C   0  0  0  0  0  0  0  0  0  0  0  0
   -1.5891    1.6701    0.0000 C   0  0  0  0  0  0  0  0  0  0  0  0
    3.6071   -1.3299    0.0000 O   0  0  0  0  0  0  0  0  0  0  0  0
    3.6077    1.6707    0.0000 O   0  0  0  0  0  0  0  0  0  0  0  0
   -1.5891    3.1701    0.0000 O   0  0  0  0  0  0  0  0  0  0  0  0
   -2.8881    0.9201    0.0000 O   0  0  0  0  0  0  0  0  0  0  0  0
  3  2  2  0
  5  2  1  0
  5  4  2  0
  6  3  1  0
  7  4  1  0
  7  6  2  0
  8  5  1  0
  9  6  1  0
 10  7  1  0
 11  8  2  0
 12  1  1  0
 12  8  1  0
M  END
>  <NAME>  (4218) 
PROTOCATECHUIC ACID METHYLESTER

>  <SYNONYMS>  (4218) 
METHYL 3,4-DIHYDROXYBENZOATE

>  <SPECTRUM TYPE>  (4218) 
MS1

>  <INSTRUMENT TYPE>  (4218) 
EI-B

>  <INSTRUMENT>  (4218) 
SHIMADZU LKB-9000B

>  <ION MODE>  (4218) 
P

>  <INCHIKEY>  (4218) 
CUFLZUDASVUNOE-UHFFFAOYSA-N

>  <FORMULA>  (4218) 
C8H8O4

>  <EXACT MASS>  (4218) 
168.042258736

>  <MW>  (4218) 
168

>  <ID>  (4218) 
JP004568

>  <CONTRIBUTOR>  (4218) 
University of Tokyo Team, {Faculty of Engineering, University of Tokyo

>  <COMMENT>  (4218) 
SMILES=COC(=O)c(c1)cc(O)c(O)c1
cas=2150-43-8
InChI=InChI=1S/C8H8O4/c1-12-8(11)5-2-3-6(9)7(10)4-5/h2-4,9-10H,1H3
computed SMILES=O=C(OC)C1=CC=C(O)C(O)=C1
accession=JP004568
date=2016.01.19 (Created 2008.10.21, modified 2011.05.06)
author=HAYASHI A, DEPT. OF CHEMISTRY, FAC. OF SCI. AND TECHNOLOGY, KINKI UNIV.
license=CC BY-NC-SA
exact mass=168.04226
ionization energy=70 eV
ion type=[M]+*
computed spectral entropy=2.1888813017493893
computed normalized entropy=0.6017400566297608
SPLASH=splash10-000i-2900000000-934d0a8a65603862a0cb
submitter=submitter = University of Tokyo Team (Faculty of Engineering, University of Tokyo)
MoNA Rating=3.75

>  <NUM PEAKS>  (4218) 
38

>  <MASS SPECTRAL PEAKS>  (4218) 
37 0.5
38 1
39 1.9
41 0.05
49 0.7
50 3.6
51 7.2
52 0.55
53 5.2
54 0.8
55 3.9
59 0.07
61 0.8
62 2.1
63 4.1
64 0.05
66 0.5
77 0.9
79 4.4
80 0.19
81 8.9
82 0.7
91 1.9
107 0.22
108 3.2
109 19.7
110 2.3
111 0.13
123 2.3
136 2.1
137 99.99
138 0.94
139 1.9
151 1.5
166 1.9
167 0.24
168 37.2
169 3.4

>  <PREDICTED SPECTRUM>  (4218) 
14 12
15 72
16 17
17 7
18 14
25 7
26 39
27 58
28 23
29 133
30 25
31 127
32 23
37 40
38 92
39 107
41 114
42 44
43 81
44 55
45 1
49 97
50 219
51 274
52 228
53 350
54 145
55 148
59 178
60 22
61 92
62 143
63 282
64 107
65 254
66 150
67 83
68 9
69 115
74 50
76 19
77 192
78 163
79 258
80 175
81 326
82 134
90 35
91 97
92 54
93 128
94 111
95 10
97 65
105 8
106 24
107 158
108 146
109 490
110 147
111 49
121 92
122 110
123 102
125 81
136 58
137 999
138 300
139 93
168 823
169 246
170 97

$$$$

     RDKit          2D

 13 13  0  0  0  0  0  0  0  0999 V2000
   -3.8978    3.7551    0.0000 C   0  0  0  0  0  0  0  0  0  0  0  0
    3.8927    3.7232    0.0000 C   0  0  0  0  0  0  0  0  0  0  0  0
    2.5791    1.4983    0.0000 C   0  0  0  0  0  0  0  0  0  0  0  0
    1.2983    3.7296    0.0000 C   0  0  0  0  0  0  0  0  0  0  0  0
    5.1772    2.9983    0.0000 C   0  0  0  0  0  0  0  0  0  0  0  0
    3.9037    0.7042    0.0000 C   0  0  0  0  0  0  0  0  0  0  0  0
   -0.0044    2.9860    0.0000 C   0  0  0  0  0  0  0  0  0  0  0  0
    2.5937    2.9732    0.0000 C   0  0  0  0  0  0  0  0  0  0  0  0
    5.2027    1.4542    0.0000 C   0  0  0  0  0  0  0  0  0  0  0  0
   -1.2997    3.7423    0.0000 C   0  0  0  0  0  0  0  0  0  0  0  0
    6.5079    0.7149    0.0000 O   0  0  0  0  0  0  0  0  0  0  0  0
   -1.2923    5.2423    0.0000 O   0  0  0  0  0  0  0  0  0  0  0  0
   -2.6024    2.9987    0.0000 O   0  0  0  0  0  0  0  0  0  0  0  0
  5  2  2  0
  6  3  1  0
  4  7  2  0
  8  2  1  0
  8  3  2  0
  8  4  1  0
  9  5  1  0
  9  6  2  0
 10  7  1  0
 11  9  1  0
 12 10  2  0
 13  1  1  0
 13 10  1  0
M  END
>  <NAME>  (4219) 
METHYL 3-(4-HYDROXYPHENYL)-2-PROPENOATE

>  <SYNONYMS>  (4219) 
METHYL COUMARATE

>  <SPECTRUM TYPE>  (4219) 
MS1

>  <INSTRUMENT TYPE>  (4219) 
EI-B

>  <INSTRUMENT>  (4219) 
SHIMADZU LKB-9000B

>  <ION MODE>  (4219) 
P

>  <INCHIKEY>  (4219) 
NITWSHWHQAQBAW-QPJJXVBHSA-N

>  <FORMULA>  (4219) 
C10H10O3

>  <EXACT MASS>  (4219) 
178.06299417999998

>  <MW>  (4219) 
178

>  <ID>  (4219) 
JP004567

>  <CONTRIBUTOR>  (4219) 
University of Tokyo Team, {Faculty of Engineering, University of Tokyo

>  <COMMENT>  (4219) 
SMILES=COC(=O)C=Cc(c1)ccc(O)c1
cas=3943-97-3
InChI=InChI=1S/C10H10O3/c1-13-10(12)7-4-8-2-5-9(11)6-3-8/h2-7,11H,1H3/b7-4+
computed SMILES=O=C(OC)C=CC1=CC=C(O)C=C1
accession=JP004567
date=2016.01.19 (Created 2008.10.21, modified 2011.05.06)
author=HAYASHI A, DEPT. OF CHEMISTRY, FAC. OF SCI. AND TECHNOLOGY, KINKI UNIV.
license=CC BY-NC-SA
exact mass=178.06299
ionization energy=70 eV
ion type=[M]+*
computed spectral entropy=2.624259361107744
computed normalized entropy=0.6333994751344583
SPLASH=splash10-00mk-2900000000-f22d0087108aa992862d
submitter=submitter = University of Tokyo Team (Faculty of Engineering, University of Tokyo)
MoNA Rating=3.75

>  <NUM PEAKS>  (4219) 
63

>  <MASS SPECTRAL PEAKS>  (4219) 
37 0.5
38 1.5
39 7.3
41 0.09
43 0.9
45 0.7
46 1.4
50 0.17
51 3.5
52 0.9
53 2.1
59 0.45
60 2.1
61 0.8
62 2.8
63 0.78
64 3.5
65 15
66 1.7
74 0.17
75 2.1
77 1.5
78 0.7
79 0.09
86 0.5
87 0.6
88 0.5
89 0.77
90 3.2
91 19.3
92 2.5
94 0.06
101 1.7
102 0.7
103 0.7
105 0.07
106 0.8
107 2.5
108 0.5
117 0.14
118 11.1
119 30.9
120 9.4
121 0.2
122 0.8
131 0.6
132 1
133 0.15
134 1
135 0.9
137 1.2
145 0.05
146 2.2
147 99.99
148 9.1
149 0.06
150 0.5
160 0.5
161 0.6
177 0.26
178 55.4
179 7.7
180 1.2

>  <PREDICTED SPECTRUM>  (4219) 
15 42
26 44
27 88
28 47
29 98
31 51
32 12
37 14
38 73
39 137
40 5
41 65
43 55
45 104
49 3
50 194
51 284
52 171
53 164
55 136
59 96
61 31
62 101
63 247
64 133
65 209
66 31
70 23
71 19
74 94
75 111
76 101
77 264
78 113
79 128
80 27
81 44
89 158
90 173
91 350
92 160
93 26
101 35
102 190
103 116
104 75
105 126
106 47
107 106
108 54
115 21
117 127
118 383
119 479
120 255
121 15
131 11
132 115
133 120
134 61
135 108
145 231
146 184
147 999
148 287
149 132
150 57
161 65
162 5
163 87
177 187
178 900
179 248
180 56

$$$$

     RDKit          2D

 11 11  0  0  0  0  0  0  0  0999 V2000
   -3.2538    2.6270    0.0000 C   0  0  0  0  0  0  0  0  0  0  0  0
    1.9386    2.6078    0.0000 C   0  0  0  0  0  0  0  0  0  0  0  0
    0.6251    0.3829    0.0000 C   0  0  0  0  0  0  0  0  0  0  0  0
    3.2231    1.8829    0.0000 C   0  0  0  0  0  0  0  0  0  0  0  0
    1.9496   -0.4112    0.0000 C   0  0  0  0  0  0  0  0  0  0  0  0
    0.6396    1.8578    0.0000 C   0  0  0  0  0  0  0  0  0  0  0  0
    3.2486    0.3388    0.0000 C   0  0  0  0  0  0  0  0  0  0  0  0
   -0.6558    2.6142    0.0000 C   0  0  0  0  0  0  0  0  0  0  0  0
    4.5538   -0.4005    0.0000 O   0  0  0  0  0  0  0  0  0  0  0  0
   -0.6484    4.1141    0.0000 O   0  0  0  0  0  0  0  0  0  0  0  0
   -1.9585    1.8706    0.0000 O   0  0  0  0  0  0  0  0  0  0  0  0
  4  2  2  0
  5  3  1  0
  6  2  1  0
  6  3  2  0
  7  4  1  0
  7  5  2  0
  8  6  1  0
  9  7  1  0
 10  8  2  0
 11  1  1  0
 11  8  1  0
M  END
>  <NAME>  (4220) 
4-HYDROXYBENZOIC ACID METHYL ESTER

>  <SYNONYMS>  (4220) 
METHYL PARA-HYDROXYBENZOATE

>  <SPECTRUM TYPE>  (4220) 
MS1

>  <INSTRUMENT TYPE>  (4220) 
EI-B

>  <INSTRUMENT>  (4220) 
SHIMADZU LKB-9000B

>  <ION MODE>  (4220) 
P

>  <INCHIKEY>  (4220) 
LXCFILQKKLGQFO-UHFFFAOYSA-N

>  <FORMULA>  (4220) 
C8H8O3

>  <EXACT MASS>  (4220) 
152.04734411599998

>  <MW>  (4220) 
152

>  <ID>  (4220) 
JP004566

>  <CONTRIBUTOR>  (4220) 
University of Tokyo Team, {Faculty of Engineering, University of Tokyo

>  <COMMENT>  (4220) 
computed SMILES=O=C(OC)C1=CC=C(O)C=C1
SMILES=COC(=O)c(c1)ccc(O)c1
cas=99-76-3
InChI=InChI=1S/C8H8O3/c1-11-8(10)6-2-4-7(9)5-3-6/h2-5,9H,1H3
accession=JP004566
date=2016.01.19 (Created 2008.10.21, modified 2011.05.06)
author=HAYASHI A, DEPT. OF CHEMISTRY, FAC. OF SCI. AND TECHNOLOGY, KINKI UNIV.
license=CC BY-NC-SA
exact mass=152.04734
ionization energy=70 eV
ion type=[M]+*
computed spectral entropy=1.896161791160332
computed normalized entropy=0.5690412414274758
SPLASH=splash10-00di-4900000000-c5ef5603a5b5d1102f5a
submitter=submitter = University of Tokyo Team (Faculty of Engineering, University of Tokyo)
MoNA Rating=3.75

>  <NUM PEAKS>  (4220) 
28

>  <MASS SPECTRAL PEAKS>  (4220) 
37 0.9
38 2.6
39 11.9
50 0.15
51 1.1
52 0.6
53 2.8
61 0.11
62 2.8
63 5.9
64 3.5
65 1.73
66 1.9
74 1
75 0.8
92 0.31
93 28.4
94 2.2
95 0.7
107 0.05
108 0.5
120 0.9
121 99.99
122 0.79
123 1.3
151 1.8
152 34.3
153 3.8

>  <PREDICTED SPECTRUM>  (4220) 
14 29
15 105
16 19
17 4
25 7
26 54
27 97
28 44
29 173
30 4
31 65
32 45
37 87
38 166
39 227
40 4
43 15
49 22
50 199
51 153
52 89
53 199
54 37
55 21
59 47
61 95
62 152
63 316
64 215
65 467
66 173
67 30
74 94
75 49
76 64
77 72
78 94
81 24
92 236
93 399
94 136
95 69
106 2
107 33
109 36
121 999
122 290
123 159
124 8
151 35
152 744
153 233
154 92

$$$$

     RDKit          2D

 12 12  0  0  0  0  0  0  0  0999 V2000
   -3.5795   -0.5686    0.0000 C   0  0  0  0  0  0  0  0  0  0  0  0
    5.5143    0.1860    0.0000 C   0  0  0  0  0  0  0  0  0  0  0  0
    1.6127    2.4238    0.0000 C   0  0  0  0  0  0  0  0  0  0  0  0
    0.3182    1.6816    0.0000 C   0  0  0  0  0  0  0  0  0  0  0  0
    2.9117    1.6738    0.0000 C   0  0  0  0  0  0  0  0  0  0  0  0
   -0.9815   -0.5690    0.0000 C   0  0  0  0  0  0  0  0  0  0  0  0
    1.6167   -0.5692    0.0000 C   0  0  0  0  0  0  0  0  0  0  0  0
   -2.2804    0.1812    0.0000 C   0  0  0  0  0  0  0  0  0  0  0  0
    0.3177    0.1808    0.0000 C   0  0  0  0  0  0  0  0  0  0  0  0
    2.9163    0.1816    0.0000 C   0  0  0  0  0  0  0  0  0  0  0  0
   -2.2801    1.6812    0.0000 O   0  0  0  0  0  0  0  0  0  0  0  0
    4.2165   -0.5662    0.0000 O   0  0  0  0  0  0  0  0  0  0  0  0
  4  3  2  0
  5  3  1  0
  8  1  1  0
  8  6  1  0
  9  4  1  0
  9  6  1  0
  9  7  2  0
 10  5  2  0
 10  7  1  0
 11  8  1  0
 12  2  1  0
 12 10  1  0
M  END
>  <NAME>  (4221) 
1-META-METHOXYPHENYL-2-PROPANOL

>  <SYNONYMS>  (4221) 


>  <SPECTRUM TYPE>  (4221) 
MS1

>  <INSTRUMENT TYPE>  (4221) 
EI-B

>  <INSTRUMENT>  (4221) 
JEOL JMS-HX-100

>  <ION MODE>  (4221) 
P

>  <INCHIKEY>  (4221) 
JNKFBLWILRREOG-UHFFFAOYSA-N

>  <FORMULA>  (4221) 
C10H14O2

>  <EXACT MASS>  (4221) 
166.099379688

>  <MW>  (4221) 
166

>  <ID>  (4221) 
JP004565

>  <CONTRIBUTOR>  (4221) 
University of Tokyo Team, {Faculty of Engineering, University of Tokyo

>  <COMMENT>  (4221) 
SMILES=COc(c1)cc(cc1)CC(C)O
InChI=InChI=1S/C10H14O2/c1-8(11)6-9-4-3-5-10(7-9)12-2/h3-5,7-8,11H,6H2,1-2H3
computed SMILES=OC(C)CC=1C=CC=C(OC)C1
accession=JP004565
date=2016.01.19 (Created 2008.10.21, modified 2011.05.06)
author=HAYASHI A, DEPT. OF CHEMISTRY, FAC. OF SCI. AND TECHNOLOGY, KINKI UNIV.
license=CC BY-NC-SA
exact mass=166.09938
ionization energy=70 eV
ion type=[M]+*
computed spectral entropy=3.1609247084706964
computed normalized entropy=0.719299415516007
SPLASH=splash10-00di-6900000000-2617644f3b519601ea70
submitter=submitter = University of Tokyo Team (Faculty of Engineering, University of Tokyo)
MoNA Rating=3.75

>  <NUM PEAKS>  (4221) 
81

>  <MASS SPECTRAL PEAKS>  (4221) 
37 0.25
38 1.17
39 5.63
40 0.08
41 2.39
42 0.35
43 7.44
44 0.11
45 20.61
46 0.62
50 2.24
51 4.65
52 2.79
53 1.62
54 0.22
55 1.08
57 0.4
58 0.25
59 0.32
61 0.26
62 1.04
63 3.71
64 1.99
65 6.17
66 1.34
67 1.33
68 0.35
69 0.12
74 0.68
75 0.74
77 12.42
78 8.95
79 9.71
80 0.94
81 0.31
89 4.34
90 20.59
91 23.98
92 8.89
93 2.4
94 1.96
95 1.23
102 0.34
103 0.96
104 0.44
105 2.76
106 1.58
107 28.06
108 4.88
109 6.37
110 0.56
115 1.23
116 0.42
117 0.69
118 0.33
119 0.6
120 0.52
121 26.21
122 99.99
123 12.73
124 1.02
131 0.29
132 0.27
133 0.66
134 0.35
135 0.62
136 0.4
137 2.32
138 7.84
139 0.79
147 0.48
148 0.48
149 0.54
150 0.28
151 3.99
152 0.44
164 0.97
165 0.92
166 28.44
167 3.54
168 0.31

>  <PREDICTED SPECTRUM>  (4221) 
14 8
15 54
19 11
26 27
27 136
28 38
29 67
31 47
38 67
39 230
40 69
41 192
43 292
44 95
45 428
46 37
50 179
51 296
52 210
53 176
54 9
55 28
57 49
58 14
61 12
62 104
63 249
64 126
65 293
66 123
67 67
69 21
74 82
75 52
76 82
77 475
78 393
79 317
80 86
89 205
90 204
91 531
92 225
93 147
94 190
95 69
96 17
104 70
105 105
106 42
107 546
108 383
109 161
119 44
120 31
121 636
122 999
123 416
124 71
133 103
135 34
148 39
149 0
151 104
166 530
167 139
168 24

$$$$

     RDKit          2D

 13 13  0  0  0  0  0  0  0  0999 V2000
    4.9065    0.9204    0.0000 C   0  0  0  0  0  0  0  0  0  0  0  0
   -4.1872    1.6700    0.0000 C   0  0  0  0  0  0  0  0  0  0  0  0
   -0.2906   -0.5808    0.0000 C   0  0  0  0  0  0  0  0  0  0  0  0
    1.0084   -1.3308    0.0000 C   0  0  0  0  0  0  0  0  0  0  0  0
    1.0094    1.6708    0.0000 C   0  0  0  0  0  0  0  0  0  0  0  0
   -0.2901    0.9200    0.0000 C   0  0  0  0  0  0  0  0  0  0  0  0
    2.3080   -0.5800    0.0000 C   0  0  0  0  0  0  0  0  0  0  0  0
    2.3084    0.9208    0.0000 C   0  0  0  0  0  0  0  0  0  0  0  0
   -1.5892    1.6700    0.0000 C   0  0  0  0  0  0  0  0  0  0  0  0
    3.6070   -1.3300    0.0000 O   0  0  0  0  0  0  0  0  0  0  0  0
   -1.5892    3.1700    0.0000 O   0  0  0  0  0  0  0  0  0  0  0  0
    3.6076    1.6706    0.0000 O   0  0  0  0  0  0  0  0  0  0  0  0
   -2.8882    0.9200    0.0000 O   0  0  0  0  0  0  0  0  0  0  0  0
  4  3  2  0
  6  3  1  0
  6  5  2  0
  7  4  1  0
  8  5  1  0
  8  7  2  0
  9  6  1  0
 10  7  1  0
 11  9  2  0
 12  1  1  0
 12  8  1  0
 13  2  1  0
 13  9  1  0
M  END
>  <NAME>  (4222) 
METHYL 4-HYDROXY-3-METHOXYBENZOATE

>  <SYNONYMS>  (4222) 


>  <SPECTRUM TYPE>  (4222) 
MS1

>  <INSTRUMENT TYPE>  (4222) 
EI-B

>  <INSTRUMENT>  (4222) 
SHIMADZU LKB-9000B

>  <ION MODE>  (4222) 
P

>  <INCHIKEY>  (4222) 
BVWTXUYLKBHMOX-UHFFFAOYSA-N

>  <FORMULA>  (4222) 
C9H10O4

>  <EXACT MASS>  (4222) 
182.0579088

>  <MW>  (4222) 
182

>  <ID>  (4222) 
JP004564

>  <CONTRIBUTOR>  (4222) 
University of Tokyo Team, {Faculty of Engineering, University of Tokyo

>  <COMMENT>  (4222) 
SMILES=COC(=O)c(c1)cc(OC)c(O)c1
cas=3943-74-6
InChI=InChI=1S/C9H10O4/c1-12-8-5-6(9(11)13-2)3-4-7(8)10/h3-5,10H,1-2H3
computed SMILES=O=C(OC)C1=CC=C(O)C(OC)=C1
accession=JP004564
date=2016.01.19 (Created 2008.10.21, modified 2011.05.06)
author=HAYASHI A, DEPT. OF CHEMISTRY, FAC. OF SCI. AND TECHNOLOGY, KINKI UNIV.
license=CC BY-NC-SA
exact mass=182.05791
ionization energy=70 eV
ion type=[M]+*
computed spectral entropy=2.6185924592724485
computed normalized entropy=0.6564559869643628
SPLASH=splash10-0udi-3900000000-baea5cfe4e199a5ff3bc
submitter=submitter = University of Tokyo Team (Faculty of Engineering, University of Tokyo)
MoNA Rating=3.75

>  <NUM PEAKS>  (4222) 
54

>  <MASS SPECTRAL PEAKS>  (4222) 
37 0.6
38 1.5
39 2
41 0.12
44 1.5
50 4.1
51 8.5
52 1.15
53 4.8
54 0.5
55 1.5
59 0.19
61 0.6
62 2
63 4.1
64 0.16
65 7
66 1.3
67 1.5
74 0.07
77 3.6
79 5.3
80 5
81 0.09
91 0.9
92 2
93 2.4
94 0.07
95 0.6
100 0.7
107 1.4
108 1.09
109 1.3
111 4.7
120 1.5
121 0.11
122 1.6
123 18.4
124 1.9
125 0.12
135 0.5
136 4.4
137 0.5
139 0.35
149 1.1
151 99.99
152 9
153 0.14
167 5.6
168 0.6
181 1.3
182 6.95
183 7.7
184 0.6

>  <PREDICTED SPECTRUM>  (4222) 
14 11
15 90
16 8
26 16
27 48
28 13
29 87
30 7
31 47
37 29
38 76
39 120
40 42
41 55
42 25
43 84
44 29
45 109
46 2
49 69
50 211
51 302
52 234
53 266
54 87
55 125
56 25
57 48
59 179
61 72
62 149
63 276
64 153
65 267
66 180
67 140
68 62
69 113
70 29
73 16
74 80
75 56
76 82
77 285
78 153
79 295
80 181
81 161
82 65
83 18
91 170
92 143
93 241
94 159
95 268
96 125
97 17
105 65
106 83
107 210
108 268
109 134
110 36
111 171
112 1
113 11
119 82
120 63
121 192
122 149
123 306
124 158
125 78
134 18
135 158
136 171
137 137
138 59
139 185
140 5
149 142
150 63
151 999
152 307
153 152
154 37
165 91
166 33
167 73
168 0
181 56
182 825
183 266
184 96

$$$$

     RDKit          2D

 20 21  0  0  0  0  0  0  0  0999 V2000
    1.4751    0.3865    0.0000 C   0  0  0  0  0  0  0  0  0  0  0  0
    2.7701    2.6296    0.0000 C   0  0  0  0  0  0  0  0  0  0  0  0
   -2.3052    4.3383    0.0000 C   0  0  0  0  0  0  0  0  0  0  0  0
   -2.7549    1.7877    0.0000 C   0  0  0  0  0  0  0  0  0  0  0  0
    2.7741   -0.3635    0.0000 C   0  0  0  0  0  0  0  0  0  0  0  0
    4.0691    1.8796    0.0000 C   0  0  0  0  0  0  0  0  0  0  0  0
   -3.7824    4.5988    0.0000 C   0  0  0  0  0  0  0  0  0  0  0  0
   -4.2321    2.0482    0.0000 C   0  0  0  0  0  0  0  0  0  0  0  0
    1.4656    1.8701    0.0000 C   0  0  0  0  0  0  0  0  0  0  0  0
   -1.7889    2.9475    0.0000 C   0  0  0  0  0  0  0  0  0  0  0  0
    4.0723    0.3651    0.0000 C   0  0  0  0  0  0  0  0  0  0  0  0
   -4.7531    3.4702    0.0000 C   0  0  0  0  0  0  0  0  0  0  0  0
    0.1628    2.6135    0.0000 C   0  0  0  0  0  0  0  0  0  0  0  0
    0.1552    4.1135    0.0000 C   0  0  0  0  0  0  0  0  0  0  0  0
    5.3675   -0.3915    0.0000 Cl  0  0  0  0  0  0  0  0  0  0  0  0
   -6.2290    3.7382    0.0000 Cl  0  0  0  0  0  0  0  0  0  0  0  0
   -0.3432    1.2014    0.0000 Cl  0  0  0  0  0  0  0  0  0  0  0  0
    1.6552    4.1210    0.0000 Cl  0  0  0  0  0  0  0  0  0  0  0  0
    0.1477    5.6135    0.0000 Cl  0  0  0  0  0  0  0  0  0  0  0  0
   -1.3447    4.1060    0.0000 Cl  0  0  0  0  0  0  0  0  0  0  0  0
  5  1  2  0
  6  2  1  0
  7  3  2  0
  8  4  1  0
  9  1  1  0
  9  2  2  0
 10  3  1  0
 10  4  2  0
 11  5  1  0
 11  6  2  0
 12  7  1  0
 12  8  2  0
 13  9  1  0
 13 10  1  0
 14 13  1  0
 15 11  1  0
 16 12  1  0
 17 13  1  0
 18 14  1  0
 19 14  1  0
 20 14  1  0
M  END
>  <NAME>  (4223) 
1,1-BIS(PARA-CHLOROPHENYL)-1-CHLORO-2,2,2-TRICHLOROETHANE

>  <SYNONYMS>  (4223) 


>  <SPECTRUM TYPE>  (4223) 
MS1

>  <INSTRUMENT TYPE>  (4223) 
EI-B

>  <INSTRUMENT>  (4223) 
SHIMADZU LKB-9000B

>  <ION MODE>  (4223) 
P

>  <INCHIKEY>  (4223) 
JOQCINXYMZALAZ-UHFFFAOYSA-N

>  <FORMULA>  (4223) 
C14H8Cl6

>  <EXACT MASS>  (4223) 
385.875716336

>  <MW>  (4223) 
386

>  <ID>  (4223) 
JP004563

>  <CONTRIBUTOR>  (4223) 
University of Tokyo Team, {Faculty of Engineering, University of Tokyo

>  <COMMENT>  (4223) 
SMILES=Clc(c2)ccc(c2)C(Cl)(c(c1)ccc(Cl)c1)C(Cl)(Cl)Cl
InChI=InChI=1S/C14H8Cl6/c15-11-5-1-9(2-6-11)13(17,14(18,19)20)10-3-7-12(16)8-4-10/h1-8H
computed SMILES=ClC1=CC=C(C=C1)C(Cl)(C2=CC=C(Cl)C=C2)C(Cl)(Cl)Cl
accession=JP004563
date=2016.01.19 (Created 2008.10.21, modified 2011.05.06)
author=HAYASHI A, DEPT. OF CHEMISTRY, FAC. OF SCI. AND TECHNOLOGY, KINKI UNIV.
license=CC BY-NC-SA
exact mass=385.87572
ionization energy=70 eV
ion type=[M]+*
computed spectral entropy=4.192155934994753
computed normalized entropy=0.7307771466310817
SPLASH=splash10-00xr-4491000000-d7ff74c25179e2e90551
submitter=submitter = University of Tokyo Team (Faculty of Engineering, University of Tokyo)
MoNA Rating=3.75

>  <NUM PEAKS>  (4223) 
310

>  <MASS SPECTRAL PEAKS>  (4223) 
35 0.4
36 2.6
37 0.2
38 0.07
39 1.7
41 9.8
42 1.3
43 2
47 0.1
49 0.2
50 2.8
51 0.25
52 0.2
53 0.9
54 1.2
55 1.48
56 9.5
57 44.1
58 2.2
59 0.04
60 1.4
61 0.9
62 1.5
63 0.22
64 0.2
65 0.3
66 0.3
67 0.42
68 3.1
69 17.6
70 9.5
71 2.45
72 1.5
73 2.9
74 4.7
75 0.69
76 1.1
77 0.9
78 0.2
79 0.13
80 0.8
81 7.3
82 4.9
83 1.32
84 4.5
85 15.6
86 2
87 0.68
88 4.3
89 0.5
90 0.2
91 0.09
92 1.7
93 2.1
95 0.7
96 0.58
97 12.7
99 10.2
100 10.2
101 0.11
102 0.3
103 0.3
104 1.4
105 1.35
106 4.3
107 1.1
108 0.7
109 0.37
110 3
111 7.8
114 7.2
115 0.07
116 0.3
117 3.3
118 1.9
119 0.11
120 0.4
121 1.2
122 5.9
123 0.98
124 4.3
125 0.3
126 5
128 0.46
129 1
130 0.3
131 0.3
132 0.03
133 0.8
134 0.8
135 2
136 0.11
137 2.7
138 1.4
139 2.4
140 0.55
141 5.6
142 1.9
143 0.4
144 0.02
145 0.4
146 0.5
147 0.9
148 0.06
149 9.6
150 3.2
151 1.4
152 0.07
153 1.5
154 1.1
155 2.7
156 0.04
157 0.4
158 0.7
159 0.8
160 0.18
161 0.9
162 1.2
163 4.1
164 0.24
165 1.1
166 0.6
167 2.4
168 0.09
169 2.2
170 3.1
171 0.7
172 0.22
173 1.3
174 4.2
175 4.8
176 1.47
177 2.6
178 0.5
179 0.7
180 0.06
181 0.9
182 0.1
183 0.8
184 0.18
185 0.9
186 0.6
187 0.5
188 0.02
189 0.4
190 0.2
191 0.5
192 0.04
193 0.6
194 0.5
195 0.8
196 0.08
197 1.6
198 1.2
199 17
200 0.3
201 5.9
202 1
203 0.5
204 0.03
205 0.5
206 0.3
207 0.5
208 0.05
209 0.9
210 7.6
211 2.6
212 0.28
213 0.7
214 0.2
215 0.3
216 0.02
217 0.4
218 0.3
219 0.3
220 0.05
221 0.4
222 0.4
223 0.5
224 0.06
225 1.1
226 0.2
227 0.2
228 0.02
229 0.3
230 0.1
231 0.3
232 0.02
233 9.9
234 3
235 6.6
236 0.19
237 1.4
238 0.5
239 0.9
240 0.02
241 0.2
242 0.2
243 0.2
244 0.09
245 1.2
246 31.9
247 5.5
248 2.11
249 3.4
250 3.7
251 0.7
252 0.06
253 0.8
254 0.2
255 0.1
256 0.04
257 0.2
258 0.1
259 0.2
260 0.01
261 0.2
262 0.2
263 0.2
264 0.03
265 0.4
266 0.5
267 0.8
268 0.06
269 99.99
270 15.3
271 96.2
272 1.38
273 32.1
274 4.4
275 3.7
276 0.05
277 0.2
278 0.3
279 1
280 0.54
281 3.1
282 5.4
283 2.9
284 0.21
285 0.9
286 0.3
287 0.1
288 0.01
289 0.1
290 0.1
291 0.1
292 0.02
293 0.2
294 0.4
295 0.7
296 0.01
297 0.1
301 0.1
302 0.1
303 0.01
305 0.1
306 0.2
307 0.2
308 0.08
309 1.2
310 0.2
311 0.1
314 0.01
315 2.6
316 12.3
317 5
318 1.63
319 3.9
320 7.8
321 1.4
322 0.17
323 0.8
324 0.2
330 0.1
332 0.01
333 0.1
334 0.1
335 0.01
336 0.5
338 0.8
341 0.1
345 0.01
349 0.1
350 0.1
351 1.6
352 0.06
353 2.7
354 0.4
355 1.6
356 0.02
357 0.5
362 0.1
363 0.1
364 0.01
365 0.3
366 0.4
367 0.1
378 0.01
379 0.3
380 0.1
386 1
387 0.01
388 2.1
389 0.3
390 1.6
391 0.02
392 0.6
393 0.3
394 0.2

>  <PREDICTED SPECTRUM>  (4223) 
18 14
25 0
28 25
31 11
35 63
36 136
37 32
38 63
39 60
40 6
41 51
42 23
43 226
44 120
45 18
47 136
48 27
49 87
50 122
51 168
55 90
56 50
57 97
58 75
59 45
60 63
61 101
62 71
63 114
64 8
68 43
69 139
70 61
71 110
72 100
73 119
74 191
75 235
76 167
77 97
78 36
79 38
81 97
82 208
83 114
84 140
85 188
86 136
87 94
88 77
89 81
90 19
91 53
92 24
93 109
94 25
95 23
97 37
98 109
99 158
100 164
101 94
102 103
103 154
104 81
105 88
106 85
107 67
108 39
109 37
110 149
111 142
112 63
113 104
114 83
115 122
116 86
117 257
118 71
119 122
120 26
121 124
122 86
123 122
124 53
125 46
126 101
127 39
128 45
129 91
130 23
131 75
132 16
133 18
134 39
135 98
136 41
137 138
138 89
139 46
140 75
141 102
142 63
143 22
147 34
148 13
149 260
150 146
151 162
152 146
153 88
154 113
155 80
156 101
157 160
158 153
159 79
160 88
161 88
162 141
163 160
164 83
165 99
166 85
167 34
169 11
170 96
172 130
173 165
174 148
175 162
176 129
177 124
178 101
179 26
181 26
182 29
185 80
186 138
187 61
188 51
190 57
191 84
192 31
193 94
194 29
197 40
198 54
199 429
200 76
201 80
202 46
203 65
204 17
205 62
206 41
207 82
208 37
209 160
210 169
211 209
212 118
213 129
214 27
215 89
216 35
223 0
226 50
227 127
228 50
229 42
230 25
231 98
232 19
233 125
234 149
235 105
236 96
237 74
238 24
245 62
246 155
247 100
248 120
249 43
250 1
251 48
252 23
253 85
254 17
267 19
269 999
270 340
271 892
272 275
273 535
274 163
275 204
276 44
277 22
280 24
281 208
282 82
283 228
285 111
287 23
316 136
317 90
318 131
319 83
320 105
321 10
324 75
351 72
353 60
354 28
355 45
357 77
369 24
386 60
387 4
388 142
389 31
390 109

$$$$

     RDKit          2D

 17 18  0  0  0  0  0  0  0  0999 V2000
   -0.9782    1.7050    0.0000 C   0  0  0  0  0  0  0  0  0  0  0  0
    0.3168    3.9480    0.0000 C   0  0  0  0  0  0  0  0  0  0  0  0
   -4.8753    3.9090    0.0000 C   0  0  0  0  0  0  0  0  0  0  0  0
   -3.5803    1.6660    0.0000 C   0  0  0  0  0  0  0  0  0  0  0  0
    0.3208    0.9550    0.0000 C   0  0  0  0  0  0  0  0  0  0  0  0
    1.6158    3.1980    0.0000 C   0  0  0  0  0  0  0  0  0  0  0  0
   -6.1743    3.1590    0.0000 C   0  0  0  0  0  0  0  0  0  0  0  0
   -4.8793    0.9160    0.0000 C   0  0  0  0  0  0  0  0  0  0  0  0
   -2.2981    5.4319    0.0000 C   0  0  0  0  0  0  0  0  0  0  0  0
   -0.9877    3.1885    0.0000 C   0  0  0  0  0  0  0  0  0  0  0  0
   -3.5858    3.1754    0.0000 C   0  0  0  0  0  0  0  0  0  0  0  0
    1.6190    1.6835    0.0000 C   0  0  0  0  0  0  0  0  0  0  0  0
   -6.1925    1.6704    0.0000 C   0  0  0  0  0  0  0  0  0  0  0  0
   -2.2905    3.9320    0.0000 C   0  0  0  0  0  0  0  0  0  0  0  0
   -3.6008    6.1754    0.0000 Cl  0  0  0  0  0  0  0  0  0  0  0  0
    2.9142    0.9269    0.0000 Cl  0  0  0  0  0  0  0  0  0  0  0  0
   -7.4953    0.9270    0.0000 Cl  0  0  0  0  0  0  0  0  0  0  0  0
  5  1  2  0
  6  2  1  0
  7  3  2  0
  8  4  1  0
 10  1  1  0
 10  2  2  0
 11  3  1  0
 11  4  2  0
 12  5  1  0
 12  6  2  0
 13  7  1  0
 13  8  2  0
 14  9  2  3
 14 10  1  0
 14 11  1  0
 15  9  1  0
 16 12  1  0
 17 13  1  0
M  END
>  <NAME>  (4224) 
1,1-BIS(PARA-CHLOROPHENYL)-2-CHLOROETHENE

>  <SYNONYMS>  (4224) 


>  <SPECTRUM TYPE>  (4224) 
MS1

>  <INSTRUMENT TYPE>  (4224) 
EI-B

>  <INSTRUMENT>  (4224) 
SHIMADZU LKB-9000B

>  <ION MODE>  (4224) 
P

>  <INCHIKEY>  (4224) 
LNKQQZFLNUVWQQ-UHFFFAOYSA-N

>  <FORMULA>  (4224) 
C14H9Cl3

>  <EXACT MASS>  (4224) 
281.97698332799996

>  <MW>  (4224) 
282

>  <ID>  (4224) 
JP004562

>  <CONTRIBUTOR>  (4224) 
University of Tokyo Team, {Faculty of Engineering, University of Tokyo

>  <COMMENT>  (4224) 
SMILES=ClC=C(c(c2)ccc(Cl)c2)c(c1)ccc(Cl)c1
InChI=InChI=1S/C14H9Cl3/c15-9-14(10-1-5-12(16)6-2-10)11-3-7-13(17)8-4-11/h1-9H
computed SMILES=ClC=C(C1=CC=C(Cl)C=C1)C2=CC=C(Cl)C=C2
accession=JP004562
date=2016.01.19 (Created 2008.10.21, modified 2011.05.06)
author=HAYASHI A, DEPT. OF CHEMISTRY, FAC. OF SCI. AND TECHNOLOGY, KINKI UNIV.
license=CC BY-NC-SA
exact mass=281.97698
ionization energy=70 eV
ion type=[M]+*
computed spectral entropy=3.4958495837315864
computed normalized entropy=0.7264579503960091
SPLASH=splash10-001i-1290000000-8045a277a479aa6efa73
submitter=submitter = University of Tokyo Team (Faculty of Engineering, University of Tokyo)
MoNA Rating=3.75

>  <NUM PEAKS>  (4224) 
123

>  <MASS SPECTRAL PEAKS>  (4224) 
36 1.1
38 0.6
39 1.8
40 0.81
41 0.8
43 0.8
44 1.7
45 0.06
50 3.9
51 4.1
55 0.7
57 0.09
61 0.8
62 1.8
63 2.6
67 0.06
69 0.8
70 0.5
73 2.4
74 0.53
75 12.4
76 2.2
77 1
81 0.08
82 0.6
83 0.6
85 1.4
86 0.18
87 5.6
88 18.7
89 2.9
92 0.1
93 3.4
94 1.4
96 0.7
97 0.1
98 2.2
99 3.8
100 1.3
101 0.36
102 0.6
105 12.2
106 8.3
107 0.22
109 0.7
110 3.1
111 3.4
112 0.08
113 1.4
122 0.9
123 12.4
124 0.77
125 2.6
126 2
127 0.6
133 0.06
135 1.4
136 5.9
137 1.8
138 0.26
139 0.8
141 0.7
142 0.6
146 0.05
147 0.9
148 0.8
149 2.4
150 0.46
151 5.2
152 1.1
160 1.1
161 0.06
162 0.7
163 1.5
170 0.7
172 0.07
173 1.3
174 3.9
175 7.3
176 3.6
177 11.1
178 1.9
180 0.8
181 0.07
182 1
183 0.7
184 0.9
185 0.08
186 1.7
199 0.5
207 0.6
208 0.07
209 1.1
210 3.9
211 9.7
212 9.67
213 18.5
214 33.4
215 5.5
216 0.13
217 1
218 0.8
219 0.6
233 0.42
234 0.6
235 2.8
237 0.5
245 0.08
246 10.7
247 26.9
248 10.7
249 1.72
250 3.4
251 2.8
280 0.9
281 0.21
282 99.99
283 16.6
284 91.9
285 1.52
286 29.9
287 4.7
288 3.1

>  <PREDICTED SPECTRUM>  (4224) 
14 1
15 14
17 12
18 50
25 5
26 49
27 87
28 102
35 46
36 74
37 49
38 78
39 99
40 26
43 110
44 75
49 106
50 300
51 309
52 98
53 28
56 8
60 60
61 123
62 221
63 271
64 48
67 40
68 102
69 167
70 17
72 71
73 234
74 292
75 394
76 235
77 168
79 109
80 88
81 159
82 70
83 70
84 121
85 167
86 246
87 271
88 215
89 57
91 43
92 98
93 187
94 123
95 71
96 66
97 236
98 236
99 345
100 375
101 318
102 134
103 58
105 102
106 80
107 56
108 41
109 84
110 213
111 146
112 168
113 141
114 126
116 24
117 54
118 67
119 124
120 84
121 18
122 104
123 254
124 228
125 175
126 262
127 123
128 97
132 59
134 77
135 135
136 117
137 124
138 82
139 15
140 52
141 107
142 126
143 88
144 5
145 35
146 27
147 33
148 22
149 278
150 347
151 139
157 47
158 11
159 37
160 81
161 240
164 22
168 34
170 19
171 43
172 51
173 105
174 165
175 208
176 238
177 236
178 110
179 99
180 24
182 26
184 61
185 10
186 102
187 12
199 347
200 239
201 240
209 10
210 323
211 303
212 999
213 294
214 313
215 82
224 7
244 10
245 40
246 451
247 599
248 399
249 445
250 203
251 81
281 18
282 874
283 350
284 766
285 336
286 403
287 140

$$$$

     RDKit          2D

 18 19  0  0  0  0  0  0  0  0999 V2000
   -0.6581    1.1505    0.0000 C   0  0  0  0  0  0  0  0  0  0  0  0
    0.6369    3.3935    0.0000 C   0  0  0  0  0  0  0  0  0  0  0  0
   -4.5552    3.3545    0.0000 C   0  0  0  0  0  0  0  0  0  0  0  0
   -3.2602    1.1115    0.0000 C   0  0  0  0  0  0  0  0  0  0  0  0
    0.6410    0.4005    0.0000 C   0  0  0  0  0  0  0  0  0  0  0  0
    1.9360    2.6435    0.0000 C   0  0  0  0  0  0  0  0  0  0  0  0
   -5.8542    2.6045    0.0000 C   0  0  0  0  0  0  0  0  0  0  0  0
   -4.5592    0.3615    0.0000 C   0  0  0  0  0  0  0  0  0  0  0  0
   -0.6676    2.6340    0.0000 C   0  0  0  0  0  0  0  0  0  0  0  0
   -3.2656    2.6210    0.0000 C   0  0  0  0  0  0  0  0  0  0  0  0
    1.9391    1.1290    0.0000 C   0  0  0  0  0  0  0  0  0  0  0  0
   -5.8724    1.1160    0.0000 C   0  0  0  0  0  0  0  0  0  0  0  0
   -1.9704    3.3775    0.0000 C   0  0  0  0  0  0  0  0  0  0  0  0
   -1.9779    4.8775    0.0000 C   0  0  0  0  0  0  0  0  0  0  0  0
    3.2344    0.3725    0.0000 Cl  0  0  0  0  0  0  0  0  0  0  0  0
   -7.1752    0.3725    0.0000 Cl  0  0  0  0  0  0  0  0  0  0  0  0
   -3.2807    5.6209    0.0000 Cl  0  0  0  0  0  0  0  0  0  0  0  0
   -0.6827    5.6340    0.0000 Cl  0  0  0  0  0  0  0  0  0  0  0  0
  5  1  2  0
  6  2  1  0
  7  3  2  0
  8  4  1  0
  9  1  1  0
  9  2  2  0
 10  3  1  0
 10  4  2  0
 11  5  1  0
 11  6  2  0
 12  7  1  0
 12  8  2  0
 13  9  1  0
 13 10  1  0
 14 13  2  0
 15 11  1  0
 16 12  1  0
 17 14  1  0
 18 14  1  0
M  END
>  <NAME>  (4225) 
1,1-DICHLORO-2,2-BIS(PARA-CHLOROPHENYL)ETHENE

>  <SYNONYMS>  (4225) 
TETRACHLORODIPHENYLETHENE

>  <SPECTRUM TYPE>  (4225) 
MS1

>  <INSTRUMENT TYPE>  (4225) 
EI-B

>  <INSTRUMENT>  (4225) 
SHIMADZU LKB-9000B

>  <ION MODE>  (4225) 
P

>  <INCHIKEY>  (4225) 
UCNVFOCBFJOQAL-UHFFFAOYSA-N

>  <FORMULA>  (4225) 
C14H8Cl4

>  <EXACT MASS>  (4225) 
315.938010976

>  <MW>  (4225) 
316

>  <ID>  (4225) 
JP004561

>  <CONTRIBUTOR>  (4225) 
University of Tokyo Team, {Faculty of Engineering, University of Tokyo

>  <COMMENT>  (4225) 
SMILES=Clc(c2)ccc(c2)C(=C(Cl)Cl)c(c1)ccc(Cl)c1
InChI=InChI=1S/C14H8Cl4/c15-11-5-1-9(2-6-11)13(14(17)18)10-3-7-12(16)8-4-10/h1-8H
computed SMILES=ClC(Cl)=C(C1=CC=C(Cl)C=C1)C2=CC=C(Cl)C=C2
accession=JP004561
date=2016.01.19 (Created 2008.10.21, modified 2011.05.06)
author=HAYASHI A, DEPT. OF CHEMISTRY, FAC. OF SCI. AND TECHNOLOGY, KINKI UNIV.
license=CC BY-NC-SA
exact mass=315.93801
ionization energy=70 eV
ion type=[M]+*
computed spectral entropy=3.6728645331245002
computed normalized entropy=0.7487581632060455
SPLASH=splash10-00kb-3695000000-8add5b58f6d541662919
submitter=submitter = University of Tokyo Team (Faculty of Engineering, University of Tokyo)
MoNA Rating=3.75

>  <NUM PEAKS>  (4225) 
135

>  <MASS SPECTRAL PEAKS>  (4225) 
36 0.7
38 0.8
39 1.9
40 0.13
42 0.5
44 0.7
49 0.5
50 0.55
51 5.2
61 1.6
62 2.8
63 0.33
67 0.5
69 0.6
71 0.5
73 0.29
74 8.6
75 13
76 1.8
77 0.06
81 1.1
82 1.1
84 1.4
85 0.28
86 3.5
87 12
88 7.9
89 0.1
92 3
93 2.3
94 0.7
96 0.05
97 2
98 4.5
99 7.7
100 0.15
101 1
104 2.1
105 26.3
106 0.83
107 1.6
108 1.3
109 2.4
110 0.54
111 4.9
112 0.8
113 1.6
121 0.07
122 11.6
123 18.1
124 8
125 0.33
126 1.4
127 1.7
128 1.5
133 0.13
134 1.3
135 3.1
136 1.8
137 0.26
138 1.2
140 12.2
141 11.8
142 0.39
143 0.6
146 0.6
147 1.4
148 0.09
149 3.3
150 4.6
151 1.1
158 0.05
159 0.8
160 2.9
161 1.1
162 0.14
163 2.7
164 1
170 4.5
171 0.08
172 3.3
173 2.1
174 8.3
175 1.05
176 34.1
177 5.2
178 0.7
180 0.05
184 1.7
185 1.2
186 1.3
191 0.05
197 0.5
199 1.7
201 0.5
207 0.13
208 0.7
209 1.4
210 16
211 0.45
212 5.3
213 1.5
216 0.5
217 0.05
220 0.9
222 0.4
233 2.9
234 0.05
235 2
244 1.7
245 4.5
246 99.99
247 18.6
248 64.5
249 11
250 1.17
251 1.9
252 0.5
280 5.7
281 0.96
282 7.5
283 9.2
284 3.3
285 0.28
286 0.5
314 0.6
315 1.5
316 7.03
317 12.5
318 91.6
319 14.3
320 4.33
321 6.7
322 9.4
323 1.3

>  <PREDICTED SPECTRUM>  (4225) 
25 0
35 36
36 66
37 24
38 51
39 7
43 104
44 28
45 20
49 42
50 250
51 238
52 47
60 51
61 87
62 177
63 220
67 3
68 78
69 106
73 154
74 278
75 362
76 157
77 81
79 73
80 106
81 58
82 22
84 24
85 114
86 193
87 105
88 54
89 32
91 38
92 75
93 150
94 66
96 24
97 150
98 173
99 294
100 182
101 136
102 61
103 124
104 50
105 87
106 73
107 52
108 60
109 96
110 184
111 125
112 69
113 116
114 62
115 63
116 38
117 65
118 110
119 72
120 55
121 24
122 141
123 214
124 215
125 157
126 39
127 8
128 14
129 13
132 125
133 141
134 110
135 237
136 92
137 147
140 16
141 118
142 14
145 91
146 86
147 59
148 35
149 136
150 465
151 124
152 35
154 18
158 27
159 10
160 103
161 70
162 67
169 11
172 30
173 51
174 131
175 238
176 420
177 123
178 109
179 34
180 40
182 38
183 68
184 19
185 28
188 7
196 13
198 24
200 39
207 85
208 117
209 127
210 322
211 361
212 270
213 244
214 87
215 16
220 24
224 63
244 67
245 39
246 999
247 256
248 664
249 264
250 324
251 71
280 138
281 578
282 357
283 517
284 193
285 257
286 5
316 833
317 318
318 857
319 332
320 597
321 188

$$$$

     RDKit          2D

 15 16  0  0  0  0  0  0  0  0999 V2000
    2.2916   -1.7501    0.0000 C   0  0  0  0  0  0  0  0  0  0  0  0
    6.1888    1.9999    0.0000 C   0  0  0  0  0  0  0  0  0  0  0  0
    4.8892    2.7507    0.0000 C   0  0  0  0  0  0  0  0  0  0  0  0
    6.1892    0.4991    0.0000 C   0  0  0  0  0  0  0  0  0  0  0  0
    3.5902    2.0007    0.0000 C   0  0  0  0  0  0  0  0  0  0  0  0
    4.8902   -0.2509    0.0000 C   0  0  0  0  0  0  0  0  0  0  0  0
    0.9905    1.9834    0.0000 C   0  0  0  0  0  0  0  0  0  0  0  0
   -0.3157   -0.2530    0.0000 C   0  0  0  0  0  0  0  0  0  0  0  0
   -0.3047    2.7399    0.0000 C   0  0  0  0  0  0  0  0  0  0  0  0
   -1.6110    0.5035    0.0000 C   0  0  0  0  0  0  0  0  0  0  0  0
    2.2916   -0.2501    0.0000 C   0  0  0  0  0  0  0  0  0  0  0  0
    3.5907    0.4999    0.0000 C   0  0  0  0  0  0  0  0  0  0  0  0
    0.9926    0.4999    0.0000 C   0  0  0  0  0  0  0  0  0  0  0  0
   -1.6065    2.0180    0.0000 C   0  0  0  0  0  0  0  0  0  0  0  0
   -2.8980    2.7810    0.0000 Cl  0  0  0  0  0  0  0  0  0  0  0  0
  3  2  2  0
  4  2  1  0
  5  3  1  0
  6  4  2  0
  9  7  2  0
 10  8  1  0
 11  1  1  0
 12  5  2  0
 12  6  1  0
 12 11  1  0
 13  7  1  0
 13  8  2  0
 13 11  1  0
 14  9  1  0
 14 10  2  0
 15 14  1  0
M  END
>  <NAME>  (4226) 
1-PHENYL-1-PARA-CHLOROPHENYLETHANE

>  <SYNONYMS>  (4226) 


>  <SPECTRUM TYPE>  (4226) 
MS1

>  <INSTRUMENT TYPE>  (4226) 
EI-B

>  <INSTRUMENT>  (4226) 
SHIMADZU LKB-9000B

>  <ION MODE>  (4226) 
P

>  <INCHIKEY>  (4226) 
OMWUABDOXSZJHX-UHFFFAOYSA-N

>  <FORMULA>  (4226) 
C14H13Cl

>  <EXACT MASS>  (4226) 
216.070578096

>  <MW>  (4226) 
216

>  <ID>  (4226) 
JP004560

>  <CONTRIBUTOR>  (4226) 
University of Tokyo Team, {Faculty of Engineering, University of Tokyo

>  <COMMENT>  (4226) 
SMILES=Clc(c2)ccc(c2)C(C)c(c1)cccc1
InChI=InChI=1S/C14H13Cl/c1-11(12-5-3-2-4-6-12)13-7-9-14(15)10-8-13/h2-11H,1H3
computed SMILES=ClC1=CC=C(C=C1)C(C=2C=CC=CC2)C
accession=JP004560
date=2016.01.19 (Created 2008.10.21, modified 2011.05.06)
author=HAYASHI A, DEPT. OF CHEMISTRY, FAC. OF SCI. AND TECHNOLOGY, KINKI UNIV.
license=CC BY-NC-SA
exact mass=216.07058
ionization energy=70 eV
ion type=[M]+*
computed spectral entropy=2.9924844299084192
computed normalized entropy=0.7043633708919785
SPLASH=splash10-0gb9-2790000000-484da18154f5f53a0ec4
submitter=submitter = University of Tokyo Team (Faculty of Engineering, University of Tokyo)
MoNA Rating=3.75

>  <NUM PEAKS>  (4226) 
70

>  <MASS SPECTRAL PEAKS>  (4226) 
39 3
41 0.6
50 3.1
51 0.68
52 1.3
57 1.2
62 1
63 0.41
65 1.5
69 1
70 2
73 0.14
74 2.1
75 4.8
76 5.5
77 1.25
78 3.6
79 2.4
81 1.9
82 0.74
83 9.4
87 1
88 2.2
89 0.99
90 2.7
91 1
101 3.1
102 0.36
103 13.2
104 4.2
105 4.4
108 0.11
115 2.4
127 1
135 0.9
137 0.22
138 2.9
139 5.7
140 1.4
141 0.12
151 1.7
152 2.5
153 0.9
163 0.39
164 5
165 46.1
166 44.9
167 0.58
176 1.5
177 1.5
178 5.5
179 0.5
180 1.9
181 10
182 1.4
187 0.12
199 2.7
200 1.1
201 99.99
202 1.52
203 34
204 4.4
207 0.7
208 0.13
214 1.7
215 0.9
216 43.2
217 0.64
218 13.4
219 2.1

>  <PREDICTED SPECTRUM>  (4226) 
26 14
27 105
28 49
29 42
34 7
36 31
38 38
39 130
40 26
41 83
42 6
43 62
50 214
51 331
52 147
53 71
54 26
55 21
57 23
61 50
62 92
63 215
64 70
65 151
66 23
67 99
68 22
69 70
70 100
73 25
74 122
75 256
76 315
77 390
78 192
79 101
80 32
81 82
82 147
83 65
84 8
86 107
87 112
88 188
89 280
90 71
91 198
92 9
93 21
94 11
95 105
96 100
97 85
98 26
99 65
100 6
101 275
102 260
103 413
104 308
105 259
106 3
107 48
111 54
112 23
113 136
114 100
115 230
119 13
125 110
126 83
127 73
129 10
137 115
138 155
139 331
140 154
141 79
142 83
145 29
146 57
149 87
150 74
151 153
152 252
163 65
164 148
165 759
166 568
167 277
168 64
176 35
177 229
178 453
179 174
180 140
181 504
182 176
183 25
184 17
199 268
200 17
201 999
202 390
203 702
204 234
205 61
214 4
215 19
216 657
217 181
218 373
219 100

$$$$

     RDKit          2D

 23 22  0  0  0  0  0  0  0  0999 V2000
   -0.0000    0.0000    0.0000 C   0  0  0  0  0  0  0  0  0  0  0  0
   -0.0000    3.0000    0.0000 C   0  0  0  0  0  0  0  0  0  0  0  0
   -1.5000    1.5000    0.0000 C   0  0  0  0  0  0  0  0  0  0  0  0
    0.9510   -0.5490    0.0000 C   0  0  0  0  0  0  0  0  0  0  0  0
    3.0000   -1.0981    0.0000 C   0  0  0  0  0  0  0  0  0  0  0  0
    3.5490    0.9510    0.0000 C   0  0  0  0  0  0  0  0  0  0  0  0
    8.0490    4.6471    0.0000 C   0  0  0  0  0  0  0  0  0  0  0  0
    7.5000    6.6962    0.0000 C   0  0  0  0  0  0  0  0  0  0  0  0
    5.4510    6.1471    0.0000 C   0  0  0  0  0  0  0  0  0  0  0  0
    4.3072    6.3488    0.0000 C   0  0  0  0  0  0  0  0  0  0  0  0
    2.5695    7.5655    0.0000 C   0  0  0  0  0  0  0  0  0  0  0  0
    1.3528    5.8278    0.0000 C   0  0  0  0  0  0  0  0  0  0  0  0
    2.2500    2.7990    0.0000 C   0  0  0  0  0  0  0  0  0  0  0  0
    3.7500    2.7990    0.0000 C   0  0  0  0  0  0  0  0  0  0  0  0
    1.5000    1.5000    0.0000 N   0  0  0  0  0  0  0  0  0  0  0  0
    4.7605    5.5753    0.0000 O   0  0  0  0  0  0  0  0  0  0  0  0
    6.0000    4.0981    0.0000 O   0  0  0  0  0  0  0  0  0  0  0  0
    3.0905    4.6111    0.0000 O   0  0  0  0  0  0  0  0  0  0  0  0
    4.5000    4.0981    0.0000 P   0  0  0  0  0  0  0  0  0  0  0  0
   -0.0000    1.5000    0.0000 Si  0  0  0  0  0  4  0  0  0  0  0  0
    2.2500    0.2010    0.0000 Si  0  0  0  0  0  4  0  0  0  0  0  0
    6.7500    5.3971    0.0000 Si  0  0  0  0  0  4  0  0  0  0  0  0
    2.8300    6.0883    0.0000 Si  0  0  0  0  0  4  0  0  0  0  0  0
 14 13  1  0
 15 13  1  0
 19 14  1  0
 19 16  2  0
 19 17  1  0
 19 18  1  0
 20  1  1  0
 20  2  1  0
 20  3  1  0
 20 15  1  0
 21  4  1  0
 21  5  1  0
 21  6  1  0
 21 15  1  0
 22  7  1  0
 22  8  1  0
 22  9  1  0
 22 17  1  0
 23 10  1  0
 23 11  1  0
 23 12  1  0
 23 18  1  0
M  END
>  <NAME>  (4227) 
2-(N,N-DI(TRIMETHYLSILYL)AMINO)ETHYLPHOSPHONIC ACID DI(TRIMETHYLSILYL) ESTER

>  <SYNONYMS>  (4227) 


>  <SPECTRUM TYPE>  (4227) 
MS1

>  <INSTRUMENT TYPE>  (4227) 
EI-B

>  <INSTRUMENT>  (4227) 
SHIMADZU LKB-9000B

>  <ION MODE>  (4227) 
P

>  <INCHIKEY>  (4227) 
MWAPEOTUZLVKOZ-UHFFFAOYSA-N

>  <FORMULA>  (4227) 
C14H40NO3PSi4

>  <EXACT MASS>  (4227) 
413.18228688999994

>  <MW>  (4227) 
413

>  <ID>  (4227) 
JP004559

>  <CONTRIBUTOR>  (4227) 
University of Tokyo Team, {Faculty of Engineering, University of Tokyo

>  <COMMENT>  (4227) 
SMILES=C[Si](C)(C)OP(=O)(CCN([Si](C)(C)C)[Si](C)(C)C)O[Si](C)(C)C
InChI=InChI=1S/C14H40NO3PSi4/c1-20(2,3)15(21(4,5)6)13-14-19(16,17-22(7,8)9)18-23(10,11)12/h13-14H2,1-12H3
computed SMILES=O=P(O[Si](C)(C)C)(O[Si](C)(C)C)CCN([Si](C)(C)C)[Si](C)(C)C
accession=JP004559
date=2016.01.19 (Created 2008.10.21, modified 2011.05.06)
author=HAYASHI A, DEPT. OF CHEMISTRY, FAC. OF SCI. AND TECHNOLOGY, KINKI UNIV.
license=CC BY-NC-SA
exact mass=413.18229
ionization energy=70 eV
ion type=[M]+*
computed spectral entropy=3.72445400060214
computed normalized entropy=0.7793173802623943
SPLASH=splash10-0002-4619000000-72dad9ffdcec322f129a
submitter=submitter = University of Tokyo Team (Faculty of Engineering, University of Tokyo)
MoNA Rating=3.75

>  <NUM PEAKS>  (4227) 
119

>  <MASS SPECTRAL PEAKS>  (4227) 
53 1.8
55 1.1
56 0.3
57 0.23
58 1.5
59 10.7
60 1.7
61 0.28
66 0.9
67 0.9
68 1.6
69 0.01
70 2
71 0.6
72 3.8
73 8.53
74 9.9
75 32
76 3.7
77 0.41
79 0.5
81 1
82 1.3
83 0.05
84 1
85 2.1
86 8.3
87 0.17
91 0.4
93 1
95 0.8
96 0.09
97 1.4
98 3.1
99 1.6
100 0.73
101 1.8
102 2.4
103 2.4
105 0.03
107 1.9
109 0.7
110 0.7
111 0.23
113 1.4
114 10.9
115 6.3
116 0.56
117 5.5
118 5.4
119 1.9
121 0.18
125 0.9
128 1.7
129 2.6
130 0.76
131 4.2
132 5.4
133 4.7
135 0.46
137 1.4
141 1.4
143 1.5
145 0.24
146 4.1
147 13.2
148 1.5
149 0.02
151 1.6
159 1.3
160 1.3
165 0.15
171 1.4
172 20.5
173 3.9
174 3.63
175 7.8
176 2.8
179 1.8
187 0.2
188 2.5
189 1.8
191 1.8
193 0.18
194 1.2
195 2.1
207 4
209 0.5
210 1.7
211 2.8
224 3.3
225 0.41
226 2
233 2.3
237 1.5
297 0.3
298 12.9
299 6.9
300 2.3
306 0.21
307 3.3
308 3.3
309 5.3
310 0.4
311 2.7
312 5.4
313 3.1
314 0.15
326 3.1
339 1.5
340 9.1
341 0.24
395 1.5
396 2.9
397 8
398 99.99
399 38.3
400 1.9
401 4.8

>  <PREDICTED SPECTRUM>  (4227) 
27 85
28 11
29 6
43 48
44 5
45 136
55 24
57 26
58 28
59 205
68 16
70 12
71 13
72 56
73 610
74 166
75 176
77 1
84 64
85 22
86 233
87 68
98 39
99 26
100 225
101 22
102 52
103 9
105 7
109 2
110 35
112 16
113 50
114 57
115 55
116 2
121 106
130 156
131 75
133 144
135 45
137 5
138 18
144 1
146 17
147 160
148 70
149 3
154 20
156 72
157 30
158 21
160 52
168 6
170 28
171 98
172 301
173 118
174 999
175 338
176 223
177 86
181 12
182 13
188 66
193 14
195 178
207 102
209 121
210 4
211 54
224 14
225 83
226 15
240 52
251 16
253 26
283 42
297 44
298 452
299 195
300 63
301 12
310 141
312 184
313 120
314 74
315 13
317 36
324 3
325 25
326 98
327 7
328 25
340 73
341 96
382 0
386 3
398 423
399 401
400 275
401 113
402 75
412 62
413 148
414 92
415 34
416 10

$$$$

     RDKit          2D

 21 20  0  0  0  0  0  0  0  0999 V2000
   -5.8134    7.8936    0.0000 C   0  0  0  0  0  0  0  0  0  0  0  0
    7.1769    7.8936    0.0000 C   0  0  0  0  0  0  0  0  0  0  0  0
   -4.5144    7.1436    0.0000 C   0  0  0  0  0  0  0  0  0  0  0  0
    5.8779    7.1436    0.0000 C   0  0  0  0  0  0  0  0  0  0  0  0
   -3.2154    7.8936    0.0000 C   0  0  0  0  0  0  0  0  0  0  0  0
    4.5789    7.8936    0.0000 C   0  0  0  0  0  0  0  0  0  0  0  0
    0.2306    4.5850    0.0000 C   0  0  0  0  0  0  0  0  0  0  0  0
   -1.9163    7.1436    0.0000 C   0  0  0  0  0  0  0  0  0  0  0  0
    3.2798    7.1436    0.0000 C   0  0  0  0  0  0  0  0  0  0  0  0
   -0.2824    5.9945    0.0000 C   0  0  0  0  0  0  0  0  0  0  0  0
   -0.2205    2.0264    0.0000 C   0  0  0  0  0  0  0  0  0  0  0  0
   -1.1847    0.8773    0.0000 C   0  0  0  0  0  0  0  0  0  0  0  0
   -2.3338    1.8415    0.0000 F   0  0  0  0  0  0  0  0  0  0  0  0
   -2.1489   -0.2717    0.0000 F   0  0  0  0  0  0  0  0  0  0  0  0
   -0.0357   -0.0868    0.0000 F   0  0  0  0  0  0  0  0  0  0  0  0
   -0.7336    3.4359    0.0000 N   0  0  0  0  0  0  0  0  0  0  0  0
    1.2567    1.7659    0.0000 O   0  0  0  0  0  0  0  0  0  0  0  0
    1.6459    5.9945    0.0000 O   0  0  0  0  0  0  0  0  0  0  0  0
   -0.6173    7.8936    0.0000 O   0  0  0  0  0  0  0  0  0  0  0  0
    1.9808    7.8936    0.0000 O   0  0  0  0  0  0  0  0  0  0  0  0
    0.6818    7.1436    0.0000 P   0  0  0  0  0  0  0  0  0  0  0  0
  3  1  1  0
  4  2  1  0
  5  3  1  0
  6  4  1  0
  8  5  1  0
  9  6  1  0
 10  7  1  0
 12 11  1  0
 13 12  1  0
 14 12  1  0
 15 12  1  0
 16  7  1  0
 16 11  2  3
 17 11  1  0
 19  8  1  0
 20  9  1  0
 21 10  1  0
 21 18  2  0
 21 19  1  0
 21 20  1  0
M  END
>  <NAME>  (4228) 
DIBUTYL 2-(N-TRIFLUOROACETYLAMINO)ETHYLPHOSPHONATE

>  <SYNONYMS>  (4228) 


>  <SPECTRUM TYPE>  (4228) 
MS1

>  <INSTRUMENT TYPE>  (4228) 
EI-B

>  <INSTRUMENT>  (4228) 
SHIMADZU LKB-9000B

>  <ION MODE>  (4228) 
P

>  <INCHIKEY>  (4228) 
ICWBNDWAEAJFRR-UHFFFAOYSA-N

>  <FORMULA>  (4228) 
C12H23F3NO4P

>  <EXACT MASS>  (4228) 
333.131679506

>  <MW>  (4228) 
333

>  <ID>  (4228) 
JP004557

>  <CONTRIBUTOR>  (4228) 
University of Tokyo Team, {Faculty of Engineering, University of Tokyo

>  <COMMENT>  (4228) 
SMILES=CCCCOP(=O)(OCCCC)CCNC(=O)C(F)(F)F
InChI=InChI=1S/C12H23F3NO4P/c1-3-5-8-19-21(18,20-9-6-4-2)10-7-16-11(17)12(13,14)15/h3-10H2,1-2H3,(H,16,17)
computed SMILES=O=P(OCCCC)(OCCCC)CCN=C(O)C(F)(F)F
accession=JP004557
date=2016.01.19 (Created 2008.10.21, modified 2011.05.06)
author=HAYASHI A, DEPT. OF CHEMISTRY, FAC. OF SCI. AND TECHNOLOGY, KINKI UNIV.
license=CC BY-NC-SA
exact mass=333.13168
ionization energy=70 eV
ion type=[M]+*
computed spectral entropy=2.7116333227929728
computed normalized entropy=0.6766677981221237
SPLASH=splash10-0zmi-1790000000-c336a3bffa3bb11d08db
submitter=submitter = University of Tokyo Team (Faculty of Engineering, University of Tokyo)
MoNA Rating=3.75

>  <NUM PEAKS>  (4228) 
55

>  <MASS SPECTRAL PEAKS>  (4228) 
80 3.3
81 2.4
82 1.8
83 1.23
84 1.4
85 6.4
87 1.1
90 0.11
91 3.5
96 3.5
97 6.8
106 0.62
107 1.2
108 32.8
109 22.3
110 0.29
111 2.3
114 1
120 1
123 0.31
124 1.6
126 2.6
134 2.8
135 0.16
136 3.1
137 1.8
138 4
139 0.82
140 7.5
141 1.4
149 1
150 0.13
152 81.8
153 5.4
154 2.6
185 0.12
192 1.1
204 56.5
205 2.7
206 0.1
208 15.1
209 1.4
220 1.2
221 0.36
222 99.99
223 4.7
248 2.5
250 0.12
260 5.8
264 24.4
265 3
278 2.46
279 2.3
304 0.5
334 1.2

>  <PREDICTED SPECTRUM>  (4228) 
27 28
28 36
29 56
33 4
39 230
40 40
41 574
42 186
43 360
44 123
45 106
47 70
48 14
50 13
51 71
52 35
53 112
54 94
55 315
56 234
57 371
58 134
64 60
65 283
66 34
67 50
68 57
69 165
70 95
71 7
77 88
78 32
80 151
81 102
82 309
83 402
84 75
85 52
86 78
91 54
92 23
93 16
94 65
95 36
96 269
97 162
98 59
99 107
106 78
107 101
108 179
109 612
110 251
111 194
112 143
113 77
114 36
122 167
123 247
124 264
126 73
128 15
130 25
132 65
133 12
134 51
135 13
136 172
137 203
138 587
139 325
140 317
141 232
142 117
148 116
150 121
151 85
152 442
153 287
154 22
155 72
156 40
162 84
164 26
165 103
166 176
170 86
178 35
179 87
180 114
182 143
184 10
185 89
186 168
188 39
190 68
194 17
202 94
203 126
204 773
205 308
206 48
208 143
218 12
221 115
222 999
223 253
224 175
236 84
248 62
250 140
260 183
278 139
279 52
305 6
333 173
334 117
335 12

$$$$

     RDKit          2D

 32 31  0  0  1  0  0  0  0  0999 V2000
   -1.1349    2.6618    0.0000 C   0  0  0  0  0  0  0  0  0  0  0  0
    0.3651    5.2599    0.0000 C   0  0  0  0  0  0  0  0  0  0  0  0
   -1.6839    4.7108    0.0000 C   0  0  0  0  0  0  0  0  0  0  0  0
   10.7575    2.6618    0.0000 C   0  0  0  0  0  0  0  0  0  0  0  0
   11.3065    4.7108    0.0000 C   0  0  0  0  0  0  0  0  0  0  0  0
    9.2575    5.2599    0.0000 C   0  0  0  0  0  0  0  0  0  0  0  0
    6.6594   -0.3382    0.0000 C   0  0  0  0  0  0  0  0  0  0  0  0
    8.7084    0.2108    0.0000 C   0  0  0  0  0  0  0  0  0  0  0  0
    8.1594    2.2599    0.0000 C   0  0  0  0  0  0  0  0  0  0  0  0
    1.4632    2.2599    0.0000 C   0  0  0  0  0  0  0  0  0  0  0  0
    0.9142    0.2108    0.0000 C   0  0  0  0  0  0  0  0  0  0  0  0
    2.9632   -0.3382    0.0000 C   0  0  0  0  0  0  0  0  0  0  0  0
    6.8603    4.9118    0.0000 C   0  0  0  0  0  0  0  0  0  0  0  0
    7.4094    6.9608    0.0000 C   0  0  0  0  0  0  0  0  0  0  0  0
    5.3603    7.5099    0.0000 C   0  0  0  0  0  0  0  0  0  0  0  0
    2.2132    5.4608    0.0000 C   0  0  0  0  0  0  0  0  0  0  0  0
    7.4094    3.9608    0.0000 C   0  0  0  0  0  0  0  0  0  0  0  0
    2.2132    3.9608    0.0000 C   0  0  0  0  0  0  0  0  0  0  0  0
    6.1103    3.2108    0.0000 C   0  0  0  0  0  0  0  0  0  0  0  0
    3.5123    3.2108    0.0000 C   0  0  0  0  0  0  0  0  0  0  0  0
    4.8113    3.9608    0.0000 C   0  0  0  0  0  0  0  0  0  0  0  0
    0.9142    3.2108    0.0000 N   0  0  0  0  0  0  0  0  0  0  0  0
    0.9142    6.2108    0.0000 O   0  0  0  0  0  0  0  0  0  0  0  0
    8.7084    3.2108    0.0000 O   0  0  0  0  0  0  0  0  0  0  0  0
    6.1103    1.7108    0.0000 O   0  0  0  0  0  0  0  0  0  0  0  0
    3.5123    1.7108    0.0000 O   0  0  0  0  0  0  0  0  0  0  0  0
    4.8113    5.4608    0.0000 O   0  0  0  0  0  0  0  0  0  0  0  0
   -0.3849    3.9608    0.0000 Si  0  0  0  0  0  4  0  0  0  0  0  0
   10.0075    3.9608    0.0000 Si  0  0  0  0  0  4  0  0  0  0  0  0
    7.4094    0.9608    0.0000 Si  0  0  0  0  0  4  0  0  0  0  0  0
    2.2132    0.9608    0.0000 Si  0  0  0  0  0  4  0  0  0  0  0  0
    6.1103    6.2108    0.0000 Si  0  0  0  0  0  4  0  0  0  0  0  0
 18 16  1  1
 19 17  1  1
 20 18  1  0
 21 19  1  0
 21 20  1  0
 18 22  1  0
 23 16  2  0
 24 17  1  0
 19 25  1  0
 20 26  1  6
 21 27  1  6
 28  1  1  0
 28  2  1  0
 28  3  1  0
 28 22  1  0
 29  4  1  0
 29  5  1  0
 29  6  1  0
 29 24  1  0
 30  7  1  0
 30  8  1  0
 30  9  1  0
 30 25  1  0
 31 10  1  0
 31 11  1  0
 31 12  1  0
 31 26  1  0
 32 13  1  0
 32 14  1  0
 32 15  1  0
 32 27  1  0
M  END
>  <NAME>  (4229) 
PENTATRIMETHYLSILYL GLUCOSAMINE

>  <SYNONYMS>  (4229) 
1,2,3,4,6-PENTATRIMETHYLSILYL 2-AMINO-2-DEOXY-D-GLUCOSE

>  <SPECTRUM TYPE>  (4229) 
MS1

>  <INSTRUMENT TYPE>  (4229) 
EI-B

>  <INSTRUMENT>  (4229) 
SHIMADZU LKB-9000B

>  <ION MODE>  (4229) 
P

>  <INCHIKEY>  (4229) 
QGZLJFWINYQKTC-DOIPELPJSA-N

>  <FORMULA>  (4229) 
C21H53NO5Si5

>  <EXACT MASS>  (4229) 
539.2770064460001

>  <MW>  (4229) 
539

>  <ID>  (4229) 
JP004554

>  <CONTRIBUTOR>  (4229) 
University of Tokyo Team, {Faculty of Engineering, University of Tokyo

>  <COMMENT>  (4229) 
SMILES=C[Si](C)(C)OCC([H])(O[Si](C)(C)C)C([H])(O[Si](C)(C)C)C([H])(O[Si](C)(C)C)C([H])(C=O)N[Si](C)(C)C
InChI=InChI=1S/C21H53NO5Si5/c1-28(2,3)22-18(16-23)20(26-31(10,11)12)21(27-32(13,14)15)19(25-30(7,8)9)17-24-29(4,5)6/h16,18-22H,17H2,1-15H3/t18-,19+,20+,21+/m0/s1
computed SMILES=O=CC(N[Si](C)(C)C)C(O[Si](C)(C)C)C(O[Si](C)(C)C)C(O[Si](C)(C)C)CO[Si](C)(C)C
accession=JP004554
date=2016.01.19 (Created 2008.10.21, modified 2011.05.06)
author=HAYASHI A, DEPT. OF CHEMISTRY, FAC. OF SCI. AND TECHNOLOGY, KINKI UNIV.
license=CC BY-NC-SA
exact mass=539.27701
ionization energy=70 eV
ion type=[M]+*
computed spectral entropy=2.9425209862300044
computed normalized entropy=0.6734308511242756
SPLASH=splash10-0ul0-7890000000-4ad852613fc0a591905a
submitter=submitter = University of Tokyo Team (Faculty of Engineering, University of Tokyo)
MoNA Rating=3.75

>  <NUM PEAKS>  (4229) 
79

>  <MASS SPECTRAL PEAKS>  (4229) 
55 1.7
56 1.6
57 2.8
59 0.38
61 1.2
67 1
69 1.4
70 0.09
71 1.1
72 1.9
73 91.6
74 0.92
75 43.5
76 3.9
77 2.7
79 0.13
80 1.6
81 1
82 0.2
83 0.09
84 1.5
85 0.7
89 2
91 0.14
93 0.1
95 0.8
97 0.2
100 0.37
101 2.3
102 1.4
103 9.5
104 0.18
105 2.7
108 1.3
109 0.4
111 0.03
115 2.6
116 3.1
117 8.8
118 0.18
119 1.6
123 1.3
128 3.7
129 0.5
130 2.4
131 87.2
132 10
133 0.75
142 1.7
143 1.2
144 8.8
145 0.31
146 1.3
147 16.5
148 3.5
149 0.86
156 1.5
169 1.4
172 1.3
188 0.15
189 3
191 6.4
200 1.4
202 0.43
203 99.99
204 29.3
205 11.9
206 0.24
216 13
217 18.2
218 7.5
219 0.34
231 3
232 1.9
259 1.2
303 0.27
304 6.7
305 2.7
434 1.2

>  <PREDICTED SPECTRUM>  (4229) 
28 5
29 104
43 55
44 69
45 117
47 28
57 59
58 85
59 159
65 0
68 10
72 188
73 999
74 197
75 466
76 68
77 36
88 65
89 115
99 27
100 175
101 100
102 134
103 219
104 64
105 15
107 94
108 11
113 125
114 69
115 101
116 66
117 102
118 8
119 61
120 24
127 12
128 73
129 198
130 170
131 333
132 176
133 302
134 77
136 51
140 22
142 215
143 124
144 102
145 88
146 121
147 473
148 116
149 125
152 46
153 3
154 76
155 5
156 54
157 43
158 12
159 77
160 87
161 52
172 11
173 186
174 64
175 10
182 27
184 13
185 47
186 26
187 35
188 66
189 87
190 178
191 171
192 147
193 72
194 1
200 60
201 50
202 55
203 176
204 600
205 362
206 106
207 86
208 31
212 28
214 27
216 124
217 736
218 382
219 243
220 30
229 18
230 61
231 67
232 130
233 50
234 15
240 24
241 33
242 106
243 138
244 37
248 30
254 26
256 122
257 38
270 44
290 70
291 45
292 62
293 34
305 159
306 27
307 67
317 38
318 60
319 75
320 6
321 101
332 74
333 24
334 109
335 46
340 2
344 122
345 34
346 21
360 97
365 47
378 14
422 58
434 82
435 111
436 54
437 54
438 14
461 1
512 84
524 18
525 3
526 24

$$$$

     RDKit          2D

 16 16  0  0  1  0  0  0  0  0999 V2000
   -3.9076    4.0204    0.0000 C   0  0  0  0  0  0  0  0  0  0  0  0
   -2.6151   -2.7165    0.0000 C   0  0  0  0  0  0  0  0  0  0  0  0
    1.2816   -3.4843    0.0000 C   0  0  0  0  0  0  0  0  0  0  0  0
    3.9081    1.0290    0.0000 C   0  0  0  0  0  0  0  0  0  0  0  0
   -2.6089    1.7702    0.0000 C   0  0  0  0  0  0  0  0  0  0  0  0
   -1.3100    1.0200    0.0000 C   0  0  0  0  0  0  0  0  0  0  0  0
    1.3100   -0.4700    0.0000 C   0  0  0  0  0  0  0  0  0  0  0  0
   -1.3100   -0.4700    0.0000 C   0  0  0  0  0  0  0  0  0  0  0  0
   -0.0100   -1.2300    0.0000 C   0  0  0  0  0  0  0  0  0  0  0  0
    1.3100    1.0200    0.0000 C   0  0  0  0  0  0  0  0  0  0  0  0
    2.6086   -1.2208    0.0000 O   0  0  0  0  0  0  0  0  0  0  0  0
   -2.6087    3.2702    0.0000 O   0  0  0  0  0  0  0  0  0  0  0  0
   -2.6111   -1.2165    0.0000 O   0  0  0  0  0  0  0  0  0  0  0  0
   -0.0150   -2.7300    0.0000 O   0  0  0  0  0  0  0  0  0  0  0  0
    2.6064    1.7745    0.0000 O   0  0  0  0  0  0  0  0  0  0  0  0
   -0.0100    1.7700    0.0000 O   0  0  0  0  0  0  0  0  0  0  0  0
  6  5  1  1
  8  6  1  0
  9  7  1  0
  9  8  1  0
 10  7  1  0
  7 11  1  1
 12  1  1  0
 12  5  1  0
 13  2  1  0
  8 13  1  6
 14  3  1  0
  9 14  1  1
 15  4  1  0
 10 15  1  6
 16  6  1  0
 16 10  1  0
M  END
>  <NAME>  (4230) 
METHYL 3,4,6-TRI-O-METHYL MANNOPYRANOSIDE

>  <SYNONYMS>  (4230) 


>  <SPECTRUM TYPE>  (4230) 
MS1

>  <INSTRUMENT TYPE>  (4230) 
EI-B

>  <INSTRUMENT>  (4230) 
SHIMADZU LKB-9000B

>  <ION MODE>  (4230) 
P

>  <INCHIKEY>  (4230) 
MJCQVUQCEVACLB-ZOZBQHSOSA-N

>  <FORMULA>  (4230) 
C10H20O6

>  <EXACT MASS>  (4230) 
236.12598835999998

>  <MW>  (4230) 
236

>  <ID>  (4230) 
JP004553

>  <CONTRIBUTOR>  (4230) 
University of Tokyo Team, {Faculty of Engineering, University of Tokyo

>  <COMMENT>  (4230) 
SMILES=COCC(O1)C(OC)C(OC)C(O)C(OC)1
InChI=InChI=1S/C10H20O6/c1-12-5-6-8(13-2)9(14-3)7(11)10(15-4)16-6/h6-11H,5H2,1-4H3/t6-,7+,8-,9-,10+/m1/s1
computed SMILES=OC1C(OC)OC(COC)C(OC)C1OC
accession=JP004553
date=2016.01.19 (Created 2008.10.21, modified 2011.05.06)
author=HAYASHI A, DEPT. OF CHEMISTRY, FAC. OF SCI. AND TECHNOLOGY, KINKI UNIV.
license=CC BY-NC-SA
exact mass=236.12599
ionization energy=70 eV
ion type=[M]+*
computed spectral entropy=3.054860777305398
computed normalized entropy=0.7120125057021234
SPLASH=splash10-00g1-9100000000-7c14360e763e7a44505c
submitter=submitter = University of Tokyo Team (Faculty of Engineering, University of Tokyo)
MoNA Rating=3.75

>  <NUM PEAKS>  (4230) 
73

>  <MASS SPECTRAL PEAKS>  (4230) 
41 22.6
42 5.1
43 13.4
44 0.44
45 75.5
46 1
47 1.6
53 0.52
54 1.6
55 8.3
56 3.2
57 0.89
58 14
59 20.6
60 1.6
61 0.31
67 0.9
68 3.4
69 7.9
70 0.13
71 99.99
72 9.7
73 17.3
74 6.13
75 98.5
76 2.6
77 0.5
81 0.34
82 1.6
83 2.5
84 3.6
85 1.22
86 1.5
87 34.3
88 67.3
89 2.9
90 0.7
95 0.4
97 1.6
98 0.06
99 11.5
100 2.2
101 37.8
102 1.36
103 1.8
111 4.5
112 3.9
113 0.32
114 1.4
115 8.2
116 1.2
117 0.7
118 1.2
127 15.1
128 0.4
129 0.08
130 2.2
131 4.4
140 0.6
141 0.16
143 1.1
144 1.7
145 0.6
149 0.23
159 5.4
161 18.4
162 0.7
172 0.23
173 2.1
175 0.8
191 0.5
204 0.08
205 1.6

>  <PREDICTED SPECTRUM>  (4230) 
33 15
41 167
42 77
43 96
45 798
53 40
55 193
56 32
57 178
58 154
59 410
60 89
61 194
68 29
69 170
70 41
71 690
72 76
73 344
74 906
75 948
76 77
83 37
84 52
85 295
86 27
87 480
88 629
89 298
95 7
97 27
99 338
100 30
101 999
102 413
103 257
109 32
111 295
112 19
113 177
114 74
115 336
116 23
117 164
127 160
129 46
131 234
132 26
133 9
135 27
136 9
141 31
143 21
144 93
145 130
159 83
160 34
161 326
162 155
163 3
173 164
174 35
191 107
192 10
205 41
206 36
236 5

$$$$

     RDKit          2D

 36 36  0  0  0  0  0  0  0  0999 V2000
   -0.0980    5.2133    0.0000 C   0  0  0  0  0  0  0  0  0  0  0  0
   -2.1471    4.6642    0.0000 C   0  0  0  0  0  0  0  0  0  0  0  0
   -1.5980    2.6152    0.0000 C   0  0  0  0  0  0  0  0  0  0  0  0
   -4.1968    2.2138    0.0000 C   0  0  0  0  0  0  0  0  0  0  0  0
   -4.7462    0.1649    0.0000 C   0  0  0  0  0  0  0  0  0  0  0  0
   -2.6973   -0.3845    0.0000 C   0  0  0  0  0  0  0  0  0  0  0  0
    3.5993   -0.3845    0.0000 C   0  0  0  0  0  0  0  0  0  0  0  0
    5.6483    0.1649    0.0000 C   0  0  0  0  0  0  0  0  0  0  0  0
    5.0989    2.2138    0.0000 C   0  0  0  0  0  0  0  0  0  0  0  0
   -4.4469   -2.4803    0.0000 C   0  0  0  0  0  0  0  0  0  0  0  0
   -3.4825   -4.1501    0.0000 C   0  0  0  0  0  0  0  0  0  0  0  0
   -1.4924   -3.0007    0.0000 C   0  0  0  0  0  0  0  0  0  0  0  0
    4.5497   -2.8362    0.0000 C   0  0  0  0  0  0  0  0  0  0  0  0
    3.0495   -4.3360    0.0000 C   0  0  0  0  0  0  0  0  0  0  0  0
    1.5497   -2.8357    0.0000 C   0  0  0  0  0  0  0  0  0  0  0  0
   -0.8480   -2.0858    0.0000 C   0  0  0  0  0  0  0  0  0  0  0  0
   -2.1471   -4.3358    0.0000 C   0  0  0  0  0  0  0  0  0  0  0  0
   -0.0980   -4.8848    0.0000 C   0  0  0  0  0  0  0  0  0  0  0  0
    0.4510    1.6642    0.0000 C   0  0  0  0  0  0  0  0  0  0  0  0
   -0.8490    0.9142    0.0000 C   0  0  0  0  0  0  0  0  0  0  0  0
    1.7510    0.9142    0.0000 C   0  0  0  0  0  0  0  0  0  0  0  0
   -0.8490   -0.5858    0.0000 C   0  0  0  0  0  0  0  0  0  0  0  0
    1.7510   -0.5858    0.0000 C   0  0  0  0  0  0  0  0  0  0  0  0
    0.4510   -1.3358    0.0000 C   0  0  0  0  0  0  0  0  0  0  0  0
    0.4510    3.1642    0.0000 O   0  0  0  0  0  0  0  0  0  0  0  0
   -2.1479    1.6645    0.0000 O   0  0  0  0  0  0  0  0  0  0  0  0
    3.0499    1.6645    0.0000 O   0  0  0  0  0  0  0  0  0  0  0  0
   -2.7095   -1.2633    0.0000 O   0  0  0  0  0  0  0  0  0  0  0  0
    3.0499   -1.3360    0.0000 O   0  0  0  0  0  0  0  0  0  0  0  0
    0.4510   -2.8358    0.0000 O   0  0  0  0  0  0  0  0  0  0  0  0
   -0.8480    3.9142    0.0000 Si  0  0  0  0  0  4  0  0  0  0  0  0
   -3.4471    0.9147    0.0000 Si  0  0  0  0  0  4  0  0  0  0  0  0
    4.3491    0.9147    0.0000 Si  0  0  0  0  0  4  0  0  0  0  0  0
   -2.9697   -2.7405    0.0000 Si  0  0  0  0  0  4  0  0  0  0  0  0
    3.0497   -2.8360    0.0000 Si  0  0  0  0  0  4  0  0  0  0  0  0
   -0.8480   -3.5858    0.0000 Si  0  0  0  0  0  4  0  0  0  0  0  0
 20 19  1  0
 21 19  1  0
 22 20  1  0
 23 21  1  0
 24 22  1  0
 24 23  1  0
 25 19  1  0
 26 20  1  0
 27 21  1  0
 28 22  1  0
 29 23  1  0
 30 24  1  0
 31  1  1  0
 31  2  1  0
 31  3  1  0
 31 25  1  0
 32  4  1  0
 32  5  1  0
 32  6  1  0
 32 26  1  0
 33  7  1  0
 33  8  1  0
 33  9  1  0
 33 27  1  0
 34 10  1  0
 34 11  1  0
 34 12  1  0
 34 28  1  0
 35 13  1  0
 35 14  1  0
 35 15  1  0
 35 29  1  0
 36 16  1  0
 36 17  1  0
 36 18  1  0
 36 30  1  0
M  END
>  <NAME>  (4231) 
HEXATRIMETHYLSILYLINOSITOL

>  <SYNONYMS>  (4231) 


>  <SPECTRUM TYPE>  (4231) 
MS1

>  <INSTRUMENT TYPE>  (4231) 
EI-B

>  <INSTRUMENT>  (4231) 
SHIMADZU LKB-9000B

>  <ION MODE>  (4231) 
P

>  <INCHIKEY>  (4231) 
FRTKXRNTVMCAKI-UHFFFAOYSA-N

>  <FORMULA>  (4231) 
C24H60O6Si6

>  <EXACT MASS>  (4231) 
612.30054882

>  <MW>  (4231) 
612

>  <ID>  (4231) 
JP004551

>  <CONTRIBUTOR>  (4231) 
University of Tokyo Team, {Faculty of Engineering, University of Tokyo

>  <COMMENT>  (4231) 
SMILES=C[Si](C)(C)OC(C(O[Si](C)(C)C)1)C(O[Si](C)(C)C)C(O[Si](C)(C)C)C(O[Si](C)(C)C)C(O[Si](C)(C)C)1
InChI=InChI=1S/C24H60O6Si6/c1-31(2,3)25-19-20(26-32(4,5)6)22(28-34(10,11)12)24(30-36(16,17)18)23(29-35(13,14)15)21(19)27-33(7,8)9/h19-24H,1-18H3
computed SMILES=O(C1C(O[Si](C)(C)C)C(O[Si](C)(C)C)C(O[Si](C)(C)C)C(O[Si](C)(C)C)C1O[Si](C)(C)C)[Si](C)(C)C
license=CC BY-NC-SA
exact mass=612.30055
accession=JP004551
date=2016.01.19 (Created 2008.10.21, modified 2011.05.06)
computed spectral entropy=3.3324863669726548
author=HAYASHI A, DEPT. OF CHEMISTRY, FAC. OF SCI. AND TECHNOLOGY, KINKI UNIV.
ionization energy=70 eV
ion type=[M]+*
computed normalized entropy=0.6438156813743453
SPLASH=splash10-0avi-5779100000-f8869fc0a32a54edc02e
submitter=submitter = University of Tokyo Team (Faculty of Engineering, University of Tokyo)
MoNA Rating=3.75

>  <NUM PEAKS>  (4231) 
177

>  <MASS SPECTRAL PEAKS>  (4231) 
53 0.4
55 0.4
57 0.3
58 0.02
59 1.5
61 0.3
67 0.5
68 0.02
69 0.3
70 0.3
71 0.2
72 0.12
73 99.99
74 8.4
75 7
76 0.05
77 0.2
79 0.2
81 0.5
83 0.03
84 0.2
85 0.2
87 0.2
89 0.02
95 0.2
97 0.1
99 0.2
101 0.06
102 0.2
103 7.8
104 0.6
105 0.06
109 0.3
111 0.2
113 0.4
115 0.02
116 0.7
117 1.1
118 0.2
119 0.05
123 0.2
125 0.2
127 0.5
128 0.01
129 9.8
130 1.1
131 3.1
132 0.06
133 9.4
134 1.2
135 0.9
141 0.03
142 0.2
143 2.2
144 0.3
145 0.06
146 0.8
147 50.7
148 8
149 0.49
150 0.5
151 0.3
153 0.2
155 0.03
156 0.2
157 0.9
159 0.3
161 0.2
162 0.3
163 0.3
169 0.3
173 0.02
175 0.7
177 0.7
189 1.5
190 0.21
191 46.8
192 8.8
193 4.1
194 0.05
201 0.3
203 1
204 20
205 0.5
206 2.1
207 1.6
208 0.3
209 0.02
215 0.6
216 3.8
217 91.3
218 1.8
219 8.4
220 1.1
221 4.8
222 0.1
223 0.5
229 0.3
230 1.6
231 0.12
232 0.4
233 0.2
243 0.9
244 0.02
245 0.3
246 0.2
264 0.3
265 2.19
266 5.4
267 2.6
268 0.4
271 0.04
277 0.3
278 0.3
279 0.3
289 0.02
290 0.3
291 6.5
292 2
293 0.4
294 1
295 0.4
303 0.6
304 0.49
305 84.3
306 25.4
307 13.4
308 0.26
309 0.7
316 0.6
317 3.7
318 4.46
319 21.2
320 8.8
321 2.4
322 0.05
331 0.3
343 1.1
344 0.3
345 0.05
366 0.6
367 10
368 3.3
369 0.21
370 0.5
379 0.3
391 0.2
392 0.07
393 5.7
394 2
395 1.1
396 0.02
406 0.4
407 0.4
417 0.3
418 0.03
419 0.9
420 0.3
421 0.2
430 0.03
431 0.8
432 9.1
433 8.5
434 0.39
435 1.6
436 0.3
506 0.5
507 0.47
508 0.2
509 1.2
510 0.3
521 0.02
522 0.3
611 0.2
612 1.2
613 0.08
614 0.5

>  <PREDICTED SPECTRUM>  (4231) 
26 25
27 29
28 54
29 4
37 23
38 24
39 10
41 56
43 82
44 98
45 86
46 38
47 83
48 17
49 19
50 37
52 2
53 30
55 147
56 10
58 23
59 157
60 70
61 45
62 21
63 21
64 23
65 7
66 24
67 4
69 32
71 86
72 112
73 999
74 299
75 300
76 99
77 79
78 8
79 28
81 35
82 29
83 43
85 54
86 15
87 84
88 14
89 94
90 58
91 63
92 29
97 40
98 33
101 63
102 15
103 228
104 28
105 21
110 7
111 18
112 4
113 63
114 2
115 48
116 32
117 142
118 56
119 92
120 3
125 45
126 17
127 17
128 16
129 318
130 53
131 142
132 16
133 182
134 12
135 32
137 14
139 5
143 175
145 52
146 16
147 592
148 225
149 241
150 76
151 38
152 66
153 57
154 39
155 73
156 52
157 61
159 68
160 6
161 150
162 28
163 272
164 128
165 146
166 37
167 92
168 26
169 10
172 17
173 25
174 35
175 122
176 9
177 96
179 50
180 34
181 94
182 56
183 40
185 55
187 19
189 139
190 154
191 477
192 117
193 120
194 55
195 27
196 9
197 50
201 29
202 19
203 118
204 353
205 153
206 66
207 96
209 2
210 54
211 9
213 21
215 87
216 73
217 557
218 169
219 103
220 66
221 131
222 94
223 78
224 55
225 39
228 4
229 62
230 143
231 59
233 72
234 106
235 76
236 83
237 107
238 21
239 20
240 37
241 71
242 37
243 34
245 4
247 24
248 69
249 86
252 16
253 46
255 8
260 16
261 59
262 67
263 175
264 44
265 149
266 64
267 39
268 44
271 14
273 7
274 30
275 13
276 3
277 34
278 72
279 55
280 74
281 88
282 22
288 19
289 61
290 41
291 227
292 169
293 203
294 35
295 40
296 7
299 55
300 59
301 16
302 37
303 109
304 88
305 381
306 220
307 183
308 112
310 13
313 57
315 46
316 75
317 51
318 391
319 248
320 158
321 51
322 12
326 16
327 63
328 42
329 2
330 88
331 114
332 98
333 75
342 47
343 155
344 83
345 82
346 71
347 56
348 0
354 19
355 14
359 54
360 23
363 138
364 13
365 38
374 15
375 65
376 40
377 31
378 4
379 8
387 111
388 46
389 80
390 54
391 35
392 28
393 20
401 11
402 18
404 45
417 64
418 149
419 104
420 62
430 8
431 54
432 178
433 174
434 109
435 42
436 41
439 10
440 15
448 22
464 16
465 22
466 27
467 2
478 17
507 137
508 66
509 28
515 0
539 8
553 8
583 10
599 85
612 46

$$$$

     RDKit          2D

 19 18  0  0  0  0  0  0  0  0999 V2000
    2.5882    7.6103    0.0000 C   0  0  0  0  0  0  0  0  0  0  0  0
    0.5392    7.0613    0.0000 C   0  0  0  0  0  0  0  0  0  0  0  0
    1.0882    5.0123    0.0000 C   0  0  0  0  0  0  0  0  0  0  0  0
    7.7844    4.6103    0.0000 C   0  0  0  0  0  0  0  0  0  0  0  0
    6.2844    2.0123    0.0000 C   0  0  0  0  0  0  0  0  0  0  0  0
    8.3334    2.5613    0.0000 C   0  0  0  0  0  0  0  0  0  0  0  0
   -1.5099    4.6103    0.0000 C   0  0  0  0  0  0  0  0  0  0  0  0
   -2.0589    2.5613    0.0000 C   0  0  0  0  0  0  0  0  0  0  0  0
   -0.0099    2.0123    0.0000 C   0  0  0  0  0  0  0  0  0  0  0  0
    4.4363    3.3113    0.0000 C   0  0  0  0  0  0  0  0  0  0  0  0
    3.1373    4.0613    0.0000 C   0  0  0  0  0  0  0  0  0  0  0  0
    1.8382    3.3113    0.0000 C   0  0  0  0  0  0  0  0  0  0  0  0
    3.1373    5.5613    0.0000 N   0  0  0  0  0  0  0  0  0  0  0  0
    1.8382    1.8113    0.0000 O   0  0  0  0  0  0  0  0  0  0  0  0
    5.7353    4.0613    0.0000 O   0  0  0  0  0  0  0  0  0  0  0  0
    0.5392    4.0613    0.0000 O   0  0  0  0  0  0  0  0  0  0  0  0
    1.8382    6.3113    0.0000 Si  0  0  0  0  0  4  0  0  0  0  0  0
    7.0344    3.3113    0.0000 Si  0  0  0  0  0  4  0  0  0  0  0  0
   -0.7599    3.3113    0.0000 Si  0  0  0  0  0  4  0  0  0  0  0  0
 11 10  1  0
 12 11  1  0
 13 11  1  0
 14 12  2  0
 15 10  1  0
 16 12  1  0
 17  1  1  0
 17  2  1  0
 17  3  1  0
 17 13  1  0
 18  4  1  0
 18  5  1  0
 18  6  1  0
 18 15  1  0
 19  7  1  0
 19  8  1  0
 19  9  1  0
 19 16  1  0
M  END
>  <NAME>  (4232) 
TRIMETHYLSILYLSERINE

>  <SYNONYMS>  (4232) 
DI-O-TRIMETHYLSILYL-MONP-N-TRIMETHYLSILYLSERINE

>  <SPECTRUM TYPE>  (4232) 
MS1

>  <INSTRUMENT TYPE>  (4232) 
EI-B

>  <INSTRUMENT>  (4232) 
SHIMADZU LKB-9000B

>  <ION MODE>  (4232) 
P

>  <INCHIKEY>  (4232) 
MBEDINMZZORSJN-UHFFFAOYSA-N

>  <FORMULA>  (4232) 
C12H31NO3Si3

>  <EXACT MASS>  (4232) 
321.161173442

>  <MW>  (4232) 
321

>  <ID>  (4232) 
JP004550

>  <CONTRIBUTOR>  (4232) 
University of Tokyo Team, {Faculty of Engineering, University of Tokyo

>  <COMMENT>  (4232) 
SMILES=C[Si](C)(C)OCC([H])(N[Si](C)(C)C)C(=O)O[Si](C)(C)C
InChI=InChI=1S/C12H31NO3Si3/c1-17(2,3)13-11(10-15-18(4,5)6)12(14)16-19(7,8)9/h11,13H,10H2,1-9H3
computed SMILES=O=C(O[Si](C)(C)C)C(N[Si](C)(C)C)CO[Si](C)(C)C
accession=JP004550
date=2016.01.19 (Created 2008.10.21, modified 2011.05.06)
author=HAYASHI A, DEPT. OF CHEMISTRY, FAC. OF SCI. AND TECHNOLOGY, KINKI UNIV.
license=CC BY-NC-SA
exact mass=321.16117
ionization energy=70 eV
ion type=[M]+*
computed spectral entropy=2.8583164778557344
computed normalized entropy=0.6847271930108187
SPLASH=splash10-0uxr-1490000000-9666ebcfcd4b5b750021
submitter=submitter = University of Tokyo Team (Faculty of Engineering, University of Tokyo)
MoNA Rating=3.75

>  <NUM PEAKS>  (4232) 
65

>  <MASS SPECTRAL PEAKS>  (4232) 
55 0.6
57 1.9
58 1.5
59 0.5
60 1.1
61 1.9
66 0.3
70 0.1
72 2.4
75 29.8
76 2.2
77 1.5
80 0.1
84 1
86 0.9
87 0.9
88 0.09
89 0.8
93 0.4
100 15.2
101 0.22
102 1.5
103 4.4
114 2.6
115 0.15
116 15.7
117 4.9
118 1.2
119 0.09
129 0.7
130 1.9
131 2.7
132 1.33
133 5.8
134 1.1
144 2.5
146 0.19
147 22.5
148 3.7
149 2.3
159 0.14
163 1.2
174 0.9
188 6.6
189 0.28
190 1
191 1.1
203 3.5
204 99.99
205 21.8
206 7.8
207 1
216 0.23
217 1.1
218 59.2
219 12.8
220 0.5
221 1.8
234 1.1
278 5.9
279 0.14
280 0.7
306 6
307 1.9
308 1.5

>  <PREDICTED SPECTRUM>  (4232) 
28 5
43 75
44 103
45 194
46 30
47 61
56 1
57 55
58 85
59 154
60 65
61 56
65 15
66 38
70 25
71 37
72 77
73 676
74 185
75 293
76 45
77 155
86 94
87 25
88 58
89 115
90 6
91 43
98 38
99 32
100 232
101 108
102 126
103 254
104 84
105 38
114 174
115 138
116 167
117 164
118 27
119 12
128 122
129 71
130 173
131 87
132 107
133 185
134 20
142 65
143 8
144 21
147 464
148 171
149 125
150 41
172 7
174 55
175 49
176 24
177 18
188 168
189 145
190 78
191 46
192 55
193 8
202 31
204 999
205 459
206 266
207 110
216 68
217 101
218 660
219 224
220 14
221 70
231 35
232 43
278 145
279 12
291 14
306 146
307 83
308 62
321 45
322 27

$$$$

     RDKit          2D

 24 23  0  0  0  0  0  0  0  0999 V2000
   -8.3212    6.4457    0.0000 C   0  0  0  0  0  0  0  0  0  0  0  0
    4.6692    6.4457    0.0000 C   0  0  0  0  0  0  0  0  0  0  0  0
    0.0405   -0.5705    0.0000 C   0  0  0  0  0  0  0  0  0  0  0  0
   -7.0222    5.6957    0.0000 C   0  0  0  0  0  0  0  0  0  0  0  0
    3.3701    5.6957    0.0000 C   0  0  0  0  0  0  0  0  0  0  0  0
   -0.9237    0.5785    0.0000 C   0  0  0  0  0  0  0  0  0  0  0  0
   -5.7231    6.4457    0.0000 C   0  0  0  0  0  0  0  0  0  0  0  0
    2.0711    6.4457    0.0000 C   0  0  0  0  0  0  0  0  0  0  0  0
   -0.4107    1.9881    0.0000 C   0  0  0  0  0  0  0  0  0  0  0  0
   -4.4241    5.6957    0.0000 C   0  0  0  0  0  0  0  0  0  0  0  0
    0.7721    5.6957    0.0000 C   0  0  0  0  0  0  0  0  0  0  0  0
   -1.3749    3.1371    0.0000 C   0  0  0  0  0  0  0  0  0  0  0  0
   -3.1251    6.4457    0.0000 C   0  0  0  0  0  0  0  0  0  0  0  0
   -4.4241    8.6957    0.0000 C   0  0  0  0  0  0  0  0  0  0  0  0
   -4.4241   10.1957    0.0000 C   0  0  0  0  0  0  0  0  0  0  0  0
   -2.9241   10.1957    0.0000 F   0  0  0  0  0  0  0  0  0  0  0  0
   -4.4241   11.6957    0.0000 F   0  0  0  0  0  0  0  0  0  0  0  0
   -5.9241   10.1957    0.0000 F   0  0  0  0  0  0  0  0  0  0  0  0
   -3.1251    7.9457    0.0000 N   0  0  0  0  0  0  0  0  0  0  0  0
   -5.7231    7.9457    0.0000 O   0  0  0  0  0  0  0  0  0  0  0  0
   -2.7902    4.5467    0.0000 O   0  0  0  0  0  0  0  0  0  0  0  0
   -0.5270    6.4457    0.0000 O   0  0  0  0  0  0  0  0  0  0  0  0
   -0.8618    4.5467    0.0000 O   0  0  0  0  0  0  0  0  0  0  0  0
   -1.8260    5.6957    0.0000 P   0  0  0  0  0  0  0  0  0  0  0  0
  4  1  1  0
  5  2  1  0
  6  3  1  0
  7  4  1  0
  8  5  1  0
  9  6  1  0
 10  7  1  0
 11  8  1  0
 12  9  1  0
 13 10  1  0
 15 14  1  0
 16 15  1  0
 17 15  1  0
 18 15  1  0
 19 13  1  0
 19 14  2  3
 20 14  1  0
 22 11  1  0
 23 12  1  0
 24 13  1  0
 24 21  2  0
 24 22  1  0
 24 23  1  0
M  END
>  <NAME>  (4233) 
DIBUTYL 1-(N-TRIFLUOROACETYLAMINO)PENTYLPHOSPHONATE

>  <SYNONYMS>  (4233) 


>  <SPECTRUM TYPE>  (4233) 
MS1

>  <INSTRUMENT TYPE>  (4233) 
EI-B

>  <INSTRUMENT>  (4233) 
SHIMADZU LKB-9000B

>  <ION MODE>  (4233) 
P

>  <INCHIKEY>  (4233) 
VTGKYJIQDAIQCK-UHFFFAOYSA-N

>  <FORMULA>  (4233) 
C15H29F3NO4P

>  <EXACT MASS>  (4233) 
375.178629698

>  <MW>  (4233) 
375

>  <ID>  (4233) 
JP004548

>  <CONTRIBUTOR>  (4233) 
University of Tokyo Team, {Faculty of Engineering, University of Tokyo

>  <COMMENT>  (4233) 
SMILES=CCCCOP(=O)(OCCCC)C(CCCC)NC(=O)C(F)(F)F
InChI=InChI=1S/C15H29F3NO4P/c1-4-7-10-13(19-14(20)15(16,17)18)24(21,22-11-8-5-2)23-12-9-6-3/h13H,4-12H2,1-3H3,(H,19,20)
computed SMILES=O=P(OCCCC)(OCCCC)C(N=C(O)C(F)(F)F)CCCC
accession=JP004548
date=2016.01.19 (Created 2008.10.21, modified 2011.05.06)
author=HAYASHI A, DEPT. OF CHEMISTRY, FAC. OF SCI. AND TECHNOLOGY, KINKI UNIV.
license=CC BY-NC-SA
exact mass=375.17863
ionization energy=70 eV
ion type=[M]+*
computed spectral entropy=2.7725099493210545
computed normalized entropy=0.7087151444339783
SPLASH=splash10-000i-2920000000-efe07716c894253510b8
submitter=submitter = University of Tokyo Team (Faculty of Engineering, University of Tokyo)
MoNA Rating=3.75

>  <NUM PEAKS>  (4233) 
50

>  <MASS SPECTRAL PEAKS>  (4233) 
69 5.1
82 2.9
83 43.7
96 0.14
97 1
99 4
109 2.8
110 0.4
111 1.2
112 1
114 3.6
123 1.75
124 1.1
126 9.5
136 1.9
137 0.29
138 45.6
139 99.99
140 7.7
141 0.1
145 2
150 1.6
152 3.3
155 0.36
164 1.4
165 2.1
166 2.8
178 0.12
179 3.3
180 3
182 20.5
183 0.23
189 1.4
194 12.1
195 2.9
206 0.34
207 11.2
208 10
211 3.1
220 0.42
246 8.1
263 3.1
264 18.2
265 0.15
302 2
319 3.8
320 4.6
332 0.1
375 0.9
376 1.8

>  <PREDICTED SPECTRUM>  (4233) 
26 45
27 174
28 123
29 212
31 30
33 24
39 176
40 25
41 788
42 252
43 520
44 112
45 117
47 105
48 30
49 27
50 37
51 105
52 85
53 159
54 185
55 454
56 300
57 670
58 209
59 218
64 57
65 228
66 95
67 172
68 157
69 455
70 227
71 137
74 17
76 3
77 204
78 151
79 83
80 55
81 148
82 203
83 837
84 196
85 108
90 4
92 13
94 38
95 48
96 104
97 107
98 72
99 231
100 79
103 34
104 38
105 19
106 84
107 39
108 91
109 138
110 21
111 142
112 24
113 115
114 18
116 69
120 36
121 8
122 116
123 394
124 177
125 58
126 133
127 118
128 148
131 37
133 46
134 186
135 89
136 174
137 170
138 999
139 620
140 436
146 12
147 10
148 193
149 41
150 264
151 273
152 256
153 259
154 117
155 57
158 16
160 59
161 57
162 49
164 80
165 36
166 194
178 214
179 209
180 429
181 182
182 431
183 125
190 21
193 19
194 285
206 302
207 418
208 498
209 71
216 27
244 77
246 298
263 189
264 632
265 102
272 53
302 81
319 90
332 14
375 26
376 48

$$$$

     RDKit          2D

 24 23  0  0  0  0  0  0  0  0999 V2000
   -8.3676    6.4190    0.0000 C   0  0  0  0  0  0  0  0  0  0  0  0
    4.6228    6.4190    0.0000 C   0  0  0  0  0  0  0  0  0  0  0  0
   -6.7552    3.8918    0.0000 C   0  0  0  0  0  0  0  0  0  0  0  0
   -4.7650    2.2218    0.0000 C   0  0  0  0  0  0  0  0  0  0  0  0
   -7.0686    5.6690    0.0000 C   0  0  0  0  0  0  0  0  0  0  0  0
    3.3237    5.6690    0.0000 C   0  0  0  0  0  0  0  0  0  0  0  0
   -5.7695    6.4190    0.0000 C   0  0  0  0  0  0  0  0  0  0  0  0
    2.0247    6.4190    0.0000 C   0  0  0  0  0  0  0  0  0  0  0  0
   -4.4705    5.6690    0.0000 C   0  0  0  0  0  0  0  0  0  0  0  0
    0.7256    5.6690    0.0000 C   0  0  0  0  0  0  0  0  0  0  0  0
   -4.3138    4.7804    0.0000 C   0  0  0  0  0  0  0  0  0  0  0  0
   -5.2780    3.6313    0.0000 C   0  0  0  0  0  0  0  0  0  0  0  0
   -2.8366    4.5199    0.0000 C   0  0  0  0  0  0  0  0  0  0  0  0
   -0.8464    2.8499    0.0000 C   0  0  0  0  0  0  0  0  0  0  0  0
   -0.3333    1.4403    0.0000 C   0  0  0  0  0  0  0  0  0  0  0  0
   -1.7429    0.9273    0.0000 F   0  0  0  0  0  0  0  0  0  0  0  0
    0.1797    0.0308    0.0000 F   0  0  0  0  0  0  0  0  0  0  0  0
    1.0762    1.9534    0.0000 F   0  0  0  0  0  0  0  0  0  0  0  0
   -2.3236    3.1103    0.0000 N   0  0  0  0  0  0  0  0  0  0  0  0
    0.1178    3.9989    0.0000 O   0  0  0  0  0  0  0  0  0  0  0  0
   -0.9082    4.5199    0.0000 O   0  0  0  0  0  0  0  0  0  0  0  0
   -3.1715    6.4190    0.0000 O   0  0  0  0  0  0  0  0  0  0  0  0
   -0.5734    6.4190    0.0000 O   0  0  0  0  0  0  0  0  0  0  0  0
   -1.8724    5.6690    0.0000 P   0  0  0  0  0  0  0  0  0  0  0  0
  5  1  1  0
  6  2  1  0
  7  5  1  0
  8  6  1  0
  9  7  1  0
 10  8  1  0
 12  3  1  0
 12  4  1  0
 12 11  1  0
 13 11  1  0
 15 14  1  0
 16 15  1  0
 17 15  1  0
 18 15  1  0
 19 13  1  0
 19 14  2  3
 20 14  1  0
 22  9  1  0
 23 10  1  0
 24 13  1  0
 24 21  2  0
 24 22  1  0
 24 23  1  0
M  END
>  <NAME>  (4234) 
DIBUTYL 3-METHYL-1-(N-TRIFLUOROACETYLAMINO)BUTYLPHOSPHONATE

>  <SYNONYMS>  (4234) 


>  <SPECTRUM TYPE>  (4234) 
MS1

>  <INSTRUMENT TYPE>  (4234) 
EI-B

>  <INSTRUMENT>  (4234) 
SHIMADZU LKB-9000B

>  <ION MODE>  (4234) 
P

>  <INCHIKEY>  (4234) 
XOWFAIAZFLPNQE-UHFFFAOYSA-N

>  <FORMULA>  (4234) 
C15H29F3NO4P

>  <EXACT MASS>  (4234) 
375.17862969800007

>  <MW>  (4234) 
375

>  <ID>  (4234) 
JP004547

>  <CONTRIBUTOR>  (4234) 
University of Tokyo Team, {Faculty of Engineering, University of Tokyo

>  <COMMENT>  (4234) 
SMILES=CCCCOP(=O)(OCCCC)C(CC(C)C)NC(=O)C(F)(F)F
InChI=InChI=1S/C15H29F3NO4P/c1-5-7-9-22-24(21,23-10-8-6-2)13(11-12(3)4)19-14(20)15(16,17)18/h12-13H,5-11H2,1-4H3,(H,19,20)
computed SMILES=O=P(OCCCC)(OCCCC)C(N=C(O)C(F)(F)F)CC(C)C
accession=JP004547
license=CC BY-NC-SA
date=2016.01.19 (Created 2008.10.21, modified 2011.05.06)
author=HAYASHI A, DEPT. OF CHEMISTRY, FAC. OF SCI. AND TECHNOLOGY, KINKI UNIV.
exact mass=375.17863
ionization energy=70 eV
ion type=[M]+*
computed spectral entropy=2.9043925237176484
computed normalized entropy=0.7215251602493444
SPLASH=splash10-000i-2920000000-c7ca2b7793092f3e08e3
submitter=submitter = University of Tokyo Team (Faculty of Engineering, University of Tokyo)
MoNA Rating=3.75

>  <NUM PEAKS>  (4234) 
56

>  <MASS SPECTRAL PEAKS>  (4234) 
69 5.2
82 3.4
83 55.5
96 0.18
97 1.4
99 4.4
106 1.4
109 0.4
110 4.9
111 1.4
114 2.4
122 0.28
123 20.1
124 1.6
126 3.9
137 0.34
138 54.4
139 99.99
140 25.5
141 0.18
150 6.4
151 2.5
152 1
155 0.37
164 1.9
165 3
166 7.6
178 0.15
179 3.8
180 5.6
181 1.1
182 1.23
183 2
189 1.7
194 15.6
195 0.39
202 1.2
206 3.8
207 16.7
208 1.67
211 3.6
220 6.9
246 8.8
248 0.33
263 3.3
264 21.4
265 1.8
276 0.2
302 2.4
304 1
319 6.6
320 0.4
332 3.5
370 0.5
375 0.5
376 2.8

>  <PREDICTED SPECTRUM>  (4234) 
26 47
27 187
28 112
29 349
31 42
33 0
39 112
40 18
41 583
42 172
43 418
44 36
45 97
47 45
49 36
51 73
52 67
53 111
54 114
55 333
56 170
57 420
58 108
59 153
64 5
65 126
66 60
67 150
68 158
69 387
70 189
71 79
77 136
78 157
79 72
80 75
81 148
82 223
83 691
84 156
85 105
87 22
88 17
92 44
93 2
94 93
95 109
96 94
97 68
98 50
99 114
100 23
106 36
107 55
108 105
109 100
110 65
111 133
112 41
113 114
116 21
120 18
122 102
123 362
124 135
125 36
126 61
127 96
128 116
133 34
134 128
135 37
136 131
137 103
138 999
139 852
140 350
146 5
147 0
148 163
149 67
150 265
151 240
152 235
153 299
154 85
158 13
160 59
161 27
164 49
165 33
166 173
178 144
179 175
180 359
181 142
182 278
183 49
188 5
190 2
192 19
193 64
194 308
206 267
207 330
208 427
209 50
216 28
218 3
220 54
222 98
230 22
244 69
246 197
262 14
263 88
264 437
265 74
272 35
302 126
318 22
319 167
320 95
332 86
375 108
376 89

$$$$

     RDKit          2D

 23 22  0  0  0  0  0  0  0  0999 V2000
    4.1060    4.1381    0.0000 C   0  0  0  0  0  0  0  0  0  0  0  0
   -8.8843    4.1381    0.0000 C   0  0  0  0  0  0  0  0  0  0  0  0
    2.4936    6.6653    0.0000 C   0  0  0  0  0  0  0  0  0  0  0  0
    2.8070    4.8881    0.0000 C   0  0  0  0  0  0  0  0  0  0  0  0
   -7.5853    4.8881    0.0000 C   0  0  0  0  0  0  0  0  0  0  0  0
    1.0164    6.9258    0.0000 C   0  0  0  0  0  0  0  0  0  0  0  0
    1.5080    4.1381    0.0000 C   0  0  0  0  0  0  0  0  0  0  0  0
   -6.2863    4.1381    0.0000 C   0  0  0  0  0  0  0  0  0  0  0  0
    0.0522    5.7767    0.0000 C   0  0  0  0  0  0  0  0  0  0  0  0
    0.2089    4.8881    0.0000 C   0  0  0  0  0  0  0  0  0  0  0  0
   -4.9872    4.8881    0.0000 C   0  0  0  0  0  0  0  0  0  0  0  0
   -1.4250    6.0372    0.0000 C   0  0  0  0  0  0  0  0  0  0  0  0
   -0.9738    8.5958    0.0000 C   0  0  0  0  0  0  0  0  0  0  0  0
   -1.4868   10.0053    0.0000 C   0  0  0  0  0  0  0  0  0  0  0  0
   -2.8964    9.4923    0.0000 F   0  0  0  0  0  0  0  0  0  0  0  0
   -1.9999   11.4149    0.0000 F   0  0  0  0  0  0  0  0  0  0  0  0
   -0.0773   10.5184    0.0000 F   0  0  0  0  0  0  0  0  0  0  0  0
   -1.9380    7.4467    0.0000 N   0  0  0  0  0  0  0  0  0  0  0  0
    0.5034    8.3353    0.0000 O   0  0  0  0  0  0  0  0  0  0  0  0
   -3.3533    6.0372    0.0000 O   0  0  0  0  0  0  0  0  0  0  0  0
   -1.0901    4.1381    0.0000 O   0  0  0  0  0  0  0  0  0  0  0  0
   -3.6882    4.1381    0.0000 O   0  0  0  0  0  0  0  0  0  0  0  0
   -2.3892    4.8881    0.0000 P   0  0  0  0  0  0  0  0  0  0  0  0
  4  1  1  0
  5  2  1  0
  6  3  1  0
  7  4  1  0
  8  5  1  0
  9  6  1  0
 10  7  1  0
 11  8  1  0
 12  9  1  0
 14 13  1  0
 15 14  1  0
 16 14  1  0
 17 14  1  0
 18 12  1  0
 18 13  2  3
 19 13  1  0
 21 10  1  0
 22 11  1  0
 23 12  1  0
 23 20  2  0
 23 21  1  0
 23 22  1  0
M  END
>  <NAME>  (4235) 
DIBUTYL 1-(N-TRIFLUOROACETYLAMINO)BUTYLPHOSPHONATE

>  <SYNONYMS>  (4235) 


>  <SPECTRUM TYPE>  (4235) 
MS1

>  <INSTRUMENT TYPE>  (4235) 
EI-B

>  <INSTRUMENT>  (4235) 
SHIMADZU LKB-9000B

>  <ION MODE>  (4235) 
P

>  <INCHIKEY>  (4235) 
HFNKBZCZJNNGKI-UHFFFAOYSA-N

>  <FORMULA>  (4235) 
C14H27F3NO4P

>  <EXACT MASS>  (4235) 
361.162979634

>  <MW>  (4235) 
361

>  <ID>  (4235) 
JP004545

>  <CONTRIBUTOR>  (4235) 
University of Tokyo Team, {Faculty of Engineering, University of Tokyo

>  <COMMENT>  (4235) 
SMILES=CCCCOP(=O)(OCCCC)C(CCC)NC(=O)C(F)(F)F
InChI=InChI=1S/C14H27F3NO4P/c1-4-7-10-21-23(20,22-11-8-5-2)12(9-6-3)18-13(19)14(15,16)17/h12H,4-11H2,1-3H3,(H,18,19)
computed SMILES=O=P(OCCCC)(OCCCC)C(N=C(O)C(F)(F)F)CCC
accession=JP004545
date=2016.01.19 (Created 2008.10.21, modified 2011.05.06)
author=HAYASHI A, DEPT. OF CHEMISTRY, FAC. OF SCI. AND TECHNOLOGY, KINKI UNIV.
license=CC BY-NC-SA
exact mass=361.16298
ionization energy=70 eV
ion type=[M]+*
computed spectral entropy=2.792003705307622
computed normalized entropy=0.6876106124518414
SPLASH=splash10-000i-2910000000-625c9284d51e614b4288
submitter=submitter = University of Tokyo Team (Faculty of Engineering, University of Tokyo)
MoNA Rating=3.75

>  <NUM PEAKS>  (4235) 
58

>  <MASS SPECTRAL PEAKS>  (4235) 
55 1.6
57 1.1
69 1.1
82 0.41
83 56.5
84 3.4
86 2.2
96 0.13
97 1.4
98 1.3
99 5.9
106 0.1
109 3.7
110 4.3
111 1.5
114 0.49
122 1.4
123 17.8
124 1.2
126 1.79
136 2.2
137 5.5
138 44.7
139 99.99
140 7.8
141 1
149 2.3
150 0.17
151 1.8
152 3.5
155 4.4
164 0.15
165 1.1
166 3.4
167 1.2
168 2.25
169 3.3
179 2.9
180 2.8
189 0.12
194 10.6
195 2.1
206 3.5
207 0.86
208 7.7
211 3.2
220 3.4
232 0.85
249 1.3
250 12.2
263 1.1
264 0.37
288 1.7
306 3.3
319 1.7
332 0.06
361 0.6
362 0.8

>  <PREDICTED SPECTRUM>  (4235) 
15 11
26 22
27 122
28 78
29 166
31 35
33 25
39 263
40 89
41 759
42 268
43 545
44 71
45 93
47 90
48 0
50 38
51 72
52 45
53 110
54 156
55 542
56 361
57 664
58 142
59 174
61 7
62 41
63 114
64 86
65 200
66 54
67 91
68 83
69 433
70 251
71 134
72 109
73 11
74 49
77 16
78 24
80 42
81 116
82 317
83 760
84 121
85 157
86 44
87 31
88 21
89 30
90 26
92 29
93 34
94 43
95 62
96 12
97 20
98 25
99 49
102 8
108 19
109 124
110 190
111 215
112 152
113 182
114 147
117 19
120 111
121 100
122 86
123 225
124 180
125 106
126 30
127 19
133 19
134 127
135 38
136 207
137 261
138 999
139 401
140 394
147 64
148 17
149 45
150 101
151 80
152 216
153 64
154 28
155 229
160 79
161 58
162 28
164 126
165 160
166 320
167 193
168 389
169 209
170 53
176 43
179 66
180 253
181 48
186 13
192 63
193 206
194 285
195 8
202 47
208 100
216 8
230 115
231 89
232 379
233 16
249 263
250 563
251 107
258 59
276 0
288 80
306 39
319 18
361 71
362 56

$$$$

     RDKit          2D

 22 21  0  0  0  0  0  0  0  0999 V2000
    4.1060    4.1381    0.0000 C   0  0  0  0  0  0  0  0  0  0  0  0
   -8.8843    4.1381    0.0000 C   0  0  0  0  0  0  0  0  0  0  0  0
    1.0164    6.9258    0.0000 C   0  0  0  0  0  0  0  0  0  0  0  0
    2.8070    4.8881    0.0000 C   0  0  0  0  0  0  0  0  0  0  0  0
   -7.5853    4.8881    0.0000 C   0  0  0  0  0  0  0  0  0  0  0  0
    0.0522    5.7767    0.0000 C   0  0  0  0  0  0  0  0  0  0  0  0
    1.5080    4.1381    0.0000 C   0  0  0  0  0  0  0  0  0  0  0  0
   -6.2863    4.1381    0.0000 C   0  0  0  0  0  0  0  0  0  0  0  0
    0.2089    4.8881    0.0000 C   0  0  0  0  0  0  0  0  0  0  0  0
   -4.9872    4.8881    0.0000 C   0  0  0  0  0  0  0  0  0  0  0  0
   -1.4250    6.0372    0.0000 C   0  0  0  0  0  0  0  0  0  0  0  0
   -0.9738    8.5958    0.0000 C   0  0  0  0  0  0  0  0  0  0  0  0
   -1.4868   10.0053    0.0000 C   0  0  0  0  0  0  0  0  0  0  0  0
   -0.0773   10.5184    0.0000 F   0  0  0  0  0  0  0  0  0  0  0  0
   -1.9999   11.4149    0.0000 F   0  0  0  0  0  0  0  0  0  0  0  0
   -2.8964    9.4923    0.0000 F   0  0  0  0  0  0  0  0  0  0  0  0
   -1.9380    7.4467    0.0000 N   0  0  0  0  0  0  0  0  0  0  0  0
    0.5034    8.3353    0.0000 O   0  0  0  0  0  0  0  0  0  0  0  0
   -3.3533    6.0372    0.0000 O   0  0  0  0  0  0  0  0  0  0  0  0
   -1.0901    4.1381    0.0000 O   0  0  0  0  0  0  0  0  0  0  0  0
   -3.6882    4.1381    0.0000 O   0  0  0  0  0  0  0  0  0  0  0  0
   -2.3892    4.8881    0.0000 P   0  0  0  0  0  0  0  0  0  0  0  0
  4  1  1  0
  5  2  1  0
  6  3  1  0
  7  4  1  0
  8  5  1  0
  9  7  1  0
 10  8  1  0
 11  6  1  0
 13 12  1  0
 14 13  1  0
 15 13  1  0
 16 13  1  0
 17 11  1  0
 17 12  2  3
 18 12  1  0
 20  9  1  0
 21 10  1  0
 22 11  1  0
 22 19  2  0
 22 20  1  0
 22 21  1  0
M  END
>  <NAME>  (4236) 
DIBUTYL 1-(N-TRIFUOROACETYLAMINO)PROPYLPHOSPHONATE

>  <SYNONYMS>  (4236) 


>  <SPECTRUM TYPE>  (4236) 
MS1

>  <INSTRUMENT TYPE>  (4236) 
EI-B

>  <INSTRUMENT>  (4236) 
SHIMADZU LKB-9000B

>  <ION MODE>  (4236) 
P

>  <INCHIKEY>  (4236) 
DOBUKKUNTRWKHT-UHFFFAOYSA-N

>  <FORMULA>  (4236) 
C13H25F3NO4P

>  <EXACT MASS>  (4236) 
347.14732957000007

>  <MW>  (4236) 
347

>  <ID>  (4236) 
JP004544

>  <CONTRIBUTOR>  (4236) 
University of Tokyo Team, {Faculty of Engineering, University of Tokyo

>  <COMMENT>  (4236) 
SMILES=CCCCOP(=O)(OCCCC)C(CC)NC(=O)C(F)(F)F
InChI=InChI=1S/C13H25F3NO4P/c1-4-7-9-20-22(19,21-10-8-5-2)11(6-3)17-12(18)13(14,15)16/h11H,4-10H2,1-3H3,(H,17,18)
computed SMILES=O=P(OCCCC)(OCCCC)C(N=C(O)C(F)(F)F)CC
accession=JP004544
date=2016.01.19 (Created 2008.10.21, modified 2011.05.06)
author=HAYASHI A, DEPT. OF CHEMISTRY, FAC. OF SCI. AND TECHNOLOGY, KINKI UNIV.
license=CC BY-NC-SA
exact mass=347.14733
ionization energy=70 eV
ion type=[M]+*
computed spectral entropy=2.6060455254927897
computed normalized entropy=0.6886667365013666
SPLASH=splash10-000i-0910000000-56893d3e4cd6e750ea39
submitter=submitter = University of Tokyo Team (Faculty of Engineering, University of Tokyo)
MoNA Rating=3.75

>  <NUM PEAKS>  (4236) 
44

>  <MASS SPECTRAL PEAKS>  (4236) 
57 1
69 1.3
82 4.2
83 5.77
85 1
96 1.2
97 1.2
99 0.86
109 4.2
110 3
111 1.3
120 0.14
122 1.6
123 21.9
124 1.4
126 0.69
136 2.5
137 9.6
138 51
139 99.99
140 7.1
150 1.9
152 1.5
153 0.15
154 47.2
155 12.1
165 1.1
166 0.48
179 2.9
194 13.9
195 1.7
206 0.51
207 3.7
208 2.5
211 4.3
218 1.23
220 1.6
235 2.1
236 18
237 0.11
274 2.2
292 4.2
347 0.7
348 1.4

>  <PREDICTED SPECTRUM>  (4236) 
26 10
27 107
28 105
29 97
31 103
33 45
39 178
40 68
41 828
42 256
43 575
44 15
45 200
47 149
48 73
49 76
50 30
51 134
52 33
53 108
54 113
55 530
56 376
57 696
58 202
59 266
60 26
65 298
66 84
67 120
68 90
69 367
70 251
71 177
72 84
74 12
77 50
78 108
79 84
80 72
81 116
82 373
83 930
84 140
85 33
88 36
94 49
95 69
96 212
97 64
98 105
99 198
100 141
101 14
103 35
108 10
109 67
110 230
111 196
113 143
120 124
121 35
122 292
123 456
124 262
125 185
126 55
136 110
137 91
138 996
139 324
140 325
146 35
147 11
150 202
151 201
152 357
153 185
154 494
155 308
156 0
162 52
166 369
167 18
178 173
179 303
180 437
190 52
194 113
216 183
217 258
218 591
219 68
235 596
236 999
237 167
274 157
291 36
292 237
319 40
347 51
348 79

$$$$

     RDKit          2D

 22 21  0  0  0  0  0  0  0  0999 V2000
    4.1848    5.3008    0.0000 C   0  0  0  0  0  0  0  0  0  0  0  0
    0.7059   10.5399    0.0000 C   0  0  0  0  0  0  0  0  0  0  0  0
   -6.2075    3.8008    0.0000 C   0  0  0  0  0  0  0  0  0  0  0  0
    2.8857    6.0508    0.0000 C   0  0  0  0  0  0  0  0  0  0  0  0
   -0.7713   10.2794    0.0000 C   0  0  0  0  0  0  0  0  0  0  0  0
    1.5867    5.3008    0.0000 C   0  0  0  0  0  0  0  0  0  0  0  0
   -1.2844    8.8699    0.0000 C   0  0  0  0  0  0  0  0  0  0  0  0
   -4.9085    6.0508    0.0000 C   0  0  0  0  0  0  0  0  0  0  0  0
    0.2877    6.0508    0.0000 C   0  0  0  0  0  0  0  0  0  0  0  0
   -2.7616    8.6094    0.0000 C   0  0  0  0  0  0  0  0  0  0  0  0
   -3.6095    5.3008    0.0000 C   0  0  0  0  0  0  0  0  0  0  0  0
   -7.5066    6.0508    0.0000 C   0  0  0  0  0  0  0  0  0  0  0  0
   -8.8056    5.3008    0.0000 C   0  0  0  0  0  0  0  0  0  0  0  0
   -9.5556    6.5998    0.0000 F   0  0  0  0  0  0  0  0  0  0  0  0
  -10.1046    4.5508    0.0000 F   0  0  0  0  0  0  0  0  0  0  0  0
   -8.0556    4.0018    0.0000 F   0  0  0  0  0  0  0  0  0  0  0  0
   -6.2075    5.3008    0.0000 N   0  0  0  0  0  0  0  0  0  0  0  0
   -7.5066    7.5508    0.0000 O   0  0  0  0  0  0  0  0  0  0  0  0
   -1.3462    7.1999    0.0000 O   0  0  0  0  0  0  0  0  0  0  0  0
   -1.0114    5.3008    0.0000 O   0  0  0  0  0  0  0  0  0  0  0  0
   -3.2746    7.1999    0.0000 O   0  0  0  0  0  0  0  0  0  0  0  0
   -2.3104    6.0508    0.0000 P   0  0  0  0  0  0  0  0  0  0  0  0
  4  1  1  0
  5  2  1  0
  6  4  1  0
  7  5  1  0
  9  6  1  0
 10  7  1  0
 11  8  1  0
 13 12  1  0
 14 13  1  0
 15 13  1  0
 16 13  1  0
 17  3  1  0
 17  8  1  0
 17 12  1  0
 18 12  2  0
 20  9  1  0
 21 10  1  0
 22 11  1  0
 22 19  2  0
 22 20  1  0
 22 21  1  0
M  END
>  <NAME>  (4237) 
DIBUTYL 2-(N-TRIFLUOROACETYL-N-METHYLAMINO)ETHYLPHOSPHONATE

>  <SYNONYMS>  (4237) 


>  <SPECTRUM TYPE>  (4237) 
MS1

>  <INSTRUMENT TYPE>  (4237) 
EI-B

>  <INSTRUMENT>  (4237) 
SHIMADZU LKB-9000B

>  <ION MODE>  (4237) 
P

>  <INCHIKEY>  (4237) 
ZXYLUWVQGVTPHW-UHFFFAOYSA-N

>  <FORMULA>  (4237) 
C13H25F3NO4P

>  <EXACT MASS>  (4237) 
347.14732957000007

>  <MW>  (4237) 
347

>  <ID>  (4237) 
JP004543

>  <CONTRIBUTOR>  (4237) 
University of Tokyo Team, {Faculty of Engineering, University of Tokyo

>  <COMMENT>  (4237) 
SMILES=CCCCOP(=O)(OCCCC)CCN(C)C(=O)C(F)(F)F
InChI=InChI=1S/C13H25F3NO4P/c1-4-6-9-20-22(19,21-10-7-5-2)11-8-17(3)12(18)13(14,15)16/h4-11H2,1-3H3
computed SMILES=O=C(N(C)CCP(=O)(OCCCC)OCCCC)C(F)(F)F
accession=JP004543
date=2016.01.19 (Created 2008.10.21, modified 2011.05.06)
author=HAYASHI A, DEPT. OF CHEMISTRY, FAC. OF SCI. AND TECHNOLOGY, KINKI UNIV.
license=CC BY-NC-SA
exact mass=347.14733
ionization energy=70 eV
ion type=[M]+*
computed spectral entropy=3.0791684809217528
computed normalized entropy=0.7520540672938901
SPLASH=splash10-0fe0-0940000000-c5a6051b252ffd3ad642
submitter=submitter = University of Tokyo Team (Faculty of Engineering, University of Tokyo)
MoNA Rating=3.75

>  <NUM PEAKS>  (4237) 
60

>  <MASS SPECTRAL PEAKS>  (4237) 
69 1.2
81 1.1
82 2.9
83 1.73
91 2.5
92 1.6
93 1.1
94 0.54
96 1.8
97 2.6
104 3.9
106 0.1
109 14.4
110 16.7
111 12.5
112 0.14
120 24
121 1.6
122 46.9
123 0.83
124 1.4
136 1.3
137 4.9
138 99.99
139 23.7
140 17.6
148 2.2
150 0.26
152 2.8
153 6.3
154 21.5
155 0.16
165 1
166 4.2
167 4
168 0.18
176 2.3
178 3.6
193 4.3
194 5.11
195 4.3
196 1.1
199 1.1
216 0.18
218 42.2
219 2.6
235 14.5
236 3.61
237 2.2
250 79.5
251 9.9
252 0.12
262 2.4
274 7.1
291 5.8
292 1.96
293 2
347 10.2
348 5.1
349 0.7

>  <PREDICTED SPECTRUM>  (4237) 
29 121
39 14
41 170
42 46
43 81
44 121
47 116
55 104
57 189
58 22
59 2
65 192
69 148
72 25
78 76
79 44
80 31
81 39
82 71
83 110
84 6
90 160
91 89
92 85
94 77
96 151
97 127
99 7
107 77
108 7
109 506
110 673
111 332
112 0
119 4
120 267
121 213
122 422
123 225
124 169
125 39
126 73
136 238
137 271
138 999
139 624
140 464
141 26
146 1
148 69
149 13
150 102
151 10
152 76
153 216
154 357
155 186
164 11
165 300
166 475
167 180
168 98
170 5
171 14
176 49
189 0
193 139
194 218
195 85
196 83
199 18
200 95
204 19
216 6
217 150
218 902
219 263
220 75
222 122
232 50
235 359
236 355
237 148
238 52
244 34
246 12
249 48
250 753
251 344
252 71
262 114
264 169
274 443
275 57
291 225
292 401
293 45
304 15
320 37
347 355
348 184
349 114

$$$$

     RDKit          2D

 21 20  0  0  0  0  0  0  0  0999 V2000
    4.1060    4.1381    0.0000 C   0  0  0  0  0  0  0  0  0  0  0  0
   -8.8843    4.1381    0.0000 C   0  0  0  0  0  0  0  0  0  0  0  0
    0.0522    5.7767    0.0000 C   0  0  0  0  0  0  0  0  0  0  0  0
    2.8070    4.8881    0.0000 C   0  0  0  0  0  0  0  0  0  0  0  0
   -7.5853    4.8881    0.0000 C   0  0  0  0  0  0  0  0  0  0  0  0
    1.5080    4.1381    0.0000 C   0  0  0  0  0  0  0  0  0  0  0  0
   -6.2863    4.1381    0.0000 C   0  0  0  0  0  0  0  0  0  0  0  0
    0.2089    4.8881    0.0000 C   0  0  0  0  0  0  0  0  0  0  0  0
   -4.9872    4.8881    0.0000 C   0  0  0  0  0  0  0  0  0  0  0  0
   -1.4250    6.0372    0.0000 C   0  0  0  0  0  0  0  0  0  0  0  0
   -0.9738    8.5958    0.0000 C   0  0  0  0  0  0  0  0  0  0  0  0
   -1.4868   10.0053    0.0000 C   0  0  0  0  0  0  0  0  0  0  0  0
   -0.0773   10.5184    0.0000 F   0  0  0  0  0  0  0  0  0  0  0  0
   -1.9999   11.4149    0.0000 F   0  0  0  0  0  0  0  0  0  0  0  0
   -2.8964    9.4923    0.0000 F   0  0  0  0  0  0  0  0  0  0  0  0
   -1.9380    7.4467    0.0000 N   0  0  0  0  0  0  0  0  0  0  0  0
    0.5034    8.3353    0.0000 O   0  0  0  0  0  0  0  0  0  0  0  0
   -3.3533    6.0372    0.0000 O   0  0  0  0  0  0  0  0  0  0  0  0
   -1.0901    4.1381    0.0000 O   0  0  0  0  0  0  0  0  0  0  0  0
   -3.6882    4.1381    0.0000 O   0  0  0  0  0  0  0  0  0  0  0  0
   -2.3892    4.8881    0.0000 P   0  0  0  0  0  0  0  0  0  0  0  0
  4  1  1  0
  5  2  1  0
  6  4  1  0
  7  5  1  0
  8  6  1  0
  9  7  1  0
 10  3  1  0
 12 11  1  0
 13 12  1  0
 14 12  1  0
 15 12  1  0
 16 10  1  0
 16 11  2  3
 17 11  1  0
 19  8  1  0
 20  9  1  0
 21 10  1  0
 21 18  2  0
 21 19  1  0
 21 20  1  0
M  END
>  <NAME>  (4238) 
DIBUTYL 1-(N-TRIFLUOROACETYLAMINO)ETHYLPHOSPHONATE

>  <SYNONYMS>  (4238) 


>  <SPECTRUM TYPE>  (4238) 
MS1

>  <INSTRUMENT TYPE>  (4238) 
EI-B

>  <INSTRUMENT>  (4238) 
SHIMADZU LKB-9000B

>  <ION MODE>  (4238) 
P

>  <INCHIKEY>  (4238) 
KXEFGAZWYZRDOU-UHFFFAOYSA-N

>  <FORMULA>  (4238) 
C12H23F3NO4P

>  <EXACT MASS>  (4238) 
333.13167950600007

>  <MW>  (4238) 
333

>  <ID>  (4238) 
JP004540

>  <CONTRIBUTOR>  (4238) 
University of Tokyo Team, {Faculty of Engineering, University of Tokyo

>  <COMMENT>  (4238) 
SMILES=CCCCOP(=O)(OCCCC)C(C)NC(=O)C(F)(F)F
InChI=InChI=1S/C12H23F3NO4P/c1-4-6-8-19-21(18,20-9-7-5-2)10(3)16-11(17)12(13,14)15/h10H,4-9H2,1-3H3,(H,16,17)
computed SMILES=O=P(OCCCC)(OCCCC)C(N=C(O)C(F)(F)F)C
accession=JP004540
date=2016.01.19 (Created 2008.10.21, modified 2011.05.06)
author=HAYASHI A, DEPT. OF CHEMISTRY, FAC. OF SCI. AND TECHNOLOGY, KINKI UNIV.
license=CC BY-NC-SA
exact mass=333.13168
ionization energy=70 eV
ion type=[M]+*
computed spectral entropy=2.926422093282849
computed normalized entropy=0.7090687678809072
SPLASH=splash10-001c-3910000000-30e1e948970a0c173c2f
submitter=submitter = University of Tokyo Team (Faculty of Engineering, University of Tokyo)
MoNA Rating=3.75

>  <NUM PEAKS>  (4238) 
62

>  <MASS SPECTRAL PEAKS>  (4238) 
57 2
65 1
69 3.7
70 0.33
72 1.3
82 9.5
83 99.9
84 0.27
86 1.8
91 1
92 4.1
93 0.22
96 2.3
97 2.6
99 23.2
106 0.2
109 7.7
110 4.7
111 2.7
113 0.13
121 1.3
122 1.9
123 69.4
124 1.15
125 2.1
126 1.6
127 1.1
136 0.53
137 9.5
138 72.3
139 99.7
140 99.99
141 18.5
142 1
152 14.4
153 0.14
155 15.5
164 1.1
165 1.8
179 0.64
192 1.7
194 23.6
195 2.3
201 0.14
203 2
204 37.6
205 2
206 0.37
208 1.6
211 7.9
221 11.4
222 5.72
223 2.9
248 2.3
260 5.6
264 0.12
277 2.2
278 10.8
279 1
333 0.15
334 15.9
335 2

>  <PREDICTED SPECTRUM>  (4238) 
15 7
26 48
27 179
28 114
29 219
31 26
33 18
39 315
40 91
41 993
42 398
43 670
44 127
45 215
47 148
50 52
51 181
52 44
53 152
54 212
55 630
56 444
57 819
58 217
59 103
64 60
65 359
66 114
67 137
68 68
69 335
70 174
80 110
81 167
82 514
83 883
84 119
85 90
86 89
94 109
95 47
96 240
97 210
98 9
99 11
106 105
107 19
108 297
109 345
110 328
111 300
112 190
113 90
119 6
121 0
122 153
123 461
124 306
134 6
136 277
137 273
138 888
139 346
140 563
141 214
148 7
152 402
153 173
164 187
165 227
166 440
180 188
182 120
202 9
203 71
204 522
205 61
220 27
221 35
222 999
223 54
248 104
260 184
278 212

$$$$

     RDKit          2D

 20 19  0  0  0  0  0  0  0  0999 V2000
    4.1060    4.1381    0.0000 C   0  0  0  0  0  0  0  0  0  0  0  0
   -8.8843    4.1381    0.0000 C   0  0  0  0  0  0  0  0  0  0  0  0
    2.8070    4.8881    0.0000 C   0  0  0  0  0  0  0  0  0  0  0  0
   -7.5853    4.8881    0.0000 C   0  0  0  0  0  0  0  0  0  0  0  0
    1.5080    4.1381    0.0000 C   0  0  0  0  0  0  0  0  0  0  0  0
   -6.2863    4.1381    0.0000 C   0  0  0  0  0  0  0  0  0  0  0  0
    0.2089    4.8881    0.0000 C   0  0  0  0  0  0  0  0  0  0  0  0
   -4.9872    4.8881    0.0000 C   0  0  0  0  0  0  0  0  0  0  0  0
   -1.4250    6.0372    0.0000 C   0  0  0  0  0  0  0  0  0  0  0  0
   -0.9738    8.5958    0.0000 C   0  0  0  0  0  0  0  0  0  0  0  0
   -1.4868   10.0053    0.0000 C   0  0  0  0  0  0  0  0  0  0  0  0
   -0.0773   10.5184    0.0000 F   0  0  0  0  0  0  0  0  0  0  0  0
   -1.9999   11.4149    0.0000 F   0  0  0  0  0  0  0  0  0  0  0  0
   -2.8964    9.4923    0.0000 F   0  0  0  0  0  0  0  0  0  0  0  0
   -1.9380    7.4467    0.0000 N   0  0  0  0  0  0  0  0  0  0  0  0
    0.5034    8.3353    0.0000 O   0  0  0  0  0  0  0  0  0  0  0  0
   -3.3533    6.0372    0.0000 O   0  0  0  0  0  0  0  0  0  0  0  0
   -1.0901    4.1381    0.0000 O   0  0  0  0  0  0  0  0  0  0  0  0
   -3.6882    4.1381    0.0000 O   0  0  0  0  0  0  0  0  0  0  0  0
   -2.3892    4.8881    0.0000 P   0  0  0  0  0  0  0  0  0  0  0  0
  3  1  1  0
  4  2  1  0
  5  3  1  0
  6  4  1  0
  7  5  1  0
  8  6  1  0
 11 10  1  0
 12 11  1  0
 13 11  1  0
 14 11  1  0
 15  9  1  0
 15 10  2  3
 16 10  1  0
 18  7  1  0
 19  8  1  0
 20  9  1  0
 20 17  2  0
 20 18  1  0
 20 19  1  0
M  END
>  <NAME>  (4239) 
(N-TRIFLUOROACETYLAMINO)METHYLPHOSPHONIC ACID DIBUTYL ESTER

>  <SYNONYMS>  (4239) 


>  <SPECTRUM TYPE>  (4239) 
MS1

>  <INSTRUMENT TYPE>  (4239) 
EI-B

>  <INSTRUMENT>  (4239) 
SHIMADZU LKB-9000B

>  <ION MODE>  (4239) 
P

>  <INCHIKEY>  (4239) 
DGEWAUAVZKJTCG-UHFFFAOYSA-N

>  <FORMULA>  (4239) 
C11H21F3NO4P

>  <EXACT MASS>  (4239) 
319.116029442

>  <MW>  (4239) 
319

>  <ID>  (4239) 
JP004538

>  <CONTRIBUTOR>  (4239) 
University of Tokyo Team, {Faculty of Engineering, University of Tokyo

>  <COMMENT>  (4239) 
SMILES=CCCCOP(=O)(OCCCC)CNC(=O)C(F)(F)F
InChI=InChI=1S/C11H21F3NO4P/c1-3-5-7-18-20(17,19-8-6-4-2)9-15-10(16)11(12,13)14/h3-9H2,1-2H3,(H,15,16)
computed SMILES=O=P(OCCCC)(OCCCC)CN=C(O)C(F)(F)F
accession=JP004538
date=2016.01.19 (Created 2008.10.21, modified 2011.05.06)
author=HAYASHI A, DEPT. OF CHEMISTRY, FAC. OF SCI. AND TECHNOLOGY, KINKI UNIV.
license=CC BY-NC-SA
exact mass=319.11603
ionization energy=70 eV
ion type=[M]+*
computed spectral entropy=3.1091328550015995
computed normalized entropy=0.7420976301015664
SPLASH=splash10-0a4r-2960000000-1946ea9923708f838896
submitter=submitter = University of Tokyo Team (Faculty of Engineering, University of Tokyo)
MoNA Rating=3.75

>  <NUM PEAKS>  (4239) 
66

>  <MASS SPECTRAL PEAKS>  (4239) 
56 1.2
57 4.8
65 1.8
69 0.4
78 4.5
82 4.1
83 28
84 0.54
86 3.3
94 6.5
95 1.9
96 0.27
97 3.2
98 1
99 13.2
106 0.16
109 68.6
110 10.5
111 2.4
112 0.27
113 3.5
119 1.2
121 1.3
122 0.86
123 6.1
124 1.2
125 1.3
126 8.23
127 26.1
128 1.4
136 1.2
137 3.89
138 75.7
139 18.6
140 1.6
150 0.15
155 3.5
165 2
169 1.4
178 0.46
187 8.1
188 1.2
189 2.2
190 9.53
191 5.7
192 1.4
194 13.1
195 0.1
199 1.4
206 1.8
207 99.99
208 9.88
209 13.8
210 2.9
211 1.5
234 0.69
235 1.8
236 2.2
246 9.2
250 0.95
251 1
263 7.1
264 52.4
265 0.43
320 13.4
321 1.7

>  <PREDICTED SPECTRUM>  (4239) 
28 13
29 60
31 21
33 14
39 217
40 46
41 630
42 137
43 409
44 59
45 108
47 89
48 8
51 24
53 95
54 100
55 328
56 265
57 688
58 154
64 39
65 193
66 26
67 23
68 18
69 93
70 1
72 52
77 14
78 12
80 91
81 28
82 245
83 292
91 23
92 93
94 126
95 60
96 198
97 98
98 31
99 28
107 2
108 57
109 302
110 227
111 128
112 22
113 28
116 35
120 22
122 153
123 144
124 165
125 110
126 308
127 238
128 79
134 66
137 95
138 507
139 37
140 35
148 81
150 37
151 9
152 199
156 31
165 61
166 95
168 89
169 9
170 53
171 82
172 137
174 60
176 89
188 55
189 71
190 828
191 393
192 127
194 68
198 24
206 20
207 272
208 999
209 292
210 12
220 12
234 92
235 14
236 10
246 240
247 30
248 14
264 574
265 79
320 61

$$$$

     RDKit          2D

 16 16  0  0  1  0  0  0  0  0999 V2000
   -3.9076    4.0204    0.0000 C   0  0  0  0  0  0  0  0  0  0  0  0
    1.2816   -3.4843    0.0000 C   0  0  0  0  0  0  0  0  0  0  0  0
    3.9081   -0.4716    0.0000 C   0  0  0  0  0  0  0  0  0  0  0  0
    3.9081    1.0290    0.0000 C   0  0  0  0  0  0  0  0  0  0  0  0
   -2.6089    1.7702    0.0000 C   0  0  0  0  0  0  0  0  0  0  0  0
   -1.3100    1.0200    0.0000 C   0  0  0  0  0  0  0  0  0  0  0  0
   -1.3100   -0.4700    0.0000 C   0  0  0  0  0  0  0  0  0  0  0  0
   -0.0100   -1.2300    0.0000 C   0  0  0  0  0  0  0  0  0  0  0  0
    1.3100   -0.4700    0.0000 C   0  0  0  0  0  0  0  0  0  0  0  0
    1.3100    1.0200    0.0000 C   0  0  0  0  0  0  0  0  0  0  0  0
   -2.6111   -1.2165    0.0000 O   0  0  0  0  0  0  0  0  0  0  0  0
   -2.6087    3.2702    0.0000 O   0  0  0  0  0  0  0  0  0  0  0  0
   -0.0150   -2.7300    0.0000 O   0  0  0  0  0  0  0  0  0  0  0  0
    2.6086   -1.2208    0.0000 O   0  0  0  0  0  0  0  0  0  0  0  0
    2.6064    1.7745    0.0000 O   0  0  0  0  0  0  0  0  0  0  0  0
   -0.0100    1.7700    0.0000 O   0  0  0  0  0  0  0  0  0  0  0  0
  6  5  1  1
  7  6  1  0
  8  7  1  0
  9  8  1  0
 10  9  1  0
  7 11  1  6
 12  1  1  0
 12  5  1  0
 13  2  1  0
  8 13  1  1
 14  3  1  0
  9 14  1  6
 15  4  1  0
 10 15  1  6
 16  6  1  0
 16 10  1  0
M  END
>  <NAME>  (4240) 
METHYL 2,3,6-TRI-O-METHYLGLUCOPYRANOSIDE

>  <SYNONYMS>  (4240) 


>  <SPECTRUM TYPE>  (4240) 
MS1

>  <INSTRUMENT TYPE>  (4240) 
EI-B

>  <INSTRUMENT>  (4240) 
SHIMADZU LKB-9000B

>  <ION MODE>  (4240) 
P

>  <INCHIKEY>  (4240) 
WMAJFVGSEYZPMZ-SPFKKGSWSA-N

>  <FORMULA>  (4240) 
C10H20O6

>  <EXACT MASS>  (4240) 
236.12598835999998

>  <MW>  (4240) 
236

>  <ID>  (4240) 
JP004537

>  <CONTRIBUTOR>  (4240) 
University of Tokyo Team, {Faculty of Engineering, University of Tokyo

>  <COMMENT>  (4240) 
SMILES=COCC(O1)C(O)C(OC)C(OC)C(OC)1
cas=23009-68-9
InChI=InChI=1S/C10H20O6/c1-12-5-6-7(11)8(13-2)9(14-3)10(15-4)16-6/h6-11H,5H2,1-4H3/t6-,7-,8+,9-,10+/m1/s1
computed SMILES=OC1C(OC(OC)C(OC)C1OC)COC
accession=JP004537
date=2016.01.19 (Created 2008.10.21, modified 2011.05.06)
author=HAYASHI A, DEPT. OF CHEMISTRY, FAC. OF SCI. AND TECHNOLOGY, KINKI UNIV.
license=CC BY-NC-SA
exact mass=236.12599
ionization energy=70 eV
ion type=[M]+*
computed spectral entropy=2.5217791724913945
computed normalized entropy=0.6624646075842541
SPLASH=splash10-002r-9000000000-06f16f7d20f8a2c67a66
submitter=submitter = University of Tokyo Team (Faculty of Engineering, University of Tokyo)
MoNA Rating=3.75

>  <NUM PEAKS>  (4240) 
45

>  <MASS SPECTRAL PEAKS>  (4240) 
41 7
42 2.5
43 7.2
44 0.09
45 44.8
47 0.8
53 0.8
55 0.39
56 1.9
57 6.3
58 7.3
59 0.71
60 0.8
61 2.5
69 3
70 0.13
71 18.8
72 0.8
73 21.4
74 1.27
75 66
76 1
81 1
83 0.09
84 2.1
85 13.2
87 13.6
88 99.99
89 8
97 0.5
99 5.1
101 2.01
102 0.6
111 1.1
113 2.4
115 0.1
117 0.6
118 1.3
127 1.3
130 0.64
131 0.4
144 1.9
159 0.5
161 0.81
173 2.7

>  <PREDICTED SPECTRUM>  (4240) 
41 66
43 144
44 16
45 574
53 20
55 98
57 157
58 95
59 318
60 68
61 190
69 113
71 372
73 495
74 504
75 762
76 93
81 19
85 267
87 482
88 999
89 381
90 42
99 174
101 636
102 175
103 172
111 209
113 194
115 49
117 138
127 82
131 167
134 38
144 115
145 85
159 240
160 126
161 647
162 97
173 155
177 5
191 2
205 7
206 6

$$$$

     RDKit          2D

 13 13  0  0  1  0  0  0  0  0999 V2000
   -2.6089    1.7702    0.0000 C   0  0  0  0  0  0  0  0  0  0  0  0
    3.9081   -0.4716    0.0000 C   0  0  0  0  0  0  0  0  0  0  0  0
    2.6013    3.2745    0.0000 C   0  0  0  0  0  0  0  0  0  0  0  0
   -1.3100    1.0200    0.0000 C   0  0  0  0  0  0  0  0  0  0  0  0
   -1.3100   -0.4700    0.0000 C   0  0  0  0  0  0  0  0  0  0  0  0
   -0.0100   -1.2300    0.0000 C   0  0  0  0  0  0  0  0  0  0  0  0
    1.3100   -0.4700    0.0000 C   0  0  0  0  0  0  0  0  0  0  0  0
    1.3100    1.0200    0.0000 C   0  0  0  0  0  0  0  0  0  0  0  0
   -2.6111   -1.2165    0.0000 O   0  0  0  0  0  0  0  0  0  0  0  0
   -0.0150   -2.7300    0.0000 O   0  0  0  0  0  0  0  0  0  0  0  0
    2.6086   -1.2208    0.0000 O   0  0  0  0  0  0  0  0  0  0  0  0
    2.6064    1.7745    0.0000 O   0  0  0  0  0  0  0  0  0  0  0  0
   -0.0100    1.7700    0.0000 O   0  0  0  0  0  0  0  0  0  0  0  0
  4  1  1  1
  5  4  1  0
  6  5  1  0
  7  6  1  0
  8  7  1  0
  5  9  1  1
  6 10  1  1
 11  2  1  0
  7 11  1  6
 12  3  1  0
  8 12  1  6
 13  4  1  0
 13  8  1  0
M  END
>  <NAME>  (4241) 
METHYL 2-O-METHYLFUCOPYRANOSIDE

>  <SYNONYMS>  (4241) 


>  <SPECTRUM TYPE>  (4241) 
MS1

>  <INSTRUMENT TYPE>  (4241) 
EI-B

>  <INSTRUMENT>  (4241) 
SHIMADZU LKB-9000B

>  <ION MODE>  (4241) 
P

>  <INCHIKEY>  (4241) 
ZIRPXMSHWUAJJI-HNEXDWKRSA-N

>  <FORMULA>  (4241) 
C8H16O5

>  <EXACT MASS>  (4241) 
192.09977361199998

>  <MW>  (4241) 
192

>  <ID>  (4241) 
JP004536

>  <CONTRIBUTOR>  (4241) 
University of Tokyo Team, {Faculty of Engineering, University of Tokyo

>  <COMMENT>  (4241) 
SMILES=COC(O1)C(OC)C(O)C(O)C(C)1
InChI=InChI=1S/C8H16O5/c1-4-5(9)6(10)7(11-2)8(12-3)13-4/h4-10H,1-3H3/t4-,5+,6+,7-,8+/m1/s1
computed SMILES=OC1C(O)C(OC)C(OC)OC1C
accession=JP004536
date=2016.01.19 (Created 2008.10.21, modified 2011.05.06)
author=HAYASHI A, DEPT. OF CHEMISTRY, FAC. OF SCI. AND TECHNOLOGY, KINKI UNIV.
license=CC BY-NC-SA
exact mass=192.09977
ionization energy=70 eV
ion type=[M]+*
computed spectral entropy=2.8239470196509364
computed normalized entropy=0.725610846169307
SPLASH=splash10-05g0-9000000000-c1a6aab3399814688304
submitter=submitter = University of Tokyo Team (Faculty of Engineering, University of Tokyo)
MoNA Rating=3.75

>  <NUM PEAKS>  (4241) 
49

>  <MASS SPECTRAL PEAKS>  (4241) 
41 24.5
42 7.4
43 19
44 0.37
45 36.7
46 0.3
47 1.5
53 0.1
54 0.6
55 10.3
56 3.3
57 1.07
58 39
59 30.4
60 1.8
61 0.39
68 7.3
69 16.8
70 4.4
71 2.91
72 6.6
73 12.5
74 99.99
75 7.88
76 2.7
77 0.2
83 1.7
85 0.52
86 0.3
87 56.2
88 22.5
89 0.31
97 1.2
98 0.3
99 3.9
100 0.81
101 15.9
102 1.4
105 0.3
114 0.2
115 1
117 0.3
128 2.3
129 0.24
130 3.1
131 1
160 1.4
161 1.32
162 1.2

>  <PREDICTED SPECTRUM>  (4241) 
19 1
29 26
31 68
33 64
41 176
42 96
43 225
44 30
45 441
55 170
56 142
57 305
58 403
59 561
60 187
61 296
69 214
70 15
71 318
72 205
73 275
74 999
75 202
83 44
85 211
87 440
88 492
89 0
99 30
101 244
114 33
115 74
117 12
129 34
143 80
161 126

$$$$

     RDKit          2D

 15 15  0  0  1  0  0  0  0  0999 V2000
   -3.9076    4.0204    0.0000 C   0  0  0  0  0  0  0  0  0  0  0  0
   -2.6151   -2.7165    0.0000 C   0  0  0  0  0  0  0  0  0  0  0  0
    3.9081    1.0290    0.0000 C   0  0  0  0  0  0  0  0  0  0  0  0
   -2.6089    1.7702    0.0000 C   0  0  0  0  0  0  0  0  0  0  0  0
   -1.3100    1.0200    0.0000 C   0  0  0  0  0  0  0  0  0  0  0  0
   -0.0100   -1.2300    0.0000 C   0  0  0  0  0  0  0  0  0  0  0  0
    1.3100   -0.4700    0.0000 C   0  0  0  0  0  0  0  0  0  0  0  0
   -1.3100   -0.4700    0.0000 C   0  0  0  0  0  0  0  0  0  0  0  0
    1.3100    1.0200    0.0000 C   0  0  0  0  0  0  0  0  0  0  0  0
   -0.0150   -2.7300    0.0000 O   0  0  0  0  0  0  0  0  0  0  0  0
    2.6086   -1.2208    0.0000 O   0  0  0  0  0  0  0  0  0  0  0  0
   -2.6087    3.2702    0.0000 O   0  0  0  0  0  0  0  0  0  0  0  0
   -2.6111   -1.2165    0.0000 O   0  0  0  0  0  0  0  0  0  0  0  0
    2.6064    1.7745    0.0000 O   0  0  0  0  0  0  0  0  0  0  0  0
   -0.0100    1.7700    0.0000 O   0  0  0  0  0  0  0  0  0  0  0  0
  5  4  1  1
  7  6  1  0
  8  5  1  0
  8  6  1  0
  9  7  1  0
  6 10  1  1
  7 11  1  1
 12  1  1  0
 12  4  1  0
 13  2  1  0
  8 13  1  6
 14  3  1  0
  9 14  1  6
 15  5  1  0
 15  9  1  0
M  END
>  <NAME>  (4242) 
METHYL 4,6-DI-O-METHYLMANNOPYRANOSIDE

>  <SYNONYMS>  (4242) 


>  <SPECTRUM TYPE>  (4242) 
MS1

>  <INSTRUMENT TYPE>  (4242) 
EI-B

>  <INSTRUMENT>  (4242) 
SHIMADZU LKB-9000B

>  <ION MODE>  (4242) 
P

>  <INCHIKEY>  (4242) 
UKSOTSKNRMTYIO-ZEBDFXRSSA-N

>  <FORMULA>  (4242) 
C9H18O6

>  <EXACT MASS>  (4242) 
222.11033829599998

>  <MW>  (4242) 
222

>  <ID>  (4242) 
JP004535

>  <CONTRIBUTOR>  (4242) 
University of Tokyo Team, {Faculty of Engineering, University of Tokyo

>  <COMMENT>  (4242) 
SMILES=COCC(O1)C(OC)C(O)C(O)C(OC)1
InChI=InChI=1S/C9H18O6/c1-12-4-5-8(13-2)6(10)7(11)9(14-3)15-5/h5-11H,4H2,1-3H3/t5-,6-,7+,8-,9+/m1/s1
computed SMILES=OC1C(OC)OC(COC)C(OC)C1O
accession=JP004535
date=2016.01.19 (Created 2008.10.21, modified 2011.05.06)
author=HAYASHI A, DEPT. OF CHEMISTRY, FAC. OF SCI. AND TECHNOLOGY, KINKI UNIV.
license=CC BY-NC-SA
exact mass=222.11034
ionization energy=70 eV
ion type=[M]+*
computed spectral entropy=2.9555766065823397
computed normalized entropy=0.7133672452781911
SPLASH=splash10-00di-9100000000-4c27a89d90f342329fa8
submitter=submitter = University of Tokyo Team (Faculty of Engineering, University of Tokyo)
MoNA Rating=3.75

>  <NUM PEAKS>  (4242) 
63

>  <MASS SPECTRAL PEAKS>  (4242) 
40 2.9
41 21.2
42 7.6
43 1.43
44 3.7
45 97.3
46 1.1
53 0.24
54 0.7
55 7.1
56 5
57 0.99
58 12
59 21.2
60 15.1
61 0.87
68 1.4
69 10.9
70 6.1
71 99.99
72 13
73 13.7
74 95.5
75 3.95
76 1.5
77 1.2
81 2
83 0.16
84 0.6
85 10.1
86 2.3
87 7.46
88 16.3
89 5.8
97 1.5
98 0.12
99 9.8
100 3.2
101 19.5
102 2.58
103 6.1
104 0.7
105 1.6
111 0.25
112 2
113 2.2
114 0.9
115 0.17
116 1.9
117 3.9
118 3.3
119 0.22
127 3.3
129 0.9
130 2.4
131 0.22
135 0.5
145 2
147 1.3
149 1.59
159 2.9
187 0.5
191 0.7

>  <PREDICTED SPECTRUM>  (4242) 
33 58
39 65
41 245
42 246
43 140
44 127
45 779
46 33
47 14
51 1
53 68
54 4
55 314
56 65
57 418
58 375
59 531
60 439
61 239
62 9
68 72
69 267
70 251
71 715
72 213
73 345
74 999
75 553
76 59
77 70
81 21
83 44
84 53
85 252
86 131
87 770
88 501
89 324
95 2
97 95
98 44
99 268
100 138
101 557
102 336
103 242
104 40
105 115
111 111
112 106
113 81
114 41
115 219
116 32
117 281
118 87
119 165
120 38
121 74
122 2
127 53
129 36
130 145
131 255
144 48
145 89
147 136
148 78
149 168
159 116
160 9
161 16
163 21
173 52
177 102
178 15
191 87
192 9
222 90
223 34

$$$$

     RDKit          2D

 14 14  0  0  1  0  0  0  0  0999 V2000
   -4.1581   -0.3004    0.0000 C   0  0  0  0  0  0  0  0  0  0  0  0
    1.0390   -3.3000    0.0000 C   0  0  0  0  0  0  0  0  0  0  0  0
    3.6381   -0.3004    0.0000 C   0  0  0  0  0  0  0  0  0  0  0  0
    2.3387    3.4502    0.0000 C   0  0  0  0  0  0  0  0  0  0  0  0
   -1.5600    1.2000    0.0000 C   0  0  0  0  0  0  0  0  0  0  0  0
   -1.5600   -0.3000    0.0000 C   0  0  0  0  0  0  0  0  0  0  0  0
   -0.2600   -1.0500    0.0000 C   0  0  0  0  0  0  0  0  0  0  0  0
    1.0400   -0.3000    0.0000 C   0  0  0  0  0  0  0  0  0  0  0  0
    1.0400    1.2000    0.0000 C   0  0  0  0  0  0  0  0  0  0  0  0
   -2.8589   -1.0502    0.0000 O   0  0  0  0  0  0  0  0  0  0  0  0
   -0.2600   -2.5500    0.0000 O   0  0  0  0  0  0  0  0  0  0  0  0
    2.3389   -1.0502    0.0000 O   0  0  0  0  0  0  0  0  0  0  0  0
    2.3389    1.9502    0.0000 O   0  0  0  0  0  0  0  0  0  0  0  0
   -0.2600    1.9500    0.0000 O   0  0  0  0  0  0  0  0  0  0  0  0
  6  5  1  0
  7  6  1  0
  8  7  1  0
  9  8  1  0
 10  1  1  0
  6 10  1  6
 11  2  1  0
  7 11  1  1
 12  3  1  0
  8 12  1  6
 13  4  1  0
  9 13  1  1
 14  5  1  0
 14  9  1  0
M  END
>  <NAME>  (4243) 
METHYL 2,3,4-TRI-O-METHYLXYLOPYRANOSIDE

>  <SYNONYMS>  (4243) 


>  <SPECTRUM TYPE>  (4243) 
MS1

>  <INSTRUMENT TYPE>  (4243) 
EI-B

>  <INSTRUMENT>  (4243) 
SHIMADZU LKB-9000B

>  <ION MODE>  (4243) 
P

>  <INCHIKEY>  (4243) 
OQFUMNZJTHPYPI-BZNPZCIMSA-N

>  <FORMULA>  (4243) 
C9H18O5

>  <EXACT MASS>  (4243) 
206.11542367599998

>  <MW>  (4243) 
206

>  <ID>  (4243) 
JP004534

>  <CONTRIBUTOR>  (4243) 
University of Tokyo Team, {Faculty of Engineering, University of Tokyo

>  <COMMENT>  (4243) 
SMILES=COC(C1)C(OC)C(OC)C(OC)O1
InChI=InChI=1S/C9H18O5/c1-10-6-5-14-9(13-4)8(12-3)7(6)11-2/h6-9H,5H2,1-4H3/t6-,7+,8-,9-/m1/s1
computed SMILES=O(C)C1OCC(OC)C(OC)C1OC
accession=JP004534
date=2016.01.19 (Created 2008.10.21, modified 2011.05.06)
author=HAYASHI A, DEPT. OF CHEMISTRY, FAC. OF SCI. AND TECHNOLOGY, KINKI UNIV.
license=CC BY-NC-SA
exact mass=206.11542
ionization energy=70 eV
ion type=[M]+*
computed spectral entropy=2.476831285762537
computed normalized entropy=0.658521538226054
SPLASH=splash10-000i-9100000000-e7974395f523d173965f
submitter=submitter = University of Tokyo Team (Faculty of Engineering, University of Tokyo)
MoNA Rating=3.75

>  <NUM PEAKS>  (4243) 
43

>  <MASS SPECTRAL PEAKS>  (4243) 
41 8.9
42 1.8
43 6.7
44 0.06
45 29.7
46 0.4
47 1.8
53 0.15
54 0.2
55 4.1
56 1.3
57 0.22
58 10.3
59 4.5
61 0.1
68 0.13
69 3
71 7.3
72 0.8
73 3.02
74 3
75 44.2
76 0.7
83 0.31
84 0.2
85 4
87 1.9
88 99.99
89 5.4
98 0.2
99 4.5
101 9.52
102 5.1
103 0.4
105 0.5
111 0.04
114 0.5
115 5.7
116 0.6
131 0.05
143 2.6
175 3.4
176 6.8

>  <PREDICTED SPECTRUM>  (4243) 
41 187
42 91
43 188
44 60
45 452
51 7
53 56
55 188
56 88
57 114
58 271
59 317
68 65
69 165
70 46
71 320
72 48
73 388
74 193
75 660
76 67
83 85
84 15
85 151
87 143
88 737
89 196
99 164
101 999
102 251
103 27
105 56
114 6
115 109
129 45
133 3
134 10
143 33
147 20
175 111
176 118

$$$$

     RDKit          2D

 13 13  0  0  1  0  0  0  0  0999 V2000
   -1.5590   -3.3000    0.0000 C   0  0  0  0  0  0  0  0  0  0  0  0
    3.6381   -0.3004    0.0000 C   0  0  0  0  0  0  0  0  0  0  0  0
    2.3387    3.4502    0.0000 C   0  0  0  0  0  0  0  0  0  0  0  0
   -1.5600    1.2000    0.0000 C   0  0  0  0  0  0  0  0  0  0  0  0
   -1.5600   -0.3000    0.0000 C   0  0  0  0  0  0  0  0  0  0  0  0
   -0.2600   -1.0500    0.0000 C   0  0  0  0  0  0  0  0  0  0  0  0
    1.0400   -0.3000    0.0000 C   0  0  0  0  0  0  0  0  0  0  0  0
    1.0400    1.2000    0.0000 C   0  0  0  0  0  0  0  0  0  0  0  0
   -2.8589   -1.0502    0.0000 O   0  0  0  0  0  0  0  0  0  0  0  0
   -0.2600   -2.5500    0.0000 O   0  0  0  0  0  0  0  0  0  0  0  0
    2.3389   -1.0502    0.0000 O   0  0  0  0  0  0  0  0  0  0  0  0
    2.3389    1.9502    0.0000 O   0  0  0  0  0  0  0  0  0  0  0  0
   -0.2600    1.9500    0.0000 O   0  0  0  0  0  0  0  0  0  0  0  0
  5  4  1  0
  6  5  1  0
  7  6  1  0
  8  7  1  0
  5  9  1  6
 10  1  1  0
  6 10  1  1
 11  2  1  0
  7 11  1  6
 12  3  1  0
  8 12  1  6
 13  4  1  0
 13  8  1  0
M  END
>  <NAME>  (4244) 
METHYL 2,3-DI-O-METHYLXYLOPYRANOSIDE

>  <SYNONYMS>  (4244) 


>  <SPECTRUM TYPE>  (4244) 
MS1

>  <INSTRUMENT TYPE>  (4244) 
EI-B

>  <INSTRUMENT>  (4244) 
SHIMADZU LKB-9000B

>  <ION MODE>  (4244) 
P

>  <INCHIKEY>  (4244) 
XOUFXMJHIWGWKK-CWKFCGSDSA-N

>  <FORMULA>  (4244) 
C8H16O5

>  <EXACT MASS>  (4244) 
192.099773612

>  <MW>  (4244) 
192

>  <ID>  (4244) 
JP004533

>  <CONTRIBUTOR>  (4244) 
University of Tokyo Team, {Faculty of Engineering, University of Tokyo

>  <COMMENT>  (4244) 
SMILES=COC(O1)C(OC)C(OC)C(O)C1
InChI=InChI=1S/C8H16O5/c1-10-6-5(9)4-13-8(12-3)7(6)11-2/h5-9H,4H2,1-3H3/t5-,6+,7-,8+/m1/s1
computed SMILES=OC1COC(OC)C(OC)C1OC
accession=JP004533
date=2016.01.19 (Created 2008.10.21, modified 2011.05.06)
author=HAYASHI A, DEPT. OF CHEMISTRY, FAC. OF SCI. AND TECHNOLOGY, KINKI UNIV.
license=CC BY-NC-SA
exact mass=192.09977
ionization energy=70 eV
ion type=[M]+*
computed spectral entropy=2.2338244303813974
computed normalized entropy=0.6334645634749855
SPLASH=splash10-000i-9100000000-43708f4a926dcf7996e3
submitter=submitter = University of Tokyo Team (Faculty of Engineering, University of Tokyo)
MoNA Rating=3.75

>  <NUM PEAKS>  (4244) 
34

>  <MASS SPECTRAL PEAKS>  (4244) 
45 16.9
47 0.8
53 1.1
55 0.43
56 0.6
57 4.3
59 5.1
67 0.07
69 1.3
71 3.8
72 11.7
73 1.84
74 2.4
75 38.4
76 0.6
83 0.06
85 3.2
88 99.99
89 5.7
97 0.25
99 1
101 24.6
102 1
111 0.04
114 0.8
115 0.2
119 2.8
129 0.75
131 2.9
176 2.3
410 7.8
420 1.6
430 7.3
440 0.06

>  <PREDICTED SPECTRUM>  (4244) 
33 12
41 97
43 41
45 513
51 9
53 30
55 117
57 208
58 122
59 317
60 63
61 43
68 1
69 253
71 326
73 475
74 904
75 754
76 124
85 369
87 547
88 999
89 101
99 74
100 138
101 793
102 23
114 29
115 61
129 189
130 39
133 29
161 356
162 71
192 7

$$$$

     RDKit          2D

 29 28  0  0  1  0  0  0  0  0999 V2000
  -19.9611   11.7255    0.0000 C   0  0  0  0  0  0  0  0  0  0  0  0
    3.9707    9.6764    0.0000 C   0  0  0  0  0  0  0  0  0  0  0  0
    6.0197   10.2255    0.0000 C   0  0  0  0  0  0  0  0  0  0  0  0
    5.4707   12.2745    0.0000 C   0  0  0  0  0  0  0  0  0  0  0  0
    0.0736    7.4264    0.0000 C   0  0  0  0  0  0  0  0  0  0  0  0
    2.1226    7.9755    0.0000 C   0  0  0  0  0  0  0  0  0  0  0  0
    1.5736   10.0245    0.0000 C   0  0  0  0  0  0  0  0  0  0  0  0
  -18.6620   10.9755    0.0000 C   0  0  0  0  0  0  0  0  0  0  0  0
  -17.3630   11.7255    0.0000 C   0  0  0  0  0  0  0  0  0  0  0  0
  -16.0639   10.9755    0.0000 C   0  0  0  0  0  0  0  0  0  0  0  0
  -14.7649   11.7255    0.0000 C   0  0  0  0  0  0  0  0  0  0  0  0
  -13.4659   10.9755    0.0000 C   0  0  0  0  0  0  0  0  0  0  0  0
  -12.1668   11.7255    0.0000 C   0  0  0  0  0  0  0  0  0  0  0  0
  -10.8678   10.9755    0.0000 C   0  0  0  0  0  0  0  0  0  0  0  0
   -9.5687   11.7255    0.0000 C   0  0  0  0  0  0  0  0  0  0  0  0
   -8.2697   10.9755    0.0000 C   0  0  0  0  0  0  0  0  0  0  0  0
   -6.9707   11.7255    0.0000 C   0  0  0  0  0  0  0  0  0  0  0  0
   -5.6716   10.9755    0.0000 C   0  0  0  0  0  0  0  0  0  0  0  0
   -4.3726   11.7255    0.0000 C   0  0  0  0  0  0  0  0  0  0  0  0
   -3.0736   10.9755    0.0000 C   0  0  0  0  0  0  0  0  0  0  0  0
   -1.7745   11.7255    0.0000 C   0  0  0  0  0  0  0  0  0  0  0  0
    2.1226   10.9755    0.0000 C   0  0  0  0  0  0  0  0  0  0  0  0
    0.8236   11.7255    0.0000 C   0  0  0  0  0  0  0  0  0  0  0  0
   -0.4755   10.9755    0.0000 C   0  0  0  0  0  0  0  0  0  0  0  0
    0.8236   13.2255    0.0000 N   0  0  0  0  0  0  0  0  0  0  0  0
    3.4216   11.7255    0.0000 O   0  0  0  0  0  0  0  0  0  0  0  0
   -0.4755    9.4755    0.0000 O   0  0  0  0  0  0  0  0  0  0  0  0
    4.7207   10.9755    0.0000 Si  0  0  0  0  0  4  0  0  0  0  0  0
    0.8236    8.7255    0.0000 Si  0  0  0  0  0  4  0  0  0  0  0  0
  8  1  1  0
  9  8  1  0
 10  9  1  0
 11 10  1  0
 12 11  1  0
 13 12  1  0
 14 13  1  0
 15 14  1  0
 16 15  1  0
 17 16  1  0
 18 17  1  0
 19 18  1  0
 20 19  1  0
 21 20  1  0
 23 22  1  0
 24 21  1  6
 24 23  1  0
 23 25  1  1
 26 22  1  0
 24 27  1  0
 28  2  1  0
 28  3  1  0
 28  4  1  0
 28 26  1  0
 29  5  1  0
 29  6  1  0
 29  7  1  0
 29 27  1  0
M  END
>  <NAME>  (4245) 
1,3-DI-O-TRIMETHYLSILYLOCTADECASPHINGANINE

>  <SYNONYMS>  (4245) 


>  <SPECTRUM TYPE>  (4245) 
MS1

>  <INSTRUMENT TYPE>  (4245) 
EI-B

>  <INSTRUMENT>  (4245) 
SHIMADZU LKB-9000B

>  <ION MODE>  (4245) 
P

>  <INCHIKEY>  (4245) 
NWWZXRAARCRWNA-BJKOFHAPSA-N

>  <FORMULA>  (4245) 
C24H55NO2Si2

>  <EXACT MASS>  (4245) 
445.37713306

>  <MW>  (4245) 
445

>  <ID>  (4245) 
JP004532

>  <CONTRIBUTOR>  (4245) 
University of Tokyo Team, {Faculty of Engineering, University of Tokyo

>  <COMMENT>  (4245) 
SMILES=CCCCCCCCCCCCCCCC([H])(O[Si](C)(C)C)C([H])(N)CO[Si](C)(C)C
InChI=InChI=1S/C24H55NO2Si2/c1-8-9-10-11-12-13-14-15-16-17-18-19-20-21-24(27-29(5,6)7)23(25)22-26-28(2,3)4/h23-24H,8-22,25H2,1-7H3/t23-,24+/m0/s1
computed SMILES=O(CC(N)C(O[Si](C)(C)C)CCCCCCCCCCCCCCC)[Si](C)(C)C
accession=JP004532
date=2016.01.19 (Created 2008.10.21, modified 2011.05.06)
author=HAYASHI A, DEPT. OF CHEMISTRY, FAC. OF SCI. AND TECHNOLOGY, KINKI UNIV.
license=CC BY-NC-SA
exact mass=445.37713
ionization energy=70 eV
ion type=[M]+*
computed spectral entropy=3.6509560340248957
computed normalized entropy=0.7549096815008153
SPLASH=splash10-001i-8902000000-a1a5db79576031966009
submitter=submitter = University of Tokyo Team (Faculty of Engineering, University of Tokyo)
MoNA Rating=3.75

>  <NUM PEAKS>  (4245) 
126

>  <MASS SPECTRAL PEAKS>  (4245) 
30 3.6
36 1.5
39 2.6
41 1.14
42 3.4
43 16.9
44 1.7
45 0.65
47 2.4
53 1.5
54 2.6
55 1.09
56 5.5
57 9.9
58 1.6
59 0.42
60 1.3
61 2
66 1.3
67 0.51
68 4.2
69 8.1
70 3.8
71 0.39
72 2.2
73 49.8
74 7.2
75 3.24
76 3.3
77 1.9
79 1.5
80 0.14
81 4.7
82 5.6
84 2.9
86 0.12
88 1.8
89 1.9
91 2
93 0.25
94 1.2
95 4.2
96 4.5
97 0.46
98 1.7
99 1.4
100 2.1
101 0.27
102 2.2
103 5.6
104 1.2
105 0.11
107 1.1
108 1.1
109 2.1
110 0.19
111 2.1
112 1.4
113 1.3
114 0.15
115 3.9
116 19.3
117 2.8
118 0.14
123 1.2
124 1.4
125 1.1
126 0.09
128 1.6
129 13.7
130 3.2
131 0.75
132 99.99
133 12.1
134 4.4
135 0.1
138 1.1
142 1.4
143 2.3
144 0.2
145 1.3
147 4.1
148 1.3
149 0.14
155 1.1
158 1
171 1
185 0.12
204 1.3
207 0.9
217 1.5
218 0.09
219 0.9
221 0.8
222 1.1
233 0.08
234 1
240 1
250 0.9
252 0.22
253 0.9
266 1
269 0.7
281 0.05
297 1.8
298 0.7
299 0.8
307 0.07
309 0.9
311 0.8
312 1.1
313 0.57
314 1.9
315 0.8
324 1.2
325 0.11
326 1.7
327 0.8
340 2.4
341 0.15
342 17
343 17
344 4.8
354 0.07
401 10
430 1.1

>  <PREDICTED SPECTRUM>  (4245) 
27 24
29 15
39 54
40 23
41 172
42 113
43 219
44 259
45 132
46 75
47 115
51 36
52 21
53 65
54 87
55 189
56 176
57 274
58 85
59 141
60 118
61 130
63 2
64 33
65 46
66 48
67 119
68 99
69 274
70 83
71 150
72 93
73 708
74 238
75 366
76 78
77 98
78 26
79 61
80 31
81 127
82 101
83 192
84 99
85 98
86 82
87 62
88 82
89 146
90 21
91 84
92 20
93 76
94 29
95 144
96 118
97 220
98 101
99 133
100 67
101 122
102 149
103 221
104 90
105 62
106 35
107 56
108 40
109 112
110 55
111 100
112 51
113 67
114 61
115 173
116 512
117 195
118 125
119 54
120 53
121 33
122 4
124 35
125 56
127 27
128 16
129 206
130 122
131 212
132 999
133 350
134 206
135 85
137 25
138 29
140 6
142 27
143 80
144 76
145 91
146 92
147 300
148 92
149 86
154 42
155 21
156 18
157 55
158 43
159 17
160 30
161 22
162 20
163 12
165 13
166 31
167 9
168 16
169 31
170 10
171 39
172 41
178 22
179 21
180 18
181 34
184 51
190 1
195 4
197 1
201 3
206 25
207 40
208 48
209 37
210 80
212 63
213 2
218 57
219 1
225 45
234 60
247 15
250 60
252 58
253 96
254 18
255 10
266 4
311 162
312 170
313 69
314 137
326 94
327 33
340 199
341 152
342 180
343 280
344 106
351 2
356 26
401 114
416 19
426 73
430 97
431 4
445 20
446 4

$$$$

     RDKit          2D

 10 10  0  0  0  0  0  0  0  0999 V2000
   -2.6818    2.7673    0.0000 C   0  0  0  0  0  0  0  0  0  0  0  0
   -0.5936    2.5218    0.0000 C   0  0  0  0  0  0  0  0  0  0  0  0
    0.7500    1.0300    0.0000 C   0  0  0  0  0  0  0  0  0  0  0  0
   -1.2100   -0.3900    0.0000 C   0  0  0  0  0  0  0  0  0  0  0  0
   -2.2174    1.3410    0.0000 C   0  0  0  0  0  0  0  0  0  0  0  0
    1.2100   -0.3900    0.0000 C   0  0  0  0  0  0  0  0  0  0  0  0
   -0.7500    1.0300    0.0000 C   0  0  0  0  0  0  0  0  0  0  0  0
   -3.2204    0.2257    0.0000 O   0  0  0  0  0  0  0  0  0  0  0  0
    2.6377   -0.8500    0.0000 O   0  0  0  0  0  0  0  0  0  0  0  0
   -0.0000   -1.2800    0.0000 O   0  0  0  0  0  0  0  0  0  0  0  0
  5  1  1  0
  6  3  1  0
  7  2  1  0
  7  3  1  0
  7  4  1  0
  7  5  1  0
  8  5  2  0
  9  6  2  0
 10  4  1  0
 10  6  1  0
M  END
>  <NAME>  (4246) 
3-ACETYL-3-METHYL-GAMMA-BUTYROLACTONE

>  <SYNONYMS>  (4246) 


>  <SPECTRUM TYPE>  (4246) 
MS1

>  <INSTRUMENT TYPE>  (4246) 
EI-B

>  <INSTRUMENT>  (4246) 
HITACHI RMU-6E

>  <ION MODE>  (4246) 
P

>  <INCHIKEY>  (4246) 
ZKYRRHDKDZNOQB-UHFFFAOYSA-N

>  <FORMULA>  (4246) 
C7H10O3

>  <EXACT MASS>  (4246) 
142.06299417999998

>  <MW>  (4246) 
142

>  <ID>  (4246) 
JP004531

>  <CONTRIBUTOR>  (4246) 
University of Tokyo Team, {Faculty of Engineering, University of Tokyo

>  <COMMENT>  (4246) 
SMILES=CC(=O)C(C)(C1)CC(=O)O1
InChI=InChI=1S/C7H10O3/c1-5(8)7(2)3-6(9)10-4-7/h3-4H2,1-2H3
computed SMILES=O=C1OCC(C(=O)C)(C)C1
accession=JP004531
date=2016.01.19 (Created 2008.10.21, modified 2011.05.06)
license=CC BY-NC-SA
author=MASS SPECTROSCOPY SOC. OF JAPAN (MSSJ)
exact mass=142.06299
ionization energy=70 eV
ion type=[M]+*
computed spectral entropy=2.952667224391634
computed normalized entropy=0.6611571814605908
SPLASH=splash10-0f6x-9300000000-a5f2ef220248cf540cf8
submitter=submitter = University of Tokyo Team (Faculty of Engineering, University of Tokyo)
MoNA Rating=3.75

>  <NUM PEAKS>  (4246) 
87

>  <MASS SPECTRAL PEAKS>  (4246) 
25 0.3
26 3.1
27 13.6
28 0.7
29 10.4
30 0.9
31 3.2
32 0.15
37 0.9
38 2.2
39 19.4
40 0.4
41 29.6
42 6
43 96
44 0.35
45 2.2
50 2
51 2.7
52 0.12
53 6
54 8
55 36.6
56 0.88
57 2.9
58 3.1
59 2.4
60 0.03
61 0.2
65 0.8
66 0.7
67 0.28
68 2.5
69 19.6
70 1.7
71 0.32
72 1.5
73 1.5
74 0.3
75 0.02
77 0.4
78 0.1
79 0.8
80 0.02
81 2.2
82 12.8
83 6.2
84 0.11
85 15
86 8
87 0.6
88 0.04
91 0.3
93 0.3
95 0.8
96 0.26
97 4.3
98 1.9
99 28.4
100 99.99
101 6.2
102 0.7
103 0.1
107 0.02
108 0.2
109 0.9
110 4.4
111 0.92
112 0.9
113 1
114 0.7
115 0.02
121 0.2
122 0.1
123 0.2
124 0.06
125 0.2
126 0.1
127 0.4
128 0.09
129 0.2
130 0.1
140 0.2
141 0.06
142 5
143 1.6
144 0.3

>  <PREDICTED SPECTRUM>  (4246) 
14 17
15 36
16 0
17 1
26 61
27 173
28 65
29 143
31 46
36 6
37 15
38 80
39 285
40 150
41 396
42 213
43 757
44 142
45 101
46 8
47 52
49 15
50 73
51 117
52 70
53 245
54 148
55 512
56 173
57 173
58 68
59 207
60 7
63 52
64 27
65 113
66 83
67 251
68 135
69 306
70 119
71 158
72 94
73 56
77 1
79 25
81 117
82 261
83 190
84 154
85 461
86 129
87 70
95 31
96 25
97 150
98 79
99 510
100 999
101 270
102 108
109 35
111 52
112 4
113 98
114 77
115 81
124 52
127 141
128 17
142 186
143 41

$$$$

     RDKit          2D

 36 36  0  0  1  0  0  0  0  0999 V2000
   -0.0980    5.2133    0.0000 C   0  0  0  0  0  0  0  0  0  0  0  0
   -2.1471    4.6642    0.0000 C   0  0  0  0  0  0  0  0  0  0  0  0
   -1.5980    2.6152    0.0000 C   0  0  0  0  0  0  0  0  0  0  0  0
   -4.1968    2.2138    0.0000 C   0  0  0  0  0  0  0  0  0  0  0  0
   -4.7462    0.1649    0.0000 C   0  0  0  0  0  0  0  0  0  0  0  0
   -2.6973   -0.3845    0.0000 C   0  0  0  0  0  0  0  0  0  0  0  0
    3.5993   -0.3845    0.0000 C   0  0  0  0  0  0  0  0  0  0  0  0
    5.6483    0.1649    0.0000 C   0  0  0  0  0  0  0  0  0  0  0  0
    5.0989    2.2138    0.0000 C   0  0  0  0  0  0  0  0  0  0  0  0
   -4.4469   -2.4803    0.0000 C   0  0  0  0  0  0  0  0  0  0  0  0
   -3.4825   -4.1501    0.0000 C   0  0  0  0  0  0  0  0  0  0  0  0
   -1.4924   -3.0007    0.0000 C   0  0  0  0  0  0  0  0  0  0  0  0
    4.5497   -2.8362    0.0000 C   0  0  0  0  0  0  0  0  0  0  0  0
    3.0495   -4.3360    0.0000 C   0  0  0  0  0  0  0  0  0  0  0  0
    1.5497   -2.8357    0.0000 C   0  0  0  0  0  0  0  0  0  0  0  0
   -0.8480   -2.0858    0.0000 C   0  0  0  0  0  0  0  0  0  0  0  0
   -2.1471   -4.3358    0.0000 C   0  0  0  0  0  0  0  0  0  0  0  0
   -0.0980   -4.8848    0.0000 C   0  0  0  0  0  0  0  0  0  0  0  0
    0.4510    1.6642    0.0000 C   0  0  0  0  0  0  0  0  0  0  0  0
   -0.8490    0.9142    0.0000 C   0  0  0  0  0  0  0  0  0  0  0  0
    1.7510    0.9142    0.0000 C   0  0  0  0  0  0  0  0  0  0  0  0
   -0.8490   -0.5858    0.0000 C   0  0  0  0  0  0  0  0  0  0  0  0
    1.7510   -0.5858    0.0000 C   0  0  0  0  0  0  0  0  0  0  0  0
    0.4510   -1.3358    0.0000 C   0  0  0  0  0  0  0  0  0  0  0  0
    0.4510    3.1642    0.0000 O   0  0  0  0  0  0  0  0  0  0  0  0
   -2.1479    1.6645    0.0000 O   0  0  0  0  0  0  0  0  0  0  0  0
    3.0499    1.6645    0.0000 O   0  0  0  0  0  0  0  0  0  0  0  0
   -2.7095   -1.2633    0.0000 O   0  0  0  0  0  0  0  0  0  0  0  0
    3.0499   -1.3360    0.0000 O   0  0  0  0  0  0  0  0  0  0  0  0
    0.4510   -2.8358    0.0000 O   0  0  0  0  0  0  0  0  0  0  0  0
   -0.8480    3.9142    0.0000 Si  0  0  0  0  0  4  0  0  0  0  0  0
   -3.4471    0.9147    0.0000 Si  0  0  0  0  0  4  0  0  0  0  0  0
    4.3491    0.9147    0.0000 Si  0  0  0  0  0  4  0  0  0  0  0  0
   -2.9697   -2.7405    0.0000 Si  0  0  0  0  0  4  0  0  0  0  0  0
    3.0497   -2.8360    0.0000 Si  0  0  0  0  0  4  0  0  0  0  0  0
   -0.8480   -3.5858    0.0000 Si  0  0  0  0  0  4  0  0  0  0  0  0
 20 19  1  0
 21 19  1  0
 22 20  1  0
 23 21  1  0
 24 22  1  0
 24 23  1  0
 19 25  1  6
 20 26  1  1
 21 27  1  6
 22 28  1  6
 23 29  1  6
 24 30  1  1
 31  1  1  0
 31  2  1  0
 31  3  1  0
 31 25  1  0
 32  4  1  0
 32  5  1  0
 32  6  1  0
 32 26  1  0
 33  7  1  0
 33  8  1  0
 33  9  1  0
 33 27  1  0
 34 10  1  0
 34 11  1  0
 34 12  1  0
 34 28  1  0
 35 13  1  0
 35 14  1  0
 35 15  1  0
 35 29  1  0
 36 16  1  0
 36 17  1  0
 36 18  1  0
 36 30  1  0
M  END
>  <NAME>  (4247) 
1,2,3,4,5,6-HEXA-O-TRIMETHELSILYL-MYO-INOSITOL

>  <SYNONYMS>  (4247) 


>  <SPECTRUM TYPE>  (4247) 
MS1

>  <INSTRUMENT TYPE>  (4247) 
EI-B

>  <INSTRUMENT>  (4247) 
SHIMADZU QP-1000

>  <ION MODE>  (4247) 
P

>  <INCHIKEY>  (4247) 
FRTKXRNTVMCAKI-HPEVMFQJSA-N

>  <FORMULA>  (4247) 
C24H60O6Si6

>  <EXACT MASS>  (4247) 
612.30054882

>  <MW>  (4247) 
612

>  <ID>  (4247) 
JP004524

>  <CONTRIBUTOR>  (4247) 
University of Tokyo Team, {Faculty of Engineering, University of Tokyo

>  <COMMENT>  (4247) 
SMILES=C(C1([H])O[Si](C)(C)C)(C(C(C(C1([H])O[Si](C)(C)C)([H])O[Si](C)(C)C)([H])O[Si](C)(C)C)([H])O[Si](C)(C)C)([H])O[Si](C)(C)C
InChI=InChI=1S/C24H60O6Si6/c1-31(2,3)25-19-20(26-32(4,5)6)22(28-34(10,11)12)24(30-36(16,17)18)23(29-35(13,14)15)21(19)27-33(7,8)9/h19-24H,1-18H3/t19-,20-,21-,22+,23-,24-
computed SMILES=O(C1C(O[Si](C)(C)C)C(O[Si](C)(C)C)C(O[Si](C)(C)C)C(O[Si](C)(C)C)C1O[Si](C)(C)C)[Si](C)(C)C
accession=JP004524
date=2016.01.19 (Created 2008.10.21, modified 2011.05.06)
author=SEYAMA Y, DEPT. OF PHYSIOL. CHEMISTRY AND NUTRITION, FAC. OF MEDICINE, UNIV. OF TOKYO
license=CC BY-NC-SA
exact mass=612.30055
ionization energy=70 eV
ion type=[M]+*
computed spectral entropy=3.226100535822251
computed normalized entropy=0.7341308141868178
SPLASH=splash10-066r-4589000000-293e23791a0a68738ecc
submitter=submitter = University of Tokyo Team (Faculty of Engineering, University of Tokyo)
MoNA Rating=3.75

>  <NUM PEAKS>  (4247) 
81

>  <MASS SPECTRAL PEAKS>  (4247) 
72 1.02
73 90.73
74 7.61
75 8.85
76 0.52
81 0.55
93 0.53
101 0.73
103 5.68
104 0.58
117 0.69
129 7.36
130 0.87
131 2.23
133 7.41
134 1.05
135 0.67
143 1.8
147 38.02
148 6.08
149 3.89
157 0.71
161 1.06
175 0.59
177 0.85
189 2.15
190 1.67
191 47.02
192 8.63
193 4.21
194 0.5
203 1
204 19.45
205 4.7
206 1.78
207 1.71
215 0.81
217 99.99
218 20.72
219 9.16
220 1.34
221 6.28
222 1.43
223 0.81
230 1.75
231 1.09
243 1.32
265 23.38
266 5.94
267 3.04
268 0.6
271 0.51
291 5.82
292 1.86
293 3.48
294 0.87
305 93.73
306 27.72
307 14.05
308 2.85
309 0.74
318 51.21
319 22.8
320 9.64
321 2.52
322 0.55
343 1.36
367 5.28
368 1.85
369 1
393 2.67
394 0.97
395 0.56
419 0.7
432 5.21
433 4.28
434 2.1
435 0.81
507 2.36
508 1.16
612 0.59

>  <PREDICTED SPECTRUM>  (4247) 
26 25
27 29
28 54
29 4
37 23
38 24
39 10
41 56
43 82
44 98
45 86
46 38
47 83
48 17
49 19
50 37
52 2
53 30
55 147
56 10
58 23
59 157
60 70
61 45
62 21
63 21
64 23
65 7
66 24
67 4
69 32
71 86
72 112
73 999
74 299
75 300
76 99
77 79
78 8
79 28
81 35
82 29
83 43
85 54
86 15
87 84
88 14
89 94
90 58
91 63
92 29
97 40
98 33
101 63
102 15
103 228
104 28
105 21
110 7
111 18
112 4
113 63
114 2
115 48
116 32
117 142
118 56
119 92
120 3
125 45
126 17
127 17
128 16
129 318
130 53
131 142
132 16
133 182
134 12
135 32
137 14
139 5
143 175
145 52
146 16
147 592
148 225
149 241
150 76
151 38
152 66
153 57
154 39
155 73
156 52
157 61
159 68
160 6
161 150
162 28
163 272
164 128
165 146
166 37
167 92
168 26
169 10
172 17
173 25
174 35
175 122
176 9
177 96
179 50
180 34
181 94
182 56
183 40
185 55
187 19
189 139
190 154
191 477
192 117
193 120
194 55
195 27
196 9
197 50
201 29
202 19
203 118
204 353
205 153
206 66
207 96
209 2
210 54
211 9
213 21
215 87
216 73
217 557
218 169
219 103
220 66
221 131
222 94
223 78
224 55
225 39
228 4
229 62
230 143
231 59
233 72
234 106
235 76
236 83
237 107
238 21
239 20
240 37
241 71
242 37
243 34
245 4
247 24
248 69
249 86
252 16
253 46
255 8
260 16
261 59
262 67
263 175
264 44
265 149
266 64
267 39
268 44
271 14
273 7
274 30
275 13
276 3
277 34
278 72
279 55
280 74
281 88
282 22
288 19
289 61
290 41
291 227
292 169
293 203
294 35
295 40
296 7
299 55
300 59
301 16
302 37
303 109
304 88
305 381
306 220
307 183
308 112
310 13
313 57
315 46
316 75
317 51
318 391
319 248
320 158
321 51
322 12
326 16
327 63
328 42
329 2
330 88
331 114
332 98
333 75
342 47
343 155
344 83
345 82
346 71
347 56
348 0
354 19
355 14
359 54
360 23
363 138
364 13
365 38
374 15
375 65
376 40
377 31
378 4
379 8
387 111
388 46
389 80
390 54
391 35
392 28
393 20
401 11
402 18
404 45
417 64
418 149
419 104
420 62
430 8
431 54
432 178
433 174
434 109
435 42
436 41
439 10
440 15
448 22
464 16
465 22
466 27
467 2
478 17
507 137
508 66
509 28
515 0
539 8
553 8
583 10
599 85
612 46

$$$$

     RDKit          2D

 15 15  0  0  0  0  0  0  0  0999 V2000
    2.9674    1.1803    0.0000 C   0  0  0  0  0  0  0  0  0  0  0  0
    2.9679    2.6812    0.0000 C   0  0  0  0  0  0  0  0  0  0  0  0
    1.6679    0.4295    0.0000 C   0  0  0  0  0  0  0  0  0  0  0  0
    1.6688    3.4312    0.0000 C   0  0  0  0  0  0  0  0  0  0  0  0
    0.3688    1.1795    0.0000 C   0  0  0  0  0  0  0  0  0  0  0  0
   -0.9297    3.4303    0.0000 C   0  0  0  0  0  0  0  0  0  0  0  0
    0.0344    4.5794    0.0000 H   0  0  0  0  0  0  0  0  0  0  0  0
   -1.8939    4.5794    0.0000 H   0  0  0  0  0  0  0  0  0  0  0  0
   -2.2288    2.6803    0.0000 C   0  0  0  0  0  0  0  0  0  0  0  0
   -3.1930    1.5313    0.0000 H   0  0  0  0  0  0  0  0  0  0  0  0
   -1.2646    1.5313    0.0000 H   0  0  0  0  0  0  0  0  0  0  0  0
   -4.8268    2.6803    0.0000 C   0  0  0  0  0  0  0  0  0  0  0  0
    0.3693    2.6803    0.0000 C   0  0  0  0  0  0  0  0  0  0  0  0
   -3.5278    3.4303    0.0000 N   0  0  0  0  0  0  0  0  0  0  0  0
   -6.1259    1.9303    0.0000 S   0  0  0  0  0  0  0  0  0  0  0  0
  6  7  1  0
  6  8  1  0
  9 10  1  0
  9 11  1  0
  2  1  2  0
  3  1  1  0
  4  2  1  0
  5  3  2  0
  9  6  1  0
 13  4  2  0
 13  5  1  0
 13  6  1  0
 14  9  1  0
 14 12  2  0
 15 12  2  0
M  ISO  4   7   2   8   2  10   2  11   2
M  END
>  <NAME>  (4248) 
1-ISOTHIOCYANATO-2-PHENYLETHANE (1,1,2,2-D4)

>  <SYNONYMS>  (4248) 


>  <SPECTRUM TYPE>  (4248) 
MS1

>  <INSTRUMENT TYPE>  (4248) 
EI-B

>  <INSTRUMENT>  (4248) 
SHIMADZU QP-1000

>  <ION MODE>  (4248) 
P

>  <INCHIKEY>  (4248) 
IZJDOKYDEWTZSO-KXGHAPEVSA-N

>  <FORMULA>  (4248) 
C9H9NS

>  <EXACT MASS>  (4248) 
167.070677272

>  <MW>  (4248) 
167

>  <ID>  (4248) 
JP004523

>  <CONTRIBUTOR>  (4248) 
University of Tokyo Team, {Faculty of Engineering, University of Tokyo

>  <COMMENT>  (4248) 
SMILES=S=C=NC([2H])([2H])C([2H])([2H])c(c1)cccc1
InChI=InChI=1S/C9H9NS/c11-8-10-7-6-9-4-2-1-3-5-9/h1-5H,6-7H2/i6D2,7D2
computed SMILES=[H]C([H])(N=C=S)C([H])([H])C=1C=CC=CC1
accession=JP004523
date=2016.01.19 (Created 2008.10.21, modified 2011.05.06)
author=SEYAMA Y, DEPT. OF PHYSIOL. CHEMISTRY AND NUTRITION, FAC. OF MEDICINE, UNIV. OF TOKYO
license=CC BY-NC-SA
exact mass=163.04557
ionization energy=70 eV
ion type=[M]+*
computed spectral entropy=2.718886897281237
computed normalized entropy=0.7142442768666062
SPLASH=splash10-0006-9300000000-dce10ef46bd36fa88995
submitter=submitter = University of Tokyo Team (Faculty of Engineering, University of Tokyo)
MoNA Rating=3.75

>  <NUM PEAKS>  (4248) 
45

>  <MASS SPECTRAL PEAKS>  (4248) 
39 5.56
40 7.06
41 5.52
42 0.94
43 2.55
44 0.72
46 1.73
50 2.51
51 6.73
52 3.71
53 2.78
54 1.17
58 0.72
63 1.58
64 3.04
65 2.75
66 8.18
67 7.64
68 1.07
74 5.45
76 0.89
77 1.88
78 2.31
79 4.72
80 4.55
81 2.51
82 3.99
83 2.47
90 1.02
91 1.69
92 2.24
93 99.99
94 7.88
105 1.05
106 2.04
107 2.09
108 1.02
109 13.45
110 1.41
137 1.34
151 0.92
166 2
167 48.11
168 5.45
169 2.91

>  <PREDICTED SPECTRUM>  (4248) 
26 54
27 80
28 42
32 5
37 20
38 32
39 146
40 18
41 43
42 52
43 33
49 40
50 159
51 229
52 154
53 109
54 138
55 145
56 48
57 72
58 34
60 34
61 54
62 90
63 201
64 116
65 153
66 75
67 124
68 133
69 134
70 179
71 117
72 61
73 1
74 140
75 117
76 110
77 192
78 167
79 123
80 134
81 153
82 182
83 247
84 219
85 143
86 101
87 54
89 65
90 105
91 201
92 85
93 102
94 74
95 135
96 164
97 228
98 120
99 80
100 2
102 33
105 32
106 150
107 177
108 165
109 206
110 242
111 207
112 158
113 124
114 81
115 297
116 216
117 20
118 68
119 218
120 31
122 23
123 131
124 160
125 7
126 81
134 107
135 157
136 81
137 137
138 176
139 132
140 84
148 76
149 117
150 102
151 180
152 73
153 5
165 46
166 149
167 999
168 396
169 317
170 13

$$$$

     RDKit          2D

 18 18  0  0  0  0  0  0  0  0999 V2000
    4.5818    1.4829    0.0000 C   0  0  0  0  0  0  0  0  0  0  0  0
   -0.6153   -0.0184    0.0000 C   0  0  0  0  0  0  0  0  0  0  0  0
   -1.9145   -0.7682    0.0000 H   0  0  0  0  0  0  0  0  0  0  0  0
    0.6837   -0.7684    0.0000 C   0  0  0  0  0  0  0  0  0  0  0  0
    0.6839   -2.2684    0.0000 H   0  0  0  0  0  0  0  0  0  0  0  0
    0.6847    2.2333    0.0000 C   0  0  0  0  0  0  0  0  0  0  0  0
    0.6844    3.7333    0.0000 H   0  0  0  0  0  0  0  0  0  0  0  0
   -1.9139    2.2324    0.0000 C   0  0  0  0  0  0  0  0  0  0  0  0
   -0.9497    3.3815    0.0000 H   0  0  0  0  0  0  0  0  0  0  0  0
   -2.8781    3.3815    0.0000 H   0  0  0  0  0  0  0  0  0  0  0  0
   -0.6148    1.4824    0.0000 C   0  0  0  0  0  0  0  0  0  0  0  0
    1.9832   -0.0176    0.0000 C   0  0  0  0  0  0  0  0  0  0  0  0
    1.9837    1.4833    0.0000 C   0  0  0  0  0  0  0  0  0  0  0  0
   -3.2129    1.4824    0.0000 C   0  0  0  0  0  0  0  0  0  0  0  0
    3.2823   -0.7676    0.0000 O   0  0  0  0  0  0  0  0  0  0  0  0
   -3.2129   -0.0176    0.0000 O   0  0  0  0  0  0  0  0  0  0  0  0
   -4.5120    2.2324    0.0000 O   0  0  0  0  0  0  0  0  0  0  0  0
    3.2829    2.2331    0.0000 O   0  0  0  0  0  0  0  0  0  0  0  0
  2  3  1  0
  4  5  1  0
  6  7  1  0
  8  9  1  0
  8 10  1  0
  4  2  2  0
 11  2  1  0
 11  6  2  0
 11  8  1  0
 12  4  1  0
 13  6  1  0
 13 12  2  0
 14  8  1  0
 15 12  1  0
 16 14  2  0
 17 14  1  0
 18  1  1  0
 18 13  1  0
M  ISO  5   3   2   5   2   7   2   9   2  10   2
M  END
>  <NAME>  (4249) 
4-HYDROXY-3-METHOXYPHENYLACETIC ACID (2,5,6-D3,ALPHA,ALPHA-D2)

>  <SYNONYMS>  (4249) 
HOMOVANILLIC ACID (2,5,6-D3,ALPHA,ALPHA-D2)

>  <SPECTRUM TYPE>  (4249) 
MS1

>  <INSTRUMENT TYPE>  (4249) 
EI-B

>  <INSTRUMENT>  (4249) 
SHIMADZU QP-1000

>  <ION MODE>  (4249) 
P

>  <INCHIKEY>  (4249) 
QRMZSPFSDQBLIX-DVHRWRHBSA-N

>  <FORMULA>  (4249) 
C9H10O4

>  <EXACT MASS>  (4249) 
187.08929253

>  <MW>  (4249) 
187

>  <ID>  (4249) 
JP004522

>  <CONTRIBUTOR>  (4249) 
University of Tokyo Team, {Faculty of Engineering, University of Tokyo

>  <COMMENT>  (4249) 
SMILES=COc(c(O)1)c([2H])c(c([2H])c([2H])1)C([2H])([2H])C(O)=O
InChI=InChI=1S/C9H10O4/c1-13-8-4-6(5-9(11)12)2-3-7(8)10/h2-4,10H,5H2,1H3,(H,11,12)/i2D,3D,4D,5D2
computed SMILES=[H]C1=C(OC)C(O)=C([H])C([H])=C1C([H])([H])C(=O)O
accession=JP004522
date=2016.01.19 (Created 2008.10.21, modified 2011.05.06)
author=SEYAMA Y, DEPT. OF PHYSIOL. CHEMISTRY AND NUTRITION, FAC. OF MEDICINE, UNIV. OF TOKYO
license=CC BY-NC-SA
exact mass=182.05791
ionization energy=70 eV
ion type=[M]+*
computed spectral entropy=3.4572468036147486
computed normalized entropy=0.8478761632911412
SPLASH=splash10-0006-9800000000-def178a40b9d8cc16724
submitter=submitter = University of Tokyo Team (Faculty of Engineering, University of Tokyo)
MoNA Rating=3.75

>  <NUM PEAKS>  (4249) 
59

>  <MASS SPECTRAL PEAKS>  (4249) 
40 8.91
41 23.11
42 19.57
43 19.69
44 10.53
45 17.07
46 1.4
51 1.64
52 5.91
53 8.37
54 20.47
55 11.15
56 6.49
57 13.1
58 5.72
59 1.09
60 4.1
64 1.32
65 1.5
66 2.67
67 2.89
68 5.29
69 12.08
70 12.6
71 12.37
72 3.5
73 4.49
79 1.44
80 3.25
81 7.02
82 7.25
83 6.01
84 2.6
85 2.4
95 1.75
96 1.62
97 3.03
98 6.97
99 11.64
100 3.23
109 2.23
110 3.72
111 4.02
112 2.25
125 1.97
126 7.65
127 14.78
128 4.86
129 1.23
139 1.25
140 9.49
141 51.66
142 99.99
143 9.52
149 1.18
185 3.35
186 16.67
187 32.2
188 3.64

>  <PREDICTED SPECTRUM>  (4249) 
14 15
15 43
16 9
17 39
18 34
25 7
26 61
27 175
28 119
29 105
30 30
31 20
32 37
36 10
37 4
38 44
39 192
40 53
41 217
42 118
43 195
44 193
45 174
46 27
47 52
48 36
49 63
50 114
51 158
52 191
53 219
54 137
55 255
56 120
57 80
58 49
59 25
60 71
61 57
62 69
63 103
64 105
65 162
66 158
67 196
68 214
69 253
70 181
71 51
72 17
74 60
75 74
76 65
77 124
78 156
79 167
80 102
81 109
82 198
83 185
84 127
85 151
86 91
87 52
88 35
89 70
90 59
91 103
92 39
93 56
94 60
95 210
96 186
97 200
98 279
99 247
100 59
101 35
102 57
105 5
108 72
109 134
110 200
111 265
112 189
113 199
114 169
115 270
116 56
117 40
121 56
122 58
123 130
124 80
125 159
126 279
127 187
128 172
129 69
136 23
137 70
138 203
139 201
140 266
141 331
142 169
143 148
144 29
151 21
152 11
153 99
154 524
155 315
156 233
157 99
168 158
169 999
170 366
171 151
172 79
184 22
186 49
187 710
188 197
189 39

$$$$

     RDKit          2D

 36 40  0  0  1  0  0  0  0  0999 V2000
    9.5655    7.2342    0.0000 C   0  0  0  0  0  0  0  0  0  0  0  0
    7.1046    8.0672    0.0000 C   0  0  0  0  0  0  0  0  0  0  0  0
    3.2009    4.6377    0.0000 C   0  0  0  0  0  0  0  0  0  0  0  0
   -1.6125    0.9400    0.0000 C   0  0  0  0  0  0  0  0  0  0  0  0
    2.4507    3.1203    0.0000 C   0  0  0  0  0  0  0  0  0  0  0  0
   -9.3880   -6.5994    0.0000 C   0  0  0  0  0  0  0  0  0  0  0  0
   -8.0871   -7.3479    0.0000 C   0  0  0  0  0  0  0  0  0  0  0  0
   -9.3912   -5.0986    0.0000 C   0  0  0  0  0  0  0  0  0  0  0  0
    6.1427    5.2256    0.0000 C   0  0  0  0  0  0  0  0  0  0  0  0
    7.6137    5.5195    0.0000 C   0  0  0  0  0  0  0  0  0  0  0  0
    5.6618    3.8047    0.0000 C   0  0  0  0  0  0  0  0  0  0  0  0
   -6.7894   -6.5955    0.0000 C   0  0  0  0  0  0  0  0  0  0  0  0
   -8.0935   -4.3462    0.0000 C   0  0  0  0  0  0  0  0  0  0  0  0
   -0.3200   -2.8400    0.0000 C   0  0  0  0  0  0  0  0  0  0  0  0
    1.0100   -2.0900    0.0000 C   0  0  0  0  0  0  0  0  0  0  0  0
    4.5500    0.8800    0.0000 C   0  0  0  0  0  0  0  0  0  0  0  0
    3.7100   -0.3100    0.0000 C   0  0  0  0  0  0  0  0  0  0  0  0
   -4.2000   -0.5600    0.0000 C   0  0  0  0  0  0  0  0  0  0  0  0
   -0.3200    1.6300    0.0000 C   0  0  0  0  0  0  0  0  0  0  0  0
   -2.8900    0.1600    0.0000 C   0  0  0  0  0  0  0  0  0  0  0  0
    1.0100    2.3900    0.0000 C   0  0  0  0  0  0  0  0  0  0  0  0
   -2.8900   -2.8400    0.0000 C   0  0  0  0  0  0  0  0  0  0  0  0
    8.0946    6.9403    0.0000 C   0  0  0  0  0  0  0  0  0  0  0  0
    4.1909    3.5108    0.0000 C   0  0  0  0  0  0  0  0  0  0  0  0
   -6.7926   -5.0947    0.0000 C   0  0  0  0  0  0  0  0  0  0  0  0
   -1.6200   -2.0900    0.0000 C   0  0  0  0  0  0  0  0  0  0  0  0
   -4.2000   -2.0900    0.0000 C   0  0  0  0  0  0  0  0  0  0  0  0
    1.0100   -0.5600    0.0000 C   0  0  0  0  0  0  0  0  0  0  0  0
    3.7100    2.0900    0.0000 C   0  0  0  0  0  0  0  0  0  0  0  0
    2.2800    0.1600    0.0000 C   0  0  0  0  0  0  0  0  0  0  0  0
   -0.3200    0.1600    0.0000 C   0  0  0  0  0  0  0  0  0  0  0  0
   -5.4950   -4.3424    0.0000 C   0  0  0  0  0  0  0  0  0  0  0  0
   -1.6200   -0.5600    0.0000 C   0  0  0  0  0  0  0  0  0  0  0  0
    2.2800    1.6300    0.0000 C   0  0  0  0  0  0  0  0  0  0  0  0
   -4.1946   -5.0900    0.0000 O   0  0  0  0  0  0  0  0  0  0  0  0
   -5.4977   -2.8424    0.0000 O   0  0  0  0  0  0  0  0  0  0  0  0
  7  6  2  0
  8  6  1  0
 10  9  1  0
 11  9  1  0
 12  7  1  0
 13  8  2  0
 15 14  1  0
 17 16  1  0
 20 18  1  0
 21 19  1  0
 23  1  1  0
 23  2  1  0
 23 10  1  0
 24  3  1  6
 24 11  1  0
 25 12  2  0
 25 13  1  0
 26 14  1  1
 26 22  1  0
 27 18  1  0
 27 22  1  0
 28 15  1  0
 29 16  1  0
 29 24  1  0
 30 17  1  0
 30 28  1  0
 31 19  1  0
 31 28  1  0
 32 25  1  0
 33  4  1  1
 33 20  1  0
 33 26  1  0
 33 31  1  0
 34  5  1  1
 34 21  1  0
 34 29  1  0
 34 30  1  0
 35 32  2  0
 27 36  1  6
 36 32  1  0
M  END
>  <NAME>  (4250) 
5-ALPHA-CHOLESTAN-3-ALPHA-YL BENZOATE

>  <SYNONYMS>  (4250) 
EPICHOLESTANYL BENZOATE

>  <SPECTRUM TYPE>  (4250) 
MS1

>  <INSTRUMENT TYPE>  (4250) 
EI-B

>  <INSTRUMENT>  (4250) 
SHIMADZU QP-1000

>  <ION MODE>  (4250) 
P

>  <INCHIKEY>  (4250) 
YVXZAWFNDQLXBU-YVYPUYPBSA-N

>  <FORMULA>  (4250) 
C34H52O2

>  <EXACT MASS>  (4250) 
492.396730904

>  <MW>  (4250) 
492

>  <ID>  (4250) 
JP004520

>  <CONTRIBUTOR>  (4250) 
University of Tokyo Team, {Faculty of Engineering, University of Tokyo

>  <COMMENT>  (4250) 
SMILES=C(C([H])14)C(OC(=O)c(c5)cccc5)CCC1(C)C(C(CC4)3)CCC(C)(C23)C(C(CCCC(C)C)C)CC2
cas=6030-70-2
InChI=InChI=1S/C34H52O2/c1-23(2)10-9-11-24(3)29-16-17-30-28-15-14-26-22-27(36-32(35)25-12-7-6-8-13-25)18-20-33(26,4)31(28)19-21-34(29,30)5/h6-8,12-13,23-24,26-31H,9-11,14-22H2,1-5H3/t24-,26+,27-,28?,29?,30?,31?,33+,34-/m1/s1
computed SMILES=O=C(OC1CCC2(C)C(CCC3C4CCC(C(C)CCCC(C)C)C4(C)CCC32)C1)C=5C=CC=CC5
accession=JP004520
date=2016.01.19 (Created 2008.10.21, modified 2011.05.06)
author=SEYAMA Y, DEPT. OF PHYSIOL. CHEMISTRY AND NUTRITION, FAC. OF MEDICINE, UNIV. OF TOKYO
license=CC BY-NC-SA
exact mass=492.39673
ionization energy=70 eV
ion type=[M]+*
computed spectral entropy=4.322514835714775
computed normalized entropy=0.8559679383945609
SPLASH=splash10-0aou-9842000000-26746f83ca49a65ef28f
submitter=submitter = University of Tokyo Team (Faculty of Engineering, University of Tokyo)
MoNA Rating=3.75

>  <NUM PEAKS>  (4250) 
156

>  <MASS SPECTRAL PEAKS>  (4250) 
39 6.45
40 2.51
41 43.39
42 4.9
43 65.44
44 2.65
50 1.73
51 6.17
53 4.79
54 2.16
55 49.25
56 7.48
57 32.95
58 1.45
65 2.35
66 1.29
67 34.36
68 8.45
69 27.17
70 4.27
71 12.91
76 1.25
77 30.04
78 4.38
79 33.72
80 6.8
81 48.14
82 8.11
83 15.93
84 1.73
85 2.79
91 23.75
92 7.3
93 37.04
94 13.85
95 40.72
96 4.99
97 9.39
104 3.01
105 85.88
106 21.68
107 38.78
108 33.69
109 25.23
110 3.22
111 7.17
115 1.34
117 4.25
118 2.65
119 18.94
120 11.58
121 23.49
122 14.45
123 29.24
124 3.34
125 2.2
127 1
129 1.21
131 6.93
132 2.68
133 17.2
134 14.29
135 21.48
136 7.34
137 4.17
143 1.05
145 14.99
146 5.99
147 32.75
148 10.92
149 13.72
150 2.26
151 2.02
152 1.61
159 9.88
160 7.44
161 15.56
162 9.67
163 6.06
164 1.05
165 1.75
173 9.53
174 4.76
175 7.58
176 6.87
177 3.24
179 1.22
187 6.82
188 5.02
189 5.31
190 1.49
191 1.63
193 1.74
199 1.46
201 22.35
202 7.98
203 7.5
204 1.48
205 1.61
206 1.9
207 1.39
215 99.99
216 48.28
217 23.35
218 3.95
219 2.03
220 1.22
229 3.87
230 19.71
231 9.57
232 1.88
233 1.2
243 1.71
244 2.28
245 2.39
247 2.44
256 2.07
257 22.35
258 4.79
259 1.73
260 3.86
261 2.24
262 7.34
263 1.71
274 3.04
275 3.1
276 1.04
285 1.78
287 1.26
288 1.67
289 1.06
301 2.03
302 1.3
313 1.49
314 2.36
315 2.33
316 10.82
317 2.6
328 2.95
329 2.02
337 3.23
338 1.28
355 38.41
356 10.94
357 1.3
370 72.83
371 27.33
372 4.58
373 0.53
377 0.12
378 0.09
386 0.08
387 0.16
477 0.08
492 0.85
493 0.29

>  <PREDICTED SPECTRUM>  (4250) 
27 24
28 28
29 10
36 8
39 1
40 27
41 374
42 101
43 637
44 67
45 153
49 37
50 35
51 114
52 10
53 166
54 39
55 563
56 156
57 483
58 43
62 1
65 67
66 9
67 391
68 215
69 440
70 168
71 364
73 103
74 38
75 35
76 19
77 296
78 65
79 412
80 144
81 593
82 223
83 381
84 118
85 167
87 46
89 44
91 383
92 136
93 485
94 256
95 564
96 141
97 236
98 66
99 53
101 54
103 16
104 81
105 724
106 397
107 466
108 374
109 335
110 154
111 199
112 62
113 8
115 19
117 151
118 71
119 380
120 155
121 326
122 169
123 312
124 96
125 98
126 10
127 53
131 148
132 14
133 296
134 142
135 366
136 179
137 103
138 97
139 176
141 7
142 21
143 87
144 32
145 206
146 110
147 344
148 194
149 287
150 90
151 27
152 62
153 75
154 71
155 117
156 29
159 212
160 199
161 389
162 309
163 222
164 36
165 55
166 73
167 108
168 164
169 101
171 64
173 167
174 124
175 218
176 194
177 217
178 67
179 98
180 55
181 118
182 65
183 46
184 1
187 162
188 140
189 148
190 49
191 55
192 4
193 80
194 122
195 125
196 75
197 44
199 83
201 400
202 81
203 208
204 73
205 138
206 116
207 198
208 130
209 104
210 2
211 57
212 4
213 55
215 736
216 575
217 447
218 157
219 92
220 61
221 115
222 64
223 85
225 31
228 64
230 242
231 295
232 40
233 113
234 78
235 36
237 95
247 77
248 103
249 45
250 0
257 358
258 71
260 197
261 166
262 189
263 17
265 12
266 6
267 13
270 28
271 49
275 215
276 59
277 13
280 26
283 97
284 34
285 43
301 46
302 45
313 22
314 27
315 82
316 148
317 74
327 99
328 167
337 7
338 75
341 53
343 3
345 5
353 60
355 493
356 273
357 99
368 139
369 153
370 999
371 597
372 270
387 53
405 16
406 115
418 21
492 140
493 149

$$$$

     RDKit          2D

 29 29  0  0  0  0  0  0  0  0999 V2000
    5.4758   -2.8354    0.0000 C   0  0  0  0  0  0  0  0  0  0  0  0
    5.4761   -4.3354    0.0000 C   0  0  0  0  0  0  0  0  0  0  0  0
    6.7752   -5.0852    0.0000 C   0  0  0  0  0  0  0  0  0  0  0  0
    6.7755   -6.5852    0.0000 C   0  0  0  0  0  0  0  0  0  0  0  0
    8.0746   -7.3349    0.0000 C   0  0  0  0  0  0  0  0  0  0  0  0
    8.0749   -8.8349    0.0000 C   0  0  0  0  0  0  0  0  0  0  0  0
    9.3740   -9.5847    0.0000 C   0  0  0  0  0  0  0  0  0  0  0  0
    9.3743  -11.0847    0.0000 C   0  0  0  0  0  0  0  0  0  0  0  0
   10.6734  -11.8345    0.0000 C   0  0  0  0  0  0  0  0  0  0  0  0
   11.9723  -11.0843    0.0000 C   0  0  0  0  0  0  0  0  0  0  0  0
   13.2715  -11.8341    0.0000 C   0  0  0  0  0  0  0  0  0  0  0  0
   14.5704  -11.0839    0.0000 C   0  0  0  0  0  0  0  0  0  0  0  0
   15.8696  -11.8337    0.0000 C   0  0  0  0  0  0  0  0  0  0  0  0
   17.1685  -11.0835    0.0000 C   0  0  0  0  0  0  0  0  0  0  0  0
   18.4676  -11.8333    0.0000 C   0  0  0  0  0  0  0  0  0  0  0  0
   19.7666  -11.0831    0.0000 C   0  0  0  0  0  0  0  0  0  0  0  0
   21.0657  -11.8329    0.0000 C   0  0  0  0  0  0  0  0  0  0  0  0
   22.3646  -11.0827    0.0000 C   0  0  0  0  0  0  0  0  0  0  0  0
   31.4599  -11.8308    0.0000 C   0  0  0  0  0  0  0  0  0  0  0  0
   30.1597  -11.0812    0.0000 C   0  0  0  0  0  0  0  0  0  0  0  0
   23.6638  -11.8325    0.0000 C   0  0  0  0  0  0  0  0  0  0  0  0
   31.4604  -13.3308    0.0000 C   0  0  0  0  0  0  0  0  0  0  0  0
   28.8604  -13.3316    0.0000 C   0  0  0  0  0  0  0  0  0  0  0  0
   27.5608  -11.0818    0.0000 C   0  0  0  0  0  0  0  0  0  0  0  0
   28.8599  -11.8316    0.0000 C   0  0  0  0  0  0  0  0  0  0  0  0
   24.9627  -11.0822    0.0000 C   0  0  0  0  0  0  0  0  0  0  0  0
   30.1607  -14.0812    0.0000 N   0  0  0  0  0  0  0  0  0  0  0  0
   24.9625   -9.5822    0.0000 O   0  0  0  0  0  0  0  0  0  0  0  0
   26.2619  -11.8320    0.0000 O   0  0  0  0  0  0  0  0  0  0  0  0
  2  1  1  0
  3  2  1  0
  4  3  1  0
  5  4  1  0
  6  5  1  0
  7  6  1  0
  8  7  1  0
  8  9  2  0
 10  9  1  0
 11 10  1  0
 12 11  1  0
 13 12  1  0
 14 13  1  0
 15 14  1  0
 16 15  1  0
 17 16  1  0
 18 17  1  0
 20 19  2  0
 21 18  1  0
 22 19  1  0
 25 20  1  0
 25 23  2  0
 25 24  1  0
 26 21  1  0
 27 22  2  0
 27 23  1  0
 28 26  2  0
 29 24  1  0
 29 26  1  0
M  END
>  <NAME>  (4251) 
(3-PYRIDYL)METHYL 12-EICOSENOATE

>  <SYNONYMS>  (4251) 
BETA-PICOLINYL 12-EICOSENOATE

>  <SPECTRUM TYPE>  (4251) 
MS1

>  <INSTRUMENT TYPE>  (4251) 
EI-B

>  <INSTRUMENT>  (4251) 
SHIMADZU QP-1000

>  <ION MODE>  (4251) 
P

>  <INCHIKEY>  (4251) 
RNIJINVRVTTYCR-HJWRWDBZSA-N

>  <FORMULA>  (4251) 
C26H43NO2

>  <EXACT MASS>  (4251) 
401.32937961600004

>  <MW>  (4251) 
401

>  <ID>  (4251) 
JP004518

>  <CONTRIBUTOR>  (4251) 
University of Tokyo Team, {Faculty of Engineering, University of Tokyo

>  <COMMENT>  (4251) 
SMILES=CCCCCCCC([H])=C([H])CCCCCCCCCCC(=O)OCc(c1)cncc1
InChI=InChI=1S/C26H43NO2/c1-2-3-4-5-6-7-8-9-10-11-12-13-14-15-16-17-18-21-26(28)29-24-25-20-19-22-27-23-25/h8-9,19-20,22-23H,2-7,10-18,21,24H2,1H3/b9-8-
computed SMILES=O=C(OCC=1C=NC=CC1)CCCCCCCCCCC=CCCCCCCC
accession=JP004518
license=CC BY-NC-SA
date=2016.01.19 (Created 2008.10.21, modified 2011.05.06)
author=SEYAMA Y, DEPT. OF PHYSIOL. CHEMISTRY AND NUTRITION, FAC. OF MEDICINE, UNIV. OF TOKYO
exact mass=401.32938
ionization energy=70 eV
ion type=[M]+*
computed spectral entropy=3.693504601198905
computed normalized entropy=0.8092074588225314
SPLASH=splash10-052f-9522000000-a6043788890173b2a8b4
submitter=submitter = University of Tokyo Team (Faculty of Engineering, University of Tokyo)
MoNA Rating=3.75

>  <NUM PEAKS>  (4251) 
96

>  <MASS SPECTRAL PEAKS>  (4251) 
54 12.73
55 77.96
56 12.75
57 13.07
64 1.49
65 16.83
66 1.83
67 16.49
68 5.54
69 31.18
70 4.36
71 3.15
79 3.2
81 7.31
82 2.44
83 11.38
84 1.28
85 1.12
91 2.17
92 99.99
93 46.66
94 5.63
95 4.84
97 5
107 1.14
108 55.6
109 18.26
110 8.07
111 1.82
120 1.23
133 2.37
134 1.11
146 1.1
147 1.4
148 1.83
151 31.23
152 3.97
162 1.09
164 58.99
165 8.55
166 1.19
176 1.11
178 8.65
179 2.38
190 1.48
192 3.35
193 2.42
202 1.4
204 2.4
206 11.89
216 1.24
217 1.61
218 2.19
220 12.6
221 2.88
231 1.04
232 2.19
233 1.09
234 11.94
235 2.65
246 1.6
248 8.19
249 1.96
260 1.76
261 1.24
262 8.55
263 2.41
274 2.15
275 1.51
276 9.22
277 1.76
288 2.36
289 1.46
290 3.02
302 3.5
303 2.03
304 1.23
312 1.19
316 7.55
317 2.73
326 1.41
330 22.43
331 5.95
332 1.16
344 17.4
345 4.93
346 1.03
358 5.66
359 2.31
372 3.29
373 1.82
386 1.66
400 6.2
401 17.2
402 5.71
403 1.12

>  <PREDICTED SPECTRUM>  (4251) 
38 5
39 98
40 3
41 102
42 72
43 108
44 9
50 42
51 141
52 136
53 227
54 321
55 697
56 299
57 376
58 71
59 53
60 54
61 29
62 52
63 154
64 160
65 436
66 143
67 395
68 223
69 457
70 196
71 234
72 70
73 41
74 33
75 31
76 16
77 96
78 135
79 239
80 227
81 337
82 181
83 357
84 170
85 154
86 40
87 33
88 26
89 23
90 47
91 164
92 999
93 716
94 207
95 247
96 121
97 235
98 103
99 85
100 28
101 57
102 9
103 25
105 103
106 166
107 126
108 836
109 543
110 273
111 170
112 57
113 45
114 12
115 57
116 18
117 47
118 74
119 81
120 104
121 137
122 59
123 81
124 34
125 114
126 18
127 48
128 23
129 21
130 71
131 29
132 87
133 173
134 111
135 92
136 49
137 83
138 43
139 78
140 4
141 24
142 9
143 21
144 41
145 23
146 100
147 117
148 141
149 91
150 34
151 462
152 183
153 61
154 32
155 23
156 20
157 11
158 37
159 58
160 96
161 94
162 63
164 683
165 248
166 47
167 54
169 16
172 3
173 29
174 79
175 84
176 32
177 73
178 289
179 166
180 15
181 25
183 2
186 28
187 7
188 38
189 24
190 99
191 61
192 228
193 177
194 65
195 7
202 39
203 28
204 114
205 60
206 306
207 162
208 46
209 8
216 56
217 40
218 112
219 53
220 296
221 116
222 16
230 43
231 8
232 143
233 110
234 261
235 120
236 7
242 1
244 32
245 27
246 201
247 116
248 194
249 76
253 34
256 55
258 21
259 4
260 253
261 160
262 185
263 74
265 7
270 3
271 23
272 58
273 32
274 303
275 193
276 245
277 90
278 12
282 25
284 75
286 39
288 291
289 175
290 134
291 60
298 23
300 11
302 336
303 182
304 113
305 30
312 40
316 356
317 182
318 73
326 52
330 398
331 208
332 67
344 356
345 184
346 81
354 9
356 0
358 252
359 138
360 54
372 265
373 159
374 53
382 47
386 126
387 54
400 243
401 401
402 304
403 102
404 44

$$$$

     RDKit          2D

 27 27  0  0  0  0  0  0  0  0999 V2000
   17.4928   -0.3955    0.0000 C   0  0  0  0  0  0  0  0  0  0  0  0
   16.1939   -1.1457    0.0000 C   0  0  0  0  0  0  0  0  0  0  0  0
   16.1941   -2.6457    0.0000 C   0  0  0  0  0  0  0  0  0  0  0  0
   14.8952   -3.3959    0.0000 C   0  0  0  0  0  0  0  0  0  0  0  0
   14.8954   -4.8959    0.0000 C   0  0  0  0  0  0  0  0  0  0  0  0
   13.5965   -5.6461    0.0000 C   0  0  0  0  0  0  0  0  0  0  0  0
   13.5968   -7.1461    0.0000 C   0  0  0  0  0  0  0  0  0  0  0  0
   14.8959   -7.8959    0.0000 C   0  0  0  0  0  0  0  0  0  0  0  0
   14.8962   -9.3959    0.0000 C   0  0  0  0  0  0  0  0  0  0  0  0
   16.1953  -10.1457    0.0000 C   0  0  0  0  0  0  0  0  0  0  0  0
   17.4942   -9.3955    0.0000 C   0  0  0  0  0  0  0  0  0  0  0  0
   18.7934  -10.1453    0.0000 C   0  0  0  0  0  0  0  0  0  0  0  0
   20.0923   -9.3951    0.0000 C   0  0  0  0  0  0  0  0  0  0  0  0
   21.3915  -10.1449    0.0000 C   0  0  0  0  0  0  0  0  0  0  0  0
   22.6904   -9.3947    0.0000 C   0  0  0  0  0  0  0  0  0  0  0  0
   23.9895  -10.1445    0.0000 C   0  0  0  0  0  0  0  0  0  0  0  0
   33.0846   -9.3934    0.0000 C   0  0  0  0  0  0  0  0  0  0  0  0
   31.7846  -10.1434    0.0000 C   0  0  0  0  0  0  0  0  0  0  0  0
   25.2885   -9.3943    0.0000 C   0  0  0  0  0  0  0  0  0  0  0  0
   33.0846   -7.8934    0.0000 C   0  0  0  0  0  0  0  0  0  0  0  0
   30.4846   -7.8934    0.0000 C   0  0  0  0  0  0  0  0  0  0  0  0
   29.1857  -10.1437    0.0000 C   0  0  0  0  0  0  0  0  0  0  0  0
   30.4846   -9.3934    0.0000 C   0  0  0  0  0  0  0  0  0  0  0  0
   26.5876  -10.1441    0.0000 C   0  0  0  0  0  0  0  0  0  0  0  0
   31.7846   -7.1434    0.0000 N   0  0  0  0  0  0  0  0  0  0  0  0
   26.5879  -11.6441    0.0000 O   0  0  0  0  0  0  0  0  0  0  0  0
   27.8865   -9.3939    0.0000 O   0  0  0  0  0  0  0  0  0  0  0  0
  2  1  1  0
  3  2  1  0
  4  3  1  0
  5  4  1  0
  6  5  1  0
  6  7  2  0
  8  7  1  0
  9  8  1  0
  9 10  2  0
 11 10  1  0
 12 11  1  0
 13 12  1  0
 14 13  1  0
 15 14  1  0
 16 15  1  0
 18 17  2  0
 19 16  1  0
 20 17  1  0
 23 18  1  0
 23 21  2  0
 23 22  1  0
 24 19  1  0
 25 20  2  0
 25 21  1  0
 26 24  2  0
 27 22  1  0
 27 24  1  0
M  END
>  <NAME>  (4252) 
(3-PYRIDYL)METHYL (Z,Z)-9,12-OCTADECDIENOATE

>  <SYNONYMS>  (4252) 
BETA-PICOLINYL LINOLEATE

>  <SPECTRUM TYPE>  (4252) 
MS1

>  <INSTRUMENT TYPE>  (4252) 
EI-B

>  <INSTRUMENT>  (4252) 
SHIMADZU QP-1000

>  <ION MODE>  (4252) 
P

>  <INCHIKEY>  (4252) 
CBIJRFCIJWDVAB-HZJYTTRNSA-N

>  <FORMULA>  (4252) 
C24H37NO2

>  <EXACT MASS>  (4252) 
371.28242942400004

>  <MW>  (4252) 
371

>  <ID>  (4252) 
JP004517

>  <CONTRIBUTOR>  (4252) 
University of Tokyo Team, {Faculty of Engineering, University of Tokyo

>  <COMMENT>  (4252) 
SMILES=CCCCCC([H])=C([H])CC([H])=C([H])CCCCCCCC(=O)OCc(c1)cncc1
cas=51861-91-7
InChI=InChI=1S/C24H37NO2/c1-2-3-4-5-6-7-8-9-10-11-12-13-14-15-16-19-24(26)27-22-23-18-17-20-25-21-23/h6-7,9-10,17-18,20-21H,2-5,8,11-16,19,22H2,1H3/b7-6-,10-9-
computed SMILES=O=C(OCC=1C=NC=CC1)CCCCCCCC=CCC=CCCCCC
accession=JP004517
date=2016.01.19 (Created 2008.10.21, modified 2011.05.06)
author=SEYAMA Y, DEPT. OF PHYSIOL. CHEMISTRY AND NUTRITION, FAC. OF MEDICINE, UNIV. OF TOKYO
license=CC BY-NC-SA
exact mass=371.28243
ionization energy=70 eV
ion type=[M]+*
computed spectral entropy=3.861073640390015
computed normalized entropy=0.8214210761284836
SPLASH=splash10-0006-9311000000-fa54a9f1389920b3008a
submitter=submitter = University of Tokyo Team (Faculty of Engineering, University of Tokyo)
MoNA Rating=3.75

>  <NUM PEAKS>  (4252) 
110

>  <MASS SPECTRAL PEAKS>  (4252) 
40 5.39
41 67.61
42 7.62
43 24.27
51 2.69
52 1.84
53 10.21
54 17.33
55 46.12
56 5.13
57 5.35
63 1.87
64 3.3
65 27.02
66 5.41
67 48.94
68 6.18
69 14.73
70 1.5
77 7.69
78 3.66
79 24.83
80 12.61
81 26.65
82 2.32
83 4.2
91 12.35
92 99.99
93 47.93
94 7.21
95 13.82
97 1.54
105 1.27
106 1.77
107 3.94
108 57.32
109 25.91
110 7.37
119 1.28
121 3.08
123 2.8
131 1.32
133 2.37
134 1.14
135 2.42
137 1.68
145 1.07
146 1.18
148 1.44
149 1.59
151 18.57
152 2.26
164 54.59
165 7.23
177 1.17
178 9.63
179 1.98
190 1.87
192 3.51
193 1.25
204 3.69
205 4.02
206 7.89
207 1.07
218 1.48
220 9.17
221 2.01
232 1.16
233 1.06
234 3.97
235 1
246 2.09
247 3.57
248 2.57
256 1.45
258 1.3
260 12.71
261 5.2
262 2.06
272 2.64
273 1.44
274 11.02
275 3.03
276 1.17
279 1.47
286 2.49
287 1.15
288 4.46
289 1.12
296 1.44
298 1.13
300 5.66
301 2.44
302 1.94
310 1.13
314 9.82
315 3.29
316 2.56
328 7.3
329 1.81
330 1.6
342 3.2
343 1.25
344 1.02
356 1.16
370 5.89
371 26.74
372 10.12
373 4.79
374 1.06

>  <PREDICTED SPECTRUM>  (4252) 
39 61
40 0
41 84
43 30
50 40
51 164
52 162
53 260
54 293
55 558
56 168
57 232
58 52
59 67
60 60
61 32
62 55
63 156
64 174
65 490
66 217
67 567
68 252
69 354
70 125
71 166
72 59
73 68
74 22
75 44
76 33
77 245
78 169
79 437
80 273
81 418
82 191
83 237
84 93
85 120
86 32
87 67
88 52
89 44
90 30
91 347
92 999
93 748
94 229
95 350
96 146
97 137
98 68
99 59
100 6
101 22
102 23
103 55
104 14
105 138
106 149
107 231
108 716
109 514
110 266
111 102
112 39
113 72
114 41
115 64
116 34
117 97
118 80
119 157
120 85
121 197
122 96
123 158
124 75
125 45
126 8
127 40
128 0
129 50
130 60
131 97
132 73
133 158
134 103
135 191
136 85
137 120
138 31
139 44
141 40
142 5
143 23
144 73
145 83
146 56
147 131
148 112
149 150
150 70
151 404
152 152
153 65
155 11
156 27
157 15
158 56
159 72
160 31
161 61
162 69
163 66
164 622
165 209
166 85
167 67
168 24
170 0
172 61
173 64
174 53
175 47
176 39
177 109
178 244
179 117
180 3
181 47
184 8
185 5
186 67
187 47
188 57
189 11
190 101
191 78
192 184
193 138
194 69
195 50
200 36
201 29
202 51
203 25
204 133
205 82
206 273
207 144
208 47
209 2
214 33
215 5
216 62
217 48
218 139
219 122
220 262
221 98
222 40
228 50
229 4
230 67
231 33
232 184
233 142
234 233
235 104
236 27
240 10
242 61
243 27
244 80
245 57
246 236
247 173
248 182
249 76
254 34
256 67
257 7
258 117
259 125
260 325
261 194
262 140
263 57
268 39
270 50
272 183
273 133
274 235
275 140
276 100
277 30
278 13
279 160
280 51
282 91
283 14
284 52
285 19
286 328
287 149
288 152
289 51
290 53
296 125
298 11
300 374
301 200
302 125
303 49
304 20
310 52
311 22
312 42
314 378
315 184
316 153
317 60
324 34
326 0
328 315
329 176
330 108
331 24
342 237
343 127
344 42
352 3
355 0
356 126
357 54
369 27
370 290
371 713
372 353
373 130
374 12

$$$$

     RDKit          2D

 27 27  0  0  0  0  0  0  0  0999 V2000
   29.1819   13.1076    0.0000 C   0  0  0  0  0  0  0  0  0  0  0  0
   27.8829   12.3574    0.0000 C   0  0  0  0  0  0  0  0  0  0  0  0
   27.8832   10.8574    0.0000 C   0  0  0  0  0  0  0  0  0  0  0  0
   26.5843   10.1072    0.0000 C   0  0  0  0  0  0  0  0  0  0  0  0
   26.5845    8.6072    0.0000 C   0  0  0  0  0  0  0  0  0  0  0  0
   25.2856    7.8570    0.0000 C   0  0  0  0  0  0  0  0  0  0  0  0
   25.2858    6.3570    0.0000 C   0  0  0  0  0  0  0  0  0  0  0  0
   23.9869    5.6068    0.0000 C   0  0  0  0  0  0  0  0  0  0  0  0
   23.9871    4.1068    0.0000 C   0  0  0  0  0  0  0  0  0  0  0  0
   22.6882    3.3566    0.0000 C   0  0  0  0  0  0  0  0  0  0  0  0
   21.3891    4.1064    0.0000 C   0  0  0  0  0  0  0  0  0  0  0  0
   20.0902    3.3561    0.0000 C   0  0  0  0  0  0  0  0  0  0  0  0
   18.7910    4.1059    0.0000 C   0  0  0  0  0  0  0  0  0  0  0  0
   17.4921    3.3557    0.0000 C   0  0  0  0  0  0  0  0  0  0  0  0
   16.1929    4.1055    0.0000 C   0  0  0  0  0  0  0  0  0  0  0  0
   14.8940    3.3553    0.0000 C   0  0  0  0  0  0  0  0  0  0  0  0
    5.7987    4.1034    0.0000 C   0  0  0  0  0  0  0  0  0  0  0  0
    7.0989    3.3539    0.0000 C   0  0  0  0  0  0  0  0  0  0  0  0
   13.5948    4.1051    0.0000 C   0  0  0  0  0  0  0  0  0  0  0  0
    5.7982    5.6034    0.0000 C   0  0  0  0  0  0  0  0  0  0  0  0
    8.3982    5.6043    0.0000 C   0  0  0  0  0  0  0  0  0  0  0  0
    9.6978    3.3545    0.0000 C   0  0  0  0  0  0  0  0  0  0  0  0
    8.3987    4.1043    0.0000 C   0  0  0  0  0  0  0  0  0  0  0  0
   12.2959    3.3549    0.0000 C   0  0  0  0  0  0  0  0  0  0  0  0
    7.0980    6.3539    0.0000 N   0  0  0  0  0  0  0  0  0  0  0  0
   12.2962    1.8549    0.0000 O   0  0  0  0  0  0  0  0  0  0  0  0
   10.9968    4.1047    0.0000 O   0  0  0  0  0  0  0  0  0  0  0  0
  2  1  1  0
  3  2  1  0
  4  3  1  0
  5  4  1  0
  6  5  1  0
  7  6  1  0
  8  7  1  0
  9  8  1  0
  9 10  2  0
 11 10  1  0
 12 11  1  0
 13 12  1  0
 14 13  1  0
 15 14  1  0
 16 15  1  0
 18 17  2  0
 19 16  1  0
 20 17  1  0
 23 18  1  0
 23 21  2  0
 23 22  1  0
 24 19  1  0
 25 20  2  0
 25 21  1  0
 26 24  2  0
 27 22  1  0
 27 24  1  0
M  END
>  <NAME>  (4253) 
(3-PYRIDYL)METHYL (Z)-9-OCTADECENOATE

>  <SYNONYMS>  (4253) 
BETA-PICOLINYL OLEATE

>  <SPECTRUM TYPE>  (4253) 
MS1

>  <INSTRUMENT TYPE>  (4253) 
EI-B

>  <INSTRUMENT>  (4253) 
SHIMADZU QP-1000

>  <ION MODE>  (4253) 
P

>  <INCHIKEY>  (4253) 
FBPJZADLPOSZEO-KTKRTIGZSA-N

>  <FORMULA>  (4253) 
C24H39NO2

>  <EXACT MASS>  (4253) 
373.298079488

>  <MW>  (4253) 
373

>  <ID>  (4253) 
JP004516

>  <CONTRIBUTOR>  (4253) 
University of Tokyo Team, {Faculty of Engineering, University of Tokyo

>  <COMMENT>  (4253) 
SMILES=CCCCCCCCC([H])=C([H])CCCCCCCC(=O)OCc(c1)cncc1
cas=82120-92-1
InChI=InChI=1S/C24H39NO2/c1-2-3-4-5-6-7-8-9-10-11-12-13-14-15-16-19-24(26)27-22-23-18-17-20-25-21-23/h9-10,17-18,20-21H,2-8,11-16,19,22H2,1H3/b10-9-
computed SMILES=O=C(OCC=1C=NC=CC1)CCCCCCCC=CCCCCCCCC
accession=JP004516
license=CC BY-NC-SA
date=2016.01.19 (Created 2008.10.21, modified 2011.05.06)
author=SEYAMA Y, DEPT. OF PHYSIOL. CHEMISTRY AND NUTRITION, FAC. OF MEDICINE, UNIV. OF TOKYO
exact mass=373.29808
ionization energy=70 eV
ion type=[M]+*
computed spectral entropy=3.760889573192327
computed normalized entropy=0.8221043014224917
SPLASH=splash10-052f-9520000000-67daa52ec270240878bb
submitter=submitter = University of Tokyo Team (Faculty of Engineering, University of Tokyo)
MoNA Rating=3.75

>  <NUM PEAKS>  (4253) 
97

>  <MASS SPECTRAL PEAKS>  (4253) 
41 58.47
42 9.92
43 49.46
51 2.89
53 6.87
54 11.69
55 56.87
56 8.38
57 15.23
58 1.6
63 2.05
64 1.66
65 19.96
66 1.12
67 16.66
68 5.16
69 26.14
70 4.39
71 3.43
77 2.32
78 1.75
79 4.96
80 2.27
81 12.02
82 3.04
83 8.48
84 1.06
85 1.71
87 1.19
89 1.03
91 5.28
92 99.99
93 49.93
94 5.56
95 4.31
97 4.88
102 1.51
103 1.06
105 1.63
106 1.89
107 2.45
108 67.39
109 30.96
110 9.45
111 2.02
113 1.65
116 1.18
118 1.18
120 2.09
123 1.14
130 1.23
132 1.64
133 1.41
134 2.7
135 1.23
137 1.15
139 1.57
141 1.29
151 25.34
152 5.23
153 1.76
161 2.52
162 1.42
164 71.78
165 10.84
166 2.71
177 1.83
178 14.28
179 3.9
190 1.75
192 6.85
193 3.73
204 3.14
206 11.57
207 4.48
209 1.8
220 15.22
221 1.63
234 8.16
246 3.8
247 3.88
248 4.26
256 2.12
260 9.12
261 3.52
270 2.93
274 24.82
275 7.81
288 24.82
289 6.65
302 6.04
316 5.66
330 5.56
344 2.96
372 4.11
373 16.13
374 4.91

>  <PREDICTED SPECTRUM>  (4253) 
39 69
40 6
41 120
42 72
43 93
44 9
50 44
51 144
52 150
53 231
54 319
55 679
56 282
57 347
58 89
59 44
60 56
61 25
62 62
63 160
64 164
65 456
66 162
67 396
68 219
69 437
70 178
71 222
72 66
73 99
74 50
75 46
76 22
77 133
78 167
79 264
80 217
81 343
82 172
83 335
84 158
85 134
86 36
87 55
88 27
89 29
90 45
91 154
92 999
93 732
94 206
95 240
96 112
97 222
98 88
99 72
100 37
101 45
103 14
104 7
105 87
106 151
107 97
108 821
109 551
110 278
111 165
112 66
113 57
114 23
115 55
116 8
117 15
118 95
119 104
120 133
121 136
122 49
123 95
124 64
125 99
126 33
127 45
129 13
130 67
131 46
132 106
133 172
134 113
135 73
136 45
137 90
138 47
139 85
141 29
144 32
145 53
146 109
147 122
148 126
149 87
150 93
151 460
152 191
153 54
154 8
155 9
156 2
158 37
159 28
160 45
161 57
162 50
164 686
165 258
166 79
167 37
168 6
174 45
175 48
176 27
177 56
178 298
179 163
180 27
181 35
184 4
186 1
188 43
189 24
190 93
191 46
192 216
193 160
194 57
202 35
203 5
204 136
205 73
206 300
207 154
208 46
216 38
217 17
218 113
219 81
220 299
221 126
222 21
228 24
230 40
231 16
232 136
233 105
234 251
235 94
239 2
242 25
244 60
245 36
246 267
247 144
248 218
249 80
256 87
258 33
260 300
261 182
262 162
263 84
265 37
270 35
272 15
274 341
275 226
276 118
277 30
281 18
282 18
284 67
288 386
289 194
290 93
298 61
302 438
303 221
304 70
312 9
314 14
316 399
317 213
318 90
326 3
330 297
331 146
332 58
344 269
345 146
346 48
354 46
356 2
358 138
359 60
372 316
373 624
374 328
375 92

$$$$

     RDKit          2D

 24 24  0  0  0  0  0  0  0  0999 V2000
   -1.6700   -0.2129    0.0000 C   0  0  0  0  0  0  0  0  0  0  0  0
   -0.3711    0.5373    0.0000 C   0  0  0  0  0  0  0  0  0  0  0  0
    0.9281   -0.2125    0.0000 C   0  0  0  0  0  0  0  0  0  0  0  0
    2.2270    0.5377    0.0000 C   0  0  0  0  0  0  0  0  0  0  0  0
    3.5262   -0.2121    0.0000 C   0  0  0  0  0  0  0  0  0  0  0  0
    4.8251    0.5381    0.0000 C   0  0  0  0  0  0  0  0  0  0  0  0
    6.1242   -0.2117    0.0000 C   0  0  0  0  0  0  0  0  0  0  0  0
    7.4231    0.5385    0.0000 C   0  0  0  0  0  0  0  0  0  0  0  0
    8.7223   -0.2112    0.0000 C   0  0  0  0  0  0  0  0  0  0  0  0
   10.0212    0.5390    0.0000 C   0  0  0  0  0  0  0  0  0  0  0  0
   11.3204   -0.2108    0.0000 C   0  0  0  0  0  0  0  0  0  0  0  0
   12.6193    0.5394    0.0000 C   0  0  0  0  0  0  0  0  0  0  0  0
   13.9185   -0.2104    0.0000 C   0  0  0  0  0  0  0  0  0  0  0  0
   23.0135    0.5406    0.0000 C   0  0  0  0  0  0  0  0  0  0  0  0
   21.7135   -0.2094    0.0000 C   0  0  0  0  0  0  0  0  0  0  0  0
   15.2174    0.5398    0.0000 C   0  0  0  0  0  0  0  0  0  0  0  0
   23.0135    2.0406    0.0000 C   0  0  0  0  0  0  0  0  0  0  0  0
   20.4135    2.0406    0.0000 C   0  0  0  0  0  0  0  0  0  0  0  0
   19.1146   -0.2096    0.0000 C   0  0  0  0  0  0  0  0  0  0  0  0
   20.4135    0.5406    0.0000 C   0  0  0  0  0  0  0  0  0  0  0  0
   16.5165   -0.2100    0.0000 C   0  0  0  0  0  0  0  0  0  0  0  0
   21.7135    2.7906    0.0000 N   0  0  0  0  0  0  0  0  0  0  0  0
   16.5168   -1.7100    0.0000 O   0  0  0  0  0  0  0  0  0  0  0  0
   17.8155    0.5402    0.0000 O   0  0  0  0  0  0  0  0  0  0  0  0
  2  1  1  0
  3  2  1  0
  4  3  1  0
  5  4  1  0
  6  5  1  0
  7  6  1  0
  8  7  1  0
  9  8  1  0
 10  9  1  0
 11 10  1  0
 12 11  1  0
 13 12  1  0
 15 14  2  0
 16 13  1  0
 17 14  1  0
 20 15  1  0
 20 18  2  0
 20 19  1  0
 21 16  1  0
 22 17  2  0
 22 18  1  0
 23 21  2  0
 24 19  1  0
 24 21  1  0
M  END
>  <NAME>  (4254) 
(3-PYRIDYL)METHYL PENTADECANOATE

>  <SYNONYMS>  (4254) 
BETA-PICOLINYL PENTADECANOATE

>  <SPECTRUM TYPE>  (4254) 
MS1

>  <INSTRUMENT TYPE>  (4254) 
EI-B

>  <INSTRUMENT>  (4254) 
SHIMADZU QP-1000

>  <ION MODE>  (4254) 
P

>  <INCHIKEY>  (4254) 
UTNGTSRXVAVXCM-UHFFFAOYSA-N

>  <FORMULA>  (4254) 
C21H35NO2

>  <EXACT MASS>  (4254) 
333.26677936

>  <MW>  (4254) 
333

>  <ID>  (4254) 
JP004513

>  <CONTRIBUTOR>  (4254) 
University of Tokyo Team, {Faculty of Engineering, University of Tokyo

>  <COMMENT>  (4254) 
SMILES=CCCCCCCCCCCCCCC(=O)OCc(c1)cncc1
InChI=InChI=1S/C21H35NO2/c1-2-3-4-5-6-7-8-9-10-11-12-13-16-21(23)24-19-20-15-14-17-22-18-20/h14-15,17-18H,2-13,16,19H2,1H3
computed SMILES=O=C(OCC=1C=NC=CC1)CCCCCCCCCCCCCC
accession=JP004513
date=2016.01.19 (Created 2008.10.21, modified 2011.05.06)
author=SEYAMA Y, DEPT. OF PHYSIOL. CHEMISTRY AND NUTRITION, FAC. OF MEDICINE, UNIV. OF TOKYO
license=CC BY-NC-SA
exact mass=333.26678
ionization energy=70 eV
ion type=[M]+*
computed spectral entropy=3.499075590201847
computed normalized entropy=0.7985062351092383
SPLASH=splash10-06r6-6951000000-33ce408ba0b477fcb8dd
submitter=submitter = University of Tokyo Team (Faculty of Engineering, University of Tokyo)
MoNA Rating=3.75

>  <NUM PEAKS>  (4254) 
80

>  <MASS SPECTRAL PEAKS>  (4254) 
51 1.9
52 1.47
53 3.02
54 2.25
55 24.02
56 4.81
57 11.32
60 1.52
63 2.02
64 3.44
65 19.68
66 2.15
67 3.12
68 1.35
69 7.55
71 2.39
78 1.47
79 1.92
80 3.99
81 2.4
83 2.64
85 2.58
91 4.24
92 79.11
93 59.55
94 7.17
95 1.57
96 1.1
97 2.8
106 1.63
108 78.09
109 35.03
110 7.54
111 1.47
120 1
148 2.43
151 61.44
152 5.93
164 99.99
165 14.1
166 2.26
176 1.06
177 1.24
178 14.24
179 4.36
180 1.03
181 1.21
185 1.52
190 1.49
192 7.38
193 4.05
194 1.57
204 1.1
206 23.08
207 5.7
218 1.14
220 21.74
221 5.12
222 1.19
223 1.43
225 1.28
234 23.39
235 4.6
242 1.21
248 25.54
249 5.76
250 1.49
262 27.44
263 5.64
274 1.57
276 11.91
277 1.56
290 28.62
291 6.48
292 1.58
304 11.46
305 3.31
332 9.61
333 12.52
334 4.99

>  <PREDICTED SPECTRUM>  (4254) 
39 37
42 15
43 7
50 55
51 126
52 127
53 179
54 211
55 472
56 256
57 431
58 125
59 69
60 79
61 50
62 44
63 176
64 168
65 425
66 152
67 243
68 145
69 396
70 151
71 231
72 67
73 110
74 9
75 21
76 10
77 1
78 130
79 151
80 240
81 205
82 117
83 207
84 102
85 134
86 35
87 46
89 4
91 211
92 994
93 701
94 230
95 156
96 94
97 195
98 68
99 66
101 17
105 49
106 179
107 108
108 999
109 606
110 318
111 131
112 58
113 52
115 19
119 21
120 69
121 45
122 23
123 22
124 18
125 47
130 1
132 11
133 101
134 99
135 71
136 0
137 45
138 39
139 58
141 4
146 8
148 143
149 35
150 109
151 690
152 207
153 36
162 60
163 5
164 812
165 314
166 95
167 29
176 44
177 50
178 352
179 181
180 26
181 18
188 2
190 62
191 12
192 204
193 177
194 35
204 61
206 403
207 210
208 21
218 34
220 389
221 183
222 21
223 34
225 95
232 37
234 397
235 180
236 48
246 32
248 393
249 196
250 21
260 37
262 422
263 200
264 33
274 74
276 432
277 201
278 61
288 17
290 449
291 224
292 50
304 414
305 203
306 46
314 52
318 239
319 105
332 252
333 405
334 187
335 23

$$$$

     RDKit          2D

 23 23  0  0  0  0  0  0  0  0999 V2000
   -1.6700    0.5373    0.0000 C   0  0  0  0  0  0  0  0  0  0  0  0
   -0.3708   -0.2125    0.0000 C   0  0  0  0  0  0  0  0  0  0  0  0
    0.9281    0.5377    0.0000 C   0  0  0  0  0  0  0  0  0  0  0  0
    2.2272   -0.2121    0.0000 C   0  0  0  0  0  0  0  0  0  0  0  0
    3.5262    0.5381    0.0000 C   0  0  0  0  0  0  0  0  0  0  0  0
    4.8253   -0.2117    0.0000 C   0  0  0  0  0  0  0  0  0  0  0  0
    6.1242    0.5385    0.0000 C   0  0  0  0  0  0  0  0  0  0  0  0
    7.4234   -0.2112    0.0000 C   0  0  0  0  0  0  0  0  0  0  0  0
    8.7223    0.5390    0.0000 C   0  0  0  0  0  0  0  0  0  0  0  0
   10.0215   -0.2108    0.0000 C   0  0  0  0  0  0  0  0  0  0  0  0
   11.3204    0.5394    0.0000 C   0  0  0  0  0  0  0  0  0  0  0  0
   12.6195   -0.2104    0.0000 C   0  0  0  0  0  0  0  0  0  0  0  0
   21.7146    0.5406    0.0000 C   0  0  0  0  0  0  0  0  0  0  0  0
   20.4146   -0.2094    0.0000 C   0  0  0  0  0  0  0  0  0  0  0  0
   13.9185    0.5398    0.0000 C   0  0  0  0  0  0  0  0  0  0  0  0
   21.7146    2.0406    0.0000 C   0  0  0  0  0  0  0  0  0  0  0  0
   19.1146    2.0406    0.0000 C   0  0  0  0  0  0  0  0  0  0  0  0
   17.8157   -0.2096    0.0000 C   0  0  0  0  0  0  0  0  0  0  0  0
   19.1146    0.5406    0.0000 C   0  0  0  0  0  0  0  0  0  0  0  0
   15.2176   -0.2100    0.0000 C   0  0  0  0  0  0  0  0  0  0  0  0
   20.4146    2.7906    0.0000 N   0  0  0  0  0  0  0  0  0  0  0  0
   15.2179   -1.7100    0.0000 O   0  0  0  0  0  0  0  0  0  0  0  0
   16.5165    0.5402    0.0000 O   0  0  0  0  0  0  0  0  0  0  0  0
  2  1  1  0
  3  2  1  0
  4  3  1  0
  5  4  1  0
  6  5  1  0
  7  6  1  0
  8  7  1  0
  9  8  1  0
 10  9  1  0
 11 10  1  0
 12 11  1  0
 14 13  2  0
 15 12  1  0
 16 13  1  0
 19 14  1  0
 19 17  2  0
 19 18  1  0
 20 15  1  0
 21 16  2  0
 21 17  1  0
 22 20  2  0
 23 18  1  0
 23 20  1  0
M  END
>  <NAME>  (4255) 
(3-PYRIDYL)METHYL TETRADECANOATE

>  <SYNONYMS>  (4255) 
BETA-PICOLINYL MYRISTATE

>  <SPECTRUM TYPE>  (4255) 
MS1

>  <INSTRUMENT TYPE>  (4255) 
EI-B

>  <INSTRUMENT>  (4255) 
SHIMADZU QP-1000

>  <ION MODE>  (4255) 
P

>  <INCHIKEY>  (4255) 
UWHPETZHONZXLA-UHFFFAOYSA-N

>  <FORMULA>  (4255) 
C20H33NO2

>  <EXACT MASS>  (4255) 
319.251129296

>  <MW>  (4255) 
319

>  <ID>  (4255) 
JP004512

>  <CONTRIBUTOR>  (4255) 
University of Tokyo Team, {Faculty of Engineering, University of Tokyo

>  <COMMENT>  (4255) 
SMILES=CCCCCCCCCCCCCC(=O)OCc(c1)cncc1
InChI=InChI=1S/C20H33NO2/c1-2-3-4-5-6-7-8-9-10-11-12-15-20(22)23-18-19-14-13-16-21-17-19/h13-14,16-17H,2-12,15,18H2,1H3
computed SMILES=O=C(OCC=1C=NC=CC1)CCCCCCCCCCCCC
accession=JP004512
date=2016.01.19 (Created 2008.10.21, modified 2011.05.06)
author=SEYAMA Y, DEPT. OF PHYSIOL. CHEMISTRY AND NUTRITION, FAC. OF MEDICINE, UNIV. OF TOKYO
license=CC BY-NC-SA
exact mass=319.25113
ionization energy=70 eV
ion type=[M]+*
computed spectral entropy=3.4390194333482036
computed normalized entropy=0.81790031867926
SPLASH=splash10-06r6-8950000000-0413ce659d49e51ad874
submitter=submitter = University of Tokyo Team (Faculty of Engineering, University of Tokyo)
MoNA Rating=3.75

>  <NUM PEAKS>  (4255) 
67

>  <MASS SPECTRAL PEAKS>  (4255) 
51 2.29
52 1.54
53 3.54
54 2.23
55 26.96
56 5.82
57 23.21
58 1.19
63 2.27
64 3.29
65 22.15
66 1.9
67 3.61
68 1.26
69 9.66
70 2.21
71 6.73
73 1.6
78 1.99
79 2.24
80 3.79
81 2.72
83 4.66
84 1.24
85 2.47
91 4.4
92 83.06
93 59.41
94 6.2
95 2.23
97 2.98
106 1.44
108 72.91
109 31.91
110 7.57
111 1.68
120 1.12
133 1.02
148 1.53
151 63.58
152 6.05
164 99.99
165 13.88
166 1.48
178 13.85
179 4.04
192 7.23
193 4.18
204 1.38
206 22.39
207 5.55
220 20.55
221 5.43
234 22.79
235 4.18
248 23.55
249 5.32
262 27.32
263 5.13
276 25.16
277 4.98
290 24.48
291 5.29
304 6.23
318 8.49
319 11.25
320 3.01

>  <PREDICTED SPECTRUM>  (4255) 
39 35
42 14
50 56
51 131
52 132
53 176
54 203
55 454
56 245
57 408
58 114
59 47
60 68
61 41
62 41
63 176
64 170
65 432
66 153
67 230
68 119
69 386
70 141
71 216
72 73
73 109
74 3
75 21
76 4
77 43
78 160
79 171
80 232
81 199
82 114
83 200
84 89
85 122
86 27
87 47
91 224
92 999
93 709
94 225
95 159
96 91
97 191
98 99
99 61
101 11
105 40
106 134
107 64
108 983
109 599
110 321
111 132
112 25
113 31
118 10
119 18
120 106
121 62
122 17
123 47
124 41
125 53
127 7
132 12
133 93
134 92
135 51
136 5
137 26
139 27
147 4
148 127
149 3
150 125
151 688
152 215
153 44
162 51
163 13
164 819
165 311
166 86
167 16
176 45
177 15
178 361
179 179
190 43
191 6
192 207
193 172
194 52
204 23
206 402
207 201
208 16
209 5
211 103
218 42
220 394
221 185
222 19
232 16
234 397
235 190
236 66
246 38
248 398
249 198
250 10
260 70
262 411
263 190
264 24
274 25
276 447
277 226
278 56
290 416
291 221
292 56
300 29
304 220
305 109
318 231
319 361
320 164
321 14

$$$$

     RDKit          2D

 27 27  0  0  0  0  0  0  0  0999 V2000
   13.9180    2.7896    0.0000 C   0  0  0  0  0  0  0  0  0  0  0  0
   -1.6700   -0.2129    0.0000 C   0  0  0  0  0  0  0  0  0  0  0  0
   -0.3713    2.0373    0.0000 C   0  0  0  0  0  0  0  0  0  0  0  0
   12.6191    2.0394    0.0000 C   0  0  0  0  0  0  0  0  0  0  0  0
    6.1242   -0.2117    0.0000 C   0  0  0  0  0  0  0  0  0  0  0  0
    4.8251    0.5381    0.0000 C   0  0  0  0  0  0  0  0  0  0  0  0
    7.4231    0.5385    0.0000 C   0  0  0  0  0  0  0  0  0  0  0  0
    3.5262   -0.2121    0.0000 C   0  0  0  0  0  0  0  0  0  0  0  0
    8.7223   -0.2112    0.0000 C   0  0  0  0  0  0  0  0  0  0  0  0
    2.2270    0.5377    0.0000 C   0  0  0  0  0  0  0  0  0  0  0  0
   10.0212    0.5390    0.0000 C   0  0  0  0  0  0  0  0  0  0  0  0
   23.0135    0.5406    0.0000 C   0  0  0  0  0  0  0  0  0  0  0  0
    0.9281   -0.2125    0.0000 C   0  0  0  0  0  0  0  0  0  0  0  0
   11.3204   -0.2108    0.0000 C   0  0  0  0  0  0  0  0  0  0  0  0
   21.7135   -0.2094    0.0000 C   0  0  0  0  0  0  0  0  0  0  0  0
   13.9185   -0.2104    0.0000 C   0  0  0  0  0  0  0  0  0  0  0  0
   15.2174    0.5398    0.0000 C   0  0  0  0  0  0  0  0  0  0  0  0
   23.0135    2.0406    0.0000 C   0  0  0  0  0  0  0  0  0  0  0  0
   20.4135    2.0406    0.0000 C   0  0  0  0  0  0  0  0  0  0  0  0
   19.1146   -0.2096    0.0000 C   0  0  0  0  0  0  0  0  0  0  0  0
   -0.3711    0.5373    0.0000 C   0  0  0  0  0  0  0  0  0  0  0  0
   12.6193    0.5394    0.0000 C   0  0  0  0  0  0  0  0  0  0  0  0
   20.4135    0.5406    0.0000 C   0  0  0  0  0  0  0  0  0  0  0  0
   16.5165   -0.2100    0.0000 C   0  0  0  0  0  0  0  0  0  0  0  0
   21.7135    2.7906    0.0000 N   0  0  0  0  0  0  0  0  0  0  0  0
   16.5168   -1.7100    0.0000 O   0  0  0  0  0  0  0  0  0  0  0  0
   17.8155    0.5402    0.0000 O   0  0  0  0  0  0  0  0  0  0  0  0
  4  1  1  0
  6  5  1  0
  7  5  1  0
  8  6  1  0
  9  7  1  0
 10  8  1  0
 11  9  1  0
 13 10  1  0
 14 11  1  0
 15 12  2  0
 17 16  1  0
 18 12  1  0
 21  2  1  0
 21  3  1  0
 21 13  1  0
 22  4  1  0
 22 14  1  0
 22 16  1  0
 23 15  1  0
 23 19  2  0
 23 20  1  0
 24 17  1  0
 25 18  2  0
 25 19  1  0
 26 24  2  0
 27 20  1  0
 27 24  1  0
M  END
>  <NAME>  (4256) 
(3-PYRIDYL)METHYL 4-ETHYL-14-METHYLPENTADECANOATE

>  <SYNONYMS>  (4256) 
BETA-PICOLINYL 4-ETHYL-ISOPALMITATE

>  <SPECTRUM TYPE>  (4256) 
MS1

>  <INSTRUMENT TYPE>  (4256) 
EI-B

>  <INSTRUMENT>  (4256) 
SHIMADZU QP-1000

>  <ION MODE>  (4256) 
P

>  <INCHIKEY>  (4256) 
CKNSXXBZIRRIDD-UHFFFAOYSA-N

>  <FORMULA>  (4256) 
C24H41NO2

>  <EXACT MASS>  (4256) 
375.313729552

>  <MW>  (4256) 
375

>  <ID>  (4256) 
JP004511

>  <CONTRIBUTOR>  (4256) 
University of Tokyo Team, {Faculty of Engineering, University of Tokyo

>  <COMMENT>  (4256) 
SMILES=CC(C)CCCCCCCCCC(CC)CCC(=O)OCc(c1)cncc1
InChI=InChI=1S/C24H41NO2/c1-4-22(14-11-9-7-5-6-8-10-13-21(2)3)16-17-24(26)27-20-23-15-12-18-25-19-23/h12,15,18-19,21-22H,4-11,13-14,16-17,20H2,1-3H3
computed SMILES=O=C(OCC=1C=NC=CC1)CCC(CC)CCCCCCCCCC(C)C
accession=JP004511
date=2016.01.19 (Created 2008.10.21, modified 2011.05.06)
author=SEYAMA Y, DEPT. OF PHYSIOL. CHEMISTRY AND NUTRITION, FAC. OF MEDICINE, UNIV. OF TOKYO
license=CC BY-NC-SA
exact mass=375.31373
ionization energy=70 eV
ion type=[M]+*
computed spectral entropy=3.2208769884335906
computed normalized entropy=0.7966451016978288
SPLASH=splash10-06r6-9812000000-7cbf5c9f7f09066afc78
submitter=submitter = University of Tokyo Team (Faculty of Engineering, University of Tokyo)
MoNA Rating=3.75

>  <NUM PEAKS>  (4256) 
57

>  <MASS SPECTRAL PEAKS>  (4256) 
53 1.63
54 1.29
55 20.43
56 5.14
57 20.43
64 1.28
65 11.16
66 1.07
67 2.84
68 1.04
69 10.88
70 2.84
71 7.45
80 1.46
81 2.55
83 5.21
85 3.24
92 60.65
93 56.25
94 6.53
95 2.45
97 3.55
106 1.09
108 31.79
109 16
110 5.38
111 2.1
125 1.08
151 39.53
152 3.98
164 99.99
165 11.81
166 1.1
192 1.62
206 10.28
207 2.4
220 2.28
234 4.23
248 3.89
262 4.06
276 6.17
277 1.27
290 8.6
291 1.76
304 8.33
305 2.04
318 7.61
319 1.75
332 15.6
333 3.84
346 5.65
347 1.51
360 8.97
361 2.04
374 2.67
375 5.76
376 1.52

>  <PREDICTED SPECTRUM>  (4256) 
39 33
50 15
51 117
52 118
53 138
54 178
55 387
56 238
57 454
58 112
59 24
60 51
61 29
62 34
63 180
64 163
65 416
66 147
67 225
68 125
69 373
70 160
71 272
72 108
73 49
74 2
75 44
76 6
77 51
78 106
79 163
80 173
81 172
82 104
83 257
84 156
85 233
86 9
87 87
89 64
90 32
91 117
92 999
93 781
94 219
95 160
96 50
97 198
98 60
99 115
101 47
105 27
106 129
107 161
108 784
109 543
110 273
111 141
113 58
115 19
120 103
121 52
123 18
125 68
127 0
131 5
132 49
133 82
134 88
135 69
139 29
143 14
144 4
146 18
147 21
148 81
149 27
150 14
151 613
152 166
153 60
155 26
162 3
163 17
164 718
165 277
166 171
167 63
174 8
177 10
178 168
179 155
180 25
181 37
192 114
193 36
195 35
204 24
206 218
207 109
218 7
219 24
220 211
221 26
234 142
235 55
246 4
248 249
249 110
262 225
263 71
264 28
265 31
276 274
277 156
278 53
290 301
291 133
292 4
304 269
305 136
316 70
318 207
319 60
320 1
332 255
333 128
346 159
347 24
360 326
361 147
362 16
374 108
375 209
376 87
377 19

$$$$

     RDKit          2D

 29 28  0  0  0  0  0  0  0  0999 V2000
   -9.7428    4.8750    0.0000 C   0  0  0  0  0  0  0  0  0  0  0  0
    0.6495   12.3750    0.0000 C   0  0  0  0  0  0  0  0  0  0  0  0
    1.9486    7.1250    0.0000 C   0  0  0  0  0  0  0  0  0  0  0  0
   -0.6495    2.6250    0.0000 C   0  0  0  0  0  0  0  0  0  0  0  0
   -5.8457   10.1250    0.0000 C   0  0  0  0  0  0  0  0  0  0  0  0
   -5.8457    2.6250    0.0000 C   0  0  0  0  0  0  0  0  0  0  0  0
   -5.8457    5.6250    0.0000 C   0  0  0  0  0  0  0  0  0  0  0  0
   -5.8457    7.1250    0.0000 H   0  0  0  0  0  0  0  0  0  0  0  0
   -1.9486    9.3750    0.0000 C   0  0  0  0  0  0  0  0  0  0  0  0
   -8.4437    5.6250    0.0000 C   0  0  0  0  0  0  0  0  0  0  0  0
   -0.6495   11.6250    0.0000 C   0  0  0  0  0  0  0  0  0  0  0  0
    0.6495    7.8750    0.0000 C   0  0  0  0  0  0  0  0  0  0  0  0
   -1.9486    3.3750    0.0000 C   0  0  0  0  0  0  0  0  0  0  0  0
   -4.5466    9.3750    0.0000 C   0  0  0  0  0  0  0  0  0  0  0  0
   -4.5466    4.8750    0.0000 C   0  0  0  0  0  0  0  0  0  0  0  0
   -1.9486    7.8750    0.0000 C   0  0  0  0  0  0  0  0  0  0  0  0
   -3.2476    5.6250    0.0000 C   0  0  0  0  0  0  0  0  0  0  0  0
   -3.2476    7.1250    0.0000 C   0  0  0  0  0  0  0  0  0  0  0  0
   -8.4437    7.1250    0.0000 O   0  0  0  0  0  0  0  0  0  0  0  0
   -1.9486   12.3750    0.0000 O   0  0  0  0  0  0  0  0  0  0  0  0
    0.6495    9.3750    0.0000 O   0  0  0  0  0  0  0  0  0  0  0  0
   -3.2476    2.6250    0.0000 O   0  0  0  0  0  0  0  0  0  0  0  0
   -3.2476   10.1250    0.0000 O   0  0  0  0  0  0  0  0  0  0  0  0
   -4.5466    3.3750    0.0000 O   0  0  0  0  0  0  0  0  0  0  0  0
   -7.1447    4.8750    0.0000 O   0  0  0  0  0  0  0  0  0  0  0  0
   -0.6495   10.1250    0.0000 O   0  0  0  0  0  0  0  0  0  0  0  0
   -0.6495    7.1250    0.0000 O   0  0  0  0  0  0  0  0  0  0  0  0
   -1.9486    4.8750    0.0000 O   0  0  0  0  0  0  0  0  0  0  0  0
   -4.5466    7.8750    0.0000 O   0  0  0  0  0  0  0  0  0  0  0  0
  7  8  1  0
 10  1  1  0
 11  2  1  0
 12  3  1  0
 13  4  1  0
 14  5  1  0
 15  7  1  0
 16  9  1  0
 17 15  1  0
 18 16  1  0
 18 17  1  0
 19 10  2  0
 20 11  2  0
 21 12  2  0
 22 13  2  0
 23 14  2  0
 24  6  1  0
 24 15  1  0
 25  7  1  0
 25 10  1  0
 26  9  1  0
 26 11  1  0
 27 12  1  0
 27 16  1  0
 28 13  1  0
 28 17  1  0
 29 14  1  0
 29 18  1  0
M  ISO  1   8   2
M  END
>  <NAME>  (4257) 
1,3,4,5,6-PENTA-O-ACETYL-2-O-METHYLHEXITOL(1-D)

>  <SYNONYMS>  (4257) 
1,3,4,5,6-PENTACETOXY-2-METHOXYHEXANE (1-D)

>  <SPECTRUM TYPE>  (4257) 
MS1

>  <INSTRUMENT TYPE>  (4257) 
EI-B

>  <INSTRUMENT>  (4257) 
SHIMADZU LKB-9000B

>  <ION MODE>  (4257) 
P

>  <INCHIKEY>  (4257) 
ICWCFTONPLAURK-WHRKIXHSSA-N

>  <FORMULA>  (4257) 
C17H26O11

>  <EXACT MASS>  (4257) 
407.153788398

>  <MW>  (4257) 
407

>  <ID>  (4257) 
JP004510

>  <CONTRIBUTOR>  (4257) 
University of Tokyo Team, {Faculty of Engineering, University of Tokyo

>  <COMMENT>  (4257) 
SMILES=CC(=O)OCC(OC(C)=O)C(OC(C)=O)C(OC(C)=O)C(OC)C([2H])OC(C)=O
InChI=InChI=1S/C17H26O11/c1-9(18)24-7-14(23-6)16(27-12(4)21)17(28-13(5)22)15(26-11(3)20)8-25-10(2)19/h14-17H,7-8H2,1-6H3/i7D
computed SMILES=[H]C(OC(=O)C)C(OC)C(OC(=O)C)C(OC(=O)C)C(OC(=O)C)COC(=O)C
accession=JP004510
date=2016.01.19 (Created 2008.10.21, modified 2011.05.06)
author=SEYAMA Y, DEPT. OF PHYSIOL. CHEMISTRY AND NUTRITION, FAC. OF MEDICINE, UNIV. OF TOKYO
license=CC BY-NC-SA
exact mass=406.14751
ionization energy=70 eV
ion type=[M]+*
computed spectral entropy=2.290478939578793
computed normalized entropy=0.594906787096024
SPLASH=splash10-014l-5900000000-58ac27d98dad7343912f
submitter=submitter = University of Tokyo Team (Faculty of Engineering, University of Tokyo)
MoNA Rating=3.75

>  <NUM PEAKS>  (4257) 
47

>  <MASS SPECTRAL PEAKS>  (4257) 
43 80.1
44 1.9
45 1.9
59 0.54
61 1.1
69 1
73 1.2
74 0.17
85 2.8
86 1.4
87 5.3
88 0.18
97 9.3
98 1.5
100 1.4
101 0.1
103 3
112 1.4
113 1.1
115 0.51
116 1.2
117 2.6
118 99.99
119 0.59
120 1
126 1.1
127 1.1
128 0.18
129 9.7
130 2.3
139 20
140 0.32
145 2.5
148 1.1
154 1.2
157 0.33
160 4.9
161 2.2
171 3.1
172 0.13
187 1.3
189 1.5
202 1.8
231 0.11
259 4.8
333 6.1
334 1.1

>  <PREDICTED SPECTRUM>  (4257) 
40 48
41 208
42 74
43 999
44 265
45 219
49 22
50 48
51 65
52 25
53 31
54 28
55 125
56 218
57 58
58 94
59 102
60 213
61 211
63 13
65 65
66 49
68 133
69 317
70 206
71 180
72 117
73 415
74 261
75 125
76 52
78 48
80 25
81 159
82 130
83 197
84 193
85 506
86 183
87 170
88 296
89 184
90 19
91 24
92 61
96 20
97 213
98 369
99 383
100 345
101 186
102 258
103 716
104 151
106 86
108 47
109 22
110 150
111 106
112 284
113 168
114 232
115 940
116 396
117 457
118 278
119 119
120 63
124 24
125 107
126 298
127 486
128 346
129 345
130 287
131 153
132 176
133 73
134 44
139 262
140 284
141 166
142 188
143 280
144 272
145 881
146 27
148 73
153 20
154 192
155 37
156 39
157 566
158 329
159 319
160 278
161 175
162 70
168 23
170 218
171 170
172 197
173 55
174 40
175 31
184 47
185 256
186 285
187 482
188 115
189 48
190 266
191 117
200 149
201 23
202 330
203 270
204 132
214 125
215 170
216 132
217 584
218 120
219 32
220 23
227 82
228 68
229 39
230 55
232 372
233 140
234 5
244 27
245 361
246 113
260 22
261 34
262 284
264 11
274 146
275 35
287 1
289 258
290 40
292 64
304 16
305 34
316 53
321 22
334 313
335 104
347 73
348 253
362 23
376 6

$$$$

     RDKit          2D

 25 24  0  0  0  0  0  0  0  0999 V2000
    3.5724    5.0625    0.0000 C   0  0  0  0  0  0  0  0  0  0  0  0
   -6.8200    9.5625    0.0000 C   0  0  0  0  0  0  0  0  0  0  0  0
   -0.3248    1.3125    0.0000 C   0  0  0  0  0  0  0  0  0  0  0  0
   -9.4180    5.0625    0.0000 C   0  0  0  0  0  0  0  0  0  0  0  0
   -5.5209    2.8125    0.0000 C   0  0  0  0  0  0  0  0  0  0  0  0
   -4.2219    8.0625    0.0000 C   0  0  0  0  0  0  0  0  0  0  0  0
   -6.8200    5.0625    0.0000 C   0  0  0  0  0  0  0  0  0  0  0  0
   -0.3248    5.8125    0.0000 C   0  0  0  0  0  0  0  0  0  0  0  0
   -0.3248    7.3125    0.0000 H   0  0  0  0  0  0  0  0  0  0  0  0
    2.2733    5.8125    0.0000 C   0  0  0  0  0  0  0  0  0  0  0  0
   -6.8200    8.0625    0.0000 C   0  0  0  0  0  0  0  0  0  0  0  0
   -0.3248    2.8125    0.0000 C   0  0  0  0  0  0  0  0  0  0  0  0
   -5.5209    5.8125    0.0000 C   0  0  0  0  0  0  0  0  0  0  0  0
   -1.6238    5.0625    0.0000 C   0  0  0  0  0  0  0  0  0  0  0  0
   -4.2219    5.0625    0.0000 C   0  0  0  0  0  0  0  0  0  0  0  0
   -2.9228    5.8125    0.0000 C   0  0  0  0  0  0  0  0  0  0  0  0
    2.2733    7.3125    0.0000 O   0  0  0  0  0  0  0  0  0  0  0  0
   -8.1190    7.3125    0.0000 O   0  0  0  0  0  0  0  0  0  0  0  0
    0.9743    3.5625    0.0000 O   0  0  0  0  0  0  0  0  0  0  0  0
   -8.1190    5.8125    0.0000 O   0  0  0  0  0  0  0  0  0  0  0  0
   -4.2219    3.5625    0.0000 O   0  0  0  0  0  0  0  0  0  0  0  0
   -2.9228    7.3125    0.0000 O   0  0  0  0  0  0  0  0  0  0  0  0
    0.9743    5.0625    0.0000 O   0  0  0  0  0  0  0  0  0  0  0  0
   -5.5209    7.3125    0.0000 O   0  0  0  0  0  0  0  0  0  0  0  0
   -1.6238    3.5625    0.0000 O   0  0  0  0  0  0  0  0  0  0  0  0
  8  9  1  0
 10  1  1  0
 11  2  1  0
 12  3  1  0
 13  7  1  0
 14  8  1  0
 15 13  1  0
 16 14  1  0
 16 15  1  0
 17 10  2  0
 18 11  2  0
 19 12  2  0
 20  4  1  0
 20  7  1  0
 21  5  1  0
 21 15  1  0
 22  6  1  0
 22 16  1  0
 23  8  1  0
 23 10  1  0
 24 11  1  0
 24 13  1  0
 25 12  1  0
 25 14  1  0
M  ISO  1   9   2
M  END
>  <NAME>  (4258) 
1,2,5-TRI-O-ACETYL-3,4,6-TRI-O-METHYLHEXITOL (1-D)

>  <SYNONYMS>  (4258) 
1,2,5-TRIACETOXY-3,4,6-TRIMETHOXYHEXANE (1-D)

>  <SPECTRUM TYPE>  (4258) 
MS1

>  <INSTRUMENT TYPE>  (4258) 
EI-B

>  <INSTRUMENT>  (4258) 
SHIMADZU LKB-9000B

>  <ION MODE>  (4258) 
P

>  <INCHIKEY>  (4258) 
JTIPYRUUQYKTIG-BNEYPBHNSA-N

>  <FORMULA>  (4258) 
C15H26O9

>  <EXACT MASS>  (4258) 
351.163959158

>  <MW>  (4258) 
351

>  <ID>  (4258) 
JP004509

>  <CONTRIBUTOR>  (4258) 
University of Tokyo Team, {Faculty of Engineering, University of Tokyo

>  <COMMENT>  (4258) 
SMILES=COCC(OC(C)=O)C(OC)C(OC)C(OC(C)=O)C([H])([2H])OC(C)=O
InChI=InChI=1S/C15H26O9/c1-9(16)22-8-13(24-11(3)18)15(21-6)14(20-5)12(7-19-4)23-10(2)17/h12-15H,7-8H2,1-6H3/i8D
computed SMILES=[H]C(OC(=O)C)C(OC(=O)C)C(OC)C(OC)C(OC(=O)C)COC
accession=JP004509
date=2016.01.19 (Created 2008.10.21, modified 2011.05.06)
author=SEYAMA Y, DEPT. OF PHYSIOL. CHEMISTRY AND NUTRITION, FAC. OF MEDICINE, UNIV. OF TOKYO
license=CC BY-NC-SA
exact mass=350.15768
ionization energy=70 eV
ion type=[M]+*
computed spectral entropy=2.7593365897396964
computed normalized entropy=0.6949958969820399
SPLASH=splash10-01rx-4900000000-ae5f849b4266971a30eb
submitter=submitter = University of Tokyo Team (Faculty of Engineering, University of Tokyo)
MoNA Rating=3.75

>  <NUM PEAKS>  (4258) 
53

>  <MASS SPECTRAL PEAKS>  (4258) 
41 1.9
42 2.2
43 72.6
44 0.25
45 27.2
46 1.2
57 1
59 0.25
60 1
70 1.7
71 8.5
72 0.54
73 1.5
74 5.8
75 4
85 0.27
86 1.2
87 25.3
88 30
89 0.61
98 1.5
99 2.7
100 16.3
101 1.97
102 4.7
103 1.2
104 1.7
112 0.15
113 5
114 3.7
115 1.9
116 0.15
117 3.9
118 3.2
119 5.2
126 0.13
129 99.99
130 89.7
131 10.3
132 0.2
143 1.2
144 1.1
145 10.8
146 0.12
160 2
161 69
162 5.9
174 0.22
189 1.9
190 44.3
191 3.8
205 0.21
234 1.6

>  <PREDICTED SPECTRUM>  (4258) 
33 25
40 21
41 111
42 136
43 966
44 161
45 621
46 59
47 24
48 29
51 23
52 15
53 66
54 54
55 165
56 121
57 132
58 218
59 306
60 110
61 44
66 30
67 9
68 67
69 155
70 170
71 337
72 142
73 199
74 459
75 385
76 34
77 43
80 2
81 72
82 28
83 98
84 177
85 346
86 142
87 707
88 196
89 209
90 36
91 59
93 17
95 32
96 32
97 157
98 158
99 420
100 241
101 636
102 282
103 181
104 91
105 72
110 26
111 191
112 257
113 328
114 108
115 89
116 182
117 579
118 155
119 83
120 16
125 21
126 141
127 180
128 103
129 999
130 351
131 222
132 62
133 5
139 33
140 95
141 7
142 163
143 108
144 205
145 68
146 77
147 77
148 32
154 36
155 38
156 28
157 100
158 148
159 82
160 143
161 635
162 145
163 36
171 20
172 135
174 170
176 2
185 62
186 111
188 82
189 92
190 145
191 15
192 87
202 50
203 33
204 58
205 23
206 42
207 21
218 102
221 24
222 2
232 36
233 136
234 149
292 25
307 1
336 43

$$$$

     RDKit          2D

 23 22  0  0  0  0  0  0  0  0999 V2000
    3.5724    5.0625    0.0000 C   0  0  0  0  0  0  0  0  0  0  0  0
   -6.8200    9.5625    0.0000 C   0  0  0  0  0  0  0  0  0  0  0  0
   -9.4180    5.0625    0.0000 C   0  0  0  0  0  0  0  0  0  0  0  0
   -0.3248    2.8125    0.0000 C   0  0  0  0  0  0  0  0  0  0  0  0
   -4.2219    8.0625    0.0000 C   0  0  0  0  0  0  0  0  0  0  0  0
   -5.5209    2.8125    0.0000 C   0  0  0  0  0  0  0  0  0  0  0  0
   -6.8200    5.0625    0.0000 C   0  0  0  0  0  0  0  0  0  0  0  0
   -0.3248    5.8125    0.0000 C   0  0  0  0  0  0  0  0  0  0  0  0
   -0.3248    7.3125    0.0000 H   0  0  0  0  0  0  0  0  0  0  0  0
    2.2733    5.8125    0.0000 C   0  0  0  0  0  0  0  0  0  0  0  0
   -6.8200    8.0625    0.0000 C   0  0  0  0  0  0  0  0  0  0  0  0
   -1.6238    5.0625    0.0000 C   0  0  0  0  0  0  0  0  0  0  0  0
   -5.5209    5.8125    0.0000 C   0  0  0  0  0  0  0  0  0  0  0  0
   -2.9228    5.8125    0.0000 C   0  0  0  0  0  0  0  0  0  0  0  0
   -4.2219    5.0625    0.0000 C   0  0  0  0  0  0  0  0  0  0  0  0
    2.2733    7.3125    0.0000 O   0  0  0  0  0  0  0  0  0  0  0  0
   -8.1190    7.3125    0.0000 O   0  0  0  0  0  0  0  0  0  0  0  0
   -8.1190    5.8125    0.0000 O   0  0  0  0  0  0  0  0  0  0  0  0
   -1.6238    3.5625    0.0000 O   0  0  0  0  0  0  0  0  0  0  0  0
   -2.9228    7.3125    0.0000 O   0  0  0  0  0  0  0  0  0  0  0  0
   -4.2219    3.5625    0.0000 O   0  0  0  0  0  0  0  0  0  0  0  0
    0.9743    5.0625    0.0000 O   0  0  0  0  0  0  0  0  0  0  0  0
   -5.5209    7.3125    0.0000 O   0  0  0  0  0  0  0  0  0  0  0  0
  8  9  1  0
 10  1  1  0
 11  2  1  0
 12  8  1  0
 13  7  1  0
 14 12  1  0
 15 13  1  0
 15 14  1  0
 16 10  2  0
 17 11  2  0
 18  3  1  0
 18  7  1  0
 19  4  1  0
 19 12  1  0
 20  5  1  0
 20 14  1  0
 21  6  1  0
 21 15  1  0
 22  8  1  0
 22 10  1  0
 23 11  1  0
 23 13  1  0
M  ISO  1   9   2
M  END
>  <NAME>  (4259) 
1,5-DI-O-ACETYL-2,3,4,6-TETRA-O-METHYLHEXITOL (1-D)

>  <SYNONYMS>  (4259) 
1,5-DIACETOXY-2,3,4,6-TETRAMETHOXYHEXANE (1-D)

>  <SPECTRUM TYPE>  (4259) 
MS1

>  <INSTRUMENT TYPE>  (4259) 
EI-B

>  <INSTRUMENT>  (4259) 
SHIMADZU LKB-9000B

>  <ION MODE>  (4259) 
P

>  <INCHIKEY>  (4259) 
OVCJDQPBVXUBBF-BNEYPBHNSA-N

>  <FORMULA>  (4259) 
C14H26O8

>  <EXACT MASS>  (4259) 
323.169044538

>  <MW>  (4259) 
323

>  <ID>  (4259) 
JP004508

>  <CONTRIBUTOR>  (4259) 
University of Tokyo Team, {Faculty of Engineering, University of Tokyo

>  <COMMENT>  (4259) 
SMILES=COCC(OC(C)=O)C(OC)C(OC)C(OC)C([H])([2H])OC(C)=O
InChI=InChI=1S/C14H26O8/c1-9(15)21-8-11(18-4)13(19-5)14(20-6)12(7-17-3)22-10(2)16/h11-14H,7-8H2,1-6H3/i8D
computed SMILES=[H]C(OC(=O)C)C(OC)C(OC)C(OC)C(OC(=O)C)COC
accession=JP004508
date=2016.01.19 (Created 2008.10.21, modified 2011.05.06)
author=SEYAMA Y, DEPT. OF PHYSIOL. CHEMISTRY AND NUTRITION, FAC. OF MEDICINE, UNIV. OF TOKYO
license=CC BY-NC-SA
exact mass=322.16277
ionization energy=70 eV
ion type=[M]+*
computed spectral entropy=2.843368867612918
computed normalized entropy=0.7161611613260512
SPLASH=splash10-0ftf-6900000000-0dbc3b47ac9fe4120a9d
submitter=submitter = University of Tokyo Team (Faculty of Engineering, University of Tokyo)
MoNA Rating=3.75

>  <NUM PEAKS>  (4259) 
53

>  <MASS SPECTRAL PEAKS>  (4259) 
41 1.9
42 2.2
43 99.99
44 0.33
45 31.2
46 2
55 1.5
57 0.12
59 4.6
60 1.1
70 1.1
71 1.16
72 3.8
73 3.3
74 3.6
75 0.72
76 1.6
81 1.3
85 4.3
86 0.12
87 19.7
88 10.3
89 7.9
90 0.11
98 2.8
99 4
100 2.8
101 2.21
102 58.1
103 4
113 11.5
114 0.17
115 2
117 10.5
118 68.2
119 0.7
120 1
129 55.4
130 5.3
131 0.57
132 3.4
142 1.3
143 1.3
145 6.22
146 5.6
157 1.3
161 32.1
162 2.14
163 2
173 1.4
174 1.6
205 2.84
206 2.9

>  <PREDICTED SPECTRUM>  (4259) 
29 11
33 25
40 35
41 167
42 175
43 916
44 192
45 671
46 63
47 33
48 24
51 34
52 7
53 94
54 44
55 207
56 94
57 140
58 208
59 361
60 137
61 70
65 0
67 33
68 40
69 94
70 111
71 400
72 129
73 209
74 424
75 473
76 81
77 98
79 13
81 100
82 40
83 190
84 165
85 370
86 101
87 635
88 288
89 388
90 51
91 48
93 18
97 132
98 136
99 408
100 213
101 795
102 308
103 39
104 69
105 46
107 21
109 18
111 198
112 170
113 266
114 159
115 124
116 249
117 554
118 146
119 84
120 30
121 15
126 159
127 236
128 48
129 999
130 370
131 304
132 162
133 72
134 129
135 17
139 6
141 54
142 90
143 72
144 163
145 243
146 189
147 25
148 27
157 39
158 134
160 89
161 731
162 173
163 63
164 37
174 96
175 49
176 83
177 42
181 23
190 93
193 22
194 0
204 54
205 119
206 246
207 36
208 20
209 36
221 4
233 123
234 33
278 36

$$$$

     RDKit          2D

 28 27  0  0  0  0  0  0  0  0999 V2000
   -0.6495    1.8750    0.0000 C   0  0  0  0  0  0  0  0  0  0  0  0
    3.2476    5.6250    0.0000 C   0  0  0  0  0  0  0  0  0  0  0  0
   -7.1447   10.1250    0.0000 C   0  0  0  0  0  0  0  0  0  0  0  0
   -5.8457    1.8750    0.0000 C   0  0  0  0  0  0  0  0  0  0  0  0
   -3.2476    3.3750    0.0000 C   0  0  0  0  0  0  0  0  0  0  0  0
   -9.7428    5.6250    0.0000 C   0  0  0  0  0  0  0  0  0  0  0  0
   -4.5466    8.6250    0.0000 C   0  0  0  0  0  0  0  0  0  0  0  0
   -0.6495    6.3750    0.0000 C   0  0  0  0  0  0  0  0  0  0  0  0
   -0.6495    7.8750    0.0000 H   0  0  0  0  0  0  0  0  0  0  0  0
   -7.1447    5.6250    0.0000 C   0  0  0  0  0  0  0  0  0  0  0  0
   -0.6495    3.3750    0.0000 C   0  0  0  0  0  0  0  0  0  0  0  0
    1.9486    6.3750    0.0000 C   0  0  0  0  0  0  0  0  0  0  0  0
   -7.1447    8.6250    0.0000 C   0  0  0  0  0  0  0  0  0  0  0  0
   -5.8457    3.3750    0.0000 C   0  0  0  0  0  0  0  0  0  0  0  0
   -1.9486    5.6250    0.0000 C   0  0  0  0  0  0  0  0  0  0  0  0
   -5.8457    6.3750    0.0000 C   0  0  0  0  0  0  0  0  0  0  0  0
   -3.2476    6.3750    0.0000 C   0  0  0  0  0  0  0  0  0  0  0  0
   -4.5466    5.6250    0.0000 C   0  0  0  0  0  0  0  0  0  0  0  0
   -1.9486    4.1250    0.0000 N   0  0  0  0  0  0  0  0  0  0  0  0
    0.6495    4.1250    0.0000 O   0  0  0  0  0  0  0  0  0  0  0  0
    1.9486    7.8750    0.0000 O   0  0  0  0  0  0  0  0  0  0  0  0
   -8.4437    7.8750    0.0000 O   0  0  0  0  0  0  0  0  0  0  0  0
   -7.1447    4.1250    0.0000 O   0  0  0  0  0  0  0  0  0  0  0  0
   -8.4437    6.3750    0.0000 O   0  0  0  0  0  0  0  0  0  0  0  0
   -3.2476    7.8750    0.0000 O   0  0  0  0  0  0  0  0  0  0  0  0
    0.6495    5.6250    0.0000 O   0  0  0  0  0  0  0  0  0  0  0  0
   -5.8457    7.8750    0.0000 O   0  0  0  0  0  0  0  0  0  0  0  0
   -4.5466    4.1250    0.0000 O   0  0  0  0  0  0  0  0  0  0  0  0
  8  9  1  0
 11  1  1  0
 12  2  1  0
 13  3  1  0
 14  4  1  0
 15  8  1  0
 16 10  1  0
 17 15  1  0
 18 16  1  0
 18 17  1  0
 19  5  1  0
 19 11  1  0
 19 15  1  0
 20 11  2  0
 21 12  2  0
 22 13  2  0
 23 14  2  0
 24  6  1  0
 24 10  1  0
 25  7  1  0
 25 17  1  0
 26  8  1  0
 26 12  1  0
 27 13  1  0
 27 16  1  0
 28 14  1  0
 28 18  1  0
M  ISO  1   9   2
M  END
>  <NAME>  (4260) 
1,4,5-TRI-O-ACETYL-3,6-DI-O-METHYL-2-N-METHYLACETAMIDO-2-DEOXYHEXITOL (1-D)

>  <SYNONYMS>  (4260) 
1,4,5-TRIACETOXY-3,6-DIMETHOXY-2-N-METHYLACETAMIDOHEXANE (1-D)

>  <SPECTRUM TYPE>  (4260) 
MS1

>  <INSTRUMENT TYPE>  (4260) 
EI-B

>  <INSTRUMENT>  (4260) 
SHIMADZU LKB-9000B

>  <ION MODE>  (4260) 
P

>  <INCHIKEY>  (4260) 
AWYJVKOIRCMUHE-BNEYPBHNSA-N

>  <FORMULA>  (4260) 
C17H29NO9

>  <EXACT MASS>  (4260) 
392.190508254

>  <MW>  (4260) 
392

>  <ID>  (4260) 
JP004507

>  <CONTRIBUTOR>  (4260) 
University of Tokyo Team, {Faculty of Engineering, University of Tokyo

>  <COMMENT>  (4260) 
SMILES=COCC(OC(C)=O)C(OC(C)=O)C(OC)C(C([2H])OC(C)=O)N(C)C(C)=O
InChI=InChI=1S/C17H29NO9/c1-10(19)18(5)14(8-25-11(2)20)16(24-7)17(27-13(4)22)15(9-23-6)26-12(3)21/h14-17H,8-9H2,1-7H3/i8D
computed SMILES=[H]C(OC(=O)C)C(N(C(=O)C)C)C(OC)C(OC(=O)C)C(OC(=O)C)COC
accession=JP004507
date=2016.01.19 (Created 2008.10.21, modified 2011.05.06)
author=SEYAMA Y, DEPT. OF PHYSIOL. CHEMISTRY AND NUTRITION, FAC. OF MEDICINE, UNIV. OF TOKYO
license=CC BY-NC-SA
exact mass=391.18423
ionization energy=70 eV
ion type=[M]+*
computed spectral entropy=2.5882952829455674
computed normalized entropy=0.6839761040901036
SPLASH=splash10-066r-2910000000-d6f05c17ff402cb410b0
submitter=submitter = University of Tokyo Team (Faculty of Engineering, University of Tokyo)
MoNA Rating=3.75

>  <NUM PEAKS>  (4260) 
44

>  <MASS SPECTRAL PEAKS>  (4260) 
42 2.7
43 26.2
44 1
45 0.64
56 1.9
57 1.8
58 2.5
71 0.17
72 2.2
73 1.1
74 3.6
75 1.75
85 1.6
86 1.8
87 8.6
88 0.33
98 2.4
99 10.2
100 3.5
101 0.16
112 1
113 12.8
114 1.6
115 0.14
116 5
117 99.99
118 5.8
124 0.21
129 5.8
130 1.7
131 3.8
142 0.49
143 10.9
144 1.1
156 2.1
158 0.3
159 60.6
160 5.1
171 2.1
173 0.26
203 3.7
233 26.7
234 3.1
261 1.4

>  <PREDICTED SPECTRUM>  (4260) 
39 27
41 162
42 126
43 785
44 267
45 618
46 50
51 25
52 76
53 112
54 98
55 116
56 194
57 328
58 427
59 286
60 236
61 143
65 95
66 65
67 32
68 153
69 313
70 170
71 429
72 317
73 324
74 320
75 98
77 162
78 180
79 130
80 116
81 150
82 129
83 115
84 89
85 534
86 201
87 999
88 126
89 220
90 28
91 164
92 70
93 83
94 46
95 123
96 81
97 136
98 450
99 696
100 684
101 285
102 191
103 329
104 120
105 112
106 3
107 73
108 66
109 112
110 67
111 337
112 333
113 218
114 199
115 416
116 435
117 487
118 142
119 56
120 47
121 4
125 115
126 275
127 358
128 396
129 844
130 152
131 249
132 127
133 77
134 45
135 51
139 236
140 391
141 262
142 952
143 303
144 143
145 250
146 121
147 147
148 30
154 630
155 552
156 118
157 292
158 200
159 460
160 178
161 16
166 29
167 134
168 168
169 211
170 169
171 363
172 78
173 232
174 169
175 215
176 121
183 199
184 161
185 384
186 147
187 271
188 108
189 58
191 28
195 1
196 76
197 102
198 197
199 424
200 167
201 270
202 167
203 182
204 5
212 160
213 333
214 100
215 231
216 107
217 118
218 35
227 136
228 22
229 155
230 123
233 87
241 51
242 172
243 235
244 8
245 395
246 234
247 222
259 157
261 46
271 60
272 26
273 183
275 131
288 17
289 17
332 243
333 231
346 25
348 20
377 32

$$$$

     RDKit          2D

 26 25  0  0  0  0  0  0  0  0999 V2000
   -0.3248    1.3125    0.0000 C   0  0  0  0  0  0  0  0  0  0  0  0
    3.5724    5.0625    0.0000 C   0  0  0  0  0  0  0  0  0  0  0  0
   -6.8200    9.5625    0.0000 C   0  0  0  0  0  0  0  0  0  0  0  0
   -2.9228    2.8125    0.0000 C   0  0  0  0  0  0  0  0  0  0  0  0
   -9.4180    5.0625    0.0000 C   0  0  0  0  0  0  0  0  0  0  0  0
   -4.2219    8.0625    0.0000 C   0  0  0  0  0  0  0  0  0  0  0  0
   -5.5209    2.8125    0.0000 C   0  0  0  0  0  0  0  0  0  0  0  0
   -0.3248    5.8125    0.0000 C   0  0  0  0  0  0  0  0  0  0  0  0
   -0.3248    7.3125    0.0000 H   0  0  0  0  0  0  0  0  0  0  0  0
   -6.8200    5.0625    0.0000 C   0  0  0  0  0  0  0  0  0  0  0  0
   -0.3248    2.8125    0.0000 C   0  0  0  0  0  0  0  0  0  0  0  0
    2.2733    5.8125    0.0000 C   0  0  0  0  0  0  0  0  0  0  0  0
   -6.8200    8.0625    0.0000 C   0  0  0  0  0  0  0  0  0  0  0  0
   -1.6238    5.0625    0.0000 C   0  0  0  0  0  0  0  0  0  0  0  0
   -5.5209    5.8125    0.0000 C   0  0  0  0  0  0  0  0  0  0  0  0
   -2.9228    5.8125    0.0000 C   0  0  0  0  0  0  0  0  0  0  0  0
   -4.2219    5.0625    0.0000 C   0  0  0  0  0  0  0  0  0  0  0  0
   -1.6238    3.5625    0.0000 N   0  0  0  0  0  0  0  0  0  0  0  0
    0.9743    3.5625    0.0000 O   0  0  0  0  0  0  0  0  0  0  0  0
    2.2733    7.3125    0.0000 O   0  0  0  0  0  0  0  0  0  0  0  0
   -8.1190    7.3125    0.0000 O   0  0  0  0  0  0  0  0  0  0  0  0
   -8.1190    5.8125    0.0000 O   0  0  0  0  0  0  0  0  0  0  0  0
   -2.9228    7.3125    0.0000 O   0  0  0  0  0  0  0  0  0  0  0  0
   -4.2219    3.5625    0.0000 O   0  0  0  0  0  0  0  0  0  0  0  0
    0.9743    5.0625    0.0000 O   0  0  0  0  0  0  0  0  0  0  0  0
   -5.5209    7.3125    0.0000 O   0  0  0  0  0  0  0  0  0  0  0  0
  8  9  1  0
 11  1  1  0
 12  2  1  0
 13  3  1  0
 14  8  1  0
 15 10  1  0
 16 14  1  0
 17 15  1  0
 17 16  1  0
 18  4  1  0
 18 11  1  0
 18 14  1  0
 19 11  2  0
 20 12  2  0
 21 13  2  0
 22  5  1  0
 22 10  1  0
 23  6  1  0
 23 16  1  0
 24  7  1  0
 24 17  1  0
 25  8  1  0
 25 12  1  0
 26 13  1  0
 26 15  1  0
M  ISO  1   9   2
M  END
>  <NAME>  (4261) 
1,5-DI-O-ACETYL-3,4,6-TRI-O-METHYL-2-N-METHYLACETAMIDO-2-DEOXYHEXITOL (1-D)

>  <SYNONYMS>  (4261) 
1,5-DIACETOXY-3,4,6-TRIMETHOXY-2-N-METHYLACETAMIDOHEXANE (1-D)

>  <SPECTRUM TYPE>  (4261) 
MS1

>  <INSTRUMENT TYPE>  (4261) 
EI-B

>  <INSTRUMENT>  (4261) 
SHIMADZU LKB-9000B

>  <ION MODE>  (4261) 
P

>  <INCHIKEY>  (4261) 
VQVCINYAHOCEMY-BNEYPBHNSA-N

>  <FORMULA>  (4261) 
C16H29NO8

>  <EXACT MASS>  (4261) 
364.195593634

>  <MW>  (4261) 
364

>  <ID>  (4261) 
JP004506

>  <CONTRIBUTOR>  (4261) 
University of Tokyo Team, {Faculty of Engineering, University of Tokyo

>  <COMMENT>  (4261) 
SMILES=COCC(OC(C)=O)C(OC)C(OC)C(N(C)C(C)=O)C([H])([2H])OC(C)=O
InChI=InChI=1S/C16H29NO8/c1-10(18)17(4)13(8-24-11(2)19)15(22-6)16(23-7)14(9-21-5)25-12(3)20/h13-16H,8-9H2,1-7H3/i8D
computed SMILES=[H]C(OC(=O)C)C(N(C(=O)C)C)C(OC)C(OC)C(OC(=O)C)COC
accession=JP004506
date=2016.01.19 (Created 2008.10.21, modified 2011.05.06)
author=SEYAMA Y, DEPT. OF PHYSIOL. CHEMISTRY AND NUTRITION, FAC. OF MEDICINE, UNIV. OF TOKYO
license=CC BY-NC-SA
exact mass=363.18932
ionization energy=70 eV
ion type=[M]+*
computed spectral entropy=2.958226414555861
computed normalized entropy=0.7415989585377739
SPLASH=splash10-066u-3910000000-1f79d30b460d3345a248
submitter=submitter = University of Tokyo Team (Faculty of Engineering, University of Tokyo)
MoNA Rating=3.75

>  <NUM PEAKS>  (4261) 
54

>  <MASS SPECTRAL PEAKS>  (4261) 
41 1.5
42 4.1
43 33.1
44 0.15
45 16.5
56 3
57 2.7
58 0.32
59 1.7
69 1.2
70 1.2
71 0.4
72 3.5
73 2.2
74 3.6
75 2.35
85 2.2
86 1.5
87 10.8
88 0.55
89 3.7
98 2.6
99 5.8
100 0.9
101 8.6
113 7.8
114 1.3
115 0.25
116 5.5
117 99.99
118 6.1
119 0.21
129 26.4
130 3.2
131 3.5
142 0.39
143 31.7
144 2.9
145 33
146 0.26
158 3
159 51.6
160 4.3
161 1.44
162 1.1
171 2.1
173 1.5
202 0.13
203 23.9
204 2.7
205 28
206 0.28
272 1.4
273 1.4

>  <PREDICTED SPECTRUM>  (4261) 
31 19
33 8
39 17
40 36
41 219
42 204
43 809
44 85
45 538
46 22
51 40
52 47
53 100
54 91
55 179
56 248
57 269
58 297
59 201
60 104
61 128
65 35
66 59
67 97
68 99
69 308
70 194
71 298
72 155
73 209
74 212
75 146
77 68
79 72
80 81
81 163
82 79
83 196
84 190
85 329
86 151
87 614
88 239
89 220
90 25
91 42
92 8
93 36
94 26
95 53
96 54
97 195
98 282
99 440
100 469
101 399
102 147
103 174
104 59
105 78
107 31
108 6
111 230
112 106
113 153
114 196
115 301
116 184
117 311
118 75
119 74
120 42
121 33
125 65
126 236
127 180
128 155
129 999
130 383
131 181
132 116
133 100
134 68
137 0
138 28
139 173
140 96
141 228
142 646
143 189
144 39
145 183
146 151
147 80
148 37
149 14
153 61
154 219
155 212
156 91
157 183
158 61
159 113
161 112
163 72
164 23
167 155
168 202
169 162
170 131
171 194
172 48
173 228
174 138
175 155
176 31
182 85
183 36
184 161
185 223
186 28
187 167
199 167
200 35
201 50
205 38
206 23
213 115
214 41
215 204
216 20
217 70
218 77
219 117
227 82
229 16
231 134
233 178
234 50
245 72
246 40
247 109
248 39
259 208
260 73
261 121
272 14
273 83
275 70
305 46

$$$$

     RDKit          2D

 27 26  0  0  0  0  0  0  0  0999 V2000
   -9.7428    4.8750    0.0000 C   0  0  0  0  0  0  0  0  0  0  0  0
    0.6495   12.3750    0.0000 C   0  0  0  0  0  0  0  0  0  0  0  0
    1.9486    7.1250    0.0000 C   0  0  0  0  0  0  0  0  0  0  0  0
   -0.6495    2.6250    0.0000 C   0  0  0  0  0  0  0  0  0  0  0  0
   -5.8457    2.6250    0.0000 C   0  0  0  0  0  0  0  0  0  0  0  0
   -4.5466    9.3750    0.0000 C   0  0  0  0  0  0  0  0  0  0  0  0
   -5.8457    5.6250    0.0000 C   0  0  0  0  0  0  0  0  0  0  0  0
   -5.8457    7.1250    0.0000 H   0  0  0  0  0  0  0  0  0  0  0  0
   -1.9486    9.3750    0.0000 C   0  0  0  0  0  0  0  0  0  0  0  0
   -8.4437    5.6250    0.0000 C   0  0  0  0  0  0  0  0  0  0  0  0
   -0.6495   11.6250    0.0000 C   0  0  0  0  0  0  0  0  0  0  0  0
    0.6495    7.8750    0.0000 C   0  0  0  0  0  0  0  0  0  0  0  0
   -1.9486    3.3750    0.0000 C   0  0  0  0  0  0  0  0  0  0  0  0
   -4.5466    4.8750    0.0000 C   0  0  0  0  0  0  0  0  0  0  0  0
   -1.9486    7.8750    0.0000 C   0  0  0  0  0  0  0  0  0  0  0  0
   -3.2476    7.1250    0.0000 C   0  0  0  0  0  0  0  0  0  0  0  0
   -3.2476    5.6250    0.0000 C   0  0  0  0  0  0  0  0  0  0  0  0
   -8.4437    7.1250    0.0000 O   0  0  0  0  0  0  0  0  0  0  0  0
   -1.9486   12.3750    0.0000 O   0  0  0  0  0  0  0  0  0  0  0  0
    0.6495    9.3750    0.0000 O   0  0  0  0  0  0  0  0  0  0  0  0
   -3.2476    2.6250    0.0000 O   0  0  0  0  0  0  0  0  0  0  0  0
   -4.5466    3.3750    0.0000 O   0  0  0  0  0  0  0  0  0  0  0  0
   -4.5466    7.8750    0.0000 O   0  0  0  0  0  0  0  0  0  0  0  0
   -7.1447    4.8750    0.0000 O   0  0  0  0  0  0  0  0  0  0  0  0
   -0.6495   10.1250    0.0000 O   0  0  0  0  0  0  0  0  0  0  0  0
   -0.6495    7.1250    0.0000 O   0  0  0  0  0  0  0  0  0  0  0  0
   -1.9486    4.8750    0.0000 O   0  0  0  0  0  0  0  0  0  0  0  0
  7  8  1  0
 10  1  1  0
 11  2  1  0
 12  3  1  0
 13  4  1  0
 14  7  1  0
 15  9  1  0
 16 15  1  0
 17 14  1  0
 17 16  1  0
 18 10  2  0
 19 11  2  0
 20 12  2  0
 21 13  2  0
 22  5  1  0
 22 14  1  0
 23  6  1  0
 23 16  1  0
 24  7  1  0
 24 10  1  0
 25  9  1  0
 25 11  1  0
 26 12  1  0
 26 15  1  0
 27 13  1  0
 27 17  1  0
M  ISO  1   8   2
M  END
>  <NAME>  (4262) 
1,3,5,6-TETRA-O-ACETYL-2,4-DI-O-METHYLHEXITOL (1-D)

>  <SYNONYMS>  (4262) 
1,3,5,6-TETRACETOXY-2,4-DIMETHOXYHEXANE (1-D)

>  <SPECTRUM TYPE>  (4262) 
MS1

>  <INSTRUMENT TYPE>  (4262) 
EI-B

>  <INSTRUMENT>  (4262) 
SHIMADZU LKB-9000B

>  <ION MODE>  (4262) 
P

>  <INCHIKEY>  (4262) 
LYLOENTWFQIZDS-WHRKIXHSSA-N

>  <FORMULA>  (4262) 
C16H26O10

>  <EXACT MASS>  (4262) 
379.15887377800004

>  <MW>  (4262) 
379

>  <ID>  (4262) 
JP004505

>  <CONTRIBUTOR>  (4262) 
University of Tokyo Team, {Faculty of Engineering, University of Tokyo

>  <COMMENT>  (4262) 
SMILES=CC(=O)OCC(OC(C)=O)C(OC)C(OC(C)=O)C(OC)C([2H])OC(C)=O
InChI=InChI=1S/C16H26O10/c1-9(17)23-7-13(21-5)16(26-12(4)20)15(22-6)14(25-11(3)19)8-24-10(2)18/h13-16H,7-8H2,1-6H3/i7D
computed SMILES=[H]C(OC(=O)C)C(OC)C(OC(=O)C)C(OC)C(OC(=O)C)COC(=O)C
accession=JP004505
date=2016.01.19 (Created 2008.10.21, modified 2011.05.06)
author=SEYAMA Y, DEPT. OF PHYSIOL. CHEMISTRY AND NUTRITION, FAC. OF MEDICINE, UNIV. OF TOKYO
license=CC BY-NC-SA
exact mass=378.1526
ionization energy=70 eV
ion type=[M]+*
computed spectral entropy=2.793527549929321
computed normalized entropy=0.6971038894953439
SPLASH=splash10-016r-2900000000-2eacd948660cf506efd6
submitter=submitter = University of Tokyo Team (Faculty of Engineering, University of Tokyo)
MoNA Rating=3.75

>  <NUM PEAKS>  (4262) 
55

>  <MASS SPECTRAL PEAKS>  (4262) 
41 1.8
42 1.7
43 9.8
44 0.24
45 3
58 1.7
59 8.5
60 0.11
61 1
69 3.7
70 2.6
71 0.42
72 1.1
73 1.6
74 6.2
75 0.25
76 1.2
85 2.7
86 5.4
87 3.11
88 2.7
97 3.2
99 3.5
100 0.8
101 13.8
103 1.5
111 1.7
112 0.15
114 3
117 6
118 99.99
119 5.8
126 0.17
128 12.2
129 74.5
130 7.8
139 0.83
140 1.3
142 1.2
143 3.1
144 0.13
145 1.1
148 1.8
157 2.6
159 0.25
160 3.7
174 5.1
185 1.4
189 3.54
190 3.9
202 9.2
231 3.9
234 1.75
235 2.2
245 2.4

>  <PREDICTED SPECTRUM>  (4262) 
33 1
40 17
41 57
42 91
43 999
44 221
45 320
46 2
47 24
48 11
50 13
51 40
52 18
53 37
54 0
55 118
56 66
57 121
58 165
59 143
60 122
61 22
65 13
66 43
68 37
69 113
70 131
71 186
72 106
73 130
74 458
75 251
76 42
77 8
78 20
79 14
80 14
81 50
82 105
83 110
84 97
85 271
86 116
87 720
88 140
89 88
91 37
92 11
94 40
95 60
96 90
97 103
98 190
99 537
100 265
101 430
102 141
103 102
104 82
105 43
111 23
112 159
113 211
114 79
115 150
116 145
117 741
118 164
119 33
120 13
124 10
126 148
127 190
128 40
129 807
130 204
131 124
132 125
133 65
134 17
138 10
139 8
140 78
142 64
143 0
144 72
145 28
146 34
147 8
154 21
155 13
157 0
158 106
159 186
160 28
161 206
162 66
163 19
171 9
172 112
173 37
174 187
175 102
176 62
178 3
186 29
188 94
189 211
190 158
191 81
200 9
202 100
204 72
217 5
218 6
220 72
232 37
233 214
234 103
246 72
249 10
262 84
320 19
336 0

$$$$

     RDKit          2D

 27 26  0  0  0  0  0  0  0  0999 V2000
    3.2476    5.6250    0.0000 C   0  0  0  0  0  0  0  0  0  0  0  0
   -8.4437    7.8750    0.0000 C   0  0  0  0  0  0  0  0  0  0  0  0
   -0.6495    1.8750    0.0000 C   0  0  0  0  0  0  0  0  0  0  0  0
   -5.8457    1.8750    0.0000 C   0  0  0  0  0  0  0  0  0  0  0  0
   -9.7428    5.6250    0.0000 C   0  0  0  0  0  0  0  0  0  0  0  0
   -4.5466    8.6250    0.0000 C   0  0  0  0  0  0  0  0  0  0  0  0
   -7.1447    5.6250    0.0000 C   0  0  0  0  0  0  0  0  0  0  0  0
   -0.6495    6.3750    0.0000 C   0  0  0  0  0  0  0  0  0  0  0  0
   -0.6495    7.8750    0.0000 H   0  0  0  0  0  0  0  0  0  0  0  0
    1.9486    6.3750    0.0000 C   0  0  0  0  0  0  0  0  0  0  0  0
   -7.1447    8.6250    0.0000 C   0  0  0  0  0  0  0  0  0  0  0  0
   -0.6495    3.3750    0.0000 C   0  0  0  0  0  0  0  0  0  0  0  0
   -5.8457    3.3750    0.0000 C   0  0  0  0  0  0  0  0  0  0  0  0
   -5.8457    6.3750    0.0000 C   0  0  0  0  0  0  0  0  0  0  0  0
   -1.9486    5.6250    0.0000 C   0  0  0  0  0  0  0  0  0  0  0  0
   -3.2476    6.3750    0.0000 C   0  0  0  0  0  0  0  0  0  0  0  0
   -4.5466    5.6250    0.0000 C   0  0  0  0  0  0  0  0  0  0  0  0
    1.9486    7.8750    0.0000 O   0  0  0  0  0  0  0  0  0  0  0  0
   -7.1447   10.1250    0.0000 O   0  0  0  0  0  0  0  0  0  0  0  0
    0.6495    4.1250    0.0000 O   0  0  0  0  0  0  0  0  0  0  0  0
   -7.1447    4.1250    0.0000 O   0  0  0  0  0  0  0  0  0  0  0  0
   -8.4437    6.3750    0.0000 O   0  0  0  0  0  0  0  0  0  0  0  0
   -3.2476    7.8750    0.0000 O   0  0  0  0  0  0  0  0  0  0  0  0
    0.6495    5.6250    0.0000 O   0  0  0  0  0  0  0  0  0  0  0  0
   -5.8457    7.8750    0.0000 O   0  0  0  0  0  0  0  0  0  0  0  0
   -1.9486    4.1250    0.0000 O   0  0  0  0  0  0  0  0  0  0  0  0
   -4.5466    4.1250    0.0000 O   0  0  0  0  0  0  0  0  0  0  0  0
  8  9  1  0
 10  1  1  0
 11  2  1  0
 12  3  1  0
 13  4  1  0
 14  7  1  0
 15  8  1  0
 16 15  1  0
 17 14  1  0
 17 16  1  0
 18 10  2  0
 19 11  2  0
 20 12  2  0
 21 13  2  0
 22  5  1  0
 22  7  1  0
 23  6  1  0
 23 16  1  0
 24  8  1  0
 24 10  1  0
 25 11  1  0
 25 14  1  0
 26 12  1  0
 26 15  1  0
 27 13  1  0
 27 17  1  0
M  ISO  1   9   2
M  END
>  <NAME>  (4263) 
1,2,4,5-TETRA-O-ACETYL-3,6-DI-O-METHYLHEXITOL (1-D)

>  <SYNONYMS>  (4263) 
1,2,4,5-TETRACETOXY-3,6-DIMETHOXYHEXANE (1-D)

>  <SPECTRUM TYPE>  (4263) 
MS1

>  <INSTRUMENT TYPE>  (4263) 
EI-B

>  <INSTRUMENT>  (4263) 
SHIMADZU LKB-9000B

>  <ION MODE>  (4263) 
P

>  <INCHIKEY>  (4263) 
BWFYMIDEWZXNAH-BNEYPBHNSA-N

>  <FORMULA>  (4263) 
C16H26O10

>  <EXACT MASS>  (4263) 
379.158873778

>  <MW>  (4263) 
379

>  <ID>  (4263) 
JP004504

>  <CONTRIBUTOR>  (4263) 
University of Tokyo Team, {Faculty of Engineering, University of Tokyo

>  <COMMENT>  (4263) 
SMILES=COCC(OC(C)=O)C(OC(C)=O)C(OC)C(OC(C)=O)C([H])([2H])OC(C)=O
InChI=InChI=1S/C16H26O10/c1-9(17)23-8-14(25-11(3)19)15(22-6)16(26-12(4)20)13(7-21-5)24-10(2)18/h13-16H,7-8H2,1-6H3/i8D
computed SMILES=[H]C(OC(=O)C)C(OC(=O)C)C(OC)C(OC(=O)C)C(OC(=O)C)COC
accession=JP004504
date=2016.01.19 (Created 2008.10.21, modified 2011.05.06)
author=SEYAMA Y, DEPT. OF PHYSIOL. CHEMISTRY AND NUTRITION, FAC. OF MEDICINE, UNIV. OF TOKYO
license=CC BY-NC-SA
exact mass=378.1526
ionization energy=70 eV
ion type=[M]+*
computed spectral entropy=3.0884791615498437
computed normalized entropy=0.7319524876708198
SPLASH=splash10-001l-6910000000-0757ffc8ac6dc11260aa
submitter=submitter = University of Tokyo Team (Faculty of Engineering, University of Tokyo)
MoNA Rating=3.75

>  <NUM PEAKS>  (4263) 
68

>  <MASS SPECTRAL PEAKS>  (4263) 
41 1
42 2.3
43 64.6
44 0.21
45 14.3
55 1.3
56 2.1
57 0.11
59 2.8
69 1.1
70 2
71 0.39
72 4.7
73 1.3
74 4.7
75 0.33
81 1.4
82 1.1
85 3.8
86 0.19
87 24.9
88 43.9
89 8.3
98 0.64
99 18.9
100 4.9
101 8.6
103 0.11
104 1.3
112 3.5
113 34.5
114 0.37
115 3.6
116 1.5
117 5.5
124 0.15
126 2
128 1.2
129 17.6
130 99.99
131 20.4
132 1.8
140 4.6
142 0.44
143 2.2
145 1.1
146 1.7
147 0.47
156 2.1
157 1.7
158 2.4
159 0.16
160 2.4
172 1.3
173 6.9
174 0.19
189 3.2
190 49.7
191 5
192 0.1
205 6.5
214 1
230 1
232 0.28
233 31.7
234 3.6
274 1.3
290 2.3

>  <PREDICTED SPECTRUM>  (4263) 
33 25
40 5
41 45
42 33
43 999
44 178
45 482
46 29
51 4
53 41
54 20
55 88
56 66
57 31
58 132
59 152
60 134
61 82
66 29
68 42
69 218
70 119
71 207
72 90
73 215
74 419
75 236
76 16
77 12
78 17
79 11
80 23
81 52
82 94
83 74
84 126
85 392
86 179
87 696
88 113
89 112
90 24
91 25
93 10
94 43
95 28
96 66
97 146
98 223
99 370
100 295
101 175
102 149
103 265
104 107
105 59
107 5
111 135
112 241
113 259
114 141
115 335
116 144
117 456
118 104
119 35
120 20
124 9
125 30
126 172
127 191
128 131
129 721
130 229
131 179
132 86
133 18
139 114
140 95
141 114
142 152
143 62
144 150
145 235
146 80
147 88
154 122
155 200
156 67
157 279
158 230
159 261
160 71
161 67
162 45
163 30
168 36
170 108
171 159
172 219
173 86
174 133
175 82
176 22
183 68
184 20
185 123
186 158
187 47
188 152
189 170
190 138
191 29
199 52
200 88
202 59
204 52
213 42
214 71
216 95
217 216
218 75
230 32
231 61
232 160
233 76
234 96
245 29
246 132
249 2
259 40
260 94
261 25
262 52
275 85
276 31
277 0
287 34
289 11
319 12
320 82
321 3
334 112
335 92
336 1
365 3

$$$$

     RDKit          2D

 23 22  0  0  0  0  0  0  0  0999 V2000
    3.5724    4.3125    0.0000 C   0  0  0  0  0  0  0  0  0  0  0  0
   -4.2219    8.8125    0.0000 C   0  0  0  0  0  0  0  0  0  0  0  0
    0.9743    2.8125    0.0000 C   0  0  0  0  0  0  0  0  0  0  0  0
    0.9743    8.8125    0.0000 C   0  0  0  0  0  0  0  0  0  0  0  0
   -8.1190    5.0625    0.0000 C   0  0  0  0  0  0  0  0  0  0  0  0
   -5.5209    2.0625    0.0000 C   0  0  0  0  0  0  0  0  0  0  0  0
   -0.3248    2.0625    0.0000 C   0  0  0  0  0  0  0  0  0  0  0  0
   -0.3248    6.5625    0.0000 C   0  0  0  0  0  0  0  0  0  0  0  0
   -5.5209    5.0625    0.0000 C   0  0  0  0  0  0  0  0  0  0  0  0
    2.2733    5.0625    0.0000 C   0  0  0  0  0  0  0  0  0  0  0  0
   -4.2219    7.3125    0.0000 C   0  0  0  0  0  0  0  0  0  0  0  0
   -0.3248    5.0625    0.0000 C   0  0  0  0  0  0  0  0  0  0  0  0
   -4.2219    4.3125    0.0000 C   0  0  0  0  0  0  0  0  0  0  0  0
   -1.6238    4.3125    0.0000 C   0  0  0  0  0  0  0  0  0  0  0  0
   -2.9228    5.0625    0.0000 C   0  0  0  0  0  0  0  0  0  0  0  0
    0.9743    4.3125    0.0000 N   0  0  0  0  0  0  0  0  0  0  0  0
    2.2733    6.5625    0.0000 O   0  0  0  0  0  0  0  0  0  0  0  0
   -5.5209    6.5625    0.0000 O   0  0  0  0  0  0  0  0  0  0  0  0
    0.9743    7.3125    0.0000 O   0  0  0  0  0  0  0  0  0  0  0  0
   -6.8200    4.3125    0.0000 O   0  0  0  0  0  0  0  0  0  0  0  0
   -4.2219    2.8125    0.0000 O   0  0  0  0  0  0  0  0  0  0  0  0
   -1.6238    2.8125    0.0000 O   0  0  0  0  0  0  0  0  0  0  0  0
   -2.9228    6.5625    0.0000 O   0  0  0  0  0  0  0  0  0  0  0  0
 10  1  1  0
 11  2  1  0
 12  8  1  0
 13  9  1  0
 14 12  1  0
 15 13  1  0
 15 14  1  0
 16  3  1  0
 16 10  1  0
 16 12  1  0
 17 10  2  0
 18 11  2  0
 19  4  1  0
 19  8  1  0
 20  5  1  0
 20  9  1  0
 21  6  1  0
 21 13  1  0
 22  7  1  0
 22 14  1  0
 23 11  1  0
 23 15  1  0
M  END
>  <NAME>  (4264) 
4-O-ACETYL-1,3,5,6-TETRA-O-METHYL-2-N-METHYLACETAMIDO-2-DEOXYHEXITOL

>  <SYNONYMS>  (4264) 
4-ACETOXY-1,3,5,6-TETRAMETHOXY-2-N-METHYLACETAMIDOHEXANE

>  <SPECTRUM TYPE>  (4264) 
MS1

>  <INSTRUMENT TYPE>  (4264) 
EI-B

>  <INSTRUMENT>  (4264) 
SHIMADZU LKB-9000B

>  <ION MODE>  (4264) 
P

>  <INCHIKEY>  (4264) 
TZHLYKLJDVRHJC-UHFFFAOYSA-N

>  <FORMULA>  (4264) 
C15H29NO7

>  <EXACT MASS>  (4264) 
335.19440226800003

>  <MW>  (4264) 
335

>  <ID>  (4264) 
JP004503

>  <CONTRIBUTOR>  (4264) 
University of Tokyo Team, {Faculty of Engineering, University of Tokyo

>  <COMMENT>  (4264) 
SMILES=COCC(OC)C(OC(C)=O)C(OC)C(COC)N(C)C(C)=O
InChI=InChI=1S/C15H29NO7/c1-10(17)16(3)12(8-19-4)14(22-7)15(23-11(2)18)13(21-6)9-20-5/h12-15H,8-9H2,1-7H3
computed SMILES=O=C(OC(C(OC)COC)C(OC)C(N(C(=O)C)C)COC)C
accession=JP004503
date=2016.01.19 (Created 2008.10.21, modified 2011.05.06)
author=SEYAMA Y, DEPT. OF PHYSIOL. CHEMISTRY AND NUTRITION, FAC. OF MEDICINE, UNIV. OF TOKYO
license=CC BY-NC-SA
exact mass=335.1944
ionization energy=70 eV
ion type=[M]+*
computed spectral entropy=2.98442610198482
computed normalized entropy=0.7231230736752986
SPLASH=splash10-0019-9810000000-96e09f36eb2a1d0e6c76
submitter=submitter = University of Tokyo Team (Faculty of Engineering, University of Tokyo)
MoNA Rating=3.75

>  <NUM PEAKS>  (4264) 
62

>  <MASS SPECTRAL PEAKS>  (4264) 
41 2
42 3.3
43 18.3
44 0.21
45 17.2
55 1
56 8.7
57 0.38
58 2.8
59 9.4
68 1.1
71 0.32
72 3.1
73 1.3
74 4.3
75 0.21
85 2
86 3.5
87 5.1
88 99.99
89 29.6
90 1.5
98 2.4
99 0.77
100 4.3
101 39.6
102 2.1
110 0.1
112 1.6
113 9.7
114 2.5
115 0.12
116 1.1
117 2.7
118 1.1
124 0.76
125 2.3
126 1.1
128 2.9
129 0.5
130 87.3
131 9.7
132 1.6
142 2.02
143 2.8
145 4.3
156 10.6
157 0.55
170 2
172 1.4
173 6.4
174 0.52
184 2.5
188 2.3
198 3.6
205 4.52
206 4.6
216 1.7
230 6
248 0.22
290 15.8
291 2.4

>  <PREDICTED SPECTRUM>  (4264) 
31 78
41 277
42 263
43 867
44 1
45 697
46 173
47 68
53 43
54 71
55 188
56 247
57 156
58 420
59 360
60 128
61 31
63 2
67 73
68 90
69 310
70 255
71 585
72 330
73 342
74 196
75 291
77 4
81 85
82 84
83 93
84 126
85 158
86 243
87 412
88 936
89 788
90 124
91 37
95 26
96 120
97 61
98 157
99 172
100 408
101 999
102 185
103 84
109 39
110 12
111 93
112 116
113 120
114 305
115 103
116 169
117 67
124 84
125 152
126 171
127 130
128 280
129 190
130 672
131 441
134 91
135 22
136 66
137 68
138 225
139 256
140 166
141 103
142 112
144 153
145 262
146 61
152 1
153 42
154 157
155 109
156 244
157 4
158 170
167 95
168 30
170 203
171 65
172 265
173 192
174 191
182 23
183 5
186 198
187 68
188 50
198 146
202 134
203 47
204 85
205 225
206 200
216 163
218 169
219 94
230 244
231 95
244 129
245 33
246 105
258 15
276 43
290 903
291 292
292 47
336 38

$$$$

     RDKit          2D

 25 24  0  0  0  0  0  0  0  0999 V2000
    3.8971    6.0000    0.0000 C   0  0  0  0  0  0  0  0  0  0  0  0
  -10.3923    6.7500    0.0000 C   0  0  0  0  0  0  0  0  0  0  0  0
   -6.4952   10.5000    0.0000 C   0  0  0  0  0  0  0  0  0  0  0  0
    0.0000    3.7500    0.0000 C   0  0  0  0  0  0  0  0  0  0  0  0
   -1.2990    9.0000    0.0000 C   0  0  0  0  0  0  0  0  0  0  0  0
   -5.1962    3.7500    0.0000 C   0  0  0  0  0  0  0  0  0  0  0  0
    0.0000    6.7500    0.0000 C   0  0  0  0  0  0  0  0  0  0  0  0
    0.0000    8.2500    0.0000 H   0  0  0  0  0  0  0  0  0  0  0  0
   -6.4952    6.0000    0.0000 C   0  0  0  0  0  0  0  0  0  0  0  0
    2.5981    6.7500    0.0000 C   0  0  0  0  0  0  0  0  0  0  0  0
   -9.0933    6.0000    0.0000 C   0  0  0  0  0  0  0  0  0  0  0  0
   -6.4952    9.0000    0.0000 C   0  0  0  0  0  0  0  0  0  0  0  0
   -1.2990    6.0000    0.0000 C   0  0  0  0  0  0  0  0  0  0  0  0
   -5.1962    6.7500    0.0000 C   0  0  0  0  0  0  0  0  0  0  0  0
   -2.5981    6.7500    0.0000 C   0  0  0  0  0  0  0  0  0  0  0  0
   -3.8971    6.0000    0.0000 C   0  0  0  0  0  0  0  0  0  0  0  0
    2.5981    8.2500    0.0000 O   0  0  0  0  0  0  0  0  0  0  0  0
   -9.0933    4.5000    0.0000 O   0  0  0  0  0  0  0  0  0  0  0  0
   -7.7942    8.2500    0.0000 O   0  0  0  0  0  0  0  0  0  0  0  0
   -1.2990    4.5000    0.0000 O   0  0  0  0  0  0  0  0  0  0  0  0
   -2.5981    8.2500    0.0000 O   0  0  0  0  0  0  0  0  0  0  0  0
   -3.8971    4.5000    0.0000 O   0  0  0  0  0  0  0  0  0  0  0  0
    1.2990    6.0000    0.0000 O   0  0  0  0  0  0  0  0  0  0  0  0
   -7.7942    6.7500    0.0000 O   0  0  0  0  0  0  0  0  0  0  0  0
   -5.1962    8.2500    0.0000 O   0  0  0  0  0  0  0  0  0  0  0  0
  7  8  1  0
 10  1  1  0
 11  2  1  0
 12  3  1  0
 13  7  1  0
 14  9  1  0
 15 13  1  0
 16 14  1  0
 16 15  1  0
 17 10  2  0
 18 11  2  0
 19 12  2  0
 20  4  1  0
 20 13  1  0
 21  5  1  0
 21 15  1  0
 22  6  1  0
 22 16  1  0
 23  7  1  0
 23 10  1  0
 24  9  1  0
 24 11  1  0
 25 12  1  0
 25 14  1  0
M  ISO  1   8   2
M  END
>  <NAME>  (4265) 
1,5,6-TRI-O-ACETYL-2,3,4-TRI-O-METHYLHEXITOL (1-D)

>  <SYNONYMS>  (4265) 
1,5,6-TRIACETOXY-2,3,4-TRIMETHOXYHEXANE (1-D)

>  <SPECTRUM TYPE>  (4265) 
MS1

>  <INSTRUMENT TYPE>  (4265) 
EI-B

>  <INSTRUMENT>  (4265) 
SHIMADZU LKB-9000B

>  <ION MODE>  (4265) 
P

>  <INCHIKEY>  (4265) 
RUAAXNGDIMCTCD-WHRKIXHSSA-N

>  <FORMULA>  (4265) 
C15H26O9

>  <EXACT MASS>  (4265) 
351.163959158

>  <MW>  (4265) 
351

>  <ID>  (4265) 
JP004502

>  <CONTRIBUTOR>  (4265) 
University of Tokyo Team, {Faculty of Engineering, University of Tokyo

>  <COMMENT>  (4265) 
SMILES=CC(=O)OCC(OC(C)=O)C(OC)C(OC)C(OC)C([H])([2H])OC(C)=O
InChI=InChI=1S/C15H26O9/c1-9(16)22-7-12(19-4)14(20-5)15(21-6)13(24-11(3)18)8-23-10(2)17/h12-15H,7-8H2,1-6H3/i7D
computed SMILES=[H]C(OC(=O)C)C(OC)C(OC)C(OC)C(OC(=O)C)COC(=O)C
accession=JP004502
date=2016.01.19 (Created 2008.10.21, modified 2011.05.06)
author=SEYAMA Y, DEPT. OF PHYSIOL. CHEMISTRY AND NUTRITION, FAC. OF MEDICINE, UNIV. OF TOKYO
license=CC BY-NC-SA
exact mass=350.15768
ionization energy=70 eV
ion type=[M]+*
computed spectral entropy=2.8082583344213776
computed normalized entropy=0.7293897857770644
SPLASH=splash10-00kf-9700000000-fcf07294c77a7ace9f20
submitter=submitter = University of Tokyo Team (Faculty of Engineering, University of Tokyo)
MoNA Rating=3.75

>  <NUM PEAKS>  (4265) 
47

>  <MASS SPECTRAL PEAKS>  (4265) 
41 1.7
42 2.7
43 99.99
44 0.32
45 7.3
46 1.4
59 6.2
60 0.13
69 1
70 1.9
71 5.8
72 0.23
73 3.1
74 3.2
75 3.6
76 0.14
85 1.5
87 32
88 12.8
89 0.36
99 38.4
100 5.7
101 11.1
102 8.52
103 7.1
113 6.9
114 1.3
115 0.13
117 5.9
118 74.4
119 4.3
129 6.22
130 11.1
131 4.6
132 1.1
142 0.1
143 1.7
159 5.2
161 2.7
162 3.29
163 2.5
173 7.4
174 2.2
189 2.59
190 2.5
233 5.2
234 1

>  <PREDICTED SPECTRUM>  (4265) 
33 11
40 32
41 40
42 132
43 999
44 201
45 468
46 14
47 24
48 25
50 24
51 57
52 25
53 62
54 16
55 138
56 103
57 141
58 176
59 207
60 75
61 22
65 2
66 28
67 26
68 34
69 113
70 152
71 253
72 128
73 119
74 474
75 406
76 79
77 67
78 12
79 6
81 59
82 20
83 121
84 142
85 255
86 80
87 724
88 225
89 124
91 44
93 14
95 68
96 39
97 109
98 144
99 525
100 168
101 688
102 188
103 48
104 55
105 62
107 3
110 2
111 70
112 152
113 265
114 67
115 46
116 112
117 816
118 173
119 63
120 8
126 102
127 170
129 876
130 259
131 180
132 26
140 25
142 152
143 36
144 108
146 99
147 48
148 25
157 22
158 98
159 37
160 107
161 583
162 120
163 35
172 38
174 148
186 6
189 248
190 57
192 45
204 9
206 55
207 6
218 99
221 23
233 256
234 71
236 32
292 19
336 97

$$$$

     RDKit          2D

 18 20  0  0  0  0  0  0  0  0999 V2000
    3.0600    2.2000    0.0000 C   0  0  0  0  0  0  0  0  0  0  0  0
    1.7600    2.9500    0.0000 C   0  0  0  0  0  0  0  0  0  0  0  0
    3.0600    0.7000    0.0000 C   0  0  0  0  0  0  0  0  0  0  0  0
    0.4600    2.2000    0.0000 C   0  0  0  0  0  0  0  0  0  0  0  0
    1.7600   -1.5500    0.0000 C   0  0  0  0  0  0  0  0  0  0  0  0
    0.4600   -2.3000    0.0000 C   0  0  0  0  0  0  0  0  0  0  0  0
   -3.4300   -1.5500    0.0000 C   0  0  0  0  0  0  0  0  0  0  0  0
    1.7600   -0.0500    0.0000 C   0  0  0  0  0  0  0  0  0  0  0  0
   -3.4300   -0.0500    0.0000 C   0  0  0  0  0  0  0  0  0  0  0  0
    0.4600    0.7000    0.0000 C   0  0  0  0  0  0  0  0  0  0  0  0
   -0.8300   -1.5500    0.0000 C   0  0  0  0  0  0  0  0  0  0  0  0
   -2.1300    0.7000    0.0000 C   0  0  0  0  0  0  0  0  0  0  0  0
   -4.7289    0.7002    0.0000 C   0  0  0  0  0  0  0  0  0  0  0  0
   -2.1300   -2.3000    0.0000 N   0  0  0  0  0  0  0  0  0  0  0  0
   -0.8300   -0.0500    0.0000 N   0  0  0  0  0  0  0  0  0  0  0  0
   -2.1300    2.2000    0.0000 O   0  0  0  0  0  0  0  0  0  0  0  0
   -4.7287    2.2002    0.0000 O   0  0  0  0  0  0  0  0  0  0  0  0
   -6.0281   -0.0496    0.0000 O   0  0  0  0  0  0  0  0  0  0  0  0
  2  1  2  0
  3  1  1  0
  4  2  1  0
  6  5  1  0
  8  3  2  0
  8  5  1  0
  9  7  2  0
 10  4  2  0
 10  8  1  0
 11  6  1  0
 12  9  1  0
 13  9  1  0
 14  7  1  0
 14 11  2  0
 15 10  1  0
 15 11  1  0
 15 12  1  0
 16 12  2  0
 17 13  2  0
 18 13  1  0
M  END
>  <NAME>  (4266) 
1-OXO-5,6-DIHYDRO-1H-PYRIMIDO(1,2-A)QUINOLINE-2-CARBOXYLIC ACID

>  <SYNONYMS>  (4266) 


>  <SPECTRUM TYPE>  (4266) 
MS1

>  <INSTRUMENT TYPE>  (4266) 
EI-B

>  <INSTRUMENT>  (4266) 
MS-902

>  <ION MODE>  (4266) 
P

>  <INCHIKEY>  (4266) 
MLXRYOPMMKQPES-UHFFFAOYSA-N

>  <FORMULA>  (4266) 
C13H10N2O3

>  <EXACT MASS>  (4266) 
242.06914217999997

>  <MW>  (4266) 
242

>  <ID>  (4266) 
JP004501

>  <CONTRIBUTOR>  (4266) 
University of Tokyo Team, {Faculty of Engineering, University of Tokyo

>  <COMMENT>  (4266) 
SMILES=OC(=O)C(=C3)C(=O)N(C1=N3)c(c2)c(ccc2)CC1
InChI=InChI=1S/C13H10N2O3/c16-12-9(13(17)18)7-14-11-6-5-8-3-1-2-4-10(8)15(11)12/h1-4,7H,5-6H2,(H,17,18)
computed SMILES=O=C(O)C1=CN=C2N(C1=O)C=3C=CC=CC3CC2
accession=JP004501
date=2016.01.19 (Created 2008.10.21, modified 2011.05.06)
author=SASAKI S, TOYOHASHI UNIV. OF TECH.
license=CC BY-NC-SA
exact mass=242.06914
ionization energy=70 eV
ion type=[M]+*
computed spectral entropy=2.7159845703957544
computed normalized entropy=0.7909128394096503
SPLASH=splash10-0002-0910000000-e6cc14530b8e269aed0a
submitter=submitter = University of Tokyo Team (Faculty of Engineering, University of Tokyo)
MoNA Rating=3.75

>  <NUM PEAKS>  (4266) 
31

>  <MASS SPECTRAL PEAKS>  (4266) 
77 27
89 8.6
90 5.7
91 0.55
101 7.4
102 8.9
103 22
104 0.84
115 7.4
116 6.9
117 8.4
128 2.3
129 7.8
130 55
131 6.1
142 0.69
143 7.5
144 5
155 3.9
156 0.23
168 4.2
169 30
170 62
171 0.84
197 34
198 99.99
199 13
214 0.09
225 3.1
242 56
243 8.4

>  <PREDICTED SPECTRUM>  (4266) 
38 25
39 129
40 70
41 78
43 19
44 92
45 82
50 131
51 305
52 182
53 157
54 25
55 31
62 53
63 149
64 157
65 150
66 110
67 66
68 28
69 9
74 41
75 132
76 196
77 589
78 239
79 13
83 25
87 11
88 51
89 255
90 187
91 160
92 54
93 5
94 11
101 153
102 376
103 350
104 233
105 99
114 108
115 290
116 261
117 299
118 13
127 31
128 406
129 409
130 799
131 237
132 36
139 73
140 122
141 237
142 281
143 357
144 157
151 50
152 54
153 8
154 11
155 233
156 128
157 38
167 71
168 125
169 418
170 989
171 293
180 1
183 65
195 95
196 82
197 592
198 999
199 307
214 32
215 49
225 45
241 39
242 759
243 279
244 26

$$$$

     RDKit          2D

 18 20  0  0  0  0  0  0  0  0999 V2000
    3.0600    2.2000    0.0000 C   0  0  0  0  0  0  0  0  0  0  0  0
    1.7600    2.9500    0.0000 C   0  0  0  0  0  0  0  0  0  0  0  0
    3.0600    0.7000    0.0000 C   0  0  0  0  0  0  0  0  0  0  0  0
    0.4600    2.2000    0.0000 C   0  0  0  0  0  0  0  0  0  0  0  0
    1.7600   -1.5500    0.0000 C   0  0  0  0  0  0  0  0  0  0  0  0
    0.4600   -2.3000    0.0000 C   0  0  0  0  0  0  0  0  0  0  0  0
   -3.4300   -1.5500    0.0000 C   0  0  0  0  0  0  0  0  0  0  0  0
    1.7600   -0.0500    0.0000 C   0  0  0  0  0  0  0  0  0  0  0  0
   -3.4300   -0.0500    0.0000 C   0  0  0  0  0  0  0  0  0  0  0  0
    0.4600    0.7000    0.0000 C   0  0  0  0  0  0  0  0  0  0  0  0
   -0.8300   -1.5500    0.0000 C   0  0  0  0  0  0  0  0  0  0  0  0
   -2.1300    0.7000    0.0000 C   0  0  0  0  0  0  0  0  0  0  0  0
   -4.7289    0.7002    0.0000 C   0  0  0  0  0  0  0  0  0  0  0  0
   -2.1300   -2.3000    0.0000 N   0  0  0  0  0  0  0  0  0  0  0  0
   -0.8300   -0.0500    0.0000 N   0  0  0  0  0  0  0  0  0  0  0  0
   -2.1300    2.2000    0.0000 O   0  0  0  0  0  0  0  0  0  0  0  0
   -4.7287    2.2002    0.0000 O   0  0  0  0  0  0  0  0  0  0  0  0
   -6.0281   -0.0496    0.0000 O   0  0  0  0  0  0  0  0  0  0  0  0
  2  1  2  0
  3  1  1  0
  4  2  1  0
  6  5  2  0
  8  3  2  0
  8  5  1  0
  9  7  2  0
 10  4  2  0
 10  8  1  0
 11  6  1  0
 12  9  1  0
 13  9  1  0
 14  7  1  0
 14 11  2  0
 15 10  1  0
 15 11  1  0
 15 12  1  0
 16 12  2  0
 17 13  2  0
 18 13  1  0
M  END
>  <NAME>  (4267) 
1-OXO-1H-PYRIMIDO(1,2-A)QUINOLINE-2-CARBOXYLIC ACID

>  <SYNONYMS>  (4267) 


>  <SPECTRUM TYPE>  (4267) 
MS1

>  <INSTRUMENT TYPE>  (4267) 
EI-B

>  <INSTRUMENT>  (4267) 
MS-902

>  <ION MODE>  (4267) 
P

>  <INCHIKEY>  (4267) 
PBPJARVCNLMOJA-UHFFFAOYSA-N

>  <FORMULA>  (4267) 
C13H8N2O3

>  <EXACT MASS>  (4267) 
240.05349211599997

>  <MW>  (4267) 
240

>  <ID>  (4267) 
JP004500

>  <CONTRIBUTOR>  (4267) 
University of Tokyo Team, {Faculty of Engineering, University of Tokyo

>  <COMMENT>  (4267) 
SMILES=OC(=O)C(=C([H])3)C(=O)N(C(=N3)1)c(c2)c(ccc2)C([H])=C([H])1
InChI=InChI=1S/C13H8N2O3/c16-12-9(13(17)18)7-14-11-6-5-8-3-1-2-4-10(8)15(11)12/h1-7H,(H,17,18)
computed SMILES=O=C(O)C1=CN=C2C=CC=3C=CC=CC3N2C1=O
accession=JP004500
date=2016.01.19 (Created 2008.10.21, modified 2011.05.06)
author=SASAKI S, TOYOHASHI UNIV. OF TECH.
license=CC BY-NC-SA
exact mass=240.05349
ionization energy=70 eV
ion type=[M]+*
computed spectral entropy=2.4237663640596607
computed normalized entropy=0.7961072429711046
SPLASH=splash10-002g-1940000000-4a5c527728e986d76803
submitter=submitter = University of Tokyo Team (Faculty of Engineering, University of Tokyo)
MoNA Rating=3.75

>  <NUM PEAKS>  (4267) 
21

>  <MASS SPECTRAL PEAKS>  (4267) 
64 11
75 12
77 15
101 2.8
128 87
129 24
140 13
141 0.45
155 4.3
167 7.1
168 59
169 1.1
194 5.5
195 41
196 44
197 0.58
212 29
213 4.1
223 2
240 99.99
241 17

>  <PREDICTED SPECTRUM>  (4267) 
39 2
43 104
44 114
45 40
50 43
51 131
52 42
55 18
62 31
63 106
64 101
69 48
74 68
75 167
76 31
77 209
78 45
87 44
88 16
89 58
90 99
100 23
101 351
102 108
113 96
114 112
115 28
127 15
128 876
129 465
139 120
140 381
141 324
142 149
154 1
155 51
165 67
166 153
167 395
168 852
169 317
170 61
194 189
195 634
196 614
197 137
212 236
213 29
222 38
223 110
240 999
241 360
242 54

$$$$

     RDKit          2D

 18 20  0  0  0  0  0  0  0  0999 V2000
   -1.3000    3.0000    0.0000 C   0  0  0  0  0  0  0  0  0  0  0  0
    6.4968    3.0006    0.0000 C   0  0  0  0  0  0  0  0  0  0  0  0
    5.1971    3.7512    0.0000 C   0  0  0  0  0  0  0  0  0  0  0  0
    6.4975    1.4998    0.0000 C   0  0  0  0  0  0  0  0  0  0  0  0
   -2.6000   -0.7500    0.0000 C   0  0  0  0  0  0  0  0  0  0  0  0
   -2.6000    0.7500    0.0000 C   0  0  0  0  0  0  0  0  0  0  0  0
    3.8982    3.0010    0.0000 C   0  0  0  0  0  0  0  0  0  0  0  0
    5.1986    0.7496    0.0000 C   0  0  0  0  0  0  0  0  0  0  0  0
   -1.3000   -1.5000    0.0000 C   0  0  0  0  0  0  0  0  0  0  0  0
    2.6000   -0.7500    0.0000 C   0  0  0  0  0  0  0  0  0  0  0  0
   -1.3000    1.5000    0.0000 C   0  0  0  0  0  0  0  0  0  0  0  0
    3.8989    1.5002    0.0000 C   0  0  0  0  0  0  0  0  0  0  0  0
    2.6000    0.7500    0.0000 C   0  0  0  0  0  0  0  0  0  0  0  0
    0.0000   -0.7500    0.0000 C   0  0  0  0  0  0  0  0  0  0  0  0
    1.3000    1.5000    0.0000 C   0  0  0  0  0  0  0  0  0  0  0  0
    1.3000   -1.5000    0.0000 N   0  0  0  0  0  0  0  0  0  0  0  0
    0.0000    0.7500    0.0000 N   0  0  0  0  0  0  0  0  0  0  0  0
    1.3000    3.0000    0.0000 O   0  0  0  0  0  0  0  0  0  0  0  0
  3  2  2  0
  4  2  1  0
  6  5  1  0
  7  3  1  0
  8  4  2  0
  9  5  2  0
 11  1  1  0
 11  6  2  0
 12  7  2  0
 12  8  1  0
 13 10  2  0
 13 12  1  0
 14  9  1  0
 15 13  1  0
 16 10  1  0
 16 14  2  0
 17 11  1  0
 17 14  1  0
 17 15  1  0
 18 15  2  0
M  END
>  <NAME>  (4268) 
6-METHYL-3-PHENYL-4H-PYRIDO(1,2-A)PYRIMIDIN-4-ONE

>  <SYNONYMS>  (4268) 


>  <SPECTRUM TYPE>  (4268) 
MS1

>  <INSTRUMENT TYPE>  (4268) 
EI-B

>  <INSTRUMENT>  (4268) 
MS-902

>  <ION MODE>  (4268) 
P

>  <INCHIKEY>  (4268) 
IWZFFFOCUCZNBH-UHFFFAOYSA-N

>  <FORMULA>  (4268) 
C15H12N2O

>  <EXACT MASS>  (4268) 
236.094963004

>  <MW>  (4268) 
236

>  <ID>  (4268) 
JP004498

>  <CONTRIBUTOR>  (4268) 
University of Tokyo Team, {Faculty of Engineering, University of Tokyo

>  <COMMENT>  (4268) 
SMILES=c(c3)ccc(c3)C(=C1)C(=O)N(C(C)=2)C(C=CC2)=N1
InChI=InChI=1S/C15H12N2O/c1-11-6-5-9-14-16-10-13(15(18)17(11)14)12-7-3-2-4-8-12/h2-10H,1H3
computed SMILES=O=C1C(=CN=C2C=CC=C(N21)C)C=3C=CC=CC3
accession=JP004498
date=2016.01.19 (Created 2008.10.21, modified 2011.05.06)
author=SASAKI S, TOYOHASHI UNIV. OF TECH.
license=CC BY-NC-SA
exact mass=236.09496
ionization energy=70 eV
ion type=[M]+*
computed spectral entropy=2.7773462993250715
computed normalized entropy=0.7691524334019711
SPLASH=splash10-0a4r-7190000000-32a26919b7b5f6ca0868
submitter=submitter = University of Tokyo Team (Faculty of Engineering, University of Tokyo)
MoNA Rating=3.75

>  <NUM PEAKS>  (4268) 
37

>  <MASS SPECTRAL PEAKS>  (4268) 
39 25
41 6.5
50 5
51 0.8
52 5
62 4
63 15.5
64 0.8
65 50
66 9.5
74 3
75 0.35
76 7.5
77 5.5
89 16
90 1.05
91 5.5
92 47.5
93 6
102 0.8
103 5
116 4
119 4
149 0.2
180 4.5
181 6
192 3
193 0.6
205 9.5
206 11
207 52.5
208 99.99
209 14
235 1.5
236 57.5
237 0.85
238 0.5

>  <PREDICTED SPECTRUM>  (4268) 
27 24
33 9
37 40
38 104
39 286
40 129
41 129
42 78
43 43
44 26
49 33
50 205
51 371
52 202
53 103
54 65
55 78
56 28
57 31
61 33
62 116
63 280
64 190
65 278
66 137
67 86
68 10
69 34
70 47
71 33
74 118
75 170
76 255
77 392
78 298
79 130
80 59
82 18
83 62
84 70
85 9
86 49
87 79
88 97
89 206
90 161
91 143
92 257
93 131
94 5
97 8
98 39
99 47
100 38
101 90
102 177
103 225
104 237
105 159
106 64
108 3
110 10
113 64
114 64
115 138
116 116
117 114
118 71
119 24
126 72
127 131
128 198
129 144
130 70
131 192
132 129
133 97
139 9
140 94
141 90
142 8
143 9
151 43
152 174
153 132
154 195
155 118
156 13
159 43
160 11
164 34
165 80
166 141
167 188
168 110
169 70
178 61
179 132
180 305
181 251
182 129
183 98
190 2
191 30
192 52
193 94
194 75
195 47
196 15
205 54
206 184
207 446
208 491
209 190
219 12
220 86
221 111
222 23
234 142
235 810
236 999
237 387
238 77

$$$$

     RDKit          2D

 17 18  0  0  0  0  0  0  0  0999 V2000
    7.7962    0.7508    0.0000 C   0  0  0  0  0  0  0  0  0  0  0  0
    1.3000   -3.0000    0.0000 C   0  0  0  0  0  0  0  0  0  0  0  0
    6.4970    1.5006    0.0000 C   0  0  0  0  0  0  0  0  0  0  0  0
   -2.6000   -0.7500    0.0000 C   0  0  0  0  0  0  0  0  0  0  0  0
   -2.6000    0.7500    0.0000 C   0  0  0  0  0  0  0  0  0  0  0  0
   -1.3000   -1.5000    0.0000 C   0  0  0  0  0  0  0  0  0  0  0  0
   -1.3000    1.5000    0.0000 C   0  0  0  0  0  0  0  0  0  0  0  0
    2.6000   -0.7500    0.0000 C   0  0  0  0  0  0  0  0  0  0  0  0
    2.6000    0.7500    0.0000 C   0  0  0  0  0  0  0  0  0  0  0  0
    0.0000   -0.7500    0.0000 C   0  0  0  0  0  0  0  0  0  0  0  0
    1.3000    1.5000    0.0000 C   0  0  0  0  0  0  0  0  0  0  0  0
    3.8989    1.5002    0.0000 C   0  0  0  0  0  0  0  0  0  0  0  0
    1.3000   -1.5000    0.0000 N   0  0  0  0  0  0  0  0  0  0  0  0
    0.0000    0.7500    0.0000 N   0  0  0  0  0  0  0  0  0  0  0  0
    1.3000    3.0000    0.0000 O   0  0  0  0  0  0  0  0  0  0  0  0
    3.8987    3.0002    0.0000 O   0  0  0  0  0  0  0  0  0  0  0  0
    5.1981    0.7504    0.0000 O   0  0  0  0  0  0  0  0  0  0  0  0
  3  1  1  0
  5  4  1  0
  6  4  1  0
  7  5  1  0
  9  8  2  0
 10  6  2  0
 11  9  1  0
 12  9  1  0
 13  2  1  0
 13  8  1  0
 13 10  1  0
 14  7  1  0
 14 10  1  0
 14 11  1  0
 15 11  2  0
 16 12  2  0
 17  3  1  0
 17 12  1  0
M  END
>  <NAME>  (4269) 
1-METHYL-4-OXO-7,8-DIHYDRO-1H,4H,6H-PYRIDO(1,2-A)PYRIMIDINE-3-CARBOXYLIC ACID ETHYLESTER

>  <SYNONYMS>  (4269) 


>  <SPECTRUM TYPE>  (4269) 
MS1

>  <INSTRUMENT TYPE>  (4269) 
EI-B

>  <INSTRUMENT>  (4269) 
MS-902

>  <ION MODE>  (4269) 
P

>  <INCHIKEY>  (4269) 
RHEPHABEOUOQOY-UHFFFAOYSA-N

>  <FORMULA>  (4269) 
C12H16N2O3

>  <EXACT MASS>  (4269) 
236.116092372

>  <MW>  (4269) 
236

>  <ID>  (4269) 
JP004497

>  <CONTRIBUTOR>  (4269) 
University of Tokyo Team, {Faculty of Engineering, University of Tokyo

>  <COMMENT>  (4269) 
SMILES=CCOC(=O)C(=C([H])1)C(=O)N(C2)C(=C([H])CC2)N(C)1
InChI=InChI=1S/C12H16N2O3/c1-3-17-12(16)9-8-13(2)10-6-4-5-7-14(10)11(9)15/h6,8H,3-5,7H2,1-2H3
computed SMILES=O=C(OCC)C1=CN(C2=CCCCN2C1=O)C
accession=JP004497
date=2016.01.19 (Created 2008.10.21, modified 2011.05.06)
author=SASAKI S, TOYOHASHI UNIV. OF TECH.
license=CC BY-NC-SA
exact mass=236.11609
ionization energy=70 eV
ion type=[M]+*
computed spectral entropy=2.4829427308639778
computed normalized entropy=0.8288266454192635
SPLASH=splash10-000i-2790000000-7947eed6d704ae17e5c7
submitter=submitter = University of Tokyo Team (Faculty of Engineering, University of Tokyo)
MoNA Rating=3.75

>  <NUM PEAKS>  (4269) 
20

>  <MASS SPECTRAL PEAKS>  (4269) 
69 11
81 10
82 35
83 0.3
134 17
135 15
136 21
150 0.6
163 18
176 8
177 40
178 0.8
189 14
190 9
191 17
207 0.9
221 12
235 60
236 99.99
237 14

>  <PREDICTED SPECTRUM>  (4269) 
26 20
27 88
28 40
29 144
30 30
36 0
38 48
39 270
40 158
41 341
42 372
43 140
44 121
50 10
51 103
52 197
53 300
54 320
55 250
56 151
57 24
63 41
64 69
65 156
66 232
67 388
68 304
69 61
70 37
77 84
78 122
79 256
80 314
81 339
82 366
83 95
86 36
92 29
93 202
94 275
95 233
96 189
106 55
107 107
108 160
109 152
110 82
111 34
112 16
119 2
120 150
121 367
122 247
123 84
132 41
133 156
134 154
135 378
136 302
137 131
140 53
147 69
148 95
149 68
159 8
160 3
161 223
162 207
163 881
164 297
165 84
167 137
168 45
179 55
180 10
189 135
190 102
191 556
192 158
193 21
194 35
205 64
207 549
208 309
209 118
221 226
222 87
234 1
235 425
236 999
237 364
238 85

$$$$

     RDKit          2D

 17 18  0  0  0  0  0  0  0  0999 V2000
    9.0951    1.5010    0.0000 C   0  0  0  0  0  0  0  0  0  0  0  0
    7.7962    0.7508    0.0000 C   0  0  0  0  0  0  0  0  0  0  0  0
   -2.6000   -0.7500    0.0000 C   0  0  0  0  0  0  0  0  0  0  0  0
   -2.6000    0.7500    0.0000 C   0  0  0  0  0  0  0  0  0  0  0  0
   -1.3000   -1.5000    0.0000 C   0  0  0  0  0  0  0  0  0  0  0  0
   -1.3000    1.5000    0.0000 C   0  0  0  0  0  0  0  0  0  0  0  0
    3.8989    1.5002    0.0000 C   0  0  0  0  0  0  0  0  0  0  0  0
    2.6000   -0.7500    0.0000 C   0  0  0  0  0  0  0  0  0  0  0  0
    2.6000    0.7500    0.0000 C   0  0  0  0  0  0  0  0  0  0  0  0
    0.0000   -0.7500    0.0000 C   0  0  0  0  0  0  0  0  0  0  0  0
    5.1981    0.7504    0.0000 C   0  0  0  0  0  0  0  0  0  0  0  0
    1.3000    1.5000    0.0000 C   0  0  0  0  0  0  0  0  0  0  0  0
    1.3000   -1.5000    0.0000 N   0  0  0  0  0  0  0  0  0  0  0  0
    0.0000    0.7500    0.0000 N   0  0  0  0  0  0  0  0  0  0  0  0
    5.1983   -0.7496    0.0000 O   0  0  0  0  0  0  0  0  0  0  0  0
    1.3000    3.0000    0.0000 O   0  0  0  0  0  0  0  0  0  0  0  0
    6.4970    1.5006    0.0000 O   0  0  0  0  0  0  0  0  0  0  0  0
  2  1  1  0
  4  3  1  0
  5  3  1  0
  6  4  1  0
  9  7  1  0
  9  8  2  0
 10  5  1  0
 11  7  1  0
 12  9  1  0
 13  8  1  0
 13 10  2  0
 14  6  1  0
 14 10  1  0
 14 12  1  0
 15 11  2  0
 16 12  2  0
 17  2  1  0
 17 11  1  0
M  END
>  <NAME>  (4270) 
4-OXO-6,7,8,9-TETRAHYDRO-4H-PYRIDO(1,2-A)PYRIMIDINE-3-ACETIC ACID ETHYL ESTER

>  <SYNONYMS>  (4270) 


>  <SPECTRUM TYPE>  (4270) 
MS1

>  <INSTRUMENT TYPE>  (4270) 
EI-B

>  <INSTRUMENT>  (4270) 
MS-902

>  <ION MODE>  (4270) 
P

>  <INCHIKEY>  (4270) 
GPICITVVVLYZNF-UHFFFAOYSA-N

>  <FORMULA>  (4270) 
C12H16N2O3

>  <EXACT MASS>  (4270) 
236.11609237199997

>  <MW>  (4270) 
236

>  <ID>  (4270) 
JP004495

>  <CONTRIBUTOR>  (4270) 
University of Tokyo Team, {Faculty of Engineering, University of Tokyo

>  <COMMENT>  (4270) 
SMILES=CCOC(=O)CC(=C1)C(=O)N(C2)C(CCC2)=N1
InChI=InChI=1S/C12H16N2O3/c1-2-17-11(15)7-9-8-13-10-5-3-4-6-14(10)12(9)16/h8H,2-7H2,1H3
computed SMILES=O=C(OCC)CC1=CN=C2N(C1=O)CCCC2
accession=JP004495
date=2016.01.19 (Created 2008.10.21, modified 2011.05.06)
author=SASAKI S, TOYOHASHI UNIV. OF TECH.
license=CC BY-NC-SA
exact mass=236.11609
ionization energy=70 eV
ion type=[M]+*
computed spectral entropy=1.8109569123481715
computed normalized entropy=0.6150431118327494
SPLASH=splash10-03di-2910000000-1e972be3b9d06e964fc4
submitter=submitter = University of Tokyo Team (Faculty of Engineering, University of Tokyo)
MoNA Rating=3.75

>  <NUM PEAKS>  (4270) 
19

>  <MASS SPECTRAL PEAKS>  (4270) 
39 7.9
41 2.7
53 2.6
54 0.36
55 6.7
80 1.4
82 11.5
135 0.16
162 2.6
163 99.99
164 19.1
165 0.13
190 8.1
191 7.6
192 1
207 0.04
236 21.3
237 2.9
238 0.3

>  <PREDICTED SPECTRUM>  (4270) 
29 31
39 87
41 118
42 41
43 26
53 95
54 102
55 223
65 22
66 42
67 136
68 0
77 5
81 108
82 226
83 10
109 28
118 20
119 63
133 51
134 37
135 121
136 44
150 33
162 88
163 999
164 393
165 40
190 337
191 272
192 6
236 422
237 148
238 4

$$$$

     RDKit          2D

 16 17  0  0  0  0  0  0  0  0999 V2000
    3.5752   -1.3041    0.0000 C   0  0  0  0  0  0  0  0  0  0  0  0
    2.2773   -0.5521    0.0000 C   0  0  0  0  0  0  0  0  0  0  0  0
    4.8708   -0.5639    0.0000 C   0  0  0  0  0  0  0  0  0  0  0  0
   -1.6232    3.1915    0.0000 C   0  0  0  0  0  0  0  0  0  0  0  0
   -0.3241    3.9415    0.0000 C   0  0  0  0  0  0  0  0  0  0  0  0
    3.5757    1.6889    0.0000 C   0  0  0  0  0  0  0  0  0  0  0  0
    2.2750    0.9400    0.0000 C   0  0  0  0  0  0  0  0  0  0  0  0
    4.8736    0.9369    0.0000 C   0  0  0  0  0  0  0  0  0  0  0  0
   -1.6227    1.6907    0.0000 C   0  0  0  0  0  0  0  0  0  0  0  0
    0.9759    1.6898    0.0000 C   0  0  0  0  0  0  0  0  0  0  0  0
   -2.9217    0.9407    0.0000 Cl  0  0  0  0  0  0  0  0  0  0  0  0
    0.9754    3.1907    0.0000 N   0  0  0  0  0  0  0  0  0  0  0  0
   -0.3232    0.9398    0.0000 N   0  0  0  0  0  0  0  0  0  0  0  0
    6.1739    1.6848    0.0000 N   0  0  0  0  0  0  0  0  0  0  0  0
    7.4716    0.9326    0.0000 O   0  0  0  0  0  0  0  0  0  0  0  0
    6.1764    3.1848    0.0000 O   0  0  0  0  0  0  0  0  0  0  0  0
  2  1  2  0
  3  1  1  0
  5  4  2  0
  7  2  1  0
  7  6  2  0
  8  3  2  0
  8  6  1  0
  9  4  1  0
 10  7  1  0
 11  9  1  0
 12  5  1  0
 12 10  2  0
 13  9  2  0
 13 10  1  0
 14  8  1  0
 15 14  1  0
 16 14  2  0
M  CHG  2  14   1  15  -1
M  END
>  <NAME>  (4271) 
4-CHLORO-2-(3-NITROPHENYL)PYRIMIDINE

>  <SYNONYMS>  (4271) 


>  <SPECTRUM TYPE>  (4271) 
MS1

>  <INSTRUMENT TYPE>  (4271) 
EI-B

>  <INSTRUMENT>  (4271) 
MS-902

>  <ION MODE>  (4271) 
P

>  <INCHIKEY>  (4271) 
CXDJXNOXJBOUQW-UHFFFAOYSA-N

>  <FORMULA>  (4271) 
C10H6ClN3O2

>  <EXACT MASS>  (4271) 
235.014854112

>  <MW>  (4271) 
235

>  <ID>  (4271) 
JP004494

>  <CONTRIBUTOR>  (4271) 
University of Tokyo Team, {Faculty of Engineering, University of Tokyo

>  <COMMENT>  (4271) 
SMILES=[O-1][N+1](=O)c(c2)cc(cc2)c(n1)nc(Cl)cc1
InChI=InChI=1S/C10H6ClN3O2/c11-9-4-5-12-10(13-9)7-2-1-3-8(6-7)14(15)16/h1-6H
computed SMILES=O=N(=O)C1=CC=CC(=C1)C2=NC=CC(Cl)=N2
accession=JP004494
date=2016.01.19 (Created 2008.10.21, modified 2011.05.06)
author=SASAKI S, TOYOHASHI UNIV. OF TECH.
license=CC BY-NC-SA
exact mass=235.01485
ionization energy=70 eV
ion type=[M]+*
computed spectral entropy=2.79027581544181
computed normalized entropy=0.6280654623442401
SPLASH=splash10-000i-2960000000-15af16b46cb61bba2492
submitter=submitter = University of Tokyo Team (Faculty of Engineering, University of Tokyo)
MoNA Rating=3.75

>  <NUM PEAKS>  (4271) 
85

>  <MASS SPECTRAL PEAKS>  (4271) 
36 2.2
37 0.7
38 0.8
39 0.13
40 5
41 0.5
43 0.3
44 0.49
49 0.5
50 6.9
51 4.3
52 0.44
53 1
57 0.4
60 0.5
61 0.08
62 1
63 1.7
64 1.2
65 0.04
73 1.2
74 2.4
75 10.5
76 0.87
76.5 0.5
77 5.9
77.5 0.5
81.5 0.03
86 0.7
87 0.5
88 0.5
90 0.07
94 0.4
94.5 2.2
95.5 0.5
99 0.12
99.5 0.3
100 1.2
101 3.6
102 2.08
104 0.5
107 0.5
108 0.5
111 0.05
113 0.5
114 0.5
115 0.8
116 0.05
117.5 0.3
126 4.3
127 6.4
128 0.86
129 16
130 1.2
141 0.5
142 0.28
149 0.5
150 0.7
153 8.9
154 1.28
155 1.8
162 3.8
163 5.2
164 0.15
165 1.8
177 8.6
178 1.2
179 0.31
188 0.5
189 99.99
190 10.8
191 3.19
192 3.1
199 1
200 13.1
201 0.17
205 1.2
218 0.3
219 0.2
221 0.03
228 0.3
235 99.6
236 10.7
237 3.23
238 3.1

>  <PREDICTED SPECTRUM>  (4271) 
16 1
26 15
27 50
28 38
29 25
30 150
37 55
38 86
39 106
40 25
41 8
43 69
44 22
46 88
47 10
49 71
50 272
51 295
52 203
53 54
57 15
60 3
61 103
62 211
63 162
64 169
65 31
66 23
69 51
72 9
73 114
74 248
75 330
76 357
77 162
78 89
84 10
85 32
86 114
87 55
88 32
89 15
90 43
91 22
97 51
98 14
99 142
100 102
101 159
102 325
103 29
110 37
112 28
113 41
114 76
123 31
125 77
126 184
127 244
128 198
129 362
130 21
135 10
137 33
138 29
141 30
149 15
150 47
152 9
153 271
154 441
155 49
162 262
163 152
164 132
177 290
178 84
179 49
189 999
190 279
191 439
192 85
200 190
201 18
205 30
220 0
222 4
235 825
236 244
237 501
238 157

$$$$

     RDKit          2D

 17 18  0  0  0  0  0  0  0  0999 V2000
    7.7962    0.7508    0.0000 C   0  0  0  0  0  0  0  0  0  0  0  0
    6.4970    1.5006    0.0000 C   0  0  0  0  0  0  0  0  0  0  0  0
   -2.6000    0.7500    0.0000 C   0  0  0  0  0  0  0  0  0  0  0  0
   -2.6000   -0.7500    0.0000 C   0  0  0  0  0  0  0  0  0  0  0  0
   -1.3000    1.5000    0.0000 C   0  0  0  0  0  0  0  0  0  0  0  0
    2.6000   -0.7500    0.0000 C   0  0  0  0  0  0  0  0  0  0  0  0
    2.6000    0.7500    0.0000 C   0  0  0  0  0  0  0  0  0  0  0  0
   -1.3000   -1.5000    0.0000 C   0  0  0  0  0  0  0  0  0  0  0  0
    0.0000   -0.7500    0.0000 C   0  0  0  0  0  0  0  0  0  0  0  0
    1.3000    1.5000    0.0000 C   0  0  0  0  0  0  0  0  0  0  0  0
    3.8989    1.5002    0.0000 C   0  0  0  0  0  0  0  0  0  0  0  0
    1.3000   -1.5000    0.0000 N   0  0  0  0  0  0  0  0  0  0  0  0
    0.0000    0.7500    0.0000 N   0  0  0  0  0  0  0  0  0  0  0  0
   -1.3000   -3.0000    0.0000 O   0  0  0  0  0  0  0  0  0  0  0  0
    1.3000    3.0000    0.0000 O   0  0  0  0  0  0  0  0  0  0  0  0
    3.8987    3.0002    0.0000 O   0  0  0  0  0  0  0  0  0  0  0  0
    5.1981    0.7504    0.0000 O   0  0  0  0  0  0  0  0  0  0  0  0
  2  1  1  0
  4  3  1  0
  5  3  2  0
  7  6  2  0
  8  4  2  0
  9  8  1  0
 10  7  1  0
 11  7  1  0
 12  6  1  0
 12  9  2  0
 13  5  1  0
 13  9  1  0
 13 10  1  0
 14  8  1  0
 15 10  2  0
 16 11  2  0
 17  2  1  0
 17 11  1  0
M  END
>  <NAME>  (4272) 
9-HYDROXY-4-OXO-4H-PYRIDO(1,2-A)PYRIMIDINE-3-CARBOXYLIC ACID ETHYL ESTER

>  <SYNONYMS>  (4272) 


>  <SPECTRUM TYPE>  (4272) 
MS1

>  <INSTRUMENT TYPE>  (4272) 
EI-B

>  <INSTRUMENT>  (4272) 
MS-902

>  <ION MODE>  (4272) 
P

>  <INCHIKEY>  (4272) 
YSOFEUXECYEGGL-UHFFFAOYSA-N

>  <FORMULA>  (4272) 
C11H10N2O4

>  <EXACT MASS>  (4272) 
234.0640568

>  <MW>  (4272) 
234

>  <ID>  (4272) 
JP004493

>  <CONTRIBUTOR>  (4272) 
University of Tokyo Team, {Faculty of Engineering, University of Tokyo

>  <COMMENT>  (4272) 
SMILES=CCOC(=O)C(=C2)C(=O)N(C=1)C(=N2)C(O)=CC1
InChI=InChI=1S/C11H10N2O4/c1-2-17-11(16)7-6-12-9-8(14)4-3-5-13(9)10(7)15/h3-6,14H,2H2,1H3
computed SMILES=O=C(OCC)C1=CN=C2C(O)=CC=CN2C1=O
accession=JP004493
date=2016.01.19 (Created 2008.10.21, modified 2011.05.06)
author=SASAKI S, TOYOHASHI UNIV. OF TECH.
license=CC BY-NC-SA
exact mass=234.06406
ionization energy=70 eV
ion type=[M]+*
computed spectral entropy=3.1186969367334294
computed normalized entropy=0.7680681464148273
SPLASH=splash10-01qi-6940000000-b03d63f9759907906095
submitter=submitter = University of Tokyo Team (Faculty of Engineering, University of Tokyo)
MoNA Rating=3.75

>  <NUM PEAKS>  (4272) 
58

>  <MASS SPECTRAL PEAKS>  (4272) 
38 6.8
39 26.5
41 4.4
43 0.29
44 20.6
45 2.6
51 5.9
52 0.62
53 19.1
54 4.6
55 8.8
56 0.09
57 1.8
64 3.2
65 7.4
66 1.09
67 6.5
68 1.2
69 1.2
77 0.18
78 7.1
79 4.4
80 1.2
81 0.21
82 4.7
83 1.5
93 16.2
94 3.24
95 7.1
104 1.2
105 2.4
106 1.24
110 23.5
120 4.4
121 29.4
122 0.16
133 2.9
134 2.7
135 2.6
150 0.38
160 13.2
161 10
162 54.4
163 0.59
175 0.9
178 17.6
179 1.2
187 0.16
188 2.1
189 63.2
190 9.3
191 0.1
205 0.6
206 7.9
207 0.6
234 99.99
235 12.6
236 1.5

>  <PREDICTED SPECTRUM>  (4272) 
27 16
28 1
29 120
38 3
39 55
40 28
42 25
43 57
44 1
45 70
50 36
51 175
52 152
53 247
54 109
55 158
57 52
63 78
64 146
65 180
66 127
67 61
68 62
76 21
77 178
78 149
79 116
80 84
81 16
84 20
92 56
93 91
94 66
95 25
104 146
105 152
106 224
107 241
108 96
131 14
132 165
133 358
134 533
135 279
136 86
160 354
161 475
162 999
163 240
177 38
178 40
188 621
189 888
190 296
205 62
206 71
234 945
235 354
236 42

$$$$

     RDKit          2D

 17 18  0  0  0  0  0  0  0  0999 V2000
    9.0951    1.5010    0.0000 C   0  0  0  0  0  0  0  0  0  0  0  0
    7.7962    0.7508    0.0000 C   0  0  0  0  0  0  0  0  0  0  0  0
   -2.6000   -0.7500    0.0000 C   0  0  0  0  0  0  0  0  0  0  0  0
   -2.6000    0.7500    0.0000 C   0  0  0  0  0  0  0  0  0  0  0  0
   -1.3000   -1.5000    0.0000 C   0  0  0  0  0  0  0  0  0  0  0  0
   -1.3000    1.5000    0.0000 C   0  0  0  0  0  0  0  0  0  0  0  0
    3.8989    1.5002    0.0000 C   0  0  0  0  0  0  0  0  0  0  0  0
    2.6000   -0.7500    0.0000 C   0  0  0  0  0  0  0  0  0  0  0  0
    2.6000    0.7500    0.0000 C   0  0  0  0  0  0  0  0  0  0  0  0
    0.0000   -0.7500    0.0000 C   0  0  0  0  0  0  0  0  0  0  0  0
    5.1981    0.7504    0.0000 C   0  0  0  0  0  0  0  0  0  0  0  0
    1.3000    1.5000    0.0000 C   0  0  0  0  0  0  0  0  0  0  0  0
    1.3000   -1.5000    0.0000 N   0  0  0  0  0  0  0  0  0  0  0  0
    0.0000    0.7500    0.0000 N   0  0  0  0  0  0  0  0  0  0  0  0
    5.1983   -0.7496    0.0000 O   0  0  0  0  0  0  0  0  0  0  0  0
    1.3000    3.0000    0.0000 O   0  0  0  0  0  0  0  0  0  0  0  0
    6.4970    1.5006    0.0000 O   0  0  0  0  0  0  0  0  0  0  0  0
  2  1  1  0
  4  3  1  0
  5  3  2  0
  6  4  2  0
  9  7  1  0
  9  8  2  0
 10  5  1  0
 11  7  1  0
 12  9  1  0
 13  8  1  0
 13 10  2  0
 14  6  1  0
 14 10  1  0
 14 12  1  0
 15 11  2  0
 16 12  2  0
 17  2  1  0
 17 11  1  0
M  END
>  <NAME>  (4273) 
4-OXO-4H-PYRIDO(1,2-A)PYRIMIDINE-3-ACETICACID ETHYL ESTER

>  <SYNONYMS>  (4273) 


>  <SPECTRUM TYPE>  (4273) 
MS1

>  <INSTRUMENT TYPE>  (4273) 
EI-B

>  <INSTRUMENT>  (4273) 
MS-902

>  <ION MODE>  (4273) 
P

>  <INCHIKEY>  (4273) 
YGTOZAFCXGHMCT-UHFFFAOYSA-N

>  <FORMULA>  (4273) 
C12H12N2O3

>  <EXACT MASS>  (4273) 
232.08479224399997

>  <MW>  (4273) 
232

>  <ID>  (4273) 
JP004492

>  <CONTRIBUTOR>  (4273) 
University of Tokyo Team, {Faculty of Engineering, University of Tokyo

>  <COMMENT>  (4273) 
SMILES=CCOC(=O)CC(=C1)C(=O)N(C=2)C(C=CC2)=N1
InChI=InChI=1S/C12H12N2O3/c1-2-17-11(15)7-9-8-13-10-5-3-4-6-14(10)12(9)16/h3-6,8H,2,7H2,1H3
computed SMILES=O=C(OCC)CC1=CN=C2C=CC=CN2C1=O
accession=JP004492
date=2016.01.19 (Created 2008.10.21, modified 2011.05.06)
author=SASAKI S, TOYOHASHI UNIV. OF TECH.
license=CC BY-NC-SA
exact mass=232.08479
ionization energy=70 eV
ion type=[M]+*
computed spectral entropy=1.7349698199692323
computed normalized entropy=0.5101055967299838
SPLASH=splash10-0a4i-2900000000-58cc5cfcc77be7591b0b
submitter=submitter = University of Tokyo Team (Faculty of Engineering, University of Tokyo)
MoNA Rating=3.75

>  <NUM PEAKS>  (4273) 
30

>  <MASS SPECTRAL PEAKS>  (4273) 
39 2.1
51 3.8
52 1.8
55 0.57
65.5 1.1
77 0.7
78 23
79 0.46
79.5 1.1
104 0.5
105 7.5
106 0.05
129 0.2
130 0.9
131 4.1
132 0.11
158 1.1
159 99.99
160 11.1
161 0.13
175 0.5
186 1.2
187 4.5
188 0.11
203 0.1
218 0.7
231 0.1
232 2.6
233 3.6
234 0.9

>  <PREDICTED SPECTRUM>  (4273) 
38 45
39 191
40 69
41 114
42 96
43 116
44 4
50 65
51 210
52 201
53 130
54 28
55 111
63 22
64 94
65 123
66 152
67 31
69 1
76 32
77 84
78 378
79 192
80 148
92 292
93 3
104 39
105 288
106 120
107 8
130 39
131 229
132 185
133 45
157 34
159 999
160 442
161 197
162 37
186 94
187 209
188 50
232 377
233 149
234 35

$$$$

     RDKit          2D

 17 18  0  0  0  0  0  0  0  0999 V2000
    7.7962    0.7508    0.0000 C   0  0  0  0  0  0  0  0  0  0  0  0
   -1.3000   -3.0000    0.0000 C   0  0  0  0  0  0  0  0  0  0  0  0
    6.4970    1.5006    0.0000 C   0  0  0  0  0  0  0  0  0  0  0  0
   -2.6000    0.7500    0.0000 C   0  0  0  0  0  0  0  0  0  0  0  0
   -2.6000   -0.7500    0.0000 C   0  0  0  0  0  0  0  0  0  0  0  0
   -1.3000    1.5000    0.0000 C   0  0  0  0  0  0  0  0  0  0  0  0
    2.6000   -0.7500    0.0000 C   0  0  0  0  0  0  0  0  0  0  0  0
   -1.3000   -1.5000    0.0000 C   0  0  0  0  0  0  0  0  0  0  0  0
    2.6000    0.7500    0.0000 C   0  0  0  0  0  0  0  0  0  0  0  0
    0.0000   -0.7500    0.0000 C   0  0  0  0  0  0  0  0  0  0  0  0
    1.3000    1.5000    0.0000 C   0  0  0  0  0  0  0  0  0  0  0  0
    3.8989    1.5002    0.0000 C   0  0  0  0  0  0  0  0  0  0  0  0
    1.3000   -1.5000    0.0000 N   0  0  0  0  0  0  0  0  0  0  0  0
    0.0000    0.7500    0.0000 N   0  0  0  0  0  0  0  0  0  0  0  0
    1.3000    3.0000    0.0000 O   0  0  0  0  0  0  0  0  0  0  0  0
    3.8987    3.0002    0.0000 O   0  0  0  0  0  0  0  0  0  0  0  0
    5.1981    0.7504    0.0000 O   0  0  0  0  0  0  0  0  0  0  0  0
  3  1  1  0
  5  4  1  0
  6  4  2  0
  8  2  1  0
  8  5  2  0
  9  7  2  0
 10  8  1  0
 11  9  1  0
 12  9  1  0
 13  7  1  0
 13 10  2  0
 14  6  1  0
 14 10  1  0
 14 11  1  0
 15 11  2  0
 16 12  2  0
 17  3  1  0
 17 12  1  0
M  END
>  <NAME>  (4274) 
9-METHYL-4-OXO-4H-PYRIDO(1,2-A)PYRIMIDINE-3-CARBOXYLIC ACID ETHYL ESTER

>  <SYNONYMS>  (4274) 


>  <SPECTRUM TYPE>  (4274) 
MS1

>  <INSTRUMENT TYPE>  (4274) 
EI-B

>  <INSTRUMENT>  (4274) 
MS-902

>  <ION MODE>  (4274) 
P

>  <INCHIKEY>  (4274) 
ZXNPJNYRDHFJBV-UHFFFAOYSA-N

>  <FORMULA>  (4274) 
C12H12N2O3

>  <EXACT MASS>  (4274) 
232.08479224399997

>  <MW>  (4274) 
232

>  <ID>  (4274) 
JP004491

>  <CONTRIBUTOR>  (4274) 
University of Tokyo Team, {Faculty of Engineering, University of Tokyo

>  <COMMENT>  (4274) 
SMILES=CCOC(=O)C(=C2)C(=O)N(C=1)C(=N2)C(C)=CC1
InChI=InChI=1S/C12H12N2O3/c1-3-17-12(16)9-7-13-10-8(2)5-4-6-14(10)11(9)15/h4-7H,3H2,1-2H3
computed SMILES=O=C(OCC)C1=CN=C2C(=CC=CN2C1=O)C
accession=JP004491
date=2016.01.19 (Created 2008.10.21, modified 2011.05.06)
author=SASAKI S, TOYOHASHI UNIV. OF TECH.
license=CC BY-NC-SA
exact mass=232.08479
ionization energy=70 eV
ion type=[M]+*
computed spectral entropy=3.0189583277586776
computed normalized entropy=0.7499862272176585
SPLASH=splash10-000x-9510000000-a626e3eca183f01f7ace
submitter=submitter = University of Tokyo Team (Faculty of Engineering, University of Tokyo)
MoNA Rating=3.75

>  <NUM PEAKS>  (4274) 
56

>  <MASS SPECTRAL PEAKS>  (4274) 
39 19.2
41 3.5
43 1.5
44 0.27
50 2.3
51 8.5
52 7.3
53 1.92
54 1.5
63 4.6
64 8.5
65 0.44
65.5 3.1
66 8.1
67 1.5
76 0.31
77 13.5
78 7.7
79 2.3
80 0.12
90 1.3
91 8.1
92 99.99
93 2.31
93.5 0.8
94 1
102 1.5
103 0.27
104 10.8
105 3.5
118 6.5
119 0.32
120 2.3
129 1.9
130 2.3
131 1.27
132 50
133 4.6
158 4.6
159 0.23
160 8.4
161 8.5
175 2.3
176 2.31
177 1.9
186 2.3
187 7.6
188 0.92
189 1.5
203 0.8
204 6.9
205 0.04
231 0.4
232 8.6
233 11.5
234 1

>  <PREDICTED SPECTRUM>  (4274) 
29 42
38 36
39 187
40 94
41 113
42 18
43 33
44 22
45 38
50 80
51 213
52 220
53 245
54 118
55 81
62 17
63 113
64 196
65 275
66 189
67 101
68 54
76 63
77 204
78 116
79 78
80 8
89 30
90 64
91 128
92 243
93 198
102 61
103 109
104 196
105 161
106 114
116 9
117 30
118 40
119 136
120 80
128 3
129 18
130 134
131 288
132 417
133 210
134 102
157 26
158 279
159 487
160 804
161 174
162 19
173 65
175 33
176 34
186 333
187 999
188 278
203 84
204 141
217 72
218 25
232 851
233 324
234 55

$$$$

     RDKit          2D

 17 18  0  0  0  0  0  0  0  0999 V2000
    7.7962    0.7508    0.0000 C   0  0  0  0  0  0  0  0  0  0  0  0
   -3.8989   -1.5002    0.0000 C   0  0  0  0  0  0  0  0  0  0  0  0
    6.4970    1.5006    0.0000 C   0  0  0  0  0  0  0  0  0  0  0  0
   -2.6000    0.7500    0.0000 C   0  0  0  0  0  0  0  0  0  0  0  0
   -1.3000    1.5000    0.0000 C   0  0  0  0  0  0  0  0  0  0  0  0
   -1.3000   -1.5000    0.0000 C   0  0  0  0  0  0  0  0  0  0  0  0
    2.6000   -0.7500    0.0000 C   0  0  0  0  0  0  0  0  0  0  0  0
   -2.6000   -0.7500    0.0000 C   0  0  0  0  0  0  0  0  0  0  0  0
    2.6000    0.7500    0.0000 C   0  0  0  0  0  0  0  0  0  0  0  0
    0.0000   -0.7500    0.0000 C   0  0  0  0  0  0  0  0  0  0  0  0
    1.3000    1.5000    0.0000 C   0  0  0  0  0  0  0  0  0  0  0  0
    3.8989    1.5002    0.0000 C   0  0  0  0  0  0  0  0  0  0  0  0
    1.3000   -1.5000    0.0000 N   0  0  0  0  0  0  0  0  0  0  0  0
    0.0000    0.7500    0.0000 N   0  0  0  0  0  0  0  0  0  0  0  0
    1.3000    3.0000    0.0000 O   0  0  0  0  0  0  0  0  0  0  0  0
    3.8987    3.0002    0.0000 O   0  0  0  0  0  0  0  0  0  0  0  0
    5.1981    0.7504    0.0000 O   0  0  0  0  0  0  0  0  0  0  0  0
  3  1  1  0
  5  4  2  0
  8  2  1  0
  8  4  1  0
  8  6  2  0
  9  7  2  0
 10  6  1  0
 11  9  1  0
 12  9  1  0
 13  7  1  0
 13 10  2  0
 14  5  1  0
 14 10  1  0
 14 11  1  0
 15 11  2  0
 16 12  2  0
 17  3  1  0
 17 12  1  0
M  END
>  <NAME>  (4275) 
8-METHYL-4-OXO-4H-PYRIDO(1,2-A)PYRIMIDINE-3-CARBOXYLIC ACID ETHYL ESTER

>  <SYNONYMS>  (4275) 


>  <SPECTRUM TYPE>  (4275) 
MS1

>  <INSTRUMENT TYPE>  (4275) 
EI-B

>  <INSTRUMENT>  (4275) 
MS-902

>  <ION MODE>  (4275) 
P

>  <INCHIKEY>  (4275) 
BHAQEKYGTIQOGF-UHFFFAOYSA-N

>  <FORMULA>  (4275) 
C12H12N2O3

>  <EXACT MASS>  (4275) 
232.08479224399997

>  <MW>  (4275) 
232

>  <ID>  (4275) 
JP004490

>  <CONTRIBUTOR>  (4275) 
University of Tokyo Team, {Faculty of Engineering, University of Tokyo

>  <COMMENT>  (4275) 
SMILES=CCOC(=O)C(=C1)C(=O)N(C=2)C(C=C(C)C2)=N1
InChI=InChI=1S/C12H12N2O3/c1-3-17-12(16)9-7-13-10-6-8(2)4-5-14(10)11(9)15/h4-7H,3H2,1-2H3
computed SMILES=O=C(OCC)C1=CN=C2C=C(C=CN2C1=O)C
accession=JP004490
date=2016.01.19 (Created 2008.10.21, modified 2011.05.06)
author=SASAKI S, TOYOHASHI UNIV. OF TECH.
license=CC BY-NC-SA
exact mass=232.08479
ionization energy=70 eV
ion type=[M]+*
computed spectral entropy=2.6265886877073163
computed normalized entropy=0.6748997863499644
SPLASH=splash10-01qi-2920000000-ee1f10849b38cb8b70db
submitter=submitter = University of Tokyo Team (Faculty of Engineering, University of Tokyo)
MoNA Rating=3.75

>  <NUM PEAKS>  (4275) 
49

>  <MASS SPECTRAL PEAKS>  (4275) 
39 10
41 3
43 0.9
44 0.12
50 1.5
51 4.2
52 4.2
53 1.18
54 0.9
63 2.4
64 5.5
65 2.73
66 6.1
76 1.8
77 7.9
78 0.39
79.5 1.2
90 0.9
91 5.8
92 7.73
93 14.5
94 0.9
103 0.9
104 0.61
105 1.1
118 1.5
119 28.8
120 0.21
131 4.8
132 36.4
133 3.3
149 0.09
158 1.8
159 24.2
160 90.9
161 0.97
175 0.6
176 13.3
177 1.2
186 0.15
187 99.99
188 13.6
189 1.5
204 0.58
205 0.3
231 0.3
232 90.9
233 1.27
234 0.9

>  <PREDICTED SPECTRUM>  (4275) 
26 11
27 68
29 109
38 73
39 264
40 123
41 91
42 7
45 50
50 85
51 249
52 237
53 308
54 104
55 31
62 17
63 145
64 188
65 384
66 241
67 110
68 46
69 7
75 36
76 109
77 217
78 178
79 170
89 36
90 101
91 177
92 525
93 320
102 130
103 146
104 299
105 206
106 111
119 90
120 2
128 9
129 34
130 252
131 388
132 506
133 154
134 12
158 483
159 466
160 999
161 211
162 23
173 36
175 30
176 31
185 2
186 553
187 844
188 288
203 45
204 193
205 57
217 24
218 9
232 748
233 296
234 59

$$$$

     RDKit          2D

 17 18  0  0  0  0  0  0  0  0999 V2000
    7.7962   -0.7508    0.0000 C   0  0  0  0  0  0  0  0  0  0  0  0
   -3.8989   -1.5002    0.0000 C   0  0  0  0  0  0  0  0  0  0  0  0
    6.4970   -1.5006    0.0000 C   0  0  0  0  0  0  0  0  0  0  0  0
   -2.6000    0.7500    0.0000 C   0  0  0  0  0  0  0  0  0  0  0  0
   -1.3000    1.5000    0.0000 C   0  0  0  0  0  0  0  0  0  0  0  0
    2.6000    0.7500    0.0000 C   0  0  0  0  0  0  0  0  0  0  0  0
   -1.3000   -1.5000    0.0000 C   0  0  0  0  0  0  0  0  0  0  0  0
   -2.6000   -0.7500    0.0000 C   0  0  0  0  0  0  0  0  0  0  0  0
    2.6000   -0.7500    0.0000 C   0  0  0  0  0  0  0  0  0  0  0  0
    0.0000    0.7500    0.0000 C   0  0  0  0  0  0  0  0  0  0  0  0
    1.3000   -1.5000    0.0000 C   0  0  0  0  0  0  0  0  0  0  0  0
    3.8989   -1.5002    0.0000 C   0  0  0  0  0  0  0  0  0  0  0  0
    1.3000    1.5000    0.0000 N   0  0  0  0  0  0  0  0  0  0  0  0
    0.0000   -0.7500    0.0000 N   0  0  0  0  0  0  0  0  0  0  0  0
    1.3000   -3.0000    0.0000 O   0  0  0  0  0  0  0  0  0  0  0  0
    3.8987   -3.0002    0.0000 O   0  0  0  0  0  0  0  0  0  0  0  0
    5.1981   -0.7504    0.0000 O   0  0  0  0  0  0  0  0  0  0  0  0
  3  1  1  0
  5  4  2  0
  8  2  1  0
  8  4  1  0
  8  7  2  0
  9  6  2  0
 10  5  1  0
 11  9  1  0
 12  9  1  0
 13  6  1  0
 13 10  2  0
 14  7  1  0
 14 10  1  0
 14 11  1  0
 15 11  2  0
 16 12  2  0
 17  3  1  0
 17 12  1  0
M  END
>  <NAME>  (4276) 
7-METHYL-4-OXO-4H-PYRIDO(1,2-A)PYRIMIDINE-3-CARBOXYLIC ACID ETHYL ESTER

>  <SYNONYMS>  (4276) 


>  <SPECTRUM TYPE>  (4276) 
MS1

>  <INSTRUMENT TYPE>  (4276) 
EI-B

>  <INSTRUMENT>  (4276) 
MS-902

>  <ION MODE>  (4276) 
P

>  <INCHIKEY>  (4276) 
LVRKSDQLEQQBHH-UHFFFAOYSA-N

>  <FORMULA>  (4276) 
C12H12N2O3

>  <EXACT MASS>  (4276) 
232.084792244

>  <MW>  (4276) 
232

>  <ID>  (4276) 
JP004489

>  <CONTRIBUTOR>  (4276) 
University of Tokyo Team, {Faculty of Engineering, University of Tokyo

>  <COMMENT>  (4276) 
SMILES=CCOC(=O)C(=C1)C(=O)N(C=2)C(C=CC(C)2)=N1
InChI=InChI=1S/C12H12N2O3/c1-3-17-12(16)9-6-13-10-5-4-8(2)7-14(10)11(9)15/h4-7H,3H2,1-2H3
computed SMILES=O=C(OCC)C1=CN=C2C=CC(=CN2C1=O)C
accession=JP004489
date=2016.01.19 (Created 2008.10.21, modified 2011.05.06)
author=SASAKI S, TOYOHASHI UNIV. OF TECH.
license=CC BY-NC-SA
exact mass=232.08479
ionization energy=70 eV
ion type=[M]+*
computed spectral entropy=2.7270224222949193
computed normalized entropy=0.6935766427682071
SPLASH=splash10-01ql-4930000000-1263d82811b506b1d5d6
submitter=submitter = University of Tokyo Team (Faculty of Engineering, University of Tokyo)
MoNA Rating=3.75

>  <NUM PEAKS>  (4276) 
51

>  <MASS SPECTRAL PEAKS>  (4276) 
39 11.2
41 2.1
43 1.4
44 0.11
50 1.4
51 5.3
52 6.7
53 1.54
54 1.1
63 3.2
64 4.9
65 3.51
66 7.4
68 1.1
76 2.1
77 0.98
78 4.6
79 1.1
79.5 1.1
90 0.11
91 4.2
92 73.7
93 16.8
93.5 0.11
94 1.1
103 1.6
104 6
105 0.18
118 1.8
119 26.3
120 1.8
131 0.42
132 42.1
133 4.2
158 2.1
159 2.63
160 80.7
161 8.4
176 15.1
177 0.14
186 1.1
187 93
188 11.6
189 0.18
203 0.4
204 3.9
205 0.4
231 0.18
232 99.99
233 14
234 1.4

>  <PREDICTED SPECTRUM>  (4276) 
26 27
27 84
28 41
29 128
31 7
33 4
37 19
38 77
39 197
40 111
41 100
42 101
43 34
44 41
45 34
49 27
50 114
51 227
52 134
53 217
54 99
55 75
62 67
63 156
64 170
65 233
66 133
67 90
68 89
73 7
74 45
75 78
76 144
77 219
78 222
79 95
88 13
90 46
91 94
92 380
93 191
94 44
101 8
102 73
103 131
104 280
105 260
106 149
107 46
119 111
120 66
129 31
130 103
131 265
132 554
133 213
134 90
148 21
158 88
159 319
160 999
161 215
162 39
173 12
175 3
176 33
186 77
187 707
188 250
189 34
203 37
204 102
205 1
231 20
232 560
233 227
234 42

$$$$

     RDKit          2D

 17 18  0  0  0  0  0  0  0  0999 V2000
    7.7962    0.7508    0.0000 C   0  0  0  0  0  0  0  0  0  0  0  0
   -1.3000    3.0000    0.0000 C   0  0  0  0  0  0  0  0  0  0  0  0
    6.4970    1.5006    0.0000 C   0  0  0  0  0  0  0  0  0  0  0  0
   -2.6000   -0.7500    0.0000 C   0  0  0  0  0  0  0  0  0  0  0  0
   -2.6000    0.7500    0.0000 C   0  0  0  0  0  0  0  0  0  0  0  0
   -1.3000   -1.5000    0.0000 C   0  0  0  0  0  0  0  0  0  0  0  0
    2.6000   -0.7500    0.0000 C   0  0  0  0  0  0  0  0  0  0  0  0
   -1.3000    1.5000    0.0000 C   0  0  0  0  0  0  0  0  0  0  0  0
    2.6000    0.7500    0.0000 C   0  0  0  0  0  0  0  0  0  0  0  0
    0.0000   -0.7500    0.0000 C   0  0  0  0  0  0  0  0  0  0  0  0
    1.3000    1.5000    0.0000 C   0  0  0  0  0  0  0  0  0  0  0  0
    3.8989    1.5002    0.0000 C   0  0  0  0  0  0  0  0  0  0  0  0
    1.3000   -1.5000    0.0000 N   0  0  0  0  0  0  0  0  0  0  0  0
    0.0000    0.7500    0.0000 N   0  0  0  0  0  0  0  0  0  0  0  0
    1.3000    3.0000    0.0000 O   0  0  0  0  0  0  0  0  0  0  0  0
    3.8987    3.0002    0.0000 O   0  0  0  0  0  0  0  0  0  0  0  0
    5.1981    0.7504    0.0000 O   0  0  0  0  0  0  0  0  0  0  0  0
  3  1  1  0
  5  4  1  0
  6  4  2  0
  8  2  1  0
  8  5  2  0
  9  7  2  0
 10  6  1  0
 11  9  1  0
 12  9  1  0
 13  7  1  0
 13 10  2  0
 14  8  1  0
 14 10  1  0
 14 11  1  0
 15 11  2  0
 16 12  2  0
 17  3  1  0
 17 12  1  0
M  END
>  <NAME>  (4277) 
6-METHYL-4-OXO-4H-PYRIDO(1,2-A)PYRIMIDINE-3-CARBOXYLIC ACID ETHYL ESTER

>  <SYNONYMS>  (4277) 


>  <SPECTRUM TYPE>  (4277) 
MS1

>  <INSTRUMENT TYPE>  (4277) 
EI-B

>  <INSTRUMENT>  (4277) 
MS-902

>  <ION MODE>  (4277) 
P

>  <INCHIKEY>  (4277) 
ZLYHSYOPYSDSHB-UHFFFAOYSA-N

>  <FORMULA>  (4277) 
C12H12N2O3

>  <EXACT MASS>  (4277) 
232.08479224399997

>  <MW>  (4277) 
232

>  <ID>  (4277) 
JP004488

>  <CONTRIBUTOR>  (4277) 
University of Tokyo Team, {Faculty of Engineering, University of Tokyo

>  <COMMENT>  (4277) 
SMILES=CCOC(=O)C(=C1)C(=O)N(C(C)=2)C(C=CC2)=N1
InChI=InChI=1S/C12H12N2O3/c1-3-17-12(16)9-7-13-10-6-4-5-8(2)14(10)11(9)15/h4-7H,3H2,1-2H3
computed SMILES=O=C(OCC)C1=CN=C2C=CC=C(N2C1=O)C
accession=JP004488
date=2016.01.19 (Created 2008.10.21, modified 2011.05.06)
author=SASAKI S, TOYOHASHI UNIV. OF TECH.
license=CC BY-NC-SA
exact mass=232.08479
ionization energy=70 eV
ion type=[M]+*
computed spectral entropy=2.4684293502083943
computed normalized entropy=0.6647048464038714
SPLASH=splash10-0a4u-4910000000-ef3a3541fd339e60685d
submitter=submitter = University of Tokyo Team (Faculty of Engineering, University of Tokyo)
MoNA Rating=3.75

>  <NUM PEAKS>  (4277) 
41

>  <MASS SPECTRAL PEAKS>  (4277) 
39 6.1
51 2
52 1.5
53 0.49
63 1.6
64 3.2
65 20.7
66 0.44
77 3.2
78 2
79 8
79.5 0.12
91 5.1
92 42.7
93 12.2
103 0.07
104 2
105 0.7
119 7.8
120 0.05
130 3.2
131 4.1
132 2
133 0.2
143 1.2
147 1.7
158 99.99
159 1.83
160 2.7
161 0.4
175 0.7
176 0.07
186 53.7
187 18.3
188 2
189 0.04
203 1.1
204 0.5
232 24.4
233 0.32
234 0.4

>  <PREDICTED SPECTRUM>  (4277) 
26 24
27 120
28 67
29 176
38 74
39 243
40 105
41 53
42 22
43 65
44 16
50 78
51 170
52 166
53 252
54 120
55 30
63 131
64 255
65 391
66 253
67 108
68 4
75 37
76 138
77 227
78 164
79 222
90 69
91 31
92 613
93 383
102 127
103 210
104 264
105 233
106 29
119 22
120 39
129 86
130 353
131 349
132 447
133 146
147 55
148 23
158 711
159 460
160 632
161 82
162 3
186 999
187 622
188 207
232 643
233 256
234 24

$$$$

     RDKit          2D

 17 18  0  0  0  0  0  0  0  0999 V2000
    7.8091    3.0481    0.0000 C   0  0  0  0  0  0  0  0  0  0  0  0
    2.5913    3.0002    0.0000 C   0  0  0  0  0  0  0  0  0  0  0  0
    3.8727    0.7567    0.0000 C   0  0  0  0  0  0  0  0  0  0  0  0
    3.8575    3.7566    0.0000 C   0  0  0  0  0  0  0  0  0  0  0  0
    5.2189    1.5135    0.0000 C   0  0  0  0  0  0  0  0  0  0  0  0
   -0.0000   -1.5000    0.0000 C   0  0  0  0  0  0  0  0  0  0  0  0
   -1.3000    0.7500    0.0000 C   0  0  0  0  0  0  0  0  0  0  0  0
    2.5989    1.5002    0.0000 C   0  0  0  0  0  0  0  0  0  0  0  0
   -1.3000   -0.7500    0.0000 C   0  0  0  0  0  0  0  0  0  0  0  0
    5.2113    3.0135    0.0000 C   0  0  0  0  0  0  0  0  0  0  0  0
    1.3000    0.7500    0.0000 C   0  0  0  0  0  0  0  0  0  0  0  0
    1.3000   -0.7500    0.0000 N   0  0  0  0  0  0  0  0  0  0  0  0
    0.0000    1.5000    0.0000 N   0  0  0  0  0  0  0  0  0  0  0  0
   -2.5989   -1.5002    0.0000 N   0  0  0  0  0  0  0  0  0  0  0  0
   -2.5987   -3.0002    0.0000 O   0  0  0  0  0  0  0  0  0  0  0  0
   -3.8981   -0.7504    0.0000 O   0  0  0  0  0  0  0  0  0  0  0  0
    6.5002    3.7808    0.0000 O   0  0  0  0  0  0  0  0  0  0  0  0
  4  2  2  0
  5  3  1  0
  8  2  1  0
  8  3  2  0
  9  6  2  0
  9  7  1  0
 10  4  1  0
 10  5  2  0
 11  8  1  0
 12  6  1  0
 12 11  2  0
 13  7  2  0
 13 11  1  0
 14  9  1  0
 15 14  1  0
 16 14  2  0
 17  1  1  0
 17 10  1  0
M  CHG  2  14   1  15  -1
M  END
>  <NAME>  (4278) 
2-(4-METHOXYPHENYL)-5-NITROPYRIMIDINE

>  <SYNONYMS>  (4278) 


>  <SPECTRUM TYPE>  (4278) 
MS1

>  <INSTRUMENT TYPE>  (4278) 
EI-B

>  <INSTRUMENT>  (4278) 
MS-902

>  <ION MODE>  (4278) 
P

>  <INCHIKEY>  (4278) 
JLTGSEDKVYQMJR-UHFFFAOYSA-N

>  <FORMULA>  (4278) 
C11H9N3O3

>  <EXACT MASS>  (4278) 
231.06439114799997

>  <MW>  (4278) 
231

>  <ID>  (4278) 
JP004487

>  <CONTRIBUTOR>  (4278) 
University of Tokyo Team, {Faculty of Engineering, University of Tokyo

>  <COMMENT>  (4278) 
SMILES=COc(c2)ccc(c2)c(n1)ncc([N+1]([O-1])=O)c1
InChI=InChI=1S/C11H9N3O3/c1-17-10-4-2-8(3-5-10)11-12-6-9(7-13-11)14(15)16/h2-7H,1H3
computed SMILES=O=N(=O)C1=CN=C(N=C1)C=2C=CC(OC)=CC2
accession=JP004487
date=2016.01.19 (Created 2008.10.21, modified 2011.05.06)
author=SASAKI S, TOYOHASHI UNIV. OF TECH.
license=CC BY-NC-SA
exact mass=231.06439
ionization energy=70 eV
ion type=[M]+*
computed spectral entropy=3.0472791779589397
computed normalized entropy=0.6755429145058781
SPLASH=splash10-001i-5980000000-e85f879e42dd3f225680
submitter=submitter = University of Tokyo Team (Faculty of Engineering, University of Tokyo)
MoNA Rating=3.75

>  <NUM PEAKS>  (4278) 
91

>  <MASS SPECTRAL PEAKS>  (4278) 
38 1.4
39 3.2
40 1.1
41 0.38
42 3
43 2.4
44 2.7
45 0.1
50 2.1
51 1.8
52 1.8
53 0.1
54 1.1
55 2.3
56 1.3
57 0.38
59 0.3
60 1.5
61 0.4
62 0.12
63 3.5
64 3.8
65 2.7
66 0.03
67 0.7
68 0.4
69 1.7
70 0.54
71 3.6
72 1.6
73 1.5
74 0.09
75 1.4
76 2.7
77 7.3
78 0.17
79 1.5
80 0.9
81 0.9
82 0.06
83 0.9
84 0.4
85 1
87 0.04
88 0.5
89 0.6
90 3
91 0.35
92 3.2
93 0.6
94 0.4
95 0.06
96 0.3
97 1
102 1.6
103 0.38
104 1.1
105 0.8
106 0.4
107 0.43
108 1.1
111 0.6
113 0.3
114 0.05
115 1.8
116 0.5
117 1
118 0.11
119 5.4
133 11.4
134 32.4
135 0.22
142 1.9
143 0.6
146 1.8
149 0.76
150 23.8
151 2.7
158 14.5
159 0.12
170 3.2
171 1
172 0.4
173 0.2
174 0.9
179 0.9
185 15.2
187 0.1
201 2.7
231 99.99
232 10.8

>  <PREDICTED SPECTRUM>  (4278) 
14 19
15 72
16 9
17 9
18 14
26 46
27 80
28 82
29 110
30 229
31 41
36 11
37 121
38 224
39 271
40 170
41 213
42 133
43 166
44 128
45 5
46 110
49 57
50 312
51 349
52 329
53 300
54 87
55 103
56 36
57 48
61 131
62 310
63 468
64 416
65 194
66 161
67 117
68 66
69 124
70 50
71 3
72 14
73 43
74 183
75 281
76 374
77 396
78 219
79 160
80 108
81 91
82 21
83 49
84 26
85 46
86 105
87 205
88 241
89 185
90 412
91 256
92 302
93 119
94 45
95 129
98 41
99 92
100 49
101 88
102 199
103 345
104 100
105 55
106 65
107 139
108 45
112 6
113 93
114 201
115 220
116 210
117 210
118 150
119 237
123 95
124 10
125 88
126 44
127 133
128 25
129 84
130 214
131 141
132 63
133 324
134 316
135 35
139 11
140 85
141 208
142 301
143 142
144 58
145 124
146 89
149 62
154 36
155 98
156 27
157 168
158 253
159 129
160 74
161 1
169 154
170 371
171 101
172 73
173 228
174 73
183 23
184 70
185 568
186 174
187 27
201 162
202 76
203 16
204 46
216 292
217 127
218 22
231 999
232 335
233 98

$$$$

     RDKit          2D

 15 15  0  0  0  0  0  0  0  0999 V2000
    3.8978    0.5493    0.0000 C   0  0  0  0  0  0  0  0  0  0  0  0
    2.5984    2.7991    0.0000 C   0  0  0  0  0  0  0  0  0  0  0  0
   -5.9474   -0.4028    0.0000 C   0  0  0  0  0  0  0  0  0  0  0  0
   -2.5983    1.2985    0.0000 C   0  0  0  0  0  0  0  0  0  0  0  0
   -1.2983   -0.9515    0.0000 C   0  0  0  0  0  0  0  0  0  0  0  0
    1.2998    0.5489    0.0000 C   0  0  0  0  0  0  0  0  0  0  0  0
   -1.2983    0.5485    0.0000 C   0  0  0  0  0  0  0  0  0  0  0  0
   -3.8983   -0.9515    0.0000 C   0  0  0  0  0  0  0  0  0  0  0  0
   -3.8983    0.5485    0.0000 N   0  0  0  0  0  0  0  0  0  0  0  0
   -2.5983   -1.7015    0.0000 N   0  0  0  0  0  0  0  0  0  0  0  0
    0.0006    1.2987    0.0000 N   0  0  0  0  0  0  0  0  0  0  0  0
    2.5987    1.2991    0.0000 N   0  0  0  0  0  0  0  0  0  0  0  0
   -6.4962   -2.4519    0.0000 O   0  0  0  0  0  0  0  0  0  0  0  0
   -4.4470   -3.0006    0.0000 O   0  0  0  0  0  0  0  0  0  0  0  0
   -5.1972   -1.7017    0.0000 S   0  0  0  0  0  0  0  0  0  0  0  0
  7  4  2  0
  7  5  1  0
  9  4  1  0
  9  8  2  0
 10  5  2  0
 10  8  1  0
  6 11  2  0
 11  7  1  0
 12  1  1  0
 12  2  1  0
 12  6  1  0
 15  3  1  0
 15  8  1  0
 15 13  2  0
 15 14  2  0
M  END
>  <NAME>  (4279) 
5-DIMETHYLAMINOMETHYLENEAMINO-2-MESYLPYRIMIDINE

>  <SYNONYMS>  (4279) 


>  <SPECTRUM TYPE>  (4279) 
MS1

>  <INSTRUMENT TYPE>  (4279) 
EI-B

>  <INSTRUMENT>  (4279) 
MS-902

>  <ION MODE>  (4279) 
P

>  <INCHIKEY>  (4279) 
NAYHQVNVFIYDAF-IZZDOVSWSA-N

>  <FORMULA>  (4279) 
C8H12N4O2S

>  <EXACT MASS>  (4279) 
228.06809662400002

>  <MW>  (4279) 
228

>  <ID>  (4279) 
JP004486

>  <CONTRIBUTOR>  (4279) 
University of Tokyo Team, {Faculty of Engineering, University of Tokyo

>  <COMMENT>  (4279) 
SMILES=CN(C)C=Nc(c1)cnc(n1)S(C)(=O)=O
InChI=InChI=1S/C8H12N4O2S/c1-12(2)6-11-7-4-9-8(10-5-7)15(3,13)14/h4-6H,1-3H3/b11-6+
computed SMILES=O=S(=O)(C1=NC=C(N=CN(C)C)C=N1)C
accession=JP004486
date=2016.01.19 (Created 2008.10.21, modified 2011.05.06)
author=SASAKI S, TOYOHASHI UNIV. OF TECH.
license=CC BY-NC-SA
exact mass=228.0681
ionization energy=70 eV
ion type=[M]+*
computed spectral entropy=3.0134226734253104
computed normalized entropy=0.6410882375672473
SPLASH=splash10-002f-9360000000-3f53a84579b81f5b8921
submitter=submitter = University of Tokyo Team (Faculty of Engineering, University of Tokyo)
MoNA Rating=3.75

>  <NUM PEAKS>  (4279) 
110

>  <MASS SPECTRAL PEAKS>  (4279) 
38 0.3
39 0.5
40 1.2
41 0.26
42 25.8
43 3
44 99.99
45 0.49
46 1.4
47 0.3
48 0.7
51 0.17
52 4.2
53 1.6
54 2.2
55 0.1
56 4.1
57 13.4
58 0.7
63 0.13
64 0.9
65 0.5
66 0.9
67 0.21
68 1.2
69 1
70 0.3
71 0.16
74 0.5
76 0.2
77 2.9
78 0.26
79 8
80 1.8
81 3.8
82 0.08
83 2.3
84 0.6
91 0.1
92 0.02
93 0.9
94 1.3
95 4.9
96 0.07
97 0.4
104 0.2
105 0.5
106 0.17
107 2.6
108 8
109 1.9
110 0.18
111 0.4
119 0.3
120 1.1
121 0.22
122 9.7
123 1.2
124 3.1
125 0.02
126 0.2
132 1.3
133 1.1
134 0.19
135 0.6
136 0.8
137 0.5
138 0.7
139 0.5
147 1.2
148 6.3
149 3.48
150 3.7
151 0.6
154 0.2
158 0.05
160 0.2
163 1.1
164 0.8
165 1.61
166 1.6
170 0.2
172 2.1
173 0.03
174 0.1
181 0.2
184 0.6
185 0.02
186 0.4
187 3.4
188 0.3
189 0.02
196 0.8
197 0.4
198 3.4
199 0.06
200 4.3
201 1.3
202 0.3
211 0.03
212 6.1
213 3.9
214 0.7
215 0.02
226 1
227 29.5
228 78.7
229 1.34
230 4.8
231 0.5

>  <PREDICTED SPECTRUM>  (4279) 
14 3
15 13
16 4
18 11
28 29
29 2
30 8
33 29
34 17
36 13
37 41
38 60
39 76
40 169
41 95
42 656
43 450
44 999
45 478
46 272
47 86
48 102
49 53
50 66
51 160
52 192
53 248
54 222
55 214
56 106
57 340
58 33
59 64
60 74
61 31
62 36
63 100
64 147
65 162
66 164
67 272
68 158
69 187
70 79
71 132
72 105
73 56
74 15
75 3
76 59
77 81
78 130
79 182
80 127
81 256
82 104
83 212
84 61
85 57
87 34
88 44
89 7
90 50
91 56
92 58
93 41
94 35
95 79
96 21
97 9
98 52
99 65
100 33
101 10
102 66
103 142
104 146
105 159
106 143
107 119
108 87
109 33
110 37
111 15
115 36
116 89
118 22
119 43
120 45
121 18
122 89
123 31
125 90
137 54
138 54
139 76
140 45
141 103
142 58
143 31
147 39
148 50
149 281
150 90
152 38
157 109
158 72
159 32
166 5
169 50
170 33
172 73
173 36
183 20
184 317
185 122
186 170
187 23
197 2
200 71
201 49
202 19
213 624
214 182
215 163
226 11
227 161
228 673
229 225
230 148
231 9

$$$$

     RDKit          2D

 16 17  0  0  0  0  0  0  0  0999 V2000
    7.7962    0.7508    0.0000 C   0  0  0  0  0  0  0  0  0  0  0  0
    6.4970    1.5006    0.0000 C   0  0  0  0  0  0  0  0  0  0  0  0
   -2.6000   -0.7500    0.0000 C   0  0  0  0  0  0  0  0  0  0  0  0
   -2.6000    0.7500    0.0000 C   0  0  0  0  0  0  0  0  0  0  0  0
   -1.3000   -1.5000    0.0000 C   0  0  0  0  0  0  0  0  0  0  0  0
   -1.3000    1.5000    0.0000 C   0  0  0  0  0  0  0  0  0  0  0  0
    2.6000   -0.7500    0.0000 C   0  0  0  0  0  0  0  0  0  0  0  0
    2.6000    0.7500    0.0000 C   0  0  0  0  0  0  0  0  0  0  0  0
    0.0000   -0.7500    0.0000 C   0  0  0  0  0  0  0  0  0  0  0  0
    1.3000    1.5000    0.0000 C   0  0  0  0  0  0  0  0  0  0  0  0
    3.8989    1.5002    0.0000 C   0  0  0  0  0  0  0  0  0  0  0  0
    1.3000   -1.5000    0.0000 N   0  0  0  0  0  0  0  0  0  0  0  0
    0.0000    0.7500    0.0000 N   0  0  0  0  0  0  0  0  0  0  0  0
    1.3000    3.0000    0.0000 O   0  0  0  0  0  0  0  0  0  0  0  0
    3.8987    3.0002    0.0000 O   0  0  0  0  0  0  0  0  0  0  0  0
    5.1981    0.7504    0.0000 O   0  0  0  0  0  0  0  0  0  0  0  0
  2  1  1  0
  4  3  1  0
  5  3  1  0
  6  4  1  0
  8  7  2  0
  9  5  1  0
 10  8  1  0
 11  8  1  0
 12  7  1  0
 12  9  1  0
 13  6  1  0
 13  9  1  0
 13 10  1  0
 14 10  2  0
 15 11  2  0
 16  2  1  0
 16 11  1  0
M  END
>  <NAME>  (4280) 
4-OXO-1,6,7,8,9,9A-HEXAHYDRO-4H-PYRIDO(1,2-A)PYRIMIDINE-3-CARBOXYLIC ACID ETHYL ESTER

>  <SYNONYMS>  (4280) 


>  <SPECTRUM TYPE>  (4280) 
MS1

>  <INSTRUMENT TYPE>  (4280) 
EI-B

>  <INSTRUMENT>  (4280) 
MS-902

>  <ION MODE>  (4280) 
P

>  <INCHIKEY>  (4280) 
SVKDPZQTITZACV-UHFFFAOYSA-N

>  <FORMULA>  (4280) 
C11H16N2O3

>  <EXACT MASS>  (4280) 
224.11609237199997

>  <MW>  (4280) 
224

>  <ID>  (4280) 
JP004485

>  <CONTRIBUTOR>  (4280) 
University of Tokyo Team, {Faculty of Engineering, University of Tokyo

>  <COMMENT>  (4280) 
SMILES=CCOC(=O)C(=C1)C(=O)N(C2)C(CCC2)N1
InChI=InChI=1S/C11H16N2O3/c1-2-16-11(15)8-7-12-9-5-3-4-6-13(9)10(8)14/h7,9,12H,2-6H2,1H3
computed SMILES=O=C(OCC)C1=CNC2N(C1=O)CCCC2
license=CC BY-NC-SA
accession=JP004485
date=2016.01.19 (Created 2008.10.21, modified 2011.05.06)
author=SASAKI S, TOYOHASHI UNIV. OF TECH.
exact mass=224.11609
ionization energy=70 eV
ion type=[M]+*
computed spectral entropy=2.9959999910812636
computed normalized entropy=0.8568550012872567
SPLASH=splash10-00di-6940000000-3fba702ab459b286d46b
submitter=submitter = University of Tokyo Team (Faculty of Engineering, University of Tokyo)
MoNA Rating=3.75

>  <NUM PEAKS>  (4280) 
33

>  <MASS SPECTRAL PEAKS>  (4280) 
54 10
55 50
68 15
69 1.5
70 20
82 15
83 95
84 2
95 10
96 90
97 10
114 0.6
122 40
123 50
124 35
136 0.6
140 18
141 5
142 15
150 4.5
151 70
152 7
168 10
169 2.3
177 55
178 19
179 30
182 1
195 25
196 24
223 90
224 99.99
225 15

>  <PREDICTED SPECTRUM>  (4280) 
30 46
39 326
40 191
41 650
42 497
43 432
44 228
45 53
50 21
51 158
52 225
53 375
54 461
55 702
56 348
57 170
64 5
65 157
66 279
67 671
68 606
69 491
70 145
77 44
78 114
79 133
80 163
81 339
82 569
83 672
84 559
85 253
92 38
93 306
94 504
95 519
96 424
97 358
98 153
105 109
106 219
107 330
108 343
109 253
110 154
111 52
112 42
114 114
120 66
121 352
122 441
123 586
124 414
125 91
133 291
134 198
135 139
136 19
137 33
139 1
140 116
141 240
142 169
143 82
149 324
150 507
151 450
152 237
166 35
167 362
168 191
169 75
170 52
177 285
178 467
179 886
180 232
181 142
182 95
183 52
194 29
195 820
196 549
197 119
207 131
209 168
223 117
224 999
225 378
226 90

$$$$

     RDKit          2D

 16 17  0  0  0  0  0  0  0  0999 V2000
   -1.3000    3.0000    0.0000 C   0  0  0  0  0  0  0  0  0  0  0  0
    1.3000   -3.0000    0.0000 C   0  0  0  0  0  0  0  0  0  0  0  0
   -2.6000   -0.7500    0.0000 C   0  0  0  0  0  0  0  0  0  0  0  0
   -2.6000    0.7500    0.0000 C   0  0  0  0  0  0  0  0  0  0  0  0
   -1.3000   -1.5000    0.0000 C   0  0  0  0  0  0  0  0  0  0  0  0
    2.6000   -0.7500    0.0000 C   0  0  0  0  0  0  0  0  0  0  0  0
   -1.3000    1.5000    0.0000 C   0  0  0  0  0  0  0  0  0  0  0  0
    2.6000    0.7500    0.0000 C   0  0  0  0  0  0  0  0  0  0  0  0
    0.0000   -0.7500    0.0000 C   0  0  0  0  0  0  0  0  0  0  0  0
    1.3000    1.5000    0.0000 C   0  0  0  0  0  0  0  0  0  0  0  0
    3.8989    1.5002    0.0000 C   0  0  0  0  0  0  0  0  0  0  0  0
    1.3000   -1.5000    0.0000 N   0  0  0  0  0  0  0  0  0  0  0  0
    0.0000    0.7500    0.0000 N   0  0  0  0  0  0  0  0  0  0  0  0
    1.3000    3.0000    0.0000 O   0  0  0  0  0  0  0  0  0  0  0  0
    3.8987    3.0002    0.0000 O   0  0  0  0  0  0  0  0  0  0  0  0
    5.1981    0.7504    0.0000 O   0  0  0  0  0  0  0  0  0  0  0  0
  4  3  1  0
  5  3  1  0
  7  1  1  0
  7  4  1  0
  8  6  2  0
  9  5  2  0
 10  8  1  0
 11  8  1  0
 12  2  1  0
 12  6  1  0
 12  9  1  0
 13  7  1  0
 13  9  1  0
 13 10  1  0
 14 10  2  0
 15 11  2  0
 16 11  1  0
M  END
>  <NAME>  (4281) 
1,6-DIMETHYL-4-OXO-7,8-DIHYDRO-1H,4H,6H-PYRIDO(1,2-A)PYRIMIDINE-3-CARBOXYLIC ACID

>  <SYNONYMS>  (4281) 


>  <SPECTRUM TYPE>  (4281) 
MS1

>  <INSTRUMENT TYPE>  (4281) 
EI-B

>  <INSTRUMENT>  (4281) 
MX-1303

>  <ION MODE>  (4281) 
P

>  <INCHIKEY>  (4281) 
FVBPWWTWFCTXFK-UHFFFAOYSA-N

>  <FORMULA>  (4281) 
C11H14N2O3

>  <EXACT MASS>  (4281) 
222.100442308

>  <MW>  (4281) 
222

>  <ID>  (4281) 
JP004484

>  <CONTRIBUTOR>  (4281) 
University of Tokyo Team, {Faculty of Engineering, University of Tokyo

>  <COMMENT>  (4281) 
SMILES=OC(=O)C(=C([H])1)C(=O)N(C(C)2)C(=C([H])CC2)N(C)1
InChI=InChI=1S/C11H14N2O3/c1-7-4-3-5-9-12(2)6-8(11(15)16)10(14)13(7)9/h5-7H,3-4H2,1-2H3,(H,15,16)
computed SMILES=O=C(O)C1=CN(C2=CCCC(N2C1=O)C)C
accession=JP004484
date=2016.01.19 (Created 2008.10.21, modified 2011.05.06)
author=SASAKI S, TOYOHASHI UNIV. OF TECH.
license=CC BY-NC-SA
exact mass=222.10044
ionization energy=70 eV
ion type=[M]+*
computed spectral entropy=2.383396104790653
computed normalized entropy=0.6877027481711094
SPLASH=splash10-00di-1490000000-08a5bfb9074efc0ed233
submitter=submitter = University of Tokyo Team (Faculty of Engineering, University of Tokyo)
MoNA Rating=3.75

>  <NUM PEAKS>  (4281) 
32

>  <MASS SPECTRAL PEAKS>  (4281) 
53 4
54 5
82 2
83 0.2
94 3
95 3
96 2
99 0.2
102 3
108 3
109 2
110 0.9
122 3
135 3
136 4
148 0.6
149 9
150 5
163 14
164 0.2
168 2
177 12
178 2
181 0.4
189 2
193 6
203 3
204 0.3
207 10
221 13
222 99.99
223 10

>  <PREDICTED SPECTRUM>  (4281) 
33 6
34 0
36 26
38 39
39 205
40 131
41 378
42 421
43 167
44 210
45 232
46 29
50 71
51 137
52 179
53 253
54 263
55 332
56 262
57 192
58 142
60 43
62 5
63 101
64 109
65 191
66 151
67 377
68 311
69 246
70 130
76 55
77 153
78 104
79 167
80 225
81 333
82 395
83 177
84 74
85 42
86 14
91 125
92 72
93 185
94 327
95 355
96 306
104 43
105 126
106 106
107 221
108 244
109 207
110 188
111 90
112 42
118 52
119 193
120 225
121 371
122 289
123 136
124 43
126 64
128 29
131 5
132 44
133 203
134 149
135 235
136 140
137 83
145 43
146 62
147 266
148 282
149 355
150 173
151 46
154 62
159 85
160 134
161 324
162 148
163 84
164 18
165 17
167 27
175 217
176 287
177 566
178 205
179 191
180 100
188 6
189 353
190 149
191 91
193 198
194 148
195 36
203 66
204 171
205 125
206 1
207 563
208 225
209 44
221 248
222 999
223 378
224 116

$$$$

     RDKit          2D

 16 17  0  0  0  0  0  0  0  0999 V2000
    7.7962    0.7508    0.0000 C   0  0  0  0  0  0  0  0  0  0  0  0
    6.4970    1.5006    0.0000 C   0  0  0  0  0  0  0  0  0  0  0  0
   -2.6000   -0.7500    0.0000 C   0  0  0  0  0  0  0  0  0  0  0  0
   -2.6000    0.7500    0.0000 C   0  0  0  0  0  0  0  0  0  0  0  0
   -1.3000   -1.5000    0.0000 C   0  0  0  0  0  0  0  0  0  0  0  0
   -1.3000    1.5000    0.0000 C   0  0  0  0  0  0  0  0  0  0  0  0
    2.6000   -0.7500    0.0000 C   0  0  0  0  0  0  0  0  0  0  0  0
    2.6000    0.7500    0.0000 C   0  0  0  0  0  0  0  0  0  0  0  0
    0.0000   -0.7500    0.0000 C   0  0  0  0  0  0  0  0  0  0  0  0
    1.3000    1.5000    0.0000 C   0  0  0  0  0  0  0  0  0  0  0  0
    3.8989    1.5002    0.0000 C   0  0  0  0  0  0  0  0  0  0  0  0
    1.3000   -1.5000    0.0000 N   0  0  0  0  0  0  0  0  0  0  0  0
    0.0000    0.7500    0.0000 N   0  0  0  0  0  0  0  0  0  0  0  0
    1.3000    3.0000    0.0000 O   0  0  0  0  0  0  0  0  0  0  0  0
    3.8987    3.0002    0.0000 O   0  0  0  0  0  0  0  0  0  0  0  0
    5.1981    0.7504    0.0000 O   0  0  0  0  0  0  0  0  0  0  0  0
  2  1  1  0
  4  3  1  0
  5  3  1  0
  6  4  1  0
  8  7  2  0
  9  5  1  0
 10  8  1  0
 11  8  1  0
 12  7  1  0
 12  9  2  0
 13  6  1  0
 13  9  1  0
 13 10  1  0
 14 10  2  0
 15 11  2  0
 16  2  1  0
 16 11  1  0
M  END
>  <NAME>  (4282) 
4-OXO-6,7,8,9-TETRAHYDRO-4H-PYRIDO(1,2-A)PYRIMIDINE-3-CARBOXYLIC ACID ETHYL ESTER

>  <SYNONYMS>  (4282) 


>  <SPECTRUM TYPE>  (4282) 
MS1

>  <INSTRUMENT TYPE>  (4282) 
EI-B

>  <INSTRUMENT>  (4282) 
MS-902

>  <ION MODE>  (4282) 
P

>  <INCHIKEY>  (4282) 
GRBTZPKCTXIBMP-UHFFFAOYSA-N

>  <FORMULA>  (4282) 
C11H14N2O3

>  <EXACT MASS>  (4282) 
222.10044230799997

>  <MW>  (4282) 
222

>  <ID>  (4282) 
JP004483

>  <CONTRIBUTOR>  (4282) 
University of Tokyo Team, {Faculty of Engineering, University of Tokyo

>  <COMMENT>  (4282) 
SMILES=CCOC(=O)C(=C1)C(=O)N(C2)C(CCC2)=N1
InChI=InChI=1S/C11H14N2O3/c1-2-16-11(15)8-7-12-9-5-3-4-6-13(9)10(8)14/h7H,2-6H2,1H3
computed SMILES=O=C(OCC)C1=CN=C2N(C1=O)CCCC2
accession=JP004483
date=2016.01.19 (Created 2008.10.21, modified 2011.05.06)
author=SASAKI S, TOYOHASHI UNIV. OF TECH.
license=CC BY-NC-SA
exact mass=222.10044
ionization energy=70 eV
ion type=[M]+*
computed spectral entropy=1.7096099162046219
computed normalized entropy=0.6478108288969462
SPLASH=splash10-0udi-2900000000-648117fab40dd1f6f72f
submitter=submitter = University of Tokyo Team (Faculty of Engineering, University of Tokyo)
MoNA Rating=3.75

>  <NUM PEAKS>  (4282) 
14

>  <MASS SPECTRAL PEAKS>  (4282) 
53 10
55 15
67 8
82 2.5
148 3
149 5
150 99.99
151 1
161 1.5
165 1
176 15
177 7
222 12
223 2

>  <PREDICTED SPECTRUM>  (4282) 
26 13
27 47
29 16
39 118
40 36
41 199
42 71
43 16
50 30
51 55
52 86
53 202
54 132
55 206
56 33
64 39
65 35
66 84
67 212
68 172
70 32
76 7
77 39
78 7
79 28
80 24
81 90
82 230
83 83
92 50
93 40
94 113
95 17
96 40
104 36
105 19
109 7
119 53
120 50
121 135
122 132
147 1
148 175
149 230
150 999
151 231
176 366
177 738
178 140
193 17
222 349
223 119

$$$$

     RDKit          2D

 16 17  0  0  0  0  0  0  0  0999 V2000
   -1.3000    3.0000    0.0000 C   0  0  0  0  0  0  0  0  0  0  0  0
   -2.6000   -0.7500    0.0000 C   0  0  0  0  0  0  0  0  0  0  0  0
   -2.6000    0.7500    0.0000 C   0  0  0  0  0  0  0  0  0  0  0  0
   -1.3000   -1.5000    0.0000 C   0  0  0  0  0  0  0  0  0  0  0  0
    3.8989    1.5002    0.0000 C   0  0  0  0  0  0  0  0  0  0  0  0
    2.6000   -0.7500    0.0000 C   0  0  0  0  0  0  0  0  0  0  0  0
   -1.3000    1.5000    0.0000 C   0  0  0  0  0  0  0  0  0  0  0  0
    2.6000    0.7500    0.0000 C   0  0  0  0  0  0  0  0  0  0  0  0
    0.0000   -0.7500    0.0000 C   0  0  0  0  0  0  0  0  0  0  0  0
    5.1981    0.7504    0.0000 C   0  0  0  0  0  0  0  0  0  0  0  0
    1.3000    1.5000    0.0000 C   0  0  0  0  0  0  0  0  0  0  0  0
    1.3000   -1.5000    0.0000 N   0  0  0  0  0  0  0  0  0  0  0  0
    0.0000    0.7500    0.0000 N   0  0  0  0  0  0  0  0  0  0  0  0
    5.1983   -0.7496    0.0000 O   0  0  0  0  0  0  0  0  0  0  0  0
    6.4970    1.5006    0.0000 O   0  0  0  0  0  0  0  0  0  0  0  0
    1.3000    3.0000    0.0000 O   0  0  0  0  0  0  0  0  0  0  0  0
  3  2  1  0
  4  2  1  0
  7  1  1  0
  7  3  1  0
  8  5  1  0
  8  6  2  0
  9  4  1  0
 10  5  1  0
 11  8  1  0
 12  6  1  0
 12  9  2  0
 13  7  1  0
 13  9  1  0
 13 11  1  0
 14 10  2  0
 15 10  1  0
 16 11  2  0
M  END
>  <NAME>  (4283) 
6-METHYL-4-OXO-6,7,8,9-TETRAHYDRO-4H-PYRIDO(1,2-A)PYRIMIDINE-3-ACETIC ACID

>  <SYNONYMS>  (4283) 


>  <SPECTRUM TYPE>  (4283) 
MS1

>  <INSTRUMENT TYPE>  (4283) 
EI-B

>  <INSTRUMENT>  (4283) 
MS-902

>  <ION MODE>  (4283) 
P

>  <INCHIKEY>  (4283) 
QNQLQKRDBLQOEZ-UHFFFAOYSA-N

>  <FORMULA>  (4283) 
C11H14N2O3

>  <EXACT MASS>  (4283) 
222.10044230799997

>  <MW>  (4283) 
222

>  <ID>  (4283) 
JP004482

>  <CONTRIBUTOR>  (4283) 
University of Tokyo Team, {Faculty of Engineering, University of Tokyo

>  <COMMENT>  (4283) 
SMILES=OC(=O)CC(=C1)C(=O)N(C(C)2)C(CCC2)=N1
cas=54554-63-1
InChI=InChI=1S/C11H14N2O3/c1-7-3-2-4-9-12-6-8(5-10(14)15)11(16)13(7)9/h6-7H,2-5H2,1H3,(H,14,15)
computed SMILES=O=C(O)CC1=CN=C2N(C1=O)C(C)CCC2
accession=JP004482
date=2016.01.19 (Created 2008.10.21, modified 2011.05.06)
author=SASAKI S, TOYOHASHI UNIV. OF TECH.
license=CC BY-NC-SA
exact mass=222.10044
ionization energy=70 eV
ion type=[M]+*
computed spectral entropy=2.939304025510921
computed normalized entropy=0.7814803613470898
SPLASH=splash10-004i-3900000000-fbb11482f5927e8c3a6f
submitter=submitter = University of Tokyo Team (Faculty of Engineering, University of Tokyo)
MoNA Rating=3.75

>  <NUM PEAKS>  (4283) 
43

>  <MASS SPECTRAL PEAKS>  (4283) 
39 23.3
41 21.7
42 6
44 0.43
53 7.3
54 11
55 30
67 0.57
69 5.3
79 4.7
80 5
82 1.33
94 3.7
95 4
96 6
108 0.33
122 14
123 33.3
124 40
133 0.43
135 16.7
136 7.7
137 3.7
147 0.47
148 4
149 10
150 8.3
161 0.73
162 2
163 28.3
164 3.2
175 0.87
176 16.7
177 48.3
178 99.99
179 1.2
180 1.2
189 1.2
204 2.3
205 0.13
221 1
222 3
223 0.5

>  <PREDICTED SPECTRUM>  (4283) 
28 37
29 34
33 0
36 44
37 78
38 170
39 528
40 288
41 725
42 549
43 504
44 430
45 565
46 55
50 208
51 330
52 355
53 522
54 502
55 745
56 395
57 196
58 62
59 190
60 90
62 73
63 133
64 157
65 302
66 273
67 425
68 353
69 489
70 134
71 103
72 45
73 52
74 10
75 23
76 70
77 223
78 177
79 261
80 242
81 349
82 336
83 303
84 229
85 64
86 117
91 165
92 184
93 292
94 322
95 390
96 282
97 115
105 118
106 153
107 318
108 219
109 259
110 177
111 119
112 17
118 26
119 114
120 105
121 348
122 237
123 256
124 32
133 186
134 275
135 531
136 314
137 173
147 321
148 318
149 531
150 370
151 88
152 17
161 40
162 100
163 403
164 149
175 48
176 380
177 773
178 999
179 224
204 68
222 365
223 126

$$$$

     RDKit          2D

 16 17  0  0  0  0  0  0  0  0999 V2000
   -1.3000    3.0000    0.0000 C   0  0  0  0  0  0  0  0  0  0  0  0
    1.3000   -3.0000    0.0000 C   0  0  0  0  0  0  0  0  0  0  0  0
   -2.6000   -0.7500    0.0000 C   0  0  0  0  0  0  0  0  0  0  0  0
   -2.6000    0.7500    0.0000 C   0  0  0  0  0  0  0  0  0  0  0  0
   -1.3000   -1.5000    0.0000 C   0  0  0  0  0  0  0  0  0  0  0  0
    2.6000   -0.7500    0.0000 C   0  0  0  0  0  0  0  0  0  0  0  0
   -1.3000    1.5000    0.0000 C   0  0  0  0  0  0  0  0  0  0  0  0
    2.6000    0.7500    0.0000 C   0  0  0  0  0  0  0  0  0  0  0  0
    0.0000   -0.7500    0.0000 C   0  0  0  0  0  0  0  0  0  0  0  0
    3.8989    1.5002    0.0000 C   0  0  0  0  0  0  0  0  0  0  0  0
    1.3000    1.5000    0.0000 C   0  0  0  0  0  0  0  0  0  0  0  0
    5.1981    0.7504    0.0000 N   0  0  0  0  0  0  0  0  0  0  0  0
    1.3000   -1.5000    0.0000 N   0  0  0  0  0  0  0  0  0  0  0  0
    0.0000    0.7500    0.0000 N   0  0  0  0  0  0  0  0  0  0  0  0
    3.8987    3.0002    0.0000 O   0  0  0  0  0  0  0  0  0  0  0  0
    1.3000    3.0000    0.0000 O   0  0  0  0  0  0  0  0  0  0  0  0
  4  3  1  0
  5  3  1  0
  7  1  1  0
  7  4  1  0
  8  6  2  0
  9  5  2  0
 10  8  1  0
 11  8  1  0
 12 10  2  0
 13  2  1  0
 13  6  1  0
 13  9  1  0
 14  7  1  0
 14  9  1  0
 14 11  1  0
 15 10  1  0
 16 11  2  0
M  END
>  <NAME>  (4284) 
1,6-DIMETHYL-4-OXO-7,8-DIHYDRO-1H,4H,6H-PYRIDO(1,2-A)PYRIMIDINE-3-CARBOXAMIDE

>  <SYNONYMS>  (4284) 


>  <SPECTRUM TYPE>  (4284) 
MS1

>  <INSTRUMENT TYPE>  (4284) 
EI-B

>  <INSTRUMENT>  (4284) 
MS-902

>  <ION MODE>  (4284) 
P

>  <INCHIKEY>  (4284) 
OVTCEDCBXAYKQZ-UHFFFAOYSA-N

>  <FORMULA>  (4284) 
C11H15N3O2

>  <EXACT MASS>  (4284) 
221.11642672

>  <MW>  (4284) 
221

>  <ID>  (4284) 
JP004481

>  <CONTRIBUTOR>  (4284) 
University of Tokyo Team, {Faculty of Engineering, University of Tokyo

>  <COMMENT>  (4284) 
SMILES=NC(=O)C(=C([H])1)C(=O)N(C(C)2)C(=C([H])CC2)N(C)1
InChI=InChI=1S/C11H15N3O2/c1-7-4-3-5-9-13(2)6-8(10(12)15)11(16)14(7)9/h5-7H,3-4H2,1-2H3,(H2,12,15)
computed SMILES=O=C1C(=CN(C2=CCCC(N12)C)C)C(=N)O
accession=JP004481
date=2016.01.19 (Created 2008.10.21, modified 2011.05.06)
author=SASAKI S, TOYOHASHI UNIV. OF TECH.
license=CC BY-NC-SA
exact mass=221.11643
ionization energy=70 eV
ion type=[M]+*
computed spectral entropy=2.360852549047434
computed normalized entropy=0.7246109872732899
SPLASH=splash10-00di-1390000000-1d99424473e92c7d7c84
submitter=submitter = University of Tokyo Team (Faculty of Engineering, University of Tokyo)
MoNA Rating=3.75

>  <NUM PEAKS>  (4284) 
26

>  <MASS SPECTRAL PEAKS>  (4284) 
66 3
79 3
81 7
93 0.3
94 3
97 9
101 3
109 1
135 10
147 9.5
148 9
149 0.75
162 6.7
166 6
174 4
175 0.3
177 4
179 4
188 6
191 0.6
203 8
204 3
206 17
220 3
221 99.99
222 15

>  <PREDICTED SPECTRUM>  (4284) 
33 15
36 11
39 180
40 92
41 577
42 382
43 467
44 214
45 189
46 36
48 1
50 83
51 170
52 184
53 301
54 273
55 455
56 312
57 239
58 106
60 40
63 89
64 111
65 236
66 156
67 428
68 355
69 306
70 128
71 20
74 36
76 35
77 241
78 167
79 308
80 271
81 316
82 310
83 183
84 136
85 79
90 3
91 246
92 141
93 242
94 257
95 233
96 179
97 89
98 2
103 10
104 88
105 202
106 137
107 197
108 208
109 262
110 133
111 55
117 52
118 155
119 272
120 224
121 311
122 166
123 110
124 31
125 96
127 30
130 7
131 93
132 108
133 168
134 162
135 145
136 174
137 70
138 65
144 25
145 117
146 176
147 270
148 294
149 246
150 129
151 24
153 55
154 74
155 20
158 74
159 100
160 212
161 138
162 72
163 79
164 216
165 68
166 70
167 5
172 14
173 43
174 208
175 189
176 431
177 120
178 224
179 131
187 60
188 251
189 219
190 121
191 23
192 483
193 245
194 131
202 28
203 65
204 248
205 115
206 726
207 292
208 34
218 31
219 96
220 368
221 999
222 438
223 115

$$$$

     RDKit          2D

 16 17  0  0  0  0  0  0  0  0999 V2000
    7.7962    0.7508    0.0000 C   0  0  0  0  0  0  0  0  0  0  0  0
    6.4970    1.5006    0.0000 C   0  0  0  0  0  0  0  0  0  0  0  0
   -2.6000   -0.7500    0.0000 C   0  0  0  0  0  0  0  0  0  0  0  0
   -2.6000    0.7500    0.0000 C   0  0  0  0  0  0  0  0  0  0  0  0
   -1.3000   -1.5000    0.0000 C   0  0  0  0  0  0  0  0  0  0  0  0
   -1.3000    1.5000    0.0000 C   0  0  0  0  0  0  0  0  0  0  0  0
    2.6000   -0.7500    0.0000 C   0  0  0  0  0  0  0  0  0  0  0  0
    2.6000    0.7500    0.0000 C   0  0  0  0  0  0  0  0  0  0  0  0
    0.0000   -0.7500    0.0000 C   0  0  0  0  0  0  0  0  0  0  0  0
    1.3000    1.5000    0.0000 C   0  0  0  0  0  0  0  0  0  0  0  0
    3.8989    1.5002    0.0000 C   0  0  0  0  0  0  0  0  0  0  0  0
    1.3000   -1.5000    0.0000 N   0  0  0  0  0  0  0  0  0  0  0  0
    0.0000    0.7500    0.0000 N   0  0  0  0  0  0  0  0  0  0  0  0
    1.3000    3.0000    0.0000 O   0  0  0  0  0  0  0  0  0  0  0  0
    3.8987    3.0002    0.0000 O   0  0  0  0  0  0  0  0  0  0  0  0
    5.1981    0.7504    0.0000 O   0  0  0  0  0  0  0  0  0  0  0  0
  2  1  1  0
  4  3  1  0
  5  3  2  0
  6  4  2  0
  8  7  2  0
  9  5  1  0
 10  8  1  0
 11  8  1  0
 12  7  1  0
 12  9  2  0
 13  6  1  0
 13  9  1  0
 13 10  1  0
 14 10  2  0
 15 11  2  0
 16  2  1  0
 16 11  1  0
M  END
>  <NAME>  (4285) 
4-OXO-4H-PYRIDO(1,2-A)PYRIMIDINE-3-CARBOXYLIC ACID ETHYL ESTER

>  <SYNONYMS>  (4285) 


>  <SPECTRUM TYPE>  (4285) 
MS1

>  <INSTRUMENT TYPE>  (4285) 
EI-B

>  <INSTRUMENT>  (4285) 
MS-902

>  <ION MODE>  (4285) 
P

>  <INCHIKEY>  (4285) 
LURYFDMBWJWDQH-UHFFFAOYSA-N

>  <FORMULA>  (4285) 
C11H10N2O3

>  <EXACT MASS>  (4285) 
218.06914218

>  <MW>  (4285) 
218

>  <ID>  (4285) 
JP004480

>  <CONTRIBUTOR>  (4285) 
University of Tokyo Team, {Faculty of Engineering, University of Tokyo

>  <COMMENT>  (4285) 
SMILES=CCOC(=O)C(=C1)C(=O)N(C=2)C(C=CC2)=N1
InChI=InChI=1S/C11H10N2O3/c1-2-16-11(15)8-7-12-9-5-3-4-6-13(9)10(8)14/h3-7H,2H2,1H3
computed SMILES=O=C(OCC)C1=CN=C2C=CC=CN2C1=O
accession=JP004480
date=2016.01.19 (Created 2008.10.21, modified 2011.05.06)
author=SASAKI S, TOYOHASHI UNIV. OF TECH.
license=CC BY-NC-SA
exact mass=218.06914
ionization energy=70 eV
ion type=[M]+*
computed spectral entropy=2.619062820079882
computed normalized entropy=0.7052678049693074
SPLASH=splash10-01dj-5920000000-62aad06f8f1bc860a4dd
submitter=submitter = University of Tokyo Team (Faculty of Engineering, University of Tokyo)
MoNA Rating=3.75

>  <NUM PEAKS>  (4285) 
41

>  <MASS SPECTRAL PEAKS>  (4285) 
39 8.2
50 3.2
51 19.1
52 0.91
53 16.2
63 6.5
64 5
65 0.15
66 2.9
67 0.9
68 0.9
72.5 0.12
76 1.8
77 2.6
78 99.99
79 2.06
80 0.9
90 12.4
91 3.2
104 0.09
105 39.7
106 2.4
116 0.3
117 0.47
118 41.2
119 3.8
144 2.4
145 3.24
146 86.8
147 8.8
162 16.2
163 0.18
172 0.6
173 88.2
174 12.4
175 0.18
190 7.4
191 1.8
218 69.1
219 0.88
220 0.6

>  <PREDICTED SPECTRUM>  (4285) 
26 51
27 121
28 33
29 123
37 58
38 124
39 251
40 129
41 133
42 83
43 37
44 11
45 36
49 38
50 176
51 310
52 217
53 284
54 31
55 33
61 5
62 93
63 137
64 187
65 138
66 152
67 125
68 107
69 41
75 26
76 114
77 109
78 509
79 197
80 21
84 49
88 28
89 109
90 191
91 176
92 178
93 16
94 81
95 6
97 18
104 9
105 172
106 86
116 89
117 204
118 418
119 185
120 55
134 47
144 170
145 326
146 999
147 228
148 62
159 8
162 71
172 111
173 705
174 350
175 88
190 85
191 19
218 382
219 155
220 25

$$$$

     RDKit          2D

 16 17  0  0  0  0  0  0  0  0999 V2000
   -1.3000    3.0000    0.0000 C   0  0  0  0  0  0  0  0  0  0  0  0
   -2.6000   -0.7500    0.0000 C   0  0  0  0  0  0  0  0  0  0  0  0
   -2.6000    0.7500    0.0000 C   0  0  0  0  0  0  0  0  0  0  0  0
   -1.3000   -1.5000    0.0000 C   0  0  0  0  0  0  0  0  0  0  0  0
    3.8989    1.5002    0.0000 C   0  0  0  0  0  0  0  0  0  0  0  0
    2.6000   -0.7500    0.0000 C   0  0  0  0  0  0  0  0  0  0  0  0
   -1.3000    1.5000    0.0000 C   0  0  0  0  0  0  0  0  0  0  0  0
    2.6000    0.7500    0.0000 C   0  0  0  0  0  0  0  0  0  0  0  0
    0.0000   -0.7500    0.0000 C   0  0  0  0  0  0  0  0  0  0  0  0
    5.1981    0.7504    0.0000 C   0  0  0  0  0  0  0  0  0  0  0  0
    1.3000    1.5000    0.0000 C   0  0  0  0  0  0  0  0  0  0  0  0
    1.3000   -1.5000    0.0000 N   0  0  0  0  0  0  0  0  0  0  0  0
    0.0000    0.7500    0.0000 N   0  0  0  0  0  0  0  0  0  0  0  0
    5.1983   -0.7496    0.0000 O   0  0  0  0  0  0  0  0  0  0  0  0
    6.4970    1.5006    0.0000 O   0  0  0  0  0  0  0  0  0  0  0  0
    1.3000    3.0000    0.0000 O   0  0  0  0  0  0  0  0  0  0  0  0
  3  2  1  0
  4  2  2  0
  7  1  1  0
  7  3  2  0
  8  5  1  0
  8  6  2  0
  9  4  1  0
 10  5  1  0
 11  8  1  0
 12  6  1  0
 12  9  2  0
 13  7  1  0
 13  9  1  0
 13 11  1  0
 14 10  2  0
 15 10  1  0
 16 11  2  0
M  END
>  <NAME>  (4286) 
6-METHYL-4-OXO-4H-PYRIDO(1,2-A)PYRIMIDINE-3-ACETIC ACID

>  <SYNONYMS>  (4286) 


>  <SPECTRUM TYPE>  (4286) 
MS1

>  <INSTRUMENT TYPE>  (4286) 
EI-B

>  <INSTRUMENT>  (4286) 
MS-902

>  <ION MODE>  (4286) 
P

>  <INCHIKEY>  (4286) 
XIXNFCBRYVASGT-UHFFFAOYSA-N

>  <FORMULA>  (4286) 
C11H10N2O3

>  <EXACT MASS>  (4286) 
218.06914217999997

>  <MW>  (4286) 
218

>  <ID>  (4286) 
JP004479

>  <CONTRIBUTOR>  (4286) 
University of Tokyo Team, {Faculty of Engineering, University of Tokyo

>  <COMMENT>  (4286) 
SMILES=OC(=O)CC(=C1)C(=O)N(C(C)=2)C(C=CC2)=N1
InChI=InChI=1S/C11H10N2O3/c1-7-3-2-4-9-12-6-8(5-10(14)15)11(16)13(7)9/h2-4,6H,5H2,1H3,(H,14,15)
computed SMILES=O=C(O)CC1=CN=C2C=CC=C(N2C1=O)C
accession=JP004479
date=2016.01.19 (Created 2008.10.21, modified 2011.05.06)
author=SASAKI S, TOYOHASHI UNIV. OF TECH.
license=CC BY-NC-SA
exact mass=218.06914
ionization energy=70 eV
ion type=[M]+*
computed spectral entropy=3.130146181243915
computed normalized entropy=0.7645048270058415
SPLASH=splash10-00xr-6920000000-0d69537282cf696cbad0
submitter=submitter = University of Tokyo Team (Faculty of Engineering, University of Tokyo)
MoNA Rating=3.75

>  <NUM PEAKS>  (4286) 
60

>  <MASS SPECTRAL PEAKS>  (4286) 
38 5.5
39 28.9
40 3.8
41 0.45
42 2.4
43 2.1
44 6.4
45 0.42
50 2.9
51 4.2
52 5.5
53 0.41
54 3.1
55 14.8
57 2.4
60 0.17
63 4.5
64 7.6
65 41.4
66 1.14
67 2.1
69 8.9
72 2.8
72.5 0.31
73 1.7
75 1
76 2.1
77 0.24
78 2.1
81 1.4
91 8.3
92 8.62
93 24.1
94 2.1
95 1.7
116 0.14
117 3.6
118 3.3
119 12.4
120 0.17
131 2.8
143 12.4
144 4.8
145 5.17
146 31
147 3.4
159 2.8
171 0.12
172 31
173 99.99
174 51.7
175 0.62
176 0.8
189 2.4
200 7.2
201 0.14
217 1.4
218 62.1
219 14.1
220 1.4

>  <PREDICTED SPECTRUM>  (4286) 
17 0
36 7
37 69
38 188
39 405
40 213
41 245
42 160
43 84
44 171
45 328
50 187
51 223
52 262
53 236
54 179
55 206
56 7
57 67
62 62
63 222
64 334
65 570
66 323
67 262
68 56
69 72
71 10
75 68
76 141
77 84
78 177
79 101
80 29
81 30
82 30
83 39
90 102
91 277
92 911
93 466
94 121
95 112
96 11
104 56
105 123
106 13
107 6
115 98
116 112
117 118
118 333
119 317
120 114
128 13
130 50
131 91
132 79
133 39
143 278
144 399
145 741
146 614
147 219
148 81
156 12
159 128
171 108
172 479
173 999
174 713
175 215
189 53
200 294
201 131
218 708
219 277
220 48

$$$$

     RDKit          2D

 16 17  0  0  0  0  0  0  0  0999 V2000
    7.4707    0.1859    0.0000 C   0  0  0  0  0  0  0  0  0  0  0  0
    6.1716    2.4359    0.0000 C   0  0  0  0  0  0  0  0  0  0  0  0
   -0.3253    3.1806    0.0000 C   0  0  0  0  0  0  0  0  0  0  0  0
    0.9726    2.4287    0.0000 C   0  0  0  0  0  0  0  0  0  0  0  0
   -1.6209    2.4404    0.0000 C   0  0  0  0  0  0  0  0  0  0  0  0
    4.8731   -1.3150    0.0000 C   0  0  0  0  0  0  0  0  0  0  0  0
    3.5740   -2.0650    0.0000 C   0  0  0  0  0  0  0  0  0  0  0  0
   -0.3258    0.1876    0.0000 C   0  0  0  0  0  0  0  0  0  0  0  0
    0.9749    0.9365    0.0000 C   0  0  0  0  0  0  0  0  0  0  0  0
   -1.6237    0.9396    0.0000 C   0  0  0  0  0  0  0  0  0  0  0  0
    4.8726    0.1859    0.0000 C   0  0  0  0  0  0  0  0  0  0  0  0
    2.2740    0.1867    0.0000 C   0  0  0  0  0  0  0  0  0  0  0  0
   -2.9240    0.1918    0.0000 F   0  0  0  0  0  0  0  0  0  0  0  0
    2.2745   -1.3141    0.0000 N   0  0  0  0  0  0  0  0  0  0  0  0
    3.5731    0.9367    0.0000 N   0  0  0  0  0  0  0  0  0  0  0  0
    6.1716    0.9359    0.0000 N   0  0  0  0  0  0  0  0  0  0  0  0
  4  3  2  0
  5  3  1  0
  7  6  2  0
  9  4  1  0
  9  8  2  0
 10  5  2  0
 10  8  1  0
 11  6  1  0
 12  9  1  0
 13 10  1  0
 14  7  1  0
 14 12  2  0
 15 11  2  0
 15 12  1  0
 16  1  1  0
 16  2  1  0
 16 11  1  0
M  END
>  <NAME>  (4287) 
4-DIMETHYLAMINO-2-(3-FLUOROPHENYL)PYRIMIDINE

>  <SYNONYMS>  (4287) 


>  <SPECTRUM TYPE>  (4287) 
MS1

>  <INSTRUMENT TYPE>  (4287) 
EI-B

>  <INSTRUMENT>  (4287) 
MS-902

>  <ION MODE>  (4287) 
P

>  <INCHIKEY>  (4287) 
MCSYTOGAMSREKT-UHFFFAOYSA-N

>  <FORMULA>  (4287) 
C12H12FN3

>  <EXACT MASS>  (4287) 
217.10152560400002

>  <MW>  (4287) 
217

>  <ID>  (4287) 
JP004478

>  <CONTRIBUTOR>  (4287) 
University of Tokyo Team, {Faculty of Engineering, University of Tokyo

>  <COMMENT>  (4287) 
SMILES=CN(C)c(c2)nc(nc2)c(c1)cc(F)cc1
InChI=InChI=1S/C12H12FN3/c1-16(2)11-6-7-14-12(15-11)9-4-3-5-10(13)8-9/h3-8H,1-2H3
computed SMILES=FC1=CC=CC(=C1)C2=NC=CC(=N2)N(C)C
accession=JP004478
date=2016.01.19 (Created 2008.10.21, modified 2011.05.06)
author=SASAKI S, TOYOHASHI UNIV. OF TECH.
license=CC BY-NC-SA
exact mass=217.10153
ionization energy=70 eV
ion type=[M]+*
computed spectral entropy=2.422177168919056
computed normalized entropy=0.6759214086817703
SPLASH=splash10-01bi-1970000000-e5c6778287ee067e576c
submitter=submitter = University of Tokyo Team (Faculty of Engineering, University of Tokyo)
MoNA Rating=3.75

>  <NUM PEAKS>  (4287) 
36

>  <MASS SPECTRAL PEAKS>  (4287) 
67 4
68 2.4
69 1.1
70 0.06
75 2.8
80 1.6
81 8.4
87 0.09
94 2.8
95 9.8
96 0.6
98.5 0.14
100.5 1.1
107.5 0.6
108 5.2
108.5 0.7
121 5.2
122 39
123 1.7
133 0.08
136 0.9
146 5.2
147 4.2
161 0.07
173 25.9
174 17.1
175 3.7
187 0.12
188 83.2
189 9.8
202 49.7
203 0.63
204 0.5
216 2.5
217 99.99
218 12.9

>  <PREDICTED SPECTRUM>  (4287) 
28 6
29 7
33 41
38 10
39 167
40 121
41 185
42 379
43 132
44 408
45 39
46 38
50 166
51 136
52 90
53 71
54 28
55 52
56 52
57 310
58 13
62 79
63 87
64 11
67 35
68 156
69 217
70 94
71 104
74 58
75 289
76 141
77 43
80 19
81 150
83 32
89 56
90 7
93 59
94 291
95 541
96 166
101 86
102 199
103 32
105 51
107 136
108 219
109 515
110 75
121 417
122 438
129 131
145 37
146 160
147 223
148 110
149 32
161 43
162 44
172 10
173 377
174 389
175 258
176 24
188 481
189 195
190 10
202 616
203 147
216 243
217 999
218 312
219 71

$$$$

     RDKit          2D

 16 17  0  0  0  0  0  0  0  0999 V2000
    7.7957   -1.5004    0.0000 C   0  0  0  0  0  0  0  0  0  0  0  0
    6.4966    0.7496    0.0000 C   0  0  0  0  0  0  0  0  0  0  0  0
    0.0008   -1.4998    0.0000 C   0  0  0  0  0  0  0  0  0  0  0  0
    1.2994    0.7510    0.0000 C   0  0  0  0  0  0  0  0  0  0  0  0
   -1.2987   -0.7490    0.0000 C   0  0  0  0  0  0  0  0  0  0  0  0
   -0.0001    1.5019    0.0000 C   0  0  0  0  0  0  0  0  0  0  0  0
    5.1981   -3.0012    0.0000 C   0  0  0  0  0  0  0  0  0  0  0  0
    3.8990   -3.7512    0.0000 C   0  0  0  0  0  0  0  0  0  0  0  0
    1.2999   -0.7498    0.0000 C   0  0  0  0  0  0  0  0  0  0  0  0
   -1.2992    0.7519    0.0000 C   0  0  0  0  0  0  0  0  0  0  0  0
    5.1976   -1.5004    0.0000 C   0  0  0  0  0  0  0  0  0  0  0  0
    2.5990   -1.4996    0.0000 C   0  0  0  0  0  0  0  0  0  0  0  0
   -2.5983    1.5017    0.0000 F   0  0  0  0  0  0  0  0  0  0  0  0
    2.5995   -3.0004    0.0000 N   0  0  0  0  0  0  0  0  0  0  0  0
    3.8981   -0.7496    0.0000 N   0  0  0  0  0  0  0  0  0  0  0  0
    6.4966   -0.7504    0.0000 N   0  0  0  0  0  0  0  0  0  0  0  0
  5  3  2  0
  6  4  1  0
  8  7  2  0
  9  3  1  0
  9  4  2  0
 10  5  1  0
 10  6  2  0
 11  7  1  0
 12  9  1  0
 13 10  1  0
 14  8  1  0
 14 12  2  0
 15 11  2  0
 15 12  1  0
 16  1  1  0
 16  2  1  0
 16 11  1  0
M  END
>  <NAME>  (4288) 
4-DIMETHYLAMINO-2-(4-FLUOROPHENYL)PYRIMIDINE

>  <SYNONYMS>  (4288) 


>  <SPECTRUM TYPE>  (4288) 
MS1

>  <INSTRUMENT TYPE>  (4288) 
EI-B

>  <INSTRUMENT>  (4288) 
MS-902

>  <ION MODE>  (4288) 
P

>  <INCHIKEY>  (4288) 
ZOWCHJPRKFSBHL-UHFFFAOYSA-N

>  <FORMULA>  (4288) 
C12H12FN3

>  <EXACT MASS>  (4288) 
217.10152560400002

>  <MW>  (4288) 
217

>  <ID>  (4288) 
JP004477

>  <CONTRIBUTOR>  (4288) 
University of Tokyo Team, {Faculty of Engineering, University of Tokyo

>  <COMMENT>  (4288) 
SMILES=CN(C)c(c2)nc(nc2)c(c1)ccc(F)c1
InChI=InChI=1S/C12H12FN3/c1-16(2)11-7-8-14-12(15-11)9-3-5-10(13)6-4-9/h3-8H,1-2H3
computed SMILES=FC=1C=CC(=CC1)C2=NC=CC(=N2)N(C)C
accession=JP004477
date=2016.01.19 (Created 2008.10.21, modified 2011.05.06)
author=SASAKI S, TOYOHASHI UNIV. OF TECH.
license=CC BY-NC-SA
exact mass=217.10153
ionization energy=70 eV
ion type=[M]+*
computed spectral entropy=2.5785978618213443
computed normalized entropy=0.6660976411598426
SPLASH=splash10-0gi9-3970000000-72b5814cbb2b843401a8
submitter=submitter = University of Tokyo Team (Faculty of Engineering, University of Tokyo)
MoNA Rating=3.75

>  <NUM PEAKS>  (4288) 
48

>  <MASS SPECTRAL PEAKS>  (4288) 
52 9.1
53 14.1
54 6.2
55 0.06
57 0.9
66 0.9
67 5.9
68 0.35
69 1.8
70 0.9
73 0.7
75 0.36
80 2.2
81 7.3
83 0.7
87 0.3
87.5 0.7
94 3.7
95 11.8
96 0.1
98.5 0.7
100.5 1.4
101 0.6
102 0.14
108 4.9
108.5 9.6
109 0.6
121 0.74
122 35.7
123 4.2
133 1.6
134 0.05
148 1
161 0.9
173 36.2
174 2.05
175 3.6
187 1.3
188 92.7
189 1
190 1.3
202 47.6
203 6.7
204 0.05
216 2.6
217 99.99
218 13.8
219 0.7

>  <PREDICTED SPECTRUM>  (4288) 
33 6
39 73
40 59
41 107
42 242
43 155
44 308
50 74
51 65
52 89
53 70
54 24
55 87
56 55
57 254
62 33
63 9
67 71
68 145
69 190
70 113
71 130
74 5
75 164
76 17
80 24
81 130
83 117
93 49
94 266
95 450
96 149
100 21
101 31
102 115
105 1
107 48
108 21
109 109
121 504
122 540
129 13
145 32
146 119
147 288
148 112
159 13
161 26
169 7
172 13
173 255
174 170
175 227
176 24
187 0
188 371
189 126
190 9
202 779
203 226
216 252
217 999
218 343
219 37

$$$$

     RDKit          2D

 16 17  0  0  0  0  0  0  0  0999 V2000
    6.4962   -0.7509    0.0000 C   0  0  0  0  0  0  0  0  0  0  0  0
    5.1975   -3.0011    0.0000 C   0  0  0  0  0  0  0  0  0  0  0  0
    0.0003   -3.0005    0.0000 C   0  0  0  0  0  0  0  0  0  0  0  0
   -1.2993   -0.7503    0.0000 C   0  0  0  0  0  0  0  0  0  0  0  0
   -1.2998   -3.7503    0.0000 C   0  0  0  0  0  0  0  0  0  0  0  0
   -2.5995   -1.5001    0.0000 C   0  0  0  0  0  0  0  0  0  0  0  0
    1.2991    0.7503    0.0000 C   0  0  0  0  0  0  0  0  0  0  0  0
    2.5981    1.5003    0.0000 C   0  0  0  0  0  0  0  0  0  0  0  0
    0.0005   -1.5005    0.0000 C   0  0  0  0  0  0  0  0  0  0  0  0
   -2.5997   -3.0001    0.0000 C   0  0  0  0  0  0  0  0  0  0  0  0
    1.2996   -0.7505    0.0000 C   0  0  0  0  0  0  0  0  0  0  0  0
    3.8981   -0.7514    0.0000 C   0  0  0  0  0  0  0  0  0  0  0  0
   -3.8987   -3.7501    0.0000 F   0  0  0  0  0  0  0  0  0  0  0  0
    3.8977    0.7495    0.0000 N   0  0  0  0  0  0  0  0  0  0  0  0
    2.5991   -1.5014    0.0000 N   0  0  0  0  0  0  0  0  0  0  0  0
    5.1973   -1.5011    0.0000 N   0  0  0  0  0  0  0  0  0  0  0  0
  5  3  2  0
  6  4  1  0
  8  7  2  0
  9  3  1  0
  9  4  2  0
 10  5  1  0
 10  6  2  0
 11  7  1  0
 11  9  1  0
 13 10  1  0
 14  8  1  0
 14 12  2  0
 15 11  2  0
 15 12  1  0
 16  1  1  0
 16  2  1  0
 16 12  1  0
M  END
>  <NAME>  (4289) 
2-DIMETHYLAMINO-4-(4-FLUOROPHENYL)PYRIMIDINE

>  <SYNONYMS>  (4289) 


>  <SPECTRUM TYPE>  (4289) 
MS1

>  <INSTRUMENT TYPE>  (4289) 
EI-B

>  <INSTRUMENT>  (4289) 
MS-902

>  <ION MODE>  (4289) 
P

>  <INCHIKEY>  (4289) 
HWSMMLHOCMQSRL-UHFFFAOYSA-N

>  <FORMULA>  (4289) 
C12H12FN3

>  <EXACT MASS>  (4289) 
217.101525604

>  <MW>  (4289) 
217

>  <ID>  (4289) 
JP004476

>  <CONTRIBUTOR>  (4289) 
University of Tokyo Team, {Faculty of Engineering, University of Tokyo

>  <COMMENT>  (4289) 
SMILES=Fc(c2)ccc(c2)c(c1)nc(nc1)N(C)C
InChI=InChI=1S/C12H12FN3/c1-16(2)12-14-8-7-11(15-12)9-3-5-10(13)6-4-9/h3-8H,1-2H3
computed SMILES=FC=1C=CC(=CC1)C2=NC(=NC=C2)N(C)C
accession=JP004476
date=2016.01.19 (Created 2008.10.21, modified 2011.05.06)
author=SASAKI S, TOYOHASHI UNIV. OF TECH.
license=CC BY-NC-SA
exact mass=217.10153
ionization energy=70 eV
ion type=[M]+*
computed spectral entropy=3.2486155054468075
computed normalized entropy=0.6545873883778376
SPLASH=splash10-0fe0-2930000000-e4a16aad4612739734dc
submitter=submitter = University of Tokyo Team (Faculty of Engineering, University of Tokyo)
MoNA Rating=3.75

>  <NUM PEAKS>  (4289) 
143

>  <MASS SPECTRAL PEAKS>  (4289) 
30 0.7
31 0.3
32 8.2
36 0.11
37 0.3
38 0.4
39 0.8
40 0.14
41 1.9
42 8
43 2
44 3.19
45 2
50 1.3
51 1.6
52 0.15
53 4.2
54 0.7
55 2
56 0.05
57 1.6
58 0.2
59 0.2
60 0.03
61 0.3
62 0.5
63 0.6
64 0.03
65 0.5
66 0.3
67 1
68 0.05
69 3
70 1.8
71 1.4
73 0.03
74 2.2
75 4.6
76 11
77 1.16
78 0.6
79 2
80 1.1
81 0.12
82 0.7
83 0.7
84 0.5
85 0.06
86 0.3
87 1.7
88 0.5
89 0.02
91 0.5
92 0.5
93 0.8
94 0.28
95 6.6
96 1.1
97 0.3
98 0.03
99 1.8
100 1.5
101 11.4
102 0.11
103 0.5
104 0.3
105 0.3
106 0.08
107 1.1
108 2
109 5.6
110 0.01
111 0.2
113 0.2
115 0.1
116 0.02
118 0.8
119 1.2
120 8.8
121 1.59
122 5.3
123 0.5
124 0.2
125 0.02
126 3.4
127 0.6
128 0.7
129 0.03
131 0.3
132 0.5
133 3.7
134 0.08
135 0.2
136 0.6
137 0.1
138 0.02
141 0.1
145 1.2
146 6
147 1.8
148 3.6
149 0.5
153 0.6
154 0.03
155 1.5
156 0.7
157 0.1
158 0.03
159 0.02
160 0.5
161 0.3
162 0.3
163 0.02
165 0.2
169 0.2
170 1.3
171 0.07
172 0.5
173 50.4
174 34.9
175 0.74
176 0.8
184 0.1
185 0.2
186 0.02
187 2.5
188 99.99
189 11.9
190 0.08
198 0.1
199 0.3
200 0.3
201 0.06
202 71.2
203 8.6
204 0.6
211 0.19
214 0.3
215 0.2
216 8.2
217 9.7
218 12.9
219 1

>  <PREDICTED SPECTRUM>  (4289) 
27 4
28 41
29 75
30 14
33 24
37 21
38 77
39 204
40 184
41 235
42 461
43 313
44 474
45 142
46 0
49 1
50 174
51 215
52 188
53 104
54 67
55 147
56 106
57 186
58 15
62 71
63 109
64 72
65 24
66 53
67 48
68 157
69 214
70 158
71 151
72 6
73 53
74 145
75 268
76 169
77 124
78 50
79 2
80 87
81 158
82 16
83 87
84 78
85 8
87 109
90 5
91 8
92 34
93 68
94 199
95 275
96 85
97 5
98 67
99 106
100 54
101 178
102 200
104 20
105 78
106 64
107 112
108 105
109 187
118 26
119 72
120 186
121 177
122 133
123 29
124 18
125 18
126 104
127 2
129 48
131 3
132 15
133 133
134 42
144 32
145 120
146 250
147 312
148 229
149 59
154 12
155 63
158 6
159 55
161 14
162 20
169 36
171 29
172 50
173 555
174 458
175 318
176 89
186 40
187 113
188 999
189 352
190 95
202 864
203 272
204 73
216 262
217 908
218 330
219 52

$$$$

     RDKit          2D

 16 17  0  0  0  0  0  0  0  0999 V2000
   -2.9227   -5.0643    0.0000 C   0  0  0  0  0  0  0  0  0  0  0  0
   -1.6235   -5.8141    0.0000 C   0  0  0  0  0  0  0  0  0  0  0  0
    0.9747   -1.3114    0.0000 C   0  0  0  0  0  0  0  0  0  0  0  0
    2.2737   -0.5614    0.0000 C   0  0  0  0  0  0  0  0  0  0  0  0
   -1.6230   -2.8124    0.0000 C   0  0  0  0  0  0  0  0  0  0  0  0
    3.5737   -2.8131    0.0000 C   0  0  0  0  0  0  0  0  0  0  0  0
   -2.9224   -3.5635    0.0000 C   0  0  0  0  0  0  0  0  0  0  0  0
   -0.3239   -3.5622    0.0000 C   0  0  0  0  0  0  0  0  0  0  0  0
    0.9752   -2.8122    0.0000 C   0  0  0  0  0  0  0  0  0  0  0  0
   -0.3241   -5.0631    0.0000 C   0  0  0  0  0  0  0  0  0  0  0  0
    3.5732   -1.3122    0.0000 N   0  0  0  0  0  0  0  0  0  0  0  0
    2.2747   -3.5631    0.0000 N   0  0  0  0  0  0  0  0  0  0  0  0
   -4.2216   -2.8137    0.0000 N   0  0  0  0  0  0  0  0  0  0  0  0
    0.9750   -5.8129    0.0000 O   0  0  0  0  0  0  0  0  0  0  0  0
   -5.5205   -3.5639    0.0000 O   0  0  0  0  0  0  0  0  0  0  0  0
   -4.2218   -1.3137    0.0000 O   0  0  0  0  0  0  0  0  0  0  0  0
  2  1  2  0
  4  3  2  0
  7  1  1  0
  7  5  2  0
  8  5  1  0
  9  3  1  0
  9  8  1  0
 10  2  1  0
 10  8  2  0
 11  4  1  0
 11  6  2  0
 12  6  1  0
 12  9  2  0
 13  7  1  0
 14 10  1  0
 15 13  1  0
 16 13  2  0
M  CHG  2  13   1  15  -1
M  END
>  <NAME>  (4290) 
4-(2-HYDROXY-5-NITROPHENYL)PYRIMIDINE

>  <SYNONYMS>  (4290) 
4-NITRO-2-(4-PYRIMIDINYL)PHENOL

>  <SPECTRUM TYPE>  (4290) 
MS1

>  <INSTRUMENT TYPE>  (4290) 
EI-B

>  <INSTRUMENT>  (4290) 
MS-902

>  <ION MODE>  (4290) 
P

>  <INCHIKEY>  (4290) 
BCOZEBFOJIVOOU-UHFFFAOYSA-N

>  <FORMULA>  (4290) 
C10H7N3O3

>  <EXACT MASS>  (4290) 
217.04874108399997

>  <MW>  (4290) 
217

>  <ID>  (4290) 
JP004475

>  <CONTRIBUTOR>  (4290) 
University of Tokyo Team, {Faculty of Engineering, University of Tokyo

>  <COMMENT>  (4290) 
SMILES=[O-1][N+1](=O)c(c2)cc(c(O)c2)c(c1)ncnc1
InChI=InChI=1S/C10H7N3O3/c14-10-2-1-7(13(15)16)5-8(10)9-3-4-11-6-12-9/h1-6,14H
computed SMILES=O=N(=O)C=1C=CC(O)=C(C1)C=2N=CN=CC2
accession=JP004475
date=2016.01.19 (Created 2008.10.21, modified 2011.05.06)
author=SASAKI S, TOYOHASHI UNIV. OF TECH.
license=CC BY-NC-SA
exact mass=217.04874
ionization energy=70 eV
ion type=[M]+*
computed spectral entropy=2.3575295310281095
computed normalized entropy=0.6123218574739845
SPLASH=splash10-014i-3490000000-eebfebbd5f8d49b2a1a5
submitter=submitter = University of Tokyo Team (Faculty of Engineering, University of Tokyo)
MoNA Rating=3.75

>  <NUM PEAKS>  (4290) 
47

>  <MASS SPECTRAL PEAKS>  (4290) 
53 2.4
54 1.5
61 0.8
62 0.37
63 8.1
64 1.5
65 1.4
66 0.07
71 1.4
71.5 0.9
74 0.9
75 0.1
77 1.4
78 1.5
79 3.9
80 0.09
83 2.2
85 1.3
86 1
87 0.14
88 2
89 8.8
90 3.5
91 0.08
92 0.5
104 0.8
105 2.8
115 0.14
116 10.3
117 2.2
118 0.7
131 0.14
141 0.8
142 4.4
143 13.3
144 0.27
149 0.7
159 0.8
170 1.4
171 0.55
172 1
187 11.4
188 1.4
215 0.07
216 2.4
217 99.99
218 10.5

>  <PREDICTED SPECTRUM>  (4290) 
17 1
28 17
30 145
33 6
34 11
36 37
37 110
38 199
39 351
40 189
41 200
42 155
43 257
44 184
45 93
46 206
49 69
50 403
51 483
52 339
53 264
54 178
55 209
56 64
57 135
58 58
60 14
61 182
62 381
63 519
64 250
65 208
66 134
67 149
68 84
69 158
70 118
71 103
73 116
74 241
75 311
76 281
77 212
78 137
79 121
80 51
81 4
82 46
83 118
84 114
85 129
86 191
87 249
88 228
89 377
90 248
91 154
92 16
93 19
94 10
95 5
96 24
97 86
98 113
99 121
100 62
101 123
102 120
103 180
104 144
105 99
106 11
107 38
113 254
114 316
115 466
116 378
117 259
118 114
119 3
125 15
126 57
127 47
129 19
130 26
131 199
132 59
139 21
140 56
141 327
142 328
143 449
144 235
145 31
154 133
157 42
159 246
160 48
170 242
171 754
172 169
187 256
188 29
200 39
201 48
216 144
217 999
218 317
219 60

$$$$

     RDKit          2D

 16 17  0  0  0  0  0  0  0  0999 V2000
    6.1703    0.1880    0.0000 C   0  0  0  0  0  0  0  0  0  0  0  0
    4.8707    0.9389    0.0000 C   0  0  0  0  0  0  0  0  0  0  0  0
    6.1707   -1.3128    0.0000 C   0  0  0  0  0  0  0  0  0  0  0  0
    3.5717    0.1889    0.0000 C   0  0  0  0  0  0  0  0  0  0  0  0
    4.8717   -2.0628    0.0000 C   0  0  0  0  0  0  0  0  0  0  0  0
    2.2736   -3.5628    0.0000 C   0  0  0  0  0  0  0  0  0  0  0  0
    0.9746   -4.3128    0.0000 C   0  0  0  0  0  0  0  0  0  0  0  0
   -1.6246   -1.3114    0.0000 C   0  0  0  0  0  0  0  0  0  0  0  0
    3.5722   -1.3120    0.0000 C   0  0  0  0  0  0  0  0  0  0  0  0
    2.2731   -2.0620    0.0000 C   0  0  0  0  0  0  0  0  0  0  0  0
   -2.9235   -2.0616    0.0000 C   0  0  0  0  0  0  0  0  0  0  0  0
   -0.3254   -2.0611    0.0000 C   0  0  0  0  0  0  0  0  0  0  0  0
   -4.2227   -1.3118    0.0000 N   0  0  0  0  0  0  0  0  0  0  0  0
   -0.3249   -3.5620    0.0000 N   0  0  0  0  0  0  0  0  0  0  0  0
    0.9736   -1.3111    0.0000 N   0  0  0  0  0  0  0  0  0  0  0  0
   -2.9233   -3.5616    0.0000 O   0  0  0  0  0  0  0  0  0  0  0  0
  2  1  2  0
  3  1  1  0
  4  2  1  0
  5  3  2  0
  7  6  2  0
  9  4  2  0
  9  5  1  0
 10  6  1  0
 10  9  1  0
 11  8  1  0
 12  8  1  0
 13 11  2  0
 14  7  1  0
 14 12  2  0
 15 10  2  0
 15 12  1  0
 16 11  1  0
M  END
>  <NAME>  (4291) 
2-ACETAMIDO-4-PHENYLPYRIMIDINE

>  <SYNONYMS>  (4291) 


>  <SPECTRUM TYPE>  (4291) 
MS1

>  <INSTRUMENT TYPE>  (4291) 
EI-B

>  <INSTRUMENT>  (4291) 
MS-902

>  <ION MODE>  (4291) 
P

>  <INCHIKEY>  (4291) 
UAJUIJVWCSVKEA-UHFFFAOYSA-N

>  <FORMULA>  (4291) 
C12H11N3O

>  <EXACT MASS>  (4291) 
213.090211972

>  <MW>  (4291) 
213

>  <ID>  (4291) 
JP004474

>  <CONTRIBUTOR>  (4291) 
University of Tokyo Team, {Faculty of Engineering, University of Tokyo

>  <COMMENT>  (4291) 
SMILES=NC(=O)Cc(n2)nc(cc2)c(c1)cccc1
InChI=InChI=1S/C12H11N3O/c13-11(16)8-12-14-7-6-10(15-12)9-4-2-1-3-5-9/h1-7H,8H2,(H2,13,16)
computed SMILES=N=C(O)CC1=NC=CC(=N1)C=2C=CC=CC2
accession=JP004474
date=2016.01.19 (Created 2008.10.21, modified 2011.05.06)
author=SASAKI S, TOYOHASHI UNIV. OF TECH.
license=CC BY-NC-SA
exact mass=213.09021
ionization energy=70 eV
ion type=[M]+*
computed spectral entropy=3.2954628484129938
computed normalized entropy=0.6394869740985727
SPLASH=splash10-00di-3910000000-109463c66ebc987ab605
submitter=submitter = University of Tokyo Team (Faculty of Engineering, University of Tokyo)
MoNA Rating=3.75

>  <NUM PEAKS>  (4291) 
173

>  <MASS SPECTRAL PEAKS>  (4291) 
38 1.6
39 2.6
40 3.1
41 0.44
42 1.7
43 15.8
44 5.5
45 0.31
46 0.2
47 0.3
49 0.3
50 0.3
51 5.6
52 1.5
53 0.7
54 0.06
55 4.2
56 2
57 5.9
58 0.03
59 0.5
60 1.5
61 0.4
62 0.08
63 1.9
64 0.7
65 0.8
66 0.07
67 2.1
68 0.8
69 3.5
70 0.14
71 3.4
71.5 0.5
72 0.3
73 0.12
74 1.3
75 2.1
75.5 0.4
76 0.51
76.5 0.5
77 10.2
77.5 0.4
78 0.19
79 1.2
80 0.4
81 2.3
82 0.14
83 2.2
84 0.8
84.5 0.2
85 0.19
85.5 0.8
86 0.3
87 0.6
88 0.1
88.5 0.9
89 3
89.5 1
90 0.17
90.5 0.5
91 1.6
92 0.4
93 0.09
94 1.6
94.5 0.2
95 2
96 0.09
97 2.1
98 0.6
99 1.7
100 0.07
100.5 0.8
101 4
101.5 2.3
102 1.09
102.5 2.3
103 6.7
103.5 1
104 0.42
104.5 0.3
105 1.1
106 0.4
107 0.07
108 0.5
109 1.3
110 0.6
111 0.12
111.5 0.3
112 0.4
113 0.6
114 0.04
115 1
116 3.3
117 3
118 0.08
119 0.6
119.5 0.2
120 0.3
121 0.08
122 0.3
123 0.9
124 0.4
125 0.08
126 0.3
127 0.7
128 5.9
129 0.55
130 2.1
131 0.7
132 0.3
133 0.04
134 0.3
135 0.6
136 0.3
137 0.06
138 0.3
139 0.4
140 0.2
141 0.03
142 0.8
143 2.1
144 4.2
145 0.07
147 0.3
148 0.3
149 5
150 0.07
151 0.4
152 0.7
153 1
154 0.05
155 2.6
156 1.4
157 0.5
159 0.03
161 0.3
163 0.3
164 0.2
165 0.03
166 0.9
167 0.5
168 2.3
169 0.08
170 99.99
171 86
172 10.9
173 0.08
176 0.4
177 0.6
183 0.5
184 0.08
185 2
186 0.5
187 1.3
188 0.02
189 0.3
190 0.3
191 0.5
192 0.05
193 0.5
194 0.5
195 0.9
196 0.05
198 0.3
199 0.3
200 0.4
210 0.08
211 0.5
212 2.9
213 50
214 0.83
215 0.7

>  <PREDICTED SPECTRUM>  (4291) 
34 9
36 65
37 159
38 252
39 396
40 249
41 240
42 217
43 337
44 413
45 292
49 103
50 535
51 776
52 530
53 274
54 147
55 127
56 7
57 183
58 41
60 97
61 208
62 387
63 522
64 359
65 295
66 153
67 152
68 91
69 57
70 29
73 82
74 341
75 493
76 495
77 821
78 327
79 106
80 27
82 49
83 84
84 113
85 68
86 204
87 246
88 251
89 293
90 144
91 149
96 52
97 30
98 79
99 131
100 241
101 393
102 760
103 553
104 317
105 40
110 19
113 197
114 396
115 397
116 312
117 151
126 57
127 298
128 607
129 549
130 91
131 29
139 220
140 349
141 485
142 350
143 190
144 50
153 12
154 169
155 168
156 247
157 104
158 46
166 323
167 497
168 681
169 711
170 249
171 8
183 85
184 62
185 55
186 0
195 300
196 329
197 220
211 62
212 675
213 999
214 346
215 31

$$$$

     RDKit          2D

 16 18  0  0  0  0  0  0  0  0999 V2000
   -6.2068   -3.0006    0.0000 C   0  0  0  0  0  0  0  0  0  0  0  0
   -4.9071   -3.7512    0.0000 C   0  0  0  0  0  0  0  0  0  0  0  0
   -6.2075   -1.4998    0.0000 C   0  0  0  0  0  0  0  0  0  0  0  0
   -3.6082   -3.0010    0.0000 C   0  0  0  0  0  0  0  0  0  0  0  0
   -4.9086   -0.7496    0.0000 C   0  0  0  0  0  0  0  0  0  0  0  0
   -2.3100    0.7500    0.0000 C   0  0  0  0  0  0  0  0  0  0  0  0
   -1.0100    1.5000    0.0000 C   0  0  0  0  0  0  0  0  0  0  0  0
   -3.6089   -1.5002    0.0000 C   0  0  0  0  0  0  0  0  0  0  0  0
   -2.3100   -0.7500    0.0000 C   0  0  0  0  0  0  0  0  0  0  0  0
    0.2900   -0.7500    0.0000 C   0  0  0  0  0  0  0  0  0  0  0  0
    2.6000    0.0000    0.0000 C   0  0  0  0  0  0  0  0  0  0  0  0
   -1.0100   -1.5000    0.0000 N   0  0  0  0  0  0  0  0  0  0  0  0
    1.7200   -1.2100    0.0000 N   0  0  0  0  0  0  0  0  0  0  0  0
    0.2900    0.7500    0.0000 N   0  0  0  0  0  0  0  0  0  0  0  0
    4.1000   -0.0000    0.0000 O   0  0  0  0  0  0  0  0  0  0  0  0
    1.7200    1.2100    0.0000 O   0  0  0  0  0  0  0  0  0  0  0  0
  2  1  2  0
  3  1  1  0
  4  2  1  0
  5  3  2  0
  7  6  2  0
  8  4  2  0
  8  5  1  0
  9  6  1  0
  9  8  1  0
 12  9  2  0
 12 10  1  0
 13 10  2  0
 13 11  1  0
 14  7  1  0
 14 10  1  0
 15 11  2  0
 16 11  1  0
 16 14  1  0
M  END
>  <NAME>  (4292) 
5-PHENYL-2H-PYRIMIDO(1,2-B)(1,2,4)OXADIAZOL-2-ONE

>  <SYNONYMS>  (4292) 


>  <SPECTRUM TYPE>  (4292) 
MS1

>  <INSTRUMENT TYPE>  (4292) 
EI-B

>  <INSTRUMENT>  (4292) 
MS-902

>  <ION MODE>  (4292) 
P

>  <INCHIKEY>  (4292) 
LOVGUMOTBPBRIX-UHFFFAOYSA-N

>  <FORMULA>  (4292) 
C11H7N3O2

>  <EXACT MASS>  (4292) 
213.053826464

>  <MW>  (4292) 
213

>  <ID>  (4292) 
JP004473

>  <CONTRIBUTOR>  (4292) 
University of Tokyo Team, {Faculty of Engineering, University of Tokyo

>  <COMMENT>  (4292) 
SMILES=O=C(O1)N=C(N=2)N(C=CC2c(c3)cccc3)1
InChI=InChI=1S/C11H7N3O2/c15-11-13-10-12-9(6-7-14(10)16-11)8-4-2-1-3-5-8/h1-7H
computed SMILES=O=C1N=C2N=C(C=CN2O1)C=3C=CC=CC3
accession=JP004473
date=2016.01.19 (Created 2008.10.21, modified 2011.05.06)
author=SASAKI S, TOYOHASHI UNIV. OF TECH.
license=CC BY-NC-SA
exact mass=213.05383
ionization energy=70 eV
ion type=[M]+*
computed spectral entropy=3.381451231684107
computed normalized entropy=0.7100646213225124
SPLASH=splash10-03fu-9840000000-cabe09096819eb999741
submitter=submitter = University of Tokyo Team (Faculty of Engineering, University of Tokyo)
MoNA Rating=3.75

>  <NUM PEAKS>  (4292) 
117

>  <MASS SPECTRAL PEAKS>  (4292) 
36 1.2
37 0.8
38 1.9
39 0.64
40 1.9
41 3.7
42 1.2
43 0.08
44 32.4
45 1.6
46 0.7
47 0.03
49 0.6
50 9
51 26.2
52 0.36
53 3.3
54 0.5
55 0.5
56 0.05
56.5 0.4
57 1.7
57.5 3.4
58 0.04
58.5 0.2
61 1
62 2.9
63 0.66
64 3.3
65 3.2
66 3.4
67 0.11
68 0.4
69 0.3
69.5 0.2
70 0.07
70.5 0.5
73 0.4
74 3.7
75 0.53
76 8.1
77 58.6
78 5.3
79 0.03
81 0.3
83 1.8
85 1.2
85.5 0.07
86 0.5
87 1.2
88 2.8
89 0.6
90 3.4
91 2.6
92 1.4
93 1.72
94 1.3
95 0.3
98 0.5
99 0.06
100 1
101 4.4
102 8.7
103 1.19
104 3.4
105 3.8
106 0.3
106.5 0.06
109 0.2
113 2.8
114 20.5
115 2.28
116 6.2
117 2.6
118 2
119 0.28
120 0.4
121 0.3
126 0.3
127 0.18
128 7.7
129 10.3
130 1.5
131 0.02
139 0.4
140 32.8
141 7.1
142 4.83
143 7.4
144 1.7
145 0.5
146 0.03
149 0.2
153 0.4
154 0.3
155 0.86
156 1.5
157 0.3
158 0.6
159 0.02
168 5.8
169 8.1
170 25.7
171 2.59
172 2.8
173 0.2
183 0.7
186 0.07
187 1.9
188 0.2
196 0.2
197 0.05
198 0.3
212 1.4
213 99.99
214 1.47
215 1.3

>  <PREDICTED SPECTRUM>  (4292) 
33 8
34 18
36 51
37 131
38 210
39 341
40 259
41 189
42 213
43 232
44 308
45 164
46 57
49 59
50 336
51 520
52 291
53 168
54 109
55 79
56 67
57 103
58 138
59 11
60 10
61 115
62 224
63 295
64 249
65 187
66 209
67 147
68 160
69 122
70 77
71 45
72 75
73 126
74 202
75 268
76 261
77 698
78 192
82 51
83 55
84 70
85 109
86 144
87 183
88 233
89 242
90 174
91 175
92 58
93 145
94 97
98 11
99 42
100 160
101 236
102 262
103 205
104 223
105 206
110 105
111 12
112 70
113 114
114 365
115 227
116 236
117 132
118 122
119 71
126 12
127 105
128 315
129 309
130 124
139 73
140 500
141 341
142 342
143 259
144 63
145 57
146 1
154 43
155 330
156 201
157 86
167 23
168 212
169 282
170 439
171 204
172 103
173 55
184 55
185 43
186 2
196 36
211 2
212 57
213 999
214 371
215 136
216 23

$$$$

     RDKit          2D

 15 16  0  0  0  0  0  0  0  0999 V2000
   -2.6000   -0.7500    0.0000 C   0  0  0  0  0  0  0  0  0  0  0  0
   -2.6000    0.7500    0.0000 C   0  0  0  0  0  0  0  0  0  0  0  0
   -1.3000   -1.5000    0.0000 C   0  0  0  0  0  0  0  0  0  0  0  0
   -1.3000    1.5000    0.0000 C   0  0  0  0  0  0  0  0  0  0  0  0
    3.8989    1.5002    0.0000 C   0  0  0  0  0  0  0  0  0  0  0  0
    2.6000   -0.7500    0.0000 C   0  0  0  0  0  0  0  0  0  0  0  0
    2.6000    0.7500    0.0000 C   0  0  0  0  0  0  0  0  0  0  0  0
    0.0000   -0.7500    0.0000 C   0  0  0  0  0  0  0  0  0  0  0  0
    5.1981    0.7504    0.0000 C   0  0  0  0  0  0  0  0  0  0  0  0
    1.3000    1.5000    0.0000 C   0  0  0  0  0  0  0  0  0  0  0  0
    1.3000   -1.5000    0.0000 N   0  0  0  0  0  0  0  0  0  0  0  0
    0.0000    0.7500    0.0000 N   0  0  0  0  0  0  0  0  0  0  0  0
    5.1983   -0.7496    0.0000 O   0  0  0  0  0  0  0  0  0  0  0  0
    6.4970    1.5006    0.0000 O   0  0  0  0  0  0  0  0  0  0  0  0
    1.3000    3.0000    0.0000 O   0  0  0  0  0  0  0  0  0  0  0  0
  2  1  1  0
  3  1  1  0
  4  2  1  0
  7  5  1  0
  7  6  2  0
  8  3  1  0
  9  5  1  0
 10  7  1  0
 11  6  1  0
 11  8  2  0
 12  4  1  0
 12  8  1  0
 12 10  1  0
 13  9  2  0
 14  9  1  0
 15 10  2  0
M  END
>  <NAME>  (4293) 
4-OXO-6,7,8,9-TETRAHYDRO-4H-PYRIDO(1,2-A)PYRIMIDINE-3-ACETIC ACID

>  <SYNONYMS>  (4293) 


>  <SPECTRUM TYPE>  (4293) 
MS1

>  <INSTRUMENT TYPE>  (4293) 
EI-B

>  <INSTRUMENT>  (4293) 
MS-902

>  <ION MODE>  (4293) 
P

>  <INCHIKEY>  (4293) 
MIMCZKZOXPTTSU-UHFFFAOYSA-N

>  <FORMULA>  (4293) 
C10H12N2O3

>  <EXACT MASS>  (4293) 
208.084792244

>  <MW>  (4293) 
208

>  <ID>  (4293) 
JP004471

>  <CONTRIBUTOR>  (4293) 
University of Tokyo Team, {Faculty of Engineering, University of Tokyo

>  <COMMENT>  (4293) 
SMILES=OC(=O)CC(=C1)C(=O)N(C2)C(CCC2)=N1
InChI=InChI=1S/C10H12N2O3/c13-9(14)5-7-6-11-8-3-1-2-4-12(8)10(7)15/h6H,1-5H2,(H,13,14)
computed SMILES=O=C(O)CC1=CN=C2N(C1=O)CCCC2
accession=JP004471
date=2016.01.19 (Created 2008.10.21, modified 2011.05.06)
author=SASAKI S, TOYOHASHI UNIV. OF TECH.
license=CC BY-NC-SA
exact mass=208.08479
ionization energy=70 eV
ion type=[M]+*
computed spectral entropy=2.5366063600963353
computed normalized entropy=0.6876360129544067
SPLASH=splash10-03di-4900000000-3ba0cd315f5352b01873
submitter=submitter = University of Tokyo Team (Faculty of Engineering, University of Tokyo)
MoNA Rating=3.75

>  <NUM PEAKS>  (4293) 
40

>  <MASS SPECTRAL PEAKS>  (4293) 
38 2.3
39 29.7
41 10
42 0.31
44 2.8
45 2.8
52 3.9
53 0.94
54 14.1
55 25
56 2.8
67 0.28
79 3.4
80 4.4
81 3.1
82 3.28
83 3.8
84 6.9
94 2.8
108 0.31
109 2.8
122 2.2
124 4.7
133 0.38
134 3.1
135 8.4
136 3.1
137 0.44
149 17.2
150 1.9
161 2.7
162 0.56
163 99.99
164 90.6
165 9.1
188 0.14
190 1.4
191 0.6
208 3.4
209 0.6

>  <PREDICTED SPECTRUM>  (4293) 
28 14
29 24
30 3
33 8
34 8
36 14
37 43
38 101
39 374
40 227
41 585
42 488
43 244
44 279
45 463
46 26
47 0
49 12
50 124
51 230
52 314
53 487
54 494
55 502
56 222
57 56
59 10
60 63
62 29
63 63
64 123
65 185
66 217
67 449
68 397
69 212
76 45
77 210
78 136
79 288
80 288
81 382
82 310
83 171
84 0
91 99
92 168
93 148
94 127
95 236
96 95
97 8
104 78
105 70
106 124
107 151
108 143
109 108
118 19
119 71
120 69
121 148
122 252
123 291
124 42
133 160
134 217
135 544
136 602
137 135
138 32
149 224
150 113
161 112
162 134
163 999
164 921
165 232
166 22
190 18
191 16
208 375
209 124

$$$$

     RDKit          2D

 14 15  0  0  0  0  0  0  0  0999 V2000
   -1.2996   -3.0000    0.0000 C   0  0  0  0  0  0  0  0  0  0  0  0
   -2.5973   -2.2476    0.0000 C   0  0  0  0  0  0  0  0  0  0  0  0
   -0.0038   -2.2602    0.0000 C   0  0  0  0  0  0  0  0  0  0  0  0
   -1.2982   -0.0070    0.0000 C   0  0  0  0  0  0  0  0  0  0  0  0
   -3.8980    1.4948    0.0000 C   0  0  0  0  0  0  0  0  0  0  0  0
   -6.4980   -0.0052    0.0000 C   0  0  0  0  0  0  0  0  0  0  0  0
   -2.5991   -0.7554    0.0000 C   0  0  0  0  0  0  0  0  0  0  0  0
   -0.0005   -0.7594    0.0000 C   0  0  0  0  0  0  0  0  0  0  0  0
   -3.8980   -0.0052    0.0000 C   0  0  0  0  0  0  0  0  0  0  0  0
   -5.1980    2.2448    0.0000 C   0  0  0  0  0  0  0  0  0  0  0  0
   -5.1980    3.7448    0.0000 Cl  0  0  0  0  0  0  0  0  0  0  0  0
    1.3000   -0.0120    0.0000 F   0  0  0  0  0  0  0  0  0  0  0  0
   -5.1980   -0.7552    0.0000 N   0  0  0  0  0  0  0  0  0  0  0  0
   -6.4980    1.4948    0.0000 N   0  0  0  0  0  0  0  0  0  0  0  0
  2  1  2  0
  3  1  1  0
  7  2  1  0
  7  4  2  0
  8  3  2  0
  8  4  1  0
  9  5  2  0
  9  7  1  0
 10  5  1  0
 11 10  1  0
 12  8  1  0
 13  6  2  0
 13  9  1  0
 14  6  1  0
 14 10  2  0
M  END
>  <NAME>  (4294) 
4-CHLORO-6-(3-FLUOROPHENYL)PYRIMIDINE

>  <SYNONYMS>  (4294) 


>  <SPECTRUM TYPE>  (4294) 
MS1

>  <INSTRUMENT TYPE>  (4294) 
EI-B

>  <INSTRUMENT>  (4294) 
MS-902

>  <ION MODE>  (4294) 
P

>  <INCHIKEY>  (4294) 
HFGCFWZSUWARQE-UHFFFAOYSA-N

>  <FORMULA>  (4294) 
C10H6ClFN2

>  <EXACT MASS>  (4294) 
208.020354092

>  <MW>  (4294) 
208

>  <ID>  (4294) 
JP004469

>  <CONTRIBUTOR>  (4294) 
University of Tokyo Team, {Faculty of Engineering, University of Tokyo

>  <COMMENT>  (4294) 
SMILES=Fc(c2)cc(cc2)c(n1)cc(Cl)nc1
InChI=InChI=1S/C10H6ClFN2/c11-10-5-9(13-6-14-10)7-2-1-3-8(12)4-7/h1-6H
computed SMILES=FC1=CC=CC(=C1)C=2N=CN=C(Cl)C2
accession=JP004469
date=2016.01.19 (Created 2008.10.21, modified 2011.05.06)
author=SASAKI S, TOYOHASHI UNIV. OF TECH.
license=CC BY-NC-SA
exact mass=208.02035
ionization energy=70 eV
ion type=[M]+*
computed spectral entropy=2.234677760593554
computed normalized entropy=0.5836738229500358
SPLASH=splash10-0aba-1960000000-a4ae939d0feaedde7b67
submitter=submitter = University of Tokyo Team (Faculty of Engineering, University of Tokyo)
MoNA Rating=3.75

>  <NUM PEAKS>  (4294) 
46

>  <MASS SPECTRAL PEAKS>  (4294) 
52 1.8
57 1.5
60 2.7
61 0.09
62 1.3
63 1.2
68 1.2
73 0.18
73.5 0.5
74 2.4
75 5.4
86 0.13
86.5 0.6
87 1.1
88 0.5
90.5 0.18
94 5.1
95 7.6
96 0.9
98 0.05
99 3.3
104 3
118 1.5
120 0.29
121 5
122 1.7
124 0.5
126 1.76
127 1.8
128 0.5
144 0.6
145 0.33
146 61.1
147 5.1
148 0.6
153 0.15
173 89.9
174 8.8
181 0.6
183 0.06
189 0.5
207 1.9
208 99.99
209 1.13
210 31.1
211 3.2

>  <PREDICTED SPECTRUM>  (4294) 
31 22
33 15
35 23
36 28
37 34
38 52
39 25
40 31
43 141
44 76
47 49
49 66
50 175
51 186
52 125
53 73
57 31
59 24
60 55
61 91
62 131
63 58
64 28
67 21
68 148
69 167
70 69
71 20
72 19
73 36
74 203
75 309
76 78
77 86
78 6
81 81
82 53
85 17
86 116
87 104
88 98
89 41
91 58
92 48
93 121
94 183
95 240
96 27
100 79
101 9
102 149
103 15
104 30
105 51
106 18
107 60
108 43
109 43
111 56
112 35
113 1
118 49
119 6
120 269
121 255
122 243
123 45
125 78
126 127
127 90
145 88
146 469
147 274
148 109
153 82
154 209
155 36
156 51
173 841
174 278
180 45
181 240
182 65
183 125
207 119
208 999
209 374
210 546
211 169

$$$$

     RDKit          2D

 14 15  0  0  0  0  0  0  0  0999 V2000
   -3.8982    0.7506    0.0000 C   0  0  0  0  0  0  0  0  0  0  0  0
   -2.5989    3.0010    0.0000 C   0  0  0  0  0  0  0  0  0  0  0  0
   -5.1975    1.5019    0.0000 C   0  0  0  0  0  0  0  0  0  0  0  0
   -3.8982    3.7523    0.0000 C   0  0  0  0  0  0  0  0  0  0  0  0
   -1.3000   -0.7500    0.0000 C   0  0  0  0  0  0  0  0  0  0  0  0
    1.3000    0.7500    0.0000 C   0  0  0  0  0  0  0  0  0  0  0  0
   -2.5989    1.5002    0.0000 C   0  0  0  0  0  0  0  0  0  0  0  0
   -5.1975    3.0027    0.0000 C   0  0  0  0  0  0  0  0  0  0  0  0
   -1.3000    0.7500    0.0000 C   0  0  0  0  0  0  0  0  0  0  0  0
    0.0000   -1.5000    0.0000 C   0  0  0  0  0  0  0  0  0  0  0  0
   -0.0000   -3.0000    0.0000 Cl  0  0  0  0  0  0  0  0  0  0  0  0
   -6.4964    3.7529    0.0000 F   0  0  0  0  0  0  0  0  0  0  0  0
    0.0000    1.5000    0.0000 N   0  0  0  0  0  0  0  0  0  0  0  0
    1.3000   -0.7500    0.0000 N   0  0  0  0  0  0  0  0  0  0  0  0
  3  1  2  0
  4  2  1  0
  7  1  1  0
  7  2  2  0
  8  3  1  0
  8  4  2  0
  9  5  2  0
  9  7  1  0
 10  5  1  0
 11 10  1  0
 12  8  1  0
 13  6  2  0
 13  9  1  0
 14  6  1  0
 14 10  2  0
M  END
>  <NAME>  (4295) 
4-CHLORO-6-(4-FLUOROPHENYL)PYRIMIDINE

>  <SYNONYMS>  (4295) 


>  <SPECTRUM TYPE>  (4295) 
MS1

>  <INSTRUMENT TYPE>  (4295) 
EI-B

>  <INSTRUMENT>  (4295) 
MS-902

>  <ION MODE>  (4295) 
P

>  <INCHIKEY>  (4295) 
KYBYBOZNMFRRSF-UHFFFAOYSA-N

>  <FORMULA>  (4295) 
C10H6ClFN2

>  <EXACT MASS>  (4295) 
208.020354092

>  <MW>  (4295) 
208

>  <ID>  (4295) 
JP004468

>  <CONTRIBUTOR>  (4295) 
University of Tokyo Team, {Faculty of Engineering, University of Tokyo

>  <COMMENT>  (4295) 
SMILES=Fc(c2)ccc(c2)c(n1)cc(Cl)nc1
InChI=InChI=1S/C10H6ClFN2/c11-10-5-9(13-6-14-10)7-1-3-8(12)4-2-7/h1-6H
computed SMILES=FC=1C=CC(=CC1)C=2N=CN=C(Cl)C2
accession=JP004468
date=2016.01.19 (Created 2008.10.21, modified 2011.05.06)
author=SASAKI S, TOYOHASHI UNIV. OF TECH.
license=CC BY-NC-SA
exact mass=208.02035
ionization energy=70 eV
ion type=[M]+*
computed spectral entropy=2.345889476965059
computed normalized entropy=0.5802274870042676
SPLASH=splash10-0aba-1940000000-0d1d4616ea81add007e4
submitter=submitter = University of Tokyo Team (Faculty of Engineering, University of Tokyo)
MoNA Rating=3.75

>  <NUM PEAKS>  (4295) 
57

>  <MASS SPECTRAL PEAKS>  (4295) 
39 0.7
50 1.4
51 0.7
52 0.14
57 1.4
60 2.2
61 0.7
62 0.07
63 1
68 1
73 2.4
74 0.23
75 6.8
76 1.3
77 0.7
86 0.1
86.5 0.7
87 0.9
88 0.5
90.5 0.27
91 0.5
91.5 1
92 0.5
94 0.47
95 7.5
96 0.5
99 3.7
100 0.06
104 2.5
105 0.9
118 1.7
119 0.06
120 4.7
121 5.8
122 2.4
123 0.17
126 18
127 1.9
140 0.5
145 0.34
146 62.4
147 6.3
148 0.5
153 0.17
171 0.5
173 99.99
174 9.5
175 0.05
180 0.5
181 1.4
182 0.5
183 0.07
207 1.3
208 97
209 10.4
210 2.85
211 2.9

>  <PREDICTED SPECTRUM>  (4295) 
26 2
28 0
31 46
33 20
35 22
36 35
37 58
38 84
39 74
40 50
43 83
44 39
49 78
50 191
51 201
52 139
53 93
57 101
60 11
61 96
62 140
63 100
64 55
67 35
68 167
69 67
70 29
73 51
74 181
75 261
76 140
77 96
78 8
80 16
81 39
82 42
85 34
86 49
87 47
88 75
89 37
91 61
92 78
93 145
94 131
95 199
96 20
99 56
100 88
101 62
102 150
104 16
105 40
106 31
107 83
108 46
118 149
119 56
120 301
121 180
122 240
123 9
125 44
126 239
127 65
132 12
133 11
144 12
145 269
146 590
147 296
148 101
153 79
154 82
173 967
174 307
180 52
181 116
183 49
207 76
208 999
209 362
210 517
211 157

$$$$

     RDKit          2D

 14 15  0  0  0  0  0  0  0  0999 V2000
    0.3250   -3.9381    0.0000 C   0  0  0  0  0  0  0  0  0  0  0  0
   -0.9746   -1.6879    0.0000 C   0  0  0  0  0  0  0  0  0  0  0  0
   -0.9751   -4.6879    0.0000 C   0  0  0  0  0  0  0  0  0  0  0  0
   -2.2747   -2.4377    0.0000 C   0  0  0  0  0  0  0  0  0  0  0  0
    1.6238   -0.1872    0.0000 C   0  0  0  0  0  0  0  0  0  0  0  0
    2.9229    0.5628    0.0000 C   0  0  0  0  0  0  0  0  0  0  0  0
    0.3253   -2.4381    0.0000 C   0  0  0  0  0  0  0  0  0  0  0  0
   -2.2750   -3.9377    0.0000 C   0  0  0  0  0  0  0  0  0  0  0  0
    1.6243   -1.6881    0.0000 C   0  0  0  0  0  0  0  0  0  0  0  0
    4.2229   -1.6889    0.0000 C   0  0  0  0  0  0  0  0  0  0  0  0
    5.5220   -2.4387    0.0000 Cl  0  0  0  0  0  0  0  0  0  0  0  0
   -3.5740   -4.6877    0.0000 F   0  0  0  0  0  0  0  0  0  0  0  0
    4.2224   -0.1881    0.0000 N   0  0  0  0  0  0  0  0  0  0  0  0
    2.9238   -2.4389    0.0000 N   0  0  0  0  0  0  0  0  0  0  0  0
  3  1  2  0
  4  2  1  0
  6  5  2  0
  7  1  1  0
  7  2  2  0
  8  3  1  0
  8  4  2  0
  9  5  1  0
  9  7  1  0
 11 10  1  0
 12  8  1  0
 13  6  1  0
 13 10  2  0
 14  9  2  0
 14 10  1  0
M  END
>  <NAME>  (4296) 
2-CHLORO-4-(4-FLUOROPHENYL)PYRIMIDINE

>  <SYNONYMS>  (4296) 


>  <SPECTRUM TYPE>  (4296) 
MS1

>  <INSTRUMENT TYPE>  (4296) 
EI-B

>  <INSTRUMENT>  (4296) 
MS-902

>  <ION MODE>  (4296) 
P

>  <INCHIKEY>  (4296) 
DGTAWQNEBOGYLH-UHFFFAOYSA-N

>  <FORMULA>  (4296) 
C10H6ClFN2

>  <EXACT MASS>  (4296) 
208.020354092

>  <MW>  (4296) 
208

>  <ID>  (4296) 
JP004467

>  <CONTRIBUTOR>  (4296) 
University of Tokyo Team, {Faculty of Engineering, University of Tokyo

>  <COMMENT>  (4296) 
SMILES=Fc(c2)ccc(c2)c(c1)nc(Cl)nc1
InChI=InChI=1S/C10H6ClFN2/c11-10-13-6-5-9(14-10)7-1-3-8(12)4-2-7/h1-6H
computed SMILES=FC=1C=CC(=CC1)C2=NC(Cl)=NC=C2
accession=JP004467
date=2016.01.19 (Created 2008.10.21, modified 2011.05.06)
author=SASAKI S, TOYOHASHI UNIV. OF TECH.
license=CC BY-NC-SA
exact mass=208.02035
ionization energy=70 eV
ion type=[M]+*
computed spectral entropy=2.832124294348561
computed normalized entropy=0.6085407010940052
SPLASH=splash10-0ab9-4980000000-c748ce8778782e383786
submitter=submitter = University of Tokyo Team (Faculty of Engineering, University of Tokyo)
MoNA Rating=3.75

>  <NUM PEAKS>  (4296) 
105

>  <MASS SPECTRAL PEAKS>  (4296) 
32 29.5
35 0.6
36 2.6
37 0.02
38 0.8
39 0.8
40 2.1
44 0.08
45 0.4
46 0.2
47 0.2
49 0.03
49.5 0.2
50 3
50.5 0.2
51 0.12
52 1.7
53 1.9
56 0.3
57 0.15
59 0.2
60 1.4
61 0.5
62 0.13
63 1
63.5 0.2
64 0.3
68 0.1
69 1.1
70 1.4
71 0.4
73 0.08
74 2.7
75 4.1
76 0.9
77 0.09
78 0.2
81 0.8
82 0.2
83 0.02
85 0.2
86 0.8
87 3
88 0.04
89 1.1
92 0.4
93 1.1
94 0.45
95 7.1
96 0.7
98 0.4
99 0.19
100 1.8
101 3
102 0.4
103 0.02
104 0.9
104.5 0.2
105 0.6
106 0.04
107 0.4
113 0.2
118 0.8
119 0.13
120 16.5
121 11.2
122 2.5
123 0.03
124 0.2
126 3.5
127 0.7
128 0.02
132 0.2
133 0.2
144 0.4
145 0.29
146 7.6
147 40.3
148 4.2
149 0.03
153 0.2
155 0.2
167 0.4
169 0.02
171 0.8
172 0.4
173 42.1
174 0.35
175 0.2
179 0.3
180 0.4
181 0.04
182 0.2
183 0.3
190 0.2
198 0.02
199 1
200 0.2
207 2
208 99.99
209 9.6
210 22.1
211 1.9
212 0.02
222 0.3

>  <PREDICTED SPECTRUM>  (4296) 
26 15
28 21
31 39
33 28
35 16
36 36
37 53
38 77
39 79
40 53
43 135
44 67
49 77
50 194
51 176
52 87
53 18
57 141
58 17
59 30
60 30
61 99
62 138
63 133
64 66
68 105
69 150
70 100
71 36
73 43
74 180
75 289
76 124
77 52
81 47
82 27
83 60
84 8
85 54
86 109
87 84
88 85
89 29
91 36
92 79
93 97
94 108
95 205
96 52
98 44
99 127
100 160
101 83
102 129
104 50
105 51
106 1
107 56
108 7
112 14
117 17
118 36
119 37
120 284
121 205
122 202
126 212
127 49
132 3
133 32
134 59
145 139
146 497
147 314
148 166
154 21
171 13
172 43
173 823
174 244
181 96
182 24
183 68
184 2
207 112
208 999
209 370
210 529
211 157

$$$$

     RDKit          2D

 14 15  0  0  0  0  0  0  0  0999 V2000
   -2.9242   -2.0627    0.0000 C   0  0  0  0  0  0  0  0  0  0  0  0
   -2.9245   -3.5627    0.0000 C   0  0  0  0  0  0  0  0  0  0  0  0
   -1.6241   -1.3129    0.0000 C   0  0  0  0  0  0  0  0  0  0  0  0
   -1.6246   -4.3129    0.0000 C   0  0  0  0  0  0  0  0  0  0  0  0
    0.9743    0.1878    0.0000 C   0  0  0  0  0  0  0  0  0  0  0  0
    2.2733    0.9378    0.0000 C   0  0  0  0  0  0  0  0  0  0  0  0
   -0.3242   -2.0631    0.0000 C   0  0  0  0  0  0  0  0  0  0  0  0
    0.9748   -1.3131    0.0000 C   0  0  0  0  0  0  0  0  0  0  0  0
   -0.3245   -3.5631    0.0000 C   0  0  0  0  0  0  0  0  0  0  0  0
    3.5733   -1.3139    0.0000 C   0  0  0  0  0  0  0  0  0  0  0  0
    4.8725   -2.0637    0.0000 Cl  0  0  0  0  0  0  0  0  0  0  0  0
    3.5729    0.1869    0.0000 N   0  0  0  0  0  0  0  0  0  0  0  0
    2.2743   -2.0639    0.0000 N   0  0  0  0  0  0  0  0  0  0  0  0
    0.9743   -4.3135    0.0000 O   0  0  0  0  0  0  0  0  0  0  0  0
  2  1  2  0
  3  1  1  0
  4  2  1  0
  6  5  2  0
  7  3  2  0
  8  5  1  0
  8  7  1  0
  9  4  2  0
  9  7  1  0
 11 10  1  0
 12  6  1  0
 12 10  2  0
 13  8  2  0
 13 10  1  0
 14  9  1  0
M  END
>  <NAME>  (4297) 
2-CHLORO-4-(2-HYDROXYPHENYL)PYRIMIDINE

>  <SYNONYMS>  (4297) 


>  <SPECTRUM TYPE>  (4297) 
MS1

>  <INSTRUMENT TYPE>  (4297) 
EI-B

>  <INSTRUMENT>  (4297) 
MS-902

>  <ION MODE>  (4297) 
P

>  <INCHIKEY>  (4297) 
SERWHLJYMARUJU-UHFFFAOYSA-N

>  <FORMULA>  (4297) 
C10H7ClN2O

>  <EXACT MASS>  (4297) 
206.024690524

>  <MW>  (4297) 
206

>  <ID>  (4297) 
JP004464

>  <CONTRIBUTOR>  (4297) 
University of Tokyo Team, {Faculty of Engineering, University of Tokyo

>  <COMMENT>  (4297) 
SMILES=Oc(c2)c(ccc2)c(c1)nc(Cl)nc1
InChI=InChI=1S/C10H7ClN2O/c11-10-12-6-5-8(13-10)7-3-1-2-4-9(7)14/h1-6,14H
computed SMILES=ClC1=NC=CC(=N1)C=2C=CC=CC2O
accession=JP004464
date=2016.01.19 (Created 2008.10.21, modified 2011.05.06)
author=SASAKI S, TOYOHASHI UNIV. OF TECH.
license=CC BY-NC-SA
exact mass=206.02469
ionization energy=70 eV
ion type=[M]+*
computed spectral entropy=2.7330447258359665
computed normalized entropy=0.6411564566591255
SPLASH=splash10-0a4i-2290000000-cfaa7a509c5915252f25
submitter=submitter = University of Tokyo Team (Faculty of Engineering, University of Tokyo)
MoNA Rating=3.75

>  <NUM PEAKS>  (4297) 
71

>  <MASS SPECTRAL PEAKS>  (4297) 
38 2
39 3.7
40 0.6
42 0.08
43 1.3
45 0.6
52 3.2
57.5 0.45
58 0.8
58.5 1.8
61 0.8
62 0.26
63 5.6
64 2.9
65 2
71 0.66
71.5 2.2
72 0.8
74 0.9
75 0.13
76 0.7
78 0.8
83 0.9
85 0.22
86 0.9
87 0.6
88 1.8
88.5 0.09
89 5.6
90 2.8
91 1.6
92 0.08
93 0.6
95 0.6
96 0.6
99 0.06
102 1.3
103 5
103.5 1.2
104 0.2
109 0.6
111 0.8
115 6.5
116 0.62
117 1.7
120 0.8
125 0.5
141 0.08
142 5.6
143 2.8
144 2.4
145 0.05
149 2
152 4.8
153 0.6
154 0.13
159 0.8
163 0.6
170 0.9
171 2.88
172 1.5
177 0.8
178 3.3
179 0.08
180 1.3
204 0.6
205 40.8
206 99.99
207 23.7
208 30.1
209 2.8

>  <PREDICTED SPECTRUM>  (4297) 
35 10
36 35
37 53
38 97
39 217
40 75
41 38
43 56
44 20
49 52
50 117
51 202
52 148
53 124
54 46
55 32
57 25
61 84
62 174
63 280
64 200
65 189
66 28
67 8
69 33
71 43
73 21
74 80
75 122
76 102
77 126
78 84
79 50
80 26
84 54
85 29
86 100
87 137
88 121
89 219
90 197
91 147
92 153
93 19
99 18
100 28
101 18
102 142
103 66
104 20
112 14
113 30
114 120
115 211
116 275
117 170
118 95
119 14
120 1
138 1
139 36
140 6
141 61
142 135
143 242
144 148
152 30
154 17
170 70
171 501
172 181
173 32
177 136
178 371
179 173
180 216
181 43
205 258
206 999
207 338
208 550
209 166
210 5

$$$$

     RDKit          2D

 14 15  0  0  0  0  0  0  0  0999 V2000
   -5.8461   -1.1247    0.0000 C   0  0  0  0  0  0  0  0  0  0  0  0
   -4.5467   -1.8758    0.0000 C   0  0  0  0  0  0  0  0  0  0  0  0
   -5.8463    0.3761    0.0000 C   0  0  0  0  0  0  0  0  0  0  0  0
   -3.2475   -1.1260    0.0000 C   0  0  0  0  0  0  0  0  0  0  0  0
   -4.5471    1.1259    0.0000 C   0  0  0  0  0  0  0  0  0  0  0  0
   -0.6495    0.3746    0.0000 C   0  0  0  0  0  0  0  0  0  0  0  0
   -0.6486    3.3763    0.0000 C   0  0  0  0  0  0  0  0  0  0  0  0
   -3.2477    0.3748    0.0000 C   0  0  0  0  0  0  0  0  0  0  0  0
   -1.9486    1.1246    0.0000 C   0  0  0  0  0  0  0  0  0  0  0  0
    0.6500    1.1255    0.0000 C   0  0  0  0  0  0  0  0  0  0  0  0
    1.9490    0.3755    0.0000 Cl  0  0  0  0  0  0  0  0  0  0  0  0
    0.6505    2.6263    0.0000 N   0  0  0  0  0  0  0  0  0  0  0  0
   -1.9481    2.6255    0.0000 N   0  0  0  0  0  0  0  0  0  0  0  0
   -3.2471    3.3755    0.0000 O   0  0  0  0  0  0  0  0  0  0  0  0
  2  1  2  0
  3  1  1  0
  4  2  1  0
  5  3  2  0
  8  4  2  0
  8  5  1  0
  9  6  2  0
  9  8  1  0
 10  6  1  0
 11 10  1  0
 12  7  1  0
 12 10  2  0
 13  7  2  0
 13  9  1  0
 14 13  1  0
M  CHG  2  13   1  14  -1
M  END
>  <NAME>  (4298) 
4-CHLORO-6-PHENYLPYRIMIDINE-1-OXIDE

>  <SYNONYMS>  (4298) 


>  <SPECTRUM TYPE>  (4298) 
MS1

>  <INSTRUMENT TYPE>  (4298) 
EI-B

>  <INSTRUMENT>  (4298) 
MS-902

>  <ION MODE>  (4298) 
P

>  <INCHIKEY>  (4298) 
GOCVTCXBBBFQTJ-UHFFFAOYSA-N

>  <FORMULA>  (4298) 
C10H7ClN2O

>  <EXACT MASS>  (4298) 
206.024690524

>  <MW>  (4298) 
206

>  <ID>  (4298) 
JP004463

>  <CONTRIBUTOR>  (4298) 
University of Tokyo Team, {Faculty of Engineering, University of Tokyo

>  <COMMENT>  (4298) 
SMILES=Clc(n2)cc([n+1]([O-1])c2)c(c1)cccc1
InChI=InChI=1S/C10H7ClN2O/c11-10-6-9(13(14)7-12-10)8-4-2-1-3-5-8/h1-7H
computed SMILES=O=N1=CN=C(Cl)C=C1C=2C=CC=CC2
accession=JP004463
date=2016.01.19 (Created 2008.10.21, modified 2011.05.06)
author=SASAKI S, TOYOHASHI UNIV. OF TECH.
license=CC BY-NC-SA
exact mass=206.02469
ionization energy=70 eV
ion type=[M]+*
computed spectral entropy=3.8533588985171177
computed normalized entropy=0.7537887526440936
SPLASH=splash10-0a4i-3920000000-87aa87c6a8ff9be56bb0
submitter=submitter = University of Tokyo Team (Faculty of Engineering, University of Tokyo)
MoNA Rating=3.75

>  <NUM PEAKS>  (4298) 
166

>  <MASS SPECTRAL PEAKS>  (4298) 
35 1.2
36 9.1
37 1.3
38 0.3
39 9.2
40 0.9
41 1.5
42 0.03
43 1.2
44 2.1
45 0.6
47 0.25
48 1.1
49 1.4
50 26.1
50.5 0.05
51 24.4
51.5 0.4
52 5.8
53 0.06
55 1.4
55.5 0.4
56 1.5
56.5 0.39
57 6.9
57.5 1.2
58 0.4
58.5 0.03
59 0.3
60 3.2
61 2.8
61.5 0.03
62 7.7
63 15.8
63.5 0.6
64 0.49
65 3.5
66 0.6
67 0.8
68 0.09
69 2.6
70 0.4
70.5 0.6
71 0.09
71.5 0.6
72 0.4
72.5 0.5
73 0.18
74 9.2
74.5 16
75 12.3
76 1.52
76.5 0.5
77 47.1
77.5 0.7
78 0.56
79 0.6
81 1.1
81.5 1
82 0.05
82.5 0.3
83 15
84 0.4
85 0.96
86 3.2
87 5.6
88 8.3
89 1.42
89.5 0.3
90 4.6
91 2.4
92 0.11
93 0.5
94 0.4
94.5 0.6
95 0.22
95.5 0.4
96 0.7
97 1.6
98 0.11
99 3.8
100 4.6
101 14
102 1.08
103 12.3
104 6
105 37.7
106 0.26
107 0.3
108 0.2
109 0.8
110 0.06
111 0.7
112 0.6
113 13.1
114 2.1
115 6.7
116 24.6
117 5
118 0.08
119 0.7
120 0.6
121 2.3
122 0.03
123 2.9
124 2.2
125 1.8
126 0.36
127 9.2
128 59.4
129 7.6
130 0.05
131 0.9
135 0.3
136 0.7
137 0.03
138 0.7
139 1.6
140 2.8
141 0.34
142 12
143 11.5
144 43.8
145 0.46
146 0.4
147 0.2
148 1
149 1.6
150 5
151 5.2
152 41.3
153 0.41
154 13.2
155 93.8
156 12.3
157 0.07
161 0.2
162 1.5
163 3
164 0.07
165 4.6
166 0.4
167 1.3
169 0.3
170 1.1
171 2.9
172 0.7
176 0.07
177 12.5
178 26
179 10.6
180 0.9
181 2.4
189 3.9
190 71.9
191 0.98
192 25
193 2.8
194 0.2
204 0.04
205 54.2
206 99.99
207 29
208 3.31
209 3.9
210 0.3

>  <PREDICTED SPECTRUM>  (4298) 
16 10
17 23
25 2
26 26
28 9
30 59
35 25
36 76
37 92
38 148
39 174
40 67
41 63
42 24
43 125
44 114
47 2
49 115
50 429
51 514
52 310
53 99
54 77
55 59
60 9
61 165
62 339
63 371
64 249
65 98
66 36
67 48
68 27
69 94
71 42
72 6
73 205
74 301
75 496
76 506
77 542
78 240
81 43
82 25
84 116
85 176
86 139
87 169
88 246
89 338
90 295
91 31
96 13
97 49
98 91
99 137
100 145
101 90
102 449
103 240
104 124
105 96
110 147
111 76
112 98
113 149
114 182
115 288
116 357
117 165
118 22
123 103
124 133
125 180
126 235
127 291
128 180
129 106
135 64
136 117
137 60
138 61
139 40
140 122
141 190
142 242
143 366
144 242
149 149
150 215
151 235
152 300
153 283
154 284
155 176
162 136
163 146
164 166
170 208
171 358
172 65
176 55
177 267
178 356
179 317
180 226
181 119
189 222
190 610
191 269
192 313
193 14
205 526
206 999
207 511
208 601
209 197

$$$$

     RDKit          2D

 15 16  0  0  0  0  0  0  0  0999 V2000
    2.5953    1.4995    0.0000 C   0  0  0  0  0  0  0  0  0  0  0  0
   -6.4940    0.7458    0.0000 C   0  0  0  0  0  0  0  0  0  0  0  0
   -5.1936    1.4934    0.0000 C   0  0  0  0  0  0  0  0  0  0  0  0
   -6.5013   -0.7464    0.0000 C   0  0  0  0  0  0  0  0  0  0  0  0
   -3.9027   -0.7520    0.0000 C   0  0  0  0  0  0  0  0  0  0  0  0
   -1.3022    0.7487    0.0000 C   0  0  0  0  0  0  0  0  0  0  0  0
   -1.3013    3.7503    0.0000 C   0  0  0  0  0  0  0  0  0  0  0  0
   -3.9004    0.7489    0.0000 C   0  0  0  0  0  0  0  0  0  0  0  0
   -5.2031   -1.4996    0.0000 C   0  0  0  0  0  0  0  0  0  0  0  0
   -2.6013    1.4987    0.0000 C   0  0  0  0  0  0  0  0  0  0  0  0
   -0.0027    1.4995    0.0000 C   0  0  0  0  0  0  0  0  0  0  0  0
   -5.2061   -2.9996    0.0000 F   0  0  0  0  0  0  0  0  0  0  0  0
   -2.6008    2.9995    0.0000 N   0  0  0  0  0  0  0  0  0  0  0  0
   -0.0022    3.0003    0.0000 N   0  0  0  0  0  0  0  0  0  0  0  0
    1.2963    0.7495    0.0000 O   0  0  0  0  0  0  0  0  0  0  0  0
  3  2  2  0
  4  2  1  0
  8  3  1  0
  8  5  2  0
  9  4  2  0
  9  5  1  0
 10  6  2  0
 10  8  1  0
 11  6  1  0
 12  9  1  0
 13  7  2  0
 13 10  1  0
 14  7  1  0
 14 11  2  0
 15  1  1  0
 15 11  1  0
M  END
>  <NAME>  (4299) 
4-(3-FLUOROPHENYL)-6-METHOXYPYRIMIDINE

>  <SYNONYMS>  (4299) 


>  <SPECTRUM TYPE>  (4299) 
MS1

>  <INSTRUMENT TYPE>  (4299) 
EI-B

>  <INSTRUMENT>  (4299) 
MS-902

>  <ION MODE>  (4299) 
P

>  <INCHIKEY>  (4299) 
HRLQGXQHZGPTEA-UHFFFAOYSA-N

>  <FORMULA>  (4299) 
C11H9FN2O

>  <EXACT MASS>  (4299) 
204.069891128

>  <MW>  (4299) 
204

>  <ID>  (4299) 
JP004462

>  <CONTRIBUTOR>  (4299) 
University of Tokyo Team, {Faculty of Engineering, University of Tokyo

>  <COMMENT>  (4299) 
SMILES=COc(n2)cc(nc2)c(c1)cc(F)cc1
InChI=InChI=1S/C11H9FN2O/c1-15-11-6-10(13-7-14-11)8-3-2-4-9(12)5-8/h2-7H,1H3
computed SMILES=FC1=CC=CC(=C1)C=2N=CN=C(OC)C2
accession=JP004462
date=2016.01.19 (Created 2008.10.21, modified 2011.05.06)
author=SASAKI S, TOYOHASHI UNIV. OF TECH.
license=CC BY-NC-SA
exact mass=204.06989
ionization energy=70 eV
ion type=[M]+*
computed spectral entropy=2.438041929299784
computed normalized entropy=0.5930714514370218
SPLASH=splash10-0udi-1690000000-6fccc78a4b7eb69070d1
submitter=submitter = University of Tokyo Team (Faculty of Engineering, University of Tokyo)
MoNA Rating=3.75

>  <NUM PEAKS>  (4299) 
61

>  <MASS SPECTRAL PEAKS>  (4299) 
51 2.4
52 1.3
54 0.6
56 0.16
57 1.7
60 2.2
61 0.5
62 0.07
63 1
63.5 2.5
68 1
73 0.14
73.5 2
74 2
75 3.8
78 0.06
80.5 1
81 1.4
83 0.5
87 0.1
87.5 0.6
92 0.7
94 3.3
95 0.36
96 0.5
98 0.5
99 1.7
102 0.07
104 0.6
107 1.4
108 0.7
118 0.06
120 51.8
121 8.7
122 2.1
123 0.06
126 4.1
127 0.6
128 0.6
129 0.05
133 2.1
134 2
135 0.6
146 0.24
147 12.2
148 10.2
149 1.3
155 0.06
161 0.5
162 0.6
163 0.5
173 0.89
174 13.7
175 15.5
176 2.1
177 0.07
185 0.6
203 75.2
204 99.99
205 1.14
206 0.6

>  <PREDICTED SPECTRUM>  (4299) 
15 4
26 8
27 55
28 55
29 50
31 20
33 45
38 27
39 81
40 96
41 117
42 124
43 140
44 39
49 27
50 178
51 169
52 121
53 124
54 108
55 154
56 106
57 170
58 31
61 74
62 148
63 139
64 67
66 31
67 86
68 203
69 174
70 122
71 7
73 12
74 191
75 344
76 180
77 82
78 18
80 79
81 192
82 150
83 129
84 35
85 38
86 91
87 140
88 58
89 35
92 28
93 90
94 239
95 378
96 148
97 70
98 131
99 169
100 169
101 207
102 172
103 32
105 72
106 81
107 238
108 205
109 323
110 101
118 72
119 22
120 157
121 258
122 288
123 141
124 19
125 22
126 15
128 4
130 5
132 34
133 185
134 279
135 318
136 207
137 16
144 34
145 40
146 268
147 217
148 154
149 157
150 117
155 43
160 12
161 38
162 214
163 195
164 55
173 162
174 262
175 456
176 406
177 223
185 13
189 15
203 507
204 999
205 347
206 85

$$$$

     RDKit          2D

 15 16  0  0  0  0  0  0  0  0999 V2000
   -2.6000   -0.7500    0.0000 C   0  0  0  0  0  0  0  0  0  0  0  0
   -2.6000    0.7500    0.0000 C   0  0  0  0  0  0  0  0  0  0  0  0
   -1.3000   -1.5000    0.0000 C   0  0  0  0  0  0  0  0  0  0  0  0
   -1.3000    1.5000    0.0000 C   0  0  0  0  0  0  0  0  0  0  0  0
    3.8989    1.5002    0.0000 C   0  0  0  0  0  0  0  0  0  0  0  0
    2.6000   -0.7500    0.0000 C   0  0  0  0  0  0  0  0  0  0  0  0
    2.6000    0.7500    0.0000 C   0  0  0  0  0  0  0  0  0  0  0  0
    0.0000   -0.7500    0.0000 C   0  0  0  0  0  0  0  0  0  0  0  0
    5.1981    0.7504    0.0000 C   0  0  0  0  0  0  0  0  0  0  0  0
    1.3000    1.5000    0.0000 C   0  0  0  0  0  0  0  0  0  0  0  0
    1.3000   -1.5000    0.0000 N   0  0  0  0  0  0  0  0  0  0  0  0
    0.0000    0.7500    0.0000 N   0  0  0  0  0  0  0  0  0  0  0  0
    5.1983   -0.7496    0.0000 O   0  0  0  0  0  0  0  0  0  0  0  0
    6.4970    1.5006    0.0000 O   0  0  0  0  0  0  0  0  0  0  0  0
    1.3000    3.0000    0.0000 O   0  0  0  0  0  0  0  0  0  0  0  0
  2  1  1  0
  3  1  2  0
  4  2  2  0
  7  5  1  0
  7  6  2  0
  8  3  1  0
  9  5  1  0
 10  7  1  0
 11  6  1  0
 11  8  2  0
 12  4  1  0
 12  8  1  0
 12 10  1  0
 13  9  2  0
 14  9  1  0
 15 10  2  0
M  END
>  <NAME>  (4300) 
4-OXO-4H-PYRIDO(1,2-A)PYRIMIDINE-3-ACETICACID

>  <SYNONYMS>  (4300) 
3-CARBOXYMETHYL-4H-PYRIDO(1,2-A)PYRIMIDIN-4-ONE

>  <SPECTRUM TYPE>  (4300) 
MS1

>  <INSTRUMENT TYPE>  (4300) 
EI-B

>  <INSTRUMENT>  (4300) 
MS-902

>  <ION MODE>  (4300) 
P

>  <INCHIKEY>  (4300) 
RFQRASOBVQPNQC-UHFFFAOYSA-N

>  <FORMULA>  (4300) 
C10H8N2O3

>  <EXACT MASS>  (4300) 
204.05349211599997

>  <MW>  (4300) 
204

>  <ID>  (4300) 
JP004461

>  <CONTRIBUTOR>  (4300) 
University of Tokyo Team, {Faculty of Engineering, University of Tokyo

>  <COMMENT>  (4300) 
SMILES=OC(=O)CC(=C1)C(=O)N(C=2)C(C=CC2)=N1
InChI=InChI=1S/C10H8N2O3/c13-9(14)5-7-6-11-8-3-1-2-4-12(8)10(7)15/h1-4,6H,5H2,(H,13,14)
computed SMILES=O=C(O)CC1=CN=C2C=CC=CN2C1=O
accession=JP004461
date=2016.01.19 (Created 2008.10.21, modified 2011.05.06)
author=SASAKI S, TOYOHASHI UNIV. OF TECH.
license=CC BY-NC-SA
exact mass=204.05349
ionization energy=70 eV
ion type=[M]+*
computed spectral entropy=2.456301748492259
computed normalized entropy=0.6908751846544274
SPLASH=splash10-0a6r-7900000000-3849533bb1652cc70529
submitter=submitter = University of Tokyo Team (Faculty of Engineering, University of Tokyo)
MoNA Rating=3.75

>  <NUM PEAKS>  (4300) 
35

>  <MASS SPECTRAL PEAKS>  (4300) 
38 4
39 10.6
44 2.5
45 0.28
50 3.4
51 18.7
52 9.7
53 0.31
55 21.8
64 1.8
65 2.2
65.5 0.15
66 1.2
75 0.9
76 2.2
77 0.25
78 78.1
79 21.9
80 1.6
94 0.09
104 1.4
105 15.6
106 1.2
130 0.19
131 25
132 14
133 1.4
158 0.09
159 99.99
160 62.5
161 6.2
175 0.06
186 0.6
204 3.4
205 4.1

>  <PREDICTED SPECTRUM>  (4300) 
37 55
38 127
39 265
40 125
41 204
42 70
43 97
44 165
45 377
49 40
50 249
51 514
52 415
53 275
54 151
55 244
56 50
57 43
62 62
63 110
64 146
65 143
66 93
67 76
69 60
73 35
76 151
77 193
78 862
79 430
80 146
81 11
82 3
83 108
84 53
90 5
91 2
92 38
103 83
104 189
105 334
106 152
107 17
118 0
129 146
130 126
131 594
132 463
133 154
134 48
159 999
160 827
161 253
162 16
204 289
205 101

$$$$

     RDKit          2D

 15 16  0  0  0  0  0  0  0  0999 V2000
    0.3249   -3.1881    0.0000 C   0  0  0  0  0  0  0  0  0  0  0  0
   -0.9747   -0.9379    0.0000 C   0  0  0  0  0  0  0  0  0  0  0  0
   -0.9752   -3.9379    0.0000 C   0  0  0  0  0  0  0  0  0  0  0  0
   -2.2748   -1.6877    0.0000 C   0  0  0  0  0  0  0  0  0  0  0  0
    1.6237    0.5628    0.0000 C   0  0  0  0  0  0  0  0  0  0  0  0
    2.9227    1.3128    0.0000 C   0  0  0  0  0  0  0  0  0  0  0  0
    5.5219   -1.6887    0.0000 C   0  0  0  0  0  0  0  0  0  0  0  0
    0.3252   -1.6881    0.0000 C   0  0  0  0  0  0  0  0  0  0  0  0
   -2.2751   -3.1877    0.0000 C   0  0  0  0  0  0  0  0  0  0  0  0
    1.6242   -0.9381    0.0000 C   0  0  0  0  0  0  0  0  0  0  0  0
    4.2227   -0.9389    0.0000 C   0  0  0  0  0  0  0  0  0  0  0  0
   -3.5741   -3.9377    0.0000 F   0  0  0  0  0  0  0  0  0  0  0  0
    6.8211   -2.4385    0.0000 N   0  0  0  0  0  0  0  0  0  0  0  0
    4.2223    0.5619    0.0000 N   0  0  0  0  0  0  0  0  0  0  0  0
    2.9237   -1.6889    0.0000 N   0  0  0  0  0  0  0  0  0  0  0  0
  3  1  2  0
  4  2  1  0
  6  5  2  0
  8  1  1  0
  8  2  2  0
  9  3  1  0
  9  4  2  0
 10  5  1  0
 10  8  1  0
 11  7  1  0
 12  9  1  0
 13  7  3  0
 14  6  1  0
 14 11  2  0
 15 10  2  0
 15 11  1  0
M  END
>  <NAME>  (4301) 
2-CYANO-4-(4-FLUOROPHENYL)PYRIMIDINE

>  <SYNONYMS>  (4301) 


>  <SPECTRUM TYPE>  (4301) 
MS1

>  <INSTRUMENT TYPE>  (4301) 
EI-B

>  <INSTRUMENT>  (4301) 
MS-902

>  <ION MODE>  (4301) 
P

>  <INCHIKEY>  (4301) 
AVDFWALSDCMETF-UHFFFAOYSA-N

>  <FORMULA>  (4301) 
C11H6FN3

>  <EXACT MASS>  (4301) 
199.054575412

>  <MW>  (4301) 
199

>  <ID>  (4301) 
JP004460

>  <CONTRIBUTOR>  (4301) 
University of Tokyo Team, {Faculty of Engineering, University of Tokyo

>  <COMMENT>  (4301) 
SMILES=N#Cc(n2)nc(cc2)c(c1)ccc(F)c1
InChI=InChI=1S/C11H6FN3/c12-9-3-1-8(2-4-9)10-5-6-14-11(7-13)15-10/h1-6H
computed SMILES=N#CC1=NC=CC(=N1)C=2C=CC(F)=CC2
accession=JP004460
date=2016.01.19 (Created 2008.10.21, modified 2011.05.06)
author=SASAKI S, TOYOHASHI UNIV. OF TECH.
license=CC BY-NC-SA
exact mass=199.05458
ionization energy=70 eV
ion type=[M]+*
computed spectral entropy=2.663157836502913
computed normalized entropy=0.575821295393034
SPLASH=splash10-0002-2900000000-4539123228d031c72156
submitter=submitter = University of Tokyo Team (Faculty of Engineering, University of Tokyo)
MoNA Rating=3.75

>  <NUM PEAKS>  (4301) 
102

>  <MASS SPECTRAL PEAKS>  (4301) 
27 1.4
28 5.2
29 0.3
31 0.07
32 1.2
36 0.3
37 0.4
38 0.07
39 0.8
40 0.3
41 0.3
42 0.03
43 0.3
44 0.7
45 0.3
46 0.04
49 0.6
50 2.9
51 1.3
52 0.26
53 1.4
55 0.3
56 0.4
57 0.17
60 2
61 0.6
62 0.8
63 0.12
64 0.6
68 1.2
69 1.2
70 0.22
73 0.4
74 2.7
75 2.9
76 0.09
77 1.1
78 2.6
79 0.3
80 0.03
81 1.1
82 0.3
83 0.2
86 0.03
87 0.4
88 0.3
90 0.3
91 0.03
92 0.4
93 1.3
94 6.4
95 0.29
96 0.6
97 0.3
98 0.8
99 0.17
100 2.3
101 0.8
102 0.3
103 0.02
104 0.3
105 0.3
106 0.3
107 0.03
118 0.4
119 1.2
120 16.3
121 1.75
122 1.8
126 1.5
127 0.6
128 0.03
129 0.3
134 0.7
144 0.4
145 0.29
146 4.9
147 51.9
148 3.3
149 0.04
151 0.3
152 0.3
153 0.2
156 0.02
158 0.4
159 1.5
160 0.3
170 0.03
171 2.2
172 3.7
173 1.7
174 0.03
179 0.3
180 0.7
181 0.7
188 0.03
198 7.4
199 99.99
200 12.3
201 0.06
208 0.3
213 0.2

>  <PREDICTED SPECTRUM>  (4301) 
14 3
25 1
26 44
27 26
28 49
31 40
33 56
36 3
37 117
38 168
39 212
40 169
41 134
42 64
43 99
44 136
45 59
46 29
49 86
50 333
51 325
52 227
53 105
54 25
55 21
56 18
57 205
59 18
60 36
61 178
62 190
63 198
64 112
65 30
66 33
67 54
68 206
69 286
70 251
71 87
73 106
74 274
75 471
76 321
77 163
78 44
80 2
81 72
82 20
83 33
84 40
85 86
86 138
87 147
88 32
91 5
92 44
93 157
94 191
95 270
96 126
97 69
98 79
99 141
100 232
101 72
102 46
103 25
104 75
105 33
106 41
107 58
112 49
113 17
117 61
118 154
119 66
120 179
121 297
122 221
123 68
124 42
126 153
130 39
131 10
132 80
138 35
139 49
144 143
145 273
146 213
147 162
148 53
151 50
152 138
158 36
159 15
170 9
171 295
172 453
173 222
174 33
178 51
180 45
198 381
199 999
200 346
201 69

$$$$

     RDKit          2D

 15 16  0  0  0  0  0  0  0  0999 V2000
    0.9739   -0.9381    0.0000 C   0  0  0  0  0  0  0  0  0  0  0  0
   -0.3250   -3.1887    0.0000 C   0  0  0  0  0  0  0  0  0  0  0  0
    2.2733   -1.6892    0.0000 C   0  0  0  0  0  0  0  0  0  0  0  0
    0.9744   -3.9398    0.0000 C   0  0  0  0  0  0  0  0  0  0  0  0
   -2.9238   -1.6887    0.0000 C   0  0  0  0  0  0  0  0  0  0  0  0
   -5.5220   -1.6885    0.0000 C   0  0  0  0  0  0  0  0  0  0  0  0
   -2.9228    1.3129    0.0000 C   0  0  0  0  0  0  0  0  0  0  0  0
   -0.3252   -1.6879    0.0000 C   0  0  0  0  0  0  0  0  0  0  0  0
    2.2736   -3.1900    0.0000 C   0  0  0  0  0  0  0  0  0  0  0  0
   -4.2228   -0.9387    0.0000 C   0  0  0  0  0  0  0  0  0  0  0  0
   -1.6243   -0.9379    0.0000 C   0  0  0  0  0  0  0  0  0  0  0  0
    3.5726   -3.9400    0.0000 F   0  0  0  0  0  0  0  0  0  0  0  0
   -6.8212   -2.4383    0.0000 N   0  0  0  0  0  0  0  0  0  0  0  0
   -4.2224    0.5621    0.0000 N   0  0  0  0  0  0  0  0  0  0  0  0
   -1.6238    0.5629    0.0000 N   0  0  0  0  0  0  0  0  0  0  0  0
  3  1  2  0
  4  2  1  0
  8  1  1  0
  8  2  2  0
  9  3  1  0
  9  4  2  0
 10  5  2  0
 10  6  1  0
 11  5  1  0
 11  8  1  0
 12  9  1  0
 13  6  3  0
 14  7  2  0
 14 10  1  0
 15  7  1  0
 15 11  2  0
M  END
>  <NAME>  (4302) 
4-CYANO-6-(4-FLUOROPHENYL)PYRIMIDINE

>  <SYNONYMS>  (4302) 


>  <SPECTRUM TYPE>  (4302) 
MS1

>  <INSTRUMENT TYPE>  (4302) 
EI-B

>  <INSTRUMENT>  (4302) 
MS-902

>  <ION MODE>  (4302) 
P

>  <INCHIKEY>  (4302) 
XXGFPXWXJUQRRQ-UHFFFAOYSA-N

>  <FORMULA>  (4302) 
C11H6FN3

>  <EXACT MASS>  (4302) 
199.05457541200002

>  <MW>  (4302) 
199

>  <ID>  (4302) 
JP004459

>  <CONTRIBUTOR>  (4302) 
University of Tokyo Team, {Faculty of Engineering, University of Tokyo

>  <COMMENT>  (4302) 
SMILES=N#Cc(n2)cc(nc2)c(c1)ccc(F)c1
InChI=InChI=1S/C11H6FN3/c12-9-3-1-8(2-4-9)11-5-10(6-13)14-7-15-11/h1-5,7H
computed SMILES=N#CC1=NC=NC(=C1)C=2C=CC(F)=CC2
accession=JP004459
date=2016.01.19 (Created 2008.10.21, modified 2011.05.06)
author=SASAKI S, TOYOHASHI UNIV. OF TECH.
license=CC BY-NC-SA
exact mass=199.05458
ionization energy=70 eV
ion type=[M]+*
computed spectral entropy=2.313700060800173
computed normalized entropy=0.5326435777164301
SPLASH=splash10-006t-1900000000-b10df70206c3fb7b2021
submitter=submitter = University of Tokyo Team (Faculty of Engineering, University of Tokyo)
MoNA Rating=3.75

>  <NUM PEAKS>  (4302) 
77

>  <MASS SPECTRAL PEAKS>  (4302) 
32 3.1
36 0.3
37 0.3
38 0.03
39 0.7
40 0.3
41 0.2
44 0.07
45 0.2
49 0.3
50 2.7
51 0.52
52 0.9
53 0.3
56 0.2
57 0.12
60 2.3
60.5 0.3
61 0.6
62 0.07
63 0.9
64 0.2
68 0.9
69 0.12
70 2.1
71 0.2
73 0.3
74 0.22
75 3.4
76 1
77 1.2
78 0.12
81 0.8
85 0.3
86 0.9
87 0.04
88 0.3
92 0.3
93 0.9
94 0.57
95 3.2
96 0.6
98 0.3
99 0.12
99.5 1.5
100 1.6
101 0.4
102 0.03
104 0.3
105 0.3
107 0.3
118 0.07
119 0.9
120 13.7
121 13.4
122 0.45
123 0.4
124 0.4
125 0.2
126 0.1
127 0.3
144 0.6
145 32.2
146 0.45
147 1.2
148 0.3
151 0.6
170 0.03
171 2.6
172 67.1
173 7.7
174 0.09
180 0.3
198 2.8
199 99.99
200 1.21
201 0.6

>  <PREDICTED SPECTRUM>  (4302) 
26 23
27 11
33 42
37 104
38 152
39 174
40 143
41 76
42 6
43 120
44 81
49 59
50 262
51 251
52 202
53 126
54 54
55 7
57 124
61 116
62 159
63 185
64 128
65 31
66 37
67 40
68 153
69 85
70 91
73 93
74 262
75 390
76 232
77 120
78 27
79 24
80 43
81 131
82 44
85 35
86 70
87 125
88 50
89 37
90 2
92 93
93 142
94 179
95 232
96 121
98 72
99 136
100 166
101 84
103 16
104 1
106 101
107 116
108 40
116 56
117 141
118 241
119 127
120 246
121 262
122 165
123 91
124 63
125 11
126 196
127 68
132 4
139 14
143 105
144 287
145 555
146 333
147 154
148 33
152 24
159 10
170 8
171 251
172 442
173 116
198 186
199 999
200 347
201 87

$$$$

     RDKit          2D

 13 13  0  0  0  0  0  0  0  0999 V2000
   -6.4962   -0.7508    0.0000 C   0  0  0  0  0  0  0  0  0  0  0  0
   -5.1968   -3.0006    0.0000 C   0  0  0  0  0  0  0  0  0  0  0  0
    3.8981    0.7504    0.0000 C   0  0  0  0  0  0  0  0  0  0  0  0
    0.0000   -1.5000    0.0000 C   0  0  0  0  0  0  0  0  0  0  0  0
   -1.3000    0.7500    0.0000 C   0  0  0  0  0  0  0  0  0  0  0  0
   -3.8981   -0.7504    0.0000 C   0  0  0  0  0  0  0  0  0  0  0  0
   -1.3000   -0.7500    0.0000 C   0  0  0  0  0  0  0  0  0  0  0  0
    1.3000    0.7500    0.0000 C   0  0  0  0  0  0  0  0  0  0  0  0
    1.3000   -0.7500    0.0000 N   0  0  0  0  0  0  0  0  0  0  0  0
    0.0000    1.5000    0.0000 N   0  0  0  0  0  0  0  0  0  0  0  0
   -2.5989   -1.5002    0.0000 N   0  0  0  0  0  0  0  0  0  0  0  0
   -5.1970   -1.5006    0.0000 N   0  0  0  0  0  0  0  0  0  0  0  0
    2.5989    1.5002    0.0000 S   0  0  0  0  0  0  0  0  0  0  0  0
  7  4  2  0
  7  5  1  0
  9  4  1  0
  9  8  2  0
 10  5  2  0
 10  8  1  0
  6 11  2  0
 11  7  1  0
 12  1  1  0
 12  2  1  0
 12  6  1  0
 13  3  1  0
 13  8  1  0
M  END
>  <NAME>  (4303) 
5-DIMETHYLAMINOMETHYLENEAMINO-2-METHYLTHIOPYRIMIDINE

>  <SYNONYMS>  (4303) 


>  <SPECTRUM TYPE>  (4303) 
MS1

>  <INSTRUMENT TYPE>  (4303) 
EI-B

>  <INSTRUMENT>  (4303) 
MS-902

>  <ION MODE>  (4303) 
P

>  <INCHIKEY>  (4303) 
MDKISTZNRFJSFI-IZZDOVSWSA-N

>  <FORMULA>  (4303) 
C8H12N4S

>  <EXACT MASS>  (4303) 
196.078267384

>  <MW>  (4303) 
196

>  <ID>  (4303) 
JP004458

>  <CONTRIBUTOR>  (4303) 
University of Tokyo Team, {Faculty of Engineering, University of Tokyo

>  <COMMENT>  (4303) 
SMILES=CN(C)C=Nc(c1)cnc(SC)n1
InChI=InChI=1S/C8H12N4S/c1-12(2)6-11-7-4-9-8(13-3)10-5-7/h4-6H,1-3H3/b11-6+
computed SMILES=N=1C=C(N=CN(C)C)C=NC1SC
accession=JP004458
date=2016.01.19 (Created 2008.10.21, modified 2011.05.06)
author=SASAKI S, TOYOHASHI UNIV. OF TECH.
license=CC BY-NC-SA
exact mass=196.07827
ionization energy=70 eV
ion type=[M]+*
computed spectral entropy=3.7127511351118474
computed normalized entropy=0.765195378668676
SPLASH=splash10-0005-5900000000-74203e155a59017ee51e
submitter=submitter = University of Tokyo Team (Faculty of Engineering, University of Tokyo)
MoNA Rating=3.75

>  <NUM PEAKS>  (4303) 
128

>  <MASS SPECTRAL PEAKS>  (4303) 
36 0.6
38 0.7
39 1.2
40 0.4
41 11.7
42 39.5
43 4.4
44 6.1
45 5.7
46 2.5
47 2.6
48 0.05
50 0.3
51 1.8
52 7.5
53 0.34
54 7.5
55 3.9
56 2.1
57 0.65
58 1
59 1.9
60 0.4
65 0.04
66 6
67 2.8
68 8.3
69 0.57
70 1.8
71 4.5
72 1.6
73 0.08
74 4.3
75 0.3
76 1.6
77 0.13
78 1.1
79 4.2
80 9.4
81 1.09
82 2.2
83 2.3
84 2.5
84.5 0.22
85 1
86 1.4
88 0.7
89 0.03
91 0.2
92 0.5
93 1.8
94 0.18
95 11.7
96 5.7
97 1.4
98 0.36
99 1.1
100 0.6
101 0.1
103 0.04
104 0.3
105 1.2
106 1.6
107 0.6
108 22.9
109 3.7
110 4.9
111 0.2
112 1.8
113 1.7
114 0.3
115 0.02
118 0.4
119 0.9
120 1.9
121 0.52
122 9.6
123 2.7
124 3.3
125 0.3
126 1.6
127 2
128 0.3
132 0.05
133 0.6
134 1.8
135 5.3
136 0.78
137 1
138 2
139 11.2
140 0.49
141 17.9
142 1.6
143 0.8
146 0.05
147 1.2
148 1.9
149 2.3
150 0.1
151 1.2
152 8.4
153 1.3
154 2.4
155 2.1
156 1.1
162 0.8
163 4.88
164 5.5
165 0.4
166 2.3
167 0.07
168 7.9
169 1.4
170 0.4
178 0.07
179 1.1
180 3.5
181 26.5
182 0.28
183 1.2
193 1.3
194 0.3
195 1.14
196 99.99
197 13.5
198 5.7
199 0.5

>  <PREDICTED SPECTRUM>  (4303) 
27 27
28 46
29 48
30 68
33 4
38 6
39 70
40 93
41 170
42 445
43 106
44 491
45 286
46 170
47 100
48 2
50 8
51 51
52 69
53 89
54 108
55 146
56 142
57 283
58 107
59 113
60 71
64 36
65 71
66 130
67 162
68 144
69 135
70 133
71 225
72 146
73 109
74 96
75 44
76 36
77 47
78 57
79 99
80 161
81 150
82 225
83 171
84 88
85 90
86 58
87 20
92 68
93 97
94 113
95 27
96 92
97 75
98 34
99 110
105 110
106 81
107 85
108 171
109 126
110 74
111 14
112 72
113 97
114 45
116 28
120 53
121 91
122 83
123 87
124 55
125 66
126 77
127 58
135 34
136 28
137 69
138 73
139 147
140 134
141 128
142 10
147 4
148 20
149 194
150 201
151 140
152 254
153 33
154 339
155 108
156 66
163 83
164 72
165 31
166 44
167 109
168 147
169 83
170 9
179 182
180 138
181 515
182 187
183 88
193 13
194 19
195 508
196 999
197 354
198 203
199 43

$$$$

     RDKit          2D

 15 16  0  0  0  0  0  0  0  0999 V2000
    5.1989    1.5002    0.0000 C   0  0  0  0  0  0  0  0  0  0  0  0
    3.8989    3.7502    0.0000 C   0  0  0  0  0  0  0  0  0  0  0  0
    3.8989    0.7502    0.0000 C   0  0  0  0  0  0  0  0  0  0  0  0
    2.5989    3.0002    0.0000 C   0  0  0  0  0  0  0  0  0  0  0  0
    6.4978    3.7504    0.0000 C   0  0  0  0  0  0  0  0  0  0  0  0
   -0.0000   -1.5000    0.0000 C   0  0  0  0  0  0  0  0  0  0  0  0
   -1.3000    0.7500    0.0000 C   0  0  0  0  0  0  0  0  0  0  0  0
    5.1989    3.0002    0.0000 C   0  0  0  0  0  0  0  0  0  0  0  0
    2.5989    1.5002    0.0000 C   0  0  0  0  0  0  0  0  0  0  0  0
   -1.3000   -0.7500    0.0000 C   0  0  0  0  0  0  0  0  0  0  0  0
    1.3000    0.7500    0.0000 C   0  0  0  0  0  0  0  0  0  0  0  0
    7.7968    4.5006    0.0000 N   0  0  0  0  0  0  0  0  0  0  0  0
   -2.5989   -1.5002    0.0000 N   0  0  0  0  0  0  0  0  0  0  0  0
    1.3000   -0.7500    0.0000 N   0  0  0  0  0  0  0  0  0  0  0  0
    0.0000    1.5000    0.0000 N   0  0  0  0  0  0  0  0  0  0  0  0
  3  1  2  0
  4  2  1  0
  8  1  1  0
  8  2  2  0
  8  5  1  0
  9  3  1  0
  9  4  2  0
 10  6  2  0
 10  7  1  0
 11  9  1  0
 12  5  3  0
 13 10  1  0
 14  6  1  0
 14 11  2  0
 15  7  2  0
 15 11  1  0
M  END
>  <NAME>  (4304) 
5-AMINO-2-(4-CYANOPHENYL)PYRIMIDINE

>  <SYNONYMS>  (4304) 


>  <SPECTRUM TYPE>  (4304) 
MS1

>  <INSTRUMENT TYPE>  (4304) 
EI-B

>  <INSTRUMENT>  (4304) 
MS-902

>  <ION MODE>  (4304) 
P

>  <INCHIKEY>  (4304) 
ZUHYODFJXMGYJE-UHFFFAOYSA-N

>  <FORMULA>  (4304) 
C11H8N4

>  <EXACT MASS>  (4304) 
196.074896256

>  <MW>  (4304) 
196

>  <ID>  (4304) 
JP004457

>  <CONTRIBUTOR>  (4304) 
University of Tokyo Team, {Faculty of Engineering, University of Tokyo

>  <COMMENT>  (4304) 
SMILES=N#Cc(c2)ccc(c2)c(n1)ncc(N)c1
InChI=InChI=1S/C11H8N4/c12-5-8-1-3-9(4-2-8)11-14-6-10(13)7-15-11/h1-4,6-7H,13H2
computed SMILES=N#CC=1C=CC(=CC1)C2=NC=C(N)C=N2
accession=JP004457
date=2016.01.19 (Created 2008.10.21, modified 2011.05.06)
author=SASAKI S, TOYOHASHI UNIV. OF TECH.
license=CC BY-NC-SA
exact mass=196.0749
ionization energy=70 eV
ion type=[M]+*
computed spectral entropy=1.6330997796112385
computed normalized entropy=0.4712129906643986
SPLASH=splash10-0005-6900000000-bfb4d95abd33226d20de
submitter=submitter = University of Tokyo Team (Faculty of Engineering, University of Tokyo)
MoNA Rating=3.75

>  <NUM PEAKS>  (4304) 
32

>  <MASS SPECTRAL PEAKS>  (4304) 
41 87.5
42 0.8
43 1.2
44 0.28
47 0.5
50 0.8
51 0.5
61 0.08
63 0.5
75 2.3
76 0.7
83 0.15
84.5 2.7
85 0.9
88 1.3
98 0.19
99 2.4
101 1.5
102 6.4
114 0.13
118 0.8
119 0.9
128 2.3
129 1.37
130 1.7
141 1.6
168 0.8
171 0.07
195 2.2
196 99.99
197 12.7
198 1.1

>  <PREDICTED SPECTRUM>  (4304) 
26 4
27 52
28 19
37 31
38 67
39 152
40 94
41 167
42 142
43 146
44 64
49 14
50 141
51 160
52 221
53 153
54 57
55 52
56 18
57 33
61 55
62 119
63 122
64 118
65 81
66 70
67 91
68 73
69 92
70 11
71 0
73 20
74 96
75 213
76 172
77 92
78 21
79 17
81 31
86 50
87 117
88 165
89 42
90 91
93 8
95 6
96 4
99 26
100 102
101 31
102 235
103 113
104 21
113 69
114 160
115 125
116 122
117 84
126 44
127 136
128 165
129 153
130 112
131 34
140 91
141 127
142 124
153 8
154 100
155 75
156 57
168 170
169 300
170 117
171 18
179 26
181 10
195 159
196 999
197 374
198 97

$$$$

     RDKit          2D

 15 17  0  0  0  0  0  0  0  0999 V2000
    3.0600    2.2000    0.0000 C   0  0  0  0  0  0  0  0  0  0  0  0
    1.7600    2.9500    0.0000 C   0  0  0  0  0  0  0  0  0  0  0  0
    3.0600    0.7000    0.0000 C   0  0  0  0  0  0  0  0  0  0  0  0
    0.4600    2.2000    0.0000 C   0  0  0  0  0  0  0  0  0  0  0  0
    1.7600   -1.5500    0.0000 C   0  0  0  0  0  0  0  0  0  0  0  0
    0.4600   -2.3000    0.0000 C   0  0  0  0  0  0  0  0  0  0  0  0
   -3.4300   -0.0500    0.0000 C   0  0  0  0  0  0  0  0  0  0  0  0
   -3.4300   -1.5500    0.0000 C   0  0  0  0  0  0  0  0  0  0  0  0
    1.7600   -0.0500    0.0000 C   0  0  0  0  0  0  0  0  0  0  0  0
    0.4600    0.7000    0.0000 C   0  0  0  0  0  0  0  0  0  0  0  0
   -0.8300   -1.5500    0.0000 C   0  0  0  0  0  0  0  0  0  0  0  0
   -2.1300    0.7000    0.0000 C   0  0  0  0  0  0  0  0  0  0  0  0
   -2.1300   -2.3000    0.0000 N   0  0  0  0  0  0  0  0  0  0  0  0
   -0.8300   -0.0500    0.0000 N   0  0  0  0  0  0  0  0  0  0  0  0
   -2.1300    2.2000    0.0000 O   0  0  0  0  0  0  0  0  0  0  0  0
  2  1  2  0
  3  1  1  0
  4  2  1  0
  6  5  2  0
  8  7  2  0
  9  3  2  0
  9  5  1  0
 10  4  2  0
 10  9  1  0
 11  6  1  0
 12  7  1  0
 13  8  1  0
 13 11  2  0
 14 10  1  0
 14 11  1  0
 14 12  1  0
 15 12  2  0
M  END
>  <NAME>  (4305) 
1H-PYRIMIDO(1,2-A)QUINOLIN-1-ONE

>  <SYNONYMS>  (4305) 


>  <SPECTRUM TYPE>  (4305) 
MS1

>  <INSTRUMENT TYPE>  (4305) 
EI-B

>  <INSTRUMENT>  (4305) 
MS-902

>  <ION MODE>  (4305) 
P

>  <INCHIKEY>  (4305) 
AWTLDKNXRRLNGA-UHFFFAOYSA-N

>  <FORMULA>  (4305) 
C12H8N2O

>  <EXACT MASS>  (4305) 
196.063662876

>  <MW>  (4305) 
196

>  <ID>  (4305) 
JP004456

>  <CONTRIBUTOR>  (4305) 
University of Tokyo Team, {Faculty of Engineering, University of Tokyo

>  <COMMENT>  (4305) 
SMILES=[H]C(N=3)=C([H])C(=O)N(C31)c(c2)c(ccc2)C([H])=C([H])1
InChI=InChI=1S/C12H8N2O/c15-12-7-8-13-11-6-5-9-3-1-2-4-10(9)14(11)12/h1-8H
computed SMILES=O=C1C=CN=C2C=CC=3C=CC=CC3N12
accession=JP004456
date=2016.01.19 (Created 2008.10.21, modified 2011.05.06)
author=SASAKI S, TOYOHASHI UNIV. OF TECH.
license=CC BY-NC-SA
exact mass=196.06366
ionization energy=70 eV
ion type=[M]+*
computed spectral entropy=1.8993599797822973
computed normalized entropy=0.7013754689662821
SPLASH=splash10-00mk-0900000000-cd78e5d4aa79d52fd79d
submitter=submitter = University of Tokyo Team (Faculty of Engineering, University of Tokyo)
MoNA Rating=3.75

>  <NUM PEAKS>  (4305) 
15

>  <MASS SPECTRAL PEAKS>  (4305) 
77 9.4
84 9.2
98 5.8
101 2.6
102 8.5
114 8.2
128 66
129 1.2
141 4.8
149 6.2
168 99.99
169 1.3
195 6
196 92
197 12

>  <PREDICTED SPECTRUM>  (4305) 
39 1
43 9
50 47
51 105
52 30
63 115
64 67
65 22
74 20
75 175
76 68
77 65
86 2
88 6
89 48
101 331
102 184
113 43
114 86
128 877
129 540
140 198
141 193
142 6
167 115
168 999
169 449
170 24
195 253
196 978
197 340
198 0

$$$$

     RDKit          2D

 11 11  0  0  0  0  0  0  0  0999 V2000
    1.3000    0.7500    0.0000 C   0  0  0  0  0  0  0  0  0  0  0  0
   -1.3000   -0.7500    0.0000 C   0  0  0  0  0  0  0  0  0  0  0  0
   -1.3000    0.7500    0.0000 C   0  0  0  0  0  0  0  0  0  0  0  0
    0.0000   -1.5000    0.0000 C   0  0  0  0  0  0  0  0  0  0  0  0
   -2.5989   -1.5002    0.0000 C   0  0  0  0  0  0  0  0  0  0  0  0
   -2.5989    1.5002    0.0000 Cl  0  0  0  0  0  0  0  0  0  0  0  0
   -0.0000   -3.0000    0.0000 Cl  0  0  0  0  0  0  0  0  0  0  0  0
   -3.8981   -0.7504    0.0000 N   0  0  0  0  0  0  0  0  0  0  0  0
    0.0000    1.5000    0.0000 N   0  0  0  0  0  0  0  0  0  0  0  0
    1.3000   -0.7500    0.0000 N   0  0  0  0  0  0  0  0  0  0  0  0
   -2.5987   -3.0002    0.0000 O   0  0  0  0  0  0  0  0  0  0  0  0
  3  2  2  0
  4  2  1  0
  5  2  1  0
  6  3  1  0
  7  4  1  0
  8  5  2  0
  9  1  2  0
  9  3  1  0
 10  1  1  0
 10  4  2  0
 11  5  1  0
M  END
>  <NAME>  (4306) 
5-CARBAMOYL-4,6-DICHLOROPYRIMIDINE

>  <SYNONYMS>  (4306) 


>  <SPECTRUM TYPE>  (4306) 
MS1

>  <INSTRUMENT TYPE>  (4306) 
EI-B

>  <INSTRUMENT>  (4306) 
MS-902

>  <ION MODE>  (4306) 
P

>  <INCHIKEY>  (4306) 
QYAHLZVZKDGUAW-UHFFFAOYSA-N

>  <FORMULA>  (4306) 
C5H3Cl2N3O

>  <EXACT MASS>  (4306) 
190.965317076

>  <MW>  (4306) 
191

>  <ID>  (4306) 
JP004455

>  <CONTRIBUTOR>  (4306) 
University of Tokyo Team, {Faculty of Engineering, University of Tokyo

>  <COMMENT>  (4306) 
SMILES=NC(=O)c(c(Cl)1)c(Cl)ncn1
InChI=InChI=1S/C5H3Cl2N3O/c6-3-2(5(8)11)4(7)10-1-9-3/h1H,(H2,8,11)
computed SMILES=ClC1=NC=NC(Cl)=C1C(=N)O
accession=JP004455
date=2016.01.19 (Created 2008.10.21, modified 2011.05.06)
author=SASAKI S, TOYOHASHI UNIV. OF TECH.
license=CC BY-NC-SA
exact mass=190.96532
ionization energy=70 eV
ion type=[M]+*
computed spectral entropy=3.03054158793938
computed normalized entropy=0.6410604977115771
SPLASH=splash10-004i-5900000000-38559a748b7cfcf9a419
submitter=submitter = University of Tokyo Team (Faculty of Engineering, University of Tokyo)
MoNA Rating=3.75

>  <NUM PEAKS>  (4306) 
113

>  <MASS SPECTRAL PEAKS>  (4306) 
35 2.7
36 15.1
37 0.8
38 0.51
39 1.8
40 1.1
41 0.9
42 0.04
43 2.4
44 32.1
45 0.5
48 0.03
49 1.1
50 3.2
51 9.8
52 0.22
53 0.5
55 0.4
56 0.7
57 0.04
58 0.2
59 1.2
60 1.4
61 0.1
62 1.1
63 5.3
64 0.3
65 0.16
66 1.1
67 0.2
68 0.3
69 0.02
71 0.3
73 0.6
74 0.6
75 0.09
76 3.1
77 3.9
78 1
79 0.02
83 0.5
84 18.3
85 31.3
86 1.45
87 10.2
88 2.7
89 0.5
90 0.02
91 0.2
92 0.2
93 0.6
99 0.06
100 0.3
101 0.6
102 0.9
103 0.04
104 0.6
105 0.3
106 0.3
111 0.12
112 0.4
113 5.3
114 1.5
115 0.16
116 0.4
117 0.3
119 0.3
120 0.49
121 0.6
122 3
123 0.4
124 0.05
126 0.6
127 0.7
128 0.5
129 0.05
130 0.6
131 0.3
132 0.3
138 0.12
139 0.3
140 0.6
141 0.3
142 0.02
143 0.2
147 7.7
148 4.9
149 0.5
150 3.2
151 0.9
152 0.5
156 0.04
157 0.3
158 0.6
159 0.2
160 0.02
161 0.6
170 0.8
171 0.2
173 0.17
175 99.99
176 5.7
177 60.6
178 0.36
179 9.8
180 0.6
188 0.2
191 5.11
192 3.6
193 32.8
194 2
195 0.51
196 0.4

>  <PREDICTED SPECTRUM>  (4306) 
14 20
16 14
17 28
18 37
19 0
25 31
26 51
27 19
28 57
29 2
32 19
33 2
34 25
35 172
36 223
37 245
38 303
39 266
40 184
41 261
42 222
43 246
44 199
45 228
46 70
47 320
48 205
49 311
50 314
51 320
52 138
53 261
54 96
55 89
56 62
57 81
59 46
60 197
61 220
62 393
63 410
64 398
65 211
66 172
67 133
68 143
69 146
70 37
71 119
72 250
73 414
74 181
75 284
76 334
77 133
78 107
79 9
80 47
82 24
83 123
84 291
85 346
86 295
87 217
88 148
89 17
90 74
91 64
92 138
93 5
94 19
95 12
96 100
97 154
98 172
99 208
100 242
101 205
102 201
103 128
104 35
105 6
106 30
107 128
108 83
109 253
110 227
111 258
112 242
113 103
114 29
115 16
116 7
117 47
118 9
119 192
120 235
121 175
122 107
123 83
124 149
126 99
127 234
128 168
129 115
130 109
131 49
133 82
135 143
137 120
138 52
139 106
140 128
145 30
146 155
147 200
148 137
149 153
150 4
151 21
155 25
156 321
157 58
158 148
160 17
163 49
164 65
173 150
174 604
175 376
176 353
177 224
178 99
179 48
191 999
192 217
193 796
194 212
195 262
196 36

$$$$

     RDKit          2D

 14 15  0  0  0  0  0  0  0  0999 V2000
   -1.2996   -3.0000    0.0000 C   0  0  0  0  0  0  0  0  0  0  0  0
   -2.5973   -2.2476    0.0000 C   0  0  0  0  0  0  0  0  0  0  0  0
   -0.0038   -2.2602    0.0000 C   0  0  0  0  0  0  0  0  0  0  0  0
   -1.2982   -0.0070    0.0000 C   0  0  0  0  0  0  0  0  0  0  0  0
   -3.8980    1.4948    0.0000 C   0  0  0  0  0  0  0  0  0  0  0  0
   -6.4980   -0.0052    0.0000 C   0  0  0  0  0  0  0  0  0  0  0  0
   -2.5991   -0.7554    0.0000 C   0  0  0  0  0  0  0  0  0  0  0  0
   -0.0005   -0.7594    0.0000 C   0  0  0  0  0  0  0  0  0  0  0  0
   -3.8980   -0.0052    0.0000 C   0  0  0  0  0  0  0  0  0  0  0  0
   -5.1980    2.2448    0.0000 C   0  0  0  0  0  0  0  0  0  0  0  0
    1.3000   -0.0120    0.0000 F   0  0  0  0  0  0  0  0  0  0  0  0
   -5.1980   -0.7552    0.0000 N   0  0  0  0  0  0  0  0  0  0  0  0
   -6.4980    1.4948    0.0000 N   0  0  0  0  0  0  0  0  0  0  0  0
   -5.1980    3.7448    0.0000 O   0  0  0  0  0  0  0  0  0  0  0  0
  2  1  2  0
  3  1  1  0
  7  2  1  0
  7  4  2  0
  8  3  2  0
  8  4  1  0
  9  5  2  0
  9  7  1  0
 10  5  1  0
 11  8  1  0
 12  6  2  0
 12  9  1  0
 13  6  1  0
 13 10  2  0
 14 10  1  0
M  END
>  <NAME>  (4307) 
6-(3-FLUOROPHENYL)-3,4-DIHYDROPYRIMIDIN-4-ONE

>  <SYNONYMS>  (4307) 


>  <SPECTRUM TYPE>  (4307) 
MS1

>  <INSTRUMENT TYPE>  (4307) 
EI-B

>  <INSTRUMENT>  (4307) 
MS-902

>  <ION MODE>  (4307) 
P

>  <INCHIKEY>  (4307) 
YWRPJIHIQQSAFE-UHFFFAOYSA-N

>  <FORMULA>  (4307) 
C10H7FN2O

>  <EXACT MASS>  (4307) 
190.054241064

>  <MW>  (4307) 
190

>  <ID>  (4307) 
JP004454

>  <CONTRIBUTOR>  (4307) 
University of Tokyo Team, {Faculty of Engineering, University of Tokyo

>  <COMMENT>  (4307) 
SMILES=O=C(N2)C=C(N=C2)c(c1)cc(F)cc1
InChI=InChI=1S/C10H7FN2O/c11-8-3-1-2-7(4-8)9-5-10(14)13-6-12-9/h1-6H,(H,12,13,14)
computed SMILES=FC1=CC=CC(=C1)C=2N=CN=C(O)C2
accession=JP004454
date=2016.01.19 (Created 2008.10.21, modified 2011.05.06)
author=SASAKI S, TOYOHASHI UNIV. OF TECH.
license=CC BY-NC-SA
exact mass=190.05424
ionization energy=70 eV
ion type=[M]+*
computed spectral entropy=2.4155715271427503
computed normalized entropy=0.5876053624983983
SPLASH=splash10-000f-1900000000-45358e0e6514f630da60
submitter=submitter = University of Tokyo Team (Faculty of Engineering, University of Tokyo)
MoNA Rating=3.75

>  <NUM PEAKS>  (4307) 
61

>  <MASS SPECTRAL PEAKS>  (4307) 
51 1.1
52 0.7
56 0.7
57 0.23
60 1
61 0.6
62 0.8
63 0.12
64 0.5
67.5 1.4
68 5.9
69 0.06
70 0.6
73 0.6
74 1.9
75 0.44
76 1.1
79 0.6
82 0.6
83 0.06
85 0.7
87 0.6
88 0.5
89 0.05
91 0.5
92 0.5
94 3.4
94.5 0.06
95 9
96 1.9
99 1
101 0.07
106 0.6
107 5.4
108 4.7
110 0.05
111 1.5
115 1.1
120 4.9
121 0.29
122 22.3
123 2.6
125 0.5
126 0.07
133 0.5
134 5.9
135 7.4
136 0.15
141 0.5
146 0.7
147 2.1
149 0.06
160 0.6
161 2.7
162 12.2
163 0.23
171 2.2
189 62.4
190 99.99
191 1.1
192 0.8

>  <PREDICTED SPECTRUM>  (4307) 
33 64
36 7
37 77
38 113
39 135
40 119
41 132
42 88
43 73
44 112
45 51
46 21
49 69
50 250
51 225
52 160
53 132
54 54
55 67
56 71
57 243
58 45
59 21
60 36
61 160
62 192
63 217
64 138
65 17
66 25
67 3
68 169
69 151
70 180
71 19
72 3
73 99
74 256
75 407
76 244
77 136
78 16
80 74
81 175
82 117
83 124
84 92
85 42
86 92
87 95
88 48
89 82
90 81
92 70
93 132
94 268
95 316
96 98
97 35
98 5
100 14
101 113
102 32
104 48
105 63
106 74
107 290
108 271
109 152
110 29
111 34
114 60
115 64
116 67
117 12
118 106
119 45
120 170
121 340
122 325
123 73
132 12
133 43
134 301
135 306
136 307
137 135
138 46
142 60
143 22
144 24
145 77
146 49
147 4
148 5
149 60
150 35
161 212
162 462
163 383
164 56
171 0
173 30
189 441
190 999
191 356
192 100

$$$$

     RDKit          2D

 14 15  0  0  0  0  0  0  0  0999 V2000
   -3.8982    0.7506    0.0000 C   0  0  0  0  0  0  0  0  0  0  0  0
   -2.5989    3.0010    0.0000 C   0  0  0  0  0  0  0  0  0  0  0  0
   -5.1975    1.5019    0.0000 C   0  0  0  0  0  0  0  0  0  0  0  0
   -3.8982    3.7523    0.0000 C   0  0  0  0  0  0  0  0  0  0  0  0
   -1.3000   -0.7500    0.0000 C   0  0  0  0  0  0  0  0  0  0  0  0
    1.3000    0.7500    0.0000 C   0  0  0  0  0  0  0  0  0  0  0  0
   -2.5989    1.5002    0.0000 C   0  0  0  0  0  0  0  0  0  0  0  0
   -5.1975    3.0027    0.0000 C   0  0  0  0  0  0  0  0  0  0  0  0
   -1.3000    0.7500    0.0000 C   0  0  0  0  0  0  0  0  0  0  0  0
    0.0000   -1.5000    0.0000 C   0  0  0  0  0  0  0  0  0  0  0  0
   -6.4964    3.7529    0.0000 F   0  0  0  0  0  0  0  0  0  0  0  0
    0.0000    1.5000    0.0000 N   0  0  0  0  0  0  0  0  0  0  0  0
    1.3000   -0.7500    0.0000 N   0  0  0  0  0  0  0  0  0  0  0  0
   -0.0000   -3.0000    0.0000 O   0  0  0  0  0  0  0  0  0  0  0  0
  3  1  2  0
  4  2  1  0
  7  1  1  0
  7  2  2  0
  8  3  1  0
  8  4  2  0
  9  5  2  0
  9  7  1  0
 10  5  1  0
 11  8  1  0
 12  6  2  0
 12  9  1  0
 13  6  1  0
 13 10  2  0
 14 10  1  0
M  END
>  <NAME>  (4308) 
6-(4-FLUOROPHENYL)-3,4-DIHYDROPYRIMIDIN-4-ONE

>  <SYNONYMS>  (4308) 


>  <SPECTRUM TYPE>  (4308) 
MS1

>  <INSTRUMENT TYPE>  (4308) 
EI-B

>  <INSTRUMENT>  (4308) 
MS-902

>  <ION MODE>  (4308) 
P

>  <INCHIKEY>  (4308) 
UWDUMRWLLYZYBY-UHFFFAOYSA-N

>  <FORMULA>  (4308) 
C10H7FN2O

>  <EXACT MASS>  (4308) 
190.054241064

>  <MW>  (4308) 
190

>  <ID>  (4308) 
JP004453

>  <CONTRIBUTOR>  (4308) 
University of Tokyo Team, {Faculty of Engineering, University of Tokyo

>  <COMMENT>  (4308) 
SMILES=Fc(c2)ccc(c2)C(N=1)=CC(=O)NC1
InChI=InChI=1S/C10H7FN2O/c11-8-3-1-7(2-4-8)9-5-10(14)13-6-12-9/h1-6H,(H,12,13,14)
computed SMILES=FC=1C=CC(=CC1)C=2N=CN=C(O)C2
accession=JP004453
date=2016.01.19 (Created 2008.10.21, modified 2011.05.06)
author=SASAKI S, TOYOHASHI UNIV. OF TECH.
license=CC BY-NC-SA
exact mass=190.05424
ionization energy=70 eV
ion type=[M]+*
computed spectral entropy=2.353397421766303
computed normalized entropy=0.6219026130911749
SPLASH=splash10-0006-1900000000-57d528650e9eb1d401a1
submitter=submitter = University of Tokyo Team (Faculty of Engineering, University of Tokyo)
MoNA Rating=3.75

>  <NUM PEAKS>  (4308) 
44

>  <MASS SPECTRAL PEAKS>  (4308) 
50 2.4
51 2.3
56 0.6
57 0.24
60 0.8
63 1.2
67 0.7
67.5 0.12
68 3.9
70 0.6
73 0.6
74 0.19
75 3.9
76 0.8
82 0.6
83 0.22
85 1.4
94 3.6
95 8.8
96 0.19
99 0.8
101 0.6
107 5.1
108 0.58
111 0.8
120 7
121 4
122 2.55
123 4.3
134 5.1
135 8.1
136 0.12
140 0.6
146 0.6
147 2.2
149 0.09
161 2.4
162 14.3
163 2.3
171 0.08
189 48.5
190 99.99
191 11.4
192 0.8

>  <PREDICTED SPECTRUM>  (4308) 
29 16
33 51
37 70
38 118
39 161
40 156
41 185
42 127
43 148
44 155
45 17
49 35
50 222
51 221
52 180
53 140
54 56
55 76
56 56
57 217
58 20
60 11
61 71
62 156
63 180
64 140
65 38
66 34
67 3
68 190
69 115
70 159
71 8
73 73
74 245
75 353
76 205
77 136
78 33
80 79
81 131
82 95
83 93
84 75
85 26
86 68
87 95
88 67
89 50
90 20
92 91
93 152
94 295
95 284
96 130
97 64
98 15
99 11
100 104
101 166
102 76
105 48
106 77
107 274
108 273
109 76
110 31
114 73
115 59
116 41
117 9
118 89
119 26
120 212
121 243
122 352
123 71
132 15
133 28
134 275
135 233
136 167
137 32
142 111
143 52
149 18
161 265
162 547
163 282
171 18
173 10
189 364
190 999
191 346
192 92

$$$$

     RDKit          2D

 14 15  0  0  0  0  0  0  0  0999 V2000
   -0.0005    3.7431    0.0000 C   0  0  0  0  0  0  0  0  0  0  0  0
    1.2974    2.9912    0.0000 C   0  0  0  0  0  0  0  0  0  0  0  0
   -1.2962    3.0029    0.0000 C   0  0  0  0  0  0  0  0  0  0  0  0
    5.1978   -0.7525    0.0000 C   0  0  0  0  0  0  0  0  0  0  0  0
    3.8988   -1.5025    0.0000 C   0  0  0  0  0  0  0  0  0  0  0  0
   -0.0010    0.7501    0.0000 C   0  0  0  0  0  0  0  0  0  0  0  0
    1.2996    1.4990    0.0000 C   0  0  0  0  0  0  0  0  0  0  0  0
   -1.2989    1.5021    0.0000 C   0  0  0  0  0  0  0  0  0  0  0  0
    5.1974    0.7484    0.0000 C   0  0  0  0  0  0  0  0  0  0  0  0
    2.5988    0.7492    0.0000 C   0  0  0  0  0  0  0  0  0  0  0  0
   -2.5992    0.7543    0.0000 F   0  0  0  0  0  0  0  0  0  0  0  0
    2.5993   -0.7516    0.0000 N   0  0  0  0  0  0  0  0  0  0  0  0
    3.8978    1.4992    0.0000 N   0  0  0  0  0  0  0  0  0  0  0  0
    6.4964    1.4984    0.0000 O   0  0  0  0  0  0  0  0  0  0  0  0
  2  1  2  0
  3  1  1  0
  5  4  2  0
  7  2  1  0
  7  6  2  0
  8  3  2  0
  8  6  1  0
  9  4  1  0
 10  7  1  0
 11  8  1  0
 12  5  1  0
 12 10  2  0
 13  9  2  0
 13 10  1  0
 14  9  1  0
M  END
>  <NAME>  (4309) 
2-(3-FLUOROPHENYL)-3,4-DIHYDROPYRIMIDIN-4-ONE

>  <SYNONYMS>  (4309) 


>  <SPECTRUM TYPE>  (4309) 
MS1

>  <INSTRUMENT TYPE>  (4309) 
EI-B

>  <INSTRUMENT>  (4309) 
MS-902

>  <ION MODE>  (4309) 
P

>  <INCHIKEY>  (4309) 
ARWFGZSZTLFUEI-UHFFFAOYSA-N

>  <FORMULA>  (4309) 
C10H7FN2O

>  <EXACT MASS>  (4309) 
190.054241064

>  <MW>  (4309) 
190

>  <ID>  (4309) 
JP004452

>  <CONTRIBUTOR>  (4309) 
University of Tokyo Team, {Faculty of Engineering, University of Tokyo

>  <COMMENT>  (4309) 
SMILES=O=C(C=2)NC(=NC2)c(c1)cc(F)cc1
InChI=InChI=1S/C10H7FN2O/c11-8-3-1-2-7(6-8)10-12-5-4-9(14)13-10/h1-6H,(H,12,13,14)
computed SMILES=FC1=CC=CC(=C1)C2=NC=CC(O)=N2
accession=JP004452
date=2016.01.19 (Created 2008.10.21, modified 2011.05.06)
author=SASAKI S, TOYOHASHI UNIV. OF TECH.
license=CC BY-NC-SA
exact mass=190.05424
ionization energy=70 eV
ion type=[M]+*
computed spectral entropy=2.700992453150802
computed normalized entropy=0.6199616638606368
SPLASH=splash10-00dr-4900000000-24701840c4ab8ad7565d
submitter=submitter = University of Tokyo Team (Faculty of Engineering, University of Tokyo)
MoNA Rating=3.75

>  <NUM PEAKS>  (4309) 
78

>  <MASS SPECTRAL PEAKS>  (4309) 
49 5.8
50 5.6
51 3.4
52 0.2
53 0.7
55 2
55.5 0.6
56 0.15
57 1.8
59 0.5
60 4.7
61 0.21
62 1.3
63 1.7
64 0.6
65 0.07
67.5 1.5
68 3.5
68.5 0.5
69 0.12
70 1.6
71 1.3
73 1
74 0.2
75 11.2
76 1.1
81 0.3
82 0.1
83 2.2
84 1
85 1
86 0.07
87 0.5
88 0.5
91 0.7
92 0.06
93 0.2
94 8.7
95 38.4
96 0.65
97 0.4
98 0.6
99 0.5
101 0.1
102 0.5
106 0.5
107 1.4
108 0.14
110 0.1
111 1.5
113 0.5
115 0.05
120 1.1
121 16.4
122 99.99
123 0.81
124 0.7
126 0.6
130 0.6
133 0.06
134 1.4
135 2.4
136 1
137 0.21
138 60.2
139 6.6
140 0.5
146 0.14
147 0.5
161 1
162 7.3
163 0.13
173 0.9
174 0.5
189 1.4
190 7.6
191 8
192 0.5

>  <PREDICTED SPECTRUM>  (4309) 
28 12
29 10
33 45
37 34
38 77
39 159
40 145
41 233
42 191
43 179
44 115
45 8
46 13
50 162
51 141
52 125
53 101
54 46
55 28
56 190
57 296
58 20
61 145
62 122
63 135
64 90
67 16
68 267
69 237
70 219
71 47
73 93
74 158
75 342
76 135
77 51
78 7
80 43
81 224
82 85
83 20
85 19
86 39
87 31
89 79
92 41
93 155
94 431
95 479
96 167
100 69
101 74
102 38
105 4
107 231
108 180
110 62
111 32
115 79
116 45
118 62
119 47
120 250
121 610
122 841
123 327
133 23
134 165
135 135
136 319
138 162
142 27
143 53
148 35
149 160
161 69
162 646
163 260
164 54
171 11
172 28
189 60
190 999
191 318
192 45

$$$$

     RDKit          2D

 14 15  0  0  0  0  0  0  0  0999 V2000
    2.5989    3.0002    0.0000 C   0  0  0  0  0  0  0  0  0  0  0  0
    3.8989    0.7502    0.0000 C   0  0  0  0  0  0  0  0  0  0  0  0
    3.8989    3.7502    0.0000 C   0  0  0  0  0  0  0  0  0  0  0  0
    5.1989    1.5002    0.0000 C   0  0  0  0  0  0  0  0  0  0  0  0
   -1.3000   -0.7500    0.0000 C   0  0  0  0  0  0  0  0  0  0  0  0
   -1.3000    0.7500    0.0000 C   0  0  0  0  0  0  0  0  0  0  0  0
    2.5989    1.5002    0.0000 C   0  0  0  0  0  0  0  0  0  0  0  0
    5.1989    3.0002    0.0000 C   0  0  0  0  0  0  0  0  0  0  0  0
   -0.0000   -1.5000    0.0000 C   0  0  0  0  0  0  0  0  0  0  0  0
    1.3000    0.7500    0.0000 C   0  0  0  0  0  0  0  0  0  0  0  0
    6.4978    3.7504    0.0000 F   0  0  0  0  0  0  0  0  0  0  0  0
    0.0000    1.5000    0.0000 N   0  0  0  0  0  0  0  0  0  0  0  0
    1.3000   -0.7500    0.0000 N   0  0  0  0  0  0  0  0  0  0  0  0
   -0.0000   -3.0000    0.0000 O   0  0  0  0  0  0  0  0  0  0  0  0
  3  1  2  0
  4  2  1  0
  6  5  2  0
  7  1  1  0
  7  2  2  0
  8  3  1  0
  8  4  2  0
  9  5  1  0
 10  7  1  0
 11  8  1  0
 12  6  1  0
 12 10  1  0
 13  9  1  0
 13 10  2  0
 14  9  2  0
M  END
>  <NAME>  (4310) 
2-(4-FLUOROPHENYL)-3,4-DIHYDROPYRIMIDIN-4-ONE

>  <SYNONYMS>  (4310) 


>  <SPECTRUM TYPE>  (4310) 
MS1

>  <INSTRUMENT TYPE>  (4310) 
EI-B

>  <INSTRUMENT>  (4310) 
MS-902

>  <ION MODE>  (4310) 
P

>  <INCHIKEY>  (4310) 
SLVBPLUHJQMEAO-UHFFFAOYSA-N

>  <FORMULA>  (4310) 
C10H7FN2O

>  <EXACT MASS>  (4310) 
190.054241064

>  <MW>  (4310) 
190

>  <ID>  (4310) 
JP004451

>  <CONTRIBUTOR>  (4310) 
University of Tokyo Team, {Faculty of Engineering, University of Tokyo

>  <COMMENT>  (4310) 
SMILES=Fc(c2)ccc(c2)C(=N1)NC(=O)C=C1
InChI=InChI=1S/C10H7FN2O/c11-8-3-1-7(2-4-8)10-12-6-5-9(14)13-10/h1-6H,(H,12,13,14)
computed SMILES=O=C1N=C(NC=C1)C=2C=CC(F)=CC2
accession=JP004451
date=2016.01.19 (Created 2008.10.21, modified 2011.05.06)
author=SASAKI S, TOYOHASHI UNIV. OF TECH.
license=CC BY-NC-SA
exact mass=190.05424
ionization energy=70 eV
ion type=[M]+*
computed spectral entropy=2.4880215352902053
computed normalized entropy=0.6101774832279708
SPLASH=splash10-0006-3900000000-67d01762d498bb2a2174
submitter=submitter = University of Tokyo Team (Faculty of Engineering, University of Tokyo)
MoNA Rating=3.75

>  <NUM PEAKS>  (4310) 
59

>  <MASS SPECTRAL PEAKS>  (4310) 
53 0.8
57 2.2
60 1.3
61 0.11
62 0.9
64 0.7
65 0.5
67.5 0.11
68 2.7
69 0.6
70 1.7
71 0.11
73 0.8
74 1.5
75 8.4
81.5 0.07
82 1.1
83 2.6
85 1.6
86 0.07
87 0.6
91 0.7
93 0.5
94 0.76
95 26.9
96 3.1
97 0.6
99 0.07
104 0.6
106 0.6
107 1.8
108 0.13
111 0.7
120 1.1
121 8.2
122 8.81
123 7.4
124 0.7
134 1.3
135 0.52
136 0.8
137 1.1
138 18.6
139 0.19
143 0.5
146 1.8
147 0.8
149 0.39
152 0.6
161 1.1
162 8.5
163 0.15
167 0.5
173 1.4
174 0.6
189 0.14
190 99.99
191 9.5
192 0.7

>  <PREDICTED SPECTRUM>  (4310) 
15 7
28 28
29 21
31 75
33 60
37 71
38 136
39 199
40 170
41 222
42 222
43 270
44 116
45 27
46 25
50 271
51 181
52 128
53 99
54 73
55 58
56 231
57 439
58 52
59 65
60 10
61 198
62 217
63 265
64 118
65 52
66 21
67 23
68 283
69 213
70 321
71 118
72 33
73 108
74 295
75 454
76 216
77 90
80 65
81 301
82 132
83 101
84 44
85 56
86 68
87 104
88 73
89 36
92 154
93 228
94 386
95 496
96 101
99 156
100 173
101 152
102 105
103 6
104 72
105 79
106 48
107 510
108 214
109 3
110 19
111 60
115 93
117 11
118 87
119 76
120 260
121 634
122 710
123 46
130 84
131 70
132 11
134 126
135 104
136 385
142 33
145 4
148 372
149 318
150 85
161 177
162 480
163 272
164 74
189 141
190 999
191 350
192 111

$$$$

     RDKit          2D

 14 15  0  0  0  0  0  0  0  0999 V2000
    5.1981    0.7504    0.0000 C   0  0  0  0  0  0  0  0  0  0  0  0
   -1.3000    3.0000    0.0000 C   0  0  0  0  0  0  0  0  0  0  0  0
    3.8989    1.5002    0.0000 C   0  0  0  0  0  0  0  0  0  0  0  0
   -2.6000   -0.7500    0.0000 C   0  0  0  0  0  0  0  0  0  0  0  0
   -2.6000    0.7500    0.0000 C   0  0  0  0  0  0  0  0  0  0  0  0
   -1.3000   -1.5000    0.0000 C   0  0  0  0  0  0  0  0  0  0  0  0
    2.6000   -0.7500    0.0000 C   0  0  0  0  0  0  0  0  0  0  0  0
   -1.3000    1.5000    0.0000 C   0  0  0  0  0  0  0  0  0  0  0  0
    2.6000    0.7500    0.0000 C   0  0  0  0  0  0  0  0  0  0  0  0
    0.0000   -0.7500    0.0000 C   0  0  0  0  0  0  0  0  0  0  0  0
    1.3000    1.5000    0.0000 C   0  0  0  0  0  0  0  0  0  0  0  0
    1.3000   -1.5000    0.0000 N   0  0  0  0  0  0  0  0  0  0  0  0
    0.0000    0.7500    0.0000 N   0  0  0  0  0  0  0  0  0  0  0  0
    1.3000    3.0000    0.0000 O   0  0  0  0  0  0  0  0  0  0  0  0
  3  1  1  0
  5  4  1  0
  6  4  2  0
  8  2  1  0
  8  5  2  0
  9  3  1  0
  9  7  2  0
 10  6  1  0
 11  9  1  0
 12  7  1  0
 12 10  2  0
 13  8  1  0
 13 10  1  0
 13 11  1  0
 14 11  2  0
M  END
>  <NAME>  (4311) 
3-ETHYL-6-METHYL-4H-PYRIDO(1,2-A)PYRIMIDIN-4-ONE

>  <SYNONYMS>  (4311) 


>  <SPECTRUM TYPE>  (4311) 
MS1

>  <INSTRUMENT TYPE>  (4311) 
EI-B

>  <INSTRUMENT>  (4311) 
MS-902

>  <ION MODE>  (4311) 
P

>  <INCHIKEY>  (4311) 
JWAOHFWSXYKAAQ-UHFFFAOYSA-N

>  <FORMULA>  (4311) 
C11H12N2O

>  <EXACT MASS>  (4311) 
188.094963004

>  <MW>  (4311) 
188

>  <ID>  (4311) 
JP004450

>  <CONTRIBUTOR>  (4311) 
University of Tokyo Team, {Faculty of Engineering, University of Tokyo

>  <COMMENT>  (4311) 
SMILES=CCC(=C1)C(=O)N(C(C)=2)C(C=CC2)=N1
InChI=InChI=1S/C11H12N2O/c1-3-9-7-12-10-6-4-5-8(2)13(10)11(9)14/h4-7H,3H2,1-2H3
computed SMILES=O=C1C(=CN=C2C=CC=C(N21)C)CC
accession=JP004450
date=2016.01.19 (Created 2008.10.21, modified 2011.05.06)
author=SASAKI S, TOYOHASHI UNIV. OF TECH.
license=CC BY-NC-SA
exact mass=188.09496
ionization energy=70 eV
ion type=[M]+*
computed spectral entropy=2.415847284386222
computed normalized entropy=0.717444325168165
SPLASH=splash10-000i-6900000000-60135d66db3f2dafa9ef
submitter=submitter = University of Tokyo Team (Faculty of Engineering, University of Tokyo)
MoNA Rating=3.75

>  <NUM PEAKS>  (4311) 
29

>  <MASS SPECTRAL PEAKS>  (4311) 
39 14.8
41 4
51 3.4
52 0.35
53 2.5
55 3.7
63 2.5
64 0.4
65 24.6
66 6.8
72 2.2
72.5 0.22
78 2.2
91 4
92 49.2
93 1.6
119 5.2
132 2.9
143 3.7
145 8.46
146 8.6
159 8.8
160 5.2
173 7.85
174 9.5
187 3.1
188 99.99
189 1.23
190 0.6

>  <PREDICTED SPECTRUM>  (4311) 
26 34
27 110
28 25
29 16
33 5
37 33
38 155
39 488
40 193
41 281
42 250
43 150
44 29
50 181
51 358
52 305
53 172
54 182
55 111
56 38
62 8
63 211
64 253
65 592
66 307
67 207
68 94
69 4
75 52
76 100
77 225
78 315
79 153
80 128
81 34
89 15
90 136
91 197
92 690
93 319
94 28
103 0
104 156
105 197
106 81
107 43
115 17
116 4
117 110
118 330
119 124
120 106
129 2
130 52
131 198
132 392
133 228
134 123
142 11
143 105
144 152
145 499
146 168
147 75
157 33
158 7
159 979
160 753
161 264
171 122
172 13
173 464
174 140
186 29
187 509
188 999
189 379
190 56

$$$$

     RDKit          2D

 14 15  0  0  0  0  0  0  0  0999 V2000
   -2.5990    3.7500    0.0000 C   0  0  0  0  0  0  0  0  0  0  0  0
    3.8989   -1.5002    0.0000 C   0  0  0  0  0  0  0  0  0  0  0  0
   -1.3000    3.0000    0.0000 C   0  0  0  0  0  0  0  0  0  0  0  0
   -2.6000   -0.7500    0.0000 C   0  0  0  0  0  0  0  0  0  0  0  0
   -2.6000    0.7500    0.0000 C   0  0  0  0  0  0  0  0  0  0  0  0
   -1.3000   -1.5000    0.0000 C   0  0  0  0  0  0  0  0  0  0  0  0
    2.6000    0.7500    0.0000 C   0  0  0  0  0  0  0  0  0  0  0  0
    2.6000   -0.7500    0.0000 C   0  0  0  0  0  0  0  0  0  0  0  0
   -1.3000    1.5000    0.0000 C   0  0  0  0  0  0  0  0  0  0  0  0
    0.0000   -0.7500    0.0000 C   0  0  0  0  0  0  0  0  0  0  0  0
    1.3000    1.5000    0.0000 C   0  0  0  0  0  0  0  0  0  0  0  0
    1.3000   -1.5000    0.0000 N   0  0  0  0  0  0  0  0  0  0  0  0
    0.0000    0.7500    0.0000 N   0  0  0  0  0  0  0  0  0  0  0  0
    1.3000    3.0000    0.0000 O   0  0  0  0  0  0  0  0  0  0  0  0
  3  1  1  0
  5  4  1  0
  6  4  2  0
  8  2  1  0
  8  7  2  0
  9  3  1  0
  9  5  2  0
 10  6  1  0
 11  7  1  0
 12  8  1  0
 12 10  2  0
 13  9  1  0
 13 10  1  0
 13 11  1  0
 14 11  2  0
M  END
>  <NAME>  (4312) 
6-ETHYL-2-METHYL-4H-PYRIDO(1,2-A)PYRIMIDIN-4-ONE

>  <SYNONYMS>  (4312) 


>  <SPECTRUM TYPE>  (4312) 
MS1

>  <INSTRUMENT TYPE>  (4312) 
EI-B

>  <INSTRUMENT>  (4312) 
MS-902

>  <ION MODE>  (4312) 
P

>  <INCHIKEY>  (4312) 
FMOMCNYIHPIKJZ-UHFFFAOYSA-N

>  <FORMULA>  (4312) 
C11H12N2O

>  <EXACT MASS>  (4312) 
188.094963004

>  <MW>  (4312) 
188

>  <ID>  (4312) 
JP004449

>  <CONTRIBUTOR>  (4312) 
University of Tokyo Team, {Faculty of Engineering, University of Tokyo

>  <COMMENT>  (4312) 
SMILES=CCC(=C2)N(C(=O)1)C(C=C2)=NC(C)=C1
InChI=InChI=1S/C11H12N2O/c1-3-9-5-4-6-10-12-8(2)7-11(14)13(9)10/h4-7H,3H2,1-2H3
computed SMILES=O=C1C=C(N=C2C=CC=C(N12)CC)C
accession=JP004449
date=2016.01.19 (Created 2008.10.21, modified 2011.05.06)
author=SASAKI S, TOYOHASHI UNIV. OF TECH.
license=CC BY-NC-SA
exact mass=188.09496
ionization energy=70 eV
ion type=[M]+*
computed spectral entropy=2.8316861766442614
computed normalized entropy=0.7676277340768861
SPLASH=splash10-002r-4900000000-04a1ae64b159644bb0cc
submitter=submitter = University of Tokyo Team (Faculty of Engineering, University of Tokyo)
MoNA Rating=3.75

>  <NUM PEAKS>  (4312) 
40

>  <MASS SPECTRAL PEAKS>  (4312) 
39 18.6
40 4.6
50 6
51 1.29
52 11.7
63 3.7
65 5.7
66 0.46
67 4.9
73 6
76 4.6
77 3.43
78 68.6
79 25.7
86 5.1
91 0.43
92 7.1
94 4.6
104 11.1
106 1.37
107 4
121 2.9
132 14.3
133 0.26
143 3.4
144 2.9
145 45.7
146 1
149 2
159 65.7
160 65.7
161 0.71
171 20
172 4.6
173 2.6
174 0.49
187 15.4
188 99.99
189 12.6
190 0.7

>  <PREDICTED SPECTRUM>  (4312) 
26 37
27 77
28 27
33 15
37 59
38 149
39 371
40 203
41 195
42 205
43 54
44 39
49 8
50 180
51 354
52 334
53 222
54 213
55 106
56 84
57 65
61 14
62 80
63 222
64 228
65 341
66 268
67 257
68 154
69 34
70 46
74 60
75 70
76 141
77 285
78 395
79 215
80 187
81 116
82 101
83 77
84 34
86 5
89 87
90 153
91 286
92 305
93 235
94 116
95 29
102 68
103 103
104 211
105 253
106 249
107 203
108 88
109 48
112 0
115 41
116 63
117 123
118 280
119 148
120 31
129 27
130 88
131 278
132 460
133 257
134 111
135 8
143 75
144 40
145 431
146 278
147 130
148 60
149 29
157 75
158 78
159 728
160 672
161 283
162 2
169 4
170 18
171 111
172 58
173 308
174 104
186 29
187 320
188 999
189 380
190 100

$$$$

     RDKit          2D

 14 15  0  0  0  0  0  0  0  0999 V2000
   -3.5724   -3.1876    0.0000 C   0  0  0  0  0  0  0  0  0  0  0  0
   -2.2729   -3.9384    0.0000 C   0  0  0  0  0  0  0  0  0  0  0  0
   -3.5729   -1.6867    0.0000 C   0  0  0  0  0  0  0  0  0  0  0  0
   -0.9738   -3.1884    0.0000 C   0  0  0  0  0  0  0  0  0  0  0  0
   -2.2738   -0.9367    0.0000 C   0  0  0  0  0  0  0  0  0  0  0  0
    0.3242    0.5633    0.0000 C   0  0  0  0  0  0  0  0  0  0  0  0
    1.6233    1.3133    0.0000 C   0  0  0  0  0  0  0  0  0  0  0  0
   -0.9743   -1.6876    0.0000 C   0  0  0  0  0  0  0  0  0  0  0  0
    0.3247   -0.9376    0.0000 C   0  0  0  0  0  0  0  0  0  0  0  0
    2.9233   -0.9384    0.0000 C   0  0  0  0  0  0  0  0  0  0  0  0
    4.2224   -1.6882    0.0000 N   0  0  0  0  0  0  0  0  0  0  0  0
    1.6242   -1.6884    0.0000 N   0  0  0  0  0  0  0  0  0  0  0  0
    2.9228    0.5624    0.0000 N   0  0  0  0  0  0  0  0  0  0  0  0
    4.2218    1.3124    0.0000 O   0  0  0  0  0  0  0  0  0  0  0  0
  2  1  2  0
  3  1  1  0
  4  2  1  0
  5  3  2  0
  7  6  1  0
  8  4  2  0
  8  5  1  0
  9  6  2  0
  9  8  1  0
 11 10  2  0
 12  9  1  0
 12 10  1  0
 13  7  2  0
 13 10  1  0
 14 13  1  0
M  CHG  2  13   1  14  -1
M  END
>  <NAME>  (4313) 
2-AMINO-4PHENYLPYRIMIDINE-1-OXIDE

>  <SYNONYMS>  (4313) 


>  <SPECTRUM TYPE>  (4313) 
MS1

>  <INSTRUMENT TYPE>  (4313) 
EI-B

>  <INSTRUMENT>  (4313) 
MS-902

>  <ION MODE>  (4313) 
P

>  <INCHIKEY>  (4313) 
YWRVUPYBXNCILR-UHFFFAOYSA-N

>  <FORMULA>  (4313) 
C10H9N3O

>  <EXACT MASS>  (4313) 
187.074561908

>  <MW>  (4313) 
187

>  <ID>  (4313) 
JP004448

>  <CONTRIBUTOR>  (4313) 
University of Tokyo Team, {Faculty of Engineering, University of Tokyo

>  <COMMENT>  (4313) 
SMILES=[O-1][n+1](c2)c(N)nc(c2)c(c1)cccc1
InChI=InChI=1S/C10H9N3O/c11-10-12-9(6-7-13(10)14)8-4-2-1-3-5-8/h1-7H,(H2,11,12)
computed SMILES=O=N1=CC=C(NC1=N)C=2C=CC=CC2
accession=JP004448
date=2016.01.19 (Created 2008.10.21, modified 2011.05.06)
author=SASAKI S, TOYOHASHI UNIV. OF TECH.
license=CC BY-NC-SA
exact mass=187.07456
ionization energy=70 eV
ion type=[M]+*
computed spectral entropy=2.9906018829060828
computed normalized entropy=0.6466204243009174
SPLASH=splash10-000i-1900000000-c8028eaf8ea04aa3a507
submitter=submitter = University of Tokyo Team (Faculty of Engineering, University of Tokyo)
MoNA Rating=3.75

>  <NUM PEAKS>  (4313) 
102

>  <MASS SPECTRAL PEAKS>  (4313) 
41 1.8
42 1
43 1
44 0.16
45 0.8
50 1.9
51 3.6
52 0.1
53 0.5
54 0.3
55 1
56 0.06
57 1
60 0.4
61 0.2
62 0.08
63 2.3
64 0.5
65 1.3
66 0.05
67 1.1
68 0.6
69 0.6
70 0.04
71 0.5
71.5 0.5
72 0.2
73 0.04
74 0.9
75 1.5
76 3.2
77 1
78 1.5
79 0.5
81 0.4
82 0.03
83 0.4
84 0.1
84.5 0.6
85 0.27
85.5 0.9
86 0.3
87 0.5
88 0.08
89 3.6
90 3.2
91 1.8
92 0.03
93 0.2
93.5 2.3
94 0.7
95 0.07
100 0.3
101 2.1
102 5
103 0.27
104 7.7
105 12.3
106 0.9
111 0.23
113 0.8
114 1.2
115 5.7
116 0.41
117 5.1
118 1
119 0.2
127 0.05
128 5.7
129 3.2
130 1
131 0.09
132 0.4
140 0.3
141 0.7
142 0.1
143 1.7
144 1.6
145 1.4
146 0.7
147 0.8
149 0.2
150 0.6
152 0.03
153 0.5
155 1
156 0.5
157 0.05
159 0.2
160 0.4
161 0.8
162 0.03
164 0.5
168 0.4
169 7.3
170 3.32
171 23.6
172 3.3
186 25
187 99.99
188 13.2
189 1

>  <PREDICTED SPECTRUM>  (4313) 
27 12
28 36
37 10
38 85
39 182
40 86
41 54
42 94
43 62
44 50
50 237
51 383
52 199
53 74
54 78
55 77
56 8
57 42
62 105
63 222
64 118
65 128
66 101
67 63
68 54
69 46
74 117
75 137
76 297
77 530
78 263
79 66
82 25
83 133
84 81
85 8
86 8
87 27
88 101
89 262
90 177
91 106
92 23
93 17
100 4
101 4
102 192
103 251
104 416
105 268
106 29
110 35
114 10
115 141
116 240
117 183
118 67
119 63
127 20
128 124
129 109
130 178
131 218
132 201
133 102
141 46
142 141
143 160
144 178
145 148
146 83
156 78
157 45
158 150
159 220
160 140
169 80
170 466
171 661
172 201
173 16
186 493
187 999
188 320
189 22

$$$$

     RDKit          2D

 12 12  0  0  0  0  0  0  0  0999 V2000
   -3.3491   -0.2013    0.0000 C   0  0  0  0  0  0  0  0  0  0  0  0
   -3.8978   -2.2504    0.0000 C   0  0  0  0  0  0  0  0  0  0  0  0
   -1.8487   -2.7991    0.0000 C   0  0  0  0  0  0  0  0  0  0  0  0
   -0.0000   -1.5000    0.0000 C   0  0  0  0  0  0  0  0  0  0  0  0
   -1.3000   -0.7500    0.0000 C   0  0  0  0  0  0  0  0  0  0  0  0
   -1.3000    0.7500    0.0000 C   0  0  0  0  0  0  0  0  0  0  0  0
    1.3000    0.7500    0.0000 C   0  0  0  0  0  0  0  0  0  0  0  0
    1.3000   -0.7500    0.0000 N   0  0  0  0  0  0  0  0  0  0  0  0
    0.0000    1.5000    0.0000 N   0  0  0  0  0  0  0  0  0  0  0  0
   -2.5989    1.5002    0.0000 O   0  0  0  0  0  0  0  0  0  0  0  0
    2.5989    1.5002    0.0000 O   0  0  0  0  0  0  0  0  0  0  0  0
   -2.5989   -1.5002    0.0000 Si  0  0  0  0  0  4  0  0  0  0  0  0
  5  4  2  0
  6  5  1  0
  8  4  1  0
  8  7  2  0
  9  6  2  0
  9  7  1  0
 10  6  1  0
 11  7  1  0
 12  1  1  0
 12  2  1  0
 12  3  1  0
 12  5  1  0
M  END
>  <NAME>  (4314) 
5-TRIMETHYLSILYL-1,2,3,4-TETRAHYDROPYRIMIDINE-2,4-DIONE

>  <SYNONYMS>  (4314) 
5-TRIMETHYLSILYLURACIL

>  <SPECTRUM TYPE>  (4314) 
MS1

>  <INSTRUMENT TYPE>  (4314) 
EI-B

>  <INSTRUMENT>  (4314) 
Unknown

>  <ION MODE>  (4314) 
P

>  <INCHIKEY>  (4314) 
ZBCOQAVPBYMQCH-UHFFFAOYSA-N

>  <FORMULA>  (4314) 
C7H12N2O2Si

>  <EXACT MASS>  (4314) 
184.066804154

>  <MW>  (4314) 
184

>  <ID>  (4314) 
JP004447

>  <CONTRIBUTOR>  (4314) 
University of Tokyo Team, {Faculty of Engineering, University of Tokyo

>  <COMMENT>  (4314) 
SMILES=O=C(N1)NC(=O)C(=C1)[Si](C)(C)C
InChI=InChI=1S/C7H12N2O2Si/c1-12(2,3)5-4-8-7(11)9-6(5)10/h4H,1-3H3,(H2,8,9,10,11)
computed SMILES=OC1=NC=C(C(O)=N1)[Si](C)(C)C
accession=JP004447
date=2016.01.19 (Created 2008.10.21, modified 2011.05.06)
author=SASAKI S, TOYOHASHI UNIV. OF TECH.
license=CC BY-NC-SA
exact mass=184.0668
ionization energy=70 eV
ion type=[M]+*
computed spectral entropy=1.9983595706374795
computed normalized entropy=0.576604688494338
SPLASH=splash10-014i-2900000000-5a5c0dd72ab61398d7b9
submitter=submitter = University of Tokyo Team (Faculty of Engineering, University of Tokyo)
MoNA Rating=3.75

>  <NUM PEAKS>  (4314) 
32

>  <MASS SPECTRAL PEAKS>  (4314) 
43 4.4
44 2
45 2.8
47 0.15
52 1.5
53 2.2
55 1.7
59 0.21
69 1.4
70 1
73 1.9
74 4.29
75 6.7
76 1.6
77 1.8
83 0.37
84 1.1
99 1.8
100 7.6
101 0.11
110 1.4
112 0.8
126 1.8
129 0.15
149 1.8
153 0.9
158 1.5
169 99.99
170 11.1
171 3.5
184 9.4
185 1.2

>  <PREDICTED SPECTRUM>  (4314) 
27 8
28 20
29 90
30 43
31 39
41 23
42 114
43 289
44 203
45 208
46 55
47 12
51 33
53 75
54 48
55 123
56 37
57 136
58 103
59 187
60 12
61 43
66 2
67 51
68 78
69 244
70 158
71 135
72 99
73 451
74 76
75 120
77 25
78 3
79 7
81 4
83 125
84 90
85 150
86 105
87 110
97 97
98 123
99 170
100 161
101 112
102 51
110 20
111 22
112 101
113 103
114 148
115 68
116 9
125 29
126 147
127 29
128 52
129 27
130 39
139 42
140 99
141 129
142 188
143 165
144 47
153 24
155 100
156 9
157 90
168 62
169 999
170 363
171 241
172 12
183 140
184 584
185 236
186 90

$$$$

     RDKit          2D

 12 12  0  0  0  0  0  0  0  0999 V2000
    2.5989   -0.7496    0.0000 C   0  0  0  0  0  0  0  0  0  0  0  0
    1.2995    1.5002    0.0000 C   0  0  0  0  0  0  0  0  0  0  0  0
   -3.8972   -0.0004    0.0000 C   0  0  0  0  0  0  0  0  0  0  0  0
   -2.5972   -2.2504    0.0000 C   0  0  0  0  0  0  0  0  0  0  0  0
    0.0008   -0.7500    0.0000 C   0  0  0  0  0  0  0  0  0  0  0  0
   -2.5972   -0.7504    0.0000 C   0  0  0  0  0  0  0  0  0  0  0  0
   -5.1972   -2.2504    0.0000 C   0  0  0  0  0  0  0  0  0  0  0  0
   -6.4962   -3.0006    0.0000 Cl  0  0  0  0  0  0  0  0  0  0  0  0
   -5.1972   -0.7504    0.0000 N   0  0  0  0  0  0  0  0  0  0  0  0
   -3.8972   -3.0004    0.0000 N   0  0  0  0  0  0  0  0  0  0  0  0
   -1.2983   -0.0002    0.0000 N   0  0  0  0  0  0  0  0  0  0  0  0
    1.2998    0.0002    0.0000 N   0  0  0  0  0  0  0  0  0  0  0  0
  6  3  2  0
  6  4  1  0
  8  7  1  0
  9  3  1  0
  9  7  2  0
 10  4  2  0
 10  7  1  0
  5 11  2  0
 11  6  1  0
 12  1  1  0
 12  2  1  0
 12  5  1  0
M  END
>  <NAME>  (4315) 
2-CHLORO-5-DIMETHYLAMINOMETHYLENEAMINOPYRIMIDINE

>  <SYNONYMS>  (4315) 


>  <SPECTRUM TYPE>  (4315) 
MS1

>  <INSTRUMENT TYPE>  (4315) 
EI-B

>  <INSTRUMENT>  (4315) 
MS-902

>  <ION MODE>  (4315) 
P

>  <INCHIKEY>  (4315) 
PIJYDARGDRWFFF-VZUCSPMQSA-N

>  <FORMULA>  (4315) 
C7H9ClN4

>  <EXACT MASS>  (4315) 
184.05157396799999

>  <MW>  (4315) 
184

>  <ID>  (4315) 
JP004446

>  <CONTRIBUTOR>  (4315) 
University of Tokyo Team, {Faculty of Engineering, University of Tokyo

>  <COMMENT>  (4315) 
SMILES=CN(C)C=Nc(c1)cnc(Cl)n1
InChI=InChI=1S/C7H9ClN4/c1-12(2)5-11-6-3-9-7(8)10-4-6/h3-5H,1-2H3/b11-5+
computed SMILES=ClC1=NC=C(N=CN(C)C)C=N1
accession=JP004446
date=2016.01.19 (Created 2008.10.21, modified 2011.05.06)
author=SASAKI S, TOYOHASHI UNIV. OF TECH.
license=CC BY-NC-SA
exact mass=184.05157
ionization energy=70 eV
ion type=[M]+*
computed spectral entropy=3.4334710157207575
computed normalized entropy=0.6999548793500588
SPLASH=splash10-0006-8900000000-7e594a3ad51d6eefb000
submitter=submitter = University of Tokyo Team (Faculty of Engineering, University of Tokyo)
MoNA Rating=3.75

>  <NUM PEAKS>  (4315) 
135

>  <MASS SPECTRAL PEAKS>  (4315) 
36 4.6
37 0.3
38 1.4
39 0.12
40 2.3
41 4.2
42 34.4
43 0.56
44 99.99
45 7.9
46 2
47 0.06
50 0.6
51 5
52 11.8
53 0.18
54 3.4
55 1.3
56 1.3
57 2.15
58 2
61 0.3
62 2.2
63 0.02
64 0.7
65 0.5
66 0.6
67 0.1
68 1.8
69 1.4
70 0.5
71 0.06
73 0.5
74 0.5
75 1.4
76 0.05
77 2.1
78 0.7
78.5 9
79 0.32
79.5 3
80 2.3
81 4
82 0.06
83 0.9
84 0.2
86 8.3
87 0.04
88 2.8
89 0.2
90 0.2
91 0.05
92 1
93 0.5
94 0.3
95 0.18
96 0.9
97 0.3
98 0.5
100 0.08
101 0.7
102 0.4
103 0.2
104 0.06
105 0.4
106 1.8
107 1
108 0.81
109 0.6
111 0.6
112 0.3
113 1.13
114 1.5
115 4
116 0.7
117 0.04
118 0.4
119 0.2
120 1
121 0.06
122 4
123 0.6
125 0.2
126 0.03
127 1.4
128 2.6
129 0.8
130 0.08
131 0.4
132 1.1
133 1.3
134 0.05
137 0.6
138 0.5
139 0.4
140 1.83
141 3
142 35.4
143 3.3
144 1
145 0.8
147 0.9
148 0.5
149 1.6
150 1.3
153 0.3
154 5.2
155 0.15
156 14.8
157 2.1
158 4.6
159 0.06
160 1
161 0.1
164 0.2
165 0.06
166 0.4
167 4.2
168 8.5
169 3.56
170 5.5
171 10.8
172 0.8
173 0.03
174 1.3
175 1.6
176 0.2
178 0.02
181 0.5
182 0.4
183 56
184 7.71
185 25
186 26
187 2.3

>  <PREDICTED SPECTRUM>  (4315) 
14 29
15 93
16 16
17 20
18 29
26 5
27 20
28 144
29 112
30 160
33 18
34 10
35 58
36 100
37 51
38 108
39 185
40 240
41 209
42 832
43 345
44 997
45 373
46 216
47 112
49 65
50 83
51 181
52 285
53 281
54 298
55 194
56 150
57 301
58 155
59 103
60 43
61 44
62 79
63 82
64 96
65 119
66 171
67 219
68 166
69 124
70 87
71 226
72 153
73 66
74 59
75 99
76 82
77 92
78 213
79 175
80 216
81 222
82 156
83 39
84 8
85 38
86 149
87 132
88 56
89 18
90 54
91 12
92 88
93 122
94 143
95 130
96 78
97 67
98 96
99 117
100 68
101 105
102 54
103 24
104 92
105 143
106 204
107 214
108 324
109 147
110 84
111 50
112 84
113 157
114 100
115 181
116 87
117 70
118 38
119 79
120 152
121 59
122 136
126 53
127 31
128 197
129 189
130 108
131 77
132 17
133 214
134 147
135 58
139 6
140 490
141 173
142 646
143 196
144 315
145 40
146 27
147 68
148 52
149 288
150 114
153 27
154 135
155 161
156 341
157 212
158 211
159 38
167 171
168 292
169 710
170 285
171 388
172 112
181 94
182 61
183 765
184 999
185 506
186 551
187 185

$$$$

     RDKit          2D

 13 14  0  0  0  0  0  0  0  0999 V2000
    3.8989    1.5002    0.0000 C   0  0  0  0  0  0  0  0  0  0  0  0
   -1.3000    3.0000    0.0000 C   0  0  0  0  0  0  0  0  0  0  0  0
   -2.6000   -0.7500    0.0000 C   0  0  0  0  0  0  0  0  0  0  0  0
   -2.6000    0.7500    0.0000 C   0  0  0  0  0  0  0  0  0  0  0  0
   -1.3000   -1.5000    0.0000 C   0  0  0  0  0  0  0  0  0  0  0  0
    2.6000   -0.7500    0.0000 C   0  0  0  0  0  0  0  0  0  0  0  0
    2.6000    0.7500    0.0000 C   0  0  0  0  0  0  0  0  0  0  0  0
   -1.3000    1.5000    0.0000 C   0  0  0  0  0  0  0  0  0  0  0  0
    0.0000   -0.7500    0.0000 C   0  0  0  0  0  0  0  0  0  0  0  0
    1.3000    1.5000    0.0000 C   0  0  0  0  0  0  0  0  0  0  0  0
    1.3000   -1.5000    0.0000 N   0  0  0  0  0  0  0  0  0  0  0  0
    0.0000    0.7500    0.0000 N   0  0  0  0  0  0  0  0  0  0  0  0
    1.3000    3.0000    0.0000 O   0  0  0  0  0  0  0  0  0  0  0  0
  4  3  1  0
  5  3  1  0
  7  1  1  0
  7  6  2  0
  8  2  1  0
  8  4  1  0
  9  5  1  0
 10  7  1  0
 11  6  1  0
 11  9  2  0
 12  8  1  0
 12  9  1  0
 12 10  1  0
 13 10  2  0
M  END
>  <NAME>  (4316) 
3,6-DIMEYHYL-6,7,8,9-TETRAHYDRO-4H-PYRIDO(1,2-A)PYRIMIDIN-4-ONE

>  <SYNONYMS>  (4316) 


>  <SPECTRUM TYPE>  (4316) 
MS1

>  <INSTRUMENT TYPE>  (4316) 
EI-B

>  <INSTRUMENT>  (4316) 
MS-902

>  <ION MODE>  (4316) 
P

>  <INCHIKEY>  (4316) 
QLENPRKQIFCBST-UHFFFAOYSA-N

>  <FORMULA>  (4316) 
C10H14N2O

>  <EXACT MASS>  (4316) 
178.11061306800002

>  <MW>  (4316) 
178

>  <ID>  (4316) 
JP004445

>  <CONTRIBUTOR>  (4316) 
University of Tokyo Team, {Faculty of Engineering, University of Tokyo

>  <COMMENT>  (4316) 
SMILES=CC(=C1)C(=O)N(C(C)2)C(CCC2)=N1
InChI=InChI=1S/C10H14N2O/c1-7-6-11-9-5-3-4-8(2)12(9)10(7)13/h6,8H,3-5H2,1-2H3
computed SMILES=O=C1C(=CN=C2N1C(C)CCC2)C
accession=JP004445
date=2016.01.19 (Created 2008.10.21, modified 2011.05.06)
author=SASAKI S, TOYOHASHI UNIV. OF TECH.
license=CC BY-NC-SA
exact mass=178.11061
ionization energy=70 eV
ion type=[M]+*
computed spectral entropy=2.5626232566670115
computed normalized entropy=0.7462530009779762
SPLASH=splash10-004i-2900000000-3a53ec48b9af023cf18f
submitter=submitter = University of Tokyo Team (Faculty of Engineering, University of Tokyo)
MoNA Rating=3.75

>  <NUM PEAKS>  (4316) 
31

>  <MASS SPECTRAL PEAKS>  (4316) 
38 6
39 16.7
41 14.3
42 0.5
53 6.2
54 9.8
55 9.5
67 0.33
68 3.6
80 2.9
81 2.6
84 0.79
92 2.9
94 1.9
95 2.1
96 0.21
110 1.9
122 2.4
123 5.7
124 6.43
125 4.3
135 3.1
136 11.9
137 1.31
149 14.3
150 4.8
163 38.1
164 0.36
177 45.2
178 99.99
179 11.9

>  <PREDICTED SPECTRUM>  (4316) 
27 8
28 10
37 13
38 119
39 510
40 257
41 695
42 471
43 250
44 115
50 64
51 248
52 261
53 370
54 450
55 683
56 438
57 104
62 4
63 92
64 150
65 257
66 188
67 411
68 432
69 307
70 50
77 123
79 51
80 299
81 305
82 470
83 283
84 186
90 30
91 31
92 125
93 88
94 151
95 260
96 422
97 294
98 81
106 15
107 255
108 243
109 315
110 126
119 57
120 42
121 260
122 298
123 191
124 90
134 75
135 396
136 164
149 444
150 579
151 289
162 63
163 908
164 297
177 481
178 999
179 303
180 8

$$$$

     RDKit          2D

 13 14  0  0  0  0  0  0  0  0999 V2000
    3.8989    1.5002    0.0000 C   0  0  0  0  0  0  0  0  0  0  0  0
   -1.3000    3.0000    0.0000 C   0  0  0  0  0  0  0  0  0  0  0  0
   -2.6000   -0.7500    0.0000 C   0  0  0  0  0  0  0  0  0  0  0  0
   -2.6000    0.7500    0.0000 C   0  0  0  0  0  0  0  0  0  0  0  0
   -1.3000   -1.5000    0.0000 C   0  0  0  0  0  0  0  0  0  0  0  0
    2.6000   -0.7500    0.0000 C   0  0  0  0  0  0  0  0  0  0  0  0
    2.6000    0.7500    0.0000 C   0  0  0  0  0  0  0  0  0  0  0  0
   -1.3000    1.5000    0.0000 C   0  0  0  0  0  0  0  0  0  0  0  0
    0.0000   -0.7500    0.0000 C   0  0  0  0  0  0  0  0  0  0  0  0
    1.3000    1.5000    0.0000 C   0  0  0  0  0  0  0  0  0  0  0  0
    1.3000   -1.5000    0.0000 N   0  0  0  0  0  0  0  0  0  0  0  0
    0.0000    0.7500    0.0000 N   0  0  0  0  0  0  0  0  0  0  0  0
    1.3000    3.0000    0.0000 O   0  0  0  0  0  0  0  0  0  0  0  0
  4  3  1  0
  5  3  2  0
  7  1  1  0
  7  6  2  0
  8  2  1  0
  8  4  2  0
  9  5  1  0
 10  7  1  0
 11  6  1  0
 11  9  2  0
 12  8  1  0
 12  9  1  0
 12 10  1  0
 13 10  2  0
M  END
>  <NAME>  (4317) 
3,6-DIMETHYL-4H-PYRIDO(1,2-A)PYRIMIDIN-4-ONE

>  <SYNONYMS>  (4317) 


>  <SPECTRUM TYPE>  (4317) 
MS1

>  <INSTRUMENT TYPE>  (4317) 
EI-B

>  <INSTRUMENT>  (4317) 
MS-902

>  <ION MODE>  (4317) 
P

>  <INCHIKEY>  (4317) 
VNZAABOALQMGKL-UHFFFAOYSA-N

>  <FORMULA>  (4317) 
C10H10N2O

>  <EXACT MASS>  (4317) 
174.07931294

>  <MW>  (4317) 
174

>  <ID>  (4317) 
JP004444

>  <CONTRIBUTOR>  (4317) 
University of Tokyo Team, {Faculty of Engineering, University of Tokyo

>  <COMMENT>  (4317) 
SMILES=CC(=C1)C(=O)N(C(C)=2)C(C=CC2)=N1
InChI=InChI=1S/C10H10N2O/c1-7-6-11-9-5-3-4-8(2)12(9)10(7)13/h3-6H,1-2H3
computed SMILES=O=C1C(=CN=C2C=CC=C(N21)C)C
accession=JP004444
date=2016.01.19 (Created 2008.10.21, modified 2011.05.06)
author=SASAKI S, TOYOHASHI UNIV. OF TECH.
license=CC BY-NC-SA
exact mass=174.07931
ionization energy=70 eV
ion type=[M]+*
computed spectral entropy=2.366822961011006
computed normalized entropy=0.6769105798868428
SPLASH=splash10-00dm-7900000000-2cfb7600dfa341741a53
submitter=submitter = University of Tokyo Team (Faculty of Engineering, University of Tokyo)
MoNA Rating=3.75

>  <NUM PEAKS>  (4317) 
33

>  <MASS SPECTRAL PEAKS>  (4317) 
38 4
39 23.3
40 4
41 0.33
51 4
52 5
53 2.7
54 0.27
58 3
63 4
64 6.7
65 3
66 9.7
77 2.3
78 3.3
87 0.17
91 5.3
92 60
93 30
94 0.17
105 1.3
118 3
119 3.3
131 0.2
143 1.7
144 3
145 80
146 5.33
147 4.7
173 2.7
174 99.99
175 1.1
176 0.7

>  <PREDICTED SPECTRUM>  (4317) 
26 14
27 61
37 112
38 246
39 516
40 216
41 256
42 187
49 26
50 257
51 429
52 392
53 272
54 234
55 35
56 40
62 16
63 180
64 277
65 626
66 354
67 232
69 27
74 19
75 29
76 131
77 26
78 120
79 99
80 26
90 142
91 296
92 758
93 522
94 51
104 166
105 86
106 57
118 308
119 402
120 234
121 52
131 165
132 77
133 27
145 659
146 571
147 231
159 24
172 29
173 511
174 999
175 358
176 46

$$$$

     RDKit          2D

 13 14  0  0  0  0  0  0  0  0999 V2000
    3.8989   -1.5002    0.0000 C   0  0  0  0  0  0  0  0  0  0  0  0
   -1.3000    3.0000    0.0000 C   0  0  0  0  0  0  0  0  0  0  0  0
   -2.6000   -0.7500    0.0000 C   0  0  0  0  0  0  0  0  0  0  0  0
   -2.6000    0.7500    0.0000 C   0  0  0  0  0  0  0  0  0  0  0  0
   -1.3000   -1.5000    0.0000 C   0  0  0  0  0  0  0  0  0  0  0  0
    2.6000    0.7500    0.0000 C   0  0  0  0  0  0  0  0  0  0  0  0
    2.6000   -0.7500    0.0000 C   0  0  0  0  0  0  0  0  0  0  0  0
   -1.3000    1.5000    0.0000 C   0  0  0  0  0  0  0  0  0  0  0  0
    0.0000   -0.7500    0.0000 C   0  0  0  0  0  0  0  0  0  0  0  0
    1.3000    1.5000    0.0000 C   0  0  0  0  0  0  0  0  0  0  0  0
    1.3000   -1.5000    0.0000 N   0  0  0  0  0  0  0  0  0  0  0  0
    0.0000    0.7500    0.0000 N   0  0  0  0  0  0  0  0  0  0  0  0
    1.3000    3.0000    0.0000 O   0  0  0  0  0  0  0  0  0  0  0  0
  4  3  1  0
  5  3  2  0
  7  1  1  0
  7  6  2  0
  8  2  1  0
  8  4  2  0
  9  5  1  0
 10  6  1  0
 11  7  1  0
 11  9  2  0
 12  8  1  0
 12  9  1  0
 12 10  1  0
 13 10  2  0
M  END
>  <NAME>  (4318) 
2,6-DIMETHYL-4H-PYRIDO(1,2-A)PYRIMIDIN-4-ONE

>  <SYNONYMS>  (4318) 


>  <SPECTRUM TYPE>  (4318) 
MS1

>  <INSTRUMENT TYPE>  (4318) 
EI-B

>  <INSTRUMENT>  (4318) 
MS-902

>  <ION MODE>  (4318) 
P

>  <INCHIKEY>  (4318) 
UPQKNTNJVQSGIH-UHFFFAOYSA-N

>  <FORMULA>  (4318) 
C10H10N2O

>  <EXACT MASS>  (4318) 
174.07931294

>  <MW>  (4318) 
174

>  <ID>  (4318) 
JP004443

>  <CONTRIBUTOR>  (4318) 
University of Tokyo Team, {Faculty of Engineering, University of Tokyo

>  <COMMENT>  (4318) 
SMILES=CC(=C1)N=C(C=2)N(C(C)=CC2)C(=O)1
InChI=InChI=1S/C10H10N2O/c1-7-6-10(13)12-8(2)4-3-5-9(12)11-7/h3-6H,1-2H3
computed SMILES=O=C1C=C(N=C2C=CC=C(N12)C)C
accession=JP004443
date=2016.01.19 (Created 2008.10.21, modified 2011.05.06)
author=SASAKI S, TOYOHASHI UNIV. OF TECH.
license=CC BY-NC-SA
exact mass=174.07931
ionization energy=70 eV
ion type=[M]+*
computed spectral entropy=2.3139203238343415
computed normalized entropy=0.6803252102656668
SPLASH=splash10-00dm-4900000000-a4df8f1aed70775d6683
submitter=submitter = University of Tokyo Team (Faculty of Engineering, University of Tokyo)
MoNA Rating=3.75

>  <NUM PEAKS>  (4318) 
30

>  <MASS SPECTRAL PEAKS>  (4318) 
38 3.8
39 23.5
40 4.6
51 0.32
52 3.5
63 3.1
64 5.6
65 2.94
66 6.6
67 3.2
78 2.4
87 0.47
91 3.1
92 38.2
93 17.6
104 0.16
107 1.5
118 2.6
119 1.6
131 0.59
133 0.6
135 1.5
144 2.4
145 3.97
146 85.3
147 8.2
173 10.3
174 99.99
175 11.2
176 0.3

>  <PREDICTED SPECTRUM>  (4318) 
27 53
33 14
36 11
37 114
38 218
39 458
40 242
41 228
42 268
43 37
44 48
49 28
50 173
51 330
52 348
53 200
54 120
55 43
56 61
57 23
61 44
62 67
63 227
64 253
65 496
66 319
67 255
68 164
69 90
70 44
74 35
75 62
76 85
77 190
78 247
79 201
80 150
81 30
82 44
86 15
87 32
88 50
89 5
90 64
91 127
92 641
93 367
94 23
95 22
101 8
102 42
103 52
104 155
105 246
106 186
107 156
108 47
117 80
118 143
119 188
120 52
127 14
129 66
131 271
132 142
133 117
134 57
135 185
143 21
144 77
145 738
146 900
147 336
148 28
159 26
173 74
174 999
175 331
176 73

$$$$

     RDKit          2D

 13 14  0  0  0  0  0  0  0  0999 V2000
    2.2708   -5.4308    0.0000 C   0  0  0  0  0  0  0  0  0  0  0  0
    0.9730   -4.6786    0.0000 C   0  0  0  0  0  0  0  0  0  0  0  0
    3.5666   -4.6908    0.0000 C   0  0  0  0  0  0  0  0  0  0  0  0
   -1.6275   -3.1872    0.0000 C   0  0  0  0  0  0  0  0  0  0  0  0
   -2.9266   -2.4372    0.0000 C   0  0  0  0  0  0  0  0  0  0  0  0
    2.2718   -2.4378    0.0000 C   0  0  0  0  0  0  0  0  0  0  0  0
   -1.6266   -0.1856    0.0000 C   0  0  0  0  0  0  0  0  0  0  0  0
    0.9710   -3.1864    0.0000 C   0  0  0  0  0  0  0  0  0  0  0  0
    3.5696   -3.1899    0.0000 C   0  0  0  0  0  0  0  0  0  0  0  0
   -0.3280   -2.4364    0.0000 C   0  0  0  0  0  0  0  0  0  0  0  0
    4.8700   -2.4423    0.0000 F   0  0  0  0  0  0  0  0  0  0  0  0
   -2.9261   -0.9364    0.0000 N   0  0  0  0  0  0  0  0  0  0  0  0
   -0.3275   -0.9356    0.0000 N   0  0  0  0  0  0  0  0  0  0  0  0
  2  1  2  0
  3  1  1  0
  5  4  2  0
  8  2  1  0
  8  6  2  0
  9  3  2  0
  9  6  1  0
 10  4  1  0
 10  8  1  0
 11  9  1  0
 12  5  1  0
 12  7  2  0
 13  7  1  0
 13 10  2  0
M  END
>  <NAME>  (4319) 
4-(3-FLUOROPHENYL)PYRIMIDINE

>  <SYNONYMS>  (4319) 


>  <SPECTRUM TYPE>  (4319) 
MS1

>  <INSTRUMENT TYPE>  (4319) 
EI-B

>  <INSTRUMENT>  (4319) 
MS-902

>  <ION MODE>  (4319) 
P

>  <INCHIKEY>  (4319) 
WHCSLDOSGQOORQ-UHFFFAOYSA-N

>  <FORMULA>  (4319) 
C10H7FN2

>  <EXACT MASS>  (4319) 
174.059326444

>  <MW>  (4319) 
174

>  <ID>  (4319) 
JP004442

>  <CONTRIBUTOR>  (4319) 
University of Tokyo Team, {Faculty of Engineering, University of Tokyo

>  <COMMENT>  (4319) 
SMILES=Fc(c2)cc(cc2)c(c1)ncnc1
InChI=InChI=1S/C10H7FN2/c11-9-3-1-2-8(6-9)10-4-5-12-7-13-10/h1-7H
computed SMILES=FC1=CC=CC(=C1)C=2N=CN=CC2
ion type=[M]+*
accession=JP004442
date=2016.01.19 (Created 2008.10.21, modified 2011.05.06)
author=SASAKI S, TOYOHASHI UNIV. OF TECH.
license=CC BY-NC-SA
exact mass=174.05933
ionization energy=70 eV
computed spectral entropy=2.1714554372919386
computed normalized entropy=0.5927170461526049
SPLASH=splash10-00di-1900000000-bb37ec1e84b2ceef2b57
submitter=submitter = University of Tokyo Team (Faculty of Engineering, University of Tokyo)
MoNA Rating=3.75

>  <NUM PEAKS>  (4319) 
39

>  <MASS SPECTRAL PEAKS>  (4319) 
39 0.8
44 2.9
45 1.1
49 0.05
50 1.7
52 3.4
53 7.4
57 0.14
60 2.2
60.5 0.6
61 0.5
62 0.06
67 0.8
68 1.2
73 0.5
74 0.31
75 4
76 0.8
77 0.5
79 0.06
87 1.4
94 5.8
95 3.1
96 0.08
98 0.5
99 2.2
118 0.6
120 3
121 12.6
122 2.5
126 2.9
127 0.05
146 4.3
147 55
148 5.4
155 0.05
173 5.1
174 99.99
175 10.8

>  <PREDICTED SPECTRUM>  (4319) 
26 5
28 4
31 35
37 11
38 9
39 3
40 19
41 10
44 69
49 18
50 160
51 143
52 71
53 5
57 166
61 49
62 81
63 82
64 5
68 95
69 92
70 131
71 89
73 15
74 193
75 343
76 176
77 26
82 26
86 49
87 23
92 24
93 39
94 77
95 120
96 90
97 5
98 39
99 64
100 90
101 65
102 104
103 28
119 107
120 396
121 143
122 167
123 87
126 54
127 27
128 41
130 35
145 24
146 263
147 665
148 211
149 27
153 15
172 12
173 529
174 999
175 346
176 44

$$$$

     RDKit          2D

 13 14  0  0  0  0  0  0  0  0999 V2000
    0.0004   -4.5006    0.0000 C   0  0  0  0  0  0  0  0  0  0  0  0
   -1.2992   -2.2504    0.0000 C   0  0  0  0  0  0  0  0  0  0  0  0
   -1.2997   -5.2504    0.0000 C   0  0  0  0  0  0  0  0  0  0  0  0
   -2.5994   -3.0002    0.0000 C   0  0  0  0  0  0  0  0  0  0  0  0
    1.2992   -0.7497    0.0000 C   0  0  0  0  0  0  0  0  0  0  0  0
    2.5982    0.0003    0.0000 C   0  0  0  0  0  0  0  0  0  0  0  0
    3.8982   -2.2514    0.0000 C   0  0  0  0  0  0  0  0  0  0  0  0
    0.0006   -3.0006    0.0000 C   0  0  0  0  0  0  0  0  0  0  0  0
   -2.5996   -4.5002    0.0000 C   0  0  0  0  0  0  0  0  0  0  0  0
    1.2997   -2.2506    0.0000 C   0  0  0  0  0  0  0  0  0  0  0  0
   -3.8986   -5.2502    0.0000 F   0  0  0  0  0  0  0  0  0  0  0  0
    3.8977   -0.7506    0.0000 N   0  0  0  0  0  0  0  0  0  0  0  0
    2.5992   -3.0014    0.0000 N   0  0  0  0  0  0  0  0  0  0  0  0
  3  1  2  0
  4  2  1  0
  6  5  2  0
  8  1  1  0
  8  2  2  0
  9  3  1  0
  9  4  2  0
 10  5  1  0
 10  8  1  0
 11  9  1  0
 12  6  1  0
 12  7  2  0
 13  7  1  0
 13 10  2  0
M  END
>  <NAME>  (4320) 
4-(4-FLUOROPHENYL)PYRIMIDINE

>  <SYNONYMS>  (4320) 


>  <SPECTRUM TYPE>  (4320) 
MS1

>  <INSTRUMENT TYPE>  (4320) 
EI-B

>  <INSTRUMENT>  (4320) 
MS-902

>  <ION MODE>  (4320) 
P

>  <INCHIKEY>  (4320) 
DPALDESLDSLUGD-UHFFFAOYSA-N

>  <FORMULA>  (4320) 
C10H7FN2

>  <EXACT MASS>  (4320) 
174.059326444

>  <MW>  (4320) 
174

>  <ID>  (4320) 
JP004441

>  <CONTRIBUTOR>  (4320) 
University of Tokyo Team, {Faculty of Engineering, University of Tokyo

>  <COMMENT>  (4320) 
SMILES=Fc(c2)ccc(c2)c(c1)ncnc1
InChI=InChI=1S/C10H7FN2/c11-9-3-1-8(2-4-9)10-5-6-12-7-13-10/h1-7H
computed SMILES=FC=1C=CC(=CC1)C=2N=CN=CC2
accession=JP004441
date=2016.01.19 (Created 2008.10.21, modified 2011.05.06)
author=SASAKI S, TOYOHASHI UNIV. OF TECH.
license=CC BY-NC-SA
exact mass=174.05933
ionization energy=70 eV
ion type=[M]+*
computed spectral entropy=2.1405314501536603
computed normalized entropy=0.5884483160433699
SPLASH=splash10-00di-1900000000-2eedaad8b62eb7005f88
submitter=submitter = University of Tokyo Team (Faculty of Engineering, University of Tokyo)
MoNA Rating=3.75

>  <NUM PEAKS>  (4320) 
38

>  <MASS SPECTRAL PEAKS>  (4320) 
44 1.1
49 0.7
50 1.5
52 0.14
53 7.9
54 0.7
57 1.3
60 0.15
61 0.8
62 1.3
63 1.3
68 0.09
69 1.4
73 0.8
74 3.8
75 0.25
87 1.7
94 4.6
95 2.1
96 0.09
98 0.6
99 2.6
117 0.7
118 0.07
120 38.5
121 11.8
122 2.7
123 0.08
126 0.9
127 0.8
146 1.3
147 6.11
148 5.1
149 0.7
163 0.7
173 5.19
174 99.99
175 12.3

>  <PREDICTED SPECTRUM>  (4320) 
26 20
27 2
28 20
31 48
33 3
38 12
39 15
40 4
44 64
49 23
50 155
51 152
52 68
57 190
61 65
62 78
63 85
68 114
69 89
70 176
71 28
73 0
74 175
75 318
76 107
82 31
84 36
86 37
87 60
88 13
92 3
93 54
94 87
95 140
96 140
97 1
98 20
99 39
100 54
101 96
102 99
106 1
107 2
119 118
120 378
121 236
122 242
123 54
126 99
127 90
133 46
134 12
145 15
146 305
147 658
148 224
149 18
153 69
154 2
155 17
173 476
174 999
175 342
176 56

$$$$

     RDKit          2D

 13 14  0  0  0  0  0  0  0  0999 V2000
    5.1925    1.5041    0.0000 C   0  0  0  0  0  0  0  0  0  0  0  0
   -1.3000   -0.7500    0.0000 C   0  0  0  0  0  0  0  0  0  0  0  0
    3.8923    0.7561    0.0000 C   0  0  0  0  0  0  0  0  0  0  0  0
    5.1993    2.9963    0.0000 C   0  0  0  0  0  0  0  0  0  0  0  0
   -1.3000    0.7500    0.0000 C   0  0  0  0  0  0  0  0  0  0  0  0
   -0.0000   -1.5000    0.0000 C   0  0  0  0  0  0  0  0  0  0  0  0
    2.6007    3.0010    0.0000 C   0  0  0  0  0  0  0  0  0  0  0  0
    2.5989    1.5002    0.0000 C   0  0  0  0  0  0  0  0  0  0  0  0
    3.9009    3.7491    0.0000 C   0  0  0  0  0  0  0  0  0  0  0  0
    1.3000    0.7500    0.0000 C   0  0  0  0  0  0  0  0  0  0  0  0
    3.9034    5.2491    0.0000 F   0  0  0  0  0  0  0  0  0  0  0  0
   -0.0000    1.5000    0.0000 N   0  0  0  0  0  0  0  0  0  0  0  0
    1.3000   -0.7500    0.0000 N   0  0  0  0  0  0  0  0  0  0  0  0
  3  1  2  0
  4  1  1  0
  5  2  2  0
  6  2  1  0
  8  3  1  0
  8  7  2  0
  9  4  2  0
  9  7  1  0
 10  8  1  0
 11  9  1  0
 12  5  1  0
 12 10  2  0
 13  6  2  0
 13 10  1  0
M  END
>  <NAME>  (4321) 
2-(3-FLUOROPHENYL)PYRIMIDINE

>  <SYNONYMS>  (4321) 


>  <SPECTRUM TYPE>  (4321) 
MS1

>  <INSTRUMENT TYPE>  (4321) 
EI-B

>  <INSTRUMENT>  (4321) 
MS-902

>  <ION MODE>  (4321) 
P

>  <INCHIKEY>  (4321) 
AWFZHOCQRKLVCJ-UHFFFAOYSA-N

>  <FORMULA>  (4321) 
C10H7FN2

>  <EXACT MASS>  (4321) 
174.059326444

>  <MW>  (4321) 
174

>  <ID>  (4321) 
JP004440

>  <CONTRIBUTOR>  (4321) 
University of Tokyo Team, {Faculty of Engineering, University of Tokyo

>  <COMMENT>  (4321) 
SMILES=Fc(c2)cc(cc2)c(n1)nccc1
InChI=InChI=1S/C10H7FN2/c11-9-4-1-3-8(7-9)10-12-5-2-6-13-10/h1-7H
computed SMILES=FC1=CC=CC(=C1)C2=NC=CC=N2
accession=JP004440
date=2016.01.19 (Created 2008.10.21, modified 2011.05.06)
author=SASAKI S, TOYOHASHI UNIV. OF TECH.
license=CC BY-NC-SA
exact mass=174.05933
ionization energy=70 eV
ion type=[M]+*
computed spectral entropy=1.8542046212950398
computed normalized entropy=0.49930487088691267
SPLASH=splash10-00di-1900000000-10e0bf34199d3aacf20b
submitter=submitter = University of Tokyo Team (Faculty of Engineering, University of Tokyo)
MoNA Rating=3.75

>  <NUM PEAKS>  (4321) 
41

>  <MASS SPECTRAL PEAKS>  (4321) 
44 1.5
50 1.4
51 1.7
52 0.2
53 1.3
55 0.7
56 1.5
57 0.08
63 0.5
68 0.7
69 0.7
70 0.13
74 1
75 2.8
76 0.9
77 0.41
81 0.7
83 0.5
86 0.7
87 0.56
87.5 0.5
93 1
94 7
95 0.43
99 0.5
101 0.5
109 0.5
113 0.09
114 2.8
120 1.1
121 54.3
122 0.74
132 1
146 1.7
147 8.2
148 0.13
164 0.5
173 8.4
174 99.99
175 0.99
176 0.7

>  <PREDICTED SPECTRUM>  (4321) 
26 16
27 3
28 22
33 3
37 29
38 58
39 86
40 50
44 64
49 15
50 149
51 164
52 176
53 103
57 108
61 54
62 65
63 39
64 15
66 36
68 126
69 33
70 85
73 57
74 100
75 264
76 94
77 43
78 32
79 27
80 61
81 19
86 60
87 8
88 28
93 55
94 234
95 268
96 103
99 60
100 64
101 37
102 72
105 7
106 26
107 2
119 13
120 147
121 466
122 426
123 115
127 79
130 48
133 13
146 192
147 383
148 214
159 23
173 327
174 999
175 366
176 57

$$$$

     RDKit          2D

 13 14  0  0  0  0  0  0  0  0999 V2000
   -1.3000   -0.7500    0.0000 C   0  0  0  0  0  0  0  0  0  0  0  0
    2.5989    3.0002    0.0000 C   0  0  0  0  0  0  0  0  0  0  0  0
    3.8989    0.7502    0.0000 C   0  0  0  0  0  0  0  0  0  0  0  0
    3.8989    3.7502    0.0000 C   0  0  0  0  0  0  0  0  0  0  0  0
    5.1989    1.5002    0.0000 C   0  0  0  0  0  0  0  0  0  0  0  0
   -1.3000    0.7500    0.0000 C   0  0  0  0  0  0  0  0  0  0  0  0
   -0.0000   -1.5000    0.0000 C   0  0  0  0  0  0  0  0  0  0  0  0
    2.5989    1.5002    0.0000 C   0  0  0  0  0  0  0  0  0  0  0  0
    5.1989    3.0002    0.0000 C   0  0  0  0  0  0  0  0  0  0  0  0
    1.3000    0.7500    0.0000 C   0  0  0  0  0  0  0  0  0  0  0  0
    6.4978    3.7504    0.0000 F   0  0  0  0  0  0  0  0  0  0  0  0
    0.0000    1.5000    0.0000 N   0  0  0  0  0  0  0  0  0  0  0  0
    1.3000   -0.7500    0.0000 N   0  0  0  0  0  0  0  0  0  0  0  0
  4  2  2  0
  5  3  1  0
  6  1  2  0
  7  1  1  0
  8  2  1  0
  8  3  2  0
  9  4  1  0
  9  5  2  0
 10  8  1  0
 11  9  1  0
 12  6  1  0
 12 10  2  0
 13  7  2  0
 13 10  1  0
M  END
>  <NAME>  (4322) 
2-(4-FLUOROPHENYL)PYRIMIDINE

>  <SYNONYMS>  (4322) 


>  <SPECTRUM TYPE>  (4322) 
MS1

>  <INSTRUMENT TYPE>  (4322) 
EI-B

>  <INSTRUMENT>  (4322) 
MS-902

>  <ION MODE>  (4322) 
P

>  <INCHIKEY>  (4322) 
OAJZNBBXWMPPNU-UHFFFAOYSA-N

>  <FORMULA>  (4322) 
C10H7FN2

>  <EXACT MASS>  (4322) 
174.059326444

>  <MW>  (4322) 
174

>  <ID>  (4322) 
JP004439

>  <CONTRIBUTOR>  (4322) 
University of Tokyo Team, {Faculty of Engineering, University of Tokyo

>  <COMMENT>  (4322) 
SMILES=Fc(c2)ccc(c2)c(n1)nccc1
InChI=InChI=1S/C10H7FN2/c11-9-4-2-8(3-5-9)10-12-6-1-7-13-10/h1-7H
computed SMILES=FC=1C=CC(=CC1)C2=NC=CC=N2
accession=JP004439
date=2016.01.19 (Created 2008.10.21, modified 2011.05.06)
author=SASAKI S, TOYOHASHI UNIV. OF TECH.
license=CC BY-NC-SA
exact mass=174.05933
ionization energy=70 eV
ion type=[M]+*
computed spectral entropy=1.8378807158937254
computed normalized entropy=0.5211834419833677
SPLASH=splash10-00di-1900000000-88c5204730acf3544677
submitter=submitter = University of Tokyo Team (Faculty of Engineering, University of Tokyo)
MoNA Rating=3.75

>  <NUM PEAKS>  (4322) 
34

>  <MASS SPECTRAL PEAKS>  (4322) 
46 0.5
50 0.6
52 2.6
53 0.11
56 0.6
57 1.6
61 0.5
63 0.05
63.5 0.6
68 1.1
74 1.4
75 0.34
76 0.7
77 3.5
79 0.5
86 0.06
87 7.1
87.5 1
94 8.3
95 0.43
96 0.7
99 0.5
102 0.6
120 0.13
121 63.6
122 8.3
123 0.7
126 0.06
146 2.2
147 7.3
148 1
173 0.96
174 99.99
175 9.1

>  <PREDICTED SPECTRUM>  (4322) 
38 21
39 27
40 17
44 46
50 108
51 156
52 157
53 81
57 61
62 17
66 2
68 101
69 15
70 76
73 50
74 65
75 190
76 15
78 41
79 12
80 3
86 10
87 0
88 4
93 63
94 209
95 193
96 50
99 10
101 32
102 45
120 124
121 522
122 441
123 63
127 46
129 3
130 45
132 54
133 39
146 161
147 383
148 163
155 16
159 62
173 332
174 999
175 348
176 58

$$$$

     RDKit          2D

 11 11  0  0  0  0  0  0  0  0999 V2000
    3.3491    0.2013    0.0000 C   0  0  0  0  0  0  0  0  0  0  0  0
   -0.0000   -1.5000    0.0000 C   0  0  0  0  0  0  0  0  0  0  0  0
   -1.3000    0.7500    0.0000 C   0  0  0  0  0  0  0  0  0  0  0  0
   -1.3000   -0.7500    0.0000 C   0  0  0  0  0  0  0  0  0  0  0  0
    1.3000    0.7500    0.0000 C   0  0  0  0  0  0  0  0  0  0  0  0
   -2.5989   -1.5002    0.0000 N   0  0  0  0  0  0  0  0  0  0  0  0
    1.3000   -0.7500    0.0000 N   0  0  0  0  0  0  0  0  0  0  0  0
    0.0000    1.5000    0.0000 N   0  0  0  0  0  0  0  0  0  0  0  0
    3.8978    2.2504    0.0000 O   0  0  0  0  0  0  0  0  0  0  0  0
    1.8487    2.7991    0.0000 O   0  0  0  0  0  0  0  0  0  0  0  0
    2.5989    1.5002    0.0000 S   0  0  0  0  0  0  0  0  0  0  0  0
  4  2  2  0
  4  3  1  0
  6  4  1  0
  7  2  1  0
  7  5  2  0
  8  3  2  0
  8  5  1  0
 11  1  1  0
 11  5  1  0
 11  9  2  0
 11 10  2  0
M  END
>  <NAME>  (4323) 
5-AMINO-2-MESYLPYRIMIDINE

>  <SYNONYMS>  (4323) 


>  <SPECTRUM TYPE>  (4323) 
MS1

>  <INSTRUMENT TYPE>  (4323) 
EI-B

>  <INSTRUMENT>  (4323) 
MS-902

>  <ION MODE>  (4323) 
P

>  <INCHIKEY>  (4323) 
ZELVQVPQIRFOQU-UHFFFAOYSA-N

>  <FORMULA>  (4323) 
C5H7N3O2S

>  <EXACT MASS>  (4323) 
173.025897464

>  <MW>  (4323) 
173

>  <ID>  (4323) 
JP004438

>  <CONTRIBUTOR>  (4323) 
University of Tokyo Team, {Faculty of Engineering, University of Tokyo

>  <COMMENT>  (4323) 
SMILES=Nc(c1)cnc(n1)S(C)(=O)=O
InChI=InChI=1S/C5H7N3O2S/c1-11(9,10)5-7-2-4(6)3-8-5/h2-3H,6H2,1H3
computed SMILES=O=S(=O)(C1=NC=C(N)C=N1)C
accession=JP004438
date=2016.01.19 (Created 2008.10.21, modified 2011.05.06)
author=SASAKI S, TOYOHASHI UNIV. OF TECH.
license=CC BY-NC-SA
exact mass=173.0259
ionization energy=70 eV
ion type=[M]+*
computed spectral entropy=2.9142280072467477
computed normalized entropy=0.6399443982822492
SPLASH=splash10-03xr-9400000000-349419601683188df522
submitter=submitter = University of Tokyo Team (Faculty of Engineering, University of Tokyo)
MoNA Rating=3.75

>  <NUM PEAKS>  (4323) 
95

>  <MASS SPECTRAL PEAKS>  (4323) 
36 1.8
38 2.9
39 10
40 4.69
41 32.7
42 8.1
43 7
44 0.19
45 5.7
46 2.1
47 1.6
48 0.3
49 0.3
50 0.3
51 1.1
52 0.43
53 7.6
54 2.8
55 14.9
56 0.55
57 1.5
58 0.2
59 0.4
60 0.08
62 0.2
63 5.7
64 10.4
65 0.21
66 17.1
67 99.99
68 8
69 0.21
70 0.7
71 0.9
72 0.6
73 0.03
74 0.5
75 0.6
76 0.3
77 0.09
78 0.2
79 5.3
80 0.9
81 0.13
82 21.4
83 49
84 2.8
85 0.05
87 0.4
90 0.2
91 0.2
93 0.08
94 54.1
95 6.3
96 0.8
97 0.05
98 0.3
99 0.5
102 0.4
103 0.04
104 0.6
106 0.6
108 1.1
109 0.4
110 86.7
111 94.9
112 6.1
113 0.05
115 1.4
120 0.2
122 0.5
123 0.02
124 1
125 0.4
126 0.5
136 0.02
137 0.2
138 0.2
139 2
141 0.4
142 1
143 0.03
145 0.3
149 0.18
150 0.2
152 0.2
153 0.3
158 0.33
159 0.2
160 0.2
167 0.4
173 5.92
174 6.7
175 3.7
176 0.4

>  <PREDICTED SPECTRUM>  (4323) 
14 12
15 52
16 14
25 36
26 125
27 144
28 41
29 101
30 7
31 64
32 25
33 43
34 23
35 7
36 17
37 87
38 208
39 224
40 227
41 242
42 260
43 206
44 273
45 277
46 182
47 170
48 230
49 159
50 196
51 295
52 328
53 412
54 402
55 273
56 211
57 144
58 28
59 4
60 38
61 68
62 79
63 322
64 325
65 275
66 427
67 436
68 328
69 279
70 285
71 99
72 3
77 4
79 413
80 47
81 279
82 467
83 321
84 196
85 74
92 67
93 191
94 810
95 433
96 331
97 41
98 46
103 5
104 2
108 110
109 158
110 533
111 276
112 105
120 41
121 72
122 28
124 67
128 150
129 74
130 34
142 227
143 88
144 116
145 56
146 109
147 4
157 107
158 590
159 169
160 130
172 40
173 999
174 285
175 306
176 48

$$$$

     RDKit          2D

 10 10  0  0  0  0  0  0  0  0999 V2000
   -2.5989   -1.5002    0.0000 C   0  0  0  0  0  0  0  0  0  0  0  0
    1.3000    0.7500    0.0000 C   0  0  0  0  0  0  0  0  0  0  0  0
   -1.3000   -0.7500    0.0000 C   0  0  0  0  0  0  0  0  0  0  0  0
   -1.3000    0.7500    0.0000 C   0  0  0  0  0  0  0  0  0  0  0  0
   -0.0000   -1.5000    0.0000 C   0  0  0  0  0  0  0  0  0  0  0  0
   -2.5989    1.5002    0.0000 Cl  0  0  0  0  0  0  0  0  0  0  0  0
   -0.0000   -3.0000    0.0000 Cl  0  0  0  0  0  0  0  0  0  0  0  0
   -3.8978   -2.2504    0.0000 N   0  0  0  0  0  0  0  0  0  0  0  0
    0.0000    1.5000    0.0000 N   0  0  0  0  0  0  0  0  0  0  0  0
    1.3000   -0.7500    0.0000 N   0  0  0  0  0  0  0  0  0  0  0  0
  3  1  1  0
  4  3  2  0
  5  3  1  0
  6  4  1  0
  7  5  1  0
  8  1  3  0
  9  2  2  0
  9  4  1  0
 10  2  1  0
 10  5  2  0
M  END
>  <NAME>  (4324) 
4,6-DICHLORO-5-CYANOPYRIMIDINE

>  <SYNONYMS>  (4324) 


>  <SPECTRUM TYPE>  (4324) 
MS1

>  <INSTRUMENT TYPE>  (4324) 
EI-B

>  <INSTRUMENT>  (4324) 
MS-902

>  <ION MODE>  (4324) 
P

>  <INCHIKEY>  (4324) 
IPEBKIMUIHKZJP-UHFFFAOYSA-N

>  <FORMULA>  (4324) 
C5HCl2N3

>  <EXACT MASS>  (4324) 
172.954752392

>  <MW>  (4324) 
173

>  <ID>  (4324) 
JP004437

>  <CONTRIBUTOR>  (4324) 
University of Tokyo Team, {Faculty of Engineering, University of Tokyo

>  <COMMENT>  (4324) 
SMILES=N#Cc(c(Cl)1)c(Cl)ncn1
InChI=InChI=1S/C5HCl2N3/c6-4-3(1-8)5(7)10-2-9-4/h2H
computed SMILES=N#CC=1C(Cl)=NC=NC1Cl
accession=JP004437
date=2016.01.19 (Created 2008.10.21, modified 2011.05.06)
author=SASAKI S, TOYOHASHI UNIV. OF TECH.
license=CC BY-NC-SA
exact mass=172.95475
ionization energy=70 eV
ion type=[M]+*
computed spectral entropy=2.604341495217586
computed normalized entropy=0.6335250317249308
SPLASH=splash10-00b9-5900000000-6f8d1e5bf2d5f8385ea6
submitter=submitter = University of Tokyo Team (Faculty of Engineering, University of Tokyo)
MoNA Rating=3.75

>  <NUM PEAKS>  (4324) 
61

>  <MASS SPECTRAL PEAKS>  (4324) 
39 1.7
40 0.3
41 0.3
42 0.07
44 1.5
47 6.1
48 1.1
49 0.18
50 7.4
51 4.5
52 1.5
53 0.06
56 1.5
57 0.5
59 0.7
61 0.15
62 2.9
63 0.5
64 0.9
67 0.07
71 0.5
72 0.6
73 3.8
74 0.19
75 0.5
76 29.9
77 52.6
78 0.24
79 0.3
85 23.7
86 1.3
87 0.86
88 0.5
89 0.4
94 0.9
95 0.05
102 0.7
104 0.3
105 0.2
106 0.03
107 0.3
111 20.7
112 5.7
113 0.66
114 1.7
123 0.6
124 1.2
138 6.71
139 4.9
140 22.9
141 1.3
142 0.03
153 1
154 0.1
155 0.4
173 99.99
174 7.7
175 65.7
176 5
177 1.14
178 0.7

>  <PREDICTED SPECTRUM>  (4324) 
25 35
26 38
31 16
32 33
33 28
34 35
35 213
36 198
37 165
38 320
39 41
40 139
41 47
44 87
46 36
47 318
48 225
49 357
50 558
51 436
52 290
53 179
54 63
55 47
56 166
57 84
58 45
59 0
60 131
61 19
62 432
63 121
64 326
65 74
66 107
67 116
68 101
69 47
70 152
71 71
73 40
74 74
75 258
76 440
77 295
78 130
79 30
82 28
83 76
84 351
85 435
86 364
87 242
88 111
89 0
96 58
100 154
102 179
103 19
104 62
109 17
111 287
112 253
113 194
114 76
119 117
121 1
122 10
138 862
139 214
140 546
141 119
145 7
146 43
148 10
149 3
173 999
174 243
175 790
176 192
177 331
178 65

$$$$

     RDKit          2D

 12 12  0  0  0  0  0  0  0  0999 V2000
   -2.5989   -0.3306    0.0000 C   0  0  0  0  0  0  0  0  0  0  0  0
   -0.0006   -1.8302    0.0000 C   0  0  0  0  0  0  0  0  0  0  0  0
   -1.3000    0.4196    0.0000 C   0  0  0  0  0  0  0  0  0  0  0  0
    1.2981    1.9200    0.0000 C   0  0  0  0  0  0  0  0  0  0  0  0
   -0.0008   -0.3302    0.0000 C   0  0  0  0  0  0  0  0  0  0  0  0
    1.2981    0.4200    0.0000 C   0  0  0  0  0  0  0  0  0  0  0  0
    2.5981   -0.3300    0.0000 C   0  0  0  0  0  0  0  0  0  0  0  0
    3.8981    1.9200    0.0000 C   0  0  0  0  0  0  0  0  0  0  0  0
    2.5981    2.6700    0.0000 N   0  0  0  0  0  0  0  0  0  0  0  0
    3.8981    0.4200    0.0000 N   0  0  0  0  0  0  0  0  0  0  0  0
    2.5981   -1.8300    0.0000 O   0  0  0  0  0  0  0  0  0  0  0  0
    5.1970    2.6702    0.0000 O   0  0  0  0  0  0  0  0  0  0  0  0
  3  1  1  0
  5  2  1  0
  5  3  1  0
  6  4  2  0
  6  5  1  0
  7  6  1  0
  9  4  1  0
  9  8  2  0
 10  7  2  0
 10  8  1  0
 11  7  1  0
 12  8  1  0
M  END
>  <NAME>  (4325) 
5-SEC-BUTYL-1,2,3,4-TETRAHYDROPYRIMIDINE-2,4-DIONE

>  <SYNONYMS>  (4325) 
5-SEC-BUTYLURACIL

>  <SPECTRUM TYPE>  (4325) 
MS1

>  <INSTRUMENT TYPE>  (4325) 
EI-B

>  <INSTRUMENT>  (4325) 
MS-902

>  <ION MODE>  (4325) 
P

>  <INCHIKEY>  (4325) 
WJJQDMCCKSOEST-UHFFFAOYSA-N

>  <FORMULA>  (4325) 
C8H12N2O2

>  <EXACT MASS>  (4325) 
168.089877624

>  <MW>  (4325) 
168

>  <ID>  (4325) 
JP004436

>  <CONTRIBUTOR>  (4325) 
University of Tokyo Team, {Faculty of Engineering, University of Tokyo

>  <COMMENT>  (4325) 
SMILES=CCC(C)C(=C1)C(=O)NC(=O)N1
InChI=InChI=1S/C8H12N2O2/c1-3-5(2)6-4-9-8(12)10-7(6)11/h4-5H,3H2,1-2H3,(H2,9,10,11,12)
computed SMILES=OC1=NC=C(C(O)=N1)C(C)CC
accession=JP004436
date=2016.01.19 (Created 2008.10.21, modified 2011.05.06)
author=SASAKI S, TOYOHASHI UNIV. OF TECH.
license=CC BY-NC-SA
exact mass=168.08988
ionization energy=70 eV
ion type=[M]+*
computed spectral entropy=2.6503114656779254
computed normalized entropy=0.6238235692125871
SPLASH=splash10-000j-9800000000-18dcfe704b4313881d40
submitter=submitter = University of Tokyo Team (Faculty of Engineering, University of Tokyo)
MoNA Rating=3.75

>  <NUM PEAKS>  (4325) 
70

>  <MASS SPECTRAL PEAKS>  (4325) 
36 2.1
37 0.6
38 1.6
39 1.56
40 3.5
41 20.2
42 4.1
43 0.11
44 3.6
50 1
51 2
52 0.25
53 7.1
54 8.7
55 3
56 0.08
57 0.3
62 0.2
63 0.4
64 0.03
65 1.6
66 1.9
67 5.8
68 1.47
69 5.4
70 1.8
71 0.5
76 0.04
76.5 0.8
77 0.8
78 1.1
79 0.07
80 3.4
81 3.1
82 7.3
83 0.06
84 0.3
92 0.4
93 0.2
94 0.05
95 0.6
96 58.2
97 3.6
98 0.03
108 0.4
109 0.3
110 6.7
111 0.06
112 0.3
113 0.7
114 0.3
122 0.02
123 0.6
124 0.5
125 3.8
126 0.35
127 0.2
137 0.2
138 0.5
139 99.99
140 10
141 0.8
151 0.5
152 0.02
153 9.8
158 0.8
167 0.7
168 1.88
169 1.9
170 0.2

>  <PREDICTED SPECTRUM>  (4325) 
17 3
18 13
27 95
28 104
29 110
30 33
38 63
39 328
40 187
41 543
42 350
43 352
44 141
50 43
51 211
52 255
53 370
54 301
55 374
56 222
57 299
66 55
67 347
68 328
69 341
70 414
71 167
72 70
78 16
82 91
83 246
84 457
85 125
93 57
95 82
96 14
97 65
98 312
99 27
108 15
109 34
110 160
111 450
112 517
113 229
121 45
122 59
123 117
124 100
125 206
126 294
135 194
138 12
139 590
140 886
141 243
153 425
154 97
167 222
168 999
169 369
170 2

$$$$

     RDKit          2D

 13 15  0  0  0  0  0  0  0  0999 V2000
    2.3500   -2.0300    0.0000 C   0  0  0  0  0  0  0  0  0  0  0  0
    1.6700   -0.7000    0.0000 C   0  0  0  0  0  0  0  0  0  0  0  0
   -0.9400    2.4100    0.0000 C   0  0  0  0  0  0  0  0  0  0  0  0
   -2.2300    1.6600    0.0000 C   0  0  0  0  0  0  0  0  0  0  0  0
   -0.5200   -2.0400    0.0000 C   0  0  0  0  0  0  0  0  0  0  0  0
    1.0500   -1.2800    0.0000 C   0  0  0  0  0  0  0  0  0  0  0  0
    0.3600    0.0700    0.0000 C   0  0  0  0  0  0  0  0  0  0  0  0
    0.3600    1.6600    0.0000 C   0  0  0  0  0  0  0  0  0  0  0  0
   -0.9400   -0.5900    0.0000 C   0  0  0  0  0  0  0  0  0  0  0  0
   -2.2300    0.1600    0.0000 C   0  0  0  0  0  0  0  0  0  0  0  0
    1.0500    0.7100    0.0000 C   0  0  0  0  0  0  0  0  0  0  0  0
   -3.5302   -0.5880    0.0000 O   0  0  0  0  0  0  0  0  0  0  0  0
    2.4766    1.1734    0.0000 O   0  0  0  0  0  0  0  0  0  0  0  0
  2  1  1  0
  4  3  1  0
  6  1  1  0
  6  5  1  0
  7  2  1  0
  8  3  1  0
  8  7  1  0
  9  5  1  0
  9  7  1  0
 10  4  1  0
 10  9  1  0
 11  6  1  0
 11  8  1  0
 12 10  2  0
 13 11  2  0
M  END
>  <NAME>  (4326) 
TRICYCLO(5,3,1,0(3,8))UNDECANE-4,11-DIONE

>  <SYNONYMS>  (4326) 


>  <SPECTRUM TYPE>  (4326) 
MS1

>  <INSTRUMENT TYPE>  (4326) 
EI-B

>  <INSTRUMENT>  (4326) 
JEOL JMS-DX-300

>  <ION MODE>  (4326) 
P

>  <INCHIKEY>  (4326) 
KXAJCRZRVFLWNW-UHFFFAOYSA-N

>  <FORMULA>  (4326) 
C11H14O2

>  <EXACT MASS>  (4326) 
178.099379688

>  <MW>  (4326) 
178

>  <ID>  (4326) 
JP004381

>  <CONTRIBUTOR>  (4326) 
University of Tokyo Team, {Faculty of Engineering, University of Tokyo

>  <COMMENT>  (4326) 
SMILES=O=C(C3)C(C1)C(C2)C(C3)C(=O)C(C2)1
InChI=InChI=1S/C11H14O2/c12-10-4-3-8-7-2-1-6(11(8)13)5-9(7)10/h6-9H,1-5H2
computed SMILES=O=C1CCC2C(=O)C3CCC2C1C3
accession=JP004381
date=2016.01.19 (Created 2008.10.21, modified 2011.05.06)
author=HAGIWARA H, CHEM. RES. INST. OF NON-AQUEOUS SOLUTIONS, TOHOKU UNIV.
license=CC BY-NC-SA
exact mass=178.09938
ionization energy=70 eV
ion type=[M]+*
computed spectral entropy=3.5847172986882345
computed normalized entropy=0.8866366170538821
SPLASH=splash10-0059-9600000000-a14901b416bedf63cfe4
submitter=submitter = University of Tokyo Team (Faculty of Engineering, University of Tokyo)
MoNA Rating=3.75

>  <NUM PEAKS>  (4326) 
57

>  <MASS SPECTRAL PEAKS>  (4326) 
39 29.86
41 26.72
42 3.03
50 2.19
51 7.6
52 4.92
53 17.91
54 9.43
55 50.83
63 2.17
65 9.41
66 15.11
67 26.34
68 12.09
69 2.02
77 20.12
78 15.77
79 57.07
80 46.15
81 33.64
82 10.9
83 5.04
84 2.32
91 2.01
92 7.7
93 24.23
94 20.66
95 27.87
96 44.08
99 8.48
100 9.06
104 0.73
105 7.21
106 6.6
107 19.32
108 14.43
109 5.95
110 3.28
113 10.31
118 6.66
119 3.2
121 10.98
122 42.12
123 7.23
124 23.51
131 4.83
132 3.3
133 3.02
135 6.03
136 15.68
137 3.52
149 8.49
150 48.49
151 5.56
164 2.69
178 99.99
179 14.17

>  <PREDICTED SPECTRUM>  (4326) 
26 57
27 189
28 24
29 29
38 37
39 343
40 163
41 461
42 131
43 124
44 67
50 145
51 307
52 282
53 454
54 435
55 482
56 143
57 82
62 54
63 148
64 72
65 360
66 422
67 580
68 462
69 253
70 94
71 75
75 20
76 21
77 405
78 403
79 849
80 520
81 612
82 225
83 279
84 132
85 65
86 16
90 12
91 421
92 395
93 401
94 354
95 589
96 541
97 194
98 163
99 30
100 128
103 75
104 164
105 269
106 251
107 434
108 386
109 232
110 117
111 46
116 20
117 140
118 144
119 120
120 102
121 403
122 467
123 245
124 242
125 36
131 98
132 120
133 141
134 208
135 248
136 239
137 79
145 15
149 172
150 614
151 202
159 38
160 115
161 80
163 100
164 17
177 82
178 999
179 374
180 80

$$$$

     RDKit          2D

 25 27  0  0  1  0  0  0  0  0999 V2000
    4.3587    4.4502    0.0000 C   0  0  0  0  0  0  0  0  0  0  0  0
    5.6581    2.2004    0.0000 C   0  0  0  0  0  0  0  0  0  0  0  0
   -3.0941   -3.4492    0.0000 C   0  0  0  0  0  0  0  0  0  0  0  0
   -1.1659   -3.4492    0.0000 C   0  0  0  0  0  0  0  0  0  0  0  0
   -3.4381    5.9456    0.0000 C   0  0  0  0  0  0  0  0  0  0  0  0
   -3.4300   -0.0500    0.0000 C   0  0  0  0  0  0  0  0  0  0  0  0
    1.7600   -1.5500    0.0000 C   0  0  0  0  0  0  0  0  0  0  0  0
    0.4600   -2.3000    0.0000 C   0  0  0  0  0  0  0  0  0  0  0  0
   -3.4300   -1.5500    0.0000 C   0  0  0  0  0  0  0  0  0  0  0  0
   -2.1300    0.7000    0.0000 C   0  0  0  0  0  0  0  0  0  0  0  0
    3.0600    0.7000    0.0000 C   0  0  0  0  0  0  0  0  0  0  0  0
    0.4600    2.2000    0.0000 C   0  0  0  0  0  0  0  0  0  0  0  0
   -0.8325    1.4500    0.0000 C   0  0  0  0  0  0  0  0  0  0  0  0
   -2.1353    3.6978    0.0000 C   0  0  0  0  0  0  0  0  0  0  0  0
    4.3589    2.9502    0.0000 C   0  0  0  0  0  0  0  0  0  0  0  0
    1.7600   -0.0500    0.0000 C   0  0  0  0  0  0  0  0  0  0  0  0
    3.0600    2.2000    0.0000 C   0  0  0  0  0  0  0  0  0  0  0  0
    0.4600    0.7000    0.0000 C   0  0  0  0  0  0  0  0  0  0  0  0
    1.7600    2.9500    0.0000 C   0  0  0  0  0  0  0  0  0  0  0  0
   -0.8300   -1.5500    0.0000 C   0  0  0  0  0  0  0  0  0  0  0  0
   -2.1300   -2.3000    0.0000 C   0  0  0  0  0  0  0  0  0  0  0  0
   -0.8300   -0.0500    0.0000 C   0  0  0  0  0  0  0  0  0  0  0  0
    1.7600    4.4500    0.0000 O   0  0  0  0  0  0  0  0  0  0  0  0
   -3.4356    4.4456    0.0000 O   0  0  0  0  0  0  0  0  0  0  0  0
   -2.1328    2.1978    0.0000 O   0  0  0  0  0  0  0  0  0  0  0  0
  8  7  1  0
  9  6  1  0
 10  6  1  0
 15  1  1  0
 15  2  1  0
 16  7  1  0
 16 11  2  0
 17 11  1  0
 17 15  1  0
 18 12  2  0
 18 16  1  0
 19 12  1  0
 19 17  2  0
 20  8  1  1
 21  3  1  0
 21  4  1  0
 21  9  1  0
 21 20  1  0
 22 10  1  0
 22 13  1  1
 22 18  1  0
 22 20  1  0
 23 19  1  0
 24  5  1  0
 24 14  1  0
 25 13  1  0
 25 14  1  0
M  END
>  <NAME>  (4327) 
(4BR,8AS)-(+)-4B,5,6,7,8,8A,9,10-OCTAHYDRO-2-ISOPROPYL-4B-((METHOXYMETHOXY)METHYL)-8,8-DIMETHYLPHENANTHREN-3-OL

>  <SYNONYMS>  (4327) 
PISIFEROL (METHOXYMETHOXY)METHYL ETHRE

>  <SPECTRUM TYPE>  (4327) 
MS1

>  <INSTRUMENT TYPE>  (4327) 
EI-B

>  <INSTRUMENT>  (4327) 
JEOL JMS-DX-300

>  <ION MODE>  (4327) 
P

>  <INCHIKEY>  (4327) 
MODQAVGXDPNSOD-UNMCSNQZSA-N

>  <FORMULA>  (4327) 
C22H34O3

>  <EXACT MASS>  (4327) 
346.25079494799996

>  <MW>  (4327) 
346

>  <ID>  (4327) 
JP004380

>  <CONTRIBUTOR>  (4327) 
University of Tokyo Team, {Faculty of Engineering, University of Tokyo

>  <COMMENT>  (4327) 
SMILES=COCOCC(C1)(c32)C([H])(CCc(cc(C(C)C)c(O)c3)2)C(C)(C)CC1
InChI=InChI=1S/C22H34O3/c1-15(2)17-11-16-7-8-20-21(3,4)9-6-10-22(20,13-25-14-24-5)18(16)12-19(17)23/h11-12,15,20,23H,6-10,13-14H2,1-5H3/t20-,22-/m0/s1
computed SMILES=OC1=CC2=C(C=C1C(C)C)CCC3C2(COCOC)CCCC3(C)C
accession=JP004380
date=2016.01.19 (Created 2008.10.21, modified 2011.05.06)
author=HAGIWARA H, CHEM. RES. INST. OF NON-AQUEOUS SOLUTIONS, TOHOKU UNIV.
license=CC BY-NC-SA
exact mass=346.25079
ionization energy=70 eV
ion type=[M]+*
computed spectral entropy=3.654380794515722
computed normalized entropy=0.849053328743969
SPLASH=splash10-00fv-9740000000-f76634bdf93fd12fe279
submitter=submitter = University of Tokyo Team (Faculty of Engineering, University of Tokyo)
MoNA Rating=3.75

>  <NUM PEAKS>  (4327) 
74

>  <MASS SPECTRAL PEAKS>  (4327) 
28 51.17
29 9.5
32 11.07
39 3.19
41 31.67
43 29.03
45 76.87
53 3.38
55 16.39
57 2.58
67 3.6
69 57.64
70 3.45
77 3.75
79 2.92
81 2.84
83 7
91 5.85
95 3.38
97 3.57
105 3.13
107 3.5
115 7.26
117 2.84
127 3.76
128 6.74
129 5.74
131 4.48
133 8.69
141 6.83
142 3.07
143 2.88
144 4.36
145 10.22
147 6.24
149 5.43
152 3.11
153 4.33
155 3.96
157 8.82
158 3.94
159 9.76
161 3.97
163 4.23
165 3.59
169 2.92
171 7.59
172 3.35
173 11.92
175 34.91
176 5.23
183 2.73
185 7.2
186 3.29
187 13.49
188 2.94
189 32.71
190 5.31
199 9.81
201 2.52
202 7.46
203 5.48
211 2.41
213 4.56
215 8.83
227 4.06
229 10.36
241 3.12
269 5.71
271 99.99
272 21.16
273 2.79
346 11.09
347 2.43

>  <PREDICTED SPECTRUM>  (4327) 
18 16
27 8
28 20
29 102
31 32
32 25
33 26
39 129
40 36
41 371
42 107
43 513
44 62
45 307
51 27
53 76
55 231
56 53
57 109
58 25
59 107
60 1
65 70
67 137
69 311
71 95
73 63
74 8
77 85
78 10
79 82
81 151
83 127
85 31
86 11
87 10
91 231
93 82
95 158
97 32
103 70
105 123
107 98
109 98
111 0
115 180
116 12
117 55
121 96
123 59
127 9
128 137
129 117
130 17
131 136
132 22
133 93
135 88
139 2
141 127
142 56
143 47
144 79
145 159
146 46
147 288
148 24
149 82
153 68
155 71
157 168
158 123
159 235
160 58
161 99
162 22
163 83
165 174
169 54
170 22
171 131
172 58
173 238
174 122
175 526
176 187
177 56
185 72
186 127
187 207
188 94
189 586
190 87
191 2
199 182
200 94
201 259
202 170
203 152
205 73
213 112
214 50
215 217
216 8
217 37
219 0
227 95
228 43
229 239
230 19
231 40
240 52
241 177
242 29
243 108
245 10
255 74
256 98
257 210
258 16
269 35
270 53
271 999
272 430
273 189
274 27
346 172
347 97

$$$$

     RDKit          2D

 12 12  0  0  0  0  0  0  0  0999 V2000
    6.1679   -1.6943    0.0000 C   0  0  0  0  0  0  0  0  0  0  0  0
   -0.3233   -3.9365    0.0000 C   0  0  0  0  0  0  0  0  0  0  0  0
    0.9713   -3.1943    0.0000 C   0  0  0  0  0  0  0  0  0  0  0  0
   -1.6223   -3.1865    0.0000 C   0  0  0  0  0  0  0  0  0  0  0  0
    3.5698   -1.6939    0.0000 C   0  0  0  0  0  0  0  0  0  0  0  0
    2.2709   -0.9437    0.0000 C   0  0  0  0  0  0  0  0  0  0  0  0
   -0.3273   -0.9434    0.0000 C   0  0  0  0  0  0  0  0  0  0  0  0
    4.8690   -0.9441    0.0000 C   0  0  0  0  0  0  0  0  0  0  0  0
    0.9717   -1.6934    0.0000 C   0  0  0  0  0  0  0  0  0  0  0  0
   -1.6268   -1.6943    0.0000 C   0  0  0  0  0  0  0  0  0  0  0  0
    4.8692    0.5559    0.0000 O   0  0  0  0  0  0  0  0  0  0  0  0
   -2.9271   -0.9465    0.0000 O   0  0  0  0  0  0  0  0  0  0  0  0
  3  2  1  0
  4  2  1  0
  6  5  1  0
  8  1  1  0
  8  5  1  0
  9  3  1  0
  9  6  1  0
  9  7  2  0
 10  4  1  0
 10  7  1  0
 11  8  2  0
 12 10  2  0
M  END
>  <NAME>  (4328) 
3-(3-OXOBUTYL)CYCLOHEX-2-EN-1-ONE

>  <SYNONYMS>  (4328) 
3-(3-OXOBUTYL)-2-CYCLOHEXENONE

>  <SPECTRUM TYPE>  (4328) 
MS1

>  <INSTRUMENT TYPE>  (4328) 
EI-B

>  <INSTRUMENT>  (4328) 
JEOL JMS-DX-300

>  <ION MODE>  (4328) 
P

>  <INCHIKEY>  (4328) 
ZBCMIYJESBJOQT-UHFFFAOYSA-N

>  <FORMULA>  (4328) 
C10H14O2

>  <EXACT MASS>  (4328) 
166.099379688

>  <MW>  (4328) 
166

>  <ID>  (4328) 
JP004379

>  <CONTRIBUTOR>  (4328) 
University of Tokyo Team, {Faculty of Engineering, University of Tokyo

>  <COMMENT>  (4328) 
SMILES=CC(=O)CCC(C1)=CC(=O)CC1
InChI=InChI=1S/C10H14O2/c1-8(11)5-6-9-3-2-4-10(12)7-9/h7H,2-6H2,1H3
computed SMILES=O=C1C=C(CCC(=O)C)CCC1
accession=JP004379
date=2016.01.19 (Created 2008.10.21, modified 2011.05.06)
author=HAGIWARA H, CHEM. RES. INST. OF NON-AQUEOUS SOLUTIONS, TOHOKU UNIV.
license=CC BY-NC-SA
exact mass=166.09938
ionization energy=70 eV
ion type=[M]+*
computed spectral entropy=2.882632456809686
computed normalized entropy=0.874628379378623
SPLASH=splash10-00kf-9200000000-437493a2288e41dac048
submitter=submitter = University of Tokyo Team (Faculty of Engineering, University of Tokyo)
MoNA Rating=3.75

>  <NUM PEAKS>  (4328) 
27

>  <MASS SPECTRAL PEAKS>  (4328) 
14 5.7
15 11.45
17 36.77
18 26.64
27 19.09
32 5.87
39 31.19
41 25.58
42 5.09
43 99.99
51 6.17
53 1.14
55 12.54
65 7.51
66 6.3
67 21.83
77 6.95
79 10.17
81 7.83
95 47.84
96 5.99
106 17.66
108 25.53
109 6.65
110 8.57
123 48.75
124 8.85

>  <PREDICTED SPECTRUM>  (4328) 
14 20
15 19
25 9
26 63
27 222
28 81
29 111
37 49
38 127
39 385
40 191
41 371
42 94
43 999
44 132
45 39
50 153
51 267
52 229
53 391
54 169
55 225
56 14
57 60
58 99
62 62
63 132
64 46
65 262
66 242
67 476
68 236
69 146
70 14
71 90
72 60
75 5
77 336
78 204
79 303
80 198
81 303
82 68
91 159
92 33
93 237
94 162
95 734
96 261
97 1
105 121
106 180
107 72
108 565
109 280
110 130
120 6
121 92
122 105
123 744
124 306
133 34
138 12
148 105
149 24
151 52
166 249
167 58

$$$$

     RDKit          2D

 20 22  0  0  0  0  0  0  0  0999 V2000
    2.8948   -3.0534    0.0000 C   0  0  0  0  0  0  0  0  0  0  0  0
   -7.3301   -3.4845    0.0000 C   0  0  0  0  0  0  0  0  0  0  0  0
   -0.8285    2.8376    0.0000 C   0  0  0  0  0  0  0  0  0  0  0  0
    2.0560   -1.8098    0.0000 C   0  0  0  0  0  0  0  0  0  0  0  0
   -0.0905   -0.9619    0.0000 C   0  0  0  0  0  0  0  0  0  0  0  0
   -5.3993   -1.7460    0.0000 C   0  0  0  0  0  0  0  0  0  0  0  0
   -0.1054    0.8217    0.0000 C   0  0  0  0  0  0  0  0  0  0  0  0
   -1.7914   -1.4989    0.0000 C   0  0  0  0  0  0  0  0  0  0  0  0
   -3.9321   -1.4342    0.0000 C   0  0  0  0  0  0  0  0  0  0  0  0
   -4.3503    1.2059    0.0000 C   0  0  0  0  0  0  0  0  0  0  0  0
   -5.8628   -3.1726    0.0000 C   0  0  0  0  0  0  0  0  0  0  0  0
   -3.4686    2.4195    0.0000 C   0  0  0  0  0  0  0  0  0  0  0  0
   -0.2346    2.1076    0.0000 C   0  0  0  0  0  0  0  0  0  0  0  0
   -2.0420    1.9559    0.0000 C   0  0  0  0  0  0  0  0  0  0  0  0
   -3.4686   -0.0076    0.0000 C   0  0  0  0  0  0  0  0  0  0  0  0
   -2.0420    0.4559    0.0000 C   0  0  0  0  0  0  0  0  0  0  0  0
   -4.8591   -4.2873    0.0000 O   0  0  0  0  0  0  0  0  0  0  0  0
    1.2578    1.9562    0.0000 O   0  0  0  0  0  0  0  0  0  0  0  0
   -1.3393    3.6281    0.0000 O   0  0  0  0  0  0  0  0  0  0  0  0
   -0.3980   -1.9814    0.0000 S   0  0  0  0  0  0  0  0  0  0  0  0
  4  1  1  0
  7  5  1  0
  8  5  1  0
  9  6  1  0
 11  2  1  0
 11  6  1  0
 12 10  1  0
 14  3  1  0
 14  7  1  0
 14 12  1  0
 15  8  1  0
 15  9  1  0
 15 10  1  0
 16 13  1  0
 16 14  1  0
 16 15  1  0
 17 11  2  0
 18 13  2  0
 19 12  1  0
 19 13  1  0
 20  4  1  0
 20 16  1  0
M  END
>  <NAME>  (4329) 
4-ETHYLTHIO-5-METHYL-9-(3-OXOBUTYL)-2-OXATRICYCLO(4.4.0.0(4,9))DECAN-3-ONE

>  <SYNONYMS>  (4329) 


>  <SPECTRUM TYPE>  (4329) 
MS1

>  <INSTRUMENT TYPE>  (4329) 
EI-B

>  <INSTRUMENT>  (4329) 
JEOL JMS-DX-300

>  <ION MODE>  (4329) 
P

>  <INCHIKEY>  (4329) 
QZBZPQKRMKDJFR-UHFFFAOYSA-N

>  <FORMULA>  (4329) 
C16H24O3S

>  <EXACT MASS>  (4329) 
296.144615628

>  <MW>  (4329) 
296

>  <ID>  (4329) 
JP004378

>  <CONTRIBUTOR>  (4329) 
University of Tokyo Team, {Faculty of Engineering, University of Tokyo

>  <COMMENT>  (4329) 
SMILES=CC(=O)CCC(C3)(C1)C(SCC)(C(=O)2)C(C)(CC3)C(O2)1
InChI=InChI=1S/C16H24O3S/c1-4-20-16-13(18)19-12-10-15(16,9-6-11(2)17)8-5-7-14(12,16)3/h12H,4-10H2,1-3H3
computed SMILES=O=C1OC2CC3(CCC(=O)C)CCCC2(C)C13SCC
accession=JP004378
date=2016.01.19 (Created 2008.10.21, modified 2011.05.06)
author=HAGIWARA H, CHEM. RES. INST. OF NON-AQUEOUS SOLUTIONS, TOHOKU UNIV.
license=CC BY-NC-SA
exact mass=296.14462
ionization energy=70 eV
ion type=[M]+*
computed spectral entropy=3.454000428873299
computed normalized entropy=0.8875025474711982
SPLASH=splash10-0007-3920000000-17407bd3460d3651d841
submitter=submitter = University of Tokyo Team (Faculty of Engineering, University of Tokyo)
MoNA Rating=3.75

>  <NUM PEAKS>  (4329) 
49

>  <MASS SPECTRAL PEAKS>  (4329) 
59 8.04
65 5.24
71 8.04
72 6.72
77 10.34
79 19.48
80 5.19
91 32.62
92 99.99
93 22.32
99 5.58
100 6.22
101 21.14
102 14.24
103 5.31
105 19.44
106 5.33
107 15.32
108 6.09
117 35.59
118 6.22
119 17.28
128 39.37
129 22.16
130 9.12
131 17.34
132 63.55
133 17.42
137 8.47
146 49.21
147 11.38
148 6.54
149 10.21
150 34.49
151 7.9
159 5.16
163 6.41
165 7.92
175 5.01
176 0.54
177 22.43
191 6.72
221 6.63
223 5.09
239 5.49
249 6.65
296 78.34
297 17.03
298 5.86

>  <PREDICTED SPECTRUM>  (4329) 
17 4
18 12
26 11
27 95
28 43
29 56
34 8
39 109
40 27
41 139
42 36
43 173
44 47
45 89
46 40
47 121
48 4
51 66
53 119
55 134
56 27
57 48
58 105
59 187
60 80
61 66
62 14
63 92
64 104
65 168
66 53
67 117
68 17
69 38
70 34
71 85
72 88
73 105
74 27
75 74
76 12
77 331
78 146
79 210
80 65
81 146
82 46
83 75
84 44
85 2
86 52
87 59
88 59
89 81
90 78
91 465
92 330
93 288
94 101
95 42
96 30
97 6
98 51
99 113
100 136
101 170
102 205
103 217
104 247
105 456
106 387
107 274
108 115
109 173
110 44
112 36
113 72
114 3
115 137
116 165
117 363
118 345
119 521
120 207
121 178
122 69
123 110
125 4
126 37
127 168
128 430
129 499
130 368
131 390
132 859
133 598
134 334
135 214
136 99
137 151
138 60
142 60
143 38
145 248
146 661
147 453
148 306
149 264
150 516
151 402
152 103
153 24
159 127
160 38
161 69
163 188
164 92
165 99
166 15
167 82
169 16
170 18
173 12
174 100
175 149
176 131
177 647
178 84
179 47
189 2
190 150
191 282
192 161
193 88
194 28
206 67
207 121
209 59
210 25
217 13
219 15
220 42
221 157
222 19
235 102
236 102
237 34
238 49
239 250
240 52
251 5
252 55
253 21
267 104
268 106
296 999
297 472
298 228
299 59

$$$$

     RDKit          2D

 15 17  0  0  0  0  0  0  0  0999 V2000
    7.1000   -0.0000    0.0000 C   0  0  0  0  0  0  0  0  0  0  0  0
    6.3500    1.3000    0.0000 C   0  0  0  0  0  0  0  0  0  0  0  0
    6.3500   -1.3000    0.0000 C   0  0  0  0  0  0  0  0  0  0  0  0
   -2.3100    0.7500    0.0000 C   0  0  0  0  0  0  0  0  0  0  0  0
   -2.3100   -0.7500    0.0000 C   0  0  0  0  0  0  0  0  0  0  0  0
    4.8500    1.3000    0.0000 C   0  0  0  0  0  0  0  0  0  0  0  0
    4.8500   -1.3000    0.0000 C   0  0  0  0  0  0  0  0  0  0  0  0
   -1.0100    1.5000    0.0000 C   0  0  0  0  0  0  0  0  0  0  0  0
   -1.0100   -1.5000    0.0000 C   0  0  0  0  0  0  0  0  0  0  0  0
    1.7200    1.2100    0.0000 C   0  0  0  0  0  0  0  0  0  0  0  0
    4.1000   -0.0000    0.0000 C   0  0  0  0  0  0  0  0  0  0  0  0
    0.2900    0.7500    0.0000 C   0  0  0  0  0  0  0  0  0  0  0  0
    0.2900   -0.7500    0.0000 C   0  0  0  0  0  0  0  0  0  0  0  0
    2.6000    0.0000    0.0000 C   0  0  0  0  0  0  0  0  0  0  0  0
    1.7200   -1.2100    0.0000 O   0  0  0  0  0  0  0  0  0  0  0  0
  2  1  2  0
  3  1  1  0
  5  4  1  0
  6  2  1  0
  7  3  2  0
  8  4  1  0
  9  5  1  0
 11  6  2  0
 11  7  1  0
 12  8  1  0
 12 10  1  0
 13  9  1  0
 13 12  2  0
 14 10  2  0
 14 11  1  0
 15 13  1  0
 15 14  1  0
M  END
>  <NAME>  (4330) 
4,5,6,7-TETRAHYDRO-2-PHENYLBENZOFURAN

>  <SYNONYMS>  (4330) 


>  <SPECTRUM TYPE>  (4330) 
MS1

>  <INSTRUMENT TYPE>  (4330) 
EI-B

>  <INSTRUMENT>  (4330) 
JEOL JMS-DX-300

>  <ION MODE>  (4330) 
P

>  <INCHIKEY>  (4330) 
ADAPEIYATTZSEK-UHFFFAOYSA-N

>  <FORMULA>  (4330) 
C14H14O

>  <EXACT MASS>  (4330) 
198.104465068

>  <MW>  (4330) 
198

>  <ID>  (4330) 
JP004377

>  <CONTRIBUTOR>  (4330) 
University of Tokyo Team, {Faculty of Engineering, University of Tokyo

>  <COMMENT>  (4330) 
SMILES=c(c3)ccc(c3)c(c1)oc(C2)c(CCC2)1
InChI=InChI=1S/C14H14O/c1-2-6-11(7-3-1)14-10-12-8-4-5-9-13(12)15-14/h1-3,6-7,10H,4-5,8-9H2
computed SMILES=O1C(=CC2=C1CCCC2)C=3C=CC=CC3
accession=JP004377
date=2016.01.19 (Created 2008.10.21, modified 2011.05.06)
author=HAGIWARA H, CHEM. RES. INST. OF NON-AQUEOUS SOLUTIONS, TOHOKU UNIV.
license=CC BY-NC-SA
exact mass=198.10447
ionization energy=70 eV
ion type=[M]+*
computed spectral entropy=2.6609405212526096
computed normalized entropy=0.8266676523197548
SPLASH=splash10-00ba-6900000000-bba05b3d7314ea4dc18f
submitter=submitter = University of Tokyo Team (Faculty of Engineering, University of Tokyo)
MoNA Rating=3.75

>  <NUM PEAKS>  (4330) 
25

>  <MASS SPECTRAL PEAKS>  (4330) 
17 6.69
18 29.6
28 99.99
32 24.96
39 5.96
41 5.38
51 8.6
77 23.19
91 6.17
99 4.5
102 4.16
105 25.43
109 11.17
115 8.06
128 5.26
141 15.56
142 4.41
165 6.4
170 80.17
171 11.93
175 4.13
194 9.61
197 13.62
198 79.95
199 12.71

>  <PREDICTED SPECTRUM>  (4330) 
14 0
15 21
26 6
27 75
28 31
38 29
39 222
40 69
41 205
42 91
43 189
44 42
45 1
49 0
50 221
51 428
52 188
53 136
54 31
55 87
57 69
58 28
62 102
63 249
64 138
65 204
66 94
67 106
68 27
69 109
70 22
71 29
74 139
75 154
76 225
77 557
78 277
79 122
80 29
81 19
82 48
83 36
84 35
85 13
86 40
87 33
88 44
89 180
90 63
91 193
92 85
93 82
94 19
95 55
96 43
97 29
98 18
99 6
100 9
101 60
102 269
103 241
104 173
105 518
106 119
107 36
113 28
114 58
115 388
116 172
117 65
118 32
119 63
120 2
121 78
122 40
126 87
127 256
128 391
129 356
130 147
131 60
137 3
139 104
140 23
141 249
142 186
143 89
144 28
150 10
151 19
152 127
153 137
154 122
155 314
156 151
157 178
158 91
165 64
166 41
167 42
168 77
169 389
170 538
171 202
172 53
178 16
179 25
180 32
181 95
182 46
183 281
184 80
194 7
195 92
196 120
197 638
198 999
199 381
200 98

$$$$

     RDKit          2D

 10 11  0  0  0  0  0  0  0  0999 V2000
    2.1853    2.6360    0.0000 C   0  0  0  0  0  0  0  0  0  0  0  0
   -2.3100    0.7500    0.0000 C   0  0  0  0  0  0  0  0  0  0  0  0
   -2.3100   -0.7500    0.0000 C   0  0  0  0  0  0  0  0  0  0  0  0
   -1.0100    1.5000    0.0000 C   0  0  0  0  0  0  0  0  0  0  0  0
   -1.0100   -1.5000    0.0000 C   0  0  0  0  0  0  0  0  0  0  0  0
    2.6000    0.0000    0.0000 C   0  0  0  0  0  0  0  0  0  0  0  0
    1.7200    1.2100    0.0000 C   0  0  0  0  0  0  0  0  0  0  0  0
    0.2900    0.7500    0.0000 C   0  0  0  0  0  0  0  0  0  0  0  0
    0.2900   -0.7500    0.0000 C   0  0  0  0  0  0  0  0  0  0  0  0
    1.7200   -1.2100    0.0000 O   0  0  0  0  0  0  0  0  0  0  0  0
  3  2  1  0
  4  2  1  0
  5  3  1  0
  7  1  1  0
  7  6  2  0
  8  4  1  0
  8  7  1  0
  9  5  1  0
  9  8  2  0
 10  6  1  0
 10  9  1  0
M  END
>  <NAME>  (4331) 
4,5,6,7-TETRAHYDRO-3-METHYLBENZOFURAN

>  <SYNONYMS>  (4331) 


>  <SPECTRUM TYPE>  (4331) 
MS1

>  <INSTRUMENT TYPE>  (4331) 
EI-B

>  <INSTRUMENT>  (4331) 
JEOL JMS-DX-300

>  <ION MODE>  (4331) 
P

>  <INCHIKEY>  (4331) 
ZQQRACBGKBCNQT-UHFFFAOYSA-N

>  <FORMULA>  (4331) 
C9H12O

>  <EXACT MASS>  (4331) 
136.088815004

>  <MW>  (4331) 
136

>  <ID>  (4331) 
JP004376

>  <CONTRIBUTOR>  (4331) 
University of Tokyo Team, {Faculty of Engineering, University of Tokyo

>  <COMMENT>  (4331) 
SMILES=Cc(c1)c(C2)c(CCC2)o1
InChI=InChI=1S/C9H12O/c1-7-6-10-9-5-3-2-4-8(7)9/h6H,2-5H2,1H3
computed SMILES=O1C=C(C2=C1CCCC2)C
accession=JP004376
date=2016.01.19 (Created 2008.10.21, modified 2011.05.06)
author=HAGIWARA H, CHEM. RES. INST. OF NON-AQUEOUS SOLUTIONS, TOHOKU UNIV.
license=CC BY-NC-SA
exact mass=136.08882
ionization energy=70 eV
ion type=[M]+*
computed spectral entropy=2.89031532202383
computed normalized entropy=0.7732934200191001
SPLASH=splash10-0a4r-6900000000-8243acd8e60982b71b7b
submitter=submitter = University of Tokyo Team (Faculty of Engineering, University of Tokyo)
MoNA Rating=3.75

>  <NUM PEAKS>  (4331) 
42

>  <MASS SPECTRAL PEAKS>  (4331) 
27 7.76
29 2.65
38 1.4
39 12.36
41 7.5
43 1.91
50 2.12
51 6.62
52 3.72
53 5.27
54 1.21
55 1.76
63 2.61
65 5.88
66 4.16
67 5.47
68 2.43
77 11.14
78 3.48
79 24.46
80 6.69
81 1.83
89 1.7
91 10.07
92 2.37
93 8.44
94 2.11
95 5.01
103 1.79
105 4.7
107 7.95
108 99.99
109 9.56
115 1.28
117 2.51
118 1.21
121 5.75
133 1.01
134 1.25
135 11.65
136 57.9
137 5.93

>  <PREDICTED SPECTRUM>  (4331) 
14 8
15 8
26 66
27 168
28 45
29 36
33 3
37 48
38 117
39 356
40 161
41 280
42 123
43 115
44 38
46 5
47 7
49 62
50 215
51 346
52 246
53 276
54 155
55 163
57 106
58 25
59 40
60 5
61 44
62 117
63 216
64 141
65 255
66 145
67 263
68 102
69 99
70 33
71 7
74 117
75 135
76 117
77 385
78 218
79 408
80 422
81 197
82 133
83 7
87 42
89 175
90 110
91 202
92 74
93 262
94 165
95 214
96 118
97 40
101 16
102 18
103 105
104 26
105 191
106 84
107 429
108 999
109 315
110 66
116 4
117 124
118 59
119 107
120 24
121 457
122 156
133 94
134 52
135 458
136 970
137 287
138 24

$$$$

     RDKit          2D

 26 27  0  0  0  0  0  0  0  0999 V2000
  -12.5424   -4.0451    0.0000 C   0  0  0  0  0  0  0  0  0  0  0  0
    2.5989    1.5002    0.0000 C   0  0  0  0  0  0  0  0  0  0  0  0
  -11.0652   -4.3054    0.0000 C   0  0  0  0  0  0  0  0  0  0  0  0
  -10.1011   -3.1563    0.0000 C   0  0  0  0  0  0  0  0  0  0  0  0
   -8.6239   -3.4166    0.0000 C   0  0  0  0  0  0  0  0  0  0  0  0
   -7.6598   -2.2674    0.0000 C   0  0  0  0  0  0  0  0  0  0  0  0
   -6.1826   -2.5277    0.0000 C   0  0  0  0  0  0  0  0  0  0  0  0
   -5.2185   -1.3785    0.0000 C   0  0  0  0  0  0  0  0  0  0  0  0
   -3.3505   -6.3899    0.0000 C   0  0  0  0  0  0  0  0  0  0  0  0
   -3.7413   -1.6389    0.0000 C   0  0  0  0  0  0  0  0  0  0  0  0
   -2.3857   -7.5395    0.0000 C   0  0  0  0  0  0  0  0  0  0  0  0
   -2.8381   -4.9792    0.0000 C   0  0  0  0  0  0  0  0  0  0  0  0
   -2.7772   -0.4897    0.0000 C   0  0  0  0  0  0  0  0  0  0  0  0
   -0.9086   -7.2785    0.0000 C   0  0  0  0  0  0  0  0  0  0  0  0
   -1.3000    0.7500    0.0000 C   0  0  0  0  0  0  0  0  0  0  0  0
   -1.8127   -2.1596    0.0000 C   0  0  0  0  0  0  0  0  0  0  0  0
    1.3000    0.7500    0.0000 C   0  0  0  0  0  0  0  0  0  0  0  0
    0.0000    1.5000    0.0000 C   0  0  0  0  0  0  0  0  0  0  0  0
   -1.3610   -4.7182    0.0000 C   0  0  0  0  0  0  0  0  0  0  0  0
    1.3000   -0.7500    0.0000 C   0  0  0  0  0  0  0  0  0  0  0  0
   -1.3000   -0.7500    0.0000 C   0  0  0  0  0  0  0  0  0  0  0  0
    0.0000    3.0000    0.0000 O   0  0  0  0  0  0  0  0  0  0  0  0
    2.5989   -1.5002    0.0000 O   0  0  0  0  0  0  0  0  0  0  0  0
   -0.3963   -5.8678    0.0000 O   0  0  0  0  0  0  0  0  0  0  0  0
   -0.8483   -3.3085    0.0000 O   0  0  0  0  0  0  0  0  0  0  0  0
    0.0000   -1.5000    0.0000 O   0  0  0  0  0  0  0  0  0  0  0  0
  3  1  1  0
  4  3  1  0
  5  4  1  0
  6  5  1  0
  7  6  1  0
  8  7  1  0
 10  8  1  0
 11  9  1  0
 12  9  1  0
 13 10  1  0
 14 11  1  0
 17  2  1  0
 18 15  1  0
 18 17  1  0
 19 12  1  0
 20 17  1  0
 21 13  1  0
 21 15  1  0
 21 16  1  0
 22 18  2  0
 23 20  2  0
 24 14  1  0
 24 19  1  0
 25 16  1  0
 25 19  1  0
 26 20  1  0
 26 21  1  0
M  END
>  <NAME>  (4332) 
2-METHYL-3-OXO-5-(TETRAHYDROPYRAN-2-YLOXYMETHYL)TETRADECAN-5-OLIDE

>  <SYNONYMS>  (4332) 
3-METHYL-6-NONYL-6-(PERHYDROPYRAN-2-YLOXYMETHYL)PERHYDROPYRAN-2,4-DIONE

>  <SPECTRUM TYPE>  (4332) 
MS1

>  <INSTRUMENT TYPE>  (4332) 
EI-B

>  <INSTRUMENT>  (4332) 
JEOL JMS-DX-300

>  <ION MODE>  (4332) 
P

>  <INCHIKEY>  (4332) 
TTYBVVTXBFJSTC-UHFFFAOYSA-N

>  <FORMULA>  (4332) 
C21H36O5

>  <EXACT MASS>  (4332) 
368.25627425199997

>  <MW>  (4332) 
368

>  <ID>  (4332) 
JP004375

>  <CONTRIBUTOR>  (4332) 
University of Tokyo Team, {Faculty of Engineering, University of Tokyo

>  <COMMENT>  (4332) 
SMILES=CCCCCCCCCC(COC(C2)OCCC2)(C1)OC(=O)C(C)C(=O)1
InChI=InChI=1S/C21H36O5/c1-3-4-5-6-7-8-10-13-21(15-18(22)17(2)20(23)26-21)16-25-19-12-9-11-14-24-19/h17,19H,3-16H2,1-2H3
computed SMILES=O=C1OC(COC2OCCCC2)(CC(=O)C1C)CCCCCCCCC
accession=JP004375
date=2016.01.19 (Created 2008.10.21, modified 2011.05.06)
author=HAGIWARA H, CHEM. RES. INST. OF NON-AQUEOUS SOLUTIONS, TOHOKU UNIV.
license=CC BY-NC-SA
exact mass=368.25627
ionization energy=70 eV
ion type=[M]+*
computed spectral entropy=3.0469702089330446
computed normalized entropy=0.791390493076089
SPLASH=splash10-002u-9000000000-be1a01eefdcd23e3462c
submitter=submitter = University of Tokyo Team (Faculty of Engineering, University of Tokyo)
MoNA Rating=3.75

>  <NUM PEAKS>  (4332) 
47

>  <MASS SPECTRAL PEAKS>  (4332) 
28 43.62
29 17.96
31 3.74
32 8.12
39 4.13
41 24.13
42 4.41
43 38.62
44 4.8
45 1.82
53 2.46
54 2.09
55 19.56
56 10.79
57 18.75
58 1.94
67 8.7
68 2.69
69 9.27
70 2.19
71 8.96
73 1.61
81 6.19
82 0.27
83 7.31
84 5.43
85 99.99
86 6.27
87 1.86
95 5.93
96 1.53
97 3.33
98 2.91
101 5.88
109 2.45
111 2.37
114 1.62
151 2.45
152 1.67
155 1.28
156 2.01
195 1.53
211 4.09
235 1.77
253 13.53
254 2.71
367 0.19

>  <PREDICTED SPECTRUM>  (4332) 
26 33
27 119
28 86
29 216
31 75
39 127
40 41
41 372
42 118
43 489
44 74
45 98
46 5
53 124
54 124
55 414
56 225
57 370
58 61
59 38
60 18
61 0
66 13
67 304
68 86
69 213
70 62
71 153
72 3
73 54
74 12
77 35
79 60
81 188
82 118
83 282
84 153
85 999
86 210
87 47
89 8
94 18
95 113
96 64
97 96
98 77
99 27
100 24
101 195
102 55
103 37
106 1
107 37
108 0
109 60
110 17
111 86
112 47
113 70
114 28
115 28
116 24
123 59
124 51
125 40
126 84
127 64
128 20
129 8
133 29
135 9
137 58
138 12
139 8
140 10
141 55
142 35
143 20
144 16
151 69
152 44
153 61
154 67
155 49
157 32
165 24
170 46
171 27
181 16
182 19
183 47
184 10
193 5
195 4
209 35
210 23
211 27
212 1
223 2
239 7
266 43
267 18
283 15
284 41

$$$$

     RDKit          2D

 25 26  0  0  0  0  0  0  0  0999 V2000
   12.5126   -0.1168    0.0000 C   0  0  0  0  0  0  0  0  0  0  0  0
   -2.6291   -5.6597    0.0000 C   0  0  0  0  0  0  0  0  0  0  0  0
   11.0354    0.1440    0.0000 C   0  0  0  0  0  0  0  0  0  0  0  0
   10.0710   -1.0048    0.0000 C   0  0  0  0  0  0  0  0  0  0  0  0
    8.5938   -0.7441    0.0000 C   0  0  0  0  0  0  0  0  0  0  0  0
    7.6294   -1.8929    0.0000 C   0  0  0  0  0  0  0  0  0  0  0  0
    6.1523   -1.6321    0.0000 C   0  0  0  0  0  0  0  0  0  0  0  0
    5.1878   -2.7810    0.0000 C   0  0  0  0  0  0  0  0  0  0  0  0
   -2.6506   -2.7791    0.0000 C   0  0  0  0  0  0  0  0  0  0  0  0
    3.7107   -2.5202    0.0000 C   0  0  0  0  0  0  0  0  0  0  0  0
   -3.6154   -1.6294    0.0000 C   0  0  0  0  0  0  0  0  0  0  0  0
   -1.1724   -2.5193    0.0000 C   0  0  0  0  0  0  0  0  0  0  0  0
   -1.3295   -3.4091    0.0000 C   0  0  0  0  0  0  0  0  0  0  0  0
    2.7462   -3.6691    0.0000 C   0  0  0  0  0  0  0  0  0  0  0  0
   -0.0299   -2.6583    0.0000 C   0  0  0  0  0  0  0  0  0  0  0  0
   -3.1020   -0.2200    0.0000 C   0  0  0  0  0  0  0  0  0  0  0  0
    1.7823   -1.9988    0.0000 C   0  0  0  0  0  0  0  0  0  0  0  0
   -1.3299   -4.9099    0.0000 C   0  0  0  0  0  0  0  0  0  0  0  0
   -0.6590   -1.1099    0.0000 C   0  0  0  0  0  0  0  0  0  0  0  0
   -0.0309   -5.6599    0.0000 C   0  0  0  0  0  0  0  0  0  0  0  0
    1.2691   -3.4083    0.0000 C   0  0  0  0  0  0  0  0  0  0  0  0
   -0.0307   -7.1599    0.0000 O   0  0  0  0  0  0  0  0  0  0  0  0
   -1.6238    0.0397    0.0000 O   0  0  0  0  0  0  0  0  0  0  0  0
    0.8182   -0.8496    0.0000 O   0  0  0  0  0  0  0  0  0  0  0  0
    1.2686   -4.9091    0.0000 O   0  0  0  0  0  0  0  0  0  0  0  0
  3  1  1  0
  4  3  1  0
  5  4  1  0
  6  5  1  0
  7  6  1  0
  8  7  1  0
 10  8  1  0
 11  9  1  0
 12  9  1  0
 14 10  1  0
 15 13  1  0
 16 11  1  0
 18  2  1  0
 18 13  2  0
 19 12  1  0
 20 18  1  0
 21 14  1  0
 21 15  1  0
 21 17  1  0
 22 20  2  0
 23 16  1  0
 23 19  1  0
 24 17  1  0
 24 19  1  0
 25 20  1  0
 25 21  1  0
M  END
>  <NAME>  (4333) 
2-METHYL-5-(TETRAHYDR0PYRAN-2-YLOXYMETHYL)-2-TETRADECEN-5-OLIDE

>  <SYNONYMS>  (4333) 
3-METHYL-6-NONYL-6-(PERHYDROPYRAN-2-YLOXYMETHYL)-5,6-DIHYDRO-2H-PYRAN-2-ONE

>  <SPECTRUM TYPE>  (4333) 
MS1

>  <INSTRUMENT TYPE>  (4333) 
EI-B

>  <INSTRUMENT>  (4333) 
JEOL JMS-DX-300

>  <ION MODE>  (4333) 
P

>  <INCHIKEY>  (4333) 
YIWAEGRIRLSFLS-UHFFFAOYSA-N

>  <FORMULA>  (4333) 
C21H36O4

>  <EXACT MASS>  (4333) 
352.261359632

>  <MW>  (4333) 
352

>  <ID>  (4333) 
JP004374

>  <CONTRIBUTOR>  (4333) 
University of Tokyo Team, {Faculty of Engineering, University of Tokyo

>  <COMMENT>  (4333) 
SMILES=CCCCCCCCCC(COC(C2)OCCC2)(C1)OC(=O)C(C)=C1
InChI=InChI=1S/C21H36O4/c1-3-4-5-6-7-8-10-14-21(15-13-18(2)20(22)25-21)17-24-19-12-9-11-16-23-19/h13,19H,3-12,14-17H2,1-2H3
computed SMILES=O=C1OC(COC2OCCCC2)(CC=C1C)CCCCCCCCC
accession=JP004374
date=2016.01.19 (Created 2008.10.21, modified 2011.05.06)
author=HAGIWARA H, CHEM. RES. INST. OF NON-AQUEOUS SOLUTIONS, TOHOKU UNIV.
license=CC BY-NC-SA
exact mass=352.26136
ionization energy=70 eV
ion type=[M]+*
computed spectral entropy=3.205829303411264
computed normalized entropy=0.8421627375755849
SPLASH=splash10-000i-9120000000-989105040a516c7c6e1a
submitter=submitter = University of Tokyo Team (Faculty of Engineering, University of Tokyo)
MoNA Rating=3.75

>  <NUM PEAKS>  (4333) 
45

>  <MASS SPECTRAL PEAKS>  (4333) 
29 21.09
31 2.92
39 5.88
41 31.37
42 4.07
43 39.89
53 5.51
54 8.69
55 22.64
56 5.08
57 27.25
67 14.71
68 2.28
69 7.23
71 12.01
79 2.8
81 8.29
82 16.05
83 6.19
84 4.62
85 99.99
86 6.21
93 3.02
95 11.64
96 2.73
97 3.31
98 2.34
107 0.23
109 4.19
111 4
123 6.58
124 0.61
125 6.53
126 4.21
137 6.92
138 3.55
141 3.22
155 21.67
156 2.73
224 3.59
236 42.72
237 25.95
238 5.08
267 9.41
268 2.18

>  <PREDICTED SPECTRUM>  (4333) 
26 55
27 155
28 84
29 264
30 8
31 46
37 5
38 17
39 154
40 48
41 348
42 101
43 502
44 85
45 41
47 15
50 13
51 29
52 19
53 142
54 140
55 363
56 199
57 354
58 59
59 51
61 7
65 60
66 56
67 305
68 149
69 189
70 56
71 137
72 56
73 80
77 87
78 26
79 138
80 55
81 209
82 145
83 231
84 126
85 999
86 233
87 9
91 54
93 71
94 46
95 211
96 130
97 204
98 115
99 87
100 19
101 134
103 5
104 21
105 8
107 55
108 46
109 112
110 117
111 138
112 64
113 49
121 35
123 53
124 49
125 89
126 73
127 33
128 24
129 20
131 25
132 6
133 8
136 17
137 80
138 84
139 18
140 6
141 11
149 27
151 25
152 22
153 34
154 51
155 125
156 29
167 51
168 26
172 15
177 18
178 14
179 4
180 0
181 45
183 87
184 31
185 33
186 1
207 1
267 29
268 130
269 10
352 5

$$$$

     RDKit          2D

 12 13  0  0  0  0  0  0  0  0999 V2000
   -3.5400    1.3990    0.0000 C   0  0  0  0  0  0  0  0  0  0  0  0
    2.7999    0.1164    0.0000 C   0  0  0  0  0  0  0  0  0  0  0  0
   -2.7900    0.1000    0.0000 C   0  0  0  0  0  0  0  0  0  0  0  0
    1.3000   -1.4000    0.0000 C   0  0  0  0  0  0  0  0  0  0  0  0
   -1.2900   -1.4000    0.0000 C   0  0  0  0  0  0  0  0  0  0  0  0
   -1.2900    1.9500    0.0000 C   0  0  0  0  0  0  0  0  0  0  0  0
    0.0100   -2.1500    0.0000 C   0  0  0  0  0  0  0  0  0  0  0  0
    1.3000    0.1000    0.0000 C   0  0  0  0  0  0  0  0  0  0  0  0
   -1.2900    0.1000    0.0000 C   0  0  0  0  0  0  0  0  0  0  0  0
    0.0125   -3.6500    0.0000 O   0  0  0  0  0  0  0  0  0  0  0  0
    1.2600    1.9300    0.0000 O   0  0  0  0  0  0  0  0  0  0  0  0
    0.0100    0.8500    0.0000 O   0  0  0  0  0  0  0  0  0  0  0  0
  3  1  1  0
  7  4  1  0
  7  5  1  0
  8  2  1  0
  8  4  1  0
  9  3  1  0
  9  5  1  0
  9  6  1  0
 10  7  1  0
 11  6  1  0
 11  8  1  0
 12  8  1  0
 12  9  1  0
M  END
>  <NAME>  (4334) 
ENDO 1-ETHYL-5-METHYL-6,8-DIOXABICYCLO(3,2,1)OCTAN-3-OL

>  <SYNONYMS>  (4334) 


>  <SPECTRUM TYPE>  (4334) 
MS1

>  <INSTRUMENT TYPE>  (4334) 
EI-B

>  <INSTRUMENT>  (4334) 
JEOL JMS-DX-300

>  <ION MODE>  (4334) 
P

>  <INCHIKEY>  (4334) 
VONWIFAYZFAVMY-UHFFFAOYSA-N

>  <FORMULA>  (4334) 
C9H16O3

>  <EXACT MASS>  (4334) 
172.10994437199997

>  <MW>  (4334) 
172

>  <ID>  (4334) 
JP004372

>  <CONTRIBUTOR>  (4334) 
University of Tokyo Team, {Faculty of Engineering, University of Tokyo

>  <COMMENT>  (4334) 
SMILES=CCC(C2)(C1)OC(C)(O2)CC(O)1
InChI=InChI=1S/C9H16O3/c1-3-9-5-7(10)4-8(2,12-9)11-6-9/h7,10H,3-6H2,1-2H3
computed SMILES=OC1CC2(OCC(O2)(CC)C1)C
license=CC BY-NC-SA
accession=JP004372
date=2016.01.19 (Created 2008.10.21, modified 2011.05.06)
author=HAGIWARA H, CHEM. RES. INST. OF NON-AQUEOUS SOLUTIONS, TOHOKU UNIV.
exact mass=172.10994
ionization energy=70 eV
ion type=[M]+*
computed spectral entropy=3.2659997372357625
computed normalized entropy=0.8043456659169446
SPLASH=splash10-0006-9100000000-8f88f6eddd4f58c7d548
submitter=submitter = University of Tokyo Team (Faculty of Engineering, University of Tokyo)
MoNA Rating=3.75

>  <NUM PEAKS>  (4334) 
58

>  <MASS SPECTRAL PEAKS>  (4334) 
27 10.15
28 3.33
29 23.72
30 0.11
31 5.8
39 8.72
40 1.95
41 14.1
42 5.37
43 99.99
44 3.61
45 3.76
53 3.29
55 7.09
56 1.84
57 46.16
58 8.96
59 2.46
67 3.68
68 2.1
69 7.73
70 2.17
71 20.56
72 11.76
73 2.23
79 1.4
81 2.59
82 2.28
83 5.61
84 7.19
85 38.42
86 3.26
87 1.71
88 4.59
89 3.87
95 6.67
96 26.6
97 8.93
98 2.14
99 0.41
100 1.2
101 5.83
109 4.61
111 3.17
113 6.3
114 1.18
115 6.88
125 2.81
126 1.1
139 1.47
140 3.36
141 1.53
142 2.41
143 4.15
154 3.63
155 1.29
157 3.4
172 0.64

>  <PREDICTED SPECTRUM>  (4334) 
14 6
15 36
26 54
27 195
28 89
29 243
30 65
31 140
32 7
33 8
37 26
38 60
39 241
40 110
41 456
42 181
43 999
44 211
45 100
49 11
50 23
51 55
52 32
53 174
54 119
55 343
56 190
57 414
58 373
59 318
60 75
61 120
65 21
66 28
67 162
68 203
69 310
70 214
71 552
72 385
73 120
74 49
79 108
80 35
81 210
82 136
83 276
84 253
85 508
86 196
87 83
88 76
93 38
94 58
95 177
96 187
97 272
98 172
99 199
100 185
101 219
102 74
107 14
109 16
110 67
111 194
112 161
113 197
114 244
115 116
121 32
122 17
123 62
125 149
126 79
127 134
128 83
129 31
130 20
139 75
140 33
141 55
142 88
143 139
144 23
154 155
155 75
157 93

$$$$

     RDKit          2D

 22 24  0  0  0  0  0  0  0  0999 V2000
    8.7245   -0.9588    0.0000 C   0  0  0  0  0  0  0  0  0  0  0  0
    3.5288   -3.9596    0.0000 C   0  0  0  0  0  0  0  0  0  0  0  0
    8.7247    0.5421    0.0000 C   0  0  0  0  0  0  0  0  0  0  0  0
    7.4251   -1.7098    0.0000 C   0  0  0  0  0  0  0  0  0  0  0  0
    4.8287   -3.2094    0.0000 C   0  0  0  0  0  0  0  0  0  0  0  0
    2.2287   -3.2098    0.0000 C   0  0  0  0  0  0  0  0  0  0  0  0
   -0.3700   -1.7100    0.0000 C   0  0  0  0  0  0  0  0  0  0  0  0
   -1.6700   -0.9600    0.0000 C   0  0  0  0  0  0  0  0  0  0  0  0
    7.4256    1.2919    0.0000 C   0  0  0  0  0  0  0  0  0  0  0  0
    6.1259   -0.9600    0.0000 C   0  0  0  0  0  0  0  0  0  0  0  0
    4.8284   -1.7094    0.0000 C   0  0  0  0  0  0  0  0  0  0  0  0
    2.2284   -1.7098    0.0000 C   0  0  0  0  0  0  0  0  0  0  0  0
    0.9300   -0.9600    0.0000 C   0  0  0  0  0  0  0  0  0  0  0  0
   -1.6700    0.5400    0.0000 C   0  0  0  0  0  0  0  0  0  0  0  0
    6.1262    0.5408    0.0000 C   0  0  0  0  0  0  0  0  0  0  0  0
    3.5283   -0.9596    0.0000 C   0  0  0  0  0  0  0  0  0  0  0  0
    0.9300    0.5400    0.0000 C   0  0  0  0  0  0  0  0  0  0  0  0
    4.8270    1.2906    0.0000 C   0  0  0  0  0  0  0  0  0  0  0  0
    3.5281    0.5404    0.0000 C   0  0  0  0  0  0  0  0  0  0  0  0
    4.8268    2.7906    0.0000 O   0  0  0  0  0  0  0  0  0  0  0  0
   -0.3700    1.2900    0.0000 O   0  0  0  0  0  0  0  0  0  0  0  0
    2.2289    1.2902    0.0000 O   0  0  0  0  0  0  0  0  0  0  0  0
  3  1  2  0
  4  1  1  0
  5  2  2  0
  6  2  1  0
  8  7  1  0
  9  3  1  0
 10  4  2  0
 11  5  1  0
 12  6  2  0
 13  7  1  0
 14  8  1  0
 15  9  2  0
 15 10  1  0
 16 11  2  0
 16 12  1  0
 17 13  1  0
 18 15  1  0
 19 16  1  0
 19 18  1  0
 20 18  2  0
 21 14  1  0
 21 17  1  0
 22 17  1  0
 22 19  1  0
M  END
>  <NAME>  (4335) 
BENZOIN TETRAHYDROPYRAN-2-YL ETHER

>  <SYNONYMS>  (4335) 


>  <SPECTRUM TYPE>  (4335) 
MS1

>  <INSTRUMENT TYPE>  (4335) 
EI-B

>  <INSTRUMENT>  (4335) 
JEOL JMS-DX-300

>  <ION MODE>  (4335) 
P

>  <INCHIKEY>  (4335) 
DNNDHIKCLIZHBH-UHFFFAOYSA-N

>  <FORMULA>  (4335) 
C19H20O3

>  <EXACT MASS>  (4335) 
296.14124449999997

>  <MW>  (4335) 
296

>  <ID>  (4335) 
JP004370

>  <CONTRIBUTOR>  (4335) 
University of Tokyo Team, {Faculty of Engineering, University of Tokyo

>  <COMMENT>  (4335) 
SMILES=C(C3)COC(C3)OC(c(c2)cccc2)C(=O)c(c1)cccc1
InChI=InChI=1S/C19H20O3/c20-18(15-9-3-1-4-10-15)19(16-11-5-2-6-12-16)22-17-13-7-8-14-21-17/h1-6,9-12,17,19H,7-8,13-14H2
computed SMILES=O=C(C=1C=CC=CC1)C(OC2OCCCC2)C=3C=CC=CC3
accession=JP004370
date=2016.01.19 (Created 2008.10.21, modified 2011.05.06)
author=HAGIWARA H, CHEM. RES. INST. OF NON-AQUEOUS SOLUTIONS, TOHOKU UNIV.
license=CC BY-NC-SA
exact mass=296.14124
ionization energy=70 eV
ion type=[M]+*
computed spectral entropy=2.1890281713924034
computed normalized entropy=0.6887951835456293
SPLASH=splash10-0a6r-9700000000-c389ff4c74bd630eb575
submitter=submitter = University of Tokyo Team (Faculty of Engineering, University of Tokyo)
MoNA Rating=3.75

>  <NUM PEAKS>  (4335) 
24

>  <MASS SPECTRAL PEAKS>  (4335) 
27 3.06
28 2.94
29 2.19
39 3.33
50 7.35
51 27.81
52 3.15
53 0.79
63 1.73
74 2
75 1.72
76 2.7
77 71.8
78 9.3
79 29.34
80 2.28
89 1.14
105 99.99
106 11.42
107 33.64
108 3.26
165 1.2
210 1.78
212 1.38

>  <PREDICTED SPECTRUM>  (4335) 
26 18
27 118
28 74
29 137
31 27
37 10
38 45
39 151
40 42
41 167
42 40
43 68
44 53
45 13
47 11
49 34
50 132
51 288
52 126
53 102
54 62
55 109
56 81
57 44
62 37
63 89
64 53
65 117
66 29
67 55
69 8
73 0
74 51
75 91
76 85
77 606
78 236
79 347
80 105
81 22
82 32
83 74
84 92
85 220
86 44
89 99
90 88
91 101
92 38
94 4
102 30
103 25
104 65
105 999
106 458
107 440
108 116
109 20
118 22
119 61
122 0
125 1
126 15
127 44
128 48
133 12
134 22
135 10
136 9
146 2
152 19
163 44
164 62
165 98
166 94
167 16
168 15
190 33
191 82
192 72
194 8
195 75
196 1
212 37
296 40
297 11

$$$$

     RDKit          2D

 11 11  0  0  0  0  0  0  0  0999 V2000
    3.7520   -0.4670    0.0000 C   0  0  0  0  0  0  0  0  0  0  0  0
   -5.1780   -0.0018    0.0000 C   0  0  0  0  0  0  0  0  0  0  0  0
    2.6360    0.5353    0.0000 C   0  0  0  0  0  0  0  0  0  0  0  0
    0.7500   -1.3600    0.0000 C   0  0  0  0  0  0  0  0  0  0  0  0
   -0.7500   -1.3600    0.0000 C   0  0  0  0  0  0  0  0  0  0  0  0
   -2.6360    0.5353    0.0000 C   0  0  0  0  0  0  0  0  0  0  0  0
   -3.7520   -0.4670    0.0000 C   0  0  0  0  0  0  0  0  0  0  0  0
    1.2100    0.0700    0.0000 C   0  0  0  0  0  0  0  0  0  0  0  0
   -1.2100    0.0700    0.0000 C   0  0  0  0  0  0  0  0  0  0  0  0
   -3.4419   -1.9347    0.0000 O   0  0  0  0  0  0  0  0  0  0  0  0
    0.0000    0.9500    0.0000 O   0  0  0  0  0  0  0  0  0  0  0  0
  3  1  1  0
  5  4  1  0
  7  2  1  0
  7  6  1  0
  8  3  1  0
  8  4  2  0
  9  5  2  0
  9  6  1  0
 10  7  2  0
 11  8  1  0
 11  9  1  0
M  END
>  <NAME>  (4336) 
2-ETHYL-5-(2-OXOPROPYL)FURAN

>  <SYNONYMS>  (4336) 


>  <SPECTRUM TYPE>  (4336) 
MS1

>  <INSTRUMENT TYPE>  (4336) 
EI-B

>  <INSTRUMENT>  (4336) 
JEOL JMS-DX-300

>  <ION MODE>  (4336) 
P

>  <INCHIKEY>  (4336) 
BAHJLUKBOMFQHQ-UHFFFAOYSA-N

>  <FORMULA>  (4336) 
C9H12O2

>  <EXACT MASS>  (4336) 
152.083729624

>  <MW>  (4336) 
152

>  <ID>  (4336) 
JP004369

>  <CONTRIBUTOR>  (4336) 
University of Tokyo Team, {Faculty of Engineering, University of Tokyo

>  <COMMENT>  (4336) 
SMILES=CCc(c1)oc(CC(C)=O)c1
InChI=InChI=1S/C9H12O2/c1-3-8-4-5-9(11-8)6-7(2)10/h4-5H,3,6H2,1-2H3
computed SMILES=O=C(C)CC=1OC(=CC1)CC
accession=JP004369
date=2016.01.19 (Created 2008.10.21, modified 2011.05.06)
author=HAGIWARA H, CHEM. RES. INST. OF NON-AQUEOUS SOLUTIONS, TOHOKU UNIV.
license=CC BY-NC-SA
exact mass=152.08373
ionization energy=70 eV
ion type=[M]+*
computed spectral entropy=2.883199576557989
computed normalized entropy=0.9072217559770929
SPLASH=splash10-016u-9000000000-8280691f2bf7a408e1cf
submitter=submitter = University of Tokyo Team (Faculty of Engineering, University of Tokyo)
MoNA Rating=3.75

>  <NUM PEAKS>  (4336) 
24

>  <MASS SPECTRAL PEAKS>  (4336) 
14 11.84
15 60.72
16 3.34
17 16.02
18 64.62
26 11.42
27 37.19
28 40.67
29 24.51
32 9.19
39 31.62
41 21.03
42 16.57
43 99.99
50 12.95
51 24.37
52 22.01
53 19.64
55 9.89
65 10.03
66 9.75
79 8.91
94 11.98
109 41.09

>  <PREDICTED SPECTRUM>  (4336) 
14 66
15 171
16 26
18 19
19 8
25 28
26 137
27 393
28 258
29 447
30 93
31 71
37 106
38 194
39 511
40 124
41 464
42 232
43 999
44 72
50 203
51 324
52 302
53 411
54 36
55 395
57 35
58 80
62 8
63 124
64 37
65 219
66 177
67 13
79 249
80 146
81 133
91 33
93 68
94 170
107 44
108 60
109 820
110 136
137 19
152 66

$$$$

     RDKit          2D

 22 25  0  0  0  0  0  0  0  0999 V2000
    5.7627    0.7898    0.0000 C   0  0  0  0  0  0  0  0  0  0  0  0
   -3.2884    4.8565    0.0000 C   0  0  0  0  0  0  0  0  0  0  0  0
   -4.7001   -1.7852    0.0000 C   0  0  0  0  0  0  0  0  0  0  0  0
   -3.7526    3.4293    0.0000 C   0  0  0  0  0  0  0  0  0  0  0  0
   -1.8204    5.1690    0.0000 C   0  0  0  0  0  0  0  0  0  0  0  0
   -3.4862   -2.6677    0.0000 C   0  0  0  0  0  0  0  0  0  0  0  0
   -4.5437   -0.2925    0.0000 C   0  0  0  0  0  0  0  0  0  0  0  0
   -2.7489    2.3146    0.0000 C   0  0  0  0  0  0  0  0  0  0  0  0
   -0.8167    4.0543    0.0000 C   0  0  0  0  0  0  0  0  0  0  0  0
   -2.1159   -2.0576    0.0000 C   0  0  0  0  0  0  0  0  0  0  0  0
   -3.1734    0.3176    0.0000 C   0  0  0  0  0  0  0  0  0  0  0  0
    3.2918   -0.0130    0.0000 C   0  0  0  0  0  0  0  0  0  0  0  0
    0.7099   -0.7049    0.0000 C   0  0  0  0  0  0  0  0  0  0  0  0
    4.2955    1.1017    0.0000 C   0  0  0  0  0  0  0  0  0  0  0  0
   -1.2810    2.6271    0.0000 C   0  0  0  0  0  0  0  0  0  0  0  0
   -1.9595   -0.5650    0.0000 C   0  0  0  0  0  0  0  0  0  0  0  0
   -0.2773    1.5124    0.0000 C   0  0  0  0  0  0  0  0  0  0  0  0
    1.8246    0.2988    0.0000 C   0  0  0  0  0  0  0  0  0  0  0  0
   -0.5892    0.0451    0.0000 C   0  0  0  0  0  0  0  0  0  0  0  0
    3.8320    2.5283    0.0000 O   0  0  0  0  0  0  0  0  0  0  0  0
    1.2145    1.6691    0.0000 O   0  0  0  0  0  0  0  0  0  0  0  0
    0.8702   -2.2300    0.0000 O   0  0  0  0  0  0  0  0  0  0  0  0
  4  2  2  0
  5  2  1  0
  6  3  2  0
  7  3  1  0
  8  4  1  0
  9  5  2  0
 10  6  1  0
 11  7  2  0
 14  1  1  0
 14 12  1  0
 15  8  2  0
 15  9  1  0
 16 10  2  0
 16 11  1  0
 17 15  1  0
 18 12  1  0
 18 13  1  0
 19 13  1  0
 19 16  1  0
 19 17  1  0
 20 14  2  0
 21 17  1  0
 21 18  1  0
 22 18  1  0
 22 19  1  0
M  END
>  <NAME>  (4337) 
1-(2-OXOPROPYL)-3,4-DIPHENYL-2,5-DIOXABICYCLO(2.1.1)HEXANE

>  <SYNONYMS>  (4337) 


>  <SPECTRUM TYPE>  (4337) 
MS1

>  <INSTRUMENT TYPE>  (4337) 
EI-B

>  <INSTRUMENT>  (4337) 
JEOL JMS-DX-300

>  <ION MODE>  (4337) 
P

>  <INCHIKEY>  (4337) 
OQDWTZZQZLFWHR-UHFFFAOYSA-N

>  <FORMULA>  (4337) 
C19H18O3

>  <EXACT MASS>  (4337) 
294.125594436

>  <MW>  (4337) 
294

>  <ID>  (4337) 
JP004368

>  <CONTRIBUTOR>  (4337) 
University of Tokyo Team, {Faculty of Engineering, University of Tokyo

>  <COMMENT>  (4337) 
SMILES=CC(=O)CC(O2)(C1)OC(c(c4)cccc4)1C(c(c3)cccc3)2
InChI=InChI=1S/C19H18O3/c1-14(20)12-18-13-19(22-18,16-10-6-3-7-11-16)17(21-18)15-8-4-2-5-9-15/h2-11,17H,12-13H2,1H3
computed SMILES=O=C(C)CC12OC(C=3C=CC=CC3)C(O1)(C=4C=CC=CC4)C2
accession=JP004368
date=2016.01.19 (Created 2008.10.21, modified 2011.05.06)
author=HAGIWARA H, CHEM. RES. INST. OF NON-AQUEOUS SOLUTIONS, TOHOKU UNIV.
license=CC BY-NC-SA
exact mass=294.12559
ionization energy=70 eV
ion type=[M]+*
computed spectral entropy=3.2411534418632626
computed normalized entropy=0.8372475189820052
SPLASH=splash10-0f9f-7900000000-2f2ba8b696377f0b3fdc
submitter=submitter = University of Tokyo Team (Faculty of Engineering, University of Tokyo)
MoNA Rating=3.75

>  <NUM PEAKS>  (4337) 
48

>  <MASS SPECTRAL PEAKS>  (4337) 
43 99.99
44 3.92
50 4.15
51 18.28
52 2.55
58 2.91
63 5.32
64 2.15
65 4.93
68 2.84
69 15.11
75 3.17
76 5.61
77 57.54
78 9.04
79 17.85
85 4.67
89 7.28
90 4.86
91 11.55
102 9.53
103 60.35
104 9.14
105 7.79
106 7.6
107 16.15
115 7.21
116 4.24
117 25
118 7.93
128 2.25
131 5.74
145 9.17
146 3.62
147 2.61
152 5.65
159 3.75
160 44.16
161 6.59
165 9.79
166 3.95
167 6.33
178 2.87
187 3.52
188 51.6
189 10.51
191 4.83
192 2.84

>  <PREDICTED SPECTRUM>  (4337) 
15 24
27 45
28 76
29 22
30 28
37 1
38 39
39 147
40 41
41 125
42 41
43 999
44 97
45 93
50 194
51 363
52 192
53 113
54 25
55 66
56 57
57 23
58 11
62 89
63 175
64 69
65 215
66 46
67 1
68 24
69 93
74 83
75 95
76 165
77 652
78 275
79 415
80 36
81 28
82 33
83 43
87 50
89 246
90 208
91 411
92 95
101 11
102 202
103 299
104 166
105 440
106 266
107 461
108 24
115 311
116 126
117 216
118 257
119 111
120 36
126 10
128 65
130 2
131 205
132 71
144 54
145 257
146 253
147 202
148 64
152 91
159 178
160 738
161 415
162 105
165 187
166 117
167 126
187 48
188 760
189 292
190 18
191 6

$$$$

     RDKit          2D

 22 25  0  0  0  0  0  0  0  0999 V2000
    2.7999    0.1164    0.0000 C   0  0  0  0  0  0  0  0  0  0  0  0
   -4.4595    5.1444    0.0000 C   0  0  0  0  0  0  0  0  0  0  0  0
   -5.7900    0.1000    0.0000 C   0  0  0  0  0  0  0  0  0  0  0  0
   -4.8541    3.6964    0.0000 C   0  0  0  0  0  0  0  0  0  0  0  0
   -3.0084    5.5277    0.0000 C   0  0  0  0  0  0  0  0  0  0  0  0
   -5.0400   -1.2000    0.0000 C   0  0  0  0  0  0  0  0  0  0  0  0
   -5.0400    1.4000    0.0000 C   0  0  0  0  0  0  0  0  0  0  0  0
   -3.7976    2.6316    0.0000 C   0  0  0  0  0  0  0  0  0  0  0  0
   -1.9519    4.4628    0.0000 C   0  0  0  0  0  0  0  0  0  0  0  0
   -3.5400   -1.2000    0.0000 C   0  0  0  0  0  0  0  0  0  0  0  0
   -3.5400    1.4000    0.0000 C   0  0  0  0  0  0  0  0  0  0  0  0
    1.3000   -1.4000    0.0000 C   0  0  0  0  0  0  0  0  0  0  0  0
   -1.2900   -1.4000    0.0000 C   0  0  0  0  0  0  0  0  0  0  0  0
   -2.3465    3.0148    0.0000 C   0  0  0  0  0  0  0  0  0  0  0  0
   -2.7900    0.1000    0.0000 C   0  0  0  0  0  0  0  0  0  0  0  0
    0.0100   -2.1500    0.0000 C   0  0  0  0  0  0  0  0  0  0  0  0
   -1.2900    1.9500    0.0000 C   0  0  0  0  0  0  0  0  0  0  0  0
    1.3000    0.1000    0.0000 C   0  0  0  0  0  0  0  0  0  0  0  0
   -1.2900    0.1000    0.0000 C   0  0  0  0  0  0  0  0  0  0  0  0
    0.0125   -3.6500    0.0000 O   0  0  0  0  0  0  0  0  0  0  0  0
    1.2600    1.9300    0.0000 O   0  0  0  0  0  0  0  0  0  0  0  0
    0.0100    0.8500    0.0000 O   0  0  0  0  0  0  0  0  0  0  0  0
  4  2  2  0
  5  2  1  0
  6  3  2  0
  7  3  1  0
  8  4  1  0
  9  5  2  0
 10  6  1  0
 11  7  2  0
 14  8  2  0
 14  9  1  0
 15 10  2  0
 15 11  1  0
 16 12  1  0
 16 13  1  0
 17 14  1  0
 18  1  1  0
 18 12  1  0
 19 13  1  0
 19 15  1  0
 19 17  1  0
 20 16  2  0
 21 17  1  0
 21 18  1  0
 22 18  1  0
 22 19  1  0
M  END
>  <NAME>  (4338) 
1,7-DIPHENYL-5-METHYL-6,8-DIOXABICYCLO(3.2.1)OCTAN-3-ONE

>  <SYNONYMS>  (4338) 


>  <SPECTRUM TYPE>  (4338) 
MS1

>  <INSTRUMENT TYPE>  (4338) 
EI-B

>  <INSTRUMENT>  (4338) 
JEOL JMS-DX-300

>  <ION MODE>  (4338) 
P

>  <INCHIKEY>  (4338) 
YVQCQBZLHIQWKW-UHFFFAOYSA-N

>  <FORMULA>  (4338) 
C19H18O3

>  <EXACT MASS>  (4338) 
294.12559443600003

>  <MW>  (4338) 
294

>  <ID>  (4338) 
JP004367

>  <CONTRIBUTOR>  (4338) 
University of Tokyo Team, {Faculty of Engineering, University of Tokyo

>  <COMMENT>  (4338) 
SMILES=c(c4)ccc(c4)C(O1)C(C2)(c(c3)cccc3)OC(C)(CC(=O)2)1
InChI=InChI=1S/C19H18O3/c1-18-12-16(20)13-19(22-18,15-10-6-3-7-11-15)17(21-18)14-8-4-2-5-9-14/h2-11,17H,12-13H2,1H3
computed SMILES=O=C1CC2(OC(C=3C=CC=CC3)C(O2)(C=4C=CC=CC4)C1)C
accession=JP004367
date=2016.01.19 (Created 2008.10.21, modified 2011.05.06)
author=HAGIWARA H, CHEM. RES. INST. OF NON-AQUEOUS SOLUTIONS, TOHOKU UNIV.
license=CC BY-NC-SA
exact mass=294.12559
ionization energy=70 eV
ion type=[M]+*
computed spectral entropy=2.9431954436524763
computed normalized entropy=0.7523461491838447
SPLASH=splash10-004r-9800000000-1d1805e63e67f5060f65
submitter=submitter = University of Tokyo Team (Faculty of Engineering, University of Tokyo)
MoNA Rating=3.75

>  <NUM PEAKS>  (4338) 
50

>  <MASS SPECTRAL PEAKS>  (4338) 
28 99.99
40 1.61
41 5.33
43 3.36
44 1.54
50 1.5
51 6.56
52 1.11
55 1.57
57 2.93
58 1.29
63 1.69
65 1.32
67 2.68
69 6.51
76 0.16
77 23.75
78 3.41
79 5.47
84 1.18
85 27.01
86 1.56
89 2.37
90 1.54
91 3.38
102 4.39
103 28.28
104 4.03
105 37.82
106 3.17
107 5.05
115 2.17
116 1.44
117 12.02
118 3.35
131 1.72
145 4.4
146 1.62
147 1.25
152 1.29
159 1.88
160 22.27
161 2.76
165 2.51
167 1.77
187 1.88
188 42.11
189 6.18
190 1.32
191 2.32

>  <PREDICTED SPECTRUM>  (4338) 
14 16
15 35
16 4
17 13
18 43
26 52
27 116
28 166
29 98
30 53
31 89
37 27
38 66
39 210
40 87
41 206
42 160
43 606
44 131
45 78
50 202
51 388
52 216
53 148
54 116
55 133
56 153
57 103
58 60
59 17
62 76
63 164
64 73
65 185
66 19
67 27
68 63
69 145
70 130
71 18
72 10
74 64
75 83
76 219
77 696
78 348
79 339
81 16
82 97
83 51
84 25
85 34
86 12
88 12
89 217
90 241
91 318
92 52
101 7
102 288
103 341
104 197
105 799
106 382
107 231
109 19
115 328
116 214
117 207
118 279
119 102
120 84
128 124
131 211
132 107
133 3
144 84
145 196
146 166
147 139
152 118
158 19
159 240
160 613
161 310
162 52
164 43
165 176
166 13
172 1
173 117
187 116
188 999
189 476
190 73

$$$$

     RDKit          2D

 15 16  0  0  0  0  0  0  0  0999 V2000
    4.9658   -1.1155    0.0000 C   0  0  0  0  0  0  0  0  0  0  0  0
   -5.3712    1.8973    0.0000 C   0  0  0  0  0  0  0  0  0  0  0  0
   -4.7618    0.5257    0.0000 C   0  0  0  0  0  0  0  0  0  0  0  0
   -4.4889    3.1114    0.0000 C   0  0  0  0  0  0  0  0  0  0  0  0
   -3.2701    0.3683    0.0000 C   0  0  0  0  0  0  0  0  0  0  0  0
   -2.9972    2.9539    0.0000 C   0  0  0  0  0  0  0  0  0  0  0  0
    2.4259   -0.5690    0.0000 C   0  0  0  0  0  0  0  0  0  0  0  0
   -0.1461    0.1259    0.0000 C   0  0  0  0  0  0  0  0  0  0  0  0
    0.1037    2.5333    0.0000 C   0  0  0  0  0  0  0  0  0  0  0  0
    3.8536   -0.1090    0.0000 C   0  0  0  0  0  0  0  0  0  0  0  0
   -2.3878    1.5824    0.0000 C   0  0  0  0  0  0  0  0  0  0  0  0
   -0.8961    1.4249    0.0000 C   0  0  0  0  0  0  0  0  0  0  0  0
    1.3137    0.4375    0.0000 C   0  0  0  0  0  0  0  0  0  0  0  0
    4.1692    1.3574    0.0000 O   0  0  0  0  0  0  0  0  0  0  0  0
    1.4794    1.9304    0.0000 O   0  0  0  0  0  0  0  0  0  0  0  0
  3  2  2  0
  4  2  1  0
  5  3  1  0
  6  4  2  0
 10  1  1  0
 10  7  1  0
 11  5  2  0
 11  6  1  0
 12  8  1  0
 12  9  2  0
 12 11  1  0
 13  7  1  0
 13  8  2  0
 14 10  2  0
 15  9  1  0
 15 13  1  0
M  END
>  <NAME>  (4339) 
4-PHENYL-2-(2-OXOPROPYL)FURAN

>  <SYNONYMS>  (4339) 


>  <SPECTRUM TYPE>  (4339) 
MS1

>  <INSTRUMENT TYPE>  (4339) 
EI-B

>  <INSTRUMENT>  (4339) 
JEOL JMS-DX-300

>  <ION MODE>  (4339) 
P

>  <INCHIKEY>  (4339) 
KDJQNMWIFZVWFL-UHFFFAOYSA-N

>  <FORMULA>  (4339) 
C13H12O2

>  <EXACT MASS>  (4339) 
200.083729624

>  <MW>  (4339) 
200

>  <ID>  (4339) 
JP004366

>  <CONTRIBUTOR>  (4339) 
University of Tokyo Team, {Faculty of Engineering, University of Tokyo

>  <COMMENT>  (4339) 
SMILES=CC(=O)Cc(o2)cc(c2)c(c1)cccc1
InChI=InChI=1S/C13H12O2/c1-10(14)7-13-8-12(9-15-13)11-5-3-2-4-6-11/h2-6,8-9H,7H2,1H3
computed SMILES=O=C(C)CC=1OC=C(C1)C=2C=CC=CC2
ionization energy=70 eV
ion type=[M]+*
computed spectral entropy=2.903335594624051
computed normalized entropy=0.7924898978269596
accession=JP004366
date=2016.01.19 (Created 2008.10.21, modified 2011.05.06)
author=HAGIWARA H, CHEM. RES. INST. OF NON-AQUEOUS SOLUTIONS, TOHOKU UNIV.
license=CC BY-NC-SA
exact mass=200.08373
SPLASH=splash10-004i-7910000000-ef7ee303f24f5938821c
submitter=submitter = University of Tokyo Team (Faculty of Engineering, University of Tokyo)
MoNA Rating=3.75

>  <NUM PEAKS>  (4339) 
39

>  <MASS SPECTRAL PEAKS>  (4339) 
15 10.01
18 14.24
27 3.98
28 57.26
29 2.73
32 10.74
39 7.49
42 2.09
43 84.67
44 2.48
50 6.78
51 17.88
52 3.61
62 3.75
63 9.49
64 2.68
65 2.04
73 2.83
74 4.52
75 6.09
76 5.66
77 19.63
78 5.84
87 2.18
89 3.76
101 3.71
102 12.45
103 5.82
115 4.37
126 5.12
127 36.35
128 82.62
129 75.88
130 8.82
157 99.99
158 2.24
159 2.46
200 51.96
201 8.05

>  <PREDICTED SPECTRUM>  (4339) 
14 28
15 47
18 15
25 4
26 47
27 158
28 102
29 117
31 49
37 48
38 99
39 329
40 69
42 88
43 827
44 165
45 87
49 2
50 295
51 489
52 212
53 92
54 11
55 100
57 105
58 31
61 54
62 216
63 354
64 198
65 177
66 49
67 21
69 43
71 110
72 82
73 107
74 209
75 282
76 277
77 547
78 246
79 98
83 24
85 34
86 48
87 47
88 38
89 163
90 91
99 55
100 27
101 154
102 361
103 263
104 86
105 63
113 20
114 31
115 238
116 66
117 16
125 5
126 114
127 471
128 683
129 953
130 387
131 79
140 26
141 10
142 11
153 45
155 169
156 63
157 999
158 344
159 50
200 721
201 287
202 44

$$$$

     RDKit          2D

 16 18  0  0  0  0  0  0  0  0999 V2000
    2.7999    0.1164    0.0000 C   0  0  0  0  0  0  0  0  0  0  0  0
   -5.7900    0.1000    0.0000 C   0  0  0  0  0  0  0  0  0  0  0  0
   -5.0400   -1.2000    0.0000 C   0  0  0  0  0  0  0  0  0  0  0  0
   -5.0400    1.4000    0.0000 C   0  0  0  0  0  0  0  0  0  0  0  0
   -3.5400   -1.2000    0.0000 C   0  0  0  0  0  0  0  0  0  0  0  0
   -3.5400    1.4000    0.0000 C   0  0  0  0  0  0  0  0  0  0  0  0
    1.3000   -1.4000    0.0000 C   0  0  0  0  0  0  0  0  0  0  0  0
   -1.2900   -1.4000    0.0000 C   0  0  0  0  0  0  0  0  0  0  0  0
   -1.2900    1.9500    0.0000 C   0  0  0  0  0  0  0  0  0  0  0  0
   -2.7900    0.1000    0.0000 C   0  0  0  0  0  0  0  0  0  0  0  0
    0.0100   -2.1500    0.0000 C   0  0  0  0  0  0  0  0  0  0  0  0
    1.3000    0.1000    0.0000 C   0  0  0  0  0  0  0  0  0  0  0  0
   -1.2900    0.1000    0.0000 C   0  0  0  0  0  0  0  0  0  0  0  0
    0.0125   -3.6500    0.0000 O   0  0  0  0  0  0  0  0  0  0  0  0
    1.2600    1.9300    0.0000 O   0  0  0  0  0  0  0  0  0  0  0  0
    0.0100    0.8500    0.0000 O   0  0  0  0  0  0  0  0  0  0  0  0
  3  2  2  0
  4  2  1  0
  5  3  1  0
  6  4  2  0
 10  5  2  0
 10  6  1  0
 11  7  1  0
 11  8  1  0
 12  1  1  0
 12  7  1  0
 13  8  1  0
 13  9  1  0
 13 10  1  0
 14 11  2  0
 15  9  1  0
 15 12  1  0
 16 12  1  0
 16 13  1  0
M  END
>  <NAME>  (4340) 
5-METHYL-1-PHENYL-6,8-DIOXABICYCLO(3.2.1)OCTAN-3-ONE

>  <SYNONYMS>  (4340) 


>  <SPECTRUM TYPE>  (4340) 
MS1

>  <INSTRUMENT TYPE>  (4340) 
EI-B

>  <INSTRUMENT>  (4340) 
JEOL JMS-DX-300

>  <ION MODE>  (4340) 
P

>  <INCHIKEY>  (4340) 
JHIJFTFLTBMQRN-UHFFFAOYSA-N

>  <FORMULA>  (4340) 
C13H14O3

>  <EXACT MASS>  (4340) 
218.09429430799997

>  <MW>  (4340) 
218

>  <ID>  (4340) 
JP004365

>  <CONTRIBUTOR>  (4340) 
University of Tokyo Team, {Faculty of Engineering, University of Tokyo

>  <COMMENT>  (4340) 
SMILES=O=C(C2)CC(C3)(OC(C)2O3)c(c1)cccc1
InChI=InChI=1S/C13H14O3/c1-12-7-11(14)8-13(16-12,9-15-12)10-5-3-2-4-6-10/h2-6H,7-9H2,1H3
computed SMILES=O=C1CC2(OCC(O2)(C=3C=CC=CC3)C1)C
accession=JP004365
license=CC BY-NC-SA
date=2016.01.19 (Created 2008.10.21, modified 2011.05.06)
author=HAGIWARA H, CHEM. RES. INST. OF NON-AQUEOUS SOLUTIONS, TOHOKU UNIV.
exact mass=218.09429
ionization energy=70 eV
ion type=[M]+*
computed spectral entropy=3.017958804911709
computed normalized entropy=0.8488504508465536
SPLASH=splash10-052f-8900000000-8e922e1328311fcbfdcb
submitter=submitter = University of Tokyo Team (Faculty of Engineering, University of Tokyo)
MoNA Rating=3.75

>  <NUM PEAKS>  (4340) 
35

>  <MASS SPECTRAL PEAKS>  (4340) 
15 7.4
27 6.7
28 7.45
39 1.68
41 12.02
42 9.81
43 99.99
50 6.78
51 22.07
63 5.76
65 9.34
69 5.35
76 5.24
77 48.07
78 8.5
91 20.53
99 10.22
102 7.51
103 29.92
104 7.44
105 79.74
106 6.64
115 16.74
116 0.55
117 8
133 11.6
134 44.74
135 4.58
158 52.25
159 7.94
160 9.38
161 8.76
176 4.03
188 9.5
218 7.59

>  <PREDICTED SPECTRUM>  (4340) 
14 21
15 35
17 7
18 3
26 43
27 128
28 108
29 112
30 32
31 57
37 40
38 74
39 342
40 138
41 263
42 182
43 999
44 157
45 6
50 232
51 434
52 175
53 119
54 74
55 155
56 47
57 53
58 45
59 56
61 18
62 80
63 174
64 86
65 185
67 18
69 97
70 37
71 72
72 37
74 160
75 109
76 202
77 651
78 374
79 127
82 19
85 59
86 18
89 163
90 100
91 340
92 107
99 59
101 28
102 162
103 354
104 274
105 935
106 257
107 16
115 332
116 162
117 201
118 96
119 70
120 84
121 49
128 94
129 70
130 131
131 133
132 230
133 342
134 394
135 113
143 147
144 102
145 72
146 75
147 9
148 17
157 31
158 402
159 137
160 418
161 332
162 38
173 27
175 33
176 291
177 60
188 18
189 49
190 13
191 43
201 68
202 25
203 48
218 216
219 43

$$$$

     RDKit          2D

 19 20  0  0  0  0  0  0  0  0999 V2000
  -11.7900    5.2962    0.0000 C   0  0  0  0  0  0  0  0  0  0  0  0
    2.7999    0.1164    0.0000 C   0  0  0  0  0  0  0  0  0  0  0  0
  -10.2900    5.2962    0.0000 C   0  0  0  0  0  0  0  0  0  0  0  0
   -9.5400    3.9971    0.0000 C   0  0  0  0  0  0  0  0  0  0  0  0
   -8.0400    3.9971    0.0000 C   0  0  0  0  0  0  0  0  0  0  0  0
   -7.2900    2.6981    0.0000 C   0  0  0  0  0  0  0  0  0  0  0  0
   -5.7900    2.6981    0.0000 C   0  0  0  0  0  0  0  0  0  0  0  0
   -5.0400    1.3990    0.0000 C   0  0  0  0  0  0  0  0  0  0  0  0
   -3.5400    1.3990    0.0000 C   0  0  0  0  0  0  0  0  0  0  0  0
   -2.7900    0.1000    0.0000 C   0  0  0  0  0  0  0  0  0  0  0  0
    1.3000   -1.4000    0.0000 C   0  0  0  0  0  0  0  0  0  0  0  0
   -1.2900   -1.4000    0.0000 C   0  0  0  0  0  0  0  0  0  0  0  0
   -1.2900    1.9500    0.0000 C   0  0  0  0  0  0  0  0  0  0  0  0
    0.0100   -2.1500    0.0000 C   0  0  0  0  0  0  0  0  0  0  0  0
    1.3000    0.1000    0.0000 C   0  0  0  0  0  0  0  0  0  0  0  0
   -1.2900    0.1000    0.0000 C   0  0  0  0  0  0  0  0  0  0  0  0
    0.0125   -3.6500    0.0000 O   0  0  0  0  0  0  0  0  0  0  0  0
    1.2600    1.9300    0.0000 O   0  0  0  0  0  0  0  0  0  0  0  0
    0.0100    0.8500    0.0000 O   0  0  0  0  0  0  0  0  0  0  0  0
  3  1  1  0
  4  3  1  0
  5  4  1  0
  6  5  1  0
  7  6  1  0
  8  7  1  0
  9  8  1  0
 10  9  1  0
 14 11  1  0
 14 12  1  0
 15  2  1  0
 15 11  1  0
 16 10  1  0
 16 12  1  0
 16 13  1  0
 17 14  2  0
 18 13  1  0
 18 15  1  0
 19 15  1  0
 19 16  1  0
M  END
>  <NAME>  (4341) 
5-METHYL-1-NONYL-6,8-DIOXABICYCLO(3.2.1)OCTAN-3-ONE

>  <SYNONYMS>  (4341) 


>  <SPECTRUM TYPE>  (4341) 
MS1

>  <INSTRUMENT TYPE>  (4341) 
EI-B

>  <INSTRUMENT>  (4341) 
JEOL JMS-DX-300

>  <ION MODE>  (4341) 
P

>  <INCHIKEY>  (4341) 
PIMWQQQJSCEAQD-UHFFFAOYSA-N

>  <FORMULA>  (4341) 
C16H28O3

>  <EXACT MASS>  (4341) 
268.20384475599997

>  <MW>  (4341) 
268

>  <ID>  (4341) 
JP004364

>  <CONTRIBUTOR>  (4341) 
University of Tokyo Team, {Faculty of Engineering, University of Tokyo

>  <COMMENT>  (4341) 
SMILES=CCCCCCCCCC(C2)(C1)OC(C)(CC(=O)2)O1
InChI=InChI=1S/C16H28O3/c1-3-4-5-6-7-8-9-10-16-12-14(17)11-15(2,19-16)18-13-16/h3-13H2,1-2H3
computed SMILES=O=C1CC2(OCC(O2)(C1)CCCCCCCCC)C
accession=JP004364
date=2016.01.19 (Created 2008.10.21, modified 2011.05.06)
author=HAGIWARA H, CHEM. RES. INST. OF NON-AQUEOUS SOLUTIONS, TOHOKU UNIV.
license=CC BY-NC-SA
exact mass=268.20384
ionization energy=70 eV
ion type=[M]+*
computed spectral entropy=3.0286171331928915
computed normalized entropy=0.7782006622102268
SPLASH=splash10-0007-9100000000-4475bb06b9833777fde7
submitter=submitter = University of Tokyo Team (Faculty of Engineering, University of Tokyo)
MoNA Rating=3.75

>  <NUM PEAKS>  (4341) 
49

>  <MASS SPECTRAL PEAKS>  (4341) 
40 2.12
41 39.72
42 7.22
43 99.99
44 1.75
53 4.96
54 5.89
55 22.33
56 3.78
57 9.43
58 3.75
59 1.48
65 1.49
66 1.47
67 13.34
68 9.02
69 12.3
70 2.53
71 15.15
72 6.59
77 1.33
79 5.07
80 3.28
81 21.24
82 7.3
83 9.24
84 4.07
85 7.77
91 1.2
93 3.14
94 2.55
95 2.13
96 89.65
97 10.53
98 4.31
99 9.84
100 2.57
107 1.97
108 2.38
109 38.88
110 7.78
111 2.99
113 2.26
114 2.62
121 1.2
123 1.35
138 1.36
141 1.21
208 2.05

>  <PREDICTED SPECTRUM>  (4341) 
29 71
39 116
40 38
41 679
42 209
43 999
44 159
45 163
51 0
52 8
53 271
54 313
55 594
56 169
57 352
58 161
59 170
61 21
65 67
66 76
67 526
68 415
69 510
70 103
71 370
72 44
73 19
77 51
79 144
80 111
81 617
82 544
83 339
84 124
85 323
86 89
91 34
93 126
94 52
95 237
96 593
97 433
98 94
99 166
100 42
101 16
107 24
108 147
109 588
110 200
111 98
112 13
113 166
114 53
121 85
123 95
124 8
126 41
127 67
128 57
137 97
138 94
141 22
155 142
183 4
208 110
209 18
223 27
268 13

$$$$

     RDKit          2D

 18 19  0  0  0  0  0  0  0  0999 V2000
    9.0951    1.5010    0.0000 C   0  0  0  0  0  0  0  0  0  0  0  0
   -1.3000   -3.0000    0.0000 C   0  0  0  0  0  0  0  0  0  0  0  0
    7.7962    0.7508    0.0000 C   0  0  0  0  0  0  0  0  0  0  0  0
   -2.6000    0.7500    0.0000 C   0  0  0  0  0  0  0  0  0  0  0  0
   -2.6000   -0.7500    0.0000 C   0  0  0  0  0  0  0  0  0  0  0  0
   -1.3000    1.5000    0.0000 C   0  0  0  0  0  0  0  0  0  0  0  0
    3.8989    1.5002    0.0000 C   0  0  0  0  0  0  0  0  0  0  0  0
    2.6000   -0.7500    0.0000 C   0  0  0  0  0  0  0  0  0  0  0  0
   -1.3000   -1.5000    0.0000 C   0  0  0  0  0  0  0  0  0  0  0  0
    2.6000    0.7500    0.0000 C   0  0  0  0  0  0  0  0  0  0  0  0
    5.1981    0.7504    0.0000 C   0  0  0  0  0  0  0  0  0  0  0  0
    0.0000   -0.7500    0.0000 C   0  0  0  0  0  0  0  0  0  0  0  0
    1.3000    1.5000    0.0000 C   0  0  0  0  0  0  0  0  0  0  0  0
    1.3000   -1.5000    0.0000 N   0  0  0  0  0  0  0  0  0  0  0  0
    0.0000    0.7500    0.0000 N   0  0  0  0  0  0  0  0  0  0  0  0
    5.1983   -0.7496    0.0000 O   0  0  0  0  0  0  0  0  0  0  0  0
    1.3000    3.0000    0.0000 O   0  0  0  0  0  0  0  0  0  0  0  0
    6.4970    1.5006    0.0000 O   0  0  0  0  0  0  0  0  0  0  0  0
  3  1  1  0
  5  4  1  0
  6  4  2  0
  9  2  1  0
  9  5  2  0
 10  7  1  0
 10  8  2  0
 11  7  1  0
 12  9  1  0
 13 10  1  0
 14  8  1  0
 14 12  2  0
 15  6  1  0
 15 12  1  0
 15 13  1  0
 16 11  2  0
 17 13  2  0
 18  3  1  0
 18 11  1  0
M  END
>  <NAME>  (4342) 
9-METHYL-4-OXO-4H-PYRIDO(1,2-A)PYRIMIDINE-3-ACETIC ACID ETHYL ESTER

>  <SYNONYMS>  (4342) 


>  <SPECTRUM TYPE>  (4342) 
MS1

>  <INSTRUMENT TYPE>  (4342) 
EI-B

>  <INSTRUMENT>  (4342) 
MS-902

>  <ION MODE>  (4342) 
P

>  <INCHIKEY>  (4342) 
INWGIESOXMAPPF-UHFFFAOYSA-N

>  <FORMULA>  (4342) 
C13H14N2O3

>  <EXACT MASS>  (4342) 
246.10044230799997

>  <MW>  (4342) 
246

>  <ID>  (4342) 
JP004303

>  <CONTRIBUTOR>  (4342) 
University of Tokyo Team, {Faculty of Engineering, University of Tokyo

>  <COMMENT>  (4342) 
SMILES=CCOC(=O)CC(=C2)C(=O)N(C=1)C(=N2)C(C)=CC1
InChI=InChI=1S/C13H14N2O3/c1-3-18-11(16)7-10-8-14-12-9(2)5-4-6-15(12)13(10)17/h4-6,8H,3,7H2,1-2H3
computed SMILES=O=C(OCC)CC1=CN=C2C(=CC=CN2C1=O)C
accession=JP004303
date=2016.01.19 (Created 2008.10.21, modified 2011.05.06)
author=SASAKI S, TOYOHASHI UNIV. OF TECH.
license=CC BY-NC-SA
exact mass=246.10044
ionization energy=70 eV
ion type=[M]+*
computed spectral entropy=1.6824909856138963
computed normalized entropy=0.46252952142869685
SPLASH=splash10-00di-2900000000-0a247c93e4f2501d06d2
submitter=submitter = University of Tokyo Team (Faculty of Engineering, University of Tokyo)
MoNA Rating=3.75

>  <NUM PEAKS>  (4342) 
38

>  <MASS SPECTRAL PEAKS>  (4342) 
39 5
44 0.7
51 1
52 0.12
55 5
63 1
64 1.5
65 0.85
66 1.5
72 1
72.5 1
78 0.07
86.5 1.5
90 0.7
91 1.2
92 2.12
93 3.2
117 0.7
118 0.7
119 0.4
120 0.5
143 1
144 2.7
145 0.45
146 1
172 0.7
173 99.99
174 1.25
175 1
178 0.5
200 0.7
201 0.37
217 0.2
232 1.2
233 0.2
246 2.5
247 3.7
248 0.5

>  <PREDICTED SPECTRUM>  (4342) 
38 39
39 232
40 60
41 81
42 132
43 96
44 35
50 37
51 104
52 79
53 153
54 52
55 107
62 5
63 96
64 114
65 312
66 157
67 1
77 21
80 16
89 9
90 3
91 120
92 415
93 206
94 57
117 10
118 40
119 173
144 9
145 147
146 90
156 23
173 999
174 377
175 108
176 8
200 138
201 185
246 456
247 169
248 45

$$$$

     RDKit          2D

 18 19  0  0  0  0  0  0  0  0999 V2000
   10.3942    0.7512    0.0000 C   0  0  0  0  0  0  0  0  0  0  0  0
    9.0951    1.5010    0.0000 C   0  0  0  0  0  0  0  0  0  0  0  0
   -2.6000   -0.7500    0.0000 C   0  0  0  0  0  0  0  0  0  0  0  0
   -2.6000    0.7500    0.0000 C   0  0  0  0  0  0  0  0  0  0  0  0
   -1.3000   -1.5000    0.0000 C   0  0  0  0  0  0  0  0  0  0  0  0
    3.8989    1.5002    0.0000 C   0  0  0  0  0  0  0  0  0  0  0  0
    5.1981    0.7504    0.0000 C   0  0  0  0  0  0  0  0  0  0  0  0
   -1.3000    1.5000    0.0000 C   0  0  0  0  0  0  0  0  0  0  0  0
    2.6000   -0.7500    0.0000 C   0  0  0  0  0  0  0  0  0  0  0  0
    2.6000    0.7500    0.0000 C   0  0  0  0  0  0  0  0  0  0  0  0
    0.0000   -0.7500    0.0000 C   0  0  0  0  0  0  0  0  0  0  0  0
    6.4970    1.5006    0.0000 C   0  0  0  0  0  0  0  0  0  0  0  0
    1.3000    1.5000    0.0000 C   0  0  0  0  0  0  0  0  0  0  0  0
    1.3000   -1.5000    0.0000 N   0  0  0  0  0  0  0  0  0  0  0  0
    0.0000    0.7500    0.0000 N   0  0  0  0  0  0  0  0  0  0  0  0
    6.4968    3.0006    0.0000 O   0  0  0  0  0  0  0  0  0  0  0  0
    1.3000    3.0000    0.0000 O   0  0  0  0  0  0  0  0  0  0  0  0
    7.7962    0.7508    0.0000 O   0  0  0  0  0  0  0  0  0  0  0  0
  2  1  1  0
  4  3  1  0
  5  3  2  0
  7  6  1  0
  8  4  2  0
 10  6  1  0
 10  9  2  0
 11  5  1  0
 12  7  1  0
 13 10  1  0
 14  9  1  0
 14 11  2  0
 15  8  1  0
 15 11  1  0
 15 13  1  0
 16 12  2  0
 17 13  2  0
 18  2  1  0
 18 12  1  0
M  END
>  <NAME>  (4343) 
4-OXO-4H-PYRIDO(1,2-A)PYRIMIDINE-3-PROPIONIC ACID ETHYL ESTER

>  <SYNONYMS>  (4343) 


>  <SPECTRUM TYPE>  (4343) 
MS1

>  <INSTRUMENT TYPE>  (4343) 
EI-B

>  <INSTRUMENT>  (4343) 
MS-902

>  <ION MODE>  (4343) 
P

>  <INCHIKEY>  (4343) 
YIXJMFGCUAPJCZ-UHFFFAOYSA-N

>  <FORMULA>  (4343) 
C13H14N2O3

>  <EXACT MASS>  (4343) 
246.10044230799997

>  <MW>  (4343) 
246

>  <ID>  (4343) 
JP004302

>  <CONTRIBUTOR>  (4343) 
University of Tokyo Team, {Faculty of Engineering, University of Tokyo

>  <COMMENT>  (4343) 
SMILES=CCOC(=O)CCC(=C1)C(=O)N(C=2)C(C=CC2)=N1
InChI=InChI=1S/C13H14N2O3/c1-2-18-12(16)7-6-10-9-14-11-5-3-4-8-15(11)13(10)17/h3-5,8-9H,2,6-7H2,1H3
computed SMILES=O=C(OCC)CCC1=CN=C2C=CC=CN2C1=O
accession=JP004302
date=2016.01.19 (Created 2008.10.21, modified 2011.05.06)
author=SASAKI S, TOYOHASHI UNIV. OF TECH.
license=CC BY-NC-SA
exact mass=246.10044
ionization energy=70 eV
ion type=[M]+*
computed spectral entropy=2.5061750226316013
computed normalized entropy=0.7167652231761453
SPLASH=splash10-00di-1930000000-362fad6ec955ebf002f4
submitter=submitter = University of Tokyo Team (Faculty of Engineering, University of Tokyo)
MoNA Rating=3.75

>  <NUM PEAKS>  (4343) 
33

>  <MASS SPECTRAL PEAKS>  (4343) 
39 2.9
41 1.4
51 7.4
52 0.34
53 1.1
55 6.3
69 1.9
78 4.71
79 8
90 2
100.5 1
105 0.97
117 1.1
118 2.4
131 8.6
143 0.39
144 12.3
145 4.3
146 9.4
159 8.29
160 8.6
171 4.9
172 99.99
173 3.71
174 4.7
175 1.4
199 5.4
200 1.2
201 21.4
202 2.4
246 35.7
247 0.54
248 0.3

>  <PREDICTED SPECTRUM>  (4343) 
26 25
27 52
29 128
37 29
38 102
39 358
40 150
41 246
42 160
43 133
44 2
45 78
50 210
51 464
52 409
53 291
54 129
55 239
56 11
57 21
60 41
61 0
62 40
63 146
64 157
65 353
66 263
67 124
68 30
69 42
73 21
76 79
77 184
78 727
79 461
80 180
81 52
84 16
91 219
92 312
93 236
94 346
95 5
97 27
99 22
104 125
105 193
106 274
107 182
108 30
117 69
118 118
119 219
120 59
122 207
125 179
130 106
131 231
132 145
143 7
144 135
145 261
146 256
147 82
148 31
157 28
158 173
159 701
160 241
161 16
171 186
172 527
173 999
174 450
175 106
176 44
199 100
200 219
201 531
202 243
217 109
218 97
245 1
246 522
247 205
248 33

$$$$

     RDKit          2D

 10  9  0  0  0  0  0  0  0  0999 V2000
   -3.5724    5.4375    0.0000 C   0  0  0  0  0  0  0  0  0  0  0  0
    2.9228    3.1875    0.0000 C   0  0  0  0  0  0  0  0  0  0  0  0
   -6.1704    3.9375    0.0000 C   0  0  0  0  0  0  0  0  0  0  0  0
   -2.2733    3.1875    0.0000 C   0  0  0  0  0  0  0  0  0  0  0  0
   -0.9743    3.9375    0.0000 C   0  0  0  0  0  0  0  0  0  0  0  0
   -3.5724    3.9375    0.0000 C   0  0  0  0  0  0  0  0  0  0  0  0
    1.6238    3.9375    0.0000 C   0  0  0  0  0  0  0  0  0  0  0  0
    1.6238    5.4375    0.0000 O   0  0  0  0  0  0  0  0  0  0  0  0
   -4.8714    3.1875    0.0000 O   0  0  0  0  0  0  0  0  0  0  0  0
    0.3248    3.1875    0.0000 O   0  0  0  0  0  0  0  0  0  0  0  0
  5  4  1  0
  6  1  1  0
  6  4  1  0
  7  2  1  0
  8  7  2  0
  9  3  1  0
  9  6  1  0
 10  5  1  0
 10  7  1  0
M  END
>  <NAME>  (4344) 
ACETIC ACID 3-METHOXYBUTYL ESTER

>  <SYNONYMS>  (4344) 


>  <SPECTRUM TYPE>  (4344) 
MS1

>  <INSTRUMENT TYPE>  (4344) 
EI-B

>  <INSTRUMENT>  (4344) 
HITACHI RMU-7M

>  <ION MODE>  (4344) 
P

>  <INCHIKEY>  (4344) 
QMYGFTJCQFEDST-UHFFFAOYSA-N

>  <FORMULA>  (4344) 
C7H14O3

>  <EXACT MASS>  (4344) 
146.09429430799997

>  <MW>  (4344) 
146

>  <ID>  (4344) 
JP004299

>  <CONTRIBUTOR>  (4344) 
University of Tokyo Team, {Faculty of Engineering, University of Tokyo

>  <COMMENT>  (4344) 
SMILES=COC(C)CCOC(C)=O
InChI=InChI=1S/C7H14O3/c1-6(9-3)4-5-10-7(2)8/h6H,4-5H2,1-3H3
computed SMILES=O=C(OCCC(OC)C)C
accession=JP004299
date=2016.01.19 (Created 2008.10.21, modified 2011.05.06)
author=TAJIMA S, GUNMA COLLEGE OF TECHNOLOGY
license=CC BY-NC-SA
exact mass=146.09429
ionization energy=70 eV
ion type=[M]+*
computed spectral entropy=2.2989202574051117
computed normalized entropy=0.6899097130398629
SPLASH=splash10-0a4l-9000000000-0521874dfc383eea9dda
submitter=submitter = University of Tokyo Team (Faculty of Engineering, University of Tokyo)
MoNA Rating=3.75

>  <NUM PEAKS>  (4344) 
28

>  <MASS SPECTRAL PEAKS>  (4344) 
15 4.56
27 2.99
28 1.64
29 10.83
31 14.19
33 1.64
39 2.61
41 10.46
42 3.58
43 46.9
44 1.87
45 3.44
54 1.12
55 10.46
56 3.66
57 1.49
58 2.99
59 99.99
60 3.29
61 2.09
71 19.57
72 2.09
73 1.49
75 1
85 1.64
86 6.35
87 1
115 1

>  <PREDICTED SPECTRUM>  (4344) 
14 46
15 160
19 10
26 89
27 328
28 150
29 403
30 68
31 347
32 38
33 77
37 32
38 84
39 281
40 181
41 480
42 297
43 999
44 144
45 418
46 42
47 22
50 16
53 80
54 70
55 423
56 144
57 173
58 159
59 637
60 211
61 100
69 32
71 312
72 114
73 590
74 99
85 50
86 157
87 550
88 69
101 64
115 82
131 211
132 17

$$$$

     RDKit          2D

  9  9  0  0  0  0  0  0  0  0999 V2000
   -3.1089    2.3334    0.0000 C   0  0  0  0  0  0  0  0  0  0  0  0
    0.0150    2.5767    0.0000 C   0  0  0  0  0  0  0  0  0  0  0  0
    1.4748    2.2651    0.0000 C   0  0  0  0  0  0  0  0  0  0  0  0
   -2.2267    1.1202    0.0000 C   0  0  0  0  0  0  0  0  0  0  0  0
   -0.7350    1.2777    0.0000 C   0  0  0  0  0  0  0  0  0  0  0  0
    0.2648    0.1693    0.0000 C   0  0  0  0  0  0  0  0  0  0  0  0
   -2.8362   -0.2504    0.0000 O   0  0  0  0  0  0  0  0  0  0  0  0
   -0.0507   -1.2971    0.0000 O   0  0  0  0  0  0  0  0  0  0  0  0
    1.6406    0.7722    0.0000 O   0  0  0  0  0  0  0  0  0  0  0  0
  3  2  1  0
  4  1  1  0
  5  2  1  0
  5  4  1  0
  6  5  1  0
  7  4  2  0
  8  6  2  0
  9  3  1  0
  9  6  1  0
M  END
>  <NAME>  (4345) 
ALPHA-ACETYL-GAMMA-BUTYROLACTONE

>  <SYNONYMS>  (4345) 


>  <SPECTRUM TYPE>  (4345) 
MS1

>  <INSTRUMENT TYPE>  (4345) 
EI-B

>  <INSTRUMENT>  (4345) 
HITACHI RMU-7M

>  <ION MODE>  (4345) 
P

>  <INCHIKEY>  (4345) 
OMQHDIHZSDEIFH-UHFFFAOYSA-N

>  <FORMULA>  (4345) 
C6H8O3

>  <EXACT MASS>  (4345) 
128.047344116

>  <MW>  (4345) 
128

>  <ID>  (4345) 
JP004296

>  <CONTRIBUTOR>  (4345) 
University of Tokyo Team, {Faculty of Engineering, University of Tokyo

>  <COMMENT>  (4345) 
SMILES=CC(=O)C(C1)C(=O)OC1
InChI=InChI=1S/C6H8O3/c1-4(7)5-2-3-9-6(5)8/h5H,2-3H2,1H3
computed SMILES=O=C1OCCC1C(=O)C
accession=JP004296
date=2016.01.19 (Created 2008.10.21, modified 2011.05.06)
author=TAJIMA S, GUNMA COLLEGE OF TECHNOLOGY
license=CC BY-NC-SA
exact mass=128.04734
ionization energy=70 eV
ion type=[M]+*
computed spectral entropy=2.6810549293741306
computed normalized entropy=0.7667808183574074
SPLASH=splash10-0006-9000000000-00ed7c337f8bf48b48eb
submitter=submitter = University of Tokyo Team (Faculty of Engineering, University of Tokyo)
MoNA Rating=3.75

>  <NUM PEAKS>  (4345) 
33

>  <MASS SPECTRAL PEAKS>  (4345) 
15 8.55
26 3.44
27 11.45
28 4.23
29 5.64
31 1.32
38 1.67
39 11.01
40 2.47
41 26.87
42 12.78
43 99.99
44 16.21
45 2.11
53 2.29
55 15.42
56 1.76
57 2.2
58 7.93
68 5.2
69 15.86
70 2.64
71 3.44
84 2.64
85 11.45
86 48.46
87 3
95 1.76
110 1.76
111 1.59
113 2.73
126 1.06
128 2.64

>  <PREDICTED SPECTRUM>  (4345) 
14 68
15 153
16 18
17 31
18 51
19 10
25 37
26 167
27 398
28 295
29 362
30 128
31 141
32 36
33 14
34 4
35 42
36 73
37 100
38 188
39 450
40 280
41 533
42 399
43 999
44 240
45 235
46 33
49 37
50 106
51 132
52 149
53 266
54 261
55 309
56 200
57 202
58 138
59 114
60 39
61 63
62 29
64 10
65 106
66 82
67 264
68 240
69 371
70 198
71 162
72 92
73 90
74 57
81 85
82 132
83 175
84 132
85 628
86 449
87 129
88 35
95 96
96 30
97 28
99 103
100 133
109 29
110 219
111 115
112 17
113 311
114 50
128 280
129 77

$$$$

     RDKit          2D

  3  2  0  0  0  0  0  0  0  0999 V2000
   -1.2990    0.7500    0.0000 C   0  0  0  0  0  0  0  0  0  0  0  0
    0.0000    1.5000    0.0000 C   0  0  0  0  0  0  0  0  0  0  0  0
    1.2990    2.2500    0.0000 N   0  0  0  0  0  0  0  0  0  0  0  0
  2  1  1  0
  3  2  3  0
M  END
>  <NAME>  (4346) 
METHYL CYANIDE

>  <SYNONYMS>  (4346) 
ACETONITRILE

>  <SPECTRUM TYPE>  (4346) 
MS1

>  <INSTRUMENT TYPE>  (4346) 
EI-B

>  <INSTRUMENT>  (4346) 
HITACHI RMU-7M

>  <ION MODE>  (4346) 
P

>  <INCHIKEY>  (4346) 
WEVYAHXRMPXWCK-UHFFFAOYSA-N

>  <FORMULA>  (4346) 
C2H3N

>  <EXACT MASS>  (4346) 
41.026549096

>  <MW>  (4346) 
41

>  <ID>  (4346) 
JP004294

>  <CONTRIBUTOR>  (4346) 
University of Tokyo Team, {Faculty of Engineering, University of Tokyo

>  <COMMENT>  (4346) 
SMILES=CC#N
cas=75-05-8
InChI=InChI=1S/C2H3N/c1-2-3/h1H3
computed SMILES=N#CC
accession=JP004294
date=2016.01.19 (Created 2008.10.21, modified 2011.05.06)
author=TAJIMA S, GUNMA COLLEGE OF TECHNOLOGY
license=CC BY-NC-SA
exact mass=41.02655
ionization energy=70 eV
ion type=[M]+*
computed spectral entropy=1.30653804044714
computed normalized entropy=0.5946310877475741
SPLASH=splash10-0006-9000000000-6af7455c7bc61c954070
submitter=submitter = University of Tokyo Team (Faculty of Engineering, University of Tokyo)
MoNA Rating=3.75

>  <NUM PEAKS>  (4346) 
9

>  <MASS SPECTRAL PEAKS>  (4346) 
14 4.34
26 1.35
27 1
28 1
38 8.54
39 16.44
40 50.39
41 99.99
42 4.2

>  <PREDICTED SPECTRUM>  (4346) 
14 176
15 245
16 64
18 0
19 71
25 141
26 382
27 453
28 425
36 95
37 153
38 347
39 161
40 657
41 999
42 346

$$$$

     RDKit          2D

  9  9  0  0  0  0  0  0  0  0999 V2000
    0.9744   -2.8133    0.0000 C   0  0  0  0  0  0  0  0  0  0  0  0
    0.9737    1.6883    0.0000 C   0  0  0  0  0  0  0  0  0  0  0  0
    2.2732    0.9375    0.0000 C   0  0  0  0  0  0  0  0  0  0  0  0
   -0.3254    0.9383    0.0000 C   0  0  0  0  0  0  0  0  0  0  0  0
    0.9746   -1.3133    0.0000 C   0  0  0  0  0  0  0  0  0  0  0  0
    2.2737   -0.5633    0.0000 C   0  0  0  0  0  0  0  0  0  0  0  0
   -0.3249   -0.5625    0.0000 C   0  0  0  0  0  0  0  0  0  0  0  0
    3.5728   -1.3131    0.0000 N   0  0  0  0  0  0  0  0  0  0  0  0
   -1.6239   -1.3125    0.0000 N   0  0  0  0  0  0  0  0  0  0  0  0
  3  2  2  0
  4  2  1  0
  5  1  1  0
  6  3  1  0
  6  5  2  0
  7  4  2  0
  7  5  1  0
  8  6  1  0
  9  7  1  0
M  END
>  <NAME>  (4347) 
2,6-DIAMINOTOLUENE

>  <SYNONYMS>  (4347) 


>  <SPECTRUM TYPE>  (4347) 
MS1

>  <INSTRUMENT TYPE>  (4347) 
EI-B

>  <INSTRUMENT>  (4347) 
HITACHI RMU-7M

>  <ION MODE>  (4347) 
P

>  <INCHIKEY>  (4347) 
RLYCRLGLCUXUPO-UHFFFAOYSA-N

>  <FORMULA>  (4347) 
C7H10N2

>  <EXACT MASS>  (4347) 
122.08439831999999

>  <MW>  (4347) 
122

>  <ID>  (4347) 
JP004290

>  <CONTRIBUTOR>  (4347) 
University of Tokyo Team, {Faculty of Engineering, University of Tokyo

>  <COMMENT>  (4347) 
SMILES=Nc(c1)c(C)c(N)cc1
cas=823-40-5
InChI=InChI=1S/C7H10N2/c1-5-6(8)3-2-4-7(5)9/h2-4H,8-9H2,1H3
computed SMILES=NC1=CC=CC(N)=C1C
accession=JP004290
date=2016.01.19 (Created 2008.10.21, modified 2011.05.06)
author=TAJIMA S, GUNMA COLLEGE OF TECHNOLOGY
license=CC BY-NC-SA
exact mass=122.0844
ionization energy=70 eV
ion type=[M]+*
computed spectral entropy=2.8278058692574795
computed normalized entropy=0.8234759481817723
SPLASH=splash10-00di-5900000000-b977c8e3581fb459bff3
submitter=submitter = University of Tokyo Team (Faculty of Engineering, University of Tokyo)
MoNA Rating=3.75

>  <NUM PEAKS>  (4347) 
31

>  <MASS SPECTRAL PEAKS>  (4347) 
30 2.5
38 2.38
39 7.73
41 5.35
42 3.57
51 5.71
52 5.95
53 4.52
54 4.16
61 5.71
65 6.42
66 6.54
67 3.57
77 14.98
78 10.7
79 6.06
80 5.95
81 8.09
92 2.97
93 13.32
94 20.21
95 4.16
104 24.02
105 14.86
106 33.17
107 13.08
119 2.49
120 2.62
121 54.7
122 99.99
123 9.51

>  <PREDICTED SPECTRUM>  (4347) 
26 19
27 81
28 108
29 32
30 18
37 55
38 107
39 239
40 124
41 246
42 199
43 63
44 69
49 33
50 169
51 244
52 374
53 237
54 256
55 75
56 30
60 5
61 88
62 98
63 155
64 101
65 241
66 220
67 215
68 152
69 55
74 33
75 114
76 74
77 276
78 263
79 290
80 258
81 111
82 64
90 10
91 67
92 174
93 254
94 334
95 214
96 45
103 79
104 268
105 276
106 217
107 108
119 140
120 200
121 607
122 999
123 273
124 47

$$$$

     RDKit          2D

  4  3  0  0  0  0  0  0  0  0999 V2000
    0.9743    0.5625    0.0000 C   0  0  0  0  0  0  0  0  0  0  0  0
   -0.3248    1.3125    0.0000 N   0  0  0  0  0  0  0  0  0  0  0  0
   -1.6238    0.5625    0.0000 O   0  0  0  0  0  0  0  0  0  0  0  0
   -0.3248    2.8125    0.0000 O   0  0  0  0  0  0  0  0  0  0  0  0
  2  1  1  0
  3  2  1  0
  4  2  2  0
M  CHG  2   2   1   3  -1
M  END
>  <NAME>  (4348) 
NITROMETHANE

>  <SYNONYMS>  (4348) 


>  <SPECTRUM TYPE>  (4348) 
MS1

>  <INSTRUMENT TYPE>  (4348) 
EI-B

>  <INSTRUMENT>  (4348) 
HITACHI RMU-7M

>  <ION MODE>  (4348) 
P

>  <INCHIKEY>  (4348) 
LYGJENNIWJXYER-UHFFFAOYSA-N

>  <FORMULA>  (4348) 
CH3NO2

>  <EXACT MASS>  (4348) 
61.016378336

>  <MW>  (4348) 
61

>  <ID>  (4348) 
JP004288

>  <CONTRIBUTOR>  (4348) 
University of Tokyo Team, {Faculty of Engineering, University of Tokyo

>  <COMMENT>  (4348) 
SMILES=C[N+1]([O-1])=O
cas=75-52-5
InChI=InChI=1S/CH3NO2/c1-2(3)4/h1H3
computed SMILES=O=N(=O)C
accession=JP004288
date=2016.01.19 (Created 2008.10.21, modified 2011.05.06)
author=TAJIMA S, GUNMA COLLEGE OF TECHNOLOGY
license=CC BY-NC-SA
exact mass=61.01638
ionization energy=70 eV
ion type=[M]+*
computed spectral entropy=2.574580213001911
computed normalized entropy=0.832916484276919
SPLASH=splash10-015c-9000000000-5d401a6fa80aa916b4e3
submitter=submitter = University of Tokyo Team (Faculty of Engineering, University of Tokyo)
MoNA Rating=3.75

>  <NUM PEAKS>  (4348) 
22

>  <MASS SPECTRAL PEAKS>  (4348) 
14 3.67
15 27.16
16 6.88
17 19.26
18 68.72
26 7.34
27 34.59
28 17.43
29 13.76
30 99.99
31 1.38
38 1.83
39 2.75
40 7.34
41 14.68
42 3.58
43 6.88
44 45.32
45 10.18
46 35.05
60 4.5
61 48.26

>  <PREDICTED SPECTRUM>  (4348) 
14 309
15 531
16 164
17 60
18 51
19 75
25 32
26 74
27 371
28 646
29 806
30 999
31 660
32 217
33 259
35 34
40 13
42 254
43 206
44 927
45 437
46 947
47 213
59 127
61 730
62 65
63 39

$$$$

     RDKit          2D

  6  5  0  0  0  0  0  0  0  0999 V2000
    1.2990    2.2500    0.0000 C   0  0  0  0  0  0  0  0  0  0  0  0
   -3.8971    2.2500    0.0000 C   0  0  0  0  0  0  0  0  0  0  0  0
    0.0000    3.0000    0.0000 C   0  0  0  0  0  0  0  0  0  0  0  0
   -2.5981    3.0000    0.0000 C   0  0  0  0  0  0  0  0  0  0  0  0
   -1.2990    2.2500    0.0000 C   0  0  0  0  0  0  0  0  0  0  0  0
   -1.2990    0.7500    0.0000 O   0  0  0  0  0  0  0  0  0  0  0  0
  3  1  1  0
  4  2  1  0
  5  3  1  0
  5  4  1  0
  6  5  1  0
M  END
>  <NAME>  (4349) 
3-PENTANOL

>  <SYNONYMS>  (4349) 


>  <SPECTRUM TYPE>  (4349) 
MS1

>  <INSTRUMENT TYPE>  (4349) 
EI-B

>  <INSTRUMENT>  (4349) 
HITACHI RMU-7M

>  <ION MODE>  (4349) 
P

>  <INCHIKEY>  (4349) 
AQIXEPGDORPWBJ-UHFFFAOYSA-N

>  <FORMULA>  (4349) 
C5H12O

>  <EXACT MASS>  (4349) 
88.088815004

>  <MW>  (4349) 
88

>  <ID>  (4349) 
JP004283

>  <CONTRIBUTOR>  (4349) 
University of Tokyo Team, {Faculty of Engineering, University of Tokyo

>  <COMMENT>  (4349) 
SMILES=CCC(O)CC
cas=584-02-1
InChI=InChI=1S/C5H12O/c1-3-5(6)4-2/h5-6H,3-4H2,1-2H3
computed SMILES=OC(CC)CC
accession=JP004283
date=2016.01.19 (Created 2008.10.21, modified 2011.05.06)
author=TAJIMA S, GUNMA COLLEGE OF TECHNOLOGY
license=CC BY-NC-SA
exact mass=88.08882
ionization energy=70 eV
ion type=[M]+*
computed spectral entropy=1.9522654400704635
computed normalized entropy=0.7041309172221419
SPLASH=splash10-0a4i-9000000000-4fe4550a20db23d97781
submitter=submitter = University of Tokyo Team (Faculty of Engineering, University of Tokyo)
MoNA Rating=3.75

>  <NUM PEAKS>  (4349) 
16

>  <MASS SPECTRAL PEAKS>  (4349) 
26 1.21
27 9.24
28 2.87
29 12.1
31 45.86
39 5.03
41 35.16
42 3.63
43 6.69
45 2.93
55 3.18
57 7.71
58 6.43
59 99.99
60 4.46
71 1.27

>  <PREDICTED SPECTRUM>  (4349) 
14 43
15 149
18 28
19 40
25 15
26 155
27 533
28 281
29 702
30 196
31 490
32 26
33 98
37 35
38 92
39 457
40 183
41 727
42 279
43 472
45 133
50 88
51 57
53 145
54 71
55 375
56 197
57 688
58 48
59 999
60 139
67 19
68 6
69 132
70 129
71 10
73 156

$$$$

     RDKit          2D

  6  5  0  0  0  0  0  0  0  0999 V2000
   -0.0000   -0.0000    0.0000 C   0  0  0  0  0  0  0  0  0  0  0  0
    1.2990    2.2500    0.0000 C   0  0  0  0  0  0  0  0  0  0  0  0
   -0.0000    1.5000    0.0000 C   0  0  0  0  0  0  0  0  0  0  0  0
   -1.2990    2.2500    0.0000 C   0  0  0  0  0  0  0  0  0  0  0  0
   -2.5981    1.5000    0.0000 O   0  0  0  0  0  0  0  0  0  0  0  0
   -1.2990    3.7500    0.0000 O   0  0  0  0  0  0  0  0  0  0  0  0
  3  1  1  0
  3  2  1  0
  4  3  1  0
  5  4  2  0
  6  4  1  0
M  END
>  <NAME>  (4350) 
ISOBUTYRIC ACID

>  <SYNONYMS>  (4350) 


>  <SPECTRUM TYPE>  (4350) 
MS1

>  <INSTRUMENT TYPE>  (4350) 
EI-B

>  <INSTRUMENT>  (4350) 
HITACHI RMU-7M

>  <ION MODE>  (4350) 
P

>  <INCHIKEY>  (4350) 
KQNPFQTWMSNSAP-UHFFFAOYSA-N

>  <FORMULA>  (4350) 
C4H8O2

>  <EXACT MASS>  (4350) 
88.052429496

>  <MW>  (4350) 
88

>  <ID>  (4350) 
JP004280

>  <CONTRIBUTOR>  (4350) 
University of Tokyo Team, {Faculty of Engineering, University of Tokyo

>  <COMMENT>  (4350) 
SMILES=CC(C)C(O)=O
InChI=InChI=1S/C4H8O2/c1-3(2)4(5)6/h3H,1-2H3,(H,5,6)
computed SMILES=O=C(O)C(C)C
accession=JP004280
date=2016.01.19 (Created 2008.10.21, modified 2011.05.06)
author=TAJIMA S, GUNMA COLLEGE OF TECHNOLOGY
license=CC BY-NC-SA
exact mass=88.05243
ionization energy=70 eV
ion type=[M]+*
computed spectral entropy=2.03160621350593
computed normalized entropy=0.7698226903627412
SPLASH=splash10-0006-9000000000-4c977a2f823cde05363a
submitter=submitter = University of Tokyo Team (Faculty of Engineering, University of Tokyo)
MoNA Rating=3.75

>  <NUM PEAKS>  (4350) 
14

>  <MASS SPECTRAL PEAKS>  (4350) 
18 5.14
27 20.58
28 26.19
29 3.65
39 14.97
41 55.19
42 10.48
43 99.99
44 9.44
45 9.54
55 4.21
71 1
73 18.05
88 1.78

>  <PREDICTED SPECTRUM>  (4350) 
14 78
15 183
16 11
17 11
18 44
19 54
25 33
26 195
27 622
28 361
29 540
31 210
32 46
37 107
38 168
39 595
40 243
41 876
42 488
43 999
44 293
45 882
46 261
47 64
53 124
54 142
55 339
56 140
57 218
58 2
59 89
60 298
61 103
69 5
70 1
71 107
73 443
74 37
87 16
88 592
89 144
90 7

$$$$

     RDKit          2D

  6  5  0  0  0  0  0  0  0  0999 V2000
    0.3248    2.8125    0.0000 C   0  0  0  0  0  0  0  0  0  0  0  0
   -0.9743    2.0625    0.0000 C   0  0  0  0  0  0  0  0  0  0  0  0
    0.3248    4.3125    0.0000 C   0  0  0  0  0  0  0  0  0  0  0  0
   -2.2733    2.8125    0.0000 C   0  0  0  0  0  0  0  0  0  0  0  0
    1.6238    5.0625    0.0000 O   0  0  0  0  0  0  0  0  0  0  0  0
   -3.5724    2.0625    0.0000 O   0  0  0  0  0  0  0  0  0  0  0  0
  1  2  2  0
  3  1  1  0
  4  2  1  0
  5  3  1  0
  6  4  1  0
M  END
>  <NAME>  (4351) 
(Z)-2-BUTEN-1,4-DIOL

>  <SYNONYMS>  (4351) 


>  <SPECTRUM TYPE>  (4351) 
MS1

>  <INSTRUMENT TYPE>  (4351) 
EI-B

>  <INSTRUMENT>  (4351) 
HITACHI RMU-7M

>  <ION MODE>  (4351) 
P

>  <INCHIKEY>  (4351) 
ORTVZLZNOYNASJ-UPHRSURJSA-N

>  <FORMULA>  (4351) 
C4H8O2

>  <EXACT MASS>  (4351) 
88.052429496

>  <MW>  (4351) 
88

>  <ID>  (4351) 
JP004279

>  <CONTRIBUTOR>  (4351) 
University of Tokyo Team, {Faculty of Engineering, University of Tokyo

>  <COMMENT>  (4351) 
SMILES=OCC([H])=C([H])CO
cas=6117-80-2
InChI=InChI=1S/C4H8O2/c5-3-1-2-4-6/h1-2,5-6H,3-4H2/b2-1-
computed SMILES=OCC=CCO
accession=JP004279
date=2016.01.19 (Created 2008.10.21, modified 2011.05.06)
author=TAJIMA S, GUNMA COLLEGE OF TECHNOLOGY
license=CC BY-NC-SA
exact mass=88.05243
ionization energy=70 eV
ion type=[M]+*
computed spectral entropy=2.9812125361992576
computed normalized entropy=0.8601961083621357
SPLASH=splash10-0006-9000000000-2fe127f45bcb84fc131a
submitter=submitter = University of Tokyo Team (Faculty of Engineering, University of Tokyo)
MoNA Rating=3.75

>  <NUM PEAKS>  (4351) 
32

>  <MASS SPECTRAL PEAKS>  (4351) 
15 3.01
19 2.33
26 9.02
27 35.34
28 15.04
29 46.62
30 4.14
31 28.5
37 7.89
38 12.56
39 99.99
40 20.3
41 72.33
42 81.8
43 29.32
44 18.2
45 8.2
47 7.14
49 2.1
50 7.89
51 7.52
52 3.46
53 14.66
54 19.55
55 10.9
56 3.61
57 34.74
58 9.4
68 5.26
69 13.68
70 18.65
71 6.77

>  <PREDICTED SPECTRUM>  (4351) 
14 107
15 218
16 62
17 73
18 164
19 84
25 95
26 362
27 835
28 530
29 758
30 231
31 828
32 154
33 41
35 41
36 95
37 230
38 326
39 859
40 452
41 999
42 611
43 583
44 361
45 394
46 166
47 221
49 181
50 260
51 285
52 271
53 522
54 329
55 658
56 310
57 660
58 256
59 37
60 242
61 218
62 69
63 104
67 104
68 103
69 494
70 687
71 280
73 26

$$$$

     RDKit          2D

 10 10  0  0  0  0  0  0  0  0999 V2000
   -2.8383    0.9819    0.0000 C   0  0  0  0  0  0  0  0  0  0  0  0
   -0.2724    3.9719    0.0000 C   0  0  0  0  0  0  0  0  0  0  0  0
    1.0105    3.2442    0.0000 C   0  0  0  0  0  0  0  0  0  0  0  0
   -1.5495    3.2195    0.0000 C   0  0  0  0  0  0  0  0  0  0  0  0
    1.0467    1.7446    0.0000 C   0  0  0  0  0  0  0  0  0  0  0  0
    1.0326   -1.2416    0.0000 C   0  0  0  0  0  0  0  0  0  0  0  0
   -1.5436    1.7394    0.0000 C   0  0  0  0  0  0  0  0  0  0  0  0
   -0.2607    1.0116    0.0000 C   0  0  0  0  0  0  0  0  0  0  0  0
   -0.2645   -0.4884    0.0000 N   0  0  0  0  0  0  0  0  0  0  0  0
    2.3298   -1.9949    0.0000 O   0  0  0  0  0  0  0  0  0  0  0  0
  3  2  2  0
  4  2  1  0
  5  3  1  0
  7  1  1  0
  7  4  2  0
  8  5  2  0
  8  7  1  0
  9  6  2  0
  9  8  1  0
 10  6  2  0
M  END
>  <NAME>  (4352) 
2-TOLYL ISOCYANATE

>  <SYNONYMS>  (4352) 


>  <SPECTRUM TYPE>  (4352) 
MS1

>  <INSTRUMENT TYPE>  (4352) 
EI-B

>  <INSTRUMENT>  (4352) 
HITACHI RMU-7M

>  <ION MODE>  (4352) 
P

>  <INCHIKEY>  (4352) 
VAYMIYBJLRRIFR-UHFFFAOYSA-N

>  <FORMULA>  (4352) 
C8H7NO

>  <EXACT MASS>  (4352) 
133.052763844

>  <MW>  (4352) 
133

>  <ID>  (4352) 
JP004278

>  <CONTRIBUTOR>  (4352) 
University of Tokyo Team, {Faculty of Engineering, University of Tokyo

>  <COMMENT>  (4352) 
SMILES=O=C=Nc(c1)c(C)ccc1
cas=614-68-6
InChI=InChI=1S/C8H7NO/c1-7-4-2-3-5-8(7)9-6-10/h2-5H,1H3
computed SMILES=O=C=NC=1C=CC=CC1C
accession=JP004278
date=2016.01.19 (Created 2008.10.21, modified 2011.05.06)
author=TAJIMA S, GUNMA COLLEGE OF TECHNOLOGY
license=CC BY-NC-SA
exact mass=133.05276
ionization energy=70 eV
ion type=[M]+*
computed spectral entropy=2.6359764426622516
computed normalized entropy=0.7538883861462863
SPLASH=splash10-0f89-5900000000-7540a1793a8dfee0a7da
submitter=submitter = University of Tokyo Team (Faculty of Engineering, University of Tokyo)
MoNA Rating=3.75

>  <NUM PEAKS>  (4352) 
33

>  <MASS SPECTRAL PEAKS>  (4352) 
27 1.56
28 3.75
29 1.46
37 2.03
38 3.65
39 8.96
50 8.33
51 13.54
52 9.11
53 1.56
61 1.3
62 2.6
63 6.78
64 3.65
65 4.64
74 1.98
75 3.13
76 5.31
77 18.54
78 36.88
79 7.24
89 6.82
90 4.11
91 14.79
102 1.56
103 2.66
104 99.99
105 58.96
106 6.15
107 1.46
132 27.19
133 98.33
134 8.59

>  <PREDICTED SPECTRUM>  (4352) 
14 50
15 91
16 20
17 21
18 43
25 30
26 135
27 181
28 178
29 45
32 11
36 41
37 256
38 359
39 590
40 239
41 212
42 61
43 70
44 69
49 122
50 437
51 580
52 417
53 245
54 85
60 4
61 232
62 314
63 520
64 367
65 516
66 192
67 54
74 208
75 182
76 240
77 514
78 401
79 245
86 127
87 113
88 8
89 355
90 303
91 622
92 37
102 63
104 837
105 669
106 141
118 328
119 101
132 41
133 999
134 298
135 17

$$$$

     RDKit          2D

 16 15  0  0  0  0  0  0  0  0999 V2000
    1.5269   -0.3014    0.0000 C   0  0  0  0  0  0  0  0  0  0  0  0
    2.2769   -1.6005    0.0000 H   0  0  0  0  0  0  0  0  0  0  0  0
    0.7769    0.9976    0.0000 H   0  0  0  0  0  0  0  0  0  0  0  0
    0.2279   -1.0514    0.0000 H   0  0  0  0  0  0  0  0  0  0  0  0
    6.7231    7.1986    0.0000 C   0  0  0  0  0  0  0  0  0  0  0  0
    7.4731    5.8995    0.0000 H   0  0  0  0  0  0  0  0  0  0  0  0
    8.0221    7.9486    0.0000 H   0  0  0  0  0  0  0  0  0  0  0  0
    5.9731    8.4976    0.0000 H   0  0  0  0  0  0  0  0  0  0  0  0
    4.1250    2.6986    0.0000 C   0  0  0  0  0  0  0  0  0  0  0  0
    4.1250    4.1986    0.0000 C   0  0  0  0  0  0  0  0  0  0  0  0
    2.8260    1.9486    0.0000 C   0  0  0  0  0  0  0  0  0  0  0  0
    5.4240    4.9486    0.0000 C   0  0  0  0  0  0  0  0  0  0  0  0
    1.5269    2.6986    0.0000 O   0  0  0  0  0  0  0  0  0  0  0  0
    6.7231    4.1986    0.0000 O   0  0  0  0  0  0  0  0  0  0  0  0
    2.8260    0.4486    0.0000 O   0  0  0  0  0  0  0  0  0  0  0  0
    5.4240    6.4486    0.0000 O   0  0  0  0  0  0  0  0  0  0  0  0
  1  2  1  0
  1  3  1  0
  1  4  1  0
  5  6  1  0
  5  7  1  0
  5  8  1  0
  9 10  2  0
 11  9  1  0
 12 10  1  0
 13 11  2  0
 14 12  2  0
 15  1  1  0
 15 11  1  0
 16  5  1  0
 16 12  1  0
M  ISO  6   2   2   3   2   4   2   6   2   7   2   8   2
M  END
>  <NAME>  (4353) 
FUMARIC ACID DIMETHYL ESTER (1,1,1,8,8,8-D6)

>  <SYNONYMS>  (4353) 


>  <SPECTRUM TYPE>  (4353) 
MS1

>  <INSTRUMENT TYPE>  (4353) 
EI-B

>  <INSTRUMENT>  (4353) 
HITACHI RMU-7M

>  <ION MODE>  (4353) 
P

>  <INCHIKEY>  (4353) 
LDCRTTXIJACKKU-XDMLVRQJSA-N

>  <FORMULA>  (4353) 
C6H8O4

>  <EXACT MASS>  (4353) 
150.079919212

>  <MW>  (4353) 
150

>  <ID>  (4353) 
JP004277

>  <CONTRIBUTOR>  (4353) 
University of Tokyo Team, {Faculty of Engineering, University of Tokyo

>  <COMMENT>  (4353) 
SMILES=[2H]C([2H])([2H])OC(=O)C=CC(=O)OC([2H])([2H])[2H]
InChI=InChI=1S/C6H8O4/c1-9-5(7)3-4-6(8)10-2/h3-4H,1-2H3/b4-3+/i1D3,2D3
computed SMILES=[H]C([H])([H])OC(=O)C=CC(=O)OC([H])([H])[H]
accession=JP004277
date=2016.01.19 (Created 2008.10.21, modified 2011.05.06)
author=TAJIMA S, GUNMA COLLEGE OF TECHNOLOGY
license=CC BY-NC-SA
exact mass=144.04226
ionization energy=70 eV
ion type=[M]+*
computed spectral entropy=2.0746509970894835
computed normalized entropy=0.6925355164092213
SPLASH=splash10-014i-6900000000-b4104322040a20afbf87
submitter=submitter = University of Tokyo Team (Faculty of Engineering, University of Tokyo)
MoNA Rating=3.75

>  <NUM PEAKS>  (4353) 
20

>  <MASS SPECTRAL PEAKS>  (4353) 
26 8.38
30 3.84
41 2.79
42 1.61
44 3.49
53 13.97
54 7.33
62 25.14
81 2.93
82 3
88 32.47
89 1.96
104 1
106 1
115 2.09
116 99.99
117 7.89
118 24.65
119 1.4
150 0.56

>  <PREDICTED SPECTRUM>  (4353) 
14 21
16 44
17 17
18 37
25 24
26 262
27 293
28 197
29 290
30 229
31 296
32 115
33 110
34 39
36 25
40 49
41 294
43 166
44 492
45 439
46 124
47 301
48 78
49 54
50 129
51 68
52 233
53 249
54 999
55 649
57 131
58 199
59 345
60 197
62 110
63 246
64 18
71 540
72 393
75 55
76 178
77 261
78 94
82 618
86 235
87 245
88 33
89 67
90 198
95 55
97 272
98 41
99 766
100 389
101 54
104 113
105 107
115 35
132 335
150 352
151 46

$$$$

     RDKit          2D

 10 10  0  0  0  0  0  0  0  0999 V2000
    3.9006   -2.2462    0.0000 C   0  0  0  0  0  0  0  0  0  0  0  0
    1.2968    0.7438    0.0000 C   0  0  0  0  0  0  0  0  0  0  0  0
    2.5958   -0.0062    0.0000 C   0  0  0  0  0  0  0  0  0  0  0  0
    0.0023    0.0016    0.0000 C   0  0  0  0  0  0  0  0  0  0  0  0
    1.3008   -2.2492    0.0000 C   0  0  0  0  0  0  0  0  0  0  0  0
   -2.5963   -1.4988    0.0000 C   0  0  0  0  0  0  0  0  0  0  0  0
    2.6003   -1.4984    0.0000 C   0  0  0  0  0  0  0  0  0  0  0  0
    0.0018   -1.4992    0.0000 C   0  0  0  0  0  0  0  0  0  0  0  0
   -1.2974   -2.2490    0.0000 N   0  0  0  0  0  0  0  0  0  0  0  0
   -3.8952   -0.7486    0.0000 O   0  0  0  0  0  0  0  0  0  0  0  0
  3  2  2  0
  4  2  1  0
  7  1  1  0
  7  3  1  0
  7  5  2  0
  8  4  2  0
  8  5  1  0
  9  6  2  0
  9  8  1  0
 10  6  2  0
M  END
>  <NAME>  (4354) 
3-TOLYL ISOCYANATE

>  <SYNONYMS>  (4354) 


>  <SPECTRUM TYPE>  (4354) 
MS1

>  <INSTRUMENT TYPE>  (4354) 
EI-B

>  <INSTRUMENT>  (4354) 
HITACHI RMU-7M

>  <ION MODE>  (4354) 
P

>  <INCHIKEY>  (4354) 
CPPGZWWUPFWALU-UHFFFAOYSA-N

>  <FORMULA>  (4354) 
C8H7NO

>  <EXACT MASS>  (4354) 
133.052763844

>  <MW>  (4354) 
133

>  <ID>  (4354) 
JP004276

>  <CONTRIBUTOR>  (4354) 
University of Tokyo Team, {Faculty of Engineering, University of Tokyo

>  <COMMENT>  (4354) 
SMILES=O=C=Nc(c1)cc(C)cc1
cas=621-29-4
InChI=InChI=1S/C8H7NO/c1-7-3-2-4-8(5-7)9-6-10/h2-5H,1H3
computed SMILES=O=C=NC1=CC=CC(=C1)C
accession=JP004276
date=2016.01.19 (Created 2008.10.21, modified 2011.05.06)
author=TAJIMA S, GUNMA COLLEGE OF TECHNOLOGY
license=CC BY-NC-SA
exact mass=133.05276
ionization energy=70 eV
ion type=[M]+*
computed spectral entropy=2.9115229987185542
computed normalized entropy=0.8256453015493839
SPLASH=splash10-001i-6900000000-0f4e6950922482613cd9
submitter=submitter = University of Tokyo Team (Faculty of Engineering, University of Tokyo)
MoNA Rating=3.75

>  <NUM PEAKS>  (4354) 
34

>  <MASS SPECTRAL PEAKS>  (4354) 
26 1.73
27 5.67
28 4.33
37 3.15
38 5.67
39 14.72
41 3.15
44 10
50 7.64
51 11.97
52 9.06
53 2.99
62 3.23
63 7.72
64 4.33
65 6.93
75 3.07
76 5.12
77 17.87
78 24.88
79 7.72
80 1.65
89 3.54
90 3.39
91 19.53
92 1.5
103 3.07
104 60.55
105 22.6
106 15.51
107 13.39
132 36.69
133 99.99
134 8.19

>  <PREDICTED SPECTRUM>  (4354) 
14 40
15 103
16 14
17 10
18 26
25 32
26 137
27 183
28 114
29 82
36 48
37 260
38 367
39 649
40 251
41 259
42 119
43 68
44 33
49 115
50 471
51 601
52 436
53 270
54 120
55 14
60 13
61 217
62 344
63 561
64 410
65 571
66 236
67 73
73 68
74 229
75 265
76 267
77 516
78 402
79 272
80 21
85 45
86 123
87 159
88 71
89 274
90 328
91 437
92 154
100 10
102 14
103 89
104 671
105 640
106 186
107 1
118 266
119 61
131 28
132 463
133 999
134 317
135 20

$$$$

     RDKit          2D

 10  9  0  0  0  0  0  0  0  0999 V2000
   -6.3212    3.8505    0.0000 C   0  0  0  0  0  0  0  0  0  0  0  0
    0.1740    3.1005    0.0000 C   0  0  0  0  0  0  0  0  0  0  0  0
   -0.5760    1.8014    0.0000 H   0  0  0  0  0  0  0  0  0  0  0  0
    1.4731    2.3505    0.0000 H   0  0  0  0  0  0  0  0  0  0  0  0
    0.9240    4.3995    0.0000 H   0  0  0  0  0  0  0  0  0  0  0  0
   -3.7231    3.8505    0.0000 C   0  0  0  0  0  0  0  0  0  0  0  0
   -2.4240    3.1005    0.0000 C   0  0  0  0  0  0  0  0  0  0  0  0
   -2.4240    1.6005    0.0000 O   0  0  0  0  0  0  0  0  0  0  0  0
   -5.0221    3.1005    0.0000 O   0  0  0  0  0  0  0  0  0  0  0  0
   -1.1250    3.8505    0.0000 O   0  0  0  0  0  0  0  0  0  0  0  0
  2  3  1  0
  2  4  1  0
  2  5  1  0
  7  6  1  0
  8  7  2  0
  9  1  1  0
  9  6  1  0
 10  2  1  0
 10  7  1  0
M  ISO  3   3   2   4   2   5   2
M  END
>  <NAME>  (4355) 
METHYL METHOXYACETATE (1,1,1-D3)

>  <SYNONYMS>  (4355) 
METHOXYACETIC ACID METHYL ESTER (1,1,1-D3)

>  <SPECTRUM TYPE>  (4355) 
MS1

>  <INSTRUMENT TYPE>  (4355) 
EI-B

>  <INSTRUMENT>  (4355) 
HITACHI RMU-7M

>  <ION MODE>  (4355) 
P

>  <INCHIKEY>  (4355) 
QRMHDGWGLNLHMN-BMSJAHLVSA-N

>  <FORMULA>  (4355) 
C4H8O3

>  <EXACT MASS>  (4355) 
107.066174354

>  <MW>  (4355) 
107

>  <ID>  (4355) 
JP004275

>  <CONTRIBUTOR>  (4355) 
University of Tokyo Team, {Faculty of Engineering, University of Tokyo

>  <COMMENT>  (4355) 
SMILES=[2H]C([2H])([2H])OC(=O)COC
InChI=InChI=1S/C4H8O3/c1-6-3-4(5)7-2/h3H2,1-2H3/i2D3
computed SMILES=[H]C([H])([H])OC(=O)COC
accession=JP004275
date=2016.01.19 (Created 2008.10.21, modified 2011.05.06)
author=TAJIMA S, GUNMA COLLEGE OF TECHNOLOGY
license=CC BY-NC-SA
exact mass=104.04734
ionization energy=70 eV
ion type=[M]+*
computed spectral entropy=2.2145719304967377
computed normalized entropy=0.7521201648823691
SPLASH=splash10-002b-9000000000-330a755969c71416939a
submitter=submitter = University of Tokyo Team (Faculty of Engineering, University of Tokyo)
MoNA Rating=3.75

>  <NUM PEAKS>  (4355) 
19

>  <MASS SPECTRAL PEAKS>  (4355) 
14 2.87
15 17.2
16 1.79
18 15.27
28 4.01
29 28.67
30 6.31
31 2.87
32 2.15
33 4.3
42 8.6
43 4.09
44 13.62
45 99.99
46 2.22
48 8.32
62 2.87
77 25.52
78 5.73

>  <PREDICTED SPECTRUM>  (4355) 
14 22
15 59
25 20
26 60
27 87
28 72
29 170
30 123
31 199
32 53
33 85
34 43
35 12
37 11
40 54
42 30
43 187
44 82
45 999
46 247
47 134
48 86
49 74
50 13
51 24
52 35
60 156
61 144
62 85
63 18
76 80
77 210
78 40
79 20
92 5

$$$$

     RDKit          2D

 10 10  0  0  0  0  0  0  0  0999 V2000
   -2.5989    1.5002    0.0000 C   0  0  0  0  0  0  0  0  0  0  0  0
   -1.3000   -0.7500    0.0000 C   0  0  0  0  0  0  0  0  0  0  0  0
    0.0000    1.5000    0.0000 C   0  0  0  0  0  0  0  0  0  0  0  0
    0.0000   -1.5000    0.0000 C   0  0  0  0  0  0  0  0  0  0  0  0
    1.3000    0.7500    0.0000 C   0  0  0  0  0  0  0  0  0  0  0  0
    3.8981   -0.7504    0.0000 C   0  0  0  0  0  0  0  0  0  0  0  0
   -1.3000    0.7500    0.0000 C   0  0  0  0  0  0  0  0  0  0  0  0
    1.3000   -0.7500    0.0000 C   0  0  0  0  0  0  0  0  0  0  0  0
    2.5989   -1.5002    0.0000 N   0  0  0  0  0  0  0  0  0  0  0  0
    5.1972   -0.0006    0.0000 O   0  0  0  0  0  0  0  0  0  0  0  0
  4  2  2  0
  5  3  1  0
  7  1  1  0
  7  2  1  0
  7  3  2  0
  8  4  1  0
  8  5  2  0
  9  6  2  0
  9  8  1  0
 10  6  2  0
M  END
>  <NAME>  (4356) 
4-TOLYL ISOCYANATE

>  <SYNONYMS>  (4356) 


>  <SPECTRUM TYPE>  (4356) 
MS1

>  <INSTRUMENT TYPE>  (4356) 
EI-B

>  <INSTRUMENT>  (4356) 
HITACHI RMU-7M

>  <ION MODE>  (4356) 
P

>  <INCHIKEY>  (4356) 
MGYGFNQQGAQEON-UHFFFAOYSA-N

>  <FORMULA>  (4356) 
C8H7NO

>  <EXACT MASS>  (4356) 
133.052763844

>  <MW>  (4356) 
133

>  <ID>  (4356) 
JP004274

>  <CONTRIBUTOR>  (4356) 
University of Tokyo Team, {Faculty of Engineering, University of Tokyo

>  <COMMENT>  (4356) 
SMILES=O=C=Nc(c1)ccc(C)c1
cas=622-58-2
InChI=InChI=1S/C8H7NO/c1-7-2-4-8(5-3-7)9-6-10/h2-5H,1H3
computed SMILES=O=C=NC1=CC=C(C=C1)C
accession=JP004274
date=2016.01.19 (Created 2008.10.21, modified 2011.05.06)
author=TAJIMA S, GUNMA COLLEGE OF TECHNOLOGY
license=CC BY-NC-SA
exact mass=133.05276
ionization energy=70 eV
ion type=[M]+*
computed spectral entropy=2.291057440262982
computed normalized entropy=0.7117570123590559
SPLASH=splash10-001i-2900000000-98e5c80214e341bee61e
submitter=submitter = University of Tokyo Team (Faculty of Engineering, University of Tokyo)
MoNA Rating=3.75

>  <NUM PEAKS>  (4356) 
25

>  <MASS SPECTRAL PEAKS>  (4356) 
26 1.25
27 2.08
38 1.66
39 4.3
50 4.3
51 6.51
52 4.78
62 1.39
63 3.53
64 1.73
65 2.77
75 1.73
76 2.77
77 9.7
78 11.92
79 2.08
90 1.39
91 10.46
103 1.87
104 38.46
105 20.65
106 2.01
132 51.77
133 99.99
134 9.01

>  <PREDICTED SPECTRUM>  (4356) 
14 56
15 129
16 33
17 37
18 64
25 24
26 123
27 237
28 170
29 110
32 35
36 32
37 195
38 268
39 526
40 191
41 237
42 33
43 84
44 36
49 67
50 395
51 533
52 344
53 227
54 57
55 43
57 13
58 18
61 172
62 304
63 520
64 315
65 545
66 142
67 5
74 154
75 175
76 205
77 403
78 327
79 207
80 31
86 87
87 111
88 9
89 286
90 311
91 780
92 26
102 12
103 75
104 347
105 560
106 147
107 18
118 330
119 50
131 58
132 365
133 999
134 285
135 6

$$$$

     RDKit          2D

  9  8  0  0  0  0  0  0  0  0999 V2000
    2.5981    4.5000    0.0000 C   0  0  0  0  0  0  0  0  0  0  0  0
   -2.5981    4.5000    0.0000 C   0  0  0  0  0  0  0  0  0  0  0  0
   -1.2990    3.7500    0.0000 C   0  0  0  0  0  0  0  0  0  0  0  0
   -2.5981    6.0000    0.0000 C   0  0  0  0  0  0  0  0  0  0  0  0
    0.0000    4.5000    0.0000 C   0  0  0  0  0  0  0  0  0  0  0  0
   -1.2990    6.7500    0.0000 O   0  0  0  0  0  0  0  0  0  0  0  0
   -3.8971    6.7500    0.0000 O   0  0  0  0  0  0  0  0  0  0  0  0
    0.0000    6.0000    0.0000 O   0  0  0  0  0  0  0  0  0  0  0  0
    1.2990    3.7500    0.0000 O   0  0  0  0  0  0  0  0  0  0  0  0
  2  3  2  0
  4  2  1  0
  5  3  1  0
  6  4  2  0
  7  4  1  0
  8  5  2  0
  9  1  1  0
  9  5  1  0
M  END
>  <NAME>  (4357) 
MALEIC ACID MONOMETHYL ESTER

>  <SYNONYMS>  (4357) 
CIS-BUTENEDIOIC ACID MONOMETHYL ESTER

>  <SPECTRUM TYPE>  (4357) 
MS1

>  <INSTRUMENT TYPE>  (4357) 
EI-B

>  <INSTRUMENT>  (4357) 
HITACHI RMU-7M

>  <ION MODE>  (4357) 
P

>  <INCHIKEY>  (4357) 
NKHAVTQWNUWKEO-IHWYPQMZSA-N

>  <FORMULA>  (4357) 
C5H6O4

>  <EXACT MASS>  (4357) 
130.026608672

>  <MW>  (4357) 
130

>  <ID>  (4357) 
JP004272

>  <CONTRIBUTOR>  (4357) 
University of Tokyo Team, {Faculty of Engineering, University of Tokyo

>  <COMMENT>  (4357) 
SMILES=COC(=O)C=CC(O)=O
InChI=InChI=1S/C5H6O4/c1-9-5(8)3-2-4(6)7/h2-3H,1H3,(H,6,7)/b3-2-
computed SMILES=O=C(O)C=CC(=O)OC
accession=JP004272
date=2016.01.19 (Created 2008.10.21, modified 2011.05.06)
author=TAJIMA S, GUNMA COLLEGE OF TECHNOLOGY
license=CC BY-NC-SA
exact mass=130.02661
ionization energy=70 eV
ion type=[M]+*
computed spectral entropy=2.4987232485508706
computed normalized entropy=0.8207274867119455
SPLASH=splash10-0w4i-9200000000-7ecdda048539e621b07d
submitter=submitter = University of Tokyo Team (Faculty of Engineering, University of Tokyo)
MoNA Rating=3.75

>  <NUM PEAKS>  (4357) 
21

>  <MASS SPECTRAL PEAKS>  (4357) 
15 20.72
25 9.28
26 71.96
27 3.92
28 6.19
29 23.71
30 3.09
31 31.96
32 22.89
41 4.12
44 11.13
53 12.37
54 99.99
55 5.57
59 16.7
82 2.58
85 11.24
98 21.65
99 3.71
113 81.13
114 6.6

>  <PREDICTED SPECTRUM>  (4357) 
14 64
15 194
16 21
18 0
25 94
26 334
27 510
28 258
29 426
30 23
31 298
32 64
33 121
35 42
36 70
37 108
39 341
40 197
41 532
42 325
43 570
44 282
45 722
46 113
48 23
50 33
52 145
53 520
54 499
55 628
56 216
57 138
58 246
59 741
60 133
61 43
68 94
69 349
70 390
71 878
72 235
73 87
74 1
81 70
84 111
85 348
86 271
87 94
98 685
99 999
100 401
101 224
102 233
112 92
113 159
115 166
130 235

$$$$

     RDKit          2D

  9  8  0  0  0  0  0  0  0  0999 V2000
   -6.4952    4.5000    0.0000 C   0  0  0  0  0  0  0  0  0  0  0  0
    2.5981    3.7500    0.0000 C   0  0  0  0  0  0  0  0  0  0  0  0
   -5.1962    3.7500    0.0000 C   0  0  0  0  0  0  0  0  0  0  0  0
    1.2990    4.5000    0.0000 C   0  0  0  0  0  0  0  0  0  0  0  0
   -3.8971    4.5000    0.0000 C   0  0  0  0  0  0  0  0  0  0  0  0
   -2.5981    3.7500    0.0000 C   0  0  0  0  0  0  0  0  0  0  0  0
    0.0000    3.7500    0.0000 C   0  0  0  0  0  0  0  0  0  0  0  0
   -0.0000    2.2500    0.0000 O   0  0  0  0  0  0  0  0  0  0  0  0
   -1.2990    4.5000    0.0000 O   0  0  0  0  0  0  0  0  0  0  0  0
  3  1  1  0
  4  2  2  0
  5  3  1  0
  6  5  1  0
  7  4  1  0
  8  7  2  0
  9  6  1  0
  9  7  1  0
M  END
>  <NAME>  (4358) 
BUTYL ACRYLATE

>  <SYNONYMS>  (4358) 
ACRYLIC ACID BUTYL ESTER

>  <SPECTRUM TYPE>  (4358) 
MS1

>  <INSTRUMENT TYPE>  (4358) 
EI-B

>  <INSTRUMENT>  (4358) 
HITACHI RMU-7M

>  <ION MODE>  (4358) 
P

>  <INCHIKEY>  (4358) 
CQEYYJKEWSMYFG-UHFFFAOYSA-N

>  <FORMULA>  (4358) 
C7H12O2

>  <EXACT MASS>  (4358) 
128.083729624

>  <MW>  (4358) 
128

>  <ID>  (4358) 
JP004267

>  <CONTRIBUTOR>  (4358) 
University of Tokyo Team, {Faculty of Engineering, University of Tokyo

>  <COMMENT>  (4358) 
SMILES=CCCCOC(=O)C=C
cas=141-32-2
InChI=InChI=1S/C7H12O2/c1-3-5-6-9-7(8)4-2/h4H,2-3,5-6H2,1H3
computed SMILES=O=C(OCCCC)C=C
accession=JP004267
date=2016.01.19 (Created 2008.10.21, modified 2011.05.06)
author=TAJIMA S, GUNMA COLLEGE OF TECHNOLOGY
license=CC BY-NC-SA
exact mass=128.08373
ionization energy=70 eV
ion type=[M]+*
computed spectral entropy=1.9655506622190484
computed normalized entropy=0.6800338596062563
SPLASH=splash10-0a4i-9000000000-f355f1dccc8f1e78f364
submitter=submitter = University of Tokyo Team (Faculty of Engineering, University of Tokyo)
MoNA Rating=3.75

>  <NUM PEAKS>  (4358) 
18

>  <MASS SPECTRAL PEAKS>  (4358) 
26 1.44
27 19.42
28 6.28
29 8.66
31 2.74
39 2.53
41 15.38
43 2.67
55 99.99
56 50.18
57 4.48
68 1.23
69 1.37
70 1.3
73 32.13
74 1.08
85 5.92
99 1.08

>  <PREDICTED SPECTRUM>  (4358) 
14 7
18 12
25 23
26 149
27 534
28 278
29 380
31 68
36 43
37 31
38 79
39 357
40 167
41 602
42 265
43 229
44 88
45 20
50 42
51 108
52 40
53 171
54 226
55 999
56 817
57 320
58 96
69 8
70 10
71 94
72 145
73 388
74 165
75 47

$$$$

     RDKit          2D

  9  8  0  0  0  0  0  0  0  0999 V2000
    1.9486    3.3750    0.0000 C   0  0  0  0  0  0  0  0  0  0  0  0
   -5.8457    3.3750    0.0000 C   0  0  0  0  0  0  0  0  0  0  0  0
   -4.5466    5.6250    0.0000 C   0  0  0  0  0  0  0  0  0  0  0  0
    0.6495    4.1250    0.0000 C   0  0  0  0  0  0  0  0  0  0  0  0
   -3.2476    3.3750    0.0000 C   0  0  0  0  0  0  0  0  0  0  0  0
   -4.5466    4.1250    0.0000 C   0  0  0  0  0  0  0  0  0  0  0  0
   -0.6495    3.3750    0.0000 C   0  0  0  0  0  0  0  0  0  0  0  0
   -0.6495    1.8750    0.0000 O   0  0  0  0  0  0  0  0  0  0  0  0
   -1.9486    4.1250    0.0000 O   0  0  0  0  0  0  0  0  0  0  0  0
  4  1  2  0
  6  2  1  0
  6  3  1  0
  6  5  1  0
  7  4  1  0
  8  7  2  0
  9  5  1  0
  9  7  1  0
M  END
>  <NAME>  (4359) 
ISOBUTYL ACRYLATE

>  <SYNONYMS>  (4359) 
PROPENOIC ACID ISOBUTYL ESTER

>  <SPECTRUM TYPE>  (4359) 
MS1

>  <INSTRUMENT TYPE>  (4359) 
EI-B

>  <INSTRUMENT>  (4359) 
HITACHI RMU-7M

>  <ION MODE>  (4359) 
P

>  <INCHIKEY>  (4359) 
CFVWNXQPGQOHRJ-UHFFFAOYSA-N

>  <FORMULA>  (4359) 
C7H12O2

>  <EXACT MASS>  (4359) 
128.083729624

>  <MW>  (4359) 
128

>  <ID>  (4359) 
JP004266

>  <CONTRIBUTOR>  (4359) 
University of Tokyo Team, {Faculty of Engineering, University of Tokyo

>  <COMMENT>  (4359) 
SMILES=C=CC(=O)OCC(C)C
InChI=InChI=1S/C7H12O2/c1-4-7(8)9-5-6(2)3/h4,6H,1,5H2,2-3H3
computed SMILES=O=C(OCC(C)C)C=C
accession=JP004266
date=2016.01.19 (Created 2008.10.21, modified 2011.05.06)
author=TAJIMA S, GUNMA COLLEGE OF TECHNOLOGY
license=CC BY-NC-SA
exact mass=128.08373
ionization energy=70 eV
ion type=[M]+*
computed spectral entropy=2.0038503777802315
computed normalized entropy=0.6805542216899717
SPLASH=splash10-0a4i-9000000000-da0f5d533d28cd12ce94
submitter=submitter = University of Tokyo Team (Faculty of Engineering, University of Tokyo)
MoNA Rating=3.75

>  <NUM PEAKS>  (4359) 
19

>  <MASS SPECTRAL PEAKS>  (4359) 
26 2.73
27 17.46
28 3.79
29 5.91
31 1.15
39 5.56
40 1.23
41 18.43
42 1.76
43 4.32
44 1.5
55 99.99
56 51.23
57 4.94
69 2.2
70 2.03
72 2.2
73 9.35
85 8.64

>  <PREDICTED SPECTRUM>  (4359) 
14 15
15 26
18 4
25 20
26 144
27 510
28 304
29 353
30 6
31 12
36 12
37 35
38 85
39 354
40 170
41 492
42 270
43 258
44 62
45 17
50 66
51 121
52 54
53 206
54 197
55 999
56 797
57 443
58 122
71 86
72 152
73 346
74 174
75 133
85 13
99 9
113 48

$$$$

     RDKit          2D

  5  4  0  0  0  0  0  0  0  0999 V2000
   -0.0000   -0.0000    0.0000 C   0  0  0  0  0  0  0  0  0  0  0  0
    0.0000    1.5000    0.0000 C   0  0  0  0  0  0  0  0  0  0  0  0
   -1.2990    2.2500    0.0000 C   0  0  0  0  0  0  0  0  0  0  0  0
   -2.5981    1.5000    0.0000 O   0  0  0  0  0  0  0  0  0  0  0  0
   -1.2990    3.7500    0.0000 O   0  0  0  0  0  0  0  0  0  0  0  0
  2  1  2  0
  3  2  1  0
  4  3  2  0
  5  3  1  0
M  END
>  <NAME>  (4360) 
PROPENOIC ACID

>  <SYNONYMS>  (4360) 
ACRYLIC ACID

>  <SPECTRUM TYPE>  (4360) 
MS1

>  <INSTRUMENT TYPE>  (4360) 
EI-B

>  <INSTRUMENT>  (4360) 
HITACHI RMU-7M

>  <ION MODE>  (4360) 
P

>  <INCHIKEY>  (4360) 
NIXOWILDQLNWCW-UHFFFAOYSA-N

>  <FORMULA>  (4360) 
C3H4O2

>  <EXACT MASS>  (4360) 
72.021129368

>  <MW>  (4360) 
72

>  <ID>  (4360) 
JP004265

>  <CONTRIBUTOR>  (4360) 
University of Tokyo Team, {Faculty of Engineering, University of Tokyo

>  <COMMENT>  (4360) 
SMILES=C=CC(O)=O
cas=79-10-7
InChI=InChI=1S/C3H4O2/c1-2-3(4)5/h2H,1H2,(H,4,5)
computed SMILES=O=C(O)C=C
accession=JP004265
date=2016.01.19 (Created 2008.10.21, modified 2011.05.06)
author=TAJIMA S, GUNMA COLLEGE OF TECHNOLOGY
license=CC BY-NC-SA
exact mass=72.02113
ionization energy=70 eV
ion type=[M]+*
computed spectral entropy=2.1113517104812396
computed normalized entropy=0.7452145158466917
SPLASH=splash10-00b9-9000000000-ebdb7274700971cd6f14
submitter=submitter = University of Tokyo Team (Faculty of Engineering, University of Tokyo)
MoNA Rating=3.75

>  <NUM PEAKS>  (4360) 
17

>  <MASS SPECTRAL PEAKS>  (4360) 
15 1.27
25 6.82
26 46.85
27 99.81
28 17.16
29 4.59
43 5.8
44 23.96
45 32.12
46 2.23
53 4.4
54 1.4
55 74.06
56 2.23
71 5.48
72 99.99
73 4.4

>  <PREDICTED SPECTRUM>  (4360) 
14 82
15 81
16 77
17 54
18 54
19 51
25 155
26 484
27 999
28 605
29 558
30 39
31 133
36 143
37 239
38 251
39 35
41 302
42 343
43 564
44 721
45 606
46 30
51 60
53 310
54 651
55 800
56 273
57 344
71 375
72 699
73 230

$$$$

     RDKit          2D

  6  5  0  0  0  0  0  0  0  0999 V2000
    1.2990    2.2500    0.0000 C   0  0  0  0  0  0  0  0  0  0  0  0
   -3.8971    2.2500    0.0000 C   0  0  0  0  0  0  0  0  0  0  0  0
    0.0000    3.0000    0.0000 C   0  0  0  0  0  0  0  0  0  0  0  0
   -1.2990    2.2500    0.0000 C   0  0  0  0  0  0  0  0  0  0  0  0
   -1.2990    0.7500    0.0000 O   0  0  0  0  0  0  0  0  0  0  0  0
   -2.5981    3.0000    0.0000 O   0  0  0  0  0  0  0  0  0  0  0  0
  3  1  2  0
  4  3  1  0
  5  4  2  0
  6  2  1  0
  6  4  1  0
M  END
>  <NAME>  (4361) 
PROPENOIC ACID METHYL ESTER

>  <SYNONYMS>  (4361) 
METHYL ACRYLATE

>  <SPECTRUM TYPE>  (4361) 
MS1

>  <INSTRUMENT TYPE>  (4361) 
EI-B

>  <INSTRUMENT>  (4361) 
HITACHI RMU-7M

>  <ION MODE>  (4361) 
P

>  <INCHIKEY>  (4361) 
BAPJBEWLBFYGME-UHFFFAOYSA-N

>  <FORMULA>  (4361) 
C4H6O2

>  <EXACT MASS>  (4361) 
86.036779432

>  <MW>  (4361) 
86

>  <ID>  (4361) 
JP004264

>  <CONTRIBUTOR>  (4361) 
University of Tokyo Team, {Faculty of Engineering, University of Tokyo

>  <COMMENT>  (4361) 
SMILES=C=CC(=O)OC
InChI=InChI=1S/C4H6O2/c1-3-4(5)6-2/h3H,1H2,2H3
computed SMILES=O=C(OC)C=C
accession=JP004264
date=2016.01.19 (Created 2008.10.21, modified 2011.05.06)
author=TAJIMA S, GUNMA COLLEGE OF TECHNOLOGY
license=CC BY-NC-SA
exact mass=86.03678
ionization energy=70 eV
ion type=[M]+*
computed spectral entropy=1.8433670602352317
computed normalized entropy=0.6377612344153876
SPLASH=splash10-0a4i-9000000000-e696fac186759df178cb
submitter=submitter = University of Tokyo Team (Faculty of Engineering, University of Tokyo)
MoNA Rating=3.75

>  <NUM PEAKS>  (4361) 
18

>  <MASS SPECTRAL PEAKS>  (4361) 
15 8.23
26 3.92
27 31.01
28 2.04
29 1.77
31 2.97
41 1.33
42 4.43
43 3.29
44 4.94
55 99.99
56 3.73
57 2.66
58 6.77
59 3.67
68 1.26
85 12.72
86 1

>  <PREDICTED SPECTRUM>  (4361) 
14 52
15 180
16 3
25 53
26 288
27 656
28 306
29 345
31 164
33 21
37 95
39 306
40 145
41 459
42 123
43 201
44 74
45 169
49 27
50 217
51 38
53 236
54 490
55 999
56 187
57 143
58 105
59 597
71 278
85 339
86 357
87 105

$$$$

     RDKit          2D

 16 15  0  0  0  0  0  0  0  0999 V2000
    0.6495    7.8750    0.0000 C   0  0  0  0  0  0  0  0  0  0  0  0
   -7.1447    3.3750    0.0000 C   0  0  0  0  0  0  0  0  0  0  0  0
    0.6495   -1.1250    0.0000 C   0  0  0  0  0  0  0  0  0  0  0  0
   -0.6495    4.1250    0.0000 C   0  0  0  0  0  0  0  0  0  0  0  0
   -3.2476    4.1250    0.0000 C   0  0  0  0  0  0  0  0  0  0  0  0
   -1.9486    1.8750    0.0000 C   0  0  0  0  0  0  0  0  0  0  0  0
   -0.6495    5.6250    0.0000 C   0  0  0  0  0  0  0  0  0  0  0  0
   -4.5466    3.3750    0.0000 C   0  0  0  0  0  0  0  0  0  0  0  0
   -0.6495    1.1250    0.0000 C   0  0  0  0  0  0  0  0  0  0  0  0
   -1.9486    3.3750    0.0000 N   0  0  0  0  0  0  0  0  0  0  0  0
   -1.9486    6.3750    0.0000 O   0  0  0  0  0  0  0  0  0  0  0  0
   -4.5466    1.8750    0.0000 O   0  0  0  0  0  0  0  0  0  0  0  0
    0.6495    1.8750    0.0000 O   0  0  0  0  0  0  0  0  0  0  0  0
    0.6495    6.3750    0.0000 O   0  0  0  0  0  0  0  0  0  0  0  0
   -5.8457    4.1250    0.0000 O   0  0  0  0  0  0  0  0  0  0  0  0
   -0.6495   -0.3750    0.0000 O   0  0  0  0  0  0  0  0  0  0  0  0
  7  4  1  0
  8  5  1  0
  9  6  1  0
 10  4  1  0
 10  5  1  0
 10  6  1  0
 11  7  2  0
 12  8  2  0
 13  9  2  0
 14  1  1  0
 14  7  1  0
 15  2  1  0
 15  8  1  0
 16  3  1  0
 16  9  1  0
M  END
>  <NAME>  (4362) 
NITRILOTRIACETIC ACID TRIMETHYL ESTER

>  <SYNONYMS>  (4362) 


>  <SPECTRUM TYPE>  (4362) 
MS1

>  <INSTRUMENT TYPE>  (4362) 
EI-B

>  <INSTRUMENT>  (4362) 
JEOL JMS-01-SG

>  <ION MODE>  (4362) 
P

>  <INCHIKEY>  (4362) 
NHKRXCTYPGGSTL-UHFFFAOYSA-N

>  <FORMULA>  (4362) 
C9H15NO6

>  <EXACT MASS>  (4362) 
233.08993719999998

>  <MW>  (4362) 
233

>  <ID>  (4362) 
JP004261

>  <CONTRIBUTOR>  (4362) 
University of Tokyo Team, {Faculty of Engineering, University of Tokyo

>  <COMMENT>  (4362) 
SMILES=COC(=O)CN(CC(=O)OC)CC(=O)OC
InChI=InChI=1S/C9H15NO6/c1-14-7(11)4-10(5-8(12)15-2)6-9(13)16-3/h4-6H2,1-3H3
computed SMILES=O=C(OC)CN(CC(=O)OC)CC(=O)OC
accession=JP004261
date=2016.01.19 (Created 2008.10.21, modified 2011.05.06)
author=KOGA M, UNIV. OF OCCUPATIONAL AND ENVIRONMENTAL HEALTH
license=CC BY-NC-SA
exact mass=233.08994
ionization energy=70 eV
ion type=[M]+*
computed spectral entropy=1.921322649313972
computed normalized entropy=0.6127654899036773
SPLASH=splash10-006t-5900000000-0060568d4ff576ea38b0
submitter=submitter = University of Tokyo Team (Faculty of Engineering, University of Tokyo)
MoNA Rating=3.75

>  <NUM PEAKS>  (4362) 
23

>  <MASS SPECTRAL PEAKS>  (4362) 
42 31.7
45 63.9
46 1.7
56 0.64
57 2.5
72 2.1
88 2.1
100 0.21
102 2.5
103 1.2
115 5.1
116 0.9
118 1.7
146 41.2
147 2.1
158 0.08
160 1.7
173 1.2
174 99.99
175 0.9
188 2.5
201 3.4
233 11.1

>  <PREDICTED SPECTRUM>  (4362) 
15 147
26 32
27 193
28 167
29 254
30 151
31 129
32 25
33 40
36 9
39 28
40 97
41 317
42 638
43 436
44 153
45 822
46 212
47 40
52 28
54 179
55 306
56 524
57 264
58 281
59 567
60 138
61 47
67 50
68 143
69 133
70 286
71 231
72 340
73 281
74 322
75 109
76 20
80 11
83 51
84 241
85 150
86 295
87 182
88 324
89 68
98 220
99 55
100 357
101 97
102 539
103 150
112 14
113 70
114 478
115 120
116 505
117 6
128 268
129 80
130 351
131 126
132 45
140 10
141 64
142 247
146 999
147 195
158 27
160 309
161 79
173 94
174 996
175 404
176 194
188 91
201 95
202 48
218 3
233 408
234 117
235 22

$$$$

     RDKit          2D

 15 16  0  0  0  0  0  0  0  0999 V2000
    7.4362    0.6108    0.0000 C   0  0  0  0  0  0  0  0  0  0  0  0
   -2.9500   -0.8900    0.0000 C   0  0  0  0  0  0  0  0  0  0  0  0
   -2.9500    0.6100    0.0000 C   0  0  0  0  0  0  0  0  0  0  0  0
   -1.6500   -1.6400    0.0000 C   0  0  0  0  0  0  0  0  0  0  0  0
   -1.6500    1.3600    0.0000 C   0  0  0  0  0  0  0  0  0  0  0  0
    2.2400   -0.8900    0.0000 C   0  0  0  0  0  0  0  0  0  0  0  0
    0.9400   -1.6400    0.0000 C   0  0  0  0  0  0  0  0  0  0  0  0
    0.9400    1.3600    0.0000 C   0  0  0  0  0  0  0  0  0  0  0  0
    3.5389    1.3602    0.0000 C   0  0  0  0  0  0  0  0  0  0  0  0
    2.2400    0.6100    0.0000 C   0  0  0  0  0  0  0  0  0  0  0  0
   -0.3500   -0.8900    0.0000 C   0  0  0  0  0  0  0  0  0  0  0  0
   -0.3500    0.6100    0.0000 C   0  0  0  0  0  0  0  0  0  0  0  0
    4.8381    0.6104    0.0000 C   0  0  0  0  0  0  0  0  0  0  0  0
    4.8383   -0.8896    0.0000 O   0  0  0  0  0  0  0  0  0  0  0  0
    6.1370    1.3606    0.0000 O   0  0  0  0  0  0  0  0  0  0  0  0
  3  2  2  0
  4  2  1  0
  5  3  1  0
  7  6  2  0
 10  6  1  0
 10  8  2  0
 10  9  1  0
 11  4  2  0
 11  7  1  0
 12  5  2  0
 12  8  1  0
 12 11  1  0
 13  9  1  0
 14 13  2  0
 15  1  1  0
 15 13  1  0
M  END
>  <NAME>  (4363) 
2-NAPHTHALENEACETIC ACID METHYL ESTER

>  <SYNONYMS>  (4363) 


>  <SPECTRUM TYPE>  (4363) 
MS1

>  <INSTRUMENT TYPE>  (4363) 
EI-B

>  <INSTRUMENT>  (4363) 
JEOL JMS-01-SG

>  <ION MODE>  (4363) 
P

>  <INCHIKEY>  (4363) 
BGYOCQOJCMPTCY-UHFFFAOYSA-N

>  <FORMULA>  (4363) 
C13H12O2

>  <EXACT MASS>  (4363) 
200.083729624

>  <MW>  (4363) 
200

>  <ID>  (4363) 
JP004260

>  <CONTRIBUTOR>  (4363) 
University of Tokyo Team, {Faculty of Engineering, University of Tokyo

>  <COMMENT>  (4363) 
SMILES=COC(=O)Cc(c1)cc(c2)c(ccc2)c1
InChI=InChI=1S/C13H12O2/c1-15-13(14)9-10-6-7-11-4-2-3-5-12(11)8-10/h2-8H,9H2,1H3
computed SMILES=O=C(OC)CC=1C=CC=2C=CC=CC2C1
accession=JP004260
date=2016.01.19 (Created 2008.10.21, modified 2011.05.06)
author=KOGA M, UNIV. OF OCCUPATIONAL AND ENVIRONMENTAL HEALTH
license=CC BY-NC-SA
exact mass=200.08373
ionization energy=70 eV
ion type=[M]+*
computed spectral entropy=2.7185275623432967
computed normalized entropy=0.7183909437245759
SPLASH=splash10-0fr6-2940000000-6d2837ce6897f37f8bff
submitter=submitter = University of Tokyo Team (Faculty of Engineering, University of Tokyo)
MoNA Rating=3.75

>  <NUM PEAKS>  (4363) 
44

>  <MASS SPECTRAL PEAKS>  (4363) 
39 9.8
50 4.6
51 8.9
57 1.59
58 2.8
62 4.6
63 14
64 0.14
65 6.5
69 5.1
70 8.9
71 3.05
75 7
76 2.3
77 1.4
78 0.14
86 2.3
87 5.1
88 3.7
89 1.07
91 6.1
102 2.3
113 7
114 0.51
115 96.2
116 9.8
126 2.3
127 0.32
128 7
129 3.2
138 1.4
139 5.21
140 23
141 71.8
142 82.1
143 0.46
155 3.7
156 1.8
157 1.8
168 0.7
169 2.8
200 99.99
201 45
202 3.7

>  <PREDICTED SPECTRUM>  (4363) 
14 11
15 61
16 8
26 43
27 111
28 16
29 26
31 2
32 4
38 28
39 87
40 5
41 36
42 5
43 96
44 37
45 0
50 82
51 155
52 32
57 8
59 234
61 9
62 80
63 189
64 63
65 83
71 6
74 84
75 156
76 116
77 154
78 41
83 18
84 49
86 92
87 44
88 34
89 104
98 26
101 12
102 59
113 24
114 36
115 533
116 141
125 147
126 135
127 219
128 249
129 195
139 281
140 209
141 999
142 358
143 69
157 8
158 13
168 195
169 34
185 74
186 8
200 768
201 271
202 59

$$$$

     RDKit          2D

 18 18  0  0  0  0  0  0  0  0999 V2000
  -11.6923   -0.7517    0.0000 C   0  0  0  0  0  0  0  0  0  0  0  0
    5.1970    1.5006    0.0000 C   0  0  0  0  0  0  0  0  0  0  0  0
  -10.3931   -1.5015    0.0000 C   0  0  0  0  0  0  0  0  0  0  0  0
   -9.0942   -0.7512    0.0000 C   0  0  0  0  0  0  0  0  0  0  0  0
   -7.7951   -1.5010    0.0000 C   0  0  0  0  0  0  0  0  0  0  0  0
   -6.4962   -0.7508    0.0000 C   0  0  0  0  0  0  0  0  0  0  0  0
   -5.1970   -1.5006    0.0000 C   0  0  0  0  0  0  0  0  0  0  0  0
   -3.8981   -0.7504    0.0000 C   0  0  0  0  0  0  0  0  0  0  0  0
   -2.5989   -1.5002    0.0000 C   0  0  0  0  0  0  0  0  0  0  0  0
   -1.3000    0.7500    0.0000 C   0  0  0  0  0  0  0  0  0  0  0  0
   -0.0000   -1.5000    0.0000 C   0  0  0  0  0  0  0  0  0  0  0  0
    0.0000    1.5000    0.0000 C   0  0  0  0  0  0  0  0  0  0  0  0
    1.3000   -0.7500    0.0000 C   0  0  0  0  0  0  0  0  0  0  0  0
   -1.3000   -0.7500    0.0000 C   0  0  0  0  0  0  0  0  0  0  0  0
    1.3000    0.7500    0.0000 C   0  0  0  0  0  0  0  0  0  0  0  0
    2.5989    1.5002    0.0000 C   0  0  0  0  0  0  0  0  0  0  0  0
    2.5987    3.0002    0.0000 O   0  0  0  0  0  0  0  0  0  0  0  0
    3.8981    0.7504    0.0000 O   0  0  0  0  0  0  0  0  0  0  0  0
  3  1  1  0
  4  3  1  0
  5  4  1  0
  6  5  1  0
  7  6  1  0
  8  7  1  0
  9  8  1  0
 12 10  2  0
 13 11  1  0
 14  9  1  0
 14 10  1  0
 14 11  2  0
 15 12  1  0
 15 13  2  0
 16 15  1  0
 17 16  2  0
 18  2  1  0
 18 16  1  0
M  END
>  <NAME>  (4364) 
4-OCTYLBENZOIC ACID METHYL ESTER

>  <SYNONYMS>  (4364) 


>  <SPECTRUM TYPE>  (4364) 
MS1

>  <INSTRUMENT TYPE>  (4364) 
EI-B

>  <INSTRUMENT>  (4364) 
JEOL JMS-01-SG

>  <ION MODE>  (4364) 
P

>  <INCHIKEY>  (4364) 
NKSKNAWLKUQLNY-UHFFFAOYSA-N

>  <FORMULA>  (4364) 
C16H24O2

>  <EXACT MASS>  (4364) 
248.177630008

>  <MW>  (4364) 
248

>  <ID>  (4364) 
JP004259

>  <CONTRIBUTOR>  (4364) 
University of Tokyo Team, {Faculty of Engineering, University of Tokyo

>  <COMMENT>  (4364) 
SMILES=CCCCCCCCc(c1)ccc(c1)C(=O)OC
InChI=InChI=1S/C16H24O2/c1-3-4-5-6-7-8-9-14-10-12-15(13-11-14)16(17)18-2/h10-13H,3-9H2,1-2H3
computed SMILES=O=C(OC)C1=CC=C(C=C1)CCCCCCCC
accession=JP004259
date=2016.01.19 (Created 2008.10.21, modified 2011.05.06)
author=KOGA M, UNIV. OF OCCUPATIONAL AND ENVIRONMENTAL HEALTH
license=CC BY-NC-SA
exact mass=248.17763
ionization energy=70 eV
ion type=[M]+*
computed spectral entropy=2.8136727369223826
computed normalized entropy=0.743533757320989
SPLASH=splash10-0udm-4930000000-1965e70cf89847512739
submitter=submitter = University of Tokyo Team (Faculty of Engineering, University of Tokyo)
MoNA Rating=3.75

>  <NUM PEAKS>  (4364) 
44

>  <MASS SPECTRAL PEAKS>  (4364) 
39 4.4
41 11.3
42 2
43 1.2
51 3.4
55 6.2
56 1.3
57 1.55
59 2
63 1.3
65 2.7
69 0.2
77 7.5
78 3.1
79 1.3
89 0.34
90 7.5
91 47.9
92 4.4
103 0.34
104 2.4
105 11
106 2.7
115 0.27
117 2
118 9.3
119 7.9
121 0.86
131 8.2
133 2
135 6.5
137 0.24
149 43.1
150 99.99
151 9.6
152 0.17
163 5.8
177 1.3
189 5.8
191 0.51
217 25.8
218 3.1
248 38.9
249 6.5

>  <PREDICTED SPECTRUM>  (4364) 
27 82
28 15
29 134
32 18
37 2
38 57
39 171
40 74
41 312
42 85
43 262
44 85
45 59
50 100
51 214
52 79
53 89
54 21
55 237
56 37
57 86
59 186
61 9
62 73
63 157
64 86
65 190
66 48
67 86
68 33
69 146
70 96
74 110
75 82
76 75
77 340
78 183
79 142
80 16
81 14
82 45
83 41
84 2
85 16
89 218
90 327
91 568
92 209
93 42
98 37
99 13
102 84
103 173
104 209
105 379
106 88
107 115
108 6
115 107
116 46
117 126
118 327
119 296
120 60
121 313
122 141
123 34
131 376
132 102
133 122
134 31
135 330
136 83
145 30
147 71
148 26
149 875
150 999
151 205
160 27
163 151
164 125
165 12
173 87
174 69
177 139
178 118
187 1
188 14
189 171
190 24
191 100
205 85
216 64
217 407
218 188
219 137
220 23
231 8
233 61
247 112
248 627
249 273
250 69

$$$$

     RDKit          2D

 10 10  0  0  0  0  0  0  0  0999 V2000
   -3.5724    2.0075    0.0000 C   0  0  0  0  0  0  0  0  0  0  0  0
    1.6243    2.0083    0.0000 C   0  0  0  0  0  0  0  0  0  0  0  0
    0.3243   -0.2433    0.0000 C   0  0  0  0  0  0  0  0  0  0  0  0
    2.9233    1.2583    0.0000 C   0  0  0  0  0  0  0  0  0  0  0  0
    1.6233   -0.9933    0.0000 C   0  0  0  0  0  0  0  0  0  0  0  0
    0.3248    1.2575    0.0000 C   0  0  0  0  0  0  0  0  0  0  0  0
   -0.9743    2.0075    0.0000 C   0  0  0  0  0  0  0  0  0  0  0  0
    2.9228   -0.2425    0.0000 N   0  0  0  0  0  0  0  0  0  0  0  0
   -0.9743    3.5075    0.0000 O   0  0  0  0  0  0  0  0  0  0  0  0
   -2.2733    1.2575    0.0000 O   0  0  0  0  0  0  0  0  0  0  0  0
  4  2  2  0
  5  3  1  0
  6  2  1  0
  6  3  2  0
  7  6  1  0
  8  4  1  0
  8  5  2  0
  9  7  2  0
 10  1  1  0
 10  7  1  0
M  END
>  <NAME>  (4365) 
4-PYRIDINECARBOXYLIC ACID METHYL ESTER

>  <SYNONYMS>  (4365) 
ISONICOTINIC ACID METHYL ESTER

>  <SPECTRUM TYPE>  (4365) 
MS1

>  <INSTRUMENT TYPE>  (4365) 
EI-B

>  <INSTRUMENT>  (4365) 
JEOL JMS-01-SG

>  <ION MODE>  (4365) 
P

>  <INCHIKEY>  (4365) 
OLXYLDUSSBULGU-UHFFFAOYSA-N

>  <FORMULA>  (4365) 
C7H7NO2

>  <EXACT MASS>  (4365) 
137.047678464

>  <MW>  (4365) 
137

>  <ID>  (4365) 
JP004257

>  <CONTRIBUTOR>  (4365) 
University of Tokyo Team, {Faculty of Engineering, University of Tokyo

>  <COMMENT>  (4365) 
SMILES=COC(=O)c(c1)ccnc1
cas=2459-09-8
InChI=InChI=1S/C7H7NO2/c1-10-7(9)6-2-4-8-5-3-6/h2-5H,1H3
computed SMILES=O=C(OC)C=1C=CN=CC1
accession=JP004257
date=2016.01.19 (Created 2008.10.21, modified 2011.05.06)
author=KOGA M, UNIV. OF OCCUPATIONAL AND ENVIRONMENTAL HEALTH
license=CC BY-NC-SA
exact mass=137.04768
ionization energy=70 eV
ion type=[M]+*
computed spectral entropy=2.2464142764978092
computed normalized entropy=0.6894867141849551
SPLASH=splash10-0ufr-9200000000-c4099eb149c5af9fd73e
submitter=submitter = University of Tokyo Team (Faculty of Engineering, University of Tokyo)
MoNA Rating=3.75

>  <NUM PEAKS>  (4365) 
26

>  <MASS SPECTRAL PEAKS>  (4365) 
36 2.2
38 3.7
39 6.5
49 0.45
50 39.6
51 99.99
52 10
53 0.32
65 2.5
66 2
75 2.5
76 0.4
77 4.5
78 72.3
79 13.8
92 0.25
93 3.7
105 2.5
106 20.6
107 1.78
108 2.5
119 4.7
136 2.5
137 8.04
138 17.5
139 1.2

>  <PREDICTED SPECTRUM>  (4365) 
14 20
15 120
16 16
25 15
26 87
27 38
28 134
29 150
31 27
37 68
42 9
44 43
49 161
50 524
51 763
52 396
53 210
59 218
62 128
63 196
64 20
65 28
66 67
74 91
75 240
76 187
77 68
78 999
79 413
80 263
92 73
93 43
94 77
105 150
106 900
107 427
108 241
109 26
121 15
122 157
123 34
136 242
137 829
138 295
139 52

$$$$

     RDKit          2D

 10 10  0  0  0  0  0  0  0  0999 V2000
   -1.6700   -0.2104    0.0000 C   0  0  0  0  0  0  0  0  0  0  0  0
    4.8270    0.5402    0.0000 C   0  0  0  0  0  0  0  0  0  0  0  0
    3.5270   -0.2098    0.0000 C   0  0  0  0  0  0  0  0  0  0  0  0
    4.8270    2.0402    0.0000 C   0  0  0  0  0  0  0  0  0  0  0  0
    2.2270    2.0402    0.0000 C   0  0  0  0  0  0  0  0  0  0  0  0
    2.2270    0.5402    0.0000 C   0  0  0  0  0  0  0  0  0  0  0  0
    0.9281   -0.2100    0.0000 C   0  0  0  0  0  0  0  0  0  0  0  0
    3.5270    2.7902    0.0000 N   0  0  0  0  0  0  0  0  0  0  0  0
    0.9283   -1.7100    0.0000 O   0  0  0  0  0  0  0  0  0  0  0  0
   -0.3711    0.5398    0.0000 O   0  0  0  0  0  0  0  0  0  0  0  0
  3  2  2  0
  4  2  1  0
  6  3  1  0
  6  5  2  0
  7  6  1  0
  8  4  2  0
  8  5  1  0
  9  7  2  0
 10  1  1  0
 10  7  1  0
M  END
>  <NAME>  (4366) 
3-PYRIDINECARBOXYLIC ACID METHYL ESTER

>  <SYNONYMS>  (4366) 
NICOTINIC ACID METHYL ESTER

>  <SPECTRUM TYPE>  (4366) 
MS1

>  <INSTRUMENT TYPE>  (4366) 
EI-B

>  <INSTRUMENT>  (4366) 
JEOL JMS-01-SG

>  <ION MODE>  (4366) 
P

>  <INCHIKEY>  (4366) 
YNBADRVTZLEFNH-UHFFFAOYSA-N

>  <FORMULA>  (4366) 
C7H7NO2

>  <EXACT MASS>  (4366) 
137.047678464

>  <MW>  (4366) 
137

>  <ID>  (4366) 
JP004256

>  <CONTRIBUTOR>  (4366) 
University of Tokyo Team, {Faculty of Engineering, University of Tokyo

>  <COMMENT>  (4366) 
SMILES=COC(=O)c(c1)cncc1
cas=93-60-7
InChI=InChI=1S/C7H7NO2/c1-10-7(9)6-3-2-4-8-5-6/h2-5H,1H3
computed SMILES=O=C(OC)C=1C=NC=CC1
accession=JP004256
date=2016.01.19 (Created 2008.10.21, modified 2011.05.06)
author=KOGA M, UNIV. OF OCCUPATIONAL AND ENVIRONMENTAL HEALTH
license=CC BY-NC-SA
exact mass=137.04768
ionization energy=70 eV
ion type=[M]+*
computed spectral entropy=2.026423506014331
computed normalized entropy=0.7152385859912579
SPLASH=splash10-004i-9400000000-7c3a8027277de3a14a41
submitter=submitter = University of Tokyo Team (Faculty of Engineering, University of Tokyo)
MoNA Rating=3.75

>  <NUM PEAKS>  (4366) 
17

>  <MASS SPECTRAL PEAKS>  (4366) 
39 2.5
49 2.2
50 18.2
51 4.56
52 6.7
53 3.5
76 2.5
77 0.7
78 99.99
93 3.7
105 9.5
106 8.07
107 10.2
109 4.2
136 23.8
137 8.99
138 7.2

>  <PREDICTED SPECTRUM>  (4366) 
14 1
15 75
25 4
26 58
27 0
28 75
29 23
37 51
42 35
44 53
49 120
50 441
51 700
52 378
53 168
54 3
59 270
62 57
63 57
65 2
66 17
67 3
75 72
76 201
77 50
78 999
79 423
80 204
92 23
94 77
105 158
106 916
107 312
108 147
109 46
122 149
136 193
137 577
138 184

$$$$

     RDKit          2D

 11 10  0  0  0  0  0  0  0  0999 V2000
   -8.4437    5.6250    0.0000 C   0  0  0  0  0  0  0  0  0  0  0  0
    3.2476    4.8750    0.0000 C   0  0  0  0  0  0  0  0  0  0  0  0
   -7.1447    4.8750    0.0000 C   0  0  0  0  0  0  0  0  0  0  0  0
   -5.8457    5.6250    0.0000 C   0  0  0  0  0  0  0  0  0  0  0  0
   -4.5466    4.8750    0.0000 C   0  0  0  0  0  0  0  0  0  0  0  0
   -3.2476    5.6250    0.0000 C   0  0  0  0  0  0  0  0  0  0  0  0
   -1.9486    4.8750    0.0000 C   0  0  0  0  0  0  0  0  0  0  0  0
   -0.6495    5.6250    0.0000 C   0  0  0  0  0  0  0  0  0  0  0  0
    0.6495    4.8750    0.0000 C   0  0  0  0  0  0  0  0  0  0  0  0
    0.6495    3.3750    0.0000 O   0  0  0  0  0  0  0  0  0  0  0  0
    1.9486    5.6250    0.0000 O   0  0  0  0  0  0  0  0  0  0  0  0
  3  1  1  0
  4  3  1  0
  5  4  1  0
  6  5  1  0
  7  6  1  0
  7  8  2  0
  9  8  1  0
 10  9  2  0
 11  2  1  0
 11  9  1  0
M  END
>  <NAME>  (4367) 
2-OCTENOIC ACID METHYL ESTER

>  <SYNONYMS>  (4367) 


>  <SPECTRUM TYPE>  (4367) 
MS1

>  <INSTRUMENT TYPE>  (4367) 
EI-B

>  <INSTRUMENT>  (4367) 
JEOL JMS-01-SG

>  <ION MODE>  (4367) 
P

>  <INCHIKEY>  (4367) 
CJBQSBZJDJHMLF-BQYQJAHWSA-N

>  <FORMULA>  (4367) 
C9H16O2

>  <EXACT MASS>  (4367) 
156.115029752

>  <MW>  (4367) 
156

>  <ID>  (4367) 
JP004254

>  <CONTRIBUTOR>  (4367) 
University of Tokyo Team, {Faculty of Engineering, University of Tokyo

>  <COMMENT>  (4367) 
SMILES=CCCCCC=CC(=O)OC
InChI=InChI=1S/C9H16O2/c1-3-4-5-6-7-8-9(10)11-2/h7-8H,3-6H2,1-2H3/b8-7+
computed SMILES=O=C(OC)C=CCCCCC
accession=JP004254
date=2016.01.19 (Created 2008.10.21, modified 2011.05.06)
license=CC BY-NC-SA
author=KOGA M, UNIV. OF OCCUPATIONAL AND ENVIRONMENTAL HEALTH
exact mass=156.11503
ionization energy=70 eV
ion type=[M]+*
computed spectral entropy=3.1204749929567184
computed normalized entropy=0.7652842029986935
SPLASH=splash10-052u-9200000000-00c457555a207dbda5c5
submitter=submitter = University of Tokyo Team (Faculty of Engineering, University of Tokyo)
MoNA Rating=3.75

>  <NUM PEAKS>  (4367) 
59

>  <MASS SPECTRAL PEAKS>  (4367) 
39 18.2
40 4.5
41 51.4
42 1.98
43 4.8
50 1.6
51 2.1
52 0.16
53 12.6
54 6.1
55 76
56 1.31
57 11.7
58 1.6
59 8.5
60 0.13
65 1.8
66 1.3
67 10.9
68 2.43
69 20.6
70 12.3
71 5.3
72 0.34
74 18.4
75 3.2
77 1.8
79 0.16
80 0.5
81 17.9
82 33.2
83 1.15
84 1.3
85 5.6
87 99.99
88 0.85
91 0.5
92 0.5
93 0.5
95 0.69
96 22.7
97 4
99 2.4
100 1.93
101 22.7
102 1.6
106 0.5
109 0.13
113 38.3
114 12.3
115 2.9
124 2.84
125 41
126 3.4
127 5.6
128 0.13
141 1.8
156 3.2
157 0.5

>  <PREDICTED SPECTRUM>  (4367) 
14 19
15 158
16 0
26 191
27 599
28 250
29 528
30 107
31 146
32 32
33 64
37 148
38 247
39 803
40 383
41 975
42 521
43 643
44 144
45 231
50 224
51 322
52 283
53 574
54 458
55 999
56 305
57 216
58 42
59 583
60 168
61 67
62 31
63 96
64 22
65 279
66 214
67 574
68 479
69 530
70 254
71 253
72 156
73 239
74 434
75 189
76 51
77 197
78 104
79 317
80 304
81 629
82 478
83 361
84 58
85 433
86 94
87 745
88 353
89 27
93 114
94 108
95 327
96 471
97 577
98 171
99 437
100 472
101 284
102 73
106 18
107 24
109 199
111 64
112 78
113 523
114 325
115 89
123 78
124 445
125 559
126 72
127 238
128 145
141 161
156 169
157 11

$$$$

     RDKit          2D

 14 14  0  0  0  0  0  0  0  0999 V2000
   -6.4962    0.7508    0.0000 C   0  0  0  0  0  0  0  0  0  0  0  0
   -1.3000   -0.7500    0.0000 C   0  0  0  0  0  0  0  0  0  0  0  0
    0.0000    1.5000    0.0000 C   0  0  0  0  0  0  0  0  0  0  0  0
    0.0000   -1.5000    0.0000 C   0  0  0  0  0  0  0  0  0  0  0  0
    1.3000    0.7500    0.0000 C   0  0  0  0  0  0  0  0  0  0  0  0
   -2.5989    1.5002    0.0000 C   0  0  0  0  0  0  0  0  0  0  0  0
   -1.3000    0.7500    0.0000 C   0  0  0  0  0  0  0  0  0  0  0  0
    1.3000   -0.7500    0.0000 C   0  0  0  0  0  0  0  0  0  0  0  0
   -3.8981    0.7504    0.0000 C   0  0  0  0  0  0  0  0  0  0  0  0
    2.5989   -1.5002    0.0000 N   0  0  0  0  0  0  0  0  0  0  0  0
   -3.8983   -0.7496    0.0000 O   0  0  0  0  0  0  0  0  0  0  0  0
    3.8981   -0.7504    0.0000 O   0  0  0  0  0  0  0  0  0  0  0  0
    2.5987   -3.0002    0.0000 O   0  0  0  0  0  0  0  0  0  0  0  0
   -5.1970    1.5006    0.0000 O   0  0  0  0  0  0  0  0  0  0  0  0
  4  2  2  0
  5  3  1  0
  7  2  1  0
  7  3  2  0
  7  6  1  0
  8  4  1  0
  8  5  2  0
  9  6  1  0
 10  8  1  0
 11  9  2  0
 12 10  1  0
 13 10  2  0
 14  1  1  0
 14  9  1  0
M  CHG  2  10   1  12  -1
M  END
>  <NAME>  (4368) 
4-NITROPHENYLACETIC ACID METHYL ESTER

>  <SYNONYMS>  (4368) 


>  <SPECTRUM TYPE>  (4368) 
MS1

>  <INSTRUMENT TYPE>  (4368) 
EI-B

>  <INSTRUMENT>  (4368) 
JEOL JMS-01-SG

>  <ION MODE>  (4368) 
P

>  <INCHIKEY>  (4368) 
PQRGTRBYCFLHKY-UHFFFAOYSA-N

>  <FORMULA>  (4368) 
C9H9NO4

>  <EXACT MASS>  (4368) 
195.053157768

>  <MW>  (4368) 
195

>  <ID>  (4368) 
JP004253

>  <CONTRIBUTOR>  (4368) 
University of Tokyo Team, {Faculty of Engineering, University of Tokyo

>  <COMMENT>  (4368) 
SMILES=COC(=O)Cc(c1)ccc(c1)[N+1]([O-1])=O
InChI=InChI=1S/C9H9NO4/c1-14-9(11)6-7-2-4-8(5-3-7)10(12)13/h2-5H,6H2,1H3
computed SMILES=O=C(OC)CC1=CC=C(C=C1)N(=O)=O
accession=JP004253
date=2016.01.19 (Created 2008.10.21, modified 2011.05.06)
author=KOGA M, UNIV. OF OCCUPATIONAL AND ENVIRONMENTAL HEALTH
license=CC BY-NC-SA
exact mass=195.05316
ionization energy=70 eV
ion type=[M]+*
computed spectral entropy=2.8588195576509174
computed normalized entropy=0.7917154659318866
SPLASH=splash10-05g4-9800000000-add3cb4089ff2253f688
submitter=submitter = University of Tokyo Team (Faculty of Engineering, University of Tokyo)
MoNA Rating=3.75

>  <NUM PEAKS>  (4368) 
37

>  <MASS SPECTRAL PEAKS>  (4368) 
35 2
37 11.4
39 12.7
50 1
51 12
52 7.3
59 78.5
60 0.2
62 10
63 31.5
64 14
65 0.4
76 2
77 12
78 44.9
79 0.8
89 73.1
90 77.8
91 18.7
104 0.2
105 11.4
106 41.6
107 3.3
117 0.26
120 85.2
121 49.6
122 4
134 0.2
136 55.7
137 4
149 5.3
151 0.2
164 6
165 3.3
179 2.6
195 99.99
196 10

>  <PREDICTED SPECTRUM>  (4368) 
14 19
15 55
16 7
26 23
27 63
29 17
30 182
31 41
33 12
37 64
38 177
39 335
40 141
41 218
42 140
44 211
45 47
46 66
49 0
50 259
51 444
52 330
53 62
54 59
59 385
60 88
61 58
62 258
63 538
64 381
65 171
66 99
67 55
70 3
72 29
74 112
75 103
76 166
77 367
78 658
79 225
80 82
81 7
86 15
88 14
89 851
90 895
91 465
92 90
93 16
95 20
102 26
103 117
104 100
105 232
106 728
107 13
108 62
116 91
117 88
118 79
119 113
120 663
121 742
122 166
123 44
136 860
137 331
146 4
147 63
149 232
163 143
164 195
165 118
179 69
195 999
196 350
197 89
198 1

$$$$

     RDKit          2D

 14 14  0  0  0  0  0  0  0  0999 V2000
    5.8375    1.8749    0.0000 C   0  0  0  0  0  0  0  0  0  0  0  0
   -0.6622    4.1084    0.0000 C   0  0  0  0  0  0  0  0  0  0  0  0
    0.6368    3.3584    0.0000 C   0  0  0  0  0  0  0  0  0  0  0  0
   -1.9567    3.3662    0.0000 C   0  0  0  0  0  0  0  0  0  0  0  0
   -0.6582    1.1154    0.0000 C   0  0  0  0  0  0  0  0  0  0  0  0
    1.9416    1.1184    0.0000 C   0  0  0  0  0  0  0  0  0  0  0  0
    0.6413    1.8662    0.0000 C   0  0  0  0  0  0  0  0  0  0  0  0
   -1.9572    1.8654    0.0000 C   0  0  0  0  0  0  0  0  0  0  0  0
    3.2394    1.8706    0.0000 C   0  0  0  0  0  0  0  0  0  0  0  0
   -3.2564    1.1156    0.0000 N   0  0  0  0  0  0  0  0  0  0  0  0
    3.2369    3.3706    0.0000 O   0  0  0  0  0  0  0  0  0  0  0  0
   -4.5553    1.8658    0.0000 O   0  0  0  0  0  0  0  0  0  0  0  0
   -3.2566   -0.3844    0.0000 O   0  0  0  0  0  0  0  0  0  0  0  0
    4.5397    1.1228    0.0000 O   0  0  0  0  0  0  0  0  0  0  0  0
  3  2  2  0
  4  2  1  0
  7  3  1  0
  7  5  2  0
  7  6  1  0
  8  4  2  0
  8  5  1  0
  9  6  1  0
 10  8  1  0
 11  9  2  0
 12 10  1  0
 13 10  2  0
 14  1  1  0
 14  9  1  0
M  CHG  2  10   1  12  -1
M  END
>  <NAME>  (4369) 
3-NITROPHENYLACETIC ACID METHYL ESTER

>  <SYNONYMS>  (4369) 


>  <SPECTRUM TYPE>  (4369) 
MS1

>  <INSTRUMENT TYPE>  (4369) 
EI-B

>  <INSTRUMENT>  (4369) 
JEOL JMS-01-SG

>  <ION MODE>  (4369) 
P

>  <INCHIKEY>  (4369) 
BFGYITRIATVARH-UHFFFAOYSA-N

>  <FORMULA>  (4369) 
C9H9NO4

>  <EXACT MASS>  (4369) 
195.053157768

>  <MW>  (4369) 
195

>  <ID>  (4369) 
JP004252

>  <CONTRIBUTOR>  (4369) 
University of Tokyo Team, {Faculty of Engineering, University of Tokyo

>  <COMMENT>  (4369) 
SMILES=COC(=O)Cc(c1)cc(cc1)[N+1]([O-1])=O
InChI=InChI=1S/C9H9NO4/c1-14-9(11)6-7-3-2-4-8(5-7)10(12)13/h2-5H,6H2,1H3
computed SMILES=O=C(OC)CC=1C=CC=C(C1)N(=O)=O
accession=JP004252
date=2016.01.19 (Created 2008.10.21, modified 2011.05.06)
author=KOGA M, UNIV. OF OCCUPATIONAL AND ENVIRONMENTAL HEALTH
license=CC BY-NC-SA
exact mass=195.05316
ionization energy=70 eV
ion type=[M]+*
computed spectral entropy=2.514345767598603
computed normalized entropy=0.6912127045776226
SPLASH=splash10-0077-6900000000-01f089302f3de217abb3
submitter=submitter = University of Tokyo Team (Faculty of Engineering, University of Tokyo)
MoNA Rating=3.75

>  <NUM PEAKS>  (4369) 
38

>  <MASS SPECTRAL PEAKS>  (4369) 
35 1
37 3
38 2
39 0.9
44 5
50 5
51 8
52 0.1
53 1
60 1
62 5
63 2.12
64 6
65 10.1
71 1
75 0.1
77 7
78 11
79 3
89 5.25
90 99.99
91 18.1
104 2
105 0.7
106 11.1
117 1
120 87.8
121 3.43
122 2
134 2
136 69.6
137 0.5
149 11.1
164 3
165 4
186 0.1
195 59.5
196 4

>  <PREDICTED SPECTRUM>  (4369) 
14 22
15 65
16 8
17 7
18 5
26 26
27 73
28 86
29 99
30 204
31 63
33 0
37 34
38 127
39 257
40 105
41 114
42 164
43 3
44 182
45 22
46 44
50 188
51 281
52 224
53 33
54 4
59 236
60 61
61 19
62 186
63 448
64 328
65 93
66 46
74 111
75 74
76 110
77 148
78 437
79 67
80 22
81 5
86 24
88 20
89 598
90 813
91 346
92 102
93 7
105 109
106 424
108 59
117 1
119 78
120 564
121 483
122 195
136 999
137 218
147 38
149 321
150 4
163 20
164 132
165 184
166 8
178 81
179 10
195 721
196 230
197 65

$$$$

     RDKit          2D

 14 14  0  0  0  0  0  0  0  0999 V2000
   -1.6276    0.9782    0.0000 C   0  0  0  0  0  0  0  0  0  0  0  0
    4.8397    3.2407    0.0000 C   0  0  0  0  0  0  0  0  0  0  0  0
    6.1226    2.5130    0.0000 C   0  0  0  0  0  0  0  0  0  0  0  0
    3.5627    2.4883    0.0000 C   0  0  0  0  0  0  0  0  0  0  0  0
    6.1588    1.0134    0.0000 C   0  0  0  0  0  0  0  0  0  0  0  0
    2.2738    0.2507    0.0000 C   0  0  0  0  0  0  0  0  0  0  0  0
    3.5685    1.0082    0.0000 C   0  0  0  0  0  0  0  0  0  0  0  0
    4.8514    0.2805    0.0000 C   0  0  0  0  0  0  0  0  0  0  0  0
    0.9705    0.9932    0.0000 C   0  0  0  0  0  0  0  0  0  0  0  0
    4.8476   -1.2195    0.0000 N   0  0  0  0  0  0  0  0  0  0  0  0
    0.9618    2.4931    0.0000 O   0  0  0  0  0  0  0  0  0  0  0  0
    6.1447   -1.9728    0.0000 O   0  0  0  0  0  0  0  0  0  0  0  0
    3.5467   -1.9663    0.0000 O   0  0  0  0  0  0  0  0  0  0  0  0
   -0.3242    0.2357    0.0000 O   0  0  0  0  0  0  0  0  0  0  0  0
  3  2  2  0
  4  2  1  0
  5  3  1  0
  7  4  2  0
  7  6  1  0
  8  5  2  0
  8  7  1  0
  9  6  1  0
 10  8  1  0
 11  9  2  0
 12 10  1  0
 13 10  2  0
 14  1  1  0
 14  9  1  0
M  CHG  2  10   1  12  -1
M  END
>  <NAME>  (4370) 
2-NITROPHENYLACETIC ACID METHYL ESTER

>  <SYNONYMS>  (4370) 


>  <SPECTRUM TYPE>  (4370) 
MS1

>  <INSTRUMENT TYPE>  (4370) 
EI-B

>  <INSTRUMENT>  (4370) 
JEOL JMS-01-SG

>  <ION MODE>  (4370) 
P

>  <INCHIKEY>  (4370) 
SWMFAAPTSMVULA-UHFFFAOYSA-N

>  <FORMULA>  (4370) 
C9H9NO4

>  <EXACT MASS>  (4370) 
195.05315776799998

>  <MW>  (4370) 
195

>  <ID>  (4370) 
JP004251

>  <CONTRIBUTOR>  (4370) 
University of Tokyo Team, {Faculty of Engineering, University of Tokyo

>  <COMMENT>  (4370) 
SMILES=COC(=O)Cc(c1)c(ccc1)[N+1]([O-1])=O
InChI=InChI=1S/C9H9NO4/c1-14-9(11)6-7-4-2-3-5-8(7)10(12)13/h2-5H,6H2,1H3
computed SMILES=O=C(OC)CC=1C=CC=CC1N(=O)=O
accession=JP004251
date=2016.01.19 (Created 2008.10.21, modified 2011.05.06)
author=KOGA M, UNIV. OF OCCUPATIONAL AND ENVIRONMENTAL HEALTH
license=CC BY-NC-SA
exact mass=195.05316
ionization energy=70 eV
ion type=[M]+*
computed spectral entropy=2.7744066886669025
computed normalized entropy=0.7572976673117845
SPLASH=splash10-002b-9500000000-434fbdf6676cdf7010b1
submitter=submitter = University of Tokyo Team (Faculty of Engineering, University of Tokyo)
MoNA Rating=3.75

>  <NUM PEAKS>  (4370) 
39

>  <MASS SPECTRAL PEAKS>  (4370) 
37 4.1
38 0.12
39 10.8
50 6.6
51 13.8
52 0.66
53 3.3
55 1.2
62 5.4
63 1.88
64 8.7
65 41
66 4.1
76 0.46
77 20.5
78 57.3
79 10.4
80 0.2
89 23.4
90 11.2
91 22.1
92 3.51
93 4.6
104 2
105 11.2
106 0.62
107 1.2
108 3.3
119 2
120 0.46
121 14.2
133 3.3
135 4.6
136 2.63
137 2
149 99.99
150 1
164 1.79
165 1.6

>  <PREDICTED SPECTRUM>  (4370) 
14 50
15 145
16 47
17 41
18 48
25 14
26 92
27 167
28 122
29 211
30 127
31 107
32 15
33 17
34 2
37 105
38 202
39 450
40 160
41 211
42 244
43 210
44 133
45 160
46 100
49 81
50 359
51 531
52 355
53 261
54 128
55 96
56 31
57 50
58 32
59 436
60 155
61 126
62 248
63 516
64 372
65 538
66 228
67 117
68 132
69 103
70 66
73 23
74 179
75 204
76 268
77 579
78 528
79 283
80 161
81 100
82 22
83 31
86 41
87 57
88 35
89 331
90 409
91 490
92 537
93 155
94 122
95 91
96 7
103 18
104 98
105 239
106 211
107 230
108 124
117 9
118 91
119 95
120 249
121 375
122 121
123 28
133 30
134 29
135 156
136 532
137 148
138 48
149 999
150 319
151 111
152 31
164 251
165 104
195 20
196 2

$$$$

     RDKit          2D

 15 15  0  0  0  0  0  0  0  0999 V2000
    7.7951    1.5010    0.0000 C   0  0  0  0  0  0  0  0  0  0  0  0
   -1.3000    0.7500    0.0000 C   0  0  0  0  0  0  0  0  0  0  0  0
   -0.0000   -1.5000    0.0000 C   0  0  0  0  0  0  0  0  0  0  0  0
    0.0000    1.5000    0.0000 C   0  0  0  0  0  0  0  0  0  0  0  0
    1.3000   -0.7500    0.0000 C   0  0  0  0  0  0  0  0  0  0  0  0
    3.8981    0.7504    0.0000 C   0  0  0  0  0  0  0  0  0  0  0  0
   -1.3000   -0.7500    0.0000 C   0  0  0  0  0  0  0  0  0  0  0  0
    1.3000    0.7500    0.0000 C   0  0  0  0  0  0  0  0  0  0  0  0
    5.1970    1.5006    0.0000 C   0  0  0  0  0  0  0  0  0  0  0  0
   -2.5989   -1.5002    0.0000 N   0  0  0  0  0  0  0  0  0  0  0  0
    5.1968    3.0006    0.0000 O   0  0  0  0  0  0  0  0  0  0  0  0
   -3.8981   -0.7504    0.0000 O   0  0  0  0  0  0  0  0  0  0  0  0
   -2.5987   -3.0002    0.0000 O   0  0  0  0  0  0  0  0  0  0  0  0
    6.4962    0.7508    0.0000 O   0  0  0  0  0  0  0  0  0  0  0  0
    2.5989    1.5002    0.0000 O   0  0  0  0  0  0  0  0  0  0  0  0
  4  2  2  0
  5  3  1  0
  7  2  1  0
  7  3  2  0
  8  4  1  0
  8  5  2  0
  9  6  1  0
 10  7  1  0
 11  9  2  0
 12 10  1  0
 13 10  2  0
 14  1  1  0
 14  9  1  0
 15  6  1  0
 15  8  1  0
M  CHG  2  10   1  12  -1
M  END
>  <NAME>  (4371) 
4-NITROPHENOXYACETIC ACID METHYL ESTER

>  <SYNONYMS>  (4371) 


>  <SPECTRUM TYPE>  (4371) 
MS1

>  <INSTRUMENT TYPE>  (4371) 
EI-B

>  <INSTRUMENT>  (4371) 
JEOL JMS-01-SG

>  <ION MODE>  (4371) 
P

>  <INCHIKEY>  (4371) 
ZZVXTAUUUUCLAG-UHFFFAOYSA-N

>  <FORMULA>  (4371) 
C9H9NO5

>  <EXACT MASS>  (4371) 
211.04807238799998

>  <MW>  (4371) 
211

>  <ID>  (4371) 
JP004250

>  <CONTRIBUTOR>  (4371) 
University of Tokyo Team, {Faculty of Engineering, University of Tokyo

>  <COMMENT>  (4371) 
SMILES=COC(=O)COc(c1)ccc(c1)[N+1]([O-1])=O
InChI=InChI=1S/C9H9NO5/c1-14-9(11)6-15-8-4-2-7(3-5-8)10(12)13/h2-5H,6H2,1H3
computed SMILES=O=C(OC)COC1=CC=C(C=C1)N(=O)=O
accession=JP004250
date=2016.01.19 (Created 2008.10.21, modified 2011.05.06)
author=KOGA M, UNIV. OF OCCUPATIONAL AND ENVIRONMENTAL HEALTH
license=CC BY-NC-SA
exact mass=211.04807
ionization energy=70 eV
ion type=[M]+*
computed spectral entropy=2.787044965895835
computed normalized entropy=0.7279462026533968
SPLASH=splash10-0ik9-9860000000-712db30f0a4b09eec5b6
submitter=submitter = University of Tokyo Team (Faculty of Engineering, University of Tokyo)
MoNA Rating=3.75

>  <NUM PEAKS>  (4371) 
46

>  <MASS SPECTRAL PEAKS>  (4371) 
35 0.9
37 1.2
38 1.9
39 0.21
40 0.9
42 3.6
44 1.4
45 11.9
50 14.3
51 0.38
52 1.9
53 0.9
59 2.6
62 0.17
63 8.7
64 11.9
65 3.4
66 0.21
73 14.3
75 17.2
76 20.4
77 0.63
78 9.4
79 3.8
80 1.4
91 0.12
92 18.2
93 2.1
94 3.8
105 0.19
106 13.8
107 5.1
108 6.5
109 0.17
115 1.9
122 25.5
123 2.9
136 0.41
137 1.9
152 83.2
153 6.5
181 0.97
195 4.1
211 99.99
212 10.4
213 1.2

>  <PREDICTED SPECTRUM>  (4371) 
14 16
15 93
16 4
26 3
29 80
30 109
31 19
33 25
37 94
38 216
39 118
40 63
41 31
42 348
43 242
45 586
46 173
49 52
50 421
51 330
52 295
53 182
54 42
59 435
60 4
61 89
62 221
63 530
64 472
65 203
66 106
67 65
68 28
69 31
71 1
73 419
74 270
75 423
76 413
77 112
78 260
79 171
80 138
81 39
90 84
91 218
92 465
93 211
94 249
95 78
105 115
106 388
107 206
108 210
109 145
120 21
121 158
122 502
123 280
124 41
137 183
138 145
139 22
152 819
153 325
154 31
165 67
180 31
181 90
195 15
211 999
212 349
213 147

$$$$

     RDKit          2D

 17 17  0  0  0  0  0  0  0  0999 V2000
   -3.2482    0.3752    0.0000 C   0  0  0  0  0  0  0  0  0  0  0  0
    3.2477    4.1256    0.0000 C   0  0  0  0  0  0  0  0  0  0  0  0
    1.9490   -2.6258    0.0000 C   0  0  0  0  0  0  0  0  0  0  0  0
    0.6495   -1.8750    0.0000 C   0  0  0  0  0  0  0  0  0  0  0  0
    3.2481   -1.8758    0.0000 C   0  0  0  0  0  0  0  0  0  0  0  0
    0.6490   -0.3742    0.0000 C   0  0  0  0  0  0  0  0  0  0  0  0
    3.2476   -0.3750    0.0000 C   0  0  0  0  0  0  0  0  0  0  0  0
    1.9481    0.3758    0.0000 C   0  0  0  0  0  0  0  0  0  0  0  0
   -0.6501    0.3756    0.0000 C   0  0  0  0  0  0  0  0  0  0  0  0
    1.9483    1.8758    0.0000 C   0  0  0  0  0  0  0  0  0  0  0  0
    4.5466    0.3750    0.0000 N   0  0  0  0  0  0  0  0  0  0  0  0
   -0.6504    1.8756    0.0000 O   0  0  0  0  0  0  0  0  0  0  0  0
    0.6494    2.6260    0.0000 O   0  0  0  0  0  0  0  0  0  0  0  0
    5.8457   -0.3750    0.0000 O   0  0  0  0  0  0  0  0  0  0  0  0
    4.5466    1.8750    0.0000 O   0  0  0  0  0  0  0  0  0  0  0  0
   -1.9490   -0.3746    0.0000 O   0  0  0  0  0  0  0  0  0  0  0  0
    3.2475    2.6256    0.0000 O   0  0  0  0  0  0  0  0  0  0  0  0
  4  3  2  0
  5  3  1  0
  6  4  1  0
  7  5  2  0
  8  6  2  0
  8  7  1  0
  9  6  1  0
 10  8  1  0
 11  7  1  0
 12  9  2  0
 13 10  2  0
 14 11  1  0
 15 11  2  0
 16  1  1  0
 16  9  1  0
 17  2  1  0
 17 10  1  0
M  CHG  2  11   1  14  -1
M  END
>  <NAME>  (4372) 
3-NITROPHTHALIC ACID DIMETHYL ESTER

>  <SYNONYMS>  (4372) 


>  <SPECTRUM TYPE>  (4372) 
MS1

>  <INSTRUMENT TYPE>  (4372) 
EI-B

>  <INSTRUMENT>  (4372) 
JEOL JMS-01-SG

>  <ION MODE>  (4372) 
P

>  <INCHIKEY>  (4372) 
MLQMIKSBTAZNBK-UHFFFAOYSA-N

>  <FORMULA>  (4372) 
C10H9NO6

>  <EXACT MASS>  (4372) 
239.04298700799998

>  <MW>  (4372) 
239

>  <ID>  (4372) 
JP004249

>  <CONTRIBUTOR>  (4372) 
University of Tokyo Team, {Faculty of Engineering, University of Tokyo

>  <COMMENT>  (4372) 
SMILES=COC(=O)c(c1)c(C(=O)OC)c(cc1)[N+1]([O-1])=O
InChI=InChI=1S/C10H9NO6/c1-16-9(12)6-4-3-5-7(11(14)15)8(6)10(13)17-2/h3-5H,1-2H3
computed SMILES=O=C(OC)C1=CC=CC(=C1C(=O)OC)N(=O)=O
accession=JP004249
date=2016.01.19 (Created 2008.10.21, modified 2011.05.06)
author=KOGA M, UNIV. OF OCCUPATIONAL AND ENVIRONMENTAL HEALTH
license=CC BY-NC-SA
exact mass=239.04299
ionization energy=70 eV
ion type=[M]+*
computed spectral entropy=1.8183475201316133
computed normalized entropy=0.5882635219571437
SPLASH=splash10-0a4i-2290000000-81c23f566fe6f622d399
submitter=submitter = University of Tokyo Team (Faculty of Engineering, University of Tokyo)
MoNA Rating=3.75

>  <NUM PEAKS>  (4372) 
22

>  <MASS SPECTRAL PEAKS>  (4372) 
39 1.3
40 1.6
50 1.3
63 0.3
75 11.3
76 10
77 3.6
78 0.23
91 2.3
92 1.6
103 2.3
104 2.73
105 5.6
119 5.3
120 5
132 0.73
135 1.6
150 1.3
177 2.3
208 99.99
209 15
210 1.6

>  <PREDICTED SPECTRUM>  (4372) 
14 7
15 93
16 18
29 30
30 160
31 41
37 77
38 106
39 112
40 27
41 3
43 110
44 152
45 125
46 45
49 47
50 293
51 233
52 102
53 178
54 18
55 21
57 4
59 310
60 12
61 142
62 247
63 342
64 143
65 102
66 55
69 21
73 48
74 236
75 452
76 395
77 274
78 138
79 93
80 3
81 66
82 60
83 20
86 22
88 60
89 79
90 157
91 211
92 182
93 67
103 128
104 200
105 209
106 40
107 119
118 19
119 238
120 54
121 104
122 92
131 30
132 56
133 73
134 155
135 65
147 52
148 179
149 230
150 229
161 63
162 270
163 6
177 128
178 276
193 18
194 46
208 999
209 312
210 52
239 302
240 63

$$$$

     RDKit          2D

  9  9  0  0  0  0  0  0  0  0999 V2000
    4.1942    0.7260    0.0000 C   0  0  0  0  0  0  0  0  0  0  0  0
   -1.6821   -1.7958    0.0000 C   0  0  0  0  0  0  0  0  0  0  0  0
   -0.9321   -0.4967    0.0000 C   0  0  0  0  0  0  0  0  0  0  0  0
   -0.6737   -2.9092    0.0000 C   0  0  0  0  0  0  0  0  0  0  0  0
    0.5363   -0.8134    0.0000 C   0  0  0  0  0  0  0  0  0  0  0  0
    1.6522    0.1890    0.0000 C   0  0  0  0  0  0  0  0  0  0  0  0
    1.3422    1.6566    0.0000 O   0  0  0  0  0  0  0  0  0  0  0  0
    3.0783   -0.2763    0.0000 O   0  0  0  0  0  0  0  0  0  0  0  0
    0.6934   -2.3013    0.0000 S   0  0  0  0  0  0  0  0  0  0  0  0
  3  2  1  0
  4  2  2  0
  5  3  2  0
  6  5  1  0
  7  6  2  0
  8  1  1  0
  8  6  1  0
  9  4  1  0
  9  5  1  0
M  END
>  <NAME>  (4373) 
2-THIOPHENECARBOXYLIC ACID METHYL ESTER

>  <SYNONYMS>  (4373) 


>  <SPECTRUM TYPE>  (4373) 
MS1

>  <INSTRUMENT TYPE>  (4373) 
EI-B

>  <INSTRUMENT>  (4373) 
JEOL JMS-01-SG

>  <ION MODE>  (4373) 
P

>  <INCHIKEY>  (4373) 
PGBFYLVIMDQYMS-UHFFFAOYSA-N

>  <FORMULA>  (4373) 
C6H6O2S

>  <EXACT MASS>  (4373) 
142.008850432

>  <MW>  (4373) 
142

>  <ID>  (4373) 
JP004248

>  <CONTRIBUTOR>  (4373) 
University of Tokyo Team, {Faculty of Engineering, University of Tokyo

>  <COMMENT>  (4373) 
SMILES=COC(=O)c(c1)scc1
cas=5380-42-7
InChI=InChI=1S/C6H6O2S/c1-8-6(7)5-3-2-4-9-5/h2-4H,1H3
computed SMILES=O=C(OC)C=1SC=CC1
accession=JP004248
date=2016.01.19 (Created 2008.10.21, modified 2011.05.06)
author=KOGA M, UNIV. OF OCCUPATIONAL AND ENVIRONMENTAL HEALTH
license=CC BY-NC-SA
exact mass=142.00885
ionization energy=70 eV
ion type=[M]+*
computed spectral entropy=1.3830963078293261
computed normalized entropy=0.5240872535463125
SPLASH=splash10-03di-2900000000-23886da092ff1745f6b5
submitter=submitter = University of Tokyo Team (Faculty of Engineering, University of Tokyo)
MoNA Rating=3.75

>  <NUM PEAKS>  (4373) 
14

>  <MASS SPECTRAL PEAKS>  (4373) 
38 1.3
39 22.3
57 1.3
81 0.08
82 1.7
83 8.7
97 0.8
111 99.99
112 7
113 4.3
141 2.1
142 3.72
143 2.6
144 1.7

>  <PREDICTED SPECTRUM>  (4373) 
14 19
15 133
25 9
26 63
27 72
28 42
29 149
30 25
31 33
33 7
37 143
38 152
39 442
40 98
41 50
43 1
44 33
45 236
47 56
49 68
50 108
51 91
52 70
53 177
54 54
55 98
56 23
57 195
58 204
59 218
61 9
68 27
69 159
70 50
71 41
81 152
82 282
83 317
84 188
85 125
86 3
99 52
111 999
112 233
113 226
114 15
128 60
141 69
142 670
143 207
144 161

$$$$

     RDKit          2D

 11 10  0  0  0  0  0  0  0  0999 V2000
    2.5981    4.5000    0.0000 C   0  0  0  0  0  0  0  0  0  0  0  0
   -7.7942    4.5000    0.0000 C   0  0  0  0  0  0  0  0  0  0  0  0
   -1.2990    5.2500    0.0000 C   0  0  0  0  0  0  0  0  0  0  0  0
   -3.8971    5.2500    0.0000 C   0  0  0  0  0  0  0  0  0  0  0  0
    0.0000    4.5000    0.0000 C   0  0  0  0  0  0  0  0  0  0  0  0
   -5.1962    4.5000    0.0000 C   0  0  0  0  0  0  0  0  0  0  0  0
    0.0000    3.0000    0.0000 O   0  0  0  0  0  0  0  0  0  0  0  0
   -5.1962    3.0000    0.0000 O   0  0  0  0  0  0  0  0  0  0  0  0
    1.2990    5.2500    0.0000 O   0  0  0  0  0  0  0  0  0  0  0  0
   -6.4952    5.2500    0.0000 O   0  0  0  0  0  0  0  0  0  0  0  0
   -2.5981    4.5000    0.0000 S   0  0  0  0  0  0  0  0  0  0  0  0
  5  3  1  0
  6  4  1  0
  7  5  2  0
  8  6  2  0
  9  1  1  0
  9  5  1  0
 10  2  1  0
 10  6  1  0
 11  3  1  0
 11  4  1  0
M  END
>  <NAME>  (4374) 
2,2'-THIOBIS(ACETIC ACID) DIMETHYL ESTER

>  <SYNONYMS>  (4374) 


>  <SPECTRUM TYPE>  (4374) 
MS1

>  <INSTRUMENT TYPE>  (4374) 
EI-B

>  <INSTRUMENT>  (4374) 
JEOL JMS-01-SG

>  <ION MODE>  (4374) 
P

>  <INCHIKEY>  (4374) 
ZQUQLLPRRJVUES-UHFFFAOYSA-N

>  <FORMULA>  (4374) 
C6H10O4S

>  <EXACT MASS>  (4374) 
178.02997979999998

>  <MW>  (4374) 
178

>  <ID>  (4374) 
JP004247

>  <CONTRIBUTOR>  (4374) 
University of Tokyo Team, {Faculty of Engineering, University of Tokyo

>  <COMMENT>  (4374) 
SMILES=COC(=O)CSCC(=O)OC
cas=16002-29-2
InChI=InChI=1S/C6H10O4S/c1-9-5(7)3-11-4-6(8)10-2/h3-4H2,1-2H3
computed SMILES=O=C(OC)CSCC(=O)OC
accession=JP004247
date=2016.01.19 (Created 2008.10.21, modified 2011.05.06)
author=KOGA M, UNIV. OF OCCUPATIONAL AND ENVIRONMENTAL HEALTH
license=CC BY-NC-SA
exact mass=178.02998
ionization energy=70 eV
ion type=[M]+*
computed spectral entropy=2.5530006876323728
computed normalized entropy=0.7835865689795407
SPLASH=splash10-00kb-6900000000-b1a848d49aa385b28ea7
submitter=submitter = University of Tokyo Team (Faculty of Engineering, University of Tokyo)
MoNA Rating=3.75

>  <NUM PEAKS>  (4374) 
26

>  <MASS SPECTRAL PEAKS>  (4374) 
42 14.2
43 24.4
44 4.1
45 8.8
46 13.6
47 2.3
59 8.3
60 0.41
61 22
74 26.7
77 4.7
87 0.71
91 23.1
101 4.1
104 4.1
105 0.41
118 30.9
119 54.1
120 3.5
121 0.29
146 99.99
147 13.6
148 5.3
178 4.52
179 2.9
180 2.3

>  <PREDICTED SPECTRUM>  (4374) 
15 58
26 34
27 98
28 34
29 72
31 69
32 20
33 143
34 81
35 37
38 2
39 95
40 76
41 140
42 580
43 526
44 252
45 999
46 602
47 441
48 191
49 96
51 38
57 109
58 201
59 892
60 404
61 299
62 42
63 37
64 158
72 348
73 434
74 921
75 138
76 61
77 77
86 39
87 344
88 256
89 188
101 123
105 667
106 323
107 302
115 329
116 37
118 184
119 537
120 202
121 91
146 869
147 504
148 302
151 26
178 581
179 171
180 92

$$$$

     RDKit          2D

 12 12  0  0  0  0  0  0  0  0999 V2000
    7.4251    1.2910    0.0000 C   0  0  0  0  0  0  0  0  0  0  0  0
   -1.6700   -0.9600    0.0000 C   0  0  0  0  0  0  0  0  0  0  0  0
   -0.3700   -1.7100    0.0000 C   0  0  0  0  0  0  0  0  0  0  0  0
   -1.6700    0.5400    0.0000 C   0  0  0  0  0  0  0  0  0  0  0  0
    0.9300   -0.9600    0.0000 C   0  0  0  0  0  0  0  0  0  0  0  0
   -0.3700    1.2900    0.0000 C   0  0  0  0  0  0  0  0  0  0  0  0
    3.5281    0.5404    0.0000 C   0  0  0  0  0  0  0  0  0  0  0  0
    0.9300    0.5400    0.0000 C   0  0  0  0  0  0  0  0  0  0  0  0
    4.8270    1.2906    0.0000 C   0  0  0  0  0  0  0  0  0  0  0  0
    4.8268    2.7906    0.0000 O   0  0  0  0  0  0  0  0  0  0  0  0
    6.1262    0.5408    0.0000 O   0  0  0  0  0  0  0  0  0  0  0  0
    2.2289    1.2902    0.0000 S   0  0  0  0  0  0  0  0  0  0  0  0
  3  2  2  0
  4  2  1  0
  5  3  1  0
  6  4  2  0
  8  5  2  0
  8  6  1  0
  9  7  1  0
 10  9  2  0
 11  1  1  0
 11  9  1  0
 12  7  1  0
 12  8  1  0
M  END
>  <NAME>  (4375) 
(PHENYLTHIO)ACETIC ACID METHYL ESTER

>  <SYNONYMS>  (4375) 


>  <SPECTRUM TYPE>  (4375) 
MS1

>  <INSTRUMENT TYPE>  (4375) 
EI-B

>  <INSTRUMENT>  (4375) 
JEOL JMS-01-SG

>  <ION MODE>  (4375) 
P

>  <INCHIKEY>  (4375) 
MUNSXQQODXYRKI-UHFFFAOYSA-N

>  <FORMULA>  (4375) 
C9H10O2S

>  <EXACT MASS>  (4375) 
182.04015056

>  <MW>  (4375) 
182

>  <ID>  (4375) 
JP004246

>  <CONTRIBUTOR>  (4375) 
University of Tokyo Team, {Faculty of Engineering, University of Tokyo

>  <COMMENT>  (4375) 
SMILES=COC(=O)CSc(c1)cccc1
cas=17277-58-6
InChI=InChI=1S/C9H10O2S/c1-11-9(10)7-12-8-5-3-2-4-6-8/h2-6H,7H2,1H3
computed SMILES=O=C(OC)CSC=1C=CC=CC1
accession=JP004246
date=2016.01.19 (Created 2008.10.21, modified 2011.05.06)
author=KOGA M, UNIV. OF OCCUPATIONAL AND ENVIRONMENTAL HEALTH
license=CC BY-NC-SA
exact mass=182.04015
ionization energy=70 eV
ion type=[M]+*
computed spectral entropy=2.6763834496159737
computed normalized entropy=0.7589647827932436
SPLASH=splash10-0002-9400000000-fc3b570edb7a201b7420
submitter=submitter = University of Tokyo Team (Faculty of Engineering, University of Tokyo)
MoNA Rating=3.75

>  <NUM PEAKS>  (4375) 
34

>  <MASS SPECTRAL PEAKS>  (4375) 
38 1.2
39 12.6
42 3.6
43 0.16
44 2.8
45 99.99
46 2.8
47 0.36
50 6.9
51 20.7
52 1.6
58 0.12
61 1.6
63 2.8
65 20.7
66 0.24
69 8.9
77 22.3
78 4.8
79 1.26
82 2
83 1.2
91 3.2
108 0.36
109 24.7
110 4.4
121 6.5
123 7.92
124 20.3
125 11.7
151 1.2
182 4.22
183 14.6
184 7.7

>  <PREDICTED SPECTRUM>  (4375) 
14 13
15 77
25 0
26 53
27 147
28 44
29 82
30 12
31 17
32 6
33 15
37 51
38 85
39 263
40 58
41 86
42 117
43 56
44 55
45 516
46 104
47 84
49 43
50 176
51 350
52 144
53 81
55 60
56 34
57 51
58 145
59 275
60 59
61 16
62 50
63 142
64 46
65 338
66 194
67 38
69 232
70 36
72 35
73 101
74 97
75 71
76 35
77 377
78 226
79 195
80 29
81 62
82 75
83 28
84 140
91 251
92 49
105 101
107 19
108 132
109 397
110 379
111 95
121 206
122 109
123 999
124 221
125 103
137 22
150 30
151 92
182 641
183 201
184 127
185 30

$$$$

     RDKit          2D

 15 15  0  0  0  0  0  0  0  0999 V2000
   -5.8457    2.6250    0.0000 C   0  0  0  0  0  0  0  0  0  0  0  0
    3.2481    1.8758    0.0000 C   0  0  0  0  0  0  0  0  0  0  0  0
    0.6490    0.3742    0.0000 C   0  0  0  0  0  0  0  0  0  0  0  0
   -1.9486    1.8750    0.0000 C   0  0  0  0  0  0  0  0  0  0  0  0
    3.2476    0.3750    0.0000 C   0  0  0  0  0  0  0  0  0  0  0  0
    1.9481   -0.3758    0.0000 C   0  0  0  0  0  0  0  0  0  0  0  0
    1.9490    2.6258    0.0000 C   0  0  0  0  0  0  0  0  0  0  0  0
    0.6495    1.8750    0.0000 C   0  0  0  0  0  0  0  0  0  0  0  0
   -3.2476    2.6250    0.0000 C   0  0  0  0  0  0  0  0  0  0  0  0
    4.5466   -0.3750    0.0000 Cl  0  0  0  0  0  0  0  0  0  0  0  0
    1.9483   -1.8758    0.0000 Cl  0  0  0  0  0  0  0  0  0  0  0  0
    1.9488    4.1258    0.0000 Cl  0  0  0  0  0  0  0  0  0  0  0  0
   -3.2476    4.1250    0.0000 O   0  0  0  0  0  0  0  0  0  0  0  0
   -4.5466    1.8750    0.0000 O   0  0  0  0  0  0  0  0  0  0  0  0
   -0.6495    2.6250    0.0000 O   0  0  0  0  0  0  0  0  0  0  0  0
  5  2  2  0
  6  3  2  0
  6  5  1  0
  7  2  1  0
  8  3  1  0
  8  7  2  0
  9  4  1  0
 10  5  1  0
 11  6  1  0
 12  7  1  0
 13  9  2  0
 14  1  1  0
 14  9  1  0
 15  4  1  0
 15  8  1  0
M  END
>  <NAME>  (4376) 
(2,4,5-TRICHLOROPHENOXY)ACETIC ACID METHYLESTER

>  <SYNONYMS>  (4376) 


>  <SPECTRUM TYPE>  (4376) 
MS1

>  <INSTRUMENT TYPE>  (4376) 
EI-B

>  <INSTRUMENT>  (4376) 
JEOL JMS-01-SG

>  <ION MODE>  (4376) 
P

>  <INCHIKEY>  (4376) 
JUCNGUOYQGHBJC-UHFFFAOYSA-N

>  <FORMULA>  (4376) 
C9H7Cl3O3

>  <EXACT MASS>  (4376) 
267.946077124

>  <MW>  (4376) 
268

>  <ID>  (4376) 
JP004245

>  <CONTRIBUTOR>  (4376) 
University of Tokyo Team, {Faculty of Engineering, University of Tokyo

>  <COMMENT>  (4376) 
SMILES=COC(=O)COc(c1)c(Cl)cc(Cl)c(Cl)1
InChI=InChI=1S/C9H7Cl3O3/c1-14-9(13)4-15-8-3-6(11)5(10)2-7(8)12/h2-3H,4H2,1H3
computed SMILES=O=C(OC)COC1=CC(Cl)=C(Cl)C=C1Cl
accession=JP004245
date=2016.01.19 (Created 2008.10.21, modified 2011.05.06)
author=KOGA M, UNIV. OF OCCUPATIONAL AND ENVIRONMENTAL HEALTH
license=CC BY-NC-SA
exact mass=267.94608
ionization energy=70 eV
ion type=[M]+*
computed spectral entropy=3.360968469547412
computed normalized entropy=0.7784545970167257
SPLASH=splash10-05oa-2490000000-d8c5d05842f927494ddc
submitter=submitter = University of Tokyo Team (Faculty of Engineering, University of Tokyo)
MoNA Rating=3.75

>  <NUM PEAKS>  (4376) 
75

>  <MASS SPECTRAL PEAKS>  (4376) 
42 9.4
43 7.2
45 47.1
50 0.07
57 2.1
59 20.2
60 0.7
61 0.28
62 6.5
63 1.4
72 1.4
73 5.79
74 13
75 2.1
83 1.4
84 0.28
85 2.1
92 0.7
96 0.7
97 1.3
99 2.8
105 0.7
106 0.7
107 0.43
108 5
109 15.2
110 2.1
111 0.5
131 0.7
132 0.7
134 0.7
141 0.14
143 12.3
144 7.2
145 20.2
146 1.52
147 10.8
148 7.9
149 0.7
160 0.07
167 13.7
169 15.2
171 3.6
173 0.07
175 0.7
179 19.5
180 0.7
181 2.6
182 0.7
183 11.5
185 1.4
186 0.21
195 14.4
196 5.7
197 13.7
198 0.57
199 3.6
200 0.7
209 47.8
210 0.57
211 44.9
212 3.6
213 13.7
232 0.07
233 99.99
234 10.8
235 63.7
236 0.43
237 10.8
268 54.3
269 3.9
270 5.65
271 4.3
272 16.6
274 0.7

>  <PREDICTED SPECTRUM>  (4376) 
37 24
38 65
40 14
42 41
44 1
45 496
47 29
49 106
50 66
51 82
53 87
57 86
59 979
61 56
62 153
63 203
64 7
65 17
69 120
72 29
73 999
74 501
75 241
79 7
83 312
84 95
86 67
87 141
88 94
96 109
97 671
99 73
107 115
108 80
109 458
111 26
112 3
113 195
123 155
124 28
125 74
131 14
132 50
134 27
135 79
141 51
143 158
144 93
145 468
146 256
147 50
165 49
167 319
169 448
174 122
179 323
181 654
183 488
193 91
195 820
196 370
197 278
198 225
199 9
200 288
201 125
205 228
207 46
209 866
210 158
211 789
213 294
233 848
234 308
235 506
236 238
237 402
239 21
268 827
269 172
270 627
271 82
272 270

$$$$

     RDKit          2D

 16 16  0  0  0  0  0  0  0  0999 V2000
   -1.9486    0.3750    0.0000 C   0  0  0  0  0  0  0  0  0  0  0  0
   -5.8457    2.6250    0.0000 C   0  0  0  0  0  0  0  0  0  0  0  0
    3.2481    1.8758    0.0000 C   0  0  0  0  0  0  0  0  0  0  0  0
    0.6490    0.3742    0.0000 C   0  0  0  0  0  0  0  0  0  0  0  0
   -1.9486    1.8750    0.0000 C   0  0  0  0  0  0  0  0  0  0  0  0
    3.2476    0.3750    0.0000 C   0  0  0  0  0  0  0  0  0  0  0  0
    1.9481   -0.3758    0.0000 C   0  0  0  0  0  0  0  0  0  0  0  0
    1.9490    2.6258    0.0000 C   0  0  0  0  0  0  0  0  0  0  0  0
    0.6495    1.8750    0.0000 C   0  0  0  0  0  0  0  0  0  0  0  0
   -3.2476    2.6250    0.0000 C   0  0  0  0  0  0  0  0  0  0  0  0
    4.5466   -0.3750    0.0000 Cl  0  0  0  0  0  0  0  0  0  0  0  0
    1.9483   -1.8758    0.0000 Cl  0  0  0  0  0  0  0  0  0  0  0  0
    1.9488    4.1258    0.0000 Cl  0  0  0  0  0  0  0  0  0  0  0  0
   -3.2476    4.1250    0.0000 O   0  0  0  0  0  0  0  0  0  0  0  0
   -4.5466    1.8750    0.0000 O   0  0  0  0  0  0  0  0  0  0  0  0
   -0.6495    2.6250    0.0000 O   0  0  0  0  0  0  0  0  0  0  0  0
  5  1  1  0
  6  3  2  0
  7  4  2  0
  7  6  1  0
  8  3  1  0
  9  4  1  0
  9  8  2  0
 10  5  1  0
 11  6  1  0
 12  7  1  0
 13  8  1  0
 14 10  2  0
 15  2  1  0
 15 10  1  0
 16  5  1  0
 16  9  1  0
M  END
>  <NAME>  (4377) 
2-(2,4,5-TRICHLOROPHENOXY)PROPIONIC ACID METHYL ESTER

>  <SYNONYMS>  (4377) 


>  <SPECTRUM TYPE>  (4377) 
MS1

>  <INSTRUMENT TYPE>  (4377) 
EI-B

>  <INSTRUMENT>  (4377) 
JEOL JMS-01-SG

>  <ION MODE>  (4377) 
P

>  <INCHIKEY>  (4377) 
YTAXYXOJOYIQQO-UHFFFAOYSA-N

>  <FORMULA>  (4377) 
C10H9Cl3O3

>  <EXACT MASS>  (4377) 
281.96172718799994

>  <MW>  (4377) 
282

>  <ID>  (4377) 
JP004244

>  <CONTRIBUTOR>  (4377) 
University of Tokyo Team, {Faculty of Engineering, University of Tokyo

>  <COMMENT>  (4377) 
SMILES=COC(=O)C(C)Oc(c1)c(Cl)cc(Cl)c(Cl)1
InChI=InChI=1S/C10H9Cl3O3/c1-5(10(14)15-2)16-9-4-7(12)6(11)3-8(9)13/h3-5H,1-2H3
computed SMILES=O=C(OC)C(OC1=CC(Cl)=C(Cl)C=C1Cl)C
accession=JP004244
date=2016.01.19 (Created 2008.10.21, modified 2011.05.06)
author=KOGA M, UNIV. OF OCCUPATIONAL AND ENVIRONMENTAL HEALTH
license=CC BY-NC-SA
exact mass=281.96173
ionization energy=70 eV
ion type=[M]+*
computed spectral entropy=3.0814462302235097
computed normalized entropy=0.7228894308531354
SPLASH=splash10-0002-3940000000-6b385e3b6ca903ad8e0b
submitter=submitter = University of Tokyo Team (Faculty of Engineering, University of Tokyo)
MoNA Rating=3.75

>  <NUM PEAKS>  (4377) 
71

>  <MASS SPECTRAL PEAKS>  (4377) 
41 3.5
43 6.3
45 3.3
55 2.19
56 3.5
57 1.2
59 34.1
61 0.22
62 4.5
63 1
72 1.2
73 0.22
74 1.7
83 2
84 1.5
85 0.12
87 27.8
88 1
96 1
97 1.04
99 4
107 3
108 2.5
109 0.61
110 1
111 1.7
125 1
132 0.45
133 3.3
134 2.8
135 1.7
143 0.61
144 3.5
145 4
146 2
159 0.45
160 3.3
161 4.3
162 2.8
163 0.12
164 1
167 7.3
169 7.1
171 0.2
179 5.1
181 4.8
183 1.2
187 0.2
188 7.3
189 2.2
190 4.5
195 0.61
196 99.99
197 12.5
198 95.9
199 0.84
200 30.3
201 1.7
202 2.8
223 3.67
224 3.5
225 36.4
226 2.8
227 1.14
247 1.7
282 30.8
283 3.5
284 3.01
285 3
286 10.2
288 1

>  <PREDICTED SPECTRUM>  (4377) 
25 2
26 26
27 116
29 68
31 29
33 28
35 71
36 81
37 87
38 97
39 85
40 82
41 216
42 172
43 76
44 133
45 332
47 98
48 98
49 55
50 186
51 134
52 54
53 169
54 4
55 173
56 1
58 57
59 900
60 68
61 181
62 321
63 300
64 94
65 128
66 19
67 21
68 42
69 233
70 157
71 154
72 129
73 484
74 367
75 83
76 42
77 84
81 60
82 32
83 294
84 247
85 265
86 137
87 553
88 208
89 107
90 9
91 18
95 50
96 254
97 765
98 47
99 237
101 140
102 25
103 28
106 45
107 225
108 346
109 515
110 104
111 147
112 82
113 152
114 85
115 33
119 127
120 4
125 50
129 125
130 220
131 94
132 362
133 93
134 291
135 267
136 43
137 119
138 0
139 93
141 73
143 529
144 293
145 267
146 186
147 165
148 79
152 44
153 26
154 77
155 87
157 73
158 31
159 1
160 211
161 117
162 12
163 124
164 8
165 107
167 451
168 46
169 357
170 95
171 382
175 61
178 67
179 440
180 109
181 510
183 134
188 129
191 115
192 48
193 185
194 59
195 562
196 999
197 470
198 923
199 295
200 599
201 187
202 50
203 102
207 84
209 75
215 36
218 278
219 91
221 35
223 919
224 189
225 754
226 67
227 491
228 12
229 84
238 44
239 37
240 65
242 55
247 411
248 127
249 217
250 53
251 81
282 513
283 102
284 396
285 67
286 229
287 5

$$$$

     RDKit          2D

 12 12  0  0  0  0  0  0  0  0999 V2000
   -3.2564    0.7477    0.0000 C   0  0  0  0  0  0  0  0  0  0  0  0
    3.2402    3.0053    0.0000 C   0  0  0  0  0  0  0  0  0  0  0  0
    1.9456   -2.2379    0.0000 C   0  0  0  0  0  0  0  0  0  0  0  0
    3.2401   -1.4957    0.0000 C   0  0  0  0  0  0  0  0  0  0  0  0
    0.6465   -1.4879    0.0000 C   0  0  0  0  0  0  0  0  0  0  0  0
    3.2406    0.0051    0.0000 C   0  0  0  0  0  0  0  0  0  0  0  0
    0.6420    0.0043    0.0000 C   0  0  0  0  0  0  0  0  0  0  0  0
    1.9415    0.7551    0.0000 C   0  0  0  0  0  0  0  0  0  0  0  0
   -0.6583    0.7521    0.0000 C   0  0  0  0  0  0  0  0  0  0  0  0
   -0.6608    2.2521    0.0000 O   0  0  0  0  0  0  0  0  0  0  0  0
   -1.9561   -0.0001    0.0000 O   0  0  0  0  0  0  0  0  0  0  0  0
    1.9413    2.2551    0.0000 S   0  0  0  0  0  0  0  0  0  0  0  0
  4  3  2  0
  5  3  1  0
  6  4  1  0
  7  5  2  0
  8  6  2  0
  8  7  1  0
  9  7  1  0
 10  9  2  0
 11  1  1  0
 11  9  1  0
 12  2  1  0
 12  8  1  0
M  END
>  <NAME>  (4378) 
2-METHYLTHIOBENZOIC ACID METHYL ESTER

>  <SYNONYMS>  (4378) 


>  <SPECTRUM TYPE>  (4378) 
MS1

>  <INSTRUMENT TYPE>  (4378) 
EI-B

>  <INSTRUMENT>  (4378) 
JEOL JMS-01-SG

>  <ION MODE>  (4378) 
P

>  <INCHIKEY>  (4378) 
CPQDZXPLQXZJGF-UHFFFAOYSA-N

>  <FORMULA>  (4378) 
C9H10O2S

>  <EXACT MASS>  (4378) 
182.04015056

>  <MW>  (4378) 
182

>  <ID>  (4378) 
JP004243

>  <CONTRIBUTOR>  (4378) 
University of Tokyo Team, {Faculty of Engineering, University of Tokyo

>  <COMMENT>  (4378) 
SMILES=COC(=O)c(c1)c(SC)ccc1
InChI=InChI=1S/C9H10O2S/c1-11-9(10)7-5-3-4-6-8(7)12-2/h3-6H,1-2H3
computed SMILES=O=C(OC)C=1C=CC=CC1SC
accession=JP004243
date=2016.01.19 (Created 2008.10.21, modified 2011.05.06)
author=KOGA M, UNIV. OF OCCUPATIONAL AND ENVIRONMENTAL HEALTH
license=CC BY-NC-SA
exact mass=182.04015
ionization energy=70 eV
ion type=[M]+*
computed spectral entropy=2.85848624196305
computed normalized entropy=0.797675773745059
SPLASH=splash10-0ul0-3900000000-cf860aa1ddf201afa811
submitter=submitter = University of Tokyo Team (Faculty of Engineering, University of Tokyo)
MoNA Rating=3.75

>  <NUM PEAKS>  (4378) 
36

>  <MASS SPECTRAL PEAKS>  (4378) 
39 7.5
45 50.6
50 13.9
51 1.26
58 1.2
59 11.3
63 11.3
69 1.89
74 7.5
75 7.5
76 11.3
77 3.03
78 8.8
79 11.3
82 10.2
91 1.01
92 1.2
96 2.5
105 17.7
108 2.65
109 6.3
121 35.4
122 37.9
123 1.13
136 8.8
137 10.1
149 8.8
150 3.03
151 97.4
152 26.5
153 2.5
165 0.37
167 31.6
182 99.99
183 8.8
184 1.2

>  <PREDICTED SPECTRUM>  (4378) 
14 39
15 152
18 14
25 21
26 76
27 128
28 53
29 97
31 30
32 13
34 15
37 99
38 152
39 246
40 71
41 75
43 96
44 101
45 590
46 170
47 159
48 56
49 104
50 307
51 358
52 183
53 202
54 88
55 103
57 63
58 228
59 245
60 62
61 102
62 168
63 320
64 166
65 266
66 100
67 46
68 34
69 444
70 242
71 136
73 31
74 175
75 192
76 251
77 502
78 312
79 307
80 156
81 131
82 275
83 106
84 158
85 88
86 68
89 107
90 141
91 328
92 207
93 173
94 35
95 153
96 137
97 181
98 7
99 12
102 9
103 67
104 224
105 392
106 202
107 115
108 537
109 325
110 98
111 109
117 70
119 52
120 28
121 343
122 223
123 368
124 132
125 81
133 130
134 136
135 429
136 871
137 546
138 135
139 103
140 18
149 288
150 191
151 999
152 452
153 211
154 42
165 41
166 109
167 327
168 257
169 61
170 53
182 873
183 284
184 193
185 63

$$$$

     RDKit          2D

 12 12  0  0  0  0  0  0  0  0999 V2000
   -3.2519   -0.3839    0.0000 C   0  0  0  0  0  0  0  0  0  0  0  0
    5.8431   -1.1317    0.0000 C   0  0  0  0  0  0  0  0  0  0  0  0
   -0.6480   -3.3739    0.0000 C   0  0  0  0  0  0  0  0  0  0  0  0
   -1.9471   -2.6239    0.0000 C   0  0  0  0  0  0  0  0  0  0  0  0
    0.6465   -2.6317    0.0000 C   0  0  0  0  0  0  0  0  0  0  0  0
   -0.6521   -0.3809    0.0000 C   0  0  0  0  0  0  0  0  0  0  0  0
    1.9461   -0.3811    0.0000 C   0  0  0  0  0  0  0  0  0  0  0  0
   -1.9516   -1.1317    0.0000 C   0  0  0  0  0  0  0  0  0  0  0  0
    0.6470   -1.1309    0.0000 C   0  0  0  0  0  0  0  0  0  0  0  0
    3.2450   -1.1313    0.0000 C   0  0  0  0  0  0  0  0  0  0  0  0
    3.2448   -2.6313    0.0000 O   0  0  0  0  0  0  0  0  0  0  0  0
    4.5442   -0.3815    0.0000 O   0  0  0  0  0  0  0  0  0  0  0  0
  4  3  2  0
  5  3  1  0
  8  1  1  0
  8  4  1  0
  8  6  2  0
  9  5  2  0
  9  6  1  0
  9  7  1  0
 10  7  1  0
 11 10  2  0
 12  2  1  0
 12 10  1  0
M  END
>  <NAME>  (4379) 
3-METHYLPHENYLACETIC ACID METHYL ESTER

>  <SYNONYMS>  (4379) 
3-TOLYLACETIC ACID METHYL ESTER

>  <SPECTRUM TYPE>  (4379) 
MS1

>  <INSTRUMENT TYPE>  (4379) 
EI-B

>  <INSTRUMENT>  (4379) 
JEOL JMS-01-SG

>  <ION MODE>  (4379) 
P

>  <INCHIKEY>  (4379) 
AWTKFTNNPQGGLX-UHFFFAOYSA-N

>  <FORMULA>  (4379) 
C10H12O2

>  <EXACT MASS>  (4379) 
164.083729624

>  <MW>  (4379) 
164

>  <ID>  (4379) 
JP004242

>  <CONTRIBUTOR>  (4379) 
University of Tokyo Team, {Faculty of Engineering, University of Tokyo

>  <COMMENT>  (4379) 
SMILES=COC(=O)Cc(c1)cc(C)cc1
InChI=InChI=1S/C10H12O2/c1-8-4-3-5-9(6-8)7-10(11)12-2/h3-6H,7H2,1-2H3
computed SMILES=O=C(OC)CC=1C=CC=C(C1)C
accession=JP004242
date=2016.01.19 (Created 2008.10.21, modified 2011.05.06)
author=KOGA M, UNIV. OF OCCUPATIONAL AND ENVIRONMENTAL HEALTH
license=CC BY-NC-SA
exact mass=164.08373
ionization energy=70 eV
ion type=[M]+*
computed spectral entropy=1.7637283241676667
computed normalized entropy=0.5793119808591441
SPLASH=splash10-0a4i-3900000000-3c5e644eb1534d9d0c1a
submitter=submitter = University of Tokyo Team (Faculty of Engineering, University of Tokyo)
MoNA Rating=3.75

>  <NUM PEAKS>  (4379) 
21

>  <MASS SPECTRAL PEAKS>  (4379) 
39 5.6
50 1.8
51 5.8
52 0.18
53 1.8
59 4.2
62 0.8
63 0.32
65 2.6
77 13.9
78 5.8
79 1.01
89 0.8
91 2.1
103 8.2
104 0.53
105 99.99
106 10.4
133 0.8
164 3.12
165 3.4

>  <PREDICTED SPECTRUM>  (4379) 
14 23
15 99
16 28
26 78
27 270
28 46
29 136
37 31
38 114
39 394
40 127
41 288
42 117
43 41
44 27
45 56
49 26
50 215
51 309
52 215
53 172
54 67
55 21
59 345
61 87
62 132
63 230
64 134
65 355
66 124
67 59
68 32
74 72
75 109
76 58
77 423
78 229
79 231
89 141
90 86
91 554
92 149
93 53
102 104
103 131
104 170
105 999
106 420
107 45
117 36
119 8
120 18
121 177
132 103
133 123
149 75
150 11
164 655
165 194
166 47

$$$$

     RDKit          2D

 13 13  0  0  0  0  0  0  0  0999 V2000
    3.5283   -0.9596    0.0000 C   0  0  0  0  0  0  0  0  0  0  0  0
    7.4251    1.2910    0.0000 C   0  0  0  0  0  0  0  0  0  0  0  0
   -1.6700   -0.9600    0.0000 C   0  0  0  0  0  0  0  0  0  0  0  0
   -1.6700    0.5400    0.0000 C   0  0  0  0  0  0  0  0  0  0  0  0
   -0.3700   -1.7100    0.0000 C   0  0  0  0  0  0  0  0  0  0  0  0
   -0.3700    1.2900    0.0000 C   0  0  0  0  0  0  0  0  0  0  0  0
    0.9300   -0.9600    0.0000 C   0  0  0  0  0  0  0  0  0  0  0  0
    3.5281    0.5404    0.0000 C   0  0  0  0  0  0  0  0  0  0  0  0
    0.9300    0.5400    0.0000 C   0  0  0  0  0  0  0  0  0  0  0  0
    4.8270    1.2906    0.0000 C   0  0  0  0  0  0  0  0  0  0  0  0
    4.8268    2.7906    0.0000 O   0  0  0  0  0  0  0  0  0  0  0  0
    6.1262    0.5408    0.0000 O   0  0  0  0  0  0  0  0  0  0  0  0
    2.2289    1.2902    0.0000 O   0  0  0  0  0  0  0  0  0  0  0  0
  4  3  2  0
  5  3  1  0
  6  4  1  0
  7  5  2  0
  8  1  1  0
  9  6  2  0
  9  7  1  0
 10  8  1  0
 11 10  2  0
 12  2  1  0
 12 10  1  0
 13  8  1  0
 13  9  1  0
M  END
>  <NAME>  (4380) 
2-PHENOXYPROPIONIC ACID METHYL ESTER

>  <SYNONYMS>  (4380) 


>  <SPECTRUM TYPE>  (4380) 
MS1

>  <INSTRUMENT TYPE>  (4380) 
EI-B

>  <INSTRUMENT>  (4380) 
JEOL JMS-01-SG

>  <ION MODE>  (4380) 
P

>  <INCHIKEY>  (4380) 
KIBRBMKSBVQDMK-UHFFFAOYSA-N

>  <FORMULA>  (4380) 
C10H12O3

>  <EXACT MASS>  (4380) 
180.07864424399997

>  <MW>  (4380) 
180

>  <ID>  (4380) 
JP004241

>  <CONTRIBUTOR>  (4380) 
University of Tokyo Team, {Faculty of Engineering, University of Tokyo

>  <COMMENT>  (4380) 
SMILES=COC(=O)C(C)Oc(c1)cccc1
InChI=InChI=1S/C10H12O3/c1-8(10(11)12-2)13-9-6-4-3-5-7-9/h3-8H,1-2H3
computed SMILES=O=C(OC)C(OC=1C=CC=CC1)C
accession=JP004241
date=2016.01.19 (Created 2008.10.21, modified 2011.05.06)
author=KOGA M, UNIV. OF OCCUPATIONAL AND ENVIRONMENTAL HEALTH
license=CC BY-NC-SA
exact mass=180.07864
ionization energy=70 eV
ion type=[M]+*
computed spectral entropy=2.1753291449412115
computed normalized entropy=0.7261427077929454
SPLASH=splash10-00di-8900000000-122d9e3a285a57e3de10
submitter=submitter = University of Tokyo Team (Faculty of Engineering, University of Tokyo)
MoNA Rating=3.75

>  <NUM PEAKS>  (4380) 
20

>  <MASS SPECTRAL PEAKS>  (4380) 
38 1.4
39 11.3
43 2.8
50 0.28
51 13.2
55 4.7
59 6.1
63 0.18
65 8.9
66 5.1
77 38.6
78 0.33
91 4.2
93 13.6
94 30.1
103 0.18
121 99.99
122 8
180 32
181 2.8

>  <PREDICTED SPECTRUM>  (4380) 
26 17
27 66
33 4
38 79
39 257
40 59
41 176
42 9
43 155
44 9
45 24
50 152
51 271
52 151
53 173
54 8
55 180
59 295
62 44
63 166
64 85
65 341
66 125
67 45
76 31
77 551
78 149
90 27
91 131
92 104
93 818
94 589
95 130
119 8
121 999
122 319
123 133
148 0
180 565
181 176
182 3

$$$$

     RDKit          2D

 19 19  0  0  0  0  0  0  0  0999 V2000
  -11.0106   -1.9372    0.0000 C   0  0  0  0  0  0  0  0  0  0  0  0
    7.1889   -4.8789    0.0000 C   0  0  0  0  0  0  0  0  0  0  0  0
   -9.7055   -2.6765    0.0000 C   0  0  0  0  0  0  0  0  0  0  0  0
   -8.4126   -1.9158    0.0000 C   0  0  0  0  0  0  0  0  0  0  0  0
   -7.1075   -2.6550    0.0000 C   0  0  0  0  0  0  0  0  0  0  0  0
   -5.8147   -1.8943    0.0000 C   0  0  0  0  0  0  0  0  0  0  0  0
   -4.5095   -2.6336    0.0000 C   0  0  0  0  0  0  0  0  0  0  0  0
   -3.2167   -1.8729    0.0000 C   0  0  0  0  0  0  0  0  0  0  0  0
    1.9965   -4.8597    0.0000 C   0  0  0  0  0  0  0  0  0  0  0  0
    3.3101   -2.6349    0.0000 C   0  0  0  0  0  0  0  0  0  0  0  0
    0.7120   -4.1349    0.0000 C   0  0  0  0  0  0  0  0  0  0  0  0
    1.9855   -1.8407    0.0000 C   0  0  0  0  0  0  0  0  0  0  0  0
   -1.9115   -2.6122    0.0000 C   0  0  0  0  0  0  0  0  0  0  0  0
    3.2955   -4.1097    0.0000 C   0  0  0  0  0  0  0  0  0  0  0  0
    0.6865   -2.5907    0.0000 C   0  0  0  0  0  0  0  0  0  0  0  0
    4.5909   -4.8661    0.0000 C   0  0  0  0  0  0  0  0  0  0  0  0
    4.5835   -6.3661    0.0000 O   0  0  0  0  0  0  0  0  0  0  0  0
    5.8936   -4.1225    0.0000 O   0  0  0  0  0  0  0  0  0  0  0  0
   -0.6187   -1.8515    0.0000 O   0  0  0  0  0  0  0  0  0  0  0  0
  3  1  1  0
  4  3  1  0
  5  4  1  0
  6  5  1  0
  7  6  1  0
  8  7  1  0
 11  9  2  0
 12 10  1  0
 13  8  1  0
 14  9  1  0
 14 10  2  0
 15 11  1  0
 15 12  2  0
 16 14  1  0
 17 16  2  0
 18  2  1  0
 18 16  1  0
 19 13  1  0
 19 15  1  0
M  END
>  <NAME>  (4381) 
4-OCTYLOXYBENZOIC ACID METHYL ESTER

>  <SYNONYMS>  (4381) 


>  <SPECTRUM TYPE>  (4381) 
MS1

>  <INSTRUMENT TYPE>  (4381) 
EI-B

>  <INSTRUMENT>  (4381) 
JEOL JMS-01-SG

>  <ION MODE>  (4381) 
P

>  <INCHIKEY>  (4381) 
JCVLYBQFVTYGKT-UHFFFAOYSA-N

>  <FORMULA>  (4381) 
C16H24O3

>  <EXACT MASS>  (4381) 
264.17254462799997

>  <MW>  (4381) 
264

>  <ID>  (4381) 
JP004240

>  <CONTRIBUTOR>  (4381) 
University of Tokyo Team, {Faculty of Engineering, University of Tokyo

>  <COMMENT>  (4381) 
SMILES=CCCCCCCCOc(c1)ccc(c1)C(=O)OC
InChI=InChI=1S/C16H24O3/c1-3-4-5-6-7-8-13-19-15-11-9-14(10-12-15)16(17)18-2/h9-12H,3-8,13H2,1-2H3
computed SMILES=O=C(OC)C1=CC=C(OCCCCCCCC)C=C1
accession=JP004240
date=2016.01.19 (Created 2008.10.21, modified 2011.05.06)
author=KOGA M, UNIV. OF OCCUPATIONAL AND ENVIRONMENTAL HEALTH
license=CC BY-NC-SA
exact mass=264.17254
ionization energy=70 eV
ion type=[M]+*
computed spectral entropy=2.5242305762546478
computed normalized entropy=0.7099812824506392
SPLASH=splash10-0uk9-6910000000-d3e648f0b8a74d640aa0
submitter=submitter = University of Tokyo Team (Faculty of Engineering, University of Tokyo)
MoNA Rating=3.75

>  <NUM PEAKS>  (4381) 
35

>  <MASS SPECTRAL PEAKS>  (4381) 
41 22
42 4.7
43 29.1
53 0.09
55 15.7
56 6.2
57 25.3
64 0.09
65 5.2
67 1.4
69 8.6
70 0.76
71 31.8
76 0.9
77 4.7
83 0.52
84 1.9
91 1.9
92 2.8
93 0.47
103 0.9
109 1.4
112 1.4
120 0.23
121 87.5
122 6.2
123 0.9
135 0.28
151 3.8
152 99.99
153 33
154 0.19
233 4.3
264 22
265 3.3

>  <PREDICTED SPECTRUM>  (4381) 
15 8
16 0
17 5
18 10
26 17
27 120
28 59
29 195
30 3
34 7
37 42
38 121
39 305
40 116
41 583
42 242
43 622
44 168
45 64
50 132
51 112
52 94
53 204
54 146
55 524
56 283
57 482
58 89
59 236
62 60
63 177
64 179
65 292
66 129
67 188
68 107
69 326
70 307
71 390
72 71
74 82
75 132
76 210
77 191
78 78
79 138
80 70
81 107
82 77
83 174
84 101
85 142
86 59
87 43
89 18
90 27
91 157
92 238
93 314
94 143
95 188
96 107
97 179
98 167
99 0
103 184
104 153
105 173
106 51
107 75
108 69
109 61
110 24
111 118
112 189
113 144
119 161
120 200
121 999
122 333
123 123
126 14
131 59
133 37
134 88
135 101
136 41
137 91
138 32
147 102
148 90
149 79
151 237
152 983
153 501
154 81
161 2
165 69
166 18
167 18
176 3
179 33
189 11
221 32
233 222
234 23
235 4
264 419
265 199
266 29

$$$$

     RDKit          2D

 19 18  0  0  0  0  0  0  0  0999 V2000
    4.5466    7.8750    0.0000 C   0  0  0  0  0  0  0  0  0  0  0  0
  -13.6399    7.8750    0.0000 C   0  0  0  0  0  0  0  0  0  0  0  0
   -7.1447    4.1250    0.0000 C   0  0  0  0  0  0  0  0  0  0  0  0
    3.2476    8.6250    0.0000 C   0  0  0  0  0  0  0  0  0  0  0  0
  -12.3409    8.6250    0.0000 C   0  0  0  0  0  0  0  0  0  0  0  0
    1.9486    7.8750    0.0000 C   0  0  0  0  0  0  0  0  0  0  0  0
  -11.0418    7.8750    0.0000 C   0  0  0  0  0  0  0  0  0  0  0  0
    0.6495    8.6250    0.0000 C   0  0  0  0  0  0  0  0  0  0  0  0
   -9.7428    8.6250    0.0000 C   0  0  0  0  0  0  0  0  0  0  0  0
   -0.6495    7.8750    0.0000 C   0  0  0  0  0  0  0  0  0  0  0  0
   -1.9486    8.6250    0.0000 C   0  0  0  0  0  0  0  0  0  0  0  0
   -8.4437    7.8750    0.0000 C   0  0  0  0  0  0  0  0  0  0  0  0
   -3.2476    7.8750    0.0000 C   0  0  0  0  0  0  0  0  0  0  0  0
   -7.1447    8.6250    0.0000 C   0  0  0  0  0  0  0  0  0  0  0  0
   -4.5466    8.6250    0.0000 C   0  0  0  0  0  0  0  0  0  0  0  0
   -5.8457    7.8750    0.0000 C   0  0  0  0  0  0  0  0  0  0  0  0
   -5.8457    6.3750    0.0000 C   0  0  0  0  0  0  0  0  0  0  0  0
   -4.5466    5.6250    0.0000 O   0  0  0  0  0  0  0  0  0  0  0  0
   -7.1447    5.6250    0.0000 O   0  0  0  0  0  0  0  0  0  0  0  0
  4  1  1  0
  5  2  1  0
  6  4  1  0
  7  5  1  0
  8  6  1  0
  9  7  1  0
 10  8  1  0
 11 10  1  0
 12  9  1  0
 13 11  1  0
 14 12  1  0
 15 13  1  0
 16 14  1  0
 16 15  1  0
 17 16  1  0
 18 17  2  0
 19  3  1  0
 19 17  1  0
M  END
>  <NAME>  (4382) 
2-HEXYLDECANOIC ACID METHYL ESTER

>  <SYNONYMS>  (4382) 


>  <SPECTRUM TYPE>  (4382) 
MS1

>  <INSTRUMENT TYPE>  (4382) 
EI-B

>  <INSTRUMENT>  (4382) 
JEOL JMS-01-SG

>  <ION MODE>  (4382) 
P

>  <INCHIKEY>  (4382) 
PBRCCXNUTAGYJI-UHFFFAOYSA-N

>  <FORMULA>  (4382) 
C17H34O2

>  <EXACT MASS>  (4382) 
270.255880328

>  <MW>  (4382) 
270

>  <ID>  (4382) 
JP004239

>  <CONTRIBUTOR>  (4382) 
University of Tokyo Team, {Faculty of Engineering, University of Tokyo

>  <COMMENT>  (4382) 
SMILES=CCCCCCCCC(CCCCCC)C(=O)OC
InChI=InChI=1S/C17H34O2/c1-4-6-8-10-11-13-15-16(17(18)19-3)14-12-9-7-5-2/h16H,4-15H2,1-3H3
computed SMILES=O=C(OC)C(CCCCCC)CCCCCCCC
accession=JP004239
date=2016.01.19 (Created 2008.10.21, modified 2011.05.06)
author=KOGA M, UNIV. OF OCCUPATIONAL AND ENVIRONMENTAL HEALTH
license=CC BY-NC-SA
exact mass=270.25588
ionization energy=70 eV
ion type=[M]+*
computed spectral entropy=2.979147247396697
computed normalized entropy=0.7368561638329959
SPLASH=splash10-052u-9600000000-5c26b4505ed985af10ae
submitter=submitter = University of Tokyo Team (Faculty of Engineering, University of Tokyo)
MoNA Rating=3.75

>  <NUM PEAKS>  (4382) 
57

>  <MASS SPECTRAL PEAKS>  (4382) 
41 25.2
42 4.8
43 30.8
53 0.24
54 2.1
55 29.7
56 4.8
57 1.93
67 4
68 2.1
69 19.3
70 0.29
71 9.1
74 3.4
75 1.6
79 0.08
81 2.9
82 1
83 9.6
84 0.34
85 5.3
87 99.99
88 6.9
95 0.21
97 6.4
98 3.7
99 1.8
101 2.62
102 2.1
111 2.6
113 1.3
115 3.05
116 3.2
125 0.8
127 1.3
129 1.71
130 2.4
143 28.4
144 3.4
157 1.23
158 65.9
159 6.1
169 1.3
171 1.5
172 2.1
185 6.1
186 43.4
187 0.48
199 11.7
200 1.8
211 1.6
213 0.45
227 1
239 1.3
241 1.3
270 0.48
271 0.8

>  <PREDICTED SPECTRUM>  (4382) 
14 3
15 69
17 12
18 26
25 27
26 117
27 380
28 200
29 607
30 117
31 82
32 22
33 3
37 37
38 60
39 413
40 191
41 899
42 449
43 999
44 231
45 201
50 17
51 43
52 33
53 253
54 262
55 831
56 521
57 876
58 237
59 344
60 82
61 17
65 90
66 62
67 316
68 296
69 567
70 340
71 509
72 86
73 270
74 220
77 14
79 74
80 53
81 264
82 191
83 487
84 426
85 376
86 120
87 829
88 119
89 23
93 67
94 13
95 206
96 169
97 351
98 317
99 54
100 143
101 339
102 104
109 29
110 102
111 215
112 236
113 134
114 59
115 196
116 178
125 120
126 145
127 171
128 44
129 163
130 64
140 117
141 182
142 36
143 379
144 331
145 164
152 44
153 105
154 80
155 26
156 58
157 379
158 486
159 101
160 59
170 8
171 289
172 115
185 80
186 333
187 32
199 121
211 70
212 32
213 19
227 26
270 115
271 3

$$$$

     RDKit          2D

 11 11  0  0  0  0  0  0  0  0999 V2000
    2.1058    1.5000    0.0000 C   0  0  0  0  0  0  0  0  0  0  0  0
   -1.3000    0.7189    0.0000 C   0  0  0  0  0  0  0  0  0  0  0  0
    5.2185   -1.4096    0.0000 C   0  0  0  0  0  0  0  0  0  0  0  0
    3.9185   -2.1596    0.0000 C   0  0  0  0  0  0  0  0  0  0  0  0
    5.2185    0.0904    0.0000 C   0  0  0  0  0  0  0  0  0  0  0  0
    2.6185   -1.4096    0.0000 C   0  0  0  0  0  0  0  0  0  0  0  0
    3.9185    0.8404    0.0000 C   0  0  0  0  0  0  0  0  0  0  0  0
    1.1413   -0.1700    0.0000 C   0  0  0  0  0  0  0  0  0  0  0  0
    2.6185    0.0904    0.0000 C   0  0  0  0  0  0  0  0  0  0  0  0
    0.6281   -1.5794    0.0000 O   0  0  0  0  0  0  0  0  0  0  0  0
    0.1772    0.9792    0.0000 O   0  0  0  0  0  0  0  0  0  0  0  0
  4  3  1  0
  5  3  1  0
  6  4  1  0
  7  5  1  0
  9  1  1  0
  9  6  1  0
  9  7  1  0
  9  8  1  0
 10  8  2  0
 11  2  1  0
 11  8  1  0
M  END
>  <NAME>  (4383) 
1-METHYL-1-CYCLOHEXANECARBOXYLIC ACID METHYL ESTER

>  <SYNONYMS>  (4383) 


>  <SPECTRUM TYPE>  (4383) 
MS1

>  <INSTRUMENT TYPE>  (4383) 
EI-B

>  <INSTRUMENT>  (4383) 
JEOL JMS-01-SG

>  <ION MODE>  (4383) 
P

>  <INCHIKEY>  (4383) 
NKZISBBWNQEPAH-UHFFFAOYSA-N

>  <FORMULA>  (4383) 
C9H16O2

>  <EXACT MASS>  (4383) 
156.115029752

>  <MW>  (4383) 
156

>  <ID>  (4383) 
JP004238

>  <CONTRIBUTOR>  (4383) 
University of Tokyo Team, {Faculty of Engineering, University of Tokyo

>  <COMMENT>  (4383) 
SMILES=COC(=O)C(C)(C1)CCCC1
InChI=InChI=1S/C9H16O2/c1-9(8(10)11-2)6-4-3-5-7-9/h3-7H2,1-2H3
computed SMILES=O=C(OC)C1(C)CCCCC1
accession=JP004238
date=2016.01.19 (Created 2008.10.21, modified 2011.05.06)
author=KOGA M, UNIV. OF OCCUPATIONAL AND ENVIRONMENTAL HEALTH
license=CC BY-NC-SA
exact mass=156.11503
ionization energy=70 eV
ion type=[M]+*
computed spectral entropy=2.7417465815919098
computed normalized entropy=0.7202494544656458
SPLASH=splash10-0a4j-9100000000-63b40965a0e77a63ff62
submitter=submitter = University of Tokyo Team (Faculty of Engineering, University of Tokyo)
MoNA Rating=3.75

>  <NUM PEAKS>  (4383) 
45

>  <MASS SPECTRAL PEAKS>  (4383) 
38 2.8
41 26.8
42 3
43 0.98
44 2.6
45 34.2
46 1.9
51 0.15
53 5.2
54 2.4
55 97.3
56 0.63
57 2.6
59 41.4
60 1.7
67 0.76
68 3.7
69 10
70 9.3
71 0.13
73 6.1
74 24.4
75 2.4
77 0.26
79 1.9
81 13.1
82 4.5
83 0.17
87 4.1
88 22
95 3.7
96 2.03
97 99.99
98 8.2
101 45.8
102 0.26
109 1.5
114 1.5
115 1.9
124 0.37
125 2.4
127 2.1
141 6.9
156 1.46
157 1.9

>  <PREDICTED SPECTRUM>  (4383) 
14 14
15 121
16 0
25 3
26 100
27 382
28 209
29 391
30 90
31 97
32 13
33 56
37 41
38 89
39 427
40 201
41 669
42 343
43 284
44 129
45 208
50 140
51 210
52 138
53 358
54 228
55 868
56 300
57 169
59 404
60 163
61 98
62 18
63 0
65 102
66 99
67 312
68 257
69 597
70 178
71 12
72 4
73 250
74 192
77 200
78 79
79 116
80 18
81 287
82 196
83 174
85 51
86 15
87 101
88 445
95 165
96 257
97 999
98 324
99 55
100 119
101 634
102 5
109 130
113 110
114 151
115 84
116 12
124 126
125 155
127 45
128 31
141 157
156 286
157 84

$$$$

     RDKit          2D

 12 11  0  0  0  0  0  0  0  0999 V2000
   -2.5981    3.0000    0.0000 C   0  0  0  0  0  0  0  0  0  0  0  0
    2.5981    4.5000    0.0000 C   0  0  0  0  0  0  0  0  0  0  0  0
   -7.7942    4.5000    0.0000 C   0  0  0  0  0  0  0  0  0  0  0  0
   -1.2990    5.2500    0.0000 C   0  0  0  0  0  0  0  0  0  0  0  0
   -3.8971    5.2500    0.0000 C   0  0  0  0  0  0  0  0  0  0  0  0
   -2.5981    4.5000    0.0000 C   0  0  0  0  0  0  0  0  0  0  0  0
    0.0000    4.5000    0.0000 C   0  0  0  0  0  0  0  0  0  0  0  0
   -5.1962    4.5000    0.0000 C   0  0  0  0  0  0  0  0  0  0  0  0
    0.0000    3.0000    0.0000 O   0  0  0  0  0  0  0  0  0  0  0  0
   -5.1962    3.0000    0.0000 O   0  0  0  0  0  0  0  0  0  0  0  0
    1.2990    5.2500    0.0000 O   0  0  0  0  0  0  0  0  0  0  0  0
   -6.4952    5.2500    0.0000 O   0  0  0  0  0  0  0  0  0  0  0  0
  6  1  1  0
  6  4  1  0
  6  5  1  0
  7  4  1  0
  8  5  1  0
  9  7  2  0
 10  8  2  0
 11  2  1  0
 11  7  1  0
 12  3  1  0
 12  8  1  0
M  END
>  <NAME>  (4384) 
3-METHYLGLUTARIC ACID DIMETHYL ESTER

>  <SYNONYMS>  (4384) 
3-METHYLPENTANEDIOIC ACID DIMETHYL ESTER

>  <SPECTRUM TYPE>  (4384) 
MS1

>  <INSTRUMENT TYPE>  (4384) 
EI-B

>  <INSTRUMENT>  (4384) 
JEOL JMS-01-SG

>  <ION MODE>  (4384) 
P

>  <INCHIKEY>  (4384) 
YIJLMTNDXYVGPQ-UHFFFAOYSA-N

>  <FORMULA>  (4384) 
C8H14O4

>  <EXACT MASS>  (4384) 
174.089208928

>  <MW>  (4384) 
174

>  <ID>  (4384) 
JP004237

>  <CONTRIBUTOR>  (4384) 
University of Tokyo Team, {Faculty of Engineering, University of Tokyo

>  <COMMENT>  (4384) 
SMILES=COC(=O)CC(C)CC(=O)OC
cas=19013-37-7
InChI=InChI=1S/C8H14O4/c1-6(4-7(9)11-2)5-8(10)12-3/h6H,4-5H2,1-3H3
computed SMILES=O=C(OC)CC(C)CC(=O)OC
accession=JP004237
date=2016.01.19 (Created 2008.10.21, modified 2011.05.06)
author=KOGA M, UNIV. OF OCCUPATIONAL AND ENVIRONMENTAL HEALTH
license=CC BY-NC-SA
exact mass=174.08921
ionization energy=70 eV
ion type=[M]+*
computed spectral entropy=2.6117513162394412
computed normalized entropy=0.7605594199151997
SPLASH=splash10-0hfx-6900000000-ca39d8fc94a9fe517675
submitter=submitter = University of Tokyo Team (Faculty of Engineering, University of Tokyo)
MoNA Rating=3.75

>  <NUM PEAKS>  (4384) 
31

>  <MASS SPECTRAL PEAKS>  (4384) 
38 5.4
41 16.4
42 19.1
43 3.01
53 3.4
54 4.7
55 41.7
56 0.95
58 1.3
69 84.2
70 3.4
71 1.3
72 5.4
73 49.3
82 32.8
83 2.05
84 1.3
86 10.6
95 3.4
99 1.09
100 2
101 92.4
102 4.1
113 0.27
114 99.99
115 45.2
116 3.4
127 0.47
142 37.6
143 89
144 5.4

>  <PREDICTED SPECTRUM>  (4384) 
14 27
15 112
16 10
26 50
27 259
28 75
29 281
30 37
31 170
32 1
33 63
36 10
37 5
38 59
39 379
40 199
41 832
42 512
43 742
44 209
45 395
47 82
49 27
50 70
51 120
52 95
53 281
54 217
55 899
56 315
57 323
58 82
59 924
60 100
61 87
62 16
65 26
66 42
67 3
68 297
69 901
70 378
71 313
72 256
73 462
74 788
75 184
81 132
82 426
83 633
84 264
85 189
86 62
96 5
97 45
98 21
99 294
100 155
101 999
102 269
103 21
110 13
111 225
112 41
113 49
114 881
115 549
116 139
117 59
127 80
141 78
142 514
143 902
144 309
145 48
174 33

$$$$

     RDKit          2D

 15 15  0  0  0  0  0  0  0  0999 V2000
   -7.4692    4.2571    0.0000 C   0  0  0  0  0  0  0  0  0  0  0  0
    4.2221    2.0071    0.0000 C   0  0  0  0  0  0  0  0  0  0  0  0
    4.2226    3.5079    0.0000 C   0  0  0  0  0  0  0  0  0  0  0  0
    2.9226    1.2563    0.0000 C   0  0  0  0  0  0  0  0  0  0  0  0
    2.9236    4.2579    0.0000 C   0  0  0  0  0  0  0  0  0  0  0  0
    1.6236    2.0063    0.0000 C   0  0  0  0  0  0  0  0  0  0  0  0
    0.3250    4.2571    0.0000 C   0  0  0  0  0  0  0  0  0  0  0  0
   -3.5721    3.5071    0.0000 C   0  0  0  0  0  0  0  0  0  0  0  0
    1.6240    3.5071    0.0000 C   0  0  0  0  0  0  0  0  0  0  0  0
   -0.9740    3.5071    0.0000 C   0  0  0  0  0  0  0  0  0  0  0  0
   -4.8712    4.2571    0.0000 C   0  0  0  0  0  0  0  0  0  0  0  0
   -2.2731    4.2571    0.0000 N   0  0  0  0  0  0  0  0  0  0  0  0
   -0.9740    2.0071    0.0000 O   0  0  0  0  0  0  0  0  0  0  0  0
   -4.8712    5.7571    0.0000 O   0  0  0  0  0  0  0  0  0  0  0  0
   -6.1702    3.5071    0.0000 O   0  0  0  0  0  0  0  0  0  0  0  0
  3  2  2  0
  4  2  1  0
  5  3  1  0
  6  4  2  0
  9  5  2  0
  9  6  1  0
  9  7  1  0
 10  7  1  0
 11  8  1  0
 12  8  1  0
 12 10  2  3
 13 10  1  0
 14 11  2  0
 15  1  1  0
 15 11  1  0
M  END
>  <NAME>  (4385) 
N-(PHENYLACETHYL)GLYCINE METHYL ESTER

>  <SYNONYMS>  (4385) 
PHENACETURIC ACID METHYL ESTER

>  <SPECTRUM TYPE>  (4385) 
MS1

>  <INSTRUMENT TYPE>  (4385) 
EI-B

>  <INSTRUMENT>  (4385) 
JEOL JMS-01-SG

>  <ION MODE>  (4385) 
P

>  <INCHIKEY>  (4385) 
VISLHUSQBAQEBB-UHFFFAOYSA-N

>  <FORMULA>  (4385) 
C11H13NO3

>  <EXACT MASS>  (4385) 
207.089543276

>  <MW>  (4385) 
207

>  <ID>  (4385) 
JP004236

>  <CONTRIBUTOR>  (4385) 
University of Tokyo Team, {Faculty of Engineering, University of Tokyo

>  <COMMENT>  (4385) 
SMILES=COC(=O)CNC(=O)Cc(c1)cccc1
cas=5259-87-0
InChI=InChI=1S/C11H13NO3/c1-15-11(14)8-12-10(13)7-9-5-3-2-4-6-9/h2-6H,7-8H2,1H3,(H,12,13)
computed SMILES=O=C(OC)CN=C(O)CC=1C=CC=CC1
accession=JP004236
date=2016.01.19 (Created 2008.10.21, modified 2011.05.06)
author=KOGA M, UNIV. OF OCCUPATIONAL AND ENVIRONMENTAL HEALTH
license=CC BY-NC-SA
exact mass=207.08954
ionization energy=70 eV
ion type=[M]+*
computed spectral entropy=2.344642828082037
computed normalized entropy=0.7284042490760079
SPLASH=splash10-0006-9200000000-af3d3d3f6392cedaf02b
submitter=submitter = University of Tokyo Team (Faculty of Engineering, University of Tokyo)
MoNA Rating=3.75

>  <NUM PEAKS>  (4385) 
25

>  <MASS SPECTRAL PEAKS>  (4385) 
39 9.6
42 1.6
44 9.6
50 0.26
51 5.9
56 23.1
63 5.9
64 0.21
65 21.5
77 2.6
88 61.2
89 0.96
90 8.6
91 99.99
92 81.7
93 0.69
116 24.7
117 2.1
118 38.1
119 0.53
120 1.6
148 5.9
176 4.3
207 3.27
208 3.7

>  <PREDICTED SPECTRUM>  (4385) 
14 23
15 78
16 33
17 34
18 46
19 2
26 69
27 165
28 115
29 185
30 92
31 126
32 20
33 36
34 12
37 30
38 84
39 254
40 106
41 203
42 193
43 170
44 173
45 198
46 38
49 31
50 135
51 218
52 119
53 77
54 55
55 141
56 97
57 100
58 69
59 169
60 111
61 52
62 114
63 212
64 89
65 405
66 104
67 36
68 66
69 53
70 65
71 62
72 88
73 117
74 126
75 86
76 67
77 210
78 124
79 147
80 38
83 33
84 105
85 39
86 62
87 31
88 80
89 209
90 131
91 999
92 342
93 31
99 3
101 49
102 90
103 123
104 181
105 187
106 105
107 127
108 38
112 6
115 22
116 121
117 163
118 130
119 60
120 28
121 115
128 75
129 98
130 140
131 104
132 96
133 106
134 117
135 56
143 15
144 38
145 68
146 72
147 55
148 161
149 63
150 6
157 30
158 19
159 32
160 45
161 151
162 151
163 165
174 17
175 114
176 47
177 7
189 137
190 95
191 7
207 243
208 81
209 23

$$$$

     RDKit          2D

 10  9  0  0  0  0  0  0  0  0999 V2000
    2.9228    3.1875    0.0000 C   0  0  0  0  0  0  0  0  0  0  0  0
   -6.1704    3.9375    0.0000 C   0  0  0  0  0  0  0  0  0  0  0  0
   -0.9743    3.9375    0.0000 C   0  0  0  0  0  0  0  0  0  0  0  0
    0.3248    3.1875    0.0000 C   0  0  0  0  0  0  0  0  0  0  0  0
   -2.2733    3.1875    0.0000 C   0  0  0  0  0  0  0  0  0  0  0  0
    1.6238    3.9375    0.0000 C   0  0  0  0  0  0  0  0  0  0  0  0
   -3.5724    3.9375    0.0000 C   0  0  0  0  0  0  0  0  0  0  0  0
    1.6238    5.4375    0.0000 O   0  0  0  0  0  0  0  0  0  0  0  0
   -3.5724    5.4375    0.0000 O   0  0  0  0  0  0  0  0  0  0  0  0
   -4.8714    3.1875    0.0000 O   0  0  0  0  0  0  0  0  0  0  0  0
  4  3  1  0
  5  3  1  0
  6  1  1  0
  6  4  1  0
  7  5  1  0
  8  6  2  0
  9  7  2  0
 10  2  1  0
 10  7  1  0
M  END
>  <NAME>  (4386) 
5-OXOCAPROIC ACID METHYU ESTER

>  <SYNONYMS>  (4386) 
5-OXOHEXANOIC ACID METHYL ESTER

>  <SPECTRUM TYPE>  (4386) 
MS1

>  <INSTRUMENT TYPE>  (4386) 
EI-B

>  <INSTRUMENT>  (4386) 
JEOL JMS-01-SG

>  <ION MODE>  (4386) 
P

>  <INCHIKEY>  (4386) 
AVVPOKSKJSJVIX-UHFFFAOYSA-N

>  <FORMULA>  (4386) 
C7H12O3

>  <EXACT MASS>  (4386) 
144.078644244

>  <MW>  (4386) 
144

>  <ID>  (4386) 
JP004235

>  <CONTRIBUTOR>  (4386) 
University of Tokyo Team, {Faculty of Engineering, University of Tokyo

>  <COMMENT>  (4386) 
SMILES=COC(=O)CCCC(C)=O
cas=13984-50-4
InChI=InChI=1S/C7H12O3/c1-6(8)4-3-5-7(9)10-2/h3-5H2,1-2H3
computed SMILES=O=C(OC)CCCC(=O)C
accession=JP004235
date=2016.01.19 (Created 2008.10.21, modified 2011.05.06)
author=KOGA M, UNIV. OF OCCUPATIONAL AND ENVIRONMENTAL HEALTH
license=CC BY-NC-SA
exact mass=144.07864
ionization energy=70 eV
ion type=[M]+*
computed spectral entropy=2.7050996687841424
computed normalized entropy=0.7805267754530519
SPLASH=splash10-059f-9200000000-0835f5d0f110f0ab1568
submitter=submitter = University of Tokyo Team (Faculty of Engineering, University of Tokyo)
MoNA Rating=3.75

>  <NUM PEAKS>  (4386) 
32

>  <MASS SPECTRAL PEAKS>  (4386) 
38 1.7
39 2.9
41 17.9
42 3.29
43 99.99
44 8.9
55 64.1
56 0.17
57 2.1
58 12.8
59 47.4
60 0.25
69 6.4
70 4.7
71 37.6
72 0.12
74 70
75 3.8
83 1.2
84 2.86
85 40.1
86 1.7
87 19.2
97 0.59
101 20.9
102 5.9
103 1.2
112 9.1
113 54.7
114 3.4
129 14.1
144 7.2

>  <PREDICTED SPECTRUM>  (4386) 
14 22
15 94
16 0
25 4
26 50
27 181
28 90
29 163
31 167
32 43
33 57
37 29
38 84
39 323
40 149
41 547
42 420
43 999
44 193
45 250
50 19
51 65
52 43
53 240
54 147
55 529
56 134
57 98
58 263
59 446
60 49
61 27
65 3
66 56
67 155
68 172
69 433
70 264
71 383
72 96
73 185
74 481
75 9
81 53
82 8
83 174
84 385
85 343
86 134
87 702
88 226
94 15
95 82
96 3
97 199
98 61
99 48
100 38
101 437
102 204
103 52
111 117
112 338
113 436
114 138
115 57
116 76
126 99
127 11
128 53
129 166
144 165
145 47

$$$$

     RDKit          2D

 13 13  0  0  0  0  0  0  0  0999 V2000
   -6.8197    3.1321    0.0000 C   0  0  0  0  0  0  0  0  0  0  0  0
    3.5726    1.6321    0.0000 C   0  0  0  0  0  0  0  0  0  0  0  0
    3.5731    3.1329    0.0000 C   0  0  0  0  0  0  0  0  0  0  0  0
    2.2731    0.8813    0.0000 C   0  0  0  0  0  0  0  0  0  0  0  0
   -1.6236    3.1321    0.0000 C   0  0  0  0  0  0  0  0  0  0  0  0
    2.2740    3.8829    0.0000 C   0  0  0  0  0  0  0  0  0  0  0  0
    0.9740    1.6313    0.0000 C   0  0  0  0  0  0  0  0  0  0  0  0
   -0.3245    3.8821    0.0000 C   0  0  0  0  0  0  0  0  0  0  0  0
   -2.9226    3.8821    0.0000 C   0  0  0  0  0  0  0  0  0  0  0  0
    0.9745    3.1321    0.0000 C   0  0  0  0  0  0  0  0  0  0  0  0
   -4.2216    3.1321    0.0000 C   0  0  0  0  0  0  0  0  0  0  0  0
   -4.2216    1.6321    0.0000 O   0  0  0  0  0  0  0  0  0  0  0  0
   -5.5207    3.8821    0.0000 O   0  0  0  0  0  0  0  0  0  0  0  0
  3  2  2  0
  4  2  1  0
  6  3  1  0
  7  4  2  0
  8  5  1  0
  9  5  1  0
 10  6  2  0
 10  7  1  0
 10  8  1  0
 11  9  1  0
 12 11  2  0
 13  1  1  0
 13 11  1  0
M  END
>  <NAME>  (4387) 
4-PHENYLBUTYRIC ACID METHYL ESTER

>  <SYNONYMS>  (4387) 
4-BENZENEBUTANOIC ACID METHYL ESTER

>  <SPECTRUM TYPE>  (4387) 
MS1

>  <INSTRUMENT TYPE>  (4387) 
EI-B

>  <INSTRUMENT>  (4387) 
JEOL JMS-01-SG

>  <ION MODE>  (4387) 
P

>  <INCHIKEY>  (4387) 
YRYZGVBKMWFWGT-UHFFFAOYSA-N

>  <FORMULA>  (4387) 
C11H14O2

>  <EXACT MASS>  (4387) 
178.099379688

>  <MW>  (4387) 
178

>  <ID>  (4387) 
JP004233

>  <CONTRIBUTOR>  (4387) 
University of Tokyo Team, {Faculty of Engineering, University of Tokyo

>  <COMMENT>  (4387) 
SMILES=COC(=O)CCCc(c1)cccc1
InChI=InChI=1S/C11H14O2/c1-13-11(12)9-5-8-10-6-3-2-4-7-10/h2-4,6-7H,5,8-9H2,1H3
computed SMILES=O=C(OC)CCCC=1C=CC=CC1
accession=JP004233
date=2016.01.19 (Created 2008.10.21, modified 2011.05.06)
author=KOGA M, UNIV. OF OCCUPATIONAL AND ENVIRONMENTAL HEALTH
license=CC BY-NC-SA
exact mass=178.09938
ionization energy=70 eV
ion type=[M]+*
computed spectral entropy=2.4896597454661324
computed normalized entropy=0.7471509440263103
SPLASH=splash10-0f6x-6900000000-5816f54e9f6e8470ec84
submitter=submitter = University of Tokyo Team (Faculty of Engineering, University of Tokyo)
MoNA Rating=3.75

>  <NUM PEAKS>  (4387) 
28

>  <MASS SPECTRAL PEAKS>  (4387) 
43 34.6
50 2.3
51 7.2
52 0.19
57 1.9
63 3.9
65 19.1
74 6.93
75 1.9
77 5.9
78 8.2
79 0.36
89 3.3
91 68.3
92 6.2
103 0.59
104 99.99
105 41.9
106 2.9
115 0.59
117 6.2
118 3.3
129 4.6
146 3.92
147 34.3
148 2.9
178 33.3
179 4.2

>  <PREDICTED SPECTRUM>  (4387) 
26 21
27 104
29 44
31 105
32 52
33 8
39 201
40 43
41 276
42 111
43 63
44 104
45 143
50 127
51 245
52 112
53 112
54 8
55 167
57 88
58 78
59 376
60 164
61 108
62 49
63 169
64 99
65 380
66 45
74 363
75 158
76 112
77 248
78 245
79 115
80 6
86 8
87 369
88 88
89 93
90 54
91 919
92 462
101 56
102 99
103 183
104 999
105 603
106 136
115 63
116 54
117 548
118 464
119 74
120 34
128 92
129 61
146 555
147 297
148 19
178 421
179 130
180 28

$$$$

     RDKit          2D

 17 16  0  0  0  0  0  0  0  0999 V2000
    3.2476    5.6250    0.0000 C   0  0  0  0  0  0  0  0  0  0  0  0
   -9.7428    5.6250    0.0000 C   0  0  0  0  0  0  0  0  0  0  0  0
   -4.5466   10.1250    0.0000 C   0  0  0  0  0  0  0  0  0  0  0  0
   -1.9486    5.6250    0.0000 C   0  0  0  0  0  0  0  0  0  0  0  0
   -4.5466    5.6250    0.0000 C   0  0  0  0  0  0  0  0  0  0  0  0
   -0.6495    6.3750    0.0000 C   0  0  0  0  0  0  0  0  0  0  0  0
   -5.8457    6.3750    0.0000 C   0  0  0  0  0  0  0  0  0  0  0  0
   -3.2476    6.3750    0.0000 C   0  0  0  0  0  0  0  0  0  0  0  0
    0.6495    5.6250    0.0000 C   0  0  0  0  0  0  0  0  0  0  0  0
   -7.1447    5.6250    0.0000 C   0  0  0  0  0  0  0  0  0  0  0  0
   -3.2476    7.8750    0.0000 C   0  0  0  0  0  0  0  0  0  0  0  0
    0.6495    4.1250    0.0000 O   0  0  0  0  0  0  0  0  0  0  0  0
   -7.1447    4.1250    0.0000 O   0  0  0  0  0  0  0  0  0  0  0  0
   -1.9486    8.6250    0.0000 O   0  0  0  0  0  0  0  0  0  0  0  0
    1.9486    6.3750    0.0000 O   0  0  0  0  0  0  0  0  0  0  0  0
   -8.4437    6.3750    0.0000 O   0  0  0  0  0  0  0  0  0  0  0  0
   -4.5466    8.6250    0.0000 O   0  0  0  0  0  0  0  0  0  0  0  0
  6  4  1  0
  7  5  1  0
  8  4  1  0
  8  5  1  0
  9  6  1  0
 10  7  1  0
 11  8  1  0
 12  9  2  0
 13 10  2  0
 14 11  2  0
 15  1  1  0
 15  9  1  0
 16  2  1  0
 16 10  1  0
 17  3  1  0
 17 11  1  0
M  END
>  <NAME>  (4388) 
1,3,5-PENTANETRICARBOXYLIC ACID TRIMETHYLESTER

>  <SYNONYMS>  (4388) 


>  <SPECTRUM TYPE>  (4388) 
MS1

>  <INSTRUMENT TYPE>  (4388) 
EI-B

>  <INSTRUMENT>  (4388) 
JEOL JMS-01-SG

>  <ION MODE>  (4388) 
P

>  <INCHIKEY>  (4388) 
BAWAMGSZOXWVIB-UHFFFAOYSA-N

>  <FORMULA>  (4388) 
C11H18O6

>  <EXACT MASS>  (4388) 
246.11033829599998

>  <MW>  (4388) 
246

>  <ID>  (4388) 
JP004232

>  <CONTRIBUTOR>  (4388) 
University of Tokyo Team, {Faculty of Engineering, University of Tokyo

>  <COMMENT>  (4388) 
SMILES=COC(=O)CCC(CCC(=O)OC)C(=O)OC
cas=5464-63-1
InChI=InChI=1S/C11H18O6/c1-15-9(12)6-4-8(11(14)17-3)5-7-10(13)16-2/h8H,4-7H2,1-3H3
computed SMILES=O=C(OC)CCC(C(=O)OC)CCC(=O)OC
accession=JP004232
date=2016.01.19 (Created 2008.10.21, modified 2011.05.06)
author=KOGA M, UNIV. OF OCCUPATIONAL AND ENVIRONMENTAL HEALTH
license=CC BY-NC-SA
exact mass=246.11034
ionization energy=70 eV
ion type=[M]+*
computed spectral entropy=3.1873612369567748
computed normalized entropy=0.8278542972069682
SPLASH=splash10-06ri-4910000000-a53c720524d986ab411d
submitter=submitter = University of Tokyo Team (Faculty of Engineering, University of Tokyo)
MoNA Rating=3.75

>  <NUM PEAKS>  (4388) 
47

>  <MASS SPECTRAL PEAKS>  (4388) 
42 10.7
43 19
53 9.5
54 0.59
55 64.2
57 3.5
58 8.3
67 3.45
68 5.9
69 7.1
71 28.5
72 0.35
78 8.3
81 20.2
82 3.5
84 2.14
85 84.5
87 13
88 5.9
95 3.45
99 7.1
100 70.2
101 4.7
109 0.47
111 9.5
112 4.7
113 92.8
114 0.47
122 25
123 60.7
126 46.4
127 5.71
128 40.4
141 30.9
143 8.3
154 2.5
155 76.1
160 16.6
171 10.7
173 0.71
182 7.1
183 3.5
186 99.99
187 3.92
214 16.6
215 76.1
216 4.7

>  <PREDICTED SPECTRUM>  (4388) 
15 77
26 104
27 286
28 143
29 310
30 8
31 131
32 5
33 59
37 18
38 80
39 469
40 242
41 636
42 394
43 568
44 236
45 476
46 50
47 93
49 12
50 86
51 211
52 162
53 450
54 388
55 975
56 374
57 407
58 236
59 999
60 198
61 109
62 34
63 54
64 30
65 193
66 157
67 502
68 328
69 550
70 293
71 547
72 274
73 172
74 279
75 160
76 14
77 250
78 135
79 68
80 152
81 485
82 344
83 347
84 310
85 539
86 140
87 556
88 288
91 68
92 7
93 80
94 231
95 547
96 264
97 306
98 336
99 577
100 353
101 303
102 105
103 74
104 78
105 52
106 29
107 183
108 220
109 291
110 190
111 302
112 337
113 716
114 383
115 331
116 125
117 108
118 36
119 90
120 58
121 82
122 303
123 382
124 198
125 242
126 558
127 989
128 474
129 265
130 158
131 83
132 87
136 5
137 284
138 71
139 139
140 335
141 685
142 228
143 209
144 78
145 294
146 16
150 20
151 164
153 50
154 695
155 884
156 366
157 305
158 225
159 298
160 303
165 13
169 67
171 65
172 141
173 380
174 82
182 430
183 506
184 167
185 90
186 536
187 534
188 161
201 32
213 11
214 571
215 711
216 258

$$$$

     RDKit          2D

 14 15  0  0  0  0  0  0  0  0999 V2000
    6.1345   -1.3835    0.0000 C   0  0  0  0  0  0  0  0  0  0  0  0
   -2.9500    0.8900    0.0000 C   0  0  0  0  0  0  0  0  0  0  0  0
   -2.9500   -0.6100    0.0000 C   0  0  0  0  0  0  0  0  0  0  0  0
   -1.6500    1.6400    0.0000 C   0  0  0  0  0  0  0  0  0  0  0  0
   -1.6500   -1.3600    0.0000 C   0  0  0  0  0  0  0  0  0  0  0  0
    0.9500    1.6400    0.0000 C   0  0  0  0  0  0  0  0  0  0  0  0
    2.2500    0.8900    0.0000 C   0  0  0  0  0  0  0  0  0  0  0  0
   -0.3600    0.8800    0.0000 C   0  0  0  0  0  0  0  0  0  0  0  0
   -0.3600   -0.6100    0.0000 C   0  0  0  0  0  0  0  0  0  0  0  0
    2.2400   -0.6200    0.0000 C   0  0  0  0  0  0  0  0  0  0  0  0
    3.5364   -1.3745    0.0000 C   0  0  0  0  0  0  0  0  0  0  0  0
    0.9400   -1.3700    0.0000 N   0  0  0  0  0  0  0  0  0  0  0  0
    3.5312   -2.8745    0.0000 O   0  0  0  0  0  0  0  0  0  0  0  0
    4.8381   -0.6290    0.0000 O   0  0  0  0  0  0  0  0  0  0  0  0
  3  2  2  0
  4  2  1  0
  5  3  1  0
  7  6  2  0
  8  4  2  0
  8  6  1  0
  9  5  2  0
  9  8  1  0
 10  7  1  0
 11 10  1  0
 12  9  1  0
 12 10  2  0
 13 11  2  0
 14  1  1  0
 14 11  1  0
M  END
>  <NAME>  (4389) 
2-QUINOLINECARBOXYLIC ACID METHYL ESTER

>  <SYNONYMS>  (4389) 


>  <SPECTRUM TYPE>  (4389) 
MS1

>  <INSTRUMENT TYPE>  (4389) 
EI-B

>  <INSTRUMENT>  (4389) 
JEOL JMS-01-SG

>  <ION MODE>  (4389) 
P

>  <INCHIKEY>  (4389) 
CILJSZLWPHTUIP-UHFFFAOYSA-N

>  <FORMULA>  (4389) 
C11H9NO2

>  <EXACT MASS>  (4389) 
187.063328528

>  <MW>  (4389) 
187

>  <ID>  (4389) 
JP004231

>  <CONTRIBUTOR>  (4389) 
University of Tokyo Team, {Faculty of Engineering, University of Tokyo

>  <COMMENT>  (4389) 
SMILES=COC(=O)c(c1)nc(c2)c(ccc2)c1
cas=19575-07-6
InChI=InChI=1S/C11H9NO2/c1-14-11(13)10-7-6-8-4-2-3-5-9(8)12-10/h2-7H,1H3
computed SMILES=O=C(OC)C=1N=C2C=CC=CC2=CC1
accession=JP004231
date=2016.01.19 (Created 2008.10.21, modified 2011.05.06)
author=KOGA M, UNIV. OF OCCUPATIONAL AND ENVIRONMENTAL HEALTH
license=CC BY-NC-SA
exact mass=187.06333
ionization energy=70 eV
ion type=[M]+*
computed spectral entropy=2.04345243654146
computed normalized entropy=0.6610884409954694
SPLASH=splash10-004i-1900000000-3bd61eaee728d31e6ac7
submitter=submitter = University of Tokyo Team (Faculty of Engineering, University of Tokyo)
MoNA Rating=3.75

>  <NUM PEAKS>  (4389) 
22

>  <MASS SPECTRAL PEAKS>  (4389) 
50 4.3
51 7.9
52 1.2
63 0.17
64 4.6
75 8.7
76 3.5
77 0.77
78 1.5
100 2
101 15.1
102 0.79
103 1
127 2.8
128 37.2
129 99.99
130 10.2
156 2
157 20
158 0.2
187 8.7
188 1

>  <PREDICTED SPECTRUM>  (4389) 
15 9
38 3
39 14
41 22
42 76
43 3
44 41
49 21
50 224
51 277
52 162
53 33
58 31
59 206
62 50
63 139
64 93
70 1
71 30
74 100
75 271
76 177
77 301
78 72
88 67
89 23
99 23
100 94
101 363
102 316
103 20
115 0
117 55
127 72
128 999
129 823
130 410
131 32
142 26
143 63
156 519
157 395
158 57
172 79
187 329
188 117

$$$$

     RDKit          2D

 14 14  0  0  0  0  0  0  0  0999 V2000
    5.8559   -1.8843    0.0000 C   0  0  0  0  0  0  0  0  0  0  0  0
   -5.8425    0.3610    0.0000 C   0  0  0  0  0  0  0  0  0  0  0  0
    4.5631   -2.6450    0.0000 C   0  0  0  0  0  0  0  0  0  0  0  0
   -0.6501    0.3418    0.0000 C   0  0  0  0  0  0  0  0  0  0  0  0
   -1.9636   -1.8831    0.0000 C   0  0  0  0  0  0  0  0  0  0  0  0
    0.6344   -0.3831    0.0000 C   0  0  0  0  0  0  0  0  0  0  0  0
   -0.6391   -2.6772    0.0000 C   0  0  0  0  0  0  0  0  0  0  0  0
    3.2579   -1.9058    0.0000 C   0  0  0  0  0  0  0  0  0  0  0  0
   -1.9491   -0.4082    0.0000 C   0  0  0  0  0  0  0  0  0  0  0  0
    0.6599   -1.9272    0.0000 C   0  0  0  0  0  0  0  0  0  0  0  0
   -3.2445    0.3482    0.0000 C   0  0  0  0  0  0  0  0  0  0  0  0
   -3.2371    1.8481    0.0000 O   0  0  0  0  0  0  0  0  0  0  0  0
   -4.5472   -0.3954    0.0000 O   0  0  0  0  0  0  0  0  0  0  0  0
    1.9651   -2.6665    0.0000 O   0  0  0  0  0  0  0  0  0  0  0  0
  3  1  1  0
  6  4  2  0
  7  5  1  0
  8  3  1  0
  9  4  1  0
  9  5  2  0
 10  6  1  0
 10  7  2  0
 11  9  1  0
 12 11  2  0
 13  2  1  0
 13 11  1  0
 14  8  1  0
 14 10  1  0
M  END
>  <NAME>  (4390) 
4-PROPOXYBENZOIC ACID METHYL ESTER

>  <SYNONYMS>  (4390) 


>  <SPECTRUM TYPE>  (4390) 
MS1

>  <INSTRUMENT TYPE>  (4390) 
EI-B

>  <INSTRUMENT>  (4390) 
JEOL JMS-01-SG

>  <ION MODE>  (4390) 
P

>  <INCHIKEY>  (4390) 
OXOTVVQIIASDNF-UHFFFAOYSA-N

>  <FORMULA>  (4390) 
C11H14O3

>  <EXACT MASS>  (4390) 
194.09429430799997

>  <MW>  (4390) 
194

>  <ID>  (4390) 
JP004230

>  <CONTRIBUTOR>  (4390) 
University of Tokyo Team, {Faculty of Engineering, University of Tokyo

>  <COMMENT>  (4390) 
SMILES=CCCOc(c1)ccc(c1)C(=O)OC
InChI=InChI=1S/C11H14O3/c1-3-8-14-10-6-4-9(5-7-10)11(12)13-2/h4-7H,3,8H2,1-2H3
computed SMILES=O=C(OC)C1=CC=C(OCCC)C=C1
accession=JP004230
date=2016.01.19 (Created 2008.10.21, modified 2011.05.06)
author=KOGA M, UNIV. OF OCCUPATIONAL AND ENVIRONMENTAL HEALTH
license=CC BY-NC-SA
exact mass=194.09429
ionization energy=70 eV
ion type=[M]+*
computed spectral entropy=2.835156383853366
computed normalized entropy=0.7634580217988037
SPLASH=splash10-0006-5900000000-73a77bc6e57c1276b5da
submitter=submitter = University of Tokyo Team (Faculty of Engineering, University of Tokyo)
MoNA Rating=3.75

>  <NUM PEAKS>  (4390) 
41

>  <MASS SPECTRAL PEAKS>  (4390) 
38 6.4
41 20.8
43 32.5
50 0.88
51 1.6
53 3.2
62 2
63 1.04
64 9.6
65 32.9
66 2.8
67 0.52
75 3.6
76 9.2
77 2.8
79 0.24
91 3.2
92 10.8
93 36.1
94 0.36
95 2.8
103 5.2
104 3.2
105 0.2
107 4.4
108 1.8
119 3.6
120 0.76
121 47.3
122 37.7
123 6.4
124 0.28
151 15.6
152 44.5
153 13.6
163 2.65
164 2.4
165 2
194 99.99
195 1.24
196 1.2

>  <PREDICTED SPECTRUM>  (4390) 
14 21
15 124
16 15
17 5
18 7
26 64
27 168
28 74
29 151
30 0
31 40
32 6
33 4
36 13
37 72
38 146
39 282
40 76
41 257
42 19
43 179
44 48
45 42
50 168
51 164
52 114
53 133
54 21
55 74
59 187
61 82
62 130
63 279
64 216
65 359
66 124
67 39
69 25
74 103
75 153
76 197
77 229
78 81
79 103
80 57
81 77
82 15
90 21
91 160
92 251
93 320
94 131
95 148
96 34
97 12
98 17
103 107
104 81
105 131
106 119
107 125
108 70
109 42
119 207
120 166
121 999
122 331
123 157
124 3
133 44
135 85
136 23
137 137
138 4
149 10
150 8
151 185
152 672
153 232
154 17
163 287
164 67
165 85
179 21
180 6
194 359
195 145
196 16

$$$$

     RDKit          2D

 10 10  0  0  0  0  0  0  0  0999 V2000
   -1.6700   -0.2104    0.0000 C   0  0  0  0  0  0  0  0  0  0  0  0
    3.5270    2.7902    0.0000 C   0  0  0  0  0  0  0  0  0  0  0  0
    4.8270    2.0402    0.0000 C   0  0  0  0  0  0  0  0  0  0  0  0
    2.2270    2.0402    0.0000 C   0  0  0  0  0  0  0  0  0  0  0  0
    4.8270    0.5402    0.0000 C   0  0  0  0  0  0  0  0  0  0  0  0
    2.2270    0.5402    0.0000 C   0  0  0  0  0  0  0  0  0  0  0  0
    0.9281   -0.2100    0.0000 C   0  0  0  0  0  0  0  0  0  0  0  0
    3.5270   -0.2098    0.0000 N   0  0  0  0  0  0  0  0  0  0  0  0
    0.9283   -1.7100    0.0000 O   0  0  0  0  0  0  0  0  0  0  0  0
   -0.3711    0.5398    0.0000 O   0  0  0  0  0  0  0  0  0  0  0  0
  3  2  2  0
  4  2  1  0
  5  3  1  0
  6  4  2  0
  7  6  1  0
  8  5  2  0
  8  6  1  0
  9  7  2  0
 10  1  1  0
 10  7  1  0
M  END
>  <NAME>  (4391) 
2-PYRIDINECARBOXYLIC ACID METHYL ESTER

>  <SYNONYMS>  (4391) 
PICOLINIC ACID METHYL ESTER

>  <SPECTRUM TYPE>  (4391) 
MS1

>  <INSTRUMENT TYPE>  (4391) 
EI-B

>  <INSTRUMENT>  (4391) 
JEOL JMS-01-SG

>  <ION MODE>  (4391) 
P

>  <INCHIKEY>  (4391) 
NMMIHXMBOZYNET-UHFFFAOYSA-N

>  <FORMULA>  (4391) 
C7H7NO2

>  <EXACT MASS>  (4391) 
137.047678464

>  <MW>  (4391) 
137

>  <ID>  (4391) 
JP004229

>  <CONTRIBUTOR>  (4391) 
University of Tokyo Team, {Faculty of Engineering, University of Tokyo

>  <COMMENT>  (4391) 
SMILES=COC(=O)c(c1)nccc1
InChI=InChI=1S/C7H7NO2/c1-10-7(9)6-4-2-3-5-8-6/h2-5H,1H3
computed SMILES=O=C(OC)C1=NC=CC=C1
accession=JP004229
date=2016.01.19 (Created 2008.10.21, modified 2011.05.06)
author=KOGA M, UNIV. OF OCCUPATIONAL AND ENVIRONMENTAL HEALTH
license=CC BY-NC-SA
exact mass=137.04768
ionization energy=70 eV
ion type=[M]+*
computed spectral entropy=1.7735058526188492
computed normalized entropy=0.6396570246401917
SPLASH=splash10-004i-9200000000-2f12ad4be9d681ee2d43
submitter=submitter = University of Tokyo Team (Faculty of Engineering, University of Tokyo)
MoNA Rating=3.75

>  <NUM PEAKS>  (4391) 
16

>  <MASS SPECTRAL PEAKS>  (4391) 
49 1.4
50 8.8
51 31.3
52 1.43
53 1.9
65 1.4
66 1.4
76 0.19
77 1.4
78 77
79 99.99
80 0.64
106 12.6
107 35.6
108 2.6
137 5.2

>  <PREDICTED SPECTRUM>  (4391) 
14 15
15 114
25 46
26 68
27 10
28 81
39 48
41 39
49 148
50 420
51 675
52 525
53 299
59 190
63 51
67 36
76 92
77 83
78 999
79 737
80 231
93 31
106 258
107 424
108 140
109 111
137 433
138 128

$$$$

     RDKit          2D

 18 19  0  0  0  0  0  0  0  0999 V2000
   -5.1970    1.5006    0.0000 C   0  0  0  0  0  0  0  0  0  0  0  0
    7.7948   -3.0010    0.0000 C   0  0  0  0  0  0  0  0  0  0  0  0
    6.4952   -3.7517    0.0000 C   0  0  0  0  0  0  0  0  0  0  0  0
    7.7956   -1.5002    0.0000 C   0  0  0  0  0  0  0  0  0  0  0  0
    5.1963   -3.0015    0.0000 C   0  0  0  0  0  0  0  0  0  0  0  0
    6.4966   -0.7500    0.0000 C   0  0  0  0  0  0  0  0  0  0  0  0
   -1.3000   -0.7500    0.0000 C   0  0  0  0  0  0  0  0  0  0  0  0
    0.0000    1.5000    0.0000 C   0  0  0  0  0  0  0  0  0  0  0  0
    0.0000   -1.5000    0.0000 C   0  0  0  0  0  0  0  0  0  0  0  0
    1.3000    0.7500    0.0000 C   0  0  0  0  0  0  0  0  0  0  0  0
   -1.3000    0.7500    0.0000 C   0  0  0  0  0  0  0  0  0  0  0  0
    5.1970   -1.5006    0.0000 C   0  0  0  0  0  0  0  0  0  0  0  0
    1.3000   -0.7500    0.0000 C   0  0  0  0  0  0  0  0  0  0  0  0
   -2.5989    1.5002    0.0000 C   0  0  0  0  0  0  0  0  0  0  0  0
    3.8981   -0.7504    0.0000 N   0  0  0  0  0  0  0  0  0  0  0  0
    2.5989   -1.5002    0.0000 N   0  0  0  0  0  0  0  0  0  0  0  0
   -2.5987    3.0002    0.0000 O   0  0  0  0  0  0  0  0  0  0  0  0
   -3.8981    0.7504    0.0000 O   0  0  0  0  0  0  0  0  0  0  0  0
  3  2  2  0
  4  2  1  0
  5  3  1  0
  6  4  2  0
  9  7  2  0
 10  8  1  0
 11  7  1  0
 11  8  2  0
 12  5  2  0
 12  6  1  0
 13  9  1  0
 13 10  2  0
 14 11  1  0
 15 12  1  0
 16 13  1  0
 15 16  2  0
 17 14  2  0
 18  1  1  0
 18 14  1  0
M  END
>  <NAME>  (4392) 
4-PHENYLAZOBENZOIC ACID METHYL ESTER

>  <SYNONYMS>  (4392) 
AZOBENZENE-4-CARBOXYLIC ACID METHYL ESTER

>  <SPECTRUM TYPE>  (4392) 
MS1

>  <INSTRUMENT TYPE>  (4392) 
EI-B

>  <INSTRUMENT>  (4392) 
JEOL JMS-01-SG

>  <ION MODE>  (4392) 
P

>  <INCHIKEY>  (4392) 
SUFXZYCPKGRJIZ-FOCLMDBBSA-N

>  <FORMULA>  (4392) 
C14H12N2O2

>  <EXACT MASS>  (4392) 
240.089877624

>  <MW>  (4392) 
240

>  <ID>  (4392) 
JP004228

>  <CONTRIBUTOR>  (4392) 
University of Tokyo Team, {Faculty of Engineering, University of Tokyo

>  <COMMENT>  (4392) 
SMILES=COC(=O)c(c1)ccc(N=Nc(c2)cccc2)c1
InChI=InChI=1S/C14H12N2O2/c1-18-14(17)11-7-9-13(10-8-11)16-15-12-5-3-2-4-6-12/h2-10H,1H3/b16-15+
computed SMILES=O=C(OC)C1=CC=C(N=NC=2C=CC=CC2)C=C1
accession=JP004228
date=2016.01.19 (Created 2008.10.21, modified 2011.05.06)
author=KOGA M, UNIV. OF OCCUPATIONAL AND ENVIRONMENTAL HEALTH
license=CC BY-NC-SA
exact mass=240.08988
ionization energy=70 eV
ion type=[M]+*
computed spectral entropy=2.4026809804810116
computed normalized entropy=0.7290048258346825
SPLASH=splash10-004i-9720000000-e0cb8db324687f4bb968
submitter=submitter = University of Tokyo Team (Faculty of Engineering, University of Tokyo)
MoNA Rating=3.75

>  <NUM PEAKS>  (4392) 
27

>  <MASS SPECTRAL PEAKS>  (4392) 
50 7.1
51 13.8
63 3
64 0.3
65 2.7
75 4.7
76 9.1
77 99.99
78 7.4
79 1.6
92 4.4
103 1.35
104 5.7
105 40
106 2.3
119 0.33
120 6.7
135 47.1
136 4
151 0.16
152 7.1
153 4
163 9.4
209 0.47
240 33.5
241 5
242 2.3

>  <PREDICTED SPECTRUM>  (4392) 
15 18
18 9
26 31
27 79
28 60
29 20
32 5
33 14
34 3
37 27
38 84
39 155
40 22
41 85
43 6
44 40
45 150
50 340
51 532
52 136
53 44
54 8
55 81
59 208
62 64
63 193
64 191
65 189
66 55
69 22
70 21
74 69
75 250
76 389
77 999
78 259
79 67
82 33
83 63
85 4
89 91
90 72
91 162
92 83
93 93
94 0
102 44
103 145
104 235
105 557
106 141
107 28
115 130
119 130
120 85
121 4
135 660
136 117
137 53
151 73
152 330
153 155
154 15
163 450
164 70
181 113
209 153
240 730
241 280
242 58

$$$$

     RDKit          2D

 18 18  0  0  0  0  0  0  0  0999 V2000
   -5.1970    1.5006    0.0000 C   0  0  0  0  0  0  0  0  0  0  0  0
    1.2990    5.2500    0.0000 C   0  0  0  0  0  0  0  0  0  0  0  0
   -1.3000    0.7500    0.0000 C   0  0  0  0  0  0  0  0  0  0  0  0
    0.0000    1.5000    0.0000 C   0  0  0  0  0  0  0  0  0  0  0  0
   -1.3000   -0.7500    0.0000 C   0  0  0  0  0  0  0  0  0  0  0  0
    1.3000    0.7500    0.0000 C   0  0  0  0  0  0  0  0  0  0  0  0
   -0.0000   -1.5000    0.0000 C   0  0  0  0  0  0  0  0  0  0  0  0
    1.3000   -0.7500    0.0000 C   0  0  0  0  0  0  0  0  0  0  0  0
   -2.5989    1.5002    0.0000 C   0  0  0  0  0  0  0  0  0  0  0  0
    0.0000    3.0000    0.0000 C   0  0  0  0  0  0  0  0  0  0  0  0
   -2.5989   -1.5002    0.0000 Br  0  0  0  0  0  0  0  0  0  0  0  0
    2.5989    1.5002    0.0000 Br  0  0  0  0  0  0  0  0  0  0  0  0
   -0.0000   -3.0000    0.0000 Br  0  0  0  0  0  0  0  0  0  0  0  0
    2.5989   -1.5002    0.0000 Br  0  0  0  0  0  0  0  0  0  0  0  0
   -2.5987    3.0002    0.0000 O   0  0  0  0  0  0  0  0  0  0  0  0
   -1.2990    3.7500    0.0000 O   0  0  0  0  0  0  0  0  0  0  0  0
   -3.8981    0.7504    0.0000 O   0  0  0  0  0  0  0  0  0  0  0  0
    1.2990    3.7500    0.0000 O   0  0  0  0  0  0  0  0  0  0  0  0
  4  3  2  0
  5  3  1  0
  6  4  1  0
  7  5  2  0
  8  6  2  0
  8  7  1  0
  9  3  1  0
 10  4  1  0
 11  5  1  0
 12  6  1  0
 13  7  1  0
 14  8  1  0
 15  9  2  0
 16 10  2  0
 17  1  1  0
 17  9  1  0
 18  2  1  0
 18 10  1  0
M  END
>  <NAME>  (4393) 
TETRABROMOPHTHALIC ACID DIMETHYL ESTER

>  <SYNONYMS>  (4393) 
3,4,5,6-TETRABROMO-1,2-BENZENEDICARBOXYLICACID DIMETHYL ESTER

>  <SPECTRUM TYPE>  (4393) 
MS1

>  <INSTRUMENT TYPE>  (4393) 
EI-B

>  <INSTRUMENT>  (4393) 
JEOL JMS-01-SG

>  <ION MODE>  (4393) 
P

>  <INCHIKEY>  (4393) 
GNBQLLNMXUOVRU-UHFFFAOYSA-N

>  <FORMULA>  (4393) 
C10H6Br4O4

>  <EXACT MASS>  (4393) 
505.699957072

>  <MW>  (4393) 
505

>  <ID>  (4393) 
JP004226

>  <CONTRIBUTOR>  (4393) 
University of Tokyo Team, {Faculty of Engineering, University of Tokyo

>  <COMMENT>  (4393) 
SMILES=COC(=O)c(c(Br)1)c(C(=O)OC)c(Br)c(Br)c(Br)1
InChI=InChI=1S/C10H6Br4O4/c1-17-9(15)3-4(10(16)18-2)6(12)8(14)7(13)5(3)11/h1-2H3
computed SMILES=O=C(OC)C=1C(Br)=C(Br)C(Br)=C(Br)C1C(=O)OC
accession=JP004226
date=2016.01.19 (Created 2008.10.21, modified 2011.05.06)
author=KOGA M, UNIV. OF OCCUPATIONAL AND ENVIRONMENTAL HEALTH
license=CC BY-NC-SA
exact mass=505.69996
ionization energy=70 eV
ion type=[M]+*
computed spectral entropy=2.37205557858062
computed normalized entropy=0.6619347125880055
SPLASH=splash10-004i-0000920000-b97057b982255fcf35c1
submitter=submitter = University of Tokyo Team (Faculty of Engineering, University of Tokyo)
MoNA Rating=3.75

>  <NUM PEAKS>  (4393) 
36

>  <MASS SPECTRAL PEAKS>  (4393) 
71 1
72 4.3
79 2.1
85 0.1
95 2.1
151 3.2
153 3.2
168 0.32
230 1
232 7.6
233 1
234 0.1
262 2.1
311 1
313 1
339 0.43
341 5.4
355 1
419 1
433 0.1
435 3.2
475 14.2
477 68.1
478 0.54
479 99.99
480 8.7
481 64.8
482 0.65
483 14.2
506 3.2
507 1
508 1.97
510 31.8
511 2.1
512 21.9
514 3.2

>  <PREDICTED SPECTRUM>  (4393) 
14 1
15 23
16 4
17 6
29 2
31 39
35 19
36 87
37 61
38 36
39 91
41 38
43 63
44 61
45 74
47 48
48 56
49 18
50 29
53 51
55 14
57 54
58 46
59 251
60 109
61 156
62 54
63 85
64 42
65 41
66 14
69 42
71 13
72 116
73 33
74 307
75 461
76 55
77 57
80 25
82 23
83 36
84 65
85 81
86 93
87 136
88 91
89 132
90 87
92 16
95 34
97 47
98 33
99 67
100 98
101 108
102 12
103 74
104 17
105 139
106 25
107 8
108 80
109 41
110 51
111 134
112 42
113 63
115 53
116 91
117 149
118 206
119 135
120 38
121 59
122 148
123 46
124 61
125 83
126 23
127 78
128 86
129 141
130 153
131 95
132 142
133 107
134 7
135 1
136 64
137 21
138 16
139 71
140 7
141 33
142 85
143 211
144 96
145 119
146 146
147 104
148 68
149 71
150 90
151 131
152 59
153 43
154 54
155 94
156 259
157 12
159 65
160 22
161 121
162 108
163 5
164 9
165 6
166 90
167 26
168 61
169 90
170 68
171 52
172 125
173 150
174 78
175 65
176 21
177 56
178 31
179 59
180 77
181 134
182 106
183 53
184 6
185 31
186 61
187 101
188 91
189 200
190 166
191 112
192 190
193 96
194 80
195 82
196 42
199 30
201 89
202 65
203 83
204 11
208 36
209 58
211 46
213 12
214 16
215 82
216 88
217 87
218 34
219 38
220 37
221 85
222 99
223 68
224 56
225 6
226 19
228 21
232 143
233 1
234 37
238 38
239 84
240 36
241 31
242 34
246 18
247 5
248 47
249 58
250 16
251 1
253 12
255 33
256 27
257 79
258 60
259 114
260 1
261 63
262 69
263 74
264 53
265 55
266 23
267 47
268 79
269 31
270 28
272 23
273 12
274 77
276 22
277 13
288 47
289 124
290 27
294 23
295 37
297 37
302 4
303 38
304 15
305 64
306 33
307 77
308 30
309 80
310 23
311 22
319 33
320 21
321 54
322 9
323 48
327 14
329 2
330 21
331 43
332 30
333 41
335 1
337 38
338 20
339 105
340 97
341 74
342 95
348 47
350 20
351 3
366 79
367 62
368 184
369 108
370 109
371 29
374 13
375 37
376 76
377 78
381 45
384 8
388 33
389 97
390 130
396 35
397 11
399 102
401 45
402 70
403 145
404 175
405 18
407 2
410 6
413 23
415 24
416 136
417 233
418 143
419 138
420 5
421 36
423 19
424 7
429 67
430 75
431 197
432 62
433 53
436 7
442 8
443 5
445 73
446 89
447 306
448 94
449 363
450 291
451 279
452 131
453 83
454 7
465 126
467 13
473 56
474 94
475 789
476 162
477 999
478 266
479 547
480 183
481 247
492 6
493 79
494 12
495 37
504 4
506 120
507 75
508 251
509 196
510 452
511 109

$$$$

     RDKit          2D

 18 18  0  0  0  0  0  0  0  0999 V2000
   -5.1970    1.5006    0.0000 C   0  0  0  0  0  0  0  0  0  0  0  0
    1.2990    5.2500    0.0000 C   0  0  0  0  0  0  0  0  0  0  0  0
   -1.3000    0.7500    0.0000 C   0  0  0  0  0  0  0  0  0  0  0  0
    0.0000    1.5000    0.0000 C   0  0  0  0  0  0  0  0  0  0  0  0
   -1.3000   -0.7500    0.0000 C   0  0  0  0  0  0  0  0  0  0  0  0
    1.3000    0.7500    0.0000 C   0  0  0  0  0  0  0  0  0  0  0  0
   -0.0000   -1.5000    0.0000 C   0  0  0  0  0  0  0  0  0  0  0  0
    1.3000   -0.7500    0.0000 C   0  0  0  0  0  0  0  0  0  0  0  0
   -2.5989    1.5002    0.0000 C   0  0  0  0  0  0  0  0  0  0  0  0
    0.0000    3.0000    0.0000 C   0  0  0  0  0  0  0  0  0  0  0  0
   -2.5989   -1.5002    0.0000 Cl  0  0  0  0  0  0  0  0  0  0  0  0
    2.5989    1.5002    0.0000 Cl  0  0  0  0  0  0  0  0  0  0  0  0
   -0.0000   -3.0000    0.0000 Cl  0  0  0  0  0  0  0  0  0  0  0  0
    2.5989   -1.5002    0.0000 Cl  0  0  0  0  0  0  0  0  0  0  0  0
   -2.5987    3.0002    0.0000 O   0  0  0  0  0  0  0  0  0  0  0  0
   -1.2990    3.7500    0.0000 O   0  0  0  0  0  0  0  0  0  0  0  0
   -3.8981    0.7504    0.0000 O   0  0  0  0  0  0  0  0  0  0  0  0
    1.2990    3.7500    0.0000 O   0  0  0  0  0  0  0  0  0  0  0  0
  4  3  2  0
  5  3  1  0
  6  4  1  0
  7  5  2  0
  8  6  2  0
  8  7  1  0
  9  3  1  0
 10  4  1  0
 11  5  1  0
 12  6  1  0
 13  7  1  0
 14  8  1  0
 15  9  2  0
 16 10  2  0
 17  1  1  0
 17  9  1  0
 18  2  1  0
 18 10  1  0
M  END
>  <NAME>  (4394) 
TETRACHLOROPHTHALIC ACID DIMETHY ESTER

>  <SYNONYMS>  (4394) 
3,4,5,6-TETRACHLORO-1,2-BENZENEDICARBOXYLIC ACID DIMETHYL ESTER

>  <SPECTRUM TYPE>  (4394) 
MS1

>  <INSTRUMENT TYPE>  (4394) 
EI-B

>  <INSTRUMENT>  (4394) 
JEOL JMS-01-SG

>  <ION MODE>  (4394) 
P

>  <INCHIKEY>  (4394) 
CXWWOTMXNBKMBO-UHFFFAOYSA-N

>  <FORMULA>  (4394) 
C10H6Cl4O4

>  <EXACT MASS>  (4394) 
329.902019392

>  <MW>  (4394) 
330

>  <ID>  (4394) 
JP004225

>  <CONTRIBUTOR>  (4394) 
University of Tokyo Team, {Faculty of Engineering, University of Tokyo

>  <COMMENT>  (4394) 
SMILES=COC(=O)c(c(Cl)1)c(C(=O)OC)c(Cl)c(Cl)c(Cl)1
cas=20098-41-3
InChI=InChI=1S/C10H6Cl4O4/c1-17-9(15)3-4(10(16)18-2)6(12)8(14)7(13)5(3)11/h1-2H3
computed SMILES=O=C(OC)C=1C(Cl)=C(Cl)C(Cl)=C(Cl)C1C(=O)OC
accession=JP004225
date=2016.01.19 (Created 2008.10.21, modified 2011.05.06)
author=KOGA M, UNIV. OF OCCUPATIONAL AND ENVIRONMENTAL HEALTH
license=CC BY-NC-SA
exact mass=329.90202
ionization energy=70 eV
ion type=[M]+*
computed spectral entropy=2.726621258502843
computed normalized entropy=0.7043347144258426
SPLASH=splash10-0udi-0129000000-a9271b2f4df57a4cec8d
submitter=submitter = University of Tokyo Team (Faculty of Engineering, University of Tokyo)
MoNA Rating=3.75

>  <NUM PEAKS>  (4394) 
48

>  <MASS SPECTRAL PEAKS>  (4394) 
107 4
108 1.2
109 1.5
115 0.12
118 1.2
135 1.2
142 6.4
143 0.12
144 4
167 1.2
177 3.7
178 0.18
179 3.7
180 1.8
181 1.2
205 0.15
207 1.8
212 2.7
213 1.2
214 0.4
215 1.8
216 1.2
221 1.2
228 0.15
230 2.4
240 2.4
242 2.7
243 0.12
244 1.2
256 4.6
258 5.8
260 0.27
269 3
271 4.6
273 3
299 7.46
300 8
301 99.99
302 9.8
303 4.69
304 4
305 10.1
330 13.5
331 0.12
332 16.6
333 1.2
334 8
336 1.5

>  <PREDICTED SPECTRUM>  (4394) 
15 18
16 0
33 0
35 16
37 10
39 28
44 1
45 8
47 150
48 18
49 8
59 350
60 10
61 14
62 9
63 23
64 29
69 27
71 74
72 6
73 114
74 62
75 109
83 144
84 126
85 110
86 106
87 221
88 31
89 61
90 14
96 63
97 140
98 68
99 4
100 40
106 81
107 113
108 291
109 306
110 144
111 280
113 77
115 56
117 97
118 196
119 22
120 185
121 129
122 65
123 10
124 107
129 6
131 8
132 15
133 39
134 39
135 52
136 34
138 9
141 1
142 15
143 128
144 332
145 91
148 74
149 103
150 65
151 66
152 64
153 40
154 38
155 81
156 84
157 100
158 26
159 9
161 24
166 37
167 45
169 42
170 66
171 54
172 90
173 107
174 74
175 114
176 71
177 4
178 54
181 46
182 67
183 86
184 81
185 43
187 58
188 51
190 65
191 4
195 24
197 119
198 102
199 116
200 128
201 153
202 122
203 160
204 24
205 106
206 78
208 56
211 11
212 171
213 165
214 339
215 236
216 92
226 4
227 19
228 12
229 83
230 72
231 92
236 51
237 47
238 105
239 125
240 213
241 198
242 231
243 193
244 63
245 29
248 21
249 69
250 12
255 20
256 47
264 48
265 114
267 28
269 193
270 52
271 305
272 147
273 303
274 151
275 146
285 72
287 17
295 57
297 142
298 64
299 999
300 272
301 747
302 216
303 424
304 101
305 88
330 325
331 32
332 308
333 33
334 132

$$$$

     RDKit          2D

 13 13  0  0  0  0  0  0  0  0999 V2000
    4.2219   -1.7625    0.0000 C   0  0  0  0  0  0  0  0  0  0  0  0
   -2.2738   -1.0133    0.0000 C   0  0  0  0  0  0  0  0  0  0  0  0
   -0.9738    1.2383    0.0000 C   0  0  0  0  0  0  0  0  0  0  0  0
   -2.2733    0.4875    0.0000 C   0  0  0  0  0  0  0  0  0  0  0  0
   -0.9748   -1.7633    0.0000 C   0  0  0  0  0  0  0  0  0  0  0  0
    0.3252    0.4883    0.0000 C   0  0  0  0  0  0  0  0  0  0  0  0
    0.3248   -1.0125    0.0000 C   0  0  0  0  0  0  0  0  0  0  0  0
    1.6238   -1.7625    0.0000 C   0  0  0  0  0  0  0  0  0  0  0  0
   -3.5724    1.2375    0.0000 O   0  0  0  0  0  0  0  0  0  0  0  0
   -0.9745   -3.2633    0.0000 O   0  0  0  0  0  0  0  0  0  0  0  0
    1.6244    1.2381    0.0000 O   0  0  0  0  0  0  0  0  0  0  0  0
    1.6238   -3.2625    0.0000 O   0  0  0  0  0  0  0  0  0  0  0  0
    2.9228   -1.0125    0.0000 O   0  0  0  0  0  0  0  0  0  0  0  0
  4  2  2  0
  4  3  1  0
  5  2  1  0
  6  3  2  0
  7  5  2  0
  7  6  1  0
  8  7  1  0
  9  4  1  0
 10  5  1  0
 11  6  1  0
 12  8  2  0
 13  1  1  0
 13  8  1  0
M  END
>  <NAME>  (4395) 
2,4,6-TRIHYDROXYBENZOIC ACID METHYL ESTER

>  <SYNONYMS>  (4395) 


>  <SPECTRUM TYPE>  (4395) 
MS1

>  <INSTRUMENT TYPE>  (4395) 
EI-B

>  <INSTRUMENT>  (4395) 
JEOL JMS-01-SG

>  <ION MODE>  (4395) 
P

>  <INCHIKEY>  (4395) 
AQDIJIAUYXOCGX-UHFFFAOYSA-N

>  <FORMULA>  (4395) 
C8H8O5

>  <EXACT MASS>  (4395) 
184.03717335599998

>  <MW>  (4395) 
184

>  <ID>  (4395) 
JP004224

>  <CONTRIBUTOR>  (4395) 
University of Tokyo Team, {Faculty of Engineering, University of Tokyo

>  <COMMENT>  (4395) 
SMILES=COC(=O)c(c(O)1)c(O)cc(O)c1
InChI=InChI=1S/C8H8O5/c1-13-8(12)7-5(10)2-4(9)3-6(7)11/h2-3,9-11H,1H3
computed SMILES=O=C(OC)C=1C(O)=CC(O)=CC1O
accession=JP004224
date=2016.01.19 (Created 2008.10.21, modified 2011.05.06)
author=KOGA M, UNIV. OF OCCUPATIONAL AND ENVIRONMENTAL HEALTH
license=CC BY-NC-SA
exact mass=184.03717
ionization energy=70 eV
ion type=[M]+*
computed spectral entropy=2.2042716705349137
computed normalized entropy=0.6765519820580528
SPLASH=splash10-0uk9-2900000000-a967a5daaac430383f14
submitter=submitter = University of Tokyo Team (Faculty of Engineering, University of Tokyo)
MoNA Rating=3.75

>  <NUM PEAKS>  (4395) 
26

>  <MASS SPECTRAL PEAKS>  (4395) 
38 2.4
39 4.3
41 1.8
42 0.62
50 6.2
51 3.1
53 5.5
55 0.31
65 3.1
66 1.8
67 4.9
68 0.18
69 18.6
78 7.4
95 4.3
96 1.42
110 1.8
111 6.8
115 4.9
123 0.62
124 50.3
125 1.8
152 99.99
153 2.29
184 44.7
185 6.2

>  <PREDICTED SPECTRUM>  (4395) 
15 16
26 15
27 68
28 66
29 140
30 18
31 91
32 8
33 35
36 0
37 40
38 84
39 155
40 81
41 262
42 152
43 134
44 107
45 28
49 72
50 137
51 199
52 118
53 296
54 184
55 292
56 34
57 166
59 211
60 33
62 47
63 60
64 41
65 77
66 4
67 242
68 240
69 457
70 81
71 114
74 47
77 63
79 160
80 47
81 173
82 110
83 144
84 68
85 62
86 26
95 140
96 237
97 98
98 43
101 26
102 44
106 18
107 23
108 53
109 132
123 140
124 366
125 209
126 26
135 112
137 31
151 35
152 999
153 435
154 96
166 10
167 10
184 600
185 166
186 12

$$$$

     RDKit          2D

 16 16  0  0  0  0  0  0  0  0999 V2000
    1.9484   -3.0756    0.0000 C   0  0  0  0  0  0  0  0  0  0  0  0
    4.5471    1.4254    0.0000 C   0  0  0  0  0  0  0  0  0  0  0  0
    4.5466   -0.0750    0.0000 C   0  0  0  0  0  0  0  0  0  0  0  0
   -4.5466    2.1750    0.0000 C   0  0  0  0  0  0  0  0  0  0  0  0
   -0.6500   -0.0758    0.0000 C   0  0  0  0  0  0  0  0  0  0  0  0
    0.6500    2.1758    0.0000 C   0  0  0  0  0  0  0  0  0  0  0  0
   -0.6495    1.4250    0.0000 C   0  0  0  0  0  0  0  0  0  0  0  0
    0.6490   -0.8258    0.0000 C   0  0  0  0  0  0  0  0  0  0  0  0
    1.9490    1.4258    0.0000 C   0  0  0  0  0  0  0  0  0  0  0  0
    1.9486   -0.0750    0.0000 C   0  0  0  0  0  0  0  0  0  0  0  0
   -1.9486    2.1750    0.0000 C   0  0  0  0  0  0  0  0  0  0  0  0
   -1.9486    3.6750    0.0000 O   0  0  0  0  0  0  0  0  0  0  0  0
    0.6493   -2.3258    0.0000 O   0  0  0  0  0  0  0  0  0  0  0  0
    3.2482    2.1756    0.0000 O   0  0  0  0  0  0  0  0  0  0  0  0
    3.2476   -0.8250    0.0000 O   0  0  0  0  0  0  0  0  0  0  0  0
   -3.2476    1.4250    0.0000 O   0  0  0  0  0  0  0  0  0  0  0  0
  7  5  2  0
  7  6  1  0
  8  5  1  0
  9  6  2  0
 10  8  2  0
 10  9  1  0
 11  7  1  0
 12 11  2  0
 13  1  1  0
 13  8  1  0
 14  2  1  0
 14  9  1  0
 15  3  1  0
 15 10  1  0
 16  4  1  0
 16 11  1  0
M  END
>  <NAME>  (4396) 
3,4,5-TRIMETHOXYBENZOIC ACID METHYL ESTER

>  <SYNONYMS>  (4396) 


>  <SPECTRUM TYPE>  (4396) 
MS1

>  <INSTRUMENT TYPE>  (4396) 
EI-B

>  <INSTRUMENT>  (4396) 
JEOL JMS-01-SG

>  <ION MODE>  (4396) 
P

>  <INCHIKEY>  (4396) 
KACHFMOHOPLTNX-UHFFFAOYSA-N

>  <FORMULA>  (4396) 
C11H14O5

>  <EXACT MASS>  (4396) 
226.08412354799998

>  <MW>  (4396) 
226

>  <ID>  (4396) 
JP004223

>  <CONTRIBUTOR>  (4396) 
University of Tokyo Team, {Faculty of Engineering, University of Tokyo

>  <COMMENT>  (4396) 
SMILES=COC(=O)c(c1)cc(OC)c(OC)c(OC)1
cas=1916-07-0
InChI=InChI=1S/C11H14O5/c1-13-8-5-7(11(12)16-4)6-9(14-2)10(8)15-3/h5-6H,1-4H3
computed SMILES=O=C(OC)C1=CC(OC)=C(OC)C(OC)=C1
accession=JP004223
date=2016.01.19 (Created 2008.10.21, modified 2011.05.06)
author=KOGA M, UNIV. OF OCCUPATIONAL AND ENVIRONMENTAL HEALTH
license=CC BY-NC-SA
exact mass=226.08412
ionization energy=70 eV
ion type=[M]+*
computed spectral entropy=3.3676450111820055
computed normalized entropy=0.8038001263925544
SPLASH=splash10-03di-4960000000-d020b1a20eb2e37b748a
submitter=submitter = University of Tokyo Team (Faculty of Engineering, University of Tokyo)
MoNA Rating=3.75

>  <NUM PEAKS>  (4396) 
66

>  <MASS SPECTRAL PEAKS>  (4396) 
38 5.6
39 5
50 6.2
51 0.16
53 7.3
59 11.3
63 3.3
64 0.16
65 4.2
66 11
67 1.6
69 0.45
75 2.5
76 2.2
77 7.9
78 0.36
79 7.3
81 7.9
91 1.4
92 0.39
93 3.6
94 1.6
95 5.6
96 0.16
97 1.4
106 1.4
107 10.1
108 0.39
109 7.9
110 1.4
112 1.4
113 0.16
119 2.5
121 1.9
122 5
123 0.84
124 11
125 11.8
134 1.4
135 0.42
136 3.3
137 7.3
139 3.6
140 0.67
149 1.4
150 1.9
151 17.5
152 0.99
153 9
155 32.2
156 2.5
165 0.53
166 5.6
167 6.5
168 8.4
169 0.19
179 3.9
183 17.5
184 1.4
195 4.53
196 7.3
211 99.99
212 11
226 4.7
227 21.2
228 2.8

>  <PREDICTED SPECTRUM>  (4396) 
14 6
15 96
26 10
29 75
31 4
33 22
34 4
36 16
37 134
38 212
39 285
40 153
41 203
42 50
43 128
44 108
45 192
47 31
49 106
50 385
51 409
52 314
53 428
54 139
55 182
56 39
57 100
58 4
59 278
60 29
61 129
62 248
63 353
64 264
65 402
66 348
67 223
68 144
69 306
70 84
71 51
72 5
74 133
75 227
76 274
77 491
78 306
79 366
80 233
81 255
82 178
83 125
84 51
85 1
86 7
87 29
89 56
90 90
91 257
92 257
93 317
94 252
95 340
96 127
97 194
98 121
99 66
102 10
104 61
105 161
106 160
107 303
108 275
109 349
110 226
111 212
112 70
113 47
117 21
119 175
120 174
121 272
122 269
123 353
124 237
125 316
126 82
127 44
133 145
134 122
135 262
136 227
137 323
138 186
139 160
140 256
148 67
149 169
150 183
151 453
152 300
153 399
154 124
155 266
156 58
157 14
163 57
164 113
165 175
166 112
167 213
168 320
169 61
170 15
177 23
179 230
180 193
181 179
182 26
183 442
184 123
185 28
193 87
194 43
195 527
196 197
197 154
209 67
210 46
211 721
212 243
213 96
225 78
226 999
227 360
228 142
229 21

$$$$

     RDKit          2D

  9  8  0  0  0  0  0  0  0  0999 V2000
    1.9486    3.3750    0.0000 C   0  0  0  0  0  0  0  0  0  0  0  0
   -1.9486    5.6250    0.0000 C   0  0  0  0  0  0  0  0  0  0  0  0
   -5.8457    3.3750    0.0000 C   0  0  0  0  0  0  0  0  0  0  0  0
    0.6495    4.1250    0.0000 C   0  0  0  0  0  0  0  0  0  0  0  0
   -0.6495    3.3750    0.0000 C   0  0  0  0  0  0  0  0  0  0  0  0
   -1.9486    4.1250    0.0000 C   0  0  0  0  0  0  0  0  0  0  0  0
   -3.2476    3.3750    0.0000 C   0  0  0  0  0  0  0  0  0  0  0  0
   -3.2476    1.8750    0.0000 O   0  0  0  0  0  0  0  0  0  0  0  0
   -4.5466    4.1250    0.0000 O   0  0  0  0  0  0  0  0  0  0  0  0
  4  1  1  0
  5  4  1  0
  6  2  1  0
  6  5  1  0
  7  6  1  0
  8  7  2  0
  9  3  1  0
  9  7  1  0
M  END
>  <NAME>  (4397) 
2-METHYLPENTANOIC ACID METHYL ESTER

>  <SYNONYMS>  (4397) 


>  <SPECTRUM TYPE>  (4397) 
MS1

>  <INSTRUMENT TYPE>  (4397) 
EI-B

>  <INSTRUMENT>  (4397) 
JEOL JMS-01-SG

>  <ION MODE>  (4397) 
P

>  <INCHIKEY>  (4397) 
ZTULNMNIVVMLIU-UHFFFAOYSA-N

>  <FORMULA>  (4397) 
C7H14O2

>  <EXACT MASS>  (4397) 
130.099379688

>  <MW>  (4397) 
130

>  <ID>  (4397) 
JP004222

>  <CONTRIBUTOR>  (4397) 
University of Tokyo Team, {Faculty of Engineering, University of Tokyo

>  <COMMENT>  (4397) 
SMILES=CCCC(C)C(=O)OC
cas=2177-77-7
InChI=InChI=1S/C7H14O2/c1-4-5-6(2)7(8)9-3/h6H,4-5H2,1-3H3
computed SMILES=O=C(OC)C(C)CCC
accession=JP004222
date=2016.01.19 (Created 2008.10.21, modified 2011.05.06)
author=KOGA M, UNIV. OF OCCUPATIONAL AND ENVIRONMENTAL HEALTH
license=CC BY-NC-SA
exact mass=130.09938
ionization energy=70 eV
ion type=[M]+*
computed spectral entropy=2.046194087510972
computed normalized entropy=0.6720903292278041
SPLASH=splash10-000i-9000000000-fc93ef340b39354866d1
submitter=submitter = University of Tokyo Team (Faculty of Engineering, University of Tokyo)
MoNA Rating=3.75

>  <NUM PEAKS>  (4397) 
21

>  <MASS SPECTRAL PEAKS>  (4397) 
38 2.2
40 11.9
41 5.1
43 4.71
44 6.5
55 9.2
56 6.7
57 2
58 0.9
69 4.2
70 2.4
71 2.41
72 0.9
83 1.3
87 7.9
88 99.99
89 4
99 12.6
101 13.9
102 0.09
115 2.7

>  <PREDICTED SPECTRUM>  (4397) 
14 6
15 121
16 0
26 63
27 333
28 161
29 359
30 130
31 160
32 32
33 62
37 46
38 110
39 418
40 170
41 681
42 335
43 623
44 107
45 131
46 22
50 71
51 92
52 64
53 189
54 119
55 686
56 396
57 512
58 83
59 609
60 82
67 92
68 47
69 411
70 321
71 457
72 136
73 135
74 97
81 34
83 147
85 20
87 165
88 999
89 223
90 63
98 188
99 430
100 67
101 278
102 237
115 91
130 204
131 26

$$$$

     RDKit          2D

  9  8  0  0  0  0  0  0  0  0999 V2000
    1.9486    3.3750    0.0000 C   0  0  0  0  0  0  0  0  0  0  0  0
   -5.8457    3.3750    0.0000 C   0  0  0  0  0  0  0  0  0  0  0  0
    0.6495    4.1250    0.0000 C   0  0  0  0  0  0  0  0  0  0  0  0
   -0.6495    3.3750    0.0000 C   0  0  0  0  0  0  0  0  0  0  0  0
   -1.9486    4.1250    0.0000 C   0  0  0  0  0  0  0  0  0  0  0  0
   -3.2476    3.3750    0.0000 C   0  0  0  0  0  0  0  0  0  0  0  0
   -1.9486    5.6250    0.0000 O   0  0  0  0  0  0  0  0  0  0  0  0
   -3.2476    1.8750    0.0000 O   0  0  0  0  0  0  0  0  0  0  0  0
   -4.5466    4.1250    0.0000 O   0  0  0  0  0  0  0  0  0  0  0  0
  3  1  1  0
  4  3  1  0
  5  4  1  0
  6  5  1  0
  7  5  2  0
  8  6  2  0
  9  2  1  0
  9  6  1  0
M  END
>  <NAME>  (4398) 
2-OXOPENTANOIC ACID METHYL ESTER

>  <SYNONYMS>  (4398) 


>  <SPECTRUM TYPE>  (4398) 
MS1

>  <INSTRUMENT TYPE>  (4398) 
EI-B

>  <INSTRUMENT>  (4398) 
JEOL JMS-01-SG

>  <ION MODE>  (4398) 
P

>  <INCHIKEY>  (4398) 
MBNLVYPIKSWXCT-UHFFFAOYSA-N

>  <FORMULA>  (4398) 
C6H10O3

>  <EXACT MASS>  (4398) 
130.06299417999998

>  <MW>  (4398) 
130

>  <ID>  (4398) 
JP004221

>  <CONTRIBUTOR>  (4398) 
University of Tokyo Team, {Faculty of Engineering, University of Tokyo

>  <COMMENT>  (4398) 
SMILES=CCCC(=O)C(=O)OC
InChI=InChI=1S/C6H10O3/c1-3-4-5(7)6(8)9-2/h3-4H2,1-2H3
computed SMILES=O=C(OC)C(=O)CCC
accession=JP004221
date=2016.01.19 (Created 2008.10.21, modified 2011.05.06)
author=KOGA M, UNIV. OF OCCUPATIONAL AND ENVIRONMENTAL HEALTH
license=CC BY-NC-SA
exact mass=130.06299
ionization energy=70 eV
ion type=[M]+*
computed spectral entropy=1.5036445334966457
computed normalized entropy=0.6270684756561014
SPLASH=splash10-006x-9000000000-96f59d5af3920d43daf5
submitter=submitter = University of Tokyo Team (Faculty of Engineering, University of Tokyo)
MoNA Rating=3.75

>  <NUM PEAKS>  (4398) 
11

>  <MASS SPECTRAL PEAKS>  (4398) 
38 3.2
40 33.3
41 5.6
43 99.99
44 2.3
55 6.5
69 1.9
70 0.39
71 87.5
72 4.1
130 8.4

>  <PREDICTED SPECTRUM>  (4398) 
14 60
15 235
16 33
25 6
26 120
27 399
28 250
29 459
30 61
31 222
32 62
33 34
37 46
38 120
39 361
40 173
41 646
42 345
43 999
44 163
45 86
53 105
54 64
55 122
56 117
57 163
59 620
60 175
70 42
71 875
72 101
73 60
87 61
99 67
102 71
130 141

$$$$

     RDKit          2D

 10  9  0  0  0  0  0  0  0  0999 V2000
   -1.9486    5.6250    0.0000 C   0  0  0  0  0  0  0  0  0  0  0  0
    1.9486    3.3750    0.0000 C   0  0  0  0  0  0  0  0  0  0  0  0
   -5.8457    3.3750    0.0000 C   0  0  0  0  0  0  0  0  0  0  0  0
   -1.9486    4.1250    0.0000 C   0  0  0  0  0  0  0  0  0  0  0  0
   -0.6495    3.3750    0.0000 C   0  0  0  0  0  0  0  0  0  0  0  0
   -3.2476    3.3750    0.0000 C   0  0  0  0  0  0  0  0  0  0  0  0
   -0.6495    1.8750    0.0000 O   0  0  0  0  0  0  0  0  0  0  0  0
   -3.2476    1.8750    0.0000 O   0  0  0  0  0  0  0  0  0  0  0  0
    0.6495    4.1250    0.0000 O   0  0  0  0  0  0  0  0  0  0  0  0
   -4.5466    4.1250    0.0000 O   0  0  0  0  0  0  0  0  0  0  0  0
  4  1  1  0
  5  4  1  0
  6  4  1  0
  7  5  2  0
  8  6  2  0
  9  2  1  0
  9  5  1  0
 10  3  1  0
 10  6  1  0
M  END
>  <NAME>  (4399) 
METHYLMALONIC ACID DIMETHYL ESTER

>  <SYNONYMS>  (4399) 


>  <SPECTRUM TYPE>  (4399) 
MS1

>  <INSTRUMENT TYPE>  (4399) 
EI-B

>  <INSTRUMENT>  (4399) 
JEOL JMS-01-SG

>  <ION MODE>  (4399) 
P

>  <INCHIKEY>  (4399) 
LRBPFPZTIZSOGG-UHFFFAOYSA-N

>  <FORMULA>  (4399) 
C6H10O4

>  <EXACT MASS>  (4399) 
146.0579088

>  <MW>  (4399) 
146

>  <ID>  (4399) 
JP004220

>  <CONTRIBUTOR>  (4399) 
University of Tokyo Team, {Faculty of Engineering, University of Tokyo

>  <COMMENT>  (4399) 
SMILES=COC(=O)C(C)C(=O)OC
cas=609-02-9
InChI=InChI=1S/C6H10O4/c1-4(5(7)9-2)6(8)10-3/h4H,1-3H3
computed SMILES=O=C(OC)C(C(=O)OC)C
accession=JP004220
date=2016.01.19 (Created 2008.10.21, modified 2011.05.06)
author=KOGA M, UNIV. OF OCCUPATIONAL AND ENVIRONMENTAL HEALTH
license=CC BY-NC-SA
exact mass=146.05791
ionization energy=70 eV
ion type=[M]+*
computed spectral entropy=2.2393758836163524
computed normalized entropy=0.704637492993999
SPLASH=splash10-0aor-9400000000-672b97afb0daab281778
submitter=submitter = University of Tokyo Team (Faculty of Engineering, University of Tokyo)
MoNA Rating=3.75

>  <NUM PEAKS>  (4399) 
24

>  <MASS SPECTRAL PEAKS>  (4399) 
40 12.2
41 1.3
43 23
44 0.13
45 3.7
55 24.5
56 21.4
57 3.42
58 1.7
59 99.99
60 2.6
72 2.52
73 1
83 3.5
86 1
87 3.53
88 4.8
91 1.5
101 8.5
102 1.64
114 23.9
115 75.4
116 3.5
146 4.3

>  <PREDICTED SPECTRUM>  (4399) 
14 15
15 184
16 4
25 0
26 94
27 367
28 280
29 283
31 161
32 51
33 80
37 26
39 201
40 68
41 188
42 162
43 243
44 133
45 333
46 29
52 18
53 155
54 98
55 556
56 311
57 227
58 124
59 619
60 94
69 72
71 117
72 121
73 78
74 38
75 14
82 14
83 31
85 53
86 97
87 999
88 292
89 70
101 92
114 221
115 333
116 74
118 58
119 55
146 152
147 7

$$$$

     RDKit          2D

  8  7  0  0  0  0  0  0  0  0999 V2000
    1.9486    2.6250    0.0000 C   0  0  0  0  0  0  0  0  0  0  0  0
   -0.6495    1.1250    0.0000 C   0  0  0  0  0  0  0  0  0  0  0  0
   -4.5466    3.3750    0.0000 C   0  0  0  0  0  0  0  0  0  0  0  0
    0.6495    3.3750    0.0000 C   0  0  0  0  0  0  0  0  0  0  0  0
   -0.6495    2.6250    0.0000 C   0  0  0  0  0  0  0  0  0  0  0  0
   -1.9486    3.3750    0.0000 C   0  0  0  0  0  0  0  0  0  0  0  0
   -1.9486    4.8750    0.0000 O   0  0  0  0  0  0  0  0  0  0  0  0
   -3.2476    2.6250    0.0000 O   0  0  0  0  0  0  0  0  0  0  0  0
  4  1  1  0
  5  2  1  0
  4  5  2  0
  6  5  1  0
  7  6  2  0
  8  3  1  0
  8  6  1  0
M  END
>  <NAME>  (4400) 
(E)-2-METHYLCROTONIC ACID METHYL ESTER

>  <SYNONYMS>  (4400) 
TIGLIC ACID METHYL ESTER

>  <SPECTRUM TYPE>  (4400) 
MS1

>  <INSTRUMENT TYPE>  (4400) 
EI-B

>  <INSTRUMENT>  (4400) 
JEOL JMS-01-SG

>  <ION MODE>  (4400) 
P

>  <INCHIKEY>  (4400) 
YYJWBYNQJLBIGS-SNAWJCMRSA-N

>  <FORMULA>  (4400) 
C6H10O2

>  <EXACT MASS>  (4400) 
114.06807956

>  <MW>  (4400) 
114

>  <ID>  (4400) 
JP004219

>  <CONTRIBUTOR>  (4400) 
University of Tokyo Team, {Faculty of Engineering, University of Tokyo

>  <COMMENT>  (4400) 
SMILES=COC(=O)C(C)=C([H])C
cas=6622-76-0
InChI=InChI=1S/C6H10O2/c1-4-5(2)6(7)8-3/h4H,1-3H3/b5-4+
computed SMILES=O=C(OC)C(=CC)C
accession=JP004219
date=2016.01.19 (Created 2008.10.21, modified 2011.05.06)
author=KOGA M, UNIV. OF OCCUPATIONAL AND ENVIRONMENTAL HEALTH
license=CC BY-NC-SA
exact mass=114.06808
ionization energy=70 eV
ion type=[M]+*
computed spectral entropy=1.752398442691749
computed normalized entropy=0.6640243934932731
SPLASH=splash10-0bu0-9200000000-480300cd80badc159791
submitter=submitter = University of Tokyo Team (Faculty of Engineering, University of Tokyo)
MoNA Rating=3.75

>  <NUM PEAKS>  (4400) 
14

>  <MASS SPECTRAL PEAKS>  (4400) 
38 4.4
50 1.9
51 4.4
53 1.21
54 12.8
55 99.99
56 4.4
71 0.25
82 16.6
83 64.7
84 3.8
99 1.73
114 60.2
115 3.8

>  <PREDICTED SPECTRUM>  (4400) 
15 1
25 1
26 82
27 268
28 76
29 246
31 29
32 12
33 12
37 4
38 104
39 543
40 152
41 286
42 77
43 133
50 105
51 229
52 147
53 502
54 397
55 999
56 200
57 84
59 435
67 117
71 79
81 42
82 511
83 799
84 99
85 160
99 340
100 99
113 85
114 551
115 34

$$$$

     RDKit          2D

  9  8  0  0  0  0  0  0  0  0999 V2000
    2.2733    2.8125    0.0000 C   0  0  0  0  0  0  0  0  0  0  0  0
    0.9743    5.0625    0.0000 C   0  0  0  0  0  0  0  0  0  0  0  0
   -5.5209    2.8125    0.0000 C   0  0  0  0  0  0  0  0  0  0  0  0
   -0.3248    2.8125    0.0000 C   0  0  0  0  0  0  0  0  0  0  0  0
   -1.6238    3.5625    0.0000 C   0  0  0  0  0  0  0  0  0  0  0  0
    0.9743    3.5625    0.0000 C   0  0  0  0  0  0  0  0  0  0  0  0
   -2.9228    2.8125    0.0000 C   0  0  0  0  0  0  0  0  0  0  0  0
   -2.9228    1.3125    0.0000 O   0  0  0  0  0  0  0  0  0  0  0  0
   -4.2219    3.5625    0.0000 O   0  0  0  0  0  0  0  0  0  0  0  0
  4  5  2  0
  6  1  1  0
  6  2  1  0
  6  4  1  0
  7  5  1  0
  8  7  2  0
  9  3  1  0
  9  7  1  0
M  END
>  <NAME>  (4401) 
4-METHYL-2-PENTENOIC ACID METHYL ESTER

>  <SYNONYMS>  (4401) 


>  <SPECTRUM TYPE>  (4401) 
MS1

>  <INSTRUMENT TYPE>  (4401) 
EI-B

>  <INSTRUMENT>  (4401) 
JEOL JMS-01-SG

>  <ION MODE>  (4401) 
P

>  <INCHIKEY>  (4401) 
YVOAQDZUARKSRL-SNAWJCMRSA-N

>  <FORMULA>  (4401) 
C7H12O2

>  <EXACT MASS>  (4401) 
128.083729624

>  <MW>  (4401) 
128

>  <ID>  (4401) 
JP004218

>  <CONTRIBUTOR>  (4401) 
University of Tokyo Team, {Faculty of Engineering, University of Tokyo

>  <COMMENT>  (4401) 
SMILES=COC(=O)C=CC(C)C
cas=50652-78-3
InChI=InChI=1S/C7H12O2/c1-6(2)4-5-7(8)9-3/h4-6H,1-3H3/b5-4+
computed SMILES=O=C(OC)C=CC(C)C
accession=JP004218
date=2016.01.19 (Created 2008.10.21, modified 2011.05.06)
author=KOGA M, UNIV. OF OCCUPATIONAL AND ENVIRONMENTAL HEALTH
license=CC BY-NC-SA
exact mass=128.08373
ionization energy=70 eV
ion type=[M]+*
computed spectral entropy=2.6976748184467914
computed normalized entropy=0.7470883813227762
SPLASH=splash10-00kg-9000000000-7a9a31696e669a6bd3da
submitter=submitter = University of Tokyo Team (Faculty of Engineering, University of Tokyo)
MoNA Rating=3.75

>  <NUM PEAKS>  (4401) 
37

>  <MASS SPECTRAL PEAKS>  (4401) 
38 6.6
39 1.4
40 99.99
41 0.59
43 14
45 1.4
50 2.1
51 0.49
52 1.7
53 20.3
54 4.5
55 1.54
56 2.1
57 2.4
59 13.3
65 0.17
67 15.4
68 19.2
69 71.9
70 0.42
71 4.9
73 42.4
74 2.4
81 2.38
82 3.1
85 8
86 1.7
87 0.87
95 9.8
96 21
97 55.4
98 0.35
113 24.5
114 1.4
127 1.4
128 5.78
129 4.5

>  <PREDICTED SPECTRUM>  (4401) 
26 37
27 203
28 38
29 69
31 24
32 3
33 71
37 5
38 55
39 419
40 89
41 633
42 201
43 285
45 176
50 31
51 74
52 117
53 508
54 272
55 515
56 128
57 163
59 480
60 16
65 227
66 45
67 383
68 497
69 790
70 135
71 190
73 10
79 72
81 320
83 126
85 999
86 180
95 141
96 368
97 723
98 14
100 250
113 579
114 113
127 11
128 520
129 101

$$$$

     RDKit          2D

  8  7  0  0  0  0  0  0  0  0999 V2000
   -4.2219    2.8125    0.0000 C   0  0  0  0  0  0  0  0  0  0  0  0
   -1.6238    2.8125    0.0000 C   0  0  0  0  0  0  0  0  0  0  0  0
   -0.3248    2.0625    0.0000 C   0  0  0  0  0  0  0  0  0  0  0  0
   -1.0748    0.7635    0.0000 Br  0  0  0  0  0  0  0  0  0  0  0  0
    0.9743    1.3125    0.0000 Br  0  0  0  0  0  0  0  0  0  0  0  0
    0.4252    3.3615    0.0000 Br  0  0  0  0  0  0  0  0  0  0  0  0
   -1.6238    4.3125    0.0000 O   0  0  0  0  0  0  0  0  0  0  0  0
   -2.9228    2.0625    0.0000 O   0  0  0  0  0  0  0  0  0  0  0  0
  3  2  1  0
  4  3  1  0
  5  3  1  0
  6  3  1  0
  7  2  2  0
  8  1  1  0
  8  2  1  0
M  END
>  <NAME>  (4402) 
TRIBROMOACETIC ACID METHYL ESTER

>  <SYNONYMS>  (4402) 


>  <SPECTRUM TYPE>  (4402) 
MS1

>  <INSTRUMENT TYPE>  (4402) 
EI-B

>  <INSTRUMENT>  (4402) 
JEOL JMS-01-SG

>  <ION MODE>  (4402) 
P

>  <INCHIKEY>  (4402) 
QQHSHLKOWBDOFC-UHFFFAOYSA-N

>  <FORMULA>  (4402) 
C3H3Br3O2

>  <EXACT MASS>  (4402) 
307.768315636

>  <MW>  (4402) 
307

>  <ID>  (4402) 
JP004217

>  <CONTRIBUTOR>  (4402) 
University of Tokyo Team, {Faculty of Engineering, University of Tokyo

>  <COMMENT>  (4402) 
SMILES=COC(=O)C(Br)(Br)Br
InChI=InChI=1S/C3H3Br3O2/c1-8-2(7)3(4,5)6/h1H3
computed SMILES=O=C(OC)C(Br)(Br)Br
accession=JP004217
license=CC BY-NC-SA
date=2016.01.19 (Created 2008.10.21, modified 2011.05.06)
author=KOGA M, UNIV. OF OCCUPATIONAL AND ENVIRONMENTAL HEALTH
exact mass=307.76832
ionization energy=70 eV
ion type=[M]+*
computed spectral entropy=1.8994500857396495
computed normalized entropy=0.6340520154313504
SPLASH=splash10-0a4l-9200000000-e61e093dd7475eb54ffb
submitter=submitter = University of Tokyo Team (Faculty of Engineering, University of Tokyo)
MoNA Rating=3.75

>  <NUM PEAKS>  (4402) 
20

>  <MASS SPECTRAL PEAKS>  (4402) 
38 1.9
40 19
43 32.5
51 0.19
53 3
59 99.99
60 3.7
80 0.17
82 1.7
107 1.7
121 17.6
123 1.65
149 7
151 7.5
173 1.9
187 0.17
213 2.8
215 5.3
216 2.6
217 2.8

>  <PREDICTED SPECTRUM>  (4402) 
14 24
15 138
25 47
26 66
27 160
28 36
29 202
31 133
32 22
33 9
36 60
39 33
41 181
42 137
43 117
44 92
45 144
53 129
55 49
59 574
60 36
63 67
65 53
69 12
79 42
80 78
81 272
82 27
91 351
92 72
93 245
94 80
95 59
106 163
107 135
108 26
109 88
119 268
120 179
121 467
122 283
123 301
124 108
125 84
135 237
137 29
149 118
150 318
151 254
152 152
169 45
170 285
171 232
172 193
175 27
185 96
186 48
187 274
188 86
189 126
199 286
200 111
201 567
202 138
203 718
204 212
205 173
216 102
229 541
230 20
231 999
232 28
233 404
249 208
251 340
253 190
279 71
281 155

$$$$

     RDKit          2D

  8  7  0  0  0  0  0  0  0  0999 V2000
   -1.9486    4.8750    0.0000 C   0  0  0  0  0  0  0  0  0  0  0  0
    1.9486    2.6250    0.0000 C   0  0  0  0  0  0  0  0  0  0  0  0
   -4.5466    3.3750    0.0000 C   0  0  0  0  0  0  0  0  0  0  0  0
   -1.9486    3.3750    0.0000 C   0  0  0  0  0  0  0  0  0  0  0  0
   -0.6495    2.6250    0.0000 C   0  0  0  0  0  0  0  0  0  0  0  0
   -0.6495    1.1250    0.0000 O   0  0  0  0  0  0  0  0  0  0  0  0
    0.6495    3.3750    0.0000 O   0  0  0  0  0  0  0  0  0  0  0  0
   -3.2476    2.6250    0.0000 S   0  0  0  0  0  0  0  0  0  0  0  0
  4  1  1  0
  5  4  1  0
  6  5  2  0
  7  2  1  0
  7  5  1  0
  8  3  1  0
  8  4  1  0
M  END
>  <NAME>  (4403) 
2-METHYLTHIOPROPIONIC ACID METHYL ESTER

>  <SYNONYMS>  (4403) 


>  <SPECTRUM TYPE>  (4403) 
MS1

>  <INSTRUMENT TYPE>  (4403) 
EI-B

>  <INSTRUMENT>  (4403) 
JEOL JMS-01-SG

>  <ION MODE>  (4403) 
P

>  <INCHIKEY>  (4403) 
QMPSBIWJVUCDKV-UHFFFAOYSA-N

>  <FORMULA>  (4403) 
C5H10O2S

>  <EXACT MASS>  (4403) 
134.04015056

>  <MW>  (4403) 
134

>  <ID>  (4403) 
JP004216

>  <CONTRIBUTOR>  (4403) 
University of Tokyo Team, {Faculty of Engineering, University of Tokyo

>  <COMMENT>  (4403) 
SMILES=COC(=O)C(C)SC
InChI=InChI=1S/C5H10O2S/c1-4(8-3)5(6)7-2/h4H,1-3H3
computed SMILES=O=C(OC)C(SC)C
accession=JP004216
date=2016.01.19 (Created 2008.10.21, modified 2011.05.06)
author=KOGA M, UNIV. OF OCCUPATIONAL AND ENVIRONMENTAL HEALTH
license=CC BY-NC-SA
exact mass=134.04015
ionization energy=70 eV
ion type=[M]+*
computed spectral entropy=1.7282074370809881
computed normalized entropy=0.6233190747760418
SPLASH=splash10-004i-9100000000-f18428591ae4efd7debf
submitter=submitter = University of Tokyo Team (Faculty of Engineering, University of Tokyo)
MoNA Rating=3.75

>  <NUM PEAKS>  (4403) 
16

>  <MASS SPECTRAL PEAKS>  (4403) 
40 22.7
44 1.7
46 1.7
47 2.09
49 3.5
55 5.9
56 4.1
57 0.47
60 1.7
75 99.99
76 4.7
77 0.53
87 1.7
88 25.7
134 32.9
135 1.1

>  <PREDICTED SPECTRUM>  (4403) 
15 47
26 18
27 235
28 117
29 31
32 36
33 119
34 54
35 177
38 2
39 266
40 54
41 580
42 204
43 329
44 195
45 622
46 379
47 514
48 257
49 127
51 36
54 26
55 416
56 197
57 306
58 192
59 596
60 572
61 591
62 110
63 205
71 59
72 18
73 184
74 703
75 999
76 240
77 258
79 134
86 37
87 550
88 359
89 245
91 26
101 33
102 341
103 471
104 123
119 147
134 972
135 270
136 228

$$$$

     RDKit          2D

  7  6  0  0  0  0  0  0  0  0999 V2000
    1.6238    1.6875    0.0000 C   0  0  0  0  0  0  0  0  0  0  0  0
   -3.5724    1.6875    0.0000 C   0  0  0  0  0  0  0  0  0  0  0  0
    0.3248    2.4375    0.0000 C   0  0  0  0  0  0  0  0  0  0  0  0
   -0.9743    1.6875    0.0000 C   0  0  0  0  0  0  0  0  0  0  0  0
   -0.9743    0.1875    0.0000 O   0  0  0  0  0  0  0  0  0  0  0  0
   -2.2733    2.4375    0.0000 O   0  0  0  0  0  0  0  0  0  0  0  0
    0.3248    3.9375    0.0000 S   0  0  0  0  0  0  0  0  0  0  0  0
  3  1  1  0
  4  3  1  0
  5  4  2  0
  6  2  1  0
  6  4  1  0
  7  3  1  0
M  END
>  <NAME>  (4404) 
2-MERCAPTOPROPIONIC ACID METHYL ESTER

>  <SYNONYMS>  (4404) 


>  <SPECTRUM TYPE>  (4404) 
MS1

>  <INSTRUMENT TYPE>  (4404) 
EI-B

>  <INSTRUMENT>  (4404) 
JEOL JMS-01-SG

>  <ION MODE>  (4404) 
P

>  <INCHIKEY>  (4404) 
SNWKNPMDQONHKK-UHFFFAOYSA-N

>  <FORMULA>  (4404) 
C4H8O2S

>  <EXACT MASS>  (4404) 
120.024500496

>  <MW>  (4404) 
120

>  <ID>  (4404) 
JP004215

>  <CONTRIBUTOR>  (4404) 
University of Tokyo Team, {Faculty of Engineering, University of Tokyo

>  <COMMENT>  (4404) 
SMILES=COC(=O)C(C)S
InChI=InChI=1S/C4H8O2S/c1-3(7)4(5)6-2/h3,7H,1-2H3
computed SMILES=O=C(OC)C(S)C
accession=JP004215
date=2016.01.19 (Created 2008.10.21, modified 2011.05.06)
author=KOGA M, UNIV. OF OCCUPATIONAL AND ENVIRONMENTAL HEALTH
license=CC BY-NC-SA
exact mass=120.0245
ionization energy=70 eV
ion type=[M]+*
computed spectral entropy=1.577690050421627
computed normalized entropy=0.5978233336263424
SPLASH=splash10-03di-9000000000-21f1576f306e2ccac859
submitter=submitter = University of Tokyo Team (Faculty of Engineering, University of Tokyo)
MoNA Rating=3.75

>  <NUM PEAKS>  (4404) 
14

>  <MASS SPECTRAL PEAKS>  (4404) 
40 8.9
55 7.5
56 3.9
58 0.28
60 28.2
61 99.99
62 4.6
63 0.42
77 1.4
88 18.9
89 3.2
120 3.46
121 1.4
122 1

>  <PREDICTED SPECTRUM>  (4404) 
14 21
15 115
16 4
25 5
26 76
27 260
28 106
29 293
30 156
31 142
32 70
33 156
34 104
35 108
37 65
38 18
39 140
40 68
41 582
42 216
43 292
44 131
45 502
46 184
47 249
48 83
49 77
50 9
53 51
55 68
57 244
58 87
59 572
60 297
61 999
62 244
63 213
64 54
69 100
73 48
74 64
75 235
76 78
77 109
78 57
87 204
88 403
89 228
90 31
91 34
92 73
93 11
120 526
121 125
122 80

$$$$

     RDKit          2D

  9  8  0  0  0  0  0  0  0  0999 V2000
   -0.9398    4.4469    0.0000 C   0  0  0  0  0  0  0  0  0  0  0  0
    1.9931    2.5478    0.0000 C   0  0  0  0  0  0  0  0  0  0  0  0
   -3.2031    2.5478    0.0000 C   0  0  0  0  0  0  0  0  0  0  0  0
   -0.6050    2.5478    0.0000 C   0  0  0  0  0  0  0  0  0  0  0  0
   -1.9040    3.2978    0.0000 C   0  0  0  0  0  0  0  0  0  0  0  0
   -4.5021    3.2978    0.0000 Br  0  0  0  0  0  0  0  0  0  0  0  0
   -2.8682    4.4469    0.0000 Br  0  0  0  0  0  0  0  0  0  0  0  0
   -0.6050    1.0478    0.0000 O   0  0  0  0  0  0  0  0  0  0  0  0
    0.6941    3.2978    0.0000 O   0  0  0  0  0  0  0  0  0  0  0  0
  5  1  1  0
  5  3  1  0
  5  4  1  0
  6  3  1  0
  7  5  1  0
  8  4  2  0
  9  2  1  0
  9  4  1  0
M  END
>  <NAME>  (4405) 
2,3-DIBROMO-2-METHYLPROPIONIC ACID METHYLESTER

>  <SYNONYMS>  (4405) 


>  <SPECTRUM TYPE>  (4405) 
MS1

>  <INSTRUMENT TYPE>  (4405) 
EI-B

>  <INSTRUMENT>  (4405) 
JEOL JMS-01-SG

>  <ION MODE>  (4405) 
P

>  <INCHIKEY>  (4405) 
GVLXNUSEDDXIGJ-UHFFFAOYSA-N

>  <FORMULA>  (4405) 
C5H8Br2O2

>  <EXACT MASS>  (4405) 
257.889103696

>  <MW>  (4405) 
258

>  <ID>  (4405) 
JP004214

>  <CONTRIBUTOR>  (4405) 
University of Tokyo Team, {Faculty of Engineering, University of Tokyo

>  <COMMENT>  (4405) 
SMILES=COC(=O)C(C)(Br)CBr
cas=3673-79-8
InChI=InChI=1S/C5H8Br2O2/c1-5(7,3-6)4(8)9-2/h3H2,1-2H3
computed SMILES=O=C(OC)C(Br)(C)CBr
accession=JP004214
date=2016.01.19 (Created 2008.10.21, modified 2011.05.06)
author=KOGA M, UNIV. OF OCCUPATIONAL AND ENVIRONMENTAL HEALTH
license=CC BY-NC-SA
exact mass=257.8891
ionization energy=70 eV
ion type=[M]+*
computed spectral entropy=2.4911266753404555
computed normalized entropy=0.7398003624025103
SPLASH=splash10-0lmi-9800000000-48042e4a1131b236031b
submitter=submitter = University of Tokyo Team (Faculty of Engineering, University of Tokyo)
MoNA Rating=3.75

>  <NUM PEAKS>  (4405) 
29

>  <MASS SPECTRAL PEAKS>  (4405) 
43 7.7
44 2.5
53 3.8
55 1.42
57 5.1
59 79.2
60 1.2
69 99.99
70 5.1
71 1.2
82 2.5
85 0.51
89 3.8
99 22
100 45.4
119 1.68
120 19.4
121 18.1
122 19.4
151 2.46
153 22
179 76.6
180 3.8
181 7.53
182 1.2
199 5.1
201 7.7
203 0.25
217 1.2

>  <PREDICTED SPECTRUM>  (4405) 
14 22
15 175
25 23
26 140
27 267
28 11
29 204
31 102
33 47
37 108
38 247
39 850
40 280
41 939
42 493
43 390
44 166
45 298
49 57
50 149
51 50
52 10
53 176
54 58
55 161
56 113
57 361
58 146
59 999
60 165
61 57
65 6
67 96
68 89
69 544
70 185
71 354
72 224
73 238
74 66
75 103
76 52
77 20
80 145
81 172
83 6
84 35
85 489
86 31
87 83
92 51
93 294
94 10
95 129
99 583
100 366
101 184
102 26
105 11
113 51
119 522
120 487
121 612
122 386
123 116
135 22
137 86
138 16
139 99
147 142
149 343
150 38
151 271
153 394
166 14
167 97
178 49
179 674
180 136
181 850
182 111
199 171
201 370
203 150
229 97
231 126

$$$$

     RDKit          2D

 13 13  0  0  0  0  0  0  0  0999 V2000
    5.8387    1.1249    0.0000 C   0  0  0  0  0  0  0  0  0  0  0  0
    0.6368    4.1106    0.0000 C   0  0  0  0  0  0  0  0  0  0  0  0
    1.9358    3.3606    0.0000 C   0  0  0  0  0  0  0  0  0  0  0  0
   -0.6577    3.3684    0.0000 C   0  0  0  0  0  0  0  0  0  0  0  0
    0.6408    1.1176    0.0000 C   0  0  0  0  0  0  0  0  0  0  0  0
    1.9404    1.8684    0.0000 C   0  0  0  0  0  0  0  0  0  0  0  0
   -0.6582    1.8676    0.0000 C   0  0  0  0  0  0  0  0  0  0  0  0
    3.2407    1.1206    0.0000 C   0  0  0  0  0  0  0  0  0  0  0  0
   -1.9574    1.1178    0.0000 N   0  0  0  0  0  0  0  0  0  0  0  0
    3.2432   -0.3794    0.0000 O   0  0  0  0  0  0  0  0  0  0  0  0
   -3.2563    1.8680    0.0000 O   0  0  0  0  0  0  0  0  0  0  0  0
   -1.9576   -0.3822    0.0000 O   0  0  0  0  0  0  0  0  0  0  0  0
    4.5384    1.8728    0.0000 O   0  0  0  0  0  0  0  0  0  0  0  0
  3  2  2  0
  4  2  1  0
  6  3  1  0
  6  5  2  0
  7  4  2  0
  7  5  1  0
  8  6  1  0
  9  7  1  0
 10  8  2  0
 11  9  1  0
 12  9  2  0
 13  1  1  0
 13  8  1  0
M  CHG  2   9   1  11  -1
M  END
>  <NAME>  (4406) 
3-NITROBENZOIC ACID METHYL ESTER

>  <SYNONYMS>  (4406) 


>  <SPECTRUM TYPE>  (4406) 
MS1

>  <INSTRUMENT TYPE>  (4406) 
EI-B

>  <INSTRUMENT>  (4406) 
JEOL JMS-01-SG

>  <ION MODE>  (4406) 
P

>  <INCHIKEY>  (4406) 
AXLYJLKKPUICKV-UHFFFAOYSA-N

>  <FORMULA>  (4406) 
C8H7NO4

>  <EXACT MASS>  (4406) 
181.037507704

>  <MW>  (4406) 
181

>  <ID>  (4406) 
JP004213

>  <CONTRIBUTOR>  (4406) 
University of Tokyo Team, {Faculty of Engineering, University of Tokyo

>  <COMMENT>  (4406) 
SMILES=COC(=O)c(c1)cc(cc1)[N+1]([O-1])=O
cas=618-95-1
InChI=InChI=1S/C8H7NO4/c1-13-8(10)6-3-2-4-7(5-6)9(11)12/h2-5H,1H3
computed SMILES=O=C(OC)C1=CC=CC(=C1)N(=O)=O
accession=JP004213
date=2016.01.19 (Created 2008.10.21, modified 2011.05.06)
author=KOGA M, UNIV. OF OCCUPATIONAL AND ENVIRONMENTAL HEALTH
license=CC BY-NC-SA
exact mass=181.03751
ionization energy=70 eV
ion type=[M]+*
computed spectral entropy=2.678411061762597
computed normalized entropy=0.7417535171275146
SPLASH=splash10-0udi-4900000000-c97f8bef075f3b9301a7
submitter=submitter = University of Tokyo Team (Faculty of Engineering, University of Tokyo)
MoNA Rating=3.75

>  <NUM PEAKS>  (4406) 
37

>  <MASS SPECTRAL PEAKS>  (4406) 
49 1.7
50 29.5
51 4.5
53 0.17
62 1.7
63 6
64 8.3
65 0.91
66 1.7
75 22.9
76 37.2
77 1.06
79 2.5
90 1.4
91 3.4
92 2.83
93 5.7
103 8.3
104 38.3
105 0.42
107 3.1
119 10.3
120 22.9
121 0.4
122 2.5
134 2.5
135 11.1
136 0.83
140 2
150 99.99
151 30
152 0.2
164 4.5
165 2
180 2.2
181 1.86
182 2

>  <PREDICTED SPECTRUM>  (4406) 
14 32
15 94
16 23
25 10
26 40
27 41
28 85
29 157
30 262
31 111
37 140
38 212
39 264
40 94
41 75
42 14
43 75
44 101
45 57
46 67
49 111
50 587
51 418
52 202
53 229
54 111
55 21
56 79
57 19
59 239
60 25
61 129
62 261
63 342
64 287
65 178
66 84
67 7
68 35
70 78
73 161
74 346
75 538
76 679
77 392
78 143
79 114
80 23
81 12
82 46
83 61
84 97
85 11
86 16
89 156
90 198
91 80
92 313
93 14
95 104
103 37
104 506
105 181
107 144
108 92
118 34
119 68
120 324
121 274
122 260
123 195
134 92
135 294
136 202
150 999
151 373
152 103
164 151
165 20
181 274
182 53

$$$$

     RDKit          2D

 10 10  0  0  0  0  0  0  0  0999 V2000
   -3.9478    1.3177    0.0000 C   0  0  0  0  0  0  0  0  0  0  0  0
   -5.2468    3.5677    0.0000 C   0  0  0  0  0  0  0  0  0  0  0  0
    2.7492    2.8173    0.0000 C   0  0  0  0  0  0  0  0  0  0  0  0
   -0.0507    3.5677    0.0000 C   0  0  0  0  0  0  0  0  0  0  0  0
   -3.9478    2.8177    0.0000 C   0  0  0  0  0  0  0  0  0  0  0  0
    1.2484    2.8177    0.0000 C   0  0  0  0  0  0  0  0  0  0  0  0
   -2.6487    3.5677    0.0000 C   0  0  0  0  0  0  0  0  0  0  0  0
   -2.6487    5.0677    0.0000 O   0  0  0  0  0  0  0  0  0  0  0  0
    1.9992    1.5182    0.0000 O   0  0  0  0  0  0  0  0  0  0  0  0
   -1.3497    2.8177    0.0000 O   0  0  0  0  0  0  0  0  0  0  0  0
  5  1  2  0
  5  2  1  0
  6  3  1  0
  6  4  1  0
  7  5  1  0
  8  7  2  0
  9  3  1  0
  9  6  1  0
 10  4  1  0
 10  7  1  0
M  END
>  <NAME>  (4407) 
2,3-EPOXYPROPYL METHACRYLATE

>  <SYNONYMS>  (4407) 


>  <SPECTRUM TYPE>  (4407) 
MS1

>  <INSTRUMENT TYPE>  (4407) 
EI-B

>  <INSTRUMENT>  (4407) 
JEOL JMS-01-SG

>  <ION MODE>  (4407) 
P

>  <INCHIKEY>  (4407) 
VOZRXNHHFUQHIL-UHFFFAOYSA-N

>  <FORMULA>  (4407) 
C7H10O3

>  <EXACT MASS>  (4407) 
142.06299417999998

>  <MW>  (4407) 
142

>  <ID>  (4407) 
JP004212

>  <CONTRIBUTOR>  (4407) 
University of Tokyo Team, {Faculty of Engineering, University of Tokyo

>  <COMMENT>  (4407) 
SMILES=CC(=C)C(=O)OCC(C1)O1
InChI=InChI=1S/C7H10O3/c1-5(2)7(8)10-4-6-3-9-6/h6H,1,3-4H2,2H3
computed SMILES=O=C(OCC1OC1)C(=C)C
accession=JP004212
date=2016.01.19 (Created 2008.10.21, modified 2011.05.06)
author=KOGA M, UNIV. OF OCCUPATIONAL AND ENVIRONMENTAL HEALTH
license=CC BY-NC-SA
exact mass=142.06299
ionization energy=70 eV
ion type=[M]+*
computed spectral entropy=1.4036864574211907
computed normalized entropy=0.49543973113284157
SPLASH=splash10-014i-9000000000-bb461556c1f9a27c144d
submitter=submitter = University of Tokyo Team (Faculty of Engineering, University of Tokyo)
MoNA Rating=3.75

>  <NUM PEAKS>  (4407) 
17

>  <MASS SPECTRAL PEAKS>  (4407) 
43 3.8
44 3.8
45 1.6
50 0.16
55 1.6
56 8.6
68 3.8
69 99.99
70 5.9
81 1.6
85 3.8
86 0.21
91 1.6
97 3.2
129 3.2
139 0.27
141 2.7

>  <PREDICTED SPECTRUM>  (4407) 
14 40
15 144
16 7
19 11
25 29
26 130
27 378
28 216
29 410
30 100
31 260
32 44
33 60
35 8
36 60
37 122
38 206
39 628
40 302
41 910
42 379
43 451
44 92
45 363
46 6
49 19
50 56
51 17
52 18
53 54
54 172
55 187
56 279
57 167
58 165
59 194
67 5
68 64
69 999
70 179
71 64
72 44
73 2
81 0
83 179
84 140
85 120
86 45
87 90
97 72
98 8
99 100
100 6
101 3
110 133
111 139
112 130
113 42
127 106
141 31
142 57

$$$$

     RDKit          2D

 18 18  0  0  0  0  0  0  0  0999 V2000
    6.4891   -6.9311    0.0000 C   0  0  0  0  0  0  0  0  0  0  0  0
    5.1915   -6.1786    0.0000 C   0  0  0  0  0  0  0  0  0  0  0  0
    3.8910   -6.9260    0.0000 C   0  0  0  0  0  0  0  0  0  0  0  0
    2.5935   -6.1735    0.0000 C   0  0  0  0  0  0  0  0  0  0  0  0
    1.2930   -6.9209    0.0000 C   0  0  0  0  0  0  0  0  0  0  0  0
   -0.0046   -6.1684    0.0000 C   0  0  0  0  0  0  0  0  0  0  0  0
   -1.3051   -6.9159    0.0000 C   0  0  0  0  0  0  0  0  0  0  0  0
   -2.6027   -6.1633    0.0000 C   0  0  0  0  0  0  0  0  0  0  0  0
   -3.9032   -6.9108    0.0000 C   0  0  0  0  0  0  0  0  0  0  0  0
   -5.2008   -6.1583    0.0000 C   0  0  0  0  0  0  0  0  0  0  0  0
   -6.5013   -6.9057    0.0000 C   0  0  0  0  0  0  0  0  0  0  0  0
  -10.7248   -8.7051    0.0000 C   0  0  0  0  0  0  0  0  0  0  0  0
  -11.4748   -7.4061    0.0000 C   0  0  0  0  0  0  0  0  0  0  0  0
   -7.7988   -6.1532    0.0000 C   0  0  0  0  0  0  0  0  0  0  0  0
   -9.2564   -8.3885    0.0000 C   0  0  0  0  0  0  0  0  0  0  0  0
  -10.4714   -6.2841    0.0000 C   0  0  0  0  0  0  0  0  0  0  0  0
   -9.0993   -6.9006    0.0000 N   0  0  0  0  0  0  0  0  0  0  0  0
  -10.7833   -4.8169    0.0000 O   0  0  0  0  0  0  0  0  0  0  0  0
  2  1  1  0
  3  2  1  0
  4  3  1  0
  5  4  1  0
  6  5  1  0
  7  6  1  0
  8  7  1  0
  9  8  1  0
 10  9  1  0
 11 10  1  0
 13 12  1  0
 14 11  1  0
 15 12  1  0
 16 13  1  0
 17 14  1  0
 17 15  1  0
 17 16  1  0
 18 16  2  0
M  END
>  <NAME>  (4408) 
N-DODECYL-2-PYRROLIDONE

>  <SYNONYMS>  (4408) 


>  <SPECTRUM TYPE>  (4408) 
MS1

>  <INSTRUMENT TYPE>  (4408) 
EI-B

>  <INSTRUMENT>  (4408) 
HITACHI RMU-6E

>  <ION MODE>  (4408) 
P

>  <INCHIKEY>  (4408) 
NJPQAIBZIHNJDO-UHFFFAOYSA-N

>  <FORMULA>  (4408) 
C16H31NO

>  <EXACT MASS>  (4408) 
253.24056461200001

>  <MW>  (4408) 
253

>  <ID>  (4408) 
JP004193

>  <CONTRIBUTOR>  (4408) 
University of Tokyo Team, {Faculty of Engineering, University of Tokyo

>  <COMMENT>  (4408) 
SMILES=CCCCCCCCCCCCN(C1)C(=O)CC1
InChI=InChI=1S/C16H31NO/c1-2-3-4-5-6-7-8-9-10-11-14-17-15-12-13-16(17)18/h2-15H2,1H3
computed SMILES=O=C1N(CCC1)CCCCCCCCCCCC
accession=JP004193
date=2016.01.19 (Created 2008.10.21, modified 2011.05.06)
author=MASS SPECTROSCOPY SOC. OF JAPAN (MSSJ)
license=CC BY-NC-SA
exact mass=253.24056
ionization energy=70 eV
ion type=[M]+*
computed spectral entropy=2.901826858355865
computed normalized entropy=0.6071880884723866
SPLASH=splash10-0002-9210000000-ad51af7b9ad82e49d365
submitter=submitter = University of Tokyo Team (Faculty of Engineering, University of Tokyo)
MoNA Rating=3.75

>  <NUM PEAKS>  (4408) 
119

>  <MASS SPECTRAL PEAKS>  (4408) 
26 0.2
27 2.6
28 6
29 0.6
30 1.8
31 0.2
32 0.3
39 0.24
40 0.4
41 19.4
42 6.2
43 1.4
44 3.2
45 0.3
52 0.1
53 0.09
54 1.2
55 8.4
56 3.1
57 0.38
58 0.7
59 0.1
65 0.2
66 0.01
67 1.1
68 2.4
69 9.4
70 1.64
71 2.2
72 0.2
73 0.1
77 0.02
78 0.2
79 0.2
80 0.2
81 0.06
82 0.5
83 1
84 2.6
85 0.08
86 8.4
87 0.4
91 0.2
92 0.01
93 0.2
94 0.2
95 0.2
96 0.05
97 0.8
98 99.99
99 73
100 0.5
101 0.4
102 0.1
105 0.1
106 0.01
107 0.1
108 0.1
109 0.2
110 0.02
111 0.2
112 17.6
113 7.4
114 0.05
115 0.1
116 0.1
124 0.9
125 0.02
126 17
127 5.8
128 0.4
129 0.01
138 0.3
139 0.1
140 8
141 0.29
142 0.2
149 0.7
150 0.2
151 0.01
152 0.2
153 0.1
154 4.6
155 0.2
156 0.2
157 0.1
166 0.1
167 0.01
168 4.6
169 1.6
170 0.2
180 0.01
181 4
182 1.4
183 0.1
184 0.01
185 0.1
195 0.1
196 3.4
197 0.13
198 0.3
209 0.1
210 2.6
211 0.11
212 0.2
223 0.1
224 2.4
225 0.05
226 0.1
236 1.1
237 0.2
238 0.1
239 0.2
250 0.1
251 0.2
252 0.13
253 27.4
254 5.4
255 0.4

>  <PREDICTED SPECTRUM>  (4408) 
18 35
26 43
27 219
28 182
29 251
30 290
36 12
38 56
39 286
40 155
41 612
42 376
43 588
44 166
45 72
51 52
52 21
53 171
54 173
55 376
56 375
57 261
58 127
65 18
67 119
68 154
69 312
70 534
71 233
72 150
77 8
79 118
80 66
81 114
82 91
83 138
84 425
85 368
86 451
87 159
95 62
96 32
97 195
98 999
99 727
100 186
101 93
110 21
111 64
112 489
113 464
114 240
124 58
126 825
127 570
128 74
140 240
141 22
154 358
155 149
168 258
169 27
182 171
183 38
196 221
197 142
210 240
211 85
213 41
224 251
225 50
236 12
238 148
239 2
252 165
253 410
254 208
255 23

$$$$

     RDKit          2D

 12 12  0  0  0  0  0  0  0  0999 V2000
   -2.1650   -2.9914    0.0000 C   0  0  0  0  0  0  0  0  0  0  0  0
   -2.1646   -1.4906    0.0000 C   0  0  0  0  0  0  0  0  0  0  0  0
   -0.8660   -3.7414    0.0000 C   0  0  0  0  0  0  0  0  0  0  0  0
    2.8756   -0.6017    0.0000 C   0  0  0  0  0  0  0  0  0  0  0  0
   -0.8650   -0.7398    0.0000 C   0  0  0  0  0  0  0  0  0  0  0  0
    0.4335   -2.9906    0.0000 C   0  0  0  0  0  0  0  0  0  0  0  0
    1.9112   -1.7506    0.0000 C   0  0  0  0  0  0  0  0  0  0  0  0
    4.3527   -0.8625    0.0000 C   0  0  0  0  0  0  0  0  0  0  0  0
    0.9472   -0.0803    0.0000 C   0  0  0  0  0  0  0  0  0  0  0  0
    0.4340   -1.4898    0.0000 C   0  0  0  0  0  0  0  0  0  0  0  0
    5.8299   -1.1233    0.0000 N   0  0  0  0  0  0  0  0  0  0  0  0
    1.4604    1.3292    0.0000 N   0  0  0  0  0  0  0  0  0  0  0  0
  2  1  2  0
  3  1  1  0
  5  2  1  0
  6  3  1  0
  7  4  1  0
  8  4  1  0
 10  5  1  0
 10  6  1  0
 10  7  1  0
 10  9  1  0
 11  8  3  0
 12  9  3  0
M  END
>  <NAME>  (4409) 
4-CYANO-4-(2-CYANOETHYL)CYCLOHEXENE

>  <SYNONYMS>  (4409) 


>  <SPECTRUM TYPE>  (4409) 
MS1

>  <INSTRUMENT TYPE>  (4409) 
EI-B

>  <INSTRUMENT>  (4409) 
HITACHI RMU-6E

>  <ION MODE>  (4409) 
P

>  <INCHIKEY>  (4409) 
DFCDGWKPOLITPU-UHFFFAOYSA-N

>  <FORMULA>  (4409) 
C10H12N2

>  <EXACT MASS>  (4409) 
160.100048384

>  <MW>  (4409) 
160

>  <ID>  (4409) 
JP004191

>  <CONTRIBUTOR>  (4409) 
University of Tokyo Team, {Faculty of Engineering, University of Tokyo

>  <COMMENT>  (4409) 
SMILES=N#CCCC(C#N)(C1)CC=CC1
InChI=InChI=1S/C10H12N2/c11-8-4-7-10(9-12)5-2-1-3-6-10/h1-2H,3-7H2
computed SMILES=N#CCCC1(C#N)CC=CCC1
accession=JP004191
date=2016.01.19 (Created 2008.10.21, modified 2011.05.06)
author=MASS SPECTROSCOPY SOC. OF JAPAN (MSSJ)
license=CC BY-NC-SA
exact mass=160.10005
ionization energy=70 eV
ion type=[M]+*
computed spectral entropy=2.801088700495811
computed normalized entropy=0.6467931595877511
SPLASH=splash10-0ug0-9100000000-00399b54d088d6c4e39a
submitter=submitter = University of Tokyo Team (Faculty of Engineering, University of Tokyo)
MoNA Rating=3.75

>  <NUM PEAKS>  (4409) 
76

>  <MASS SPECTRAL PEAKS>  (4409) 
25 0.1
26 2.3
27 46.2
28 2.04
29 1.5
30 0.8
31 0.1
32 0.04
37 0.7
38 1.9
39 60
40 0.29
41 34.8
42 1.8
43 0.2
49 0.01
50 2
51 15.6
52 13.2
53 1.8
54 99.99
55 13.2
56 1.6
57 0.08
61 0.1
62 0.4
63 1.3
64 0.13
65 10.8
66 2.1
67 1.3
68 0.02
69 0.1
74 0.2
75 0.4
76 0.06
77 16.2
78 2.2
79 27
80 0.26
81 0.6
82 0.1
88 0.1
89 0.04
90 0.4
91 3
92 15.6
93 2.46
94 1.1
95 0.1
102 0.3
103 0.04
104 1.5
105 0.9
106 9.6
107 0.16
108 0.2
115 0.1
116 1.2
117 0.06
118 0.6
119 0.6
120 22.8
121 0.07
130 0.1
131 0.2
132 16.2
133 0.26
134 0.4
143 0.1
144 0.1
145 0.03
146 0.1
159 0.5
160 2.6
161 0.6

>  <PREDICTED SPECTRUM>  (4409) 
14 19
15 37
25 31
26 212
27 498
28 246
29 232
37 105
38 202
39 625
40 325
41 535
42 138
49 33
50 182
51 389
52 444
53 627
54 999
55 269
56 99
62 84
63 138
64 139
65 321
66 223
67 578
68 31
74 7
75 50
77 369
78 350
79 627
80 90
81 161
89 18
90 63
91 203
92 336
93 321
94 45
103 92
104 185
105 234
106 597
107 210
108 80
117 133
118 171
119 32
120 626
121 97
131 253
132 268
133 27
145 64
159 175
160 230
161 40

$$$$

     RDKit          2D

 19 18  0  0  0  0  0  0  0  0999 V2000
  -16.2380   10.1250    0.0000 C   0  0  0  0  0  0  0  0  0  0  0  0
  -14.9389    9.3750    0.0000 C   0  0  0  0  0  0  0  0  0  0  0  0
  -13.6399   10.1250    0.0000 C   0  0  0  0  0  0  0  0  0  0  0  0
  -12.3409    9.3750    0.0000 C   0  0  0  0  0  0  0  0  0  0  0  0
  -11.0418   10.1250    0.0000 C   0  0  0  0  0  0  0  0  0  0  0  0
   -9.7428    9.3750    0.0000 C   0  0  0  0  0  0  0  0  0  0  0  0
   -8.4437   10.1250    0.0000 C   0  0  0  0  0  0  0  0  0  0  0  0
   -7.1447    9.3750    0.0000 C   0  0  0  0  0  0  0  0  0  0  0  0
   -5.8457   10.1250    0.0000 C   0  0  0  0  0  0  0  0  0  0  0  0
   -4.5466    9.3750    0.0000 C   0  0  0  0  0  0  0  0  0  0  0  0
   -3.2476   10.1250    0.0000 C   0  0  0  0  0  0  0  0  0  0  0  0
    3.2476    9.3750    0.0000 C   0  0  0  0  0  0  0  0  0  0  0  0
    1.9486   10.1250    0.0000 C   0  0  0  0  0  0  0  0  0  0  0  0
   -1.9486    9.3750    0.0000 C   0  0  0  0  0  0  0  0  0  0  0  0
    4.5466   10.1250    0.0000 C   0  0  0  0  0  0  0  0  0  0  0  0
    0.6495    9.3750    0.0000 C   0  0  0  0  0  0  0  0  0  0  0  0
   -0.6495   10.1250    0.0000 N   0  0  0  0  0  0  0  0  0  0  0  0
    5.8457    9.3750    0.0000 O   0  0  0  0  0  0  0  0  0  0  0  0
    0.6495    7.8750    0.0000 O   0  0  0  0  0  0  0  0  0  0  0  0
  2  1  1  0
  3  2  1  0
  4  3  1  0
  5  4  1  0
  6  5  1  0
  7  6  1  0
  8  7  1  0
  9  8  1  0
 10  9  1  0
 11 10  1  0
 13 12  1  0
 14 11  1  0
 15 12  1  0
 16 13  1  0
 17 14  1  0
 17 16  2  3
 18 15  1  0
 19 16  1  0
M  END
>  <NAME>  (4410) 
N-DODECYL-4-HYDROXYBUTYRAMIDE

>  <SYNONYMS>  (4410) 


>  <SPECTRUM TYPE>  (4410) 
MS1

>  <INSTRUMENT TYPE>  (4410) 
EI-B

>  <INSTRUMENT>  (4410) 
HITACHI RMU-6E

>  <ION MODE>  (4410) 
P

>  <INCHIKEY>  (4410) 
XDLZKXFUWLXBCL-UHFFFAOYSA-N

>  <FORMULA>  (4410) 
C16H33NO2

>  <EXACT MASS>  (4410) 
271.251129296

>  <MW>  (4410) 
271

>  <ID>  (4410) 
JP004190

>  <CONTRIBUTOR>  (4410) 
University of Tokyo Team, {Faculty of Engineering, University of Tokyo

>  <COMMENT>  (4410) 
SMILES=CCCCCCCCCCCCNC(=O)CCCO
InChI=InChI=1S/C16H33NO2/c1-2-3-4-5-6-7-8-9-10-11-14-17-16(19)13-12-15-18/h18H,2-15H2,1H3,(H,17,19)
computed SMILES=OC(=NCCCCCCCCCCCC)CCCO
accession=JP004190
date=2016.01.19 (Created 2008.10.21, modified 2011.05.06)
author=MASS SPECTROSCOPY SOC. OF JAPAN (MSSJ)
license=CC BY-NC-SA
exact mass=271.25113
ionization energy=70 eV
ion type=[M]+*
computed spectral entropy=4.091152329335183
computed normalized entropy=0.7630907256840063
SPLASH=splash10-0016-9420000000-13b13c0fb4e59a5e806b
submitter=submitter = University of Tokyo Team (Faculty of Engineering, University of Tokyo)
MoNA Rating=3.75

>  <NUM PEAKS>  (4410) 
213

>  <MASS SPECTRAL PEAKS>  (4410) 
26 1.3
27 9
28 28.6
29 2
30 99.99
31 18
32 5.8
33 0.01
34 0.2
35 0.1
36 0.1
37 0.01
38 0.3
39 5.6
40 1.2
41 4.7
42 12
43 47.4
44 31.8
45 1
46 0.5
50 0.2
51 0.4
52 0.05
53 2
54 3
55 29
56 1.16
57 22
58 14
59 7.2
60 0.6
61 0.2
62 0.1
63 0.2
64 0.02
65 0.6
66 0.4
67 3.5
68 0.26
69 22.4
70 7.6
71 9
72 1.32
73 28
74 2.7
75 0.2
76 0.06
77 0.7
78 0.3
79 0.9
80 0.05
81 1.8
82 1.5
83 5.8
84 0.44
85 7
86 31.4
87 48
88 0.27
89 0.5
91 0.6
92 0.2
93 0.03
94 0.4
95 1.1
96 1.2
97 0.36
98 17.6
99 17
100 20
101 1.4
102 1.5
103 0.3
104 1.4
105 0.04
106 0.2
107 1.3
108 0.6
109 0.05
110 0.7
111 1.4
112 7.4
113 0.44
114 20
115 6
116 5
117 4.74
118 3.4
119 0.6
120 0.2
121 0.03
122 0.2
123 0.3
124 0.6
125 0.05
126 11.4
127 2.3
128 12.6
129 0.31
130 18
131 6.2
132 0.5
133 0.04
134 0.2
135 0.2
136 0.2
137 0.03
138 0.4
139 0.1
140 5
141 0.19
142 9.2
143 2.4
144 26
145 0.72
146 0.7
147 0.2
148 0.3
149 0.06
150 0.1
151 0.2
152 0.3
153 0.03
154 5.4
155 1.3
156 7.2
157 0.22
158 16.2
159 5.2
160 0.5
161 0.01
162 0.2
163 0.5
164 0.1
165 0.01
166 0.2
167 0.2
168 3.6
169 0.08
170 6
171 1.6
172 11.6
173 0.5
174 0.6
175 0.1
180 0.2
181 0.02
182 2.8
183 0.7
184 9.2
185 0.24
186 11.8
187 3.2
188 0.4
189 0.02
190 0.1
191 0.1
195 0.1
196 0.23
197 0.7
198 3.6
199 0.9
200 1.24
201 3.3
202 0.3
203 0.1
207 0.02
208 0.1
209 0.1
210 2.2
211 0.05
212 18
213 2.6
214 9
215 0.29
216 0.5
217 0.2
218 0.2
219 0.02
220 0.1
222 0.1
223 0.1
224 0.16
225 0.4
226 0.7
227 16.8
228 0.88
229 2.8
230 0.4
237 0.3
238 0.07
239 0.2
240 24
241 7
242 0.68
243 1.1
244 0.3
252 1.5
253 0.26
254 1.3
255 0.6
256 2.2
257 0.04
258 0.1
267 0.2
268 0.6
269 0.03
270 2.4
271 21
272 6
273 0.08
274 0.1

>  <PREDICTED SPECTRUM>  (4410) 
17 11
18 32
26 64
27 299
28 164
29 442
30 235
31 306
32 1
33 34
36 47
37 6
38 30
39 375
40 183
41 999
42 607
43 929
44 536
45 586
46 167
47 60
48 17
49 5
50 36
51 132
52 88
53 300
54 362
55 905
56 590
57 742
58 344
59 260
60 219
61 56
63 16
65 93
66 101
67 520
68 430
69 761
70 455
71 621
72 330
73 287
74 264
75 127
76 60
77 178
78 104
79 198
80 180
81 520
82 471
83 533
84 367
85 398
86 316
87 226
88 177
89 81
91 119
92 10
93 236
94 143
95 499
96 402
97 389
98 343
99 275
100 300
101 152
102 120
103 129
104 38
105 28
106 25
107 67
108 55
109 349
110 297
111 194
112 281
113 236
114 296
115 185
116 230
117 142
118 64
119 25
120 38
121 87
122 78
123 153
124 234
125 159
126 273
127 247
128 247
129 204
130 234
131 141
135 17
136 34
137 71
138 124
139 100
140 246
141 228
142 302
143 162
144 272
145 104
151 1
152 90
153 103
154 297
155 241
156 302
157 166
158 372
159 82
164 18
166 64
167 93
168 210
169 138
170 309
171 156
172 153
173 48
180 69
181 75
182 131
183 92
184 262
185 108
186 143
196 172
197 47
198 168
199 106
200 126
201 7
208 77
209 69
210 109
212 272
213 145
214 106
215 17
224 21
225 39
226 550
227 362
228 124
229 18
240 180
241 149
242 90
243 18
252 96
253 51
254 167
255 21
256 58
270 132
271 178
272 50

$$$$

     RDKit          2D

 23 24  0  0  0  0  0  0  0  0999 V2000
   15.4100    7.7942    0.0000 C   0  0  0  0  0  0  0  0  0  0  0  0
   14.6600    6.4952    0.0000 C   0  0  0  0  0  0  0  0  0  0  0  0
   13.1600    6.4952    0.0000 C   0  0  0  0  0  0  0  0  0  0  0  0
   12.4100    5.1962    0.0000 C   0  0  0  0  0  0  0  0  0  0  0  0
   10.9100    5.1962    0.0000 C   0  0  0  0  0  0  0  0  0  0  0  0
   10.1600    3.8971    0.0000 C   0  0  0  0  0  0  0  0  0  0  0  0
    8.6600    3.8971    0.0000 C   0  0  0  0  0  0  0  0  0  0  0  0
    7.9100    2.5981    0.0000 C   0  0  0  0  0  0  0  0  0  0  0  0
    6.4100    2.5981    0.0000 C   0  0  0  0  0  0  0  0  0  0  0  0
    5.6600    1.2990    0.0000 C   0  0  0  0  0  0  0  0  0  0  0  0
   -3.0000    0.7500    0.0000 C   0  0  0  0  0  0  0  0  0  0  0  0
   -3.0000   -0.7500    0.0000 C   0  0  0  0  0  0  0  0  0  0  0  0
    4.1600    1.2990    0.0000 C   0  0  0  0  0  0  0  0  0  0  0  0
   -1.7000    1.5000    0.0000 C   0  0  0  0  0  0  0  0  0  0  0  0
   -1.7000   -1.5000    0.0000 C   0  0  0  0  0  0  0  0  0  0  0  0
    3.4100   -0.0000    0.0000 C   0  0  0  0  0  0  0  0  0  0  0  0
   -0.4000    0.7500    0.0000 C   0  0  0  0  0  0  0  0  0  0  0  0
   -0.4000   -0.7500    0.0000 C   0  0  0  0  0  0  0  0  0  0  0  0
    1.0300    1.2100    0.0000 C   0  0  0  0  0  0  0  0  0  0  0  0
    1.0300   -1.2100    0.0000 C   0  0  0  0  0  0  0  0  0  0  0  0
    1.9100    0.0000    0.0000 N   0  0  0  0  0  0  0  0  0  0  0  0
    1.4953    2.6360    0.0000 O   0  0  0  0  0  0  0  0  0  0  0  0
    1.4953   -2.6360    0.0000 O   0  0  0  0  0  0  0  0  0  0  0  0
  2  1  1  0
  3  2  1  0
  4  3  1  0
  5  4  1  0
  6  5  1  0
  7  6  1  0
  8  7  1  0
  9  8  1  0
 10  9  1  0
 12 11  2  0
 13 10  1  0
 14 11  1  0
 15 12  1  0
 16 13  1  0
 17 14  2  0
 18 15  2  0
 18 17  1  0
 19 17  1  0
 20 18  1  0
 21 16  1  0
 21 19  1  0
 21 20  1  0
 22 19  2  0
 23 20  2  0
M  END
>  <NAME>  (4411) 
N-DODECYLPHTHALIMIDE

>  <SYNONYMS>  (4411) 


>  <SPECTRUM TYPE>  (4411) 
MS1

>  <INSTRUMENT TYPE>  (4411) 
EI-B

>  <INSTRUMENT>  (4411) 
HITACHI RMU-6E

>  <ION MODE>  (4411) 
P

>  <INCHIKEY>  (4411) 
LFUHZZBSKQGQKA-UHFFFAOYSA-N

>  <FORMULA>  (4411) 
C20H29NO2

>  <EXACT MASS>  (4411) 
315.219829168

>  <MW>  (4411) 
315

>  <ID>  (4411) 
JP004189

>  <CONTRIBUTOR>  (4411) 
University of Tokyo Team, {Faculty of Engineering, University of Tokyo

>  <COMMENT>  (4411) 
SMILES=CCCCCCCCCCCCn(c(=O)1)c(=O)c(c2)c(ccc2)1
InChI=InChI=1S/C20H29NO2/c1-2-3-4-5-6-7-8-9-10-13-16-21-19(22)17-14-11-12-15-18(17)20(21)23/h11-12,14-15H,2-10,13,16H2,1H3
computed SMILES=O=C1C=2C=CC=CC2C(=O)N1CCCCCCCCCCCC
accession=JP004189
date=2016.01.19 (Created 2008.10.21, modified 2011.05.06)
author=MASS SPECTROSCOPY SOC. OF JAPAN (MSSJ)
license=CC BY-NC-SA
exact mass=315.21983
ionization energy=70 eV
ion type=[M]+*
computed spectral entropy=3.3266795561645615
computed normalized entropy=0.6385811303769535
SPLASH=splash10-03xr-2902000000-fb601bf533c4911f1504
submitter=submitter = University of Tokyo Team (Faculty of Engineering, University of Tokyo)
MoNA Rating=3.75

>  <NUM PEAKS>  (4411) 
183

>  <MASS SPECTRAL PEAKS>  (4411) 
38 0.6
39 3.9
40 0.6
41 1.8
42 2.8
43 19.8
44 1.1
45 0.04
50 1.8
51 2.1
52 0.6
53 0.11
54 1.9
55 13.6
56 3
57 0.57
58 0.7
59 0.4
60 0.4
61 0.02
62 0.3
63 0.3
64 0.2
65 0.07
66 0.3
67 2.5
68 1
69 0.44
70 3.9
71 1.6
72 0.3
73 0.02
74 0.8
75 1.6
76 6
77 1.24
78 1.4
79 0.9
80 0.2
81 0.11
82 1.4
83 4.2
84 1.4
85 0.06
86 0.7
87 0.2
88 0.3
89 0.02
90 0.5
91 0.8
92 0.3
93 0.02
94 0.1
95 0.3
96 1.4
97 0.16
98 0.8
99 0.6
100 0.5
101 0.03
102 2.9
103 1.4
104 8.8
105 1.1
106 1.7
107 0.6
108 0.2
109 0.03
110 1.2
111 1
112 1.2
113 0.06
114 0.1
115 0.9
116 0.7
117 0.37
118 1
119 0.8
120 0.2
121 0.04
122 1
123 0.4
124 0.4
125 0.05
126 0.8
127 0.8
128 0.4
129 0.07
130 18
131 2.7
132 3
133 1.32
134 2.3
135 0.7
140 0.7
141 0.23
142 0.6
143 1.4
144 0.4
145 0.06
146 1.4
147 2.6
148 20.4
149 0.68
150 2.8
151 0.5
152 0.5
154 0.03
155 0.7
156 0.7
157 0.3
158 0.04
159 0.5
160 99.99
161 62.8
162 1.3
163 2.7
164 0.6
165 0.2
166 0.05
167 0.2
169 0.6
170 0.5
172 0.06
173 0.4
174 14.4
175 12
176 0.13
177 0.4
178 0.2
181 0.6
182 0.3
183 0.6
184 0.8
185 0.5
186 0.07
187 0.4
188 9.2
189 3.6
190 0.06
191 0.3
200 0.4
201 0.2
202 1.1
203 2.4
204 0.7
205 0.3
206 0.01
210 0.9
211 0.3
216 3.4
217 0.1
218 0.2
219 0.3
220 0.2
226 0.05
227 0.3
228 0.2
229 0.1
230 0.23
231 0.7
244 1.3
245 0.7
258 0.11
259 0.9
260 0.2
270 0.3
271 0.03
272 0.7
273 0.4
286 4.3
287 0.17
288 0.2
297 0.5
298 1.1
299 0.03
300 0.3
314 0.4
315 94
316 1.8
317 2.7
318 0.3
319 0.1

>  <PREDICTED SPECTRUM>  (4411) 
27 47
28 19
29 85
39 94
40 30
41 455
42 149
43 482
44 79
50 160
51 146
52 31
53 91
54 79
55 375
56 144
57 349
58 6
63 11
64 22
65 64
66 48
67 134
68 71
69 233
70 75
71 181
72 16
74 35
75 98
76 287
77 371
78 114
79 35
81 62
82 70
83 175
84 129
85 79
86 63
89 9
90 81
91 147
92 46
93 43
96 57
97 101
98 68
101 8
102 144
103 111
104 355
105 433
106 110
116 18
117 98
118 16
119 142
120 25
121 18
127 35
128 85
129 66
130 431
131 135
132 245
133 268
134 85
146 227
147 170
148 359
149 157
155 27
156 30
160 999
161 767
162 193
168 101
169 25
170 38
171 18
172 29
174 473
175 350
187 6
188 306
189 194
190 20
202 136
216 226
217 87
230 74
231 41
244 157
245 9
246 10
258 83
259 82
260 10
272 56
273 5
286 179
287 47
298 17
300 15
314 80
315 908
316 372
317 159
318 17

$$$$

     RDKit          2D

 14 13  0  0  0  0  0  0  0  0999 V2000
    4.5466    7.1250    0.0000 C   0  0  0  0  0  0  0  0  0  0  0  0
    3.2476    7.8750    0.0000 C   0  0  0  0  0  0  0  0  0  0  0  0
    1.9486    7.1250    0.0000 C   0  0  0  0  0  0  0  0  0  0  0  0
    0.6495    7.8750    0.0000 C   0  0  0  0  0  0  0  0  0  0  0  0
   -0.6495    7.1250    0.0000 C   0  0  0  0  0  0  0  0  0  0  0  0
   -1.9486    7.8750    0.0000 C   0  0  0  0  0  0  0  0  0  0  0  0
   -3.2476    7.1250    0.0000 C   0  0  0  0  0  0  0  0  0  0  0  0
   -4.5466    7.8750    0.0000 C   0  0  0  0  0  0  0  0  0  0  0  0
   -5.8457    7.1250    0.0000 C   0  0  0  0  0  0  0  0  0  0  0  0
   -7.1447    7.8750    0.0000 C   0  0  0  0  0  0  0  0  0  0  0  0
   -8.4437    7.1250    0.0000 C   0  0  0  0  0  0  0  0  0  0  0  0
   -9.7428    7.8750    0.0000 C   0  0  0  0  0  0  0  0  0  0  0  0
  -11.0418    7.1250    0.0000 C   0  0  0  0  0  0  0  0  0  0  0  0
  -12.3409    7.8750    0.0000 N   0  0  0  0  0  0  0  0  0  0  0  0
  2  1  1  0
  3  2  1  0
  4  3  1  0
  5  4  1  0
  6  5  1  0
  7  6  1  0
  8  7  1  0
  9  8  1  0
 10  9  1  0
 11 10  1  0
 12 11  1  0
 13 12  1  0
 14 13  1  0
M  END
>  <NAME>  (4412) 
TRIPECANYLAMINE

>  <SYNONYMS>  (4412) 


>  <SPECTRUM TYPE>  (4412) 
MS1

>  <INSTRUMENT TYPE>  (4412) 
EI-B

>  <INSTRUMENT>  (4412) 
HITACHI RMU-6E

>  <ION MODE>  (4412) 
P

>  <INCHIKEY>  (4412) 
ABVVEAHYODGCLZ-UHFFFAOYSA-N

>  <FORMULA>  (4412) 
C13H29N

>  <EXACT MASS>  (4412) 
199.229999928

>  <MW>  (4412) 
199

>  <ID>  (4412) 
JP004187

>  <CONTRIBUTOR>  (4412) 
University of Tokyo Team, {Faculty of Engineering, University of Tokyo

>  <COMMENT>  (4412) 
SMILES=CCCCCCCCCCCCCN
InChI=InChI=1S/C13H29N/c1-2-3-4-5-6-7-8-9-10-11-12-13-14/h2-14H2,1H3
computed SMILES=NCCCCCCCCCCCCC
accession=JP004187
date=2016.01.19 (Created 2008.10.21, modified 2011.05.06)
author=MASS SPECTROSCOPY SOC. OF JAPAN (MSSJ)
license=CC BY-NC-SA
exact mass=199.23
ionization energy=70 eV
ion type=[M]+*
computed spectral entropy=2.6033191851696786
computed normalized entropy=0.5859832417335171
SPLASH=splash10-001i-9100000000-a77427073cb0ce66876b
submitter=submitter = University of Tokyo Team (Faculty of Engineering, University of Tokyo)
MoNA Rating=3.75

>  <NUM PEAKS>  (4412) 
85

>  <MASS SPECTRAL PEAKS>  (4412) 
26 0.3
27 2.8
28 2.3
29 0.64
30 99.99
31 2.2
32 0.3
33 0.01
39 1.4
40 0.5
41 12
42 0.33
43 11
44 22
45 9
46 0.03
51 0.1
52 0.1
53 0.8
54 0.08
55 8.8
56 5.8
57 4.8
58 0.09
59 3.2
60 0.2
65 0.2
66 0.01
67 0.9
68 0.9
69 4.2
70 0.22
71 1.1
72 3
73 1.6
79 0.02
80 0.1
81 0.4
82 0.9
83 0.3
84 1.4
85 0.5
86 6.8
87 0.12
88 0.1
96 0.1
97 0.6
98 0.2
99 1.1
100 3.6
101 0.6
110 0.04
111 1.1
112 0.7
113 0.1
114 0.17
115 0.4
124 0.2
125 0.7
126 0.05
127 0.1
128 1.3
129 0.3
139 0.02
140 0.4
141 0.2
142 1.8
143 0.03
152 0.2
153 0.1
154 0.4
155 0.02
156 1.3
157 0.2
168 0.2
170 0.1
171 0.1
182 0.4
183 0.1
184 0.07
185 0.1
198 1.8
199 7.2
200 0.22
201 0.2

>  <PREDICTED SPECTRUM>  (4412) 
17 3
18 46
27 123
28 187
29 188
30 999
31 160
32 42
39 135
40 47
41 489
42 266
43 619
44 953
45 343
53 56
54 159
55 301
56 513
57 477
58 284
59 297
67 143
68 86
69 298
70 248
71 187
72 168
73 33
81 30
82 78
83 127
84 132
85 98
86 217
96 21
97 68
98 141
100 111
101 87
112 36
114 25
126 15
155 143
156 187
170 230
182 49
183 11
184 92
198 93
199 235
200 78

$$$$

     RDKit          2D

 19 19  0  0  0  0  0  0  0  0999 V2000
   -0.6563   -7.2921    0.0000 C   0  0  0  0  0  0  0  0  0  0  0  0
   -1.9568   -8.0396    0.0000 C   0  0  0  0  0  0  0  0  0  0  0  0
    0.6412   -8.0447    0.0000 C   0  0  0  0  0  0  0  0  0  0  0  0
   -3.2544   -7.2871    0.0000 C   0  0  0  0  0  0  0  0  0  0  0  0
    1.9417   -7.2972    0.0000 C   0  0  0  0  0  0  0  0  0  0  0  0
   -4.5549   -8.0345    0.0000 C   0  0  0  0  0  0  0  0  0  0  0  0
    3.2393   -8.0498    0.0000 C   0  0  0  0  0  0  0  0  0  0  0  0
   -5.8525   -7.2820    0.0000 C   0  0  0  0  0  0  0  0  0  0  0  0
    4.5398   -7.3023    0.0000 C   0  0  0  0  0  0  0  0  0  0  0  0
   -7.1530   -8.0294    0.0000 C   0  0  0  0  0  0  0  0  0  0  0  0
  -11.3766   -9.8289    0.0000 C   0  0  0  0  0  0  0  0  0  0  0  0
  -12.1266   -8.5298    0.0000 C   0  0  0  0  0  0  0  0  0  0  0  0
    5.8374   -8.0548    0.0000 C   0  0  0  0  0  0  0  0  0  0  0  0
   -8.4505   -7.2769    0.0000 C   0  0  0  0  0  0  0  0  0  0  0  0
   -9.9081   -9.5122    0.0000 C   0  0  0  0  0  0  0  0  0  0  0  0
  -11.1231   -7.4078    0.0000 C   0  0  0  0  0  0  0  0  0  0  0  0
    7.1379   -7.3074    0.0000 N   0  0  0  0  0  0  0  0  0  0  0  0
   -9.7510   -8.0244    0.0000 N   0  0  0  0  0  0  0  0  0  0  0  0
  -11.4350   -5.9406    0.0000 O   0  0  0  0  0  0  0  0  0  0  0  0
  2  1  1  0
  3  1  1  0
  4  2  1  0
  5  3  1  0
  6  4  1  0
  7  5  1  0
  8  6  1  0
  9  7  1  0
 10  8  1  0
 12 11  1  0
 13  9  1  0
 14 10  1  0
 15 11  1  0
 16 12  1  0
 17 13  1  0
 18 14  1  0
 18 15  1  0
 18 16  1  0
 19 16  2  0
M  END
>  <NAME>  (4413) 
N-(12-AMINODODECYL)-2-PYRROLIDONE

>  <SYNONYMS>  (4413) 


>  <SPECTRUM TYPE>  (4413) 
MS1

>  <INSTRUMENT TYPE>  (4413) 
EI-B

>  <INSTRUMENT>  (4413) 
HITACHI RMU-6E

>  <ION MODE>  (4413) 
P

>  <INCHIKEY>  (4413) 
AWDGGAOYFMTHKT-UHFFFAOYSA-N

>  <FORMULA>  (4413) 
C16H32N2O

>  <EXACT MASS>  (4413) 
268.251463644

>  <MW>  (4413) 
268

>  <ID>  (4413) 
JP004186

>  <CONTRIBUTOR>  (4413) 
University of Tokyo Team, {Faculty of Engineering, University of Tokyo

>  <COMMENT>  (4413) 
SMILES=NCCCCCCCCCCCCN(C1)C(=O)CC1
InChI=InChI=1S/C16H32N2O/c17-13-9-7-5-3-1-2-4-6-8-10-14-18-15-11-12-16(18)19/h1-15,17H2
computed SMILES=O=C1N(CCC1)CCCCCCCCCCCCN
accession=JP004186
date=2016.01.19 (Created 2008.10.21, modified 2011.05.06)
author=MASS SPECTROSCOPY SOC. OF JAPAN (MSSJ)
license=CC BY-NC-SA
exact mass=268.25146
ionization energy=70 eV
ion type=[M]+*
computed spectral entropy=3.6048340156667362
computed normalized entropy=0.7326926811326967
SPLASH=splash10-0002-9310000000-2ad4386aacc1d37c04f3
submitter=submitter = University of Tokyo Team (Faculty of Engineering, University of Tokyo)
MoNA Rating=3.75

>  <NUM PEAKS>  (4413) 
137

>  <MASS SPECTRAL PEAKS>  (4413) 
26 0.4
27 3.6
28 14
29 0.56
30 65.6
31 0.8
32 2
37 0.03
38 0.3
39 5.4
40 2
41 3.2
42 10
43 14
44 13.8
45 0.28
52 0.2
53 2.4
54 2.6
55 2.2
56 12
57 4.3
58 2
59 0.28
60 0.2
65 0.6
66 0.6
67 0.4
68 5.6
69 19
70 40
71 0.36
72 3.4
73 1.6
74 0.2
79 0.1
80 0.8
81 2.2
82 1.8
83 0.56
84 5.4
85 1.6
86 14
87 0.26
88 0.2
91 0.6
92 0.4
93 0.04
94 0.4
95 1.2
96 2.8
97 0.26
98 99.99
99 60
100 8
101 0.16
102 0.3
107 0.4
108 0.4
109 0.08
110 0.8
111 1
112 28
113 1.05
114 4
115 1.6
116 0.3
117 0.03
118 0.3
119 0.3
120 0.3
121 0.04
122 0.1
123 0.1
124 2.6
125 0.1
126 13
127 8.6
128 4.2
129 0.1
131 0.3
132 0.2
137 0.2
138 0.12
139 0.3
140 7.6
141 4.6
142 0.4
143 1.2
149 1.4
150 0.3
152 0.08
153 0.3
154 10.2
155 4.4
156 0.5
157 1.6
158 0.4
168 9
169 0.4
170 16
171 2.8
181 0.2
182 1
183 3.4
184 2
194 0.3
195 0.02
196 12
197 4.6
198 0.8
208 0.03
209 0.8
210 10
211 5.6
212 0.08
213 0.2
222 0.8
223 0.8
224 1.04
225 4.2
226 1.4
227 0.6
228 0.01
238 3.2
239 17.6
240 4
241 0.02
251 0.6
252 4
253 0.6
254 0.02
255 0.2
267 2
268 14
269 0.4
270 0.3

>  <PREDICTED SPECTRUM>  (4413) 
15 51
16 29
17 56
18 96
26 47
27 126
28 151
29 213
30 523
31 53
32 0
38 21
39 181
40 104
41 560
42 394
43 591
44 319
45 198
46 61
50 3
51 69
52 43
53 148
54 203
55 514
56 506
57 366
58 209
59 149
60 107
65 20
66 11
67 157
68 217
69 442
70 644
71 198
72 194
73 177
74 84
79 45
80 55
81 152
82 179
83 271
84 356
85 314
86 404
87 251
88 38
95 28
96 151
97 266
98 999
99 755
100 288
101 212
109 42
110 129
111 132
112 587
113 349
114 236
115 144
116 13
120 7
124 122
125 69
126 621
127 332
128 219
129 114
130 3
132 1
137 39
138 55
139 90
140 278
141 275
142 185
143 63
152 21
153 31
154 163
155 210
156 186
157 138
158 11
167 81
168 348
169 233
170 247
171 141
172 43
180 8
181 61
182 289
183 210
184 99
185 108
186 48
193 10
194 38
195 47
196 281
197 119
198 107
210 205
211 179
212 165
223 3
224 311
225 205
226 145
228 42
238 313
239 436
240 173
250 101
251 36
252 124
253 28
267 95
268 373
269 165
270 11

$$$$

     RDKit          2D

 16 18  0  0  0  0  0  0  0  0999 V2000
   -2.6000   -0.7500    0.0000 C   0  0  0  0  0  0  0  0  0  0  0  0
   -2.6000    0.7500    0.0000 C   0  0  0  0  0  0  0  0  0  0  0  0
    5.5206    3.3082    0.0000 C   0  0  0  0  0  0  0  0  0  0  0  0
   -1.3000   -1.5000    0.0000 C   0  0  0  0  0  0  0  0  0  0  0  0
   -1.3000    1.5000    0.0000 C   0  0  0  0  0  0  0  0  0  0  0  0
    6.2734    2.0107    0.0000 C   0  0  0  0  0  0  0  0  0  0  0  0
    1.3000   -1.5000    0.0000 C   0  0  0  0  0  0  0  0  0  0  0  0
    2.6000   -0.7500    0.0000 C   0  0  0  0  0  0  0  0  0  0  0  0
    4.0529    2.9884    0.0000 C   0  0  0  0  0  0  0  0  0  0  0  0
    1.3000    1.5000    0.0000 C   0  0  0  0  0  0  0  0  0  0  0  0
    0.0000   -0.7500    0.0000 C   0  0  0  0  0  0  0  0  0  0  0  0
    0.0000    0.7500    0.0000 C   0  0  0  0  0  0  0  0  0  0  0  0
    2.6000    0.7500    0.0000 C   0  0  0  0  0  0  0  0  0  0  0  0
    5.2723    0.8866    0.0000 C   0  0  0  0  0  0  0  0  0  0  0  0
    3.8989    1.5002    0.0000 N   0  0  0  0  0  0  0  0  0  0  0  0
    5.5873   -0.5800    0.0000 O   0  0  0  0  0  0  0  0  0  0  0  0
  2  1  2  0
  4  1  1  0
  5  2  1  0
  6  3  1  0
  8  7  2  0
  9  3  1  0
 11  4  2  0
 11  7  1  0
 12  5  2  0
 12 10  1  0
 12 11  1  0
 13  8  1  0
 13 10  2  0
 14  6  1  0
 15  9  1  0
 15 13  1  0
 15 14  1  0
 16 14  2  0
M  END
>  <NAME>  (4414) 
N-BETA-NAPHTHYL-2-PYRROLIDONE

>  <SYNONYMS>  (4414) 


>  <SPECTRUM TYPE>  (4414) 
MS1

>  <INSTRUMENT TYPE>  (4414) 
EI-B

>  <INSTRUMENT>  (4414) 
HITACHI RMU-6E

>  <ION MODE>  (4414) 
P

>  <INCHIKEY>  (4414) 
FJWHXLZPCPMMNL-UHFFFAOYSA-N

>  <FORMULA>  (4414) 
C14H13NO

>  <EXACT MASS>  (4414) 
211.099714036

>  <MW>  (4414) 
211

>  <ID>  (4414) 
JP004185

>  <CONTRIBUTOR>  (4414) 
University of Tokyo Team, {Faculty of Engineering, University of Tokyo

>  <COMMENT>  (4414) 
SMILES=O=C(C3)N(CC3)c(c1)cc(c2)c(ccc2)c1
InChI=InChI=1S/C14H13NO/c16-14-6-3-9-15(14)13-8-7-11-4-1-2-5-12(11)10-13/h1-2,4-5,7-8,10H,3,6,9H2
computed SMILES=O=C1N(C=2C=CC=3C=CC=CC3C2)CCC1
accession=JP004185
date=2016.01.19 (Created 2008.10.21, modified 2011.05.06)
author=MASS SPECTROSCOPY SOC. OF JAPAN (MSSJ)
license=CC BY-NC-SA
exact mass=211.09971
ionization energy=70 eV
ion type=[M]+*
computed spectral entropy=3.319824220174369
computed normalized entropy=0.6565788824314639
SPLASH=splash10-00kf-2900000000-5b7bdf0a00ac8c8b0862
submitter=submitter = University of Tokyo Team (Faculty of Engineering, University of Tokyo)
MoNA Rating=3.75

>  <NUM PEAKS>  (4414) 
157

>  <MASS SPECTRAL PEAKS>  (4414) 
26 0.6
27 3.5
28 12.1
29 0.21
30 2.6
31 0.6
32 1.2
33 0.01
34 0.2
37 0.7
38 0.6
39 0.53
40 0.3
41 5.8
42 2.5
43 0.22
44 1
45 0.6
46 0.1
49 0.01
50 1.7
51 3.5
52 1.5
53 0.08
54 0.4
55 3.1
56 1.4
57 0.2
58 1.7
59 0.5
60 0.3
61 0.09
62 1.9
63 6
64 1.5
65 0.31
66 0.6
67 0.7
68 0.5
69 0.11
70 1.3
71 0.9
72 2.3
73 0.04
74 2.2
75 3
76 2
77 0.45
78 1.4
79 0.3
80 0.2
81 0.04
82 0.4
83 0.8
84 1.4
85 0.21
86 4.4
87 2.2
88 1.8
89 0.9
90 1.1
91 1.4
92 0.5
93 0.03
94 0.4
95 0.4
96 0.4
97 0.06
98 3.1
99 2.5
100 0.9
101 0.13
102 0.9
103 0.7
104 0.5
105 0.04
106 0.2
107 0.4
108 0.2
109 0.02
110 0.5
111 0.5
112 1.3
113 0.4
114 4.6
115 51.8
116 26
117 0.5
118 0.4
119 0.4
120 0.2
121 0.03
122 0.2
123 0.1
124 0.9
125 0.06
126 4
127 11.2
128 5.2
129 0.38
130 0.5
131 0.3
132 0.1
133 0.03
134 0.2
135 0.2
136 0.2
137 0.02
138 0.1
139 0.6
140 5.2
141 0.4
142 6
143 99.99
144 28.2
145 0.31
146 0.2
149 1.7
150 0.1
151 0.02
152 0.6
153 0.3
154 1.7
155 0.15
156 31
157 4.3
158 0.6
159 0.01
165 0.1
166 0.3
167 0.7
168 0.09
169 1.1
170 0.4
171 0.2
178 0.02
179 0.2
180 0.5
181 0.3
182 0.17
183 4.4
184 0.6
185 0.7
186 0.02
195 0.1
196 0.1
197 0.2
198 0.02
199 0.2
207 0.1
208 0.1
209 0.01
210 1.1
211 17
212 3.3
213 0.03
214 0.1

>  <PREDICTED SPECTRUM>  (4414) 
14 11
26 36
27 73
28 59
29 36
33 10
37 42
38 79
39 238
40 130
41 315
42 182
43 76
44 118
45 103
48 8
50 174
51 254
52 125
53 82
54 33
55 268
56 127
57 188
58 119
60 1
61 17
62 165
63 259
64 175
65 137
66 27
67 13
68 43
69 148
70 71
71 65
72 29
73 26
74 91
75 209
76 150
77 229
78 89
79 17
81 13
82 29
83 57
84 90
85 61
86 128
87 130
88 95
89 222
90 110
91 40
93 27
95 3
96 4
97 39
98 106
99 52
100 35
101 151
102 75
109 6
111 86
112 73
113 188
114 314
115 726
116 321
117 113
125 47
126 221
127 252
128 184
129 118
130 32
138 78
139 140
140 207
141 169
142 308
143 999
144 539
145 50
154 94
155 84
156 499
157 189
158 94
166 94
167 68
168 83
169 109
170 113
182 165
183 187
184 51
209 1
210 70
211 585
212 225
213 75

$$$$

     RDKit          2D

 25 25  0  0  0  0  0  0  0  0999 V2000
  -18.4031   -9.3820    0.0000 C   0  0  0  0  0  0  0  0  0  0  0  0
    8.8468   -9.0340    0.0000 C   0  0  0  0  0  0  0  0  0  0  0  0
  -17.1041  -10.1320    0.0000 C   0  0  0  0  0  0  0  0  0  0  0  0
  -15.8051   -9.3820    0.0000 C   0  0  0  0  0  0  0  0  0  0  0  0
  -14.5060  -10.1320    0.0000 C   0  0  0  0  0  0  0  0  0  0  0  0
  -13.2070   -9.3820    0.0000 C   0  0  0  0  0  0  0  0  0  0  0  0
  -11.9080  -10.1320    0.0000 C   0  0  0  0  0  0  0  0  0  0  0  0
  -10.6089   -9.3820    0.0000 C   0  0  0  0  0  0  0  0  0  0  0  0
   -9.3099  -10.1320    0.0000 C   0  0  0  0  0  0  0  0  0  0  0  0
   -8.0108   -9.3820    0.0000 C   0  0  0  0  0  0  0  0  0  0  0  0
   -6.7118  -10.1320    0.0000 C   0  0  0  0  0  0  0  0  0  0  0  0
   -5.4128   -9.3820    0.0000 C   0  0  0  0  0  0  0  0  0  0  0  0
   -4.1137  -10.1320    0.0000 C   0  0  0  0  0  0  0  0  0  0  0  0
   -2.8147   -9.3820    0.0000 C   0  0  0  0  0  0  0  0  0  0  0  0
   -1.5156  -10.1320    0.0000 C   0  0  0  0  0  0  0  0  0  0  0  0
   -0.2166   -9.3820    0.0000 C   0  0  0  0  0  0  0  0  0  0  0  0
    1.0824  -10.1320    0.0000 C   0  0  0  0  0  0  0  0  0  0  0  0
    2.3815   -9.3820    0.0000 C   0  0  0  0  0  0  0  0  0  0  0  0
    6.6051   -7.5775    0.0000 C   0  0  0  0  0  0  0  0  0  0  0  0
    3.6805  -10.1320    0.0000 C   0  0  0  0  0  0  0  0  0  0  0  0
    5.1453   -7.8892    0.0000 C   0  0  0  0  0  0  0  0  0  0  0  0
    7.3551   -8.8766    0.0000 C   0  0  0  0  0  0  0  0  0  0  0  0
    6.3553   -9.9849    0.0000 C   0  0  0  0  0  0  0  0  0  0  0  0
    4.9795   -9.3820    0.0000 N   0  0  0  0  0  0  0  0  0  0  0  0
    6.6708  -11.4514    0.0000 O   0  0  0  0  0  0  0  0  0  0  0  0
  3  1  1  0
  4  3  1  0
  5  4  1  0
  6  5  1  0
  7  6  1  0
  8  7  1  0
  9  8  1  0
 10  9  1  0
 11 10  1  0
 12 11  1  0
 13 12  1  0
 14 13  1  0
 15 14  1  0
 16 15  1  0
 17 16  1  0
 18 17  1  0
 20 18  1  0
 21 19  1  0
 22  2  1  0
 22 19  1  0
 23 22  1  0
 24 20  1  0
 24 21  1  0
 24 23  1  0
 25 23  2  0
M  END
>  <NAME>  (4415) 
3-METHYL-N-OCTADECYL-2-PYRROLIDONE

>  <SYNONYMS>  (4415) 


>  <SPECTRUM TYPE>  (4415) 
MS1

>  <INSTRUMENT TYPE>  (4415) 
EI-B

>  <INSTRUMENT>  (4415) 
HITACHI RMU-6E

>  <ION MODE>  (4415) 
P

>  <INCHIKEY>  (4415) 
MBWBDJQUYZJOBQ-UHFFFAOYSA-N

>  <FORMULA>  (4415) 
C23H45NO

>  <EXACT MASS>  (4415) 
351.35011506

>  <MW>  (4415) 
351

>  <ID>  (4415) 
JP004184

>  <CONTRIBUTOR>  (4415) 
University of Tokyo Team, {Faculty of Engineering, University of Tokyo

>  <COMMENT>  (4415) 
SMILES=CCCCCCCCCCCCCCCCCCN(C1)C(=O)C(C)C1
InChI=InChI=1S/C23H45NO/c1-3-4-5-6-7-8-9-10-11-12-13-14-15-16-17-18-20-24-21-19-22(2)23(24)25/h22H,3-21H2,1-2H3
computed SMILES=O=C1N(CCCCCCCCCCCCCCCCCC)CCC1C
accession=JP004184
date=2016.01.19 (Created 2008.10.21, modified 2011.05.06)
author=MASS SPECTROSCOPY SOC. OF JAPAN (MSSJ)
license=CC BY-NC-SA
exact mass=351.35012
ionization energy=70 eV
ion type=[M]+*
computed spectral entropy=3.7779940494752067
computed normalized entropy=0.7408025490359844
SPLASH=splash10-0ikc-8913000000-e7654c95c501d0c74493
submitter=submitter = University of Tokyo Team (Faculty of Engineering, University of Tokyo)
MoNA Rating=3.75

>  <NUM PEAKS>  (4415) 
164

>  <MASS SPECTRAL PEAKS>  (4415) 
25 0.2
26 1.6
27 7
28 1.16
29 17
30 19
31 1
32 0.02
38 0.4
39 3.4
40 1.3
41 2.6
42 7.8
43 33
44 2.3
53 0.16
54 1.8
55 25
56 20
57 2
58 1.6
59 1
60 0.3
65 0.02
66 0.1
67 3.4
68 1.6
69 0.7
70 5
71 5.8
72 2
73 0.1
81 1.2
82 3
83 11.8
84 1.96
85 8.4
86 3
87 1
93 0.03
94 1
95 1
96 1.2
97 0.28
98 15
99 2.6
100 10
101 0.16
110 1.3
111 2
112 99.99
113 9.14
114 7.8
115 1
121 0.4
122 0.02
123 0.2
124 1.2
125 1
126 1.5
127 8.2
128 1.2
129 0.5
131 0.06
135 0.2
136 0.2
137 0.2
138 0.12
139 0.8
140 21
141 7.3
142 0.12
143 0.6
144 0.4
145 0.2
152 0.06
153 0.3
154 12
155 3.6
156 0.14
157 0.4
158 0.4
159 0.2
166 0.04
167 0.2
168 10
169 4.4
170 0.12
171 0.2
180 0.6
181 0.3
182 0.73
183 3
184 1.2
185 0.6
186 0.04
194 0.6
196 8.2
197 3.2
198 0.14
199 0.4
208 0.6
209 0.2
210 0.64
211 2.4
212 1.4
213 0.2
222 0.04
223 0.1
224 5.6
225 2.4
226 0.08
227 0.6
236 0.4
237 0.2
238 0.38
239 1.8
240 1
241 0.3
250 0.04
251 0.1
252 4.2
253 1.8
254 0.08
255 0.1
264 0.2
265 0.1
266 0.48
267 2.4
268 1.2
269 1
270 0.03
278 0.2
279 0.1
280 4.8
281 0.16
282 0.8
294 4.2
295 1.8
296 0.15
297 0.7
307 0.1
308 4
309 0.16
310 0.4
311 0.4
312 0.1
320 0.04
321 0.6
322 4
323 2.4
324 0.1
325 0.2
334 2.2
335 0.6
336 2.2
337 6
338 1
349 0.6
350 0.46
351 50
352 14
353 2.4
354 0.6

>  <PREDICTED SPECTRUM>  (4415) 
18 17
26 13
27 137
28 110
29 251
30 128
39 162
40 60
41 473
42 319
43 525
44 225
45 184
51 40
53 95
54 123
55 440
56 366
57 417
58 156
59 45
60 32
67 145
68 159
69 344
70 311
71 266
72 151
73 53
79 51
80 6
81 118
82 145
83 245
84 478
85 244
86 142
87 102
88 5
95 64
96 76
97 109
98 280
99 448
100 352
101 220
109 39
110 63
111 239
112 999
113 562
114 227
115 60
123 15
125 33
126 240
127 280
128 128
129 4
140 343
141 149
154 67
155 197
156 23
168 72
182 97
183 40
196 40
210 39
224 81
238 131
239 64
250 14
252 56
253 83
265 27
266 170
267 78
280 62
281 92
294 88
295 31
296 56
308 103
309 127
322 146
323 66
334 56
335 52
336 100
337 14
349 4
350 195
351 501
352 272
353 127

$$$$

     RDKit          2D

 23 23  0  0  0  0  0  0  0  0999 V2000
   15.9293   -8.5603    0.0000 C   0  0  0  0  0  0  0  0  0  0  0  0
   -3.9089   -6.0610    0.0000 C   0  0  0  0  0  0  0  0  0  0  0  0
   14.6302   -9.3103    0.0000 C   0  0  0  0  0  0  0  0  0  0  0  0
   13.3312   -8.5603    0.0000 C   0  0  0  0  0  0  0  0  0  0  0  0
   12.0322   -9.3103    0.0000 C   0  0  0  0  0  0  0  0  0  0  0  0
   10.7331   -8.5603    0.0000 C   0  0  0  0  0  0  0  0  0  0  0  0
    9.4341   -9.3103    0.0000 C   0  0  0  0  0  0  0  0  0  0  0  0
    8.1351   -8.5603    0.0000 C   0  0  0  0  0  0  0  0  0  0  0  0
    6.8360   -9.3103    0.0000 C   0  0  0  0  0  0  0  0  0  0  0  0
    5.5370   -8.5603    0.0000 C   0  0  0  0  0  0  0  0  0  0  0  0
    4.2379   -9.3103    0.0000 C   0  0  0  0  0  0  0  0  0  0  0  0
    2.9389   -8.5603    0.0000 C   0  0  0  0  0  0  0  0  0  0  0  0
    1.6399   -9.3103    0.0000 C   0  0  0  0  0  0  0  0  0  0  0  0
    0.3408   -8.5603    0.0000 C   0  0  0  0  0  0  0  0  0  0  0  0
   -0.9582   -9.3103    0.0000 C   0  0  0  0  0  0  0  0  0  0  0  0
   -2.2573   -8.5603    0.0000 C   0  0  0  0  0  0  0  0  0  0  0  0
   -6.4808   -6.7558    0.0000 C   0  0  0  0  0  0  0  0  0  0  0  0
   -7.2308   -8.0548    0.0000 C   0  0  0  0  0  0  0  0  0  0  0  0
   -3.5563   -9.3103    0.0000 C   0  0  0  0  0  0  0  0  0  0  0  0
   -5.0211   -7.0674    0.0000 C   0  0  0  0  0  0  0  0  0  0  0  0
   -6.2311   -9.1632    0.0000 C   0  0  0  0  0  0  0  0  0  0  0  0
   -4.8553   -8.5603    0.0000 N   0  0  0  0  0  0  0  0  0  0  0  0
   -6.5466  -10.6297    0.0000 O   0  0  0  0  0  0  0  0  0  0  0  0
  3  1  1  0
  4  3  1  0
  5  4  1  0
  6  5  1  0
  7  6  1  0
  8  7  1  0
  9  8  1  0
 10  9  1  0
 11 10  1  0
 12 11  1  0
 13 12  1  0
 14 13  1  0
 15 14  1  0
 16 15  1  0
 18 17  1  0
 19 16  1  0
 20  2  1  0
 20 17  1  0
 21 18  1  0
 22 19  1  0
 22 20  1  0
 22 21  1  0
 23 21  2  0
M  END
>  <NAME>  (4416) 
N-HEXADECYL-5-METHYL-2-RYRROLIDONE

>  <SYNONYMS>  (4416) 


>  <SPECTRUM TYPE>  (4416) 
MS1

>  <INSTRUMENT TYPE>  (4416) 
EI-B

>  <INSTRUMENT>  (4416) 
HITACHI RMU-6E

>  <ION MODE>  (4416) 
P

>  <INCHIKEY>  (4416) 
KQSWUMKCKNXRSK-UHFFFAOYSA-N

>  <FORMULA>  (4416) 
C21H41NO

>  <EXACT MASS>  (4416) 
323.318814932

>  <MW>  (4416) 
323

>  <ID>  (4416) 
JP004183

>  <CONTRIBUTOR>  (4416) 
University of Tokyo Team, {Faculty of Engineering, University of Tokyo

>  <COMMENT>  (4416) 
SMILES=CCCCCCCCCCCCCCCCN(C(C)1)C(=O)CC1
InChI=InChI=1S/C21H41NO/c1-3-4-5-6-7-8-9-10-11-12-13-14-15-16-19-22-20(2)17-18-21(22)23/h20H,3-19H2,1-2H3
computed SMILES=O=C1N(CCCCCCCCCCCCCCCC)C(C)CC1
accession=JP004183
date=2016.01.19 (Created 2008.10.21, modified 2011.05.06)
author=MASS SPECTROSCOPY SOC. OF JAPAN (MSSJ)
license=CC BY-NC-SA
exact mass=323.31881
ionization energy=70 eV
ion type=[M]+*
computed spectral entropy=1.8447108938267383
computed normalized entropy=0.4050858066078246
SPLASH=splash10-03di-2900000000-d9cdd36d47eacf026903
submitter=submitter = University of Tokyo Team (Faculty of Engineering, University of Tokyo)
MoNA Rating=3.75

>  <NUM PEAKS>  (4416) 
95

>  <MASS SPECTRAL PEAKS>  (4416) 
26 0.2
27 0.5
28 44
29 0.18
30 1.3
31 0.1
32 1
39 0.02
40 0.1
41 2.1
42 0.6
43 0.26
44 0.7
45 0.1
53 0.1
54 0.02
55 2.7
56 0.8
57 1.5
58 0.02
59 0.1
66 0.1
67 0.3
68 0.01
69 0.7
70 0.5
71 0.3
72 0.01
81 0.1
82 0.5
83 0.9
84 0.16
85 0.3
86 0.2
95 0.1
96 0.02
97 0.3
98 1.8
99 0.4
100 0.08
101 0.1
110 0.1
111 0.2
112 99.99
113 82
114 0.8
115 0.1
126 0.19
127 0.7
128 0.1
138 0.2
139 0.01
140 2.3
141 0.6
142 0.1
154 0.1
155 0.3
156 0.1
166 0.1
167 0.01
168 0.7
169 0.3
170 0.1
182 0.04
183 0.1
196 0.5
197 0.2
208 0.01
210 0.5
211 0.2
212 0.1
224 0.05
225 0.2
238 0.5
239 0.2
252 0.04
253 0.2
254 0.1
266 0.3
267 0.01
268 0.1
280 0.4
281 0.2
294 0.03
295 0.4
296 0.1
306 0.2
307 0.01
308 1.8
309 0.4
310 0.1
322 0.02
323 2.8
324 0.7
325 0.1

>  <PREDICTED SPECTRUM>  (4416) 
18 18
25 2
26 76
27 303
28 253
29 497
30 515
39 273
40 100
41 764
42 455
43 845
44 311
45 182
51 64
52 10
53 220
54 300
55 999
56 580
57 813
58 336
59 134
65 3
67 404
68 371
69 628
70 557
71 586
72 463
73 165
75 22
79 92
80 56
81 265
82 297
83 617
84 800
85 481
86 384
87 107
95 1
96 138
97 346
98 647
99 492
100 477
101 123
107 4
110 69
111 25
112 930
113 503
114 340
115 55
123 1
124 143
125 67
126 782
127 546
128 290
129 59
138 59
139 117
140 808
141 376
152 50
153 7
154 657
155 329
156 78
168 571
169 285
170 24
182 547
183 217
196 368
197 256
210 387
211 276
212 104
224 158
225 160
226 121
238 434
239 157
240 73
252 266
253 123
254 152
266 224
267 40
268 237
269 50
280 181
281 151
282 7
283 40
294 366
295 162
296 48
306 44
307 3
308 443
309 441
310 135
322 219
323 906
324 518
325 193

$$$$

     RDKit          2D

 18 18  0  0  0  0  0  0  0  0999 V2000
   10.7331   -6.3103    0.0000 C   0  0  0  0  0  0  0  0  0  0  0  0
   -2.6098   -3.0610    0.0000 C   0  0  0  0  0  0  0  0  0  0  0  0
    9.4341   -5.5603    0.0000 C   0  0  0  0  0  0  0  0  0  0  0  0
    8.1351   -6.3103    0.0000 C   0  0  0  0  0  0  0  0  0  0  0  0
    6.8360   -5.5603    0.0000 C   0  0  0  0  0  0  0  0  0  0  0  0
    5.5370   -6.3103    0.0000 C   0  0  0  0  0  0  0  0  0  0  0  0
    4.2379   -5.5603    0.0000 C   0  0  0  0  0  0  0  0  0  0  0  0
    2.9389   -6.3103    0.0000 C   0  0  0  0  0  0  0  0  0  0  0  0
    1.6399   -5.5603    0.0000 C   0  0  0  0  0  0  0  0  0  0  0  0
    0.3408   -6.3103    0.0000 C   0  0  0  0  0  0  0  0  0  0  0  0
   -0.9582   -5.5603    0.0000 C   0  0  0  0  0  0  0  0  0  0  0  0
   -5.1818   -3.7558    0.0000 C   0  0  0  0  0  0  0  0  0  0  0  0
   -5.9318   -5.0548    0.0000 C   0  0  0  0  0  0  0  0  0  0  0  0
   -2.2573   -6.3103    0.0000 C   0  0  0  0  0  0  0  0  0  0  0  0
   -3.7221   -4.0674    0.0000 C   0  0  0  0  0  0  0  0  0  0  0  0
   -4.9321   -6.1632    0.0000 C   0  0  0  0  0  0  0  0  0  0  0  0
   -3.5563   -5.5603    0.0000 N   0  0  0  0  0  0  0  0  0  0  0  0
   -5.2476   -7.6297    0.0000 O   0  0  0  0  0  0  0  0  0  0  0  0
  3  1  1  0
  4  3  1  0
  5  4  1  0
  6  5  1  0
  7  6  1  0
  8  7  1  0
  9  8  1  0
 10  9  1  0
 11 10  1  0
 13 12  1  0
 14 11  1  0
 15  2  1  0
 15 12  1  0
 16 13  1  0
 17 14  1  0
 17 15  1  0
 17 16  1  0
 18 16  2  0
M  END
>  <NAME>  (4417) 
5-METHYL-N-UNDECYL-2-PYRROLIDONE

>  <SYNONYMS>  (4417) 


>  <SPECTRUM TYPE>  (4417) 
MS1

>  <INSTRUMENT TYPE>  (4417) 
EI-B

>  <INSTRUMENT>  (4417) 
HITACHI RMU-6E

>  <ION MODE>  (4417) 
P

>  <INCHIKEY>  (4417) 
CZANSEAJYFFNSZ-UHFFFAOYSA-N

>  <FORMULA>  (4417) 
C16H31NO

>  <EXACT MASS>  (4417) 
253.240564612

>  <MW>  (4417) 
253

>  <ID>  (4417) 
JP004182

>  <CONTRIBUTOR>  (4417) 
University of Tokyo Team, {Faculty of Engineering, University of Tokyo

>  <COMMENT>  (4417) 
SMILES=CCCCCCCCCCCN(C(C)1)C(=O)CC1
InChI=InChI=1S/C16H31NO/c1-3-4-5-6-7-8-9-10-11-14-17-15(2)12-13-16(17)18/h15H,3-14H2,1-2H3
computed SMILES=O=C1N(CCCCCCCCCCC)C(C)CC1
accession=JP004182
date=2016.01.19 (Created 2008.10.21, modified 2011.05.06)
author=MASS SPECTROSCOPY SOC. OF JAPAN (MSSJ)
license=CC BY-NC-SA
exact mass=253.24056
ionization energy=70 eV
ion type=[M]+*
computed spectral entropy=3.021850213749904
computed normalized entropy=0.6493072536914981
SPLASH=splash10-03di-4920000000-3c4c0506a6ae7ca9b190
submitter=submitter = University of Tokyo Team (Faculty of Engineering, University of Tokyo)
MoNA Rating=3.75

>  <NUM PEAKS>  (4417) 
105

>  <MASS SPECTRAL PEAKS>  (4417) 
26 0.3
27 3.3
28 4.1
29 1
30 3.4
31 0.2
32 0.3
39 0.33
40 0.5
41 19
42 5.1
43 1.4
44 3.5
51 0.3
53 1.3
54 0.15
55 21
56 7.8
57 7.4
58 0.14
59 0.2
60 0.2
65 0.2
66 0.03
67 3.4
68 1.9
69 5.5
70 0.28
71 2.3
72 0.7
79 0.3
80 0.02
81 0.6
82 2.8
83 11
84 1.76
85 2.4
86 0.6
93 0.2
94 0.11
95 0.3
96 0.6
97 1.2
98 1.5
99 1.4
100 5
101 0.4
110 0.09
111 0.9
112 99.99
113 66
114 0.52
115 0.3
119 0.8
124 0.6
126 1.38
127 3.3
128 0.5
129 0.1
131 0.11
138 1.1
139 0.2
140 18.4
141 0.41
142 0.3
152 0.5
153 0.1
154 0.7
155 1.6
156 0.2
166 0.7
167 0.02
168 4
169 1.7
170 0.3
180 0.02
181 0.5
182 3.7
183 1.2
184 0.02
193 0.1
194 0.3
195 0.1
196 0.37
197 1.2
198 0.5
199 0.1
209 0.02
210 1
211 0.1
212 0.1
224 0.27
225 0.8
226 0.2
236 1.8
237 0.02
238 19.8
239 3.1
240 0.3
251 0.02
252 2.1
253 28
254 6
255 0.09
256 0.1

>  <PREDICTED SPECTRUM>  (4417) 
18 1
26 31
27 182
28 141
29 212
30 238
39 169
40 80
41 371
42 260
43 328
44 105
51 49
52 24
53 108
54 141
55 516
56 293
57 247
58 70
67 170
68 150
69 334
70 269
71 154
72 147
77 31
79 46
80 85
81 159
82 187
83 370
84 317
85 164
86 156
95 77
96 99
97 130
98 302
99 123
100 383
101 16
106 13
110 47
111 131
112 999
113 666
114 140
126 292
127 202
128 67
140 548
141 194
154 196
155 37
168 270
169 140
182 285
183 77
184 74
196 132
197 0
198 30
210 133
211 99
213 21
224 88
225 29
236 22
238 482
239 182
251 28
252 126
253 628
254 250
255 93

$$$$

     RDKit          2D

 17 17  0  0  0  0  0  0  0  0999 V2000
    6.7515   -5.4048    0.0000 C   0  0  0  0  0  0  0  0  0  0  0  0
  -10.1062   -5.7529    0.0000 C   0  0  0  0  0  0  0  0  0  0  0  0
    5.4524   -4.6548    0.0000 C   0  0  0  0  0  0  0  0  0  0  0  0
    4.1534   -5.4048    0.0000 C   0  0  0  0  0  0  0  0  0  0  0  0
    2.8543   -4.6548    0.0000 C   0  0  0  0  0  0  0  0  0  0  0  0
    1.5553   -5.4048    0.0000 C   0  0  0  0  0  0  0  0  0  0  0  0
    0.2563   -4.6548    0.0000 C   0  0  0  0  0  0  0  0  0  0  0  0
   -1.0428   -5.4048    0.0000 C   0  0  0  0  0  0  0  0  0  0  0  0
   -2.3418   -4.6548    0.0000 C   0  0  0  0  0  0  0  0  0  0  0  0
   -3.6408   -5.4048    0.0000 C   0  0  0  0  0  0  0  0  0  0  0  0
   -7.8644   -7.2093    0.0000 C   0  0  0  0  0  0  0  0  0  0  0  0
   -4.9399   -4.6548    0.0000 C   0  0  0  0  0  0  0  0  0  0  0  0
   -6.4047   -6.8977    0.0000 C   0  0  0  0  0  0  0  0  0  0  0  0
   -8.6144   -5.9103    0.0000 C   0  0  0  0  0  0  0  0  0  0  0  0
   -7.6147   -4.8019    0.0000 C   0  0  0  0  0  0  0  0  0  0  0  0
   -6.2389   -5.4048    0.0000 N   0  0  0  0  0  0  0  0  0  0  0  0
   -7.9302   -3.3355    0.0000 O   0  0  0  0  0  0  0  0  0  0  0  0
  3  1  1  0
  4  3  1  0
  5  4  1  0
  6  5  1  0
  7  6  1  0
  8  7  1  0
  9  8  1  0
 10  9  1  0
 12 10  1  0
 13 11  1  0
 14  2  1  0
 14 11  1  0
 15 14  1  0
 16 12  1  0
 16 13  1  0
 16 15  1  0
 17 15  2  0
M  END
>  <NAME>  (4418) 
N-DECYL-3-METHYL-2-PYRROLIDONE

>  <SYNONYMS>  (4418) 


>  <SPECTRUM TYPE>  (4418) 
MS1

>  <INSTRUMENT TYPE>  (4418) 
EI-B

>  <INSTRUMENT>  (4418) 
HITACHI RMU-6E

>  <ION MODE>  (4418) 
P

>  <INCHIKEY>  (4418) 
HNGCEYRBEHSEMW-UHFFFAOYSA-N

>  <FORMULA>  (4418) 
C15H29NO

>  <EXACT MASS>  (4418) 
239.22491454800002

>  <MW>  (4418) 
239

>  <ID>  (4418) 
JP004181

>  <CONTRIBUTOR>  (4418) 
University of Tokyo Team, {Faculty of Engineering, University of Tokyo

>  <COMMENT>  (4418) 
SMILES=CCCCCCCCCCN(C1)C(=O)C(C)C1
InChI=InChI=1S/C15H29NO/c1-3-4-5-6-7-8-9-10-12-16-13-11-14(2)15(16)17/h14H,3-13H2,1-2H3
computed SMILES=O=C1N(CCCCCCCCCC)CCC1C
accession=JP004181
date=2016.01.19 (Created 2008.10.21, modified 2011.05.06)
author=MASS SPECTROSCOPY SOC. OF JAPAN (MSSJ)
license=CC BY-NC-SA
exact mass=239.22491
ionization energy=70 eV
ion type=[M]+*
computed spectral entropy=3.0914094294793655
computed normalized entropy=0.6656221443485489
SPLASH=splash10-03di-4910000000-e9e6a2ee1e7e4c742798
submitter=submitter = University of Tokyo Team (Faculty of Engineering, University of Tokyo)
MoNA Rating=3.75

>  <NUM PEAKS>  (4418) 
104

>  <MASS SPECTRAL PEAKS>  (4418) 
26 0.3
27 6
28 5
29 1.3
30 5.2
31 0.2
32 0.2
33 0.01
38 0.2
39 4.4
40 0.8
41 2.34
42 20
43 15
44 3
45 0.01
50 0.1
51 0.3
52 0.2
53 0.22
54 2.3
55 21.6
56 11.2
57 0.5
58 0.8
65 0.3
66 0.1
67 0.18
68 2
69 4.2
70 3.7
71 0.11
72 0.5
73 0.3
79 0.3
80 0.03
81 0.7
82 3
83 2.3
84 5.7
85 4.4
86 0.5
91 0.3
93 0.02
94 0.3
95 0.4
96 0.9
97 0.06
98 5.4
99 1.8
100 9.2
101 0.06
108 0.1
109 0.1
110 0.8
111 0.09
112 99.99
113 86.8
114 6.6
115 0.06
124 0.2
125 0.4
126 21
127 0.84
128 0.8
129 0.1
138 0.8
139 0.03
140 23
141 9
142 0.8
152 0.02
153 0.2
154 10.2
155 4.6
156 0.05
166 0.2
167 0.1
168 7
169 0.2
170 0.7
171 0.1
182 5
183 0.18
184 0.4
196 6.6
197 3.8
198 0.04
199 0.2
208 0.1
209 0.2
210 0.52
211 0.8
212 0.2
222 0.5
223 0.01
224 1.9
225 0.4
237 0.1
238 0.19
239 41
240 9
241 1.3
242 0.2

>  <PREDICTED SPECTRUM>  (4418) 
27 115
28 110
29 150
30 89
39 127
40 62
41 404
42 419
43 344
44 169
53 66
54 104
55 317
56 316
57 213
58 103
65 16
67 79
68 114
69 118
70 198
71 52
72 21
77 24
81 60
82 120
83 184
84 479
85 362
86 188
95 12
96 73
97 61
98 377
99 176
100 208
110 99
111 0
112 999
113 572
114 168
124 23
126 380
127 170
128 5
138 47
140 342
141 192
154 212
155 103
156 54
168 247
169 82
182 218
183 154
184 79
196 283
197 135
210 183
211 99
222 20
224 155
225 10
237 1
238 175
239 683
240 302
241 107

$$$$

     RDKit          2D

 12 12  0  0  0  0  0  0  0  0999 V2000
    7.8718    4.1971    0.0000 C   0  0  0  0  0  0  0  0  0  0  0  0
    6.3801    4.3545    0.0000 C   0  0  0  0  0  0  0  0  0  0  0  0
    5.4979    3.1414    0.0000 C   0  0  0  0  0  0  0  0  0  0  0  0
    4.0061    3.2988    0.0000 C   0  0  0  0  0  0  0  0  0  0  0  0
    3.1239    2.0857    0.0000 C   0  0  0  0  0  0  0  0  0  0  0  0
    1.6322    2.2431    0.0000 C   0  0  0  0  0  0  0  0  0  0  0  0
   -0.7500    1.0300    0.0000 C   0  0  0  0  0  0  0  0  0  0  0  0
    1.2100   -0.3900    0.0000 C   0  0  0  0  0  0  0  0  0  0  0  0
    0.7500    1.0300    0.0000 C   0  0  0  0  0  0  0  0  0  0  0  0
   -1.2100   -0.3900    0.0000 C   0  0  0  0  0  0  0  0  0  0  0  0
   -2.6377   -0.8500    0.0000 O   0  0  0  0  0  0  0  0  0  0  0  0
   -0.0000   -1.2800    0.0000 O   0  0  0  0  0  0  0  0  0  0  0  0
  2  1  1  0
  3  2  1  0
  4  3  1  0
  5  4  1  0
  6  5  1  0
  9  6  1  0
  9  7  1  0
  9  8  1  0
 10  7  1  0
 11 10  2  0
 12  8  1  0
 12 10  1  0
M  END
>  <NAME>  (4419) 
3-HEXYL-GAMMA-BUTYROLACTONE

>  <SYNONYMS>  (4419) 


>  <SPECTRUM TYPE>  (4419) 
MS1

>  <INSTRUMENT TYPE>  (4419) 
EI-B

>  <INSTRUMENT>  (4419) 
HITACHI RMU-6E

>  <ION MODE>  (4419) 
P

>  <INCHIKEY>  (4419) 
BAKYERABTYQIGZ-UHFFFAOYSA-N

>  <FORMULA>  (4419) 
C10H18O2

>  <EXACT MASS>  (4419) 
170.130679816

>  <MW>  (4419) 
170

>  <ID>  (4419) 
JP004180

>  <CONTRIBUTOR>  (4419) 
University of Tokyo Team, {Faculty of Engineering, University of Tokyo

>  <COMMENT>  (4419) 
SMILES=CCCCCCC(C1)CC(=O)O1
InChI=InChI=1S/C10H18O2/c1-2-3-4-5-6-9-7-10(11)12-8-9/h9H,2-8H2,1H3
computed SMILES=O=C1OCC(C1)CCCCCC
accession=JP004180
date=2016.01.19 (Created 2008.10.21, modified 2011.05.06)
author=MASS SPECTROSCOPY SOC. OF JAPAN (MSSJ)
license=CC BY-NC-SA
exact mass=170.13068
ionization energy=70 eV
ion type=[M]+*
computed spectral entropy=3.02498289512408
computed normalized entropy=0.6224484904827116
SPLASH=splash10-000j-9000000000-57ed3e639968d4a8eb35
submitter=submitter = University of Tokyo Team (Faculty of Engineering, University of Tokyo)
MoNA Rating=3.75

>  <NUM PEAKS>  (4419) 
129

>  <MASS SPECTRAL PEAKS>  (4419) 
26 0.9
27 13
28 3.6
29 1.4
30 0.6
31 1.4
32 0.4
33 0.03
38 0.5
39 13
40 2.8
41 2.9
42 11
43 33.8
44 2
45 0.34
46 0.1
50 0.3
51 1.2
52 0.07
53 5.6
54 3
55 35.4
56 0.8
57 4
58 7.4
59 2.5
60 0.02
61 0.1
62 0.1
63 0.2
64 0.01
65 1
66 0.5
67 5.5
68 0.21
69 8
70 5.4
71 6.4
72 0.26
73 8.4
74 0.5
75 0.2
77 0.13
78 0.3
79 1.4
80 0.4
81 0.52
82 2.1
83 5
84 1.8
85 1.22
86 99.99
87 7
88 1
89 0.03
91 0.6
92 0.1
93 0.7
94 0.02
95 2.5
96 0.4
97 1.4
98 0.13
99 74
100 10
101 3.5
102 0.03
103 0.2
104 0.1
105 0.3
106 0.01
107 0.6
108 0.1
109 1.3
110 0.06
111 0.7
112 0.7
113 1.6
114 0.03
115 0.4
116 0.1
117 0.4
118 0.01
119 0.2
120 0.1
121 0.5
122 0.02
123 0.4
124 0.2
125 0.6
126 0.09
127 2.3
128 0.8
129 1
130 0.04
131 0.1
135 0.2
136 0.1
137 0.04
138 0.2
139 1.3
140 0.3
141 0.06
142 0.2
143 0.2
144 0.1
145 0.01
150 0.1
151 0.4
152 0.1
153 0.02
154 0.1
155 0.4
156 0.2
157 0.02
158 0.2
159 0.1
165 0.1
166 0.03
167 0.2
168 0.4
169 1.1
170 0.14
171 1.8
172 0.3
173 0.1
174 0.02
175 0.1

>  <PREDICTED SPECTRUM>  (4419) 
27 183
28 37
29 256
31 49
32 1
39 242
40 85
41 835
42 478
43 776
44 118
45 156
51 55
52 12
53 261
54 306
55 999
56 778
57 501
58 160
59 266
60 213
61 69
65 61
66 45
67 406
68 421
69 991
70 662
71 348
72 32
73 157
80 7
81 295
82 399
83 650
84 207
85 187
86 96
87 105
95 143
96 144
97 321
98 176
99 182
100 21
110 87
111 118
112 115
113 103
123 8
124 85
125 74
127 14
141 130
142 29
152 47
155 0
169 60
170 814
171 261
172 113

$$$$

     RDKit          2D

 16 17  0  0  0  0  0  0  0  0999 V2000
   -4.5506   -7.0342    0.0000 C   0  0  0  0  0  0  0  0  0  0  0  0
   -5.3006   -5.7352    0.0000 C   0  0  0  0  0  0  0  0  0  0  0  0
    3.5734   -4.4928    0.0000 C   0  0  0  0  0  0  0  0  0  0  0  0
    2.2782   -2.2401    0.0000 C   0  0  0  0  0  0  0  0  0  0  0  0
    2.2719   -5.2400    0.0000 C   0  0  0  0  0  0  0  0  0  0  0  0
    0.9766   -2.9873    0.0000 C   0  0  0  0  0  0  0  0  0  0  0  0
   -3.0822   -6.7176    0.0000 C   0  0  0  0  0  0  0  0  0  0  0  0
    3.5766   -2.9928    0.0000 C   0  0  0  0  0  0  0  0  0  0  0  0
    0.9735   -4.4873    0.0000 C   0  0  0  0  0  0  0  0  0  0  0  0
   -4.2972   -4.6131    0.0000 C   0  0  0  0  0  0  0  0  0  0  0  0
   -1.6246   -4.4822    0.0000 C   0  0  0  0  0  0  0  0  0  0  0  0
    4.8771   -2.2453    0.0000 Cl  0  0  0  0  0  0  0  0  0  0  0  0
   -0.3271   -5.2348    0.0000 N   0  0  0  0  0  0  0  0  0  0  0  0
   -2.9251   -5.2297    0.0000 N   0  0  0  0  0  0  0  0  0  0  0  0
   -4.6091   -3.1459    0.0000 O   0  0  0  0  0  0  0  0  0  0  0  0
   -1.6217   -2.9822    0.0000 O   0  0  0  0  0  0  0  0  0  0  0  0
  2  1  1  0
  5  3  2  0
  6  4  1  0
  7  1  1  0
  8  3  1  0
  8  4  2  0
  9  5  1  0
  9  6  2  0
 10  2  1  0
 12  8  1  0
 13  9  1  0
 13 11  1  0
 14  7  1  0
 14 10  1  0
 14 11  1  0
 15 10  2  0
 16 11  2  0
M  END
>  <NAME>  (4420) 
N-(PARA-CHLOROPHENYLCARBAMOYL)-2-PYRROLIDONE

>  <SYNONYMS>  (4420) 


>  <SPECTRUM TYPE>  (4420) 
MS1

>  <INSTRUMENT TYPE>  (4420) 
EI-B

>  <INSTRUMENT>  (4420) 
HITACHI RMU-6E

>  <ION MODE>  (4420) 
P

>  <INCHIKEY>  (4420) 
LIQARWOYAGGJFV-UHFFFAOYSA-N

>  <FORMULA>  (4420) 
C11H11ClN2O2

>  <EXACT MASS>  (4420) 
238.050905272

>  <MW>  (4420) 
238

>  <ID>  (4420) 
JP004179

>  <CONTRIBUTOR>  (4420) 
University of Tokyo Team, {Faculty of Engineering, University of Tokyo

>  <COMMENT>  (4420) 
SMILES=Clc(c2)ccc(c2)NC(=O)N(C1)C(=O)CC1
InChI=InChI=1S/C11H11ClN2O2/c12-8-3-5-9(6-4-8)13-11(16)14-7-1-2-10(14)15/h3-6H,1-2,7H2,(H,13,16)
computed SMILES=O=C(NC1=CC=C(Cl)C=C1)N2C(=O)CCC2
accession=JP004179
date=2016.01.19 (Created 2008.10.21, modified 2011.05.06)
author=MASS SPECTROSCOPY SOC. OF JAPAN (MSSJ)
license=CC BY-NC-SA
exact mass=238.05091
ionization energy=70 eV
ion type=[M]+*
computed spectral entropy=3.468761024378415
computed normalized entropy=0.7060868522334025
SPLASH=splash10-0udi-9700000000-ca6ca49a0dcc1fcf1ab5
submitter=submitter = University of Tokyo Team (Faculty of Engineering, University of Tokyo)
MoNA Rating=3.75

>  <NUM PEAKS>  (4420) 
136

>  <MASS SPECTRAL PEAKS>  (4420) 
25 0.4
26 3.3
27 9.8
28 2.5
29 6
30 12.2
31 0.6
32 0.02
35 0.2
36 0.8
37 3.6
38 0.46
39 12.4
40 4.1
41 30
42 1.28
43 1.5
44 1.9
45 0.5
46 0.01
47 0.5
48 0.2
49 1.4
50 0.45
51 2.6
52 2.5
53 0.6
54 0.16
55 3.8
56 26.4
57 5.4
58 0.07
59 0.2
60 0.5
61 2.3
62 0.54
63 14.6
64 6.8
65 2.6
66 0.06
67 0.3
68 0.5
69 12.2
70 0.26
71 0.3
72 0.9
73 5.2
74 0.23
75 7
76 1.6
77 0.7
78 0.07
79 0.1
80 0.1
81 0.1
82 0.03
83 0.3
84 7.4
85 11
86 0.36
87 0.8
88 1.3
89 3.2
90 1.8
91 3.4
92 1.4
93 0.2
97 0.05
98 1.7
99 8.8
100 1.5
101 0.25
102 0.5
103 0.2
104 0.2
105 0.04
106 0.3
107 0.2
108 0.1
109 0.01
110 0.1
111 2.9
112 5
113 0.11
114 0.1
117 0.1
118 0.3
119 0.05
120 0.2
124 0.9
125 21.2
126 0.68
127 23
128 3.3
129 5.4
130 0.05
131 0.1
132 0.2
133 0.3
134 0.02
135 0.1
138 0.2
139 0.1
140 0.06
141 0.1
142 0.2
147 0.5
148 0.01
152 0.3
153 99.99
154 11
155 3.44
156 3.2
157 0.2
167 0.1
168 0.02
169 0.5
170 0.1
171 0.2
180 0.01
181 0.2
182 0.1
195 0.3
196 0.03
197 0.1
198 0.1
202 0.8
203 0.7
204 0.8
205 0.1
237 0.3
238 3.34
239 6
240 7.4
241 1.6
242 0.2

>  <PREDICTED SPECTRUM>  (4420) 
14 3
15 9
16 14
25 1
26 27
27 152
28 104
29 212
30 136
33 39
34 17
35 79
36 122
37 148
38 260
39 448
40 273
41 493
42 573
43 311
44 427
45 153
49 97
50 265
51 201
52 245
53 115
54 180
55 319
56 365
57 290
58 115
59 66
60 81
61 182
62 227
63 436
64 284
65 244
66 71
67 112
68 134
69 314
70 202
71 62
73 164
74 123
75 356
76 205
77 124
78 106
80 63
82 107
83 126
84 452
85 595
86 137
87 83
88 48
89 95
90 501
91 256
92 243
94 9
98 39
99 539
100 318
101 95
104 137
105 216
111 323
112 298
113 266
114 2
117 62
119 32
125 360
126 658
127 999
128 225
129 493
138 152
139 91
140 214
141 94
153 863
154 259
155 516
156 114
166 90
167 23
168 150
169 64
170 2
182 144
195 125
196 91
238 752
239 246
240 436
241 151

$$$$

     RDKit          2D

 15 15  0  0  0  0  0  0  0  0999 V2000
  -11.6923    0.7517    0.0000 C   0  0  0  0  0  0  0  0  0  0  0  0
  -10.3931    1.5015    0.0000 C   0  0  0  0  0  0  0  0  0  0  0  0
   -9.0942    0.7512    0.0000 C   0  0  0  0  0  0  0  0  0  0  0  0
   -7.7951    1.5010    0.0000 C   0  0  0  0  0  0  0  0  0  0  0  0
   -6.4962    0.7508    0.0000 C   0  0  0  0  0  0  0  0  0  0  0  0
   -5.1970    1.5006    0.0000 C   0  0  0  0  0  0  0  0  0  0  0  0
   -3.8981    0.7504    0.0000 C   0  0  0  0  0  0  0  0  0  0  0  0
   -2.5989    1.5002    0.0000 C   0  0  0  0  0  0  0  0  0  0  0  0
   -1.3000   -0.7500    0.0000 C   0  0  0  0  0  0  0  0  0  0  0  0
    0.0000    1.5000    0.0000 C   0  0  0  0  0  0  0  0  0  0  0  0
    0.0000   -1.5000    0.0000 C   0  0  0  0  0  0  0  0  0  0  0  0
    1.3000    0.7500    0.0000 C   0  0  0  0  0  0  0  0  0  0  0  0
   -1.3000    0.7500    0.0000 C   0  0  0  0  0  0  0  0  0  0  0  0
    1.3000   -0.7500    0.0000 C   0  0  0  0  0  0  0  0  0  0  0  0
    2.5989   -1.5002    0.0000 N   0  0  0  0  0  0  0  0  0  0  0  0
  2  1  1  0
  3  2  1  0
  4  3  1  0
  5  4  1  0
  6  5  1  0
  7  6  1  0
  8  7  1  0
 11  9  2  0
 12 10  1  0
 13  8  1  0
 13  9  1  0
 13 10  2  0
 14 11  1  0
 14 12  2  0
 15 14  1  0
M  END
>  <NAME>  (4421) 
4-OCTYLANILINE

>  <SYNONYMS>  (4421) 


>  <SPECTRUM TYPE>  (4421) 
MS1

>  <INSTRUMENT TYPE>  (4421) 
EI-B

>  <INSTRUMENT>  (4421) 
HITACHI RMU-6E

>  <ION MODE>  (4421) 
P

>  <INCHIKEY>  (4421) 
ORKQJTBYQZITLA-UHFFFAOYSA-N

>  <FORMULA>  (4421) 
C14H23N

>  <EXACT MASS>  (4421) 
205.183049736

>  <MW>  (4421) 
205

>  <ID>  (4421) 
JP004178

>  <CONTRIBUTOR>  (4421) 
University of Tokyo Team, {Faculty of Engineering, University of Tokyo

>  <COMMENT>  (4421) 
SMILES=CCCCCCCCc(c1)ccc(N)c1
InChI=InChI=1S/C14H23N/c1-2-3-4-5-6-7-8-13-9-11-14(15)12-10-13/h9-12H,2-8,15H2,1H3
computed SMILES=NC1=CC=C(C=C1)CCCCCCCC
accession=JP004178
date=2016.01.19 (Created 2008.10.21, modified 2011.05.06)
author=MASS SPECTROSCOPY SOC. OF JAPAN (MSSJ)
license=CC BY-NC-SA
exact mass=205.18305
ionization energy=70 eV
ion type=[M]+*
computed spectral entropy=1.7839175217199759
computed normalized entropy=0.422778590860642
SPLASH=splash10-0a4i-1920000000-47fafcdbfd99057f1a45
submitter=submitter = University of Tokyo Team (Faculty of Engineering, University of Tokyo)
MoNA Rating=3.75

>  <NUM PEAKS>  (4421) 
68

>  <MASS SPECTRAL PEAKS>  (4421) 
25 0.1
26 0.1
27 1.5
28 0.09
29 1.9
30 0.4
38 0.1
39 0.14
40 0.2
41 2.7
42 0.5
43 0.15
44 0.1
50 0.1
51 0.6
52 0.06
53 0.7
54 0.5
55 0.9
56 0.01
57 0.5
63 0.3
64 0.2
65 0.12
66 0.6
67 0.4
69 0.3
75 0.02
76 0.1
77 3.8
78 1.9
79 0.21
80 0.6
81 0.1
89 0.4
90 0.02
91 1
92 1.2
93 1.3
94 0.06
95 0.1
101 0.1
102 0.1
103 0.05
104 0.8
105 0.7
106 99.99
107 1.14
108 0.7
109 0.1
115 0.3
116 0.02
117 0.6
118 1.1
119 2.2
120 0.2
121 1.3
122 0.2
130 0.4
131 0.02
132 0.9
133 0.3
134 0.3
135 0.01
204 0.3
205 21
206 3.2
207 0.3

>  <PREDICTED SPECTRUM>  (4421) 
26 5
27 63
28 33
29 96
38 14
39 76
40 37
41 117
43 41
50 24
51 98
52 76
53 105
54 80
55 45
56 0
57 20
63 8
65 75
66 23
67 31
77 225
78 148
79 186
80 64
89 8
90 14
91 49
92 89
93 86
94 16
102 20
104 42
105 17
106 999
107 267
108 6
115 18
117 44
118 48
119 31
120 54
132 50
134 32
205 317
206 133

$$$$

     RDKit          2D

  8  8  0  0  0  0  0  0  0  0999 V2000
   -1.1300    1.5500    0.0000 C   0  0  0  0  0  0  0  0  0  0  0  0
    0.3700    1.5500    0.0000 C   0  0  0  0  0  0  0  0  0  0  0  0
   -1.5900    0.1200    0.0000 C   0  0  0  0  0  0  0  0  0  0  0  0
   -0.3829   -2.2600    0.0000 C   0  0  0  0  0  0  0  0  0  0  0  0
    0.8400    0.1200    0.0000 C   0  0  0  0  0  0  0  0  0  0  0  0
   -1.6834   -3.0075    0.0000 Cl  0  0  0  0  0  0  0  0  0  0  0  0
   -0.3800   -0.7600    0.0000 N   0  0  0  0  0  0  0  0  0  0  0  0
    2.2666   -0.3436    0.0000 O   0  0  0  0  0  0  0  0  0  0  0  0
  2  1  1  0
  3  1  1  0
  5  2  1  0
  6  4  1  0
  7  3  1  0
  7  4  1  0
  7  5  1  0
  8  5  2  0
M  END
>  <NAME>  (4422) 
N-CHLOROMETHYL-2-PYRROLIDONE

>  <SYNONYMS>  (4422) 


>  <SPECTRUM TYPE>  (4422) 
MS1

>  <INSTRUMENT TYPE>  (4422) 
EI-B

>  <INSTRUMENT>  (4422) 
HITACHI RMU-6E

>  <ION MODE>  (4422) 
P

>  <INCHIKEY>  (4422) 
KEBMRNXDMRFGNV-UHFFFAOYSA-N

>  <FORMULA>  (4422) 
C5H8ClNO

>  <EXACT MASS>  (4422) 
133.029441556

>  <MW>  (4422) 
133

>  <ID>  (4422) 
JP004177

>  <CONTRIBUTOR>  (4422) 
University of Tokyo Team, {Faculty of Engineering, University of Tokyo

>  <COMMENT>  (4422) 
SMILES=O=C(C1)N(CC1)CCl
InChI=InChI=1S/C5H8ClNO/c6-4-7-3-1-2-5(7)8/h1-4H2
computed SMILES=O=C1N(CCl)CCC1
accession=JP004177
date=2016.01.19 (Created 2008.10.21, modified 2011.05.06)
author=MASS SPECTROSCOPY SOC. OF JAPAN (MSSJ)
license=CC BY-NC-SA
exact mass=133.02944
ionization energy=70 eV
ion type=[M]+*
computed spectral entropy=2.822134613243924
computed normalized entropy=0.6556905047044677
SPLASH=splash10-0002-9000000000-d5d64f4429172808d3e8
submitter=submitter = University of Tokyo Team (Faculty of Engineering, University of Tokyo)
MoNA Rating=3.75

>  <NUM PEAKS>  (4422) 
74

>  <MASS SPECTRAL PEAKS>  (4422) 
25 0.2
26 2.3
27 7.4
28 2
29 7
30 9.6
31 3.1
32 0.03
34 0.1
35 0.6
36 2.5
37 0.08
38 1.8
39 9.6
40 4.3
41 3.2
42 26.4
43 10
44 1.9
45 0.01
46 0.1
47 0.1
48 0.2
49 0.25
50 0.2
51 1.1
52 0.6
53 0.15
54 1.9
55 4.2
56 3.9
57 0.08
58 0.2
59 0.1
60 0.2
61 0.01
64 0.2
65 0.1
66 0.2
67 0.04
68 5.6
69 22
70 31.2
71 0.33
72 0.2
75 0.3
76 0.5
77 0.04
78 2.1
79 0.1
80 0.8
82 0.01
83 0.4
84 4.5
85 9
86 0.47
87 0.5
96 0.8
97 16.6
98 99.99
99 15
100 1.1
101 0.1
111 0.05
112 0.6
113 0.3
114 0.7
115 0.04
116 0.1
132 0.4
133 7.4
134 0.07
135 2.3
136 0.3

>  <PREDICTED SPECTRUM>  (4422) 
14 44
15 72
25 15
26 112
27 248
28 298
29 169
30 150
35 24
36 78
37 47
38 107
39 319
40 191
41 451
42 570
43 226
44 99
49 89
50 45
51 101
52 52
53 132
54 41
55 373
56 340
57 71
62 65
63 217
64 7
67 30
68 211
69 387
70 489
71 215
76 60
77 17
82 60
83 22
84 514
96 20
97 176
98 999
99 269
104 3
133 353
134 40
135 209
136 14

$$$$

     RDKit          2D

 15 16  0  0  0  0  0  0  0  0999 V2000
    5.8480   -2.8059    0.0000 C   0  0  0  0  0  0  0  0  0  0  0  0
    4.5475   -3.5533    0.0000 C   0  0  0  0  0  0  0  0  0  0  0  0
   -3.5798   -7.5947    0.0000 C   0  0  0  0  0  0  0  0  0  0  0  0
   -4.3298   -6.2957    0.0000 C   0  0  0  0  0  0  0  0  0  0  0  0
   -0.6506   -3.5428    0.0000 C   0  0  0  0  0  0  0  0  0  0  0  0
    0.6447   -5.7955    0.0000 C   0  0  0  0  0  0  0  0  0  0  0  0
    0.6510   -2.7955    0.0000 C   0  0  0  0  0  0  0  0  0  0  0  0
    1.9463   -5.0483    0.0000 C   0  0  0  0  0  0  0  0  0  0  0  0
   -2.1113   -7.2781    0.0000 C   0  0  0  0  0  0  0  0  0  0  0  0
   -0.6537   -5.0428    0.0000 C   0  0  0  0  0  0  0  0  0  0  0  0
    1.9494   -3.5483    0.0000 C   0  0  0  0  0  0  0  0  0  0  0  0
   -3.3263   -5.1737    0.0000 C   0  0  0  0  0  0  0  0  0  0  0  0
   -1.9542   -5.7902    0.0000 N   0  0  0  0  0  0  0  0  0  0  0  0
   -3.6382   -3.7064    0.0000 O   0  0  0  0  0  0  0  0  0  0  0  0
    3.2499   -2.8008    0.0000 O   0  0  0  0  0  0  0  0  0  0  0  0
  2  1  1  0
  4  3  1  0
  7  5  2  0
  8  6  1  0
  9  3  1  0
 10  5  1  0
 10  6  2  0
 11  7  1  0
 11  8  2  0
 12  4  1  0
 13  9  1  0
 13 10  1  0
 13 12  1  0
 14 12  2  0
 15  2  1  0
 15 11  1  0
M  END
>  <NAME>  (4423) 
N-(4-ETHOXYPHENYL)-2-PYRROLIDONE

>  <SYNONYMS>  (4423) 


>  <SPECTRUM TYPE>  (4423) 
MS1

>  <INSTRUMENT TYPE>  (4423) 
EI-B

>  <INSTRUMENT>  (4423) 
HITACHI RMU-6E

>  <ION MODE>  (4423) 
P

>  <INCHIKEY>  (4423) 
TWVVNUHXQJVIEC-UHFFFAOYSA-N

>  <FORMULA>  (4423) 
C12H15NO2

>  <EXACT MASS>  (4423) 
205.11027872

>  <MW>  (4423) 
205

>  <ID>  (4423) 
JP004176

>  <CONTRIBUTOR>  (4423) 
University of Tokyo Team, {Faculty of Engineering, University of Tokyo

>  <COMMENT>  (4423) 
SMILES=CCOc(c2)ccc(c2)N(C1)C(=O)CC1
InChI=InChI=1S/C12H15NO2/c1-2-15-11-7-5-10(6-8-11)13-9-3-4-12(13)14/h5-8H,2-4,9H2,1H3
computed SMILES=O=C1N(C2=CC=C(OCC)C=C2)CCC1
accession=JP004176
date=2016.01.19 (Created 2008.10.21, modified 2011.05.06)
author=MASS SPECTROSCOPY SOC. OF JAPAN (MSSJ)
license=CC BY-NC-SA
exact mass=205.11028
ionization energy=70 eV
ion type=[M]+*
computed spectral entropy=3.1944080159829022
computed normalized entropy=0.6573109721510911
SPLASH=splash10-0adi-5940000000-2753b40cda2a48b522e8
submitter=submitter = University of Tokyo Team (Faculty of Engineering, University of Tokyo)
MoNA Rating=3.75

>  <NUM PEAKS>  (4423) 
129

>  <MASS SPECTRAL PEAKS>  (4423) 
26 1.5
27 7.8
28 7
29 0.68
30 1.1
31 0.3
32 0.4
37 0.03
38 1.9
39 12
40 1.8
41 2
42 4.5
43 1.4
44 0.2
45 0.01
50 2.3
51 4.1
52 5
53 0.3
54 1.3
55 5.4
56 0.7
57 0.05
59 0.2
60 0.4
61 0.2
62 0.11
63 5.6
64 6
65 13
66 0.42
67 2
68 0.9
69 34.4
70 0.15
71 0.4
72 0.1
73 0.2
74 0.06
75 1
76 2
77 5.4
78 0.33
79 2.2
80 2.1
81 1.4
82 0.03
83 0.3
84 0.7
85 0.2
86 0.04
87 0.3
88 0.2
89 0.6
90 0.21
91 3.7
92 5.2
93 6.8
94 0.35
95 0.8
97 0.2
98 0.3
99 0.04
102 0.6
103 0.9
104 2.1
105 0.46
106 2.1
107 2.8
108 4.2
109 0.09
110 0.3
115 0.5
116 0.5
117 0.12
118 1.6
119 2.3
120 12
121 0.7
122 77
123 7.4
124 0.4
125 0.02
126 0.1
130 0.7
131 0.6
132 0.13
133 1.9
134 1.7
135 3.4
136 0.05
137 0.4
141 1.3
142 0.3
145 0.02
146 1.4
147 0.6
148 6.6
149 0.35
150 39
151 3.8
152 0.7
155 0.07
156 0.2
159 0.2
160 0.8
161 0.04
162 0.4
163 0.7
165 0.2
166 0.04
167 0.2
168 0.2
169 0.4
170 0.02
174 0.4
175 0.4
176 67.6
177 2.5
178 2.8
179 0.2
180 0.1
203 0.02
204 1.4
205 99.99
206 14
207 0.11
208 0.2

>  <PREDICTED SPECTRUM>  (4423) 
14 3
26 39
27 99
28 94
29 118
33 6
37 34
38 119
39 363
40 197
41 381
42 199
43 100
44 97
50 149
51 238
52 238
53 187
54 69
55 324
56 80
57 4
61 3
62 110
63 213
64 175
65 334
66 160
67 132
68 135
69 190
70 71
74 54
75 90
76 149
77 190
78 133
79 280
80 207
81 98
82 5
84 53
89 2
90 106
91 243
92 226
93 270
94 181
95 175
104 105
105 119
106 178
107 244
108 261
109 124
117 94
118 78
119 165
120 280
121 295
122 761
123 340
130 21
132 48
133 14
134 27
135 180
137 84
146 17
147 60
148 300
149 208
150 746
151 159
152 7
160 46
162 39
163 63
165 14
175 2
176 633
177 308
178 100
190 14
204 194
205 999
206 359
207 119

$$$$

     RDKit          2D

 18 18  0  0  0  0  0  0  0  0999 V2000
   15.9573    3.4116    0.0000 C   0  0  0  0  0  0  0  0  0  0  0  0
   14.6586    4.1622    0.0000 C   0  0  0  0  0  0  0  0  0  0  0  0
   13.3593    3.4128    0.0000 C   0  0  0  0  0  0  0  0  0  0  0  0
   12.0605    4.1633    0.0000 C   0  0  0  0  0  0  0  0  0  0  0  0
   10.7612    3.4139    0.0000 C   0  0  0  0  0  0  0  0  0  0  0  0
    9.4625    4.1645    0.0000 C   0  0  0  0  0  0  0  0  0  0  0  0
    8.1631    3.4150    0.0000 C   0  0  0  0  0  0  0  0  0  0  0  0
    6.8644    4.1656    0.0000 C   0  0  0  0  0  0  0  0  0  0  0  0
    5.5650    3.4162    0.0000 C   0  0  0  0  0  0  0  0  0  0  0  0
    4.2663    4.1668    0.0000 C   0  0  0  0  0  0  0  0  0  0  0  0
    2.9669    3.4173    0.0000 C   0  0  0  0  0  0  0  0  0  0  0  0
    1.6682    4.1679    0.0000 C   0  0  0  0  0  0  0  0  0  0  0  0
   -1.0014    4.0286    0.0000 C   0  0  0  0  0  0  0  0  0  0  0  0
    0.2115    1.9342    0.0000 C   0  0  0  0  0  0  0  0  0  0  0  0
    0.3689    3.4185    0.0000 C   0  0  0  0  0  0  0  0  0  0  0  0
   -1.9992    2.9185    0.0000 C   0  0  0  0  0  0  0  0  0  0  0  0
   -3.4906    3.0790    0.0000 O   0  0  0  0  0  0  0  0  0  0  0  0
   -1.2558    1.6133    0.0000 O   0  0  0  0  0  0  0  0  0  0  0  0
  2  1  1  0
  3  2  1  0
  4  3  1  0
  5  4  1  0
  6  5  1  0
  7  6  1  0
  8  7  1  0
  9  8  1  0
 10  9  1  0
 11 10  1  0
 12 11  1  0
 15 12  1  0
 15 13  1  0
 15 14  1  0
 16 13  1  0
 17 16  2  0
 18 14  1  0
 18 16  1  0
M  END
>  <NAME>  (4424) 
3-DODECYL-GAMMA-BUTYROLACTONE

>  <SYNONYMS>  (4424) 


>  <SPECTRUM TYPE>  (4424) 
MS1

>  <INSTRUMENT TYPE>  (4424) 
EI-B

>  <INSTRUMENT>  (4424) 
HITACHI RMU-6E

>  <ION MODE>  (4424) 
P

>  <INCHIKEY>  (4424) 
KTTRQOLCFVDCNA-UHFFFAOYSA-N

>  <FORMULA>  (4424) 
C16H30O2

>  <EXACT MASS>  (4424) 
254.2245802

>  <MW>  (4424) 
254

>  <ID>  (4424) 
JP004175

>  <CONTRIBUTOR>  (4424) 
University of Tokyo Team, {Faculty of Engineering, University of Tokyo

>  <COMMENT>  (4424) 
SMILES=CCCCCCCCCCCCC(C1)CC(=O)O1
InChI=InChI=1S/C16H30O2/c1-2-3-4-5-6-7-8-9-10-11-12-15-13-16(17)18-14-15/h15H,2-14H2,1H3
computed SMILES=O=C1OCC(C1)CCCCCCCCCCCC
accession=JP004175
date=2016.01.19 (Created 2008.10.21, modified 2011.05.06)
author=MASS SPECTROSCOPY SOC. OF JAPAN (MSSJ)
license=CC BY-NC-SA
exact mass=254.22458
ionization energy=70 eV
ion type=[M]+*
computed spectral entropy=3.3714770797953992
computed normalized entropy=0.6610912516063293
SPLASH=splash10-052n-9000000000-d867cef11dc922258d3c
submitter=submitter = University of Tokyo Team (Faculty of Engineering, University of Tokyo)
MoNA Rating=3.75

>  <NUM PEAKS>  (4424) 
164

>  <MASS SPECTRAL PEAKS>  (4424) 
26 1.2
27 14
28 11.6
29 2.6
30 0.9
31 3.5
32 1.3
38 0.04
39 10.2
40 2.2
41 48
42 1.5
43 40.4
44 3.1
45 4.1
46 0.02
47 0.1
48 0.1
49 0.1
50 0.03
51 0.6
52 0.4
53 5.4
54 0.72
55 43.6
56 13.8
57 27
58 0.56
59 1.4
60 2.2
61 0.6
64 0.01
65 0.8
66 0.8
67 9
68 0.6
69 17
70 8
71 11.8
72 0.22
73 4.4
74 1.2
75 0.9
76 0.01
77 0.7
78 0.3
79 1.7
80 0.1
81 7.8
82 5.6
83 12.8
84 0.4
85 10.4
86 96
87 8
88 0.1
89 1.7
90 0.1
91 0.7
92 0.02
93 0.8
94 0.6
95 4.5
96 0.32
97 7.6
98 2.9
99 99.99
100 0.86
101 8.8
102 0.5
103 0.6
104 0.02
105 0.4
106 0.1
107 0.4
108 0.03
109 2.2
110 1.6
111 3.5
112 0.14
113 2.7
114 0.8
115 0.8
116 0.03
117 0.2
118 0.1
119 0.3
120 0.01
121 0.5
122 0.2
123 1
124 0.08
125 1.6
126 1.1
127 1.5
128 0.12
129 1.1
130 0.2
135 0.3
136 0.02
137 0.7
138 0.8
139 0.7
140 0.05
141 2.5
142 0.9
143 1
144 0.02
145 0.1
151 0.7
152 0.4
153 0.03
154 0.6
155 1.2
156 0.6
157 0.12
158 0.2
164 0.2
165 0.4
166 0.07
167 0.8
168 0.5
169 1.1
170 0.03
171 0.8
172 0.4
179 0.4
180 0.01
181 0.1
182 0.5
183 0.5
184 0.02
185 0.2
186 0.3
187 0.1
191 0.01
192 0.3
193 0.3
194 0.2
195 0.03
196 0.3
197 0.6
198 0.3
199 0.01
207 0.2
208 0.2
209 0.1
210 0.05
211 0.3
212 0.1
224 0.1
225 0.02
226 0.1
227 0.1
235 0.1
236 0.02
239 0.2
240 0.1
252 0.2
253 0.04
254 20.8
255 3.3
256 0.4
257 0.1

>  <PREDICTED SPECTRUM>  (4424) 
27 171
28 34
29 310
31 53
32 26
39 224
40 65
41 898
42 294
43 886
44 158
45 102
51 18
53 255
54 305
55 999
56 465
57 706
58 110
59 137
60 142
61 6
65 18
66 62
67 477
68 371
69 861
70 454
71 462
72 54
73 21
74 10
77 46
79 99
80 78
81 504
82 488
83 751
84 279
85 450
86 171
87 188
88 75
93 7
94 17
95 372
96 400
97 643
98 214
99 239
100 104
101 84
109 241
110 125
111 247
112 77
113 40
123 69
124 123
125 107
126 11
127 33
137 159
139 16
166 17
167 7
179 77
194 114
195 45
197 33
209 23
226 38
236 134
253 70
254 983
255 434
256 207
257 25

$$$$

     RDKit          2D

 17 16  0  0  0  0  0  0  0  0999 V2000
    5.1962    8.2500    0.0000 C   0  0  0  0  0  0  0  0  0  0  0  0
  -14.2894    9.0000    0.0000 C   0  0  0  0  0  0  0  0  0  0  0  0
    3.8971    9.0000    0.0000 C   0  0  0  0  0  0  0  0  0  0  0  0
  -12.9904    8.2500    0.0000 C   0  0  0  0  0  0  0  0  0  0  0  0
    2.5981    8.2500    0.0000 C   0  0  0  0  0  0  0  0  0  0  0  0
    1.2990    9.0000    0.0000 C   0  0  0  0  0  0  0  0  0  0  0  0
    0.0000    8.2500    0.0000 C   0  0  0  0  0  0  0  0  0  0  0  0
   -1.2990    9.0000    0.0000 C   0  0  0  0  0  0  0  0  0  0  0  0
   -2.5981    8.2500    0.0000 C   0  0  0  0  0  0  0  0  0  0  0  0
   -3.8971    9.0000    0.0000 C   0  0  0  0  0  0  0  0  0  0  0  0
   -5.1962    8.2500    0.0000 C   0  0  0  0  0  0  0  0  0  0  0  0
   -6.4952    9.0000    0.0000 C   0  0  0  0  0  0  0  0  0  0  0  0
   -7.7942    8.2500    0.0000 C   0  0  0  0  0  0  0  0  0  0  0  0
  -11.6913    9.0000    0.0000 C   0  0  0  0  0  0  0  0  0  0  0  0
   -9.0933    9.0000    0.0000 C   0  0  0  0  0  0  0  0  0  0  0  0
  -10.3923    8.2500    0.0000 N   0  0  0  0  0  0  0  0  0  0  0  0
   -9.0933   10.5000    0.0000 O   0  0  0  0  0  0  0  0  0  0  0  0
  3  1  1  0
  4  2  1  0
  5  3  1  0
  6  5  1  0
  7  6  1  0
  8  7  1  0
  9  8  1  0
 10  9  1  0
 11 10  1  0
 12 11  1  0
 13 12  1  0
 14  4  1  0
 15 13  1  0
 16 14  1  0
 16 15  2  3
 17 15  1  0
M  END
>  <NAME>  (4425) 
N-PROPYLDODECANAMIDE

>  <SYNONYMS>  (4425) 


>  <SPECTRUM TYPE>  (4425) 
MS1

>  <INSTRUMENT TYPE>  (4425) 
EI-B

>  <INSTRUMENT>  (4425) 
HITACHI RMU-6E

>  <ION MODE>  (4425) 
P

>  <INCHIKEY>  (4425) 
AUYWNLPGKFYZFF-UHFFFAOYSA-N

>  <FORMULA>  (4425) 
C15H31NO

>  <EXACT MASS>  (4425) 
241.240564612

>  <MW>  (4425) 
241

>  <ID>  (4425) 
JP004174

>  <CONTRIBUTOR>  (4425) 
University of Tokyo Team, {Faculty of Engineering, University of Tokyo

>  <COMMENT>  (4425) 
SMILES=CCCCCCCCCCCC(=O)NCCC
InChI=InChI=1S/C15H31NO/c1-3-5-6-7-8-9-10-11-12-13-15(17)16-14-4-2/h3-14H2,1-2H3,(H,16,17)
computed SMILES=OC(=NCCC)CCCCCCCCCCC
accession=JP004174
date=2016.01.19 (Created 2008.10.21, modified 2011.05.06)
author=MASS SPECTROSCOPY SOC. OF JAPAN (MSSJ)
license=CC BY-NC-SA
exact mass=241.24056
ionization energy=70 eV
ion type=[M]+*
computed spectral entropy=3.2013369056440757
computed normalized entropy=0.6441563722156721
SPLASH=splash10-0udi-7900000000-b9624a4975e14beb2f80
submitter=submitter = University of Tokyo Team (Faculty of Engineering, University of Tokyo)
MoNA Rating=3.75

>  <NUM PEAKS>  (4425) 
144

>  <MASS SPECTRAL PEAKS>  (4425) 
26 0.3
27 5
28 3.4
29 0.8
30 14.8
31 0.5
32 0.3
35 0.02
36 0.2
37 0.1
38 0.1
39 0.22
40 0.6
41 18
42 3.9
43 3
44 7.4
45 0.5
46 0.2
47 0.08
48 0.4
49 0.4
50 0.2
51 0.02
52 0.1
53 1.1
54 1
55 1.14
56 3.3
57 11.8
58 5
59 0.22
60 6.8
61 0.3
65 0.2
66 0.02
67 1.4
68 0.7
69 3.4
70 0.12
71 4.1
72 5.4
73 12.4
74 0.07
75 0.1
76 0.1
77 0.3
78 0.01
79 0.4
80 0.2
81 1.3
82 0.06
83 3.5
84 2.4
85 2.8
86 1.8
87 3.1
88 0.4
89 0.1
91 0.02
92 0.1
93 0.3
94 0.1
95 0.16
96 0.4
97 1.4
98 2
99 0.05
100 1.8
101 99.99
102 7.2
103 0.05
104 0.1
105 0.1
106 0.1
107 0.02
108 0.1
109 1
110 0.2
111 0.06
112 0.5
113 0.4
114 23
115 0.44
116 0.3
117 0.1
118 0.1
119 0.01
120 0.1
121 0.2
122 0.1
123 0.03
124 0.1
125 0.2
126 0.2
127 0.02
128 4.8
129 1.1
130 0.1
131 0.01
140 0.2
141 0.2
142 2.6
143 0.08
144 0.1
152 0.1
153 0.2
154 0.03
155 0.9
156 3.9
157 0.7
158 0.01
165 0.2
167 0.2
168 0.1
169 0.03
170 2.9
171 0.4
181 0.1
182 0.01
183 7
184 2.1
185 0.5
186 0.01
196 0.1
197 0.1
198 0.2
199 0.22
200 0.5
201 0.5
202 0.1
210 0.01
211 0.1
212 2.9
213 0.7
214 0.01
225 0.1
226 0.6
227 0.2
239 0.01
240 0.7
241 6.2
242 1.1
243 0.1

>  <PREDICTED SPECTRUM>  (4425) 
26 39
27 259
28 131
29 357
30 191
31 110
32 24
36 19
38 26
39 278
40 130
41 865
42 580
43 999
44 373
45 263
49 9
50 8
51 106
52 90
53 228
54 268
55 773
56 617
57 811
58 340
59 197
60 270
61 83
65 87
66 60
67 276
68 319
69 614
70 448
71 499
72 269
73 293
74 37
77 80
78 7
79 92
80 45
81 286
82 249
83 458
84 525
85 282
86 370
87 181
88 3
94 27
95 165
96 264
97 408
98 272
99 259
100 371
101 410
102 38
109 68
110 148
111 167
112 336
113 168
114 617
115 343
116 40
123 8
124 129
125 114
126 279
127 87
128 381
129 260
130 38
138 25
139 91
140 292
141 167
142 751
143 260
152 44
153 82
154 151
156 234
157 108
166 0
168 107
169 39
170 319
171 82
182 82
184 221
185 79
196 177
197 155
198 242
199 91
212 225
213 98
224 148
226 84
240 102
241 268
242 111

$$$$

     RDKit          2D

 16 15  0  0  0  0  0  0  0  0999 V2000
    4.5466    7.8750    0.0000 C   0  0  0  0  0  0  0  0  0  0  0  0
  -13.6399    7.8750    0.0000 C   0  0  0  0  0  0  0  0  0  0  0  0
    3.2476    8.6250    0.0000 C   0  0  0  0  0  0  0  0  0  0  0  0
  -12.3409    8.6250    0.0000 C   0  0  0  0  0  0  0  0  0  0  0  0
    1.9486    7.8750    0.0000 C   0  0  0  0  0  0  0  0  0  0  0  0
    0.6495    8.6250    0.0000 C   0  0  0  0  0  0  0  0  0  0  0  0
   -0.6495    7.8750    0.0000 C   0  0  0  0  0  0  0  0  0  0  0  0
   -1.9486    8.6250    0.0000 C   0  0  0  0  0  0  0  0  0  0  0  0
   -3.2476    7.8750    0.0000 C   0  0  0  0  0  0  0  0  0  0  0  0
   -4.5466    8.6250    0.0000 C   0  0  0  0  0  0  0  0  0  0  0  0
   -5.8457    7.8750    0.0000 C   0  0  0  0  0  0  0  0  0  0  0  0
   -7.1447    8.6250    0.0000 C   0  0  0  0  0  0  0  0  0  0  0  0
   -8.4437    7.8750    0.0000 C   0  0  0  0  0  0  0  0  0  0  0  0
   -9.7428    8.6250    0.0000 C   0  0  0  0  0  0  0  0  0  0  0  0
  -11.0418    7.8750    0.0000 N   0  0  0  0  0  0  0  0  0  0  0  0
   -9.7428   10.1250    0.0000 O   0  0  0  0  0  0  0  0  0  0  0  0
  3  1  1  0
  4  2  1  0
  5  3  1  0
  6  5  1  0
  7  6  1  0
  8  7  1  0
  9  8  1  0
 10  9  1  0
 11 10  1  0
 12 11  1  0
 13 12  1  0
 14 13  1  0
 15  4  1  0
 15 14  2  3
 16 14  1  0
M  END
>  <NAME>  (4426) 
N-ETHYLDODECANAMIDE

>  <SYNONYMS>  (4426) 


>  <SPECTRUM TYPE>  (4426) 
MS1

>  <INSTRUMENT TYPE>  (4426) 
EI-B

>  <INSTRUMENT>  (4426) 
HITACHI RMU-6E

>  <ION MODE>  (4426) 
P

>  <INCHIKEY>  (4426) 
FEQGPEABBFYLNO-UHFFFAOYSA-N

>  <FORMULA>  (4426) 
C14H29NO

>  <EXACT MASS>  (4426) 
227.22491454800002

>  <MW>  (4426) 
227

>  <ID>  (4426) 
JP004173

>  <CONTRIBUTOR>  (4426) 
University of Tokyo Team, {Faculty of Engineering, University of Tokyo

>  <COMMENT>  (4426) 
SMILES=CCCCCCCCCCCC(=O)NCC
InChI=InChI=1S/C14H29NO/c1-3-5-6-7-8-9-10-11-12-13-14(16)15-4-2/h3-13H2,1-2H3,(H,15,16)
computed SMILES=OC(=NCC)CCCCCCCCCCC
accession=JP004173
date=2016.01.19 (Created 2008.10.21, modified 2011.05.06)
author=MASS SPECTROSCOPY SOC. OF JAPAN (MSSJ)
license=CC BY-NC-SA
exact mass=227.22491
ionization energy=70 eV
ion type=[M]+*
computed spectral entropy=2.980698849879368
computed normalized entropy=0.6143199213006287
SPLASH=splash10-000i-9200000000-1eda298560e07f6d9d44
submitter=submitter = University of Tokyo Team (Faculty of Engineering, University of Tokyo)
MoNA Rating=3.75

>  <NUM PEAKS>  (4426) 
128

>  <MASS SPECTRAL PEAKS>  (4426) 
26 0.4
27 4.6
28 3.7
29 1.22
30 8
31 0.4
32 0.9
38 0.02
39 2.5
40 0.8
41 12.8
42 0.4
43 13
44 12
45 2.8
46 0.62
47 0.2
51 0.1
52 0.1
53 0.08
54 0.9
55 9.8
56 2.1
57 0.66
58 2.8
59 1.3
60 1.3
61 0.03
65 0.3
66 0.2
67 1.1
68 0.07
69 3
70 1.2
71 2.5
72 2.6
73 9.8
74 1.1
75 0.2
76 0.01
77 0.3
78 0.2
79 0.3
80 0.02
81 0.9
82 0.5
83 1.6
84 0.22
85 1.7
86 2.9
87 99.99
88 0.5
89 0.4
91 0.2
92 0.1
93 0.02
94 0.1
95 0.8
96 0.3
97 0.11
98 1.8
99 0.4
100 22
101 0.44
102 0.4
107 0.1
108 0.1
109 0.04
110 0.2
111 0.4
112 0.4
113 0.02
114 4.6
115 1.4
116 0.2
123 0.02
124 0.1
126 0.2
127 0.2
128 0.22
129 1.2
130 0.1
140 0.1
141 0.23
142 3.8
143 0.7
144 0.1
149 0.04
150 0.1
151 0.1
152 0.1
153 0.02
154 0.3
155 1
156 2.7
157 0.05
158 0.1
165 0.2
166 0.1
167 0.02
168 0.1
169 0.4
170 1.2
171 0.04
172 0.1
181 0.1
182 0.2
183 0.19
184 2.1
185 0.5
186 0.1
197 0.01
198 1.4
199 0.3
200 0.4
201 0.01
210 0.1
211 0.1
212 0.5
213 0.03
214 0.1
223 0.1
224 0.1
225 0.02
226 0.7
227 3.4
228 0.7
229 0.1

>  <PREDICTED SPECTRUM>  (4426) 
26 32
27 264
28 108
29 442
30 140
31 102
32 17
36 4
38 48
39 293
40 118
41 877
42 477
43 999
44 314
45 286
46 44
47 33
50 33
51 102
52 50
53 234
54 229
55 772
56 639
57 929
58 420
59 311
60 340
61 94
65 64
66 46
67 223
68 272
69 650
70 380
71 468
72 275
73 208
77 47
79 21
81 151
82 197
83 282
84 448
85 311
86 285
87 318
95 75
96 154
97 281
98 418
99 127
100 306
101 124
110 113
111 163
112 193
113 19
114 74
115 15
125 34
126 140
127 46
128 194
129 75
140 100
142 134
154 47
156 229
168 75
169 55
170 328
171 117
182 150
184 48
198 368
199 139
210 69
226 67
227 462
228 119

$$$$

     RDKit          2D

 15 14  0  0  0  0  0  0  0  0999 V2000
    4.5466    7.1250    0.0000 C   0  0  0  0  0  0  0  0  0  0  0  0
  -12.3409    7.8750    0.0000 C   0  0  0  0  0  0  0  0  0  0  0  0
    3.2476    7.8750    0.0000 C   0  0  0  0  0  0  0  0  0  0  0  0
    1.9486    7.1250    0.0000 C   0  0  0  0  0  0  0  0  0  0  0  0
    0.6495    7.8750    0.0000 C   0  0  0  0  0  0  0  0  0  0  0  0
   -0.6495    7.1250    0.0000 C   0  0  0  0  0  0  0  0  0  0  0  0
   -1.9486    7.8750    0.0000 C   0  0  0  0  0  0  0  0  0  0  0  0
   -3.2476    7.1250    0.0000 C   0  0  0  0  0  0  0  0  0  0  0  0
   -4.5466    7.8750    0.0000 C   0  0  0  0  0  0  0  0  0  0  0  0
   -5.8457    7.1250    0.0000 C   0  0  0  0  0  0  0  0  0  0  0  0
   -7.1447    7.8750    0.0000 C   0  0  0  0  0  0  0  0  0  0  0  0
   -8.4437    7.1250    0.0000 C   0  0  0  0  0  0  0  0  0  0  0  0
   -9.7428    7.8750    0.0000 C   0  0  0  0  0  0  0  0  0  0  0  0
  -11.0418    7.1250    0.0000 N   0  0  0  0  0  0  0  0  0  0  0  0
   -9.7428    9.3750    0.0000 O   0  0  0  0  0  0  0  0  0  0  0  0
  3  1  1  0
  4  3  1  0
  5  4  1  0
  6  5  1  0
  7  6  1  0
  8  7  1  0
  9  8  1  0
 10  9  1  0
 11 10  1  0
 12 11  1  0
 13 12  1  0
 14  2  1  0
 14 13  2  3
 15 13  1  0
M  END
>  <NAME>  (4427) 
N-METHYLDODECANAMIDE

>  <SYNONYMS>  (4427) 


>  <SPECTRUM TYPE>  (4427) 
MS1

>  <INSTRUMENT TYPE>  (4427) 
EI-B

>  <INSTRUMENT>  (4427) 
HITACHI RMU-6E

>  <ION MODE>  (4427) 
P

>  <INCHIKEY>  (4427) 
APWSJINSLHHRPD-UHFFFAOYSA-N

>  <FORMULA>  (4427) 
C13H27NO

>  <EXACT MASS>  (4427) 
213.209264484

>  <MW>  (4427) 
213

>  <ID>  (4427) 
JP004172

>  <CONTRIBUTOR>  (4427) 
University of Tokyo Team, {Faculty of Engineering, University of Tokyo

>  <COMMENT>  (4427) 
SMILES=CCCCCCCCCCCC(=O)NC
InChI=InChI=1S/C13H27NO/c1-3-4-5-6-7-8-9-10-11-12-13(15)14-2/h3-12H2,1-2H3,(H,14,15)
computed SMILES=OC(=NC)CCCCCCCCCCC
accession=JP004172
date=2016.01.19 (Created 2008.10.21, modified 2011.05.06)
author=MASS SPECTROSCOPY SOC. OF JAPAN (MSSJ)
license=CC BY-NC-SA
exact mass=213.20926
ionization energy=70 eV
ion type=[M]+*
computed spectral entropy=2.7023585419044105
computed normalized entropy=0.5749111434590242
SPLASH=splash10-00di-9000000000-6c5bc4b741528ec91dd4
submitter=submitter = University of Tokyo Team (Faculty of Engineering, University of Tokyo)
MoNA Rating=3.75

>  <NUM PEAKS>  (4427) 
110

>  <MASS SPECTRAL PEAKS>  (4427) 
26 0.3
27 3.6
28 2
29 0.68
30 3.2
31 2.7
32 8
33 0.01
38 0.1
39 2.8
40 0.6
41 1.36
42 2.9
43 14.2
44 1.2
45 0.42
46 0.1
53 0.8
54 0.9
55 1
56 2.3
57 8
58 25.4
59 0.1
60 2.2
61 0.5
65 0.2
66 0.01
67 1.1
68 0.6
69 3.3
70 0.14
71 2.8
72 0.5
73 99.99
74 0.58
75 0.3
76 0.1
77 0.2
78 0.01
79 0.3
80 0.2
81 0.9
82 0.04
83 1.7
84 2.6
85 1.6
86 2.3
87 5.2
88 0.3
91 0.1
92 0.01
93 0.2
94 0.1
95 0.8
96 0.03
97 1.3
98 1.7
99 0.5
100 0.6
101 0.7
102 0.2
109 0.4
110 0.02
111 0.5
112 0.5
113 0.2
114 0.21
115 1.1
116 0.2
121 0.1
123 0.02
125 0.2
126 0.1
127 0.1
128 0.36
129 1.5
130 0.2
137 0.1
138 0.02
139 0.1
140 0.2
141 0.8
142 0.27
143 0.5
153 0.1
154 0.1
155 0.03
156 1
157 0.8
158 0.1
167 0.01
168 0.1
169 0.1
170 2
171 0.05
172 0.1
182 0.4
183 1.4
184 0.14
185 0.2
198 0.3
199 0.1
200 0.08
201 0.1
211 0.1
212 0.5
213 0.41
214 0.8
215 0.1

>  <PREDICTED SPECTRUM>  (4427) 
27 143
28 72
29 234
30 93
31 34
32 10
38 5
39 230
40 129
41 905
42 544
43 962
44 331
45 469
46 103
50 26
51 127
52 82
53 301
54 245
55 776
56 627
57 999
58 661
59 416
60 174
65 45
66 19
67 360
68 329
69 552
70 331
71 494
72 497
73 529
74 61
77 10
78 0
79 120
80 28
81 326
82 212
83 345
84 538
85 330
86 549
87 308
94 12
95 318
96 288
97 303
98 410
100 108
109 162
110 220
111 151
112 372
113 59
114 206
122 12
123 66
124 51
125 63
126 189
128 61
138 104
139 10
140 228
141 12
142 114
152 16
154 10
156 176
157 84
166 19
168 494
169 193
170 100
184 119
185 19
195 45
196 515
197 102
198 282
212 112
213 243
214 75

$$$$

     RDKit          2D

  8  8  0  0  0  0  0  0  0  0999 V2000
   -1.1300    1.5500    0.0000 C   0  0  0  0  0  0  0  0  0  0  0  0
    0.3700    1.5500    0.0000 C   0  0  0  0  0  0  0  0  0  0  0  0
   -1.5900    0.1200    0.0000 C   0  0  0  0  0  0  0  0  0  0  0  0
   -0.3829   -2.2600    0.0000 C   0  0  0  0  0  0  0  0  0  0  0  0
    0.8400    0.1200    0.0000 C   0  0  0  0  0  0  0  0  0  0  0  0
   -0.3800   -0.7600    0.0000 N   0  0  0  0  0  0  0  0  0  0  0  0
   -1.6834   -3.0075    0.0000 O   0  0  0  0  0  0  0  0  0  0  0  0
    2.2666   -0.3436    0.0000 O   0  0  0  0  0  0  0  0  0  0  0  0
  2  1  1  0
  3  1  1  0
  5  2  1  0
  6  3  1  0
  6  4  1  0
  6  5  1  0
  7  4  1  0
  8  5  2  0
M  END
>  <NAME>  (4428) 
N-HYDROXYMETHYL-2-PYRROLIDONE

>  <SYNONYMS>  (4428) 


>  <SPECTRUM TYPE>  (4428) 
MS1

>  <INSTRUMENT TYPE>  (4428) 
EI-B

>  <INSTRUMENT>  (4428) 
HITACHI RMU-6E

>  <ION MODE>  (4428) 
P

>  <INCHIKEY>  (4428) 
PJEXUIKBGBSHBS-UHFFFAOYSA-N

>  <FORMULA>  (4428) 
C5H9NO2

>  <EXACT MASS>  (4428) 
115.063328528

>  <MW>  (4428) 
115

>  <ID>  (4428) 
JP004171

>  <CONTRIBUTOR>  (4428) 
University of Tokyo Team, {Faculty of Engineering, University of Tokyo

>  <COMMENT>  (4428) 
SMILES=OCN(C1)C(=O)CC1
InChI=InChI=1S/C5H9NO2/c7-4-6-3-1-2-5(6)8/h7H,1-4H2
computed SMILES=O=C1N(CO)CCC1
accession=JP004171
date=2016.01.19 (Created 2008.10.21, modified 2011.05.06)
author=MASS SPECTROSCOPY SOC. OF JAPAN (MSSJ)
license=CC BY-NC-SA
exact mass=115.06333
ionization energy=70 eV
ion type=[M]+*
computed spectral entropy=2.9851331593081567
computed normalized entropy=0.7125009918751268
SPLASH=splash10-0036-9100000000-8b966d953f24ee51929e
submitter=submitter = University of Tokyo Team (Faculty of Engineering, University of Tokyo)
MoNA Rating=3.75

>  <NUM PEAKS>  (4428) 
66

>  <MASS SPECTRAL PEAKS>  (4428) 
24 0.3
25 1.2
26 12
27 3.4
28 99.99
29 50
30 74.8
31 3
32 0.6
37 1.9
38 4
39 2.12
40 14
41 85.2
42 78.8
43 1.32
44 9.6
45 0.9
46 3.8
49 0.01
50 0.4
51 1
52 2.7
53 0.18
54 5.1
55 9.2
56 25.2
57 1.44
58 5.1
59 5.6
60 8
61 0.02
65 0.2
66 0.7
67 0.7
68 0.51
69 16
70 13.6
71 4.7
72 0.2
73 0.1
78 0.8
79 0.2
80 0.03
81 0.2
82 0.6
83 28.4
84 5.12
85 31.6
86 44
87 1.7
88 0.03
94 0.1
95 0.1
96 0.2
97 0.37
98 28.8
99 3.8
100 0.6
112 0.02
113 0.2
114 10
115 77.2
116 0.68
117 0.5
118 0.1

>  <PREDICTED SPECTRUM>  (4428) 
14 63
15 165
16 55
17 57
18 76
19 2
25 36
26 231
27 485
28 471
29 466
30 575
31 279
32 67
33 66
34 15
35 16
36 42
37 129
38 226
39 614
40 361
41 872
42 999
43 548
44 346
45 175
46 49
49 22
50 53
51 161
52 192
53 251
54 370
55 375
56 580
57 446
58 507
59 243
60 165
61 81
62 46
66 40
67 137
68 366
69 478
70 464
71 221
72 143
73 153
74 69
75 74
81 4
82 123
83 214
84 406
85 653
86 642
87 182
96 54
97 192
98 582
99 226
100 122
114 338
115 967
116 246

$$$$

     RDKit          2D

 15 14  0  0  0  0  0  0  0  0999 V2000
    4.5466    7.8750    0.0000 C   0  0  0  0  0  0  0  0  0  0  0  0
  -13.6399    7.8750    0.0000 C   0  0  0  0  0  0  0  0  0  0  0  0
    3.2476    8.6250    0.0000 C   0  0  0  0  0  0  0  0  0  0  0  0
  -12.3409    8.6250    0.0000 C   0  0  0  0  0  0  0  0  0  0  0  0
    1.9486    7.8750    0.0000 C   0  0  0  0  0  0  0  0  0  0  0  0
    0.6495    8.6250    0.0000 C   0  0  0  0  0  0  0  0  0  0  0  0
   -0.6495    7.8750    0.0000 C   0  0  0  0  0  0  0  0  0  0  0  0
   -1.9486    8.6250    0.0000 C   0  0  0  0  0  0  0  0  0  0  0  0
   -3.2476    7.8750    0.0000 C   0  0  0  0  0  0  0  0  0  0  0  0
   -4.5466    8.6250    0.0000 C   0  0  0  0  0  0  0  0  0  0  0  0
   -5.8457    7.8750    0.0000 C   0  0  0  0  0  0  0  0  0  0  0  0
   -7.1447    8.6250    0.0000 C   0  0  0  0  0  0  0  0  0  0  0  0
   -8.4437    7.8750    0.0000 C   0  0  0  0  0  0  0  0  0  0  0  0
   -9.7428    8.6250    0.0000 C   0  0  0  0  0  0  0  0  0  0  0  0
  -11.0418    7.8750    0.0000 N   0  0  0  0  0  0  0  0  0  0  0  0
  3  1  1  0
  4  2  1  0
  5  3  1  0
  6  5  1  0
  7  6  1  0
  8  7  1  0
  9  8  1  0
 10  9  1  0
 11 10  1  0
 12 11  1  0
 13 12  1  0
 14 13  1  0
 15  4  1  0
 15 14  1  0
M  END
>  <NAME>  (4429) 
N-ETHYLDODECYLAMINE

>  <SYNONYMS>  (4429) 


>  <SPECTRUM TYPE>  (4429) 
MS1

>  <INSTRUMENT TYPE>  (4429) 
EI-B

>  <INSTRUMENT>  (4429) 
HITACHI RMU-6E

>  <ION MODE>  (4429) 
P

>  <INCHIKEY>  (4429) 
LWIPGCTWFZCIKX-UHFFFAOYSA-N

>  <FORMULA>  (4429) 
C14H31N

>  <EXACT MASS>  (4429) 
213.24564999199998

>  <MW>  (4429) 
213

>  <ID>  (4429) 
JP004170

>  <CONTRIBUTOR>  (4429) 
University of Tokyo Team, {Faculty of Engineering, University of Tokyo

>  <COMMENT>  (4429) 
SMILES=CCCCCCCCCCCCNCC
InChI=InChI=1S/C14H31N/c1-3-5-6-7-8-9-10-11-12-13-14-15-4-2/h15H,3-14H2,1-2H3
computed SMILES=N(CC)CCCCCCCCCCCC
accession=JP004170
date=2016.01.19 (Created 2008.10.21, modified 2011.05.06)
author=MASS SPECTROSCOPY SOC. OF JAPAN (MSSJ)
license=CC BY-NC-SA
exact mass=213.24565
ionization energy=70 eV
ion type=[M]+*
computed spectral entropy=1.9936416240467685
computed normalized entropy=0.4646685632140942
SPLASH=splash10-0a4i-9000000000-9f6f85f7e8dd2c35be2d
submitter=submitter = University of Tokyo Team (Faculty of Engineering, University of Tokyo)
MoNA Rating=3.75

>  <NUM PEAKS>  (4429) 
73

>  <MASS SPECTRAL PEAKS>  (4429) 
26 0.1
27 1.6
28 3.6
29 0.5
30 8
31 0.2
32 0.4
39 0.09
40 0.2
41 6.2
42 2.1
43 0.62
44 6
45 1.4
46 1.6
53 0.04
54 0.3
55 3.8
56 2.4
57 0.28
58 99.99
59 4
60 0.1
67 0.04
68 0.2
69 1.5
70 1
71 0.12
72 1.2
73 0.5
81 0.2
82 0.02
83 0.5
84 1
85 0.3
86 0.04
87 0.4
95 0.1
96 0.1
97 0.02
98 0.4
99 0.1
100 0.8
101 0.01
111 0.1
112 0.3
114 1.2
115 0.01
126 0.1
128 0.7
129 0.1
140 0.02
141 0.5
142 0.4
149 0.5
154 0.01
155 0.2
156 0.3
168 0.1
169 0.01
170 0.3
171 0.1
184 1.2
185 0.02
186 0.1
196 0.2
197 0.1
198 0.19
199 0.3
212 1.4
213 5
214 0.1
215 0.1

>  <PREDICTED SPECTRUM>  (4429) 
27 100
28 107
29 152
30 441
39 133
40 18
41 226
42 166
43 267
44 339
45 130
53 63
54 40
55 134
56 172
57 135
58 999
59 277
67 9
69 12
70 189
71 155
72 99
79 12
82 90
83 21
84 167
85 24
86 253
96 77
98 86
111 12
112 88
126 38
156 14
169 42
170 14
184 25
198 180
199 16
212 165
213 236
214 47

$$$$

     RDKit          2D

 14 13  0  0  0  0  0  0  0  0999 V2000
    4.5466    7.1250    0.0000 C   0  0  0  0  0  0  0  0  0  0  0  0
  -12.3409    7.8750    0.0000 C   0  0  0  0  0  0  0  0  0  0  0  0
    3.2476    7.8750    0.0000 C   0  0  0  0  0  0  0  0  0  0  0  0
    1.9486    7.1250    0.0000 C   0  0  0  0  0  0  0  0  0  0  0  0
    0.6495    7.8750    0.0000 C   0  0  0  0  0  0  0  0  0  0  0  0
   -0.6495    7.1250    0.0000 C   0  0  0  0  0  0  0  0  0  0  0  0
   -1.9486    7.8750    0.0000 C   0  0  0  0  0  0  0  0  0  0  0  0
   -3.2476    7.1250    0.0000 C   0  0  0  0  0  0  0  0  0  0  0  0
   -4.5466    7.8750    0.0000 C   0  0  0  0  0  0  0  0  0  0  0  0
   -5.8457    7.1250    0.0000 C   0  0  0  0  0  0  0  0  0  0  0  0
   -7.1447    7.8750    0.0000 C   0  0  0  0  0  0  0  0  0  0  0  0
   -8.4437    7.1250    0.0000 C   0  0  0  0  0  0  0  0  0  0  0  0
   -9.7428    7.8750    0.0000 C   0  0  0  0  0  0  0  0  0  0  0  0
  -11.0418    7.1250    0.0000 N   0  0  0  0  0  0  0  0  0  0  0  0
  3  1  1  0
  4  3  1  0
  5  4  1  0
  6  5  1  0
  7  6  1  0
  8  7  1  0
  9  8  1  0
 10  9  1  0
 11 10  1  0
 12 11  1  0
 13 12  1  0
 14  2  1  0
 14 13  1  0
M  END
>  <NAME>  (4430) 
N-METHYLDODECYLAMINE

>  <SYNONYMS>  (4430) 


>  <SPECTRUM TYPE>  (4430) 
MS1

>  <INSTRUMENT TYPE>  (4430) 
EI-B

>  <INSTRUMENT>  (4430) 
HITACHI RMU-6E

>  <ION MODE>  (4430) 
P

>  <INCHIKEY>  (4430) 
OMEMQVZNTDHENJ-UHFFFAOYSA-N

>  <FORMULA>  (4430) 
C13H29N

>  <EXACT MASS>  (4430) 
199.22999992799998

>  <MW>  (4430) 
199

>  <ID>  (4430) 
JP004169

>  <CONTRIBUTOR>  (4430) 
University of Tokyo Team, {Faculty of Engineering, University of Tokyo

>  <COMMENT>  (4430) 
SMILES=CCCCCCCCCCCCNC
InChI=InChI=1S/C13H29N/c1-3-4-5-6-7-8-9-10-11-12-13-14-2/h14H,3-13H2,1-2H3
computed SMILES=N(C)CCCCCCCCCCCC
accession=JP004169
date=2016.01.19 (Created 2008.10.21, modified 2011.05.06)
author=MASS SPECTROSCOPY SOC. OF JAPAN (MSSJ)
license=CC BY-NC-SA
exact mass=199.23
ionization energy=70 eV
ion type=[M]+*
computed spectral entropy=1.7345193125442295
computed normalized entropy=0.4125198842229443
SPLASH=splash10-0006-9000000000-0ea8e4887c1349d1bf9c
submitter=submitter = University of Tokyo Team (Faculty of Engineering, University of Tokyo)
MoNA Rating=3.75

>  <NUM PEAKS>  (4430) 
67

>  <MASS SPECTRAL PEAKS>  (4430) 
26 0.1
27 0.6
28 6
29 0.34
30 1.8
31 1.1
32 2
39 0.11
40 0.2
41 6
42 2.8
43 0.5
44 99.99
45 3.2
46 0.1
53 0.04
54 0.3
55 3.8
56 1.2
57 0.23
58 2.5
59 1
60 0.1
67 0.03
68 0.2
69 1.3
70 1.3
71 0.03
72 0.2
73 0.7
74 0.1
81 0.01
82 0.1
83 0.4
84 0.3
85 0.01
86 0.9
87 0.2
96 0.1
97 0.02
98 0.2
99 0.1
100 1.4
101 0.01
112 0.1
114 0.8
115 0.1
126 0.01
128 0.4
129 0.1
140 0.1
141 0.01
142 0.3
143 0.1
154 0.1
155 0.01
156 0.3
157 0.1
168 0.1
170 0.03
171 0.1
184 0.5
185 0.1
198 0.1
199 5
200 1
201 0.1

>  <PREDICTED SPECTRUM>  (4430) 
27 62
28 103
29 89
30 354
31 21
32 0
39 68
40 25
41 219
42 150
43 253
44 999
45 203
46 7
53 74
54 26
55 160
56 147
57 114
58 175
59 32
67 40
68 37
69 55
70 93
72 20
77 12
82 34
83 89
84 20
86 94
97 95
98 38
142 38
155 9
156 14
184 109
198 75
199 170
200 49

$$$$

     RDKit          2D

  9  9  0  0  0  0  0  0  0  0999 V2000
   -1.6228   -4.2229    0.0000 C   0  0  0  0  0  0  0  0  0  0  0  0
   -2.3728   -2.9239    0.0000 C   0  0  0  0  0  0  0  0  0  0  0  0
    2.6008   -2.4235    0.0000 C   0  0  0  0  0  0  0  0  0  0  0  0
   -0.1544   -3.9063    0.0000 C   0  0  0  0  0  0  0  0  0  0  0  0
    1.3032   -1.6710    0.0000 C   0  0  0  0  0  0  0  0  0  0  0  0
   -1.3694   -1.8019    0.0000 C   0  0  0  0  0  0  0  0  0  0  0  0
    3.9013   -1.6760    0.0000 Cl  0  0  0  0  0  0  0  0  0  0  0  0
    0.0027   -2.4184    0.0000 N   0  0  0  0  0  0  0  0  0  0  0  0
   -1.6812   -0.3346    0.0000 O   0  0  0  0  0  0  0  0  0  0  0  0
  2  1  1  0
  4  1  1  0
  5  3  1  0
  6  2  1  0
  7  3  1  0
  8  4  1  0
  8  5  1  0
  8  6  1  0
  9  6  2  0
M  END
>  <NAME>  (4431) 
N-(2-CHLOROETHYL)-2-PYRROLIDONE

>  <SYNONYMS>  (4431) 


>  <SPECTRUM TYPE>  (4431) 
MS1

>  <INSTRUMENT TYPE>  (4431) 
EI-B

>  <INSTRUMENT>  (4431) 
HITACHI RMU-6E

>  <ION MODE>  (4431) 
P

>  <INCHIKEY>  (4431) 
CWLYHDWHNFLUEI-UHFFFAOYSA-N

>  <FORMULA>  (4431) 
C6H10ClNO

>  <EXACT MASS>  (4431) 
147.04509162

>  <MW>  (4431) 
147

>  <ID>  (4431) 
JP004168

>  <CONTRIBUTOR>  (4431) 
University of Tokyo Team, {Faculty of Engineering, University of Tokyo

>  <COMMENT>  (4431) 
SMILES=ClCCN(C1)C(=O)CC1
InChI=InChI=1S/C6H10ClNO/c7-3-5-8-4-1-2-6(8)9/h1-5H2
computed SMILES=O=C1N(CCCl)CCC1
accession=JP004168
date=2016.01.19 (Created 2008.10.21, modified 2011.05.06)
author=MASS SPECTROSCOPY SOC. OF JAPAN (MSSJ)
license=CC BY-NC-SA
exact mass=147.04509
ionization energy=70 eV
ion type=[M]+*
computed spectral entropy=2.686691707952922
computed normalized entropy=0.6262013998281261
SPLASH=splash10-0002-9100000000-2d9cb0140b22c161c54b
submitter=submitter = University of Tokyo Team (Faculty of Engineering, University of Tokyo)
MoNA Rating=3.75

>  <NUM PEAKS>  (4431) 
73

>  <MASS SPECTRAL PEAKS>  (4431) 
26 3.2
27 15.6
28 22
29 0.24
30 3.5
31 0.2
32 0.3
36 0.05
37 0.3
38 0.8
39 7.2
40 0.29
41 26
42 17.4
43 8.2
44 0.2
45 0.1
47 0.1
48 0.2
49 0.16
50 0.3
51 0.8
52 0.9
53 0.08
54 2.4
55 3.1
56 8
57 0.29
58 0.7
61 0.5
62 0.6
63 0.4
64 0.4
65 1.3
66 0.3
67 0.06
68 5.2
69 19
70 41
71 0.21
79 0.1
80 0.7
81 0.1
82 0.1
83 0.7
84 4
85 1.4
86 0.05
88 0.2
89 0.1
90 0.7
91 0.01
92 2.7
93 0.1
94 0.9
95 0.01
96 0.2
97 0.1
98 99.99
99 0.7
100 0.4
110 0.1
111 0.3
112 0.54
113 0.4
118 0.4
120 0.1
146 0.12
147 23
148 2.7
149 8.2
150 0.07
151 0.1

>  <PREDICTED SPECTRUM>  (4431) 
14 42
15 73
16 2
17 6
18 8
26 76
27 196
28 171
29 101
30 145
31 7
35 23
36 30
37 31
38 69
39 258
40 145
41 463
42 462
43 286
44 100
48 4
49 187
50 16
51 84
52 31
53 57
54 131
55 182
56 228
57 87
63 84
65 27
68 93
69 363
70 388
71 83
72 20
81 16
84 98
85 180
86 47
89 24
91 16
98 999
99 283
100 86
106 63
107 35
112 14
118 15
147 257
148 91
149 164
150 52

$$$$

     RDKit          2D

 20 20  0  0  0  0  0  0  0  0999 V2000
    7.1379   -7.3074    0.0000 C   0  0  0  0  0  0  0  0  0  0  0  0
    5.8374   -8.0548    0.0000 C   0  0  0  0  0  0  0  0  0  0  0  0
    4.5398   -7.3023    0.0000 C   0  0  0  0  0  0  0  0  0  0  0  0
    3.2393   -8.0498    0.0000 C   0  0  0  0  0  0  0  0  0  0  0  0
    1.9417   -7.2972    0.0000 C   0  0  0  0  0  0  0  0  0  0  0  0
    0.6412   -8.0447    0.0000 C   0  0  0  0  0  0  0  0  0  0  0  0
   -0.6563   -7.2921    0.0000 C   0  0  0  0  0  0  0  0  0  0  0  0
   -1.9568   -8.0396    0.0000 C   0  0  0  0  0  0  0  0  0  0  0  0
   -3.2544   -7.2871    0.0000 C   0  0  0  0  0  0  0  0  0  0  0  0
   -4.5549   -8.0345    0.0000 C   0  0  0  0  0  0  0  0  0  0  0  0
  -11.3766   -9.8289    0.0000 C   0  0  0  0  0  0  0  0  0  0  0  0
  -12.1266   -8.5298    0.0000 C   0  0  0  0  0  0  0  0  0  0  0  0
   -5.8525   -7.2820    0.0000 C   0  0  0  0  0  0  0  0  0  0  0  0
   -9.9081   -9.5122    0.0000 C   0  0  0  0  0  0  0  0  0  0  0  0
  -11.1231   -7.4078    0.0000 C   0  0  0  0  0  0  0  0  0  0  0  0
   -8.4505   -7.2769    0.0000 C   0  0  0  0  0  0  0  0  0  0  0  0
   -7.1530   -8.0294    0.0000 N   0  0  0  0  0  0  0  0  0  0  0  0
   -9.7510   -8.0244    0.0000 N   0  0  0  0  0  0  0  0  0  0  0  0
  -11.4350   -5.9406    0.0000 O   0  0  0  0  0  0  0  0  0  0  0  0
   -8.4476   -5.7769    0.0000 O   0  0  0  0  0  0  0  0  0  0  0  0
  2  1  1  0
  3  2  1  0
  4  3  1  0
  5  4  1  0
  6  5  1  0
  7  6  1  0
  8  7  1  0
  9  8  1  0
 10  9  1  0
 12 11  1  0
 13 10  1  0
 14 11  1  0
 15 12  1  0
 17 13  1  0
 17 16  2  3
 18 14  1  0
 18 15  1  0
 18 16  1  0
 19 15  2  0
 20 16  1  0
M  END
>  <NAME>  (4432) 
N-(UNDECYLCARBAMOYL)-2-PYRROLIDONE

>  <SYNONYMS>  (4432) 


>  <SPECTRUM TYPE>  (4432) 
MS1

>  <INSTRUMENT TYPE>  (4432) 
EI-B

>  <INSTRUMENT>  (4432) 
HITACHI RMU-6E

>  <ION MODE>  (4432) 
P

>  <INCHIKEY>  (4432) 
SEWWFEQDXRPJLW-UHFFFAOYSA-N

>  <FORMULA>  (4432) 
C16H30N2O2

>  <EXACT MASS>  (4432) 
282.2307282

>  <MW>  (4432) 
282

>  <ID>  (4432) 
JP004167

>  <CONTRIBUTOR>  (4432) 
University of Tokyo Team, {Faculty of Engineering, University of Tokyo

>  <COMMENT>  (4432) 
SMILES=CCCCCCCCCCCNC(=O)N(C1)C(=O)CC1
InChI=InChI=1S/C16H30N2O2/c1-2-3-4-5-6-7-8-9-10-13-17-16(20)18-14-11-12-15(18)19/h2-14H2,1H3,(H,17,20)
computed SMILES=O=C1N(C(O)=NCCCCCCCCCCC)CCC1
accession=JP004167
date=2016.01.19 (Created 2008.10.21, modified 2011.05.06)
author=MASS SPECTROSCOPY SOC. OF JAPAN (MSSJ)
license=CC BY-NC-SA
exact mass=282.23073
ionization energy=70 eV
ion type=[M]+*
computed spectral entropy=3.6497506199528447
computed normalized entropy=0.7028270645705791
SPLASH=splash10-0zgl-9500000000-0ac62da74829dde9caeb
submitter=submitter = University of Tokyo Team (Faculty of Engineering, University of Tokyo)
MoNA Rating=3.75

>  <NUM PEAKS>  (4432) 
180

>  <MASS SPECTRAL PEAKS>  (4432) 
26 1.4
27 11.2
28 16.6
29 3.3
30 62.6
31 3.4
32 2.4
39 0.66
40 1.9
41 35.4
42 12.6
43 3.2
44 6.4
45 3.2
46 0.9
47 0.03
50 0.5
52 0.4
53 1.5
54 0.38
55 25
56 15.8
57 16.4
58 0.9
59 1.9
60 0.4
61 0.1
62 0.46
63 0.2
65 1.1
66 0.5
67 0.32
68 2.9
69 13.4
70 6.4
71 0.54
72 1.3
73 0.9
74 11.4
75 0.16
76 1.7
77 0.6
79 0.5
80 0.03
81 1.6
82 2.5
83 5.2
84 0.62
85 11.6
87 0.7
88 2.3
89 0.06
90 24
91 1.4
92 0.2
93 0.09
94 0.2
95 1.1
96 1.3
97 0.36
98 8.8
99 26
100 2.8
101 0.05
102 99.99
103 10.8
104 2.4
105 0.07
106 0.1
107 0.2
108 0.1
109 0.06
110 0.8
111 1.2
112 15
113 0.9
114 1.7
115 0.4
116 2.2
117 0.18
118 0.2
119 0.2
120 0.1
121 0.06
122 0.5
123 0.4
124 0.9
125 0.05
126 5
127 1.6
128 0.8
129 0.64
130 4
131 2
132 0.3
133 0.01
135 0.2
136 0.1
137 0.2
138 0.04
139 0.1
140 1.8
141 11.6
142 0.27
143 0.3
144 4.4
145 1.9
146 0.02
147 0.1
148 0.1
149 21
150 0.22
151 0.3
152 0.6
153 0.2
154 0.15
155 1.3
156 0.6
157 0.2
158 0.38
159 0.7
160 0.3
161 0.1
167 0.04
168 0.8
169 0.4
170 7
171 0.12
172 1.6
173 0.5
174 0.1
180 0.02
181 0.1
182 0.3
183 1.3
184 0.03
185 0.2
186 1.5
187 0.3
196 0.06
197 1.3
198 2.3
199 0.4
200 0.15
201 0.3
205 1.3
206 0.3
207 0.01
211 0.4
212 0.2
213 0.1
214 1.4
215 2.8
216 0.5
217 0.1
223 0.16
224 0.3
225 0.3
226 0.2
227 0.01
228 0.3
229 0.1
230 0.1
239 0.03
240 0.1
242 0.5
243 9.2
244 0.26
245 0.4
246 0.1
253 0.3
254 0.05
255 0.1
278 0.3
279 0.1
280 0.01
281 0.1
282 1.8
283 0.5
284 0.1

>  <PREDICTED SPECTRUM>  (4432) 
26 9
27 186
28 147
29 223
30 269
31 76
36 47
38 23
39 287
40 183
41 999
42 799
43 956
44 711
45 252
46 27
50 27
51 164
52 130
53 326
54 349
55 770
56 670
57 669
58 401
59 193
60 57
65 130
66 105
67 441
68 413
69 738
70 696
71 448
72 151
73 119
74 94
77 223
78 152
79 208
80 148
81 355
82 446
83 564
84 745
85 409
86 408
87 157
88 2
94 145
95 210
96 397
97 450
98 509
99 347
100 288
101 131
102 74
104 47
108 86
109 76
110 290
111 369
112 754
113 549
114 438
115 126
122 69
123 126
124 193
125 282
126 446
127 709
128 478
129 222
130 75
136 76
137 91
138 141
139 150
140 496
141 355
142 284
143 55
151 209
152 200
153 331
154 388
155 538
156 243
164 72
165 216
166 173
167 104
168 326
169 889
170 383
171 34
180 80
181 303
182 223
183 214
194 38
195 177
196 154
197 493
198 40
207 42
208 30
209 284
210 214
211 156
212 28
223 186
224 102
225 226
226 65
237 355
238 267
239 129
240 164
252 90
253 41
254 19
265 52
267 105
268 2
281 28
282 320
283 187

$$$$

     RDKit          2D

 15 16  0  0  0  0  0  0  0  0999 V2000
    4.2250   -1.8663    0.0000 C   0  0  0  0  0  0  0  0  0  0  0  0
    4.2225   -3.3671    0.0000 C   0  0  0  0  0  0  0  0  0  0  0  0
    2.9269   -1.1129    0.0000 C   0  0  0  0  0  0  0  0  0  0  0  0
   -3.9001   -5.9081    0.0000 C   0  0  0  0  0  0  0  0  0  0  0  0
    2.9220   -4.1146    0.0000 C   0  0  0  0  0  0  0  0  0  0  0  0
    1.6264   -1.8604    0.0000 C   0  0  0  0  0  0  0  0  0  0  0  0
   -4.6501   -4.6091    0.0000 C   0  0  0  0  0  0  0  0  0  0  0  0
   -2.4317   -5.5915    0.0000 C   0  0  0  0  0  0  0  0  0  0  0  0
    1.6240   -3.3612    0.0000 C   0  0  0  0  0  0  0  0  0  0  0  0
   -3.6467   -3.4870    0.0000 C   0  0  0  0  0  0  0  0  0  0  0  0
   -0.9741   -3.3561    0.0000 C   0  0  0  0  0  0  0  0  0  0  0  0
    0.3235   -4.1087    0.0000 N   0  0  0  0  0  0  0  0  0  0  0  0
   -2.2746   -4.1036    0.0000 N   0  0  0  0  0  0  0  0  0  0  0  0
   -3.9586   -2.0198    0.0000 O   0  0  0  0  0  0  0  0  0  0  0  0
   -0.9712   -1.8561    0.0000 O   0  0  0  0  0  0  0  0  0  0  0  0
  2  1  1  0
  3  1  1  0
  5  2  1  0
  6  3  1  0
  7  4  1  0
  8  4  1  0
  9  5  1  0
  9  6  1  0
 10  7  1  0
 12  9  1  0
 12 11  2  3
 13  8  1  0
 13 10  1  0
 13 11  1  0
 14 10  2  0
 15 11  1  0
M  END
>  <NAME>  (4433) 
N-(CYCLOHEXYLCARBAMOYL)-2-RYRROLIDONE

>  <SYNONYMS>  (4433) 


>  <SPECTRUM TYPE>  (4433) 
MS1

>  <INSTRUMENT TYPE>  (4433) 
EI-B

>  <INSTRUMENT>  (4433) 
HITACHI RMU-6E

>  <ION MODE>  (4433) 
P

>  <INCHIKEY>  (4433) 
XTYPRCKTUGBVCB-UHFFFAOYSA-N

>  <FORMULA>  (4433) 
C11H18N2O2

>  <EXACT MASS>  (4433) 
210.136827816

>  <MW>  (4433) 
210

>  <ID>  (4433) 
JP004166

>  <CONTRIBUTOR>  (4433) 
University of Tokyo Team, {Faculty of Engineering, University of Tokyo

>  <COMMENT>  (4433) 
SMILES=O=C(C2)N(CC2)C(=O)NC(C1)CCCC1
InChI=InChI=1S/C11H18N2O2/c14-10-7-4-8-13(10)11(15)12-9-5-2-1-3-6-9/h9H,1-8H2,(H,12,15)
computed SMILES=O=C1N(C(O)=NC2CCCCC2)CCC1
accession=JP004166
date=2016.01.19 (Created 2008.10.21, modified 2011.05.06)
author=MASS SPECTROSCOPY SOC. OF JAPAN (MSSJ)
license=CC BY-NC-SA
exact mass=210.13683
ionization energy=70 eV
ion type=[M]+*
computed spectral entropy=3.3744011595237096
computed normalized entropy=0.7085841898521533
SPLASH=splash10-002g-9000000000-354125ae3c1389ca2e79
submitter=submitter = University of Tokyo Team (Faculty of Engineering, University of Tokyo)
MoNA Rating=3.75

>  <NUM PEAKS>  (4433) 
117

>  <MASS SPECTRAL PEAKS>  (4433) 
26 8.8
27 36.6
28 65.6
29 2.06
30 34
31 0.6
32 2.1
35 0.13
36 0.5
37 1.6
38 4
39 3.3
40 15.2
41 99.99
42 54.6
43 1.9
44 4.7
45 0.2
46 0.5
47 0.31
48 1.4
49 1.2
50 2
51 0.35
52 4.4
53 9.6
54 35.8
55 3.04
56 69.8
57 6.7
58 1.7
59 0.03
60 0.2
61 0.3
62 0.5
63 0.06
64 0.6
65 1.9
66 2.1
67 6.26
68 12.4
69 43
70 9
71 0.13
72 0.3
73 0.2
74 0.2
75 0.03
76 0.2
77 1.9
78 1
79 0.38
80 4.8
81 9
82 55
83 1.8
84 19
85 60
86 29
87 0.16
88 0.1
89 0.1
90 0.4
91 0.03
92 0.2
93 0.2
94 0.2
95 0.05
96 13.4
97 51.4
98 59
99 0.54
100 0.6
108 0.5
109 0.2
110 0.23
111 0.6
112 15
113 0.9
114 0.02
118 0.4
119 0.2
120 0.3
124 0.9
125 11
126 2
127 0.3
128 0.13
129 34
130 2.2
131 0.2
138 0.05
139 0.2
140 0.2
141 1.9
142 0.08
143 0.4
144 0.1
153 0.4
154 0.16
155 0.4
156 0.1
166 0.1
167 3.58
168 3.9
169 0.4
170 0.1
171 0.03
172 0.1
180 0.1
181 1.6
182 0.03
209 0.3
210 8.4
211 1.6
212 0.03
213 0.1

>  <PREDICTED SPECTRUM>  (4433) 
14 43
15 107
16 43
17 67
18 94
25 21
26 159
27 415
28 359
29 390
30 463
31 154
32 32
33 20
34 46
35 0
36 44
37 57
38 121
39 520
40 248
41 999
42 639
43 664
44 464
45 238
46 102
47 101
48 61
49 28
50 86
51 151
52 138
53 340
54 445
55 894
56 825
57 375
58 225
59 135
60 282
61 34
62 49
64 53
65 156
66 63
67 310
68 310
69 666
70 581
71 163
72 145
73 70
74 64
76 46
77 151
78 91
79 214
80 184
81 303
82 372
83 709
84 471
85 299
86 257
87 138
92 18
93 58
94 157
95 200
96 244
97 250
98 458
99 322
100 234
101 129
102 68
103 23
104 46
105 10
108 88
109 152
110 234
111 214
112 482
113 158
114 106
115 39
116 29
117 12
118 41
119 7
120 8
121 18
122 84
123 120
124 90
125 245
126 44
127 191
128 305
129 586
130 151
131 157
135 99
136 182
137 177
138 198
139 169
140 180
141 52
142 68
150 5
151 94
152 58
153 216
154 114
155 229
156 66
163 18
165 203
166 151
167 203
168 168
169 52
180 90
181 188
182 96
195 71
209 136
210 442
211 145
212 49

$$$$

     RDKit          2D

 17 18  0  0  0  0  0  0  0  0999 V2000
    3.8255   -0.4243    0.0000 C   0  0  0  0  0  0  0  0  0  0  0  0
    4.5755   -1.7234    0.0000 C   0  0  0  0  0  0  0  0  0  0  0  0
   -2.9967   -2.2179    0.0000 C   0  0  0  0  0  0  0  0  0  0  0  0
   -4.2972   -2.9653    0.0000 C   0  0  0  0  0  0  0  0  0  0  0  0
    2.3570   -0.7410    0.0000 C   0  0  0  0  0  0  0  0  0  0  0  0
   -1.7011   -4.4721    0.0000 C   0  0  0  0  0  0  0  0  0  0  0  0
   -1.6986   -2.9712    0.0000 C   0  0  0  0  0  0  0  0  0  0  0  0
   -4.2996   -4.4662    0.0000 C   0  0  0  0  0  0  0  0  0  0  0  0
   -3.0016   -5.2195    0.0000 C   0  0  0  0  0  0  0  0  0  0  0  0
    3.5720   -2.8454    0.0000 C   0  0  0  0  0  0  0  0  0  0  0  0
    0.8994   -2.9763    0.0000 C   0  0  0  0  0  0  0  0  0  0  0  0
   -5.6001   -5.2136    0.0000 Cl  0  0  0  0  0  0  0  0  0  0  0  0
   -3.0048   -6.7195    0.0000 Cl  0  0  0  0  0  0  0  0  0  0  0  0
   -0.3981   -2.2238    0.0000 N   0  0  0  0  0  0  0  0  0  0  0  0
    2.1999   -2.2289    0.0000 N   0  0  0  0  0  0  0  0  0  0  0  0
    3.8839   -4.3126    0.0000 O   0  0  0  0  0  0  0  0  0  0  0  0
    0.8965   -4.4763    0.0000 O   0  0  0  0  0  0  0  0  0  0  0  0
  2  1  1  0
  4  3  2  0
  5  1  1  0
  7  3  1  0
  7  6  2  0
  8  4  1  0
  9  6  1  0
  9  8  2  0
 10  2  1  0
 12  8  1  0
 13  9  1  0
 14  7  1  0
 14 11  2  3
 15  5  1  0
 15 10  1  0
 15 11  1  0
 16 10  2  0
 17 11  1  0
M  END
>  <NAME>  (4434) 
N-(3,4-DICHLOROPHENYLCARBAMOYL)-2-PYRROLIDONE

>  <SYNONYMS>  (4434) 


>  <SPECTRUM TYPE>  (4434) 
MS1

>  <INSTRUMENT TYPE>  (4434) 
EI-B

>  <INSTRUMENT>  (4434) 
HITACHI RMU-6E

>  <ION MODE>  (4434) 
P

>  <INCHIKEY>  (4434) 
MMMNMLFHTXRPJR-UHFFFAOYSA-N

>  <FORMULA>  (4434) 
C11H10Cl2N2O2

>  <EXACT MASS>  (4434) 
272.01193292

>  <MW>  (4434) 
272

>  <ID>  (4434) 
JP004165

>  <CONTRIBUTOR>  (4434) 
University of Tokyo Team, {Faculty of Engineering, University of Tokyo

>  <COMMENT>  (4434) 
SMILES=O=C(C2)N(CC2)C(=O)Nc(c1)cc(Cl)c(Cl)c1
InChI=InChI=1S/C11H10Cl2N2O2/c12-8-4-3-7(6-9(8)13)14-11(17)15-5-1-2-10(15)16/h3-4,6H,1-2,5H2,(H,14,17)
computed SMILES=O=C1N(C(O)=NC2=CC=C(Cl)C(Cl)=C2)CCC1
accession=JP004165
date=2016.01.19 (Created 2008.10.21, modified 2011.05.06)
author=MASS SPECTROSCOPY SOC. OF JAPAN (MSSJ)
license=CC BY-NC-SA
exact mass=272.01193
ionization energy=70 eV
ion type=[M]+*
computed spectral entropy=3.5534180019115915
computed normalized entropy=0.7266184701221318
SPLASH=splash10-000i-5910000000-11be340ee083be59c882
submitter=submitter = University of Tokyo Team (Faculty of Engineering, University of Tokyo)
MoNA Rating=3.75

>  <NUM PEAKS>  (4434) 
133

>  <MASS SPECTRAL PEAKS>  (4434) 
26 1.3
27 5
28 20
29 0.44
30 4.6
31 0.5
36 0.9
37 0.13
38 1.5
39 4.5
40 1.9
41 2.14
42 6
43 1.5
44 6.6
45 0.06
47 0.4
48 0.2
49 1.3
50 0.08
51 0.8
52 1.4
53 0.5
54 0.13
55 4.3
56 22
57 5.2
58 0.1
59 0.5
60 0.3
61 1.9
62 0.46
63 4.8
64 2.1
65 0.7
68 0.05
69 16
70 3.3
71 0.4
72 0.13
73 4.8
74 3.1
75 2.9
76 0.08
83 0.6
84 10
85 5.6
86 0.34
87 1
88 2.8
89 2.1
90 0.3
91 0.7
96 0.4
97 3.3
98 0.18
99 2.3
100 0.7
106 0.3
107 0.1
108 0.9
109 4.5
110 1.2
111 0.14
112 10
113 1.4
114 0.2
123 0.07
124 15
125 4.6
126 6
127 0.17
128 0.4
132 0.3
133 5
134 0.1
135 2.7
136 1
137 0.9
138 0.02
141 0.5
144 0.2
145 1.9
146 0.03
147 1.3
148 0.2
149 1.5
150 0.02
152 0.4
153 0.8
154 0.3
158 0.05
159 8.8
160 3.6
161 21.2
162 0.32
163 11
164 0.8
165 1.7
166 0.03
167 0.1
173 0.2
174 0.6
175 0.02
181 0.7
182 0.2
187 99.99
188 1.12
189 62.4
190 7
191 11.6
192 0.11
193 0.1
201 2.9
202 0.7
203 0.06
204 0.3
205 0.5
206 0.3
207 0.02
208 0.2
209 0.3
210 0.1
237 1.8
238 2.3
239 6.6
240 0.8
272 3.64
273 6
274 24
275 3.7
276 0.47
277 0.5

>  <PREDICTED SPECTRUM>  (4434) 
26 1
27 37
28 86
29 158
30 141
31 77
33 35
34 14
35 93
36 175
37 114
38 147
39 265
40 240
41 493
42 801
43 542
44 519
45 445
46 94
47 146
48 53
49 203
50 400
51 280
52 202
53 197
54 239
55 291
56 431
57 165
58 154
59 101
60 147
61 231
62 355
63 371
64 174
65 72
66 69
67 97
68 208
69 282
70 244
71 80
72 234
73 510
74 699
75 710
76 373
77 96
78 73
80 38
81 4
82 13
83 119
84 482
85 281
86 362
87 221
88 235
89 58
90 191
91 64
96 96
97 450
98 280
99 338
100 203
101 138
102 223
103 45
104 66
105 39
106 31
107 48
108 109
109 624
110 442
111 491
112 406
113 266
114 235
115 143
116 134
118 10
119 38
120 10
121 31
123 290
124 763
125 351
126 387
127 40
133 217
134 178
135 420
136 386
137 130
138 206
143 139
144 82
145 708
146 249
147 773
148 282
149 298
150 152
151 42
152 57
157 163
158 217
159 268
160 198
161 273
162 273
163 157
164 149
165 15
169 35
170 104
171 282
172 999
173 358
174 826
175 497
176 184
177 308
184 25
185 210
186 221
187 424
188 379
189 414
190 328
191 265
192 122
193 43
194 38
198 59
199 285
200 364
201 302
202 189
203 85
214 64
215 96
216 77
217 164
218 180
220 2
226 85
227 381
228 352
229 275
230 168
231 123
232 53
237 103
238 60
239 72
240 93
241 126
242 72
243 107
244 88
255 109
256 36
257 201
258 60
259 63
272 957
273 412
274 799
275 303
276 319
277 61

$$$$

     RDKit          2D

 18 17  0  0  0  0  0  0  0  0999 V2000
    4.8714    8.8125    0.0000 C   0  0  0  0  0  0  0  0  0  0  0  0
  -14.6142    9.5625    0.0000 C   0  0  0  0  0  0  0  0  0  0  0  0
    3.5724    9.5625    0.0000 C   0  0  0  0  0  0  0  0  0  0  0  0
  -13.3151    8.8125    0.0000 C   0  0  0  0  0  0  0  0  0  0  0  0
    2.2733    8.8125    0.0000 C   0  0  0  0  0  0  0  0  0  0  0  0
    0.9743    9.5625    0.0000 C   0  0  0  0  0  0  0  0  0  0  0  0
   -0.3248    8.8125    0.0000 C   0  0  0  0  0  0  0  0  0  0  0  0
   -1.6238    9.5625    0.0000 C   0  0  0  0  0  0  0  0  0  0  0  0
   -2.9228    8.8125    0.0000 C   0  0  0  0  0  0  0  0  0  0  0  0
   -4.2219    9.5625    0.0000 C   0  0  0  0  0  0  0  0  0  0  0  0
   -5.5209    8.8125    0.0000 C   0  0  0  0  0  0  0  0  0  0  0  0
   -6.8200    9.5625    0.0000 C   0  0  0  0  0  0  0  0  0  0  0  0
   -8.1190    8.8125    0.0000 C   0  0  0  0  0  0  0  0  0  0  0  0
  -12.0161    9.5625    0.0000 C   0  0  0  0  0  0  0  0  0  0  0  0
   -9.4180    9.5625    0.0000 C   0  0  0  0  0  0  0  0  0  0  0  0
  -10.7171    7.3125    0.0000 C   0  0  0  0  0  0  0  0  0  0  0  0
  -10.7171    8.8125    0.0000 N   0  0  0  0  0  0  0  0  0  0  0  0
  -12.0161    6.5625    0.0000 O   0  0  0  0  0  0  0  0  0  0  0  0
  3  1  1  0
  4  2  1  0
  5  3  1  0
  6  5  1  0
  7  6  1  0
  8  7  1  0
  9  8  1  0
 10  9  1  0
 11 10  1  0
 12 11  1  0
 13 12  1  0
 14  4  1  0
 15 13  1  0
 17 14  1  0
 17 15  1  0
 17 16  1  0
 18 16  2  0
M  END
>  <NAME>  (4435) 
N-DODECYL-N-PROPYLFORMAMIDE

>  <SYNONYMS>  (4435) 


>  <SPECTRUM TYPE>  (4435) 
MS1

>  <INSTRUMENT TYPE>  (4435) 
EI-B

>  <INSTRUMENT>  (4435) 
HITACHI RMU-6E

>  <ION MODE>  (4435) 
P

>  <INCHIKEY>  (4435) 
KAUUMGSCMHSUOE-UHFFFAOYSA-N

>  <FORMULA>  (4435) 
C16H33NO

>  <EXACT MASS>  (4435) 
255.25621467599998

>  <MW>  (4435) 
255

>  <ID>  (4435) 
JP004164

>  <CONTRIBUTOR>  (4435) 
University of Tokyo Team, {Faculty of Engineering, University of Tokyo

>  <COMMENT>  (4435) 
SMILES=CCCCCCCCCCCCN(C=O)CCC
InChI=InChI=1S/C16H33NO/c1-3-5-6-7-8-9-10-11-12-13-15-17(16-18)14-4-2/h16H,3-15H2,1-2H3
computed SMILES=O=CN(CCC)CCCCCCCCCCCC
accession=JP004164
date=2016.01.19 (Created 2008.10.21, modified 2011.05.06)
author=MASS SPECTROSCOPY SOC. OF JAPAN (MSSJ)
license=CC BY-NC-SA
exact mass=255.25621
ionization energy=70 eV
ion type=[M]+*
computed spectral entropy=3.126177039744593
computed normalized entropy=0.6507417454325857
SPLASH=splash10-0fbc-9450000000-64d2cdbe9ce1351fb162
submitter=submitter = University of Tokyo Team (Faculty of Engineering, University of Tokyo)
MoNA Rating=3.75

>  <NUM PEAKS>  (4435) 
122

>  <MASS SPECTRAL PEAKS>  (4435) 
26 0.4
27 5.8
28 4
29 1.16
30 23
31 0.5
32 0.1
38 0.01
39 2.8
40 0.5
41 25.2
42 0.74
43 27.2
44 11
45 0.4
46 0.35
53 1.4
54 1.4
55 13.2
56 0.52
57 8.4
58 9.2
59 3.8
60 0.3
61 0.1
65 0.2
66 0.1
67 0.16
68 1
69 6
70 4.2
71 0.28
72 41
73 6.2
74 0.5
75 0.01
76 0.1
77 0.2
78 0.1
79 0.04
80 0.2
81 1.2
82 0.7
83 0.27
84 4.2
85 1.6
86 5.4
87 0.09
88 6.8
89 0.4
90 0.1
91 0.02
95 0.5
96 0.4
97 1.3
98 0.24
99 0.7
100 68
101 18.4
102 0.16
103 0.1
109 0.4
110 0.2
111 0.04
112 1.2
113 0.3
114 11
115 0.14
116 0.1
123 0.1
124 0.2
125 0.01
126 0.9
127 0.2
128 7.6
129 0.09
130 0.1
140 0.7
141 0.3
142 0.25
143 0.7
154 0.6
155 0.2
156 0.21
157 0.4
168 0.3
169 0.1
170 0.33
171 0.4
182 0.3
183 0.2
184 0.31
185 0.5
195 0.1
196 0.3
197 0.05
198 2.8
199 0.4
210 0.2
211 0.01
212 3.6
213 1.2
214 0.5
224 0.04
225 0.1
226 99.99
227 16.6
228 0.16
229 0.2
236 0.1
237 0.1
238 0.1
239 0.2
240 3.5
241 0.7
242 0.01
253 0.1
254 2.6
255 6.8
256 0.28
257 0.4
258 0.1

>  <PREDICTED SPECTRUM>  (4435) 
26 24
27 134
28 85
29 198
30 442
31 11
38 10
39 196
40 65
41 400
42 189
43 509
44 485
45 153
53 83
54 144
55 276
56 265
57 295
58 289
59 143
60 26
61 1
66 15
67 117
68 155
69 263
70 219
71 222
72 671
73 285
74 124
75 34
79 52
81 85
82 91
83 43
84 81
85 123
86 364
87 83
96 24
97 77
98 128
99 129
100 761
101 288
102 58
111 19
112 85
113 13
114 349
115 124
116 37
126 102
127 38
128 185
140 27
142 28
154 78
156 71
168 63
180 25
182 53
184 108
196 109
197 6
198 64
199 25
210 82
211 48
212 197
213 69
224 30
226 999
227 384
228 104
238 101
240 111
254 125
255 177
256 56

$$$$

     RDKit          2D

 15 15  0  0  0  0  0  0  0  0999 V2000
    6.1019   -4.2798    0.0000 C   0  0  0  0  0  0  0  0  0  0  0  0
   -8.1576   -4.6279    0.0000 C   0  0  0  0  0  0  0  0  0  0  0  0
    4.8029   -3.5298    0.0000 C   0  0  0  0  0  0  0  0  0  0  0  0
    3.5039   -4.2798    0.0000 C   0  0  0  0  0  0  0  0  0  0  0  0
    2.2048   -3.5298    0.0000 C   0  0  0  0  0  0  0  0  0  0  0  0
    0.9058   -4.2798    0.0000 C   0  0  0  0  0  0  0  0  0  0  0  0
   -0.3933   -3.5298    0.0000 C   0  0  0  0  0  0  0  0  0  0  0  0
   -1.6923   -4.2798    0.0000 C   0  0  0  0  0  0  0  0  0  0  0  0
   -5.9159   -6.0843    0.0000 C   0  0  0  0  0  0  0  0  0  0  0  0
   -2.9913   -3.5298    0.0000 C   0  0  0  0  0  0  0  0  0  0  0  0
   -4.4561   -5.7727    0.0000 C   0  0  0  0  0  0  0  0  0  0  0  0
   -6.6659   -4.7853    0.0000 C   0  0  0  0  0  0  0  0  0  0  0  0
   -5.6661   -3.6769    0.0000 C   0  0  0  0  0  0  0  0  0  0  0  0
   -4.2904   -4.2798    0.0000 N   0  0  0  0  0  0  0  0  0  0  0  0
   -5.9816   -2.2105    0.0000 O   0  0  0  0  0  0  0  0  0  0  0  0
  3  1  1  0
  4  3  1  0
  5  4  1  0
  6  5  1  0
  7  6  1  0
  8  7  1  0
 10  8  1  0
 11  9  1  0
 12  2  1  0
 12  9  1  0
 13 12  1  0
 14 10  1  0
 14 11  1  0
 14 13  1  0
 15 13  2  0
M  END
>  <NAME>  (4436) 
3-METHYL-N-OCTYL-2-PYRROLIDONE

>  <SYNONYMS>  (4436) 


>  <SPECTRUM TYPE>  (4436) 
MS1

>  <INSTRUMENT TYPE>  (4436) 
EI-B

>  <INSTRUMENT>  (4436) 
HITACHI RMU-6E

>  <ION MODE>  (4436) 
P

>  <INCHIKEY>  (4436) 
RSLRMPBMJSZJKJ-UHFFFAOYSA-N

>  <FORMULA>  (4436) 
C13H25NO

>  <EXACT MASS>  (4436) 
211.19361442

>  <MW>  (4436) 
211

>  <ID>  (4436) 
JP004163

>  <CONTRIBUTOR>  (4436) 
University of Tokyo Team, {Faculty of Engineering, University of Tokyo

>  <COMMENT>  (4436) 
SMILES=CCCCCCCCN(C1)C(=O)C(C)C1
InChI=InChI=1S/C13H25NO/c1-3-4-5-6-7-8-10-14-11-9-12(2)13(14)15/h12H,3-11H2,1-2H3
computed SMILES=O=C1N(CCCCCCCC)CCC1C
accession=JP004163
date=2016.01.19 (Created 2008.10.21, modified 2011.05.06)
author=MASS SPECTROSCOPY SOC. OF JAPAN (MSSJ)
license=CC BY-NC-SA
exact mass=211.19361
ionization energy=70 eV
ion type=[M]+*
computed spectral entropy=2.885622894478257
computed normalized entropy=0.63970577897835
SPLASH=splash10-03di-4900000000-c86ed3390920159408e0
submitter=submitter = University of Tokyo Team (Faculty of Engineering, University of Tokyo)
MoNA Rating=3.75

>  <NUM PEAKS>  (4436) 
91

>  <MASS SPECTRAL PEAKS>  (4436) 
38 0.2
39 6.8
40 1.3
41 2.8
42 25
43 11.2
44 3.5
45 0.02
50 0.1
51 0.3
52 0.3
53 0.23
54 2.4
55 22.8
56 13.2
57 0.48
58 0.8
66 0.3
67 0.2
68 0.22
69 2
70 4.4
71 3.6
72 0.1
73 0.5
74 0.2
80 0.3
81 0.04
82 0.7
83 2.5
84 2.3
85 6.74
86 5.4
87 0.3
88 0.1
89 0.01
94 0.3
95 0.3
96 0.8
97 0.04
98 7
99 1.7
100 9
101 0.06
108 0.1
109 0.4
110 1
111 0.1
112 99.99
113 82.2
114 5.6
115 0.04
123 0.1
124 0.3
125 0.3
126 2.1
127 8.2
128 0.6
129 0.1
138 0.07
139 0.3
140 24
141 7.4
142 0.1
143 0.1
152 0.2
153 0.1
154 0.88
155 3.4
156 0.6
157 0.1
166 0.01
167 0.1
168 6.6
169 4.2
170 0.04
171 0.2
172 0.1
182 5.8
183 0.1
194 0.3
195 0.1
196 2
197 0.05
198 0.1
209 0.1
210 1.5
211 3.3
212 7.2
213 0.7
214 0.1

>  <PREDICTED SPECTRUM>  (4436) 
27 89
28 91
29 85
30 14
39 127
40 114
41 403
42 553
43 342
44 244
51 8
53 84
54 132
55 298
56 415
57 225
58 175
67 104
68 156
69 167
70 309
71 114
72 187
81 54
82 156
83 171
84 648
85 636
86 234
96 51
97 32
98 485
99 282
100 120
110 71
112 999
113 717
114 86
126 291
127 229
128 97
140 443
141 151
154 302
155 169
156 154
168 534
169 229
170 25
182 200
183 111
196 285
197 23
210 177
211 852
212 316
213 72

$$$$

     RDKit          2D

 13 13  0  0  0  0  0  0  0  0999 V2000
    5.4524   -3.1548    0.0000 C   0  0  0  0  0  0  0  0  0  0  0  0
   -6.2090   -3.5029    0.0000 C   0  0  0  0  0  0  0  0  0  0  0  0
    4.1534   -2.4048    0.0000 C   0  0  0  0  0  0  0  0  0  0  0  0
    2.8543   -3.1548    0.0000 C   0  0  0  0  0  0  0  0  0  0  0  0
    1.5553   -2.4048    0.0000 C   0  0  0  0  0  0  0  0  0  0  0  0
    0.2563   -3.1548    0.0000 C   0  0  0  0  0  0  0  0  0  0  0  0
   -3.9673   -4.9593    0.0000 C   0  0  0  0  0  0  0  0  0  0  0  0
   -1.0428   -2.4048    0.0000 C   0  0  0  0  0  0  0  0  0  0  0  0
   -2.5076   -4.6477    0.0000 C   0  0  0  0  0  0  0  0  0  0  0  0
   -4.7173   -3.6603    0.0000 C   0  0  0  0  0  0  0  0  0  0  0  0
   -3.7176   -2.5519    0.0000 C   0  0  0  0  0  0  0  0  0  0  0  0
   -2.3418   -3.1548    0.0000 N   0  0  0  0  0  0  0  0  0  0  0  0
   -4.0331   -1.0855    0.0000 O   0  0  0  0  0  0  0  0  0  0  0  0
  3  1  1  0
  4  3  1  0
  5  4  1  0
  6  5  1  0
  8  6  1  0
  9  7  1  0
 10  2  1  0
 10  7  1  0
 11 10  1  0
 12  8  1  0
 12  9  1  0
 12 11  1  0
 13 11  2  0
M  END
>  <NAME>  (4437) 
N-HEXYL-3-METHYL-2-PYRROLIDONE

>  <SYNONYMS>  (4437) 


>  <SPECTRUM TYPE>  (4437) 
MS1

>  <INSTRUMENT TYPE>  (4437) 
EI-B

>  <INSTRUMENT>  (4437) 
HITACHI RMU-6E

>  <ION MODE>  (4437) 
P

>  <INCHIKEY>  (4437) 
MGAPDRUAYAADPG-UHFFFAOYSA-N

>  <FORMULA>  (4437) 
C11H21NO

>  <EXACT MASS>  (4437) 
183.162314292

>  <MW>  (4437) 
183

>  <ID>  (4437) 
JP004162

>  <CONTRIBUTOR>  (4437) 
University of Tokyo Team, {Faculty of Engineering, University of Tokyo

>  <COMMENT>  (4437) 
SMILES=CCCCCCN(C1)C(=O)C(C)C1
InChI=InChI=1S/C11H21NO/c1-3-4-5-6-8-12-9-7-10(2)11(12)13/h10H,3-9H2,1-2H3
computed SMILES=O=C1N(CCCCCC)CCC1C
accession=JP004162
date=2016.01.19 (Created 2008.10.21, modified 2011.05.06)
author=MASS SPECTROSCOPY SOC. OF JAPAN (MSSJ)
license=CC BY-NC-SA
exact mass=183.16231
ionization energy=70 eV
ion type=[M]+*
computed spectral entropy=2.905729526429494
computed normalized entropy=0.6506469567280047
SPLASH=splash10-03du-9800000000-29da6ddd11524c2f0e23
submitter=submitter = University of Tokyo Team (Faculty of Engineering, University of Tokyo)
MoNA Rating=3.75

>  <NUM PEAKS>  (4437) 
87

>  <MASS SPECTRAL PEAKS>  (4437) 
26 1
27 10.6
28 9.2
29 1.42
30 7
31 0.3
32 0.1
37 0.01
38 0.3
39 7
40 1.6
41 2.4
42 26
43 10.6
44 3.2
45 0.02
50 0.1
51 0.3
52 0.3
53 0.26
54 2.8
55 20.6
56 14
57 0.35
58 0.8
59 0.1
66 0.3
67 0.01
68 2.3
69 2.2
70 2.3
71 0.31
72 0.8
73 0.5
74 0.2
78 0.01
79 0.1
80 0.4
81 0.6
82 0.05
83 2.8
84 2.9
85 78
86 0.54
87 0.4
88 0.1
93 0.1
94 0.03
95 0.1
96 0.7
97 0.5
98 0.68
99 2.2
100 6.8
101 0.4
109 0.03
110 0.7
111 1
112 99.99
113 6.4
114 4.6
115 0.2
124 0.3
125 0.02
126 17.4
127 5.2
128 0.6
138 0.05
139 0.2
140 24
141 8
142 0.1
143 0.1
152 0.2
153 0.1
154 0.66
155 1.3
156 0.1
166 0.3
167 0.01
168 2
169 0.4
181 0.1
182 0.16
183 28.8
184 5.8
185 0.6

>  <PREDICTED SPECTRUM>  (4437) 
26 1
27 66
28 74
29 29
30 9
39 145
40 106
41 278
42 376
43 249
44 246
53 70
54 111
55 204
56 257
57 127
65 31
66 1
67 70
68 99
69 112
70 186
71 73
72 97
79 1
82 91
83 75
84 272
85 361
86 6
97 6
98 113
99 147
100 111
112 999
113 413
114 112
125 4
126 250
127 77
138 9
140 474
141 198
154 176
155 28
166 19
168 199
169 49
182 91
183 520
184 162

$$$$

     RDKit          2D

 15 14  0  0  0  0  0  0  0  0999 V2000
    4.5466    7.1250    0.0000 C   0  0  0  0  0  0  0  0  0  0  0  0
    3.2476    7.8750    0.0000 C   0  0  0  0  0  0  0  0  0  0  0  0
    1.9486    7.1250    0.0000 C   0  0  0  0  0  0  0  0  0  0  0  0
    0.6495    7.8750    0.0000 C   0  0  0  0  0  0  0  0  0  0  0  0
   -8.4437    7.1250    0.0000 C   0  0  0  0  0  0  0  0  0  0  0  0
   -7.1447    7.8750    0.0000 C   0  0  0  0  0  0  0  0  0  0  0  0
   -0.6495    7.1250    0.0000 C   0  0  0  0  0  0  0  0  0  0  0  0
   -9.7428    7.8750    0.0000 C   0  0  0  0  0  0  0  0  0  0  0  0
   -5.8457    7.1250    0.0000 C   0  0  0  0  0  0  0  0  0  0  0  0
   -1.9486    7.8750    0.0000 C   0  0  0  0  0  0  0  0  0  0  0  0
  -11.0418    7.1250    0.0000 C   0  0  0  0  0  0  0  0  0  0  0  0
   -4.5466    7.8750    0.0000 C   0  0  0  0  0  0  0  0  0  0  0  0
   -3.2476    7.1250    0.0000 N   0  0  0  0  0  0  0  0  0  0  0  0
  -12.3409    7.8750    0.0000 O   0  0  0  0  0  0  0  0  0  0  0  0
   -4.5466    9.3750    0.0000 O   0  0  0  0  0  0  0  0  0  0  0  0
  2  1  1  0
  3  2  1  0
  4  3  1  0
  6  5  1  0
  7  4  1  0
  8  5  1  0
  9  6  1  0
 10  7  1  0
 11  8  1  0
 12  9  1  0
 13 10  1  0
 13 12  2  3
 14 11  1  0
 15 12  1  0
M  END
>  <NAME>  (4438) 
N-HEXYL-6-HYDROXYHEXANAMIDE

>  <SYNONYMS>  (4438) 


>  <SPECTRUM TYPE>  (4438) 
MS1

>  <INSTRUMENT TYPE>  (4438) 
EI-B

>  <INSTRUMENT>  (4438) 
HITACHI RMU-6E

>  <ION MODE>  (4438) 
P

>  <INCHIKEY>  (4438) 
DNHFCFYTJSCXOI-UHFFFAOYSA-N

>  <FORMULA>  (4438) 
C12H25NO2

>  <EXACT MASS>  (4438) 
215.18852904

>  <MW>  (4438) 
215

>  <ID>  (4438) 
JP004161

>  <CONTRIBUTOR>  (4438) 
University of Tokyo Team, {Faculty of Engineering, University of Tokyo

>  <COMMENT>  (4438) 
SMILES=CCCCCCNC(=O)CCCCCO
InChI=InChI=1S/C12H25NO2/c1-2-3-4-7-10-13-12(15)9-6-5-8-11-14/h14H,2-11H2,1H3,(H,13,15)
computed SMILES=OC(=NCCCCCC)CCCCCO
accession=JP004161
date=2016.01.19 (Created 2008.10.21, modified 2011.05.06)
author=MASS SPECTROSCOPY SOC. OF JAPAN (MSSJ)
license=CC BY-NC-SA
exact mass=215.18853
ionization energy=70 eV
ion type=[M]+*
computed spectral entropy=3.7951457567016895
computed normalized entropy=0.7564150057675333
SPLASH=splash10-0536-9300000000-8b30fb08c7440ad9593a
submitter=submitter = University of Tokyo Team (Faculty of Engineering, University of Tokyo)
MoNA Rating=3.75

>  <NUM PEAKS>  (4438) 
151

>  <MASS SPECTRAL PEAKS>  (4438) 
25 0.2
26 1.8
27 26.4
28 2.1
29 42
30 99.99
31 44.8
32 0.17
33 0.1
38 0.5
39 17
40 0.34
41 95.6
42 24.8
43 98
44 6
45 10
46 1.1
47 0.4
50 0.04
51 0.8
52 0.6
53 6.6
54 0.64
55 56.6
56 20
57 26.2
58 2.5
59 8
60 13
61 0.4
62 0.03
63 0.2
64 0.2
65 1.1
66 0.08
67 11.2
68 4.8
69 79.6
70 1.36
71 7.6
72 26.4
73 75.4
74 0.39
75 0.5
76 0.3
77 0.4
78 0.03
79 8.8
80 1.3
81 1.9
82 0.23
83 4.6
84 12.8
85 20.2
86 5.32
87 38.4
88 2.4
89 0.2
94 0.04
95 1.2
96 1.9
97 44
98 1.2
99 4.2
100 37
101 35
102 1.26
103 0.8
104 0.2
105 0.2
107 0.02
108 0.3
109 1
110 0.5
111 0.07
112 4.2
113 3.1
114 38
115 5.4
116 4.6
117 0.6
118 0.2
124 0.02
125 0.6
126 9
127 11
128 3.52
129 3.7
130 1
131 0.2
132 0.06
133 0.2
134 0.2
138 0.4
139 0.04
140 5.4
141 3.7
142 1.4
143 9.6
144 11.4
145 34.4
146 2.3
147 0.02
148 0.1
149 1.7
150 0.2
151 0.01
152 0.3
153 0.2
154 15.6
155 0.36
156 48
157 4.7
158 10.4
159 0.19
160 0.4
161 0.1
166 0.1
167 0.03
168 4.2
169 1.1
170 11.4
171 0.2
172 32
173 5
174 0.5
180 0.03
181 0.2
182 1.4
183 0.4
184 0.6
185 6
186 16.6
187 2.1
188 0.01
194 0.1
195 0.2
196 1
197 0.5
198 6
199 1
200 2
201 0.04
212 0.2
213 0.4
214 2.6
215 3.2
216 41.4
217 0.5
218 0.1

>  <PREDICTED SPECTRUM>  (4438) 
26 81
27 339
28 178
29 454
30 161
31 355
32 7
33 34
36 11
37 9
38 41
39 440
40 194
41 999
42 697
43 795
44 480
45 587
46 73
47 37
50 1
51 102
52 88
53 321
54 378
55 946
56 805
57 696
58 480
59 373
60 147
61 7
65 31
67 381
68 443
69 630
70 500
71 589
72 332
73 461
74 175
79 108
80 227
81 464
82 380
83 452
84 411
85 427
86 375
87 280
88 155
93 23
94 123
95 289
96 352
97 323
98 585
99 334
100 412
101 467
102 160
108 154
109 90
110 67
111 162
112 315
113 326
114 524
115 333
116 102
117 15
125 97
126 340
127 236
128 363
129 82
130 84
131 65
140 177
141 26
142 74
143 6
144 314
145 193
152 39
154 130
156 229
157 33
158 203
168 96
169 89
170 277
171 128
184 147
185 57
186 64
196 61
197 78
198 274
214 84
215 164
216 51

$$$$

     RDKit          2D

 14 13  0  0  0  0  0  0  0  0999 V2000
    3.8971    6.7500    0.0000 C   0  0  0  0  0  0  0  0  0  0  0  0
    2.5981    7.5000    0.0000 C   0  0  0  0  0  0  0  0  0  0  0  0
    1.2990    6.7500    0.0000 C   0  0  0  0  0  0  0  0  0  0  0  0
    0.0000    7.5000    0.0000 C   0  0  0  0  0  0  0  0  0  0  0  0
   -7.7942    7.5000    0.0000 C   0  0  0  0  0  0  0  0  0  0  0  0
   -1.2990    6.7500    0.0000 C   0  0  0  0  0  0  0  0  0  0  0  0
   -9.0933    6.7500    0.0000 C   0  0  0  0  0  0  0  0  0  0  0  0
   -6.4952    6.7500    0.0000 C   0  0  0  0  0  0  0  0  0  0  0  0
   -2.5981    7.5000    0.0000 C   0  0  0  0  0  0  0  0  0  0  0  0
  -10.3923    7.5000    0.0000 C   0  0  0  0  0  0  0  0  0  0  0  0
   -5.1962    7.5000    0.0000 C   0  0  0  0  0  0  0  0  0  0  0  0
   -3.8971    6.7500    0.0000 N   0  0  0  0  0  0  0  0  0  0  0  0
  -11.6913    6.7500    0.0000 O   0  0  0  0  0  0  0  0  0  0  0  0
   -5.1962    9.0000    0.0000 O   0  0  0  0  0  0  0  0  0  0  0  0
  2  1  1  0
  3  2  1  0
  4  3  1  0
  6  4  1  0
  7  5  1  0
  8  5  1  0
  9  6  1  0
 10  7  1  0
 11  8  1  0
 12  9  1  0
 12 11  2  3
 13 10  1  0
 14 11  1  0
M  END
>  <NAME>  (4439) 
N-HEXYL-5-HYDROXYPENTANAMIDE

>  <SYNONYMS>  (4439) 


>  <SPECTRUM TYPE>  (4439) 
MS1

>  <INSTRUMENT TYPE>  (4439) 
EI-B

>  <INSTRUMENT>  (4439) 
HITACHI RMU-6E

>  <ION MODE>  (4439) 
P

>  <INCHIKEY>  (4439) 
RBXBYQAGFGAKKR-UHFFFAOYSA-N

>  <FORMULA>  (4439) 
C11H23NO2

>  <EXACT MASS>  (4439) 
201.172878976

>  <MW>  (4439) 
201

>  <ID>  (4439) 
JP004160

>  <CONTRIBUTOR>  (4439) 
University of Tokyo Team, {Faculty of Engineering, University of Tokyo

>  <COMMENT>  (4439) 
SMILES=CCCCCCNC(=O)CCCCO
InChI=InChI=1S/C11H23NO2/c1-2-3-4-6-9-12-11(14)8-5-7-10-13/h13H,2-10H2,1H3,(H,12,14)
computed SMILES=OC(=NCCCCCC)CCCCO
accession=JP004160
date=2016.01.19 (Created 2008.10.21, modified 2011.05.06)
author=MASS SPECTROSCOPY SOC. OF JAPAN (MSSJ)
license=CC BY-NC-SA
exact mass=201.17288
ionization energy=70 eV
ion type=[M]+*
computed spectral entropy=3.7303617207884905
computed normalized entropy=0.7616340821980087
SPLASH=splash10-0536-9300000000-32955c51b4bd51760aa2
submitter=submitter = University of Tokyo Team (Faculty of Engineering, University of Tokyo)
MoNA Rating=3.75

>  <NUM PEAKS>  (4439) 
134

>  <MASS SPECTRAL PEAKS>  (4439) 
25 0.2
26 1.1
27 23.2
28 1.66
29 29.8
30 99.99
31 25
32 0.1
33 0.1
36 0.3
37 0.3
38 0.07
39 14
40 3.3
41 53.2
42 1.98
43 81.4
44 53.4
45 10
46 0.13
49 0.1
50 0.4
51 0.7
52 0.07
53 4.2
54 4.4
55 77.6
56 2.8
57 29.2
58 21.2
59 13
60 0.5
61 0.2
65 0.4
66 0.3
67 0.21
68 1.7
69 5.6
70 5.8
71 0.58
72 21.2
73 21
74 2.1
75 0.01
78 0.1
79 0.6
80 0.4
81 0.11
82 3.1
83 30.4
84 10.8
85 2.06
86 29
87 18.8
88 1.7
89 0.03
94 0.3
95 0.4
96 0.7
97 0.1
98 6.2
99 5.8
100 32
101 7.4
102 10.6
103 1.2
104 0.1
108 0.01
109 0.7
110 0.5
111 0.7
112 0.98
113 18
114 13.6
115 3.9
116 0.09
117 0.1
118 0.8
124 0.5
125 0.05
126 10.2
127 8.4
128 23.8
129 0.28
130 2.7
131 29
132 3.1
133 0.02
137 0.1
138 0.3
139 0.2
140 1.9
141 6.2
142 2.5
143 14.4
144 1.2
145 4
146 0.3
153 0.1
154 0.82
155 1.5
156 29.8
157 4.6
158 3.36
159 6
160 0.8
161 0.1
162 0.01
166 0.3
167 0.2
168 2.6
169 0.04
170 11.4
171 8.2
172 15.2
173 0.23
174 0.3
181 0.2
182 1.1
183 1
184 4.6
185 0.5
186 2.8
187 0.03
188 0.1
189 0.1
197 0.3
198 0.03
199 0.3
200 1.8
201 29.4
202 1.54
203 1.8
204 0.2

>  <PREDICTED SPECTRUM>  (4439) 
15 9
26 83
27 345
28 189
29 434
30 141
31 342
32 2
33 37
38 41
39 456
40 178
41 999
42 733
43 845
44 483
45 670
46 33
51 102
52 92
53 322
54 380
55 941
56 868
57 694
58 511
59 392
60 87
65 48
67 313
68 340
69 445
70 450
71 573
72 417
73 399
74 229
79 78
80 144
81 396
82 357
83 466
84 665
85 467
86 361
87 270
88 89
93 53
94 181
95 207
96 286
97 299
98 308
99 300
100 561
101 569
102 129
103 6
110 31
111 114
112 364
113 342
114 537
115 198
116 39
124 26
125 28
126 203
127 43
128 87
129 33
130 431
131 262
138 53
139 8
140 107
142 132
143 12
144 181
154 66
155 98
156 268
157 140
170 183
171 55
172 66
183 56
184 230
200 58
201 167
202 62

$$$$

     RDKit          2D

 10 10  0  0  0  0  0  0  0  0999 V2000
   -1.1300    1.5500    0.0000 C   0  0  0  0  0  0  0  0  0  0  0  0
    0.3700    1.5500    0.0000 C   0  0  0  0  0  0  0  0  0  0  0  0
   -1.5900    0.1200    0.0000 C   0  0  0  0  0  0  0  0  0  0  0  0
   -0.3829   -2.2600    0.0000 C   0  0  0  0  0  0  0  0  0  0  0  0
    0.8400    0.1200    0.0000 C   0  0  0  0  0  0  0  0  0  0  0  0
   -1.6834   -3.0075    0.0000 C   0  0  0  0  0  0  0  0  0  0  0  0
   -0.3800   -0.7600    0.0000 N   0  0  0  0  0  0  0  0  0  0  0  0
    2.2666   -0.3436    0.0000 O   0  0  0  0  0  0  0  0  0  0  0  0
   -2.9810   -2.2549    0.0000 O   0  0  0  0  0  0  0  0  0  0  0  0
   -1.6864   -4.5075    0.0000 O   0  0  0  0  0  0  0  0  0  0  0  0
  2  1  1  0
  3  1  1  0
  5  2  1  0
  6  4  1  0
  7  3  1  0
  7  4  1  0
  7  5  1  0
  8  5  2  0
  9  6  2  0
 10  6  1  0
M  END
>  <NAME>  (4440) 
(2-OXO-1-PYRROLIDINYL)ACETIC ACID

>  <SYNONYMS>  (4440) 


>  <SPECTRUM TYPE>  (4440) 
MS1

>  <INSTRUMENT TYPE>  (4440) 
EI-B

>  <INSTRUMENT>  (4440) 
HITACHI RMU-6E

>  <ION MODE>  (4440) 
P

>  <INCHIKEY>  (4440) 
JGPIWNNFLKDTSR-UHFFFAOYSA-N

>  <FORMULA>  (4440) 
C6H9NO3

>  <EXACT MASS>  (4440) 
143.05824314799997

>  <MW>  (4440) 
143

>  <ID>  (4440) 
JP004159

>  <CONTRIBUTOR>  (4440) 
University of Tokyo Team, {Faculty of Engineering, University of Tokyo

>  <COMMENT>  (4440) 
SMILES=OC(=O)CN(C1)C(=O)CC1
InChI=InChI=1S/C6H9NO3/c8-5-2-1-3-7(5)4-6(9)10/h1-4H2,(H,9,10)
computed SMILES=O=C(O)CN1C(=O)CCC1
accession=JP004159
date=2016.01.19 (Created 2008.10.21, modified 2011.05.06)
author=MASS SPECTROSCOPY SOC. OF JAPAN (MSSJ)
license=CC BY-NC-SA
exact mass=143.05824
ionization energy=70 eV
ion type=[M]+*
computed spectral entropy=2.7966109653082167
computed normalized entropy=0.6477402813316853
SPLASH=splash10-0005-9000000000-5e4b292adb6c2b80be69
submitter=submitter = University of Tokyo Team (Faculty of Engineering, University of Tokyo)
MoNA Rating=3.75

>  <NUM PEAKS>  (4440) 
75

>  <MASS SPECTRAL PEAKS>  (4440) 
25 0.3
26 4
27 14.2
28 2.94
29 4.6
30 7.4
31 4.4
32 0.01
36 0.1
37 0.8
38 1.9
39 1.46
40 5.4
41 51.8
42 44.2
43 1.78
44 4.8
45 7.8
46 0.2
49 0.02
50 0.3
51 0.4
52 0.9
53 0.2
54 3
55 4.8
56 6
57 0.1
58 1.4
59 1.6
60 2.8
61 0.01
64 0.1
65 0.1
66 0.3
67 0.07
68 13
69 25.4
70 69.4
71 0.7
72 0.3
73 0.2
74 0.5
75 0.01
80 0.9
81 0.1
82 0.1
83 0.03
84 16.2
85 1.3
86 0.6
87 0.02
88 2.2
89 0.1
96 3
97 0.21
98 99.99
99 43.8
100 2.8
101 0.07
112 0.3
113 0.2
114 1.1
115 0.13
125 0.1
126 0.9
127 0.1
128 0.01
140 0.1
141 0.1
142 0.3
143 2.6
144 10.2
145 1
146 0.1

>  <PREDICTED SPECTRUM>  (4440) 
14 14
15 57
16 15
17 28
18 48
25 5
26 36
27 82
28 109
29 103
30 127
31 36
34 8
36 24
37 34
38 72
39 251
40 179
41 550
42 649
43 307
44 176
45 266
51 24
52 49
53 71
54 164
55 146
56 202
57 124
58 143
60 118
67 79
68 230
69 247
70 431
71 237
72 5
80 35
81 32
82 34
84 161
85 109
86 12
87 31
96 0
97 39
98 999
99 445
100 113
125 29
143 286
144 86

$$$$

     RDKit          2D

 17 16  0  0  0  0  0  0  0  0999 V2000
    5.1962    8.2500    0.0000 C   0  0  0  0  0  0  0  0  0  0  0  0
    3.8971    9.0000    0.0000 C   0  0  0  0  0  0  0  0  0  0  0  0
    2.5981    8.2500    0.0000 C   0  0  0  0  0  0  0  0  0  0  0  0
    1.2990    9.0000    0.0000 C   0  0  0  0  0  0  0  0  0  0  0  0
    0.0000    8.2500    0.0000 C   0  0  0  0  0  0  0  0  0  0  0  0
   -1.2990    9.0000    0.0000 C   0  0  0  0  0  0  0  0  0  0  0  0
  -10.3923    8.2500    0.0000 C   0  0  0  0  0  0  0  0  0  0  0  0
   -9.0933    9.0000    0.0000 C   0  0  0  0  0  0  0  0  0  0  0  0
   -2.5981    8.2500    0.0000 C   0  0  0  0  0  0  0  0  0  0  0  0
  -11.6913    9.0000    0.0000 C   0  0  0  0  0  0  0  0  0  0  0  0
   -7.7942    8.2500    0.0000 C   0  0  0  0  0  0  0  0  0  0  0  0
   -3.8971    9.0000    0.0000 C   0  0  0  0  0  0  0  0  0  0  0  0
  -12.9904    8.2500    0.0000 C   0  0  0  0  0  0  0  0  0  0  0  0
   -6.4952    9.0000    0.0000 C   0  0  0  0  0  0  0  0  0  0  0  0
   -5.1962    8.2500    0.0000 N   0  0  0  0  0  0  0  0  0  0  0  0
  -14.2894    9.0000    0.0000 O   0  0  0  0  0  0  0  0  0  0  0  0
   -6.4952   10.5000    0.0000 O   0  0  0  0  0  0  0  0  0  0  0  0
  2  1  1  0
  3  2  1  0
  4  3  1  0
  5  4  1  0
  6  5  1  0
  8  7  1  0
  9  6  1  0
 10  7  1  0
 11  8  1  0
 12  9  1  0
 13 10  1  0
 14 11  1  0
 15 12  1  0
 15 14  2  3
 16 13  1  0
 17 14  1  0
M  END
>  <NAME>  (4441) 
6-HYDROXY-N-OCTYLHEXANAMIDE

>  <SYNONYMS>  (4441) 


>  <SPECTRUM TYPE>  (4441) 
MS1

>  <INSTRUMENT TYPE>  (4441) 
EI-B

>  <INSTRUMENT>  (4441) 
HITACHI RMU-6E

>  <ION MODE>  (4441) 
P

>  <INCHIKEY>  (4441) 
CZALATPPVHTDBF-UHFFFAOYSA-N

>  <FORMULA>  (4441) 
C14H29NO2

>  <EXACT MASS>  (4441) 
243.219829168

>  <MW>  (4441) 
243

>  <ID>  (4441) 
JP004158

>  <CONTRIBUTOR>  (4441) 
University of Tokyo Team, {Faculty of Engineering, University of Tokyo

>  <COMMENT>  (4441) 
SMILES=CCCCCCCCNC(=O)CCCCCO
InChI=InChI=1S/C14H29NO2/c1-2-3-4-5-6-9-12-15-14(17)11-8-7-10-13-16/h16H,2-13H2,1H3,(H,15,17)
computed SMILES=OC(=NCCCCCCCC)CCCCCO
accession=JP004158
date=2016.01.19 (Created 2008.10.21, modified 2011.05.06)
author=MASS SPECTROSCOPY SOC. OF JAPAN (MSSJ)
license=CC BY-NC-SA
exact mass=243.21983
ionization energy=70 eV
ion type=[M]+*
computed spectral entropy=3.8978655910118705
computed normalized entropy=0.7768882178767047
SPLASH=splash10-007o-9510000000-0d831b1845a21dcd6e95
submitter=submitter = University of Tokyo Team (Faculty of Engineering, University of Tokyo)
MoNA Rating=3.75

>  <NUM PEAKS>  (4441) 
151

>  <MASS SPECTRAL PEAKS>  (4441) 
26 1.1
27 20.8
28 14
29 4.2
30 95.2
31 32
32 1
38 0.03
39 16
40 3.1
41 97.2
42 2.28
43 76.8
44 63.2
45 9.6
46 0.1
50 0.1
51 0.6
52 4
53 0.51
54 6.1
55 60.8
56 18
57 4.84
58 26
59 6.7
60 14
61 0.02
65 0.9
66 0.6
67 12
68 0.48
69 99.99
70 17.4
71 26.4
72 3.2
73 85.2
74 5
75 0.4
76 0.04
77 0.4
78 0.3
79 9.2
80 0.14
81 2
82 2.1
83 5.4
84 1.38
85 6.1
86 53.2
87 36.8
88 0.2
89 0.2
93 0.3
94 0.3
95 0.1
96 1.8
97 46.8
98 12
99 0.43
100 50
101 35.6
102 3
103 0.04
108 0.1
109 0.6
110 0.8
111 0.07
112 5
113 2.6
114 52.8
115 5.92
116 5
117 0.8
118 0.1
123 0.02
124 0.3
125 0.5
126 5.5
127 1.28
128 30.4
129 10
130 10.4
131 0.09
132 1
138 0.4
139 0.5
140 0.61
141 3.7
142 16.4
143 4.1
144 0.34
145 42
146 3.5
147 0.3
148 0.01
149 0.6
153 0.2
154 14
155 0.38
156 34
157 4.3
158 18
159 0.35
160 0.3
167 0.1
168 5.3
169 0.25
170 2.4
171 77.6
172 36
173 0.67
174 0.6
175 0.1
181 0.1
182 0.41
183 1.6
184 58.4
185 7
186 2.2
187 4
188 0.2
196 4
197 0.07
198 12
199 3.1
200 13
201 0.44
202 0.7
210 1.9
211 0.3
212 0.84
213 5.6
214 13
215 2.5
216 0.13
217 0.2
224 1
225 4.1
226 0.6
227 1.7
228 4.5
229 0.8
230 0.02
241 0.8
242 0.4
243 38
244 7.48
245 14.8
246 1.3
247 0.1

>  <PREDICTED SPECTRUM>  (4441) 
18 3
26 78
27 331
28 181
29 465
30 212
31 344
32 3
33 30
36 18
37 0
38 27
39 392
40 188
41 999
42 616
43 799
44 488
45 478
46 84
47 13
50 17
51 91
52 80
53 282
54 359
55 936
56 667
57 714
58 405
59 334
60 174
61 37
63 12
65 104
66 56
67 478
68 470
69 765
70 479
71 554
72 311
73 418
74 259
75 109
76 12
77 42
78 43
79 164
80 206
81 498
82 427
83 485
84 385
85 338
86 328
87 239
88 165
89 61
93 136
94 156
95 460
96 390
97 426
98 326
99 342
100 310
101 389
102 168
103 46
107 27
108 140
109 230
110 216
111 111
112 289
113 264
114 396
115 274
116 226
117 77
122 24
123 40
124 113
125 92
126 426
127 281
128 333
129 209
130 215
131 40
136 129
137 37
138 70
139 114
140 204
141 186
142 391
143 248
144 129
145 88
152 0
153 84
154 220
155 186
156 383
157 58
158 82
159 25
168 143
170 82
171 30
172 184
173 84
182 103
184 135
185 84
186 126
196 59
197 73
198 307
199 170
200 1
212 112
213 70
214 41
224 74
225 85
226 196
228 2
242 43
243 113
244 6

$$$$

     RDKit          2D

 18 17  0  0  0  0  0  0  0  0999 V2000
    5.1962    8.2500    0.0000 C   0  0  0  0  0  0  0  0  0  0  0  0
  -14.2894    9.0000    0.0000 C   0  0  0  0  0  0  0  0  0  0  0  0
  -10.3923    6.7500    0.0000 C   0  0  0  0  0  0  0  0  0  0  0  0
    3.8971    9.0000    0.0000 C   0  0  0  0  0  0  0  0  0  0  0  0
  -12.9904    8.2500    0.0000 C   0  0  0  0  0  0  0  0  0  0  0  0
    2.5981    8.2500    0.0000 C   0  0  0  0  0  0  0  0  0  0  0  0
    1.2990    9.0000    0.0000 C   0  0  0  0  0  0  0  0  0  0  0  0
    0.0000    8.2500    0.0000 C   0  0  0  0  0  0  0  0  0  0  0  0
   -1.2990    9.0000    0.0000 C   0  0  0  0  0  0  0  0  0  0  0  0
   -2.5981    8.2500    0.0000 C   0  0  0  0  0  0  0  0  0  0  0  0
   -3.8971    9.0000    0.0000 C   0  0  0  0  0  0  0  0  0  0  0  0
   -5.1962    8.2500    0.0000 C   0  0  0  0  0  0  0  0  0  0  0  0
   -6.4952    9.0000    0.0000 C   0  0  0  0  0  0  0  0  0  0  0  0
   -7.7942    8.2500    0.0000 C   0  0  0  0  0  0  0  0  0  0  0  0
   -9.0933    9.0000    0.0000 C   0  0  0  0  0  0  0  0  0  0  0  0
  -11.6913    9.0000    0.0000 C   0  0  0  0  0  0  0  0  0  0  0  0
  -10.3923    8.2500    0.0000 N   0  0  0  0  0  0  0  0  0  0  0  0
  -11.6913   10.5000    0.0000 O   0  0  0  0  0  0  0  0  0  0  0  0
  4  1  1  0
  5  2  1  0
  6  4  1  0
  7  6  1  0
  8  7  1  0
  9  8  1  0
 10  9  1  0
 11 10  1  0
 12 11  1  0
 13 12  1  0
 14 13  1  0
 15 14  1  0
 16  5  1  0
 17  3  1  0
 17 15  1  0
 17 16  1  0
 18 16  2  0
M  END
>  <NAME>  (4442) 
N-DODECYL-N-METHYLPROPIONAMIDE

>  <SYNONYMS>  (4442) 


>  <SPECTRUM TYPE>  (4442) 
MS1

>  <INSTRUMENT TYPE>  (4442) 
EI-B

>  <INSTRUMENT>  (4442) 
HITACHI RMU-6E

>  <ION MODE>  (4442) 
P

>  <INCHIKEY>  (4442) 
GQQHNTXKLBDYQN-UHFFFAOYSA-N

>  <FORMULA>  (4442) 
C16H33NO

>  <EXACT MASS>  (4442) 
255.25621467599998

>  <MW>  (4442) 
255

>  <ID>  (4442) 
JP004155

>  <CONTRIBUTOR>  (4442) 
University of Tokyo Team, {Faculty of Engineering, University of Tokyo

>  <COMMENT>  (4442) 
SMILES=CCCCCCCCCCCCN(C)C(=O)CC
InChI=InChI=1S/C16H33NO/c1-4-6-7-8-9-10-11-12-13-14-15-17(3)16(18)5-2/h4-15H2,1-3H3
computed SMILES=O=C(N(C)CCCCCCCCCCCC)CC
accession=JP004155
date=2016.01.19 (Created 2008.10.21, modified 2011.05.06)
author=MASS SPECTROSCOPY SOC. OF JAPAN (MSSJ)
license=CC BY-NC-SA
exact mass=255.25621
ionization energy=70 eV
ion type=[M]+*
computed spectral entropy=2.8423892818555214
computed normalized entropy=0.621326526465156
SPLASH=splash10-0006-9320000000-0212c2195961e40c74b0
submitter=submitter = University of Tokyo Team (Faculty of Engineering, University of Tokyo)
MoNA Rating=3.75

>  <NUM PEAKS>  (4442) 
97

>  <MASS SPECTRAL PEAKS>  (4442) 
26 0.3
27 4
28 2.4
29 1.88
30 2.5
31 0.2
32 1.3
39 0.19
40 0.5
41 13
42 7
43 1.26
44 99.99
45 4.4
46 0.2
51 0.01
52 0.1
53 0.8
54 0.6
55 0.82
56 2.6
57 19.6
58 9.4
59 0.09
60 0.1
65 0.2
66 0.1
67 0.08
68 0.6
69 2.7
70 2.9
71 0.19
72 1.3
73 0.3
74 0.1
77 0.02
78 0.1
79 0.2
80 0.1
81 0.03
82 0.2
83 0.7
84 1
85 0.07
86 1.5
87 5.2
88 5.6
89 0.03
95 0.1
96 0.1
97 0.3
98 0.08
99 0.2
100 33
101 22.4
102 0.16
103 0.1
111 0.1
112 0.4
113 0.03
114 8.4
115 2.5
116 0.2
126 0.03
127 0.1
128 6.2
129 1.8
130 0.02
140 0.2
141 0.2
142 3.3
143 0.04
154 0.1
155 0.1
156 2.2
157 0.04
169 0.1
170 2.8
171 0.4
184 0.22
185 0.4
196 0.1
197 0.1
198 0.37
199 0.8
200 0.3
212 1
213 0.02
226 40
227 6.4
228 0.5
240 0.06
241 0.1
254 0.6
255 5.8
256 0.11
257 0.2

>  <PREDICTED SPECTRUM>  (4442) 
18 5
26 42
27 233
28 117
29 471
30 178
31 36
39 209
40 60
41 522
42 302
43 518
44 971
45 250
46 30
51 47
52 6
53 102
54 135
55 393
56 271
57 999
58 605
59 100
60 18
67 109
68 7
69 257
70 79
71 301
72 573
73 166
74 55
79 92
81 41
82 70
83 21
84 71
85 91
86 352
87 156
88 106
98 34
100 576
101 248
102 84
114 327
115 138
126 94
128 261
129 21
140 80
142 226
154 6
156 83
169 19
170 406
171 91
183 3
184 20
198 372
199 186
226 743
227 282
228 61
240 16
254 34
255 278
256 99

$$$$

     RDKit          2D

 19 21  0  0  0  0  0  0  0  0999 V2000
   -6.9257   -5.1854    0.0000 C   0  0  0  0  0  0  0  0  0  0  0  0
   -6.9133   -3.6854    0.0000 C   0  0  0  0  0  0  0  0  0  0  0  0
   -5.6319   -5.9461    0.0000 C   0  0  0  0  0  0  0  0  0  0  0  0
   -0.4268   -5.9943    0.0000 C   0  0  0  0  0  0  0  0  0  0  0  0
    3.8106   -1.1888    0.0000 C   0  0  0  0  0  0  0  0  0  0  0  0
    0.8770   -5.2408    0.0000 C   0  0  0  0  0  0  0  0  0  0  0  0
   -5.6072   -2.9462    0.0000 C   0  0  0  0  0  0  0  0  0  0  0  0
   -4.3258   -5.2068    0.0000 C   0  0  0  0  0  0  0  0  0  0  0  0
   -1.7229   -5.2278    0.0000 C   0  0  0  0  0  0  0  0  0  0  0  0
    4.5606   -2.4879    0.0000 C   0  0  0  0  0  0  0  0  0  0  0  0
    2.3421   -1.5055    0.0000 C   0  0  0  0  0  0  0  0  0  0  0  0
   -0.4117   -2.9943    0.0000 C   0  0  0  0  0  0  0  0  0  0  0  0
    0.8845   -3.7408    0.0000 C   0  0  0  0  0  0  0  0  0  0  0  0
   -4.3134   -3.7068    0.0000 C   0  0  0  0  0  0  0  0  0  0  0  0
   -1.7154   -3.7278    0.0000 C   0  0  0  0  0  0  0  0  0  0  0  0
    3.5571   -3.6099    0.0000 C   0  0  0  0  0  0  0  0  0  0  0  0
    2.1850   -2.9934    0.0000 N   0  0  0  0  0  0  0  0  0  0  0  0
    3.8690   -5.0771    0.0000 O   0  0  0  0  0  0  0  0  0  0  0  0
   -3.0084   -2.9673    0.0000 O   0  0  0  0  0  0  0  0  0  0  0  0
  2  1  2  0
  3  1  1  0
  6  4  2  0
  7  2  1  0
  8  3  2  0
  9  4  1  0
 10  5  1  0
 11  5  1  0
 13  6  1  0
 13 12  2  0
 14  7  2  0
 14  8  1  0
 15  9  2  0
 15 12  1  0
 16 10  1  0
 17 11  1  0
 17 13  1  0
 17 16  1  0
 18 16  2  0
 19 14  1  0
 19 15  1  0
M  END
>  <NAME>  (4443) 
N-(META-PHENOXYPHENYL)-2-PYRROLIDONE

>  <SYNONYMS>  (4443) 


>  <SPECTRUM TYPE>  (4443) 
MS1

>  <INSTRUMENT TYPE>  (4443) 
EI-B

>  <INSTRUMENT>  (4443) 
HITACHI RMU-6E

>  <ION MODE>  (4443) 
P

>  <INCHIKEY>  (4443) 
RFCQFBDBPGMUDP-UHFFFAOYSA-N

>  <FORMULA>  (4443) 
C16H15NO2

>  <EXACT MASS>  (4443) 
253.11027872

>  <MW>  (4443) 
253

>  <ID>  (4443) 
JP004154

>  <CONTRIBUTOR>  (4443) 
University of Tokyo Team, {Faculty of Engineering, University of Tokyo

>  <COMMENT>  (4443) 
SMILES=c(c3)ccc(c3)Oc(c2)cc(cc2)N(C1)C(=O)CC1
InChI=InChI=1S/C16H15NO2/c18-16-10-5-11-17(16)13-6-4-9-15(12-13)19-14-7-2-1-3-8-14/h1-4,6-9,12H,5,10-11H2
computed SMILES=O=C1N(C=2C=CC=C(OC=3C=CC=CC3)C2)CCC1
accession=JP004154
date=2016.01.19 (Created 2008.10.21, modified 2011.05.06)
author=MASS SPECTROSCOPY SOC. OF JAPAN (MSSJ)
license=CC BY-NC-SA
exact mass=253.11028
ionization energy=70 eV
ion type=[M]+*
computed spectral entropy=2.910579901396167
computed normalized entropy=0.5763688899679039
SPLASH=splash10-0udj-3960000000-62c4f723a2f0844b3ac8
submitter=submitter = University of Tokyo Team (Faculty of Engineering, University of Tokyo)
MoNA Rating=3.75

>  <NUM PEAKS>  (4443) 
156

>  <MASS SPECTRAL PEAKS>  (4443) 
26 0.3
27 1.5
28 2.8
29 0.06
30 0.3
31 0.1
32 0.4
38 0.07
39 9.2
40 0.8
41 3.8
42 0.11
43 0.8
44 0.2
45 0.2
50 0.13
51 11.8
52 1.1
53 0.7
54 0.02
55 1.8
56 0.6
57 0.5
61 0.01
62 0.4
63 2
64 2.5
65 0.31
66 0.8
67 0.3
68 0.4
69 0.08
70 0.4
71 0.3
72 0.2
73 0.01
74 0.3
75 0.9
76 1.7
77 1.8
78 1.7
79 0.7
80 0.5
81 0.02
82 0.2
86 0.2
87 0.2
88 0.01
89 0.6
90 1.1
91 1.6
92 0.22
93 1
94 0.6
95 0.4
96 0.01
97 0.4
98 0.5
99 0.6
101 0.02
102 0.4
103 0.5
104 1.8
105 0.25
106 0.5
107 0.3
108 0.2
109 0.04
110 0.1
111 0.1
112 0.3
113 0.03
114 0.2
115 3.8
116 0.7
117 0.1
118 0.6
119 0.4
120 0.5
121 0.04
122 0.4
123 0.2
124 0.2
125 0.02
126 0.2
127 0.7
128 0.9
129 0.07
130 1.2
131 0.4
132 1
133 0.02
134 0.1
135 0.1
137 0.1
138 0.01
139 1.5
140 0.8
141 13
142 0.11
143 0.4
144 0.1
145 0.1
146 0.02
147 0.2
148 0.1
149 1.3
150 0.03
151 0.2
152 0.4
153 0.6
154 0.1
155 1
156 1.7
157 0.9
158 0.01
159 0.1
160 0.4
164 0.1
165 0.02
166 0.5
167 0.6
168 11.2
169 0.22
170 1.3
171 0.2
177 0.3
178 0.03
179 0.1
180 0.4
181 0.4
182 0.08
183 0.9
184 1
185 3.5
186 0.06
187 0.1
195 0.2
196 1.6
197 0.13
198 99.99
199 14
200 0.7
210 0.05
211 0.5
212 0.1
223 0.3
224 0.17
225 2
226 0.3
227 0.1
251 0.08
252 26.4
253 79.2
254 16.8
255 1

>  <PREDICTED SPECTRUM>  (4443) 
27 38
29 37
38 30
39 234
40 89
41 158
42 98
43 105
44 84
45 8
50 151
51 271
52 141
53 116
54 26
55 165
56 26
57 74
58 43
62 48
63 178
64 141
65 223
66 61
69 66
71 39
74 45
75 57
76 135
77 341
78 149
79 57
80 57
83 13
86 8
89 121
90 69
91 122
92 90
93 218
94 49
99 2
101 6
102 67
103 24
104 130
105 65
106 53
108 38
110 20
111 31
112 36
113 11
114 58
115 183
116 132
117 178
118 50
120 50
126 42
127 108
128 85
130 95
131 18
132 79
133 1
136 12
139 47
140 123
141 93
142 78
143 33
148 23
152 10
153 92
154 110
155 41
156 26
160 1
161 30
163 25
165 33
166 39
167 82
168 168
169 141
170 97
176 4
181 57
182 57
183 25
185 35
196 119
197 29
198 999
199 385
200 156
208 29
209 2
210 81
211 10
212 20
224 132
225 95
236 12
238 47
239 0
251 12
252 255
253 787
254 312
255 110

$$$$

     RDKit          2D

 19 21  0  0  0  0  0  0  0  0999 V2000
    2.2666    0.7992    0.0000 C   0  0  0  0  0  0  0  0  0  0  0  0
    2.2657   -0.7008    0.0000 C   0  0  0  0  0  0  0  0  0  0  0  0
    0.9670    1.5500    0.0000 C   0  0  0  0  0  0  0  0  0  0  0  0
   -5.5273    0.8074    0.0000 C   0  0  0  0  0  0  0  0  0  0  0  0
   -4.2312    1.5469    0.0000 C   0  0  0  0  0  0  0  0  0  0  0  0
   -3.4864   -5.2562    0.0000 C   0  0  0  0  0  0  0  0  0  0  0  0
    0.9652   -1.4500    0.0000 C   0  0  0  0  0  0  0  0  0  0  0  0
   -0.3334    0.8008    0.0000 C   0  0  0  0  0  0  0  0  0  0  0  0
   -5.5310   -0.6934    0.0000 C   0  0  0  0  0  0  0  0  0  0  0  0
   -2.9338    0.7941    0.0000 C   0  0  0  0  0  0  0  0  0  0  0  0
   -4.9864   -5.2562    0.0000 C   0  0  0  0  0  0  0  0  0  0  0  0
   -3.0264   -3.8262    0.0000 C   0  0  0  0  0  0  0  0  0  0  0  0
   -0.3343   -0.6992    0.0000 C   0  0  0  0  0  0  0  0  0  0  0  0
   -4.2335   -1.4462    0.0000 C   0  0  0  0  0  0  0  0  0  0  0  0
   -2.9324   -0.6981    0.0000 C   0  0  0  0  0  0  0  0  0  0  0  0
   -5.4564   -3.8262    0.0000 C   0  0  0  0  0  0  0  0  0  0  0  0
   -4.2364   -2.9462    0.0000 N   0  0  0  0  0  0  0  0  0  0  0  0
   -6.8830   -3.3626    0.0000 O   0  0  0  0  0  0  0  0  0  0  0  0
   -1.6337   -1.4486    0.0000 O   0  0  0  0  0  0  0  0  0  0  0  0
  2  1  2  0
  3  1  1  0
  5  4  2  0
  7  2  1  0
  8  3  2  0
  9  4  1  0
 10  5  1  0
 11  6  1  0
 12  6  1  0
 13  7  2  0
 13  8  1  0
 14  9  2  0
 15 10  2  0
 15 14  1  0
 16 11  1  0
 17 12  1  0
 17 14  1  0
 17 16  1  0
 18 16  2  0
 19 13  1  0
 19 15  1  0
M  END
>  <NAME>  (4444) 
N-(ORTHO-PHENOXYPHENYL)-2-PYRROLIDONE

>  <SYNONYMS>  (4444) 


>  <SPECTRUM TYPE>  (4444) 
MS1

>  <INSTRUMENT TYPE>  (4444) 
EI-B

>  <INSTRUMENT>  (4444) 
HITACHI RMU-6E

>  <ION MODE>  (4444) 
P

>  <INCHIKEY>  (4444) 
BZQZFICCIHXODN-UHFFFAOYSA-N

>  <FORMULA>  (4444) 
C16H15NO2

>  <EXACT MASS>  (4444) 
253.11027872

>  <MW>  (4444) 
253

>  <ID>  (4444) 
JP004153

>  <CONTRIBUTOR>  (4444) 
University of Tokyo Team, {Faculty of Engineering, University of Tokyo

>  <COMMENT>  (4444) 
SMILES=c(c3)ccc(c3)Oc(c2)c(ccc2)N(C1)C(=O)CC1
InChI=InChI=1S/C16H15NO2/c18-16-11-6-12-17(16)14-9-4-5-10-15(14)19-13-7-2-1-3-8-13/h1-5,7-10H,6,11-12H2
computed SMILES=O=C1N(C=2C=CC=CC2OC=3C=CC=CC3)CCC1
accession=JP004153
date=2016.01.19 (Created 2008.10.21, modified 2011.05.06)
author=MASS SPECTROSCOPY SOC. OF JAPAN (MSSJ)
license=CC BY-NC-SA
exact mass=253.11028
ionization energy=70 eV
ion type=[M]+*
computed spectral entropy=3.52201806844288
computed normalized entropy=0.6849958247440334
SPLASH=splash10-03di-4900000000-af2627924e622b5d2378
submitter=submitter = University of Tokyo Team (Faculty of Engineering, University of Tokyo)
MoNA Rating=3.75

>  <NUM PEAKS>  (4444) 
171

>  <MASS SPECTRAL PEAKS>  (4444) 
26 0.6
27 3.6
28 8.8
29 0.08
30 0.4
32 1.4
37 0.3
38 0.1
39 7
40 0.8
41 5
42 0.21
43 0.3
44 0.3
45 0.1
50 0.23
51 12.4
52 2.9
53 1.2
54 0.05
55 3.4
56 0.7
57 0.3
61 0.01
62 0.4
63 2.7
64 2.9
65 0.88
66 1.5
67 0.4
68 0.4
69 0.1
70 0.3
71 0.2
74 0.8
75 0.08
76 1.7
77 17
78 4.2
79 0.19
80 2.3
81 0.3
84 0.2
85 0.02
86 0.3
87 0.1
88 0.2
89 0.07
90 1.1
91 19.4
92 4.4
93 0.41
94 1
95 0.4
96 0.1
101 0.04
102 0.8
103 1.1
104 5.1
105 0.16
106 1.4
107 0.3
108 2.1
109 0.47
110 0.4
113 0.2
114 0.4
115 0.4
116 0.9
117 4.2
118 2.8
119 0.09
120 10.4
121 0.8
122 0.5
126 0.03
127 1.3
128 1.6
129 0.9
130 0.4
131 1.4
132 4
133 1.3
134 0.04
135 0.7
136 4.2
137 0.4
138 0.01
139 2.3
140 0.9
141 2.5
142 0.09
143 0.4
144 1.6
145 0.6
146 0.08
147 0.5
148 0.9
149 0.2
150 0.01
151 0.3
152 0.9
153 1.3
154 0.22
155 1.4
156 1
157 0.3
158 0.06
159 0.5
160 99.99
161 13.4
162 0.09
163 0.1
164 0.1
165 0.4
166 0.07
167 2.3
168 3.6
169 1.3
170 0.2
171 0.3
172 0.1
173 0.1
174 0.02
175 0.1
176 0.6
177 0.2
178 0.02
179 0.2
180 2.2
181 1.5
182 0.08
183 1.2
184 0.7
185 5.4
187 0.1
188 0.1
189 0.08
192 0.1
193 0.01
194 0.3
195 0.3
196 6.4
197 0.15
198 31.8
199 5.6
200 0.4
204 0.02
205 0.1
206 0.1
207 0.1
208 0.03
209 0.3
210 0.1
211 0.6
212 0.01
220 0.3
221 0.3
222 0.3
223 0.01
224 1.2
225 0.4
235 0.1
236 0.04
237 0.1
251 0.1
252 2.7
253 5.6
254 9.2
255 1
256 0.1

>  <PREDICTED SPECTRUM>  (4444) 
17 9
26 44
27 165
28 95
29 123
33 14
36 0
37 46
38 130
39 454
40 182
41 244
42 137
43 118
44 68
45 0
50 257
51 446
52 229
53 181
54 92
55 171
56 34
57 84
62 110
63 343
64 279
65 404
66 150
67 41
68 33
69 13
74 64
75 145
76 243
77 614
78 288
79 120
80 74
84 16
86 17
89 188
90 164
91 221
92 157
93 344
94 180
95 78
96 4
102 123
103 188
104 318
105 188
106 122
107 65
108 62
111 14
112 53
113 4
114 65
115 255
116 196
117 208
118 186
119 102
120 189
121 127
122 46
126 55
127 96
128 192
129 48
130 175
131 238
132 373
133 217
139 71
140 158
141 153
142 30
143 61
145 71
146 255
147 53
148 201
149 76
150 27
152 43
153 116
154 176
155 118
156 47
157 20
158 2
159 81
160 385
161 290
166 35
167 107
168 204
169 228
170 195
171 42
176 72
177 60
180 12
181 82
182 105
183 84
184 134
185 205
191 4
192 47
194 128
195 87
196 181
197 189
198 586
199 304
200 63
206 29
208 142
209 72
210 205
211 59
212 104
213 34
222 118
223 28
224 274
225 194
226 37
234 40
235 38
236 249
237 126
238 181
239 57
250 7
251 52
252 286
253 999
254 396
255 118

$$$$

     RDKit          2D

 19 21  0  0  0  0  0  0  0  0999 V2000
   -6.8999   -3.7113    0.0000 C   0  0  0  0  0  0  0  0  0  0  0  0
   -5.5993   -2.9641    0.0000 C   0  0  0  0  0  0  0  0  0  0  0  0
   -6.9026   -5.2122    0.0000 C   0  0  0  0  0  0  0  0  0  0  0  0
    3.8232   -1.1771    0.0000 C   0  0  0  0  0  0  0  0  0  0  0  0
   -4.3013   -3.7177    0.0000 C   0  0  0  0  0  0  0  0  0  0  0  0
   -5.6047   -5.9658    0.0000 C   0  0  0  0  0  0  0  0  0  0  0  0
    4.5732   -2.4762    0.0000 C   0  0  0  0  0  0  0  0  0  0  0  0
    0.8940   -5.2291    0.0000 C   0  0  0  0  0  0  0  0  0  0  0  0
   -0.4012   -2.9763    0.0000 C   0  0  0  0  0  0  0  0  0  0  0  0
   -0.4075   -5.9763    0.0000 C   0  0  0  0  0  0  0  0  0  0  0  0
   -1.7028   -3.7236    0.0000 C   0  0  0  0  0  0  0  0  0  0  0  0
    2.3548   -1.4937    0.0000 C   0  0  0  0  0  0  0  0  0  0  0  0
    0.8972   -3.7291    0.0000 C   0  0  0  0  0  0  0  0  0  0  0  0
   -4.3040   -5.2185    0.0000 C   0  0  0  0  0  0  0  0  0  0  0  0
   -1.7060   -5.2236    0.0000 C   0  0  0  0  0  0  0  0  0  0  0  0
    3.5698   -3.5982    0.0000 C   0  0  0  0  0  0  0  0  0  0  0  0
    2.1977   -2.9816    0.0000 N   0  0  0  0  0  0  0  0  0  0  0  0
    3.8816   -5.0654    0.0000 O   0  0  0  0  0  0  0  0  0  0  0  0
   -3.0065   -5.9710    0.0000 O   0  0  0  0  0  0  0  0  0  0  0  0
  2  1  2  0
  3  1  1  0
  5  2  1  0
  6  3  2  0
  7  4  1  0
 10  8  2  0
 11  9  1  0
 12  4  1  0
 13  8  1  0
 13  9  2  0
 14  5  2  0
 14  6  1  0
 15 10  1  0
 15 11  2  0
 16  7  1  0
 17 12  1  0
 17 13  1  0
 17 16  1  0
 18 16  2  0
 19 14  1  0
 19 15  1  0
M  END
>  <NAME>  (4445) 
N-(PARA-PHENOXYPHENYL)-2-PYRROLIDONE

>  <SYNONYMS>  (4445) 


>  <SPECTRUM TYPE>  (4445) 
MS1

>  <INSTRUMENT TYPE>  (4445) 
EI-B

>  <INSTRUMENT>  (4445) 
HITACHI RMU-6E

>  <ION MODE>  (4445) 
P

>  <INCHIKEY>  (4445) 
LVHLULNITPAAAG-UHFFFAOYSA-N

>  <FORMULA>  (4445) 
C16H15NO2

>  <EXACT MASS>  (4445) 
253.11027872

>  <MW>  (4445) 
253

>  <ID>  (4445) 
JP004152

>  <CONTRIBUTOR>  (4445) 
University of Tokyo Team, {Faculty of Engineering, University of Tokyo

>  <COMMENT>  (4445) 
SMILES=c(c3)ccc(c3)Oc(c2)ccc(c2)N(C1)C(=O)CC1
InChI=InChI=1S/C16H15NO2/c18-16-7-4-12-17(16)13-8-10-15(11-9-13)19-14-5-2-1-3-6-14/h1-3,5-6,8-11H,4,7,12H2
computed SMILES=O=C1N(C2=CC=C(OC=3C=CC=CC3)C=C2)CCC1
accession=JP004152
date=2016.01.19 (Created 2008.10.21, modified 2011.05.06)
author=MASS SPECTROSCOPY SOC. OF JAPAN (MSSJ)
license=CC BY-NC-SA
exact mass=253.11028
ionization energy=70 eV
ion type=[M]+*
computed spectral entropy=2.9276343749497404
computed normalized entropy=0.5782872925546415
SPLASH=splash10-0f6t-3950000000-53e0c764e4bc6837d2c3
submitter=submitter = University of Tokyo Team (Faculty of Engineering, University of Tokyo)
MoNA Rating=3.75

>  <NUM PEAKS>  (4445) 
158

>  <MASS SPECTRAL PEAKS>  (4445) 
25 0.2
26 0.6
27 2.5
28 0.56
29 1.8
30 0.5
31 0.6
32 0.1
36 0.5
37 0.1
38 1
39 0.46
40 0.6
41 7.2
42 1.1
43 0.23
44 0.4
45 0.3
50 1.5
51 0.68
52 1.9
53 1
54 0.2
55 0.31
56 1.3
57 2
58 0.2
61 0.02
62 0.4
63 2.6
64 2
65 0.5
66 0.8
67 0.9
68 0.3
69 0.34
70 0.9
71 0.9
73 0.3
74 0.05
75 0.8
76 2
77 11
78 0.25
79 0.8
80 0.8
81 0.2
82 0.01
83 0.9
84 0.5
85 0.5
86 0.02
87 0.2
88 0.4
89 0.6
90 0.12
91 2
92 1.9
93 1.7
94 0.05
95 0.5
96 0.4
97 0.8
98 0.06
99 1
100 0.1
101 0.2
102 0.06
103 1.1
104 2.4
105 6
106 0.12
107 0.5
108 0.6
109 0.3
112 0.07
113 0.4
114 0.4
115 4
116 0.09
117 1.1
118 0.5
119 0.4
120 0.46
121 1.3
122 0.4
125 0.4
126 0.04
127 0.7
128 1.4
129 0.5
130 0.21
131 0.9
132 1
133 0.3
134 0.04
135 0.6
136 0.2
137 0.2
138 0.02
139 1.3
140 0.7
150 0.5
151 0.04
152 0.5
153 1.3
154 0.9
155 0.3
156 1
157 0.5
158 0.3
159 0.08
160 0.7
165 0.5
166 0.7
167 0.08
168 1.5
169 1.9
170 2.6
171 0.02
175 0.2
176 1.1
177 0.3
178 0.03
179 0.2
180 0.4
181 0.4
182 0.06
183 0.8
184 0.7
185 1.2
186 0.06
194 0.2
195 0.4
196 2
197 0.3
198 99.99
199 16.4
200 1.5
204 0.01
205 0.5
206 0.2
210 0.3
211 0.1
212 0.3
213 0.3
219 0.4
223 0.09
224 0.7
225 1
226 0.3
250 0.01
251 0.1
252 1.9
253 88
254 1.68
255 2
256 0.2

>  <PREDICTED SPECTRUM>  (4445) 
27 16
38 20
39 194
40 97
41 236
42 98
43 93
44 65
45 9
50 140
51 231
52 142
53 91
54 20
55 175
56 19
57 37
58 46
62 49
63 175
64 135
65 178
66 30
67 17
69 54
71 7
74 30
75 62
76 137
77 278
78 135
79 82
80 66
81 5
83 29
86 3
89 78
90 76
91 141
92 126
93 140
94 13
95 12
102 49
103 39
104 120
105 74
106 57
108 50
109 11
112 17
114 55
115 121
116 123
117 208
118 50
120 85
121 30
122 11
126 6
127 82
128 36
129 2
130 149
131 35
132 117
133 56
140 100
141 65
142 46
143 54
144 38
145 6
146 50
148 31
153 41
154 128
155 75
156 36
163 23
165 39
166 6
167 45
168 144
169 135
170 114
175 5
181 48
182 52
183 21
185 39
194 39
195 4
196 123
197 75
198 999
199 353
200 125
208 13
209 7
210 81
211 58
212 34
224 165
225 95
236 11
238 29
252 135
253 821
254 315
255 110

$$$$

     RDKit          2D

 16 16  0  0  0  0  0  0  0  0999 V2000
   -5.9137    4.8543    0.0000 C   0  0  0  0  0  0  0  0  0  0  0  0
   -4.6147    4.1043    0.0000 C   0  0  0  0  0  0  0  0  0  0  0  0
   -3.3156    4.8543    0.0000 C   0  0  0  0  0  0  0  0  0  0  0  0
   -2.0166    4.1043    0.0000 C   0  0  0  0  0  0  0  0  0  0  0  0
   -0.7176    4.8543    0.0000 C   0  0  0  0  0  0  0  0  0  0  0  0
    0.5815    4.1043    0.0000 C   0  0  0  0  0  0  0  0  0  0  0  0
    6.9528    7.1488    0.0000 C   0  0  0  0  0  0  0  0  0  0  0  0
    7.7028    5.8498    0.0000 C   0  0  0  0  0  0  0  0  0  0  0  0
    1.8805    4.8543    0.0000 C   0  0  0  0  0  0  0  0  0  0  0  0
    5.4696    7.3779    0.0000 C   0  0  0  0  0  0  0  0  0  0  0  0
    7.1596    4.4507    0.0000 C   0  0  0  0  0  0  0  0  0  0  0  0
    3.1796    4.1043    0.0000 C   0  0  0  0  0  0  0  0  0  0  0  0
    4.3665    6.3484    0.0000 C   0  0  0  0  0  0  0  0  0  0  0  0
    5.7165    4.0101    0.0000 C   0  0  0  0  0  0  0  0  0  0  0  0
    4.4786    4.8543    0.0000 N   0  0  0  0  0  0  0  0  0  0  0  0
    5.4907    2.5272    0.0000 O   0  0  0  0  0  0  0  0  0  0  0  0
  2  1  1  0
  3  2  1  0
  4  3  1  0
  5  4  1  0
  6  5  1  0
  8  7  1  0
  9  6  1  0
 10  7  1  0
 11  8  1  0
 12  9  1  0
 13 10  1  0
 14 11  1  0
 15 12  1  0
 15 13  1  0
 15 14  1  0
 16 14  2  0
M  END
>  <NAME>  (4446) 
N-OCTYL-EPSILON-CAPROLACTAM

>  <SYNONYMS>  (4446) 


>  <SPECTRUM TYPE>  (4446) 
MS1

>  <INSTRUMENT TYPE>  (4446) 
EI-B

>  <INSTRUMENT>  (4446) 
HITACHI RMU-6E

>  <ION MODE>  (4446) 
P

>  <INCHIKEY>  (4446) 
VKAMZEDHHWTTNZ-UHFFFAOYSA-N

>  <FORMULA>  (4446) 
C14H27NO

>  <EXACT MASS>  (4446) 
225.209264484

>  <MW>  (4446) 
225

>  <ID>  (4446) 
JP004151

>  <CONTRIBUTOR>  (4446) 
University of Tokyo Team, {Faculty of Engineering, University of Tokyo

>  <COMMENT>  (4446) 
SMILES=CCCCCCCCN(C1)C(=O)CCCC1
InChI=InChI=1S/C14H27NO/c1-2-3-4-5-6-9-12-15-13-10-7-8-11-14(15)16/h2-13H2,1H3
computed SMILES=O=C1N(CCCCC1)CCCCCCCC
accession=JP004151
date=2016.01.19 (Created 2008.10.21, modified 2011.05.06)
author=MASS SPECTROSCOPY SOC. OF JAPAN (MSSJ)
license=CC BY-NC-SA
exact mass=225.20926
ionization energy=70 eV
ion type=[M]+*
computed spectral entropy=3.325622200107987
computed normalized entropy=0.6922580415741377
SPLASH=splash10-004i-9800000000-3d12a7287a36a3650fc0
submitter=submitter = University of Tokyo Team (Faculty of Engineering, University of Tokyo)
MoNA Rating=3.75

>  <NUM PEAKS>  (4446) 
122

>  <MASS SPECTRAL PEAKS>  (4446) 
26 0.4
27 7.4
28 6.6
29 1.18
30 10.6
31 0.3
32 0.4
38 0.01
39 5.4
40 1.2
41 31.2
42 1.46
43 16.2
44 19.2
45 0.6
46 0.01
51 0.3
52 0.1
53 1.7
54 0.19
55 20
56 8
57 7.4
58 0.18
59 0.4
60 0.6
65 0.4
66 0.03
67 4.6
68 2
69 14
70 0.6
71 2.8
72 1.5
73 1.9
74 0.01
79 0.7
80 0.4
81 1.7
82 0.12
83 1.3
84 5.2
85 24.2
86 0.25
87 1.2
93 0.1
94 0.4
95 0.14
96 2.1
97 2.1
98 51.8
99 0.78
100 1.5
101 0.6
105 0.1
106 0.02
107 0.1
108 0.4
109 0.3
110 0.05
111 0.5
112 5.2
113 10.4
114 1.2
115 1.2
116 0.2
117 0.1
124 0.04
125 0.4
126 99.99
127 44
128 0.54
129 0.6
130 0.3
131 0.1
132 0.01
133 0.1
138 0.5
139 0.2
140 2.32
141 6.2
142 2.3
143 0.3
144 0.01
152 0.3
153 0.1
154 11.8
155 0.9
156 2
157 0.2
158 0.1
166 0.02
167 0.1
168 7.6
169 12
170 0.15
171 1.4
172 0.2
180 0.1
181 0.01
182 13.8
183 2.5
184 1
185 0.02
191 0.1
192 0.1
193 0.1
194 0.01
195 0.1
196 5.4
197 1.2
198 0.04
208 0.3
209 0.1
210 2
211 0.03
212 0.1
223 0.3
224 1.4
225 2.84
226 5.2
227 0.7

>  <PREDICTED SPECTRUM>  (4446) 
15 1
18 13
26 42
27 248
28 166
29 236
30 339
38 28
39 336
40 201
41 686
42 466
43 520
44 279
45 8
50 1
51 95
52 64
53 227
54 179
55 497
56 292
57 257
58 49
60 4
65 77
66 69
67 238
68 198
69 288
70 371
71 304
72 192
73 100
77 117
78 38
79 113
80 153
81 189
82 197
83 204
84 315
85 365
86 169
87 27
91 27
93 88
94 84
95 65
96 173
97 236
98 930
99 652
100 230
101 59
107 3
108 60
109 16
110 74
111 81
112 425
113 330
114 228
115 62
121 57
122 67
124 145
125 41
126 999
127 715
128 130
137 8
138 110
139 55
140 504
141 302
142 108
154 599
155 210
168 413
169 276
170 68
180 22
181 25
182 399
183 121
196 241
197 196
207 29
208 101
210 159
211 29
224 121
225 563
226 272
227 53

$$$$

     RDKit          2D

 14 14  0  0  0  0  0  0  0  0999 V2000
   -5.2642    3.7293    0.0000 C   0  0  0  0  0  0  0  0  0  0  0  0
   -3.9651    2.9793    0.0000 C   0  0  0  0  0  0  0  0  0  0  0  0
   -2.6661    3.7293    0.0000 C   0  0  0  0  0  0  0  0  0  0  0  0
   -1.3671    2.9793    0.0000 C   0  0  0  0  0  0  0  0  0  0  0  0
    5.0043    6.0238    0.0000 C   0  0  0  0  0  0  0  0  0  0  0  0
    5.7543    4.7248    0.0000 C   0  0  0  0  0  0  0  0  0  0  0  0
   -0.0680    3.7293    0.0000 C   0  0  0  0  0  0  0  0  0  0  0  0
    3.5210    6.2529    0.0000 C   0  0  0  0  0  0  0  0  0  0  0  0
    5.2110    3.3257    0.0000 C   0  0  0  0  0  0  0  0  0  0  0  0
    1.2310    2.9793    0.0000 C   0  0  0  0  0  0  0  0  0  0  0  0
    2.4180    5.2234    0.0000 C   0  0  0  0  0  0  0  0  0  0  0  0
    3.7680    2.8851    0.0000 C   0  0  0  0  0  0  0  0  0  0  0  0
    2.5300    3.7293    0.0000 N   0  0  0  0  0  0  0  0  0  0  0  0
    3.5422    1.4022    0.0000 O   0  0  0  0  0  0  0  0  0  0  0  0
  2  1  1  0
  3  2  1  0
  4  3  1  0
  6  5  1  0
  7  4  1  0
  8  5  1  0
  9  6  1  0
 10  7  1  0
 11  8  1  0
 12  9  1  0
 13 10  1  0
 13 11  1  0
 13 12  1  0
 14 12  2  0
M  END
>  <NAME>  (4447) 
N-HEXYL-EPSILON-CAPROLACTAM

>  <SYNONYMS>  (4447) 


>  <SPECTRUM TYPE>  (4447) 
MS1

>  <INSTRUMENT TYPE>  (4447) 
EI-B

>  <INSTRUMENT>  (4447) 
HITACHI RMU-6E

>  <ION MODE>  (4447) 
P

>  <INCHIKEY>  (4447) 
JDQRYRLJZGMNIB-UHFFFAOYSA-N

>  <FORMULA>  (4447) 
C12H23NO

>  <EXACT MASS>  (4447) 
197.177964356

>  <MW>  (4447) 
197

>  <ID>  (4447) 
JP004150

>  <CONTRIBUTOR>  (4447) 
University of Tokyo Team, {Faculty of Engineering, University of Tokyo

>  <COMMENT>  (4447) 
SMILES=CCCCCCN(C1)C(=O)CCCC1
InChI=InChI=1S/C12H23NO/c1-2-3-4-7-10-13-11-8-5-6-9-12(13)14/h2-11H2,1H3
computed SMILES=O=C1N(CCCCC1)CCCCCC
accession=JP004150
date=2016.01.19 (Created 2008.10.21, modified 2011.05.06)
author=MASS SPECTROSCOPY SOC. OF JAPAN (MSSJ)
license=CC BY-NC-SA
exact mass=197.17796
ionization energy=70 eV
ion type=[M]+*
computed spectral entropy=3.485644667922563
computed normalized entropy=0.7003880151778467
SPLASH=splash10-004l-8900000000-1c8aca286b9103872ae3
submitter=submitter = University of Tokyo Team (Faculty of Engineering, University of Tokyo)
MoNA Rating=3.75

>  <NUM PEAKS>  (4447) 
145

>  <MASS SPECTRAL PEAKS>  (4447) 
26 1
27 14
28 15
29 1.42
30 17
31 0.6
32 0.6
33 0.01
37 0.2
38 0.4
39 9
40 0.2
41 41
42 22
43 22
44 2.7
45 0.8
46 0.1
50 0.2
51 0.06
52 0.4
53 3.1
54 2.9
55 3.02
56 16
57 9
58 2.3
59 0.04
60 0.4
64 0.2
65 0.6
66 0.04
67 6.2
68 2.9
69 13
70 0.82
71 3.1
72 1.1
73 0.4
74 0.02
75 0.5
76 0.4
77 0.6
78 0.04
79 1.4
80 0.6
81 3.2
82 0.19
83 2.8
84 9
85 33
86 0.2
87 0.3
88 0.1
89 0.1
90 0.01
91 1.3
92 0.4
93 0.4
94 0.06
95 2.4
96 2.7
97 2.6
98 6.2
99 9.4
100 1.3
101 0.4
102 0.01
103 0.4
104 0.4
105 0.4
106 0.06
107 0.2
108 0.5
109 0.8
110 0.09
111 0.9
112 8
113 15
114 1.1
115 0.8
116 0.2
117 0.3
118 0.01
121 0.2
122 0.3
123 0.5
124 0.05
125 0.8
126 99.99
127 38.4
128 0.38
129 0.4
132 0.2
133 0.2
134 0.02
135 0.2
136 0.3
137 0.4
138 0.09
139 0.4
140 26
141 8
142 0.1
143 0.1
144 0.1
145 0.1
149 0.03
150 0.3
151 0.3
152 0.4
153 0.02
154 19.4
155 7.8
156 1
157 0.01
160 0.1
161 0.3
162 0.4
163 0.03
164 0.1
165 0.1
166 0.5
167 0.05
168 6
169 4
170 0.6
171 0.01
178 0.1
179 0.1
180 0.6
181 0.02
182 4
183 0.6
184 0.2
191 0.01
192 0.1
193 0.4
194 0.3
195 0.03
196 1.6
197 31
198 6.8
199 0.07
200 0.1

>  <PREDICTED SPECTRUM>  (4447) 
14 6
15 13
18 1
26 20
27 135
28 103
29 128
30 127
38 41
39 241
40 142
41 460
42 324
43 400
44 219
45 53
51 46
52 74
53 153
54 158
55 347
56 253
57 164
58 87
59 27
65 81
66 64
67 163
68 199
69 222
70 264
71 157
72 83
77 34
78 12
79 66
80 94
81 122
82 174
83 105
84 173
85 125
86 100
87 56
93 12
94 63
96 158
97 125
98 341
99 310
100 80
101 0
108 36
109 29
110 61
111 58
112 170
113 256
114 132
115 15
122 45
124 9
126 999
127 462
128 140
137 8
138 4
139 50
140 390
141 262
142 34
150 29
152 69
153 80
154 417
155 171
164 36
168 236
169 139
170 26
179 39
180 51
182 163
183 49
196 79
197 362
198 141

$$$$

     RDKit          2D

 18 18  0  0  0  0  0  0  0  0999 V2000
   -6.5632    5.9793    0.0000 C   0  0  0  0  0  0  0  0  0  0  0  0
   -5.2642    5.2293    0.0000 C   0  0  0  0  0  0  0  0  0  0  0  0
   -3.9651    5.9793    0.0000 C   0  0  0  0  0  0  0  0  0  0  0  0
   -2.6661    5.2293    0.0000 C   0  0  0  0  0  0  0  0  0  0  0  0
   -1.3671    5.9793    0.0000 C   0  0  0  0  0  0  0  0  0  0  0  0
   -0.0680    5.2293    0.0000 C   0  0  0  0  0  0  0  0  0  0  0  0
    1.2310    5.9793    0.0000 C   0  0  0  0  0  0  0  0  0  0  0  0
    2.5300    5.2293    0.0000 C   0  0  0  0  0  0  0  0  0  0  0  0
    8.9014    8.2738    0.0000 C   0  0  0  0  0  0  0  0  0  0  0  0
    9.6514    6.9748    0.0000 C   0  0  0  0  0  0  0  0  0  0  0  0
    3.8291    5.9793    0.0000 C   0  0  0  0  0  0  0  0  0  0  0  0
    7.4181    8.5029    0.0000 C   0  0  0  0  0  0  0  0  0  0  0  0
    9.1081    5.5757    0.0000 C   0  0  0  0  0  0  0  0  0  0  0  0
    5.1281    5.2293    0.0000 C   0  0  0  0  0  0  0  0  0  0  0  0
    6.3151    7.4734    0.0000 C   0  0  0  0  0  0  0  0  0  0  0  0
    7.6651    5.1351    0.0000 C   0  0  0  0  0  0  0  0  0  0  0  0
    6.4272    5.9793    0.0000 N   0  0  0  0  0  0  0  0  0  0  0  0
    7.4393    3.6522    0.0000 O   0  0  0  0  0  0  0  0  0  0  0  0
  2  1  1  0
  3  2  1  0
  4  3  1  0
  5  4  1  0
  6  5  1  0
  7  6  1  0
  8  7  1  0
 10  9  1  0
 11  8  1  0
 12  9  1  0
 13 10  1  0
 14 11  1  0
 15 12  1  0
 16 13  1  0
 17 14  1  0
 17 15  1  0
 17 16  1  0
 18 16  2  0
M  END
>  <NAME>  (4448) 
N-DECYL-EPSILON-CAPROLACTAM

>  <SYNONYMS>  (4448) 


>  <SPECTRUM TYPE>  (4448) 
MS1

>  <INSTRUMENT TYPE>  (4448) 
EI-B

>  <INSTRUMENT>  (4448) 
HITACHI RMU-6E

>  <ION MODE>  (4448) 
P

>  <INCHIKEY>  (4448) 
PCEPYENXHJPCEF-UHFFFAOYSA-N

>  <FORMULA>  (4448) 
C16H31NO

>  <EXACT MASS>  (4448) 
253.24056461200001

>  <MW>  (4448) 
253

>  <ID>  (4448) 
JP004149

>  <CONTRIBUTOR>  (4448) 
University of Tokyo Team, {Faculty of Engineering, University of Tokyo

>  <COMMENT>  (4448) 
SMILES=CCCCCCCCCCN(C1)C(=O)CCCC1
InChI=InChI=1S/C16H31NO/c1-2-3-4-5-6-7-8-11-14-17-15-12-9-10-13-16(17)18/h2-15H2,1H3
computed SMILES=O=C1N(CCCCC1)CCCCCCCCCC
accession=JP004149
date=2016.01.19 (Created 2008.10.21, modified 2011.05.06)
author=MASS SPECTROSCOPY SOC. OF JAPAN (MSSJ)
license=CC BY-NC-SA
exact mass=253.24056
ionization energy=70 eV
ion type=[M]+*
computed spectral entropy=3.5097772521834134
computed normalized entropy=0.6915580391844587
SPLASH=splash10-004i-8910000000-59191125089f98e83acc
submitter=submitter = University of Tokyo Team (Faculty of Engineering, University of Tokyo)
MoNA Rating=3.75

>  <NUM PEAKS>  (4448) 
160

>  <MASS SPECTRAL PEAKS>  (4448) 
25 0.1
26 0.6
27 7.2
28 0.78
29 14
30 10.2
31 0.3
32 0.07
38 0.3
39 4.4
40 1.6
41 3.6
42 15.4
43 21
44 18
45 0.08
46 0.1
52 0.3
53 2.5
54 0.22
55 22
56 11
57 8.4
58 0.2
59 0.3
60 0.4
65 0.5
66 0.03
67 4.8
68 2.7
69 14
70 0.62
71 3.1
72 1.2
73 1.3
74 0.01
78 0.3
79 1.4
80 0.6
81 0.3
82 1.9
83 2.3
84 5.4
85 2.4
86 2.3
87 0.6
91 0.5
92 0.01
93 0.5
94 0.7
95 1.9
96 0.38
97 3
98 50.2
99 8
100 0.14
101 0.4
104 0.1
105 0.4
106 0.03
107 0.4
108 0.5
109 0.5
110 0.08
111 0.8
112 5.6
113 10
114 1.3
115 1.2
116 0.4
117 0.1
118 0.02
119 0.1
120 0.4
121 0.3
122 0.03
123 0.3
124 0.7
125 0.7
126 99.99
127 53.4
128 4.7
129 0.6
130 0.02
131 0.2
132 0.4
133 0.4
134 0.02
135 0.2
136 0.3
137 0.2
138 0.07
139 0.4
140 24.2
141 6.6
142 0.1
143 0.3
148 0.1
149 0.3
150 0.02
151 0.2
152 0.5
153 0.3
154 1.38
155 11.4
156 2
157 0.3
158 0.01
165 0.2
166 0.5
167 0.2
168 0.88
169 18
170 3.8
171 0.4
172 0.01
179 0.1
180 0.2
181 0.1
182 0.76
183 2.4
184 1.2
185 0.3
186 0.01
194 0.3
195 0.1
196 6.4
197 0.29
198 0.7
199 1
200 0.3
201 0.01
205 0.1
206 0.2
207 0.4
208 0.06
209 0.1
210 15.6
211 1.1
212 0.03
213 0.1
222 0.1
223 0.1
224 0.45
225 1.2
226 0.3
235 0.1
236 0.06
237 0.2
238 1.8
239 0.4
240 0.02
241 0.2
250 0.1
251 0.3
252 0.24
253 27.8
254 6
255 0.9
256 0.1

>  <PREDICTED SPECTRUM>  (4448) 
18 10
26 39
27 232
28 141
29 233
30 350
38 20
39 295
40 157
41 634
42 346
43 512
44 220
45 71
51 49
52 38
53 190
54 147
55 467
56 236
57 198
58 33
60 31
65 42
66 15
67 188
68 127
69 294
70 266
71 172
72 91
73 15
77 85
78 4
79 126
80 89
81 202
82 186
83 200
84 329
85 285
86 239
87 99
91 27
93 29
94 60
95 123
96 158
97 168
98 812
99 563
100 292
101 132
108 56
109 64
110 121
111 141
112 462
113 570
114 185
122 38
123 40
124 120
125 45
126 999
127 661
128 216
136 1
137 1
138 58
140 436
141 256
142 27
149 42
150 6
152 105
153 25
154 480
155 245
166 121
167 32
168 317
169 136
170 63
181 12
182 347
183 135
196 263
197 172
198 80
209 31
210 290
211 102
224 227
225 151
235 49
236 98
238 136
239 11
252 114
253 560
254 290
255 94

$$$$

     RDKit          2D

 18 19  0  0  0  0  0  0  0  0999 V2000
   -1.3000    0.7500    0.0000 C   0  0  0  0  0  0  0  0  0  0  0  0
    0.0000   -1.5000    0.0000 C   0  0  0  0  0  0  0  0  0  0  0  0
    7.7962   -1.5008    0.0000 C   0  0  0  0  0  0  0  0  0  0  0  0
    9.0947    0.7500    0.0000 C   0  0  0  0  0  0  0  0  0  0  0  0
    0.0000    1.5000    0.0000 C   0  0  0  0  0  0  0  0  0  0  0  0
    1.3000   -0.7500    0.0000 C   0  0  0  0  0  0  0  0  0  0  0  0
    6.4966   -0.7500    0.0000 C   0  0  0  0  0  0  0  0  0  0  0  0
    7.7952    1.5008    0.0000 C   0  0  0  0  0  0  0  0  0  0  0  0
   -1.3000   -0.7500    0.0000 C   0  0  0  0  0  0  0  0  0  0  0  0
    9.0952   -0.7508    0.0000 C   0  0  0  0  0  0  0  0  0  0  0  0
    1.3000    0.7500    0.0000 C   0  0  0  0  0  0  0  0  0  0  0  0
    6.4962    0.7508    0.0000 C   0  0  0  0  0  0  0  0  0  0  0  0
    3.8981    0.7504    0.0000 C   0  0  0  0  0  0  0  0  0  0  0  0
   -2.5989   -1.5002    0.0000 Cl  0  0  0  0  0  0  0  0  0  0  0  0
   10.3943   -1.5006    0.0000 Cl  0  0  0  0  0  0  0  0  0  0  0  0
    2.5989    1.5002    0.0000 N   0  0  0  0  0  0  0  0  0  0  0  0
    5.1970    1.5006    0.0000 N   0  0  0  0  0  0  0  0  0  0  0  0
    3.8983   -0.7496    0.0000 O   0  0  0  0  0  0  0  0  0  0  0  0
  5  1  2  0
  6  2  1  0
  7  3  2  0
  8  4  1  0
  9  1  1  0
  9  2  2  0
 10  3  1  0
 10  4  2  0
 11  5  1  0
 11  6  2  0
 12  7  1  0
 12  8  2  0
 14  9  1  0
 15 10  1  0
 16 11  1  0
 16 13  1  0
 17 12  1  0
 17 13  1  0
 18 13  2  0
M  END
>  <NAME>  (4449) 
N,N'-DI(PARA-CHLOROPHENYL)UREA

>  <SYNONYMS>  (4449) 


>  <SPECTRUM TYPE>  (4449) 
MS1

>  <INSTRUMENT TYPE>  (4449) 
EI-B

>  <INSTRUMENT>  (4449) 
HITACHI RMU-6E

>  <ION MODE>  (4449) 
P

>  <INCHIKEY>  (4449) 
ZNQCSLYENQIUMJ-UHFFFAOYSA-N

>  <FORMULA>  (4449) 
C13H10Cl2N2O

>  <EXACT MASS>  (4449) 
280.0170183

>  <MW>  (4449) 
280

>  <ID>  (4449) 
JP004148

>  <CONTRIBUTOR>  (4449) 
University of Tokyo Team, {Faculty of Engineering, University of Tokyo

>  <COMMENT>  (4449) 
SMILES=O=C(Nc(c2)ccc(Cl)c2)Nc(c1)ccc(Cl)c1
InChI=InChI=1S/C13H10Cl2N2O/c14-9-1-5-11(6-2-9)16-13(18)17-12-7-3-10(15)4-8-12/h1-8H,(H2,16,17,18)
computed SMILES=O=C(NC1=CC=C(Cl)C=C1)NC2=CC=C(Cl)C=C2
accession=JP004148
date=2016.01.19 (Created 2008.10.21, modified 2011.05.06)
author=MASS SPECTROSCOPY SOC. OF JAPAN (MSSJ)
license=CC BY-NC-SA
exact mass=280.01702
ionization energy=70 eV
ion type=[M]+*
computed spectral entropy=2.8710625485315995
computed normalized entropy=0.62077392980237
SPLASH=splash10-004i-4900000000-4e8e842bcb63f0b75c7b
submitter=submitter = University of Tokyo Team (Faculty of Engineering, University of Tokyo)
MoNA Rating=3.75

>  <NUM PEAKS>  (4449) 
102

>  <MASS SPECTRAL PEAKS>  (4449) 
25 0.1
26 0.5
27 1
28 0.18
29 0.8
30 0.1
31 0.6
35 0.02
36 0.4
37 1.7
38 3
39 0.52
40 1
41 1.5
42 0.6
43 0.03
44 0.3
45 0.5
46 0.2
47 0.04
48 0.2
49 1
50 2.7
51 0.23
52 1.8
53 0.2
54 0.5
55 0.01
60 0.3
61 1.4
62 2.8
63 0.88
64 5
65 9
66 1.2
67 0.08
71 0.1
72 0.6
73 4.6
74 0.14
75 6
76 1.2
77 0.5
78 0.04
79 0.1
84 0.3
85 0.6
86 0.03
87 0.6
88 0.7
89 2
90 0.74
91 4.4
92 8.2
93 0.5
97 0.04
98 0.7
99 9.2
100 4.4
101 0.41
102 1.3
103 0.2
106 0.2
107 0.04
108 0.3
109 0.1
110 0.3
111 0.41
112 0.4
113 1.5
114 0.1
124 0.03
125 7.2
126 8.6
127 99.99
128 1
129 33
130 2.8
131 0.2
140 0.1
141 0.4
142 0.3
152 0.1
153 1.42
154 2.4
155 5
156 0.6
199 0.06
200 0.1
201 0.3
202 0.1
244 0.07
245 0.2
246 0.2
279 0.2
280 1.32
281 2.3
282 9
283 1.5
284 0.18
285 0.3
286 0.1

>  <PREDICTED SPECTRUM>  (4449) 
35 9
36 33
37 45
38 124
39 128
40 63
41 42
43 11
44 102
45 5
46 27
47 45
48 13
49 53
50 194
51 139
52 158
53 66
54 37
55 40
56 35
57 73
58 98
60 70
61 150
62 153
63 303
64 262
65 280
66 122
70 53
73 236
74 143
75 310
76 172
77 76
78 48
79 7
83 8
84 42
85 94
87 41
88 32
89 65
90 316
91 252
92 258
93 30
98 12
99 328
100 253
101 220
102 28
105 43
109 9
111 311
112 7
113 147
124 14
125 186
126 407
127 999
128 335
129 491
130 91
134 1
151 23
152 144
153 269
154 58
155 218
156 64
157 53
254 1
280 358
281 156
282 315
283 99
284 122
285 19

$$$$

     RDKit          2D

 13 13  0  0  0  0  0  0  0  0999 V2000
    7.7951    1.5010    0.0000 C   0  0  0  0  0  0  0  0  0  0  0  0
    6.4962    0.7508    0.0000 C   0  0  0  0  0  0  0  0  0  0  0  0
   -1.3000    0.7500    0.0000 C   0  0  0  0  0  0  0  0  0  0  0  0
   -0.0000   -1.5000    0.0000 C   0  0  0  0  0  0  0  0  0  0  0  0
    0.0000    1.5000    0.0000 C   0  0  0  0  0  0  0  0  0  0  0  0
    1.3000   -0.7500    0.0000 C   0  0  0  0  0  0  0  0  0  0  0  0
   -1.3000   -0.7500    0.0000 C   0  0  0  0  0  0  0  0  0  0  0  0
    1.3000    0.7500    0.0000 C   0  0  0  0  0  0  0  0  0  0  0  0
    3.8981    0.7504    0.0000 C   0  0  0  0  0  0  0  0  0  0  0  0
   -2.5989   -1.5002    0.0000 Cl  0  0  0  0  0  0  0  0  0  0  0  0
    2.5989    1.5002    0.0000 N   0  0  0  0  0  0  0  0  0  0  0  0
    3.8983   -0.7496    0.0000 O   0  0  0  0  0  0  0  0  0  0  0  0
    5.1970    1.5006    0.0000 O   0  0  0  0  0  0  0  0  0  0  0  0
  2  1  1  0
  5  3  2  0
  6  4  1  0
  7  3  1  0
  7  4  2  0
  8  5  1  0
  8  6  2  0
 10  7  1  0
 11  8  1  0
 11  9  1  0
 12  9  2  0
 13  2  1  0
 13  9  1  0
M  END
>  <NAME>  (4450) 
ETHYL N-(PARA-CHLOROPHENYL)CARBAMATE

>  <SYNONYMS>  (4450) 


>  <SPECTRUM TYPE>  (4450) 
MS1

>  <INSTRUMENT TYPE>  (4450) 
EI-B

>  <INSTRUMENT>  (4450) 
HITACHI RMU-6E

>  <ION MODE>  (4450) 
P

>  <INCHIKEY>  (4450) 
WSKXXIMERYQVGJ-UHFFFAOYSA-N

>  <FORMULA>  (4450) 
C9H10ClNO2

>  <EXACT MASS>  (4450) 
199.04000624

>  <MW>  (4450) 
199

>  <ID>  (4450) 
JP004147

>  <CONTRIBUTOR>  (4450) 
University of Tokyo Team, {Faculty of Engineering, University of Tokyo

>  <COMMENT>  (4450) 
SMILES=CCOC(=O)Nc(c1)ccc(Cl)c1
InChI=InChI=1S/C9H10ClNO2/c1-2-13-9(12)11-8-5-3-7(10)4-6-8/h3-6H,2H2,1H3,(H,11,12)
computed SMILES=O=C(OCC)NC1=CC=C(Cl)C=C1
accession=JP004147
date=2016.01.19 (Created 2008.10.21, modified 2011.05.06)
author=MASS SPECTROSCOPY SOC. OF JAPAN (MSSJ)
license=CC BY-NC-SA
exact mass=199.04001
ionization energy=70 eV
ion type=[M]+*
computed spectral entropy=3.37558780378166
computed normalized entropy=0.6891993086044774
SPLASH=splash10-004i-6900000000-6edfa30f70c0d204f455
submitter=submitter = University of Tokyo Team (Faculty of Engineering, University of Tokyo)
MoNA Rating=3.75

>  <NUM PEAKS>  (4450) 
134

>  <MASS SPECTRAL PEAKS>  (4450) 
25 0.3
26 3.6
27 26.2
28 0.56
29 85.2
30 3
31 2.9
35 0.03
36 0.7
37 2.7
38 5.4
39 0.8
40 1.6
41 2
42 1.1
43 0.21
44 1.6
45 6.4
46 0.6
47 0.05
48 0.2
49 1.5
50 4.8
51 0.32
52 3
53 0.6
54 0.4
55 0.02
56 0.1
57 0.1
60 0.3
61 0.22
62 5.4
63 20
64 9
65 1.06
66 1.5
67 0.5
71 0.1
72 0.1
73 10.2
74 2.8
75 8.8
76 0.23
77 3.4
78 1.2
79 0.7
80 0.04
81 0.3
84 0.4
85 0.8
86 0.05
87 0.6
88 1.2
89 2.3
90 1.14
91 9.6
92 8.2
93 2.5
94 0.03
95 0.2
96 0.1
97 0.5
98 0.15
99 25
100 8
101 8.4
102 0.27
103 0.4
104 1.8
105 1.7
106 0.07
107 0.3
108 0.3
109 0.1
110 0.03
111 4.8
112 1.3
113 2.7
114 0.08
115 0.4
116 0.3
117 0.2
118 0.08
119 1
120 2.2
121 0.3
122 0.01
123 0.1
124 0.5
125 9
126 2.48
127 99.99
128 14.4
129 32
130 0.25
131 0.1
135 0.1
136 0.4
137 0.09
138 0.7
139 0.6
140 56.6
141 0.52
142 18.4
143 1.7
144 0.1
152 0.01
153 11
154 7.6
155 4.2
156 0.27
157 0.3
164 0.4
165 0.1
166 0.02
170 1
171 7.2
172 2
173 0.24
174 0.5
179 0.3
180 0.1
181 0.01
182 0.4
183 0.1
184 0.3
198 0.04
199 66.6
200 12.8
201 22.8
202 0.4
203 0.4
204 0.1

>  <PREDICTED SPECTRUM>  (4450) 
14 27
15 109
16 14
17 15
18 18
26 123
27 336
28 187
29 509
30 127
31 235
32 18
35 7
36 0
37 56
38 115
39 145
41 41
42 2
43 47
44 74
45 175
46 65
47 62
49 88
50 220
51 213
52 152
53 32
54 18
55 15
57 58
60 61
61 82
62 223
63 407
64 284
65 235
66 50
72 71
73 273
74 83
75 334
76 181
77 162
78 78
79 13
80 0
85 22
87 3
88 18
89 19
90 358
91 262
92 202
93 144
94 54
97 16
99 428
100 103
101 233
102 114
105 36
106 102
111 559
112 140
113 164
114 111
117 27
118 21
119 6
120 113
124 35
125 130
126 555
127 999
128 524
129 538
130 76
136 159
137 66
138 126
140 780
141 261
142 328
143 157
153 470
154 354
155 276
156 204
157 8
170 101
171 131
172 87
173 116
199 919
200 279
201 569
202 169

$$$$

     RDKit          2D

 14 14  0  0  0  0  0  0  0  0999 V2000
   -6.1355    2.7946    0.0000 C   0  0  0  0  0  0  0  0  0  0  0  0
   -4.8364    2.0446    0.0000 C   0  0  0  0  0  0  0  0  0  0  0  0
    0.3592    0.5438    0.0000 C   0  0  0  0  0  0  0  0  0  0  0  0
    1.6583   -0.2062    0.0000 C   0  0  0  0  0  0  0  0  0  0  0  0
    1.6592    2.7955    0.0000 C   0  0  0  0  0  0  0  0  0  0  0  0
    0.3597    2.0446    0.0000 C   0  0  0  0  0  0  0  0  0  0  0  0
    2.9578    0.5446    0.0000 C   0  0  0  0  0  0  0  0  0  0  0  0
    2.9583    2.0455    0.0000 C   0  0  0  0  0  0  0  0  0  0  0  0
   -2.2383    2.0446    0.0000 C   0  0  0  0  0  0  0  0  0  0  0  0
    4.2568   -0.2054    0.0000 Cl  0  0  0  0  0  0  0  0  0  0  0  0
    4.2574    2.7953    0.0000 Cl  0  0  0  0  0  0  0  0  0  0  0  0
   -0.9393    2.7946    0.0000 N   0  0  0  0  0  0  0  0  0  0  0  0
   -2.2383    0.5446    0.0000 O   0  0  0  0  0  0  0  0  0  0  0  0
   -3.5374    2.7946    0.0000 O   0  0  0  0  0  0  0  0  0  0  0  0
  2  1  1  0
  4  3  2  0
  6  3  1  0
  6  5  2  0
  7  4  1  0
  8  5  1  0
  8  7  2  0
 10  7  1  0
 11  8  1  0
 12  6  1  0
 12  9  2  3
 13  9  1  0
 14  2  1  0
 14  9  1  0
M  END
>  <NAME>  (4451) 
ETHYL N-(3,4-DICHLOROPHENYL)CARBAMATE

>  <SYNONYMS>  (4451) 


>  <SPECTRUM TYPE>  (4451) 
MS1

>  <INSTRUMENT TYPE>  (4451) 
EI-B

>  <INSTRUMENT>  (4451) 
HITACHI RMU-6E

>  <ION MODE>  (4451) 
P

>  <INCHIKEY>  (4451) 
AOVLXBXJFYNQAZ-UHFFFAOYSA-N

>  <FORMULA>  (4451) 
C9H9Cl2NO2

>  <EXACT MASS>  (4451) 
233.001033888

>  <MW>  (4451) 
233

>  <ID>  (4451) 
JP004146

>  <CONTRIBUTOR>  (4451) 
University of Tokyo Team, {Faculty of Engineering, University of Tokyo

>  <COMMENT>  (4451) 
SMILES=CCOC(=O)Nc(c1)cc(Cl)c(Cl)c1
InChI=InChI=1S/C9H9Cl2NO2/c1-2-14-9(13)12-6-3-4-7(10)8(11)5-6/h3-5H,2H2,1H3,(H,12,13)
computed SMILES=ClC1=CC=C(N=C(O)OCC)C=C1Cl
accession=JP004146
date=2016.01.19 (Created 2008.10.21, modified 2011.05.06)
author=MASS SPECTROSCOPY SOC. OF JAPAN (MSSJ)
license=CC BY-NC-SA
exact mass=233.00103
ionization energy=70 eV
ion type=[M]+*
computed spectral entropy=3.6708093358827365
computed normalized entropy=0.7241820301663789
SPLASH=splash10-01u0-5920000000-db710f33f70283240a48
submitter=submitter = University of Tokyo Team (Faculty of Engineering, University of Tokyo)
MoNA Rating=3.75

>  <NUM PEAKS>  (4451) 
159

>  <MASS SPECTRAL PEAKS>  (4451) 
24 0.2
25 0.3
26 3.6
27 2.6
28 4.6
29 99.99
30 3.6
31 0.62
32 0.1
35 0.6
36 1.1
37 0.35
38 4.5
39 3.5
40 1.1
41 0.15
42 0.9
43 2.3
44 1.1
45 0.78
46 1.3
47 1
48 0.6
49 0.27
50 3
51 2.4
52 2.8
53 0.05
54 0.2
55 0.2
56 0.1
58 0.02
60 0.8
61 5.3
62 11.4
63 1.68
64 4.5
65 2.1
66 0.3
67 0.03
70 0.3
71 0.7
72 3.9
73 1.1
74 5.7
75 6.5
76 1.4
77 0.08
78 1.5
79 0.1
83 1.6
84 0.16
85 2.2
86 1.2
87 1.8
88 0.56
89 4.4
90 11.4
91 4.1
92 0.06
96 0.7
97 6.8
98 3.6
99 0.94
100 1.8
101 2.6
102 0.6
103 0.01
104 0.9
107 2.2
108 0.5
109 0.6
110 1.6
111 2.7
112 1.3
113 0.07
114 0.5
115 0.2
116 0.3
117 0.03
118 0.8
119 0.7
120 0.2
121 0.01
122 0.2
123 0.5
124 17
125 1.44
126 12
127 6.5
128 1.9
129 0.07
132 0.4
133 16
134 4.2
135 1.02
136 2.8
137 1.5
138 1.1
139 0.22
140 0.5
141 0.8
142 0.4
143 0.01
144 0.2
145 2.6
146 1.1
147 0.24
148 0.8
149 1
150 0.3
151 0.02
152 0.5
153 0.9
154 2.3
155 0.06
156 0.6
157 0.1
158 0.4
159 0.63
160 19
161 83.6
162 18
163 5.1
164 6.5
165 8.6
166 0.7
169 0.08
170 1.1
171 0.5
172 0.6
173 0.04
174 47.8
175 4.4
176 31.4
177 0.29
178 5.7
179 0.4
187 15.2
188 0.57
189 11
190 3.4
191 2
192 0.06
198 0.8
199 0.2
200 0.4
204 0.09
205 4
206 1.6
207 2.9
208 0.05
209 0.4
233 59
234 7
235 3.6
236 4.4
237 5.9
238 0.7

>  <PREDICTED SPECTRUM>  (4451) 
14 1
15 28
25 1
26 53
27 165
28 55
29 339
31 93
35 50
36 92
37 66
38 98
39 128
40 14
41 61
42 84
43 114
44 96
45 412
46 153
47 155
48 49
49 137
50 314
51 222
52 136
53 103
54 55
55 102
56 40
57 9
60 82
61 290
62 302
63 436
64 201
65 145
66 41
69 85
70 51
71 29
72 56
73 333
74 425
75 617
76 263
77 146
78 95
83 142
84 160
85 217
86 149
87 222
88 252
89 219
90 272
91 207
92 68
95 14
96 123
97 367
98 163
99 276
100 137
101 171
102 31
104 4
105 4
107 84
108 89
109 578
110 289
111 438
112 244
113 52
114 69
115 58
116 47
117 81
118 91
119 49
122 4
123 130
124 437
125 500
126 379
127 264
128 124
129 75
131 6
133 170
134 153
135 287
136 139
137 38
138 38
140 69
141 100
142 109
143 63
144 143
145 364
146 178
147 210
148 76
149 56
152 239
153 164
154 145
155 120
156 33
158 177
159 616
160 590
161 642
162 580
163 355
164 287
165 100
166 35
169 11
170 237
171 86
172 341
173 54
174 185
175 74
176 0
186 52
187 185
188 999
189 363
190 726
191 237
192 333
193 78
194 24
198 47
200 34
204 51
205 187
206 71
207 139
208 12
209 68
218 82
219 0
220 102
222 8
233 825
234 311
235 698
236 250
237 300
238 64

$$$$

     RDKit          2D

 20 21  0  0  0  0  0  0  0  0999 V2000
  -10.4764   -6.8943    0.0000 C   0  0  0  0  0  0  0  0  0  0  0  0
   -9.1789   -7.6469    0.0000 C   0  0  0  0  0  0  0  0  0  0  0  0
   -7.8784   -6.8994    0.0000 C   0  0  0  0  0  0  0  0  0  0  0  0
   -6.5808   -7.6519    0.0000 C   0  0  0  0  0  0  0  0  0  0  0  0
   -5.2803   -6.9045    0.0000 C   0  0  0  0  0  0  0  0  0  0  0  0
   -3.9827   -7.6570    0.0000 C   0  0  0  0  0  0  0  0  0  0  0  0
   -2.6822   -6.9095    0.0000 C   0  0  0  0  0  0  0  0  0  0  0  0
    5.4436   -2.8657    0.0000 C   0  0  0  0  0  0  0  0  0  0  0  0
   -1.3846   -7.6621    0.0000 C   0  0  0  0  0  0  0  0  0  0  0  0
    6.1936   -4.1647    0.0000 C   0  0  0  0  0  0  0  0  0  0  0  0
    1.2136   -7.6670    0.0000 C   0  0  0  0  0  0  0  0  0  0  0  0
   -0.0810   -5.4138    0.0000 C   0  0  0  0  0  0  0  0  0  0  0  0
    2.5144   -6.9185    0.0000 C   0  0  0  0  0  0  0  0  0  0  0  0
    1.2199   -4.6653    0.0000 C   0  0  0  0  0  0  0  0  0  0  0  0
    3.9752   -3.1823    0.0000 C   0  0  0  0  0  0  0  0  0  0  0  0
   -0.0841   -6.9146    0.0000 C   0  0  0  0  0  0  0  0  0  0  0  0
    2.5176   -5.4176    0.0000 C   0  0  0  0  0  0  0  0  0  0  0  0
    5.1902   -5.2867    0.0000 C   0  0  0  0  0  0  0  0  0  0  0  0
    3.8181   -4.6702    0.0000 N   0  0  0  0  0  0  0  0  0  0  0  0
    5.5020   -6.7540    0.0000 O   0  0  0  0  0  0  0  0  0  0  0  0
  2  1  1  0
  3  2  1  0
  4  3  1  0
  5  4  1  0
  6  5  1  0
  7  6  1  0
  9  7  1  0
 10  8  1  0
 13 11  2  0
 14 12  1  0
 15  8  1  0
 16  9  1  0
 16 11  1  0
 16 12  2  0
 17 13  1  0
 17 14  2  0
 18 10  1  0
 19 15  1  0
 19 17  1  0
 19 18  1  0
 20 18  2  0
M  END
>  <NAME>  (4452) 
N-PARA-OCTYLPHENYL-2-PYRROLIDONE

>  <SYNONYMS>  (4452) 


>  <SPECTRUM TYPE>  (4452) 
MS1

>  <INSTRUMENT TYPE>  (4452) 
EI-B

>  <INSTRUMENT>  (4452) 
HITACHI RMU-6E

>  <ION MODE>  (4452) 
P

>  <INCHIKEY>  (4452) 
WMYDRTMKLYXZES-UHFFFAOYSA-N

>  <FORMULA>  (4452) 
C18H27NO

>  <EXACT MASS>  (4452) 
273.209264484

>  <MW>  (4452) 
273

>  <ID>  (4452) 
JP004145

>  <CONTRIBUTOR>  (4452) 
University of Tokyo Team, {Faculty of Engineering, University of Tokyo

>  <COMMENT>  (4452) 
SMILES=CCCCCCCCc(c2)ccc(c2)N(C1)C(=O)CC1
InChI=InChI=1S/C18H27NO/c1-2-3-4-5-6-7-9-16-11-13-17(14-12-16)19-15-8-10-18(19)20/h11-14H,2-10,15H2,1H3
computed SMILES=O=C1N(C2=CC=C(C=C2)CCCCCCCC)CCC1
accession=JP004145
date=2016.01.19 (Created 2008.10.21, modified 2011.05.06)
author=MASS SPECTROSCOPY SOC. OF JAPAN (MSSJ)
license=CC BY-NC-SA
exact mass=273.20926
ionization energy=70 eV
ion type=[M]+*
computed spectral entropy=2.8908835976176253
computed normalized entropy=0.6081474172986697
SPLASH=splash10-00di-2920000000-2c871321c19cb9666418
submitter=submitter = University of Tokyo Team (Faculty of Engineering, University of Tokyo)
MoNA Rating=3.75

>  <NUM PEAKS>  (4452) 
116

>  <MASS SPECTRAL PEAKS>  (4452) 
26 0.3
27 3.6
28 1.6
29 0.52
30 0.3
40 2.8
41 11.8
42 0.05
43 5.2
44 1.3
45 0.2
50 0.02
51 1
52 0.4
53 0.6
54 0.02
55 2.1
56 0.3
57 1.6
58 0.01
62 0.1
63 0.6
64 0.4
65 0.15
66 0.3
67 0.3
68 0.2
69 0.76
70 0.4
71 0.2
75 0.2
76 0.04
77 3.2
78 1.6
79 0.8
80 0.02
86 0.1
87 0.1
88 0.1
89 0.19
90 4.4
91 4.6
92 1
93 0.03
94 0.2
101 0.1
102 0.5
103 0.18
104 1.8
105 1.6
106 10.6
107 0.13
108 0.1
114 0.1
115 1.4
116 0.1
117 2.3
118 6.4
119 7.6
120 0.23
121 0.2
127 0.2
128 0.4
129 0.06
130 1.7
131 2.8
132 6.8
133 0.13
134 0.2
141 0.1
142 0.2
143 0.05
144 1.6
145 1.2
146 2.7
147 0.05
156 0.2
157 0.1
158 0.4
159 0.02
160 0.7
161 0.4
162 0.8
163 0.01
170 0.2
171 0.1
172 0.3
173 0.04
174 99.99
175 16
176 1.3
186 0.01
187 3
188 3.2
189 0.8
190 0.01
199 0.1
200 0.5
201 0.4
202 0.05
216 0.6
217 0.2
218 3.4
219 0.08
220 0.1
230 0.5
231 0.2
244 0.03
245 0.1
258 0.2
259 0.1
272 0.09
273 38.4
274 10.8
275 1.2
276 0.1

>  <PREDICTED SPECTRUM>  (4452) 
18 14
27 71
28 32
29 110
30 15
36 5
39 107
40 74
41 236
42 74
43 138
44 54
50 14
51 85
52 41
53 44
54 14
55 168
56 59
57 73
63 22
64 21
65 127
66 27
67 49
69 60
76 34
77 190
78 148
79 114
80 6
81 5
82 6
89 32
90 148
91 289
92 94
93 9
102 8
103 75
104 120
105 89
106 160
115 67
116 7
117 104
118 168
119 87
120 10
128 55
129 30
130 103
131 125
132 256
144 35
145 27
146 175
147 25
156 24
159 6
160 121
162 35
173 31
174 999
175 448
176 128
188 54
216 17
217 4
218 139
244 8
272 35
273 623
274 288
275 77

$$$$

     RDKit          2D

 24 25  0  0  0  0  0  0  0  0999 V2000
   -4.9420   -8.6261    0.0000 C   0  0  0  0  0  0  0  0  0  0  0  0
   -3.6415   -7.8786    0.0000 C   0  0  0  0  0  0  0  0  0  0  0  0
   -6.2396   -7.8736    0.0000 C   0  0  0  0  0  0  0  0  0  0  0  0
   -2.3439   -8.6312    0.0000 C   0  0  0  0  0  0  0  0  0  0  0  0
   -7.5401   -8.6210    0.0000 C   0  0  0  0  0  0  0  0  0  0  0  0
   -1.0434   -7.8837    0.0000 C   0  0  0  0  0  0  0  0  0  0  0  0
   -8.8377   -7.8685    0.0000 C   0  0  0  0  0  0  0  0  0  0  0  0
    0.2541   -8.6363    0.0000 C   0  0  0  0  0  0  0  0  0  0  0  0
  -10.1382   -8.6159    0.0000 C   0  0  0  0  0  0  0  0  0  0  0  0
    1.5546   -7.8888    0.0000 C   0  0  0  0  0  0  0  0  0  0  0  0
  -14.3618  -10.4154    0.0000 C   0  0  0  0  0  0  0  0  0  0  0  0
    5.7782   -6.0894    0.0000 C   0  0  0  0  0  0  0  0  0  0  0  0
  -15.1118   -9.1163    0.0000 C   0  0  0  0  0  0  0  0  0  0  0  0
    6.5282   -7.3884    0.0000 C   0  0  0  0  0  0  0  0  0  0  0  0
  -11.4357   -7.8634    0.0000 C   0  0  0  0  0  0  0  0  0  0  0  0
    2.8522   -8.6413    0.0000 C   0  0  0  0  0  0  0  0  0  0  0  0
  -12.8933  -10.0987    0.0000 C   0  0  0  0  0  0  0  0  0  0  0  0
    4.3098   -6.4060    0.0000 C   0  0  0  0  0  0  0  0  0  0  0  0
  -14.1083   -7.9943    0.0000 C   0  0  0  0  0  0  0  0  0  0  0  0
    5.5248   -8.5104    0.0000 C   0  0  0  0  0  0  0  0  0  0  0  0
  -12.7362   -8.6109    0.0000 N   0  0  0  0  0  0  0  0  0  0  0  0
    4.1527   -7.8939    0.0000 N   0  0  0  0  0  0  0  0  0  0  0  0
  -14.4202   -6.5271    0.0000 O   0  0  0  0  0  0  0  0  0  0  0  0
    5.8366   -9.9777    0.0000 O   0  0  0  0  0  0  0  0  0  0  0  0
  2  1  1  0
  3  1  1  0
  4  2  1  0
  5  3  1  0
  6  4  1  0
  7  5  1  0
  8  6  1  0
  9  7  1  0
 10  8  1  0
 13 11  1  0
 14 12  1  0
 15  9  1  0
 16 10  1  0
 17 11  1  0
 18 12  1  0
 19 13  1  0
 20 14  1  0
 21 15  1  0
 21 17  1  0
 21 19  1  0
 22 16  1  0
 22 18  1  0
 22 20  1  0
 23 19  2  0
 24 20  2  0
M  END
>  <NAME>  (4453) 
N,N'-DODECAMETHYLENEDI(2-PYRROLIDONE)

>  <SYNONYMS>  (4453) 


>  <SPECTRUM TYPE>  (4453) 
MS1

>  <INSTRUMENT TYPE>  (4453) 
EI-B

>  <INSTRUMENT>  (4453) 
HITACHI RMU-6E

>  <ION MODE>  (4453) 
P

>  <INCHIKEY>  (4453) 
LTHBKYXQRLHDSV-UHFFFAOYSA-N

>  <FORMULA>  (4453) 
C20H36N2O2

>  <EXACT MASS>  (4453) 
336.277678392

>  <MW>  (4453) 
336

>  <ID>  (4453) 
JP004143

>  <CONTRIBUTOR>  (4453) 
University of Tokyo Team, {Faculty of Engineering, University of Tokyo

>  <COMMENT>  (4453) 
SMILES=C(CCCCCCN(C2)C(=O)CC2)CCCCCN(C1)C(=O)CC1
InChI=InChI=1S/C20H36N2O2/c23-19-13-11-17-21(19)15-9-7-5-3-1-2-4-6-8-10-16-22-18-12-14-20(22)24/h1-18H2
computed SMILES=O=C1N(CCC1)CCCCCCCCCCCCN2C(=O)CCC2
accession=JP004143
date=2016.01.19 (Created 2008.10.21, modified 2011.05.06)
author=MASS SPECTROSCOPY SOC. OF JAPAN (MSSJ)
license=CC BY-NC-SA
exact mass=336.27768
ionization energy=70 eV
ion type=[M]+*
computed spectral entropy=3.7438222064112834
computed normalized entropy=0.7001583912244499
SPLASH=splash10-0002-9320000000-62e69f06d0e7c3f1cf39
submitter=submitter = University of Tokyo Team (Faculty of Engineering, University of Tokyo)
MoNA Rating=3.75

>  <NUM PEAKS>  (4453) 
210

>  <MASS SPECTRAL PEAKS>  (4453) 
25 0.1
26 0.6
27 2.6
28 1.5
29 3.4
30 2.8
31 1.4
32 0.11
33 0.2
34 0.4
35 0.2
36 0.08
37 0.1
38 0.4
39 2.6
40 0.08
41 19
42 6
43 10.2
44 0.48
45 1
46 0.5
47 0.4
50 0.03
51 0.4
52 0.3
53 1
54 0.14
55 13.2
56 4.4
57 4
58 0.11
59 0.3
60 0.2
63 0.3
64 0.01
65 0.5
66 0.2
67 2.2
68 0.37
69 15
70 32.8
71 4
72 0.05
73 0.4
74 0.3
76 0.3
77 0.08
78 0.4
79 0.8
80 0.9
81 0.17
82 1.8
83 2.1
84 3.8
85 0.24
86 11.6
87 0.9
91 0.6
92 0.03
93 0.4
94 0.3
95 1.1
96 0.2
97 1.6
98 99.99
99 42
100 0.33
101 0.3
103 0.2
104 0.4
105 0.03
106 0.4
107 0.5
108 0.4
109 0.09
110 0.9
111 0.8
112 16
113 0.84
114 1.8
116 0.6
117 2.4
118 0.02
119 2
120 0.1
121 0.6
122 0.04
123 0.4
124 1.6
125 0.6
126 1.1
127 7.4
128 2.6
129 0.9
130 0.03
131 0.2
132 0.1
133 0.2
134 0.01
135 0.3
136 0.3
137 0.3
138 0.06
139 0.7
140 7.8
141 7.4
142 0.1
143 0.3
144 0.1
145 0.2
146 0.01
147 0.1
148 0.1
149 0.1
150 0.04
151 0.1
152 0.5
153 0.7
154 1.1
155 5.4
156 1.6
157 0.3
158 0.03
159 0.1
160 0.1
162 0.2
163 0.02
164 0.2
165 0.3
166 0.4
167 0.06
168 12.8
169 6.6
170 1.1
171 0.02
178 0.2
179 0.2
180 0.4
181 0.06
182 11
183 4.7
184 1.1
185 0.1
186 0.3
187 0.1
194 0.4
195 0.03
196 10.6
197 4
198 1.4
199 0.02
208 0.6
209 0.5
210 14
211 0.47
212 1.4
213 0.1
214 0.1
217 0.02
218 0.3
219 0.7
220 0.2
222 0.03
223 0.7
224 11.2
225 11.2
226 0.19
227 0.4
236 10
237 2.4
238 4.14
239 8.8
240 1.8
241 0.2
242 0.02
249 0.2
250 0.2
251 0.4
252 0.19
253 0.3
254 0.3
255 0.1
256 0.01
262 0.4
263 0.1
264 0.1
265 0.09
266 0.2
267 0.4
268 0.6
269 0.01
279 2
280 0.6
281 0.4
282 0.02
283 0.2
293 0.3
295 0.3
307 0.07
308 0.3
309 0.1
310 0.1
324 0.04
325 0.1
335 2.6
336 21
337 0.5
338 0.7
339 0.1

>  <PREDICTED SPECTRUM>  (4453) 
14 18
15 85
16 28
17 35
18 70
25 6
26 77
27 155
28 163
29 180
30 289
31 27
32 15
33 1
34 7
35 2
36 78
37 20
38 65
39 193
40 143
41 469
42 335
43 449
44 182
45 84
46 3
50 22
51 48
52 43
53 121
54 137
55 442
56 313
57 293
58 116
59 0
60 25
61 15
64 22
65 22
66 30
67 111
68 165
69 342
70 592
71 270
72 96
73 63
74 45
77 43
79 51
80 87
81 112
82 126
83 219
84 159
85 188
86 237
87 112
88 21
91 17
92 21
93 39
94 48
95 101
96 73
97 97
98 999
99 755
100 150
101 68
105 5
106 13
107 48
108 6
109 132
110 148
111 81
112 436
113 113
114 143
115 48
120 13
121 37
122 23
123 140
124 118
125 33
126 325
127 321
128 94
133 4
134 40
135 68
136 73
137 131
138 111
139 121
140 247
141 162
142 66
143 21
150 4
152 93
153 65
154 201
155 202
156 85
158 38
165 97
166 114
167 109
168 326
169 242
170 111
179 39
180 73
181 89
182 340
183 217
184 162
185 45
194 28
195 31
196 241
197 180
198 80
199 92
206 26
207 30
208 106
209 138
210 257
211 200
212 149
222 23
223 76
224 282
225 350
226 90
235 31
236 118
237 147
238 243
239 284
240 109
241 5
249 12
250 104
251 109
252 16
253 102
266 29
267 45
268 54
279 82
280 149
281 48
292 62
293 43
294 45
296 32
302 38
307 66
308 67
309 0
322 6
335 153
336 383
337 115
338 66

$$$$

     RDKit          2D

 18 18  0  0  0  0  0  0  0  0999 V2000
   12.0322   -6.3103    0.0000 C   0  0  0  0  0  0  0  0  0  0  0  0
   10.7331   -7.0603    0.0000 C   0  0  0  0  0  0  0  0  0  0  0  0
    9.4341   -6.3103    0.0000 C   0  0  0  0  0  0  0  0  0  0  0  0
    8.1351   -7.0603    0.0000 C   0  0  0  0  0  0  0  0  0  0  0  0
    6.8360   -6.3103    0.0000 C   0  0  0  0  0  0  0  0  0  0  0  0
    5.5370   -7.0603    0.0000 C   0  0  0  0  0  0  0  0  0  0  0  0
    4.2379   -6.3103    0.0000 C   0  0  0  0  0  0  0  0  0  0  0  0
    2.9389   -7.0603    0.0000 C   0  0  0  0  0  0  0  0  0  0  0  0
    1.6399   -6.3103    0.0000 C   0  0  0  0  0  0  0  0  0  0  0  0
    0.3408   -7.0603    0.0000 C   0  0  0  0  0  0  0  0  0  0  0  0
   -0.9582   -6.3103    0.0000 C   0  0  0  0  0  0  0  0  0  0  0  0
   -5.1818   -4.5058    0.0000 C   0  0  0  0  0  0  0  0  0  0  0  0
   -5.9318   -5.8048    0.0000 C   0  0  0  0  0  0  0  0  0  0  0  0
   -2.2573   -7.0603    0.0000 C   0  0  0  0  0  0  0  0  0  0  0  0
   -3.7221   -4.8174    0.0000 C   0  0  0  0  0  0  0  0  0  0  0  0
   -4.9321   -6.9132    0.0000 C   0  0  0  0  0  0  0  0  0  0  0  0
   -3.5563   -6.3103    0.0000 N   0  0  0  0  0  0  0  0  0  0  0  0
   -5.2476   -8.3797    0.0000 S   0  0  0  0  0  0  0  0  0  0  0  0
  2  1  1  0
  3  2  1  0
  4  3  1  0
  5  4  1  0
  6  5  1  0
  7  6  1  0
  8  7  1  0
  9  8  1  0
 10  9  1  0
 11 10  1  0
 13 12  1  0
 14 11  1  0
 15 12  1  0
 16 13  1  0
 17 14  1  0
 17 15  1  0
 17 16  1  0
 18 16  2  0
M  END
>  <NAME>  (4454) 
N-DODECYL-2-THIOXOPYRROLIDINE

>  <SYNONYMS>  (4454) 


>  <SPECTRUM TYPE>  (4454) 
MS1

>  <INSTRUMENT TYPE>  (4454) 
EI-B

>  <INSTRUMENT>  (4454) 
HITACHI RMU-6E

>  <ION MODE>  (4454) 
P

>  <INCHIKEY>  (4454) 
XZIGJCHACSCDHN-UHFFFAOYSA-N

>  <FORMULA>  (4454) 
C16H31NS

>  <EXACT MASS>  (4454) 
269.21772099199995

>  <MW>  (4454) 
269

>  <ID>  (4454) 
JP004142

>  <CONTRIBUTOR>  (4454) 
University of Tokyo Team, {Faculty of Engineering, University of Tokyo

>  <COMMENT>  (4454) 
SMILES=CCCCCCCCCCCCN(C1)C(=S)CC1
InChI=InChI=1S/C16H31NS/c1-2-3-4-5-6-7-8-9-10-11-14-17-15-12-13-16(17)18/h2-15H2,1H3
computed SMILES=S=C1N(CCC1)CCCCCCCCCCCC
accession=JP004142
date=2016.01.19 (Created 2008.10.21, modified 2011.05.06)
author=MASS SPECTROSCOPY SOC. OF JAPAN (MSSJ)
license=CC BY-NC-SA
exact mass=269.21772
ionization energy=70 eV
ion type=[M]+*
computed spectral entropy=3.2776371996797407
computed normalized entropy=0.6458177234918469
SPLASH=splash10-00kr-6980000000-b9129a539343ddc48371
submitter=submitter = University of Tokyo Team (Faculty of Engineering, University of Tokyo)
MoNA Rating=3.75

>  <NUM PEAKS>  (4454) 
160

>  <MASS SPECTRAL PEAKS>  (4454) 
26 0.4
27 2.8
28 2
29 0.7
30 7
31 1.6
39 2.2
40 0.06
41 18
42 3.8
43 11
44 0.24
45 2.7
46 0.3
47 0.5
53 0.12
54 1.6
55 15
56 2.4
57 0.3
58 0.7
59 0.9
60 1.3
61 0.03
65 0.3
66 0.2
67 2.4
68 0.19
69 6.6
70 3.2
71 1.1
72 0.1
73 2.2
74 0.5
75 0.3
76 0.02
77 0.3
78 0.3
79 0.4
80 0.06
81 1.2
82 4.8
83 2.9
84 0.07
85 14.2
86 1.5
87 2.2
88 0.03
89 0.1
91 0.3
92 0.1
93 0.03
94 0.3
95 0.4
96 1.6
97 0.07
98 0.4
99 0.5
100 3
101 0.13
102 17
103 1
104 0.8
105 0.01
106 0.1
107 0.1
108 0.4
109 0.03
110 1.1
111 0.2
112 0.3
113 0.03
114 11.6
115 71.4
116 5.2
117 0.3
118 0.2
120 0.2
121 0.1
122 0.04
123 0.4
124 0.9
125 0.1
126 0.17
127 0.5
128 18.8
129 4.6
130 0.1
131 0.3
136 0.4
137 0.1
138 0.15
139 0.2
140 0.4
141 0.6
142 0.78
143 1.4
144 0.4
145 0.1
149 0.04
150 0.3
152 1.1
153 0.2
154 0.02
155 0.2
156 4.8
157 0.6
158 0.03
164 0.2
165 0.1
166 1
167 0.01
168 0.1
169 0.1
170 4
171 0.05
172 0.3
180 1
181 0.2
184 0.38
185 0.6
186 0.3
194 1
195 0.02
196 0.1
198 3.4
199 0.4
200 0.02
207 0.2
208 0.4
209 0.1
210 0.01
212 2.7
213 0.4
214 0.2
226 0.26
227 0.3
228 0.2
234 0.3
235 0.02
236 99.99
237 20.8
238 1.6
239 0.01
240 2.3
241 0.4
242 0.1
250 0.03
254 1
255 0.3
256 0.1
264 0.05
265 0.1
266 0.1
267 0.1
268 0.64
269 18.4
270 4
271 1.1
272 0.1

>  <PREDICTED SPECTRUM>  (4454) 
17 14
18 55
26 22
27 277
28 180
29 367
30 214
32 19
33 2
34 35
35 38
36 41
37 28
38 78
39 416
40 174
41 964
42 544
43 999
44 298
45 204
46 88
47 98
50 30
51 105
52 70
53 258
54 238
55 755
56 467
57 486
58 245
59 201
60 252
61 159
62 57
63 63
64 10
65 79
66 92
67 319
68 214
69 437
70 330
71 310
72 221
73 291
74 199
75 82
76 51
77 133
78 58
79 216
80 123
81 291
82 279
83 335
84 330
85 280
86 328
87 210
88 136
89 88
93 85
94 86
95 164
96 238
97 199
98 283
99 191
100 301
101 326
102 165
103 116
106 19
107 13
108 146
109 128
110 140
111 124
112 88
113 43
114 671
115 444
116 291
117 106
120 38
121 36
122 126
123 73
124 73
125 89
126 93
127 13
128 445
129 496
130 220
131 90
134 56
137 2
138 170
139 73
140 139
141 94
142 486
143 248
144 12
151 17
152 154
153 126
154 139
156 199
157 57
164 98
165 67
166 118
168 58
170 234
171 29
180 35
181 5
182 66
184 97
186 22
194 30
198 109
212 113
213 19
222 57
224 39
225 20
226 100
227 14
235 56
236 731
237 282
238 111
240 109
241 6
252 27
254 61
255 3
268 169
269 567
270 276
271 156
272 29

$$$$

     RDKit          2D

 25 25  0  0  0  0  0  0  0  0999 V2000
   17.8778   -9.6853    0.0000 C   0  0  0  0  0  0  0  0  0  0  0  0
   -4.5584   -7.1860    0.0000 C   0  0  0  0  0  0  0  0  0  0  0  0
   16.5788  -10.4353    0.0000 C   0  0  0  0  0  0  0  0  0  0  0  0
   15.2798   -9.6853    0.0000 C   0  0  0  0  0  0  0  0  0  0  0  0
   13.9807  -10.4353    0.0000 C   0  0  0  0  0  0  0  0  0  0  0  0
   12.6817   -9.6853    0.0000 C   0  0  0  0  0  0  0  0  0  0  0  0
   11.3826  -10.4353    0.0000 C   0  0  0  0  0  0  0  0  0  0  0  0
   10.0836   -9.6853    0.0000 C   0  0  0  0  0  0  0  0  0  0  0  0
    8.7846  -10.4353    0.0000 C   0  0  0  0  0  0  0  0  0  0  0  0
    7.4855   -9.6853    0.0000 C   0  0  0  0  0  0  0  0  0  0  0  0
    6.1865  -10.4353    0.0000 C   0  0  0  0  0  0  0  0  0  0  0  0
    4.8875   -9.6853    0.0000 C   0  0  0  0  0  0  0  0  0  0  0  0
    3.5884  -10.4353    0.0000 C   0  0  0  0  0  0  0  0  0  0  0  0
    2.2894   -9.6853    0.0000 C   0  0  0  0  0  0  0  0  0  0  0  0
    0.9903  -10.4353    0.0000 C   0  0  0  0  0  0  0  0  0  0  0  0
   -0.3087   -9.6853    0.0000 C   0  0  0  0  0  0  0  0  0  0  0  0
   -1.6077  -10.4353    0.0000 C   0  0  0  0  0  0  0  0  0  0  0  0
   -2.9068   -9.6853    0.0000 C   0  0  0  0  0  0  0  0  0  0  0  0
   -7.1304   -7.8808    0.0000 C   0  0  0  0  0  0  0  0  0  0  0  0
   -7.8804   -9.1798    0.0000 C   0  0  0  0  0  0  0  0  0  0  0  0
   -4.2058  -10.4353    0.0000 C   0  0  0  0  0  0  0  0  0  0  0  0
   -5.6706   -8.1924    0.0000 C   0  0  0  0  0  0  0  0  0  0  0  0
   -6.8806  -10.2882    0.0000 C   0  0  0  0  0  0  0  0  0  0  0  0
   -5.5048   -9.6853    0.0000 N   0  0  0  0  0  0  0  0  0  0  0  0
   -7.1961  -11.7547    0.0000 O   0  0  0  0  0  0  0  0  0  0  0  0
  3  1  1  0
  4  3  1  0
  5  4  1  0
  6  5  1  0
  7  6  1  0
  8  7  1  0
  9  8  1  0
 10  9  1  0
 11 10  1  0
 12 11  1  0
 13 12  1  0
 14 13  1  0
 15 14  1  0
 16 15  1  0
 17 16  1  0
 18 17  1  0
 20 19  1  0
 21 18  1  0
 22  2  1  0
 22 19  1  0
 23 20  1  0
 24 21  1  0
 24 22  1  0
 24 23  1  0
 25 23  2  0
M  END
>  <NAME>  (4455) 
5-METHYL-N-OCTADECYL-2-PYRROLIDONE

>  <SYNONYMS>  (4455) 


>  <SPECTRUM TYPE>  (4455) 
MS1

>  <INSTRUMENT TYPE>  (4455) 
EI-B

>  <INSTRUMENT>  (4455) 
HITACHI RMU-6E

>  <ION MODE>  (4455) 
P

>  <INCHIKEY>  (4455) 
TYAMTTBZEDCFHI-UHFFFAOYSA-N

>  <FORMULA>  (4455) 
C23H45NO

>  <EXACT MASS>  (4455) 
351.35011506

>  <MW>  (4455) 
351

>  <ID>  (4455) 
JP004141

>  <CONTRIBUTOR>  (4455) 
University of Tokyo Team, {Faculty of Engineering, University of Tokyo

>  <COMMENT>  (4455) 
SMILES=CCCCCCCCCCCCCCCCCCN(C(C)1)C(=O)CC1
InChI=InChI=1S/C23H45NO/c1-3-4-5-6-7-8-9-10-11-12-13-14-15-16-17-18-21-24-22(2)19-20-23(24)25/h22H,3-21H2,1-2H3
computed SMILES=O=C1N(CCCCCCCCCCCCCCCCCC)C(C)CC1
accession=JP004141
date=2016.01.19 (Created 2008.10.21, modified 2011.05.06)
author=MASS SPECTROSCOPY SOC. OF JAPAN (MSSJ)
license=CC BY-NC-SA
exact mass=351.35012
ionization energy=70 eV
ion type=[M]+*
computed spectral entropy=3.7903488637696228
computed normalized entropy=0.7544663628129309
SPLASH=splash10-0nml-9713000000-1a0270e3b0961b76965e
submitter=submitter = University of Tokyo Team (Faculty of Engineering, University of Tokyo)
MoNA Rating=3.75

>  <NUM PEAKS>  (4455) 
152

>  <MASS SPECTRAL PEAKS>  (4455) 
26 1.6
27 7
28 12.6
29 1.74
30 19.2
31 1
32 0.4
38 0.04
39 3.4
40 1.4
41 27.2
42 0.78
43 35.1
44 10.4
45 2.4
50 0.04
51 0.6
52 0.2
53 1.8
54 0.2
55 24.6
56 20
57 20.1
58 0.26
59 1
60 0.4
67 3.4
68 0.15
69 7
70 5
71 5.8
72 0.2
73 1
81 1.2
82 3
83 1.18
84 14.8
85 8.4
86 3
87 0.1
94 1
95 1
96 1.2
97 0.28
98 14
99 2.7
100 9.8
101 0.16
110 1.4
111 2
112 99.99
113 9.16
114 7.8
115 1
124 1.2
125 0.1
126 16
127 8.2
128 1.2
129 0.06
138 1.2
139 0.8
140 21
141 0.74
142 1.2
143 0.6
144 0.4
149 0.12
152 0.6
153 0.4
154 12.2
155 0.36
156 1.6
157 0.4
158 0.4
166 0.05
167 0.4
168 10.1
169 4.4
170 0.12
171 0.2
172 0.4
180 0.6
181 0.04
182 7.4
183 3
184 1.2
185 0.06
186 0.4
194 0.8
195 0.2
196 0.82
197 3.2
198 1.4
199 0.4
208 0.06
209 0.2
210 6.6
211 2.4
212 0.14
213 0.2
222 0.4
223 0.2
224 0.58
225 2.4
226 0.8
227 0.6
236 0.05
237 0.2
238 3.8
239 1.7
240 0.1
241 0.4
250 0.6
252 4.2
253 0.18
254 0.8
266 4.8
267 2.4
268 0.12
269 1
270 0.4
278 0.3
280 0.48
281 1.6
282 0.8
294 4.2
295 0.18
296 1.6
297 0.7
307 0.2
308 0.4
309 1.6
310 0.4
311 0.6
321 0.06
322 4
323 2.4
324 1
325 0.02
334 2.2
335 0.6
336 22.2
337 0.58
338 1
339 0.2
349 0.6
350 0.46
351 50.4
352 14.8
353 2.4
354 0.6

>  <PREDICTED SPECTRUM>  (4455) 
17 0
18 29
25 5
26 65
27 203
28 159
29 328
30 333
31 18
38 8
39 190
40 80
41 491
42 281
43 558
44 167
45 134
46 8
50 1
51 41
53 125
54 185
55 639
56 388
57 551
58 236
59 82
60 40
61 5
65 6
67 261
68 248
69 406
70 350
71 404
72 179
73 109
75 29
77 39
79 63
80 41
81 185
82 218
83 389
84 394
85 270
86 213
87 91
93 5
95 63
96 107
97 220
98 416
99 395
100 347
101 116
110 54
111 219
112 999
113 545
114 286
115 87
124 76
125 94
126 545
127 386
128 271
129 79
140 517
141 256
142 121
152 11
154 461
155 272
156 105
167 30
168 337
169 102
180 30
182 337
183 120
196 196
197 57
209 33
210 256
211 57
224 99
225 135
226 22
227 4
238 210
239 152
240 23
252 142
253 112
254 104
266 241
267 90
268 22
280 121
281 97
282 104
294 148
295 25
296 154
297 33
308 148
309 142
310 24
311 40
322 263
323 144
324 60
334 33
335 60
336 488
337 279
338 131
349 24
350 154
351 639
352 349
353 132

$$$$

     RDKit          2D

 21 21  0  0  0  0  0  0  0  0999 V2000
    7.9945   -5.5019    0.0000 C   0  0  0  0  0  0  0  0  0  0  0  0
    6.6954   -4.7519    0.0000 C   0  0  0  0  0  0  0  0  0  0  0  0
    5.3964   -5.5019    0.0000 C   0  0  0  0  0  0  0  0  0  0  0  0
    4.0973   -4.7519    0.0000 C   0  0  0  0  0  0  0  0  0  0  0  0
    2.7983   -5.5019    0.0000 C   0  0  0  0  0  0  0  0  0  0  0  0
    1.4993   -4.7519    0.0000 C   0  0  0  0  0  0  0  0  0  0  0  0
    0.2002   -5.5019    0.0000 C   0  0  0  0  0  0  0  0  0  0  0  0
   -1.0988   -4.7519    0.0000 C   0  0  0  0  0  0  0  0  0  0  0  0
   -2.3978   -5.5019    0.0000 C   0  0  0  0  0  0  0  0  0  0  0  0
   -3.6969   -4.7519    0.0000 C   0  0  0  0  0  0  0  0  0  0  0  0
   -4.9959   -5.5019    0.0000 C   0  0  0  0  0  0  0  0  0  0  0  0
   -6.2950   -4.7519    0.0000 C   0  0  0  0  0  0  0  0  0  0  0  0
   -9.9695   -6.0074    0.0000 C   0  0  0  0  0  0  0  0  0  0  0  0
   -7.7598   -6.9948    0.0000 C   0  0  0  0  0  0  0  0  0  0  0  0
   -9.2195   -7.3064    0.0000 C   0  0  0  0  0  0  0  0  0  0  0  0
   -8.9698   -4.8990    0.0000 C   0  0  0  0  0  0  0  0  0  0  0  0
   -9.8290   -8.6770    0.0000 C   0  0  0  0  0  0  0  0  0  0  0  0
   -7.5940   -5.5019    0.0000 N   0  0  0  0  0  0  0  0  0  0  0  0
   -9.2853   -3.4325    0.0000 O   0  0  0  0  0  0  0  0  0  0  0  0
   -8.9468   -9.8901    0.0000 O   0  0  0  0  0  0  0  0  0  0  0  0
  -11.3207   -8.8344    0.0000 O   0  0  0  0  0  0  0  0  0  0  0  0
  2  1  1  0
  3  2  1  0
  4  3  1  0
  5  4  1  0
  6  5  1  0
  7  6  1  0
  8  7  1  0
  9  8  1  0
 10  9  1  0
 11 10  1  0
 12 11  1  0
 15 13  1  0
 15 14  1  0
 16 13  1  0
 17 15  1  0
 18 12  1  0
 18 14  1  0
 18 16  1  0
 19 16  2  0
 20 17  2  0
 21 17  1  0
M  END
>  <NAME>  (4456) 
4-CARBOXYL-N-DODECYL-2-PYRROLIDONE

>  <SYNONYMS>  (4456) 


>  <SPECTRUM TYPE>  (4456) 
MS1

>  <INSTRUMENT TYPE>  (4456) 
EI-B

>  <INSTRUMENT>  (4456) 
HITACHI RMU-6E

>  <ION MODE>  (4456) 
P

>  <INCHIKEY>  (4456) 
ZNQTZHTYSHEJLH-UHFFFAOYSA-N

>  <FORMULA>  (4456) 
C17H31NO3

>  <EXACT MASS>  (4456) 
297.23039385199996

>  <MW>  (4456) 
297

>  <ID>  (4456) 
JP004138

>  <CONTRIBUTOR>  (4456) 
University of Tokyo Team, {Faculty of Engineering, University of Tokyo

>  <COMMENT>  (4456) 
SMILES=CCCCCCCCCCCCN(C1)C(=O)CC(C(O)=O)1
InChI=InChI=1S/C17H31NO3/c1-2-3-4-5-6-7-8-9-10-11-12-18-14-15(17(20)21)13-16(18)19/h15H,2-14H2,1H3,(H,20,21)
computed SMILES=O=C1N(CCCCCCCCCCCC)CC(C(=O)O)C1
ion type=[M]+*
accession=JP004138
date=2016.01.19 (Created 2008.10.21, modified 2011.05.06)
author=MASS SPECTROSCOPY SOC. OF JAPAN (MSSJ)
license=CC BY-NC-SA
exact mass=297.23039
ionization energy=70 eV
computed spectral entropy=3.6831262461228214
computed normalized entropy=0.6984878730249746
SPLASH=splash10-0006-6920000000-f418f0cfa3219c80bb75
submitter=submitter = University of Tokyo Team (Faculty of Engineering, University of Tokyo)
MoNA Rating=3.75

>  <NUM PEAKS>  (4456) 
195

>  <MASS SPECTRAL PEAKS>  (4456) 
26 0.8
27 6
28 8.2
29 1.6
30 22
31 0.7
32 0.7
33 0.02
34 0.1
35 0.5
36 1.3
37 0.02
38 0.5
39 7.8
40 2.2
41 3.78
42 23.4
43 26
44 6.8
45 0.15
51 0.5
52 0.4
53 3.8
54 0.28
55 23.8
56 10
57 9
58 0.2
59 0.4
60 0.4
65 0.7
66 0.03
67 3.5
68 16
69 10.2
70 1
71 2.8
72 1.1
73 1.3
74 0.03
75 0.2
76 0.4
77 1
78 0.06
79 0.8
80 0.7
81 1.1
82 0.23
83 3.2
84 6.4
85 3.2
86 0.08
87 2.9
88 0.3
91 1
92 0.03
93 0.5
94 0.8
95 0.8
96 0.84
97 3.8
98 3.7
99 1.2
100 0.13
101 1.4
102 0.3
103 0.2
104 0.02
105 0.5
106 0.3
107 0.3
109 0.02
110 0.8
111 0.8
112 4
113 0.88
114 2.7
115 5.8
116 0.4
117 0.03
118 0.3
119 0.4
120 0.1
121 0.03
122 0.6
123 1
124 1.7
125 0.1
126 2
127 0.5
128 1
129 0.44
130 7
131 0.7
135 1.7
136 0.03
137 0.7
138 0.8
139 0.4
140 0.14
141 2.2
142 99.99
143 91
144 0.64
145 0.8
146 0.1
147 0.1
148 0.03
149 1.7
150 0.2
151 0.2
152 0.04
153 0.4
154 1
155 0.6
156 2.58
157 5.4
158 1
159 0.2
161 0.01
162 0.2
163 0.6
164 0.3
165 0.03
166 0.6
167 0.6
168 1.6
169 0.06
170 20.4
171 8
172 1
173 0.03
178 0.3
179 0.2
180 0.3
181 0.03
182 0.5
183 0.2
184 9
185 0.31
186 0.4
187 0.2
190 0.2
191 0.04
192 0.4
193 0.4
194 0.3
195 0.02
196 1.5
197 1.6
198 8
199 0.22
200 0.3
209 0.3
210 1.3
211 0.02
212 6
213 1.6
214 0.5
215 0.02
223 0.2
224 1.1
225 0.6
226 0.6
227 1.6
228 0.2
234 0.6
235 0.02
240 4.6
241 1.4
242 0.1
250 0.02
251 0.3
252 28.2
253 4.6
254 0.36
255 1
256 0.3
259 0.4
267 0.02
268 3.3
269 1.2
270 0.1
278 0.02
279 1.1
280 2.8
281 0.6
282 0.1
283 0.3
284 0.2
296 1.4
297 2.3
298 5.4
299 0.6
300 0.2

>  <PREDICTED SPECTRUM>  (4456) 
14 0
16 2
17 33
18 58
25 2
26 46
27 189
28 152
29 312
30 270
31 70
32 3
33 3
34 23
36 59
37 2
38 46
39 275
40 205
41 966
42 789
43 999
44 439
45 312
46 111
50 32
51 84
52 91
53 244
54 330
55 938
56 545
57 614
58 316
59 148
60 276
65 49
66 36
67 372
68 350
69 642
70 327
71 330
72 317
73 406
74 169
75 44
78 22
79 150
80 82
81 318
82 367
83 497
84 451
85 338
86 522
87 296
88 169
89 9
91 0
94 24
95 327
96 407
97 317
98 536
99 374
100 324
101 307
102 72
106 63
108 53
109 209
110 289
111 189
112 491
113 289
114 514
115 252
116 134
121 72
122 67
123 159
124 364
125 219
126 387
127 271
128 415
129 367
130 146
131 33
134 83
135 120
136 110
137 102
138 280
139 175
140 228
141 131
142 633
143 324
144 229
145 38
149 35
150 132
151 134
152 309
153 169
154 145
155 61
156 377
157 314
161 61
163 27
164 30
165 48
166 301
167 197
168 228
169 141
170 465
171 269
172 137
173 85
178 118
179 75
180 176
181 132
182 177
183 1
184 343
185 155
186 9
187 4
194 110
195 58
196 249
197 80
198 338
199 96
200 29
206 115
207 81
208 171
209 105
210 191
211 140
212 397
213 116
214 12
222 191
223 77
224 235
225 144
226 267
227 158
233 53
234 106
235 56
236 180
238 154
239 71
240 262
241 208
250 160
251 196
252 457
253 316
254 219
255 134
266 9
267 23
268 192
269 112
278 66
279 205
280 165
281 80
282 2
296 31
297 639
298 300
299 44

$$$$

     RDKit          2D

 21 21  0  0  0  0  0  0  0  0999 V2000
    8.3591   -5.7124    0.0000 C   0  0  0  0  0  0  0  0  0  0  0  0
  -11.9788   -7.2736    0.0000 C   0  0  0  0  0  0  0  0  0  0  0  0
    7.0601   -4.9624    0.0000 C   0  0  0  0  0  0  0  0  0  0  0  0
    5.7610   -5.7124    0.0000 C   0  0  0  0  0  0  0  0  0  0  0  0
    4.4620   -4.9624    0.0000 C   0  0  0  0  0  0  0  0  0  0  0  0
    3.1630   -5.7124    0.0000 C   0  0  0  0  0  0  0  0  0  0  0  0
    1.8639   -4.9624    0.0000 C   0  0  0  0  0  0  0  0  0  0  0  0
    0.5649   -5.7124    0.0000 C   0  0  0  0  0  0  0  0  0  0  0  0
   -0.7342   -4.9624    0.0000 C   0  0  0  0  0  0  0  0  0  0  0  0
   -2.0332   -5.7124    0.0000 C   0  0  0  0  0  0  0  0  0  0  0  0
   -3.3322   -4.9624    0.0000 C   0  0  0  0  0  0  0  0  0  0  0  0
   -4.6313   -5.7124    0.0000 C   0  0  0  0  0  0  0  0  0  0  0  0
   -8.8549   -7.5169    0.0000 C   0  0  0  0  0  0  0  0  0  0  0  0
   -5.9303   -4.9624    0.0000 C   0  0  0  0  0  0  0  0  0  0  0  0
   -7.3951   -7.2053    0.0000 C   0  0  0  0  0  0  0  0  0  0  0  0
  -11.0966   -6.0604    0.0000 C   0  0  0  0  0  0  0  0  0  0  0  0
   -9.6049   -6.2179    0.0000 C   0  0  0  0  0  0  0  0  0  0  0  0
   -8.6051   -5.1095    0.0000 C   0  0  0  0  0  0  0  0  0  0  0  0
   -7.2294   -5.7124    0.0000 N   0  0  0  0  0  0  0  0  0  0  0  0
  -11.7061   -4.6898    0.0000 O   0  0  0  0  0  0  0  0  0  0  0  0
   -8.9206   -3.6431    0.0000 O   0  0  0  0  0  0  0  0  0  0  0  0
  3  1  1  0
  4  3  1  0
  5  4  1  0
  6  5  1  0
  7  6  1  0
  8  7  1  0
  9  8  1  0
 10  9  1  0
 11 10  1  0
 12 11  1  0
 14 12  1  0
 15 13  1  0
 16  2  1  0
 17 13  1  0
 17 16  1  0
 18 17  1  0
 19 14  1  0
 19 15  1  0
 19 18  1  0
 20 16  2  0
 21 18  2  0
M  END
>  <NAME>  (4457) 
3-ACETYL-N-DODECYL-2-PYRROLIDONE

>  <SYNONYMS>  (4457) 


>  <SPECTRUM TYPE>  (4457) 
MS1

>  <INSTRUMENT TYPE>  (4457) 
EI-B

>  <INSTRUMENT>  (4457) 
HITACHI RMU-6E

>  <ION MODE>  (4457) 
P

>  <INCHIKEY>  (4457) 
YRVCRDDXHVQXDT-UHFFFAOYSA-N

>  <FORMULA>  (4457) 
C18H33NO2

>  <EXACT MASS>  (4457) 
295.251129296

>  <MW>  (4457) 
295

>  <ID>  (4457) 
JP004136

>  <CONTRIBUTOR>  (4457) 
University of Tokyo Team, {Faculty of Engineering, University of Tokyo

>  <COMMENT>  (4457) 
SMILES=CCCCCCCCCCCCN(C1)C(=O)C(C(C)=O)C1
InChI=InChI=1S/C18H33NO2/c1-3-4-5-6-7-8-9-10-11-12-14-19-15-13-17(16(2)20)18(19)21/h17H,3-15H2,1-2H3
computed SMILES=O=C1N(CCCCCCCCCCCC)CCC1C(=O)C
accession=JP004136
date=2016.01.19 (Created 2008.10.21, modified 2011.05.06)
author=MASS SPECTROSCOPY SOC. OF JAPAN (MSSJ)
license=CC BY-NC-SA
exact mass=295.25113
ionization energy=70 eV
ion type=[M]+*
computed spectral entropy=3.9136134011339734
computed normalized entropy=0.7560858173219688
SPLASH=splash10-0005-9100000000-0da85a7633655c1c85a7
submitter=submitter = University of Tokyo Team (Faculty of Engineering, University of Tokyo)
MoNA Rating=3.75

>  <NUM PEAKS>  (4457) 
177

>  <MASS SPECTRAL PEAKS>  (4457) 
27 10
28 8.4
29 18
30 9.5
31 2.5
32 0.4
37 0.4
38 0.06
39 9.8
40 1.4
41 42
42 1.36
43 42
44 18.4
45 7.2
46 0.03
50 0.6
51 1.2
52 0.8
53 0.56
54 5
55 27
56 11.8
57 1.1
58 4
59 2.6
60 7
61 0.03
65 0.8
66 0.8
67 4.4
68 0.36
69 16.8
70 20
71 3.6
72 1.58
73 21
74 1
77 0.8
78 0.07
79 1
80 3.2
81 2.5
82 0.62
83 11
84 13
85 3.2
86 1.8
87 5.6
88 0.3
91 0.4
92 0.04
93 1.4
94 13.8
95 31
96 0.74
97 6
98 99.99
99 44
100 1.26
101 3.6
102 0.3
106 0.8
107 0.14
108 7
109 2.6
110 1.7
111 0.18
112 12.4
113 5
114 9.8
115 0.17
116 0.2
121 0.7
122 3
123 0.2
124 1.6
125 0.6
126 10.4
127 0.38
128 4
129 1.4
130 0.2
133 0.02
134 0.8
135 0.5
136 3.2
137 0.14
138 1.2
139 0.3
140 5.4
141 0.2
142 4.4
143 0.8
144 0.2
146 0.03
148 0.3
149 0.3
150 2.8
151 0.08
152 0.6
153 0.3
154 3.4
155 0.14
156 3.6
157 0.7
162 0.3
163 0.02
164 2.4
165 0.5
166 0.6
168 0.3
169 1.2
170 2.8
171 0.6
178 0.2
179 0.5
180 0.3
181 0.3
182 0.3
183 0.7
184 3.2
185 2.8
186 0.08
192 1.6
193 0.3
194 0.3
196 0.28
197 1
198 2.8
199 0.3
206 0.13
207 0.3
208 0.3
210 2.6
211 0.07
212 3.4
213 0.7
220 1.2
221 0.03
222 0.2
224 1.7
225 0.6
226 0.05
227 8.8
228 2.2
229 0.3
234 0.45
235 1
236 1.4
237 0.3
238 1.2
239 2.5
240 0.3
248 2.2
249 1.1
250 2.6
251 0.8
252 2.6
253 1.58
254 3.4
255 0.7
262 0.5
263 0.03
264 0.2
265 0.2
266 1.3
267 0.03
268 0.2
276 0.3
277 0.7
278 0.03
279 0.2
280 0.3
281 0.3
294 0.03
295 0.2

>  <PREDICTED SPECTRUM>  (4457) 
0 3
14 10
15 17
16 8
18 9
25 3
26 43
27 136
28 80
29 170
30 117
31 53
33 32
34 39
36 43
37 42
38 80
39 278
40 190
41 655
42 471
43 999
44 292
45 127
46 23
47 18
49 42
50 58
51 97
52 99
53 202
54 205
55 555
56 426
57 456
58 253
59 88
60 119
61 73
62 45
63 40
64 26
65 116
66 93
67 293
68 280
69 379
70 293
71 501
72 180
73 152
74 101
75 63
76 31
77 142
78 59
79 128
80 151
81 187
82 203
83 287
84 474
85 375
86 289
87 272
88 114
90 7
91 100
92 83
93 126
94 174
95 245
96 241
97 208
98 914
99 791
100 225
101 150
102 81
103 11
104 4
105 19
107 52
108 126
109 220
110 228
111 230
112 321
113 183
114 134
115 97
116 13
117 41
118 12
119 88
120 45
121 109
122 126
123 164
124 134
125 184
126 310
127 303
128 256
129 145
130 51
131 10
132 52
133 111
134 90
135 29
136 92
137 78
138 119
139 80
140 348
141 151
142 143
143 115
144 42
147 24
148 12
149 73
150 121
151 95
152 75
153 64
154 150
155 212
156 84
157 37
158 3
159 33
163 43
164 61
165 78
166 51
168 190
169 180
170 147
171 115
173 34
174 118
176 6
178 128
179 112
180 56
181 11
182 131
183 93
184 162
185 91
187 70
188 17
191 62
192 173
193 113
194 82
195 61
196 177
197 99
198 183
199 67
200 10
205 58
206 86
207 133
208 100
209 79
210 132
211 27
212 112
213 4
219 43
220 123
221 12
222 48
223 54
224 79
225 98
226 40
227 54
232 20
233 25
234 53
235 74
236 33
237 36
238 153
239 129
240 122
241 9
248 58
249 14
250 99
251 79
252 176
253 141
254 122
255 58
262 91
264 14
266 163
267 83
268 49
276 40
277 44
278 41
279 51
280 91
281 19
293 9
294 54
295 163
296 102

$$$$

     RDKit          2D

 19 19  0  0  0  0  0  0  0  0999 V2000
    7.4010   -6.5298    0.0000 C   0  0  0  0  0  0  0  0  0  0  0  0
  -12.0547   -6.8779    0.0000 C   0  0  0  0  0  0  0  0  0  0  0  0
    6.1019   -5.7798    0.0000 C   0  0  0  0  0  0  0  0  0  0  0  0
    4.8029   -6.5298    0.0000 C   0  0  0  0  0  0  0  0  0  0  0  0
    3.5039   -5.7798    0.0000 C   0  0  0  0  0  0  0  0  0  0  0  0
    2.2048   -6.5298    0.0000 C   0  0  0  0  0  0  0  0  0  0  0  0
    0.9058   -5.7798    0.0000 C   0  0  0  0  0  0  0  0  0  0  0  0
   -0.3933   -6.5298    0.0000 C   0  0  0  0  0  0  0  0  0  0  0  0
   -1.6923   -5.7798    0.0000 C   0  0  0  0  0  0  0  0  0  0  0  0
   -2.9913   -6.5298    0.0000 C   0  0  0  0  0  0  0  0  0  0  0  0
   -4.2904   -5.7798    0.0000 C   0  0  0  0  0  0  0  0  0  0  0  0
   -5.5894   -6.5298    0.0000 C   0  0  0  0  0  0  0  0  0  0  0  0
   -9.8130   -8.3343    0.0000 C   0  0  0  0  0  0  0  0  0  0  0  0
   -6.8884   -5.7798    0.0000 C   0  0  0  0  0  0  0  0  0  0  0  0
   -8.3532   -8.0227    0.0000 C   0  0  0  0  0  0  0  0  0  0  0  0
  -10.5630   -7.0353    0.0000 C   0  0  0  0  0  0  0  0  0  0  0  0
   -9.5632   -5.9269    0.0000 C   0  0  0  0  0  0  0  0  0  0  0  0
   -8.1875   -6.5298    0.0000 N   0  0  0  0  0  0  0  0  0  0  0  0
   -9.8788   -4.4605    0.0000 O   0  0  0  0  0  0  0  0  0  0  0  0
  3  1  1  0
  4  3  1  0
  5  4  1  0
  6  5  1  0
  7  6  1  0
  8  7  1  0
  9  8  1  0
 10  9  1  0
 11 10  1  0
 12 11  1  0
 14 12  1  0
 15 13  1  0
 16  2  1  0
 16 13  1  0
 17 16  1  0
 18 14  1  0
 18 15  1  0
 18 17  1  0
 19 17  2  0
M  END
>  <NAME>  (4458) 
N-DODECYL-3-METHYL-2-PYRROLIDONE

>  <SYNONYMS>  (4458) 


>  <SPECTRUM TYPE>  (4458) 
MS1

>  <INSTRUMENT TYPE>  (4458) 
EI-B

>  <INSTRUMENT>  (4458) 
HITACHI RMU-6E

>  <ION MODE>  (4458) 
P

>  <INCHIKEY>  (4458) 
FYOOQDICUASUJZ-UHFFFAOYSA-N

>  <FORMULA>  (4458) 
C17H33NO

>  <EXACT MASS>  (4458) 
267.256214676

>  <MW>  (4458) 
267

>  <ID>  (4458) 
JP004135

>  <CONTRIBUTOR>  (4458) 
University of Tokyo Team, {Faculty of Engineering, University of Tokyo

>  <COMMENT>  (4458) 
SMILES=CCCCCCCCCCCCN(C1)C(=O)C(C)C1
InChI=InChI=1S/C17H33NO/c1-3-4-5-6-7-8-9-10-11-12-14-18-15-13-16(2)17(18)19/h16H,3-15H2,1-2H3
computed SMILES=O=C1N(CCCCCCCCCCCC)CCC1C
accession=JP004135
date=2016.01.19 (Created 2008.10.21, modified 2011.05.06)
author=MASS SPECTROSCOPY SOC. OF JAPAN (MSSJ)
license=CC BY-NC-SA
exact mass=267.25621
ionization energy=70 eV
ion type=[M]+*
computed spectral entropy=3.2216201682038355
computed normalized entropy=0.7195393828282464
SPLASH=splash10-03ec-8930000000-05261f01de9c91f57ccc
submitter=submitter = University of Tokyo Team (Faculty of Engineering, University of Tokyo)
MoNA Rating=3.75

>  <NUM PEAKS>  (4458) 
88

>  <MASS SPECTRAL PEAKS>  (4458) 
26 0.4
27 4.2
28 7
29 1.1
30 16
31 0.4
32 0.6
39 0.34
40 0.8
41 26
42 16
43 1.74
44 4.4
45 0.8
53 1.2
54 0.14
55 21.4
56 12.8
57 7.4
58 0.1
67 1.6
68 1.2
69 4.2
70 0.28
71 1.4
72 0.6
74 0.8
81 0.06
82 2.4
83 2
84 52
85 0.34
86 2.2
87 2.2
96 0.7
97 0.05
98 4.3
99 1.5
100 11.8
101 0.1
110 0.6
111 0.6
112 99.99
113 9.04
114 7
115 0.6
124 0.4
125 0.03
126 20.6
127 7.8
128 1.4
138 0.06
139 0.2
140 21.6
141 8.8
142 0.15
154 9.8
155 4
156 0.6
168 0.64
169 1.8
170 0.6
182 4.4
183 0.12
184 0.6
185 0.4
196 5.2
197 0.12
198 0.4
210 3.8
211 1.4
212 0.16
213 0.2
224 3
225 2.4
226 0.04
238 2.8
239 0.6
240 0.2
241 0.1
242 0.2
250 0.3
252 1.4
253 0.04
266 1.8
267 49
268 9
269 1

>  <PREDICTED SPECTRUM>  (4458) 
26 5
27 154
28 142
29 194
30 156
39 135
40 61
41 417
42 400
43 392
44 257
45 28
51 21
53 100
54 120
55 354
56 364
57 281
58 152
59 62
65 15
67 111
68 157
69 198
70 256
71 155
72 132
73 3
79 22
81 77
82 132
83 215
84 476
85 200
86 136
95 22
96 85
97 58
98 323
99 239
100 115
110 21
111 7
112 999
113 475
114 133
126 322
127 208
128 3
138 2
140 424
141 188
152 0
154 229
155 60
166 0
168 254
169 114
182 185
183 74
184 40
196 171
197 40
210 206
211 142
212 62
224 157
225 95
238 191
239 89
250 28
252 170
253 22
265 63
266 203
267 655
268 309
269 130

$$$$

     RDKit          2D

 19 19  0  0  0  0  0  0  0  0999 V2000
   12.0322   -6.3103    0.0000 C   0  0  0  0  0  0  0  0  0  0  0  0
   -2.6098   -3.8110    0.0000 C   0  0  0  0  0  0  0  0  0  0  0  0
   10.7331   -7.0603    0.0000 C   0  0  0  0  0  0  0  0  0  0  0  0
    9.4341   -6.3103    0.0000 C   0  0  0  0  0  0  0  0  0  0  0  0
    8.1351   -7.0603    0.0000 C   0  0  0  0  0  0  0  0  0  0  0  0
    6.8360   -6.3103    0.0000 C   0  0  0  0  0  0  0  0  0  0  0  0
    5.5370   -7.0603    0.0000 C   0  0  0  0  0  0  0  0  0  0  0  0
    4.2379   -6.3103    0.0000 C   0  0  0  0  0  0  0  0  0  0  0  0
    2.9389   -7.0603    0.0000 C   0  0  0  0  0  0  0  0  0  0  0  0
    1.6399   -6.3103    0.0000 C   0  0  0  0  0  0  0  0  0  0  0  0
    0.3408   -7.0603    0.0000 C   0  0  0  0  0  0  0  0  0  0  0  0
   -0.9582   -6.3103    0.0000 C   0  0  0  0  0  0  0  0  0  0  0  0
   -5.1818   -4.5058    0.0000 C   0  0  0  0  0  0  0  0  0  0  0  0
   -5.9318   -5.8048    0.0000 C   0  0  0  0  0  0  0  0  0  0  0  0
   -2.2573   -7.0603    0.0000 C   0  0  0  0  0  0  0  0  0  0  0  0
   -3.7221   -4.8174    0.0000 C   0  0  0  0  0  0  0  0  0  0  0  0
   -4.9321   -6.9132    0.0000 C   0  0  0  0  0  0  0  0  0  0  0  0
   -3.5563   -6.3103    0.0000 N   0  0  0  0  0  0  0  0  0  0  0  0
   -5.2476   -8.3797    0.0000 O   0  0  0  0  0  0  0  0  0  0  0  0
  3  1  1  0
  4  3  1  0
  5  4  1  0
  6  5  1  0
  7  6  1  0
  8  7  1  0
  9  8  1  0
 10  9  1  0
 11 10  1  0
 12 11  1  0
 14 13  1  0
 15 12  1  0
 16  2  1  0
 16 13  1  0
 17 14  1  0
 18 15  1  0
 18 16  1  0
 18 17  1  0
 19 17  2  0
M  END
>  <NAME>  (4459) 
N-DODECYL-5-METHYL-2-PYRROLIDONE

>  <SYNONYMS>  (4459) 


>  <SPECTRUM TYPE>  (4459) 
MS1

>  <INSTRUMENT TYPE>  (4459) 
EI-B

>  <INSTRUMENT>  (4459) 
HITACHI RMU-6E

>  <ION MODE>  (4459) 
P

>  <INCHIKEY>  (4459) 
WFUJIEKVPAOBIK-UHFFFAOYSA-N

>  <FORMULA>  (4459) 
C17H33NO

>  <EXACT MASS>  (4459) 
267.256214676

>  <MW>  (4459) 
267

>  <ID>  (4459) 
JP004134

>  <CONTRIBUTOR>  (4459) 
University of Tokyo Team, {Faculty of Engineering, University of Tokyo

>  <COMMENT>  (4459) 
SMILES=CCCCCCCCCCCCN(C(C)1)C(=O)CC1
InChI=InChI=1S/C17H33NO/c1-3-4-5-6-7-8-9-10-11-12-15-18-16(2)13-14-17(18)19/h16H,3-15H2,1-2H3
computed SMILES=O=C1N(CCCCCCCCCCCC)C(C)CC1
accession=JP004134
date=2016.01.19 (Created 2008.10.21, modified 2011.05.06)
author=MASS SPECTROSCOPY SOC. OF JAPAN (MSSJ)
license=CC BY-NC-SA
exact mass=267.25621
ionization energy=70 eV
ion type=[M]+*
computed spectral entropy=3.3578606744458197
computed normalized entropy=0.7340049874679393
SPLASH=splash10-03di-7910000000-b1f12fb084349a131c46
submitter=submitter = University of Tokyo Team (Faculty of Engineering, University of Tokyo)
MoNA Rating=3.75

>  <NUM PEAKS>  (4459) 
97

>  <MASS SPECTRAL PEAKS>  (4459) 
27 6.8
28 9.2
29 16
30 6.74
31 1.4
39 5.2
40 1.2
41 3.18
42 7.8
43 11.4
45 5
53 0.24
54 2.4
55 30.4
56 20.4
57 1.14
58 1.4
59 1.6
67 4.2
68 0.2
69 9
70 5.6
71 2.8
72 0.24
73 0.8
79 0.4
80 0.4
81 0.1
82 3.4
83 13
84 18
85 0.6
86 4.6
87 0.6
94 1
95 0.04
96 1.4
97 1.8
98 16
99 0.22
100 10.4
101 0.6
110 1
111 0.16
112 99.99
113 71
114 6.2
115 0.04
124 0.6
125 0.4
126 15
127 0.8
128 1.2
137 0.2
138 1.2
139 0.04
140 18
141 5.2
142 1.2
152 0.04
153 0.2
154 8.4
155 2.4
156 0.1
166 0.4
167 0.3
168 10
169 0.26
170 0.4
180 0.4
182 6
183 0.14
184 1
185 1.6
186 0.6
196 0.64
197 1.2
198 0.8
199 0.2
210 0.46
211 1.2
212 0.8
213 0.4
224 0.36
225 1.2
226 0.2
238 3.6
239 0.06
250 1.2
251 0.2
252 17.8
253 0.34
254 0.2
266 2
267 26
268 0.6
269 0.8

>  <PREDICTED SPECTRUM>  (4459) 
18 10
26 27
27 179
28 169
29 242
30 270
39 174
40 70
41 412
42 286
43 404
44 239
51 54
52 30
53 153
54 166
55 561
56 323
57 321
58 108
59 20
67 194
68 181
69 368
70 293
71 214
72 179
73 4
77 55
79 54
80 94
81 186
82 221
83 400
84 376
85 180
86 159
95 3
96 81
97 136
98 263
99 106
100 202
106 29
109 9
110 47
111 87
112 999
113 622
114 200
125 85
126 333
127 221
128 135
140 603
141 348
154 329
155 170
168 237
169 12
182 280
183 145
196 264
197 70
198 59
210 131
212 53
213 34
224 100
225 105
227 23
238 228
239 32
250 4
252 531
253 209
254 7
265 26
266 161
267 670
268 271
269 112

$$$$

     RDKit          2D

 16 16  0  0  0  0  0  0  0  0999 V2000
    8.7846   -5.1853    0.0000 C   0  0  0  0  0  0  0  0  0  0  0  0
   -1.9603   -1.9360    0.0000 C   0  0  0  0  0  0  0  0  0  0  0  0
    7.4855   -4.4353    0.0000 C   0  0  0  0  0  0  0  0  0  0  0  0
    6.1865   -5.1853    0.0000 C   0  0  0  0  0  0  0  0  0  0  0  0
    4.8875   -4.4353    0.0000 C   0  0  0  0  0  0  0  0  0  0  0  0
    3.5884   -5.1853    0.0000 C   0  0  0  0  0  0  0  0  0  0  0  0
    2.2894   -4.4353    0.0000 C   0  0  0  0  0  0  0  0  0  0  0  0
    0.9903   -5.1853    0.0000 C   0  0  0  0  0  0  0  0  0  0  0  0
   -0.3087   -4.4353    0.0000 C   0  0  0  0  0  0  0  0  0  0  0  0
   -4.5323   -2.6308    0.0000 C   0  0  0  0  0  0  0  0  0  0  0  0
   -5.2823   -3.9298    0.0000 C   0  0  0  0  0  0  0  0  0  0  0  0
   -1.6077   -5.1853    0.0000 C   0  0  0  0  0  0  0  0  0  0  0  0
   -3.0725   -2.9424    0.0000 C   0  0  0  0  0  0  0  0  0  0  0  0
   -4.2825   -5.0382    0.0000 C   0  0  0  0  0  0  0  0  0  0  0  0
   -2.9068   -4.4353    0.0000 N   0  0  0  0  0  0  0  0  0  0  0  0
   -4.5981   -6.5047    0.0000 O   0  0  0  0  0  0  0  0  0  0  0  0
  3  1  1  0
  4  3  1  0
  5  4  1  0
  6  5  1  0
  7  6  1  0
  8  7  1  0
  9  8  1  0
 11 10  1  0
 12  9  1  0
 13  2  1  0
 13 10  1  0
 14 11  1  0
 15 12  1  0
 15 13  1  0
 15 14  1  0
 16 14  2  0
M  END
>  <NAME>  (4460) 
5-METHYL-N-NONYL-2-PYRROLIDONE

>  <SYNONYMS>  (4460) 


>  <SPECTRUM TYPE>  (4460) 
MS1

>  <INSTRUMENT TYPE>  (4460) 
EI-B

>  <INSTRUMENT>  (4460) 
HITACHI RMU-6E

>  <ION MODE>  (4460) 
P

>  <INCHIKEY>  (4460) 
XUFUPFVDXQDCNH-UHFFFAOYSA-N

>  <FORMULA>  (4460) 
C14H27NO

>  <EXACT MASS>  (4460) 
225.20926448400002

>  <MW>  (4460) 
225

>  <ID>  (4460) 
JP004133

>  <CONTRIBUTOR>  (4460) 
University of Tokyo Team, {Faculty of Engineering, University of Tokyo

>  <COMMENT>  (4460) 
computed SMILES=O=C1N(CCCCCCCCC)C(C)CC1
SMILES=CCCCCCCCCN(C(C)1)C(=O)CC1
InChI=InChI=1S/C14H27NO/c1-3-4-5-6-7-8-9-12-15-13(2)10-11-14(15)16/h13H,3-12H2,1-2H3
accession=JP004133
date=2016.01.19 (Created 2008.10.21, modified 2011.05.06)
author=MASS SPECTROSCOPY SOC. OF JAPAN (MSSJ)
license=CC BY-NC-SA
exact mass=225.20926
ionization energy=70 eV
ion type=[M]+*
computed spectral entropy=2.9490303652997545
computed normalized entropy=0.6789048032545802
SPLASH=splash10-03di-5910000000-57e6dee087eaa7fcd7bf
submitter=submitter = University of Tokyo Team (Faculty of Engineering, University of Tokyo)
MoNA Rating=3.75

>  <NUM PEAKS>  (4460) 
77

>  <MASS SPECTRAL PEAKS>  (4460) 
27 4
28 5
29 9
30 0.68
39 2.8
40 0.6
41 15
42 0.48
43 8.4
44 4
45 0.4
53 0.14
54 1.6
55 17
56 7.6
57 0.6
58 1.4
67 3
68 1.6
69 0.3
70 2.4
71 2.4
72 0.8
73 0.04
80 0.4
81 0.8
82 3
83 1.1
84 19.4
85 2.4
86 1
94 0.08
95 0.4
96 0.8
97 0.8
98 1.44
99 1.6
100 5.6
101 0.4
110 0.08
111 0.8
112 99.99
113 55
114 0.44
115 0.4
124 0.6
125 0.2
126 1.18
127 3.2
128 0.4
138 0.6
139 0.02
140 16.2
141 3.2
142 0.8
154 0.58
155 1.6
156 3.8
157 0.4
168 0.44
169 1.2
170 0.8
182 2.8
183 0.08
184 0.2
196 4
197 1
198 0.02
208 1
209 0.2
210 17
211 0.24
212 0.2
224 1.2
225 23
226 0.4
227 0.4

>  <PREDICTED SPECTRUM>  (4460) 
18 2
26 70
27 276
28 184
29 256
30 209
38 16
39 229
40 126
41 447
42 352
43 328
44 51
51 56
52 36
53 121
54 155
55 552
56 350
57 197
58 118
65 6
66 19
67 193
68 208
69 309
70 366
71 154
72 249
78 0
79 42
80 82
81 172
82 205
83 341
84 524
85 367
86 188
95 117
96 127
97 62
98 446
99 111
100 262
110 74
111 62
112 999
113 459
114 59
126 327
127 93
128 0
140 372
141 191
142 39
154 289
155 99
156 121
168 186
169 38
182 203
183 102
184 64
185 85
196 235
197 46
208 34
210 463
211 202
224 45
225 677
226 275
227 77

$$$$

     RDKit          2D

 17 17  0  0  0  0  0  0  0  0999 V2000
   10.0836   -5.1853    0.0000 C   0  0  0  0  0  0  0  0  0  0  0  0
   -1.9603   -2.6860    0.0000 C   0  0  0  0  0  0  0  0  0  0  0  0
    8.7846   -5.9353    0.0000 C   0  0  0  0  0  0  0  0  0  0  0  0
    7.4855   -5.1853    0.0000 C   0  0  0  0  0  0  0  0  0  0  0  0
    6.1865   -5.9353    0.0000 C   0  0  0  0  0  0  0  0  0  0  0  0
    4.8875   -5.1853    0.0000 C   0  0  0  0  0  0  0  0  0  0  0  0
    3.5884   -5.9353    0.0000 C   0  0  0  0  0  0  0  0  0  0  0  0
    2.2894   -5.1853    0.0000 C   0  0  0  0  0  0  0  0  0  0  0  0
    0.9903   -5.9353    0.0000 C   0  0  0  0  0  0  0  0  0  0  0  0
   -0.3087   -5.1853    0.0000 C   0  0  0  0  0  0  0  0  0  0  0  0
   -4.5323   -3.3808    0.0000 C   0  0  0  0  0  0  0  0  0  0  0  0
   -5.2823   -4.6798    0.0000 C   0  0  0  0  0  0  0  0  0  0  0  0
   -1.6077   -5.9353    0.0000 C   0  0  0  0  0  0  0  0  0  0  0  0
   -3.0725   -3.6924    0.0000 C   0  0  0  0  0  0  0  0  0  0  0  0
   -4.2825   -5.7882    0.0000 C   0  0  0  0  0  0  0  0  0  0  0  0
   -2.9068   -5.1853    0.0000 N   0  0  0  0  0  0  0  0  0  0  0  0
   -4.5981   -7.2547    0.0000 O   0  0  0  0  0  0  0  0  0  0  0  0
  3  1  1  0
  4  3  1  0
  5  4  1  0
  6  5  1  0
  7  6  1  0
  8  7  1  0
  9  8  1  0
 10  9  1  0
 12 11  1  0
 13 10  1  0
 14  2  1  0
 14 11  1  0
 15 12  1  0
 16 13  1  0
 16 14  1  0
 16 15  1  0
 17 15  2  0
M  END
>  <NAME>  (4461) 
N-DECYL-5-METHYL-2-PYRROLIDONE

>  <SYNONYMS>  (4461) 


>  <SPECTRUM TYPE>  (4461) 
MS1

>  <INSTRUMENT TYPE>  (4461) 
EI-B

>  <INSTRUMENT>  (4461) 
HITACHI RMU-6E

>  <ION MODE>  (4461) 
P

>  <INCHIKEY>  (4461) 
XNNZELUYRQQXRD-UHFFFAOYSA-N

>  <FORMULA>  (4461) 
C15H29NO

>  <EXACT MASS>  (4461) 
239.224914548

>  <MW>  (4461) 
239

>  <ID>  (4461) 
JP004132

>  <CONTRIBUTOR>  (4461) 
University of Tokyo Team, {Faculty of Engineering, University of Tokyo

>  <COMMENT>  (4461) 
SMILES=CCCCCCCCCCN(C(C)1)C(=O)CC1
InChI=InChI=1S/C15H29NO/c1-3-4-5-6-7-8-9-10-13-16-14(2)11-12-15(16)17/h14H,3-13H2,1-2H3
computed SMILES=O=C1N(CCCCCCCCCC)C(C)CC1
accession=JP004132
date=2016.01.19 (Created 2008.10.21, modified 2011.05.06)
author=MASS SPECTROSCOPY SOC. OF JAPAN (MSSJ)
license=CC BY-NC-SA
exact mass=239.22491
ionization energy=70 eV
ion type=[M]+*
computed spectral entropy=2.905008176500122
computed normalized entropy=0.655637167679442
SPLASH=splash10-03di-4910000000-b3f647a4015513422ff8
submitter=submitter = University of Tokyo Team (Faculty of Engineering, University of Tokyo)
MoNA Rating=3.75

>  <NUM PEAKS>  (4461) 
84

>  <MASS SPECTRAL PEAKS>  (4461) 
26 0.3
27 3
28 4
29 0.8
30 14
31 0.3
32 0.3
39 0.18
40 0.6
41 16
42 3.8
43 0.89
44 3
45 0.8
53 1
54 0.08
55 18
56 7.8
57 4.6
58 0.08
59 0.3
67 1.8
68 1
69 0.28
70 2
71 1.6
72 0.6
73 0.03
81 0.4
82 2.6
83 9.2
84 1.48
85 2.8
86 1
87 0.2
94 0.04
95 0.2
96 0.3
97 1
98 1.42
99 1.6
100 4
101 0.4
110 0.05
111 0.6
112 99.99
113 59.6
114 0.32
115 0.2
124 0.4
126 11.8
127 0.3
128 0.5
138 0.6
140 14.6
141 0.26
142 0.4
152 0.2
154 5
155 0.22
156 0.2
157 0.2
168 6
169 0.12
170 0.6
182 2.5
183 1.7
184 0.17
196 2.5
197 1.7
198 0.1
199 0.02
210 2.4
211 0.6
212 0.2
223 0.06
224 0.1
225 14.8
226 0.1
238 0.12
239 24
240 3.2
241 0.3
242 0.2

>  <PREDICTED SPECTRUM>  (4461) 
26 42
27 161
28 128
29 179
30 173
38 3
39 153
40 81
41 324
42 234
43 258
44 6
51 39
52 21
53 96
54 121
55 436
56 253
57 180
58 86
66 7
67 142
68 131
69 247
70 231
71 119
72 142
77 16
79 35
80 70
81 142
82 170
83 305
84 340
85 211
86 153
95 43
96 79
97 110
98 279
99 95
100 283
101 18
109 17
110 52
111 23
112 999
113 547
114 72
126 249
127 120
128 16
140 279
141 78
154 185
155 142
156 3
168 280
169 67
170 78
182 113
183 4
184 4
196 141
197 84
198 17
199 44
210 168
211 28
222 17
224 182
225 152
237 2
238 77
239 545
240 224
241 71

$$$$

     RDKit          2D

 21 21  0  0  0  0  0  0  0  0999 V2000
   13.9807   -7.4353    0.0000 C   0  0  0  0  0  0  0  0  0  0  0  0
   -3.2594   -4.9360    0.0000 C   0  0  0  0  0  0  0  0  0  0  0  0
   12.6817   -8.1853    0.0000 C   0  0  0  0  0  0  0  0  0  0  0  0
   11.3826   -7.4353    0.0000 C   0  0  0  0  0  0  0  0  0  0  0  0
   10.0836   -8.1853    0.0000 C   0  0  0  0  0  0  0  0  0  0  0  0
    8.7846   -7.4353    0.0000 C   0  0  0  0  0  0  0  0  0  0  0  0
    7.4855   -8.1853    0.0000 C   0  0  0  0  0  0  0  0  0  0  0  0
    6.1865   -7.4353    0.0000 C   0  0  0  0  0  0  0  0  0  0  0  0
    4.8875   -8.1853    0.0000 C   0  0  0  0  0  0  0  0  0  0  0  0
    3.5884   -7.4353    0.0000 C   0  0  0  0  0  0  0  0  0  0  0  0
    2.2894   -8.1853    0.0000 C   0  0  0  0  0  0  0  0  0  0  0  0
    0.9903   -7.4353    0.0000 C   0  0  0  0  0  0  0  0  0  0  0  0
   -0.3087   -8.1853    0.0000 C   0  0  0  0  0  0  0  0  0  0  0  0
   -1.6077   -7.4353    0.0000 C   0  0  0  0  0  0  0  0  0  0  0  0
   -5.8313   -5.6308    0.0000 C   0  0  0  0  0  0  0  0  0  0  0  0
   -6.5813   -6.9298    0.0000 C   0  0  0  0  0  0  0  0  0  0  0  0
   -2.9068   -8.1853    0.0000 C   0  0  0  0  0  0  0  0  0  0  0  0
   -4.3716   -5.9424    0.0000 C   0  0  0  0  0  0  0  0  0  0  0  0
   -5.5816   -8.0382    0.0000 C   0  0  0  0  0  0  0  0  0  0  0  0
   -4.2058   -7.4353    0.0000 N   0  0  0  0  0  0  0  0  0  0  0  0
   -5.8971   -9.5047    0.0000 O   0  0  0  0  0  0  0  0  0  0  0  0
  3  1  1  0
  4  3  1  0
  5  4  1  0
  6  5  1  0
  7  6  1  0
  8  7  1  0
  9  8  1  0
 10  9  1  0
 11 10  1  0
 12 11  1  0
 13 12  1  0
 14 13  1  0
 16 15  1  0
 17 14  1  0
 18  2  1  0
 18 15  1  0
 19 16  1  0
 20 17  1  0
 20 18  1  0
 20 19  1  0
 21 19  2  0
M  END
>  <NAME>  (4462) 
5-METHYL-N-TETRADECYL-2-PYRROLIDONE

>  <SYNONYMS>  (4462) 


>  <SPECTRUM TYPE>  (4462) 
MS1

>  <INSTRUMENT TYPE>  (4462) 
EI-B

>  <INSTRUMENT>  (4462) 
HITACHI RMU-6E

>  <ION MODE>  (4462) 
P

>  <INCHIKEY>  (4462) 
SJXQIZZEFURXKK-UHFFFAOYSA-N

>  <FORMULA>  (4462) 
C19H37NO

>  <EXACT MASS>  (4462) 
295.287514804

>  <MW>  (4462) 
295

>  <ID>  (4462) 
JP004131

>  <CONTRIBUTOR>  (4462) 
University of Tokyo Team, {Faculty of Engineering, University of Tokyo

>  <COMMENT>  (4462) 
SMILES=CCCCCCCCCCCCCCN(C(C)1)C(=O)CC1
InChI=InChI=1S/C19H37NO/c1-3-4-5-6-7-8-9-10-11-12-13-14-17-20-18(2)15-16-19(20)21/h18H,3-17H2,1-2H3
computed SMILES=O=C1N(CCCCCCCCCCCCCC)C(C)CC1
accession=JP004131
date=2016.01.19 (Created 2008.10.21, modified 2011.05.06)
author=MASS SPECTROSCOPY SOC. OF JAPAN (MSSJ)
license=CC BY-NC-SA
exact mass=295.28751
ionization energy=70 eV
ion type=[M]+*
computed spectral entropy=3.5658052052910656
computed normalized entropy=0.7904935190598461
SPLASH=splash10-01qc-9420000000-0a416e7bd18546be4b99
submitter=submitter = University of Tokyo Team (Faculty of Engineering, University of Tokyo)
MoNA Rating=3.75

>  <NUM PEAKS>  (4462) 
91

>  <MASS SPECTRAL PEAKS>  (4462) 
27 5.6
28 10.4
29 14.4
30 99.99
31 2.8
32 0.8
39 3.8
40 0.18
41 27.4
42 8
43 25.4
44 2
45 10
53 1.8
54 2
55 2.7
56 19
57 14
58 2.4
59 0.3
67 3
68 2.4
69 11.8
70 0.68
71 4.6
72 4.8
73 2.2
74 0.14
81 1
82 3
83 10.4
84 0.98
85 5.2
86 7.8
87 1.2
94 0.04
95 0.6
97 1
98 11
99 0.2
100 10
101 0.8
111 1.4
112 8.04
113 61
114 6
115 1
124 0.1
125 0.8
126 14.4
127 10
128 0.2
138 0.8
140 14.2
141 5.4
142 0.24
154 9
155 2.8
156 1.6
168 1.26
169 2.8
170 1.2
182 6
183 0.2
184 1.2
185 1
196 5.4
197 0.16
198 1.2
210 4.8
211 1.6
212 0.18
213 3.8
214 1.2
224 5
225 0.12
238 3.4
239 1.2
240 1.2
252 0.36
253 1.2
266 3.4
267 5.4
268 0.12
278 0.8
280 11.8
281 2.6
294 0.22
295 23.4
296 6
297 0.8

>  <PREDICTED SPECTRUM>  (4462) 
18 6
26 54
27 251
28 228
29 383
30 411
36 0
39 235
40 93
41 646
42 390
43 699
44 299
45 81
51 69
52 23
53 223
54 250
55 851
56 518
57 616
58 271
59 78
67 341
68 279
69 565
70 518
71 430
72 473
73 125
77 23
79 89
80 94
81 264
82 291
83 523
84 546
85 303
86 329
87 15
95 28
96 166
97 257
98 489
99 309
100 320
101 80
110 57
111 201
112 999
113 548
114 209
124 62
125 10
126 580
127 374
128 191
138 30
140 806
141 505
142 176
153 79
154 601
155 341
168 488
169 267
182 516
183 248
184 84
196 325
197 70
198 52
210 320
211 148
212 60
224 168
225 124
226 118
238 193
239 27
240 174
241 79
252 176
253 118
254 10
255 60
266 380
267 127
278 57
280 759
281 360
282 65
294 196
295 865
296 428
297 166

$$$$

     RDKit          2D

 17 17  0  0  0  0  0  0  0  0999 V2000
    2.5987    3.0002    0.0000 C   0  0  0  0  0  0  0  0  0  0  0  0
   -3.1483    0.5487    0.0000 C   0  0  0  0  0  0  0  0  0  0  0  0
   -5.1972   -0.0006    0.0000 C   0  0  0  0  0  0  0  0  0  0  0  0
    6.4962    0.7508    0.0000 C   0  0  0  0  0  0  0  0  0  0  0  0
   -1.3000    0.7500    0.0000 C   0  0  0  0  0  0  0  0  0  0  0  0
   -0.0000   -1.5000    0.0000 C   0  0  0  0  0  0  0  0  0  0  0  0
    0.0000    1.5000    0.0000 C   0  0  0  0  0  0  0  0  0  0  0  0
    1.3000   -0.7500    0.0000 C   0  0  0  0  0  0  0  0  0  0  0  0
   -2.5989   -1.5002    0.0000 C   0  0  0  0  0  0  0  0  0  0  0  0
    2.5989    1.5002    0.0000 C   0  0  0  0  0  0  0  0  0  0  0  0
   -1.3000   -0.7500    0.0000 C   0  0  0  0  0  0  0  0  0  0  0  0
    1.3000    0.7500    0.0000 C   0  0  0  0  0  0  0  0  0  0  0  0
    3.8981    0.7504    0.0000 C   0  0  0  0  0  0  0  0  0  0  0  0
   -3.8981   -0.7504    0.0000 C   0  0  0  0  0  0  0  0  0  0  0  0
    3.8983   -0.7496    0.0000 O   0  0  0  0  0  0  0  0  0  0  0  0
   -4.6479   -2.0496    0.0000 O   0  0  0  0  0  0  0  0  0  0  0  0
    5.1970    1.5006    0.0000 O   0  0  0  0  0  0  0  0  0  0  0  0
  7  5  2  0
  8  6  1  0
 10  1  1  0
 11  5  1  0
 11  6  2  0
 11  9  1  0
 12  7  1  0
 12  8  2  0
 12 10  1  0
 13 10  1  0
 14  2  1  0
 14  3  1  0
 14  9  1  0
 15 13  2  0
 16 14  1  0
 17  4  1  0
 17 13  1  0
M  END
>  <NAME>  (4463) 
METHYL 2-(4-(2-HYDROXY-2-METHYLPROPYL)PHENYL)PROPIONATE

>  <SYNONYMS>  (4463) 


>  <SPECTRUM TYPE>  (4463) 
MS1

>  <INSTRUMENT TYPE>  (4463) 
EI-B

>  <INSTRUMENT>  (4463) 
HITACHI RMU-6E

>  <ION MODE>  (4463) 
P

>  <INCHIKEY>  (4463) 
GVQBZZMJMBIALH-UHFFFAOYSA-N

>  <FORMULA>  (4463) 
C14H20O3

>  <EXACT MASS>  (4463) 
236.14124449999997

>  <MW>  (4463) 
236

>  <ID>  (4463) 
JP004130

>  <CONTRIBUTOR>  (4463) 
University of Tokyo Team, {Faculty of Engineering, University of Tokyo

>  <COMMENT>  (4463) 
SMILES=COC(=O)C(C)c(c1)ccc(c1)CC(C)(C)O
InChI=InChI=1S/C14H20O3/c1-10(13(15)17-4)12-7-5-11(6-8-12)9-14(2,3)16/h5-8,10,16H,9H2,1-4H3
computed SMILES=O=C(OC)C(C1=CC=C(C=C1)CC(O)(C)C)C
accession=JP004130
date=2016.01.19 (Created 2008.10.21, modified 2011.05.06)
author=YAMAMOTO M, DEP. CHEMISTRY, FAC. SCIENCE, NARA WOMEN'S UNIV.
license=CC BY-NC-SA
exact mass=236.14124
ionization energy=70 eV
ion type=[M]+*
computed spectral entropy=2.5591652139914034
computed normalized entropy=0.6985456943777709
SPLASH=splash10-014l-7900000000-5a002f9e69828c625fd4
submitter=submitter = University of Tokyo Team (Faculty of Engineering, University of Tokyo)
MoNA Rating=3.75

>  <NUM PEAKS>  (4463) 
39

>  <MASS SPECTRAL PEAKS>  (4463) 
15 4.2
27 2.4
29 2.7
31 8.9
39 4.5
41 7.2
43 30.6
51 0.23
58 4.6
59 75.7
60 2.6
63 0.18
65 3.9
77 5.8
78 2.7
79 0.24
91 86.6
92 7.3
103 4.2
104 0.26
105 6.9
115 7.5
116 2.8
117 2.35
118 93.7
119 99.99
120 9.4
121 0.29
128 1.9
131 2.5
159 4.6
161 1.7
162 2.4
177 9.2
178 57
179 0.7
219 2.8
221 2.2
236 0.3

>  <PREDICTED SPECTRUM>  (4463) 
14 4
15 86
16 6
17 7
18 8
26 16
27 105
28 25
29 101
31 99
32 28
39 185
40 30
41 201
42 40
43 483
44 70
45 81
50 42
51 173
52 44
53 83
55 54
57 39
58 84
59 741
60 151
62 33
63 96
64 58
65 166
66 29
69 23
70 36
71 72
77 255
78 128
79 122
80 7
87 33
89 122
90 100
91 708
92 201
93 15
102 72
103 201
104 73
105 174
115 325
116 111
117 490
118 999
119 910
120 278
121 73
122 21
127 13
128 100
131 52
132 0
133 11
134 14
141 17
143 18
146 17
159 180
160 202
161 192
162 134
176 22
177 85
178 850
179 237
180 18
219 58
221 99
236 59
237 19

$$$$

     RDKit          2D

 12 12  0  0  0  0  0  0  0  0999 V2000
   -2.5476    4.3306    0.0000 C   0  0  0  0  0  0  0  0  0  0  0  0
   -4.5966    3.7816    0.0000 C   0  0  0  0  0  0  0  0  0  0  0  0
   -4.0476    1.7326    0.0000 C   0  0  0  0  0  0  0  0  0  0  0  0
    3.1976    0.7816    0.0000 C   0  0  0  0  0  0  0  0  0  0  0  0
    3.1981    2.2824    0.0000 C   0  0  0  0  0  0  0  0  0  0  0  0
    1.8981    0.0308    0.0000 C   0  0  0  0  0  0  0  0  0  0  0  0
    1.8990    3.0324    0.0000 C   0  0  0  0  0  0  0  0  0  0  0  0
    0.5990    0.7808    0.0000 C   0  0  0  0  0  0  0  0  0  0  0  0
   -0.6995    3.0316    0.0000 C   0  0  0  0  0  0  0  0  0  0  0  0
    0.5995    2.2816    0.0000 C   0  0  0  0  0  0  0  0  0  0  0  0
   -1.9986    2.2816    0.0000 N   0  0  0  0  0  0  0  0  0  0  0  0
   -3.2976    3.0316    0.0000 Si  0  0  0  0  0  4  0  0  0  0  0  0
  5  4  2  0
  6  4  1  0
  7  5  1  0
  8  6  2  0
 10  7  2  0
 10  8  1  0
 10  9  1  0
 11  9  1  0
 12  1  1  0
 12  2  1  0
 12  3  1  0
 12 11  1  0
M  END
>  <NAME>  (4464) 
N-(TRIMETHYLSILYL)BENZYLAMINE

>  <SYNONYMS>  (4464) 


>  <SPECTRUM TYPE>  (4464) 
MS1

>  <INSTRUMENT TYPE>  (4464) 
EI-B

>  <INSTRUMENT>  (4464) 
HITACHI M-68

>  <ION MODE>  (4464) 
P

>  <INCHIKEY>  (4464) 
OVONARZNQIKMGQ-UHFFFAOYSA-N

>  <FORMULA>  (4464) 
C10H17NSi

>  <EXACT MASS>  (4464) 
179.113026074

>  <MW>  (4464) 
179

>  <ID>  (4464) 
JP004128

>  <CONTRIBUTOR>  (4464) 
University of Tokyo Team, {Faculty of Engineering, University of Tokyo

>  <COMMENT>  (4464) 
SMILES=c(c1)ccc(c1)CN[Si](C)(C)C
InChI=InChI=1S/C10H17NSi/c1-12(2,3)11-9-10-7-5-4-6-8-10/h4-8,11H,9H2,1-3H3
computed SMILES=C=1C=CC(=CC1)CN[Si](C)(C)C
accession=JP004128
date=2016.01.19 (Created 2008.10.21, modified 2011.05.06)
author=YAMAMOTO M, DEP. CHEMISTRY, FAC. SCIENCE, NARA WOMEN'S UNIV.
license=CC BY-NC-SA
exact mass=179.11303
ionization energy=70 eV
ion type=[M]+*
computed spectral entropy=2.759987778028286
computed normalized entropy=0.7055141992259892
SPLASH=splash10-03dr-3900000000-a656c2577bc0736312a7
submitter=submitter = University of Tokyo Team (Faculty of Engineering, University of Tokyo)
MoNA Rating=3.75

>  <NUM PEAKS>  (4464) 
50

>  <MASS SPECTRAL PEAKS>  (4464) 
72 2.2
73 43.7
73.5 2.7
74 5.9
74.5 1.8
75 6.2
76 1.2
77 0.93
78 4
79 6
82 2.3
86 0.46
89 2.1
91 25.6
92 1.9
93 0.71
95 2.7
100 2.1
101 3.3
102 1.28
103 2.2
104 6.8
105 5.5
106 1.15
107 6.2
108 0.8
116 1
119 0.18
121 2.1
132 3.5
133 1.3
134 0.1
135 80
136 14.5
137 3.7
145 0.16
146 1
147 3.6
148 6.8
149 0.12
162 6.7
163 1.1
164 99.99
165 1.56
166 4.4
177 1
178 30.9
179 4.3
180 7.9
181 1.9

>  <PREDICTED SPECTRUM>  (4464) 
15 55
18 14
26 13
27 99
28 104
29 136
30 111
31 123
39 54
42 167
43 236
44 147
45 284
46 101
47 65
50 56
51 131
52 101
53 74
54 32
55 1
56 55
57 91
58 212
59 294
60 168
61 98
62 29
63 84
65 269
66 63
72 139
73 786
74 239
75 189
76 10
77 120
78 96
79 112
80 3
83 4
86 92
88 146
89 151
90 47
91 768
92 208
93 104
100 74
102 214
103 138
104 172
105 170
106 182
107 175
118 19
119 13
120 146
121 99
132 10
133 9
134 87
135 366
136 159
137 74
148 164
149 86
150 0
162 79
163 39
164 999
165 433
166 211
167 38
176 15
177 66
178 241
179 491
180 215
181 55

$$$$

     RDKit          2D

 13 13  0  0  0  0  0  0  0  0999 V2000
   -1.9986    0.7816    0.0000 C   0  0  0  0  0  0  0  0  0  0  0  0
   -2.5476    4.3306    0.0000 C   0  0  0  0  0  0  0  0  0  0  0  0
   -4.5966    3.7816    0.0000 C   0  0  0  0  0  0  0  0  0  0  0  0
   -4.0476    1.7326    0.0000 C   0  0  0  0  0  0  0  0  0  0  0  0
    3.1976    0.7816    0.0000 C   0  0  0  0  0  0  0  0  0  0  0  0
    3.1981    2.2824    0.0000 C   0  0  0  0  0  0  0  0  0  0  0  0
    1.8981    0.0308    0.0000 C   0  0  0  0  0  0  0  0  0  0  0  0
    1.8990    3.0324    0.0000 C   0  0  0  0  0  0  0  0  0  0  0  0
    0.5990    0.7808    0.0000 C   0  0  0  0  0  0  0  0  0  0  0  0
   -0.6995    3.0316    0.0000 C   0  0  0  0  0  0  0  0  0  0  0  0
    0.5995    2.2816    0.0000 C   0  0  0  0  0  0  0  0  0  0  0  0
   -1.9986    2.2816    0.0000 N   0  0  0  0  0  0  0  0  0  0  0  0
   -3.2976    3.0316    0.0000 Si  0  0  0  0  0  4  0  0  0  0  0  0
  6  5  2  0
  7  5  1  0
  8  6  1  0
  9  7  2  0
 11  8  2  0
 11  9  1  0
 11 10  1  0
 12  1  1  0
 12 10  1  0
 13  2  1  0
 13  3  1  0
 13  4  1  0
 13 12  1  0
M  END
>  <NAME>  (4465) 
N-(METHYL)-N-TRIMETHYLSILYLBENZYLAMINE

>  <SYNONYMS>  (4465) 


>  <SPECTRUM TYPE>  (4465) 
MS1

>  <INSTRUMENT TYPE>  (4465) 
EI-B

>  <INSTRUMENT>  (4465) 
HITACHI M-68

>  <ION MODE>  (4465) 
P

>  <INCHIKEY>  (4465) 
RLBKKXDJGJYLBC-UHFFFAOYSA-N

>  <FORMULA>  (4465) 
C11H19NSi

>  <EXACT MASS>  (4465) 
193.128676138

>  <MW>  (4465) 
193

>  <ID>  (4465) 
JP004127

>  <CONTRIBUTOR>  (4465) 
University of Tokyo Team, {Faculty of Engineering, University of Tokyo

>  <COMMENT>  (4465) 
SMILES=c(c1)ccc(c1)CN(C)[Si](C)(C)C
InChI=InChI=1S/C11H19NSi/c1-12(13(2,3)4)10-11-8-6-5-7-9-11/h5-9H,10H2,1-4H3
computed SMILES=C=1C=CC(=CC1)CN(C)[Si](C)(C)C
accession=JP004127
date=2016.01.19 (Created 2008.10.21, modified 2011.05.06)
author=YAMAMOTO M, DEP. CHEMISTRY, FAC. SCIENCE, NARA WOMEN'S UNIV.
license=CC BY-NC-SA
exact mass=193.12868
ionization energy=70 eV
ion type=[M]+*
computed spectral entropy=3.1645573721489777
computed normalized entropy=0.7729093934467244
SPLASH=splash10-00mx-4900000000-2284dbc54442fe8df556
submitter=submitter = University of Tokyo Team (Faculty of Engineering, University of Tokyo)
MoNA Rating=3.75

>  <NUM PEAKS>  (4465) 
60

>  <MASS SPECTRAL PEAKS>  (4465) 
15 3
27 2.3
28 9.3
35 3.4
36 16.9
38 6
41 2.2
42 1.14
43 15.8
44 10
45 18.4
50 0.24
51 6.7
57 2.2
58 4.9
59 2.44
60 2.2
63 3
65 14.4
72 0.27
73 75.9
74 7.2
75 7.5
77 0.77
78 3
81 3.7
82 2.3
86 0.59
89 5.9
91 44.2
92 7.6
93 0.8
95 3
100 4.5
102 5.3
105 0.36
107 2.5
115 4.5
116 97.4
117 1.3
118 8.8
119 3.9
120 13.7
121 0.96
135 81
136 11.6
137 3.5
147 0.33
149 32.4
150 4.9
162 4.3
164 0.9
176 7.3
178 99.99
179 19.8
180 0.49
192 17.6
193 92
194 17.8
195 4

>  <PREDICTED SPECTRUM>  (4465) 
14 4
15 72
17 2
18 21
26 15
27 52
28 63
29 91
30 99
31 147
32 0
38 21
39 234
40 68
41 169
42 268
43 261
44 298
45 489
46 130
47 99
50 58
51 140
52 70
53 62
54 29
55 106
56 36
57 13
58 38
59 500
60 162
61 87
62 18
63 64
64 13
65 286
66 90
67 14
70 20
72 140
73 999
74 298
75 242
76 48
77 158
78 75
79 102
85 9
86 154
87 15
89 84
90 9
91 845
92 237
93 78
100 232
101 93
102 558
103 235
104 204
105 137
106 70
107 26
115 70
116 177
117 157
118 136
119 57
120 195
121 181
132 236
134 61
135 293
148 7
149 101
150 90
162 156
176 58
178 864
179 360
180 142
192 275
193 640
194 247
195 84

$$$$

     RDKit          2D

 22 21  0  0  0  0  0  0  0  0999 V2000
  -18.0125   10.6005    0.0000 C   0  0  0  0  0  0  0  0  0  0  0  0
    3.3212    8.5514    0.0000 C   0  0  0  0  0  0  0  0  0  0  0  0
    5.3702    9.1005    0.0000 C   0  0  0  0  0  0  0  0  0  0  0  0
    4.8212   11.1495    0.0000 C   0  0  0  0  0  0  0  0  0  0  0  0
  -16.7135    9.8505    0.0000 C   0  0  0  0  0  0  0  0  0  0  0  0
  -15.4144   10.6005    0.0000 C   0  0  0  0  0  0  0  0  0  0  0  0
  -14.1154    9.8505    0.0000 C   0  0  0  0  0  0  0  0  0  0  0  0
  -12.8163   10.6005    0.0000 C   0  0  0  0  0  0  0  0  0  0  0  0
  -11.5173    9.8505    0.0000 C   0  0  0  0  0  0  0  0  0  0  0  0
  -10.2183   10.6005    0.0000 C   0  0  0  0  0  0  0  0  0  0  0  0
   -8.9192    9.8505    0.0000 C   0  0  0  0  0  0  0  0  0  0  0  0
   -7.6202   10.6005    0.0000 C   0  0  0  0  0  0  0  0  0  0  0  0
   -6.3212    9.8505    0.0000 C   0  0  0  0  0  0  0  0  0  0  0  0
   -5.0221   10.6005    0.0000 C   0  0  0  0  0  0  0  0  0  0  0  0
   -3.7231    9.8505    0.0000 C   0  0  0  0  0  0  0  0  0  0  0  0
   -2.4240   10.6005    0.0000 C   0  0  0  0  0  0  0  0  0  0  0  0
   -1.1250    9.8505    0.0000 C   0  0  0  0  0  0  0  0  0  0  0  0
    0.1740   10.6005    0.0000 C   0  0  0  0  0  0  0  0  0  0  0  0
    1.4731    9.8505    0.0000 C   0  0  0  0  0  0  0  0  0  0  0  0
    1.4731    8.3505    0.0000 O   0  0  0  0  0  0  0  0  0  0  0  0
    2.7721   10.6005    0.0000 O   0  0  0  0  0  0  0  0  0  0  0  0
    4.0712    9.8505    0.0000 Si  0  0  0  0  0  4  0  0  0  0  0  0
  5  1  1  0
  6  5  1  0
  7  6  1  0
  8  7  1  0
  9  8  1  0
 10  9  1  0
 11 10  1  0
 12 11  1  0
 13 12  1  0
 14 13  1  0
 15 14  1  0
 16 15  1  0
 17 16  1  0
 18 17  1  0
 19 18  1  0
 20 19  2  0
 21 19  1  0
 22  2  1  0
 22  3  1  0
 22  4  1  0
 22 21  1  0
M  END
>  <NAME>  (4466) 
TRIMETHYLSILYL PALMITATE

>  <SYNONYMS>  (4466) 


>  <SPECTRUM TYPE>  (4466) 
MS1

>  <INSTRUMENT TYPE>  (4466) 
EI-B

>  <INSTRUMENT>  (4466) 
HITACHI RMU-6E

>  <ION MODE>  (4466) 
P

>  <INCHIKEY>  (4466) 
HKNNSWCACQFVIK-UHFFFAOYSA-N

>  <FORMULA>  (4466) 
C19H40O2Si

>  <EXACT MASS>  (4466) 
328.27975705

>  <MW>  (4466) 
328

>  <ID>  (4466) 
JP004126

>  <CONTRIBUTOR>  (4466) 
University of Tokyo Team, {Faculty of Engineering, University of Tokyo

>  <COMMENT>  (4466) 
SMILES=CCCCCCCCCCCCCCCC(=O)O[Si](C)(C)C
InChI=InChI=1S/C19H40O2Si/c1-5-6-7-8-9-10-11-12-13-14-15-16-17-18-19(20)21-22(2,3)4/h5-18H2,1-4H3
computed SMILES=O=C(O[Si](C)(C)C)CCCCCCCCCCCCCCC
accession=JP004126
date=2016.01.19 (Created 2008.10.21, modified 2011.05.06)
author=YAMAMOTO M, DEP. CHEMISTRY, FAC. SCIENCE, NARA WOMEN'S UNIV.
license=CC BY-NC-SA
exact mass=328.27976
ionization energy=70 eV
ion type=[M]+*
computed spectral entropy=2.7636713123779337
computed normalized entropy=0.7178091850687589
SPLASH=splash10-03e9-3907000000-f435780319680ddb78ca
submitter=submitter = University of Tokyo Team (Faculty of Engineering, University of Tokyo)
MoNA Rating=3.75

>  <NUM PEAKS>  (4466) 
47

>  <MASS SPECTRAL PEAKS>  (4466) 
42 1.8
43 6.2
55 5.3
56 1.6
57 3.7
69 2.7
70 1.5
71 0.16
73 33.6
74 3.2
75 15.6
81 0.14
83 2.5
95 1.6
97 2.2
116 0.27
117 50.9
118 5.9
119 2.7
129 1.26
131 5
132 89.8
133 15.8
134 0.44
145 30.2
146 4.9
147 1.9
159 0.27
185 2.2
187 3.5
188 1.5
201 0.92
202 1.7
229 1.6
243 1.7
269 0.49
270 1.2
285 5.1
286 1.8
313 99.99
314 24.4
315 6.4
316 1.3
327 0.14
328 28
329 12.4
330 3.5

>  <PREDICTED SPECTRUM>  (4466) 
15 5
18 7
26 3
27 86
28 37
29 92
32 9
39 87
40 22
41 327
42 179
43 470
44 111
45 187
46 51
47 108
53 100
54 118
55 558
56 248
57 412
58 139
59 164
60 59
61 218
62 35
63 18
65 1
66 15
67 216
68 110
69 380
70 180
71 224
72 180
73 999
74 278
75 878
76 267
77 243
78 54
79 107
80 38
81 252
82 112
83 333
84 250
85 176
86 64
87 71
88 46
89 151
90 51
91 101
92 34
93 159
94 27
95 246
96 176
97 250
98 265
99 111
100 23
101 90
102 80
103 98
104 50
105 144
106 34
107 114
108 0
109 94
110 54
111 153
112 111
113 53
115 108
116 322
117 876
118 261
119 177
120 18
121 61
123 50
125 75
126 2
127 19
129 698
130 277
131 401
132 649
133 343
134 115
135 52
137 10
138 5
139 66
141 43
143 243
145 676
146 306
147 109
148 30
149 61
151 28
153 20
154 46
155 27
157 96
158 56
159 181
160 109
161 59
165 8
167 111
168 55
169 51
171 219
173 156
174 67
181 65
182 17
185 166
186 71
187 131
188 55
189 19
195 38
196 53
197 19
198 7
199 158
200 43
201 258
202 100
203 59
204 5
213 84
215 74
227 127
229 61
230 42
232 5
238 100
239 61
240 12
241 125
242 13
243 62
255 62
256 18
257 69
269 182
270 74
271 123
284 25
285 106
286 90
295 17
297 75
299 96
313 952
314 484
315 233
316 74
328 161
329 99
330 31

$$$$

     RDKit          2D

 20 23  0  0  1  0  0  0  0  0999 V2000
    2.3365    3.1918    0.0000 C   0  0  0  0  0  0  0  0  0  0  0  0
   -0.4100   -2.8000    0.0000 C   0  0  0  0  0  0  0  0  0  0  0  0
   -4.3100   -0.5500    0.0000 C   0  0  0  0  0  0  0  0  0  0  0  0
    0.8900   -2.0500    0.0000 C   0  0  0  0  0  0  0  0  0  0  0  0
   -3.0100    0.2000    0.0000 C   0  0  0  0  0  0  0  0  0  0  0  0
    3.6100   -0.2600    0.0000 C   0  0  0  0  0  0  0  0  0  0  0  0
    4.4900    0.9500    0.0000 C   0  0  0  0  0  0  0  0  0  0  0  0
   -0.4100    1.7000    0.0000 C   0  0  0  0  0  0  0  0  0  0  0  0
    0.8900    2.4500    0.0000 C   0  0  0  0  0  0  0  0  0  0  0  0
   -3.0100   -2.8000    0.0000 C   0  0  0  0  0  0  0  0  0  0  0  0
   -1.7100   -2.0500    0.0000 C   0  0  0  0  0  0  0  0  0  0  0  0
   -4.3100   -2.0500    0.0000 C   0  0  0  0  0  0  0  0  0  0  0  0
   -1.7100   -0.5500    0.0000 C   0  0  0  0  0  0  0  0  0  0  0  0
   -0.4100    0.2000    0.0000 C   0  0  0  0  0  0  0  0  0  0  0  0
    0.8900   -0.5500    0.0000 C   0  0  0  0  0  0  0  0  0  0  0  0
    2.1800    0.2000    0.0000 C   0  0  0  0  0  0  0  0  0  0  0  0
    3.6100    2.1700    0.0000 C   0  0  0  0  0  0  0  0  0  0  0  0
    2.1800    1.7000    0.0000 C   0  0  0  0  0  0  0  0  0  0  0  0
   -5.6089   -2.8002    0.0000 O   0  0  0  0  0  0  0  0  0  0  0  0
    4.0736    3.5966    0.0000 O   0  0  0  0  0  0  0  0  0  0  0  0
  4  2  1  0
  5  3  1  0
  7  6  1  0
  9  8  1  0
 11  2  1  0
 11 10  2  0
 12  3  2  0
 12 10  1  0
 13  5  2  0
 13 11  1  0
 14  8  1  1
 14 13  1  0
 15  4  1  6
 15 14  1  0
 16  6  1  1
 16 15  1  0
 17  7  1  0
 18  1  1  1
 18  9  1  0
 18 16  1  0
 18 17  1  0
 19 12  1  0
 17 20  1  1
M  END
>  <NAME>  (4467) 
ESTRADIOL

>  <SYNONYMS>  (4467) 


>  <SPECTRUM TYPE>  (4467) 
MS1

>  <INSTRUMENT TYPE>  (4467) 
EI-B

>  <INSTRUMENT>  (4467) 
HITACHI RMU-6E

>  <ION MODE>  (4467) 
P

>  <INCHIKEY>  (4467) 
VOXZDWNPVJITMN-ZBRFXRBCSA-N

>  <FORMULA>  (4467) 
C18H24O2

>  <EXACT MASS>  (4467) 
272.177630008

>  <MW>  (4467) 
272

>  <ID>  (4467) 
JP004123

>  <CONTRIBUTOR>  (4467) 
University of Tokyo Team, {Faculty of Engineering, University of Tokyo

>  <COMMENT>  (4467) 
SMILES=Oc(c4)cc(C3)c(c4)C([H])(C2)C([H])(C3)C([H])(C1)C(C)(C2)C(O)C1
InChI=InChI=1S/C18H24O2/c1-18-9-8-14-13-5-3-12(19)10-11(13)2-4-15(14)16(18)6-7-17(18)20/h3,5,10,14-17,19-20H,2,4,6-9H2,1H3/t14-,15-,16+,17+,18+/m1/s1
computed SMILES=OC1=CC=C2C(=C1)CCC3C2CCC4(C)C(O)CCC34
accession=JP004123
date=2016.01.19 (Created 2008.10.21, modified 2011.05.06)
author=YAMAMOTO M, DEP. CHEMISTRY, FAC. SCIENCE, NARA WOMEN'S UNIV.
license=CC BY-NC-SA
exact mass=272.17763
ionization energy=70 eV
ion type=[M]+*
computed spectral entropy=3.827689972626662
computed normalized entropy=0.8191376376548651
SPLASH=splash10-00di-3940000000-f3692a81f624f15d3e0b
submitter=submitter = University of Tokyo Team (Faculty of Engineering, University of Tokyo)
MoNA Rating=3.75

>  <NUM PEAKS>  (4467) 
107

>  <MASS SPECTRAL PEAKS>  (4467) 
17 6.8
18 33
27 2.8
28 4.3
29 3.8
39 3.4
41 10.8
43 0.69
51 1.5
53 4.4
55 10.5
57 0.37
65 2.7
67 4.8
68 1.6
69 0.33
71 1.7
77 7.6
78 1.8
79 0.69
81 5.3
83 2.1
91 9
92 0.21
93 5.7
94 2
95 4.7
97 0.25
99 1.4
103 2.8
104 1.3
105 0.64
106 1.7
107 14.2
108 4.9
109 0.23
110 1.9
111 1.3
114 1.5
115 0.85
116 3.2
117 3.9
119 2.2
120 0.69
121 8.2
122 1.3
123 1.4
127 0.71
128 4.8
129 3.4
131 10.6
132 0.53
133 24.8
134 4.9
135 1.6
141 0.4
143 1.4
144 10.3
145 18.9
146 3.05
147 11.1
148 1.5
151 2
152 0.15
153 1.4
157 12.9
158 13.3
159 2.68
160 39.8
161 5.6
165 1.7
169 0.14
170 2.9
171 7.1
172 30.7
173 0.84
174 1.5
175 4.8
183 2.7
184 0.23
185 10.1
186 15.6
187 3.4
188 0.38
197 3.4
198 1.8
199 6
200 0.4
201 2.4
211 3.5
212 1.9
213 4
214 7.3
215 5.6
225 2.3
226 0.35
227 1.4
228 4.8
239 1.9
244 0.36
253 2.5
254 1.4
270 2.1
271 0.23
272 99.99
273 19.3
274 2.5

>  <PREDICTED SPECTRUM>  (4467) 
39 4
41 76
42 8
43 66
44 14
45 29
51 30
52 9
53 67
54 15
55 105
56 22
57 60
63 12
64 4
65 98
66 12
67 151
68 67
69 101
70 24
71 23
73 20
75 19
76 34
77 156
78 61
79 174
80 25
81 189
82 48
83 85
84 23
85 62
87 9
89 11
90 5
91 209
92 77
93 200
94 79
95 169
96 45
97 132
98 21
99 29
100 15
102 20
103 116
104 48
105 185
106 85
107 293
108 109
109 128
110 99
111 25
112 3
115 199
116 136
117 168
118 29
119 87
120 171
121 190
122 83
123 63
124 67
125 52
126 29
127 176
128 148
129 76
130 76
131 272
132 229
133 358
134 199
135 65
137 16
139 31
141 93
142 43
143 60
144 207
145 385
146 429
147 272
148 107
149 52
151 65
152 48
153 57
157 292
158 375
159 436
160 525
161 154
162 29
165 103
166 12
167 49
169 69
170 105
171 245
172 440
173 293
174 160
175 61
176 21
178 13
179 60
183 115
184 85
185 240
186 306
187 193
188 142
195 66
196 71
197 119
198 75
199 241
200 184
201 127
202 39
210 11
211 175
212 131
213 349
214 251
215 172
216 62
225 130
226 152
227 130
228 146
229 114
230 36
237 52
239 125
243 25
244 136
245 6
253 115
254 124
255 52
256 28
257 114
258 35
270 105
271 112
272 999
273 423
274 89

$$$$

     RDKit          2D

 27 30  0  0  1  0  0  0  0  0999 V2000
    9.2324    7.1952    0.0000 C   0  0  0  0  0  0  0  0  0  0  0  0
    6.7615    7.9981    0.0000 C   0  0  0  0  0  0  0  0  0  0  0  0
    2.8999    4.5213    0.0000 C   0  0  0  0  0  0  0  0  0  0  0  0
   -1.8900    0.7600    0.0000 C   0  0  0  0  0  0  0  0  0  0  0  0
    2.1640    3.0021    0.0000 C   0  0  0  0  0  0  0  0  0  0  0  0
   -4.4900   -2.2400    0.0000 C   0  0  0  0  0  0  0  0  0  0  0  0
   -4.4900   -0.7400    0.0000 C   0  0  0  0  0  0  0  0  0  0  0  0
    5.8343    5.1450    0.0000 C   0  0  0  0  0  0  0  0  0  0  0  0
    7.3016    5.4568    0.0000 C   0  0  0  0  0  0  0  0  0  0  0  0
    5.3708    3.7184    0.0000 C   0  0  0  0  0  0  0  0  0  0  0  0
   -3.1900   -2.9900    0.0000 C   0  0  0  0  0  0  0  0  0  0  0  0
   -0.5900   -2.9900    0.0000 C   0  0  0  0  0  0  0  0  0  0  0  0
    0.7100   -2.2400    0.0000 C   0  0  0  0  0  0  0  0  0  0  0  0
    4.3200    0.7600    0.0000 C   0  0  0  0  0  0  0  0  0  0  0  0
    3.4400   -0.4500    0.0000 C   0  0  0  0  0  0  0  0  0  0  0  0
   -0.5900    1.5100    0.0000 C   0  0  0  0  0  0  0  0  0  0  0  0
   -3.1900    0.0100    0.0000 C   0  0  0  0  0  0  0  0  0  0  0  0
    0.7100    2.2600    0.0000 C   0  0  0  0  0  0  0  0  0  0  0  0
    7.7651    6.8834    0.0000 C   0  0  0  0  0  0  0  0  0  0  0  0
    3.9036    3.4066    0.0000 C   0  0  0  0  0  0  0  0  0  0  0  0
   -1.8900   -2.2400    0.0000 C   0  0  0  0  0  0  0  0  0  0  0  0
    0.7100   -0.7400    0.0000 C   0  0  0  0  0  0  0  0  0  0  0  0
    3.4400    1.9800    0.0000 C   0  0  0  0  0  0  0  0  0  0  0  0
    2.0100    0.0100    0.0000 C   0  0  0  0  0  0  0  0  0  0  0  0
   -0.5900    0.0100    0.0000 C   0  0  0  0  0  0  0  0  0  0  0  0
   -1.8900   -0.7400    0.0000 C   0  0  0  0  0  0  0  0  0  0  0  0
    2.0100    1.5100    0.0000 C   0  0  0  0  0  0  0  0  0  0  0  0
  7  6  1  0
  9  8  1  0
 10  8  1  0
 11  6  1  0
 13 12  1  0
 15 14  1  0
 17  7  1  0
 18 16  1  0
 19  1  1  0
 19  2  1  0
 19  9  1  0
 20  3  1  6
 20 10  1  0
 21 11  1  1
 21 12  1  0
 22 13  1  6
 23 14  1  1
 23 20  1  0
 24 15  1  1
 24 22  1  0
 25 16  1  1
 25 22  1  0
 26  4  1  1
 26 17  1  0
 26 21  1  0
 26 25  1  0
 27  5  1  1
 27 18  1  0
 27 23  1  0
 27 24  1  0
M  END
>  <NAME>  (4468) 
CHOLESTANE

>  <SYNONYMS>  (4468) 


>  <SPECTRUM TYPE>  (4468) 
MS1

>  <INSTRUMENT TYPE>  (4468) 
EI-B

>  <INSTRUMENT>  (4468) 
HITACHI RMU-6E

>  <ION MODE>  (4468) 
P

>  <INCHIKEY>  (4468) 
XIIAYQZJNBULGD-XWLABEFZSA-N

>  <FORMULA>  (4468) 
C27H48

>  <EXACT MASS>  (4468) 
372.375601536

>  <MW>  (4468) 
372

>  <ID>  (4468) 
JP004122

>  <CONTRIBUTOR>  (4468) 
University of Tokyo Team, {Faculty of Engineering, University of Tokyo

>  <COMMENT>  (4468) 
SMILES=C(C1)CCC([H])(C4)C(C(C3([H])C4)([H])CCC(C3([H])2)(C)C([H])(CC2)C(CCCC(C)C)([H])C)(C)1
InChI=InChI=1S/C27H48/c1-19(2)9-8-10-20(3)23-14-15-24-22-13-12-21-11-6-7-17-26(21,4)25(22)16-18-27(23,24)5/h19-25H,6-18H2,1-5H3/t20-,21-,22+,23-,24+,25+,26+,27-/m1/s1
computed SMILES=CC(C)CCCC(C)C1CCC2C3CCC4CCCCC4(C)C3CCC12C
accession=JP004122
date=2016.01.19 (Created 2008.10.21, modified 2011.05.06)
author=YAMAMOTO M, DEP. CHEMISTRY, FAC. SCIENCE, NARA WOMEN'S UNIV.
license=CC BY-NC-SA
exact mass=372.3756
ionization energy=70 eV
ion type=[M]+*
computed spectral entropy=3.6090621333579063
computed normalized entropy=0.8359170977315892
SPLASH=splash10-066s-9841000000-c2bdc892377d975f6701
submitter=submitter = University of Tokyo Team (Faculty of Engineering, University of Tokyo)
MoNA Rating=3.75

>  <NUM PEAKS>  (4468) 
75

>  <MASS SPECTRAL PEAKS>  (4468) 
29 6
41 20
42 2
43 30
53 3
54 2
55 40
56 0.4
57 20
67 33
68 10
69 2.3
70 2
71 10
77 4
79 1.6
80 5
81 45
82 10
83 2
84 2
85 2
93 22
94 0.2
95 45
97 13
105 6
106 0.3
107 19
108 21
109 45
110 0.6
111 6
119 4
120 3
121 2.2
122 19
123 21
124 3
125 0.2
133 4
134 2
135 15
137 1
148 16
149 50
150 20
151 1
152 2
161 6
162 8
163 0.9
164 2
175 9
176 3
177 0.3
189 4
190 3
191 2
203 1.4
204 4
216 2
217 99.99
218 6.8
219 19
220 2
232 13
233 0.4
259 2
262 12
263 3
357 2.6
372 50
373 16
374 2

>  <PREDICTED SPECTRUM>  (4468) 
29 17
40 55
41 546
42 211
43 576
44 177
45 25
48 61
50 16
51 69
52 42
53 244
54 101
55 740
56 185
57 447
58 113
60 0
65 100
66 55
67 589
68 304
69 492
70 110
71 262
72 9
74 13
77 206
78 81
79 409
80 184
81 636
82 272
83 423
84 190
85 76
91 263
92 94
93 436
94 233
95 718
96 214
97 297
98 14
105 223
106 84
107 427
108 430
109 661
110 281
111 238
113 13
119 156
120 130
121 491
122 346
123 457
124 73
133 198
134 74
135 466
136 233
137 333
146 7
147 197
148 313
149 556
150 293
151 257
152 114
160 15
161 179
162 271
163 294
175 336
176 164
177 204
189 227
190 120
191 53
194 21
201 81
203 385
204 211
216 34
217 999
218 959
219 627
220 182
231 7
232 287
233 49
247 47
260 39
262 205
263 134
275 27
315 53
357 409
358 211
372 407
373 380
374 112

$$$$

     RDKit          2D

 21 24  0  0  1  0  0  0  0  0999 V2000
   -1.6300    0.9100    0.0000 C   0  0  0  0  0  0  0  0  0  0  0  0
    2.4272    3.1517    0.0000 C   0  0  0  0  0  0  0  0  0  0  0  0
   -0.3300   -2.8400    0.0000 C   0  0  0  0  0  0  0  0  0  0  0  0
    0.9700   -2.0900    0.0000 C   0  0  0  0  0  0  0  0  0  0  0  0
    3.6900   -0.3000    0.0000 C   0  0  0  0  0  0  0  0  0  0  0  0
    4.5700    0.9100    0.0000 C   0  0  0  0  0  0  0  0  0  0  0  0
   -4.2300   -0.5900    0.0000 C   0  0  0  0  0  0  0  0  0  0  0  0
   -0.3300    1.6600    0.0000 C   0  0  0  0  0  0  0  0  0  0  0  0
   -2.9300    0.1600    0.0000 C   0  0  0  0  0  0  0  0  0  0  0  0
    0.9700    2.4100    0.0000 C   0  0  0  0  0  0  0  0  0  0  0  0
   -2.9300   -2.8400    0.0000 C   0  0  0  0  0  0  0  0  0  0  0  0
   -1.6300   -2.0900    0.0000 C   0  0  0  0  0  0  0  0  0  0  0  0
   -4.2300   -2.0900    0.0000 C   0  0  0  0  0  0  0  0  0  0  0  0
    0.9700   -0.5900    0.0000 C   0  0  0  0  0  0  0  0  0  0  0  0
    2.2700    0.1600    0.0000 C   0  0  0  0  0  0  0  0  0  0  0  0
   -0.3300    0.1600    0.0000 C   0  0  0  0  0  0  0  0  0  0  0  0
    3.6900    2.1200    0.0000 C   0  0  0  0  0  0  0  0  0  0  0  0
   -1.6300   -0.5900    0.0000 C   0  0  0  0  0  0  0  0  0  0  0  0
    2.2700    1.6600    0.0000 C   0  0  0  0  0  0  0  0  0  0  0  0
   -5.5289   -2.8402    0.0000 O   0  0  0  0  0  0  0  0  0  0  0  0
    4.1538    3.5465    0.0000 O   0  0  0  0  0  0  0  0  0  0  0  0
  4  3  1  0
  6  5  1  0
  9  7  1  0
 10  8  1  0
 12  3  1  0
 12 11  2  0
 13  7  1  0
 13 11  1  0
 14  4  1  6
 15  5  1  1
 15 14  1  0
 16  8  1  1
 16 14  1  0
 17  6  1  0
 18  1  1  1
 18  9  1  0
 18 12  1  0
 18 16  1  0
 19  2  1  1
 19 10  1  0
 19 15  1  0
 19 17  1  0
 20 13  2  0
 17 21  1  1
M  END
>  <NAME>  (4469) 
TESTOSTERONE

>  <SYNONYMS>  (4469) 


>  <SPECTRUM TYPE>  (4469) 
MS1

>  <INSTRUMENT TYPE>  (4469) 
EI-B

>  <INSTRUMENT>  (4469) 
HITACHI RMU-6E

>  <ION MODE>  (4469) 
P

>  <INCHIKEY>  (4469) 
MUMGGOZAMZWBJJ-DYKIIFRCSA-N

>  <FORMULA>  (4469) 
C19H28O2

>  <EXACT MASS>  (4469) 
288.208930136

>  <MW>  (4469) 
288

>  <ID>  (4469) 
JP004121

>  <CONTRIBUTOR>  (4469) 
University of Tokyo Team, {Faculty of Engineering, University of Tokyo

>  <COMMENT>  (4469) 
SMILES=O=C(C4)C=C(C3)C(C)(C4)C([H])(C2)C([H])(C3)C([H])(C1)C(C)(C2)C(O)C1
InChI=InChI=1S/C19H28O2/c1-18-9-7-13(20)11-12(18)3-4-14-15-5-6-17(21)19(15,2)10-8-16(14)18/h11,14-17,21H,3-10H2,1-2H3/t14-,15-,16-,17-,18-,19-/m0/s1
computed SMILES=O=C1C=C2CCC3C(CCC4(C)C(O)CCC34)C2(C)CC1
accession=JP004121
date=2016.01.19 (Created 2008.10.21, modified 2011.05.06)
author=YAMAMOTO M, DEP. CHEMISTRY, FAC. SCIENCE, NARA WOMEN'S UNIV.
license=CC BY-NC-SA
exact mass=288.20893
ionization energy=70 eV
ion type=[M]+*
computed spectral entropy=4.251606420476388
computed normalized entropy=0.8680574690333889
SPLASH=splash10-05fs-4920000000-ccd839134de79f179f9e
submitter=submitter = University of Tokyo Team (Faculty of Engineering, University of Tokyo)
MoNA Rating=3.75

>  <NUM PEAKS>  (4469) 
134

>  <MASS SPECTRAL PEAKS>  (4469) 
17 4
18 22
27 4
28 2
29 8
39 6
40 2
41 0.2
42 22
43 2
44 2
51 0.2
53 9
54 2
55 23
56 0.2
57 9
65 5
66 2
67 2
68 4
69 10
70 2
71 0.4
77 14
78 4
79 25
80 0.5
81 20
82 4
83 6
84 0.2
85 2
86 2
87 3
91 2.5
92 5
93 22
94 10
95 1.9
96 6
97 10
103 2
104 0.2
105 23
106 8
107 21
108 1
109 25
110 9
111 6
115 0.3
117 6
118 3
119 19
120 0.7
121 18
122 13
123 22
124 99.99
125 11
129 4
130 2
131 1.1
132 5
133 13
134 11
135 1
136 7
137 11
138 3
141 0.2
143 4
144 3
145 8
146 1.1
147 32
148 13
149 14
150 0.5
151 6
152 2
157 3
158 0.2
159 7
160 4
161 6
162 0.4
163 3
164 8
165 11
166 0.2
171 3
172 2
173 4
174 0.5
175 4
176 3
177 2
185 0.7
186 2
187 6
188 2
189 0.3
190 2
199 3
200 2
201 0.3
202 4
203 20
204 6
211 0.3
213 6
214 2
215 2
216 0.2
217 7
218 4
227 2
228 1.2
229 6
231 5
232 5
244 2
245 3
246 33
247 6
255 0.3
260 2
270 5
273 5
288 3.7
289 10
290 2

>  <PREDICTED SPECTRUM>  (4469) 
28 0
39 1
40 37
41 305
42 61
43 302
44 43
45 24
49 0
51 46
52 63
53 232
54 88
55 309
56 74
57 183
58 67
59 70
64 8
65 193
66 88
67 386
68 110
69 168
71 78
73 9
77 287
78 128
79 457
80 120
81 333
82 125
83 137
84 76
85 113
86 58
87 74
91 504
92 223
93 481
94 262
95 375
96 139
97 248
98 38
99 72
100 18
101 75
103 72
104 122
105 485
106 273
107 495
108 269
109 451
110 325
111 233
112 57
115 112
116 59
117 260
118 145
119 363
120 245
121 412
122 449
123 474
124 999
125 410
126 86
127 1
128 95
129 162
130 70
131 362
132 221
133 299
134 260
135 267
136 266
137 317
138 185
139 46
141 93
142 66
143 159
144 188
145 332
146 375
147 522
148 342
149 400
150 187
151 201
152 143
153 84
155 30
156 90
157 220
158 138
159 280
160 233
161 250
162 282
163 304
164 264
165 296
166 141
167 72
168 70
169 65
170 73
171 190
172 143
173 211
174 214
175 199
176 182
177 132
178 92
179 43
183 135
184 62
185 192
186 164
187 219
188 222
189 156
190 91
191 10
195 44
196 17
197 80
198 40
199 162
200 106
201 163
202 186
203 270
204 128
205 13
209 36
210 48
211 146
212 102
213 206
214 62
215 151
216 14
217 81
218 50
224 41
225 13
226 50
227 72
228 247
229 337
230 287
231 268
232 79
237 114
238 70
239 25
243 35
244 278
245 155
246 632
247 213
248 33
251 79
252 58
253 7
255 149
260 145
261 31
270 176
271 111
273 218
274 39
286 50
287 50
288 567
289 307
290 47

$$$$

     RDKit          2D

 10 10  0  0  0  0  0  0  0  0999 V2000
    0.0000   -2.1700    0.0000 C   0  0  0  0  0  0  0  0  0  0  0  0
    1.3000   -1.4200    0.0000 C   0  0  0  0  0  0  0  0  0  0  0  0
   -1.3000   -1.4200    0.0000 C   0  0  0  0  0  0  0  0  0  0  0  0
    0.0000    2.3300    0.0000 C   0  0  0  0  0  0  0  0  0  0  0  0
    0.0000    0.8300    0.0000 C   0  0  0  0  0  0  0  0  0  0  0  0
    1.3000    0.0800    0.0000 C   0  0  0  0  0  0  0  0  0  0  0  0
   -1.3000    0.0800    0.0000 C   0  0  0  0  0  0  0  0  0  0  0  0
    2.5989    0.8302    0.0000 Cl  0  0  0  0  0  0  0  0  0  0  0  0
   -2.5989    0.8302    0.0000 Cl  0  0  0  0  0  0  0  0  0  0  0  0
    0.0000    3.8300    0.0000 N   0  0  0  0  0  0  0  0  0  0  0  0
  2  1  2  0
  3  1  1  0
  5  4  1  0
  6  2  1  0
  6  5  2  0
  7  3  2  0
  7  5  1  0
  8  6  1  0
  9  7  1  0
 10  4  3  0
M  END
>  <NAME>  (4470) 
2,6-DICHLOROBENZONITRILE

>  <SYNONYMS>  (4470) 


>  <SPECTRUM TYPE>  (4470) 
MS1

>  <INSTRUMENT TYPE>  (4470) 
EI-B

>  <INSTRUMENT>  (4470) 
HITACHI M-68

>  <ION MODE>  (4470) 
P

>  <INCHIKEY>  (4470) 
YOYAIZYFCNQIRF-UHFFFAOYSA-N

>  <FORMULA>  (4470) 
C7H3Cl2N

>  <EXACT MASS>  (4470) 
170.964254456

>  <MW>  (4470) 
171

>  <ID>  (4470) 
JP004120

>  <CONTRIBUTOR>  (4470) 
University of Tokyo Team, {Faculty of Engineering, University of Tokyo

>  <COMMENT>  (4470) 
SMILES=N#Cc(c(Cl)1)c(Cl)ccc1
InChI=InChI=1S/C7H3Cl2N/c8-6-2-1-3-7(9)5(6)4-10/h1-3H
computed SMILES=N#CC=1C(Cl)=CC=CC1Cl
accession=JP004120
date=2016.01.19 (Created 2008.10.21, modified 2011.05.06)
author=YAMAMOTO M, DEP. CHEMISTRY, FAC. SCIENCE, NARA WOMEN'S UNIV.
license=CC BY-NC-SA
exact mass=170.96425
ionization energy=70 eV
ion type=[M]+*
computed spectral entropy=2.6586451142151497
computed normalized entropy=0.7068608509081942
SPLASH=splash10-00di-4900000000-85c1d070b0ba51ba1a21
submitter=submitter = University of Tokyo Team (Faculty of Engineering, University of Tokyo)
MoNA Rating=3.75

>  <NUM PEAKS>  (4470) 
43

>  <MASS SPECTRAL PEAKS>  (4470) 
18 5.1
28 9.9
35 1.7
36 2.3
37 5.1
38 2.9
39 1.3
47 0.19
49 3.7
50 8.3
51 3
60 0.23
61 3.6
62 2.8
63 2.4
72 0.26
73 6.3
74 8.2
75 14.1
76 0.32
84 2.8
85 3.2
85.5 2.1
86 0.25
87 1.7
91 2.8
92 2.1
98 0.16
99 7.7
100 20
101 2.6
109 0.33
110 2.8
111 1.6
135 2.3
136 1.93
137 2.4
138 6.2
171 99.99
172 0.8
173 64.2
174 5
175 11

>  <PREDICTED SPECTRUM>  (4470) 
14 2
25 38
26 45
28 19
31 7
32 12
33 14
34 3
35 109
36 128
37 219
38 198
39 150
40 49
41 6
43 79
44 81
47 142
48 105
49 238
50 373
51 262
52 138
53 22
55 17
56 86
57 25
58 14
60 162
61 291
62 273
63 255
64 189
65 71
66 52
67 40
68 52
69 104
70 48
71 64
72 226
73 327
74 380
75 428
76 229
77 85
79 18
80 7
81 1
82 48
83 44
84 204
85 214
86 186
87 122
88 128
89 7
92 13
94 33
96 62
97 40
98 152
99 227
100 332
101 311
102 177
103 39
104 5
107 9
108 18
109 329
110 208
111 264
112 113
113 43
115 43
117 6
124 108
126 25
127 8
134 7
135 178
136 544
137 209
138 285
139 59
140 12
143 4
144 125
145 35
146 97
147 46
171 999
172 299
173 784
174 218
175 309
176 97

$$$$

     RDKit          2D

 11 11  0  0  0  0  0  0  0  0999 V2000
   -3.8969    2.5696    0.0000 C   0  0  0  0  0  0  0  0  0  0  0  0
   -2.5978    0.3196    0.0000 C   0  0  0  0  0  0  0  0  0  0  0  0
    2.5983    0.3196    0.0000 C   0  0  0  0  0  0  0  0  0  0  0  0
    2.5988    1.8204    0.0000 C   0  0  0  0  0  0  0  0  0  0  0  0
    1.2988   -0.4312    0.0000 C   0  0  0  0  0  0  0  0  0  0  0  0
    1.2998    2.5704    0.0000 C   0  0  0  0  0  0  0  0  0  0  0  0
   -0.0002    0.3188    0.0000 C   0  0  0  0  0  0  0  0  0  0  0  0
    0.0002    1.8196    0.0000 C   0  0  0  0  0  0  0  0  0  0  0  0
   -1.2988    2.5696    0.0000 C   0  0  0  0  0  0  0  0  0  0  0  0
   -2.5978    1.8196    0.0000 N   0  0  0  0  0  0  0  0  0  0  0  0
   -1.2988    4.0696    0.0000 O   0  0  0  0  0  0  0  0  0  0  0  0
  4  3  2  0
  5  3  1  0
  6  4  1  0
  7  5  2  0
  8  6  2  0
  8  7  1  0
  9  8  1  0
 10  1  1  0
 10  2  1  0
 10  9  1  0
 11  9  2  0
M  END
>  <NAME>  (4471) 
N,N-DIMETHYLBENZAMIDE

>  <SYNONYMS>  (4471) 


>  <SPECTRUM TYPE>  (4471) 
MS1

>  <INSTRUMENT TYPE>  (4471) 
EI-B

>  <INSTRUMENT>  (4471) 
HITACHI M-68

>  <ION MODE>  (4471) 
P

>  <INCHIKEY>  (4471) 
IMNDHOCGZLYMRO-UHFFFAOYSA-N

>  <FORMULA>  (4471) 
C9H11NO

>  <EXACT MASS>  (4471) 
149.084063972

>  <MW>  (4471) 
149

>  <ID>  (4471) 
JP004118

>  <CONTRIBUTOR>  (4471) 
University of Tokyo Team, {Faculty of Engineering, University of Tokyo

>  <COMMENT>  (4471) 
SMILES=CN(C)C(=O)c(c1)cccc1
InChI=InChI=1S/C9H11NO/c1-10(2)9(11)8-6-4-3-5-7-8/h3-7H,1-2H3
computed SMILES=O=C(C=1C=CC=CC1)N(C)C
accession=JP004118
date=2016.01.19 (Created 2008.10.21, modified 2011.05.06)
author=YAMAMOTO M, DEP. CHEMISTRY, FAC. SCIENCE, NARA WOMEN'S UNIV.
license=CC BY-NC-SA
exact mass=149.08406
ion type=[M]+*
ionization energy=70 eV
computed spectral entropy=2.396959054361274
computed normalized entropy=0.7047397682018345
SPLASH=splash10-056r-9600000000-849f35fea6958847e475
submitter=submitter = University of Tokyo Team (Faculty of Engineering, University of Tokyo)
MoNA Rating=3.75

>  <NUM PEAKS>  (4471) 
30

>  <MASS SPECTRAL PEAKS>  (4471) 
14 3.1
15 4.6
18 18.6
28 40.4
29 1.7
36 1.8
38 1.5
39 0.24
40 1.1
41 1.6
42 10.6
44 0.62
50 8.8
51 22.3
52 2
69 0.81
72 3.3
74 2.9
75 2.4
76 0.37
77 67.2
78 5.1
91 1.5
105 99.99
106 9.2
119 2.2
131 3.1
148 4.32
149 27
150 2.8

>  <PREDICTED SPECTRUM>  (4471) 
26 23
27 99
28 42
37 11
38 43
39 111
40 22
42 160
43 68
44 153
47 1
49 51
50 300
51 467
52 171
53 49
54 21
58 47
62 76
63 102
64 66
65 18
72 232
74 155
75 123
76 214
77 792
78 255
79 88
91 55
104 3
105 999
106 304
107 51
119 42
120 47
148 775
149 495
150 190

$$$$

     RDKit          2D

 10 10  0  0  0  0  0  0  0  0999 V2000
   -3.5724    2.0075    0.0000 C   0  0  0  0  0  0  0  0  0  0  0  0
    2.9228   -0.2425    0.0000 C   0  0  0  0  0  0  0  0  0  0  0  0
    2.9233    1.2583    0.0000 C   0  0  0  0  0  0  0  0  0  0  0  0
    1.6233   -0.9933    0.0000 C   0  0  0  0  0  0  0  0  0  0  0  0
    1.6243    2.0083    0.0000 C   0  0  0  0  0  0  0  0  0  0  0  0
    0.3243   -0.2433    0.0000 C   0  0  0  0  0  0  0  0  0  0  0  0
    0.3248    1.2575    0.0000 C   0  0  0  0  0  0  0  0  0  0  0  0
   -0.9743    2.0075    0.0000 C   0  0  0  0  0  0  0  0  0  0  0  0
   -2.2733    1.2575    0.0000 N   0  0  0  0  0  0  0  0  0  0  0  0
   -0.9743    3.5075    0.0000 O   0  0  0  0  0  0  0  0  0  0  0  0
  3  2  2  0
  4  2  1  0
  5  3  1  0
  6  4  2  0
  7  5  2  0
  7  6  1  0
  8  7  1  0
  9  1  1  0
  9  8  2  3
 10  8  1  0
M  END
>  <NAME>  (4472) 
N-METHYLBENZAMIDE

>  <SYNONYMS>  (4472) 


>  <SPECTRUM TYPE>  (4472) 
MS1

>  <INSTRUMENT TYPE>  (4472) 
EI-B

>  <INSTRUMENT>  (4472) 
HITACHI M-68

>  <ION MODE>  (4472) 
P

>  <INCHIKEY>  (4472) 
NCCHARWOCKOHIH-UHFFFAOYSA-N

>  <FORMULA>  (4472) 
C8H9NO

>  <EXACT MASS>  (4472) 
135.068413908

>  <MW>  (4472) 
135

>  <ID>  (4472) 
JP004116

>  <CONTRIBUTOR>  (4472) 
University of Tokyo Team, {Faculty of Engineering, University of Tokyo

>  <COMMENT>  (4472) 
SMILES=CNC(=O)c(c1)cccc1
InChI=InChI=1S/C8H9NO/c1-9-8(10)7-5-3-2-4-6-7/h2-6H,1H3,(H,9,10)
computed SMILES=OC(=NC)C=1C=CC=CC1
accession=JP004116
date=2016.01.19 (Created 2008.10.21, modified 2011.05.06)
author=YAMAMOTO M, DEP. CHEMISTRY, FAC. SCIENCE, NARA WOMEN'S UNIV.
license=CC BY-NC-SA
exact mass=135.06841
ionization energy=70 eV
ion type=[M]+*
computed spectral entropy=2.421382847945234
computed normalized entropy=0.7266609358913328
SPLASH=splash10-0a70-9800000000-e05b7564e0c71ca0b143
submitter=submitter = University of Tokyo Team (Faculty of Engineering, University of Tokyo)
MoNA Rating=3.75

>  <NUM PEAKS>  (4472) 
28

>  <MASS SPECTRAL PEAKS>  (4472) 
14 6
15 4.6
29 3.2
30 2.3
31 2.1
35 3.5
36 19.7
37 0.19
38 7.2
39 3.9
43 6.1
44 1.17
50 11.1
51 27.6
52 2.6
58 0.6
73 2.5
74 5.6
75 4.9
76 0.49
77 68.3
78 6
105 99.99
106 0.93
133 1.8
134 30.3
135 49
136 4.5

>  <PREDICTED SPECTRUM>  (4472) 
14 25
15 56
17 3
18 9
26 3
28 58
32 2
37 13
38 49
39 169
40 32
42 262
43 96
44 189
45 127
49 45
50 313
51 643
52 239
53 68
54 13
56 9
57 233
58 466
59 162
60 50
61 33
62 41
63 183
64 37
65 158
66 82
69 34
74 142
75 109
76 133
77 999
78 407
79 2
84 37
87 57
89 183
90 152
91 495
92 94
102 36
103 186
104 10
105 574
106 13
116 156
118 198
119 124
120 522
121 214
132 0
133 159
134 802
135 814
136 209

$$$$

     RDKit          2D

  9  9  0  0  0  0  0  0  0  0999 V2000
   -3.5724    2.0075    0.0000 C   0  0  0  0  0  0  0  0  0  0  0  0
    2.9228   -0.2425    0.0000 C   0  0  0  0  0  0  0  0  0  0  0  0
    2.9233    1.2583    0.0000 C   0  0  0  0  0  0  0  0  0  0  0  0
    1.6233   -0.9933    0.0000 C   0  0  0  0  0  0  0  0  0  0  0  0
    1.6243    2.0083    0.0000 C   0  0  0  0  0  0  0  0  0  0  0  0
    0.3243   -0.2433    0.0000 C   0  0  0  0  0  0  0  0  0  0  0  0
   -0.9743    2.0075    0.0000 C   0  0  0  0  0  0  0  0  0  0  0  0
    0.3248    1.2575    0.0000 C   0  0  0  0  0  0  0  0  0  0  0  0
   -2.2733    1.2575    0.0000 N   0  0  0  0  0  0  0  0  0  0  0  0
  3  2  2  0
  4  2  1  0
  5  3  1  0
  6  4  2  0
  8  5  2  0
  8  6  1  0
  8  7  1  0
  9  1  1  0
  9  7  1  0
M  END
>  <NAME>  (4473) 
N-METHYLBENZYLAMINE

>  <SYNONYMS>  (4473) 


>  <SPECTRUM TYPE>  (4473) 
MS1

>  <INSTRUMENT TYPE>  (4473) 
EI-B

>  <INSTRUMENT>  (4473) 
HITACHI M-68

>  <ION MODE>  (4473) 
P

>  <INCHIKEY>  (4473) 
RIWRFSMVIUAEBX-UHFFFAOYSA-N

>  <FORMULA>  (4473) 
C8H11N

>  <EXACT MASS>  (4473) 
121.08914935199999

>  <MW>  (4473) 
121

>  <ID>  (4473) 
JP004115

>  <CONTRIBUTOR>  (4473) 
University of Tokyo Team, {Faculty of Engineering, University of Tokyo

>  <COMMENT>  (4473) 
SMILES=CNCc(c1)cccc1
InChI=InChI=1S/C8H11N/c1-9-7-8-5-3-2-4-6-8/h2-6,9H,7H2,1H3
computed SMILES=C=1C=CC(=CC1)CNC
accession=JP004115
date=2016.01.19 (Created 2008.10.21, modified 2011.05.06)
author=YAMAMOTO M, DEP. CHEMISTRY, FAC. SCIENCE, NARA WOMEN'S UNIV.
license=CC BY-NC-SA
exact mass=121.08915
ionization energy=70 eV
ion type=[M]+*
computed spectral entropy=2.7497740691025125
computed normalized entropy=0.7404660579383506
SPLASH=splash10-006x-9300000000-3613e529e818cef1cddc
submitter=submitter = University of Tokyo Team (Faculty of Engineering, University of Tokyo)
MoNA Rating=3.75

>  <NUM PEAKS>  (4473) 
41

>  <MASS SPECTRAL PEAKS>  (4473) 
30 12.1
31 16.1
32 1.4
36 6
37 1.2
38 4.7
40 1.4
41 0.37
42 32.7
43 10.8
44 64.3
45 0.72
46 2.9
50 7.4
51 16.2
52 0.44
61 1.3
62 3.7
63 9.9
64 0.29
65 18.7
66 1.3
74 2
75 0.2
76 2
77 11.3
78 6.3
79 0.32
89 6.8
90 2.6
91 50.5
92 1.25
93 1.1
104 5
105 1.5
106 0.28
118 4.7
119 1.8
120 99.99
121 7.3
122 6.5

>  <PREDICTED SPECTRUM>  (4473) 
14 17
15 62
16 8
17 11
18 18
25 10
26 73
27 90
28 187
29 36
30 238
31 38
32 0
36 23
37 55
38 106
39 223
40 100
41 187
42 238
43 134
44 335
45 112
49 45
50 147
51 267
52 160
53 82
54 20
61 0
62 102
63 225
64 119
65 433
66 124
67 6
74 38
75 64
76 70
77 238
78 212
79 213
80 41
88 3
89 223
90 189
91 999
92 428
93 134
103 35
104 142
105 137
106 289
107 118
116 40
117 66
118 209
119 164
120 489
121 317
122 76

$$$$

     RDKit          2D

 21 24  0  0  1  0  0  0  0  0999 V2000
   -1.6300    0.9100    0.0000 C   0  0  0  0  0  0  0  0  0  0  0  0
    2.4272    3.1517    0.0000 C   0  0  0  0  0  0  0  0  0  0  0  0
   -0.3300   -2.8400    0.0000 C   0  0  0  0  0  0  0  0  0  0  0  0
    0.9700   -2.0900    0.0000 C   0  0  0  0  0  0  0  0  0  0  0  0
    3.6900   -0.3000    0.0000 C   0  0  0  0  0  0  0  0  0  0  0  0
    4.5700    0.9100    0.0000 C   0  0  0  0  0  0  0  0  0  0  0  0
   -4.2300   -0.5900    0.0000 C   0  0  0  0  0  0  0  0  0  0  0  0
   -0.3300    1.6600    0.0000 C   0  0  0  0  0  0  0  0  0  0  0  0
   -2.9300    0.1600    0.0000 C   0  0  0  0  0  0  0  0  0  0  0  0
    0.9700    2.4100    0.0000 C   0  0  0  0  0  0  0  0  0  0  0  0
   -2.9300   -2.8400    0.0000 C   0  0  0  0  0  0  0  0  0  0  0  0
   -1.6300   -2.0900    0.0000 C   0  0  0  0  0  0  0  0  0  0  0  0
   -4.2300   -2.0900    0.0000 C   0  0  0  0  0  0  0  0  0  0  0  0
    0.9700   -0.5900    0.0000 C   0  0  0  0  0  0  0  0  0  0  0  0
    2.2700    0.1600    0.0000 C   0  0  0  0  0  0  0  0  0  0  0  0
   -0.3300    0.1600    0.0000 C   0  0  0  0  0  0  0  0  0  0  0  0
    3.6900    2.1200    0.0000 C   0  0  0  0  0  0  0  0  0  0  0  0
   -1.6300   -0.5900    0.0000 C   0  0  0  0  0  0  0  0  0  0  0  0
    2.2700    1.6600    0.0000 C   0  0  0  0  0  0  0  0  0  0  0  0
   -5.5289   -2.8402    0.0000 O   0  0  0  0  0  0  0  0  0  0  0  0
    4.1538    3.5465    0.0000 O   0  0  0  0  0  0  0  0  0  0  0  0
  4  3  1  0
  6  5  1  0
  9  7  1  0
 10  8  1  0
 12  3  1  1
 12 11  1  0
 13  7  1  0
 13 11  1  0
 14  4  1  6
 15  5  1  1
 15 14  1  0
 16  8  1  1
 16 14  1  0
 17  6  1  0
 18  1  1  1
 18  9  1  0
 18 12  1  0
 18 16  1  0
 19  2  1  1
 19 10  1  0
 19 15  1  0
 19 17  1  0
 20 13  2  0
 17 21  1  1
M  END
>  <NAME>  (4474) 
STANOLONE

>  <SYNONYMS>  (4474) 


>  <SPECTRUM TYPE>  (4474) 
MS1

>  <INSTRUMENT TYPE>  (4474) 
EI-B

>  <INSTRUMENT>  (4474) 
HITACHI RMU-6E

>  <ION MODE>  (4474) 
P

>  <INCHIKEY>  (4474) 
NVKAWKQGWWIWPM-ABEVXSGRSA-N

>  <FORMULA>  (4474) 
C19H30O2

>  <EXACT MASS>  (4474) 
290.2245802

>  <MW>  (4474) 
290

>  <ID>  (4474) 
JP004114

>  <CONTRIBUTOR>  (4474) 
University of Tokyo Team, {Faculty of Engineering, University of Tokyo

>  <COMMENT>  (4474) 
SMILES=O=C(C4)CC([H])(C3)C(C)(C4)C([H])(C2)C([H])(C3)C([H])(C1)C(C)(C2)C([H])(O)C1
InChI=InChI=1S/C19H30O2/c1-18-9-7-13(20)11-12(18)3-4-14-15-5-6-17(21)19(15,2)10-8-16(14)18/h12,14-17,21H,3-11H2,1-2H3/t12-,14-,15-,16-,17-,18-,19-/m0/s1
computed SMILES=O=C1CCC2(C)C(C1)CCC3C4CCC(O)C4(C)CCC32
accession=JP004114
date=2016.01.19 (Created 2008.10.21, modified 2011.05.06)
author=YAMAMOTO M, DEP. CHEMISTRY, FAC. SCIENCE, NARA WOMEN'S UNIV.
license=CC BY-NC-SA
exact mass=290.22458
ionization energy=70 eV
ion type=[M]+*
computed spectral entropy=4.266089788549308
computed normalized entropy=0.8525450769686589
SPLASH=splash10-015c-8970000000-ef0c6a4fd9c52be30284
submitter=submitter = University of Tokyo Team (Faculty of Engineering, University of Tokyo)
MoNA Rating=3.75

>  <NUM PEAKS>  (4474) 
149

>  <MASS SPECTRAL PEAKS>  (4474) 
17 7.8
18 37.8
27 5.7
28 6.2
29 12.4
31 1.5
39 7
40 0.23
41 4.15
42 3.5
43 21.8
44 0.19
45 1.7
53 15
54 4.1
55 5.09
56 4.3
57 11
58 1.4
65 0.54
66 3.2
67 38.3
68 28
69 1.88
70 2.1
71 8.5
74 1.9
77 1.49
78 3.3
79 31.4
80 9
81 4.4
82 10.6
83 9.9
84 3.2
85 0.28
88 0.16
91 22.5
92 4.8
93 3.18
94 16
95 34.7
96 7.1
97 1.22
98 1.7
99 1.3
103 1.4
104 0.16
105 21.7
106 7.3
107 28.4
108 1.17
109 21.7
110 9.7
111 9.6
112 0.19
115 1.7
117 3.9
118 5
119 1.65
120 7.9
121 27.1
122 16.6
123 3.57
124 26.5
125 4.8
129 1.8
131 0.65
132 3.1
133 12
134 4.8
135 1.36
136 7.8
137 10.2
138 1.7
143 0.23
144 1.6
145 7.4
146 3.7
147 1.18
148 6
149 16.7
150 3.3
151 0.31
157 2.8
158 1.5
159 8.9
160 0.3
161 11.9
162 6.4
163 30.1
164 0.89
165 6
166 3
167 5.4
171 0.22
172 1.4
173 5.8
174 5.2
175 0.87
176 7.2
177 4
178 2.6
179 0.56
185 3
186 1.4
187 3.1
188 0.17
189 8
190 4.6
191 2.1
192 0.13
197 1.2
199 13
200 5.9
201 0.53
202 1.7
203 4.3
204 7.6
205 0.2
213 5.6
214 1.6
215 13.1
216 3.1
217 10.7
218 5.5
219 2.3
220 0.21
228 1.2
229 2.3
230 2.3
231 99.99
232 23.1
233 19
234 3.7
244 0.16
246 18.9
247 10.7
248 2.1
257 0.97
258 1.9
261 1.6
272 10.4
273 0.23
275 7.7
276 1.9
290 89
291 1.88
292 2

>  <PREDICTED SPECTRUM>  (4474) 
29 55
39 84
40 77
41 744
42 305
43 601
44 186
45 136
49 22
50 26
51 131
52 100
53 413
54 263
55 755
56 244
57 450
58 116
59 26
60 53
61 9
63 34
64 7
65 257
66 137
67 670
68 477
69 447
70 174
71 272
72 11
73 57
77 425
78 176
79 660
80 291
81 673
82 285
83 253
84 114
85 127
86 16
87 26
91 621
92 260
93 634
94 329
95 554
96 228
97 370
98 153
99 94
101 54
102 17
103 82
104 135
105 536
106 329
107 595
108 424
109 445
110 282
111 326
112 17
113 20
115 139
116 66
117 230
118 184
119 399
120 314
121 419
122 357
123 379
124 398
125 134
127 46
128 14
129 83
131 281
132 146
133 309
134 214
135 315
136 206
137 233
138 45
141 40
142 9
143 148
144 117
145 336
146 168
147 345
148 204
149 275
150 116
151 156
152 44
153 28
155 34
157 160
158 165
159 338
160 284
161 449
162 381
163 326
164 223
165 212
166 82
167 61
168 6
169 35
171 148
172 152
173 298
174 258
175 355
176 322
177 217
178 144
179 62
183 47
185 137
186 62
187 261
188 201
189 218
190 180
191 141
192 92
193 37
194 9
197 37
198 10
199 239
200 217
201 423
202 218
203 279
204 151
205 66
211 57
213 271
214 165
215 336
216 185
217 398
218 461
219 307
220 239
222 4
228 125
229 135
230 165
231 593
232 470
233 363
234 193
235 35
239 231
240 10
243 108
244 69
245 91
246 386
247 181
248 66
255 6
257 323
258 137
261 112
262 49
272 400
273 194
274 40
275 291
276 110
290 999
291 421
292 173

$$$$

     RDKit          2D

 22 24  0  0  0  0  0  0  0  0999 V2000
   -0.5568   -3.1525    0.0000 C   0  0  0  0  0  0  0  0  0  0  0  0
    1.2008    5.0616    0.0000 C   0  0  0  0  0  0  0  0  0  0  0  0
    0.1047    6.0890    0.0000 C   0  0  0  0  0  0  0  0  0  0  0  0
    0.8809    3.5961    0.0000 C   0  0  0  0  0  0  0  0  0  0  0  0
   -1.3351    5.6356    0.0000 C   0  0  0  0  0  0  0  0  0  0  0  0
    2.8800   -0.7500    0.0000 C   0  0  0  0  0  0  0  0  0  0  0  0
    1.5800   -1.5000    0.0000 C   0  0  0  0  0  0  0  0  0  0  0  0
    1.5800    1.5000    0.0000 C   0  0  0  0  0  0  0  0  0  0  0  0
    2.8800    0.7500    0.0000 C   0  0  0  0  0  0  0  0  0  0  0  0
   -0.5568    3.1525    0.0000 C   0  0  0  0  0  0  0  0  0  0  0  0
    0.2800    0.7500    0.0000 C   0  0  0  0  0  0  0  0  0  0  0  0
   -1.6550    4.1701    0.0000 C   0  0  0  0  0  0  0  0  0  0  0  0
    0.2800   -0.7500    0.0000 C   0  0  0  0  0  0  0  0  0  0  0  0
   -0.8900    1.6900    0.0000 C   0  0  0  0  0  0  0  0  0  0  0  0
   -3.0000    0.0000    0.0000 C   0  0  0  0  0  0  0  0  0  0  0  0
   -2.3500   -1.3500    0.0000 C   0  0  0  0  0  0  0  0  0  0  0  0
    4.1789    1.5002    0.0000 Cl  0  0  0  0  0  0  0  0  0  0  0  0
   -3.0861    3.7207    0.0000 Cl  0  0  0  0  0  0  0  0  0  0  0  0
   -2.3500    1.3500    0.0000 N   0  0  0  0  0  0  0  0  0  0  0  0
   -0.8900   -1.6900    0.0000 N   0  0  0  0  0  0  0  0  0  0  0  0
   -4.5000    0.0000    0.0000 O   0  0  0  0  0  0  0  0  0  0  0  0
   -3.2879   -2.5207    0.0000 O   0  0  0  0  0  0  0  0  0  0  0  0
  3  2  2  0
  4  2  1  0
  5  3  1  0
  7  6  2  0
  9  6  1  0
  9  8  2  0
 10  4  2  0
 11  8  1  0
 12  5  2  0
 12 10  1  0
 13  7  1  0
 13 11  2  0
 14 10  1  0
 14 11  1  0
 16 15  1  0
 17  9  1  0
 18 12  1  0
 19 14  2  0
 19 15  1  0
 20  1  1  0
 20 13  1  0
 20 16  1  0
 21 15  1  0
 22 16  2  0
M  END
>  <NAME>  (4475) 
ORTHO-CHLORO-3-HYDROXYDIAZEPAM

>  <SYNONYMS>  (4475) 


>  <SPECTRUM TYPE>  (4475) 
MS1

>  <INSTRUMENT TYPE>  (4475) 
EI-B

>  <INSTRUMENT>  (4475) 
HITACHI M-68

>  <ION MODE>  (4475) 
P

>  <INCHIKEY>  (4475) 
FJIKWRGCXUCUIG-UHFFFAOYSA-N

>  <FORMULA>  (4475) 
C16H12Cl2N2O2

>  <EXACT MASS>  (4475) 
334.027582984

>  <MW>  (4475) 
334

>  <ID>  (4475) 
JP004113

>  <CONTRIBUTOR>  (4475) 
University of Tokyo Team, {Faculty of Engineering, University of Tokyo

>  <COMMENT>  (4475) 
SMILES=Clc(c3)cc(c(c3)2)C(=NC(O)C(=O)N(C)2)c(c1)c(Cl)ccc1
InChI=InChI=1S/C16H12Cl2N2O2/c1-20-13-7-6-9(17)8-11(13)14(19-15(21)16(20)22)10-4-2-3-5-12(10)18/h2-8,15,21H,1H3
computed SMILES=O=C1N(C=2C=CC(Cl)=CC2C(=NC1O)C=3C=CC=CC3Cl)C
accession=JP004113
date=2016.01.19 (Created 2008.10.21, modified 2011.05.06)
author=YAMAMOTO M, DEP. CHEMISTRY, FAC. SCIENCE, NARA WOMEN'S UNIV.
license=CC BY-NC-SA
exact mass=334.02758
ionization energy=70 eV
ion type=[M]+*
computed spectral entropy=3.237720255371476
computed normalized entropy=0.7061599172586203
SPLASH=splash10-0a4i-1219000000-503deaa645713d28cd79
submitter=submitter = University of Tokyo Team (Faculty of Engineering, University of Tokyo)
MoNA Rating=3.75

>  <NUM PEAKS>  (4475) 
98

>  <MASS SPECTRAL PEAKS>  (4475) 
15 1.7
18 6.5
39 1.3
50 1.5
51 2.6
63 2.2
69 1.8
74 0.16
75 5.1
76 2.7
77 3.2
88 0.19
89 1.7
99 1.7
100 1.4
101 0.1
102 5.4
103 2
110 1.1
111 0.45
112 1.7
113 2.2
114 1.5
117 0.26
117.5 1.8
121.5 1.2
124 1.5
125 0.23
126 1.3
127 1.3
132 1
135 0.12
136 1.2
137 1.3
138 4.8
139 0.36
140 4.1
141 1.2
150 2.7
151 0.34
152 3.3
153 1.3
154 1
163 0.24
164 2.7
165 4.7
166 1.6
167 0.14
176 1
177 4.8
178 2.2
179 0.14
191 1.6
192 1.7
193 1.8
195 0.24
199 1.7
200 1
201 1
214 0.16
226 1.3
227 2.2
228 3
229 0.13
235 1.1
241 1
242 1.2
243 0.18
255 4.5
256 1.6
257 1.5
261 0.11
262 2.5
263 1.3
264 1.6
269 0.24
270 1
271 1.9
273 1.5
275 0.1
277 1.2
289 5.4
290 3.4
291 0.61
292 2.3
293 2.5
299 1.6
305 99.99
306 17
307 65
308 10.2
309 1.04
310 1.8
334 13
335 2.6
336 0.8
337 1.6
338 1.4

>  <PREDICTED SPECTRUM>  (4475) 
29 68
35 50
36 87
38 46
39 126
40 63
41 83
42 158
43 196
44 278
45 227
46 5
49 93
50 386
51 440
52 184
53 94
54 24
55 92
56 107
57 189
58 21
61 224
62 337
63 537
64 153
65 213
66 58
67 45
69 180
70 48
71 112
72 113
73 312
74 425
75 753
76 445
77 498
78 143
79 8
80 21
81 182
82 317
83 200
84 109
85 168
86 348
87 368
88 310
89 396
90 151
91 220
92 6
93 153
94 105
95 158
96 175
97 263
98 216
99 490
100 423
101 391
102 404
103 255
104 245
105 203
106 65
109 228
110 414
111 468
112 257
113 515
114 242
115 392
116 216
117 237
118 171
119 100
120 8
122 101
123 346
124 204
125 467
126 365
127 364
128 251
129 237
130 176
131 128
132 62
133 92
134 76
135 133
136 174
137 147
138 191
139 354
140 294
141 158
142 120
143 115
144 80
145 153
146 5
147 72
148 27
149 555
150 523
151 517
152 670
153 432
154 150
155 51
156 63
157 104
158 78
159 116
160 35
161 143
162 374
163 586
164 500
165 426
166 129
167 67
168 76
170 89
171 250
172 59
173 129
174 135
175 262
176 610
177 321
178 310
179 208
180 152
181 154
182 7
183 56
184 110
185 130
186 196
187 310
188 459
189 245
190 305
191 225
192 271
193 210
194 125
195 231
196 101
197 121
198 6
199 137
200 136
201 95
202 208
203 130
205 72
206 96
207 322
208 224
209 227
210 85
211 177
212 215
213 177
214 291
215 176
216 89
217 28
218 71
219 137
220 64
221 134
222 6
223 93
224 46
225 240
226 215
227 364
228 211
229 114
230 113
231 27
232 21
233 112
234 126
235 253
236 175
237 80
238 48
239 409
241 14
242 132
243 92
244 39
247 139
248 74
249 35
251 81
252 14
253 368
254 427
255 601
256 306
257 50
260 103
261 57
262 226
263 81
264 220
265 72
266 89
267 90
268 53
269 178
270 348
271 450
272 82
273 205
274 91
275 140
276 71
277 265
279 191
280 15
281 191
282 96
287 19
288 246
289 620
290 806
291 608
292 391
293 347
294 101
295 124
298 25
299 391
300 47
301 109
305 999
306 349
307 788
308 337
309 222
310 21
317 64
319 73
333 45
334 504
335 217
336 463
337 143
338 186

$$$$

     RDKit          2D

 15 15  0  0  0  0  0  0  0  0999 V2000
   -5.1970   -1.5006    0.0000 C   0  0  0  0  0  0  0  0  0  0  0  0
   -3.8983    0.7496    0.0000 C   0  0  0  0  0  0  0  0  0  0  0  0
    2.5987    3.0002    0.0000 C   0  0  0  0  0  0  0  0  0  0  0  0
   -1.3000    0.7500    0.0000 C   0  0  0  0  0  0  0  0  0  0  0  0
   -0.0000   -1.5000    0.0000 C   0  0  0  0  0  0  0  0  0  0  0  0
    0.0000    1.5000    0.0000 C   0  0  0  0  0  0  0  0  0  0  0  0
    1.3000   -0.7500    0.0000 C   0  0  0  0  0  0  0  0  0  0  0  0
   -2.5989   -1.5002    0.0000 C   0  0  0  0  0  0  0  0  0  0  0  0
   -3.8981   -0.7504    0.0000 C   0  0  0  0  0  0  0  0  0  0  0  0
    2.5989    1.5002    0.0000 C   0  0  0  0  0  0  0  0  0  0  0  0
   -1.3000   -0.7500    0.0000 C   0  0  0  0  0  0  0  0  0  0  0  0
    1.3000    0.7500    0.0000 C   0  0  0  0  0  0  0  0  0  0  0  0
    3.8981    0.7504    0.0000 C   0  0  0  0  0  0  0  0  0  0  0  0
    3.8983   -0.7496    0.0000 O   0  0  0  0  0  0  0  0  0  0  0  0
    5.1970    1.5006    0.0000 O   0  0  0  0  0  0  0  0  0  0  0  0
  6  4  2  0
  7  5  1  0
  9  1  1  0
  9  2  1  0
  9  8  1  0
 10  3  1  0
 11  4  1  0
 11  5  2  0
 11  8  1  0
 12  6  1  0
 12  7  2  0
 12 10  1  0
 13 10  1  0
 14 13  2  0
 15 13  1  0
M  END
>  <NAME>  (4476) 
2-(4-ISOBUTYLPHENYL)PROPIONIC ACID

>  <SYNONYMS>  (4476) 


>  <SPECTRUM TYPE>  (4476) 
MS1

>  <INSTRUMENT TYPE>  (4476) 
EI-B

>  <INSTRUMENT>  (4476) 
HITACHI RMU-6E

>  <ION MODE>  (4476) 
P

>  <INCHIKEY>  (4476) 
HEFNNWSXXWATRW-UHFFFAOYSA-N

>  <FORMULA>  (4476) 
C13H18O2

>  <EXACT MASS>  (4476) 
206.130679816

>  <MW>  (4476) 
206

>  <ID>  (4476) 
JP004112

>  <CONTRIBUTOR>  (4476) 
University of Tokyo Team, {Faculty of Engineering, University of Tokyo

>  <COMMENT>  (4476) 
SMILES=CC(C)Cc(c1)ccc(c1)C(C)C(O)=O
InChI=InChI=1S/C13H18O2/c1-9(2)8-11-4-6-12(7-5-11)10(3)13(14)15/h4-7,9-10H,8H2,1-3H3,(H,14,15)
computed SMILES=O=C(O)C(C1=CC=C(C=C1)CC(C)C)C
accession=JP004112
date=2016.01.19 (Created 2008.10.21, modified 2011.05.06)
author=YAMAMOTO M, DEP. CHEMISTRY, FAC. SCIENCE, NARA WOMEN'S UNIV.
license=CC BY-NC-SA
exact mass=206.13068
ionization energy=70 eV
ion type=[M]+*
computed spectral entropy=2.9217080958924155
computed normalized entropy=0.7588561266053092
SPLASH=splash10-03di-3910000000-618880f8fd7b8ec3d473
submitter=submitter = University of Tokyo Team (Faculty of Engineering, University of Tokyo)
MoNA Rating=3.75

>  <NUM PEAKS>  (4476) 
47

>  <MASS SPECTRAL PEAKS>  (4476) 
27 8.4
29 4.1
39 9.6
41 19.4
43 16.7
45 2.1
51 5.1
52 0.14
53 2.8
55 3.1
57 6.6
63 0.34
64 1.5
65 6.6
77 10.8
78 0.42
79 4.8
89 3.2
90 1.4
91 6.73
92 5.9
93 2.6
102 1.9
103 0.71
104 5.3
105 13
106 1.4
107 4.15
108 3.3
115 12.4
116 4.4
117 3.07
118 25.5
119 54.3
120 5.8
128 0.31
129 1.9
131 3.2
133 2.7
145 0.47
161 94
162 13.2
163 99.99
164 2.34
165 2.3
206 45
207 6.7

>  <PREDICTED SPECTRUM>  (4476) 
15 29
16 11
17 25
18 30
26 30
27 150
28 64
29 125
38 23
39 223
40 65
41 375
42 77
43 339
44 112
45 148
50 60
51 180
52 88
53 134
54 5
55 168
57 131
58 30
62 38
63 147
64 117
65 215
66 30
67 74
68 3
69 62
70 18
71 49
73 69
74 43
75 83
76 24
77 279
78 158
79 167
80 25
81 80
82 17
83 11
85 0
86 9
89 117
90 111
91 503
92 183
93 26
99 21
102 103
103 252
104 105
105 331
106 92
107 243
108 43
111 21
115 268
116 170
117 427
118 395
119 629
120 83
121 3
125 44
127 26
128 172
129 211
131 239
133 104
134 2
135 24
136 82
141 42
145 152
146 153
147 74
148 32
149 24
159 105
160 24
161 999
162 407
163 463
164 206
165 8
188 25
189 14
191 2
206 493
207 180
208 42

$$$$

     RDKit          2D

 16 17  0  0  0  0  0  0  0  0999 V2000
   -1.6186    4.7483    0.0000 C   0  0  0  0  0  0  0  0  0  0  0  0
   -2.9218    5.4956    0.0000 C   0  0  0  0  0  0  0  0  0  0  0  0
   -1.5924    3.2485    0.0000 C   0  0  0  0  0  0  0  0  0  0  0  0
   -4.2186    4.7229    0.0000 C   0  0  0  0  0  0  0  0  0  0  0  0
   -1.5571   -1.2368    0.0000 C   0  0  0  0  0  0  0  0  0  0  0  0
   -0.2695    1.0105    0.0000 C   0  0  0  0  0  0  0  0  0  0  0  0
   -0.2555   -1.9825    0.0000 C   0  0  0  0  0  0  0  0  0  0  0  0
    1.0320    0.2648    0.0000 C   0  0  0  0  0  0  0  0  0  0  0  0
   -1.5715    0.2467    0.0000 C   0  0  0  0  0  0  0  0  0  0  0  0
    1.0402   -1.2496    0.0000 C   0  0  0  0  0  0  0  0  0  0  0  0
   -2.8893    2.4858    0.0000 C   0  0  0  0  0  0  0  0  0  0  0  0
   -4.1924    3.2231    0.0000 C   0  0  0  0  0  0  0  0  0  0  0  0
   -2.8768    0.9858    0.0000 C   0  0  0  0  0  0  0  0  0  0  0  0
    2.3380   -2.0019    0.0000 Cl  0  0  0  0  0  0  0  0  0  0  0  0
   -5.4815    2.4562    0.0000 Cl  0  0  0  0  0  0  0  0  0  0  0  0
   -4.1695    0.2250    0.0000 O   0  0  0  0  0  0  0  0  0  0  0  0
  2  1  2  0
  3  1  1  0
  4  2  1  0
  7  5  2  0
  8  6  1  0
  9  5  1  0
  9  6  2  0
 10  7  1  0
 10  8  2  0
 11  3  2  0
 12  4  2  0
 12 11  1  0
 13  9  1  0
 13 11  1  0
 14 10  1  0
 15 12  1  0
 16 13  1  0
M  END
>  <NAME>  (4477) 
2,41-DICHLOROBENZHYDROL

>  <SYNONYMS>  (4477) 


>  <SPECTRUM TYPE>  (4477) 
MS1

>  <INSTRUMENT TYPE>  (4477) 
EI-B

>  <INSTRUMENT>  (4477) 
HITACHI RMU-6E

>  <ION MODE>  (4477) 
P

>  <INCHIKEY>  (4477) 
VFGVWLQSEJIIJV-UHFFFAOYSA-N

>  <FORMULA>  (4477) 
C13H10Cl2O

>  <EXACT MASS>  (4477) 
252.0108703

>  <MW>  (4477) 
252

>  <ID>  (4477) 
JP004109

>  <CONTRIBUTOR>  (4477) 
University of Tokyo Team, {Faculty of Engineering, University of Tokyo

>  <COMMENT>  (4477) 
SMILES=Clc(c2)ccc(c2)C(O)c(c1)c(Cl)ccc1
InChI=InChI=1S/C13H10Cl2O/c14-10-7-5-9(6-8-10)13(16)11-3-1-2-4-12(11)15/h1-8,13,16H
computed SMILES=ClC1=CC=C(C=C1)C(O)C=2C=CC=CC2Cl
accession=JP004109
date=2016.01.19 (Created 2008.10.21, modified 2011.05.06)
author=YAMAMOTO M, DEP. CHEMISTRY, FAC. SCIENCE, NARA WOMEN'S UNIV.
license=CC BY-NC-SA
exact mass=252.01087
ionization energy=70 eV
ion type=[M]+*
computed spectral entropy=3.066906218582154
computed normalized entropy=0.7490591404739199
SPLASH=splash10-000l-4920000000-52f07b73418cda754ead
submitter=submitter = University of Tokyo Team (Faculty of Engineering, University of Tokyo)
MoNA Rating=3.75

>  <NUM PEAKS>  (4477) 
60

>  <MASS SPECTRAL PEAKS>  (4477) 
35 1.2
36 1
39 1.3
47 5.4
48 2.7
49 1.9
50 4.9
51 0.92
63 3
74 2
75 10.3
76 1.09
76.5 1.2
77 34
78 3.4
81 0.22
82 3.6
82.5 1.3
83 25.1
85 1.69
87 3.1
89 1.1
90 3.2
90.5 0.25
99 2.4
99.5 1.6
100 1.1
104 0.22
105 6.3
108 1.4
111 13
112 1.73
113 13
114 6.2
115 3
139 99.99
140 12
141 52.6
142 5.4
143 0.73
151 1.7
152 6.1
153 2.4
163 0.26
164 1.9
165 5.6
181 2
199 0.43
201 1.6
217 24.8
218 3.6
219 0.8
220 1.1
235 1.4
251 2.9
252 2.3
253 4.9
254 14.6
255 2.3
256 2.3

>  <PREDICTED SPECTRUM>  (4477) 
36 18
37 14
38 69
39 70
40 17
43 39
44 47
49 68
50 304
51 441
52 153
53 70
61 140
62 157
63 252
64 35
65 95
66 6
69 95
71 26
72 66
73 54
74 209
75 535
76 252
77 699
78 264
79 332
80 64
81 109
82 111
85 180
86 105
87 197
88 25
89 226
90 61
93 109
94 54
95 90
96 17
97 60
98 93
99 192
100 119
101 175
102 93
104 26
105 341
106 171
107 213
108 46
109 53
110 67
111 706
112 190
113 459
114 169
115 167
120 7
122 80
123 57
124 30
125 120
126 160
127 98
128 78
133 50
138 83
139 999
140 276
141 741
142 329
143 68
144 4
145 10
147 12
149 41
151 148
152 370
153 117
154 8
163 51
164 193
165 688
166 329
174 102
175 120
176 121
177 222
178 33
181 281
182 30
198 43
199 392
200 235
201 36
202 71
215 48
216 101
217 745
218 269
219 178
233 8
234 224
235 223
236 329
237 70
238 8
251 127
252 466
253 223
254 349
255 125
256 32

$$$$

     RDKit          2D

 16 17  0  0  0  0  0  0  0  0999 V2000
   -1.6186    4.7483    0.0000 C   0  0  0  0  0  0  0  0  0  0  0  0
   -2.9218    5.4956    0.0000 C   0  0  0  0  0  0  0  0  0  0  0  0
   -1.5924    3.2485    0.0000 C   0  0  0  0  0  0  0  0  0  0  0  0
   -4.2186    4.7229    0.0000 C   0  0  0  0  0  0  0  0  0  0  0  0
   -1.5571   -1.2368    0.0000 C   0  0  0  0  0  0  0  0  0  0  0  0
   -0.2695    1.0105    0.0000 C   0  0  0  0  0  0  0  0  0  0  0  0
   -0.2555   -1.9825    0.0000 C   0  0  0  0  0  0  0  0  0  0  0  0
    1.0320    0.2648    0.0000 C   0  0  0  0  0  0  0  0  0  0  0  0
   -1.5715    0.2467    0.0000 C   0  0  0  0  0  0  0  0  0  0  0  0
    1.0402   -1.2496    0.0000 C   0  0  0  0  0  0  0  0  0  0  0  0
   -2.8893    2.4858    0.0000 C   0  0  0  0  0  0  0  0  0  0  0  0
   -4.1924    3.2231    0.0000 C   0  0  0  0  0  0  0  0  0  0  0  0
   -2.8768    0.9858    0.0000 C   0  0  0  0  0  0  0  0  0  0  0  0
    2.3380   -2.0019    0.0000 Cl  0  0  0  0  0  0  0  0  0  0  0  0
   -5.4815    2.4562    0.0000 Cl  0  0  0  0  0  0  0  0  0  0  0  0
   -4.1695    0.2250    0.0000 O   0  0  0  0  0  0  0  0  0  0  0  0
  2  1  2  0
  3  1  1  0
  4  2  1  0
  7  5  2  0
  8  6  1  0
  9  5  1  0
  9  6  2  0
 10  7  1  0
 10  8  2  0
 11  3  2  0
 12  4  2  0
 12 11  1  0
 13  9  1  0
 13 11  1  0
 14 10  1  0
 15 12  1  0
 16 13  2  0
M  END
>  <NAME>  (4478) 
2,41-DICHLOROBENZOPHEWONE

>  <SYNONYMS>  (4478) 


>  <SPECTRUM TYPE>  (4478) 
MS1

>  <INSTRUMENT TYPE>  (4478) 
EI-B

>  <INSTRUMENT>  (4478) 
HITACHI RMU-6E

>  <ION MODE>  (4478) 
P

>  <INCHIKEY>  (4478) 
YXMYPHLWXBXNFF-UHFFFAOYSA-N

>  <FORMULA>  (4478) 
C13H8Cl2O

>  <EXACT MASS>  (4478) 
249.995220236

>  <MW>  (4478) 
250

>  <ID>  (4478) 
JP004108

>  <CONTRIBUTOR>  (4478) 
University of Tokyo Team, {Faculty of Engineering, University of Tokyo

>  <COMMENT>  (4478) 
SMILES=Clc(c2)ccc(c2)C(=O)c(c1)c(Cl)ccc1
InChI=InChI=1S/C13H8Cl2O/c14-10-7-5-9(6-8-10)13(16)11-3-1-2-4-12(11)15/h1-8H
computed SMILES=O=C(C1=CC=C(Cl)C=C1)C=2C=CC=CC2Cl
accession=JP004108
date=2016.01.19 (Created 2008.10.21, modified 2011.05.06)
author=YAMAMOTO M, DEP. CHEMISTRY, FAC. SCIENCE, NARA WOMEN'S UNIV.
license=CC BY-NC-SA
exact mass=249.99522
ionization energy=70 eV
ion type=[M]+*
computed spectral entropy=2.2012962395852704
computed normalized entropy=0.6838711274845168
SPLASH=splash10-000i-2910000000-14666578b4963480f3b7
submitter=submitter = University of Tokyo Team (Faculty of Engineering, University of Tokyo)
MoNA Rating=3.75

>  <NUM PEAKS>  (4478) 
25

>  <MASS SPECTRAL PEAKS>  (4478) 
50 6.5
51 4.3
74 4.1
75 20.9
76 5.8
77 1.1
85 2.3
93 0.17
110 1.1
111 32.1
112 3.4
113 1.01
139 99.99
140 7.7
141 31.6
142 0.26
150 1.8
151 1.6
152 2.9
215 0.18
250 19
251 2.7
252 12.3
253 0.16
254 2.1

>  <PREDICTED SPECTRUM>  (4478) 
33 0
34 0
36 31
37 5
38 16
40 0
43 13
47 13
49 53
50 272
51 217
52 35
53 43
55 28
57 61
60 15
61 119
62 106
63 113
64 8
65 2
69 84
70 39
71 9
73 41
74 207
75 476
76 216
77 109
78 9
79 23
82 20
83 85
84 105
85 182
86 72
87 116
88 65
93 15
94 27
96 8
97 90
98 86
99 45
100 14
102 32
104 60
105 28
106 0
109 52
110 80
111 658
112 122
113 375
114 77
115 30
116 10
137 8
138 13
139 999
140 185
141 641
142 213
143 7
150 188
151 153
152 104
153 37
187 54
189 42
202 5
215 63
216 122
217 153
250 344
251 138
252 299
253 105
254 132
255 8

$$$$

     RDKit          2D

 13 13  0  0  0  0  0  0  0  0999 V2000
   -0.2903    0.1688    0.0000 C   0  0  0  0  0  0  0  0  0  0  0  0
   -1.5888    2.4196    0.0000 C   0  0  0  0  0  0  0  0  0  0  0  0
    1.0088   -0.5812    0.0000 C   0  0  0  0  0  0  0  0  0  0  0  0
   -2.8879    1.6696    0.0000 C   0  0  0  0  0  0  0  0  0  0  0  0
    1.0097    2.4205    0.0000 C   0  0  0  0  0  0  0  0  0  0  0  0
   -0.2898    1.6696    0.0000 C   0  0  0  0  0  0  0  0  0  0  0  0
    2.3083    0.1696    0.0000 C   0  0  0  0  0  0  0  0  0  0  0  0
    2.3088    1.6705    0.0000 C   0  0  0  0  0  0  0  0  0  0  0  0
   -4.1869    2.4196    0.0000 C   0  0  0  0  0  0  0  0  0  0  0  0
    3.6073   -0.5804    0.0000 O   0  0  0  0  0  0  0  0  0  0  0  0
    3.6079    2.4203    0.0000 O   0  0  0  0  0  0  0  0  0  0  0  0
   -4.1869    3.9196    0.0000 O   0  0  0  0  0  0  0  0  0  0  0  0
   -5.4859    1.6696    0.0000 O   0  0  0  0  0  0  0  0  0  0  0  0
  3  1  2  0
  2  4  2  0
  6  1  1  0
  6  2  1  0
  6  5  2  0
  7  3  1  0
  8  5  1  0
  8  7  2  0
  9  4  1  0
 10  7  1  0
 11  8  1  0
 12  9  2  0
 13  9  1  0
M  END
>  <NAME>  (4479) 
CAFFEIC ACID

>  <SYNONYMS>  (4479) 


>  <SPECTRUM TYPE>  (4479) 
MS1

>  <INSTRUMENT TYPE>  (4479) 
EI-B

>  <INSTRUMENT>  (4479) 
HITACHI RMU-6E

>  <ION MODE>  (4479) 
P

>  <INCHIKEY>  (4479) 
QAIPRVGONGVQAS-DUXPYHPUSA-N

>  <FORMULA>  (4479) 
C9H8O4

>  <EXACT MASS>  (4479) 
180.042258736

>  <MW>  (4479) 
180

>  <ID>  (4479) 
JP004107

>  <CONTRIBUTOR>  (4479) 
University of Tokyo Team, {Faculty of Engineering, University of Tokyo

>  <COMMENT>  (4479) 
SMILES=OC(=O)C=Cc(c1)cc(O)c(O)c1
InChI=InChI=1S/C9H8O4/c10-7-3-1-6(5-8(7)11)2-4-9(12)13/h1-5,10-11H,(H,12,13)/b4-2+
computed SMILES=O=C(O)C=CC1=CC=C(O)C(O)=C1
accession=JP004107
date=2016.01.19 (Created 2008.10.21, modified 2011.05.06)
author=YAMAMOTO M, DEP. CHEMISTRY, FAC. SCIENCE, NARA WOMEN'S UNIV.
license=CC BY-NC-SA
exact mass=180.04226
ionization energy=70 eV
ion type=[M]+*
computed spectral entropy=3.4843898722193525
computed normalized entropy=0.802151462560774
SPLASH=splash10-001i-9800000000-bae43e98e22babcbf5a7
submitter=submitter = University of Tokyo Team (Faculty of Engineering, University of Tokyo)
MoNA Rating=3.75

>  <NUM PEAKS>  (4479) 
77

>  <MASS SPECTRAL PEAKS>  (4479) 
16 2
18 2.4
26 2.6
27 11.1
28 4.9
29 4.7
37 1.7
38 0.53
39 17.9
40 2.7
41 2.8
43 0.36
44 45.5
44.5 3.5
45 4.2
50 0.85
51 17.8
52 7.5
53 13.7
53.5 0.25
54 2.9
55 9
61 1.7
62 0.86
63 15.8
64 5.1
65 3.5
66 0.24
67 7.5
67.5 3.8
68 4.2
69 0.38
74 1.7
75 1.9
76 1.7
77 1.48
78 8.3
79 8.9
80 2
81 0.3
81.5 2.9
87 1.6
88 4.8
89 3.07
90 11.4
91 2.1
92 1.7
93 0.17
95 1.5
105 3.8
106 5.5
107 0.8
108 1.6
109 1.2
110 7.2
111 0.8
117 10.7
118 2.3
119 2.2
123 0.66
133 3.5
134 31.9
135 21.7
136 7.35
137 7.2
138 2
139 1.3
145 0.72
151 1.4
152 2
162 4.5
163 2.94
164 3
179 15.6
180 99.99
181 1.07
182 1.6

>  <PREDICTED SPECTRUM>  (4479) 
15 28
16 0
17 34
18 30
26 51
27 124
28 68
29 40
34 6
36 27
37 76
38 132
39 245
40 99
41 180
42 138
43 250
44 210
45 178
46 22
47 6
49 95
50 315
51 430
52 285
53 328
54 116
55 194
56 73
57 115
58 125
59 112
60 91
61 114
62 236
63 379
64 184
65 311
66 179
67 120
68 112
69 215
70 113
71 149
72 28
73 28
74 155
75 231
76 215
77 413
78 291
79 258
80 133
81 145
82 79
83 119
84 105
85 79
86 88
87 137
88 66
89 281
90 186
91 251
92 84
93 111
94 122
95 135
96 92
97 63
98 28
99 30
100 6
101 3
102 97
103 133
104 185
105 337
106 262
107 239
108 169
109 106
110 92
111 60
115 60
116 153
117 215
118 208
119 116
120 85
121 117
122 142
123 258
124 173
125 19
126 25
131 58
132 138
133 205
134 666
135 493
136 231
137 123
138 17
145 36
148 4
149 8
150 20
151 143
152 229
153 106
161 82
162 358
163 393
164 136
165 79
178 47
179 299
180 999
181 339
182 118
183 11

$$$$

     RDKit          2D

 13 14  0  0  0  0  0  0  0  0999 V2000
    2.1853   -2.6360    0.0000 C   0  0  0  0  0  0  0  0  0  0  0  0
   -1.0100    1.5000    0.0000 C   0  0  0  0  0  0  0  0  0  0  0  0
   -1.0100   -1.5000    0.0000 C   0  0  0  0  0  0  0  0  0  0  0  0
    2.6000   -0.0000    0.0000 C   0  0  0  0  0  0  0  0  0  0  0  0
    0.2900    0.7500    0.0000 C   0  0  0  0  0  0  0  0  0  0  0  0
    0.2900   -0.7500    0.0000 C   0  0  0  0  0  0  0  0  0  0  0  0
   -2.3100    0.7500    0.0000 C   0  0  0  0  0  0  0  0  0  0  0  0
   -2.3100   -0.7500    0.0000 C   0  0  0  0  0  0  0  0  0  0  0  0
    1.7200    1.2100    0.0000 C   0  0  0  0  0  0  0  0  0  0  0  0
    1.7200   -1.2100    0.0000 N   0  0  0  0  0  0  0  0  0  0  0  0
   -3.6089    1.5002    0.0000 O   0  0  0  0  0  0  0  0  0  0  0  0
   -3.6089   -1.5002    0.0000 O   0  0  0  0  0  0  0  0  0  0  0  0
    2.1853    2.6360    0.0000 O   0  0  0  0  0  0  0  0  0  0  0  0
  5  2  2  0
  6  3  2  0
  6  5  1  0
  7  2  1  0
  8  3  1  0
  8  7  2  0
  9  4  2  0
  9  5  1  0
 10  1  1  0
 10  4  1  0
 10  6  1  0
 11  7  1  0
 12  8  1  0
 13  9  1  0
M  END
>  <NAME>  (4480) 
ADRENOLUTIN

>  <SYNONYMS>  (4480) 


>  <SPECTRUM TYPE>  (4480) 
MS1

>  <INSTRUMENT TYPE>  (4480) 
EI-B

>  <INSTRUMENT>  (4480) 
HITACHI RMU-6E

>  <ION MODE>  (4480) 
P

>  <INCHIKEY>  (4480) 
DINWCUSJIVPQIO-UHFFFAOYSA-N

>  <FORMULA>  (4480) 
C9H9NO3

>  <EXACT MASS>  (4480) 
179.05824314799997

>  <MW>  (4480) 
179

>  <ID>  (4480) 
JP004106

>  <CONTRIBUTOR>  (4480) 
University of Tokyo Team, {Faculty of Engineering, University of Tokyo

>  <COMMENT>  (4480) 
SMILES=Oc(c1)c(O)cc(n(C)2)c1c(O)c2
InChI=InChI=1S/C9H9NO3/c1-10-4-9(13)5-2-7(11)8(12)3-6(5)10/h2-4,11-13H,1H3
computed SMILES=OC1=CC=2C(O)=CN(C2C=C1O)C
accession=JP004106
date=2016.01.19 (Created 2008.10.21, modified 2011.05.06)
author=YAMAMOTO M, DEP. CHEMISTRY, FAC. SCIENCE, NARA WOMEN'S UNIV.
license=CC BY-NC-SA
exact mass=179.05824
ion type=[M]+*
ionization energy=70 eV
computed spectral entropy=3.609345440104963
computed normalized entropy=0.8213419505075608
SPLASH=splash10-0fml-9600000000-e443993fc6dedd110e2a
submitter=submitter = University of Tokyo Team (Faculty of Engineering, University of Tokyo)
MoNA Rating=3.75

>  <NUM PEAKS>  (4480) 
81

>  <MASS SPECTRAL PEAKS>  (4480) 
14 2
15 17.6
18 5.1
26 2.4
27 17.3
28 10.4
29 7.7
37 0.43
38 8
39 24
40 5.5
41 1.75
42 64.6
43 8.8
44 7.9
49 0.34
50 21.5
51 33.4
52 19.4
52.5 1.03
53 19.1
53.5 2.2
54 6.3
55 1.89
56 3.6
57 1.7
60.5 1.8
61 0.46
62 15.6
63 13.5
64 8.1
65 1.13
66 8.6
67 11.4
68 8.7
69 0.37
74 1.9
75 3.4
76 3.6
77 1.97
78 7.7
79 7.1
80 6.6
81 1.53
82 11.4
89.5 8.2
90 4.1
91 0.3
92 2.7
93 3.7
94 6.8
95 0.45
103 1.6
104 11.6
105 8.9
106 0.35
107 3.9
108 8.6
109 17.6
110 0.4
118 1.9
121 2.3
122 5.1
123 99.99
124 8.5
127 2.7
129 1.5
132 3.12
133 5.1
134 2.9
135 2.3
136 2.98
137 3.5
149 2.4
150 3.21
151 7.7
164 2.5
165 1.2
178 0.69
179 87
180 10.4

>  <PREDICTED SPECTRUM>  (4480) 
14 27
15 30
16 2
18 25
19 4
26 59
27 126
28 76
29 135
30 73
31 29
33 14
34 27
36 62
37 201
38 314
39 500
40 331
41 455
42 498
43 319
44 255
45 128
46 46
47 31
49 152
50 428
51 542
52 624
53 536
54 359
55 273
56 129
57 110
58 10
61 141
62 238
63 282
64 193
65 247
66 431
67 409
68 305
69 258
70 104
71 1
74 112
75 190
76 248
77 393
78 270
79 245
80 287
81 200
82 77
83 53
88 22
89 68
90 135
91 36
92 37
93 112
94 252
95 411
96 192
97 57
102 87
103 251
104 234
105 390
106 116
107 56
108 204
109 184
110 37
111 59
118 37
119 27
120 83
121 185
122 316
123 999
124 210
132 42
133 139
134 82
135 51
136 53
137 103
148 6
149 18
150 278
151 233
152 0
162 52
164 153
165 43
178 34
179 955
180 289
181 26

$$$$

     RDKit          2D

 12 12  0  0  0  0  0  0  0  0999 V2000
   -2.9355    2.4474    0.0000 C   0  0  0  0  0  0  0  0  0  0  0  0
   -0.3375    2.4347    0.0000 C   0  0  0  0  0  0  0  0  0  0  0  0
    0.9653    3.1783    0.0000 C   0  0  0  0  0  0  0  0  0  0  0  0
    3.5596    3.1719    0.0000 C   0  0  0  0  0  0  0  0  0  0  0  0
    2.2461    0.9470    0.0000 C   0  0  0  0  0  0  0  0  0  0  0  0
    4.8441    2.4470    0.0000 C   0  0  0  0  0  0  0  0  0  0  0  0
    3.5706    0.1529    0.0000 C   0  0  0  0  0  0  0  0  0  0  0  0
   -1.6328    3.1910    0.0000 C   0  0  0  0  0  0  0  0  0  0  0  0
    2.2606    2.4219    0.0000 C   0  0  0  0  0  0  0  0  0  0  0  0
    4.8696    0.9029    0.0000 C   0  0  0  0  0  0  0  0  0  0  0  0
   -1.6254    4.6910    0.0000 O   0  0  0  0  0  0  0  0  0  0  0  0
    6.1748    0.1636    0.0000 O   0  0  0  0  0  0  0  0  0  0  0  0
  3  2  1  0
  6  4  2  0
  7  5  1  0
  8  1  1  0
  8  2  1  0
  9  3  1  0
  9  4  1  0
  9  5  2  0
 10  6  1  0
 10  7  2  0
 11  8  2  0
 12 10  1  0
M  END
>  <NAME>  (4481) 
4-(PARA-HYDROXYPHENYL)2-BUTANONE

>  <SYNONYMS>  (4481) 


>  <SPECTRUM TYPE>  (4481) 
MS1

>  <INSTRUMENT TYPE>  (4481) 
EI-B

>  <INSTRUMENT>  (4481) 
HITACHI RMU-6E

>  <ION MODE>  (4481) 
P

>  <INCHIKEY>  (4481) 
NJGBTKGETPDVIK-UHFFFAOYSA-N

>  <FORMULA>  (4481) 
C10H12O2

>  <EXACT MASS>  (4481) 
164.083729624

>  <MW>  (4481) 
164

>  <ID>  (4481) 
JP004105

>  <CONTRIBUTOR>  (4481) 
University of Tokyo Team, {Faculty of Engineering, University of Tokyo

>  <COMMENT>  (4481) 
SMILES=CC(=O)CCc(c1)ccc(O)c1
InChI=InChI=1S/C10H12O2/c1-8(11)2-3-9-4-6-10(12)7-5-9/h4-7,12H,2-3H2,1H3
computed SMILES=O=C(C)CCC1=CC=C(O)C=C1
accession=JP004105
date=2016.01.19 (Created 2008.10.21, modified 2011.05.06)
author=YAMAMOTO M, DEP. CHEMISTRY, FAC. SCIENCE, NARA WOMEN'S UNIV.
license=CC BY-NC-SA
exact mass=164.08373
ionization energy=70 eV
ion type=[M]+*
computed spectral entropy=2.5047338226549765
computed normalized entropy=0.7102886404184702
SPLASH=splash10-0a4i-5900000000-e86a807414e04733339d
submitter=submitter = University of Tokyo Team (Faculty of Engineering, University of Tokyo)
MoNA Rating=3.75

>  <NUM PEAKS>  (4481) 
34

>  <MASS SPECTRAL PEAKS>  (4481) 
15 3.1
27 6.3
28 3.5
38 1.3
39 11.6
40 1.6
41 2.5
43 6.88
44 1.7
50 1.9
51 5.9
52 0.24
53 4
55 6.4
63 2.6
65 0.59
66 1.5
77 15.2
78 2.8
79 0.16
91 6.1
93 2.1
94 15
103 0.57
107 99.99
108 8.1
119 1.5
120 0.26
121 13.5
122 1.3
149 5.7
163 0.09
164 36
165 3.8

>  <PREDICTED SPECTRUM>  (4481) 
15 23
27 41
28 19
29 34
31 5
38 32
39 168
40 75
41 48
42 85
43 770
44 37
50 78
51 177
52 102
53 158
54 4
55 137
58 3
62 56
63 123
64 27
65 167
66 95
67 26
69 62
71 51
76 25
77 388
78 162
79 234
89 18
90 38
91 282
92 42
93 190
94 286
95 126
96 27
102 1
103 86
104 23
105 134
106 182
107 999
108 149
118 2
119 62
120 169
121 240
122 139
131 237
146 115
147 14
149 185
150 10
163 17
164 702
165 223
166 15

$$$$

     RDKit          2D

 10 10  0  0  0  0  0  0  0  0999 V2000
    1.3000   -0.7500    0.0000 C   0  0  0  0  0  0  0  0  0  0  0  0
   -1.3000    0.7500    0.0000 C   0  0  0  0  0  0  0  0  0  0  0  0
    1.3000    0.7500    0.0000 C   0  0  0  0  0  0  0  0  0  0  0  0
   -1.3000   -0.7500    0.0000 C   0  0  0  0  0  0  0  0  0  0  0  0
    2.5989    1.5002    0.0000 C   0  0  0  0  0  0  0  0  0  0  0  0
    0.0000    1.5000    0.0000 N   0  0  0  0  0  0  0  0  0  0  0  0
   -0.0000   -1.5000    0.0000 N   0  0  0  0  0  0  0  0  0  0  0  0
   -2.5989   -1.5002    0.0000 O   0  0  0  0  0  0  0  0  0  0  0  0
    2.5987    3.0002    0.0000 O   0  0  0  0  0  0  0  0  0  0  0  0
    3.8981    0.7504    0.0000 O   0  0  0  0  0  0  0  0  0  0  0  0
  3  1  2  0
  4  2  1  0
  5  3  1  0
  6  2  2  0
  6  3  1  0
  7  1  1  0
  7  4  1  0
  8  4  2  0
  9  5  2  0
 10  5  1  0
M  END
>  <NAME>  (4482) 
5-HYDROXY-2-PYRAZINECARBOXYLIC ACID

>  <SYNONYMS>  (4482) 


>  <SPECTRUM TYPE>  (4482) 
MS1

>  <INSTRUMENT TYPE>  (4482) 
EI-B

>  <INSTRUMENT>  (4482) 
HITACHI RMU-6E

>  <ION MODE>  (4482) 
P

>  <INCHIKEY>  (4482) 
CGQFCIHUUCMACC-UHFFFAOYSA-N

>  <FORMULA>  (4482) 
C5H4N2O3

>  <EXACT MASS>  (4482) 
140.02219198799997

>  <MW>  (4482) 
140

>  <ID>  (4482) 
JP004104

>  <CONTRIBUTOR>  (4482) 
University of Tokyo Team, {Faculty of Engineering, University of Tokyo

>  <COMMENT>  (4482) 
SMILES=OC(=O)c(c1)ncc(O)n1
InChI=InChI=1S/C5H4N2O3/c8-4-2-6-3(1-7-4)5(9)10/h1-2H,(H,7,8)(H,9,10)
computed SMILES=O=C(O)C=1N=CC(=O)NC1
accession=JP004104
date=2016.01.19 (Created 2008.10.21, modified 2011.05.06)
author=YAMAMOTO M, DEP. CHEMISTRY, FAC. SCIENCE, NARA WOMEN'S UNIV.
license=CC BY-NC-SA
exact mass=140.02219
ionization energy=70 eV
ion type=[M]+*
computed spectral entropy=2.8788611728957947
computed normalized entropy=0.7804161693831476
SPLASH=splash10-0006-9300000000-a1a02f9bce8cdfe96e7f
submitter=submitter = University of Tokyo Team (Faculty of Engineering, University of Tokyo)
MoNA Rating=3.75

>  <NUM PEAKS>  (4482) 
40

>  <MASS SPECTRAL PEAKS>  (4482) 
17 3
18 15.8
25 1.6
26 3.1
27 4.2
28 61.3
29 14.7
36 0.17
38 9.8
39 16.9
40 36.1
41 2.93
42 16.6
43 2.8
44 6.6
45 1.03
51 5.6
52 5.6
53 13.4
54 0.26
55 3.1
56 5.7
57 3.7
65 0.17
66 2.9
68 44.9
69 8.8
70 0.44
77 2.5
94 4.2
95 41.2
96 5.73
97 3.5
112 3.1
121 4.8
122 1.45
123 6.8
140 99.99
141 8.3
142 1.5

>  <PREDICTED SPECTRUM>  (4482) 
17 4
26 14
28 76
36 17
37 51
38 149
39 218
40 278
41 481
42 389
43 213
44 343
45 440
46 64
49 57
50 114
51 209
52 351
53 216
54 237
55 262
56 192
57 146
58 34
64 13
65 125
66 189
67 576
68 913
69 353
70 176
78 68
83 10
84 59
93 11
94 397
95 823
96 999
97 198
112 91
122 281
123 226
124 20
140 696
141 223

$$$$

     RDKit          2D

 11 11  0  0  1  0  0  0  0  0999 V2000
   -1.2988    4.0696    0.0000 C   0  0  0  0  0  0  0  0  0  0  0  0
    2.5983    0.3196    0.0000 C   0  0  0  0  0  0  0  0  0  0  0  0
    2.5988    1.8204    0.0000 C   0  0  0  0  0  0  0  0  0  0  0  0
    1.2988   -0.4312    0.0000 C   0  0  0  0  0  0  0  0  0  0  0  0
    1.2998    2.5704    0.0000 C   0  0  0  0  0  0  0  0  0  0  0  0
   -0.0002    0.3188    0.0000 C   0  0  0  0  0  0  0  0  0  0  0  0
   -1.2988    2.5696    0.0000 C   0  0  0  0  0  0  0  0  0  0  0  0
    0.0002    1.8196    0.0000 C   0  0  0  0  0  0  0  0  0  0  0  0
   -2.5978    1.8196    0.0000 C   0  0  0  0  0  0  0  0  0  0  0  0
   -2.5978    0.3196    0.0000 O   0  0  0  0  0  0  0  0  0  0  0  0
   -3.8969    2.5696    0.0000 O   0  0  0  0  0  0  0  0  0  0  0  0
  3  2  2  0
  4  2  1  0
  5  3  1  0
  6  4  2  0
  7  1  1  6
  8  5  2  0
  8  6  1  0
  8  7  1  0
  9  7  1  0
 10  9  2  0
 11  9  1  0
M  END
>  <NAME>  (4483) 
HYDRATROPIC ACID

>  <SYNONYMS>  (4483) 


>  <SPECTRUM TYPE>  (4483) 
MS1

>  <INSTRUMENT TYPE>  (4483) 
EI-B

>  <INSTRUMENT>  (4483) 
HITACHI RMU-6E

>  <ION MODE>  (4483) 
P

>  <INCHIKEY>  (4483) 
YPGCWEMNNLXISK-SSDOTTSWSA-N

>  <FORMULA>  (4483) 
C9H10O2

>  <EXACT MASS>  (4483) 
150.06807956

>  <MW>  (4483) 
150

>  <ID>  (4483) 
JP004103

>  <CONTRIBUTOR>  (4483) 
University of Tokyo Team, {Faculty of Engineering, University of Tokyo

>  <COMMENT>  (4483) 
SMILES=OC(=O)C(C)c(c1)cccc1
InChI=InChI=1S/C9H10O2/c1-7(9(10)11)8-5-3-2-4-6-8/h2-7H,1H3,(H,10,11)/t7-/m1/s1
computed SMILES=O=C(O)C(C=1C=CC=CC1)C
accession=JP004103
date=2016.01.19 (Created 2008.10.21, modified 2011.05.06)
author=YAMAMOTO M, DEP. CHEMISTRY, FAC. SCIENCE, NARA WOMEN'S UNIV.
license=CC BY-NC-SA
exact mass=150.06808
ionization energy=70 eV
ion type=[M]+*
computed spectral entropy=2.460339058406819
computed normalized entropy=0.7233743832898221
SPLASH=splash10-0a6r-8900000000-b3d053ccd1651940b7a0
submitter=submitter = University of Tokyo Team (Faculty of Engineering, University of Tokyo)
MoNA Rating=3.75

>  <NUM PEAKS>  (4483) 
30

>  <MASS SPECTRAL PEAKS>  (4483) 
39 6.8
43 2
45 5.9
46 1.7
50 5.6
51 15.3
52 3.2
53 0.24
61 2.2
62 2.1
63 13.4
65 0.29
69 1.7
74 2.1
75 1.7
76 0.18
77 27.2
78 14.1
79 19.7
80 0.17
89 1.9
91 11.7
102 2
103 1.25
104 6.9
105 99.99
106 11.4
107 0.17
150 21
151 2

>  <PREDICTED SPECTRUM>  (4483) 
14 22
15 39
16 11
17 24
18 27
26 63
27 177
28 76
29 90
37 45
38 86
39 234
40 42
41 126
43 94
44 77
45 174
46 36
49 64
50 235
51 344
52 176
53 135
61 36
62 133
63 227
64 122
65 173
66 17
74 170
75 150
76 111
77 483
78 280
79 380
80 78
89 100
90 93
91 288
92 99
102 127
103 314
104 134
105 999
106 375
107 76
115 66
150 482
151 143
152 22

$$$$

     RDKit          2D

  9  9  0  0  0  0  0  0  0  0999 V2000
    3.5281    2.0402    0.0000 C   0  0  0  0  0  0  0  0  0  0  0  0
    3.5281    0.5402    0.0000 C   0  0  0  0  0  0  0  0  0  0  0  0
    0.9281    2.0402    0.0000 C   0  0  0  0  0  0  0  0  0  0  0  0
    0.9281    0.5402    0.0000 C   0  0  0  0  0  0  0  0  0  0  0  0
   -0.3708   -0.2100    0.0000 C   0  0  0  0  0  0  0  0  0  0  0  0
    2.2281    2.7902    0.0000 N   0  0  0  0  0  0  0  0  0  0  0  0
    2.2281   -0.2098    0.0000 N   0  0  0  0  0  0  0  0  0  0  0  0
   -0.3706   -1.7100    0.0000 O   0  0  0  0  0  0  0  0  0  0  0  0
   -1.6700    0.5398    0.0000 O   0  0  0  0  0  0  0  0  0  0  0  0
  2  1  2  0
  4  3  1  0
  5  4  1  0
  6  1  1  0
  6  3  2  0
  7  2  1  0
  7  4  2  0
  8  5  2  0
  9  5  1  0
M  END
>  <NAME>  (4484) 
2-PYRAZINECARBOXYLIC ACID

>  <SYNONYMS>  (4484) 


>  <SPECTRUM TYPE>  (4484) 
MS1

>  <INSTRUMENT TYPE>  (4484) 
EI-B

>  <INSTRUMENT>  (4484) 
HITACHI RMU-6E

>  <ION MODE>  (4484) 
P

>  <INCHIKEY>  (4484) 
NIPZZXUFJPQHNH-UHFFFAOYSA-N

>  <FORMULA>  (4484) 
C5H4N2O2

>  <EXACT MASS>  (4484) 
124.027277368

>  <MW>  (4484) 
124

>  <ID>  (4484) 
JP004102

>  <CONTRIBUTOR>  (4484) 
University of Tokyo Team, {Faculty of Engineering, University of Tokyo

>  <COMMENT>  (4484) 
SMILES=OC(=O)c(c1)nccn1
InChI=InChI=1S/C5H4N2O2/c8-5(9)4-3-6-1-2-7-4/h1-3H,(H,8,9)
computed SMILES=O=C(O)C1=NC=CN=C1
accession=JP004102
date=2016.01.19 (Created 2008.10.21, modified 2011.05.06)
author=YAMAMOTO M, DEP. CHEMISTRY, FAC. SCIENCE, NARA WOMEN'S UNIV.
license=CC BY-NC-SA
exact mass=124.02728
ionization energy=70 eV
ion type=[M]+*
computed spectral entropy=2.5434923547350308
computed normalized entropy=0.7553516183771853
SPLASH=splash10-0fc0-9100000000-0d1d9343efa8efa99226
submitter=submitter = University of Tokyo Team (Faculty of Engineering, University of Tokyo)
MoNA Rating=3.75

>  <NUM PEAKS>  (4484) 
29

>  <MASS SPECTRAL PEAKS>  (4484) 
25 3.9
26 34.1
27 3.2
28 24.3
29 1.1
38 3
39 3.9
39.5 0.24
40 2.9
41 2.2
42 3.8
44 0.24
45 8.8
50 2.1
51 20.8
52 7.74
53 77.4
54 3.5
69 1.4
70 2.06
77 2.5
78 11.2
79 38.9
80 99.99
81 5.4
106 17
107 8
124 7.2
125 10.9

>  <PREDICTED SPECTRUM>  (4484) 
14 11
16 10
17 2
19 7
25 134
26 130
27 119
28 116
34 10
36 85
37 3
38 238
39 104
40 427
41 658
42 443
43 276
44 422
45 525
49 104
50 124
51 474
52 778
53 676
54 289
55 39
57 134
67 255
68 172
69 179
77 22
78 154
79 835
80 999
81 195
96 233
107 120
124 522
125 163

$$$$

     RDKit          2D

 17 18  0  0  0  0  0  0  0  0999 V2000
    1.3202   -4.2581    0.0000 C   0  0  0  0  0  0  0  0  0  0  0  0
   -0.1571   -3.9978    0.0000 C   0  0  0  0  0  0  0  0  0  0  0  0
    3.7612   -1.8059    0.0000 C   0  0  0  0  0  0  0  0  0  0  0  0
    2.7966   -0.6561    0.0000 C   0  0  0  0  0  0  0  0  0  0  0  0
    3.2486   -3.2165    0.0000 C   0  0  0  0  0  0  0  0  0  0  0  0
    1.3194   -0.9169    0.0000 C   0  0  0  0  0  0  0  0  0  0  0  0
    1.7715   -3.4773    0.0000 C   0  0  0  0  0  0  0  0  0  0  0  0
    0.8069   -2.3275    0.0000 C   0  0  0  0  0  0  0  0  0  0  0  0
   -1.9693   -3.3383    0.0000 C   0  0  0  0  0  0  0  0  0  0  0  0
   -0.6707   -1.0874    0.0000 C   0  0  0  0  0  0  0  0  0  0  0  0
   -3.2693   -1.0866    0.0000 C   0  0  0  0  0  0  0  0  0  0  0  0
   -0.6703   -2.5883    0.0000 C   0  0  0  0  0  0  0  0  0  0  0  0
   -3.2688   -2.5874    0.0000 N   0  0  0  0  0  0  0  0  0  0  0  0
   -1.9703   -0.3366    0.0000 N   0  0  0  0  0  0  0  0  0  0  0  0
   -1.9695   -4.8383    0.0000 O   0  0  0  0  0  0  0  0  0  0  0  0
    0.6283   -0.3374    0.0000 O   0  0  0  0  0  0  0  0  0  0  0  0
   -4.5685   -0.3368    0.0000 O   0  0  0  0  0  0  0  0  0  0  0  0
  2  1  1  0
  4  3  1  0
  5  3  1  0
  6  4  1  0
  7  5  1  0
  8  6  2  0
  8  7  1  0
 12  2  1  0
 12  8  1  0
 12  9  1  0
 12 10  1  0
 13  9  2  0
 13 11  1  0
 14 10  2  0
 14 11  1  0
 15  9  1  0
 16 10  1  0
 17 11  2  0
M  END
>  <NAME>  (4485) 
CYCLOBARBITAL

>  <SYNONYMS>  (4485) 


>  <SPECTRUM TYPE>  (4485) 
MS1

>  <INSTRUMENT TYPE>  (4485) 
EI-B

>  <INSTRUMENT>  (4485) 
HITACHI RMU-6E

>  <ION MODE>  (4485) 
P

>  <INCHIKEY>  (4485) 
WTYGAUXICFETTC-UHFFFAOYSA-N

>  <FORMULA>  (4485) 
C12H16N2O3

>  <EXACT MASS>  (4485) 
236.11609237199997

>  <MW>  (4485) 
236

>  <ID>  (4485) 
JP004101

>  <CONTRIBUTOR>  (4485) 
University of Tokyo Team, {Faculty of Engineering, University of Tokyo

>  <COMMENT>  (4485) 
SMILES=CCC(C(=O)2)(C(=O)NC(=O)N2)C(C1)=CCCC1
InChI=InChI=1S/C12H16N2O3/c1-2-12(8-6-4-3-5-7-8)9(15)13-11(17)14-10(12)16/h6H,2-5,7H2,1H3,(H2,13,14,15,16,17)
computed SMILES=O=C1N=C(O)C(C(O)=N1)(C2=CCCCC2)CC
accession=JP004101
date=2016.01.19 (Created 2008.10.21, modified 2011.05.06)
author=YAMAMOTO M, DEP. CHEMISTRY, FAC. SCIENCE, NARA WOMEN'S UNIV.
license=CC BY-NC-SA
exact mass=236.11609
ionization energy=70 eV
ion type=[M]+*
computed spectral entropy=2.840692445633787
computed normalized entropy=0.7189362762602886
SPLASH=splash10-0a4i-9370000000-8824ae0212f57694f101
submitter=submitter = University of Tokyo Team (Faculty of Engineering, University of Tokyo)
MoNA Rating=3.75

>  <NUM PEAKS>  (4485) 
52

>  <MASS SPECTRAL PEAKS>  (4485) 
39 9.8
40 1.9
41 13
43 1.7
44 3.2
51 4
52 3.3
53 0.73
54 1.8
55 4.7
65 5.1
66 0.24
67 25.6
68 2.3
70 2.1
77 0.99
78 3
79 19.9
80 15.1
81 2.68
82 2.1
91 7.9
92 1.5
93 0.43
94 1.5
96 2.2
97 2
98 0.57
105 1.8
107 1.7
108 1.3
119 0.23
121 3.5
122 2.3
136 2.1
137 0.15
141 31.3
142 1.9
146 1.5
147 0.64
148 1.3
150 1.1
154 1
157 0.68
164 5.9
165 1.9
179 1.4
207 99.99
208 12.3
209 1.4
235 1.2
236 1

>  <PREDICTED SPECTRUM>  (4485) 
33 16
37 14
38 69
39 414
40 244
41 658
42 441
43 359
44 156
45 175
50 145
51 270
52 273
53 498
54 372
55 713
56 203
57 112
58 64
59 41
60 21
62 25
63 139
64 147
65 334
66 304
67 693
68 433
69 302
70 151
71 138
73 89
74 16
75 15
76 87
77 378
78 206
79 374
80 221
81 363
82 288
83 310
84 88
85 86
86 82
87 33
91 188
92 84
93 285
94 236
95 268
96 180
97 76
98 130
99 50
103 46
105 154
106 152
107 358
108 157
109 284
110 126
111 148
112 174
113 302
114 106
115 75
119 121
120 137
121 301
122 251
123 200
124 188
125 205
126 150
127 55
128 37
131 42
133 55
134 101
135 220
136 170
137 290
138 150
139 161
140 94
141 152
142 1
145 13
147 236
148 72
149 168
150 187
151 227
152 167
153 165
154 78
161 181
162 317
163 218
164 119
165 371
166 281
167 204
168 30
176 90
177 8
178 147
179 286
180 183
181 71
189 196
190 108
191 179
192 44
193 343
194 251
195 63
207 999
208 716
209 245
219 58
221 201
222 7
235 343
236 680
237 256
238 18

$$$$

     RDKit          2D

 15 16  0  0  0  0  0  0  0  0999 V2000
   -3.7969    1.9928    0.0000 C   0  0  0  0  0  0  0  0  0  0  0  0
   -3.2834    3.4031    0.0000 C   0  0  0  0  0  0  0  0  0  0  0  0
   -2.8324    0.8439    0.0000 C   0  0  0  0  0  0  0  0  0  0  0  0
    1.7575    2.5164    0.0000 C   0  0  0  0  0  0  0  0  0  0  0  0
    0.4575    0.2648    0.0000 C   0  0  0  0  0  0  0  0  0  0  0  0
   -1.8055    3.6645    0.0000 C   0  0  0  0  0  0  0  0  0  0  0  0
   -1.3545    1.1053    0.0000 C   0  0  0  0  0  0  0  0  0  0  0  0
    3.0565    1.7664    0.0000 C   0  0  0  0  0  0  0  0  0  0  0  0
    1.7565   -0.4852    0.0000 C   0  0  0  0  0  0  0  0  0  0  0  0
    0.4580    1.7656    0.0000 C   0  0  0  0  0  0  0  0  0  0  0  0
    0.1230    3.6648    0.0000 C   0  0  0  0  0  0  0  0  0  0  0  0
   -0.8411    2.5156    0.0000 C   0  0  0  0  0  0  0  0  0  0  0  0
    1.6002    3.4045    0.0000 O   0  0  0  0  0  0  0  0  0  0  0  0
   -0.3902    5.0743    0.0000 O   0  0  0  0  0  0  0  0  0  0  0  0
    3.0560    0.2656    0.0000 O   0  0  0  0  0  0  0  0  0  0  0  0
  2  1  2  0
  3  1  1  0
  6  2  1  0
  7  3  1  0
  8  4  1  0
  9  5  1  0
 10  4  1  0
 10  5  1  0
 12  6  1  0
 12  7  1  0
 12 10  1  0
 12 11  1  0
 13 11  2  0
 14 11  1  0
 15  8  1  0
 15  9  1  0
M  END
>  <NAME>  (4486) 
1-(4-TETRAHYDROPYRANYL)-3-CYCLOHEXENE-1-CARBOXYLIC ACID

>  <SYNONYMS>  (4486) 


>  <SPECTRUM TYPE>  (4486) 
MS1

>  <INSTRUMENT TYPE>  (4486) 
EI-B

>  <INSTRUMENT>  (4486) 
HITACHI RMU-6E

>  <ION MODE>  (4486) 
P

>  <INCHIKEY>  (4486) 
YQPBVJDSXMVFOX-UHFFFAOYSA-N

>  <FORMULA>  (4486) 
C12H18O3

>  <EXACT MASS>  (4486) 
210.12559443599997

>  <MW>  (4486) 
210

>  <ID>  (4486) 
JP004100

>  <CONTRIBUTOR>  (4486) 
University of Tokyo Team, {Faculty of Engineering, University of Tokyo

>  <COMMENT>  (4486) 
InChI=InChI=1S/C12H18O3/c13-11(14)12(6-2-1-3-7-12)10-4-8-15-9-5-10/h1-2,10H,3-9H2,(H,13,14)
SMILES=[H]C(C2)=C([H])CC(C2)(C(O)=O)C(C1)CCOC1
computed SMILES=O=C(O)C1(CC=CCC1)C2CCOCC2
accession=JP004100
date=2016.01.19 (Created 2008.10.21, modified 2011.05.06)
author=YAMAMOTO M, DEP. CHEMISTRY, FAC. SCIENCE, NARA WOMEN'S UNIV.
license=CC BY-NC-SA
exact mass=210.12559
ionization energy=70 eV
ion type=[M]+*
computed spectral entropy=3.4708342541649984
computed normalized entropy=0.8142376050471964
SPLASH=splash10-0a7i-9200000000-a493984272e809c6433c
submitter=submitter = University of Tokyo Team (Faculty of Engineering, University of Tokyo)
MoNA Rating=3.75

>  <NUM PEAKS>  (4486) 
71

>  <MASS SPECTRAL PEAKS>  (4486) 
27 14.7
28 5.5
29 25.7
31 5.3
39 19.6
40 2.6
41 32.7
42 0.25
43 18.1
44 2.8
45 3.4
50 0.15
51 6.2
52 3.6
53 15.6
54 0.94
55 85.1
56 7.2
57 12.6
65 0.68
66 4
67 25.9
68 14.3
69 0.44
77 17.3
78 10.3
79 50.2
80 1.26
81 18
82 2.8
83 99.99
84 0.65
85 13
86 10.6
91 18.4
92 0.61
93 7.9
94 2.6
95 2.3
96 0.42
97 4.5
103 1.9
104 2
105 0.91
106 2.7
107 8.6
108 27.9
109 0.43
110 1.6
111 2.5
117 6.4
118 0.54
119 8.5
120 6.2
121 4.7
122 0.15
123 9.3
124 6.9
125 28.4
126 2.33
127 2.3
131 1.6
133 3.7
135 0.19
136 1.4
146 1.5
147 1.2
164 4
165 5.8
192 5.6
210 6

>  <PREDICTED SPECTRUM>  (4486) 
26 47
27 335
28 107
29 390
30 80
31 148
37 4
38 34
39 500
40 198
41 818
42 182
43 542
44 303
45 185
46 37
50 76
51 264
52 182
53 489
54 281
55 999
56 263
57 382
58 40
59 58
60 15
63 104
64 38
65 309
66 190
67 648
68 247
69 202
70 131
71 107
77 391
78 280
79 631
80 372
81 532
82 376
83 922
84 341
85 446
86 235
89 1
91 607
92 257
93 410
94 261
95 386
96 128
97 272
98 53
101 17
103 2
104 16
105 221
106 136
107 297
108 236
109 223
110 201
111 221
112 49
117 165
119 285
120 190
121 113
122 78
123 166
124 262
125 277
126 173
127 98
128 74
131 150
132 61
133 119
134 111
135 63
136 168
137 67
138 81
139 45
151 34
152 155
164 173
165 209
180 85
182 23
193 25
194 28
210 101
211 13

$$$$

     RDKit          2D

 20 23  0  0  1  0  0  0  0  0999 V2000
    3.5881   -2.9399    0.0000 C   0  0  0  0  0  0  0  0  0  0  0  0
   -3.4987    5.1902    0.0000 C   0  0  0  0  0  0  0  0  0  0  0  0
   -0.9000   -3.8100    0.0000 C   0  0  0  0  0  0  0  0  0  0  0  0
   -2.2000   -3.0600    0.0000 C   0  0  0  0  0  0  0  0  0  0  0  0
    0.4000   -3.0600    0.0000 C   0  0  0  0  0  0  0  0  0  0  0  0
    0.4000    2.9400    0.0000 C   0  0  0  0  0  0  0  0  0  0  0  0
   -0.9000    3.6900    0.0000 C   0  0  0  0  0  0  0  0  0  0  0  0
   -2.2000   -1.5600    0.0000 C   0  0  0  0  0  0  0  0  0  0  0  0
    0.4000   -0.0600    0.0000 C   0  0  0  0  0  0  0  0  0  0  0  0
    3.0200   -0.0600    0.0000 C   0  0  0  0  0  0  0  0  0  0  0  0
    1.7000    0.6900    0.0000 C   0  0  0  0  0  0  0  0  0  0  0  0
   -2.2000    1.4400    0.0000 C   0  0  0  0  0  0  0  0  0  0  0  0
    0.4000    1.4400    0.0000 C   0  0  0  0  0  0  0  0  0  0  0  0
   -2.2000    2.9400    0.0000 C   0  0  0  0  0  0  0  0  0  0  0  0
    0.4000   -1.5600    0.0000 C   0  0  0  0  0  0  0  0  0  0  0  0
   -0.9000    0.6900    0.0000 C   0  0  0  0  0  0  0  0  0  0  0  0
    1.7000   -0.8100    0.0000 C   0  0  0  0  0  0  0  0  0  0  0  0
   -0.9000   -0.8100    0.0000 C   0  0  0  0  0  0  0  0  0  0  0  0
    3.0000   -1.5600    0.0000 N   0  0  0  0  0  0  0  0  0  0  0  0
   -3.4989    3.6902    0.0000 O   0  0  0  0  0  0  0  0  0  0  0  0
  4  3  1  0
  5  3  1  0
  7  6  1  0
  8  4  1  0
 10  9  1  0
 13  6  2  0
 13 11  1  0
 14  7  2  0
 14 12  1  0
 15  5  1  6
 16 12  2  0
 16 13  1  0
 17 11  1  1
 17 15  1  0
 18  8  1  1
 18  9  1  0
 18 15  1  0
 18 16  1  0
 19  1  1  0
 19 10  1  0
 17 19  1  0
 20  2  1  0
 20 14  1  0
M  END
>  <NAME>  (4487) 
RACEMETHORPHAN

>  <SYNONYMS>  (4487) 


>  <SPECTRUM TYPE>  (4487) 
MS1

>  <INSTRUMENT TYPE>  (4487) 
EI-B

>  <INSTRUMENT>  (4487) 
HITACHI RMU-6E

>  <ION MODE>  (4487) 
P

>  <INCHIKEY>  (4487) 
MKXZASYAUGDDCJ-CGTJXYLNSA-N

>  <FORMULA>  (4487) 
C18H25NO

>  <EXACT MASS>  (4487) 
271.19361442

>  <MW>  (4487) 
271

>  <ID>  (4487) 
JP004099

>  <CONTRIBUTOR>  (4487) 
University of Tokyo Team, {Faculty of Engineering, University of Tokyo

>  <COMMENT>  (4487) 
SMILES=COc(c4)cc(c(c4)1)C(C3)(C2)C([H])(CCC3)C(N(C)C2)C1
InChI=InChI=1S/C18H25NO/c1-19-10-9-18-8-4-3-5-15(18)17(19)11-13-6-7-14(20-2)12-16(13)18/h6-7,12,15,17H,3-5,8-11H2,1-2H3/t15-,17+,18+/m0/s1
computed SMILES=O(C1=CC=C2C(=C1)C34CCN(C)C(C2)C4CCCC3)C
accession=JP004099
date=2016.01.19 (Created 2008.10.21, modified 2011.05.06)
author=YAMAMOTO M, DEP. CHEMISTRY, FAC. SCIENCE, NARA WOMEN'S UNIV.
license=CC BY-NC-SA
exact mass=271.19361
ionization energy=70 eV
ion type=[M]+*
computed spectral entropy=3.4296419821464403
computed normalized entropy=0.7699538796696582
SPLASH=splash10-0ab9-9640000000-22a67aaa9771bdc70ea1
submitter=submitter = University of Tokyo Team (Faculty of Engineering, University of Tokyo)
MoNA Rating=3.75

>  <NUM PEAKS>  (4487) 
86

>  <MASS SPECTRAL PEAKS>  (4487) 
30 13.4
31 19.7
41 3.2
42 11.7
43 1.6
44 10.3
55 2.3
57 0.16
58 7.7
59 99.99
60 6.6
67 0.18
70 3.4
77 3
79 1.9
81 0.14
82 4.8
83 1.5
91 3.8
94 0.22
107 1.4
108 1.5
115 6.3
116 0.15
117 1.2
121 3.2
122 2.2
123 0.18
127 2.2
128 6.6
129 4.1
130 0.11
131 1.3
135 2.6
135.5 2.7
136 0.17
141 5.1
142 1.9
143 1.5
144 0.23
145 1.9
146 2.5
147 2.4
148 0.34
150 34.4
151 3.9
152 1.7
153 0.22
154 1.4
155 2.7
156 1.2
157 0.2
158 2.3
159 3.4
160 2.4
161 0.25
162 3.6
165 1.4
169 1.1
170 0.18
171 14.2
172 6.8
173 2
174 0.46
175 3.1
183 1.3
184 2.8
185 0.31
186 1.5
197 1.4
198 1.9
199 0.17
200 1.1
202 1.2
203 7.5
204 0.11
212 8.7
213 9.9
214 20.3
215 0.36
228 2.9
242 3.8
256 3.3
270 2.12
271 38
272 7.8

>  <PREDICTED SPECTRUM>  (4487) 
31 10
41 108
42 263
43 65
44 299
45 177
51 3
53 50
55 83
57 94
58 382
59 999
60 249
65 49
67 26
69 6
70 72
73 22
77 147
78 5
79 5
82 213
83 50
84 13
91 126
94 53
96 38
98 8
103 1
115 336
116 134
122 92
127 24
128 326
129 219
131 17
141 232
142 53
146 32
148 127
150 836
151 197
152 208
153 101
154 66
155 52
157 124
158 96
160 160
161 121
162 38
165 43
167 37
170 32
171 191
172 127
174 369
175 46
181 12
182 2
195 16
197 21
203 320
204 73
212 350
213 161
214 347
215 79
226 55
228 132
229 0
242 16
256 180
257 69
269 109
270 593
271 722
272 335
273 88

$$$$

     RDKit          2D

 13 14  0  0  0  0  0  0  0  0999 V2000
   -5.1981    0.5004    0.0000 C   0  0  0  0  0  0  0  0  0  0  0  0
   -1.3000   -1.7500    0.0000 C   0  0  0  0  0  0  0  0  0  0  0  0
    1.3000   -1.7500    0.0000 C   0  0  0  0  0  0  0  0  0  0  0  0
   -2.6000   -1.0000    0.0000 C   0  0  0  0  0  0  0  0  0  0  0  0
    2.6000   -1.0000    0.0000 C   0  0  0  0  0  0  0  0  0  0  0  0
   -1.3000    1.2500    0.0000 C   0  0  0  0  0  0  0  0  0  0  0  0
    0.0000   -1.0000    0.0000 C   0  0  0  0  0  0  0  0  0  0  0  0
   -2.6000    0.5000    0.0000 C   0  0  0  0  0  0  0  0  0  0  0  0
    0.0000    0.5000    0.0000 C   0  0  0  0  0  0  0  0  0  0  0  0
    2.6000    0.5000    0.0000 C   0  0  0  0  0  0  0  0  0  0  0  0
    3.8989    1.2502    0.0000 O   0  0  0  0  0  0  0  0  0  0  0  0
   -3.8989    1.2502    0.0000 O   0  0  0  0  0  0  0  0  0  0  0  0
    1.3000    1.2500    0.0000 O   0  0  0  0  0  0  0  0  0  0  0  0
  4  2  2  0
  5  3  2  0
  7  2  1  0
  7  3  1  0
  8  4  1  0
  8  6  2  0
  9  6  1  0
  9  7  2  0
 10  5  1  0
 11 10  2  0
 12  1  1  0
 12  8  1  0
 13  9  1  0
 13 10  1  0
M  END
>  <NAME>  (4488) 
7-METHOXYCOUMARIN

>  <SYNONYMS>  (4488) 


>  <SPECTRUM TYPE>  (4488) 
MS1

>  <INSTRUMENT TYPE>  (4488) 
EI-B

>  <INSTRUMENT>  (4488) 
HITACHI RMU-6E

>  <ION MODE>  (4488) 
P

>  <INCHIKEY>  (4488) 
LIIALPBMIOVAHH-UHFFFAOYSA-N

>  <FORMULA>  (4488) 
C10H8O3

>  <EXACT MASS>  (4488) 
176.04734411599998

>  <MW>  (4488) 
176

>  <ID>  (4488) 
JP004097

>  <CONTRIBUTOR>  (4488) 
University of Tokyo Team, {Faculty of Engineering, University of Tokyo

>  <COMMENT>  (4488) 
SMILES=COc(c1)cc(O2)c(C=CC(=O)2)c1
InChI=InChI=1S/C10H8O3/c1-12-8-4-2-7-3-5-10(11)13-9(7)6-8/h2-6H,1H3
computed SMILES=O=C1OC=2C=C(OC)C=CC2C=C1
accession=JP004097
date=2016.01.19 (Created 2008.10.21, modified 2011.05.06)
author=YAMAMOTO M, DEP. CHEMISTRY, FAC. SCIENCE, NARA WOMEN'S UNIV.
license=CC BY-NC-SA
exact mass=176.04734
ionization energy=70 eV
ion type=[M]+*
computed spectral entropy=2.182740178618089
computed normalized entropy=0.6622719107042181
SPLASH=splash10-004i-2900000000-5b9073b915d724268702
submitter=submitter = University of Tokyo Team (Faculty of Engineering, University of Tokyo)
MoNA Rating=3.75

>  <NUM PEAKS>  (4488) 
27

>  <MASS SPECTRAL PEAKS>  (4488) 
38 2.6
39 3
44.5 1.9
50 4.8
51 13.7
53 1.5
62 4.2
63 0.9
64 1.7
69 4
74 3.7
76 0.28
77 14.8
79 1.6
88 1.5
89 0.52
90 2.6
91 2.9
105 7.7
120 0.22
133 57.4
134 5.1
148 53.2
149 0.57
176 99.99
177 11.3
178 1.3

>  <PREDICTED SPECTRUM>  (4488) 
15 30
26 27
27 4
28 24
37 82
38 101
39 183
49 83
50 340
51 443
52 187
53 196
54 9
61 109
62 257
63 314
64 103
65 29
66 30
69 83
74 175
75 205
76 214
77 579
78 166
79 226
86 37
87 10
88 27
89 238
90 72
91 16
92 17
104 87
105 619
106 122
117 174
118 137
119 94
120 61
132 3
133 820
134 162
145 122
146 8
147 209
148 942
149 326
161 139
162 22
175 108
176 999
177 325
178 41

$$$$

     RDKit          2D

 15 16  0  0  0  0  0  0  0  0999 V2000
   -6.5044    0.7424    0.0000 C   0  0  0  0  0  0  0  0  0  0  0  0
   -5.2054   -0.0078    0.0000 C   0  0  0  0  0  0  0  0  0  0  0  0
    3.8881    2.2511    0.0000 C   0  0  0  0  0  0  0  0  0  0  0  0
    3.8903    0.7511    0.0000 C   0  0  0  0  0  0  0  0  0  0  0  0
    2.5869    2.9991    0.0000 C   0  0  0  0  0  0  0  0  0  0  0  0
   -2.6113    2.9850    0.0000 C   0  0  0  0  0  0  0  0  0  0  0  0
   -3.9058    2.2428    0.0000 C   0  0  0  0  0  0  0  0  0  0  0  0
    2.5915   -0.0009    0.0000 C   0  0  0  0  0  0  0  0  0  0  0  0
    1.2881    2.2472    0.0000 C   0  0  0  0  0  0  0  0  0  0  0  0
   -1.3122    2.2350    0.0000 C   0  0  0  0  0  0  0  0  0  0  0  0
   -2.6072   -0.0080    0.0000 C   0  0  0  0  0  0  0  0  0  0  0  0
   -3.9063    0.7420    0.0000 C   0  0  0  0  0  0  0  0  0  0  0  0
    1.2903    0.7472    0.0000 C   0  0  0  0  0  0  0  0  0  0  0  0
   -1.3077    0.7428    0.0000 C   0  0  0  0  0  0  0  0  0  0  0  0
   -0.0074   -0.0050    0.0000 O   0  0  0  0  0  0  0  0  0  0  0  0
  2  1  2  0
  4  3  2  0
  5  3  1  0
  7  6  2  0
  8  4  1  0
  9  5  2  0
 10  6  1  0
 12  2  1  0
 12  7  1  0
 12 11  2  0
 13  8  2  0
 13  9  1  0
 14 10  2  0
 14 11  1  0
 15 13  1  0
 15 14  1  0
M  END
>  <NAME>  (4489) 
3-PHENOXYSTYRENE

>  <SYNONYMS>  (4489) 


>  <SPECTRUM TYPE>  (4489) 
MS1

>  <INSTRUMENT TYPE>  (4489) 
EI-B

>  <INSTRUMENT>  (4489) 
HITACHI RMU-6E

>  <ION MODE>  (4489) 
P

>  <INCHIKEY>  (4489) 
QDCUAHOXDLTZCU-UHFFFAOYSA-N

>  <FORMULA>  (4489) 
C14H12O

>  <EXACT MASS>  (4489) 
196.088815004

>  <MW>  (4489) 
196

>  <ID>  (4489) 
JP004096

>  <CONTRIBUTOR>  (4489) 
University of Tokyo Team, {Faculty of Engineering, University of Tokyo

>  <COMMENT>  (4489) 
SMILES=C=Cc(c2)cc(cc2)Oc(c1)cccc1
InChI=InChI=1S/C14H12O/c1-2-12-7-6-10-14(11-12)15-13-8-4-3-5-9-13/h2-11H,1H2
computed SMILES=O(C=1C=CC=CC1)C2=CC=CC(C=C)=C2
accession=JP004096
date=2016.01.19 (Created 2008.10.21, modified 2011.05.06)
author=YAMAMOTO M, DEP. CHEMISTRY, FAC. SCIENCE, NARA WOMEN'S UNIV.
license=CC BY-NC-SA
exact mass=196.08882
ionization energy=70 eV
ion type=[M]+*
computed spectral entropy=2.9147491723355907
computed normalized entropy=0.7273538379780372
SPLASH=splash10-0002-5900000000-3ef35ccd79675e5cbcf4
submitter=submitter = University of Tokyo Team (Faculty of Engineering, University of Tokyo)
MoNA Rating=3.75

>  <NUM PEAKS>  (4489) 
55

>  <MASS SPECTRAL PEAKS>  (4489) 
38 1.6
39 9.7
41 1.4
50 6
51 28.3
52 2.9
53 2
62 0.14
63 6
64 2
65 6.2
70 0.14
71 1.3
74 2.1
75 3.2
76 0.44
77 46
78 3.3
82 1.8
82.5 0.14
84 1.7
89 1.9
91 4.5
94 0.25
98 5.2
102 6.8
103 9.2
104 0.11
105 1.5
115 3.9
120 2.3
128 0.18
135 1.5
139 1.4
141 6.6
142 0.26
152 6.4
153 8.3
154 1.4
165 0.57
166 2.4
167 17.7
168 5.4
169 0.48
170 9.2
171 1.3
177 2.8
178 0.13
179 1
181 3.4
194 1
195 0.69
196 99.99
197 15.5
198 1.8

>  <PREDICTED SPECTRUM>  (4489) 
17 9
18 2
26 8
27 71
28 22
29 6
37 21
38 107
39 309
40 82
41 37
44 18
50 238
51 474
52 104
53 49
55 59
57 38
62 122
63 253
64 138
65 236
66 118
67 30
68 4
69 42
70 9
74 144
75 182
76 172
77 592
78 245
82 3
84 26
85 11
86 21
87 6
88 22
89 192
90 124
91 182
92 82
94 49
101 35
102 150
103 167
104 72
113 21
114 43
115 227
116 67
117 15
118 107
119 132
120 76
127 82
128 119
129 13
139 143
140 45
141 271
142 107
151 72
152 196
153 254
154 39
155 58
165 191
166 137
167 316
168 289
169 216
170 47
177 102
178 98
179 130
180 48
181 371
182 7
194 59
195 185
196 999
197 384
198 70

$$$$

     RDKit          2D

 14 14  0  0  0  0  0  0  0  0999 V2000
    2.9341   -0.3988    0.0000 C   0  0  0  0  0  0  0  0  0  0  0  0
    4.8624   -0.3985    0.0000 C   0  0  0  0  0  0  0  0  0  0  0  0
   -1.3000    0.7500    0.0000 C   0  0  0  0  0  0  0  0  0  0  0  0
   -0.0000   -1.5000    0.0000 C   0  0  0  0  0  0  0  0  0  0  0  0
    0.0000    1.5000    0.0000 C   0  0  0  0  0  0  0  0  0  0  0  0
    1.3000   -0.7500    0.0000 C   0  0  0  0  0  0  0  0  0  0  0  0
   -1.3000   -0.7500    0.0000 C   0  0  0  0  0  0  0  0  0  0  0  0
    1.3000    0.7500    0.0000 C   0  0  0  0  0  0  0  0  0  0  0  0
    5.1970    1.5006    0.0000 C   0  0  0  0  0  0  0  0  0  0  0  0
    3.8981    0.7504    0.0000 C   0  0  0  0  0  0  0  0  0  0  0  0
   -2.5989   -1.5002    0.0000 Cl  0  0  0  0  0  0  0  0  0  0  0  0
    5.1968    3.0006    0.0000 O   0  0  0  0  0  0  0  0  0  0  0  0
    6.4962    0.7508    0.0000 O   0  0  0  0  0  0  0  0  0  0  0  0
    2.5989    1.5002    0.0000 O   0  0  0  0  0  0  0  0  0  0  0  0
  5  3  2  0
  6  4  1  0
  7  3  1  0
  7  4  2  0
  8  5  1  0
  8  6  2  0
 10  1  1  0
 10  2  1  0
 10  9  1  0
 11  7  1  0
 12  9  2  0
 13  9  1  0
 14  8  1  0
 14 10  1  0
M  END
>  <NAME>  (4490) 
ALPHA-(4-CHLOROPHENOXY)ISOBUTYLIC ACID

>  <SYNONYMS>  (4490) 


>  <SPECTRUM TYPE>  (4490) 
MS1

>  <INSTRUMENT TYPE>  (4490) 
EI-B

>  <INSTRUMENT>  (4490) 
HITACHI RMU-6E

>  <ION MODE>  (4490) 
P

>  <INCHIKEY>  (4490) 
TXCGAZHTZHNUAI-UHFFFAOYSA-N

>  <FORMULA>  (4490) 
C10H11ClO3

>  <EXACT MASS>  (4490) 
214.039671892

>  <MW>  (4490) 
214

>  <ID>  (4490) 
JP004095

>  <CONTRIBUTOR>  (4490) 
University of Tokyo Team, {Faculty of Engineering, University of Tokyo

>  <COMMENT>  (4490) 
SMILES=OC(=O)C(C)(C)Oc(c1)ccc(Cl)c1
InChI=InChI=1S/C10H11ClO3/c1-10(2,9(12)13)14-8-5-3-7(11)4-6-8/h3-6H,1-2H3,(H,12,13)
computed SMILES=O=C(O)C(OC1=CC=C(Cl)C=C1)(C)C
accession=JP004095
date=2016.01.19 (Created 2008.10.21, modified 2011.05.06)
author=YAMAMOTO M, DEP. CHEMISTRY, FAC. SCIENCE, NARA WOMEN'S UNIV.
license=CC BY-NC-SA
exact mass=214.03967
ionization energy=70 eV
ion type=[M]+*
computed spectral entropy=1.89186838396756
computed normalized entropy=0.5806667672027974
SPLASH=splash10-004i-2900000000-2209f763ac56a9c1d08a
submitter=submitter = University of Tokyo Team (Faculty of Engineering, University of Tokyo)
MoNA Rating=3.75

>  <NUM PEAKS>  (4490) 
26

>  <MASS SPECTRAL PEAKS>  (4490) 
39 4.4
41 8.9
43 2.6
45 1.7
50 1.5
59 1.7
63 2.3
64 0.18
65 5.3
69 2.6
73 2.2
75 0.41
84.5 2.1
93 1.4
99 2.7
100 0.18
111 3.7
128 99.99
129 9.1
130 3.25
131 3
169 4.8
171 1.8
214 0.8
215 1.2
216 2.6

>  <PREDICTED SPECTRUM>  (4490) 
14 1
15 31
16 2
17 10
18 19
26 46
27 183
28 96
29 205
30 10
31 86
32 34
36 27
37 47
38 131
39 261
40 95
41 385
42 194
43 157
44 57
45 145
47 46
49 38
50 124
51 67
53 48
58 81
59 114
60 22
61 67
62 113
63 245
64 223
65 224
66 9
69 245
70 117
73 168
74 108
75 301
76 110
77 57
78 1
84 64
85 107
86 48
87 249
88 45
91 3
92 81
93 61
97 60
98 40
99 279
100 179
101 138
111 276
112 72
113 182
114 73
115 174
116 88
119 44
127 162
128 999
129 251
130 643
131 221
134 21
141 144
142 5
143 162
157 40
158 21
169 348
170 123
171 144
199 18
214 351
215 96
216 165
217 49

$$$$

     RDKit          2D

  8  8  0  0  0  0  0  0  0  0999 V2000
   -0.0005    1.5008    0.0000 C   0  0  0  0  0  0  0  0  0  0  0  0
    1.2995   -0.7508    0.0000 C   0  0  0  0  0  0  0  0  0  0  0  0
   -1.2995    0.7508    0.0000 C   0  0  0  0  0  0  0  0  0  0  0  0
    0.0005   -1.5008    0.0000 C   0  0  0  0  0  0  0  0  0  0  0  0
    1.2990    0.7500    0.0000 C   0  0  0  0  0  0  0  0  0  0  0  0
   -1.2990   -0.7500    0.0000 N   0  0  0  0  0  0  0  0  0  0  0  0
    2.5981    1.5000    0.0000 O   0  0  0  0  0  0  0  0  0  0  0  0
   -2.5981   -1.5000    0.0000 O   0  0  0  0  0  0  0  0  0  0  0  0
  3  1  2  0
  4  2  2  0
  5  1  1  0
  5  2  1  0
  6  3  1  0
  6  4  1  0
  7  5  2  0
  8  6  1  0
M  END
>  <NAME>  (4491) 
N-HYDROXY-4-PYRIDONE

>  <SYNONYMS>  (4491) 


>  <SPECTRUM TYPE>  (4491) 
MS1

>  <INSTRUMENT TYPE>  (4491) 
EI-B

>  <INSTRUMENT>  (4491) 
HITACHI RMU-6E

>  <ION MODE>  (4491) 
P

>  <INCHIKEY>  (4491) 
NCDOCXYTOYFYHI-UHFFFAOYSA-N

>  <FORMULA>  (4491) 
C5H5NO2

>  <EXACT MASS>  (4491) 
111.0320284

>  <MW>  (4491) 
111

>  <ID>  (4491) 
JP004094

>  <CONTRIBUTOR>  (4491) 
University of Tokyo Team, {Faculty of Engineering, University of Tokyo

>  <COMMENT>  (4491) 
SMILES=O=C(C=1)C=CN(O)C1
InChI=InChI=1S/C5H5NO2/c7-5-1-3-6(8)4-2-5/h1-4,8H
computed SMILES=O=C1C=CN(O)C=C1
accession=JP004094
date=2016.01.19 (Created 2008.10.21, modified 2011.05.06)
author=YAMAMOTO M, DEP. CHEMISTRY, FAC. SCIENCE, NARA WOMEN'S UNIV.
license=CC BY-NC-SA
exact mass=111.03203
ionization energy=70 eV
ion type=[M]+*
computed spectral entropy=3.2505020551304358
computed normalized entropy=0.8075075930910267
SPLASH=splash10-03fv-9200000000-94b387266ffbbdb5daaa
submitter=submitter = University of Tokyo Team (Faculty of Engineering, University of Tokyo)
MoNA Rating=3.75

>  <NUM PEAKS>  (4491) 
56

>  <MASS SPECTRAL PEAKS>  (4491) 
18 12
20 2.3
25 3.1
26 23.3
27 26.5
28 22.1
29 11.4
30 2.04
31 2.1
37 7.1
38 15.1
39 4.75
40 22.7
41 42.9
42 13.1
44 0.67
45 4.9
47.5 1.5
49 3
50 1.01
51 12.7
52 8
53 17.9
54 1.59
55 34
55.5 5.9
56 9
57 6.33
58 5.1
62 1.7
63 2.2
64 0.27
65 2.8
66 8.9
67 19.5
68 2.87
69 10
70 2.6
71 9.2
75 0.17
76 3.2
77 1.6
78 1.5
81 0.13
82 2.5
83 5.2
84 7.1
85 0.14
91 1.5
94 7.9
95 89
96 0.63
110 22.8
111 99.99
112 7
113 1

>  <PREDICTED SPECTRUM>  (4491) 
14 43
15 60
16 32
17 34
18 48
19 3
25 76
26 235
27 426
28 305
29 339
30 58
31 38
32 17
34 9
36 54
37 199
38 301
39 562
40 323
41 430
42 323
43 277
44 248
45 178
48 17
49 85
50 230
51 350
52 304
53 362
54 485
55 560
56 257
57 232
58 52
62 56
63 115
64 130
65 81
66 308
67 436
68 494
69 289
70 97
71 160
72 35
73 11
80 30
81 74
82 308
83 394
84 204
85 67
93 107
94 252
95 999
96 248
97 40
109 7
110 225
111 966
112 262
113 65

$$$$

     RDKit          2D

 19 20  0  0  0  0  0  0  0  0999 V2000
   -4.5132   -2.2312    0.0000 C   0  0  0  0  0  0  0  0  0  0  0  0
    5.8803   -3.7337    0.0000 C   0  0  0  0  0  0  0  0  0  0  0  0
    4.5812   -4.4835    0.0000 C   0  0  0  0  0  0  0  0  0  0  0  0
    5.8801   -2.2329    0.0000 C   0  0  0  0  0  0  0  0  0  0  0  0
    3.2818   -3.7324    0.0000 C   0  0  0  0  0  0  0  0  0  0  0  0
    4.5807   -1.4818    0.0000 C   0  0  0  0  0  0  0  0  0  0  0  0
    0.6839   -3.7324    0.0000 C   0  0  0  0  0  0  0  0  0  0  0  0
   -0.6151   -4.4824    0.0000 C   0  0  0  0  0  0  0  0  0  0  0  0
   -0.6161   -1.4808    0.0000 C   0  0  0  0  0  0  0  0  0  0  0  0
   -3.2142   -1.4810    0.0000 C   0  0  0  0  0  0  0  0  0  0  0  0
    3.2815   -2.2316    0.0000 C   0  0  0  0  0  0  0  0  0  0  0  0
    0.6835   -2.2316    0.0000 C   0  0  0  0  0  0  0  0  0  0  0  0
   -1.9151   -2.2308    0.0000 C   0  0  0  0  0  0  0  0  0  0  0  0
   -1.9146   -3.7316    0.0000 C   0  0  0  0  0  0  0  0  0  0  0  0
   -3.2145    0.0190    0.0000 C   0  0  0  0  0  0  0  0  0  0  0  0
   -3.2136   -4.4816    0.0000 O   0  0  0  0  0  0  0  0  0  0  0  0
   -1.9156    0.7692    0.0000 O   0  0  0  0  0  0  0  0  0  0  0  0
   -4.5136    0.7688    0.0000 O   0  0  0  0  0  0  0  0  0  0  0  0
    1.9825   -1.4816    0.0000 O   0  0  0  0  0  0  0  0  0  0  0  0
  3  2  2  0
  4  2  1  0
  5  3  1  0
  6  4  2  0
  8  7  2  0
 10  1  1  0
 11  5  2  0
 11  6  1  0
 12  7  1  0
 12  9  2  0
 13  9  1  0
 13 10  1  0
 14  8  1  0
 14 13  2  0
 15 10  1  0
 16 14  1  0
 17 15  2  0
 18 15  1  0
 19 11  1  0
 19 12  1  0
M  END
>  <NAME>  (4492) 
2-(2-HYDROXY-5-PHENOXYPHENYL)PROPIONIC ACID

>  <SYNONYMS>  (4492) 


>  <SPECTRUM TYPE>  (4492) 
MS1

>  <INSTRUMENT TYPE>  (4492) 
EI-B

>  <INSTRUMENT>  (4492) 
HITACHI RMU-6E

>  <ION MODE>  (4492) 
P

>  <INCHIKEY>  (4492) 
ODOHKZJBBNHRRM-UHFFFAOYSA-N

>  <FORMULA>  (4492) 
C15H14O4

>  <EXACT MASS>  (4492) 
258.089208928

>  <MW>  (4492) 
258

>  <ID>  (4492) 
JP004093

>  <CONTRIBUTOR>  (4492) 
University of Tokyo Team, {Faculty of Engineering, University of Tokyo

>  <COMMENT>  (4492) 
SMILES=OC(=O)C(C)c(c1)c(O)ccc(Oc(c2)cccc2)1
InChI=InChI=1S/C15H14O4/c1-10(15(17)18)13-9-12(7-8-14(13)16)19-11-5-3-2-4-6-11/h2-10,16H,1H3,(H,17,18)
computed SMILES=O=C(O)C(C1=CC(OC=2C=CC=CC2)=CC=C1O)C
accession=JP004093
date=2016.01.19 (Created 2008.10.21, modified 2011.05.06)
author=YAMAMOTO M, DEP. CHEMISTRY, FAC. SCIENCE, NARA WOMEN'S UNIV.
license=CC BY-NC-SA
exact mass=258.08921
ionization energy=70 eV
ion type=[M]+*
computed spectral entropy=2.9337899689714364
computed normalized entropy=0.7108539958384182
SPLASH=splash10-03dl-5290000000-986b949d82ccc5470daa
submitter=submitter = University of Tokyo Team (Faculty of Engineering, University of Tokyo)
MoNA Rating=3.75

>  <NUM PEAKS>  (4492) 
62

>  <MASS SPECTRAL PEAKS>  (4492) 
39 9
41 2.4
43 4.2
50 4.2
51 18.7
52 3
53 4.9
54 0.17
55 2.3
57 3
62 1.3
63 0.49
64 2.4
65 9.1
75 2
76 0.27
77 21.4
78 5.2
79 3.6
89 0.3
90 1.8
91 14
92 1.8
103 0.27
105 1.6
106 4.8
107 3.5
115 0.38
118 2.6
119 2.1
127 1.4
128 0.26
129 2.4
131 1.7
135 10.6
136 0.22
141 5.2
142 1.1
149 1.8
152 0.14
153 1.6
155 2.6
165 2
167 0.12
168 1.4
169 1.8
181 1.2
183 0.4
184 2.2
186 1.2
197 2.4
211 0.17
212 99.99
213 20.1
214 2.4
227 0.23
228 4.2
240 64.6
241 10.9
242 0.14
256 1.1
258 1

>  <PREDICTED SPECTRUM>  (4492) 
17 39
18 40
26 36
27 27
28 23
29 38
38 33
39 190
40 52
41 91
42 54
43 67
44 102
45 50
50 152
51 263
52 149
53 148
54 44
55 42
57 28
58 9
60 27
62 43
63 162
64 82
65 226
66 136
68 12
70 36
71 13
74 108
75 121
76 118
77 414
78 220
79 177
80 69
81 17
82 24
86 45
87 18
88 42
89 142
90 96
91 211
92 109
101 29
102 119
105 194
106 31
107 97
108 81
115 195
116 20
118 35
119 34
121 81
127 167
128 202
129 37
130 2
131 83
134 51
135 85
136 8
139 22
141 134
142 35
153 84
154 51
155 135
156 115
157 65
158 44
167 75
168 28
169 34
170 36
172 2
181 70
183 90
184 306
185 117
186 1
195 77
196 107
197 129
198 45
211 70
212 999
213 358
214 208
240 707
241 242
258 136
259 6

$$$$

     RDKit          2D

 11 11  0  0  0  0  0  0  0  0999 V2000
   -3.8976   -3.7504    0.0000 C   0  0  0  0  0  0  0  0  0  0  0  0
    1.3000   -0.7500    0.0000 C   0  0  0  0  0  0  0  0  0  0  0  0
    1.3000    0.7500    0.0000 C   0  0  0  0  0  0  0  0  0  0  0  0
   -1.3000   -0.7500    0.0000 C   0  0  0  0  0  0  0  0  0  0  0  0
   -1.3000    0.7500    0.0000 C   0  0  0  0  0  0  0  0  0  0  0  0
   -2.5989   -1.5002    0.0000 C   0  0  0  0  0  0  0  0  0  0  0  0
   -0.0000   -1.5000    0.0000 N   0  0  0  0  0  0  0  0  0  0  0  0
    0.0000    1.5000    0.0000 N   0  0  0  0  0  0  0  0  0  0  0  0
   -2.5989    1.5002    0.0000 O   0  0  0  0  0  0  0  0  0  0  0  0
   -3.8981   -0.7504    0.0000 O   0  0  0  0  0  0  0  0  0  0  0  0
   -2.5987   -3.0002    0.0000 O   0  0  0  0  0  0  0  0  0  0  0  0
  3  2  2  0
  5  4  1  0
  6  4  1  0
  7  2  1  0
  7  4  2  0
  8  3  1  0
  8  5  1  0
  9  5  2  0
 10  6  2  0
 11  1  1  0
 11  6  1  0
M  END
>  <NAME>  (4493) 
METHYL 3-HYDROXY-2-PYRAZINECARBOXYLATE

>  <SYNONYMS>  (4493) 


>  <SPECTRUM TYPE>  (4493) 
MS1

>  <INSTRUMENT TYPE>  (4493) 
EI-B

>  <INSTRUMENT>  (4493) 
HITACHI RMU-6E

>  <ION MODE>  (4493) 
P

>  <INCHIKEY>  (4493) 
YVUBNSIFWJGXBQ-UHFFFAOYSA-N

>  <FORMULA>  (4493) 
C6H6N2O3

>  <EXACT MASS>  (4493) 
154.037842052

>  <MW>  (4493) 
154

>  <ID>  (4493) 
JP004092

>  <CONTRIBUTOR>  (4493) 
University of Tokyo Team, {Faculty of Engineering, University of Tokyo

>  <COMMENT>  (4493) 
SMILES=COC(=O)c(n1)c(O)ncc1
InChI=InChI=1S/C6H6N2O3/c1-11-6(10)4-5(9)8-3-2-7-4/h2-3H,1H3,(H,8,9)
computed SMILES=O=C(OC)C1=NC=CNC1=O
accession=JP004092
date=2016.01.19 (Created 2008.10.21, modified 2011.05.06)
author=YAMAMOTO M, DEP. CHEMISTRY, FAC. SCIENCE, NARA WOMEN'S UNIV.
license=CC BY-NC-SA
exact mass=154.03784
ionization energy=70 eV
ion type=[M]+*
computed spectral entropy=2.650121342722166
computed normalized entropy=0.771733027793706
SPLASH=splash10-0f6w-9200000000-4899bcd8452f9f98c28e
submitter=submitter = University of Tokyo Team (Faculty of Engineering, University of Tokyo)
MoNA Rating=3.75

>  <NUM PEAKS>  (4493) 
31

>  <MASS SPECTRAL PEAKS>  (4493) 
15 16.7
26 4.1
27 3.4
28 10.5
29 5.2
31 2.7
38 3.5
39 1.06
40 56.6
41 6.6
42 7.8
44 0.3
45 5.7
51 2.7
52 5.2
54 0.33
59 9
66 3.2
67 12
68 5.42
69 6.8
70 3.9
94 29.1
95 3.32
96 99.99
97 5.4
123 10.7
124 4.38
125 2.9
154 52
155 6.1

>  <PREDICTED SPECTRUM>  (4493) 
38 170
39 334
40 199
41 130
42 142
44 143
45 98
50 63
51 114
52 311
53 532
54 203
55 83
59 314
66 334
67 648
68 681
69 247
79 68
82 0
83 1
84 33
94 420
95 885
96 982
97 212
110 53
122 208
123 661
124 313
125 8
154 999
155 243

$$$$

     RDKit          2D

 11 11  0  0  0  0  0  0  0  0999 V2000
    5.1970    1.5006    0.0000 C   0  0  0  0  0  0  0  0  0  0  0  0
    1.3000   -0.7500    0.0000 C   0  0  0  0  0  0  0  0  0  0  0  0
   -1.3000    0.7500    0.0000 C   0  0  0  0  0  0  0  0  0  0  0  0
    1.3000    0.7500    0.0000 C   0  0  0  0  0  0  0  0  0  0  0  0
   -1.3000   -0.7500    0.0000 C   0  0  0  0  0  0  0  0  0  0  0  0
    2.5989    1.5002    0.0000 C   0  0  0  0  0  0  0  0  0  0  0  0
   -2.5989   -1.5002    0.0000 Cl  0  0  0  0  0  0  0  0  0  0  0  0
    0.0000    1.5000    0.0000 N   0  0  0  0  0  0  0  0  0  0  0  0
   -0.0000   -1.5000    0.0000 N   0  0  0  0  0  0  0  0  0  0  0  0
    2.5987    3.0002    0.0000 O   0  0  0  0  0  0  0  0  0  0  0  0
    3.8981    0.7504    0.0000 O   0  0  0  0  0  0  0  0  0  0  0  0
  4  2  2  0
  5  3  1  0
  6  4  1  0
  7  5  1  0
  8  3  2  0
  8  4  1  0
  9  2  1  0
  9  5  2  0
 10  6  2  0
 11  1  1  0
 11  6  1  0
M  END
>  <NAME>  (4494) 
METHYL 5-CHLORO-2-PYRAZINECARBOXYLATE

>  <SYNONYMS>  (4494) 


>  <SPECTRUM TYPE>  (4494) 
MS1

>  <INSTRUMENT TYPE>  (4494) 
EI-B

>  <INSTRUMENT>  (4494) 
HITACHI RMU-6E

>  <ION MODE>  (4494) 
P

>  <INCHIKEY>  (4494) 
CVVMLRFXZPKILB-UHFFFAOYSA-N

>  <FORMULA>  (4494) 
C6H5ClN2O2

>  <EXACT MASS>  (4494) 
172.00395508

>  <MW>  (4494) 
172

>  <ID>  (4494) 
JP004091

>  <CONTRIBUTOR>  (4494) 
University of Tokyo Team, {Faculty of Engineering, University of Tokyo

>  <COMMENT>  (4494) 
SMILES=COC(=O)c(c1)ncc(Cl)n1
InChI=InChI=1S/C6H5ClN2O2/c1-11-6(10)4-2-9-5(7)3-8-4/h2-3H,1H3
computed SMILES=O=C(OC)C=1N=CC(Cl)=NC1
accession=JP004091
date=2016.01.19 (Created 2008.10.21, modified 2011.05.06)
author=YAMAMOTO M, DEP. CHEMISTRY, FAC. SCIENCE, NARA WOMEN'S UNIV.
license=CC BY-NC-SA
exact mass=172.00396
ionization energy=70 eV
ion type=[M]+*
computed spectral entropy=2.6514274106031084
computed normalized entropy=0.751887786882401
SPLASH=splash10-03dl-4900000000-9921f0ec16735d7a7814
submitter=submitter = University of Tokyo Team (Faculty of Engineering, University of Tokyo)
MoNA Rating=3.75

>  <NUM PEAKS>  (4494) 
34

>  <MASS SPECTRAL PEAKS>  (4494) 
15 13
25 1.8
28 9.8
29 2
39 2.5
42 2.3
50 1.8
51 1.98
52 9.3
53 9.6
59 16
60 0.74
62 3.1
66 3.6
74 2
77 0.34
78 3.7
79 2.6
86 28.6
87 0.34
88 9.3
113 44.1
114 99.99
115 1.84
116 31.2
117 1.9
140 2
141 2.1
142 53.4
143 10
144 17.2
172 1.2
173 1.9
174 4.1

>  <PREDICTED SPECTRUM>  (4494) 
14 0
15 28
26 20
35 40
36 42
37 30
38 125
40 43
44 40
46 3
47 51
50 126
51 85
52 181
53 252
54 101
58 24
59 196
60 140
62 61
63 56
65 7
76 23
78 65
79 133
86 315
87 104
88 140
113 488
114 999
115 389
116 436
117 83
118 12
141 254
142 475
143 277
144 408
145 100
146 66
156 4
171 8
172 226
173 64
174 206
175 34

$$$$

     RDKit          2D

 10 10  0  0  0  0  0  0  0  0999 V2000
    1.3000   -0.7500    0.0000 C   0  0  0  0  0  0  0  0  0  0  0  0
   -1.3000    0.7500    0.0000 C   0  0  0  0  0  0  0  0  0  0  0  0
    1.3000    0.7500    0.0000 C   0  0  0  0  0  0  0  0  0  0  0  0
   -1.3000   -0.7500    0.0000 C   0  0  0  0  0  0  0  0  0  0  0  0
    2.5989    1.5002    0.0000 C   0  0  0  0  0  0  0  0  0  0  0  0
    3.8981    0.7504    0.0000 N   0  0  0  0  0  0  0  0  0  0  0  0
    0.0000    1.5000    0.0000 N   0  0  0  0  0  0  0  0  0  0  0  0
   -0.0000   -1.5000    0.0000 N   0  0  0  0  0  0  0  0  0  0  0  0
   -2.5989   -1.5002    0.0000 O   0  0  0  0  0  0  0  0  0  0  0  0
    2.5987    3.0002    0.0000 O   0  0  0  0  0  0  0  0  0  0  0  0
  3  1  2  0
  4  2  1  0
  5  3  1  0
  6  5  2  0
  7  2  2  0
  7  3  1  0
  8  1  1  0
  8  4  1  0
  9  4  2  0
 10  5  1  0
M  END
>  <NAME>  (4495) 
5-HYDROXYPYRAZINE-2-CARBOXAMIDE

>  <SYNONYMS>  (4495) 


>  <SPECTRUM TYPE>  (4495) 
MS1

>  <INSTRUMENT TYPE>  (4495) 
EI-B

>  <INSTRUMENT>  (4495) 
HITACHI RMU-6E

>  <ION MODE>  (4495) 
P

>  <INCHIKEY>  (4495) 
XENWQEOTDAQROM-UHFFFAOYSA-N

>  <FORMULA>  (4495) 
C5H5N3O2

>  <EXACT MASS>  (4495) 
139.0381764

>  <MW>  (4495) 
139

>  <ID>  (4495) 
JP004090

>  <CONTRIBUTOR>  (4495) 
University of Tokyo Team, {Faculty of Engineering, University of Tokyo

>  <COMMENT>  (4495) 
SMILES=NC(=O)c(c1)ncc(O)n1
InChI=InChI=1S/C5H5N3O2/c6-5(10)3-1-8-4(9)2-7-3/h1-2H,(H2,6,10)(H,8,9)
computed SMILES=O=C1C=NC(=CN1)C(=N)O
accession=JP004090
date=2016.01.19 (Created 2008.10.21, modified 2011.05.06)
author=YAMAMOTO M, DEP. CHEMISTRY, FAC. SCIENCE, NARA WOMEN'S UNIV.
license=CC BY-NC-SA
exact mass=139.03818
ionization energy=70 eV
ion type=[M]+*
computed spectral entropy=2.9876916597513845
computed normalized entropy=0.8099184852515122
SPLASH=splash10-004v-9100000000-f3668d75358f611d3aea
submitter=submitter = University of Tokyo Team (Faculty of Engineering, University of Tokyo)
MoNA Rating=3.75

>  <NUM PEAKS>  (4495) 
40

>  <MASS SPECTRAL PEAKS>  (4495) 
12 1.2
14 4.8
16 4.7
17 3.1
25 2.6
26 4.8
27 8.1
28 99.99
29 20
38 17.6
39 33.5
40 9.04
41 52
42 23.1
43 4.8
44 5.65
45 2.6
51 8.8
52 12.7
53 1.68
54 4.4
55 8.2
56 28.9
57 0.25
65 2.9
66 6.2
67 26
68 8.34
69 8.5
82 2.8
83 5.6
84 0.72
94 4.4
95 83
96 30.3
111 1.72
122 1.6
123 9.3
139 73
140 8.3

>  <PREDICTED SPECTRUM>  (4495) 
17 31
18 10
25 15
26 72
27 64
28 135
29 37
37 14
38 85
39 163
40 176
41 352
42 252
43 265
44 360
45 148
49 10
51 45
52 250
53 185
54 414
55 188
56 150
57 67
64 4
66 223
67 411
68 403
69 234
70 123
71 114
72 27
81 56
82 108
83 178
84 108
85 2
93 138
94 999
95 485
96 163
97 28
110 9
111 148
121 134
122 127
123 48
138 88
139 880
140 227
141 24

$$$$

     RDKit          2D

 12 13  0  0  0  0  0  0  0  0999 V2000
   -1.3000   -1.7500    0.0000 C   0  0  0  0  0  0  0  0  0  0  0  0
    1.3000   -1.7500    0.0000 C   0  0  0  0  0  0  0  0  0  0  0  0
   -2.6000   -1.0000    0.0000 C   0  0  0  0  0  0  0  0  0  0  0  0
    2.6000   -1.0000    0.0000 C   0  0  0  0  0  0  0  0  0  0  0  0
   -1.3000    1.2500    0.0000 C   0  0  0  0  0  0  0  0  0  0  0  0
    0.0000   -1.0000    0.0000 C   0  0  0  0  0  0  0  0  0  0  0  0
   -2.6000    0.5000    0.0000 C   0  0  0  0  0  0  0  0  0  0  0  0
    0.0000    0.5000    0.0000 C   0  0  0  0  0  0  0  0  0  0  0  0
    2.6000    0.5000    0.0000 C   0  0  0  0  0  0  0  0  0  0  0  0
   -3.8989    1.2502    0.0000 O   0  0  0  0  0  0  0  0  0  0  0  0
    3.8989    1.2502    0.0000 O   0  0  0  0  0  0  0  0  0  0  0  0
    1.3000    1.2500    0.0000 O   0  0  0  0  0  0  0  0  0  0  0  0
  3  1  2  0
  4  2  2  0
  6  1  1  0
  6  2  1  0
  7  3  1  0
  7  5  2  0
  8  5  1  0
  8  6  2  0
  9  4  1  0
 10  7  1  0
 11  9  2  0
 12  8  1  0
 12  9  1  0
M  END
>  <NAME>  (4496) 
7-HYDROXYCOUMARIN

>  <SYNONYMS>  (4496) 


>  <SPECTRUM TYPE>  (4496) 
MS1

>  <INSTRUMENT TYPE>  (4496) 
EI-B

>  <INSTRUMENT>  (4496) 
HITACHI RMU-6E

>  <ION MODE>  (4496) 
P

>  <INCHIKEY>  (4496) 
ORHBXUUXSCNDEV-UHFFFAOYSA-N

>  <FORMULA>  (4496) 
C9H6O3

>  <EXACT MASS>  (4496) 
162.03169405199998

>  <MW>  (4496) 
162

>  <ID>  (4496) 
JP004089

>  <CONTRIBUTOR>  (4496) 
University of Tokyo Team, {Faculty of Engineering, University of Tokyo

>  <COMMENT>  (4496) 
SMILES=O=C(C=2)Oc(c1)c(C2)ccc(O)1
InChI=InChI=1S/C9H6O3/c10-7-3-1-6-2-4-9(11)12-8(6)5-7/h1-5,10H
computed SMILES=O=C1OC=2C=C(O)C=CC2C=C1
accession=JP004089
date=2016.01.19 (Created 2008.10.21, modified 2011.05.06)
author=YAMAMOTO M, DEP. CHEMISTRY, FAC. SCIENCE, NARA WOMEN'S UNIV.
license=CC BY-NC-SA
exact mass=162.03169
ionization energy=70 eV
ion type=[M]+*
computed spectral entropy=2.524940307736575
computed normalized entropy=0.7221320884767606
SPLASH=splash10-03di-6900000000-dedc215fac13e97ee769
submitter=submitter = University of Tokyo Team (Faculty of Engineering, University of Tokyo)
MoNA Rating=3.75

>  <NUM PEAKS>  (4496) 
33

>  <MASS SPECTRAL PEAKS>  (4496) 
27 1.6
37 1.5
38 4.5
38.5 1.3
39 8.1
43 1.8
50 5.7
51 1.43
52 5.2
52.5 1.6
53 5
55 0.17
61 2.3
62 5.1
63 8.6
64 0.29
65 4.4
67 10.2
69 7
74 0.14
76 1.7
77 13.2
78 21.7
79 0.28
105 18.6
106 8
133 2.6
134 8.59
135 7.1
161 1
162 99.99
163 1.23
164 1.3

>  <PREDICTED SPECTRUM>  (4496) 
17 2
18 6
25 0
26 66
27 102
28 86
29 72
36 7
37 95
38 167
39 277
40 80
41 21
42 8
43 41
44 87
49 117
50 345
51 439
52 318
53 266
54 129
55 39
58 37
60 16
61 127
62 224
63 346
64 149
65 146
66 155
67 109
68 78
69 143
73 37
74 225
75 215
76 290
77 487
78 461
79 290
80 121
81 46
82 19
85 8
86 70
87 117
88 12
89 40
90 7
91 21
92 46
93 22
104 70
105 330
106 268
107 85
108 7
133 213
134 999
135 308
161 44
162 892
163 288
164 65

$$$$

     RDKit          2D

 20 22  0  0  0  0  0  0  0  0999 V2000
   -1.3000    0.7500    0.0000 C   0  0  0  0  0  0  0  0  0  0  0  0
    6.4971    0.7512    0.0000 C   0  0  0  0  0  0  0  0  0  0  0  0
   -0.2941   -4.9491    0.0000 C   0  0  0  0  0  0  0  0  0  0  0  0
    0.0000    1.5000    0.0000 C   0  0  0  0  0  0  0  0  0  0  0  0
   -1.3000   -0.7500    0.0000 C   0  0  0  0  0  0  0  0  0  0  0  0
    6.4966   -0.7496    0.0000 C   0  0  0  0  0  0  0  0  0  0  0  0
    5.1981    1.5012    0.0000 C   0  0  0  0  0  0  0  0  0  0  0  0
   -0.8070   -3.5387    0.0000 C   0  0  0  0  0  0  0  0  0  0  0  0
    1.1831   -5.2096    0.0000 C   0  0  0  0  0  0  0  0  0  0  0  0
    1.3000    0.7500    0.0000 C   0  0  0  0  0  0  0  0  0  0  0  0
    0.0000   -1.5000    0.0000 C   0  0  0  0  0  0  0  0  0  0  0  0
    5.1971   -1.5004    0.0000 C   0  0  0  0  0  0  0  0  0  0  0  0
    3.8986    0.7504    0.0000 C   0  0  0  0  0  0  0  0  0  0  0  0
    0.1573   -2.3886    0.0000 C   0  0  0  0  0  0  0  0  0  0  0  0
    2.1474   -4.0596    0.0000 C   0  0  0  0  0  0  0  0  0  0  0  0
    1.3000   -0.7500    0.0000 C   0  0  0  0  0  0  0  0  0  0  0  0
    3.8981   -0.7504    0.0000 C   0  0  0  0  0  0  0  0  0  0  0  0
    1.6346   -2.6491    0.0000 C   0  0  0  0  0  0  0  0  0  0  0  0
    2.5989   -1.5002    0.0000 P   0  0  0  0  0  0  0  0  0  0  0  0
    3.5629   -2.6494    0.0000 S   0  0  0  0  0  0  0  0  0  0  0  0
  4  1  2  0
  5  1  1  0
  6  2  2  0
  7  2  1  0
  8  3  2  0
  9  3  1  0
 10  4  1  0
 11  5  2  0
 12  6  1  0
 13  7  2  0
 14  8  1  0
 15  9  2  0
 16 10  2  0
 16 11  1  0
 17 12  2  0
 17 13  1  0
 18 14  2  0
 18 15  1  0
 19 16  1  0
 19 17  1  0
 19 18  1  0
 20 19  2  0
M  END
>  <NAME>  (4497) 
TRIPHENYLPHOSPINE SULFIDE

>  <SYNONYMS>  (4497) 


>  <SPECTRUM TYPE>  (4497) 
MS1

>  <INSTRUMENT TYPE>  (4497) 
EI-B

>  <INSTRUMENT>  (4497) 
HITACHI M-68

>  <ION MODE>  (4497) 
P

>  <INCHIKEY>  (4497) 
VYNGFCUGSYEOOZ-UHFFFAOYSA-N

>  <FORMULA>  (4497) 
C18H15PS

>  <EXACT MASS>  (4497) 
294.06320811

>  <MW>  (4497) 
294

>  <ID>  (4497) 
JP004088

>  <CONTRIBUTOR>  (4497) 
University of Tokyo Team, {Faculty of Engineering, University of Tokyo

>  <COMMENT>  (4497) 
SMILES=c(c3)ccc(c3)P(=S)(c(c2)cccc2)c(c1)cccc1
InChI=InChI=1S/C18H15PS/c20-19(16-10-4-1-5-11-16,17-12-6-2-7-13-17)18-14-8-3-9-15-18/h1-15H
computed SMILES=S=P(C=1C=CC=CC1)(C=2C=CC=CC2)C=3C=CC=CC3
accession=JP004088
date=2016.01.19 (Created 2008.10.21, modified 2011.05.06)
author=YAMAMOTO M, DEP. CHEMISTRY, FAC. SCIENCE, NARA WOMEN'S UNIV.
license=CC BY-NC-SA
exact mass=294.06321
ionization energy=70 eV
ion type=[M]+*
computed spectral entropy=2.7823018110379434
computed normalized entropy=0.7648758514209941
SPLASH=splash10-0006-1790000000-3fac42f52c5819fc42bf
submitter=submitter = University of Tokyo Team (Faculty of Engineering, University of Tokyo)
MoNA Rating=3.75

>  <NUM PEAKS>  (4497) 
38

>  <MASS SPECTRAL PEAKS>  (4497) 
50 4.3
57 1.9
65 3.8
75 2.2
76 1.6
77 17.5
78 4.3
81 0.21
103 2
107 14.5
108 11.3
109 0.86
115 4.4
133 3.3
139 19.9
140 0.27
141 2.8
152 13.1
153 3.6
154 0.23
157 4.8
170 3.9
181 2.6
183 9.54
184 17.1
185 59
186 8.6
215 0.88
217 8.3
218 1.7
261 8
262 1.63
263 3.2
292 1.9
293 58
294 99.99
295 23.6
296 6.7

>  <PREDICTED SPECTRUM>  (4497) 
32 7
33 8
38 44
39 253
40 35
41 105
44 1
45 50
47 160
50 198
51 526
52 168
53 77
55 46
56 4
57 161
62 34
63 357
64 96
65 204
66 58
74 35
75 102
76 54
77 641
78 269
79 35
82 12
83 119
89 12
91 45
92 55
93 138
95 157
96 6
102 21
107 533
108 414
109 289
110 98
114 35
115 80
124 11
125 62
126 16
128 6
133 100
138 35
139 758
140 325
141 164
152 340
153 240
154 268
155 51
157 145
158 26
159 15
168 53
169 164
170 188
183 781
184 259
185 497
186 179
198 65
199 171
201 745
202 398
217 992
218 464
260 43
261 181
262 533
263 234
277 159
278 69
293 325
294 999
295 419
296 116

$$$$

     RDKit          2D

 22 23  0  0  0  0  0  0  0  0999 V2000
    3.8981    0.7504    0.0000 C   0  0  0  0  0  0  0  0  0  0  0  0
  -10.3929   -3.0015    0.0000 C   0  0  0  0  0  0  0  0  0  0  0  0
  -10.3936   -1.5006    0.0000 C   0  0  0  0  0  0  0  0  0  0  0  0
   -9.0933   -3.7521    0.0000 C   0  0  0  0  0  0  0  0  0  0  0  0
   -9.0947   -0.7504    0.0000 C   0  0  0  0  0  0  0  0  0  0  0  0
   -7.7943   -3.0019    0.0000 C   0  0  0  0  0  0  0  0  0  0  0  0
    0.0000    1.5000    0.0000 C   0  0  0  0  0  0  0  0  0  0  0  0
    1.3000   -0.7500    0.0000 C   0  0  0  0  0  0  0  0  0  0  0  0
   -1.3000    0.7500    0.0000 C   0  0  0  0  0  0  0  0  0  0  0  0
    0.0000   -1.5000    0.0000 C   0  0  0  0  0  0  0  0  0  0  0  0
    2.5989    1.5002    0.0000 C   0  0  0  0  0  0  0  0  0  0  0  0
    1.3000    0.7500    0.0000 C   0  0  0  0  0  0  0  0  0  0  0  0
   -7.7951   -1.5010    0.0000 C   0  0  0  0  0  0  0  0  0  0  0  0
   -1.3000   -0.7500    0.0000 C   0  0  0  0  0  0  0  0  0  0  0  0
   -5.1970   -1.5006    0.0000 C   0  0  0  0  0  0  0  0  0  0  0  0
   -6.4962   -0.7508    0.0000 N   0  0  0  0  0  0  0  0  0  0  0  0
   -3.8981   -0.7504    0.0000 N   0  0  0  0  0  0  0  0  0  0  0  0
    2.5987    3.0002    0.0000 O   0  0  0  0  0  0  0  0  0  0  0  0
   -5.1968   -3.0006    0.0000 O   0  0  0  0  0  0  0  0  0  0  0  0
   -3.5629   -2.6494    0.0000 O   0  0  0  0  0  0  0  0  0  0  0  0
   -1.6346   -2.6491    0.0000 O   0  0  0  0  0  0  0  0  0  0  0  0
   -2.5989   -1.5002    0.0000 S   0  0  0  0  0  0  0  0  0  0  0  0
  3  2  1  0
  4  2  1  0
  5  3  1  0
  6  4  1  0
  9  7  2  0
 10  8  1  0
 11  1  1  0
 12  7  1  0
 12  8  2  0
 12 11  1  0
 13  5  1  0
 13  6  1  0
 14  9  1  0
 14 10  2  0
 16 13  1  0
 16 15  2  3
 17 15  1  0
 18 11  2  0
 19 15  1  0
 22 14  1  0
 22 17  1  0
 22 20  2  0
 22 21  2  0
M  END
>  <NAME>  (4498) 
1-(PARA-ACETYLPHENYLSULFONYL)-3CYCLOHEXYLUREA

>  <SYNONYMS>  (4498) 


>  <SPECTRUM TYPE>  (4498) 
MS1

>  <INSTRUMENT TYPE>  (4498) 
EI-B

>  <INSTRUMENT>  (4498) 
HITACHI RMU-6E

>  <ION MODE>  (4498) 
P

>  <INCHIKEY>  (4498) 
VGZSUPCWNCWDAN-UHFFFAOYSA-N

>  <FORMULA>  (4498) 
C15H20N2O4S

>  <EXACT MASS>  (4498) 
324.11437811999997

>  <MW>  (4498) 
324

>  <ID>  (4498) 
JP004084

>  <CONTRIBUTOR>  (4498) 
University of Tokyo Team, {Faculty of Engineering, University of Tokyo

>  <COMMENT>  (4498) 
SMILES=CC(=O)c(c2)ccc(c2)S(=O)(=O)NC(=O)NC(C1)CCCC1
InChI=InChI=1S/C15H20N2O4S/c1-11(18)12-7-9-14(10-8-12)22(20,21)17-15(19)16-13-5-3-2-4-6-13/h7-10,13H,2-6H2,1H3,(H2,16,17,19)
computed SMILES=O=C(C1=CC=C(C=C1)S(=O)(=O)NC(O)=NC2CCCCC2)C
accession=JP004084
date=2016.01.19 (Created 2008.10.21, modified 2011.05.06)
author=YAMAMOTO M, DEP. CHEMISTRY, FAC. SCIENCE, NARA WOMEN'S UNIV.
license=CC BY-NC-SA
exact mass=324.11438
ionization energy=70 eV
ion type=[M]+*
computed spectral entropy=3.5228349869861737
computed normalized entropy=0.8039282461477667
SPLASH=splash10-0a5c-9200000000-09e03cfa3bf5df8c2b45
submitter=submitter = University of Tokyo Team (Faculty of Engineering, University of Tokyo)
MoNA Rating=3.75

>  <NUM PEAKS>  (4498) 
80

>  <MASS SPECTRAL PEAKS>  (4498) 
15 3
18 7.2
26 1.5
27 11.6
28 13.9
29 6.3
30 6.8
38 0.25
39 15
40 3.4
41 32.6
42 1.35
43 57
44 3
50 14.3
51 0.67
52 2.4
53 5
54 18
55 1.63
56 99.99
57 5.2
62 1.5
63 0.4
64 3.8
65 7.3
66 1.5
67 3.16
68 5.7
69 17.7
70 8.4
74 0.44
75 16.8
76 17.7
77 9.1
78 0.16
79 2.7
80 2.9
81 5.8
82 3
83 8.7
89 1.8
90 2.4
91 1.15
92 3.2
93 2.9
96 6
97 2.15
98 12.8
99 8.4
104 8.3
105 0.13
107 1.4
108 1.9
109 1.4
119 1.11
120 6.5
121 8.7
124 2.1
125 0.81
135 2.3
139 5.9
140 1.1
141 1.18
152 1.4
156 4.1
182 2.2
183 0.47
184 70
185 6.7
186 3.7
199 0.91
200 1.6
210 31.9
211 3.2
212 0.17
225 2.8
243 5.9
281 2.4
324 2

>  <PREDICTED SPECTRUM>  (4498) 
18 6
26 12
27 66
28 106
29 52
33 16
34 42
37 9
38 34
39 343
40 127
41 662
42 495
43 999
44 348
45 316
46 95
47 8
48 149
49 55
50 372
51 402
52 224
53 355
54 440
55 843
56 719
57 337
58 198
59 46
60 38
61 30
62 79
63 182
64 230
65 442
66 175
67 312
68 294
69 512
70 332
71 133
72 48
73 74
74 166
75 313
76 455
77 535
78 256
79 200
80 163
81 286
82 682
83 667
84 137
85 114
86 56
87 37
89 167
90 200
91 298
92 237
93 181
94 129
95 133
96 270
97 231
98 798
99 208
100 60
103 213
104 375
105 617
106 211
107 124
108 218
109 295
110 307
111 186
112 203
113 183
114 10
115 89
116 37
117 56
118 151
119 232
120 143
121 299
122 249
123 218
124 170
125 181
126 58
127 146
130 11
132 116
133 60
134 281
135 276
136 163
137 187
138 113
139 80
140 98
141 122
143 57
145 86
147 72
148 16
149 154
150 48
151 82
152 1
153 55
155 80
156 6
157 206
161 52
162 57
164 0
166 0
168 69
169 257
170 208
171 228
172 83
182 80
183 111
190 4
196 23
197 145
198 267
199 361
200 199
201 191
202 13
213 52
214 42
216 0
217 103
219 90
226 199
227 106
228 1
242 94
243 397
244 34
245 1
251 45
309 72

$$$$

     RDKit          2D

 16 16  0  0  0  0  0  0  0  0999 V2000
   -5.1970   -1.5006    0.0000 C   0  0  0  0  0  0  0  0  0  0  0  0
   -3.8983    0.7496    0.0000 C   0  0  0  0  0  0  0  0  0  0  0  0
    5.1970   -1.5006    0.0000 C   0  0  0  0  0  0  0  0  0  0  0  0
    3.8983    0.7496    0.0000 C   0  0  0  0  0  0  0  0  0  0  0  0
   -1.2990    3.7500    0.0000 C   0  0  0  0  0  0  0  0  0  0  0  0
   -3.8981   -0.7504    0.0000 C   0  0  0  0  0  0  0  0  0  0  0  0
    3.8981   -0.7504    0.0000 C   0  0  0  0  0  0  0  0  0  0  0  0
   -1.3000   -0.7500    0.0000 C   0  0  0  0  0  0  0  0  0  0  0  0
    1.3000   -0.7500    0.0000 C   0  0  0  0  0  0  0  0  0  0  0  0
    0.0000    1.5000    0.0000 C   0  0  0  0  0  0  0  0  0  0  0  0
   -2.5989   -1.5002    0.0000 N   0  0  0  0  0  0  0  0  0  0  0  0
    2.5989   -1.5002    0.0000 N   0  0  0  0  0  0  0  0  0  0  0  0
   -0.0000   -1.5000    0.0000 N   0  0  0  0  0  0  0  0  0  0  0  0
   -1.3000    0.7500    0.0000 N   0  0  0  0  0  0  0  0  0  0  0  0
    1.3000    0.7500    0.0000 N   0  0  0  0  0  0  0  0  0  0  0  0
    0.0000    3.0000    0.0000 S   0  0  0  0  0  0  0  0  0  0  0  0
  6  1  1  0
  6  2  1  0
  7  3  1  0
  7  4  1  0
 11  6  1  0
 11  8  2  3
 12  7  1  0
 12  9  2  3
 13  8  1  0
 13  9  1  0
 14  8  1  0
 14 10  2  0
 15  9  1  0
 15 10  1  0
 16  5  1  0
 16 10  1  0
M  END
>  <NAME>  (4499) 
2,4-BIS(ISOPROPYLAMINO)-6-(METHYLTHIO)-S-TRIAZINE

>  <SYNONYMS>  (4499) 


>  <SPECTRUM TYPE>  (4499) 
MS1

>  <INSTRUMENT TYPE>  (4499) 
EI-B

>  <INSTRUMENT>  (4499) 
HITACHI RMU-6E

>  <ION MODE>  (4499) 
P

>  <INCHIKEY>  (4499) 
AAEVYOVXGOFMJO-UHFFFAOYSA-N

>  <FORMULA>  (4499) 
C10H19N5S

>  <EXACT MASS>  (4499) 
241.136116608

>  <MW>  (4499) 
241

>  <ID>  (4499) 
JP004083

>  <CONTRIBUTOR>  (4499) 
University of Tokyo Team, {Faculty of Engineering, University of Tokyo

>  <COMMENT>  (4499) 
SMILES=CC(C)Nc(n1)nc(SC)nc(NC(C)C)1
InChI=InChI=1S/C10H19N5S/c1-6(2)11-8-13-9(12-7(3)4)15-10(14-8)16-5/h6-7H,1-5H3,(H2,11,12,13,14,15)
computed SMILES=N=1C(=NC(C)C)NC(=NC(C)C)NC1SC
accession=JP004083
date=2016.01.19 (Created 2008.10.21, modified 2011.05.06)
author=YAMAMOTO M, DEP. CHEMISTRY, FAC. SCIENCE, NARA WOMEN'S UNIV.
license=CC BY-NC-SA
exact mass=241.13612
ionization energy=70 eV
ion type=[M]+*
computed spectral entropy=3.3874942226304476
computed normalized entropy=0.7752682574567961
SPLASH=splash10-052f-9530000000-ac46b696f0af66ace6f9
submitter=submitter = University of Tokyo Team (Faculty of Engineering, University of Tokyo)
MoNA Rating=3.75

>  <NUM PEAKS>  (4499) 
79

>  <MASS SPECTRAL PEAKS>  (4499) 
15 5.1
18 2.6
27 19.1
28 12.1
30 2
39 6.1
40 1.8
41 3
42 2.63
43 79.3
44 22.2
45 0.24
46 1.5
47 4.2
53 1.7
55 0.26
56 3.4
57 5.5
58 99.99
59 0.41
67 2.4
68 43.8
69 39.5
70 0.37
74 17.8
75 1.7
83 13
84 0.25
85 11.3
91 4.1
93 4.9
94 0.8
95 3.5
99 6.2
100 3.2
102 0.16
105 44.1
106 5.3
108 2.3
109 0.16
110 8.4
111 9.9
112 1.9
113 0.2
116 6.6
117 2.1
125 2.1
127 0.42
136 3.1
137 3.8
141 3
142 0.64
143 1.5
150 1.5
151 1.5
152 1.05
153 3.4
156 4
157 13
158 0.19
166 3
169 13.5
170 2.2
171 0.21
184 69
185 11.3
186 3.8
195 0.31
198 5.7
199 24.6
200 3
210 0.15
226 51.8
227 6.8
228 2.8
240 0.6
241 75
242 14
243 4.4

>  <PREDICTED SPECTRUM>  (4499) 
33 43
34 44
36 88
38 29
39 260
40 188
41 777
42 640
43 999
44 411
45 408
46 196
47 250
50 25
51 161
52 165
53 285
54 323
55 303
56 366
57 588
58 418
59 397
60 254
61 92
62 42
63 99
64 65
65 9
66 42
67 210
68 335
69 613
70 296
71 310
72 324
73 323
74 244
75 144
76 60
77 103
78 79
79 7
80 100
81 110
82 194
83 327
84 268
85 320
86 228
87 100
88 70
94 12
96 203
97 242
98 344
99 359
100 325
101 319
102 353
103 274
104 68
111 167
112 423
113 205
114 213
115 324
116 98
117 218
118 72
123 38
124 105
125 165
126 249
127 50
128 144
129 613
130 536
131 233
137 41
138 56
139 75
140 248
141 294
142 398
143 390
144 101
152 75
153 82
154 15
155 46
156 136
157 191
158 100
166 93
167 112
168 21
169 88
170 110
171 108
181 27
182 2
183 177
184 673
185 336
186 116
196 27
198 216
199 177
200 49
209 11
210 17
212 39
226 634
227 221
228 64
241 712
242 224
243 140

$$$$

     RDKit          2D

 14 15  0  0  0  0  0  0  0  0999 V2000
   -4.8981   -0.6361    0.0000 C   0  0  0  0  0  0  0  0  0  0  0  0
    1.5800    1.6200    0.0000 C   0  0  0  0  0  0  0  0  0  0  0  0
    2.9000    0.8900    0.0000 C   0  0  0  0  0  0  0  0  0  0  0  0
   -1.0100    1.6100    0.0000 C   0  0  0  0  0  0  0  0  0  0  0  0
   -1.0100   -1.3900    0.0000 C   0  0  0  0  0  0  0  0  0  0  0  0
    0.3000    0.8600    0.0000 C   0  0  0  0  0  0  0  0  0  0  0  0
   -2.3000    0.8600    0.0000 C   0  0  0  0  0  0  0  0  0  0  0  0
    0.3000   -0.6400    0.0000 C   0  0  0  0  0  0  0  0  0  0  0  0
   -2.3000   -0.6400    0.0000 C   0  0  0  0  0  0  0  0  0  0  0  0
    2.9000   -0.6300    0.0000 C   0  0  0  0  0  0  0  0  0  0  0  0
   -3.6002    1.6080    0.0000 O   0  0  0  0  0  0  0  0  0  0  0  0
    4.2023   -1.3743    0.0000 O   0  0  0  0  0  0  0  0  0  0  0  0
   -3.6002   -1.3880    0.0000 O   0  0  0  0  0  0  0  0  0  0  0  0
    1.6100   -1.3900    0.0000 O   0  0  0  0  0  0  0  0  0  0  0  0
  3  2  2  0
  6  2  1  0
  6  4  2  0
  7  4  1  0
  8  5  2  0
  8  6  1  0
  9  5  1  0
  9  7  2  0
 10  3  1  0
 11  7  1  0
 12 10  2  0
 13  1  1  0
 13  9  1  0
 14  8  1  0
 14 10  1  0
M  END
>  <NAME>  (4500) 
6-HYDROXY-7-METHOXYCOUMARIN

>  <SYNONYMS>  (4500) 


>  <SPECTRUM TYPE>  (4500) 
MS1

>  <INSTRUMENT TYPE>  (4500) 
EI-B

>  <INSTRUMENT>  (4500) 
HITACHI RMU-6E

>  <ION MODE>  (4500) 
P

>  <INCHIKEY>  (4500) 
SYTYLPHCLSSCOJ-UHFFFAOYSA-N

>  <FORMULA>  (4500) 
C10H8O4

>  <EXACT MASS>  (4500) 
192.042258736

>  <MW>  (4500) 
192

>  <ID>  (4500) 
JP004082

>  <CONTRIBUTOR>  (4500) 
University of Tokyo Team, {Faculty of Engineering, University of Tokyo

>  <COMMENT>  (4500) 
SMILES=COc(c1)c(O)cc(C=2)c(OC(=O)C2)1
InChI=InChI=1S/C10H8O4/c1-13-9-5-8-6(4-7(9)11)2-3-10(12)14-8/h2-5,11H,1H3
computed SMILES=O=C1OC=2C=C(OC)C(O)=CC2C=C1
accession=JP004082
date=2016.01.19 (Created 2008.10.21, modified 2011.05.06)
author=YAMAMOTO M, DEP. CHEMISTRY, FAC. SCIENCE, NARA WOMEN'S UNIV.
license=CC BY-NC-SA
exact mass=192.04226
ionization energy=70 eV
ion type=[M]+*
computed spectral entropy=2.7096278834330585
computed normalized entropy=0.707725692439573
SPLASH=splash10-0007-4900000000-368d336ba855c6336983
submitter=submitter = University of Tokyo Team (Faculty of Engineering, University of Tokyo)
MoNA Rating=3.75

>  <NUM PEAKS>  (4500) 
46

>  <MASS SPECTRAL PEAKS>  (4500) 
28 3.2
38 2.3
39 7.1
41 1.3
42 1.8
50 7.7
51 18.1
52 0.31
53 10.7
54 1.2
55 1.8
57 0.12
62 1.6
63 3.2
64 1.9
65 0.84
66 1.5
69 27.2
70 1.3
74 0.15
75 1.7
76 2.4
77 3.3
78 0.12
79 15.3
80 1.8
81 2.7
92 0.26
93 1.9
96 2.7
105 2.6
107 0.24
120 1.6
121 15.4
122 1.1
135 0.17
149 56.7
150 5.6
164 36.5
165 0.35
177 11.8
178 1.7
191 1.7
192 99.99
193 10.9
194 1.4

>  <PREDICTED SPECTRUM>  (4500) 
15 35
26 15
27 18
28 11
29 40
37 69
38 107
39 175
41 35
44 14
49 70
50 249
51 326
52 117
53 278
54 48
55 64
61 91
62 187
63 260
64 163
65 272
66 156
67 30
68 16
69 369
74 36
75 156
76 119
77 196
78 127
79 236
80 14
81 29
89 93
90 43
91 83
92 127
93 344
94 81
95 15
101 17
102 26
103 0
105 117
106 160
107 148
117 38
119 6
120 68
121 495
122 30
133 18
134 84
135 57
145 54
146 28
147 23
149 909
150 265
151 12
162 37
163 59
164 486
165 128
177 502
178 161
191 22
192 999
193 353
194 67

$$$$

     RDKit          2D

 13 14  0  0  0  0  0  0  0  0999 V2000
    1.5800    1.6200    0.0000 C   0  0  0  0  0  0  0  0  0  0  0  0
    2.9000    0.8900    0.0000 C   0  0  0  0  0  0  0  0  0  0  0  0
   -1.0100    1.6100    0.0000 C   0  0  0  0  0  0  0  0  0  0  0  0
   -1.0100   -1.3900    0.0000 C   0  0  0  0  0  0  0  0  0  0  0  0
    0.3000    0.8600    0.0000 C   0  0  0  0  0  0  0  0  0  0  0  0
   -2.3000    0.8600    0.0000 C   0  0  0  0  0  0  0  0  0  0  0  0
   -2.3000   -0.6400    0.0000 C   0  0  0  0  0  0  0  0  0  0  0  0
    0.3000   -0.6400    0.0000 C   0  0  0  0  0  0  0  0  0  0  0  0
    2.9000   -0.6300    0.0000 C   0  0  0  0  0  0  0  0  0  0  0  0
   -3.6002    1.6080    0.0000 O   0  0  0  0  0  0  0  0  0  0  0  0
   -3.6002   -1.3880    0.0000 O   0  0  0  0  0  0  0  0  0  0  0  0
    4.2023   -1.3743    0.0000 O   0  0  0  0  0  0  0  0  0  0  0  0
    1.6100   -1.3900    0.0000 O   0  0  0  0  0  0  0  0  0  0  0  0
  2  1  2  0
  5  1  1  0
  5  3  2  0
  6  3  1  0
  7  4  1  0
  7  6  2  0
  8  4  2  0
  8  5  1  0
  9  2  1  0
 10  6  1  0
 11  7  1  0
 12  9  2  0
 13  8  1  0
 13  9  1  0
M  END
>  <NAME>  (4501) 
6,7-DIHYDROXYCOUMARIN

>  <SYNONYMS>  (4501) 


>  <SPECTRUM TYPE>  (4501) 
MS1

>  <INSTRUMENT TYPE>  (4501) 
EI-B

>  <INSTRUMENT>  (4501) 
HITACHI RMU-6E

>  <ION MODE>  (4501) 
P

>  <INCHIKEY>  (4501) 
ILEDWLMCKZNDJK-UHFFFAOYSA-N

>  <FORMULA>  (4501) 
C9H6O4

>  <EXACT MASS>  (4501) 
178.026608672

>  <MW>  (4501) 
178

>  <ID>  (4501) 
JP004081

>  <CONTRIBUTOR>  (4501) 
University of Tokyo Team, {Faculty of Engineering, University of Tokyo

>  <COMMENT>  (4501) 
computed SMILES=O=C1OC=2C=C(O)C(O)=CC2C=C1
SMILES=O=C(C=2)Oc(c1)c(C2)cc(O)c(O)1
InChI=InChI=1S/C9H6O4/c10-6-3-5-1-2-9(12)13-8(5)4-7(6)11/h1-4,10-11H
accession=JP004081
date=2016.01.19 (Created 2008.10.21, modified 2011.05.06)
author=YAMAMOTO M, DEP. CHEMISTRY, FAC. SCIENCE, NARA WOMEN'S UNIV.
license=CC BY-NC-SA
exact mass=178.02661
ionization energy=70 eV
ion type=[M]+*
computed spectral entropy=2.7344739968534255
computed normalized entropy=0.7183389660107256
SPLASH=splash10-004i-7900000000-22e400291639a7bbb33a
submitter=submitter = University of Tokyo Team (Faculty of Engineering, University of Tokyo)
MoNA Rating=3.75

>  <NUM PEAKS>  (4501) 
45

>  <MASS SPECTRAL PEAKS>  (4501) 
38 4.3
39 6.7
40 1.9
42 4.3
43 1.8
47 2.8
49 1.7
50 1.08
51 14.1
52 6.1
53 9.6
54 0.16
55 1.8
61 2
62 2.3
63 0.29
64 1.3
65 5.1
66 7.3
69 1.7
70 1.8
74 2.1
75 10.3
76 1.04
77 2.4
79 7.5
80 4.6
81 0.31
89 2.2
93 1.2
94 7.8
104 0.58
105 1.1
108 1.4
109 1.1
121 0.61
122 2.9
132 3.1
149 2.7
150 7.24
151 6.7
177 3.2
178 99.99
179 1.03
180 1.3

>  <PREDICTED SPECTRUM>  (4501) 
15 6
17 1
18 19
25 6
26 68
27 156
28 133
29 160
31 73
36 47
37 139
38 205
39 311
40 119
41 214
42 85
43 104
44 160
45 130
47 16
48 22
49 157
50 353
51 458
52 321
53 348
54 159
55 154
56 11
57 50
59 39
60 131
61 205
62 242
63 265
64 149
65 326
66 294
67 221
68 149
69 322
70 62
71 65
72 37
73 184
74 172
75 230
76 271
77 396
78 190
79 247
80 111
81 85
82 60
83 107
84 52
85 24
86 49
87 50
88 45
89 81
90 50
91 91
92 105
93 282
94 353
95 150
96 107
97 51
98 25
101 34
102 71
103 137
104 108
105 66
106 158
107 52
109 32
111 0
121 233
122 647
123 135
124 82
131 31
132 124
133 52
134 37
149 179
150 850
151 303
152 65
161 5
163 10
177 85
178 999
179 311
180 96

$$$$

     RDKit          2D

 18 19  0  0  0  0  0  0  0  0999 V2000
   -0.9736   -2.8671    0.0000 C   0  0  0  0  0  0  0  0  0  0  0  0
   -2.2726   -0.6171    0.0000 C   0  0  0  0  0  0  0  0  0  0  0  0
    4.2226    3.1329    0.0000 C   0  0  0  0  0  0  0  0  0  0  0  0
   -3.5716    3.1329    0.0000 C   0  0  0  0  0  0  0  0  0  0  0  0
    2.9231    3.8837    0.0000 C   0  0  0  0  0  0  0  0  0  0  0  0
    4.2231    1.6321    0.0000 C   0  0  0  0  0  0  0  0  0  0  0  0
   -3.5721    1.6321    0.0000 C   0  0  0  0  0  0  0  0  0  0  0  0
   -2.2721    3.8837    0.0000 C   0  0  0  0  0  0  0  0  0  0  0  0
    1.6240    3.1337    0.0000 C   0  0  0  0  0  0  0  0  0  0  0  0
    2.9240    0.8821    0.0000 C   0  0  0  0  0  0  0  0  0  0  0  0
   -2.2731    0.8821    0.0000 C   0  0  0  0  0  0  0  0  0  0  0  0
   -0.9731    3.1337    0.0000 C   0  0  0  0  0  0  0  0  0  0  0  0
    1.6245    1.6329    0.0000 C   0  0  0  0  0  0  0  0  0  0  0  0
   -0.9736    1.6329    0.0000 C   0  0  0  0  0  0  0  0  0  0  0  0
    0.3255    0.8829    0.0000 C   0  0  0  0  0  0  0  0  0  0  0  0
    0.3255   -0.6171    0.0000 C   0  0  0  0  0  0  0  0  0  0  0  0
   -0.9736   -1.3671    0.0000 N   0  0  0  0  0  0  0  0  0  0  0  0
    1.6245   -1.3671    0.0000 O   0  0  0  0  0  0  0  0  0  0  0  0
  5  3  2  0
  6  3  1  0
  7  4  2  0
  8  4  1  0
  9  5  1  0
 10  6  2  0
 11  7  1  0
 12  8  2  0
 13  9  2  0
 13 10  1  0
 14 11  2  0
 14 12  1  0
 15 13  1  0
 15 14  1  0
 16 15  1  0
 17  1  1  0
 17  2  1  0
 17 16  1  0
 18 16  2  0
M  END
>  <NAME>  (4502) 
DIPHENAMIDE

>  <SYNONYMS>  (4502) 


>  <SPECTRUM TYPE>  (4502) 
MS1

>  <INSTRUMENT TYPE>  (4502) 
EI-B

>  <INSTRUMENT>  (4502) 
HITACHI M-68

>  <ION MODE>  (4502) 
P

>  <INCHIKEY>  (4502) 
QAHFOPIILNICLA-UHFFFAOYSA-N

>  <FORMULA>  (4502) 
C16H17NO

>  <EXACT MASS>  (4502) 
239.131014164

>  <MW>  (4502) 
239

>  <ID>  (4502) 
JP004080

>  <CONTRIBUTOR>  (4502) 
University of Tokyo Team, {Faculty of Engineering, University of Tokyo

>  <COMMENT>  (4502) 
SMILES=CN(C)C(=O)C(c(c2)cccc2)c(c1)cccc1
InChI=InChI=1S/C16H17NO/c1-17(2)16(18)15(13-9-5-3-6-10-13)14-11-7-4-8-12-14/h3-12,15H,1-2H3
computed SMILES=O=C(N(C)C)C(C=1C=CC=CC1)C=2C=CC=CC2
accession=JP004080
date=2016.01.19 (Created 2008.10.21, modified 2011.05.06)
author=YAMAMOTO M, DEP. CHEMISTRY, FAC. SCIENCE, NARA WOMEN'S UNIV.
license=CC BY-NC-SA
exact mass=239.13101
ionization energy=70 eV
ion type=[M]+*
computed spectral entropy=2.003372745265767
computed normalized entropy=0.6481220415103547
SPLASH=splash10-01b9-4920000000-fc2f1e9ef369b2873491
submitter=submitter = University of Tokyo Team (Faculty of Engineering, University of Tokyo)
MoNA Rating=3.75

>  <NUM PEAKS>  (4502) 
22

>  <MASS SPECTRAL PEAKS>  (4502) 
44 1.4
51 1.7
63 2.2
72 92
77 1.1
134 1.8
139 3.1
141 0.11
152 14
153 2
163 2.4
164 0.29
165 37.2
166 14.5
167 99.99
168 1.38
169 1
222 15.3
223 3
239 3.5
240 20
241 3.4

>  <PREDICTED SPECTRUM>  (4502) 
27 28
29 43
38 2
39 144
40 44
41 90
42 208
43 21
44 189
45 99
50 100
51 208
52 86
53 23
54 16
56 153
58 11
59 16
62 49
63 124
64 41
65 147
67 11
70 7
71 106
72 844
73 196
74 99
75 107
76 98
77 170
78 127
79 65
81 34
82 92
83 70
89 136
90 9
91 45
92 22
98 25
100 7
101 47
102 35
115 79
117 7
139 109
140 7
141 100
152 248
153 32
154 57
163 180
164 123
165 550
166 196
167 999
168 571
169 240
194 134
195 120
238 24
239 482
240 216
241 64

$$$$

     RDKit          2D

 17 18  0  0  0  0  0  0  0  0999 V2000
    5.1887    0.7498    0.0000 C   0  0  0  0  0  0  0  0  0  0  0  0
   -5.2037   -0.7589    0.0000 C   0  0  0  0  0  0  0  0  0  0  0  0
   -5.2060    0.7411    0.0000 C   0  0  0  0  0  0  0  0  0  0  0  0
   -3.9025   -1.5069    0.0000 C   0  0  0  0  0  0  0  0  0  0  0  0
    1.2957   -1.4928    0.0000 C   0  0  0  0  0  0  0  0  0  0  0  0
    2.5902   -0.7506    0.0000 C   0  0  0  0  0  0  0  0  0  0  0  0
   -3.9071    1.4931    0.0000 C   0  0  0  0  0  0  0  0  0  0  0  0
   -2.6037   -0.7550    0.0000 C   0  0  0  0  0  0  0  0  0  0  0  0
   -0.0034   -0.7428    0.0000 C   0  0  0  0  0  0  0  0  0  0  0  0
    1.2916    1.5002    0.0000 C   0  0  0  0  0  0  0  0  0  0  0  0
    3.8901    3.0000    0.0000 C   0  0  0  0  0  0  0  0  0  0  0  0
    3.8898    1.5000    0.0000 C   0  0  0  0  0  0  0  0  0  0  0  0
    2.5907    0.7502    0.0000 C   0  0  0  0  0  0  0  0  0  0  0  0
   -2.6060    0.7450    0.0000 C   0  0  0  0  0  0  0  0  0  0  0  0
   -0.0079    0.7494    0.0000 C   0  0  0  0  0  0  0  0  0  0  0  0
    3.8903    4.5000    0.0000 N   0  0  0  0  0  0  0  0  0  0  0  0
   -1.3082    1.4972    0.0000 O   0  0  0  0  0  0  0  0  0  0  0  0
  3  2  2  0
  4  2  1  0
  6  5  2  0
  7  3  1  0
  8  4  2  0
  9  5  1  0
 12  1  1  0
 12 11  1  0
 13  6  1  0
 13 10  2  0
 13 12  1  0
 14  7  2  0
 14  8  1  0
 15  9  2  0
 15 10  1  0
 16 11  3  0
 17 14  1  0
 17 15  1  0
M  END
>  <NAME>  (4503) 
2-(3-PHENOXYPHENYL)PROPIONITRILE

>  <SYNONYMS>  (4503) 


>  <SPECTRUM TYPE>  (4503) 
MS1

>  <INSTRUMENT TYPE>  (4503) 
EI-B

>  <INSTRUMENT>  (4503) 
HITACHI RMU-6E

>  <ION MODE>  (4503) 
P

>  <INCHIKEY>  (4503) 
JSCONFOVXYGOST-UHFFFAOYSA-N

>  <FORMULA>  (4503) 
C15H13NO

>  <EXACT MASS>  (4503) 
223.099714036

>  <MW>  (4503) 
223

>  <ID>  (4503) 
JP004079

>  <CONTRIBUTOR>  (4503) 
University of Tokyo Team, {Faculty of Engineering, University of Tokyo

>  <COMMENT>  (4503) 
SMILES=N#CC(C)c(c2)cc(cc2)Oc(c1)cccc1
InChI=InChI=1S/C15H13NO/c1-12(11-16)13-6-5-9-15(10-13)17-14-7-3-2-4-8-14/h2-10,12H,1H3
computed SMILES=N#CC(C=1C=CC=C(OC=2C=CC=CC2)C1)C
accession=JP004079
date=2016.01.19 (Created 2008.10.21, modified 2011.05.06)
author=YAMAMOTO M, DEP. CHEMISTRY, FAC. SCIENCE, NARA WOMEN'S UNIV.
license=CC BY-NC-SA
exact mass=223.09971
ionization energy=70 eV
ion type=[M]+*
computed spectral entropy=3.181345555265585
computed normalized entropy=0.7323867545402094
SPLASH=splash10-00di-9880000000-1cd83c26509dba10f482
submitter=submitter = University of Tokyo Team (Faculty of Engineering, University of Tokyo)
MoNA Rating=3.75

>  <NUM PEAKS>  (4503) 
77

>  <MASS SPECTRAL PEAKS>  (4503) 
38 2.3
39 13
40 1
41 1.2
51 27
52 3
53 1.2
55 0.13
62 1.7
63 6.2
64 3.8
65 0.75
66 1.6
74 1.4
75 3.5
76 0.77
76.5 1.5
77 34
78 4.5
88 0.2
89 2.9
90 2.9
91 6.2
92 0.23
93 0.9
94 7.7
95 0.8
101 0.16
102 2.9
103 8.9
103.5 2
104 0.32
114 1.5
115 4.9
116 1.5
117 1.1
118 1.6
127 1.3
128 1.6
129 0.1
130 14
131 1.4
132 0.9
140 0.14
141 11
142 1.9
145 1.2
151 0.11
152 4.5
153 4
154 1.2
165 0.12
167 1.4
168 4
169 7.1
170 0.41
177 1
178 1.1
179 1
180 0.91
181 25.5
182 3.8
183 1.9
190 0.1
194 1.5
195 4.6
196 1.9
197 0.16
206 1.6
207 1.5
208 7
209 0.12
221 0.5
222 1.9
223 99.99
224 1.6
225 1.9

>  <PREDICTED SPECTRUM>  (4503) 
14 0
17 10
18 10
26 7
27 86
28 46
29 46
37 25
38 90
39 269
40 110
41 132
42 92
43 136
44 68
45 28
49 5
50 217
51 424
52 172
53 130
54 43
55 115
56 33
57 99
62 116
63 234
64 187
65 236
66 150
67 72
68 45
69 67
70 41
71 2
74 119
75 138
76 216
77 604
78 261
79 43
81 15
82 41
83 81
84 85
85 17
86 65
87 63
88 102
89 228
90 168
91 254
92 93
93 83
94 171
95 58
96 49
97 64
98 22
99 17
100 33
101 79
102 179
103 277
104 227
105 88
110 1
111 9
112 48
113 37
114 93
115 227
116 158
117 90
118 123
120 25
125 22
126 83
127 117
128 168
129 164
130 218
131 164
132 58
139 114
140 195
141 210
142 123
143 6
144 40
145 24
146 33
151 49
152 169
153 179
154 114
155 100
156 109
163 16
164 25
165 131
166 138
167 151
168 206
169 182
170 100
177 50
178 128
179 143
180 200
181 488
182 288
183 218
184 51
193 7
194 115
195 209
196 246
197 111
205 59
206 148
207 114
208 222
209 65
220 16
221 71
222 156
223 999
224 420
225 111

$$$$

     RDKit          2D

 16 17  0  0  0  0  0  0  0  0999 V2000
   -5.5300    1.3050    0.0000 C   0  0  0  0  0  0  0  0  0  0  0  0
    4.8624    2.8137    0.0000 C   0  0  0  0  0  0  0  0  0  0  0  0
    4.8647    1.3137    0.0000 C   0  0  0  0  0  0  0  0  0  0  0  0
    3.5613    3.5617    0.0000 C   0  0  0  0  0  0  0  0  0  0  0  0
   -1.6369    3.5475    0.0000 C   0  0  0  0  0  0  0  0  0  0  0  0
   -2.9314    2.8054    0.0000 C   0  0  0  0  0  0  0  0  0  0  0  0
    3.5658    0.5617    0.0000 C   0  0  0  0  0  0  0  0  0  0  0  0
    2.2624    2.8097    0.0000 C   0  0  0  0  0  0  0  0  0  0  0  0
   -0.3379    2.7975    0.0000 C   0  0  0  0  0  0  0  0  0  0  0  0
   -1.6329    0.5545    0.0000 C   0  0  0  0  0  0  0  0  0  0  0  0
   -4.2311    0.5547    0.0000 C   0  0  0  0  0  0  0  0  0  0  0  0
   -2.9319    1.3045    0.0000 C   0  0  0  0  0  0  0  0  0  0  0  0
    2.2647    1.3097    0.0000 C   0  0  0  0  0  0  0  0  0  0  0  0
   -0.3334    1.3054    0.0000 C   0  0  0  0  0  0  0  0  0  0  0  0
   -4.2313   -0.9453    0.0000 O   0  0  0  0  0  0  0  0  0  0  0  0
    0.9669    0.5575    0.0000 O   0  0  0  0  0  0  0  0  0  0  0  0
  3  2  2  0
  4  2  1  0
  6  5  2  0
  7  3  1  0
  8  4  2  0
  9  5  1  0
 11  1  1  0
 12  6  1  0
 12 10  2  0
 12 11  1  0
 13  7  2  0
 13  8  1  0
 14  9  2  0
 14 10  1  0
 15 11  1  0
 16 13  1  0
 16 14  1  0
M  END
>  <NAME>  (4504) 
ALPHA-METHYL-3-PHENOXYBENZYLALCOHOL

>  <SYNONYMS>  (4504) 


>  <SPECTRUM TYPE>  (4504) 
MS1

>  <INSTRUMENT TYPE>  (4504) 
EI-B

>  <INSTRUMENT>  (4504) 
HITACHI RMU-6E

>  <ION MODE>  (4504) 
P

>  <INCHIKEY>  (4504) 
MYWBBBSIAHHXJK-UHFFFAOYSA-N

>  <FORMULA>  (4504) 
C14H14O2

>  <EXACT MASS>  (4504) 
214.099379688

>  <MW>  (4504) 
214

>  <ID>  (4504) 
JP004078

>  <CONTRIBUTOR>  (4504) 
University of Tokyo Team, {Faculty of Engineering, University of Tokyo

>  <COMMENT>  (4504) 
SMILES=CC(O)c(c2)cc(cc2)Oc(c1)cccc1
InChI=InChI=1S/C14H14O2/c1-11(15)12-6-5-9-14(10-12)16-13-7-3-2-4-8-13/h2-11,15H,1H3
computed SMILES=OC(C=1C=CC=C(OC=2C=CC=CC2)C1)C
accession=JP004078
date=2016.01.19 (Created 2008.10.21, modified 2011.05.06)
author=YAMAMOTO M, DEP. CHEMISTRY, FAC. SCIENCE, NARA WOMEN'S UNIV.
license=CC BY-NC-SA
exact mass=214.09938
ionization energy=70 eV
ion type=[M]+*
computed spectral entropy=3.291613457918294
computed normalized entropy=0.7351721780845969
SPLASH=splash10-01ox-9420000000-3fad2214685973a233c8
submitter=submitter = University of Tokyo Team (Faculty of Engineering, University of Tokyo)
MoNA Rating=3.75

>  <NUM PEAKS>  (4504) 
88

>  <MASS SPECTRAL PEAKS>  (4504) 
37 1
38 5.1
39 31
40 5.5
41 4.2
43 98
44 2.6
45 1.6
50 16
51 55
52 6.8
53 0.32
55 4.1
62 2.7
63 11
64 0.57
65 71
66 12
67 1.1
74 0.35
75 5.5
76 9
77 66
78 1.5
89 2.7
90 1
90.5 2.5
91 1
92 2.5
93 71
94 23
95 0.38
98 2.7
98.5 1.3
99 9
99.5 1.5
102 2.4
103 4.3
104 2.3
105 0.38
106 1.5
107 1.2
115 10.5
116 0.15
119 1.1
120 1.2
121 6.8
122 0.09
127 1.5
128 4.3
129 1.3
139 0.33
140 1
141 11
142 3
143 0.17
149 1.3
151 1.9
152 8.1
153 3.5
154 5.1
157 1.3
159 1
165 0.14
167 1.4
168 2.3
169 5.2
170 0.47
171 88
172 12
173 1
181 0.58
182 1
185 2.5
186 3.6
187 0.19
195 2.7
196 2.1
197 6
198 0.22
199 54
200 8.3
201 0.9
202 0.08
213 2.4
214 99.99
215 16
216 1.6

>  <PREDICTED SPECTRUM>  (4504) 
15 17
26 23
27 99
28 14
29 9
31 20
32 6
33 27
34 7
36 13
37 78
38 177
39 453
40 191
41 196
42 133
43 758
44 235
45 178
46 21
47 41
49 46
50 375
51 690
52 276
53 263
54 43
55 146
56 57
57 121
58 67
61 55
62 191
63 388
64 247
65 470
66 282
67 151
68 63
69 152
70 89
71 135
72 49
73 100
74 187
75 267
76 242
77 985
78 436
79 318
80 91
81 133
82 59
83 39
84 84
85 82
86 114
87 96
88 70
89 220
90 152
91 309
92 240
93 315
94 443
95 125
96 17
97 76
98 107
99 92
100 134
101 71
102 198
103 176
104 106
105 101
106 130
107 247
108 113
109 109
113 66
114 102
115 317
116 227
117 117
118 123
119 85
120 89
121 216
122 138
123 45
124 40
125 74
126 139
127 240
128 264
129 89
130 92
131 68
136 30
137 76
138 37
139 151
140 87
141 390
142 184
143 160
144 133
145 21
151 145
152 278
153 308
154 172
155 134
156 104
157 35
165 52
166 3
167 102
168 154
169 191
170 119
171 979
172 430
173 222
174 61
181 251
182 121
183 11
184 28
185 96
186 90
187 47
195 158
196 185
197 247
198 73
199 706
200 247
201 39
211 6
213 156
214 999
215 392
216 110

$$$$

     RDKit          2D

 16 17  0  0  0  0  0  0  0  0999 V2000
   -5.5300    1.3050    0.0000 C   0  0  0  0  0  0  0  0  0  0  0  0
    4.8624    2.8137    0.0000 C   0  0  0  0  0  0  0  0  0  0  0  0
    4.8647    1.3137    0.0000 C   0  0  0  0  0  0  0  0  0  0  0  0
    3.5613    3.5617    0.0000 C   0  0  0  0  0  0  0  0  0  0  0  0
   -1.6369    3.5475    0.0000 C   0  0  0  0  0  0  0  0  0  0  0  0
   -2.9314    2.8054    0.0000 C   0  0  0  0  0  0  0  0  0  0  0  0
    3.5658    0.5617    0.0000 C   0  0  0  0  0  0  0  0  0  0  0  0
    2.2624    2.8097    0.0000 C   0  0  0  0  0  0  0  0  0  0  0  0
   -0.3379    2.7975    0.0000 C   0  0  0  0  0  0  0  0  0  0  0  0
   -1.6329    0.5545    0.0000 C   0  0  0  0  0  0  0  0  0  0  0  0
   -4.2311    0.5547    0.0000 C   0  0  0  0  0  0  0  0  0  0  0  0
   -2.9319    1.3045    0.0000 C   0  0  0  0  0  0  0  0  0  0  0  0
    2.2647    1.3097    0.0000 C   0  0  0  0  0  0  0  0  0  0  0  0
   -0.3334    1.3054    0.0000 C   0  0  0  0  0  0  0  0  0  0  0  0
   -4.2313   -0.9453    0.0000 Br  0  0  0  0  0  0  0  0  0  0  0  0
    0.9669    0.5575    0.0000 O   0  0  0  0  0  0  0  0  0  0  0  0
  3  2  2  0
  4  2  1  0
  6  5  2  0
  7  3  1  0
  8  4  2  0
  9  5  1  0
 11  1  1  0
 12  6  1  0
 12 10  2  0
 12 11  1  0
 13  7  2  0
 13  8  1  0
 14  9  2  0
 14 10  1  0
 15 11  1  0
 16 13  1  0
 16 14  1  0
M  END
>  <NAME>  (4505) 
ALPHA-(3-PHENOXYPHENYL)ETHYLBROMIDE

>  <SYNONYMS>  (4505) 


>  <SPECTRUM TYPE>  (4505) 
MS1

>  <INSTRUMENT TYPE>  (4505) 
EI-B

>  <INSTRUMENT>  (4505) 
HITACHI RMU-6E

>  <ION MODE>  (4505) 
P

>  <INCHIKEY>  (4505) 
NAFPHJPIASZFMX-UHFFFAOYSA-N

>  <FORMULA>  (4505) 
C14H13BrO

>  <EXACT MASS>  (4505) 
276.01497713599997

>  <MW>  (4505) 
276

>  <ID>  (4505) 
JP004077

>  <CONTRIBUTOR>  (4505) 
University of Tokyo Team, {Faculty of Engineering, University of Tokyo

>  <COMMENT>  (4505) 
SMILES=c(c2)ccc(c2)Oc(c1)cc(cc1)C(C)Br
InChI=InChI=1S/C14H13BrO/c1-11(15)12-6-5-9-14(10-12)16-13-7-3-2-4-8-13/h2-11H,1H3
computed SMILES=BrC(C=1C=CC=C(OC=2C=CC=CC2)C1)C
accession=JP004077
date=2016.01.19 (Created 2008.10.21, modified 2011.05.06)
author=YAMAMOTO M, DEP. CHEMISTRY, FAC. SCIENCE, NARA WOMEN'S UNIV.
license=CC BY-NC-SA
exact mass=276.01498
ionization energy=70 eV
ion type=[M]+*
computed spectral entropy=3.1691887917351402
computed normalized entropy=0.7459555939637604
SPLASH=splash10-0002-7900000000-73ad2ea37bfb092039d1
submitter=submitter = University of Tokyo Team (Faculty of Engineering, University of Tokyo)
MoNA Rating=3.75

>  <NUM PEAKS>  (4505) 
70

>  <MASS SPECTRAL PEAKS>  (4505) 
32 1.4
38 2.5
39 16
40 1.7
41 2.5
43 1.1
50 8
51 2.6
52 4.7
53 2.1
55 2.6
62 0.19
63 7.3
64 2.7
65 16
66 0.18
74 1.9
75 2.8
76 5.4
77 3.4
78 13.5
80 1.3
82 1.4
89 0.28
90 1
90.5 1.5
91 33
91.5 0.18
92 3
93 5.6
94 1.9
98 0.19
98.5 7.6
99 1.3
102 4.8
103 2.1
104 25
105 2.7
119 6
120 0.1
141 2.8
142 0.7
152 2.1
153 0.23
154 2
155 0.7
165 1.8
166 0.06
167 2.5
168 1.5
169 2.2
170 0.07
177 0.9
178 3.3
179 2.9
180 0.06
181 6.1
182 3.8
183 2.5
185 0.21
195 1.4
196 5.4
197 99.99
198 1.6
199 1.6
275 0.9
276 6
277 0.19
278 6.1
279 0.9

>  <PREDICTED SPECTRUM>  (4505) 
14 0
26 35
27 77
28 34
29 51
37 2
38 67
39 147
40 30
41 79
42 26
43 23
44 24
49 3
50 132
51 229
52 125
53 98
54 13
55 73
56 33
57 35
58 8
61 21
62 77
63 159
64 146
65 190
66 96
67 52
68 0
69 53
70 37
71 20
74 117
75 143
76 79
77 309
78 214
79 111
80 60
81 75
82 96
83 92
84 63
85 58
86 17
87 6
89 90
90 72
91 277
92 114
93 39
94 34
95 47
96 13
97 29
98 28
99 61
102 116
103 122
104 61
105 96
106 43
107 43
108 0
109 1
115 171
116 68
118 47
119 107
120 62
126 39
127 101
128 148
129 28
139 79
140 72
141 163
142 57
151 78
152 127
153 78
154 3
155 116
165 150
166 18
167 110
168 91
169 133
179 142
180 16
181 152
182 188
183 114
193 12
194 52
195 80
196 132
197 999
198 268
276 145
277 37
278 182
279 48

$$$$

     RDKit          2D

 16 17  0  0  0  0  0  0  0  0999 V2000
   -5.5300    1.3050    0.0000 C   0  0  0  0  0  0  0  0  0  0  0  0
    4.8624    2.8137    0.0000 C   0  0  0  0  0  0  0  0  0  0  0  0
    4.8647    1.3137    0.0000 C   0  0  0  0  0  0  0  0  0  0  0  0
    3.5613    3.5617    0.0000 C   0  0  0  0  0  0  0  0  0  0  0  0
   -1.6369    3.5475    0.0000 C   0  0  0  0  0  0  0  0  0  0  0  0
   -2.9314    2.8054    0.0000 C   0  0  0  0  0  0  0  0  0  0  0  0
    3.5658    0.5617    0.0000 C   0  0  0  0  0  0  0  0  0  0  0  0
    2.2624    2.8097    0.0000 C   0  0  0  0  0  0  0  0  0  0  0  0
   -0.3379    2.7975    0.0000 C   0  0  0  0  0  0  0  0  0  0  0  0
   -1.6329    0.5545    0.0000 C   0  0  0  0  0  0  0  0  0  0  0  0
   -4.2311    0.5547    0.0000 C   0  0  0  0  0  0  0  0  0  0  0  0
   -2.9319    1.3045    0.0000 C   0  0  0  0  0  0  0  0  0  0  0  0
    2.2647    1.3097    0.0000 C   0  0  0  0  0  0  0  0  0  0  0  0
   -0.3334    1.3054    0.0000 C   0  0  0  0  0  0  0  0  0  0  0  0
   -4.2313   -0.9453    0.0000 O   0  0  0  0  0  0  0  0  0  0  0  0
    0.9669    0.5575    0.0000 O   0  0  0  0  0  0  0  0  0  0  0  0
  3  2  2  0
  4  2  1  0
  6  5  2  0
  7  3  1  0
  8  4  2  0
  9  5  1  0
 11  1  1  0
 12  6  1  0
 12 10  2  0
 12 11  1  0
 13  7  2  0
 13  8  1  0
 14  9  2  0
 14 10  1  0
 15 11  2  0
 16 13  1  0
 16 14  1  0
M  END
>  <NAME>  (4506) 
3-ACETYLDIPHENYLETHER

>  <SYNONYMS>  (4506) 


>  <SPECTRUM TYPE>  (4506) 
MS1

>  <INSTRUMENT TYPE>  (4506) 
EI-B

>  <INSTRUMENT>  (4506) 
HITACHI RMU-6E

>  <ION MODE>  (4506) 
P

>  <INCHIKEY>  (4506) 
FZCDBGYCFVKRDV-UHFFFAOYSA-N

>  <FORMULA>  (4506) 
C14H12O2

>  <EXACT MASS>  (4506) 
212.083729624

>  <MW>  (4506) 
212

>  <ID>  (4506) 
JP004076

>  <CONTRIBUTOR>  (4506) 
University of Tokyo Team, {Faculty of Engineering, University of Tokyo

>  <COMMENT>  (4506) 
SMILES=CC(=O)c(c2)cc(cc2)Oc(c1)cccc1
InChI=InChI=1S/C14H12O2/c1-11(15)12-6-5-9-14(10-12)16-13-7-3-2-4-8-13/h2-10H,1H3
computed SMILES=O=C(C=1C=CC=C(OC=2C=CC=CC2)C1)C
accession=JP004076
date=2016.01.19 (Created 2008.10.21, modified 2011.05.06)
author=YAMAMOTO M, DEP. CHEMISTRY, FAC. SCIENCE, NARA WOMEN'S UNIV.
license=CC BY-NC-SA
exact mass=212.08373
ionization energy=70 eV
ion type=[M]+*
computed spectral entropy=3.0562396572372577
computed normalized entropy=0.7464539466064287
SPLASH=splash10-0gvp-9620000000-b840992f12bf863ff3e8
submitter=submitter = University of Tokyo Team (Faculty of Engineering, University of Tokyo)
MoNA Rating=3.75

>  <NUM PEAKS>  (4506) 
60

>  <MASS SPECTRAL PEAKS>  (4506) 
37 1.4
38 6.7
39 24
40 3.3
41 1.3
42 1
43 75
44 0.19
50 21
51 46
52 3.4
53 0.19
55 1.4
57.5 4.3
62 3.6
63 1.5
64 10
65 10
66 2.8
69.5 0.19
70 1.8
70.5 3.3
74 5.2
75 0.78
76 14
77 41
84 1.9
89 0.42
90 1.1
91 4.8
92 5.5
93 0.16
94 8
98 6.6
98.5 12
99 0.19
102 1.1
106 1.5
114 1.2
115 2.8
116 3.1
118 1.5
139 6.8
140 0.21
141 52
142 7
143 5
168 0.45
169 16
170 2.6
183 1.1
186 0.15
196 1.9
197 99.99
198 15
199 0.17
211 0.9
212 71
213 11.5
214 1.2

>  <PREDICTED SPECTRUM>  (4506) 
14 2
26 12
27 32
37 53
38 126
39 238
40 66
41 7
43 547
44 126
45 10
49 23
50 279
51 465
52 127
53 97
55 16
56 30
61 0
62 132
63 292
64 259
65 289
66 129
67 7
69 19
70 59
71 15
74 130
75 141
76 185
77 685
78 197
79 10
83 12
84 34
85 28
86 67
87 12
89 85
90 37
91 130
92 217
93 74
94 164
95 44
97 31
98 61
99 20
100 26
101 17
102 75
113 38
114 78
115 296
116 38
120 13
126 73
127 56
128 55
135 10
139 169
140 128
141 443
142 173
152 3
153 16
165 21
167 26
168 167
169 426
170 150
183 3
184 7
195 10
197 999
198 351
199 53
211 22
212 822
213 312
214 77

$$$$

     RDKit          2D

 23 25  0  0  0  0  0  0  0  0999 V2000
   -0.5568   -3.1525    0.0000 C   0  0  0  0  0  0  0  0  0  0  0  0
   -5.2500   -1.2990    0.0000 C   0  0  0  0  0  0  0  0  0  0  0  0
    1.2008    5.0616    0.0000 C   0  0  0  0  0  0  0  0  0  0  0  0
    0.1047    6.0890    0.0000 C   0  0  0  0  0  0  0  0  0  0  0  0
    0.8809    3.5961    0.0000 C   0  0  0  0  0  0  0  0  0  0  0  0
   -1.3351    5.6356    0.0000 C   0  0  0  0  0  0  0  0  0  0  0  0
    2.8800   -0.7500    0.0000 C   0  0  0  0  0  0  0  0  0  0  0  0
    1.5800   -1.5000    0.0000 C   0  0  0  0  0  0  0  0  0  0  0  0
    1.5800    1.5000    0.0000 C   0  0  0  0  0  0  0  0  0  0  0  0
    2.8800    0.7500    0.0000 C   0  0  0  0  0  0  0  0  0  0  0  0
   -0.5568    3.1525    0.0000 C   0  0  0  0  0  0  0  0  0  0  0  0
    0.2800    0.7500    0.0000 C   0  0  0  0  0  0  0  0  0  0  0  0
   -1.6550    4.1701    0.0000 C   0  0  0  0  0  0  0  0  0  0  0  0
    0.2800   -0.7500    0.0000 C   0  0  0  0  0  0  0  0  0  0  0  0
   -0.8900    1.6900    0.0000 C   0  0  0  0  0  0  0  0  0  0  0  0
   -3.0000    0.0000    0.0000 C   0  0  0  0  0  0  0  0  0  0  0  0
   -2.3500   -1.3500    0.0000 C   0  0  0  0  0  0  0  0  0  0  0  0
    4.1789    1.5002    0.0000 Cl  0  0  0  0  0  0  0  0  0  0  0  0
   -3.0861    3.7207    0.0000 Cl  0  0  0  0  0  0  0  0  0  0  0  0
   -2.3500    1.3500    0.0000 N   0  0  0  0  0  0  0  0  0  0  0  0
   -0.8900   -1.6900    0.0000 N   0  0  0  0  0  0  0  0  0  0  0  0
   -3.2879   -2.5207    0.0000 O   0  0  0  0  0  0  0  0  0  0  0  0
   -4.5000    0.0000    0.0000 O   0  0  0  0  0  0  0  0  0  0  0  0
  4  3  2  0
  5  3  1  0
  6  4  1  0
  8  7  2  0
 10  7  1  0
 10  9  2  0
 11  5  2  0
 12  9  1  0
 13  6  2  0
 13 11  1  0
 14  8  1  0
 14 12  2  0
 15 11  1  0
 15 12  1  0
 17 16  1  0
 18 10  1  0
 19 13  1  0
 20 15  2  0
 20 16  1  0
 21  1  1  0
 21 14  1  0
 21 17  1  0
 22 17  2  0
 23  2  1  0
 23 16  1  0
M  END
>  <NAME>  (4507) 
ORTHO-CHLORO-3-METHOXYDIAZEPAM

>  <SYNONYMS>  (4507) 


>  <SPECTRUM TYPE>  (4507) 
MS1

>  <INSTRUMENT TYPE>  (4507) 
EI-B

>  <INSTRUMENT>  (4507) 
HITACHI RMU-6E

>  <ION MODE>  (4507) 
P

>  <INCHIKEY>  (4507) 
NUPVEWMVMAZQIC-UHFFFAOYSA-N

>  <FORMULA>  (4507) 
C17H14Cl2N2O2

>  <EXACT MASS>  (4507) 
348.043233048

>  <MW>  (4507) 
348

>  <ID>  (4507) 
JP004075

>  <CONTRIBUTOR>  (4507) 
University of Tokyo Team, {Faculty of Engineering, University of Tokyo

>  <COMMENT>  (4507) 
SMILES=COC(N=1)C(=O)N(C)c(c3)c(cc(Cl)c3)C1c(c2)c(Cl)ccc2
InChI=InChI=1S/C17H14Cl2N2O2/c1-21-14-8-7-10(18)9-12(14)15(20-16(23-2)17(21)22)11-5-3-4-6-13(11)19/h3-9,16H,1-2H3
computed SMILES=O=C1N(C=2C=CC(Cl)=CC2C(=NC1OC)C=3C=CC=CC3Cl)C
accession=JP004075
date=2016.01.19 (Created 2008.10.21, modified 2011.05.06)
author=YAMAMOTO M, DEP. CHEMISTRY, FAC. SCIENCE, NARA WOMEN'S UNIV.
license=CC BY-NC-SA
exact mass=348.04323
ionization energy=70 eV
ion type=[M]+*
computed spectral entropy=4.350271248166296
computed normalized entropy=0.846082440120865
SPLASH=splash10-0a4i-3879000000-0ff801e73ea82b02d6da
submitter=submitter = University of Tokyo Team (Faculty of Engineering, University of Tokyo)
MoNA Rating=3.75

>  <NUM PEAKS>  (4507) 
171

>  <MASS SPECTRAL PEAKS>  (4507) 
39 3.6
42 3.1
43 1.4
45 1.5
50 3.4
51 6
58 1.9
62 0.26
63 7.1
64 1.6
65 1.4
70 0.41
73 2.6
74 3.1
75 14.9
75.5 0.2
76 6.6
77 5.1
81 5.3
82 0.66
83 3.1
86 1.7
87 2.9
88 0.32
89 8.4
90 3.1
93 2.8
95 1.29
96 6.1
96.5 8.3
97 2
98 0.15
99 4.8
100 4.9
101 3.2
102 0.63
102.5 1.8
103 4.4
104 1.8
105 0.15
106.5 2.2
110 2
111 7.6
112 0.25
113 4.6
113.5 7.8
114 10.6
114.5 0.37
115 4.2
116 2.3
117 11.5
117.5 0.28
118 1.7
123 2
124 4.2
125 1.38
126 3.8
127 5.5
127.5 2.1
128 0.16
131 1.4
135 6.9
136 3.8
137 0.22
138 5.4
139 14.7
140 5.4
141 0.51
142 2
149 3.5
150 7.4
151 0.86
152 14.2
153 3.4
154 2
156 0.18
162 1.9
163 7.8
164 7.1
165 1.52
166 5.2
167 2
168 7.9
170 0.22
174 3.2
175 3.2
176 4.4
177 1.03
178 5.9
179 2.2
180 2
186 0.28
188 1.6
190 2.8
191 4.3
192 0.59
193 10
194 2.2
195 1.9
196 0.27
198 1.9
199 5.9
200 1.8
201 0.3
206 4.2
209 20.2
210 4.2
211 0.99
212 3.7
213 11.2
214 2.9
215 0.38
221 13.2
222 2.6
223 2.9
225 0.14
226 2.6
227 10.4
228 23.7
229 0.7
230 7.7
231 1.4
235 3.2
237 1.8
239 1.5
240 1.5
241 2
247 0.34
248 1.9
249 3.6
250 1.5
254 0.18
255 2
256 13.5
257 3
258 0.43
262 16
263 3.6
264 10.5
265 0.22
266 2
269 7.4
270 2.5
271 0.29
276 3.8
278 2.7
283 2.3
285 0.4
287 1.4
289 3.1
290 1.6
291 0.44
292 1.4
293 1.9
305 99.99
306 1.69
307 65.3
308 10.8
309 11.5
310 0.18
313 4.1
315 1.4
319 3.6
320 0.44
321 2.8
322 2.7
348 35
349 0.76
350 23.3
351 4.5
352 4.1

>  <PREDICTED SPECTRUM>  (4507) 
15 35
26 26
27 59
28 18
29 63
31 23
35 8
36 20
37 8
38 46
39 117
40 53
41 170
42 182
43 178
44 163
45 104
46 4
47 10
49 38
50 171
51 218
52 149
53 109
54 77
55 126
56 141
57 116
58 74
59 70
60 20
61 130
62 208
63 308
64 147
65 126
66 54
67 31
68 54
69 123
70 80
71 96
72 99
73 197
74 181
75 421
76 288
77 250
78 108
79 99
80 63
81 116
82 166
83 124
84 97
85 119
86 256
87 246
88 263
89 317
90 175
91 143
92 6
93 38
94 79
95 90
96 143
97 154
98 82
99 220
100 161
101 199
102 240
103 194
104 89
105 67
106 19
107 8
108 25
109 61
110 223
111 342
112 217
113 291
114 254
115 200
116 139
117 210
118 103
119 25
122 98
123 179
124 212
125 232
126 292
127 246
128 136
129 129
130 67
131 96
133 76
134 26
135 91
136 146
137 176
138 255
139 271
140 247
141 139
142 129
143 88
144 48
145 122
146 49
147 40
148 61
149 257
150 325
151 163
152 318
153 110
154 78
155 58
156 67
157 46
159 45
160 28
161 145
162 209
163 267
164 265
165 223
166 229
167 160
168 207
169 90
170 107
171 82
173 54
174 65
175 175
176 228
177 249
178 241
179 117
180 30
181 19
182 34
183 26
184 29
185 131
186 69
188 95
189 32
190 233
191 150
192 191
193 224
194 171
195 124
196 76
197 2
198 142
199 190
200 121
201 47
202 61
203 47
204 7
205 33
206 113
207 166
208 139
209 137
210 97
211 164
212 128
213 246
214 150
215 40
216 22
218 28
219 4
220 53
221 235
222 49
223 141
224 107
225 145
226 215
227 287
228 304
229 218
230 111
231 43
233 73
234 13
235 188
236 63
237 159
238 118
239 76
240 56
241 77
242 116
244 43
245 9
246 55
247 109
248 139
249 156
250 118
251 55
252 45
253 67
254 64
255 149
256 177
257 95
258 33
261 97
262 293
263 137
264 203
265 66
266 29
268 16
269 301
270 210
271 164
272 141
273 38
274 30
275 39
276 126
277 116
278 104
279 37
280 6
281 40
283 67
285 40
286 0
287 108
288 60
289 178
290 179
291 164
292 151
293 55
294 38
297 20
298 33
305 999
306 239
307 916
308 278
309 323
310 61
312 18
313 183
314 27
315 82
316 18
319 187
320 88
321 157
322 106
323 3
333 18
335 10
348 582
349 210
350 457
351 185
352 189
353 20

$$$$

     RDKit          2D

 19 21  0  0  0  0  0  0  0  0999 V2000
    0.0104   -5.2518    0.0000 C   0  0  0  0  0  0  0  0  0  0  0  0
    1.3074   -6.0101    0.0000 C   0  0  0  0  0  0  0  0  0  0  0  0
   -0.0032   -3.7519    0.0000 C   0  0  0  0  0  0  0  0  0  0  0  0
    2.6105   -5.2482    0.0000 C   0  0  0  0  0  0  0  0  0  0  0  0
   -2.6000    0.7500    0.0000 C   0  0  0  0  0  0  0  0  0  0  0  0
   -1.3000    1.5000    0.0000 C   0  0  0  0  0  0  0  0  0  0  0  0
   -1.3000   -1.5000    0.0000 C   0  0  0  0  0  0  0  0  0  0  0  0
   -2.6000   -0.7500    0.0000 C   0  0  0  0  0  0  0  0  0  0  0  0
    1.3000   -3.0000    0.0000 C   0  0  0  0  0  0  0  0  0  0  0  0
    0.0000   -0.7500    0.0000 C   0  0  0  0  0  0  0  0  0  0  0  0
    2.5969   -3.7482    0.0000 C   0  0  0  0  0  0  0  0  0  0  0  0
    0.0000    0.7500    0.0000 C   0  0  0  0  0  0  0  0  0  0  0  0
    1.3000   -1.5000    0.0000 C   0  0  0  0  0  0  0  0  0  0  0  0
    2.6000    0.7500    0.0000 C   0  0  0  0  0  0  0  0  0  0  0  0
   -3.8989   -1.5002    0.0000 Cl  0  0  0  0  0  0  0  0  0  0  0  0
    3.8924   -2.9921    0.0000 Cl  0  0  0  0  0  0  0  0  0  0  0  0
    1.3000    1.5000    0.0000 N   0  0  0  0  0  0  0  0  0  0  0  0
    2.6000   -0.7500    0.0000 N   0  0  0  0  0  0  0  0  0  0  0  0
    3.8989    1.5002    0.0000 O   0  0  0  0  0  0  0  0  0  0  0  0
  2  1  2  0
  3  1  1  0
  4  2  1  0
  6  5  2  0
  8  5  1  0
  8  7  2  0
  9  3  2  0
 10  7  1  0
 11  4  2  0
 11  9  1  0
 12  6  1  0
 12 10  2  0
 13  9  1  0
 13 10  1  0
 15  8  1  0
 16 11  1  0
 17 12  1  0
 17 14  2  0
 18 13  2  0
 18 14  1  0
 19 14  1  0
M  END
>  <NAME>  (4508) 
6-CHLORO-4-(ORTHO-CHLOROPHENYL)-2(1H)-QUINAZOLINONE

>  <SYNONYMS>  (4508) 


>  <SPECTRUM TYPE>  (4508) 
MS1

>  <INSTRUMENT TYPE>  (4508) 
EI-B

>  <INSTRUMENT>  (4508) 
HITACHI RMU-6E

>  <ION MODE>  (4508) 
P

>  <INCHIKEY>  (4508) 
FIKXZQLWVRAQOA-UHFFFAOYSA-N

>  <FORMULA>  (4508) 
C14H8Cl2N2O

>  <EXACT MASS>  (4508) 
290.00136823599996

>  <MW>  (4508) 
290

>  <ID>  (4508) 
JP004074

>  <CONTRIBUTOR>  (4508) 
University of Tokyo Team, {Faculty of Engineering, University of Tokyo

>  <COMMENT>  (4508) 
SMILES=Clc(c3)cc(c(c3)2)C(=NC(=O)N2)c(c1)c(Cl)ccc1
InChI=InChI=1S/C14H8Cl2N2O/c15-8-5-6-12-10(7-8)13(18-14(19)17-12)9-3-1-2-4-11(9)16/h1-7H,(H,17,18,19)
computed SMILES=ClC=1C=CC2=NC(O)=NC(C=3C=CC=CC3Cl)=C2C1
accession=JP004074
date=2016.01.19 (Created 2008.10.21, modified 2011.05.06)
author=YAMAMOTO M, DEP. CHEMISTRY, FAC. SCIENCE, NARA WOMEN'S UNIV.
license=CC BY-NC-SA
exact mass=290.00137
ionization energy=70 eV
ion type=[M]+*
computed spectral entropy=4.143023365719915
computed normalized entropy=0.8359903034480056
SPLASH=splash10-052f-4490000000-e3b222d74488f17f061d
submitter=submitter = University of Tokyo Team (Faculty of Engineering, University of Tokyo)
MoNA Rating=3.75

>  <NUM PEAKS>  (4508) 
142

>  <MASS SPECTRAL PEAKS>  (4508) 
32 2.5
36 5.1
37 2.1
38 5.1
39 9.3
41 5.2
43 4.2
44 0.18
49 2.6
50 15.6
51 15.9
52 0.5
55 3.7
56 1.7
57 4.7
61 0.4
62 10.7
63 18.6
64 6.7
65 0.36
67 1.6
68 1.8
68.5 1.8
69 0.32
69.5 1.4
70 1.7
71 2.5
72 0.15
73 7
74 12.3
74.5 1.6
75 3.9
76 10.7
77 8
78 1.8
81 0.2
81.5 3.2
82 6
82.5 10
83 0.27
84 2
85 4.7
86 3.8
86.5 0.16
87 5.9
87.5 1.5
88 8
88.5 0.2
89 5.4
90 5
91 2.3
93 0.24
95 3.6
95.5 7.2
96 9.6
96.5 0.32
97 2.9
98 5
99 6.5
99.5 0.77
100 11.9
100.5 3.7
101 4.7
102 2.27
103 2.7
105 1.6
106 1.7
109 0.24
110 5.2
111 10.4
112 5.4
112.5 0.13
113 15
114 7.9
115 3.7
116 0.23
117 1.3
118 1.8
119 1.5
123 0.24
124 14.6
125 5.3
126 5.9
127 2.12
128 7.8
129 1.9
137 3.2
138 1.92
139 3.8
140 6.5
141 3.9
144 0.29
149 4.4
150 5.9
151 10.3
152 0.25
153 3.4
163 4.2
164 14.1
165 0.78
175 3
176 3.7
177 11.9
178 0.43
179 8.1
181 3
186 3.2
191 0.9
192 18.1
193 5
200 4.3
213 0.47
220 9.9
221 2.3
225 2.2
226 0.65
227 5.2
228 2.9
237 3.9
248 5.44
249 8.5
250 35.8
251 5.3
252 6.4
253 1.4
254 6.4
255 91.3
256 1.71
257 30.7
258 5.2
262 17.7
263 0.31
264 11.5
265 1.9
266 2.2
289 5.31
290 99.99
291 48.6
292 63.5
293 1.58
294 11.5
295 2

>  <PREDICTED SPECTRUM>  (4508) 
35 5
36 11
37 55
38 82
39 104
40 53
41 109
42 24
43 99
44 122
47 17
49 126
50 359
51 336
52 184
53 21
55 76
56 75
57 87
58 10
60 60
61 272
62 330
63 353
64 200
65 1
68 41
69 129
70 17
71 45
72 120
73 288
74 354
75 576
76 427
77 250
78 17
81 76
82 124
83 25
84 148
85 198
86 208
87 296
88 325
89 232
90 125
91 38
92 17
94 52
95 11
96 148
97 181
98 156
99 245
100 334
101 287
102 398
103 84
104 46
105 34
106 71
107 31
108 48
109 186
110 274
111 302
112 182
113 306
114 260
115 112
116 101
118 22
119 8
120 8
121 25
122 58
123 259
124 273
125 289
126 296
127 160
128 86
129 27
130 3
131 38
132 2
133 101
134 40
136 202
137 316
138 343
139 220
140 174
145 17
146 41
147 147
148 144
149 170
150 189
151 317
152 144
153 151
154 19
158 20
160 16
162 124
163 332
164 253
165 61
166 79
167 28
172 77
173 30
174 220
175 140
176 298
177 278
178 57
184 1
186 70
187 6
188 25
189 51
190 70
191 178
192 226
193 46
199 121
200 265
201 139
202 175
203 65
212 70
213 59
214 89
220 9
224 13
225 84
226 229
227 496
228 373
229 338
230 134
234 11
235 85
236 26
237 79
238 40
239 53
246 1
247 51
248 150
249 78
250 111
251 15
252 4
253 8
255 689
256 263
257 509
258 174
261 105
262 438
263 245
264 360
265 160
266 106
273 11
275 105
276 39
277 103
278 31
289 348
290 999
291 505
292 755
293 350
294 357
295 115

$$$$

     RDKit          2D

 20 22  0  0  0  0  0  0  0  0999 V2000
   -0.5568   -3.1525    0.0000 C   0  0  0  0  0  0  0  0  0  0  0  0
    0.1096    6.0776    0.0000 C   0  0  0  0  0  0  0  0  0  0  0  0
   -1.3245    5.6351    0.0000 C   0  0  0  0  0  0  0  0  0  0  0  0
    1.2106    5.0575    0.0000 C   0  0  0  0  0  0  0  0  0  0  0  0
   -1.6577    4.1726    0.0000 C   0  0  0  0  0  0  0  0  0  0  0  0
    0.8773    3.5950    0.0000 C   0  0  0  0  0  0  0  0  0  0  0  0
    2.8800   -0.7500    0.0000 C   0  0  0  0  0  0  0  0  0  0  0  0
    1.5800   -1.5000    0.0000 C   0  0  0  0  0  0  0  0  0  0  0  0
    1.5800    1.5000    0.0000 C   0  0  0  0  0  0  0  0  0  0  0  0
   -3.0000    0.0000    0.0000 C   0  0  0  0  0  0  0  0  0  0  0  0
   -0.5568    3.1525    0.0000 C   0  0  0  0  0  0  0  0  0  0  0  0
    2.8800    0.7500    0.0000 C   0  0  0  0  0  0  0  0  0  0  0  0
    0.2800    0.7500    0.0000 C   0  0  0  0  0  0  0  0  0  0  0  0
    0.2800   -0.7500    0.0000 C   0  0  0  0  0  0  0  0  0  0  0  0
   -2.3500   -1.3500    0.0000 C   0  0  0  0  0  0  0  0  0  0  0  0
   -0.8900    1.6900    0.0000 C   0  0  0  0  0  0  0  0  0  0  0  0
    4.1789    1.5002    0.0000 Cl  0  0  0  0  0  0  0  0  0  0  0  0
   -2.3500    1.3500    0.0000 N   0  0  0  0  0  0  0  0  0  0  0  0
   -0.8900   -1.6900    0.0000 N   0  0  0  0  0  0  0  0  0  0  0  0
   -3.2879   -2.5207    0.0000 O   0  0  0  0  0  0  0  0  0  0  0  0
  3  2  2  0
  4  2  1  0
  5  3  1  0
  6  4  2  0
  8  7  2  0
 11  5  2  0
 11  6  1  0
 12  7  1  0
 12  9  2  0
 13  9  1  0
 14  8  1  0
 14 13  2  0
 15 10  1  0
 16 11  1  0
 16 13  1  0
 17 12  1  0
 18 10  1  0
 18 16  2  0
 19  1  1  0
 19 14  1  0
 19 15  1  0
 20 15  2  0
M  END
>  <NAME>  (4509) 
DIAZEPAM

>  <SYNONYMS>  (4509) 


>  <SPECTRUM TYPE>  (4509) 
MS1

>  <INSTRUMENT TYPE>  (4509) 
EI-B

>  <INSTRUMENT>  (4509) 
HITACHI RMU-6E

>  <ION MODE>  (4509) 
P

>  <INCHIKEY>  (4509) 
AAOVKJBEBIDNHE-UHFFFAOYSA-N

>  <FORMULA>  (4509) 
C16H13ClN2O

>  <EXACT MASS>  (4509) 
284.071640716

>  <MW>  (4509) 
284

>  <ID>  (4509) 
JP004073

>  <CONTRIBUTOR>  (4509) 
University of Tokyo Team, {Faculty of Engineering, University of Tokyo

>  <COMMENT>  (4509) 
SMILES=Clc(c2)cc(C=1c(c3)cccc3)c(c2)N(C)C(=O)CN1
InChI=InChI=1S/C16H13ClN2O/c1-19-14-8-7-12(17)9-13(14)16(18-10-15(19)20)11-5-3-2-4-6-11/h2-9H,10H2,1H3
computed SMILES=O=C1N(C=2C=CC(Cl)=CC2C(=NC1)C=3C=CC=CC3)C
accession=JP004073
date=2016.01.19 (Created 2008.10.21, modified 2011.05.06)
author=YAMAMOTO M, DEP. CHEMISTRY, FAC. SCIENCE, NARA WOMEN'S UNIV.
license=CC BY-NC-SA
exact mass=284.07164
ionization energy=70 eV
ion type=[M]+*
computed spectral entropy=3.7980166675657077
computed normalized entropy=0.7802752515105934
SPLASH=splash10-0a59-1290000000-da27f63bddb3263e0063
submitter=submitter = University of Tokyo Team (Faculty of Engineering, University of Tokyo)
MoNA Rating=3.75

>  <NUM PEAKS>  (4509) 
130

>  <MASS SPECTRAL PEAKS>  (4509) 
31 1.6
39 4.2
41 1.3
42 3.4
50 3.4
51 8.9
52 2
62 0.23
63 7.5
64 1.5
65 4.3
73 0.18
74 2.7
75 7.5
76 6.5
77 1.48
81 1.9
81.5 3.1
82 3.5
82.5 0.29
83.5 2.7
86 1.3
87 2.4
88 0.25
88.5 1.6
89 10.4
90 3.8
91 0.75
95.5 4.8
96 2.1
96.5 4.7
97 0.18
98 1.4
99 2.7
101 1.9
102 0.43
102.5 1.9
103 3.4
104 1.6
109 0.26
109.5 3.4
110 11.7
110.5 5.3
111 0.55
112 1.8
113 2.9
114 3.4
115 0.24
116 4.8
117 8.2
118 2.5
120 0.15
123 1.6
124 3.6
125 7.7
126 0.42
127 6.7
128 4.1
129 1.4
136 0.18
137 2.2
138 2.9
139 2.5
140 0.2
142 1.5
149 1.5
150 5.3
151 0.78
152 9.2
153 2.2
163 7
164 0.57
165 14.3
166 3.5
167 1.3
176 0.18
177 9.1
178 5.6
179 3.9
180 0.27
190 3
191 3
192 4.7
193 0.75
194 2.5
199 2.2
203 1.5
204 0.17
205 6.6
206 2.8
213 3.3
214 0.17
215 1.7
219 4.6
220 2.5
221 2.79
222 7.6
223 3
227 2.3
228 0.83
229 2.1
230 3.1
233 1.4
238 0.34
239 6.6
240 3.3
241 9.1
242 0.33
243 3.3
244 1.4
248 5.2
249 0.66
250 1.5
253 1.4
255 36
256 99.99
257 42.1
258 38
259 11
260 0.15
268 3.6
269 1.5
270 1.7
271 1.9
282 2.3
283 88.7
284 80
285 4.3
286 27.7
287 5.2

>  <PREDICTED SPECTRUM>  (4509) 
27 17
28 10
38 2
39 78
40 22
41 72
42 43
43 128
44 24
45 25
49 50
50 183
51 345
52 153
53 33
54 36
55 96
56 65
57 117
58 22
61 69
62 151
63 293
64 108
65 140
66 34
67 52
69 138
70 30
71 37
73 124
74 161
75 278
76 241
77 513
78 201
79 58
80 3
81 148
82 263
83 162
84 72
85 62
86 37
87 117
88 126
89 386
90 235
91 276
92 86
93 48
94 29
95 100
96 160
97 100
98 68
99 100
100 81
101 86
102 174
103 195
104 218
105 144
106 67
107 6
109 134
110 314
111 217
112 43
113 88
114 42
115 109
116 163
117 254
118 162
119 82
120 28
121 29
122 2
123 87
124 111
125 186
126 181
127 132
128 37
130 24
131 66
132 69
133 14
134 44
136 55
137 77
138 148
139 152
140 87
141 32
142 37
143 40
144 26
145 74
146 36
147 38
149 98
150 109
151 230
152 263
153 134
154 73
155 25
159 5
162 35
163 296
164 207
165 416
166 243
167 50
169 39
170 8
171 63
176 122
177 254
178 232
179 225
180 114
181 78
185 7
188 15
190 43
191 0
192 78
193 249
194 132
199 12
200 0
201 23
203 41
204 52
205 259
206 158
207 96
212 41
213 84
214 144
215 55
216 58
217 30
218 43
219 98
220 174
221 312
222 149
223 97
224 20
225 54
226 91
227 165
228 225
229 198
230 139
231 26
238 47
239 186
240 172
241 463
242 214
243 200
244 57
248 145
249 184
250 80
253 47
254 78
255 656
256 907
257 594
258 602
259 287
260 118
265 24
267 7
268 13
282 106
283 999
284 803
285 713
286 501
287 247
288 67

$$$$

     RDKit          2D

 20 22  0  0  0  0  0  0  0  0999 V2000
    0.1096    6.0776    0.0000 C   0  0  0  0  0  0  0  0  0  0  0  0
   -1.3245    5.6351    0.0000 C   0  0  0  0  0  0  0  0  0  0  0  0
    1.2106    5.0575    0.0000 C   0  0  0  0  0  0  0  0  0  0  0  0
   -1.6577    4.1726    0.0000 C   0  0  0  0  0  0  0  0  0  0  0  0
    0.8773    3.5950    0.0000 C   0  0  0  0  0  0  0  0  0  0  0  0
    2.8800   -0.7500    0.0000 C   0  0  0  0  0  0  0  0  0  0  0  0
    1.5800   -1.5000    0.0000 C   0  0  0  0  0  0  0  0  0  0  0  0
    1.5800    1.5000    0.0000 C   0  0  0  0  0  0  0  0  0  0  0  0
   -0.5568    3.1525    0.0000 C   0  0  0  0  0  0  0  0  0  0  0  0
    2.8800    0.7500    0.0000 C   0  0  0  0  0  0  0  0  0  0  0  0
    0.2800    0.7500    0.0000 C   0  0  0  0  0  0  0  0  0  0  0  0
    0.2800   -0.7500    0.0000 C   0  0  0  0  0  0  0  0  0  0  0  0
   -0.8900    1.6900    0.0000 C   0  0  0  0  0  0  0  0  0  0  0  0
   -2.3500   -1.3500    0.0000 C   0  0  0  0  0  0  0  0  0  0  0  0
   -3.0000    0.0000    0.0000 C   0  0  0  0  0  0  0  0  0  0  0  0
    4.1789    1.5002    0.0000 Cl  0  0  0  0  0  0  0  0  0  0  0  0
   -0.8900   -1.6900    0.0000 N   0  0  0  0  0  0  0  0  0  0  0  0
   -2.3500    1.3500    0.0000 N   0  0  0  0  0  0  0  0  0  0  0  0
   -3.2879   -2.5207    0.0000 O   0  0  0  0  0  0  0  0  0  0  0  0
   -4.5000    0.0000    0.0000 O   0  0  0  0  0  0  0  0  0  0  0  0
  2  1  2  0
  3  1  1  0
  4  2  1  0
  5  3  2  0
  7  6  2  0
  9  4  2  0
  9  5  1  0
 10  6  1  0
 10  8  2  0
 11  8  1  0
 12  7  1  0
 12 11  2  0
 13  9  1  0
 13 11  1  0
 15 14  1  0
 16 10  1  0
 17 12  1  0
 17 14  2  0
 18 13  2  0
 18 15  1  0
 19 14  1  0
 20 15  1  0
M  END
>  <NAME>  (4510) 
OXAZEPAM

>  <SYNONYMS>  (4510) 


>  <SPECTRUM TYPE>  (4510) 
MS1

>  <INSTRUMENT TYPE>  (4510) 
EI-B

>  <INSTRUMENT>  (4510) 
HITACHI RMU-6E

>  <ION MODE>  (4510) 
P

>  <INCHIKEY>  (4510) 
ADIMAYPTOBDMTL-UHFFFAOYSA-N

>  <FORMULA>  (4510) 
C15H11ClN2O2

>  <EXACT MASS>  (4510) 
286.050905272

>  <MW>  (4510) 
286

>  <ID>  (4510) 
JP004072

>  <CONTRIBUTOR>  (4510) 
University of Tokyo Team, {Faculty of Engineering, University of Tokyo

>  <COMMENT>  (4510) 
SMILES=Clc(c3)cc(c(c3)2)C(=NC(O)C(=O)N2)c(c1)cccc1
InChI=InChI=1S/C15H11ClN2O2/c16-10-6-7-12-11(8-10)13(9-4-2-1-3-5-9)18-15(20)14(19)17-12/h1-8,15,20H,(H,17,19)
computed SMILES=ClC=1C=CC=2N=C(O)C(O)N=C(C=3C=CC=CC3)C2C1
accession=JP004072
date=2016.01.19 (Created 2008.10.21, modified 2011.05.06)
author=YAMAMOTO M, DEP. CHEMISTRY, FAC. SCIENCE, NARA WOMEN'S UNIV.
license=CC BY-NC-SA
exact mass=286.05091
ionization energy=70 eV
ion type=[M]+*
computed spectral entropy=4.240585912465062
computed normalized entropy=0.814869420324879
SPLASH=splash10-0pxr-6490000000-98a9035e85eeea7c02e5
submitter=submitter = University of Tokyo Team (Faculty of Engineering, University of Tokyo)
MoNA Rating=3.75

>  <NUM PEAKS>  (4510) 
182

>  <MASS SPECTRAL PEAKS>  (4510) 
30 1.4
31 18.5
36 4
38 2.1
39 10.4
40 2
41 8.8
42 0.68
43 15.6
44 2.2
45 12.7
49 0.22
50 14.8
51 46.5
52 7.6
55 0.25
56 1.5
57 3
59 8.4
61 0.3
62 5.6
63 12.7
64 3.4
65 0.4
66 2.2
69 1.4
69.5 1.6
70 0.19
71 2.7
72 2.4
73 2.7
74 1.03
74.5 1.3
75 31.2
75.5 7.1
76 1.99
76.5 1.7
77 99.99
78 12.9
79 0.33
81 1.5
81.5 1.5
82.5 1.6
83 0.17
83.5 6.5
84 2.2
86 2.5
87 0.39
88 5.5
88.5 9.4
89 12.3
89.5 0.4
90 5.5
91 2.9
92 2.4
93 0.27
94 1.5
96 1.5
96.5 2.1
97 0.37
97.5 3.4
98 3.4
99 6.9
100 1.21
101 5.3
101.5 2.1
102 16.2
102.5 1.05
103 5.4
104 29
105 6.2
106 0.19
106.5 1.7
107 2
109 1.3
110 0.88
111 7.6
111.5 1.9
112 3.9
113 0.24
114 1.9
114.5 3.2
115 2.1
116 0.15
117 1.8
118 2.2
119.5 2.3
120 0.4
121 1.8
123 1.9
124 3.5
125 0.35
126 6.3
127 5.3
128 2.2
129 0.25
130 1.3
134 2
135 1.3
136 0.6
137 3.7
138 3.9
139 3.3
140 0.24
141 2.4
149 6.5
150 10.5
151 2.02
152 9.1
153 4.3
154 1.7
155 0.14
162 1.3
163 6.6
164 2.9
165 0.32
166 3.4
167 2.4
168 1
174 0.11
175 3.4
176 11.4
177 21
178 11.8
179 9.4
180 2.4
181 4.9
182 0.11
183 1.1
185 1
186 2
187 0.11
192 2
193 2.5
194 6.5
195 0.21
199 1.5
202 3.1
203 8.3
204 0.96
205 62.2
206 11.6
207 3.8
208 0.11
211 1.5
212 1.8
213 4.4
214 0.76
215 2.7
216 3.4
221 1.5
223 0.16
228 1.8
229 16.4
230 4.8
231 0.57
232 1.7
233 53
234 9.7
235 0.14
238 1.8
239 54
240 26.9
241 3.72
242 15.6
243 8
244 3.2
255 0.23
256 1.6
257 86
258 16.2
259 2.79
260 5.2
267 47.5
268 67.4
269 2.78
270 24.1
271 4.6
285 4.8
286 1.3
287 4.5
288 4.5

>  <PREDICTED SPECTRUM>  (4510) 
41 13
42 98
44 140
45 7
49 36
50 259
51 580
52 211
53 18
54 7
55 61
56 13
57 98
58 79
62 156
63 291
64 34
65 97
68 15
69 25
71 9
73 119
74 257
75 550
76 336
77 887
78 293
82 84
83 47
84 118
86 95
87 24
88 0
89 46
90 117
95 72
96 42
97 56
98 80
99 64
100 9
101 57
102 374
104 291
105 27
106 29
110 242
111 249
112 53
113 251
114 44
115 12
117 14
120 5
123 51
124 17
127 94
128 70
137 49
138 154
139 216
140 341
141 167
142 24
149 164
150 64
151 374
152 150
153 64
163 81
164 187
166 121
177 139
178 257
179 284
180 127
193 77
194 73
205 338
206 419
207 394
208 195
212 45
214 71
216 90
220 72
221 359
222 320
229 52
230 150
231 49
232 34
233 514
234 266
239 560
240 107
241 546
242 569
243 292
244 142
250 41
251 20
256 25
257 502
258 39
259 272
267 230
268 566
269 625
270 615
271 293
272 147
285 980
286 999
287 569
288 702
289 82

$$$$

     RDKit          2D

 17 18  0  0  0  0  0  0  0  0999 V2000
    1.2990   -3.0002    0.0000 C   0  0  0  0  0  0  0  0  0  0  0  0
   -2.5987   -0.7492    0.0000 C   0  0  0  0  0  0  0  0  0  0  0  0
   -1.2993   -1.5002    0.0000 C   0  0  0  0  0  0  0  0  0  0  0  0
   -2.5989    0.7517    0.0000 C   0  0  0  0  0  0  0  0  0  0  0  0
   -0.0001   -0.7504    0.0000 C   0  0  0  0  0  0  0  0  0  0  0  0
   -1.2998    1.5015    0.0000 C   0  0  0  0  0  0  0  0  0  0  0  0
    5.1977   -0.7500    0.0000 C   0  0  0  0  0  0  0  0  0  0  0  0
    3.8977   -1.5000    0.0000 C   0  0  0  0  0  0  0  0  0  0  0  0
    3.8977    1.5000    0.0000 C   0  0  0  0  0  0  0  0  0  0  0  0
   -0.0004    0.7504    0.0000 C   0  0  0  0  0  0  0  0  0  0  0  0
    5.1977    0.7500    0.0000 C   0  0  0  0  0  0  0  0  0  0  0  0
    2.5977    0.7500    0.0000 C   0  0  0  0  0  0  0  0  0  0  0  0
    2.5977   -0.7500    0.0000 C   0  0  0  0  0  0  0  0  0  0  0  0
    1.2988    1.5002    0.0000 C   0  0  0  0  0  0  0  0  0  0  0  0
    6.4966    1.5002    0.0000 Cl  0  0  0  0  0  0  0  0  0  0  0  0
    1.2988   -1.5002    0.0000 N   0  0  0  0  0  0  0  0  0  0  0  0
    1.2990    3.0002    0.0000 O   0  0  0  0  0  0  0  0  0  0  0  0
  3  2  2  0
  4  2  1  0
  5  3  1  0
  6  4  2  0
  8  7  2  0
 10  5  2  0
 10  6  1  0
 11  7  1  0
 11  9  2  0
 12  9  1  0
 13  8  1  0
 13 12  2  0
 14 10  1  0
 14 12  1  0
 15 11  1  0
 16  1  1  0
 16 13  1  0
 17 14  2  0
M  END
>  <NAME>  (4511) 
5-CHLORO-2-METHYLAMINOBENZOPHENONE

>  <SYNONYMS>  (4511) 


>  <SPECTRUM TYPE>  (4511) 
MS1

>  <INSTRUMENT TYPE>  (4511) 
EI-B

>  <INSTRUMENT>  (4511) 
HITACHI RMU-6E

>  <ION MODE>  (4511) 
P

>  <INCHIKEY>  (4511) 
WPNMLCMTDCANOZ-UHFFFAOYSA-N

>  <FORMULA>  (4511) 
C14H12ClNO

>  <EXACT MASS>  (4511) 
245.060741684

>  <MW>  (4511) 
245

>  <ID>  (4511) 
JP004071

>  <CONTRIBUTOR>  (4511) 
University of Tokyo Team, {Faculty of Engineering, University of Tokyo

>  <COMMENT>  (4511) 
SMILES=CNc(c2)c(cc(Cl)c2)C(=O)c(c1)cccc1
InChI=InChI=1S/C14H12ClNO/c1-16-13-8-7-11(15)9-12(13)14(17)10-5-3-2-4-6-10/h2-9,16H,1H3
computed SMILES=O=C(C=1C=CC=CC1)C2=CC(Cl)=CC=C2NC
accession=JP004071
date=2016.01.19 (Created 2008.10.21, modified 2011.05.06)
author=YAMAMOTO M, DEP. CHEMISTRY, FAC. SCIENCE, NARA WOMEN'S UNIV.
license=CC BY-NC-SA
exact mass=245.06074
ionization energy=70 eV
ion type=[M]+*
computed spectral entropy=3.4769171943264796
computed normalized entropy=0.7670912022071565
SPLASH=splash10-002e-5790000000-1b4cf5add6d5cb7d8991
submitter=submitter = University of Tokyo Team (Faculty of Engineering, University of Tokyo)
MoNA Rating=3.75

>  <NUM PEAKS>  (4511) 
93

>  <MASS SPECTRAL PEAKS>  (4511) 
30 3.8
39 2.6
50 4.9
51 17
52 3.1
62 2.5
63 7.8
64 0.17
65 1.7
73 1.5
74 2.9
75 1.25
76 7.8
77 72.9
78 7.6
79 0.16
87 1.4
89 2.9
90 3.9
90.5 0.56
91 11.4
92 1.4
98 2.6
99 0.22
101 1.5
102 2.7
103 1.1
104 0.58
105 34.4
105.5 1.6
106 2.9
111 1.05
112 5.5
113 5.5
114 2.7
115 0.2
122 0.9
122.5 2.4
123 1.2
124 0.12
125 6.9
126 2.5
127 2.5
128 0.1
132 1.8
133 12.3
134 1.8
138 0.53
139 5.9
140 9.3
141 2.6
142 0.24
150 5.3
151 3.8
152 7.5
153 0.31
154 1.7
164 1.7
165 7
166 0.84
167 5.5
168 22.8
169 3
170 0.62
180 3.8
181 4.8
182 1.6
191 0.12
192 2.9
193 35.1
194 8.7
195 0.37
199 1.1
201 2.1
202 1.5
208 0.21
209 7.8
210 4.6
211 2.2
214 0.29
215 1.6
216 3.1
227 3.2
228 4.32
229 11.4
230 18.1
231 4.2
232 0.15
244 77.8
245 99.99
246 39.8
247 3.35
248 5.2

>  <PREDICTED SPECTRUM>  (4511) 
14 2
15 22
16 0
17 15
18 5
27 8
28 19
30 5
36 46
38 35
39 99
40 25
41 58
42 76
43 128
44 84
45 10
49 56
50 235
51 465
52 181
53 56
54 13
55 54
56 23
57 49
58 29
61 27
62 110
63 235
64 113
65 83
66 15
67 2
69 54
70 41
71 2
72 44
73 76
74 132
75 247
76 238
77 835
78 276
79 96
80 6
81 2
82 51
83 92
84 64
85 60
86 99
87 71
88 87
89 227
90 186
91 173
92 31
96 30
97 69
98 97
99 132
100 87
101 52
102 82
103 36
104 194
105 636
106 180
107 6
110 61
111 139
112 84
113 137
114 77
115 77
116 73
117 82
118 59
119 44
123 4
124 49
125 160
126 111
127 104
128 43
129 12
130 2
132 83
133 87
135 8
138 64
139 242
140 279
141 142
142 76
149 210
150 173
151 234
152 328
153 185
154 49
163 45
164 54
165 218
166 294
167 258
168 596
169 250
170 204
177 6
178 51
179 50
180 109
181 118
182 69
192 114
193 203
194 175
195 102
196 24
199 0
201 107
202 60
203 86
204 19
205 7
206 0
208 61
209 123
210 166
211 86
213 88
214 62
215 193
216 108
217 53
226 1
227 23
228 485
229 347
230 462
231 271
232 202
233 45
243 12
244 697
245 999
246 637
247 629
248 245

$$$$

     RDKit          2D

 15 16  0  0  0  0  0  0  0  0999 V2000
   -2.5200    0.5000    0.0000 C   0  0  0  0  0  0  0  0  0  0  0  0
   -2.5300   -1.0000    0.0000 C   0  0  0  0  0  0  0  0  0  0  0  0
    3.4366    2.6719    0.0000 C   0  0  0  0  0  0  0  0  0  0  0  0
    1.9684    2.3650    0.0000 C   0  0  0  0  0  0  0  0  0  0  0  0
   -1.2200    1.2400    0.0000 C   0  0  0  0  0  0  0  0  0  0  0  0
   -1.2300   -1.7600    0.0000 C   0  0  0  0  0  0  0  0  0  0  0  0
    3.9050    4.0969    0.0000 C   0  0  0  0  0  0  0  0  0  0  0  0
    2.3800   -0.2700    0.0000 C   0  0  0  0  0  0  0  0  0  0  0  0
    1.5000    0.9400    0.0000 C   0  0  0  0  0  0  0  0  0  0  0  0
    0.0800    0.4900    0.0000 C   0  0  0  0  0  0  0  0  0  0  0  0
    0.0700   -1.0100    0.0000 C   0  0  0  0  0  0  0  0  0  0  0  0
    5.3733    4.4038    0.0000 C   0  0  0  0  0  0  0  0  0  0  0  0
    1.5000   -1.4800    0.0000 N   0  0  0  0  0  0  0  0  0  0  0  0
    6.3732    3.2857    0.0000 O   0  0  0  0  0  0  0  0  0  0  0  0
    5.8416    5.8288    0.0000 O   0  0  0  0  0  0  0  0  0  0  0  0
  2  1  2  0
  4  3  1  0
  5  1  1  0
  6  2  1  0
  7  3  1  0
  9  4  1  0
  9  8  2  0
 10  5  2  0
 10  9  1  0
 11  6  2  0
 11 10  1  0
 12  7  1  0
 13  8  1  0
 13 11  1  0
 14 12  2  0
 15 12  1  0
M  END
>  <NAME>  (4512) 
3-INDOLEBUTYRIC ACID

>  <SYNONYMS>  (4512) 


>  <SPECTRUM TYPE>  (4512) 
MS1

>  <INSTRUMENT TYPE>  (4512) 
EI-B

>  <INSTRUMENT>  (4512) 
HITACHI M-68

>  <ION MODE>  (4512) 
P

>  <INCHIKEY>  (4512) 
JTEDVYBZBROSJT-UHFFFAOYSA-N

>  <FORMULA>  (4512) 
C12H13NO2

>  <EXACT MASS>  (4512) 
203.094628656

>  <MW>  (4512) 
203

>  <ID>  (4512) 
JP004070

>  <CONTRIBUTOR>  (4512) 
University of Tokyo Team, {Faculty of Engineering, University of Tokyo

>  <COMMENT>  (4512) 
SMILES=C1=CC=C2C(=C1)C(=CN2)CCCC(=O)O
InChI=InChI=1S/C12H13NO2/c14-12(15)7-3-4-9-8-13-11-6-2-1-5-10(9)11/h1-2,5-6,8,13H,3-4,7H2,(H,14,15)
computed SMILES=O=C(O)CCCC1=CNC=2C=CC=CC21
accession=JP004070
date=2016.01.19 (Created 2008.10.21, modified 2011.05.06)
author=YAMAMOTO M, DEP. CHEMISTRY, FAC. SCIENCE, NARA WOMEN'S UNIV.
license=CC BY-NC-SA
exact mass=203.09463
ionization energy=70 eV
ion type=[M]+*
computed spectral entropy=1.8926628236965612
computed normalized entropy=0.6036250406973572
SPLASH=splash10-001i-0920000000-a53e6a97ea38d50751b7
submitter=submitter = University of Tokyo Team (Faculty of Engineering, University of Tokyo)
MoNA Rating=3.75

>  <NUM PEAKS>  (4512) 
23

>  <MASS SPECTRAL PEAKS>  (4512) 
39 1
45 2.8
51 1.1
63 1
76 1
77 6.5
89 1.3
102 0.39
103 6.2
104 0.9
115 3.4
116 0.1
117 2.2
128 3.4
129 4.8
130 99.99
131 11.7
142 2
143 10.5
144 0.32
156 2.4
203 30
204 4.2

>  <PREDICTED SPECTRUM>  (4512) 
14 2
16 11
17 21
18 21
19 7
25 1
26 23
27 93
28 41
29 71
31 51
33 3
37 4
38 25
39 116
40 33
41 135
42 124
43 139
44 148
45 107
46 20
49 20
50 123
51 190
52 102
53 64
54 13
55 83
56 23
57 51
58 13
59 32
60 118
61 40
62 92
63 157
64 77
65 128
66 30
67 20
69 80
70 53
71 102
72 59
73 55
74 60
75 126
76 117
77 305
78 134
79 48
80 37
81 30
83 1
84 29
85 51
86 61
87 49
88 10
89 149
90 116
91 137
92 10
95 54
96 43
97 33
98 14
99 33
101 74
102 198
103 224
104 102
105 35
107 14
113 69
114 50
115 326
116 246
117 323
118 220
119 23
122 5
126 12
127 137
128 248
129 216
130 999
131 439
132 66
135 9
141 71
142 209
143 505
144 338
145 137
146 72
149 5
152 8
153 1
154 77
155 119
156 132
157 139
158 118
159 46
172 77
174 32
184 68
186 108
187 37
199 2
200 68
201 97
202 72
203 725
204 307
205 95

$$$$

     RDKit          2D

 13 12  0  0  0  0  0  0  0  0999 V2000
   -9.7428    5.6250    0.0000 C   0  0  0  0  0  0  0  0  0  0  0  0
    3.2476    5.6250    0.0000 C   0  0  0  0  0  0  0  0  0  0  0  0
   -3.2476    4.8750    0.0000 C   0  0  0  0  0  0  0  0  0  0  0  0
   -4.5466    5.6250    0.0000 C   0  0  0  0  0  0  0  0  0  0  0  0
   -1.9486    5.6250    0.0000 C   0  0  0  0  0  0  0  0  0  0  0  0
   -5.8457    4.8750    0.0000 C   0  0  0  0  0  0  0  0  0  0  0  0
   -0.6495    4.8750    0.0000 C   0  0  0  0  0  0  0  0  0  0  0  0
   -7.1447    5.6250    0.0000 C   0  0  0  0  0  0  0  0  0  0  0  0
    0.6495    5.6250    0.0000 C   0  0  0  0  0  0  0  0  0  0  0  0
   -7.1447    7.1250    0.0000 O   0  0  0  0  0  0  0  0  0  0  0  0
    0.6495    7.1250    0.0000 O   0  0  0  0  0  0  0  0  0  0  0  0
   -8.4437    4.8750    0.0000 O   0  0  0  0  0  0  0  0  0  0  0  0
    1.9486    4.8750    0.0000 O   0  0  0  0  0  0  0  0  0  0  0  0
  4  3  1  0
  5  3  1  0
  6  4  1  0
  7  5  1  0
  8  6  1  0
  9  7  1  0
 10  8  2  0
 11  9  2  0
 12  1  1  0
 12  8  1  0
 13  2  1  0
 13  9  1  0
M  END
>  <NAME>  (4513) 
DIMETHYL PIMELATE

>  <SYNONYMS>  (4513) 


>  <SPECTRUM TYPE>  (4513) 
MS1

>  <INSTRUMENT TYPE>  (4513) 
EI-B

>  <INSTRUMENT>  (4513) 
HITACHI RMU-6L

>  <ION MODE>  (4513) 
P

>  <INCHIKEY>  (4513) 
SHWINQXIGSEZAP-UHFFFAOYSA-N

>  <FORMULA>  (4513) 
C9H16O4

>  <EXACT MASS>  (4513) 
188.104858992

>  <MW>  (4513) 
188

>  <ID>  (4513) 
JP004067

>  <CONTRIBUTOR>  (4513) 
University of Tokyo Team, {Faculty of Engineering, University of Tokyo

>  <COMMENT>  (4513) 
SMILES=COC(=O)CCCCCC(=O)OC
InChI=InChI=1S/C9H16O4/c1-12-8(10)6-4-3-5-7-9(11)13-2/h3-7H2,1-2H3
computed SMILES=O=C(OC)CCCCCC(=O)OC
accession=JP004067
date=2016.01.19 (Created 2008.10.21, modified 2011.05.06)
author=MASS SPECTROSCOPY SOC. OF JAPAN (MSSJ)
license=CC BY-NC-SA
exact mass=188.10486
ionization energy=70 eV
ion type=[M]+*
computed spectral entropy=3.4490014854308986
computed normalized entropy=0.8091157640073167
SPLASH=splash10-0596-9100000000-d1d23d68f041d9b2478d
submitter=submitter = University of Tokyo Team (Faculty of Engineering, University of Tokyo)
MoNA Rating=3.75

>  <NUM PEAKS>  (4513) 
71

>  <MASS SPECTRAL PEAKS>  (4513) 
14 1.9
16 2.5
26 3.2
27 2.6
28 13.2
29 24.1
30 2.2
31 0.74
33 2.3
35 2.2
39 21
40 0.56
41 55.4
42 32
43 64.9
44 0.45
45 13
47 3.2
48 13.2
49 1.45
51 2.5
53 5
54 6.5
55 99.99
56 7.5
57 6
58 4
59 8.11
60 4
63 5.5
65 2.1
67 0.56
68 24
69 70
70 5.9
71 0.39
72 2.9
73 35.5
74 95.2
79 0.31
81 3.2
82 3
83 41.7
84 0.3
85 6
87 29.1
88 4.7
95 0.35
96 9.9
97 28.1
98 3.1
99 0.22
100 14.1
101 6.7
102 4
111 1.32
112 2.6
113 3.9
114 8.5
115 7.93
116 5.3
123 3
124 21
125 3.55
126 2.5
127 3.3
128 30.7
129 0.78
156 4.2
157 25.7
158 3

>  <PREDICTED SPECTRUM>  (4513) 
15 48
26 47
27 226
28 173
29 286
30 45
31 118
32 2
33 16
37 5
38 20
39 333
40 138
41 653
42 382
43 522
44 172
45 298
49 81
51 8
52 27
53 180
54 214
55 999
56 270
57 176
58 78
59 801
60 81
61 51
63 5
65 63
67 242
68 180
69 652
70 227
71 160
72 52
73 452
74 759
75 107
77 21
78 1
79 106
81 157
82 123
83 608
84 185
85 74
86 72
87 648
88 192
91 2
92 9
93 98
95 89
96 325
97 595
98 257
99 173
100 129
101 311
102 98
107 55
109 7
110 4
111 359
112 32
113 55
114 290
115 672
116 170
124 234
125 364
126 185
128 445
129 370
130 145
135 41
139 75
141 9
143 246
156 300
157 649
158 251

$$$$

     RDKit          2D

 11 11  0  0  0  0  0  0  0  0999 V2000
    3.2476    3.7504    0.0000 C   0  0  0  0  0  0  0  0  0  0  0  0
    3.2481    0.7504    0.0000 C   0  0  0  0  0  0  0  0  0  0  0  0
    1.9487    3.0002    0.0000 C   0  0  0  0  0  0  0  0  0  0  0  0
   -1.9500    0.7500    0.0000 C   0  0  0  0  0  0  0  0  0  0  0  0
   -1.9500   -0.7500    0.0000 C   0  0  0  0  0  0  0  0  0  0  0  0
   -0.6500    1.5000    0.0000 C   0  0  0  0  0  0  0  0  0  0  0  0
   -0.6500   -1.5000    0.0000 C   0  0  0  0  0  0  0  0  0  0  0  0
    1.9489    1.5002    0.0000 C   0  0  0  0  0  0  0  0  0  0  0  0
    0.6500    0.7500    0.0000 C   0  0  0  0  0  0  0  0  0  0  0  0
    0.6500   -0.7500    0.0000 C   0  0  0  0  0  0  0  0  0  0  0  0
    1.9489   -1.5002    0.0000 O   0  0  0  0  0  0  0  0  0  0  0  0
  3  1  1  0
  5  4  2  0
  6  4  1  0
  7  5  1  0
  8  2  1  0
  8  3  1  0
  9  6  2  0
  9  8  1  0
 10  7  2  0
 10  9  1  0
 11 10  1  0
M  END
>  <NAME>  (4514) 
ORTHO-SEC-BUTYLPHENOL

>  <SYNONYMS>  (4514) 


>  <SPECTRUM TYPE>  (4514) 
MS1

>  <INSTRUMENT TYPE>  (4514) 
EI-B

>  <INSTRUMENT>  (4514) 
HITACHI RMU-6L

>  <ION MODE>  (4514) 
P

>  <INCHIKEY>  (4514) 
NGFPWHGISWUQOI-UHFFFAOYSA-N

>  <FORMULA>  (4514) 
C10H14O

>  <EXACT MASS>  (4514) 
150.104465068

>  <MW>  (4514) 
150

>  <ID>  (4514) 
JP004063

>  <CONTRIBUTOR>  (4514) 
University of Tokyo Team, {Faculty of Engineering, University of Tokyo

>  <COMMENT>  (4514) 
SMILES=CCC(C)c(c1)c(O)ccc1
InChI=InChI=1S/C10H14O/c1-3-8(2)9-6-4-5-7-10(9)11/h4-8,11H,3H2,1-2H3
computed SMILES=OC=1C=CC=CC1C(C)CC
accession=JP004063
date=2016.01.19 (Created 2008.10.21, modified 2011.05.06)
author=MASS SPECTROSCOPY SOC. OF JAPAN (MSSJ)
license=CC BY-NC-SA
exact mass=150.10447
ionization energy=70 eV
ion type=[M]+*
computed spectral entropy=2.4659269702236246
computed normalized entropy=0.711516122227194
SPLASH=splash10-00di-5900000000-68facb05fa0069d5a100
submitter=submitter = University of Tokyo Team (Faculty of Engineering, University of Tokyo)
MoNA Rating=3.75

>  <NUM PEAKS>  (4514) 
32

>  <MASS SPECTRAL PEAKS>  (4514) 
26 1.1
27 11.2
29 6.2
38 0.23
39 12
40 1.7
41 5
42 0.15
50 2.9
51 6.9
52 2.3
53 0.3
55 2.9
62 2.1
63 3.2
64 0.18
65 5
66 2.1
77 18.5
78 0.29
79 1.8
91 12.7
103 18.2
104 0.15
108 1.5
115 2
117 10.9
121 99.99
122 10
135 2.3
150 16.7
151 1.5

>  <PREDICTED SPECTRUM>  (4514) 
14 7
15 48
17 7
18 15
26 63
27 243
28 76
29 227
31 11
32 13
33 12
37 21
38 83
39 322
40 107
41 292
42 52
43 133
44 6
49 4
50 124
51 242
52 152
53 184
54 46
55 171
56 29
57 124
59 8
60 3
62 76
63 178
64 132
65 307
66 116
67 131
71 43
74 76
75 137
76 49
77 357
78 190
79 263
80 67
81 50
86 9
87 53
89 129
90 61
91 438
92 195
93 216
94 115
95 46
96 2
101 60
102 138
103 262
104 63
105 199
106 101
107 230
108 121
115 189
116 83
117 114
118 7
119 76
120 82
121 999
122 348
123 62
131 4
133 93
135 237
136 60
149 19
150 508
151 164
152 54

$$$$

     RDKit          2D

 11 11  0  0  0  0  0  0  0  0999 V2000
    2.6991    0.2013    0.0000 C   0  0  0  0  0  0  0  0  0  0  0  0
    3.2478    2.2504    0.0000 C   0  0  0  0  0  0  0  0  0  0  0  0
    1.1987    2.7991    0.0000 C   0  0  0  0  0  0  0  0  0  0  0  0
   -1.9500    0.7500    0.0000 C   0  0  0  0  0  0  0  0  0  0  0  0
   -1.9500   -0.7500    0.0000 C   0  0  0  0  0  0  0  0  0  0  0  0
   -0.6500    1.5000    0.0000 C   0  0  0  0  0  0  0  0  0  0  0  0
   -0.6500   -1.5000    0.0000 C   0  0  0  0  0  0  0  0  0  0  0  0
    0.6500    0.7500    0.0000 C   0  0  0  0  0  0  0  0  0  0  0  0
    0.6500   -0.7500    0.0000 C   0  0  0  0  0  0  0  0  0  0  0  0
    1.9489    1.5002    0.0000 C   0  0  0  0  0  0  0  0  0  0  0  0
    1.9489   -1.5002    0.0000 O   0  0  0  0  0  0  0  0  0  0  0  0
  5  4  2  0
  6  4  1  0
  7  5  1  0
  8  6  2  0
  9  7  2  0
  9  8  1  0
 10  1  1  0
 10  2  1  0
 10  3  1  0
 10  8  1  0
 11  9  1  0
M  END
>  <NAME>  (4515) 
ORTHO-TERT-BUTYLPHENOL

>  <SYNONYMS>  (4515) 


>  <SPECTRUM TYPE>  (4515) 
MS1

>  <INSTRUMENT TYPE>  (4515) 
EI-B

>  <INSTRUMENT>  (4515) 
HITACHI RMU-6L

>  <ION MODE>  (4515) 
P

>  <INCHIKEY>  (4515) 
WJQOZHYUIDYNHM-UHFFFAOYSA-N

>  <FORMULA>  (4515) 
C10H14O

>  <EXACT MASS>  (4515) 
150.104465068

>  <MW>  (4515) 
150

>  <ID>  (4515) 
JP004062

>  <CONTRIBUTOR>  (4515) 
University of Tokyo Team, {Faculty of Engineering, University of Tokyo

>  <COMMENT>  (4515) 
SMILES=Oc(c1)c(ccc1)C(C)(C)C
InChI=InChI=1S/C10H14O/c1-10(2,3)8-6-4-5-7-9(8)11/h4-7,11H,1-3H3
computed SMILES=OC=1C=CC=CC1C(C)(C)C
accession=JP004062
date=2016.01.19 (Created 2008.10.21, modified 2011.05.06)
author=MASS SPECTROSCOPY SOC. OF JAPAN (MSSJ)
license=CC BY-NC-SA
exact mass=150.10447
ionization energy=70 eV
ion type=[M]+*
computed spectral entropy=2.322918905776154
computed normalized entropy=0.6340602752597849
SPLASH=splash10-000i-2900000000-f08add6a3f5820a671b0
submitter=submitter = University of Tokyo Team (Faculty of Engineering, University of Tokyo)
MoNA Rating=3.75

>  <NUM PEAKS>  (4515) 
39

>  <MASS SPECTRAL PEAKS>  (4515) 
18 1.3
27 1.8
29 1.4
41 0.62
51 4.3
52 1
53 1.5
55 0.12
56 2.6
57 1.5
63 2.5
64 0.13
65 4.5
67 1.5
68 2
69 0.13
75 1.7
77 6
78 1.6
79 0.29
89 1.4
91 13.9
92 1
94 0.21
95 4.6
103 1.5
105 1.2
107 6.65
108 4.3
109 1.5
115 12.3
116 0.23
117 1.2
119 1
135 99.99
136 0.96
149 6.3
150 36.9
151 3.8

>  <PREDICTED SPECTRUM>  (4515) 
15 26
26 17
27 94
28 4
29 64
33 4
34 1
37 40
38 97
39 294
40 123
41 274
42 61
43 143
44 12
49 4
50 166
51 264
52 181
53 220
54 82
55 133
56 20
57 135
58 83
59 54
60 9
61 69
62 92
63 183
64 140
65 268
66 152
67 168
68 28
69 44
70 30
71 43
72 47
73 33
74 85
75 123
76 74
77 323
78 203
79 229
80 99
81 102
82 20
85 24
86 52
87 52
88 9
89 141
90 67
91 368
92 137
93 124
94 117
95 132
96 55
97 44
101 14
102 145
103 201
104 71
105 207
106 83
107 536
108 267
109 138
110 3
115 228
116 137
117 195
118 75
119 132
120 61
121 125
122 41
128 4
129 52
131 69
133 124
134 43
135 999
136 304
137 57
147 8
149 53
150 580
151 178
152 39

$$$$

     RDKit          2D

  9  9  0  0  0  0  0  0  0  0999 V2000
   -1.9145    0.7682    0.0000 C   0  0  0  0  0  0  0  0  0  0  0  0
    1.9837   -1.4833    0.0000 C   0  0  0  0  0  0  0  0  0  0  0  0
    0.6847   -2.2333    0.0000 C   0  0  0  0  0  0  0  0  0  0  0  0
    0.6837    0.7684    0.0000 C   0  0  0  0  0  0  0  0  0  0  0  0
   -0.6153    0.0184    0.0000 C   0  0  0  0  0  0  0  0  0  0  0  0
    1.9832    0.0176    0.0000 C   0  0  0  0  0  0  0  0  0  0  0  0
   -0.6148   -1.4824    0.0000 C   0  0  0  0  0  0  0  0  0  0  0  0
    3.2823    0.7676    0.0000 O   0  0  0  0  0  0  0  0  0  0  0  0
   -1.9139   -2.2324    0.0000 O   0  0  0  0  0  0  0  0  0  0  0  0
  3  2  2  0
  5  1  1  0
  5  4  1  0
  6  2  1  0
  6  4  2  0
  7  3  1  0
  7  5  2  0
  8  6  1  0
  9  7  1  0
M  END
>  <NAME>  (4516) 
2-METHYLHYDROQUINONE

>  <SYNONYMS>  (4516) 


>  <SPECTRUM TYPE>  (4516) 
MS1

>  <INSTRUMENT TYPE>  (4516) 
EI-B

>  <INSTRUMENT>  (4516) 
HITACHI RMU-6L

>  <ION MODE>  (4516) 
P

>  <INCHIKEY>  (4516) 
CNHDIAIOKMXOLK-UHFFFAOYSA-N

>  <FORMULA>  (4516) 
C7H8O2

>  <EXACT MASS>  (4516) 
124.052429496

>  <MW>  (4516) 
124

>  <ID>  (4516) 
JP004058

>  <CONTRIBUTOR>  (4516) 
University of Tokyo Team, {Faculty of Engineering, University of Tokyo

>  <COMMENT>  (4516) 
SMILES=Oc(c1)cc(C)c(O)c1
InChI=InChI=1S/C7H8O2/c1-5-4-6(8)2-3-7(5)9/h2-4,8-9H,1H3
computed SMILES=OC1=CC=C(O)C(=C1)C
accession=JP004058
date=2016.01.19 (Created 2008.10.21, modified 2011.05.06)
author=MASS SPECTROSCOPY SOC. OF JAPAN (MSSJ)
license=CC BY-NC-SA
exact mass=124.05243
ionization energy=70 eV
ion type=[M]+*
computed spectral entropy=1.7235188092773073
computed normalized entropy=0.8288373463410742
SPLASH=splash10-00di-4900000000-1294c0e2f9e3a2140785
submitter=submitter = University of Tokyo Team (Faculty of Engineering, University of Tokyo)
MoNA Rating=3.75

>  <NUM PEAKS>  (4516) 
8

>  <MASS SPECTRAL PEAKS>  (4516) 
39 21.8
54 22.1
82 17.9
94 1.82
95 18.1
122 26.1
123 23.5
124 99.99

>  <PREDICTED SPECTRUM>  (4516) 
14 2
15 11
16 1
25 0
26 50
27 161
28 57
29 84
31 16
32 1
33 2
36 32
37 56
38 119
39 331
40 132
41 227
42 184
43 138
44 67
47 15
49 30
50 213
51 351
52 285
53 336
54 184
55 254
56 36
57 4
61 54
62 100
63 177
64 83
65 197
66 158
67 216
68 124
69 148
70 51
74 65
75 101
76 55
77 349
78 221
79 174
80 133
81 310
82 95
83 52
91 25
93 151
94 185
95 414
96 171
97 39
105 115
106 112
107 147
108 26
109 304
110 42
121 76
122 136
123 557
124 999
125 287
126 56

$$$$

     RDKit          2D

  9  9  0  0  0  0  0  0  0  0999 V2000
   -2.5989    0.8302    0.0000 C   0  0  0  0  0  0  0  0  0  0  0  0
   -0.0000   -2.1700    0.0000 C   0  0  0  0  0  0  0  0  0  0  0  0
   -1.3000   -1.4200    0.0000 C   0  0  0  0  0  0  0  0  0  0  0  0
    1.3000   -1.4200    0.0000 C   0  0  0  0  0  0  0  0  0  0  0  0
   -1.3000    0.0800    0.0000 C   0  0  0  0  0  0  0  0  0  0  0  0
    1.3000    0.0800    0.0000 C   0  0  0  0  0  0  0  0  0  0  0  0
   -0.0000    0.8300    0.0000 C   0  0  0  0  0  0  0  0  0  0  0  0
    2.5989    0.8302    0.0000 O   0  0  0  0  0  0  0  0  0  0  0  0
    0.0000    2.3300    0.0000 O   0  0  0  0  0  0  0  0  0  0  0  0
  3  2  2  0
  4  2  1  0
  5  1  1  0
  5  3  1  0
  6  4  2  0
  7  5  2  0
  7  6  1  0
  8  6  1  0
  9  7  1  0
M  END
>  <NAME>  (4517) 
3-METHYLPYROCATECHOL

>  <SYNONYMS>  (4517) 


>  <SPECTRUM TYPE>  (4517) 
MS1

>  <INSTRUMENT TYPE>  (4517) 
EI-B

>  <INSTRUMENT>  (4517) 
HITACHI RMU-6L

>  <ION MODE>  (4517) 
P

>  <INCHIKEY>  (4517) 
PGSWEKYNAOWQDF-UHFFFAOYSA-N

>  <FORMULA>  (4517) 
C7H8O2

>  <EXACT MASS>  (4517) 
124.052429496

>  <MW>  (4517) 
124

>  <ID>  (4517) 
JP004056

>  <CONTRIBUTOR>  (4517) 
University of Tokyo Team, {Faculty of Engineering, University of Tokyo

>  <COMMENT>  (4517) 
SMILES=Cc(c1)c(O)c(O)cc1
InChI=InChI=1S/C7H8O2/c1-5-3-2-4-6(8)7(5)9/h2-4,8-9H,1H3
computed SMILES=OC1=CC=CC(=C1O)C
accession=JP004056
date=2016.01.19 (Created 2008.10.21, modified 2011.05.06)
author=MASS SPECTROSCOPY SOC. OF JAPAN (MSSJ)
license=CC BY-NC-SA
exact mass=124.05243
ionization energy=70 eV
ion type=[M]+*
computed spectral entropy=2.6517205181253827
computed normalized entropy=0.7050197906410538
SPLASH=splash10-00di-7900000000-30c68a9fce29834d697d
submitter=submitter = University of Tokyo Team (Faculty of Engineering, University of Tokyo)
MoNA Rating=3.75

>  <NUM PEAKS>  (4517) 
43

>  <MASS SPECTRAL PEAKS>  (4517) 
18 1.2
26 1.5
27 4
28 0.29
29 1.5
31 1.2
37 1.8
38 0.39
39 13.5
40 2
41 5.5
43 0.21
47 2.2
47.5 1.5
48 2
50 0.41
51 12.5
52 6.9
53 4.1
55 0.4
60 1
61 1
62 5.1
63 0.38
64 1
65 4.1
66 4.1
67 0.52
76 1.9
77 18.9
78 46.9
79 0.56
81 2
94 1.5
95 7.3
96 0.2
105 10.9
106 12.8
107 9.2
109 0.11
123 40.3
124 99.99
125 8.1

>  <PREDICTED SPECTRUM>  (4517) 
17 3
18 2
25 3
26 36
27 108
28 35
29 22
31 1
37 43
38 94
39 272
40 115
41 199
42 81
43 8
44 32
46 0
47 1
49 49
50 236
51 359
52 248
53 275
54 92
55 137
56 8
61 60
62 104
63 158
64 64
65 208
66 207
67 324
68 245
69 88
70 26
73 13
74 117
75 124
76 74
77 455
78 349
79 235
80 42
81 123
82 4
93 91
94 133
95 428
96 200
97 55
105 158
106 126
107 94
109 26
121 10
122 158
123 606
124 999
125 271
126 60

$$$$

     RDKit          2D

 10 10  0  0  0  0  0  0  0  0999 V2000
   -2.5981   -1.5000    0.0000 C   0  0  0  0  0  0  0  0  0  0  0  0
    2.5981    1.5000    0.0000 C   0  0  0  0  0  0  0  0  0  0  0  0
    0.0005   -1.5008    0.0000 C   0  0  0  0  0  0  0  0  0  0  0  0
   -0.0005    1.5008    0.0000 C   0  0  0  0  0  0  0  0  0  0  0  0
   -1.2990   -0.7500    0.0000 C   0  0  0  0  0  0  0  0  0  0  0  0
    1.2990    0.7500    0.0000 C   0  0  0  0  0  0  0  0  0  0  0  0
   -1.2995    0.7508    0.0000 C   0  0  0  0  0  0  0  0  0  0  0  0
    1.2995   -0.7508    0.0000 C   0  0  0  0  0  0  0  0  0  0  0  0
   -2.5987    1.5006    0.0000 O   0  0  0  0  0  0  0  0  0  0  0  0
    2.5987   -1.5006    0.0000 O   0  0  0  0  0  0  0  0  0  0  0  0
  5  1  1  0
  5  3  2  0
  6  2  1  0
  6  4  1  0
  7  4  2  0
  7  5  1  0
  8  3  1  0
  8  6  2  0
  9  7  1  0
 10  8  1  0
M  END
>  <NAME>  (4518) 
2,5-DIMETHYLHYDROQUINONE

>  <SYNONYMS>  (4518) 


>  <SPECTRUM TYPE>  (4518) 
MS1

>  <INSTRUMENT TYPE>  (4518) 
EI-B

>  <INSTRUMENT>  (4518) 
HITACHI RMU-6L

>  <ION MODE>  (4518) 
P

>  <INCHIKEY>  (4518) 
GPASWZHHWPVSRG-UHFFFAOYSA-N

>  <FORMULA>  (4518) 
C8H10O2

>  <EXACT MASS>  (4518) 
138.06807956

>  <MW>  (4518) 
138

>  <ID>  (4518) 
JP004055

>  <CONTRIBUTOR>  (4518) 
University of Tokyo Team, {Faculty of Engineering, University of Tokyo

>  <COMMENT>  (4518) 
SMILES=Cc(c1)c(O)cc(C)c(O)1
InChI=InChI=1S/C8H10O2/c1-5-3-8(10)6(2)4-7(5)9/h3-4,9-10H,1-2H3
computed SMILES=OC=1C=C(C(O)=CC1C)C
accession=JP004055
date=2016.01.19 (Created 2008.10.21, modified 2011.05.06)
author=MASS SPECTROSCOPY SOC. OF JAPAN (MSSJ)
license=CC BY-NC-SA
exact mass=138.06808
ionization energy=70 eV
ion type=[M]+*
computed spectral entropy=1.8625132865376086
computed normalized entropy=0.8956795606925377
SPLASH=splash10-000i-3900000000-15df6f50a7aac1b77c1a
submitter=submitter = University of Tokyo Team (Faculty of Engineering, University of Tokyo)
MoNA Rating=3.75

>  <NUM PEAKS>  (4518) 
8

>  <MASS SPECTRAL PEAKS>  (4518) 
39 33.9
40 25.2
68 42.9
79 1.68
123 79.8
136 54.9
137 37.7
138 99.99

>  <PREDICTED SPECTRUM>  (4518) 
15 35
26 26
27 168
28 72
29 63
38 22
39 250
40 68
41 151
42 27
43 40
50 111
51 251
52 148
53 250
54 92
55 179
59 26
62 26
63 99
64 44
65 226
66 138
67 140
68 44
69 144
74 42
75 7
77 296
78 146
79 214
80 117
81 177
82 42
91 252
92 123
93 143
94 117
95 150
96 13
104 9
105 88
106 13
107 197
108 162
109 279
110 94
111 17
119 24
120 101
121 205
122 92
123 489
124 126
135 11
136 181
137 760
138 999
139 275
140 10

$$$$

     RDKit          2D

 13 13  0  0  0  0  0  0  0  0999 V2000
    2.8183   -1.1087    0.0000 C   0  0  0  0  0  0  0  0  0  0  0  0
    4.8672   -0.5594    0.0000 C   0  0  0  0  0  0  0  0  0  0  0  0
    4.3179    1.4896    0.0000 C   0  0  0  0  0  0  0  0  0  0  0  0
   -1.6328    3.1878    0.0000 C   0  0  0  0  0  0  0  0  0  0  0  0
   -1.6200   -1.3100    0.0000 C   0  0  0  0  0  0  0  0  0  0  0  0
   -0.3300   -2.0600    0.0000 C   0  0  0  0  0  0  0  0  0  0  0  0
   -1.6200    0.1900    0.0000 C   0  0  0  0  0  0  0  0  0  0  0  0
    0.9700   -1.3100    0.0000 C   0  0  0  0  0  0  0  0  0  0  0  0
   -0.3300    0.9400    0.0000 C   0  0  0  0  0  0  0  0  0  0  0  0
    0.9700    0.1900    0.0000 C   0  0  0  0  0  0  0  0  0  0  0  0
    3.5681    0.1904    0.0000 C   0  0  0  0  0  0  0  0  0  0  0  0
   -0.3325    2.4400    0.0000 O   0  0  0  0  0  0  0  0  0  0  0  0
    2.2689    0.9402    0.0000 O   0  0  0  0  0  0  0  0  0  0  0  0
  6  5  2  0
  7  5  1  0
  8  6  1  0
  9  7  2  0
 10  8  2  0
 10  9  1  0
 11  1  1  0
 11  2  1  0
 11  3  1  0
 12  4  1  0
 12  9  1  0
 13 10  1  0
 13 11  1  0
M  END
>  <NAME>  (4519) 
TERT-BUTYL 2-METHOXYPHENYL ETHER

>  <SYNONYMS>  (4519) 


>  <SPECTRUM TYPE>  (4519) 
MS1

>  <INSTRUMENT TYPE>  (4519) 
EI-B

>  <INSTRUMENT>  (4519) 
HITACHI RMU-6L

>  <ION MODE>  (4519) 
P

>  <INCHIKEY>  (4519) 
ZNBPFNPUNMLSMD-UHFFFAOYSA-N

>  <FORMULA>  (4519) 
C11H16O2

>  <EXACT MASS>  (4519) 
180.115029752

>  <MW>  (4519) 
180

>  <ID>  (4519) 
JP004051

>  <CONTRIBUTOR>  (4519) 
University of Tokyo Team, {Faculty of Engineering, University of Tokyo

>  <COMMENT>  (4519) 
SMILES=COc(c1)c(ccc1)OC(C)(C)C
InChI=InChI=1S/C11H16O2/c1-11(2,3)13-10-8-6-5-7-9(10)12-4/h5-8H,1-4H3
computed SMILES=O(C=1C=CC=CC1OC(C)(C)C)C
accession=JP004051
date=2016.01.19 (Created 2008.10.21, modified 2011.05.06)
author=MASS SPECTROSCOPY SOC. OF JAPAN (MSSJ)
license=CC BY-NC-SA
exact mass=180.11503
ionization energy=70 eV
ion type=[M]+*
computed spectral entropy=1.4808386689601152
computed normalized entropy=0.7121328680217905
SPLASH=splash10-014i-0900000000-c509c3dac930f7340461
submitter=submitter = University of Tokyo Team (Faculty of Engineering, University of Tokyo)
MoNA Rating=3.75

>  <NUM PEAKS>  (4519) 
8

>  <MASS SPECTRAL PEAKS>  (4519) 
77 6.6
105 11.5
133 9
137 0.89
165 99.99
166 13
179 15.8
180 28.4

>  <PREDICTED SPECTRUM>  (4519) 
15 39
26 10
27 39
28 19
29 98
33 4
37 13
38 79
39 144
40 48
41 269
42 52
43 54
49 2
50 144
51 194
52 197
53 222
54 75
55 137
56 78
57 214
58 6
62 68
63 158
64 170
65 203
66 78
67 70
68 62
69 117
70 59
75 14
76 59
77 234
78 153
79 186
80 220
81 198
82 147
83 18
91 103
92 215
93 154
94 133
95 275
96 165
104 6
105 47
106 19
107 75
108 163
109 633
110 179
121 40
122 27
123 103
124 999
125 300
126 32
137 97
149 38
151 8
165 340
166 101
180 277
181 79

$$$$

     RDKit          2D

  8  7  0  0  0  0  0  0  0  0999 V2000
   -1.2990    2.2500    0.0000 C   0  0  0  0  0  0  0  0  0  0  0  0
   -1.2990    3.7500    0.0000 C   0  0  0  0  0  0  0  0  0  0  0  0
    0.0000    1.5000    0.0000 C   0  0  0  0  0  0  0  0  0  0  0  0
   -2.5981    4.5000    0.0000 C   0  0  0  0  0  0  0  0  0  0  0  0
    0.0000    0.0000    0.0000 O   0  0  0  0  0  0  0  0  0  0  0  0
    1.2990    2.2500    0.0000 O   0  0  0  0  0  0  0  0  0  0  0  0
   -3.8971    3.7500    0.0000 O   0  0  0  0  0  0  0  0  0  0  0  0
   -2.5981    6.0000    0.0000 O   0  0  0  0  0  0  0  0  0  0  0  0
  1  2  2  0
  3  1  1  0
  4  2  1  0
  5  3  2  0
  6  3  1  0
  7  4  2  0
  8  4  1  0
M  END
>  <NAME>  (4520) 
Fumaric acid

>  <SYNONYMS>  (4520) 
trans-Butenedioic acid

>  <SPECTRUM TYPE>  (4520) 
MS1

>  <INSTRUMENT TYPE>  (4520) 
EI-B

>  <INSTRUMENT>  (4520) 
HITACHI RMU-6L

>  <ION MODE>  (4520) 
P

>  <INCHIKEY>  (4520) 
VZCYOOQTPOCHFL-OWOJBTEDSA-N

>  <FORMULA>  (4520) 
C4H4O4

>  <EXACT MASS>  (4520) 
116.010958608

>  <MW>  (4520) 
116

>  <ID>  (4520) 
JP004047

>  <CONTRIBUTOR>  (4520) 
University of Tokyo Team, {Faculty of Engineering, University of Tokyo

>  <COMMENT>  (4520) 
SMILES=C(=C/C(=O)O)\C(=O)O
cas=110-17-8
chebi=18012
chemspider=10197150
kegg=C00122
pubchem cid=444972
InChI=InChI=1S/C4H4O4/c5-3(6)1-2-4(7)8/h1-2H,(H,5,6)(H,7,8)/b2-1+
computed SMILES=O=C(O)C=CC(=O)O
accession=JP004047
date=2016.01.19 (Created 2008.10.21, modified 2011.05.06)
author=MASS SPECTROSCOPY SOC. OF JAPAN (MSSJ)
license=CC BY-NC-SA
exact mass=116.01096
ionization energy=70 eV
ion type=[M]+*
computed spectral entropy=1.8057959882897547
computed normalized entropy=0.868404305720938
SPLASH=splash10-0002-9100000000-2cf649749b42cc0c610c
submitter=submitter = University of Tokyo Team (Faculty of Engineering, University of Tokyo)
MoNA Rating=3.75

>  <NUM PEAKS>  (4520) 
8

>  <MASS SPECTRAL PEAKS>  (4520) 
44 20.5
45 68.1
52 33.5
54 1.95
71 17.3
98 99.99
99 39.5
116 35.9

>  <PREDICTED SPECTRUM>  (4520) 
14 50
15 13
16 50
17 70
18 107
19 15
25 151
26 382
27 450
28 253
29 278
31 63
32 38
33 20
34 35
35 42
36 124
37 223
38 375
39 38
40 291
41 336
42 444
43 471
44 674
45 999
46 318
47 99
48 4
49 62
51 106
52 332
53 472
54 872
55 606
56 229
57 194
58 132
59 152
60 123
68 212
69 95
70 321
71 628
72 646
73 193
74 147
81 43
82 9
86 28
87 7
88 210
98 428
99 768
100 116
116 267
117 69

$$$$

     RDKit          2D

 10 10  0  0  0  0  0  0  0  0999 V2000
   -0.0000   -3.0000    0.0000 C   0  0  0  0  0  0  0  0  0  0  0  0
    2.5989    1.5002    0.0000 C   0  0  0  0  0  0  0  0  0  0  0  0
   -2.5989    1.5002    0.0000 C   0  0  0  0  0  0  0  0  0  0  0  0
    1.3000   -0.7500    0.0000 C   0  0  0  0  0  0  0  0  0  0  0  0
   -1.3000   -0.7500    0.0000 C   0  0  0  0  0  0  0  0  0  0  0  0
   -0.0000   -1.5000    0.0000 C   0  0  0  0  0  0  0  0  0  0  0  0
    1.3000    0.7500    0.0000 C   0  0  0  0  0  0  0  0  0  0  0  0
   -1.3000    0.7500    0.0000 C   0  0  0  0  0  0  0  0  0  0  0  0
   -0.0000    1.5000    0.0000 C   0  0  0  0  0  0  0  0  0  0  0  0
    0.0000    3.0000    0.0000 O   0  0  0  0  0  0  0  0  0  0  0  0
  6  1  1  0
  6  4  2  0
  6  5  1  0
  7  2  1  0
  7  4  1  0
  8  3  1  0
  8  5  2  0
  9  7  2  0
  9  8  1  0
 10  9  1  0
M  END
>  <NAME>  (4521) 
2,4,6-TRIMETHYLPHENOL

>  <SYNONYMS>  (4521) 


>  <SPECTRUM TYPE>  (4521) 
MS1

>  <INSTRUMENT TYPE>  (4521) 
EI-B

>  <INSTRUMENT>  (4521) 
HITACHI RMU-6L

>  <ION MODE>  (4521) 
P

>  <INCHIKEY>  (4521) 
BPRYUXCVCCNUFE-UHFFFAOYSA-N

>  <FORMULA>  (4521) 
C9H12O

>  <EXACT MASS>  (4521) 
136.088815004

>  <MW>  (4521) 
136

>  <ID>  (4521) 
JP004043

>  <CONTRIBUTOR>  (4521) 
University of Tokyo Team, {Faculty of Engineering, University of Tokyo

>  <COMMENT>  (4521) 
SMILES=Cc(c1)cc(C)c(O)c(C)1
InChI=InChI=1S/C9H12O/c1-6-4-7(2)9(10)8(3)5-6/h4-5,10H,1-3H3
computed SMILES=OC=1C(=CC(=CC1C)C)C
accession=JP004043
date=2016.01.19 (Created 2008.10.21, modified 2011.05.06)
author=MASS SPECTROSCOPY SOC. OF JAPAN (MSSJ)
license=CC BY-NC-SA
exact mass=136.08882
ionization energy=70 eV
ion type=[M]+*
computed spectral entropy=2.2630382447417094
computed normalized entropy=0.6315128463411152
SPLASH=splash10-0079-2900000000-96d1b2eeedae4adc640d
submitter=submitter = University of Tokyo Team (Faculty of Engineering, University of Tokyo)
MoNA Rating=3.75

>  <NUM PEAKS>  (4521) 
36

>  <MASS SPECTRAL PEAKS>  (4521) 
27 2.6
28 4.1
29 1.8
39 0.69
40 1.2
41 4.5
43 2.2
51 0.4
52 1.3
53 3
55 1.5
57 0.18
63 2.1
65 4.4
66 2
67 0.49
68 2.3
77 9.3
78 2
79 0.43
91 16
92 2
93 5.1
94 0.15
103 4
105 1.8
107 2
108 0.15
117 4.5
118 2.5
119 2
121 99.99
122 8
135 34.8
136 98
137 8.6

>  <PREDICTED SPECTRUM>  (4521) 
14 30
15 127
16 14
17 5
18 25
25 5
26 83
27 279
28 132
29 85
32 5
33 6
34 18
36 33
37 77
38 156
39 442
40 186
41 299
42 119
43 246
44 67
45 21
48 26
49 26
50 231
51 380
52 235
53 363
54 140
55 268
56 16
57 12
58 65
59 42
60 71
61 113
62 136
63 227
64 145
65 337
66 155
67 256
68 75
69 36
73 58
74 101
75 94
76 62
77 489
78 264
79 317
80 128
81 126
82 3
83 11
89 105
90 11
91 545
92 177
93 312
94 207
95 113
96 54
97 35
101 40
102 114
103 187
104 70
105 224
106 166
107 253
108 239
109 286
110 58
115 82
117 96
118 47
119 211
120 113
121 999
122 336
123 90
133 75
134 126
135 569
136 994
137 324
138 88

$$$$

     RDKit          2D

 10 10  0  0  0  0  0  0  0  0999 V2000
    1.2990   -3.4200    0.0000 C   0  0  0  0  0  0  0  0  0  0  0  0
   -2.5989    1.8302    0.0000 C   0  0  0  0  0  0  0  0  0  0  0  0
   -0.0000   -2.6700    0.0000 C   0  0  0  0  0  0  0  0  0  0  0  0
    0.0000    1.8300    0.0000 C   0  0  0  0  0  0  0  0  0  0  0  0
    1.3000    1.0800    0.0000 C   0  0  0  0  0  0  0  0  0  0  0  0
   -1.3000   -0.4200    0.0000 C   0  0  0  0  0  0  0  0  0  0  0  0
   -1.3000    1.0800    0.0000 C   0  0  0  0  0  0  0  0  0  0  0  0
    0.0000   -1.1700    0.0000 C   0  0  0  0  0  0  0  0  0  0  0  0
    1.3000   -0.4200    0.0000 C   0  0  0  0  0  0  0  0  0  0  0  0
    2.5989   -1.1702    0.0000 O   0  0  0  0  0  0  0  0  0  0  0  0
  3  1  1  0
  5  4  2  0
  7  2  1  0
  7  4  1  0
  7  6  2  0
  8  3  1  0
  8  6  1  0
  9  5  1  0
  9  8  2  0
 10  9  1  0
M  END
>  <NAME>  (4522) 
2-ETHYL-4-METHYLPHENOL

>  <SYNONYMS>  (4522) 


>  <SPECTRUM TYPE>  (4522) 
MS1

>  <INSTRUMENT TYPE>  (4522) 
EI-B

>  <INSTRUMENT>  (4522) 
HITACHI RMU-6L

>  <ION MODE>  (4522) 
P

>  <INCHIKEY>  (4522) 
AVVVXUXMKWPKAJ-UHFFFAOYSA-N

>  <FORMULA>  (4522) 
C9H12O

>  <EXACT MASS>  (4522) 
136.088815004

>  <MW>  (4522) 
136

>  <ID>  (4522) 
JP004042

>  <CONTRIBUTOR>  (4522) 
University of Tokyo Team, {Faculty of Engineering, University of Tokyo

>  <COMMENT>  (4522) 
SMILES=CCc(c1)c(O)ccc(C)1
InChI=InChI=1S/C9H12O/c1-3-8-6-7(2)4-5-9(8)10/h4-6,10H,3H2,1-2H3
computed SMILES=OC1=CC=C(C=C1CC)C
accession=JP004042
date=2016.01.19 (Created 2008.10.21, modified 2011.05.06)
author=MASS SPECTROSCOPY SOC. OF JAPAN (MSSJ)
license=CC BY-NC-SA
exact mass=136.08882
ionization energy=70 eV
ion type=[M]+*
computed spectral entropy=1.7394407283976334
computed normalized entropy=0.8364941709265175
SPLASH=splash10-00di-4900000000-c82a07b4f4067052ca9b
submitter=submitter = University of Tokyo Team (Faculty of Engineering, University of Tokyo)
MoNA Rating=3.75

>  <NUM PEAKS>  (4522) 
8

>  <MASS SPECTRAL PEAKS>  (4522) 
27 20.2
49 18.2
51 15.6
77 2.5
91 22.4
107 26.1
121 99.99
136 38.5

>  <PREDICTED SPECTRUM>  (4522) 
14 12
15 37
17 9
18 23
26 39
27 147
28 43
29 72
32 4
34 6
36 5
37 41
38 98
39 268
40 110
41 138
42 9
43 33
44 20
45 45
50 138
51 245
52 133
53 201
54 45
55 96
58 66
59 20
60 38
61 25
62 84
63 157
64 94
65 213
66 101
67 107
73 15
74 64
75 98
76 56
77 326
78 195
79 223
80 37
81 1
86 2
87 5
88 3
89 82
90 15
91 363
92 99
93 175
94 66
101 15
102 85
103 175
104 49
105 203
106 83
107 189
108 88
109 16
115 215
116 45
117 69
119 142
120 60
121 999
122 345
123 92
133 62
134 70
135 181
136 628
137 195
138 17

$$$$

     RDKit          2D

 10 10  0  0  0  0  0  0  0  0999 V2000
   -3.5376   -0.2051    0.0000 C   0  0  0  0  0  0  0  0  0  0  0  0
    2.9576    2.0449    0.0000 C   0  0  0  0  0  0  0  0  0  0  0  0
   -2.2386   -0.9551    0.0000 C   0  0  0  0  0  0  0  0  0  0  0  0
    0.3590    2.0458    0.0000 C   0  0  0  0  0  0  0  0  0  0  0  0
   -0.9400    1.2958    0.0000 C   0  0  0  0  0  0  0  0  0  0  0  0
    1.6590   -0.2059    0.0000 C   0  0  0  0  0  0  0  0  0  0  0  0
    1.6585    1.2949    0.0000 C   0  0  0  0  0  0  0  0  0  0  0  0
   -0.9395   -0.2051    0.0000 C   0  0  0  0  0  0  0  0  0  0  0  0
    0.3600   -0.9559    0.0000 C   0  0  0  0  0  0  0  0  0  0  0  0
    0.3597   -2.4559    0.0000 O   0  0  0  0  0  0  0  0  0  0  0  0
  3  1  1  0
  5  4  2  0
  7  2  1  0
  7  4  1  0
  7  6  2  0
  8  3  1  0
  8  5  1  0
  9  6  1  0
  9  8  2  0
 10  9  1  0
M  END
>  <NAME>  (4523) 
2-ETHYL-5-METHYLPHENOL

>  <SYNONYMS>  (4523) 


>  <SPECTRUM TYPE>  (4523) 
MS1

>  <INSTRUMENT TYPE>  (4523) 
EI-B

>  <INSTRUMENT>  (4523) 
HITACHI RMU-6L

>  <ION MODE>  (4523) 
P

>  <INCHIKEY>  (4523) 
LTRVUFFOMIUCPJ-UHFFFAOYSA-N

>  <FORMULA>  (4523) 
C9H12O

>  <EXACT MASS>  (4523) 
136.088815004

>  <MW>  (4523) 
136

>  <ID>  (4523) 
JP004041

>  <CONTRIBUTOR>  (4523) 
University of Tokyo Team, {Faculty of Engineering, University of Tokyo

>  <COMMENT>  (4523) 
SMILES=CCc(c1)c(O)cc(C)c1
InChI=InChI=1S/C9H12O/c1-3-8-5-4-7(2)6-9(8)10/h4-6,10H,3H2,1-2H3
computed SMILES=OC1=CC(=CC=C1CC)C
accession=JP004041
date=2016.01.19 (Created 2008.10.21, modified 2011.05.06)
author=MASS SPECTROSCOPY SOC. OF JAPAN (MSSJ)
license=CC BY-NC-SA
exact mass=136.08882
ionization energy=70 eV
ion type=[M]+*
computed spectral entropy=1.5323105371544343
computed normalized entropy=0.7368856043515354
SPLASH=splash10-00di-3900000000-a1a51d0e8167c1c1489b
submitter=submitter = University of Tokyo Team (Faculty of Engineering, University of Tokyo)
MoNA Rating=3.75

>  <NUM PEAKS>  (4523) 
8

>  <MASS SPECTRAL PEAKS>  (4523) 
27 11.2
39 14
51 8
77 1.65
91 18.5
121 99.99
122 9.2
136 31.9

>  <PREDICTED SPECTRUM>  (4523) 
14 11
15 42
18 11
26 41
27 147
28 35
29 36
34 3
37 45
38 110
39 277
40 105
41 136
42 34
43 43
44 24
45 0
50 162
51 269
52 140
53 199
54 46
55 80
56 5
58 71
59 51
60 57
61 70
62 98
63 168
64 111
65 227
66 101
67 136
68 10
69 9
73 68
74 100
75 141
76 61
77 385
78 209
79 245
80 50
81 16
82 6
86 14
87 1
89 86
90 47
91 375
92 121
93 211
94 97
95 40
101 21
102 108
103 178
104 49
105 244
106 91
107 292
108 116
109 67
115 197
116 41
117 65
118 8
119 209
120 90
121 999
122 331
123 79
133 103
134 80
135 287
136 695
137 237
138 37

$$$$

     RDKit          2D

 10 10  0  0  0  0  0  0  0  0999 V2000
   -3.8975   -0.4204    0.0000 C   0  0  0  0  0  0  0  0  0  0  0  0
    2.5982   -1.1699    0.0000 C   0  0  0  0  0  0  0  0  0  0  0  0
   -2.5986   -1.1706    0.0000 C   0  0  0  0  0  0  0  0  0  0  0  0
   -1.2989    1.0801    0.0000 C   0  0  0  0  0  0  0  0  0  0  0  0
    0.0006    1.8309    0.0000 C   0  0  0  0  0  0  0  0  0  0  0  0
   -0.0004   -1.1708    0.0000 C   0  0  0  0  0  0  0  0  0  0  0  0
    1.2991   -0.4199    0.0000 C   0  0  0  0  0  0  0  0  0  0  0  0
   -1.2994   -0.4208    0.0000 C   0  0  0  0  0  0  0  0  0  0  0  0
    1.2996    1.0809    0.0000 C   0  0  0  0  0  0  0  0  0  0  0  0
    2.5988    1.8307    0.0000 O   0  0  0  0  0  0  0  0  0  0  0  0
  3  1  1  0
  5  4  2  0
  7  2  1  0
  7  6  1  0
  8  3  1  0
  8  4  1  0
  8  6  2  0
  9  5  1  0
  9  7  2  0
 10  9  1  0
M  END
>  <NAME>  (4524) 
4-ETHYL-2-METHYLPHENOL

>  <SYNONYMS>  (4524) 


>  <SPECTRUM TYPE>  (4524) 
MS1

>  <INSTRUMENT TYPE>  (4524) 
EI-B

>  <INSTRUMENT>  (4524) 
HITACHI RMU-6L

>  <ION MODE>  (4524) 
P

>  <INCHIKEY>  (4524) 
QDQMEHXIUFCIGR-UHFFFAOYSA-N

>  <FORMULA>  (4524) 
C9H12O

>  <EXACT MASS>  (4524) 
136.088815004

>  <MW>  (4524) 
136

>  <ID>  (4524) 
JP004040

>  <CONTRIBUTOR>  (4524) 
University of Tokyo Team, {Faculty of Engineering, University of Tokyo

>  <COMMENT>  (4524) 
SMILES=CCc(c1)cc(C)c(O)c1
InChI=InChI=1S/C9H12O/c1-3-8-4-5-9(10)7(2)6-8/h4-6,10H,3H2,1-2H3
computed SMILES=OC1=CC=C(C=C1C)CC
accession=JP004040
date=2016.01.19 (Created 2008.10.21, modified 2011.05.06)
author=MASS SPECTROSCOPY SOC. OF JAPAN (MSSJ)
license=CC BY-NC-SA
exact mass=136.08882
ionization energy=70 eV
ion type=[M]+*
computed spectral entropy=1.5546584576396576
computed normalized entropy=0.7476326823709396
SPLASH=splash10-00di-2900000000-24b0d5f4681821d3e156
submitter=submitter = University of Tokyo Team (Faculty of Engineering, University of Tokyo)
MoNA Rating=3.75

>  <NUM PEAKS>  (4524) 
8

>  <MASS SPECTRAL PEAKS>  (4524) 
27 12.2
39 14
77 14.5
91 1.24
107 12
121 99.99
122 12.4
136 26.5

>  <PREDICTED SPECTRUM>  (4524) 
14 22
15 63
16 2
17 0
18 18
26 50
27 198
28 80
29 103
32 9
37 33
38 92
39 290
40 118
41 221
42 21
43 76
44 17
50 152
51 256
52 146
53 217
54 55
55 160
57 39
58 71
59 50
60 32
61 20
62 78
63 157
64 120
65 225
66 112
67 132
68 14
69 3
73 3
74 73
75 89
76 67
77 353
78 216
79 273
80 63
87 3
89 86
90 25
91 453
92 121
93 258
94 72
102 95
103 229
104 55
105 269
106 100
107 225
108 73
109 10
115 240
116 73
117 66
119 145
120 72
121 999
122 314
123 33
133 33
134 48
135 180
136 622
137 206
138 5

$$$$

     RDKit          2D

 10 10  0  0  0  0  0  0  0  0999 V2000
   -2.2915    1.3193    0.0000 C   0  0  0  0  0  0  0  0  0  0  0  0
   -0.9814    3.5628    0.0000 C   0  0  0  0  0  0  0  0  0  0  0  0
    1.6056    2.0565    0.0000 C   0  0  0  0  0  0  0  0  0  0  0  0
    0.2920   -0.1684    0.0000 C   0  0  0  0  0  0  0  0  0  0  0  0
    2.8901    1.3316    0.0000 C   0  0  0  0  0  0  0  0  0  0  0  0
    1.6165   -0.9625    0.0000 C   0  0  0  0  0  0  0  0  0  0  0  0
   -0.9888    2.0629    0.0000 C   0  0  0  0  0  0  0  0  0  0  0  0
    0.3065    1.3065    0.0000 C   0  0  0  0  0  0  0  0  0  0  0  0
    2.9156   -0.2125    0.0000 C   0  0  0  0  0  0  0  0  0  0  0  0
    4.2207   -0.9518    0.0000 O   0  0  0  0  0  0  0  0  0  0  0  0
  5  3  2  0
  6  4  1  0
  7  1  1  0
  7  2  1  0
  8  3  1  0
  8  4  2  0
  8  7  1  0
  9  5  1  0
  9  6  2  0
 10  9  1  0
M  END
>  <NAME>  (4525) 
PARA-ISOPROPYLPHENOL

>  <SYNONYMS>  (4525) 


>  <SPECTRUM TYPE>  (4525) 
MS1

>  <INSTRUMENT TYPE>  (4525) 
EI-B

>  <INSTRUMENT>  (4525) 
HITACHI RMU-6L

>  <ION MODE>  (4525) 
P

>  <INCHIKEY>  (4525) 
YQUQWHNMBPIWGK-UHFFFAOYSA-N

>  <FORMULA>  (4525) 
C9H12O

>  <EXACT MASS>  (4525) 
136.088815004

>  <MW>  (4525) 
136

>  <ID>  (4525) 
JP004039

>  <CONTRIBUTOR>  (4525) 
University of Tokyo Team, {Faculty of Engineering, University of Tokyo

>  <COMMENT>  (4525) 
SMILES=CC(C)c(c1)ccc(O)c1
InChI=InChI=1S/C9H12O/c1-7(2)8-3-5-9(10)6-4-8/h3-7,10H,1-2H3
computed SMILES=OC1=CC=C(C=C1)C(C)C
accession=JP004039
date=2016.01.19 (Created 2008.10.21, modified 2011.05.06)
author=MASS SPECTROSCOPY SOC. OF JAPAN (MSSJ)
license=CC BY-NC-SA
exact mass=136.08882
ionization energy=70 eV
ion type=[M]+*
computed spectral entropy=2.1613792877446185
computed normalized entropy=0.6236422359818562
SPLASH=splash10-00di-3900000000-8ad6a5d0a64e2c14751b
submitter=submitter = University of Tokyo Team (Faculty of Engineering, University of Tokyo)
MoNA Rating=3.75

>  <NUM PEAKS>  (4525) 
32

>  <MASS SPECTRAL PEAKS>  (4525) 
27 2.2
28 5
39 4.3
41 0.26
50 1.2
51 2
53 1.9
55 0.17
59 1.5
60 1.6
60.5 1.1
63 0.12
65 4.3
66 1.9
77 12
78 0.18
79 1.6
91 10
92 1.2
93 0.3
94 1.6
95 1.3
103 12.5
104 0.14
107 2.7
119 1.3
120 2
121 99.99
122 9
135 1.5
136 28.9
137 3.4

>  <PREDICTED SPECTRUM>  (4525) 
15 17
26 26
27 101
28 25
29 14
31 11
37 45
38 111
39 295
40 123
41 214
42 89
43 185
44 62
50 150
51 243
52 141
53 201
54 56
55 77
58 53
59 5
60 28
61 51
62 103
63 197
64 149
65 353
66 171
67 140
68 0
73 0
74 73
75 86
76 43
77 352
78 198
79 205
80 59
81 63
89 44
90 7
91 449
92 267
93 284
94 199
95 96
102 110
103 207
104 60
105 142
106 87
107 191
108 2
109 17
115 141
116 57
117 65
118 9
119 217
120 132
121 999
122 313
123 78
134 16
135 175
136 676
137 216
138 33

$$$$

     RDKit          2D

 10 10  0  0  0  0  0  0  0  0999 V2000
    1.9487    3.0002    0.0000 C   0  0  0  0  0  0  0  0  0  0  0  0
    3.2481    0.7504    0.0000 C   0  0  0  0  0  0  0  0  0  0  0  0
   -1.9500    0.7500    0.0000 C   0  0  0  0  0  0  0  0  0  0  0  0
   -1.9500   -0.7500    0.0000 C   0  0  0  0  0  0  0  0  0  0  0  0
   -0.6500    1.5000    0.0000 C   0  0  0  0  0  0  0  0  0  0  0  0
   -0.6500   -1.5000    0.0000 C   0  0  0  0  0  0  0  0  0  0  0  0
    1.9489    1.5002    0.0000 C   0  0  0  0  0  0  0  0  0  0  0  0
    0.6500    0.7500    0.0000 C   0  0  0  0  0  0  0  0  0  0  0  0
    0.6500   -0.7500    0.0000 C   0  0  0  0  0  0  0  0  0  0  0  0
    1.9489   -1.5002    0.0000 O   0  0  0  0  0  0  0  0  0  0  0  0
  4  3  2  0
  5  3  1  0
  6  4  1  0
  7  1  1  0
  7  2  1  0
  8  5  2  0
  8  7  1  0
  9  6  2  0
  9  8  1  0
 10  9  1  0
M  END
>  <NAME>  (4526) 
ORTHO-ISOPROPYLPHENOL

>  <SYNONYMS>  (4526) 


>  <SPECTRUM TYPE>  (4526) 
MS1

>  <INSTRUMENT TYPE>  (4526) 
EI-B

>  <INSTRUMENT>  (4526) 
HITACHI RMU-6L

>  <ION MODE>  (4526) 
P

>  <INCHIKEY>  (4526) 
CRBJBYGJVIBWIY-UHFFFAOYSA-N

>  <FORMULA>  (4526) 
C9H12O

>  <EXACT MASS>  (4526) 
136.088815004

>  <MW>  (4526) 
136

>  <ID>  (4526) 
JP004038

>  <CONTRIBUTOR>  (4526) 
University of Tokyo Team, {Faculty of Engineering, University of Tokyo

>  <COMMENT>  (4526) 
SMILES=CC(C)c(c1)c(O)ccc1
InChI=InChI=1S/C9H12O/c1-7(2)8-5-3-4-6-9(8)10/h3-7,10H,1-2H3
computed SMILES=OC=1C=CC=CC1C(C)C
accession=JP004038
date=2016.01.19 (Created 2008.10.21, modified 2011.05.06)
author=MASS SPECTROSCOPY SOC. OF JAPAN (MSSJ)
license=CC BY-NC-SA
exact mass=136.08882
ionization energy=70 eV
ion type=[M]+*
computed spectral entropy=2.7902530288827396
computed normalized entropy=0.7287841142399576
SPLASH=splash10-00dr-9700000000-0a3ec6f0b6db49b1bb8c
submitter=submitter = University of Tokyo Team (Faculty of Engineering, University of Tokyo)
MoNA Rating=3.75

>  <NUM PEAKS>  (4526) 
46

>  <MASS SPECTRAL PEAKS>  (4526) 
37 0.5
38 4.5
39 28
40 0.42
41 14.3
42 2.8
43 6.9
45 0.45
45.5 4
46 2.4
50 5
51 1.57
52 3
53 5.5
55 3.6
56 0.15
57 4
58 1.4
59 3.5
60 0.35
60.5 29.8
61 2
62 2
63 0.62
64 1.6
65 8.4
66 3
67 0.5
69 2
74 1.2
75 1.5
76 0.3
77 27.8
78 3.9
79 2
89 0.2
90 1.3
91 16.9
93 3.8
94 0.22
95 1.8
103 28.1
107 4.6
115 0.21
121 99.99
136 30.2

>  <PREDICTED SPECTRUM>  (4526) 
14 4
15 40
18 1
26 32
27 117
28 44
32 14
37 36
38 92
39 268
40 103
41 190
42 34
43 190
44 19
49 10
50 155
51 258
52 153
53 190
54 53
55 38
58 70
59 28
60 35
61 57
62 95
63 179
64 127
65 283
66 135
67 157
68 15
73 15
74 72
75 100
76 41
77 335
78 205
79 242
80 58
81 29
87 11
88 1
89 81
90 24
91 484
92 205
93 214
94 98
95 67
101 27
102 165
103 271
104 85
105 134
106 64
107 129
108 24
109 13
115 212
116 43
117 145
118 35
119 204
120 106
121 999
122 298
123 39
133 33
134 43
135 169
136 628
137 195
138 31

$$$$

     RDKit          2D

 11 11  0  0  0  0  0  0  0  0999 V2000
    5.5207   -2.0621    0.0000 C   0  0  0  0  0  0  0  0  0  0  0  0
    4.2216   -2.8121    0.0000 C   0  0  0  0  0  0  0  0  0  0  0  0
   -2.2740   -2.0629    0.0000 C   0  0  0  0  0  0  0  0  0  0  0  0
   -0.9740    0.1887    0.0000 C   0  0  0  0  0  0  0  0  0  0  0  0
   -0.9750   -2.8129    0.0000 C   0  0  0  0  0  0  0  0  0  0  0  0
    0.3250   -0.5613    0.0000 C   0  0  0  0  0  0  0  0  0  0  0  0
    2.9226   -2.0621    0.0000 C   0  0  0  0  0  0  0  0  0  0  0  0
   -2.2736   -0.5621    0.0000 C   0  0  0  0  0  0  0  0  0  0  0  0
    0.3245   -2.0621    0.0000 C   0  0  0  0  0  0  0  0  0  0  0  0
   -3.5726    0.1879    0.0000 O   0  0  0  0  0  0  0  0  0  0  0  0
    1.6236   -2.8121    0.0000 O   0  0  0  0  0  0  0  0  0  0  0  0
  2  1  1  0
  5  3  2  0
  6  4  1  0
  7  2  1  0
  8  3  1  0
  8  4  2  0
  9  5  1  0
  9  6  2  0
 10  8  1  0
 11  7  1  0
 11  9  1  0
M  END
>  <NAME>  (4527) 
PARA-PROPOXYPHENOL

>  <SYNONYMS>  (4527) 


>  <SPECTRUM TYPE>  (4527) 
MS1

>  <INSTRUMENT TYPE>  (4527) 
EI-B

>  <INSTRUMENT>  (4527) 
HITACHI RMU-6L

>  <ION MODE>  (4527) 
P

>  <INCHIKEY>  (4527) 
KIIIPQXXLVCCQP-UHFFFAOYSA-N

>  <FORMULA>  (4527) 
C9H12O2

>  <EXACT MASS>  (4527) 
152.083729624

>  <MW>  (4527) 
152

>  <ID>  (4527) 
JP004037

>  <CONTRIBUTOR>  (4527) 
University of Tokyo Team, {Faculty of Engineering, University of Tokyo

>  <COMMENT>  (4527) 
SMILES=CCCOc(c1)ccc(O)c1
InChI=InChI=1S/C9H12O2/c1-2-7-11-9-5-3-8(10)4-6-9/h3-6,10H,2,7H2,1H3
computed SMILES=OC1=CC=C(OCCC)C=C1
accession=JP004037
date=2016.01.19 (Created 2008.10.21, modified 2011.05.06)
author=MASS SPECTROSCOPY SOC. OF JAPAN (MSSJ)
license=CC BY-NC-SA
exact mass=152.08373
ionization energy=70 eV
ion type=[M]+*
computed spectral entropy=1.8192075725312826
computed normalized entropy=0.5801980317135402
SPLASH=splash10-03di-2900000000-89e33c720e8126efb52c
submitter=submitter = University of Tokyo Team (Faculty of Engineering, University of Tokyo)
MoNA Rating=3.75

>  <NUM PEAKS>  (4527) 
23

>  <MASS SPECTRAL PEAKS>  (4527) 
27 5.8
28 1.3
29 1.8
33 0.46
39 4.9
41 4.5
53 3.2
54 0.23
55 3.7
63 1.1
64 1.5
65 0.28
81 5.7
82 3.1
93 1.8
101 0.21
109 5.5
110 99.99
111 6.6
123 0.22
152 21.9
153 2.3
194 3

>  <PREDICTED SPECTRUM>  (4527) 
14 15
15 49
26 74
27 228
28 62
29 128
37 21
38 116
39 270
40 112
41 269
42 62
43 239
44 31
50 86
51 161
52 176
53 212
54 83
55 112
56 23
62 43
63 142
64 141
65 253
66 49
67 57
68 27
74 10
76 2
77 16
79 26
80 9
81 321
82 95
91 25
92 41
93 230
94 6
95 204
96 86
109 429
110 999
111 319
123 124
137 79
138 10
152 470
153 158

$$$$

     RDKit          2D

 12 12  0  0  0  0  0  0  0  0999 V2000
    6.1702   -3.1871    0.0000 C   0  0  0  0  0  0  0  0  0  0  0  0
    4.8712   -2.4371    0.0000 C   0  0  0  0  0  0  0  0  0  0  0  0
    3.5721   -3.1871    0.0000 C   0  0  0  0  0  0  0  0  0  0  0  0
   -2.9236   -2.4379    0.0000 C   0  0  0  0  0  0  0  0  0  0  0  0
   -1.6236   -0.1863    0.0000 C   0  0  0  0  0  0  0  0  0  0  0  0
   -1.6245   -3.1879    0.0000 C   0  0  0  0  0  0  0  0  0  0  0  0
   -0.3245   -0.9363    0.0000 C   0  0  0  0  0  0  0  0  0  0  0  0
    2.2731   -2.4371    0.0000 C   0  0  0  0  0  0  0  0  0  0  0  0
   -2.9231   -0.9371    0.0000 C   0  0  0  0  0  0  0  0  0  0  0  0
   -0.3250   -2.4371    0.0000 C   0  0  0  0  0  0  0  0  0  0  0  0
   -4.2221   -0.1871    0.0000 O   0  0  0  0  0  0  0  0  0  0  0  0
    0.9740   -3.1871    0.0000 O   0  0  0  0  0  0  0  0  0  0  0  0
  2  1  1  0
  3  2  1  0
  6  4  2  0
  7  5  1  0
  8  3  1  0
  9  4  1  0
  9  5  2  0
 10  6  1  0
 10  7  2  0
 11  9  1  0
 12  8  1  0
 12 10  1  0
M  END
>  <NAME>  (4528) 
PARA-BUTOXYPHENOL

>  <SYNONYMS>  (4528) 


>  <SPECTRUM TYPE>  (4528) 
MS1

>  <INSTRUMENT TYPE>  (4528) 
EI-B

>  <INSTRUMENT>  (4528) 
HITACHI RMU-6L

>  <ION MODE>  (4528) 
P

>  <INCHIKEY>  (4528) 
MBGGFXOXUIDRJD-UHFFFAOYSA-N

>  <FORMULA>  (4528) 
C10H14O2

>  <EXACT MASS>  (4528) 
166.099379688

>  <MW>  (4528) 
166

>  <ID>  (4528) 
JP004036

>  <CONTRIBUTOR>  (4528) 
University of Tokyo Team, {Faculty of Engineering, University of Tokyo

>  <COMMENT>  (4528) 
SMILES=CCCCOc(c1)ccc(O)c1
InChI=InChI=1S/C10H14O2/c1-2-3-8-12-10-6-4-9(11)5-7-10/h4-7,11H,2-3,8H2,1H3
computed SMILES=OC1=CC=C(OCCCC)C=C1
accession=JP004036
date=2016.01.19 (Created 2008.10.21, modified 2011.05.06)
author=MASS SPECTROSCOPY SOC. OF JAPAN (MSSJ)
license=CC BY-NC-SA
exact mass=166.09938
ionization energy=70 eV
ion type=[M]+*
computed spectral entropy=1.4919206609049318
computed normalized entropy=0.516169124898614
SPLASH=splash10-03di-2900000000-20e1ca3e91044a125bc2
submitter=submitter = University of Tokyo Team (Faculty of Engineering, University of Tokyo)
MoNA Rating=3.75

>  <NUM PEAKS>  (4528) 
18

>  <MASS SPECTRAL PEAKS>  (4528) 
27 3.2
29 8
39 3.6
41 0.43
53 2.3
54 2.1
55 2.3
57 0.21
65 2
81 2.8
82 1.6
93 0.15
109 3.1
110 99.99
111 6.2
123 0.14
166 16.2
167 1.8

>  <PREDICTED SPECTRUM>  (4528) 
14 0
18 0
26 81
27 206
28 84
29 330
38 74
39 259
40 91
41 329
42 77
43 39
50 80
51 134
52 163
53 231
54 164
55 144
56 137
57 219
62 41
63 133
64 109
65 248
66 85
67 62
68 66
69 70
74 42
76 53
77 81
79 34
80 74
81 351
82 107
92 66
93 280
94 86
95 115
109 388
110 999
111 393
112 66
123 199
124 57
125 10
151 85
166 461
167 161

$$$$

     RDKit          2D

 11 11  0  0  0  0  0  0  0  0999 V2000
   -4.8712    2.0071    0.0000 C   0  0  0  0  0  0  0  0  0  0  0  0
   -0.9740    4.2571    0.0000 C   0  0  0  0  0  0  0  0  0  0  0  0
   -3.5721    2.7571    0.0000 C   0  0  0  0  0  0  0  0  0  0  0  0
    2.9231    0.5071    0.0000 C   0  0  0  0  0  0  0  0  0  0  0  0
    2.9236    2.0079    0.0000 C   0  0  0  0  0  0  0  0  0  0  0  0
    1.6236   -0.2437    0.0000 C   0  0  0  0  0  0  0  0  0  0  0  0
    1.6245    2.7579    0.0000 C   0  0  0  0  0  0  0  0  0  0  0  0
    0.3245    0.5063    0.0000 C   0  0  0  0  0  0  0  0  0  0  0  0
   -0.9740    2.7571    0.0000 C   0  0  0  0  0  0  0  0  0  0  0  0
    0.3250    2.0071    0.0000 C   0  0  0  0  0  0  0  0  0  0  0  0
   -2.2731    2.0071    0.0000 O   0  0  0  0  0  0  0  0  0  0  0  0
  3  1  1  0
  5  4  2  0
  6  4  1  0
  7  5  1  0
  8  6  2  0
  9  2  1  0
 10  7  2  0
 10  8  1  0
 10  9  1  0
 11  3  1  0
 11  9  1  0
M  END
>  <NAME>  (4529) 
ETHYL 1-PHENYLETHYL ETHER

>  <SYNONYMS>  (4529) 


>  <SPECTRUM TYPE>  (4529) 
MS1

>  <INSTRUMENT TYPE>  (4529) 
EI-B

>  <INSTRUMENT>  (4529) 
HITACHI RMU-6L

>  <ION MODE>  (4529) 
P

>  <INCHIKEY>  (4529) 
MVTKJCAAJPVUHJ-UHFFFAOYSA-N

>  <FORMULA>  (4529) 
C10H14O

>  <EXACT MASS>  (4529) 
150.104465068

>  <MW>  (4529) 
150

>  <ID>  (4529) 
JP004030

>  <CONTRIBUTOR>  (4529) 
University of Tokyo Team, {Faculty of Engineering, University of Tokyo

>  <COMMENT>  (4529) 
SMILES=CCOC(C)c(c1)cccc1
InChI=InChI=1S/C10H14O/c1-3-11-9(2)10-7-5-4-6-8-10/h4-9H,3H2,1-2H3
computed SMILES=O(CC)C(C=1C=CC=CC1)C
accession=JP004030
date=2016.01.19 (Created 2008.10.21, modified 2011.05.06)
author=MASS SPECTROSCOPY SOC. OF JAPAN (MSSJ)
license=CC BY-NC-SA
exact mass=150.10447
ionization energy=70 eV
ion type=[M]+*
computed spectral entropy=2.6351594621076493
computed normalized entropy=0.700616659856113
SPLASH=splash10-0a70-6900000000-9a6b1c19be1de34a9db3
submitter=submitter = University of Tokyo Team (Faculty of Engineering, University of Tokyo)
MoNA Rating=3.75

>  <NUM PEAKS>  (4529) 
43

>  <MASS SPECTRAL PEAKS>  (4529) 
15 2.9
18 3.5
27 6.1
28 0.32
29 6.4
31 2.1
38 1.6
39 0.52
43 28.6
44 1
45 10
50 0.6
51 19.1
52 3
53 1.1
60 0.11
62 1
63 3
65 1.5
71 0.1
73 2.3
74 2.2
76 2
77 5.31
78 10.5
79 47.2
80 3
89 0.2
91 6.7
94 2.1
102 1.1
103 0.9
104 6
105 99.5
106 13.7
107 7.12
108 5.1
120 11
121 3.1
122 0.31
135 99.99
136 9.8
150 2.5

>  <PREDICTED SPECTRUM>  (4529) 
15 2
26 66
27 200
28 42
29 186
30 44
31 65
37 5
38 54
39 168
40 11
41 112
42 33
43 309
44 77
45 157
46 4
47 104
49 44
50 156
51 298
52 143
53 59
61 49
62 94
63 131
64 27
65 48
73 72
74 102
75 193
76 90
77 504
78 250
79 508
80 151
81 18
89 98
90 41
91 202
92 41
102 115
103 429
104 198
105 999
106 380
107 695
108 167
135 741
136 238
137 36
149 80
150 54
151 5

$$$$

     RDKit          2D

 11 11  0  0  0  0  0  0  0  0999 V2000
   -2.6300   -1.5107    0.0000 C   0  0  0  0  0  0  0  0  0  0  0  0
   -3.9180    0.7457    0.0000 C   0  0  0  0  0  0  0  0  0  0  0  0
    3.8980    2.2543    0.0000 C   0  0  0  0  0  0  0  0  0  0  0  0
   -1.3199    2.2329    0.0000 C   0  0  0  0  0  0  0  0  0  0  0  0
   -0.0499   -0.0171    0.0000 C   0  0  0  0  0  0  0  0  0  0  0  0
   -0.0499    2.9829    0.0000 C   0  0  0  0  0  0  0  0  0  0  0  0
    1.3001    0.7329    0.0000 C   0  0  0  0  0  0  0  0  0  0  0  0
   -2.6227   -0.0107    0.0000 C   0  0  0  0  0  0  0  0  0  0  0  0
   -1.3199    0.7329    0.0000 C   0  0  0  0  0  0  0  0  0  0  0  0
    1.3001    2.2329    0.0000 C   0  0  0  0  0  0  0  0  0  0  0  0
    2.5929    2.9936    0.0000 O   0  0  0  0  0  0  0  0  0  0  0  0
  6  4  2  0
  7  5  1  0
  8  1  1  0
  8  2  1  0
  9  4  1  0
  9  5  2  0
  9  8  1  0
 10  6  1  0
 10  7  2  0
 11  3  1  0
 11 10  1  0
M  END
>  <NAME>  (4530) 
PARA-ISOPROPYLANISOLE

>  <SYNONYMS>  (4530) 


>  <SPECTRUM TYPE>  (4530) 
MS1

>  <INSTRUMENT TYPE>  (4530) 
EI-B

>  <INSTRUMENT>  (4530) 
HITACHI RMU-6L

>  <ION MODE>  (4530) 
P

>  <INCHIKEY>  (4530) 
JULZQKLZSNOEEJ-UHFFFAOYSA-N

>  <FORMULA>  (4530) 
C10H14O

>  <EXACT MASS>  (4530) 
150.104465068

>  <MW>  (4530) 
150

>  <ID>  (4530) 
JP004029

>  <CONTRIBUTOR>  (4530) 
University of Tokyo Team, {Faculty of Engineering, University of Tokyo

>  <COMMENT>  (4530) 
SMILES=COc(c1)ccc(C(C)C)c1
InChI=InChI=1S/C10H14O/c1-8(2)9-4-6-10(11-3)7-5-9/h4-8H,1-3H3
computed SMILES=O(C1=CC=C(C=C1)C(C)C)C
accession=JP004029
date=2016.01.19 (Created 2008.10.21, modified 2011.05.06)
author=MASS SPECTROSCOPY SOC. OF JAPAN (MSSJ)
license=CC BY-NC-SA
exact mass=150.10447
ionization energy=70 eV
ion type=[M]+*
computed spectral entropy=2.3292183354040974
computed normalized entropy=0.6155131113216322
SPLASH=splash10-000i-2900000000-2487623c1f4e3a3f4f91
submitter=submitter = University of Tokyo Team (Faculty of Engineering, University of Tokyo)
MoNA Rating=3.75

>  <NUM PEAKS>  (4530) 
44

>  <MASS SPECTRAL PEAKS>  (4530) 
27 1
39 3.1
41 1.9
50 0.1
51 2
53 1
63 2
64 0.1
65 4
68 1.2
77 6
78 0.16
79 5
89 1.2
91 10
92 0.25
94 1.1
103 6.7
104 1
105 1.55
106 1
107 4.1
108 2
109 0.1
115 1
117 0.8
119 3
120 0.45
121 2
122 1.6
128 1
131 0.1
133 1
134 4.1
135 99.99
136 1.02
144 1.5
145 4.5
146 2
147 0.11
148 1.6
150 27
151 3
160 1

>  <PREDICTED SPECTRUM>  (4530) 
14 18
15 87
16 0
18 15
25 2
26 65
27 174
28 89
29 110
31 13
33 5
34 4
37 52
38 130
39 280
40 119
41 269
42 89
43 168
44 27
45 22
50 189
51 310
52 155
53 173
54 50
55 72
58 36
59 7
60 45
61 40
62 123
63 224
64 189
65 272
66 153
67 117
68 37
72 31
74 126
75 145
76 124
77 460
78 262
79 273
80 105
81 36
82 1
89 129
90 62
91 504
92 267
93 159
94 101
95 58
102 162
103 310
104 175
105 248
106 100
107 280
108 155
109 83
115 128
116 95
117 158
118 80
119 265
120 166
121 191
122 32
133 162
134 81
135 999
136 328
137 82
148 53
149 176
150 676
151 222
152 50

$$$$

     RDKit          2D

 11 11  0  0  0  0  0  0  0  0999 V2000
    2.7783   -0.7587    0.0000 C   0  0  0  0  0  0  0  0  0  0  0  0
    4.8272   -0.2094    0.0000 C   0  0  0  0  0  0  0  0  0  0  0  0
    4.2779    1.8396    0.0000 C   0  0  0  0  0  0  0  0  0  0  0  0
   -1.6700   -0.9600    0.0000 C   0  0  0  0  0  0  0  0  0  0  0  0
   -1.6700    0.5400    0.0000 C   0  0  0  0  0  0  0  0  0  0  0  0
   -0.3700   -1.7100    0.0000 C   0  0  0  0  0  0  0  0  0  0  0  0
   -0.3700    1.2900    0.0000 C   0  0  0  0  0  0  0  0  0  0  0  0
    0.9300   -0.9600    0.0000 C   0  0  0  0  0  0  0  0  0  0  0  0
    0.9300    0.5400    0.0000 C   0  0  0  0  0  0  0  0  0  0  0  0
    3.5281    0.5404    0.0000 C   0  0  0  0  0  0  0  0  0  0  0  0
    2.2289    1.2902    0.0000 O   0  0  0  0  0  0  0  0  0  0  0  0
  5  4  2  0
  6  4  1  0
  7  5  1  0
  8  6  2  0
  9  7  2  0
  9  8  1  0
 10  1  1  0
 10  2  1  0
 10  3  1  0
 11  9  1  0
 11 10  1  0
M  END
>  <NAME>  (4531) 
TERT-BUTYL PHENYL ETHER

>  <SYNONYMS>  (4531) 


>  <SPECTRUM TYPE>  (4531) 
MS1

>  <INSTRUMENT TYPE>  (4531) 
EI-B

>  <INSTRUMENT>  (4531) 
HITACHI RMU-6L

>  <ION MODE>  (4531) 
P

>  <INCHIKEY>  (4531) 
PNKZBZPLRKCVLI-UHFFFAOYSA-N

>  <FORMULA>  (4531) 
C10H14O

>  <EXACT MASS>  (4531) 
150.104465068

>  <MW>  (4531) 
150

>  <ID>  (4531) 
JP004027

>  <CONTRIBUTOR>  (4531) 
University of Tokyo Team, {Faculty of Engineering, University of Tokyo

>  <COMMENT>  (4531) 
SMILES=CC(C)(C)Oc(c1)cccc1
InChI=InChI=1S/C10H14O/c1-10(2,3)11-9-7-5-4-6-8-9/h4-8H,1-3H3
computed SMILES=O(C=1C=CC=CC1)C(C)(C)C
accession=JP004027
date=2016.01.19 (Created 2008.10.21, modified 2011.05.06)
author=MASS SPECTROSCOPY SOC. OF JAPAN (MSSJ)
license=CC BY-NC-SA
exact mass=150.10447
ionization energy=70 eV
ion type=[M]+*
computed spectral entropy=1.3264347721879775
computed normalized entropy=0.47841021697456926
SPLASH=splash10-0006-9000000000-53507c69ce65f2461c67
submitter=submitter = University of Tokyo Team (Faculty of Engineering, University of Tokyo)
MoNA Rating=3.75

>  <NUM PEAKS>  (4531) 
16

>  <MASS SPECTRAL PEAKS>  (4531) 
38 1.7
39 10
40 2
41 1.11
43 1
50 1
51 4
55 0.21
56 1.1
57 10
65 4.1
66 0.3
67 3.9
68 1.5
94 99.99
135 3

>  <PREDICTED SPECTRUM>  (4531) 
15 26
26 33
27 93
28 17
29 215
37 33
38 109
39 286
40 125
41 442
42 137
43 129
49 32
50 140
51 242
52 132
53 147
54 25
55 208
56 236
57 580
58 199
62 50
63 132
64 120
65 272
66 220
67 64
74 24
75 47
76 129
77 300
78 208
79 103
91 153
92 144
93 265
94 999
95 418
96 44
105 32
107 138
120 31
121 21
135 308
136 97
150 220
151 61

$$$$

     RDKit          2D

 10 10  0  0  0  0  0  0  0  0999 V2000
   -3.5812    1.6802    0.0000 C   0  0  0  0  0  0  0  0  0  0  0  0
    4.2148    1.6874    0.0000 C   0  0  0  0  0  0  0  0  0  0  0  0
   -2.2809    0.9324    0.0000 C   0  0  0  0  0  0  0  0  0  0  0  0
    1.6207   -1.3054    0.0000 C   0  0  0  0  0  0  0  0  0  0  0  0
    2.9152   -0.5632    0.0000 C   0  0  0  0  0  0  0  0  0  0  0  0
    0.3216   -0.5554    0.0000 C   0  0  0  0  0  0  0  0  0  0  0  0
    1.6166    1.6876    0.0000 C   0  0  0  0  0  0  0  0  0  0  0  0
    2.9157    0.9376    0.0000 C   0  0  0  0  0  0  0  0  0  0  0  0
    0.3171    0.9368    0.0000 C   0  0  0  0  0  0  0  0  0  0  0  0
   -0.9832    1.6846    0.0000 O   0  0  0  0  0  0  0  0  0  0  0  0
  3  1  1  0
  5  4  2  0
  6  4  1  0
  8  2  1  0
  8  5  1  0
  8  7  2  0
  9  6  2  0
  9  7  1  0
 10  3  1  0
 10  9  1  0
M  END
>  <NAME>  (4532) 
META-METHYLPHENETOLE

>  <SYNONYMS>  (4532) 


>  <SPECTRUM TYPE>  (4532) 
MS1

>  <INSTRUMENT TYPE>  (4532) 
EI-B

>  <INSTRUMENT>  (4532) 
HITACHI RMU-6L

>  <ION MODE>  (4532) 
P

>  <INCHIKEY>  (4532) 
UALKQROXOHJHFG-UHFFFAOYSA-N

>  <FORMULA>  (4532) 
C9H12O

>  <EXACT MASS>  (4532) 
136.088815004

>  <MW>  (4532) 
136

>  <ID>  (4532) 
JP004024

>  <CONTRIBUTOR>  (4532) 
University of Tokyo Team, {Faculty of Engineering, University of Tokyo

>  <COMMENT>  (4532) 
SMILES=CCOc(c1)cc(C)cc1
InChI=InChI=1S/C9H12O/c1-3-10-9-6-4-5-8(2)7-9/h4-7H,3H2,1-2H3
computed SMILES=O(C1=CC=CC(=C1)C)CC
accession=JP004024
date=2016.01.19 (Created 2008.10.21, modified 2011.05.06)
author=MASS SPECTROSCOPY SOC. OF JAPAN (MSSJ)
license=CC BY-NC-SA
exact mass=136.08882
ionization energy=70 eV
ion type=[M]+*
computed spectral entropy=2.805811402208801
computed normalized entropy=0.7287542433340968
SPLASH=splash10-0a70-9800000000-dde886ce9219b533ee8f
submitter=submitter = University of Tokyo Team (Faculty of Engineering, University of Tokyo)
MoNA Rating=3.75

>  <NUM PEAKS>  (4532) 
47

>  <MASS SPECTRAL PEAKS>  (4532) 
26 6.3
27 33.1
28 8.2
29 2.86
31 9.5
37 1.2
38 4.3
39 1.99
40 2.1
41 4.3
43 3.2
45 0.42
50 2.3
51 1.5
52 7.2
55 0.11
59 3.2
62 2.6
63 7
64 0.18
65 10.3
66 1.1
74 1
75 0.08
76 1
77 15.2
78 10.2
79 1.91
80 10.2
81 1.1
87 1.1
89 0.38
90 9.3
91 13.2
92 1.1
93 0.11
99 1.4
105 1.4
106 5.1
107 5.69
108 99.99
109 6.9
111 0.9
121 0.13
125 1.6
136 50.5
137 1.6

>  <PREDICTED SPECTRUM>  (4532) 
14 1
25 21
26 131
27 299
28 80
29 285
37 69
38 177
39 437
40 138
41 328
42 15
43 109
44 66
47 1
49 40
50 270
51 421
52 343
53 291
54 131
55 116
56 6
61 109
62 152
63 272
64 206
65 401
66 185
67 178
68 34
74 144
75 143
76 102
77 644
78 453
79 549
80 312
81 164
89 237
90 359
91 607
92 203
93 345
94 44
105 145
106 115
107 883
108 999
109 279
110 8
121 104
134 13
135 111
136 802
137 269
138 26

$$$$

     RDKit          2D

 10 10  0  0  0  0  0  0  0  0999 V2000
    4.2218   -0.1871    0.0000 C   0  0  0  0  0  0  0  0  0  0  0  0
   -0.9747    1.3135    0.0000 C   0  0  0  0  0  0  0  0  0  0  0  0
    2.9226   -0.9369    0.0000 C   0  0  0  0  0  0  0  0  0  0  0  0
   -2.2745   -2.4382    0.0000 C   0  0  0  0  0  0  0  0  0  0  0  0
   -0.9755   -3.1882    0.0000 C   0  0  0  0  0  0  0  0  0  0  0  0
   -2.2740   -0.9373    0.0000 C   0  0  0  0  0  0  0  0  0  0  0  0
    0.3241   -2.4373    0.0000 C   0  0  0  0  0  0  0  0  0  0  0  0
   -0.9745   -0.1865    0.0000 C   0  0  0  0  0  0  0  0  0  0  0  0
    0.3245   -0.9365    0.0000 C   0  0  0  0  0  0  0  0  0  0  0  0
    1.6237   -0.1867    0.0000 O   0  0  0  0  0  0  0  0  0  0  0  0
  3  1  1  0
  5  4  2  0
  6  4  1  0
  7  5  1  0
  8  2  1  0
  8  6  2  0
  9  7  2  0
  9  8  1  0
 10  3  1  0
 10  9  1  0
M  END
>  <NAME>  (4533) 
ORTHO-METHYLPHENETOLE

>  <SYNONYMS>  (4533) 


>  <SPECTRUM TYPE>  (4533) 
MS1

>  <INSTRUMENT TYPE>  (4533) 
EI-B

>  <INSTRUMENT>  (4533) 
HITACHI RMU-6L

>  <ION MODE>  (4533) 
P

>  <INCHIKEY>  (4533) 
JWMKUKRBNODZFA-UHFFFAOYSA-N

>  <FORMULA>  (4533) 
C9H12O

>  <EXACT MASS>  (4533) 
136.088815004

>  <MW>  (4533) 
136

>  <ID>  (4533) 
JP004023

>  <CONTRIBUTOR>  (4533) 
University of Tokyo Team, {Faculty of Engineering, University of Tokyo

>  <COMMENT>  (4533) 
SMILES=CCOc(c1)c(C)ccc1
InChI=InChI=1S/C9H12O/c1-3-10-9-7-5-4-6-8(9)2/h4-7H,3H2,1-2H3
computed SMILES=O(C=1C=CC=CC1C)CC
accession=JP004023
date=2016.01.19 (Created 2008.10.21, modified 2011.05.06)
author=MASS SPECTROSCOPY SOC. OF JAPAN (MSSJ)
license=CC BY-NC-SA
exact mass=136.08882
ionization energy=70 eV
ion type=[M]+*
computed spectral entropy=2.2683178044679377
computed normalized entropy=0.6962095131304491
SPLASH=splash10-0a4i-3900000000-f1189aa25631dcde4f8f
submitter=submitter = University of Tokyo Team (Faculty of Engineering, University of Tokyo)
MoNA Rating=3.75

>  <NUM PEAKS>  (4533) 
26

>  <MASS SPECTRAL PEAKS>  (4533) 
27 7
29 4.2
39 6.2
41 0.15
50 1.9
51 6
52 3.5
53 0.28
63 2
64 1.1
65 5.9
66 0.1
77 14.3
78 5
79 13
80 0.79
89 3.2
90 16.3
91 11.1
92 0.11
107 55.6
108 99.99
109 7.2
121 0.12
136 63.6
137 5.9

>  <PREDICTED SPECTRUM>  (4533) 
14 2
25 17
26 111
27 247
28 46
29 188
37 48
38 153
39 448
40 140
41 270
42 47
43 84
44 44
49 29
50 302
51 489
52 392
53 363
54 166
55 186
60 1
61 113
62 155
63 319
64 222
65 471
66 190
67 83
74 190
75 183
76 122
77 653
78 396
79 543
80 372
81 268
82 83
89 255
90 349
91 793
92 249
93 260
94 7
102 34
105 172
106 61
107 965
108 999
109 273
121 196
122 1
135 86
136 926
137 297
138 45

$$$$

     RDKit          2D

 10 10  0  0  0  0  0  0  0  0999 V2000
   -1.6700   -0.9602    0.0000 C   0  0  0  0  0  0  0  0  0  0  0  0
   -0.3708   -1.7100    0.0000 C   0  0  0  0  0  0  0  0  0  0  0  0
    6.1262    0.5406    0.0000 C   0  0  0  0  0  0  0  0  0  0  0  0
    6.1262   -0.9594    0.0000 C   0  0  0  0  0  0  0  0  0  0  0  0
    4.8262    1.2906    0.0000 C   0  0  0  0  0  0  0  0  0  0  0  0
    4.8262   -1.7094    0.0000 C   0  0  0  0  0  0  0  0  0  0  0  0
    3.5262    0.5406    0.0000 C   0  0  0  0  0  0  0  0  0  0  0  0
    0.9281   -0.9598    0.0000 C   0  0  0  0  0  0  0  0  0  0  0  0
    3.5262   -0.9594    0.0000 C   0  0  0  0  0  0  0  0  0  0  0  0
    2.2272   -1.7096    0.0000 O   0  0  0  0  0  0  0  0  0  0  0  0
  2  1  1  0
  4  3  2  0
  5  3  1  0
  6  4  1  0
  7  5  2  0
  8  2  1  0
  9  6  2  0
  9  7  1  0
 10  8  1  0
 10  9  1  0
M  END
>  <NAME>  (4534) 
PHENYL PROPYL ETHER

>  <SYNONYMS>  (4534) 


>  <SPECTRUM TYPE>  (4534) 
MS1

>  <INSTRUMENT TYPE>  (4534) 
EI-B

>  <INSTRUMENT>  (4534) 
HITACHI RMU-6L

>  <ION MODE>  (4534) 
P

>  <INCHIKEY>  (4534) 
DSNYFFJTZPIKFZ-UHFFFAOYSA-N

>  <FORMULA>  (4534) 
C9H12O

>  <EXACT MASS>  (4534) 
136.088815004

>  <MW>  (4534) 
136

>  <ID>  (4534) 
JP004022

>  <CONTRIBUTOR>  (4534) 
University of Tokyo Team, {Faculty of Engineering, University of Tokyo

>  <COMMENT>  (4534) 
SMILES=CCCOc(c1)cccc1
InChI=InChI=1S/C9H12O/c1-2-8-10-9-6-4-3-5-7-9/h3-7H,2,8H2,1H3
computed SMILES=O(C=1C=CC=CC1)CCC
accession=JP004022
date=2016.01.19 (Created 2008.10.21, modified 2011.05.06)
author=MASS SPECTROSCOPY SOC. OF JAPAN (MSSJ)
license=CC BY-NC-SA
exact mass=136.08882
ionization energy=70 eV
ion type=[M]+*
computed spectral entropy=1.2258911460263384
computed normalized entropy=0.46451857345784076
SPLASH=splash10-0006-9000000000-2c1c2173f464a25499fa
submitter=submitter = University of Tokyo Team (Faculty of Engineering, University of Tokyo)
MoNA Rating=3.75

>  <NUM PEAKS>  (4534) 
14

>  <MASS SPECTRAL PEAKS>  (4534) 
27 3.6
39 5.8
40 1.3
41 0.45
43 4.1
50 1.3
51 4.8
55 0.13
63 3.9
94 99.99
95 6.5
107 1.3
136 2.61
137 2.2

>  <PREDICTED SPECTRUM>  (4534) 
14 19
15 90
25 13
26 77
27 233
28 75
29 84
31 5
37 61
38 143
39 391
40 155
41 414
42 191
43 455
44 83
50 153
51 249
52 88
53 80
60 39
61 22
62 72
63 168
64 127
65 417
66 272
67 76
73 8
74 52
75 54
76 90
77 327
78 123
93 225
94 999
95 319
96 42
107 76
136 376
137 118

$$$$

     RDKit          2D

 10 10  0  0  0  0  0  0  0  0999 V2000
   -3.5724    2.0075    0.0000 C   0  0  0  0  0  0  0  0  0  0  0  0
   -0.9743    3.5075    0.0000 C   0  0  0  0  0  0  0  0  0  0  0  0
   -2.2733    1.2575    0.0000 C   0  0  0  0  0  0  0  0  0  0  0  0
    2.9228   -0.2425    0.0000 C   0  0  0  0  0  0  0  0  0  0  0  0
    1.6233   -0.9933    0.0000 C   0  0  0  0  0  0  0  0  0  0  0  0
    2.9233    1.2583    0.0000 C   0  0  0  0  0  0  0  0  0  0  0  0
    0.3243   -0.2433    0.0000 C   0  0  0  0  0  0  0  0  0  0  0  0
    1.6243    2.0083    0.0000 C   0  0  0  0  0  0  0  0  0  0  0  0
    0.3248    1.2575    0.0000 C   0  0  0  0  0  0  0  0  0  0  0  0
   -0.9743    2.0075    0.0000 N   0  0  0  0  0  0  0  0  0  0  0  0
  3  1  1  0
  5  4  2  0
  6  4  1  0
  7  5  1  0
  8  6  2  0
  9  7  2  0
  9  8  1  0
 10  2  1  0
 10  3  1  0
 10  9  1  0
M  END
>  <NAME>  (4535) 
N-ETHYL-N-METHYLANILINE

>  <SYNONYMS>  (4535) 


>  <SPECTRUM TYPE>  (4535) 
MS1

>  <INSTRUMENT TYPE>  (4535) 
EI-B

>  <INSTRUMENT>  (4535) 
HITACHI RMU-6L

>  <ION MODE>  (4535) 
P

>  <INCHIKEY>  (4535) 
PPHQUIPUBYPZLD-UHFFFAOYSA-N

>  <FORMULA>  (4535) 
C9H13N

>  <EXACT MASS>  (4535) 
135.104799416

>  <MW>  (4535) 
135

>  <ID>  (4535) 
JP004018

>  <CONTRIBUTOR>  (4535) 
University of Tokyo Team, {Faculty of Engineering, University of Tokyo

>  <COMMENT>  (4535) 
SMILES=CCN(C)c(c1)cccc1
InChI=InChI=1S/C9H13N/c1-3-10(2)9-7-5-4-6-8-9/h4-8H,3H2,1-2H3
computed SMILES=C=1C=CC(=CC1)N(C)CC
accession=JP004018
license=CC BY-NC-SA
date=2016.01.19 (Created 2008.10.21, modified 2011.05.06)
author=MASS SPECTROSCOPY SOC. OF JAPAN (MSSJ)
exact mass=135.1048
ionization energy=70 eV
ion type=[M]+*
computed spectral entropy=1.7632572903937227
computed normalized entropy=0.8479475162207782
SPLASH=splash10-00xr-8900000000-44d555f5e1796de4ad20
submitter=submitter = University of Tokyo Team (Faculty of Engineering, University of Tokyo)
MoNA Rating=3.75

>  <NUM PEAKS>  (4535) 
8

>  <MASS SPECTRAL PEAKS>  (4535) 
17 17.5
18 63.1
32 25.4
51 1.43
77 30.6
106 16.3
120 99.99
135 34.4

>  <PREDICTED SPECTRUM>  (4535) 
14 7
15 76
17 3
18 5
25 0
26 71
27 224
28 93
29 183
30 32
31 16
37 49
38 109
39 255
40 108
41 178
42 335
43 129
44 113
49 34
50 209
51 347
52 197
53 42
54 69
55 15
56 24
58 118
59 36
60 27
61 42
62 81
63 168
64 131
65 284
66 196
67 89
73 42
74 79
75 151
76 190
77 552
78 318
79 220
80 41
88 33
89 118
90 151
91 381
92 252
93 190
94 61
102 50
103 207
104 481
105 366
106 301
107 148
108 4
115 6
116 68
117 147
118 312
119 273
120 999
121 398
122 70
131 10
132 137
133 106
134 242
135 809
136 276
137 62

$$$$

     RDKit          2D

 10 10  0  0  0  0  0  0  0  0999 V2000
   -3.5147    1.3398    0.0000 C   0  0  0  0  0  0  0  0  0  0  0  0
    1.6435    2.8271    0.0000 C   0  0  0  0  0  0  0  0  0  0  0  0
   -2.2176    0.5865    0.0000 C   0  0  0  0  0  0  0  0  0  0  0  0
    2.9500   -0.8900    0.0000 C   0  0  0  0  0  0  0  0  0  0  0  0
    1.6783   -1.6372    0.0000 C   0  0  0  0  0  0  0  0  0  0  0  0
    2.9369    0.5921    0.0000 C   0  0  0  0  0  0  0  0  0  0  0  0
    0.3615   -0.9187    0.0000 C   0  0  0  0  0  0  0  0  0  0  0  0
    1.6521    1.3271    0.0000 C   0  0  0  0  0  0  0  0  0  0  0  0
    0.3805    0.5800    0.0000 C   0  0  0  0  0  0  0  0  0  0  0  0
   -0.9167    1.3333    0.0000 N   0  0  0  0  0  0  0  0  0  0  0  0
  3  1  1  0
  5  4  2  0
  6  4  1  0
  7  5  1  0
  8  2  1  0
  8  6  2  0
  9  7  2  0
  9  8  1  0
 10  3  1  0
 10  9  1  0
M  END
>  <NAME>  (4536) 
N-ETHYL-ORTHO-TOLUIDINE

>  <SYNONYMS>  (4536) 


>  <SPECTRUM TYPE>  (4536) 
MS1

>  <INSTRUMENT TYPE>  (4536) 
EI-B

>  <INSTRUMENT>  (4536) 
HITACHI RMU-6L

>  <ION MODE>  (4536) 
P

>  <INCHIKEY>  (4536) 
MWOUGPLLVVEUMM-UHFFFAOYSA-N

>  <FORMULA>  (4536) 
C9H13N

>  <EXACT MASS>  (4536) 
135.104799416

>  <MW>  (4536) 
135

>  <ID>  (4536) 
JP004017

>  <CONTRIBUTOR>  (4536) 
University of Tokyo Team, {Faculty of Engineering, University of Tokyo

>  <COMMENT>  (4536) 
SMILES=CCNc(c1)c(C)ccc1
InChI=InChI=1S/C9H13N/c1-3-10-9-7-5-4-6-8(9)2/h4-7,10H,3H2,1-2H3
computed SMILES=C=1C=CC(=C(C1)NCC)C
accession=JP004017
date=2016.01.19 (Created 2008.10.21, modified 2011.05.06)
author=MASS SPECTROSCOPY SOC. OF JAPAN (MSSJ)
license=CC BY-NC-SA
exact mass=135.1048
ionization energy=70 eV
ion type=[M]+*
computed spectral entropy=2.7678372492027155
computed normalized entropy=0.7149815371001854
SPLASH=splash10-00di-7900000000-e74d73cdca402960f89b
submitter=submitter = University of Tokyo Team (Faculty of Engineering, University of Tokyo)
MoNA Rating=3.75

>  <NUM PEAKS>  (4536) 
48

>  <MASS SPECTRAL PEAKS>  (4536) 
15 3.8
17 1.9
18 6.9
26 0.12
27 9.1
28 6.8
29 4.2
30 0.15
38 2.1
39 11.2
40 1.1
41 0.31
42 1.3
44 1
50 3
51 0.82
52 4.8
53 3.2
54 1.5
58 0.35
59 3.2
60 2.5
61 2
62 0.18
63 4.2
64 1.8
65 12.3
66 0.1
75 1.2
76 1.2
77 10.5
78 0.41
79 3.3
80 1.3
89 3.9
90 0.13
91 22.9
92 5
93 2
104 0.2
105 1.6
106 16.1
117 1.5
118 0.74
119 3.5
120 99.99
134 6
135 33

>  <PREDICTED SPECTRUM>  (4536) 
14 13
15 59
17 1
18 6
26 50
27 215
28 152
29 117
30 113
34 3
37 61
38 122
39 352
40 162
41 235
42 334
43 86
44 186
49 30
50 220
51 343
52 283
53 189
54 78
55 38
58 112
61 48
62 167
63 312
64 176
65 459
66 232
67 120
68 44
74 124
75 167
76 127
77 426
78 308
79 242
80 123
89 221
90 218
91 614
92 326
93 258
94 121
102 36
103 77
104 239
105 211
106 412
107 183
108 33
116 143
117 283
118 338
119 141
120 999
121 337
122 35
132 36
133 31
134 180
135 763
136 234
137 29

$$$$

     RDKit          2D

  8  7  0  0  0  0  0  0  0  0999 V2000
    1.9486    4.1250    0.0000 C   0  0  0  0  0  0  0  0  0  0  0  0
    0.6495    4.8750    0.0000 C   0  0  0  0  0  0  0  0  0  0  0  0
   -0.6495    4.1250    0.0000 C   0  0  0  0  0  0  0  0  0  0  0  0
   -1.9486    4.8750    0.0000 C   0  0  0  0  0  0  0  0  0  0  0  0
   -3.2476    4.1250    0.0000 C   0  0  0  0  0  0  0  0  0  0  0  0
   -4.5466    4.8750    0.0000 C   0  0  0  0  0  0  0  0  0  0  0  0
   -5.8457    4.1250    0.0000 C   0  0  0  0  0  0  0  0  0  0  0  0
   -7.1447    3.3750    0.0000 N   0  0  0  0  0  0  0  0  0  0  0  0
  2  1  1  0
  3  2  1  0
  4  3  1  0
  5  4  1  0
  6  5  1  0
  7  6  1  0
  8  7  3  0
M  END
>  <NAME>  (4537) 
HEPTANENITRILE

>  <SYNONYMS>  (4537) 


>  <SPECTRUM TYPE>  (4537) 
MS1

>  <INSTRUMENT TYPE>  (4537) 
EI-B

>  <INSTRUMENT>  (4537) 
HITACHI RMU-6L

>  <ION MODE>  (4537) 
P

>  <INCHIKEY>  (4537) 
SDAXRHHPNYTELL-UHFFFAOYSA-N

>  <FORMULA>  (4537) 
C7H13N

>  <EXACT MASS>  (4537) 
111.10479941599999

>  <MW>  (4537) 
111

>  <ID>  (4537) 
JP004006

>  <CONTRIBUTOR>  (4537) 
University of Tokyo Team, {Faculty of Engineering, University of Tokyo

>  <COMMENT>  (4537) 
SMILES=CCCCCCC#N
InChI=InChI=1S/C7H13N/c1-2-3-4-5-6-7-8/h2-6H2,1H3
computed SMILES=N#CCCCCCC
accession=JP004006
date=2016.01.19 (Created 2008.10.21, modified 2011.05.06)
author=MASS SPECTROSCOPY SOC. OF JAPAN (MSSJ)
license=CC BY-NC-SA
exact mass=111.1048
ionization energy=70 eV
ion type=[M]+*
computed spectral entropy=2.7176386083889184
computed normalized entropy=0.7526171112538058
SPLASH=splash10-0036-9000000000-a580592337655b3baea6
submitter=submitter = University of Tokyo Team (Faculty of Engineering, University of Tokyo)
MoNA Rating=3.75

>  <NUM PEAKS>  (4537) 
37

>  <MASS SPECTRAL PEAKS>  (4537) 
14 1
15 6.9
18 1.5
26 0.96
27 62.2
28 20.3
29 37
30 0.2
37 1.1
38 4.3
39 35.3
40 1.82
41 99.99
42 14
43 50.3
44 0.22
45 1.5
50 2
51 3.1
52 0.3
53 5.3
54 43
55 37.1
56 0.6
57 10
66 1.4
67 2
68 1.46
69 9.1
70 1.5
71 5.2
81 0.63
82 68.4
83 51.1
84 3.2
96 0.92
110 4

>  <PREDICTED SPECTRUM>  (4537) 
14 47
15 125
16 5
25 26
26 262
27 718
28 483
29 676
30 124
31 53
32 36
37 96
38 146
39 627
40 367
41 999
42 785
43 629
44 144
50 136
51 244
52 244
53 321
54 647
55 997
56 665
57 331
58 8
64 107
65 147
66 177
67 235
68 847
69 657
70 493
71 164
79 14
80 55
81 26
82 742
83 406
84 142
94 49
96 386
97 84
110 223
111 71
112 3

$$$$

     RDKit          2D

  7  6  0  0  0  0  0  0  0  0999 V2000
    0.0000    0.0000    0.0000 C   0  0  0  0  0  0  0  0  0  0  0  0
    1.2990    2.2500    0.0000 C   0  0  0  0  0  0  0  0  0  0  0  0
   -1.2990    3.7500    0.0000 C   0  0  0  0  0  0  0  0  0  0  0  0
   -1.2990    2.2500    0.0000 C   0  0  0  0  0  0  0  0  0  0  0  0
   -2.5981    4.5000    0.0000 C   0  0  0  0  0  0  0  0  0  0  0  0
    0.0000    1.5000    0.0000 C   0  0  0  0  0  0  0  0  0  0  0  0
   -3.8971    5.2500    0.0000 N   0  0  0  0  0  0  0  0  0  0  0  0
  4  3  1  0
  5  3  1  0
  6  1  1  0
  6  2  1  0
  6  4  1  0
  7  5  3  0
M  END
>  <NAME>  (4538) 
ISOCAPRONITRILE

>  <SYNONYMS>  (4538) 


>  <SPECTRUM TYPE>  (4538) 
MS1

>  <INSTRUMENT TYPE>  (4538) 
EI-B

>  <INSTRUMENT>  (4538) 
HITACHI RMU-6L

>  <ION MODE>  (4538) 
P

>  <INCHIKEY>  (4538) 
DUJMVKJJUANUMQ-UHFFFAOYSA-N

>  <FORMULA>  (4538) 
C6H11N

>  <EXACT MASS>  (4538) 
97.08914935199999

>  <MW>  (4538) 
97

>  <ID>  (4538) 
JP004005

>  <CONTRIBUTOR>  (4538) 
University of Tokyo Team, {Faculty of Engineering, University of Tokyo

>  <COMMENT>  (4538) 
SMILES=N#CCCC(C)C
InChI=InChI=1S/C6H11N/c1-6(2)4-3-5-7/h6H,3-4H2,1-2H3
computed SMILES=N#CCCC(C)C
accession=JP004005
date=2016.01.19 (Created 2008.10.21, modified 2011.05.06)
author=MASS SPECTROSCOPY SOC. OF JAPAN (MSSJ)
license=CC BY-NC-SA
exact mass=97.08915
ionization energy=70 eV
ion type=[M]+*
computed spectral entropy=2.48300183084851
computed normalized entropy=0.7533752220748563
SPLASH=splash10-0a6r-9000000000-dbb2ccac0cfe693e7579
submitter=submitter = University of Tokyo Team (Faculty of Engineering, University of Tokyo)
MoNA Rating=3.75

>  <NUM PEAKS>  (4538) 
27

>  <MASS SPECTRAL PEAKS>  (4538) 
13 1.5
14 2
15 12.6
26 0.75
27 38.2
28 11.3
29 20.9
37 0.25
38 3.9
39 29.3
40 5.9
41 5.23
42 7
43 45.3
44 1.5
50 0.15
51 3.4
52 3.3
53 5
55 99.99
56 5.4
57 27
58 1.1
69 0.2
81 1.3
82 13.1
96 9.5

>  <PREDICTED SPECTRUM>  (4538) 
14 62
15 124
16 18
18 20
25 48
26 277
27 681
28 500
29 575
30 94
31 44
32 13
36 9
37 92
38 220
39 618
40 399
41 963
42 741
43 704
44 145
49 1
50 164
51 271
52 297
53 366
54 546
55 999
56 593
57 419
64 48
65 41
66 86
68 348
69 593
70 564
71 194
80 26
82 442
83 70
96 210
97 152
98 5

$$$$

     RDKit          2D

  7  6  0  0  0  0  0  0  0  0999 V2000
    2.5981    3.0000    0.0000 C   0  0  0  0  0  0  0  0  0  0  0  0
    1.2990    3.7500    0.0000 C   0  0  0  0  0  0  0  0  0  0  0  0
    0.0000    3.0000    0.0000 C   0  0  0  0  0  0  0  0  0  0  0  0
   -1.2990    3.7500    0.0000 C   0  0  0  0  0  0  0  0  0  0  0  0
   -2.5981    3.0000    0.0000 C   0  0  0  0  0  0  0  0  0  0  0  0
   -3.8971    3.7500    0.0000 C   0  0  0  0  0  0  0  0  0  0  0  0
   -5.1962    4.5000    0.0000 N   0  0  0  0  0  0  0  0  0  0  0  0
  2  1  1  0
  3  2  1  0
  4  3  1  0
  5  4  1  0
  6  5  1  0
  7  6  3  0
M  END
>  <NAME>  (4539) 
HEXANENITRILE

>  <SYNONYMS>  (4539) 


>  <SPECTRUM TYPE>  (4539) 
MS1

>  <INSTRUMENT TYPE>  (4539) 
EI-B

>  <INSTRUMENT>  (4539) 
HITACHI RMU-6L

>  <ION MODE>  (4539) 
P

>  <INCHIKEY>  (4539) 
AILKHAQXUAOOFU-UHFFFAOYSA-N

>  <FORMULA>  (4539) 
C6H11N

>  <EXACT MASS>  (4539) 
97.08914935199999

>  <MW>  (4539) 
97

>  <ID>  (4539) 
JP004004

>  <CONTRIBUTOR>  (4539) 
University of Tokyo Team, {Faculty of Engineering, University of Tokyo

>  <COMMENT>  (4539) 
SMILES=CCCCCC#N
InChI=InChI=1S/C6H11N/c1-2-3-4-5-6-7/h2-5H2,1H3
computed SMILES=N#CCCCCC
accession=JP004004
date=2016.01.19 (Created 2008.10.21, modified 2011.05.06)
author=MASS SPECTROSCOPY SOC. OF JAPAN (MSSJ)
license=CC BY-NC-SA
exact mass=97.08915
ionization energy=70 eV
ion type=[M]+*
computed spectral entropy=2.712639661907213
computed normalized entropy=0.7629744303489736
SPLASH=splash10-0f96-9000000000-74b8ebaadeab3b89b6fc
submitter=submitter = University of Tokyo Team (Faculty of Engineering, University of Tokyo)
MoNA Rating=3.75

>  <NUM PEAKS>  (4539) 
35

>  <MASS SPECTRAL PEAKS>  (4539) 
13 1.8
14 3.1
15 11
26 1.1
27 59.1
28 21.3
29 43.8
30 0.15
37 3.5
38 5.3
39 34
40 0.9
41 99.99
42 12.9
43 28.9
44 0.2
50 2
51 3.5
52 3.8
53 0.5
54 68.9
55 54
56 4.2
57 2.9
58 1.5
64 1.2
66 1.5
67 0.2
68 24.1
69 18.5
70 2.9
71 0.16
82 20.1
83 1.5
96 9.6

>  <PREDICTED SPECTRUM>  (4539) 
14 72
15 182
16 27
17 2
18 27
25 49
26 326
27 848
28 603
29 801
30 227
31 49
32 14
37 106
38 239
39 657
40 453
41 999
42 776
43 586
44 117
49 12
50 176
51 260
52 314
53 323
54 733
55 955
56 468
57 298
64 173
65 129
66 124
67 121
68 762
69 519
70 483
80 96
81 7
82 450
83 113
96 283
97 108

$$$$

     RDKit          2D

  6  5  0  0  0  0  0  0  0  0999 V2000
    1.2990    3.0000    0.0000 C   0  0  0  0  0  0  0  0  0  0  0  0
    0.0000    3.7500    0.0000 C   0  0  0  0  0  0  0  0  0  0  0  0
   -1.2990    3.0000    0.0000 C   0  0  0  0  0  0  0  0  0  0  0  0
   -2.5981    3.7500    0.0000 C   0  0  0  0  0  0  0  0  0  0  0  0
   -3.8971    3.0000    0.0000 C   0  0  0  0  0  0  0  0  0  0  0  0
   -5.1962    2.2500    0.0000 N   0  0  0  0  0  0  0  0  0  0  0  0
  2  1  1  0
  3  2  1  0
  4  3  1  0
  5  4  1  0
  6  5  3  0
M  END
>  <NAME>  (4540) 
VALERONITRILE

>  <SYNONYMS>  (4540) 


>  <SPECTRUM TYPE>  (4540) 
MS1

>  <INSTRUMENT TYPE>  (4540) 
EI-B

>  <INSTRUMENT>  (4540) 
HITACHI RMU-6L

>  <ION MODE>  (4540) 
P

>  <INCHIKEY>  (4540) 
RFFFKMOABOFIDF-UHFFFAOYSA-N

>  <FORMULA>  (4540) 
C5H9N

>  <EXACT MASS>  (4540) 
83.073499288

>  <MW>  (4540) 
83

>  <ID>  (4540) 
JP004003

>  <CONTRIBUTOR>  (4540) 
University of Tokyo Team, {Faculty of Engineering, University of Tokyo

>  <COMMENT>  (4540) 
SMILES=CCCCC#N
InChI=InChI=1S/C5H9N/c1-2-3-4-5-6/h2-4H2,1H3
computed SMILES=N#CCCCC
accession=JP004003
date=2016.01.19 (Created 2008.10.21, modified 2011.05.06)
author=MASS SPECTROSCOPY SOC. OF JAPAN (MSSJ)
license=CC BY-NC-SA
exact mass=83.0735
ionization energy=70 eV
ion type=[M]+*
computed spectral entropy=2.386266603809027
computed normalized entropy=0.7240244893255262
SPLASH=splash10-004l-9000000000-5b742cee89fdaf664cfd
submitter=submitter = University of Tokyo Team (Faculty of Engineering, University of Tokyo)
MoNA Rating=3.75

>  <NUM PEAKS>  (4540) 
27

>  <MASS SPECTRAL PEAKS>  (4540) 
14 3.2
15 10
25 1.5
26 1.26
27 61
28 21.4
29 21.3
37 0.31
38 5.9
39 25.9
40 8.1
41 99.99
42 6.1
43 9.2
44 3
50 0.15
51 3.3
52 5
53 2.5
54 5.01
55 21
56 2.3
57 2.9
64 0.16
66 1.1
68 2
82 3

>  <PREDICTED SPECTRUM>  (4540) 
14 57
15 126
16 20
18 16
25 47
26 283
27 635
28 556
29 545
30 56
31 43
37 118
38 222
39 593
40 469
41 999
42 687
43 658
44 64
50 105
51 205
52 266
53 203
54 709
55 666
56 481
57 153
64 96
65 6
66 184
67 135
68 566
69 149
82 292
83 63

$$$$

     RDKit          2D

  5  4  0  0  0  0  0  0  0  0999 V2000
   -0.0000    0.0000    0.0000 C   0  0  0  0  0  0  0  0  0  0  0  0
   -1.2990    2.2500    0.0000 C   0  0  0  0  0  0  0  0  0  0  0  0
    1.2990    2.2500    0.0000 C   0  0  0  0  0  0  0  0  0  0  0  0
   -0.0000    1.5000    0.0000 C   0  0  0  0  0  0  0  0  0  0  0  0
    2.5981    3.0000    0.0000 N   0  0  0  0  0  0  0  0  0  0  0  0
  4  1  1  0
  4  2  1  0
  4  3  1  0
  5  3  3  0
M  END
>  <NAME>  (4541) 
ISOBUTYRONITRILE

>  <SYNONYMS>  (4541) 


>  <SPECTRUM TYPE>  (4541) 
MS1

>  <INSTRUMENT TYPE>  (4541) 
EI-B

>  <INSTRUMENT>  (4541) 
HITACHI RMU-6L

>  <ION MODE>  (4541) 
P

>  <INCHIKEY>  (4541) 
LRDFRRGEGBBSRN-UHFFFAOYSA-N

>  <FORMULA>  (4541) 
C4H7N

>  <EXACT MASS>  (4541) 
69.057849224

>  <MW>  (4541) 
69

>  <ID>  (4541) 
JP004002

>  <CONTRIBUTOR>  (4541) 
University of Tokyo Team, {Faculty of Engineering, University of Tokyo

>  <COMMENT>  (4541) 
SMILES=N#CC(C)C
InChI=InChI=1S/C4H7N/c1-4(2)3-5/h4H,1-2H3
computed SMILES=N#CC(C)C
accession=JP004002
date=2016.01.19 (Created 2008.10.21, modified 2011.05.06)
author=MASS SPECTROSCOPY SOC. OF JAPAN (MSSJ)
license=CC BY-NC-SA
exact mass=69.05785
ionization energy=70 eV
ion type=[M]+*
computed spectral entropy=2.279212304340514
computed normalized entropy=0.7269068757204225
SPLASH=splash10-00mo-9000000000-ceda4d50d028af39e1bf
submitter=submitter = University of Tokyo Team (Faculty of Engineering, University of Tokyo)
MoNA Rating=3.75

>  <NUM PEAKS>  (4541) 
23

>  <MASS SPECTRAL PEAKS>  (4541) 
13 1.5
14 2.3
15 10.4
25 0.1
26 12
27 20
28 31.5
29 0.15
37 4
38 5
39 13.3
40 0.6
41 12.2
42 99.99
43 3.5
51 0.41
52 9
53 9
54 23
55 0.13
64 1.1
66 1.2
68 46.9

>  <PREDICTED SPECTRUM>  (4541) 
14 90
15 227
16 30
17 6
18 36
25 61
26 337
27 725
28 587
29 483
36 21
37 176
38 303
39 700
40 466
41 999
42 759
43 682
50 180
51 186
52 245
53 68
54 828
55 206
68 315
69 347
70 88

$$$$

     RDKit          2D

  5  4  0  0  0  0  0  0  0  0999 V2000
    1.9486    1.8750    0.0000 C   0  0  0  0  0  0  0  0  0  0  0  0
    0.6495    2.6250    0.0000 C   0  0  0  0  0  0  0  0  0  0  0  0
   -0.6495    1.8750    0.0000 C   0  0  0  0  0  0  0  0  0  0  0  0
   -1.9486    2.6250    0.0000 C   0  0  0  0  0  0  0  0  0  0  0  0
   -3.2476    3.3750    0.0000 N   0  0  0  0  0  0  0  0  0  0  0  0
  2  1  1  0
  3  2  1  0
  4  3  1  0
  5  4  3  0
M  END
>  <NAME>  (4542) 
BUTYRONITRILE

>  <SYNONYMS>  (4542) 


>  <SPECTRUM TYPE>  (4542) 
MS1

>  <INSTRUMENT TYPE>  (4542) 
EI-B

>  <INSTRUMENT>  (4542) 
HITACHI RMU-6L

>  <ION MODE>  (4542) 
P

>  <INCHIKEY>  (4542) 
KVNRLNFWIYMESJ-UHFFFAOYSA-N

>  <FORMULA>  (4542) 
C4H7N

>  <EXACT MASS>  (4542) 
69.057849224

>  <MW>  (4542) 
69

>  <ID>  (4542) 
JP004001

>  <CONTRIBUTOR>  (4542) 
University of Tokyo Team, {Faculty of Engineering, University of Tokyo

>  <COMMENT>  (4542) 
SMILES=CCCC#N
InChI=InChI=1S/C4H7N/c1-2-3-4-5/h2-3H2,1H3
computed SMILES=N#CCCC
accession=JP004001
date=2016.01.19 (Created 2008.10.21, modified 2011.05.06)
author=MASS SPECTROSCOPY SOC. OF JAPAN (MSSJ)
license=CC BY-NC-SA
exact mass=69.05785
ionization energy=70 eV
ion type=[M]+*
computed spectral entropy=1.642790755700608
computed normalized entropy=0.5798330574529484
SPLASH=splash10-002f-9000000000-269dcf144f66bdba281e
submitter=submitter = University of Tokyo Team (Faculty of Engineering, University of Tokyo)
MoNA Rating=3.75

>  <NUM PEAKS>  (4542) 
17

>  <MASS SPECTRAL PEAKS>  (4542) 
14 1.5
15 4
26 7.2
27 3.31
28 10
29 62
30 1.3
37 0.3
38 3.9
39 9
40 4.2
41 99.99
42 4.1
51 1.1
52 2
54 0.16
68 1

>  <PREDICTED SPECTRUM>  (4542) 
14 123
15 265
16 21
18 3
25 74
26 408
27 830
28 782
29 626
37 155
38 313
39 630
40 582
41 999
42 781
43 248
50 50
51 324
52 374
53 88
54 766
55 154
66 17
68 445
69 603
70 150

$$$$

     RDKit          2D

  4  3  0  0  0  0  0  0  0  0999 V2000
    0.0000    0.0000    0.0000 C   0  0  0  0  0  0  0  0  0  0  0  0
    0.0000    1.5000    0.0000 C   0  0  0  0  0  0  0  0  0  0  0  0
   -1.2990    2.2500    0.0000 C   0  0  0  0  0  0  0  0  0  0  0  0
   -2.5981    3.0000    0.0000 N   0  0  0  0  0  0  0  0  0  0  0  0
  2  1  1  0
  3  2  1  0
  4  3  3  0
M  END
>  <NAME>  (4543) 
PROPIONITRILE

>  <SYNONYMS>  (4543) 


>  <SPECTRUM TYPE>  (4543) 
MS1

>  <INSTRUMENT TYPE>  (4543) 
EI-B

>  <INSTRUMENT>  (4543) 
HITACHI RMU-6L

>  <ION MODE>  (4543) 
P

>  <INCHIKEY>  (4543) 
FVSKHRXBFJPNKK-UHFFFAOYSA-N

>  <FORMULA>  (4543) 
C3H5N

>  <EXACT MASS>  (4543) 
55.042199159999996

>  <MW>  (4543) 
55

>  <ID>  (4543) 
JP004000

>  <CONTRIBUTOR>  (4543) 
University of Tokyo Team, {Faculty of Engineering, University of Tokyo

>  <COMMENT>  (4543) 
SMILES=CCC#N
InChI=InChI=1S/C3H5N/c1-2-3-4/h2H2,1H3
computed SMILES=N#CCC
accession=JP004000
date=2016.01.19 (Created 2008.10.21, modified 2011.05.06)
author=MASS SPECTROSCOPY SOC. OF JAPAN (MSSJ)
license=CC BY-NC-SA
exact mass=55.0422
ionization energy=70 eV
ion type=[M]+*
computed spectral entropy=1.9397547761579241
computed normalized entropy=0.6587858637529183
SPLASH=splash10-004i-9000000000-b15ab5d2e59c2660f2e5
submitter=submitter = University of Tokyo Team (Faculty of Engineering, University of Tokyo)
MoNA Rating=3.75

>  <NUM PEAKS>  (4543) 
19

>  <MASS SPECTRAL PEAKS>  (4543) 
12 1.5
13 1.3
14 2.1
15 0.8
25 12.2
26 20.8
27 18.5
28 99.99
29 2.2
37 1.5
38 2.2
39 0.21
40 4.1
50 1.8
51 8.3
52 1.1
53 7.5
54 62.7
55 10.3

>  <PREDICTED SPECTRUM>  (4543) 
14 187
15 342
16 67
18 28
19 45
25 184
26 585
27 999
28 968
29 512
30 76
34 42
36 161
37 238
38 509
39 110
40 804
41 526
42 363
50 245
51 621
52 443
53 366
54 728
55 870
56 208
57 103

$$$$

     RDKit          2D

  4  3  0  0  0  0  0  0  0  0999 V2000
   -1.2990    1.5000    0.0000 C   0  0  0  0  0  0  0  0  0  0  0  0
    0.0000    2.2500    0.0000 C   0  0  0  0  0  0  0  0  0  0  0  0
   -2.5981    2.2500    0.0000 N   0  0  0  0  0  0  0  0  0  0  0  0
    1.2990    1.5000    0.0000 N   0  0  0  0  0  0  0  0  0  0  0  0
  2  1  1  0
  3  1  1  0
  4  2  1  0
M  END
>  <NAME>  (4544) 
ETHYLENEDIAMINE

>  <SYNONYMS>  (4544) 


>  <SPECTRUM TYPE>  (4544) 
MS1

>  <INSTRUMENT TYPE>  (4544) 
EI-B

>  <INSTRUMENT>  (4544) 
HITACHI RMU-6L

>  <ION MODE>  (4544) 
P

>  <INCHIKEY>  (4544) 
PIICEJLVQHRZGT-UHFFFAOYSA-N

>  <FORMULA>  (4544) 
C2H8N2

>  <EXACT MASS>  (4544) 
60.068748256

>  <MW>  (4544) 
60

>  <ID>  (4544) 
JP003993

>  <CONTRIBUTOR>  (4544) 
University of Tokyo Team, {Faculty of Engineering, University of Tokyo

>  <COMMENT>  (4544) 
SMILES=NCCN
InChI=InChI=1S/C2H8N2/c3-1-2-4/h1-4H2
computed SMILES=NCCN
accession=JP003993
date=2016.01.19 (Created 2008.10.21, modified 2011.05.06)
author=MASS SPECTROSCOPY SOC. OF JAPAN (MSSJ)
license=CC BY-NC-SA
exact mass=60.06875
ionization energy=70 eV
ion type=[M]+*
computed spectral entropy=1.5046954086636903
computed normalized entropy=0.5022796669605568
SPLASH=splash10-001i-9000000000-7161cac69670b52ad6d8
submitter=submitter = University of Tokyo Team (Faculty of Engineering, University of Tokyo)
MoNA Rating=3.75

>  <NUM PEAKS>  (4544) 
20

>  <MASS SPECTRAL PEAKS>  (4544) 
14 1.5
15 3.4
16 1.2
17 0.31
18 12
26 1.2
27 4.6
28 0.2
29 4.5
30 99.99
31 3.3
40 0.16
41 2
42 6
43 5.3
44 0.41
45 1.5
58 1
59 1
60 2.7

>  <PREDICTED SPECTRUM>  (4544) 
14 24
15 70
16 39
17 57
18 109
25 8
26 56
27 55
28 211
29 111
30 999
31 249
32 1
38 24
39 69
40 82
41 125
42 147
43 248
44 43
45 57
46 78
54 40
59 13
60 24
61 14

$$$$

     RDKit          2D

 11 11  0  0  0  0  0  0  0  0999 V2000
   -2.5989   -1.5002    0.0000 C   0  0  0  0  0  0  0  0  0  0  0  0
    2.5989   -1.5002    0.0000 C   0  0  0  0  0  0  0  0  0  0  0  0
    2.5987    3.0002    0.0000 C   0  0  0  0  0  0  0  0  0  0  0  0
    3.8981    0.7504    0.0000 C   0  0  0  0  0  0  0  0  0  0  0  0
   -1.3000    0.7500    0.0000 C   0  0  0  0  0  0  0  0  0  0  0  0
    0.0000    1.5000    0.0000 C   0  0  0  0  0  0  0  0  0  0  0  0
   -0.0000   -1.5000    0.0000 C   0  0  0  0  0  0  0  0  0  0  0  0
   -1.3000   -0.7500    0.0000 C   0  0  0  0  0  0  0  0  0  0  0  0
    1.3000   -0.7500    0.0000 C   0  0  0  0  0  0  0  0  0  0  0  0
    1.3000    0.7500    0.0000 C   0  0  0  0  0  0  0  0  0  0  0  0
    2.5989    1.5002    0.0000 N   0  0  0  0  0  0  0  0  0  0  0  0
  6  5  2  0
  8  1  1  0
  8  5  1  0
  8  7  2  0
  9  2  1  0
  9  7  1  0
 10  6  1  0
 10  9  2  0
 11  3  1  0
 11  4  1  0
 11 10  1  0
M  END
>  <NAME>  (4545) 
2,4,N,N-TETRAMETHYLANILINE

>  <SYNONYMS>  (4545) 


>  <SPECTRUM TYPE>  (4545) 
MS1

>  <INSTRUMENT TYPE>  (4545) 
EI-B

>  <INSTRUMENT>  (4545) 
HITACHI RMU-6L

>  <ION MODE>  (4545) 
P

>  <INCHIKEY>  (4545) 
DZXAIYQRCQALGE-UHFFFAOYSA-N

>  <FORMULA>  (4545) 
C10H15N

>  <EXACT MASS>  (4545) 
149.12044948

>  <MW>  (4545) 
149

>  <ID>  (4545) 
JP003992

>  <CONTRIBUTOR>  (4545) 
University of Tokyo Team, {Faculty of Engineering, University of Tokyo

>  <COMMENT>  (4545) 
SMILES=Cc(c1)cc(C)c(c1)N(C)C
InChI=InChI=1S/C10H15N/c1-8-5-6-10(11(3)4)9(2)7-8/h5-7H,1-4H3
computed SMILES=C=1C=C(C(=CC1C)C)N(C)C
accession=JP003992
date=2016.01.19 (Created 2008.10.21, modified 2011.05.06)
author=MASS SPECTROSCOPY SOC. OF JAPAN (MSSJ)
license=CC BY-NC-SA
exact mass=149.12045
ionization energy=70 eV
ion type=[M]+*
computed spectral entropy=1.6543061948502413
computed normalized entropy=0.7955531144741115
SPLASH=splash10-053r-2900000000-11841d2f21da9054ab10
submitter=submitter = University of Tokyo Team (Faculty of Engineering, University of Tokyo)
MoNA Rating=3.75

>  <NUM PEAKS>  (4545) 
8

>  <MASS SPECTRAL PEAKS>  (4545) 
28 10
51 10.7
77 30.1
78 1.1
104 12
106 51.2
134 99.99
149 34.9

>  <PREDICTED SPECTRUM>  (4545) 
15 38
26 17
27 94
28 54
29 34
30 83
36 11
37 12
38 74
39 260
40 100
41 108
42 229
44 88
50 127
51 225
52 114
53 105
54 41
58 40
62 43
63 149
64 82
65 225
66 90
67 61
68 7
73 33
74 60
75 92
76 74
77 388
78 206
79 148
80 70
89 139
90 68
91 396
92 134
93 84
94 60
99 4
101 16
102 101
103 204
104 166
105 262
106 168
107 121
115 134
116 184
117 297
118 420
119 325
120 188
121 67
130 103
131 114
132 443
133 369
134 728
135 231
146 184
147 160
148 943
149 999
150 310
151 56

$$$$

     RDKit          2D

 11 11  0  0  0  0  0  0  0  0999 V2000
   -2.2733   -1.3675    0.0000 C   0  0  0  0  0  0  0  0  0  0  0  0
   -3.5724    0.8825    0.0000 C   0  0  0  0  0  0  0  0  0  0  0  0
   -0.9743   -0.6175    0.0000 C   0  0  0  0  0  0  0  0  0  0  0  0
   -2.2733    1.6325    0.0000 C   0  0  0  0  0  0  0  0  0  0  0  0
    2.9228    3.1325    0.0000 C   0  0  0  0  0  0  0  0  0  0  0  0
    2.9233    1.6317    0.0000 C   0  0  0  0  0  0  0  0  0  0  0  0
    1.6233    3.8833    0.0000 C   0  0  0  0  0  0  0  0  0  0  0  0
    1.6243    0.8817    0.0000 C   0  0  0  0  0  0  0  0  0  0  0  0
    0.3243    3.1333    0.0000 C   0  0  0  0  0  0  0  0  0  0  0  0
    0.3248    1.6325    0.0000 C   0  0  0  0  0  0  0  0  0  0  0  0
   -0.9743    0.8825    0.0000 N   0  0  0  0  0  0  0  0  0  0  0  0
  3  1  1  0
  4  2  1  0
  6  5  2  0
  7  5  1  0
  8  6  1  0
  9  7  2  0
 10  8  2  0
 10  9  1  0
 11  3  1  0
 11  4  1  0
 11 10  1  0
M  END
>  <NAME>  (4546) 
N,N-DIETHYLANILINE

>  <SYNONYMS>  (4546) 


>  <SPECTRUM TYPE>  (4546) 
MS1

>  <INSTRUMENT TYPE>  (4546) 
EI-B

>  <INSTRUMENT>  (4546) 
HITACHI RMU-6L

>  <ION MODE>  (4546) 
P

>  <INCHIKEY>  (4546) 
GGSUCNLOZRCGPQ-UHFFFAOYSA-N

>  <FORMULA>  (4546) 
C10H15N

>  <EXACT MASS>  (4546) 
149.12044948

>  <MW>  (4546) 
149

>  <ID>  (4546) 
JP003991

>  <CONTRIBUTOR>  (4546) 
University of Tokyo Team, {Faculty of Engineering, University of Tokyo

>  <COMMENT>  (4546) 
SMILES=CCN(CC)c(c1)cccc1
InChI=InChI=1S/C10H15N/c1-3-11(4-2)10-8-6-5-7-9-10/h5-9H,3-4H2,1-2H3
computed SMILES=C=1C=CC(=CC1)N(CC)CC
accession=JP003991
date=2016.01.19 (Created 2008.10.21, modified 2011.05.06)
author=MASS SPECTROSCOPY SOC. OF JAPAN (MSSJ)
license=CC BY-NC-SA
exact mass=149.12045
ionization energy=70 eV
ion type=[M]+*
computed spectral entropy=1.6543061948502413
computed normalized entropy=0.7955531144741115
SPLASH=splash10-053r-2900000000-c6d7a5eadc7902c2b8d5
submitter=submitter = University of Tokyo Team (Faculty of Engineering, University of Tokyo)
MoNA Rating=3.75

>  <NUM PEAKS>  (4546) 
8

>  <MASS SPECTRAL PEAKS>  (4546) 
28 10
51 10.7
77 30.1
79 1.1
104 12
106 51.2
134 99.99
149 34.9

>  <PREDICTED SPECTRUM>  (4546) 
14 5
15 61
26 46
27 206
28 117
29 226
37 4
38 66
39 205
40 40
41 175
42 202
50 180
51 362
52 198
53 114
54 48
55 33
56 77
57 23
58 56
62 83
63 166
64 143
65 219
66 136
67 35
72 9
74 32
75 25
76 144
77 597
78 332
79 231
80 96
89 93
90 109
91 205
92 202
93 138
94 39
103 32
104 502
105 314
106 586
107 227
108 45
118 214
119 103
120 268
121 81
132 70
133 35
134 999
135 301
136 8
146 14
148 202
149 678
150 229
151 30

$$$$

     RDKit          2D

 11 11  0  0  0  0  0  0  0  0999 V2000
   -5.5207    3.1321    0.0000 C   0  0  0  0  0  0  0  0  0  0  0  0
   -4.2216    2.3821    0.0000 C   0  0  0  0  0  0  0  0  0  0  0  0
   -2.9226    3.1321    0.0000 C   0  0  0  0  0  0  0  0  0  0  0  0
    3.5726    0.8821    0.0000 C   0  0  0  0  0  0  0  0  0  0  0  0
    2.2731    0.1313    0.0000 C   0  0  0  0  0  0  0  0  0  0  0  0
    3.5731    2.3829    0.0000 C   0  0  0  0  0  0  0  0  0  0  0  0
    0.9740    0.8813    0.0000 C   0  0  0  0  0  0  0  0  0  0  0  0
    2.2740    3.1329    0.0000 C   0  0  0  0  0  0  0  0  0  0  0  0
   -1.6236    2.3821    0.0000 C   0  0  0  0  0  0  0  0  0  0  0  0
    0.9745    2.3821    0.0000 C   0  0  0  0  0  0  0  0  0  0  0  0
   -0.3245    3.1321    0.0000 N   0  0  0  0  0  0  0  0  0  0  0  0
  2  1  1  0
  3  2  1  0
  5  4  2  0
  6  4  1  0
  7  5  1  0
  8  6  2  0
  9  3  1  0
 10  7  2  0
 10  8  1  0
 11  9  1  0
 11 10  1  0
M  END
>  <NAME>  (4547) 
N-BUTYLANILINE

>  <SYNONYMS>  (4547) 


>  <SPECTRUM TYPE>  (4547) 
MS1

>  <INSTRUMENT TYPE>  (4547) 
EI-B

>  <INSTRUMENT>  (4547) 
HITACHI RMU-6L

>  <ION MODE>  (4547) 
P

>  <INCHIKEY>  (4547) 
VSHTWPWTCXQLQN-UHFFFAOYSA-N

>  <FORMULA>  (4547) 
C10H15N

>  <EXACT MASS>  (4547) 
149.12044948

>  <MW>  (4547) 
149

>  <ID>  (4547) 
JP003990

>  <CONTRIBUTOR>  (4547) 
University of Tokyo Team, {Faculty of Engineering, University of Tokyo

>  <COMMENT>  (4547) 
SMILES=CCCCNc(c1)cccc1
InChI=InChI=1S/C10H15N/c1-2-3-9-11-10-7-5-4-6-8-10/h4-8,11H,2-3,9H2,1H3
computed SMILES=C=1C=CC(=CC1)NCCCC
accession=JP003990
date=2016.01.19 (Created 2008.10.21, modified 2011.05.06)
author=MASS SPECTROSCOPY SOC. OF JAPAN (MSSJ)
license=CC BY-NC-SA
exact mass=149.12045
ionization energy=70 eV
ion type=[M]+*
computed spectral entropy=1.743979793854217
computed normalized entropy=0.8386770000013453
SPLASH=splash10-000t-0900000000-76d1788f7cc0cdc368bd
submitter=submitter = University of Tokyo Team (Faculty of Engineering, University of Tokyo)
MoNA Rating=3.75

>  <NUM PEAKS>  (4547) 
8

>  <MASS SPECTRAL PEAKS>  (4547) 
77 19.9
105 15.8
118 26.8
132 2.4
133 21.3
134 74.1
148 85.6
149 99.99

>  <PREDICTED SPECTRUM>  (4547) 
27 62
29 76
30 21
39 208
40 33
41 287
42 28
50 88
51 268
52 151
53 93
54 37
55 110
56 6
57 109
62 12
63 66
64 78
65 275
66 138
76 53
77 500
78 257
79 265
80 32
89 1
90 53
91 155
92 212
93 232
94 53
104 381
105 125
106 999
107 426
108 55
117 94
120 164
121 9
134 1
148 98
149 660
150 239
151 75

$$$$

     RDKit          2D

 11 11  0  0  0  0  0  0  0  0999 V2000
   -6.4962    0.7508    0.0000 C   0  0  0  0  0  0  0  0  0  0  0  0
   -5.1970    1.5006    0.0000 C   0  0  0  0  0  0  0  0  0  0  0  0
   -3.8981    0.7504    0.0000 C   0  0  0  0  0  0  0  0  0  0  0  0
   -2.5989    1.5002    0.0000 C   0  0  0  0  0  0  0  0  0  0  0  0
   -1.3000   -0.7500    0.0000 C   0  0  0  0  0  0  0  0  0  0  0  0
    0.0000    1.5000    0.0000 C   0  0  0  0  0  0  0  0  0  0  0  0
    0.0000   -1.5000    0.0000 C   0  0  0  0  0  0  0  0  0  0  0  0
    1.3000    0.7500    0.0000 C   0  0  0  0  0  0  0  0  0  0  0  0
   -1.3000    0.7500    0.0000 C   0  0  0  0  0  0  0  0  0  0  0  0
    1.3000   -0.7500    0.0000 C   0  0  0  0  0  0  0  0  0  0  0  0
    2.5989   -1.5002    0.0000 N   0  0  0  0  0  0  0  0  0  0  0  0
  2  1  1  0
  3  2  1  0
  4  3  1  0
  7  5  2  0
  8  6  1  0
  9  4  1  0
  9  5  1  0
  9  6  2  0
 10  7  1  0
 10  8  2  0
 11 10  1  0
M  END
>  <NAME>  (4548) 
4-BUTYLANILINE

>  <SYNONYMS>  (4548) 


>  <SPECTRUM TYPE>  (4548) 
MS1

>  <INSTRUMENT TYPE>  (4548) 
EI-B

>  <INSTRUMENT>  (4548) 
HITACHI RMU-6L

>  <ION MODE>  (4548) 
P

>  <INCHIKEY>  (4548) 
OGIQUQKNJJTLSZ-UHFFFAOYSA-N

>  <FORMULA>  (4548) 
C10H15N

>  <EXACT MASS>  (4548) 
149.12044948

>  <MW>  (4548) 
149

>  <ID>  (4548) 
JP003989

>  <CONTRIBUTOR>  (4548) 
University of Tokyo Team, {Faculty of Engineering, University of Tokyo

>  <COMMENT>  (4548) 
SMILES=CCCCc(c1)ccc(N)c1
InChI=InChI=1S/C10H15N/c1-2-3-4-9-5-7-10(11)8-6-9/h5-8H,2-4,11H2,1H3
computed SMILES=NC1=CC=C(C=C1)CCCC
accession=JP003989
date=2016.01.19 (Created 2008.10.21, modified 2011.05.06)
author=MASS SPECTROSCOPY SOC. OF JAPAN (MSSJ)
license=CC BY-NC-SA
exact mass=149.12045
ionization energy=70 eV
ion type=[M]+*
computed spectral entropy=1.2797598667028414
computed normalized entropy=0.6154344044069701
SPLASH=splash10-0a4i-0900000000-6957abbe8b5c823bc53b
submitter=submitter = University of Tokyo Team (Faculty of Engineering, University of Tokyo)
MoNA Rating=3.75

>  <NUM PEAKS>  (4548) 
8

>  <MASS SPECTRAL PEAKS>  (4548) 
77 6.2
78 3.3
79 2.9
106 99.99
107 24.1
120 2.9
149 20
150 4.2

>  <PREDICTED SPECTRUM>  (4548) 
26 9
27 80
28 8
29 55
37 3
38 43
39 152
40 38
41 159
43 5
50 52
51 136
52 134
53 96
54 74
62 6
63 68
64 36
65 152
66 50
74 9
75 29
76 9
77 220
78 137
79 141
80 85
89 45
90 78
91 162
92 133
93 110
104 54
105 13
106 999
107 378
108 24
115 41
118 64
120 119
149 429
150 152
151 6

$$$$

     RDKit          2D

  9  9  0  0  0  0  0  0  0  0999 V2000
    2.2717    0.9387    0.0000 C   0  0  0  0  0  0  0  0  0  0  0  0
   -1.5992    3.1622    0.0000 C   0  0  0  0  0  0  0  0  0  0  0  0
   -0.2942   -2.0513    0.0000 C   0  0  0  0  0  0  0  0  0  0  0  0
   -1.5771   -1.3236    0.0000 C   0  0  0  0  0  0  0  0  0  0  0  0
    0.9829   -1.2989    0.0000 C   0  0  0  0  0  0  0  0  0  0  0  0
   -1.6133    0.1760    0.0000 C   0  0  0  0  0  0  0  0  0  0  0  0
    0.9770    0.1813    0.0000 C   0  0  0  0  0  0  0  0  0  0  0  0
   -0.3059    0.9090    0.0000 C   0  0  0  0  0  0  0  0  0  0  0  0
   -0.3021    2.4090    0.0000 N   0  0  0  0  0  0  0  0  0  0  0  0
  4  3  2  0
  5  3  1  0
  6  4  1  0
  7  1  1  0
  7  5  2  0
  8  6  2  0
  8  7  1  0
  9  2  1  0
  9  8  1  0
M  END
>  <NAME>  (4549) 
N-METHYL-ORTHO-TOLUIDINE

>  <SYNONYMS>  (4549) 


>  <SPECTRUM TYPE>  (4549) 
MS1

>  <INSTRUMENT TYPE>  (4549) 
EI-B

>  <INSTRUMENT>  (4549) 
HITACHI RMU-6L

>  <ION MODE>  (4549) 
P

>  <INCHIKEY>  (4549) 
GUAWMXYQZKVRCW-UHFFFAOYSA-N

>  <FORMULA>  (4549) 
C8H11N

>  <EXACT MASS>  (4549) 
121.08914935199999

>  <MW>  (4549) 
121

>  <ID>  (4549) 
JP003988

>  <CONTRIBUTOR>  (4549) 
University of Tokyo Team, {Faculty of Engineering, University of Tokyo

>  <COMMENT>  (4549) 
SMILES=CNc(c1)c(C)ccc1
InChI=InChI=1S/C8H11N/c1-7-5-3-4-6-8(7)9-2/h3-6,9H,1-2H3
computed SMILES=C=1C=CC(=C(C1)NC)C
accession=JP003988
date=2016.01.19 (Created 2008.10.21, modified 2011.05.06)
author=MASS SPECTROSCOPY SOC. OF JAPAN (MSSJ)
license=CC BY-NC-SA
exact mass=121.08915
ionization energy=70 eV
ion type=[M]+*
computed spectral entropy=1.67265337305918
computed normalized entropy=0.8043762421462255
SPLASH=splash10-05fr-4900000000-935893c8d232aa4afed2
submitter=submitter = University of Tokyo Team (Faculty of Engineering, University of Tokyo)
MoNA Rating=3.75

>  <NUM PEAKS>  (4549) 
8

>  <MASS SPECTRAL PEAKS>  (4549) 
39 20.1
51 15.6
65 19.2
77 1.86
91 33.7
104 12.1
106 83
121 99.99

>  <PREDICTED SPECTRUM>  (4549) 
15 11
26 2
27 42
28 40
37 40
38 86
39 219
40 64
41 98
42 142
44 72
49 33
50 208
51 337
52 217
53 147
54 69
61 71
62 112
63 231
64 92
65 306
66 110
73 12
74 123
75 184
76 122
77 492
78 340
79 305
80 93
89 92
90 76
91 381
92 158
93 197
94 136
102 42
103 179
104 430
105 283
106 630
107 220
117 129
118 266
119 213
120 780
121 999
122 271
123 6

$$$$

     RDKit          2D

  9  9  0  0  0  0  0  0  0  0999 V2000
   -3.5724    2.0075    0.0000 C   0  0  0  0  0  0  0  0  0  0  0  0
   -2.2733    1.2575    0.0000 C   0  0  0  0  0  0  0  0  0  0  0  0
    2.9228   -0.2425    0.0000 C   0  0  0  0  0  0  0  0  0  0  0  0
    1.6233   -0.9933    0.0000 C   0  0  0  0  0  0  0  0  0  0  0  0
    2.9233    1.2583    0.0000 C   0  0  0  0  0  0  0  0  0  0  0  0
    0.3243   -0.2433    0.0000 C   0  0  0  0  0  0  0  0  0  0  0  0
    1.6243    2.0083    0.0000 C   0  0  0  0  0  0  0  0  0  0  0  0
    0.3248    1.2575    0.0000 C   0  0  0  0  0  0  0  0  0  0  0  0
   -0.9743    2.0075    0.0000 N   0  0  0  0  0  0  0  0  0  0  0  0
  2  1  1  0
  4  3  2  0
  5  3  1  0
  6  4  1  0
  7  5  2  0
  8  6  2  0
  8  7  1  0
  9  2  1  0
  9  8  1  0
M  END
>  <NAME>  (4550) 
N-ETHYLANILINE

>  <SYNONYMS>  (4550) 


>  <SPECTRUM TYPE>  (4550) 
MS1

>  <INSTRUMENT TYPE>  (4550) 
EI-B

>  <INSTRUMENT>  (4550) 
HITACHI RMU-6L

>  <ION MODE>  (4550) 
P

>  <INCHIKEY>  (4550) 
OJGMBLNIHDZDGS-UHFFFAOYSA-N

>  <FORMULA>  (4550) 
C8H11N

>  <EXACT MASS>  (4550) 
121.08914935199999

>  <MW>  (4550) 
121

>  <ID>  (4550) 
JP003985

>  <CONTRIBUTOR>  (4550) 
University of Tokyo Team, {Faculty of Engineering, University of Tokyo

>  <COMMENT>  (4550) 
SMILES=CCNc(c1)cccc1
InChI=InChI=1S/C8H11N/c1-2-9-8-6-4-3-5-7-8/h3-7,9H,2H2,1H3
computed SMILES=C=1C=CC(=CC1)NCC
accession=JP003985
date=2016.01.19 (Created 2008.10.21, modified 2011.05.06)
author=MASS SPECTROSCOPY SOC. OF JAPAN (MSSJ)
license=CC BY-NC-SA
exact mass=121.08915
ionization energy=70 eV
ion type=[M]+*
computed spectral entropy=2.587394587133004
computed normalized entropy=0.687917289042168
SPLASH=splash10-0a4i-7900000000-68397ff70e30fdc1a42f
submitter=submitter = University of Tokyo Team (Faculty of Engineering, University of Tokyo)
MoNA Rating=3.75

>  <NUM PEAKS>  (4550) 
43

>  <MASS SPECTRAL PEAKS>  (4550) 
15 4.2
26 3.1
27 11.3
28 1.1
29 5.6
30 3.3
37 1
38 0.31
39 12.1
40 2.6
41 2.3
42 0.24
43 1.5
44 2.3
50 3.4
51 1.42
52 5.6
52.5 2
53 10.2
58 0.11
60 1
61 1
62 1.1
63 0.36
64 2.4
65 7.6
66 3.6
74 0.13
75 1.1
76 1.1
77 23
78 0.52
79 6.5
91 2.2
92 2
93 0.1
104 2.5
105 1
106 99.99
107 0.69
120 6.3
121 36
122 3.3

>  <PREDICTED SPECTRUM>  (4550) 
26 37
27 192
28 102
29 153
30 80
37 29
38 87
39 207
40 68
41 107
42 272
43 35
44 174
49 27
50 213
51 420
52 256
53 84
58 9
61 30
62 107
63 223
64 161
65 408
66 242
67 110
74 74
75 140
76 202
77 578
78 386
79 231
80 71
89 45
90 131
91 265
92 460
93 449
94 150
102 47
103 93
104 505
105 216
106 999
107 322
108 65
118 96
119 84
120 381
121 990
122 258
123 44

$$$$

     RDKit          2D

  8  8  0  0  0  0  0  0  0  0999 V2000
    2.2649    0.9387    0.0000 C   0  0  0  0  0  0  0  0  0  0  0  0
   -0.3010   -2.0513    0.0000 C   0  0  0  0  0  0  0  0  0  0  0  0
   -1.5839   -1.3236    0.0000 C   0  0  0  0  0  0  0  0  0  0  0  0
    0.9761   -1.2989    0.0000 C   0  0  0  0  0  0  0  0  0  0  0  0
   -1.6201    0.1760    0.0000 C   0  0  0  0  0  0  0  0  0  0  0  0
    0.9702    0.1812    0.0000 C   0  0  0  0  0  0  0  0  0  0  0  0
   -0.3126    0.9089    0.0000 C   0  0  0  0  0  0  0  0  0  0  0  0
   -0.3089    2.4089    0.0000 N   0  0  0  0  0  0  0  0  0  0  0  0
  3  2  2  0
  4  2  1  0
  5  3  1  0
  6  1  1  0
  6  4  2  0
  7  5  2  0
  7  6  1  0
  8  7  1  0
M  END
>  <NAME>  (4551) 
ORTHO-TOLUIDINE

>  <SYNONYMS>  (4551) 


>  <SPECTRUM TYPE>  (4551) 
MS1

>  <INSTRUMENT TYPE>  (4551) 
EI-B

>  <INSTRUMENT>  (4551) 
HITACHI RMU-6L

>  <ION MODE>  (4551) 
P

>  <INCHIKEY>  (4551) 
RNVCVTLRINQCPJ-UHFFFAOYSA-N

>  <FORMULA>  (4551) 
C7H9N

>  <EXACT MASS>  (4551) 
107.073499288

>  <MW>  (4551) 
107

>  <ID>  (4551) 
JP003983

>  <CONTRIBUTOR>  (4551) 
University of Tokyo Team, {Faculty of Engineering, University of Tokyo

>  <COMMENT>  (4551) 
SMILES=Cc(c1)c(N)ccc1
InChI=InChI=1S/C7H9N/c1-6-4-2-3-5-7(6)8/h2-5H,8H2,1H3
computed SMILES=NC=1C=CC=CC1C
accession=JP003983
date=2016.01.19 (Created 2008.10.21, modified 2011.05.06)
author=MASS SPECTROSCOPY SOC. OF JAPAN (MSSJ)
license=CC BY-NC-SA
exact mass=107.0735
ionization energy=70 eV
ion type=[M]+*
computed spectral entropy=2.5711303226810007
computed normalized entropy=0.6969949424109286
SPLASH=splash10-0a4i-6900000000-68480e71423ffd272f9d
submitter=submitter = University of Tokyo Team (Faculty of Engineering, University of Tokyo)
MoNA Rating=3.75

>  <NUM PEAKS>  (4551) 
40

>  <MASS SPECTRAL PEAKS>  (4551) 
26 3
27 8.2
28 8.5
29 0.19
30 4
37 1.6
38 4
39 1.2
40 2
41 3
42 1.9
49 0.15
50 5.9
51 8.7
52 8.6
52.5 0.2
53 9.1
53.5 4.8
54 8.2
62 0.15
63 4.1
64 2.1
65 4
66 0.2
67 1.5
74 1.5
75 2.3
76 0.11
77 17
78 7.5
79 12
80 0.29
89 5.7
90 5
91 2.9
104 0.13
105 5.1
106 99.99
107 83.4
108 6

>  <PREDICTED SPECTRUM>  (4551) 
25 15
26 62
27 138
28 114
37 104
38 134
39 307
40 83
41 243
42 44
46 24
49 49
50 227
51 361
52 303
53 219
54 151
55 35
57 30
60 4
61 155
62 146
63 285
64 169
65 375
66 193
67 123
68 25
73 10
74 175
75 173
76 90
77 472
78 426
79 448
80 298
81 67
89 254
90 179
91 292
92 322
93 75
102 6
104 359
105 237
106 841
107 999
108 272

$$$$

     RDKit          2D

  6  6  0  0  0  0  0  0  0  0999 V2000
   -2.5600    0.0000    0.0000 C   0  0  0  0  0  0  0  0  0  0  0  0
   -0.0000   -1.0600    0.0000 C   0  0  0  0  0  0  0  0  0  0  0  0
   -1.0600    0.0000    0.0000 C   0  0  0  0  0  0  0  0  0  0  0  0
    1.0600   -0.0000    0.0000 C   0  0  0  0  0  0  0  0  0  0  0  0
    2.5600   -0.0000    0.0000 O   0  0  0  0  0  0  0  0  0  0  0  0
    0.0000    1.0600    0.0000 O   0  0  0  0  0  0  0  0  0  0  0  0
  3  1  1  0
  3  2  1  0
  4  2  1  0
  5  4  2  0
  6  3  1  0
  6  4  1  0
M  END
>  <NAME>  (4552) 
BETA-BUTYROLACTONE

>  <SYNONYMS>  (4552) 


>  <SPECTRUM TYPE>  (4552) 
MS1

>  <INSTRUMENT TYPE>  (4552) 
EI-B

>  <INSTRUMENT>  (4552) 
HITACHI RMU-6L

>  <ION MODE>  (4552) 
P

>  <INCHIKEY>  (4552) 
GSCLMSFRWBPUSK-UHFFFAOYSA-N

>  <FORMULA>  (4552) 
C4H6O2

>  <EXACT MASS>  (4552) 
86.036779432

>  <MW>  (4552) 
86

>  <ID>  (4552) 
JP003981

>  <CONTRIBUTOR>  (4552) 
University of Tokyo Team, {Faculty of Engineering, University of Tokyo

>  <COMMENT>  (4552) 
SMILES=CC(C1)OC(=O)1
InChI=InChI=1S/C4H6O2/c1-3-2-4(5)6-3/h3H,2H2,1H3
computed SMILES=O=C1OC(C)C1
accession=JP003981
date=2016.01.19 (Created 2008.10.21, modified 2011.05.06)
author=MASS SPECTROSCOPY SOC. OF JAPAN (MSSJ)
license=CC BY-NC-SA
exact mass=86.03678
ionization energy=70 eV
ion type=[M]+*
computed spectral entropy=1.9802946836208206
computed normalized entropy=0.8258470276351121
SPLASH=splash10-0006-9000000000-c576708f6e6f49514f71
submitter=submitter = University of Tokyo Team (Faculty of Engineering, University of Tokyo)
MoNA Rating=3.75

>  <NUM PEAKS>  (4552) 
11

>  <MASS SPECTRAL PEAKS>  (4552) 
27 16.5
28 12.5
29 13.2
38 0.95
39 23.7
40 12.3
41 32.4
42 99.99
43 56.1
44 27.6
71 4.2

>  <PREDICTED SPECTRUM>  (4552) 
14 84
15 232
16 47
19 5
25 23
26 189
27 471
28 373
29 296
31 107
37 97
38 188
39 521
40 265
41 924
42 999
43 839
44 474
45 453
50 273
51 31
52 57
54 35
57 48
71 21
86 44

$$$$

     RDKit          2D

  8  8  0  0  0  0  0  0  0  0999 V2000
   -0.7500   -1.5600    0.0000 C   0  0  0  0  0  0  0  0  0  0  0  0
   -1.6900   -0.3900    0.0000 C   0  0  0  0  0  0  0  0  0  0  0  0
    0.7500   -1.5600    0.0000 C   0  0  0  0  0  0  0  0  0  0  0  0
   -1.3500    1.0800    0.0000 C   0  0  0  0  0  0  0  0  0  0  0  0
    1.6900   -0.3900    0.0000 C   0  0  0  0  0  0  0  0  0  0  0  0
    0.0000    1.7300    0.0000 C   0  0  0  0  0  0  0  0  0  0  0  0
    0.0000    3.2300    0.0000 O   0  0  0  0  0  0  0  0  0  0  0  0
    1.3500    1.0800    0.0000 O   0  0  0  0  0  0  0  0  0  0  0  0
  2  1  1  0
  3  1  1  0
  4  2  1  0
  5  3  1  0
  6  4  1  0
  7  6  2  0
  8  5  1  0
  8  6  1  0
M  END
>  <NAME>  (4553) 
OXEPAN-2-ONE

>  <SYNONYMS>  (4553) 


>  <SPECTRUM TYPE>  (4553) 
MS1

>  <INSTRUMENT TYPE>  (4553) 
EI-B

>  <INSTRUMENT>  (4553) 
HITACHI RMU-6L

>  <ION MODE>  (4553) 
P

>  <INCHIKEY>  (4553) 
PAPBSGBWRJIAAV-UHFFFAOYSA-N

>  <FORMULA>  (4553) 
C6H10O2

>  <EXACT MASS>  (4553) 
114.06807956

>  <MW>  (4553) 
114

>  <ID>  (4553) 
JP003980

>  <CONTRIBUTOR>  (4553) 
University of Tokyo Team, {Faculty of Engineering, University of Tokyo

>  <COMMENT>  (4553) 
SMILES=O=C(C1)OCCCC1
InChI=InChI=1S/C6H10O2/c7-6-4-2-1-3-5-8-6/h1-5H2
computed SMILES=O=C1OCCCCC1
accession=JP003980
date=2016.01.19 (Created 2008.10.21, modified 2011.05.06)
author=MASS SPECTROSCOPY SOC. OF JAPAN (MSSJ)
license=CC BY-NC-SA
exact mass=114.06808
ionization energy=70 eV
ion type=[M]+*
computed spectral entropy=2.1476488744980076
computed normalized entropy=0.8137939446776278
SPLASH=splash10-052f-9000000000-d988c3d2aef36f68a34c
submitter=submitter = University of Tokyo Team (Faculty of Engineering, University of Tokyo)
MoNA Rating=3.75

>  <NUM PEAKS>  (4553) 
14

>  <MASS SPECTRAL PEAKS>  (4553) 
27 24
28 23.2
29 18.4
39 2.45
40 8.2
41 58.1
42 99.99
43 0.94
55 95.1
56 43.7
57 6.2
70 1.85
84 27.9
114 18

>  <PREDICTED SPECTRUM>  (4553) 
14 34
15 88
16 34
17 31
18 35
25 20
26 167
27 414
28 261
29 334
30 13
31 199
32 18
33 16
34 18
35 29
36 48
37 46
38 109
39 428
40 242
41 764
42 653
43 492
44 234
45 254
46 44
47 50
48 16
49 40
50 123
51 129
52 91
53 260
54 529
55 999
56 573
57 257
58 33
59 204
60 417
61 152
63 38
65 15
66 52
67 390
68 510
69 546
70 353
71 231
72 117
73 266
81 128
82 195
83 149
84 337
85 288
86 193
87 69
96 226
97 41
98 135
99 143
114 210
115 29

$$$$

     RDKit          2D

 13 13  0  0  0  0  0  0  0  0999 V2000
   -3.4059    1.5253    0.0000 C   0  0  0  0  0  0  0  0  0  0  0  0
    3.5061    2.7383    0.0000 C   0  0  0  0  0  0  0  0  0  0  0  0
   -2.1069    0.7753    0.0000 C   0  0  0  0  0  0  0  0  0  0  0  0
   -0.8078    1.5253    0.0000 C   0  0  0  0  0  0  0  0  0  0  0  0
    0.4912    0.7753    0.0000 C   0  0  0  0  0  0  0  0  0  0  0  0
    1.7903    1.5252    0.0000 C   0  0  0  0  0  0  0  0  0  0  0  0
    6.7958    1.7749    0.0000 C   0  0  0  0  0  0  0  0  0  0  0  0
    3.0893    0.7752    0.0000 C   0  0  0  0  0  0  0  0  0  0  0  0
    5.4967    2.5249    0.0000 C   0  0  0  0  0  0  0  0  0  0  0  0
    6.4841    0.3152    0.0000 C   0  0  0  0  0  0  0  0  0  0  0  0
    4.3883    1.5252    0.0000 C   0  0  0  0  0  0  0  0  0  0  0  0
    7.4876   -0.7998    0.0000 O   0  0  0  0  0  0  0  0  0  0  0  0
    4.9962    0.1581    0.0000 O   0  0  0  0  0  0  0  0  0  0  0  0
  3  1  1  0
  4  3  1  0
  5  4  1  0
  6  5  1  0
  8  6  1  0
  9  7  1  0
 10  7  1  0
 11  2  1  0
 11  8  1  0
 11  9  1  0
 12 10  2  0
 13 10  1  0
 13 11  1  0
M  END
>  <NAME>  (4554) 
5-HEXYL-5-METHYLOXOLAN-2-ONE

>  <SYNONYMS>  (4554) 


>  <SPECTRUM TYPE>  (4554) 
MS1

>  <INSTRUMENT TYPE>  (4554) 
EI-B

>  <INSTRUMENT>  (4554) 
HITACHI RMU-6L

>  <ION MODE>  (4554) 
P

>  <INCHIKEY>  (4554) 
ALWUKGXLBSQSMA-UHFFFAOYSA-N

>  <FORMULA>  (4554) 
C11H20O2

>  <EXACT MASS>  (4554) 
184.14632988

>  <MW>  (4554) 
184

>  <ID>  (4554) 
JP003979

>  <CONTRIBUTOR>  (4554) 
University of Tokyo Team, {Faculty of Engineering, University of Tokyo

>  <COMMENT>  (4554) 
SMILES=CCCCCCC(C)(C1)OC(=O)C1
InChI=InChI=1S/C11H20O2/c1-3-4-5-6-8-11(2)9-7-10(12)13-11/h3-9H2,1-2H3
computed SMILES=O=C1OC(C)(CC1)CCCCCC
accession=JP003979
date=2016.01.19 (Created 2008.10.21, modified 2011.05.06)
author=MASS SPECTROSCOPY SOC. OF JAPAN (MSSJ)
license=CC BY-NC-SA
exact mass=184.14633
ionization energy=70 eV
ion type=[M]+*
computed spectral entropy=2.5829020552016573
computed normalized entropy=0.7207725421745506
SPLASH=splash10-0002-9100000000-6811a818d6994586cd8f
submitter=submitter = University of Tokyo Team (Faculty of Engineering, University of Tokyo)
MoNA Rating=3.75

>  <NUM PEAKS>  (4554) 
36

>  <MASS SPECTRAL PEAKS>  (4554) 
27 7.5
28 15.9
29 6.8
32 0.32
39 5
41 17.5
42 3
43 3.85
53 3.5
54 2.9
55 10.3
56 0.9
57 3.1
58 3
67 3.2
68 0.41
69 6.4
70 6.6
71 9.1
81 0.39
83 3
85 2.5
95 2.2
96 0.22
98 2.6
99 99.99
100 8.2
109 0.28
110 2.8
111 2
114 3.5
129 0.45
151 2.9
169 4.2
170 2.1
184 3

>  <PREDICTED SPECTRUM>  (4554) 
26 1
27 52
28 14
29 52
39 37
40 11
41 146
42 38
43 175
53 107
54 61
55 210
56 114
57 27
58 29
65 2
67 124
68 43
69 180
70 53
71 84
81 70
82 51
83 69
85 12
99 999
100 151
101 91
111 42
113 29
114 48
169 43
184 71

$$$$

     RDKit          2D

 12 12  0  0  0  0  0  0  0  0999 V2000
   -1.6700   -0.9602    0.0000 C   0  0  0  0  0  0  0  0  0  0  0  0
   -0.3708   -1.7100    0.0000 C   0  0  0  0  0  0  0  0  0  0  0  0
    0.9281   -0.9598    0.0000 C   0  0  0  0  0  0  0  0  0  0  0  0
    2.2272   -1.7096    0.0000 C   0  0  0  0  0  0  0  0  0  0  0  0
    3.5262   -0.9594    0.0000 C   0  0  0  0  0  0  0  0  0  0  0  0
    7.4242    1.2910    0.0000 C   0  0  0  0  0  0  0  0  0  0  0  0
    8.7242    0.5410    0.0000 C   0  0  0  0  0  0  0  0  0  0  0  0
    4.8253   -1.7092    0.0000 C   0  0  0  0  0  0  0  0  0  0  0  0
    6.1242    0.5410    0.0000 C   0  0  0  0  0  0  0  0  0  0  0  0
    8.7242   -0.9590    0.0000 C   0  0  0  0  0  0  0  0  0  0  0  0
    6.1242   -0.9590    0.0000 C   0  0  0  0  0  0  0  0  0  0  0  0
    7.4242   -1.7090    0.0000 N   0  0  0  0  0  0  0  0  0  0  0  0
  2  1  1  0
  3  2  1  0
  4  3  1  0
  5  4  1  0
  7  6  2  0
  8  5  1  0
  9  6  1  0
 10  7  1  0
 11  8  1  0
 11  9  2  0
 12 10  2  0
 12 11  1  0
M  END
>  <NAME>  (4555) 
2-HEXYLPYRIDINE

>  <SYNONYMS>  (4555) 


>  <SPECTRUM TYPE>  (4555) 
MS1

>  <INSTRUMENT TYPE>  (4555) 
EI-B

>  <INSTRUMENT>  (4555) 
HITACHI RMU-6L

>  <ION MODE>  (4555) 
P

>  <INCHIKEY>  (4555) 
NZLJDTKLZIMONR-UHFFFAOYSA-N

>  <FORMULA>  (4555) 
C11H17N

>  <EXACT MASS>  (4555) 
163.136099544

>  <MW>  (4555) 
163

>  <ID>  (4555) 
JP003978

>  <CONTRIBUTOR>  (4555) 
University of Tokyo Team, {Faculty of Engineering, University of Tokyo

>  <COMMENT>  (4555) 
SMILES=CCCCCCc(c1)nccc1
InChI=InChI=1S/C11H17N/c1-2-3-4-5-8-11-9-6-7-10-12-11/h6-7,9-10H,2-5,8H2,1H3
computed SMILES=N=1C=CC=CC1CCCCCC
accession=JP003978
date=2016.01.19 (Created 2008.10.21, modified 2011.05.06)
author=MASS SPECTROSCOPY SOC. OF JAPAN (MSSJ)
license=CC BY-NC-SA
exact mass=163.1361
ionization energy=70 eV
ion type=[M]+*
computed spectral entropy=2.7168353612903955
computed normalized entropy=0.7223320423591483
SPLASH=splash10-0006-9200000000-bf54e6006e95c9a5b19e
submitter=submitter = University of Tokyo Team (Faculty of Engineering, University of Tokyo)
MoNA Rating=3.75

>  <NUM PEAKS>  (4555) 
43

>  <MASS SPECTRAL PEAKS>  (4555) 
26 3
27 16
28 8.2
29 1.1
38 3.3
39 13.5
40 2.1
41 0.93
42 2.5
43 2.4
50 2.5
51 0.54
52 4.3
53 2.7
55 2.7
57 0.22
63 2
64 2.5
65 6.3
66 0.43
67 2
77 2.5
78 5.6
79 0.32
80 2.5
91 2.9
92 5.5
93 99.99
94 6.4
106 7.5
107 2.2
117 0.21
118 6.9
119 2.3
120 10.5
121 0.24
132 2.1
134 7.8
135 2.5
148 0.56
149 2.6
163 2.1
164 2.6

>  <PREDICTED SPECTRUM>  (4555) 
26 31
27 138
28 61
29 101
36 3
37 21
38 61
39 223
40 65
41 249
42 91
43 203
50 104
51 194
52 114
53 128
54 63
55 135
62 2
63 64
64 57
65 270
66 159
67 151
69 10
71 79
76 6
77 150
78 186
79 101
80 18
90 11
91 97
92 378
93 999
94 117
95 21
104 56
105 103
106 384
107 287
108 84
117 34
118 86
119 44
120 333
121 78
130 7
134 213
135 69
144 16
146 79
148 68
149 1
162 9
163 58
164 10

$$$$

     RDKit          2D

 11 11  0  0  0  0  0  0  0  0999 V2000
   -5.5207    3.1321    0.0000 C   0  0  0  0  0  0  0  0  0  0  0  0
   -4.2216    2.3821    0.0000 C   0  0  0  0  0  0  0  0  0  0  0  0
   -2.9226    3.1321    0.0000 C   0  0  0  0  0  0  0  0  0  0  0  0
   -1.6236    2.3821    0.0000 C   0  0  0  0  0  0  0  0  0  0  0  0
   -0.3245    3.1321    0.0000 C   0  0  0  0  0  0  0  0  0  0  0  0
    2.2740    3.1329    0.0000 C   0  0  0  0  0  0  0  0  0  0  0  0
    0.9740    0.8813    0.0000 C   0  0  0  0  0  0  0  0  0  0  0  0
    3.5731    2.3829    0.0000 C   0  0  0  0  0  0  0  0  0  0  0  0
    2.2731    0.1313    0.0000 C   0  0  0  0  0  0  0  0  0  0  0  0
    0.9745    2.3821    0.0000 C   0  0  0  0  0  0  0  0  0  0  0  0
    3.5726    0.8821    0.0000 N   0  0  0  0  0  0  0  0  0  0  0  0
  2  1  1  0
  3  2  1  0
  4  3  1  0
  5  4  1  0
  8  6  2  0
  9  7  1  0
 10  5  1  0
 10  6  1  0
 10  7  2  0
 11  8  1  0
 11  9  2  0
M  END
>  <NAME>  (4556) 
4-PENTYLPYRIDINE

>  <SYNONYMS>  (4556) 


>  <SPECTRUM TYPE>  (4556) 
MS1

>  <INSTRUMENT TYPE>  (4556) 
EI-B

>  <INSTRUMENT>  (4556) 
HITACHI RMU-6L

>  <ION MODE>  (4556) 
P

>  <INCHIKEY>  (4556) 
ABJVUPUJUGBUMM-UHFFFAOYSA-N

>  <FORMULA>  (4556) 
C10H15N

>  <EXACT MASS>  (4556) 
149.12044948

>  <MW>  (4556) 
149

>  <ID>  (4556) 
JP003977

>  <CONTRIBUTOR>  (4556) 
University of Tokyo Team, {Faculty of Engineering, University of Tokyo

>  <COMMENT>  (4556) 
SMILES=CCCCCc(c1)ccnc1
InChI=InChI=1S/C10H15N/c1-2-3-4-5-10-6-8-11-9-7-10/h6-9H,2-5H2,1H3
computed SMILES=N=1C=CC(=CC1)CCCCC
accession=JP003977
date=2016.01.19 (Created 2008.10.21, modified 2011.05.06)
author=MASS SPECTROSCOPY SOC. OF JAPAN (MSSJ)
license=CC BY-NC-SA
exact mass=149.12045
ionization energy=70 eV
ion type=[M]+*
computed spectral entropy=2.7734159521629493
computed normalized entropy=0.742017416038157
SPLASH=splash10-0006-9100000000-e8e7b3253821b5837e48
submitter=submitter = University of Tokyo Team (Faculty of Engineering, University of Tokyo)
MoNA Rating=3.75

>  <NUM PEAKS>  (4556) 
42

>  <MASS SPECTRAL PEAKS>  (4556) 
26 4.5
27 23.6
28 6.5
29 2.71
38 2.1
39 23.8
40 3
41 1.85
42 3.1
43 3.9
50 4.2
51 1.25
52 5.5
53 4.2
54 3.2
55 0.24
57 5
63 3.7
64 3
65 1.34
66 2
77 4.4
78 4.2
79 0.31
80 3
91 3.5
92 9.8
93 99.99
94 7.6
104 3.2
105 3
106 1.17
107 3
110 3.2
117 2.8
119 0.36
120 2.5
134 2.8
135 2.3
148 0.35
149 26.3
150 2.5

>  <PREDICTED SPECTRUM>  (4556) 
26 25
27 141
28 66
29 157
37 13
38 68
39 321
40 101
41 360
42 71
43 110
50 135
51 266
52 214
53 170
54 82
55 87
56 28
57 218
58 23
62 45
63 120
64 91
65 371
66 166
75 10
76 47
77 224
78 325
79 249
80 172
90 28
91 136
92 650
93 999
94 316
95 12
104 152
105 107
106 527
107 259
108 1
116 11
117 135
118 84
120 279
121 106
130 109
131 0
132 82
133 76
134 200
135 44
148 156
149 457
150 184
151 4

$$$$

     RDKit          2D

 11 11  0  0  0  0  0  0  0  0999 V2000
    7.4251    1.2910    0.0000 C   0  0  0  0  0  0  0  0  0  0  0  0
    6.1262    0.5408    0.0000 C   0  0  0  0  0  0  0  0  0  0  0  0
    4.8270    1.2906    0.0000 C   0  0  0  0  0  0  0  0  0  0  0  0
    3.5281    0.5404    0.0000 C   0  0  0  0  0  0  0  0  0  0  0  0
   -0.3700   -1.7100    0.0000 C   0  0  0  0  0  0  0  0  0  0  0  0
   -1.6700   -0.9600    0.0000 C   0  0  0  0  0  0  0  0  0  0  0  0
    2.2289    1.2902    0.0000 C   0  0  0  0  0  0  0  0  0  0  0  0
    0.9300   -0.9600    0.0000 C   0  0  0  0  0  0  0  0  0  0  0  0
   -1.6700    0.5400    0.0000 C   0  0  0  0  0  0  0  0  0  0  0  0
    0.9300    0.5400    0.0000 C   0  0  0  0  0  0  0  0  0  0  0  0
   -0.3700    1.2900    0.0000 N   0  0  0  0  0  0  0  0  0  0  0  0
  2  1  1  0
  3  2  1  0
  4  3  1  0
  6  5  2  0
  7  4  1  0
  8  5  1  0
  9  6  1  0
 10  7  1  0
 10  8  2  0
 11  9  2  0
 11 10  1  0
M  END
>  <NAME>  (4557) 
2-PENTYLPYRIDINE

>  <SYNONYMS>  (4557) 


>  <SPECTRUM TYPE>  (4557) 
MS1

>  <INSTRUMENT TYPE>  (4557) 
EI-B

>  <INSTRUMENT>  (4557) 
HITACHI RMU-6L

>  <ION MODE>  (4557) 
P

>  <INCHIKEY>  (4557) 
HSDXVAOHEOSTFZ-UHFFFAOYSA-N

>  <FORMULA>  (4557) 
C10H15N

>  <EXACT MASS>  (4557) 
149.12044948

>  <MW>  (4557) 
149

>  <ID>  (4557) 
JP003976

>  <CONTRIBUTOR>  (4557) 
University of Tokyo Team, {Faculty of Engineering, University of Tokyo

>  <COMMENT>  (4557) 
SMILES=CCCCCc(c1)nccc1
InChI=InChI=1S/C10H15N/c1-2-3-4-7-10-8-5-6-9-11-10/h5-6,8-9H,2-4,7H2,1H3
computed SMILES=N=1C=CC=CC1CCCCC
accession=JP003976
date=2016.01.19 (Created 2008.10.21, modified 2011.05.06)
author=MASS SPECTROSCOPY SOC. OF JAPAN (MSSJ)
license=CC BY-NC-SA
exact mass=149.12045
ionization energy=70 eV
ion type=[M]+*
computed spectral entropy=2.544924086486105
computed normalized entropy=0.7101745882170603
SPLASH=splash10-0006-9200000000-2b5ea572618b9c05ad49
submitter=submitter = University of Tokyo Team (Faculty of Engineering, University of Tokyo)
MoNA Rating=3.75

>  <NUM PEAKS>  (4557) 
36

>  <MASS SPECTRAL PEAKS>  (4557) 
26 3.2
27 17
28 4.2
29 1.07
38 3
39 13
40 2.5
41 0.2
50 2.5
51 7.3
52 5.4
53 0.31
63 2.3
64 2.3
65 8.5
66 0.3
67 2.5
76 2.1
77 7.2
78 0.37
79 2
91 3
92 5.7
93 99.99
94 8.8
104 3
106 22.9
107 0.62
117 3
118 3
119 2.2
120 2.15
121 2.9
134 1.9
148 2.8
149 2

>  <PREDICTED SPECTRUM>  (4557) 
26 25
27 133
28 38
29 97
37 23
38 60
39 303
40 80
41 308
42 65
43 128
50 132
51 251
52 168
53 145
54 62
55 87
57 127
63 74
64 74
65 292
66 169
67 39
75 6
76 27
77 91
78 254
79 142
80 42
91 41
92 405
93 999
94 329
95 39
104 98
105 98
106 607
107 208
116 34
117 44
118 13
120 327
121 77
130 32
132 31
134 79
148 97
149 31
150 10

$$$$

     RDKit          2D

 10 10  0  0  0  0  0  0  0  0999 V2000
   -2.9229    1.3124    0.0000 C   0  0  0  0  0  0  0  0  0  0  0  0
    0.9739   -2.4384    0.0000 C   0  0  0  0  0  0  0  0  0  0  0  0
    3.5729    2.0631    0.0000 C   0  0  0  0  0  0  0  0  0  0  0  0
   -1.6239    2.0624    0.0000 C   0  0  0  0  0  0  0  0  0  0  0  0
   -0.3253   -0.1884    0.0000 C   0  0  0  0  0  0  0  0  0  0  0  0
    0.9747    2.0633    0.0000 C   0  0  0  0  0  0  0  0  0  0  0  0
    0.9737   -0.9384    0.0000 C   0  0  0  0  0  0  0  0  0  0  0  0
    2.2737    1.3133    0.0000 C   0  0  0  0  0  0  0  0  0  0  0  0
   -0.3248    1.3124    0.0000 C   0  0  0  0  0  0  0  0  0  0  0  0
    2.2732   -0.1876    0.0000 N   0  0  0  0  0  0  0  0  0  0  0  0
  4  1  1  0
  7  2  1  0
  7  5  2  0
  8  3  1  0
  8  6  1  0
  9  4  1  0
  9  5  1  0
  9  6  2  0
 10  7  1  0
 10  8  2  0
M  END
>  <NAME>  (4558) 
2,6-DIMETHYL-4-ETHYLPYRIDINE

>  <SYNONYMS>  (4558) 


>  <SPECTRUM TYPE>  (4558) 
MS1

>  <INSTRUMENT TYPE>  (4558) 
EI-B

>  <INSTRUMENT>  (4558) 
HITACHI RMU-6L

>  <ION MODE>  (4558) 
P

>  <INCHIKEY>  (4558) 
YFCLFEIWFHJNFU-UHFFFAOYSA-N

>  <FORMULA>  (4558) 
C9H13N

>  <EXACT MASS>  (4558) 
135.104799416

>  <MW>  (4558) 
135

>  <ID>  (4558) 
JP003975

>  <CONTRIBUTOR>  (4558) 
University of Tokyo Team, {Faculty of Engineering, University of Tokyo

>  <COMMENT>  (4558) 
SMILES=CCc(c1)cc(C)nc(C)1
InChI=InChI=1S/C9H13N/c1-4-9-5-7(2)10-8(3)6-9/h5-6H,4H2,1-3H3
computed SMILES=N=1C(=CC(=CC1C)CC)C
accession=JP003975
date=2016.01.19 (Created 2008.10.21, modified 2011.05.06)
author=MASS SPECTROSCOPY SOC. OF JAPAN (MSSJ)
license=CC BY-NC-SA
exact mass=135.1048
ionization energy=70 eV
ion type=[M]+*
computed spectral entropy=2.9682982487461844
computed normalized entropy=0.7843946884006237
SPLASH=splash10-000i-8900000000-ae1468f747a8dda326a0
submitter=submitter = University of Tokyo Team (Faculty of Engineering, University of Tokyo)
MoNA Rating=3.75

>  <NUM PEAKS>  (4558) 
44

>  <MASS SPECTRAL PEAKS>  (4558) 
26 3
27 17.2
28 7
29 0.45
31 2.1
37 2.5
38 4
39 2
40 3.3
41 9.5
42 15.9
50 0.41
51 10.2
52 6.5
53 8.5
54 0.27
55 3
62 3
63 7.3
64 0.35
65 10.5
66 3
67 4.8
77 1.85
78 6.2
79 15.8
91 8.2
92 0.3
93 7
94 3.2
104 2.4
105 0.28
106 3.9
107 6.4
108 3.1
117 0.29
118 4.2
119 2.8
120 36.8
121 1.05
133 3.5
134 12.7
135 99.99
136 9.2

>  <PREDICTED SPECTRUM>  (4558) 
26 48
27 160
28 65
29 59
37 39
38 101
39 384
40 158
41 285
42 218
43 52
49 9
50 178
51 290
52 237
53 255
54 181
55 54
56 4
60 9
61 66
62 101
63 178
64 140
65 309
66 200
67 256
68 90
69 6
74 40
75 64
76 104
77 391
78 205
79 288
80 180
81 99
82 1
89 78
90 104
91 258
92 164
93 316
94 179
95 87
102 30
103 73
104 71
105 228
106 291
107 429
108 141
109 21
115 43
116 28
117 99
118 187
119 244
120 999
121 268
122 0
132 177
133 75
134 700
135 795
136 234
137 0

$$$$

     RDKit          2D

 14 15  0  0  0  0  0  0  0  0999 V2000
    7.8395    1.4601    0.0000 C   0  0  0  0  0  0  0  0  0  0  0  0
    0.0000    1.5000    0.0000 C   0  0  0  0  0  0  0  0  0  0  0  0
   -1.3000    0.7500    0.0000 C   0  0  0  0  0  0  0  0  0  0  0  0
    1.3000    0.7500    0.0000 C   0  0  0  0  0  0  0  0  0  0  0  0
    6.5180   -0.7725    0.0000 C   0  0  0  0  0  0  0  0  0  0  0  0
    5.2670    1.4882    0.0000 C   0  0  0  0  0  0  0  0  0  0  0  0
    5.2417   -1.5117    0.0000 C   0  0  0  0  0  0  0  0  0  0  0  0
    3.9107    0.7495    0.0000 C   0  0  0  0  0  0  0  0  0  0  0  0
   -1.3000   -0.7500    0.0000 C   0  0  0  0  0  0  0  0  0  0  0  0
    6.5306    0.7275    0.0000 C   0  0  0  0  0  0  0  0  0  0  0  0
    3.8981   -0.7504    0.0000 C   0  0  0  0  0  0  0  0  0  0  0  0
    1.3000   -0.7500    0.0000 C   0  0  0  0  0  0  0  0  0  0  0  0
   -0.0000   -1.5000    0.0000 N   0  0  0  0  0  0  0  0  0  0  0  0
    2.5989   -1.5002    0.0000 O   0  0  0  0  0  0  0  0  0  0  0  0
  3  2  2  0
  4  2  1  0
  7  5  2  0
  8  6  1  0
  9  3  1  0
 10  1  1  0
 10  5  1  0
 10  6  2  0
 11  7  1  0
 11  8  2  0
 12  4  2  0
 13  9  2  0
 13 12  1  0
 14 11  1  0
 14 12  1  0
M  END
>  <NAME>  (4559) 
2-PYRIDYL P-TOLYL ETHER

>  <SYNONYMS>  (4559) 


>  <SPECTRUM TYPE>  (4559) 
MS1

>  <INSTRUMENT TYPE>  (4559) 
EI-B

>  <INSTRUMENT>  (4559) 
HITACHI RMU-7

>  <ION MODE>  (4559) 
P

>  <INCHIKEY>  (4559) 
VTFYAGUKTYQNPT-UHFFFAOYSA-N

>  <FORMULA>  (4559) 
C12H11NO

>  <EXACT MASS>  (4559) 
185.084063972

>  <MW>  (4559) 
185

>  <ID>  (4559) 
JP003953

>  <CONTRIBUTOR>  (4559) 
University of Tokyo Team, {Faculty of Engineering, University of Tokyo

>  <COMMENT>  (4559) 
SMILES=Cc(c2)ccc(c2)Oc(c1)nccc1
InChI=InChI=1S/C12H11NO/c1-10-5-7-11(8-6-10)14-12-4-2-3-9-13-12/h2-9H,1H3
computed SMILES=N=1C=CC=CC1OC2=CC=C(C=C2)C
accession=JP003953
date=2016.01.19 (Created 2008.10.21, modified 2011.05.06)
author=NAKATA H, DEPT. OF CHEMISTRY, AICHI KYOIKU UNIV.
license=CC BY-NC-SA
exact mass=185.08406
ionization energy=70 eV
ion type=[M]+*
computed spectral entropy=2.782049161583918
computed normalized entropy=0.8538878848793567
SPLASH=splash10-0a5i-3900000000-5b26233efe7d2c5b45fe
submitter=submitter = University of Tokyo Team (Faculty of Engineering, University of Tokyo)
MoNA Rating=3.75

>  <NUM PEAKS>  (4559) 
26

>  <MASS SPECTRAL PEAKS>  (4559) 
50 7
51 33
52 15
53 6
63 9
65 16
77 20
78 38
79 8
89 8
91 19
92 5
107 6
115 15
128 8
129 14
130 13
142 8
154 6
156 51
157 75
158 11
183 7
184 99.99
185 99.99
186 18

>  <PREDICTED SPECTRUM>  (4559) 
26 21
27 27
28 4
37 11
38 86
39 278
40 70
41 62
42 70
44 58
50 214
51 496
52 311
53 126
54 67
55 28
57 10
62 45
63 276
64 154
65 446
66 102
67 33
69 2
70 21
74 67
75 102
76 24
77 387
78 598
79 295
80 116
81 20
82 48
89 148
90 123
91 395
92 148
97 37
102 22
103 90
104 65
105 36
107 83
115 209
116 95
117 56
127 43
128 266
129 378
130 315
131 193
132 42
141 46
142 165
154 74
155 98
156 935
157 906
158 323
159 57
170 134
182 26
183 182
184 999
185 947
186 310
187 16

$$$$

     RDKit          2D

 26 27  0  0  0  0  0  0  0  0999 V2000
    6.4974   -0.7490    0.0000 C   0  0  0  0  0  0  0  0  0  0  0  0
   -2.1312   -1.2301    0.0000 C   0  0  0  0  0  0  0  0  0  0  0  0
    5.1974   -1.4990    0.0000 C   0  0  0  0  0  0  0  0  0  0  0  0
    6.4974    0.7510    0.0000 C   0  0  0  0  0  0  0  0  0  0  0  0
   -2.1307    0.2708    0.0000 C   0  0  0  0  0  0  0  0  0  0  0  0
   -0.8322   -1.9801    0.0000 C   0  0  0  0  0  0  0  0  0  0  0  0
    3.8974   -0.7490    0.0000 C   0  0  0  0  0  0  0  0  0  0  0  0
    5.1974    1.5010    0.0000 C   0  0  0  0  0  0  0  0  0  0  0  0
   -0.8312    1.0216    0.0000 C   0  0  0  0  0  0  0  0  0  0  0  0
    0.4673   -1.2292    0.0000 C   0  0  0  0  0  0  0  0  0  0  0  0
    3.8974    0.7510    0.0000 C   0  0  0  0  0  0  0  0  0  0  0  0
    0.4678    0.2716    0.0000 C   0  0  0  0  0  0  0  0  0  0  0  0
    3.8976    2.2510    0.0000 Cl  0  0  0  0  0  0  0  0  0  0  0  0
    2.5987    3.0012    0.0000 Cl  0  0  0  0  0  0  0  0  0  0  0  0
    1.2995    2.2515    0.0000 Cl  0  0  0  0  0  0  0  0  0  0  0  0
    7.7963   -1.4992    0.0000 F   0  0  0  0  0  0  0  0  0  0  0  0
   -3.4304   -1.9799    0.0000 F   0  0  0  0  0  0  0  0  0  0  0  0
    5.1974   -2.9990    0.0000 F   0  0  0  0  0  0  0  0  0  0  0  0
    7.7963    1.5012    0.0000 F   0  0  0  0  0  0  0  0  0  0  0  0
   -3.4298    1.0208    0.0000 F   0  0  0  0  0  0  0  0  0  0  0  0
   -0.8319   -3.4801    0.0000 F   0  0  0  0  0  0  0  0  0  0  0  0
    2.5984   -1.4992    0.0000 F   0  0  0  0  0  0  0  0  0  0  0  0
    5.1974    3.0010    0.0000 F   0  0  0  0  0  0  0  0  0  0  0  0
   -0.8315    2.5216    0.0000 F   0  0  0  0  0  0  0  0  0  0  0  0
    1.7664   -1.9792    0.0000 F   0  0  0  0  0  0  0  0  0  0  0  0
    2.5984    1.5012    0.0000 P   0  0  0  0  0  0  0  0  0  0  0  0
  3  1  2  0
  4  1  1  0
  5  2  2  0
  6  2  1  0
  7  3  1  0
  8  4  2  0
  9  5  1  0
 10  6  2  0
 11  7  2  0
 11  8  1  0
 12  9  2  0
 12 10  1  0
 16  1  1  0
 17  2  1  0
 18  3  1  0
 19  4  1  0
 20  5  1  0
 21  6  1  0
 22  7  1  0
 23  8  1  0
 24  9  1  0
 25 10  1  0
 26 11  1  0
 26 12  1  0
 26 13  1  0
 26 14  1  0
 26 15  1  0
M  END
>  <NAME>  (4560) 
BIS(PENTAFLUOROPHENYL)-TRICHLOROPHOSPHORANE

>  <SYNONYMS>  (4560) 


>  <SPECTRUM TYPE>  (4560) 
MS1

>  <INSTRUMENT TYPE>  (4560) 
EI-B

>  <INSTRUMENT>  (4560) 
Unknown

>  <ION MODE>  (4560) 
P

>  <INCHIKEY>  (4560) 
MHJWEVPELOAYIK-UHFFFAOYSA-N

>  <FORMULA>  (4560) 
C12Cl3F10P

>  <EXACT MASS>  (4560) 
469.86435187

>  <MW>  (4560) 
470

>  <ID>  (4560) 
JP003878

>  <CONTRIBUTOR>  (4560) 
University of Tokyo Team, {Faculty of Engineering, University of Tokyo

>  <COMMENT>  (4560) 
SMILES=Fc(c(F)2)c(F)c(F)c(c(F)2)P(Cl)(Cl)(Cl)c(c(F)1)c(F)c(F)c(F)c(F)1
InChI=InChI=1S/C12Cl3F10P/c13-26(14,15,11-7(22)3(18)1(16)4(19)8(11)23)12-9(24)5(20)2(17)6(21)10(12)25
computed SMILES=FC=1C(F)=C(F)C(=C(F)C1F)P(Cl)(Cl)(Cl)C=2C(F)=C(F)C(F)=C(F)C2F
accession=JP003878
date=2016.01.19 (Created 2008.10.21, modified 2011.05.06)
author=SASAKI S, TOYOHASHI UNIV. OF TECH.
license=CC BY-NC-SA
exact mass=469.86435
ionization energy=70 eV
ion type=[M]+*
computed spectral entropy=2.9568986987192374
computed normalized entropy=0.8316762937355077
SPLASH=splash10-014i-8942100000-0f5feb61abcf3ff870ef
submitter=submitter = University of Tokyo Team (Faculty of Engineering, University of Tokyo)
MoNA Rating=3.75

>  <NUM PEAKS>  (4560) 
35

>  <MASS SPECTRAL PEAKS>  (4560) 
64 26.9
69 99.99
79 9.3
85 1.04
93 12.7
98 9.2
99 20.4
105 0.82
110 39.2
111 6.4
117 21.1
129 2.82
137 8.3
145 13
147 6.4
148 0.88
149 6
167 4.6
168 58.5
198 6.61
199 6
217 45.9
233 24.5
235 0.68
278 5.2
298 15.6
365 35.9
366 0.38
367 7.5
381 4.6
384 4.6
400 5.18
401 7.5
402 13
403 2.1

>  <PREDICTED SPECTRUM>  (4560) 
26 2
35 10
36 10
41 14
43 8
56 6
63 187
69 569
74 79
75 69
76 23
85 10
87 92
93 346
98 166
106 0
110 7
111 180
116 205
117 377
129 481
130 35
142 7
148 170
149 38
155 270
156 68
157 35
159 30
160 7
162 106
164 4
167 131
168 57
180 244
199 235
200 11
217 675
218 40
219 12
221 160
222 9
223 19
224 3
226 38
227 514
233 47
234 223
236 91
237 70
238 95
240 135
246 242
253 17
258 289
265 360
271 211
272 105
274 43
277 367
278 111
296 528
297 140
303 632
304 222
305 177
312 105
332 12
334 110
335 14
346 10
357 52
361 18
365 999
366 391
367 235
369 150
372 75
382 72
391 83
400 173
403 211
404 28
409 33
410 23
419 26
435 389
436 81
437 35
438 85
439 96
440 119
451 109
470 155
471 61
472 157
473 134

$$$$

     RDKit          2D

 16 16  0  0  0  0  0  0  0  0999 V2000
   -5.0872   -0.7609    0.0000 C   0  0  0  0  0  0  0  0  0  0  0  0
   -0.9210   -4.4682    0.0000 C   0  0  0  0  0  0  0  0  0  0  0  0
    1.0689   -2.7977    0.0000 C   0  0  0  0  0  0  0  0  0  0  0  0
   -3.6099   -1.0212    0.0000 C   0  0  0  0  0  0  0  0  0  0  0  0
   -2.6459    0.1279    0.0000 C   0  0  0  0  0  0  0  0  0  0  0  0
   -1.6813   -1.5420    0.0000 C   0  0  0  0  0  0  0  0  0  0  0  0
   -0.4083   -3.0585    0.0000 C   0  0  0  0  0  0  0  0  0  0  0  0
   -1.1686    1.3676    0.0000 C   0  0  0  0  0  0  0  0  0  0  0  0
    0.1314   -0.8824    0.0000 C   0  0  0  0  0  0  0  0  0  0  0  0
    1.4314    1.3676    0.0000 C   0  0  0  0  0  0  0  0  0  0  0  0
   -1.1686   -0.1324    0.0000 C   0  0  0  0  0  0  0  0  0  0  0  0
    0.1314    2.1176    0.0000 N   0  0  0  0  0  0  0  0  0  0  0  0
    1.4314   -0.1324    0.0000 N   0  0  0  0  0  0  0  0  0  0  0  0
   -2.4675    2.1178    0.0000 O   0  0  0  0  0  0  0  0  0  0  0  0
    0.1314   -2.3824    0.0000 O   0  0  0  0  0  0  0  0  0  0  0  0
    2.7303    2.1178    0.0000 O   0  0  0  0  0  0  0  0  0  0  0  0
  4  1  2  0
  5  4  1  0
  7  2  1  0
  7  3  1  0
  7  6  1  0
 11  5  1  0
 11  6  1  0
 11  8  1  0
 11  9  1  0
 12  8  2  0
 12 10  1  0
 13  9  2  0
 13 10  1  0
 14  8  1  0
 15  9  1  0
 16 10  2  0
M  END
>  <NAME>  (4561) 
5-ALLYL-5-ISOBUTYL-BARBITURIC ACID

>  <SYNONYMS>  (4561) 
BUTALBITAL

>  <SPECTRUM TYPE>  (4561) 
MS1

>  <INSTRUMENT TYPE>  (4561) 
EI-B

>  <INSTRUMENT>  (4561) 
Unknown

>  <ION MODE>  (4561) 
P

>  <INCHIKEY>  (4561) 
UZVHFVZFNXBMQJ-UHFFFAOYSA-N

>  <FORMULA>  (4561) 
C11H16N2O3

>  <EXACT MASS>  (4561) 
224.11609237199997

>  <MW>  (4561) 
224

>  <ID>  (4561) 
JP003875

>  <CONTRIBUTOR>  (4561) 
University of Tokyo Team, {Faculty of Engineering, University of Tokyo

>  <COMMENT>  (4561) 
SMILES=C=CCC(CC(C)C)(C(=O)1)C(=O)NC(=O)N1
InChI=InChI=1S/C11H16N2O3/c1-4-5-11(6-7(2)3)8(14)12-10(16)13-9(11)15/h4,7H,1,5-6H2,2-3H3,(H2,12,13,14,15,16)
computed SMILES=O=C1N=C(O)C(C(O)=N1)(CC=C)CC(C)C
accession=JP003875
date=2016.01.19 (Created 2008.10.21, modified 2011.05.06)
author=SASAKI S, TOYOHASHI UNIV. OF TECH.
license=CC BY-NC-SA
exact mass=224.11609
ionization energy=70 eV
ion type=[M]+*
computed spectral entropy=3.1307558629828236
computed normalized entropy=0.6699915562696492
SPLASH=splash10-014i-3900000000-b4be8a2b661834f34c86
submitter=submitter = University of Tokyo Team (Faculty of Engineering, University of Tokyo)
MoNA Rating=3.75

>  <NUM PEAKS>  (4561) 
107

>  <MASS SPECTRAL PEAKS>  (4561) 
38 0.3
39 10.4
40 1.9
41 3.89
42 3.9
43 8.9
44 3.3
45 0.04
50 0.3
51 1.5
52 3
53 0.55
54 2.9
55 5.6
56 3
57 0.51
58 0.5
59 0.1
63 0.2
64 0.01
65 2.4
66 1.9
67 6
68 0.19
69 2.8
70 2.7
71 0.3
73 0.03
77 1.5
78 1.3
79 1.8
80 0.33
81 2.3
82 1.6
83 1.3
84 0.11
85 0.1
90 0.1
91 1
92 0.09
93 1.1
94 2.2
95 3.9
96 0.45
97 11.4
98 8.5
99 1.1
100 0.07
106 2
107 0.9
108 3.4
109 0.18
110 1.7
111 1.6
112 1.7
113 0.01
120 0.5
121 0.9
122 1.6
123 0.23
124 15.9
125 1.9
126 1.1
127 0.01
136 0.8
137 0.4
138 2.7
139 0.08
140 0.9
141 10.9
142 1.8
143 0.03
149 0.6
150 0.9
151 1.9
152 0.09
153 6.9
154 0.9
155 0.9
156 0.01
163 0.1
164 0.2
165 1.1
166 0.01
167 66.9
168 99.99
169 11.4
170 0.17
171 0.5
172 0.1
179 0.1
180 0.04
181 17.1
182 4.9
183 3.5
184 0.14
185 0.3
186 0.1
195 0.3
196 0.04
208 0.1
209 3.4
210 0.8
211 0.01
223 0.2
224 0.2
225 0.1

>  <PREDICTED SPECTRUM>  (4561) 
27 16
28 15
29 49
33 12
34 11
36 23
37 32
38 87
39 407
40 326
41 999
42 538
43 663
44 252
45 179
46 63
47 25
50 121
51 213
52 263
53 491
54 393
55 601
56 393
57 383
58 154
59 25
62 0
65 117
66 173
67 284
68 445
69 679
70 408
71 350
72 85
76 14
77 140
78 83
79 66
80 234
81 144
82 316
83 510
84 297
85 271
86 284
87 117
93 49
94 129
95 123
96 192
97 193
98 150
99 120
100 47
101 48
106 19
107 39
108 119
109 147
110 310
111 189
112 322
113 329
114 193
115 26
121 70
123 139
124 126
125 199
126 280
127 137
128 93
135 46
136 55
137 64
138 332
139 367
140 260
141 253
142 132
143 6
151 112
152 82
153 175
154 260
155 254
156 228
157 104
163 31
166 138
167 337
168 576
169 294
170 123
178 71
179 43
180 31
181 303
182 235
183 226
184 202
185 41
195 110
196 28
197 16
209 143
210 40
223 133
224 309
225 113

$$$$

     RDKit          2D

 21 23  0  0  0  0  0  0  0  0999 V2000
    2.5981   -7.1400    0.0000 C   0  0  0  0  0  0  0  0  0  0  0  0
    3.8971   -4.8900    0.0000 C   0  0  0  0  0  0  0  0  0  0  0  0
    4.2200    0.4000    0.0000 C   0  0  0  0  0  0  0  0  0  0  0  0
   -4.2200    0.4000    0.0000 C   0  0  0  0  0  0  0  0  0  0  0  0
    3.8800   -1.0600    0.0000 C   0  0  0  0  0  0  0  0  0  0  0  0
   -3.8800   -1.0600    0.0000 C   0  0  0  0  0  0  0  0  0  0  0  0
    1.2990   -3.3900    0.0000 C   0  0  0  0  0  0  0  0  0  0  0  0
    3.1200    1.4200    0.0000 C   0  0  0  0  0  0  0  0  0  0  0  0
   -3.1200    1.4200    0.0000 C   0  0  0  0  0  0  0  0  0  0  0  0
    2.4500   -1.5100    0.0000 C   0  0  0  0  0  0  0  0  0  0  0  0
   -2.4500   -1.5100    0.0000 C   0  0  0  0  0  0  0  0  0  0  0  0
    0.7500    2.1500    0.0000 C   0  0  0  0  0  0  0  0  0  0  0  0
   -0.7500    2.1500    0.0000 C   0  0  0  0  0  0  0  0  0  0  0  0
    1.2990   -4.8900    0.0000 C   0  0  0  0  0  0  0  0  0  0  0  0
   -0.0000   -2.6400    0.0000 C   0  0  0  0  0  0  0  0  0  0  0  0
    1.6900    0.9800    0.0000 C   0  0  0  0  0  0  0  0  0  0  0  0
   -1.6900    0.9800    0.0000 C   0  0  0  0  0  0  0  0  0  0  0  0
    1.3500   -0.4900    0.0000 C   0  0  0  0  0  0  0  0  0  0  0  0
   -1.3500   -0.4900    0.0000 C   0  0  0  0  0  0  0  0  0  0  0  0
    2.5981   -5.6400    0.0000 N   0  0  0  0  0  0  0  0  0  0  0  0
    0.0000   -1.1400    0.0000 N   0  0  0  0  0  0  0  0  0  0  0  0
  5  3  2  0
  6  4  2  0
  8  3  1  0
  9  4  1  0
 10  5  1  0
 11  6  1  0
 13 12  1  0
 14  7  1  0
 15  7  1  0
 16  8  2  0
 16 12  1  0
 17  9  2  0
 17 13  1  0
 18 10  2  0
 18 16  1  0
 19 11  2  0
 19 17  1  0
 20  1  1  0
 20  2  1  0
 20 14  1  0
 21 15  1  0
 21 18  1  0
 21 19  1  0
M  END
>  <NAME>  (4562) 
IMIPRAMINE

>  <SYNONYMS>  (4562) 


>  <SPECTRUM TYPE>  (4562) 
MS1

>  <INSTRUMENT TYPE>  (4562) 
EI-B

>  <INSTRUMENT>  (4562) 
Unknown

>  <ION MODE>  (4562) 
P

>  <INCHIKEY>  (4562) 
BCGWQEUPMDMJNV-UHFFFAOYSA-N

>  <FORMULA>  (4562) 
C19H24N2

>  <EXACT MASS>  (4562) 
280.193948768

>  <MW>  (4562) 
280

>  <ID>  (4562) 
JP003874

>  <CONTRIBUTOR>  (4562) 
University of Tokyo Team, {Faculty of Engineering, University of Tokyo

>  <COMMENT>  (4562) 
SMILES=CN(C)CCCN(c21)c(c3)c(ccc3)CCc(cccc2)1
InChI=InChI=1S/C19H24N2/c1-20(2)14-7-15-21-18-10-5-3-8-16(18)12-13-17-9-4-6-11-19(17)21/h3-6,8-11H,7,12-15H2,1-2H3
computed SMILES=C=1C=CC2=C(C1)N(C=3C=CC=CC3CC2)CCCN(C)C
accession=JP003874
date=2016.01.19 (Created 2008.10.21, modified 2011.05.06)
author=SASAKI S, TOYOHASHI UNIV. OF TECH.
license=CC BY-NC-SA
exact mass=280.19395
ionization energy=70 eV
ion type=[M]+*
computed spectral entropy=3.72072910587581
computed normalized entropy=0.70769992983194
SPLASH=splash10-0019-7490000000-3fb4d40b6a219f088ec8
submitter=submitter = University of Tokyo Team (Faculty of Engineering, University of Tokyo)
MoNA Rating=3.75

>  <NUM PEAKS>  (4562) 
192

>  <MASS SPECTRAL PEAKS>  (4562) 
29 3.8
31 1.4
33 0.3
34 0.23
35 20.4
36 0.9
37 6.4
38 0.29
39 0.3
40 0.6
41 4.9
42 0.07
43 8.1
44 6.9
45 0.9
46 0.01
50 0.3
51 1.9
52 0.9
53 0.12
54 0.8
55 3.3
56 3.7
57 0.97
58 78.9
59 4.1
60 0.3
62 0.04
63 1.1
64 0.4
65 3.1
66 0.01
67 0.9
68 0.7
69 2.9
70 0.99
71 6.9
72 3.7
73 0.7
74 0.01
75 0.9
76 0.8
77 3.6
78 0.19
79 1.2
80 0.7
81 1.5
82 0.01
83 2.3
84 7.9
85 62.9
86 0.69
87 0.8
89 2.9
90 2
91 1.09
92 2
93 1.1
94 0.6
95 0.09
96 0.7
97 1.4
98 1.2
99 0.09
100 0.2
101 0.7
102 1.3
103 0.17
104 2.8
105 3.8
106 3.9
107 0.24
108 0.3
109 1.1
110 0.6
111 0.11
112 1.2
113 0.9
115 2.2
116 0.02
117 4.9
118 4.7
119 2.9
120 0.13
121 0.4
125 0.5
126 0.9
127 0.25
128 2
129 3.7
130 14.1
131 0.29
132 1.3
133 0.5
134 0.9
135 0.09
136 0.1
139 1.1
140 4.3
141 0.09
142 1.3
143 1.3
144 1.4
145 0.05
148 0.1
149 1.6
150 0.4
151 0.13
152 1.9
153 0.9
154 1.1
155 0.11
156 0.8
157 0.1
158 0.1
159 0.14
160 0.1
161 0.1
162 0.5
163 0.07
164 0.9
165 4.9
166 2.6
167 0.39
168 1.1
169 0.9
170 0.1
175 0.03
176 0.9
177 0.9
178 5.4
179 0.59
180 3.9
181 1.1
182 0.4
183 0.01
185 0.4
187 0.1
188 0.1
189 0.09
190 1.5
191 3.9
192 6.9
193 2.39
194 18.4
195 29.4
196 4.9
197 0.11
198 0.5
199 0.9
200 0.1
202 0.06
203 0.9
204 3.9
205 2.3
206 0.91
207 3.4
208 20.3
209 5.9
210 0.15
211 0.4
212 0.9
213 0.7
216 0.03
217 1.1
218 2.9
219 2.3
220 1.14
221 2.9
222 4.9
223 1.1
224 0.01
232 1.1
233 5.4
234 64.9
235 99.99
236 16.9
237 1.9
238 0.4
247 0.01
248 0.7
249 1.4
250 0.3
251 0.01
264 0.1
265 0.6
266 0.1
279 0.01
280 48.9
281 10.4
282 1.3
283 0.3

>  <PREDICTED SPECTRUM>  (4562) 
26 3
29 44
30 4
39 71
40 77
41 159
42 264
43 148
44 200
45 60
46 39
50 29
51 126
52 60
53 92
54 43
55 93
56 164
57 99
58 999
59 293
60 3
62 15
63 92
64 16
65 137
66 6
67 13
68 33
69 113
70 135
71 146
72 183
73 92
75 26
76 27
77 166
78 95
79 50
80 13
81 43
82 40
83 52
84 141
85 132
86 115
87 31
89 178
90 55
91 183
92 43
93 7
96 45
98 15
99 17
100 9
101 22
102 88
103 97
104 100
105 130
106 55
111 5
114 5
115 297
116 171
117 184
118 171
119 3
120 72
121 22
127 44
128 195
129 87
130 236
131 102
132 71
135 20
137 16
139 6
146 61
147 0
148 48
149 23
151 41
152 158
153 19
162 106
163 56
164 108
165 279
166 132
167 50
175 49
176 129
177 86
178 186
179 126
180 112
190 115
191 91
192 100
193 163
194 373
195 368
202 87
204 68
206 177
207 25
208 389
209 413
210 68
211 133
218 95
220 428
221 270
222 389
223 136
234 541
235 669
236 253
237 5
263 58
279 16
280 470
281 224
282 44

$$$$

     RDKit          2D

 18 17  0  0  0  0  0  0  0  0999 V2000
    1.8724    4.0810    0.0000 C   0  0  0  0  0  0  0  0  0  0  0  0
   -9.8189    4.8310    0.0000 C   0  0  0  0  0  0  0  0  0  0  0  0
   -8.5199    2.5810    0.0000 C   0  0  0  0  0  0  0  0  0  0  0  0
   -1.0605    5.9801    0.0000 C   0  0  0  0  0  0  0  0  0  0  0  0
    0.5734    4.8310    0.0000 C   0  0  0  0  0  0  0  0  0  0  0  0
   -0.7256    4.0810    0.0000 C   0  0  0  0  0  0  0  0  0  0  0  0
   -2.9889    5.9801    0.0000 C   0  0  0  0  0  0  0  0  0  0  0  0
   -3.3237    4.0810    0.0000 C   0  0  0  0  0  0  0  0  0  0  0  0
   -8.5199    4.0810    0.0000 C   0  0  0  0  0  0  0  0  0  0  0  0
   -0.9986    7.6501    0.0000 C   0  0  0  0  0  0  0  0  0  0  0  0
   -5.9218    4.0810    0.0000 C   0  0  0  0  0  0  0  0  0  0  0  0
   -2.0247    4.8310    0.0000 C   0  0  0  0  0  0  0  0  0  0  0  0
   -0.4856    9.0597    0.0000 N   0  0  0  0  0  0  0  0  0  0  0  0
   -7.2208    4.8310    0.0000 N   0  0  0  0  0  0  0  0  0  0  0  0
   -0.0344    6.5011    0.0000 O   0  0  0  0  0  0  0  0  0  0  0  0
   -5.9218    2.5810    0.0000 O   0  0  0  0  0  0  0  0  0  0  0  0
   -2.4758    7.3897    0.0000 O   0  0  0  0  0  0  0  0  0  0  0  0
   -4.6228    4.8310    0.0000 O   0  0  0  0  0  0  0  0  0  0  0  0
  5  1  1  0
  6  5  1  0
  9  2  1  0
  9  3  1  0
 12  4  1  0
 12  6  1  0
 12  7  1  0
 12  8  1  0
 13 10  2  0
 14  9  1  0
 14 11  2  3
 15 10  1  0
 16 11  1  0
 17  7  1  0
 17 10  1  0
 18  8  1  0
 18 11  1  0
M  END
>  <NAME>  (4563) 
CARISOPRODOL

>  <SYNONYMS>  (4563) 


>  <SPECTRUM TYPE>  (4563) 
MS1

>  <INSTRUMENT TYPE>  (4563) 
EI-B

>  <INSTRUMENT>  (4563) 
Unknown

>  <ION MODE>  (4563) 
P

>  <INCHIKEY>  (4563) 
OFZCIYFFPZCNJE-UHFFFAOYSA-N

>  <FORMULA>  (4563) 
C12H24N2O4

>  <EXACT MASS>  (4563) 
260.173607248

>  <MW>  (4563) 
260

>  <ID>  (4563) 
JP003873

>  <CONTRIBUTOR>  (4563) 
University of Tokyo Team, {Faculty of Engineering, University of Tokyo

>  <COMMENT>  (4563) 
SMILES=CCCC(C)(COC(N)=O)COC(=O)NC(C)C
InChI=InChI=1S/C12H24N2O4/c1-5-6-12(4,7-17-10(13)15)8-18-11(16)14-9(2)3/h9H,5-8H2,1-4H3,(H2,13,15)(H,14,16)
computed SMILES=N=C(O)OCC(C)(COC(O)=NC(C)C)CCC
accession=JP003873
date=2016.01.19 (Created 2008.10.21, modified 2011.05.06)
author=SASAKI S, TOYOHASHI UNIV. OF TECH.
license=CC BY-NC-SA
exact mass=260.17361
ionization energy=70 eV
ion type=[M]+*
computed spectral entropy=3.5121862627953324
computed normalized entropy=0.7457614905657988
SPLASH=splash10-0a4i-9200000000-7ee2bc67a583d40d99b8
submitter=submitter = University of Tokyo Team (Faculty of Engineering, University of Tokyo)
MoNA Rating=3.75

>  <NUM PEAKS>  (4563) 
111

>  <MASS SPECTRAL PEAKS>  (4563) 
26 0.8
27 8.8
28 6.7
29 0.94
30 1.3
31 6.7
38 0.1
39 0.06
40 2
41 27.4
42 8.7
43 0.53
44 27.4
45 9.5
46 1.5
47 0.05
51 0.9
52 0.9
53 3.4
54 0.24
55 77.4
56 37.7
57 12
58 99.99
59 11.9
60 2.9
61 0.9
62 3.94
63 1.5
64 0.6
65 0.9
66 0.05
67 4.1
68 3.4
69 17.9
70 1.19
71 28.9
72 10.9
73 3.9
74 0.19
75 4.9
76 0.9
77 0.9
79 0.09
80 0.6
81 6.9
82 1.9
83 2.89
84 23.9
85 5.9
86 13.9
87 0.13
88 4.9
89 0.9
90 0.5
91 0.03
92 1.1
93 0.1
94 0.1
95 0.19
96 10.1
97 55.4
98 11.4
99 0.03
100 1.9
101 5.9
102 8.9
103 0.13
104 43.5
105 2.2
106 0.4
112 0.02
113 0.9
114 13.9
115 9.1
116 0.13
117 1.4
118 0.9
119 0.3
123 0.09
131 0.8
132 0.9
133 0.2
134 0.03
140 0.5
142 0.2
143 0.2
144 0.37
145 0.8
147 1.1
157 2
158 4.09
159 4.4
160 0.7
174 0.6
175 0.07
176 5.9
177 0.9
184 9.4
185 0.15
186 3.8
187 0.9
199 1.1
200 0.01
202 1.6
217 0.5
245 17.1
246 0.27
247 0.2
260 2.8
261 0.8

>  <PREDICTED SPECTRUM>  (4563) 
25 0
26 30
27 170
28 97
29 210
30 87
31 108
33 37
34 30
36 26
37 13
38 48
39 356
40 152
41 819
42 524
43 999
44 513
45 472
46 145
47 42
49 10
50 65
51 78
52 69
53 224
54 199
55 465
56 413
57 776
58 187
59 197
60 479
61 133
62 38
63 46
64 14
65 100
66 49
67 163
68 240
69 376
70 430
71 328
72 221
73 294
74 220
75 85
77 22
78 10
79 11
80 62
81 178
82 139
83 234
84 136
85 294
86 286
87 279
88 200
89 33
91 82
93 7
95 36
96 151
97 131
98 140
99 211
100 271
101 137
102 121
103 65
104 42
105 57
109 84
111 47
112 155
113 340
114 117
115 191
116 153
117 98
118 81
120 15
125 79
126 108
127 151
128 143
129 46
130 145
131 105
132 37
139 59
140 125
141 84
142 192
143 163
144 218
145 10
154 16
156 87
158 73
159 28
167 10
168 26
169 117
170 13
171 74
172 53
181 93
187 104
215 74
260 46

$$$$

     RDKit          2D

 26 27  0  0  0  0  0  0  0  0999 V2000
    9.0967    1.8734    0.0000 C   0  0  0  0  0  0  0  0  0  0  0  0
   -5.1955   -0.3747    0.0000 C   0  0  0  0  0  0  0  0  0  0  0  0
    7.7973    1.1240    0.0000 C   0  0  0  0  0  0  0  0  0  0  0  0
   -3.8964   -1.1245    0.0000 C   0  0  0  0  0  0  0  0  0  0  0  0
    7.7957   -4.8774    0.0000 C   0  0  0  0  0  0  0  0  0  0  0  0
   -2.5980   -4.8758    0.0000 C   0  0  0  0  0  0  0  0  0  0  0  0
    6.4964   -5.6270    0.0000 C   0  0  0  0  0  0  0  0  0  0  0  0
   -1.2990   -5.6258    0.0000 C   0  0  0  0  0  0  0  0  0  0  0  0
    7.7957   -3.3766    0.0000 C   0  0  0  0  0  0  0  0  0  0  0  0
   -2.5976   -3.3749    0.0000 C   0  0  0  0  0  0  0  0  0  0  0  0
    5.1971   -4.8758    0.0000 C   0  0  0  0  0  0  0  0  0  0  0  0
    0.0005   -4.8749    0.0000 C   0  0  0  0  0  0  0  0  0  0  0  0
    6.4964   -2.6254    0.0000 C   0  0  0  0  0  0  0  0  0  0  0  0
   -1.2980   -2.6241    0.0000 C   0  0  0  0  0  0  0  0  0  0  0  0
    5.1971   -3.3749    0.0000 C   0  0  0  0  0  0  0  0  0  0  0  0
    0.0010   -3.3741    0.0000 C   0  0  0  0  0  0  0  0  0  0  0  0
    6.4971   -1.1254    0.0000 C   0  0  0  0  0  0  0  0  0  0  0  0
   -1.2983   -1.1241    0.0000 C   0  0  0  0  0  0  0  0  0  0  0  0
    2.5991   -3.3745    0.0000 C   0  0  0  0  0  0  0  0  0  0  0  0
    5.1985   -0.3747    0.0000 O   0  0  0  0  0  0  0  0  0  0  0  0
    0.0006   -0.3739    0.0000 O   0  0  0  0  0  0  0  0  0  0  0  0
    2.5988   -4.8745    0.0000 O   0  0  0  0  0  0  0  0  0  0  0  0
    7.7965   -0.3760    0.0000 O   0  0  0  0  0  0  0  0  0  0  0  0
   -2.5974   -0.3743    0.0000 O   0  0  0  0  0  0  0  0  0  0  0  0
    3.8982   -2.6247    0.0000 O   0  0  0  0  0  0  0  0  0  0  0  0
    1.3002   -2.6243    0.0000 O   0  0  0  0  0  0  0  0  0  0  0  0
  3  1  1  0
  4  2  1  0
  7  5  2  0
  8  6  2  0
  9  5  1  0
 10  6  1  0
 11  7  1  0
 12  8  1  0
 13  9  2  0
 14 10  2  0
 15 11  2  0
 15 13  1  0
 16 12  2  0
 16 14  1  0
 17 13  1  0
 18 14  1  0
 20 17  2  0
 21 18  2  0
 22 19  2  0
 23  3  1  0
 23 17  1  0
 24  4  1  0
 24 18  1  0
 25 15  1  0
 25 19  1  0
 26 16  1  0
 26 19  1  0
M  END
>  <NAME>  (4564) 
CARBETHYL SALICYLATE

>  <SYNONYMS>  (4564) 
BIS(2-ETHOXYCARBONYLPHENYL) CARBONATE

>  <SPECTRUM TYPE>  (4564) 
MS1

>  <INSTRUMENT TYPE>  (4564) 
EI-B

>  <INSTRUMENT>  (4564) 
Unknown

>  <ION MODE>  (4564) 
P

>  <INCHIKEY>  (4564) 
QWWLHNFYJSCNGD-UHFFFAOYSA-N

>  <FORMULA>  (4564) 
C19H18O7

>  <EXACT MASS>  (4564) 
358.105252916

>  <MW>  (4564) 
358

>  <ID>  (4564) 
JP003872

>  <CONTRIBUTOR>  (4564) 
University of Tokyo Team, {Faculty of Engineering, University of Tokyo

>  <COMMENT>  (4564) 
SMILES=CCOC(=O)c(c2)c(ccc2)OC(=O)Oc(c1)c(ccc1)C(=O)OCC
InChI=InChI=1S/C19H18O7/c1-3-23-17(20)13-9-5-7-11-15(13)25-19(22)26-16-12-8-6-10-14(16)18(21)24-4-2/h5-12H,3-4H2,1-2H3
computed SMILES=O=C(OC=1C=CC=CC1C(=O)OCC)OC=2C=CC=CC2C(=O)OCC
accession=JP003872
date=2016.01.19 (Created 2008.10.21, modified 2011.05.06)
author=SASAKI S, TOYOHASHI UNIV. OF TECH.
license=CC BY-NC-SA
exact mass=358.10525
ionization energy=70 eV
ion type=[M]+*
computed spectral entropy=2.4712742952207933
computed normalized entropy=0.5741721469600377
SPLASH=splash10-00r6-1900000000-d197fea1a998f59f198f
submitter=submitter = University of Tokyo Team (Faculty of Engineering, University of Tokyo)
MoNA Rating=3.75

>  <NUM PEAKS>  (4564) 
74

>  <MASS SPECTRAL PEAKS>  (4564) 
27 1.9
28 1.7
30 0.1
38 0.07
39 2.7
40 0.1
41 0.1
43 0.05
44 0.9
45 0.4
50 1.9
51 0.13
53 1.1
57 0.5
58 0.5
62 0.05
63 2.3
64 3.7
65 8.9
66 0.09
69 0.1
70 1.1
75 0.1
76 0.09
77 3.9
78 3.9
79 0.9
82 0.19
85 1.9
91 0.9
92 8.4
93 1.17
94 1.1
103 0.8
104 1.8
105 0.15
107 0.3
109 2.7
110 0.1
112 0.33
113 0.1
116 0.3
119 0.6
120 2.15
121 57.9
122 5.3
123 0.7
130 0.01
132 0.7
133 1.9
137 0.9
138 0.05
139 0.9
140 0.3
147 1
148 0.03
149 1
165 67.9
166 7.9
167 0.15
168 1.1
169 0.3
192 0.1
193 99.99
194 12.8
195 2
196 0.4
197 0.19
198 0.3
314 7.3
315 1.6
316 0.01
358 0.9
359 0.1

>  <PREDICTED SPECTRUM>  (4564) 
27 55
29 109
38 29
39 96
44 131
50 206
51 191
52 64
53 46
54 10
62 42
63 213
64 247
65 486
66 100
74 58
75 133
76 344
77 341
78 50
81 69
90 31
91 93
92 325
93 421
94 119
101 17
103 111
104 232
105 253
106 6
107 74
108 21
109 100
120 589
121 781
122 276
123 13
131 40
132 53
133 79
134 16
135 30
136 14
137 150
149 999
150 27
151 9
152 3
163 35
164 83
165 7
177 908
178 129
179 127
180 33
181 232
182 84
211 11
213 3
225 1
239 95
240 148
241 149
242 94
268 239
269 136
285 18
286 26
313 172
314 112
358 94
359 3
361 32

$$$$

     RDKit          2D

 33 35  0  0  0  0  0  0  0  0999 V2000
   -6.1703    2.0073    0.0000 C   0  0  0  0  0  0  0  0  0  0  0  0
   -4.8713    4.2573    0.0000 C   0  0  0  0  0  0  0  0  0  0  0  0
    4.2220    0.5073    0.0000 C   0  0  0  0  0  0  0  0  0  0  0  0
    0.3249    7.2573    0.0000 C   0  0  0  0  0  0  0  0  0  0  0  0
    4.2225    2.0081    0.0000 C   0  0  0  0  0  0  0  0  0  0  0  0
    2.9225   -0.2435    0.0000 C   0  0  0  0  0  0  0  0  0  0  0  0
   -0.9751    6.5073    0.0000 C   0  0  0  0  0  0  0  0  0  0  0  0
    1.6249    6.5073    0.0000 C   0  0  0  0  0  0  0  0  0  0  0  0
    2.9234    2.7581    0.0000 C   0  0  0  0  0  0  0  0  0  0  0  0
    1.6234    0.5065    0.0000 C   0  0  0  0  0  0  0  0  0  0  0  0
   -0.9751    5.0073    0.0000 C   0  0  0  0  0  0  0  0  0  0  0  0
    1.6249    5.0073    0.0000 C   0  0  0  0  0  0  0  0  0  0  0  0
   -3.5722    2.0073    0.0000 C   0  0  0  0  0  0  0  0  0  0  0  0
   -2.2732    2.7573    0.0000 C   0  0  0  0  0  0  0  0  0  0  0  0
    1.6239    2.0073    0.0000 C   0  0  0  0  0  0  0  0  0  0  0  0
    0.3249    4.2573    0.0000 C   0  0  0  0  0  0  0  0  0  0  0  0
    0.3249    2.7573    0.0000 C   0  0  0  0  0  0  0  0  0  0  0  0
   -4.8713    2.7573    0.0000 N   0  0  0  0  0  0  0  0  0  0  0  0
   -0.9742    2.0073    0.0000 O   0  0  0  0  0  0  0  0  0  0  0  0
   -1.0100   -3.0000    0.0000 C   0  0  0  0  0  0  0  0  0  0  0  0
   -3.6089    1.5002    0.0000 C   0  0  0  0  0  0  0  0  0  0  0  0
    0.2900    0.7500    0.0000 C   0  0  0  0  0  0  0  0  0  0  0  0
    0.2900   -0.7500    0.0000 C   0  0  0  0  0  0  0  0  0  0  0  0
   -1.0100    1.5000    0.0000 C   0  0  0  0  0  0  0  0  0  0  0  0
    2.6000    0.0000    0.0000 C   0  0  0  0  0  0  0  0  0  0  0  0
   -2.3100   -0.7500    0.0000 C   0  0  0  0  0  0  0  0  0  0  0  0
    4.1000   -0.0000    0.0000 Cl  0  0  0  0  0  0  0  0  0  0  0  0
    1.7200    1.2100    0.0000 N   0  0  0  0  0  0  0  0  0  0  0  0
    1.7200   -1.2100    0.0000 N   0  0  0  0  0  0  0  0  0  0  0  0
   -1.0100   -1.5000    0.0000 N   0  0  0  0  0  0  0  0  0  0  0  0
   -2.3100    0.7500    0.0000 N   0  0  0  0  0  0  0  0  0  0  0  0
   -1.0100    3.0000    0.0000 O   0  0  0  0  0  0  0  0  0  0  0  0
   -3.6089   -1.5002    0.0000 O   0  0  0  0  0  0  0  0  0  0  0  0
  5  3  2  0
  6  3  1  0
  7  4  2  0
  8  4  1  0
  9  5  1  0
 10  6  2  0
 11  7  1  0
 12  8  2  0
 14 13  1  0
 15  9  2  0
 15 10  1  0
 16 11  2  0
 16 12  1  0
 17 15  1  0
 17 16  1  0
 18  1  1  0
 18  2  1  0
 18 13  1  0
 19 14  1  0
 19 17  1  0
 23 22  2  0
 24 22  1  0
 27 25  1  0
 28 22  1  0
 28 25  2  0
 29 23  1  0
 29 25  1  0
 30 20  1  0
 30 23  1  0
 30 26  1  0
 31 21  1  0
 31 24  1  0
 31 26  1  0
 32 24  2  0
 33 26  2  0
M  END
>  <NAME>  (4565) 
DRAMAMINE

>  <SYNONYMS>  (4565) 
DIMENHYDRINATE

>  <SPECTRUM TYPE>  (4565) 
MS1

>  <INSTRUMENT TYPE>  (4565) 
EI-B

>  <INSTRUMENT>  (4565) 
Unknown

>  <ION MODE>  (4565) 
P

>  <INCHIKEY>  (4565) 
NFLLKCVHYJRNRH-UHFFFAOYSA-N

>  <FORMULA>  (4565) 
C24H28ClN5O3

>  <EXACT MASS>  (4565) 
469.188067436

>  <MW>  (4565) 
469

>  <ID>  (4565) 
JP003871

>  <CONTRIBUTOR>  (4565) 
University of Tokyo Team, {Faculty of Engineering, University of Tokyo

>  <COMMENT>  (4565) 
SMILES=CN1C2=C(C(=O)N(C1=O)C)NC(=N2)Cl.CN(C)CCOC(C1=CC=CC=C1)C2=CC=CC=C2
InChI=InChI=1S/C17H21NO.C7H7ClN4O2/c1-18(2)13-14-19-17(15-9-5-3-6-10-15)16-11-7-4-8-12-16;1-11-4-3(9-6(8)10-4)5(13)12(2)7(11)14/h3-12,17H,13-14H2,1-2H3;1-2H3,(H,9,10)
computed SMILES=O=C1C=2N=C(Cl)NC2N(C(=O)N1C)C.O(CCN(C)C)C(C=1C=CC=CC1)C=2C=CC=CC2
computed normalized entropy=0.5985927166847875
accession=JP003871
date=2016.01.19 (Created 2008.10.21, modified 2011.05.06)
author=SASAKI S, TOYOHASHI UNIV. OF TECH.
license=CC BY-NC-SA
exact mass=469.18807
ionization energy=70 eV
ion type=[M]+*
computed spectral entropy=2.824459058042634
SPLASH=splash10-0a4i-9100000000-77e89b91771cb8f073b4
submitter=submitter = University of Tokyo Team (Faculty of Engineering, University of Tokyo)
MoNA Rating=3.75

>  <NUM PEAKS>  (4565) 
112

>  <MASS SPECTRAL PEAKS>  (4565) 
36 0.1
38 0.2
39 1.6
40 0.07
41 4.1
42 4.1
43 7.7
44 0.57
45 9.4
46 0.1
49 0.1
50 0.07
51 1.3
52 0.3
53 0.8
54 0.05
55 3.7
56 3.3
57 7.7
58 99.99
59 3.9
61 0.1
62 0.7
63 0.09
65 1
67 0.9
68 0.9
69 0.18
70 1.9
71 4.1
72 1.9
73 2.49
74 1.5
75 0.7
76 0.1
77 0.02
78 1
79 0.6
81 0.7
82 0.07
83 1.5
84 1.7
85 2.1
86 0.09
87 0.1
88 0.3
89 0.7
90 0.03
91 1.8
92 0.5
94 0.1
95 0.06
96 0.5
97 1.5
98 1.2
99 0.06
100 0.1
101 0.1
102 0.5
103 0.04
104 0.8
105 2.9
106 0.7
107 0.01
109 0.1
110 0.2
111 0.7
112 0.08
113 0.9
114 0.7
115 1.1
117 0.01
118 0.6
119 1.3
120 0.9
125 0.02
126 0.3
127 0.7
128 0.9
129 0.01
130 0.9
131 0.1
132 0.2
135 0.06
136 0.1
139 0.6
140 0.6
141 0.07
142 0.7
149 0.8
151 0.5
152 0.28
153 0.9
154 0.3
155 0.1
157 0.01
163 0.3
164 0.4
165 5.5
166 0.25
167 6.9
168 3
169 0.8
203 0.01
204 0.8
206 0.5
207 0.1
208 0.01
209 0.3
218 0.9
219 0.3
244 0.2

>  <PREDICTED SPECTRUM>  (4565) 
27 38
28 31
29 5
30 5
36 15
39 34
40 28
41 133
42 330
43 174
44 438
45 81
46 49
49 62
50 41
51 117
52 58
53 44
54 83
55 141
56 224
57 84
58 999
59 241
63 79
64 2
65 63
66 13
67 97
68 107
69 16
70 163
71 178
72 288
73 87
74 48
75 82
76 63
77 211
78 127
79 44
81 40
82 151
83 121
84 224
85 66
86 192
87 66
88 37
89 136
90 53
91 175
95 54
96 76
97 32
98 40
99 61
100 65
101 98
102 103
103 58
104 10
105 105
106 2
110 31
111 109
112 54
113 84
114 128
115 65
116 90
117 63
118 30
120 17
124 13
125 59
126 79
127 161
128 103
129 79
130 62
131 33
133 3
134 3
136 12
137 44
139 28
140 117
141 60
142 63
144 34
146 42
148 6
150 20
151 34
152 360
153 63
154 76
155 76
156 72
157 66
158 10
159 32
160 54
161 53
162 5
163 41
164 4
165 384
166 286
167 703
168 289
169 112
170 112
171 34
172 33
173 93
174 118
175 69
176 19
177 4
178 50
181 11
182 27
183 116
184 112
185 78
186 103
187 28
188 9
189 40
192 16
193 70
194 104
195 75
196 74
197 80
198 46
199 51
200 120
201 109
202 123
203 184
204 83
205 7
211 23
213 13
214 51
215 85
216 34
227 99
228 94
229 238
230 107
231 87
240 0
242 55
243 40
244 42
245 31
246 36
256 0
257 62
258 68
259 161
260 31
271 75
272 286
273 221
274 94
275 57
285 35
286 51
287 101
302 72
303 46
399 35
411 78
412 17
456 2
457 3
469 79
470 27
474 57

$$$$

     RDKit          2D

 15 14  0  0  0  0  0  0  0  0999 V2000
   -6.8408    5.0986    0.0000 C   0  0  0  0  0  0  0  0  0  0  0  0
   -3.9079    3.1995    0.0000 C   0  0  0  0  0  0  0  0  0  0  0  0
   -5.5418    4.3486    0.0000 C   0  0  0  0  0  0  0  0  0  0  0  0
   -4.2427    5.0986    0.0000 C   0  0  0  0  0  0  0  0  0  0  0  0
   -1.6446    5.0986    0.0000 C   0  0  0  0  0  0  0  0  0  0  0  0
   -1.9795    3.1995    0.0000 C   0  0  0  0  0  0  0  0  0  0  0  0
    0.9534    5.0986    0.0000 C   0  0  0  0  0  0  0  0  0  0  0  0
   -1.5283    0.6409    0.0000 C   0  0  0  0  0  0  0  0  0  0  0  0
   -2.9437    4.3486    0.0000 C   0  0  0  0  0  0  0  0  0  0  0  0
    2.2525    4.3486    0.0000 N   0  0  0  0  0  0  0  0  0  0  0  0
   -2.0414   -0.7686    0.0000 N   0  0  0  0  0  0  0  0  0  0  0  0
    0.9534    6.5986    0.0000 O   0  0  0  0  0  0  0  0  0  0  0  0
   -0.0511    0.9014    0.0000 O   0  0  0  0  0  0  0  0  0  0  0  0
   -0.3456    4.3486    0.0000 O   0  0  0  0  0  0  0  0  0  0  0  0
   -2.4925    1.7900    0.0000 O   0  0  0  0  0  0  0  0  0  0  0  0
  3  1  1  0
  4  3  1  0
  9  2  1  0
  9  4  1  0
  9  5  1  0
  9  6  1  0
 10  7  2  0
 11  8  2  0
 12  7  1  0
 13  8  1  0
 14  5  1  0
 14  7  1  0
 15  6  1  0
 15  8  1  0
M  END
>  <NAME>  (4566) 
MEPROBAMATE

>  <SYNONYMS>  (4566) 
2-METHYL-2-PROPYL-1,3-PROPANEDIOL DICARBAMATE

>  <SPECTRUM TYPE>  (4566) 
MS1

>  <INSTRUMENT TYPE>  (4566) 
EI-B

>  <INSTRUMENT>  (4566) 
Unknown

>  <ION MODE>  (4566) 
P

>  <INCHIKEY>  (4566) 
NPPQSCRMBWNHMW-UHFFFAOYSA-N

>  <FORMULA>  (4566) 
C9H18N2O4

>  <EXACT MASS>  (4566) 
218.126657056

>  <MW>  (4566) 
218

>  <ID>  (4566) 
JP003870

>  <CONTRIBUTOR>  (4566) 
University of Tokyo Team, {Faculty of Engineering, University of Tokyo

>  <COMMENT>  (4566) 
SMILES=CCCC(C)(COC(N)=O)COC(N)=O
InChI=InChI=1S/C9H18N2O4/c1-3-4-9(2,5-14-7(10)12)6-15-8(11)13/h3-6H2,1-2H3,(H2,10,12)(H2,11,13)
computed SMILES=N=C(O)OCC(C)(COC(=N)O)CCC
accession=JP003870
date=2016.01.19 (Created 2008.10.21, modified 2011.05.06)
author=SASAKI S, TOYOHASHI UNIV. OF TECH.
license=CC BY-NC-SA
exact mass=218.12666
ionization energy=70 eV
ion type=[M]+*
computed spectral entropy=3.2483817486327644
computed normalized entropy=0.7236901101050011
SPLASH=splash10-053u-9100000000-d890d15ca6738ce72f60
submitter=submitter = University of Tokyo Team (Faculty of Engineering, University of Tokyo)
MoNA Rating=3.75

>  <NUM PEAKS>  (4566) 
89

>  <MASS SPECTRAL PEAKS>  (4566) 
26 0.1
27 5.4
28 5.8
29 0.89
30 1
31 8.4
32 0.6
38 0.02
39 6.1
40 1.7
41 23.5
42 0.51
43 17.9
44 23.7
45 15.8
46 0.29
47 0.9
51 0.4
52 0.3
53 0.33
54 2.7
55 59.4
56 25.9
57 1.09
58 3.9
59 10.9
60 0.9
61 0.01
62 30.4
63 0.9
64 0.1
65 0.01
66 0.8
67 5.2
68 3.9
69 0.99
70 2.8
71 44.9
72 9.9
73 0.12
74 1.8
75 19.4
76 1.6
77 0.07
79 1.2
80 0.3
81 16.1
82 0.33
83 99.99
84 24.9
85 5.7
86 0.24
87 0.4
88 0.4
89 0.7
92 0.38
93 0.6
94 0.1
95 1.3
96 4.39
97 5.3
98 0.9
99 3.4
100 0.25
101 13.2
102 1.5
103 0.1
104 0.14
105 1
112 0.1
113 1.1
114 4.21
115 5.9
116 0.9
117 0.2
131 0.05
132 1.3
133 0.1
135 1.5
136 0.08
142 0.8
144 34.9
145 3.1
146 0.03
157 1.8
158 0.9
159 0.1
174 0.03
175 0.6

>  <PREDICTED SPECTRUM>  (4566) 
14 5
15 37
16 18
17 51
18 52
25 22
26 63
27 259
28 129
29 241
30 80
31 101
33 10
34 13
37 29
38 76
39 391
40 188
41 766
42 511
43 999
44 569
45 486
46 83
47 31
49 17
50 23
53 118
54 125
55 402
56 289
57 594
58 199
59 74
60 332
61 67
64 20
65 34
66 78
67 171
68 63
69 391
70 372
71 402
72 214
73 136
74 214
76 65
83 221
84 132
85 337
86 166
87 111
88 102
89 36
90 10
92 26
97 96
98 76
99 116
100 334
101 17
102 142
103 25
108 39
111 12
112 88
113 162
114 144
115 102
116 38
117 45
125 133
126 267
127 279
128 94
132 45
134 13
135 1
137 72
139 20
140 3
143 18
144 45
155 115
156 54
157 55
158 107
171 94
200 57

$$$$

     RDKit          2D

 16 15  0  0  0  0  0  0  0  0999 V2000
   -6.8408    5.0986    0.0000 C   0  0  0  0  0  0  0  0  0  0  0  0
   -4.2427    6.5986    0.0000 C   0  0  0  0  0  0  0  0  0  0  0  0
   -3.9079    3.1995    0.0000 C   0  0  0  0  0  0  0  0  0  0  0  0
   -5.5418    4.3486    0.0000 C   0  0  0  0  0  0  0  0  0  0  0  0
   -1.6446    5.0986    0.0000 C   0  0  0  0  0  0  0  0  0  0  0  0
   -1.9795    3.1995    0.0000 C   0  0  0  0  0  0  0  0  0  0  0  0
   -4.2427    5.0986    0.0000 C   0  0  0  0  0  0  0  0  0  0  0  0
    0.9534    5.0986    0.0000 C   0  0  0  0  0  0  0  0  0  0  0  0
   -1.5283    0.6409    0.0000 C   0  0  0  0  0  0  0  0  0  0  0  0
   -2.9437    4.3486    0.0000 C   0  0  0  0  0  0  0  0  0  0  0  0
    2.2525    4.3486    0.0000 N   0  0  0  0  0  0  0  0  0  0  0  0
   -2.0414   -0.7686    0.0000 N   0  0  0  0  0  0  0  0  0  0  0  0
    0.9534    6.5986    0.0000 O   0  0  0  0  0  0  0  0  0  0  0  0
   -0.0511    0.9014    0.0000 O   0  0  0  0  0  0  0  0  0  0  0  0
   -0.3456    4.3486    0.0000 O   0  0  0  0  0  0  0  0  0  0  0  0
   -2.4925    1.7900    0.0000 O   0  0  0  0  0  0  0  0  0  0  0  0
  4  1  1  0
  7  2  1  0
  7  4  1  0
 10  3  1  0
 10  5  1  0
 10  6  1  0
 10  7  1  0
 11  8  2  0
 12  9  2  0
 13  8  1  0
 14  9  1  0
 15  5  1  0
 15  8  1  0
 16  6  1  0
 16  9  1  0
M  END
>  <NAME>  (4567) 
MEBUTAMATE

>  <SYNONYMS>  (4567) 
2-SEC-BUTYL-2-METHYL-1,3-PROPANEDIOL DICARBAMATE

>  <SPECTRUM TYPE>  (4567) 
MS1

>  <INSTRUMENT TYPE>  (4567) 
EI-B

>  <INSTRUMENT>  (4567) 
Unknown

>  <ION MODE>  (4567) 
P

>  <INCHIKEY>  (4567) 
LEROTMJVBFSIMP-UHFFFAOYSA-N

>  <FORMULA>  (4567) 
C10H20N2O4

>  <EXACT MASS>  (4567) 
232.14230712

>  <MW>  (4567) 
232

>  <ID>  (4567) 
JP003869

>  <CONTRIBUTOR>  (4567) 
University of Tokyo Team, {Faculty of Engineering, University of Tokyo

>  <COMMENT>  (4567) 
SMILES=CCC(C)C(C)(COC(N)=O)COC(N)=O
InChI=InChI=1S/C10H20N2O4/c1-4-7(2)10(3,5-15-8(11)13)6-16-9(12)14/h7H,4-6H2,1-3H3,(H2,11,13)(H2,12,14)
computed SMILES=N=C(O)OCC(C)(COC(=N)O)C(C)CC
accession=JP003869
date=2016.01.19 (Created 2008.10.21, modified 2011.05.06)
author=SASAKI S, TOYOHASHI UNIV. OF TECH.
license=CC BY-NC-SA
exact mass=232.14231
ionization energy=70 eV
ion type=[M]+*
computed spectral entropy=3.4237622022937044
computed normalized entropy=0.7450865948998966
SPLASH=splash10-0aba-9200000000-e229dbd3b7da4f2a4429
submitter=submitter = University of Tokyo Team (Faculty of Engineering, University of Tokyo)
MoNA Rating=3.75

>  <NUM PEAKS>  (4567) 
99

>  <MASS SPECTRAL PEAKS>  (4567) 
26 0.9
27 7.7
28 7.4
29 1.59
30 1.3
31 7.9
32 0.9
39 0.07
40 1.9
41 29.4
42 4.9
43 2.14
44 24.9
45 6.4
46 1.7
47 0.06
51 0.7
52 0.5
53 4.9
54 0.47
55 62.4
56 11.5
57 24.5
58 0.38
59 7
60 0.8
61 0.8
62 4.09
63 0.9
64 0.4
65 1
66 0.09
67 6.1
68 3.4
69 34.4
70 1.25
71 42.1
72 64
73 14.9
74 0.23
75 16.9
76 1.6
77 1
78 0.01
79 1.8
80 0.3
81 8.4
82 0.59
83 8.9
84 12.9
85 5.7
86 0.13
87 0.4
88 1.3
89 1.8
91 0.07
92 1.9
93 0.6
94 0.7
95 1.59
96 2.9
97 99.99
98 17.9
99 0.79
100 2.4
101 1
102 0.9
103 0.01
104 2.5
105 1.3
106 0.1
109 0.14
110 34.9
111 3.9
112 1
113 0.19
114 5.2
115 20.4
116 5
117 0.07
118 0.6
119 0.5
120 0.1
126 0.01
127 0.3
128 15.9
129 1.9
130 0.01
131 0.3
132 3.9
133 0.9
134 0.07
135 1.1
136 0.9
158 30.9
159 0.29
160 0.4
175 4.4
176 0.9

>  <PREDICTED SPECTRUM>  (4567) 
14 7
15 20
16 23
17 46
18 55
25 14
26 79
27 294
28 124
29 265
30 44
31 95
33 8
34 25
37 29
38 61
39 362
40 171
41 673
42 472
43 999
44 513
45 415
46 154
47 67
49 6
50 51
51 12
52 31
53 172
54 82
55 276
56 299
57 363
58 215
59 256
60 222
61 137
62 6
63 18
65 3
67 116
68 182
69 355
70 364
71 612
72 242
73 348
74 143
75 51
76 54
77 29
81 105
83 198
84 268
85 330
86 144
87 165
88 153
89 101
90 58
97 247
98 219
99 156
100 160
101 130
102 153
103 85
104 26
111 117
112 148
113 141
114 205
115 174
116 248
117 52
118 40
119 50
122 37
125 136
126 202
127 347
128 233
129 40
130 133
131 235
139 95
140 273
141 453
142 369
143 138
144 147
146 21
152 36
153 109
154 79
155 32
156 153
157 33
158 100
169 267
170 368
171 128
172 15
186 26
187 70
199 33
214 73
215 29

$$$$

     RDKit          2D

 10  9  0  0  0  0  0  0  0  0999 V2000
    0.5260    2.7594    0.0000 C   0  0  0  0  0  0  0  0  0  0  0  0
   -4.6702    2.7594    0.0000 C   0  0  0  0  0  0  0  0  0  0  0  0
   -3.0363    1.6103    0.0000 C   0  0  0  0  0  0  0  0  0  0  0  0
   -0.7731    3.5094    0.0000 C   0  0  0  0  0  0  0  0  0  0  0  0
   -3.3711    3.5094    0.0000 C   0  0  0  0  0  0  0  0  0  0  0  0
   -1.6209    0.2008    0.0000 C   0  0  0  0  0  0  0  0  0  0  0  0
   -2.0721    2.7594    0.0000 C   0  0  0  0  0  0  0  0  0  0  0  0
   -0.6568   -0.9483    0.0000 N   0  0  0  0  0  0  0  0  0  0  0  0
   -3.0982   -0.0597    0.0000 O   0  0  0  0  0  0  0  0  0  0  0  0
   -1.1079    1.6103    0.0000 O   0  0  0  0  0  0  0  0  0  0  0  0
  4  1  1  0
  5  2  1  0
  7  3  1  0
  7  4  1  0
  7  5  1  0
  8  6  2  0
  9  6  1  0
 10  6  1  0
 10  7  1  0
M  END
>  <NAME>  (4568) 
EMYLCAMATE

>  <SYNONYMS>  (4568) 
1-ETHYL-1-METHYLPROPYL CARBAMATE

>  <SPECTRUM TYPE>  (4568) 
MS1

>  <INSTRUMENT TYPE>  (4568) 
EI-B

>  <INSTRUMENT>  (4568) 
Unknown

>  <ION MODE>  (4568) 
P

>  <INCHIKEY>  (4568) 
SLWGJZPKHAXZQL-UHFFFAOYSA-N

>  <FORMULA>  (4568) 
C7H15NO2

>  <EXACT MASS>  (4568) 
145.11027872

>  <MW>  (4568) 
145

>  <ID>  (4568) 
JP003868

>  <CONTRIBUTOR>  (4568) 
University of Tokyo Team, {Faculty of Engineering, University of Tokyo

>  <COMMENT>  (4568) 
SMILES=CCC(C)(CC)OC(N)=O
InChI=InChI=1S/C7H15NO2/c1-4-7(3,5-2)10-6(8)9/h4-5H2,1-3H3,(H2,8,9)
computed SMILES=N=C(O)OC(C)(CC)CC
accession=JP003868
date=2016.01.19 (Created 2008.10.21, modified 2011.05.06)
author=SASAKI S, TOYOHASHI UNIV. OF TECH.
license=CC BY-NC-SA
exact mass=145.11028
ionization energy=70 eV
ion type=[M]+*
computed spectral entropy=2.9015255225977037
computed normalized entropy=0.6720401877889969
SPLASH=splash10-006x-9000000000-887dd5d4a4fc6e232494
submitter=submitter = University of Tokyo Team (Faculty of Engineering, University of Tokyo)
MoNA Rating=3.75

>  <NUM PEAKS>  (4568) 
75

>  <MASS SPECTRAL PEAKS>  (4568) 
26 1.9
27 14.4
28 15.4
29 1.59
30 0.9
31 4.4
32 1.6
38 0.09
39 8.1
40 2.1
41 28.1
42 0.59
43 50.4
44 23.9
45 10.9
46 0.09
50 0.9
51 1.3
52 0.8
53 0.39
54 1.9
55 35.9
56 10.9
57 1.04
58 1.6
59 2.1
60 0.9
62 0.39
63 0.1
65 0.7
66 0.2
67 0.28
68 0.9
69 29.4
70 4.5
71 0.39
72 1.9
73 99.99
74 5.9
75 0.11
76 0.1
77 0.9
78 0.5
79 0.09
80 0.9
81 1.1
82 1
83 0.02
84 37.9
85 20.9
86 1.9
87 1.04
88 1.4
90 0.9
91 0.1
95 0.01
97 0.9
98 0.9
99 0.6
100 0.01
101 0.1
103 0.1
104 0.5
105 0.19
106 0.2
111 0.4
112 0.4
113 0.04
115 0.1
116 3.9
117 0.9
118 0.08
119 0.9
120 0.9
130 2.3

>  <PREDICTED SPECTRUM>  (4568) 
25 0
26 71
27 271
28 157
29 286
31 246
32 14
33 0
38 43
39 311
40 133
41 900
42 486
43 785
44 739
45 690
46 283
47 139
50 58
51 89
52 72
53 293
54 221
55 807
56 578
57 571
58 143
59 537
60 217
61 212
62 64
63 24
65 27
67 287
68 201
69 706
70 630
71 457
72 362
73 999
74 287
75 27
82 138
83 384
84 484
85 509
86 356
87 144
88 86
89 17
96 21
97 121
98 575
99 300
100 272
101 130
112 162
116 665
117 199
118 28
128 77
130 91

$$$$

     RDKit          2D

 19 20  0  0  0  0  0  0  0  0999 V2000
    2.7889   -5.3648    0.0000 C   0  0  0  0  0  0  0  0  0  0  0  0
    0.0000    3.2300    0.0000 C   0  0  0  0  0  0  0  0  0  0  0  0
    1.3550   -4.9244    0.0000 C   0  0  0  0  0  0  0  0  0  0  0  0
   -4.7996   -3.5223    0.0000 C   0  0  0  0  0  0  0  0  0  0  0  0
   -3.5578   -4.3651    0.0000 C   0  0  0  0  0  0  0  0  0  0  0  0
   -4.6916   -2.0253    0.0000 C   0  0  0  0  0  0  0  0  0  0  0  0
    1.6900   -0.3900    0.0000 C   0  0  0  0  0  0  0  0  0  0  0  0
   -2.2079   -3.7110    0.0000 C   0  0  0  0  0  0  0  0  0  0  0  0
   -3.3417   -1.3712    0.0000 C   0  0  0  0  0  0  0  0  0  0  0  0
    0.7500   -1.5600    0.0000 C   0  0  0  0  0  0  0  0  0  0  0  0
   -1.6900   -0.3900    0.0000 C   0  0  0  0  0  0  0  0  0  0  0  0
    1.3500    1.0800    0.0000 C   0  0  0  0  0  0  0  0  0  0  0  0
   -1.3500    1.0800    0.0000 C   0  0  0  0  0  0  0  0  0  0  0  0
   -2.0999   -2.2141    0.0000 C   0  0  0  0  0  0  0  0  0  0  0  0
   -0.4145   -3.0220    0.0000 C   0  0  0  0  0  0  0  0  0  0  0  0
   -0.7500   -1.5600    0.0000 C   0  0  0  0  0  0  0  0  0  0  0  0
   -0.0000    1.7300    0.0000 N   0  0  0  0  0  0  0  0  0  0  0  0
   -1.5128   -4.0436    0.0000 O   0  0  0  0  0  0  0  0  0  0  0  0
    1.0194   -3.4624    0.0000 O   0  0  0  0  0  0  0  0  0  0  0  0
  3  1  1  0
  5  4  2  0
  6  4  1  0
  8  5  1  0
  9  6  2  0
 10  7  1  0
 12  7  1  0
 13 11  1  0
 14  8  2  0
 14  9  1  0
 16 10  1  0
 16 11  1  0
 16 14  1  0
 16 15  1  0
 17  2  1  0
 17 12  1  0
 17 13  1  0
 18 15  2  0
 19  3  1  0
 19 15  1  0
M  END
>  <NAME>  (4569) 
4-ETHOXYCARBONYL-1-METHYL-4-PHENYL-HEXAHYDRO-1H-AZEPINE

>  <SYNONYMS>  (4569) 
ZACTANE

>  <SPECTRUM TYPE>  (4569) 
MS1

>  <INSTRUMENT TYPE>  (4569) 
EI-B

>  <INSTRUMENT>  (4569) 
Unknown

>  <ION MODE>  (4569) 
P

>  <INCHIKEY>  (4569) 
WGJHHMKQBWSQIY-UHFFFAOYSA-N

>  <FORMULA>  (4569) 
C16H23NO2

>  <EXACT MASS>  (4569) 
261.172878976

>  <MW>  (4569) 
261

>  <ID>  (4569) 
JP003867

>  <CONTRIBUTOR>  (4569) 
University of Tokyo Team, {Faculty of Engineering, University of Tokyo

>  <COMMENT>  (4569) 
SMILES=CCOC(=O)C(C2)(CCN(C)CC2)c(c1)cccc1
InChI=InChI=1S/C16H23NO2/c1-3-19-15(18)16(14-8-5-4-6-9-14)10-7-12-17(2)13-11-16/h4-6,8-9H,3,7,10-13H2,1-2H3
computed SMILES=O=C(OCC)C1(C=2C=CC=CC2)CCN(C)CCC1
ion type=[M]+*
accession=JP003867
date=2016.01.19 (Created 2008.10.21, modified 2011.05.06)
author=SASAKI S, TOYOHASHI UNIV. OF TECH.
license=CC BY-NC-SA
exact mass=261.17288
ionization energy=70 eV
computed spectral entropy=3.86081841323005
computed normalized entropy=0.816691704020524
SPLASH=splash10-0a4i-9710000000-35e298063927ae0be2eb
submitter=submitter = University of Tokyo Team (Faculty of Engineering, University of Tokyo)
MoNA Rating=3.75

>  <NUM PEAKS>  (4569) 
113

>  <MASS SPECTRAL PEAKS>  (4569) 
48 0.9
49 0.9
50 10.9
51 2.09
52 17.9
53 9.9
54 7.9
55 2.19
56 22.9
57 70.9
58 31.9
59 0.59
61 3.9
62 2.9
63 6.4
64 0.49
65 5.9
66 3.9
67 9.9
68 0.79
69 12.9
70 25.9
71 20.9
72 3.74
73 5.9
74 3.4
75 3.9
76 1.09
77 37.9
78 60.9
79 42.4
80 1.19
81 7.9
82 9.9
83 11.9
84 1.49
85 7.9
86 1.9
87 0.9
90 0.29
91 17.9
92 5.9
93 6.9
94 1.39
95 7.4
96 5.9
97 4.9
98 0.79
99 5.9
100 0.9
101 0.9
102 0.39
103 5.9
104 7.9
105 36.9
106 2.29
107 99.99
108 56.9
109 7.9
110 1.39
111 2.9
118 3.9
119 24.9
120 0.49
121 4.9
122 3.9
123 1.9
124 0.09
148 0.9
149 78.9
150 7.9
151 0.19
152 0.9
183 5.9
184 2.9
185 0.99
186 7.9
187 1.9
188 14.9
189 0.29
190 2.9
191 1.9
192 2.4
193 0.69
194 15.9
195 18.4
196 22.9
197 0.39
198 3.9
199 5.9
200 2.9
208 0.24
209 2.9
210 13.9
211 2.9
212 0.29
213 1.9
219 11.9
220 3.9
221 0.09
222 1.9
223 8.9
224 0.9
245 0.09
246 4.9
247 1.9
248 0.9
259 0.19
260 4.9
261 15.9
262 3.9
263 0.09
264 0.4

>  <PREDICTED SPECTRUM>  (4569) 
29 133
39 23
40 34
41 148
42 870
43 544
44 429
45 45
51 109
52 80
53 74
54 35
55 154
56 141
57 659
58 266
64 1
65 111
67 115
68 27
70 345
71 999
72 238
77 208
78 100
79 0
80 15
82 199
83 14
84 110
85 185
89 114
91 691
92 51
96 355
97 54
102 25
103 389
110 144
115 586
116 211
117 338
118 33
127 45
128 258
129 277
130 249
131 447
132 128
133 49
138 30
141 140
142 143
143 378
144 327
145 157
158 116
159 72
160 230
170 314
171 130
172 157
173 248
186 590
187 312
188 964
189 255
204 69
216 220
218 182
232 392
233 390
234 89
246 465
247 291
260 391
261 663
262 225

$$$$

     RDKit          2D

 19 20  0  0  0  0  0  0  0  0999 V2000
    7.2219    5.6393    0.0000 C   0  0  0  0  0  0  0  0  0  0  0  0
    8.5265    3.3925    0.0000 C   0  0  0  0  0  0  0  0  0  0  0  0
    2.0281    4.1261    0.0000 C   0  0  0  0  0  0  0  0  0  0  0  0
    0.7301    3.3727    0.0000 C   0  0  0  0  0  0  0  0  0  0  0  0
    3.3301    3.3796    0.0000 C   0  0  0  0  0  0  0  0  0  0  0  0
    1.9785   -0.5121    0.0000 C   0  0  0  0  0  0  0  0  0  0  0  0
    0.9748   -1.6268    0.0000 C   0  0  0  0  0  0  0  0  0  0  0  0
    0.7341    1.8727    0.0000 C   0  0  0  0  0  0  0  0  0  0  0  0
    5.9284    3.3860    0.0000 C   0  0  0  0  0  0  0  0  0  0  0  0
    5.9322    1.8860    0.0000 C   0  0  0  0  0  0  0  0  0  0  0  0
    4.6387   -0.3672    0.0000 C   0  0  0  0  0  0  0  0  0  0  0  0
    3.3416   -1.1204    0.0000 C   0  0  0  0  0  0  0  0  0  0  0  0
    1.7223   -2.9188    0.0000 C   0  0  0  0  0  0  0  0  0  0  0  0
    3.3341    1.8796    0.0000 C   0  0  0  0  0  0  0  0  0  0  0  0
    1.1087   -4.2876    0.0000 Cl  0  0  0  0  0  0  0  0  0  0  0  0
    2.0361    1.1261    0.0000 N   0  0  0  0  0  0  0  0  0  0  0  0
    7.2256    4.1393    0.0000 N   0  0  0  0  0  0  0  0  0  0  0  0
    4.6350    1.1328    0.0000 N   0  0  0  0  0  0  0  0  0  0  0  0
    3.1933   -2.6152    0.0000 S   0  0  0  0  0  0  0  0  0  0  0  0
  4  3  2  0
  5  3  1  0
  7  6  1  0
  8  4  1  0
 10  9  1  0
 12  6  2  0
 12 11  1  0
 13  7  2  0
 14  5  2  0
 15 13  1  0
 16  8  2  0
 16 14  1  0
 17  1  1  0
 17  2  1  0
 17  9  1  0
 18 10  1  0
 18 11  1  0
 18 14  1  0
 19 12  1  0
 19 13  1  0
M  END
>  <NAME>  (4570) 
CHLOROTHEN

>  <SYNONYMS>  (4570) 
N-((5-CHLORO-2-THIENYL)METHYL)-N',N'-DIMETHYL-N-(2-PYRIDYL)-1,2-ETHANEDIAMINE

>  <SPECTRUM TYPE>  (4570) 
MS1

>  <INSTRUMENT TYPE>  (4570) 
EI-B

>  <INSTRUMENT>  (4570) 
Unknown

>  <ION MODE>  (4570) 
P

>  <INCHIKEY>  (4570) 
XAEXSWVTEJHRMH-UHFFFAOYSA-N

>  <FORMULA>  (4570) 
C14H18ClN3S

>  <EXACT MASS>  (4570) 
295.090996256

>  <MW>  (4570) 
295

>  <ID>  (4570) 
JP003866

>  <CONTRIBUTOR>  (4570) 
University of Tokyo Team, {Faculty of Engineering, University of Tokyo

>  <COMMENT>  (4570) 
SMILES=CN(C)CCN(Cc(c2)sc(Cl)c2)c(c1)nccc1
InChI=InChI=1S/C14H18ClN3S/c1-17(2)9-10-18(14-5-3-4-8-16-14)11-12-6-7-13(15)19-12/h3-8H,9-11H2,1-2H3
computed SMILES=ClC=1SC(=CC1)CN(C2=NC=CC=C2)CCN(C)C
accession=JP003866
date=2016.01.19 (Created 2008.10.21, modified 2011.05.06)
author=SASAKI S, TOYOHASHI UNIV. OF TECH.
license=CC BY-NC-SA
exact mass=295.091
ionization energy=70 eV
ion type=[M]+*
computed spectral entropy=3.3624832923147197
computed normalized entropy=0.6775314447308467
SPLASH=splash10-0a4i-9100000000-55c5514ebe1efa8ff06c
submitter=submitter = University of Tokyo Team (Faculty of Engineering, University of Tokyo)
MoNA Rating=3.75

>  <NUM PEAKS>  (4570) 
143

>  <MASS SPECTRAL PEAKS>  (4570) 
25 0.6
26 2.4
27 6.4
28 1.07
29 2.6
30 8
31 0.2
32 0.11
33 1.1
34 1.6
35 1
36 0.21
37 1
38 1.9
39 3.8
40 0.02
41 2.9
42 10.6
43 4
44 0.35
45 3.9
46 0.6
47 1
48 0.04
49 0.9
50 2.4
51 6.9
52 0.64
53 2.3
54 1
55 1.4
56 0.29
57 2.4
58 99.99
59 5
60 0.02
61 0.8
62 0.7
63 1.4
64 0.12
65 1.3
66 1.2
67 1.7
68 0.06
69 1.9
70 1.4
71 15.1
72 0.16
73 1.8
74 0.1
75 1.1
76 0.01
77 1.2
78 7.7
79 11.8
80 0.16
81 1.2
82 0.9
83 0.6
84 0.04
85 0.4
86 0.2
87 2
88 0.04
89 1.4
90 0.1
91 1
92 0.09
93 1.2
94 1
95 2.4
96 0.14
97 2.6
98 1
99 0.4
104 0.06
105 1.7
106 1.7
107 2.1
108 0.09
109 0.4
110 0.5
111 0.3
112 0.02
115 0.3
116 0.4
117 0.5
118 0.01
119 3.1
120 1
121 1.3
122 0.04
130 0.2
131 18.2
132 2.6
133 0.74
134 1.2
135 1.1
136 0.4
143 0.02
144 0.3
145 1
146 0.8
147 0.03
154 0.2
155 0.8
156 0.4
157 0.03
158 0.1
162 0.9
163 0.4
164 0.02
165 0.1
168 0.7
169 0.4
170 0.01
187 1.4
188 1.1
189 1.5
190 0.04
191 0.2
200 0.1
201 0.7
202 0.02
203 0.1
223 1
224 1.5
225 0.03
226 1
227 1.4
228 0.4
237 0.06
238 0.2
239 0.3
240 0.1
251 0.03
252 0.1
253 0.1
295 1.3
296 0.03
297 0.8
298 0.2
299 0.1

>  <PREDICTED SPECTRUM>  (4570) 
15 22
30 36
34 2
36 17
37 7
38 37
39 89
40 26
41 54
42 265
43 74
44 146
45 91
46 20
47 35
49 21
50 84
51 164
52 75
53 49
54 27
55 38
56 123
57 37
58 999
59 84
61 6
62 11
63 84
64 95
65 116
66 52
67 36
69 63
70 41
71 203
72 124
73 134
74 57
75 80
76 51
77 108
78 239
79 107
80 78
81 78
82 42
83 29
84 19
85 4
89 18
90 21
91 66
92 148
93 96
94 80
95 50
96 40
97 18
101 29
102 20
103 32
104 47
105 59
106 122
107 107
108 52
109 28
111 12
112 15
113 55
114 60
115 60
117 6
119 14
125 13
126 30
127 52
128 33
129 72
130 21
131 75
133 88
134 41
135 28
143 4
146 20
147 39
148 25
152 10
153 35
154 12
155 32
157 12
159 16
172 2
173 41
188 100
189 73
203 3
205 68
206 58
207 107
209 5
223 0
224 67
225 76
226 34
237 174
238 149
239 143
240 47
241 7
294 16
295 44
296 7
297 19
298 8

$$$$

     RDKit          2D

 18 19  0  0  0  0  0  0  0  0999 V2000
    7.5355   -2.3178    0.0000 C   0  0  0  0  0  0  0  0  0  0  0  0
    6.2393   -0.0662    0.0000 C   0  0  0  0  0  0  0  0  0  0  0  0
    1.0366   -6.0608    0.0000 C   0  0  0  0  0  0  0  0  0  0  0  0
    2.3353   -6.8131    0.0000 C   0  0  0  0  0  0  0  0  0  0  0  0
   -2.6329   -2.8079    0.0000 C   0  0  0  0  0  0  0  0  0  0  0  0
   -1.6292   -1.6932    0.0000 C   0  0  0  0  0  0  0  0  0  0  0  0
    1.0377   -4.5600    0.0000 C   0  0  0  0  0  0  0  0  0  0  0  0
    3.6352   -6.0644    0.0000 C   0  0  0  0  0  0  0  0  0  0  0  0
    4.9375   -2.3146    0.0000 C   0  0  0  0  0  0  0  0  0  0  0  0
    3.6394   -1.5630    0.0000 C   0  0  0  0  0  0  0  0  0  0  0  0
   -1.8780   -4.1066    0.0000 C   0  0  0  0  0  0  0  0  0  0  0  0
    1.0413   -1.5598    0.0000 C   0  0  0  0  0  0  0  0  0  0  0  0
   -0.2587   -2.3082    0.0000 C   0  0  0  0  0  0  0  0  0  0  0  0
    2.3376   -3.8114    0.0000 C   0  0  0  0  0  0  0  0  0  0  0  0
    3.6363   -4.5636    0.0000 N   0  0  0  0  0  0  0  0  0  0  0  0
    6.2374   -1.5662    0.0000 N   0  0  0  0  0  0  0  0  0  0  0  0
    2.3394   -2.3114    0.0000 N   0  0  0  0  0  0  0  0  0  0  0  0
   -0.4144   -3.7962    0.0000 S   0  0  0  0  0  0  0  0  0  0  0  0
  4  3  2  0
  6  5  1  0
  7  3  1  0
  8  4  1  0
 10  9  1  0
 11  5  2  0
 13  6  2  0
 13 12  1  0
 14  7  2  0
 15  8  2  0
 15 14  1  0
 16  1  1  0
 16  2  1  0
 16  9  1  0
 17 10  1  0
 17 12  1  0
 17 14  1  0
 18 11  1  0
 18 13  1  0
M  END
>  <NAME>  (4571) 
METHAPYRILENE

>  <SYNONYMS>  (4571) 
N,N-DIMETHYL-N'-(2-PYRIDYL)-N'-(2-THIENYL)METHYL-1,2-ETHANEDIAMINE

>  <SPECTRUM TYPE>  (4571) 
MS1

>  <INSTRUMENT TYPE>  (4571) 
EI-B

>  <INSTRUMENT>  (4571) 
Unknown

>  <ION MODE>  (4571) 
P

>  <INCHIKEY>  (4571) 
HNJJXZKZRAWDPF-UHFFFAOYSA-N

>  <FORMULA>  (4571) 
C14H19N3S

>  <EXACT MASS>  (4571) 
261.129968608

>  <MW>  (4571) 
261

>  <ID>  (4571) 
JP003865

>  <CONTRIBUTOR>  (4571) 
University of Tokyo Team, {Faculty of Engineering, University of Tokyo

>  <COMMENT>  (4571) 
SMILES=CN(C)CCN(Cc(c2)scc2)c(c1)nccc1
InChI=InChI=1S/C14H19N3S/c1-16(2)9-10-17(12-13-6-5-11-18-13)14-7-3-4-8-15-14/h3-8,11H,9-10,12H2,1-2H3
computed SMILES=N=1C=CC=CC1N(CC=2SC=CC2)CCN(C)C
accession=JP003865
date=2016.01.19 (Created 2008.10.21, modified 2011.05.06)
author=SASAKI S, TOYOHASHI UNIV. OF TECH.
license=CC BY-NC-SA
exact mass=261.12997
ionization energy=70 eV
ion type=[M]+*
computed spectral entropy=2.966611063607269
computed normalized entropy=0.6428025124764706
SPLASH=splash10-0a4j-9100000000-9f9c0628cb8aefa5e587
submitter=submitter = University of Tokyo Team (Faculty of Engineering, University of Tokyo)
MoNA Rating=3.75

>  <NUM PEAKS>  (4571) 
101

>  <MASS SPECTRAL PEAKS>  (4571) 
38 0.9
39 2.4
40 1.4
41 0.19
42 5.9
43 2.4
44 2.9
45 0.39
46 0.9
50 0.9
51 1.9
52 0.29
53 2.9
54 1.4
55 2.4
56 0.34
57 2.4
58 99.99
59 4.9
60 0.09
64 0.4
65 1.4
66 0.9
67 0.09
68 0.4
69 1.4
70 1.9
71 1.84
72 28.4
73 1.9
74 0.4
75 0.09
76 0.9
77 0.4
78 6.4
79 0.89
80 1.4
81 0.4
82 1.4
83 0.19
84 23.9
85 3.4
89 0.9
90 0.09
91 4.4
92 0.9
93 1.2
95 0.09
96 0.9
97 71.4
98 7.4
99 0.39
100 0.4
103 0.9
104 0.4
105 0.19
106 2.4
107 2.9
108 0.4
109 0.04
117 0.9
118 1.4
119 3.9
120 0.09
121 1.4
147 0.4
148 0.4
149 0.19
150 2.9
151 0.9
152 0.4
155 0.09
156 0.4
157 1.9
158 0.4
187 0.04
188 0.9
189 3.9
190 11.9
191 1.49
192 1.9
193 0.9
194 0.4
201 0.09
202 0.9
203 6.9
204 1.4
205 0.09
206 0.4
215 0.4
216 0.9
217 0.14
218 0.4
219 0.4
260 0.9
261 1.09
262 1.9
263 0.9
264 0.4
266 0.04
267 1.4

>  <PREDICTED SPECTRUM>  (4571) 
15 12
27 13
28 4
29 1
30 48
38 5
39 106
40 37
41 64
42 215
43 126
44 80
45 127
47 19
49 3
50 27
51 99
52 52
53 63
54 10
55 49
56 109
57 21
58 999
59 159
62 21
63 74
64 22
65 58
66 20
69 40
70 46
71 231
72 113
75 3
76 2
77 35
78 94
79 18
80 16
82 9
84 49
89 18
90 20
91 44
92 42
95 9
97 130
106 41
108 18
111 116
118 54
119 18
121 77
122 11
133 38
146 35
147 82
148 52
149 53
160 26
161 48
162 14
164 40
165 18
171 1
173 58
174 50
175 40
176 25
189 40
190 79
191 58
192 17
202 0
203 251
204 165
205 104
218 0
246 9
261 112
262 36

$$$$

     RDKit          2D

 14 14  0  0  0  0  0  0  0  0999 V2000
   -3.3013   -1.3889    0.0000 C   0  0  0  0  0  0  0  0  0  0  0  0
   -2.8499   -2.1704    0.0000 C   0  0  0  0  0  0  0  0  0  0  0  0
   -0.4083   -3.0585    0.0000 C   0  0  0  0  0  0  0  0  0  0  0  0
   -2.3372   -0.2397    0.0000 C   0  0  0  0  0  0  0  0  0  0  0  0
   -1.3727   -1.9096    0.0000 C   0  0  0  0  0  0  0  0  0  0  0  0
   -0.8600    1.0000    0.0000 C   0  0  0  0  0  0  0  0  0  0  0  0
    0.4400   -1.2500    0.0000 C   0  0  0  0  0  0  0  0  0  0  0  0
    1.7400    1.0000    0.0000 C   0  0  0  0  0  0  0  0  0  0  0  0
   -0.8600   -0.5000    0.0000 C   0  0  0  0  0  0  0  0  0  0  0  0
    0.4400    1.7500    0.0000 N   0  0  0  0  0  0  0  0  0  0  0  0
    1.7400   -0.5000    0.0000 N   0  0  0  0  0  0  0  0  0  0  0  0
   -2.1589    1.7502    0.0000 O   0  0  0  0  0  0  0  0  0  0  0  0
    0.4400   -2.7500    0.0000 O   0  0  0  0  0  0  0  0  0  0  0  0
    3.0389    1.7502    0.0000 O   0  0  0  0  0  0  0  0  0  0  0  0
  4  1  1  0
  5  2  1  0
  5  3  1  0
  9  4  1  0
  9  5  1  0
  9  6  1  0
  9  7  1  0
 10  6  2  0
 10  8  1  0
 11  7  2  0
 11  8  1  0
 12  6  1  0
 13  7  1  0
 14  8  2  0
M  END
>  <NAME>  (4572) 
5-ETHYL-5-ISOPROPYL-BARBITURIC ACID

>  <SYNONYMS>  (4572) 
PROBARBITAL

>  <SPECTRUM TYPE>  (4572) 
MS1

>  <INSTRUMENT TYPE>  (4572) 
EI-B

>  <INSTRUMENT>  (4572) 
Unknown

>  <ION MODE>  (4572) 
P

>  <INCHIKEY>  (4572) 
HHLXJTDUHFBYAU-UHFFFAOYSA-N

>  <FORMULA>  (4572) 
C9H14N2O3

>  <EXACT MASS>  (4572) 
198.10044230799997

>  <MW>  (4572) 
198

>  <ID>  (4572) 
JP003863

>  <CONTRIBUTOR>  (4572) 
University of Tokyo Team, {Faculty of Engineering, University of Tokyo

>  <COMMENT>  (4572) 
SMILES=CCC(C(C)C)(C(=O)1)C(=O)NC(=O)N1
InChI=InChI=1S/C9H14N2O3/c1-4-9(5(2)3)6(12)10-8(14)11-7(9)13/h5H,4H2,1-3H3,(H2,10,11,12,13,14)
computed SMILES=O=C1N=C(O)C(C(O)=N1)(CC)C(C)C
accession=JP003863
date=2016.01.19 (Created 2008.10.21, modified 2011.05.06)
author=SASAKI S, TOYOHASHI UNIV. OF TECH.
license=CC BY-NC-SA
exact mass=198.10044
ionization energy=70 eV
ion type=[M]+*
computed spectral entropy=2.5660116519249003
computed normalized entropy=0.5943297548127274
SPLASH=splash10-0a4i-4900000000-47dade6445c02f584897
submitter=submitter = University of Tokyo Team (Faculty of Engineering, University of Tokyo)
MoNA Rating=3.75

>  <NUM PEAKS>  (4572) 
75

>  <MASS SPECTRAL PEAKS>  (4572) 
26 0.3
27 3.4
28 2.9
29 0.24
30 0.1
37 0.1
38 0.4
39 0.39
40 1.4
41 11.9
42 1.9
43 0.99
44 2.9
51 0.4
52 0.9
53 0.19
54 1.7
55 3.9
56 1.3
57 0.01
58 0.9
59 0.1
65 0.5
66 0.09
67 2.3
68 1.5
69 3.9
70 0.31
71 0.9
72 0.1
79 0.4
80 0.19
81 0.3
82 0.9
83 1.9
84 0.11
85 2.9
86 0.9
94 1.6
95 0.09
96 0.9
97 2.7
98 7.9
99 0.09
100 0.1
108 0.1
109 2.4
110 0.08
111 0.9
112 4.9
113 1.7
114 0.01
124 0.2
126 1.9
140 0.3
141 5.79
142 4.4
143 1.4
144 0.4
153 0.01
154 0.9
155 9.9
156 99.99
157 0.84
158 1.4
159 0.4
168 0.1
169 0.59
170 2.9
171 0.9
182 0.1
183 0.09
184 0.1
198 0.1
199 0.6

>  <PREDICTED SPECTRUM>  (4572) 
14 0
17 5
18 40
26 30
27 131
28 60
29 118
38 65
39 133
40 319
41 793
42 713
43 999
44 495
45 392
46 127
50 48
51 75
52 299
53 477
54 421
55 475
56 303
57 350
58 386
59 191
60 71
66 72
67 377
68 496
69 990
70 808
71 672
72 435
73 124
74 162
80 209
81 192
82 273
83 713
84 227
85 273
86 292
87 120
96 138
97 342
98 298
99 242
100 321
101 265
102 6
108 1
109 137
110 50
111 190
112 279
113 256
114 26
123 9
125 337
126 308
127 918
128 537
129 344
130 8
137 14
138 58
139 25
140 315
141 307
142 376
143 157
152 80
153 184
154 222
155 970
156 744
157 169
169 199
170 165
171 84
183 43
197 180
198 800
199 296

$$$$

     RDKit          2D

 17 18  0  0  0  0  0  0  0  0999 V2000
    6.1262    0.5408    0.0000 C   0  0  0  0  0  0  0  0  0  0  0  0
    2.2282    5.7902    0.0000 C   0  0  0  0  0  0  0  0  0  0  0  0
    0.9283    5.0400    0.0000 C   0  0  0  0  0  0  0  0  0  0  0  0
    3.5283    5.0404    0.0000 C   0  0  0  0  0  0  0  0  0  0  0  0
   -0.3700   -1.7100    0.0000 C   0  0  0  0  0  0  0  0  0  0  0  0
   -1.6700   -0.9600    0.0000 C   0  0  0  0  0  0  0  0  0  0  0  0
    0.9286    3.5400    0.0000 C   0  0  0  0  0  0  0  0  0  0  0  0
    3.5286    3.5404    0.0000 C   0  0  0  0  0  0  0  0  0  0  0  0
    0.9300   -0.9600    0.0000 C   0  0  0  0  0  0  0  0  0  0  0  0
   -1.6700    0.5400    0.0000 C   0  0  0  0  0  0  0  0  0  0  0  0
    2.2287    2.7902    0.0000 C   0  0  0  0  0  0  0  0  0  0  0  0
    0.9300    0.5400    0.0000 C   0  0  0  0  0  0  0  0  0  0  0  0
    2.2289    1.2902    0.0000 C   0  0  0  0  0  0  0  0  0  0  0  0
    3.5281    0.5404    0.0000 C   0  0  0  0  0  0  0  0  0  0  0  0
   -0.3700    1.2900    0.0000 N   0  0  0  0  0  0  0  0  0  0  0  0
    3.5283   -0.9596    0.0000 O   0  0  0  0  0  0  0  0  0  0  0  0
    4.8270    1.2906    0.0000 O   0  0  0  0  0  0  0  0  0  0  0  0
  3  2  2  0
  4  2  1  0
  6  5  1  0
  7  3  1  0
  8  4  2  0
  9  5  1  0
 10  6  1  0
 11  7  2  0
 11  8  1  0
 12  9  1  0
 13 11  1  0
 13 12  1  0
 14 13  1  0
 15 10  1  0
 15 12  1  0
 16 14  2  0
 17  1  1  0
 17 14  1  0
M  END
>  <NAME>  (4573) 
METHYLPHENIDATE

>  <SYNONYMS>  (4573) 
METHYL ALPHA-PHENYL-ALPHA-(2-PIPERIDYL)ACETATE

>  <SPECTRUM TYPE>  (4573) 
MS1

>  <INSTRUMENT TYPE>  (4573) 
EI-B

>  <INSTRUMENT>  (4573) 
Unknown

>  <ION MODE>  (4573) 
P

>  <INCHIKEY>  (4573) 
DUGOZIWVEXMGBE-UHFFFAOYSA-N

>  <FORMULA>  (4573) 
C14H19NO2

>  <EXACT MASS>  (4573) 
233.141578848

>  <MW>  (4573) 
233

>  <ID>  (4573) 
JP003862

>  <CONTRIBUTOR>  (4573) 
University of Tokyo Team, {Faculty of Engineering, University of Tokyo

>  <COMMENT>  (4573) 
SMILES=COC(=O)C(C(C2)NCCC2)c(c1)cccc1
InChI=InChI=1S/C14H19NO2/c1-17-14(16)13(11-7-3-2-4-8-11)12-9-5-6-10-15-12/h2-4,7-8,12-13,15H,5-6,9-10H2,1H3
computed SMILES=O=C(OC)C(C=1C=CC=CC1)C2NCCCC2
accession=JP003862
date=2016.01.19 (Created 2008.10.21, modified 2011.05.06)
author=SASAKI S, TOYOHASHI UNIV. OF TECH.
license=CC BY-NC-SA
exact mass=233.14158
ionization energy=70 eV
ion type=[M]+*
computed spectral entropy=2.3661132785267163
computed normalized entropy=0.5588223338165124
SPLASH=splash10-001i-9100000000-c75de12fbdae54dce658
submitter=submitter = University of Tokyo Team (Faculty of Engineering, University of Tokyo)
MoNA Rating=3.75

>  <NUM PEAKS>  (4573) 
69

>  <MASS SPECTRAL PEAKS>  (4573) 
39 1.9
40 0.9
41 4.9
42 0.24
43 1.4
44 1.9
45 0.9
46 0.04
53 0.4
54 1.9
55 8.4
56 0.49
57 1.4
58 0.4
59 0.9
65 0.34
66 0.9
67 0.9
68 0.9
69 0.09
77 2.4
78 0.9
79 0.9
80 0.09
81 0.4
82 3.4
83 4.9
84 99.99
85 4.9
86 0.4
87 0.9
88 0.04
89 0.9
90 2.4
91 18.4
92 0.24
93 0.4
102 0.9
103 1.4
104 0.09
105 1.4
106 0.4
114 0.4
115 0.16
116 0.9
117 1.9
118 2.4
119 0.09
120 1.1
127 0.4
128 0.9
129 0.09
130 1.4
131 0.9
132 0.4
144 0.09
145 0.4
148 0.4
149 0.9
150 0.79
151 0.9
152 0.4
172 1.4
173 0.09
174 0.9
232 0.4
233 0.9
234 0.04
235 0.4

>  <PREDICTED SPECTRUM>  (4573) 
28 29
33 2
38 26
39 122
40 45
41 145
42 117
43 47
45 27
47 40
49 15
50 95
51 108
52 75
53 47
54 159
55 174
56 223
57 50
58 10
59 139
60 51
61 5
62 82
63 125
64 70
65 169
66 56
67 73
68 73
69 35
70 5
71 53
72 4
73 32
74 99
75 59
76 8
77 145
78 73
79 121
80 65
82 149
84 999
85 306
87 3
89 253
90 136
91 485
92 212
101 35
102 79
103 51
104 60
105 65
114 31
115 144
116 23
117 75
118 137
119 53
149 13
150 507
151 111
152 16

$$$$

     RDKit          2D

 23 26  0  0  1  0  0  0  0  0999 V2000
   -2.8300    0.0000    0.0000 C   0  0  0  0  0  0  0  0  0  0  0  0
    9.3100    1.2990    0.0000 C   0  0  0  0  0  0  0  0  0  0  0  0
    2.5600    5.1962    0.0000 C   0  0  0  0  0  0  0  0  0  0  0  0
    8.5600    2.5990    0.0000 C   0  0  0  0  0  0  0  0  0  0  0  0
    8.5600   -0.0010    0.0000 C   0  0  0  0  0  0  0  0  0  0  0  0
    1.8092    3.8966    0.0000 C   0  0  0  0  0  0  0  0  0  0  0  0
    4.0608    5.1966    0.0000 C   0  0  0  0  0  0  0  0  0  0  0  0
    7.0600    2.5990    0.0000 C   0  0  0  0  0  0  0  0  0  0  0  0
    7.0600   -0.0010    0.0000 C   0  0  0  0  0  0  0  0  0  0  0  0
    2.5592    2.5976    0.0000 C   0  0  0  0  0  0  0  0  0  0  0  0
    4.8108    3.8976    0.0000 C   0  0  0  0  0  0  0  0  0  0  0  0
   -1.0500   -0.8900    0.0000 C   0  0  0  0  0  0  0  0  0  0  0  0
   -1.0500    0.8900    0.0000 C   0  0  0  0  0  0  0  0  0  0  0  0
    1.8200   -1.2700    0.0000 C   0  0  0  0  0  0  0  0  0  0  0  0
    1.8200    1.2700    0.0000 C   0  0  0  0  0  0  0  0  0  0  0  0
    6.3100    1.2990    0.0000 C   0  0  0  0  0  0  0  0  0  0  0  0
    4.0600    2.5981    0.0000 C   0  0  0  0  0  0  0  0  0  0  0  0
    0.3600   -1.6000    0.0000 C   0  0  0  0  0  0  0  0  0  0  0  0
    0.3600    1.6000    0.0000 C   0  0  0  0  0  0  0  0  0  0  0  0
    2.5600   -0.0000    0.0000 C   0  0  0  0  0  0  0  0  0  0  0  0
    4.8100    1.2990    0.0000 C   0  0  0  0  0  0  0  0  0  0  0  0
   -0.3700   -0.0000    0.0000 N   0  0  0  0  0  0  0  0  0  0  0  0
    4.0600   -0.0000    0.0000 O   0  0  0  0  0  0  0  0  0  0  0  0
  4  2  2  0
  5  2  1  0
  6  3  2  0
  7  3  1  0
  8  4  1  0
  9  5  2  0
 10  6  1  0
 11  7  2  0
 13 12  1  0
 16  8  2  0
 16  9  1  0
 17 10  2  0
 17 11  1  0
 18 12  1  6
 18 14  1  0
 19 13  1  6
 19 15  1  0
 20 14  1  0
 20 15  1  0
 21 16  1  0
 21 17  1  0
 22  1  1  0
 18 22  1  0
 19 22  1  0
 20 23  1  1
 23 21  1  0
M  END
>  <NAME>  (4574) 
BENZTROPINE

>  <SYNONYMS>  (4574) 
3-(DIPHENYLMETHOXY)-8-METHYL-8-AZABICYCLO(3.2.1)OCTANE

>  <SPECTRUM TYPE>  (4574) 
MS1

>  <INSTRUMENT TYPE>  (4574) 
EI-B

>  <INSTRUMENT>  (4574) 
Unknown

>  <ION MODE>  (4574) 
P

>  <INCHIKEY>  (4574) 
GIJXKZJWITVLHI-ACDBMABISA-N

>  <FORMULA>  (4574) 
C21H25NO

>  <EXACT MASS>  (4574) 
307.19361442

>  <MW>  (4574) 
307

>  <ID>  (4574) 
JP003861

>  <CONTRIBUTOR>  (4574) 
University of Tokyo Team, {Faculty of Engineering, University of Tokyo

>  <COMMENT>  (4574) 
SMILES=c(c4)ccc(c4)C(c(c3)cccc3)OC([H])(C1)CC([H])(C2)N(C)C([H])(C2)1
InChI=InChI=1S/C21H25NO/c1-22-18-12-13-19(22)15-20(14-18)23-21(16-8-4-2-5-9-16)17-10-6-3-7-11-17/h2-11,18-21H,12-15H2,1H3/t18-,19+,20-
computed SMILES=O(C(C=1C=CC=CC1)C=2C=CC=CC2)C3CC4N(C)C(CC4)C3
accession=JP003861
date=2016.01.19 (Created 2008.10.21, modified 2011.05.06)
author=SASAKI S, TOYOHASHI UNIV. OF TECH.
license=CC BY-NC-SA
exact mass=307.19361
ionization energy=70 eV
ion type=[M]+*
computed spectral entropy=2.8507117999206333
computed normalized entropy=0.7250351531854177
SPLASH=splash10-001l-9700000000-4fe83c936510cdcfcedd
submitter=submitter = University of Tokyo Team (Faculty of Engineering, University of Tokyo)
MoNA Rating=3.75

>  <NUM PEAKS>  (4574) 
51

>  <MASS SPECTRAL PEAKS>  (4574) 
55 6.4
56 3.9
57 4.9
58 0.94
67 11.9
68 4.9
69 2.1
77 0.51
78 2.9
79 1.4
80 2.1
81 0.49
82 59.1
83 88.5
84 15
85 0.14
92 2.9
93 0.4
94 5.9
95 0.24
96 24.9
97 24.9
98 7.5
122 0.24
123 1.4
124 41.9
125 21.4
126 0.27
127 0.4
128 2
139 1.9
140 99.99
141 10.9
142 0.9
151 0.9
152 0.94
153 2.4
164 1.9
165 16.4
166 0.69
167 22.9
168 8.4
169 1.9
201 2.04
202 3.4
216 1.9
247 1.4
249 0.14
306 1.4
307 6.4
308 1.6

>  <PREDICTED SPECTRUM>  (4574) 
26 14
27 82
28 74
29 2
36 0
38 18
39 157
40 84
41 485
42 530
43 399
44 284
45 102
49 47
50 140
51 219
52 134
53 211
54 265
55 475
56 335
57 320
58 209
60 16
62 40
63 120
64 27
65 125
66 87
67 441
68 358
69 319
70 237
71 50
72 37
73 19
74 65
75 61
76 112
77 345
78 240
79 176
80 164
81 341
82 906
83 864
84 443
85 95
86 98
89 174
90 72
91 207
92 8
93 36
94 148
95 232
96 566
97 409
98 487
99 141
101 14
102 108
103 34
104 60
105 216
106 122
107 148
108 144
109 250
110 583
111 404
112 168
115 110
121 30
122 191
123 290
124 878
125 399
126 184
127 155
128 161
135 55
136 49
137 80
138 31
139 353
140 668
141 227
142 32
151 266
152 480
153 77
163 15
164 275
165 807
166 643
167 999
168 570
183 79
188 83
189 68
230 47
307 193
308 74

$$$$

     RDKit          2D

 19 20  0  0  0  0  0  0  0  0999 V2000
    2.5992    1.0701    0.0000 C   0  0  0  0  0  0  0  0  0  0  0  0
    1.2994   -1.1795    0.0000 C   0  0  0  0  0  0  0  0  0  0  0  0
   -1.2980    4.8223    0.0000 C   0  0  0  0  0  0  0  0  0  0  0  0
   -2.5976    5.5732    0.0000 C   0  0  0  0  0  0  0  0  0  0  0  0
   -1.2976    3.3215    0.0000 C   0  0  0  0  0  0  0  0  0  0  0  0
   -6.4955   -1.1791    0.0000 C   0  0  0  0  0  0  0  0  0  0  0  0
   -5.1966   -1.9293    0.0000 C   0  0  0  0  0  0  0  0  0  0  0  0
   -3.8966    4.8232    0.0000 C   0  0  0  0  0  0  0  0  0  0  0  0
   -2.5966    2.5715    0.0000 C   0  0  0  0  0  0  0  0  0  0  0  0
   -6.4948    0.3217    0.0000 C   0  0  0  0  0  0  0  0  0  0  0  0
   -3.8970   -1.1787    0.0000 C   0  0  0  0  0  0  0  0  0  0  0  0
    0.0011    1.0709    0.0000 C   0  0  0  0  0  0  0  0  0  0  0  0
   -1.2982    0.3213    0.0000 C   0  0  0  0  0  0  0  0  0  0  0  0
   -5.1952    2.5723    0.0000 C   0  0  0  0  0  0  0  0  0  0  0  0
   -3.8961    3.3223    0.0000 C   0  0  0  0  0  0  0  0  0  0  0  0
   -5.1952    1.0723    0.0000 C   0  0  0  0  0  0  0  0  0  0  0  0
   -3.8962    0.3221    0.0000 C   0  0  0  0  0  0  0  0  0  0  0  0
    1.2999    0.3205    0.0000 N   0  0  0  0  0  0  0  0  0  0  0  0
   -2.5970    1.0717    0.0000 O   0  0  0  0  0  0  0  0  0  0  0  0
  4  3  2  0
  5  3  1  0
  7  6  2  0
  8  4  1  0
  9  5  2  0
 10  6  1  0
 11  7  1  0
 13 12  1  0
 15  8  2  0
 15  9  1  0
 15 14  1  0
 16 10  2  0
 16 14  1  0
 17 11  2  0
 17 16  1  0
 18  1  1  0
 18  2  1  0
 18 12  1  0
 19 13  1  0
 19 17  1  0
M  END
>  <NAME>  (4575) 
PHENYLTOLOXAMINE

>  <SYNONYMS>  (4575) 
N,N-DIMETHYL-2-(2-(BENZYL)PHENOXY)ETHYLAMINE

>  <SPECTRUM TYPE>  (4575) 
MS1

>  <INSTRUMENT TYPE>  (4575) 
EI-B

>  <INSTRUMENT>  (4575) 
Unknown

>  <ION MODE>  (4575) 
P

>  <INCHIKEY>  (4575) 
IZRPKIZLIFYYKR-UHFFFAOYSA-N

>  <FORMULA>  (4575) 
C17H21NO

>  <EXACT MASS>  (4575) 
255.162314292

>  <MW>  (4575) 
255

>  <ID>  (4575) 
JP003860

>  <CONTRIBUTOR>  (4575) 
University of Tokyo Team, {Faculty of Engineering, University of Tokyo

>  <COMMENT>  (4575) 
SMILES=CN(C)CCOc(c2)c(ccc2)Cc(c1)cccc1
InChI=InChI=1S/C17H21NO/c1-18(2)12-13-19-17-11-7-6-10-16(17)14-15-8-4-3-5-9-15/h3-11H,12-14H2,1-2H3
computed SMILES=O(C=1C=CC=CC1CC=2C=CC=CC2)CCN(C)C
accession=JP003860
date=2016.01.19 (Created 2008.10.21, modified 2011.05.06)
author=SASAKI S, TOYOHASHI UNIV. OF TECH.
license=CC BY-NC-SA
exact mass=255.16231
ionization energy=70 eV
ion type=[M]+*
computed spectral entropy=1.800190299226005
computed normalized entropy=0.4913771005130508
SPLASH=splash10-0a4i-9000000000-4846204db840aa67d3e1
submitter=submitter = University of Tokyo Team (Faculty of Engineering, University of Tokyo)
MoNA Rating=3.75

>  <NUM PEAKS>  (4575) 
39

>  <MASS SPECTRAL PEAKS>  (4575) 
39 0.9
40 6.9
41 0.9
42 0.39
43 1.9
44 2.9
45 0.9
46 0.29
50 0.4
51 0.9
54 0.4
55 0.09
56 2.9
57 1.9
58 99.99
59 0.39
70 1.4
71 3.9
72 4.9
73 0.04
76 0.4
77 1.9
78 1.9
79 0.04
90 0.4
91 3.4
92 0.4
164 0.04
165 1.9
166 0.9
167 0.4
181 0.09
182 0.4
183 0.9
184 1.9
210 0.34
211 0.4
255 9.9
256 1.9

>  <PREDICTED SPECTRUM>  (4575) 
15 0
29 25
30 81
39 60
40 31
41 53
42 240
43 166
44 173
45 67
50 12
51 70
52 33
53 23
54 13
55 59
56 141
57 87
58 999
59 209
62 13
63 63
64 13
65 92
66 8
69 14
70 113
71 243
72 123
73 33
74 1
75 35
77 75
78 55
79 21
81 10
82 36
89 58
90 7
91 192
92 13
95 12
99 0
101 11
104 7
105 58
106 7
107 4
114 19
115 108
117 16
121 2
126 13
127 48
129 4
131 30
141 29
143 3
152 62
154 18
165 116
166 24
167 90
168 9
169 36
170 17
181 70
182 1
183 52
184 43
197 25
198 52
209 17
210 33
254 24
255 190
256 90

$$$$

     RDKit          2D

 16 17  0  0  0  0  0  0  0  0999 V2000
    9.0945    0.7488    0.0000 C   0  0  0  0  0  0  0  0  0  0  0  0
    7.7951    1.4998    0.0000 C   0  0  0  0  0  0  0  0  0  0  0  0
    9.0947   -0.7521    0.0000 C   0  0  0  0  0  0  0  0  0  0  0  0
   -0.0000    1.5000    0.0000 C   0  0  0  0  0  0  0  0  0  0  0  0
   -1.3000    0.7500    0.0000 C   0  0  0  0  0  0  0  0  0  0  0  0
    6.4959    0.7500    0.0000 C   0  0  0  0  0  0  0  0  0  0  0  0
    7.7956   -1.5019    0.0000 C   0  0  0  0  0  0  0  0  0  0  0  0
    1.3000    0.7500    0.0000 C   0  0  0  0  0  0  0  0  0  0  0  0
   -1.3000   -0.7500    0.0000 C   0  0  0  0  0  0  0  0  0  0  0  0
    3.8981   -0.7504    0.0000 C   0  0  0  0  0  0  0  0  0  0  0  0
    6.4962   -0.7508    0.0000 C   0  0  0  0  0  0  0  0  0  0  0  0
    5.1970   -1.5006    0.0000 C   0  0  0  0  0  0  0  0  0  0  0  0
    1.3000   -0.7500    0.0000 C   0  0  0  0  0  0  0  0  0  0  0  0
   -0.0000   -1.5000    0.0000 N   0  0  0  0  0  0  0  0  0  0  0  0
    2.5989   -1.5002    0.0000 N   0  0  0  0  0  0  0  0  0  0  0  0
    5.1968   -3.0006    0.0000 O   0  0  0  0  0  0  0  0  0  0  0  0
  2  1  2  0
  3  1  1  0
  5  4  2  0
  6  2  1  0
  7  3  2  0
  8  4  1  0
  9  5  1  0
 11  6  2  0
 11  7  1  0
 12 10  1  0
 12 11  1  0
 13  8  2  0
 14  9  2  0
 14 13  1  0
 15 10  1  0
 15 13  1  0
 16 12  1  0
M  END
>  <NAME>  (4576) 
PHENYRAMIDOL

>  <SYNONYMS>  (4576) 
ALPHA-((2-PYRIDINYLAMINO)METHYL)BENZENEMETHANOLE

>  <SPECTRUM TYPE>  (4576) 
MS1

>  <INSTRUMENT TYPE>  (4576) 
EI-B

>  <INSTRUMENT>  (4576) 
Unknown

>  <ION MODE>  (4576) 
P

>  <INCHIKEY>  (4576) 
ZEAJXCPGHPJVNP-UHFFFAOYSA-N

>  <FORMULA>  (4576) 
C13H14N2O

>  <EXACT MASS>  (4576) 
214.110613068

>  <MW>  (4576) 
214

>  <ID>  (4576) 
JP003859

>  <CONTRIBUTOR>  (4576) 
University of Tokyo Team, {Faculty of Engineering, University of Tokyo

>  <COMMENT>  (4576) 
SMILES=OC(CNc(c2)nccc2)c(c1)cccc1
InChI=InChI=1S/C13H14N2O/c16-12(11-6-2-1-3-7-11)10-15-13-8-4-5-9-14-13/h1-9,12,16H,10H2,(H,14,15)
computed SMILES=OC(C=1C=CC=CC1)CNC2=NC=CC=C2
accession=JP003859
date=2016.01.19 (Created 2008.10.21, modified 2011.05.06)
author=SASAKI S, TOYOHASHI UNIV. OF TECH.
license=CC BY-NC-SA
exact mass=214.11061
ionization energy=70 eV
ion type=[M]+*
computed spectral entropy=2.8777952524383816
computed normalized entropy=0.691963489897776
SPLASH=splash10-0a4i-6900000000-d9b37fd7b9c02cab5313
submitter=submitter = University of Tokyo Team (Faculty of Engineering, University of Tokyo)
MoNA Rating=3.75

>  <NUM PEAKS>  (4576) 
64

>  <MASS SPECTRAL PEAKS>  (4576) 
50 3.9
51 12.9
52 7.4
53 0.29
54 0.9
55 1.9
56 1.9
57 0.39
58 0.9
64 0.4
65 2.4
66 0.19
67 4.9
69 0.4
70 0.9
71 0.19
72 3.9
73 1.4
74 0.9
75 0.09
76 1.9
77 11.4
78 42.9
79 1.89
80 11.9
90 0.9
91 3.9
92 0.09
93 2.4
94 5.9
95 1.9
96 0.04
97 0.9
102 0.9
103 1.9
104 0.29
105 9.9
106 10.4
107 99.99
108 5.29
109 5.9
110 0.9
118 0.4
119 0.89
120 1.9
121 0.9
149 9.4
150 0.14
151 0.4
166 0.9
167 2.4
168 0.29
169 0.9
170 0.4
193 0.9
194 0.39
195 9.4
196 10.4
197 1.9
198 0.09
213 0.9
214 3.9
215 0.9
216 0.4

>  <PREDICTED SPECTRUM>  (4576) 
37 11
38 65
39 179
40 75
41 118
42 7
43 111
49 6
50 196
51 420
52 341
53 153
57 67
62 16
63 118
64 53
65 191
66 86
67 159
71 45
75 89
76 96
77 524
78 616
79 999
80 386
89 81
90 127
91 261
92 186
93 358
94 67
95 35
102 39
103 45
104 127
105 62
106 187
107 870
108 963
109 188
117 2
118 87
119 112
120 48
195 51
196 62
197 40
213 33
214 211
215 47

$$$$

     RDKit          2D

 20 22  0  0  0  0  0  0  0  0999 V2000
    2.5981   -7.1400    0.0000 C   0  0  0  0  0  0  0  0  0  0  0  0
    4.2200    0.4000    0.0000 C   0  0  0  0  0  0  0  0  0  0  0  0
   -4.2200    0.4000    0.0000 C   0  0  0  0  0  0  0  0  0  0  0  0
    3.8800   -1.0600    0.0000 C   0  0  0  0  0  0  0  0  0  0  0  0
   -3.8800   -1.0600    0.0000 C   0  0  0  0  0  0  0  0  0  0  0  0
    1.2990   -3.3900    0.0000 C   0  0  0  0  0  0  0  0  0  0  0  0
    3.1200    1.4200    0.0000 C   0  0  0  0  0  0  0  0  0  0  0  0
   -3.1200    1.4200    0.0000 C   0  0  0  0  0  0  0  0  0  0  0  0
    2.4500   -1.5100    0.0000 C   0  0  0  0  0  0  0  0  0  0  0  0
   -2.4500   -1.5100    0.0000 C   0  0  0  0  0  0  0  0  0  0  0  0
   -0.0000   -2.6400    0.0000 C   0  0  0  0  0  0  0  0  0  0  0  0
    0.7500    2.1500    0.0000 C   0  0  0  0  0  0  0  0  0  0  0  0
   -0.7500    2.1500    0.0000 C   0  0  0  0  0  0  0  0  0  0  0  0
    1.2990   -4.8900    0.0000 C   0  0  0  0  0  0  0  0  0  0  0  0
    1.6900    0.9800    0.0000 C   0  0  0  0  0  0  0  0  0  0  0  0
   -1.6900    0.9800    0.0000 C   0  0  0  0  0  0  0  0  0  0  0  0
    1.3500   -0.4900    0.0000 C   0  0  0  0  0  0  0  0  0  0  0  0
   -1.3500   -0.4900    0.0000 C   0  0  0  0  0  0  0  0  0  0  0  0
    0.0000   -1.1400    0.0000 C   0  0  0  0  0  0  0  0  0  0  0  0
    2.5981   -5.6400    0.0000 N   0  0  0  0  0  0  0  0  0  0  0  0
  4  2  2  0
  5  3  2  0
  7  2  1  0
  8  3  1  0
  9  4  1  0
 10  5  1  0
 11  6  1  0
 13 12  1  0
 14  6  1  0
 15  7  2  0
 15 12  1  0
 16  8  2  0
 16 13  1  0
 17  9  2  0
 17 15  1  0
 18 10  2  0
 18 16  1  0
 19 11  2  3
 19 17  1  0
 19 18  1  0
 20  1  1  0
 20 14  1  0
M  END
>  <NAME>  (4577) 
NORTRIPTYLINE

>  <SYNONYMS>  (4577) 


>  <SPECTRUM TYPE>  (4577) 
MS1

>  <INSTRUMENT TYPE>  (4577) 
EI-B

>  <INSTRUMENT>  (4577) 
Unknown

>  <ION MODE>  (4577) 
P

>  <INCHIKEY>  (4577) 
PHVGLTMQBUFIQQ-UHFFFAOYSA-N

>  <FORMULA>  (4577) 
C19H21N

>  <EXACT MASS>  (4577) 
263.167399672

>  <MW>  (4577) 
263

>  <ID>  (4577) 
JP003858

>  <CONTRIBUTOR>  (4577) 
University of Tokyo Team, {Faculty of Engineering, University of Tokyo

>  <COMMENT>  (4577) 
SMILES=CNCCC=C(c21)c(c3)c(ccc3)CCc(cccc2)1
InChI=InChI=1S/C19H21N/c1-20-14-6-11-19-17-9-4-2-7-15(17)12-13-16-8-3-5-10-18(16)19/h2-5,7-11,20H,6,12-14H2,1H3
computed SMILES=C=1C=CC2=C(C1)C(=CCCNC)C=3C=CC=CC3CC2
accession=JP003858
date=2016.01.19 (Created 2008.10.21, modified 2011.05.06)
author=SASAKI S, TOYOHASHI UNIV. OF TECH.
license=CC BY-NC-SA
exact mass=263.1674
ionization energy=70 eV
ion type=[M]+*
computed spectral entropy=2.7746517427982105
computed normalized entropy=0.648788487476451
SPLASH=splash10-0006-9000000000-bb9eae4818c0402317ee
submitter=submitter = University of Tokyo Team (Faculty of Engineering, University of Tokyo)
MoNA Rating=3.75

>  <NUM PEAKS>  (4577) 
72

>  <MASS SPECTRAL PEAKS>  (4577) 
38 1.4
39 2.4
40 1.4
41 0.64
42 3.9
43 12.4
44 99.99
45 0.49
51 1.9
52 0.9
53 1.9
54 0.14
55 5.4
56 4.4
57 13.4
58 0.29
60 1.4
67 1.9
68 1.4
69 0.34
70 3.9
71 6.9
72 1.4
73 0.19
80 0.9
81 1.9
82 1.9
83 0.29
84 2.4
85 3.9
90 0.9
91 0.39
92 0.9
95 0.9
96 1.9
97 0.29
98 2.4
99 1.9
104 0.9
105 0.34
106 0.9
152 1.9
153 0.9
164 0.04
165 1.9
166 0.4
177 0.9
178 0.21
179 0.9
187 0.4
188 1.9
189 0.14
190 1.9
191 0.9
192 0.9
198 0.19
199 0.9
200 0.4
201 2.9
202 0.34
203 1.9
204 1.9
205 0.9
215 0.24
216 1.4
217 1.9
218 1.6
219 0.21
220 2.9
221 0.9
263 2.4
264 0.4

>  <PREDICTED SPECTRUM>  (4577) 
18 0
27 1
28 67
29 74
30 120
39 7
41 116
42 319
43 141
44 999
45 200
46 97
47 34
49 7
51 55
53 53
55 47
56 168
57 391
58 317
59 89
63 74
64 27
65 95
68 27
69 67
70 149
71 118
72 104
73 14
74 48
75 30
76 48
77 29
78 52
79 4
81 60
82 93
83 75
84 140
87 10
89 62
91 310
92 108
94 10
95 67
96 49
98 16
99 21
100 26
101 168
102 147
103 16
108 8
109 33
110 28
112 1
115 293
116 46
117 58
126 89
127 81
128 141
129 66
139 114
141 62
142 84
146 138
150 6
151 124
152 229
153 107
163 6
164 6
165 188
166 14
173 8
176 2
178 320
179 54
187 44
188 83
189 297
190 122
191 240
192 147
201 88
202 512
203 489
204 392
205 310
206 170
207 68
213 54
215 356
216 109
217 203
218 313
219 331
220 296
221 38
231 183
232 104
234 3
262 95
263 395
264 118
265 20

$$$$

     RDKit          2D

 30 33  0  0  0  0  0  0  0  0999 V2000
   -9.4428   12.4568    0.0000 C   0  0  0  0  0  0  0  0  0  0  0  0
   -4.2200    0.4700    0.0000 C   0  0  0  0  0  0  0  0  0  0  0  0
   -4.2200   -1.0300    0.0000 C   0  0  0  0  0  0  0  0  0  0  0  0
   -1.6328    3.4678    0.0000 C   0  0  0  0  0  0  0  0  0  0  0  0
   -2.9200    1.2200    0.0000 C   0  0  0  0  0  0  0  0  0  0  0  0
   -2.9200   -1.7800    0.0000 C   0  0  0  0  0  0  0  0  0  0  0  0
    3.5700   -1.0300    0.0000 C   0  0  0  0  0  0  0  0  0  0  0  0
    2.2700   -1.7800    0.0000 C   0  0  0  0  0  0  0  0  0  0  0  0
   -1.6353    4.9678    0.0000 C   0  0  0  0  0  0  0  0  0  0  0  0
   -0.3325    2.7200    0.0000 C   0  0  0  0  0  0  0  0  0  0  0  0
   -4.2335    4.9637    0.0000 C   0  0  0  0  0  0  0  0  0  0  0  0
   -2.9384    7.2165    0.0000 C   0  0  0  0  0  0  0  0  0  0  0  0
   -5.5342    5.7125    0.0000 C   0  0  0  0  0  0  0  0  0  0  0  0
   -4.2390    7.9653    0.0000 C   0  0  0  0  0  0  0  0  0  0  0  0
   -6.8372    7.9612    0.0000 C   0  0  0  0  0  0  0  0  0  0  0  0
   -6.8397    9.4612    0.0000 C   0  0  0  0  0  0  0  0  0  0  0  0
    2.2700    1.2200    0.0000 C   0  0  0  0  0  0  0  0  0  0  0  0
   -8.1425   11.7090    0.0000 C   0  0  0  0  0  0  0  0  0  0  0  0
    3.5700    0.4700    0.0000 C   0  0  0  0  0  0  0  0  0  0  0  0
   -1.6200    0.4700    0.0000 C   0  0  0  0  0  0  0  0  0  0  0  0
    0.9700    0.4700    0.0000 C   0  0  0  0  0  0  0  0  0  0  0  0
   -1.6200   -1.0300    0.0000 C   0  0  0  0  0  0  0  0  0  0  0  0
    0.9700   -1.0300    0.0000 C   0  0  0  0  0  0  0  0  0  0  0  0
    4.8689    1.2202    0.0000 Cl  0  0  0  0  0  0  0  0  0  0  0  0
   -2.9356    5.7156    0.0000 N   0  0  0  0  0  0  0  0  0  0  0  0
   -5.5369    7.2134    0.0000 N   0  0  0  0  0  0  0  0  0  0  0  0
   -0.3300    1.2200    0.0000 N   0  0  0  0  0  0  0  0  0  0  0  0
   -6.8447   12.4612    0.0000 O   0  0  0  0  0  0  0  0  0  0  0  0
   -8.1400   10.2090    0.0000 O   0  0  0  0  0  0  0  0  0  0  0  0
   -0.3300   -1.7800    0.0000 S   0  0  0  0  0  0  0  0  0  0  0  0
  3  2  2  0
  5  2  1  0
  6  3  1  0
  8  7  1  0
  9  4  1  0
 10  4  1  0
 13 11  1  0
 14 12  1  0
 16 15  1  0
 18  1  1  0
 19  7  2  0
 19 17  1  0
 20  5  2  0
 21 17  2  0
 22  6  2  0
 22 20  1  0
 23  8  2  0
 23 21  1  0
 24 19  1  0
 25  9  1  0
 25 11  1  0
 25 12  1  0
 26 13  1  0
 26 14  1  0
 26 15  1  0
 27 10  1  0
 27 20  1  0
 27 21  1  0
 28 18  2  0
 29 16  1  0
 29 18  1  0
 30 22  1  0
 30 23  1  0
M  END
>  <NAME>  (4578) 
THIOPROPAZATE

>  <SYNONYMS>  (4578) 


>  <SPECTRUM TYPE>  (4578) 
MS1

>  <INSTRUMENT TYPE>  (4578) 
EI-B

>  <INSTRUMENT>  (4578) 
Unknown

>  <ION MODE>  (4578) 
P

>  <INCHIKEY>  (4578) 
AIUHRQHVWSUTGJ-UHFFFAOYSA-N

>  <FORMULA>  (4578) 
C23H28ClN3O2S

>  <EXACT MASS>  (4578) 
445.15907581600004

>  <MW>  (4578) 
445

>  <ID>  (4578) 
JP003857

>  <CONTRIBUTOR>  (4578) 
University of Tokyo Team, {Faculty of Engineering, University of Tokyo

>  <COMMENT>  (4578) 
SMILES=CC(=O)OCCN(C4)CCN(C4)CCCN(c21)c(c3)c(ccc(Cl)3)Sc(cccc2)1
InChI=InChI=1S/C23H28ClN3O2S/c1-18(28)29-16-15-26-13-11-25(12-14-26)9-4-10-27-20-5-2-3-6-22(20)30-23-8-7-19(24)17-21(23)27/h2-3,5-8,17H,4,9-16H2,1H3
computed SMILES=O=C(OCCN1CCN(CC1)CCCN2C=3C=CC=CC3SC4=CC=C(Cl)C=C42)C
accession=JP003857
date=2016.01.19 (Created 2008.10.21, modified 2011.05.06)
author=SASAKI S, TOYOHASHI UNIV. OF TECH.
license=CC BY-NC-SA
exact mass=445.15908
ionization energy=70 eV
ion type=[M]+*
computed spectral entropy=4.211274782531065
computed normalized entropy=0.7933425785200697
SPLASH=splash10-000b-6972100000-07269f16c4216a033299
submitter=submitter = University of Tokyo Team (Faculty of Engineering, University of Tokyo)
MoNA Rating=3.75

>  <NUM PEAKS>  (4578) 
202

>  <MASS SPECTRAL PEAKS>  (4578) 
53 0.9
54 4.9
55 33.9
57 1.39
58 28.9
59 1.9
60 0.9
65 0.09
66 0.9
67 1.9
68 4.9
69 0.99
70 73.9
71 14.9
72 9.9
73 0.39
74 3.9
75 1.9
76 0.9
77 0.29
78 0.9
79 0.4
80 0.9
81 0.19
82 11.9
83 11.9
84 20.9
85 0.59
86 4.9
87 50.9
88 3.9
89 0.14
90 0.4
95 4.9
96 16.9
97 2.59
98 50.9
99 16.4
100 5.9
101 0.19
102 0.9
106 0.4
107 0.9
108 0.19
109 2.9
110 3.9
111 17.9
112 0.89
113 23.9
114 2.9
115 0.9
116 0.64
117 0.9
118 0.4
122 0.9
123 1.19
124 5.9
125 65.9
126 22.9
127 0.59
128 2.9
129 0.9
130 3.9
131 0.09
137 0.9
138 2.4
139 1.9
140 2.79
141 4.4
142 3.9
143 7.9
144 0.84
145 1.9
151 0.9
152 3.9
153 0.69
154 59.9
155 7.9
156 1.9
157 0.09
158 4.9
159 0.9
164 0.9
165 0.19
166 2.9
167 3.9
168 1.9
169 0.29
170 8.9
171 5.9
172 0.9
176 0.04
177 2.4
178 2.9
179 2.9
180 0.29
181 0.9
182 1.9
183 6.9
184 0.39
185 94
186 37.9
187 13.9
188 0.39
189 0.9
192 0.9
193 3.9
194 0.19
195 0.9
196 3.9
197 4.4
198 0.49
199 34.9
200 4.9
201 1.9
202 0.09
203 0.4
213 55.9
214 31.9
215 0.69
216 7.9
217 1.4
218 0.9
222 0.09
223 2.9
224 2.9
225 2.4
226 0.19
227 0.9
232 29.9
233 20.9
234 1.39
235 7.9
236 2.9
237 2.4
238 0.29
239 3.4
240 2.4
241 1.9
242 0.09
243 0.9
244 1.9
245 2.9
246 99.99
247 25.9
248 38.9
249 7.9
250 0.29
251 0.9
258 0.9
259 2.9
260 0.99
261 8.9
262 4.9
263 3.9
264 0.09
270 0.9
271 2.9
272 17.9
273 2.09
274 9.9
275 7.9
276 1.9
277 0.09
301 0.9
302 4.1
303 3.9
304 0.19
305 0.9
313 0.9
314 2.9
315 0.19
316 6.9
317 2.4
318 2.9
319 0.09
329 4.9
330 1.9
331 2.9
332 0.09
349 5.9
350 3.9
351 0.9
357 0.04
358 2.9
359 1.9
371 2.9
372 1.19
373 3.9
374 1.9
384 1.9
385 3.39
386 21.9
387 17.9
388 8.9
389 0.19
444 1.9
445 82
446 17.9
447 3.39
448 3.9
449 1.9

>  <PREDICTED SPECTRUM>  (4578) 
26 8
30 31
41 213
42 435
43 544
44 200
45 158
49 43
51 11
53 63
54 187
55 401
56 477
57 205
58 179
59 17
60 71
61 42
65 44
67 43
68 150
69 228
70 858
71 293
72 125
73 202
74 147
75 123
76 0
77 53
80 57
81 177
82 407
83 188
84 686
85 245
86 39
87 69
88 155
89 123
90 36
91 135
92 160
94 103
95 178
96 193
97 636
98 745
99 367
100 201
101 162
102 116
103 38
104 142
105 25
106 75
107 129
108 104
109 161
110 100
111 368
112 198
113 479
114 234
115 51
116 77
117 90
118 66
119 42
120 128
123 110
124 89
125 749
126 313
127 459
128 188
129 33
130 101
131 90
132 92
133 56
135 73
136 161
137 129
138 161
139 609
140 142
141 123
142 87
143 176
144 314
145 177
146 96
147 91
149 204
150 247
151 400
152 298
153 326
154 121
155 157
156 113
157 151
158 63
159 151
160 146
161 162
162 35
163 238
164 172
165 210
166 258
167 220
168 183
169 155
170 134
171 79
172 70
173 123
174 284
175 213
176 283
177 208
178 61
179 234
180 249
181 191
182 126
183 190
184 166
185 111
186 259
187 169
188 215
189 206
190 170
191 170
192 206
193 171
194 144
195 208
196 128
197 220
198 122
199 133
200 217
201 269
202 395
203 215
204 281
205 182
206 170
207 81
208 15
209 4
211 89
212 99
213 211
214 347
215 263
216 80
217 401
218 518
219 335
220 216
221 143
222 103
223 130
224 80
225 54
226 133
227 119
228 153
229 243
230 351
231 159
232 439
233 194
234 82
235 74
236 18
237 52
238 94
239 175
240 221
241 131
242 108
243 160
244 216
245 235
246 391
247 249
248 118
249 81
250 92
251 40
252 118
253 43
255 38
256 207
257 263
258 67
259 297
260 289
261 189
262 98
263 25
264 16
265 64
267 381
270 132
271 95
272 255
273 244
274 259
275 129
276 22
277 18
279 95
280 999
281 404
282 164
284 24
286 307
287 204
288 154
289 265
290 8
291 81
292 295
294 195
299 57
300 246
301 276
302 42
303 3
304 113
306 18
307 31
308 71
312 91
313 273
314 392
315 552
316 209
317 168
323 2
327 156
328 177
329 384
330 151
331 218
332 158
333 53
335 8
336 19
337 49
340 5
341 75
342 78
343 116
344 199
345 1
346 45
347 53
349 53
355 53
356 85
357 348
358 355
359 36
360 33
370 147
371 168
372 287
373 134
374 104
384 110
385 267
386 323
387 154
388 195
389 84
403 130
404 16
405 109
406 145
415 50
417 0
430 154
431 100
443 134
444 78
445 617
446 233
447 332
448 93
449 15

$$$$

     RDKit          2D

 20 22  0  0  0  0  0  0  0  0999 V2000
    4.4312   -1.1792    0.0000 C   0  0  0  0  0  0  0  0  0  0  0  0
   -3.8976    1.8522    0.0000 C   0  0  0  0  0  0  0  0  0  0  0  0
    4.4316    0.3217    0.0000 C   0  0  0  0  0  0  0  0  0  0  0  0
    3.1316   -1.9300    0.0000 C   0  0  0  0  0  0  0  0  0  0  0  0
   -3.3847    0.4418    0.0000 C   0  0  0  0  0  0  0  0  0  0  0  0
   -2.9332    3.0023    0.0000 C   0  0  0  0  0  0  0  0  0  0  0  0
    3.1326    1.0717    0.0000 C   0  0  0  0  0  0  0  0  0  0  0  0
    1.8326   -1.1800    0.0000 C   0  0  0  0  0  0  0  0  0  0  0  0
   -1.9075    0.1813    0.0000 C   0  0  0  0  0  0  0  0  0  0  0  0
   -1.4560    2.7418    0.0000 C   0  0  0  0  0  0  0  0  0  0  0  0
   -0.7660    3.3208    0.0000 C   0  0  0  0  0  0  0  0  0  0  0  0
    1.8340    3.3208    0.0000 C   0  0  0  0  0  0  0  0  0  0  0  0
   -0.7660    4.8208    0.0000 C   0  0  0  0  0  0  0  0  0  0  0  0
    1.8340    4.8208    0.0000 C   0  0  0  0  0  0  0  0  0  0  0  0
    1.8331    0.3208    0.0000 C   0  0  0  0  0  0  0  0  0  0  0  0
   -0.9432    1.3313    0.0000 C   0  0  0  0  0  0  0  0  0  0  0  0
    0.5340    2.5708    0.0000 C   0  0  0  0  0  0  0  0  0  0  0  0
    0.5340    1.0708    0.0000 C   0  0  0  0  0  0  0  0  0  0  0  0
    0.5340    5.5708    0.0000 N   0  0  0  0  0  0  0  0  0  0  0  0
    0.0210   -0.3387    0.0000 O   0  0  0  0  0  0  0  0  0  0  0  0
  3  1  2  0
  4  1  1  0
  5  2  2  0
  6  2  1  0
  7  3  1  0
  8  4  2  0
  9  5  1  0
 10  6  2  0
 13 11  1  0
 14 12  1  0
 15  7  2  0
 15  8  1  0
 16  9  2  0
 16 10  1  0
 17 11  1  0
 17 12  1  0
 18 15  1  0
 18 16  1  0
 18 17  1  0
 19 13  1  0
 19 14  1  0
 20 18  1  0
M  END
>  <NAME>  (4579) 
AZACYCLONOL

>  <SYNONYMS>  (4579) 
ALPHA,ALPHA-DIPHENYL-4-PIPERIDINEMETHANOL

>  <SPECTRUM TYPE>  (4579) 
MS1

>  <INSTRUMENT TYPE>  (4579) 
EI-B

>  <INSTRUMENT>  (4579) 
Unknown

>  <ION MODE>  (4579) 
P

>  <INCHIKEY>  (4579) 
ZMISODWVFHHWNR-UHFFFAOYSA-N

>  <FORMULA>  (4579) 
C18H21NO

>  <EXACT MASS>  (4579) 
267.162314292

>  <MW>  (4579) 
267

>  <ID>  (4579) 
JP003856

>  <CONTRIBUTOR>  (4579) 
University of Tokyo Team, {Faculty of Engineering, University of Tokyo

>  <COMMENT>  (4579) 
SMILES=N(C3)CCC(C3)C(O)(c(c2)cccc2)c(c1)cccc1
InChI=InChI=1S/C18H21NO/c20-18(15-7-3-1-4-8-15,16-9-5-2-6-10-16)17-11-13-19-14-12-17/h1-10,17,19-20H,11-14H2
computed SMILES=OC(C=1C=CC=CC1)(C=2C=CC=CC2)C3CCNCC3
accession=JP003856
date=2016.01.19 (Created 2008.10.21, modified 2011.05.06)
author=SASAKI S, TOYOHASHI UNIV. OF TECH.
license=CC BY-NC-SA
exact mass=267.16231
ionization energy=70 eV
ion type=[M]+*
computed spectral entropy=2.7148543121950626
computed normalized entropy=0.6744390355862916
SPLASH=splash10-053i-9600000000-759ea6880c668530ef20
submitter=submitter = University of Tokyo Team (Faculty of Engineering, University of Tokyo)
MoNA Rating=3.75

>  <NUM PEAKS>  (4579) 
56

>  <MASS SPECTRAL PEAKS>  (4579) 
50 0.9
51 5.9
52 1.9
53 0.39
54 3.9
55 18.9
56 18.9
57 0.79
58 2.9
59 0.9
75 0.9
76 0.29
77 22.9
78 3.9
79 1.9
80 0.29
81 1.9
82 5.9
83 5.9
84 7.49
85 99.99
86 6.9
87 0.4
90 0.04
91 5.9
92 1.9
105 0.9
106 0.19
107 43.9
108 4.9
109 0.9
115 0.29
116 0.9
117 0.9
126 0.9
127 0.19
128 3.9
129 3.9
179 0.4
180 0.09
181 1.9
182 2.4
183 70.9
184 1.19
185 2.4
189 2.4
190 4.9
191 0.24
192 0.9
247 0.9
248 3.9
249 0.19
250 0.4
266 0.9
267 5.9
268 0.9

>  <PREDICTED SPECTRUM>  (4579) 
14 1
15 26
17 16
18 35
25 8
26 81
27 164
28 174
29 216
30 170
31 14
36 4
38 66
39 278
40 164
41 366
42 465
43 256
44 251
45 30
47 24
49 47
50 212
51 448
52 188
53 177
54 207
55 468
56 650
57 411
58 114
59 30
62 45
63 160
64 80
65 213
66 75
67 167
68 238
69 251
70 25
71 121
72 89
73 60
74 97
75 68
76 122
77 753
78 344
79 213
80 116
81 52
82 300
83 228
84 999
85 542
86 186
89 115
90 78
91 393
92 159
93 60
94 65
96 17
97 16
98 77
99 113
100 140
101 56
102 69
103 19
104 183
105 835
106 332
107 163
108 7
109 76
111 24
112 117
113 29
115 160
116 54
117 37
127 23
128 0
132 202
139 85
140 12
148 70
153 57
159 33
165 228
167 88
181 29
183 155
184 3
185 52
190 151
191 38
267 103
268 14

$$$$

     RDKit          2D

 20 22  0  0  0  0  0  0  0  0999 V2000
    2.5981   -7.1400    0.0000 C   0  0  0  0  0  0  0  0  0  0  0  0
    4.2200    0.4000    0.0000 C   0  0  0  0  0  0  0  0  0  0  0  0
   -4.2200    0.4000    0.0000 C   0  0  0  0  0  0  0  0  0  0  0  0
    3.8800   -1.0600    0.0000 C   0  0  0  0  0  0  0  0  0  0  0  0
   -3.8800   -1.0600    0.0000 C   0  0  0  0  0  0  0  0  0  0  0  0
    1.2990   -3.3900    0.0000 C   0  0  0  0  0  0  0  0  0  0  0  0
    3.1200    1.4200    0.0000 C   0  0  0  0  0  0  0  0  0  0  0  0
   -3.1200    1.4200    0.0000 C   0  0  0  0  0  0  0  0  0  0  0  0
    2.4500   -1.5100    0.0000 C   0  0  0  0  0  0  0  0  0  0  0  0
   -2.4500   -1.5100    0.0000 C   0  0  0  0  0  0  0  0  0  0  0  0
    0.7500    2.1500    0.0000 C   0  0  0  0  0  0  0  0  0  0  0  0
   -0.7500    2.1500    0.0000 C   0  0  0  0  0  0  0  0  0  0  0  0
    1.2990   -4.8900    0.0000 C   0  0  0  0  0  0  0  0  0  0  0  0
   -0.0000   -2.6400    0.0000 C   0  0  0  0  0  0  0  0  0  0  0  0
    1.6900    0.9800    0.0000 C   0  0  0  0  0  0  0  0  0  0  0  0
   -1.6900    0.9800    0.0000 C   0  0  0  0  0  0  0  0  0  0  0  0
    1.3500   -0.4900    0.0000 C   0  0  0  0  0  0  0  0  0  0  0  0
   -1.3500   -0.4900    0.0000 C   0  0  0  0  0  0  0  0  0  0  0  0
    2.5981   -5.6400    0.0000 N   0  0  0  0  0  0  0  0  0  0  0  0
    0.0000   -1.1400    0.0000 N   0  0  0  0  0  0  0  0  0  0  0  0
  4  2  2  0
  5  3  2  0
  7  2  1  0
  8  3  1  0
  9  4  1  0
 10  5  1  0
 12 11  1  0
 13  6  1  0
 14  6  1  0
 15  7  2  0
 15 11  1  0
 16  8  2  0
 16 12  1  0
 17  9  2  0
 17 15  1  0
 18 10  2  0
 18 16  1  0
 19  1  1  0
 19 13  1  0
 20 14  1  0
 20 17  1  0
 20 18  1  0
M  END
>  <NAME>  (4580) 
DESIPRAMINE

>  <SYNONYMS>  (4580) 


>  <SPECTRUM TYPE>  (4580) 
MS1

>  <INSTRUMENT TYPE>  (4580) 
EI-B

>  <INSTRUMENT>  (4580) 
Unknown

>  <ION MODE>  (4580) 
P

>  <INCHIKEY>  (4580) 
HCYAFALTSJYZDH-UHFFFAOYSA-N

>  <FORMULA>  (4580) 
C18H22N2

>  <EXACT MASS>  (4580) 
266.178298704

>  <MW>  (4580) 
266

>  <ID>  (4580) 
JP003855

>  <CONTRIBUTOR>  (4580) 
University of Tokyo Team, {Faculty of Engineering, University of Tokyo

>  <COMMENT>  (4580) 
SMILES=CNCCCN(c21)c(c3)c(ccc3)CCc(cccc2)1
InChI=InChI=1S/C18H22N2/c1-19-13-6-14-20-17-9-4-2-7-15(17)11-12-16-8-3-5-10-18(16)20/h2-5,7-10,19H,6,11-14H2,1H3
computed SMILES=C=1C=CC2=C(C1)N(C=3C=CC=CC3CC2)CCCNC
accession=JP003855
date=2016.01.19 (Created 2008.10.21, modified 2011.05.06)
author=SASAKI S, TOYOHASHI UNIV. OF TECH.
license=CC BY-NC-SA
exact mass=266.1783
ionization energy=70 eV
ion type=[M]+*
computed spectral entropy=3.822351625165838
computed normalized entropy=0.8012165812771487
SPLASH=splash10-0544-7980000000-e155fe1ae5cd0aa22da3
submitter=submitter = University of Tokyo Team (Faculty of Engineering, University of Tokyo)
MoNA Rating=3.75

>  <NUM PEAKS>  (4580) 
118

>  <MASS SPECTRAL PEAKS>  (4580) 
40 2.4
41 7.9
42 14.4
43 0.59
44 50.9
45 2.9
55 4.9
56 0.64
57 6.9
58 36.9
59 1.9
65 0.49
67 2.9
68 2.9
69 2.1
70 1.39
71 41.9
72 9.9
73 1.9
77 0.89
78 3.9
79 1.9
82 7.9
83 1.09
84 56.9
85 4.9
86 1.4
89 0.79
90 4.4
91 13.9
92 1.9
96 0.59
97 5.9
98 6.9
99 15.9
100 0.44
104 3.9
105 3.4
106 7.4
107 0.49
114 6.4
115 5.9
116 3.9
117 0.79
118 6.9
124 6.9
125 2.9
126 0.09
127 2.4
128 4.4
129 5.4
130 2.09
131 4.9
132 1.9
133 5.4
139 0.39
140 9.9
141 3.4
142 1.9
143 0.29
144 2.9
150 0.4
151 3.4
152 0.79
153 3.4
154 2.9
163 2.9
164 0.24
165 16.4
166 7.9
167 17.4
168 0.49
176 2.9
177 3.9
178 9.4
179 1.24
180 15.9
181 3.9
182 0.9
183 0.09
190 3.4
191 7.9
192 17.9
193 6.99
194 58.4
195 99.99
196 18.4
197 0.27
198 3.4
199 2.9
200 2.4
201 0.34
202 1.9
203 2.4
204 8.4
205 0.54
206 17.4
207 7.9
208 69.9
217 0.29
218 6.9
219 3.9
220 21.4
221 0.89
222 12.9
223 3.9
232 0.4
233 0.49
234 77.9
235 94
236 17.9
237 0.24
256 3.9
264 1.4
265 1.9
266 6.39
267 11.9
268 1.9

>  <PREDICTED SPECTRUM>  (4580) 
12 10
26 21
27 50
28 58
29 59
30 84
34 5
38 7
39 199
40 130
41 130
42 322
43 170
44 884
45 166
46 25
50 90
51 215
52 153
53 127
54 63
55 238
56 276
57 315
58 567
59 213
62 22
63 128
64 99
65 199
66 56
67 16
68 15
70 180
71 121
72 264
73 136
74 27
75 31
76 71
77 261
78 210
79 65
80 94
81 35
82 141
83 230
84 98
85 49
86 26
87 77
89 154
90 88
91 260
92 65
93 59
96 7
97 41
98 72
100 21
102 63
103 38
104 65
105 54
106 73
110 23
111 54
112 12
115 216
116 109
117 13
118 145
128 225
130 270
132 42
139 46
146 28
151 110
152 193
162 102
163 154
164 79
165 315
166 65
167 86
168 12
176 45
177 29
178 133
179 186
180 343
181 64
188 16
190 142
191 86
192 229
193 543
194 681
195 447
196 2
203 36
204 212
205 1
206 466
207 330
208 999
209 574
210 307
211 61
218 93
220 488
221 282
222 364
223 209
224 118
234 254
235 108
236 132
264 27
266 440
267 187

$$$$

     RDKit          2D

 21 23  0  0  0  0  0  0  0  0999 V2000
    2.5981   -7.1400    0.0000 C   0  0  0  0  0  0  0  0  0  0  0  0
    3.8971   -4.8900    0.0000 C   0  0  0  0  0  0  0  0  0  0  0  0
    4.2200    0.4000    0.0000 C   0  0  0  0  0  0  0  0  0  0  0  0
   -4.2200    0.4000    0.0000 C   0  0  0  0  0  0  0  0  0  0  0  0
    3.8800   -1.0600    0.0000 C   0  0  0  0  0  0  0  0  0  0  0  0
   -3.8800   -1.0600    0.0000 C   0  0  0  0  0  0  0  0  0  0  0  0
    1.2990   -3.3900    0.0000 C   0  0  0  0  0  0  0  0  0  0  0  0
    3.1200    1.4200    0.0000 C   0  0  0  0  0  0  0  0  0  0  0  0
   -3.1200    1.4200    0.0000 C   0  0  0  0  0  0  0  0  0  0  0  0
    2.4500   -1.5100    0.0000 C   0  0  0  0  0  0  0  0  0  0  0  0
   -2.4500   -1.5100    0.0000 C   0  0  0  0  0  0  0  0  0  0  0  0
   -0.0000   -2.6400    0.0000 C   0  0  0  0  0  0  0  0  0  0  0  0
    0.7500    2.1500    0.0000 C   0  0  0  0  0  0  0  0  0  0  0  0
   -0.7500    2.1500    0.0000 C   0  0  0  0  0  0  0  0  0  0  0  0
    1.2990   -4.8900    0.0000 C   0  0  0  0  0  0  0  0  0  0  0  0
    1.6900    0.9800    0.0000 C   0  0  0  0  0  0  0  0  0  0  0  0
   -1.6900    0.9800    0.0000 C   0  0  0  0  0  0  0  0  0  0  0  0
    1.3500   -0.4900    0.0000 C   0  0  0  0  0  0  0  0  0  0  0  0
   -1.3500   -0.4900    0.0000 C   0  0  0  0  0  0  0  0  0  0  0  0
    0.0000   -1.1400    0.0000 C   0  0  0  0  0  0  0  0  0  0  0  0
    2.5981   -5.6400    0.0000 N   0  0  0  0  0  0  0  0  0  0  0  0
  5  3  2  0
  6  4  2  0
  8  3  1  0
  9  4  1  0
 10  5  1  0
 11  6  1  0
 12  7  1  0
 14 13  1  0
 15  7  1  0
 16  8  2  0
 16 13  1  0
 17  9  2  0
 17 14  1  0
 18 10  2  0
 18 16  1  0
 19 11  2  0
 19 17  1  0
 20 12  2  3
 20 18  1  0
 20 19  1  0
 21  1  1  0
 21  2  1  0
 21 15  1  0
M  END
>  <NAME>  (4581) 
AMITRIPTYLINE

>  <SYNONYMS>  (4581) 


>  <SPECTRUM TYPE>  (4581) 
MS1

>  <INSTRUMENT TYPE>  (4581) 
EI-B

>  <INSTRUMENT>  (4581) 
Unknown

>  <ION MODE>  (4581) 
P

>  <INCHIKEY>  (4581) 
KRMDCWKBEZIMAB-UHFFFAOYSA-N

>  <FORMULA>  (4581) 
C20H23N

>  <EXACT MASS>  (4581) 
277.183049736

>  <MW>  (4581) 
277

>  <ID>  (4581) 
JP003854

>  <CONTRIBUTOR>  (4581) 
University of Tokyo Team, {Faculty of Engineering, University of Tokyo

>  <COMMENT>  (4581) 
SMILES=CN(C)CCC=C(c21)c(c3)c(ccc3)CCc(cccc2)1
InChI=InChI=1S/C20H23N/c1-21(2)15-7-12-20-18-10-5-3-8-16(18)13-14-17-9-4-6-11-19(17)20/h3-6,8-12H,7,13-15H2,1-2H3
computed SMILES=C=1C=CC2=C(C1)C(=CCCN(C)C)C=3C=CC=CC3CC2
accession=JP003854
date=2016.01.19 (Created 2008.10.21, modified 2011.05.06)
author=SASAKI S, TOYOHASHI UNIV. OF TECH.
license=CC BY-NC-SA
exact mass=277.18305
ionization energy=70 eV
ion type=[M]+*
computed spectral entropy=1.28223543928745
computed normalized entropy=0.38079084940172914
SPLASH=splash10-0a4i-9010000000-2afae55587735e5a8ce1
submitter=submitter = University of Tokyo Team (Faculty of Engineering, University of Tokyo)
MoNA Rating=3.75

>  <NUM PEAKS>  (4581) 
29

>  <MASS SPECTRAL PEAKS>  (4581) 
56 1.4
57 1.4
58 99.99
59 0.54
91 2.4
115 1.4
128 1.4
141 0.09
152 0.9
165 1.1
178 1.7
179 0.09
189 1.4
191 1.1
192 0.9
193 0.09
194 0.4
202 3.1
203 2.4
204 0.16
205 1.1
206 0.9
207 0.9
215 0.24
216 1.1
217 1.9
218 2.1
219 0.16
220 0.9

>  <PREDICTED SPECTRUM>  (4581) 
14 1
15 33
27 45
28 60
29 70
30 110
32 2
39 30
41 42
42 176
43 100
44 166
45 74
46 33
47 11
50 6
51 45
52 10
53 19
54 9
55 17
56 79
57 58
58 999
59 168
60 29
62 5
63 41
64 10
65 64
69 30
70 56
71 186
72 122
73 50
74 6
75 45
76 8
77 36
78 43
81 18
82 27
84 47
85 23
86 3
87 0
89 58
91 69
92 9
95 11
100 10
101 49
102 4
103 1
108 3
115 147
116 12
117 66
118 11
127 11
129 30
159 3
165 19
174 9
177 5
178 73
187 2
189 139
191 112
199 14
201 18
202 152
203 204
204 48
206 184
207 11
213 16
215 71
217 75
219 85
232 10
277 99
278 31

$$$$

     RDKit          2D

 22 26  0  0  1  0  0  0  0  0999 V2000
    1.9589    3.8202    0.0000 C   0  0  0  0  0  0  0  0  0  0  0  0
    3.8584   -2.8155    0.0000 C   0  0  0  0  0  0  0  0  0  0  0  0
    0.6500   -2.9200    0.0000 C   0  0  0  0  0  0  0  0  0  0  0  0
   -0.6600   -3.6600    0.0000 C   0  0  0  0  0  0  0  0  0  0  0  0
    0.6700    0.0800    0.0000 C   0  0  0  0  0  0  0  0  0  0  0  0
    3.2500    0.0800    0.0000 C   0  0  0  0  0  0  0  0  0  0  0  0
   -0.6400    3.8200    0.0000 C   0  0  0  0  0  0  0  0  0  0  0  0
    1.9700    0.8100    0.0000 C   0  0  0  0  0  0  0  0  0  0  0  0
    0.6600    3.0700    0.0000 C   0  0  0  0  0  0  0  0  0  0  0  0
    0.6600    1.5700    0.0000 C   0  0  0  0  0  0  0  0  0  0  0  0
    0.6600   -1.4300    0.0000 C   0  0  0  0  0  0  0  0  0  0  0  0
    1.9600   -0.6800    0.0000 C   0  0  0  0  0  0  0  0  0  0  0  0
   -1.9500   -2.8900    0.0000 C   0  0  0  0  0  0  0  0  0  0  0  0
   -1.9400    3.0700    0.0000 C   0  0  0  0  0  0  0  0  0  0  0  0
   -0.6400    0.8200    0.0000 C   0  0  0  0  0  0  0  0  0  0  0  0
   -1.9400    1.5700    0.0000 C   0  0  0  0  0  0  0  0  0  0  0  0
   -1.9300   -1.4100    0.0000 C   0  0  0  0  0  0  0  0  0  0  0  0
   -0.6300   -0.6700    0.0000 C   0  0  0  0  0  0  0  0  0  0  0  0
    3.2600   -1.4400    0.0000 N   0  0  0  0  0  0  0  0  0  0  0  0
   -3.2594   -3.6217    0.0000 O   0  0  0  0  0  0  0  0  0  0  0  0
   -3.2389    3.8202    0.0000 O   0  0  0  0  0  0  0  0  0  0  0  0
   -3.4300    0.1900    0.0000 O   0  0  0  0  0  0  0  0  0  0  0  0
  4  3  2  0
  6  5  1  0
  9  1  1  0
  9  7  2  0
 10  8  1  0
 10  9  1  0
 11  3  1  6
 12  8  1  0
 12 11  1  0
 13  4  1  0
 14  7  1  0
 15 10  2  0
 16 14  2  0
 16 15  1  0
 17 13  1  0
 18  5  1  1
 18 11  1  0
 18 15  1  0
 18 17  1  0
 19  2  1  0
 19  6  1  0
 19 12  1  0
 13 20  1  6
 21 14  1  0
 22 16  1  0
 17 22  1  6
M  END
>  <NAME>  (4582) 
CODEINE

>  <SYNONYMS>  (4582) 
METHYLMORPHINE

>  <SPECTRUM TYPE>  (4582) 
MS1

>  <INSTRUMENT TYPE>  (4582) 
EI-B

>  <INSTRUMENT>  (4582) 
Unknown

>  <ION MODE>  (4582) 
P

>  <INCHIKEY>  (4582) 
VULIEHRIVFMVDQ-OJHGLTBHSA-N

>  <FORMULA>  (4582) 
C18H21NO3

>  <EXACT MASS>  (4582) 
299.152143532

>  <MW>  (4582) 
299

>  <ID>  (4582) 
JP003853

>  <CONTRIBUTOR>  (4582) 
University of Tokyo Team, {Faculty of Engineering, University of Tokyo

>  <COMMENT>  (4582) 
SMILES=CN(C5)C(C3)C([H])(C=4)C(C5)(C(C(O)C4)1)c(c23)c(c(O)cc(C)2)O1
InChI=InChI=1S/C18H21NO3/c1-9-7-14(21)16-15-10(9)8-12-11-3-4-13(20)17(22-16)18(11,15)5-6-19(12)2/h3-4,7,11-13,17,20-21H,5-6,8H2,1-2H3/t11-,12?,13-,17-,18-/m0/s1
computed SMILES=OC=1C=C(C2=C3C1OC4C(O)C=CC5C(N(C)CCC345)C2)C
accession=JP003853
date=2016.01.19 (Created 2008.10.21, modified 2011.05.06)
author=SASAKI S, TOYOHASHI UNIV. OF TECH.
license=CC BY-NC-SA
exact mass=299.15214
ionization energy=70 eV
ion type=[M]+*
computed spectral entropy=4.7582620308213075
computed normalized entropy=0.8586962146889312
SPLASH=splash10-01ot-5890000000-4e0cbccaf312004d7af9
submitter=submitter = University of Tokyo Team (Faculty of Engineering, University of Tokyo)
MoNA Rating=3.75

>  <NUM PEAKS>  (4582) 
255

>  <MASS SPECTRAL PEAKS>  (4582) 
26 1.2
27 4.9
28 8.2
29 0.36
30 7.2
31 10.1
32 1.1
35 0.11
36 1
37 0.9
38 1.1
39 0.66
40 1.4
41 5.3
42 34.1
43 0.42
44 18
45 1.6
47 1.4
48 0.04
49 1.2
50 1.7
51 4.2
52 0.18
53 4.8
54 1.8
55 5.5
56 0.26
57 4
58 4.4
59 15
60 0.16
61 0.1
62 1.1
63 3.2
64 0.18
65 5.1
66 2
67 3
68 0.26
69 1.6
70 9.3
71 2.3
72 0.16
73 0.4
74 1.4
75 2.1
76 0.26
77 8.4
78 3.2
79 2.8
80 0.21
81 10.6
82 5.2
83 3
84 0.14
85 1.9
86 1.4
87 1.1
88 0.12
89 3.9
90 1.6
91 7.1
92 0.02
93 1.8
94 7.7
95 2.6
96 0.68
97 2.1
98 1
99 1
100 0.04
101 2.1
102 2.9
103 5.4
104 0.02
105 2.6
106 2
107 2.2
108 0.21
109 4
110 2
111 1
112 0.14
113 1.8
114 2.6
115 17
116 0.52
117 4.7
118 2.8
119 2.6
120 0.02
121 1.8
122 2
123 2
124 0.21
125 2.8
126 2
127 7.1
128 0.91
129 5.4
130 2.6
131 5.2
132 0.32
133 2.8
134 3.2
135 1.4
136 0.26
137 1.4
138 1.8
139 5.2
140 0.29
141 7.3
142 2.9
143 3.6
144 0.59
145 5
146 10
147 3.4
148 0.24
149 2
150 1.8
151 3
152 0.9
153 7.1
154 3
155 5.4
156 0.03
157 4.6
158 4
159 4.4
160 0.39
161 6.6
162 51.4
163 7.6
164 0.26
165 7.3
166 3.2
167 4
168 0.58
169 6.4
170 4.4
171 4.8
172 0.29
173 6.1
174 4
175 9
176 0.49
177 3.4
178 6.8
179 4.4
180 0.26
181 9.1
182 4.6
183 5
184 0.44
185 8
186 5.4
187 6
188 2.04
189 5.4
190 3.8
191 2.1
192 0.18
193 2.4
194 2.7
195 4.6
196 0.41
197 8.2
198 7.2
199 7.9
200 0.48
201 4.1
202 4.1
203 1.8
204 0.22
205 1.7
206 1.8
207 2.6
208 0.22
209 6.4
210 4.5
211 6.7
212 0.64
213 7.1
214 24.9
215 6.8
216 0.44
217 3.4
218 2.9
219 3.6
220 0.18
221 1.4
222 2
223 1
224 0.39
225 11
226 5.9
227 5.4
228 0.07
229 39.8
230 12.4
231 2.6
232 0.01
233 1
234 1.3
235 1.4
236 0.17
237 1.8
238 4
239 3.6
240 0.69
241 7.4
242 14.9
243 4.9
244 0.19
245 1.5
246 0.7
247 0.4
248 0.01
249 1
250 1.9
251 2
252 0.34
253 2.1
254 4
255 3.1
256 0.86
257 2.2
258 1.1
262 1.2
263 0.01
264 1.5
265 1.5
266 4.7
267 0.03
268 3
269 1.4
270 6.8
271 0.03
272 2
280 9.9
281 5
282 1.34
283 4
284 9.2
285 2.4
286 0.01
296 1
297 3
298 15.1
299 99.99
300 21.3
301 3
302 1

>  <PREDICTED SPECTRUM>  (4582) 
41 158
42 468
43 264
44 372
45 98
46 35
47 62
48 9
49 29
50 81
51 201
52 112
53 163
54 112
55 143
56 143
57 223
58 263
59 279
60 93
61 31
62 24
63 128
64 65
65 206
66 90
67 138
68 131
69 109
70 376
71 135
72 62
73 6
74 42
75 101
76 74
77 309
78 148
79 165
80 122
81 198
82 229
83 120
84 126
86 36
87 2
89 137
90 42
91 279
92 71
93 76
94 198
95 104
96 284
97 106
98 56
99 16
100 13
101 1
102 74
103 175
104 73
105 131
106 76
107 88
108 82
109 84
110 144
111 11
112 29
113 77
114 67
115 314
116 91
117 141
118 63
119 41
120 84
121 128
122 84
123 29
124 157
125 32
126 45
127 131
128 163
129 117
130 22
131 98
132 41
133 64
134 136
135 111
136 157
137 130
138 122
139 130
140 50
141 98
142 115
143 8
144 104
145 43
146 218
147 94
148 119
149 87
150 66
151 132
152 284
153 242
154 144
155 113
156 50
157 101
158 34
159 72
160 54
161 97
162 272
163 34
164 39
165 161
166 141
167 81
168 80
169 58
170 16
171 59
172 37
173 33
174 112
175 256
176 112
177 86
178 136
179 111
180 80
181 168
182 168
183 122
184 112
185 115
186 65
187 45
188 135
189 5
192 36
193 64
194 127
195 154
196 73
197 63
198 110
199 98
200 47
201 50
207 10
208 86
209 122
210 163
211 231
212 230
213 297
214 142
220 2
223 43
224 112
225 96
226 165
227 141
228 236
229 231
230 96
231 22
236 65
237 36
238 162
239 71
240 134
241 104
242 336
243 158
244 7
252 32
253 31
254 123
255 26
256 244
257 82
266 9
268 46
270 220
271 136
272 26
280 127
281 51
282 460
283 183
284 196
285 45
297 131
298 665
299 999
300 453
301 145

$$$$

     RDKit          2D

 17 18  0  0  0  0  0  0  0  0999 V2000
   -3.6418    1.7850    0.0000 C   0  0  0  0  0  0  0  0  0  0  0  0
    9.3120    4.3705    0.0000 C   0  0  0  0  0  0  0  0  0  0  0  0
    8.0128    5.1219    0.0000 C   0  0  0  0  0  0  0  0  0  0  0  0
    9.3118    2.8697    0.0000 C   0  0  0  0  0  0  0  0  0  0  0  0
    6.7134    4.3725    0.0000 C   0  0  0  0  0  0  0  0  0  0  0  0
    8.0124    2.1203    0.0000 C   0  0  0  0  0  0  0  0  0  0  0  0
   -1.1526    2.7346    0.0000 C   0  0  0  0  0  0  0  0  0  0  0  0
    5.4139    2.1222    0.0000 C   0  0  0  0  0  0  0  0  0  0  0  0
   -2.1504    1.6245    0.0000 C   0  0  0  0  0  0  0  0  0  0  0  0
    6.7132    2.8717    0.0000 C   0  0  0  0  0  0  0  0  0  0  0  0
    0.2177    2.1245    0.0000 C   0  0  0  0  0  0  0  0  0  0  0  0
    1.5171    2.8740    0.0000 C   0  0  0  0  0  0  0  0  0  0  0  0
    4.1151    2.8728    0.0000 N   0  0  0  0  0  0  0  0  0  0  0  0
    2.8158    2.1234    0.0000 N   0  0  0  0  0  0  0  0  0  0  0  0
    0.0604    0.6402    0.0000 N   0  0  0  0  0  0  0  0  0  0  0  0
    1.5177    4.3740    0.0000 O   0  0  0  0  0  0  0  0  0  0  0  0
   -1.4070    0.3193    0.0000 O   0  0  0  0  0  0  0  0  0  0  0  0
  3  2  2  0
  4  2  1  0
  5  3  1  0
  6  4  2  0
  9  1  1  0
  9  7  2  0
 10  5  2  0
 10  6  1  0
 10  8  1  0
 11  7  1  0
 12 11  1  0
 13  8  1  0
 14 12  1  0
 14 13  1  0
 15 11  2  0
 16 12  2  0
 17  9  1  0
 17 15  1  0
M  END
>  <NAME>  (4583) 
3-(2-BENZYLHYDRAZOCARBOXY)-5-METHYL-ISOXAZOLE

>  <SYNONYMS>  (4583) 
ISOCARBOXAZID

>  <SPECTRUM TYPE>  (4583) 
MS1

>  <INSTRUMENT TYPE>  (4583) 
EI-B

>  <INSTRUMENT>  (4583) 
Unknown

>  <ION MODE>  (4583) 
P

>  <INCHIKEY>  (4583) 
XKFPYPQQHFEXRZ-UHFFFAOYSA-N

>  <FORMULA>  (4583) 
C12H13N3O2

>  <EXACT MASS>  (4583) 
231.100776656

>  <MW>  (4583) 
231

>  <ID>  (4583) 
JP003852

>  <CONTRIBUTOR>  (4583) 
University of Tokyo Team, {Faculty of Engineering, University of Tokyo

>  <COMMENT>  (4583) 
SMILES=Cc(o2)cc(n2)C(=O)NNCc(c1)cccc1
InChI=InChI=1S/C12H13N3O2/c1-9-7-11(15-17-9)12(16)14-13-8-10-5-3-2-4-6-10/h2-7,13H,8H2,1H3,(H,14,16)
computed SMILES=O=C(NNCC=1C=CC=CC1)C2=NOC(=C2)C
accession=JP003852
date=2016.01.19 (Created 2008.10.21, modified 2011.05.06)
author=SASAKI S, TOYOHASHI UNIV. OF TECH.
license=CC BY-NC-SA
exact mass=231.10078
ionization energy=70 eV
ion type=[M]+*
computed spectral entropy=3.2826091759988905
computed normalized entropy=0.7985185837510528
SPLASH=splash10-0006-9600000000-952a7c1093fe532d1df3
submitter=submitter = University of Tokyo Team (Faculty of Engineering, University of Tokyo)
MoNA Rating=3.75

>  <NUM PEAKS>  (4583) 
61

>  <MASS SPECTRAL PEAKS>  (4583) 
54 2.4
55 8.9
56 6.4
57 1.59
58 5.9
65 12.9
66 2.9
67 0.29
68 7.9
69 7.9
70 7.9
71 1.19
77 9.9
78 6.4
79 6.9
80 0.29
81 2.9
82 2.9
83 6.4
84 0.91
85 6.9
89 2.9
90 3.4
91 99.99
92 13.9
93 2.9
94 0.4
95 0.39
96 2.9
97 3.9
98 2.9
103 0.79
104 12.9
105 11.9
106 31.9
107 0.79
109 2.9
110 17.9
111 4.4
112 1.24
113 8.4
119 3.9
120 6.9
121 0.39
122 3.9
123 1.9
125 2.4
126 0.29
127 31.9
128 4.9
129 1.9
147 0.29
148 3.4
149 4.4
150 2.4
185 0.49
186 0.9
188 3.9
189 3.9
231 0.69
232 2.4

>  <PREDICTED SPECTRUM>  (4583) 
15 15
16 2
26 29
27 81
28 68
29 75
30 70
37 23
38 89
39 239
40 124
41 234
42 166
43 256
44 193
45 35
49 5
50 184
51 311
52 197
53 161
54 134
55 166
56 225
57 167
58 76
59 13
62 76
63 195
64 79
65 417
66 114
67 50
68 103
69 100
70 98
71 30
74 52
75 69
76 116
77 334
78 260
79 233
80 46
81 97
82 68
83 21
84 63
85 50
86 22
88 1
89 182
90 76
91 999
92 320
93 51
94 36
95 15
96 57
97 112
98 284
99 17
102 26
103 52
104 277
105 233
106 695
107 210
117 34
118 51
119 91
120 65
125 85
130 15
131 95
132 218
133 138
134 58
145 20
146 131
147 86
148 84
159 11
172 60
173 84
174 37
187 12
188 55
189 34
214 22
231 349
232 103

$$$$

     RDKit          2D

 22 24  0  0  0  0  0  0  0  0999 V2000
   -0.6729    8.6754    0.0000 C   0  0  0  0  0  0  0  0  0  0  0  0
   -1.9729    7.9254    0.0000 C   0  0  0  0  0  0  0  0  0  0  0  0
    0.6271    7.9254    0.0000 C   0  0  0  0  0  0  0  0  0  0  0  0
    4.8497    1.6209    0.0000 C   0  0  0  0  0  0  0  0  0  0  0  0
    5.5997    2.9199    0.0000 C   0  0  0  0  0  0  0  0  0  0  0  0
   -1.9729    6.4254    0.0000 C   0  0  0  0  0  0  0  0  0  0  0  0
    0.6271    6.4254    0.0000 C   0  0  0  0  0  0  0  0  0  0  0  0
   -3.2730    5.6589    0.0000 C   0  0  0  0  0  0  0  0  0  0  0  0
   -4.5793    3.4224    0.0000 C   0  0  0  0  0  0  0  0  0  0  0  0
   -4.5683    6.4154    0.0000 C   0  0  0  0  0  0  0  0  0  0  0  0
   -5.8745    4.1790    0.0000 C   0  0  0  0  0  0  0  0  0  0  0  0
    0.6261    3.4254    0.0000 C   0  0  0  0  0  0  0  0  0  0  0  0
    3.3813    1.9375    0.0000 C   0  0  0  0  0  0  0  0  0  0  0  0
    4.5913    4.0333    0.0000 C   0  0  0  0  0  0  0  0  0  0  0  0
    1.9252    4.1754    0.0000 C   0  0  0  0  0  0  0  0  0  0  0  0
   -1.9719    3.4254    0.0000 C   0  0  0  0  0  0  0  0  0  0  0  0
   -3.2710    4.1754    0.0000 C   0  0  0  0  0  0  0  0  0  0  0  0
   -0.6729    5.6754    0.0000 C   0  0  0  0  0  0  0  0  0  0  0  0
   -0.6729    4.1754    0.0000 C   0  0  0  0  0  0  0  0  0  0  0  0
   -5.8701    5.6934    0.0000 C   0  0  0  0  0  0  0  0  0  0  0  0
   -7.1615    6.4565    0.0000 Cl  0  0  0  0  0  0  0  0  0  0  0  0
    3.2242    3.4254    0.0000 N   0  0  0  0  0  0  0  0  0  0  0  0
  2  1  2  0
  3  1  1  0
  5  4  1  0
  6  2  1  0
  7  3  2  0
 10  8  2  0
 11  9  1  0
 13  4  1  0
 14  5  1  0
 15 12  1  0
 17  8  1  0
 17  9  2  0
 17 16  1  0
 18  6  2  0
 18  7  1  0
 12 19  2  0
 19 16  1  0
 19 18  1  0
 20 10  1  0
 20 11  2  0
 21 20  1  0
 22 13  1  0
 22 14  1  0
 22 15  1  0
M  END
>  <NAME>  (4584) 
PYRROBUTAMINE

>  <SYNONYMS>  (4584) 


>  <SPECTRUM TYPE>  (4584) 
MS1

>  <INSTRUMENT TYPE>  (4584) 
EI-B

>  <INSTRUMENT>  (4584) 
Unknown

>  <ION MODE>  (4584) 
P

>  <INCHIKEY>  (4584) 
WDYYVNNRTDZKAZ-UNOMPAQXSA-N

>  <FORMULA>  (4584) 
C20H22ClN

>  <EXACT MASS>  (4584) 
311.144077384

>  <MW>  (4584) 
311

>  <ID>  (4584) 
JP003851

>  <CONTRIBUTOR>  (4584) 
University of Tokyo Team, {Faculty of Engineering, University of Tokyo

>  <COMMENT>  (4584) 
SMILES=Clc(c3)ccc(c3)CC(=CCN(C2)CCC2)c(c1)cccc1
InChI=InChI=1S/C20H22ClN/c21-20-10-8-17(9-11-20)16-19(18-6-2-1-3-7-18)12-15-22-13-4-5-14-22/h1-3,6-12H,4-5,13-16H2/b19-12-
computed SMILES=ClC1=CC=C(C=C1)CC(=CCN2CCCC2)C=3C=CC=CC3
accession=JP003851
date=2016.01.19 (Created 2008.10.21, modified 2011.05.06)
author=SASAKI S, TOYOHASHI UNIV. OF TECH.
license=CC BY-NC-SA
exact mass=311.14408
ionization energy=70 eV
ion type=[M]+*
computed spectral entropy=3.557987733679651
computed normalized entropy=0.7987674729970489
SPLASH=splash10-052f-5690000000-f2bffe8c2191b2312db3
submitter=submitter = University of Tokyo Team (Faculty of Engineering, University of Tokyo)
MoNA Rating=3.75

>  <NUM PEAKS>  (4584) 
86

>  <MASS SPECTRAL PEAKS>  (4584) 
55 7.9
56 4.4
57 4.4
58 0.66
67 1.9
68 3.4
69 5.9
70 1.49
71 12.4
72 1.9
75 1.9
76 0.24
77 10.4
78 2.4
82 2.9
83 0.34
84 17.4
85 2.4
89 6.9
90 0.19
91 25.9
92 2.9
96 8.4
97 0.24
98 2.9
101 4.9
102 4.9
103 0.59
104 2.4
105 15.9
106 1.9
115 1.64
116 5.4
117 9.4
118 1.9
125 2.79
126 3.9
127 13.4
128 10.9
129 1.69
130 5.9
131 2.9
132 0.9
162 0.29
163 3.9
164 2.6
165 5.4
166 0.19
176 2.4
177 2.4
178 5.9
179 0.24
184 5.9
185 2.4
186 19.9
187 0.34
188 0.4
189 2.9
190 2.9
191 0.39
192 2.4
200 1.9
201 2.4
202 0.64
203 7.9
204 9.9
205 99.99
206 1.69
207 3.9
208 0.9
238 1.6
239 0.29
240 54.4
241 11.9
242 24.9
243 0.49
244 2.1
306 0.4
307 1.4
308 0.14
309 2.9
310 4.4
311 8.9
312 0.29
313 3.4
314 1.4

>  <PREDICTED SPECTRUM>  (4584) 
17 9
18 24
27 32
28 32
29 22
33 1
36 51
38 43
39 149
40 94
41 407
42 463
43 210
44 129
45 100
49 56
50 124
51 192
52 106
53 142
54 133
55 240
56 223
57 184
58 190
59 101
60 69
61 10
62 69
63 145
64 86
65 178
66 65
67 120
68 170
69 293
70 370
71 200
72 112
73 21
74 80
75 164
76 143
77 236
78 124
79 89
80 96
81 69
82 180
83 140
84 999
85 272
86 68
87 77
88 69
89 327
90 167
91 293
92 46
93 4
95 40
96 128
97 103
98 98
99 157
100 107
101 196
102 227
103 141
104 155
105 115
106 28
107 27
108 33
109 74
110 78
111 109
112 28
113 83
114 103
115 401
116 366
117 201
118 113
119 132
120 84
121 52
123 51
124 32
125 303
126 64
127 159
128 156
129 252
130 146
131 103
132 11
133 45
135 15
136 60
137 139
138 63
139 9
141 14
142 88
143 98
144 137
145 122
146 100
149 58
150 75
151 158
152 162
153 66
155 2
158 113
159 123
160 86
161 75
162 93
163 97
164 70
165 173
166 67
167 116
168 11
169 82
170 116
171 114
172 67
173 168
174 113
175 37
176 28
177 65
178 58
179 81
184 52
185 24
186 313
187 84
188 80
189 18
190 73
191 6
192 166
193 70
194 101
195 68
198 39
199 97
200 48
201 105
202 61
203 32
205 20
206 37
207 62
209 48
210 23
211 57
214 11
220 48
227 202
228 102
229 143
240 66
241 137
242 314
243 250
244 219
245 134
246 26
309 133
310 133
311 195
312 142
313 196
314 71

$$$$

     RDKit          2D

 13 14  0  0  0  0  0  0  0  0999 V2000
   -2.5989   -1.5002    0.0000 C   0  0  0  0  0  0  0  0  0  0  0  0
   -5.1968    3.0006    0.0000 C   0  0  0  0  0  0  0  0  0  0  0  0
   -5.1975    1.4998    0.0000 C   0  0  0  0  0  0  0  0  0  0  0  0
   -3.8971    3.7512    0.0000 C   0  0  0  0  0  0  0  0  0  0  0  0
   -3.8986    0.7496    0.0000 C   0  0  0  0  0  0  0  0  0  0  0  0
   -2.5982    3.0010    0.0000 C   0  0  0  0  0  0  0  0  0  0  0  0
    1.3000   -0.7500    0.0000 C   0  0  0  0  0  0  0  0  0  0  0  0
    1.3000    0.7500    0.0000 C   0  0  0  0  0  0  0  0  0  0  0  0
   -1.3000   -0.7500    0.0000 C   0  0  0  0  0  0  0  0  0  0  0  0
   -2.5989    1.5002    0.0000 C   0  0  0  0  0  0  0  0  0  0  0  0
   -1.3000    0.7500    0.0000 C   0  0  0  0  0  0  0  0  0  0  0  0
    0.0000   -1.5000    0.0000 N   0  0  0  0  0  0  0  0  0  0  0  0
    0.0000    1.5000    0.0000 O   0  0  0  0  0  0  0  0  0  0  0  0
  3  2  2  0
  4  2  1  0
  5  3  1  0
  6  4  2  0
  8  7  1  0
  9  1  1  0
 10  5  2  0
 10  6  1  0
 11  9  1  0
 11 10  1  0
 12  7  1  0
 12  9  1  0
 13  8  1  0
 13 11  1  0
M  END
>  <NAME>  (4585) 
3-METHYL-2-PHENYL-MORPHOLINE

>  <SYNONYMS>  (4585) 
PHENMETRAZINE

>  <SPECTRUM TYPE>  (4585) 
MS1

>  <INSTRUMENT TYPE>  (4585) 
EI-B

>  <INSTRUMENT>  (4585) 
Unknown

>  <ION MODE>  (4585) 
P

>  <INCHIKEY>  (4585) 
OOBHFESNSZDWIU-UHFFFAOYSA-N

>  <FORMULA>  (4585) 
C11H15NO

>  <EXACT MASS>  (4585) 
177.1153641

>  <MW>  (4585) 
177

>  <ID>  (4585) 
JP003850

>  <CONTRIBUTOR>  (4585) 
University of Tokyo Team, {Faculty of Engineering, University of Tokyo

>  <COMMENT>  (4585) 
SMILES=CC(N2)C(OCC2)c(c1)cccc1
InChI=InChI=1S/C11H15NO/c1-9-11(13-8-7-12-9)10-5-3-2-4-6-10/h2-6,9,11-12H,7-8H2,1H3
computed SMILES=O1CCNC(C)C1C=2C=CC=CC2
accession=JP003850
date=2016.01.19 (Created 2008.10.21, modified 2011.05.06)
license=CC BY-NC-SA
author=SASAKI S, TOYOHASHI UNIV. OF TECH.
exact mass=177.11536
ionization energy=70 eV
ion type=[M]+*
computed spectral entropy=2.2668354644903035
computed normalized entropy=0.6231702466838096
SPLASH=splash10-00di-9100000000-da503eda1d0e6fdabb4c
submitter=submitter = University of Tokyo Team (Faculty of Engineering, University of Tokyo)
MoNA Rating=3.75

>  <NUM PEAKS>  (4585) 
38

>  <MASS SPECTRAL PEAKS>  (4585) 
39 1.9
40 1.4
41 2.9
42 3.44
43 29.9
44 4.9
51 3.9
52 0.24
53 0.9
54 1.4
55 0.9
56 2.99
57 2.9
58 0.4
68 1.4
69 0.19
70 6.4
71 99.99
72 5.1
77 0.69
78 1.9
79 1.9
89 2.4
90 0.19
91 4.9
92 1.9
103 1.4
104 0.09
105 4.9
106 0.9
115 2.4
116 0.09
117 3.9
118 1.9
119 0.4
176 0.04
177 16.4
178 2.4

>  <PREDICTED SPECTRUM>  (4585) 
14 8
15 61
26 32
27 74
28 155
29 54
30 94
38 55
39 213
40 91
41 327
42 563
43 717
44 489
45 105
49 20
50 196
51 397
52 162
53 120
54 174
55 164
56 496
57 414
58 420
59 13
62 118
63 214
64 74
65 326
66 67
67 66
68 4
70 769
71 999
72 572
73 73
74 76
75 29
76 50
77 463
78 294
79 152
89 282
90 233
91 512
92 83
103 154
105 205
106 71
115 529
116 20
117 613
118 283
119 140
132 26
162 36
177 96

$$$$

     RDKit          2D

 14 14  0  0  0  0  0  0  0  0999 V2000
    2.5344    0.4468    0.0000 C   0  0  0  0  0  0  0  0  0  0  0  0
    4.5806    1.0062    0.0000 C   0  0  0  0  0  0  0  0  0  0  0  0
    2.9335    3.6470    0.0000 C   0  0  0  0  0  0  0  0  0  0  0  0
   -0.6097    2.4701    0.0000 C   0  0  0  0  0  0  0  0  0  0  0  0
    0.6853    0.2271    0.0000 C   0  0  0  0  0  0  0  0  0  0  0  0
   -1.9087    1.7201    0.0000 C   0  0  0  0  0  0  0  0  0  0  0  0
   -0.6137   -0.5229    0.0000 C   0  0  0  0  0  0  0  0  0  0  0  0
    0.6798    1.7366    0.0000 C   0  0  0  0  0  0  0  0  0  0  0  0
   -1.9269    0.2316    0.0000 C   0  0  0  0  0  0  0  0  0  0  0  0
    3.2779    1.7496    0.0000 C   0  0  0  0  0  0  0  0  0  0  0  0
    1.9751    2.4931    0.0000 C   0  0  0  0  0  0  0  0  0  0  0  0
   -3.2297   -0.5119    0.0000 Cl  0  0  0  0  0  0  0  0  0  0  0  0
    4.0213    3.0524    0.0000 O   0  0  0  0  0  0  0  0  0  0  0  0
    1.0051    3.6373    0.0000 O   0  0  0  0  0  0  0  0  0  0  0  0
  6  4  2  0
  7  5  1  0
  8  4  1  0
  8  5  2  0
  9  6  1  0
  9  7  2  0
 10  1  1  0
 10  2  1  0
 11  3  1  0
 11  8  1  0
 11 10  1  0
 12  9  1  0
 13 10  1  0
 14 11  1  0
M  END
>  <NAME>  (4586) 
PHENAGLYCODOL

>  <SYNONYMS>  (4586) 
2-(4-CHLOROPHENYL)-3-METHYL-2,3-BUTANEDIOL

>  <SPECTRUM TYPE>  (4586) 
MS1

>  <INSTRUMENT TYPE>  (4586) 
EI-B

>  <INSTRUMENT>  (4586) 
Unknown

>  <ION MODE>  (4586) 
P

>  <INCHIKEY>  (4586) 
HTYIXCKSEQQCJO-UHFFFAOYSA-N

>  <FORMULA>  (4586) 
C11H15ClO2

>  <EXACT MASS>  (4586) 
214.0760574

>  <MW>  (4586) 
214

>  <ID>  (4586) 
JP003849

>  <CONTRIBUTOR>  (4586) 
University of Tokyo Team, {Faculty of Engineering, University of Tokyo

>  <COMMENT>  (4586) 
SMILES=Clc(c1)ccc(c1)C(C)(O)C(C)(C)O
InChI=InChI=1S/C11H15ClO2/c1-10(2,13)11(3,14)8-4-6-9(12)7-5-8/h4-7,13-14H,1-3H3
computed SMILES=ClC1=CC=C(C=C1)C(O)(C)C(O)(C)C
accession=JP003849
date=2016.01.19 (Created 2008.10.21, modified 2011.05.06)
author=SASAKI S, TOYOHASHI UNIV. OF TECH.
license=CC BY-NC-SA
exact mass=214.07606
ionization energy=70 eV
ion type=[M]+*
computed spectral entropy=2.6845035201242995
computed normalized entropy=0.7137358921486896
SPLASH=splash10-0a4i-9800000000-d901fb0418e5412b92c0
submitter=submitter = University of Tokyo Team (Faculty of Engineering, University of Tokyo)
MoNA Rating=3.75

>  <NUM PEAKS>  (4586) 
43

>  <MASS SPECTRAL PEAKS>  (4586) 
41 7.9
42 1.9
43 71.9
44 0.24
50 2.9
51 4.9
57 3.9
58 0.49
59 99.99
60 4.9
73 1.4
74 0.19
75 6.9
76 1.9
77 7.9
78 0.24
111 7.4
112 3.9
113 4.9
114 0.19
115 1.9
120 1.9
121 40.9
122 0.39
125 4.9
138 3.4
139 10.9
140 0.24
141 9.9
142 1.4
143 2.9
153 0.69
154 3.4
155 37.9
156 44.9
157 1.49
158 13.9
159 1.9
179 0.9
180 0.19
181 6.9
182 2.4
183 2.9

>  <PREDICTED SPECTRUM>  (4586) 
15 32
29 1
31 153
33 22
34 4
36 0
38 21
39 93
40 68
41 209
42 19
43 999
44 111
45 210
47 116
48 4
49 14
50 202
51 259
52 100
53 86
55 53
56 54
57 116
58 227
59 898
60 249
61 138
62 47
63 89
64 23
65 37
66 56
69 53
70 24
71 72
74 90
75 433
76 158
77 286
78 194
79 140
80 11
81 1
82 3
83 77
84 59
85 129
87 40
89 31
92 18
95 57
96 13
97 42
98 12
99 90
100 35
101 198
102 78
105 230
106 51
110 12
111 412
113 150
114 66
115 91
116 25
117 14
118 63
119 84
120 119
121 160
122 55
123 128
125 157
126 31
127 141
128 89
130 4
135 16
137 85
138 143
139 810
140 180
141 464
142 46
143 54
155 207
156 516
157 319
158 176
159 60
160 54
161 48
181 61
185 74
199 235
200 64
201 116
202 9
214 40
216 0

$$$$

     RDKit          2D

 23 26  0  0  0  0  0  0  0  0999 V2000
   -2.3100   -0.7500    0.0000 C   0  0  0  0  0  0  0  0  0  0  0  0
   -2.3100    0.7500    0.0000 C   0  0  0  0  0  0  0  0  0  0  0  0
    5.3555   -3.6746    0.0000 C   0  0  0  0  0  0  0  0  0  0  0  0
    6.6545   -2.9246    0.0000 C   0  0  0  0  0  0  0  0  0  0  0  0
   -1.0100   -1.5000    0.0000 C   0  0  0  0  0  0  0  0  0  0  0  0
   -1.0100    1.5000    0.0000 C   0  0  0  0  0  0  0  0  0  0  0  0
    4.6457    1.8438    0.0000 C   0  0  0  0  0  0  0  0  0  0  0  0
    4.1231    4.3805    0.0000 C   0  0  0  0  0  0  0  0  0  0  0  0
    6.1149    2.1464    0.0000 C   0  0  0  0  0  0  0  0  0  0  0  0
    5.5922    4.6832    0.0000 C   0  0  0  0  0  0  0  0  0  0  0  0
    4.2421   -2.6661    0.0000 C   0  0  0  0  0  0  0  0  0  0  0  0
    6.3379   -1.4561    0.0000 C   0  0  0  0  0  0  0  0  0  0  0  0
    2.1853    2.6360    0.0000 C   0  0  0  0  0  0  0  0  0  0  0  0
    4.1000   -0.0000    0.0000 C   0  0  0  0  0  0  0  0  0  0  0  0
    3.6529    2.9461    0.0000 C   0  0  0  0  0  0  0  0  0  0  0  0
    6.6010    3.5535    0.0000 C   0  0  0  0  0  0  0  0  0  0  0  0
    0.2900   -0.7500    0.0000 C   0  0  0  0  0  0  0  0  0  0  0  0
    0.2900    0.7500    0.0000 C   0  0  0  0  0  0  0  0  0  0  0  0
    2.6000    0.0000    0.0000 C   0  0  0  0  0  0  0  0  0  0  0  0
    8.0716    3.8487    0.0000 Cl  0  0  0  0  0  0  0  0  0  0  0  0
    1.7200   -1.2100    0.0000 N   0  0  0  0  0  0  0  0  0  0  0  0
    4.8500   -1.2990    0.0000 N   0  0  0  0  0  0  0  0  0  0  0  0
    1.7200    1.2100    0.0000 N   0  0  0  0  0  0  0  0  0  0  0  0
  2  1  2  0
  4  3  1  0
  5  1  1  0
  6  2  1  0
  9  7  2  0
 10  8  1  0
 11  3  1  0
 12  4  1  0
 15  7  1  0
 15  8  2  0
 15 13  1  0
 16  9  1  0
 16 10  2  0
 17  5  2  0
 18  6  2  0
 18 17  1  0
 19 14  1  0
 20 16  1  0
 21 17  1  0
 21 19  2  0
 22 11  1  0
 22 12  1  0
 22 14  1  0
 23 13  1  0
 23 18  1  0
 23 19  1  0
M  END
>  <NAME>  (4587) 
1-(4-CHLOROBENZYL)-2-PYRROLIDINOMETHYL-BENZIMIDAZOLE

>  <SYNONYMS>  (4587) 
CLEMIZOLE

>  <SPECTRUM TYPE>  (4587) 
MS1

>  <INSTRUMENT TYPE>  (4587) 
EI-B

>  <INSTRUMENT>  (4587) 
Unknown

>  <ION MODE>  (4587) 
P

>  <INCHIKEY>  (4587) 
CJXAEXPPLWQRFR-UHFFFAOYSA-N

>  <FORMULA>  (4587) 
C19H20ClN3

>  <EXACT MASS>  (4587) 
325.13457532

>  <MW>  (4587) 
325

>  <ID>  (4587) 
JP003848

>  <CONTRIBUTOR>  (4587) 
University of Tokyo Team, {Faculty of Engineering, University of Tokyo

>  <COMMENT>  (4587) 
SMILES=Clc(c4)ccc(c4)Cn(c(CN(C3)CCC3)1)c(c2)c(ccc2)n1
InChI=InChI=1S/C19H20ClN3/c20-16-9-7-15(8-10-16)13-23-18-6-2-1-5-17(18)21-19(23)14-22-11-3-4-12-22/h1-2,5-10H,3-4,11-14H2
computed SMILES=ClC1=CC=C(C=C1)CN2C=3C=CC=CC3N=C2CN4CCCC4
accession=JP003848
date=2016.01.19 (Created 2008.10.21, modified 2011.05.06)
author=SASAKI S, TOYOHASHI UNIV. OF TECH.
license=CC BY-NC-SA
exact mass=325.13458
ionization energy=70 eV
ion type=[M]+*
computed spectral entropy=2.929633983719208
computed normalized entropy=0.7310682312404866
SPLASH=splash10-0a59-4590000000-80e4b4bc418c0315bfdf
submitter=submitter = University of Tokyo Team (Faculty of Engineering, University of Tokyo)
MoNA Rating=3.75

>  <NUM PEAKS>  (4587) 
55

>  <MASS SPECTRAL PEAKS>  (4587) 
54 1.9
55 11.9
56 6.4
57 1.59
58 13.9
59 6.1
69 5.9
70 0.89
71 10.9
75 2.4
76 2.4
77 0.81
78 2.4
81 2.4
82 3.9
83 0.49
84 7.9
85 5.9
89 7.9
90 0.54
91 6.9
124 0.9
125 38.9
126 0.49
127 11.9
128 1.9
129 1.9
130 0.19
131 70.9
132 10.9
133 1.9
134 0.14
216 0.9
217 2.4
218 6.4
219 0.44
220 3.9
221 2.4
222 0.9
238 0.09
239 1.4
240 7.4
241 1.9
242 0.34
243 0.9
251 0.9
252 4.4
253 0.64
254 53.9
255 99.99
256 31.9
257 3.54
258 6.1
259 1.4
325 1.4

>  <PREDICTED SPECTRUM>  (4587) 
29 19
36 57
38 41
39 234
40 132
41 390
42 472
43 176
44 149
49 92
50 188
51 230
52 109
53 80
54 111
55 204
56 186
57 94
58 134
59 31
60 83
61 81
62 152
63 337
64 225
65 246
66 76
67 88
68 143
69 211
70 514
71 226
72 105
73 121
74 65
75 220
76 177
77 262
78 74
79 10
80 54
82 30
83 131
84 731
85 200
86 104
87 64
88 53
89 599
90 533
91 184
92 42
96 73
97 84
98 34
99 272
101 187
102 239
103 84
104 129
105 65
106 29
107 43
109 36
110 96
111 110
114 133
115 70
116 146
117 74
118 82
119 17
121 51
123 32
125 999
126 162
127 498
128 111
129 147
130 234
131 133
132 119
133 158
134 49
135 60
137 33
138 69
139 29
140 10
142 24
144 79
145 157
146 0
147 67
149 101
150 14
151 102
152 88
153 37
154 35
155 50
156 155
157 102
158 194
159 37
160 202
161 73
163 50
165 24
169 28
170 157
171 151
172 427
173 414
174 286
175 191
176 167
177 88
178 33
181 3
185 7
188 70
189 45
190 108
191 92
193 52
198 96
199 48
200 474
201 168
202 185
203 0
204 35
212 10
213 23
214 61
239 53
240 237
241 355
242 239
243 193
244 7
253 13
254 179
255 292
256 451
257 304
258 242
259 107
296 119
297 59
298 33
310 1
323 228
324 194
325 418
326 180
327 301
328 86

$$$$

     RDKit          2D

 10 10  0  0  0  0  0  0  0  0999 V2000
    2.9231    0.5071    0.0000 C   0  0  0  0  0  0  0  0  0  0  0  0
    2.9236    2.0079    0.0000 C   0  0  0  0  0  0  0  0  0  0  0  0
    1.6236   -0.2437    0.0000 C   0  0  0  0  0  0  0  0  0  0  0  0
    1.6245    2.7579    0.0000 C   0  0  0  0  0  0  0  0  0  0  0  0
    0.3245    0.5063    0.0000 C   0  0  0  0  0  0  0  0  0  0  0  0
   -0.9740    2.7571    0.0000 C   0  0  0  0  0  0  0  0  0  0  0  0
   -2.2731    2.0071    0.0000 C   0  0  0  0  0  0  0  0  0  0  0  0
    0.3250    2.0071    0.0000 C   0  0  0  0  0  0  0  0  0  0  0  0
   -4.8712    2.0071    0.0000 N   0  0  0  0  0  0  0  0  0  0  0  0
   -3.5721    2.7571    0.0000 N   0  0  0  0  0  0  0  0  0  0  0  0
  2  1  2  0
  3  1  1  0
  4  2  1  0
  5  3  2  0
  7  6  1  0
  8  4  2  0
  8  5  1  0
  8  6  1  0
 10  7  1  0
 10  9  1  0
M  END
>  <NAME>  (4588) 
PHENELZINE

>  <SYNONYMS>  (4588) 
(2-PHENETHYL)HYDRAZINE

>  <SPECTRUM TYPE>  (4588) 
MS1

>  <INSTRUMENT TYPE>  (4588) 
EI-B

>  <INSTRUMENT>  (4588) 
Unknown

>  <ION MODE>  (4588) 
P

>  <INCHIKEY>  (4588) 
RMUCZJUITONUFY-UHFFFAOYSA-N

>  <FORMULA>  (4588) 
C8H12N2

>  <EXACT MASS>  (4588) 
136.100048384

>  <MW>  (4588) 
136

>  <ID>  (4588) 
JP003847

>  <CONTRIBUTOR>  (4588) 
University of Tokyo Team, {Faculty of Engineering, University of Tokyo

>  <COMMENT>  (4588) 
SMILES=NNCCc(c1)cccc1
InChI=InChI=1S/C8H12N2/c9-10-7-6-8-4-2-1-3-5-8/h1-5,10H,6-7,9H2
computed SMILES=NNCCC=1C=CC=CC1
accession=JP003847
date=2016.01.19 (Created 2008.10.21, modified 2011.05.06)
author=SASAKI S, TOYOHASHI UNIV. OF TECH.
license=CC BY-NC-SA
exact mass=136.10005
ionization energy=70 eV
ion type=[M]+*
computed spectral entropy=2.8443947347223304
computed normalized entropy=0.7234285038096858
SPLASH=splash10-0a4l-9800000000-fec970db2245559d8531
submitter=submitter = University of Tokyo Team (Faculty of Engineering, University of Tokyo)
MoNA Rating=3.75

>  <NUM PEAKS>  (4588) 
51

>  <MASS SPECTRAL PEAKS>  (4588) 
51 11.9
52 2.9
53 1.9
55 0.29
56 0.9
57 0.9
58 5.9
62 0.19
63 5.4
64 1.9
65 11.9
66 0.14
71 1.4
72 0.9
73 4.4
74 0.19
75 1.4
76 2.9
77 32.4
78 0.79
79 9.4
80 0.9
89 5.9
90 0.59
91 76.4
92 16.4
93 2.4
100 0.14
101 0.9
102 6.9
103 10.9
104 4.84
105 99.99
106 10.4
107 4.9
108 0.04
115 3.4
116 2.9
117 9.4
118 0.64
119 4.4
120 5.9
121 1.9
122 0.39
130 2.4
131 10.9
132 4.4
133 2.49
134 6.9
135 1.9
136 0.9

>  <PREDICTED SPECTRUM>  (4588) 
25 2
26 31
27 77
28 94
30 259
37 29
38 88
39 349
40 47
41 241
42 304
45 465
46 37
49 56
50 206
51 409
52 242
53 113
61 68
62 116
63 286
64 57
65 453
66 40
77 425
78 349
79 214
89 171
90 19
91 707
92 226
103 241
104 999
105 557
106 354
117 4
136 517
137 153

$$$$

     RDKit          2D

 26 28  0  0  0  0  0  0  0  0999 V2000
   -7.2977    1.3264    0.0000 C   0  0  0  0  0  0  0  0  0  0  0  0
   -6.3336    0.1772    0.0000 C   0  0  0  0  0  0  0  0  0  0  0  0
   -3.9546    3.7771    0.0000 C   0  0  0  0  0  0  0  0  0  0  0  0
   -4.9196    2.6276    0.0000 C   0  0  0  0  0  0  0  0  0  0  0  0
   -2.4765    3.5171    0.0000 C   0  0  0  0  0  0  0  0  0  0  0  0
   -4.4064    1.2181    0.0000 C   0  0  0  0  0  0  0  0  0  0  0  0
   -1.9633    2.1076    0.0000 C   0  0  0  0  0  0  0  0  0  0  0  0
    4.0804   -4.2014    0.0000 C   0  0  0  0  0  0  0  0  0  0  0  0
    5.3800   -1.9512    0.0000 C   0  0  0  0  0  0  0  0  0  0  0  0
    5.3805   -4.9511    0.0000 C   0  0  0  0  0  0  0  0  0  0  0  0
    6.6801   -2.7009    0.0000 C   0  0  0  0  0  0  0  0  0  0  0  0
    2.7811   -1.9514    0.0000 C   0  0  0  0  0  0  0  0  0  0  0  0
   -2.4155   -1.9522    0.0000 C   0  0  0  0  0  0  0  0  0  0  0  0
   -1.1155    0.2995    0.0000 C   0  0  0  0  0  0  0  0  0  0  0  0
    1.4821   -2.7014    0.0000 C   0  0  0  0  0  0  0  0  0  0  0  0
   -1.1165   -2.7022    0.0000 C   0  0  0  0  0  0  0  0  0  0  0  0
    0.1835   -0.4505    0.0000 C   0  0  0  0  0  0  0  0  0  0  0  0
    4.0801   -2.7014    0.0000 C   0  0  0  0  0  0  0  0  0  0  0  0
   -2.9282    0.9581    0.0000 C   0  0  0  0  0  0  0  0  0  0  0  0
    6.6804   -4.2009    0.0000 C   0  0  0  0  0  0  0  0  0  0  0  0
   -3.8923   -0.7117    0.0000 C   0  0  0  0  0  0  0  0  0  0  0  0
   -2.4151   -0.4514    0.0000 C   0  0  0  0  0  0  0  0  0  0  0  0
    7.9794   -4.9509    0.0000 N   0  0  0  0  0  0  0  0  0  0  0  0
    0.1830   -1.9514    0.0000 N   0  0  0  0  0  0  0  0  0  0  0  0
   -4.4055   -2.1212    0.0000 O   0  0  0  0  0  0  0  0  0  0  0  0
   -4.8564    0.4375    0.0000 O   0  0  0  0  0  0  0  0  0  0  0  0
  2  1  1  0
  4  3  2  0
  5  3  1  0
  6  4  1  0
  7  5  2  0
 10  8  2  0
 11  9  1  0
 15 12  1  0
 16 13  1  0
 17 14  1  0
 18  8  1  0
 18  9  2  0
 18 12  1  0
 19  6  2  0
 19  7  1  0
 20 10  1  0
 20 11  2  0
 22 13  1  0
 22 14  1  0
 22 19  1  0
 22 21  1  0
 23 20  1  0
 24 15  1  0
 24 16  1  0
 24 17  1  0
 25 21  2  0
 26  2  1  0
 26 21  1  0
M  END
>  <NAME>  (4589) 
ANILERIDINE

>  <SYNONYMS>  (4589) 


>  <SPECTRUM TYPE>  (4589) 
MS1

>  <INSTRUMENT TYPE>  (4589) 
EI-B

>  <INSTRUMENT>  (4589) 
Unknown

>  <ION MODE>  (4589) 
P

>  <INCHIKEY>  (4589) 
LKYQLAWMNBFNJT-UHFFFAOYSA-N

>  <FORMULA>  (4589) 
C22H28N2O2

>  <EXACT MASS>  (4589) 
352.215078136

>  <MW>  (4589) 
352

>  <ID>  (4589) 
JP003844

>  <CONTRIBUTOR>  (4589) 
University of Tokyo Team, {Faculty of Engineering, University of Tokyo

>  <COMMENT>  (4589) 
SMILES=CCOC(=O)C(C2)(CCN(CCc(c3)ccc(N)c3)C2)c(c1)cccc1
InChI=InChI=1S/C22H28N2O2/c1-2-26-21(25)22(19-6-4-3-5-7-19)13-16-24(17-14-22)15-12-18-8-10-20(23)11-9-18/h3-11H,2,12-17,23H2,1H3
computed SMILES=O=C(OCC)C1(C=2C=CC=CC2)CCN(CCC3=CC=C(N)C=C3)CC1
accession=JP003844
date=2016.01.19 (Created 2008.10.21, modified 2011.05.06)
author=SASAKI S, TOYOHASHI UNIV. OF TECH.
license=CC BY-NC-SA
exact mass=352.21508
ionization energy=70 eV
ion type=[M]+*
computed spectral entropy=3.15131306503854
computed normalized entropy=0.6297655634902186
SPLASH=splash10-0002-4490000000-1f331ba53cfcca295590
submitter=submitter = University of Tokyo Team (Faculty of Engineering, University of Tokyo)
MoNA Rating=3.75

>  <NUM PEAKS>  (4589) 
149

>  <MASS SPECTRAL PEAKS>  (4589) 
26 0.2
27 0.9
28 1.2
29 0.16
30 1.2
31 1.1
39 1
40 0.01
41 1.8
42 12.4
43 1.5
44 0.16
45 0.4
50 0.2
51 0.7
52 0.06
53 1.1
54 0.8
55 0.7
56 0.19
57 1
58 0.4
59 2.8
60 0.07
61 0.1
62 0.1
63 0.3
64 0.02
65 1.6
66 0.6
67 1
68 0.13
69 1.7
70 1.6
71 0.4
72 0.04
76 0.1
77 4.1
78 1.4
79 0.16
80 0.9
81 1.2
83 0.6
84 0.02
85 0.2
86 1
87 0.1
88 0.03
89 0.6
90 0.4
91 6
92 0.01
93 1.4
94 1.1
95 0.3
96 0.01
97 0.1
98 0.1
99 0.4
100 0.01
101 0.3
102 0.8
103 5.2
104 0.17
105 1.7
106 6.5
107 1.1
111 0.01
112 1.4
113 0.1
114 0.1
115 0.33
116 1.6
117 2.5
118 2.4
119 0.24
120 8.8
121 1.2
126 0.1
127 0.09
128 2
129 2.6
130 1.3
131 0.22
132 0.9
133 0.4
134 0.1
140 0.01
141 0.6
142 0.3
143 1.9
144 0.14
145 1.2
146 0.4
147 0.2
153 0.01
154 0.2
155 0.5
156 0.4
157 0.03
158 2.1
159 0.9
160 0.7
161 0.04
162 0.3
170 0.7
171 1.1
172 0.07
173 2.1
174 2.4
175 0.7
176 0.02
188 0.4
189 0.2
190 3.6
191 0.01
192 0.2
200 0.6
201 0.2
202 0.04
216 0.7
217 0.3
218 7.2
219 0.14
220 0.3
232 0.8
233 0.4
234 0.01
244 1
245 0.6
246 99.99
247 0.18
248 2.4
249 0.4
276 0.2
277 0.14
278 0.8
279 2
280 0.7
281 0.02
307 1
308 0.4
309 0.1
350 0.01
351 0.6
352 0.5
353 0.5
354 0.04
355 0.2

>  <PREDICTED SPECTRUM>  (4589) 
29 43
39 150
40 24
41 51
42 448
43 160
44 133
45 57
46 13
49 7
50 17
51 217
52 134
53 102
54 121
55 54
56 262
57 112
58 23
63 138
65 247
66 57
67 18
69 93
70 94
71 151
72 58
76 3
77 316
78 182
79 226
80 83
82 58
84 0
89 92
90 48
91 273
92 72
93 29
94 45
96 6
97 70
98 86
100 21
102 125
103 229
104 137
105 145
106 312
107 153
112 66
113 7
115 287
116 41
117 66
118 184
119 167
120 211
121 68
126 19
127 53
128 141
129 123
130 197
131 220
132 178
133 66
134 168
141 65
142 26
143 22
144 87
145 56
146 193
147 181
148 79
149 16
156 100
158 99
159 78
160 144
161 96
162 77
171 5
172 46
173 83
174 25
175 45
176 149
187 56
188 18
201 148
233 3
246 999
247 465
248 138
249 26
277 111
279 78
293 66
351 45
352 156
353 16

$$$$

     RDKit          2D

 21 22  0  0  0  0  0  0  0  0999 V2000
    7.7951    1.5010    0.0000 C   0  0  0  0  0  0  0  0  0  0  0  0
    6.4964   -0.7492    0.0000 C   0  0  0  0  0  0  0  0  0  0  0  0
   -2.6461    7.4882    0.0000 C   0  0  0  0  0  0  0  0  0  0  0  0
   -1.3000   -0.7500    0.0000 C   0  0  0  0  0  0  0  0  0  0  0  0
    0.0043    2.9934    0.0000 C   0  0  0  0  0  0  0  0  0  0  0  0
    1.3065    5.2249    0.0000 C   0  0  0  0  0  0  0  0  0  0  0  0
   -1.2839    3.7117    0.0000 C   0  0  0  0  0  0  0  0  0  0  0  0
   -0.0220    6.0123    0.0000 C   0  0  0  0  0  0  0  0  0  0  0  0
   -1.3000    0.7500    0.0000 C   0  0  0  0  0  0  0  0  0  0  0  0
    0.0000   -1.5000    0.0000 C   0  0  0  0  0  0  0  0  0  0  0  0
    5.1970    1.5006    0.0000 C   0  0  0  0  0  0  0  0  0  0  0  0
    3.8981    0.7504    0.0000 C   0  0  0  0  0  0  0  0  0  0  0  0
    2.5987    3.0002    0.0000 C   0  0  0  0  0  0  0  0  0  0  0  0
    1.2995    3.7500    0.0000 C   0  0  0  0  0  0  0  0  0  0  0  0
   -1.3172    5.2557    0.0000 C   0  0  0  0  0  0  0  0  0  0  0  0
    1.3000    0.7500    0.0000 C   0  0  0  0  0  0  0  0  0  0  0  0
    0.0000    1.5000    0.0000 N   0  0  0  0  0  0  0  0  0  0  0  0
    1.3000   -0.7500    0.0000 N   0  0  0  0  0  0  0  0  0  0  0  0
    6.4962    0.7508    0.0000 N   0  0  0  0  0  0  0  0  0  0  0  0
    2.5989    1.5002    0.0000 N   0  0  0  0  0  0  0  0  0  0  0  0
   -2.6261    5.9883    0.0000 O   0  0  0  0  0  0  0  0  0  0  0  0
  7  5  2  0
  8  6  1  0
  9  4  2  0
 10  4  1  0
 12 11  1  0
 14  5  1  0
 14  6  2  0
 14 13  1  0
 15  7  1  0
 15  8  2  0
 17  9  1  0
 17 16  2  0
 18 10  2  0
 18 16  1  0
 19  1  1  0
 19  2  1  0
 19 11  1  0
 20 12  1  0
 20 13  1  0
 20 16  1  0
 21  3  1  0
 21 15  1  0
M  END
>  <NAME>  (4590) 
THONZYLAMINE

>  <SYNONYMS>  (4590) 


>  <SPECTRUM TYPE>  (4590) 
MS1

>  <INSTRUMENT TYPE>  (4590) 
EI-B

>  <INSTRUMENT>  (4590) 
Unknown

>  <ION MODE>  (4590) 
P

>  <INCHIKEY>  (4590) 
GULNIHOSWFYMRN-UHFFFAOYSA-N

>  <FORMULA>  (4590) 
C16H22N4O

>  <EXACT MASS>  (4590) 
286.179361324

>  <MW>  (4590) 
286

>  <ID>  (4590) 
JP003843

>  <CONTRIBUTOR>  (4590) 
University of Tokyo Team, {Faculty of Engineering, University of Tokyo

>  <COMMENT>  (4590) 
SMILES=CN(C)CCN(Cc(c2)ccc(OC)c2)c(n1)nccc1
InChI=InChI=1S/C16H22N4O/c1-19(2)11-12-20(16-17-9-4-10-18-16)13-14-5-7-15(21-3)8-6-14/h4-10H,11-13H2,1-3H3
computed SMILES=N=1C=CC=NC1N(CC2=CC=C(OC)C=C2)CCN(C)C
accession=JP003843
date=2016.01.19 (Created 2008.10.21, modified 2011.05.06)
author=SASAKI S, TOYOHASHI UNIV. OF TECH.
license=CC BY-NC-SA
exact mass=286.17936
ionization energy=70 eV
ion type=[M]+*
computed spectral entropy=2.3524906719654224
computed normalized entropy=0.6916654366044958
SPLASH=splash10-05fr-9720000000-8a7d4d036feab1e4ee54
submitter=submitter = University of Tokyo Team (Faculty of Engineering, University of Tokyo)
MoNA Rating=3.75

>  <NUM PEAKS>  (4590) 
30

>  <MASS SPECTRAL PEAKS>  (4590) 
56 4.9
57 3.4
58 67.9
59 0.34
71 13.4
72 13.9
77 8.9
78 1.29
79 6.9
80 6.9
89 2.4
90 0.34
91 7.9
92 1.9
93 1.9
100 0.39
108 4.9
120 4.9
121 99.99
122 0.94
124 3.9
184 1.9
198 2.4
200 0.19
215 11.4
216 8.4
217 3.9
228 0.39
286 8.9
287 2.1

>  <PREDICTED SPECTRUM>  (4590) 
39 94
40 49
41 151
42 303
43 81
44 74
50 13
51 109
52 76
53 107
54 62
55 88
56 229
57 68
58 999
59 166
63 65
64 73
65 140
66 85
67 100
68 45
69 51
70 109
71 239
72 69
75 13
76 7
77 224
78 237
79 77
80 75
81 64
82 32
83 60
84 88
85 26
89 0
90 28
91 171
92 104
93 50
94 60
95 121
96 52
97 66
98 5
103 93
104 47
105 63
106 49
107 93
108 55
109 93
117 7
119 31
120 53
121 326
122 83
123 84
124 20
131 16
132 9
133 11
135 81
136 65
146 67
147 89
148 45
158 24
159 33
163 69
165 59
187 37
214 43
215 148
216 104
228 166
229 102
230 13
271 10
285 75
286 180
287 62

$$$$

     RDKit          2D

 14 15  0  0  0  0  0  0  0  0999 V2000
   -2.6377    0.8500    0.0000 C   0  0  0  0  0  0  0  0  0  0  0  0
    0.0000    2.7800    0.0000 C   0  0  0  0  0  0  0  0  0  0  0  0
    5.4932    1.7699    0.0000 C   0  0  0  0  0  0  0  0  0  0  0  0
    5.1780    0.3026    0.0000 C   0  0  0  0  0  0  0  0  0  0  0  0
    4.3807    2.7773    0.0000 C   0  0  0  0  0  0  0  0  0  0  0  0
    3.7502   -0.1574    0.0000 C   0  0  0  0  0  0  0  0  0  0  0  0
    2.9530    2.3173    0.0000 C   0  0  0  0  0  0  0  0  0  0  0  0
   -0.7500   -1.0300    0.0000 C   0  0  0  0  0  0  0  0  0  0  0  0
   -1.2100    0.3900    0.0000 C   0  0  0  0  0  0  0  0  0  0  0  0
    2.6377    0.8500    0.0000 C   0  0  0  0  0  0  0  0  0  0  0  0
    0.7500   -1.0300    0.0000 C   0  0  0  0  0  0  0  0  0  0  0  0
    0.0000    1.2800    0.0000 N   0  0  0  0  0  0  0  0  0  0  0  0
    1.2100    0.3900    0.0000 N   0  0  0  0  0  0  0  0  0  0  0  0
    1.6322   -2.2431    0.0000 O   0  0  0  0  0  0  0  0  0  0  0  0
  4  3  2  0
  5  3  1  0
  6  4  1  0
  7  5  2  0
  9  1  1  0
  9  8  2  0
 10  6  2  0
 10  7  1  0
 11  8  1  0
 12  2  1  0
 12  9  1  0
 13 10  1  0
 13 11  1  0
 13 12  1  0
 14 11  2  0
M  END
>  <NAME>  (4591) 
1,5-DIMETHYL-2-PHENYL-1,2-DIHYDRO-3H-PYRAZOL-3-ONE

>  <SYNONYMS>  (4591) 
ANTIPYRINE

>  <SPECTRUM TYPE>  (4591) 
MS1

>  <INSTRUMENT TYPE>  (4591) 
EI-B

>  <INSTRUMENT>  (4591) 
Unknown

>  <ION MODE>  (4591) 
P

>  <INCHIKEY>  (4591) 
VEQOALNAAJBPNY-UHFFFAOYSA-N

>  <FORMULA>  (4591) 
C11H12N2O

>  <EXACT MASS>  (4591) 
188.094963004

>  <MW>  (4591) 
188

>  <ID>  (4591) 
JP003842

>  <CONTRIBUTOR>  (4591) 
University of Tokyo Team, {Faculty of Engineering, University of Tokyo

>  <COMMENT>  (4591) 
SMILES=[H]C(=C(C)1)C(=O)N(c(c2)cccc2)N(C)1
InChI=InChI=1S/C11H12N2O/c1-9-8-11(14)13(12(9)2)10-6-4-3-5-7-10/h3-8H,1-2H3
computed SMILES=O=C1C=C(N(N1C=2C=CC=CC2)C)C
accession=JP003842
date=2016.01.19 (Created 2008.10.21, modified 2011.05.06)
author=SASAKI S, TOYOHASHI UNIV. OF TECH.
license=CC BY-NC-SA
exact mass=188.09496
ionization energy=70 eV
ion type=[M]+*
computed spectral entropy=3.7001059807086585
computed normalized entropy=0.7520569767424172
SPLASH=splash10-0550-9600000000-0c90aa2dd40a0fac3c48
submitter=submitter = University of Tokyo Team (Faculty of Engineering, University of Tokyo)
MoNA Rating=3.75

>  <NUM PEAKS>  (4591) 
137

>  <MASS SPECTRAL PEAKS>  (4591) 
25 1
26 4.1
27 18
28 4.2
29 4.3
30 2.9
31 0.2
32 0.14
36 0.6
37 2.4
38 6.7
39 2.63
40 10
41 14.7
42 11.9
43 0.07
44 2.9
45 0.8
46 0.6
47 0.04
48 0.3
49 1
50 6
51 0.24
52 5.8
53 2.8
54 6.5
55 0.26
56 48.2
57 3.4
58 0.9
59 0.02
60 0.4
61 1
62 1.9
63 0.65
64 10.3
65 8.1
66 3.1
67 0.74
68 6.9
69 4
70 1
71 0.01
72 0.6
73 0.9
74 1.8
75 0.17
76 3.6
77 63.4
78 7.2
79 0.19
80 1.3
81 1.4
82 10.6
83 0.27
84 13.6
85 1.7
86 0.2
87 0.04
88 0.9
89 1.4
90 1.9
91 1.27
92 7.4
93 16
94 3.9
95 0.14
96 63.5
97 5.1
98 2
99 0.04
100 0.3
101 0.5
102 2
103 0.04
104 7.6
105 24.2
106 14.7
107 0.22
108 0.4
109 0.2
110 0.1
111 0.19
112 0.4
113 0.2
114 0.1
115 0.97
116 5.2
117 5.1
118 5.4
119 0.37
120 1.4
121 2.9
122 0.4
127 0.07
128 3
129 5
130 5.8
131 0.34
132 3.2
133 1.6
134 0.9
135 0.09
141 0.4
142 2.7
143 2
144 0.44
145 5.2
146 3.1
147 1.4
148 0.08
149 0.7
154 0.4
155 0.8
156 0.13
157 2.4
158 2.8
159 8.9
160 0.34
161 1
162 0.9
169 1
170 0.14
171 1.6
172 1.3
173 8
174 0.58
175 1.4
176 0.4
185 1.1
186 0.01
187 18.6
188 99.99
189 15.5
190 0.02
191 0.4

>  <PREDICTED SPECTRUM>  (4591) 
14 6
15 42
17 15
18 23
25 7
26 86
27 153
28 131
29 77
30 45
33 17
34 5
37 119
38 216
39 495
40 278
41 387
42 405
43 152
44 105
45 8
49 20
50 308
51 612
52 285
53 110
54 211
55 255
56 291
57 120
58 38
61 45
62 141
63 296
64 297
65 318
66 184
67 176
68 318
69 386
70 177
71 28
74 132
75 96
76 119
77 837
78 320
79 20
80 12
81 59
82 86
83 181
84 118
85 71
87 15
88 14
89 136
90 181
91 415
92 241
93 312
94 127
96 460
97 284
98 67
102 81
103 147
104 327
105 275
106 156
111 169
115 72
116 125
117 262
118 309
119 251
128 3
129 115
130 155
131 174
132 193
133 54
143 14
144 57
145 126
146 28
147 40
158 11
159 313
160 232
161 122
162 6
173 16
174 2
187 351
188 999
189 360
190 87

$$$$

     RDKit          2D

 16 17  0  0  0  0  0  0  0  0999 V2000
   -3.2899    2.4204    0.0000 C   0  0  0  0  0  0  0  0  0  0  0  0
   -1.8127    2.1596    0.0000 C   0  0  0  0  0  0  0  0  0  0  0  0
   -5.7317   -0.0309    0.0000 C   0  0  0  0  0  0  0  0  0  0  0  0
   -4.7675   -1.1811    0.0000 C   0  0  0  0  0  0  0  0  0  0  0  0
   -5.2187    1.3795    0.0000 C   0  0  0  0  0  0  0  0  0  0  0  0
   -3.2903   -0.9207    0.0000 C   0  0  0  0  0  0  0  0  0  0  0  0
   -3.7415    1.6398    0.0000 C   0  0  0  0  0  0  0  0  0  0  0  0
    1.3000    0.7500    0.0000 C   0  0  0  0  0  0  0  0  0  0  0  0
   -0.0000    1.5000    0.0000 C   0  0  0  0  0  0  0  0  0  0  0  0
   -2.7772    0.4897    0.0000 C   0  0  0  0  0  0  0  0  0  0  0  0
    1.3000   -0.7500    0.0000 C   0  0  0  0  0  0  0  0  0  0  0  0
   -1.3000   -0.7500    0.0000 C   0  0  0  0  0  0  0  0  0  0  0  0
   -1.3000    0.7500    0.0000 C   0  0  0  0  0  0  0  0  0  0  0  0
   -0.0000   -1.5000    0.0000 N   0  0  0  0  0  0  0  0  0  0  0  0
    2.5989   -1.5002    0.0000 O   0  0  0  0  0  0  0  0  0  0  0  0
   -2.5989   -1.5002    0.0000 O   0  0  0  0  0  0  0  0  0  0  0  0
  2  1  1  0
  4  3  2  0
  5  3  1  0
  6  4  1  0
  7  5  2  0
  9  8  1  0
 10  6  2  0
 10  7  1  0
 11  8  1  0
 13  2  1  0
 13  9  1  0
 13 10  1  0
 13 12  1  0
 14 11  2  0
 14 12  1  0
 15 11  1  0
 16 12  2  0
M  END
>  <NAME>  (4592) 
3-ETHYL-3-PHENYL-2,6-PIPERIDINEDIONE

>  <SYNONYMS>  (4592) 
GLUTETHIMIDE

>  <SPECTRUM TYPE>  (4592) 
MS1

>  <INSTRUMENT TYPE>  (4592) 
EI-B

>  <INSTRUMENT>  (4592) 
Unknown

>  <ION MODE>  (4592) 
P

>  <INCHIKEY>  (4592) 
JMBQKKAJIKAWKF-UHFFFAOYSA-N

>  <FORMULA>  (4592) 
C13H15NO2

>  <EXACT MASS>  (4592) 
217.11027872

>  <MW>  (4592) 
217

>  <ID>  (4592) 
JP003840

>  <CONTRIBUTOR>  (4592) 
University of Tokyo Team, {Faculty of Engineering, University of Tokyo

>  <COMMENT>  (4592) 
SMILES=CCC(C2)(C(=O)NC(=O)C2)c(c1)cccc1
InChI=InChI=1S/C13H15NO2/c1-2-13(10-6-4-3-5-7-10)9-8-11(15)14-12(13)16/h3-7H,2,8-9H2,1H3,(H,14,15,16)
computed SMILES=O=C1N=C(O)CCC1(C=2C=CC=CC2)CC
accession=JP003840
date=2016.01.19 (Created 2008.10.21, modified 2011.05.06)
author=SASAKI S, TOYOHASHI UNIV. OF TECH.
license=CC BY-NC-SA
exact mass=217.11028
ionization energy=70 eV
ion type=[M]+*
computed spectral entropy=3.546584728792307
computed normalized entropy=0.777018881999835
SPLASH=splash10-014r-4900000000-8d3add816c0b57475d49
submitter=submitter = University of Tokyo Team (Faculty of Engineering, University of Tokyo)
MoNA Rating=3.75

>  <NUM PEAKS>  (4592) 
96

>  <MASS SPECTRAL PEAKS>  (4592) 
38 2.4
39 28.1
40 3.6
41 1.27
42 7.9
43 2.4
44 6.4
45 0.09
50 8.4
51 25.8
52 7.4
53 0.84
54 7.4
55 8.9
56 1.9
57 0.19
58 2.9
59 5.1
62 4
63 1.44
64 4.9
65 14.9
66 2.4
67 0.29
68 1.4
69 1.4
70 2.4
71 0.11
72 0.9
73 1.4
74 3.4
75 0.47
76 6
77 30.4
78 15.1
79 0.44
80 1.4
82 4.4
86 1.1
87 0.29
88 1.9
89 13.9
90 3.7
91 4.79
92 4.9
101 1.9
102 9.9
103 2.69
104 9.7
105 6.9
106 1.9
112 0.09
113 1.9
114 2.7
115 51.4
116 1.69
117 99.99
118 14.9
119 2.4
120 0.09
126 1.2
127 3.7
128 8
129 0.99
130 5.9
131 11.9
132 55.5
133 0.69
134 0.9
140 0.9
141 1.4
142 0.11
143 1.9
144 2.9
145 4.4
146 0.69
147 3.9
148 0.9
157 4.9
158 0.11
159 2.9
160 44.9
161 10.9
162 0.19
172 2.9
173 1.1
174 2.4
175 0.11
188 3.9
189 89
190 11.9
191 0.19
202 4.4
203 0.9
217 9.2
218 1.9

>  <PREDICTED SPECTRUM>  (4592) 
15 16
26 30
27 106
28 44
29 101
30 6
31 0
37 8
38 63
39 253
40 86
41 150
42 131
43 153
44 23
45 43
46 15
50 183
51 363
52 146
53 126
54 58
55 222
56 94
57 179
58 106
62 124
63 256
64 157
65 235
66 71
67 8
69 83
70 127
71 29
72 26
74 100
75 194
76 189
77 567
78 297
79 176
80 17
83 1
85 43
86 31
87 41
89 242
90 169
91 486
92 151
93 9
101 0
102 184
103 356
104 277
105 197
106 31
113 6
114 52
115 649
116 233
117 523
118 178
119 102
120 119
121 113
122 4
123 9
127 86
128 171
129 166
130 227
131 460
132 954
133 168
134 78
135 15
140 1
141 33
142 224
143 74
144 44
145 49
146 108
147 94
148 107
156 50
159 11
160 999
161 350
162 85
170 59
171 48
172 69
174 33
175 30
188 294
189 549
190 205
191 49
202 33
217 206
218 75

$$$$

     RDKit          2D

 16 16  0  0  0  0  0  0  0  0999 V2000
    3.4903   -3.0591    0.0000 C   0  0  0  0  0  0  0  0  0  0  0  0
    0.5975   -2.9528    0.0000 C   0  0  0  0  0  0  0  0  0  0  0  0
    0.5970    0.3874    0.0000 C   0  0  0  0  0  0  0  0  0  0  0  0
    2.5258   -1.9103    0.0000 C   0  0  0  0  0  0  0  0  0  0  0  0
   -0.8797   -2.6925    0.0000 C   0  0  0  0  0  0  0  0  0  0  0  0
    1.0487   -2.1711    0.0000 C   0  0  0  0  0  0  0  0  0  0  0  0
    0.0842   -1.0222    0.0000 C   0  0  0  0  0  0  0  0  0  0  0  0
   -2.6919   -2.0330    0.0000 C   0  0  0  0  0  0  0  0  0  0  0  0
   -1.3934    0.2178    0.0000 C   0  0  0  0  0  0  0  0  0  0  0  0
   -3.9919    0.2187    0.0000 C   0  0  0  0  0  0  0  0  0  0  0  0
   -1.3929   -1.2830    0.0000 C   0  0  0  0  0  0  0  0  0  0  0  0
   -3.9915   -1.2822    0.0000 N   0  0  0  0  0  0  0  0  0  0  0  0
   -2.6929    0.9687    0.0000 N   0  0  0  0  0  0  0  0  0  0  0  0
   -2.6922   -3.5330    0.0000 O   0  0  0  0  0  0  0  0  0  0  0  0
   -0.0944    0.9678    0.0000 O   0  0  0  0  0  0  0  0  0  0  0  0
   -5.2911    0.9685    0.0000 O   0  0  0  0  0  0  0  0  0  0  0  0
  4  1  1  0
  5  2  1  0
  6  4  1  0
  7  3  1  0
  7  6  1  0
 11  5  1  0
 11  7  1  0
 11  8  1  0
 11  9  1  0
 12  8  2  0
 12 10  1  0
 13  9  2  0
 13 10  1  0
 14  8  1  0
 15  9  1  0
 16 10  2  0
M  END
>  <NAME>  (4593) 
5-ETHYL-5-(1-METHYLBUTYL)-BARBITURIC ACID

>  <SYNONYMS>  (4593) 
PENTOBARBITAL

>  <SPECTRUM TYPE>  (4593) 
MS1

>  <INSTRUMENT TYPE>  (4593) 
EI-B

>  <INSTRUMENT>  (4593) 
Unknown

>  <ION MODE>  (4593) 
P

>  <INCHIKEY>  (4593) 
WEXRUCMBJFQVBZ-UHFFFAOYSA-N

>  <FORMULA>  (4593) 
C11H18N2O3

>  <EXACT MASS>  (4593) 
226.13174243599997

>  <MW>  (4593) 
226

>  <ID>  (4593) 
JP003839

>  <CONTRIBUTOR>  (4593) 
University of Tokyo Team, {Faculty of Engineering, University of Tokyo

>  <COMMENT>  (4593) 
SMILES=CCCC(C)C(CC)(C(=O)1)C(=O)NC(=O)N1
InChI=InChI=1S/C11H18N2O3/c1-4-6-7(3)11(5-2)8(14)12-10(16)13-9(11)15/h7H,4-6H2,1-3H3,(H2,12,13,14,15,16)
computed SMILES=O=C1N=C(O)C(C(O)=N1)(CC)C(C)CCC
accession=JP003839
date=2016.01.19 (Created 2008.10.21, modified 2011.05.06)
author=SASAKI S, TOYOHASHI UNIV. OF TECH.
license=CC BY-NC-SA
exact mass=226.13174
ionization energy=70 eV
ion type=[M]+*
computed spectral entropy=2.620916900996136
computed normalized entropy=0.6665903185488231
SPLASH=splash10-0a4l-5900000000-08245bcc95f52792c863
submitter=submitter = University of Tokyo Team (Faculty of Engineering, University of Tokyo)
MoNA Rating=3.75

>  <NUM PEAKS>  (4593) 
51

>  <MASS SPECTRAL PEAKS>  (4593) 
39 7.4
40 2.3
41 22.7
42 0.51
43 30.3
44 3.9
52 1.1
53 0.39
54 1.9
55 10.9
56 2.2
57 0.13
65 1.2
66 1.2
67 3.1
68 0.19
69 6.9
70 3.1
71 7.9
72 0.12
79 1.1
80 1.7
81 1.4
82 0.09
83 1.9
84 1.4
85 2.4
94 0.14
95 1.4
96 1.4
97 3.6
98 0.69
109 0.9
110 0.9
112 3.5
113 0.19
114 1.2
127 1.3
128 1.4
140 0.09
141 55.8
142 4.2
143 1.1
154 0.09
155 6.9
156 99.99
157 22.2
158 0.27
197 4.9
198 1.1
226 1.1

>  <PREDICTED SPECTRUM>  (4593) 
27 84
28 19
29 49
38 32
39 275
40 192
41 689
42 462
43 755
44 182
45 132
50 17
51 64
52 216
53 323
54 258
55 605
56 214
57 180
58 93
59 78
65 46
66 104
67 136
68 359
69 516
70 517
71 512
72 150
73 167
74 28
77 62
78 83
80 148
81 91
82 305
83 428
84 242
85 274
86 127
88 16
96 6
97 143
98 168
99 230
100 108
109 109
111 199
112 194
113 261
114 130
115 173
124 6
125 220
126 143
127 271
128 353
129 76
137 52
139 18
140 58
141 292
142 33
153 186
154 78
155 689
156 999
157 342
158 72
165 7
168 67
169 254
181 32
182 16
183 176
184 0
197 300
198 104
211 88
225 22
226 397
227 124

$$$$

     RDKit          2D

 18 19  0  0  0  0  0  0  0  0999 V2000
    0.8563   -4.5154    0.0000 C   0  0  0  0  0  0  0  0  0  0  0  0
   -0.6209   -4.2551    0.0000 C   0  0  0  0  0  0  0  0  0  0  0  0
    3.4486   -1.2749    0.0000 C   0  0  0  0  0  0  0  0  0  0  0  0
    3.7094   -2.7521    0.0000 C   0  0  0  0  0  0  0  0  0  0  0  0
    2.1311   -0.5578    0.0000 C   0  0  0  0  0  0  0  0  0  0  0  0
    2.7171   -3.8770    0.0000 C   0  0  0  0  0  0  0  0  0  0  0  0
    0.7490   -1.1408    0.0000 C   0  0  0  0  0  0  0  0  0  0  0  0
    1.2189   -3.8025    0.0000 C   0  0  0  0  0  0  0  0  0  0  0  0
    0.3431   -2.5848    0.0000 C   0  0  0  0  0  0  0  0  0  0  0  0
   -2.4331   -3.5956    0.0000 C   0  0  0  0  0  0  0  0  0  0  0  0
   -1.1346   -1.3448    0.0000 C   0  0  0  0  0  0  0  0  0  0  0  0
   -3.7331   -1.3439    0.0000 C   0  0  0  0  0  0  0  0  0  0  0  0
   -1.1341   -2.8456    0.0000 C   0  0  0  0  0  0  0  0  0  0  0  0
   -3.7327   -2.8448    0.0000 N   0  0  0  0  0  0  0  0  0  0  0  0
   -2.4341   -0.5939    0.0000 N   0  0  0  0  0  0  0  0  0  0  0  0
   -2.4334   -5.0956    0.0000 O   0  0  0  0  0  0  0  0  0  0  0  0
    0.1645   -0.5948    0.0000 O   0  0  0  0  0  0  0  0  0  0  0  0
   -5.0323   -0.5941    0.0000 O   0  0  0  0  0  0  0  0  0  0  0  0
  2  1  1  0
  4  3  1  0
  5  3  1  0
  6  4  1  0
  7  5  1  0
  8  6  1  0
  9  7  2  0
  9  8  1  0
 13  2  1  0
 13  9  1  0
 13 10  1  0
 13 11  1  0
 14 10  2  0
 14 12  1  0
 15 11  2  0
 15 12  1  0
 16 10  1  0
 17 11  1  0
 18 12  2  0
M  END
>  <NAME>  (4594) 
5-(1-CYCLOHEPTENYL)-5-ETHYL-BARBITURIC ACID

>  <SYNONYMS>  (4594) 
HEPTABARBITAL

>  <SPECTRUM TYPE>  (4594) 
MS1

>  <INSTRUMENT TYPE>  (4594) 
EI-B

>  <INSTRUMENT>  (4594) 
Unknown

>  <ION MODE>  (4594) 
P

>  <INCHIKEY>  (4594) 
PAZQYDJGLKSCSI-UHFFFAOYSA-N

>  <FORMULA>  (4594) 
C13H18N2O3

>  <EXACT MASS>  (4594) 
250.13174243599997

>  <MW>  (4594) 
250

>  <ID>  (4594) 
JP003838

>  <CONTRIBUTOR>  (4594) 
University of Tokyo Team, {Faculty of Engineering, University of Tokyo

>  <COMMENT>  (4594) 
SMILES=CCC(C(=O)2)(C(=O)NC(=O)N2)C(C1)=CCCCC1
InChI=InChI=1S/C13H18N2O3/c1-2-13(9-7-5-3-4-6-8-9)10(16)14-12(18)15-11(13)17/h7H,2-6,8H2,1H3,(H2,14,15,16,17,18)
computed SMILES=O=C1N=C(O)C(C(O)=N1)(C2=CCCCCC2)CC
accession=JP003838
date=2016.01.19 (Created 2008.10.21, modified 2011.05.06)
author=SASAKI S, TOYOHASHI UNIV. OF TECH.
license=CC BY-NC-SA
exact mass=250.13174
ionization energy=70 eV
ion type=[M]+*
computed spectral entropy=3.0301807146508333
computed normalized entropy=0.6975866597076367
SPLASH=splash10-00di-7490000000-252904343000182d024d
submitter=submitter = University of Tokyo Team (Faculty of Engineering, University of Tokyo)
MoNA Rating=3.75

>  <NUM PEAKS>  (4594) 
77

>  <MASS SPECTRAL PEAKS>  (4594) 
39 4.9
40 1.8
41 7.9
42 0.19
43 1.9
44 2
50 0.9
51 0.21
52 1.9
53 4.7
54 2
55 0.49
56 0.9
63 0.9
64 0.9
65 0.35
66 2.9
67 6.7
68 1.9
69 0.19
70 1.9
77 5.9
78 2.4
79 1.09
80 2.9
81 12.9
82 1.9
83 0.09
91 4.9
92 1.9
93 7.1
94 0.39
95 6.8
96 1.4
97 1.9
98 0.39
103 1.9
104 0.9
105 2.7
112 0.19
117 1.1
118 0.9
119 1.1
121 0.14
122 1.9
123 0.9
124 0.9
129 0.09
132 0.9
133 1.6
134 0.9
135 0.19
136 1.9
141 18.9
142 1.9
150 0.19
153 0.9
155 4.7
156 1.9
157 0.29
160 1.6
161 2.9
162 0.9
164 0.09
165 0.9
167 1.6
178 2.6
179 0.24
193 1.4
204 0.9
205 0.9
207 0.09
221 99.99
222 14.9
223 2.4
249 0.14
250 1.4

>  <PREDICTED SPECTRUM>  (4594) 
33 18
38 51
39 411
40 247
41 750
42 503
43 478
44 166
45 209
46 0
49 5
50 151
51 324
52 273
53 515
54 394
55 831
56 255
57 189
58 124
59 91
60 46
62 24
63 144
64 112
65 334
66 313
67 742
68 435
69 402
70 218
71 135
73 118
74 11
75 75
76 95
77 400
78 221
79 475
80 299
81 455
82 366
83 369
84 249
85 158
86 47
87 38
88 66
89 16
91 297
92 120
93 332
94 189
95 387
96 224
97 265
98 220
99 131
101 51
103 45
104 4
105 161
106 114
107 363
108 269
109 387
110 211
111 95
112 105
113 144
115 101
117 132
118 41
119 132
120 143
121 315
122 360
123 321
124 150
125 166
126 181
127 292
128 210
129 83
131 18
132 4
133 110
134 103
135 304
136 235
137 222
138 220
139 247
140 202
141 112
142 90
147 184
148 111
149 200
150 203
151 295
152 169
153 171
154 107
155 159
156 10
161 274
162 325
163 229
164 233
165 238
166 154
167 128
168 62
169 13
175 79
176 246
177 190
178 47
179 315
180 205
181 159
182 19
189 39
190 35
191 55
192 120
193 257
194 124
195 32
203 271
204 116
205 220
206 73
207 305
208 186
209 54
221 999
222 587
223 209
232 0
233 93
235 204
236 7
248 33
249 341
250 703
251 287
252 47

$$$$

     RDKit          2D

 16 16  0  0  0  0  0  0  0  0999 V2000
    0.2130   -3.6188    0.0000 C   0  0  0  0  0  0  0  0  0  0  0  0
    3.1057   -3.7252    0.0000 C   0  0  0  0  0  0  0  0  0  0  0  0
    2.6540   -1.1667    0.0000 C   0  0  0  0  0  0  0  0  0  0  0  0
   -1.2643   -3.3585    0.0000 C   0  0  0  0  0  0  0  0  0  0  0  0
    0.6641   -2.8371    0.0000 C   0  0  0  0  0  0  0  0  0  0  0  0
   -0.3003   -1.6883    0.0000 C   0  0  0  0  0  0  0  0  0  0  0  0
    2.1413   -2.5763    0.0000 C   0  0  0  0  0  0  0  0  0  0  0  0
   -3.0765   -2.6990    0.0000 C   0  0  0  0  0  0  0  0  0  0  0  0
   -1.7779   -0.4482    0.0000 C   0  0  0  0  0  0  0  0  0  0  0  0
   -4.3765   -0.4474    0.0000 C   0  0  0  0  0  0  0  0  0  0  0  0
   -1.7775   -1.9490    0.0000 C   0  0  0  0  0  0  0  0  0  0  0  0
   -4.3760   -1.9482    0.0000 N   0  0  0  0  0  0  0  0  0  0  0  0
   -3.0775    0.3026    0.0000 N   0  0  0  0  0  0  0  0  0  0  0  0
   -3.0767   -4.1990    0.0000 O   0  0  0  0  0  0  0  0  0  0  0  0
   -0.4789    0.3018    0.0000 O   0  0  0  0  0  0  0  0  0  0  0  0
   -5.6757    0.3024    0.0000 O   0  0  0  0  0  0  0  0  0  0  0  0
  4  1  1  0
  6  5  1  0
  7  2  1  0
  7  3  1  0
  7  5  1  0
 11  4  1  0
 11  6  1  0
 11  8  1  0
 11  9  1  0
 12  8  2  0
 12 10  1  0
 13  9  2  0
 13 10  1  0
 14  8  1  0
 15  9  1  0
 16 10  2  0
M  END
>  <NAME>  (4595) 
5-ETHYL-5-ISOPENTYL-BARBITURIC ACID

>  <SYNONYMS>  (4595) 
AMOBARBITAL

>  <SPECTRUM TYPE>  (4595) 
MS1

>  <INSTRUMENT TYPE>  (4595) 
EI-B

>  <INSTRUMENT>  (4595) 
Unknown

>  <ION MODE>  (4595) 
P

>  <INCHIKEY>  (4595) 
VIROVYVQCGLCII-UHFFFAOYSA-N

>  <FORMULA>  (4595) 
C11H18N2O3

>  <EXACT MASS>  (4595) 
226.13174243599997

>  <MW>  (4595) 
226

>  <ID>  (4595) 
JP003837

>  <CONTRIBUTOR>  (4595) 
University of Tokyo Team, {Faculty of Engineering, University of Tokyo

>  <COMMENT>  (4595) 
SMILES=CC(C)CCC(CC)(C(=O)1)C(=O)NC(=O)N1
InChI=InChI=1S/C11H18N2O3/c1-4-11(6-5-7(2)3)8(14)12-10(16)13-9(11)15/h7H,4-6H2,1-3H3,(H2,12,13,14,15,16)
computed SMILES=O=C1N=C(O)C(C(O)=N1)(CC)CCC(C)C
accession=JP003837
date=2016.01.19 (Created 2008.10.21, modified 2011.05.06)
author=SASAKI S, TOYOHASHI UNIV. OF TECH.
license=CC BY-NC-SA
exact mass=226.13174
ionization energy=70 eV
ion type=[M]+*
computed spectral entropy=2.8249702907845604
computed normalized entropy=0.6649343190559561
SPLASH=splash10-0a4l-3900000000-4b439f0aa2820ea498c7
submitter=submitter = University of Tokyo Team (Faculty of Engineering, University of Tokyo)
MoNA Rating=3.75

>  <NUM PEAKS>  (4595) 
70

>  <MASS SPECTRAL PEAKS>  (4595) 
38 0.9
39 5.4
40 1.9
41 1.59
42 3.5
43 11.4
44 3.2
45 0.09
51 0.9
52 0.9
53 2.9
54 0.24
55 9.4
56 3.7
57 3.9
65 0.09
66 0.9
67 2.1
68 1.4
69 0.69
70 3.9
71 3.9
72 0.9
77 0.09
79 1.1
80 1.9
81 1.4
82 0.09
83 2.8
84 0.9
85 1.9
86 0.09
93 0.9
94 1.2
95 1
96 0.01
97 3.1
98 6.7
99 0.9
111 0.08
112 5.7
113 1.1
114 1.7
126 0.11
127 1.2
128 1.4
129 1.4
140 0.09
141 53.9
142 10.7
143 1.6
154 0.09
155 5.4
156 99.99
157 19.5
158 0.34
159 0.9
169 0.9
181 1.2
183 0.67
184 1.1
185 0.9
197 9.9
198 0.69
199 1.1
211 2.4
212 0.9
225 0.03
226 0.3
227 0.4

>  <PREDICTED SPECTRUM>  (4595) 
27 64
28 1
29 61
33 18
34 2
38 25
39 247
40 233
41 804
42 495
43 924
44 344
45 180
46 57
50 36
51 124
52 214
53 352
54 231
55 642
56 374
57 436
58 168
59 53
65 79
66 98
67 229
68 369
69 609
70 537
71 401
72 200
73 227
74 43
77 79
78 100
79 44
80 107
81 140
82 276
83 358
84 318
85 271
86 221
87 185
88 44
89 53
93 4
94 47
95 44
96 78
97 140
98 144
99 268
100 150
101 106
103 2
108 44
109 149
110 145
111 135
112 249
113 281
114 211
115 157
116 11
123 12
124 28
125 104
126 154
127 181
128 292
129 59
137 144
138 101
139 144
140 169
141 428
142 152
151 24
152 23
153 90
154 53
155 364
156 999
157 336
158 108
165 27
166 7
168 35
169 336
170 153
171 3
180 10
181 110
182 48
183 149
184 113
197 233
198 164
199 66
209 92
210 43
211 227
212 32
225 79
226 442
227 159
228 7

$$$$

     RDKit          2D

 21 23  0  0  0  0  0  0  0  0999 V2000
   -2.7430   -3.9182    0.0000 C   0  0  0  0  0  0  0  0  0  0  0  0
    0.1096    6.0776    0.0000 C   0  0  0  0  0  0  0  0  0  0  0  0
   -1.3245    5.6351    0.0000 C   0  0  0  0  0  0  0  0  0  0  0  0
    1.2106    5.0575    0.0000 C   0  0  0  0  0  0  0  0  0  0  0  0
   -1.6577    4.1726    0.0000 C   0  0  0  0  0  0  0  0  0  0  0  0
    0.8773    3.5950    0.0000 C   0  0  0  0  0  0  0  0  0  0  0  0
    2.8800   -0.7500    0.0000 C   0  0  0  0  0  0  0  0  0  0  0  0
    1.5800   -1.5000    0.0000 C   0  0  0  0  0  0  0  0  0  0  0  0
    1.5800    1.5000    0.0000 C   0  0  0  0  0  0  0  0  0  0  0  0
   -3.0000    0.0000    0.0000 C   0  0  0  0  0  0  0  0  0  0  0  0
   -0.5568    3.1525    0.0000 C   0  0  0  0  0  0  0  0  0  0  0  0
    2.8800    0.7500    0.0000 C   0  0  0  0  0  0  0  0  0  0  0  0
    0.2800    0.7500    0.0000 C   0  0  0  0  0  0  0  0  0  0  0  0
    0.2800   -0.7500    0.0000 C   0  0  0  0  0  0  0  0  0  0  0  0
   -2.3500   -1.3500    0.0000 C   0  0  0  0  0  0  0  0  0  0  0  0
   -0.8900    1.6900    0.0000 C   0  0  0  0  0  0  0  0  0  0  0  0
    4.1789    1.5002    0.0000 Cl  0  0  0  0  0  0  0  0  0  0  0  0
   -3.2879   -2.5207    0.0000 N   0  0  0  0  0  0  0  0  0  0  0  0
   -0.8900   -1.6900    0.0000 N   0  0  0  0  0  0  0  0  0  0  0  0
   -2.3500    1.3500    0.0000 N   0  0  0  0  0  0  0  0  0  0  0  0
   -3.2879    2.5207    0.0000 O   0  0  0  0  0  0  0  0  0  0  0  0
  3  2  2  0
  4  2  1  0
  5  3  1  0
  6  4  2  0
  8  7  2  0
 11  5  2  0
 11  6  1  0
 12  7  1  0
 12  9  2  0
 13  9  1  0
 14  8  1  0
 14 13  2  0
 15 10  1  0
 16 11  1  0
 16 13  1  0
 17 12  1  0
 18  1  1  0
 18 15  2  3
 19 14  1  0
 19 15  1  0
 20 10  1  0
 20 16  2  0
 21 20  1  0
M  CHG  2  20   1  21  -1
M  END
>  <NAME>  (4596) 
LIBRIUM

>  <SYNONYMS>  (4596) 
CHLORDIAZEPOXIDE

>  <SPECTRUM TYPE>  (4596) 
MS1

>  <INSTRUMENT TYPE>  (4596) 
EI-B

>  <INSTRUMENT>  (4596) 
Unknown

>  <ION MODE>  (4596) 
P

>  <INCHIKEY>  (4596) 
ANTSCNMPPGJYLG-UHFFFAOYSA-N

>  <FORMULA>  (4596) 
C16H14ClN3O

>  <EXACT MASS>  (4596) 
299.08253974800004

>  <MW>  (4596) 
299

>  <ID>  (4596) 
JP003835

>  <CONTRIBUTOR>  (4596) 
University of Tokyo Team, {Faculty of Engineering, University of Tokyo

>  <COMMENT>  (4596) 
SMILES=CNC(C2)=Nc(c3)c(cc(Cl)c3)C(=[N+1]([O-1])2)c(c1)cccc1
InChI=InChI=1S/C16H14ClN3O/c1-18-15-10-20(21)16(11-5-3-2-4-6-11)13-9-12(17)7-8-14(13)19-15/h2-9H,10H2,1H3,(H,18,19)
computed SMILES=O=N1=C(C=2C=CC=CC2)C=3C=C(Cl)C=CC3NC(=NC)C1
accession=JP003835
date=2016.01.19 (Created 2008.10.21, modified 2011.05.06)
author=SASAKI S, TOYOHASHI UNIV. OF TECH.
license=CC BY-NC-SA
exact mass=299.08254
ionization energy=70 eV
ion type=[M]+*
computed spectral entropy=4.678757337300538
computed normalized entropy=0.8530411233151828
SPLASH=splash10-001i-5590000000-a20477457b7e9f8a22ea
submitter=submitter = University of Tokyo Team (Faculty of Engineering, University of Tokyo)
MoNA Rating=3.75

>  <NUM PEAKS>  (4596) 
241

>  <MASS SPECTRAL PEAKS>  (4596) 
36 4.9
37 0.9
38 2.9
39 0.89
40 8.9
41 18.9
42 10.9
43 0.79
44 14.9
45 1.9
49 0.9
50 0.39
51 10.9
52 2.9
53 1.9
54 0.59
55 12.4
56 19.9
57 7.9
58 0.54
59 1.9
60 2.9
61 0.9
62 0.29
63 6.9
64 2.9
65 5.9
66 0.19
67 2.9
68 2.9
69 4.9
70 0.29
71 2.9
72 0.9
73 2.9
74 0.29
75 9.9
76 7.9
77 22.9
78 0.39
79 2.9
80 1.9
81 3.9
82 0.49
83 3.9
84 1.9
85 1.9
86 0.19
87 2.9
88 4.9
89 10.9
90 0.49
91 18.9
92 2.9
93 2.9
94 0.19
95 2.9
96 3.9
97 3.9
98 0.29
99 2.9
100 3.9
101 3.4
102 0.69
103 6.9
104 4.9
105 6.9
106 0.29
107 1.9
108 1.9
109 4.9
110 0.49
111 4.9
112 2.9
113 2.9
114 0.39
115 3.9
116 4.9
117 4.9
118 0.59
119 1.9
120 3.9
121 2.9
122 0.19
123 3.9
124 10.9
125 3.9
126 0.49
127 3.9
128 2.9
129 2.9
130 0.19
131 1.9
132 2.9
133 0.9
134 0.19
135 1.9
136 2.9
137 2.9
138 0.49
139 3.9
140 2.9
141 2.9
142 0.29
143 2.9
144 1.9
145 1.9
146 0.09
147 1.9
148 0.9
149 10.9
150 0.59
151 9.9
152 6.9
153 3.9
154 0.19
155 0.9
156 0.9
157 0.9
158 0.09
159 0.9
160 0.9
161 0.9
162 0.29
163 9.9
164 7.9
165 10.9
166 0.39
167 2.9
168 1.9
169 1.4
170 0.09
171 1.9
172 0.9
173 0.9
174 0.09
175 1.9
176 3.9
177 7.9
178 0.59
179 7.9
180 4.9
181 2.9
182 0.09
186 1.9
187 1.9
188 2.9
189 0.29
190 6.9
191 4.9
192 3.9
193 0.49
194 2.9
195 1.9
196 0.9
197 0.09
198 0.9
199 3.9
200 1.9
201 0.29
202 1.9
203 3.9
204 3.9
205 0.99
206 4.9
207 2.9
208 1.9
209 0.09
210 0.9
211 0.9
212 0.9
213 0.29
214 5.9
215 3.9
216 4.9
217 0.39
218 9.9
219 10.9
220 11.9
221 0.39
222 1.9
223 1.9
224 1.9
226 0.29
227 6.9
228 2.9
229 4.9
230 0.29
231 1.9
232 2.9
233 2.9
234 0.19
235 1.4
236 0.9
237 0.9
238 0.19
239 6.9
240 4.9
241 16.9
242 0.69
243 6.9
244 3.9
245 1.9
246 0.49
247 11.9
248 4.9
249 0.9
251 0.19
252 5.9
253 12.9
254 7.4
255 0.89
256 3.9
257 3.9
258 1.9
259 0.19
264 1.9
265 1.9
266 3.9
267 0.49
268 5.9
269 4.9
270 3.9
271 0.19
272 0.9
273 0.9
279 0.9
280 0.49
281 3.9
282 99.99
283 71.9
284 4.39
285 23.9
286 4.9
287 0.9
298 0.89
299 34.9
300 9.9
301 12.9
302 0.29
303 0.9

>  <PREDICTED SPECTRUM>  (4596) 
34 2
36 8
38 15
39 75
40 30
41 32
43 82
44 52
45 25
49 37
50 164
51 321
52 162
53 62
54 25
55 66
56 15
57 56
58 42
59 21
60 19
61 52
62 144
63 238
64 109
65 86
66 35
67 57
68 37
69 105
70 13
72 24
73 132
74 176
75 264
76 230
77 481
78 164
79 56
80 27
81 81
82 132
83 87
84 70
85 60
86 103
87 164
88 184
89 270
90 157
91 124
92 45
93 62
94 52
95 97
96 113
97 66
98 100
99 137
100 139
101 122
102 199
103 196
104 177
105 138
106 31
107 44
108 3
109 115
110 163
111 142
112 108
113 138
114 142
115 127
116 125
117 159
118 67
119 27
121 1
122 3
123 84
124 149
125 147
126 232
127 136
128 68
129 42
130 86
131 115
132 96
133 32
134 10
135 23
136 63
137 105
138 201
139 213
140 218
141 61
142 9
143 49
144 41
145 45
149 55
150 152
151 260
152 263
153 170
154 100
155 27
157 10
159 7
162 90
163 294
164 294
165 238
166 179
167 105
168 98
169 55
175 35
176 177
177 274
178 196
179 286
180 179
181 144
182 25
186 0
187 23
188 102
189 125
190 211
191 180
192 181
193 120
194 103
195 58
196 37
198 7
199 72
200 50
201 105
202 83
203 200
204 209
205 361
206 185
207 131
208 124
209 70
213 39
214 108
215 129
216 244
217 279
218 314
219 143
220 206
221 59
222 66
224 55
225 3
226 31
227 96
228 81
229 129
230 85
231 90
232 115
233 131
234 205
235 238
236 112
237 0
238 36
239 145
240 243
241 261
242 294
243 258
244 175
245 118
246 99
247 98
248 92
250 3
252 41
253 160
254 203
255 165
256 124
257 82
258 29
262 21
263 167
264 71
265 100
266 118
267 132
268 242
269 320
270 356
271 230
272 202
273 84
274 19
280 33
281 132
282 397
283 333
284 257
285 177
286 53
287 8
296 21
297 135
298 999
299 926
300 716
301 518
302 216
303 30

$$$$

     RDKit          2D

 25 26  0  0  1  0  0  0  0  0999 V2000
   -0.2342   -1.0245    0.0000 C   0  0  0  0  0  0  0  0  0  0  0  0
   -3.0526    7.0781    0.0000 C   0  0  0  0  0  0  0  0  0  0  0  0
   -6.9498    4.8281    0.0000 C   0  0  0  0  0  0  0  0  0  0  0  0
   -5.6507    7.0781    0.0000 C   0  0  0  0  0  0  0  0  0  0  0  0
    0.2788    0.3851    0.0000 C   0  0  0  0  0  0  0  0  0  0  0  0
    3.4425    3.3281    0.0000 C   0  0  0  0  0  0  0  0  0  0  0  0
   -4.6462    1.3809    0.0000 C   0  0  0  0  0  0  0  0  0  0  0  0
    3.4430    4.8290    0.0000 C   0  0  0  0  0  0  0  0  0  0  0  0
    2.1430    2.5773    0.0000 C   0  0  0  0  0  0  0  0  0  0  0  0
   -3.1682    1.1199    0.0000 C   0  0  0  0  0  0  0  0  0  0  0  0
   -5.1599    2.7911    0.0000 C   0  0  0  0  0  0  0  0  0  0  0  0
    2.1440    5.5790    0.0000 C   0  0  0  0  0  0  0  0  0  0  0  0
    0.8440    3.3273    0.0000 C   0  0  0  0  0  0  0  0  0  0  0  0
   -2.2040    2.2689    0.0000 C   0  0  0  0  0  0  0  0  0  0  0  0
   -4.1957    3.9402    0.0000 C   0  0  0  0  0  0  0  0  0  0  0  0
   -0.4546    5.5781    0.0000 C   0  0  0  0  0  0  0  0  0  0  0  0
   -4.3517    4.8281    0.0000 C   0  0  0  0  0  0  0  0  0  0  0  0
   -3.0526    5.5781    0.0000 C   0  0  0  0  0  0  0  0  0  0  0  0
    0.8445    4.8281    0.0000 C   0  0  0  0  0  0  0  0  0  0  0  0
   -2.7178    3.6791    0.0000 C   0  0  0  0  0  0  0  0  0  0  0  0
   -0.6854    1.5341    0.0000 C   0  0  0  0  0  0  0  0  0  0  0  0
   -1.7536    4.8281    0.0000 C   0  0  0  0  0  0  0  0  0  0  0  0
   -5.6507    5.5781    0.0000 N   0  0  0  0  0  0  0  0  0  0  0  0
   -2.1626    1.2737    0.0000 O   0  0  0  0  0  0  0  0  0  0  0  0
   -0.1723    2.9437    0.0000 O   0  0  0  0  0  0  0  0  0  0  0  0
  5  1  1  0
  8  6  2  0
  9  6  1  0
 10  7  2  0
 11  7  1  0
 12  8  1  0
 13  9  2  0
 14 10  1  0
 15 11  2  0
 18  2  1  1
 18 17  1  0
 19 12  2  0
 19 13  1  0
 19 16  1  0
 20 14  2  0
 20 15  1  0
 21  5  1  0
 22 16  1  1
 22 18  1  0
 22 20  1  0
 23  3  1  0
 23  4  1  0
 23 17  1  0
 24 21  2  0
 25 21  1  0
 22 25  1  0
M  END
>  <NAME>  (4597) 
DARVON

>  <SYNONYMS>  (4597) 
PROPOXYPHENE

>  <SPECTRUM TYPE>  (4597) 
MS1

>  <INSTRUMENT TYPE>  (4597) 
EI-B

>  <INSTRUMENT>  (4597) 
Unknown

>  <ION MODE>  (4597) 
P

>  <INCHIKEY>  (4597) 
XLMALTXPSGQGBX-GCJKJVERSA-N

>  <FORMULA>  (4597) 
C22H29NO2

>  <EXACT MASS>  (4597) 
339.21982916800005

>  <MW>  (4597) 
339

>  <ID>  (4597) 
JP003834

>  <CONTRIBUTOR>  (4597) 
University of Tokyo Team, {Faculty of Engineering, University of Tokyo

>  <COMMENT>  (4597) 
SMILES=CCC(=O)OC(Cc(c2)cccc2)(c(c1)cccc1)C([H])(C)CN(C)C
InChI=InChI=1S/C22H29NO2/c1-5-21(24)25-22(18(2)17-23(3)4,20-14-10-7-11-15-20)16-19-12-8-6-9-13-19/h6-15,18H,5,16-17H2,1-4H3/t18-,22+/m1/s1
computed SMILES=O=C(OC(C=1C=CC=CC1)(CC=2C=CC=CC2)C(C)CN(C)C)CC
accession=JP003834
date=2016.01.19 (Created 2008.10.21, modified 2011.05.06)
author=SASAKI S, TOYOHASHI UNIV. OF TECH.
license=CC BY-NC-SA
exact mass=339.21983
ionization energy=70 eV
ion type=[M]+*
computed spectral entropy=1.390477247332387
computed normalized entropy=0.3382437149070759
SPLASH=splash10-0a4i-9000000000-9c987f1baf068ed1fd6e
submitter=submitter = University of Tokyo Team (Faculty of Engineering, University of Tokyo)
MoNA Rating=3.75

>  <NUM PEAKS>  (4597) 
61

>  <MASS SPECTRAL PEAKS>  (4597) 
26 0.1
27 0.6
28 1.5
29 0.44
30 1.3
35 0.2
36 0.1
39 0.03
41 0.4
42 1.9
43 0.7
44 0.09
45 0.3
47 0.6
48 0.3
49 0.43
50 0.1
51 1.5
55 0.2
56 0.04
57 4.9
58 99.99
59 4.6
65 0.05
70 0.2
71 0.5
73 0.1
74 0.02
77 1.4
78 0.1
85 0.4
88 0.02
89 0.1
91 3.1
92 0.2
102 0.01
103 0.1
105 1.6
106 0.1
115 0.11
116 0.2
117 0.9
128 0.2
129 0.04
130 0.7
131 0.1
132 0.1
133 0.01
134 0.2
143 0.1
165 0.1
174 0.01
178 0.3
179 0.3
193 0.5
197 0.02
208 1
209 0.1
250 0.3
265 0.09
266 0.4

>  <PREDICTED SPECTRUM>  (4597) 
26 13
27 57
28 51
29 68
30 67
38 12
39 77
40 38
41 122
42 177
43 60
44 53
45 50
50 36
51 77
52 48
53 63
54 19
55 93
56 94
57 174
58 999
59 165
62 14
63 37
64 3
65 143
66 36
67 25
68 14
69 65
70 40
71 133
72 42
73 13
74 24
75 10
77 91
78 61
79 85
80 10
81 54
82 21
83 24
84 31
85 33
86 6
89 29
91 345
92 84
93 4
99 19
100 93
101 50
102 60
103 48
104 100
105 168
106 60
109 1
114 6
115 156
116 4
117 14
118 6
119 42
120 38
121 46
122 26
123 41
124 42
127 63
129 181
130 56
131 107
132 24
133 21
134 10
136 17
138 0
143 56
144 2
145 15
146 59
147 24
148 47
149 38
150 35
152 30
154 1
157 10
163 51
164 58
165 68
166 50
167 9
177 19
178 15
179 12
180 10
181 29
191 33
192 158
193 133
195 17
209 8
220 29
221 9
223 20
239 18
248 179
249 123

$$$$

     RDKit          2D

 20 22  0  0  0  0  0  0  0  0999 V2000
    7.4792   -3.8026    0.0000 C   0  0  0  0  0  0  0  0  0  0  0  0
    2.2905   -6.8156    0.0000 C   0  0  0  0  0  0  0  0  0  0  0  0
    7.4759   -2.3018    0.0000 C   0  0  0  0  0  0  0  0  0  0  0  0
    6.1815   -4.5567    0.0000 C   0  0  0  0  0  0  0  0  0  0  0  0
    0.9886   -6.0688    0.0000 C   0  0  0  0  0  0  0  0  0  0  0  0
    3.5886   -6.0623    0.0000 C   0  0  0  0  0  0  0  0  0  0  0  0
    6.1750   -1.5551    0.0000 C   0  0  0  0  0  0  0  0  0  0  0  0
    4.8806   -3.8099    0.0000 C   0  0  0  0  0  0  0  0  0  0  0  0
    0.9849   -4.5688    0.0000 C   0  0  0  0  0  0  0  0  0  0  0  0
    3.5849   -4.5623    0.0000 C   0  0  0  0  0  0  0  0  0  0  0  0
   -1.9381   -4.1205    0.0000 C   0  0  0  0  0  0  0  0  0  0  0  0
   -2.6855   -2.8285    0.0000 C   0  0  0  0  0  0  0  0  0  0  0  0
    3.5765   -1.5624    0.0000 C   0  0  0  0  0  0  0  0  0  0  0  0
    0.9784   -1.5688    0.0000 C   0  0  0  0  0  0  0  0  0  0  0  0
    4.8774   -2.3091    0.0000 C   0  0  0  0  0  0  0  0  0  0  0  0
    2.2830   -3.8156    0.0000 C   0  0  0  0  0  0  0  0  0  0  0  0
   -0.3188   -2.3221    0.0000 C   0  0  0  0  0  0  0  0  0  0  0  0
   -0.4670   -3.8168    0.0000 N   0  0  0  0  0  0  0  0  0  0  0  0
   -1.6818   -1.7137    0.0000 N   0  0  0  0  0  0  0  0  0  0  0  0
    2.2793   -2.3156    0.0000 N   0  0  0  0  0  0  0  0  0  0  0  0
  3  1  2  0
  4  1  1  0
  5  2  2  0
  6  2  1  0
  7  3  1  0
  8  4  2  0
  9  5  1  0
 10  6  2  0
 12 11  1  0
 15  7  2  0
 15  8  1  0
 15 13  1  0
 16  9  2  0
 16 10  1  0
 17 14  1  0
 18 11  1  0
 18 17  2  0
 19 12  1  0
 19 17  1  0
 20 13  1  0
 20 14  1  0
 20 16  1  0
M  END
>  <NAME>  (4598) 
2-(N-BENZYL-N-PHENYLAMINOMETHYL)-4,5-DIHYDRO-1H-IMIDAZOLE

>  <SYNONYMS>  (4598) 
ANTAZOLINE

>  <SPECTRUM TYPE>  (4598) 
MS1

>  <INSTRUMENT TYPE>  (4598) 
EI-B

>  <INSTRUMENT>  (4598) 
Unknown

>  <ION MODE>  (4598) 
P

>  <INCHIKEY>  (4598) 
REYFJDPCWQRWAA-UHFFFAOYSA-N

>  <FORMULA>  (4598) 
C17H19N3

>  <EXACT MASS>  (4598) 
265.157897608

>  <MW>  (4598) 
265

>  <ID>  (4598) 
JP003832

>  <CONTRIBUTOR>  (4598) 
University of Tokyo Team, {Faculty of Engineering, University of Tokyo

>  <COMMENT>  (4598) 
SMILES=c(c3)ccc(c3)CN(CC(N2)=NCC2)c(c1)cccc1
InChI=InChI=1S/C17H19N3/c1-3-7-15(8-4-1)13-20(14-17-18-11-12-19-17)16-9-5-2-6-10-16/h1-10H,11-14H2,(H,18,19)
computed SMILES=N1=C(NCC1)CN(C=2C=CC=CC2)CC=3C=CC=CC3
accession=JP003832
date=2016.01.19 (Created 2008.10.21, modified 2011.05.06)
author=SASAKI S, TOYOHASHI UNIV. OF TECH.
license=CC BY-NC-SA
exact mass=265.1579
ionization energy=70 eV
ion type=[M]+*
computed spectral entropy=1.6827115231986967
computed normalized entropy=0.4900168297077227
SPLASH=splash10-001i-9000000000-1eb3fa441bd25a0e41a3
submitter=submitter = University of Tokyo Team (Faculty of Engineering, University of Tokyo)
MoNA Rating=3.75

>  <NUM PEAKS>  (4598) 
31

>  <MASS SPECTRAL PEAKS>  (4598) 
54 1.9
55 5.9
56 1.4
57 0.04
64 0.9
65 2.9
66 0.4
76 0.04
77 5.9
78 1.1
79 0.9
82 0.19
83 3.9
84 99.99
85 5.9
86 0.19
87 0.9
88 0.4
90 1.9
91 1.49
92 2.9
93 0.9
103 0.9
104 0.19
105 0.9
106 1.4
180 1.9
181 0.14
182 5.9
183 1.4
265 1.4

>  <PREDICTED SPECTRUM>  (4598) 
14 1
15 23
16 4
17 19
18 35
26 32
27 82
28 71
29 70
30 67
33 28
34 14
36 30
37 33
38 74
39 286
40 147
41 307
42 350
43 153
44 143
45 31
50 143
51 265
52 135
53 107
54 112
55 163
56 103
57 57
58 6
62 84
63 173
64 85
65 386
66 105
67 41
68 86
69 164
70 78
71 47
74 56
75 47
76 77
77 264
78 184
79 123
80 81
81 54
82 102
83 42
84 8
87 29
89 232
90 142
91 999
92 339
93 89
94 7
96 24
97 49
98 22
99 13
100 11
101 10
102 76
103 150
104 281
105 146
106 267
107 55
110 42
111 31
112 33
113 7
115 92
116 92
117 215
118 359
119 152
120 237
121 35
126 14
127 33
128 65
129 75
130 25
131 145
132 193
133 113
134 81
143 15
144 68
145 156
146 300
147 149
148 110
149 2
152 0
153 19
154 20
158 37
159 7
160 113
162 2
166 8
167 4
172 99
173 78
174 316
175 115
180 22
188 232
189 49
194 50
195 67
207 4
208 116
209 113
210 83
222 47
223 34
235 19
236 107
237 37
249 6
250 66
251 16
264 321
265 462
266 177
267 34

$$$$

     RDKit          2D

 24 26  0  0  0  0  0  0  0  0999 V2000
    7.4670    1.2206    0.0000 C   0  0  0  0  0  0  0  0  0  0  0  0
   -2.9306    2.7156    0.0000 C   0  0  0  0  0  0  0  0  0  0  0  0
   -2.9356    5.7156    0.0000 C   0  0  0  0  0  0  0  0  0  0  0  0
   -0.3375    5.7200    0.0000 C   0  0  0  0  0  0  0  0  0  0  0  0
    6.1681    0.4704    0.0000 C   0  0  0  0  0  0  0  0  0  0  0  0
   -4.2200    0.4700    0.0000 C   0  0  0  0  0  0  0  0  0  0  0  0
   -4.2200   -1.0300    0.0000 C   0  0  0  0  0  0  0  0  0  0  0  0
   -2.9200    1.2200    0.0000 C   0  0  0  0  0  0  0  0  0  0  0  0
   -2.9200   -1.7800    0.0000 C   0  0  0  0  0  0  0  0  0  0  0  0
    3.5700   -1.0300    0.0000 C   0  0  0  0  0  0  0  0  0  0  0  0
    2.2700   -1.7800    0.0000 C   0  0  0  0  0  0  0  0  0  0  0  0
    2.2700    1.2200    0.0000 C   0  0  0  0  0  0  0  0  0  0  0  0
   -0.3325    2.7200    0.0000 C   0  0  0  0  0  0  0  0  0  0  0  0
   -1.6328    3.4678    0.0000 C   0  0  0  0  0  0  0  0  0  0  0  0
    3.5700    0.4700    0.0000 C   0  0  0  0  0  0  0  0  0  0  0  0
   -1.6200    0.4700    0.0000 C   0  0  0  0  0  0  0  0  0  0  0  0
    0.9700    0.4700    0.0000 C   0  0  0  0  0  0  0  0  0  0  0  0
    4.8689    1.2202    0.0000 C   0  0  0  0  0  0  0  0  0  0  0  0
   -1.6200   -1.0300    0.0000 C   0  0  0  0  0  0  0  0  0  0  0  0
    0.9700   -1.0300    0.0000 C   0  0  0  0  0  0  0  0  0  0  0  0
   -1.6353    4.9678    0.0000 N   0  0  0  0  0  0  0  0  0  0  0  0
   -0.3300    1.2200    0.0000 N   0  0  0  0  0  0  0  0  0  0  0  0
    4.8687    2.7202    0.0000 O   0  0  0  0  0  0  0  0  0  0  0  0
   -0.3300   -1.7800    0.0000 S   0  0  0  0  0  0  0  0  0  0  0  0
  5  1  1  0
  7  6  2  0
  8  6  1  0
  9  7  1  0
 11 10  1  0
 14  2  1  0
 14 13  1  0
 15 10  2  0
 15 12  1  0
 16  8  2  0
 17 12  2  0
 18  5  1  0
 18 15  1  0
 19  9  2  0
 19 16  1  0
 20 11  2  0
 20 17  1  0
 21  3  1  0
 21  4  1  0
 21 14  1  0
 22 13  1  0
 22 16  1  0
 22 17  1  0
 23 18  2  0
 24 19  1  0
 24 20  1  0
M  END
>  <NAME>  (4599) 
2-PROPIONYL-10-(2-DIMETHYLAMINOPROPYL)-PHENOTHIAZINE

>  <SYNONYMS>  (4599) 
PROPIOMAZINE

>  <SPECTRUM TYPE>  (4599) 
MS1

>  <INSTRUMENT TYPE>  (4599) 
EI-B

>  <INSTRUMENT>  (4599) 
Unknown

>  <ION MODE>  (4599) 
P

>  <INCHIKEY>  (4599) 
UVOIBTBFPOZKGP-UHFFFAOYSA-N

>  <FORMULA>  (4599) 
C20H24N2OS

>  <EXACT MASS>  (4599) 
340.16093438800004

>  <MW>  (4599) 
340

>  <ID>  (4599) 
JP003831

>  <CONTRIBUTOR>  (4599) 
University of Tokyo Team, {Faculty of Engineering, University of Tokyo

>  <COMMENT>  (4599) 
SMILES=CCC(=O)c(c3)cc(c(c3)1)N(CC(C)N(C)C)c(c2)c(ccc2)S1
InChI=InChI=1S/C20H24N2OS/c1-5-18(23)15-10-11-20-17(12-15)22(13-14(2)21(3)4)16-8-6-7-9-19(16)24-20/h6-12,14H,5,13H2,1-4H3
computed SMILES=O=C(C1=CC=C2SC=3C=CC=CC3N(C2=C1)CC(N(C)C)C)CC
license=CC BY-NC-SA
accession=JP003831
date=2016.01.19 (Created 2008.10.21, modified 2011.05.06)
author=SASAKI S, TOYOHASHI UNIV. OF TECH.
exact mass=340.16093
ionization energy=70 eV
ion type=[M]+*
computed spectral entropy=1.0109720726051155
computed normalized entropy=0.46011321875470557
SPLASH=splash10-00di-9100000000-976e369803cbbc61ad7a
submitter=submitter = University of Tokyo Team (Faculty of Engineering, University of Tokyo)
MoNA Rating=3.75

>  <NUM PEAKS>  (4599) 
9

>  <MASS SPECTRAL PEAKS>  (4599) 
72 99.99
73 3.9
149 16.9
150 0.14
197 4.4
254 2.9
255 4.9
269 0.54
340 2.9

>  <PREDICTED SPECTRUM>  (4599) 
39 88
40 60
41 180
42 294
43 162
44 306
45 88
50 23
51 108
54 6
55 50
56 223
57 271
58 70
63 65
65 107
69 230
70 152
71 233
72 909
73 226
74 108
75 136
76 58
77 128
78 43
82 55
84 61
85 7
86 79
89 68
92 12
98 60
99 37
100 320
101 121
102 70
103 98
104 59
105 50
112 31
113 227
114 94
116 62
120 7
126 49
127 54
128 158
139 238
140 126
141 114
142 8
152 45
153 66
154 190
155 46
158 67
167 261
168 175
169 219
170 23
181 9
182 185
183 56
184 145
194 149
195 302
196 358
197 335
198 304
199 51
200 117
201 43
209 139
210 27
211 73
212 312
213 121
223 17
224 87
225 315
226 357
236 196
238 35
239 139
240 999
241 740
242 653
243 97
255 1
267 532
268 966
269 553
270 22
311 62
325 18
340 969
341 445
342 159
343 57

$$$$

     RDKit          2D

 22 24  0  0  0  0  0  0  0  0999 V2000
   -2.5981    7.5000    0.0000 C   0  0  0  0  0  0  0  0  0  0  0  0
   -3.8971    5.2500    0.0000 C   0  0  0  0  0  0  0  0  0  0  0  0
   -1.2990    3.7500    0.0000 C   0  0  0  0  0  0  0  0  0  0  0  0
   -3.9000   -0.7500    0.0000 C   0  0  0  0  0  0  0  0  0  0  0  0
    3.9000   -0.7500    0.0000 C   0  0  0  0  0  0  0  0  0  0  0  0
   -2.6000   -1.5000    0.0000 C   0  0  0  0  0  0  0  0  0  0  0  0
    2.6000   -1.5000    0.0000 C   0  0  0  0  0  0  0  0  0  0  0  0
   -1.2990    5.2500    0.0000 C   0  0  0  0  0  0  0  0  0  0  0  0
    0.0000    3.0000    0.0000 C   0  0  0  0  0  0  0  0  0  0  0  0
   -2.6000    1.5000    0.0000 C   0  0  0  0  0  0  0  0  0  0  0  0
    2.6000    1.5000    0.0000 C   0  0  0  0  0  0  0  0  0  0  0  0
   -3.9000    0.7500    0.0000 C   0  0  0  0  0  0  0  0  0  0  0  0
    3.9000    0.7500    0.0000 C   0  0  0  0  0  0  0  0  0  0  0  0
   -1.3000    0.7500    0.0000 C   0  0  0  0  0  0  0  0  0  0  0  0
    1.3000    0.7500    0.0000 C   0  0  0  0  0  0  0  0  0  0  0  0
   -1.3000   -0.7500    0.0000 C   0  0  0  0  0  0  0  0  0  0  0  0
    1.3000   -0.7500    0.0000 C   0  0  0  0  0  0  0  0  0  0  0  0
   -5.1989    1.5002    0.0000 Cl  0  0  0  0  0  0  0  0  0  0  0  0
   -2.5981    6.0000    0.0000 N   0  0  0  0  0  0  0  0  0  0  0  0
   -0.0000    1.5000    0.0000 N   0  0  0  0  0  0  0  0  0  0  0  0
    5.1989    1.5002    0.0000 O   0  0  0  0  0  0  0  0  0  0  0  0
   -0.0000   -1.5000    0.0000 S   0  0  0  0  0  0  0  0  0  0  0  0
  6  4  2  0
  7  5  1  0
  8  3  1  0
  9  3  1  0
 12  4  1  0
 12 10  2  0
 13  5  2  0
 13 11  1  0
 14 10  1  0
 15 11  2  0
 16  6  1  0
 16 14  2  0
 17  7  2  0
 17 15  1  0
 18 12  1  0
 19  1  1  0
 19  2  1  0
 19  8  1  0
 20  9  1  0
 20 14  1  0
 20 15  1  0
 21 13  1  0
 22 16  1  0
 22 17  1  0
M  END
>  <NAME>  (4600) 
8-HYDROXY-2-CHLOROPROMAZINE

>  <SYNONYMS>  (4600) 


>  <SPECTRUM TYPE>  (4600) 
MS1

>  <INSTRUMENT TYPE>  (4600) 
EI-B

>  <INSTRUMENT>  (4600) 
Unknown

>  <ION MODE>  (4600) 
P

>  <INCHIKEY>  (4600) 
UBUDVAYGFVRZCO-UHFFFAOYSA-N

>  <FORMULA>  (4600) 
C17H19ClN2OS

>  <EXACT MASS>  (4600) 
334.090661908

>  <MW>  (4600) 
334

>  <ID>  (4600) 
JP003828

>  <CONTRIBUTOR>  (4600) 
University of Tokyo Team, {Faculty of Engineering, University of Tokyo

>  <COMMENT>  (4600) 
SMILES=CN(C)CCCN(c21)c(c3)c(ccc(Cl)3)Sc(ccc(O)c2)1
InChI=InChI=1S/C17H19ClN2OS/c1-19(2)8-3-9-20-14-10-12(18)4-6-16(14)22-17-7-5-13(21)11-15(17)20/h4-7,10-11,21H,3,8-9H2,1-2H3
computed SMILES=ClC1=CC=C2SC3=CC=C(O)C=C3N(C2=C1)CCCN(C)C
accession=JP003828
date=2016.01.19 (Created 2008.10.21, modified 2011.05.06)
author=SASAKI S, TOYOHASHI UNIV. OF TECH.
license=CC BY-NC-SA
exact mass=334.09066
ionization energy=70 eV
ion type=[M]+*
computed spectral entropy=2.436879664525673
computed normalized entropy=0.674864320784623
SPLASH=splash10-0a4i-9022000000-e5edf85cbfa7f9098694
submitter=submitter = University of Tokyo Team (Faculty of Engineering, University of Tokyo)
MoNA Rating=3.75

>  <NUM PEAKS>  (4600) 
37

>  <MASS SPECTRAL PEAKS>  (4600) 
41 3.9
42 17.9
43 6.4
44 0.99
45 0.9
55 0.9
56 2.9
57 0.49
58 99.99
84 5.9
85 10.9
86 4.49
87 2.9
183 1.9
184 2.4
185 0.29
186 0.9
187 0.9
219 1.9
220 0.19
221 0.9
222 0.9
243 9.4
244 0.64
245 3.9
246 2.9
262 3.9
263 0.29
264 1.9
288 6.9
289 6.4
290 0.49
291 1.9
334 27.9
335 5.9
336 1.09
337 1.9

>  <PREDICTED SPECTRUM>  (4600) 
30 15
34 9
36 15
39 51
40 33
41 91
42 288
43 149
44 229
45 92
46 37
49 46
50 33
51 84
52 40
53 76
54 9
55 42
56 139
57 100
58 999
59 126
60 63
61 31
62 0
63 52
64 21
65 55
66 23
67 38
68 30
69 39
70 110
71 96
72 336
73 22
74 14
75 17
77 38
78 33
79 22
80 11
81 10
82 25
83 9
84 194
85 190
86 384
87 35
92 1
94 8
96 8
98 5
99 3
110 28
111 34
112 32
113 33
114 25
115 11
120 2
124 17
125 53
126 23
127 110
128 20
139 9
142 28
150 7
151 23
152 110
153 91
154 42
155 65
170 17
183 13
184 10
191 1
192 17
194 7
205 50
206 29
212 29
221 47
222 26
223 1
224 49
227 5
230 34
231 0
232 62
234 5
235 2
247 18
248 137
249 123
250 30
251 16
256 25
257 23
262 53
263 184
264 109
265 37
266 30
272 33
275 10
276 38
288 32
289 80
290 22
334 360
335 201
336 233
337 122
338 46

$$$$

     RDKit          2D

 22 24  0  0  0  0  0  0  0  0999 V2000
   -2.5981    7.5000    0.0000 C   0  0  0  0  0  0  0  0  0  0  0  0
   -3.8971    5.2500    0.0000 C   0  0  0  0  0  0  0  0  0  0  0  0
   -3.9000    0.7500    0.0000 C   0  0  0  0  0  0  0  0  0  0  0  0
   -3.9000   -0.7500    0.0000 C   0  0  0  0  0  0  0  0  0  0  0  0
   -1.2990    3.7500    0.0000 C   0  0  0  0  0  0  0  0  0  0  0  0
   -2.6000    1.5000    0.0000 C   0  0  0  0  0  0  0  0  0  0  0  0
   -2.6000   -1.5000    0.0000 C   0  0  0  0  0  0  0  0  0  0  0  0
   -1.2990    5.2500    0.0000 C   0  0  0  0  0  0  0  0  0  0  0  0
    0.0000    3.0000    0.0000 C   0  0  0  0  0  0  0  0  0  0  0  0
    2.6000    1.5000    0.0000 C   0  0  0  0  0  0  0  0  0  0  0  0
    2.6000   -1.5000    0.0000 C   0  0  0  0  0  0  0  0  0  0  0  0
    3.9000    0.7500    0.0000 C   0  0  0  0  0  0  0  0  0  0  0  0
   -1.3000    0.7500    0.0000 C   0  0  0  0  0  0  0  0  0  0  0  0
    1.3000    0.7500    0.0000 C   0  0  0  0  0  0  0  0  0  0  0  0
    3.9000   -0.7500    0.0000 C   0  0  0  0  0  0  0  0  0  0  0  0
   -1.3000   -0.7500    0.0000 C   0  0  0  0  0  0  0  0  0  0  0  0
    1.3000   -0.7500    0.0000 C   0  0  0  0  0  0  0  0  0  0  0  0
    5.1989    1.5002    0.0000 Cl  0  0  0  0  0  0  0  0  0  0  0  0
   -2.5981    6.0000    0.0000 N   0  0  0  0  0  0  0  0  0  0  0  0
   -0.0000    1.5000    0.0000 N   0  0  0  0  0  0  0  0  0  0  0  0
    5.1989   -1.5002    0.0000 O   0  0  0  0  0  0  0  0  0  0  0  0
   -0.0000   -1.5000    0.0000 S   0  0  0  0  0  0  0  0  0  0  0  0
  4  3  2  0
  6  3  1  0
  7  4  1  0
  8  5  1  0
  9  5  1  0
 12 10  1  0
 13  6  2  0
 14 10  2  0
 15 11  1  0
 15 12  2  0
 16  7  2  0
 16 13  1  0
 17 11  2  0
 17 14  1  0
 18 12  1  0
 19  1  1  0
 19  2  1  0
 19  8  1  0
 20  9  1  0
 20 13  1  0
 20 14  1  0
 21 15  1  0
 22 16  1  0
 22 17  1  0
M  END
>  <NAME>  (4601) 
3-HYDROXY-2-CHLOROPROMAZINE

>  <SYNONYMS>  (4601) 


>  <SPECTRUM TYPE>  (4601) 
MS1

>  <INSTRUMENT TYPE>  (4601) 
EI-B

>  <INSTRUMENT>  (4601) 
Unknown

>  <ION MODE>  (4601) 
P

>  <INCHIKEY>  (4601) 
SOUCXKDIHOVGPW-UHFFFAOYSA-N

>  <FORMULA>  (4601) 
C17H19ClN2OS

>  <EXACT MASS>  (4601) 
334.09066190799996

>  <MW>  (4601) 
334

>  <ID>  (4601) 
JP003827

>  <CONTRIBUTOR>  (4601) 
University of Tokyo Team, {Faculty of Engineering, University of Tokyo

>  <COMMENT>  (4601) 
SMILES=CN(C)CCCN(c21)c(c3)c(cc(O)c(Cl)3)Sc(cccc2)1
InChI=InChI=1S/C17H19ClN2OS/c1-19(2)8-5-9-20-13-6-3-4-7-16(13)22-17-11-15(21)12(18)10-14(17)20/h3-4,6-7,10-11,21H,5,8-9H2,1-2H3
computed SMILES=ClC=1C=C2C(SC=3C=CC=CC3N2CCCN(C)C)=CC1O
accession=JP003827
date=2016.01.19 (Created 2008.10.21, modified 2011.05.06)
author=SASAKI S, TOYOHASHI UNIV. OF TECH.
license=CC BY-NC-SA
exact mass=334.09066
ionization energy=70 eV
ion type=[M]+*
computed spectral entropy=1.8085078983147087
computed normalized entropy=0.5550811270352801
SPLASH=splash10-0a4i-9000000000-a500f7a95d653d68eadc
submitter=submitter = University of Tokyo Team (Faculty of Engineering, University of Tokyo)
MoNA Rating=3.75

>  <NUM PEAKS>  (4601) 
26

>  <MASS SPECTRAL PEAKS>  (4601) 
41 2.9
42 11.9
43 2.9
44 0.44
55 0.9
56 1.9
57 1.4
58 99.99
59 4.9
84 1.9
85 0.9
86 7.79
87 4.9
183 1.9
184 3.9
185 0.09
186 1.9
220 5.4
221 0.9
222 0.09
248 2.9
249 2.4
250 1.4
334 0.64
335 0.9
336 1.9

>  <PREDICTED SPECTRUM>  (4601) 
30 0
39 36
40 26
41 73
42 240
43 132
44 184
45 67
46 16
49 19
50 19
51 67
52 25
53 61
55 15
56 78
58 999
59 191
62 4
63 30
64 4
65 30
67 18
68 5
69 42
70 84
71 92
72 212
73 18
77 33
78 11
83 21
84 143
85 213
86 403
87 21
99 38
100 8
110 11
111 6
112 15
113 55
114 7
115 6
127 54
128 11
140 1
141 28
142 53
143 5
152 48
153 53
154 39
155 44
156 26
168 11
191 10
192 5
206 10
221 1
222 5
224 46
226 21
230 13
232 46
234 17
246 7
247 3
248 77
249 89
262 57
263 49
264 37
274 25
288 97
289 120
290 56
334 340
335 166
336 182
337 103

$$$$

     RDKit          2D

 25 27  0  0  0  0  0  0  0  0999 V2000
    7.7970    1.5006    0.0000 C   0  0  0  0  0  0  0  0  0  0  0  0
   -2.5981    7.5000    0.0000 C   0  0  0  0  0  0  0  0  0  0  0  0
   -3.8971    5.2500    0.0000 C   0  0  0  0  0  0  0  0  0  0  0  0
   -1.2990    3.7500    0.0000 C   0  0  0  0  0  0  0  0  0  0  0  0
   -3.9000   -0.7500    0.0000 C   0  0  0  0  0  0  0  0  0  0  0  0
    3.9000   -0.7500    0.0000 C   0  0  0  0  0  0  0  0  0  0  0  0
   -2.6000   -1.5000    0.0000 C   0  0  0  0  0  0  0  0  0  0  0  0
    2.6000   -1.5000    0.0000 C   0  0  0  0  0  0  0  0  0  0  0  0
   -1.2990    5.2500    0.0000 C   0  0  0  0  0  0  0  0  0  0  0  0
    0.0000    3.0000    0.0000 C   0  0  0  0  0  0  0  0  0  0  0  0
   -2.6000    1.5000    0.0000 C   0  0  0  0  0  0  0  0  0  0  0  0
    2.6000    1.5000    0.0000 C   0  0  0  0  0  0  0  0  0  0  0  0
    6.4981    0.7504    0.0000 C   0  0  0  0  0  0  0  0  0  0  0  0
   -3.9000    0.7500    0.0000 C   0  0  0  0  0  0  0  0  0  0  0  0
    3.9000    0.7500    0.0000 C   0  0  0  0  0  0  0  0  0  0  0  0
   -1.3000    0.7500    0.0000 C   0  0  0  0  0  0  0  0  0  0  0  0
    1.3000    0.7500    0.0000 C   0  0  0  0  0  0  0  0  0  0  0  0
   -1.3000   -0.7500    0.0000 C   0  0  0  0  0  0  0  0  0  0  0  0
    1.3000   -0.7500    0.0000 C   0  0  0  0  0  0  0  0  0  0  0  0
   -5.1989    1.5002    0.0000 Cl  0  0  0  0  0  0  0  0  0  0  0  0
   -2.5981    6.0000    0.0000 N   0  0  0  0  0  0  0  0  0  0  0  0
   -0.0000    1.5000    0.0000 N   0  0  0  0  0  0  0  0  0  0  0  0
    6.4983   -0.7496    0.0000 O   0  0  0  0  0  0  0  0  0  0  0  0
    5.1989    1.5002    0.0000 O   0  0  0  0  0  0  0  0  0  0  0  0
   -0.0000   -1.5000    0.0000 S   0  0  0  0  0  0  0  0  0  0  0  0
  7  5  2  0
  8  6  1  0
  9  4  1  0
 10  4  1  0
 13  1  1  0
 14  5  1  0
 14 11  2  0
 15  6  2  0
 15 12  1  0
 16 11  1  0
 17 12  2  0
 18  7  1  0
 18 16  2  0
 19  8  2  0
 19 17  1  0
 20 14  1  0
 21  2  1  0
 21  3  1  0
 21  9  1  0
 22 10  1  0
 22 16  1  0
 22 17  1  0
 23 13  2  0
 24 13  1  0
 24 15  1  0
 25 18  1  0
 25 19  1  0
M  END
>  <NAME>  (4602) 
8-ACETOXY-2-CHLOROPROMAZINE

>  <SYNONYMS>  (4602) 


>  <SPECTRUM TYPE>  (4602) 
MS1

>  <INSTRUMENT TYPE>  (4602) 
EI-B

>  <INSTRUMENT>  (4602) 
Unknown

>  <ION MODE>  (4602) 
P

>  <INCHIKEY>  (4602) 
TZMZNKUSKYOABO-UHFFFAOYSA-N

>  <FORMULA>  (4602) 
C19H21ClN2O2S

>  <EXACT MASS>  (4602) 
376.101226592

>  <MW>  (4602) 
376

>  <ID>  (4602) 
JP003826

>  <CONTRIBUTOR>  (4602) 
University of Tokyo Team, {Faculty of Engineering, University of Tokyo

>  <COMMENT>  (4602) 
SMILES=CN(C)CCCN(c21)c(c3)c(ccc(OC(C)=O)3)Sc(ccc(Cl)c2)1
InChI=InChI=1S/C19H21ClN2O2S/c1-13(23)24-15-6-8-19-17(12-15)22(10-4-9-21(2)3)16-11-14(20)5-7-18(16)25-19/h5-8,11-12H,4,9-10H2,1-3H3
computed SMILES=O=C(OC1=CC=C2SC3=CC=C(Cl)C=C3N(C2=C1)CCCN(C)C)C
accession=JP003826
date=2016.01.19 (Created 2008.10.21, modified 2011.05.06)
author=SASAKI S, TOYOHASHI UNIV. OF TECH.
license=CC BY-NC-SA
exact mass=376.10123
ionization energy=70 eV
ion type=[M]+*
computed spectral entropy=1.9436588057950341
computed normalized entropy=0.5772165274242749
SPLASH=splash10-0a4i-9020000000-051c58eb52da51ed900f
submitter=submitter = University of Tokyo Team (Faculty of Engineering, University of Tokyo)
MoNA Rating=3.75

>  <NUM PEAKS>  (4602) 
29

>  <MASS SPECTRAL PEAKS>  (4602) 
41 0.9
42 2.9
43 6.9
44 0.29
45 0.9
56 0.9
57 1.9
58 99.99
84 2.4
85 5.9
86 26.9
87 0.09
219 1.9
220 0.9
248 5.4
249 0.29
250 1.9
251 0.9
262 2.4
263 0.24
288 4.9
289 10.9
290 3.9
291 0.69
292 0.4
293 0.9
376 4.9
377 0.09
378 1.9

>  <PREDICTED SPECTRUM>  (4602) 
39 6
41 121
42 295
43 349
44 250
45 103
46 33
49 41
51 28
53 47
55 20
56 77
57 115
58 999
59 122
60 62
61 1
63 49
64 28
65 39
67 4
69 17
70 94
71 28
72 85
77 30
78 17
79 28
80 8
82 16
84 260
85 138
86 572
87 86
90 11
91 6
92 0
93 4
94 6
100 17
101 1
105 13
106 19
107 3
110 66
111 49
112 41
113 53
114 2
120 5
122 26
123 10
127 22
129 2
130 5
134 10
142 5
152 31
153 23
154 2
155 44
157 20
164 23
168 5
169 23
178 40
184 5
194 16
195 19
196 55
210 33
212 0
230 31
236 24
248 94
249 50
250 46
262 37
263 121
264 51
265 6
272 18
274 37
286 11
288 104
289 182
290 181
291 199
292 48
293 42
304 30
305 111
306 61
313 19
316 0
331 60
333 62
334 79
336 24
375 14
376 534
377 242
378 273
379 140

$$$$

     RDKit          2D

 25 27  0  0  0  0  0  0  0  0999 V2000
    7.7970   -1.5006    0.0000 C   0  0  0  0  0  0  0  0  0  0  0  0
   -2.5981    7.5000    0.0000 C   0  0  0  0  0  0  0  0  0  0  0  0
   -3.8971    5.2500    0.0000 C   0  0  0  0  0  0  0  0  0  0  0  0
   -3.9000    0.7500    0.0000 C   0  0  0  0  0  0  0  0  0  0  0  0
   -3.9000   -0.7500    0.0000 C   0  0  0  0  0  0  0  0  0  0  0  0
   -1.2990    3.7500    0.0000 C   0  0  0  0  0  0  0  0  0  0  0  0
   -2.6000    1.5000    0.0000 C   0  0  0  0  0  0  0  0  0  0  0  0
   -2.6000   -1.5000    0.0000 C   0  0  0  0  0  0  0  0  0  0  0  0
   -1.2990    5.2500    0.0000 C   0  0  0  0  0  0  0  0  0  0  0  0
    0.0000    3.0000    0.0000 C   0  0  0  0  0  0  0  0  0  0  0  0
    2.6000    1.5000    0.0000 C   0  0  0  0  0  0  0  0  0  0  0  0
    2.6000   -1.5000    0.0000 C   0  0  0  0  0  0  0  0  0  0  0  0
    6.4981   -0.7504    0.0000 C   0  0  0  0  0  0  0  0  0  0  0  0
    3.9000    0.7500    0.0000 C   0  0  0  0  0  0  0  0  0  0  0  0
   -1.3000    0.7500    0.0000 C   0  0  0  0  0  0  0  0  0  0  0  0
    1.3000    0.7500    0.0000 C   0  0  0  0  0  0  0  0  0  0  0  0
    3.9000   -0.7500    0.0000 C   0  0  0  0  0  0  0  0  0  0  0  0
   -1.3000   -0.7500    0.0000 C   0  0  0  0  0  0  0  0  0  0  0  0
    1.3000   -0.7500    0.0000 C   0  0  0  0  0  0  0  0  0  0  0  0
    5.1989    1.5002    0.0000 Cl  0  0  0  0  0  0  0  0  0  0  0  0
   -2.5981    6.0000    0.0000 N   0  0  0  0  0  0  0  0  0  0  0  0
   -0.0000    1.5000    0.0000 N   0  0  0  0  0  0  0  0  0  0  0  0
    6.4983    0.7496    0.0000 O   0  0  0  0  0  0  0  0  0  0  0  0
    5.1989   -1.5002    0.0000 O   0  0  0  0  0  0  0  0  0  0  0  0
   -0.0000   -1.5000    0.0000 S   0  0  0  0  0  0  0  0  0  0  0  0
  5  4  2  0
  7  4  1  0
  8  5  1  0
  9  6  1  0
 10  6  1  0
 13  1  1  0
 14 11  1  0
 15  7  2  0
 16 11  2  0
 17 12  1  0
 17 14  2  0
 18  8  2  0
 18 15  1  0
 19 12  2  0
 19 16  1  0
 20 14  1  0
 21  2  1  0
 21  3  1  0
 21  9  1  0
 22 10  1  0
 22 15  1  0
 22 16  1  0
 23 13  2  0
 24 13  1  0
 24 17  1  0
 25 18  1  0
 25 19  1  0
M  END
>  <NAME>  (4603) 
3-ACETOXY-2-CHLOROPROMAZINE

>  <SYNONYMS>  (4603) 


>  <SPECTRUM TYPE>  (4603) 
MS1

>  <INSTRUMENT TYPE>  (4603) 
EI-B

>  <INSTRUMENT>  (4603) 
Unknown

>  <ION MODE>  (4603) 
P

>  <INCHIKEY>  (4603) 
AUESYCHQJPBGKQ-UHFFFAOYSA-N

>  <FORMULA>  (4603) 
C19H21ClN2O2S

>  <EXACT MASS>  (4603) 
376.101226592

>  <MW>  (4603) 
376

>  <ID>  (4603) 
JP003825

>  <CONTRIBUTOR>  (4603) 
University of Tokyo Team, {Faculty of Engineering, University of Tokyo

>  <COMMENT>  (4603) 
SMILES=CN(C)CCCN(c21)c(c3)c(cc(OC(C)=O)c(Cl)3)Sc(cccc2)1
InChI=InChI=1S/C19H21ClN2O2S/c1-13(23)24-17-12-19-16(11-14(17)20)22(10-6-9-21(2)3)15-7-4-5-8-18(15)25-19/h4-5,7-8,11-12H,6,9-10H2,1-3H3
computed SMILES=O=C(OC=1C=C2SC=3C=CC=CC3N(C2=CC1Cl)CCCN(C)C)C
accession=JP003825
date=2016.01.19 (Created 2008.10.21, modified 2011.05.06)
author=SASAKI S, TOYOHASHI UNIV. OF TECH.
license=CC BY-NC-SA
exact mass=376.10123
ionization energy=70 eV
ion type=[M]+*
computed spectral entropy=2.219266791126283
computed normalized entropy=0.6524957366754568
SPLASH=splash10-0a4i-9003000000-e96e80fe67591fd3af47
submitter=submitter = University of Tokyo Team (Faculty of Engineering, University of Tokyo)
MoNA Rating=3.75

>  <NUM PEAKS>  (4603) 
30

>  <MASS SPECTRAL PEAKS>  (4603) 
41 1.9
42 11.9
43 15.9
44 0.29
45 0.9
56 1.4
57 3.9
58 99.99
59 6.9
84 5.9
85 2.9
86 0.86
87 10.9
185 1.9
220 1.9
221 0.19
222 0.9
223 0.9
247 0.9
248 0.59
249 2.9
250 1.4
334 2.4
336 0.09
341 6.9
342 2.9
376 31.9
377 0.69
378 12.9
379 1.9

>  <PREDICTED SPECTRUM>  (4603) 
41 109
42 219
43 315
44 125
45 64
49 13
51 15
53 21
57 38
58 999
59 126
63 34
65 2
67 0
70 54
72 56
77 50
79 7
81 8
84 244
85 231
86 635
87 34
100 20
109 5
110 18
111 12
112 12
113 66
122 11
125 30
140 9
141 28
152 46
153 18
155 55
178 7
183 17
184 16
194 22
195 24
196 87
197 56
198 52
210 22
226 26
230 73
235 14
236 25
247 39
248 96
249 107
250 67
261 65
262 128
263 245
264 91
274 91
287 13
288 177
289 202
290 144
291 235
292 91
293 71
297 14
304 4
305 30
306 40
313 0
331 68
333 64
334 112
336 73
374 15
376 615
377 269
378 333
379 163

$$$$

     RDKit          2D

 17 17  0  0  0  0  0  0  0  0999 V2000
    0.2130   -3.6188    0.0000 C   0  0  0  0  0  0  0  0  0  0  0  0
    0.2124   -0.2786    0.0000 C   0  0  0  0  0  0  0  0  0  0  0  0
    3.1057   -3.7252    0.0000 C   0  0  0  0  0  0  0  0  0  0  0  0
   -1.2643   -3.3585    0.0000 C   0  0  0  0  0  0  0  0  0  0  0  0
    0.6641   -2.8371    0.0000 C   0  0  0  0  0  0  0  0  0  0  0  0
   -0.3003   -1.6883    0.0000 C   0  0  0  0  0  0  0  0  0  0  0  0
    2.1413   -2.5763    0.0000 C   0  0  0  0  0  0  0  0  0  0  0  0
   -3.0765   -2.6990    0.0000 C   0  0  0  0  0  0  0  0  0  0  0  0
   -1.7779   -0.4482    0.0000 C   0  0  0  0  0  0  0  0  0  0  0  0
   -4.3765   -0.4474    0.0000 C   0  0  0  0  0  0  0  0  0  0  0  0
   -1.7775   -1.9490    0.0000 C   0  0  0  0  0  0  0  0  0  0  0  0
   -4.3760   -1.9482    0.0000 N   0  0  0  0  0  0  0  0  0  0  0  0
   -3.0775    0.3026    0.0000 N   0  0  0  0  0  0  0  0  0  0  0  0
    2.6540   -1.1667    0.0000 O   0  0  0  0  0  0  0  0  0  0  0  0
   -3.0767   -4.1990    0.0000 O   0  0  0  0  0  0  0  0  0  0  0  0
   -0.4789    0.3018    0.0000 O   0  0  0  0  0  0  0  0  0  0  0  0
   -5.6757    0.3024    0.0000 O   0  0  0  0  0  0  0  0  0  0  0  0
  4  1  1  0
  6  2  1  0
  6  5  1  0
  7  3  1  0
  7  5  1  0
 11  4  1  0
 11  6  1  0
 11  8  1  0
 11  9  1  0
 12  8  2  0
 12 10  1  0
 13  9  2  0
 13 10  1  0
 14  7  1  0
 15  8  1  0
 16  9  1  0
 17 10  2  0
M  END
>  <NAME>  (4604) 
5-ETHYL-5-(3-HYDROXY-1-METHYLBUTYL)-BARBITURIC ACID

>  <SYNONYMS>  (4604) 


>  <SPECTRUM TYPE>  (4604) 
MS1

>  <INSTRUMENT TYPE>  (4604) 
EI-B

>  <INSTRUMENT>  (4604) 
Unknown

>  <ION MODE>  (4604) 
P

>  <INCHIKEY>  (4604) 
XYOPMDJVSWQZTM-UHFFFAOYSA-N

>  <FORMULA>  (4604) 
C11H18N2O4

>  <EXACT MASS>  (4604) 
242.126657056

>  <MW>  (4604) 
242

>  <ID>  (4604) 
JP003823

>  <CONTRIBUTOR>  (4604) 
University of Tokyo Team, {Faculty of Engineering, University of Tokyo

>  <COMMENT>  (4604) 
SMILES=CC(O)CC(C)C(CC)(C(=O)1)C(=O)NC(=O)N1
InChI=InChI=1S/C11H18N2O4/c1-4-11(6(2)5-7(3)14)8(15)12-10(17)13-9(11)16/h6-7,14H,4-5H2,1-3H3,(H2,12,13,15,16,17)
computed SMILES=O=C1N=C(O)C(C(O)=N1)(CC)C(C)CC(O)C
license=CC BY-NC-SA
accession=JP003823
date=2016.01.19 (Created 2008.10.21, modified 2011.05.06)
author=SASAKI S, TOYOHASHI UNIV. OF TECH.
exact mass=242.12666
ionization energy=70 eV
ion type=[M]+*
computed spectral entropy=2.641196304361508
computed normalized entropy=0.7209367712296552
SPLASH=splash10-0a4m-7900000000-e9d41d622def26cb64c5
submitter=submitter = University of Tokyo Team (Faculty of Engineering, University of Tokyo)
MoNA Rating=3.75

>  <NUM PEAKS>  (4604) 
39

>  <MASS SPECTRAL PEAKS>  (4604) 
39 4.9
40 0.9
41 23.9
42 0.59
43 15.9
44 6.9
45 33.9
53 0.39
54 1.9
55 7.9
56 1.9
57 0.39
67 5.9
68 2.4
69 37.9
70 0.69
71 8.9
94 0.9
95 1.4
96 0.09
97 5.4
98 10.9
111 1.4
112 0.59
113 0.9
114 1.4
141 58.9
142 0.39
154 0.9
155 6.9
156 99.99
157 4.39
195 15.9
196 1.9
197 21.9
198 0.14
224 1.9
227 1.9
242 1.9

>  <PREDICTED SPECTRUM>  (4604) 
16 2
17 9
18 33
19 10
26 33
27 161
28 123
29 172
30 27
31 140
36 25
38 53
39 272
40 232
41 736
42 557
43 853
44 528
45 877
46 157
50 9
51 126
52 170
53 394
54 388
55 586
56 261
57 426
58 181
59 246
60 67
62 64
63 6
64 61
65 62
66 60
67 102
68 225
69 905
70 459
71 300
72 138
73 270
74 98
75 55
77 71
78 100
79 73
80 151
81 230
82 296
83 552
84 232
85 103
86 88
87 150
88 107
89 144
90 15
93 58
94 99
95 84
96 204
97 449
98 279
99 324
100 296
101 71
109 112
110 103
111 22
112 94
113 179
114 98
115 70
116 21
119 2
120 105
121 95
122 118
123 125
124 97
125 392
126 230
127 384
128 184
129 153
130 62
138 2
139 92
140 189
141 663
142 388
143 170
144 37
152 108
153 241
154 72
155 590
156 495
157 339
158 82
167 72
169 527
170 322
171 120
180 121
181 137
183 160
184 188
185 175
195 71
196 131
197 328
198 999
199 345
200 139
227 77
242 168
243 77

$$$$

     RDKit          2D

 13 13  0  0  0  0  0  0  0  0999 V2000
    3.7413    1.6389    0.0000 C   0  0  0  0  0  0  0  0  0  0  0  0
    3.2899    2.4204    0.0000 C   0  0  0  0  0  0  0  0  0  0  0  0
   -2.5989    1.5002    0.0000 C   0  0  0  0  0  0  0  0  0  0  0  0
    2.7772    0.4897    0.0000 C   0  0  0  0  0  0  0  0  0  0  0  0
    1.8127    2.1596    0.0000 C   0  0  0  0  0  0  0  0  0  0  0  0
   -1.3000   -0.7500    0.0000 C   0  0  0  0  0  0  0  0  0  0  0  0
   -1.3000    0.7500    0.0000 C   0  0  0  0  0  0  0  0  0  0  0  0
    0.0000    1.5000    0.0000 C   0  0  0  0  0  0  0  0  0  0  0  0
    1.3000   -0.7500    0.0000 C   0  0  0  0  0  0  0  0  0  0  0  0
    1.3000    0.7500    0.0000 C   0  0  0  0  0  0  0  0  0  0  0  0
   -0.0000   -1.5000    0.0000 N   0  0  0  0  0  0  0  0  0  0  0  0
    0.0000    3.0000    0.0000 O   0  0  0  0  0  0  0  0  0  0  0  0
    2.5989   -1.5002    0.0000 O   0  0  0  0  0  0  0  0  0  0  0  0
  4  1  1  0
  5  2  1  0
  7  3  1  0
  7  6  1  0
  8  7  1  0
 10  4  1  0
 10  5  1  0
 10  8  1  0
 10  9  1  0
 11  6  1  0
 11  9  2  0
 12  8  2  0
 13  9  1  0
M  END
>  <NAME>  (4605) 
METHYPRYLON

>  <SYNONYMS>  (4605) 


>  <SPECTRUM TYPE>  (4605) 
MS1

>  <INSTRUMENT TYPE>  (4605) 
EI-B

>  <INSTRUMENT>  (4605) 
Unknown

>  <ION MODE>  (4605) 
P

>  <INCHIKEY>  (4605) 
SIDLZWOQUZRBRU-UHFFFAOYSA-N

>  <FORMULA>  (4605) 
C10H17NO2

>  <EXACT MASS>  (4605) 
183.125928784

>  <MW>  (4605) 
183

>  <ID>  (4605) 
JP003822

>  <CONTRIBUTOR>  (4605) 
University of Tokyo Team, {Faculty of Engineering, University of Tokyo

>  <COMMENT>  (4605) 
SMILES=CCC(CC)(C(=O)1)C(=O)C(C)CN1
InChI=InChI=1S/C10H17NO2/c1-4-10(5-2)8(12)7(3)6-11-9(10)13/h7H,4-6H2,1-3H3,(H,11,13)
computed SMILES=O=C1C(C)CN=C(O)C1(CC)CC
accession=JP003822
date=2016.01.19 (Created 2008.10.21, modified 2011.05.06)
author=SASAKI S, TOYOHASHI UNIV. OF TECH.
license=CC BY-NC-SA
exact mass=183.12593
ionization energy=70 eV
ion type=[M]+*
computed spectral entropy=2.177693448571909
computed normalized entropy=0.6683943901473034
SPLASH=splash10-0a4l-6900000000-385d8cb9bf60082827ac
submitter=submitter = University of Tokyo Team (Faculty of Engineering, University of Tokyo)
MoNA Rating=3.75

>  <NUM PEAKS>  (4605) 
26

>  <MASS SPECTRAL PEAKS>  (4605) 
51 0.9
52 0.9
53 6.9
54 0.29
55 33.9
56 8.9
57 7.9
58 0.39
83 53.9
84 5.9
85 5.9
86 0.49
95 0.9
96 0.9
97 7.9
98 4.69
99 4.9
140 76.9
141 7.9
142 0.09
154 7.9
155 99.99
156 2.4
168 0.74
169 0.9
183 2.9

>  <PREDICTED SPECTRUM>  (4605) 
26 51
27 134
28 50
29 142
38 27
39 321
40 172
41 741
42 447
43 335
44 112
45 44
46 21
50 45
51 119
52 119
53 333
54 255
55 999
56 558
57 300
58 205
59 127
60 68
65 103
66 84
67 292
68 274
69 666
70 450
71 125
72 110
73 95
77 80
78 24
79 78
80 100
81 174
82 360
83 934
84 397
85 198
86 244
87 71
91 61
93 3
94 17
95 122
96 201
97 199
98 383
99 87
100 93
101 142
108 73
109 38
110 77
111 9
112 163
113 9
114 24
122 24
124 65
125 70
126 189
127 17
136 152
137 23
138 127
139 15
140 176
141 68
152 0
154 808
155 393
156 116
168 286
169 48
183 458
184 143

$$$$

     RDKit          2D

 17 18  0  0  0  0  0  0  0  0999 V2000
   -2.1861   -2.2041    0.0000 C   0  0  0  0  0  0  0  0  0  0  0  0
   -4.7005   -0.5901    0.0000 C   0  0  0  0  0  0  0  0  0  0  0  0
   -4.4278    1.9936    0.0000 C   0  0  0  0  0  0  0  0  0  0  0  0
    0.9954   -1.5283    0.0000 C   0  0  0  0  0  0  0  0  0  0  0  0
    3.9461    3.2210    0.0000 C   0  0  0  0  0  0  0  0  0  0  0  0
    3.9465    1.7202    0.0000 C   0  0  0  0  0  0  0  0  0  0  0  0
    2.6465    3.9719    0.0000 C   0  0  0  0  0  0  0  0  0  0  0  0
    2.6475    0.9702    0.0000 C   0  0  0  0  0  0  0  0  0  0  0  0
    1.3475    3.2219    0.0000 C   0  0  0  0  0  0  0  0  0  0  0  0
   -1.5766   -0.8335    0.0000 C   0  0  0  0  0  0  0  0  0  0  0  0
    1.3480    1.7210    0.0000 C   0  0  0  0  0  0  0  0  0  0  0  0
   -2.3266    0.4656    0.0000 C   0  0  0  0  0  0  0  0  0  0  0  0
   -1.3268    1.5739    0.0000 C   0  0  0  0  0  0  0  0  0  0  0  0
   -3.8183    0.6230    0.0000 N   0  0  0  0  0  0  0  0  0  0  0  0
   -0.1168   -0.5218    0.0000 N   0  0  0  0  0  0  0  0  0  0  0  0
    0.0489    0.9710    0.0000 N   0  0  0  0  0  0  0  0  0  0  0  0
   -1.6423    3.0404    0.0000 O   0  0  0  0  0  0  0  0  0  0  0  0
  6  5  2  0
  7  5  1  0
  8  6  1  0
  9  7  2  0
 10  1  1  0
 11  8  2  0
 11  9  1  0
 12 10  2  0
 13 12  1  0
 14  2  1  0
 14  3  1  0
 14 12  1  0
 15  4  1  0
 15 10  1  0
 16 11  1  0
 16 13  1  0
 16 15  1  0
 17 13  2  0
M  END
>  <NAME>  (4606) 
AMINOPYRINE

>  <SYNONYMS>  (4606) 


>  <SPECTRUM TYPE>  (4606) 
MS1

>  <INSTRUMENT TYPE>  (4606) 
EI-B

>  <INSTRUMENT>  (4606) 
Unknown

>  <ION MODE>  (4606) 
P

>  <INCHIKEY>  (4606) 
RMMXTBMQSGEXHJ-UHFFFAOYSA-N

>  <FORMULA>  (4606) 
C13H17N3O

>  <EXACT MASS>  (4606) 
231.13716216400002

>  <MW>  (4606) 
231

>  <ID>  (4606) 
JP003821

>  <CONTRIBUTOR>  (4606) 
University of Tokyo Team, {Faculty of Engineering, University of Tokyo

>  <COMMENT>  (4606) 
SMILES=CN(C)C(=C(C)1)C(=O)N(c(c2)cccc2)N(C)1
InChI=InChI=1S/C13H17N3O/c1-10-12(14(2)3)13(17)16(15(10)4)11-8-6-5-7-9-11/h5-9H,1-4H3
computed SMILES=O=C1C(=C(N(N1C=2C=CC=CC2)C)C)N(C)C
accession=JP003821
date=2016.01.19 (Created 2008.10.21, modified 2011.05.06)
author=SASAKI S, TOYOHASHI UNIV. OF TECH.
license=CC BY-NC-SA
exact mass=231.13716
ionization energy=70 eV
ion type=[M]+*
computed spectral entropy=2.264525105336884
computed normalized entropy=0.6421706145838204
SPLASH=splash10-0a4i-9100000000-40e7051a3536ae680d1a
submitter=submitter = University of Tokyo Team (Faculty of Engineering, University of Tokyo)
MoNA Rating=3.75

>  <NUM PEAKS>  (4606) 
34

>  <MASS SPECTRAL PEAKS>  (4606) 
41 4.9
42 12.9
43 2.9
44 0.24
53 0.9
54 3.9
55 5.9
56 99.99
57 5.9
58 0.9
69 0.9
70 0.59
71 7.9
72 1.9
73 0.4
76 0.19
77 8.4
78 0.4
97 35.9
98 0.39
99 0.9
111 11.9
112 7.9
113 0.04
119 3.9
120 0.4
121 0.4
122 0.09
123 5.9
124 0.9
230 1.9
231 3.59
232 3.9
233 0.9

>  <PREDICTED SPECTRUM>  (4606) 
15 18
26 20
27 54
28 56
29 75
30 84
32 10
33 10
34 7
37 9
38 56
39 175
40 107
41 168
42 394
43 171
44 171
45 106
46 0
49 3
50 72
51 215
52 110
53 122
54 171
55 180
56 703
57 207
58 115
59 18
62 20
63 108
64 122
65 190
66 139
67 153
68 159
69 155
70 168
71 134
72 74
73 63
74 40
75 59
76 39
77 370
78 125
79 86
80 95
81 127
82 176
83 217
84 171
85 123
86 29
87 24
88 10
89 63
90 46
91 233
92 166
93 191
94 77
95 115
96 109
97 207
98 167
99 79
100 29
101 18
102 59
103 83
104 183
105 182
106 135
107 73
108 77
109 136
110 143
111 205
112 174
113 90
115 74
116 58
117 108
118 245
119 175
120 152
121 196
122 122
123 108
124 34
125 87
126 23
127 68
128 36
129 95
130 75
131 83
132 110
133 105
134 92
135 42
136 78
137 101
138 106
139 334
140 198
141 100
142 26
143 74
144 83
145 161
146 121
147 121
148 74
153 0
154 31
155 14
156 71
157 125
158 102
159 186
160 166
161 142
162 31
163 14
168 22
169 59
170 70
171 114
172 124
173 173
174 108
175 90
184 37
185 107
186 171
187 235
188 180
189 128
190 30
198 75
199 112
200 128
201 84
202 189
203 99
204 30
213 91
214 182
215 123
216 399
217 157
218 53
228 36
229 36
230 173
231 999
232 413
233 147
234 46

$$$$

     RDKit          2D

 18 19  0  0  0  0  0  0  0  0999 V2000
    1.5392    3.2500    0.0000 C   0  0  0  0  0  0  0  0  0  0  0  0
    5.5454    1.4786    0.0000 C   0  0  0  0  0  0  0  0  0  0  0  0
   -1.6422    2.5742    0.0000 C   0  0  0  0  0  0  0  0  0  0  0  0
   -4.5929   -2.1751    0.0000 C   0  0  0  0  0  0  0  0  0  0  0  0
   -4.5934   -0.6743    0.0000 C   0  0  0  0  0  0  0  0  0  0  0  0
   -3.2934   -2.9260    0.0000 C   0  0  0  0  0  0  0  0  0  0  0  0
   -3.2943    0.0757    0.0000 C   0  0  0  0  0  0  0  0  0  0  0  0
   -1.9943   -2.1760    0.0000 C   0  0  0  0  0  0  0  0  0  0  0  0
    0.9297    1.8794    0.0000 C   0  0  0  0  0  0  0  0  0  0  0  0
    4.0537    1.6360    0.0000 C   0  0  0  0  0  0  0  0  0  0  0  0
   -1.9948   -0.6751    0.0000 C   0  0  0  0  0  0  0  0  0  0  0  0
    1.6797    0.5803    0.0000 C   0  0  0  0  0  0  0  0  0  0  0  0
    0.6800   -0.5280    0.0000 C   0  0  0  0  0  0  0  0  0  0  0  0
    3.1714    0.4229    0.0000 N   0  0  0  0  0  0  0  0  0  0  0  0
   -0.5300    1.5677    0.0000 N   0  0  0  0  0  0  0  0  0  0  0  0
   -0.6958    0.0749    0.0000 N   0  0  0  0  0  0  0  0  0  0  0  0
    3.4442    3.0066    0.0000 O   0  0  0  0  0  0  0  0  0  0  0  0
    0.9955   -1.9945    0.0000 O   0  0  0  0  0  0  0  0  0  0  0  0
  5  4  2  0
  6  4  1  0
  7  5  1  0
  8  6  2  0
  9  1  1  0
 10  2  1  0
 11  7  2  0
 11  8  1  0
 12  9  2  0
 13 12  1  0
 14 10  2  3
 14 12  1  0
 15  3  1  0
 15  9  1  0
 16 11  1  0
 16 13  1  0
 16 15  1  0
 17 10  1  0
 18 13  2  0
M  END
>  <NAME>  (4607) 
4-(ACETYLAMINO)ANTIPYRINE

>  <SYNONYMS>  (4607) 


>  <SPECTRUM TYPE>  (4607) 
MS1

>  <INSTRUMENT TYPE>  (4607) 
EI-B

>  <INSTRUMENT>  (4607) 
Unknown

>  <ION MODE>  (4607) 
P

>  <INCHIKEY>  (4607) 
OIAGWXKSCXPNNZ-UHFFFAOYSA-N

>  <FORMULA>  (4607) 
C13H15N3O2

>  <EXACT MASS>  (4607) 
245.11642672

>  <MW>  (4607) 
245

>  <ID>  (4607) 
JP003819

>  <CONTRIBUTOR>  (4607) 
University of Tokyo Team, {Faculty of Engineering, University of Tokyo

>  <COMMENT>  (4607) 
SMILES=CC(=O)NC(=C(C)1)C(=O)N(c(c2)cccc2)N(C)1
InChI=InChI=1S/C13H15N3O2/c1-9-12(14-10(2)17)13(18)16(15(9)3)11-7-5-4-6-8-11/h4-8H,1-3H3,(H,14,17)
computed SMILES=O=C1C(N=C(O)C)=C(N(N1C=2C=CC=CC2)C)C
accession=JP003819
date=2016.01.19 (Created 2008.10.21, modified 2011.05.06)
author=SASAKI S, TOYOHASHI UNIV. OF TECH.
license=CC BY-NC-SA
exact mass=245.11643
ionization energy=70 eV
ion type=[M]+*
computed spectral entropy=2.2696072007529184
computed normalized entropy=0.7050931207779192
SPLASH=splash10-0a59-9030000000-6294a9c16bbcebf441a7
submitter=submitter = University of Tokyo Team (Faculty of Engineering, University of Tokyo)
MoNA Rating=3.75

>  <NUM PEAKS>  (4607) 
25

>  <MASS SPECTRAL PEAKS>  (4607) 
39 2.9
41 2.9
42 10.9
43 1.99
44 2.9
52 1.9
53 1.9
54 0.39
55 4.9
56 99.99
57 26.9
58 0.39
77 7.9
83 25.9
84 50.9
91 0.49
92 2.9
93 3.9
119 2.4
202 0.79
203 26.9
204 5.9
245 48.9
246 0.89
247 0.9

>  <PREDICTED SPECTRUM>  (4607) 
14 1
15 28
16 3
17 13
18 4
26 12
27 13
28 72
29 51
30 83
32 16
33 16
34 6
37 9
38 50
39 151
40 114
41 170
42 232
43 268
44 129
45 48
49 19
50 91
51 220
52 124
53 131
54 236
55 103
56 999
57 298
58 64
59 8
62 15
63 100
64 141
65 197
66 127
67 135
68 131
69 122
70 205
71 83
72 17
73 23
74 47
75 56
76 60
77 363
78 108
79 80
80 86
81 119
82 127
83 431
84 241
85 67
86 53
87 22
88 67
89 89
90 25
91 298
92 155
93 165
94 98
95 120
96 121
97 130
98 99
99 75
100 14
102 30
103 66
104 144
105 144
106 108
107 96
108 74
109 212
110 112
111 137
112 70
113 25
115 61
116 76
117 64
118 177
119 162
120 102
121 90
122 16
123 60
124 96
125 192
126 112
127 41
129 20
130 29
131 36
132 74
133 63
134 205
135 148
136 176
137 265
138 86
139 42
141 64
143 58
144 42
145 39
146 53
147 55
148 71
150 3
152 84
153 194
154 105
155 31
156 15
157 75
158 95
159 99
160 55
162 85
163 40
164 25
165 24
171 13
173 115
174 98
175 45
177 6
182 36
184 92
185 50
186 173
187 116
188 47
198 45
199 0
200 138
201 209
202 172
203 62
212 20
213 7
214 75
216 27
217 19
226 68
227 123
228 213
229 42
230 162
231 6
243 73
244 153
245 855
246 359
247 110
248 12

$$$$

     RDKit          2D

 16 17  0  0  0  0  0  0  0  0999 V2000
   -1.8074    3.4031    0.0000 C   0  0  0  0  0  0  0  0  0  0  0  0
   -0.0000   -2.7800    0.0000 C   0  0  0  0  0  0  0  0  0  0  0  0
   -0.5936    2.5218    0.0000 C   0  0  0  0  0  0  0  0  0  0  0  0
   -5.1522    1.9630    0.0000 C   0  0  0  0  0  0  0  0  0  0  0  0
   -4.6880    0.5358    0.0000 C   0  0  0  0  0  0  0  0  0  0  0  0
   -4.1490    3.0793    0.0000 C   0  0  0  0  0  0  0  0  0  0  0  0
   -3.2206    0.2248    0.0000 C   0  0  0  0  0  0  0  0  0  0  0  0
   -2.6816    2.7683    0.0000 C   0  0  0  0  0  0  0  0  0  0  0  0
   -2.2174    1.3410    0.0000 C   0  0  0  0  0  0  0  0  0  0  0  0
   -1.2100   -0.3900    0.0000 C   0  0  0  0  0  0  0  0  0  0  0  0
    1.2100   -0.3900    0.0000 C   0  0  0  0  0  0  0  0  0  0  0  0
   -0.7500    1.0300    0.0000 C   0  0  0  0  0  0  0  0  0  0  0  0
    0.7500    1.0300    0.0000 N   0  0  0  0  0  0  0  0  0  0  0  0
    0.0000   -1.2800    0.0000 N   0  0  0  0  0  0  0  0  0  0  0  0
   -2.6377   -0.8500    0.0000 O   0  0  0  0  0  0  0  0  0  0  0  0
    2.6377   -0.8500    0.0000 O   0  0  0  0  0  0  0  0  0  0  0  0
  3  1  1  0
  5  4  2  0
  6  4  1  0
  7  5  1  0
  8  6  2  0
  9  7  2  0
  9  8  1  0
 12  3  1  0
 12  9  1  0
 12 10  1  0
 13 11  2  0
 13 12  1  0
 14  2  1  0
 14 10  1  0
 14 11  1  0
 15 10  2  0
 16 11  1  0
M  END
>  <NAME>  (4608) 
MEPHENYTOIN

>  <SYNONYMS>  (4608) 


>  <SPECTRUM TYPE>  (4608) 
MS1

>  <INSTRUMENT TYPE>  (4608) 
EI-B

>  <INSTRUMENT>  (4608) 
Unknown

>  <ION MODE>  (4608) 
P

>  <INCHIKEY>  (4608) 
GMHKMTDVRCWUDX-UHFFFAOYSA-N

>  <FORMULA>  (4608) 
C12H14N2O2

>  <EXACT MASS>  (4608) 
218.105527688

>  <MW>  (4608) 
218

>  <ID>  (4608) 
JP003818

>  <CONTRIBUTOR>  (4608) 
University of Tokyo Team, {Faculty of Engineering, University of Tokyo

>  <COMMENT>  (4608) 
SMILES=CCC(N1)(c(c2)cccc2)C(=O)N(C)C(=O)1
InChI=InChI=1S/C12H14N2O2/c1-3-12(9-7-5-4-6-8-9)10(15)14(2)11(16)13-12/h4-8H,3H2,1-2H3,(H,13,16)
computed SMILES=O=C1N(C(O)=NC1(C=2C=CC=CC2)CC)C
accession=JP003818
date=2016.01.19 (Created 2008.10.21, modified 2011.05.06)
author=SASAKI S, TOYOHASHI UNIV. OF TECH.
license=CC BY-NC-SA
exact mass=218.10553
ionization energy=70 eV
ion type=[M]+*
computed spectral entropy=2.0084046665061686
computed normalized entropy=0.5795030904933404
SPLASH=splash10-0f79-2900000000-af8712fc36e2b911e9a8
submitter=submitter = University of Tokyo Team (Faculty of Engineering, University of Tokyo)
MoNA Rating=3.75

>  <NUM PEAKS>  (4608) 
32

>  <MASS SPECTRAL PEAKS>  (4608) 
50 2.9
51 9.9
52 1.9
53 0.02
54 1.4
55 0.4
56 3.9
75 0.14
76 3.9
77 22.9
78 2.9
89 0.14
90 0.4
91 4.4
102 0.9
103 0.59
104 86
105 8.9
116 3.9
117 0.09
118 3.4
119 1.9
132 5.4
133 0.09
160 1.4
161 0.9
189 99.99
190 1.24
191 0.9
203 1.9
218 5.4
219 0.9

>  <PREDICTED SPECTRUM>  (4608) 
15 2
27 15
29 79
30 0
31 12
38 8
39 154
40 67
41 173
42 269
43 144
44 159
45 7
49 10
50 130
51 271
52 137
53 80
54 72
55 112
56 282
57 229
58 179
59 37
62 50
63 136
64 74
65 204
66 65
67 30
68 53
69 165
70 135
71 112
72 169
73 113
74 82
75 68
76 96
77 447
78 207
79 51
80 23
81 45
82 42
83 99
84 185
85 152
86 82
89 246
90 164
91 527
92 143
93 14
95 13
96 44
97 22
98 7
99 78
100 27
102 39
103 161
104 261
105 215
106 172
107 51
112 30
113 87
114 1
115 146
116 46
117 241
118 273
119 151
120 82
121 59
127 107
128 62
130 58
131 91
132 179
133 289
134 160
141 23
143 52
144 2
145 90
146 299
147 65
159 64
160 110
161 187
162 28
171 17
172 27
173 34
174 29
175 79
176 1
189 999
190 310
191 41
203 99
204 30
217 37
218 506
219 175
220 13

$$$$

     RDKit          2D

 21 24  0  0  0  0  0  0  0  0999 V2000
   -5.1667    3.8959    0.0000 C   0  0  0  0  0  0  0  0  0  0  0  0
    3.9000    0.5500    0.0000 C   0  0  0  0  0  0  0  0  0  0  0  0
   -3.9000    0.5500    0.0000 C   0  0  0  0  0  0  0  0  0  0  0  0
    3.9000   -0.9500    0.0000 C   0  0  0  0  0  0  0  0  0  0  0  0
   -3.9000   -0.9500    0.0000 C   0  0  0  0  0  0  0  0  0  0  0  0
    2.6000    1.3000    0.0000 C   0  0  0  0  0  0  0  0  0  0  0  0
   -2.6000    1.3000    0.0000 C   0  0  0  0  0  0  0  0  0  0  0  0
    2.6000   -1.7000    0.0000 C   0  0  0  0  0  0  0  0  0  0  0  0
   -2.6000   -1.7000    0.0000 C   0  0  0  0  0  0  0  0  0  0  0  0
   -1.4565    5.0417    0.0000 C   0  0  0  0  0  0  0  0  0  0  0  0
   -2.9169    5.3501    0.0000 C   0  0  0  0  0  0  0  0  0  0  0  0
   -2.6629    2.9435    0.0000 C   0  0  0  0  0  0  0  0  0  0  0  0
    0.0000    2.8000    0.0000 C   0  0  0  0  0  0  0  0  0  0  0  0
   -1.2990    3.5500    0.0000 C   0  0  0  0  0  0  0  0  0  0  0  0
    1.3000    0.5500    0.0000 C   0  0  0  0  0  0  0  0  0  0  0  0
   -1.3000    0.5500    0.0000 C   0  0  0  0  0  0  0  0  0  0  0  0
    1.3000   -0.9500    0.0000 C   0  0  0  0  0  0  0  0  0  0  0  0
   -1.3000   -0.9500    0.0000 C   0  0  0  0  0  0  0  0  0  0  0  0
   -3.6750    4.0534    0.0000 N   0  0  0  0  0  0  0  0  0  0  0  0
   -0.0000    1.3000    0.0000 N   0  0  0  0  0  0  0  0  0  0  0  0
   -0.0000   -1.7000    0.0000 S   0  0  0  0  0  0  0  0  0  0  0  0
  4  2  2  0
  5  3  2  0
  6  2  1  0
  7  3  1  0
  8  4  1  0
  9  5  1  0
 11 10  1  0
 14 10  1  0
 14 12  1  0
 14 13  1  0
 15  6  2  0
 16  7  2  0
 17  8  2  0
 17 15  1  0
 18  9  2  0
 18 16  1  0
 19  1  1  0
 19 11  1  0
 19 12  1  0
 20 13  1  0
 20 15  1  0
 20 16  1  0
 21 17  1  0
 21 18  1  0
M  END
>  <NAME>  (4609) 
METHDILAZINE

>  <SYNONYMS>  (4609) 


>  <SPECTRUM TYPE>  (4609) 
MS1

>  <INSTRUMENT TYPE>  (4609) 
EI-B

>  <INSTRUMENT>  (4609) 
Unknown

>  <ION MODE>  (4609) 
P

>  <INCHIKEY>  (4609) 
HTMIBDQKFHUPSX-UHFFFAOYSA-N

>  <FORMULA>  (4609) 
C18H20N2S

>  <EXACT MASS>  (4609) 
296.13471964

>  <MW>  (4609) 
296

>  <ID>  (4609) 
JP003816

>  <CONTRIBUTOR>  (4609) 
University of Tokyo Team, {Faculty of Engineering, University of Tokyo

>  <COMMENT>  (4609) 
SMILES=CN(C4)CC(C4)CN(c21)c(c3)c(ccc3)Sc(cccc2)1
InChI=InChI=1S/C18H20N2S/c1-19-11-10-14(12-19)13-20-15-6-2-4-8-17(15)21-18-9-5-3-7-16(18)20/h2-9,14H,10-13H2,1H3
computed SMILES=S1C=2C=CC=CC2N(C=3C=CC=CC13)CC4CN(C)CC4
accession=JP003816
date=2016.01.19 (Created 2008.10.21, modified 2011.05.06)
author=SASAKI S, TOYOHASHI UNIV. OF TECH.
license=CC BY-NC-SA
exact mass=296.13472
ionization energy=70 eV
ion type=[M]+*
computed spectral entropy=2.9392310694701997
computed normalized entropy=0.7634073738276238
SPLASH=splash10-0002-9310000000-08a0f77b83bac7e129ee
submitter=submitter = University of Tokyo Team (Faculty of Engineering, University of Tokyo)
MoNA Rating=3.75

>  <NUM PEAKS>  (4609) 
47

>  <MASS SPECTRAL PEAKS>  (4609) 
55 94
56 8.9
57 14.9
58 0.49
70 19.9
77 6.9
82 44.9
83 2.09
84 14.9
89 1.9
96 2.9
97 99.99
98 95
99 6.9
108 3.9
109 0.49
127 5.9
128 3.9
139 4.9
140 0.39
151 2.9
152 6.9
153 4.9
154 0.89
155 1.9
166 5.9
167 4.9
168 0.39
179 6.9
180 31.9
181 5.9
182 0.09
184 3.9
196 2.9
197 4.9
198 3.39
199 36.9
200 6.9
212 27.9
213 1.24
214 3.9
238 4.9
239 1.9
252 0.24
296 31.9
297 7.9
298 2.9

>  <PREDICTED SPECTRUM>  (4609) 
39 144
40 16
41 200
42 200
43 173
44 121
45 133
47 31
50 17
51 118
52 66
53 100
54 95
55 158
56 51
57 51
58 146
59 42
63 88
65 132
66 10
67 41
68 40
69 103
70 214
71 64
72 31
74 37
75 99
76 4
77 121
78 20
79 15
80 2
81 82
82 219
83 82
84 47
95 74
96 244
97 320
98 393
99 83
100 38
101 5
102 2
103 16
105 79
106 38
107 20
109 76
110 116
111 18
112 28
113 43
114 23
115 52
117 41
118 21
122 44
123 136
124 435
125 42
126 76
127 123
128 20
131 62
132 78
133 74
137 24
138 66
139 101
140 161
150 87
152 45
154 207
155 39
156 125
157 85
165 3
170 64
171 209
172 68
173 143
174 51
182 15
183 70
184 189
185 84
186 171
187 52
188 91
196 366
197 451
198 902
199 999
200 103
201 21
204 27
210 60
211 33
212 127
213 98
215 42
224 23
225 36
226 180
256 35
266 8
267 78
281 0
294 96
295 274
296 677
297 307
298 108

$$$$

     RDKit          2D

 13 13  0  0  0  0  0  0  0  0999 V2000
   -1.6243    0.1884    0.0000 C   0  0  0  0  0  0  0  0  0  0  0  0
   -2.9241   -3.5633    0.0000 C   0  0  0  0  0  0  0  0  0  0  0  0
   -1.6250   -4.3133    0.0000 C   0  0  0  0  0  0  0  0  0  0  0  0
   -2.9236   -2.0624    0.0000 C   0  0  0  0  0  0  0  0  0  0  0  0
   -0.3255   -3.5624    0.0000 C   0  0  0  0  0  0  0  0  0  0  0  0
    4.8711   -2.0624    0.0000 C   0  0  0  0  0  0  0  0  0  0  0  0
    2.2730   -2.0620    0.0000 C   0  0  0  0  0  0  0  0  0  0  0  0
   -1.6241   -1.3116    0.0000 C   0  0  0  0  0  0  0  0  0  0  0  0
    3.5722   -1.3122    0.0000 C   0  0  0  0  0  0  0  0  0  0  0  0
   -0.3250   -2.0616    0.0000 C   0  0  0  0  0  0  0  0  0  0  0  0
    6.1703   -1.3127    0.0000 O   0  0  0  0  0  0  0  0  0  0  0  0
    3.5724    0.1878    0.0000 O   0  0  0  0  0  0  0  0  0  0  0  0
    0.9741   -1.3118    0.0000 O   0  0  0  0  0  0  0  0  0  0  0  0
  3  2  2  0
  4  2  1  0
  5  3  1  0
  8  1  1  0
  8  4  2  0
  9  6  1  0
  9  7  1  0
 10  5  2  0
 10  8  1  0
 11  6  1  0
 12  9  1  0
 13  7  1  0
 13 10  1  0
M  END
>  <NAME>  (4610) 
GLYCEROL-1-(O-TOLYL) ETHER

>  <SYNONYMS>  (4610) 
MEPHENESIN

>  <SPECTRUM TYPE>  (4610) 
MS1

>  <INSTRUMENT TYPE>  (4610) 
EI-B

>  <INSTRUMENT>  (4610) 
Unknown

>  <ION MODE>  (4610) 
P

>  <INCHIKEY>  (4610) 
JWDYCNIAQWPBHD-UHFFFAOYSA-N

>  <FORMULA>  (4610) 
C10H14O3

>  <EXACT MASS>  (4610) 
182.09429430799997

>  <MW>  (4610) 
182

>  <ID>  (4610) 
JP003815

>  <CONTRIBUTOR>  (4610) 
University of Tokyo Team, {Faculty of Engineering, University of Tokyo

>  <COMMENT>  (4610) 
SMILES=OCC(O)COc(c1)c(C)ccc1
InChI=InChI=1S/C10H14O3/c1-8-4-2-3-5-10(8)13-7-9(12)6-11/h2-5,9,11-12H,6-7H2,1H3
computed SMILES=OCC(O)COC=1C=CC=CC1C
accession=JP003815
date=2016.01.19 (Created 2008.10.21, modified 2011.05.06)
author=SASAKI S, TOYOHASHI UNIV. OF TECH.
license=CC BY-NC-SA
exact mass=182.09429
ionization energy=70 eV
ion type=[M]+*
computed spectral entropy=2.4917627158619813
computed normalized entropy=0.7256179384149943
SPLASH=splash10-0a4i-5900000000-3ce39ed63d61e07d52b5
submitter=submitter = University of Tokyo Team (Faculty of Engineering, University of Tokyo)
MoNA Rating=3.75

>  <NUM PEAKS>  (4610) 
31

>  <MASS SPECTRAL PEAKS>  (4610) 
51 7.4
52 3.9
53 3.4
54 0.04
55 2.4
56 1.4
57 7.9
61 0.24
62 1.4
63 3.9
65 10.9
77 1.24
78 5.9
79 9.4
80 4.9
89 0.34
90 7.4
91 22.9
92 3.9
93 0.19
105 3.9
106 1.4
107 23.9
108 99.99
109 12.9
121 5.9
122 2.9
133 0.49
151 1.4
182 18.9
183 2.4

>  <PREDICTED SPECTRUM>  (4610) 
14 5
15 54
17 14
18 41
19 29
25 0
26 43
27 131
28 59
29 71
30 42
31 117
33 29
36 0
37 39
38 118
39 324
40 79
41 185
42 144
43 240
44 122
45 304
46 22
49 20
50 185
51 326
52 213
53 175
54 27
55 88
56 83
57 254
58 79
59 25
60 11
61 109
62 101
63 217
64 128
65 394
66 91
71 13
73 38
74 158
75 313
76 60
77 450
78 248
79 328
80 163
89 246
90 234
91 618
92 224
93 116
94 87
105 86
107 439
108 999
109 287
119 0
120 79
121 301
122 57
123 73
126 1
133 256
138 17
151 49
152 2
182 445
183 153
184 8

$$$$

     RDKit          2D

 18 19  0  0  0  0  0  0  0  0999 V2000
    0.7721   -5.0548    0.0000 C   0  0  0  0  0  0  0  0  0  0  0  0
    0.2589   -3.6454    0.0000 C   0  0  0  0  0  0  0  0  0  0  0  0
    2.6999   -1.1932    0.0000 C   0  0  0  0  0  0  0  0  0  0  0  0
    1.7353   -0.0434    0.0000 C   0  0  0  0  0  0  0  0  0  0  0  0
    2.1874   -2.6038    0.0000 C   0  0  0  0  0  0  0  0  0  0  0  0
    0.2582   -0.3042    0.0000 C   0  0  0  0  0  0  0  0  0  0  0  0
    0.7102   -2.8646    0.0000 C   0  0  0  0  0  0  0  0  0  0  0  0
   -1.2184   -3.3850    0.0000 C   0  0  0  0  0  0  0  0  0  0  0  0
   -0.2544   -1.7148    0.0000 C   0  0  0  0  0  0  0  0  0  0  0  0
   -3.0306   -2.7256    0.0000 C   0  0  0  0  0  0  0  0  0  0  0  0
   -1.7320   -0.4747    0.0000 C   0  0  0  0  0  0  0  0  0  0  0  0
   -4.3306   -0.4739    0.0000 C   0  0  0  0  0  0  0  0  0  0  0  0
   -1.7315   -1.9756    0.0000 C   0  0  0  0  0  0  0  0  0  0  0  0
   -4.3301   -1.9747    0.0000 N   0  0  0  0  0  0  0  0  0  0  0  0
   -3.0315    0.2761    0.0000 N   0  0  0  0  0  0  0  0  0  0  0  0
   -3.0308   -4.2256    0.0000 O   0  0  0  0  0  0  0  0  0  0  0  0
   -0.4330    0.2753    0.0000 O   0  0  0  0  0  0  0  0  0  0  0  0
   -5.6297    0.2759    0.0000 O   0  0  0  0  0  0  0  0  0  0  0  0
  2  1  2  0
  4  3  2  0
  5  3  1  0
  6  4  1  0
  7  5  2  0
  8  2  1  0
  9  6  2  0
  9  7  1  0
 13  8  1  0
 13  9  1  0
 13 10  1  0
 13 11  1  0
 14 10  2  0
 14 12  1  0
 15 11  2  0
 15 12  1  0
 16 10  1  0
 17 11  1  0
 18 12  2  0
M  END
>  <NAME>  (4611) 
5-ALLYL-5-PHENYL-BARBITURIC ACID

>  <SYNONYMS>  (4611) 
ALPHENAL

>  <SPECTRUM TYPE>  (4611) 
MS1

>  <INSTRUMENT TYPE>  (4611) 
EI-B

>  <INSTRUMENT>  (4611) 
Unknown

>  <ION MODE>  (4611) 
P

>  <INCHIKEY>  (4611) 
WOIGZSBYKGQJGL-UHFFFAOYSA-N

>  <FORMULA>  (4611) 
C13H12N2O3

>  <EXACT MASS>  (4611) 
244.08479224399997

>  <MW>  (4611) 
244

>  <ID>  (4611) 
JP003814

>  <CONTRIBUTOR>  (4611) 
University of Tokyo Team, {Faculty of Engineering, University of Tokyo

>  <COMMENT>  (4611) 
SMILES=C=CCC(C(=O)2)(C(=O)NC(=O)N2)c(c1)cccc1
InChI=InChI=1S/C13H12N2O3/c1-2-8-13(9-6-4-3-5-7-9)10(16)14-12(18)15-11(13)17/h2-7H,1,8H2,(H2,14,15,16,17,18)
computed SMILES=O=C1N=C(O)C(C(O)=N1)(C=2C=CC=CC2)CC=C
accession=JP003814
date=2016.01.19 (Created 2008.10.21, modified 2011.05.06)
author=SASAKI S, TOYOHASHI UNIV. OF TECH.
license=CC BY-NC-SA
exact mass=244.08479
ionization energy=70 eV
ion type=[M]+*
computed spectral entropy=3.9021445186681842
computed normalized entropy=0.7589264594594377
SPLASH=splash10-0gb9-6960000000-529949b760d860546f3a
submitter=submitter = University of Tokyo Team (Faculty of Engineering, University of Tokyo)
MoNA Rating=3.75

>  <NUM PEAKS>  (4611) 
171

>  <MASS SPECTRAL PEAKS>  (4611) 
26 1.8
27 6.4
28 12
29 0.14
30 0.4
32 1.4
36 1.4
37 0.08
38 1.9
39 19.6
40 1.9
41 0.49
42 2.6
43 3.4
44 4.4
45 0.03
49 0.4
50 6.1
51 17.6
52 0.49
53 2.4
54 0.8
55 0.9
56 0.09
57 0.4
58 0.9
60 0.4
61 0.09
62 3.6
63 11.4
64 6.2
65 0.44
66 1
67 0.8
68 0.9
69 0.01
70 3.4
71 0.2
72 0.2
73 0.04
74 2
75 3
76 5.9
77 2.49
78 10.4
79 1.6
80 0.5
81 0.02
82 0.9
83 0.4
84 0.9
85 0.14
86 1.3
87 1.8
88 1.4
89 1.26
90 3.8
91 9
92 1.4
93 0.06
94 0.7
95 0.5
96 0.4
97 0.06
98 0.7
99 0.6
100 1
101 0.16
102 8.2
103 8
104 44
105 0.76
106 1.1
107 0.3
111 0.1
112 0.02
113 0.4
114 0.9
115 13.4
116 0.38
117 6.1
118 3
119 0.7
121 0.02
122 0.3
123 0.4
124 1.5
125 0.04
126 1.8
127 8.7
128 19.5
129 1.74
130 10.9
131 2.4
132 20.8
133 1.21
134 1.3
135 0.4
139 0.3
140 0.04
141 0.8
142 1.8
143 2.6
144 0.45
145 1.9
146 1.6
147 0.7
148 0.02
149 0.4
152 0.4
153 2.9
154 0.26
155 2.6
156 5.3
157 2.2
158 0.07
159 2
160 11.9
161 3.1
162 0.06
165 0.3
166 0.4
167 1.4
168 0.07
169 0.5
170 0.6
171 0.6
172 1.01
173 3.7
174 1.8
175 1.3
176 0.06
177 0.2
182 0.4
183 1.6
184 0.03
185 4
186 6.3
187 1.6
188 0.04
189 1
198 0.1
199 0.4
200 0.13
201 2.9
202 1.2
203 13.1
204 0.43
205 0.9
209 0.3
210 0.4
211 0.01
212 0.2
213 0.3
214 0.4
215 99.99
216 16.2
217 2
218 0.4
225 0.04
226 0.9
227 7.2
228 1.1
229 1.16
230 1.9
231 0.4
232 0.4
243 0.49
244 19.4
245 3.4
246 0.6

>  <PREDICTED SPECTRUM>  (4611) 
39 220
40 150
41 415
42 217
43 265
44 240
45 36
50 196
51 439
52 146
54 31
55 276
56 194
57 189
62 99
63 207
64 109
65 105
67 39
68 42
69 20
70 46
71 23
74 24
75 86
76 304
77 741
78 313
82 193
84 132
85 125
86 71
89 236
90 188
91 282
98 59
99 49
102 166
103 181
104 706
105 217
106 246
113 66
115 4
116 4
117 130
118 642
119 264
120 0
127 35
131 26
132 126
134 33
135 35
145 21
146 60
148 77
160 42
161 118
162 117
163 68
167 173
168 13
174 48
175 93
176 79
202 243
203 649
204 299
215 77
216 146
217 20
243 432
244 999
245 322
246 47

$$$$

     RDKit          2D

 15 15  0  0  0  0  0  0  0  0999 V2000
   -0.5498    2.7991    0.0000 C   0  0  0  0  0  0  0  0  0  0  0  0
   -2.5989    2.2504    0.0000 C   0  0  0  0  0  0  0  0  0  0  0  0
   -2.0502    0.2013    0.0000 C   0  0  0  0  0  0  0  0  0  0  0  0
    2.5989   -0.7500    0.0000 C   0  0  0  0  0  0  0  0  0  0  0  0
    1.2989   -1.5000    0.0000 C   0  0  0  0  0  0  0  0  0  0  0  0
    2.5989    0.7500    0.0000 C   0  0  0  0  0  0  0  0  0  0  0  0
   -0.0011   -0.7500    0.0000 C   0  0  0  0  0  0  0  0  0  0  0  0
    1.2989    1.5000    0.0000 C   0  0  0  0  0  0  0  0  0  0  0  0
   -0.0011    0.7500    0.0000 C   0  0  0  0  0  0  0  0  0  0  0  0
    3.8978   -1.5002    0.0000 Cl  0  0  0  0  0  0  0  0  0  0  0  0
    1.2989   -3.0000    0.0000 Cl  0  0  0  0  0  0  0  0  0  0  0  0
    3.8978    1.5002    0.0000 Cl  0  0  0  0  0  0  0  0  0  0  0  0
   -1.3000   -1.5002    0.0000 Cl  0  0  0  0  0  0  0  0  0  0  0  0
    1.2989    3.0000    0.0000 Cl  0  0  0  0  0  0  0  0  0  0  0  0
   -1.3000    1.5002    0.0000 Si  0  0  0  0  0  4  0  0  0  0  0  0
  5  4  2  0
  6  4  1  0
  7  5  1  0
  8  6  2  0
  9  7  2  0
  9  8  1  0
 10  4  1  0
 11  5  1  0
 12  6  1  0
 13  7  1  0
 14  8  1  0
 15  1  1  0
 15  2  1  0
 15  3  1  0
 15  9  1  0
M  END
>  <NAME>  (4612) 
PENTACHLOROPHENYL-TRIMETHYLSILANE

>  <SYNONYMS>  (4612) 


>  <SPECTRUM TYPE>  (4612) 
MS1

>  <INSTRUMENT TYPE>  (4612) 
EI-B

>  <INSTRUMENT>  (4612) 
Unknown

>  <ION MODE>  (4612) 
P

>  <INCHIKEY>  (4612) 
FMGLKJDUWUUBBK-UHFFFAOYSA-N

>  <FORMULA>  (4612) 
C9H9Cl5Si

>  <EXACT MASS>  (4612) 
319.89161521799997

>  <MW>  (4612) 
320

>  <ID>  (4612) 
JP003811

>  <CONTRIBUTOR>  (4612) 
University of Tokyo Team, {Faculty of Engineering, University of Tokyo

>  <COMMENT>  (4612) 
SMILES=C[Si](C)(C)c(c(Cl)1)c(Cl)c(Cl)c(Cl)c(Cl)1
InChI=InChI=1S/C9H9Cl5Si/c1-15(2,3)9-7(13)5(11)4(10)6(12)8(9)14/h1-3H3
computed SMILES=ClC=1C(Cl)=C(Cl)C(=C(Cl)C1Cl)[Si](C)(C)C
accession=JP003811
date=2016.01.19 (Created 2008.10.21, modified 2011.05.06)
author=SASAKI S, TOYOHASHI UNIV. OF TECH.
license=CC BY-NC-SA
exact mass=319.89162
ionization energy=70 eV
ion type=[M]+*
computed spectral entropy=3.264625977044492
computed normalized entropy=0.7941440396641802
SPLASH=splash10-0bt9-3539000000-4dad76265e1842c67c73
submitter=submitter = University of Tokyo Team (Faculty of Engineering, University of Tokyo)
MoNA Rating=3.75

>  <NUM PEAKS>  (4612) 
61

>  <MASS SPECTRAL PEAKS>  (4612) 
36 5.7
38 1.9
45 4
63 1.97
65 11.3
73 14.5
75 3
79 0.03
86 2.7
87 4
93 24
95 0.97
97 3.2
101 7.1
102 5.2
107 0.44
109 2.3
113 57
114 4
115 0.4
116 2.4
117 7.5
121 3.3
133 0.85
135 8.5
136 4.5
137 4.5
142 0.68
144 4.1
157 5.8
159 3.5
207 0.84
209 7.5
211 2.2
212 2.5
214 0.31
233 4.5
235 4.8
237 2.1
247 0.24
249 4
250 2.7
251 2.5
282 0.92
284 17.5
286 13
288 6.2
305 0.62
306 9.2
307 99.99
308 14.6
309 0.67
310 9.6
311 23.6
312 3.3
313 0.43
320 9.2
322 15.1
323 2.1
324 0.98
326 3.4

>  <PREDICTED SPECTRUM>  (4612) 
15 11
27 3
29 10
33 3
35 33
36 69
39 8
41 10
42 13
43 178
44 113
45 283
46 23
47 69
49 6
50 47
51 42
52 11
53 71
55 50
56 7
57 129
58 75
59 165
60 36
61 64
62 23
63 305
64 86
65 245
66 14
67 52
69 51
70 14
71 68
72 47
73 232
74 46
75 156
76 59
77 81
78 96
79 143
80 24
81 85
84 0
85 58
86 72
87 95
88 40
89 69
91 51
92 94
93 615
94 130
95 421
96 72
97 88
98 4
99 89
100 36
101 131
102 60
103 47
104 30
105 60
106 52
107 130
109 102
111 47
113 432
114 142
115 431
116 133
117 156
118 13
119 45
120 35
121 30
122 39
123 117
124 63
125 16
128 25
130 14
131 44
132 52
133 63
134 43
135 111
141 68
142 186
143 109
144 77
145 92
146 21
149 108
150 8
151 154
153 15
155 15
156 26
157 91
159 149
160 5
165 44
166 23
169 10
171 30
172 29
173 40
175 76
177 29
178 25
179 62
180 1
181 60
182 37
183 40
184 6
185 1
186 26
187 66
188 9
189 63
193 1
194 11
195 18
196 5
209 74
211 87
212 89
213 115
214 67
215 78
217 13
219 53
220 23
221 26
223 12
225 19
227 3
233 99
234 61
235 153
236 67
237 89
238 12
242 0
243 9
244 22
245 36
246 60
247 107
248 18
249 117
250 64
251 134
252 33
253 20
254 12
255 44
257 61
261 18
263 66
269 34
270 11
271 72
272 43
273 38
275 62
285 69
287 61
289 28
292 33
305 791
306 331
307 999
308 346
309 743
311 437
320 334
321 129
322 379
323 148
324 301
325 79

$$$$

     RDKit          2D

 15 15  0  0  0  0  0  0  0  0999 V2000
   -0.5498    2.7991    0.0000 C   0  0  0  0  0  0  0  0  0  0  0  0
   -2.5989    2.2504    0.0000 C   0  0  0  0  0  0  0  0  0  0  0  0
   -2.0502    0.2013    0.0000 C   0  0  0  0  0  0  0  0  0  0  0  0
    2.5989   -0.7500    0.0000 C   0  0  0  0  0  0  0  0  0  0  0  0
    1.2989   -1.5000    0.0000 C   0  0  0  0  0  0  0  0  0  0  0  0
    2.5989    0.7500    0.0000 C   0  0  0  0  0  0  0  0  0  0  0  0
   -0.0011   -0.7500    0.0000 C   0  0  0  0  0  0  0  0  0  0  0  0
    1.2989    1.5000    0.0000 C   0  0  0  0  0  0  0  0  0  0  0  0
   -0.0011    0.7500    0.0000 C   0  0  0  0  0  0  0  0  0  0  0  0
    3.8978   -1.5002    0.0000 F   0  0  0  0  0  0  0  0  0  0  0  0
    1.2989   -3.0000    0.0000 F   0  0  0  0  0  0  0  0  0  0  0  0
    3.8978    1.5002    0.0000 F   0  0  0  0  0  0  0  0  0  0  0  0
   -1.3000   -1.5002    0.0000 F   0  0  0  0  0  0  0  0  0  0  0  0
    1.2989    3.0000    0.0000 F   0  0  0  0  0  0  0  0  0  0  0  0
   -1.3000    1.5002    0.0000 Si  0  0  0  0  0  4  0  0  0  0  0  0
  5  4  2  0
  6  4  1  0
  7  5  1  0
  8  6  2  0
  9  7  2  0
  9  8  1  0
 10  4  1  0
 11  5  1  0
 12  6  1  0
 13  7  1  0
 14  8  1  0
 15  1  1  0
 15  2  1  0
 15  3  1  0
 15  9  1  0
M  END
>  <NAME>  (4613) 
PENTAFLUOROPHENYL-TRIMETHYLSILANE

>  <SYNONYMS>  (4613) 


>  <SPECTRUM TYPE>  (4613) 
MS1

>  <INSTRUMENT TYPE>  (4613) 
EI-B

>  <INSTRUMENT>  (4613) 
Unknown

>  <ION MODE>  (4613) 
P

>  <INCHIKEY>  (4613) 
GABHTFORECKGBB-UHFFFAOYSA-N

>  <FORMULA>  (4613) 
C9H9F5Si

>  <EXACT MASS>  (4613) 
240.03936791799998

>  <MW>  (4613) 
240

>  <ID>  (4613) 
JP003810

>  <CONTRIBUTOR>  (4613) 
University of Tokyo Team, {Faculty of Engineering, University of Tokyo

>  <COMMENT>  (4613) 
SMILES=Fc(c(F)1)c(F)c(F)c(c(F)1)[Si](C)(C)C
InChI=InChI=1S/C9H9F5Si/c1-15(2,3)9-7(13)5(11)4(10)6(12)8(9)14/h1-3H3
computed SMILES=FC=1C(F)=C(F)C(=C(F)C1F)[Si](C)(C)C
accession=JP003810
date=2016.01.19 (Created 2008.10.21, modified 2011.05.06)
author=SASAKI S, TOYOHASHI UNIV. OF TECH.
license=CC BY-NC-SA
exact mass=240.03937
ionization energy=70 eV
ion type=[M]+*
computed spectral entropy=2.4736695439315577
computed normalized entropy=0.7074686670759176
SPLASH=splash10-004i-9330000000-6dec030a4b049c52720d
submitter=submitter = University of Tokyo Team (Faculty of Engineering, University of Tokyo)
MoNA Rating=3.75

>  <NUM PEAKS>  (4613) 
33

>  <MASS SPECTRAL PEAKS>  (4613) 
47 12.5
49 12
51 3
58 0.08
69 1.2
73 6
75 16.5
76 0.25
77 99.99
78 8
79 6.5
81 1.75
91 2.3
93 2.5
95 2.5
99 0.06
110 2.2
119 4.5
125 42
126 0.32
129 6.1
143 2.4
159 10.4
167 0.12
168 2.6
185 1.3
202 3.5
225 0.87
226 13
227 4
240 42
241 0.63
242 1.9

>  <PREDICTED SPECTRUM>  (4613) 
15 41
18 10
26 18
27 82
28 120
29 118
31 153
32 2
33 17
36 25
37 39
38 50
39 140
40 43
41 143
42 100
43 336
44 235
45 341
46 101
47 421
48 98
49 306
50 156
51 184
52 99
53 176
54 53
55 191
56 93
57 287
58 189
59 292
60 125
61 156
62 151
63 313
64 96
65 202
66 84
67 165
68 107
69 236
70 66
71 124
72 196
73 449
74 257
75 513
76 221
77 999
78 309
79 613
80 223
81 605
82 165
83 141
84 35
85 198
86 107
87 107
88 22
89 56
90 42
91 193
92 158
93 273
94 77
95 233
96 70
97 250
98 202
99 377
100 79
101 253
102 82
103 159
104 163
105 343
106 140
107 135
108 67
109 159
110 190
111 183
112 76
113 216
114 79
115 68
116 156
117 349
118 86
119 283
120 95
121 129
122 5
123 174
124 113
125 529
126 123
127 150
128 86
129 299
130 121
131 200
132 126
133 114
134 6
135 52
137 135
139 113
140 15
141 166
143 247
144 122
145 473
146 89
147 237
148 202
149 95
157 0
159 102
160 24
161 176
162 70
163 242
164 17
165 31
166 45
167 79
168 97
175 70
176 66
177 98
179 2
180 2
181 19
185 8
189 35
190 8
191 15
193 14
195 64
205 132
206 57
207 43
209 148
210 31
211 49
223 54
225 444
226 240
227 242
228 30
239 108
240 604
241 254
242 158
243 26

$$$$

     RDKit          2D

 36 38  0  0  0  0  0  0  0  0999 V2000
    2.6179    4.2813    0.0000 C   0  0  0  0  0  0  0  0  0  0  0  0
    9.6318    2.1205    0.0000 C   0  0  0  0  0  0  0  0  0  0  0  0
   -0.6590   -3.8221    0.0000 C   0  0  0  0  0  0  0  0  0  0  0  0
    4.0958    4.0202    0.0000 C   0  0  0  0  0  0  0  0  0  0  0  0
    1.6537    3.1322    0.0000 C   0  0  0  0  0  0  0  0  0  0  0  0
    9.6313    0.6196    0.0000 C   0  0  0  0  0  0  0  0  0  0  0  0
    8.3328    2.8705    0.0000 C   0  0  0  0  0  0  0  0  0  0  0  0
   -0.6585   -2.3212    0.0000 C   0  0  0  0  0  0  0  0  0  0  0  0
    0.6401   -4.5721    0.0000 C   0  0  0  0  0  0  0  0  0  0  0  0
    4.6096    2.6101    0.0000 C   0  0  0  0  0  0  0  0  0  0  0  0
    2.1675    1.7221    0.0000 C   0  0  0  0  0  0  0  0  0  0  0  0
    8.3318   -0.1312    0.0000 C   0  0  0  0  0  0  0  0  0  0  0  0
    7.0332    2.1196    0.0000 C   0  0  0  0  0  0  0  0  0  0  0  0
    0.6410   -1.5704    0.0000 C   0  0  0  0  0  0  0  0  0  0  0  0
    1.9396   -3.8212    0.0000 C   0  0  0  0  0  0  0  0  0  0  0  0
    3.6454    1.4610    0.0000 C   0  0  0  0  0  0  0  0  0  0  0  0
    7.0328    0.6188    0.0000 C   0  0  0  0  0  0  0  0  0  0  0  0
    1.9401   -2.3204    0.0000 C   0  0  0  0  0  0  0  0  0  0  0  0
    4.4862   -2.3508    0.0000 Cl  0  0  0  0  0  0  0  0  0  0  0  0
    5.7853   -1.6010    0.0000 Cl  0  0  0  0  0  0  0  0  0  0  0  0
    2.1051    5.6909    0.0000 F   0  0  0  0  0  0  0  0  0  0  0  0
   10.9310    2.8703    0.0000 F   0  0  0  0  0  0  0  0  0  0  0  0
   -1.9581   -4.5718    0.0000 F   0  0  0  0  0  0  0  0  0  0  0  0
    5.0600    5.1693    0.0000 F   0  0  0  0  0  0  0  0  0  0  0  0
   -1.2417    3.6423    0.0000 F   0  0  0  0  0  0  0  0  0  0  0  0
   10.9303   -0.1304    0.0000 F   0  0  0  0  0  0  0  0  0  0  0  0
    8.3325    4.3705    0.0000 F   0  0  0  0  0  0  0  0  0  0  0  0
   -1.9575   -1.5712    0.0000 F   0  0  0  0  0  0  0  0  0  0  0  0
    0.6403   -6.0721    0.0000 F   0  0  0  0  0  0  0  0  0  0  0  0
    6.3245    1.6203    0.0000 F   0  0  0  0  0  0  0  0  0  0  0  0
   -0.3787    0.2521    0.0000 F   0  0  0  0  0  0  0  0  0  0  0  0
    8.3320   -1.6312    0.0000 F   0  0  0  0  0  0  0  0  0  0  0  0
    5.7342    2.8696    0.0000 F   0  0  0  0  0  0  0  0  0  0  0  0
    0.6407    0.4096    0.0000 F   0  0  0  0  0  0  0  0  0  0  0  0
    3.2386   -4.5712    0.0000 F   0  0  0  0  0  0  0  0  0  0  0  0
    4.4864   -0.8508    0.0000 P   0  0  0  0  0  0  0  0  0  0  0  0
  4  1  2  0
  5  1  1  0
  6  2  2  0
  7  2  1  0
  8  3  2  0
  9  3  1  0
 10  4  1  0
 11  5  2  0
 12  6  1  0
 13  7  2  0
 14  8  1  0
 15  9  2  0
 16 10  2  0
 16 11  1  0
 17 12  2  0
 17 13  1  0
 18 14  2  0
 18 15  1  0
 21  1  1  0
 22  2  1  0
 23  3  1  0
 24  4  1  0
 25  5  1  0
 26  6  1  0
 27  7  1  0
 28  8  1  0
 29  9  1  0
 30 10  1  0
 31 11  1  0
 32 12  1  0
 33 13  1  0
 34 14  1  0
 35 15  1  0
 36 16  1  0
 36 17  1  0
 36 18  1  0
 36 19  1  0
 36 20  1  0
M  END
>  <NAME>  (4614) 
TRIS(PENTAFLUOROPHENYL)-DICHLOROPHOSPHORANE

>  <SYNONYMS>  (4614) 


>  <SPECTRUM TYPE>  (4614) 
MS1

>  <INSTRUMENT TYPE>  (4614) 
EI-B

>  <INSTRUMENT>  (4614) 
Unknown

>  <ION MODE>  (4614) 
P

>  <INCHIKEY>  (4614) 
XJPPVPFQBRXUCW-UHFFFAOYSA-N

>  <FORMULA>  (4614) 
C18Cl2F15P

>  <EXACT MASS>  (4614) 
601.88751529

>  <MW>  (4614) 
602

>  <ID>  (4614) 
JP003805

>  <CONTRIBUTOR>  (4614) 
University of Tokyo Team, {Faculty of Engineering, University of Tokyo

>  <COMMENT>  (4614) 
SMILES=Fc(c(F)3)c(F)c(F)c(c(F)3)P(Cl)(Cl)(c(c(F)2)c(F)c(F)c(F)c(F)2)c(c(F)1)c(F)c(F)c(F)c(F)1
InChI=InChI=1S/C18Cl2F15P/c19-36(20,16-10(30)4(24)1(21)5(25)11(16)31,17-12(32)6(26)2(22)7(27)13(17)33)18-14(34)8(28)3(23)9(29)15(18)35
computed SMILES=FC=1C(F)=C(F)C(=C(F)C1F)P(Cl)(Cl)(C=2C(F)=C(F)C(F)=C(F)C2F)C=3C(F)=C(F)C(F)=C(F)C3F
accession=JP003805
date=2016.01.19 (Created 2008.10.21, modified 2011.05.06)
author=SASAKI S, TOYOHASHI UNIV. OF TECH.
license=CC BY-NC-SA
exact mass=601.88751
ionization energy=70 eV
ion type=[M]+*
computed spectral entropy=2.6181034817672555
computed normalized entropy=0.7554249819359496
SPLASH=splash10-014i-5489060000-418947b42c7bf54d1bdd
submitter=submitter = University of Tokyo Team (Faculty of Engineering, University of Tokyo)
MoNA Rating=3.75

>  <NUM PEAKS>  (4614) 
32

>  <MASS SPECTRAL PEAKS>  (4614) 
69 54
79 4.5
93 6.7
98 0.59
99 2.6
105 3
110 7.1
117 0.17
129 30
148 5.7
167 3.5
168 0.34
198 7.5
217 24.1
227 13
246 0.49
258 7
265 13.1
277 11
278 0.03
296 41
297 5.9
312 4
315 0.59
346 3
365 99.99
366 11.5
513 0.55
514 2.2
532 72
533 13.6
534 2

>  <PREDICTED SPECTRUM>  (4614) 
44 12
51 20
55 0
60 1
69 570
74 24
79 8
89 7
93 261
98 179
99 101
100 55
104 6
110 143
116 138
117 354
120 16
122 21
129 365
130 65
139 106
148 238
149 38
158 23
160 5
167 105
168 204
173 32
180 26
188 6
200 26
201 6
202 34
204 26
206 18
207 46
208 10
214 50
217 470
227 441
246 260
258 286
265 256
268 120
274 40
277 280
278 120
279 0
288 89
289 64
294 49
296 707
297 254
310 26
312 118
331 25
335 3
346 102
347 30
353 13
354 0
361 39
365 999
366 365
367 21
368 16
369 37
382 0
404 4
405 22
419 21
423 41
444 3
448 25
449 28
463 42
466 77
471 77
476 4
495 4
502 1
513 176
514 132
520 7
529 10
532 757
533 395
534 84
570 9
572 85
578 28

$$$$

     RDKit          2D

 35 37  0  0  0  0  0  0  0  0999 V2000
    2.4630   -6.8696    0.0000 C   0  0  0  0  0  0  0  0  0  0  0  0
   -1.8184    1.0069    0.0000 C   0  0  0  0  0  0  0  0  0  0  0  0
    9.1789   -2.9947    0.0000 C   0  0  0  0  0  0  0  0  0  0  0  0
    1.3136   -5.9045    0.0000 C   0  0  0  0  0  0  0  0  0  0  0  0
    3.8726   -6.3565    0.0000 C   0  0  0  0  0  0  0  0  0  0  0  0
   -0.5184    1.7569    0.0000 C   0  0  0  0  0  0  0  0  0  0  0  0
   -1.8184   -0.4931    0.0000 C   0  0  0  0  0  0  0  0  0  0  0  0
    8.2139   -4.1441    0.0000 C   0  0  0  0  0  0  0  0  0  0  0  0
    8.6659   -1.5852    0.0000 C   0  0  0  0  0  0  0  0  0  0  0  0
    1.5738   -4.4264    0.0000 C   0  0  0  0  0  0  0  0  0  0  0  0
    4.1327   -4.8784    0.0000 C   0  0  0  0  0  0  0  0  0  0  0  0
    0.7816    1.0069    0.0000 C   0  0  0  0  0  0  0  0  0  0  0  0
   -0.5184   -1.2431    0.0000 C   0  0  0  0  0  0  0  0  0  0  0  0
    6.7357   -3.8840    0.0000 C   0  0  0  0  0  0  0  0  0  0  0  0
    7.1878   -1.3251    0.0000 C   0  0  0  0  0  0  0  0  0  0  0  0
    2.9833   -3.9133    0.0000 C   0  0  0  0  0  0  0  0  0  0  0  0
    0.7816   -0.4931    0.0000 C   0  0  0  0  0  0  0  0  0  0  0  0
    6.2227   -2.4745    0.0000 C   0  0  0  0  0  0  0  0  0  0  0  0
    2.2023   -8.3467    0.0000 F   0  0  0  0  0  0  0  0  0  0  0  0
   -3.1173    1.7571    0.0000 F   0  0  0  0  0  0  0  0  0  0  0  0
   10.6561   -3.2555    0.0000 F   0  0  0  0  0  0  0  0  0  0  0  0
   -0.0959   -6.4175    0.0000 F   0  0  0  0  0  0  0  0  0  0  0  0
    5.0218   -7.3205    0.0000 F   0  0  0  0  0  0  0  0  0  0  0  0
   -0.5184    3.2569    0.0000 F   0  0  0  0  0  0  0  0  0  0  0  0
   -3.1173   -1.2433    0.0000 F   0  0  0  0  0  0  0  0  0  0  0  0
    8.7269   -5.5537    0.0000 F   0  0  0  0  0  0  0  0  0  0  0  0
    9.6299   -0.4360    0.0000 F   0  0  0  0  0  0  0  0  0  0  0  0
    0.3008   -2.9098    0.0000 F   0  0  0  0  0  0  0  0  0  0  0  0
    6.6788   -6.3484    0.0000 F   0  0  0  0  0  0  0  0  0  0  0  0
    2.0805    1.7571    0.0000 F   0  0  0  0  0  0  0  0  0  0  0  0
   -0.5184   -2.7431    0.0000 F   0  0  0  0  0  0  0  0  0  0  0  0
    5.4633   -5.4010    0.0000 F   0  0  0  0  0  0  0  0  0  0  0  0
    6.6748    0.0845    0.0000 F   0  0  0  0  0  0  0  0  0  0  0  0
    3.8407   -0.5540    0.0000 O   0  0  0  0  0  0  0  0  0  0  0  0
    3.3275   -1.9635    0.0000 P   0  0  0  0  0  0  0  0  0  0  0  0
  4  1  2  0
  5  1  1  0
  6  2  2  0
  7  2  1  0
  8  3  2  0
  9  3  1  0
 10  4  1  0
 11  5  2  0
 12  6  1  0
 13  7  2  0
 14  8  1  0
 15  9  2  0
 16 10  2  0
 16 11  1  0
 17 12  2  0
 17 13  1  0
 18 14  2  0
 18 15  1  0
 19  1  1  0
 20  2  1  0
 21  3  1  0
 22  4  1  0
 23  5  1  0
 24  6  1  0
 25  7  1  0
 26  8  1  0
 27  9  1  0
 28 10  1  0
 29 11  1  0
 30 12  1  0
 31 13  1  0
 32 14  1  0
 33 15  1  0
 35 16  1  0
 35 17  1  0
 35 18  1  0
 35 34  2  0
M  END
>  <NAME>  (4615) 
TRIS(PENTAFLUOROPHENYL)-PHOSPHINE OXIDE

>  <SYNONYMS>  (4615) 


>  <SPECTRUM TYPE>  (4615) 
MS1

>  <INSTRUMENT TYPE>  (4615) 
EI-B

>  <INSTRUMENT>  (4615) 
Unknown

>  <ION MODE>  (4615) 
P

>  <INCHIKEY>  (4615) 
VDVWCGGZSOUZCE-UHFFFAOYSA-N

>  <FORMULA>  (4615) 
C18F15OP

>  <EXACT MASS>  (4615) 
547.94472455

>  <MW>  (4615) 
548

>  <ID>  (4615) 
JP003804

>  <CONTRIBUTOR>  (4615) 
University of Tokyo Team, {Faculty of Engineering, University of Tokyo

>  <COMMENT>  (4615) 
SMILES=Fc(c(F)3)c(F)c(F)c(c(F)3)P(=O)(c(c(F)2)c(F)c(F)c(F)c(F)2)c(c(F)1)c(F)c(F)c(F)c(F)1
InChI=InChI=1S/C18F15OP/c19-1-4(22)10(28)16(11(29)5(1)23)35(34,17-12(30)6(24)2(20)7(25)13(17)31)18-14(32)8(26)3(21)9(27)15(18)33
computed SMILES=O=P(C=1C(F)=C(F)C(F)=C(F)C1F)(C=2C(F)=C(F)C(F)=C(F)C2F)C=3C(F)=C(F)C(F)=C(F)C3F
accession=JP003804
date=2016.01.19 (Created 2008.10.21, modified 2011.05.06)
author=SASAKI S, TOYOHASHI UNIV. OF TECH.
license=CC BY-NC-SA
exact mass=547.94472
ionization energy=70 eV
ion type=[M]+*
computed spectral entropy=3.0114497270238463
computed normalized entropy=0.7697934605305988
SPLASH=splash10-014i-4944010000-119c8086bfea3b780bb5
submitter=submitter = University of Tokyo Team (Faculty of Engineering, University of Tokyo)
MoNA Rating=3.75

>  <NUM PEAKS>  (4615) 
50

>  <MASS SPECTRAL PEAKS>  (4615) 
47 14.2
69 45.1
74 2.1
79 0.5
86 3.8
93 24.1
98 11.2
105 0.34
110 5.8
117 99.99
118 6
129 2.05
136 5.2
145 2.8
148 22.1
155 2.97
164 14.5
165 3.9
167 35.2
183 3.47
184 2.7
196 3.8
198 1.4
205 0.22
214 2.5
215 5.2
217 21.5
227 1.22
234 6
245 7.3
258 5.1
265 3.79
266 4.8
277 7.1
296 46.8
297 0.63
312 7.4
315 2.2
331 4.8
334 0.43
346 1
362 1.5
365 92
366 0.13
381 7.8
400 1.5
529 2.1
532 0.05
548 36.5
549 7

>  <PREDICTED SPECTRUM>  (4615) 
31 124
45 2
46 20
56 8
63 247
66 45
69 547
74 51
75 26
79 121
80 33
85 252
86 75
87 74
93 278
94 14
98 393
106 14
108 48
110 132
111 23
113 12
114 2
117 522
121 37
123 16
124 20
128 26
129 812
130 52
132 7
134 29
143 12
148 298
149 27
150 125
153 55
155 169
157 34
167 172
168 124
169 77
177 38
182 68
183 156
184 26
185 21
186 30
187 50
188 24
191 10
195 36
199 61
200 16
202 18
203 86
204 25
205 4
213 71
214 322
217 998
218 181
220 76
227 692
231 14
233 326
234 35
235 44
245 64
252 33
258 147
261 64
262 7
265 300
267 63
277 517
278 211
296 764
297 294
304 8
309 370
312 7
346 154
349 32
350 72
351 253
352 31
353 121
362 126
365 312
381 171
399 22
425 210
444 250
445 23
446 53
469 43
471 115
476 37
478 71
513 100
514 74
518 67
529 57
534 16
548 999
549 0
550 324
551 87

$$$$

     RDKit          2D

 35 37  0  0  0  0  0  0  0  0999 V2000
    2.4630   -6.8696    0.0000 C   0  0  0  0  0  0  0  0  0  0  0  0
   -1.8184    1.0069    0.0000 C   0  0  0  0  0  0  0  0  0  0  0  0
    9.1789   -2.9947    0.0000 C   0  0  0  0  0  0  0  0  0  0  0  0
    1.3136   -5.9045    0.0000 C   0  0  0  0  0  0  0  0  0  0  0  0
    3.8726   -6.3565    0.0000 C   0  0  0  0  0  0  0  0  0  0  0  0
   -0.5184    1.7569    0.0000 C   0  0  0  0  0  0  0  0  0  0  0  0
   -1.8184   -0.4931    0.0000 C   0  0  0  0  0  0  0  0  0  0  0  0
    8.2139   -4.1441    0.0000 C   0  0  0  0  0  0  0  0  0  0  0  0
    8.6659   -1.5852    0.0000 C   0  0  0  0  0  0  0  0  0  0  0  0
    1.5738   -4.4264    0.0000 C   0  0  0  0  0  0  0  0  0  0  0  0
    4.1327   -4.8784    0.0000 C   0  0  0  0  0  0  0  0  0  0  0  0
    0.7816    1.0069    0.0000 C   0  0  0  0  0  0  0  0  0  0  0  0
   -0.5184   -1.2431    0.0000 C   0  0  0  0  0  0  0  0  0  0  0  0
    6.7357   -3.8840    0.0000 C   0  0  0  0  0  0  0  0  0  0  0  0
    7.1878   -1.3251    0.0000 C   0  0  0  0  0  0  0  0  0  0  0  0
    2.9833   -3.9133    0.0000 C   0  0  0  0  0  0  0  0  0  0  0  0
    0.7816   -0.4931    0.0000 C   0  0  0  0  0  0  0  0  0  0  0  0
    6.2227   -2.4745    0.0000 C   0  0  0  0  0  0  0  0  0  0  0  0
    2.2023   -8.3467    0.0000 F   0  0  0  0  0  0  0  0  0  0  0  0
   -3.1173    1.7571    0.0000 F   0  0  0  0  0  0  0  0  0  0  0  0
   10.6561   -3.2555    0.0000 F   0  0  0  0  0  0  0  0  0  0  0  0
   -0.0959   -6.4175    0.0000 F   0  0  0  0  0  0  0  0  0  0  0  0
    5.0218   -7.3205    0.0000 F   0  0  0  0  0  0  0  0  0  0  0  0
   -0.5184    3.2569    0.0000 F   0  0  0  0  0  0  0  0  0  0  0  0
   -3.1173   -1.2433    0.0000 F   0  0  0  0  0  0  0  0  0  0  0  0
    8.7269   -5.5537    0.0000 F   0  0  0  0  0  0  0  0  0  0  0  0
    9.6299   -0.4360    0.0000 F   0  0  0  0  0  0  0  0  0  0  0  0
    0.3008   -2.9098    0.0000 F   0  0  0  0  0  0  0  0  0  0  0  0
    6.6788   -6.3484    0.0000 F   0  0  0  0  0  0  0  0  0  0  0  0
    2.0805    1.7571    0.0000 F   0  0  0  0  0  0  0  0  0  0  0  0
   -0.5184   -2.7431    0.0000 F   0  0  0  0  0  0  0  0  0  0  0  0
    5.4633   -5.4010    0.0000 F   0  0  0  0  0  0  0  0  0  0  0  0
    6.6748    0.0845    0.0000 F   0  0  0  0  0  0  0  0  0  0  0  0
    3.3275   -1.9635    0.0000 P   0  0  0  0  0  0  0  0  0  0  0  0
    3.8407   -0.5540    0.0000 S   0  0  0  0  0  0  0  0  0  0  0  0
  4  1  2  0
  5  1  1  0
  6  2  2  0
  7  2  1  0
  8  3  2  0
  9  3  1  0
 10  4  1  0
 11  5  2  0
 12  6  1  0
 13  7  2  0
 14  8  1  0
 15  9  2  0
 16 10  2  0
 16 11  1  0
 17 12  2  0
 17 13  1  0
 18 14  2  0
 18 15  1  0
 19  1  1  0
 20  2  1  0
 21  3  1  0
 22  4  1  0
 23  5  1  0
 24  6  1  0
 25  7  1  0
 26  8  1  0
 27  9  1  0
 28 10  1  0
 29 11  1  0
 30 12  1  0
 31 13  1  0
 32 14  1  0
 33 15  1  0
 34 16  1  0
 34 17  1  0
 34 18  1  0
 35 34  2  0
M  END
>  <NAME>  (4616) 
TRIS(PENTAFLUOROPHENYL)-PHOSPHINE SULFIDE

>  <SYNONYMS>  (4616) 


>  <SPECTRUM TYPE>  (4616) 
MS1

>  <INSTRUMENT TYPE>  (4616) 
EI-B

>  <INSTRUMENT>  (4616) 
Unknown

>  <ION MODE>  (4616) 
P

>  <INCHIKEY>  (4616) 
ZKXAGCHSURXSAS-UHFFFAOYSA-N

>  <FORMULA>  (4616) 
C18F15PS

>  <EXACT MASS>  (4616) 
563.92188093

>  <MW>  (4616) 
564

>  <ID>  (4616) 
JP003803

>  <CONTRIBUTOR>  (4616) 
University of Tokyo Team, {Faculty of Engineering, University of Tokyo

>  <COMMENT>  (4616) 
SMILES=Fc(c(F)3)c(F)c(F)c(c(F)3)P(=S)(c(c(F)2)c(F)c(F)c(F)c(F)2)c(c(F)1)c(F)c(F)c(F)c(F)1
InChI=InChI=1S/C18F15PS/c19-1-4(22)10(28)16(11(29)5(1)23)34(35,17-12(30)6(24)2(20)7(25)13(17)31)18-14(32)8(26)3(21)9(27)15(18)33
computed SMILES=FC=1C(F)=C(F)C(=C(F)C1F)P(=S)(C=2C(F)=C(F)C(F)=C(F)C2F)C=3C(F)=C(F)C(F)=C(F)C3F
accession=JP003803
date=2016.01.19 (Created 2008.10.21, modified 2011.05.06)
author=SASAKI S, TOYOHASHI UNIV. OF TECH.
license=CC BY-NC-SA
exact mass=563.92188
ionization energy=70 eV
ion type=[M]+*
computed spectral entropy=3.169710867860978
computed normalized entropy=0.7773591074187246
SPLASH=splash10-014i-6985010000-8c315731a78daee28f13
submitter=submitter = University of Tokyo Team (Faculty of Engineering, University of Tokyo)
MoNA Rating=3.75

>  <NUM PEAKS>  (4616) 
59

>  <MASS SPECTRAL PEAKS>  (4616) 
69 99
74 2.1
79 10.3
86 0.33
91 2.4
93 25
98 16.2
110 0.2
117 65
118 4.4
129 60
130 0.44
141 5.1
148 14.5
155 6.1
158 0.25
165 5
167 16
168 2.7
177 0.29
179 9.2
180 4.1
189 5.2
196 0.46
198 16
199 6
203 3.2
208 0.36
215 3.7
217 41
218 3.6
227 0.35
228 4.6
234 3.9
241 4
246 1.25
258 19
259 4.1
265 18
266 0.24
277 22
278 5.1
296 66
297 0.09
315 9.9
327 4.1
334 2.6
346 0.66
365 99.99
366 14.2
375 4.4
403 0.28
413 3.9
513 5.5
514 3
532 0.75
533 16
564 7.5
565 2.2

>  <PREDICTED SPECTRUM>  (4616) 
31 178
51 49
61 56
63 322
69 732
70 32
72 7
74 68
79 68
80 9
82 14
86 92
87 118
91 3
92 29
93 267
95 45
98 385
101 185
103 35
110 299
111 73
117 404
120 12
122 16
129 569
130 11
139 19
144 90
145 40
148 198
150 19
155 11
165 24
166 165
167 89
168 44
171 141
173 13
174 8
180 72
185 125
198 139
199 325
200 58
201 1
202 50
203 9
204 20
217 999
218 75
227 632
229 41
230 280
238 2
246 27
247 14
249 275
250 31
258 235
261 82
265 131
268 43
277 394
278 95
296 614
297 200
309 268
315 9
328 1
346 129
347 41
365 490
366 204
367 247
369 55
395 86
397 752
398 145
419 70
444 104
445 39
446 88
476 158
478 66
513 109
514 67
532 249
533 231
534 103
545 7
566 341

$$$$

     RDKit          2D

 20 23  0  0  1  0  0  0  0  0999 V2000
    2.3365    3.1918    0.0000 C   0  0  0  0  0  0  0  0  0  0  0  0
   -0.4100   -2.8000    0.0000 C   0  0  0  0  0  0  0  0  0  0  0  0
   -4.3100   -0.5500    0.0000 C   0  0  0  0  0  0  0  0  0  0  0  0
    0.8900   -2.0500    0.0000 C   0  0  0  0  0  0  0  0  0  0  0  0
   -3.0100    0.2000    0.0000 C   0  0  0  0  0  0  0  0  0  0  0  0
    3.6100   -0.2600    0.0000 C   0  0  0  0  0  0  0  0  0  0  0  0
    4.4900    0.9500    0.0000 C   0  0  0  0  0  0  0  0  0  0  0  0
   -0.4100    1.7000    0.0000 C   0  0  0  0  0  0  0  0  0  0  0  0
    0.8900    2.4500    0.0000 C   0  0  0  0  0  0  0  0  0  0  0  0
   -3.0100   -2.8000    0.0000 C   0  0  0  0  0  0  0  0  0  0  0  0
   -1.7100   -2.0500    0.0000 C   0  0  0  0  0  0  0  0  0  0  0  0
   -4.3100   -2.0500    0.0000 C   0  0  0  0  0  0  0  0  0  0  0  0
   -1.7100   -0.5500    0.0000 C   0  0  0  0  0  0  0  0  0  0  0  0
   -0.4100    0.2000    0.0000 C   0  0  0  0  0  0  0  0  0  0  0  0
    0.8900   -0.5500    0.0000 C   0  0  0  0  0  0  0  0  0  0  0  0
    2.1800    0.2000    0.0000 C   0  0  0  0  0  0  0  0  0  0  0  0
    3.6100    2.1700    0.0000 C   0  0  0  0  0  0  0  0  0  0  0  0
    2.1800    1.7000    0.0000 C   0  0  0  0  0  0  0  0  0  0  0  0
   -5.6089   -2.8002    0.0000 O   0  0  0  0  0  0  0  0  0  0  0  0
    4.0736    3.5966    0.0000 O   0  0  0  0  0  0  0  0  0  0  0  0
  4  2  1  0
  5  3  1  0
  7  6  1  0
  9  8  1  0
 11  2  1  0
 11 10  2  0
 12  3  1  0
 12 10  1  0
 13  5  1  6
 13 11  1  0
 14  8  1  1
 14 13  1  0
 15  4  1  6
 15 14  1  0
 16  6  1  1
 16 15  1  0
 17  7  1  0
 18  1  1  1
 18  9  1  0
 18 16  1  0
 18 17  1  0
 19 12  2  0
 17 20  1  1
M  END
>  <NAME>  (4617) 
19-NORTESTOSTERONE

>  <SYNONYMS>  (4617) 


>  <SPECTRUM TYPE>  (4617) 
MS1

>  <INSTRUMENT TYPE>  (4617) 
EI-B

>  <INSTRUMENT>  (4617) 
HITACHI RMU-6E

>  <ION MODE>  (4617) 
P

>  <INCHIKEY>  (4617) 
NPAGDVCDWIYMMC-IZPLOLCNSA-N

>  <FORMULA>  (4617) 
C18H26O2

>  <EXACT MASS>  (4617) 
274.193280072

>  <MW>  (4617) 
274

>  <ID>  (4617) 
JP003548

>  <CONTRIBUTOR>  (4617) 
University of Tokyo Team, {Faculty of Engineering, University of Tokyo

>  <COMMENT>  (4617) 
SMILES=O=C(C4)C([H])=C(C3)C([H])(C4)C([H])(C2)C([H])(C3)C([H])(C1)C(C)(C2)C([H])(O)C1
InChI=InChI=1S/C18H26O2/c1-18-9-8-14-13-5-3-12(19)10-11(13)2-4-15(14)16(18)6-7-17(18)20/h10,13-17,20H,2-9H2,1H3/t13-,14+,15+,16-,17-,18-/m0/s1
computed SMILES=O=C1C=C2CCC3C(CCC4(C)C(O)CCC34)C2CC1
accession=JP003548
date=2016.01.19 (Created 2008.10.21, modified 2011.05.06)
author=YAMAMOTO M, DEP. CHEMISTRY, FAC. SCIENCE, NARA WOMEN'S UNIV.
license=CC BY-NC-SA
exact mass=274.19328
ionization energy=70 eV
ion type=[M]+*
computed spectral entropy=4.333262615917971
computed normalized entropy=0.8695033426279073
SPLASH=splash10-05i3-8950000000-2aca1e24a2ef4acf545f
submitter=submitter = University of Tokyo Team (Faculty of Engineering, University of Tokyo)
MoNA Rating=3.75

>  <NUM PEAKS>  (4617) 
146

>  <MASS SPECTRAL PEAKS>  (4617) 
27 7.3
28 5.9
29 10.5
31 1.8
39 10.9
40 2.5
41 35.6
42 0.23
43 16.3
44 1.5
51 2.8
52 0.24
53 14.3
54 2.3
55 28.3
56 0.18
57 7.9
58 1.8
65 9.1
66 0.4
67 24.8
68 5.8
69 6.4
71 0.43
77 22.9
78 7.4
79 32.6
80 0.88
81 20.4
82 3.6
83 6
84 0.14
85 1.8
86 1.7
91 37.2
92 0.85
93 24.8
94 10.2
95 16
96 0.54
97 11.4
98 1.5
99 1.1
101 0.11
103 3.4
104 4.1
105 26.7
106 0.94
107 24.2
108 13.7
109 19.9
110 8.95
111 10.7
115 5.1
116 2.5
117 1.04
118 5.8
119 17
120 17.5
121 1.79
122 12.4
123 18.4
124 5.7
128 0.32
129 5.3
130 2.7
131 13.1
132 0.69
133 14.3
134 11.5
135 15.5
136 0.46
137 2
141 2
142 1.9
143 0.41
144 4
145 10.6
146 11.9
147 2.21
148 12.9
149 6.8
150 2.1
151 0.33
152 1.5
153 1.1
155 1.6
156 0.15
157 4
158 3.3
159 9.3
160 1.38
161 8.7
162 5
163 3.5
164 0.61
165 8.6
166 2.3
169 1.7
170 0.17
171 3.8
172 2.9
173 12.5
174 0.95
175 8.2
176 1.8
183 1.9
184 0.15
185 4.4
186 3.2
187 7.5
188 0.61
189 3.2
190 2.6
197 7.5
198 0.26
199 6.6
200 2.7
201 3.7
202 0.76
203 4.1
204 1.8
212 3
213 3.3
214 7.4
215 20
216 5.6
217 0.94
218 4.2
228 2.1
229 1.4
230 0.73
231 17.3
232 16.3
233 2.5
238 0.18
239 1.2
241 3.9
246 7.4
247 0.14
256 16
257 3.4
259 1.2
274 99.99
275 20.8
276 2.4

>  <PREDICTED SPECTRUM>  (4617) 
40 19
41 37
42 28
43 47
44 13
52 7
53 43
54 8
55 70
57 18
64 10
65 80
66 53
67 143
68 93
69 24
71 9
76 3
77 77
78 58
79 145
80 32
81 144
82 91
83 67
85 2
88 2
90 117
91 400
92 245
93 295
94 257
95 210
96 141
97 132
103 8
104 200
105 489
106 344
107 443
108 462
109 429
110 972
111 279
112 16
115 109
116 122
117 365
118 286
119 446
120 401
121 452
122 576
123 437
124 241
125 69
126 56
128 63
129 200
130 87
131 372
132 248
133 389
134 374
135 428
136 171
137 126
141 11
142 59
143 211
144 233
145 403
146 389
147 427
148 439
149 321
150 199
151 156
152 63
153 5
157 164
158 227
159 408
160 568
161 416
162 355
163 285
164 267
165 232
166 33
167 0
169 21
170 39
171 171
172 225
173 393
174 363
175 263
176 118
177 50
179 79
183 165
184 23
185 240
186 269
187 265
188 307
189 218
190 18
197 230
198 129
199 287
200 188
201 250
202 121
203 57
204 20
211 33
212 182
213 252
214 286
215 494
216 121
217 164
218 114
219 48
223 44
230 506
231 330
232 424
233 132
238 135
239 168
240 85
241 195
242 53
246 289
256 428
257 176
259 65
273 50
274 999
275 487
276 151
277 15

$$$$

     RDKit          2D

 14 15  0  0  0  0  0  0  0  0999 V2000
   -1.9500    0.7500    0.0000 C   0  0  0  0  0  0  0  0  0  0  0  0
    4.5489    1.5002    0.0000 C   0  0  0  0  0  0  0  0  0  0  0  0
   -1.9500   -0.7500    0.0000 C   0  0  0  0  0  0  0  0  0  0  0  0
    4.5489    3.0002    0.0000 C   0  0  0  0  0  0  0  0  0  0  0  0
   -0.6500    1.5000    0.0000 C   0  0  0  0  0  0  0  0  0  0  0  0
    3.2489    0.7502    0.0000 C   0  0  0  0  0  0  0  0  0  0  0  0
   -0.6500   -1.5000    0.0000 C   0  0  0  0  0  0  0  0  0  0  0  0
    3.2489    3.7502    0.0000 C   0  0  0  0  0  0  0  0  0  0  0  0
    0.6500    0.7500    0.0000 C   0  0  0  0  0  0  0  0  0  0  0  0
    1.9489    1.5002    0.0000 C   0  0  0  0  0  0  0  0  0  0  0  0
    0.6500   -0.7500    0.0000 C   0  0  0  0  0  0  0  0  0  0  0  0
    1.9489    3.0002    0.0000 C   0  0  0  0  0  0  0  0  0  0  0  0
    1.9489   -1.5002    0.0000 O   0  0  0  0  0  0  0  0  0  0  0  0
    0.6500    3.7504    0.0000 O   0  0  0  0  0  0  0  0  0  0  0  0
  3  1  2  0
  4  2  2  0
  5  1  1  0
  6  2  1  0
  7  3  1  0
  8  4  1  0
  9  5  2  0
 10  6  2  0
 10  9  1  0
 11  7  2  0
 11  9  1  0
 12  8  2  0
 12 10  1  0
 13 11  1  0
 14 12  1  0
M  END
>  <NAME>  (4618) 
2,2'-DIHYDROXYDIPHENYL

>  <SYNONYMS>  (4618) 


>  <SPECTRUM TYPE>  (4618) 
MS1

>  <INSTRUMENT TYPE>  (4618) 
EI-B

>  <INSTRUMENT>  (4618) 
HITACHI RMU-6E

>  <ION MODE>  (4618) 
P

>  <INCHIKEY>  (4618) 
IMHDGJOMLMDPJN-UHFFFAOYSA-N

>  <FORMULA>  (4618) 
C12H10O2

>  <EXACT MASS>  (4618) 
186.06807956

>  <MW>  (4618) 
186

>  <ID>  (4618) 
JP003542

>  <CONTRIBUTOR>  (4618) 
University of Tokyo Team, {Faculty of Engineering, University of Tokyo

>  <COMMENT>  (4618) 
SMILES=Oc(c2)c(ccc2)c(c1)c(O)ccc1
InChI=InChI=1S/C12H10O2/c13-11-7-3-1-5-9(11)10-6-2-4-8-12(10)14/h1-8,13-14H
computed SMILES=OC=1C=CC=CC1C=2C=CC=CC2O
accession=JP003542
date=2016.01.19 (Created 2008.10.21, modified 2011.05.06)
author=YAMAMOTO M, DEP. CHEMISTRY, FAC. SCIENCE, NARA WOMEN'S UNIV.
license=CC BY-NC-SA
exact mass=186.06808
ionization energy=70 eV
ion type=[M]+*
computed spectral entropy=2.783033327650992
computed normalized entropy=0.731095371635879
SPLASH=splash10-000i-2900000000-b1169b6b9b4bf06f58b0
submitter=submitter = University of Tokyo Team (Faculty of Engineering, University of Tokyo)
MoNA Rating=3.75

>  <NUM PEAKS>  (4618) 
45

>  <MASS SPECTRAL PEAKS>  (4618) 
39 4.6
50 2.1
51 6.3
62 1.9
63 5.5
64 5.6
65 2.3
69 0.2
69.5 2.8
70 2.9
74 1.7
75 0.26
76 1.9
77 6
78 2.1
79 0.21
87 1.3
89 3.2
90 1.9
93 0.38
102 3.7
103 2.3
113 1.4
115 0.74
118 2.2
127 6.7
128 12.4
129 1.03
130 2.7
131 22.3
132 2.8
139 1.28
140 2.5
141 2.2
145 1.6
157 2.74
158 23.6
159 2.7
167 1.7
168 0.61
169 7.3
171 4.2
185 10.1
186 99.99
187 13.2

>  <PREDICTED SPECTRUM>  (4618) 
16 1
17 34
18 37
26 49
27 110
28 77
29 68
31 3
33 4
36 25
37 75
38 156
39 361
40 138
41 159
42 35
43 73
44 58
45 61
49 6
50 246
51 343
52 206
53 186
54 86
55 189
56 23
57 50
58 23
61 47
62 155
63 284
64 182
65 295
66 169
67 88
68 47
69 90
70 13
71 57
72 6
73 97
74 173
75 218
76 234
77 333
78 171
79 107
80 47
81 89
82 61
83 100
84 113
85 23
86 119
87 81
88 16
89 213
90 123
91 188
92 147
93 155
94 84
97 39
98 89
99 69
100 10
101 59
102 192
103 191
104 109
105 145
106 2
108 73
109 9
110 30
111 7
112 41
113 109
114 74
115 309
116 113
117 59
118 155
119 45
121 66
126 140
127 287
128 268
129 253
130 224
131 165
132 119
138 23
139 329
140 129
141 190
142 46
143 50
145 55
146 40
152 19
153 5
154 42
155 109
156 88
157 349
158 312
159 153
167 158
168 303
169 316
170 103
171 49
181 49
184 164
185 460
186 999
187 329
188 80

$$$$

     RDKit          2D

 14 15  0  0  0  0  0  0  0  0999 V2000
    3.8981    1.4936    0.0000 C   0  0  0  0  0  0  0  0  0  0  0  0
    2.5845   -0.7312    0.0000 C   0  0  0  0  0  0  0  0  0  0  0  0
    0.0047    0.7500    0.0000 C   0  0  0  0  0  0  0  0  0  0  0  0
    1.3182    2.9748    0.0000 C   0  0  0  0  0  0  0  0  0  0  0  0
    5.1826    0.7688    0.0000 C   0  0  0  0  0  0  0  0  0  0  0  0
    3.9090   -1.5254    0.0000 C   0  0  0  0  0  0  0  0  0  0  0  0
   -1.2799    1.4748    0.0000 C   0  0  0  0  0  0  0  0  0  0  0  0
   -0.0063    3.7690    0.0000 C   0  0  0  0  0  0  0  0  0  0  0  0
    2.5990    0.7436    0.0000 C   0  0  0  0  0  0  0  0  0  0  0  0
    1.3037    1.5000    0.0000 C   0  0  0  0  0  0  0  0  0  0  0  0
    5.2081   -0.7754    0.0000 C   0  0  0  0  0  0  0  0  0  0  0  0
   -1.3053    3.0190    0.0000 C   0  0  0  0  0  0  0  0  0  0  0  0
    6.5132   -1.5146    0.0000 O   0  0  0  0  0  0  0  0  0  0  0  0
   -2.6105    3.7582    0.0000 O   0  0  0  0  0  0  0  0  0  0  0  0
  5  1  2  0
  6  2  1  0
  7  3  2  0
  8  4  1  0
  9  1  1  0
  9  2  2  0
 10  3  1  0
 10  4  2  0
 10  9  1  0
 11  5  1  0
 11  6  2  0
 12  7  1  0
 12  8  2  0
 13 11  1  0
 14 12  1  0
M  END
>  <NAME>  (4619) 
4,4'-DIHYDROXYDIPHENYL

>  <SYNONYMS>  (4619) 


>  <SPECTRUM TYPE>  (4619) 
MS1

>  <INSTRUMENT TYPE>  (4619) 
EI-B

>  <INSTRUMENT>  (4619) 
HITACHI RMU-6E

>  <ION MODE>  (4619) 
P

>  <INCHIKEY>  (4619) 
VCCBEIPGXKNHFW-UHFFFAOYSA-N

>  <FORMULA>  (4619) 
C12H10O2

>  <EXACT MASS>  (4619) 
186.06807956

>  <MW>  (4619) 
186

>  <ID>  (4619) 
JP003540

>  <CONTRIBUTOR>  (4619) 
University of Tokyo Team, {Faculty of Engineering, University of Tokyo

>  <COMMENT>  (4619) 
SMILES=Oc(c2)ccc(c2)c(c1)ccc(O)c1
InChI=InChI=1S/C12H10O2/c13-11-5-1-9(2-6-11)10-3-7-12(14)8-4-10/h1-8,13-14H
computed SMILES=OC=1C=CC(=CC1)C2=CC=C(O)C=C2
accession=JP003540
date=2016.01.19 (Created 2008.10.21, modified 2011.05.06)
author=YAMAMOTO M, DEP. CHEMISTRY, FAC. SCIENCE, NARA WOMEN'S UNIV.
license=CC BY-NC-SA
exact mass=186.06808
ionization energy=70 eV
ion type=[M]+*
computed spectral entropy=1.7881217118973272
computed normalized entropy=0.5555112434231735
SPLASH=splash10-000i-1900000000-b3c2aa7febd8f5a30292
submitter=submitter = University of Tokyo Team (Faculty of Engineering, University of Tokyo)
MoNA Rating=3.75

>  <NUM PEAKS>  (4619) 
25

>  <MASS SPECTRAL PEAKS>  (4619) 
39 1.7
51 2.8
55 2.1
63 1.9
64 1.9
65 1.6
70 1.7
77 0.34
84 1.3
93 8.5
115 2.9
127 0.26
128 4.5
129 2.9
131 4.8
139 0.2
141 1.8
157 10.7
158 2
169 0.15
170 3
185 5.9
186 99.99
187 1.32
188 1.3

>  <PREDICTED SPECTRUM>  (4619) 
17 13
18 4
26 9
27 62
28 42
29 37
31 2
38 55
39 174
40 43
41 55
42 9
43 22
44 9
45 4
50 53
51 121
52 22
53 49
55 106
56 12
57 27
62 54
63 148
64 71
65 165
66 45
67 51
69 41
71 2
73 45
74 61
75 71
76 64
77 44
81 61
82 42
83 62
84 15
85 9
86 24
87 38
88 9
89 55
90 14
91 64
92 54
93 92
94 74
97 55
99 27
100 11
101 53
102 46
103 42
109 21
110 38
111 29
113 70
114 37
115 160
118 117
119 37
126 57
127 154
128 161
129 136
130 39
131 55
132 0
139 132
140 80
141 87
155 94
156 116
157 211
158 199
159 96
160 5
167 7
168 58
169 160
170 36
171 68
184 129
185 369
186 999
187 383
188 101

$$$$

     RDKit          2D

  8  8  0  0  0  0  0  0  0  0999 V2000
    2.2733   -0.6175    0.0000 C   0  0  0  0  0  0  0  0  0  0  0  0
    0.9738   -1.3683    0.0000 C   0  0  0  0  0  0  0  0  0  0  0  0
    2.2738    0.8833    0.0000 C   0  0  0  0  0  0  0  0  0  0  0  0
   -0.3252   -0.6183    0.0000 C   0  0  0  0  0  0  0  0  0  0  0  0
    0.9748    1.6333    0.0000 C   0  0  0  0  0  0  0  0  0  0  0  0
   -0.3248    0.8825    0.0000 C   0  0  0  0  0  0  0  0  0  0  0  0
   -1.6238    1.6325    0.0000 N   0  0  0  0  0  0  0  0  0  0  0  0
   -2.9228    0.8825    0.0000 O   0  0  0  0  0  0  0  0  0  0  0  0
  2  1  1  0
  3  1  1  0
  4  2  1  0
  5  3  1  0
  6  4  1  0
  6  5  1  0
  7  6  2  3
  8  7  1  0
M  END
>  <NAME>  (4620) 
CYCLOHEXANONE OXIME

>  <SYNONYMS>  (4620) 


>  <SPECTRUM TYPE>  (4620) 
MS1

>  <INSTRUMENT TYPE>  (4620) 
EI-B

>  <INSTRUMENT>  (4620) 
HITACHI RMU-6E

>  <ION MODE>  (4620) 
P

>  <INCHIKEY>  (4620) 
VEZUQRBDRNJBJY-UHFFFAOYSA-N

>  <FORMULA>  (4620) 
C6H11NO

>  <EXACT MASS>  (4620) 
113.084063972

>  <MW>  (4620) 
113

>  <ID>  (4620) 
JP003537

>  <CONTRIBUTOR>  (4620) 
University of Tokyo Team, {Faculty of Engineering, University of Tokyo

>  <COMMENT>  (4620) 
SMILES=ON=C(C1)CCCC1
InChI=InChI=1S/C6H11NO/c8-7-6-4-2-1-3-5-6/h8H,1-5H2
computed SMILES=ON=C1CCCCC1
accession=JP003537
date=2016.01.19 (Created 2008.10.21, modified 2011.05.06)
author=YAMAMOTO M, DEP. CHEMISTRY, FAC. SCIENCE, NARA WOMEN'S UNIV.
license=CC BY-NC-SA
exact mass=113.08406
ionization energy=70 eV
ion type=[M]+*
computed spectral entropy=3.3726364735029977
computed normalized entropy=0.8341809811650929
SPLASH=splash10-0bt9-9100000000-49d69f5f4d99a71e6919
submitter=submitter = University of Tokyo Team (Faculty of Engineering, University of Tokyo)
MoNA Rating=3.75

>  <NUM PEAKS>  (4620) 
57

>  <MASS SPECTRAL PEAKS>  (4620) 
15 2.8
18 2.5
26 6.5
27 40
28 28.5
29 25
30 10.2
37 0.2
38 5.2
39 47.5
40 14.5
41 9.9
42 46.5
43 11
44 11
45 0.26
46 22
50 3.8
51 7.3
52 0.7
53 21
54 54.5
55 77
56 1
57 9.3
58 2.4
59 78.5
60 0.29
63 1.2
64 1.5
66 6.5
67 4.1
68 42
69 27
70 9.5
71 0.28
72 63.5
73 4
77 3.5
78 0.12
79 13
80 8.9
81 36.5
82 0.65
83 3.1
84 19.5
85 26
86 0.2
94 4.5
95 1.2
96 24
97 0.5
98 32
99 2
112 5.5
113 99.99
114 13.5

>  <PREDICTED SPECTRUM>  (4620) 
14 50
15 88
16 70
17 32
18 48
19 9
25 31
26 241
27 635
28 353
29 451
30 296
31 217
32 4
33 53
34 26
35 12
36 46
37 138
38 210
39 756
40 379
41 999
42 546
43 446
44 310
45 295
46 148
47 33
48 2
49 99
50 205
51 285
52 336
53 652
54 883
55 805
56 439
57 413
58 382
59 404
60 252
61 157
62 118
63 164
64 130
65 302
66 343
67 911
68 579
69 460
70 463
71 350
72 303
73 284
74 108
75 74
76 50
77 234
78 149
79 270
80 460
81 658
82 392
83 358
84 488
85 650
86 231
87 51
92 90
93 129
94 332
95 325
96 584
97 364
98 360
99 108
110 12
111 66
112 411
113 688
114 206
115 20

$$$$

     RDKit          2D

 10 10  0  0  0  0  0  0  0  0999 V2000
   -1.9500    0.7500    0.0000 C   0  0  0  0  0  0  0  0  0  0  0  0
   -1.9500   -0.7500    0.0000 C   0  0  0  0  0  0  0  0  0  0  0  0
   -0.6500    1.5000    0.0000 C   0  0  0  0  0  0  0  0  0  0  0  0
   -0.6500   -1.5000    0.0000 C   0  0  0  0  0  0  0  0  0  0  0  0
    0.6500    0.7500    0.0000 C   0  0  0  0  0  0  0  0  0  0  0  0
    0.6500   -0.7500    0.0000 C   0  0  0  0  0  0  0  0  0  0  0  0
    1.9489    1.5002    0.0000 C   0  0  0  0  0  0  0  0  0  0  0  0
    1.9487    3.0002    0.0000 N   0  0  0  0  0  0  0  0  0  0  0  0
    1.9489   -1.5002    0.0000 O   0  0  0  0  0  0  0  0  0  0  0  0
    3.2481    0.7504    0.0000 O   0  0  0  0  0  0  0  0  0  0  0  0
  2  1  2  0
  3  1  1  0
  4  2  1  0
  5  3  2  0
  6  4  2  0
  6  5  1  0
  7  5  1  0
  8  7  2  0
  9  6  1  0
 10  7  1  0
M  END
>  <NAME>  (4621) 
SALICYLAMIDE

>  <SYNONYMS>  (4621) 


>  <SPECTRUM TYPE>  (4621) 
MS1

>  <INSTRUMENT TYPE>  (4621) 
EI-B

>  <INSTRUMENT>  (4621) 
HITACHI RMU-6E

>  <ION MODE>  (4621) 
P

>  <INCHIKEY>  (4621) 
SKZKKFZAGNVIMN-UHFFFAOYSA-N

>  <FORMULA>  (4621) 
C7H7NO2

>  <EXACT MASS>  (4621) 
137.047678464

>  <MW>  (4621) 
137

>  <ID>  (4621) 
JP003536

>  <CONTRIBUTOR>  (4621) 
University of Tokyo Team, {Faculty of Engineering, University of Tokyo

>  <COMMENT>  (4621) 
SMILES=NC(=O)c(c1)c(O)ccc1
InChI=InChI=1S/C7H7NO2/c8-7(10)5-3-1-2-4-6(5)9/h1-4,9H,(H2,8,10)
computed SMILES=N=C(O)C=1C=CC=CC1O
accession=JP003536
date=2016.01.19 (Created 2008.10.21, modified 2011.05.06)
author=YAMAMOTO M, DEP. CHEMISTRY, FAC. SCIENCE, NARA WOMEN'S UNIV.
license=CC BY-NC-SA
exact mass=137.04768
ionization energy=70 eV
ion type=[M]+*
computed spectral entropy=2.454206179805001
computed normalized entropy=0.7215712304840237
SPLASH=splash10-00du-8900000000-701c75263149bd35390b
submitter=submitter = University of Tokyo Team (Faculty of Engineering, University of Tokyo)
MoNA Rating=3.75

>  <NUM PEAKS>  (4621) 
30

>  <MASS SPECTRAL PEAKS>  (4621) 
37 3.4
38 7.5
39 25.2
40 2.4
44 9.7
46 1.4
50 4
51 0.28
52 2.4
53 6.9
54.5 7.6
55 0.16
61 2.1
62 4.4
63 13.4
64 1.71
65 23.1
66 2.4
76 1.9
80 0.25
91 4.6
92 58.3
93 12.5
94 0.15
119 2.3
120 99.99
121 18.3
122 0.16
137 75
138 7.1

>  <PREDICTED SPECTRUM>  (4621) 
14 9
16 18
17 39
18 26
25 15
26 78
27 86
28 27
29 119
36 40
37 148
38 251
39 481
40 173
41 205
42 193
43 250
44 159
45 200
46 65
49 85
50 352
51 407
52 225
53 269
54 164
55 79
56 14
58 45
60 40
61 185
62 259
63 460
64 440
65 516
66 141
67 75
68 57
70 3
73 99
74 191
75 209
76 190
77 243
78 58
79 20
80 148
81 115
82 11
83 75
90 347
91 780
92 709
93 313
94 176
104 32
108 201
109 89
110 69
118 256
119 857
120 999
121 464
135 42
136 641
137 992
138 291
139 37

$$$$

     RDKit          2D

  4  4  0  0  0  0  0  0  0  0999 V2000
    1.4000    0.3800    0.0000 C   0  0  0  0  0  0  0  0  0  0  0  0
   -1.4000   -0.3700    0.0000 C   0  0  0  0  0  0  0  0  0  0  0  0
   -0.1000    0.3800    0.0000 C   0  0  0  0  0  0  0  0  0  0  0  0
   -1.4000    1.1300    0.0000 O   0  0  0  0  0  0  0  0  0  0  0  0
  3  1  1  0
  3  2  1  0
  4  2  1  0
  4  3  1  0
M  END
>  <NAME>  (4622) 
PROPYLENE OXIDE

>  <SYNONYMS>  (4622) 


>  <SPECTRUM TYPE>  (4622) 
MS1

>  <INSTRUMENT TYPE>  (4622) 
EI-B

>  <INSTRUMENT>  (4622) 
HITACHI M-68

>  <ION MODE>  (4622) 
P

>  <INCHIKEY>  (4622) 
GOOHAUXETOMSMM-UHFFFAOYSA-N

>  <FORMULA>  (4622) 
C3H6O

>  <EXACT MASS>  (4622) 
58.041864812

>  <MW>  (4622) 
58

>  <ID>  (4622) 
JP003535

>  <CONTRIBUTOR>  (4622) 
University of Tokyo Team, {Faculty of Engineering, University of Tokyo

>  <COMMENT>  (4622) 
SMILES=CC(C1)O1
InChI=InChI=1S/C3H6O/c1-3-2-4-3/h3H,2H2,1H3
computed SMILES=O1CC1C
accession=JP003535
date=2016.01.19 (Created 2008.10.21, modified 2011.05.06)
author=YAMAMOTO M, DEP. CHEMISTRY, FAC. SCIENCE, NARA WOMEN'S UNIV.
license=CC BY-NC-SA
exact mass=58.04186
ionization energy=70 eV
ion type=[M]+*
computed spectral entropy=2.051992792240111
computed normalized entropy=0.6969045060057664
SPLASH=splash10-002f-9000000000-3f05d968e40f8eacf7e2
submitter=submitter = University of Tokyo Team (Faculty of Engineering, University of Tokyo)
MoNA Rating=3.75

>  <NUM PEAKS>  (4622) 
19

>  <MASS SPECTRAL PEAKS>  (4622) 
14 10.6
15 21.7
16 2.6
18 1.6
26 5.2
27 10.1
28 49.5
29 0.44
32 13.4
37 2.7
38 3.1
39 0.47
40 1.5
41 2.8
42 8.3
43 99.99
44 3.1
58 22
59 1.2

>  <PREDICTED SPECTRUM>  (4622) 
14 205
15 498
16 93
17 10
18 51
19 115
25 102
26 441
27 973
28 852
29 999
30 272
31 611
37 132
38 258
39 809
40 456
41 903
42 817
43 887
44 98
45 392
54 184
57 598
58 683
59 228

$$$$

     RDKit          2D

 15 16  0  0  0  0  0  0  0  0999 V2000
   -4.8981    0.8561    0.0000 C   0  0  0  0  0  0  0  0  0  0  0  0
   -4.8981   -0.6361    0.0000 C   0  0  0  0  0  0  0  0  0  0  0  0
    1.5800    1.6200    0.0000 C   0  0  0  0  0  0  0  0  0  0  0  0
    2.9000    0.8900    0.0000 C   0  0  0  0  0  0  0  0  0  0  0  0
   -1.0100    1.6100    0.0000 C   0  0  0  0  0  0  0  0  0  0  0  0
   -1.0100   -1.3900    0.0000 C   0  0  0  0  0  0  0  0  0  0  0  0
    0.3000    0.8600    0.0000 C   0  0  0  0  0  0  0  0  0  0  0  0
    0.3000   -0.6400    0.0000 C   0  0  0  0  0  0  0  0  0  0  0  0
   -2.3000    0.8600    0.0000 C   0  0  0  0  0  0  0  0  0  0  0  0
   -2.3000   -0.6400    0.0000 C   0  0  0  0  0  0  0  0  0  0  0  0
    2.9000   -0.6300    0.0000 C   0  0  0  0  0  0  0  0  0  0  0  0
    4.2023   -1.3743    0.0000 O   0  0  0  0  0  0  0  0  0  0  0  0
   -3.6002    1.6080    0.0000 O   0  0  0  0  0  0  0  0  0  0  0  0
   -3.6002   -1.3880    0.0000 O   0  0  0  0  0  0  0  0  0  0  0  0
    1.6100   -1.3900    0.0000 O   0  0  0  0  0  0  0  0  0  0  0  0
  4  3  2  0
  7  3  1  0
  7  5  2  0
  8  6  2  0
  8  7  1  0
  9  5  1  0
 10  6  1  0
 10  9  2  0
 11  4  1  0
 12 11  2  0
 13  1  1  0
 13  9  1  0
 14  2  1  0
 14 10  1  0
 15  8  1  0
 15 11  1  0
M  END
>  <NAME>  (4623) 
6,7-DIMETHOXYCOUMARIN

>  <SYNONYMS>  (4623) 


>  <SPECTRUM TYPE>  (4623) 
MS1

>  <INSTRUMENT TYPE>  (4623) 
EI-B

>  <INSTRUMENT>  (4623) 
HITACHI RMU-6E

>  <ION MODE>  (4623) 
P

>  <INCHIKEY>  (4623) 
GUAFOGOEJLSQBT-UHFFFAOYSA-N

>  <FORMULA>  (4623) 
C11H10O4

>  <EXACT MASS>  (4623) 
206.0579088

>  <MW>  (4623) 
206

>  <ID>  (4623) 
JP003532

>  <CONTRIBUTOR>  (4623) 
University of Tokyo Team, {Faculty of Engineering, University of Tokyo

>  <COMMENT>  (4623) 
SMILES=COc(c1)c(OC)cc(O2)c(C=CC(=O)2)1
InChI=InChI=1S/C11H10O4/c1-13-9-5-7-3-4-11(12)15-8(7)6-10(9)14-2/h3-6H,1-2H3
computed SMILES=O=C1OC=2C=C(OC)C(OC)=CC2C=C1
accession=JP003532
date=2016.01.19 (Created 2008.10.21, modified 2011.05.06)
author=YAMAMOTO M, DEP. CHEMISTRY, FAC. SCIENCE, NARA WOMEN'S UNIV.
license=CC BY-NC-SA
exact mass=206.05791
ionization energy=70 eV
ion type=[M]+*
computed spectral entropy=2.8520291592955
computed normalized entropy=0.7253702034897603
SPLASH=splash10-0a4i-7980000000-bac19c33733285c01d2e
submitter=submitter = University of Tokyo Team (Faculty of Engineering, University of Tokyo)
MoNA Rating=3.75

>  <NUM PEAKS>  (4623) 
51

>  <MASS SPECTRAL PEAKS>  (4623) 
15 3.5
38 3
39 2.1
43 1.4
50 6
51 12
52 1.4
53 0.42
55 3
57 1.6
59 3.2
62 0.22
63 5.2
64 3.1
65 2.3
66 0.17
69 13.4
74 2.1
75 2
76 0.43
77 5.5
79 14.9
89 4
91 0.19
92 7.7
95 1.5
103 2.7
105 0.27
107 14.2
108 1.3
117 2.5
119 0.26
120 7.6
121 2
133 2.2
135 1.58
136 1.4
145 3.7
148 3.9
149 0.39
162 1.1
163 27.2
164 2.6
178 1.53
179 1.5
190 1.6
191 45.7
192 0.59
206 99.99
207 13.3
208 1.6

>  <PREDICTED SPECTRUM>  (4623) 
14 21
15 123
16 12
17 2
18 8
25 6
26 56
27 65
28 67
29 116
30 13
31 46
36 2
37 122
38 175
39 207
40 58
41 87
42 32
43 33
44 32
45 44
49 113
50 362
51 411
52 164
53 342
54 81
55 50
56 29
58 6
59 20
61 141
62 243
63 333
64 229
65 226
66 219
67 80
68 49
69 364
70 45
72 43
74 93
75 164
76 222
77 349
78 189
79 347
80 127
81 99
82 44
84 5
86 90
87 65
88 66
89 180
90 135
91 212
92 250
93 151
94 93
95 146
102 39
103 60
104 96
105 202
106 184
107 435
108 187
109 58
115 33
116 3
117 112
118 81
119 238
120 299
121 103
122 31
131 157
132 90
133 161
134 145
135 562
136 88
143 14
145 105
146 78
147 140
148 113
149 106
150 80
159 141
160 99
161 184
162 89
163 727
164 229
165 19
175 37
176 22
177 146
178 348
179 81
189 35
190 54
191 499
192 167
193 23
204 3
205 62
206 999
207 359
208 104

$$$$

     RDKit          2D

 20 21  0  0  0  0  0  0  0  0999 V2000
   -2.6106    2.2468    0.0000 C   0  0  0  0  0  0  0  0  0  0  0  0
   -6.5039   -0.0097    0.0000 C   0  0  0  0  0  0  0  0  0  0  0  0
    6.4867   -1.5010    0.0000 C   0  0  0  0  0  0  0  0  0  0  0  0
    6.4874   -0.0002    0.0000 C   0  0  0  0  0  0  0  0  0  0  0  0
    5.1871   -2.2516    0.0000 C   0  0  0  0  0  0  0  0  0  0  0  0
   -0.0042   -2.2432    0.0000 C   0  0  0  0  0  0  0  0  0  0  0  0
    5.1885    0.7500    0.0000 C   0  0  0  0  0  0  0  0  0  0  0  0
    3.8881   -1.5014    0.0000 C   0  0  0  0  0  0  0  0  0  0  0  0
   -1.3033   -1.4932    0.0000 C   0  0  0  0  0  0  0  0  0  0  0  0
    1.2903   -1.5010    0.0000 C   0  0  0  0  0  0  0  0  0  0  0  0
   -0.0083    0.7498    0.0000 C   0  0  0  0  0  0  0  0  0  0  0  0
   -2.6081    0.7468    0.0000 C   0  0  0  0  0  0  0  0  0  0  0  0
    3.8889   -0.0006    0.0000 C   0  0  0  0  0  0  0  0  0  0  0  0
   -1.3078   -0.0010    0.0000 C   0  0  0  0  0  0  0  0  0  0  0  0
    1.2908   -0.0002    0.0000 C   0  0  0  0  0  0  0  0  0  0  0  0
    2.5899    0.7496    0.0000 C   0  0  0  0  0  0  0  0  0  0  0  0
   -3.9058   -0.0054    0.0000 C   0  0  0  0  0  0  0  0  0  0  0  0
    2.5902    2.2496    0.0000 O   0  0  0  0  0  0  0  0  0  0  0  0
   -3.9033   -1.5054    0.0000 O   0  0  0  0  0  0  0  0  0  0  0  0
   -5.2061    0.7425    0.0000 O   0  0  0  0  0  0  0  0  0  0  0  0
  4  3  2  0
  5  3  1  0
  7  4  1  0
  8  5  2  0
  9  6  2  0
 10  6  1  0
 12  1  1  0
 13  7  2  0
 13  8  1  0
 14  9  1  0
 14 11  2  0
 14 12  1  0
 15 10  2  0
 15 11  1  0
 16 13  1  0
 16 15  1  0
 17 12  1  0
 18 16  2  0
 19 17  2  0
 20  2  1  0
 20 17  1  0
M  END
>  <NAME>  (4624) 
METHYL 2-(3-BENZOYLPHENYL)PROPIONATE

>  <SYNONYMS>  (4624) 


>  <SPECTRUM TYPE>  (4624) 
MS1

>  <INSTRUMENT TYPE>  (4624) 
EI-B

>  <INSTRUMENT>  (4624) 
HITACHI RMU-6E

>  <ION MODE>  (4624) 
P

>  <INCHIKEY>  (4624) 
BIOCOYIPJQMGTN-UHFFFAOYSA-N

>  <FORMULA>  (4624) 
C17H16O3

>  <EXACT MASS>  (4624) 
268.109944372

>  <MW>  (4624) 
268

>  <ID>  (4624) 
JP003531

>  <CONTRIBUTOR>  (4624) 
University of Tokyo Team, {Faculty of Engineering, University of Tokyo

>  <COMMENT>  (4624) 
SMILES=COC(=O)C(C)c(c2)cc(cc2)C(=O)c(c1)cccc1
InChI=InChI=1S/C17H16O3/c1-12(17(19)20-2)14-9-6-10-15(11-14)16(18)13-7-4-3-5-8-13/h3-12H,1-2H3
computed SMILES=O=C(OC)C(C=1C=CC=C(C1)C(=O)C=2C=CC=CC2)C
accession=JP003531
date=2016.01.19 (Created 2008.10.21, modified 2011.05.06)
author=YAMAMOTO M, DEP. CHEMISTRY, FAC. SCIENCE, NARA WOMEN'S UNIV.
license=CC BY-NC-SA
exact mass=268.10994
ionization energy=70 eV
ion type=[M]+*
computed spectral entropy=2.8463969847049357
computed normalized entropy=0.7313793460830615
SPLASH=splash10-0pdi-9670000000-cc76fd5064087c5712db
submitter=submitter = University of Tokyo Team (Faculty of Engineering, University of Tokyo)
MoNA Rating=3.75

>  <NUM PEAKS>  (4624) 
49

>  <MASS SPECTRAL PEAKS>  (4624) 
39 4.6
41 2.8
43 13.9
44 2
50 3.9
51 16.1
52 3.5
53 0.25
55 3
56 1.6
57 3.1
58 0.31
59 4.9
63 3.7
65 1.9
69 0.23
75 2.3
76 5.1
77 85
78 1.27
79 2
80 2.5
89 2.1
91 0.26
102 2.9
103 23.3
104 11.4
105 9.85
106 7.7
131 7.4
152 2.1
163 0.18
165 3.8
166 1.8
167 1.3
176 0.17
178 1.9
181 5.7
191 26.1
192 0.37
194 5.2
207 1.5
208 4.9
209 99.99
210 17.7
211 2
236 2.3
268 3.5
269 6.7

>  <PREDICTED SPECTRUM>  (4624) 
39 41
41 93
44 69
50 46
51 226
53 4
55 17
59 62
63 12
69 55
75 38
76 49
77 495
78 87
79 24
89 37
91 31
102 40
103 158
104 176
105 799
106 210
115 85
116 16
119 55
126 17
127 6
130 15
131 127
132 61
147 60
152 62
153 53
154 26
161 89
162 53
163 102
164 77
165 171
166 96
179 26
180 34
181 309
182 191
191 527
192 152
193 71
194 55
207 112
208 241
209 999
210 356
211 48
222 19
223 115
224 39
225 47
236 147
237 49
253 22
268 676
269 287
270 68

$$$$

     RDKit          2D

 15 16  0  0  0  0  0  0  0  0999 V2000
   -6.5044    0.7424    0.0000 C   0  0  0  0  0  0  0  0  0  0  0  0
   -5.2054   -0.0078    0.0000 C   0  0  0  0  0  0  0  0  0  0  0  0
    3.8881    2.2511    0.0000 C   0  0  0  0  0  0  0  0  0  0  0  0
    3.8903    0.7511    0.0000 C   0  0  0  0  0  0  0  0  0  0  0  0
    2.5869    2.9991    0.0000 C   0  0  0  0  0  0  0  0  0  0  0  0
   -2.6113    2.9850    0.0000 C   0  0  0  0  0  0  0  0  0  0  0  0
   -3.9058    2.2428    0.0000 C   0  0  0  0  0  0  0  0  0  0  0  0
    2.5915   -0.0009    0.0000 C   0  0  0  0  0  0  0  0  0  0  0  0
    1.2881    2.2472    0.0000 C   0  0  0  0  0  0  0  0  0  0  0  0
   -1.3122    2.2350    0.0000 C   0  0  0  0  0  0  0  0  0  0  0  0
   -2.6072   -0.0080    0.0000 C   0  0  0  0  0  0  0  0  0  0  0  0
   -3.9063    0.7420    0.0000 C   0  0  0  0  0  0  0  0  0  0  0  0
    1.2903    0.7472    0.0000 C   0  0  0  0  0  0  0  0  0  0  0  0
   -1.3077    0.7428    0.0000 C   0  0  0  0  0  0  0  0  0  0  0  0
   -0.0074   -0.0050    0.0000 O   0  0  0  0  0  0  0  0  0  0  0  0
  2  1  1  0
  4  3  2  0
  5  3  1  0
  7  6  2  0
  8  4  1  0
  9  5  2  0
 10  6  1  0
 12  2  1  0
 12  7  1  0
 12 11  2  0
 13  8  2  0
 13  9  1  0
 14 10  2  0
 14 11  1  0
 15 13  1  0
 15 14  1  0
M  END
>  <NAME>  (4625) 
1-ETHYL-3-PHENOXYBENZENE

>  <SYNONYMS>  (4625) 


>  <SPECTRUM TYPE>  (4625) 
MS1

>  <INSTRUMENT TYPE>  (4625) 
EI-B

>  <INSTRUMENT>  (4625) 
HITACHI RMU-6E

>  <ION MODE>  (4625) 
P

>  <INCHIKEY>  (4625) 
OOOMPLNDUPMWLO-UHFFFAOYSA-N

>  <FORMULA>  (4625) 
C14H14O

>  <EXACT MASS>  (4625) 
198.104465068

>  <MW>  (4625) 
198

>  <ID>  (4625) 
JP003529

>  <CONTRIBUTOR>  (4625) 
University of Tokyo Team, {Faculty of Engineering, University of Tokyo

>  <COMMENT>  (4625) 
SMILES=CCc(c2)cc(cc2)Oc(c1)cccc1
InChI=InChI=1S/C14H14O/c1-2-12-7-6-10-14(11-12)15-13-8-4-3-5-9-13/h3-11H,2H2,1H3
computed SMILES=O(C=1C=CC=CC1)C2=CC=CC(=C2)CC
accession=JP003529
date=2016.01.19 (Created 2008.10.21, modified 2011.05.06)
author=YAMAMOTO M, DEP. CHEMISTRY, FAC. SCIENCE, NARA WOMEN'S UNIV.
license=CC BY-NC-SA
exact mass=198.10447
ionization energy=70 eV
ion type=[M]+*
computed spectral entropy=2.980421855629945
computed normalized entropy=0.7437419645097582
SPLASH=splash10-0002-4900000000-5e6dafb9b3fc0da22d55
submitter=submitter = University of Tokyo Team (Faculty of Engineering, University of Tokyo)
MoNA Rating=3.75

>  <NUM PEAKS>  (4625) 
55

>  <MASS SPECTRAL PEAKS>  (4625) 
32 4.9
39 10
41 2
50 4
51 18.6
52 2.4
53 3.1
55 0.21
63 5
64 2.9
65 6.4
75 0.17
76 4.7
76.5 1.4
77 28
78 0.52
79 5.9
89 4
90 2.2
90.5 1.14
91 11.6
91.5 2.3
92 5.4
94 0.17
102 1.5
103 5.9
104 4.1
105 1.43
106 1.3
107 2
115 4.4
120 0.18
127 1.5
128 2.7
129 2.3
139 0.13
141 3.9
142 1.4
152 1.8
153 0.31
154 2.1
155 7.7
156 1.3
165 0.44
168 5.3
169 6.3
170 3.8
181 0.33
182 2.2
183 45.4
184 6.2
197 0.2
198 99.99
199 15.4
200 1.5

>  <PREDICTED SPECTRUM>  (4625) 
14 5
26 43
27 139
28 50
29 66
32 8
37 9
38 84
39 337
40 82
41 157
44 33
49 0
50 196
51 422
52 196
53 175
55 62
56 20
57 88
62 82
63 229
64 170
65 291
66 86
67 28
68 4
69 48
70 47
71 4
74 86
75 141
76 178
77 562
78 288
79 153
80 12
82 62
83 92
84 60
85 20
86 48
87 37
88 29
89 192
90 157
91 367
92 176
93 73
94 63
102 153
103 253
104 198
105 224
106 116
115 244
116 125
117 46
118 6
119 103
120 195
121 177
122 19
127 142
128 256
129 120
130 10
139 69
141 150
142 64
143 23
151 27
152 162
153 209
154 119
155 213
156 36
157 54
164 43
165 227
166 120
167 7
168 115
169 239
170 164
171 63
177 16
178 81
179 108
181 253
182 185
183 816
184 320
185 14
195 66
196 20
197 170
198 999
199 390
200 72

$$$$

     RDKit          2D

 13 13  0  0  0  0  0  0  0  0999 V2000
    3.2478    1.4446    0.0000 C   0  0  0  0  0  0  0  0  0  0  0  0
    3.2483    2.9454    0.0000 C   0  0  0  0  0  0  0  0  0  0  0  0
    1.9483    0.6938    0.0000 C   0  0  0  0  0  0  0  0  0  0  0  0
    1.9493    3.6954    0.0000 C   0  0  0  0  0  0  0  0  0  0  0  0
    0.6493    1.4438    0.0000 C   0  0  0  0  0  0  0  0  0  0  0  0
   -3.2474    3.6946    0.0000 C   0  0  0  0  0  0  0  0  0  0  0  0
    0.6498    2.9446    0.0000 C   0  0  0  0  0  0  0  0  0  0  0  0
   -4.5464    2.9446    0.0000 C   0  0  0  0  0  0  0  0  0  0  0  0
   -0.6493    3.6946    0.0000 C   0  0  0  0  0  0  0  0  0  0  0  0
   -1.9483    2.9446    0.0000 N   0  0  0  0  0  0  0  0  0  0  0  0
   -4.5464    1.4446    0.0000 O   0  0  0  0  0  0  0  0  0  0  0  0
   -5.8454    3.6946    0.0000 O   0  0  0  0  0  0  0  0  0  0  0  0
   -0.6493    5.1946    0.0000 O   0  0  0  0  0  0  0  0  0  0  0  0
  2  1  2  0
  3  1  1  0
  4  2  1  0
  5  3  2  0
  7  4  2  0
  7  5  1  0
  8  6  1  0
  9  7  1  0
 10  6  1  0
 10  9  2  3
 11  8  2  0
 12  8  1  0
 13  9  1  0
M  END
>  <NAME>  (4626) 
HIPPURIC ACID

>  <SYNONYMS>  (4626) 


>  <SPECTRUM TYPE>  (4626) 
MS1

>  <INSTRUMENT TYPE>  (4626) 
EI-B

>  <INSTRUMENT>  (4626) 
HITACHI RMU-6E

>  <ION MODE>  (4626) 
P

>  <INCHIKEY>  (4626) 
QIAFMBKCNZACKA-UHFFFAOYSA-N

>  <FORMULA>  (4626) 
C9H9NO3

>  <EXACT MASS>  (4626) 
179.05824314799997

>  <MW>  (4626) 
179

>  <ID>  (4626) 
JP003528

>  <CONTRIBUTOR>  (4626) 
University of Tokyo Team, {Faculty of Engineering, University of Tokyo

>  <COMMENT>  (4626) 
SMILES=OC(=O)CNC(=O)c(c1)cccc1
InChI=InChI=1S/C9H9NO3/c11-8(12)6-10-9(13)7-4-2-1-3-5-7/h1-5H,6H2,(H,10,13)(H,11,12)
computed SMILES=O=C(O)CN=C(O)C=1C=CC=CC1
accession=JP003528
date=2016.01.19 (Created 2008.10.21, modified 2011.05.06)
author=YAMAMOTO M, DEP. CHEMISTRY, FAC. SCIENCE, NARA WOMEN'S UNIV.
license=CC BY-NC-SA
exact mass=179.05824
ionization energy=70 eV
ion type=[M]+*
computed spectral entropy=1.886276736395617
computed normalized entropy=0.6526069635307379
SPLASH=splash10-0a6r-6900000000-9bebc859a11a987fc2d4
submitter=submitter = University of Tokyo Team (Faculty of Engineering, University of Tokyo)
MoNA Rating=3.75

>  <NUM PEAKS>  (4626) 
18

>  <MASS SPECTRAL PEAKS>  (4626) 
30 2.7
39 3.7
45 1.6
50 12.6
52 3.3
56 1.9
74 3.6
75 0.33
76 5.3
77 76.4
78 6.8
105 99.99
106 7.9
134 15
135 28.7
136 0.26
161 1.2
179 2

>  <PREDICTED SPECTRUM>  (4626) 
14 20
15 37
16 17
17 32
18 75
19 4
26 53
27 93
28 149
29 59
37 52
38 111
39 203
40 94
41 112
42 309
43 80
44 234
45 273
46 76
49 53
50 344
51 579
52 266
53 138
54 28
55 91
56 204
57 148
58 175
60 74
61 86
62 178
63 271
64 87
65 179
66 21
68 44
69 84
73 69
74 263
75 185
76 232
77 960
78 402
79 86
81 3
82 15
83 57
84 87
85 14
86 83
87 99
88 201
89 343
90 176
91 378
92 75
94 9
101 36
102 117
103 111
104 234
105 874
106 180
107 44
115 125
116 318
117 376
118 93
120 29
121 108
131 7
132 196
133 295
134 999
135 797
136 193
160 73
161 218
179 259
180 69

$$$$

     RDKit          2D

 12 12  0  0  0  0  0  0  0  0999 V2000
   -3.9015    3.0051    0.0000 C   0  0  0  0  0  0  0  0  0  0  0  0
    2.5937    3.7296    0.0000 C   0  0  0  0  0  0  0  0  0  0  0  0
    1.2801    1.5047    0.0000 C   0  0  0  0  0  0  0  0  0  0  0  0
    3.8782    3.0047    0.0000 C   0  0  0  0  0  0  0  0  0  0  0  0
    2.6046    0.7106    0.0000 C   0  0  0  0  0  0  0  0  0  0  0  0
   -0.0007    3.7360    0.0000 C   0  0  0  0  0  0  0  0  0  0  0  0
    1.2946    2.9796    0.0000 C   0  0  0  0  0  0  0  0  0  0  0  0
    3.9037    1.4606    0.0000 C   0  0  0  0  0  0  0  0  0  0  0  0
   -1.3034    2.9924    0.0000 C   0  0  0  0  0  0  0  0  0  0  0  0
    5.2088    0.7213    0.0000 O   0  0  0  0  0  0  0  0  0  0  0  0
   -1.3108    1.4924    0.0000 O   0  0  0  0  0  0  0  0  0  0  0  0
   -2.5987    3.7487    0.0000 O   0  0  0  0  0  0  0  0  0  0  0  0
  4  2  2  0
  5  3  1  0
  7  2  1  0
  7  3  2  0
  7  6  1  0
  8  4  1  0
  8  5  2  0
  9  6  1  0
 10  8  1  0
 11  9  2  0
 12  1  1  0
 12  9  1  0
M  END
>  <NAME>  (4627) 
METHYL 4-HYDROXYPHENYLACETATE

>  <SYNONYMS>  (4627) 


>  <SPECTRUM TYPE>  (4627) 
MS1

>  <INSTRUMENT TYPE>  (4627) 
EI-B

>  <INSTRUMENT>  (4627) 
HITACHI M-68

>  <ION MODE>  (4627) 
P

>  <INCHIKEY>  (4627) 
XGDZEDRBLVIUMX-UHFFFAOYSA-N

>  <FORMULA>  (4627) 
C9H10O3

>  <EXACT MASS>  (4627) 
166.06299417999998

>  <MW>  (4627) 
166

>  <ID>  (4627) 
JP003527

>  <CONTRIBUTOR>  (4627) 
University of Tokyo Team, {Faculty of Engineering, University of Tokyo

>  <COMMENT>  (4627) 
SMILES=COC(=O)Cc(c1)ccc(O)c1
InChI=InChI=1S/C9H10O3/c1-12-9(11)6-7-2-4-8(10)5-3-7/h2-5,10H,6H2,1H3
computed SMILES=O=C(OC)CC1=CC=C(O)C=C1
accession=JP003527
date=2016.01.19 (Created 2008.10.21, modified 2011.05.06)
author=YAMAMOTO M, DEP. CHEMISTRY, FAC. SCIENCE, NARA WOMEN'S UNIV.
license=CC BY-NC-SA
exact mass=166.06299
ionization energy=70 eV
ion type=[M]+*
computed spectral entropy=0.8328834672409289
computed normalized entropy=0.5174995946139251
SPLASH=splash10-0a4i-0900000000-bc7b4d3d5b7a5f417761
submitter=submitter = University of Tokyo Team (Faculty of Engineering, University of Tokyo)
MoNA Rating=3.75

>  <NUM PEAKS>  (4627) 
5

>  <MASS SPECTRAL PEAKS>  (4627) 
53 1.3
78 4
107 99.99
108 7.4
166 23

>  <PREDICTED SPECTRUM>  (4627) 
15 18
26 35
27 95
28 19
29 114
31 66
32 23
33 16
37 66
38 118
39 276
40 79
41 86
42 81
43 65
45 56
49 29
50 178
51 275
52 182
53 165
54 69
55 88
59 307
60 68
61 34
62 76
63 160
64 94
65 230
66 106
67 28
74 46
75 28
76 13
77 403
78 261
79 222
80 84
89 15
90 26
91 76
92 50
93 167
94 44
105 18
106 110
107 999
108 343
109 10
119 84
120 27
121 84
133 11
134 275
135 101
151 16
165 18
166 643
167 181
168 57

$$$$

     RDKit          2D

  9 10  0  0  0  0  0  0  0  0999 V2000
   -2.3100    0.7500    0.0000 C   0  0  0  0  0  0  0  0  0  0  0  0
   -2.3100   -0.7500    0.0000 C   0  0  0  0  0  0  0  0  0  0  0  0
   -1.0100    1.5000    0.0000 C   0  0  0  0  0  0  0  0  0  0  0  0
   -1.0100   -1.5000    0.0000 C   0  0  0  0  0  0  0  0  0  0  0  0
    1.7200    1.2100    0.0000 C   0  0  0  0  0  0  0  0  0  0  0  0
    2.6000   -0.0000    0.0000 C   0  0  0  0  0  0  0  0  0  0  0  0
    0.2900    0.7500    0.0000 C   0  0  0  0  0  0  0  0  0  0  0  0
    0.2900   -0.7500    0.0000 C   0  0  0  0  0  0  0  0  0  0  0  0
    1.7200   -1.2100    0.0000 N   0  0  0  0  0  0  0  0  0  0  0  0
  2  1  2  0
  3  1  1  0
  4  2  1  0
  6  5  2  0
  7  3  2  0
  7  5  1  0
  8  4  2  0
  8  7  1  0
  9  6  1  0
  9  8  1  0
M  END
>  <NAME>  (4628) 
INDOLE

>  <SYNONYMS>  (4628) 


>  <SPECTRUM TYPE>  (4628) 
MS1

>  <INSTRUMENT TYPE>  (4628) 
EI-B

>  <INSTRUMENT>  (4628) 
HITACHI M-68

>  <ION MODE>  (4628) 
P

>  <INCHIKEY>  (4628) 
SIKJAQJRHWYJAI-UHFFFAOYSA-N

>  <FORMULA>  (4628) 
C8H7N

>  <EXACT MASS>  (4628) 
117.057849224

>  <MW>  (4628) 
117

>  <ID>  (4628) 
JP003524

>  <CONTRIBUTOR>  (4628) 
University of Tokyo Team, {Faculty of Engineering, University of Tokyo

>  <COMMENT>  (4628) 
SMILES=C1=CC=C2C(=C1)C=CN2
InChI=InChI=1S/C8H7N/c1-2-4-8-7(3-1)5-6-9-8/h1-6,9H
computed SMILES=C=1C=CC=2NC=CC2C1
accession=JP003524
date=2016.01.19 (Created 2008.10.21, modified 2011.05.06)
author=YAMAMOTO M, DEP. CHEMISTRY, FAC. SCIENCE, NARA WOMEN'S UNIV.
license=CC BY-NC-SA
exact mass=117.05785
ionization energy=70 eV
ion type=[M]+*
computed spectral entropy=2.132519198440748
computed normalized entropy=0.6470342086518632
SPLASH=splash10-014i-9800000000-33bf321019a6a8e3401a
submitter=submitter = University of Tokyo Team (Faculty of Engineering, University of Tokyo)
MoNA Rating=3.75

>  <NUM PEAKS>  (4628) 
27

>  <MASS SPECTRAL PEAKS>  (4628) 
17 1.3
18 5.3
27 1.5
28 10.2
32 1.8
37 1.4
38 2.6
39 0.35
41 1
50 2.9
51 2.6
52 0.17
58.5 6.7
62 5.2
63 10.5
64 0.39
65 1.3
74 1
86 1.4
87 0.16
88 1.8
89 23.2
90 36
91 0.32
116 9
117 99.99
118 9.3

>  <PREDICTED SPECTRUM>  (4628) 
28 12
37 27
38 42
39 82
40 31
41 69
49 23
50 159
51 240
52 140
57 45
61 106
62 166
63 282
64 124
65 119
73 3
74 139
75 172
76 101
77 299
78 184
86 16
87 36
88 35
89 481
90 423
91 205
102 28
114 30
115 229
116 591
117 999
118 323
119 35

$$$$

     RDKit          2D

 10 10  0  0  0  0  0  0  0  0999 V2000
   -1.3000    0.7500    0.0000 C   0  0  0  0  0  0  0  0  0  0  0  0
   -0.0000   -1.5000    0.0000 C   0  0  0  0  0  0  0  0  0  0  0  0
    0.0000    1.5000    0.0000 C   0  0  0  0  0  0  0  0  0  0  0  0
    1.3000   -0.7500    0.0000 C   0  0  0  0  0  0  0  0  0  0  0  0
   -1.3000   -0.7500    0.0000 C   0  0  0  0  0  0  0  0  0  0  0  0
    1.3000    0.7500    0.0000 C   0  0  0  0  0  0  0  0  0  0  0  0
   -2.5989   -1.5002    0.0000 Cl  0  0  0  0  0  0  0  0  0  0  0  0
    2.5989    1.5002    0.0000 N   0  0  0  0  0  0  0  0  0  0  0  0
    3.8981    0.7504    0.0000 O   0  0  0  0  0  0  0  0  0  0  0  0
    2.5987    3.0002    0.0000 O   0  0  0  0  0  0  0  0  0  0  0  0
  3  1  2  0
  4  2  1  0
  5  1  1  0
  5  2  2  0
  6  3  1  0
  6  4  2  0
  7  5  1  0
  8  6  1  0
  9  8  1  0
 10  8  2  0
M  CHG  2   8   1   9  -1
M  END
>  <NAME>  (4629) 
P-NITROCHLOROBENZENE

>  <SYNONYMS>  (4629) 


>  <SPECTRUM TYPE>  (4629) 
MS1

>  <INSTRUMENT TYPE>  (4629) 
EI-B

>  <INSTRUMENT>  (4629) 
HITACHI M-68

>  <ION MODE>  (4629) 
P

>  <INCHIKEY>  (4629) 
CZGCEKJOLUNIFY-UHFFFAOYSA-N

>  <FORMULA>  (4629) 
C6H4ClNO2

>  <EXACT MASS>  (4629) 
156.993056048

>  <MW>  (4629) 
157

>  <ID>  (4629) 
JP003523

>  <CONTRIBUTOR>  (4629) 
University of Tokyo Team, {Faculty of Engineering, University of Tokyo

>  <COMMENT>  (4629) 
SMILES=[O-1][N+1](=O)c(c1)ccc(Cl)c1
InChI=InChI=1S/C6H4ClNO2/c7-5-1-3-6(4-2-5)8(9)10/h1-4H
computed SMILES=O=N(=O)C1=CC=C(Cl)C=C1
accession=JP003523
date=2016.01.19 (Created 2008.10.21, modified 2011.05.06)
author=YAMAMOTO M, DEP. CHEMISTRY, FAC. SCIENCE, NARA WOMEN'S UNIV.
license=CC BY-NC-SA
exact mass=156.99306
ionization energy=70 eV
ion type=[M]+*
computed spectral entropy=2.9020263574763874
computed normalized entropy=0.766881852712953
SPLASH=splash10-06vi-8900000000-68ff08d5c681f43053e7
submitter=submitter = University of Tokyo Team (Faculty of Engineering, University of Tokyo)
MoNA Rating=3.75

>  <NUM PEAKS>  (4629) 
44

>  <MASS SPECTRAL PEAKS>  (4629) 
30 34
36 1.4
37 6.9
38 7.5
39 4.1
46 4.7
47 1
49 0.49
50 41
51 15
60 1.6
61 0.65
62 4.3
63 9.1
64 2.9
72 0.15
73 14.6
74 28.4
75 88.8
76 1.58
77 1.2
84 3.1
85 11.5
86 0.17
87 4
90 1
99 47.9
100 0.23
101 14.3
110 1.8
111 99.99
112 0.75
113 32.9
114 2.2
127 55.4
128 0.41
129 18.4
130 1.3
141 8.9
143 0.28
157 87
158 7.7
159 28.5
160 2.5

>  <PREDICTED SPECTRUM>  (4629) 
14 1
16 43
17 10
18 24
25 23
26 62
28 52
29 59
30 744
31 93
32 47
35 1
36 6
37 54
38 103
46 280
47 110
48 52
49 238
50 565
51 310
52 70
55 11
60 17
61 198
62 127
63 582
64 278
72 114
73 393
74 439
75 836
76 582
77 59
79 29
84 224
85 266
86 60
90 23
91 8
92 95
98 77
99 728
100 121
101 271
102 11
111 999
112 398
113 547
122 5
127 651
128 100
129 253
130 1
141 51
143 53
157 937
158 220
159 581
160 113
161 37

$$$$

     RDKit          2D

  4  3  0  0  0  0  0  0  0  0999 V2000
   -1.2990    1.5000    0.0000 C   0  0  0  0  0  0  0  0  0  0  0  0
    0.0000    2.2500    0.0000 C   0  0  0  0  0  0  0  0  0  0  0  0
   -2.5981    2.2500    0.0000 N   0  0  0  0  0  0  0  0  0  0  0  0
    1.2990    1.5000    0.0000 O   0  0  0  0  0  0  0  0  0  0  0  0
  2  1  1  0
  3  1  1  0
  4  2  1  0
M  END
>  <NAME>  (4630) 
2-AMINOETHANOL

>  <SYNONYMS>  (4630) 


>  <SPECTRUM TYPE>  (4630) 
MS1

>  <INSTRUMENT TYPE>  (4630) 
EI-B

>  <INSTRUMENT>  (4630) 
HITACHI M-68

>  <ION MODE>  (4630) 
P

>  <INCHIKEY>  (4630) 
HZAXFHJVJLSVMW-UHFFFAOYSA-N

>  <FORMULA>  (4630) 
C2H7NO

>  <EXACT MASS>  (4630) 
61.052763844

>  <MW>  (4630) 
61

>  <ID>  (4630) 
JP003518

>  <CONTRIBUTOR>  (4630) 
University of Tokyo Team, {Faculty of Engineering, University of Tokyo

>  <COMMENT>  (4630) 
SMILES=NCCO
InChI=InChI=1S/C2H7NO/c3-1-2-4/h4H,1-3H2
computed SMILES=OCCN
accession=JP003518
date=2016.01.19 (Created 2008.10.21, modified 2011.05.06)
author=YAMAMOTO M, DEP. CHEMISTRY, FAC. SCIENCE, NARA WOMEN'S UNIV.
license=CC BY-NC-SA
exact mass=61.05276
ionization energy=70 eV
ion type=[M]+*
computed spectral entropy=1.7473171869243438
computed normalized entropy=0.6045302588329247
SPLASH=splash10-001i-9000000000-2af16a98e43fadfa86a3
submitter=submitter = University of Tokyo Team (Faculty of Engineering, University of Tokyo)
MoNA Rating=3.75

>  <NUM PEAKS>  (4630) 
18

>  <MASS SPECTRAL PEAKS>  (4630) 
14 1.2
16 1
17 1.6
18 6.6
26 1.2
27 4.8
28 2
29 11
30 99.99
31 9.2
40 0.14
41 3.2
42 10
43 4.2
44 0.37
60 1.5
61 9
62 8.7

>  <PREDICTED SPECTRUM>  (4630) 
14 83
15 186
16 68
17 92
18 150
19 33
25 18
26 101
27 182
28 234
29 299
30 999
31 635
32 222
38 32
40 92
41 190
42 337
43 324
44 289
45 165
46 86
52 2
60 11
61 112
62 65

$$$$

     RDKit          2D

 20 22  0  0  0  0  0  0  0  0999 V2000
    1.2008    5.0616    0.0000 C   0  0  0  0  0  0  0  0  0  0  0  0
    0.1047    6.0890    0.0000 C   0  0  0  0  0  0  0  0  0  0  0  0
    0.8809    3.5961    0.0000 C   0  0  0  0  0  0  0  0  0  0  0  0
   -1.3351    5.6356    0.0000 C   0  0  0  0  0  0  0  0  0  0  0  0
    2.8800   -0.7500    0.0000 C   0  0  0  0  0  0  0  0  0  0  0  0
    1.5800   -1.5000    0.0000 C   0  0  0  0  0  0  0  0  0  0  0  0
    1.5800    1.5000    0.0000 C   0  0  0  0  0  0  0  0  0  0  0  0
   -3.0000    0.0000    0.0000 C   0  0  0  0  0  0  0  0  0  0  0  0
    2.8800    0.7500    0.0000 C   0  0  0  0  0  0  0  0  0  0  0  0
   -0.5568    3.1525    0.0000 C   0  0  0  0  0  0  0  0  0  0  0  0
    0.2800    0.7500    0.0000 C   0  0  0  0  0  0  0  0  0  0  0  0
   -1.6550    4.1701    0.0000 C   0  0  0  0  0  0  0  0  0  0  0  0
    0.2800   -0.7500    0.0000 C   0  0  0  0  0  0  0  0  0  0  0  0
   -2.3500   -1.3500    0.0000 C   0  0  0  0  0  0  0  0  0  0  0  0
   -0.8900    1.6900    0.0000 C   0  0  0  0  0  0  0  0  0  0  0  0
    4.1789    1.5002    0.0000 Cl  0  0  0  0  0  0  0  0  0  0  0  0
   -3.0861    3.7207    0.0000 Cl  0  0  0  0  0  0  0  0  0  0  0  0
   -2.3500    1.3500    0.0000 N   0  0  0  0  0  0  0  0  0  0  0  0
   -0.8900   -1.6900    0.0000 N   0  0  0  0  0  0  0  0  0  0  0  0
   -3.2879   -2.5207    0.0000 O   0  0  0  0  0  0  0  0  0  0  0  0
  2  1  2  0
  3  1  1  0
  4  2  1  0
  6  5  2  0
  9  5  1  0
  9  7  2  0
 10  3  2  0
 11  7  1  0
 12  4  2  0
 12 10  1  0
 13  6  1  0
 13 11  2  0
 14  8  1  0
 15 10  1  0
 15 11  1  0
 16  9  1  0
 17 12  1  0
 18  8  1  0
 18 15  2  0
 19 13  1  0
 19 14  2  0
 20 14  1  0
M  END
>  <NAME>  (4631) 
O-CHLORODESMETHYLDIAZEPAM

>  <SYNONYMS>  (4631) 


>  <SPECTRUM TYPE>  (4631) 
MS1

>  <INSTRUMENT TYPE>  (4631) 
EI-B

>  <INSTRUMENT>  (4631) 
HITACHI RMU-6E

>  <ION MODE>  (4631) 
P

>  <INCHIKEY>  (4631) 
CHIFCDOIPRCHCF-UHFFFAOYSA-N

>  <FORMULA>  (4631) 
C15H10Cl2N2O

>  <EXACT MASS>  (4631) 
304.0170183

>  <MW>  (4631) 
304

>  <ID>  (4631) 
JP003516

>  <CONTRIBUTOR>  (4631) 
University of Tokyo Team, {Faculty of Engineering, University of Tokyo

>  <COMMENT>  (4631) 
SMILES=O=C(C2)Nc(c3)c(cc(Cl)c3)C(=N2)c(c1)c(Cl)ccc1
InChI=InChI=1S/C15H10Cl2N2O/c16-9-5-6-13-11(7-9)15(18-8-14(20)19-13)10-3-1-2-4-12(10)17/h1-7H,8H2,(H,19,20)
computed SMILES=ClC=1C=CC=2N=C(O)CN=C(C=3C=CC=CC3Cl)C2C1
accession=JP003516
date=2016.01.19 (Created 2008.10.21, modified 2011.05.06)
author=YAMAMOTO M, DEP. CHEMISTRY, FAC. SCIENCE, NARA WOMEN'S UNIV.
license=CC BY-NC-SA
exact mass=304.01702
ionization energy=70 eV
ion type=[M]+*
computed spectral entropy=4.4283479960211025
computed normalized entropy=0.8334606287595376
SPLASH=splash10-0fb9-6794000000-90a56d756980bc170dc2
submitter=submitter = University of Tokyo Team (Faculty of Engineering, University of Tokyo)
MoNA Rating=3.75

>  <NUM PEAKS>  (4631) 
203

>  <MASS SPECTRAL PEAKS>  (4631) 
31 2.4
36 3.8
38 2.7
39 9.8
41 9.2
42 2.7
43 7.9
44 0.22
45 5.9
48 1.7
49 1.3
50 0.85
51 16.3
52 4.9
53 1.9
54 0.2
55 9.4
56 2.5
57 16.2
60 0.27
61 2.6
61.5 1.6
62 10.9
63 1.85
64 3.9
65 2.8
67 1.9
68 0.33
69 6.7
70 2.5
71 4.2
73 0.58
74 9.7
74.5 3.7
75 47.8
75.5 1.39
76 25.7
76.5 3.4
77 19.3
78 0.35
79 1.3
80 3.5
81 7.4
81.5 0.72
82 4.8
82.5 1.5
83 3.7
85 0.28
86 4.6
87 5.9
87.5 1.9
88 0.84
88.5 24.6
89 41
89.5 11.1
90 0.65
91 4.6
92 2.9
92.5 3.5
93 1.36
93.5 2.6
94 5.9
94.5 2.2
95 0.34
95.5 2.8
96 1.6
97 2.6
98 0.5
99 9.3
99.5 1.4
100 5.9
101 0.49
101.5 1.9
102 46.1
102.5 27.8
103 2.41
103.5 3.7
104 3.2
105 2.1
105.5 0.25
106 7.7
106.5 6.7
107 12.7
107.5 0.35
108 4.6
109 1.7
110 3.8
111 1.35
112 11.2
112.5 1.3
113 7
113.5 0.17
114 4.9
115 2.5
116 11.1
117 0.34
119 2.7
119.5 2.3
120 34.4
120.5 1.37
121 12.3
121.5 3.8
122 2
123 0.53
124 5.9
125 12.8
125.5 1.8
126 0.96
127 5.6
128 2.3
129 2.3
132 0.17
135 1.3
136 4.6
137 5
138 2.9
139 9.4
140 8.7
141 5
149 1.16
150 18.4
151 19.5
152 12.4
153 3.1
155 1.5
157 1.5
159 2.2
160 0.18
161 1.5
162 2.5
163 20.9
164 0.66
165 9.7
166 4.7
167 2.5
168 0.25
173 1.4
175 3.8
176 9.1
177 3.26
178 17.3
179 9.2
180 1.9
185 0.2
186 4.8
187 1.4
188 2
190 0.26
191 3.1
192 3.8
193 1.3
198 0.13
199 2.2
203 2.4
204 3.4
205 1.36
206 9.8
207 1.9
211 2.5
212 0.48
213 9.3
214 11.3
215 4.7
216 0.47
226 1.9
227 4.5
228 1.7
229 0.15
233 3.2
234 9.7
235 2.5
239 1.49
240 11.6
241 42.6
242 12.4
243 1.26
244 2.9
248 7.2
249 1.9
250 0.47
251 1.6
252 1.4
262 2.4
264 0.14
268 21.9
269 99.99
270 23.4
271 3.38
272 5.3
275 85.5
276 63.8
277 7.5
278 43.4
279 22.5
280 7.9
281 0.19
303 62.2
304 99
305 58.2
306 6.35
307 17.4
308 11.2
309 2

>  <PREDICTED SPECTRUM>  (4631) 
30 21
36 21
38 38
39 58
40 15
41 42
42 76
43 73
44 112
49 53
50 271
51 288
52 126
53 17
54 12
55 70
56 88
57 115
58 16
61 149
62 240
63 351
64 143
65 101
66 3
67 5
68 37
69 164
70 91
71 49
72 73
73 324
74 291
75 539
76 248
77 203
78 54
80 23
81 57
82 116
83 91
84 100
85 170
86 188
87 223
88 241
89 318
90 207
91 104
94 16
95 71
96 147
97 157
98 110
99 309
100 223
101 191
102 293
103 147
104 48
105 35
106 2
108 35
109 111
110 182
111 463
112 177
113 354
114 184
115 34
116 29
117 66
122 25
123 200
124 182
125 421
126 226
127 192
128 128
129 102
130 43
131 55
132 40
133 48
136 95
137 308
138 317
139 223
140 129
141 150
142 66
144 10
145 67
146 6
147 99
148 34
149 26
150 102
151 144
152 101
153 6
154 31
156 23
157 51
159 100
160 40
161 85
162 109
163 362
164 211
165 205
166 88
167 219
168 129
169 27
171 19
173 5
174 93
175 164
176 233
177 297
178 158
179 112
180 70
186 3
188 109
189 63
190 59
191 44
192 29
193 109
195 53
200 82
201 126
202 3
203 32
204 43
205 169
206 191
207 96
213 79
214 156
216 55
217 16
225 132
226 49
234 164
235 10
236 89
237 12
238 76
239 257
240 304
241 406
242 151
243 76
244 4
250 15
251 49
252 23
253 72
254 12
267 4
268 219
269 655
270 316
271 425
272 125
275 192
276 195
277 191
278 182
279 87
280 38
287 86
288 33
290 78
302 46
303 890
304 999
305 796
306 792
307 429
308 361
309 130

$$$$

     RDKit          2D

 21 23  0  0  0  0  0  0  0  0999 V2000
   -0.5568   -3.1525    0.0000 C   0  0  0  0  0  0  0  0  0  0  0  0
    1.2008    5.0616    0.0000 C   0  0  0  0  0  0  0  0  0  0  0  0
    0.1047    6.0890    0.0000 C   0  0  0  0  0  0  0  0  0  0  0  0
    0.8809    3.5961    0.0000 C   0  0  0  0  0  0  0  0  0  0  0  0
   -1.3351    5.6356    0.0000 C   0  0  0  0  0  0  0  0  0  0  0  0
    2.8800   -0.7500    0.0000 C   0  0  0  0  0  0  0  0  0  0  0  0
    1.5800   -1.5000    0.0000 C   0  0  0  0  0  0  0  0  0  0  0  0
    1.5800    1.5000    0.0000 C   0  0  0  0  0  0  0  0  0  0  0  0
   -3.0000    0.0000    0.0000 C   0  0  0  0  0  0  0  0  0  0  0  0
    2.8800    0.7500    0.0000 C   0  0  0  0  0  0  0  0  0  0  0  0
   -0.5568    3.1525    0.0000 C   0  0  0  0  0  0  0  0  0  0  0  0
    0.2800    0.7500    0.0000 C   0  0  0  0  0  0  0  0  0  0  0  0
   -1.6550    4.1701    0.0000 C   0  0  0  0  0  0  0  0  0  0  0  0
    0.2800   -0.7500    0.0000 C   0  0  0  0  0  0  0  0  0  0  0  0
   -2.3500   -1.3500    0.0000 C   0  0  0  0  0  0  0  0  0  0  0  0
   -0.8900    1.6900    0.0000 C   0  0  0  0  0  0  0  0  0  0  0  0
    4.1789    1.5002    0.0000 Cl  0  0  0  0  0  0  0  0  0  0  0  0
   -3.0861    3.7207    0.0000 Cl  0  0  0  0  0  0  0  0  0  0  0  0
   -2.3500    1.3500    0.0000 N   0  0  0  0  0  0  0  0  0  0  0  0
   -0.8900   -1.6900    0.0000 N   0  0  0  0  0  0  0  0  0  0  0  0
   -3.2879   -2.5207    0.0000 O   0  0  0  0  0  0  0  0  0  0  0  0
  3  2  2  0
  4  2  1  0
  5  3  1  0
  7  6  2  0
 10  6  1  0
 10  8  2  0
 11  4  2  0
 12  8  1  0
 13  5  2  0
 13 11  1  0
 14  7  1  0
 14 12  2  0
 15  9  1  0
 16 11  1  0
 16 12  1  0
 17 10  1  0
 18 13  1  0
 19  9  1  0
 19 16  2  0
 20  1  1  0
 20 14  1  0
 20 15  1  0
 21 15  2  0
M  END
>  <NAME>  (4632) 
O-CHLORODIAZEPAM

>  <SYNONYMS>  (4632) 


>  <SPECTRUM TYPE>  (4632) 
MS1

>  <INSTRUMENT TYPE>  (4632) 
EI-B

>  <INSTRUMENT>  (4632) 
HITACHI RMU-6E

>  <ION MODE>  (4632) 
P

>  <INCHIKEY>  (4632) 
VPAYQWRBBOGGPY-UHFFFAOYSA-N

>  <FORMULA>  (4632) 
C16H12Cl2N2O

>  <EXACT MASS>  (4632) 
318.03266836399996

>  <MW>  (4632) 
318

>  <ID>  (4632) 
JP003515

>  <CONTRIBUTOR>  (4632) 
University of Tokyo Team, {Faculty of Engineering, University of Tokyo

>  <COMMENT>  (4632) 
SMILES=Clc(c3)cc(c(c3)2)C(=NCC(=O)N(C)2)c(c1)c(Cl)ccc1
InChI=InChI=1S/C16H12Cl2N2O/c1-20-14-7-6-10(17)8-12(14)16(19-9-15(20)21)11-4-2-3-5-13(11)18/h2-8H,9H2,1H3
computed SMILES=O=C1N(C=2C=CC(Cl)=CC2C(=NC1)C=3C=CC=CC3Cl)C
accession=JP003515
date=2016.01.19 (Created 2008.10.21, modified 2011.05.06)
author=YAMAMOTO M, DEP. CHEMISTRY, FAC. SCIENCE, NARA WOMEN'S UNIV.
license=CC BY-NC-SA
exact mass=318.03267
ionization energy=70 eV
ion type=[M]+*
computed spectral entropy=4.394386632623135
computed normalized entropy=0.8270687509494301
SPLASH=splash10-015c-4695000000-bec70b233f58559505f4
submitter=submitter = University of Tokyo Team (Faculty of Engineering, University of Tokyo)
MoNA Rating=3.75

>  <NUM PEAKS>  (4632) 
203

>  <MASS SPECTRAL PEAKS>  (4632) 
15 1.7
18 1.8
27 2.1
28 2.9
31 2.5
36 2
38 1.5
39 0.64
41 2.5
42 6.4
43 1.8
45 0.18
50 5
51 7.5
52 1.9
55 0.21
57 1.8
58 2.1
62 4.6
63 1.04
64 2.1
65 2.5
68 2
69 0.19
69.5 1.6
71 1.5
73 3.6
74 0.51
75 21.8
75.5 2.8
76 7.2
77 0.71
80 1.8
81 7.1
81.5 12.1
82 1.05
82.5 7.4
83 1.4
83.5 3.1
86 0.24
87 4.2
88 4.8
88.5 4.7
89 1.83
89.5 1.8
90 5.2
91 2.3
92.5 0.14
93 3.6
94 2.4
94.5 3.1
95 0.33
95.5 21.2
96 9.1
96.5 6.3
97 0.18
98 2.6
99 8
99.5 3.7
100 0.47
100.5 3.5
101 3.2
101.5 2.2
102 1.15
102.5 3.8
103 2.9
106 2.5
106.5 0.22
108 1.4
108.5 2.1
109 20.3
109.5 2.19
110 18.3
110.5 2.7
111 13.1
112 0.41
112.5 2.9
113 6.2
113.5 5.8
114 0.54
114.5 2
115 2.2
116 5
117 0.87
118 1.7
119.5 2.7
120 3.9
120.5 0.17
121 1.7
123 4.4
124 5.7
125 1.86
126 6
126.5 3.3
127 28.9
127.5 1.29
128 10.4
128.5 4.2
130.5 1.7
134 0.44
135 1.7
136 3.1
137 4.4
138 0.54
139 2.7
140 2
141 2.8
141.5 0.36
142 1.5
145 3.2
146 2.4
149 0.37
150 8.7
151 8
152 7.2
153 0.19
154 1.6
159 3.8
160 3.1
161 0.19
162 2.5
163 11
164 7.4
165 11.9
166 3
175 2.3
176 4.8
177 1.57
178 6.1
179 3.9
181 1.5
186 0.3
188 2
190 4.6
191 4.7
192 0.37
193 2.3
198 1.8
199 5.3
200 0.19
201 2.3
203 2.5
204 2.5
205 0.47
206 1.9
211 2.1
212 2.5
213 0.3
214 1.7
218 1.9
219 6
220 0.23
221 1.5
226 2.9
227 3.8
228 0.19
233 1.8
238 4
239 7.6
240 0.43
241 3.6
242 1.5
247 2
248 0.71
249 1.9
253 6
254 2.6
255 3.89
256 10.3
257 13.1
258 3.1
262 0.17
264 1.4
267 1.7
268 5.5
269 0.22
270 2.1
273 2.7
274 1.3
275 0.97
276 2.8
277 5.8
278 1.7
279 0.14
282 13
283 87.8
284 22.1
285 3.06
286 5.4
289 33.3
290 64.5
291 3.88
292 42.6
293 14.9
294 7.4
295 0.23
317 58.2
318 99.99
319 52.8
320 6.54
321 17.7
322 11.2
323 1.9

>  <PREDICTED SPECTRUM>  (4632) 
36 16
38 28
39 109
40 57
41 89
42 99
43 146
44 96
45 17
49 20
50 235
51 318
52 139
53 13
54 38
55 145
56 173
57 201
58 81
61 177
62 244
63 425
64 163
65 228
66 48
67 58
68 56
69 196
70 45
71 25
72 73
73 250
74 249
75 563
76 323
77 355
78 120
80 69
81 242
82 304
83 163
84 86
85 117
86 75
87 186
88 269
89 483
90 329
91 286
92 56
93 54
94 76
95 161
96 220
97 143
98 71
99 223
100 221
101 304
102 414
103 258
104 73
105 135
106 30
107 27
108 93
109 253
110 361
111 450
112 109
113 242
114 173
115 159
116 219
117 263
118 143
119 66
120 95
121 94
122 93
123 131
124 204
125 487
126 236
127 419
128 124
129 69
130 7
131 4
132 41
134 19
136 61
137 141
138 197
139 51
140 114
141 105
142 67
143 114
145 77
146 21
148 7
149 304
150 345
151 410
152 284
153 105
155 54
156 34
158 18
159 68
160 38
161 106
162 165
163 423
164 353
165 297
166 98
168 39
169 11
170 15
173 22
174 43
175 192
176 255
177 379
178 350
179 157
181 4
182 4
183 69
184 21
187 27
188 53
189 141
190 271
191 198
192 121
193 203
194 59
195 92
197 88
198 35
199 60
200 14
202 7
203 197
204 126
205 329
211 5
212 33
213 103
214 185
217 39
218 40
219 150
220 89
221 63
227 24
228 136
229 8
230 23
238 123
239 334
240 274
241 104
242 151
246 90
248 176
249 11
250 96
253 104
254 174
255 615
256 326
257 379
258 152
263 21
264 26
268 137
270 39
274 81
275 411
276 205
277 368
278 186
279 163
280 66
281 61
282 276
283 969
284 520
285 758
286 296
289 600
290 863
291 754
292 797
293 515
294 418
305 30
316 17
317 848
318 999
319 928
320 925
321 521
322 460
323 118

$$$$

     RDKit          2D

 20 21  0  0  0  0  0  0  0  0999 V2000
   -5.1982   -0.7588    0.0000 C   0  0  0  0  0  0  0  0  0  0  0  0
    2.6032    3.7341    0.0000 C   0  0  0  0  0  0  0  0  0  0  0  0
    3.9082    2.9898    0.0000 C   0  0  0  0  0  0  0  0  0  0  0  0
    1.2973    2.9961    0.0000 C   0  0  0  0  0  0  0  0  0  0  0  0
    3.8997    1.4803    0.0000 C   0  0  0  0  0  0  0  0  0  0  0  0
   -0.0009   -3.7599    0.0000 C   0  0  0  0  0  0  0  0  0  0  0  0
   -1.3004   -3.0090    0.0000 C   0  0  0  0  0  0  0  0  0  0  0  0
    1.2976   -1.5090    0.0000 C   0  0  0  0  0  0  0  0  0  0  0  0
   -3.8990   -1.5086    0.0000 C   0  0  0  0  0  0  0  0  0  0  0  0
    1.2981   -3.0099    0.0000 C   0  0  0  0  0  0  0  0  0  0  0  0
    1.2975    1.4916    0.0000 C   0  0  0  0  0  0  0  0  0  0  0  0
   -0.0019   -0.7582    0.0000 C   0  0  0  0  0  0  0  0  0  0  0  0
    2.5938    0.7424    0.0000 C   0  0  0  0  0  0  0  0  0  0  0  0
   -1.3009   -1.5082    0.0000 C   0  0  0  0  0  0  0  0  0  0  0  0
   -0.0016    0.7418    0.0000 C   0  0  0  0  0  0  0  0  0  0  0  0
    2.5973   -3.7597    0.0000 Cl  0  0  0  0  0  0  0  0  0  0  0  0
    2.5865   -0.7576    0.0000 Cl  0  0  0  0  0  0  0  0  0  0  0  0
   -2.6001   -0.7584    0.0000 N   0  0  0  0  0  0  0  0  0  0  0  0
   -3.8988   -3.0086    0.0000 O   0  0  0  0  0  0  0  0  0  0  0  0
   -1.3006    1.4920    0.0000 O   0  0  0  0  0  0  0  0  0  0  0  0
  3  2  2  0
  4  2  1  0
  5  3  1  0
  7  6  2  0
  9  1  1  0
 10  6  1  0
 10  8  2  0
 11  4  2  0
 12  8  1  0
 13  5  2  0
 13 11  1  0
 14  7  1  0
 14 12  2  0
 15 11  1  0
 15 12  1  0
 16 10  1  0
 17 13  1  0
 18  9  2  3
 18 14  1  0
 19  9  1  0
 20 15  2  0
M  END
>  <NAME>  (4633) 
2',5-DICHLORO-2-ACETAMIDOBENZOPHENONE

>  <SYNONYMS>  (4633) 


>  <SPECTRUM TYPE>  (4633) 
MS1

>  <INSTRUMENT TYPE>  (4633) 
EI-B

>  <INSTRUMENT>  (4633) 
HITACHI RMU-6E

>  <ION MODE>  (4633) 
P

>  <INCHIKEY>  (4633) 
UFFQVZHDIPJFDP-UHFFFAOYSA-N

>  <FORMULA>  (4633) 
C15H11Cl2NO2

>  <EXACT MASS>  (4633) 
307.016683952

>  <MW>  (4633) 
307

>  <ID>  (4633) 
JP003514

>  <CONTRIBUTOR>  (4633) 
University of Tokyo Team, {Faculty of Engineering, University of Tokyo

>  <COMMENT>  (4633) 
SMILES=CC(=O)Nc(c2)c(cc(Cl)c2)C(=O)c(c1)c(Cl)ccc1
InChI=InChI=1S/C15H11Cl2NO2/c1-9(19)18-14-7-6-10(16)8-12(14)15(20)11-4-2-3-5-13(11)17/h2-8H,1H3,(H,18,19)
computed SMILES=O=C(C=1C=CC=CC1Cl)C2=CC(Cl)=CC=C2N=C(O)C
accession=JP003514
date=2016.01.19 (Created 2008.10.21, modified 2011.05.06)
author=YAMAMOTO M, DEP. CHEMISTRY, FAC. SCIENCE, NARA WOMEN'S UNIV.
license=CC BY-NC-SA
exact mass=307.01668
ionization energy=70 eV
ion type=[M]+*
computed spectral entropy=3.4790131981007626
computed normalized entropy=0.7851855213262205
SPLASH=splash10-00lu-4591000000-c9cbe5d37bab555168fd
submitter=submitter = University of Tokyo Team (Faculty of Engineering, University of Tokyo)
MoNA Rating=3.75

>  <NUM PEAKS>  (4633) 
84

>  <MASS SPECTRAL PEAKS>  (4633) 
15 5.3
18 2.1
28 2.2
39 3.3
41 1.4
43 70.2
44 2
45 0.24
50 3.2
51 4.8
52 2.2
62 0.28
63 9.6
64 2.7
73 2.2
74 0.21
75 15.9
76 3
77 4.4
82.5 0.14
88 1.7
89 1.8
90 7.3
91 0.3
98 2.2
99 6.6
100 1.7
101 0.22
105 1.7
111 25.7
112 2.2
113 0.86
124 2.2
125 2.7
126 15.2
127 0.22
128 4.6
138 2
139 23.3
140 0.32
141 7.4
149 1.8
150 1.4
153 0.22
154 22
155 2.6
156 7.2
164 0.27
165 2
166 6.3
167 6
168 0.99
169 1.2
170 3
173 1.3
194 0.14
195 11.6
196 2
200 2.5
201 0.41
202 2.4
203 1.5
229 10.5
230 99.99
231 18.2
232 32.9
233 4.8
236 0.38
237 1.4
238 2.5
248 3.1
250 0.22
264 18.5
265 49.4
266 18.8
267 3.31
268 6.6
269 5.4
272 1.4
307 3
308 5.2
309 19.4
310 3.3
311 3.2

>  <PREDICTED SPECTRUM>  (4633) 
36 63
37 6
38 60
39 94
40 76
41 236
42 138
43 897
44 224
45 213
46 10
47 8
49 57
50 449
51 464
52 224
53 219
54 58
55 204
56 160
57 210
61 214
62 282
63 467
64 181
65 258
66 59
67 143
68 5
69 275
70 24
71 102
73 215
74 409
75 878
76 431
77 468
78 142
79 183
80 19
81 132
82 76
83 104
84 149
85 240
86 146
87 230
88 156
89 350
90 231
91 215
92 71
93 159
94 28
95 137
96 52
97 168
98 165
99 335
100 186
101 283
102 243
103 168
104 122
105 241
106 148
107 184
108 123
109 248
110 178
111 983
112 268
113 646
114 183
115 246
116 133
117 136
118 68
119 47
120 62
121 48
122 124
123 210
124 97
125 318
126 256
127 268
128 143
129 5
133 110
134 100
135 116
136 168
137 158
138 112
139 912
140 248
141 703
142 125
143 91
144 53
145 74
148 75
149 268
150 234
151 469
152 507
153 418
154 212
155 146
156 34
157 79
160 42
161 67
162 28
163 34
164 189
165 141
166 242
167 232
168 490
169 158
170 228
171 136
172 95
173 83
175 93
176 44
177 43
178 153
179 113
180 94
181 105
182 43
183 99
184 1
185 85
186 103
187 82
188 169
189 50
190 46
191 21
192 153
193 87
194 190
195 218
196 825
197 330
198 315
199 137
200 142
201 93
202 73
207 63
208 30
209 38
212 2
214 201
215 33
216 47
218 13
220 90
221 65
222 48
226 66
227 153
228 372
229 430
230 376
231 199
232 147
233 71
234 20
235 43
236 206
237 179
239 12
242 105
243 25
244 236
245 28
246 107
247 114
248 69
249 83
250 96
252 24
253 50
254 299
255 118
256 176
257 178
259 26
260 69
261 41
262 186
263 189
264 415
265 115
266 271
267 58
268 75
272 860
273 307
274 590
275 222
278 84
280 12
288 12
289 28
290 325
291 175
292 865
293 394
294 473
295 157
296 152
306 185
307 999
308 531
309 828
310 355
311 316
312 80

$$$$

     RDKit          2D

 21 23  0  0  0  0  0  0  0  0999 V2000
    1.2008    5.0616    0.0000 C   0  0  0  0  0  0  0  0  0  0  0  0
    0.1047    6.0890    0.0000 C   0  0  0  0  0  0  0  0  0  0  0  0
    0.8809    3.5961    0.0000 C   0  0  0  0  0  0  0  0  0  0  0  0
   -1.3351    5.6356    0.0000 C   0  0  0  0  0  0  0  0  0  0  0  0
    2.8800   -0.7500    0.0000 C   0  0  0  0  0  0  0  0  0  0  0  0
    1.5800   -1.5000    0.0000 C   0  0  0  0  0  0  0  0  0  0  0  0
    1.5800    1.5000    0.0000 C   0  0  0  0  0  0  0  0  0  0  0  0
    2.8800    0.7500    0.0000 C   0  0  0  0  0  0  0  0  0  0  0  0
   -0.5568    3.1525    0.0000 C   0  0  0  0  0  0  0  0  0  0  0  0
    0.2800    0.7500    0.0000 C   0  0  0  0  0  0  0  0  0  0  0  0
   -1.6550    4.1701    0.0000 C   0  0  0  0  0  0  0  0  0  0  0  0
    0.2800   -0.7500    0.0000 C   0  0  0  0  0  0  0  0  0  0  0  0
   -0.8900    1.6900    0.0000 C   0  0  0  0  0  0  0  0  0  0  0  0
   -2.3500   -1.3500    0.0000 C   0  0  0  0  0  0  0  0  0  0  0  0
   -3.0000    0.0000    0.0000 C   0  0  0  0  0  0  0  0  0  0  0  0
    4.1789    1.5002    0.0000 Cl  0  0  0  0  0  0  0  0  0  0  0  0
   -3.0861    3.7207    0.0000 Cl  0  0  0  0  0  0  0  0  0  0  0  0
   -0.8900   -1.6900    0.0000 N   0  0  0  0  0  0  0  0  0  0  0  0
   -2.3500    1.3500    0.0000 N   0  0  0  0  0  0  0  0  0  0  0  0
   -3.2879   -2.5207    0.0000 O   0  0  0  0  0  0  0  0  0  0  0  0
   -4.5000    0.0000    0.0000 O   0  0  0  0  0  0  0  0  0  0  0  0
  2  1  2  0
  3  1  1  0
  4  2  1  0
  6  5  2  0
  8  5  1  0
  8  7  2  0
  9  3  2  0
 10  7  1  0
 11  4  2  0
 11  9  1  0
 12  6  1  0
 12 10  2  0
 13  9  1  0
 13 10  1  0
 15 14  1  0
 16  8  1  0
 17 11  1  0
 18 12  1  0
 18 14  2  0
 19 13  2  0
 19 15  1  0
 20 14  1  0
 21 15  1  0
M  END
>  <NAME>  (4634) 
LORAZEPAM

>  <SYNONYMS>  (4634) 


>  <SPECTRUM TYPE>  (4634) 
MS1

>  <INSTRUMENT TYPE>  (4634) 
EI-B

>  <INSTRUMENT>  (4634) 
HITACHI RMU-6E

>  <ION MODE>  (4634) 
P

>  <INCHIKEY>  (4634) 
DIWRORZWFLOCLC-UHFFFAOYSA-N

>  <FORMULA>  (4634) 
C15H10Cl2N2O2

>  <EXACT MASS>  (4634) 
320.01193292

>  <MW>  (4634) 
320

>  <ID>  (4634) 
JP003513

>  <CONTRIBUTOR>  (4634) 
University of Tokyo Team, {Faculty of Engineering, University of Tokyo

>  <COMMENT>  (4634) 
SMILES=Clc(c3)cc(c(c3)2)C(=NC(O)C(=O)N2)c(c1)c(Cl)ccc1
InChI=InChI=1S/C15H10Cl2N2O2/c16-8-5-6-12-10(7-8)13(19-15(21)14(20)18-12)9-3-1-2-4-11(9)17/h1-7,15,21H,(H,18,20)
computed SMILES=ClC=1C=CC=2N=C(O)C(O)N=C(C=3C=CC=CC3Cl)C2C1
accession=JP003513
date=2016.01.19 (Created 2008.10.21, modified 2011.05.06)
author=YAMAMOTO M, DEP. CHEMISTRY, FAC. SCIENCE, NARA WOMEN'S UNIV.
license=CC BY-NC-SA
exact mass=320.01193
ionization energy=70 eV
ion type=[M]+*
computed spectral entropy=4.143706145960681
computed normalized entropy=0.8216055656422326
SPLASH=splash10-009i-6791000000-942b7493f1e9fc3d12be
submitter=submitter = University of Tokyo Team (Faculty of Engineering, University of Tokyo)
MoNA Rating=3.75

>  <NUM PEAKS>  (4634) 
155

>  <MASS SPECTRAL PEAKS>  (4634) 
17 10.4
18 43.4
27 3.5
28 4.9
29 5.2
36 4
38 1.6
39 0.47
41 4.9
43 6.9
45 2.4
50 1.45
51 14.7
52 3
55 4.5
56 0.16
57 4.7
58 1.7
59 3.6
60 0.19
61 2.5
62 5.9
63 5.8
64 0.15
65 1.4
67 1.5
69 3
70 0.23
71 2.6
73 3.8
74 13.9
74.5 0.26
75 69.3
75.5 2.8
76 12.9
77 0.9
81 1.8
83 1.7
84 2.8
85 0.52
86 3.4
87 4.3
87.5 2.6
88 0.68
88.5 4.6
89 2.4
92 2.7
92.5 0.19
93 3.7
95 1.4
96 1.8
97 0.15
98 3.3
99 7.7
100 15.4
101 0.82
101.5 5.8
102 24.4
103 2.3
105.5 0.36
106 3.5
106.5 2.2
107 1.6
109 0.23
110 16.1
110.5 1.6
111 37.8
112 1.32
113 13.2
114 3.4
115 1.4
118.5 0.14
119 8.2
119.5 11.6
120 4.6
120.5 0.39
121 1.4
122 1.3
123 3.3
124 0.3
125 3.9
126 3.2
127 2.5
133 0.16
136 9.4
137 16
138 37
139 0.77
140 11.1
141 1.7
148 1
149 1.02
150 9.5
151 6.9
152 2.9
153 0.16
154 1.3
160 1.5
161 1.5
162 0.16
163 9.6
164 1.9
165 3.8
174 0.22
175 8.1
176 17.3
177 23.4
178 0.45
179 1.7
185 1.7
186 2.3
202 0.93
203 12
204 10.7
205 2.5
210 0.25
211 6.1
212 4.1
213 3.3
214 0.17
237 2.9
238 5
239 99.99
240 18.1
241 33.2
242 5.7
248 2.3
250 0.15
257 1.4
267 17.9
268 3.4
269 0.61
270 1.3
273 22.2
274 75.4
275 2.74
276 50.8
277 11.1
278 8.7
279 0.21
285 1.3
291 12.5
292 2.2
293 0.8
294 1.8
295 1.5
301 5.2
302 6.23
303 15.9
304 41.9
305 8.2
306 0.73
307 1.4
320 2
322 1.4

>  <PREDICTED SPECTRUM>  (4634) 
36 63
38 31
39 1
41 3
42 145
43 105
44 285
45 228
49 190
50 445
51 452
52 184
53 62
54 34
55 75
56 119
57 134
58 93
61 182
62 364
63 538
64 170
65 135
66 21
68 63
69 132
70 26
71 78
72 113
73 355
74 431
75 872
76 383
77 245
82 143
83 46
84 239
85 214
86 384
87 319
88 197
89 339
90 29
95 1
96 114
97 88
98 204
99 510
100 456
101 391
102 600
103 109
105 87
106 42
107 38
108 34
109 73
110 336
111 664
112 309
113 612
114 493
115 380
116 67
119 0
120 10
122 200
123 490
125 218
126 265
127 552
128 133
131 7
133 19
134 71
136 475
137 525
138 567
139 449
140 224
141 144
142 49
145 31
147 46
149 412
150 526
151 337
152 262
153 308
154 207
155 4
156 62
157 166
159 83
162 278
163 386
164 304
170 13
174 134
175 257
176 650
177 330
178 195
179 97
180 99
181 185
182 65
186 15
187 52
188 112
190 11
192 80
193 89
201 4
202 149
203 234
204 406
205 283
206 103
207 290
208 119
209 263
210 123
211 250
212 123
213 247
214 247
217 1
218 204
219 113
220 99
221 120
222 105
233 129
237 56
238 183
239 887
240 922
241 924
242 402
243 21
246 161
248 37
250 400
252 4
255 122
257 72
267 767
268 389
269 517
270 36
273 113
274 422
275 470
276 560
277 390
278 215
285 999
286 234
287 511
288 68
301 157
302 747
303 620
304 539
305 517
306 248
307 73
319 284
320 793
321 352
322 783
323 274
324 340
325 65

$$$$

     RDKit          2D

 20 21  0  0  0  0  0  0  0  0999 V2000
    2.5987    3.0002    0.0000 C   0  0  0  0  0  0  0  0  0  0  0  0
    3.8879   -5.2522    0.0000 C   0  0  0  0  0  0  0  0  0  0  0  0
    2.5908   -6.0103    0.0000 C   0  0  0  0  0  0  0  0  0  0  0  0
    3.9018   -3.7523    0.0000 C   0  0  0  0  0  0  0  0  0  0  0  0
    1.2878   -5.2482    0.0000 C   0  0  0  0  0  0  0  0  0  0  0  0
   -1.3000    0.7500    0.0000 C   0  0  0  0  0  0  0  0  0  0  0  0
    0.0000    1.5000    0.0000 C   0  0  0  0  0  0  0  0  0  0  0  0
    0.0000   -1.5000    0.0000 C   0  0  0  0  0  0  0  0  0  0  0  0
    3.8981    0.7504    0.0000 C   0  0  0  0  0  0  0  0  0  0  0  0
   -1.3000   -0.7500    0.0000 C   0  0  0  0  0  0  0  0  0  0  0  0
    2.5987   -3.0002    0.0000 C   0  0  0  0  0  0  0  0  0  0  0  0
    1.3000   -0.7500    0.0000 C   0  0  0  0  0  0  0  0  0  0  0  0
    1.3017   -3.7482    0.0000 C   0  0  0  0  0  0  0  0  0  0  0  0
    1.3000    0.7500    0.0000 C   0  0  0  0  0  0  0  0  0  0  0  0
    2.5989   -1.5002    0.0000 C   0  0  0  0  0  0  0  0  0  0  0  0
   -2.5989   -1.5002    0.0000 Cl  0  0  0  0  0  0  0  0  0  0  0  0
    0.0063   -2.9919    0.0000 Cl  0  0  0  0  0  0  0  0  0  0  0  0
    2.5989    1.5002    0.0000 N   0  0  0  0  0  0  0  0  0  0  0  0
    5.1970    1.5006    0.0000 O   0  0  0  0  0  0  0  0  0  0  0  0
    3.8981   -0.7504    0.0000 O   0  0  0  0  0  0  0  0  0  0  0  0
  3  2  2  0
  4  2  1  0
  5  3  1  0
  7  6  2  0
 10  6  1  0
 10  8  2  0
 11  4  2  0
 12  8  1  0
 13  5  2  0
 13 11  1  0
 14  7  1  0
 14 12  2  0
 15 11  1  0
 15 12  1  0
 16 10  1  0
 17 13  1  0
 18  1  1  0
 18  9  1  0
 18 14  1  0
 19  9  2  0
 20 15  2  0
M  END
>  <NAME>  (4635) 
2',5-DICHLORO-2-(N-METHYLFORMAMIDO)BENZOPHENONE

>  <SYNONYMS>  (4635) 


>  <SPECTRUM TYPE>  (4635) 
MS1

>  <INSTRUMENT TYPE>  (4635) 
EI-B

>  <INSTRUMENT>  (4635) 
HITACHI RMU-6E

>  <ION MODE>  (4635) 
P

>  <INCHIKEY>  (4635) 
OCVBHBHJZKOSNY-UHFFFAOYSA-N

>  <FORMULA>  (4635) 
C15H11Cl2NO2

>  <EXACT MASS>  (4635) 
307.01668395200005

>  <MW>  (4635) 
307

>  <ID>  (4635) 
JP003512

>  <CONTRIBUTOR>  (4635) 
University of Tokyo Team, {Faculty of Engineering, University of Tokyo

>  <COMMENT>  (4635) 
SMILES=O=CN(C)c(c2)c(cc(Cl)c2)C(=O)c(c1)c(Cl)ccc1
InChI=InChI=1S/C15H11Cl2NO2/c1-18(9-19)14-7-6-10(16)8-12(14)15(20)11-4-2-3-5-13(11)17/h2-9H,1H3
computed SMILES=O=CN(C1=CC=C(Cl)C=C1C(=O)C=2C=CC=CC2Cl)C
accession=JP003512
date=2016.01.19 (Created 2008.10.21, modified 2011.05.06)
author=YAMAMOTO M, DEP. CHEMISTRY, FAC. SCIENCE, NARA WOMEN'S UNIV.
license=CC BY-NC-SA
exact mass=307.01668
ionization energy=70 eV
ion type=[M]+*
computed spectral entropy=3.8235936123767083
computed normalized entropy=0.8199085557275263
SPLASH=splash10-0a4i-8920000000-b372519dfd202c421417
submitter=submitter = University of Tokyo Team (Faculty of Engineering, University of Tokyo)
MoNA Rating=3.75

>  <NUM PEAKS>  (4635) 
106

>  <MASS SPECTRAL PEAKS>  (4635) 
30 3.8
39 3.6
41 13.2
42 3
43 18.3
44 2.9
45 3.2
50 0.48
51 14.3
55 15.8
56 6.8
57 2.4
58 1.8
60 1.7
63 2.4
67 0.37
68 3.2
69 14.2
70 7.7
71 1.36
73 1.8
74 3.4
75 9.6
76 0.46
77 40.8
78 4.1
79 2.3
81 0.49
82 4.8
83 11.6
84 5.7
85 0.91
91 2.7
93 2
95 3.8
96 0.28
97 10
98 3.5
99 4.9
102 0.16
104 3.8
105 99.99
106 8.7
107 0.23
109 2.5
110 2.1
111 11.6
112 0.35
113 4.3
115 1.6
117 1.7
119 0.18
122 2.1
123 2.4
124.5 1.4
125 0.7
126 2.2
127 2.7
129 1.8
130 0.14
133 3.6
134 30
135 3.6
137 0.17
138 2
139 6.7
140 2.9
141 0.43
145 1.6
149 15.9
150 3.5
151 0.2
152 2.3
153.5 1.6
154.5 1.4
155.5 0.17
161 7.3
162 4.1
165 1.5
166 0.63
167 2.3
168 10.9
180 1.7
207 10.5
208 3.7
209 0.28
214 1.6
226 1.9
227 3.9
228 0.19
229 9.3
230 1.6
231 2.7
244 1.61
245 2.8
246 5.7
262 2.8
264 0.15
272 1.5
278 2.5
279 8.8
280 0.3
281 5.9
282 1.3
307 4
309 2.6

>  <PREDICTED SPECTRUM>  (4635) 
15 0
34 12
36 78
37 17
38 61
39 69
40 96
41 117
42 216
43 215
44 320
45 132
47 16
49 77
50 347
51 453
52 110
53 121
54 28
55 128
56 166
57 162
58 44
61 86
62 145
63 266
64 45
65 135
67 83
68 25
69 197
70 113
71 105
72 29
73 152
74 246
75 585
76 356
77 789
78 162
79 201
81 114
82 153
83 205
84 222
85 181
86 66
87 105
88 39
89 161
90 82
91 150
92 35
93 128
94 58
95 94
96 87
97 266
98 223
99 283
100 121
101 49
102 59
103 76
104 46
105 999
106 163
107 143
108 16
109 244
110 134
111 645
112 232
113 435
114 25
115 107
116 33
117 76
118 53
119 45
120 13
121 143
122 176
123 238
124 138
125 243
126 238
127 163
129 9
131 64
132 207
133 199
134 260
135 185
136 127
137 162
138 45
139 328
140 144
141 128
147 112
148 37
149 307
150 163
151 191
152 319
153 251
154 145
155 63
161 88
162 148
163 129
164 216
165 195
166 122
167 194
168 411
169 91
170 114
175 63
176 9
177 75
179 17
188 68
189 0
194 43
195 130
196 42
197 10
200 28
201 32
202 87
203 50
204 141
206 84
207 14
208 57
209 63
228 120
229 178
230 212
231 38
232 11
233 1
235 9
244 384
245 170
246 434
247 140
254 102
262 65
263 30
264 15
272 95
278 241
279 402
280 253
281 293
282 102
283 40
307 272
308 30
309 210
311 17

$$$$

     RDKit          2D

 14 15  0  0  0  0  0  0  0  0999 V2000
    2.6838    2.4465    0.0000 C   0  0  0  0  0  0  0  0  0  0  0  0
   -0.5000   -3.1900    0.0000 C   0  0  0  0  0  0  0  0  0  0  0  0
   -3.0989    1.3102    0.0000 C   0  0  0  0  0  0  0  0  0  0  0  0
    3.1000   -0.1900    0.0000 C   0  0  0  0  0  0  0  0  0  0  0  0
    0.8000    0.5600    0.0000 C   0  0  0  0  0  0  0  0  0  0  0  0
    0.8000   -0.9400    0.0000 C   0  0  0  0  0  0  0  0  0  0  0  0
   -0.5000    1.3100    0.0000 C   0  0  0  0  0  0  0  0  0  0  0  0
   -1.8000   -0.9400    0.0000 C   0  0  0  0  0  0  0  0  0  0  0  0
    2.2200   -1.4000    0.0000 N   0  0  0  0  0  0  0  0  0  0  0  0
    2.2200    1.0200    0.0000 N   0  0  0  0  0  0  0  0  0  0  0  0
   -0.5000   -1.6900    0.0000 N   0  0  0  0  0  0  0  0  0  0  0  0
   -1.8000    0.5600    0.0000 N   0  0  0  0  0  0  0  0  0  0  0  0
   -0.5000    2.8100    0.0000 O   0  0  0  0  0  0  0  0  0  0  0  0
   -3.0989   -1.6902    0.0000 O   0  0  0  0  0  0  0  0  0  0  0  0
  6  5  2  0
  7  5  1  0
  9  4  2  0
  9  6  1  0
 10  1  1  0
 10  4  1  0
 10  5  1  0
 11  2  1  0
 11  6  1  0
 11  8  1  0
 12  3  1  0
 12  7  1  0
 12  8  1  0
 13  7  2  0
 14  8  2  0
M  END
>  <NAME>  (4636) 
CAFFEINE

>  <SYNONYMS>  (4636) 


>  <SPECTRUM TYPE>  (4636) 
MS1

>  <INSTRUMENT TYPE>  (4636) 
EI-B

>  <INSTRUMENT>  (4636) 
HITACHI M-68

>  <ION MODE>  (4636) 
P

>  <INCHIKEY>  (4636) 
RYYVLZVUVIJVGH-UHFFFAOYSA-N

>  <FORMULA>  (4636) 
C8H10N4O2

>  <EXACT MASS>  (4636) 
194.08037556

>  <MW>  (4636) 
194

>  <ID>  (4636) 
JP003511

>  <CONTRIBUTOR>  (4636) 
University of Tokyo Team, {Faculty of Engineering, University of Tokyo

>  <COMMENT>  (4636) 
SMILES=Cn(c2)c(C(=O)1)c(n2)N(C)C(=O)N(C)1
InChI=InChI=1S/C8H10N4O2/c1-10-4-9-6-5(10)7(13)12(3)8(14)11(6)2/h4H,1-3H3
computed SMILES=O=C1C2=C(N=CN2C)N(C(=O)N1C)C
accession=JP003511
date=2016.01.19 (Created 2008.10.21, modified 2011.05.06)
author=YAMAMOTO M, DEP. CHEMISTRY, FAC. SCIENCE, NARA WOMEN'S UNIV.
license=CC BY-NC-SA
exact mass=194.08038
ionization energy=70 eV
ion type=[M]+*
computed spectral entropy=1.6401046716144596
computed normalized entropy=0.5915427190692507
SPLASH=splash10-0006-1900000000-2ba1fae6e27c7b836984
submitter=submitter = University of Tokyo Team (Faculty of Engineering, University of Tokyo)
MoNA Rating=3.75

>  <NUM PEAKS>  (4636) 
16

>  <MASS SPECTRAL PEAKS>  (4636) 
28 1.4
55 7.9
67 9.7
68 1
82 9.3
83 1.4
108 1
109 2.32
110 8.6
123 2.9
138 1.4
165 0.34
193 5.6
194 99.99
195 19.7
196 1.7

>  <PREDICTED SPECTRUM>  (4636) 
33 1
39 94
40 117
41 161
42 387
43 85
44 59
45 40
51 81
52 155
53 263
54 294
55 340
56 440
57 246
58 185
61 6
63 6
64 43
65 74
66 222
67 735
68 475
69 268
70 276
71 81
72 34
78 65
79 80
80 133
81 436
82 655
83 410
84 11
85 18
92 14
93 117
94 213
95 207
96 138
97 149
98 2
99 13
107 42
108 268
109 558
110 281
111 167
121 69
122 187
123 133
124 70
127 4
135 39
136 209
137 383
138 143
139 52
149 65
150 121
151 143
152 107
164 92
165 326
166 202
167 167
177 3
178 48
179 111
180 314
192 25
193 659
194 999
195 448
196 124

$$$$

     RDKit          2D

  9 10  0  0  0  0  0  0  0  0999 V2000
   -2.3100    0.7500    0.0000 C   0  0  0  0  0  0  0  0  0  0  0  0
   -2.3100   -0.7500    0.0000 C   0  0  0  0  0  0  0  0  0  0  0  0
   -1.0100    1.5000    0.0000 C   0  0  0  0  0  0  0  0  0  0  0  0
   -1.0100   -1.5000    0.0000 C   0  0  0  0  0  0  0  0  0  0  0  0
    2.6000   -0.0000    0.0000 C   0  0  0  0  0  0  0  0  0  0  0  0
    0.2900    0.7500    0.0000 C   0  0  0  0  0  0  0  0  0  0  0  0
    0.2900   -0.7500    0.0000 C   0  0  0  0  0  0  0  0  0  0  0  0
    1.7200    1.2100    0.0000 O   0  0  0  0  0  0  0  0  0  0  0  0
    1.7200   -1.2100    0.0000 O   0  0  0  0  0  0  0  0  0  0  0  0
  2  1  2  0
  3  1  1  0
  4  2  1  0
  6  3  2  0
  7  4  2  0
  7  6  1  0
  8  5  1  0
  8  6  1  0
  9  5  1  0
  9  7  1  0
M  END
>  <NAME>  (4637) 
1,3-BENZODIOXOLE

>  <SYNONYMS>  (4637) 


>  <SPECTRUM TYPE>  (4637) 
MS1

>  <INSTRUMENT TYPE>  (4637) 
EI-B

>  <INSTRUMENT>  (4637) 
HITACHI M-68

>  <ION MODE>  (4637) 
P

>  <INCHIKEY>  (4637) 
FTNJQNQLEGKTGD-UHFFFAOYSA-N

>  <FORMULA>  (4637) 
C7H6O2

>  <EXACT MASS>  (4637) 
122.036779432

>  <MW>  (4637) 
122

>  <ID>  (4637) 
JP003510

>  <CONTRIBUTOR>  (4637) 
University of Tokyo Team, {Faculty of Engineering, University of Tokyo

>  <COMMENT>  (4637) 
SMILES=c(c2)cc(O1)c(c2)OC1
InChI=InChI=1S/C7H6O2/c1-2-4-7-6(3-1)8-5-9-7/h1-4H,5H2
computed SMILES=O1C=2C=CC=CC2OC1
accession=JP003510
date=2016.01.19 (Created 2008.10.21, modified 2011.05.06)
author=YAMAMOTO M, DEP. CHEMISTRY, FAC. SCIENCE, NARA WOMEN'S UNIV.
license=CC BY-NC-SA
exact mass=122.03678
ionization energy=70 eV
ion type=[M]+*
computed spectral entropy=2.3384282354117034
computed normalized entropy=0.6944528646956144
SPLASH=splash10-00di-7900000000-0f0a5bb2c39c754f0997
submitter=submitter = University of Tokyo Team (Faculty of Engineering, University of Tokyo)
MoNA Rating=3.75

>  <NUM PEAKS>  (4637) 
29

>  <MASS SPECTRAL PEAKS>  (4637) 
14 3.1
18 12.6
26 4
27 1.7
28 13.6
30 1.4
39 9.1
40 3.2
41 1.9
43 0.16
49 1.6
50 5.7
51 5.2
52 0.41
54 2
57 1.3
61 6.8
62 0.91
63 36
64 21.3
65 11.7
66 1.07
77 1.9
79 2.5
92 2.3
93 0.13
121 99.99
122 68
123 6.1

>  <PREDICTED SPECTRUM>  (4637) 
26 42
27 34
33 11
36 8
37 98
38 161
39 186
40 64
41 37
42 74
44 33
45 29
48 28
49 108
50 323
51 444
52 296
53 311
54 125
61 128
62 207
63 371
64 288
65 311
66 177
67 2
68 27
69 39
74 67
75 43
76 126
77 182
78 85
79 90
80 212
81 138
91 140
92 187
93 264
94 183
95 61
107 23
120 31
121 631
122 999
123 302
124 113

$$$$

     RDKit          2D

  8  8  0  0  0  0  0  0  0  0999 V2000
    2.2733   -2.4375    0.0000 C   0  0  0  0  0  0  0  0  0  0  0  0
    2.2738   -0.9367    0.0000 C   0  0  0  0  0  0  0  0  0  0  0  0
    0.9738   -3.1883    0.0000 C   0  0  0  0  0  0  0  0  0  0  0  0
    0.9748   -0.1867    0.0000 C   0  0  0  0  0  0  0  0  0  0  0  0
   -0.3252   -2.4383    0.0000 C   0  0  0  0  0  0  0  0  0  0  0  0
   -1.6238   -0.1875    0.0000 N   0  0  0  0  0  0  0  0  0  0  0  0
   -0.3248   -0.9375    0.0000 N   0  0  0  0  0  0  0  0  0  0  0  0
   -2.9228   -0.9375    0.0000 O   0  0  0  0  0  0  0  0  0  0  0  0
  2  1  1  0
  3  1  1  0
  4  2  1  0
  5  3  1  0
  7  4  1  0
  7  5  1  0
  7  6  1  0
  8  6  2  0
M  END
>  <NAME>  (4638) 
NITROSOPIPERIDINE

>  <SYNONYMS>  (4638) 


>  <SPECTRUM TYPE>  (4638) 
MS1

>  <INSTRUMENT TYPE>  (4638) 
EI-B

>  <INSTRUMENT>  (4638) 
VARIAN MAT-44

>  <ION MODE>  (4638) 
P

>  <INCHIKEY>  (4638) 
UWSDONTXWQOZFN-UHFFFAOYSA-N

>  <FORMULA>  (4638) 
C5H10N2O

>  <EXACT MASS>  (4638) 
114.07931294

>  <MW>  (4638) 
114

>  <ID>  (4638) 
JP003292

>  <CONTRIBUTOR>  (4638) 
University of Tokyo Team, {Faculty of Engineering, University of Tokyo

>  <COMMENT>  (4638) 
SMILES=O=NN(C1)CCCC1
InChI=InChI=1S/C5H10N2O/c8-6-7-4-2-1-3-5-7/h1-5H2
computed SMILES=O=NN1CCCCC1
accession=JP003292
date=2016.01.19 (Created 2008.10.21, modified 2011.05.06)
author=KOGA M, UNIV. OF OCCUPATIONAL AND ENVIRONMENTAL HEALTH
license=CC BY-NC-SA
exact mass=114.07931
ionization energy=70 eV
ion type=[M]+*
computed spectral entropy=1.8632265089935163
computed normalized entropy=0.6880324848613072
SPLASH=splash10-0a4i-9100000000-d4d06a856b940bcb0461
submitter=submitter = University of Tokyo Team (Faculty of Engineering, University of Tokyo)
MoNA Rating=3.75

>  <NUM PEAKS>  (4638) 
15

>  <MASS SPECTRAL PEAKS>  (4638) 
51 3.29
52 2.64
53 8.36
54 16.62
55 99.99
56 44.19
57 5.88
67 4.2
68 2.21
69 2.1
82 3.93
83 4.1
84 4.85
114 26.71
115 1.8

>  <PREDICTED SPECTRUM>  (4638) 
14 5
15 28
16 6
17 14
18 30
26 50
27 161
28 158
29 260
30 683
31 99
32 26
34 16
36 3
37 65
38 141
39 519
40 289
41 999
42 960
43 584
44 404
45 211
46 45
49 24
50 90
51 136
52 155
53 332
54 441
55 760
56 550
57 370
58 0
59 13
66 102
67 285
68 397
69 497
70 285
71 22
80 127
81 92
82 304
83 486
84 791
85 215
86 39
95 32
96 299
97 496
98 341
99 29
114 746
115 227

$$$$

     RDKit          2D

 11 10  0  0  0  0  0  0  0  0999 V2000
    2.5981    4.5000    0.0000 C   0  0  0  0  0  0  0  0  0  0  0  0
   -7.7942    4.5000    0.0000 C   0  0  0  0  0  0  0  0  0  0  0  0
    1.2990    5.2500    0.0000 C   0  0  0  0  0  0  0  0  0  0  0  0
   -6.4952    5.2500    0.0000 C   0  0  0  0  0  0  0  0  0  0  0  0
    0.0000    4.5000    0.0000 C   0  0  0  0  0  0  0  0  0  0  0  0
   -5.1962    4.5000    0.0000 C   0  0  0  0  0  0  0  0  0  0  0  0
   -1.2990    5.2500    0.0000 C   0  0  0  0  0  0  0  0  0  0  0  0
   -3.8971    5.2500    0.0000 C   0  0  0  0  0  0  0  0  0  0  0  0
   -2.5981    3.0000    0.0000 N   0  0  0  0  0  0  0  0  0  0  0  0
   -2.5981    4.5000    0.0000 N   0  0  0  0  0  0  0  0  0  0  0  0
   -1.2990    2.2500    0.0000 O   0  0  0  0  0  0  0  0  0  0  0  0
  3  1  1  0
  4  2  1  0
  5  3  1  0
  6  4  1  0
  7  5  1  0
  8  6  1  0
 10  7  1  0
 10  8  1  0
 10  9  1  0
 11  9  2  0
M  END
>  <NAME>  (4639) 
N,N-DIBUTYLNITROSOAMINE

>  <SYNONYMS>  (4639) 


>  <SPECTRUM TYPE>  (4639) 
MS1

>  <INSTRUMENT TYPE>  (4639) 
EI-B

>  <INSTRUMENT>  (4639) 
VARIAN MAT-44

>  <ION MODE>  (4639) 
P

>  <INCHIKEY>  (4639) 
YGJHZCLPZAZIHH-UHFFFAOYSA-N

>  <FORMULA>  (4639) 
C8H18N2O

>  <EXACT MASS>  (4639) 
158.141913196

>  <MW>  (4639) 
158

>  <ID>  (4639) 
JP003291

>  <CONTRIBUTOR>  (4639) 
University of Tokyo Team, {Faculty of Engineering, University of Tokyo

>  <COMMENT>  (4639) 
SMILES=CCCCN(N=O)CCCC
InChI=InChI=1S/C8H18N2O/c1-3-5-7-10(9-11)8-6-4-2/h3-8H2,1-2H3
computed SMILES=O=NN(CCCC)CCCC
accession=JP003291
date=2016.01.19 (Created 2008.10.21, modified 2011.05.06)
author=KOGA M, UNIV. OF OCCUPATIONAL AND ENVIRONMENTAL HEALTH
license=CC BY-NC-SA
exact mass=158.14191
ionization energy=70 eV
ion type=[M]+*
computed spectral entropy=1.834256489052067
computed normalized entropy=0.6950423048670483
SPLASH=splash10-0a59-9000000000-8b188506108871f09d92
submitter=submitter = University of Tokyo Team (Faculty of Engineering, University of Tokyo)
MoNA Rating=3.75

>  <NUM PEAKS>  (4639) 
14

>  <MASS SPECTRAL PEAKS>  (4639) 
53 2.23
56 23.42
57 99.99
58 5.81
70 6.96
72 4.15
74 6.6
83 2.59
84 62.05
85 5.63
86 5.3
99 7.83
115 4.22
116 6.13

>  <PREDICTED SPECTRUM>  (4639) 
15 40
26 64
27 262
28 203
29 445
30 506
31 139
37 75
38 133
39 502
40 231
41 999
42 817
43 725
44 563
45 99
46 74
49 58
50 22
51 97
52 105
53 140
54 232
55 491
56 728
57 980
58 450
59 216
60 152
67 94
68 199
69 228
70 402
71 167
72 305
73 238
74 97
75 101
82 191
83 133
84 800
85 265
86 533
87 153
88 16
97 105
98 408
99 264
100 269
101 125
102 115
103 61
112 196
113 116
114 50
115 693
116 578
117 71
128 88
129 131
141 366
142 204
143 59
158 446
159 115

$$$$

     RDKit          2D

 11 10  0  0  0  0  0  0  0  0999 V2000
    2.2733    2.8125    0.0000 C   0  0  0  0  0  0  0  0  0  0  0  0
    0.9743    5.0625    0.0000 C   0  0  0  0  0  0  0  0  0  0  0  0
   -5.5209    2.8125    0.0000 C   0  0  0  0  0  0  0  0  0  0  0  0
   -4.2219    5.0625    0.0000 C   0  0  0  0  0  0  0  0  0  0  0  0
   -0.3248    2.8125    0.0000 C   0  0  0  0  0  0  0  0  0  0  0  0
   -2.9228    2.8125    0.0000 C   0  0  0  0  0  0  0  0  0  0  0  0
    0.9743    3.5625    0.0000 C   0  0  0  0  0  0  0  0  0  0  0  0
   -4.2219    3.5625    0.0000 C   0  0  0  0  0  0  0  0  0  0  0  0
   -1.6238    5.0625    0.0000 N   0  0  0  0  0  0  0  0  0  0  0  0
   -1.6238    3.5625    0.0000 N   0  0  0  0  0  0  0  0  0  0  0  0
   -2.9228    5.8125    0.0000 O   0  0  0  0  0  0  0  0  0  0  0  0
  7  1  1  0
  7  2  1  0
  7  5  1  0
  8  3  1  0
  8  4  1  0
  8  6  1  0
 10  5  1  0
 10  6  1  0
 10  9  1  0
 11  9  2  0
M  END
>  <NAME>  (4640) 
N,N-DIISOBUTYLNITROSOAMINE

>  <SYNONYMS>  (4640) 


>  <SPECTRUM TYPE>  (4640) 
MS1

>  <INSTRUMENT TYPE>  (4640) 
EI-B

>  <INSTRUMENT>  (4640) 
VARIAN MAT-44

>  <ION MODE>  (4640) 
P

>  <INCHIKEY>  (4640) 
XLZCLFRMPCBSDI-UHFFFAOYSA-N

>  <FORMULA>  (4640) 
C8H18N2O

>  <EXACT MASS>  (4640) 
158.141913196

>  <MW>  (4640) 
158

>  <ID>  (4640) 
JP003290

>  <CONTRIBUTOR>  (4640) 
University of Tokyo Team, {Faculty of Engineering, University of Tokyo

>  <COMMENT>  (4640) 
SMILES=O=NN(CC(C)C)CC(C)C
InChI=InChI=1S/C8H18N2O/c1-7(2)5-10(9-11)6-8(3)4/h7-8H,5-6H2,1-4H3
computed SMILES=O=NN(CC(C)C)CC(C)C
accession=JP003290
date=2016.01.19 (Created 2008.10.21, modified 2011.05.06)
author=KOGA M, UNIV. OF OCCUPATIONAL AND ENVIRONMENTAL HEALTH
license=CC BY-NC-SA
exact mass=158.14191
ionization energy=70 eV
ion type=[M]+*
computed spectral entropy=1.8132134701497529
computed normalized entropy=0.7069197935136788
SPLASH=splash10-0a4i-9000000000-798c08102f15dfb9267f
submitter=submitter = University of Tokyo Team (Faculty of Engineering, University of Tokyo)
MoNA Rating=3.75

>  <NUM PEAKS>  (4640) 
13

>  <MASS SPECTRAL PEAKS>  (4640) 
54 2.28
55 21.74
56 31.04
57 99.99
58 3.93
70 4.57
72 3.02
73 8.42
84 35.62
85 5.9
86 5.44
103 2.28
115 3.29

>  <PREDICTED SPECTRUM>  (4640) 
14 11
15 116
16 5
26 63
27 249
28 205
29 373
30 399
31 114
32 17
37 33
38 123
39 446
40 209
41 858
42 710
43 798
44 158
50 5
52 59
53 133
54 114
55 318
56 765
57 999
58 54
59 148
60 44
69 41
70 423
71 216
72 175
82 3
83 194
84 392
85 237
86 161
97 72
98 272
99 297
100 232
102 79
103 1
112 121
113 25
114 7
115 697
116 181
117 92
127 322
128 397
129 11
158 247

$$$$

     RDKit          2D

  9  8  0  0  0  0  0  0  0  0999 V2000
    1.9486    3.3750    0.0000 C   0  0  0  0  0  0  0  0  0  0  0  0
   -5.8457    3.3750    0.0000 C   0  0  0  0  0  0  0  0  0  0  0  0
    0.6495    4.1250    0.0000 C   0  0  0  0  0  0  0  0  0  0  0  0
   -4.5466    4.1250    0.0000 C   0  0  0  0  0  0  0  0  0  0  0  0
   -0.6495    3.3750    0.0000 C   0  0  0  0  0  0  0  0  0  0  0  0
   -3.2476    3.3750    0.0000 C   0  0  0  0  0  0  0  0  0  0  0  0
   -1.9486    5.6250    0.0000 N   0  0  0  0  0  0  0  0  0  0  0  0
   -1.9486    4.1250    0.0000 N   0  0  0  0  0  0  0  0  0  0  0  0
   -3.2476    6.3750    0.0000 O   0  0  0  0  0  0  0  0  0  0  0  0
  3  1  1  0
  4  2  1  0
  5  3  1  0
  6  4  1  0
  8  5  1  0
  8  6  1  0
  8  7  1  0
  9  7  2  0
M  END
>  <NAME>  (4641) 
N,N-DIPROPYLNITROSOAMINE

>  <SYNONYMS>  (4641) 


>  <SPECTRUM TYPE>  (4641) 
MS1

>  <INSTRUMENT TYPE>  (4641) 
EI-B

>  <INSTRUMENT>  (4641) 
VARIAN MAT-44

>  <ION MODE>  (4641) 
P

>  <INCHIKEY>  (4641) 
YLKFDHTUAUWZPQ-UHFFFAOYSA-N

>  <FORMULA>  (4641) 
C6H14N2O

>  <EXACT MASS>  (4641) 
130.110613068

>  <MW>  (4641) 
130

>  <ID>  (4641) 
JP003289

>  <CONTRIBUTOR>  (4641) 
University of Tokyo Team, {Faculty of Engineering, University of Tokyo

>  <COMMENT>  (4641) 
SMILES=CCCN(N=O)CCC
InChI=InChI=1S/C6H14N2O/c1-3-5-8(7-9)6-4-2/h3-6H2,1-2H3
computed SMILES=O=NN(CCC)CCC
accession=JP003289
date=2016.01.19 (Created 2008.10.21, modified 2011.05.06)
author=KOGA M, UNIV. OF OCCUPATIONAL AND ENVIRONMENTAL HEALTH
license=CC BY-NC-SA
exact mass=130.11061
ionization energy=70 eV
ion type=[M]+*
computed spectral entropy=1.5446045964162356
computed normalized entropy=0.6441501486483455
SPLASH=splash10-00di-9000000000-b3c25d2c178230284d42
submitter=submitter = University of Tokyo Team (Faculty of Engineering, University of Tokyo)
MoNA Rating=3.75

>  <NUM PEAKS>  (4641) 
11

>  <MASS SPECTRAL PEAKS>  (4641) 
54 2.58
56 7.74
57 3.26
58 29.07
59 4.61
69 2.17
70 99.99
71 18.88
101 4.61
113 3.66
130 5.29

>  <PREDICTED SPECTRUM>  (4641) 
15 37
18 1
26 59
27 193
28 159
29 278
30 534
31 197
32 29
37 2
38 86
39 325
40 180
41 661
42 822
43 999
44 338
45 403
46 84
52 11
53 82
54 142
55 251
56 379
57 372
58 246
59 185
60 93
68 56
69 53
70 979
71 565
72 483
73 69
74 16
83 87
84 435
85 349
86 161
87 38
88 74
98 107
99 169
100 253
101 440
102 168
113 136
114 51
129 18
130 567
131 168

$$$$

     RDKit          2D

 14 14  0  0  0  0  0  0  0  0999 V2000
    2.9576    3.9550    0.0000 C   0  0  0  0  0  0  0  0  0  0  0  0
   -0.9400    1.7058    0.0000 C   0  0  0  0  0  0  0  0  0  0  0  0
    0.3590    2.4558    0.0000 C   0  0  0  0  0  0  0  0  0  0  0  0
    0.3600   -0.5458    0.0000 C   0  0  0  0  0  0  0  0  0  0  0  0
   -0.9395    0.2050    0.0000 C   0  0  0  0  0  0  0  0  0  0  0  0
    1.6586    1.7050    0.0000 C   0  0  0  0  0  0  0  0  0  0  0  0
    1.6590    0.2042    0.0000 C   0  0  0  0  0  0  0  0  0  0  0  0
    2.9576    2.4550    0.0000 N   0  0  0  0  0  0  0  0  0  0  0  0
   -2.2386   -0.5450    0.0000 N   0  0  0  0  0  0  0  0  0  0  0  0
    2.9582   -0.5456    0.0000 N   0  0  0  0  0  0  0  0  0  0  0  0
   -3.5376    0.2050    0.0000 O   0  0  0  0  0  0  0  0  0  0  0  0
   -2.2386   -2.0450    0.0000 O   0  0  0  0  0  0  0  0  0  0  0  0
    4.2571    0.2046    0.0000 O   0  0  0  0  0  0  0  0  0  0  0  0
    2.9584   -2.0456    0.0000 O   0  0  0  0  0  0  0  0  0  0  0  0
  3  2  2  0
  5  2  1  0
  5  4  2  0
  6  3  1  0
  7  4  1  0
  7  6  2  0
  8  1  1  0
  8  6  1  0
  9  5  1  0
 10  7  1  0
 11  9  1  0
 12  9  2  0
 13 10  1  0
 14 10  2  0
M  CHG  4   9   1  10   1  11  -1  13  -1
M  END
>  <NAME>  (4642) 
N-METHYL-2,4-DINITROBENZENAMINE

>  <SYNONYMS>  (4642) 


>  <SPECTRUM TYPE>  (4642) 
MS1

>  <INSTRUMENT TYPE>  (4642) 
EI-B

>  <INSTRUMENT>  (4642) 
VARIAN MAT-44

>  <ION MODE>  (4642) 
P

>  <INCHIKEY>  (4642) 
IQEJEZOCXWJNKR-UHFFFAOYSA-N

>  <FORMULA>  (4642) 
C7H7N3O4

>  <EXACT MASS>  (4642) 
197.043655704

>  <MW>  (4642) 
197

>  <ID>  (4642) 
JP003270

>  <CONTRIBUTOR>  (4642) 
University of Tokyo Team, {Faculty of Engineering, University of Tokyo

>  <COMMENT>  (4642) 
SMILES=CNc(c1)c([N+1]([O-1])=O)cc(c1)[N+1]([O-1])=O
cas=2044-88-4
InChI=InChI=1S/C7H7N3O4/c1-8-6-3-2-5(9(11)12)4-7(6)10(13)14/h2-4,8H,1H3
computed SMILES=O=N(=O)C1=CC=C(NC)C(=C1)N(=O)=O
accession=JP003270
date=2016.01.19 (Created 2008.10.21, modified 2011.05.06)
author=KOGA M, UNIV. OF OCCUPATIONAL AND ENVIRONMENTAL HEALTH
license=CC BY-NC-SA
exact mass=197.04366
ionization energy=70 eV
ion type=[M]+*
computed spectral entropy=3.23728946486985
computed normalized entropy=0.8775807139101655
SPLASH=splash10-0kdi-9200000000-e781ad70b4a4729292e9
submitter=submitter = University of Tokyo Team (Faculty of Engineering, University of Tokyo)
MoNA Rating=3.75

>  <NUM PEAKS>  (4642) 
40

>  <MASS SPECTRAL PEAKS>  (4642) 
51 90.34
52 63.63
53 24.43
54 16.47
55 11.93
58 38.63
61 10.79
62 27.27
63 61.93
64 27.27
65 24.43
66 52.84
67 18.18
68 3.97
72 2.84
74 17.61
75 26.13
76 65.34
77 44.88
78 99.99
79 28.97
80 13.06
81 2.27
88 2.27
90 7.38
91 5.68
92 14.77
93 20.45
94 7.38
103 8.52
104 48.86
105 81.25
106 13.63
118 3.97
120 2.84
121 7.38
133 4.54
134 3.4
150 2.27
197 9.09

>  <PREDICTED SPECTRUM>  (4642) 
14 28
15 78
16 13
17 20
18 5
26 52
27 84
28 97
29 50
30 347
31 18
32 9
37 159
38 251
39 313
40 166
41 185
42 120
43 95
44 70
46 170
49 97
50 464
51 612
52 533
53 364
54 186
55 104
56 6
59 39
61 231
62 387
63 559
64 403
65 481
66 287
67 214
68 128
69 94
73 5
74 273
75 447
76 416
77 715
78 573
79 473
80 254
81 134
82 64
83 23
85 14
87 36
88 143
89 301
90 328
91 373
92 422
93 309
94 97
95 64
97 12
102 142
103 309
104 516
105 511
106 435
107 197
108 53
109 5
111 42
116 156
117 196
118 206
119 227
120 312
121 317
122 188
123 81
125 17
133 156
134 256
135 253
136 184
137 106
138 14
139 51
149 255
150 322
151 332
152 173
153 95
154 16
162 53
163 152
164 119
165 94
166 176
167 177
168 60
178 10
179 82
180 319
181 200
182 91
183 15
196 111
197 999
198 314
199 59

$$$$

     RDKit          2D

  8  8  0  0  0  0  0  0  0  0999 V2000
   -3.5067   -1.3755    0.0000 C   0  0  0  0  0  0  0  0  0  0  0  0
    2.3854    1.2910    0.0000 C   0  0  0  0  0  0  0  0  0  0  0  0
   -2.6985   -0.1119    0.0000 C   0  0  0  0  0  0  0  0  0  0  0  0
    1.0500   -1.0400    0.0000 C   0  0  0  0  0  0  0  0  0  0  0  0
    1.1300    0.4700    0.0000 C   0  0  0  0  0  0  0  0  0  0  0  0
   -1.2000   -0.1800    0.0000 C   0  0  0  0  0  0  0  0  0  0  0  0
   -0.3900   -1.4400    0.0000 N   0  0  0  0  0  0  0  0  0  0  0  0
   -0.2800    1.0000    0.0000 N   0  0  0  0  0  0  0  0  0  0  0  0
  3  1  1  0
  5  2  1  0
  5  4  1  0
  6  3  1  0
  7  4  1  0
  7  6  2  0
  8  5  1  0
  8  6  1  0
M  END
>  <NAME>  (4643) 
2-ETHYL-4-METHYL-IMIDAZOLINE

>  <SYNONYMS>  (4643) 


>  <SPECTRUM TYPE>  (4643) 
MS1

>  <INSTRUMENT TYPE>  (4643) 
EI-B

>  <INSTRUMENT>  (4643) 
HITACHI RMU-7

>  <ION MODE>  (4643) 
P

>  <INCHIKEY>  (4643) 
SHYARJUKNREDGB-UHFFFAOYSA-N

>  <FORMULA>  (4643) 
C6H12N2

>  <EXACT MASS>  (4643) 
112.10004838399999

>  <MW>  (4643) 
112

>  <ID>  (4643) 
JP003268

>  <CONTRIBUTOR>  (4643) 
University of Tokyo Team, {Faculty of Engineering, University of Tokyo

>  <COMMENT>  (4643) 
SMILES=CCC(N1)=NC(C)C1
InChI=InChI=1S/C6H12N2/c1-3-6-7-4-5(2)8-6/h5H,3-4H2,1-2H3,(H,7,8)
computed SMILES=N1=C(NC(C)C1)CC
accession=JP003268
date=2016.01.19 (Created 2008.10.21, modified 2011.05.06)
author=MASS SPECTROSCOPY SOC. OF JAPAN (MSSJ)
license=CC BY-NC-SA
exact mass=112.10005
ionization energy=70 eV
ion type=[M]+*
computed spectral entropy=2.761382485583579
computed normalized entropy=0.8688910361475066
SPLASH=splash10-02u1-9100000000-456a596c8281d18eea2f
submitter=submitter = University of Tokyo Team (Faculty of Engineering, University of Tokyo)
MoNA Rating=3.75

>  <NUM PEAKS>  (4643) 
24

>  <MASS SPECTRAL PEAKS>  (4643) 
39 15
40 7
41 38
42 32
43 7
44 7
54 52
55 14
56 54
57 6
68 46
69 99.99
70 12
81 5
82 63
83 78
84 8
95 9
96 7
97 98
98 9
111 32
112 89
113 9

>  <PREDICTED SPECTRUM>  (4643) 
14 21
15 57
26 82
27 200
28 211
29 166
30 139
37 13
38 105
39 376
40 287
41 581
42 595
43 272
44 161
45 6
50 3
51 128
52 154
53 123
54 335
55 429
56 686
57 410
66 52
67 118
68 182
69 539
70 410
71 121
81 46
82 249
83 280
84 233
85 22
96 102
97 999
98 317
111 621
112 706
113 259

$$$$

     RDKit          2D

  7  7  0  0  0  0  0  0  0  0999 V2000
    2.3854    1.2910    0.0000 C   0  0  0  0  0  0  0  0  0  0  0  0
   -2.6985   -0.1119    0.0000 C   0  0  0  0  0  0  0  0  0  0  0  0
    1.0500   -1.0400    0.0000 C   0  0  0  0  0  0  0  0  0  0  0  0
    1.1300    0.4700    0.0000 C   0  0  0  0  0  0  0  0  0  0  0  0
   -1.2000   -0.1800    0.0000 C   0  0  0  0  0  0  0  0  0  0  0  0
   -0.3900   -1.4400    0.0000 N   0  0  0  0  0  0  0  0  0  0  0  0
   -0.2800    1.0000    0.0000 N   0  0  0  0  0  0  0  0  0  0  0  0
  4  1  1  0
  4  3  1  0
  5  2  1  0
  6  3  1  0
  6  5  2  0
  7  4  1  0
  7  5  1  0
M  END
>  <NAME>  (4644) 
2,4-DIMETHYL IMIDAZOLINE

>  <SYNONYMS>  (4644) 


>  <SPECTRUM TYPE>  (4644) 
MS1

>  <INSTRUMENT TYPE>  (4644) 
EI-B

>  <INSTRUMENT>  (4644) 
HITACHI RMU-7

>  <ION MODE>  (4644) 
P

>  <INCHIKEY>  (4644) 
DIHAURBCYGTGCV-UHFFFAOYSA-N

>  <FORMULA>  (4644) 
C5H10N2

>  <EXACT MASS>  (4644) 
98.08439831999999

>  <MW>  (4644) 
98

>  <ID>  (4644) 
JP003267

>  <CONTRIBUTOR>  (4644) 
University of Tokyo Team, {Faculty of Engineering, University of Tokyo

>  <COMMENT>  (4644) 
SMILES=CC(C1)N=C(C)N1
InChI=InChI=1S/C5H10N2/c1-4-3-6-5(2)7-4/h4H,3H2,1-2H3,(H,6,7)
computed SMILES=N1=C(NC(C)C1)C
accession=JP003267
date=2016.01.19 (Created 2008.10.21, modified 2011.05.06)
author=MASS SPECTROSCOPY SOC. OF JAPAN (MSSJ)
license=CC BY-NC-SA
exact mass=98.0844
ionization energy=70 eV
ion type=[M]+*
computed spectral entropy=2.5017755169678444
computed normalized entropy=0.8496611866196961
SPLASH=splash10-067m-9000000000-85f00966cfcc80571526
submitter=submitter = University of Tokyo Team (Faculty of Engineering, University of Tokyo)
MoNA Rating=3.75

>  <NUM PEAKS>  (4644) 
19

>  <MASS SPECTRAL PEAKS>  (4644) 
39 8
40 8
41 20
42 76
43 10
44 13
52 6
53 3
54 38
55 88
56 8
68 50
69 70
82 6
83 99.99
84 14
97 25
98 78
99 8

>  <PREDICTED SPECTRUM>  (4644) 
14 30
15 84
16 1
26 65
27 130
28 144
29 78
37 66
38 143
39 374
40 264
41 428
42 428
43 463
44 165
50 100
51 172
52 204
53 269
54 330
55 366
56 271
57 80
63 5
64 23
65 103
66 100
67 232
68 94
69 165
70 200
71 82
81 38
82 2
83 999
84 258
97 250
98 380
99 94

$$$$

     RDKit          2D

 16 16  0  0  0  0  0  0  0  0999 V2000
   13.5530   -3.9091    0.0000 C   0  0  0  0  0  0  0  0  0  0  0  0
   12.2559   -4.6623    0.0000 C   0  0  0  0  0  0  0  0  0  0  0  0
   10.9550   -3.9156    0.0000 C   0  0  0  0  0  0  0  0  0  0  0  0
    9.6578   -4.6688    0.0000 C   0  0  0  0  0  0  0  0  0  0  0  0
    8.3569   -3.9220    0.0000 C   0  0  0  0  0  0  0  0  0  0  0  0
    7.0597   -4.6753    0.0000 C   0  0  0  0  0  0  0  0  0  0  0  0
    5.7588   -3.9285    0.0000 C   0  0  0  0  0  0  0  0  0  0  0  0
    4.4617   -4.6817    0.0000 C   0  0  0  0  0  0  0  0  0  0  0  0
    3.1608   -3.9350    0.0000 C   0  0  0  0  0  0  0  0  0  0  0  0
    1.8636   -4.6882    0.0000 C   0  0  0  0  0  0  0  0  0  0  0  0
    0.5627   -3.9415    0.0000 C   0  0  0  0  0  0  0  0  0  0  0  0
   -2.3538   -6.4931    0.0000 C   0  0  0  0  0  0  0  0  0  0  0  0
   -3.1012   -5.2011    0.0000 C   0  0  0  0  0  0  0  0  0  0  0  0
   -0.7345   -4.6947    0.0000 C   0  0  0  0  0  0  0  0  0  0  0  0
   -0.8827   -6.1894    0.0000 N   0  0  0  0  0  0  0  0  0  0  0  0
   -2.0975   -4.0864    0.0000 N   0  0  0  0  0  0  0  0  0  0  0  0
  2  1  1  0
  3  2  1  0
  4  3  1  0
  5  4  1  0
  6  5  1  0
  7  6  1  0
  8  7  1  0
  9  8  1  0
 10  9  1  0
 11 10  1  0
 13 12  1  0
 14 11  1  0
 15 12  1  0
 15 14  2  0
 16 13  1  0
 16 14  1  0
M  END
>  <NAME>  (4645) 
2-UNDECYL IMIDAZOLINE

>  <SYNONYMS>  (4645) 


>  <SPECTRUM TYPE>  (4645) 
MS1

>  <INSTRUMENT TYPE>  (4645) 
EI-B

>  <INSTRUMENT>  (4645) 
HITACHI RMU-7

>  <ION MODE>  (4645) 
P

>  <INCHIKEY>  (4645) 
FQHUDZKKDCTQET-UHFFFAOYSA-N

>  <FORMULA>  (4645) 
C14H28N2

>  <EXACT MASS>  (4645) 
224.22524889599998

>  <MW>  (4645) 
224

>  <ID>  (4645) 
JP003265

>  <CONTRIBUTOR>  (4645) 
University of Tokyo Team, {Faculty of Engineering, University of Tokyo

>  <COMMENT>  (4645) 
SMILES=CCCCCCCCCCCC(N1)=NCC1
InChI=InChI=1S/C14H28N2/c1-2-3-4-5-6-7-8-9-10-11-14-15-12-13-16-14/h2-13H2,1H3,(H,15,16)
computed SMILES=N1=C(NCC1)CCCCCCCCCCC
accession=JP003265
date=2016.01.19 (Created 2008.10.21, modified 2011.05.06)
author=MASS SPECTROSCOPY SOC. OF JAPAN (MSSJ)
license=CC BY-NC-SA
exact mass=224.22525
ionization energy=70 eV
ion type=[M]+*
computed spectral entropy=2.5675223679220536
computed normalized entropy=0.9062227429178412
SPLASH=splash10-0012-9410000000-24ab52daacd596075c81
submitter=submitter = University of Tokyo Team (Faculty of Engineering, University of Tokyo)
MoNA Rating=3.75

>  <NUM PEAKS>  (4645) 
17

>  <MASS SPECTRAL PEAKS>  (4645) 
41 18
43 13
55 21
82 14
84 99.99
85 17
97 72
98 41
111 21
125 17
139 44
153 18
167 14
181 12
191 14
223 17
224 18

>  <PREDICTED SPECTRUM>  (4645) 
15 15
26 25
27 163
28 117
29 177
30 130
36 41
38 31
39 187
40 104
41 482
42 434
43 478
44 279
51 30
52 13
53 158
54 177
55 400
56 365
57 278
58 3
65 37
67 152
68 163
69 323
70 211
71 195
72 33
81 64
82 173
83 317
84 999
85 332
86 4
95 63
96 116
97 534
98 315
99 135
111 330
112 216
113 38
123 6
125 306
126 161
127 2
139 204
140 109
152 11
153 300
154 125
166 20
167 196
168 119
181 240
182 43
195 234
196 103
209 119
223 245
224 212
225 110

$$$$

     RDKit          2D

 11 12  0  0  0  0  0  0  0  0999 V2000
    5.0503    1.0174    0.0000 C   0  0  0  0  0  0  0  0  0  0  0  0
    3.7489    1.7650    0.0000 C   0  0  0  0  0  0  0  0  0  0  0  0
    5.0545   -0.4835    0.0000 C   0  0  0  0  0  0  0  0  0  0  0  0
    2.4518    1.0117    0.0000 C   0  0  0  0  0  0  0  0  0  0  0  0
    3.7574   -1.2367    0.0000 C   0  0  0  0  0  0  0  0  0  0  0  0
   -0.4605   -3.0408    0.0000 C   0  0  0  0  0  0  0  0  0  0  0  0
   -1.2079   -1.7487    0.0000 C   0  0  0  0  0  0  0  0  0  0  0  0
    2.4560   -0.4891    0.0000 C   0  0  0  0  0  0  0  0  0  0  0  0
    1.1588   -1.2423    0.0000 C   0  0  0  0  0  0  0  0  0  0  0  0
    1.0106   -2.7371    0.0000 N   0  0  0  0  0  0  0  0  0  0  0  0
   -0.2042   -0.6340    0.0000 N   0  0  0  0  0  0  0  0  0  0  0  0
  2  1  2  0
  3  1  1  0
  4  2  1  0
  5  3  2  0
  7  6  1  0
  8  4  2  0
  8  5  1  0
  9  8  1  0
 10  6  1  0
 10  9  2  0
 11  7  1  0
 11  9  1  0
M  END
>  <NAME>  (4646) 
2-PHENYL IMIDAZOLINE

>  <SYNONYMS>  (4646) 


>  <SPECTRUM TYPE>  (4646) 
MS1

>  <INSTRUMENT TYPE>  (4646) 
EI-B

>  <INSTRUMENT>  (4646) 
HITACHI RMU-7

>  <ION MODE>  (4646) 
P

>  <INCHIKEY>  (4646) 
BKCCAYLNRIRKDJ-UHFFFAOYSA-N

>  <FORMULA>  (4646) 
C9H10N2

>  <EXACT MASS>  (4646) 
146.08439832

>  <MW>  (4646) 
146

>  <ID>  (4646) 
JP003264

>  <CONTRIBUTOR>  (4646) 
University of Tokyo Team, {Faculty of Engineering, University of Tokyo

>  <COMMENT>  (4646) 
SMILES=c(c2)ccc(c2)C(N1)=NCC1
InChI=InChI=1S/C9H10N2/c1-2-4-8(5-3-1)9-10-6-7-11-9/h1-5H,6-7H2,(H,10,11)
computed SMILES=N1=C(NCC1)C=2C=CC=CC2
accession=JP003264
date=2016.01.19 (Created 2008.10.21, modified 2011.05.06)
author=MASS SPECTROSCOPY SOC. OF JAPAN (MSSJ)
license=CC BY-NC-SA
exact mass=146.0844
ionization energy=70 eV
ion type=[M]+*
computed spectral entropy=2.411583383131681
computed normalized entropy=0.8905238839923043
SPLASH=splash10-00kb-3900000000-d3b10d5f5c4d125afa20
submitter=submitter = University of Tokyo Team (Faculty of Engineering, University of Tokyo)
MoNA Rating=3.75

>  <NUM PEAKS>  (4646) 
15

>  <MASS SPECTRAL PEAKS>  (4646) 
42 10
51 22
62 8
64 4
77 47
87 20
89 23
104 26
116 13
117 99.99
118 27
144 31
145 50
146 78
147 14

>  <PREDICTED SPECTRUM>  (4646) 
15 20
26 26
27 74
28 74
29 110
30 182
36 47
37 94
38 166
39 278
40 153
41 239
42 275
43 213
44 241
49 69
50 357
51 506
52 271
53 120
54 99
55 78
56 118
57 103
61 114
62 245
63 383
64 275
65 225
66 98
67 47
68 54
69 120
70 72
71 2
74 201
75 286
76 402
77 619
78 333
79 86
82 30
84 22
86 80
87 88
88 131
89 392
90 416
91 361
92 175
102 204
103 362
104 607
105 202
106 44
115 107
116 379
117 886
118 485
119 112
128 81
130 109
131 162
132 27
143 81
144 181
145 889
146 999
147 315
148 32

$$$$

     RDKit          2D

 22 22  0  0  0  0  0  0  0  0999 V2000
   -4.6913   -8.4422    0.0000 C   0  0  0  0  0  0  0  0  0  0  0  0
   -3.3941   -7.6890    0.0000 C   0  0  0  0  0  0  0  0  0  0  0  0
   -2.0932   -8.4358    0.0000 C   0  0  0  0  0  0  0  0  0  0  0  0
   -0.7960   -7.6825    0.0000 C   0  0  0  0  0  0  0  0  0  0  0  0
    0.5049   -8.4293    0.0000 C   0  0  0  0  0  0  0  0  0  0  0  0
    1.8020   -7.6761    0.0000 C   0  0  0  0  0  0  0  0  0  0  0  0
    3.1029   -8.4228    0.0000 C   0  0  0  0  0  0  0  0  0  0  0  0
    4.4001   -7.6696    0.0000 C   0  0  0  0  0  0  0  0  0  0  0  0
    5.7010   -8.4164    0.0000 C   0  0  0  0  0  0  0  0  0  0  0  0
    6.9982   -7.6631    0.0000 C   0  0  0  0  0  0  0  0  0  0  0  0
    8.2991   -8.4099    0.0000 C   0  0  0  0  0  0  0  0  0  0  0  0
    9.5963   -7.6567    0.0000 C   0  0  0  0  0  0  0  0  0  0  0  0
   10.8972   -8.4034    0.0000 C   0  0  0  0  0  0  0  0  0  0  0  0
   12.1943   -7.6502    0.0000 C   0  0  0  0  0  0  0  0  0  0  0  0
   13.4952   -8.3970    0.0000 C   0  0  0  0  0  0  0  0  0  0  0  0
   14.7924   -7.6437    0.0000 C   0  0  0  0  0  0  0  0  0  0  0  0
   16.0933   -8.3905    0.0000 C   0  0  0  0  0  0  0  0  0  0  0  0
   19.0098   -5.8389    0.0000 C   0  0  0  0  0  0  0  0  0  0  0  0
   19.7572   -7.1309    0.0000 C   0  0  0  0  0  0  0  0  0  0  0  0
   17.3905   -7.6373    0.0000 C   0  0  0  0  0  0  0  0  0  0  0  0
   17.5387   -6.1425    0.0000 N   0  0  0  0  0  0  0  0  0  0  0  0
   18.7535   -8.2456    0.0000 N   0  0  0  0  0  0  0  0  0  0  0  0
  2  1  1  0
  3  2  1  0
  4  3  1  0
  5  4  1  0
  6  5  1  0
  7  6  1  0
  8  7  1  0
  9  8  1  0
 10  9  1  0
 11 10  1  0
 12 11  1  0
 13 12  1  0
 14 13  1  0
 15 14  1  0
 16 15  1  0
 17 16  1  0
 19 18  1  0
 20 17  1  0
 21 18  1  0
 21 20  2  0
 22 19  1  0
 22 20  1  0
M  END
>  <NAME>  (4647) 
2-HEPTADECYL IMIDAZOLINE

>  <SYNONYMS>  (4647) 


>  <SPECTRUM TYPE>  (4647) 
MS1

>  <INSTRUMENT TYPE>  (4647) 
EI-B

>  <INSTRUMENT>  (4647) 
HITACHI RMU-7

>  <ION MODE>  (4647) 
P

>  <INCHIKEY>  (4647) 
NCVGSSQICKMAIA-UHFFFAOYSA-N

>  <FORMULA>  (4647) 
C20H40N2

>  <EXACT MASS>  (4647) 
308.31914928

>  <MW>  (4647) 
308

>  <ID>  (4647) 
JP003263

>  <CONTRIBUTOR>  (4647) 
University of Tokyo Team, {Faculty of Engineering, University of Tokyo

>  <COMMENT>  (4647) 
SMILES=CCCCCCCCCCCCCCCCCC(N1)=NCC1
InChI=InChI=1S/C20H40N2/c1-2-3-4-5-6-7-8-9-10-11-12-13-14-15-16-17-20-21-18-19-22-20/h2-19H2,1H3,(H,21,22)
computed SMILES=N1=C(NCC1)CCCCCCCCCCCCCCCCC
accession=JP003263
date=2016.01.19 (Created 2008.10.21, modified 2011.05.06)
author=MASS SPECTROSCOPY SOC. OF JAPAN (MSSJ)
license=CC BY-NC-SA
exact mass=308.31915
ionization energy=70 eV
ion type=[M]+*
computed spectral entropy=3.0938139167642937
computed normalized entropy=0.8926859990298214
SPLASH=splash10-0012-9300000000-fe7b5335453085909b7f
submitter=submitter = University of Tokyo Team (Faculty of Engineering, University of Tokyo)
MoNA Rating=3.75

>  <NUM PEAKS>  (4647) 
32

>  <MASS SPECTRAL PEAKS>  (4647) 
41 22
42 10
43 27
44 9
54 7
55 20
56 8
57 12
69 7
82 16
83 7
84 99.99
85 18
95 10
96 7
97 74
98 38
110 7
111 21
124 6
125 14
126 8
139 38
153 15
167 11
181 9
195 10
209 8
223 7
279 8
307 20
308 15

>  <PREDICTED SPECTRUM>  (4647) 
26 10
27 112
28 76
29 133
30 167
36 1
39 101
40 36
41 409
42 286
43 489
44 178
53 113
54 156
55 401
56 331
57 311
58 50
59 35
60 2
65 7
67 164
68 138
69 285
70 48
71 96
81 100
82 131
83 198
84 999
85 372
86 63
87 4
95 51
96 138
97 523
98 345
99 152
100 10
109 75
110 96
111 299
112 195
113 112
124 22
125 226
126 155
127 103
137 24
139 264
140 98
141 2
153 285
154 120
155 8
166 23
167 202
168 40
181 170
182 23
195 157
196 43
209 150
210 44
223 146
224 67
237 165
238 94
250 45
251 129
252 92
254 10
264 34
265 184
266 79
279 217
280 91
293 95
306 40
307 293
308 229
309 137

$$$$

     RDKit          2D

 12 13  0  0  0  0  0  0  0  0999 V2000
    5.3085   -2.8427    0.0000 C   0  0  0  0  0  0  0  0  0  0  0  0
    5.3053   -1.3418    0.0000 C   0  0  0  0  0  0  0  0  0  0  0  0
    4.0109   -3.5967    0.0000 C   0  0  0  0  0  0  0  0  0  0  0  0
    4.0044   -0.5951    0.0000 C   0  0  0  0  0  0  0  0  0  0  0  0
    2.7100   -2.8500    0.0000 C   0  0  0  0  0  0  0  0  0  0  0  0
   -1.5107   -3.1540    0.0000 C   0  0  0  0  0  0  0  0  0  0  0  0
   -2.2581   -1.8620    0.0000 C   0  0  0  0  0  0  0  0  0  0  0  0
    1.4058   -0.6024    0.0000 C   0  0  0  0  0  0  0  0  0  0  0  0
    2.7067   -1.3491    0.0000 C   0  0  0  0  0  0  0  0  0  0  0  0
    0.1086   -1.3556    0.0000 C   0  0  0  0  0  0  0  0  0  0  0  0
   -0.0396   -2.8503    0.0000 N   0  0  0  0  0  0  0  0  0  0  0  0
   -1.2544   -0.7473    0.0000 N   0  0  0  0  0  0  0  0  0  0  0  0
  2  1  2  0
  3  1  1  0
  4  2  1  0
  5  3  2  0
  7  6  1  0
  9  4  2  0
  9  5  1  0
  9  8  1  0
 10  8  1  0
 11  6  1  0
 11 10  2  0
 12  7  1  0
 12 10  1  0
M  END
>  <NAME>  (4648) 
2-BENZYL IMIDAZOLINE

>  <SYNONYMS>  (4648) 


>  <SPECTRUM TYPE>  (4648) 
MS1

>  <INSTRUMENT TYPE>  (4648) 
EI-B

>  <INSTRUMENT>  (4648) 
HITACHI RMU-7

>  <ION MODE>  (4648) 
P

>  <INCHIKEY>  (4648) 
JIVZKJJQOZQXQB-UHFFFAOYSA-N

>  <FORMULA>  (4648) 
C10H12N2

>  <EXACT MASS>  (4648) 
160.100048384

>  <MW>  (4648) 
160

>  <ID>  (4648) 
JP003262

>  <CONTRIBUTOR>  (4648) 
University of Tokyo Team, {Faculty of Engineering, University of Tokyo

>  <COMMENT>  (4648) 
SMILES=c(c2)ccc(c2)CC(N1)=NCC1
InChI=InChI=1S/C10H12N2/c1-2-4-9(5-3-1)8-10-11-6-7-12-10/h1-5H,6-8H2,(H,11,12)
computed SMILES=N1=C(NCC1)CC=2C=CC=CC2
accession=JP003262
date=2016.01.19 (Created 2008.10.21, modified 2011.05.06)
author=MASS SPECTROSCOPY SOC. OF JAPAN (MSSJ)
license=CC BY-NC-SA
exact mass=160.10005
ionization energy=70 eV
ion type=[M]+*
computed spectral entropy=2.3199175290836305
computed normalized entropy=0.8188290987512725
SPLASH=splash10-0006-9400000000-7b6f1c4b249d1fba8927
submitter=submitter = University of Tokyo Team (Faculty of Engineering, University of Tokyo)
MoNA Rating=3.75

>  <NUM PEAKS>  (4648) 
17

>  <MASS SPECTRAL PEAKS>  (4648) 
41 7
42 9
51 12
63 8
65 21
77 9
81 7
89 9
90 6
91 99.99
92 11
103 7
118 3
131 19
132 6
159 48
160 20

>  <PREDICTED SPECTRUM>  (4648) 
13 1
15 1
26 44
27 106
28 91
29 88
30 97
33 9
34 9
36 25
37 24
38 79
39 243
40 139
41 285
42 237
43 140
44 131
49 42
50 137
51 254
52 147
53 89
54 116
55 148
56 130
57 119
58 46
61 24
62 114
63 230
64 149
65 335
66 96
67 87
68 59
69 132
70 73
71 44
74 77
75 81
76 121
77 248
78 192
79 83
80 72
81 67
82 100
83 121
84 125
85 18
86 29
87 17
88 53
89 252
90 215
91 660
92 238
93 27
97 28
99 4
100 16
101 27
102 154
103 226
104 241
105 155
106 27
110 10
115 81
116 229
117 295
118 243
119 121
120 35
127 21
128 62
129 78
130 266
131 357
132 238
133 67
144 123
145 77
146 9
157 134
158 187
159 999
160 878
161 284
162 32

$$$$

     RDKit          2D

 13 14  0  0  0  0  0  0  0  0999 V2000
    7.2810   -3.6753    0.0000 C   0  0  0  0  0  0  0  0  0  0  0  0
    3.7450    0.1620    0.0000 C   0  0  0  0  0  0  0  0  0  0  0  0
    2.9409   -2.2934    0.0000 C   0  0  0  0  0  0  0  0  0  0  0  0
    5.1554   -0.2695    0.0000 C   0  0  0  0  0  0  0  0  0  0  0  0
    4.4052   -2.7840    0.0000 C   0  0  0  0  0  0  0  0  0  0  0  0
   -1.2100   -0.3900    0.0000 C   0  0  0  0  0  0  0  0  0  0  0  0
   -0.7500    1.0300    0.0000 C   0  0  0  0  0  0  0  0  0  0  0  0
    2.6377   -0.8500    0.0000 C   0  0  0  0  0  0  0  0  0  0  0  0
    5.5125   -1.7720    0.0000 C   0  0  0  0  0  0  0  0  0  0  0  0
    1.2100   -0.3900    0.0000 C   0  0  0  0  0  0  0  0  0  0  0  0
    0.0000   -1.2800    0.0000 N   0  0  0  0  0  0  0  0  0  0  0  0
    0.7500    1.0300    0.0000 N   0  0  0  0  0  0  0  0  0  0  0  0
    6.9462   -2.2132    0.0000 O   0  0  0  0  0  0  0  0  0  0  0  0
  4  2  2  0
  5  3  1  0
  7  6  1  0
  8  2  1  0
  8  3  2  0
  9  4  1  0
  9  5  2  0
 10  8  1  0
 11  6  1  0
 11 10  1  0
 12  7  1  0
 12 10  2  0
 13  1  1  0
 13  9  1  0
M  END
>  <NAME>  (4649) 
2-(P-METHOXY-PHENYL)-IMIDAZOLINE

>  <SYNONYMS>  (4649) 


>  <SPECTRUM TYPE>  (4649) 
MS1

>  <INSTRUMENT TYPE>  (4649) 
EI-B

>  <INSTRUMENT>  (4649) 
HITACHI RMU-7

>  <ION MODE>  (4649) 
P

>  <INCHIKEY>  (4649) 
LPRQSQCAHSRGRZ-UHFFFAOYSA-N

>  <FORMULA>  (4649) 
C10H12N2O

>  <EXACT MASS>  (4649) 
176.094963004

>  <MW>  (4649) 
176

>  <ID>  (4649) 
JP003261

>  <CONTRIBUTOR>  (4649) 
University of Tokyo Team, {Faculty of Engineering, University of Tokyo

>  <COMMENT>  (4649) 
SMILES=COc(c2)ccc(c2)C(N1)=NCC1
InChI=InChI=1S/C10H12N2O/c1-13-9-4-2-8(3-5-9)10-11-6-7-12-10/h2-5H,6-7H2,1H3,(H,11,12)
computed SMILES=N1=C(NCC1)C=2C=CC(OC)=CC2
accession=JP003261
date=2016.01.19 (Created 2008.10.21, modified 2011.05.06)
author=MASS SPECTROSCOPY SOC. OF JAPAN (MSSJ)
license=CC BY-NC-SA
exact mass=176.09496
ionization energy=70 eV
ion type=[M]+*
computed spectral entropy=2.823385891033671
computed normalized entropy=0.8566521966412043
SPLASH=splash10-004j-1900000000-2f4461571de020b9e902
submitter=submitter = University of Tokyo Team (Faculty of Engineering, University of Tokyo)
MoNA Rating=3.75

>  <NUM PEAKS>  (4649) 
27

>  <MASS SPECTRAL PEAKS>  (4649) 
41 7
42 10
63 10
64 7
77 34
78 9
89 7
90 8
91 8
102 6
103 6
104 8
105 5
117 8
119 8
131 9
132 60
133 13
134 15
147 99.99
148 32
158 10
159 14
174 19
175 53
176 81
177 17

>  <PREDICTED SPECTRUM>  (4649) 
15 58
26 41
27 64
28 50
29 83
30 66
31 2
33 10
34 4
36 15
37 96
38 175
39 299
40 164
41 248
42 232
43 160
44 166
45 71
49 58
50 330
51 393
52 291
53 190
54 106
55 110
56 92
57 109
58 56
61 135
62 269
63 440
64 330
65 223
66 138
67 97
68 96
69 129
70 40
71 31
72 50
73 78
74 222
75 302
76 331
77 411
78 294
79 214
80 123
81 53
86 54
87 98
88 112
89 222
90 370
91 263
92 230
93 74
94 11
95 69
99 9
100 45
101 128
102 162
103 272
104 291
105 297
106 161
107 32
108 11
113 2
114 76
115 136
116 138
117 198
118 216
119 191
120 152
121 82
122 18
129 79
130 76
131 137
132 270
133 571
134 328
135 44
143 14
144 86
145 192
146 556
147 562
148 294
149 94
160 68
161 214
162 41
173 3
174 74
175 701
176 999
177 330
178 70

$$$$

     RDKit          2D

  7  7  0  0  0  0  0  0  0  0999 V2000
    3.3615    0.3229    0.0000 C   0  0  0  0  0  0  0  0  0  0  0  0
    1.9337    0.7829    0.0000 C   0  0  0  0  0  0  0  0  0  0  0  0
   -0.3885   -2.3193    0.0000 C   0  0  0  0  0  0  0  0  0  0  0  0
   -1.3882   -1.2110    0.0000 C   0  0  0  0  0  0  0  0  0  0  0  0
    0.8215   -0.2236    0.0000 C   0  0  0  0  0  0  0  0  0  0  0  0
    0.9873   -1.7165    0.0000 N   0  0  0  0  0  0  0  0  0  0  0  0
   -0.6382    0.0881    0.0000 N   0  0  0  0  0  0  0  0  0  0  0  0
  2  1  1  0
  4  3  1  0
  5  2  1  0
  6  3  1  0
  6  5  2  0
  7  4  1  0
  7  5  1  0
M  END
>  <NAME>  (4650) 
2-ETHYL IMIDAZOLINE

>  <SYNONYMS>  (4650) 


>  <SPECTRUM TYPE>  (4650) 
MS1

>  <INSTRUMENT TYPE>  (4650) 
EI-B

>  <INSTRUMENT>  (4650) 
HITACHI RMU-7

>  <ION MODE>  (4650) 
P

>  <INCHIKEY>  (4650) 
QUPKCFBHJFNUEW-UHFFFAOYSA-N

>  <FORMULA>  (4650) 
C5H10N2

>  <EXACT MASS>  (4650) 
98.08439831999999

>  <MW>  (4650) 
98

>  <ID>  (4650) 
JP003260

>  <CONTRIBUTOR>  (4650) 
University of Tokyo Team, {Faculty of Engineering, University of Tokyo

>  <COMMENT>  (4650) 
SMILES=CCC(N1)=NCC1
InChI=InChI=1S/C5H10N2/c1-2-5-6-3-4-7-5/h2-4H2,1H3,(H,6,7)
computed SMILES=N1=C(NCC1)CC
accession=JP003260
date=2016.01.19 (Created 2008.10.21, modified 2011.05.06)
author=MASS SPECTROSCOPY SOC. OF JAPAN (MSSJ)
license=CC BY-NC-SA
exact mass=98.0844
ionization energy=70 eV
ion type=[M]+*
computed spectral entropy=3.013282547734146
computed normalized entropy=0.9248598108035183
SPLASH=splash10-0fr7-9000000000-6461de58cd5e007a39a7
submitter=submitter = University of Tokyo Team (Faculty of Engineering, University of Tokyo)
MoNA Rating=3.75

>  <NUM PEAKS>  (4650) 
26

>  <MASS SPECTRAL PEAKS>  (4650) 
38 10
39 25
40 28
41 52
42 41
43 21
44 16
52 13
53 9
54 73
55 22
56 20
57 12
58 8
67 10
68 20
69 99.99
70 14
81 31
82 20
83 10
95 29
96 22
97 31
98 50
99 11

>  <PREDICTED SPECTRUM>  (4650) 
14 45
15 141
16 36
17 22
18 37
25 16
26 170
27 403
28 436
29 359
30 345
36 38
37 75
38 174
39 392
40 327
41 599
42 791
43 519
44 275
50 138
51 249
52 249
53 193
54 395
55 487
56 715
57 308
65 57
66 100
67 177
68 535
69 923
70 745
71 197
81 37
82 325
83 641
84 170
95 279
96 304
97 999
98 990
99 275

$$$$

     RDKit          2D

 15 16  0  0  0  0  0  0  0  0999 V2000
    8.6000    2.5981    0.0000 C   0  0  0  0  0  0  0  0  0  0  0  0
    7.1000    2.5981    0.0000 C   0  0  0  0  0  0  0  0  0  0  0  0
    6.3500    1.2990    0.0000 C   0  0  0  0  0  0  0  0  0  0  0  0
    4.8500    1.2990    0.0000 C   0  0  0  0  0  0  0  0  0  0  0  0
   -1.0100    1.5000    0.0000 C   0  0  0  0  0  0  0  0  0  0  0  0
    0.2900    0.7500    0.0000 C   0  0  0  0  0  0  0  0  0  0  0  0
    0.2900   -0.7500    0.0000 C   0  0  0  0  0  0  0  0  0  0  0  0
   -2.3100   -0.7500    0.0000 C   0  0  0  0  0  0  0  0  0  0  0  0
    2.6000    0.0000    0.0000 C   0  0  0  0  0  0  0  0  0  0  0  0
   -3.6089   -1.5002    0.0000 N   0  0  0  0  0  0  0  0  0  0  0  0
   -2.3100    0.7500    0.0000 N   0  0  0  0  0  0  0  0  0  0  0  0
    1.7200    1.2100    0.0000 N   0  0  0  0  0  0  0  0  0  0  0  0
   -1.0100   -1.5000    0.0000 N   0  0  0  0  0  0  0  0  0  0  0  0
    4.1000   -0.0000    0.0000 S   0  0  0  0  0  0  0  0  0  0  0  0
    1.7200   -1.2100    0.0000 S   0  0  0  0  0  0  0  0  0  0  0  0
  2  1  1  0
  3  2  1  0
  4  3  1  0
  6  5  2  0
  7  6  1  0
 10  8  2  0
 11  5  1  0
 11  8  1  0
 12  6  1  0
 12  9  2  0
 13  7  2  0
 13  8  1  0
 14  4  1  0
 14  9  1  0
 15  7  1  0
 15  9  1  0
M  END
>  <NAME>  (4651) 
2-NORMAL-BUTYLTHIO-5-AMINOTHIAZOLO(5,4-D)PYRIMIDINE

>  <SYNONYMS>  (4651) 


>  <SPECTRUM TYPE>  (4651) 
MS1

>  <INSTRUMENT TYPE>  (4651) 
EI-B

>  <INSTRUMENT>  (4651) 
HITACHI RMU-6E

>  <ION MODE>  (4651) 
P

>  <INCHIKEY>  (4651) 
PRKGQDKIJIYSBY-UHFFFAOYSA-N

>  <FORMULA>  (4651) 
C9H12N4S2

>  <EXACT MASS>  (4651) 
240.05033838399999

>  <MW>  (4651) 
240

>  <ID>  (4651) 
JP003258

>  <CONTRIBUTOR>  (4651) 
University of Tokyo Team, {Faculty of Engineering, University of Tokyo

>  <COMMENT>  (4651) 
SMILES=CCCCSc(n1)sc(n2)c(cnc(N)2)1
InChI=InChI=1S/C9H12N4S2/c1-2-3-4-14-9-12-6-5-11-8(10)13-7(6)15-9/h5H,2-4H2,1H3,(H2,10,11,13)
computed SMILES=N=C1N=C2SC(=NC2=CN1)SCCCC
accession=JP003258
author=MASS SPECTROSCOPY SOC. OF JAPAN (MSSJ)
date=2016.01.19 (Created 2008.10.21, modified 2011.05.06)
license=CC BY-NC-SA
exact mass=240.05034
ionization energy=70 eV
ion type=[M]+*
computed spectral entropy=2.026693794427425
computed normalized entropy=0.8451969597747488
SPLASH=splash10-001l-2910000000-6302e8b416b5c83a576e
submitter=submitter = University of Tokyo Team (Faculty of Engineering, University of Tokyo)
MoNA Rating=3.75

>  <NUM PEAKS>  (4651) 
11

>  <MASS SPECTRAL PEAKS>  (4651) 
83 12
85 15
97 25
125 11
142 32
180 9
184 99.99
193 30
198 12
207 3
240 30

>  <PREDICTED SPECTRUM>  (4651) 
29 20
33 12
34 5
39 132
40 73
41 309
42 45
43 125
44 90
45 118
46 52
52 39
53 92
54 72
55 61
57 178
58 6
67 64
68 6
69 103
70 114
71 70
72 49
78 60
79 12
82 94
83 6
84 56
85 109
86 60
90 1
96 104
97 53
98 96
99 22
102 63
106 66
109 4
110 122
111 103
112 63
114 35
115 15
116 52
119 23
123 18
124 46
125 189
126 352
127 41
128 104
129 14
130 14
139 8
140 47
142 219
143 129
144 107
151 151
152 271
153 174
154 92
155 51
156 45
165 118
170 8
179 189
180 209
181 70
183 17
184 999
185 293
186 208
193 655
194 155
195 160
197 172
198 730
199 143
200 111
207 85
209 74
211 455
212 156
213 117
240 603
241 199
242 142

$$$$

     RDKit          2D

 14 15  0  0  0  0  0  0  0  0999 V2000
    7.1000    2.5981    0.0000 C   0  0  0  0  0  0  0  0  0  0  0  0
    6.3500    1.2990    0.0000 C   0  0  0  0  0  0  0  0  0  0  0  0
    4.8500    1.2990    0.0000 C   0  0  0  0  0  0  0  0  0  0  0  0
   -1.0100    1.5000    0.0000 C   0  0  0  0  0  0  0  0  0  0  0  0
    0.2900    0.7500    0.0000 C   0  0  0  0  0  0  0  0  0  0  0  0
    0.2900   -0.7500    0.0000 C   0  0  0  0  0  0  0  0  0  0  0  0
   -2.3100   -0.7500    0.0000 C   0  0  0  0  0  0  0  0  0  0  0  0
    2.6000    0.0000    0.0000 C   0  0  0  0  0  0  0  0  0  0  0  0
   -3.6089   -1.5002    0.0000 N   0  0  0  0  0  0  0  0  0  0  0  0
   -2.3100    0.7500    0.0000 N   0  0  0  0  0  0  0  0  0  0  0  0
    1.7200    1.2100    0.0000 N   0  0  0  0  0  0  0  0  0  0  0  0
   -1.0100   -1.5000    0.0000 N   0  0  0  0  0  0  0  0  0  0  0  0
    4.1000   -0.0000    0.0000 S   0  0  0  0  0  0  0  0  0  0  0  0
    1.7200   -1.2100    0.0000 S   0  0  0  0  0  0  0  0  0  0  0  0
  2  1  1  0
  3  2  1  0
  5  4  2  0
  6  5  1  0
  9  7  2  0
 10  4  1  0
 10  7  1  0
 11  5  1  0
 11  8  2  0
 12  6  2  0
 12  7  1  0
 13  3  1  0
 13  8  1  0
 14  6  1  0
 14  8  1  0
M  END
>  <NAME>  (4652) 
2-NORMAL-PROPYLTHIO-5-AMINOTHIAZOLO(5,4-D)PYRIMIDINE

>  <SYNONYMS>  (4652) 


>  <SPECTRUM TYPE>  (4652) 
MS1

>  <INSTRUMENT TYPE>  (4652) 
EI-B

>  <INSTRUMENT>  (4652) 
HITACHI RMU-6E

>  <ION MODE>  (4652) 
P

>  <INCHIKEY>  (4652) 
YZKZVPLTCSHXIP-UHFFFAOYSA-N

>  <FORMULA>  (4652) 
C8H10N4S2

>  <EXACT MASS>  (4652) 
226.03468832

>  <MW>  (4652) 
226

>  <ID>  (4652) 
JP003257

>  <CONTRIBUTOR>  (4652) 
University of Tokyo Team, {Faculty of Engineering, University of Tokyo

>  <COMMENT>  (4652) 
SMILES=CCCSc(n1)sc(n2)c(cnc(N)2)1
InChI=InChI=1S/C8H10N4S2/c1-2-3-13-8-11-5-4-10-7(9)12-6(5)14-8/h4H,2-3H2,1H3,(H2,9,10,12)
computed SMILES=N=C1N=C2SC(=NC2=CN1)SCCC
accession=JP003257
date=2016.01.19 (Created 2008.10.21, modified 2011.05.06)
author=MASS SPECTROSCOPY SOC. OF JAPAN (MSSJ)
license=CC BY-NC-SA
exact mass=226.03469
ionization energy=70 eV
ion type=[M]+*
computed spectral entropy=1.7657132923601142
computed normalized entropy=0.7668395394952208
SPLASH=splash10-003r-1920000000-80566978fb4fab90c5b4
submitter=submitter = University of Tokyo Team (Faculty of Engineering, University of Tokyo)
MoNA Rating=3.75

>  <NUM PEAKS>  (4652) 
10

>  <MASS SPECTRAL PEAKS>  (4652) 
83 6
85 9
97 15
124 4
125 5
142 33
179 7
184 99.99
193 15
226 50

>  <PREDICTED SPECTRUM>  (4652) 
39 56
40 14
41 82
43 6
44 21
45 42
52 25
59 3
60 9
67 59
69 15
70 112
71 67
72 25
82 33
83 36
84 138
85 87
95 36
96 121
97 221
98 213
99 76
109 11
110 73
111 97
112 150
114 91
115 8
123 9
125 132
126 225
127 143
128 133
129 76
141 90
142 58
143 3
151 297
152 220
153 207
154 49
155 109
156 89
165 91
166 126
167 25
179 307
180 75
181 108
182 30
184 999
185 244
186 246
193 458
194 102
195 96
197 302
198 267
199 121
200 32
209 1
211 233
212 82
214 89
226 574
227 197
228 133

$$$$

     RDKit          2D

 13 14  0  0  0  0  0  0  0  0999 V2000
    6.3500    1.2990    0.0000 C   0  0  0  0  0  0  0  0  0  0  0  0
    4.8500    1.2990    0.0000 C   0  0  0  0  0  0  0  0  0  0  0  0
   -1.0100    1.5000    0.0000 C   0  0  0  0  0  0  0  0  0  0  0  0
    0.2900    0.7500    0.0000 C   0  0  0  0  0  0  0  0  0  0  0  0
    0.2900   -0.7500    0.0000 C   0  0  0  0  0  0  0  0  0  0  0  0
   -2.3100   -0.7500    0.0000 C   0  0  0  0  0  0  0  0  0  0  0  0
    2.6000    0.0000    0.0000 C   0  0  0  0  0  0  0  0  0  0  0  0
   -3.6089   -1.5002    0.0000 N   0  0  0  0  0  0  0  0  0  0  0  0
   -2.3100    0.7500    0.0000 N   0  0  0  0  0  0  0  0  0  0  0  0
    1.7200    1.2100    0.0000 N   0  0  0  0  0  0  0  0  0  0  0  0
   -1.0100   -1.5000    0.0000 N   0  0  0  0  0  0  0  0  0  0  0  0
    4.1000   -0.0000    0.0000 S   0  0  0  0  0  0  0  0  0  0  0  0
    1.7200   -1.2100    0.0000 S   0  0  0  0  0  0  0  0  0  0  0  0
  2  1  1  0
  4  3  2  0
  5  4  1  0
  8  6  2  0
  9  3  1  0
  9  6  1  0
 10  4  1  0
 10  7  2  0
 11  5  2  0
 11  6  1  0
 12  2  1  0
 12  7  1  0
 13  5  1  0
 13  7  1  0
M  END
>  <NAME>  (4653) 
2-ETHYLTHIO-5-AMINOTHIAZOLO(5,4-D)PYRIMIDINE

>  <SYNONYMS>  (4653) 


>  <SPECTRUM TYPE>  (4653) 
MS1

>  <INSTRUMENT TYPE>  (4653) 
EI-B

>  <INSTRUMENT>  (4653) 
HITACHI RMU-6E

>  <ION MODE>  (4653) 
P

>  <INCHIKEY>  (4653) 
RBRDDQHNUZADPQ-UHFFFAOYSA-N

>  <FORMULA>  (4653) 
C7H8N4S2

>  <EXACT MASS>  (4653) 
212.019038256

>  <MW>  (4653) 
212

>  <ID>  (4653) 
JP003256

>  <CONTRIBUTOR>  (4653) 
University of Tokyo Team, {Faculty of Engineering, University of Tokyo

>  <COMMENT>  (4653) 
SMILES=CCSc(n1)sc(n2)c(cnc(N)2)1
InChI=InChI=1S/C7H8N4S2/c1-2-12-7-10-4-3-9-6(8)11-5(4)13-7/h3H,2H2,1H3,(H2,8,9,11)
computed SMILES=N=C1N=C2SC(=NC2=CN1)SCC
accession=JP003256
date=2016.01.19 (Created 2008.10.21, modified 2011.05.06)
author=MASS SPECTROSCOPY SOC. OF JAPAN (MSSJ)
license=CC BY-NC-SA
exact mass=212.01904
ionization energy=70 eV
ion type=[M]+*
computed spectral entropy=1.9221668720145486
computed normalized entropy=0.8347864658131525
SPLASH=splash10-03gi-2940000000-936ce831f252230378b0
submitter=submitter = University of Tokyo Team (Faculty of Engineering, University of Tokyo)
MoNA Rating=3.75

>  <NUM PEAKS>  (4653) 
10

>  <MASS SPECTRAL PEAKS>  (4653) 
83 11
85 14
97 21
124 8
125 10
139 14
142 28
179 89
184 47
212 99.99

>  <PREDICTED SPECTRUM>  (4653) 
33 9
39 58
40 78
41 41
42 19
43 68
44 110
45 197
46 37
52 24
53 32
54 30
55 84
56 50
57 189
58 169
59 80
60 122
66 17
67 43
68 140
69 315
70 482
71 282
72 135
73 10
82 167
83 143
84 180
85 145
86 137
87 2
95 36
96 145
97 191
98 179
99 103
100 40
101 3
102 70
111 123
112 216
113 134
114 65
115 1
116 2
117 19
124 15
125 68
126 113
127 66
128 59
129 18
133 161
138 122
139 93
140 106
142 11
143 39
144 134
145 130
151 64
152 380
153 163
154 99
165 156
166 16
167 133
168 20
170 222
171 95
172 115
179 616
180 191
181 101
183 87
184 475
185 283
186 143
187 1
196 35
197 326
198 40
199 23
211 110
212 999
213 317
214 217
215 10

$$$$

     RDKit          2D

 12 13  0  0  0  0  0  0  0  0999 V2000
    4.8500    1.2990    0.0000 C   0  0  0  0  0  0  0  0  0  0  0  0
   -1.0100    1.5000    0.0000 C   0  0  0  0  0  0  0  0  0  0  0  0
    0.2900    0.7500    0.0000 C   0  0  0  0  0  0  0  0  0  0  0  0
    0.2900   -0.7500    0.0000 C   0  0  0  0  0  0  0  0  0  0  0  0
   -2.3100   -0.7500    0.0000 C   0  0  0  0  0  0  0  0  0  0  0  0
    2.6000    0.0000    0.0000 C   0  0  0  0  0  0  0  0  0  0  0  0
   -3.6089   -1.5002    0.0000 N   0  0  0  0  0  0  0  0  0  0  0  0
   -2.3100    0.7500    0.0000 N   0  0  0  0  0  0  0  0  0  0  0  0
    1.7200    1.2100    0.0000 N   0  0  0  0  0  0  0  0  0  0  0  0
   -1.0100   -1.5000    0.0000 N   0  0  0  0  0  0  0  0  0  0  0  0
    4.1000   -0.0000    0.0000 S   0  0  0  0  0  0  0  0  0  0  0  0
    1.7200   -1.2100    0.0000 S   0  0  0  0  0  0  0  0  0  0  0  0
  3  2  2  0
  4  3  1  0
  7  5  2  0
  8  2  1  0
  8  5  1  0
  9  3  1  0
  9  6  2  0
 10  4  2  0
 10  5  1  0
 11  1  1  0
 11  6  1  0
 12  4  1  0
 12  6  1  0
M  END
>  <NAME>  (4654) 
2-METHYLTHIO-5-AMINOTHIAZOLO(5,4-D)PYRIMIDINE

>  <SYNONYMS>  (4654) 


>  <SPECTRUM TYPE>  (4654) 
MS1

>  <INSTRUMENT TYPE>  (4654) 
EI-B

>  <INSTRUMENT>  (4654) 
HITACHI RMU-6E

>  <ION MODE>  (4654) 
P

>  <INCHIKEY>  (4654) 
AUXBHVTXXUIPHQ-UHFFFAOYSA-N

>  <FORMULA>  (4654) 
C6H6N4S2

>  <EXACT MASS>  (4654) 
198.003388192

>  <MW>  (4654) 
198

>  <ID>  (4654) 
JP003255

>  <CONTRIBUTOR>  (4654) 
University of Tokyo Team, {Faculty of Engineering, University of Tokyo

>  <COMMENT>  (4654) 
SMILES=Nc(n2)nc(s1)c(c2)nc(SC)1
InChI=InChI=1S/C6H6N4S2/c1-11-6-9-3-2-8-5(7)10-4(3)12-6/h2H,1H3,(H2,7,8,10)
computed SMILES=N=C1N=C2SC(=NC2=CN1)SC
accession=JP003255
date=2016.01.19 (Created 2008.10.21, modified 2011.05.06)
author=MASS SPECTROSCOPY SOC. OF JAPAN (MSSJ)
license=CC BY-NC-SA
exact mass=198.00339
ionization energy=70 eV
ion type=[M]+*
computed spectral entropy=1.4253703251121788
computed normalized entropy=0.6854582331565433
SPLASH=splash10-00kb-1900000000-fe3aff9b26a5d4da1425
submitter=submitter = University of Tokyo Team (Faculty of Engineering, University of Tokyo)
MoNA Rating=3.75

>  <NUM PEAKS>  (4654) 
8

>  <MASS SPECTRAL PEAKS>  (4654) 
83 6
85 7
97 14
124 8
125 7
139 8
165 89
198 99.99

>  <PREDICTED SPECTRUM>  (4654) 
28 21
33 9
39 87
40 79
41 103
42 92
43 73
44 101
45 337
46 217
47 148
48 11
52 65
53 39
54 32
55 48
56 60
57 159
58 85
64 26
65 13
66 67
67 68
68 22
69 94
70 231
71 141
72 255
73 124
74 120
76 18
80 22
81 128
82 204
83 242
84 105
85 48
87 13
88 55
97 93
98 218
99 98
100 20
102 40
110 102
111 122
112 117
113 111
124 218
125 381
126 192
127 144
128 41
130 98
131 23
133 37
137 67
138 78
139 34
140 17
141 33
151 212
152 583
153 282
154 99
155 43
156 162
157 217
158 85
165 412
166 121
170 4
171 10
182 16
183 36
197 227
198 999
199 304
200 257
201 16

$$$$

     RDKit          2D

 17 19  0  0  0  0  0  0  0  0999 V2000
   -5.4932    1.7699    0.0000 C   0  0  0  0  0  0  0  0  0  0  0  0
    5.4932    1.7699    0.0000 C   0  0  0  0  0  0  0  0  0  0  0  0
   -5.1780    0.3026    0.0000 C   0  0  0  0  0  0  0  0  0  0  0  0
   -4.3807    2.7773    0.0000 C   0  0  0  0  0  0  0  0  0  0  0  0
    4.3807    2.7773    0.0000 C   0  0  0  0  0  0  0  0  0  0  0  0
    5.1780    0.3026    0.0000 C   0  0  0  0  0  0  0  0  0  0  0  0
   -3.7502   -0.1574    0.0000 C   0  0  0  0  0  0  0  0  0  0  0  0
   -2.9530    2.3173    0.0000 C   0  0  0  0  0  0  0  0  0  0  0  0
    2.9530    2.3173    0.0000 C   0  0  0  0  0  0  0  0  0  0  0  0
    3.7502   -0.1574    0.0000 C   0  0  0  0  0  0  0  0  0  0  0  0
   -0.7500   -1.0300    0.0000 C   0  0  0  0  0  0  0  0  0  0  0  0
   -2.6377    0.8500    0.0000 C   0  0  0  0  0  0  0  0  0  0  0  0
    2.6377    0.8500    0.0000 C   0  0  0  0  0  0  0  0  0  0  0  0
   -1.2100    0.3900    0.0000 C   0  0  0  0  0  0  0  0  0  0  0  0
    1.2100    0.3900    0.0000 C   0  0  0  0  0  0  0  0  0  0  0  0
    0.7500   -1.0300    0.0000 N   0  0  0  0  0  0  0  0  0  0  0  0
    0.0000    1.2800    0.0000 O   0  0  0  0  0  0  0  0  0  0  0  0
  3  1  2  0
  4  1  1  0
  5  2  2  0
  6  2  1  0
  7  3  1  0
  8  4  2  0
  9  5  1  0
 10  6  2  0
 12  7  2  0
 12  8  1  0
 13  9  2  0
 13 10  1  0
 14 11  2  0
 14 12  1  0
 15 13  1  0
 16 11  1  0
 16 15  2  0
 17 14  1  0
 17 15  1  0
M  END
>  <NAME>  (4655) 
2,5-DIPHENYL-OXAZOLE

>  <SYNONYMS>  (4655) 


>  <SPECTRUM TYPE>  (4655) 
MS1

>  <INSTRUMENT TYPE>  (4655) 
EI-B

>  <INSTRUMENT>  (4655) 
HITACHI RMU-6E

>  <ION MODE>  (4655) 
P

>  <INCHIKEY>  (4655) 
CNRNYORZJGVOSY-UHFFFAOYSA-N

>  <FORMULA>  (4655) 
C15H11NO

>  <EXACT MASS>  (4655) 
221.084063972

>  <MW>  (4655) 
221

>  <ID>  (4655) 
JP003254

>  <CONTRIBUTOR>  (4655) 
University of Tokyo Team, {Faculty of Engineering, University of Tokyo

>  <COMMENT>  (4655) 
SMILES=c(c3)ccc(c3)c(c2)oc(n2)c(c1)cccc1
InChI=InChI=1S/C15H11NO/c1-3-7-12(8-4-1)14-11-16-15(17-14)13-9-5-2-6-10-13/h1-11H
computed SMILES=N=1C=C(OC1C=2C=CC=CC2)C=3C=CC=CC3
accession=JP003254
date=2016.01.19 (Created 2008.10.21, modified 2011.05.06)
author=MASS SPECTROSCOPY SOC. OF JAPAN (MSSJ)
license=CC BY-NC-SA
exact mass=221.08406
ionization energy=70 eV
ion type=[M]+*
computed spectral entropy=2.560277764060942
computed normalized entropy=0.9234250083772513
SPLASH=splash10-01dr-9320000000-583527d5acd3463bd18d
submitter=submitter = University of Tokyo Team (Faculty of Engineering, University of Tokyo)
MoNA Rating=3.75

>  <NUM PEAKS>  (4655) 
16

>  <MASS SPECTRAL PEAKS>  (4655) 
39 29
50 20
51 53
62 16
63 45
64 12
77 77
89 77
90 31
105 15
116 30
165 62
166 37
193 10
221 99.99
222 17

>  <PREDICTED SPECTRUM>  (4655) 
17 1
26 16
27 47
28 66
29 10
33 2
37 36
38 96
39 235
40 70
41 4
50 282
51 517
52 196
53 31
61 21
62 199
63 341
64 202
65 123
66 28
67 3
74 106
75 166
76 237
77 865
78 193
81 81
82 6
83 56
85 11
87 84
88 157
89 566
90 403
91 152
92 20
96 13
102 174
105 753
106 218
110 9
115 70
116 282
117 93
118 76
138 26
139 66
144 116
145 3
163 2
164 107
165 625
166 329
167 124
168 22
192 283
193 341
194 182
195 57
220 49
221 999
222 420
223 90

$$$$

     RDKit          2D

 17 19  0  0  0  0  0  0  0  0999 V2000
   -6.1019   -2.5247    0.0000 C   0  0  0  0  0  0  0  0  0  0  0  0
    4.4913    1.2251    0.0000 C   0  0  0  0  0  0  0  0  0  0  0  0
   -4.8022   -3.2753    0.0000 C   0  0  0  0  0  0  0  0  0  0  0  0
   -6.1026   -1.0239    0.0000 C   0  0  0  0  0  0  0  0  0  0  0  0
    3.1919    1.9761    0.0000 C   0  0  0  0  0  0  0  0  0  0  0  0
    4.4915   -0.2757    0.0000 C   0  0  0  0  0  0  0  0  0  0  0  0
   -3.5033   -2.5251    0.0000 C   0  0  0  0  0  0  0  0  0  0  0  0
   -4.8037   -0.2736    0.0000 C   0  0  0  0  0  0  0  0  0  0  0  0
    1.8927    1.2264    0.0000 C   0  0  0  0  0  0  0  0  0  0  0  0
    3.1924   -1.0255    0.0000 C   0  0  0  0  0  0  0  0  0  0  0  0
   -3.5040   -1.0243    0.0000 C   0  0  0  0  0  0  0  0  0  0  0  0
    1.8930   -0.2745    0.0000 C   0  0  0  0  0  0  0  0  0  0  0  0
   -2.2051   -0.2741    0.0000 C   0  0  0  0  0  0  0  0  0  0  0  0
   -0.7051   -0.2741    0.0000 C   0  0  0  0  0  0  0  0  0  0  0  0
    0.5938   -1.0243    0.0000 C   0  0  0  0  0  0  0  0  0  0  0  0
   -1.4551    1.0259    0.0000 N   0  0  0  0  0  0  0  0  0  0  0  0
    0.5936   -2.5243    0.0000 O   0  0  0  0  0  0  0  0  0  0  0  0
  3  1  2  0
  4  1  1  0
  5  2  2  0
  6  2  1  0
  7  3  1  0
  8  4  2  0
  9  5  1  0
 10  6  2  0
 11  7  2  0
 11  8  1  0
 12  9  2  0
 12 10  1  0
 13 11  1  0
 14 13  1  0
 15 12  1  0
 15 14  1  0
 16 13  2  0
 16 14  1  0
 17 15  2  0
M  END
>  <NAME>  (4656) 
2-PHENYL-3-BENZOYL-1-AZIRINE

>  <SYNONYMS>  (4656) 


>  <SPECTRUM TYPE>  (4656) 
MS1

>  <INSTRUMENT TYPE>  (4656) 
EI-B

>  <INSTRUMENT>  (4656) 
HITACHI RMU-6E

>  <ION MODE>  (4656) 
P

>  <INCHIKEY>  (4656) 
CQDPFIXVXYMXCT-UHFFFAOYSA-N

>  <FORMULA>  (4656) 
C15H11NO

>  <EXACT MASS>  (4656) 
221.084063972

>  <MW>  (4656) 
221

>  <ID>  (4656) 
JP003253

>  <CONTRIBUTOR>  (4656) 
University of Tokyo Team, {Faculty of Engineering, University of Tokyo

>  <COMMENT>  (4656) 
SMILES=c(c3)ccc(c3)C(=O)C(N=1)C(c(c2)cccc2)1
InChI=InChI=1S/C15H11NO/c17-15(12-9-5-2-6-10-12)14-13(16-14)11-7-3-1-4-8-11/h1-10,14H
computed SMILES=O=C(C=1C=CC=CC1)C2N=C2C=3C=CC=CC3
accession=JP003253
date=2016.01.19 (Created 2008.10.21, modified 2011.05.06)
author=MASS SPECTROSCOPY SOC. OF JAPAN (MSSJ)
license=CC BY-NC-SA
exact mass=221.08406
ionization energy=70 eV
ion type=[M]+*
computed spectral entropy=2.4933764706389714
computed normalized entropy=0.8992954673150175
SPLASH=splash10-0ay0-9840000000-8ff1d40040c99df8c333
submitter=submitter = University of Tokyo Team (Faculty of Engineering, University of Tokyo)
MoNA Rating=3.75

>  <NUM PEAKS>  (4656) 
16

>  <MASS SPECTRAL PEAKS>  (4656) 
39 15
50 15
51 42
63 21
77 84
89 36
90 15
105 99.99
116 24
144 15
165 37
166 23
193 12
220 11
221 79
222 14

>  <PREDICTED SPECTRUM>  (4656) 
27 0
37 4
38 46
39 141
40 17
41 3
50 236
51 444
52 98
61 15
62 91
63 173
64 114
65 93
66 9
74 52
75 125
76 260
77 836
78 230
88 46
89 295
90 230
91 139
103 1
104 41
105 999
106 318
115 80
116 272
117 112
118 62
144 30
192 237
193 184
194 78
220 193
221 453
222 135

$$$$

     RDKit          2D

 17 19  0  0  0  0  0  0  0  0999 V2000
   -5.9691    2.7880    0.0000 C   0  0  0  0  0  0  0  0  0  0  0  0
    4.0524   -1.6911    0.0000 C   0  0  0  0  0  0  0  0  0  0  0  0
   -5.3597    1.4165    0.0000 C   0  0  0  0  0  0  0  0  0  0  0  0
   -5.0868    4.0021    0.0000 C   0  0  0  0  0  0  0  0  0  0  0  0
    4.3686   -0.2240    0.0000 C   0  0  0  0  0  0  0  0  0  0  0  0
    2.6240   -2.1518    0.0000 C   0  0  0  0  0  0  0  0  0  0  0  0
   -3.8680    1.2591    0.0000 C   0  0  0  0  0  0  0  0  0  0  0  0
   -3.5951    3.8447    0.0000 C   0  0  0  0  0  0  0  0  0  0  0  0
    3.2564    0.7825    0.0000 C   0  0  0  0  0  0  0  0  0  0  0  0
    1.5118   -1.1453    0.0000 C   0  0  0  0  0  0  0  0  0  0  0  0
   -0.7440    1.0167    0.0000 C   0  0  0  0  0  0  0  0  0  0  0  0
   -2.9857    2.4731    0.0000 C   0  0  0  0  0  0  0  0  0  0  0  0
    1.8280    0.3218    0.0000 C   0  0  0  0  0  0  0  0  0  0  0  0
   -1.4940    2.3157    0.0000 C   0  0  0  0  0  0  0  0  0  0  0  0
    0.7158    1.3283    0.0000 C   0  0  0  0  0  0  0  0  0  0  0  0
   -0.4942    3.4241    0.0000 N   0  0  0  0  0  0  0  0  0  0  0  0
    0.8815    2.8212    0.0000 O   0  0  0  0  0  0  0  0  0  0  0  0
  3  1  2  0
  4  1  1  0
  5  2  2  0
  6  2  1  0
  7  3  1  0
  8  4  2  0
  9  5  1  0
 10  6  2  0
 12  7  2  0
 12  8  1  0
 13  9  2  0
 13 10  1  0
 14 11  1  0
 14 12  1  0
 15 11  2  0
 15 13  1  0
 16 14  2  0
 17 15  1  0
 17 16  1  0
M  END
>  <NAME>  (4657) 
3,5-DIPHENYL-ISOXAZOLE

>  <SYNONYMS>  (4657) 


>  <SPECTRUM TYPE>  (4657) 
MS1

>  <INSTRUMENT TYPE>  (4657) 
EI-B

>  <INSTRUMENT>  (4657) 
HITACHI RMU-6E

>  <ION MODE>  (4657) 
P

>  <INCHIKEY>  (4657) 
HECRDSFKLUVCAY-UHFFFAOYSA-N

>  <FORMULA>  (4657) 
C15H11NO

>  <EXACT MASS>  (4657) 
221.084063972

>  <MW>  (4657) 
221

>  <ID>  (4657) 
JP003252

>  <CONTRIBUTOR>  (4657) 
University of Tokyo Team, {Faculty of Engineering, University of Tokyo

>  <COMMENT>  (4657) 
SMILES=c(c3)ccc(c3)c(n2)cc(o2)c(c1)cccc1
InChI=InChI=1S/C15H11NO/c1-3-7-12(8-4-1)14-11-15(17-16-14)13-9-5-2-6-10-13/h1-11H
computed SMILES=N=1OC(=CC1C=2C=CC=CC2)C=3C=CC=CC3
accession=JP003252
date=2016.01.19 (Created 2008.10.21, modified 2011.05.06)
author=MASS SPECTROSCOPY SOC. OF JAPAN (MSSJ)
license=CC BY-NC-SA
exact mass=221.08406
ionization energy=70 eV
ion type=[M]+*
computed spectral entropy=1.9349497629956247
computed normalized entropy=0.806936726947844
SPLASH=splash10-0adi-8940000000-a7fd9a6fc8cc5849bab1
submitter=submitter = University of Tokyo Team (Faculty of Engineering, University of Tokyo)
MoNA Rating=3.75

>  <NUM PEAKS>  (4657) 
11

>  <MASS SPECTRAL PEAKS>  (4657) 
39 7
51 27
63 9
77 67
89 14
105 99.99
144 14
165 7
193 6
221 52
222 9

>  <PREDICTED SPECTRUM>  (4657) 
17 0
18 3
27 21
37 16
38 47
39 150
40 35
41 13
43 17
50 183
51 432
52 134
53 6
55 40
62 88
63 181
64 70
65 70
66 7
67 12
68 5
69 17
74 59
75 106
76 118
77 849
78 202
83 20
88 89
89 300
90 120
91 100
102 134
103 65
105 999
106 309
115 11
116 148
118 56
131 26
144 249
145 68
165 40
192 53
193 55
220 189
221 806
222 330
223 101

$$$$

     RDKit          2D

 13 12  0  0  0  0  0  0  0  0999 V2000
    2.4253    4.7993    0.0000 C   0  0  0  0  0  0  0  0  0  0  0  0
   -7.9670    4.7993    0.0000 C   0  0  0  0  0  0  0  0  0  0  0  0
   -4.9178    2.2407    0.0000 C   0  0  0  0  0  0  0  0  0  0  0  0
    1.1262    5.5493    0.0000 C   0  0  0  0  0  0  0  0  0  0  0  0
   -2.7709    4.7993    0.0000 C   0  0  0  0  0  0  0  0  0  0  0  0
   -1.4718    5.5493    0.0000 C   0  0  0  0  0  0  0  0  0  0  0  0
   -6.3331    3.6502    0.0000 O   0  0  0  0  0  0  0  0  0  0  0  0
   -0.1728    3.2993    0.0000 O   0  0  0  0  0  0  0  0  0  0  0  0
   -6.6680    5.5493    0.0000 O   0  0  0  0  0  0  0  0  0  0  0  0
   -4.4048    3.6502    0.0000 O   0  0  0  0  0  0  0  0  0  0  0  0
   -5.3690    4.7993    0.0000 P   0  0  0  0  0  0  0  0  0  0  0  0
   -4.0699    5.5493    0.0000 S   0  0  0  0  0  0  0  0  0  0  0  0
   -0.1728    4.7993    0.0000 S   0  0  0  0  0  0  0  0  0  0  0  0
  4  1  1  0
  6  5  1  0
  9  2  1  0
 10  3  1  0
 11  7  2  0
 11  9  1  0
 11 10  1  0
 12  5  1  0
 12 11  1  0
 13  4  1  0
 13  6  1  0
 13  8  2  0
M  END
>  <NAME>  (4658) 
METASYSTOX

>  <SYNONYMS>  (4658) 


>  <SPECTRUM TYPE>  (4658) 
MS1

>  <INSTRUMENT TYPE>  (4658) 
EI-B

>  <INSTRUMENT>  (4658) 
HITACHI RMU-6E

>  <ION MODE>  (4658) 
P

>  <INCHIKEY>  (4658) 
PMCVMORKVPSKHZ-UHFFFAOYSA-N

>  <FORMULA>  (4658) 
C6H15O4PS2

>  <EXACT MASS>  (4658) 
246.01493759000002

>  <MW>  (4658) 
246

>  <ID>  (4658) 
JP003251

>  <CONTRIBUTOR>  (4658) 
University of Tokyo Team, {Faculty of Engineering, University of Tokyo

>  <COMMENT>  (4658) 
SMILES=CCS(=O)CCSP(=O)(OC)OC
InChI=InChI=1S/C6H15O4PS2/c1-4-13(8)6-5-12-11(7,9-2)10-3/h4-6H2,1-3H3
computed SMILES=O=S(CC)CCSP(=O)(OC)OC
accession=JP003251
date=2016.01.19 (Created 2008.10.21, modified 2011.05.06)
author=MASS SPECTROSCOPY SOC. OF JAPAN (MSSJ)
license=CC BY-NC-SA
exact mass=246.01494
ionization energy=70 eV
ion type=[M]+*
computed spectral entropy=2.5864712271597354
computed normalized entropy=0.9129108588260324
SPLASH=splash10-0a73-9700000000-a94e69d7f2da3420e649
submitter=submitter = University of Tokyo Team (Faculty of Engineering, University of Tokyo)
MoNA Rating=3.75

>  <NUM PEAKS>  (4658) 
17

>  <MASS SPECTRAL PEAKS>  (4658) 
75 35
77 25
79 40
88 99.99
89 33
91 88
92 18
105 41
106 74
109 50
112 20
122 12
125 17
142 35
143 16
169 6
230 9

>  <PREDICTED SPECTRUM>  (4658) 
26 3
27 170
28 28
29 376
30 14
31 162
32 59
33 145
34 58
35 101
41 182
43 76
44 134
45 650
46 245
47 881
48 220
49 215
50 100
51 67
53 51
54 9
55 342
57 92
58 219
59 240
60 380
61 316
62 290
63 583
64 415
65 425
66 143
67 177
69 38
73 115
75 550
76 221
77 251
78 175
79 685
80 122
81 223
83 204
85 111
87 72
88 229
89 29
90 172
91 188
92 240
93 580
94 240
95 211
104 202
105 428
106 147
107 147
108 73
109 999
110 471
111 100
119 119
120 228
121 440
122 251
123 222
124 264
125 294
126 141
127 127
135 30
136 71
137 358
138 78
142 245
143 227
144 90
149 2
158 45
167 89
246 2

$$$$

     RDKit          2D

 16 16  0  0  0  0  0  0  0  0999 V2000
    6.4962    0.7508    0.0000 C   0  0  0  0  0  0  0  0  0  0  0  0
    3.4473   -1.8083    0.0000 C   0  0  0  0  0  0  0  0  0  0  0  0
   -1.3000    0.7500    0.0000 C   0  0  0  0  0  0  0  0  0  0  0  0
    0.0000   -1.5000    0.0000 C   0  0  0  0  0  0  0  0  0  0  0  0
    0.0000    1.5000    0.0000 C   0  0  0  0  0  0  0  0  0  0  0  0
    1.3000   -0.7500    0.0000 C   0  0  0  0  0  0  0  0  0  0  0  0
   -1.3000   -0.7500    0.0000 C   0  0  0  0  0  0  0  0  0  0  0  0
    1.3000    0.7500    0.0000 C   0  0  0  0  0  0  0  0  0  0  0  0
   -2.5989   -1.5002    0.0000 N   0  0  0  0  0  0  0  0  0  0  0  0
   -3.8981   -0.7504    0.0000 O   0  0  0  0  0  0  0  0  0  0  0  0
   -2.5987   -3.0002    0.0000 O   0  0  0  0  0  0  0  0  0  0  0  0
    5.1970    1.5006    0.0000 O   0  0  0  0  0  0  0  0  0  0  0  0
    2.9341   -0.3988    0.0000 O   0  0  0  0  0  0  0  0  0  0  0  0
    2.5989    1.5002    0.0000 O   0  0  0  0  0  0  0  0  0  0  0  0
    3.8981    0.7504    0.0000 P   0  0  0  0  0  0  0  0  0  0  0  0
    4.8624   -0.3985    0.0000 S   0  0  0  0  0  0  0  0  0  0  0  0
  5  3  2  0
  6  4  1  0
  7  3  1  0
  7  4  2  0
  8  5  1  0
  8  6  2  0
  9  7  1  0
 10  9  1  0
 11  9  2  0
 12  1  1  0
 13  2  1  0
 14  8  1  0
 15 12  1  0
 15 13  1  0
 15 14  1  0
 16 15  2  0
M  CHG  2   9   1  10  -1
M  END
>  <NAME>  (4659) 
METHYL PARATHION

>  <SYNONYMS>  (4659) 


>  <SPECTRUM TYPE>  (4659) 
MS1

>  <INSTRUMENT TYPE>  (4659) 
EI-B

>  <INSTRUMENT>  (4659) 
HITACHI RMU-6E

>  <ION MODE>  (4659) 
P

>  <INCHIKEY>  (4659) 
RLBIQVVOMOPOHC-UHFFFAOYSA-N

>  <FORMULA>  (4659) 
C8H10NO5PS

>  <EXACT MASS>  (4659) 
263.00173005

>  <MW>  (4659) 
263

>  <ID>  (4659) 
JP003250

>  <CONTRIBUTOR>  (4659) 
University of Tokyo Team, {Faculty of Engineering, University of Tokyo

>  <COMMENT>  (4659) 
SMILES=[O-1][N+1](=O)c(c1)ccc(c1)OP(=S)(OC)OC
InChI=InChI=1S/C8H10NO5PS/c1-12-15(16,13-2)14-8-5-3-7(4-6-8)9(10)11/h3-6H,1-2H3
computed SMILES=O=N(=O)C1=CC=C(OP(=S)(OC)OC)C=C1
accession=JP003250
date=2016.01.19 (Created 2008.10.21, modified 2011.05.06)
author=MASS SPECTROSCOPY SOC. OF JAPAN (MSSJ)
license=CC BY-NC-SA
exact mass=263.00173
ionization energy=70 eV
ion type=[M]+*
computed spectral entropy=1.9894204676878102
computed normalized entropy=0.8639943313022024
SPLASH=splash10-06vi-3970000000-203d78f4cbba79fcaa11
submitter=submitter = University of Tokyo Team (Faculty of Engineering, University of Tokyo)
MoNA Rating=3.75

>  <NUM PEAKS>  (4659) 
10

>  <MASS SPECTRAL PEAKS>  (4659) 
79 47
93 35
109 86
125 87
137 17
200 15
231 9
232 12
246 15
263 99.99

>  <PREDICTED SPECTRUM>  (4659) 
14 26
15 184
16 16
17 17
18 45
26 53
27 130
28 100
29 170
30 273
31 171
32 48
33 40
34 2
36 45
37 72
38 164
39 194
40 49
41 103
43 15
44 92
45 395
46 105
47 447
48 77
49 113
50 226
51 72
52 185
53 67
57 75
58 56
59 32
60 31
61 61
62 308
63 686
64 376
65 391
66 105
67 55
69 109
70 46
71 45
72 19
73 33
74 49
75 256
76 107
77 192
78 48
79 709
80 151
81 210
82 32
83 3
88 10
90 114
91 80
93 759
94 79
95 154
96 122
97 39
99 37
101 15
102 75
105 53
106 73
107 4
108 16
109 920
110 234
111 104
112 61
119 6
120 8
121 101
122 343
123 345
124 78
125 999
126 100
127 51
135 49
136 286
137 260
138 260
139 333
140 161
141 12
152 162
153 110
154 129
155 129
166 23
168 250
169 224
170 64
184 122
185 80
200 42
202 46
216 126
232 82
233 151
234 14
247 99
263 753
264 236
265 211
266 43

$$$$

     RDKit          2D

 12 11  0  0  0  0  0  0  0  0999 V2000
   -6.4952    4.5000    0.0000 C   0  0  0  0  0  0  0  0  0  0  0  0
    2.5981    3.7500    0.0000 C   0  0  0  0  0  0  0  0  0  0  0  0
   -0.4512    1.1914    0.0000 C   0  0  0  0  0  0  0  0  0  0  0  0
   -2.5981    3.7500    0.0000 C   0  0  0  0  0  0  0  0  0  0  0  0
   -3.8971    4.5000    0.0000 C   0  0  0  0  0  0  0  0  0  0  0  0
   -5.1962    3.7500    0.0000 N   0  0  0  0  0  0  0  0  0  0  0  0
   -3.8971    6.0000    0.0000 O   0  0  0  0  0  0  0  0  0  0  0  0
    1.2990    4.5000    0.0000 O   0  0  0  0  0  0  0  0  0  0  0  0
   -0.9642    2.6009    0.0000 O   0  0  0  0  0  0  0  0  0  0  0  0
    0.0000    3.7500    0.0000 P   0  0  0  0  0  0  0  0  0  0  0  0
    0.9642    2.6009    0.0000 S   0  0  0  0  0  0  0  0  0  0  0  0
   -1.2990    4.5000    0.0000 S   0  0  0  0  0  0  0  0  0  0  0  0
  5  4  1  0
  6  1  1  0
  6  5  2  3
  7  5  1  0
  8  2  1  0
  9  3  1  0
 10  8  1  0
 10  9  1  0
 11 10  2  0
 12  4  1  0
 12 10  1  0
M  END
>  <NAME>  (4660) 
DIMETHOATE

>  <SYNONYMS>  (4660) 


>  <SPECTRUM TYPE>  (4660) 
MS1

>  <INSTRUMENT TYPE>  (4660) 
EI-B

>  <INSTRUMENT>  (4660) 
HITACHI RMU-6E

>  <ION MODE>  (4660) 
P

>  <INCHIKEY>  (4660) 
MCWXGJITAZMZEV-UHFFFAOYSA-N

>  <FORMULA>  (4660) 
C5H12NO3PS2

>  <EXACT MASS>  (4660) 
228.999621874

>  <MW>  (4660) 
229

>  <ID>  (4660) 
JP003249

>  <CONTRIBUTOR>  (4660) 
University of Tokyo Team, {Faculty of Engineering, University of Tokyo

>  <COMMENT>  (4660) 
SMILES=CNC(=O)CSP(=S)(OC)OC
InChI=InChI=1S/C5H12NO3PS2/c1-6-5(7)4-12-10(11,8-2)9-3/h4H2,1-3H3,(H,6,7)
computed SMILES=S=P(OC)(OC)SCC(O)=NC
accession=JP003249
date=2016.01.19 (Created 2008.10.21, modified 2011.05.06)
author=MASS SPECTROSCOPY SOC. OF JAPAN (MSSJ)
license=CC BY-NC-SA
exact mass=228.99962
ionization energy=70 eV
ion type=[M]+*
computed spectral entropy=2.4674845847838576
computed normalized entropy=0.9349871096372074
SPLASH=splash10-004u-9300000000-683772124d452cc04e64
submitter=submitter = University of Tokyo Team (Faculty of Engineering, University of Tokyo)
MoNA Rating=3.75

>  <NUM PEAKS>  (4660) 
14

>  <MASS SPECTRAL PEAKS>  (4660) 
47 43
56 21
58 47
63 34
79 34
87 99.99
88 22
93 81
104 17
105 15
125 80
126 22
143 29
229 38

>  <PREDICTED SPECTRUM>  (4660) 
14 2
15 100
17 22
18 13
27 29
28 18
29 105
30 95
31 119
32 45
33 57
34 32
40 15
41 170
42 161
43 110
44 132
45 235
46 93
47 462
48 237
49 100
50 18
51 35
52 43
53 55
54 90
55 151
56 83
57 71
59 151
60 71
61 40
62 171
63 440
64 231
65 205
71 170
72 258
73 185
74 175
75 99
76 134
77 144
79 594
83 51
86 81
87 195
88 257
89 135
90 90
91 37
92 4
93 999
94 111
95 135
102 16
103 125
104 142
105 188
106 116
107 121
108 92
109 211
111 47
117 21
118 124
121 70
125 908
126 0
127 3
134 44
141 79
142 41
143 21
150 52
155 77
158 134
166 8
181 90
182 363
183 205
184 138
196 1
198 66
199 0
229 453
230 131
231 100
232 7

$$$$

     RDKit          2D

 12 12  0  0  1  0  0  0  0  0999 V2000
   -1.3000   -0.7500    0.0000 C   0  0  0  0  0  0  0  0  0  0  0  0
   -0.0000   -1.5000    0.0000 C   0  0  0  0  0  0  0  0  0  0  0  0
   -1.3000    0.7500    0.0000 C   0  0  0  0  0  0  0  0  0  0  0  0
    1.3000   -0.7500    0.0000 C   0  0  0  0  0  0  0  0  0  0  0  0
    0.0000    1.5000    0.0000 C   0  0  0  0  0  0  0  0  0  0  0  0
    1.3000    0.7500    0.0000 C   0  0  0  0  0  0  0  0  0  0  0  0
   -2.5989   -1.5002    0.0000 Cl  0  0  0  0  0  0  0  0  0  0  0  0
   -0.0000   -3.0000    0.0000 Cl  0  0  0  0  0  0  0  0  0  0  0  0
   -2.5989    1.5002    0.0000 Cl  0  0  0  0  0  0  0  0  0  0  0  0
    2.5989   -1.5002    0.0000 Cl  0  0  0  0  0  0  0  0  0  0  0  0
    0.0000    3.0000    0.0000 Cl  0  0  0  0  0  0  0  0  0  0  0  0
    2.5989    1.5002    0.0000 Cl  0  0  0  0  0  0  0  0  0  0  0  0
  2  1  1  0
  3  1  1  0
  4  2  1  0
  5  3  1  0
  6  4  1  0
  6  5  1  0
  1  7  1  6
  2  8  1  1
  3  9  1  6
  4 10  1  6
  5 11  1  1
  6 12  1  6
M  END
>  <NAME>  (4661) 
GAMMA-HEXACHLORO-CYCLOHEXANE

>  <SYNONYMS>  (4661) 


>  <SPECTRUM TYPE>  (4661) 
MS1

>  <INSTRUMENT TYPE>  (4661) 
EI-B

>  <INSTRUMENT>  (4661) 
HITACHI RMU-6E

>  <ION MODE>  (4661) 
P

>  <INCHIKEY>  (4661) 
JLYXXMFPNIAWKQ-GNIYUCBRSA-N

>  <FORMULA>  (4661) 
C6H6Cl6

>  <EXACT MASS>  (4661) 
287.860066272

>  <MW>  (4661) 
288

>  <ID>  (4661) 
JP003248

>  <CONTRIBUTOR>  (4661) 
University of Tokyo Team, {Faculty of Engineering, University of Tokyo

>  <COMMENT>  (4661) 
SMILES=[C@@H]1([C@@H]([C@@H]([C@H]([C@@H]([C@@H]1Cl)Cl)Cl)Cl)Cl)Cl
InChI=InChI=1S/C6H6Cl6/c7-1-2(8)4(10)6(12)5(11)3(1)9/h1-6H/t1-,2-,3-,4+,5+,6+
computed SMILES=ClC1C(Cl)C(Cl)C(Cl)C(Cl)C1Cl
accession=JP003248
date=2016.01.19 (Created 2008.10.21, modified 2011.05.06)
author=MASS SPECTROSCOPY SOC. OF JAPAN (MSSJ)
license=CC BY-NC-SA
exact mass=287.86007
ionization energy=70 eV
ion type=[M]+*
computed spectral entropy=2.590460038128578
computed normalized entropy=0.8647168043008671
SPLASH=splash10-00lr-0970000000-33cb78a0afe7fa116f26
submitter=submitter = University of Tokyo Team (Faculty of Engineering, University of Tokyo)
MoNA Rating=3.75

>  <NUM PEAKS>  (4661) 
20

>  <MASS SPECTRAL PEAKS>  (4661) 
109 75
111 66
113 16
149 30
181 97
183 91
185 32
217 80
219 99.99
221 49
223 12
252 14
254 22
256 16
258 4
288 7
290 12
292 8
294 5
296 4

>  <PREDICTED SPECTRUM>  (4661) 
26 60
27 182
28 45
29 61
31 74
35 283
36 7
37 232
38 348
39 537
40 88
41 34
43 21
47 87
49 290
50 192
51 197
52 66
53 39
61 154
63 123
64 64
65 196
73 231
75 436
83 155
85 162
87 95
89 33
92 121
93 45
97 12
98 8
99 216
109 700
111 108
113 126
115 97
119 48
121 26
122 61
132 251
133 36
134 62
135 55
136 1
137 3
145 158
146 57
147 98
148 3
157 40
158 50
159 4
160 4
162 27
164 9
181 401
182 312
183 646
184 87
185 260
195 37
197 1
216 147
217 881
218 149
219 270
220 99
221 513
223 105
249 554
251 378
252 199
253 759
255 999
256 448
257 960
258 383
259 726
261 161
290 22
292 108
293 26

$$$$

     RDKit          2D

 19 20  0  0  0  0  0  0  0  0999 V2000
   -0.6600    1.1538    0.0000 C   0  0  0  0  0  0  0  0  0  0  0  0
    0.6350    3.3968    0.0000 C   0  0  0  0  0  0  0  0  0  0  0  0
   -4.5570    3.3577    0.0000 C   0  0  0  0  0  0  0  0  0  0  0  0
   -3.2620    1.1147    0.0000 C   0  0  0  0  0  0  0  0  0  0  0  0
    0.6391    0.4038    0.0000 C   0  0  0  0  0  0  0  0  0  0  0  0
    1.9341    2.6468    0.0000 C   0  0  0  0  0  0  0  0  0  0  0  0
   -5.8561    2.6077    0.0000 C   0  0  0  0  0  0  0  0  0  0  0  0
   -4.5611    0.3647    0.0000 C   0  0  0  0  0  0  0  0  0  0  0  0
   -0.6695    2.6373    0.0000 C   0  0  0  0  0  0  0  0  0  0  0  0
   -3.2675    2.6242    0.0000 C   0  0  0  0  0  0  0  0  0  0  0  0
    1.9373    1.1323    0.0000 C   0  0  0  0  0  0  0  0  0  0  0  0
   -5.8743    1.1192    0.0000 C   0  0  0  0  0  0  0  0  0  0  0  0
   -1.9723    3.3807    0.0000 C   0  0  0  0  0  0  0  0  0  0  0  0
   -1.9798    4.8807    0.0000 C   0  0  0  0  0  0  0  0  0  0  0  0
    3.2325    0.3757    0.0000 Cl  0  0  0  0  0  0  0  0  0  0  0  0
   -7.1771    0.3758    0.0000 Cl  0  0  0  0  0  0  0  0  0  0  0  0
   -0.4798    4.8883    0.0000 Cl  0  0  0  0  0  0  0  0  0  0  0  0
   -1.9873    6.3807    0.0000 Cl  0  0  0  0  0  0  0  0  0  0  0  0
   -3.4798    4.8732    0.0000 Cl  0  0  0  0  0  0  0  0  0  0  0  0
  5  1  2  0
  6  2  1  0
  7  3  2  0
  8  4  1  0
  9  1  1  0
  9  2  2  0
 10  3  1  0
 10  4  2  0
 11  5  1  0
 11  6  2  0
 12  7  1  0
 12  8  2  0
 13  9  1  0
 13 10  1  0
 14 13  1  0
 15 11  1  0
 16 12  1  0
 17 14  1  0
 18 14  1  0
 19 14  1  0
M  END
>  <NAME>  (4662) 
1,1'-(2,2,2-TRICHLOROETHYLIDENE)-BIS(4-CHLOROBENZENE)

>  <SYNONYMS>  (4662) 


>  <SPECTRUM TYPE>  (4662) 
MS1

>  <INSTRUMENT TYPE>  (4662) 
EI-B

>  <INSTRUMENT>  (4662) 
HITACHI RMU-6E

>  <ION MODE>  (4662) 
P

>  <INCHIKEY>  (4662) 
YVGGHNCTFXOJCH-UHFFFAOYSA-N

>  <FORMULA>  (4662) 
C14H9Cl5

>  <EXACT MASS>  (4662) 
351.914688688

>  <MW>  (4662) 
352

>  <ID>  (4662) 
JP003247

>  <CONTRIBUTOR>  (4662) 
University of Tokyo Team, {Faculty of Engineering, University of Tokyo

>  <COMMENT>  (4662) 
SMILES=Clc(c2)ccc(c2)C(c(c1)ccc(Cl)c1)C(Cl)(Cl)Cl
InChI=InChI=1S/C14H9Cl5/c15-11-5-1-9(2-6-11)13(14(17,18)19)10-3-7-12(16)8-4-10/h1-8,13H
computed SMILES=ClC1=CC=C(C=C1)C(C2=CC=C(Cl)C=C2)C(Cl)(Cl)Cl
accession=JP003247
date=2016.01.19 (Created 2008.10.21, modified 2011.05.06)
author=MASS SPECTROSCOPY SOC. OF JAPAN (MSSJ)
license=CC BY-NC-SA
exact mass=351.91469
ionization energy=70 eV
ion type=[M]+*
computed spectral entropy=1.8993165579100304
computed normalized entropy=0.7196950731596752
SPLASH=splash10-000i-0390000000-a23b93b08974f28c17ea
submitter=submitter = University of Tokyo Team (Faculty of Engineering, University of Tokyo)
MoNA Rating=3.75

>  <NUM PEAKS>  (4662) 
14

>  <MASS SPECTRAL PEAKS>  (4662) 
165 59
176 15
199 17
212 13
235 99.99
237 82
282 5.7
283 2.8
284 5.8
316 5.9
318 6.9
352 2
354 2.6
356 2

>  <PREDICTED SPECTRUM>  (4662) 
25 0
26 1
28 23
31 5
35 74
36 157
37 54
38 115
39 83
40 29
41 12
43 39
44 56
47 81
48 6
49 115
50 242
51 265
52 41
56 43
57 71
58 15
60 32
61 41
62 113
63 190
64 19
68 25
69 111
70 90
71 69
72 24
73 140
74 229
75 364
76 289
77 137
81 26
82 225
83 102
84 80
85 225
86 137
87 145
88 194
89 203
90 85
91 37
92 36
93 34
97 3
98 22
99 150
100 38
101 129
102 79
103 113
104 67
105 24
106 49
107 47
110 84
111 154
112 66
113 190
114 14
115 44
116 53
117 148
118 63
119 47
120 77
122 80
123 100
125 113
126 120
127 162
128 93
129 81
130 77
131 71
132 31
133 42
134 16
136 28
137 31
138 114
139 205
140 93
141 92
143 89
144 26
145 2
146 28
147 3
149 200
150 201
151 116
152 76
153 0
154 16
156 40
157 149
158 41
159 127
160 39
161 75
162 57
163 355
164 89
165 523
166 135
169 21
172 141
173 109
174 136
175 187
176 286
177 145
178 49
180 35
181 81
182 54
192 14
193 5
196 5
197 55
199 547
200 84
201 96
202 25
203 79
204 51
206 12
208 35
209 77
210 46
211 100
212 107
213 42
218 26
219 23
220 15
232 55
233 1
234 60
235 999
236 432
237 668
238 131
239 315
243 36
245 88
246 197
247 359
248 218
249 151
251 37
281 45
282 202
283 349
284 248
285 275
286 94
300 13
319 14
335 46
352 101
353 39
354 153
355 49
356 98
357 1

$$$$

     RDKit          2D

 17 16  0  0  0  0  0  0  0  0999 V2000
    0.0000    0.0000    0.0000 C   0  0  0  0  0  0  0  0  0  0  0  0
    1.2042    6.8296    0.0000 C   0  0  0  0  0  0  0  0  0  0  0  0
   -7.7942    4.5000    0.0000 C   0  0  0  0  0  0  0  0  0  0  0  0
   -7.3027    1.7123    0.0000 C   0  0  0  0  0  0  0  0  0  0  0  0
    0.0000    1.5000    0.0000 C   0  0  0  0  0  0  0  0  0  0  0  0
    0.6912    5.4200    0.0000 C   0  0  0  0  0  0  0  0  0  0  0  0
   -6.4952    3.7500    0.0000 C   0  0  0  0  0  0  0  0  0  0  0  0
   -6.3385    2.8614    0.0000 C   0  0  0  0  0  0  0  0  0  0  0  0
    0.1782    3.4895    0.0000 O   0  0  0  0  0  0  0  0  0  0  0  0
   -2.9329    2.6009    0.0000 O   0  0  0  0  0  0  0  0  0  0  0  0
   -1.2990    2.2500    0.0000 O   0  0  0  0  0  0  0  0  0  0  0  0
   -0.7860    5.1595    0.0000 O   0  0  0  0  0  0  0  0  0  0  0  0
   -5.1962    4.5000    0.0000 O   0  0  0  0  0  0  0  0  0  0  0  0
   -4.8613    2.6009    0.0000 O   0  0  0  0  0  0  0  0  0  0  0  0
   -2.5981    4.5000    0.0000 O   0  0  0  0  0  0  0  0  0  0  0  0
   -1.2990    3.7500    0.0000 P   0  0  0  0  0  0  0  0  0  0  0  0
   -3.8971    3.7500    0.0000 P   0  0  0  0  0  0  0  0  0  0  0  0
  5  1  1  0
  6  2  1  0
  7  3  1  0
  8  4  1  0
 11  5  1  0
 12  6  1  0
 13  7  1  0
 14  8  1  0
 16  9  2  0
 16 11  1  0
 16 12  1  0
 16 15  1  0
 17 10  2  0
 17 13  1  0
 17 14  1  0
 17 15  1  0
M  END
>  <NAME>  (4663) 
TETRAETHYL PYROPHOSPHATE

>  <SYNONYMS>  (4663) 


>  <SPECTRUM TYPE>  (4663) 
MS1

>  <INSTRUMENT TYPE>  (4663) 
EI-B

>  <INSTRUMENT>  (4663) 
HITACHI RMU-6E

>  <ION MODE>  (4663) 
P

>  <INCHIKEY>  (4663) 
IDCBOTIENDVCBQ-UHFFFAOYSA-N

>  <FORMULA>  (4663) 
C8H20O7P2

>  <EXACT MASS>  (4663) 
290.06842624

>  <MW>  (4663) 
290

>  <ID>  (4663) 
JP003245

>  <CONTRIBUTOR>  (4663) 
University of Tokyo Team, {Faculty of Engineering, University of Tokyo

>  <COMMENT>  (4663) 
SMILES=CCOP(=O)(OCC)OP(=O)(OCC)OCC
InChI=InChI=1S/C8H20O7P2/c1-5-11-16(9,12-6-2)15-17(10,13-7-3)14-8-4/h5-8H2,1-4H3
computed SMILES=O=P(OCC)(OCC)OP(=O)(OCC)OCC
accession=JP003245
date=2016.01.19 (Created 2008.10.21, modified 2011.05.06)
author=MASS SPECTROSCOPY SOC. OF JAPAN (MSSJ)
license=CC BY-NC-SA
exact mass=290.06843
ionization energy=70 eV
ion type=[M]+*
computed spectral entropy=2.538613473978911
computed normalized entropy=0.9619394946410691
SPLASH=splash10-08i0-4950000000-5d2c127a235111c296a9
submitter=submitter = University of Tokyo Team (Faculty of Engineering, University of Tokyo)
MoNA Rating=3.75

>  <NUM PEAKS>  (4663) 
14

>  <MASS SPECTRAL PEAKS>  (4663) 
81 73
82 44
99 93
109 42
127 73
155 81
161 94
162 63
179 73
182 15
207 60
235 93
263 99.99
290 15

>  <PREDICTED SPECTRUM>  (4663) 
15 32
26 61
27 18
28 46
29 47
31 190
42 82
43 120
44 99
45 363
47 479
51 35
53 61
54 176
55 21
63 140
65 544
66 78
71 52
72 9
77 22
78 61
79 228
80 233
81 851
82 652
83 248
84 9
89 15
91 152
93 341
95 5
96 101
97 503
98 326
99 999
100 36
103 13
107 49
108 39
109 735
110 31
111 184
117 104
121 354
123 7
124 17
125 289
126 242
127 716
133 82
135 32
136 193
137 231
138 331
139 273
140 5
141 67
142 162
143 511
144 89
153 225
154 462
155 911
156 66
158 49
160 98
161 832
162 382
163 186
169 76
170 156
171 269
172 214
173 66
177 399
178 455
179 485
182 23
189 413
190 164
191 112
198 24
199 38
200 46
206 86
207 381
217 558
218 93
219 81
233 114
234 60
235 494
245 86
246 249
247 57
262 218
263 436
290 141
291 61

$$$$

     RDKit          2D

 16 17  0  0  0  0  0  0  0  0999 V2000
    2.0645    4.1598    0.0000 C   0  0  0  0  0  0  0  0  0  0  0  0
    4.5790    2.5459    0.0000 C   0  0  0  0  0  0  0  0  0  0  0  0
   -1.1169    3.4841    0.0000 C   0  0  0  0  0  0  0  0  0  0  0  0
   -4.0676   -1.2653    0.0000 C   0  0  0  0  0  0  0  0  0  0  0  0
   -4.0681    0.2355    0.0000 C   0  0  0  0  0  0  0  0  0  0  0  0
   -2.7681   -2.0161    0.0000 C   0  0  0  0  0  0  0  0  0  0  0  0
   -2.7690    0.9855    0.0000 C   0  0  0  0  0  0  0  0  0  0  0  0
   -1.4690   -1.2661    0.0000 C   0  0  0  0  0  0  0  0  0  0  0  0
    1.4550    2.7892    0.0000 C   0  0  0  0  0  0  0  0  0  0  0  0
   -1.4695    0.2347    0.0000 C   0  0  0  0  0  0  0  0  0  0  0  0
    2.2050    1.4902    0.0000 C   0  0  0  0  0  0  0  0  0  0  0  0
    1.2053    0.3818    0.0000 C   0  0  0  0  0  0  0  0  0  0  0  0
    3.6967    1.3327    0.0000 N   0  0  0  0  0  0  0  0  0  0  0  0
   -0.0047    2.4776    0.0000 N   0  0  0  0  0  0  0  0  0  0  0  0
   -0.1705    0.9847    0.0000 N   0  0  0  0  0  0  0  0  0  0  0  0
    1.5208   -1.0846    0.0000 O   0  0  0  0  0  0  0  0  0  0  0  0
  5  4  2  0
  6  4  1  0
  7  5  1  0
  8  6  2  0
  9  1  1  0
 10  7  2  0
 10  8  1  0
 11  9  2  0
 12 11  1  0
 13  2  1  0
 13 11  1  0
 14  3  1  0
 14  9  1  0
 15 10  1  0
 15 12  1  0
 15 14  1  0
 16 12  2  0
M  END
>  <NAME>  (4664) 
4-METHYLAMINO-ANTIPYRINE

>  <SYNONYMS>  (4664) 


>  <SPECTRUM TYPE>  (4664) 
MS1

>  <INSTRUMENT TYPE>  (4664) 
EI-B

>  <INSTRUMENT>  (4664) 
HITACHI RMU-6E

>  <ION MODE>  (4664) 
P

>  <INCHIKEY>  (4664) 
JILCEWWZTBBOFS-UHFFFAOYSA-N

>  <FORMULA>  (4664) 
C12H15N3O

>  <EXACT MASS>  (4664) 
217.1215121

>  <MW>  (4664) 
217

>  <ID>  (4664) 
JP003243

>  <CONTRIBUTOR>  (4664) 
University of Tokyo Team, {Faculty of Engineering, University of Tokyo

>  <COMMENT>  (4664) 
SMILES=CNC(=C(C)1)C(=O)N(c(c2)cccc2)N(C)1
InChI=InChI=1S/C12H15N3O/c1-9-11(13-2)12(16)15(14(9)3)10-7-5-4-6-8-10/h4-8,13H,1-3H3
computed SMILES=O=C1C(NC)=C(N(N1C=2C=CC=CC2)C)C
accession=JP003243
date=2016.01.19 (Created 2008.10.21, modified 2011.05.06)
author=MASS SPECTROSCOPY SOC. OF JAPAN (MSSJ)
license=CC BY-NC-SA
exact mass=217.12151
ionization energy=70 eV
ion type=[M]+*
computed spectral entropy=2.486978974825034
computed normalized entropy=0.8969880584437988
SPLASH=splash10-0aor-9140000000-9160708910f96853b852
submitter=submitter = University of Tokyo Team (Faculty of Engineering, University of Tokyo)
MoNA Rating=3.75

>  <NUM PEAKS>  (4664) 
16

>  <MASS SPECTRAL PEAKS>  (4664) 
42 36
51 9
56 99.99
57 26
67 4
77 20
83 62
91 15
97 12
98 23
119 13
123 41
215 23
216 22
217 77
218 20

>  <PREDICTED SPECTRUM>  (4664) 
15 25
26 0
28 43
29 15
30 36
32 5
33 28
34 13
36 5
37 16
38 50
39 130
40 125
41 136
42 272
43 117
44 91
45 41
49 2
50 98
51 229
52 136
53 91
54 125
55 86
56 999
57 338
58 149
59 9
60 8
61 21
62 37
63 107
64 122
65 163
66 114
67 120
68 122
69 162
70 103
71 29
72 11
73 40
74 65
75 48
76 54
77 369
78 115
79 97
80 19
81 88
82 76
83 344
84 165
85 65
86 24
88 13
89 48
90 7
91 192
92 156
93 91
94 36
95 23
96 41
97 120
98 128
99 41
101 20
102 37
103 64
104 73
105 148
106 122
107 85
108 110
109 96
110 63
111 67
112 40
113 81
114 38
115 53
116 44
117 14
118 131
119 142
120 83
121 76
122 15
123 35
125 231
126 121
127 67
128 52
129 50
130 67
131 111
132 50
134 47
145 77
159 30
172 39
173 27
174 20
186 1
188 61
189 27
190 1
200 16
202 153
203 28
216 134
217 633
218 264
219 66
220 9

$$$$

     RDKit          2D

 22 22  0  0  0  0  0  0  0  0999 V2000
    0.6493    2.5506    0.0000 C   0  0  0  0  0  0  0  0  0  0  0  0
    2.8910   -1.6470    0.0000 C   0  0  0  0  0  0  0  0  0  0  0  0
   -2.5322    1.8749    0.0000 C   0  0  0  0  0  0  0  0  0  0  0  0
   -5.4829   -2.8745    0.0000 C   0  0  0  0  0  0  0  0  0  0  0  0
   -5.4833   -1.3736    0.0000 C   0  0  0  0  0  0  0  0  0  0  0  0
   -4.1833   -3.6253    0.0000 C   0  0  0  0  0  0  0  0  0  0  0  0
   -4.1843   -0.6236    0.0000 C   0  0  0  0  0  0  0  0  0  0  0  0
   -2.8843   -2.8753    0.0000 C   0  0  0  0  0  0  0  0  0  0  0  0
    3.1637    0.9367    0.0000 C   0  0  0  0  0  0  0  0  0  0  0  0
    0.0398    1.1801    0.0000 C   0  0  0  0  0  0  0  0  0  0  0  0
   -2.8848   -1.3745    0.0000 C   0  0  0  0  0  0  0  0  0  0  0  0
    0.7898   -0.1190    0.0000 C   0  0  0  0  0  0  0  0  0  0  0  0
   -0.2100   -1.2274    0.0000 C   0  0  0  0  0  0  0  0  0  0  0  0
    2.2815   -0.2764    0.0000 N   0  0  0  0  0  0  0  0  0  0  0  0
   -1.4200    0.8684    0.0000 N   0  0  0  0  0  0  0  0  0  0  0  0
   -1.5857   -0.6245    0.0000 N   0  0  0  0  0  0  0  0  0  0  0  0
    0.1055   -2.6938    0.0000 O   0  0  0  0  0  0  0  0  0  0  0  0
    4.4980   -0.7125    0.0000 O   0  0  0  0  0  0  0  0  0  0  0  0
    6.1471    0.6218    0.0000 O   0  0  0  0  0  0  0  0  0  0  0  0
    4.8129    2.2710    0.0000 O   0  0  0  0  0  0  0  0  0  0  0  0
    4.6554    0.7792    0.0000 S   0  0  0  0  0  0  0  0  0  0  0  0
    0.0000    0.0000    0.0000 Na  0  0  0  0  0 15  0  0  0  0  0  0
  5  4  2  0
  6  4  1  0
  7  5  1  0
  8  6  2  0
 10  1  1  0
 11  7  2  0
 11  8  1  0
 12 10  2  0
 13 12  1  0
 14  2  1  0
 14  9  1  0
 14 12  1  0
 15  3  1  0
 15 10  1  0
 16 11  1  0
 16 13  1  0
 16 15  1  0
 17 13  2  0
 21  9  1  0
 21 18  1  0
 21 19  2  0
 21 20  2  0
M  CHG  2  18  -1  22   1
M  END
>  <NAME>  (4665) 
SULPYRINE

>  <SYNONYMS>  (4665) 


>  <SPECTRUM TYPE>  (4665) 
MS1

>  <INSTRUMENT TYPE>  (4665) 
EI-B

>  <INSTRUMENT>  (4665) 
HITACHI RMU-6E

>  <ION MODE>  (4665) 
P

>  <INCHIKEY>  (4665) 
DJGAAPFSPWAYTJ-UHFFFAOYSA-M

>  <FORMULA>  (4665) 
C13H16N3NaO4S

>  <EXACT MASS>  (4665) 
333.0759212720001

>  <MW>  (4665) 
333

>  <ID>  (4665) 
JP003241

>  <CONTRIBUTOR>  (4665) 
University of Tokyo Team, {Faculty of Engineering, University of Tokyo

>  <COMMENT>  (4665) 
SMILES=[Na]OS(=O)(=O)CN(C)C(=C(C)1)C(=O)N(c(c2)cccc2)N(C)1
InChI=InChI=1S/C13H17N3O4S.Na/c1-10-12(14(2)9-21(18,19)20)13(17)16(15(10)3)11-7-5-4-6-8-11;/h4-8H,9H2,1-3H3,(H,18,19,20);/q;+1/p-1
computed SMILES=[Na+].O=C1C(=C(N(N1C=2C=CC=CC2)C)C)N(C)CS(=O)(=O)[O-]
accession=JP003241
date=2016.01.19 (Created 2008.10.21, modified 2011.05.06)
author=MASS SPECTROSCOPY SOC. OF JAPAN (MSSJ)
license=CC BY-NC-SA
exact mass=333.07592
ionization energy=70 eV
ion type=[M]+*
computed spectral entropy=2.9371164689722074
computed normalized entropy=0.9502025654099725
SPLASH=splash10-066r-9120000000-b465330a1885c099bc73
submitter=submitter = University of Tokyo Team (Faculty of Engineering, University of Tokyo)
MoNA Rating=3.75

>  <NUM PEAKS>  (4665) 
22

>  <MASS SPECTRAL PEAKS>  (4665) 
41 20
42 51
44 10
48 17
51 27
54 22
56 99.99
57 40
64 51
65 20
68 12
77 42
83 65
91 37
96 22
97 37
98 36
119 45
123 72
215 52
217 78
218 22

>  <PREDICTED SPECTRUM>  (4665) 
15 15
26 2
27 22
28 55
29 28
30 54
33 26
34 0
37 15
38 58
39 119
40 78
41 28
42 141
43 7
44 21
45 41
48 35
50 56
51 155
52 95
53 49
54 157
55 102
56 999
57 214
58 26
59 1
61 9
62 18
63 74
64 109
65 112
66 81
67 48
68 23
70 19
71 29
72 29
73 48
74 72
75 88
76 29
77 209
78 83
79 84
80 78
81 62
82 42
83 327
84 79
85 22
86 32
87 26
89 2
91 134
92 103
93 95
94 48
95 62
96 28
97 14
98 37
102 15
103 20
104 54
105 66
106 89
107 68
108 44
109 77
110 19
111 61
112 38
113 12
115 57
117 12
118 132
119 132
120 112
121 87
122 51
123 52
124 55
125 39
126 36
127 4
129 27
130 17
131 60
132 110
133 86
134 81
135 44
136 11
137 74
139 14
140 2
144 41
145 63
146 168
147 117
148 44
149 18
153 24
154 5
157 0
158 73
159 0
160 17
161 13
165 17
167 31
168 76
170 20
171 54
172 55
174 19
176 30
177 36
178 6
180 12
181 13
182 24
183 72
184 112
185 107
186 5
195 5
197 82
198 14
199 103
202 126
210 3
211 62
212 34
213 150
214 112
223 35
224 60
225 72
229 16
238 144
239 180
240 101
241 168
242 71
243 19
247 7
250 5
251 5
252 31
253 108
268 1
269 22
304 37
306 7
311 33
332 10
333 201
334 76
335 10

$$$$

     RDKit          2D

 26 27  0  0  0  0  0  0  0  0999 V2000
  -14.2912    1.5019    0.0000 C   0  0  0  0  0  0  0  0  0  0  0  0
    6.4970    1.5006    0.0000 C   0  0  0  0  0  0  0  0  0  0  0  0
   -3.8989   -1.5002    0.0000 C   0  0  0  0  0  0  0  0  0  0  0  0
   -0.0010   -3.7500    0.0000 C   0  0  0  0  0  0  0  0  0  0  0  0
  -12.9923    0.7517    0.0000 C   0  0  0  0  0  0  0  0  0  0  0  0
    5.1981    0.7504    0.0000 C   0  0  0  0  0  0  0  0  0  0  0  0
  -11.6931    1.5015    0.0000 C   0  0  0  0  0  0  0  0  0  0  0  0
  -10.3942    0.7512    0.0000 C   0  0  0  0  0  0  0  0  0  0  0  0
   -9.0951    1.5010    0.0000 C   0  0  0  0  0  0  0  0  0  0  0  0
   -7.7962    0.7508    0.0000 C   0  0  0  0  0  0  0  0  0  0  0  0
    3.8989    1.5002    0.0000 C   0  0  0  0  0  0  0  0  0  0  0  0
   -6.4970    1.5006    0.0000 C   0  0  0  0  0  0  0  0  0  0  0  0
   -1.3000    1.5000    0.0000 C   0  0  0  0  0  0  0  0  0  0  0  0
    1.3000    1.5000    0.0000 C   0  0  0  0  0  0  0  0  0  0  0  0
   -3.8989    1.5002    0.0000 C   0  0  0  0  0  0  0  0  0  0  0  0
    1.3000   -1.5000    0.0000 C   0  0  0  0  0  0  0  0  0  0  0  0
   -2.6000   -0.7500    0.0000 C   0  0  0  0  0  0  0  0  0  0  0  0
   -2.6000    0.7500    0.0000 C   0  0  0  0  0  0  0  0  0  0  0  0
    0.0000    0.7500    0.0000 C   0  0  0  0  0  0  0  0  0  0  0  0
    2.6000    0.7500    0.0000 C   0  0  0  0  0  0  0  0  0  0  0  0
   -5.1981    0.7504    0.0000 C   0  0  0  0  0  0  0  0  0  0  0  0
    0.0000   -0.7500    0.0000 C   0  0  0  0  0  0  0  0  0  0  0  0
   -1.3000   -1.5000    0.0000 C   0  0  0  0  0  0  0  0  0  0  0  0
    2.6000   -0.7500    0.0000 N   0  0  0  0  0  0  0  0  0  0  0  0
   -5.1983   -0.7496    0.0000 O   0  0  0  0  0  0  0  0  0  0  0  0
   -1.3000   -3.0000    0.0000 O   0  0  0  0  0  0  0  0  0  0  0  0
  5  1  1  0
  6  2  1  0
  7  5  1  0
  8  7  1  0
  9  8  1  0
 10  9  1  0
  6 11  2  0
 12 10  1  0
 17  3  1  0
 18 13  2  0
 18 15  1  0
 18 17  1  0
 19 13  1  0
 19 14  2  0
 20 11  1  0
 20 14  1  0
 21 12  1  0
 21 15  1  0
 22 16  2  0
 22 19  1  0
 23 17  2  0
 23 22  1  0
 24 16  1  0
 24 20  2  0
 25 21  2  0
 26  4  1  0
 26 23  1  0
M  END
>  <NAME>  (4666) 
MONASCAMINONE METHYL ETHER

>  <SYNONYMS>  (4666) 


>  <SPECTRUM TYPE>  (4666) 
MS1

>  <INSTRUMENT TYPE>  (4666) 
EI-B

>  <INSTRUMENT>  (4666) 
HITACHI RMU-7

>  <ION MODE>  (4666) 
P

>  <INCHIKEY>  (4666) 
UGZSQZOGEOKORF-IZZDOVSWSA-N

>  <FORMULA>  (4666) 
C23H31NO2

>  <EXACT MASS>  (4666) 
353.235479232

>  <MW>  (4666) 
353

>  <ID>  (4666) 
JP003240

>  <CONTRIBUTOR>  (4666) 
University of Tokyo Team, {Faculty of Engineering, University of Tokyo

>  <COMMENT>  (4666) 
SMILES=CCCCCCCC(=O)Cc(c1)c(C)c(OC)c(c2)c(cc(C=CC)n2)1
InChI=InChI=1S/C23H31NO2/c1-5-7-8-9-10-12-21(25)15-18-13-19-14-20(11-6-2)24-16-22(19)23(26-4)17(18)3/h6,11,13-14,16H,5,7-10,12,15H2,1-4H3/b11-6+
computed SMILES=O=C(CC=1C=C2C=C(N=CC2=C(OC)C1C)C=CC)CCCCCCC
accession=JP003240
date=2016.01.19 (Created 2008.10.21, modified 2011.05.06)
author=MASS SPECTROSCOPY SOC. OF JAPAN (MSSJ)
license=CC BY-NC-SA
exact mass=353.23548
ionization energy=70 eV
ion type=[M]+*
computed spectral entropy=2.361084583004916
computed normalized entropy=0.8333592625342611
SPLASH=splash10-0h00-0293000000-00817fe370f2700af96b
submitter=submitter = University of Tokyo Team (Faculty of Engineering, University of Tokyo)
MoNA Rating=3.75

>  <NUM PEAKS>  (4666) 
17

>  <MASS SPECTRAL PEAKS>  (4666) 
127 7
167 5
168 5
180 6
181 12
182 7
196 9
197 15
198 16
210 19
212 73
213 15
226 35
227 99.99
228 18
353 88
354 24

>  <PREDICTED SPECTRUM>  (4666) 
41 105
43 39
55 78
57 100
69 75
77 26
83 38
91 12
104 1
121 22
132 31
152 66
153 45
154 39
155 23
160 80
164 4
166 116
167 131
168 77
170 45
171 5
175 8
179 19
180 164
181 152
182 274
183 77
184 150
185 12
195 90
196 283
197 262
198 498
199 239
200 100
209 66
210 405
211 174
212 728
213 466
214 121
226 997
227 999
228 442
229 89
338 105
352 92
353 905
354 430
355 103

$$$$

     RDKit          2D

 28 30  0  0  1  0  0  0  0  0999 V2000
    9.1496    8.9173    0.0000 C   0  0  0  0  0  0  0  0  0  0  0  0
   -9.0933    2.2500    0.0000 C   0  0  0  0  0  0  0  0  0  0  0  0
    0.1568   -1.4918    0.0000 C   0  0  0  0  0  0  0  0  0  0  0  0
    7.6824    8.6055    0.0000 C   0  0  0  0  0  0  0  0  0  0  0  0
   -7.7942    1.5000    0.0000 C   0  0  0  0  0  0  0  0  0  0  0  0
    7.2188    7.1789    0.0000 C   0  0  0  0  0  0  0  0  0  0  0  0
    5.7516    6.8670    0.0000 C   0  0  0  0  0  0  0  0  0  0  0  0
    5.2881    5.4404    0.0000 C   0  0  0  0  0  0  0  0  0  0  0  0
    3.8209    5.1286    0.0000 C   0  0  0  0  0  0  0  0  0  0  0  0
   -6.4952    2.2500    0.0000 C   0  0  0  0  0  0  0  0  0  0  0  0
    3.3573    3.7020    0.0000 C   0  0  0  0  0  0  0  0  0  0  0  0
   -3.8971    2.2500    0.0000 C   0  0  0  0  0  0  0  0  0  0  0  0
   -1.2990    2.2500    0.0000 C   0  0  0  0  0  0  0  0  0  0  0  0
   -3.8971   -0.7500    0.0000 C   0  0  0  0  0  0  0  0  0  0  0  0
   -2.5981    1.5000    0.0000 C   0  0  0  0  0  0  0  0  0  0  0  0
   -5.1962    1.5000    0.0000 C   0  0  0  0  0  0  0  0  0  0  0  0
   -2.5981    0.0000    0.0000 C   0  0  0  0  0  0  0  0  0  0  0  0
   -0.0000    1.5000    0.0000 C   0  0  0  0  0  0  0  0  0  0  0  0
    1.8901    3.3901    0.0000 C   0  0  0  0  0  0  0  0  0  0  0  0
    1.4266    1.9635    0.0000 C   0  0  0  0  0  0  0  0  0  0  0  0
   -1.2990   -0.7500    0.0000 C   0  0  0  0  0  0  0  0  0  0  0  0
    2.3083    0.7500    0.0000 C   0  0  0  0  0  0  0  0  0  0  0  0
   -0.0000    0.0000    0.0000 C   0  0  0  0  0  0  0  0  0  0  0  0
    0.8864    4.5048    0.0000 O   0  0  0  0  0  0  0  0  0  0  0  0
   -1.2990   -2.2500    0.0000 O   0  0  0  0  0  0  0  0  0  0  0  0
    3.8083    0.7500    0.0000 O   0  0  0  0  0  0  0  0  0  0  0  0
   -5.1962    0.0000    0.0000 O   0  0  0  0  0  0  0  0  0  0  0  0
    1.4266   -0.4635    0.0000 O   0  0  0  0  0  0  0  0  0  0  0  0
  4  1  1  0
  5  2  1  0
  6  4  1  0
  7  6  1  0
  8  7  1  0
  9  8  1  0
  5 10  2  0
 11  9  1  0
 15 12  1  0
 15 13  2  0
 16 10  1  0
 16 12  2  0
 17 14  2  0
 17 15  1  0
 18 13  1  0
 19 11  1  0
 20 18  2  0
 20 19  1  0
 21 17  1  0
 22 20  1  0
 23  3  1  6
 23 18  1  0
 23 21  1  0
 24 19  2  0
 25 21  2  0
 26 22  2  0
 27 14  1  0
 27 16  1  0
 28 22  1  0
 28 23  1  0
M  END
>  <NAME>  (4667) 
MONASCORUBRIN

>  <SYNONYMS>  (4667) 


>  <SPECTRUM TYPE>  (4667) 
MS1

>  <INSTRUMENT TYPE>  (4667) 
EI-B

>  <INSTRUMENT>  (4667) 
HITACHI RMU-7

>  <ION MODE>  (4667) 
P

>  <INCHIKEY>  (4667) 
IIPVSGPTPPURBD-HAOIVFDCSA-N

>  <FORMULA>  (4667) 
C23H26O5

>  <EXACT MASS>  (4667) 
382.178023932

>  <MW>  (4667) 
382

>  <ID>  (4667) 
JP003238

>  <CONTRIBUTOR>  (4667) 
University of Tokyo Team, {Faculty of Engineering, University of Tokyo

>  <COMMENT>  (4667) 
SMILES=CCCCCCCC(=O)C(C(=O)3)=C(C=1)C(C)(O3)C(=O)C(=C2)C(C=C(C=CC)O2)1
InChI=InChI=1S/C23H26O5/c1-4-6-7-8-9-11-19(24)20-18-13-15-12-16(10-5-2)27-14-17(15)21(25)23(18,3)28-22(20)26/h5,10,12-14H,4,6-9,11H2,1-3H3/b10-5+/t23-/m1/s1
computed SMILES=O=C1OC2(C(=O)C3=COC(C=CC)=CC3=CC2=C1C(=O)CCCCCCC)C
accession=JP003238
date=2016.01.19 (Created 2008.10.21, modified 2011.05.06)
author=MASS SPECTROSCOPY SOC. OF JAPAN (MSSJ)
license=CC BY-NC-SA
exact mass=382.17802
ionization energy=70 eV
ion type=[M]+*
computed spectral entropy=2.1201766700328406
computed normalized entropy=0.8841823469456906
SPLASH=splash10-052b-0090000000-4abc5d80beb675283766
submitter=submitter = University of Tokyo Team (Faculty of Engineering, University of Tokyo)
MoNA Rating=3.75

>  <NUM PEAKS>  (4667) 
11

>  <MASS SPECTRAL PEAKS>  (4667) 
200 19
213 38
215 38
255 34
256 56
257 11
283 20
298 99.99
299 18
339 8
382 9

>  <PREDICTED SPECTRUM>  (4667) 
53 31
55 78
57 151
69 131
77 87
83 109
85 7
105 82
117 65
119 83
129 41
130 0
133 7
157 12
159 0
171 54
172 8
173 7
185 101
186 0
187 41
188 8
195 62
199 105
200 219
201 108
213 405
214 238
215 386
216 18
227 0
241 9
255 625
256 721
257 304
265 33
266 33
283 255
298 999
299 409
311 29
339 55
382 204
383 38

$$$$

     RDKit          2D

 10 10  0  0  0  0  0  0  0  0999 V2000
    0.0004    1.5008    0.0000 C   0  0  0  0  0  0  0  0  0  0  0  0
    2.5986    1.5006    0.0000 C   0  0  0  0  0  0  0  0  0  0  0  0
   -0.0006   -1.5009    0.0000 C   0  0  0  0  0  0  0  0  0  0  0  0
    1.2994    0.7508    0.0000 C   0  0  0  0  0  0  0  0  0  0  0  0
   -1.2991    0.7499    0.0000 C   0  0  0  0  0  0  0  0  0  0  0  0
   -1.2996   -0.7509    0.0000 C   0  0  0  0  0  0  0  0  0  0  0  0
    3.8975    0.7504    0.0000 O   0  0  0  0  0  0  0  0  0  0  0  0
   -2.5982    1.4999    0.0000 O   0  0  0  0  0  0  0  0  0  0  0  0
   -2.5988   -1.5007    0.0000 O   0  0  0  0  0  0  0  0  0  0  0  0
    1.2989   -0.7501    0.0000 O   0  0  0  0  0  0  0  0  0  0  0  0
  4  1  2  0
  4  2  1  0
  5  1  1  0
  6  3  2  0
  6  5  1  0
  7  2  1  0
  8  5  2  0
  9  6  1  0
 10  3  1  0
 10  4  1  0
M  END
>  <NAME>  (4668) 
KOJIC ACID

>  <SYNONYMS>  (4668) 


>  <SPECTRUM TYPE>  (4668) 
MS1

>  <INSTRUMENT TYPE>  (4668) 
EI-B

>  <INSTRUMENT>  (4668) 
HITACHI RMU-6E

>  <ION MODE>  (4668) 
P

>  <INCHIKEY>  (4668) 
BEJNERDRQOWKJM-UHFFFAOYSA-N

>  <FORMULA>  (4668) 
C6H6O4

>  <EXACT MASS>  (4668) 
142.026608672

>  <MW>  (4668) 
142

>  <ID>  (4668) 
JP003237

>  <CONTRIBUTOR>  (4668) 
University of Tokyo Team, {Faculty of Engineering, University of Tokyo

>  <COMMENT>  (4668) 
SMILES=OCC(O1)=CC(=O)C(O)=C1
InChI=InChI=1S/C6H6O4/c7-2-4-1-5(8)6(9)3-10-4/h1,3,7,9H,2H2
computed SMILES=O=C1C=C(OC=C1O)CO
accession=JP003237
date=2016.01.19 (Created 2008.10.21, modified 2011.05.06)
author=MASS SPECTROSCOPY SOC. OF JAPAN (MSSJ)
license=CC BY-NC-SA
exact mass=142.02661
ionization energy=70 eV
ion type=[M]+*
computed spectral entropy=2.0906257965251682
computed normalized entropy=0.907947247155471
SPLASH=splash10-00ko-9500000000-8c8ed21581e5ce62d657
submitter=submitter = University of Tokyo Team (Faculty of Engineering, University of Tokyo)
MoNA Rating=3.75

>  <NUM PEAKS>  (4668) 
10

>  <MASS SPECTRAL PEAKS>  (4668) 
29 52
39 40
55 19
57 30
69 72
85 22
97 15
113 34
140 10
142 99.99

>  <PREDICTED SPECTRUM>  (4668) 
14 48
15 31
16 17
19 3
25 79
26 181
27 299
28 181
29 494
30 175
31 275
33 21
34 3
36 121
37 370
38 579
39 980
40 659
41 693
42 399
43 517
44 223
45 146
49 162
50 178
51 259
52 247
53 591
54 256
55 372
56 105
57 320
58 106
61 70
66 341
67 705
68 796
69 491
70 158
71 143
81 22
82 7
83 247
84 213
85 495
86 329
95 149
96 468
97 427
98 81
99 8
111 55
112 5
113 341
114 152
124 542
125 193
141 46
142 999
143 236

$$$$

     RDKit          2D

 17 17  0  0  0  0  0  0  0  0999 V2000
    2.5882    1.0275    0.0000 C   0  0  0  0  0  0  0  0  0  0  0  0
   -7.3046   -0.8133    0.0000 C   0  0  0  0  0  0  0  0  0  0  0  0
   -1.3099    3.2758    0.0000 C   0  0  0  0  0  0  0  0  0  0  0  0
   -4.6619    3.7491    0.0000 C   0  0  0  0  0  0  0  0  0  0  0  0
    1.2895    0.2769    0.0000 C   0  0  0  0  0  0  0  0  0  0  0  0
   -3.9066    0.2746    0.0000 C   0  0  0  0  0  0  0  0  0  0  0  0
   -6.9921    0.6538    0.0000 C   0  0  0  0  0  0  0  0  0  0  0  0
   -2.6086    2.5252    0.0000 C   0  0  0  0  0  0  0  0  0  0  0  0
   -5.7791    2.7482    0.0000 C   0  0  0  0  0  0  0  0  0  0  0  0
   -5.6218    1.2639    0.0000 C   0  0  0  0  0  0  0  0  0  0  0  0
   -2.6079    1.0252    0.0000 C   0  0  0  0  0  0  0  0  0  0  0  0
   -1.3086    0.2758    0.0000 C   0  0  0  0  0  0  0  0  0  0  0  0
   -7.9899    1.7639    0.0000 N   0  0  0  0  0  0  0  0  0  0  0  0
   -3.9080    3.2746    0.0000 O   0  0  0  0  0  0  0  0  0  0  0  0
   -1.3079   -1.2242    0.0000 O   0  0  0  0  0  0  0  0  0  0  0  0
   -0.0098    1.0263    0.0000 O   0  0  0  0  0  0  0  0  0  0  0  0
   -7.2465    3.0691    0.0000 O   0  0  0  0  0  0  0  0  0  0  0  0
  5  1  1  0
  7  2  1  0
  8  3  1  0
  9  4  1  0
 10  6  1  0
 10  7  1  0
 10  9  2  0
 11  6  1  0
 11  8  1  0
 12 11  1  0
 13  7  2  0
 14  8  2  0
 15 12  2  0
 16  5  1  0
 16 12  1  0
 17  9  1  0
 17 13  1  0
M  END
>  <NAME>  (4669) 
4-(2-ACETYL-2-ETHOXYCARBONYL)ETHYL-3,5-DIMETHYLISOXAZOLE

>  <SYNONYMS>  (4669) 


>  <SPECTRUM TYPE>  (4669) 
MS1

>  <INSTRUMENT TYPE>  (4669) 
EI-B

>  <INSTRUMENT>  (4669) 
HITACHI RMU-6E

>  <ION MODE>  (4669) 
P

>  <INCHIKEY>  (4669) 
FIBMBTXPEDJQQP-UHFFFAOYSA-N

>  <FORMULA>  (4669) 
C12H17NO4

>  <EXACT MASS>  (4669) 
239.11575802399997

>  <MW>  (4669) 
239

>  <ID>  (4669) 
JP003236

>  <CONTRIBUTOR>  (4669) 
University of Tokyo Team, {Faculty of Engineering, University of Tokyo

>  <COMMENT>  (4669) 
SMILES=CCOC(=O)C(C(C)=O)Cc(c(C)1)c(C)on1
InChI=InChI=1S/C12H17NO4/c1-5-16-12(15)11(8(3)14)6-10-7(2)13-17-9(10)4/h11H,5-6H2,1-4H3
computed SMILES=O=C(OCC)C(C(=O)C)CC=1C(=NOC1C)C
accession=JP003236
date=2016.01.19 (Created 2008.10.21, modified 2011.05.06)
author=MASS SPECTROSCOPY SOC. OF JAPAN (MSSJ)
license=CC BY-NC-SA
exact mass=239.11576
ionization energy=70 eV
ion type=[M]+*
computed spectral entropy=1.8267682864183088
computed normalized entropy=0.8784898492229746
SPLASH=splash10-0296-9700000000-da0c6e7aa5ef2a9435fb
submitter=submitter = University of Tokyo Team (Faculty of Engineering, University of Tokyo)
MoNA Rating=3.75

>  <NUM PEAKS>  (4669) 
8

>  <MASS SPECTRAL PEAKS>  (4669) 
42 23
43 99.99
68 58
110 72
124 21
166 17
196 36
239 7

>  <PREDICTED SPECTRUM>  (4669) 
14 24
15 79
26 13
27 26
28 34
29 115
31 17
38 82
39 281
40 204
41 390
42 205
43 999
44 84
45 262
46 35
50 77
51 158
52 256
53 320
54 271
55 299
56 162
57 103
59 48
63 11
64 9
65 109
66 207
67 306
68 342
69 227
70 178
71 77
73 101
76 14
77 57
78 41
80 204
81 222
82 311
83 177
84 99
85 6
93 3
94 272
95 289
96 372
97 234
98 185
99 64
101 18
102 10
106 19
107 39
108 427
109 528
110 608
111 154
112 196
122 374
123 273
124 408
125 116
126 181
134 34
135 53
136 239
137 86
138 67
140 116
150 693
151 522
152 360
153 145
154 110
164 180
165 72
166 362
167 123
168 310
169 45
178 199
182 119
183 26
193 23
194 168
195 27
196 770
197 384
198 193
224 67
239 280
240 103

$$$$

     RDKit          2D

 19 21  0  0  0  0  0  0  0  0999 V2000
    6.4236    2.4733    0.0000 C   0  0  0  0  0  0  0  0  0  0  0  0
    3.7969   -2.0983    0.0000 C   0  0  0  0  0  0  0  0  0  0  0  0
   -3.0200   -1.1200    0.0000 C   0  0  0  0  0  0  0  0  0  0  0  0
   -3.0200    0.3600    0.0000 C   0  0  0  0  0  0  0  0  0  0  0  0
   -1.7200   -1.8800    0.0000 C   0  0  0  0  0  0  0  0  0  0  0  0
   -1.7500    1.1100    0.0000 C   0  0  0  0  0  0  0  0  0  0  0  0
    0.8800   -1.8800    0.0000 C   0  0  0  0  0  0  0  0  0  0  0  0
    2.1700   -1.1200    0.0000 C   0  0  0  0  0  0  0  0  0  0  0  0
    3.4461    1.1351    0.0000 C   0  0  0  0  0  0  0  0  0  0  0  0
    6.1162    1.0052    0.0000 C   0  0  0  0  0  0  0  0  0  0  0  0
    4.9106   -1.0935    0.0000 C   0  0  0  0  0  0  0  0  0  0  0  0
   -0.4200   -1.1200    0.0000 C   0  0  0  0  0  0  0  0  0  0  0  0
    2.1500    0.3800    0.0000 C   0  0  0  0  0  0  0  0  0  0  0  0
   -0.4200    0.3600    0.0000 C   0  0  0  0  0  0  0  0  0  0  0  0
    4.7481    0.3903    0.0000 C   0  0  0  0  0  0  0  0  0  0  0  0
    0.8500    1.1400    0.0000 C   0  0  0  0  0  0  0  0  0  0  0  0
    7.1179   -0.1015    0.0000 N   0  0  0  0  0  0  0  0  0  0  0  0
    0.8337    2.6399    0.0000 O   0  0  0  0  0  0  0  0  0  0  0  0
    6.3791   -1.4093    0.0000 O   0  0  0  0  0  0  0  0  0  0  0  0
  4  3  2  0
  5  3  1  0
  6  4  1  0
  8  7  1  0
 10  1  1  0
 11  2  1  0
 12  5  2  0
 12  7  1  0
 13  8  1  0
 13  9  1  0
 14  6  2  0
 14 12  1  0
 15  9  1  0
 15 10  1  0
 15 11  2  0
 16 13  1  0
 16 14  1  0
 17 10  2  0
 18 16  2  0
 19 11  1  0
 19 17  1  0
M  END
>  <NAME>  (4670) 
3,5-DIMETHYL-4-(2'-TETRALOYL)METHYL-ISOXAZOLE

>  <SYNONYMS>  (4670) 


>  <SPECTRUM TYPE>  (4670) 
MS1

>  <INSTRUMENT TYPE>  (4670) 
EI-B

>  <INSTRUMENT>  (4670) 
HITACHI RMU-6E

>  <ION MODE>  (4670) 
P

>  <INCHIKEY>  (4670) 
ZOWAUHGAZHGGNP-UHFFFAOYSA-N

>  <FORMULA>  (4670) 
C16H17NO2

>  <EXACT MASS>  (4670) 
255.125928784

>  <MW>  (4670) 
255

>  <ID>  (4670) 
JP003235

>  <CONTRIBUTOR>  (4670) 
University of Tokyo Team, {Faculty of Engineering, University of Tokyo

>  <COMMENT>  (4670) 
SMILES=Cc(n3)c(c(C)o3)CC(C1)C(=O)c(c2)c(ccc2)C1
InChI=InChI=1S/C16H17NO2/c1-10-15(11(2)19-17-10)9-13-8-7-12-5-3-4-6-14(12)16(13)18/h3-6,13H,7-9H2,1-2H3
computed SMILES=O=C1C=2C=CC=CC2CCC1CC=3C(=NOC3C)C
accession=JP003235
date=2016.01.19 (Created 2008.10.21, modified 2011.05.06)
author=MASS SPECTROSCOPY SOC. OF JAPAN (MSSJ)
license=CC BY-NC-SA
exact mass=255.12593
ionization energy=70 eV
ion type=[M]+*
computed spectral entropy=1.8430883372718077
computed normalized entropy=0.8863381347007742
SPLASH=splash10-03dl-8940000000-2d21847a39cab190e672
submitter=submitter = University of Tokyo Team (Faculty of Engineering, University of Tokyo)
MoNA Rating=3.75

>  <NUM PEAKS>  (4670) 
8

>  <MASS SPECTRAL PEAKS>  (4670) 
41 3
42 12
43 58
68 64
110 99.99
146 46
212 29
255 45

>  <PREDICTED SPECTRUM>  (4670) 
33 31
34 11
36 0
37 9
38 53
39 288
40 169
41 241
42 265
43 999
44 176
45 70
50 173
51 300
52 188
53 274
54 195
55 220
56 135
57 10
61 26
62 118
63 282
64 132
65 212
66 92
67 244
68 260
69 288
70 145
71 24
74 49
75 119
76 161
77 287
78 141
79 107
80 16
81 160
82 171
83 195
84 93
85 26
87 45
88 34
89 373
90 223
91 326
92 55
93 15
95 189
96 300
97 173
98 7
101 76
102 252
103 162
104 168
105 20
109 209
110 212
111 106
113 27
114 68
115 783
116 497
117 544
118 394
119 138
121 44
123 75
124 55
125 12
126 2
127 164
128 360
129 217
130 382
131 303
132 74
136 37
137 131
138 133
139 210
140 47
141 65
142 129
143 177
144 467
145 340
146 383
147 114
151 11
152 22
153 42
154 83
157 221
158 195
159 152
160 80
168 33
169 66
170 123
171 210
172 198
174 100
180 115
182 42
183 77
184 195
185 137
186 47
198 105
199 19
210 19
212 556
213 264
214 119
226 10
240 200
241 75
254 51
255 824
256 321
257 89

$$$$

     RDKit          2D

 15 15  0  0  0  0  0  0  0  0999 V2000
    2.0245    2.3516    0.0000 C   0  0  0  0  0  0  0  0  0  0  0  0
   -7.4526    0.2709    0.0000 C   0  0  0  0  0  0  0  0  0  0  0  0
   -4.8099    4.8334    0.0000 C   0  0  0  0  0  0  0  0  0  0  0  0
   -3.1717    2.3493    0.0000 C   0  0  0  0  0  0  0  0  0  0  0  0
   -4.4704    1.5987    0.0000 C   0  0  0  0  0  0  0  0  0  0  0  0
   -0.5736    2.3504    0.0000 C   0  0  0  0  0  0  0  0  0  0  0  0
    0.7258    1.6010    0.0000 C   0  0  0  0  0  0  0  0  0  0  0  0
   -7.1401    1.7380    0.0000 C   0  0  0  0  0  0  0  0  0  0  0  0
   -5.9271    3.8324    0.0000 C   0  0  0  0  0  0  0  0  0  0  0  0
   -1.8723    1.5998    0.0000 C   0  0  0  0  0  0  0  0  0  0  0  0
   -5.7697    2.3481    0.0000 C   0  0  0  0  0  0  0  0  0  0  0  0
   -8.1379    2.8481    0.0000 N   0  0  0  0  0  0  0  0  0  0  0  0
    0.7264    0.1010    0.0000 O   0  0  0  0  0  0  0  0  0  0  0  0
   -1.8716    0.0998    0.0000 O   0  0  0  0  0  0  0  0  0  0  0  0
   -7.3945    4.1534    0.0000 O   0  0  0  0  0  0  0  0  0  0  0  0
  5  4  1  0
  7  1  1  0
  7  6  1  0
  8  2  1  0
  9  3  1  0
 10  4  1  0
 10  6  1  0
 11  5  1  0
 11  8  1  0
 11  9  2  0
 12  8  2  0
 13  7  2  0
 14 10  2  0
 15  9  1  0
 15 12  1  0
M  END
>  <NAME>  (4671) 
3,5-DIMETHYL-4-(3'-ACETYLACETONYL)METHYL-ISOXAZOLE

>  <SYNONYMS>  (4671) 


>  <SPECTRUM TYPE>  (4671) 
MS1

>  <INSTRUMENT TYPE>  (4671) 
EI-B

>  <INSTRUMENT>  (4671) 
HITACHI RMU-6E

>  <ION MODE>  (4671) 
P

>  <INCHIKEY>  (4671) 
WNVHQAUBCONYFK-UHFFFAOYSA-N

>  <FORMULA>  (4671) 
C11H15NO3

>  <EXACT MASS>  (4671) 
209.10519334

>  <MW>  (4671) 
209

>  <ID>  (4671) 
JP003234

>  <CONTRIBUTOR>  (4671) 
University of Tokyo Team, {Faculty of Engineering, University of Tokyo

>  <COMMENT>  (4671) 
SMILES=CC(=O)CC(=O)CCc(c(C)1)c(C)on1
InChI=InChI=1S/C11H15NO3/c1-7(13)6-10(14)4-5-11-8(2)12-15-9(11)3/h4-6H2,1-3H3
computed SMILES=O=C(C)CC(=O)CCC=1C(=NOC1C)C
accession=JP003234
date=2016.01.19 (Created 2008.10.21, modified 2011.05.06)
author=MASS SPECTROSCOPY SOC. OF JAPAN (MSSJ)
license=CC BY-NC-SA
exact mass=209.10519
ionization energy=70 eV
ion type=[M]+*
computed spectral entropy=1.7157449473772373
computed normalized entropy=0.825098909003812
SPLASH=splash10-014l-9700000000-9a7f65e4eb22c9426217
submitter=submitter = University of Tokyo Team (Faculty of Engineering, University of Tokyo)
MoNA Rating=3.75

>  <NUM PEAKS>  (4671) 
8

>  <MASS SPECTRAL PEAKS>  (4671) 
41 9
42 9
43 99.99
68 45
110 41
124 24
166 73
209 3

>  <PREDICTED SPECTRUM>  (4671) 
14 1
15 14
38 7
39 135
40 104
41 227
42 138
43 911
44 5
51 62
52 62
53 119
54 41
55 137
56 60
65 12
66 26
67 100
68 223
69 164
71 108
80 14
81 24
82 233
84 46
94 29
96 66
97 62
108 27
110 540
111 195
112 22
122 19
124 455
125 113
152 73
166 999
167 219
209 174
210 30

$$$$

     RDKit          2D

 15 16  0  0  0  0  0  0  0  0999 V2000
    1.1640    4.4706    0.0000 C   0  0  0  0  0  0  0  0  0  0  0  0
   -4.1085    4.4585    0.0000 C   0  0  0  0  0  0  0  0  0  0  0  0
   -5.3739    1.7982    0.0000 C   0  0  0  0  0  0  0  0  0  0  0  0
   -5.3735    0.2982    0.0000 C   0  0  0  0  0  0  0  0  0  0  0  0
   -4.0742    2.5486    0.0000 C   0  0  0  0  0  0  0  0  0  0  0  0
   -4.0733   -0.4514    0.0000 C   0  0  0  0  0  0  0  0  0  0  0  0
   -1.4752    2.5495    0.0000 C   0  0  0  0  0  0  0  0  0  0  0  0
   -0.2632    4.9323    0.0000 C   0  0  0  0  0  0  0  0  0  0  0  0
   -2.6835    4.9269    0.0000 C   0  0  0  0  0  0  0  0  0  0  0  0
   -2.7739    1.7989    0.0000 C   0  0  0  0  0  0  0  0  0  0  0  0
   -1.4759    4.0495    0.0000 C   0  0  0  0  0  0  0  0  0  0  0  0
   -2.7735    0.2989    0.0000 C   0  0  0  0  0  0  0  0  0  0  0  0
   -0.7269    6.3510    0.0000 N   0  0  0  0  0  0  0  0  0  0  0  0
   -1.4744   -0.4509    0.0000 O   0  0  0  0  0  0  0  0  0  0  0  0
   -2.2290    6.3585    0.0000 O   0  0  0  0  0  0  0  0  0  0  0  0
  4  3  1  0
  5  3  1  0
  6  4  1  0
  8  1  1  0
  9  2  1  0
 10  5  1  0
 10  7  1  0
 11  7  1  0
 11  8  1  0
 11  9  2  0
 12  6  1  0
 12 10  1  0
 13  8  2  0
 14 12  2  0
 15  9  1  0
 15 13  1  0
M  END
>  <NAME>  (4672) 
3,5-DIMETHYL-4-(2'-CYCLOHEXANOYL)METHYL-ISOXAZOLE

>  <SYNONYMS>  (4672) 


>  <SPECTRUM TYPE>  (4672) 
MS1

>  <INSTRUMENT TYPE>  (4672) 
EI-B

>  <INSTRUMENT>  (4672) 
HITACHI RMU-6E

>  <ION MODE>  (4672) 
P

>  <INCHIKEY>  (4672) 
OJARMPVCHPMKQI-UHFFFAOYSA-N

>  <FORMULA>  (4672) 
C12H17NO2

>  <EXACT MASS>  (4672) 
207.125928784

>  <MW>  (4672) 
207

>  <ID>  (4672) 
JP003233

>  <CONTRIBUTOR>  (4672) 
University of Tokyo Team, {Faculty of Engineering, University of Tokyo

>  <COMMENT>  (4672) 
SMILES=O=C(C2)C(CCC2)Cc(c(C)1)c(C)on1
InChI=InChI=1S/C12H17NO2/c1-8-11(9(2)15-13-8)7-10-5-3-4-6-12(10)14/h10H,3-7H2,1-2H3
computed SMILES=O=C1CCCCC1CC=2C(=NOC2C)C
accession=JP003233
date=2016.01.19 (Created 2008.10.21, modified 2011.05.06)
author=MASS SPECTROSCOPY SOC. OF JAPAN (MSSJ)
license=CC BY-NC-SA
exact mass=207.12593
ionization energy=70 eV
ion type=[M]+*
computed spectral entropy=1.622902243639514
computed normalized entropy=0.7804510062487664
SPLASH=splash10-03di-9810000000-29b48474d9e30ac4b815
submitter=submitter = University of Tokyo Team (Faculty of Engineering, University of Tokyo)
MoNA Rating=3.75

>  <NUM PEAKS>  (4672) 
8

>  <MASS SPECTRAL PEAKS>  (4672) 
41 2
42 10
43 35
68 46
95 17
110 99.99
164 4
207 23

>  <PREDICTED SPECTRUM>  (4672) 
39 79
40 53
41 116
42 140
43 338
51 11
52 18
53 67
54 123
55 120
56 35
65 22
67 35
68 285
69 101
80 11
82 217
83 126
91 0
95 233
96 112
97 171
98 262
108 16
110 999
111 301
123 32
124 65
150 189
164 253
165 93
192 35
207 432
208 145
209 12

$$$$

     RDKit          2D

  9  9  0  0  0  0  0  0  0  0999 V2000
   -3.4605    1.6603    0.0000 C   0  0  0  0  0  0  0  0  0  0  0  0
    1.3532   -0.4911    0.0000 C   0  0  0  0  0  0  0  0  0  0  0  0
   -1.8282   -1.1668    0.0000 C   0  0  0  0  0  0  0  0  0  0  0  0
   -1.9687    1.5028    0.0000 C   0  0  0  0  0  0  0  0  0  0  0  0
    0.2410    0.5154    0.0000 C   0  0  0  0  0  0  0  0  0  0  0  0
   -1.2187    0.2038    0.0000 C   0  0  0  0  0  0  0  0  0  0  0  0
   -0.9690    2.6112    0.0000 N   0  0  0  0  0  0  0  0  0  0  0  0
   -0.9460   -2.3800    0.0000 O   0  0  0  0  0  0  0  0  0  0  0  0
    0.4068    2.0083    0.0000 O   0  0  0  0  0  0  0  0  0  0  0  0
  4  1  1  0
  5  2  1  0
  6  3  1  0
  6  4  1  0
  6  5  2  0
  7  4  2  0
  8  3  1  0
  9  5  1  0
  9  7  1  0
M  END
>  <NAME>  (4673) 
3,5-DIMETHYL-4-HYDROXYMETHYL-ISOXAZOLE

>  <SYNONYMS>  (4673) 


>  <SPECTRUM TYPE>  (4673) 
MS1

>  <INSTRUMENT TYPE>  (4673) 
EI-B

>  <INSTRUMENT>  (4673) 
HITACHI RMU-6E

>  <ION MODE>  (4673) 
P

>  <INCHIKEY>  (4673) 
JISPGFYJPXGNBY-UHFFFAOYSA-N

>  <FORMULA>  (4673) 
C6H9NO2

>  <EXACT MASS>  (4673) 
127.063328528

>  <MW>  (4673) 
127

>  <ID>  (4673) 
JP003232

>  <CONTRIBUTOR>  (4673) 
University of Tokyo Team, {Faculty of Engineering, University of Tokyo

>  <COMMENT>  (4673) 
SMILES=OCc(c(C)1)c(C)on1
InChI=InChI=1S/C6H9NO2/c1-4-6(3-8)5(2)9-7-4/h8H,3H2,1-2H3
computed SMILES=OCC=1C(=NOC1C)C
accession=JP003232
date=2016.01.19 (Created 2008.10.21, modified 2011.05.06)
author=MASS SPECTROSCOPY SOC. OF JAPAN (MSSJ)
license=CC BY-NC-SA
exact mass=127.06333
ionization energy=70 eV
ion type=[M]+*
computed spectral entropy=2.0694394566255374
computed normalized entropy=0.9418424852749459
SPLASH=splash10-0036-9400000000-7a5a00ebd5cb584b57c4
submitter=submitter = University of Tokyo Team (Faculty of Engineering, University of Tokyo)
MoNA Rating=3.75

>  <NUM PEAKS>  (4673) 
9

>  <MASS SPECTRAL PEAKS>  (4673) 
42 82
43 88
68 75
82 64
84 64
109 36
110 25
112 12
127 99.99

>  <PREDICTED SPECTRUM>  (4673) 
14 55
15 177
16 18
17 1
18 19
19 8
25 13
26 85
27 228
28 179
29 199
30 134
31 136
32 0
33 10
36 24
37 58
38 122
39 303
40 203
41 337
42 426
43 999
44 251
45 80
46 1
50 78
51 156
52 181
53 129
54 187
55 194
56 269
57 216
58 103
64 15
65 82
66 147
67 160
68 198
69 170
70 203
71 173
72 62
80 3
81 28
82 135
83 160
84 547
85 233
86 121
94 36
95 54
96 212
97 146
98 25
108 26
109 173
110 183
111 94
112 176
125 76
126 313
127 644
128 174
129 17

$$$$

     RDKit          2D

  8  8  0  0  0  0  0  0  0  0999 V2000
   -1.4636   -1.3774    0.0000 C   0  0  0  0  0  0  0  0  0  0  0  0
   -3.0958    1.4497    0.0000 C   0  0  0  0  0  0  0  0  0  0  0  0
    1.7179   -0.7016    0.0000 C   0  0  0  0  0  0  0  0  0  0  0  0
   -0.8541   -0.0068    0.0000 C   0  0  0  0  0  0  0  0  0  0  0  0
   -1.6041    1.2923    0.0000 C   0  0  0  0  0  0  0  0  0  0  0  0
    0.6057    0.3049    0.0000 C   0  0  0  0  0  0  0  0  0  0  0  0
   -0.6043    2.4006    0.0000 N   0  0  0  0  0  0  0  0  0  0  0  0
    0.7714    1.7978    0.0000 O   0  0  0  0  0  0  0  0  0  0  0  0
  4  1  1  0
  5  2  1  0
  5  4  1  0
  6  3  1  0
  6  4  2  0
  7  5  2  0
  8  6  1  0
  8  7  1  0
M  END
>  <NAME>  (4674) 
3,4,5-TRIMETHYL-ISOXAZOLE

>  <SYNONYMS>  (4674) 


>  <SPECTRUM TYPE>  (4674) 
MS1

>  <INSTRUMENT TYPE>  (4674) 
EI-B

>  <INSTRUMENT>  (4674) 
HITACHI RMU-6E

>  <ION MODE>  (4674) 
P

>  <INCHIKEY>  (4674) 
MGHKWBQZEBMFOH-UHFFFAOYSA-N

>  <FORMULA>  (4674) 
C6H9NO

>  <EXACT MASS>  (4674) 
111.068413908

>  <MW>  (4674) 
111

>  <ID>  (4674) 
JP003231

>  <CONTRIBUTOR>  (4674) 
University of Tokyo Team, {Faculty of Engineering, University of Tokyo

>  <COMMENT>  (4674) 
SMILES=Cc(n1)c(C)c(C)o1
InChI=InChI=1S/C6H9NO/c1-4-5(2)7-8-6(4)3/h1-3H3
computed SMILES=N=1OC(=C(C1C)C)C
accession=JP003231
date=2016.01.19 (Created 2008.10.21, modified 2011.05.06)
author=MASS SPECTROSCOPY SOC. OF JAPAN (MSSJ)
license=CC BY-NC-SA
exact mass=111.06841
ionization energy=70 eV
ion type=[M]+*
computed spectral entropy=1.914193303980944
computed normalized entropy=0.920532395652056
SPLASH=splash10-0297-9200000000-a9433990cfbab223a733
submitter=submitter = University of Tokyo Team (Faculty of Engineering, University of Tokyo)
MoNA Rating=3.75

>  <NUM PEAKS>  (4674) 
8

>  <MASS SPECTRAL PEAKS>  (4674) 
41 8
42 71
43 85
55 58
68 85
96 86
110 16
111 99.99

>  <PREDICTED SPECTRUM>  (4674) 
14 88
15 231
16 18
25 9
26 106
27 269
28 259
29 162
30 72
36 19
37 84
38 205
39 441
40 325
41 462
42 817
43 999
44 6
50 95
51 154
52 220
53 301
54 345
55 229
56 63
57 37
66 148
67 183
68 498
69 506
70 433
71 76
96 314
110 267
111 884
112 223

$$$$

     RDKit          2D

 10 10  0  0  0  0  0  0  0  0999 V2000
    0.0000    3.0000    0.0000 C   0  0  0  0  0  0  0  0  0  0  0  0
   -2.5989   -1.5002    0.0000 C   0  0  0  0  0  0  0  0  0  0  0  0
   -1.3000    0.7500    0.0000 C   0  0  0  0  0  0  0  0  0  0  0  0
    0.0000    1.5000    0.0000 C   0  0  0  0  0  0  0  0  0  0  0  0
   -1.3000   -0.7500    0.0000 C   0  0  0  0  0  0  0  0  0  0  0  0
    1.3000    0.7500    0.0000 C   0  0  0  0  0  0  0  0  0  0  0  0
    1.3000   -0.7500    0.0000 C   0  0  0  0  0  0  0  0  0  0  0  0
    2.5989    1.5002    0.0000 Br  0  0  0  0  0  0  0  0  0  0  0  0
    2.5989   -1.5002    0.0000 O   0  0  0  0  0  0  0  0  0  0  0  0
   -0.0000   -1.5000    0.0000 O   0  0  0  0  0  0  0  0  0  0  0  0
  4  1  1  0
  4  3  1  0
  5  2  1  0
  5  3  2  0
  6  4  2  0
  7  6  1  0
  8  6  1  0
  9  7  2  0
 10  5  1  0
 10  7  1  0
M  END
>  <NAME>  (4675) 
3-BROMO-4,6-DIMETHYL-2-PYRONE

>  <SYNONYMS>  (4675) 


>  <SPECTRUM TYPE>  (4675) 
MS1

>  <INSTRUMENT TYPE>  (4675) 
EI-B

>  <INSTRUMENT>  (4675) 
HITACHI RMU-6E

>  <ION MODE>  (4675) 
P

>  <INCHIKEY>  (4675) 
PCJLUGUBXDBHFL-UHFFFAOYSA-N

>  <FORMULA>  (4675) 
C7H7BrO2

>  <EXACT MASS>  (4675) 
201.962941564

>  <MW>  (4675) 
202

>  <ID>  (4675) 
JP003230

>  <CONTRIBUTOR>  (4675) 
University of Tokyo Team, {Faculty of Engineering, University of Tokyo

>  <COMMENT>  (4675) 
SMILES=CC(=C1)OC(=O)C(Br)=C(C)1
InChI=InChI=1S/C7H7BrO2/c1-4-3-5(2)10-7(9)6(4)8/h3H,1-2H3
computed SMILES=O=C1OC(=CC(=C1Br)C)C
accession=JP003230
date=2016.01.19 (Created 2008.10.21, modified 2011.05.06)
author=MASS SPECTROSCOPY SOC. OF JAPAN (MSSJ)
license=CC BY-NC-SA
exact mass=201.96294
ionization energy=70 eV
ion type=[M]+*
computed spectral entropy=2.6130866201514524
computed normalized entropy=0.9424717770764508
SPLASH=splash10-0v6u-9730000000-fe7515d9d72d23fdc712
submitter=submitter = University of Tokyo Team (Faculty of Engineering, University of Tokyo)
MoNA Rating=3.75

>  <NUM PEAKS>  (4675) 
16

>  <MASS SPECTRAL PEAKS>  (4675) 
39 21
41 18
43 89
50 23
51 51
52 20
65 17
67 95
95 43
123 38
131 44
133 38
174 99.99
176 95
202 65
204 61

>  <PREDICTED SPECTRUM>  (4675) 
14 24
15 57
25 35
26 59
27 50
29 31
36 67
37 208
38 287
39 425
40 185
41 182
42 105
43 999
44 182
45 19
49 108
50 437
51 489
52 367
53 463
54 184
55 132
61 175
62 235
63 341
64 91
65 230
66 232
67 340
68 70
69 191
71 91
72 44
73 40
74 124
75 35
76 9
77 211
78 149
79 279
80 261
81 147
82 56
85 154
86 106
87 136
88 6
89 91
91 29
93 83
94 23
95 374
96 25
103 65
105 20
106 19
117 71
119 27
123 346
124 101
131 303
132 163
133 281
134 87
135 116
145 89
147 51
157 43
159 336
160 184
161 261
162 132
163 70
174 558
175 164
176 605
177 130
187 134
189 254
190 43
202 528
203 112
204 608
205 150

$$$$

     RDKit          2D

 12 13  0  0  0  0  0  0  0  0999 V2000
   -2.9500    0.8900    0.0000 C   0  0  0  0  0  0  0  0  0  0  0  0
   -2.9500   -0.6100    0.0000 C   0  0  0  0  0  0  0  0  0  0  0  0
   -1.6500    1.6400    0.0000 C   0  0  0  0  0  0  0  0  0  0  0  0
   -1.6500   -1.3600    0.0000 C   0  0  0  0  0  0  0  0  0  0  0  0
    0.9500    1.6400    0.0000 C   0  0  0  0  0  0  0  0  0  0  0  0
    2.2500    0.8900    0.0000 C   0  0  0  0  0  0  0  0  0  0  0  0
    3.5364   -1.3745    0.0000 C   0  0  0  0  0  0  0  0  0  0  0  0
   -0.3600    0.8800    0.0000 C   0  0  0  0  0  0  0  0  0  0  0  0
    2.2400   -0.6200    0.0000 C   0  0  0  0  0  0  0  0  0  0  0  0
   -0.3600   -0.6100    0.0000 C   0  0  0  0  0  0  0  0  0  0  0  0
    4.8329   -2.1290    0.0000 N   0  0  0  0  0  0  0  0  0  0  0  0
    0.9400   -1.3700    0.0000 N   0  0  0  0  0  0  0  0  0  0  0  0
  2  1  2  0
  3  1  1  0
  4  2  1  0
  6  5  2  0
  8  3  2  0
  8  5  1  0
  9  6  1  0
  9  7  1  0
 10  4  2  0
 10  8  1  0
 11  7  3  0
 12  9  2  0
 12 10  1  0
M  END
>  <NAME>  (4676) 
QUINOLINE-2-CARBONITRILE

>  <SYNONYMS>  (4676) 


>  <SPECTRUM TYPE>  (4676) 
MS1

>  <INSTRUMENT TYPE>  (4676) 
EI-B

>  <INSTRUMENT>  (4676) 
HITACHI RMU-6E

>  <ION MODE>  (4676) 
P

>  <INCHIKEY>  (4676) 
WDXARTMCIRVMAE-UHFFFAOYSA-N

>  <FORMULA>  (4676) 
C10H6N2

>  <EXACT MASS>  (4676) 
154.053098192

>  <MW>  (4676) 
154

>  <ID>  (4676) 
JP003228

>  <CONTRIBUTOR>  (4676) 
University of Tokyo Team, {Faculty of Engineering, University of Tokyo

>  <COMMENT>  (4676) 
SMILES=N#Cc(c1)nc(c2)c(ccc2)c1
InChI=InChI=1S/C10H6N2/c11-7-9-6-5-8-3-1-2-4-10(8)12-9/h1-6H
computed SMILES=N#CC=1N=C2C=CC=CC2=CC1
accession=JP003228
date=2016.01.19 (Created 2008.10.21, modified 2011.05.06)
author=MASS SPECTROSCOPY SOC. OF JAPAN (MSSJ)
license=CC BY-NC-SA
exact mass=154.0531
ionization energy=70 eV
ion type=[M]+*
computed spectral entropy=1.957153683451837
computed normalized entropy=0.8499810449597565
SPLASH=splash10-0ufr-4900000000-0f1c6efb1afa410f622c
submitter=submitter = University of Tokyo Team (Faculty of Engineering, University of Tokyo)
MoNA Rating=3.75

>  <NUM PEAKS>  (4676) 
10

>  <MASS SPECTRAL PEAKS>  (4676) 
63 14
75 22
76 27
77 14
87 7
101 13
102 17
127 21
128 15
154 99.99

>  <PREDICTED SPECTRUM>  (4676) 
25 5
26 34
27 9
28 2
37 83
38 107
39 119
40 54
41 68
44 37
49 68
50 370
51 348
52 220
53 14
57 39
61 93
62 215
63 278
64 185
69 2
70 2
71 15
73 63
74 278
75 451
76 383
77 270
78 58
86 50
87 138
88 81
98 61
99 229
100 270
101 356
102 219
103 192
114 110
115 12
124 25
125 63
126 322
127 593
128 377
129 231
152 12
153 442
154 999
155 372
156 78

$$$$

     RDKit          2D

 13 14  0  0  0  0  0  0  0  0999 V2000
   -2.8800    0.7500    0.0000 C   0  0  0  0  0  0  0  0  0  0  0  0
   -2.8800   -0.7500    0.0000 C   0  0  0  0  0  0  0  0  0  0  0  0
   -1.5800    1.5000    0.0000 C   0  0  0  0  0  0  0  0  0  0  0  0
   -1.5800   -1.5000    0.0000 C   0  0  0  0  0  0  0  0  0  0  0  0
    0.8900    1.6900    0.0000 C   0  0  0  0  0  0  0  0  0  0  0  0
    2.3500    1.3500    0.0000 C   0  0  0  0  0  0  0  0  0  0  0  0
    3.2879   -2.5207    0.0000 C   0  0  0  0  0  0  0  0  0  0  0  0
   -0.2800    0.7500    0.0000 C   0  0  0  0  0  0  0  0  0  0  0  0
   -0.2800   -0.7500    0.0000 C   0  0  0  0  0  0  0  0  0  0  0  0
    2.3500   -1.3500    0.0000 C   0  0  0  0  0  0  0  0  0  0  0  0
    4.2257   -3.6913    0.0000 N   0  0  0  0  0  0  0  0  0  0  0  0
    0.8900   -1.6900    0.0000 N   0  0  0  0  0  0  0  0  0  0  0  0
    3.0000    0.0000    0.0000 O   0  0  0  0  0  0  0  0  0  0  0  0
  2  1  2  0
  3  1  1  0
  4  2  1  0
  6  5  2  0
  8  3  2  0
  8  5  1  0
  9  4  2  0
  9  8  1  0
 10  7  1  0
 11  7  3  0
 12  9  1  0
 12 10  2  0
 13  6  1  0
 13 10  1  0
M  END
>  <NAME>  (4677) 
3,1-BENZOXAZEPINE-2-CARBONITRILE

>  <SYNONYMS>  (4677) 


>  <SPECTRUM TYPE>  (4677) 
MS1

>  <INSTRUMENT TYPE>  (4677) 
EI-B

>  <INSTRUMENT>  (4677) 
HITACHI RMU-6E

>  <ION MODE>  (4677) 
P

>  <INCHIKEY>  (4677) 
UCCKBAPZOKCNRY-UHFFFAOYSA-N

>  <FORMULA>  (4677) 
C10H6N2O

>  <EXACT MASS>  (4677) 
170.048012812

>  <MW>  (4677) 
170

>  <ID>  (4677) 
JP003227

>  <CONTRIBUTOR>  (4677) 
University of Tokyo Team, {Faculty of Engineering, University of Tokyo

>  <COMMENT>  (4677) 
SMILES=N#CC(O1)=Nc(c2)c(ccc2)C=C1
InChI=InChI=1S/C10H6N2O/c11-7-10-12-9-4-2-1-3-8(9)5-6-13-10/h1-6H
computed SMILES=N#CC1=NC=2C=CC=CC2C=CO1
accession=JP003227
date=2016.01.19 (Created 2008.10.21, modified 2011.05.06)
author=MASS SPECTROSCOPY SOC. OF JAPAN (MSSJ)
license=CC BY-NC-SA
exact mass=170.04801
ionization energy=70 eV
ion type=[M]+*
computed spectral entropy=2.237635082507228
computed normalized entropy=0.9004906010043202
SPLASH=splash10-029f-9800000000-3e0f5d6ef49a33139317
submitter=submitter = University of Tokyo Team (Faculty of Engineering, University of Tokyo)
MoNA Rating=3.75

>  <NUM PEAKS>  (4677) 
12

>  <MASS SPECTRAL PEAKS>  (4677) 
62 30
63 63
64 27
88 15
89 68
90 35
114 12
115 69
116 8
142 99.99
143 10
170 37

>  <PREDICTED SPECTRUM>  (4677) 
14 4
26 14
37 136
38 218
39 295
40 111
41 67
44 6
45 43
49 63
50 429
51 406
52 264
53 51
61 140
62 332
63 487
64 401
65 211
66 35
73 39
74 249
75 382
76 408
77 208
78 131
85 0
86 99
87 188
88 281
89 242
90 180
91 50
100 89
101 98
102 270
103 105
104 61
113 127
114 490
115 642
116 334
117 24
139 15
140 109
141 617
142 622
143 301
144 29
169 13
170 999
171 353
172 46

$$$$

     RDKit          2D

 13 14  0  0  0  0  0  0  0  0999 V2000
   -2.6000    0.7500    0.0000 C   0  0  0  0  0  0  0  0  0  0  0  0
   -2.6000   -0.7500    0.0000 C   0  0  0  0  0  0  0  0  0  0  0  0
   -1.3000    1.5000    0.0000 C   0  0  0  0  0  0  0  0  0  0  0  0
   -1.3000   -1.5000    0.0000 C   0  0  0  0  0  0  0  0  0  0  0  0
    1.3000    1.5000    0.0000 C   0  0  0  0  0  0  0  0  0  0  0  0
    2.6000    0.7500    0.0000 C   0  0  0  0  0  0  0  0  0  0  0  0
    3.8989   -1.5002    0.0000 C   0  0  0  0  0  0  0  0  0  0  0  0
   -0.0000    0.7500    0.0000 C   0  0  0  0  0  0  0  0  0  0  0  0
    2.6000   -0.7500    0.0000 C   0  0  0  0  0  0  0  0  0  0  0  0
   -0.0000   -0.7500    0.0000 C   0  0  0  0  0  0  0  0  0  0  0  0
    5.1978   -2.2504    0.0000 N   0  0  0  0  0  0  0  0  0  0  0  0
    1.3000   -1.5000    0.0000 N   0  0  0  0  0  0  0  0  0  0  0  0
    1.3000   -3.0000    0.0000 O   0  0  0  0  0  0  0  0  0  0  0  0
  2  1  2  0
  3  1  1  0
  4  2  1  0
  6  5  2  0
  8  3  2  0
  8  5  1  0
  9  6  1  0
  9  7  1  0
 10  4  2  0
 10  8  1  0
 11  7  3  0
 12  9  2  0
 12 10  1  0
 13 12  1  0
M  CHG  2  12   1  13  -1
M  END
>  <NAME>  (4678) 
2-CYANOQUINOLINE-1-OXIDE

>  <SYNONYMS>  (4678) 


>  <SPECTRUM TYPE>  (4678) 
MS1

>  <INSTRUMENT TYPE>  (4678) 
EI-B

>  <INSTRUMENT>  (4678) 
HITACHI RMU-6E

>  <ION MODE>  (4678) 
P

>  <INCHIKEY>  (4678) 
YJBFQJVBKTVFOW-UHFFFAOYSA-N

>  <FORMULA>  (4678) 
C10H6N2O

>  <EXACT MASS>  (4678) 
170.048012812

>  <MW>  (4678) 
170

>  <ID>  (4678) 
JP003226

>  <CONTRIBUTOR>  (4678) 
University of Tokyo Team, {Faculty of Engineering, University of Tokyo

>  <COMMENT>  (4678) 
SMILES=N#Cc(c1)[n+1]([O-1])c(c2)c(ccc2)c1
InChI=InChI=1S/C10H6N2O/c11-7-9-6-5-8-3-1-2-4-10(8)12(9)13/h1-6H
computed SMILES=N#CC=1C=CC=2C=CC=CC2N1=O
accession=JP003226
date=2016.01.19 (Created 2008.10.21, modified 2011.05.06)
author=MASS SPECTROSCOPY SOC. OF JAPAN (MSSJ)
license=CC BY-NC-SA
exact mass=170.04801
ionization energy=70 eV
ion type=[M]+*
computed spectral entropy=2.5270081710374814
computed normalized entropy=0.911425539160416
SPLASH=splash10-0ufr-6900000000-1169196536a4f9f49b8f
submitter=submitter = University of Tokyo Team (Faculty of Engineering, University of Tokyo)
MoNA Rating=3.75

>  <NUM PEAKS>  (4678) 
16

>  <MASS SPECTRAL PEAKS>  (4678) 
62 15
63 28
64 14
75 30
76 34
77 20
87 12
89 12
100 15
101 19
102 22
115 10
127 36
142 20
154 99.99
170 10

>  <PREDICTED SPECTRUM>  (4678) 
16 12
17 8
26 11
28 23
37 99
38 164
39 256
40 73
41 57
43 99
44 127
49 63
50 385
51 432
52 252
53 61
54 47
55 3
57 63
58 42
61 145
62 296
63 454
64 302
65 165
66 5
69 79
70 136
71 106
72 19
73 101
74 269
75 373
76 434
77 395
78 244
82 0
83 77
84 76
85 94
86 146
87 168
88 268
89 379
90 322
91 167
92 50
96 43
97 76
98 50
99 121
100 152
101 95
102 166
103 99
104 46
106 22
110 39
113 183
114 408
115 628
116 411
117 113
118 40
119 37
123 7
124 21
125 43
126 292
127 231
128 128
129 80
130 46
138 85
139 168
140 268
141 469
142 619
143 379
144 172
151 11
152 197
153 626
154 734
155 274
156 1
168 8
169 188
170 999
171 334
172 59

$$$$

     RDKit          2D

 13 13  0  0  0  0  0  0  0  0999 V2000
    5.1970    1.5006    0.0000 C   0  0  0  0  0  0  0  0  0  0  0  0
   -2.7772   -0.4897    0.0000 C   0  0  0  0  0  0  0  0  0  0  0  0
   -1.8127   -2.1596    0.0000 C   0  0  0  0  0  0  0  0  0  0  0  0
    3.8981    0.7504    0.0000 C   0  0  0  0  0  0  0  0  0  0  0  0
    2.5989    1.5002    0.0000 C   0  0  0  0  0  0  0  0  0  0  0  0
   -1.3000    0.7500    0.0000 C   0  0  0  0  0  0  0  0  0  0  0  0
   -0.0000   -1.5000    0.0000 C   0  0  0  0  0  0  0  0  0  0  0  0
    1.3000    0.7500    0.0000 C   0  0  0  0  0  0  0  0  0  0  0  0
    0.0000    1.5000    0.0000 C   0  0  0  0  0  0  0  0  0  0  0  0
    1.3000   -0.7500    0.0000 C   0  0  0  0  0  0  0  0  0  0  0  0
   -1.3000   -0.7500    0.0000 C   0  0  0  0  0  0  0  0  0  0  0  0
    0.0000    3.0000    0.0000 O   0  0  0  0  0  0  0  0  0  0  0  0
    2.5989   -1.5002    0.0000 O   0  0  0  0  0  0  0  0  0  0  0  0
  4  1  1  0
  5  4  1  0
  8  5  1  0
  9  6  1  0
  9  8  1  0
 10  7  1  0
 10  8  1  0
 11  2  1  0
 11  3  1  0
 11  6  1  0
 11  7  1  0
 12  9  2  0
 13 10  2  0
M  END
>  <NAME>  (4679) 
2-PROPYL-5,5-DIMETHYL-1,3-CYCLOHEXANEDIONE

>  <SYNONYMS>  (4679) 


>  <SPECTRUM TYPE>  (4679) 
MS1

>  <INSTRUMENT TYPE>  (4679) 
EI-B

>  <INSTRUMENT>  (4679) 
HITACHI RMU-7

>  <ION MODE>  (4679) 
P

>  <INCHIKEY>  (4679) 
KLQDATMPJJSEHG-UHFFFAOYSA-N

>  <FORMULA>  (4679) 
C11H18O2

>  <EXACT MASS>  (4679) 
182.130679816

>  <MW>  (4679) 
182

>  <ID>  (4679) 
JP003224

>  <CONTRIBUTOR>  (4679) 
University of Tokyo Team, {Faculty of Engineering, University of Tokyo

>  <COMMENT>  (4679) 
SMILES=CCCC(C(=O)1)C(=O)CC(C)(C)C1
InChI=InChI=1S/C11H18O2/c1-4-5-8-9(12)6-11(2,3)7-10(8)13/h8H,4-7H2,1-3H3
computed SMILES=O=C1CC(C)(C)CC(=O)C1CCC
accession=JP003224
date=2016.01.19 (Created 2008.10.21, modified 2011.05.06)
author=NAKATA H, DEPT. OF CHEMISTRY, AICHI KYOIKU UNIV.
license=CC BY-NC-SA
exact mass=182.13068
ionization energy=70 eV
ion type=[M]+*
computed spectral entropy=2.6927237466022906
computed normalized entropy=0.9145116491307254
SPLASH=splash10-001i-9300000000-86136bc8b8b846045371
submitter=submitter = University of Tokyo Team (Faculty of Engineering, University of Tokyo)
MoNA Rating=3.75

>  <NUM PEAKS>  (4679) 
19

>  <MASS SPECTRAL PEAKS>  (4679) 
41 18
42 30
43 17
55 69
56 19
69 19
83 99.99
84 57
97 19
98 19
111 26
112 11
125 17
126 9
140 17
153 17
154 13
167 17
182 23

>  <PREDICTED SPECTRUM>  (4679) 
34 29
39 393
40 158
41 879
42 609
43 730
44 50
45 31
47 185
50 20
51 90
52 55
53 271
54 106
55 999
56 376
57 144
59 257
60 198
65 116
66 14
67 183
68 31
69 480
70 598
71 428
72 60
75 121
76 86
77 139
78 29
79 81
81 104
82 63
83 981
84 471
85 51
96 44
97 329
98 182
99 148
100 11
101 19
106 1
107 101
108 58
109 74
111 481
112 643
113 111
115 109
123 107
125 189
126 100
139 334
140 454
141 375
142 132
153 177
154 40
167 225
182 843
183 269
184 162

$$$$

     RDKit          2D

 16 16  0  0  0  0  0  0  0  0999 V2000
    5.2185    1.3785    0.0000 C   0  0  0  0  0  0  0  0  0  0  0  0
    3.8026    3.8301    0.0000 C   0  0  0  0  0  0  0  0  0  0  0  0
   -2.7772   -0.4897    0.0000 C   0  0  0  0  0  0  0  0  0  0  0  0
   -1.8127   -2.1596    0.0000 C   0  0  0  0  0  0  0  0  0  0  0  0
    3.7413    1.6389    0.0000 C   0  0  0  0  0  0  0  0  0  0  0  0
    3.2899    2.4204    0.0000 C   0  0  0  0  0  0  0  0  0  0  0  0
    2.7772    0.4897    0.0000 C   0  0  0  0  0  0  0  0  0  0  0  0
    1.8127    2.1596    0.0000 C   0  0  0  0  0  0  0  0  0  0  0  0
   -1.3000    0.7500    0.0000 C   0  0  0  0  0  0  0  0  0  0  0  0
   -0.0000   -1.5000    0.0000 C   0  0  0  0  0  0  0  0  0  0  0  0
    0.0000    1.5000    0.0000 C   0  0  0  0  0  0  0  0  0  0  0  0
    1.3000   -0.7500    0.0000 C   0  0  0  0  0  0  0  0  0  0  0  0
   -1.3000   -0.7500    0.0000 C   0  0  0  0  0  0  0  0  0  0  0  0
    1.3000    0.7500    0.0000 C   0  0  0  0  0  0  0  0  0  0  0  0
    0.0000    3.0000    0.0000 O   0  0  0  0  0  0  0  0  0  0  0  0
    2.5989   -1.5002    0.0000 O   0  0  0  0  0  0  0  0  0  0  0  0
  5  1  1  0
  6  2  1  0
  7  5  1  0
  8  6  1  0
 11  9  1  0
 12 10  1  0
 13  3  1  0
 13  4  1  0
 13  9  1  0
 13 10  1  0
 14  7  1  0
 14  8  1  0
 14 11  1  0
 14 12  1  0
 15 11  2  0
 16 12  2  0
M  END
>  <NAME>  (4680) 
2,2-DIPROPYL-5,5-DIMETHYL-1,3-CYCLOHEXANEDIONE

>  <SYNONYMS>  (4680) 


>  <SPECTRUM TYPE>  (4680) 
MS1

>  <INSTRUMENT TYPE>  (4680) 
EI-B

>  <INSTRUMENT>  (4680) 
HITACHI RMU-7

>  <ION MODE>  (4680) 
P

>  <INCHIKEY>  (4680) 
DFHLDDAIXQRSNN-UHFFFAOYSA-N

>  <FORMULA>  (4680) 
C14H24O2

>  <EXACT MASS>  (4680) 
224.177630008

>  <MW>  (4680) 
224

>  <ID>  (4680) 
JP003223

>  <CONTRIBUTOR>  (4680) 
University of Tokyo Team, {Faculty of Engineering, University of Tokyo

>  <COMMENT>  (4680) 
SMILES=CCCC(CCC)(C(=O)1)C(=O)CC(C)(C)C1
InChI=InChI=1S/C14H24O2/c1-5-7-14(8-6-2)11(15)9-13(3,4)10-12(14)16/h5-10H2,1-4H3
computed SMILES=O=C1CC(C)(C)CC(=O)C1(CCC)CCC
accession=JP003223
date=2016.01.19 (Created 2008.10.21, modified 2011.05.06)
author=NAKATA H, DEPT. OF CHEMISTRY, AICHI KYOIKU UNIV.
license=CC BY-NC-SA
exact mass=224.17763
ionization energy=70 eV
ion type=[M]+*
computed spectral entropy=2.7691029643030816
computed normalized entropy=0.9095360671323252
SPLASH=splash10-001j-9600000000-b03a9dfeb6701b1bad21
submitter=submitter = University of Tokyo Team (Faculty of Engineering, University of Tokyo)
MoNA Rating=3.75

>  <NUM PEAKS>  (4680) 
21

>  <MASS SPECTRAL PEAKS>  (4680) 
41 45
43 18
55 31
69 23
82 6
83 99.99
84 16
97 35
98 15
111 15
126 18
149 10
153 10
154 17
165 7
167 33
168 10
182 32
195 32
196 9
224 9

>  <PREDICTED SPECTRUM>  (4680) 
27 192
29 138
39 295
40 166
41 654
42 213
43 655
44 74
51 119
52 130
53 342
54 193
55 820
56 387
57 132
58 11
65 203
66 185
67 630
68 388
69 551
70 245
71 106
77 175
78 77
79 127
80 18
81 250
82 340
83 935
84 230
85 155
91 104
93 234
94 80
95 375
96 317
97 504
98 97
105 18
107 133
109 271
110 303
111 663
112 299
113 102
121 88
122 66
123 253
124 161
125 357
126 155
127 41
136 9
137 175
138 169
139 999
140 433
141 125
151 75
152 22
153 432
154 127
164 35
166 192
167 408
168 46
180 138
181 431
182 421
183 39
195 292
196 188
209 171
210 8
223 32
224 315
225 109

$$$$

     RDKit          2D

 13 12  0  0  0  0  0  0  0  0999 V2000
    2.5981    4.5000    0.0000 C   0  0  0  0  0  0  0  0  0  0  0  0
   -7.7942    4.5000    0.0000 C   0  0  0  0  0  0  0  0  0  0  0  0
   -1.2990    0.7500    0.0000 C   0  0  0  0  0  0  0  0  0  0  0  0
    1.2990    5.2500    0.0000 C   0  0  0  0  0  0  0  0  0  0  0  0
   -6.4952    5.2500    0.0000 C   0  0  0  0  0  0  0  0  0  0  0  0
    0.0000    4.5000    0.0000 C   0  0  0  0  0  0  0  0  0  0  0  0
   -5.1962    4.5000    0.0000 C   0  0  0  0  0  0  0  0  0  0  0  0
   -1.2990    5.2500    0.0000 C   0  0  0  0  0  0  0  0  0  0  0  0
   -3.8971    5.2500    0.0000 C   0  0  0  0  0  0  0  0  0  0  0  0
   -2.5981    4.5000    0.0000 C   0  0  0  0  0  0  0  0  0  0  0  0
   -2.5981    3.0000    0.0000 C   0  0  0  0  0  0  0  0  0  0  0  0
   -3.8971    2.2500    0.0000 O   0  0  0  0  0  0  0  0  0  0  0  0
   -1.2990    2.2500    0.0000 O   0  0  0  0  0  0  0  0  0  0  0  0
  4  1  1  0
  5  2  1  0
  6  4  1  0
  7  5  1  0
  8  6  1  0
  9  7  1  0
 10  8  1  0
 10  9  1  0
 11 10  1  0
 12 11  2  0
 13  3  1  0
 13 11  1  0
M  END
>  <NAME>  (4681) 
METHYL 2-BUTYLHEXANOATE

>  <SYNONYMS>  (4681) 


>  <SPECTRUM TYPE>  (4681) 
MS1

>  <INSTRUMENT TYPE>  (4681) 
EI-B

>  <INSTRUMENT>  (4681) 
HITACHI RMU-7

>  <ION MODE>  (4681) 
P

>  <INCHIKEY>  (4681) 
AZTDAGYTELUSHF-UHFFFAOYSA-N

>  <FORMULA>  (4681) 
C11H22O2

>  <EXACT MASS>  (4681) 
186.161979944

>  <MW>  (4681) 
186

>  <ID>  (4681) 
JP003221

>  <CONTRIBUTOR>  (4681) 
University of Tokyo Team, {Faculty of Engineering, University of Tokyo

>  <COMMENT>  (4681) 
SMILES=CCCCC(CCCC)C(=O)OC
InChI=InChI=1S/C11H22O2/c1-4-6-8-10(9-7-5-2)11(12)13-3/h10H,4-9H2,1-3H3
computed SMILES=O=C(OC)C(CCCC)CCCC
accession=JP003221
date=2016.01.19 (Created 2008.10.21, modified 2011.05.06)
author=NAKATA H, DEPT. OF CHEMISTRY, AICHI KYOIKU UNIV.
license=CC BY-NC-SA
exact mass=186.16198
ionization energy=70 eV
ion type=[M]+*
computed spectral entropy=3.095971667399839
computed normalized entropy=0.8779509768748986
SPLASH=splash10-053f-9500000000-f01dac540c9be36ea6c3
submitter=submitter = University of Tokyo Team (Faculty of Engineering, University of Tokyo)
MoNA Rating=3.75

>  <NUM PEAKS>  (4681) 
34

>  <MASS SPECTRAL PEAKS>  (4681) 
37 18
39 9
41 43
43 43
45 7
53 7
55 56
56 6
57 28
59 20
69 23
70 5
71 21
74 8
83 6
85 11
87 99.99
88 18
96 5
97 11
98 9
100 6
101 52
102 5
129 12
130 88
131 21
132 9
133 5
143 30
155 17
156 5
157 12
186 5

>  <PREDICTED SPECTRUM>  (4681) 
15 27
26 17
27 211
28 28
29 248
33 18
37 10
38 69
39 320
40 166
41 644
42 320
43 618
44 315
45 260
46 0
50 22
51 91
52 72
53 253
54 168
55 510
56 218
57 490
58 162
59 328
60 136
61 17
62 15
65 10
66 59
67 198
68 109
69 292
70 111
71 159
73 122
74 32
79 40
82 12
83 184
84 165
85 252
86 41
87 763
88 250
89 177
90 68
95 61
96 96
97 274
98 272
99 214
100 189
101 999
102 341
103 27
111 38
112 137
113 54
115 77
125 37
127 51
128 105
129 265
130 866
131 293
132 191
133 201
143 242
144 106
154 17
155 198
156 117
157 178
186 55

$$$$

     RDKit          2D

 19 18  0  0  0  0  0  0  0  0999 V2000
    1.7596    5.3350    0.0000 C   0  0  0  0  0  0  0  0  0  0  0  0
   -8.6327    5.3350    0.0000 C   0  0  0  0  0  0  0  0  0  0  0  0
   -4.3388    0.2178    0.0000 C   0  0  0  0  0  0  0  0  0  0  0  0
    1.4463    3.5578    0.0000 C   0  0  0  0  0  0  0  0  0  0  0  0
    0.4606    6.0850    0.0000 C   0  0  0  0  0  0  0  0  0  0  0  0
   -7.3336    6.0850    0.0000 C   0  0  0  0  0  0  0  0  0  0  0  0
   -4.8518    1.6273    0.0000 C   0  0  0  0  0  0  0  0  0  0  0  0
   -0.0309    3.2973    0.0000 C   0  0  0  0  0  0  0  0  0  0  0  0
   -0.8384    5.3350    0.0000 C   0  0  0  0  0  0  0  0  0  0  0  0
   -6.0346    5.3350    0.0000 C   0  0  0  0  0  0  0  0  0  0  0  0
   -2.1375    6.0850    0.0000 C   0  0  0  0  0  0  0  0  0  0  0  0
   -4.7356    6.0850    0.0000 C   0  0  0  0  0  0  0  0  0  0  0  0
   -4.4007    4.1859    0.0000 C   0  0  0  0  0  0  0  0  0  0  0  0
   -2.4723    4.1859    0.0000 C   0  0  0  0  0  0  0  0  0  0  0  0
   -3.4365    5.3350    0.0000 C   0  0  0  0  0  0  0  0  0  0  0  0
   -5.8779    4.4464    0.0000 O   0  0  0  0  0  0  0  0  0  0  0  0
   -2.9854    2.7764    0.0000 O   0  0  0  0  0  0  0  0  0  0  0  0
   -3.8877    2.7764    0.0000 O   0  0  0  0  0  0  0  0  0  0  0  0
   -0.9951    4.4464    0.0000 O   0  0  0  0  0  0  0  0  0  0  0  0
  5  1  1  0
  6  2  1  0
  7  3  1  0
  8  4  1  0
  9  5  1  0
 10  6  1  0
 11  9  1  0
 12 10  1  0
 15 11  1  0
 15 12  1  0
 15 13  1  0
 15 14  1  0
 16 13  2  0
 17 14  2  0
 18  7  1  0
 18 13  1  0
 19  8  1  0
 19 14  1  0
M  END
>  <NAME>  (4682) 
DIETHYL DIBUTYLMALONATE

>  <SYNONYMS>  (4682) 


>  <SPECTRUM TYPE>  (4682) 
MS1

>  <INSTRUMENT TYPE>  (4682) 
EI-B

>  <INSTRUMENT>  (4682) 
HITACHI RMU-7

>  <ION MODE>  (4682) 
P

>  <INCHIKEY>  (4682) 
WHKKUUPZLWUOIW-UHFFFAOYSA-N

>  <FORMULA>  (4682) 
C15H28O4

>  <EXACT MASS>  (4682) 
272.198759376

>  <MW>  (4682) 
272

>  <ID>  (4682) 
JP003219

>  <CONTRIBUTOR>  (4682) 
University of Tokyo Team, {Faculty of Engineering, University of Tokyo

>  <COMMENT>  (4682) 
SMILES=CCCCC(CCCC)(C(=O)OCC)C(=O)OCC
InChI=InChI=1S/C15H28O4/c1-5-9-11-15(12-10-6-2,13(16)18-7-3)14(17)19-8-4/h5-12H2,1-4H3
computed SMILES=O=C(OCC)C(C(=O)OCC)(CCCC)CCCC
accession=JP003219
date=2016.01.19 (Created 2008.10.21, modified 2011.05.06)
author=NAKATA H, DEPT. OF CHEMISTRY, AICHI KYOIKU UNIV.
license=CC BY-NC-SA
exact mass=272.19876
ionization energy=70 eV
ion type=[M]+*
computed spectral entropy=2.678146621731675
computed normalized entropy=0.8125847032527723
SPLASH=splash10-00xr-0940000000-1582a295e7f49a92d190
submitter=submitter = University of Tokyo Team (Faculty of Engineering, University of Tokyo)
MoNA Rating=3.75

>  <NUM PEAKS>  (4682) 
27

>  <MASS SPECTRAL PEAKS>  (4682) 
94 6
101 5
115 11
125 7
127 16
128 5
142 10
143 5
157 20
158 5
159 5
160 8
169 8
170 6
171 8
172 5
173 99.99
174 8
199 33
200 6
215 5
216 73
217 7
226 5
227 33
228 5
272 3

>  <PREDICTED SPECTRUM>  (4682) 
14 18
15 64
16 18
17 47
18 83
19 11
25 20
26 123
27 378
28 218
29 626
30 40
31 99
32 29
38 2
39 238
40 118
41 448
42 155
43 237
44 184
45 224
46 29
47 15
51 83
52 59
53 224
54 152
55 378
56 202
57 275
58 53
59 17
60 85
61 9
62 18
65 126
66 68
67 143
68 99
69 451
70 151
71 152
72 82
73 295
74 84
75 0
77 55
79 81
80 74
81 229
82 151
83 240
84 125
85 127
86 81
87 138
88 106
91 67
93 61
94 17
95 201
96 188
97 313
98 192
99 323
100 209
101 306
102 114
103 0
104 38
107 38
108 30
109 81
110 76
111 180
112 123
113 187
114 259
115 277
116 150
117 42
118 2
123 131
124 192
125 303
126 154
127 375
128 213
129 236
130 165
132 108
133 41
135 10
137 24
138 138
139 43
140 15
141 175
142 201
143 253
144 76
145 67
146 38
151 110
152 196
153 175
154 89
155 307
156 131
157 174
158 92
159 65
160 126
169 279
170 206
171 232
172 115
173 999
174 357
175 3
180 25
181 23
183 89
184 88
185 115
186 15
187 102
188 194
189 82
197 91
198 156
199 415
200 181
201 56
202 143
214 59
215 102
216 159
217 116
227 284
228 116
229 61
243 54
245 3

$$$$

     RDKit          2D

 19 21  0  0  0  0  0  0  0  0999 V2000
    4.3135   -4.4746    0.0000 C   0  0  0  0  0  0  0  0  0  0  0  0
    1.7120   -4.4499    0.0000 C   0  0  0  0  0  0  0  0  0  0  0  0
   -3.4100    1.5500    0.0000 C   0  0  0  0  0  0  0  0  0  0  0  0
   -3.4100    0.0600    0.0000 C   0  0  0  0  0  0  0  0  0  0  0  0
   -2.1200    2.2900    0.0000 C   0  0  0  0  0  0  0  0  0  0  0  0
   -2.1200   -0.6900    0.0000 C   0  0  0  0  0  0  0  0  0  0  0  0
    0.4600    2.3100    0.0000 C   0  0  0  0  0  0  0  0  0  0  0  0
    1.7700    1.5500    0.0000 C   0  0  0  0  0  0  0  0  0  0  0  0
    4.3305   -2.9747    0.0000 C   0  0  0  0  0  0  0  0  0  0  0  0
    1.7300   -2.9500    0.0000 C   0  0  0  0  0  0  0  0  0  0  0  0
   -0.8300    1.5600    0.0000 C   0  0  0  0  0  0  0  0  0  0  0  0
   -0.8300    0.0500    0.0000 C   0  0  0  0  0  0  0  0  0  0  0  0
    1.7600    0.0500    0.0000 C   0  0  0  0  0  0  0  0  0  0  0  0
    3.0400   -2.2100    0.0000 C   0  0  0  0  0  0  0  0  0  0  0  0
    3.0600   -0.7000    0.0000 C   0  0  0  0  0  0  0  0  0  0  0  0
    0.4500   -0.6900    0.0000 C   0  0  0  0  0  0  0  0  0  0  0  0
    5.6379   -2.2394    0.0000 O   0  0  0  0  0  0  0  0  0  0  0  0
    4.3639    0.0416    0.0000 O   0  0  0  0  0  0  0  0  0  0  0  0
    0.4400   -2.1800    0.0000 O   0  0  0  0  0  0  0  0  0  0  0  0
  4  3  2  0
  5  3  1  0
  6  4  1  0
  8  7  2  0
  9  1  1  0
 10  2  1  0
 11  5  2  0
 11  7  1  0
 12  6  2  0
 12 11  1  0
 13  8  1  0
 14  9  1  0
 14 10  2  0
 15 13  1  0
 15 14  1  0
 16 12  1  0
 16 13  2  0
 17  9  2  0
 18 15  2  0
 19 10  1  0
 19 16  1  0
M  END
>  <NAME>  (4683) 
2-METHYL-3-ACETYL-(7,8)-BENZOCHROMONE

>  <SYNONYMS>  (4683) 


>  <SPECTRUM TYPE>  (4683) 
MS1

>  <INSTRUMENT TYPE>  (4683) 
EI-B

>  <INSTRUMENT>  (4683) 
HITACHI RMU-7

>  <ION MODE>  (4683) 
P

>  <INCHIKEY>  (4683) 
XMJJVPKEAYWZAP-UHFFFAOYSA-N

>  <FORMULA>  (4683) 
C16H12O3

>  <EXACT MASS>  (4683) 
252.078644244

>  <MW>  (4683) 
252

>  <ID>  (4683) 
JP003218

>  <CONTRIBUTOR>  (4683) 
University of Tokyo Team, {Faculty of Engineering, University of Tokyo

>  <COMMENT>  (4683) 
SMILES=CC(=O)C(=C(C)3)C(=O)c(c1)c(O3)c(c2)c(ccc2)c1
InChI=InChI=1S/C16H12O3/c1-9(17)14-10(2)19-16-12-6-4-3-5-11(12)7-8-13(16)15(14)18/h3-8H,1-2H3
computed SMILES=O=C1C=2C=CC=3C=CC=CC3C2OC(=C1C(=O)C)C
accession=JP003218
date=2016.01.19 (Created 2008.10.21, modified 2011.05.06)
author=NAKATA H, DEPT. OF CHEMISTRY, AICHI KYOIKU UNIV.
license=CC BY-NC-SA
exact mass=252.07864
ionization energy=70 eV
ion type=[M]+*
computed spectral entropy=2.9880767139896784
computed normalized entropy=0.8621766914137398
SPLASH=splash10-0fy9-6790000000-43d11280c2673c05b6bb
submitter=submitter = University of Tokyo Team (Faculty of Engineering, University of Tokyo)
MoNA Rating=3.75

>  <NUM PEAKS>  (4683) 
32

>  <MASS SPECTRAL PEAKS>  (4683) 
39 56
40 6
43 24
44 14
51 5
62 5
63 10
67 68
74 6
75 7
76 6
87 6
88 7
113 9
114 41
115 61
126 12
143 6
151 5
152 12
153 6
170 44
171 50
172 7
210 9
234 45
235 9
237 88
238 14
251 12
252 99.99
253 17

>  <PREDICTED SPECTRUM>  (4683) 
14 8
15 9
26 18
27 77
28 50
29 44
37 0
38 70
39 183
40 97
41 139
42 148
43 919
44 160
50 169
51 221
52 76
53 119
54 30
55 131
56 12
57 114
61 70
62 186
63 268
64 117
65 86
66 90
67 198
68 124
69 160
70 4
71 135
74 182
75 226
76 174
77 188
78 12
79 13
82 58
84 77
85 120
86 159
87 240
88 263
89 207
97 43
98 125
99 78
100 17
101 126
102 69
110 102
111 34
112 32
113 168
114 383
115 525
123 17
125 140
126 315
127 262
128 79
135 20
138 56
139 107
140 52
141 76
142 215
143 66
152 83
153 283
154 189
155 198
156 66
167 34
169 35
170 359
171 262
178 1
180 27
181 309
182 255
183 6
206 56
207 36
208 37
209 186
210 149
223 64
224 26
234 307
235 57
236 47
237 940
238 348
239 102
251 203
252 999
253 443
254 133

$$$$

     RDKit          2D

 16 18  0  0  0  0  0  0  0  0999 V2000
    1.7120   -4.4499    0.0000 C   0  0  0  0  0  0  0  0  0  0  0  0
   -3.4100    1.5500    0.0000 C   0  0  0  0  0  0  0  0  0  0  0  0
   -3.4100    0.0600    0.0000 C   0  0  0  0  0  0  0  0  0  0  0  0
   -2.1200    2.2900    0.0000 C   0  0  0  0  0  0  0  0  0  0  0  0
   -2.1200   -0.6900    0.0000 C   0  0  0  0  0  0  0  0  0  0  0  0
    0.4600    2.3100    0.0000 C   0  0  0  0  0  0  0  0  0  0  0  0
    1.7700    1.5500    0.0000 C   0  0  0  0  0  0  0  0  0  0  0  0
    3.0400   -2.2100    0.0000 C   0  0  0  0  0  0  0  0  0  0  0  0
    1.7300   -2.9500    0.0000 C   0  0  0  0  0  0  0  0  0  0  0  0
   -0.8300    1.5600    0.0000 C   0  0  0  0  0  0  0  0  0  0  0  0
   -0.8300    0.0500    0.0000 C   0  0  0  0  0  0  0  0  0  0  0  0
    1.7600    0.0500    0.0000 C   0  0  0  0  0  0  0  0  0  0  0  0
    3.0600   -0.7000    0.0000 C   0  0  0  0  0  0  0  0  0  0  0  0
    0.4500   -0.6900    0.0000 C   0  0  0  0  0  0  0  0  0  0  0  0
    4.3639    0.0416    0.0000 O   0  0  0  0  0  0  0  0  0  0  0  0
    0.4400   -2.1800    0.0000 O   0  0  0  0  0  0  0  0  0  0  0  0
  3  2  2  0
  4  2  1  0
  5  3  1  0
  7  6  2  0
  9  1  1  0
  9  8  2  0
 10  4  2  0
 10  6  1  0
 11  5  2  0
 11 10  1  0
 12  7  1  0
 13  8  1  0
 13 12  1  0
 14 11  1  0
 14 12  2  0
 15 13  2  0
 16  9  1  0
 16 14  1  0
M  END
>  <NAME>  (4684) 
2-METHYL-(7,8)-BENZOCHROMONE

>  <SYNONYMS>  (4684) 


>  <SPECTRUM TYPE>  (4684) 
MS1

>  <INSTRUMENT TYPE>  (4684) 
EI-B

>  <INSTRUMENT>  (4684) 
HITACHI RMU-7

>  <ION MODE>  (4684) 
P

>  <INCHIKEY>  (4684) 
HSULZQNMIJZSHG-UHFFFAOYSA-N

>  <FORMULA>  (4684) 
C14H10O2

>  <EXACT MASS>  (4684) 
210.06807956

>  <MW>  (4684) 
210

>  <ID>  (4684) 
JP003217

>  <CONTRIBUTOR>  (4684) 
University of Tokyo Team, {Faculty of Engineering, University of Tokyo

>  <COMMENT>  (4684) 
SMILES=CC(=C3)Oc(c1C(=O)3)c(c2)c(ccc2)cc1
InChI=InChI=1S/C14H10O2/c1-9-8-13(15)12-7-6-10-4-2-3-5-11(10)14(12)16-9/h2-8H,1H3
computed SMILES=O=C1C=C(OC2=C1C=CC=3C=CC=CC32)C
accession=JP003217
date=2016.01.19 (Created 2008.10.21, modified 2011.05.06)
author=NAKATA H, DEPT. OF CHEMISTRY, AICHI KYOIKU UNIV.
license=CC BY-NC-SA
exact mass=210.06808
ionization energy=70 eV
ion type=[M]+*
computed spectral entropy=2.307595961509352
computed normalized entropy=0.7702944558432562
SPLASH=splash10-03di-2960000000-c57ddc27d9f86af91442
submitter=submitter = University of Tokyo Team (Faculty of Engineering, University of Tokyo)
MoNA Rating=3.75

>  <NUM PEAKS>  (4684) 
20

>  <MASS SPECTRAL PEAKS>  (4684) 
39 5
40 5
44 8
62 4
63 8
76 6
88 5
91 4
105 5
113 10
114 43
115 7
142 4
152 4
170 65
171 10
181 6
182 10
210 99.99
211 16

>  <PREDICTED SPECTRUM>  (4684) 
25 9
26 23
27 58
28 44
37 48
38 94
39 176
40 81
41 111
42 28
43 235
44 92
50 167
51 197
52 65
53 121
54 18
55 74
57 127
58 17
61 93
62 221
63 346
64 134
65 66
67 47
68 64
69 60
71 22
72 11
74 191
75 212
76 117
77 11
81 25
82 22
84 35
85 113
86 140
87 145
88 268
89 190
98 53
99 39
100 43
101 86
112 16
113 360
114 617
115 342
116 60
125 57
126 171
127 139
128 88
139 15
140 171
141 207
142 275
143 208
152 26
153 131
154 64
155 97
156 78
168 62
169 37
170 829
171 502
181 302
182 341
183 132
184 18
195 95
210 999
211 420
212 120
213 11

$$$$

     RDKit          2D

 16 18  0  0  0  0  0  0  0  0999 V2000
    5.1989    1.5002    0.0000 C   0  0  0  0  0  0  0  0  0  0  0  0
   -3.9000   -0.7500    0.0000 C   0  0  0  0  0  0  0  0  0  0  0  0
   -3.9000    0.7500    0.0000 C   0  0  0  0  0  0  0  0  0  0  0  0
   -2.6000   -1.5000    0.0000 C   0  0  0  0  0  0  0  0  0  0  0  0
   -2.6000    1.5000    0.0000 C   0  0  0  0  0  0  0  0  0  0  0  0
    3.9000   -0.7500    0.0000 C   0  0  0  0  0  0  0  0  0  0  0  0
    0.0000   -1.5000    0.0000 C   0  0  0  0  0  0  0  0  0  0  0  0
    0.0000    1.5000    0.0000 C   0  0  0  0  0  0  0  0  0  0  0  0
    3.9000    0.7500    0.0000 C   0  0  0  0  0  0  0  0  0  0  0  0
   -1.3000   -0.7500    0.0000 C   0  0  0  0  0  0  0  0  0  0  0  0
   -1.3000    0.7500    0.0000 C   0  0  0  0  0  0  0  0  0  0  0  0
    1.3000   -0.7500    0.0000 C   0  0  0  0  0  0  0  0  0  0  0  0
    2.6000   -1.5000    0.0000 C   0  0  0  0  0  0  0  0  0  0  0  0
    1.3000    0.7500    0.0000 C   0  0  0  0  0  0  0  0  0  0  0  0
    2.6000   -3.0000    0.0000 O   0  0  0  0  0  0  0  0  0  0  0  0
    2.6000    1.5000    0.0000 O   0  0  0  0  0  0  0  0  0  0  0  0
  3  2  2  0
  4  2  1  0
  5  3  1  0
  9  1  1  0
  9  6  2  0
 10  4  2  0
 10  7  1  0
 11  5  2  0
 11  8  1  0
 11 10  1  0
 12  7  2  0
 13  6  1  0
 13 12  1  0
 14  8  2  0
 14 12  1  0
 15 13  2  0
 16  9  1  0
 16 14  1  0
M  END
>  <NAME>  (4685) 
2-METHYL-(6,7)-BENZOCHROMONE

>  <SYNONYMS>  (4685) 


>  <SPECTRUM TYPE>  (4685) 
MS1

>  <INSTRUMENT TYPE>  (4685) 
EI-B

>  <INSTRUMENT>  (4685) 
HITACHI RMU-7

>  <ION MODE>  (4685) 
P

>  <INCHIKEY>  (4685) 
SWQVFJKTDLQTHJ-UHFFFAOYSA-N

>  <FORMULA>  (4685) 
C14H10O2

>  <EXACT MASS>  (4685) 
210.06807956

>  <MW>  (4685) 
210

>  <ID>  (4685) 
JP003216

>  <CONTRIBUTOR>  (4685) 
University of Tokyo Team, {Faculty of Engineering, University of Tokyo

>  <COMMENT>  (4685) 
SMILES=CC(=C1)Oc(c2)c(cc(c3)c(ccc3)2)C(=O)1
InChI=InChI=1S/C14H10O2/c1-9-6-13(15)12-7-10-4-2-3-5-11(10)8-14(12)16-9/h2-8H,1H3
computed SMILES=O=C1C=C(OC2=CC=3C=CC=CC3C=C12)C
ion type=[M]+*
accession=JP003216
date=2016.01.19 (Created 2008.10.21, modified 2011.05.06)
author=NAKATA H, DEPT. OF CHEMISTRY, AICHI KYOIKU UNIV.
license=CC BY-NC-SA
exact mass=210.06808
ionization energy=70 eV
computed spectral entropy=2.143201749644506
computed normalized entropy=0.7914187664512999
SPLASH=splash10-03di-3890000000-a89c74065df0b9c05fd6
submitter=submitter = University of Tokyo Team (Faculty of Engineering, University of Tokyo)
MoNA Rating=3.75

>  <NUM PEAKS>  (4685) 
15

>  <MASS SPECTRAL PEAKS>  (4685) 
39 5
40 6
44 11
63 6
76 6
91 7
113 6
114 19
115 5
142 28
170 33
171 7
182 6
210 99.99
212 16

>  <PREDICTED SPECTRUM>  (4685) 
27 38
28 27
37 4
38 31
39 136
40 67
41 93
42 26
43 121
44 79
50 75
51 132
52 39
53 90
54 8
55 105
57 74
61 29
62 139
63 212
64 57
67 21
68 31
69 16
71 2
74 113
75 138
76 72
77 39
82 19
85 45
86 98
87 139
88 182
89 104
98 23
99 46
100 71
101 60
102 33
113 269
114 408
115 238
116 19
126 177
127 218
128 230
140 229
141 210
142 275
143 125
152 3
153 53
154 65
155 201
156 118
168 12
169 76
170 490
181 226
182 237
183 117
195 27
209 4
210 999
211 383
212 67

$$$$

     RDKit          2D

 20 22  0  0  0  0  0  0  0  0999 V2000
    1.7120   -4.4499    0.0000 C   0  0  0  0  0  0  0  0  0  0  0  0
   -0.8401    4.5594    0.0000 C   0  0  0  0  0  0  0  0  0  0  0  0
    3.0789    3.7943    0.0000 C   0  0  0  0  0  0  0  0  0  0  0  0
   -3.4100    0.0600    0.0000 C   0  0  0  0  0  0  0  0  0  0  0  0
   -3.4100    1.5500    0.0000 C   0  0  0  0  0  0  0  0  0  0  0  0
   -2.1200   -0.6900    0.0000 C   0  0  0  0  0  0  0  0  0  0  0  0
   -2.1200    2.2900    0.0000 C   0  0  0  0  0  0  0  0  0  0  0  0
    3.0400   -2.2100    0.0000 C   0  0  0  0  0  0  0  0  0  0  0  0
    1.7300   -2.9500    0.0000 C   0  0  0  0  0  0  0  0  0  0  0  0
   -0.8300    0.0500    0.0000 C   0  0  0  0  0  0  0  0  0  0  0  0
   -0.8300    1.5600    0.0000 C   0  0  0  0  0  0  0  0  0  0  0  0
    3.0600   -0.7000    0.0000 C   0  0  0  0  0  0  0  0  0  0  0  0
    1.7600    0.0500    0.0000 C   0  0  0  0  0  0  0  0  0  0  0  0
    0.4500   -0.6900    0.0000 C   0  0  0  0  0  0  0  0  0  0  0  0
    0.4600    2.3100    0.0000 C   0  0  0  0  0  0  0  0  0  0  0  0
    1.7700    1.5500    0.0000 C   0  0  0  0  0  0  0  0  0  0  0  0
    4.3639    0.0416    0.0000 O   0  0  0  0  0  0  0  0  0  0  0  0
    0.4593    3.8100    0.0000 O   0  0  0  0  0  0  0  0  0  0  0  0
    3.0723    2.2943    0.0000 O   0  0  0  0  0  0  0  0  0  0  0  0
    0.4400   -2.1800    0.0000 O   0  0  0  0  0  0  0  0  0  0  0  0
  5  4  2  0
  6  4  1  0
  7  5  1  0
  9  1  1  0
  9  8  2  0
 10  6  2  0
 11  7  2  0
 11 10  1  0
 12  8  1  0
 13 12  1  0
 14 10  1  0
 14 13  2  0
 15 11  1  0
 16 13  1  0
 16 15  2  0
 17 12  2  0
 18  2  1  0
 18 15  1  0
 19  3  1  0
 19 16  1  0
 20  9  1  0
 20 14  1  0
M  END
>  <NAME>  (4686) 
2-METHYL-5,6-DIMETHOXY-(7,8)-BENZOCHROMONE

>  <SYNONYMS>  (4686) 


>  <SPECTRUM TYPE>  (4686) 
MS1

>  <INSTRUMENT TYPE>  (4686) 
EI-B

>  <INSTRUMENT>  (4686) 
HITACHI RMU-7

>  <ION MODE>  (4686) 
P

>  <INCHIKEY>  (4686) 
CXGBFFFTAHFALN-UHFFFAOYSA-N

>  <FORMULA>  (4686) 
C16H14O4

>  <EXACT MASS>  (4686) 
270.089208928

>  <MW>  (4686) 
270

>  <ID>  (4686) 
JP003215

>  <CONTRIBUTOR>  (4686) 
University of Tokyo Team, {Faculty of Engineering, University of Tokyo

>  <COMMENT>  (4686) 
SMILES=COc(c21)c(OC)c(C(=O)3)c(OC(C)=C3)c(cccc2)1
InChI=InChI=1S/C16H14O4/c1-9-8-12(17)13-14(20-9)10-6-4-5-7-11(10)15(18-2)16(13)19-3/h4-8H,1-3H3
computed SMILES=O=C1C=C(OC=2C=3C=CC=CC3C(OC)=C(OC)C12)C
accession=JP003215
date=2016.01.19 (Created 2008.10.21, modified 2011.05.06)
author=NAKATA H, DEPT. OF CHEMISTRY, AICHI KYOIKU UNIV.
license=CC BY-NC-SA
exact mass=270.08921
ionization energy=70 eV
ion type=[M]+*
computed spectral entropy=3.2618412086759414
computed normalized entropy=0.8619655789550206
SPLASH=splash10-0a6r-3490000000-5d7cba37e73522da81fe
submitter=submitter = University of Tokyo Team (Faculty of Engineering, University of Tokyo)
MoNA Rating=3.75

>  <NUM PEAKS>  (4686) 
44

>  <MASS SPECTRAL PEAKS>  (4686) 
39 8
43 8
44 13
50 5
63 6
64 6
74 9
75 8
76 20
77 9
78 5
88 7
91 9
92 5
100 5
101 8
103 6
104 25
105 6
113 6
115 6
119 6
127 8
128 11
129 5
157 8
185 5
187 28
198 5
201 6
210 5
215 5
224 6
225 4
226 5
227 70
228 11
238 7
240 10
253 5
255 99.99
256 19
270 48
271 7

>  <PREDICTED SPECTRUM>  (4686) 
14 0
15 57
26 8
27 66
28 41
29 89
30 18
31 37
38 48
39 145
40 60
41 62
42 27
43 207
44 46
50 157
51 182
52 50
53 117
54 13
55 41
57 34
61 27
62 107
63 190
64 88
65 70
66 60
67 57
69 84
71 27
72 1
74 120
75 208
76 270
77 282
78 78
79 16
82 4
83 26
84 1
85 37
86 78
87 120
88 81
89 98
90 46
91 45
92 83
93 9
97 13
98 29
99 70
100 70
101 145
102 187
103 67
104 165
105 196
106 43
110 20
111 23
112 5
113 113
114 97
115 179
116 41
117 43
119 17
125 34
126 131
127 219
128 172
129 209
130 119
131 42
137 4
138 23
139 165
140 34
141 114
142 83
143 165
144 170
145 111
153 68
154 21
155 85
156 75
157 105
158 119
168 25
169 114
170 75
171 269
172 102
173 121
174 5
181 34
183 63
184 96
185 102
186 75
187 63
195 33
196 137
197 151
198 103
199 281
200 117
201 28
209 2
210 28
211 108
212 158
213 193
214 99
215 45
224 109
225 137
226 61
227 260
228 84
237 9
239 219
240 245
241 221
242 105
252 19
253 19
254 0
255 999
256 394
257 144
258 3
269 100
270 684
271 298
272 57

$$$$

     RDKit          2D

 18 20  0  0  0  0  0  0  0  0999 V2000
    1.7120   -4.4499    0.0000 C   0  0  0  0  0  0  0  0  0  0  0  0
    3.0789    3.7943    0.0000 C   0  0  0  0  0  0  0  0  0  0  0  0
   -3.4100    1.5500    0.0000 C   0  0  0  0  0  0  0  0  0  0  0  0
   -3.4100    0.0600    0.0000 C   0  0  0  0  0  0  0  0  0  0  0  0
   -2.1200    2.2900    0.0000 C   0  0  0  0  0  0  0  0  0  0  0  0
   -2.1200   -0.6900    0.0000 C   0  0  0  0  0  0  0  0  0  0  0  0
    3.0400   -2.2100    0.0000 C   0  0  0  0  0  0  0  0  0  0  0  0
    0.4600    2.3100    0.0000 C   0  0  0  0  0  0  0  0  0  0  0  0
    1.7300   -2.9500    0.0000 C   0  0  0  0  0  0  0  0  0  0  0  0
   -0.8300    1.5600    0.0000 C   0  0  0  0  0  0  0  0  0  0  0  0
   -0.8300    0.0500    0.0000 C   0  0  0  0  0  0  0  0  0  0  0  0
    3.0600   -0.7000    0.0000 C   0  0  0  0  0  0  0  0  0  0  0  0
    1.7700    1.5500    0.0000 C   0  0  0  0  0  0  0  0  0  0  0  0
    1.7600    0.0500    0.0000 C   0  0  0  0  0  0  0  0  0  0  0  0
    0.4500   -0.6900    0.0000 C   0  0  0  0  0  0  0  0  0  0  0  0
    4.3639    0.0416    0.0000 O   0  0  0  0  0  0  0  0  0  0  0  0
    3.0723    2.2943    0.0000 O   0  0  0  0  0  0  0  0  0  0  0  0
    0.4400   -2.1800    0.0000 O   0  0  0  0  0  0  0  0  0  0  0  0
  4  3  2  0
  5  3  1  0
  6  4  1  0
  9  1  1  0
  9  7  2  0
 10  5  2  0
 10  8  1  0
 11  6  2  0
 11 10  1  0
 12  7  1  0
 13  8  2  0
 14 12  1  0
 14 13  1  0
 15 11  1  0
 15 14  2  0
 16 12  2  0
 17  2  1  0
 17 13  1  0
 18  9  1  0
 18 15  1  0
M  END
>  <NAME>  (4687) 
2-METHYL-5-METHOXY-(7,8)-BENZOCHROMONE

>  <SYNONYMS>  (4687) 


>  <SPECTRUM TYPE>  (4687) 
MS1

>  <INSTRUMENT TYPE>  (4687) 
EI-B

>  <INSTRUMENT>  (4687) 
HITACHI RMU-7

>  <ION MODE>  (4687) 
P

>  <INCHIKEY>  (4687) 
LKTYFWWDJDOZRH-UHFFFAOYSA-N

>  <FORMULA>  (4687) 
C15H12O3

>  <EXACT MASS>  (4687) 
240.07864424399997

>  <MW>  (4687) 
240

>  <ID>  (4687) 
JP003214

>  <CONTRIBUTOR>  (4687) 
University of Tokyo Team, {Faculty of Engineering, University of Tokyo

>  <COMMENT>  (4687) 
SMILES=COc(c1)c(C(=O)3)c(OC(C)=C3)c(c2)c(ccc2)1
InChI=InChI=1S/C15H12O3/c1-9-7-12(16)14-13(17-2)8-10-5-3-4-6-11(10)15(14)18-9/h3-8H,1-2H3
computed SMILES=O=C1C=C(OC=2C=3C=CC=CC3C=C(OC)C12)C
accession=JP003214
date=2016.01.19 (Created 2008.10.21, modified 2011.05.06)
author=NAKATA H, DEPT. OF CHEMISTRY, AICHI KYOIKU UNIV.
license=CC BY-NC-SA
exact mass=240.07864
ionization energy=70 eV
ion type=[M]+*
computed spectral entropy=3.3698172734961114
computed normalized entropy=0.8752436587104852
SPLASH=splash10-01ox-3980000000-f7a89e0d200f1d618725
submitter=submitter = University of Tokyo Team (Faculty of Engineering, University of Tokyo)
MoNA Rating=3.75

>  <NUM PEAKS>  (4687) 
47

>  <MASS SPECTRAL PEAKS>  (4687) 
39 13
43 7
44 9
50 5
51 12
62 6
63 15
67 6
74 8
75 16
76 12
77 6
78 10
86 5
87 7
89 5
101 35
102 7
106 6
113 10
114 28
115 10
120 11
126 6
127 8
129 6
139 6
142 6
152 7
157 23
165 6
170 46
171 11
181 6
182 8
194 75
195 12
210 17
211 83
212 13
222 8
223 11
226 5
237 6
239 46
240 99.99
241 17

>  <PREDICTED SPECTRUM>  (4687) 
26 18
27 97
28 20
29 75
38 7
39 131
40 16
41 54
43 333
44 57
50 133
51 183
52 28
53 37
55 61
57 60
62 122
63 198
64 55
65 1
69 36
71 24
74 99
75 213
76 177
77 134
85 5
86 56
87 111
88 168
89 59
98 33
99 71
100 63
101 249
102 195
113 219
114 286
115 162
126 82
127 114
128 166
129 217
130 96
139 46
140 71
141 248
142 188
143 70
155 77
156 21
157 117
168 84
169 299
170 139
171 49
172 27
181 10
182 58
183 55
194 87
195 9
196 31
197 174
198 34
209 19
210 250
211 571
212 268
213 21
222 10
225 205
226 63
239 360
240 999
241 418
242 98

$$$$

     RDKit          2D

 18 20  0  0  0  0  0  0  0  0999 V2000
    1.7600    4.4500    0.0000 C   0  0  0  0  0  0  0  0  0  0  0  0
   -4.7287   -3.8002    0.0000 C   0  0  0  0  0  0  0  0  0  0  0  0
    0.4600   -2.3000    0.0000 C   0  0  0  0  0  0  0  0  0  0  0  0
   -3.4300   -0.0500    0.0000 C   0  0  0  0  0  0  0  0  0  0  0  0
   -2.1300    0.7000    0.0000 C   0  0  0  0  0  0  0  0  0  0  0  0
    1.7600   -1.5500    0.0000 C   0  0  0  0  0  0  0  0  0  0  0  0
   -2.1300   -2.3000    0.0000 C   0  0  0  0  0  0  0  0  0  0  0  0
    3.0600    2.2000    0.0000 C   0  0  0  0  0  0  0  0  0  0  0  0
    1.7600    2.9500    0.0000 C   0  0  0  0  0  0  0  0  0  0  0  0
   -0.8300   -1.5500    0.0000 C   0  0  0  0  0  0  0  0  0  0  0  0
   -3.4300   -1.5500    0.0000 C   0  0  0  0  0  0  0  0  0  0  0  0
   -0.8300   -0.0500    0.0000 C   0  0  0  0  0  0  0  0  0  0  0  0
    1.7600   -0.0500    0.0000 C   0  0  0  0  0  0  0  0  0  0  0  0
    0.4600    0.7000    0.0000 C   0  0  0  0  0  0  0  0  0  0  0  0
    0.4600    2.2000    0.0000 C   0  0  0  0  0  0  0  0  0  0  0  0
   -0.8389    2.9502    0.0000 O   0  0  0  0  0  0  0  0  0  0  0  0
   -4.7289   -2.3002    0.0000 O   0  0  0  0  0  0  0  0  0  0  0  0
    3.0600    0.7000    0.0000 O   0  0  0  0  0  0  0  0  0  0  0  0
  5  4  1  0
  6  3  2  0
  9  1  1  0
  9  8  2  0
 10  3  1  0
 10  7  2  0
 11  4  2  0
 11  7  1  0
 12  5  2  0
 12 10  1  0
 13  6  1  0
 14 12  1  0
 14 13  2  0
 15  9  1  0
 15 14  1  0
 16 15  2  0
 17  2  1  0
 17 11  1  0
 18  8  1  0
 18 13  1  0
M  END
>  <NAME>  (4688) 
2-METHYL-8-METHOXY-(5,6)-BENZOCHROMONE

>  <SYNONYMS>  (4688) 


>  <SPECTRUM TYPE>  (4688) 
MS1

>  <INSTRUMENT TYPE>  (4688) 
EI-B

>  <INSTRUMENT>  (4688) 
HITACHI RMU-7

>  <ION MODE>  (4688) 
P

>  <INCHIKEY>  (4688) 
GMQHWDJLIRKNAG-UHFFFAOYSA-N

>  <FORMULA>  (4688) 
C15H12O3

>  <EXACT MASS>  (4688) 
240.07864424399997

>  <MW>  (4688) 
240

>  <ID>  (4688) 
JP003213

>  <CONTRIBUTOR>  (4688) 
University of Tokyo Team, {Faculty of Engineering, University of Tokyo

>  <COMMENT>  (4688) 
SMILES=COc(c3)cc(c1)c(c3)c(C(=O)2)c(OC=C(C)2)c1
InChI=InChI=1S/C15H12O3/c1-9-8-18-13-6-3-10-7-11(17-2)4-5-12(10)14(13)15(9)16/h3-8H,1-2H3
computed SMILES=O=C1C(=COC=2C=CC3=CC(OC)=CC=C3C21)C
accession=JP003213
date=2016.01.19 (Created 2008.10.21, modified 2011.05.06)
author=NAKATA H, DEPT. OF CHEMISTRY, AICHI KYOIKU UNIV.
license=CC BY-NC-SA
exact mass=240.07864
ionization energy=70 eV
ion type=[M]+*
computed spectral entropy=2.1377055122612703
computed normalized entropy=0.771014285355084
SPLASH=splash10-0006-1490000000-0efa0953d3203c835c66
submitter=submitter = University of Tokyo Team (Faculty of Engineering, University of Tokyo)
MoNA Rating=3.75

>  <NUM PEAKS>  (4688) 
16

>  <MASS SPECTRAL PEAKS>  (4688) 
18 6
28 7
39 5
63 5
75 7
101 12
115 6
129 6
157 4
169 33
170 8
171 5
212 6
225 16
240 99.99
241 16

>  <PREDICTED SPECTRUM>  (4688) 
43 3
57 43
87 29
88 26
98 12
101 26
113 62
114 50
115 98
140 74
141 220
142 52
143 33
157 96
158 42
169 334
170 163
171 250
172 50
197 183
201 159
211 128
212 74
225 514
226 112
239 49
240 999
241 275

$$$$

     RDKit          2D

 18 20  0  0  0  0  0  0  0  0999 V2000
    5.1989    1.5002    0.0000 C   0  0  0  0  0  0  0  0  0  0  0  0
   -6.4981    0.7504    0.0000 C   0  0  0  0  0  0  0  0  0  0  0  0
   -2.6000   -1.5000    0.0000 C   0  0  0  0  0  0  0  0  0  0  0  0
   -3.9000   -0.7500    0.0000 C   0  0  0  0  0  0  0  0  0  0  0  0
    3.9000   -0.7500    0.0000 C   0  0  0  0  0  0  0  0  0  0  0  0
   -2.6000    1.5000    0.0000 C   0  0  0  0  0  0  0  0  0  0  0  0
    0.0000   -1.5000    0.0000 C   0  0  0  0  0  0  0  0  0  0  0  0
    0.0000    1.5000    0.0000 C   0  0  0  0  0  0  0  0  0  0  0  0
    3.9000    0.7500    0.0000 C   0  0  0  0  0  0  0  0  0  0  0  0
   -1.3000   -0.7500    0.0000 C   0  0  0  0  0  0  0  0  0  0  0  0
   -1.3000    0.7500    0.0000 C   0  0  0  0  0  0  0  0  0  0  0  0
   -3.9000    0.7500    0.0000 C   0  0  0  0  0  0  0  0  0  0  0  0
    1.3000   -0.7500    0.0000 C   0  0  0  0  0  0  0  0  0  0  0  0
    2.6000   -1.5000    0.0000 C   0  0  0  0  0  0  0  0  0  0  0  0
    1.3000    0.7500    0.0000 C   0  0  0  0  0  0  0  0  0  0  0  0
    2.6000   -3.0000    0.0000 O   0  0  0  0  0  0  0  0  0  0  0  0
   -5.1989    1.5002    0.0000 O   0  0  0  0  0  0  0  0  0  0  0  0
    2.6000    1.5000    0.0000 O   0  0  0  0  0  0  0  0  0  0  0  0
  4  3  2  0
  9  1  1  0
  9  5  2  0
 10  3  1  0
 10  7  2  0
 11  6  1  0
 11  8  2  0
 11 10  1  0
 12  4  1  0
 12  6  2  0
 13  7  1  0
 14  5  1  0
 14 13  1  0
 15  8  1  0
 15 13  2  0
 16 14  2  0
 17  2  1  0
 17 12  1  0
 18  9  1  0
 18 15  1  0
M  END
>  <NAME>  (4689) 
2-METHYL-8-METHOXY-(6,7)-BENZOCHROMONE

>  <SYNONYMS>  (4689) 


>  <SPECTRUM TYPE>  (4689) 
MS1

>  <INSTRUMENT TYPE>  (4689) 
EI-B

>  <INSTRUMENT>  (4689) 
HITACHI RMU-7

>  <ION MODE>  (4689) 
P

>  <INCHIKEY>  (4689) 
SZNVNGQSAXUMDC-UHFFFAOYSA-N

>  <FORMULA>  (4689) 
C15H12O3

>  <EXACT MASS>  (4689) 
240.07864424399997

>  <MW>  (4689) 
240

>  <ID>  (4689) 
JP003212

>  <CONTRIBUTOR>  (4689) 
University of Tokyo Team, {Faculty of Engineering, University of Tokyo

>  <COMMENT>  (4689) 
SMILES=COc(c3)cc(c1)c(c3)cc(C(=O)2)c(OC(C)=C2)1
InChI=InChI=1S/C15H12O3/c1-9-5-14(16)13-7-10-3-4-12(17-2)6-11(10)8-15(13)18-9/h3-8H,1-2H3
computed SMILES=O=C1C=C(OC=2C=C3C=C(OC)C=CC3=CC12)C
accession=JP003212
date=2016.01.19 (Created 2008.10.21, modified 2011.05.06)
author=NAKATA H, DEPT. OF CHEMISTRY, AICHI KYOIKU UNIV.
license=CC BY-NC-SA
exact mass=240.07864
ionization energy=70 eV
ion type=[M]+*
computed spectral entropy=2.423697002764902
computed normalized entropy=0.8231439061613841
SPLASH=splash10-054o-1890000000-d7490250e07f3f8d51a7
submitter=submitter = University of Tokyo Team (Faculty of Engineering, University of Tokyo)
MoNA Rating=3.75

>  <NUM PEAKS>  (4689) 
19

>  <MASS SPECTRAL PEAKS>  (4689) 
39 6
44 8
51 6
63 6
75 12
100 8
101 31
102 5
113 6
120 6
157 57
158 27
185 57
186 8
225 73
226 12
232 5
240 99.99
241 16

>  <PREDICTED SPECTRUM>  (4689) 
39 78
40 15
41 104
43 164
44 40
50 32
51 71
53 58
55 180
57 38
62 61
63 119
64 13
67 16
68 10
69 33
74 41
75 130
76 56
77 50
85 30
86 70
87 110
88 68
89 38
98 61
99 61
100 186
101 301
102 92
113 124
114 161
115 46
123 48
126 4
127 29
128 50
129 59
140 35
141 47
157 732
158 349
159 40
185 786
186 268
197 101
200 0
211 106
212 4
225 615
226 219
239 28
240 999
241 392
242 89

$$$$

     RDKit          2D

 16 18  0  0  0  0  0  0  0  0999 V2000
    1.7600    4.4500    0.0000 C   0  0  0  0  0  0  0  0  0  0  0  0
   -3.4300   -1.5500    0.0000 C   0  0  0  0  0  0  0  0  0  0  0  0
   -3.4300   -0.0500    0.0000 C   0  0  0  0  0  0  0  0  0  0  0  0
   -2.1300   -2.3000    0.0000 C   0  0  0  0  0  0  0  0  0  0  0  0
   -2.1300    0.7000    0.0000 C   0  0  0  0  0  0  0  0  0  0  0  0
    0.4600   -2.3000    0.0000 C   0  0  0  0  0  0  0  0  0  0  0  0
    1.7600   -1.5500    0.0000 C   0  0  0  0  0  0  0  0  0  0  0  0
    3.0600    2.2000    0.0000 C   0  0  0  0  0  0  0  0  0  0  0  0
    1.7600    2.9500    0.0000 C   0  0  0  0  0  0  0  0  0  0  0  0
   -0.8300   -1.5500    0.0000 C   0  0  0  0  0  0  0  0  0  0  0  0
   -0.8300   -0.0500    0.0000 C   0  0  0  0  0  0  0  0  0  0  0  0
    1.7600   -0.0500    0.0000 C   0  0  0  0  0  0  0  0  0  0  0  0
    0.4600    0.7000    0.0000 C   0  0  0  0  0  0  0  0  0  0  0  0
    0.4600    2.2000    0.0000 C   0  0  0  0  0  0  0  0  0  0  0  0
   -0.8389    2.9502    0.0000 O   0  0  0  0  0  0  0  0  0  0  0  0
    3.0600    0.7000    0.0000 O   0  0  0  0  0  0  0  0  0  0  0  0
  3  2  2  0
  4  2  1  0
  5  3  1  0
  7  6  2  0
  9  1  1  0
  9  8  2  0
 10  4  2  0
 10  6  1  0
 11  5  2  0
 11 10  1  0
 12  7  1  0
 13 11  1  0
 13 12  2  0
 14  9  1  0
 14 13  1  0
 15 14  2  0
 16  8  1  0
 16 12  1  0
M  END
>  <NAME>  (4690) 
2-METHYL-(5,6)-BENZOCHROMONE

>  <SYNONYMS>  (4690) 


>  <SPECTRUM TYPE>  (4690) 
MS1

>  <INSTRUMENT TYPE>  (4690) 
EI-B

>  <INSTRUMENT>  (4690) 
HITACHI RMU-7

>  <ION MODE>  (4690) 
P

>  <INCHIKEY>  (4690) 
QKXPXHGARVWXOW-UHFFFAOYSA-N

>  <FORMULA>  (4690) 
C14H10O2

>  <EXACT MASS>  (4690) 
210.06807956

>  <MW>  (4690) 
210

>  <ID>  (4690) 
JP003211

>  <CONTRIBUTOR>  (4690) 
University of Tokyo Team, {Faculty of Engineering, University of Tokyo

>  <COMMENT>  (4690) 
SMILES=CC(=C3)C(=O)c(c(O3)1)c(c2)c(ccc2)cc1
InChI=InChI=1S/C14H10O2/c1-9-8-16-12-7-6-10-4-2-3-5-11(10)13(12)14(9)15/h2-8H,1H3
computed SMILES=O=C1C(=COC=2C=CC=3C=CC=CC3C21)C
accession=JP003211
date=2016.01.19 (Created 2008.10.21, modified 2011.05.06)
author=NAKATA H, DEPT. OF CHEMISTRY, AICHI KYOIKU UNIV.
license=CC BY-NC-SA
exact mass=210.06808
ionization energy=70 eV
ion type=[M]+*
computed spectral entropy=2.415313447660678
computed normalized entropy=0.8202966557467747
SPLASH=splash10-03fr-9880000000-405a9f5348f41a322e2f
submitter=submitter = University of Tokyo Team (Faculty of Engineering, University of Tokyo)
MoNA Rating=3.75

>  <NUM PEAKS>  (4690) 
19

>  <MASS SPECTRAL PEAKS>  (4690) 
18 9
28 79
32 21
39 5
63 7
76 8
91 7
105 5
113 8
114 25
115 5
142 9
152 5
170 20
181 15
182 29
209 5
210 99.99
211 20

>  <PREDICTED SPECTRUM>  (4690) 
27 8
28 6
38 19
39 75
40 19
41 0
43 10
44 70
49 5
50 117
51 172
52 98
53 51
54 12
55 28
57 21
61 7
62 79
63 150
64 89
65 0
66 0
67 9
68 4
69 44
70 11
71 36
74 106
75 118
76 166
77 163
78 63
79 15
82 28
83 29
84 7
86 31
87 39
88 117
89 80
91 0
95 5
97 24
98 70
99 119
100 75
101 79
102 37
105 11
106 36
110 18
112 16
113 88
114 142
115 116
116 2
122 19
124 41
125 110
126 217
127 202
128 187
129 47
139 46
140 93
141 60
142 47
143 34
151 128
152 262
153 291
154 277
155 124
156 72
164 26
165 25
166 9
167 12
168 26
169 6
170 67
181 361
182 508
183 209
184 44
195 68
208 8
209 260
210 999
211 354
212 106

$$$$

     RDKit          2D

 14 15  0  0  0  0  0  0  0  0999 V2000
    5.1974   -3.0004    0.0000 C   0  0  0  0  0  0  0  0  0  0  0  0
    6.4971    0.7512    0.0000 C   0  0  0  0  0  0  0  0  0  0  0  0
    5.1981    1.5012    0.0000 C   0  0  0  0  0  0  0  0  0  0  0  0
    0.0000    1.5000    0.0000 C   0  0  0  0  0  0  0  0  0  0  0  0
   -1.3000    0.7500    0.0000 C   0  0  0  0  0  0  0  0  0  0  0  0
    6.4966   -0.7496    0.0000 C   0  0  0  0  0  0  0  0  0  0  0  0
    3.8986    0.7504    0.0000 C   0  0  0  0  0  0  0  0  0  0  0  0
    1.3000    0.7500    0.0000 C   0  0  0  0  0  0  0  0  0  0  0  0
   -1.3000   -0.7500    0.0000 C   0  0  0  0  0  0  0  0  0  0  0  0
    5.1971   -1.5004    0.0000 C   0  0  0  0  0  0  0  0  0  0  0  0
    3.8981   -0.7504    0.0000 C   0  0  0  0  0  0  0  0  0  0  0  0
    1.3000   -0.7500    0.0000 C   0  0  0  0  0  0  0  0  0  0  0  0
    0.0000   -1.5000    0.0000 N   0  0  0  0  0  0  0  0  0  0  0  0
    2.5989   -1.5002    0.0000 O   0  0  0  0  0  0  0  0  0  0  0  0
  3  2  2  0
  5  4  2  0
  6  2  1  0
  7  3  1  0
  8  4  1  0
  9  5  1  0
 10  1  1  0
 10  6  2  0
 11  7  2  0
 11 10  1  0
 12  8  2  0
 13  9  2  0
 13 12  1  0
 14 11  1  0
 14 12  1  0
M  END
>  <NAME>  (4691) 
2-PYRIDYL O-TOLYL ETHER

>  <SYNONYMS>  (4691) 


>  <SPECTRUM TYPE>  (4691) 
MS1

>  <INSTRUMENT TYPE>  (4691) 
EI-B

>  <INSTRUMENT>  (4691) 
HITACHI RMU-7

>  <ION MODE>  (4691) 
P

>  <INCHIKEY>  (4691) 
JSESVCSCPLOCRY-UHFFFAOYSA-N

>  <FORMULA>  (4691) 
C12H11NO

>  <EXACT MASS>  (4691) 
185.084063972

>  <MW>  (4691) 
185

>  <ID>  (4691) 
JP003210

>  <CONTRIBUTOR>  (4691) 
University of Tokyo Team, {Faculty of Engineering, University of Tokyo

>  <COMMENT>  (4691) 
SMILES=Cc(c2)c(ccc2)Oc(c1)nccc1
InChI=InChI=1S/C12H11NO/c1-10-6-2-3-7-11(10)14-12-8-4-5-9-13-12/h2-9H,1H3
computed SMILES=N=1C=CC=CC1OC=2C=CC=CC2C
accession=JP003210
date=2016.01.19 (Created 2008.10.21, modified 2011.05.06)
author=NAKATA H, DEPT. OF CHEMISTRY, AICHI KYOIKU UNIV.
license=CC BY-NC-SA
exact mass=185.08406
ionization energy=70 eV
ion type=[M]+*
computed spectral entropy=2.9338576501648124
computed normalized entropy=0.8712800414024203
SPLASH=splash10-015i-4900000000-8b1609aec4dd8bb44e6f
submitter=submitter = University of Tokyo Team (Faculty of Engineering, University of Tokyo)
MoNA Rating=3.75

>  <NUM PEAKS>  (4691) 
29

>  <MASS SPECTRAL PEAKS>  (4691) 
50 6
51 27
52 14
53 6
63 8
64 4
65 17
74 14
77 16
78 30
79 16
89 11
90 6
91 14
104 15
128 5
129 6
130 11
154 7
156 20
167 9
168 99.99
169 17
170 54
171 8
183 5
184 68
185 75
186 20

>  <PREDICTED SPECTRUM>  (4691) 
26 23
27 55
28 26
38 54
39 284
40 37
41 18
50 198
51 458
52 281
53 132
54 43
55 11
61 10
62 69
63 297
64 180
65 414
66 161
67 15
74 89
75 100
76 109
77 485
78 553
79 230
80 54
89 290
90 231
91 340
92 245
93 141
94 7
102 57
103 36
104 43
115 206
116 124
117 63
127 44
128 205
129 231
130 242
131 111
132 9
138 44
141 84
142 149
143 2
153 31
154 159
155 125
156 455
157 311
158 144
166 113
167 269
168 871
169 451
170 603
171 150
182 31
183 180
184 999
185 948
186 363
187 56

$$$$

     RDKit          2D

 14 15  0  0  0  0  0  0  0  0999 V2000
    5.2038    2.9980    0.0000 C   0  0  0  0  0  0  0  0  0  0  0  0
   -0.0000    1.5000    0.0000 C   0  0  0  0  0  0  0  0  0  0  0  0
   -1.3000    0.7500    0.0000 C   0  0  0  0  0  0  0  0  0  0  0  0
    6.4916   -0.7473    0.0000 C   0  0  0  0  0  0  0  0  0  0  0  0
    6.4989    0.7448    0.0000 C   0  0  0  0  0  0  0  0  0  0  0  0
    5.1912   -1.4950    0.0000 C   0  0  0  0  0  0  0  0  0  0  0  0
    1.3000    0.7500    0.0000 C   0  0  0  0  0  0  0  0  0  0  0  0
   -1.3000   -0.7500    0.0000 C   0  0  0  0  0  0  0  0  0  0  0  0
    3.9003    0.7504    0.0000 C   0  0  0  0  0  0  0  0  0  0  0  0
    5.2008    1.4980    0.0000 C   0  0  0  0  0  0  0  0  0  0  0  0
    3.8981   -0.7504    0.0000 C   0  0  0  0  0  0  0  0  0  0  0  0
    1.3000   -0.7500    0.0000 C   0  0  0  0  0  0  0  0  0  0  0  0
   -0.0000   -1.5000    0.0000 N   0  0  0  0  0  0  0  0  0  0  0  0
    2.5989   -1.5002    0.0000 O   0  0  0  0  0  0  0  0  0  0  0  0
  3  2  2  0
  5  4  2  0
  6  4  1  0
  7  2  1  0
  8  3  1  0
 10  1  1  0
 10  5  1  0
 10  9  2  0
 11  6  2  0
 11  9  1  0
 12  7  2  0
 13  8  2  0
 13 12  1  0
 14 11  1  0
 14 12  1  0
M  END
>  <NAME>  (4692) 
2-PYRIDYL M-TOLYL ETHER

>  <SYNONYMS>  (4692) 


>  <SPECTRUM TYPE>  (4692) 
MS1

>  <INSTRUMENT TYPE>  (4692) 
EI-B

>  <INSTRUMENT>  (4692) 
HITACHI RMU-7

>  <ION MODE>  (4692) 
P

>  <INCHIKEY>  (4692) 
OAWUVCPIXULPNA-UHFFFAOYSA-N

>  <FORMULA>  (4692) 
C12H11NO

>  <EXACT MASS>  (4692) 
185.084063972

>  <MW>  (4692) 
185

>  <ID>  (4692) 
JP003209

>  <CONTRIBUTOR>  (4692) 
University of Tokyo Team, {Faculty of Engineering, University of Tokyo

>  <COMMENT>  (4692) 
SMILES=Cc(c2)cc(cc2)Oc(c1)nccc1
InChI=InChI=1S/C12H11NO/c1-10-5-4-6-11(9-10)14-12-7-2-3-8-13-12/h2-9H,1H3
computed SMILES=N=1C=CC=CC1OC2=CC=CC(=C2)C
accession=JP003209
date=2016.01.19 (Created 2008.10.21, modified 2011.05.06)
author=NAKATA H, DEPT. OF CHEMISTRY, AICHI KYOIKU UNIV.
license=CC BY-NC-SA
exact mass=185.08406
ionization energy=70 eV
ion type=[M]+*
computed spectral entropy=2.7807822266085926
computed normalized entropy=0.853499027471192
SPLASH=splash10-0540-3900000000-b5c7ec18f645daf79d11
submitter=submitter = University of Tokyo Team (Faculty of Engineering, University of Tokyo)
MoNA Rating=3.75

>  <NUM PEAKS>  (4692) 
26

>  <MASS SPECTRAL PEAKS>  (4692) 
50 6
51 28
52 12
53 5
63 10
65 17
77 13
78 32
79 6
89 8
91 15
115 14
117 5
129 13
130 8
131 6
142 8
156 24
157 57
158 8
169 8
170 7
183 7
184 99.99
185 83
186 14

>  <PREDICTED SPECTRUM>  (4692) 
26 29
27 66
28 32
29 34
37 15
38 94
39 311
40 86
41 90
42 25
43 38
44 33
50 214
51 511
52 273
53 142
54 18
55 42
57 39
58 1
61 5
62 96
63 310
64 196
65 412
66 143
67 57
69 0
70 2
74 128
75 120
76 70
77 413
78 545
79 257
80 71
84 40
85 13
86 33
89 223
90 161
91 324
92 230
93 69
97 48
98 61
99 33
102 49
103 49
104 12
105 3
106 0
107 49
113 5
115 294
116 160
117 161
118 25
127 55
128 192
129 334
130 302
131 218
132 29
141 95
142 198
143 62
144 79
145 2
154 74
155 124
156 705
157 841
158 333
159 46
168 87
169 78
170 251
171 56
182 56
183 140
184 999
185 979
186 318
187 43

$$$$

     RDKit          2D

 13 14  0  0  0  0  0  0  0  0999 V2000
    6.4986    0.7488    0.0000 C   0  0  0  0  0  0  0  0  0  0  0  0
    6.4981   -0.7512    0.0000 C   0  0  0  0  0  0  0  0  0  0  0  0
    5.1988    1.4992    0.0000 C   0  0  0  0  0  0  0  0  0  0  0  0
    0.0000    1.5000    0.0000 C   0  0  0  0  0  0  0  0  0  0  0  0
   -1.3000    0.7500    0.0000 C   0  0  0  0  0  0  0  0  0  0  0  0
    5.1978   -1.5008    0.0000 C   0  0  0  0  0  0  0  0  0  0  0  0
    3.8986    0.7496    0.0000 C   0  0  0  0  0  0  0  0  0  0  0  0
    1.3000    0.7500    0.0000 C   0  0  0  0  0  0  0  0  0  0  0  0
   -1.3000   -0.7500    0.0000 C   0  0  0  0  0  0  0  0  0  0  0  0
    3.8981   -0.7504    0.0000 C   0  0  0  0  0  0  0  0  0  0  0  0
    1.3000   -0.7500    0.0000 C   0  0  0  0  0  0  0  0  0  0  0  0
    0.0000   -1.5000    0.0000 N   0  0  0  0  0  0  0  0  0  0  0  0
    2.5989   -1.5002    0.0000 O   0  0  0  0  0  0  0  0  0  0  0  0
  2  1  2  0
  3  1  1  0
  5  4  2  0
  6  2  1  0
  7  3  2  0
  8  4  1  0
  9  5  1  0
 10  6  2  0
 10  7  1  0
 11  8  2  0
 12  9  2  0
 12 11  1  0
 13 10  1  0
 13 11  1  0
M  END
>  <NAME>  (4693) 
2-PYRIDYL PHENYL ETHER

>  <SYNONYMS>  (4693) 


>  <SPECTRUM TYPE>  (4693) 
MS1

>  <INSTRUMENT TYPE>  (4693) 
EI-B

>  <INSTRUMENT>  (4693) 
HITACHI RMU-7

>  <ION MODE>  (4693) 
P

>  <INCHIKEY>  (4693) 
MEAAWTRWNWSLPF-UHFFFAOYSA-N

>  <FORMULA>  (4693) 
C11H9NO

>  <EXACT MASS>  (4693) 
171.068413908

>  <MW>  (4693) 
171

>  <ID>  (4693) 
JP003208

>  <CONTRIBUTOR>  (4693) 
University of Tokyo Team, {Faculty of Engineering, University of Tokyo

>  <COMMENT>  (4693) 
SMILES=c(c2)ccc(c2)Oc(c1)nccc1
InChI=InChI=1S/C11H9NO/c1-2-6-10(7-3-1)13-11-8-4-5-9-12-11/h1-9H
computed SMILES=N=1C=CC=CC1OC=2C=CC=CC2
accession=JP003208
date=2016.01.19 (Created 2008.10.21, modified 2011.05.06)
author=NAKATA H, DEPT. OF CHEMISTRY, AICHI KYOIKU UNIV.
license=CC BY-NC-SA
exact mass=171.06841
ionization energy=70 eV
ion type=[M]+*
computed spectral entropy=2.3885880067169056
computed normalized entropy=0.8430667643606551
SPLASH=splash10-00di-3900000000-07dbafc321dce244818c
submitter=submitter = University of Tokyo Team (Faculty of Engineering, University of Tokyo)
MoNA Rating=3.75

>  <NUM PEAKS>  (4693) 
17

>  <MASS SPECTRAL PEAKS>  (4693) 
50 9
51 39
52 9
65 8
77 18
78 32
85 6
104 6
115 23
116 13
117 14
142 8
143 56
144 7
170 99.99
171 91
172 15

>  <PREDICTED SPECTRUM>  (4693) 
26 1
28 23
37 19
38 76
39 217
40 84
41 87
42 15
49 25
50 207
51 550
52 185
53 62
54 48
62 36
63 131
64 27
65 172
66 113
67 56
68 38
70 46
74 73
75 61
76 78
77 460
78 503
79 60
89 129
93 34
94 52
95 3
96 33
97 3
103 30
104 100
114 5
115 393
116 266
117 249
118 48
141 90
142 289
143 768
144 258
145 35
169 12
170 999
171 872
172 266

$$$$

     RDKit          2D

 15 16  0  0  0  0  0  0  0  0999 V2000
   -5.1975   -0.0008    0.0000 C   0  0  0  0  0  0  0  0  0  0  0  0
    3.8974    2.2494    0.0000 C   0  0  0  0  0  0  0  0  0  0  0  0
    2.5977    3.0000    0.0000 C   0  0  0  0  0  0  0  0  0  0  0  0
    3.8981    0.7485    0.0000 C   0  0  0  0  0  0  0  0  0  0  0  0
    1.2988    2.2498    0.0000 C   0  0  0  0  0  0  0  0  0  0  0  0
    2.5992   -0.0017    0.0000 C   0  0  0  0  0  0  0  0  0  0  0  0
    0.0006   -1.5012    0.0000 C   0  0  0  0  0  0  0  0  0  0  0  0
   -2.5994   -1.5012    0.0000 C   0  0  0  0  0  0  0  0  0  0  0  0
    1.2995    0.7490    0.0000 C   0  0  0  0  0  0  0  0  0  0  0  0
   -1.2994   -2.2512    0.0000 C   0  0  0  0  0  0  0  0  0  0  0  0
    0.0006   -0.0012    0.0000 C   0  0  0  0  0  0  0  0  0  0  0  0
   -2.5994   -0.0012    0.0000 C   0  0  0  0  0  0  0  0  0  0  0  0
   -1.2994   -3.7512    0.0000 O   0  0  0  0  0  0  0  0  0  0  0  0
   -3.8983    0.7490    0.0000 O   0  0  0  0  0  0  0  0  0  0  0  0
   -1.2994    0.7488    0.0000 O   0  0  0  0  0  0  0  0  0  0  0  0
  3  2  2  0
  4  2  1  0
  5  3  1  0
  6  4  2  0
  9  5  2  0
  9  6  1  0
 10  7  1  0
 10  8  1  0
 11  7  2  0
 11  9  1  0
 12  8  2  0
 13 10  2  0
 14  1  1  0
 14 12  1  0
 15 11  1  0
 15 12  1  0
M  END
>  <NAME>  (4694) 
2-METHOXY-6-PHENYL-4-PYRONE

>  <SYNONYMS>  (4694) 


>  <SPECTRUM TYPE>  (4694) 
MS1

>  <INSTRUMENT TYPE>  (4694) 
EI-B

>  <INSTRUMENT>  (4694) 
HITACHI RMU-6D

>  <ION MODE>  (4694) 
P

>  <INCHIKEY>  (4694) 
FONPQIXOLUNZEO-UHFFFAOYSA-N

>  <FORMULA>  (4694) 
C12H10O3

>  <EXACT MASS>  (4694) 
202.06299417999998

>  <MW>  (4694) 
202

>  <ID>  (4694) 
JP003205

>  <CONTRIBUTOR>  (4694) 
University of Tokyo Team, {Faculty of Engineering, University of Tokyo

>  <COMMENT>  (4694) 
SMILES=COC(=C2)OC(=CC(=O)2)c(c1)cccc1
InChI=InChI=1S/C12H10O3/c1-14-12-8-10(13)7-11(15-12)9-5-3-2-4-6-9/h2-8H,1H3
computed SMILES=O=C1C=C(OC(=C1)C=2C=CC=CC2)OC
accession=JP003205
date=2016.01.19 (Created 2008.10.21, modified 2011.05.06)
author=NAKATA H, DEPT. OF CHEMISTRY, AICHI KYOIKU UNIV.
license=CC BY-NC-SA
exact mass=202.06299
ionization energy=70 eV
ion type=[M]+*
computed spectral entropy=2.441107725977245
computed normalized entropy=0.8445653121638829
SPLASH=splash10-0udi-6910000000-d4cdda6257f44ce57cd2
submitter=submitter = University of Tokyo Team (Faculty of Engineering, University of Tokyo)
MoNA Rating=3.75

>  <NUM PEAKS>  (4694) 
18

>  <MASS SPECTRAL PEAKS>  (4694) 
41 5
42 8
43 7
49 10
50 16
61 6
69 20
75 6
76 10
77 26
102 99.99
103 11
104 6
131 13
159 15
174 18
202 26
203 4

>  <PREDICTED SPECTRUM>  (4694) 
15 44
26 17
27 75
28 33
29 78
37 21
38 54
39 201
40 63
41 94
42 3
43 172
44 76
45 4
50 205
51 398
52 143
53 119
54 30
55 30
57 36
59 116
60 33
61 66
62 123
63 170
64 19
65 29
66 11
67 77
68 48
69 304
70 4
71 11
73 26
74 128
75 155
76 235
77 636
78 150
82 54
85 36
86 65
87 53
88 93
89 204
90 17
95 27
97 11
100 166
101 120
102 459
103 277
104 92
105 999
106 333
113 40
114 23
115 122
116 116
117 75
127 67
128 112
129 199
130 34
131 148
132 50
133 17
143 59
144 67
145 151
146 37
156 19
157 33
159 388
160 90
173 90
174 615
175 248
176 58
187 125
188 6
201 50
202 812
203 316
204 80

$$$$

     RDKit          2D

 10 10  0  0  0  0  0  0  0  0999 V2000
   -3.8981    3.0000    0.0000 C   0  0  0  0  0  0  0  0  0  0  0  0
    2.5989    2.2502    0.0000 C   0  0  0  0  0  0  0  0  0  0  0  0
   -2.5992    0.7498    0.0000 C   0  0  0  0  0  0  0  0  0  0  0  0
    0.0008    0.7498    0.0000 C   0  0  0  0  0  0  0  0  0  0  0  0
   -2.5992    2.2498    0.0000 C   0  0  0  0  0  0  0  0  0  0  0  0
   -1.2992   -0.0002    0.0000 C   0  0  0  0  0  0  0  0  0  0  0  0
    0.0008    2.2498    0.0000 C   0  0  0  0  0  0  0  0  0  0  0  0
   -1.2992   -1.5002    0.0000 O   0  0  0  0  0  0  0  0  0  0  0  0
    1.2998    3.0000    0.0000 O   0  0  0  0  0  0  0  0  0  0  0  0
   -1.2992    2.9998    0.0000 O   0  0  0  0  0  0  0  0  0  0  0  0
  5  1  1  0
  5  3  2  0
  6  3  1  0
  6  4  1  0
  7  4  2  0
  8  6  2  0
  9  2  1  0
  9  7  1  0
 10  5  1  0
 10  7  1  0
M  END
>  <NAME>  (4695) 
2-METHOXY-6-METHYL-4-PYRONE

>  <SYNONYMS>  (4695) 


>  <SPECTRUM TYPE>  (4695) 
MS1

>  <INSTRUMENT TYPE>  (4695) 
EI-B

>  <INSTRUMENT>  (4695) 
HITACHI RMU-6D

>  <ION MODE>  (4695) 
P

>  <INCHIKEY>  (4695) 
SGHBBBQKUYEJPS-UHFFFAOYSA-N

>  <FORMULA>  (4695) 
C7H8O3

>  <EXACT MASS>  (4695) 
140.04734411599998

>  <MW>  (4695) 
140

>  <ID>  (4695) 
JP003204

>  <CONTRIBUTOR>  (4695) 
University of Tokyo Team, {Faculty of Engineering, University of Tokyo

>  <COMMENT>  (4695) 
SMILES=COC(=C1)OC(C)=CC(=O)1
InChI=InChI=1S/C7H8O3/c1-5-3-6(8)4-7(9-2)10-5/h3-4H,1-2H3
computed SMILES=O=C1C=C(OC(=C1)C)OC
accession=JP003204
date=2016.01.19 (Created 2008.10.21, modified 2011.05.06)
author=NAKATA H, DEPT. OF CHEMISTRY, AICHI KYOIKU UNIV.
license=CC BY-NC-SA
exact mass=140.04734
ionization energy=70 eV
ion type=[M]+*
computed spectral entropy=2.358378106595398
computed normalized entropy=0.8159428281682379
SPLASH=splash10-00kf-9300000000-62e064ed59778dc803b3
submitter=submitter = University of Tokyo Team (Faculty of Engineering, University of Tokyo)
MoNA Rating=3.75

>  <NUM PEAKS>  (4695) 
18

>  <MASS SPECTRAL PEAKS>  (4695) 
40 9
41 7
42 10
43 34
44 5
53 12
59 14
68 5
69 99.99
70 6
80 5
97 38
98 5
100 14
112 21
125 6
140 63
141 5

>  <PREDICTED SPECTRUM>  (4695) 
14 2
15 52
25 5
26 68
27 154
28 81
29 102
37 67
38 147
39 355
40 161
41 443
42 265
43 662
44 38
50 109
51 184
52 154
53 285
54 155
55 290
56 107
57 130
59 0
66 117
67 312
68 219
69 673
70 121
71 32
79 40
80 21
81 221
82 147
83 206
84 69
85 198
94 5
95 858
96 150
97 934
98 239
99 30
109 78
110 16
111 363
112 503
113 114
125 115
140 999
141 312
142 8

$$$$

     RDKit          2D

  9  9  0  0  0  0  0  0  0  0999 V2000
    2.5989    1.5002    0.0000 C   0  0  0  0  0  0  0  0  0  0  0  0
   -2.5989    1.5002    0.0000 C   0  0  0  0  0  0  0  0  0  0  0  0
    1.3000   -0.7500    0.0000 C   0  0  0  0  0  0  0  0  0  0  0  0
   -1.3000   -0.7500    0.0000 C   0  0  0  0  0  0  0  0  0  0  0  0
    1.3000    0.7500    0.0000 C   0  0  0  0  0  0  0  0  0  0  0  0
   -1.3000    0.7500    0.0000 C   0  0  0  0  0  0  0  0  0  0  0  0
   -0.0000    1.5000    0.0000 C   0  0  0  0  0  0  0  0  0  0  0  0
    0.0000    3.0000    0.0000 O   0  0  0  0  0  0  0  0  0  0  0  0
   -0.0000   -1.5000    0.0000 O   0  0  0  0  0  0  0  0  0  0  0  0
  5  1  1  0
  5  3  2  0
  6  2  1  0
  6  4  2  0
  7  5  1  0
  7  6  1  0
  8  7  2  0
  9  3  1  0
  9  4  1  0
M  END
>  <NAME>  (4696) 
3,5-DIMETHYL-4-PYRONE

>  <SYNONYMS>  (4696) 


>  <SPECTRUM TYPE>  (4696) 
MS1

>  <INSTRUMENT TYPE>  (4696) 
EI-B

>  <INSTRUMENT>  (4696) 
HITACHI RMU-6D

>  <ION MODE>  (4696) 
P

>  <INCHIKEY>  (4696) 
TYNBCLRVUQVAEV-UHFFFAOYSA-N

>  <FORMULA>  (4696) 
C7H8O2

>  <EXACT MASS>  (4696) 
124.052429496

>  <MW>  (4696) 
124

>  <ID>  (4696) 
JP003203

>  <CONTRIBUTOR>  (4696) 
University of Tokyo Team, {Faculty of Engineering, University of Tokyo

>  <COMMENT>  (4696) 
SMILES=CC(=C1)C(=O)C(C)=CO1
InChI=InChI=1S/C7H8O2/c1-5-3-9-4-6(2)7(5)8/h3-4H,1-2H3
computed SMILES=O=C1C(=COC=C1C)C
exact mass=124.05243
accession=JP003203
date=2016.01.19 (Created 2008.10.21, modified 2011.05.06)
author=NAKATA H, DEPT. OF CHEMISTRY, AICHI KYOIKU UNIV.
license=CC BY-NC-SA
ionization energy=70 eV
ion type=[M]+*
computed spectral entropy=2.220306265766937
computed normalized entropy=0.7836706933577402
SPLASH=splash10-05fs-9400000000-d485734aac4c142e77e1
submitter=submitter = University of Tokyo Team (Faculty of Engineering, University of Tokyo)
MoNA Rating=3.75

>  <NUM PEAKS>  (4696) 
17

>  <MASS SPECTRAL PEAKS>  (4696) 
41 5
53 7
55 7
56 56
63 5
67 9
68 5
69 7
81 6
83 10
84 13
85 7
94 5
95 40
96 13
124 99.99
125 7

>  <PREDICTED SPECTRUM>  (4696) 
26 31
27 54
28 15
37 20
38 97
39 358
40 140
41 254
42 160
43 9
50 147
51 287
52 275
53 216
54 221
63 98
64 56
65 213
66 209
67 495
68 306
69 115
77 36
78 79
79 178
80 46
81 263
82 7
95 518
96 535
97 89
109 64
123 176
124 999
125 187

$$$$

     RDKit          2D

  9  9  0  0  0  0  0  0  0  0999 V2000
   -2.5989    3.0000    0.0000 C   0  0  0  0  0  0  0  0  0  0  0  0
    2.5989    3.0000    0.0000 C   0  0  0  0  0  0  0  0  0  0  0  0
   -1.3000    0.7498    0.0000 C   0  0  0  0  0  0  0  0  0  0  0  0
    1.3000    0.7498    0.0000 C   0  0  0  0  0  0  0  0  0  0  0  0
   -1.3000    2.2498    0.0000 C   0  0  0  0  0  0  0  0  0  0  0  0
    1.3000    2.2498    0.0000 C   0  0  0  0  0  0  0  0  0  0  0  0
   -0.0000   -0.0002    0.0000 C   0  0  0  0  0  0  0  0  0  0  0  0
   -0.0000   -1.5002    0.0000 O   0  0  0  0  0  0  0  0  0  0  0  0
   -0.0000    2.9998    0.0000 O   0  0  0  0  0  0  0  0  0  0  0  0
  5  1  1  0
  5  3  2  0
  6  2  1  0
  6  4  2  0
  7  3  1  0
  7  4  1  0
  8  7  2  0
  9  5  1  0
  9  6  1  0
M  END
>  <NAME>  (4697) 
2,6-DIMETHYL-4-PYRONE

>  <SYNONYMS>  (4697) 


>  <SPECTRUM TYPE>  (4697) 
MS1

>  <INSTRUMENT TYPE>  (4697) 
EI-B

>  <INSTRUMENT>  (4697) 
HITACHI RMU-6D

>  <ION MODE>  (4697) 
P

>  <INCHIKEY>  (4697) 
VSYFZULSKMFUJJ-UHFFFAOYSA-N

>  <FORMULA>  (4697) 
C7H8O2

>  <EXACT MASS>  (4697) 
124.052429496

>  <MW>  (4697) 
124

>  <ID>  (4697) 
JP003202

>  <CONTRIBUTOR>  (4697) 
University of Tokyo Team, {Faculty of Engineering, University of Tokyo

>  <COMMENT>  (4697) 
SMILES=CC(=C1)OC(C)=CC(=O)1
InChI=InChI=1S/C7H8O2/c1-5-3-7(8)4-6(2)9-5/h3-4H,1-2H3
computed SMILES=O=C1C=C(OC(=C1)C)C
accession=JP003202
date=2016.01.19 (Created 2008.10.21, modified 2011.05.06)
author=NAKATA H, DEPT. OF CHEMISTRY, AICHI KYOIKU UNIV.
license=CC BY-NC-SA
exact mass=124.05243
ionization energy=70 eV
ion type=[M]+*
computed spectral entropy=2.479550884148903
computed normalized entropy=0.8276944191702701
SPLASH=splash10-00r7-9200000000-6e3ca29a40f0567e60d9
submitter=submitter = University of Tokyo Team (Faculty of Engineering, University of Tokyo)
MoNA Rating=3.75

>  <NUM PEAKS>  (4697) 
20

>  <MASS SPECTRAL PEAKS>  (4697) 
40 6
41 11
42 14
43 99.99
44 7
49 6
51 6
52 5
53 19
54 6
56 9
67 4
69 66
81 35
84 17
85 9
95 45
96 35
124 88
125 6

>  <PREDICTED SPECTRUM>  (4697) 
26 25
27 111
28 63
29 21
37 24
38 93
39 256
40 126
41 261
42 122
43 860
44 2
50 63
51 167
52 157
53 254
54 103
55 31
57 81
62 12
65 45
66 118
67 149
68 132
69 555
79 7
81 753
82 254
83 107
85 23
95 632
96 431
97 135
123 111
124 999
125 315
126 24

$$$$

     RDKit          2D

  7  7  0  0  0  0  0  0  0  0999 V2000
   -1.3000    0.7500    0.0000 C   0  0  0  0  0  0  0  0  0  0  0  0
    1.3000    0.7500    0.0000 C   0  0  0  0  0  0  0  0  0  0  0  0
   -1.3000    2.2500    0.0000 C   0  0  0  0  0  0  0  0  0  0  0  0
    1.3000    2.2500    0.0000 C   0  0  0  0  0  0  0  0  0  0  0  0
   -0.0000    0.0000    0.0000 C   0  0  0  0  0  0  0  0  0  0  0  0
   -0.0000   -1.5000    0.0000 O   0  0  0  0  0  0  0  0  0  0  0  0
    0.0000    3.0000    0.0000 O   0  0  0  0  0  0  0  0  0  0  0  0
  3  1  2  0
  4  2  2  0
  5  1  1  0
  5  2  1  0
  6  5  2  0
  7  3  1  0
  7  4  1  0
M  END
>  <NAME>  (4698) 
4-PYRONE

>  <SYNONYMS>  (4698) 


>  <SPECTRUM TYPE>  (4698) 
MS1

>  <INSTRUMENT TYPE>  (4698) 
EI-B

>  <INSTRUMENT>  (4698) 
HITACHI RMU-6D

>  <ION MODE>  (4698) 
P

>  <INCHIKEY>  (4698) 
CVQUWLDCFXOXEN-UHFFFAOYSA-N

>  <FORMULA>  (4698) 
C5H4O2

>  <EXACT MASS>  (4698) 
96.021129368

>  <MW>  (4698) 
96

>  <ID>  (4698) 
JP003201

>  <CONTRIBUTOR>  (4698) 
University of Tokyo Team, {Faculty of Engineering, University of Tokyo

>  <COMMENT>  (4698) 
SMILES=O=C(C=1)C=COC1
InChI=InChI=1S/C5H4O2/c6-5-1-3-7-4-2-5/h1-4H
computed SMILES=O=C1C=COC=C1
accession=JP003201
date=2016.01.19 (Created 2008.10.21, modified 2011.05.06)
author=NAKATA H, DEPT. OF CHEMISTRY, AICHI KYOIKU UNIV.
license=CC BY-NC-SA
exact mass=96.02113
computed normalized entropy=0.7902574656101363
ionization energy=70 eV
ion type=[M]+*
computed spectral entropy=1.9637160313392397
SPLASH=splash10-00kb-9000000000-6e2f49ee28d4adf85bb5
submitter=submitter = University of Tokyo Team (Faculty of Engineering, University of Tokyo)
MoNA Rating=3.75

>  <NUM PEAKS>  (4698) 
12

>  <MASS SPECTRAL PEAKS>  (4698) 
40 8
41 6
42 37
44 6
50 5
53 7
68 25
69 50
70 40
71 5
96 99.99
97 5

>  <PREDICTED SPECTRUM>  (4698) 
14 45
15 23
17 18
18 35
25 67
26 180
27 413
28 360
29 372
36 15
37 211
38 330
39 752
40 750
41 433
42 140
44 29
49 57
50 295
51 384
52 326
53 212
67 367
68 910
69 245
96 999
97 264

$$$$

     RDKit          2D

 12 12  0  0  0  0  0  0  0  0999 V2000
    3.8976    3.7504    0.0000 C   0  0  0  0  0  0  0  0  0  0  0  0
   -1.3000    0.7500    0.0000 C   0  0  0  0  0  0  0  0  0  0  0  0
   -0.0000    1.5000    0.0000 C   0  0  0  0  0  0  0  0  0  0  0  0
   -0.0000   -1.5000    0.0000 C   0  0  0  0  0  0  0  0  0  0  0  0
   -1.3000   -0.7500    0.0000 C   0  0  0  0  0  0  0  0  0  0  0  0
    1.3000    0.7500    0.0000 C   0  0  0  0  0  0  0  0  0  0  0  0
    1.3000   -0.7500    0.0000 C   0  0  0  0  0  0  0  0  0  0  0  0
    2.5989    1.5002    0.0000 C   0  0  0  0  0  0  0  0  0  0  0  0
   -2.5989   -1.5002    0.0000 N   0  0  0  0  0  0  0  0  0  0  0  0
    2.5989   -1.5002    0.0000 O   0  0  0  0  0  0  0  0  0  0  0  0
    3.8981    0.7504    0.0000 O   0  0  0  0  0  0  0  0  0  0  0  0
    2.5987    3.0002    0.0000 O   0  0  0  0  0  0  0  0  0  0  0  0
  3  2  2  0
  5  2  1  0
  5  4  2  0
  6  3  1  0
  7  4  1  0
  7  6  2  0
  8  6  1  0
  9  5  1  0
 10  7  1  0
 11  8  2  0
 12  1  1  0
 12  8  1  0
M  END
>  <NAME>  (4699) 
METHYL P-AMINOSALICYLATE

>  <SYNONYMS>  (4699) 


>  <SPECTRUM TYPE>  (4699) 
MS1

>  <INSTRUMENT TYPE>  (4699) 
EI-B

>  <INSTRUMENT>  (4699) 
HITACHI RMU-6D

>  <ION MODE>  (4699) 
P

>  <INCHIKEY>  (4699) 
QQOXBFUTRLDXDP-UHFFFAOYSA-N

>  <FORMULA>  (4699) 
C8H9NO3

>  <EXACT MASS>  (4699) 
167.058243148

>  <MW>  (4699) 
167

>  <ID>  (4699) 
JP003200

>  <CONTRIBUTOR>  (4699) 
University of Tokyo Team, {Faculty of Engineering, University of Tokyo

>  <COMMENT>  (4699) 
SMILES=COC(=O)c(c1)c(O)cc(N)c1
InChI=InChI=1S/C8H9NO3/c1-12-8(11)6-3-2-5(9)4-7(6)10/h2-4,10H,9H2,1H3
computed SMILES=O=C(OC)C1=CC=C(N)C=C1O
accession=JP003200
date=2016.01.19 (Created 2008.10.21, modified 2011.05.06)
author=NAKATA H, DEPT. OF CHEMISTRY, AICHI KYOIKU UNIV.
license=CC BY-NC-SA
exact mass=167.05824
ionization energy=70 eV
ion type=[M]+*
computed spectral entropy=2.2215116663624155
computed normalized entropy=0.8203362203027967
SPLASH=splash10-000i-3900000000-130c2a52982dda9e74a7
submitter=submitter = University of Tokyo Team (Faculty of Engineering, University of Tokyo)
MoNA Rating=3.75

>  <NUM PEAKS>  (4699) 
15

>  <MASS SPECTRAL PEAKS>  (4699) 
39 5
51 7
52 12
53 10
68 8
78 7.5
79 38
80 16
107 42
108 6
135 99.99
136 46
137 5
167 67
168 7

>  <PREDICTED SPECTRUM>  (4699) 
26 20
27 46
28 12
29 87
31 25
32 7
33 9
37 3
38 85
39 132
40 79
41 106
42 51
43 30
44 15
45 16
50 130
51 239
52 377
53 411
54 76
55 21
57 36
61 9
62 41
63 65
64 60
68 36
78 285
79 592
80 341
81 155
106 230
107 566
108 288
109 84
135 999
136 467
137 131
167 764
168 244
169 24

$$$$

     RDKit          2D

 11 11  0  0  0  0  0  0  0  0999 V2000
   -5.1970    1.5006    0.0000 C   0  0  0  0  0  0  0  0  0  0  0  0
   -1.3000   -0.7500    0.0000 C   0  0  0  0  0  0  0  0  0  0  0  0
    0.0000    1.5000    0.0000 C   0  0  0  0  0  0  0  0  0  0  0  0
    0.0000   -1.5000    0.0000 C   0  0  0  0  0  0  0  0  0  0  0  0
    1.3000    0.7500    0.0000 C   0  0  0  0  0  0  0  0  0  0  0  0
   -1.3000    0.7500    0.0000 C   0  0  0  0  0  0  0  0  0  0  0  0
    1.3000   -0.7500    0.0000 C   0  0  0  0  0  0  0  0  0  0  0  0
   -2.5989    1.5002    0.0000 C   0  0  0  0  0  0  0  0  0  0  0  0
    2.5989   -1.5002    0.0000 N   0  0  0  0  0  0  0  0  0  0  0  0
   -2.5987    3.0002    0.0000 O   0  0  0  0  0  0  0  0  0  0  0  0
   -3.8981    0.7504    0.0000 O   0  0  0  0  0  0  0  0  0  0  0  0
  4  2  2  0
  5  3  1  0
  6  2  1  0
  6  3  2  0
  7  4  1  0
  7  5  2  0
  8  6  1  0
  9  7  1  0
 10  8  2  0
 11  1  1  0
 11  8  1  0
M  END
>  <NAME>  (4700) 
METHYL P-AMINOBENZOATE

>  <SYNONYMS>  (4700) 


>  <SPECTRUM TYPE>  (4700) 
MS1

>  <INSTRUMENT TYPE>  (4700) 
EI-B

>  <INSTRUMENT>  (4700) 
HITACHI RMU-6D

>  <ION MODE>  (4700) 
P

>  <INCHIKEY>  (4700) 
LZXXNPOYQCLXRS-UHFFFAOYSA-N

>  <FORMULA>  (4700) 
C8H9NO2

>  <EXACT MASS>  (4700) 
151.063328528

>  <MW>  (4700) 
151

>  <ID>  (4700) 
JP003199

>  <CONTRIBUTOR>  (4700) 
University of Tokyo Team, {Faculty of Engineering, University of Tokyo

>  <COMMENT>  (4700) 
SMILES=COC(=O)c(c1)ccc(N)c1
InChI=InChI=1S/C8H9NO2/c1-11-8(10)6-2-4-7(9)5-3-6/h2-5H,9H2,1H3
computed SMILES=O=C(OC)C1=CC=C(N)C=C1
accession=JP003199
date=2016.01.19 (Created 2008.10.21, modified 2011.05.06)
author=NAKATA H, DEPT. OF CHEMISTRY, AICHI KYOIKU UNIV.
license=CC BY-NC-SA
exact mass=151.06333
ionization energy=70 eV
ion type=[M]+*
computed spectral entropy=2.1549017907723074
computed normalized entropy=0.8165422427888163
SPLASH=splash10-00di-7900000000-fa73e120c2e34b25ef59
submitter=submitter = University of Tokyo Team (Faculty of Engineering, University of Tokyo)
MoNA Rating=3.75

>  <NUM PEAKS>  (4700) 
14

>  <MASS SPECTRAL PEAKS>  (4700) 
28 11
38 7
39 21
41 8
52 8
63 7
64 6
65 38
91 6
92 32
120 99.99
121 10
151 52
152 7

>  <PREDICTED SPECTRUM>  (4700) 
14 15
15 84
16 27
25 13
26 53
27 104
28 73
29 107
31 52
32 34
33 2
36 3
37 116
38 188
39 328
40 106
41 190
42 135
44 0
49 64
50 202
51 225
52 258
53 222
54 106
55 5
59 83
60 15
61 174
62 172
63 343
64 305
65 486
66 203
67 13
68 7
74 134
75 64
76 41
77 99
78 58
79 13
80 76
90 190
91 135
92 636
93 236
94 85
106 67
107 44
108 49
109 22
118 14
120 999
121 352
122 152
123 53
150 22
151 804
152 249
153 75

$$$$

     RDKit          2D

 29 32  0  0  0  0  0  0  0  0999 V2000
    9.9749    3.4635    0.0000 C   0  0  0  0  0  0  0  0  0  0  0  0
  -12.8281    0.4635    0.0000 C   0  0  0  0  0  0  0  0  0  0  0  0
    8.6759    2.7135    0.0000 C   0  0  0  0  0  0  0  0  0  0  0  0
  -11.5291    1.2135    0.0000 C   0  0  0  0  0  0  0  0  0  0  0  0
    7.3769    3.4635    0.0000 C   0  0  0  0  0  0  0  0  0  0  0  0
  -10.2300    0.4635    0.0000 C   0  0  0  0  0  0  0  0  0  0  0  0
    6.0778    2.7135    0.0000 C   0  0  0  0  0  0  0  0  0  0  0  0
   -8.9310    1.2135    0.0000 C   0  0  0  0  0  0  0  0  0  0  0  0
    3.4798    1.2135    0.0000 C   0  0  0  0  0  0  0  0  0  0  0  0
   -6.3329    2.7135    0.0000 C   0  0  0  0  0  0  0  0  0  0  0  0
    2.1807    0.4635    0.0000 C   0  0  0  0  0  0  0  0  0  0  0  0
   -5.0339    3.4635    0.0000 C   0  0  0  0  0  0  0  0  0  0  0  0
    2.1807    3.4635    0.0000 C   0  0  0  0  0  0  0  0  0  0  0  0
   -5.0339    0.4635    0.0000 C   0  0  0  0  0  0  0  0  0  0  0  0
   -0.5449    0.7500    0.0000 C   0  0  0  0  0  0  0  0  0  0  0  0
   -2.3083    3.1771    0.0000 C   0  0  0  0  0  0  0  0  0  0  0  0
   -0.5449    3.1771    0.0000 C   0  0  0  0  0  0  0  0  0  0  0  0
   -2.3083    0.7500    0.0000 C   0  0  0  0  0  0  0  0  0  0  0  0
    3.4798    2.7135    0.0000 C   0  0  0  0  0  0  0  0  0  0  0  0
   -6.3329    1.2135    0.0000 C   0  0  0  0  0  0  0  0  0  0  0  0
    0.8817    1.2135    0.0000 C   0  0  0  0  0  0  0  0  0  0  0  0
   -3.7348    2.7135    0.0000 C   0  0  0  0  0  0  0  0  0  0  0  0
    0.8817    2.7135    0.0000 C   0  0  0  0  0  0  0  0  0  0  0  0
   -3.7348    1.2135    0.0000 C   0  0  0  0  0  0  0  0  0  0  0  0
    4.7788    3.4635    0.0000 C   0  0  0  0  0  0  0  0  0  0  0  0
   -7.6320    0.4635    0.0000 C   0  0  0  0  0  0  0  0  0  0  0  0
   -1.4266    1.9635    0.0000 C   0  0  0  0  0  0  0  0  0  0  0  0
    4.7788    4.9635    0.0000 O   0  0  0  0  0  0  0  0  0  0  0  0
   -7.6320   -1.0365    0.0000 O   0  0  0  0  0  0  0  0  0  0  0  0
  3  1  1  0
  4  2  1  0
  5  3  1  0
  6  4  1  0
  7  5  1  0
  8  6  1  0
 11  9  2  0
 12 10  2  0
 19  9  1  0
 19 13  2  0
 20 10  1  0
 20 14  2  0
 21 11  1  0
 21 15  1  0
 22 12  1  0
 22 16  1  0
 23 13  1  0
 23 17  1  0
 23 21  2  0
 24 14  1  0
 24 18  1  0
 24 22  2  0
 25  7  1  0
 25 19  1  0
 26  8  1  0
 26 20  1  0
 27 15  1  0
 27 16  1  0
 27 17  1  0
 27 18  1  0
 28 25  2  0
 29 26  2  0
M  END
>  <NAME>  (4701) 
5,5'-DIVALERYL-2,2'-SPIROBIINDAN

>  <SYNONYMS>  (4701) 


>  <SPECTRUM TYPE>  (4701) 
MS1

>  <INSTRUMENT TYPE>  (4701) 
EI-B

>  <INSTRUMENT>  (4701) 
HITACHI RMU-7

>  <ION MODE>  (4701) 
P

>  <INCHIKEY>  (4701) 
MWGQFSREBUQPGD-UHFFFAOYSA-N

>  <FORMULA>  (4701) 
C27H32O2

>  <EXACT MASS>  (4701) 
388.240230264

>  <MW>  (4701) 
388

>  <ID>  (4701) 
JP003193

>  <CONTRIBUTOR>  (4701) 
University of Tokyo Team, {Faculty of Engineering, University of Tokyo

>  <COMMENT>  (4701) 
SMILES=c(c41)cc(cc(CC(C4)(C2)Cc(c3)c(ccc3C(=O)CCCC)2)1)C(=O)CCCC
InChI=InChI=1S/C27H32O2/c1-3-5-7-25(28)19-9-11-21-15-27(17-23(21)13-19)16-22-12-10-20(14-24(22)18-27)26(29)8-6-4-2/h9-14H,3-8,15-18H2,1-2H3
computed SMILES=O=C(C1=CC=C2C(=C1)CC3(C2)CC4=CC=C(C=C4C3)C(=O)CCCC)CCCC
accession=JP003193
date=2016.01.19 (Created 2008.10.21, modified 2011.05.06)
author=MASS SPECTROSCOPY SOC. OF JAPAN (MSSJ)
license=CC BY-NC-SA
exact mass=388.24023
ionization energy=70 eV
ion type=[M]+*
computed spectral entropy=3.0624355865998862
computed normalized entropy=0.8684408656523364
SPLASH=splash10-001i-3219000000-da23e35199d6eece4a40
submitter=submitter = University of Tokyo Team (Faculty of Engineering, University of Tokyo)
MoNA Rating=3.75

>  <NUM PEAKS>  (4701) 
34

>  <MASS SPECTRAL PEAKS>  (4701) 
41 8.3
43 11
55 11.3
57 16.9
69 7.7
71 7.8
77 4.6
81 4.8
83 7.2
85 5.1
95 5.2
97 6.2
103 13.1
109 4.5
123 5.5
131 5.4
137 18.9
141 4.9
144.5 7.6
149 4.8
152 7.1
246 18.6
247 4.3
289 21.4
290 4.5
304 39.4
305 8.8
331 99.99
332 26.1
333 3.7
346 25.1
347 6.3
388 16.6
389 4.8

>  <PREDICTED SPECTRUM>  (4701) 
27 55
28 39
29 23
39 88
41 302
42 117
43 182
44 125
51 39
53 13
55 212
56 7
57 356
58 17
65 10
69 100
70 7
71 122
73 44
77 185
78 71
79 39
83 83
84 24
85 85
86 37
89 43
90 25
91 141
97 88
98 3
99 54
101 2
102 56
103 166
104 84
105 171
107 11
111 11
115 117
116 36
117 58
118 38
119 14
123 69
127 18
130 5
131 225
132 35
133 52
134 55
135 52
141 28
144 12
145 163
146 98
148 57
159 1
160 41
161 49
162 48
169 37
179 57
187 20
188 3
205 38
211 48
218 2
230 54
246 353
247 172
260 21
275 16
289 528
290 283
291 100
303 28
304 607
305 188
331 999
332 462
333 175
346 473
347 159
348 38
359 89
373 59
388 212
389 203
390 23

$$$$

     RDKit          2D

 13 13  0  0  0  0  0  0  0  0999 V2000
   -6.8197    3.1321    0.0000 C   0  0  0  0  0  0  0  0  0  0  0  0
   -5.5207    3.8821    0.0000 C   0  0  0  0  0  0  0  0  0  0  0  0
   -4.2216    3.1321    0.0000 C   0  0  0  0  0  0  0  0  0  0  0  0
    3.5726    1.6321    0.0000 C   0  0  0  0  0  0  0  0  0  0  0  0
    3.5731    3.1329    0.0000 C   0  0  0  0  0  0  0  0  0  0  0  0
    2.2731    0.8813    0.0000 C   0  0  0  0  0  0  0  0  0  0  0  0
    2.2740    3.8829    0.0000 C   0  0  0  0  0  0  0  0  0  0  0  0
    0.9740    1.6313    0.0000 C   0  0  0  0  0  0  0  0  0  0  0  0
   -2.9226    3.8821    0.0000 C   0  0  0  0  0  0  0  0  0  0  0  0
    0.9745    3.1321    0.0000 C   0  0  0  0  0  0  0  0  0  0  0  0
   -0.3245    3.8821    0.0000 C   0  0  0  0  0  0  0  0  0  0  0  0
   -0.3245    5.3821    0.0000 O   0  0  0  0  0  0  0  0  0  0  0  0
   -1.6236    3.1321    0.0000 O   0  0  0  0  0  0  0  0  0  0  0  0
  2  1  1  0
  3  2  1  0
  5  4  2  0
  6  4  1  0
  7  5  1  0
  8  6  2  0
  9  3  1  0
 10  7  2  0
 10  8  1  0
 11 10  1  0
 12 11  2  0
 13  9  1  0
 13 11  1  0
M  END
>  <NAME>  (4702) 
N-BUTYL BENZOATE

>  <SYNONYMS>  (4702) 


>  <SPECTRUM TYPE>  (4702) 
MS1

>  <INSTRUMENT TYPE>  (4702) 
EI-B

>  <INSTRUMENT>  (4702) 
HITACHI RMU-7L

>  <ION MODE>  (4702) 
P

>  <INCHIKEY>  (4702) 
XSIFPSYPOVKYCO-UHFFFAOYSA-N

>  <FORMULA>  (4702) 
C11H14O2

>  <EXACT MASS>  (4702) 
178.099379688

>  <MW>  (4702) 
178

>  <ID>  (4702) 
JP003140

>  <CONTRIBUTOR>  (4702) 
University of Tokyo Team, {Faculty of Engineering, University of Tokyo

>  <COMMENT>  (4702) 
SMILES=CCCCOC(=O)c(c1)cccc1
InChI=InChI=1S/C11H14O2/c1-2-3-9-13-11(12)10-7-5-4-6-8-10/h4-8H,2-3,9H2,1H3
computed SMILES=O=C(OCCCC)C=1C=CC=CC1
accession=JP003140
date=2016.01.19 (Created 2008.10.21, modified 2011.05.06)
author=NAKAYAMA M, MASS SPECTROSCOPY SOC. OF JAPAN (MSSJ)
license=CC BY-NC-SA
exact mass=178.09938
ionization energy=70 eV
ion type=[M]+*
computed spectral entropy=1.850293657608004
computed normalized entropy=0.7716323888693815
SPLASH=splash10-0ab9-3900000000-ffdf8a82782a558951ee
submitter=submitter = University of Tokyo Team (Faculty of Engineering, University of Tokyo)
MoNA Rating=3.75

>  <NUM PEAKS>  (4702) 
11

>  <MASS SPECTRAL PEAKS>  (4702) 
50 6
51 14
56 26
77 42
79 5
105 99.99
106 8
122 20
123 87
124 4
178 4

>  <PREDICTED SPECTRUM>  (4702) 
14 3
25 14
26 94
27 279
28 171
29 317
31 38
37 43
38 92
39 246
40 105
41 329
42 99
44 36
45 28
49 21
50 306
51 461
52 158
53 141
54 40
55 169
56 434
57 149
62 25
63 52
64 28
65 50
73 69
74 117
75 134
76 209
77 731
78 319
79 246
80 27
92 75
94 9
104 13
105 999
106 367
107 169
108 18
122 489
123 680
124 154
177 64
178 149
179 63

$$$$

     RDKit          2D

 23 26  0  0  1  0  0  0  0  0999 V2000
   -6.9081    1.9661    0.0000 C   0  0  0  0  0  0  0  0  0  0  0  0
    6.1346   -4.0141    0.0000 C   0  0  0  0  0  0  0  0  0  0  0  0
    2.5400   -5.7040    0.0000 C   0  0  0  0  0  0  0  0  0  0  0  0
   -4.3100    0.4700    0.0000 C   0  0  0  0  0  0  0  0  0  0  0  0
   -3.0200   -0.2800    0.0000 C   0  0  0  0  0  0  0  0  0  0  0  0
    3.4900   -0.3800    0.0000 C   0  0  0  0  0  0  0  0  0  0  0  0
    4.3700   -1.5900    0.0000 C   0  0  0  0  0  0  0  0  0  0  0  0
   -3.0200    2.7200    0.0000 C   0  0  0  0  0  0  0  0  0  0  0  0
    0.8800    1.9700    0.0000 C   0  0  0  0  0  0  0  0  0  0  0  0
   -4.3100    1.9700    0.0000 C   0  0  0  0  0  0  0  0  0  0  0  0
    2.0000   -0.5300    0.0000 C   0  0  0  0  0  0  0  0  0  0  0  0
   -1.7200    0.4700    0.0000 C   0  0  0  0  0  0  0  0  0  0  0  0
    0.8800    0.4700    0.0000 C   0  0  0  0  0  0  0  0  0  0  0  0
    3.7600   -2.9600    0.0000 C   0  0  0  0  0  0  0  0  0  0  0  0
   -1.7200    1.9700    0.0000 C   0  0  0  0  0  0  0  0  0  0  0  0
   -0.4200   -0.2800    0.0000 C   0  0  0  0  0  0  0  0  0  0  0  0
    1.3900   -1.9000    0.0000 C   0  0  0  0  0  0  0  0  0  0  0  0
    2.2700   -3.1200    0.0000 C   0  0  0  0  0  0  0  0  0  0  0  0
   -5.6102    2.7180    0.0000 O   0  0  0  0  0  0  0  0  0  0  0  0
    4.6430   -4.1725    0.0000 O   0  0  0  0  0  0  0  0  0  0  0  0
    1.6591   -4.4900    0.0000 O   0  0  0  0  0  0  0  0  0  0  0  0
   -0.4200    2.7200    0.0000 O   0  0  0  0  0  0  0  0  0  0  0  0
   -0.1000   -1.7500    0.0000 O   0  0  0  0  0  0  0  0  0  0  0  0
  5  4  2  0
  7  6  1  0
 10  4  1  0
 10  8  2  0
 11  6  2  0
 12  5  1  0
 13  9  1  1
 13 11  1  0
 14  7  2  0
 15  8  1  0
 15 12  2  0
 16 12  1  0
 16 13  1  0
 17 11  1  0
 18 14  1  0
 18 17  2  0
 19  1  1  0
 19 10  1  0
 20  2  1  0
 20 14  1  0
 21  3  1  0
 21 18  1  0
 22  9  1  0
 22 15  1  0
 16 23  1  1
 23 17  1  0
M  END
>  <NAME>  (4703) 
3,9,10-TRIMETHOXYPTEROCARPAN

>  <SYNONYMS>  (4703) 


>  <SPECTRUM TYPE>  (4703) 
MS1

>  <INSTRUMENT TYPE>  (4703) 
EI-B

>  <INSTRUMENT>  (4703) 
HITACHI RMU-7L

>  <ION MODE>  (4703) 
P

>  <INCHIKEY>  (4703) 
RFFNFQZKHNKOPO-BBRMVZONSA-N

>  <FORMULA>  (4703) 
C18H18O5

>  <EXACT MASS>  (4703) 
314.115423676

>  <MW>  (4703) 
314

>  <ID>  (4703) 
JP003138

>  <CONTRIBUTOR>  (4703) 
University of Tokyo Team, {Faculty of Engineering, University of Tokyo

>  <COMMENT>  (4703) 
SMILES=COc(c4)cc(O3)c(c4)C([H])(O1)C([H])(C3)c(c2)c(c(OC)c(OC)c2)1
InChI=InChI=1S/C18H18O5/c1-19-10-4-5-12-15(8-10)22-9-13-11-6-7-14(20-2)18(21-3)17(11)23-16(12)13/h4-8,13,16H,9H2,1-3H3/t13-,16-/m0/s1
computed SMILES=O(C1=CC=C2C(OCC3C4=CC=C(OC)C(OC)=C4OC23)=C1)C
accession=JP003138
date=2016.01.19 (Created 2008.10.21, modified 2011.05.06)
author=NAKAYAMA M, MASS SPECTROSCOPY SOC. OF JAPAN (MSSJ)
license=CC BY-NC-SA
exact mass=314.11542
ionization energy=70 eV
ion type=[M]+*
computed spectral entropy=2.937623746997797
computed normalized entropy=0.9243467555350295
SPLASH=splash10-03di-0903000000-a36c79f59828ef0083bb
submitter=submitter = University of Tokyo Team (Faculty of Engineering, University of Tokyo)
MoNA Rating=3.75

>  <NUM PEAKS>  (4703) 
24

>  <MASS SPECTRAL PEAKS>  (4703) 
115 12
123 11
127 19
128 34
133 25
137 25
139 18
147 14
148 45
151 18
152 9
157 34
161 41
162 10
165 13
166 16
168 9
178 18
185 9
191 10
299 21
313 19
314 99.99
315 16

>  <PREDICTED SPECTRUM>  (4703) 
15 6
27 13
29 31
39 15
41 25
43 52
44 6
45 9
50 5
51 81
52 20
53 85
55 65
57 3
63 61
64 32
65 91
66 34
69 13
75 23
76 41
77 147
78 97
79 73
80 30
89 25
90 21
91 133
92 34
94 4
95 3
102 11
103 32
104 27
105 95
106 85
107 105
108 3
115 67
117 8
118 31
119 63
120 42
121 137
122 100
123 20
127 22
128 47
129 19
131 65
132 29
133 119
134 150
135 223
136 145
137 136
138 80
139 68
141 34
145 31
146 11
147 82
148 167
149 433
150 293
151 402
152 152
160 5
161 166
162 246
163 282
164 309
165 150
166 23
167 4
168 30
171 9
175 65
176 104
177 181
178 149
179 113
180 3
181 50
182 17
183 28
184 22
185 33
191 71
192 6
197 46
198 24
199 32
210 37
211 68
212 29
213 23
222 33
224 34
225 118
226 46
227 24
237 36
238 48
239 95
240 25
241 33
251 47
252 7
253 49
254 50
255 33
256 15
265 20
266 34
267 80
268 27
269 57
270 8
271 47
281 71
282 2
283 309
284 172
285 70
286 9
297 123
298 58
299 251
300 90
311 3
312 84
313 304
314 999
315 368
316 141
317 32

$$$$

     RDKit          2D

 25 28  0  0  1  0  0  0  0  0999 V2000
   -6.9081    1.9661    0.0000 C   0  0  0  0  0  0  0  0  0  0  0  0
    6.7437   -2.6462    0.0000 C   0  0  0  0  0  0  0  0  0  0  0  0
    6.1346   -4.0141    0.0000 C   0  0  0  0  0  0  0  0  0  0  0  0
   -4.3228    4.9678    0.0000 C   0  0  0  0  0  0  0  0  0  0  0  0
   -3.0200   -0.2800    0.0000 C   0  0  0  0  0  0  0  0  0  0  0  0
   -4.3100    0.4700    0.0000 C   0  0  0  0  0  0  0  0  0  0  0  0
    3.4900   -0.3800    0.0000 C   0  0  0  0  0  0  0  0  0  0  0  0
    2.2700   -3.1200    0.0000 C   0  0  0  0  0  0  0  0  0  0  0  0
    0.8800    1.9700    0.0000 C   0  0  0  0  0  0  0  0  0  0  0  0
   -1.7200    0.4700    0.0000 C   0  0  0  0  0  0  0  0  0  0  0  0
    2.0000   -0.5300    0.0000 C   0  0  0  0  0  0  0  0  0  0  0  0
    0.8800    0.4700    0.0000 C   0  0  0  0  0  0  0  0  0  0  0  0
   -4.3100    1.9700    0.0000 C   0  0  0  0  0  0  0  0  0  0  0  0
    1.3900   -1.9000    0.0000 C   0  0  0  0  0  0  0  0  0  0  0  0
    4.3700   -1.5900    0.0000 C   0  0  0  0  0  0  0  0  0  0  0  0
    3.7600   -2.9600    0.0000 C   0  0  0  0  0  0  0  0  0  0  0  0
   -0.4200   -0.2800    0.0000 C   0  0  0  0  0  0  0  0  0  0  0  0
   -1.7200    1.9700    0.0000 C   0  0  0  0  0  0  0  0  0  0  0  0
   -3.0200    2.7200    0.0000 C   0  0  0  0  0  0  0  0  0  0  0  0
   -5.6102    2.7180    0.0000 O   0  0  0  0  0  0  0  0  0  0  0  0
    5.8617   -1.4329    0.0000 O   0  0  0  0  0  0  0  0  0  0  0  0
    4.6430   -4.1725    0.0000 O   0  0  0  0  0  0  0  0  0  0  0  0
   -3.0225    4.2200    0.0000 O   0  0  0  0  0  0  0  0  0  0  0  0
   -0.4200    2.7200    0.0000 O   0  0  0  0  0  0  0  0  0  0  0  0
   -0.1000   -1.7500    0.0000 O   0  0  0  0  0  0  0  0  0  0  0  0
  6  5  2  0
 10  5  1  0
 11  7  2  0
 12  9  1  1
 12 11  1  0
 13  6  1  0
 14  8  2  0
 14 11  1  0
 15  7  1  0
 16  8  1  0
 16 15  2  0
 17 10  1  0
 17 12  1  0
 18 10  2  0
 19 13  2  0
 19 18  1  0
 20  1  1  0
 20 13  1  0
 21  2  1  0
 21 15  1  0
 22  3  1  0
 22 16  1  0
 23  4  1  0
 23 19  1  0
 24  9  1  0
 24 18  1  0
 25 14  1  0
 17 25  1  1
M  END
>  <NAME>  (4704) 
3,4,8,9-TETRAMETHOXYPTEROCARPAN

>  <SYNONYMS>  (4704) 


>  <SPECTRUM TYPE>  (4704) 
MS1

>  <INSTRUMENT TYPE>  (4704) 
EI-B

>  <INSTRUMENT>  (4704) 
HITACHI RMU-7L

>  <ION MODE>  (4704) 
P

>  <INCHIKEY>  (4704) 
CXAHVSULOPDCJX-SJCJKPOMSA-N

>  <FORMULA>  (4704) 
C19H20O6

>  <EXACT MASS>  (4704) 
344.12598835999995

>  <MW>  (4704) 
344

>  <ID>  (4704) 
JP003137

>  <CONTRIBUTOR>  (4704) 
University of Tokyo Team, {Faculty of Engineering, University of Tokyo

>  <COMMENT>  (4704) 
SMILES=COc(c4)c(OC)c(O3)c(c4)C([H])(O1)C([H])(C3)c(c2)c(cc(OC)c(OC)2)1
InChI=InChI=1S/C19H20O6/c1-20-13-6-5-10-17-12(9-24-18(10)19(13)23-4)11-7-15(21-2)16(22-3)8-14(11)25-17/h5-8,12,17H,9H2,1-4H3/t12-,17-/m0/s1
computed SMILES=O(C1=CC=C2C(OCC3C4=CC(OC)=C(OC)C=C4OC23)=C1OC)C
accession=JP003137
date=2016.01.19 (Created 2008.10.21, modified 2011.05.06)
author=NAKAYAMA M, MASS SPECTROSCOPY SOC. OF JAPAN (MSSJ)
license=CC BY-NC-SA
exact mass=344.12599
ionization energy=70 eV
ion type=[M]+*
computed spectral entropy=1.8301391105468938
computed normalized entropy=0.6934821347036464
SPLASH=splash10-0006-0209000000-5bc5ea7376e033e85202
submitter=submitter = University of Tokyo Team (Faculty of Engineering, University of Tokyo)
MoNA Rating=3.75

>  <NUM PEAKS>  (4704) 
14

>  <MASS SPECTRAL PEAKS>  (4704) 
106 3
115 4
135 3
163 6
178 16
191 4
297 6
298 3
299 3
329 29
330 6
343 4
344 99.99
345 19

>  <PREDICTED SPECTRUM>  (4704) 
43 25
51 12
77 68
91 69
95 6
103 29
104 7
105 63
107 177
119 12
121 121
123 41
133 65
135 316
136 28
137 85
139 37
147 4
149 310
150 53
151 180
152 21
153 40
162 185
163 273
164 131
165 322
166 92
167 15
178 346
179 100
180 177
181 5
182 0
191 303
192 645
297 14
301 27
313 181
314 82
328 61
329 406
343 212
344 999
345 91

$$$$

     RDKit          2D

 23 26  0  0  1  0  0  0  0  0999 V2000
   -6.9081    1.9661    0.0000 C   0  0  0  0  0  0  0  0  0  0  0  0
    6.7437   -2.6462    0.0000 C   0  0  0  0  0  0  0  0  0  0  0  0
    6.1346   -4.0141    0.0000 C   0  0  0  0  0  0  0  0  0  0  0  0
   -4.3100    0.4700    0.0000 C   0  0  0  0  0  0  0  0  0  0  0  0
   -3.0200   -0.2800    0.0000 C   0  0  0  0  0  0  0  0  0  0  0  0
   -3.0200    2.7200    0.0000 C   0  0  0  0  0  0  0  0  0  0  0  0
    3.4900   -0.3800    0.0000 C   0  0  0  0  0  0  0  0  0  0  0  0
    2.2700   -3.1200    0.0000 C   0  0  0  0  0  0  0  0  0  0  0  0
    0.8800    1.9700    0.0000 C   0  0  0  0  0  0  0  0  0  0  0  0
   -4.3100    1.9700    0.0000 C   0  0  0  0  0  0  0  0  0  0  0  0
   -1.7200    0.4700    0.0000 C   0  0  0  0  0  0  0  0  0  0  0  0
    2.0000   -0.5300    0.0000 C   0  0  0  0  0  0  0  0  0  0  0  0
    0.8800    0.4700    0.0000 C   0  0  0  0  0  0  0  0  0  0  0  0
   -1.7200    1.9700    0.0000 C   0  0  0  0  0  0  0  0  0  0  0  0
    1.3900   -1.9000    0.0000 C   0  0  0  0  0  0  0  0  0  0  0  0
    4.3700   -1.5900    0.0000 C   0  0  0  0  0  0  0  0  0  0  0  0
    3.7600   -2.9600    0.0000 C   0  0  0  0  0  0  0  0  0  0  0  0
   -0.4200   -0.2800    0.0000 C   0  0  0  0  0  0  0  0  0  0  0  0
   -5.6102    2.7180    0.0000 O   0  0  0  0  0  0  0  0  0  0  0  0
    5.8617   -1.4329    0.0000 O   0  0  0  0  0  0  0  0  0  0  0  0
    4.6430   -4.1725    0.0000 O   0  0  0  0  0  0  0  0  0  0  0  0
   -0.4200    2.7200    0.0000 O   0  0  0  0  0  0  0  0  0  0  0  0
   -0.1000   -1.7500    0.0000 O   0  0  0  0  0  0  0  0  0  0  0  0
  5  4  2  0
 10  4  1  0
 10  6  2  0
 11  5  1  0
 12  7  2  0
 13  9  1  1
 13 12  1  0
 14  6  1  0
 14 11  2  0
 15  8  2  0
 15 12  1  0
 16  7  1  0
 17  8  1  0
 17 16  2  0
 18 11  1  0
 18 13  1  0
 19  1  1  0
 19 10  1  0
 20  2  1  0
 20 16  1  0
 21  3  1  0
 21 17  1  0
 22  9  1  0
 22 14  1  0
 23 15  1  0
 18 23  1  1
M  END
>  <NAME>  (4705) 
3,8,9-TRIMETHOXYPTEROCARPAN

>  <SYNONYMS>  (4705) 


>  <SPECTRUM TYPE>  (4705) 
MS1

>  <INSTRUMENT TYPE>  (4705) 
EI-B

>  <INSTRUMENT>  (4705) 
HITACHI RMU-7L

>  <ION MODE>  (4705) 
P

>  <INCHIKEY>  (4705) 
RTGGRWVCSFXHGP-UGSOOPFHSA-N

>  <FORMULA>  (4705) 
C18H18O5

>  <EXACT MASS>  (4705) 
314.115423676

>  <MW>  (4705) 
314

>  <ID>  (4705) 
JP003136

>  <CONTRIBUTOR>  (4705) 
University of Tokyo Team, {Faculty of Engineering, University of Tokyo

>  <COMMENT>  (4705) 
SMILES=COc(c4)cc(O3)c(c4)C([H])(O1)C([H])(C3)c(c2)c(cc(OC)c(OC)2)1
InChI=InChI=1S/C18H18O5/c1-19-10-4-5-11-14(6-10)22-9-13-12-7-16(20-2)17(21-3)8-15(12)23-18(11)13/h4-8,13,18H,9H2,1-3H3/t13-,18-/m0/s1
computed SMILES=O(C1=CC=C2C(OCC3C4=CC(OC)=C(OC)C=C4OC23)=C1)C
accession=JP003136
date=2016.01.19 (Created 2008.10.21, modified 2011.05.06)
author=NAKAYAMA M, MASS SPECTROSCOPY SOC. OF JAPAN (MSSJ)
license=CC BY-NC-SA
exact mass=314.11542
ionization energy=70 eV
ion type=[M]+*
computed spectral entropy=2.0454195829354975
computed normalized entropy=0.7553108070533502
SPLASH=splash10-03di-0429000000-372b77cb77ccc9b6dd69
submitter=submitter = University of Tokyo Team (Faculty of Engineering, University of Tokyo)
MoNA Rating=3.75

>  <NUM PEAKS>  (4705) 
15

>  <MASS SPECTRAL PEAKS>  (4705) 
115 5
127 4
133 5
135 4
137 4
148 26
161 9
178 10
191 4
211 5
271 4
299 23
313 13
314 99.99
315 17

>  <PREDICTED SPECTRUM>  (4705) 
51 3
53 27
55 25
63 22
77 63
79 27
91 53
95 2
105 17
106 5
107 86
109 12
115 5
119 27
121 78
122 28
123 38
127 14
128 11
129 14
131 37
133 108
134 72
135 220
136 58
137 146
139 76
145 70
147 82
148 105
149 239
150 43
151 83
160 14
161 248
162 509
163 303
164 198
165 37
175 96
176 4
177 156
178 122
179 63
191 151
192 304
213 21
215 12
225 52
227 7
241 0
253 25
255 46
269 22
271 51
283 215
284 69
285 61
296 9
297 160
298 88
299 402
300 113
312 68
313 432
314 999
315 258
316 32

$$$$

     RDKit          2D

 24 28  0  0  1  0  0  0  0  0999 V2000
   -6.4952   -5.2500    0.0000 C   0  0  0  0  0  0  0  0  0  0  0  0
   -2.5981   -3.0000    0.0000 C   0  0  0  0  0  0  0  0  0  0  0  0
   -1.2990   -2.2500    0.0000 C   0  0  0  0  0  0  0  0  0  0  0  0
    2.0367    3.3338    0.0000 C   0  0  0  0  0  0  0  0  0  0  0  0
    3.5285    3.4906    0.0000 C   0  0  0  0  0  0  0  0  0  0  0  0
   -3.8971   -0.7500    0.0000 C   0  0  0  0  0  0  0  0  0  0  0  0
   -1.2990    2.2500    0.0000 C   0  0  0  0  0  0  0  0  0  0  0  0
    6.2138    0.6531    0.0000 C   0  0  0  0  0  0  0  0  0  0  0  0
   -5.1962   -4.5000    0.0000 C   0  0  0  0  0  0  0  0  0  0  0  0
   -3.8971   -2.2500    0.0000 C   0  0  0  0  0  0  0  0  0  0  0  0
    1.4266    1.9635    0.0000 C   0  0  0  0  0  0  0  0  0  0  0  0
   -1.2990   -0.7500    0.0000 C   0  0  0  0  0  0  0  0  0  0  0  0
    0.0000    1.5000    0.0000 C   0  0  0  0  0  0  0  0  0  0  0  0
    4.4102    2.2771    0.0000 C   0  0  0  0  0  0  0  0  0  0  0  0
   -2.5981    0.0000    0.0000 C   0  0  0  0  0  0  0  0  0  0  0  0
    0.0000   -0.0000    0.0000 C   0  0  0  0  0  0  0  0  0  0  0  0
    2.3083    0.7500    0.0000 C   0  0  0  0  0  0  0  0  0  0  0  0
    3.8000    0.9068    0.0000 C   0  0  0  0  0  0  0  0  0  0  0  0
   -3.8971   -5.2500    0.0000 O   0  0  0  0  0  0  0  0  0  0  0  0
   -2.5981    1.5000    0.0000 O   0  0  0  0  0  0  0  0  0  0  0  0
    5.9019    2.1203    0.0000 O   0  0  0  0  0  0  0  0  0  0  0  0
    4.9148   -0.0969    0.0000 O   0  0  0  0  0  0  0  0  0  0  0  0
   -5.1962   -3.0000    0.0000 O   0  0  0  0  0  0  0  0  0  0  0  0
    1.4266   -0.4635    0.0000 O   0  0  0  0  0  0  0  0  0  0  0  0
  3  2  2  0
  5  4  1  0
  9  1  1  0
 10  2  1  0
 10  6  2  0
 11  4  2  0
 12  3  1  0
 13  7  1  1
 13 11  1  0
 14  5  2  0
 15  6  1  0
 15 12  2  0
 16 12  1  0
 16 13  1  0
 17 11  1  0
 18 14  1  0
 18 17  2  0
 19  9  2  0
 20  7  1  0
 20 15  1  0
 21  8  1  0
 21 14  1  0
 22  8  1  0
 22 18  1  0
 23  9  1  0
 23 10  1  0
 16 24  1  1
 24 17  1  0
M  END
>  <NAME>  (4706) 
MAACKIAIN ACETATE

>  <SYNONYMS>  (4706) 


>  <SPECTRUM TYPE>  (4706) 
MS1

>  <INSTRUMENT TYPE>  (4706) 
EI-B

>  <INSTRUMENT>  (4706) 
HITACHI RMU-7L

>  <ION MODE>  (4706) 
P

>  <INCHIKEY>  (4706) 
GLQXTNUEWAAYKI-BBRMVZONSA-N

>  <FORMULA>  (4706) 
C18H14O6

>  <EXACT MASS>  (4706) 
326.07903816799995

>  <MW>  (4706) 
326

>  <ID>  (4706) 
JP003135

>  <CONTRIBUTOR>  (4706) 
University of Tokyo Team, {Faculty of Engineering, University of Tokyo

>  <COMMENT>  (4706) 
SMILES=CC(=O)Oc(c5)cc(O4)c(c5)C([H])(O1)C([H])(C4)c(c2)c(c(O3)c(OC3)c2)1
InChI=InChI=1S/C18H14O6/c1-9(19)23-10-2-3-12-15(6-10)20-7-13-11-4-5-14-18(22-8-21-14)17(11)24-16(12)13/h2-6,13,16H,7-8H2,1H3/t13-,16-/m0/s1
computed SMILES=O=C(OC1=CC=C2C(OCC3C4=CC=C5OCOC5=C4OC23)=C1)C
accession=JP003135
date=2016.01.19 (Created 2008.10.21, modified 2011.05.06)
author=NAKAYAMA M, MASS SPECTROSCOPY SOC. OF JAPAN (MSSJ)
license=CC BY-NC-SA
exact mass=326.07904
ionization energy=70 eV
ion type=[M]+*
computed spectral entropy=2.2413318916134575
computed normalized entropy=0.7910918167583589
SPLASH=splash10-001i-0792000000-fabcdf258a559e5b0d58
submitter=submitter = University of Tokyo Team (Faculty of Engineering, University of Tokyo)
MoNA Rating=3.75

>  <NUM PEAKS>  (4706) 
17

>  <MASS SPECTRAL PEAKS>  (4706) 
134 32
139 4
141 4
147 12
151 12
152 4
162 20
171 4
175 16
247 4
253 4
267 4
283 12
284 99.99
285 12
326 28
329 4

>  <PREDICTED SPECTRUM>  (4706) 
15 4
39 40
41 43
42 25
43 214
44 28
51 53
52 7
53 38
55 36
57 17
62 14
63 98
64 50
65 101
66 7
69 60
70 8
74 5
75 34
76 20
77 92
78 38
79 0
87 27
88 1
89 51
91 91
92 14
94 8
95 20
97 32
98 0
102 48
103 51
105 66
106 54
107 87
109 3
111 19
113 40
114 10
115 161
116 46
117 9
118 23
119 43
120 5
121 26
123 1
126 9
127 53
128 57
131 75
132 17
133 73
134 74
135 62
136 22
139 20
141 47
142 9
145 28
146 45
147 88
148 95
149 86
150 35
151 58
152 117
153 63
154 35
155 0
157 28
158 10
161 32
163 88
164 27
165 94
166 84
167 97
168 63
169 47
170 9
171 43
172 25
173 69
174 54
175 77
176 96
177 26
178 23
181 44
182 2
183 53
184 53
185 8
186 63
187 65
188 40
189 108
190 25
194 53
195 19
196 24
197 67
199 41
200 15
201 47
202 8
203 12
207 63
209 92
210 63
211 101
212 22
213 101
214 55
215 81
216 36
217 6
221 8
222 22
223 44
224 116
225 202
226 135
227 119
228 67
229 63
237 31
238 87
239 81
240 77
241 104
242 23
243 63
250 9
252 1
253 135
254 87
255 100
256 37
265 30
266 75
267 160
268 55
269 56
281 61
282 99
283 406
284 999
285 423
286 119
287 3
326 396
327 238
328 64

$$$$

     RDKit          2D

 24 28  0  0  1  0  0  0  0  0999 V2000
   -7.7481    2.4204    0.0000 C   0  0  0  0  0  0  0  0  0  0  0  0
   -5.1490    5.4200    0.0000 C   0  0  0  0  0  0  0  0  0  0  0  0
   -3.8500    0.1700    0.0000 C   0  0  0  0  0  0  0  0  0  0  0  0
   -5.1500    0.9200    0.0000 C   0  0  0  0  0  0  0  0  0  0  0  0
    2.6400    0.0600    0.0000 C   0  0  0  0  0  0  0  0  0  0  0  0
    1.4100   -2.6700    0.0000 C   0  0  0  0  0  0  0  0  0  0  0  0
    0.0400    2.4200    0.0000 C   0  0  0  0  0  0  0  0  0  0  0  0
    5.3200   -2.7700    0.0000 C   0  0  0  0  0  0  0  0  0  0  0  0
   -2.5600    0.9300    0.0000 C   0  0  0  0  0  0  0  0  0  0  0  0
    1.1600   -0.0900    0.0000 C   0  0  0  0  0  0  0  0  0  0  0  0
    0.0400    0.9200    0.0000 C   0  0  0  0  0  0  0  0  0  0  0  0
   -5.1500    2.4200    0.0000 C   0  0  0  0  0  0  0  0  0  0  0  0
    0.5400   -1.4600    0.0000 C   0  0  0  0  0  0  0  0  0  0  0  0
    3.5200   -1.1600    0.0000 C   0  0  0  0  0  0  0  0  0  0  0  0
    2.9000   -2.5200    0.0000 C   0  0  0  0  0  0  0  0  0  0  0  0
   -1.2600    0.1700    0.0000 C   0  0  0  0  0  0  0  0  0  0  0  0
   -2.5500    2.4200    0.0000 C   0  0  0  0  0  0  0  0  0  0  0  0
   -3.8500    3.1700    0.0000 C   0  0  0  0  0  0  0  0  0  0  0  0
   -6.4489    3.1702    0.0000 O   0  0  0  0  0  0  0  0  0  0  0  0
   -3.8500    4.6700    0.0000 O   0  0  0  0  0  0  0  0  0  0  0  0
   -1.2600    3.1800    0.0000 O   0  0  0  0  0  0  0  0  0  0  0  0
    5.0100   -1.3100    0.0000 O   0  0  0  0  0  0  0  0  0  0  0  0
    4.0200   -3.5200    0.0000 O   0  0  0  0  0  0  0  0  0  0  0  0
   -0.9500   -1.3000    0.0000 O   0  0  0  0  0  0  0  0  0  0  0  0
  4  3  2  0
  9  3  1  0
 10  5  2  0
 11  7  1  1
 11 10  1  0
 12  4  1  0
 13  6  2  0
 13 10  1  0
 14  5  1  0
 15  6  1  0
 15 14  2  0
 16  9  1  0
 16 11  1  0
 17  9  2  0
 18 12  2  0
 18 17  1  0
 19  1  1  0
 19 12  1  0
 20  2  1  0
 20 18  1  0
 21  7  1  0
 21 17  1  0
 22  8  1  0
 22 14  1  0
 23  8  1  0
 23 15  1  0
 24 13  1  0
 16 24  1  1
M  END
>  <NAME>  (4707) 
4-METHOXYPTEROCARPIN

>  <SYNONYMS>  (4707) 


>  <SPECTRUM TYPE>  (4707) 
MS1

>  <INSTRUMENT TYPE>  (4707) 
EI-B

>  <INSTRUMENT>  (4707) 
HITACHI RMU-7L

>  <ION MODE>  (4707) 
P

>  <INCHIKEY>  (4707) 
FNOOADLKGGWRGC-ZBEGNZNMSA-N

>  <FORMULA>  (4707) 
C18H16O6

>  <EXACT MASS>  (4707) 
328.09468823199995

>  <MW>  (4707) 
328

>  <ID>  (4707) 
JP003134

>  <CONTRIBUTOR>  (4707) 
University of Tokyo Team, {Faculty of Engineering, University of Tokyo

>  <COMMENT>  (4707) 
SMILES=COc(c5)c(OC)c(O4)c(c5)C([H])(O1)C([H])(C4)c(c2)c(cc(O3)c(OC3)2)1
InChI=InChI=1S/C18H16O6/c1-19-12-4-3-9-16-11(7-21-17(9)18(12)20-2)10-5-14-15(23-8-22-14)6-13(10)24-16/h3-6,11,16H,7-8H2,1-2H3/t11-,16-/m0/s1
computed SMILES=O(C1=CC=C2C(OCC3C4=CC=5OCOC5C=C4OC23)=C1OC)C
accession=JP003134
date=2016.01.19 (Created 2008.10.21, modified 2011.05.06)
author=NAKAYAMA M, MASS SPECTROSCOPY SOC. OF JAPAN (MSSJ)
license=CC BY-NC-SA
exact mass=328.09469
ionization energy=70 eV
ion type=[M]+*
computed spectral entropy=2.007256277529282
computed normalized entropy=0.7412182671917618
SPLASH=splash10-004i-0329000000-adfe94d0793d80fb7a88
submitter=submitter = University of Tokyo Team (Faculty of Engineering, University of Tokyo)
MoNA Rating=3.75

>  <NUM PEAKS>  (4707) 
15

>  <MASS SPECTRAL PEAKS>  (4707) 
149 16
151 4
162 15
163 5
175 6
178 2
253 4
281 12
282 6
283 4
298 6
313 20
327 3
328 99.99
329 17

>  <PREDICTED SPECTRUM>  (4707) 
43 28
49 10
50 5
51 67
53 33
55 30
57 4
62 19
63 81
64 2
65 23
69 33
71 16
74 1
75 36
76 25
77 129
78 64
79 36
82 0
88 1
89 82
90 9
91 118
95 25
103 69
104 50
105 70
106 80
107 109
109 40
113 76
115 87
117 18
118 5
119 43
120 26
121 111
122 2
123 22
124 14
125 49
126 28
127 35
128 22
131 43
132 1
133 22
134 87
135 137
136 98
137 70
138 19
139 42
141 17
142 19
147 141
148 151
149 317
150 70
151 161
152 80
153 46
154 7
156 1
157 3
161 122
162 409
163 221
164 251
165 126
166 21
167 71
175 284
176 50
177 87
178 105
179 94
181 30
182 7
189 13
190 1
191 30
195 0
197 9
199 12
211 28
212 38
213 49
225 91
227 34
228 47
239 18
240 26
241 47
252 51
253 52
255 56
256 2
265 18
266 64
267 97
268 48
269 60
279 20
280 23
281 221
282 115
283 140
284 28
285 131
295 64
296 36
297 204
298 195
299 105
311 157
312 104
313 377
314 118
327 165
328 999
329 354
330 84

$$$$

     RDKit          2D

 21 25  0  0  1  0  0  0  0  0999 V2000
   -2.5981   -3.0000    0.0000 C   0  0  0  0  0  0  0  0  0  0  0  0
   -1.2990   -2.2500    0.0000 C   0  0  0  0  0  0  0  0  0  0  0  0
    2.0367    3.3338    0.0000 C   0  0  0  0  0  0  0  0  0  0  0  0
    3.5285    3.4906    0.0000 C   0  0  0  0  0  0  0  0  0  0  0  0
   -3.8971   -0.7500    0.0000 C   0  0  0  0  0  0  0  0  0  0  0  0
   -1.2990    2.2500    0.0000 C   0  0  0  0  0  0  0  0  0  0  0  0
    6.2138    0.6531    0.0000 C   0  0  0  0  0  0  0  0  0  0  0  0
   -3.8971   -2.2500    0.0000 C   0  0  0  0  0  0  0  0  0  0  0  0
    1.4266    1.9635    0.0000 C   0  0  0  0  0  0  0  0  0  0  0  0
   -1.2990   -0.7500    0.0000 C   0  0  0  0  0  0  0  0  0  0  0  0
    0.0000    1.5000    0.0000 C   0  0  0  0  0  0  0  0  0  0  0  0
    4.4102    2.2771    0.0000 C   0  0  0  0  0  0  0  0  0  0  0  0
   -2.5981   -0.0000    0.0000 C   0  0  0  0  0  0  0  0  0  0  0  0
    0.0000    0.0000    0.0000 C   0  0  0  0  0  0  0  0  0  0  0  0
    2.3083    0.7500    0.0000 C   0  0  0  0  0  0  0  0  0  0  0  0
    3.8000    0.9068    0.0000 C   0  0  0  0  0  0  0  0  0  0  0  0
   -5.1962   -3.0000    0.0000 O   0  0  0  0  0  0  0  0  0  0  0  0
   -2.5981    1.5000    0.0000 O   0  0  0  0  0  0  0  0  0  0  0  0
    5.9019    2.1203    0.0000 O   0  0  0  0  0  0  0  0  0  0  0  0
    4.9148   -0.0969    0.0000 O   0  0  0  0  0  0  0  0  0  0  0  0
    1.4266   -0.4635    0.0000 O   0  0  0  0  0  0  0  0  0  0  0  0
  2  1  2  0
  4  3  1  0
  8  1  1  0
  8  5  2  0
  9  3  2  0
 10  2  1  0
 11  6  1  1
 11  9  1  0
 12  4  2  0
 13  5  1  0
 13 10  2  0
 14 10  1  0
 14 11  1  0
 15  9  1  0
 16 12  1  0
 16 15  2  0
 17  8  1  0
 18  6  1  0
 18 13  1  0
 19  7  1  0
 19 12  1  0
 20  7  1  0
 20 16  1  0
 14 21  1  1
 21 15  1  0
M  END
>  <NAME>  (4708) 
MAACKIAIN

>  <SYNONYMS>  (4708) 


>  <SPECTRUM TYPE>  (4708) 
MS1

>  <INSTRUMENT TYPE>  (4708) 
EI-B

>  <INSTRUMENT>  (4708) 
HITACHI RMU-7L

>  <ION MODE>  (4708) 
P

>  <INCHIKEY>  (4708) 
SMEBAXWPNGCZEO-FZMZJTMJSA-N

>  <FORMULA>  (4708) 
C16H12O5

>  <EXACT MASS>  (4708) 
284.068473484

>  <MW>  (4708) 
284

>  <ID>  (4708) 
JP003133

>  <CONTRIBUTOR>  (4708) 
University of Tokyo Team, {Faculty of Engineering, University of Tokyo

>  <COMMENT>  (4708) 
SMILES=Oc(c5)cc(O4)c(c5)C([H])(O1)C([H])(C4)c(c2)c(c(O3)c(OC3)c2)1
InChI=InChI=1S/C16H12O5/c17-8-1-2-10-13(5-8)18-6-11-9-3-4-12-16(20-7-19-12)15(9)21-14(10)11/h1-5,11,14,17H,6-7H2/t11-,14-/m0/s1
computed SMILES=OC1=CC=C2C(OCC3C4=CC=C5OCOC5=C4OC23)=C1
accession=JP003133
date=2016.01.19 (Created 2008.10.21, modified 2011.05.06)
author=NAKAYAMA M, MASS SPECTROSCOPY SOC. OF JAPAN (MSSJ)
license=CC BY-NC-SA
exact mass=284.06847
ionization energy=70 eV
ion type=[M]+*
computed spectral entropy=1.815233719277438
computed normalized entropy=0.7305037875094038
SPLASH=splash10-001i-0390000000-d54197211f3a6129aad0
submitter=submitter = University of Tokyo Team (Faculty of Engineering, University of Tokyo)
MoNA Rating=3.75

>  <NUM PEAKS>  (4708) 
12

>  <MASS SPECTRAL PEAKS>  (4708) 
134 12
137 2
141 5
147 9
151 7
162 13
175 7
197 3
267 8
283 19
284 99.99
285 15

>  <PREDICTED SPECTRUM>  (4708) 
17 11
18 10
26 13
27 65
28 55
29 30
30 22
31 9
38 9
39 55
41 41
42 13
43 127
44 56
45 35
49 20
50 70
51 143
52 68
53 106
54 30
55 101
56 31
57 65
58 19
59 14
62 71
63 175
64 93
65 130
66 71
67 51
68 35
69 117
70 76
71 81
74 42
75 54
76 111
77 151
78 70
79 122
80 68
81 94
82 36
83 39
84 41
85 25
86 56
87 54
88 57
89 124
90 67
91 128
92 69
93 44
94 38
95 42
96 51
97 57
98 76
99 44
100 36
101 34
102 68
103 104
104 78
105 94
106 94
107 72
108 26
109 58
110 79
111 83
112 63
113 101
114 78
115 192
116 90
117 81
118 94
119 81
120 56
121 95
122 74
123 69
124 43
125 25
126 112
127 130
128 138
129 90
130 43
131 108
132 99
133 163
134 182
135 155
136 69
137 172
138 55
139 100
140 74
141 134
142 110
143 32
144 65
145 93
146 97
147 188
148 184
149 121
150 52
151 123
152 118
153 147
154 86
155 111
156 29
157 52
158 21
159 118
160 118
161 220
162 191
163 144
164 34
165 63
166 66
167 79
168 77
169 108
170 70
171 98
172 110
173 105
174 79
175 177
176 84
180 12
181 54
182 77
183 74
184 72
185 154
186 87
187 141
188 43
194 36
195 101
196 61
197 121
198 115
199 103
200 50
201 63
202 17
208 79
209 117
210 69
211 96
213 58
214 42
215 69
216 27
221 12
222 14
223 45
224 42
225 157
226 168
227 164
228 85
229 50
230 5
235 30
236 31
237 123
238 97
239 66
240 37
241 144
242 73
243 79
253 102
254 85
255 164
256 88
257 86
265 81
266 45
267 166
268 59
269 90
270 21
281 65
282 118
283 444
284 999
285 410
286 155
287 39

$$$$

     RDKit          2D

 22 26  0  0  1  0  0  0  0  0999 V2000
   -7.7481    2.4204    0.0000 C   0  0  0  0  0  0  0  0  0  0  0  0
   -5.1500    0.9200    0.0000 C   0  0  0  0  0  0  0  0  0  0  0  0
   -3.8500    0.1700    0.0000 C   0  0  0  0  0  0  0  0  0  0  0  0
   -3.8500    3.1700    0.0000 C   0  0  0  0  0  0  0  0  0  0  0  0
    2.6400    0.0600    0.0000 C   0  0  0  0  0  0  0  0  0  0  0  0
    1.4100   -2.6700    0.0000 C   0  0  0  0  0  0  0  0  0  0  0  0
    0.0400    2.4200    0.0000 C   0  0  0  0  0  0  0  0  0  0  0  0
    5.3200   -2.7700    0.0000 C   0  0  0  0  0  0  0  0  0  0  0  0
   -5.1500    2.4200    0.0000 C   0  0  0  0  0  0  0  0  0  0  0  0
   -2.5600    0.9300    0.0000 C   0  0  0  0  0  0  0  0  0  0  0  0
    1.1600   -0.0900    0.0000 C   0  0  0  0  0  0  0  0  0  0  0  0
    0.0400    0.9200    0.0000 C   0  0  0  0  0  0  0  0  0  0  0  0
   -2.5500    2.4200    0.0000 C   0  0  0  0  0  0  0  0  0  0  0  0
    0.5400   -1.4600    0.0000 C   0  0  0  0  0  0  0  0  0  0  0  0
    3.5200   -1.1600    0.0000 C   0  0  0  0  0  0  0  0  0  0  0  0
    2.9000   -2.5200    0.0000 C   0  0  0  0  0  0  0  0  0  0  0  0
   -1.2600    0.1700    0.0000 C   0  0  0  0  0  0  0  0  0  0  0  0
   -6.4489    3.1702    0.0000 O   0  0  0  0  0  0  0  0  0  0  0  0
   -1.2600    3.1800    0.0000 O   0  0  0  0  0  0  0  0  0  0  0  0
    5.0100   -1.3100    0.0000 O   0  0  0  0  0  0  0  0  0  0  0  0
    4.0200   -3.5200    0.0000 O   0  0  0  0  0  0  0  0  0  0  0  0
   -0.9500   -1.3000    0.0000 O   0  0  0  0  0  0  0  0  0  0  0  0
  3  2  2  0
  9  2  1  0
  9  4  2  0
 10  3  1  0
 11  5  2  0
 12  7  1  1
 12 11  1  0
 13  4  1  0
 13 10  2  0
 14  6  2  0
 14 11  1  0
 15  5  1  0
 16  6  1  0
 16 15  2  0
 17 10  1  0
 17 12  1  0
 18  1  1  0
 18  9  1  0
 19  7  1  0
 19 13  1  0
 20  8  1  0
 20 15  1  0
 21  8  1  0
 21 16  1  0
 22 14  1  0
 17 22  1  1
M  END
>  <NAME>  (4709) 
PTEROCARPIN

>  <SYNONYMS>  (4709) 


>  <SPECTRUM TYPE>  (4709) 
MS1

>  <INSTRUMENT TYPE>  (4709) 
EI-B

>  <INSTRUMENT>  (4709) 
HITACHI RMU-7L

>  <ION MODE>  (4709) 
P

>  <INCHIKEY>  (4709) 
YLZYAUCOYZKLMA-SJCJKPOMSA-N

>  <FORMULA>  (4709) 
C17H14O5

>  <EXACT MASS>  (4709) 
298.084123548

>  <MW>  (4709) 
298

>  <ID>  (4709) 
JP003132

>  <CONTRIBUTOR>  (4709) 
University of Tokyo Team, {Faculty of Engineering, University of Tokyo

>  <COMMENT>  (4709) 
SMILES=COc(c5)cc(O4)c(c5)C([H])(O1)C([H])(C4)c(c2)c(cc(O3)c(OC3)2)1
InChI=InChI=1S/C17H14O5/c1-18-9-2-3-10-13(4-9)19-7-12-11-5-15-16(21-8-20-15)6-14(11)22-17(10)12/h2-6,12,17H,7-8H2,1H3/t12-,17-/m0/s1
computed SMILES=O(C1=CC=C2C(OCC3C4=CC=5OCOC5C=C4OC23)=C1)C
accession=JP003132
date=2016.01.19 (Created 2008.10.21, modified 2011.05.06)
author=NAKAYAMA M, MASS SPECTROSCOPY SOC. OF JAPAN (MSSJ)
license=CC BY-NC-SA
exact mass=298.08412
ionization energy=70 eV
ion type=[M]+*
computed spectral entropy=1.9957836803899245
computed normalized entropy=0.6904937660484926
SPLASH=splash10-0002-0490000000-c56e2efc262f968345cb
submitter=submitter = University of Tokyo Team (Faculty of Engineering, University of Tokyo)
MoNA Rating=3.75

>  <NUM PEAKS>  (4709) 
18

>  <MASS SPECTRAL PEAKS>  (4709) 
107 2
115 2
133 3
139 2
141 2
148 20
149 5
152 2
161 8
162 14
169 2
175 5
197 2
267 2
283 10
297 15
298 99.99
299 16

>  <PREDICTED SPECTRUM>  (4709) 
27 2
43 6
44 26
51 60
52 10
53 51
55 41
56 4
57 11
62 21
63 101
64 38
65 58
66 5
69 38
75 1
76 31
77 97
78 30
79 53
80 4
81 5
83 20
84 17
89 46
91 67
92 47
95 18
102 24
103 15
104 31
105 38
106 46
107 63
108 7
109 45
110 13
111 40
112 22
113 67
115 109
117 19
118 51
119 63
120 31
121 90
122 48
123 19
124 33
125 10
126 49
127 117
128 90
129 90
130 20
131 72
132 65
133 128
134 130
135 83
136 30
137 133
138 59
139 99
140 61
141 93
142 9
145 93
146 101
147 232
148 328
149 99
151 147
152 120
153 55
154 63
155 84
159 3
160 57
161 269
162 400
163 101
164 70
165 44
167 44
168 41
169 82
170 53
171 98
172 6
174 16
175 348
176 49
177 61
180 39
181 57
182 14
183 31
184 1
185 42
186 20
197 15
198 17
199 58
209 63
210 15
211 76
212 39
213 10
222 13
223 17
224 3
225 30
227 7
238 11
239 22
240 56
241 9
251 13
255 79
256 6
257 30
267 105
268 20
269 29
270 1
271 10
281 159
282 80
283 240
284 91
296 41
297 383
298 999
299 398
300 91

$$$$

     RDKit          2D

 21 24  0  0  1  0  0  0  0  0999 V2000
   -6.8581    2.0404    0.0000 C   0  0  0  0  0  0  0  0  0  0  0  0
    6.1846   -3.9341    0.0000 C   0  0  0  0  0  0  0  0  0  0  0  0
    4.4200   -1.5100    0.0000 C   0  0  0  0  0  0  0  0  0  0  0  0
   -4.2600    0.5500    0.0000 C   0  0  0  0  0  0  0  0  0  0  0  0
    3.5400   -0.3000    0.0000 C   0  0  0  0  0  0  0  0  0  0  0  0
   -2.9600   -0.2000    0.0000 C   0  0  0  0  0  0  0  0  0  0  0  0
   -2.9600    2.7900    0.0000 C   0  0  0  0  0  0  0  0  0  0  0  0
    2.3200   -3.0400    0.0000 C   0  0  0  0  0  0  0  0  0  0  0  0
    0.9300    2.0400    0.0000 C   0  0  0  0  0  0  0  0  0  0  0  0
   -4.2600    2.0400    0.0000 C   0  0  0  0  0  0  0  0  0  0  0  0
    3.8100   -2.8800    0.0000 C   0  0  0  0  0  0  0  0  0  0  0  0
    2.0500   -0.4600    0.0000 C   0  0  0  0  0  0  0  0  0  0  0  0
   -1.6700    0.5500    0.0000 C   0  0  0  0  0  0  0  0  0  0  0  0
    0.9300    0.5500    0.0000 C   0  0  0  0  0  0  0  0  0  0  0  0
   -1.6700    2.0400    0.0000 C   0  0  0  0  0  0  0  0  0  0  0  0
    1.4400   -1.8300    0.0000 C   0  0  0  0  0  0  0  0  0  0  0  0
   -0.3700   -0.2000    0.0000 C   0  0  0  0  0  0  0  0  0  0  0  0
   -5.5589    2.7902    0.0000 O   0  0  0  0  0  0  0  0  0  0  0  0
    4.6930   -4.0925    0.0000 O   0  0  0  0  0  0  0  0  0  0  0  0
   -0.3700    2.7900    0.0000 O   0  0  0  0  0  0  0  0  0  0  0  0
   -0.0600   -1.6700    0.0000 O   0  0  0  0  0  0  0  0  0  0  0  0
  5  3  2  0
  6  4  1  0
 10  4  2  0
 10  7  1  0
 11  3  1  0
 11  8  2  0
 12  5  1  0
 13  6  2  0
 14  9  1  1
 14 12  1  0
 15  7  2  0
 15 13  1  0
 16  8  1  0
 16 12  2  0
 17 13  1  0
 17 14  1  0
 18  1  1  0
 18 10  1  0
 19  2  1  0
 19 11  1  0
 20  9  1  0
 20 15  1  0
 21 16  1  0
 17 21  1  1
M  END
>  <NAME>  (4710) 
HOMOPTEROCARPIN

>  <SYNONYMS>  (4710) 


>  <SPECTRUM TYPE>  (4710) 
MS1

>  <INSTRUMENT TYPE>  (4710) 
EI-B

>  <INSTRUMENT>  (4710) 
HITACHI RMU-7L

>  <ION MODE>  (4710) 
P

>  <INCHIKEY>  (4710) 
VPGIGLKLCFOWDN-YOEHRIQHSA-N

>  <FORMULA>  (4710) 
C17H16O4

>  <EXACT MASS>  (4710) 
284.104858992

>  <MW>  (4710) 
284

>  <ID>  (4710) 
JP003131

>  <CONTRIBUTOR>  (4710) 
University of Tokyo Team, {Faculty of Engineering, University of Tokyo

>  <COMMENT>  (4710) 
SMILES=COc(c4)cc(O3)c(c4)C([H])(O1)C([H])(C3)c(c2)c(cc(OC)c2)1
InChI=InChI=1S/C17H16O4/c1-18-10-4-6-13-15(7-10)20-9-14-12-5-3-11(19-2)8-16(12)21-17(13)14/h3-8,14,17H,9H2,1-2H3/t14-,17-/m0/s1
computed SMILES=O(C1=CC=C2C(OCC3C4=CC=C(OC)C=C4OC23)=C1)C
accession=JP003131
date=2016.01.19 (Created 2008.10.21, modified 2011.05.06)
author=NAKAYAMA M, MASS SPECTROSCOPY SOC. OF JAPAN (MSSJ)
license=CC BY-NC-SA
exact mass=284.10486
ionization energy=70 eV
ion type=[M]+*
computed spectral entropy=1.95883123935042
computed normalized entropy=0.723336383702618
SPLASH=splash10-001i-0290000000-eb2189160c94104537b6
submitter=submitter = University of Tokyo Team (Faculty of Engineering, University of Tokyo)
MoNA Rating=3.75

>  <NUM PEAKS>  (4710) 
15

>  <MASS SPECTRAL PEAKS>  (4710) 
133 5
148 22
149 2
151 3
152 2
161 18
253 4
267 3
269 24
270 4
282 2
283 34
284 99.99
285 20
286 2

>  <PREDICTED SPECTRUM>  (4710) 
27 8
63 10
69 18
104 28
105 48
106 20
107 40
108 14
113 16
115 129
116 29
119 55
120 2
121 94
122 68
127 67
129 10
131 30
132 80
133 184
134 163
135 87
137 54
138 3
139 64
145 10
146 55
147 193
148 447
149 133
151 11
155 16
159 11
160 104
161 308
162 102
163 0
167 2
170 3
171 16
185 13
195 15
197 38
198 28
211 30
224 22
225 33
226 45
227 0
240 0
241 82
242 6
253 156
254 55
255 37
256 60
257 16
265 0
267 100
268 39
269 530
270 190
271 2
282 32
283 581
284 999
285 363
286 44

$$$$

     RDKit          2D

 17 18  0  0  0  0  0  0  0  0999 V2000
   -5.1981    0.7504    0.0000 C   0  0  0  0  0  0  0  0  0  0  0  0
    2.5990   -3.7500    0.0000 C   0  0  0  0  0  0  0  0  0  0  0  0
    5.1981   -0.7504    0.0000 C   0  0  0  0  0  0  0  0  0  0  0  0
   -2.6000   -0.7500    0.0000 C   0  0  0  0  0  0  0  0  0  0  0  0
   -1.3000   -1.5000    0.0000 C   0  0  0  0  0  0  0  0  0  0  0  0
   -1.3000    1.5000    0.0000 C   0  0  0  0  0  0  0  0  0  0  0  0
   -2.6000    0.7500    0.0000 C   0  0  0  0  0  0  0  0  0  0  0  0
    0.0000   -0.7500    0.0000 C   0  0  0  0  0  0  0  0  0  0  0  0
    0.0000    0.7500    0.0000 C   0  0  0  0  0  0  0  0  0  0  0  0
    1.3000   -1.5000    0.0000 C   0  0  0  0  0  0  0  0  0  0  0  0
    2.6000   -0.7500    0.0000 C   0  0  0  0  0  0  0  0  0  0  0  0
    2.6000    0.7500    0.0000 C   0  0  0  0  0  0  0  0  0  0  0  0
    3.8989    1.5002    0.0000 O   0  0  0  0  0  0  0  0  0  0  0  0
   -3.8989    1.5002    0.0000 O   0  0  0  0  0  0  0  0  0  0  0  0
    1.3000   -3.0000    0.0000 O   0  0  0  0  0  0  0  0  0  0  0  0
    3.8989   -1.5002    0.0000 O   0  0  0  0  0  0  0  0  0  0  0  0
    1.3000    1.5000    0.0000 O   0  0  0  0  0  0  0  0  0  0  0  0
  5  4  2  0
  7  4  1  0
  7  6  2  0
  8  5  1  0
  9  6  1  0
  9  8  2  0
 10  8  1  0
 11 10  2  0
 12 11  1  0
 13 12  2  0
 14  1  1  0
 14  7  1  0
 15  2  1  0
 15 10  1  0
 16  3  1  0
 16 11  1  0
 17  9  1  0
 17 12  1  0
M  END
>  <NAME>  (4711) 
3,4,7-TRIMETHOXYCOUMARIN

>  <SYNONYMS>  (4711) 


>  <SPECTRUM TYPE>  (4711) 
MS1

>  <INSTRUMENT TYPE>  (4711) 
EI-B

>  <INSTRUMENT>  (4711) 
HITACHI RMU-7L

>  <ION MODE>  (4711) 
P

>  <INCHIKEY>  (4711) 
AYMSWLVOSROJFX-UHFFFAOYSA-N

>  <FORMULA>  (4711) 
C12H12O5

>  <EXACT MASS>  (4711) 
236.06847348399998

>  <MW>  (4711) 
236

>  <ID>  (4711) 
JP003130

>  <CONTRIBUTOR>  (4711) 
University of Tokyo Team, {Faculty of Engineering, University of Tokyo

>  <COMMENT>  (4711) 
SMILES=COc(c2)cc(O1)c(c2)C(OC)=C(OC)C(=O)1
InChI=InChI=1S/C12H12O5/c1-14-7-4-5-8-9(6-7)17-12(13)11(16-3)10(8)15-2/h4-6H,1-3H3
computed SMILES=O=C1OC=2C=C(OC)C=CC2C(OC)=C1OC
accession=JP003130
date=2016.01.19 (Created 2008.10.21, modified 2011.05.06)
author=NAKAYAMA M, MASS SPECTROSCOPY SOC. OF JAPAN (MSSJ)
license=CC BY-NC-SA
exact mass=236.06847
ionization energy=70 eV
ion type=[M]+*
computed spectral entropy=2.45547596537235
computed normalized entropy=0.7292130211743865
SPLASH=splash10-000f-2960000000-50bec6607a443a8d1bcb
submitter=submitter = University of Tokyo Team (Faculty of Engineering, University of Tokyo)
MoNA Rating=3.75

>  <NUM PEAKS>  (4711) 
29

>  <MASS SPECTRAL PEAKS>  (4711) 
41 3
43 2
50 2
51 6
63 10
74 2
75 2
77 6
79 7
92 4
94 2
106 3
107 12
122 13
134 3
135 5
149 4
150 15
151 2
165 10
176 2
177 2
193 99.99
194 10
207 2
221 22
222 3
236 87
237 8

>  <PREDICTED SPECTRUM>  (4711) 
14 18
15 109
16 5
25 5
26 23
27 11
28 36
29 51
31 0
37 56
38 112
39 98
40 39
41 17
42 3
43 109
44 45
45 82
47 22
49 72
50 207
51 240
52 147
53 297
54 80
55 82
56 21
58 7
59 76
60 17
61 103
62 160
63 260
64 214
65 217
66 162
67 114
68 52
69 168
70 30
71 10
72 7
73 26
74 79
75 182
76 170
77 241
78 174
79 296
80 147
81 122
82 41
83 61
84 31
85 31
86 50
87 33
88 32
89 96
90 116
91 187
92 177
93 237
94 166
95 211
96 69
97 37
99 77
101 10
103 82
104 83
105 172
106 187
107 363
108 138
109 141
110 13
111 48
113 6
115 14
117 113
118 118
119 222
120 184
121 197
122 212
123 112
124 49
125 9
131 91
132 120
133 235
134 160
135 373
136 143
137 232
138 60
145 66
146 54
147 167
148 164
149 282
150 408
151 142
152 45
159 22
160 78
161 205
162 111
163 298
164 121
165 244
166 48
167 116
173 38
174 21
175 141
176 94
177 131
178 312
179 69
180 26
189 110
190 196
191 258
192 123
193 560
194 211
195 85
203 94
204 12
205 34
206 154
207 160
208 187
209 82
219 90
220 70
221 603
222 218
223 60
224 12
234 12
235 70
236 999
237 367
238 151
239 21

$$$$

     RDKit          2D

 15 16  0  0  0  0  0  0  0  0999 V2000
   -5.1981    0.7504    0.0000 C   0  0  0  0  0  0  0  0  0  0  0  0
    5.1981   -0.7504    0.0000 C   0  0  0  0  0  0  0  0  0  0  0  0
   -1.3000   -1.5000    0.0000 C   0  0  0  0  0  0  0  0  0  0  0  0
   -2.6000   -0.7500    0.0000 C   0  0  0  0  0  0  0  0  0  0  0  0
    1.3000   -1.5000    0.0000 C   0  0  0  0  0  0  0  0  0  0  0  0
   -1.3000    1.5000    0.0000 C   0  0  0  0  0  0  0  0  0  0  0  0
    0.0000   -0.7500    0.0000 C   0  0  0  0  0  0  0  0  0  0  0  0
   -2.6000    0.7500    0.0000 C   0  0  0  0  0  0  0  0  0  0  0  0
    0.0000    0.7500    0.0000 C   0  0  0  0  0  0  0  0  0  0  0  0
    2.6000   -0.7500    0.0000 C   0  0  0  0  0  0  0  0  0  0  0  0
    2.6000    0.7500    0.0000 C   0  0  0  0  0  0  0  0  0  0  0  0
    3.8989    1.5002    0.0000 O   0  0  0  0  0  0  0  0  0  0  0  0
   -3.8989    1.5002    0.0000 O   0  0  0  0  0  0  0  0  0  0  0  0
    3.8989   -1.5002    0.0000 O   0  0  0  0  0  0  0  0  0  0  0  0
    1.3000    1.5000    0.0000 O   0  0  0  0  0  0  0  0  0  0  0  0
  4  3  2  0
  7  3  1  0
  7  5  1  0
  8  4  1  0
  8  6  2  0
  9  6  1  0
  9  7  2  0
 10  5  2  0
 11 10  1  0
 12 11  2  0
 13  1  1  0
 13  8  1  0
 14  2  1  0
 14 10  1  0
 15  9  1  0
 15 11  1  0
M  END
>  <NAME>  (4712) 
3,7-DIMETHOXYCOUMARIN

>  <SYNONYMS>  (4712) 


>  <SPECTRUM TYPE>  (4712) 
MS1

>  <INSTRUMENT TYPE>  (4712) 
EI-B

>  <INSTRUMENT>  (4712) 
HITACHI RMU-7L

>  <ION MODE>  (4712) 
P

>  <INCHIKEY>  (4712) 
IAFJNCMUCQDWCR-UHFFFAOYSA-N

>  <FORMULA>  (4712) 
C11H10O4

>  <EXACT MASS>  (4712) 
206.0579088

>  <MW>  (4712) 
206

>  <ID>  (4712) 
JP003129

>  <CONTRIBUTOR>  (4712) 
University of Tokyo Team, {Faculty of Engineering, University of Tokyo

>  <COMMENT>  (4712) 
SMILES=COc(c2)cc(O1)c(c2)C=C(OC)C(=O)1
InChI=InChI=1S/C11H10O4/c1-13-8-4-3-7-5-10(14-2)11(12)15-9(7)6-8/h3-6H,1-2H3
computed SMILES=O=C1OC=2C=C(OC)C=CC2C=C1OC
accession=JP003129
date=2016.01.19 (Created 2008.10.21, modified 2011.05.06)
author=NAKAYAMA M, MASS SPECTROSCOPY SOC. OF JAPAN (MSSJ)
license=CC BY-NC-SA
exact mass=206.05791
ionization energy=70 eV
ion type=[M]+*
computed spectral entropy=1.8068638323062802
computed normalized entropy=0.6846625922179942
SPLASH=splash10-0bt9-0960000000-b870b696fff31418363b
submitter=submitter = University of Tokyo Team (Faculty of Engineering, University of Tokyo)
MoNA Rating=3.75

>  <NUM PEAKS>  (4712) 
14

>  <MASS SPECTRAL PEAKS>  (4712) 
92 9
119 2
120 2
135 26
149 6
161 3
163 85
164 8
177 20
191 2
192 3
205 3
206 99.99
207 10

>  <PREDICTED SPECTRUM>  (4712) 
14 13
15 94
25 6
26 48
27 27
28 42
29 49
30 26
31 28
37 98
38 166
39 202
40 69
41 90
42 43
43 83
44 66
45 60
49 99
50 336
51 400
52 206
53 329
54 80
55 92
56 46
57 47
58 24
59 45
61 112
62 265
63 388
64 250
65 212
66 172
67 88
68 61
69 242
70 52
71 6
72 34
73 53
74 153
75 256
76 271
77 377
78 210
79 307
80 133
81 71
82 33
84 56
85 41
86 45
87 41
88 70
89 201
90 138
91 248
92 268
93 169
94 105
95 98
102 69
103 67
104 115
105 231
106 198
107 384
108 123
109 46
116 26
117 123
118 98
119 292
120 303
121 152
122 91
131 125
132 156
133 198
134 197
135 506
136 61
137 34
145 76
146 72
147 171
148 242
149 140
150 64
159 71
160 127
161 189
162 188
163 795
164 239
165 28
175 111
176 123
177 233
178 415
179 126
189 48
190 60
191 426
192 144
205 66
206 999
207 358
208 127

$$$$

     RDKit          2D

 15 16  0  0  0  0  0  0  0  0999 V2000
   -5.1981    0.7504    0.0000 C   0  0  0  0  0  0  0  0  0  0  0  0
    2.5990   -3.7500    0.0000 C   0  0  0  0  0  0  0  0  0  0  0  0
   -2.6000   -0.7500    0.0000 C   0  0  0  0  0  0  0  0  0  0  0  0
   -1.3000   -1.5000    0.0000 C   0  0  0  0  0  0  0  0  0  0  0  0
   -1.3000    1.5000    0.0000 C   0  0  0  0  0  0  0  0  0  0  0  0
    2.6000   -0.7500    0.0000 C   0  0  0  0  0  0  0  0  0  0  0  0
   -2.6000    0.7500    0.0000 C   0  0  0  0  0  0  0  0  0  0  0  0
    0.0000   -0.7500    0.0000 C   0  0  0  0  0  0  0  0  0  0  0  0
    1.3000   -1.5000    0.0000 C   0  0  0  0  0  0  0  0  0  0  0  0
    0.0000    0.7500    0.0000 C   0  0  0  0  0  0  0  0  0  0  0  0
    2.6000    0.7500    0.0000 C   0  0  0  0  0  0  0  0  0  0  0  0
    3.8989    1.5002    0.0000 O   0  0  0  0  0  0  0  0  0  0  0  0
   -3.8989    1.5002    0.0000 O   0  0  0  0  0  0  0  0  0  0  0  0
    1.3000   -3.0000    0.0000 O   0  0  0  0  0  0  0  0  0  0  0  0
    1.3000    1.5000    0.0000 O   0  0  0  0  0  0  0  0  0  0  0  0
  4  3  2  0
  7  3  1  0
  7  5  2  0
  8  4  1  0
  9  6  2  0
  9  8  1  0
 10  5  1  0
 10  8  2  0
 11  6  1  0
 12 11  2  0
 13  1  1  0
 13  7  1  0
 14  2  1  0
 14  9  1  0
 15 10  1  0
 15 11  1  0
M  END
>  <NAME>  (4713) 
4,7-DIMETHOXYCOUMARIN

>  <SYNONYMS>  (4713) 


>  <SPECTRUM TYPE>  (4713) 
MS1

>  <INSTRUMENT TYPE>  (4713) 
EI-B

>  <INSTRUMENT>  (4713) 
HITACHI RMU-7L

>  <ION MODE>  (4713) 
P

>  <INCHIKEY>  (4713) 
UOOULHJCQCLGGT-UHFFFAOYSA-N

>  <FORMULA>  (4713) 
C11H10O4

>  <EXACT MASS>  (4713) 
206.0579088

>  <MW>  (4713) 
206

>  <ID>  (4713) 
JP003128

>  <CONTRIBUTOR>  (4713) 
University of Tokyo Team, {Faculty of Engineering, University of Tokyo

>  <COMMENT>  (4713) 
SMILES=COc(c2)cc(O1)c(c2)C(OC)=CC(=O)1
InChI=InChI=1S/C11H10O4/c1-13-7-3-4-8-9(14-2)6-11(12)15-10(8)5-7/h3-6H,1-2H3
computed SMILES=O=C1OC=2C=C(OC)C=CC2C(OC)=C1
accession=JP003128
date=2016.01.19 (Created 2008.10.21, modified 2011.05.06)
author=NAKAYAMA M, MASS SPECTROSCOPY SOC. OF JAPAN (MSSJ)
license=CC BY-NC-SA
exact mass=206.05791
ionization energy=70 eV
ion type=[M]+*
computed spectral entropy=1.8587939589153426
computed normalized entropy=0.7246903154278813
SPLASH=splash10-0a4i-0980000000-b066de2c5487fbc8dc1a
submitter=submitter = University of Tokyo Team (Faculty of Engineering, University of Tokyo)
MoNA Rating=3.75

>  <NUM PEAKS>  (4713) 
13

>  <MASS SPECTRAL PEAKS>  (4713) 
92 5
119 2
120 5
135 20
148 10
149 3
163 21
164 3
178 54
179 7
205 4
206 99.99
207 11

>  <PREDICTED SPECTRUM>  (4713) 
14 25
15 141
25 17
26 81
27 141
28 126
29 190
30 64
31 47
32 9
36 20
37 109
38 165
39 218
40 90
41 133
42 47
43 58
44 27
45 67
49 93
50 302
51 343
52 145
53 301
54 72
55 76
56 64
58 34
59 102
60 26
61 109
62 261
63 363
64 246
65 185
66 155
67 75
68 59
69 370
72 48
74 138
75 236
76 260
77 337
78 214
79 309
80 77
81 32
82 46
84 15
85 15
86 77
87 23
88 34
89 155
90 108
91 224
92 234
93 146
94 115
95 138
96 38
101 0
102 43
103 102
104 112
105 174
106 188
107 336
108 112
109 53
115 25
116 15
117 77
118 40
119 207
120 288
121 222
122 152
123 5
131 137
132 138
133 125
134 141
135 545
136 136
137 107
145 35
146 94
147 196
148 224
149 227
150 181
151 5
159 102
160 29
161 90
162 88
163 759
164 249
165 87
175 71
176 39
177 115
178 931
179 344
180 95
189 18
190 43
191 204
192 68
205 117
206 999
207 343
208 135

$$$$

     RDKit          2D

 17 19  0  0  0  0  0  0  0  0999 V2000
    6.1881    0.7529    0.0000 C   0  0  0  0  0  0  0  0  0  0  0  0
   -3.0400    1.2000    0.0000 C   0  0  0  0  0  0  0  0  0  0  0  0
   -3.9100   -0.0200    0.0000 C   0  0  0  0  0  0  0  0  0  0  0  0
   -0.3000    1.5000    0.0000 C   0  0  0  0  0  0  0  0  0  0  0  0
   -0.3000   -1.5000    0.0000 C   0  0  0  0  0  0  0  0  0  0  0  0
   -1.6100    0.7500    0.0000 C   0  0  0  0  0  0  0  0  0  0  0  0
    1.0000    0.7500    0.0000 C   0  0  0  0  0  0  0  0  0  0  0  0
   -1.6000   -0.7500    0.0000 C   0  0  0  0  0  0  0  0  0  0  0  0
    0.9900   -0.7500    0.0000 C   0  0  0  0  0  0  0  0  0  0  0  0
    2.2900    1.5200    0.0000 C   0  0  0  0  0  0  0  0  0  0  0  0
    3.5900    0.7600    0.0000 C   0  0  0  0  0  0  0  0  0  0  0  0
    3.5900   -0.7500    0.0000 C   0  0  0  0  0  0  0  0  0  0  0  0
    2.2832    3.0200    0.0000 O   0  0  0  0  0  0  0  0  0  0  0  0
    4.8867   -1.5040    0.0000 O   0  0  0  0  0  0  0  0  0  0  0  0
    4.8911    1.5065    0.0000 O   0  0  0  0  0  0  0  0  0  0  0  0
   -3.0200   -1.2200    0.0000 O   0  0  0  0  0  0  0  0  0  0  0  0
    2.2900   -1.4900    0.0000 O   0  0  0  0  0  0  0  0  0  0  0  0
  3  2  1  0
  6  2  1  0
  6  4  2  0
  7  4  1  0
  8  5  2  0
  8  6  1  0
  9  5  1  0
  9  7  2  0
 10  7  1  0
 11 10  2  0
 12 11  1  0
 13 10  1  0
 14 12  2  0
 15  1  1  0
 15 11  1  0
 16  3  1  0
 16  8  1  0
 17  9  1  0
 17 12  1  0
M  END
>  <NAME>  (4714) 
NORDIHYDROHALKENDIN

>  <SYNONYMS>  (4714) 


>  <SPECTRUM TYPE>  (4714) 
MS1

>  <INSTRUMENT TYPE>  (4714) 
EI-B

>  <INSTRUMENT>  (4714) 
HITACHI RMU-7L

>  <ION MODE>  (4714) 
P

>  <INCHIKEY>  (4714) 
BOAPVINLXIYMQC-UHFFFAOYSA-N

>  <FORMULA>  (4714) 
C12H10O5

>  <EXACT MASS>  (4714) 
234.05282341999998

>  <MW>  (4714) 
234

>  <ID>  (4714) 
JP003127

>  <CONTRIBUTOR>  (4714) 
University of Tokyo Team, {Faculty of Engineering, University of Tokyo

>  <COMMENT>  (4714) 
SMILES=COC(C(=O)3)=C(O)c(c1)c(O3)cc(O2)c(CC2)1
InChI=InChI=1S/C12H10O5/c1-15-11-10(13)7-4-6-2-3-16-8(6)5-9(7)17-12(11)14/h4-5,13H,2-3H2,1H3
computed SMILES=O=C1OC=2C=C3OCCC3=CC2C(O)=C1OC
accession=JP003127
date=2016.01.19 (Created 2008.10.21, modified 2011.05.06)
author=NAKAYAMA M, MASS SPECTROSCOPY SOC. OF JAPAN (MSSJ)
license=CC BY-NC-SA
exact mass=234.05282
ionization energy=70 eV
ion type=[M]+*
computed spectral entropy=1.7892503038728074
computed normalized entropy=0.6975772440371226
SPLASH=splash10-000x-0980000000-14e81c6deabd98287c75
submitter=submitter = University of Tokyo Team (Faculty of Engineering, University of Tokyo)
MoNA Rating=3.75

>  <NUM PEAKS>  (4714) 
13

>  <MASS SPECTRAL PEAKS>  (4714) 
77 10
107 2
121 3
134 2
135 1
149 3
162 5
163 19
191 99.99
192 12
219 47
234 84
235 9

>  <PREDICTED SPECTRUM>  (4714) 
15 12
26 2
27 0
29 23
31 10
37 25
38 82
39 168
40 67
41 100
42 44
43 100
44 64
45 105
49 36
50 164
51 269
52 156
53 267
54 80
55 95
56 19
57 63
58 32
59 92
61 51
62 135
63 224
64 167
65 213
66 155
67 124
68 28
69 315
70 59
71 10
72 12
73 77
74 75
75 122
76 141
77 253
78 210
79 236
80 91
81 71
82 76
83 27
84 48
85 19
86 40
87 59
88 53
89 132
90 62
91 160
92 129
93 113
94 84
95 86
97 34
99 27
101 38
102 106
103 131
104 82
105 150
106 103
107 199
108 115
109 107
110 35
111 11
112 2
115 144
116 75
117 142
118 52
119 111
120 79
121 80
122 73
123 76
127 24
128 28
129 73
130 76
131 115
132 115
133 152
134 73
135 230
136 102
137 74
143 12
144 7
145 107
146 38
147 172
148 127
149 98
150 58
151 45
158 14
159 112
160 89
161 116
162 79
163 321
164 104
165 56
171 29
173 59
174 27
175 96
176 80
177 113
178 92
179 74
187 112
188 33
189 90
190 24
191 609
192 162
193 9
203 97
204 135
205 272
206 245
207 108
217 35
218 63
219 525
220 192
221 62
222 26
232 39
233 237
234 999
235 366
236 131
237 38

$$$$

     RDKit          2D

 19 21  0  0  0  0  0  0  0  0999 V2000
    3.5720    5.2759    0.0000 C   0  0  0  0  0  0  0  0  0  0  0  0
    6.1881    0.7529    0.0000 C   0  0  0  0  0  0  0  0  0  0  0  0
    3.5788    3.7759    0.0000 C   0  0  0  0  0  0  0  0  0  0  0  0
   -3.0400    1.2000    0.0000 C   0  0  0  0  0  0  0  0  0  0  0  0
   -3.9100   -0.0200    0.0000 C   0  0  0  0  0  0  0  0  0  0  0  0
   -0.3000    1.5000    0.0000 C   0  0  0  0  0  0  0  0  0  0  0  0
   -0.3000   -1.5000    0.0000 C   0  0  0  0  0  0  0  0  0  0  0  0
   -1.6100    0.7500    0.0000 C   0  0  0  0  0  0  0  0  0  0  0  0
    1.0000    0.7500    0.0000 C   0  0  0  0  0  0  0  0  0  0  0  0
   -1.6000   -0.7500    0.0000 C   0  0  0  0  0  0  0  0  0  0  0  0
    0.9900   -0.7500    0.0000 C   0  0  0  0  0  0  0  0  0  0  0  0
    2.2900    1.5200    0.0000 C   0  0  0  0  0  0  0  0  0  0  0  0
    3.5900    0.7600    0.0000 C   0  0  0  0  0  0  0  0  0  0  0  0
    3.5900   -0.7500    0.0000 C   0  0  0  0  0  0  0  0  0  0  0  0
    4.8867   -1.5040    0.0000 O   0  0  0  0  0  0  0  0  0  0  0  0
    4.8911    1.5065    0.0000 O   0  0  0  0  0  0  0  0  0  0  0  0
    2.2832    3.0200    0.0000 O   0  0  0  0  0  0  0  0  0  0  0  0
   -3.0200   -1.2200    0.0000 O   0  0  0  0  0  0  0  0  0  0  0  0
    2.2900   -1.4900    0.0000 O   0  0  0  0  0  0  0  0  0  0  0  0
  3  1  1  0
  5  4  2  0
  8  4  1  0
  8  6  2  0
  9  6  1  0
 10  7  2  0
 10  8  1  0
 11  7  1  0
 11  9  2  0
 12  9  1  0
 13 12  2  0
 14 13  1  0
 15 14  2  0
 16  2  1  0
 16 13  1  0
 17  3  1  0
 17 12  1  0
 18  5  1  0
 18 10  1  0
 19 11  1  0
 19 14  1  0
M  END
>  <NAME>  (4715) 
4-ETHOXY-3-METHOXYFURO(3',2':6,7)COUMARIN

>  <SYNONYMS>  (4715) 


>  <SPECTRUM TYPE>  (4715) 
MS1

>  <INSTRUMENT TYPE>  (4715) 
EI-B

>  <INSTRUMENT>  (4715) 
HITACHI RMU-7L

>  <ION MODE>  (4715) 
P

>  <INCHIKEY>  (4715) 
MZSNYYYDROMEOG-UHFFFAOYSA-N

>  <FORMULA>  (4715) 
C14H12O5

>  <EXACT MASS>  (4715) 
260.068473484

>  <MW>  (4715) 
260

>  <ID>  (4715) 
JP003126

>  <CONTRIBUTOR>  (4715) 
University of Tokyo Team, {Faculty of Engineering, University of Tokyo

>  <COMMENT>  (4715) 
SMILES=CCOC(=C(OC)3)c(c1)c(OC(=O)3)cc(o2)c(cc2)1
InChI=InChI=1S/C14H12O5/c1-3-17-12-9-6-8-4-5-18-10(8)7-11(9)19-14(15)13(12)16-2/h4-7H,3H2,1-2H3
computed SMILES=O=C1OC=2C=C3OC=CC3=CC2C(OCC)=C1OC
accession=JP003126
date=2016.01.19 (Created 2008.10.21, modified 2011.05.06)
author=NAKAYAMA M, MASS SPECTROSCOPY SOC. OF JAPAN (MSSJ)
license=CC BY-NC-SA
exact mass=260.06847
ionization energy=70 eV
ion type=[M]+*
computed spectral entropy=2.6079983111971736
computed normalized entropy=0.8566198359659108
SPLASH=splash10-03di-1970000000-951fa0a76c371b982168
submitter=submitter = University of Tokyo Team (Faculty of Engineering, University of Tokyo)
MoNA Rating=3.75

>  <NUM PEAKS>  (4715) 
21

>  <MASS SPECTRAL PEAKS>  (4715) 
76 27
77 14
87 5
104 12
105 9
116 11
132 17
133 9
144 7
160 53
161 48
189 98
190 11
203 19
214 9
217 50
218 7
232 19
245 5
260 99.99
261 16

>  <PREDICTED SPECTRUM>  (4715) 
15 28
25 0
26 38
27 104
28 69
29 150
30 0
31 4
37 14
38 33
39 84
43 48
45 22
49 61
50 172
51 216
52 89
53 127
54 2
59 6
61 55
62 168
63 226
64 126
65 117
66 70
67 20
69 196
74 101
75 208
76 224
77 198
78 110
79 100
80 75
81 57
82 34
83 10
84 12
85 37
86 66
87 68
88 80
89 261
90 99
91 160
92 98
93 73
94 36
95 58
97 39
99 4
101 86
102 130
103 126
104 139
105 213
106 98
107 37
108 32
109 23
110 10
111 48
112 15
114 25
115 178
116 84
117 148
118 124
119 195
120 142
121 143
122 49
123 38
126 42
127 116
128 66
129 108
130 93
131 197
132 162
133 224
134 103
135 7
142 33
143 71
144 73
145 249
146 196
147 237
148 165
149 83
157 72
158 137
159 201
160 166
161 304
162 119
171 64
172 64
173 157
174 101
175 258
176 161
177 74
185 31
186 54
187 166
188 173
189 211
190 67
191 56
199 42
200 39
201 108
202 93
203 415
204 231
205 38
213 9
214 42
215 142
216 93
217 227
218 9
229 50
230 9
231 997
232 580
233 222
234 5
243 48
244 3
245 394
246 163
247 49
259 138
260 999
261 380
262 118

$$$$

     RDKit          2D

 18 20  0  0  0  0  0  0  0  0999 V2000
    3.5788    3.7759    0.0000 C   0  0  0  0  0  0  0  0  0  0  0  0
    6.1881    0.7529    0.0000 C   0  0  0  0  0  0  0  0  0  0  0  0
   -3.0400    1.2000    0.0000 C   0  0  0  0  0  0  0  0  0  0  0  0
   -3.9100   -0.0200    0.0000 C   0  0  0  0  0  0  0  0  0  0  0  0
   -0.3000    1.5000    0.0000 C   0  0  0  0  0  0  0  0  0  0  0  0
   -0.3000   -1.5000    0.0000 C   0  0  0  0  0  0  0  0  0  0  0  0
   -1.6100    0.7500    0.0000 C   0  0  0  0  0  0  0  0  0  0  0  0
    1.0000    0.7500    0.0000 C   0  0  0  0  0  0  0  0  0  0  0  0
   -1.6000   -0.7500    0.0000 C   0  0  0  0  0  0  0  0  0  0  0  0
    0.9900   -0.7500    0.0000 C   0  0  0  0  0  0  0  0  0  0  0  0
    2.2900    1.5200    0.0000 C   0  0  0  0  0  0  0  0  0  0  0  0
    3.5900    0.7600    0.0000 C   0  0  0  0  0  0  0  0  0  0  0  0
    3.5900   -0.7500    0.0000 C   0  0  0  0  0  0  0  0  0  0  0  0
    4.8867   -1.5040    0.0000 O   0  0  0  0  0  0  0  0  0  0  0  0
    2.2832    3.0200    0.0000 O   0  0  0  0  0  0  0  0  0  0  0  0
    4.8911    1.5065    0.0000 O   0  0  0  0  0  0  0  0  0  0  0  0
   -3.0200   -1.2200    0.0000 O   0  0  0  0  0  0  0  0  0  0  0  0
    2.2900   -1.4900    0.0000 O   0  0  0  0  0  0  0  0  0  0  0  0
  4  3  1  0
  7  3  1  0
  7  5  2  0
  8  5  1  0
  9  6  2  0
  9  7  1  0
 10  6  1  0
 10  8  2  0
 11  8  1  0
 12 11  2  0
 13 12  1  0
 14 13  2  0
 15  1  1  0
 15 11  1  0
 16  2  1  0
 16 12  1  0
 17  4  1  0
 17  9  1  0
 18 10  1  0
 18 13  1  0
M  END
>  <NAME>  (4716) 
DIHYDROHALKENDIN

>  <SYNONYMS>  (4716) 


>  <SPECTRUM TYPE>  (4716) 
MS1

>  <INSTRUMENT TYPE>  (4716) 
EI-B

>  <INSTRUMENT>  (4716) 
HITACHI RMU-7L

>  <ION MODE>  (4716) 
P

>  <INCHIKEY>  (4716) 
ALFYPNXHSPCORY-UHFFFAOYSA-N

>  <FORMULA>  (4716) 
C13H12O5

>  <EXACT MASS>  (4716) 
248.06847348399998

>  <MW>  (4716) 
248

>  <ID>  (4716) 
JP003124

>  <CONTRIBUTOR>  (4716) 
University of Tokyo Team, {Faculty of Engineering, University of Tokyo

>  <COMMENT>  (4716) 
SMILES=COC(C(=O)3)=C(OC)c(c1)c(O3)cc(O2)c(CC2)1
InChI=InChI=1S/C13H12O5/c1-15-11-8-5-7-3-4-17-9(7)6-10(8)18-13(14)12(11)16-2/h5-6H,3-4H2,1-2H3
computed SMILES=O=C1OC=2C=C3OCCC3=CC2C(OC)=C1OC
accession=JP003124
date=2016.01.19 (Created 2008.10.21, modified 2011.05.06)
author=NAKAYAMA M, MASS SPECTROSCOPY SOC. OF JAPAN (MSSJ)
license=CC BY-NC-SA
exact mass=248.06847
ionization energy=70 eV
ion type=[M]+*
computed spectral entropy=1.7803152438075047
computed normalized entropy=0.7164515592404215
SPLASH=splash10-0a4j-0190000000-f6298bc30025bd1fa0b2
submitter=submitter = University of Tokyo Team (Faculty of Engineering, University of Tokyo)
MoNA Rating=3.75

>  <NUM PEAKS>  (4716) 
12

>  <MASS SPECTRAL PEAKS>  (4716) 
78 7
91 3
106 4
118 2
134 9
162 14
177 7
205 99.99
206 12
233 16
248 84
249 12

>  <PREDICTED SPECTRUM>  (4716) 
14 0
15 59
26 4
27 17
29 24
31 18
33 11
37 60
38 97
39 159
40 85
41 109
42 59
43 122
44 70
45 133
47 21
49 67
50 217
51 277
52 174
53 268
54 78
55 143
56 52
57 106
58 80
59 165
60 21
61 116
62 189
63 289
64 181
65 206
66 183
67 123
68 52
69 314
70 71
71 41
72 38
73 157
74 134
75 247
76 223
77 298
78 202
79 212
80 93
81 91
82 77
83 109
84 61
85 78
86 77
87 88
88 93
89 217
90 154
91 256
92 169
93 183
94 126
95 145
96 38
97 67
98 24
99 58
100 46
101 109
102 159
103 211
104 147
105 201
106 182
107 187
108 77
109 109
110 46
111 54
112 18
113 92
114 19
115 217
116 139
117 214
118 138
119 245
120 137
121 198
122 96
123 119
124 30
125 27
126 58
127 142
128 132
129 158
130 109
131 236
132 172
133 202
134 149
135 143
136 83
137 72
141 49
142 29
143 85
144 94
145 213
146 168
147 305
148 135
149 235
150 91
151 22
152 3
155 45
156 17
157 109
158 64
159 161
160 118
161 248
162 254
163 152
164 50
171 41
172 103
173 140
174 123
175 234
176 126
177 282
178 89
179 98
185 97
186 24
187 164
188 87
189 165
190 183
191 145
192 45
193 26
200 9
201 110
202 132
203 166
204 87
205 431
206 132
207 48
215 67
216 15
217 142
218 167
219 230
220 170
221 54
230 21
231 79
232 79
233 554
234 211
235 97
236 38
247 288
248 999
249 405
250 154
251 43

$$$$

     RDKit          2D

 18 20  0  0  0  0  0  0  0  0999 V2000
    3.5788    3.7759    0.0000 C   0  0  0  0  0  0  0  0  0  0  0  0
    6.1881    0.7529    0.0000 C   0  0  0  0  0  0  0  0  0  0  0  0
   -3.0400    1.2000    0.0000 C   0  0  0  0  0  0  0  0  0  0  0  0
   -3.9100   -0.0200    0.0000 C   0  0  0  0  0  0  0  0  0  0  0  0
   -0.3000    1.5000    0.0000 C   0  0  0  0  0  0  0  0  0  0  0  0
   -0.3000   -1.5000    0.0000 C   0  0  0  0  0  0  0  0  0  0  0  0
   -1.6100    0.7500    0.0000 C   0  0  0  0  0  0  0  0  0  0  0  0
    1.0000    0.7500    0.0000 C   0  0  0  0  0  0  0  0  0  0  0  0
   -1.6000   -0.7500    0.0000 C   0  0  0  0  0  0  0  0  0  0  0  0
    0.9900   -0.7500    0.0000 C   0  0  0  0  0  0  0  0  0  0  0  0
    2.2900    1.5200    0.0000 C   0  0  0  0  0  0  0  0  0  0  0  0
    3.5900    0.7600    0.0000 C   0  0  0  0  0  0  0  0  0  0  0  0
    3.5900   -0.7500    0.0000 C   0  0  0  0  0  0  0  0  0  0  0  0
    4.8867   -1.5040    0.0000 O   0  0  0  0  0  0  0  0  0  0  0  0
    2.2832    3.0200    0.0000 O   0  0  0  0  0  0  0  0  0  0  0  0
    4.8911    1.5065    0.0000 O   0  0  0  0  0  0  0  0  0  0  0  0
   -3.0200   -1.2200    0.0000 O   0  0  0  0  0  0  0  0  0  0  0  0
    2.2900   -1.4900    0.0000 O   0  0  0  0  0  0  0  0  0  0  0  0
  4  3  2  0
  7  3  1  0
  7  5  2  0
  8  5  1  0
  9  6  2  0
  9  7  1  0
 10  6  1  0
 10  8  2  0
 11  8  1  0
 12 11  2  0
 13 12  1  0
 14 13  2  0
 15  1  1  0
 15 11  1  0
 16  2  1  0
 16 12  1  0
 17  4  1  0
 17  9  1  0
 18 10  1  0
 18 13  1  0
M  END
>  <NAME>  (4717) 
HALKENDIN

>  <SYNONYMS>  (4717) 


>  <SPECTRUM TYPE>  (4717) 
MS1

>  <INSTRUMENT TYPE>  (4717) 
EI-B

>  <INSTRUMENT>  (4717) 
HITACHI RMU-7L

>  <ION MODE>  (4717) 
P

>  <INCHIKEY>  (4717) 
NYELECLICIMRBA-UHFFFAOYSA-N

>  <FORMULA>  (4717) 
C13H10O5

>  <EXACT MASS>  (4717) 
246.05282341999998

>  <MW>  (4717) 
246

>  <ID>  (4717) 
JP003123

>  <CONTRIBUTOR>  (4717) 
University of Tokyo Team, {Faculty of Engineering, University of Tokyo

>  <COMMENT>  (4717) 
SMILES=COC(C(=O)3)=C(OC)c(c1)c(O3)cc(o2)c(cc2)1
InChI=InChI=1S/C13H10O5/c1-15-11-8-5-7-3-4-17-9(7)6-10(8)18-13(14)12(11)16-2/h3-6H,1-2H3
computed SMILES=O=C1OC=2C=C3OC=CC3=CC2C(OC)=C1OC
accession=JP003123
date=2016.01.19 (Created 2008.10.21, modified 2011.05.06)
author=NAKAYAMA M, MASS SPECTROSCOPY SOC. OF JAPAN (MSSJ)
license=CC BY-NC-SA
exact mass=246.05282
ionization energy=70 eV
ion type=[M]+*
computed spectral entropy=2.3554156555658263
computed normalized entropy=0.8313583798788894
SPLASH=splash10-0w59-3980000000-ebc95cff4b4665760105
submitter=submitter = University of Tokyo Team (Faculty of Engineering, University of Tokyo)
MoNA Rating=3.75

>  <NUM PEAKS>  (4717) 
17

>  <MASS SPECTRAL PEAKS>  (4717) 
75 14
76 62
104 25
116 19
117 13
132 55
160 76
161 9
175 4
186 4
203 99.99
204 12
215 4
217 3
231 14
246 57
247 7

>  <PREDICTED SPECTRUM>  (4717) 
14 7
15 85
25 5
26 28
27 47
28 54
29 87
31 26
37 48
38 62
39 90
40 33
41 28
43 27
45 43
49 53
50 188
51 173
52 87
53 197
54 46
55 62
56 6
57 20
58 18
59 83
60 26
61 110
62 174
63 213
64 66
65 68
66 89
67 26
68 26
69 151
70 32
72 16
73 87
74 139
75 238
76 245
77 144
78 70
79 70
80 26
81 33
82 16
83 31
84 30
85 37
86 101
87 101
88 115
89 215
90 124
91 98
92 38
93 37
94 28
95 40
96 7
97 17
98 19
99 24
100 45
101 157
102 153
103 159
104 160
105 141
106 125
107 87
108 2
109 64
111 16
113 67
114 44
115 123
116 85
117 190
118 117
119 174
120 98
121 49
126 39
127 11
128 60
129 148
130 134
131 217
132 222
133 155
134 43
135 18
143 76
144 127
145 249
146 147
147 237
148 76
157 87
158 57
159 142
160 209
161 72
162 11
171 87
172 85
173 119
174 118
175 329
176 115
177 139
185 37
186 70
187 93
188 101
189 63
190 15
199 29
200 105
201 72
202 77
203 504
204 159
205 10
215 72
216 105
217 283
218 183
219 77
229 22
230 64
231 590
232 236
233 71
234 6
244 5
245 127
246 999
247 391
248 124
249 5

$$$$

     RDKit          2D

 16 18  0  0  0  0  0  0  0  0999 V2000
    3.5788    3.7759    0.0000 C   0  0  0  0  0  0  0  0  0  0  0  0
   -3.0400    1.2000    0.0000 C   0  0  0  0  0  0  0  0  0  0  0  0
   -3.9100   -0.0200    0.0000 C   0  0  0  0  0  0  0  0  0  0  0  0
   -0.3000    1.5000    0.0000 C   0  0  0  0  0  0  0  0  0  0  0  0
   -0.3000   -1.5000    0.0000 C   0  0  0  0  0  0  0  0  0  0  0  0
    3.5900    0.7600    0.0000 C   0  0  0  0  0  0  0  0  0  0  0  0
   -1.6100    0.7500    0.0000 C   0  0  0  0  0  0  0  0  0  0  0  0
    1.0000    0.7500    0.0000 C   0  0  0  0  0  0  0  0  0  0  0  0
   -1.6000   -0.7500    0.0000 C   0  0  0  0  0  0  0  0  0  0  0  0
    2.2900    1.5200    0.0000 C   0  0  0  0  0  0  0  0  0  0  0  0
    0.9900   -0.7500    0.0000 C   0  0  0  0  0  0  0  0  0  0  0  0
    3.5900   -0.7500    0.0000 C   0  0  0  0  0  0  0  0  0  0  0  0
    4.8867   -1.5040    0.0000 O   0  0  0  0  0  0  0  0  0  0  0  0
    2.2832    3.0200    0.0000 O   0  0  0  0  0  0  0  0  0  0  0  0
   -3.0200   -1.2200    0.0000 O   0  0  0  0  0  0  0  0  0  0  0  0
    2.2900   -1.4900    0.0000 O   0  0  0  0  0  0  0  0  0  0  0  0
  3  2  1  0
  7  2  1  0
  7  4  2  0
  8  4  1  0
  9  5  2  0
  9  7  1  0
 10  6  2  0
 10  8  1  0
 11  5  1  0
 11  8  2  0
 12  6  1  0
 13 12  2  0
 14  1  1  0
 14 10  1  0
 15  3  1  0
 15  9  1  0
 16 11  1  0
 16 12  1  0
M  END
>  <NAME>  (4718) 
4-METHOXYDIHYDROFURO(3',2':6,7)COUMARIN

>  <SYNONYMS>  (4718) 


>  <SPECTRUM TYPE>  (4718) 
MS1

>  <INSTRUMENT TYPE>  (4718) 
EI-B

>  <INSTRUMENT>  (4718) 
HITACHI RMU-7L

>  <ION MODE>  (4718) 
P

>  <INCHIKEY>  (4718) 
ZPMOZEGREMLNLM-UHFFFAOYSA-N

>  <FORMULA>  (4718) 
C12H10O4

>  <EXACT MASS>  (4718) 
218.0579088

>  <MW>  (4718) 
218

>  <ID>  (4718) 
JP003122

>  <CONTRIBUTOR>  (4718) 
University of Tokyo Team, {Faculty of Engineering, University of Tokyo

>  <COMMENT>  (4718) 
SMILES=COC(=C3)c(c1)c(OC(=O)3)cc(O2)c(CC2)1
InChI=InChI=1S/C12H10O4/c1-14-10-6-12(13)16-11-5-9-7(2-3-15-9)4-8(10)11/h4-6H,2-3H2,1H3
computed SMILES=O=C1OC=2C=C3OCCC3=CC2C(OC)=C1
accession=JP003122
date=2016.01.19 (Created 2008.10.21, modified 2011.05.06)
author=NAKAYAMA M, MASS SPECTROSCOPY SOC. OF JAPAN (MSSJ)
license=CC BY-NC-SA
exact mass=218.05791
ionization energy=70 eV
ion type=[M]+*
computed spectral entropy=1.7520785419688254
computed normalized entropy=0.7609180426381558
SPLASH=splash10-014l-1970000000-d1db3e55c25576d57a63
submitter=submitter = University of Tokyo Team (Faculty of Engineering, University of Tokyo)
MoNA Rating=3.75

>  <NUM PEAKS>  (4718) 
10

>  <MASS SPECTRAL PEAKS>  (4718) 
77 8
91 8
109 5
147 31
160 7
175 11
190 73
191 10
218 99.99
219 12

>  <PREDICTED SPECTRUM>  (4718) 
14 6
15 90
18 1
26 59
27 145
28 78
29 120
30 27
31 39
37 40
38 76
39 207
40 71
41 123
42 15
43 132
44 41
45 84
49 53
50 177
51 297
52 124
53 193
54 22
55 75
56 19
57 54
58 69
59 94
61 72
62 173
63 282
64 112
65 187
66 85
67 13
69 218
70 14
71 23
72 38
73 73
74 129
75 188
76 148
77 257
78 131
79 156
84 8
85 73
86 102
87 92
88 49
89 248
90 131
91 277
92 89
93 44
99 45
100 20
101 81
102 162
103 192
104 107
105 117
106 88
107 66
113 37
114 37
115 289
116 82
117 172
118 119
119 276
120 74
121 65
127 84
128 122
129 130
130 75
131 274
132 201
133 155
134 64
135 45
142 17
143 108
144 29
145 178
146 157
147 388
148 123
149 80
155 55
157 61
158 59
159 180
160 163
161 159
162 95
163 18
171 77
172 4
173 81
174 55
175 498
176 117
177 51
187 131
188 117
189 315
190 642
191 198
192 60
201 3
202 17
203 326
204 123
205 8
216 51
217 251
218 999
219 353
220 101
221 14

$$$$

     RDKit          2D

 16 18  0  0  0  0  0  0  0  0999 V2000
    3.5788    3.7759    0.0000 C   0  0  0  0  0  0  0  0  0  0  0  0
   -3.0400    1.2000    0.0000 C   0  0  0  0  0  0  0  0  0  0  0  0
   -3.9100   -0.0200    0.0000 C   0  0  0  0  0  0  0  0  0  0  0  0
   -0.3000    1.5000    0.0000 C   0  0  0  0  0  0  0  0  0  0  0  0
   -0.3000   -1.5000    0.0000 C   0  0  0  0  0  0  0  0  0  0  0  0
    3.5900    0.7600    0.0000 C   0  0  0  0  0  0  0  0  0  0  0  0
   -1.6100    0.7500    0.0000 C   0  0  0  0  0  0  0  0  0  0  0  0
    1.0000    0.7500    0.0000 C   0  0  0  0  0  0  0  0  0  0  0  0
   -1.6000   -0.7500    0.0000 C   0  0  0  0  0  0  0  0  0  0  0  0
    2.2900    1.5200    0.0000 C   0  0  0  0  0  0  0  0  0  0  0  0
    0.9900   -0.7500    0.0000 C   0  0  0  0  0  0  0  0  0  0  0  0
    3.5900   -0.7500    0.0000 C   0  0  0  0  0  0  0  0  0  0  0  0
    4.8867   -1.5040    0.0000 O   0  0  0  0  0  0  0  0  0  0  0  0
    2.2832    3.0200    0.0000 O   0  0  0  0  0  0  0  0  0  0  0  0
   -3.0200   -1.2200    0.0000 O   0  0  0  0  0  0  0  0  0  0  0  0
    2.2900   -1.4900    0.0000 O   0  0  0  0  0  0  0  0  0  0  0  0
  3  2  2  0
  7  2  1  0
  7  4  2  0
  8  4  1  0
  9  5  2  0
  9  7  1  0
 10  6  2  0
 10  8  1  0
 11  5  1  0
 11  8  2  0
 12  6  1  0
 13 12  2  0
 14  1  1  0
 14 10  1  0
 15  3  1  0
 15  9  1  0
 16 11  1  0
 16 12  1  0
M  END
>  <NAME>  (4719) 
4-METHOXYFURO(3',2':6,7)COUMARIN

>  <SYNONYMS>  (4719) 


>  <SPECTRUM TYPE>  (4719) 
MS1

>  <INSTRUMENT TYPE>  (4719) 
EI-B

>  <INSTRUMENT>  (4719) 
HITACHI RMU-7L

>  <ION MODE>  (4719) 
P

>  <INCHIKEY>  (4719) 
IFBJMRYEEKIECT-UHFFFAOYSA-N

>  <FORMULA>  (4719) 
C12H8O4

>  <EXACT MASS>  (4719) 
216.042258736

>  <MW>  (4719) 
216

>  <ID>  (4719) 
JP003121

>  <CONTRIBUTOR>  (4719) 
University of Tokyo Team, {Faculty of Engineering, University of Tokyo

>  <COMMENT>  (4719) 
SMILES=COC(=C3)c(c1)c(OC(=O)3)cc(o2)c(cc2)1
InChI=InChI=1S/C12H8O4/c1-14-10-6-12(13)16-11-5-9-7(2-3-15-9)4-8(10)11/h2-6H,1H3
computed SMILES=O=C1OC2=CC=3OC=CC3C=C2C(OC)=C1
accession=JP003121
date=2016.01.19 (Created 2008.10.21, modified 2011.05.06)
author=NAKAYAMA M, MASS SPECTROSCOPY SOC. OF JAPAN (MSSJ)
license=CC BY-NC-SA
exact mass=216.04226
ionization energy=70 eV
ion type=[M]+*
computed spectral entropy=1.6230241227443405
computed normalized entropy=0.7805096177088068
SPLASH=splash10-014i-0890000000-f8903e1e0b7bd470403f
submitter=submitter = University of Tokyo Team (Faculty of Engineering, University of Tokyo)
MoNA Rating=3.75

>  <NUM PEAKS>  (4719) 
8

>  <MASS SPECTRAL PEAKS>  (4719) 
89 9
117 5
145 17
158 16
173 19
188 40
216 99.99
217 8

>  <PREDICTED SPECTRUM>  (4719) 
14 8
15 91
25 8
26 61
27 139
28 102
29 132
30 27
31 85
37 56
38 93
39 178
40 52
41 92
42 44
43 137
44 35
45 66
49 74
50 240
51 287
52 93
53 194
54 51
55 125
56 19
57 7
58 70
59 83
60 59
61 155
62 233
63 318
64 115
65 110
66 91
67 46
68 69
69 291
70 46
71 15
72 47
73 91
74 194
75 264
76 219
77 220
78 83
79 159
80 17
81 51
82 18
84 65
85 53
86 171
87 186
88 176
89 341
90 177
91 179
92 83
93 6
98 64
99 108
100 80
101 200
102 221
103 170
104 118
105 98
106 12
112 22
113 139
114 135
115 252
116 177
117 293
118 123
119 133
125 0
126 63
127 110
128 80
129 137
130 158
131 198
132 171
133 104
134 0
140 14
141 112
142 45
143 67
144 125
145 417
146 211
147 129
148 8
155 80
156 112
157 106
158 123
159 188
160 191
161 118
169 90
170 31
171 54
172 62
173 581
174 206
175 86
184 13
185 126
186 103
187 262
188 736
189 274
190 100
199 21
200 69
201 375
202 167
203 36
214 3
215 236
216 999
217 392
218 142
219 23

$$$$

     RDKit          2D

 17 19  0  0  0  0  0  0  0  0999 V2000
    6.1881    0.7529    0.0000 C   0  0  0  0  0  0  0  0  0  0  0  0
   -3.0400    1.2000    0.0000 C   0  0  0  0  0  0  0  0  0  0  0  0
   -3.9100   -0.0200    0.0000 C   0  0  0  0  0  0  0  0  0  0  0  0
   -0.3000    1.5000    0.0000 C   0  0  0  0  0  0  0  0  0  0  0  0
   -0.3000   -1.5000    0.0000 C   0  0  0  0  0  0  0  0  0  0  0  0
   -1.6100    0.7500    0.0000 C   0  0  0  0  0  0  0  0  0  0  0  0
    1.0000    0.7500    0.0000 C   0  0  0  0  0  0  0  0  0  0  0  0
   -1.6000   -0.7500    0.0000 C   0  0  0  0  0  0  0  0  0  0  0  0
    0.9900   -0.7500    0.0000 C   0  0  0  0  0  0  0  0  0  0  0  0
    2.2900    1.5200    0.0000 C   0  0  0  0  0  0  0  0  0  0  0  0
    3.5900    0.7600    0.0000 C   0  0  0  0  0  0  0  0  0  0  0  0
    3.5900   -0.7500    0.0000 C   0  0  0  0  0  0  0  0  0  0  0  0
    2.2832    3.0200    0.0000 O   0  0  0  0  0  0  0  0  0  0  0  0
    4.8867   -1.5040    0.0000 O   0  0  0  0  0  0  0  0  0  0  0  0
    4.8911    1.5065    0.0000 O   0  0  0  0  0  0  0  0  0  0  0  0
   -3.0200   -1.2200    0.0000 O   0  0  0  0  0  0  0  0  0  0  0  0
    2.2900   -1.4900    0.0000 O   0  0  0  0  0  0  0  0  0  0  0  0
  3  2  2  0
  6  2  1  0
  6  4  2  0
  7  4  1  0
  8  5  2  0
  8  6  1  0
  9  5  1  0
  9  7  2  0
 10  7  1  0
 11 10  2  0
 12 11  1  0
 13 10  1  0
 14 12  2  0
 15  1  1  0
 15 11  1  0
 16  3  1  0
 16  8  1  0
 17  9  1  0
 17 12  1  0
M  END
>  <NAME>  (4720) 
NORHALKENDIN

>  <SYNONYMS>  (4720) 


>  <SPECTRUM TYPE>  (4720) 
MS1

>  <INSTRUMENT TYPE>  (4720) 
EI-B

>  <INSTRUMENT>  (4720) 
AEI-GEC MS-902

>  <ION MODE>  (4720) 
P

>  <INCHIKEY>  (4720) 
DSWVVCVDHBZKEH-UHFFFAOYSA-N

>  <FORMULA>  (4720) 
C12H8O5

>  <EXACT MASS>  (4720) 
232.03717335599998

>  <MW>  (4720) 
232

>  <ID>  (4720) 
JP003120

>  <CONTRIBUTOR>  (4720) 
University of Tokyo Team, {Faculty of Engineering, University of Tokyo

>  <COMMENT>  (4720) 
SMILES=COC(C(=O)3)=C(O)c(c1)c(O3)cc(o2)c(cc2)1
InChI=InChI=1S/C12H8O5/c1-15-11-10(13)7-4-6-2-3-16-8(6)5-9(7)17-12(11)14/h2-5,13H,1H3
computed SMILES=O=C1OC=2C=C3OC=CC3=CC2C(O)=C1OC
ion type=[M]+*
accession=JP003120
date=2016.01.19 (Created 2008.10.21, modified 2011.05.06)
author=NAKAYAMA M, MASS SPECTROSCOPY SOC. OF JAPAN (MSSJ)
license=CC BY-NC-SA
exact mass=232.03717
ionization energy=70 eV
computed spectral entropy=1.6633283944408819
computed normalized entropy=0.7998918753432207
SPLASH=splash10-001i-0690000000-c384c29f9501062a733e
submitter=submitter = University of Tokyo Team (Faculty of Engineering, University of Tokyo)
MoNA Rating=3.75

>  <NUM PEAKS>  (4720) 
8

>  <MASS SPECTRAL PEAKS>  (4720) 
133 9
161 50
189 41
203 5
214 6
217 23
232 99.99
233 15

>  <PREDICTED SPECTRUM>  (4720) 
15 35
26 9
27 59
28 9
29 67
31 15
37 48
38 77
39 154
40 41
41 53
42 18
43 115
44 35
45 19
49 41
50 216
51 232
52 101
53 222
54 32
55 68
57 4
59 13
61 91
62 182
63 232
64 130
65 107
66 87
67 27
69 182
70 20
72 34
73 25
74 114
75 240
76 259
77 225
78 60
79 65
80 0
86 34
87 106
88 90
89 205
90 145
91 131
92 106
93 18
101 117
102 231
103 116
104 136
105 217
106 109
107 50
114 9
115 158
116 55
117 117
118 67
119 109
120 56
121 43
129 30
130 108
131 174
132 142
133 359
134 168
135 59
143 33
144 22
145 52
146 52
147 51
148 52
149 69
157 25
158 63
159 57
160 121
161 396
162 146
163 133
172 18
173 62
174 20
175 58
176 80
177 127
185 42
186 123
187 32
188 26
189 612
190 199
191 4
201 30
202 86
203 387
204 268
205 92
214 14
216 49
217 563
218 218
219 62
220 1
231 117
232 999
233 374
234 103

$$$$

     RDKit          2D

 19 21  0  0  0  0  0  0  0  0999 V2000
   -1.5953    3.7521    0.0000 C   0  0  0  0  0  0  0  0  0  0  0  0
    3.5788    3.7759    0.0000 C   0  0  0  0  0  0  0  0  0  0  0  0
   -3.0400    1.2000    0.0000 C   0  0  0  0  0  0  0  0  0  0  0  0
   -3.9100   -0.0200    0.0000 C   0  0  0  0  0  0  0  0  0  0  0  0
   -0.3000   -1.5000    0.0000 C   0  0  0  0  0  0  0  0  0  0  0  0
   -1.6100    0.7500    0.0000 C   0  0  0  0  0  0  0  0  0  0  0  0
   -1.6000   -0.7500    0.0000 C   0  0  0  0  0  0  0  0  0  0  0  0
    0.9900   -0.7500    0.0000 C   0  0  0  0  0  0  0  0  0  0  0  0
    1.0000    0.7500    0.0000 C   0  0  0  0  0  0  0  0  0  0  0  0
    3.5900    0.7600    0.0000 C   0  0  0  0  0  0  0  0  0  0  0  0
   -0.3000    1.5000    0.0000 C   0  0  0  0  0  0  0  0  0  0  0  0
    2.2900    1.5200    0.0000 C   0  0  0  0  0  0  0  0  0  0  0  0
    3.5900   -0.7500    0.0000 C   0  0  0  0  0  0  0  0  0  0  0  0
    4.8911    1.5065    0.0000 O   0  0  0  0  0  0  0  0  0  0  0  0
    4.8867   -1.5040    0.0000 O   0  0  0  0  0  0  0  0  0  0  0  0
   -0.2975    3.0000    0.0000 O   0  0  0  0  0  0  0  0  0  0  0  0
    2.2832    3.0200    0.0000 O   0  0  0  0  0  0  0  0  0  0  0  0
   -3.0200   -1.2200    0.0000 O   0  0  0  0  0  0  0  0  0  0  0  0
    2.2900   -1.4900    0.0000 O   0  0  0  0  0  0  0  0  0  0  0  0
  4  3  2  0
  6  3  1  0
  7  5  1  0
  7  6  2  0
  8  5  2  0
  9  8  1  0
 11  6  1  0
 11  9  2  0
 12  9  1  0
 12 10  2  0
 13 10  1  0
 14 10  1  0
 15 13  2  0
 16  1  1  0
 16 11  1  0
 17  2  1  0
 17 12  1  0
 18  4  1  0
 18  7  1  0
 19  8  1  0
 19 13  1  0
M  END
>  <NAME>  (4721) 
NORHALFORDIN

>  <SYNONYMS>  (4721) 


>  <SPECTRUM TYPE>  (4721) 
MS1

>  <INSTRUMENT TYPE>  (4721) 
EI-B

>  <INSTRUMENT>  (4721) 
AEI-GEC MS-902

>  <ION MODE>  (4721) 
P

>  <INCHIKEY>  (4721) 
APULTQVAACQYFJ-UHFFFAOYSA-N

>  <FORMULA>  (4721) 
C13H10O6

>  <EXACT MASS>  (4721) 
262.04773804

>  <MW>  (4721) 
262

>  <ID>  (4721) 
JP003118

>  <CONTRIBUTOR>  (4721) 
University of Tokyo Team, {Faculty of Engineering, University of Tokyo

>  <COMMENT>  (4721) 
SMILES=COC(=C(O)3)c(c(OC(=O)3)1)c(OC)c(c2)c(oc2)c1
InChI=InChI=1S/C13H10O6/c1-16-11-6-3-4-18-7(6)5-8-9(11)12(17-2)10(14)13(15)19-8/h3-5,14H,1-2H3
computed SMILES=O=C1OC2=CC=3OC=CC3C(OC)=C2C(OC)=C1O
accession=JP003118
date=2016.01.19 (Created 2008.10.21, modified 2011.05.06)
author=NAKAYAMA M, MASS SPECTROSCOPY SOC. OF JAPAN (MSSJ)
license=CC BY-NC-SA
exact mass=262.04774
ionization energy=70 eV
ion type=[M]+*
computed spectral entropy=1.6306824378437628
computed normalized entropy=0.7841924887806407
SPLASH=splash10-03di-0490000000-ded03dbfe2f448e90152
submitter=submitter = University of Tokyo Team (Faculty of Engineering, University of Tokyo)
MoNA Rating=3.75

>  <NUM PEAKS>  (4721) 
8

>  <MASS SPECTRAL PEAKS>  (4721) 
120 3
148 4
176 38
191 38
219 46
233 4
247 20
262 99.99

>  <PREDICTED SPECTRUM>  (4721) 
27 44
28 20
29 63
37 5
38 47
39 71
41 64
42 4
43 66
44 46
45 10
49 42
50 131
51 169
52 61
53 147
54 4
55 120
57 46
58 15
59 46
61 85
62 140
63 207
64 109
65 104
66 51
67 40
68 7
69 183
70 47
71 33
72 109
73 75
74 130
75 183
76 173
77 176
78 92
79 106
81 6
83 92
84 74
85 27
86 64
87 111
88 103
89 211
90 122
91 183
92 92
93 82
95 23
97 31
99 11
100 17
101 110
102 190
103 180
104 119
105 178
106 51
107 68
109 3
113 49
114 63
115 255
116 129
117 149
118 69
119 142
120 121
121 150
122 61
123 1
125 2
126 38
127 83
128 16
129 93
130 78
131 274
132 150
133 171
134 96
135 174
136 104
137 59
141 4
143 54
144 83
145 219
146 123
147 168
148 151
149 126
150 80
151 86
153 3
158 12
159 97
160 120
161 187
162 126
163 249
164 128
165 52
169 34
171 49
173 128
174 49
175 143
176 164
177 139
178 109
179 175
180 70
186 74
187 105
188 120
189 127
190 110
191 280
192 98
193 105
199 23
201 187
202 105
203 122
204 132
205 116
206 65
207 203
208 71
215 91
216 179
217 122
218 108
219 498
220 198
221 47
229 163
230 112
231 137
232 139
233 335
234 149
235 63
243 42
244 79
245 115
246 68
247 489
248 170
249 49
259 24
260 46
261 144
262 999
263 397
264 132
265 14

$$$$

     RDKit          2D

 23 25  0  0  0  0  0  0  0  0999 V2000
   -1.5953    3.7521    0.0000 C   0  0  0  0  0  0  0  0  0  0  0  0
    3.5788    3.7759    0.0000 C   0  0  0  0  0  0  0  0  0  0  0  0
    6.1881    0.7529    0.0000 C   0  0  0  0  0  0  0  0  0  0  0  0
    5.4345   -0.5441    0.0000 H   0  0  0  0  0  0  0  0  0  0  0  0
    7.4851   -0.0006    0.0000 H   0  0  0  0  0  0  0  0  0  0  0  0
    6.9416    2.0499    0.0000 H   0  0  0  0  0  0  0  0  0  0  0  0
   -3.0400    1.2000    0.0000 C   0  0  0  0  0  0  0  0  0  0  0  0
   -3.9100   -0.0200    0.0000 C   0  0  0  0  0  0  0  0  0  0  0  0
   -0.3000   -1.5000    0.0000 C   0  0  0  0  0  0  0  0  0  0  0  0
   -1.6100    0.7500    0.0000 C   0  0  0  0  0  0  0  0  0  0  0  0
   -1.6000   -0.7500    0.0000 C   0  0  0  0  0  0  0  0  0  0  0  0
    0.9900   -0.7500    0.0000 C   0  0  0  0  0  0  0  0  0  0  0  0
    1.0000    0.7500    0.0000 C   0  0  0  0  0  0  0  0  0  0  0  0
   -0.3000    1.5000    0.0000 C   0  0  0  0  0  0  0  0  0  0  0  0
    2.2900    1.5200    0.0000 C   0  0  0  0  0  0  0  0  0  0  0  0
    3.5900    0.7600    0.0000 C   0  0  0  0  0  0  0  0  0  0  0  0
    3.5900   -0.7500    0.0000 C   0  0  0  0  0  0  0  0  0  0  0  0
    4.8867   -1.5040    0.0000 O   0  0  0  0  0  0  0  0  0  0  0  0
   -0.2975    3.0000    0.0000 O   0  0  0  0  0  0  0  0  0  0  0  0
    2.2832    3.0200    0.0000 O   0  0  0  0  0  0  0  0  0  0  0  0
    4.8911    1.5065    0.0000 O   0  0  0  0  0  0  0  0  0  0  0  0
   -3.0200   -1.2200    0.0000 O   0  0  0  0  0  0  0  0  0  0  0  0
    2.2900   -1.4900    0.0000 O   0  0  0  0  0  0  0  0  0  0  0  0
  3  4  1  0
  3  5  1  0
  3  6  1  0
  8  7  2  0
 10  7  1  0
 11  9  1  0
 11 10  2  0
 12  9  2  0
 13 12  1  0
 14 10  1  0
 14 13  2  0
 15 13  1  0
 16 15  2  0
 17 16  1  0
 18 17  2  0
 19  1  1  0
 19 14  1  0
 20  2  1  0
 20 15  1  0
 21  3  1  0
 21 16  1  0
 22  8  1  0
 22 11  1  0
 23 12  1  0
 23 17  1  0
M  ISO  3   4   2   5   2   6   2
M  END
>  <NAME>  (4722) 
HALFORDIN (14-CD3)

>  <SYNONYMS>  (4722) 


>  <SPECTRUM TYPE>  (4722) 
MS1

>  <INSTRUMENT TYPE>  (4722) 
EI-B

>  <INSTRUMENT>  (4722) 
AEI-GEC MS-902

>  <ION MODE>  (4722) 
P

>  <INCHIKEY>  (4722) 
SHOQQSABOUVQLJ-HPRDVNIFSA-N

>  <FORMULA>  (4722) 
C14H12O6

>  <EXACT MASS>  (4722) 
279.082218342

>  <MW>  (4722) 
279

>  <ID>  (4722) 
JP003117

>  <CONTRIBUTOR>  (4722) 
University of Tokyo Team, {Faculty of Engineering, University of Tokyo

>  <COMMENT>  (4722) 
SMILES=[2H]C([2H])([2H])OC(C(=O)3)=C(OC)c(c(O3)1)c(OC)c(c2)c(oc2)c1
InChI=InChI=1S/C14H12O6/c1-16-11-7-4-5-19-8(7)6-9-10(11)12(17-2)13(18-3)14(15)20-9/h4-6H,1-3H3/i3D3
computed SMILES=[H]C([H])([H])OC=1C(=O)OC2=CC=3OC=CC3C(OC)=C2C1OC
accession=JP003117
date=2016.01.19 (Created 2008.10.21, modified 2011.05.06)
author=NAKAYAMA M, MASS SPECTROSCOPY SOC. OF JAPAN (MSSJ)
license=CC BY-NC-SA
exact mass=276.06339
ionization energy=70 eV
ion type=[M]+*
computed spectral entropy=1.645869784262948
computed normalized entropy=0.7147921652366938
SPLASH=splash10-004r-0290000000-138f0117ccc0ad58fb49
submitter=submitter = University of Tokyo Team (Faculty of Engineering, University of Tokyo)
MoNA Rating=3.75

>  <NUM PEAKS>  (4722) 
10

>  <MASS SPECTRAL PEAKS>  (4722) 
119 3
147 9
175 7
190 18
193 4
221 6
236 51
261 3
264 20
279 99.99

>  <PREDICTED SPECTRUM>  (4722) 
15 25
26 19
27 36
28 55
29 28
37 0
38 46
39 60
40 9
41 24
42 18
43 76
44 59
45 58
49 19
50 71
51 79
52 60
53 104
54 41
55 67
56 11
57 20
58 38
59 16
61 7
62 72
63 119
64 87
65 94
66 95
67 44
68 36
69 104
70 56
71 16
72 48
74 55
75 72
76 144
77 86
78 69
79 91
80 71
81 48
82 56
83 141
84 52
85 41
86 46
87 33
88 80
89 97
90 84
91 92
92 91
93 77
94 91
95 95
96 64
97 46
98 18
99 29
100 29
101 47
102 137
103 82
104 80
105 72
106 107
107 90
108 59
109 48
110 13
111 30
112 19
113 54
114 16
115 51
116 11
117 44
118 91
119 78
120 56
121 55
122 122
123 37
124 63
125 38
126 55
127 77
128 43
129 90
130 94
131 139
132 90
133 82
134 82
135 79
136 91
137 95
138 75
139 119
140 67
141 32
142 55
144 27
146 72
147 67
148 114
149 111
150 198
151 126
152 185
153 108
154 71
160 18
161 56
162 142
163 105
164 137
165 174
166 148
167 131
168 42
174 4
175 43
176 86
177 185
178 201
179 142
180 221
181 176
182 57
186 5
187 5
188 37
189 25
190 115
191 116
192 190
193 211
194 138
195 139
196 26
203 90
204 159
205 114
206 186
207 135
208 209
209 48
210 19
216 31
217 26
218 117
219 118
220 195
221 203
222 132
223 82
231 28
232 101
233 138
234 154
235 110
236 341
237 99
246 102
247 60
248 116
249 171
250 258
251 145
261 53
262 86
263 27
264 630
265 256
266 79
267 3
277 54
278 90
279 999
280 374
281 128
282 4

$$$$

     RDKit          2D

 24 26  0  0  0  0  0  0  0  0999 V2000
    4.8676    6.0318    0.0000 C   0  0  0  0  0  0  0  0  0  0  0  0
    4.0982    2.3687    0.0000 C   0  0  0  0  0  0  0  0  0  0  0  0
    5.0548    4.0431    0.0000 C   0  0  0  0  0  0  0  0  0  0  0  0
   -1.5953    3.7521    0.0000 C   0  0  0  0  0  0  0  0  0  0  0  0
    6.1881    0.7529    0.0000 C   0  0  0  0  0  0  0  0  0  0  0  0
    3.5720    5.2759    0.0000 C   0  0  0  0  0  0  0  0  0  0  0  0
   -3.0400    1.2000    0.0000 C   0  0  0  0  0  0  0  0  0  0  0  0
   -3.9100   -0.0200    0.0000 C   0  0  0  0  0  0  0  0  0  0  0  0
   -0.3000   -1.5000    0.0000 C   0  0  0  0  0  0  0  0  0  0  0  0
   -1.6100    0.7500    0.0000 C   0  0  0  0  0  0  0  0  0  0  0  0
   -1.6000   -0.7500    0.0000 C   0  0  0  0  0  0  0  0  0  0  0  0
    0.9900   -0.7500    0.0000 C   0  0  0  0  0  0  0  0  0  0  0  0
    1.0000    0.7500    0.0000 C   0  0  0  0  0  0  0  0  0  0  0  0
   -0.3000    1.5000    0.0000 C   0  0  0  0  0  0  0  0  0  0  0  0
    2.2900    1.5200    0.0000 C   0  0  0  0  0  0  0  0  0  0  0  0
    3.5900    0.7600    0.0000 C   0  0  0  0  0  0  0  0  0  0  0  0
    3.5900   -0.7500    0.0000 C   0  0  0  0  0  0  0  0  0  0  0  0
    3.5788    3.7759    0.0000 C   0  0  0  0  0  0  0  0  0  0  0  0
    4.8867   -1.5040    0.0000 O   0  0  0  0  0  0  0  0  0  0  0  0
   -0.2975    3.0000    0.0000 O   0  0  0  0  0  0  0  0  0  0  0  0
    4.8911    1.5065    0.0000 O   0  0  0  0  0  0  0  0  0  0  0  0
   -3.0200   -1.2200    0.0000 O   0  0  0  0  0  0  0  0  0  0  0  0
    2.2900   -1.4900    0.0000 O   0  0  0  0  0  0  0  0  0  0  0  0
    2.2832    3.0200    0.0000 O   0  0  0  0  0  0  0  0  0  0  0  0
  6  1  2  0
  8  7  2  0
 10  7  1  0
 11  9  1  0
 11 10  2  0
 12  9  2  0
 13 12  1  0
 14 10  1  0
 14 13  2  0
 15 13  1  0
 16 15  2  0
 17 16  1  0
 18  2  1  0
 18  3  1  0
 18  6  1  0
 19 17  2  0
 20  4  1  0
 20 14  1  0
 21  5  1  0
 21 16  1  0
 22  8  1  0
 22 11  1  0
 23 12  1  0
 23 17  1  0
 24 15  1  0
 24 18  1  0
M  END
>  <NAME>  (4723) 
HALFORDININ

>  <SYNONYMS>  (4723) 


>  <SPECTRUM TYPE>  (4723) 
MS1

>  <INSTRUMENT TYPE>  (4723) 
EI-B

>  <INSTRUMENT>  (4723) 
AEI-GEC MS-902

>  <ION MODE>  (4723) 
P

>  <INCHIKEY>  (4723) 
CJRBHIKORKDQEC-UHFFFAOYSA-N

>  <FORMULA>  (4723) 
C18H18O6

>  <EXACT MASS>  (4723) 
330.110338296

>  <MW>  (4723) 
330

>  <ID>  (4723) 
JP003116

>  <CONTRIBUTOR>  (4723) 
University of Tokyo Team, {Faculty of Engineering, University of Tokyo

>  <COMMENT>  (4723) 
SMILES=C=CC(C)(C)OC(=C(OC)3)c(c(OC(=O)3)1)c(OC)c(c2)c(oc2)c1
InChI=InChI=1S/C18H18O6/c1-6-18(2,3)24-15-13-12(23-17(19)16(15)21-5)9-11-10(7-8-22-11)14(13)20-4/h6-9H,1H2,2-5H3
computed SMILES=O=C1OC2=CC=3OC=CC3C(OC)=C2C(OC(C=C)(C)C)=C1OC
accession=JP003116
date=2016.01.19 (Created 2008.10.21, modified 2011.05.06)
author=NAKAYAMA M, MASS SPECTROSCOPY SOC. OF JAPAN (MSSJ)
license=CC BY-NC-SA
exact mass=330.11034
ionization energy=70 eV
ion type=[M]+*
computed spectral entropy=2.074588572967319
computed normalized entropy=0.8348758586743338
SPLASH=splash10-03yl-3691000000-066a27fdea0496bbf508
submitter=submitter = University of Tokyo Team (Faculty of Engineering, University of Tokyo)
MoNA Rating=3.75

>  <NUM PEAKS>  (4723) 
12

>  <MASS SPECTRAL PEAKS>  (4723) 
69 57
147 9
175 7
176 9
190 63
191 17
219 11
233 33
247 12
262 99.99
330 23
331 5

>  <PREDICTED SPECTRUM>  (4723) 
15 1
27 47
28 27
29 87
38 24
39 144
40 37
41 209
42 64
43 119
44 53
45 60
47 31
49 34
50 143
51 173
52 71
53 214
54 84
55 340
56 79
57 111
58 22
59 104
60 7
61 39
62 123
63 186
64 103
65 141
66 101
67 153
68 51
69 190
70 32
71 59
73 115
74 106
75 208
76 203
77 213
78 97
79 107
80 22
81 93
82 65
83 291
84 138
85 95
86 82
87 93
88 98
89 188
90 146
91 157
92 104
93 59
94 28
95 89
96 19
97 108
98 65
99 84
100 92
101 119
102 180
103 155
104 103
105 101
106 45
107 35
108 11
109 45
110 68
111 77
112 85
113 133
114 147
115 265
116 156
117 144
118 82
119 101
120 39
121 36
123 19
124 16
125 15
126 85
127 164
128 201
129 221
130 149
131 152
132 129
133 94
134 82
135 71
137 7
138 0
139 99
140 81
141 122
142 122
143 131
144 122
145 168
146 111
147 164
148 81
149 67
150 37
151 65
152 52
153 74
154 61
155 82
156 69
157 110
158 77
159 59
160 29
161 130
162 116
163 134
164 70
165 47
166 14
167 46
168 20
169 86
170 76
171 132
172 79
173 133
174 127
175 107
176 88
177 11
179 1
181 15
182 0
183 72
184 67
185 146
186 91
187 143
188 137
189 159
190 119
191 65
192 38
197 41
198 22
199 184
200 101
201 175
202 138
203 146
204 126
205 100
206 50
211 60
212 68
213 202
214 149
215 205
216 184
217 209
218 149
219 178
220 28
227 148
228 91
229 241
230 210
231 380
232 190
233 105
234 26
238 7
239 67
240 62
241 169
242 117
243 209
244 177
245 242
246 269
247 314
248 249
249 31
253 13
254 8
255 171
256 63
257 205
258 105
259 301
260 144
261 103
262 90
263 16
268 42
269 120
270 72
271 208
272 133
273 242
274 206
275 177
276 160
277 14
283 93
284 91
285 161
286 115
287 310
288 146
289 94
290 28
297 38
299 168
300 211
301 192
302 86
303 55
313 103
314 116
315 625
316 272
317 82
328 52
329 156
330 999
331 458
332 147
333 18

$$$$

     RDKit          2D

 20 22  0  0  0  0  0  0  0  0999 V2000
    3.5788    3.7759    0.0000 C   0  0  0  0  0  0  0  0  0  0  0  0
   -1.5953   -3.7522    0.0000 C   0  0  0  0  0  0  0  0  0  0  0  0
    6.1881    0.7529    0.0000 C   0  0  0  0  0  0  0  0  0  0  0  0
   -3.0400    1.2000    0.0000 C   0  0  0  0  0  0  0  0  0  0  0  0
   -3.9100   -0.0200    0.0000 C   0  0  0  0  0  0  0  0  0  0  0  0
   -0.3000    1.5000    0.0000 C   0  0  0  0  0  0  0  0  0  0  0  0
   -1.6100    0.7500    0.0000 C   0  0  0  0  0  0  0  0  0  0  0  0
    1.0000    0.7500    0.0000 C   0  0  0  0  0  0  0  0  0  0  0  0
   -1.6000   -0.7500    0.0000 C   0  0  0  0  0  0  0  0  0  0  0  0
    2.2900    1.5200    0.0000 C   0  0  0  0  0  0  0  0  0  0  0  0
    0.9900   -0.7500    0.0000 C   0  0  0  0  0  0  0  0  0  0  0  0
   -0.3000   -1.5000    0.0000 C   0  0  0  0  0  0  0  0  0  0  0  0
    3.5900    0.7600    0.0000 C   0  0  0  0  0  0  0  0  0  0  0  0
    3.5900   -0.7500    0.0000 C   0  0  0  0  0  0  0  0  0  0  0  0
    4.8867   -1.5040    0.0000 O   0  0  0  0  0  0  0  0  0  0  0  0
    2.2832    3.0200    0.0000 O   0  0  0  0  0  0  0  0  0  0  0  0
   -0.2975   -3.0000    0.0000 O   0  0  0  0  0  0  0  0  0  0  0  0
    4.8911    1.5065    0.0000 O   0  0  0  0  0  0  0  0  0  0  0  0
   -3.0200   -1.2200    0.0000 O   0  0  0  0  0  0  0  0  0  0  0  0
    2.2900   -1.4900    0.0000 O   0  0  0  0  0  0  0  0  0  0  0  0
  5  4  2  0
  7  4  1  0
  7  6  2  0
  8  6  1  0
  9  7  1  0
 10  8  1  0
 11  8  2  0
 12  9  2  0
 12 11  1  0
 13 10  2  0
 14 13  1  0
 15 14  2  0
 16  1  1  0
 16 10  1  0
 17  2  1  0
 17 12  1  0
 18  3  1  0
 18 13  1  0
 19  5  1  0
 19  9  1  0
 20 11  1  0
 20 14  1  0
M  END
>  <NAME>  (4724) 
ISOHALFORDIN

>  <SYNONYMS>  (4724) 


>  <SPECTRUM TYPE>  (4724) 
MS1

>  <INSTRUMENT TYPE>  (4724) 
EI-B

>  <INSTRUMENT>  (4724) 
AEI-GEC MS-902

>  <ION MODE>  (4724) 
P

>  <INCHIKEY>  (4724) 
NGCYDEYEPDYBIX-UHFFFAOYSA-N

>  <FORMULA>  (4724) 
C14H12O6

>  <EXACT MASS>  (4724) 
276.06338810399996

>  <MW>  (4724) 
276

>  <ID>  (4724) 
JP003114

>  <CONTRIBUTOR>  (4724) 
University of Tokyo Team, {Faculty of Engineering, University of Tokyo

>  <COMMENT>  (4724) 
SMILES=COC(C(=O)3)=C(OC)c(c1)c(O3)c(OC)c(o2)c(cc2)1
InChI=InChI=1S/C14H12O6/c1-16-10-8-6-7-4-5-19-9(7)12(17-2)11(8)20-14(15)13(10)18-3/h4-6H,1-3H3
computed SMILES=O=C1OC=2C(OC)=C3OC=CC3=CC2C(OC)=C1OC
author=NAKAYAMA M, MASS SPECTROSCOPY SOC. OF JAPAN (MSSJ)
accession=JP003114
date=2016.01.19 (Created 2008.10.21, modified 2011.05.06)
license=CC BY-NC-SA
exact mass=276.06339
ionization energy=70 eV
ion type=[M]+*
computed spectral entropy=1.7331793319259068
computed normalized entropy=0.7227919215601385
SPLASH=splash10-004i-0190000000-19456518a9aa4e2181fb
submitter=submitter = University of Tokyo Team (Faculty of Engineering, University of Tokyo)
MoNA Rating=3.75

>  <NUM PEAKS>  (4724) 
11

>  <MASS SPECTRAL PEAKS>  (4724) 
91 4
119 4
147 11
162 6
175 4
190 12
233 45
247 4
261 10
276 99.99
277 18

>  <PREDICTED SPECTRUM>  (4724) 
15 49
25 0
26 19
27 57
28 32
29 71
38 0
39 27
40 3
41 8
43 40
44 4
45 10
49 27
50 119
51 119
52 53
53 154
54 0
55 63
61 51
62 124
63 156
64 65
65 71
66 71
67 19
69 51
74 31
75 147
76 168
77 138
78 85
79 28
80 9
81 11
83 22
84 0
86 63
87 66
88 106
89 132
90 80
91 118
92 59
93 51
95 36
101 74
102 84
103 154
104 116
105 91
106 69
107 97
109 5
114 2
115 94
116 112
117 91
118 93
119 116
120 120
121 36
127 0
128 8
129 43
130 34
131 130
132 136
133 109
134 119
135 58
136 18
143 15
144 23
145 111
146 73
147 239
148 71
149 29
157 4
158 17
159 140
160 101
161 159
162 190
163 31
173 89
174 138
175 241
176 34
177 102
178 16
185 2
187 32
188 7
189 116
190 277
191 65
192 2
201 92
202 71
203 60
204 78
205 268
206 75
207 7
215 36
216 18
217 85
218 129
229 31
230 80
231 109
232 43
233 599
234 187
246 45
247 160
248 154
249 61
260 20
261 421
262 156
263 29
275 31
276 999
277 425
278 130
279 0

$$$$

     RDKit          2D

 20 22  0  0  0  0  0  0  0  0999 V2000
   -1.5953    3.7521    0.0000 C   0  0  0  0  0  0  0  0  0  0  0  0
    3.5788    3.7759    0.0000 C   0  0  0  0  0  0  0  0  0  0  0  0
    6.1881    0.7529    0.0000 C   0  0  0  0  0  0  0  0  0  0  0  0
   -3.0400    1.2000    0.0000 C   0  0  0  0  0  0  0  0  0  0  0  0
   -3.9100   -0.0200    0.0000 C   0  0  0  0  0  0  0  0  0  0  0  0
   -0.3000   -1.5000    0.0000 C   0  0  0  0  0  0  0  0  0  0  0  0
   -1.6100    0.7500    0.0000 C   0  0  0  0  0  0  0  0  0  0  0  0
   -1.6000   -0.7500    0.0000 C   0  0  0  0  0  0  0  0  0  0  0  0
    0.9900   -0.7500    0.0000 C   0  0  0  0  0  0  0  0  0  0  0  0
    1.0000    0.7500    0.0000 C   0  0  0  0  0  0  0  0  0  0  0  0
   -0.3000    1.5000    0.0000 C   0  0  0  0  0  0  0  0  0  0  0  0
    2.2900    1.5200    0.0000 C   0  0  0  0  0  0  0  0  0  0  0  0
    3.5900    0.7600    0.0000 C   0  0  0  0  0  0  0  0  0  0  0  0
    3.5900   -0.7500    0.0000 C   0  0  0  0  0  0  0  0  0  0  0  0
    4.8867   -1.5040    0.0000 O   0  0  0  0  0  0  0  0  0  0  0  0
   -0.2975    3.0000    0.0000 O   0  0  0  0  0  0  0  0  0  0  0  0
    2.2832    3.0200    0.0000 O   0  0  0  0  0  0  0  0  0  0  0  0
    4.8911    1.5065    0.0000 O   0  0  0  0  0  0  0  0  0  0  0  0
   -3.0200   -1.2200    0.0000 O   0  0  0  0  0  0  0  0  0  0  0  0
    2.2900   -1.4900    0.0000 O   0  0  0  0  0  0  0  0  0  0  0  0
  5  4  2  0
  7  4  1  0
  8  6  1  0
  8  7  2  0
  9  6  2  0
 10  9  1  0
 11  7  1  0
 11 10  2  0
 12 10  1  0
 13 12  2  0
 14 13  1  0
 15 14  2  0
 16  1  1  0
 16 11  1  0
 17  2  1  0
 17 12  1  0
 18  3  1  0
 18 13  1  0
 19  5  1  0
 19  8  1  0
 20  9  1  0
 20 14  1  0
M  END
>  <NAME>  (4725) 
HALFORDIN

>  <SYNONYMS>  (4725) 


>  <SPECTRUM TYPE>  (4725) 
MS1

>  <INSTRUMENT TYPE>  (4725) 
EI-B

>  <INSTRUMENT>  (4725) 
AEI-GEC MS-902

>  <ION MODE>  (4725) 
P

>  <INCHIKEY>  (4725) 
SHOQQSABOUVQLJ-UHFFFAOYSA-N

>  <FORMULA>  (4725) 
C14H12O6

>  <EXACT MASS>  (4725) 
276.06338810399996

>  <MW>  (4725) 
276

>  <ID>  (4725) 
JP003113

>  <CONTRIBUTOR>  (4725) 
University of Tokyo Team, {Faculty of Engineering, University of Tokyo

>  <COMMENT>  (4725) 
SMILES=COC(C(=O)3)=C(OC)c(c(O3)1)c(OC)c(c2)c(oc2)c1
InChI=InChI=1S/C14H12O6/c1-16-11-7-4-5-19-8(7)6-9-10(11)12(17-2)13(18-3)14(15)20-9/h4-6H,1-3H3
computed SMILES=O=C1OC2=CC=3OC=CC3C(OC)=C2C(OC)=C1OC
accession=JP003113
date=2016.01.19 (Created 2008.10.21, modified 2011.05.06)
author=NAKAYAMA M, MASS SPECTROSCOPY SOC. OF JAPAN (MSSJ)
license=CC BY-NC-SA
exact mass=276.06339
ionization energy=70 eV
ion type=[M]+*
computed spectral entropy=1.731604861300103
computed normalized entropy=0.7520264360994804
SPLASH=splash10-004i-0190000000-8ed5389f5991bd7dbd0c
submitter=submitter = University of Tokyo Team (Faculty of Engineering, University of Tokyo)
MoNA Rating=3.75

>  <NUM PEAKS>  (4725) 
10

>  <MASS SPECTRAL PEAKS>  (4725) 
119 3
147 9
175 8
190 19
218 4
233 45
234 5
261 15
276 99.99
277 18

>  <PREDICTED SPECTRUM>  (4725) 
15 20
27 16
29 6
37 5
38 10
39 59
40 1
41 53
43 107
44 32
45 68
47 11
49 60
50 122
51 126
52 72
53 169
54 12
55 74
57 10
58 48
59 62
60 1
61 77
62 153
63 189
64 120
65 97
66 66
67 27
69 172
70 37
71 49
72 92
73 72
74 85
75 184
76 180
77 170
78 94
79 67
80 17
81 73
82 31
83 151
84 42
85 45
86 89
87 109
88 122
89 175
90 141
91 133
92 73
93 59
94 39
95 103
96 8
97 13
99 53
100 67
101 113
102 136
103 175
104 136
105 140
106 74
107 88
108 11
109 41
113 0
114 17
115 129
116 123
117 130
118 100
119 194
120 98
121 52
125 5
126 69
127 66
128 28
129 131
130 133
131 246
132 190
133 153
134 154
135 102
136 53
137 41
139 10
143 59
144 94
145 207
146 159
147 293
148 128
149 119
150 70
151 23
157 84
158 105
159 218
160 156
161 211
162 185
163 76
164 3
171 16
172 30
173 170
174 189
175 305
176 183
177 148
178 73
185 97
186 72
187 171
188 120
189 221
190 270
191 100
192 48
193 6
200 103
201 176
202 117
203 274
204 185
205 227
206 59
207 87
214 11
215 137
216 98
217 174
218 208
219 109
220 12
228 26
229 106
230 141
231 174
232 171
233 586
234 203
235 34
243 83
244 36
245 122
246 164
247 440
248 232
249 88
259 83
260 51
261 566
262 205
263 32
275 102
276 999
277 376
278 117
279 0

$$$$

     RDKit          2D

 43 42  0  0  0  0  0  0  0  0999 V2000
  -33.7750   20.2500    0.0000 C   0  0  0  0  0  0  0  0  0  0  0  0
   11.6913   19.5000    0.0000 C   0  0  0  0  0  0  0  0  0  0  0  0
   -7.7942   24.7500    0.0000 C   0  0  0  0  0  0  0  0  0  0  0  0
  -32.4760   19.5000    0.0000 C   0  0  0  0  0  0  0  0  0  0  0  0
   10.3923   20.2500    0.0000 C   0  0  0  0  0  0  0  0  0  0  0  0
  -31.1769   20.2500    0.0000 C   0  0  0  0  0  0  0  0  0  0  0  0
    9.0933   19.5000    0.0000 C   0  0  0  0  0  0  0  0  0  0  0  0
  -29.8779   19.5000    0.0000 C   0  0  0  0  0  0  0  0  0  0  0  0
    7.7942   20.2500    0.0000 C   0  0  0  0  0  0  0  0  0  0  0  0
  -28.5788   20.2500    0.0000 C   0  0  0  0  0  0  0  0  0  0  0  0
    6.4952   19.5000    0.0000 C   0  0  0  0  0  0  0  0  0  0  0  0
  -27.2798   19.5000    0.0000 C   0  0  0  0  0  0  0  0  0  0  0  0
    5.1962   20.2500    0.0000 C   0  0  0  0  0  0  0  0  0  0  0  0
  -25.9808   20.2500    0.0000 C   0  0  0  0  0  0  0  0  0  0  0  0
    3.8971   19.5000    0.0000 C   0  0  0  0  0  0  0  0  0  0  0  0
  -24.6817   19.5000    0.0000 C   0  0  0  0  0  0  0  0  0  0  0  0
    2.5981   20.2500    0.0000 C   0  0  0  0  0  0  0  0  0  0  0  0
  -23.3827   20.2500    0.0000 C   0  0  0  0  0  0  0  0  0  0  0  0
    1.2990   19.5000    0.0000 C   0  0  0  0  0  0  0  0  0  0  0  0
  -22.0836   19.5000    0.0000 C   0  0  0  0  0  0  0  0  0  0  0  0
    0.0000   20.2500    0.0000 C   0  0  0  0  0  0  0  0  0  0  0  0
  -20.7846   20.2500    0.0000 C   0  0  0  0  0  0  0  0  0  0  0  0
   -1.2990   19.5000    0.0000 C   0  0  0  0  0  0  0  0  0  0  0  0
  -19.4856   19.5000    0.0000 C   0  0  0  0  0  0  0  0  0  0  0  0
   -2.5981   20.2500    0.0000 C   0  0  0  0  0  0  0  0  0  0  0  0
  -18.1865   20.2500    0.0000 C   0  0  0  0  0  0  0  0  0  0  0  0
   -3.8971   19.5000    0.0000 C   0  0  0  0  0  0  0  0  0  0  0  0
  -16.8875   19.5000    0.0000 C   0  0  0  0  0  0  0  0  0  0  0  0
   -5.1962   20.2500    0.0000 C   0  0  0  0  0  0  0  0  0  0  0  0
  -15.5885   20.2500    0.0000 C   0  0  0  0  0  0  0  0  0  0  0  0
   -6.4952   19.5000    0.0000 C   0  0  0  0  0  0  0  0  0  0  0  0
  -10.3923   21.7500    0.0000 C   0  0  0  0  0  0  0  0  0  0  0  0
  -11.6913   19.5000    0.0000 C   0  0  0  0  0  0  0  0  0  0  0  0
   -9.0933   24.0000    0.0000 C   0  0  0  0  0  0  0  0  0  0  0  0
  -10.3923   20.2500    0.0000 C   0  0  0  0  0  0  0  0  0  0  0  0
  -14.2894   19.5000    0.0000 C   0  0  0  0  0  0  0  0  0  0  0  0
   -7.7942   20.2500    0.0000 C   0  0  0  0  0  0  0  0  0  0  0  0
  -10.3923   24.7500    0.0000 O   0  0  0  0  0  0  0  0  0  0  0  0
  -14.2894   18.0000    0.0000 O   0  0  0  0  0  0  0  0  0  0  0  0
   -7.7942   21.7500    0.0000 O   0  0  0  0  0  0  0  0  0  0  0  0
   -9.0933   22.5000    0.0000 O   0  0  0  0  0  0  0  0  0  0  0  0
  -12.9904   20.2500    0.0000 O   0  0  0  0  0  0  0  0  0  0  0  0
   -9.0933   19.5000    0.0000 O   0  0  0  0  0  0  0  0  0  0  0  0
  4  1  1  0
  5  2  1  0
  6  4  1  0
  7  5  1  0
  8  6  1  0
  9  7  1  0
 10  8  1  0
 11  9  1  0
 12 10  1  0
 13 11  1  0
 14 12  1  0
 15 13  1  0
 16 14  1  0
 17 15  1  0
 18 16  1  0
 19 17  1  0
 20 18  1  0
 21 19  1  0
 22 20  1  0
 23 21  1  0
 24 22  1  0
 25 23  1  0
 26 24  1  0
 27 25  1  0
 28 26  1  0
 29 27  1  0
 30 28  1  0
 31 29  1  0
 34  3  1  0
 35 32  1  0
 35 33  1  0
 36 30  1  0
 37 31  1  0
 38 34  2  0
 39 36  2  0
 40 37  2  0
 41 32  1  0
 41 34  1  0
 42 33  1  0
 42 36  1  0
 43 35  1  0
 43 37  1  0
M  END
>  <NAME>  (4726) 
1,2-DIPALMITOYL 3-ACETYL GLYCEROL

>  <SYNONYMS>  (4726) 


>  <SPECTRUM TYPE>  (4726) 
MS1

>  <INSTRUMENT TYPE>  (4726) 
EI-B

>  <INSTRUMENT>  (4726) 
SHIMADZU LKB-9000B

>  <ION MODE>  (4726) 
P

>  <INCHIKEY>  (4726) 
YHNCVLUVISTFCT-UHFFFAOYSA-N

>  <FORMULA>  (4726) 
C37H70O6

>  <EXACT MASS>  (4726) 
610.51723996

>  <MW>  (4726) 
610

>  <ID>  (4726) 
JP002759

>  <CONTRIBUTOR>  (4726) 
University of Tokyo Team, {Faculty of Engineering, University of Tokyo

>  <COMMENT>  (4726) 
SMILES=O=C(OC(COC(=O)CCCCCCCCCCCCCCC)COC(C)=O)CCCCCCCCCCCCCCC
InChI=InChI=1S/C37H70O6/c1-4-6-8-10-12-14-16-18-20-22-24-26-28-30-36(39)42-33-35(32-41-34(3)38)43-37(40)31-29-27-25-23-21-19-17-15-13-11-9-7-5-2/h35H,4-33H2,1-3H3
computed SMILES=O=C(OCC(OC(=O)CCCCCCCCCCCCCCC)COC(=O)CCCCCCCCCCCCCCC)C
accession=JP002759
date=2016.01.19 (Created 2008.10.21, modified 2011.05.06)
author=HAYASHI A, DEPT. OF CHEMISTRY, FAC. OF SCI. AND TECHNOLOGY, KINKI UNIV.
license=CC BY-NC-SA
exact mass=610.51724
ionization energy=70 eV
ion type=[M]+*
computed spectral entropy=3.84527555657505
computed normalized entropy=0.799070707314467
SPLASH=splash10-0a4i-3469000000-eb5b0d24a3cc4faa66b3
submitter=submitter = University of Tokyo Team (Faculty of Engineering, University of Tokyo)
MoNA Rating=3.75

>  <NUM PEAKS>  (4726) 
123

>  <MASS SPECTRAL PEAKS>  (4726) 
55 1.8
57 4.8
67 1.4
69 0.45
70 1.5
71 8.8
73 4
81 0.4
82 1.6
83 7.9
84 11
85 0.96
86 1.4
95 7.7
96 2.9
97 0.91
98 23.4
99 5.7
100 1.3
107 0.11
109 5.7
110 1.7
111 5.4
112 1.15
113 3.7
115 1.9
116 2.2
117 4.55
118 2.7
121 1.6
123 3.7
124 0.11
125 2.9
126 3.6
127 1.6
129 0.27
133 1.9
135 2.7
137 2.4
139 0.14
140 1.7
141 1.5
147 2.7
149 0.12
151 1.1
154 1.9
155 1.3
158 2.88
159 11.7
168 1
169 1
171 2.83
172 3.3
177 2
182 1.2
185 0.37
191 4.2
192 1
193 1.1
199 0.15
207 32.2
208 6.7
209 4.2
210 0.1
213 5.1
221 3
227 12
228 0.24
236 1.2
237 1.9
238 8.3
239 8.05
240 13.8
241 3.4
242 1
255 0.32
256 1.3
265 1.5
267 2.1
269 0.42
270 1.3
280 2.8
281 16.1
282 0.45
283 4.9
284 1.6
295 1.2
297 0.28
298 1
299 1.7
311 7.9
312 0.37
313 22.9
314 4.6
325 2.6
326 0.12
339 1.3
341 5.2
342 1.4
353 0.24
354 20.7
355 99.99
356 23.4
357 0.33
367 9.8
368 2
373 1.4
396 0.28
399 2.3
409 1.6
423 4.1
424 0.16
429 2.7
430 1.1
452 1
465 0.12
508 2.4
509 1
551 4.3
552 0.16
553 0.3
577 0.1
592 0.1

>  <PREDICTED SPECTRUM>  (4726) 
3 3
15 29
16 5
17 13
18 23
25 16
26 88
27 310
28 205
29 414
30 127
31 142
32 58
33 6
36 23
37 13
38 44
39 208
40 115
41 635
42 407
43 999
44 294
45 216
46 64
48 24
50 38
51 80
52 60
53 193
54 252
55 729
56 362
57 966
58 298
59 235
60 420
61 308
62 96
63 91
64 35
65 135
66 85
67 324
68 283
69 607
70 355
71 622
72 234
73 720
74 186
75 127
76 36
77 95
78 83
79 146
80 148
81 372
82 306
83 576
84 536
85 523
86 197
87 216
88 134
89 121
90 28
91 66
92 83
93 142
94 101
95 403
96 261
97 489
98 626
99 362
100 206
101 200
102 164
103 199
104 104
105 97
106 108
107 167
108 144
109 383
110 199
111 326
112 392
113 253
114 182
115 421
116 395
117 377
118 153
119 172
120 87
121 121
122 93
123 236
124 192
125 173
126 241
127 197
128 117
129 397
130 157
131 37
132 48
133 64
134 104
135 204
136 129
137 212
138 117
139 149
140 147
141 195
142 148
143 138
144 99
145 100
146 123
147 62
148 62
149 134
150 74
151 130
152 149
153 122
154 153
155 110
156 107
157 166
158 362
159 270
160 87
161 73
162 20
163 122
164 54
165 111
166 82
167 77
168 135
169 127
170 227
171 580
172 320
173 132
174 97
175 56
176 92
177 146
178 121
179 75
180 101
181 91
182 164
183 160
184 120
185 120
186 156
187 91
188 54
189 108
190 72
191 107
192 49
193 92
194 100
195 109
196 99
197 134
198 120
199 193
200 109
201 83
202 52
203 28
205 38
206 5
207 113
208 121
209 167
210 110
211 144
212 91
213 179
214 64
215 78
216 82
217 94
218 124
219 89
220 110
221 132
222 127
223 86
224 58
225 41
226 0
227 215
228 136
229 108
230 2
231 7
232 3
233 26
234 45
235 30
236 149
237 194
238 314
239 954
240 369
241 185
242 120
243 117
244 86
245 76
246 127
247 33
248 14
249 81
250 114
251 9
252 55
253 70
254 59
255 118
256 289
257 224
258 152
259 48
260 3
261 33
262 56
263 83
264 105
265 93
266 97
267 106
268 110
269 140
270 115
271 64
272 1
275 18
276 54
278 77
279 48
280 108
281 132
282 134
283 267
284 105
285 207
286 62
287 33
290 31
291 26
292 23
293 99
294 55
295 103
296 118
297 146
298 98
299 134
300 32
301 71
302 39
303 9
304 83
305 34
306 11
307 29
308 45
309 104
310 143
311 215
312 200
313 293
314 30
315 9
316 24
320 56
321 76
324 111
325 168
326 216
327 222
328 6
329 52
330 30
332 33
334 9
337 43
338 25
339 165
340 107
341 138
342 18
345 35
346 56
347 28
349 10
351 14
352 59
353 128
354 366
355 650
356 388
357 113
358 40
360 28
367 191
368 135
369 81
370 13
373 115
374 52
381 58
382 131
383 98
384 105
385 21
395 8
396 99
397 83
398 21
399 32
407 20
409 49
410 97
411 16
421 7
423 149
424 89
425 7
435 37
437 52
438 51
439 24
451 62
452 58
466 26
477 2
493 5
494 54
495 62
496 34
497 4
501 9
507 92
508 18
509 34
516 10
526 18
538 41
539 15
550 230
551 152
552 89
568 19
580 16
592 38
593 47
595 5
596 20
608 35
610 38

$$$$

     RDKit          2D

 26 25  0  0  0  0  0  0  0  0999 V2000
    6.8236    4.7745    0.0000 C   0  0  0  0  0  0  0  0  0  0  0  0
    7.3726    6.8236    0.0000 C   0  0  0  0  0  0  0  0  0  0  0  0
    5.3236    7.3726    0.0000 C   0  0  0  0  0  0  0  0  0  0  0  0
    1.4264    2.1226    0.0000 C   0  0  0  0  0  0  0  0  0  0  0  0
    0.8774    0.0736    0.0000 C   0  0  0  0  0  0  0  0  0  0  0  0
    2.9264   -0.4755    0.0000 C   0  0  0  0  0  0  0  0  0  0  0  0
    9.4216    4.3726    0.0000 C   0  0  0  0  0  0  0  0  0  0  0  0
    7.9216    1.7745    0.0000 C   0  0  0  0  0  0  0  0  0  0  0  0
    9.9707    2.3236    0.0000 C   0  0  0  0  0  0  0  0  0  0  0  0
    0.3284    5.1226    0.0000 C   0  0  0  0  0  0  0  0  0  0  0  0
   -1.7207    4.5736    0.0000 C   0  0  0  0  0  0  0  0  0  0  0  0
   -1.1716    2.5245    0.0000 C   0  0  0  0  0  0  0  0  0  0  0  0
    4.7745    3.8236    0.0000 C   0  0  0  0  0  0  0  0  0  0  0  0
    3.4755    3.0736    0.0000 C   0  0  0  0  0  0  0  0  0  0  0  0
    6.0736    3.0736    0.0000 C   0  0  0  0  0  0  0  0  0  0  0  0
    2.1764    3.8236    0.0000 C   0  0  0  0  0  0  0  0  0  0  0  0
    6.0736    1.5736    0.0000 O   0  0  0  0  0  0  0  0  0  0  0  0
    2.1764    5.3236    0.0000 O   0  0  0  0  0  0  0  0  0  0  0  0
    4.7745    5.3236    0.0000 O   0  0  0  0  0  0  0  0  0  0  0  0
    3.4755    1.5736    0.0000 O   0  0  0  0  0  0  0  0  0  0  0  0
    7.3726    3.8236    0.0000 O   0  0  0  0  0  0  0  0  0  0  0  0
    0.8774    3.0736    0.0000 O   0  0  0  0  0  0  0  0  0  0  0  0
    6.0736    6.0736    0.0000 Si  0  0  0  0  0  4  0  0  0  0  0  0
    2.1764    0.8236    0.0000 Si  0  0  0  0  0  4  0  0  0  0  0  0
    8.6716    3.0736    0.0000 Si  0  0  0  0  0  4  0  0  0  0  0  0
   -0.4216    3.8236    0.0000 Si  0  0  0  0  0  4  0  0  0  0  0  0
 14 13  1  0
 15 13  1  0
 16 14  1  0
 17 15  2  0
 18 16  2  0
 19 13  1  0
 20 14  1  0
 21 15  1  0
 22 16  1  0
 23  1  1  0
 23  2  1  0
 23  3  1  0
 23 19  1  0
 24  4  1  0
 24  5  1  0
 24  6  1  0
 24 20  1  0
 25  7  1  0
 25  8  1  0
 25  9  1  0
 25 21  1  0
 26 10  1  0
 26 11  1  0
 26 12  1  0
 26 22  1  0
M  END
>  <NAME>  (4727) 
TARTARIC ACID-TETRA-TMS

>  <SYNONYMS>  (4727) 


>  <SPECTRUM TYPE>  (4727) 
MS1

>  <INSTRUMENT TYPE>  (4727) 
EI-B

>  <INSTRUMENT>  (4727) 
SHIMADZU LKB-9000B

>  <ION MODE>  (4727) 
P

>  <INCHIKEY>  (4727) 
LPQBQHQEJJCWBZ-UHFFFAOYSA-N

>  <FORMULA>  (4727) 
C16H38O6Si4

>  <EXACT MASS>  (4727) 
438.17454505599994

>  <MW>  (4727) 
438

>  <ID>  (4727) 
JP002758

>  <CONTRIBUTOR>  (4727) 
University of Tokyo Team, {Faculty of Engineering, University of Tokyo

>  <COMMENT>  (4727) 
SMILES=C[Si](C)(C)OC(=O)C(O[Si](C)(C)C)C(O[Si](C)(C)C)C(=O)O[Si](C)(C)C
InChI=InChI=1S/C16H38O6Si4/c1-23(2,3)19-13(15(17)21-25(7,8)9)14(20-24(4,5)6)16(18)22-26(10,11)12/h13-14H,1-12H3
computed SMILES=O=C(O[Si](C)(C)C)C(O[Si](C)(C)C)C(O[Si](C)(C)C)C(=O)O[Si](C)(C)C
accession=JP002758
date=2016.01.19 (Created 2008.10.21, modified 2011.05.06)
author=HAYASHI A, DEPT. OF CHEMISTRY, FAC. OF SCI. AND TECHNOLOGY, KINKI UNIV.
license=CC BY-NC-SA
exact mass=438.17455
ionization energy=70 eV
ion type=[M]+*
computed spectral entropy=2.6718617345896507
computed normalized entropy=0.56005834485211
SPLASH=splash10-0006-9000000000-7ac67a17d1194253b98a
submitter=submitter = University of Tokyo Team (Faculty of Engineering, University of Tokyo)
MoNA Rating=3.75

>  <NUM PEAKS>  (4727) 
118

>  <MASS SPECTRAL PEAKS>  (4727) 
40 99.99
41 4.3
42 3.6
43 0.78
44 31.1
45 6.2
46 0.6
47 0.32
48 0.3
50 0.3
51 0.4
52 0.05
53 0.3
54 0.3
55 1.6
56 0.08
57 0.8
58 0.7
59 8.7
60 0.08
61 0.9
65 0.3
66 0.7
67 0.06
69 0.4
70 0.6
71 0.4
72 0.06
73 25.1
74 2.1
75 25.4
76 0.23
77 2.4
78 0.8
79 0.5
81 0.05
82 0.3
83 0.6
84 0.4
85 0.04
87 0.3
89 0.5
91 0.6
93 0.13
94 0.3
95 0.5
97 0.3
101 0.06
102 0.5
103 0.7
104 0.3
105 0.05
107 0.8
108 0.9
109 0.5
115 0.05
116 0.4
117 0.8
118 0.3
119 0.04
121 0.3
122 0.3
128 0.3
129 0.04
130 0.4
131 0.6
132 0.3
133 0.12
134 0.3
135 0.7
141 0.3
143 0.1
145 0.4
147 9.3
148 0.6
149 0.09
151 0.3
156 0.3
165 0.4
171 0.04
175 0.3
177 0.3
178 0.3
189 0.19
190 0.4
191 0.6
204 0.7
205 0.03
207 0.4
217 0.6
218 0.5
219 0.27
220 0.7
221 1
222 0.3
231 0.03
233 0.5
235 0.3
257 0.3
263 0.04
277 0.5
279 0.5
292 3.7
293 0.09
294 0.9
305 0.9
306 0.4
307 0.13
309 1.9
327 0.6
333 0.5
404 0.05
405 0.9
406 0.4
407 0.3
422 0.04
423 0.9
424 0.3

>  <PREDICTED SPECTRUM>  (4727) 
15 7
18 0
41 20
43 93
44 99
45 244
46 30
47 37
54 6
55 86
57 18
58 20
59 103
61 14
66 80
69 32
72 84
73 999
74 326
75 374
76 61
77 0
87 40
91 3
99 5
100 4
101 142
102 128
103 141
104 17
105 54
113 30
114 24
115 98
116 51
117 115
118 14
119 39
129 107
130 84
131 123
132 27
133 219
134 60
135 2
141 46
143 65
145 55
146 30
147 654
148 269
149 231
150 105
151 32
159 90
160 33
161 11
163 39
164 5
165 15
169 42
173 41
174 24
175 92
176 33
177 90
178 52
179 18
189 254
190 181
191 188
192 49
193 64
194 15
203 86
204 166
205 141
206 95
207 32
215 119
216 5
217 338
218 128
219 246
220 252
221 275
222 102
230 58
231 320
232 167
233 159
234 98
235 37
243 75
245 50
247 33
249 27
259 24
261 43
263 36
264 0
265 1
267 13
277 135
278 53
279 32
289 25
290 5
291 95
292 473
293 240
294 179
295 56
303 28
304 27
305 289
306 206
307 182
308 84
309 11
321 162
322 60
323 86
325 16
333 301
334 136
335 218
336 126
337 45
338 3
348 19
349 22
353 24
365 32
368 10
395 55
396 68
397 28
423 230
424 187
425 94
426 66
439 11

$$$$

     RDKit          2D

 21 22  0  0  0  0  0  0  0  0999 V2000
    0.7593   -3.1013    0.0000 C   0  0  0  0  0  0  0  0  0  0  0  0
    2.6506   -4.0620    0.0000 C   0  0  0  0  0  0  0  0  0  0  0  0
    3.6113   -2.1707    0.0000 C   0  0  0  0  0  0  0  0  0  0  0  0
    5.8958    3.2146    0.0000 C   0  0  0  0  0  0  0  0  0  0  0  0
    7.0534    4.9922    0.0000 C   0  0  0  0  0  0  0  0  0  0  0  0
    5.2757    6.1498    0.0000 C   0  0  0  0  0  0  0  0  0  0  0  0
   -2.3100    0.7500    0.0000 C   0  0  0  0  0  0  0  0  0  0  0  0
   -2.3100   -0.7500    0.0000 C   0  0  0  0  0  0  0  0  0  0  0  0
   -1.0100    1.5000    0.0000 C   0  0  0  0  0  0  0  0  0  0  0  0
   -1.0100   -1.5000    0.0000 C   0  0  0  0  0  0  0  0  0  0  0  0
    2.1853    2.6360    0.0000 C   0  0  0  0  0  0  0  0  0  0  0  0
    2.6000   -0.0000    0.0000 C   0  0  0  0  0  0  0  0  0  0  0  0
    1.7200    1.2100    0.0000 C   0  0  0  0  0  0  0  0  0  0  0  0
    0.2900    0.7500    0.0000 C   0  0  0  0  0  0  0  0  0  0  0  0
    0.2900   -0.7500    0.0000 C   0  0  0  0  0  0  0  0  0  0  0  0
    3.6529    2.9461    0.0000 C   0  0  0  0  0  0  0  0  0  0  0  0
    1.7200   -1.2100    0.0000 N   0  0  0  0  0  0  0  0  0  0  0  0
    4.6552    1.8301    0.0000 O   0  0  0  0  0  0  0  0  0  0  0  0
    4.1182    4.3721    0.0000 O   0  0  0  0  0  0  0  0  0  0  0  0
    2.1853   -2.6360    0.0000 Si  0  0  0  0  0  4  0  0  0  0  0  0
    5.5858    4.6822    0.0000 Si  0  0  0  0  0  4  0  0  0  0  0  0
  8  7  2  0
  9  7  1  0
 10  8  1  0
 13 11  1  0
 13 12  2  0
 14  9  2  0
 14 13  1  0
 15 10  2  0
 15 14  1  0
 16 11  1  0
 17 12  1  0
 17 15  1  0
 18 16  2  0
 19 16  1  0
 20  1  1  0
 20  2  1  0
 20  3  1  0
 20 17  1  0
 21  4  1  0
 21  5  1  0
 21  6  1  0
 21 19  1  0
M  END
>  <NAME>  (4728) 
3-INDOLEACETIC ACID-DI-TMS

>  <SYNONYMS>  (4728) 


>  <SPECTRUM TYPE>  (4728) 
MS1

>  <INSTRUMENT TYPE>  (4728) 
EI-B

>  <INSTRUMENT>  (4728) 
SHIMADZU LKB-9000B

>  <ION MODE>  (4728) 
P

>  <INCHIKEY>  (4728) 
WKJCHYMUOINQGJ-UHFFFAOYSA-N

>  <FORMULA>  (4728) 
C16H25NO2Si2

>  <EXACT MASS>  (4728) 
319.1423821

>  <MW>  (4728) 
319

>  <ID>  (4728) 
JP002757

>  <CONTRIBUTOR>  (4728) 
University of Tokyo Team, {Faculty of Engineering, University of Tokyo

>  <COMMENT>  (4728) 
SMILES=O=C(O[Si](C)(C)C)Cc(c1)c(c2)c(ccc2)n1[Si](C)(C)C
InChI=InChI=1S/C16H25NO2Si2/c1-20(2,3)17-12-13(11-16(18)19-21(4,5)6)14-9-7-8-10-15(14)17/h7-10,12H,11H2,1-6H3
computed SMILES=O=C(O[Si](C)(C)C)CC1=CN(C=2C=CC=CC21)[Si](C)(C)C
accession=JP002757
date=2016.01.19 (Created 2008.10.21, modified 2011.05.06)
author=HAYASHI A, DEPT. OF CHEMISTRY, FAC. OF SCI. AND TECHNOLOGY, KINKI UNIV.
license=CC BY-NC-SA
exact mass=319.14238
ionization energy=70 eV
ion type=[M]+*
computed spectral entropy=3.294030101596402
computed normalized entropy=0.651477445600469
SPLASH=splash10-053r-9720000000-3529898bdf5778666793
submitter=submitter = University of Tokyo Team (Faculty of Engineering, University of Tokyo)
MoNA Rating=3.75

>  <NUM PEAKS>  (4728) 
157

>  <MASS SPECTRAL PEAKS>  (4728) 
41 5.1
42 2.6
43 0.71
44 22.6
45 8
46 0.6
47 0.41
49 0.4
50 1.9
51 3.6
52 0.15
53 0.8
54 0.6
55 2.9
56 91.5
57 0.3
58 1.2
59 5.6
60 0.9
61 0.15
62 0.8
63 1.8
64 0.5
65 0.14
66 0.4
67 0.9
68 0.4
69 0.13
70 1
71 1
72 1.2
73 5.54
74 5.6
75 27.8
76 5.2
77 1.08
78 1.7
79 1.3
80 0.3
81 0.05
82 0.5
83 0.9
84 1.4
85 0.08
87 0.4
89 0.9
90 0.9
91 0.12
93 1.6
94 0.5
95 0.9
96 0.03
97 0.9
98 0.5
99 0.5
100 0.03
101 2
102 6.3
103 7.2
104 0.16
105 1.3
106 0.5
107 1
108 0.06
109 0.6
111 0.5
115 1
116 0.34
117 3.2
118 0.5
119 0.5
120 0.03
121 0.5
122 0.3
123 0.3
126 0.03
127 0.3
128 4.3
129 10.3
130 99.99
131 11.1
132 1.7
133 0.7
134 0.03
135 1.1
137 0.4
141 0.4
142 0.04
143 0.6
144 1.4
145 1.7
146 0.03
147 1.3
148 0.4
149 13.1
150 0.1
151 0.3
152 0.3
156 0.8
157 0.14
158 0.4
159 0.3
160 0.4
165 0.03
167 0.6
169 0.4
170 0.3
172 0.07
173 0.3
175 0.7
176 0.7
178 0.03
179 1.5
180 0.4
181 0.2
184 0.04
186 1.9
187 0.6
188 4.4
189 0.11
190 0.3
191 0.3
193 0.4
200 0.03
201 0.4
202 4.8
203 7
204 0.46
205 1.4
206 0.5
207 0.6
211 0.03
217 0.5
218 0.7
219 1
220 0.06
223 0.7
230 0.8
231 0.4
232 0.93
233 1.8
234 0.6
245 0.7
246 0.05
247 27.8
248 5.1
249 1.5
250 0.03
262 0.3
267 0.6
281 0.4
307 0.04
309 0.8
313 0.4
315 0.9
316 0.03
319 0.4

>  <PREDICTED SPECTRUM>  (4728) 
27 44
28 15
29 13
31 47
38 1
39 91
40 34
41 56
42 67
43 95
44 169
45 327
46 47
47 170
48 12
49 20
50 51
51 105
52 73
53 47
54 17
55 95
56 61
57 66
58 90
59 134
60 35
61 90
62 43
63 61
64 30
65 40
66 28
67 33
68 44
69 85
70 105
71 81
72 97
73 999
74 285
75 386
76 122
77 225
78 60
79 4
80 26
81 29
83 37
84 62
85 4
86 79
87 53
88 58
89 59
90 8
91 63
93 48
95 54
97 38
98 20
99 87
100 35
101 108
102 161
103 145
104 114
105 35
106 25
112 24
114 39
115 74
116 64
117 139
118 115
119 66
120 40
121 14
127 47
128 166
129 126
130 230
131 162
132 71
133 35
134 22
137 44
140 2
141 34
142 48
143 80
144 147
145 122
146 39
147 199
148 129
149 81
150 7
151 5
153 28
154 39
155 18
156 138
157 119
158 116
159 109
160 59
166 6
168 7
170 80
171 40
172 128
173 110
174 106
175 50
176 38
177 22
179 25
186 165
187 125
188 113
189 43
190 12
192 28
200 133
201 141
202 736
203 407
204 254
205 65
214 21
216 31
220 10
222 0
228 15
229 107
230 32
231 41
232 95
233 36
244 23
245 56
246 6
247 34
248 9
260 70
261 18
274 86
276 125
304 156
305 79
306 28
307 3
316 12
318 81
319 472
320 238
321 125
322 46

$$$$

     RDKit          2D

 26 25  0  0  0  0  0  0  0  0999 V2000
   -1.3522    2.7200    0.0000 C   0  0  0  0  0  0  0  0  0  0  0  0
    0.1478    5.3181    0.0000 C   0  0  0  0  0  0  0  0  0  0  0  0
   -1.9012    4.7691    0.0000 C   0  0  0  0  0  0  0  0  0  0  0  0
    1.2459    2.3181    0.0000 C   0  0  0  0  0  0  0  0  0  0  0  0
    0.6968    0.2691    0.0000 C   0  0  0  0  0  0  0  0  0  0  0  0
    2.7459   -0.2800    0.0000 C   0  0  0  0  0  0  0  0  0  0  0  0
   10.5401    2.7200    0.0000 C   0  0  0  0  0  0  0  0  0  0  0  0
   11.0891    4.7691    0.0000 C   0  0  0  0  0  0  0  0  0  0  0  0
    9.0401    5.3181    0.0000 C   0  0  0  0  0  0  0  0  0  0  0  0
    8.1504    6.0646    0.0000 C   0  0  0  0  0  0  0  0  0  0  0  0
    7.2539    7.9872    0.0000 C   0  0  0  0  0  0  0  0  0  0  0  0
    5.3313    7.0907    0.0000 C   0  0  0  0  0  0  0  0  0  0  0  0
    4.5940    4.0191    0.0000 C   0  0  0  0  0  0  0  0  0  0  0  0
    1.9959    4.0191    0.0000 C   0  0  0  0  0  0  0  0  0  0  0  0
    3.2949    3.2691    0.0000 C   0  0  0  0  0  0  0  0  0  0  0  0
    8.1562    5.1681    0.0000 O   0  0  0  0  0  0  0  0  0  0  0  0
    5.8930    3.2691    0.0000 O   0  0  0  0  0  0  0  0  0  0  0  0
    0.6968    3.2691    0.0000 O   0  0  0  0  0  0  0  0  0  0  0  0
    3.2949    1.7691    0.0000 O   0  0  0  0  0  0  0  0  0  0  0  0
    8.4911    3.2691    0.0000 O   0  0  0  0  0  0  0  0  0  0  0  0
    6.2278    5.1681    0.0000 O   0  0  0  0  0  0  0  0  0  0  0  0
    7.1920    4.0191    0.0000 P   0  0  0  0  0  0  0  0  0  0  0  0
   -0.6022    4.0191    0.0000 Si  0  0  0  0  0  4  0  0  0  0  0  0
    1.9959    1.0191    0.0000 Si  0  0  0  0  0  4  0  0  0  0  0  0
    9.7901    4.0191    0.0000 Si  0  0  0  0  0  4  0  0  0  0  0  0
    6.7409    6.5777    0.0000 Si  0  0  0  0  0  4  0  0  0  0  0  0
 15 13  1  0
 15 14  1  0
 17 13  1  0
 18 14  1  0
 19 15  1  0
 22 16  2  0
 22 17  1  0
 22 20  1  0
 22 21  1  0
 23  1  1  0
 23  2  1  0
 23  3  1  0
 23 18  1  0
 24  4  1  0
 24  5  1  0
 24  6  1  0
 24 19  1  0
 25  7  1  0
 25  8  1  0
 25  9  1  0
 25 20  1  0
 26 10  1  0
 26 11  1  0
 26 12  1  0
 26 21  1  0
M  END
>  <NAME>  (4729) 
GLYCEROPHOSPHORIC ACID-TETRA-TMS

>  <SYNONYMS>  (4729) 


>  <SPECTRUM TYPE>  (4729) 
MS1

>  <INSTRUMENT TYPE>  (4729) 
EI-B

>  <INSTRUMENT>  (4729) 
SHIMADZU LKB-9000B

>  <ION MODE>  (4729) 
P

>  <INCHIKEY>  (4729) 
OSNKBCBCOYHYNF-UHFFFAOYSA-N

>  <FORMULA>  (4729) 
C15H41O6PSi4

>  <EXACT MASS>  (4729) 
460.171781782

>  <MW>  (4729) 
460

>  <ID>  (4729) 
JP002756

>  <CONTRIBUTOR>  (4729) 
University of Tokyo Team, {Faculty of Engineering, University of Tokyo

>  <COMMENT>  (4729) 
SMILES=C[Si](C)(C)OCC(O[Si](C)(C)C)COP(=O)(O[Si](C)(C)C)O[Si](C)(C)C
InChI=InChI=1S/C15H41O6PSi4/c1-23(2,3)18-14-15(19-24(4,5)6)13-17-22(16,20-25(7,8)9)21-26(10,11)12/h15H,13-14H2,1-12H3
computed SMILES=O=P(OCC(O[Si](C)(C)C)CO[Si](C)(C)C)(O[Si](C)(C)C)O[Si](C)(C)C
accession=JP002756
date=2016.01.19 (Created 2008.10.21, modified 2011.05.06)
author=HAYASHI A, DEPT. OF CHEMISTRY, FAC. OF SCI. AND TECHNOLOGY, KINKI UNIV.
license=CC BY-NC-SA
exact mass=460.17178
ionization energy=70 eV
ion type=[M]+*
computed spectral entropy=2.948048671609285
computed normalized entropy=0.5830509008266468
SPLASH=splash10-0002-3911000000-d356ac85e3fd86196a64
submitter=submitter = University of Tokyo Team (Faculty of Engineering, University of Tokyo)
MoNA Rating=3.75

>  <NUM PEAKS>  (4729) 
157

>  <MASS SPECTRAL PEAKS>  (4729) 
41 7.7
42 0.5
43 1.4
44 1
45 1.6
46 0.1
47 0.4
50 0.11
51 0.6
52 0.1
53 0.3
54 0.02
55 1.7
56 4.1
57 4.8
58 0.03
59 2.3
60 0.2
61 0.3
63 0.01
65 2.7
66 0.3
69 0.2
70 0.01
71 0.3
72 0.3
73 13.8
74 0.12
75 4.2
76 3.8
77 1.4
78 0.01
79 0.1
81 0.1
83 0.1
84 0.03
85 0.2
88 0.1
89 0.2
91 0.02
92 0.1
93 2.5
94 0.2
96 0.03
98 0.3
99 0.1
101 2.3
102 0.03
103 2.1
104 4.1
105 2.2
106 0.03
107 0.1
111 0.1
113 0.4
115 0.03
116 0.6
117 0.6
118 0.1
119 0.02
120 0.1
121 2.1
122 1.4
123 0.08
128 0.1
129 1.6
130 0.3
131 0.13
132 0.7
133 1.4
134 0.2
135 0.07
136 0.1
145 0.3
147 3.5
148 0.09
149 99.99
150 9.3
151 1
152 0.01
160 0.4
161 0.1
163 0.1
167 0.04
177 0.1
178 0.1
189 0.1
191 0.02
193 0.2
195 0.2
196 0.1
197 0.01
203 0.3
204 0.1
205 4.3
206 0.07
207 0.6
208 0.1
211 1.5
212 0.02
213 0.1
217 0.1
218 0.7
219 0.04
220 0.1
221 0.2
223 5
224 0.06
225 0.4
226 0.1
227 0.7
228 0.01
243 0.4
256 0.8
257 0.2
267 0.01
269 0.1
278 0.5
279 0.1
281 0.01
283 0.2
284 0.1
285 0.5
286 0.1
298 0.2
299 7.4
300 1.7
301 0.09
302 0.1
307 0.1
308 0.1
313 0.01
314 0.5
315 1.6
316 0.4
317 0.02
327 0.1
328 0.5
329 0.1
342 0.01
355 0.1
356 0.3
357 6.4
358 0.17
359 0.8
360 0.1
370 1.3
371 0.03
372 0.2
373 0.3
387 0.6
388 0.02
389 0.2
415 0.1
444 1.4
445 0.03
446 0.5

>  <PREDICTED SPECTRUM>  (4729) 
39 136
41 99
42 21
43 109
44 71
45 281
46 76
47 142
52 10
53 33
54 53
55 154
56 45
57 62
58 138
59 283
60 19
61 129
66 84
67 4
68 3
69 0
71 118
72 164
73 999
74 284
75 369
76 68
77 117
78 2
81 15
83 50
85 102
86 67
87 87
88 48
89 110
91 80
93 24
95 39
97 61
98 17
99 79
100 87
101 300
102 169
103 294
104 69
105 21
113 136
114 44
115 222
116 157
117 203
118 0
119 74
121 14
123 9
128 68
129 409
130 179
131 222
132 17
133 262
134 134
135 187
137 62
142 79
143 113
144 33
145 163
146 9
147 365
148 149
149 157
150 45
151 112
153 13
157 29
158 33
159 74
161 76
163 30
167 5
171 31
175 96
177 111
181 41
183 27
184 1
186 2
189 23
191 81
192 22
193 106
195 164
196 10
197 106
198 40
201 93
202 7
203 152
204 64
205 192
206 64
207 205
208 48
209 61
210 23
211 402
212 202
213 144
214 51
215 150
216 42
217 430
218 389
219 345
220 187
221 95
225 188
226 169
227 271
228 166
229 25
230 10
240 31
241 117
242 116
243 182
244 73
245 10
256 21
257 86
265 10
267 23
271 29
283 209
284 64
285 211
286 128
287 19
298 206
299 951
300 502
301 428
302 134
303 120
313 144
314 238
315 717
316 392
317 237
318 141
327 10
328 233
329 144
330 179
331 67
341 249
342 84
345 37
355 118
356 53
357 957
358 519
359 348
360 144
370 109
371 69
372 91
373 206
374 133
375 56
387 177
388 46
389 113
390 31
415 57
416 41
417 45
430 9
431 95
444 27
445 544
446 270
447 94
460 46
461 75
462 68

$$$$

     RDKit          2D

 28 31  0  0  1  0  0  0  0  0999 V2000
    4.9505    4.6491    0.0000 C   0  0  0  0  0  0  0  0  0  0  0  0
   -1.6800    1.1900    0.0000 C   0  0  0  0  0  0  0  0  0  0  0  0
    2.3787    3.4316    0.0000 C   0  0  0  0  0  0  0  0  0  0  0  0
    8.8462    2.3966    0.0000 C   0  0  0  0  0  0  0  0  0  0  0  0
   -6.8776   -4.8104    0.0000 C   0  0  0  0  0  0  0  0  0  0  0  0
   -0.3800   -2.5600    0.0000 C   0  0  0  0  0  0  0  0  0  0  0  0
    0.9200   -1.8100    0.0000 C   0  0  0  0  0  0  0  0  0  0  0  0
   -4.2800   -0.3100    0.0000 C   0  0  0  0  0  0  0  0  0  0  0  0
   -0.3800    1.9400    0.0000 C   0  0  0  0  0  0  0  0  0  0  0  0
    3.6500   -0.0200    0.0000 C   0  0  0  0  0  0  0  0  0  0  0  0
   -2.9800    0.4400    0.0000 C   0  0  0  0  0  0  0  0  0  0  0  0
    0.9200    2.6900    0.0000 C   0  0  0  0  0  0  0  0  0  0  0  0
    4.5300    1.1900    0.0000 C   0  0  0  0  0  0  0  0  0  0  0  0
   -2.9800   -2.5600    0.0000 C   0  0  0  0  0  0  0  0  0  0  0  0
    4.9495    3.1491    0.0000 C   0  0  0  0  0  0  0  0  0  0  0  0
   -1.6800   -1.8100    0.0000 C   0  0  0  0  0  0  0  0  0  0  0  0
   -4.2800   -1.8100    0.0000 C   0  0  0  0  0  0  0  0  0  0  0  0
    0.9200   -0.3100    0.0000 C   0  0  0  0  0  0  0  0  0  0  0  0
   -0.3800    0.4400    0.0000 C   0  0  0  0  0  0  0  0  0  0  0  0
    2.2200    0.4400    0.0000 C   0  0  0  0  0  0  0  0  0  0  0  0
   -1.6800   -0.3100    0.0000 C   0  0  0  0  0  0  0  0  0  0  0  0
    2.2200    1.9400    0.0000 C   0  0  0  0  0  0  0  0  0  0  0  0
    3.6500    2.4000    0.0000 C   0  0  0  0  0  0  0  0  0  0  0  0
    6.2481    2.3983    0.0000 N   0  0  0  0  0  0  0  0  0  0  0  0
   -5.5789   -2.5602    0.0000 N   0  0  0  0  0  0  0  0  0  0  0  0
    3.6962    0.9007    0.0000 O   0  0  0  0  0  0  0  0  0  0  0  0
    7.5476    3.1474    0.0000 O   0  0  0  0  0  0  0  0  0  0  0  0
   -5.5787   -4.0602    0.0000 O   0  0  0  0  0  0  0  0  0  0  0  0
  7  6  1  0
 11  8  1  0
 12  9  1  0
 13 10  1  0
 15  1  1  0
 16  6  1  0
 16 14  2  0
 17  8  1  0
 17 14  1  0
 18  7  1  6
 19  9  1  1
 19 18  1  0
 20 10  1  1
 20 18  1  0
 21  2  1  1
 21 11  1  0
 21 16  1  0
 21 19  1  0
 22  3  1  1
 22 12  1  0
 22 20  1  0
 23 13  1  0
 23 15  1  0
 23 22  1  0
 15 24  2  0
 17 25  2  0
 23 26  1  6
 27  4  1  0
 27 24  1  0
 28  5  1  0
 28 25  1  0
M  END
>  <NAME>  (4730) 
17ALPHA-HYDROXYPROGESTERONE 3,20-BIS(O-METHYLOXIME)

>  <SYNONYMS>  (4730) 


>  <SPECTRUM TYPE>  (4730) 
MS1

>  <INSTRUMENT TYPE>  (4730) 
EI-B

>  <INSTRUMENT>  (4730) 
SHIMADZU LKB-9000B

>  <ION MODE>  (4730) 
P

>  <INCHIKEY>  (4730) 
FTLBXAHUQAJCNR-QGMZBMPISA-N

>  <FORMULA>  (4730) 
C23H36N2O3

>  <EXACT MASS>  (4730) 
388.27259301199996

>  <MW>  (4730) 
388

>  <ID>  (4730) 
JP002755

>  <CONTRIBUTOR>  (4730) 
University of Tokyo Team, {Faculty of Engineering, University of Tokyo

>  <COMMENT>  (4730) 
SMILES=CON=C(C4)C([H])=C(C3)C(C)(C4)C([H])(C2)C([H])(C3)C([H])(C1)C(C)(C2)C(O)(C(C)=NOC)C1
InChI=InChI=1S/C23H36N2O3/c1-15(24-27-4)23(26)13-10-20-18-7-6-16-14-17(25-28-5)8-11-21(16,2)19(18)9-12-22(20,23)3/h14,18-20,26H,6-13H2,1-5H3/b24-15+,25-17-/t18-,19+,20+,21+,22+,23+/m1/s1
computed SMILES=OC1(C(=NOC)C)CCC2C3CCC4=CC(=NOC)CCC4(C)C3CCC21C
accession=JP002755
date=2016.01.19 (Created 2008.10.21, modified 2011.05.06)
author=HAYASHI A, DEPT. OF CHEMISTRY, FAC. OF SCI. AND TECHNOLOGY, KINKI UNIV.
license=CC BY-NC-SA
exact mass=388.27259
ionization energy=70 eV
ion type=[M]+*
computed spectral entropy=5.038604512214637
computed normalized entropy=0.8959083976305815
SPLASH=splash10-0adi-3931000000-6dc28acca33c6f110277
submitter=submitter = University of Tokyo Team (Faculty of Engineering, University of Tokyo)
MoNA Rating=3.75

>  <NUM PEAKS>  (4730) 
277

>  <MASS SPECTRAL PEAKS>  (4730) 
50 8
51 16.9
52 12.2
53 4.01
54 18.3
55 57.1
56 10.5
57 0.73
58 5.3
59 4.2
62 2.7
63 0.85
64 2.9
65 20.5
66 14.8
67 4.74
68 5.6
69 12.6
70 10.1
71 0.88
72 7.4
73 11.2
74 2.6
75 0.52
76 3.6
77 64.5
78 41.8
79 7.33
80 20.2
81 37.8
82 12.7
83 0.62
84 5.2
85 6.6
86 6.3
87 0.09
88 2.8
89 9.6
90 3.1
91 9.3
92 25.8
93 56.8
94 23.5
95 2.59
96 8.5
97 16.3
98 4.9
99 0.33
100 4.7
101 3.3
102 6.9
103 1.49
104 18.1
105 59.5
106 31
107 4.4
108 39.1
109 15.5
110 11.4
111 0.79
112 7.7
113 4.4
114 3.3
115 2.17
116 20.3
117 32.4
118 22.9
119 4.18
120 46.9
121 64.8
122 30.2
123 4.08
124 7.5
125 99.99
126 12.4
127 0.72
128 19.9
129 23.2
130 21.6
131 3.12
132 19.8
133 25.3
134 17.9
135 2.74
136 19.4
137 67.7
138 22.1
139 0.77
140 5.8
141 14.7
142 12.9
143 2.03
144 24.7
145 23
146 24.5
147 1.61
148 11.2
149 19.4
150 8.3
151 4.96
152 23.7
153 45.8
154 13.4
155 1.39
156 13.9
157 20.5
158 19.7
159 1.89
160 16.3
161 7.9
162 6.6
163 0.6
164 10.1
165 13.7
166 9.2
167 0.94
168 7.1
169 12.2
170 16.2
171 1.48
172 15.1
173 7.9
174 12.7
175 0.55
176 6.1
177 5.5
178 8.6
179 0.57
180 5.7
181 6.7
182 5.9
183 1.2
184 12.7
185 9.7
186 11.1
187 0.8
188 6.6
189 5.5
190 6.3
191 0.24
192 4.2
193 7.1
194 6.5
195 0.72
196 9.1
197 4.7
198 9.3
199 0.79
200 4.9
201 4.4
202 5.6
203 0.34
204 6.1
205 4.4
206 5
207 0.59
208 5.3
209 9.7
210 9.8
211 1.12
212 10.1
213 6.1
214 5.4
215 0.37
216 5.5
217 5
218 7.2
219 0.19
220 5
221 5.6
222 6.8
223 0.63
224 12
225 9.6
226 14.5
227 1.03
228 5.3
229 4.9
230 4.6
231 0.29
232 2.9
233 3.7
234 2.9
235 0.39
236 4.9
237 3.7
238 7.9
239 0.42
240 10.9
241 5.7
242 8.1
243 0.47
244 3.8
245 3.3
246 3.1
248 0.32
249 5.5
250 6.5
251 5.8
252 0.67
253 5.7
254 5.8
255 8.3
256 0.77
257 4.5
258 6.8
259 5.3
260 0.36
261 3
263 3.3
264 3.3
265 0.6
266 11.4
267 8.4
268 16.2
269 0.54
270 11.4
271 4.7
272 7.1
273 0.48
274 4.4
275 3.3
277 3.1
278 0.29
279 4.6
280 4.1
281 13.7
282 0.97
283 31.9
284 35.5
285 33.7
286 0.39
287 4.7
290 3.3
291 3.3
292 0.45
293 3.4
294 4.1
295 3.1
297 0.39
298 4.6
299 3.4
300 14.2
301 0.31
307 3.9
308 4.2
309 3.3
310 0.28
311 3.6
313 6.5
314 4.6
315 8.75
316 22.3
317 3.4
323 2.8
324 0.31
325 5.6
326 2.9
327 3.4
328 0.29
329 4.5
337 2.8
339 6.7
340 0.25
341 4.5
354 3.3
355 8.8
356 0.7
357 48.5
358 14.2
359 3.6
370 1.53
371 6.4
386 3.9
387 4.5
388 0.89
389 2.7

>  <PREDICTED SPECTRUM>  (4730) 
15 48
16 7
17 5
19 14
26 32
27 97
28 130
29 165
30 59
31 141
32 57
33 4
39 65
40 53
41 331
42 240
43 181
44 157
45 108
46 19
47 13
48 4
50 38
51 75
52 43
53 188
54 132
55 261
56 156
57 108
58 100
59 36
60 45
63 1
65 173
66 91
67 252
68 116
69 113
70 204
71 82
72 69
73 47
74 19
75 4
77 298
78 151
79 412
80 188
81 305
82 143
83 104
84 159
85 59
86 149
87 132
88 12
89 23
91 441
92 213
93 329
94 236
95 195
96 131
97 104
98 79
99 81
100 161
101 18
102 45
103 135
104 122
105 331
106 238
107 281
108 254
109 167
110 116
111 105
112 128
113 54
114 52
115 182
116 230
117 268
118 166
119 326
120 309
121 263
122 283
123 147
124 108
125 479
126 245
127 81
128 178
129 207
130 232
131 346
132 254
133 213
134 218
135 191
136 231
137 341
138 205
139 144
140 110
141 168
142 104
143 226
144 193
145 339
146 255
147 173
148 121
149 104
150 125
151 386
152 291
153 324
154 121
155 190
156 172
157 209
158 199
159 213
160 233
161 99
162 100
163 31
164 115
165 121
166 131
167 90
168 103
169 126
170 168
171 147
172 226
173 135
174 145
175 73
176 117
177 5
178 94
179 67
180 48
181 84
182 131
183 96
184 161
185 163
186 157
187 110
188 102
189 102
190 113
191 94
192 93
193 86
194 40
195 85
196 112
197 160
198 121
199 140
200 96
201 107
202 112
203 74
204 62
205 77
206 54
207 50
208 40
209 78
210 91
211 120
212 136
213 72
214 111
215 50
216 69
217 47
218 70
219 25
220 41
221 97
222 67
223 108
224 167
225 169
226 203
227 138
228 91
229 18
230 52
231 4
233 11
234 14
235 51
236 81
237 49
238 145
239 122
240 161
241 101
242 105
243 79
244 36
247 26
248 68
249 82
250 109
251 133
252 124
253 94
254 100
255 43
256 132
257 121
258 105
259 65
260 26
261 29
262 28
263 31
264 43
265 52
266 121
267 74
268 47
269 56
270 96
271 139
272 123
273 89
274 67
275 9
276 67
277 59
278 46
279 95
280 13
281 52
282 62
283 62
284 152
285 83
286 86
287 91
288 61
289 41
290 85
291 28
292 1
293 63
294 101
295 114
296 107
297 85
298 113
299 76
300 127
301 14
302 83
306 29
307 181
308 147
309 152
310 88
311 119
312 15
313 95
314 110
315 89
316 60
317 115
321 60
322 98
323 43
324 28
325 143
326 187
327 158
328 86
329 105
330 39
331 13
337 58
338 34
339 277
340 170
341 7
342 62
343 24
355 158
356 3
357 999
358 501
359 173
360 71
369 6
370 175
371 113
373 75
384 53
388 444
389 219
390 99

$$$$

     RDKit          2D

 34 37  0  0  1  0  0  0  0  0999 V2000
    9.5655    7.2342    0.0000 C   0  0  0  0  0  0  0  0  0  0  0  0
   10.0746    4.6865    0.0000 C   0  0  0  0  0  0  0  0  0  0  0  0
    8.1228    2.9718    0.0000 C   0  0  0  0  0  0  0  0  0  0  0  0
    3.2009    4.6377    0.0000 C   0  0  0  0  0  0  0  0  0  0  0  0
   -1.6125    0.9400    0.0000 C   0  0  0  0  0  0  0  0  0  0  0  0
    2.4507    3.1203    0.0000 C   0  0  0  0  0  0  0  0  0  0  0  0
   -6.0504   -0.7943    0.0000 C   0  0  0  0  0  0  0  0  0  0  0  0
   -8.0985   -1.3471    0.0000 C   0  0  0  0  0  0  0  0  0  0  0  0
   -7.5457   -3.3951    0.0000 C   0  0  0  0  0  0  0  0  0  0  0  0
    8.0946    6.9403    0.0000 C   0  0  0  0  0  0  0  0  0  0  0  0
    5.6618    3.8047    0.0000 C   0  0  0  0  0  0  0  0  0  0  0  0
    6.1427    5.2256    0.0000 C   0  0  0  0  0  0  0  0  0  0  0  0
   -0.3200   -2.8400    0.0000 C   0  0  0  0  0  0  0  0  0  0  0  0
    1.0100   -2.0900    0.0000 C   0  0  0  0  0  0  0  0  0  0  0  0
    4.5500    0.8800    0.0000 C   0  0  0  0  0  0  0  0  0  0  0  0
    3.7100   -0.3100    0.0000 C   0  0  0  0  0  0  0  0  0  0  0  0
   -4.2000   -0.5600    0.0000 C   0  0  0  0  0  0  0  0  0  0  0  0
   -0.3200    1.6300    0.0000 C   0  0  0  0  0  0  0  0  0  0  0  0
   -2.8900    0.1600    0.0000 C   0  0  0  0  0  0  0  0  0  0  0  0
    1.0100    2.3900    0.0000 C   0  0  0  0  0  0  0  0  0  0  0  0
   -2.8900   -2.8400    0.0000 C   0  0  0  0  0  0  0  0  0  0  0  0
    8.6037    4.3926    0.0000 C   0  0  0  0  0  0  0  0  0  0  0  0
    4.1909    3.5108    0.0000 C   0  0  0  0  0  0  0  0  0  0  0  0
    7.6137    5.5195    0.0000 C   0  0  0  0  0  0  0  0  0  0  0  0
   -1.6200   -2.0900    0.0000 C   0  0  0  0  0  0  0  0  0  0  0  0
   -4.2000   -2.0900    0.0000 C   0  0  0  0  0  0  0  0  0  0  0  0
    1.0100   -0.5600    0.0000 C   0  0  0  0  0  0  0  0  0  0  0  0
    3.7100    2.0900    0.0000 C   0  0  0  0  0  0  0  0  0  0  0  0
    2.2800    0.1600    0.0000 C   0  0  0  0  0  0  0  0  0  0  0  0
   -0.3200    0.1600    0.0000 C   0  0  0  0  0  0  0  0  0  0  0  0
   -1.6200   -0.5600    0.0000 C   0  0  0  0  0  0  0  0  0  0  0  0
    2.2800    1.6300    0.0000 C   0  0  0  0  0  0  0  0  0  0  0  0
   -5.4977   -2.8424    0.0000 O   0  0  0  0  0  0  0  0  0  0  0  0
   -6.7981   -2.0947    0.0000 Si  0  0  0  0  0  4  0  0  0  0  0  0
 10  1  1  0
 12 11  1  0
 14 13  1  0
 16 15  1  0
 19 17  1  0
 20 18  1  0
 22  2  1  0
 22  3  1  0
 23  4  1  6
 23 11  1  0
 24 10  1  1
 24 12  1  0
 24 22  1  0
 25 13  2  0
 25 21  1  0
 26 17  1  0
 26 21  1  0
 27 14  1  6
 28 15  1  1
 28 23  1  0
 29 16  1  1
 29 27  1  0
 30 18  1  1
 30 27  1  0
 31  5  1  1
 31 19  1  0
 31 25  1  0
 31 30  1  0
 32  6  1  1
 32 20  1  0
 32 28  1  0
 32 29  1  0
 33 26  1  0
 34  7  1  0
 34  8  1  0
 34  9  1  0
 34 33  1  0
M  END
>  <NAME>  (4731) 
TRIMETHYLSILYL BETA-SITOSTEROL

>  <SYNONYMS>  (4731) 


>  <SPECTRUM TYPE>  (4731) 
MS1

>  <INSTRUMENT TYPE>  (4731) 
EI-B

>  <INSTRUMENT>  (4731) 
SHIMADZU LKB-9000B

>  <ION MODE>  (4731) 
P

>  <INCHIKEY>  (4731) 
XEWVATFZTBNDCF-JVZNPHIBSA-N

>  <FORMULA>  (4731) 
C32H58OSi

>  <EXACT MASS>  (4731) 
486.42569300599996

>  <MW>  (4731) 
486

>  <ID>  (4731) 
JP002754

>  <CONTRIBUTOR>  (4731) 
University of Tokyo Team, {Faculty of Engineering, University of Tokyo

>  <COMMENT>  (4731) 
SMILES=C(C([H])41)(CCC([H])(C([H])42)C(C)(C3)C(CC(C3)O[Si](C)(C)C)=CC2)(C)C(CC1)C(CCC([H])(C(C)C)CC)C
InChI=InChI=1S/C32H58OSi/c1-10-24(22(2)3)12-11-23(4)28-15-16-29-27-14-13-25-21-26(33-34(7,8)9)17-19-31(25,5)30(27)18-20-32(28,29)6/h13,22-24,26-30H,10-12,14-21H2,1-9H3/t23-,24-,26?,27+,28-,29+,30+,31+,32-/m1/s1
computed SMILES=O(C1CC2=CCC3C(CCC4(C)C(CCC34)C(C)CCC(CC)C(C)C)C2(C)CC1)[Si](C)(C)C
accession=JP002754
date=2016.01.19 (Created 2008.10.21, modified 2011.05.06)
author=HAYASHI A, DEPT. OF CHEMISTRY, FAC. OF SCI. AND TECHNOLOGY, KINKI UNIV.
license=CC BY-NC-SA
exact mass=486.42569
ionization energy=70 eV
ion type=[M]+*
computed spectral entropy=4.7371690011979375
computed normalized entropy=0.8478536200596255
SPLASH=splash10-0a4j-1935000000-55f0a56c7e8574952233
submitter=submitter = University of Tokyo Team (Faculty of Engineering, University of Tokyo)
MoNA Rating=3.75

>  <NUM PEAKS>  (4731) 
267

>  <MASS SPECTRAL PEAKS>  (4731) 
55 2.8
57 3.5
67 3.5
69 0.65
71 4.7
73 11.4
74 1.3
75 2.04
76 2.1
77 2.6
79 5.3
80 0.1
81 15.2
82 1.5
83 6.2
84 0.1
85 9.7
89 1.1
91 9.6
92 0.33
93 12
94 3.6
95 21.5
96 0.22
97 7.9
98 1
99 3.1
101 0.19
103 2
104 1.8
105 17.9
106 0.78
107 27.2
108 7
109 17.7
110 0.29
111 9.1
112 1.1
113 1.2
115 0.31
116 2
117 7.2
118 4.3
119 2.1
120 14.6
121 29.3
122 5.8
123 1.13
124 1.7
125 4.6
127 1.7
128 0.26
129 77.4
130 13.2
131 18.7
132 0.59
133 21.8
134 7.1
135 18.9
136 0.5
137 7.4
138 1.3
139 2.8
141 0.44
142 6.8
143 17.3
144 6.6
145 3.4
146 11.1
147 26.7
148 9.6
149 1.3
150 2.6
151 4.4
152 1.2
153 0.17
154 1.1
155 9.7
156 4.2
157 0.87
158 7.3
159 26
160 17
161 2.37
162 6.1
163 16.5
164 2.9
165 0.41
166 1.6
167 1.9
168 1.9
169 0.38
170 1.8
171 7
172 3.5
173 1.3
174 5.4
175 10.7
176 2.9
177 0.9
178 2.5
179 3.4
180 1.4
181 0.36
182 2.1
183 3.7
184 1.4
185 0.69
186 2.8
187 6.2
188 2.6
189 0.87
190 2.9
191 5.4
192 1.5
193 0.27
194 1.3
195 3.1
196 4
197 0.46
198 1.9
199 8.5
200 3.5
201 1.01
202 3.2
203 8.9
204 2.2
205 0.33
206 1.1
207 1.7
208 1.4
209 0.28
210 1.3
211 3.2
212 1.8
213 1.91
214 6.8
215 23.1
216 11.4
217 1.59
218 3.6
219 2.9
220 1.3
221 0.38
222 1.4
223 1
224 1.1
225 0.12
227 4.6
228 5.6
229 6.4
230 0.51
231 4.3
232 1.2
233 3.3
234 0.28
235 4.1
236 1.1
237 2.4
238 0.12
239 2.1
241 3.6
242 1.3
243 0.2
244 1
245 3.4
246 1.3
247 0.54
248 1.5
249 1.7
250 1.2
251 0.17
252 1
253 4.5
254 2.2
255 2.86
256 6.4
257 4.7
258 1.3
259 0.42
260 1.3
261 4.5
262 1.2
263 0.1
269 1.5
271 1.5
273 3.7
274 0.4
275 22.8
276 5.1
277 1.2
281 0.12
283 4.1
284 1.4
285 1.8
287 0.43
288 5
289 3
290 2.4
291 0.16
301 2.3
302 3.3
303 8.4
304 0.26
305 5.9
306 3.4
307 1.3
313 0.12
315 1.8
316 1
317 1.4
320 0.15
327 1.4
328 1.2
329 5.6
330 0.15
331 1.1
339 2
340 1.1
341 0.21
342 3.1
343 2.3
344 2.1
345 0.22
353 2.8
354 4.5
355 6.4
356 1.63
357 99.99
358 27.6
359 4.9
366 0.12
367 3.2
368 3.8
369 1.9
370 0.11
378 1
379 2.2
380 1.5
381 3.99
382 13.3
383 9.6
384 2.8
388 0.12
390 1.6
392 2.2
394 3.9
395 0.42
396 71.8
397 24
398 8.7
399 0.21
431 2.8
432 1
457 1
458 0.15
471 10.8
472 4.7
473 10.3
474 0.41
476 1.4
484 1.6
485 1.7
486 1.84
487 7.7
488 5.6
489 1.6

>  <PREDICTED SPECTRUM>  (4731) 
26 46
27 62
28 46
29 84
31 10
39 72
40 63
41 266
42 9
43 365
44 126
45 54
46 20
50 17
51 26
53 121
54 76
55 479
56 154
57 452
58 146
59 144
61 109
62 20
63 26
65 104
66 87
67 325
68 68
69 514
70 258
71 353
72 135
73 466
74 214
75 588
76 167
77 294
78 114
79 342
80 132
81 509
82 186
83 402
84 182
85 205
86 69
87 98
89 190
91 407
92 209
93 350
94 184
95 512
96 195
97 339
98 159
99 133
100 97
101 188
102 40
103 248
104 99
105 475
106 388
107 520
108 289
109 467
110 137
111 302
112 105
113 98
114 25
115 220
116 112
117 254
118 96
119 575
120 375
121 591
122 268
123 376
124 40
125 165
126 34
127 172
128 118
129 999
130 339
131 392
132 253
133 418
134 211
135 441
136 218
137 200
138 1
139 166
140 77
141 247
142 134
143 258
144 193
145 466
146 222
147 497
148 261
149 365
150 113
151 126
152 63
153 117
154 79
155 226
156 92
157 234
158 199
159 407
160 330
161 410
162 216
163 350
164 117
165 114
166 33
167 87
168 52
169 161
170 40
171 229
172 95
173 270
174 132
175 229
176 92
177 214
178 48
179 169
181 103
182 79
183 201
184 77
185 144
186 93
187 170
188 122
189 306
190 67
191 209
192 72
193 79
194 33
195 106
196 164
197 129
198 92
199 258
200 135
201 285
202 185
203 280
204 118
205 147
207 108
208 67
209 105
210 17
211 144
212 96
213 236
214 234
215 364
216 312
217 409
218 65
219 185
220 57
221 108
223 17
225 5
227 177
228 140
229 167
230 76
231 123
232 60
233 178
234 92
235 145
239 132
240 63
241 123
242 96
243 93
244 94
245 153
246 120
247 191
248 137
249 99
250 44
253 160
254 86
255 399
256 172
257 30
259 146
260 22
261 127
262 92
264 7
267 93
268 13
269 114
270 38
271 74
273 137
274 195
275 337
276 74
281 15
282 16
283 153
284 73
285 28
286 9
287 118
288 119
289 157
290 77
291 105
297 43
298 3
299 2
301 23
302 151
303 271
304 160
305 45
306 120
315 58
326 67
327 147
328 168
329 330
330 165
331 108
332 103
339 46
340 33
341 52
342 49
344 33
345 62
346 53
353 236
354 241
355 214
356 419
357 986
358 515
359 27
361 21
367 21
368 116
374 17
378 2
381 476
382 373
383 89
384 82
395 72
396 831
397 586
398 236
399 83
412 7
431 2
443 61
471 309
472 213
473 50
476 5
484 73
485 72
486 367
487 267
488 128
489 34

$$$$

     RDKit          2D

 34 37  0  0  1  0  0  0  0  0999 V2000
   10.0746    4.6865    0.0000 C   0  0  0  0  0  0  0  0  0  0  0  0
    9.5655    7.2342    0.0000 C   0  0  0  0  0  0  0  0  0  0  0  0
    7.1046    8.0672    0.0000 C   0  0  0  0  0  0  0  0  0  0  0  0
    3.2009    4.6377    0.0000 C   0  0  0  0  0  0  0  0  0  0  0  0
   -1.6125    0.9400    0.0000 C   0  0  0  0  0  0  0  0  0  0  0  0
    2.4507    3.1203    0.0000 C   0  0  0  0  0  0  0  0  0  0  0  0
   -6.9949   -4.3451    0.0000 C   0  0  0  0  0  0  0  0  0  0  0  0
   -5.4922   -5.8424    0.0000 C   0  0  0  0  0  0  0  0  0  0  0  0
   -3.9950   -4.3396    0.0000 C   0  0  0  0  0  0  0  0  0  0  0  0
    8.6037    4.3926    0.0000 C   0  0  0  0  0  0  0  0  0  0  0  0
    5.6618    3.8047    0.0000 C   0  0  0  0  0  0  0  0  0  0  0  0
    6.1427    5.2256    0.0000 C   0  0  0  0  0  0  0  0  0  0  0  0
   -0.3200   -2.8400    0.0000 C   0  0  0  0  0  0  0  0  0  0  0  0
    1.0100   -2.0900    0.0000 C   0  0  0  0  0  0  0  0  0  0  0  0
    4.5500    0.8800    0.0000 C   0  0  0  0  0  0  0  0  0  0  0  0
    3.7100   -0.3100    0.0000 C   0  0  0  0  0  0  0  0  0  0  0  0
   -4.2000   -0.5600    0.0000 C   0  0  0  0  0  0  0  0  0  0  0  0
   -0.3200    1.6300    0.0000 C   0  0  0  0  0  0  0  0  0  0  0  0
   -2.8900    0.1600    0.0000 C   0  0  0  0  0  0  0  0  0  0  0  0
    1.0100    2.3900    0.0000 C   0  0  0  0  0  0  0  0  0  0  0  0
   -2.8900   -2.8400    0.0000 C   0  0  0  0  0  0  0  0  0  0  0  0
    8.0946    6.9403    0.0000 C   0  0  0  0  0  0  0  0  0  0  0  0
    4.1909    3.5108    0.0000 C   0  0  0  0  0  0  0  0  0  0  0  0
    7.6137    5.5195    0.0000 C   0  0  0  0  0  0  0  0  0  0  0  0
   -1.6200   -2.0900    0.0000 C   0  0  0  0  0  0  0  0  0  0  0  0
   -4.2000   -2.0900    0.0000 C   0  0  0  0  0  0  0  0  0  0  0  0
    1.0100   -0.5600    0.0000 C   0  0  0  0  0  0  0  0  0  0  0  0
    3.7100    2.0900    0.0000 C   0  0  0  0  0  0  0  0  0  0  0  0
    2.2800    0.1600    0.0000 C   0  0  0  0  0  0  0  0  0  0  0  0
   -0.3200    0.1600    0.0000 C   0  0  0  0  0  0  0  0  0  0  0  0
   -1.6200   -0.5600    0.0000 C   0  0  0  0  0  0  0  0  0  0  0  0
    2.2800    1.6300    0.0000 C   0  0  0  0  0  0  0  0  0  0  0  0
   -5.4977   -2.8424    0.0000 O   0  0  0  0  0  0  0  0  0  0  0  0
   -5.4950   -4.3424    0.0000 Si  0  0  0  0  0  4  0  0  0  0  0  0
 10  1  1  0
 12 11  1  0
 14 13  1  0
 16 15  1  0
 19 17  1  0
 20 18  1  0
 22  2  1  0
 22  3  1  0
 23  4  1  6
 23 11  1  0
 10 24  2  0
 24 12  1  0
 24 22  1  0
 25 13  2  0
 25 21  1  0
 26 17  1  0
 26 21  1  0
 27 14  1  6
 28 15  1  1
 28 23  1  0
 29 16  1  1
 29 27  1  0
 30 18  1  1
 30 27  1  0
 31  5  1  1
 31 19  1  0
 31 25  1  0
 31 30  1  0
 32  6  1  1
 32 20  1  0
 32 28  1  0
 32 29  1  0
 26 33  1  1
 34  7  1  0
 34  8  1  0
 34  9  1  0
 34 33  1  0
M  END
>  <NAME>  (4732) 
TRIMETHYLSILYL FUCOSTEROL

>  <SYNONYMS>  (4732) 


>  <SPECTRUM TYPE>  (4732) 
MS1

>  <INSTRUMENT TYPE>  (4732) 
EI-B

>  <INSTRUMENT>  (4732) 
SHIMADZU LKB-9000B

>  <ION MODE>  (4732) 
P

>  <INCHIKEY>  (4732) 
LPZCEKQSHGYQRN-AAFSFRDQSA-N

>  <FORMULA>  (4732) 
C32H56OSi

>  <EXACT MASS>  (4732) 
484.41004294199996

>  <MW>  (4732) 
484

>  <ID>  (4732) 
JP002752

>  <CONTRIBUTOR>  (4732) 
University of Tokyo Team, {Faculty of Engineering, University of Tokyo

>  <COMMENT>  (4732) 
SMILES=C(C3([H])1)CC(C([H])(C(CCC(C(C)C)=CC)([H])C)4)(C([H])(CC4)C1(CC=C(C32C)CC(CC2)(O[Si](C)(C)C)[H])[H])C
InChI=InChI=1S/C32H56OSi/c1-10-24(22(2)3)12-11-23(4)28-15-16-29-27-14-13-25-21-26(33-34(7,8)9)17-19-31(25,5)30(27)18-20-32(28,29)6/h10,13,22-23,26-30H,11-12,14-21H2,1-9H3/b24-10-/t23-,26+,27+,28-,29+,30+,31+,32-/m1/s1
computed SMILES=O(C1CC2=CCC3C(CCC4(C)C(CCC34)C(C)CCC(=CC)C(C)C)C2(C)CC1)[Si](C)(C)C
accession=JP002752
date=2016.01.19 (Created 2008.10.21, modified 2011.05.06)
author=HAYASHI A, DEPT. OF CHEMISTRY, FAC. OF SCI. AND TECHNOLOGY, KINKI UNIV.
license=CC BY-NC-SA
exact mass=484.41004
ionization energy=70 eV
ion type=[M]+*
computed spectral entropy=4.706830622474667
computed normalized entropy=0.8549586145273876
SPLASH=splash10-054k-2953000000-92e0f8512b893ecce774
submitter=submitter = University of Tokyo Team (Faculty of Engineering, University of Tokyo)
MoNA Rating=3.75

>  <NUM PEAKS>  (4732) 
246

>  <MASS SPECTRAL PEAKS>  (4732) 
55 6.8
57 1
67 4.3
68 0.1
69 12
70 1
71 2
73 1.74
74 1.9
75 20.5
76 1.7
77 0.34
79 6.5
80 1.1
81 16.5
82 0.22
83 11
84 1.3
85 2.1
89 0.11
91 11.9
92 2.9
93 15
94 0.36
95 24.4
96 2.6
97 23
98 0.24
99 1.1
101 1.9
103 2
104 0.15
105 20
106 6.2
107 26.6
108 0.57
109 21
110 3.6
111 11.4
112 0.13
113 1
115 3.6
116 2.2
117 8.1
118 0.47
119 30.8
120 16
121 30.7
122 0.55
123 13.7
124 1.7
125 3.8
127 0.12
128 2.8
129 99.99
130 16.1
131 2.09
132 7.4
133 23
134 7.1
135 1.79
136 3.7
137 10.8
138 2.9
139 0.49
140 1
141 3.5
142 3.4
143 1.95
144 7.4
145 33.8
146 10.4
147 2.53
148 7
149 13.1
150 2.3
151 0.37
152 1
153 1.4
154 1
155 0.75
156 4.5
157 12.2
158 12.5
159 3.16
160 15
161 29
162 5.6
163 1.22
164 2.2
165 4
166 1
167 0.14
168 1.7
169 6.9
170 2.4
171 0.86
172 6.9
173 16.3
174 6.8
175 1.56
176 4.1
177 6.2
178 1.4
179 0.2
181 3.2
182 2.2
183 4.3
184 0.19
185 9.7
186 4.5
187 10.4
188 0.44
189 12.8
190 2.7
191 3.4
192 0.11
193 1.7
194 1.2
195 3.4
196 0.4
197 7.6
198 3.3
199 11.1
200 0.48
201 10.6
202 3.8
203 10.1
204 0.21
205 2
207 1.4
208 1.1
209 0.2
210 1.1
211 16.4
212 6.1
213 2.57
214 10.9
215 12.4
216 3.4
217 0.87
218 1.8
219 2.4
220 1
221 0.18
223 1.3
225 4.1
226 2.8
227 1.15
228 12.2
229 8.7
230 2.2
231 0.45
232 1.2
233 2.7
234 1.2
235 0.15
239 5.4
240 3.4
241 6.4
242 0.34
243 11.9
244 3.2
245 4.4
246 0.15
247 1.9
248 1.5
249 1.2
251 0.13
252 1.3
253 20.9
254 8.2
255 2.16
256 11.4
257 41.6
258 8.6
259 0.33
266 1.1
267 4.7
268 3
269 0.21
270 2.5
271 4.1
272 2.1
273 1.39
274 3.6
281 41
282 11.8
283 0.76
284 2.1
285 2.6
286 1.3
287 0.13
294 1
295 3.3
296 89
297 2.48
301 5.9
302 2.3
303 2.6
304 0.25
305 1
317 1.1
318 2.8
327 0.26
330 1.5
337 1.2
339 1.3
340 0.12
342 1.6
343 8.9
344 4.3
345 0.18
351 2
352 3.1
353 4.9
354 0.82
355 43
356 11.6
357 2.7
365 0.16
366 2.4
371 13.4
372 6.1
373 0.21
379 25.7
380 8.7
381 1.5
386 8.12
387 27
388 8.2
389 1.9
392 0.28
393 2.7
394 31.2
395 9.8
396 0.19
469 13.2
470 5.6
471 1.7
482 0.11
483 1.2
484 8.7
485 3.7
486 0.11
487 0.4

>  <PREDICTED SPECTRUM>  (4732) 
41 151
42 0
43 207
44 69
45 34
47 120
48 5
53 66
54 105
55 521
56 140
57 215
59 182
61 47
66 55
67 364
68 169
69 502
70 116
71 183
72 50
73 504
74 38
75 346
76 45
77 120
78 90
79 296
80 103
81 440
82 207
83 383
84 106
85 125
86 22
89 52
90 28
91 349
92 122
93 309
94 125
95 300
96 149
97 240
98 160
99 142
101 103
103 104
104 19
105 347
106 220
107 329
108 102
109 202
110 177
111 235
112 33
115 134
116 74
117 253
118 223
119 383
120 242
121 417
122 179
123 104
124 76
125 58
127 90
128 45
129 640
130 274
131 303
132 168
133 317
134 177
135 213
136 58
137 155
139 157
140 69
141 94
142 129
143 247
144 166
145 223
146 148
147 208
148 161
149 176
150 37
151 61
153 2
155 93
156 116
157 254
158 160
159 271
160 162
161 212
162 103
163 107
164 64
168 74
169 131
170 53
171 176
172 127
173 164
174 28
175 79
176 101
177 110
181 57
182 116
183 148
184 78
185 185
186 156
187 162
188 121
189 204
190 24
191 30
194 92
195 74
196 186
197 148
198 116
199 177
200 146
201 173
202 71
203 141
204 23
205 42
209 78
210 89
211 183
212 155
213 494
214 412
215 463
216 312
217 255
218 46
225 86
226 17
227 211
228 198
229 373
230 71
231 105
232 161
233 97
237 72
239 173
241 173
242 257
243 14
246 51
247 10
250 28
252 33
253 525
254 340
255 533
256 395
257 761
258 196
259 120
263 5
264 3
265 21
266 62
267 88
268 70
269 34
271 115
272 25
273 27
275 13
281 627
282 362
283 36
285 8
289 75
295 129
296 958
297 543
298 26
299 116
301 173
302 82
303 94
304 155
309 5
310 21
315 0
316 48
317 42
318 177
323 16
330 68
337 60
338 16
341 42
342 13
343 240
344 189
345 61
351 113
352 72
353 4
354 48
355 291
356 92
357 130
358 112
361 12
370 56
371 415
372 294
373 117
374 24
379 217
380 22
385 68
386 999
387 620
388 116
394 320
395 123
428 14
430 0
438 6
439 27
469 294
470 111
471 29
484 235
485 160
486 35
487 18

$$$$

     RDKit          2D

 33 36  0  0  1  0  0  0  0  0999 V2000
    9.5655    7.2342    0.0000 C   0  0  0  0  0  0  0  0  0  0  0  0
    7.1046    8.0672    0.0000 C   0  0  0  0  0  0  0  0  0  0  0  0
    8.6037    4.3926    0.0000 C   0  0  0  0  0  0  0  0  0  0  0  0
    3.2009    4.6377    0.0000 C   0  0  0  0  0  0  0  0  0  0  0  0
   -1.6125    0.9400    0.0000 C   0  0  0  0  0  0  0  0  0  0  0  0
    2.4507    3.1203    0.0000 C   0  0  0  0  0  0  0  0  0  0  0  0
   -6.9949   -4.3451    0.0000 C   0  0  0  0  0  0  0  0  0  0  0  0
   -5.4922   -5.8424    0.0000 C   0  0  0  0  0  0  0  0  0  0  0  0
   -3.9950   -4.3396    0.0000 C   0  0  0  0  0  0  0  0  0  0  0  0
    6.1427    5.2256    0.0000 C   0  0  0  0  0  0  0  0  0  0  0  0
    5.6618    3.8047    0.0000 C   0  0  0  0  0  0  0  0  0  0  0  0
   -0.3200   -2.8400    0.0000 C   0  0  0  0  0  0  0  0  0  0  0  0
    1.0100   -2.0900    0.0000 C   0  0  0  0  0  0  0  0  0  0  0  0
    4.5500    0.8800    0.0000 C   0  0  0  0  0  0  0  0  0  0  0  0
    3.7100   -0.3100    0.0000 C   0  0  0  0  0  0  0  0  0  0  0  0
   -4.2000   -0.5600    0.0000 C   0  0  0  0  0  0  0  0  0  0  0  0
   -0.3200    1.6300    0.0000 C   0  0  0  0  0  0  0  0  0  0  0  0
   -2.8900    0.1600    0.0000 C   0  0  0  0  0  0  0  0  0  0  0  0
    1.0100    2.3900    0.0000 C   0  0  0  0  0  0  0  0  0  0  0  0
   -2.8900   -2.8400    0.0000 C   0  0  0  0  0  0  0  0  0  0  0  0
    8.0946    6.9403    0.0000 C   0  0  0  0  0  0  0  0  0  0  0  0
    7.6137    5.5195    0.0000 C   0  0  0  0  0  0  0  0  0  0  0  0
    4.1909    3.5108    0.0000 C   0  0  0  0  0  0  0  0  0  0  0  0
   -1.6200   -2.0900    0.0000 C   0  0  0  0  0  0  0  0  0  0  0  0
   -4.2000   -2.0900    0.0000 C   0  0  0  0  0  0  0  0  0  0  0  0
    1.0100   -0.5600    0.0000 C   0  0  0  0  0  0  0  0  0  0  0  0
    3.7100    2.0900    0.0000 C   0  0  0  0  0  0  0  0  0  0  0  0
    2.2800    0.1600    0.0000 C   0  0  0  0  0  0  0  0  0  0  0  0
   -0.3200    0.1600    0.0000 C   0  0  0  0  0  0  0  0  0  0  0  0
   -1.6200   -0.5600    0.0000 C   0  0  0  0  0  0  0  0  0  0  0  0
    2.2800    1.6300    0.0000 C   0  0  0  0  0  0  0  0  0  0  0  0
   -5.4977   -2.8424    0.0000 O   0  0  0  0  0  0  0  0  0  0  0  0
   -5.4950   -4.3424    0.0000 Si  0  0  0  0  0  4  0  0  0  0  0  0
 11 10  1  0
 13 12  1  0
 15 14  1  0
 18 16  1  0
 19 17  1  0
 21  1  1  0
 21  2  1  0
 22  3  2  0
 22 10  1  0
 22 21  1  0
 23  4  1  6
 23 11  1  0
 24 12  2  0
 24 20  1  0
 25 16  1  0
 25 20  1  0
 26 13  1  6
 27 14  1  1
 27 23  1  0
 28 15  1  1
 28 26  1  0
 29 17  1  1
 29 26  1  0
 30  5  1  1
 30 18  1  0
 30 24  1  0
 30 29  1  0
 31  6  1  1
 31 19  1  0
 31 27  1  0
 31 28  1  0
 25 32  1  1
 33  7  1  0
 33  8  1  0
 33  9  1  0
 33 32  1  0
M  END
>  <NAME>  (4733) 
TRIMETHYLSILYL 24-METHYLENECHOLESTEROL

>  <SYNONYMS>  (4733) 


>  <SPECTRUM TYPE>  (4733) 
MS1

>  <INSTRUMENT TYPE>  (4733) 
EI-B

>  <INSTRUMENT>  (4733) 
SHIMADZU LKB-9000B

>  <ION MODE>  (4733) 
P

>  <INCHIKEY>  (4733) 
HHNSXGBDYOSLLW-BWVDWJPHSA-N

>  <FORMULA>  (4733) 
C31H54OSi

>  <EXACT MASS>  (4733) 
470.39439287799996

>  <MW>  (4733) 
470

>  <ID>  (4733) 
JP002751

>  <CONTRIBUTOR>  (4733) 
University of Tokyo Team, {Faculty of Engineering, University of Tokyo

>  <COMMENT>  (4733) 
SMILES=C(C2([H])4)(C(C3)([H])C(CC4)(C(C3)C(C)CCC(C(C)C)=C)C)(CC=C(C12C)CC(CC1)O[Si](C)(C)C)[H]
InChI=InChI=1S/C31H54OSi/c1-21(2)22(3)10-11-23(4)27-14-15-28-26-13-12-24-20-25(32-33(7,8)9)16-18-30(24,5)29(26)17-19-31(27,28)6/h12,21,23,25-29H,3,10-11,13-20H2,1-2,4-9H3/t23-,25+,26+,27-,28+,29+,30+,31-/m1/s1
computed SMILES=O(C1CC2=CCC3C(CCC4(C)C(CCC34)C(C)CCC(=C)C(C)C)C2(C)CC1)[Si](C)(C)C
accession=JP002751
date=2016.01.19 (Created 2008.10.21, modified 2011.05.06)
author=HAYASHI A, DEPT. OF CHEMISTRY, FAC. OF SCI. AND TECHNOLOGY, KINKI UNIV.
license=CC BY-NC-SA
exact mass=470.39439
ionization energy=70 eV
ion type=[M]+*
computed spectral entropy=4.709033152882646
computed normalized entropy=0.8645603471499894
SPLASH=splash10-004j-2942000000-dd14ec25a140614b4e07
submitter=submitter = University of Tokyo Team (Faculty of Engineering, University of Tokyo)
MoNA Rating=3.75

>  <NUM PEAKS>  (4733) 
232

>  <MASS SPECTRAL PEAKS>  (4733) 
55 4.8
57 1.1
67 4.7
68 0.11
69 11.8
71 1.4
73 18.2
74 0.19
75 18.8
76 1.5
77 2.9
79 0.73
80 1.2
81 17.4
82 1.8
83 1.13
84 2.1
89 1.1
91 11.7
92 0.25
93 15.4
94 4
95 25.6
96 0.31
97 14.7
98 1.5
101 1.8
103 0.22
104 1.6
105 19.6
106 5.4
107 2.81
108 5.8
109 20.9
110 2.6
111 0.59
115 3.7
116 2.4
117 7.5
118 0.41
119 33.9
120 13.6
121 28.9
122 0.48
123 14.7
124 4.1
125 7.6
126 0.12
127 1.7
128 2.3
129 99.99
130 1.64
131 19.4
132 6.6
133 23.8
134 0.63
135 18.5
136 3
137 7.9
138 0.1
139 1
141 3
142 3.4
143 1.85
144 6.6
145 30.5
146 9.9
147 2.36
148 6.1
149 12.9
150 3.1
151 0.64
152 1.1
153 1.4
154 1.1
155 0.69
156 3.7
157 11.1
158 9.7
159 2.84
160 14.3
161 25.6
162 5
163 1.45
164 2.7
165 3.3
166 1
167 0.13
168 1.6
169 5
170 1.9
171 0.9
172 4.6
173 13.5
174 4.6
175 1.41
176 2.9
177 6.7
178 1.7
179 0.22
180 1.1
181 2.9
182 1.9
183 0.38
184 1.6
185 7.5
186 3.1
187 0.86
188 3.2
189 11.5
190 2.2
191 0.35
193 2.9
194 1.3
195 2.7
196 0.33
197 5.8
198 2.5
199 9.5
200 0.37
201 8.2
202 2.9
203 8.2
204 0.17
205 2.8
207 1.3
209 1.7
210 0.11
211 9.2
212 4
213 20.3
214 0.7
215 10.8
216 2.6
217 9.6
218 0.21
219 3.5
220 1.2
221 1.5
225 0.36
226 2.2
227 8.2
228 7.6
229 0.71
230 1.3
231 3.8
232 1.1
233 0.24
235 1.4
239 4.4
240 2.5
241 0.49
242 1.9
243 10.4
244 2.3
245 0.4
246 1.2
247 1.5
248 1
251 0.11
252 1.5
253 21.3
254 8
255 1.56
256 6
257 28.1
258 6.8
259 1.28
260 3.2
267 3.6
268 1.9
269 0.2
270 1.4
271 3.8
272 1.6
273 0.13
281 19.7
282 6.7
283 11.4
284 0.27
285 2.1
286 2.2
287 3.4
288 0.1
295 2.2
296 29.3
297 8.8
298 0.17
299 1
301 1.3
303 1.7
304 0.13
313 2.7
314 1.1
315 1.6
318 0.12
323 1
325 1.4
326 1.3
337 0.23
338 3.1
339 4.8
340 10.2
341 4.28
342 14
343 14.8
344 6.4
345 0.25
351 1.6
352 2.4
365 23.8
366 0.81
367 1.5
371 6.3
372 0.39
373 1.7
378 1.9
379 2
380 3.54
381 11.7
382 2.1
386 24.4
387 0.89
388 2.4
455 11.5
456 4.2
458 0.15
468 1.1
469 1.1
470 10.5
471 0.39
472 1.3

>  <PREDICTED SPECTRUM>  (4733) 
8 3
41 124
43 150
44 57
53 33
54 37
55 495
56 128
57 244
58 42
59 166
61 92
65 12
66 30
67 422
68 102
69 614
70 242
71 312
72 87
73 605
74 108
75 560
76 130
77 186
78 67
79 330
80 110
81 571
82 226
83 501
84 176
85 163
89 81
91 348
92 136
93 460
94 180
95 503
96 233
97 366
98 88
99 81
101 79
103 163
105 442
106 330
107 521
108 332
109 471
110 182
111 316
112 78
115 116
116 0
117 266
118 47
119 574
120 447
121 678
122 343
123 360
124 53
125 165
126 19
127 104
128 80
129 999
130 294
131 361
132 196
133 443
134 349
135 445
136 187
137 236
138 41
139 73
141 103
142 34
143 313
144 113
145 501
146 209
147 420
148 178
149 320
150 143
151 150
153 6
155 194
156 130
157 332
158 231
159 507
160 367
161 407
162 187
163 284
164 118
165 34
167 13
168 66
169 217
170 77
171 244
172 134
173 275
174 124
175 253
176 88
177 180
181 88
182 113
183 134
185 171
186 84
187 269
188 119
189 409
191 95
194 33
195 112
196 204
197 198
198 32
199 264
200 168
201 300
202 107
203 168
204 45
209 20
211 257
212 60
213 541
214 332
215 460
216 205
217 248
218 32
219 30
225 102
226 22
227 285
228 288
229 344
230 104
231 20
232 0
239 215
240 170
241 171
242 106
243 175
245 74
246 18
247 19
249 51
251 3
252 34
253 436
254 316
255 617
256 345
257 512
258 129
259 223
266 9
267 164
268 103
269 54
271 80
272 61
273 17
275 44
279 13
281 456
282 252
283 267
284 82
286 45
287 178
288 14
289 77
290 78
295 38
296 780
297 243
302 7
303 23
304 8
309 69
310 30
312 56
313 41
314 10
316 167
318 173
326 95
329 107
330 67
331 61
337 320
338 159
339 156
340 361
341 103
342 417
343 338
344 254
345 164
349 8
352 71
357 234
358 260
362 7
365 631
366 366
371 138
372 150
373 209
374 31
380 959
381 551
382 135
386 599
387 91
399 2
414 63
455 418
456 263
457 77
469 24
470 852
471 471
472 344
473 90

$$$$

     RDKit          2D

 32 35  0  0  1  0  0  0  0  0999 V2000
    9.5655    7.2342    0.0000 C   0  0  0  0  0  0  0  0  0  0  0  0
    7.1046    8.0672    0.0000 C   0  0  0  0  0  0  0  0  0  0  0  0
    3.2009    4.6377    0.0000 C   0  0  0  0  0  0  0  0  0  0  0  0
   -1.6125    0.9400    0.0000 C   0  0  0  0  0  0  0  0  0  0  0  0
    2.4507    3.1203    0.0000 C   0  0  0  0  0  0  0  0  0  0  0  0
   -6.9949   -4.3451    0.0000 C   0  0  0  0  0  0  0  0  0  0  0  0
   -5.4922   -5.8424    0.0000 C   0  0  0  0  0  0  0  0  0  0  0  0
   -3.9950   -4.3396    0.0000 C   0  0  0  0  0  0  0  0  0  0  0  0
    6.1427    5.2256    0.0000 C   0  0  0  0  0  0  0  0  0  0  0  0
    7.6137    5.5195    0.0000 C   0  0  0  0  0  0  0  0  0  0  0  0
    5.6618    3.8047    0.0000 C   0  0  0  0  0  0  0  0  0  0  0  0
   -0.3200   -2.8400    0.0000 C   0  0  0  0  0  0  0  0  0  0  0  0
    1.0100   -2.0900    0.0000 C   0  0  0  0  0  0  0  0  0  0  0  0
    4.5500    0.8800    0.0000 C   0  0  0  0  0  0  0  0  0  0  0  0
    3.7100   -0.3100    0.0000 C   0  0  0  0  0  0  0  0  0  0  0  0
   -4.2000   -0.5600    0.0000 C   0  0  0  0  0  0  0  0  0  0  0  0
   -0.3200    1.6300    0.0000 C   0  0  0  0  0  0  0  0  0  0  0  0
   -2.8900    0.1600    0.0000 C   0  0  0  0  0  0  0  0  0  0  0  0
    1.0100    2.3900    0.0000 C   0  0  0  0  0  0  0  0  0  0  0  0
   -2.8900   -2.8400    0.0000 C   0  0  0  0  0  0  0  0  0  0  0  0
    8.0946    6.9403    0.0000 C   0  0  0  0  0  0  0  0  0  0  0  0
    4.1909    3.5108    0.0000 C   0  0  0  0  0  0  0  0  0  0  0  0
   -1.6200   -2.0900    0.0000 C   0  0  0  0  0  0  0  0  0  0  0  0
   -4.2000   -2.0900    0.0000 C   0  0  0  0  0  0  0  0  0  0  0  0
    1.0100   -0.5600    0.0000 C   0  0  0  0  0  0  0  0  0  0  0  0
    3.7100    2.0900    0.0000 C   0  0  0  0  0  0  0  0  0  0  0  0
    2.2800    0.1600    0.0000 C   0  0  0  0  0  0  0  0  0  0  0  0
   -0.3200    0.1600    0.0000 C   0  0  0  0  0  0  0  0  0  0  0  0
   -1.6200   -0.5600    0.0000 C   0  0  0  0  0  0  0  0  0  0  0  0
    2.2800    1.6300    0.0000 C   0  0  0  0  0  0  0  0  0  0  0  0
   -5.4977   -2.8424    0.0000 O   0  0  0  0  0  0  0  0  0  0  0  0
   -5.4950   -4.3424    0.0000 Si  0  0  0  0  0  4  0  0  0  0  0  0
 10  9  1  0
 11  9  1  0
 13 12  1  0
 15 14  1  0
 18 16  1  0
 19 17  1  0
 21  1  1  0
 21  2  1  0
 21 10  1  0
 22  3  1  6
 22 11  1  0
 23 12  2  0
 23 20  1  0
 24 16  1  0
 24 20  1  0
 25 13  1  6
 26 14  1  1
 26 22  1  0
 27 15  1  1
 27 25  1  0
 28 17  1  1
 28 25  1  0
 29  4  1  1
 29 18  1  0
 29 23  1  0
 29 28  1  0
 30  5  1  1
 30 19  1  0
 30 26  1  0
 30 27  1  0
 31 24  1  0
 32  6  1  0
 32  7  1  0
 32  8  1  0
 32 31  1  0
M  END
>  <NAME>  (4734) 
TRIMETHYLSILYL CHOLESTEROL

>  <SYNONYMS>  (4734) 


>  <SPECTRUM TYPE>  (4734) 
MS1

>  <INSTRUMENT TYPE>  (4734) 
EI-B

>  <INSTRUMENT>  (4734) 
SHIMADZU LKB-9000B

>  <ION MODE>  (4734) 
P

>  <INCHIKEY>  (4734) 
CBVJJGRSRFXUPK-HBOBSPHKSA-N

>  <FORMULA>  (4734) 
C30H54OSi

>  <EXACT MASS>  (4734) 
458.39439287799996

>  <MW>  (4734) 
458

>  <ID>  (4734) 
JP002750

>  <CONTRIBUTOR>  (4734) 
University of Tokyo Team, {Faculty of Engineering, University of Tokyo

>  <COMMENT>  (4734) 
SMILES=C(C(C4)C(C3)(C)C(C4)([H])C(C2([H])C3)(CC=C(C12C)CC(CC1)O[Si](C)(C)C)[H])(CCCC(C)C)C
InChI=InChI=1S/C30H54OSi/c1-21(2)10-9-11-22(3)26-14-15-27-25-13-12-23-20-24(31-32(6,7)8)16-18-29(23,4)28(25)17-19-30(26,27)5/h12,21-22,24-28H,9-11,13-20H2,1-8H3/t22-,24?,25+,26-,27+,28+,29+,30-/m1/s1
computed SMILES=O(C1CC2=CCC3C(CCC4(C)C(CCC34)C(C)CCCC(C)C)C2(C)CC1)[Si](C)(C)C
accession=JP002750
date=2016.01.19 (Created 2008.10.21, modified 2011.05.06)
author=HAYASHI A, DEPT. OF CHEMISTRY, FAC. OF SCI. AND TECHNOLOGY, KINKI UNIV.
license=CC BY-NC-SA
exact mass=458.39439
ionization energy=70 eV
ion type=[M]+*
computed spectral entropy=4.408073791941555
computed normalized entropy=0.8304166336787494
SPLASH=splash10-004i-1934000000-d0bdba04e45008899726
submitter=submitter = University of Tokyo Team (Faculty of Engineering, University of Tokyo)
MoNA Rating=3.75

>  <NUM PEAKS>  (4734) 
202

>  <MASS SPECTRAL PEAKS>  (4734) 
55 2.2
57 2.9
67 2.6
69 0.46
71 3.8
73 10.5
74 1.2
75 1.51
76 1.1
77 2
79 4.5
81 1.04
82 1.3
83 5.3
85 1.4
91 0.82
92 2
93 10.1
94 2.7
95 1.86
96 1.9
97 5.5
101 1.6
103 0.16
104 1.4
105 14.4
106 5
107 1.97
108 4.2
109 13.7
110 2
111 0.48
113 1.3
115 3
116 2.3
117 0.62
118 3.6
119 17.2
120 11.7
121 2.16
122 3.9
123 8.4
124 1
125 0.27
127 1.9
128 2.1
129 73.2
130 1.26
131 14.4
132 4.5
133 15
134 0.47
135 14.1
136 2.7
137 4.9
139 0.14
141 2.7
142 2.8
143 13.3
144 0.53
145 25.7
146 8.3
147 18.6
148 0.61
149 9.4
150 1.6
151 4.1
153 0.13
155 6.1
156 2.5
157 7.5
158 0.56
159 20.4
160 13.5
161 17.6
162 0.4
163 10.9
164 1.7
165 3.9
167 0.13
168 1.2
169 3.4
170 1.6
171 0.54
172 2.7
173 10
174 3.8
175 0.73
176 1.5
177 5.7
178 1
179 0.28
180 1.1
181 2.7
182 1.6
183 1.9
184 0.1
185 5
186 2
187 4.6
188 0.16
189 5.9
190 1.1
191 3.7
192 0.12
193 4.8
194 1.3
195 2.4
196 0.25
197 3.3
198 1.5
199 6.4
200 0.29
201 5.6
202 1.5
203 7.5
204 0.14
205 4
206 3
207 4.3
208 0.14
209 1.6
211 2
212 1.2
213 1.59
214 5.1
215 6.9
216 2.1
217 0.73
218 1.8
219 5.7
220 1.8
221 0.16
227 3.2
228 4.3
229 4.1
230 0.11
231 1.7
233 5.5
234 1.3
235 0.17
239 1.1
241 2.5
242 1
243 0.1
245 3.8
246 3.5
247 25.7
248 0.6
249 1.4
251 1.2
253 2.4
254 0.1
255 21.4
256 4.9
257 1.4
259 0.42
260 3.9
261 2.4
273 2.5
274 0.31
275 10.3
276 2.4
283 2.2
287 0.1
299 1.3
300 1
301 4
302 0.12
303 1
311 1.5
313 1.7
314 0.23
325 1.2
326 3.6
327 5.3
328 1.43
329 99.99
330 26.3
331 3.5
339 0.2
340 3
351 1.3
352 1.2
353 4.08
354 12.5
355 2.6
364 1.1
366 0.3
367 3.9
368 63.9
369 19.9
370 0.34
443 11.4
444 4.4
445 1.5
456 0.12
457 1.2
458 16.3
459 0.61
460 2
461 0.5

>  <PREDICTED SPECTRUM>  (4734) 
3 10
16 6
21 3
23 3
26 29
27 69
28 68
29 96
36 1
38 1
39 26
40 53
41 289
42 68
43 364
44 91
45 52
46 58
52 1
53 93
54 79
55 431
56 177
57 464
58 148
59 201
61 95
62 30
63 10
65 33
66 48
67 277
68 106
69 511
70 271
71 422
72 117
73 461
74 124
75 491
76 132
77 205
78 80
79 282
80 107
81 457
82 133
83 394
84 194
85 293
86 5
87 89
89 126
91 317
92 135
93 324
94 123
95 471
96 154
97 288
98 98
99 133
100 4
101 116
103 188
104 25
105 365
106 317
107 490
108 319
109 443
110 170
111 325
112 127
113 134
114 57
115 197
116 59
117 212
118 67
119 476
120 360
121 586
122 274
123 346
124 87
125 114
126 57
127 168
128 117
129 999
130 306
131 386
132 232
133 344
134 280
135 448
136 168
137 216
138 51
139 142
140 34
141 125
142 92
143 232
144 159
145 464
146 219
147 366
148 184
149 367
150 102
151 211
152 59
153 61
154 58
155 207
156 144
157 113
158 162
159 317
160 345
161 335
162 207
163 379
164 141
165 127
167 38
169 29
171 78
173 212
174 90
175 149
176 62
177 162
178 20
179 149
181 68
182 1
183 36
185 49
186 40
187 92
188 77
189 190
190 2
191 164
192 57
193 77
194 40
195 29
196 77
197 25
198 4
199 130
200 13
201 126
202 80
203 166
204 48
205 136
206 85
207 184
208 36
211 16
212 28
213 201
214 148
215 207
216 150
217 308
218 39
219 204
221 57
227 88
228 34
229 28
230 4
231 24
233 103
234 36
235 21
236 8
237 32
239 80
240 13
241 56
243 67
245 73
246 108
247 381
248 204
249 100
250 35
253 27
254 95
255 328
256 73
257 16
259 28
260 34
261 89
262 52
273 63
274 120
275 205
276 14
281 60
283 14
287 7
300 71
301 80
302 40
303 72
304 58
311 24
325 64
326 106
327 259
328 252
329 889
330 519
331 206
332 23
339 21
340 52
353 433
354 231
355 49
356 36
367 55
368 646
369 403
370 212
402 10
415 41
431 4
439 5
442 25
443 184
444 43
445 48
454 36
456 3
457 62
458 215
459 185
460 79

$$$$

     RDKit          2D

 32 31  0  0  0  0  0  0  0  0999 V2000
    8.0320   14.3873    0.0000 C   0  0  0  0  0  0  0  0  0  0  0  0
  -23.1449   12.8873    0.0000 C   0  0  0  0  0  0  0  0  0  0  0  0
  -23.8949   15.6863    0.0000 C   0  0  0  0  0  0  0  0  0  0  0  0
  -24.4440   13.6373    0.0000 C   0  0  0  0  0  0  0  0  0  0  0  0
  -22.3949   13.0882    0.0000 C   0  0  0  0  0  0  0  0  0  0  0  0
    6.7329   15.1373    0.0000 C   0  0  0  0  0  0  0  0  0  0  0  0
    5.4339   14.3873    0.0000 C   0  0  0  0  0  0  0  0  0  0  0  0
    4.1349   15.1373    0.0000 C   0  0  0  0  0  0  0  0  0  0  0  0
    2.8358   14.3873    0.0000 C   0  0  0  0  0  0  0  0  0  0  0  0
    1.5368   15.1373    0.0000 C   0  0  0  0  0  0  0  0  0  0  0  0
    0.2377   14.3873    0.0000 C   0  0  0  0  0  0  0  0  0  0  0  0
   -1.0613   15.1373    0.0000 C   0  0  0  0  0  0  0  0  0  0  0  0
   -2.3603   14.3873    0.0000 C   0  0  0  0  0  0  0  0  0  0  0  0
   -3.6594   15.1373    0.0000 C   0  0  0  0  0  0  0  0  0  0  0  0
   -4.9584   14.3873    0.0000 C   0  0  0  0  0  0  0  0  0  0  0  0
   -6.2575   15.1373    0.0000 C   0  0  0  0  0  0  0  0  0  0  0  0
   -7.5565   14.3873    0.0000 C   0  0  0  0  0  0  0  0  0  0  0  0
   -8.8555   15.1373    0.0000 C   0  0  0  0  0  0  0  0  0  0  0  0
  -10.1546   14.3873    0.0000 C   0  0  0  0  0  0  0  0  0  0  0  0
  -11.4536   15.1373    0.0000 C   0  0  0  0  0  0  0  0  0  0  0  0
  -12.7526   14.3873    0.0000 C   0  0  0  0  0  0  0  0  0  0  0  0
  -14.0517   15.1373    0.0000 C   0  0  0  0  0  0  0  0  0  0  0  0
  -15.3507   14.3873    0.0000 C   0  0  0  0  0  0  0  0  0  0  0  0
  -16.6498   15.1373    0.0000 C   0  0  0  0  0  0  0  0  0  0  0  0
  -17.9488   14.3873    0.0000 C   0  0  0  0  0  0  0  0  0  0  0  0
  -19.2478   15.1373    0.0000 C   0  0  0  0  0  0  0  0  0  0  0  0
  -20.5469   14.3873    0.0000 C   0  0  0  0  0  0  0  0  0  0  0  0
  -20.5469   12.8873    0.0000 C   0  0  0  0  0  0  0  0  0  0  0  0
  -19.2478   12.1373    0.0000 O   0  0  0  0  0  0  0  0  0  0  0  0
  -21.8459   12.1373    0.0000 O   0  0  0  0  0  0  0  0  0  0  0  0
  -21.8459   15.1373    0.0000 O   0  0  0  0  0  0  0  0  0  0  0  0
  -23.1449   14.3873    0.0000 Si  0  0  0  0  0  4  0  0  0  0  0  0
  6  1  1  0
  7  6  1  0
  8  7  1  0
  9  8  1  0
 10  9  1  0
 11 10  1  0
 12 11  1  0
 13 12  1  0
 14 13  1  0
 15 14  1  0
 16 15  1  0
 17 16  1  0
 18 17  1  0
 19 18  1  0
 20 19  1  0
 21 20  1  0
 22 21  1  0
 23 22  1  0
 24 23  1  0
 25 24  1  0
 26 25  1  0
 27 26  1  0
 28 27  1  0
 29 28  2  0
 30  2  1  0
 30 28  1  0
 31 27  1  0
 32  3  1  0
 32  4  1  0
 32  5  1  0
 32 31  1  0
M  END
>  <NAME>  (4735) 
METHYL 2-TRIMETHYLSILOXY-TETRACOSANOATE

>  <SYNONYMS>  (4735) 


>  <SPECTRUM TYPE>  (4735) 
MS1

>  <INSTRUMENT TYPE>  (4735) 
EI-B

>  <INSTRUMENT>  (4735) 
SHIMADZU LKB-9000B

>  <ION MODE>  (4735) 
P

>  <INCHIKEY>  (4735) 
IBDXNSNFZWQOOS-UHFFFAOYSA-N

>  <FORMULA>  (4735) 
C28H58O3Si

>  <EXACT MASS>  (4735) 
470.41552224599997

>  <MW>  (4735) 
470

>  <ID>  (4735) 
JP002746

>  <CONTRIBUTOR>  (4735) 
University of Tokyo Team, {Faculty of Engineering, University of Tokyo

>  <COMMENT>  (4735) 
SMILES=C(CC(C(OC)=O)O[Si](C)(C)C)CCCCCCCCCCCCCCCCCCCC
InChI=InChI=1S/C28H58O3Si/c1-6-7-8-9-10-11-12-13-14-15-16-17-18-19-20-21-22-23-24-25-26-27(28(29)30-2)31-32(3,4)5/h27H,6-26H2,1-5H3
computed SMILES=O=C(OC)C(O[Si](C)(C)C)CCCCCCCCCCCCCCCCCCCCCC
accession=JP002746
date=2016.01.19 (Created 2008.10.21, modified 2011.05.06)
author=HAYASHI A, DEPT. OF CHEMISTRY, FAC. OF SCI. AND TECHNOLOGY, KINKI UNIV.
license=CC BY-NC-SA
exact mass=470.41552
ionization energy=70 eV
ion type=[M]+*
computed spectral entropy=3.5346903801830787
computed normalized entropy=0.6981973389385756
SPLASH=splash10-03di-9300800000-1215f76a9c3030611703
submitter=submitter = University of Tokyo Team (Faculty of Engineering, University of Tokyo)
MoNA Rating=3.75

>  <NUM PEAKS>  (4735) 
158

>  <MASS SPECTRAL PEAKS>  (4735) 
39 1.7
41 9.8
42 2.6
43 22.1
44 0.7
45 1.6
47 0.8
53 0.08
54 1.6
55 12.7
56 2.5
57 1.94
58 1.3
59 4.4
60 0.6
61 0.1
65 0.4
66 0.5
67 4.4
68 0.25
69 11.3
70 1.7
71 10.1
72 0.14
73 51.2
74 4.9
75 13.3
76 0.13
77 0.6
79 0.3
80 0.7
81 0.52
82 4
83 12.7
84 1.5
85 0.52
86 0.6
87 1.7
88 0.7
89 2.02
90 2.1
91 4.6
92 0.5
93 0.08
94 0.7
95 5.5
96 1.6
97 1.03
98 1.9
99 1.6
101 2.2
102 0.06
103 12.5
104 1.5
105 1.9
107 0.12
108 0.2
109 2.6
110 1.2
111 0.53
112 0.8
113 1.2
115 2.2
116 0.17
117 1
118 0.4
119 1.3
120 0.04
121 0.6
123 1.5
124 0.7
125 0.2
126 0.4
127 1
129 13.7
130 0.2
131 2
132 0.5
133 0.2
134 0.04
135 0.2
137 0.9
138 0.5
139 0.08
141 0.5
143 1.9
145 1.8
146 0.18
147 0.6
148 0.2
149 0.4
151 0.06
152 0.4
153 0.6
155 0.5
157 0.06
159 7.1
160 1.1
161 1.3
162 0.18
163 0.1
171 0.7
173 0.5
185 0.15
186 0.5
199 0.5
201 0.5
207 0.11
215 0.4
219 0.4
221 0.4
227 0.04
243 0.4
255 0.4
257 0.5
267 0.01
271 0.5
281 1
282 0.1
283 0.01
285 0.5
297 0.4
299 0.5
311 0.4
313 0.4
320 0.5
327 0.1
337 0.05
341 0.5
355 0.5
357 0.1
395 0.08
398 0.5
409 1.4
410 5.3
411 99.99
412 33.1
413 9.2
414 1.2
415 0.01
423 0.3
426 0.4
427 3.6
428 0.09
429 0.4
431 0.1
438 0.4
452 0.04
453 1.2
454 4
455 35.9
456 1.3
457 3.4
458 0.7
469 0.7
470 0.36
471 1.3
472 0.4

>  <PREDICTED SPECTRUM>  (4735) 
17 0
18 12
29 113
30 56
31 13
39 76
40 33
41 409
42 211
43 620
44 134
45 162
46 15
47 50
50 14
51 57
52 27
53 125
54 166
55 575
56 291
57 744
58 180
59 266
60 42
61 205
62 47
63 5
65 20
66 61
67 384
68 254
69 509
70 213
71 507
72 78
73 999
74 230
75 442
76 152
77 245
78 52
79 190
80 97
81 382
82 273
83 574
84 201
85 432
86 103
87 173
88 71
89 513
90 189
91 327
92 14
93 173
94 68
95 472
96 192
97 545
98 177
99 203
100 68
101 151
102 66
103 526
104 236
105 302
107 152
109 369
110 147
111 375
112 145
113 159
115 272
116 105
117 132
123 232
124 109
125 252
126 57
127 111
128 38
129 431
130 149
131 124
132 98
133 144
134 2
135 47
137 69
139 9
143 76
144 18
145 104
146 113
147 48
149 101
156 11
157 27
159 350
160 46
161 91
164 12
170 9
171 45
172 43
173 28
175 0
185 90
186 24
187 37
197 16
199 41
201 6
203 22
215 7
217 3
223 16
321 12
382 5
411 740
412 710
413 269
414 84
427 193
428 43
454 4
455 606
456 386
457 171
470 93
471 16

$$$$

     RDKit          2D

 30 29  0  0  0  0  0  0  0  0999 V2000
    7.3825   13.2623    0.0000 C   0  0  0  0  0  0  0  0  0  0  0  0
  -21.1964   11.7623    0.0000 C   0  0  0  0  0  0  0  0  0  0  0  0
  -21.9464   14.5613    0.0000 C   0  0  0  0  0  0  0  0  0  0  0  0
  -22.4954   12.5123    0.0000 C   0  0  0  0  0  0  0  0  0  0  0  0
  -20.4464   11.9632    0.0000 C   0  0  0  0  0  0  0  0  0  0  0  0
    6.0834   14.0123    0.0000 C   0  0  0  0  0  0  0  0  0  0  0  0
    4.7844   13.2623    0.0000 C   0  0  0  0  0  0  0  0  0  0  0  0
    3.4853   14.0123    0.0000 C   0  0  0  0  0  0  0  0  0  0  0  0
    2.1863   13.2623    0.0000 C   0  0  0  0  0  0  0  0  0  0  0  0
    0.8873   14.0123    0.0000 C   0  0  0  0  0  0  0  0  0  0  0  0
   -0.4118   13.2623    0.0000 C   0  0  0  0  0  0  0  0  0  0  0  0
   -1.7108   14.0123    0.0000 C   0  0  0  0  0  0  0  0  0  0  0  0
   -3.0099   13.2623    0.0000 C   0  0  0  0  0  0  0  0  0  0  0  0
   -4.3089   14.0123    0.0000 C   0  0  0  0  0  0  0  0  0  0  0  0
   -5.6079   13.2623    0.0000 C   0  0  0  0  0  0  0  0  0  0  0  0
   -6.9070   14.0123    0.0000 C   0  0  0  0  0  0  0  0  0  0  0  0
   -8.2060   13.2623    0.0000 C   0  0  0  0  0  0  0  0  0  0  0  0
   -9.5050   14.0123    0.0000 C   0  0  0  0  0  0  0  0  0  0  0  0
  -10.8041   13.2623    0.0000 C   0  0  0  0  0  0  0  0  0  0  0  0
  -12.1031   14.0123    0.0000 C   0  0  0  0  0  0  0  0  0  0  0  0
  -13.4022   13.2623    0.0000 C   0  0  0  0  0  0  0  0  0  0  0  0
  -14.7012   14.0123    0.0000 C   0  0  0  0  0  0  0  0  0  0  0  0
  -16.0002   13.2623    0.0000 C   0  0  0  0  0  0  0  0  0  0  0  0
  -17.2993   14.0123    0.0000 C   0  0  0  0  0  0  0  0  0  0  0  0
  -18.5983   13.2623    0.0000 C   0  0  0  0  0  0  0  0  0  0  0  0
  -18.5983   11.7623    0.0000 C   0  0  0  0  0  0  0  0  0  0  0  0
  -17.2993   11.0123    0.0000 O   0  0  0  0  0  0  0  0  0  0  0  0
  -19.8974   11.0123    0.0000 O   0  0  0  0  0  0  0  0  0  0  0  0
  -19.8974   14.0123    0.0000 O   0  0  0  0  0  0  0  0  0  0  0  0
  -21.1964   13.2623    0.0000 Si  0  0  0  0  0  4  0  0  0  0  0  0
  6  1  1  0
  7  6  1  0
  8  7  1  0
  9  8  1  0
 10  9  1  0
 11 10  1  0
 12 11  1  0
 13 12  1  0
 14 13  1  0
 15 14  1  0
 16 15  1  0
 17 16  1  0
 18 17  1  0
 19 18  1  0
 20 19  1  0
 21 20  1  0
 22 21  1  0
 23 22  1  0
 24 23  1  0
 25 24  1  0
 26 25  1  0
 27 26  2  0
 28  2  1  0
 28 26  1  0
 29 25  1  0
 30  3  1  0
 30  4  1  0
 30  5  1  0
 30 29  1  0
M  END
>  <NAME>  (4736) 
METHYL 2-TRIMETHYLSILOXY-DOCOSANOATE

>  <SYNONYMS>  (4736) 


>  <SPECTRUM TYPE>  (4736) 
MS1

>  <INSTRUMENT TYPE>  (4736) 
EI-B

>  <INSTRUMENT>  (4736) 
SHIMADZU LKB-9000B

>  <ION MODE>  (4736) 
P

>  <INCHIKEY>  (4736) 
QSSVMTKWPPSPAQ-UHFFFAOYSA-N

>  <FORMULA>  (4736) 
C26H54O3Si

>  <EXACT MASS>  (4736) 
442.384222118

>  <MW>  (4736) 
442

>  <ID>  (4736) 
JP002745

>  <CONTRIBUTOR>  (4736) 
University of Tokyo Team, {Faculty of Engineering, University of Tokyo

>  <COMMENT>  (4736) 
SMILES=CCCCCCCCCCCCCCCCCCCCC(C(=O)OC)O[Si](C)(C)C
InChI=InChI=1S/C26H54O3Si/c1-6-7-8-9-10-11-12-13-14-15-16-17-18-19-20-21-22-23-24-25(26(27)28-2)29-30(3,4)5/h25H,6-24H2,1-5H3
computed SMILES=O=C(OC)C(O[Si](C)(C)C)CCCCCCCCCCCCCCCCCCCC
accession=JP002745
date=2016.01.19 (Created 2008.10.21, modified 2011.05.06)
author=HAYASHI A, DEPT. OF CHEMISTRY, FAC. OF SCI. AND TECHNOLOGY, KINKI UNIV.
license=CC BY-NC-SA
exact mass=442.38422
ionization energy=70 eV
ion type=[M]+*
computed spectral entropy=3.5569031028364626
computed normalized entropy=0.8618336043830085
SPLASH=splash10-008c-9202000000-c4431e9ed7cd60887720
submitter=submitter = University of Tokyo Team (Faculty of Engineering, University of Tokyo)
MoNA Rating=3.75

>  <NUM PEAKS>  (4736) 
62

>  <MASS SPECTRAL PEAKS>  (4736) 
39 2.1
40 24.1
41 23.7
42 9.3
43 33
44 9.6
45 9
47 0.61
54 6.7
55 20.4
56 12.8
57 2.52
59 11.8
67 9.6
68 9.4
69 1.28
70 8
71 18.4
73 61.9
74 1.3
75 21
77 8.3
79 7.6
81 0.93
82 12.1
83 13.1
84 7.8
85 0.35
89 29.2
91 10.9
95 14.9
96 0.23
97 20.1
98 8.6
103 18.5
105 0.79
107 7.8
109 10.6
111 11.3
115 0.67
119 6.7
123 7.2
129 14.2
131 0.62
147 1.7
149 6.6
159 9.6
191 0.09
207 1
267 2.1
282 0.2
327 0.67
381 5.8
382 7.2
383 99.99
384 3.26
385 11.3
399 6
426 5.9
427 3.89
428 13.5
429 3.9

>  <PREDICTED SPECTRUM>  (4736) 
29 57
39 53
40 18
41 351
42 162
43 557
44 114
45 137
47 37
51 43
52 21
53 99
54 150
55 494
56 245
57 649
58 182
59 224
60 79
61 164
62 33
63 14
65 5
66 62
67 339
68 214
69 457
70 211
71 434
72 76
73 944
74 213
75 396
76 130
77 225
78 55
79 160
80 78
81 333
82 227
83 523
84 167
85 377
86 54
87 182
88 93
89 496
90 180
91 264
93 45
94 0
95 419
96 151
97 482
98 127
99 162
100 28
101 165
102 37
103 492
104 220
105 279
106 22
107 99
109 315
110 116
111 325
112 115
113 76
115 194
116 37
117 87
118 2
119 33
123 144
124 76
125 233
126 34
127 57
128 37
129 354
130 95
131 149
132 61
133 90
134 1
135 50
136 10
137 36
140 0
143 72
144 35
145 53
146 58
147 17
149 123
157 81
158 38
159 287
161 26
169 33
170 37
171 54
172 3
173 12
174 5
175 38
185 24
187 38
189 14
195 34
228 14
231 2
293 3
383 999
384 654
385 257
386 98
399 206
400 60
427 564
428 361
429 170
443 4

$$$$

     RDKit          2D

 28 27  0  0  0  0  0  0  0  0999 V2000
    6.7329   12.1373    0.0000 C   0  0  0  0  0  0  0  0  0  0  0  0
  -19.2478   10.6373    0.0000 C   0  0  0  0  0  0  0  0  0  0  0  0
  -19.9978   13.4363    0.0000 C   0  0  0  0  0  0  0  0  0  0  0  0
  -20.5469   11.3873    0.0000 C   0  0  0  0  0  0  0  0  0  0  0  0
  -18.4978   10.8382    0.0000 C   0  0  0  0  0  0  0  0  0  0  0  0
    5.4339   12.8873    0.0000 C   0  0  0  0  0  0  0  0  0  0  0  0
    4.1349   12.1373    0.0000 C   0  0  0  0  0  0  0  0  0  0  0  0
    2.8358   12.8873    0.0000 C   0  0  0  0  0  0  0  0  0  0  0  0
    1.5368   12.1373    0.0000 C   0  0  0  0  0  0  0  0  0  0  0  0
    0.2377   12.8873    0.0000 C   0  0  0  0  0  0  0  0  0  0  0  0
   -1.0613   12.1373    0.0000 C   0  0  0  0  0  0  0  0  0  0  0  0
   -2.3603   12.8873    0.0000 C   0  0  0  0  0  0  0  0  0  0  0  0
   -3.6594   12.1373    0.0000 C   0  0  0  0  0  0  0  0  0  0  0  0
   -4.9584   12.8873    0.0000 C   0  0  0  0  0  0  0  0  0  0  0  0
   -6.2575   12.1373    0.0000 C   0  0  0  0  0  0  0  0  0  0  0  0
   -7.5565   12.8873    0.0000 C   0  0  0  0  0  0  0  0  0  0  0  0
   -8.8555   12.1373    0.0000 C   0  0  0  0  0  0  0  0  0  0  0  0
  -10.1546   12.8873    0.0000 C   0  0  0  0  0  0  0  0  0  0  0  0
  -11.4536   12.1373    0.0000 C   0  0  0  0  0  0  0  0  0  0  0  0
  -12.7526   12.8873    0.0000 C   0  0  0  0  0  0  0  0  0  0  0  0
  -14.0517   12.1373    0.0000 C   0  0  0  0  0  0  0  0  0  0  0  0
  -15.3507   12.8873    0.0000 C   0  0  0  0  0  0  0  0  0  0  0  0
  -16.6498   12.1373    0.0000 C   0  0  0  0  0  0  0  0  0  0  0  0
  -16.6498   10.6373    0.0000 C   0  0  0  0  0  0  0  0  0  0  0  0
  -15.3507    9.8873    0.0000 O   0  0  0  0  0  0  0  0  0  0  0  0
  -17.9488    9.8873    0.0000 O   0  0  0  0  0  0  0  0  0  0  0  0
  -17.9488   12.8873    0.0000 O   0  0  0  0  0  0  0  0  0  0  0  0
  -19.2478   12.1373    0.0000 Si  0  0  0  0  0  4  0  0  0  0  0  0
  6  1  1  0
  7  6  1  0
  8  7  1  0
  9  8  1  0
 10  9  1  0
 11 10  1  0
 12 11  1  0
 13 12  1  0
 14 13  1  0
 15 14  1  0
 16 15  1  0
 17 16  1  0
 18 17  1  0
 19 18  1  0
 20 19  1  0
 21 20  1  0
 22 21  1  0
 23 22  1  0
 24 23  1  0
 25 24  2  0
 26  2  1  0
 26 24  1  0
 27 23  1  0
 28  3  1  0
 28  4  1  0
 28  5  1  0
 28 27  1  0
M  END
>  <NAME>  (4737) 
METHYL 2-TRIMETHYLSILOXY-EICOSANOATE

>  <SYNONYMS>  (4737) 


>  <SPECTRUM TYPE>  (4737) 
MS1

>  <INSTRUMENT TYPE>  (4737) 
EI-B

>  <INSTRUMENT>  (4737) 
SHIMADZU LKB-9000B

>  <ION MODE>  (4737) 
P

>  <INCHIKEY>  (4737) 
AIDIPDFVXORXLT-UHFFFAOYSA-N

>  <FORMULA>  (4737) 
C24H50O3Si

>  <EXACT MASS>  (4737) 
414.35292198999997

>  <MW>  (4737) 
414

>  <ID>  (4737) 
JP002744

>  <CONTRIBUTOR>  (4737) 
University of Tokyo Team, {Faculty of Engineering, University of Tokyo

>  <COMMENT>  (4737) 
SMILES=CCCCCCCCCCCCCCCCCCC(C(=O)OC)O[Si](C)(C)C
InChI=InChI=1S/C24H50O3Si/c1-6-7-8-9-10-11-12-13-14-15-16-17-18-19-20-21-22-23(24(25)26-2)27-28(3,4)5/h23H,6-22H2,1-5H3
computed SMILES=O=C(OC)C(O[Si](C)(C)C)CCCCCCCCCCCCCCCCCC
accession=JP002744
date=2016.01.19 (Created 2008.10.21, modified 2011.05.06)
author=HAYASHI A, DEPT. OF CHEMISTRY, FAC. OF SCI. AND TECHNOLOGY, KINKI UNIV.
license=CC BY-NC-SA
exact mass=414.35292
ionization energy=70 eV
ion type=[M]+*
computed spectral entropy=3.612200497920497
computed normalized entropy=0.754507932753409
SPLASH=splash10-0ab9-9205000000-9542b284308783c70af6
submitter=submitter = University of Tokyo Team (Faculty of Engineering, University of Tokyo)
MoNA Rating=3.75

>  <NUM PEAKS>  (4737) 
120

>  <MASS SPECTRAL PEAKS>  (4737) 
36 1.6
39 3.2
40 0.4
41 12.7
42 3.8
43 25.5
44 1.1
45 0.39
47 3.2
48 1.5
49 1.1
50 0.12
51 1
53 1.9
54 2.2
55 1.36
56 3.8
57 21.2
58 1.8
59 0.8
61 1.9
66 1.1
67 6.2
68 0.33
69 13.3
70 2.7
71 10.1
72 0.19
73 60.7
74 7
75 15.8
76 0.16
77 2.1
79 1.8
80 1.1
81 0.75
82 4.5
83 13.5
84 2.1
85 0.45
87 2.7
88 1.2
89 25.9
90 0.28
91 5.2
92 1
93 1.5
94 0.11
95 6.5
96 1.8
97 12.9
98 0.24
99 1.8
101 3.5
102 1.1
103 1.59
104 2.1
105 2.4
107 2.3
108 0.14
109 3.9
110 1.5
111 5.9
112 0.14
113 1.4
115 3.4
116 2.2
117 0.18
119 3
121 1.1
123 2
124 0.12
125 2.4
127 1.1
129 13.8
130 0.22
131 2.4
133 0.4
135 1.1
137 0.12
139 1.2
143 2.4
145 2.5
146 0.28
147 1
148 1
149 2
159 0.79
160 1.3
161 1.6
162 2
167 0.1
171 1.2
177 1
185 1.8
193 0.02
219 1.1
221 1
267 0.2
281 0.15
282 0.3
283 0.4
339 1.2
341 0.08
353 1.9
354 4.5
355 99.99
356 3.05
357 7.7
358 1.6
371 4
372 0.16
397 1.5
398 2.9
399 38
400 1.13
401 3.6
402 1
414 2.1
415 0.2

>  <PREDICTED SPECTRUM>  (4737) 
29 91
39 37
40 12
41 311
42 136
43 504
44 99
45 133
47 24
51 32
52 19
53 89
54 137
55 448
56 221
57 581
58 156
59 281
60 93
61 165
62 26
66 34
67 318
68 185
69 426
70 182
71 385
72 55
73 932
74 205
75 388
76 126
77 221
78 57
79 129
80 65
81 305
82 202
83 502
84 145
85 341
86 50
87 136
88 46
89 504
90 179
91 275
93 32
94 14
95 368
96 119
97 434
98 116
99 134
100 46
101 150
103 464
104 195
105 239
106 16
107 89
108 15
109 284
110 94
111 301
112 113
113 88
115 192
116 61
117 74
119 21
121 11
123 139
124 72
125 228
126 45
127 55
128 25
129 329
130 139
131 150
133 33
135 0
137 2
140 6
141 15
142 30
143 92
144 1
145 51
146 74
147 61
149 133
157 23
158 4
159 240
160 7
161 34
167 49
169 1
170 35
171 22
172 4
175 7
181 14
187 30
201 18
203 29
215 11
245 9
355 999
356 614
357 252
358 103
371 199
372 70
399 577
400 348
401 123
414 48
415 13

$$$$

     RDKit          2D

 26 25  0  0  0  0  0  0  0  0999 V2000
    6.0834   11.0123    0.0000 C   0  0  0  0  0  0  0  0  0  0  0  0
  -17.2993    9.5123    0.0000 C   0  0  0  0  0  0  0  0  0  0  0  0
  -18.0493   12.3113    0.0000 C   0  0  0  0  0  0  0  0  0  0  0  0
  -18.5983   10.2623    0.0000 C   0  0  0  0  0  0  0  0  0  0  0  0
  -16.5493    9.7132    0.0000 C   0  0  0  0  0  0  0  0  0  0  0  0
    4.7844   11.7623    0.0000 C   0  0  0  0  0  0  0  0  0  0  0  0
    3.4853   11.0123    0.0000 C   0  0  0  0  0  0  0  0  0  0  0  0
    2.1863   11.7623    0.0000 C   0  0  0  0  0  0  0  0  0  0  0  0
    0.8873   11.0123    0.0000 C   0  0  0  0  0  0  0  0  0  0  0  0
   -0.4118   11.7623    0.0000 C   0  0  0  0  0  0  0  0  0  0  0  0
   -1.7108   11.0123    0.0000 C   0  0  0  0  0  0  0  0  0  0  0  0
   -3.0099   11.7623    0.0000 C   0  0  0  0  0  0  0  0  0  0  0  0
   -4.3089   11.0123    0.0000 C   0  0  0  0  0  0  0  0  0  0  0  0
   -5.6079   11.7623    0.0000 C   0  0  0  0  0  0  0  0  0  0  0  0
   -6.9070   11.0123    0.0000 C   0  0  0  0  0  0  0  0  0  0  0  0
   -8.2060   11.7623    0.0000 C   0  0  0  0  0  0  0  0  0  0  0  0
   -9.5050   11.0123    0.0000 C   0  0  0  0  0  0  0  0  0  0  0  0
  -10.8041   11.7623    0.0000 C   0  0  0  0  0  0  0  0  0  0  0  0
  -12.1031   11.0123    0.0000 C   0  0  0  0  0  0  0  0  0  0  0  0
  -13.4022   11.7623    0.0000 C   0  0  0  0  0  0  0  0  0  0  0  0
  -14.7012   11.0123    0.0000 C   0  0  0  0  0  0  0  0  0  0  0  0
  -14.7012    9.5123    0.0000 C   0  0  0  0  0  0  0  0  0  0  0  0
  -13.4022    8.7623    0.0000 O   0  0  0  0  0  0  0  0  0  0  0  0
  -16.0002    8.7623    0.0000 O   0  0  0  0  0  0  0  0  0  0  0  0
  -16.0002   11.7623    0.0000 O   0  0  0  0  0  0  0  0  0  0  0  0
  -17.2993   11.0123    0.0000 Si  0  0  0  0  0  4  0  0  0  0  0  0
  6  1  1  0
  7  6  1  0
  8  7  1  0
  9  8  1  0
 10  9  1  0
 11 10  1  0
 12 11  1  0
 13 12  1  0
 14 13  1  0
 15 14  1  0
 16 15  1  0
 17 16  1  0
 18 17  1  0
 19 18  1  0
 20 19  1  0
 21 20  1  0
 22 21  1  0
 23 22  2  0
 24  2  1  0
 24 22  1  0
 25 21  1  0
 26  3  1  0
 26  4  1  0
 26  5  1  0
 26 25  1  0
M  END
>  <NAME>  (4738) 
METHYL 2-TRIMETHYLSILOXY-OCTADECANOATE

>  <SYNONYMS>  (4738) 


>  <SPECTRUM TYPE>  (4738) 
MS1

>  <INSTRUMENT TYPE>  (4738) 
EI-B

>  <INSTRUMENT>  (4738) 
SHIMADZU LKB-9000B

>  <ION MODE>  (4738) 
P

>  <INCHIKEY>  (4738) 
MPVPFICBAYSSLQ-UHFFFAOYSA-N

>  <FORMULA>  (4738) 
C22H46O3Si

>  <EXACT MASS>  (4738) 
386.321621862

>  <MW>  (4738) 
386

>  <ID>  (4738) 
JP002743

>  <CONTRIBUTOR>  (4738) 
University of Tokyo Team, {Faculty of Engineering, University of Tokyo

>  <COMMENT>  (4738) 
SMILES=CCCCCCCCCCCCCCCCC(C(=O)OC)O[Si](C)(C)C
InChI=InChI=1S/C22H46O3Si/c1-6-7-8-9-10-11-12-13-14-15-16-17-18-19-20-21(22(23)24-2)25-26(3,4)5/h21H,6-20H2,1-5H3
computed SMILES=O=C(OC)C(O[Si](C)(C)C)CCCCCCCCCCCCCCCC
accession=JP002743
date=2016.01.19 (Created 2008.10.21, modified 2011.05.06)
author=HAYASHI A, DEPT. OF CHEMISTRY, FAC. OF SCI. AND TECHNOLOGY, KINKI UNIV.
license=CC BY-NC-SA
exact mass=386.32162
ionization energy=70 eV
ion type=[M]+*
computed spectral entropy=3.547887617043061
computed normalized entropy=0.7577505723226354
SPLASH=splash10-004i-9306000000-e3488054faf0a2fab62c
submitter=submitter = University of Tokyo Team (Faculty of Engineering, University of Tokyo)
MoNA Rating=3.75

>  <NUM PEAKS>  (4738) 
108

>  <MASS SPECTRAL PEAKS>  (4738) 
39 0.5
40 4.6
41 9.8
42 1.3
43 18.7
44 1.9
45 3.8
47 0.28
48 1.5
53 1.6
54 2
55 1.09
56 1.2
57 12.5
58 1.3
59 0.78
61 1.8
66 1
67 5.6
68 0.27
69 11.4
70 2.3
71 8.1
72 0.17
73 53.6
74 6.4
75 15.1
76 0.17
77 1.8
79 1.8
80 1.1
81 0.61
82 3.1
83 14.7
84 2.1
85 0.6
87 2.3
88 1.2
89 26.3
90 0.29
91 4.7
92 0.9
93 1.1
95 0.59
96 1.4
97 12.7
98 2.2
99 0.17
101 3.3
102 1.2
103 15.3
104 0.2
105 2.4
107 2.2
108 1.3
109 0.32
110 1.3
111 5.3
112 1.2
113 0.14
115 3.2
116 2.6
117 1.7
119 0.29
121 1
123 1.6
124 1.2
125 0.2
127 1.1
129 10.9
130 2.2
131 0.22
135 1
137 1
139 1.1
143 0.17
145 2.5
146 2.8
147 0.5
149 0.1
157 0.9
159 7.8
160 1.5
161 0.16
162 1.9
171 0.9
185 1.5
199 0.1
201 0.9
253 1.3
257 0.9
271 0.09
311 1.2
325 1.4
326 2.6
327 99.99
328 28
329 7.2
330 1.4
343 0.46
344 1.7
369 1.5
370 2.5
371 3.74
372 11.2
373 3
374 0.9
386 1.6

>  <PREDICTED SPECTRUM>  (4738) 
29 117
39 27
40 2
41 308
42 125
43 481
44 66
45 155
47 31
51 26
52 13
53 97
54 137
55 454
56 219
57 549
58 190
59 287
60 70
61 157
62 21
63 8
66 46
67 314
68 180
69 438
70 193
71 361
72 83
73 999
74 200
75 418
76 130
77 209
78 55
79 136
80 80
81 308
82 200
83 518
84 154
85 337
86 61
87 149
88 81
89 567
90 202
91 303
93 91
95 360
96 114
97 438
98 127
99 152
100 46
101 179
102 87
103 459
104 179
105 201
107 55
109 288
110 78
111 308
112 109
113 129
114 7
115 217
116 35
117 91
118 27
119 87
121 51
123 91
124 45
125 234
126 65
127 43
128 9
129 304
130 127
131 186
132 40
133 47
135 3
137 28
139 44
142 29
143 67
144 16
145 27
146 48
147 16
149 114
153 52
154 1
159 191
161 9
171 0
172 57
173 46
175 39
185 36
187 45
189 8
201 13
203 26
217 36
237 9
283 0
327 939
328 592
329 255
330 109
343 192
344 67
371 606
372 342
373 156
386 41

$$$$

     RDKit          2D

 24 23  0  0  0  0  0  0  0  0999 V2000
    5.4339    9.8873    0.0000 C   0  0  0  0  0  0  0  0  0  0  0  0
  -15.3507    8.3873    0.0000 C   0  0  0  0  0  0  0  0  0  0  0  0
  -16.1007   11.1863    0.0000 C   0  0  0  0  0  0  0  0  0  0  0  0
  -16.6498    9.1373    0.0000 C   0  0  0  0  0  0  0  0  0  0  0  0
  -14.6007    8.5882    0.0000 C   0  0  0  0  0  0  0  0  0  0  0  0
    4.1349   10.6373    0.0000 C   0  0  0  0  0  0  0  0  0  0  0  0
    2.8358    9.8873    0.0000 C   0  0  0  0  0  0  0  0  0  0  0  0
    1.5368   10.6373    0.0000 C   0  0  0  0  0  0  0  0  0  0  0  0
    0.2377    9.8873    0.0000 C   0  0  0  0  0  0  0  0  0  0  0  0
   -1.0613   10.6373    0.0000 C   0  0  0  0  0  0  0  0  0  0  0  0
   -2.3603    9.8873    0.0000 C   0  0  0  0  0  0  0  0  0  0  0  0
   -3.6594   10.6373    0.0000 C   0  0  0  0  0  0  0  0  0  0  0  0
   -4.9584    9.8873    0.0000 C   0  0  0  0  0  0  0  0  0  0  0  0
   -6.2575   10.6373    0.0000 C   0  0  0  0  0  0  0  0  0  0  0  0
   -7.5565    9.8873    0.0000 C   0  0  0  0  0  0  0  0  0  0  0  0
   -8.8555   10.6373    0.0000 C   0  0  0  0  0  0  0  0  0  0  0  0
  -10.1546    9.8873    0.0000 C   0  0  0  0  0  0  0  0  0  0  0  0
  -11.4536   10.6373    0.0000 C   0  0  0  0  0  0  0  0  0  0  0  0
  -12.7526    9.8873    0.0000 C   0  0  0  0  0  0  0  0  0  0  0  0
  -12.7526    8.3873    0.0000 C   0  0  0  0  0  0  0  0  0  0  0  0
  -11.4536    7.6373    0.0000 O   0  0  0  0  0  0  0  0  0  0  0  0
  -14.0517    7.6373    0.0000 O   0  0  0  0  0  0  0  0  0  0  0  0
  -14.0517   10.6373    0.0000 O   0  0  0  0  0  0  0  0  0  0  0  0
  -15.3507    9.8873    0.0000 Si  0  0  0  0  0  4  0  0  0  0  0  0
  6  1  1  0
  7  6  1  0
  8  7  1  0
  9  8  1  0
 10  9  1  0
 11 10  1  0
 12 11  1  0
 13 12  1  0
 14 13  1  0
 15 14  1  0
 16 15  1  0
 17 16  1  0
 18 17  1  0
 19 18  1  0
 20 19  1  0
 21 20  2  0
 22  2  1  0
 22 20  1  0
 23 19  1  0
 24  3  1  0
 24  4  1  0
 24  5  1  0
 24 23  1  0
M  END
>  <NAME>  (4739) 
METHYL 2-TRIMETHYLSILOXY-HEXADECANOATE

>  <SYNONYMS>  (4739) 


>  <SPECTRUM TYPE>  (4739) 
MS1

>  <INSTRUMENT TYPE>  (4739) 
EI-B

>  <INSTRUMENT>  (4739) 
SHIMADZU LKB-9000B

>  <ION MODE>  (4739) 
P

>  <INCHIKEY>  (4739) 
ISYKTPYDGSSZAA-UHFFFAOYSA-N

>  <FORMULA>  (4739) 
C20H42O3Si

>  <EXACT MASS>  (4739) 
358.290321734

>  <MW>  (4739) 
358

>  <ID>  (4739) 
JP002742

>  <CONTRIBUTOR>  (4739) 
University of Tokyo Team, {Faculty of Engineering, University of Tokyo

>  <COMMENT>  (4739) 
SMILES=CCCCCCCCCCCCCCC(C(=O)OC)O[Si](C)(C)C
InChI=InChI=1S/C20H42O3Si/c1-6-7-8-9-10-11-12-13-14-15-16-17-18-19(20(21)22-2)23-24(3,4)5/h19H,6-18H2,1-5H3
computed SMILES=O=C(OC)C(O[Si](C)(C)C)CCCCCCCCCCCCCC
accession=JP002742
date=2016.01.19 (Created 2008.10.21, modified 2011.05.06)
author=HAYASHI A, DEPT. OF CHEMISTRY, FAC. OF SCI. AND TECHNOLOGY, KINKI UNIV.
license=CC BY-NC-SA
exact mass=358.29032
ionization energy=70 eV
ion type=[M]+*
computed spectral entropy=3.461845184870182
computed normalized entropy=0.7485114669056547
SPLASH=splash10-0005-9344000000-1385801019eaee3802c9
submitter=submitter = University of Tokyo Team (Faculty of Engineering, University of Tokyo)
MoNA Rating=3.75

>  <NUM PEAKS>  (4739) 
102

>  <MASS SPECTRAL PEAKS>  (4739) 
39 1.5
40 1.7
41 12
42 0.23
43 18.3
44 0.9
45 4.4
47 0.12
53 1.3
54 1.6
55 11.4
56 0.28
57 13.3
58 1.4
59 9.8
60 0.12
61 2
67 4.5
68 2.2
69 1.39
70 2
71 7.2
72 2
73 5.17
74 6.2
75 16.3
76 1.6
77 0.12
79 1.3
81 4.6
82 2.7
83 1.67
84 1.8
85 4.4
86 0.9
87 0.18
88 0.9
89 30
90 2.7
91 0.55
93 0.9
95 4.5
96 1
97 1.32
98 1.9
99 1.3
101 3.5
102 0.11
103 17.4
104 2
105 1.7
107 0.21
108 1
109 2.5
110 0.9
111 0.52
112 1.2
113 1
115 2.9
116 0.22
117 1.6
119 3.1
123 1.3
125 0.17
129 10.3
130 1.7
131 2.3
143 0.14
145 1.9
146 2.6
147 0.5
149 0.08
159 8.5
160 1.3
161 1.5
162 0.16
171 0.9
185 1.5
191 0.1
207 0.13
225 0.9
227 0.7
257 0.8
281 0.06
282 0.2
283 0.5
297 1.3
298 0.14
299 99.99
300 26.3
301 7.2
302 0.14
315 4.3
316 1.3
341 0.7
342 0.11
343 36.3
344 10
345 3.1
346 0.08
355 0.3
358 0.9

>  <PREDICTED SPECTRUM>  (4739) 
29 34
39 25
40 4
41 286
42 109
43 407
44 77
45 137
47 68
51 34
52 22
53 87
54 124
55 411
56 198
57 457
58 187
59 276
60 75
61 150
62 27
63 15
66 41
67 286
68 156
69 403
70 176
71 292
72 91
73 944
74 200
75 383
76 119
77 160
78 27
79 102
80 52
81 262
82 169
83 461
84 127
85 282
86 68
87 155
88 71
89 567
90 220
91 330
93 106
95 279
96 88
97 391
98 127
99 135
100 34
101 133
102 52
103 388
104 169
105 159
107 31
109 254
110 83
111 276
112 76
113 96
115 178
116 46
117 57
118 19
119 28
121 22
123 79
124 52
125 208
126 70
127 45
129 230
130 122
131 175
133 30
137 31
141 0
143 42
144 80
145 81
146 11
147 38
149 47
153 9
157 40
159 143
160 0
161 40
165 6
171 34
173 38
175 59
189 65
209 31
241 2
255 9
283 12
299 999
300 549
301 222
302 86
315 169
316 58
343 551
344 300
345 152
358 42
359 1

$$$$

     RDKit          2D

 22 21  0  0  0  0  0  0  0  0999 V2000
    4.7844    8.7623    0.0000 C   0  0  0  0  0  0  0  0  0  0  0  0
  -13.4022    7.2623    0.0000 C   0  0  0  0  0  0  0  0  0  0  0  0
  -14.1522   10.0613    0.0000 C   0  0  0  0  0  0  0  0  0  0  0  0
  -14.7012    8.0123    0.0000 C   0  0  0  0  0  0  0  0  0  0  0  0
  -12.6522    7.4632    0.0000 C   0  0  0  0  0  0  0  0  0  0  0  0
    3.4853    9.5123    0.0000 C   0  0  0  0  0  0  0  0  0  0  0  0
    2.1863    8.7623    0.0000 C   0  0  0  0  0  0  0  0  0  0  0  0
    0.8873    9.5123    0.0000 C   0  0  0  0  0  0  0  0  0  0  0  0
   -0.4118    8.7623    0.0000 C   0  0  0  0  0  0  0  0  0  0  0  0
   -1.7108    9.5123    0.0000 C   0  0  0  0  0  0  0  0  0  0  0  0
   -3.0099    8.7623    0.0000 C   0  0  0  0  0  0  0  0  0  0  0  0
   -4.3089    9.5123    0.0000 C   0  0  0  0  0  0  0  0  0  0  0  0
   -5.6079    8.7623    0.0000 C   0  0  0  0  0  0  0  0  0  0  0  0
   -6.9070    9.5123    0.0000 C   0  0  0  0  0  0  0  0  0  0  0  0
   -8.2060    8.7623    0.0000 C   0  0  0  0  0  0  0  0  0  0  0  0
   -9.5050    9.5123    0.0000 C   0  0  0  0  0  0  0  0  0  0  0  0
  -10.8041    8.7623    0.0000 C   0  0  0  0  0  0  0  0  0  0  0  0
  -10.8041    7.2623    0.0000 C   0  0  0  0  0  0  0  0  0  0  0  0
   -9.5050    6.5123    0.0000 O   0  0  0  0  0  0  0  0  0  0  0  0
  -12.1031    6.5123    0.0000 O   0  0  0  0  0  0  0  0  0  0  0  0
  -12.1031    9.5123    0.0000 O   0  0  0  0  0  0  0  0  0  0  0  0
  -13.4022    8.7623    0.0000 Si  0  0  0  0  0  4  0  0  0  0  0  0
  6  1  1  0
  7  6  1  0
  8  7  1  0
  9  8  1  0
 10  9  1  0
 11 10  1  0
 12 11  1  0
 13 12  1  0
 14 13  1  0
 15 14  1  0
 16 15  1  0
 17 16  1  0
 18 17  1  0
 19 18  2  0
 20  2  1  0
 20 18  1  0
 21 17  1  0
 22  3  1  0
 22  4  1  0
 22  5  1  0
 22 21  1  0
M  END
>  <NAME>  (4740) 
METHYL 2-TRIMETHYLSILOXY-TETRADECANOATE

>  <SYNONYMS>  (4740) 


>  <SPECTRUM TYPE>  (4740) 
MS1

>  <INSTRUMENT TYPE>  (4740) 
EI-B

>  <INSTRUMENT>  (4740) 
SHIMADZU LKB-9000B

>  <ION MODE>  (4740) 
P

>  <INCHIKEY>  (4740) 
MTVNRDDQMNKJFO-UHFFFAOYSA-N

>  <FORMULA>  (4740) 
C18H38O3Si

>  <EXACT MASS>  (4740) 
330.259021606

>  <MW>  (4740) 
330

>  <ID>  (4740) 
JP002741

>  <CONTRIBUTOR>  (4740) 
University of Tokyo Team, {Faculty of Engineering, University of Tokyo

>  <COMMENT>  (4740) 
SMILES=CCCCCCCCCCCCC(C(=O)OC)O[Si](C)(C)C
InChI=InChI=1S/C18H38O3Si/c1-6-7-8-9-10-11-12-13-14-15-16-17(18(19)20-2)21-22(3,4)5/h17H,6-16H2,1-5H3
computed SMILES=O=C(OC)C(O[Si](C)(C)C)CCCCCCCCCCCC
accession=JP002741
date=2016.01.19 (Created 2008.10.21, modified 2011.05.06)
author=HAYASHI A, DEPT. OF CHEMISTRY, FAC. OF SCI. AND TECHNOLOGY, KINKI UNIV.
license=CC BY-NC-SA
exact mass=330.25902
ionization energy=70 eV
ion type=[M]+*
computed spectral entropy=3.667547320922053
computed normalized entropy=0.7411043174781694
SPLASH=splash10-00di-9220000000-6dc1a89ef7a41652a3a0
submitter=submitter = University of Tokyo Team (Faculty of Engineering, University of Tokyo)
MoNA Rating=3.75

>  <NUM PEAKS>  (4740) 
141

>  <MASS SPECTRAL PEAKS>  (4740) 
35 4.5
36 2.5
37 1.8
38 0.9
39 3.6
40 8.8
41 22.7
42 0.33
43 23.8
44 4.9
45 8.2
46 0.08
47 13.5
48 5.7
49 4.3
50 0.26
51 1
53 1.9
54 1.9
55 1.87
56 5
57 19.4
58 2.5
59 1.75
60 2
61 2.4
65 2.2
66 0.06
67 6.2
68 2.4
69 21.3
70 0.25
71 5.9
72 2.6
73 99.99
74 0.98
75 25.7
76 4.9
77 2.6
78 0.07
79 1.5
80 0.7
81 6.6
82 0.23
83 48.4
84 2.3
85 30.1
86 0.07
87 5.7
88 1
89 48.1
90 0.42
91 7.9
92 0.9
93 2.3
94 0.07
95 5.7
96 1.2
97 18.7
98 0.23
99 1.5
101 5.3
102 0.9
103 2.4
104 5.2
105 3.5
106 0.5
107 0.22
108 0.8
109 2.7
110 0.8
111 0.72
112 1
113 1.2
115 3.5
116 0.24
117 2.3
118 1
119 4.3
120 0.08
121 1.7
122 1.1
123 1.5
124 0.06
125 2.3
127 0.8
129 12.5
130 0.18
131 3.5
132 1
133 0.3
135 0.08
137 0.5
143 1.5
145 2.4
146 0.33
147 0.8
148 0.8
149 41
150 0.4
151 0.6
157 0.9
159 10.9
160 0.18
161 1.7
162 1.8
163 0.5
171 0.08
173 0.6
179 0.6
185 1.2
187 0.05
191 0.1
197 0.9
199 0.7
201 0.06
205 1.8
206 0.5
207 0.2
221 0.04
223 2.1
243 0.6
255 0.7
257 0.5
269 1.3
270 0.9
271 95.1
272 0.12
273 21.9
274 0.9
281 0.1
283 0.02
287 4.5
288 1.2
289 0.4
313 0.08
314 1.1
315 33.2
316 8.4
317 0.22
330 0.4

>  <PREDICTED SPECTRUM>  (4740) 
29 60
39 31
40 9
41 290
42 96
43 390
44 98
45 172
46 23
47 94
51 36
52 16
53 77
54 108
55 416
56 201
57 414
58 206
59 296
60 64
61 144
62 37
63 36
66 48
67 259
68 135
69 401
70 181
71 255
72 86
73 958
74 198
75 388
76 144
77 146
78 10
79 68
80 42
81 253
82 162
83 446
84 101
85 254
86 62
87 149
88 93
89 578
90 240
91 320
93 65
95 246
96 80
97 375
98 134
99 132
100 24
101 108
102 60
103 372
104 183
105 140
107 9
109 230
110 58
111 237
112 51
113 80
115 152
116 119
117 107
118 6
119 52
123 34
124 31
125 170
126 50
127 25
129 237
130 85
131 174
132 57
133 73
137 12
143 72
144 24
145 73
146 14
147 83
148 12
149 34
155 10
157 15
159 54
161 101
175 48
181 54
182 7
213 14
227 1
255 13
271 999
272 526
273 210
274 73
287 160
288 50
315 530
316 270
317 151
330 47

$$$$

     RDKit          2D

 20 19  0  0  0  0  0  0  0  0999 V2000
    4.1349    7.6373    0.0000 C   0  0  0  0  0  0  0  0  0  0  0  0
  -11.4536    6.1373    0.0000 C   0  0  0  0  0  0  0  0  0  0  0  0
  -12.2036    8.9363    0.0000 C   0  0  0  0  0  0  0  0  0  0  0  0
  -12.7526    6.8873    0.0000 C   0  0  0  0  0  0  0  0  0  0  0  0
  -10.7036    6.3382    0.0000 C   0  0  0  0  0  0  0  0  0  0  0  0
    2.8358    8.3873    0.0000 C   0  0  0  0  0  0  0  0  0  0  0  0
    1.5368    7.6373    0.0000 C   0  0  0  0  0  0  0  0  0  0  0  0
    0.2377    8.3873    0.0000 C   0  0  0  0  0  0  0  0  0  0  0  0
   -1.0613    7.6373    0.0000 C   0  0  0  0  0  0  0  0  0  0  0  0
   -2.3603    8.3873    0.0000 C   0  0  0  0  0  0  0  0  0  0  0  0
   -3.6594    7.6373    0.0000 C   0  0  0  0  0  0  0  0  0  0  0  0
   -4.9584    8.3873    0.0000 C   0  0  0  0  0  0  0  0  0  0  0  0
   -6.2575    7.6373    0.0000 C   0  0  0  0  0  0  0  0  0  0  0  0
   -7.5565    8.3873    0.0000 C   0  0  0  0  0  0  0  0  0  0  0  0
   -8.8555    7.6373    0.0000 C   0  0  0  0  0  0  0  0  0  0  0  0
   -8.8555    6.1373    0.0000 C   0  0  0  0  0  0  0  0  0  0  0  0
   -7.5565    5.3873    0.0000 O   0  0  0  0  0  0  0  0  0  0  0  0
  -10.1546    5.3873    0.0000 O   0  0  0  0  0  0  0  0  0  0  0  0
  -10.1546    8.3873    0.0000 O   0  0  0  0  0  0  0  0  0  0  0  0
  -11.4536    7.6373    0.0000 Si  0  0  0  0  0  4  0  0  0  0  0  0
  6  1  1  0
  7  6  1  0
  8  7  1  0
  9  8  1  0
 10  9  1  0
 11 10  1  0
 12 11  1  0
 13 12  1  0
 14 13  1  0
 15 14  1  0
 16 15  1  0
 17 16  2  0
 18  2  1  0
 18 16  1  0
 19 15  1  0
 20  3  1  0
 20  4  1  0
 20  5  1  0
 20 19  1  0
M  END
>  <NAME>  (4741) 
METHYL 2-TRIMETHYLSILOXY-DODECANOATE

>  <SYNONYMS>  (4741) 


>  <SPECTRUM TYPE>  (4741) 
MS1

>  <INSTRUMENT TYPE>  (4741) 
EI-B

>  <INSTRUMENT>  (4741) 
SHIMADZU LKB-9000B

>  <ION MODE>  (4741) 
P

>  <INCHIKEY>  (4741) 
PHPBKGTVQKCOSS-UHFFFAOYSA-N

>  <FORMULA>  (4741) 
C16H34O3Si

>  <EXACT MASS>  (4741) 
302.227721478

>  <MW>  (4741) 
302

>  <ID>  (4741) 
JP002740

>  <CONTRIBUTOR>  (4741) 
University of Tokyo Team, {Faculty of Engineering, University of Tokyo

>  <COMMENT>  (4741) 
SMILES=CCCCCCCCCCC(C(=O)OC)O[Si](C)(C)C
InChI=InChI=1S/C16H34O3Si/c1-6-7-8-9-10-11-12-13-14-15(16(17)18-2)19-20(3,4)5/h15H,6-14H2,1-5H3
computed SMILES=O=C(OC)C(O[Si](C)(C)C)CCCCCCCCCC
accession=JP002740
date=2016.01.19 (Created 2008.10.21, modified 2011.05.06)
author=HAYASHI A, DEPT. OF CHEMISTRY, FAC. OF SCI. AND TECHNOLOGY, KINKI UNIV.
license=CC BY-NC-SA
exact mass=302.22772
ionization energy=70 eV
ion type=[M]+*
computed spectral entropy=3.376587809161402
computed normalized entropy=0.7211647101218291
SPLASH=splash10-00ec-9120000000-7d8e020cbc9d2eac65bb
submitter=submitter = University of Tokyo Team (Faculty of Engineering, University of Tokyo)
MoNA Rating=3.75

>  <NUM PEAKS>  (4741) 
108

>  <MASS SPECTRAL PEAKS>  (4741) 
31 0.9
33 0.2
35 6
36 5
37 2.6
38 0.7
39 1.9
41 1.55
42 1
43 10.3
45 1.1
46 0.04
47 20.7
48 9.7
49 6.7
50 0.28
51 0.9
52 1
53 0.6
54 0.11
55 10.9
56 3.8
57 5.7
58 0.18
59 19.8
60 0.5
61 2.4
67 0.37
68 1.3
69 19.7
70 0.9
71 0.51
72 2.5
73 99.99
74 9.5
75 2.28
76 1.3
77 0.9
79 2.1
81 0.37
82 1.5
83 69.5
84 1
85 4.55
86 0.1
87 2.3
88 0.9
89 4.9
90 4.6
91 5.7
93 1.3
95 0.31
96 1.5
97 21.8
98 1.5
100 0.12
101 7.1
102 0.5
103 22.4
104 0.31
105 2.6
107 1.3
109 1.8
111 0.54
112 1.1
113 1.4
114 1.1
115 0.33
116 2.3
117 1.7
118 1.3
119 0.5
120 1.4
123 1
126 0.4
128 0.01
129 7.8
130 1.5
131 3.7
133 0.02
142 1.1
143 0.6
144 0.1
145 0.61
146 2.6
147 0.9
149 1
157 0.13
158 0.6
159 7.6
160 1.6
161 0.12
162 1.4
172 0.1
173 1.1
185 0.1
187 0.3
201 0.9
203 0.3
207 0.14
215 0.3
243 64.8
244 13.6
245 0.34
259 3.4
287 21.9
288 4.7
289 1.2

>  <PREDICTED SPECTRUM>  (4741) 
27 9
29 110
39 35
40 3
41 286
42 81
43 372
44 86
45 160
46 3
47 88
51 41
52 18
53 90
54 98
55 416
56 207
57 348
58 211
59 276
60 68
61 121
62 36
63 7
66 49
67 237
68 122
69 390
70 186
71 224
72 75
73 962
74 216
75 383
76 147
77 130
78 20
79 37
80 17
81 227
82 128
83 392
84 73
85 217
86 40
87 153
88 156
89 559
90 239
91 297
93 7
95 197
96 62
97 340
98 122
99 100
101 130
102 21
103 353
104 221
105 141
109 183
110 34
111 190
112 34
113 31
115 144
116 73
117 103
118 37
119 107
120 19
123 8
125 115
126 9
127 43
129 203
130 90
131 124
132 73
133 134
135 25
139 4
146 25
147 109
149 33
153 61
154 6
159 47
175 57
183 6
185 42
218 6
227 13
230 2
243 999
244 500
245 198
246 54
259 142
260 36
273 14
287 494
288 250
289 144
302 32

$$$$

     RDKit          2D

 27 26  0  0  0  0  0  0  0  0999 V2000
    8.4437   13.8750    0.0000 C   0  0  0  0  0  0  0  0  0  0  0  0
  -24.0322   14.6250    0.0000 C   0  0  0  0  0  0  0  0  0  0  0  0
    7.1447   14.6250    0.0000 C   0  0  0  0  0  0  0  0  0  0  0  0
    5.8457   13.8750    0.0000 C   0  0  0  0  0  0  0  0  0  0  0  0
    4.5466   14.6250    0.0000 C   0  0  0  0  0  0  0  0  0  0  0  0
    3.2476   13.8750    0.0000 C   0  0  0  0  0  0  0  0  0  0  0  0
    1.9486   14.6250    0.0000 C   0  0  0  0  0  0  0  0  0  0  0  0
    0.6495   13.8750    0.0000 C   0  0  0  0  0  0  0  0  0  0  0  0
   -0.6495   14.6250    0.0000 C   0  0  0  0  0  0  0  0  0  0  0  0
   -1.9486   13.8750    0.0000 C   0  0  0  0  0  0  0  0  0  0  0  0
   -3.2476   14.6250    0.0000 C   0  0  0  0  0  0  0  0  0  0  0  0
   -4.5466   13.8750    0.0000 C   0  0  0  0  0  0  0  0  0  0  0  0
   -5.8457   14.6250    0.0000 C   0  0  0  0  0  0  0  0  0  0  0  0
   -7.1447   13.8750    0.0000 C   0  0  0  0  0  0  0  0  0  0  0  0
   -8.4437   14.6250    0.0000 C   0  0  0  0  0  0  0  0  0  0  0  0
   -9.7428   13.8750    0.0000 C   0  0  0  0  0  0  0  0  0  0  0  0
  -11.0418   14.6250    0.0000 C   0  0  0  0  0  0  0  0  0  0  0  0
  -12.3409   13.8750    0.0000 C   0  0  0  0  0  0  0  0  0  0  0  0
  -13.6399   14.6250    0.0000 C   0  0  0  0  0  0  0  0  0  0  0  0
  -14.9389   13.8750    0.0000 C   0  0  0  0  0  0  0  0  0  0  0  0
  -16.2380   14.6250    0.0000 C   0  0  0  0  0  0  0  0  0  0  0  0
  -17.5370   13.8750    0.0000 C   0  0  0  0  0  0  0  0  0  0  0  0
  -18.8361   14.6250    0.0000 C   0  0  0  0  0  0  0  0  0  0  0  0
  -20.1351   13.8750    0.0000 C   0  0  0  0  0  0  0  0  0  0  0  0
  -21.4341   14.6250    0.0000 C   0  0  0  0  0  0  0  0  0  0  0  0
  -21.4341   16.1250    0.0000 O   0  0  0  0  0  0  0  0  0  0  0  0
  -22.7332   13.8750    0.0000 O   0  0  0  0  0  0  0  0  0  0  0  0
  3  1  1  0
  4  3  1  0
  5  4  1  0
  6  5  1  0
  7  6  1  0
  8  7  1  0
  9  8  1  0
 10  9  1  0
 10 11  2  0
 12 11  1  0
 13 12  1  0
 14 13  1  0
 15 14  1  0
 16 15  1  0
 17 16  1  0
 18 17  1  0
 19 18  1  0
 20 19  1  0
 21 20  1  0
 22 21  1  0
 23 22  1  0
 24 23  1  0
 25 24  1  0
 26 25  2  0
 27  2  1  0
 27 25  1  0
M  END
>  <NAME>  (4742) 
METHYL 15-TETRACOSENOATE

>  <SYNONYMS>  (4742) 


>  <SPECTRUM TYPE>  (4742) 
MS1

>  <INSTRUMENT TYPE>  (4742) 
EI-B

>  <INSTRUMENT>  (4742) 
SHIMADZU LKB-9000B

>  <ION MODE>  (4742) 
P

>  <INCHIKEY>  (4742) 
AINIZSBLAFHZCP-ZHACJKMWSA-N

>  <FORMULA>  (4742) 
C25H48O2

>  <EXACT MASS>  (4742) 
380.365430776

>  <MW>  (4742) 
380

>  <ID>  (4742) 
JP002732

>  <CONTRIBUTOR>  (4742) 
University of Tokyo Team, {Faculty of Engineering, University of Tokyo

>  <COMMENT>  (4742) 
SMILES=CCCCCCCCC=CCCCCCCCCCCCCCC(=O)OC
InChI=InChI=1S/C25H48O2/c1-3-4-5-6-7-8-9-10-11-12-13-14-15-16-17-18-19-20-21-22-23-24-25(26)27-2/h10-11H,3-9,12-24H2,1-2H3/b11-10+
computed SMILES=O=C(OC)CCCCCCCCCCCCCC=CCCCCCCCC
accession=JP002732
date=2016.01.19 (Created 2008.10.21, modified 2011.05.06)
author=HAYASHI A, DEPT. OF CHEMISTRY, FAC. OF SCI. AND TECHNOLOGY, KINKI UNIV.
license=CC BY-NC-SA
exact mass=380.36543
ionization energy=70 eV
ion type=[M]+*
computed spectral entropy=3.3860616895039923
computed normalized entropy=0.7149323928037304
SPLASH=splash10-0k9t-9400000000-cf1a06fe1d40502f1a37
submitter=submitter = University of Tokyo Team (Faculty of Engineering, University of Tokyo)
MoNA Rating=3.75

>  <NUM PEAKS>  (4742) 
114

>  <MASS SPECTRAL PEAKS>  (4742) 
30 3.2
31 20.4
32 99.99
33 0.4
38 1.8
39 2.1
41 9.1
42 1.08
43 25.4
44 9.8
45 81.3
46 0.28
47 1.9
51 0.1
52 1.7
53 0.24
54 1.8
55 52
56 81.4
57 0.93
58 8.2
59 4.2
60 1.7
61 0.11
63 1.7
64 1.6
67 2.9
68 0.25
69 3.8
70 13.6
71 5
72 0.15
73 23.3
74 3
75 13.5
76 0.78
77 1.2
79 2
80 2
81 0.18
82 2.5
83 2
84 6.3
85 0.2
86 5.6
87 7.6
88 1.9
89 0.44
91 3.1
93 2
94 1.8
95 0.26
96 1.8
97 2.5
98 3
99 9.48
100 69.9
101 48.1
102 5.8
103 0.17
104 0.3
105 0.2
107 0.4
108 0.02
109 1.6
110 1.7
111 0.7
112 0.02
113 0.3
114 8.1
115 2.7
117 0.22
119 0.2
126 11.2
127 4.6
128 0.4
129 0.8
130 1.1
131 0.6
133 0.08
135 1.6
142 1.6
143 1.6
144 0.02
145 85.1
146 6.4
147 2.4
158 0.67
159 4.7
160 2.5
170 1.7
171 0.46
172 2.6
173 0.4
187 1.1
188 0.03
189 12.4
190 1.3
201 0.6
203 0.09
207 0.3
215 6.7
219 0.2
231 0.4
233 7
234 0.07
259 0.7
270 0.9
289 2.8
290 0.23
333 12.6
334 2.1
335 0.1
348 1.7

>  <PREDICTED SPECTRUM>  (4742) 
15 20
16 3
17 18
18 32
25 0
26 41
27 141
28 172
29 262
31 28
32 42
33 4
36 12
39 154
40 83
41 510
42 226
43 544
44 115
45 81
50 16
51 68
52 65
53 255
54 472
55 999
56 506
57 672
58 69
59 453
60 37
61 42
62 45
63 15
65 129
66 133
67 606
68 485
69 859
70 411
71 379
72 101
73 117
74 775
75 336
76 65
77 134
78 87
79 296
80 235
81 584
82 571
83 784
84 585
85 357
86 56
87 655
88 142
89 30
91 128
92 62
93 141
94 200
95 526
96 686
97 710
98 602
99 260
100 141
101 245
102 47
103 2
104 12
105 93
106 74
107 141
108 189
109 414
110 492
111 505
112 298
113 218
114 231
115 242
116 75
117 35
118 17
119 148
120 62
121 204
122 139
123 379
124 336
125 389
126 154
127 157
128 127
129 148
130 64
131 42
132 10
133 152
134 135
135 178
136 165
137 281
138 303
139 289
140 137
141 281
142 138
143 181
144 64
147 77
148 86
149 171
150 101
151 185
152 305
153 186
154 96
155 66
156 76
157 121
158 65
159 24
161 97
162 23
163 111
164 79
165 159
166 136
167 163
168 96
169 98
171 132
172 40
173 23
175 120
176 37
177 112
178 46
179 98
180 180
181 146
182 74
183 118
185 181
189 84
190 47
191 88
192 104
193 115
194 147
195 177
196 60
197 91
199 126
200 57
203 35
204 15
205 12
206 74
207 148
208 160
209 124
210 69
211 63
213 80
217 46
218 18
219 34
220 106
221 176
222 238
223 135
224 91
225 71
227 106
228 50
229 14
232 28
234 10
235 171
236 212
237 91
238 46
239 19
240 3
241 86
242 19
245 10
246 47
247 35
248 61
249 167
250 241
251 131
252 41
253 78
254 52
255 73
256 15
259 24
261 10
262 45
263 187
264 361
265 176
266 46
267 60
268 0
269 36
270 26
275 16
277 151
278 86
279 60
280 44
281 68
282 10
283 75
284 25
291 148
292 121
293 62
294 43
295 46
297 28
298 41
304 110
305 145
306 410
307 176
308 27
312 18
319 153
320 119
321 19
323 8
330 149
332 76
333 14
337 13
338 25
339 27
348 639
349 301
350 185
351 45
380 188
381 102
382 11

$$$$

     RDKit          2D

 19 18  0  0  0  0  0  0  0  0999 V2000
  -16.2380   10.1250    0.0000 C   0  0  0  0  0  0  0  0  0  0  0  0
    5.8457    9.3750    0.0000 C   0  0  0  0  0  0  0  0  0  0  0  0
  -14.9389    9.3750    0.0000 C   0  0  0  0  0  0  0  0  0  0  0  0
  -13.6399   10.1250    0.0000 C   0  0  0  0  0  0  0  0  0  0  0  0
  -12.3409    9.3750    0.0000 C   0  0  0  0  0  0  0  0  0  0  0  0
  -11.0418   10.1250    0.0000 C   0  0  0  0  0  0  0  0  0  0  0  0
   -9.7428    9.3750    0.0000 C   0  0  0  0  0  0  0  0  0  0  0  0
   -8.4437   10.1250    0.0000 C   0  0  0  0  0  0  0  0  0  0  0  0
   -7.1447    9.3750    0.0000 C   0  0  0  0  0  0  0  0  0  0  0  0
   -5.8457   10.1250    0.0000 C   0  0  0  0  0  0  0  0  0  0  0  0
   -4.5466    9.3750    0.0000 C   0  0  0  0  0  0  0  0  0  0  0  0
   -3.2476   10.1250    0.0000 C   0  0  0  0  0  0  0  0  0  0  0  0
   -1.9486    9.3750    0.0000 C   0  0  0  0  0  0  0  0  0  0  0  0
   -0.6495   10.1250    0.0000 C   0  0  0  0  0  0  0  0  0  0  0  0
    0.6495    9.3750    0.0000 C   0  0  0  0  0  0  0  0  0  0  0  0
    1.9486   10.1250    0.0000 C   0  0  0  0  0  0  0  0  0  0  0  0
    3.2476    9.3750    0.0000 C   0  0  0  0  0  0  0  0  0  0  0  0
    3.2476    7.8750    0.0000 O   0  0  0  0  0  0  0  0  0  0  0  0
    4.5466   10.1250    0.0000 O   0  0  0  0  0  0  0  0  0  0  0  0
  3  1  1  0
  4  3  1  0
  5  4  1  0
  6  5  1  0
  7  6  1  0
  8  7  1  0
  8  9  2  0
 10  9  1  0
 11 10  1  0
 12 11  1  0
 13 12  1  0
 14 13  1  0
 15 14  1  0
 16 15  1  0
 17 16  1  0
 18 17  2  0
 19  2  1  0
 19 17  1  0
M  END
>  <NAME>  (4743) 
METHYL 9-HEXADECENOATE

>  <SYNONYMS>  (4743) 


>  <SPECTRUM TYPE>  (4743) 
MS1

>  <INSTRUMENT TYPE>  (4743) 
EI-B

>  <INSTRUMENT>  (4743) 
SHIMADZU LKB-9000B

>  <ION MODE>  (4743) 
P

>  <INCHIKEY>  (4743) 
IZFGRAGOVZCUFB-CMDGGOBGSA-N

>  <FORMULA>  (4743) 
C17H32O2

>  <EXACT MASS>  (4743) 
268.240230264

>  <MW>  (4743) 
268

>  <ID>  (4743) 
JP002731

>  <CONTRIBUTOR>  (4743) 
University of Tokyo Team, {Faculty of Engineering, University of Tokyo

>  <COMMENT>  (4743) 
SMILES=CCCCCCC=CCCCCCCCC(=O)OC
InChI=InChI=1S/C17H32O2/c1-3-4-5-6-7-8-9-10-11-12-13-14-15-16-17(18)19-2/h8-9H,3-7,10-16H2,1-2H3/b9-8+
computed SMILES=O=C(OC)CCCCCCCC=CCCCCCC
accession=JP002731
date=2016.01.19 (Created 2008.10.21, modified 2011.05.06)
author=HAYASHI A, DEPT. OF CHEMISTRY, FAC. OF SCI. AND TECHNOLOGY, KINKI UNIV.
license=CC BY-NC-SA
exact mass=268.24023
ionization energy=70 eV
ion type=[M]+*
computed spectral entropy=4.024568522250392
computed normalized entropy=0.8042789183146478
SPLASH=splash10-067m-9200000000-8744795f5ff5c5b33df4
submitter=submitter = University of Tokyo Team (Faculty of Engineering, University of Tokyo)
MoNA Rating=3.75

>  <NUM PEAKS>  (4743) 
149

>  <MASS SPECTRAL PEAKS>  (4743) 
30 0.9
31 5.6
33 1.4
37 0.07
38 0.8
39 13.4
40 31.9
41 8.27
42 21.7
43 59.4
44 19.3
45 6.37
46 1.8
47 0.8
50 0.6
51 0.11
52 1.2
53 11.1
55 99.99
56 2.6
57 19.7
58 1.8
59 21.6
60 0.16
61 1.1
63 0.7
65 3
66 0.28
67 37.7
68 22.8
69 69.1
70 1.45
71 8.6
72 1.5
73 6.1
74 7.06
75 11.5
76 1.2
77 4
78 0.16
79 9.7
80 5.4
81 31.8
82 1.92
83 43.8
84 35.9
85 7.7
86 0.08
87 44.2
88 4.5
89 0.9
91 0.3
92 0.9
93 4.7
94 4.8
95 2.2
96 34.8
97 36.5
98 29.7
99 0.93
100 8.8
101 15.2
102 1.8
103 0.06
105 1.7
106 0.7
107 3.7
108 0.33
109 11.3
110 19.4
111 18.3
112 0.69
113 3.9
114 5.6
115 7.6
116 0.16
117 0.8
119 3.3
120 1.4
121 0.41
122 2.1
123 13.5
124 10.1
125 0.88
126 1.1
127 3
128 4.7
129 0.41
130 1.6
131 0.7
133 3.3
134 0.24
135 4
136 2
137 8
138 0.88
139 5.7
140 1.4
141 7.4
142 0.16
143 3.3
144 0.6
145 9.8
146 0.06
147 2.1
148 1.7
149 2.4
150 0.09
151 5.6
152 15
153 4.9
154 0.07
155 2.1
157 1.5
158 0.7
161 0.15
163 0.8
165 3.4
166 3.2
167 0.15
169 0.8
171 1.1
172 0.7
173 0.7
175 1
179 2.4
180 1.2
181 0.09
185 1.3
186 0.7
189 0.8
192 0.46
193 3.5
194 15.4
195 3
199 0.07
200 0.6
207 2.2
208 1.9
218 0.18
219 1.3
221 0.7
225 0.8
236 2.3
237 15.2
238 2.4
268 6.1
269 0.13
270 0.7

>  <PREDICTED SPECTRUM>  (4743) 
14 4
15 52
16 8
17 15
18 20
26 46
27 208
28 170
29 310
30 20
31 49
32 36
33 17
36 6
38 15
39 239
40 131
41 622
42 315
43 557
44 155
45 124
50 48
51 109
52 118
53 322
54 500
55 999
56 496
57 535
58 78
59 461
60 106
61 98
62 63
63 58
64 0
65 172
66 145
67 595
68 468
69 788
70 412
71 296
72 125
73 233
74 727
75 281
76 65
77 156
78 98
79 312
80 241
81 568
82 479
83 681
84 583
85 303
86 49
87 585
88 162
89 42
91 188
92 87
93 176
94 202
95 489
96 626
97 618
98 536
99 205
100 131
101 271
102 81
103 6
104 3
105 113
106 79
107 152
108 139
109 390
110 481
111 437
112 207
113 188
114 237
115 287
116 94
117 33
118 35
119 175
120 100
121 176
122 110
123 395
124 310
125 309
126 108
127 146
128 123
129 192
130 64
131 32
132 11
133 166
134 147
135 134
136 101
137 248
138 313
139 191
140 105
141 298
142 141
143 145
144 26
147 90
148 93
149 118
150 83
151 262
152 332
153 192
154 60
155 65
156 23
157 83
158 57
161 63
162 26
163 53
164 11
165 138
166 117
167 62
168 38
169 100
170 3
171 80
172 66
175 48
176 48
177 15
178 46
179 108
180 116
181 30
182 27
183 57
185 53
186 49
192 239
193 167
194 356
195 175
196 47
197 37
199 37
200 24
207 99
208 105
209 32
211 14
213 22
218 136
219 68
220 75
221 21
225 27
236 455
237 364
238 152
239 33
268 288
269 107
270 41

$$$$

     RDKit          2D

 25 25  0  0  0  0  0  0  0  0999 V2000
    5.7937   -2.3182    0.0000 C   0  0  0  0  0  0  0  0  0  0  0  0
    4.2937   -3.8182    0.0000 C   0  0  0  0  0  0  0  0  0  0  0  0
    2.7937   -2.3182    0.0000 C   0  0  0  0  0  0  0  0  0  0  0  0
    2.7945    3.6827    0.0000 C   0  0  0  0  0  0  0  0  0  0  0  0
    4.2948    5.1824    0.0000 C   0  0  0  0  0  0  0  0  0  0  0  0
    5.7945    3.6822    0.0000 C   0  0  0  0  0  0  0  0  0  0  0  0
   -5.3486    3.4808    0.0000 C   0  0  0  0  0  0  0  0  0  0  0  0
   -7.3977    2.9318    0.0000 C   0  0  0  0  0  0  0  0  0  0  0  0
   -6.8486    0.8828    0.0000 C   0  0  0  0  0  0  0  0  0  0  0  0
    0.3961   -0.0690    0.0000 C   0  0  0  0  0  0  0  0  0  0  0  0
   -0.9025    2.1818    0.0000 C   0  0  0  0  0  0  0  0  0  0  0  0
    1.6951   -0.8190    0.0000 C   0  0  0  0  0  0  0  0  0  0  0  0
   -2.2015    1.4318    0.0000 C   0  0  0  0  0  0  0  0  0  0  0  0
    1.6961    2.1826    0.0000 C   0  0  0  0  0  0  0  0  0  0  0  0
    0.3966    1.4318    0.0000 C   0  0  0  0  0  0  0  0  0  0  0  0
    2.9946   -0.0682    0.0000 C   0  0  0  0  0  0  0  0  0  0  0  0
    2.9951    1.4326    0.0000 C   0  0  0  0  0  0  0  0  0  0  0  0
   -3.5005    2.1818    0.0000 C   0  0  0  0  0  0  0  0  0  0  0  0
   -3.5005    3.6818    0.0000 O   0  0  0  0  0  0  0  0  0  0  0  0
    4.2937   -0.8182    0.0000 O   0  0  0  0  0  0  0  0  0  0  0  0
    4.2943    2.1824    0.0000 O   0  0  0  0  0  0  0  0  0  0  0  0
   -4.7996    1.4318    0.0000 O   0  0  0  0  0  0  0  0  0  0  0  0
    4.2937   -2.3182    0.0000 Si  0  0  0  0  0  4  0  0  0  0  0  0
    4.2945    3.6824    0.0000 Si  0  0  0  0  0  4  0  0  0  0  0  0
   -6.0986    2.1818    0.0000 Si  0  0  0  0  0  4  0  0  0  0  0  0
 12 10  2  0
 13 11  1  0
 15 10  1  0
 15 11  1  0
 15 14  2  0
 16 12  1  0
 17 14  1  0
 17 16  2  0
 18 13  1  0
 19 18  2  0
 20 16  1  0
 21 17  1  0
 22 18  1  0
 23  1  1  0
 23  2  1  0
 23  3  1  0
 23 20  1  0
 24  4  1  0
 24  5  1  0
 24  6  1  0
 24 21  1  0
 25  7  1  0
 25  8  1  0
 25  9  1  0
 25 22  1  0
M  END
>  <NAME>  (4744) 
3,4-DIHYDROXYHYDROCINNAM1C AC1D-TRI-TMS

>  <SYNONYMS>  (4744) 


>  <SPECTRUM TYPE>  (4744) 
MS1

>  <INSTRUMENT TYPE>  (4744) 
EI-B

>  <INSTRUMENT>  (4744) 
SHIMADZU LKB-9000B

>  <ION MODE>  (4744) 
P

>  <INCHIKEY>  (4744) 
DJVNRWGQENHJMA-UHFFFAOYSA-N

>  <FORMULA>  (4744) 
C18H34O4Si3

>  <EXACT MASS>  (4744) 
398.176489158

>  <MW>  (4744) 
398

>  <ID>  (4744) 
JP002726

>  <CONTRIBUTOR>  (4744) 
University of Tokyo Team, {Faculty of Engineering, University of Tokyo

>  <COMMENT>  (4744) 
SMILES=O=C(CCc(c1)cc(O[Si](C)(C)C)c(c1)O[Si](C)(C)C)O[Si](C)(C)C
InChI=InChI=1S/C18H34O4Si3/c1-23(2,3)20-16-12-10-15(14-17(16)21-24(4,5)6)11-13-18(19)22-25(7,8)9/h10,12,14H,11,13H2,1-9H3
computed SMILES=O=C(O[Si](C)(C)C)CCC1=CC=C(O[Si](C)(C)C)C(O[Si](C)(C)C)=C1
accession=JP002726
date=2016.01.19 (Created 2008.10.21, modified 2011.05.06)
author=HAYASHI A, DEPT. OF CHEMISTRY, FAC. OF SCI. AND TECHNOLOGY, KINKI UNIV.
license=CC BY-NC-SA
exact mass=398.17649
ionization energy=70 eV
ion type=[M]+*
computed spectral entropy=3.336958959691309
computed normalized entropy=0.6146153123675653
SPLASH=splash10-00b9-8922000000-74671a9e1b8c8a0a4760
submitter=submitter = University of Tokyo Team (Faculty of Engineering, University of Tokyo)
MoNA Rating=3.75

>  <NUM PEAKS>  (4744) 
228

>  <MASS SPECTRAL PEAKS>  (4744) 
55 3.2
56 0.5
57 2
58 0.8
59 5
60 0.5
61 1.2
63 0.02
65 0.6
66 0.2
67 0.9
68 0.04
69 1.7
70 0.3
71 0.9
72 0.16
73 99.99
74 8.6
75 21.7
76 0.17
77 1.6
78 0.4
79 0.4
80 0.01
81 1.1
82 0.3
83 1
84 0.07
85 0.7
87 0.3
88 0.3
89 0.06
90 0.1
91 1.4
92 0.2
93 0.06
94 0.2
95 1.3
97 1.3
98 0.04
99 0.6
101 0.4
102 0.2
103 0.08
104 1
105 1.4
106 0.3
107 0.04
108 0.2
109 0.8
110 0.2
111 0.05
112 0.2
113 0.2
115 1
116 0.11
117 3.6
118 0.7
119 0.5
120 0.03
121 0.4
122 0.2
123 0.5
124 0.02
125 0.2
126 0.5
127 0.2
128 0.02
129 1.5
130 0.2
131 1.5
132 0.15
133 2.6
134 0.6
135 0.6
136 0.03
137 0.4
138 0.2
139 0.2
141 0.02
142 0.1
143 0.3
145 1.3
146 0.03
147 4.3
148 0.8
149 9.2
150 0.12
151 0.9
152 0.2
153 0.3
155 0.02
156 0.1
157 0.1
158 0.1
159 0.04
160 0.3
161 0.8
162 0.8
163 0.14
164 0.4
165 0.7
166 0.4
167 0.05
168 0.1
169 0.2
171 0.3
173 0.02
175 0.5
176 0.3
177 2.2
178 0.16
179 92.9
180 14.1
181 4.4
182 0.05
183 0.2
185 0.2
186 0.1
187 0.02
189 0.4
190 0.2
191 1.2
192 4
193 5.7
194 1.1
195 0.7
196 0.01
197 0.2
199 0.1
201 0.2
202 0.01
203 0.5
204 0.2
205 0.8
206 0.03
207 0.7
208 0.2
209 0.5
210 0.02
211 0.3
212 0.1
213 0.1
215 0.01
217 0.3
218 0.3
219 0.8
220 0.03
221 0.8
222 0.2
223 1.2
224 0.02
225 0.1
229 0.1
231 0.1
233 0.02
234 0.1
235 0.4
236 0.3
237 0.07
238 0.2
239 0.3
249 0.3
250 0.02
251 1.1
252 0.3
253 0.3
254 0.03
255 0.2
257 0.1
262 0.1
263 0.02
264 0.2
265 4.4
266 1.4
267 4.66
268 11.7
269 4.3
270 0.7
271 0.02
277 0.1
278 0.1
279 0.4
280 1.68
281 5.8
282 2
283 0.4
284 0.01
285 0.2
293 0.6
294 0.3
295 0.04
296 0.1
299 0.3
307 0.4
308 0.06
309 0.5
310 0.4
311 0.3
313 0.09
314 0.2
315 0.2
325 0.2
326 0.14
327 0.5
328 0.2
354 0.6
355 0.03
356 0.1
368 0.2
369 0.2
370 0.02
381 0.1
382 0.3
383 11.2
384 0.35
385 1.7
386 0.3
392 0.1
393 0.02
395 0.1
396 0.7
397 2.5
398 7.35
399 24.8
400 12.6
401 2.3
402 0.5

>  <PREDICTED SPECTRUM>  (4744) 
27 3
29 58
41 29
42 2
43 77
44 111
45 211
46 40
47 36
55 71
57 75
59 126
60 14
61 46
69 31
71 34
73 851
74 239
75 310
76 65
77 135
78 39
79 6
81 39
83 20
85 11
87 16
89 32
91 62
92 6
93 15
99 1
103 58
104 39
105 130
106 27
115 24
116 56
117 55
119 73
120 3
121 20
129 61
131 103
132 27
133 55
134 6
135 61
145 23
147 231
148 75
149 116
150 20
151 81
153 22
159 2
163 52
164 34
165 90
166 49
175 24
176 11
177 169
178 103
179 702
180 181
181 138
182 6
189 34
190 64
191 91
192 114
193 317
194 185
195 15
201 1
203 102
204 61
205 161
206 19
207 10
208 8
209 18
210 3
217 42
219 55
220 65
221 140
222 52
223 104
235 36
237 74
238 2
253 39
254 29
259 6
265 149
266 126
267 931
268 441
269 251
270 53
279 56
280 270
281 250
282 140
285 3
293 119
294 65
295 133
296 25
307 23
308 63
309 56
310 52
311 29
325 21
326 74
383 379
384 231
385 125
386 23
397 13
398 999
399 531
400 346
401 176
402 91

$$$$

     RDKit          2D

 26 26  0  0  0  0  0  0  0  0999 V2000
    4.3074    1.9584    0.0000 C   0  0  0  0  0  0  0  0  0  0  0  0
    1.5078   -1.7920    0.0000 C   0  0  0  0  0  0  0  0  0  0  0  0
    3.0078   -3.2920    0.0000 C   0  0  0  0  0  0  0  0  0  0  0  0
    4.5078   -1.7920    0.0000 C   0  0  0  0  0  0  0  0  0  0  0  0
   -2.7374    6.2570    0.0000 C   0  0  0  0  0  0  0  0  0  0  0  0
   -4.7864    5.7080    0.0000 C   0  0  0  0  0  0  0  0  0  0  0  0
   -4.2374    3.6589    0.0000 C   0  0  0  0  0  0  0  0  0  0  0  0
   -6.8354    3.2570    0.0000 C   0  0  0  0  0  0  0  0  0  0  0  0
   -7.3845    1.2080    0.0000 C   0  0  0  0  0  0  0  0  0  0  0  0
   -5.3354    0.6589    0.0000 C   0  0  0  0  0  0  0  0  0  0  0  0
   -0.8898    0.4571    0.0000 C   0  0  0  0  0  0  0  0  0  0  0  0
    0.4093   -0.2929    0.0000 C   0  0  0  0  0  0  0  0  0  0  0  0
    0.4102    2.7088    0.0000 C   0  0  0  0  0  0  0  0  0  0  0  0
   -0.8893    1.9580    0.0000 C   0  0  0  0  0  0  0  0  0  0  0  0
    1.7088    0.4580    0.0000 C   0  0  0  0  0  0  0  0  0  0  0  0
    1.7093    1.9588    0.0000 C   0  0  0  0  0  0  0  0  0  0  0  0
   -2.1883    2.7080    0.0000 C   0  0  0  0  0  0  0  0  0  0  0  0
   -3.4874    1.9580    0.0000 C   0  0  0  0  0  0  0  0  0  0  0  0
   -3.4874    0.4580    0.0000 O   0  0  0  0  0  0  0  0  0  0  0  0
    3.0084    2.7086    0.0000 O   0  0  0  0  0  0  0  0  0  0  0  0
    3.0078   -0.2920    0.0000 O   0  0  0  0  0  0  0  0  0  0  0  0
   -2.1883    4.2080    0.0000 O   0  0  0  0  0  0  0  0  0  0  0  0
   -4.7864    2.7080    0.0000 O   0  0  0  0  0  0  0  0  0  0  0  0
    3.0078   -1.7920    0.0000 Si  0  0  0  0  0  4  0  0  0  0  0  0
   -3.4874    4.9580    0.0000 Si  0  0  0  0  0  4  0  0  0  0  0  0
   -6.0854    1.9580    0.0000 Si  0  0  0  0  0  4  0  0  0  0  0  0
 12 11  2  0
 14 11  1  0
 14 13  2  0
 15 12  1  0
 16 13  1  0
 16 15  2  0
 17 14  1  0
 18 17  1  0
 19 18  2  0
 20  1  1  0
 20 16  1  0
 21 15  1  0
 22 17  1  0
 23 18  1  0
 24  2  1  0
 24  3  1  0
 24  4  1  0
 24 21  1  0
 25  5  1  0
 25  6  1  0
 25  7  1  0
 25 22  1  0
 26  8  1  0
 26  9  1  0
 26 10  1  0
 26 23  1  0
M  END
>  <NAME>  (4745) 
4-HYDROXY-3-METHOXYMANDELIC ACID-TRI-TMS

>  <SYNONYMS>  (4745) 


>  <SPECTRUM TYPE>  (4745) 
MS1

>  <INSTRUMENT TYPE>  (4745) 
EI-B

>  <INSTRUMENT>  (4745) 
SHIMADZU LKB-9000B

>  <ION MODE>  (4745) 
P

>  <INCHIKEY>  (4745) 
QGOJNGYLGCWPKN-UHFFFAOYSA-N

>  <FORMULA>  (4745) 
C18H34O5Si3

>  <EXACT MASS>  (4745) 
414.17140377799996

>  <MW>  (4745) 
414

>  <ID>  (4745) 
JP002725

>  <CONTRIBUTOR>  (4745) 
University of Tokyo Team, {Faculty of Engineering, University of Tokyo

>  <COMMENT>  (4745) 
SMILES=COc(c1)c(ccc1C(O[Si](C)(C)C)C(=O)O[Si](C)(C)C)O[Si](C)(C)C
InChI=InChI=1S/C18H34O5Si3/c1-20-16-13-14(11-12-15(16)21-24(2,3)4)17(22-25(5,6)7)18(19)23-26(8,9)10/h11-13,17H,1-10H3
computed SMILES=O=C(O[Si](C)(C)C)C(O[Si](C)(C)C)C1=CC=C(O[Si](C)(C)C)C(OC)=C1
accession=JP002725
date=2016.01.19 (Created 2008.10.21, modified 2011.05.06)
author=HAYASHI A, DEPT. OF CHEMISTRY, FAC. OF SCI. AND TECHNOLOGY, KINKI UNIV.
license=CC BY-NC-SA
exact mass=414.1714
ionization energy=70 eV
ion type=[M]+*
computed spectral entropy=2.684001997370692
computed normalized entropy=0.5196734213037962
SPLASH=splash10-0002-6190000000-0a3a3f98798a1271d46a
submitter=submitter = University of Tokyo Team (Faculty of Engineering, University of Tokyo)
MoNA Rating=3.75

>  <NUM PEAKS>  (4745) 
175

>  <MASS SPECTRAL PEAKS>  (4745) 
41 1.6
42 1.2
43 3.1
44 0.3
45 7.5
46 0.5
47 0.9
50 0.01
51 0.1
53 0.1
55 1.1
56 0.03
57 2.2
58 0.4
59 4.6
60 0.02
61 0.3
62 0.1
64 0.1
67 0.02
68 0.2
69 1.1
70 0.2
71 0.09
72 0.7
73 66.8
74 7.8
75 0.94
76 0.5
77 0.1
79 0.2
81 0.06
83 0.5
84 0.2
85 0.4
87 0.12
88 0.1
89 0.9
90 0.2
91 0.03
92 0.4
93 0.5
94 0.1
97 0.04
98 0.1
103 0.2
104 0.1
108 0.04
111 0.1
113 0.4
116 0.1
117 0.14
124 0.2
125 0.3
129 0.7
130 0.01
131 0.6
132 0.6
133 1.5
135 0.08
137 0.6
138 0.1
139 0.2
141 0.01
142 0.1
143 0.2
145 0.3
147 0.75
148 1.4
149 1.1
150 0.2
153 0.01
159 0.1
161 0.2
162 0.2
163 0.08
164 0.2
165 0.3
166 0.1
167 0.02
175 0.6
176 0.1
177 0.4
179 0.08
180 0.1
181 0.3
185 0.1
192 0.07
193 2.2
194 2.6
195 0.6
196 0.01
198 0.1
200 0.1
203 0.1
206 0.06
207 0.5
208 0.2
209 1.1
210 0.03
217 0.1
221 0.4
222 0.2
223 0.31
225 0.4
227 0.2
228 0.2
235 0.01
236 0.5
237 0.8
238 0.1
239 0.02
240 0.1
242 0.1
244 0.1
246 0.01
249 0.2
250 0.2
251 0.7
252 0.02
253 0.4
254 0.2
262 0.1
263 0.01
264 0.2
265 1
266 0.4
267 0.46
268 1
269 0.4
270 0.2
271 0.01
273 0.1
275 0.1
278 0.1
279 0.01
281 0.5
282 0.4
283 0.3
289 0.02
292 0.1
294 0.2
295 0.7
296 0.23
297 99.99
298 24.9
299 10.8
300 0.17
301 0.2
307 0.2
308 0.2
309 0.04
311 0.6
312 0.3
313 0.2
323 0.01
325 0.4
326 1.2
328 0.2
341 0.04
342 0.1
343 0.2
355 0.1
356 0.02
370 0.2
371 4.4
372 1.5
373 0.07
399 4.1
400 1.4
401 0.6
402 0.01
413 0.5
414 0.1
415 0.3

>  <PREDICTED SPECTRUM>  (4745) 
28 3
42 3
43 53
44 77
45 216
47 26
55 25
56 15
57 83
58 72
59 133
60 2
61 15
69 21
71 6
72 19
73 641
74 166
75 202
76 56
77 141
78 32
79 45
83 38
91 28
93 29
97 5
100 31
101 36
103 14
105 24
114 3
117 85
118 7
119 12
129 9
133 66
135 58
147 294
148 107
149 108
150 18
151 40
153 11
155 3
165 25
166 8
167 9
179 45
180 9
181 1
193 160
194 16
196 5
207 84
209 42
223 108
224 27
225 2
226 0
251 15
267 82
281 73
282 26
283 32
297 999
298 394
299 200
300 35
355 13
371 297
372 120
373 27
399 115
400 34
401 27
413 5
414 101
415 21

$$$$

     RDKit          2D

 21 21  0  0  0  0  0  0  0  0999 V2000
    4.2573    2.0451    0.0000 C   0  0  0  0  0  0  0  0  0  0  0  0
    5.0068   -0.7544    0.0000 C   0  0  0  0  0  0  0  0  0  0  0  0
    5.5559    1.2946    0.0000 C   0  0  0  0  0  0  0  0  0  0  0  0
    3.5068    1.8437    0.0000 C   0  0  0  0  0  0  0  0  0  0  0  0
   -6.8855    3.3437    0.0000 C   0  0  0  0  0  0  0  0  0  0  0  0
   -7.4345    1.2946    0.0000 C   0  0  0  0  0  0  0  0  0  0  0  0
   -5.3855    0.7456    0.0000 C   0  0  0  0  0  0  0  0  0  0  0  0
   -0.9398    0.5438    0.0000 C   0  0  0  0  0  0  0  0  0  0  0  0
    0.3592   -0.2062    0.0000 C   0  0  0  0  0  0  0  0  0  0  0  0
    0.3602    2.7955    0.0000 C   0  0  0  0  0  0  0  0  0  0  0  0
   -2.2383    2.7946    0.0000 C   0  0  0  0  0  0  0  0  0  0  0  0
   -0.9393    2.0446    0.0000 C   0  0  0  0  0  0  0  0  0  0  0  0
    1.6588    0.5446    0.0000 C   0  0  0  0  0  0  0  0  0  0  0  0
    1.6592    2.0455    0.0000 C   0  0  0  0  0  0  0  0  0  0  0  0
   -3.5374    2.0446    0.0000 C   0  0  0  0  0  0  0  0  0  0  0  0
   -3.5374    0.5446    0.0000 O   0  0  0  0  0  0  0  0  0  0  0  0
    2.9584    2.7953    0.0000 O   0  0  0  0  0  0  0  0  0  0  0  0
    2.9578   -0.2054    0.0000 O   0  0  0  0  0  0  0  0  0  0  0  0
   -4.8364    2.7946    0.0000 O   0  0  0  0  0  0  0  0  0  0  0  0
    4.2568    0.5446    0.0000 Si  0  0  0  0  0  4  0  0  0  0  0  0
   -6.1355    2.0446    0.0000 Si  0  0  0  0  0  4  0  0  0  0  0  0
  9  8  2  0
 12  8  1  0
 12 10  2  0
 12 11  1  0
 13  9  1  0
 14 10  1  0
 14 13  2  0
 15 11  1  0
 16 15  2  0
 17  1  1  0
 17 14  1  0
 18 13  1  0
 19 15  1  0
 20  2  1  0
 20  3  1  0
 20  4  1  0
 20 18  1  0
 21  5  1  0
 21  6  1  0
 21  7  1  0
 21 19  1  0
M  END
>  <NAME>  (4746) 
HOMOVANILLIC ACID-DI-TRIMETHYLSILYL ETHER

>  <SYNONYMS>  (4746) 


>  <SPECTRUM TYPE>  (4746) 
MS1

>  <INSTRUMENT TYPE>  (4746) 
EI-B

>  <INSTRUMENT>  (4746) 
SHIMADZU LKB-9000B

>  <ION MODE>  (4746) 
P

>  <INCHIKEY>  (4746) 
PPAQHWGGSXMRBE-UHFFFAOYSA-N

>  <FORMULA>  (4746) 
C15H26O4Si2

>  <EXACT MASS>  (4746) 
326.13696237199997

>  <MW>  (4746) 
326

>  <ID>  (4746) 
JP002724

>  <CONTRIBUTOR>  (4746) 
University of Tokyo Team, {Faculty of Engineering, University of Tokyo

>  <COMMENT>  (4746) 
SMILES=COc(c1)c(ccc(CC(=O)O[Si](C)(C)C)1)O[Si](C)(C)C
InChI=InChI=1S/C15H26O4Si2/c1-17-14-10-12(11-15(16)19-21(5,6)7)8-9-13(14)18-20(2,3)4/h8-10H,11H2,1-7H3
computed SMILES=O=C(O[Si](C)(C)C)CC1=CC=C(O[Si](C)(C)C)C(OC)=C1
accession=JP002724
date=2016.01.19 (Created 2008.10.21, modified 2011.05.06)
author=HAYASHI A, DEPT. OF CHEMISTRY, FAC. OF SCI. AND TECHNOLOGY, KINKI UNIV.
license=CC BY-NC-SA
exact mass=326.13696
ionization energy=70 eV
ion type=[M]+*
computed spectral entropy=3.291730521356247
computed normalized entropy=0.6292605951155974
SPLASH=splash10-00di-9141000000-6734fd123458d63f1b68
submitter=submitter = University of Tokyo Team (Faculty of Engineering, University of Tokyo)
MoNA Rating=3.75

>  <NUM PEAKS>  (4746) 
187

>  <MASS SPECTRAL PEAKS>  (4746) 
40 12.6
41 0.2
42 1
43 1.9
44 3
45 10.7
46 0.6
47 0.16
48 0.2
49 0.1
51 0.7
52 0.01
53 0.1
55 0.8
57 0.9
58 0.09
59 5.8
60 0.5
61 1.3
62 0.02
63 0.3
64 0.1
65 0.4
68 0.01
69 0.8
70 0.2
71 0.5
72 0.11
73 99.99
74 8.8
75 18.4
76 0.13
77 1.7
78 0.5
79 0.2
82 0.04
83 0.7
84 0.2
85 0.3
86 0.02
87 0.1
88 0.2
89 1.9
90 0.06
91 0.9
92 0.1
93 0.2
96 0.02
97 0.3
98 0.1
99 0.1
101 0.04
102 0.1
103 0.3
104 2.1
105 0.11
106 0.3
107 0.4
109 0.4
110 0.02
114 0.1
116 0.2
117 1.8
118 0.04
119 0.2
120 0.1
121 0.3
122 0.02
124 0.1
125 0.2
127 0.1
129 0.03
131 0.2
132 0.1
133 0.7
135 0.15
136 0.4
137 0.3
139 0.2
141 0.16
142 0.1
145 0.5
146 0.1
147 0.18
148 3
149 3.9
150 0.7
151 0.01
152 0.2
153 0.2
154 0.1
161 0.07
162 2.3
163 3.8
164 1.7
165 0.02
167 0.2
170 0.1
171 0.1
172 0.01
176 0.2
177 1.2
178 2
179 1.63
180 2.8
181 0.8
182 0.1
188 0.01
191 0.1
192 0.8
193 2.3
194 0.08
195 0.4
198 0.2
201 0.1
204 0.01
205 0.1
206 3.7
207 2.3
208 0.03
209 31.1
210 5.1
211 1.7
214 0.2
217 0.1
218 0.1
219 0.1
220 0.01
221 0.6
222 0.2
223 0.4
224 0.02
225 0.2
229 0.1
230 0.1
236 0.05
237 2.1
238 0.5
239 0.3
240 0.01
243 0.2
244 0.1
245 0.2
246 0.02
249 0.1
250 0.1
251 0.5
252 0.27
253 1.1
254 0.6
255 0.5
256 0.01
259 0.1
264 0.1
265 0.1
266 0.02
267 12
268 2.9
269 1.1
270 0.02
271 0.1
279 0.2
280 0.2
281 0.05
282 1.7
283 0.9
284 0.3
285 0.01
289 0.2
292 0.1
294 0.2
295 0.03
296 5
297 1.4
298 0.8
309 0.03
310 0.6
311 16
312 4
313 0.14
314 0.3
317 0.1
325 0.2
326 2.85
327 8
328 3
329 0.5

>  <PREDICTED SPECTRUM>  (4746) 
29 31
41 15
43 166
44 169
45 317
46 2
47 72
51 52
52 15
53 41
55 103
56 19
57 83
58 58
59 221
60 13
61 113
63 62
65 25
68 8
69 3
70 43
71 34
72 56
73 999
74 231
75 325
76 43
77 201
78 87
79 97
81 11
89 147
90 35
91 98
92 20
103 49
104 46
105 152
106 70
107 58
111 12
117 59
118 19
119 68
121 76
122 26
123 7
131 73
133 62
135 72
136 10
147 191
148 158
149 280
150 46
151 55
163 94
164 71
165 92
166 71
177 121
178 62
179 712
180 233
181 77
191 24
192 51
193 216
194 122
195 30
205 30
206 153
207 177
208 154
209 860
210 360
211 280
221 86
225 10
235 75
236 280
237 107
238 73
239 15
251 40
252 50
253 13
254 23
267 11
268 69
281 123
282 139
283 78
284 16
296 226
297 57
298 3
308 42
311 342
312 153
313 39
326 422
327 266
328 143
329 17

$$$$

     RDKit          2D

 19 18  0  0  0  0  0  0  0  0999 V2000
    7.1986    3.7231    0.0000 C   0  0  0  0  0  0  0  0  0  0  0  0
    2.7524   -2.0760    0.0000 C   0  0  0  0  0  0  0  0  0  0  0  0
    1.2524    0.5221    0.0000 C   0  0  0  0  0  0  0  0  0  0  0  0
    0.7034   -1.5269    0.0000 C   0  0  0  0  0  0  0  0  0  0  0  0
    9.2476    7.6740    0.0000 C   0  0  0  0  0  0  0  0  0  0  0  0
    9.7966    9.7231    0.0000 C   0  0  0  0  0  0  0  0  0  0  0  0
    7.7476   10.2721    0.0000 C   0  0  0  0  0  0  0  0  0  0  0  0
    4.6005    3.7231    0.0000 C   0  0  0  0  0  0  0  0  0  0  0  0
    4.6005    2.2231    0.0000 C   0  0  0  0  0  0  0  0  0  0  0  0
    5.8995    5.9731    0.0000 C   0  0  0  0  0  0  0  0  0  0  0  0
    5.8995    4.4731    0.0000 C   0  0  0  0  0  0  0  0  0  0  0  0
    3.3014    1.4731    0.0000 C   0  0  0  0  0  0  0  0  0  0  0  0
    7.1986    6.7231    0.0000 C   0  0  0  0  0  0  0  0  0  0  0  0
    2.0024    2.2231    0.0000 O   0  0  0  0  0  0  0  0  0  0  0  0
    8.4976    5.9731    0.0000 O   0  0  0  0  0  0  0  0  0  0  0  0
    3.3014   -0.0269    0.0000 O   0  0  0  0  0  0  0  0  0  0  0  0
    7.1986    8.2231    0.0000 O   0  0  0  0  0  0  0  0  0  0  0  0
    2.0024   -0.7769    0.0000 Si  0  0  0  0  0  4  0  0  0  0  0  0
    8.4976    8.9731    0.0000 Si  0  0  0  0  0  4  0  0  0  0  0  0
  9  8  1  0
 11  1  1  0
 11  8  1  0
 11 10  1  0
 12  9  1  0
 13 10  1  0
 14 12  2  0
 15 13  2  0
 16 12  1  0
 17 13  1  0
 18  2  1  0
 18  3  1  0
 18  4  1  0
 18 16  1  0
 19  5  1  0
 19  6  1  0
 19  7  1  0
 19 17  1  0
M  END
>  <NAME>  (4747) 
3-METHYLADIPIC ACID DI-TMS

>  <SYNONYMS>  (4747) 


>  <SPECTRUM TYPE>  (4747) 
MS1

>  <INSTRUMENT TYPE>  (4747) 
EI-B

>  <INSTRUMENT>  (4747) 
SHIMADZU LKB-9000B

>  <ION MODE>  (4747) 
P

>  <INCHIKEY>  (4747) 
IDHDZCKJOKHATB-UHFFFAOYSA-N

>  <FORMULA>  (4747) 
C13H28O4Si2

>  <EXACT MASS>  (4747) 
304.15261243599997

>  <MW>  (4747) 
304

>  <ID>  (4747) 
JP002723

>  <CONTRIBUTOR>  (4747) 
University of Tokyo Team, {Faculty of Engineering, University of Tokyo

>  <COMMENT>  (4747) 
SMILES=CC(CCC(=O)O[Si](C)(C)C)CC(=O)O[Si](C)(C)C
InChI=InChI=1S/C13H28O4Si2/c1-11(10-13(15)17-19(5,6)7)8-9-12(14)16-18(2,3)4/h11H,8-10H2,1-7H3
computed SMILES=O=C(O[Si](C)(C)C)CCC(C)CC(=O)O[Si](C)(C)C
accession=JP002723
date=2016.01.19 (Created 2008.10.21, modified 2011.05.06)
author=HAYASHI A, DEPT. OF CHEMISTRY, FAC. OF SCI. AND TECHNOLOGY, KINKI UNIV.
license=CC BY-NC-SA
exact mass=304.15261
ionization energy=70 eV
ion type=[M]+*
computed spectral entropy=3.1082376350264176
computed normalized entropy=0.6764214506691002
SPLASH=splash10-0006-9200000000-1c89305b9a5bc0da7e16
submitter=submitter = University of Tokyo Team (Faculty of Engineering, University of Tokyo)
MoNA Rating=3.75

>  <NUM PEAKS>  (4747) 
99

>  <MASS SPECTRAL PEAKS>  (4747) 
40 99.99
41 7.9
42 14.6
43 27.1
44 25.7
45 7.3
46 1.2
47 0.67
50 0.8
51 0.8
52 1.3
54 0.11
55 3.1
56 1.2
57 2.3
58 0.06
59 24.4
60 0.9
61 2.1
63 0.08
68 1.3
69 6.5
72 0.6
73 3.4
74 5.2
75 37.6
76 1.5
77 0.21
80 0.4
81 0.2
83 0.8
86 0.05
87 2.4
88 2.1
89 0.8
93 0.04
94 0.1
95 4
97 0.4
98 0.22
100 2.1
103 1.2
106 0.1
110 0.03
112 1.1
115 1.6
117 7.8
118 0.09
122 0.1
123 0.5
124 0.3
125 0.95
126 0.3
129 3.3
131 5.1
132 0.18
133 1
136 0.4
137 0.4
139 0.02
141 1.3
142 1.2
143 1.2
144 0.04
145 0.4
147 9.5
148 1.9
149 0.15
151 0.2
152 0.3
154 1.3
155 0.02
156 2.2
157 0.5
159 0.5
160 0.16
171 2.7
172 0.6
173 6.7
174 0.18
175 1.4
179 0.9
180 1.6
181 0.12
186 2.3
187 0.3
189 1.8
199 0.15
201 1.3
204 1.1
217 0.3
218 0.02
219 0.2
221 1.7
231 1.3
275 0.02
289 3
290 2.3
291 1.5

>  <PREDICTED SPECTRUM>  (4747) 
15 28
26 40
27 97
28 66
29 84
31 45
35 1
36 21
37 8
38 5
39 133
40 74
41 277
42 129
43 211
44 194
45 337
46 72
47 255
48 76
49 74
50 30
51 57
52 55
53 157
54 100
55 546
56 206
57 191
58 156
59 205
60 151
61 258
62 47
63 42
64 33
65 70
66 78
67 185
68 160
69 474
70 139
71 89
72 337
73 999
74 295
75 900
76 267
77 213
78 70
79 158
80 99
81 286
82 186
83 337
84 195
85 182
86 116
87 81
88 53
89 83
90 33
91 9
93 90
94 33
95 106
96 214
97 365
98 287
99 223
100 84
101 141
102 31
103 119
104 15
105 103
106 63
107 106
108 79
109 153
110 155
111 126
112 180
113 105
114 60
115 139
116 272
117 538
118 126
119 158
120 83
123 51
124 172
125 299
126 125
127 157
128 60
129 349
130 180
131 191
132 109
133 240
134 58
135 66
136 46
137 44
139 5
142 47
143 184
144 92
145 46
146 88
147 723
148 308
149 389
150 172
151 139
153 70
154 67
155 223
156 142
157 228
158 166
159 188
160 128
161 73
162 67
163 68
169 500
170 281
171 385
172 306
173 468
174 185
175 113
176 39
181 16
185 121
186 221
187 85
188 51
189 74
190 73
191 111
192 69
199 250
200 88
201 23
202 6
203 132
204 350
205 25
206 13
214 338
215 120
216 64
217 160
218 61
229 113
231 66
232 53
233 3
245 223
246 141
247 122
248 77
249 59
260 14
261 53
262 44
271 39
273 56
274 12
289 512
290 231
291 102
292 48
304 6
305 0

$$$$

     RDKit          2D

 16 16  0  0  0  0  0  0  0  0999 V2000
    3.1520   -0.9134    0.0000 C   0  0  0  0  0  0  0  0  0  0  0  0
    5.1994   -0.3581    0.0000 C   0  0  0  0  0  0  0  0  0  0  0  0
    4.6441    1.6893    0.0000 C   0  0  0  0  0  0  0  0  0  0  0  0
   -4.6441    1.6893    0.0000 C   0  0  0  0  0  0  0  0  0  0  0  0
   -5.1994   -0.3581    0.0000 C   0  0  0  0  0  0  0  0  0  0  0  0
   -3.1520   -0.9134    0.0000 C   0  0  0  0  0  0  0  0  0  0  0  0
   -0.0000   -1.8800    0.0000 C   0  0  0  0  0  0  0  0  0  0  0  0
    1.3000   -1.1200    0.0000 C   0  0  0  0  0  0  0  0  0  0  0  0
   -1.3000   -1.1200    0.0000 C   0  0  0  0  0  0  0  0  0  0  0  0
   -0.0000    1.1200    0.0000 C   0  0  0  0  0  0  0  0  0  0  0  0
    1.3000    0.3800    0.0000 C   0  0  0  0  0  0  0  0  0  0  0  0
   -1.3000    0.3800    0.0000 C   0  0  0  0  0  0  0  0  0  0  0  0
    2.5967    1.1340    0.0000 N   0  0  0  0  0  0  0  0  0  0  0  0
   -2.5967    1.1340    0.0000 O   0  0  0  0  0  0  0  0  0  0  0  0
    3.8981    0.3879    0.0000 Si  0  0  0  0  0  4  0  0  0  0  0  0
   -3.8981    0.3879    0.0000 Si  0  0  0  0  0  4  0  0  0  0  0  0
  8  7  2  0
  9  7  1  0
 11  8  1  0
 11 10  2  0
 12  9  2  0
 12 10  1  0
 13 11  1  0
 14 12  1  0
 15  1  1  0
 15  2  1  0
 15  3  1  0
 15 13  1  0
 16  4  1  0
 16  5  1  0
 16  6  1  0
 16 14  1  0
M  END
>  <NAME>  (4748) 
META-AMINOPHENOL-DI-TMS

>  <SYNONYMS>  (4748) 


>  <SPECTRUM TYPE>  (4748) 
MS1

>  <INSTRUMENT TYPE>  (4748) 
EI-B

>  <INSTRUMENT>  (4748) 
SHIMADZU LKB-9000B

>  <ION MODE>  (4748) 
P

>  <INCHIKEY>  (4748) 
NHNXAJMLVIRGCE-UHFFFAOYSA-N

>  <FORMULA>  (4748) 
C12H23NOSi2

>  <EXACT MASS>  (4748) 
253.131817416

>  <MW>  (4748) 
253

>  <ID>  (4748) 
JP002721

>  <CONTRIBUTOR>  (4748) 
University of Tokyo Team, {Faculty of Engineering, University of Tokyo

>  <COMMENT>  (4748) 
SMILES=C[Si](C)(C)Nc(c1)cc(cc1)O[Si](C)(C)C
InChI=InChI=1S/C12H23NOSi2/c1-15(2,3)13-11-8-7-9-12(10-11)14-16(4,5)6/h7-10,13H,1-6H3
computed SMILES=O(C1=CC=CC(=C1)N[Si](C)(C)C)[Si](C)(C)C
accession=JP002721
date=2016.01.19 (Created 2008.10.21, modified 2011.05.06)
author=HAYASHI A, DEPT. OF CHEMISTRY, FAC. OF SCI. AND TECHNOLOGY, KINKI UNIV.
license=CC BY-NC-SA
exact mass=253.13182
ionization energy=70 eV
ion type=[M]+*
computed spectral entropy=3.4356051238630942
computed normalized entropy=0.7240578012331224
SPLASH=splash10-0f79-6590000000-1f8378659449de85270d
submitter=submitter = University of Tokyo Team (Faculty of Engineering, University of Tokyo)
MoNA Rating=3.75

>  <NUM PEAKS>  (4748) 
115

>  <MASS SPECTRAL PEAKS>  (4748) 
41 5.1
43 7.9
44 7.9
45 15
46 1.4
47 3.9
51 0.2
52 1.9
54 0.5
55 0.7
56 6
57 0.18
58 1
59 7.4
60 2.8
61 0.26
63 1.3
64 1.3
65 3.8
66 0.12
67 1.2
68 1.4
70 1.1
72 0.12
73 36.3
74 8.1
75 22.7
76 0.18
78 0.7
80 1.7
82 1.4
84 0.05
91 0.7
92 2.9
93 0.9
95 0.32
98 4.3
99 0.6
103 1.1
104 0.13
105 0.9
106 2.5
108 0.2
109 0.09
110 0.9
111 1.2
112 11.2
113 0.05
115 0.9
116 2.1
117 0.7
118 0.12
119 1.4
120 1.3
121 1.1
122 0.11
123 1
124 0.4
125 0.1
126 0.09
127 0.1
128 1.1
129 1.3
131 0.24
132 1.2
133 1.9
134 1.3
135 0.09
136 1.9
137 1.3
139 0.9
141 0.13
143 1.1
147 7.7
148 6.5
149 0.62
150 3.7
151 1.7
152 2
153 0.11
162 1.5
163 1.9
164 2.5
165 0.32
166 43.4
167 5.5
168 2.7
169 0.1
178 1.8
179 2
180 2.3
181 2.75
182 4.6
183 0.7
192 1.1
205 0.1
207 2.2
208 1
217 1
218 0.1
219 0.6
220 1.3
222 3.3
223 0.14
224 3.1
236 1.8
237 3.4
238 99.99
239 20.9
240 8.5
249 1
252 0.26
253 59.7
254 14.9
255 6.3

>  <PREDICTED SPECTRUM>  (4748) 
15 15
27 55
28 35
29 69
30 14
31 50
33 0
38 21
39 85
40 19
41 71
42 73
43 224
44 139
45 386
46 116
47 128
48 31
49 36
50 64
51 84
52 81
53 90
54 57
55 101
56 81
57 102
58 95
59 192
60 101
61 99
62 49
63 111
64 72
65 120
66 96
67 73
68 68
69 100
70 122
71 83
72 94
73 774
74 242
75 279
76 91
77 160
78 98
79 100
80 84
81 71
82 46
83 125
84 146
85 71
86 53
87 42
88 70
89 117
90 92
91 188
92 114
93 124
94 98
95 106
96 86
97 50
98 45
99 93
100 63
101 26
102 93
103 67
104 87
105 133
106 111
107 108
108 80
109 71
110 75
111 68
112 58
113 49
114 30
115 75
116 106
117 94
118 90
119 110
120 94
121 103
122 80
123 71
124 74
125 48
126 30
127 57
128 51
129 31
130 94
131 122
132 106
133 130
134 131
135 123
136 102
137 98
138 47
139 19
140 56
141 47
142 22
143 24
144 48
145 47
146 105
147 244
148 180
149 148
150 168
151 90
152 101
153 58
154 41
155 10
158 20
159 14
160 74
161 96
162 120
163 130
164 154
165 170
166 118
167 67
168 27
174 3
175 25
176 79
177 95
178 130
179 92
180 128
181 121
182 48
183 27
189 1
190 51
191 90
192 100
193 51
194 76
195 39
196 55
197 15
204 77
205 63
206 111
207 92
208 148
209 72
210 40
211 20
218 22
219 47
220 119
221 90
222 224
223 148
224 82
225 42
234 16
235 14
236 165
237 100
238 999
239 471
240 299
241 119
242 45
250 56
251 44
252 170
253 934
254 440
255 277
256 103
257 20

$$$$

     RDKit          2D

 17 17  0  0  1  0  0  0  0  0999 V2000
   -1.5000   -2.7800    0.0000 C   0  0  0  0  0  0  0  0  0  0  0  0
   -0.0000   -4.2800    0.0000 C   0  0  0  0  0  0  0  0  0  0  0  0
    1.5000   -2.7800    0.0000 C   0  0  0  0  0  0  0  0  0  0  0  0
    4.7177   -1.7312    0.0000 C   0  0  0  0  0  0  0  0  0  0  0  0
    6.6054   -0.7635    0.0000 C   0  0  0  0  0  0  0  0  0  0  0  0
    5.6377    1.1243    0.0000 C   0  0  0  0  0  0  0  0  0  0  0  0
    0.7500    1.0300    0.0000 C   0  0  0  0  0  0  0  0  0  0  0  0
   -0.7500    1.0300    0.0000 C   0  0  0  0  0  0  0  0  0  0  0  0
    1.2100   -0.3900    0.0000 C   0  0  0  0  0  0  0  0  0  0  0  0
   -1.2100   -0.3900    0.0000 C   0  0  0  0  0  0  0  0  0  0  0  0
    2.6377   -0.8500    0.0000 C   0  0  0  0  0  0  0  0  0  0  0  0
    0.0000   -1.2800    0.0000 N   0  0  0  0  0  0  0  0  0  0  0  0
   -2.6377   -0.8500    0.0000 O   0  0  0  0  0  0  0  0  0  0  0  0
    2.9533   -2.3164    0.0000 O   0  0  0  0  0  0  0  0  0  0  0  0
    3.7499    0.1565    0.0000 O   0  0  0  0  0  0  0  0  0  0  0  0
   -0.0000   -2.7800    0.0000 Si  0  0  0  0  0  4  0  0  0  0  0  0
    5.1777   -0.3035    0.0000 Si  0  0  0  0  0  4  0  0  0  0  0  0
  8  7  1  0
  9  7  1  0
 10  8  1  0
  9 11  1  6
 12  9  1  0
 12 10  1  0
 13 10  2  0
 14 11  2  0
 15 11  1  0
 16  1  1  0
 16  2  1  0
 16  3  1  0
 16 12  1  0
 17  4  1  0
 17  5  1  0
 17  6  1  0
 17 15  1  0
M  END
>  <NAME>  (4749) 
L-PYROGLUTAMIC ACID-DI-TMS

>  <SYNONYMS>  (4749) 


>  <SPECTRUM TYPE>  (4749) 
MS1

>  <INSTRUMENT TYPE>  (4749) 
EI-B

>  <INSTRUMENT>  (4749) 
SHIMADZU LKB-9000B

>  <ION MODE>  (4749) 
P

>  <INCHIKEY>  (4749) 
QACGFKAUSXGLCU-SECBINFHSA-N

>  <FORMULA>  (4749) 
C11H23NO3Si2

>  <EXACT MASS>  (4749) 
273.121646656

>  <MW>  (4749) 
273

>  <ID>  (4749) 
JP002720

>  <CONTRIBUTOR>  (4749) 
University of Tokyo Team, {Faculty of Engineering, University of Tokyo

>  <COMMENT>  (4749) 
SMILES=O=C(C1)N([Si](C)(C)C)C([H])(C1)C(=O)O[Si](C)(C)C
InChI=InChI=1S/C11H23NO3Si2/c1-16(2,3)12-9(7-8-10(12)13)11(14)15-17(4,5)6/h9H,7-8H2,1-6H3/t9-/m1/s1
computed SMILES=O=C(O[Si](C)(C)C)C1N(C(=O)CC1)[Si](C)(C)C
accession=JP002720
date=2016.01.19 (Created 2008.10.21, modified 2011.05.06)
author=HAYASHI A, DEPT. OF CHEMISTRY, FAC. OF SCI. AND TECHNOLOGY, KINKI UNIV.
license=CC BY-NC-SA
exact mass=273.12165
ionization energy=70 eV
ion type=[M]+*
computed spectral entropy=2.6334655172143435
computed normalized entropy=0.5306363010353655
SPLASH=splash10-0ab9-8900000000-a02cb48129ebe2596610
submitter=submitter = University of Tokyo Team (Faculty of Engineering, University of Tokyo)
MoNA Rating=3.75

>  <NUM PEAKS>  (4749) 
143

>  <MASS SPECTRAL PEAKS>  (4749) 
41 3.1
42 1.5
43 4.3
44 4.7
45 10.4
46 0.7
47 0.21
49 0.1
52 0.3
54 0.4
55 0.19
56 0.8
57 1
58 2.5
59 5.9
60 0.05
61 1.2
62 0.1
63 0.1
66 0.11
67 0.8
68 0.4
69 0.5
70 0.03
71 0.7
72 2.1
73 66.6
74 0.64
75 16.6
76 1
77 0.8
80 0.02
81 0.4
82 0.5
83 0.7
84 0.88
85 1.2
86 1
87 0.2
88 0.01
89 0.1
91 0.2
93 1
94 0.01
95 0.1
96 0.2
98 1
99 0.05
100 0.9
101 0.1
102 0.1
103 0.06
104 0.1
105 0.2
111 0.2
112 0.07
113 0.2
114 0.3
115 0.4
116 0.17
117 2
118 0.3
119 0.2
121 0.01
122 1.8
123 0.1
124 0.1
125 0.02
126 0.2
127 0.2
128 0.2
129 0.11
130 0.3
131 1.3
132 0.7
133 0.21
134 0.2
135 0.1
139 0.1
141 0.06
142 0.5
143 0.4
144 0.2
145 0.08
146 0.2
147 15.9
148 2.5
149 0.18
150 0.2
151 0.3
152 0.2
153 0.02
154 0.5
155 0.7
156 99.99
157 1.43
158 5.4
159 0.7
161 0.1
168 0.01
170 0.1
172 0.1
173 0.1
174 0.02
175 0.1
179 0.1
180 0.1
182 0.01
184 0.1
185 0.1
186 0.7
187 0.01
188 0.1
189 0.1
190 0.2
201 0.01
202 0.1
205 0.1
207 0.1
213 0.01
214 0.3
216 0.1
221 0.2
223 0.1
224 0.1
228 0.4
229 0.1
230 0.65
231 1.1
232 0.6
233 0.1
238 0.01
243 0.1
247 0.1
253 0.1
257 0.04
258 7.6
259 1.5
260 0.5
261 0.01
269 0.1
273 0.4
274 0.1

>  <PREDICTED SPECTRUM>  (4749) 
14 11
15 62
17 1
18 38
26 35
27 119
28 104
29 122
30 102
31 85
32 7
39 135
40 53
41 279
42 242
43 231
44 206
45 383
46 113
47 206
48 25
49 21
51 11
52 78
53 156
54 182
55 467
56 296
57 214
58 197
59 285
60 79
61 131
62 5
63 2
64 9
65 72
66 131
67 158
68 202
69 167
70 157
71 137
72 217
73 999
74 309
75 555
76 144
77 95
81 51
82 152
83 178
84 290
85 195
86 211
87 75
88 58
89 61
90 15
91 24
92 13
94 49
95 59
96 123
97 89
98 199
99 171
100 374
101 225
102 305
103 132
104 82
105 25
110 87
111 141
112 201
113 136
114 146
115 173
116 133
117 208
118 91
119 54
120 53
124 24
125 20
126 171
127 140
128 179
129 130
130 150
131 192
132 94
133 182
138 32
140 202
141 134
142 226
143 127
144 84
145 67
146 6
147 554
148 313
149 311
150 50
154 162
155 164
156 654
157 324
158 277
159 111
160 48
168 105
169 15
172 81
173 90
175 11
176 6
183 68
184 205
185 99
186 176
187 120
188 37
200 94
201 187
202 37
214 36
215 25
216 54
228 60
229 119
230 118
231 76
232 26
242 50
244 5
245 5
256 76
258 673
259 303
260 145
261 34
272 33
273 226
274 118
275 46
276 18

$$$$

     RDKit          2D

 13 13  0  0  0  0  0  0  0  0999 V2000
   -2.5476    4.3306    0.0000 C   0  0  0  0  0  0  0  0  0  0  0  0
   -4.5966    3.7816    0.0000 C   0  0  0  0  0  0  0  0  0  0  0  0
   -4.0476    1.7326    0.0000 C   0  0  0  0  0  0  0  0  0  0  0  0
    3.1976    0.7816    0.0000 C   0  0  0  0  0  0  0  0  0  0  0  0
    3.1981    2.2824    0.0000 C   0  0  0  0  0  0  0  0  0  0  0  0
    1.8981    0.0308    0.0000 C   0  0  0  0  0  0  0  0  0  0  0  0
    1.8990    3.0324    0.0000 C   0  0  0  0  0  0  0  0  0  0  0  0
    0.5990    0.7808    0.0000 C   0  0  0  0  0  0  0  0  0  0  0  0
    0.5995    2.2816    0.0000 C   0  0  0  0  0  0  0  0  0  0  0  0
   -0.6995    3.0316    0.0000 C   0  0  0  0  0  0  0  0  0  0  0  0
   -0.6995    4.5316    0.0000 O   0  0  0  0  0  0  0  0  0  0  0  0
   -1.9986    2.2816    0.0000 O   0  0  0  0  0  0  0  0  0  0  0  0
   -3.2976    3.0316    0.0000 Si  0  0  0  0  0  4  0  0  0  0  0  0
  5  4  2  0
  6  4  1  0
  7  5  1  0
  8  6  2  0
  9  7  2  0
  9  8  1  0
 10  9  1  0
 11 10  2  0
 12 10  1  0
 13  1  1  0
 13  2  1  0
 13  3  1  0
 13 12  1  0
M  END
>  <NAME>  (4750) 
BENZOIC ACID MONO-TMS

>  <SYNONYMS>  (4750) 


>  <SPECTRUM TYPE>  (4750) 
MS1

>  <INSTRUMENT TYPE>  (4750) 
EI-B

>  <INSTRUMENT>  (4750) 
SHIMADZU LKB-9000B

>  <ION MODE>  (4750) 
P

>  <INCHIKEY>  (4750) 
VFFKJOXNCSJSAQ-UHFFFAOYSA-N

>  <FORMULA>  (4750) 
C10H14O2Si

>  <EXACT MASS>  (4750) 
194.076306218

>  <MW>  (4750) 
194

>  <ID>  (4750) 
JP002718

>  <CONTRIBUTOR>  (4750) 
University of Tokyo Team, {Faculty of Engineering, University of Tokyo

>  <COMMENT>  (4750) 
SMILES=O=C(O[Si](C)(C)C)c(c1)cccc1
InChI=InChI=1S/C10H14O2Si/c1-13(2,3)12-10(11)9-7-5-4-6-8-9/h4-8H,1-3H3
computed SMILES=O=C(O[Si](C)(C)C)C=1C=CC=CC1
accession=JP002718
date=2016.01.19 (Created 2008.10.21, modified 2011.05.06)
author=HAYASHI A, DEPT. OF CHEMISTRY, FAC. OF SCI. AND TECHNOLOGY, KINKI UNIV.
license=CC BY-NC-SA
exact mass=194.07631
ionization energy=70 eV
ion type=[M]+*
computed spectral entropy=2.4579264221005013
computed normalized entropy=0.5489706323081147
SPLASH=splash10-056r-4900000000-6f70fa0b6583ede670ba
submitter=submitter = University of Tokyo Team (Faculty of Engineering, University of Tokyo)
MoNA Rating=3.75

>  <NUM PEAKS>  (4750) 
88

>  <MASS SPECTRAL PEAKS>  (4750) 
40 4.5
42 0.9
43 5.6
44 4.1
45 7.1
46 0.4
47 2.9
48 0.01
50 3.7
51 12.8
52 0.8
53 0.06
54 0.1
55 0.5
57 0.1
58 0.06
59 3.6
60 0.6
62 0.2
63 0.02
64 0.1
65 0.4
66 0.1
67 0.01
70 0.1
72 0.8
73 6.2
74 0.18
75 8.3
76 3.7
77 55.1
78 0.41
79 0.2
85 0.1
89 0.1
90 0.37
91 0.8
92 0.2
93 0.4
95 0.01
96 0.1
100 0.1
101 0.2
102 0.02
103 0.3
104 0.7
105 85.6
106 0.68
107 0.7
108 0.1
111 0.1
115 0.01
116 0.2
117 0.5
119 0.6
120 0.02
121 0.9
122 0.7
123 0.1
129 0.01
132 0.2
133 0.2
134 0.4
135 4.26
136 5.9
137 1.7
138 0.1
145 0.01
147 0.1
148 0.1
149 0.3
150 0.02
151 0.1
163 0.2
164 0.2
165 0.03
166 0.1
177 0.1
178 0.6
179 99.99
180 15
181 4.8
182 0.3
192 0.01
193 1.4
194 7.1
195 1.1
196 0.2

>  <PREDICTED SPECTRUM>  (4750) 
15 36
29 49
31 5
38 12
39 12
43 52
45 200
46 14
47 93
50 141
51 258
52 35
53 58
55 4
57 7
58 26
59 149
61 7
63 21
65 20
73 292
74 111
75 319
76 93
77 596
78 191
79 55
81 8
91 152
92 11
93 46
95 56
96 13
104 93
105 834
106 187
107 150
117 48
119 83
120 52
121 40
133 1
135 665
136 132
137 20
151 48
179 999
180 355
181 130
193 125
194 295
195 98

$$$$

     RDKit          2D

 14 13  0  0  1  0  0  0  0  0999 V2000
    3.6495    0.9240    0.0000 C   0  0  0  0  0  0  0  0  0  0  0  0
    6.9976    3.7231    0.0000 C   0  0  0  0  0  0  0  0  0  0  0  0
    5.4976    1.1250    0.0000 C   0  0  0  0  0  0  0  0  0  0  0  0
    7.5466    1.6740    0.0000 C   0  0  0  0  0  0  0  0  0  0  0  0
    0.5024    4.4731    0.0000 C   0  0  0  0  0  0  0  0  0  0  0  0
   -1.5466    3.9240    0.0000 C   0  0  0  0  0  0  0  0  0  0  0  0
   -0.9976    1.8750    0.0000 C   0  0  0  0  0  0  0  0  0  0  0  0
    3.6495    2.4240    0.0000 C   0  0  0  0  0  0  0  0  0  0  0  0
    2.3505    3.1740    0.0000 C   0  0  0  0  0  0  0  0  0  0  0  0
    2.3505    4.6740    0.0000 O   0  0  0  0  0  0  0  0  0  0  0  0
    4.9486    3.1740    0.0000 O   0  0  0  0  0  0  0  0  0  0  0  0
    1.0514    2.4240    0.0000 O   0  0  0  0  0  0  0  0  0  0  0  0
    6.2476    2.4240    0.0000 Si  0  0  0  0  0  4  0  0  0  0  0  0
   -0.2476    3.1740    0.0000 Si  0  0  0  0  0  4  0  0  0  0  0  0
  8  1  1  1
  9  8  1  0
 10  9  2  0
 11  8  1  0
 12  9  1  0
 13  2  1  0
 13  3  1  0
 13  4  1  0
 13 11  1  0
 14  5  1  0
 14  6  1  0
 14  7  1  0
 14 12  1  0
M  END
>  <NAME>  (4751) 
LACTIC ACID-DI-TMS

>  <SYNONYMS>  (4751) 


>  <SPECTRUM TYPE>  (4751) 
MS1

>  <INSTRUMENT TYPE>  (4751) 
EI-B

>  <INSTRUMENT>  (4751) 
SHIMADZU LKB-9000B

>  <ION MODE>  (4751) 
P

>  <INCHIKEY>  (4751) 
HXRGKEOWDNVHPA-QMMMGPOBSA-N

>  <FORMULA>  (4751) 
C9H22O3Si2

>  <EXACT MASS>  (4751) 
234.11074762399997

>  <MW>  (4751) 
234

>  <ID>  (4751) 
JP002717

>  <CONTRIBUTOR>  (4751) 
University of Tokyo Team, {Faculty of Engineering, University of Tokyo

>  <COMMENT>  (4751) 
SMILES=O=C(O[Si](C)(C)C)C([H])(C)O[Si](C)(C)C
InChI=InChI=1S/C9H22O3Si2/c1-8(11-13(2,3)4)9(10)12-14(5,6)7/h8H,1-7H3/t8-/m0/s1
computed SMILES=O=C(O[Si](C)(C)C)C(O[Si](C)(C)C)C
accession=JP002717
date=2016.01.19 (Created 2008.10.21, modified 2011.05.06)
author=HAYASHI A, DEPT. OF CHEMISTRY, FAC. OF SCI. AND TECHNOLOGY, KINKI UNIV.
license=CC BY-NC-SA
exact mass=234.11075
ionization energy=70 eV
ion type=[M]+*
computed spectral entropy=2.993097548127436
computed normalized entropy=0.6528067128177963
SPLASH=splash10-00xr-9600000000-012175bf870e7dd12a15
submitter=submitter = University of Tokyo Team (Faculty of Engineering, University of Tokyo)
MoNA Rating=3.75

>  <NUM PEAKS>  (4751) 
98

>  <MASS SPECTRAL PEAKS>  (4751) 
41 19.5
42 2.1
43 7
44 3.2
45 14.1
46 1
47 4.1
48 0.02
49 0.1
50 0.1
51 0.4
52 0.12
53 0.3
55 2.6
56 0.6
57 0.09
58 3.1
59 6.4
60 0.9
61 0.25
62 0.1
66 9.9
67 1.3
68 0.01
70 0.6
71 0.9
72 3.5
73 99.99
74 9.3
75 36.3
76 2.8
77 0.17
78 0.8
79 0.3
80 0.3
81 0.05
82 0.1
85 0.2
86 0.2
87 0.12
88 5.3
89 0.8
90 0.1
91 0.01
93 1.8
94 0.2
95 1.8
100 0.03
101 2
102 1.8
103 1.2
105 0.03
107 1.1
109 0.9
113 0.1
115 0.08
116 13
117 73.4
118 8.2
119 0.39
120 0.6
121 12
122 0.9
123 1.15
124 0.3
129 0.8
130 0.1
131 0.3
132 0.5
133 4.9
134 0.6
135 0.03
144 0.1
145 0.2
146 0.2
147 6.37
148 9.8
149 5.4
150 0.5
151 0.01
163 0.1
167 0.1
168 0.1
174 0.01
175 0.5
176 0.1
190 9.8
191 1.06
192 2.5
193 0.8
194 0.1
200 0.3
202 5.5
203 0.4
204 2.9
219 0.48
220 0.8
221 0.4

>  <PREDICTED SPECTRUM>  (4751) 
15 19
18 44
26 32
27 120
28 107
29 71
31 60
38 38
39 148
40 61
41 100
42 58
43 348
44 269
45 395
46 65
47 230
48 1
49 10
50 13
51 28
52 46
53 46
54 42
55 228
56 44
57 89
58 194
59 319
60 109
61 175
63 1
65 61
66 142
71 91
72 236
73 999
74 330
75 496
76 115
77 130
78 4
79 15
81 22
85 22
86 64
87 134
88 31
89 58
91 44
93 31
99 62
101 150
102 98
103 133
105 45
115 97
116 35
117 771
118 259
119 220
129 161
130 125
131 225
133 234
134 104
135 44
146 37
147 939
148 377
149 332
150 95
162 26
175 146
190 226
191 342
192 160
193 12
203 0
219 244
220 126
221 107

$$$$

     RDKit          2D

 27 30  0  0  1  0  0  0  0  0999 V2000
    3.1130    4.9420    0.0000 C   0  0  0  0  0  0  0  0  0  0  0  0
   -1.6800    1.1900    0.0000 C   0  0  0  0  0  0  0  0  0  0  0  0
    2.3787    3.4316    0.0000 C   0  0  0  0  0  0  0  0  0  0  0  0
    7.5158    5.8722    0.0000 C   0  0  0  0  0  0  0  0  0  0  0  0
   -6.8776   -4.8104    0.0000 C   0  0  0  0  0  0  0  0  0  0  0  0
   -0.3800   -2.5600    0.0000 C   0  0  0  0  0  0  0  0  0  0  0  0
    0.9200   -1.8100    0.0000 C   0  0  0  0  0  0  0  0  0  0  0  0
    4.5300    1.1900    0.0000 C   0  0  0  0  0  0  0  0  0  0  0  0
    3.6500   -0.0200    0.0000 C   0  0  0  0  0  0  0  0  0  0  0  0
   -4.2800   -0.3100    0.0000 C   0  0  0  0  0  0  0  0  0  0  0  0
   -0.3800    1.9400    0.0000 C   0  0  0  0  0  0  0  0  0  0  0  0
   -2.9800    0.4400    0.0000 C   0  0  0  0  0  0  0  0  0  0  0  0
    0.9200    2.6900    0.0000 C   0  0  0  0  0  0  0  0  0  0  0  0
   -2.9800   -2.5600    0.0000 C   0  0  0  0  0  0  0  0  0  0  0  0
    4.1153    3.8260    0.0000 C   0  0  0  0  0  0  0  0  0  0  0  0
   -1.6800   -1.8100    0.0000 C   0  0  0  0  0  0  0  0  0  0  0  0
   -4.2800   -1.8100    0.0000 C   0  0  0  0  0  0  0  0  0  0  0  0
    0.9200   -0.3100    0.0000 C   0  0  0  0  0  0  0  0  0  0  0  0
    3.6500    2.4000    0.0000 C   0  0  0  0  0  0  0  0  0  0  0  0
    2.2200    0.4400    0.0000 C   0  0  0  0  0  0  0  0  0  0  0  0
   -0.3800    0.4400    0.0000 C   0  0  0  0  0  0  0  0  0  0  0  0
   -1.6800   -0.3100    0.0000 C   0  0  0  0  0  0  0  0  0  0  0  0
    2.2200    1.9400    0.0000 C   0  0  0  0  0  0  0  0  0  0  0  0
    5.5829    4.1361    0.0000 N   0  0  0  0  0  0  0  0  0  0  0  0
   -5.5789   -2.5602    0.0000 N   0  0  0  0  0  0  0  0  0  0  0  0
    6.0482    5.5621    0.0000 O   0  0  0  0  0  0  0  0  0  0  0  0
   -5.5787   -4.0602    0.0000 O   0  0  0  0  0  0  0  0  0  0  0  0
  7  6  1  0
  9  8  1  0
 12 10  1  0
 13 11  1  0
 15  1  1  0
 16  6  1  0
 16 14  2  0
 17 10  1  0
 17 14  1  0
 18  7  1  6
 19  8  1  0
 19 15  1  1
 20  9  1  1
 20 18  1  0
 21 11  1  1
 21 18  1  0
 22  2  1  1
 22 12  1  0
 22 16  1  0
 22 21  1  0
 23  3  1  1
 23 13  1  0
 23 19  1  0
 23 20  1  0
 15 24  2  0
 17 25  2  0
 26  4  1  0
 26 24  1  0
 27  5  1  0
 27 25  1  0
M  END
>  <NAME>  (4752) 
PROGESTERONE 3,20-BIS(O-METHYLOXIME)

>  <SYNONYMS>  (4752) 


>  <SPECTRUM TYPE>  (4752) 
MS1

>  <INSTRUMENT TYPE>  (4752) 
EI-B

>  <INSTRUMENT>  (4752) 
SHIMADZU LKB-9000B

>  <ION MODE>  (4752) 
P

>  <INCHIKEY>  (4752) 
WCBFSBXYZBTGBQ-PTUKXLOHSA-N

>  <FORMULA>  (4752) 
C23H36N2O2

>  <EXACT MASS>  (4752) 
372.277678392

>  <MW>  (4752) 
372

>  <ID>  (4752) 
JP002715

>  <CONTRIBUTOR>  (4752) 
University of Tokyo Team, {Faculty of Engineering, University of Tokyo

>  <COMMENT>  (4752) 
SMILES=CON=C(C4)C=C(C3)C(C)(C4)C([H])(C2)C([H])(C3)C([H])(C1)C(C)(C2)C(C(C)=NOC)C1
InChI=InChI=1S/C23H36N2O2/c1-15(24-26-4)19-8-9-20-18-7-6-16-14-17(25-27-5)10-12-22(16,2)21(18)11-13-23(19,20)3/h14,18-21H,6-13H2,1-5H3/b24-15+,25-17-/t18-,19+,20-,21-,22-,23+/m0/s1
computed SMILES=N(OC)=C1C=C2CCC3C(CCC4(C)C(C(=NOC)C)CCC34)C2(C)CC1
ion type=[M]+*
computed spectral entropy=4.694258291487072
accession=JP002715
date=2016.01.19 (Created 2008.10.21, modified 2011.05.06)
author=HAYASHI A, DEPT. OF CHEMISTRY, FAC. OF SCI. AND TECHNOLOGY, KINKI UNIV.
license=CC BY-NC-SA
exact mass=372.27768
ionization energy=70 eV
computed normalized entropy=0.9172067148847154
SPLASH=splash10-00b9-4910000000-0e3024d316d461934501
submitter=submitter = University of Tokyo Team (Faculty of Engineering, University of Tokyo)
MoNA Rating=3.75

>  <NUM PEAKS>  (4752) 
167

>  <MASS SPECTRAL PEAKS>  (4752) 
51 6.7
53 33.5
54 18.3
55 38.5
56 15
57 23.8
59 10
61 0.4
65 22.3
66 10.7
67 16.1
68 1.79
69 27
70 25.1
71 5.3
72 0.89
74 6.1
75 99.99
76 22.8
77 6.75
78 18.4
79 60.1
80 19.7
81 2.6
82 13.5
83 9.6
84 9
85 0.24
87 22.5
89 3.9
90 7.8
91 8.67
92 24.9
93 46.8
94 25.9
95 4.14
98 13.4
99 7.5
100 38
103 1.62
104 5.1
105 59.3
106 22.8
107 1.92
108 24.8
109 12.4
110 13.1
111 0.9
112 13.1
113 14
115 23
116 1.58
117 35.3
118 25
119 19.6
120 5.43
121 64
122 26.7
123 25.8
124 1.14
125 23
126 10.7
127 10
128 1.26
129 36.9
130 20.1
131 32.9
132 2.24
133 15.1
134 26.8
135 31.9
136 2.14
137 31.7
138 17.2
139 13.8
141 1.44
142 16.6
143 26.1
144 26.8
145 2.86
146 20.3
147 28.9
148 18.3
149 3.97
150 3.3
151 38.2
152 16.5
153 4.26
154 13.6
155 18.7
156 16.4
157 3.23
158 18.3
159 32.5
160 19.8
161 0.49
163 0.8
165 12.6
166 12
167 1.31
168 10.5
169 14
170 23
171 1.6
172 13.7
173 16.8
174 13.1
175 0.98
176 2
178 9.4
179 8.4
180 1.14
181 7.3
182 8.9
183 10.6
184 1.28
185 9.4
186 9.6
187 7.6
190 0.99
195 8.6
196 10.6
203 8.5
205 9.9
206 3.8
211 14.5
217 11.7
218 1.15
219 5.9
220 11.2
221 20.5
222 0.6
223 4.5
234 8.7
235 8.3
236 1.02
237 13.1
250 5.8
251 5.5
252 1.01
253 10.6
254 11.4
263 8.5
266 0.51
268 2.5
269 15.7
273 18
279 0.98
280 0.8
284 5.4
286 9.3
292 0.98
295 6
298 8.6
299 26.5
300 0.82
309 13
311 10.2
324 10
326 0.06
327 5.5
328 1.3
339 8
340 1.72
343 3.4
372 67.5
373 16.7

>  <PREDICTED SPECTRUM>  (4752) 
15 25
27 42
28 63
29 91
30 49
31 45
32 30
33 22
39 160
40 104
41 483
42 426
43 283
44 376
45 237
46 99
47 74
48 127
49 2
50 95
51 158
52 163
53 365
54 288
55 508
56 231
57 249
58 199
59 192
60 139
61 83
62 23
63 80
64 62
65 285
66 204
67 490
68 254
69 256
70 436
71 145
72 157
73 91
74 164
75 213
76 43
77 498
78 300
79 630
80 360
81 456
82 327
83 213
84 247
85 154
86 256
87 558
88 214
89 198
90 110
91 729
92 327
93 580
94 487
95 371
96 345
97 172
98 223
99 232
100 669
101 183
102 35
103 251
104 251
105 578
106 403
107 447
108 392
109 267
110 231
111 202
112 296
113 247
114 266
115 304
116 255
117 448
118 303
119 465
120 532
121 375
122 427
123 303
124 159
125 778
126 504
127 180
128 165
129 220
130 257
131 490
132 417
133 382
134 427
135 288
136 263
137 681
138 296
139 311
140 271
141 223
142 190
143 375
144 296
145 433
146 337
147 342
148 278
149 254
150 217
151 605
152 619
153 624
154 210
155 196
156 139
157 307
158 328
159 349
160 343
161 221
162 195
163 116
164 140
165 115
166 162
167 134
168 163
169 219
170 180
171 232
172 334
173 320
174 245
175 131
176 193
177 134
178 181
179 113
180 117
181 119
182 157
183 168
184 142
185 219
186 207
187 162
188 178
189 86
190 104
191 74
192 107
193 49
194 117
195 139
196 151
197 247
198 138
199 216
200 170
201 120
202 99
203 111
204 130
205 59
206 155
207 68
208 87
209 192
210 137
211 200
212 181
213 163
214 146
215 72
216 68
217 65
218 91
219 167
220 169
221 98
222 80
223 158
224 134
225 185
226 245
227 261
228 224
229 66
230 97
231 83
232 120
233 115
234 60
235 167
236 158
237 166
238 172
239 147
240 244
241 229
242 249
243 145
244 64
245 30
246 59
247 61
248 76
249 83
250 92
251 189
252 250
253 278
254 251
255 185
256 163
257 149
258 184
259 133
260 178
261 128
262 69
263 32
264 54
265 93
266 199
267 187
268 270
269 171
270 88
271 104
272 178
273 445
274 247
275 162
276 106
277 155
278 160
279 168
280 184
281 175
282 194
283 126
284 238
285 135
286 421
287 188
288 104
289 45
290 1
291 61
292 141
293 212
294 181
295 207
296 65
297 73
298 111
299 97
300 144
301 47
307 66
308 51
309 383
310 268
311 224
312 178
313 95
314 63
322 9
323 110
324 182
325 190
326 203
327 150
328 5
339 150
340 161
341 999
342 481
343 222
344 80
355 38
357 290
358 106
370 60
371 10
372 993
373 490
374 152

$$$$

     RDKit          2D

 28 31  0  0  1  0  0  0  0  0999 V2000
    2.3365    3.1918    0.0000 C   0  0  0  0  0  0  0  0  0  0  0  0
   -6.1583   -0.7513    0.0000 C   0  0  0  0  0  0  0  0  0  0  0  0
   -8.2072   -1.3006    0.0000 C   0  0  0  0  0  0  0  0  0  0  0  0
   -7.6579   -3.3496    0.0000 C   0  0  0  0  0  0  0  0  0  0  0  0
    5.8526    2.4412    0.0000 C   0  0  0  0  0  0  0  0  0  0  0  0
    7.0080    4.2202    0.0000 C   0  0  0  0  0  0  0  0  0  0  0  0
    5.2289    5.3756    0.0000 C   0  0  0  0  0  0  0  0  0  0  0  0
   -0.4100   -2.8000    0.0000 C   0  0  0  0  0  0  0  0  0  0  0  0
   -4.3100   -0.5500    0.0000 C   0  0  0  0  0  0  0  0  0  0  0  0
    0.8900   -2.0500    0.0000 C   0  0  0  0  0  0  0  0  0  0  0  0
   -3.0100    0.2000    0.0000 C   0  0  0  0  0  0  0  0  0  0  0  0
    3.6100   -0.2600    0.0000 C   0  0  0  0  0  0  0  0  0  0  0  0
    4.4900    0.9500    0.0000 C   0  0  0  0  0  0  0  0  0  0  0  0
   -0.4100    1.7000    0.0000 C   0  0  0  0  0  0  0  0  0  0  0  0
    0.8900    2.4500    0.0000 C   0  0  0  0  0  0  0  0  0  0  0  0
   -3.0100   -2.8000    0.0000 C   0  0  0  0  0  0  0  0  0  0  0  0
   -1.7100   -2.0500    0.0000 C   0  0  0  0  0  0  0  0  0  0  0  0
   -4.3100   -2.0500    0.0000 C   0  0  0  0  0  0  0  0  0  0  0  0
   -1.7100   -0.5500    0.0000 C   0  0  0  0  0  0  0  0  0  0  0  0
   -0.4100    0.2000    0.0000 C   0  0  0  0  0  0  0  0  0  0  0  0
    0.8900   -0.5500    0.0000 C   0  0  0  0  0  0  0  0  0  0  0  0
    2.1800    0.2000    0.0000 C   0  0  0  0  0  0  0  0  0  0  0  0
    3.6100    2.1700    0.0000 C   0  0  0  0  0  0  0  0  0  0  0  0
    2.1800    1.7000    0.0000 C   0  0  0  0  0  0  0  0  0  0  0  0
   -5.6089   -2.8002    0.0000 O   0  0  0  0  0  0  0  0  0  0  0  0
    4.0736    3.5966    0.0000 O   0  0  0  0  0  0  0  0  0  0  0  0
   -6.9081   -2.0504    0.0000 Si  0  0  0  0  0  4  0  0  0  0  0  0
    5.5408    3.9084    0.0000 Si  0  0  0  0  0  4  0  0  0  0  0  0
 10  8  1  0
 11  9  1  0
 13 12  1  0
 15 14  1  0
 17  8  1  0
 17 16  2  0
 18  9  2  0
 18 16  1  0
 19 11  2  0
 19 17  1  0
 20 14  1  1
 20 19  1  0
 21 10  1  6
 21 20  1  0
 22 12  1  1
 22 21  1  0
 23 13  1  0
 24  1  1  1
 24 15  1  0
 24 22  1  0
 24 23  1  0
 25 18  1  0
 23 26  1  1
 27  2  1  0
 27  3  1  0
 27  4  1  0
 27 25  1  0
 28  5  1  0
 28  6  1  0
 28  7  1  0
 28 26  1  0
M  END
>  <NAME>  (4753) 
3,17BETA-DI-O-TRIMETHYLSILYLESTRADIOL

>  <SYNONYMS>  (4753) 


>  <SPECTRUM TYPE>  (4753) 
MS1

>  <INSTRUMENT TYPE>  (4753) 
EI-B

>  <INSTRUMENT>  (4753) 
SHIMADZU LKB-9000B

>  <ION MODE>  (4753) 
P

>  <INCHIKEY>  (4753) 
WJUROLKZHWTVGC-DJCPXJLLSA-N

>  <FORMULA>  (4753) 
C24H40O2Si2

>  <EXACT MASS>  (4753) 
416.25668357999996

>  <MW>  (4753) 
416

>  <ID>  (4753) 
JP002714

>  <CONTRIBUTOR>  (4753) 
University of Tokyo Team, {Faculty of Engineering, University of Tokyo

>  <COMMENT>  (4753) 
SMILES=C(C1(C)4)([H])(O[Si](C)(C)C)CCC1(C(C([H])(CC4)2)([H])CCc(c3)c2ccc(O[Si](C)(C)C)3)[H]
InChI=InChI=1S/C24H40O2Si2/c1-24-15-14-20-19-11-9-18(25-27(2,3)4)16-17(19)8-10-21(20)22(24)12-13-23(24)26-28(5,6)7/h9,11,16,20-23H,8,10,12-15H2,1-7H3/t20-,21-,22+,23+,24+/m1/s1
computed SMILES=O(C1=CC=C2C(=C1)CCC3C2CCC4(C)C(O[Si](C)(C)C)CCC34)[Si](C)(C)C
accession=JP002714
date=2016.01.19 (Created 2008.10.21, modified 2011.05.06)
author=HAYASHI A, DEPT. OF CHEMISTRY, FAC. OF SCI. AND TECHNOLOGY, KINKI UNIV.
license=CC BY-NC-SA
exact mass=416.25668
ionization energy=70 eV
ion type=[M]+*
computed spectral entropy=4.069292341543929
computed normalized entropy=0.7795047843281593
SPLASH=splash10-01dr-8591400000-19337bf70bccf7500010
submitter=submitter = University of Tokyo Team (Faculty of Engineering, University of Tokyo)
MoNA Rating=3.75

>  <NUM PEAKS>  (4753) 
185

>  <MASS SPECTRAL PEAKS>  (4753) 
51 0.4
53 3.7
54 2
55 0.95
56 2.8
57 9.9
58 2.8
59 1.07
60 1.5
61 1.8
65 2.5
67 0.42
68 3.3
70 2.5
71 2.4
72 0.33
73 87.8
74 8.8
75 71.5
76 0.83
77 12.2
78 3
79 3.9
81 0.72
82 1.1
83 3.9
85 3.3
91 0.7
93 3.2
94 2.8
95 5.6
97 0.3
98 2.2
99 3.5
101 4
103 0.04
104 0.6
105 5.8
106 1.9
107 0.56
109 3.8
110 1.6
111 1.5
112 0.25
113 1.9
115 9
116 3.7
117 0.64
118 1.6
119 2.1
120 2.4
121 0.2
122 2.2
123 0.6
126 1.7
127 0.22
128 2.7
129 36.7
130 8.2
131 0.29
132 2.2
134 1.3
135 1.2
141 0.49
142 1.5
143 0.7
144 1.7
145 0.2
146 1.5
147 0.1
148 1.5
149 0.55
151 3.6
152 3
153 2.4
155 0.28
157 1.5
159 2.5
160 2.6
161 0.14
162 1.7
163 0.5
164 1.5
165 0.26
167 2.6
169 3
170 2
173 0.17
175 1.7
176 0.1
177 3.4
178 0.2
179 5.6
180 3.1
181 2.3
182 0.17
183 2
185 2.3
186 1.5
187 0.27
189 3.8
190 3
192 0.8
195 0.26
196 1.5
199 1.4
201 3.9
202 0.22
203 5.2
204 2.7
205 9.8
206 0.15
211 2.1
213 1.8
215 4.7
216 0.35
217 6.3
218 21.1
219 5.8
220 0.22
221 1.2
222 1.1
223 0.9
227 0.22
229 9.2
230 3.9
231 19.1
232 2.17
233 5
234 2.7
235 2
242 0.19
243 4
244 14.3
245 6.3
246 0.2
247 1.4
250 1.1
251 1
252 0.19
253 2
254 1.8
255 2.4
256 0.19
257 4.6
258 3.3
259 1.6
269 0.29
270 2.9
271 2.8
272 3.9
283 0.02
284 10.7
285 63.5
286 17.7
287 1.21
288 1.9
295 2.8
296 2.1
297 0.48
298 8.8
299 3.8
300 4
307 0.15
309 4.9
310 2.1
311 4.4
323 0.15
324 6.2
325 6.3
326 15.5
327 0.1
328 0.5
335 3
339 2.7
340 0.23
400 0.5
401 5.6
402 2
414 0.12
415 7.3
416 99.99
417 33.7
418 0.76
419 2.3

>  <PREDICTED SPECTRUM>  (4753) 
27 17
29 43
39 7
41 114
43 73
44 11
45 94
46 15
47 46
51 45
53 57
54 3
55 156
56 49
57 127
58 39
59 144
60 46
61 65
62 9
63 23
64 0
65 69
67 88
69 148
70 38
71 43
72 51
73 634
74 185
75 404
76 79
77 170
78 50
79 134
80 13
81 212
82 68
83 82
85 88
88 7
89 97
90 25
91 153
92 38
93 189
94 72
95 137
96 41
97 109
99 51
101 94
102 100
103 223
104 17
105 140
106 70
107 125
109 139
111 68
113 17
114 48
115 193
116 91
117 108
119 60
120 20
121 51
122 55
123 49
127 74
128 145
129 577
130 211
131 184
132 50
133 88
134 14
135 72
141 132
142 114
143 173
144 94
145 174
146 54
147 119
148 76
149 88
151 26
154 31
155 81
156 83
157 102
158 57
159 98
160 45
161 97
162 10
163 127
164 30
165 92
166 32
167 90
168 15
169 117
170 47
171 112
172 47
173 86
174 113
175 46
177 157
178 150
179 221
180 84
181 112
182 60
183 121
184 71
185 126
186 63
187 34
188 27
189 132
190 68
191 136
192 122
193 92
194 15
195 105
196 55
197 75
198 2
199 34
200 30
201 109
202 77
203 264
204 158
205 240
206 145
207 135
208 89
209 27
210 97
211 81
213 45
214 9
215 131
216 191
217 268
218 479
219 242
220 115
221 135
222 10
223 57
227 60
228 33
229 207
230 198
231 340
232 355
233 192
234 123
235 23
236 117
237 192
238 73
239 92
241 64
242 94
243 190
244 384
245 454
246 287
247 72
253 158
254 109
255 212
256 213
257 248
258 334
259 272
260 18
267 69
268 6
269 281
270 181
271 324
272 218
273 142
281 123
282 97
283 316
284 281
285 389
286 256
287 135
295 94
296 117
297 277
298 323
299 195
300 151
301 50
306 16
308 59
309 106
310 73
311 193
312 182
313 125
314 60
323 72
324 117
325 210
326 432
327 239
328 122
329 19
341 10
342 28
343 21
344 127
345 148
346 103
360 81
361 48
373 37
388 38
389 1
399 77
400 68
401 262
402 230
403 162
404 57
413 13
414 162
415 76
416 999
417 567
418 272
419 186
420 122

$$$$

     RDKit          2D

 26 29  0  0  1  0  0  0  0  0999 V2000
    2.3787    3.4316    0.0000 C   0  0  0  0  0  0  0  0  0  0  0  0
    3.5782    6.3680    0.0000 C   0  0  0  0  0  0  0  0  0  0  0  0
   -6.1283   -0.5113    0.0000 C   0  0  0  0  0  0  0  0  0  0  0  0
   -8.1772   -1.0606    0.0000 C   0  0  0  0  0  0  0  0  0  0  0  0
   -7.6279   -3.1096    0.0000 C   0  0  0  0  0  0  0  0  0  0  0  0
   -0.3800   -2.5600    0.0000 C   0  0  0  0  0  0  0  0  0  0  0  0
   -4.2800   -0.3100    0.0000 C   0  0  0  0  0  0  0  0  0  0  0  0
    0.9200   -1.8100    0.0000 C   0  0  0  0  0  0  0  0  0  0  0  0
   -2.9800    0.4400    0.0000 C   0  0  0  0  0  0  0  0  0  0  0  0
    3.6500   -0.0200    0.0000 C   0  0  0  0  0  0  0  0  0  0  0  0
    4.5300    1.1900    0.0000 C   0  0  0  0  0  0  0  0  0  0  0  0
   -0.3800    1.9400    0.0000 C   0  0  0  0  0  0  0  0  0  0  0  0
    0.9200    2.6900    0.0000 C   0  0  0  0  0  0  0  0  0  0  0  0
   -2.9800   -2.5600    0.0000 C   0  0  0  0  0  0  0  0  0  0  0  0
   -1.6800   -1.8100    0.0000 C   0  0  0  0  0  0  0  0  0  0  0  0
   -4.2800   -1.8100    0.0000 C   0  0  0  0  0  0  0  0  0  0  0  0
   -1.6800   -0.3100    0.0000 C   0  0  0  0  0  0  0  0  0  0  0  0
   -0.3800    0.4400    0.0000 C   0  0  0  0  0  0  0  0  0  0  0  0
    0.9200   -0.3100    0.0000 C   0  0  0  0  0  0  0  0  0  0  0  0
    2.2200    0.4400    0.0000 C   0  0  0  0  0  0  0  0  0  0  0  0
    3.6500    2.4000    0.0000 C   0  0  0  0  0  0  0  0  0  0  0  0
    2.2200    1.9400    0.0000 C   0  0  0  0  0  0  0  0  0  0  0  0
    4.1153    3.8260    0.0000 N   0  0  0  0  0  0  0  0  0  0  0  0
    3.1130    4.9420    0.0000 O   0  0  0  0  0  0  0  0  0  0  0  0
   -5.5789   -2.5602    0.0000 O   0  0  0  0  0  0  0  0  0  0  0  0
   -6.8781   -1.8104    0.0000 Si  0  0  0  0  0  4  0  0  0  0  0  0
  8  6  1  0
  9  7  1  0
 11 10  1  0
 13 12  1  0
 15  6  1  0
 15 14  2  0
 16  7  2  0
 16 14  1  0
 17  9  2  0
 17 15  1  0
 18 12  1  1
 18 17  1  0
 19  8  1  6
 19 18  1  0
 20 10  1  1
 20 19  1  0
 21 11  1  0
 22  1  1  1
 22 13  1  0
 22 20  1  0
 22 21  1  0
 21 23  2  0
 24  2  1  0
 24 23  1  0
 25 16  1  0
 26  3  1  0
 26  4  1  0
 26  5  1  0
 26 25  1  0
M  END
>  <NAME>  (4754) 
3-O-TRIMETHYLSILYLESTRONE 17-(O-METHYL)OXIME

>  <SYNONYMS>  (4754) 


>  <SPECTRUM TYPE>  (4754) 
MS1

>  <INSTRUMENT TYPE>  (4754) 
EI-B

>  <INSTRUMENT>  (4754) 
SHIMADZU LKB-9000B

>  <ION MODE>  (4754) 
P

>  <INCHIKEY>  (4754) 
GIUGKXYPAYLRPS-AFLCNQENSA-N

>  <FORMULA>  (4754) 
C22H33NO2Si

>  <EXACT MASS>  (4754) 
371.228055826

>  <MW>  (4754) 
371

>  <ID>  (4754) 
JP002712

>  <CONTRIBUTOR>  (4754) 
University of Tokyo Team, {Faculty of Engineering, University of Tokyo

>  <COMMENT>  (4754) 
SMILES=CON=C(C4)C(C)(C3)C([H])(C4)C([H])(C1)C([H])(C3)c(c2)c(cc(O[Si](C)(C)C)c2)C1
InChI=InChI=1S/C22H33NO2Si/c1-22-13-12-18-17-9-7-16(25-26(3,4)5)14-15(17)6-8-19(18)20(22)10-11-21(22)23-24-2/h7,9,14,18-20H,6,8,10-13H2,1-5H3/b23-21-/t18-,19-,20+,22+/m1/s1
computed SMILES=N(OC)=C1CCC2C3CCC4=CC(O[Si](C)(C)C)=CC=C4C3CCC12C
computed spectral entropy=4.682309614273159
accession=JP002712
date=2016.01.19 (Created 2008.10.21, modified 2011.05.06)
author=HAYASHI A, DEPT. OF CHEMISTRY, FAC. OF SCI. AND TECHNOLOGY, KINKI UNIV.
license=CC BY-NC-SA
exact mass=371.22806
ionization energy=70 eV
ion type=[M]+*
computed normalized entropy=0.8320228955858872
SPLASH=splash10-00di-4579000000-0e96df11205ca148758c
submitter=submitter = University of Tokyo Team (Faculty of Engineering, University of Tokyo)
MoNA Rating=3.75

>  <NUM PEAKS>  (4754) 
278

>  <MASS SPECTRAL PEAKS>  (4754) 
51 1.9
53 3.7
54 3.2
55 4.8
56 3.5
57 3.8
58 2.6
59 0.71
60 1.2
61 1.7
63 1.4
65 0.3
66 1.7
67 4.2
68 2.2
70 0.23
71 1.3
72 1.6
73 91.8
74 0.8
75 26.5
76 2.2
77 8
78 0.31
79 5.7
80 2.4
81 4.5
82 0.41
83 1.1
84 7
85 2.1
86 0.11
87 2
89 3.6
90 1.1
91 0.73
92 2
93 4.3
94 3
95 0.44
96 18.4
97 2
98 2.2
99 0.07
100 2.9
101 3.7
102 1.5
103 0.38
104 1.7
105 7.9
106 2.2
107 0.76
108 7.1
109 4.6
110 3.4
111 0.08
112 1.9
113 2.2
114 2.5
115 1.06
116 3.5
117 4.3
118 1.9
119 0.35
120 4
121 3.3
122 5
123 0.17
124 2.2
125 1.4
126 4.3
127 0.69
128 9.8
129 6.8
130 2.3
131 0.29
132 2.8
133 3.4
134 4.5
135 0.35
136 1.9
137 0.8
138 4
139 0.21
140 3
141 8
142 3.4
143 0.31
144 2.4
145 4.1
146 3
147 0.34
148 1.2
149 2.6
150 1.7
151 0.25
152 3.3
153 3.4
154 2.5
155 0.48
156 1.5
157 3.6
158 2.1
159 0.33
160 3.1
161 5.4
162 2
163 1.1
164 2.9
165 5.5
166 2.5
167 0.35
168 1.5
169 1.8
170 2
171 0.23
172 1.5
173 2.3
174 1.3
175 0.32
176 2.2
177 9.2
178 4.7
179 10.6
180 6
181 3
182 1.4
183 0.23
184 1.2
185 4.5
186 1.6
187 0.37
188 2.3
189 8.2
190 2.7
191 0.3
192 2.6
193 3.8
194 2.5
195 0.39
196 1.4
197 1.8
198 1.1
199 0.3
200 2
201 9
202 3.2
203 1.45
204 3.8
205 18.4
206 5.4
209 0.15
210 2
211 2
213 2.4
214 0.2
215 7.4
216 5.1
217 21.9
218 8.97
219 21.3
220 6.3
221 2.1
222 0.17
223 2
224 1
225 1.7
226 0.12
227 2.1
228 1.5
229 16
230 1.2
231 30.4
232 25.1
233 7.2
234 0.32
235 2.4
236 1.3
237 1.6
238 0.11
239 1.7
240 1.4
241 2.3
242 0.27
243 4.7
244 11.4
245 1.5
246 0.23
247 1.4
248 1.8
249 1.7
250 0.28
251 1.4
252 1.3
253 2.5
254 0.17
255 3.2
256 3.1
257 7.4
258 0.31
259 2.9
260 1.3
261 1.1
265 0.11
266 1.9
267 3.2
268 3.8
269 0.5
270 4.8
271 13.1
272 4.6
273 0.2
279 1.4
280 2.1
281 2.6
282 0.51
283 15.9
284 15.7
285 26.9
286 0.88
287 2.8
292 1
293 1.6
294 0.17
295 2.5
296 4
297 6.4
298 0.53
299 6.8
300 2.1
301 1
305 0.2
306 4.5
307 3.4
308 2.2
309 0.33
310 10.5
311 7.7
312 12.9
313 0.57
314 2.4
315 1.3
318 1
319 1.3
320 1.2
321 1.9
322 3.4
323 0.9
324 15.2
325 5.2
326 8.3
327 0.19
328 1.5
335 1.9
336 1.5
337 0.38
338 7.5
339 53.2
340 84.3
341 4.92
342 14.4
343 4.4
344 1.5
353 0.08
354 6.7
355 2
356 11.5
357 0.44
358 1.4
369 2.6
370 6.6
371 99.99
372 32.6
373 8
374 0.13
385 6.3
386 2.2
399 1.6

>  <PREDICTED SPECTRUM>  (4754) 
28 7
29 23
39 18
41 57
51 10
52 11
53 48
54 30
55 54
56 3
57 143
58 7
64 2
65 70
66 1
67 61
68 24
69 90
70 203
71 77
73 370
74 91
75 144
77 39
78 49
79 85
80 38
81 147
82 138
83 77
84 187
85 7
87 85
88 13
91 163
92 92
93 156
94 185
95 206
96 396
97 200
98 43
100 75
105 21
106 19
107 169
108 186
109 211
110 173
111 17
112 78
115 24
117 77
119 45
120 89
121 78
122 187
123 54
124 96
125 104
126 243
127 78
129 32
131 21
133 55
134 87
135 54
136 18
137 18
138 214
139 146
140 118
145 15
147 74
149 5
157 45
158 26
163 106
165 3
166 21
167 10
173 63
177 88
178 8
179 230
180 117
181 35
191 59
192 111
193 148
194 29
196 10
199 8
201 69
202 9
203 163
204 97
205 303
206 196
207 69
209 25
215 69
216 170
217 394
218 577
219 272
220 87
221 85
225 3
229 384
230 338
231 448
232 428
233 245
234 73
235 32
241 47
242 86
243 97
244 432
245 301
246 108
247 93
248 62
249 30
250 7
254 78
255 124
256 207
257 293
258 170
259 94
261 38
267 101
268 170
269 222
270 204
271 289
272 176
273 69
281 134
282 209
283 281
284 271
285 266
286 267
287 101
293 52
294 101
295 104
296 170
297 168
298 116
299 193
300 70
307 13
308 126
309 175
310 266
311 193
312 290
313 133
314 82
315 31
321 130
322 112
323 226
324 212
325 193
326 233
327 157
328 15
337 108
338 263
339 535
340 940
341 725
342 402
343 202
344 34
354 53
355 61
356 370
357 174
358 28
369 226
370 113
371 999
372 592
373 309
374 119

$$$$

     RDKit          2D

 27 30  0  0  1  0  0  0  0  0999 V2000
    9.2324    7.1952    0.0000 C   0  0  0  0  0  0  0  0  0  0  0  0
    6.7615    7.9981    0.0000 C   0  0  0  0  0  0  0  0  0  0  0  0
    2.8999    4.5213    0.0000 C   0  0  0  0  0  0  0  0  0  0  0  0
   -1.8900    0.7600    0.0000 C   0  0  0  0  0  0  0  0  0  0  0  0
    2.1640    3.0021    0.0000 C   0  0  0  0  0  0  0  0  0  0  0  0
   -4.4900   -2.2400    0.0000 C   0  0  0  0  0  0  0  0  0  0  0  0
   -4.4900   -0.7400    0.0000 C   0  0  0  0  0  0  0  0  0  0  0  0
    5.8343    5.1450    0.0000 C   0  0  0  0  0  0  0  0  0  0  0  0
    7.3016    5.4568    0.0000 C   0  0  0  0  0  0  0  0  0  0  0  0
    5.3708    3.7184    0.0000 C   0  0  0  0  0  0  0  0  0  0  0  0
   -3.1900   -2.9900    0.0000 C   0  0  0  0  0  0  0  0  0  0  0  0
   -0.5900   -2.9900    0.0000 C   0  0  0  0  0  0  0  0  0  0  0  0
    0.7100   -2.2400    0.0000 C   0  0  0  0  0  0  0  0  0  0  0  0
    4.3200    0.7600    0.0000 C   0  0  0  0  0  0  0  0  0  0  0  0
    3.4400   -0.4500    0.0000 C   0  0  0  0  0  0  0  0  0  0  0  0
   -0.5900    1.5100    0.0000 C   0  0  0  0  0  0  0  0  0  0  0  0
   -3.1900    0.0100    0.0000 C   0  0  0  0  0  0  0  0  0  0  0  0
    0.7100    2.2600    0.0000 C   0  0  0  0  0  0  0  0  0  0  0  0
    7.7651    6.8834    0.0000 C   0  0  0  0  0  0  0  0  0  0  0  0
    3.9036    3.4066    0.0000 C   0  0  0  0  0  0  0  0  0  0  0  0
   -1.8900   -2.2400    0.0000 C   0  0  0  0  0  0  0  0  0  0  0  0
    0.7100   -0.7400    0.0000 C   0  0  0  0  0  0  0  0  0  0  0  0
    3.4400    1.9800    0.0000 C   0  0  0  0  0  0  0  0  0  0  0  0
    2.0100    0.0100    0.0000 C   0  0  0  0  0  0  0  0  0  0  0  0
   -0.5900    0.0100    0.0000 C   0  0  0  0  0  0  0  0  0  0  0  0
   -1.8900   -0.7400    0.0000 C   0  0  0  0  0  0  0  0  0  0  0  0
    2.0100    1.5100    0.0000 C   0  0  0  0  0  0  0  0  0  0  0  0
  7  6  1  0
  9  8  1  0
 10  8  1  0
 11  6  1  0
 13 12  1  0
 15 14  1  0
 17  7  1  0
 18 16  1  0
 19  1  1  0
 19  2  1  0
 19  9  1  0
 20  3  1  6
 20 10  1  0
 21 11  1  1
 21 12  1  0
 22 13  1  6
 23 14  1  0
 23 20  1  0
 24 15  1  1
 24 22  1  0
 25 16  1  1
 25 22  1  0
 26  4  1  1
 26 17  1  0
 26 21  1  0
 26 25  1  0
 27  5  1  1
 27 18  1  0
 27 23  1  0
 27 24  1  0
M  END
>  <NAME>  (4755) 
5-ALPHA-CHOLESTANE

>  <SYNONYMS>  (4755) 


>  <SPECTRUM TYPE>  (4755) 
MS1

>  <INSTRUMENT TYPE>  (4755) 
EI-B

>  <INSTRUMENT>  (4755) 
SHIMADZU LKB-9000B

>  <ION MODE>  (4755) 
P

>  <INCHIKEY>  (4755) 
XIIAYQZJNBULGD-GZHIZRLSSA-N

>  <FORMULA>  (4755) 
C27H48

>  <EXACT MASS>  (4755) 
372.375601536

>  <MW>  (4755) 
372

>  <ID>  (4755) 
JP002711

>  <CONTRIBUTOR>  (4755) 
University of Tokyo Team, {Faculty of Engineering, University of Tokyo

>  <COMMENT>  (4755) 
SMILES=C(C([H])41)([H])(C(C([H])3CC4)(C)CCCC3)CCC(C)(C(C(C)CCCC(C)C)2)C1([H])CC2
InChI=InChI=1S/C27H48/c1-19(2)9-8-10-20(3)23-14-15-24-22-13-12-21-11-6-7-17-26(21,4)25(22)16-18-27(23,24)5/h19-25H,6-18H2,1-5H3/t20-,21-,22+,23?,24+,25+,26+,27-/m1/s1
computed SMILES=CC(C)CCCC(C)C1CCC2C3CCC4CCCCC4(C)C3CCC12C
accession=JP002711
date=2016.01.19 (Created 2008.10.21, modified 2011.05.06)
author=HAYASHI A, DEPT. OF CHEMISTRY, FAC. OF SCI. AND TECHNOLOGY, KINKI UNIV.
license=CC BY-NC-SA
exact mass=372.3756
ionization energy=70 eV
ion type=[M]+*
computed spectral entropy=3.8453547178789713
computed normalized entropy=0.8032086371065797
SPLASH=splash10-066r-9852000000-3f16668bd0029614e716
submitter=submitter = University of Tokyo Team (Faculty of Engineering, University of Tokyo)
MoNA Rating=3.75

>  <NUM PEAKS>  (4755) 
120

>  <MASS SPECTRAL PEAKS>  (4755) 
53 5.3
54 1.5
55 32.3
56 4.8
57 19.7
58 2.2
59 0.6
65 0.31
66 1.9
67 25.2
68 10.7
69 2.37
70 3.2
71 7.1
72 1.9
75 1.59
76 2.8
77 6.9
78 1.7
79 1.56
80 5.3
81 39.1
82 9.4
83 1.67
84 1.9
85 2
87 0.5
88 0.16
91 9.9
92 2.7
93 20.9
94 0.88
95 40
96 1
97 11
98 0.16
99 1.2
101 1.1
105 8.4
106 0.45
107 15.6
108 18.9
109 39.8
110 0.19
111 4.9
112 1.9
113 1.4
115 0.07
116 1.5
117 2
118 1.4
119 0.37
120 3.5
121 20.4
122 16.7
123 1.99
124 3.1
125 1.2
128 1.4
129 0.22
131 1.3
134 2.5
135 15.6
136 0.56
137 8.8
138 1
143 0.2
145 0.09
146 1.2
147 5.9
148 12.6
149 4.73
150 19
151 11.1
152 1.7
153 0.12
155 1.4
159 1.8
161 4.5
162 0.83
163 7.5
164 2.2
165 0.4
175 0.97
176 0.8
178 0.1
179 0.6
189 0.36
190 1.8
202 1
203 9.4
204 0.22
215 1.2
216 1.3
217 99.99
218 5.7
219 15.2
220 3
221 0.6
223 0.01
231 1.9
232 12.7
233 4.1
247 0.16
251 0.3
257 3.7
258 1.2
259 0.15
262 9.6
263 1.5
266 0.1
295 0.03
315 1.1
354 1.6
357 27.2
358 0.86
370 1.2
372 33.8
373 8.6
374 1.2

>  <PREDICTED SPECTRUM>  (4755) 
29 17
40 55
41 546
42 211
43 576
44 177
45 25
48 61
50 16
51 69
52 42
53 244
54 101
55 740
56 185
57 447
58 113
60 0
65 100
66 55
67 589
68 304
69 492
70 110
71 262
72 9
74 13
77 206
78 81
79 409
80 184
81 636
82 272
83 423
84 190
85 76
91 263
92 94
93 436
94 233
95 718
96 214
97 297
98 14
105 223
106 84
107 427
108 430
109 661
110 281
111 238
113 13
119 156
120 130
121 491
122 346
123 457
124 73
133 198
134 74
135 466
136 233
137 333
146 7
147 197
148 313
149 556
150 293
151 257
152 114
160 15
161 179
162 271
163 294
175 336
176 164
177 204
189 227
190 120
191 53
194 21
201 81
203 385
204 211
216 34
217 999
218 959
219 627
220 182
231 7
232 287
233 49
247 47
260 39
262 205
263 134
275 27
315 53
357 409
358 211
372 407
373 380
374 112

$$$$

     RDKit          2D

 33 36  0  0  1  0  0  0  0  0999 V2000
   10.0746    4.6865    0.0000 C   0  0  0  0  0  0  0  0  0  0  0  0
    9.5655    7.2342    0.0000 C   0  0  0  0  0  0  0  0  0  0  0  0
    7.1046    8.0672    0.0000 C   0  0  0  0  0  0  0  0  0  0  0  0
    3.2009    4.6377    0.0000 C   0  0  0  0  0  0  0  0  0  0  0  0
   -6.7926   -5.0947    0.0000 C   0  0  0  0  0  0  0  0  0  0  0  0
   -1.6125    0.9400    0.0000 C   0  0  0  0  0  0  0  0  0  0  0  0
    2.4507    3.1203    0.0000 C   0  0  0  0  0  0  0  0  0  0  0  0
    8.6037    4.3926    0.0000 C   0  0  0  0  0  0  0  0  0  0  0  0
    5.6618    3.8047    0.0000 C   0  0  0  0  0  0  0  0  0  0  0  0
    6.1427    5.2256    0.0000 C   0  0  0  0  0  0  0  0  0  0  0  0
   -0.3200   -2.8400    0.0000 C   0  0  0  0  0  0  0  0  0  0  0  0
    1.0100   -2.0900    0.0000 C   0  0  0  0  0  0  0  0  0  0  0  0
    4.5500    0.8800    0.0000 C   0  0  0  0  0  0  0  0  0  0  0  0
    3.7100   -0.3100    0.0000 C   0  0  0  0  0  0  0  0  0  0  0  0
   -4.2000   -0.5600    0.0000 C   0  0  0  0  0  0  0  0  0  0  0  0
   -0.3200    1.6300    0.0000 C   0  0  0  0  0  0  0  0  0  0  0  0
   -2.8900    0.1600    0.0000 C   0  0  0  0  0  0  0  0  0  0  0  0
    1.0100    2.3900    0.0000 C   0  0  0  0  0  0  0  0  0  0  0  0
   -2.8900   -2.8400    0.0000 C   0  0  0  0  0  0  0  0  0  0  0  0
    8.0946    6.9403    0.0000 C   0  0  0  0  0  0  0  0  0  0  0  0
    4.1909    3.5108    0.0000 C   0  0  0  0  0  0  0  0  0  0  0  0
   -5.4950   -4.3424    0.0000 C   0  0  0  0  0  0  0  0  0  0  0  0
    7.6137    5.5195    0.0000 C   0  0  0  0  0  0  0  0  0  0  0  0
   -1.6200   -2.0900    0.0000 C   0  0  0  0  0  0  0  0  0  0  0  0
   -4.2000   -2.0900    0.0000 C   0  0  0  0  0  0  0  0  0  0  0  0
    1.0100   -0.5600    0.0000 C   0  0  0  0  0  0  0  0  0  0  0  0
    3.7100    2.0900    0.0000 C   0  0  0  0  0  0  0  0  0  0  0  0
    2.2800    0.1600    0.0000 C   0  0  0  0  0  0  0  0  0  0  0  0
   -0.3200    0.1600    0.0000 C   0  0  0  0  0  0  0  0  0  0  0  0
   -1.6200   -0.5600    0.0000 C   0  0  0  0  0  0  0  0  0  0  0  0
    2.2800    1.6300    0.0000 C   0  0  0  0  0  0  0  0  0  0  0  0
   -4.1946   -5.0900    0.0000 O   0  0  0  0  0  0  0  0  0  0  0  0
   -5.4977   -2.8424    0.0000 O   0  0  0  0  0  0  0  0  0  0  0  0
  8  1  1  0
 10  9  1  0
 12 11  1  0
 14 13  1  0
 17 15  1  0
 18 16  1  0
 20  2  1  0
 20  3  1  0
 21  4  1  6
 21  9  1  0
 22  5  1  0
  8 23  2  0
 23 10  1  0
 23 20  1  0
 24 11  2  0
 24 19  1  0
 25 15  1  0
 25 19  1  0
 26 12  1  6
 27 13  1  1
 27 21  1  0
 28 14  1  1
 28 26  1  0
 29 16  1  1
 29 26  1  0
 30  6  1  1
 30 17  1  0
 30 24  1  0
 30 29  1  0
 31  7  1  1
 31 18  1  0
 31 27  1  0
 31 28  1  0
 32 22  2  0
 33 22  1  0
 25 33  1  1
M  END
>  <NAME>  (4756) 
STIGMASTA-5,24(28)-DIEN-3-OL ACETATE

>  <SYNONYMS>  (4756) 
FUCOSTEROL ACETATE

>  <SPECTRUM TYPE>  (4756) 
MS1

>  <INSTRUMENT TYPE>  (4756) 
EI-B

>  <INSTRUMENT>  (4756) 
SHIMADZU LKB-9000B

>  <ION MODE>  (4756) 
P

>  <INCHIKEY>  (4756) 
UKVGAWCNOIELAQ-VXFIQSPPSA-N

>  <FORMULA>  (4756) 
C31H50O2

>  <EXACT MASS>  (4756) 
454.38108084

>  <MW>  (4756) 
454

>  <ID>  (4756) 
JP002710

>  <CONTRIBUTOR>  (4756) 
University of Tokyo Team, {Faculty of Engineering, University of Tokyo

>  <COMMENT>  (4756) 
SMILES=C(C)(=O)OC(C4)CC(C3(C)C4)=CCC(C([H])23)(C(C1)([H])C(CC2)(C(C1)C(C)CCC(=CC)C(C)C)C)[H]
cas=51297-12-2
InChI=InChI=1S/C31H50O2/c1-8-23(20(2)3)10-9-21(4)27-13-14-28-26-12-11-24-19-25(33-22(5)32)15-17-30(24,6)29(26)16-18-31(27,28)7/h8,11,20-21,25-29H,9-10,12-19H2,1-7H3/b23-8-/t21-,25+,26+,27-,28+,29+,30+,31-/m1/s1
computed SMILES=O=C(OC1CC2=CCC3C(CCC4(C)C(CCC34)C(C)CCC(=CC)C(C)C)C2(C)CC1)C
accession=JP002710
date=2016.01.19 (Created 2008.10.21, modified 2011.05.06)
author=HAYASHI A, DEPT. OF CHEMISTRY, FAC. OF SCI. AND TECHNOLOGY, KINKI UNIV.
license=CC BY-NC-SA
exact mass=454.38108
ionization energy=70 eV
ion type=[M]+*
computed spectral entropy=4.475190939947076
computed normalized entropy=0.8627064011526229
SPLASH=splash10-0002-5950000000-75ecb8e883695d41567a
submitter=submitter = University of Tokyo Team (Faculty of Engineering, University of Tokyo)
MoNA Rating=3.75

>  <NUM PEAKS>  (4756) 
179

>  <MASS SPECTRAL PEAKS>  (4756) 
39 2.2
40 1.6
41 13.4
42 2.5
43 20
44 1.7
45 3.4
53 0.41
54 1.2
55 40.6
56 3.4
57 0.48
60 2.2
65 2.3
66 1.1
67 1.54
68 3.7
69 25.7
70 2.9
71 0.3
77 6.5
78 1.7
79 16.8
80 0.26
81 33.1
82 5.9
83 15.4
84 0.22
85 2.1
91 22.8
92 6
93 2.26
94 4.7
95 23.4
96 3.2
97 1.45
98 2.3
103 2.5
104 2.6
105 2.91
106 8.9
107 24.1
108 7.9
109 1.69
110 3.7
111 5.3
115 4.3
116 0.23
117 11.2
118 5.8
119 15.5
120 1.53
121 19.5
122 5.4
123 8.4
124 0.16
125 1.6
127 1.1
128 4.5
129 0.82
130 5
131 17.1
132 5.9
133 1.79
134 6.2
135 11.5
136 2.3
137 0.62
138 3.5
139 1.6
141 4.7
142 0.38
143 17.6
144 7.7
145 33.7
146 1.25
147 23.3
148 7
149 6.7
151 0.19
152 1
153 1.3
154 1.2
155 0.4
156 2.6
157 11.6
158 12.6
159 1.94
160 9.6
161 18.1
162 4.7
163 0.45
164 1.5
165 2.9
167 1.8
169 0.32
170 2.7
171 7.3
172 4.2
173 1.07
174 4
175 10.8
176 3.3
177 0.3
178 1.5
179 1.4
181 1.4
183 0.38
184 1.9
185 7.3
186 3.4
187 0.6
188 4.6
189 7.6
190 2.3
191 0.2
193 1.7
195 1.8
197 7.9
198 0.37
199 9.2
200 3.7
201 4.7
202 2.3
203 3.4
209 1.7
211 10.8
212 4.1
213 2.42
214 8.6
215 4.3
216 1.5
217 0.16
225 3.3
226 2.8
227 8.4
228 1.28
229 5
230 1.1
231 1.1
239 0.38
240 2.3
241 3.4
242 1.6
243 0.36
244 1.1
252 1.5
253 17.8
254 0.81
255 12.8
256 3.4
257 1.6
266 0.11
267 3.1
268 1.9
269 2
271 0.25
272 1.6
273 9.5
274 2.9
281 2.73
282 9
283 5.1
284 1.7
285 0.15
286 3.9
287 2.2
295 2.2
296 99.99
297 27.4
298 3.3
352 2.1
379 1.22
380 4
392 2.4
393 1
394 3.32
395 11.2
396 2.2

>  <PREDICTED SPECTRUM>  (4756) 
28 31
33 12
39 88
40 131
41 583
42 249
43 861
44 271
45 197
48 21
50 23
51 34
53 343
54 204
55 975
56 255
57 402
58 226
59 311
60 207
61 25
65 128
66 91
67 586
68 287
69 682
70 241
71 315
72 54
73 64
77 356
78 145
79 497
80 136
81 740
82 324
83 529
84 224
85 153
86 75
91 663
92 301
93 554
94 200
95 360
96 133
97 394
98 124
99 173
100 3
101 61
102 24
103 152
104 70
105 722
106 360
107 620
108 200
109 395
110 101
111 298
112 86
113 271
114 37
115 213
117 445
118 403
119 725
120 646
121 434
122 53
123 120
124 96
125 84
126 28
127 160
128 208
129 336
130 205
131 529
132 221
133 728
134 206
135 330
136 55
137 169
138 4
139 122
140 34
141 88
142 86
143 375
144 162
145 405
146 470
147 812
148 343
149 321
150 33
151 101
152 58
155 66
156 133
157 391
158 422
159 475
160 350
161 387
162 229
163 184
164 113
165 99
166 60
168 15
169 57
170 11
171 356
172 288
173 324
174 158
175 268
176 202
177 58
179 24
180 49
181 82
183 139
184 69
185 304
186 167
187 295
189 230
190 56
191 22
192 102
197 65
198 14
199 317
200 191
201 287
202 148
203 204
204 63
209 5
211 207
212 328
213 702
214 456
215 238
216 94
217 271
218 124
219 104
220 8
225 113
226 169
227 262
228 644
229 381
230 150
231 76
232 71
233 44
237 28
239 92
242 206
246 43
249 68
252 21
253 636
254 505
255 721
256 264
257 124
265 46
267 115
268 55
269 132
270 3
271 166
272 71
273 190
274 95
281 684
282 551
283 324
284 134
285 158
286 287
287 88
288 138
296 999
297 438
298 67
299 121
300 188
306 16
308 35
310 202
312 4
313 194
314 666
315 201
328 45
338 30
340 139
341 151
342 6
354 74
356 296
357 92
358 221
379 322
394 923
395 199
396 115
430 47
456 3

$$$$

     RDKit          2D

 31 34  0  0  1  0  0  0  0  0999 V2000
    9.5655    7.2342    0.0000 C   0  0  0  0  0  0  0  0  0  0  0  0
    7.1046    8.0672    0.0000 C   0  0  0  0  0  0  0  0  0  0  0  0
    3.2009    4.6377    0.0000 C   0  0  0  0  0  0  0  0  0  0  0  0
   -6.7926   -5.0947    0.0000 C   0  0  0  0  0  0  0  0  0  0  0  0
   -1.6125    0.9400    0.0000 C   0  0  0  0  0  0  0  0  0  0  0  0
    2.4507    3.1203    0.0000 C   0  0  0  0  0  0  0  0  0  0  0  0
    6.1427    5.2256    0.0000 C   0  0  0  0  0  0  0  0  0  0  0  0
    7.6137    5.5195    0.0000 C   0  0  0  0  0  0  0  0  0  0  0  0
    5.6618    3.8047    0.0000 C   0  0  0  0  0  0  0  0  0  0  0  0
   -0.3200   -2.8400    0.0000 C   0  0  0  0  0  0  0  0  0  0  0  0
    1.0100   -2.0900    0.0000 C   0  0  0  0  0  0  0  0  0  0  0  0
    4.5500    0.8800    0.0000 C   0  0  0  0  0  0  0  0  0  0  0  0
    3.7100   -0.3100    0.0000 C   0  0  0  0  0  0  0  0  0  0  0  0
   -4.2000   -0.5600    0.0000 C   0  0  0  0  0  0  0  0  0  0  0  0
   -0.3200    1.6300    0.0000 C   0  0  0  0  0  0  0  0  0  0  0  0
   -2.8900    0.1600    0.0000 C   0  0  0  0  0  0  0  0  0  0  0  0
    1.0100    2.3900    0.0000 C   0  0  0  0  0  0  0  0  0  0  0  0
   -2.8900   -2.8400    0.0000 C   0  0  0  0  0  0  0  0  0  0  0  0
    8.0946    6.9403    0.0000 C   0  0  0  0  0  0  0  0  0  0  0  0
    4.1909    3.5108    0.0000 C   0  0  0  0  0  0  0  0  0  0  0  0
   -5.4950   -4.3424    0.0000 C   0  0  0  0  0  0  0  0  0  0  0  0
   -1.6200   -2.0900    0.0000 C   0  0  0  0  0  0  0  0  0  0  0  0
   -4.2000   -2.0900    0.0000 C   0  0  0  0  0  0  0  0  0  0  0  0
    1.0100   -0.5600    0.0000 C   0  0  0  0  0  0  0  0  0  0  0  0
    3.7100    2.0900    0.0000 C   0  0  0  0  0  0  0  0  0  0  0  0
    2.2800    0.1600    0.0000 C   0  0  0  0  0  0  0  0  0  0  0  0
   -0.3200    0.1600    0.0000 C   0  0  0  0  0  0  0  0  0  0  0  0
   -1.6200   -0.5600    0.0000 C   0  0  0  0  0  0  0  0  0  0  0  0
    2.2800    1.6300    0.0000 C   0  0  0  0  0  0  0  0  0  0  0  0
   -4.1946   -5.0900    0.0000 O   0  0  0  0  0  0  0  0  0  0  0  0
   -5.4977   -2.8424    0.0000 O   0  0  0  0  0  0  0  0  0  0  0  0
  8  7  1  0
  9  7  1  0
 11 10  1  0
 13 12  1  0
 16 14  1  0
 17 15  1  0
 19  1  1  0
 19  2  1  0
 19  8  1  0
 20  3  1  6
 20  9  1  0
 21  4  1  0
 22 10  1  0
 22 18  1  0
 23 14  1  0
 23 18  1  0
 24 11  1  6
 25 12  1  1
 25 20  1  0
 26 13  1  1
 26 24  1  0
 27 15  1  1
 27 24  1  0
 28  5  1  1
 28 16  1  0
 28 22  1  0
 28 27  1  0
 29  6  1  1
 29 17  1  0
 29 25  1  0
 29 26  1  0
 30 21  2  0
 31 21  1  0
 23 31  1  1
M  END
>  <NAME>  (4757) 
DIHYDROCHOLESTEROL ACETATE

>  <SYNONYMS>  (4757) 


>  <SPECTRUM TYPE>  (4757) 
MS1

>  <INSTRUMENT TYPE>  (4757) 
EI-B

>  <INSTRUMENT>  (4757) 
SHIMADZU LKB-9000B

>  <ION MODE>  (4757) 
P

>  <INCHIKEY>  (4757) 
PHLIUSDPFOUISN-AQHAWAMTSA-N

>  <FORMULA>  (4757) 
C29H50O2

>  <EXACT MASS>  (4757) 
430.38108084

>  <MW>  (4757) 
430

>  <ID>  (4757) 
JP002709

>  <CONTRIBUTOR>  (4757) 
University of Tokyo Team, {Faculty of Engineering, University of Tokyo

>  <COMMENT>  (4757) 
SMILES=CC(C4([H])C([H])(C)CCCC(C)C)(C([H])1CC4)CCC(C(C)32)(C([H])(CCC2CC(OC(C)=O)(CC3)[H])1)[H]
InChI=InChI=1S/C29H50O2/c1-19(2)8-7-9-20(3)25-12-13-26-24-11-10-22-18-23(31-21(4)30)14-16-28(22,5)27(24)15-17-29(25,26)6/h19-20,22-27H,7-18H2,1-6H3/t20-,22?,23+,24+,25-,26+,27+,28+,29-/m1/s1
computed SMILES=O=C(OC1CCC2(C)C(CCC3C4CCC(C(C)CCCC(C)C)C4(C)CCC32)C1)C
accession=JP002709
license=CC BY-NC-SA
exact mass=430.38108
date=2016.01.19 (Created 2008.10.21, modified 2011.05.06)
author=HAYASHI A, DEPT. OF CHEMISTRY, FAC. OF SCI. AND TECHNOLOGY, KINKI UNIV.
ionization energy=70 eV
ion type=[M]+*
computed spectral entropy=4.336345660261609
computed normalized entropy=0.8414710444275204
SPLASH=splash10-014i-3982000000-c902c00ef807c3a99307
submitter=submitter = University of Tokyo Team (Faculty of Engineering, University of Tokyo)
MoNA Rating=3.75

>  <NUM PEAKS>  (4757) 
173

>  <MASS SPECTRAL PEAKS>  (4757) 
44 1.4
55 4.1
56 1.3
58 4.5
66 1.2
67 9.8
68 2.3
69 0.48
70 1.4
71 4.3
77 4.1
79 1.33
80 3.3
81 18.3
82 3.4
83 0.48
91 12.8
92 5.1
93 20.1
94 0.72
95 20.1
96 3.2
97 5.3
103 0.22
104 3.9
105 15.4
106 12.8
107 2.83
108 16.8
109 16.5
110 2.7
111 0.74
115 2.6
117 4.4
118 3.1
119 1.47
120 9.1
121 18.4
122 7.4
123 1.44
124 3
125 1.8
127 2.4
128 0.27
129 1.8
130 1.5
131 6.9
132 0.32
133 14.8
134 9.1
135 15.9
136 0.56
137 3.7
138 1.3
139 1.8
141 0.22
142 1.6
143 2.7
144 1.4
145 1.3
146 6.1
147 35.3
148 11.3
149 1.2
150 1.7
151 3.1
152 1.5
153 0.19
155 1.4
157 1.2
158 1.5
159 0.95
160 8.7
161 19.5
162 11.6
163 0.66
164 1.5
165 1.5
167 1.8
169 0.17
171 1.8
173 8.9
174 4.9
175 0.93
176 10.9
177 4.5
178 1.9
179 0.11
181 1.3
183 1.3
185 1.4
187 0.61
188 6.6
189 5.1
190 2.1
191 0.17
194 1.5
195 3
197 3.7
199 0.15
201 23.1
202 7.8
203 12.5
204 0.28
205 2.7
206 2.2
212 1.6
213 0.24
214 1.6
215 99.99
216 46.7
217 2.42
218 3
219 1.4
220 1.8
221 0.19
229 5.1
230 24.2
231 9.3
232 0.23
234 1.5
241 2.9
243 2.1
244 1.9
245 2.8
246 1.3
247 4.5
248 0.28
249 1.4
255 2.6
256 3
257 1.75
258 4.2
260 2.7
261 5.3
262 0.9
263 3.5
274 3.2
275 22.5
276 1.84
277 3.6
283 1.6
285 2.8
287 0.24
288 2
290 3
291 1.2
299 0.15
301 4.4
315 4.3
316 8.6
317 2
328 0.2
330 1.3
342 1.2
343 1.8
353 0.15
355 32.9
356 10.6
357 1.9
368 0.25
369 1.8
370 30.7
371 10.4
373 0.13
394 1.4
396 1.5
401 1.5
415 0.39
416 1.3
430 9.9
431 2
432 0.38

>  <PREDICTED SPECTRUM>  (4757) 
6 1
16 2
20 4
39 13
41 520
42 77
43 999
44 186
45 158
46 38
47 72
48 6
49 74
51 34
52 2
53 169
54 59
55 566
56 130
57 507
58 24
59 3
60 133
61 230
62 24
63 5
65 72
66 1
67 382
68 234
69 410
70 112
71 294
72 21
73 145
74 40
75 55
77 146
78 53
79 433
80 111
81 533
82 287
83 357
84 133
85 134
86 13
89 7
91 342
92 77
93 402
94 203
95 466
96 179
97 204
99 86
101 9
103 27
104 8
105 357
106 196
107 449
108 411
109 330
110 73
111 217
113 98
115 71
117 127
118 68
119 284
120 125
121 304
122 184
123 289
124 49
125 30
129 34
130 7
131 109
132 27
133 266
134 84
135 228
136 167
137 126
138 41
143 55
145 209
146 31
147 370
148 187
149 251
150 58
151 23
152 92
157 36
159 141
160 199
161 184
162 119
163 138
165 7
171 29
173 131
174 100
175 204
176 143
177 89
178 5
179 24
186 25
187 112
188 139
189 38
190 9
199 82
201 301
202 107
203 86
207 67
208 55
215 742
216 477
217 308
218 198
219 16
230 258
231 137
243 67
247 103
248 81
257 199
258 100
260 34
261 109
262 204
263 51
274 34
275 287
276 377
277 97
285 65
288 60
290 113
316 105
320 7
328 24
329 30
355 294
356 147
357 53
369 34
370 535
371 254
372 78
415 118
416 32
430 420
431 251
432 76

$$$$

     RDKit          2D

 31 34  0  0  1  0  0  0  0  0999 V2000
    9.5655    7.2342    0.0000 C   0  0  0  0  0  0  0  0  0  0  0  0
    7.1046    8.0672    0.0000 C   0  0  0  0  0  0  0  0  0  0  0  0
    3.2009    4.6377    0.0000 C   0  0  0  0  0  0  0  0  0  0  0  0
   -6.7926   -5.0947    0.0000 C   0  0  0  0  0  0  0  0  0  0  0  0
   -1.6125    0.9400    0.0000 C   0  0  0  0  0  0  0  0  0  0  0  0
    2.4507    3.1203    0.0000 C   0  0  0  0  0  0  0  0  0  0  0  0
    6.1427    5.2256    0.0000 C   0  0  0  0  0  0  0  0  0  0  0  0
    7.6137    5.5195    0.0000 C   0  0  0  0  0  0  0  0  0  0  0  0
    5.6618    3.8047    0.0000 C   0  0  0  0  0  0  0  0  0  0  0  0
   -0.3200   -2.8400    0.0000 C   0  0  0  0  0  0  0  0  0  0  0  0
    1.0100   -2.0900    0.0000 C   0  0  0  0  0  0  0  0  0  0  0  0
    4.5500    0.8800    0.0000 C   0  0  0  0  0  0  0  0  0  0  0  0
    3.7100   -0.3100    0.0000 C   0  0  0  0  0  0  0  0  0  0  0  0
   -4.2000   -0.5600    0.0000 C   0  0  0  0  0  0  0  0  0  0  0  0
   -0.3200    1.6300    0.0000 C   0  0  0  0  0  0  0  0  0  0  0  0
   -2.8900    0.1600    0.0000 C   0  0  0  0  0  0  0  0  0  0  0  0
    1.0100    2.3900    0.0000 C   0  0  0  0  0  0  0  0  0  0  0  0
   -2.8900   -2.8400    0.0000 C   0  0  0  0  0  0  0  0  0  0  0  0
    8.0946    6.9403    0.0000 C   0  0  0  0  0  0  0  0  0  0  0  0
    4.1909    3.5108    0.0000 C   0  0  0  0  0  0  0  0  0  0  0  0
   -5.4950   -4.3424    0.0000 C   0  0  0  0  0  0  0  0  0  0  0  0
   -1.6200   -2.0900    0.0000 C   0  0  0  0  0  0  0  0  0  0  0  0
   -4.2000   -2.0900    0.0000 C   0  0  0  0  0  0  0  0  0  0  0  0
    1.0100   -0.5600    0.0000 C   0  0  0  0  0  0  0  0  0  0  0  0
    3.7100    2.0900    0.0000 C   0  0  0  0  0  0  0  0  0  0  0  0
    2.2800    0.1600    0.0000 C   0  0  0  0  0  0  0  0  0  0  0  0
   -0.3200    0.1600    0.0000 C   0  0  0  0  0  0  0  0  0  0  0  0
   -1.6200   -0.5600    0.0000 C   0  0  0  0  0  0  0  0  0  0  0  0
    2.2800    1.6300    0.0000 C   0  0  0  0  0  0  0  0  0  0  0  0
   -4.1946   -5.0900    0.0000 O   0  0  0  0  0  0  0  0  0  0  0  0
   -5.4977   -2.8424    0.0000 O   0  0  0  0  0  0  0  0  0  0  0  0
  8  7  1  0
  9  7  1  0
 11 10  1  0
 13 12  1  0
 16 14  1  0
 17 15  1  0
 19  1  1  0
 19  2  1  0
 19  8  1  0
 20  3  1  6
 20  9  1  0
 21  4  1  0
 22 10  2  0
 22 18  1  0
 23 14  1  0
 23 18  1  0
 24 11  1  6
 25 12  1  1
 25 20  1  0
 26 13  1  1
 26 24  1  0
 27 15  1  1
 27 24  1  0
 28  5  1  1
 28 16  1  0
 28 22  1  0
 28 27  1  0
 29  6  1  1
 29 17  1  0
 29 25  1  0
 29 26  1  0
 30 21  2  0
 31 21  1  0
 23 31  1  1
M  END
>  <NAME>  (4758) 
CHOLESTEROL ACETATE

>  <SYNONYMS>  (4758) 


>  <SPECTRUM TYPE>  (4758) 
MS1

>  <INSTRUMENT TYPE>  (4758) 
EI-B

>  <INSTRUMENT>  (4758) 
SHIMADZU LKB-9000B

>  <ION MODE>  (4758) 
P

>  <INCHIKEY>  (4758) 
XUGISPSHIFXEHZ-VEVYEIKRSA-N

>  <FORMULA>  (4758) 
C29H48O2

>  <EXACT MASS>  (4758) 
428.365430776

>  <MW>  (4758) 
428

>  <ID>  (4758) 
JP002708

>  <CONTRIBUTOR>  (4758) 
University of Tokyo Team, {Faculty of Engineering, University of Tokyo

>  <COMMENT>  (4758) 
SMILES=CC(C4([H])C([H])(C)CCCC(C)C)(C([H])1CC4)CCC(C(C)32)(C([H])(CC=C2CC(OC(C)=O)(CC3)[H])1)[H]
cas=604-35-3
InChI=InChI=1S/C29H48O2/c1-19(2)8-7-9-20(3)25-12-13-26-24-11-10-22-18-23(31-21(4)30)14-16-28(22,5)27(24)15-17-29(25,26)6/h10,19-20,23-27H,7-9,11-18H2,1-6H3/t20-,23+,24+,25-,26+,27+,28+,29-/m1/s1
computed SMILES=O=C(OC1CC2=CCC3C(CCC4(C)C(CCC34)C(C)CCCC(C)C)C2(C)CC1)C
accession=JP002708
date=2016.01.19 (Created 2008.10.21, modified 2011.05.06)
author=HAYASHI A, DEPT. OF CHEMISTRY, FAC. OF SCI. AND TECHNOLOGY, KINKI UNIV.
license=CC BY-NC-SA
exact mass=428.36543
ionization energy=70 eV
ion type=[M]+*
computed spectral entropy=4.423821981660934
computed normalized entropy=0.8456758032909922
SPLASH=splash10-014i-2933000000-06a568c5715ce75a703d
submitter=submitter = University of Tokyo Team (Faculty of Engineering, University of Tokyo)
MoNA Rating=3.75

>  <NUM PEAKS>  (4758) 
187

>  <MASS SPECTRAL PEAKS>  (4758) 
44 1.5
56 4.2
57 4.1
60 1
65 1
67 7.1
69 6.1
71 0.49
77 4.4
78 1.8
79 10.3
80 0.18
81 21
82 2.6
83 5.2
85 0.1
91 19.9
92 5.8
93 18.2
94 0.47
95 19.2
96 2.1
97 4.8
103 0.22
104 2.7
105 28.5
106 9.9
107 2.58
108 8.7
109 14
110 2.3
111 0.41
113 1
115 4.7
116 2.8
117 1.28
118 7.7
119 18.6
120 18.6
121 2.23
122 5.7
123 8.4
124 1.3
125 0.21
127 2.5
128 6.8
129 10.8
130 0.56
131 20.8
132 6.1
133 23.7
134 0.71
135 19.9
136 3.6
137 4.1
138 0.1
139 1.3
141 5.1
142 5.6
143 2.07
144 9.7
145 51.1
146 17.7
147 5.36
148 11.9
149 13.6
150 1.4
151 0.39
152 1.8
153 2.1
154 1.2
155 0.54
156 3.2
157 12.5
158 11.6
159 3.06
160 19.5
161 19.9
162 5.6
163 1.17
164 1.9
165 3.6
166 1.5
167 0.14
168 1.7
169 3.3
170 1.7
171 0.86
172 4.2
173 11.6
174 4.8
175 0.69
176 1.8
177 4.3
178 1.6
179 0.27
181 1.1
182 1
183 2.7
184 0.14
185 9.2
186 4
187 5.1
188 0.15
189 2.4
191 5
192 1.6
193 0.48
194 1.5
195 1.4
197 4.7
198 0.18
199 11.4
200 6.4
201 9
202 0.23
203 1.4
204 1.1
205 7.4
206 0.66
207 2.4
209 1
211 2.6
212 2.1
213 32.4
214 10
215 5.5
216 0.19
217 1.5
219 3.2
220 1.4
225 0.11
226 1.2
227 5
228 8.2
229 0.57
230 1.3
231 1.6
232 1.1
233 0.17
239 1.5
240 1.1
241 3.4
242 0.12
243 1.2
245 6.3
246 5.9
247 4.71
248 11.5
249 1.8
251 1.5
253 0.16
254 1.1
255 35.9
256 8.8
257 0.13
258 1.4
259 4.5
260 25.5
261 0.91
262 1.7
273 1.5
274 3.3
275 0.28
283 4
284 1.7
287 1
297 0.11
314 4
315 1.7
325 1
326 0.46
327 1.4
338 1.1
339 2.3
340 0.18
351 1.5
352 1.2
353 43
354 1.25
355 2.2
364 1.3
366 4.3
367 0.29
368 99.99
369 31.8
370 4.9

>  <PREDICTED SPECTRUM>  (4758) 
3 9
12 5
17 4
18 19
26 8
27 73
29 63
38 2
39 69
40 51
41 525
42 159
43 999
44 152
45 134
46 9
49 64
50 17
51 54
53 163
54 69
55 540
56 145
57 478
58 94
59 90
60 146
61 89
63 30
65 118
67 345
68 170
69 377
70 125
71 335
72 40
73 132
74 60
75 26
77 203
78 59
79 348
80 69
81 451
82 179
83 305
84 111
85 162
86 39
87 4
89 6
91 327
92 112
93 350
94 123
95 453
96 107
97 268
98 85
99 155
101 67
103 77
104 60
105 386
106 175
107 401
108 273
109 304
110 98
111 205
112 38
113 102
114 13
115 115
116 48
117 225
118 86
119 269
120 199
121 378
122 180
123 257
124 79
125 128
126 35
127 110
128 40
129 85
130 52
131 217
132 68
133 303
134 140
135 344
136 139
137 103
138 35
139 34
141 101
142 45
143 199
144 109
145 322
146 109
147 374
148 166
149 221
150 51
151 108
152 53
153 89
154 32
155 50
156 6
157 84
158 174
159 283
160 265
161 285
162 133
163 189
164 16
168 42
169 71
170 12
171 93
172 76
173 137
174 89
175 145
176 58
177 121
178 47
179 79
181 47
183 26
184 14
185 72
186 73
187 162
188 40
189 58
190 18
191 64
193 81
194 11
195 35
197 55
198 1
199 54
200 35
201 146
202 26
203 97
204 46
205 99
206 126
207 123
208 16
212 4
213 242
214 110
215 158
216 63
217 83
218 28
219 53
220 10
227 56
228 102
229 98
230 42
231 51
232 0
233 50
239 1
245 36
246 77
247 192
248 104
249 65
255 165
256 11
259 49
260 196
261 126
273 46
274 68
275 81
276 36
281 1
283 62
286 5
288 8
289 39
290 15
297 12
301 55
302 53
310 1
311 2
314 79
315 21
316 72
327 9
339 13
341 1
351 17
353 246
354 97
355 10
368 450
369 379
370 176
371 50
428 90
429 14

$$$$

     RDKit          2D

 31 34  0  0  1  0  0  0  0  0999 V2000
    9.5655    7.2342    0.0000 C   0  0  0  0  0  0  0  0  0  0  0  0
   10.0746    4.6865    0.0000 C   0  0  0  0  0  0  0  0  0  0  0  0
    8.1228    2.9718    0.0000 C   0  0  0  0  0  0  0  0  0  0  0  0
    3.2009    4.6377    0.0000 C   0  0  0  0  0  0  0  0  0  0  0  0
   -1.6125    0.9400    0.0000 C   0  0  0  0  0  0  0  0  0  0  0  0
    2.4507    3.1203    0.0000 C   0  0  0  0  0  0  0  0  0  0  0  0
   -6.7981   -2.0947    0.0000 C   0  0  0  0  0  0  0  0  0  0  0  0
    8.0946    6.9403    0.0000 C   0  0  0  0  0  0  0  0  0  0  0  0
    5.6618    3.8047    0.0000 C   0  0  0  0  0  0  0  0  0  0  0  0
    6.1427    5.2256    0.0000 C   0  0  0  0  0  0  0  0  0  0  0  0
   -0.3200   -2.8400    0.0000 C   0  0  0  0  0  0  0  0  0  0  0  0
    1.0100   -2.0900    0.0000 C   0  0  0  0  0  0  0  0  0  0  0  0
    4.5500    0.8800    0.0000 C   0  0  0  0  0  0  0  0  0  0  0  0
    3.7100   -0.3100    0.0000 C   0  0  0  0  0  0  0  0  0  0  0  0
   -4.2000   -0.5600    0.0000 C   0  0  0  0  0  0  0  0  0  0  0  0
   -0.3200    1.6300    0.0000 C   0  0  0  0  0  0  0  0  0  0  0  0
   -2.8900    0.1600    0.0000 C   0  0  0  0  0  0  0  0  0  0  0  0
    1.0100    2.3900    0.0000 C   0  0  0  0  0  0  0  0  0  0  0  0
   -2.8900   -2.8400    0.0000 C   0  0  0  0  0  0  0  0  0  0  0  0
    8.6037    4.3926    0.0000 C   0  0  0  0  0  0  0  0  0  0  0  0
    4.1909    3.5108    0.0000 C   0  0  0  0  0  0  0  0  0  0  0  0
    7.6137    5.5195    0.0000 C   0  0  0  0  0  0  0  0  0  0  0  0
   -1.6200   -2.0900    0.0000 C   0  0  0  0  0  0  0  0  0  0  0  0
   -4.2000   -2.0900    0.0000 C   0  0  0  0  0  0  0  0  0  0  0  0
    1.0100   -0.5600    0.0000 C   0  0  0  0  0  0  0  0  0  0  0  0
    3.7100    2.0900    0.0000 C   0  0  0  0  0  0  0  0  0  0  0  0
    2.2800    0.1600    0.0000 C   0  0  0  0  0  0  0  0  0  0  0  0
   -0.3200    0.1600    0.0000 C   0  0  0  0  0  0  0  0  0  0  0  0
   -1.6200   -0.5600    0.0000 C   0  0  0  0  0  0  0  0  0  0  0  0
    2.2800    1.6300    0.0000 C   0  0  0  0  0  0  0  0  0  0  0  0
   -5.4977   -2.8424    0.0000 O   0  0  0  0  0  0  0  0  0  0  0  0
  8  1  1  0
 10  9  1  0
 12 11  1  0
 14 13  1  0
 17 15  1  0
 18 16  1  0
 20  2  1  0
 20  3  1  0
 21  4  1  6
 21  9  1  0
 22  8  1  1
 22 10  1  0
 22 20  1  0
 23 11  2  0
 23 19  1  0
 24 15  1  0
 24 19  1  0
 25 12  1  6
 26 13  1  1
 26 21  1  0
 27 14  1  1
 27 25  1  0
 28 16  1  1
 28 25  1  0
 29  5  1  1
 29 17  1  0
 29 23  1  0
 29 28  1  0
 30  6  1  1
 30 18  1  0
 30 26  1  0
 30 27  1  0
 31  7  1  0
 24 31  1  1
M  END
>  <NAME>  (4759) 
BETA-SITOSTEROL-METHYL ETHER

>  <SYNONYMS>  (4759) 


>  <SPECTRUM TYPE>  (4759) 
MS1

>  <INSTRUMENT TYPE>  (4759) 
EI-B

>  <INSTRUMENT>  (4759) 
SHIMADZU LKB-9000B

>  <ION MODE>  (4759) 
P

>  <INCHIKEY>  (4759) 
LOUBEXGURAKLSL-VHZNKUSHSA-N

>  <FORMULA>  (4759) 
C30H52O

>  <EXACT MASS>  (4759) 
428.40181628399995

>  <MW>  (4759) 
428

>  <ID>  (4759) 
JP002706

>  <CONTRIBUTOR>  (4759) 
University of Tokyo Team, {Faculty of Engineering, University of Tokyo

>  <COMMENT>  (4759) 
SMILES=CC(C4(C(CCC([H])(C(C)C)CC)([H])C)[H])(C1)C(CC4)(C(C3)(C(C(C2)(C(=C3[H])CC(C2)(OC)[H])C)(C1)[H])[H])[H]
InChI=InChI=1S/C30H52O/c1-8-22(20(2)3)10-9-21(4)26-13-14-27-25-12-11-23-19-24(31-7)15-17-29(23,5)28(25)16-18-30(26,27)6/h11,20-22,24-28H,8-10,12-19H2,1-7H3/t21-,22-,24+,25+,26-,27+,28+,29+,30-/m1/s1
computed SMILES=O(C)C1CC2=CCC3C(CCC4(C)C(CCC34)C(C)CCC(CC)C(C)C)C2(C)CC1
accession=JP002706
date=2016.01.19 (Created 2008.10.21, modified 2011.05.06)
author=HAYASHI A, DEPT. OF CHEMISTRY, FAC. OF SCI. AND TECHNOLOGY, KINKI UNIV.
license=CC BY-NC-SA
exact mass=428.40182
ionization energy=70 eV
ion type=[M]+*
computed spectral entropy=4.870885357063692
computed normalized entropy=0.8747456903526154
SPLASH=splash10-05ai-5932000000-5f2a2346b2903ef24f15
submitter=submitter = University of Tokyo Team (Faculty of Engineering, University of Tokyo)
MoNA Rating=3.75

>  <NUM PEAKS>  (4759) 
262

>  <MASS SPECTRAL PEAKS>  (4759) 
39 2.4
41 26.5
42 4.3
43 52.7
44 2.3
45 4.4
52 2.2
53 0.51
55 44
56 3.3
57 36.9
58 0.36
59 1.7
63 1.7
65 3.2
66 0.24
67 28.2
68 4.1
69 31.8
70 0.42
71 49.1
72 3.7
73 6.2
75 0.18
77 10.8
78 3.9
79 32.2
80 0.62
81 53.4
82 7.7
83 16.2
84 0.48
85 27.8
86 3.1
91 39.4
92 1.06
93 44.6
94 11
95 54.5
96 0.66
97 24.3
98 4.4
99 6.8
103 0.4
104 4.5
105 51.9
106 18.4
107 6.89
108 20.7
109 35
110 6.4
111 2.08
112 2.8
113 2.8
115 6.1
116 0.41
117 17.8
118 10
119 46.4
120 3.41
121 47.6
122 12.1
123 20.5
124 0.53
125 7.7
127 2.7
128 5.5
129 1.2
130 6.6
131 31.2
132 13.4
133 4.32
134 14.1
135 33.1
136 10.9
137 1.18
138 10.4
139 10.2
140 1.6
141 0.63
142 4.8
143 21.7
144 10.4
145 6.12
146 20.5
147 42.1
148 14.5
149 2.14
150 4.9
151 7.4
152 3.4
153 0.27
154 2.1
155 5.4
156 3.9
157 1.58
158 16.4
159 48.5
160 33.5
161 4.36
162 12
163 26.7
164 5.1
165 0.56
166 2.2
167 2
169 3.2
170 0.18
171 13.7
172 7.5
173 29.4
174 1.05
175 13.3
176 4
177 14.3
178 0.37
179 10.1
180 3.6
181 2.3
183 0.38
184 1.8
185 14.3
186 7.5
187 15.1
188 5
189 11.1
190 5.9
191 1.12
192 7.9
193 5.1
194 1.9
195 0.21
197 5.4
198 2.6
199 20.7
200 0.79
201 14.6
202 4.8
203 6.5
204 0.22
205 8
206 2.4
209 1.6
210 0.17
211 3.1
212 2.8
213 48.7
214 1.45
215 34.4
216 11.8
217 12.4
218 0.27
219 4.3
220 1.8
221 4.4
225 0.19
226 1.4
227 10.9
228 14.4
229 1.33
230 5.6
231 4.7
232 1.7
233 0.54
234 4.5
235 3.9
239 2.8
240 0.17
241 7.6
242 3
243 2
244 0.18
245 9.5
246 3.6
247 15.4
248 0.93
249 2.6
253 4.5
254 2.9
255 4.76
256 12.2
257 5.2
258 2
259 0.32
260 3.4
261 5.5
262 3.4
269 0.27
271 2.6
273 4.9
274 5.5
275 2.69
276 6.6
277 1.6
281 1.8
283 0.63
284 2.5
285 3.8
286 2.6
287 1.19
288 7.6
289 3.3
290 4.1
297 0.22
299 1.7
301 2.8
302 10
303 3.29
304 9.5
305 1.3
313 1.9
314 0.17
316 1.2
317 1.4
327 2.6
328 0.39
329 27.2
330 7.4
331 1.8
339 0.36
340 1
341 4.3
342 3.9
343 0.25
351 1.4
352 1.5
353 4.3
354 2.42
355 13
356 6.8
357 29.7
358 0.96
359 1.9
366 2.4
367 5.9
368 0.62
369 2.4
371 1.7
373 4.6
374 0.15
379 1.8
381 68.5
382 22.3
383 8.9
384 2.4
385 1.7
386 2.7
394 0.33
395 3.3
398 7.7
399 3.4
400 3
413 2.18
414 7.5
415 5.1
417 1.4
426 0.3
427 2.2
428 27
429 8.8
430 0.66
431 2.5

>  <PREDICTED SPECTRUM>  (4759) 
17 3
26 3
27 24
28 18
29 194
33 19
36 1
38 18
39 129
40 105
41 724
42 219
43 842
44 292
45 291
49 9
50 65
51 90
52 72
53 323
54 121
55 771
56 280
57 767
58 188
59 162
63 37
64 22
65 222
66 139
67 606
68 276
69 675
70 256
71 693
72 161
73 215
74 44
75 8
77 438
78 187
79 657
80 247
81 674
82 274
83 498
84 246
85 443
86 79
87 44
89 0
91 699
92 330
93 595
94 385
95 633
96 229
97 452
98 64
99 203
100 31
101 33
103 114
104 187
105 754
106 500
107 753
108 324
109 481
110 200
111 309
112 5
113 112
114 16
115 243
116 63
117 452
118 281
119 635
120 501
121 647
122 324
123 390
124 163
125 293
126 69
127 103
128 203
129 242
130 218
131 487
132 312
133 591
134 285
135 513
136 249
137 310
138 191
139 156
140 55
141 150
142 119
143 361
144 230
145 659
146 329
147 591
148 310
149 337
150 100
151 107
152 45
153 33
154 3
155 126
156 87
157 356
158 289
159 493
160 365
161 451
162 174
163 280
164 77
165 114
166 44
167 8
169 79
171 304
172 273
173 371
174 266
175 301
176 109
177 217
178 66
179 100
180 46
181 109
182 15
183 83
185 245
186 114
187 222
188 91
189 197
190 78
191 161
192 119
193 86
194 5
195 48
196 52
197 93
199 352
200 156
201 207
202 64
203 93
204 36
205 105
206 3
210 3
211 103
212 61
213 484
214 311
215 283
216 81
217 158
219 29
225 0
226 31
227 236
228 191
229 210
230 44
231 43
233 47
234 1
239 31
240 44
241 248
242 52
243 4
245 96
246 90
247 147
253 15
255 509
256 275
259 81
260 85
269 25
270 48
271 17
272 23
273 151
274 119
275 235
276 40
281 4
285 42
286 13
287 114
288 189
289 21
290 110
297 38
298 6
299 61
300 141
301 111
302 239
303 318
304 128
312 16
313 12
315 45
316 94
325 11
327 26
328 25
329 361
330 128
333 2
340 22
341 38
342 8
343 33
344 2
353 46
354 253
355 181
356 42
357 277
358 113
365 15
368 168
369 100
370 0
373 105
381 562
382 250
383 174
385 93
388 31
396 999
397 507
398 144
399 44
400 3
413 302
414 197
415 17
428 564
429 302
430 22

$$$$

     RDKit          2D

 31 34  0  0  1  0  0  0  0  0999 V2000
   10.0746    4.6865    0.0000 C   0  0  0  0  0  0  0  0  0  0  0  0
    5.6618    3.8047    0.0000 C   0  0  0  0  0  0  0  0  0  0  0  0
    5.1527    6.3525    0.0000 C   0  0  0  0  0  0  0  0  0  0  0  0
    9.0564    9.7820    0.0000 C   0  0  0  0  0  0  0  0  0  0  0  0
   13.3432   14.0791    0.0000 C   0  0  0  0  0  0  0  0  0  0  0  0
   10.6578   10.3305    0.0000 C   0  0  0  0  0  0  0  0  0  0  0  0
   19.0815   17.2489    0.0000 C   0  0  0  0  0  0  0  0  0  0  0  0
    8.6037    4.3926    0.0000 C   0  0  0  0  0  0  0  0  0  0  0  0
    9.5655    7.2342    0.0000 C   0  0  0  0  0  0  0  0  0  0  0  0
    8.0946    6.9403    0.0000 C   0  0  0  0  0  0  0  0  0  0  0  0
   16.9253   12.3105    0.0000 C   0  0  0  0  0  0  0  0  0  0  0  0
   16.0102   11.0882    0.0000 C   0  0  0  0  0  0  0  0  0  0  0  0
   12.6091    7.9602    0.0000 C   0  0  0  0  0  0  0  0  0  0  0  0
   13.8973    8.6399    0.0000 C   0  0  0  0  0  0  0  0  0  0  0  0
   15.1639   16.4519    0.0000 C   0  0  0  0  0  0  0  0  0  0  0  0
   12.4925   12.8862    0.0000 C   0  0  0  0  0  0  0  0  0  0  0  0
   14.2812   15.2455    0.0000 C   0  0  0  0  0  0  0  0  0  0  0  0
   11.5675   11.6651    0.0000 C   0  0  0  0  0  0  0  0  0  0  0  0
   17.2562   14.8591    0.0000 C   0  0  0  0  0  0  0  0  0  0  0  0
    6.1427    5.2256    0.0000 C   0  0  0  0  0  0  0  0  0  0  0  0
   10.0464    8.6551    0.0000 C   0  0  0  0  0  0  0  0  0  0  0  0
    7.6137    5.5195    0.0000 C   0  0  0  0  0  0  0  0  0  0  0  0
   16.3489   13.6963    0.0000 C   0  0  0  0  0  0  0  0  0  0  0  0
   16.6812   16.2548    0.0000 C   0  0  0  0  0  0  0  0  0  0  0  0
   14.4930   11.2852    0.0000 C   0  0  0  0  0  0  0  0  0  0  0  0
   11.5173    8.9490    0.0000 C   0  0  0  0  0  0  0  0  0  0  0  0
   13.6154   10.1185    0.0000 C   0  0  0  0  0  0  0  0  0  0  0  0
   13.9502   12.6969    0.0000 C   0  0  0  0  0  0  0  0  0  0  0  0
   14.8317   13.8933    0.0000 C   0  0  0  0  0  0  0  0  0  0  0  0
   12.1576   10.3078    0.0000 C   0  0  0  0  0  0  0  0  0  0  0  0
   17.5944   17.4448    0.0000 O   0  0  0  0  0  0  0  0  0  0  0  0
  8  1  1  0
 10  9  1  0
 12 11  1  0
 14 13  1  0
 17 15  1  0
 18 16  1  0
 20  2  1  0
 20  3  1  0
 21  4  1  1
 21  9  1  0
  8 22  2  0
 22 10  1  0
 22 20  1  0
 23 11  2  0
 23 19  1  0
 24 15  1  0
 24 19  1  0
 25 12  1  1
 26 13  1  6
 26 21  1  0
 27 14  1  6
 27 25  1  0
 28 16  1  6
 28 25  1  0
 29  5  1  6
 29 17  1  0
 29 23  1  0
 29 28  1  0
 30  6  1  6
 30 18  1  0
 30 26  1  0
 30 27  1  0
 31  7  1  0
 24 31  1  6
M  END
>  <NAME>  (4760) 
FUCOSTEROL METHYL ETHER

>  <SYNONYMS>  (4760) 


>  <SPECTRUM TYPE>  (4760) 
MS1

>  <INSTRUMENT TYPE>  (4760) 
EI-B

>  <INSTRUMENT>  (4760) 
SHIMADZU LKB-9000B

>  <ION MODE>  (4760) 
P

>  <INCHIKEY>  (4760) 
GSKFDRGPRSWWDC-FTKWHHHFSA-N

>  <FORMULA>  (4760) 
C30H50O

>  <EXACT MASS>  (4760) 
426.38616621999995

>  <MW>  (4760) 
426

>  <ID>  (4760) 
JP002705

>  <CONTRIBUTOR>  (4760) 
University of Tokyo Team, {Faculty of Engineering, University of Tokyo

>  <COMMENT>  (4760) 
SMILES=C(C4)=C(C1)C(C(C34[H])([H])CCC(C32[H])(C(CC2)(C(CCC(=CC)C(C)C)([H])C)[H])C)(CCC1OC)C
InChI=InChI=1S/C30H50O/c1-8-22(20(2)3)10-9-21(4)26-13-14-27-25-12-11-23-19-24(31-7)15-17-29(23,5)28(25)16-18-30(26,27)6/h8,11,20-21,24-28H,9-10,12-19H2,1-7H3/b22-8+/t21-,24+,25+,26-,27+,28+,29+,30-/m1/s1
computed SMILES=O(C)C1CC2=CCC3C(CCC4(C)C(CCC34)C(C)CCC(=CC)C(C)C)C2(C)CC1
accession=JP002705
date=2016.01.19 (Created 2008.10.21, modified 2011.05.06)
author=HAYASHI A, DEPT. OF CHEMISTRY, FAC. OF SCI. AND TECHNOLOGY, KINKI UNIV.
license=CC BY-NC-SA
exact mass=426.38617
ionization energy=70 eV
ion type=[M]+*
computed spectral entropy=4.631108189453216
computed normalized entropy=0.864563352848598
SPLASH=splash10-0a6s-4963000000-73cb250cce52f08ca758
submitter=submitter = University of Tokyo Team (Faculty of Engineering, University of Tokyo)
MoNA Rating=3.75

>  <NUM PEAKS>  (4760) 
212

>  <MASS SPECTRAL PEAKS>  (4760) 
39 1.5
41 16.3
43 9.5
45 0.29
53 4.1
54 1.3
55 51.2
56 0.36
57 5.9
58 1.5
65 2.3
66 0.15
67 19.6
68 4.6
69 33.4
70 0.34
71 19.2
72 1.8
73 3.3
77 0.76
78 2
79 22.3
80 3.1
81 3.2
82 5.4
83 17.5
84 2.4
85 0.34
86 1
91 24.9
92 5.6
93 2.54
94 5.6
95 29.1
96 3.9
97 2.5
98 3.9
99 1.5
103 1.8
104 0.23
105 30.3
106 8
107 32.3
108 0.83
109 20.2
110 4.2
111 9.1
112 0.11
115 3.6
116 2.3
117 11.8
118 0.55
119 27
120 17.8
121 22.2
122 0.56
123 12.5
124 2.6
126 2.8
127 0.12
128 3.3
129 7.5
130 4.6
131 1.89
132 6.5
133 23
134 7.7
135 1.55
136 3.7
137 8
138 4.6
139 0.39
141 3.3
142 2.9
143 14
144 0.66
145 30.9
146 9.3
147 19.8
148 0.5
149 8.2
150 1.9
151 3.4
152 0.16
153 1
155 3.7
156 3.7
157 1.15
158 12.8
159 26.6
160 12.3
161 2.01
162 4.5
163 7.7
164 2
165 0.28
169 4
170 1.8
171 10.8
172 0.56
173 14.4
174 6.1
175 9.2
176 0.37
177 4.7
178 1.8
179 1.1
183 0.38
184 1.7
185 10.3
186 4.8
187 0.86
188 3.9
189 8.9
190 3.8
191 0.31
192 1.3
193 1.2
197 5.9
198 0.33
199 11.6
200 4.9
201 7.5
202 0.47
203 9
204 2.7
205 1.5
209 0.1
211 17
212 5.6
213 27.5
214 1.16
215 8
216 2.3
217 3.3
218 0.1
225 4.6
226 2.7
227 11
228 1.27
229 12
230 2.9
231 3.3
232 0.13
233 1.5
239 5
240 3.7
241 0.51
242 3.1
243 15.2
244 5.1
245 0.82
246 4.8
247 1.4
253 11.6
254 0.72
255 16.5
256 5.6
257 6.4
258 0.23
259 3.2
260 4
261 1
266 0.11
267 5
268 3
269 2
270 0.21
271 2.5
272 2.8
273 4.8
274 0.14
281 41.1
282 10.7
283 5
284 0.32
285 14.2
286 6.6
287 2.6
295 0.17
296 48
297 13.3
298 2.2
299 0.23
300 2.2
301 4.5
302 1
313 2.35
314 6.8
315 1
327 4.1
328 99.99
329 26.1
330 3.1
339 1
351 0.1
352 3.9
353 2.9
354 1
355 0.35
365 1.1
366 1.1
379 12.6
380 0.42
392 1.2
394 9.9
395 3.8
411 0.56
412 1.7
424 1.3
426 4.1
427 1.2

>  <PREDICTED SPECTRUM>  (4760) 
33 3
39 22
40 51
41 615
42 226
43 631
44 199
45 351
50 15
51 70
52 13
53 319
54 189
55 999
56 259
57 413
58 206
59 376
64 51
65 133
66 156
67 648
68 402
69 807
70 213
71 537
72 147
73 368
74 25
77 342
78 249
79 594
80 268
81 802
82 404
83 579
84 194
85 224
86 149
90 49
91 686
92 322
93 612
94 382
95 503
96 337
97 462
98 221
99 176
101 157
103 118
104 129
105 672
106 472
107 682
108 287
109 405
110 177
111 312
112 112
113 75
114 18
115 177
116 75
117 309
118 385
119 577
120 452
121 552
122 214
123 206
124 107
125 206
126 88
127 99
128 194
129 297
130 215
131 442
132 301
133 612
134 321
135 410
136 137
137 225
138 46
139 78
140 11
141 114
142 92
143 323
144 235
145 413
146 281
147 448
148 287
149 245
150 114
151 182
152 121
155 31
156 98
157 309
158 228
159 397
160 165
161 185
162 177
163 252
164 122
165 37
169 123
170 35
171 245
172 133
173 332
174 221
175 210
176 245
177 237
178 85
179 46
183 32
184 47
185 183
186 140
187 253
188 217
189 232
190 11
191 69
192 32
193 54
194 20
195 70
197 150
198 62
199 252
200 160
201 262
202 98
203 264
204 146
205 137
209 6
210 14
211 92
212 79
213 606
214 476
215 398
216 217
217 193
218 90
219 14
225 98
226 51
227 262
228 381
229 439
230 151
231 218
232 49
233 10
237 15
239 190
240 94
241 190
242 205
243 71
245 11
246 133
253 391
254 219
255 594
256 309
257 634
258 250
259 136
260 67
267 14
269 128
270 219
271 356
272 335
273 144
274 75
275 42
281 516
282 355
283 282
284 247
285 363
286 333
287 129
288 53
295 164
296 653
297 464
298 198
299 445
300 406
301 157
302 12
312 189
313 412
314 923
315 700
316 71
327 94
328 502
329 470
330 276
337 45
341 45
352 72
353 57
355 102
358 123
361 7
371 53
372 36
379 155
380 70
388 55
393 61
394 302
395 130
398 49
411 152
412 128
426 369
427 151

$$$$

     RDKit          2D

 29 32  0  0  1  0  0  0  0  0999 V2000
    9.5655    7.2342    0.0000 C   0  0  0  0  0  0  0  0  0  0  0  0
    7.1046    8.0672    0.0000 C   0  0  0  0  0  0  0  0  0  0  0  0
    3.2009    4.6377    0.0000 C   0  0  0  0  0  0  0  0  0  0  0  0
   -1.6125    0.9400    0.0000 C   0  0  0  0  0  0  0  0  0  0  0  0
    2.4507    3.1203    0.0000 C   0  0  0  0  0  0  0  0  0  0  0  0
   -5.4950   -4.3424    0.0000 C   0  0  0  0  0  0  0  0  0  0  0  0
    6.1427    5.2256    0.0000 C   0  0  0  0  0  0  0  0  0  0  0  0
    7.6137    5.5195    0.0000 C   0  0  0  0  0  0  0  0  0  0  0  0
    5.6618    3.8047    0.0000 C   0  0  0  0  0  0  0  0  0  0  0  0
   -0.3200   -2.8400    0.0000 C   0  0  0  0  0  0  0  0  0  0  0  0
    1.0100   -2.0900    0.0000 C   0  0  0  0  0  0  0  0  0  0  0  0
    4.5500    0.8800    0.0000 C   0  0  0  0  0  0  0  0  0  0  0  0
    3.7100   -0.3100    0.0000 C   0  0  0  0  0  0  0  0  0  0  0  0
   -4.2000   -0.5600    0.0000 C   0  0  0  0  0  0  0  0  0  0  0  0
   -0.3200    1.6300    0.0000 C   0  0  0  0  0  0  0  0  0  0  0  0
   -2.8900    0.1600    0.0000 C   0  0  0  0  0  0  0  0  0  0  0  0
    1.0100    2.3900    0.0000 C   0  0  0  0  0  0  0  0  0  0  0  0
   -2.8900   -2.8400    0.0000 C   0  0  0  0  0  0  0  0  0  0  0  0
    8.0946    6.9403    0.0000 C   0  0  0  0  0  0  0  0  0  0  0  0
    4.1909    3.5108    0.0000 C   0  0  0  0  0  0  0  0  0  0  0  0
   -1.6200   -2.0900    0.0000 C   0  0  0  0  0  0  0  0  0  0  0  0
   -4.2000   -2.0900    0.0000 C   0  0  0  0  0  0  0  0  0  0  0  0
    1.0100   -0.5600    0.0000 C   0  0  0  0  0  0  0  0  0  0  0  0
    3.7100    2.0900    0.0000 C   0  0  0  0  0  0  0  0  0  0  0  0
    2.2800    0.1600    0.0000 C   0  0  0  0  0  0  0  0  0  0  0  0
   -0.3200    0.1600    0.0000 C   0  0  0  0  0  0  0  0  0  0  0  0
   -1.6200   -0.5600    0.0000 C   0  0  0  0  0  0  0  0  0  0  0  0
    2.2800    1.6300    0.0000 C   0  0  0  0  0  0  0  0  0  0  0  0
   -5.4977   -2.8424    0.0000 O   0  0  0  0  0  0  0  0  0  0  0  0
  8  7  1  0
  9  7  1  0
 11 10  1  0
 13 12  1  0
 16 14  1  0
 17 15  1  0
 19  1  1  0
 19  2  1  0
 19  8  1  0
 20  3  1  6
 20  9  1  0
 21 10  1  0
 21 18  1  0
 22 14  1  0
 22 18  1  0
 23 11  1  6
 24 12  1  1
 24 20  1  0
 25 13  1  1
 25 23  1  0
 26 15  1  1
 26 23  1  0
 27  4  1  1
 27 16  1  0
 27 21  1  0
 27 26  1  0
 28  5  1  1
 28 17  1  0
 28 24  1  0
 28 25  1  0
 29  6  1  0
 22 29  1  1
M  END
>  <NAME>  (4761) 
DIHYDROCHOLESTEROL METHYL ETHER

>  <SYNONYMS>  (4761) 


>  <SPECTRUM TYPE>  (4761) 
MS1

>  <INSTRUMENT TYPE>  (4761) 
EI-B

>  <INSTRUMENT>  (4761) 
SHIMADZU LKB-9000B

>  <ION MODE>  (4761) 
P

>  <INCHIKEY>  (4761) 
FMSSVYNONQQPON-IOESSVONSA-N

>  <FORMULA>  (4761) 
C28H50O

>  <EXACT MASS>  (4761) 
402.38616622

>  <MW>  (4761) 
402

>  <ID>  (4761) 
JP002704

>  <CONTRIBUTOR>  (4761) 
University of Tokyo Team, {Faculty of Engineering, University of Tokyo

>  <COMMENT>  (4761) 
SMILES=CC(C4([H])C([H])(C)CCCC(C)C)(C([H])1CC4)CCC(C3(C)2)(C([H])(CCC2CC(CC3)([H])OC)1)[H]
InChI=InChI=1S/C28H50O/c1-19(2)8-7-9-20(3)24-12-13-25-23-11-10-21-18-22(29-6)14-16-27(21,4)26(23)15-17-28(24,25)5/h19-26H,7-18H2,1-6H3/t20-,21?,22+,23+,24-,25+,26+,27+,28-/m1/s1
computed SMILES=O(C)C1CCC2(C)C(CCC3C4CCC(C(C)CCCC(C)C)C4(C)CCC32)C1
accession=JP002704
date=2016.01.19 (Created 2008.10.21, modified 2011.05.06)
author=HAYASHI A, DEPT. OF CHEMISTRY, FAC. OF SCI. AND TECHNOLOGY, KINKI UNIV.
license=CC BY-NC-SA
exact mass=402.38617
ionization energy=70 eV
ion type=[M]+*
computed spectral entropy=4.269966309942197
computed normalized entropy=0.845561993017675
SPLASH=splash10-014j-2981000000-25903405d185ae526e63
submitter=submitter = University of Tokyo Team (Faculty of Engineering, University of Tokyo)
MoNA Rating=3.75

>  <NUM PEAKS>  (4761) 
156

>  <MASS SPECTRAL PEAKS>  (4761) 
55 4.6
57 3.8
67 7
68 2.4
69 7.5
71 9.3
72 1
73 0.22
77 2.8
79 9.9
80 2.4
81 1.78
82 3.7
83 3.4
84 3.2
91 1.02
92 3
93 17.4
94 7
95 2.27
96 2.9
97 8.2
98 1.2
101 0.14
104 1.3
105 11.8
106 9.3
107 3.12
108 21.5
109 18
110 3
111 0.56
115 1.5
117 2.8
118 2.1
119 1.09
120 10.1
121 21.7
122 12.4
123 1.42
124 3.4
125 4
129 1.7
131 0.54
132 2.2
133 12.7
134 7.8
135 1.63
136 10.7
137 6.2
138 11.2
139 0.42
143 1.6
145 10.1
146 3.9
147 2.51
148 11.9
149 17.7
150 2.7
151 0.53
152 4.7
153 1.2
159 8.1
160 0.77
161 16.8
162 9
163 6.4
164 0.13
165 2.1
167 1.1
171 1
173 0.89
174 4.2
175 8.2
176 4.4
177 0.43
178 1.8
179 35.9
180 12.5
181 0.36
187 5.7
188 4.4
189 6.3
190 1.34
191 5.2
192 3.1
193 2.1
199 0.14
201 14.3
202 4.8
203 5.2
204 0.36
205 4.8
206 2.5
208 1.4
213 0.11
214 1
215 99.99
216 41.5
217 3.66
218 6.1
219 2.3
220 2.8
229 0.38
230 16.5
231 6.2
232 1.4
233 0.51
234 2.3
243 1.7
245 1.1
246 0.18
247 45.4
248 38.2
249 8.1
250 0.12
255 1
257 7.3
258 2.1
260 0.12
261 1.7
262 23.1
263 6.5
264 1.8
273 1.2
275 2
276 2.1
285 0.2
287 2.1
288 1.9
289 1.9
301 0.14
314 1.2
316 1.7
328 1.2
344 0.25
345 19.1
346 5.5
347 1.1
355 2.67
356 7.7
357 1.4
369 1.3
370 0.85
371 3.4
372 1.4
373 1
374 0.1
387 20.8
388 6.3
389 1.1
401 0.1
402 28.3
403 9.5
404 1.6
405 0.5

>  <PREDICTED SPECTRUM>  (4761) 
27 44
29 84
34 0
38 18
39 51
40 41
41 605
42 252
43 702
44 170
45 272
46 44
47 10
50 29
51 77
52 94
53 306
54 200
55 827
56 289
57 713
58 194
59 178
60 51
61 15
62 15
63 21
64 1
65 179
66 124
67 621
68 337
69 570
70 255
71 554
72 199
73 162
74 76
75 93
77 295
78 195
79 627
80 351
81 798
82 423
83 514
84 222
85 261
86 114
87 97
88 23
89 21
91 572
92 305
93 656
94 452
95 760
96 328
97 410
98 135
99 140
100 84
101 71
103 50
104 101
105 512
106 447
107 756
108 705
109 577
110 258
111 352
112 84
113 183
114 3
115 127
116 47
117 205
118 190
119 507
120 421
121 577
122 509
123 446
124 157
125 237
126 111
127 78
128 7
129 95
130 30
131 275
132 126
133 398
134 401
135 510
136 360
137 248
138 227
139 225
140 68
141 63
142 45
143 56
144 82
145 353
146 251
147 592
148 430
149 447
150 153
151 184
152 291
153 89
154 18
155 5
157 25
158 60
159 349
160 288
161 483
162 322
163 236
164 39
165 102
166 53
167 18
171 61
172 41
173 273
174 263
175 368
176 299
177 216
178 128
179 312
180 191
181 189
182 18
183 31
185 5
186 18
187 248
188 298
189 240
190 178
191 210
192 109
193 51
194 45
195 0
197 12
199 111
201 340
202 225
203 256
204 145
205 37
206 65
207 4
208 47
215 999
216 764
217 576
218 324
219 124
220 81
229 262
230 488
231 306
232 116
233 302
234 104
241 36
243 88
244 149
245 136
246 39
247 696
248 678
249 189
257 324
258 86
259 24
260 28
261 34
262 442
263 179
264 2
273 100
274 100
275 112
276 61
285 22
286 7
300 7
301 21
302 84
313 93
314 16
317 9
320 3
327 19
328 92
329 3
341 63
342 2
343 6
345 251
347 38
355 645
356 312
357 71
369 24
370 894
371 491
372 173
373 75
387 361
388 188
389 25
402 830
403 406
404 126

$$$$

     RDKit          2D

 29 32  0  0  1  0  0  0  0  0999 V2000
    9.5655    7.2342    0.0000 C   0  0  0  0  0  0  0  0  0  0  0  0
    7.1046    8.0672    0.0000 C   0  0  0  0  0  0  0  0  0  0  0  0
    3.2009    4.6377    0.0000 C   0  0  0  0  0  0  0  0  0  0  0  0
   -1.6125    0.9400    0.0000 C   0  0  0  0  0  0  0  0  0  0  0  0
    2.4507    3.1203    0.0000 C   0  0  0  0  0  0  0  0  0  0  0  0
   -5.4950   -4.3424    0.0000 C   0  0  0  0  0  0  0  0  0  0  0  0
    6.1427    5.2256    0.0000 C   0  0  0  0  0  0  0  0  0  0  0  0
    7.6137    5.5195    0.0000 C   0  0  0  0  0  0  0  0  0  0  0  0
    5.6618    3.8047    0.0000 C   0  0  0  0  0  0  0  0  0  0  0  0
   -0.3200   -2.8400    0.0000 C   0  0  0  0  0  0  0  0  0  0  0  0
    1.0100   -2.0900    0.0000 C   0  0  0  0  0  0  0  0  0  0  0  0
    4.5500    0.8800    0.0000 C   0  0  0  0  0  0  0  0  0  0  0  0
    3.7100   -0.3100    0.0000 C   0  0  0  0  0  0  0  0  0  0  0  0
   -4.2000   -0.5600    0.0000 C   0  0  0  0  0  0  0  0  0  0  0  0
   -0.3200    1.6300    0.0000 C   0  0  0  0  0  0  0  0  0  0  0  0
   -2.8900    0.1600    0.0000 C   0  0  0  0  0  0  0  0  0  0  0  0
    1.0100    2.3900    0.0000 C   0  0  0  0  0  0  0  0  0  0  0  0
   -2.8900   -2.8400    0.0000 C   0  0  0  0  0  0  0  0  0  0  0  0
    8.0946    6.9403    0.0000 C   0  0  0  0  0  0  0  0  0  0  0  0
    4.1909    3.5108    0.0000 C   0  0  0  0  0  0  0  0  0  0  0  0
   -1.6200   -2.0900    0.0000 C   0  0  0  0  0  0  0  0  0  0  0  0
   -4.2000   -2.0900    0.0000 C   0  0  0  0  0  0  0  0  0  0  0  0
    1.0100   -0.5600    0.0000 C   0  0  0  0  0  0  0  0  0  0  0  0
    3.7100    2.0900    0.0000 C   0  0  0  0  0  0  0  0  0  0  0  0
    2.2800    0.1600    0.0000 C   0  0  0  0  0  0  0  0  0  0  0  0
   -0.3200    0.1600    0.0000 C   0  0  0  0  0  0  0  0  0  0  0  0
   -1.6200   -0.5600    0.0000 C   0  0  0  0  0  0  0  0  0  0  0  0
    2.2800    1.6300    0.0000 C   0  0  0  0  0  0  0  0  0  0  0  0
   -5.4977   -2.8424    0.0000 O   0  0  0  0  0  0  0  0  0  0  0  0
  8  7  1  0
  9  7  1  0
 11 10  1  0
 13 12  1  0
 16 14  1  0
 17 15  1  0
 19  1  1  0
 19  2  1  0
 19  8  1  0
 20  3  1  6
 20  9  1  0
 21 10  2  0
 21 18  1  0
 22 14  1  0
 22 18  1  0
 23 11  1  6
 24 12  1  1
 24 20  1  0
 25 13  1  1
 25 23  1  0
 26 15  1  1
 26 23  1  0
 27  4  1  1
 27 16  1  0
 27 21  1  0
 27 26  1  0
 28  5  1  1
 28 17  1  0
 28 24  1  0
 28 25  1  0
 29  6  1  0
 22 29  1  1
M  END
>  <NAME>  (4762) 
CHOLESTEROL METHYL ETHER

>  <SYNONYMS>  (4762) 


>  <SPECTRUM TYPE>  (4762) 
MS1

>  <INSTRUMENT TYPE>  (4762) 
EI-B

>  <INSTRUMENT>  (4762) 
SHIMADZU LKB-9000B

>  <ION MODE>  (4762) 
P

>  <INCHIKEY>  (4762) 
RCXPTZJNVLDKKV-PXBBAZSNSA-N

>  <FORMULA>  (4762) 
C28H48O

>  <EXACT MASS>  (4762) 
400.370516156

>  <MW>  (4762) 
400

>  <ID>  (4762) 
JP002703

>  <CONTRIBUTOR>  (4762) 
University of Tokyo Team, {Faculty of Engineering, University of Tokyo

>  <COMMENT>  (4762) 
SMILES=CC(C4([H])C([H])(C)CCCC(C)C)(C([H])1CC4)CCC(C3(C)2)(C([H])(CC=C2CC(CC3)([H])OC)1)[H]
cas=1174-92-1
InChI=InChI=1S/C28H48O/c1-19(2)8-7-9-20(3)24-12-13-25-23-11-10-21-18-22(29-6)14-16-27(21,4)26(23)15-17-28(24,25)5/h10,19-20,22-26H,7-9,11-18H2,1-6H3/t20-,22+,23+,24-,25+,26+,27+,28-/m1/s1
computed SMILES=O(C)C1CC2=CCC3C(CCC4(C)C(CCC34)C(C)CCCC(C)C)C2(C)CC1
accession=JP002703
date=2016.01.19 (Created 2008.10.21, modified 2011.05.06)
author=HAYASHI A, DEPT. OF CHEMISTRY, FAC. OF SCI. AND TECHNOLOGY, KINKI UNIV.
license=CC BY-NC-SA
exact mass=400.37052
ionization energy=70 eV
ion type=[M]+*
computed spectral entropy=4.700922833716238
computed normalized entropy=0.8583865827169167
SPLASH=splash10-0pvj-4933000000-f89d23ef7b978a5d84dc
submitter=submitter = University of Tokyo Team (Faculty of Engineering, University of Tokyo)
MoNA Rating=3.75

>  <NUM PEAKS>  (4762) 
239

>  <MASS SPECTRAL PEAKS>  (4762) 
39 2.1
41 25.3
42 3.6
43 33.4
44 2.1
45 4.3
53 5.5
54 0.12
55 31.9
56 3.7
57 30.3
58 0.31
59 1.2
65 3
66 1.6
67 2.56
68 4.2
69 23.3
70 3.9
71 3.48
72 3.1
73 5.3
77 12.7
78 0.33
79 32.8
80 5.8
81 45.1
82 0.61
83 17.1
84 2.9
85 8.2
86 0.14
91 36.7
92 9.7
93 38.2
94 1.1
95 47.4
96 5.6
97 18
98 0.27
99 3.6
103 3.2
104 4.5
105 5.05
106 16.3
107 60.5
108 15.3
109 2.82
110 4.7
111 12.7
112 1.8
113 0.22
114 1.4
115 6.3
116 3.9
117 1.76
118 10.2
119 43
120 33.7
121 3.93
122 8.6
123 17.1
124 3.4
125 0.49
127 2.8
128 6
129 11.4
130 0.61
131 32.4
132 11.7
133 36.5
134 1.41
135 27
136 6.6
137 10.4
138 0.59
139 8.9
140 1.3
141 4.5
142 0.42
143 20.4
144 11
145 60.9
146 1.92
147 36.6
148 11.5
149 17.9
150 0.41
151 6.3
152 3
153 2.5
154 0.19
155 4.2
156 2.9
157 14.8
158 1.44
159 45.7
160 29.8
161 40.6
162 0.88
163 22.2
164 3.8
165 6.4
166 0.21
167 1.2
169 3.3
170 1.9
171 1.28
172 6
173 22.1
174 8.6
175 1.06
176 2.5
177 8.6
178 2.2
179 0.39
180 1.2
181 1.9
183 3.2
185 1.36
186 6.5
187 14.1
188 4.3
189 8.8
190 2.5
191 7.7
192 5.9
193 0.79
194 1.4
195 1.7
197 4.8
198 0.27
199 16.9
200 7
201 11.9
202 0.31
203 5.9
204 1.5
205 7.3
206 0.5
207 3.3
208 1.3
209 1.4
211 0.25
212 2.3
213 43.8
214 14
215 1.15
216 2.9
217 5
218 1.8
219 0.71
220 2.6
221 1.2
225 1.1
226 0.13
227 8.4
228 13.5
229 11.9
230 0.26
231 2.3
232 1.1
233 5.2
234 0.14
239 2.4
240 1.4
241 6.7
242 0.22
243 2.2
245 11.3
246 7.1
247 3.53
248 8.5
249 1.4
253 1.4
254 0.2
255 44.7
256 10.6
257 2.4
259 0.44
260 7
261 4.6
262 1.7
269 0.17
271 1.5
273 2.7
274 10.9
275 4.45
276 10.2
277 1.4
283 3.6
284 0.14
285 2.5
286 1.5
287 10.1
288 0.36
297 1.4
299 2.6
300 3.8
301 2.7
302 7.1
311 4.2
312 1.9
313 0.47
314 3.4
323 1.3
324 1.5
325 0.31
326 21.6
327 13.8
328 5.9
329 3.34
330 8.8
331 1.5
339 5
340 0.46
341 1.7
342 1
343 1.6
351 0.18
353 76
354 21.8
355 4.1
358 0.16
366 2.3
367 3.3
368 99.99
369 3.14
370 4.9
371 2
372 1.9
385 2.27
386 7.2
387 1.5
398 2.4
399 0.21
400 27.3
401 7.7
402 1.3

>  <PREDICTED SPECTRUM>  (4762) 
17 7
18 18
26 4
27 74
28 42
29 199
31 18
32 24
33 11
37 29
38 7
39 171
40 93
41 821
42 254
43 976
44 246
45 288
50 45
51 101
52 82
53 341
54 146
55 882
56 317
57 849
58 234
59 200
60 55
61 13
63 65
64 36
65 261
66 137
67 653
68 266
69 592
70 273
71 708
72 146
73 173
74 90
75 29
76 64
77 441
78 200
79 730
80 294
81 763
82 289
83 455
84 153
85 354
86 110
87 111
89 47
90 1
91 728
92 365
93 677
94 405
95 694
96 262
97 433
98 130
99 248
100 67
101 147
102 25
103 155
104 198
105 808
106 483
107 794
108 463
109 569
110 223
111 323
112 130
113 182
114 48
115 344
116 118
117 486
118 363
119 681
120 535
121 561
122 330
123 396
124 156
125 294
126 175
127 201
128 256
129 293
130 181
131 542
132 284
133 678
134 345
135 527
136 190
137 275
138 241
139 148
140 37
141 127
142 161
143 506
144 330
145 712
146 358
147 585
148 316
149 375
150 150
151 211
152 187
153 165
154 57
155 120
156 71
157 341
158 265
159 546
160 418
161 628
162 249
163 364
164 124
165 150
166 69
167 28
168 80
169 120
171 284
172 142
173 330
174 238
175 276
176 123
177 231
178 134
179 199
180 92
181 133
183 91
184 66
185 240
186 113
187 271
188 137
189 167
190 86
191 204
192 125
193 139
194 55
195 114
196 76
197 100
198 50
199 341
200 175
201 227
202 120
203 140
204 42
205 206
206 177
207 132
208 58
209 18
211 78
212 51
213 467
214 329
215 291
216 156
217 96
219 138
220 14
221 54
223 8
227 151
228 108
229 141
230 39
231 165
232 11
233 31
238 13
239 103
241 153
242 42
243 92
244 25
245 162
246 193
247 541
248 245
249 72
255 424
256 221
257 118
258 75
259 143
260 378
261 215
262 118
263 8
269 77
270 37
271 92
272 45
273 119
274 216
275 354
276 184
277 43
283 101
285 101
286 41
287 215
288 175
289 87
298 77
299 45
300 68
301 257
302 119
311 15
312 0
313 174
314 10
315 217
316 105
319 37
326 171
327 81
328 85
329 294
330 0
331 43
333 28
339 59
341 55
342 54
343 121
351 21
352 40
353 385
354 213
355 75
357 56
358 76
366 145
367 257
368 999
369 731
370 468
371 223
372 119
384 47
385 390
386 293
387 74
388 75
398 77
399 104
400 703
401 363
402 107

$$$$

     RDKit          2D

 33 36  0  0  1  0  0  0  0  0999 V2000
    9.5655    7.2342    0.0000 C   0  0  0  0  0  0  0  0  0  0  0  0
    7.1046    8.0672    0.0000 C   0  0  0  0  0  0  0  0  0  0  0  0
    8.6037    4.3926    0.0000 C   0  0  0  0  0  0  0  0  0  0  0  0
    3.2009    4.6377    0.0000 C   0  0  0  0  0  0  0  0  0  0  0  0
   -1.6125    0.9400    0.0000 C   0  0  0  0  0  0  0  0  0  0  0  0
    2.4507    3.1203    0.0000 C   0  0  0  0  0  0  0  0  0  0  0  0
   -6.9949   -4.3451    0.0000 C   0  0  0  0  0  0  0  0  0  0  0  0
   -5.4922   -5.8424    0.0000 C   0  0  0  0  0  0  0  0  0  0  0  0
   -3.9950   -4.3396    0.0000 C   0  0  0  0  0  0  0  0  0  0  0  0
    6.1427    5.2256    0.0000 C   0  0  0  0  0  0  0  0  0  0  0  0
    5.6618    3.8047    0.0000 C   0  0  0  0  0  0  0  0  0  0  0  0
   -0.3200   -2.8400    0.0000 C   0  0  0  0  0  0  0  0  0  0  0  0
    1.0100   -2.0900    0.0000 C   0  0  0  0  0  0  0  0  0  0  0  0
    4.5500    0.8800    0.0000 C   0  0  0  0  0  0  0  0  0  0  0  0
    3.7100   -0.3100    0.0000 C   0  0  0  0  0  0  0  0  0  0  0  0
   -4.2000   -0.5600    0.0000 C   0  0  0  0  0  0  0  0  0  0  0  0
   -0.3200    1.6300    0.0000 C   0  0  0  0  0  0  0  0  0  0  0  0
   -2.8900    0.1600    0.0000 C   0  0  0  0  0  0  0  0  0  0  0  0
    1.0100    2.3900    0.0000 C   0  0  0  0  0  0  0  0  0  0  0  0
   -2.8900   -2.8400    0.0000 C   0  0  0  0  0  0  0  0  0  0  0  0
    8.0946    6.9403    0.0000 C   0  0  0  0  0  0  0  0  0  0  0  0
    7.6137    5.5195    0.0000 C   0  0  0  0  0  0  0  0  0  0  0  0
    4.1909    3.5108    0.0000 C   0  0  0  0  0  0  0  0  0  0  0  0
   -1.6200   -2.0900    0.0000 C   0  0  0  0  0  0  0  0  0  0  0  0
   -4.2000   -2.0900    0.0000 C   0  0  0  0  0  0  0  0  0  0  0  0
    1.0100   -0.5600    0.0000 C   0  0  0  0  0  0  0  0  0  0  0  0
    3.7100    2.0900    0.0000 C   0  0  0  0  0  0  0  0  0  0  0  0
    2.2800    0.1600    0.0000 C   0  0  0  0  0  0  0  0  0  0  0  0
   -0.3200    0.1600    0.0000 C   0  0  0  0  0  0  0  0  0  0  0  0
   -1.6200   -0.5600    0.0000 C   0  0  0  0  0  0  0  0  0  0  0  0
    2.2800    1.6300    0.0000 C   0  0  0  0  0  0  0  0  0  0  0  0
   -5.4977   -2.8424    0.0000 O   0  0  0  0  0  0  0  0  0  0  0  0
   -5.4950   -4.3424    0.0000 Si  0  0  0  0  0  4  0  0  0  0  0  0
 10 11  2  0
 13 12  1  0
 15 14  1  0
 18 16  1  0
 19 17  1  0
 21  1  1  0
 21  2  1  0
 22  3  1  1
 22 10  1  0
 22 21  1  0
 23  4  1  6
 23 11  1  0
 24 12  2  0
 24 20  1  0
 25 16  1  0
 25 20  1  0
 26 13  2  0
 27 14  1  1
 27 23  1  0
 28 15  1  1
 28 26  1  0
 29 17  1  1
 29 26  1  0
 30  5  1  1
 30 18  1  0
 30 24  1  0
 30 29  1  0
 31  6  1  1
 31 19  1  0
 31 27  1  0
 31 28  1  0
 25 32  1  1
 33  7  1  0
 33  8  1  0
 33  9  1  0
 33 32  1  0
M  END
>  <NAME>  (4763) 
ERGOSTEROL-TRIMETHYLSILYL-ETHER

>  <SYNONYMS>  (4763) 


>  <SPECTRUM TYPE>  (4763) 
MS1

>  <INSTRUMENT TYPE>  (4763) 
EI-B

>  <INSTRUMENT>  (4763) 
SHIMADZU LKB-9000B

>  <ION MODE>  (4763) 
P

>  <INCHIKEY>  (4763) 
OPWXUPLJCANTIU-SCFYJWQTSA-N

>  <FORMULA>  (4763) 
C31H52OSi

>  <EXACT MASS>  (4763) 
468.37874281399996

>  <MW>  (4763) 
468

>  <ID>  (4763) 
JP002702

>  <CONTRIBUTOR>  (4763) 
University of Tokyo Team, {Faculty of Engineering, University of Tokyo

>  <COMMENT>  (4763) 
SMILES=CC(C4)(C=3CC(O[Si](C)(C)C)C4)C(C1=CC3)(CCC(C([H])(C([H])(C)C=CC([H])(C)C(C)C)2)(C1([H])CC2)C)[H]
cas=2625-45-8
InChI=InChI=1S/C31H52OSi/c1-21(2)22(3)10-11-23(4)27-14-15-28-26-13-12-24-20-25(32-33(7,8)9)16-18-30(24,5)29(26)17-19-31(27,28)6/h10-13,21-23,25,27-29H,14-20H2,1-9H3/b11-10+/t22-,23+,25-,27+,28-,29-,30-,31+/m0/s1
computed SMILES=O(C1CC2=CC=C3C(CCC4(C)C3CCC4C(C=CC(C)C(C)C)C)C2(C)CC1)[Si](C)(C)C
accession=JP002702
date=2016.01.19 (Created 2008.10.21, modified 2011.05.06)
author=HAYASHI A, DEPT. OF CHEMISTRY, FAC. OF SCI. AND TECHNOLOGY, KINKI UNIV.
license=CC BY-NC-SA
exact mass=468.37874
ionization energy=70 eV
ion type=[M]+*
computed spectral entropy=4.336125459809671
computed normalized entropy=0.8247511700875271
SPLASH=splash10-03dr-2947000000-1504c76410b50d6eba8d
submitter=submitter = University of Tokyo Team (Faculty of Engineering, University of Tokyo)
MoNA Rating=3.75

>  <NUM PEAKS>  (4763) 
192

>  <MASS SPECTRAL PEAKS>  (4763) 
55 4.2
57 2.1
67 2.9
69 16.6
70 1.6
71 1.8
73 12.9
74 0.15
76 8.9
77 1.6
79 3
81 1.06
82 1.4
83 6.2
91 5.1
93 0.55
94 1.1
95 6.6
97 3
103 0.1
105 7.4
106 1.7
107 7.9
108 0.11
109 9
110 1.2
111 1.7
115 0.31
116 1.3
117 3.9
118 2.4
119 2.19
120 2.1
121 3.7
123 3.9
124 0.11
125 9.5
126 1.5
128 3.8
129 1.36
130 4.1
131 27
132 4.6
133 0.77
134 1.7
135 4.3
137 2.8
141 0.6
142 3.6
143 22.8
144 19.8
145 2.12
146 4.1
147 5.8
149 2.4
151 0.13
153 1.6
154 1
155 9.2
156 0.39
157 22.5
158 8.9
159 19.7
160 0.34
161 3.2
163 1.5
165 1.6
167 0.26
168 3.2
169 12.6
170 4.5
171 1.14
172 3.6
173 4.8
174 2.2
175 0.16
178 1
179 1.4
180 1.4
181 0.46
182 3.8
183 11
184 4.1
185 1.26
186 3.1
187 4.1
191 1
192 0.1
193 1.9
194 2.4
195 6.2
196 0.46
197 15.7
198 5.7
199 15.5
200 0.36
201 3.6
205 1.6
206 1
207 0.13
208 1.2
209 6.5
210 3.5
211 2.57
212 6
213 11
214 2.6
215 0.13
219 1.1
221 2.7
222 1.2
223 0.37
224 3.1
225 7
226 7.5
227 0.87
228 2.4
229 1.8
230 1.1
232 0.11
235 2.3
236 1.9
237 7.8
238 0.45
239 7.1
240 1.8
241 1.8
242 0.1
247 1.7
248 1.2
249 2.9
250 0.24
251 16
252 6.2
253 39
254 0.84
255 3.1
265 1.9
267 1.8
268 0.14
272 1.1
279 2.2
280 1.8
281 0.18
285 1
287 1.2
289 1.3
293 0.23
294 1
295 1
301 1.2
307 0.12
310 2
323 1.8
324 1
325 0.12
326 3.1
327 1.2
328 2
335 0.26
336 1.7
337 66
338 20.3
339 0.47
340 1.2
341 2.6
342 1.3
343 0.4
344 1.7
345 1.2
348 1
349 0.16
350 1.9
352 1
361 3.3
362 0.45
363 99.99
364 29.3
365 4
374 0.12
376 8.2
377 7
378 23.9
379 0.78
380 1.3
453 2.6
454 1
455 0.11
466 1.7
467 1
468 21
469 1.7

>  <PREDICTED SPECTRUM>  (4763) 
41 109
43 99
44 28
45 31
46 22
47 29
53 122
54 15
55 472
56 51
57 219
59 107
60 41
61 80
65 20
67 279
69 563
70 112
71 187
73 483
74 191
75 475
76 117
77 196
78 25
79 233
80 46
81 579
82 127
83 297
84 8
85 45
89 11
91 372
92 87
93 337
94 79
95 361
96 92
97 199
98 98
99 145
100 33
101 58
103 57
105 381
106 100
107 327
108 2
109 289
110 7
111 153
115 164
116 112
117 301
118 101
119 371
120 41
121 271
122 19
123 143
125 153
127 5
128 175
129 432
130 97
131 315
132 112
133 340
134 44
135 109
137 37
141 304
142 112
143 406
144 286
145 417
146 219
147 227
149 61
151 36
153 76
154 30
155 207
156 134
157 454
158 341
159 425
160 161
161 79
165 57
166 94
167 63
168 34
169 403
170 96
171 230
172 133
173 177
175 41
180 20
181 103
182 106
183 231
184 66
185 207
186 76
187 92
189 40
194 69
195 192
196 149
197 322
198 68
199 288
200 102
201 109
209 96
210 112
211 451
212 143
213 199
214 63
215 106
216 3
223 67
224 32
225 146
226 139
227 290
228 40
229 57
235 72
237 264
238 176
239 348
240 137
241 139
242 32
243 1
247 14
249 15
250 100
251 414
252 224
253 616
254 220
255 95
256 52
265 29
266 27
267 119
269 62
270 20
279 7
280 3
281 173
282 85
283 70
288 46
294 2
295 23
307 23
310 11
321 130
327 78
335 205
336 5
337 332
338 143
339 177
340 79
341 157
342 41
343 55
344 54
363 999
364 488
365 185
375 37
378 499
379 205
380 33
410 39
425 38
453 135
454 51
467 39
468 642
469 351
470 266
471 52

$$$$

     RDKit          2D

 35 38  0  0  1  0  0  0  0  0999 V2000
    9.6794    7.6838    0.0000 C   0  0  0  0  0  0  0  0  0  0  0  0
    7.2143    8.5043    0.0000 C   0  0  0  0  0  0  0  0  0  0  0  0
    3.3280    5.0551    0.0000 C   0  0  0  0  0  0  0  0  0  0  0  0
   -3.7067   -3.5753    0.0000 C   0  0  0  0  0  0  0  0  0  0  0  0
   -1.7818   -3.5657    0.0000 C   0  0  0  0  0  0  0  0  0  0  0  0
   -1.4651    1.3500    0.0000 C   0  0  0  0  0  0  0  0  0  0  0  0
    2.5987    3.5305    0.0000 C   0  0  0  0  0  0  0  0  0  0  0  0
    2.5768   -0.9228    0.0000 C   0  0  0  0  0  0  0  0  0  0  0  0
   -5.9142   -0.3897    0.0000 C   0  0  0  0  0  0  0  0  0  0  0  0
   -7.9606   -0.9483    0.0000 C   0  0  0  0  0  0  0  0  0  0  0  0
   -7.4019   -2.9948    0.0000 C   0  0  0  0  0  0  0  0  0  0  0  0
    6.2669    5.6578    0.0000 C   0  0  0  0  0  0  0  0  0  0  0  0
    7.7363    5.9592    0.0000 C   0  0  0  0  0  0  0  0  0  0  0  0
    5.7931    4.2346    0.0000 C   0  0  0  0  0  0  0  0  0  0  0  0
    1.1600   -1.6800    0.0000 C   0  0  0  0  0  0  0  0  0  0  0  0
   -0.1700   -2.4200    0.0000 C   0  0  0  0  0  0  0  0  0  0  0  0
    4.7000    1.2900    0.0000 C   0  0  0  0  0  0  0  0  0  0  0  0
   -0.1700    2.0400    0.0000 C   0  0  0  0  0  0  0  0  0  0  0  0
   -4.0600   -0.1500    0.0000 C   0  0  0  0  0  0  0  0  0  0  0  0
   -2.7500    0.5700    0.0000 C   0  0  0  0  0  0  0  0  0  0  0  0
    3.8500    0.1000    0.0000 C   0  0  0  0  0  0  0  0  0  0  0  0
    1.1600    2.8100    0.0000 C   0  0  0  0  0  0  0  0  0  0  0  0
    8.2100    7.3824    0.0000 C   0  0  0  0  0  0  0  0  0  0  0  0
    4.3237    3.9332    0.0000 C   0  0  0  0  0  0  0  0  0  0  0  0
    3.8500    2.5100    0.0000 C   0  0  0  0  0  0  0  0  0  0  0  0
   -0.1700    0.5700    0.0000 C   0  0  0  0  0  0  0  0  0  0  0  0
    1.1600   -0.1500    0.0000 C   0  0  0  0  0  0  0  0  0  0  0  0
   -1.4700   -1.6800    0.0000 C   0  0  0  0  0  0  0  0  0  0  0  0
   -4.0600   -1.6800    0.0000 C   0  0  0  0  0  0  0  0  0  0  0  0
   -2.7500   -2.4200    0.0000 C   0  0  0  0  0  0  0  0  0  0  0  0
   -1.4700   -0.1500    0.0000 C   0  0  0  0  0  0  0  0  0  0  0  0
    2.4300    2.0400    0.0000 C   0  0  0  0  0  0  0  0  0  0  0  0
    2.4300    0.5700    0.0000 C   0  0  0  0  0  0  0  0  0  0  0  0
   -5.3555   -2.4361    0.0000 O   0  0  0  0  0  0  0  0  0  0  0  0
   -6.6580   -1.6922    0.0000 Si  0  0  0  0  0  4  0  0  0  0  0  0
 13 12  1  0
 14 12  1  0
 16 15  1  0
 20 19  1  0
 21 17  1  0
 22 18  1  0
 23  1  1  0
 23  2  1  0
 23 13  2  0
 24  3  1  1
 24 14  1  0
 25 17  1  1
 25 24  1  0
 26 18  1  0
 27 15  1  0
 27 26  2  0
 28 16  1  1
 29 19  1  0
 30  4  1  0
 30  5  1  0
 30 28  1  0
 30 29  1  0
 31  6  1  1
 31 20  1  0
 31 26  1  0
 31 28  1  0
 32  7  1  1
 32 22  1  0
 32 25  1  0
 33  8  1  6
 33 21  1  0
 33 27  1  0
 33 32  1  0
 29 34  1  1
 35  9  1  0
 35 10  1  0
 35 11  1  0
 35 34  1  0
M  END
>  <NAME>  (4764) 
LANOSTEROL-TRIMETHYLSILYL-ETHER

>  <SYNONYMS>  (4764) 


>  <SPECTRUM TYPE>  (4764) 
MS1

>  <INSTRUMENT TYPE>  (4764) 
EI-B

>  <INSTRUMENT>  (4764) 
SHIMADZU LKB-9000B

>  <ION MODE>  (4764) 
P

>  <INCHIKEY>  (4764) 
VUPPLGLOGXZZKA-ZXEXGRMMSA-N

>  <FORMULA>  (4764) 
C33H58OSi

>  <EXACT MASS>  (4764) 
498.425693006

>  <MW>  (4764) 
498

>  <ID>  (4764) 
JP002701

>  <CONTRIBUTOR>  (4764) 
University of Tokyo Team, {Faculty of Engineering, University of Tokyo

>  <COMMENT>  (4764) 
SMILES=[H]C(C41C)(CCC(=C43)C(C2(C)CC3)(CCC2([H])C([H])(C)CCC=C(C)C)C)C(C(O[Si](C)(C)C)CC1)(C)C
cas=55493-84-0
InChI=InChI=1S/C33H58OSi/c1-23(2)13-12-14-24(3)25-17-21-33(8)27-15-16-28-30(4,5)29(34-35(9,10)11)19-20-31(28,6)26(27)18-22-32(25,33)7/h13,24-25,28-29H,12,14-22H2,1-11H3/t24-,25+,28-,29-,31+,32+,33-/m0/s1
computed SMILES=O(C1CCC2(C3=C(CCC2C1(C)C)C4(C)CCC(C(C)CCC=C(C)C)C4(C)CC3)C)[Si](C)(C)C
accession=JP002701
date=2016.01.19 (Created 2008.10.21, modified 2011.05.06)
author=HAYASHI A, DEPT. OF CHEMISTRY, FAC. OF SCI. AND TECHNOLOGY, KINKI UNIV.
license=CC BY-NC-SA
exact mass=498.42569
ionization energy=70 eV
ion type=[M]+*
computed spectral entropy=4.425067440740702
computed normalized entropy=0.8433480349783606
SPLASH=splash10-0006-3946200000-1293091e58db84429012
submitter=submitter = University of Tokyo Team (Faculty of Engineering, University of Tokyo)
MoNA Rating=3.75

>  <NUM PEAKS>  (4764) 
190

>  <MASS SPECTRAL PEAKS>  (4764) 
55 2.8
67 2.4
69 17.2
70 0.13
73 11.2
74 1
75 8.5
76 0.1
77 1
79 1.8
81 7.7
82 0.12
83 4.6
91 3.4
93 6.2
94 0.13
95 13.3
96 1.6
97 2.6
105 0.59
106 1
107 8.6
108 2.1
109 2.5
110 2.6
111 3.8
117 4.6
118 0.13
119 11
120 2.2
121 11.7
122 0.28
123 11.5
124 1.4
128 1.1
129 1.07
130 2.2
131 6.7
132 1.9
133 0.79
134 2.7
135 14.9
136 3.3
137 0.67
141 1.4
142 1.1
143 4.7
144 0.27
145 8.7
146 2.5
147 9.8
148 0.24
149 8.9
151 2.5
155 1.7
156 0.1
157 7.4
158 3.2
159 8.4
160 0.39
161 10.8
162 2.5
163 7.4
164 0.15
165 1.5
169 2.5
170 1.3
171 0.62
172 2.7
173 9.2
174 3.2
175 0.94
176 1.9
177 3.4
178 1
183 0.35
184 1.3
185 5.4
186 2.2
187 1.3
188 3.4
189 12.9
190 3.7
191 0.45
192 1.2
197 2.9
198 2.1
199 0.42
200 1.9
201 8.1
202 2.3
203 0.71
204 2.2
205 3.1
206 1
209 0.1
210 1.1
211 3.4
212 1.7
213 0.6
214 5.2
215 12.1
216 2.4
217 0.28
223 1.1
225 4.2
226 1.5
227 1.33
228 3.7
229 9.7
230 2.3
231 0.28
237 1
239 2.6
240 2.7
241 1.42
242 3.2
243 5.5
244 1.9
245 0.18
253 3.7
254 1
255 8.6
256 0.28
257 4
258 1.1
259 1.4
267 0.14
269 2.7
270 2.1
271 3.2
272 0.19
273 1.8
281 2.3
282 1.5
283 0.41
284 1.4
285 1.9
295 2.3
296 0.11
297 2.7
298 1
299 1.5
309 0.28
310 1.2
311 5.4
312 1.9
313 0.11
315 3.1
319 1.1
323 2.6
324 0.15
325 1.6
331 1.2
337 2.6
338 0.1
339 1.8
345 1.4
350 1.6
351 0.19
365 1.2
367 1.4
369 1.2
377 0.13
378 1.6
383 1.5
391 4.6
393 99.99
394 31.3
395 5.6
396 1.3
405 0.1
406 1.7
407 1.9
408 1.7
413 0.21
451 1
467 1.1
468 1.5
469 0.18
470 1.7
471 1
482 0.14
483 21.3
484 9.5
485 2.8
486 0.28
497 2.1
498 14.2
499 6.1

>  <PREDICTED SPECTRUM>  (4764) 
27 26
41 224
42 22
43 139
53 51
55 345
56 77
57 245
59 166
61 88
65 33
67 243
68 49
69 990
70 195
71 103
72 39
73 615
74 172
75 597
76 139
77 203
78 70
79 239
80 62
81 442
82 189
83 307
84 71
85 115
87 83
89 38
91 296
92 54
93 405
94 144
95 599
96 138
97 303
98 4
99 58
100 71
101 43
103 71
105 393
106 145
107 507
108 159
109 598
110 134
111 175
113 10
115 115
117 278
118 64
119 484
120 230
121 578
122 358
123 467
124 116
125 209
127 39
128 95
129 333
130 119
131 388
132 107
133 379
134 256
135 606
136 243
137 350
139 14
141 57
142 115
143 303
144 206
145 476
146 176
147 476
148 180
149 437
150 202
151 226
152 52
153 54
155 127
156 49
157 284
158 111
159 500
160 220
161 419
162 163
163 325
164 115
165 119
167 30
168 7
169 172
170 87
171 277
172 133
173 402
174 184
175 399
176 222
177 292
178 12
179 59
181 43
182 40
183 170
184 42
185 231
186 82
187 363
188 174
189 484
190 184
191 239
192 25
193 54
195 75
196 26
197 201
198 41
199 266
200 108
201 297
202 170
203 425
204 158
205 240
206 68
209 60
210 29
211 166
212 75
213 303
214 245
215 444
216 250
217 232
218 84
219 119
223 58
224 44
225 187
226 151
227 542
228 168
229 400
230 145
231 188
232 58
233 57
239 177
240 105
241 493
242 215
243 329
244 100
245 230
246 45
247 28
253 102
255 279
256 157
257 252
258 103
259 280
260 36
266 10
267 190
268 63
269 209
270 140
271 388
272 150
273 94
274 66
281 86
283 237
284 124
285 174
286 184
287 102
293 2
295 166
296 73
297 220
298 101
299 168
300 129
301 74
309 182
310 48
311 265
312 41
313 89
317 108
318 50
319 68
321 37
322 5
323 96
324 54
325 148
326 73
331 26
337 29
338 54
339 86
340 124
351 59
354 1
361 54
365 225
366 91
367 88
369 53
379 8
385 91
386 30
387 107
388 20
390 0
391 23
392 91
393 999
394 566
395 156
396 40
399 23
408 217
409 104
411 27
413 15
414 12
483 702
484 375
485 145
486 35
498 651
499 383
500 188

$$$$

     RDKit          2D

 32 35  0  0  1  0  0  0  0  0999 V2000
    9.5655    7.2342    0.0000 C   0  0  0  0  0  0  0  0  0  0  0  0
    7.1046    8.0672    0.0000 C   0  0  0  0  0  0  0  0  0  0  0  0
    3.2009    4.6377    0.0000 C   0  0  0  0  0  0  0  0  0  0  0  0
   -1.6125    0.9400    0.0000 C   0  0  0  0  0  0  0  0  0  0  0  0
    2.4507    3.1203    0.0000 C   0  0  0  0  0  0  0  0  0  0  0  0
   -6.9949   -4.3451    0.0000 C   0  0  0  0  0  0  0  0  0  0  0  0
   -5.4922   -5.8424    0.0000 C   0  0  0  0  0  0  0  0  0  0  0  0
   -3.9950   -4.3396    0.0000 C   0  0  0  0  0  0  0  0  0  0  0  0
    6.1427    5.2256    0.0000 C   0  0  0  0  0  0  0  0  0  0  0  0
    7.6137    5.5195    0.0000 C   0  0  0  0  0  0  0  0  0  0  0  0
    5.6618    3.8047    0.0000 C   0  0  0  0  0  0  0  0  0  0  0  0
   -0.3200   -2.8400    0.0000 C   0  0  0  0  0  0  0  0  0  0  0  0
    1.0100   -2.0900    0.0000 C   0  0  0  0  0  0  0  0  0  0  0  0
    4.5500    0.8800    0.0000 C   0  0  0  0  0  0  0  0  0  0  0  0
    3.7100   -0.3100    0.0000 C   0  0  0  0  0  0  0  0  0  0  0  0
   -4.2000   -0.5600    0.0000 C   0  0  0  0  0  0  0  0  0  0  0  0
   -0.3200    1.6300    0.0000 C   0  0  0  0  0  0  0  0  0  0  0  0
   -2.8900    0.1600    0.0000 C   0  0  0  0  0  0  0  0  0  0  0  0
    1.0100    2.3900    0.0000 C   0  0  0  0  0  0  0  0  0  0  0  0
   -2.8900   -2.8400    0.0000 C   0  0  0  0  0  0  0  0  0  0  0  0
    8.0946    6.9403    0.0000 C   0  0  0  0  0  0  0  0  0  0  0  0
    4.1909    3.5108    0.0000 C   0  0  0  0  0  0  0  0  0  0  0  0
   -1.6200   -2.0900    0.0000 C   0  0  0  0  0  0  0  0  0  0  0  0
   -4.2000   -2.0900    0.0000 C   0  0  0  0  0  0  0  0  0  0  0  0
    1.0100   -0.5600    0.0000 C   0  0  0  0  0  0  0  0  0  0  0  0
    3.7100    2.0900    0.0000 C   0  0  0  0  0  0  0  0  0  0  0  0
    2.2800    0.1600    0.0000 C   0  0  0  0  0  0  0  0  0  0  0  0
   -0.3200    0.1600    0.0000 C   0  0  0  0  0  0  0  0  0  0  0  0
   -1.6200   -0.5600    0.0000 C   0  0  0  0  0  0  0  0  0  0  0  0
    2.2800    1.6300    0.0000 C   0  0  0  0  0  0  0  0  0  0  0  0
   -5.4977   -2.8424    0.0000 O   0  0  0  0  0  0  0  0  0  0  0  0
   -5.4950   -4.3424    0.0000 Si  0  0  0  0  0  4  0  0  0  0  0  0
 10  9  1  0
 11  9  1  0
 13 12  1  0
 15 14  1  0
 18 16  1  0
 19 17  1  0
 21  1  1  0
 21  2  1  0
 21 10  1  0
 22  3  1  6
 22 11  1  0
 23 12  1  0
 23 20  1  0
 24 16  1  0
 24 20  1  0
 25 13  1  6
 26 14  1  1
 26 22  1  0
 27 15  1  1
 27 25  1  0
 28 17  1  1
 28 25  1  0
 29  4  1  1
 29 18  1  0
 29 23  1  0
 29 28  1  0
 30  5  1  1
 30 19  1  0
 30 26  1  0
 30 27  1  0
 24 31  1  1
 32  6  1  0
 32  7  1  0
 32  8  1  0
 32 31  1  0
M  END
>  <NAME>  (4765) 
DIHYDROCHOLESTEROL-TRIMETHYLSILYL-ETHER

>  <SYNONYMS>  (4765) 


>  <SPECTRUM TYPE>  (4765) 
MS1

>  <INSTRUMENT TYPE>  (4765) 
EI-B

>  <INSTRUMENT>  (4765) 
SHIMADZU LKB-9000B

>  <ION MODE>  (4765) 
P

>  <INCHIKEY>  (4765) 
HRLPEXVPNOBUDF-SGCSJPMTSA-N

>  <FORMULA>  (4765) 
C30H56OSi

>  <EXACT MASS>  (4765) 
460.410042942

>  <MW>  (4765) 
460

>  <ID>  (4765) 
JP002700

>  <CONTRIBUTOR>  (4765) 
University of Tokyo Team, {Faculty of Engineering, University of Tokyo

>  <COMMENT>  (4765) 
SMILES=C(C1)C([H])(C(CCCC(C)C)([H])C)C(C4)(C1([H])C([H])(C(C4)([H])2)CCC(C3)C(C)2CCC(O[Si](C)(C)C)3[H])C
cas=18880-51-8
InChI=InChI=1S/C30H56OSi/c1-21(2)10-9-11-22(3)26-14-15-27-25-13-12-23-20-24(31-32(6,7)8)16-18-29(23,4)28(25)17-19-30(26,27)5/h21-28H,9-20H2,1-8H3/t22-,23?,24+,25+,26-,27+,28+,29+,30-/m1/s1
computed SMILES=O(C1CCC2(C)C(CCC3C4CCC(C(C)CCCC(C)C)C4(C)CCC32)C1)[Si](C)(C)C
accession=JP002700
date=2016.01.19 (Created 2008.10.21, modified 2011.05.06)
author=HAYASHI A, DEPT. OF CHEMISTRY, FAC. OF SCI. AND TECHNOLOGY, KINKI UNIV.
license=CC BY-NC-SA
exact mass=460.41004
ionization energy=70 eV
ion type=[M]+*
computed spectral entropy=4.36543971896387
computed normalized entropy=0.8415490735330671
SPLASH=splash10-014i-3962100000-f2f819dffabb9607ccd3
submitter=submitter = University of Tokyo Team (Faculty of Engineering, University of Tokyo)
MoNA Rating=3.75

>  <NUM PEAKS>  (4765) 
179

>  <MASS SPECTRAL PEAKS>  (4765) 
55 4
57 3.9
67 5.2
68 0.13
69 6.6
70 1
71 4.4
73 1.18
74 1.5
75 42.3
76 3.4
77 0.32
79 6.4
80 1.5
81 16.6
82 0.3
83 8.1
85 1.3
89 2
91 0.78
92 2.8
93 13.9
94 5.5
95 2.46
96 2.7
97 9
101 1.6
103 0.14
104 2.3
105 9.6
106 25.1
107 3.3
108 14
109 19.2
110 5.6
111 0.98
115 1.6
116 1
117 2.7
118 0.22
119 10.3
120 8.4
121 20
122 0.85
123 13.1
124 2.7
125 3.6
127 0.15
129 9.1
130 4.7
131 11
132 0.25
133 12.4
134 8
135 16.9
136 0.72
137 6.3
138 4.7
139 1.7
142 1.72
143 4.6
144 1.6
145 12.5
146 0.48
147 24.4
148 14.5
149 16.3
150 0.26
151 3.4
152 2.9
153 1.2
155 1.17
156 3
157 1.5
159 9.5
160 0.73
161 15
162 6.7
163 6
164 0.11
165 2.9
167 1.1
169 1.5
173 0.75
174 4.1
175 7.3
176 3.1
177 0.33
179 2.2
181 2.6
182 1.8
183 0.32
187 5.6
188 3.7
189 5
190 0.72
191 5.1
192 1
193 2
196 0.77
197 2.8
199 1
201 14.2
202 0.42
203 4.2
204 1.9
205 2.2
206 0.12
207 1.7
208 1.6
209 2.3
215 99.99
216 54.8
217 38.2
218 6.6
219 0.2
229 5.6
230 25.5
231 7.6
232 0.13
233 1.3
238 3.6
239 1.1
243 1.5
247 0.24
255 1.4
257 8.5
258 0.19
261 1.5
262 10.8
263 5
264 0.18
275 1.4
276 1.6
277 1
285 0.22
287 1.3
288 1.8
289 1.7
291 0.23
292 1.1
295 1
301 1.2
304 1.2
305 2.88
306 18.3
307 4.8
308 1.2
313 0.18
315 4.4
316 1.6
317 1.1
319 0.13
320 4.6
321 1.4
328 1.3
329 0.16
330 2.6
331 5.3
332 1.7
341 0.1
344 2.7
345 1.4
355 35.5
356 0.98
357 1.5
369 5.8
370 18.4
371 0.55
403 12.4
405 1.2
431 1
445 5.07
446 19.2
447 5
448 1
460 1.92
461 7.5
462 2

>  <PREDICTED SPECTRUM>  (4765) 
27 42
28 91
29 48
35 107
36 106
37 51
38 41
39 62
40 63
41 460
42 283
43 651
44 208
45 173
46 76
47 114
48 28
49 21
50 75
51 99
52 82
53 220
54 146
55 641
56 292
57 537
58 162
59 188
60 101
61 227
62 130
63 82
64 3
65 151
66 43
67 420
68 230
69 481
70 226
71 384
72 215
73 557
74 217
75 760
76 194
77 281
78 153
79 459
80 234
81 596
82 273
83 480
84 197
85 178
86 87
87 147
88 108
89 219
90 57
91 525
92 248
93 472
94 289
95 649
96 227
97 360
98 127
99 122
100 62
101 189
102 101
103 125
104 135
105 480
106 506
107 639
108 589
109 469
110 164
111 288
112 101
113 160
114 94
115 240
116 164
117 266
118 224
119 408
120 330
121 540
122 393
123 410
124 147
125 165
126 59
127 161
128 105
129 418
130 188
131 365
132 195
133 400
134 266
135 476
136 334
137 264
138 148
139 171
140 5
141 161
142 218
143 214
144 235
145 427
146 310
147 488
148 357
149 369
150 112
151 143
152 191
153 139
154 77
155 180
156 103
157 106
158 96
159 278
160 320
161 407
162 335
163 242
164 123
165 149
166 117
167 145
168 97
169 102
171 36
172 48
173 274
174 221
175 297
176 195
177 152
178 97
179 160
180 214
181 170
182 160
183 125
184 44
185 79
186 76
187 200
188 279
189 221
190 202
191 131
192 49
193 90
194 116
195 118
196 183
197 123
198 99
199 91
200 30
201 382
202 265
203 238
204 73
205 122
206 96
207 167
208 98
209 105
211 2
212 18
213 6
215 999
216 757
217 615
218 343
219 152
220 73
221 63
222 29
223 39
227 29
229 55
230 482
231 201
232 39
233 69
234 28
235 92
236 103
237 311
238 161
241 28
245 60
246 20
247 77
248 62
249 68
250 28
255 4
257 267
258 4
259 91
260 82
261 129
262 351
263 171
264 57
265 78
273 100
274 60
275 157
276 148
277 105
285 63
287 72
288 130
289 129
290 117
291 168
302 59
303 31
304 113
305 543
306 515
307 265
313 83
314 17
315 168
316 153
317 100
318 68
319 114
320 227
321 64
327 3
328 152
329 164
330 53
331 241
332 88
333 28
334 12
341 29
344 52
353 22
354 57
355 531
356 253
357 151
369 193
370 542
371 302
372 103
403 301
404 172
405 88
418 29
445 648
446 377
447 162
448 40
458 55
459 69
460 721
461 416
462 188
463 82

$$$$

     RDKit          2D

 30 33  0  0  1  0  0  0  0  0999 V2000
    9.5655    7.2342    0.0000 C   0  0  0  0  0  0  0  0  0  0  0  0
   10.0746    4.6865    0.0000 C   0  0  0  0  0  0  0  0  0  0  0  0
    8.1228    2.9718    0.0000 C   0  0  0  0  0  0  0  0  0  0  0  0
    3.2009    4.6377    0.0000 C   0  0  0  0  0  0  0  0  0  0  0  0
   -1.6125    0.9400    0.0000 C   0  0  0  0  0  0  0  0  0  0  0  0
    2.4507    3.1203    0.0000 C   0  0  0  0  0  0  0  0  0  0  0  0
    8.0946    6.9403    0.0000 C   0  0  0  0  0  0  0  0  0  0  0  0
    5.6618    3.8047    0.0000 C   0  0  0  0  0  0  0  0  0  0  0  0
    6.1427    5.2256    0.0000 C   0  0  0  0  0  0  0  0  0  0  0  0
   -0.3200   -2.8400    0.0000 C   0  0  0  0  0  0  0  0  0  0  0  0
    1.0100   -2.0900    0.0000 C   0  0  0  0  0  0  0  0  0  0  0  0
    4.5500    0.8800    0.0000 C   0  0  0  0  0  0  0  0  0  0  0  0
    3.7100   -0.3100    0.0000 C   0  0  0  0  0  0  0  0  0  0  0  0
   -4.2000   -0.5600    0.0000 C   0  0  0  0  0  0  0  0  0  0  0  0
   -0.3200    1.6300    0.0000 C   0  0  0  0  0  0  0  0  0  0  0  0
   -2.8900    0.1600    0.0000 C   0  0  0  0  0  0  0  0  0  0  0  0
    1.0100    2.3900    0.0000 C   0  0  0  0  0  0  0  0  0  0  0  0
   -2.8900   -2.8400    0.0000 C   0  0  0  0  0  0  0  0  0  0  0  0
    8.6037    4.3926    0.0000 C   0  0  0  0  0  0  0  0  0  0  0  0
    4.1909    3.5108    0.0000 C   0  0  0  0  0  0  0  0  0  0  0  0
    7.6137    5.5195    0.0000 C   0  0  0  0  0  0  0  0  0  0  0  0
   -1.6200   -2.0900    0.0000 C   0  0  0  0  0  0  0  0  0  0  0  0
   -4.2000   -2.0900    0.0000 C   0  0  0  0  0  0  0  0  0  0  0  0
    1.0100   -0.5600    0.0000 C   0  0  0  0  0  0  0  0  0  0  0  0
    3.7100    2.0900    0.0000 C   0  0  0  0  0  0  0  0  0  0  0  0
    2.2800    0.1600    0.0000 C   0  0  0  0  0  0  0  0  0  0  0  0
   -0.3200    0.1600    0.0000 C   0  0  0  0  0  0  0  0  0  0  0  0
   -1.6200   -0.5600    0.0000 C   0  0  0  0  0  0  0  0  0  0  0  0
    2.2800    1.6300    0.0000 C   0  0  0  0  0  0  0  0  0  0  0  0
   -5.4977   -2.8424    0.0000 O   0  0  0  0  0  0  0  0  0  0  0  0
  7  1  1  0
  9  8  1  0
 11 10  1  0
 13 12  1  0
 16 14  1  0
 17 15  1  0
 19  2  1  0
 19  3  1  0
 20  4  1  6
 20  8  1  0
 21  7  1  1
 21  9  1  0
 21 19  1  0
 22 10  2  0
 22 18  1  0
 23 14  1  0
 23 18  1  0
 24 11  1  6
 25 12  1  1
 25 20  1  0
 26 13  1  1
 26 24  1  0
 27 15  1  1
 27 24  1  0
 28  5  1  1
 28 16  1  0
 28 22  1  0
 28 27  1  0
 29  6  1  1
 29 17  1  0
 29 25  1  0
 29 26  1  0
 23 30  1  1
M  END
>  <NAME>  (4766) 
STIGMAST-5-EN-3BETA-OL

>  <SYNONYMS>  (4766) 
BETA-SITOSTEROL

>  <SPECTRUM TYPE>  (4766) 
MS1

>  <INSTRUMENT TYPE>  (4766) 
EI-B

>  <INSTRUMENT>  (4766) 
SHIMADZU LKB-9000B

>  <ION MODE>  (4766) 
P

>  <INCHIKEY>  (4766) 
KZJWDPNRJALLNS-VJSFXXLFSA-N

>  <FORMULA>  (4766) 
C29H50O

>  <EXACT MASS>  (4766) 
414.38616622

>  <MW>  (4766) 
414

>  <ID>  (4766) 
JP002699

>  <CONTRIBUTOR>  (4766) 
University of Tokyo Team, {Faculty of Engineering, University of Tokyo

>  <COMMENT>  (4766) 
SMILES=C(C1)C([H])(O)CC(=C([H])4)C1(C([H])(C3([H])C4)CCC(C)(C23[H])C(CC2)([H])C(CCC([H])(CC)C(C)C)([H])C)C
InChI=InChI=1S/C29H50O/c1-7-21(19(2)3)9-8-20(4)25-12-13-26-24-11-10-22-18-23(30)14-16-28(22,5)27(24)15-17-29(25,26)6/h10,19-21,23-27,30H,7-9,11-18H2,1-6H3/t20-,21-,23+,24+,25-,26+,27+,28+,29-/m1/s1
computed SMILES=OC1CC2=CCC3C(CCC4(C)C(CCC34)C(C)CCC(CC)C(C)C)C2(C)CC1
accession=JP002699
date=2016.01.19 (Created 2008.10.21, modified 2011.05.06)
author=HAYASHI A, DEPT. OF CHEMISTRY, FAC. OF SCI. AND TECHNOLOGY, KINKI UNIV.
license=CC BY-NC-SA
exact mass=414.38617
ionization energy=70 eV
ion type=[M]+*
computed spectral entropy=4.6679124087780135
computed normalized entropy=0.8543294477850666
SPLASH=splash10-0002-2931000000-0d63e91b728deb1446a4
submitter=submitter = University of Tokyo Team (Faculty of Engineering, University of Tokyo)
MoNA Rating=3.75

>  <NUM PEAKS>  (4766) 
236

>  <MASS SPECTRAL PEAKS>  (4766) 
41 1.2
43 5.2
58 1.3
65 1.9
66 1.4
67 2.2
68 4.6
69 31.2
70 2.8
71 3.02
72 0.19
80 6.8
81 70.5
82 9.6
83 2.69
84 4.8
85 36.5
86 0.29
93 53.7
94 18.9
95 82.1
96 1.02
97 32.2
98 16.1
99 0.86
105 64.6
106 25.8
107 99.99
108 3.94
109 58.4
110 10.8
111 31.1
112 0.34
113 2.9
117 20.2
118 15.2
119 53.2
120 4.88
121 68.5
122 23.9
123 41
124 2.1
125 20.9
126 2.3
127 3.1
128 0.59
129 11.8
130 7.8
131 40.2
132 1.5
133 60.5
134 26.7
135 63.7
136 2.15
137 21.1
138 9.3
139 7.4
140 0.13
141 5.9
142 5.9
143 30.9
144 1.51
145 97.3
146 27.1
147 77.7
148 2.6
149 42.4
150 8.2
151 13.5
152 0.33
153 2.8
154 1.8
155 5
156 0.29
157 22.2
158 28.5
159 68.1
160 4.71
161 71.6
162 19.9
163 56.7
164 1.05
165 26.5
166 8.3
167 2.6
168 0.11
169 3.6
170 2.1
171 21.5
172 1
173 38.5
174 15.7
175 23
176 1.11
177 22.6
178 21.9
179 9.4
180 2
181 1.3
185 21.2
186 10.6
187 24
188 0.81
189 13.8
190 7.8
191 20.8
192 0.57
193 4.3
194 1.3
195 1
196 0.14
197 5.4
198 3.6
199 27.6
200 1.05
201 22.9
202 7.2
203 9.2
204 0.35
205 12.4
206 4.3
207 0.27
209 1.1
213 78.1
214 23.5
215 53.7
216 1.92
217 22.5
218 5
219 10.7
220 0.35
221 7
222 0.2
225 1.8
226 1.5
227 13.7
228 2.02
229 23
230 9.8
231 47.1
232 1.38
233 40.4
234 24.5
235 8.1
236 0.21
237 1
238 1.6
239 3
240 0.16
241 10.4
242 3.6
243 2.9
244 0.19
245 5.4
246 9.3
247 9
248 0.88
249 2.2
253 2.7
254 2.7
255 65.3
256 1.48
257 10
258 2.5
259 4
260 0.27
261 3.6
262 1.3
272 3.4
273 35
274 11.7
275 2.86
276 8.1
277 0.15
281 1.1
285 3
286 1.4
287 4.5
288 1.01
289 7.5
290 7.2
291 0.2
300 1.3
301 4.6
302 15.5
303 6.96
304 16.2
305 2.4
314 2.1
318 1.2
330 14
331 0.26
341 5.5
342 6.7
343 3.4
344 0.34
345 0.13
353 2.7
354 11
355 9.3
356 0.36
357 6.6
358 2
360 2.9
361 0.1
366 1.7
367 1.7
368 4.8
369 0.38
371 3.1
372 0.14
380 2.1
381 61.9
382 19.6
383 1.01
384 3.6
386 1.7
387 1
388 0.1
394 4.4
395 3.5
396 86.1
397 2.87
398 9.6
399 44.3
400 13.4
401 1.13
402 3.3
410 2
412 0.37
413 2.4
414 66.5
415 21.2
416 1.33
417 3.7
418 0.6

>  <PREDICTED SPECTRUM>  (4766) 
29 49
39 51
40 25
41 649
42 137
43 999
44 170
45 112
49 10
50 32
51 88
52 11
53 321
54 111
55 995
56 209
57 891
58 152
59 82
60 48
65 197
66 45
67 719
68 292
69 902
70 314
71 654
72 36
73 23
75 4
77 424
78 157
79 633
80 209
81 831
82 364
83 638
84 250
85 451
86 112
91 706
92 314
93 697
94 328
95 866
96 318
97 546
98 181
99 178
100 17
103 104
104 111
105 715
106 423
107 842
108 402
109 620
110 295
111 401
112 85
113 81
115 167
116 29
117 358
118 221
119 662
120 388
121 614
122 356
123 500
124 358
125 290
126 64
127 67
128 94
129 261
130 180
131 466
132 251
133 652
134 365
135 545
136 262
137 250
138 143
139 99
140 0
141 154
142 162
143 423
144 208
145 663
146 334
147 598
148 288
149 526
150 169
151 345
152 128
155 62
156 40
157 281
158 282
159 572
160 346
161 547
162 268
163 415
164 115
165 119
166 31
167 12
168 11
169 106
171 261
172 140
173 384
174 167
175 277
176 186
177 292
178 192
179 95
183 116
184 43
185 242
186 181
187 353
188 129
189 346
190 205
191 214
192 152
193 19
197 132
198 67
199 288
200 91
201 336
202 193
203 256
204 108
205 130
211 53
212 67
213 621
214 351
215 506
216 224
217 382
218 130
219 182
220 50
227 188
228 207
229 465
230 305
231 539
232 315
233 351
234 100
239 19
241 85
242 66
243 156
244 132
245 224
246 307
247 225
248 53
255 371
256 213
257 221
258 139
259 173
260 125
261 30
269 70
270 33
271 263
272 236
273 434
274 305
275 192
281 163
282 30
283 59
285 291
286 72
287 124
288 151
289 98
290 23
297 48
299 158
300 228
301 295
302 169
303 234
304 30
310 11
311 12
314 96
315 221
316 83
327 14
329 251
330 97
341 69
342 45
353 85
354 116
355 24
357 88
371 115
372 10
381 305
382 64
383 29
384 53
385 73
396 470
397 223
398 48
399 648
400 335
401 115
412 174
413 66
414 791
415 521
416 165

$$$$

     RDKit          2D

 28 31  0  0  1  0  0  0  0  0999 V2000
    9.5655    7.2342    0.0000 C   0  0  0  0  0  0  0  0  0  0  0  0
    7.1046    8.0672    0.0000 C   0  0  0  0  0  0  0  0  0  0  0  0
    3.2009    4.6377    0.0000 C   0  0  0  0  0  0  0  0  0  0  0  0
   -1.6125    0.9400    0.0000 C   0  0  0  0  0  0  0  0  0  0  0  0
    2.4507    3.1203    0.0000 C   0  0  0  0  0  0  0  0  0  0  0  0
    6.1427    5.2256    0.0000 C   0  0  0  0  0  0  0  0  0  0  0  0
    7.6137    5.5195    0.0000 C   0  0  0  0  0  0  0  0  0  0  0  0
    5.6618    3.8047    0.0000 C   0  0  0  0  0  0  0  0  0  0  0  0
   -0.3200   -2.8400    0.0000 C   0  0  0  0  0  0  0  0  0  0  0  0
    1.0100   -2.0900    0.0000 C   0  0  0  0  0  0  0  0  0  0  0  0
    4.5500    0.8800    0.0000 C   0  0  0  0  0  0  0  0  0  0  0  0
    3.7100   -0.3100    0.0000 C   0  0  0  0  0  0  0  0  0  0  0  0
   -4.2000   -0.5600    0.0000 C   0  0  0  0  0  0  0  0  0  0  0  0
   -0.3200    1.6300    0.0000 C   0  0  0  0  0  0  0  0  0  0  0  0
   -2.8900    0.1600    0.0000 C   0  0  0  0  0  0  0  0  0  0  0  0
    1.0100    2.3900    0.0000 C   0  0  0  0  0  0  0  0  0  0  0  0
   -2.8900   -2.8400    0.0000 C   0  0  0  0  0  0  0  0  0  0  0  0
    8.0946    6.9403    0.0000 C   0  0  0  0  0  0  0  0  0  0  0  0
    4.1909    3.5108    0.0000 C   0  0  0  0  0  0  0  0  0  0  0  0
   -1.6200   -2.0900    0.0000 C   0  0  0  0  0  0  0  0  0  0  0  0
   -4.2000   -2.0900    0.0000 C   0  0  0  0  0  0  0  0  0  0  0  0
    1.0100   -0.5600    0.0000 C   0  0  0  0  0  0  0  0  0  0  0  0
    3.7100    2.0900    0.0000 C   0  0  0  0  0  0  0  0  0  0  0  0
    2.2800    0.1600    0.0000 C   0  0  0  0  0  0  0  0  0  0  0  0
   -0.3200    0.1600    0.0000 C   0  0  0  0  0  0  0  0  0  0  0  0
   -1.6200   -0.5600    0.0000 C   0  0  0  0  0  0  0  0  0  0  0  0
    2.2800    1.6300    0.0000 C   0  0  0  0  0  0  0  0  0  0  0  0
   -5.4977   -2.8424    0.0000 O   0  0  0  0  0  0  0  0  0  0  0  0
  7  6  1  0
  8  6  1  0
 10  9  1  0
 12 11  1  0
 15 13  1  0
 16 14  1  0
 18  1  1  0
 18  2  1  0
 18  7  1  0
 19  3  1  6
 19  8  1  0
 20  9  1  1
 20 17  1  0
 21 13  1  0
 21 17  1  0
 22 10  1  6
 23 11  1  1
 23 19  1  0
 24 12  1  1
 24 22  1  0
 25 14  1  1
 25 22  1  0
 26  4  1  1
 26 15  1  0
 26 20  1  0
 26 25  1  0
 27  5  1  1
 27 16  1  0
 27 23  1  0
 27 24  1  0
 21 28  1  1
M  END
>  <NAME>  (4767) 
DIHYDROCHOLESTEROL

>  <SYNONYMS>  (4767) 
CHOLESTANOL

>  <SPECTRUM TYPE>  (4767) 
MS1

>  <INSTRUMENT TYPE>  (4767) 
EI-B

>  <INSTRUMENT>  (4767) 
SHIMADZU LKB-9000B

>  <ION MODE>  (4767) 
P

>  <INCHIKEY>  (4767) 
QYIXCDOBOSTCEI-QCYZZNICSA-N

>  <FORMULA>  (4767) 
C27H48O

>  <EXACT MASS>  (4767) 
388.37051615599995

>  <MW>  (4767) 
388

>  <ID>  (4767) 
JP002694

>  <CONTRIBUTOR>  (4767) 
University of Tokyo Team, {Faculty of Engineering, University of Tokyo

>  <COMMENT>  (4767) 
SMILES=[H]C(C)(CCCC(C)C)C(C1(C)4)([H])CCC1(C(C([H])2CC4)([H])CCC([H])(C3)C2(C)CCC3([H])O)[H]
cas=80-97-7
InChI=InChI=1S/C27H48O/c1-18(2)7-6-8-19(3)23-11-12-24-22-10-9-20-17-21(28)13-15-26(20,4)25(22)14-16-27(23,24)5/h18-25,28H,6-17H2,1-5H3/t19-,20+,21+,22+,23-,24+,25+,26+,27-/m1/s1
computed SMILES=OC1CCC2(C)C(CCC3C4CCC(C(C)CCCC(C)C)C4(C)CCC32)C1
accession=JP002694
date=2016.01.19 (Created 2008.10.21, modified 2011.05.06)
author=HAYASHI A, DEPT. OF CHEMISTRY, FAC. OF SCI. AND TECHNOLOGY, KINKI UNIV.
license=CC BY-NC-SA
exact mass=388.37052
ionization energy=70 eV
ion type=[M]+*
computed spectral entropy=4.111925677618134
computed normalized entropy=0.8447656035045163
SPLASH=splash10-0159-2971000000-c73c47a340a1d4a167e1
submitter=submitter = University of Tokyo Team (Faculty of Engineering, University of Tokyo)
MoNA Rating=3.75

>  <NUM PEAKS>  (4767) 
130

>  <MASS SPECTRAL PEAKS>  (4767) 
55 7.8
56 1.1
57 0.67
69 11.3
70 1.9
71 0.57
77 4.1
78 1.4
79 14.5
80 0.4
81 29
82 7.4
83 12
84 0.14
85 0.19
93 25.2
94 11.5
95 39
96 0.57
97 12.3
98 0.12
105 17.7
106 14.7
107 45.9
108 4.28
109 31.1
110 5.7
111 11.5
112 0.13
117 3.3
118 2.3
119 16.1
120 1.32
121 34
122 23.5
123 26.7
124 1.57
125 6.3
126 1.2
133 16.7
134 13.3
135 25
136 1.31
137 10.6
138 5
139 0.17
145 12
146 4.6
147 30
148 1.5
149 23.4
150 4.6
151 5.2
152 0.31
153 0.11
157 1.2
161 21.2
162 12.4
163 11.1
164 0.47
165 52.3
166 19.2
167 0.43
173 8.6
174 4.9
175 10.2
176 0.73
177 5.8
178 5
179 3.1
189 6.8
190 11
191 7.4
192 0.36
193 0.28
201 14.3
202 4.9
203 8.8
204 0.37
205 3.9
206 5.8
207 2.2
208 0.27
213 2
214 1.5
215 99.99
216 4.11
217 40.7
218 7.2
219 11.5
220 0.35
229 4.1
230 12
231 17.8
232 0.93
233 87.7
234 46.7
235 8.4
236 0.1
243 1.9
247 4.2
248 12.7
249 0.28
256 1
257 22.1
258 5
259 0.17
260 1.3
261 2.1
262 12.7
263 0.47
264 0.14
275 3.9
276 0.19
288 3.4
289 0.2
331 5.5
332 1.6
356 6.7
357 1.2
371 6
372 1.8
373 28.3
374 0.84
375 0.13
387 1.4
388 28.6
389 9
390 0.14
391 0.2

>  <PREDICTED SPECTRUM>  (4767) 
29 6
41 693
42 247
43 862
44 192
45 217
50 7
51 53
53 274
54 117
55 864
56 211
57 688
58 120
59 70
60 4
62 3
63 6
65 144
66 40
67 588
68 307
69 547
70 202
71 396
72 73
73 71
74 79
77 239
78 99
79 572
80 233
81 749
82 378
83 471
84 130
85 105
87 19
91 463
92 157
93 664
94 341
95 765
96 301
97 314
98 56
99 38
101 18
104 65
105 451
106 324
107 713
108 639
109 584
110 256
111 327
112 41
113 79
115 95
117 176
118 88
119 325
120 215
121 568
122 468
123 440
124 264
125 157
126 39
127 35
129 7
131 118
132 49
133 370
134 207
135 501
136 311
137 229
138 226
139 170
140 66
141 17
143 20
144 51
145 329
146 165
147 420
148 284
149 422
150 149
151 169
152 125
159 268
160 202
161 416
162 298
163 272
164 155
165 636
166 269
167 127
173 194
174 176
175 340
176 217
177 231
178 143
179 152
187 155
188 137
189 124
190 148
191 200
192 149
199 2
201 322
202 129
203 124
204 150
205 227
206 133
215 999
216 658
217 549
218 266
219 357
220 165
229 72
230 324
231 285
232 62
233 887
234 773
235 322
241 1
247 48
248 494
249 158
257 330
260 0
261 68
262 305
263 214
275 128
276 9
288 74
317 6
331 152
332 19
355 374
356 219
370 358
371 206
372 109
373 514
374 274
386 13
388 996
389 475
390 157

$$$$

     RDKit          2D

 28 31  0  0  1  0  0  0  0  0999 V2000
    9.5655    7.2342    0.0000 C   0  0  0  0  0  0  0  0  0  0  0  0
    7.1046    8.0672    0.0000 C   0  0  0  0  0  0  0  0  0  0  0  0
    3.2009    4.6377    0.0000 C   0  0  0  0  0  0  0  0  0  0  0  0
   -1.6125    0.9400    0.0000 C   0  0  0  0  0  0  0  0  0  0  0  0
    2.4507    3.1203    0.0000 C   0  0  0  0  0  0  0  0  0  0  0  0
    6.1427    5.2256    0.0000 C   0  0  0  0  0  0  0  0  0  0  0  0
    7.6137    5.5195    0.0000 C   0  0  0  0  0  0  0  0  0  0  0  0
    5.6618    3.8047    0.0000 C   0  0  0  0  0  0  0  0  0  0  0  0
   -0.3200   -2.8400    0.0000 C   0  0  0  0  0  0  0  0  0  0  0  0
    1.0100   -2.0900    0.0000 C   0  0  0  0  0  0  0  0  0  0  0  0
    4.5500    0.8800    0.0000 C   0  0  0  0  0  0  0  0  0  0  0  0
    3.7100   -0.3100    0.0000 C   0  0  0  0  0  0  0  0  0  0  0  0
   -4.2000   -0.5600    0.0000 C   0  0  0  0  0  0  0  0  0  0  0  0
   -0.3200    1.6300    0.0000 C   0  0  0  0  0  0  0  0  0  0  0  0
   -2.8900    0.1600    0.0000 C   0  0  0  0  0  0  0  0  0  0  0  0
    1.0100    2.3900    0.0000 C   0  0  0  0  0  0  0  0  0  0  0  0
   -2.8900   -2.8400    0.0000 C   0  0  0  0  0  0  0  0  0  0  0  0
    8.0946    6.9403    0.0000 C   0  0  0  0  0  0  0  0  0  0  0  0
    4.1909    3.5108    0.0000 C   0  0  0  0  0  0  0  0  0  0  0  0
   -1.6200   -2.0900    0.0000 C   0  0  0  0  0  0  0  0  0  0  0  0
   -4.2000   -2.0900    0.0000 C   0  0  0  0  0  0  0  0  0  0  0  0
    1.0100   -0.5600    0.0000 C   0  0  0  0  0  0  0  0  0  0  0  0
    3.7100    2.0900    0.0000 C   0  0  0  0  0  0  0  0  0  0  0  0
    2.2800    0.1600    0.0000 C   0  0  0  0  0  0  0  0  0  0  0  0
   -0.3200    0.1600    0.0000 C   0  0  0  0  0  0  0  0  0  0  0  0
   -1.6200   -0.5600    0.0000 C   0  0  0  0  0  0  0  0  0  0  0  0
    2.2800    1.6300    0.0000 C   0  0  0  0  0  0  0  0  0  0  0  0
   -5.4977   -2.8424    0.0000 O   0  0  0  0  0  0  0  0  0  0  0  0
  7  6  1  0
  8  6  1  0
 10  9  1  0
 12 11  1  0
 15 13  1  0
 16 14  1  0
 18  1  1  0
 18  2  1  0
 18  7  1  0
 19  3  1  6
 19  8  1  0
 20  9  2  0
 20 17  1  0
 21 13  1  0
 21 17  1  0
 22 10  1  6
 23 11  1  1
 23 19  1  0
 24 12  1  1
 24 22  1  0
 25 14  1  1
 25 22  1  0
 26  4  1  1
 26 15  1  0
 26 20  1  0
 26 25  1  0
 27  5  1  1
 27 16  1  0
 27 23  1  0
 27 24  1  0
 21 28  1  1
M  END
>  <NAME>  (4768) 
CHOLESTEROL

>  <SYNONYMS>  (4768) 


>  <SPECTRUM TYPE>  (4768) 
MS1

>  <INSTRUMENT TYPE>  (4768) 
EI-B

>  <INSTRUMENT>  (4768) 
SHIMADZU LKB-9000B

>  <ION MODE>  (4768) 
P

>  <INCHIKEY>  (4768) 
HVYWMOMLDIMFJA-DPAQBDIFSA-N

>  <FORMULA>  (4768) 
C27H46O

>  <EXACT MASS>  (4768) 
386.35486609199995

>  <MW>  (4768) 
386

>  <ID>  (4768) 
JP002693

>  <CONTRIBUTOR>  (4768) 
University of Tokyo Team, {Faculty of Engineering, University of Tokyo

>  <COMMENT>  (4768) 
SMILES=C(C2([H])3)([H])(C(C)(C4)C(CC(C4)([H])O)=CC3)CCC(C2([H])1)(C)C([H])(CC1)C(CCCC(C)C)([H])C
cas=57-88-5
InChI=InChI=1S/C27H46O/c1-18(2)7-6-8-19(3)23-11-12-24-22-10-9-20-17-21(28)13-15-26(20,4)25(22)14-16-27(23,24)5/h9,18-19,21-25,28H,6-8,10-17H2,1-5H3/t19-,21+,22+,23-,24+,25+,26+,27-/m1/s1
computed SMILES=OC1CC2=CCC3C(CCC4(C)C(CCC34)C(C)CCCC(C)C)C2(C)CC1
accession=JP002693
date=2016.01.19 (Created 2008.10.21, modified 2011.05.06)
author=HAYASHI A, DEPT. OF CHEMISTRY, FAC. OF SCI. AND TECHNOLOGY, KINKI UNIV.
license=CC BY-NC-SA
exact mass=386.35487
ionization energy=70 eV
ion type=[M]+*
computed spectral entropy=4.849229727957133
computed normalized entropy=0.8744949600818867
SPLASH=splash10-052b-2932000000-1667c83d002043a59fff
submitter=submitter = University of Tokyo Team (Faculty of Engineering, University of Tokyo)
MoNA Rating=3.75

>  <NUM PEAKS>  (4768) 
256

>  <MASS SPECTRAL PEAKS>  (4768) 
41 2.5
43 6.3
53 2.2
55 18.5
56 2.8
57 19.4
65 3.9
67 2.2
68 4.1
69 23.5
70 3.3
71 1.65
73 2.3
75 2.5
77 10.9
78 0.38
79 30.9
80 5.2
81 59.6
82 0.9
83 15.1
84 3.3
85 1.1
87 0.23
91 46.2
92 12.2
93 47.9
94 1.44
95 68
96 7.9
97 20.1
98 0.27
99 2.5
103 4.8
104 6.9
105 5.86
106 23.4
107 78.8
108 25
109 4.75
110 8.5
111 15.1
112 2.4
113 0.3
115 9.9
116 5.3
117 27.2
118 1.65
119 50.6
120 45.2
121 57.4
122 1.69
123 25.6
124 14.6
125 11.8
127 0.5
128 10.9
129 18.2
130 11.5
131 4.55
132 15.2
133 57.3
134 20.5
135 5.82
136 18
137 13.9
138 5.8
139 0.41
141 13.7
142 12.9
143 41.1
144 1.95
145 99.99
146 31.4
147 71.3
148 2.36
149 36
150 4.5
151 12.3
152 0.59
153 6
154 4
155 12.6
156 0.89
157 27.5
158 31.9
159 66.8
160 4.59
161 59.1
162 17.5
163 40.4
164 0.78
165 10.5
166 3.9
167 4.4
168 0.29
169 6.8
170 5.5
171 20
172 1.1
173 32.5
174 17
175 18.9
176 0.87
177 15
178 13.3
179 10
180 0.29
181 5.1
182 2
183 7.1
184 0.35
185 19.8
186 9.1
187 20.7
188 0.67
189 11
190 4.4
191 13
192 0.54
193 12.7
194 4.3
195 6.5
196 4.5
197 10.8
198 5.5
199 22.5
200 1.27
201 18.8
202 6.7
203 6.5
204 0.28
205 12.6
206 11.2
207 6.7
208 0.3
209 5.6
210 3
211 12.1
212 0.54
213 65.9
214 21
215 17.4
216 0.55
217 7.9
218 4.9
219 11.2
220 0.54
221 4
223 3
224 2.1
225 0.45
226 4.2
227 15.6
228 17.6
229 2.1
230 6.1
231 28
232 9.6
233 0.62
234 3.6
235 3
237 2.1
239 0.52
240 3.4
241 7.6
242 4
243 0.42
244 3.5
245 10.7
246 14.4
247 6
248 15.4
249 4.2
251 6
252 0.3
253 9.1
254 5.8
255 66.2
256 1.65
257 6.6
258 3.3
259 8.4
260 1.96
261 11.4
262 3.7
267 3.2
269 0.56
270 3.2
271 8.8
272 3.7
273 2.04
274 17.4
275 58.2
276 15.7
277 0.29
281 2
283 7.3
284 3.2
285 0.33
286 2.5
287 4
288 3.2
297 0.28
298 2
299 3.4
300 5.2
301 3.65
302 9.6
303 2
311 3.5
312 0.29
313 6.4
314 9.4
315 7.2
316 0.15
317 1.7
325 2.9
326 10.3
327 0.78
328 4.1
329 5.7
330 2.1
336 0.19
338 2.7
339 4.5
340 3.7
341 0.26
342 3.5
343 2.3
349 2.3
350 0.26
351 7.5
352 4.8
353 64
354 1.94
355 5.5
356 2.6
362 2.8
364 0.61
365 3.4
366 15.1
367 8.5
368 99
369 33
370 7.5
371 28.5
372 0.9
373 3
377 1.9
382 5
384 0.7
385 4.3
386 43.1
387 14.4
388 3.3

>  <PREDICTED SPECTRUM>  (4768) 
26 11
27 64
28 7
29 119
39 90
40 23
41 749
42 185
43 991
44 172
45 155
49 59
50 22
51 67
53 321
54 86
55 919
56 241
57 825
58 232
59 117
60 50
61 22
63 43
65 161
66 50
67 624
68 253
69 686
70 247
71 510
72 101
73 161
74 49
75 59
76 8
77 346
78 128
79 623
80 197
81 763
82 303
83 534
84 225
85 279
86 63
87 46
89 22
91 603
92 280
93 669
94 318
95 785
96 269
97 377
98 165
99 172
100 25
101 32
103 128
104 112
105 653
106 331
107 736
108 407
109 544
110 192
111 277
112 105
113 133
114 52
115 211
116 137
117 378
118 205
119 526
120 331
121 551
122 322
123 428
124 308
125 344
126 141
127 133
128 158
129 215
130 164
131 422
132 218
133 545
134 333
135 507
136 236
137 210
138 178
139 141
140 52
141 188
142 170
143 393
144 203
145 508
146 229
147 449
148 246
149 434
150 157
151 282
152 264
153 140
154 82
155 183
156 93
157 271
158 247
159 462
160 295
161 529
162 239
163 328
164 196
165 201
166 104
167 110
168 41
169 86
170 36
171 266
172 175
173 323
174 177
175 271
176 174
177 270
178 152
179 143
180 74
181 67
183 145
184 14
185 205
186 102
187 282
188 171
189 209
190 89
191 183
192 57
193 141
195 81
197 178
198 81
199 271
200 116
201 261
202 152
203 220
204 145
205 244
206 162
207 154
209 39
211 91
212 71
213 441
214 263
215 345
216 165
217 226
218 160
219 217
220 102
225 60
226 4
227 183
228 211
229 332
230 182
231 434
232 322
233 215
234 74
237 27
238 32
239 158
241 130
242 59
243 68
244 62
245 162
246 283
247 439
248 224
249 75
250 16
253 12
254 62
255 386
256 189
257 259
258 144
259 174
260 229
261 196
262 130
263 14
271 37
272 96
273 463
274 425
275 338
276 126
281 17
283 56
284 7
285 54
286 43
287 165
288 50
297 41
298 5
299 106
300 124
301 426
302 178
303 11
311 41
312 13
313 105
314 171
315 190
316 188
317 101
318 6
326 85
327 141
328 155
329 158
330 91
331 28
334 0
339 49
341 13
342 69
343 96
344 28
351 15
353 273
354 182
355 145
357 48
358 5
368 530
369 327
370 194
371 378
372 244
373 150
374 10
384 135
385 100
386 999
387 537
388 253
389 34

$$$$

     RDKit          2D

 32 31  0  0  0  0  0  0  0  0999 V2000
    7.7942   14.2500    0.0000 C   0  0  0  0  0  0  0  0  0  0  0  0
  -21.3336   16.2990    0.0000 C   0  0  0  0  0  0  0  0  0  0  0  0
  -23.3827   15.7500    0.0000 C   0  0  0  0  0  0  0  0  0  0  0  0
  -22.8336   13.7010    0.0000 C   0  0  0  0  0  0  0  0  0  0  0  0
  -20.2356   13.2990    0.0000 C   0  0  0  0  0  0  0  0  0  0  0  0
  -20.7846   11.2500    0.0000 C   0  0  0  0  0  0  0  0  0  0  0  0
  -18.7356   10.7010    0.0000 C   0  0  0  0  0  0  0  0  0  0  0  0
    6.4952   15.0000    0.0000 C   0  0  0  0  0  0  0  0  0  0  0  0
    5.1962   14.2500    0.0000 C   0  0  0  0  0  0  0  0  0  0  0  0
    3.8971   15.0000    0.0000 C   0  0  0  0  0  0  0  0  0  0  0  0
    2.5981   14.2500    0.0000 C   0  0  0  0  0  0  0  0  0  0  0  0
    1.2990   15.0000    0.0000 C   0  0  0  0  0  0  0  0  0  0  0  0
    0.0000   14.2500    0.0000 C   0  0  0  0  0  0  0  0  0  0  0  0
   -1.2990   15.0000    0.0000 C   0  0  0  0  0  0  0  0  0  0  0  0
   -2.5981   14.2500    0.0000 C   0  0  0  0  0  0  0  0  0  0  0  0
   -3.8971   15.0000    0.0000 C   0  0  0  0  0  0  0  0  0  0  0  0
   -5.1962   14.2500    0.0000 C   0  0  0  0  0  0  0  0  0  0  0  0
   -6.4952   15.0000    0.0000 C   0  0  0  0  0  0  0  0  0  0  0  0
   -7.7942   14.2500    0.0000 C   0  0  0  0  0  0  0  0  0  0  0  0
   -9.0933   15.0000    0.0000 C   0  0  0  0  0  0  0  0  0  0  0  0
  -10.3923   14.2500    0.0000 C   0  0  0  0  0  0  0  0  0  0  0  0
  -11.6913   15.0000    0.0000 C   0  0  0  0  0  0  0  0  0  0  0  0
  -12.9904   14.2500    0.0000 C   0  0  0  0  0  0  0  0  0  0  0  0
  -14.2894   15.0000    0.0000 C   0  0  0  0  0  0  0  0  0  0  0  0
  -16.8875   15.0000    0.0000 C   0  0  0  0  0  0  0  0  0  0  0  0
  -19.4856   15.0000    0.0000 C   0  0  0  0  0  0  0  0  0  0  0  0
  -18.1865   14.2500    0.0000 C   0  0  0  0  0  0  0  0  0  0  0  0
  -15.5885   14.2500    0.0000 O   0  0  0  0  0  0  0  0  0  0  0  0
  -20.7846   14.2500    0.0000 O   0  0  0  0  0  0  0  0  0  0  0  0
  -18.1865   12.7500    0.0000 O   0  0  0  0  0  0  0  0  0  0  0  0
  -22.0836   15.0000    0.0000 Si  0  0  0  0  0  4  0  0  0  0  0  0
  -19.4856   12.0000    0.0000 Si  0  0  0  0  0  4  0  0  0  0  0  0
  8  1  1  0
  9  8  1  0
 10  9  1  0
 11 10  1  0
 12 11  1  0
 13 12  1  0
 14 13  1  0
 15 14  1  0
 16 15  1  0
 17 16  1  0
 18 17  1  0
 19 18  1  0
 20 19  1  0
 21 20  1  0
 22 21  1  0
 23 22  1  0
 24 23  1  0
 27 25  1  0
 27 26  1  0
 28 24  1  0
 28 25  1  0
 29 26  1  0
 30 27  1  0
 31  2  1  0
 31  3  1  0
 31  4  1  0
 31 29  1  0
 32  5  1  0
 32  6  1  0
 32  7  1  0
 32 30  1  0
M  END
>  <NAME>  (4769) 
1-OCTADECYL-2,3-DI-TRIMETHYLSILYL GLYCEROL

>  <SYNONYMS>  (4769) 


>  <SPECTRUM TYPE>  (4769) 
MS1

>  <INSTRUMENT TYPE>  (4769) 
EI-B

>  <INSTRUMENT>  (4769) 
SHIMADZU LKB-9000B

>  <ION MODE>  (4769) 
P

>  <INCHIKEY>  (4769) 
YGPFXYRLWXBLIE-UHFFFAOYSA-N

>  <FORMULA>  (4769) 
C27H60O3Si2

>  <EXACT MASS>  (4769) 
488.40809884

>  <MW>  (4769) 
488

>  <ID>  (4769) 
JP002691

>  <CONTRIBUTOR>  (4769) 
University of Tokyo Team, {Faculty of Engineering, University of Tokyo

>  <COMMENT>  (4769) 
SMILES=CCCCCCCCCCCCCCCCCCOCC(CO[Si](C)(C)C)O[Si](C)(C)C
InChI=InChI=1S/C27H60O3Si2/c1-8-9-10-11-12-13-14-15-16-17-18-19-20-21-22-23-24-28-25-27(30-32(5,6)7)26-29-31(2,3)4/h27H,8-26H2,1-7H3
computed SMILES=O(CCCCCCCCCCCCCCCCCC)CC(O[Si](C)(C)C)CO[Si](C)(C)C
accession=JP002691
date=2016.01.19 (Created 2008.10.21, modified 2011.05.06)
author=HAYASHI A, DEPT. OF CHEMISTRY, FAC. OF SCI. AND TECHNOLOGY, KINKI UNIV.
license=CC BY-NC-SA
exact mass=488.4081
ionization energy=70 eV
ion type=[M]+*
computed spectral entropy=3.189840851436748
computed normalized entropy=0.870693920165542
SPLASH=splash10-001i-4910000000-cb6f24042cda1cc94bdb
submitter=submitter = University of Tokyo Team (Faculty of Engineering, University of Tokyo)
MoNA Rating=3.75

>  <NUM PEAKS>  (4769) 
39

>  <MASS SPECTRAL PEAKS>  (4769) 
67 1.1
71 6.1
73 12.3
74 1.3
75 0.45
83 4.8
84 1.4
85 6.4
89 0.12
98 1.2
99 3
101 3.6
103 0.95
104 1
105 0.19
109 1.2
113 2.2
115 2.9
116 6.5
117 2.49
118 2.9
119 0.26
125 1.5
130 16.7
131 14.8
132 3.7
133 2.7
134 3.2
135 1.8
145 2.1
149 0.51
177 2.8
207 9
221 1.5
308 1.1
342 1.4
398 1.7
473 3.1
474 1.1

>  <PREDICTED SPECTRUM>  (4769) 
26 15
27 23
39 29
40 19
41 129
42 62
43 184
44 37
45 89
47 19
54 49
55 206
56 92
57 412
58 119
59 203
61 0
66 19
67 42
68 86
69 273
70 79
71 325
72 70
73 567
74 154
75 286
76 36
77 73
79 23
80 2
81 100
82 38
83 274
84 68
85 234
86 37
87 21
89 142
91 147
95 96
96 35
97 274
98 44
99 147
100 3
101 248
102 18
103 360
104 73
105 108
106 30
107 16
108 9
109 61
111 222
112 75
113 210
114 25
115 195
116 245
117 520
118 114
119 169
121 22
123 111
124 6
125 107
129 235
130 294
131 370
132 114
133 386
134 132
135 140
137 26
141 16
145 93
146 87
147 705
148 271
149 270
150 77
151 60
152 5
153 23
154 9
155 59
157 32
159 43
160 7
161 7
162 7
163 111
165 27
167 54
173 47
175 123
176 18
177 197
179 10
180 25
181 42
189 97
190 74
191 139
193 29
201 34
203 26
204 350
205 999
206 449
207 318
208 79
217 16
219 59
221 201
222 7
233 16
237 54
239 35
251 4
252 92
253 158
254 11
295 28
297 13
308 12
327 39
340 40
341 210
342 147
343 54
382 52
383 95
384 244
385 295
386 115
387 40
397 105
398 174
472 38
473 182
474 86
475 22
489 24

$$$$

     RDKit          2D

 28 27  0  0  0  0  0  0  0  0999 V2000
  -22.4084   11.8125    0.0000 C   0  0  0  0  0  0  0  0  0  0  0  0
    6.1704   11.8125    0.0000 C   0  0  0  0  0  0  0  0  0  0  0  0
    3.5724   13.3125    0.0000 C   0  0  0  0  0  0  0  0  0  0  0  0
  -21.1094   11.0625    0.0000 C   0  0  0  0  0  0  0  0  0  0  0  0
  -19.8103   11.8125    0.0000 C   0  0  0  0  0  0  0  0  0  0  0  0
  -18.5113   11.0625    0.0000 C   0  0  0  0  0  0  0  0  0  0  0  0
  -17.2123   11.8125    0.0000 C   0  0  0  0  0  0  0  0  0  0  0  0
  -15.9132   11.0625    0.0000 C   0  0  0  0  0  0  0  0  0  0  0  0
  -14.6142   11.8125    0.0000 C   0  0  0  0  0  0  0  0  0  0  0  0
  -13.3151   11.0625    0.0000 C   0  0  0  0  0  0  0  0  0  0  0  0
  -12.0161   11.8125    0.0000 C   0  0  0  0  0  0  0  0  0  0  0  0
  -10.7171   11.0625    0.0000 C   0  0  0  0  0  0  0  0  0  0  0  0
   -9.4180   11.8125    0.0000 C   0  0  0  0  0  0  0  0  0  0  0  0
   -8.1190   11.0625    0.0000 C   0  0  0  0  0  0  0  0  0  0  0  0
   -6.8200   11.8125    0.0000 C   0  0  0  0  0  0  0  0  0  0  0  0
   -5.5209   11.0625    0.0000 C   0  0  0  0  0  0  0  0  0  0  0  0
   -4.2219   11.8125    0.0000 C   0  0  0  0  0  0  0  0  0  0  0  0
   -2.9228   11.0625    0.0000 C   0  0  0  0  0  0  0  0  0  0  0  0
   -0.3248   11.0625    0.0000 C   0  0  0  0  0  0  0  0  0  0  0  0
    2.2733   11.0625    0.0000 C   0  0  0  0  0  0  0  0  0  0  0  0
    4.8714   11.0625    0.0000 C   0  0  0  0  0  0  0  0  0  0  0  0
    2.2733   14.0625    0.0000 C   0  0  0  0  0  0  0  0  0  0  0  0
    0.9743   11.8125    0.0000 C   0  0  0  0  0  0  0  0  0  0  0  0
    4.8714    9.5625    0.0000 O   0  0  0  0  0  0  0  0  0  0  0  0
    2.2733   15.5625    0.0000 O   0  0  0  0  0  0  0  0  0  0  0  0
   -1.6238   11.8125    0.0000 O   0  0  0  0  0  0  0  0  0  0  0  0
    3.5724   11.8125    0.0000 O   0  0  0  0  0  0  0  0  0  0  0  0
    0.9743   13.3125    0.0000 O   0  0  0  0  0  0  0  0  0  0  0  0
  4  1  1  0
  5  4  1  0
  6  5  1  0
  7  6  1  0
  8  7  1  0
  9  8  1  0
 10  9  1  0
 11 10  1  0
 12 11  1  0
 13 12  1  0
 14 13  1  0
 15 14  1  0
 16 15  1  0
 17 16  1  0
 18 17  1  0
 21  2  1  0
 22  3  1  0
 23 19  1  0
 23 20  1  0
 24 21  2  0
 25 22  2  0
 26 18  1  0
 26 19  1  0
 27 20  1  0
 27 21  1  0
 28 22  1  0
 28 23  1  0
M  END
>  <NAME>  (4770) 
1-HEXADECYL-2,3-DI-O-ACETHYL GLYCEROL

>  <SYNONYMS>  (4770) 


>  <SPECTRUM TYPE>  (4770) 
MS1

>  <INSTRUMENT TYPE>  (4770) 
EI-B

>  <INSTRUMENT>  (4770) 
SHIMADZU LKB-9000B

>  <ION MODE>  (4770) 
P

>  <INCHIKEY>  (4770) 
RNBQLCHIPDBXCF-UHFFFAOYSA-N

>  <FORMULA>  (4770) 
C23H44O5

>  <EXACT MASS>  (4770) 
400.318874508

>  <MW>  (4770) 
400

>  <ID>  (4770) 
JP002684

>  <CONTRIBUTOR>  (4770) 
University of Tokyo Team, {Faculty of Engineering, University of Tokyo

>  <COMMENT>  (4770) 
SMILES=CCCCCCCCCCCCCCCCOCC(COC(C)=O)OC(C)=O
InChI=InChI=1S/C23H44O5/c1-4-5-6-7-8-9-10-11-12-13-14-15-16-17-18-26-19-23(28-22(3)25)20-27-21(2)24/h23H,4-20H2,1-3H3
computed SMILES=O=C(OCC(OC(=O)C)COCCCCCCCCCCCCCCCC)C
accession=JP002684
date=2016.01.19 (Created 2008.10.21, modified 2011.05.06)
author=HAYASHI A, DEPT. OF CHEMISTRY, FAC. OF SCI. AND TECHNOLOGY, KINKI UNIV.
license=CC BY-NC-SA
exact mass=400.31887
ionization energy=70 eV
ion type=[M]+*
computed spectral entropy=4.252465384049349
computed normalized entropy=0.829917111272237
SPLASH=splash10-06ds-8930000000-30ec6d48ef519d717a4d
submitter=submitter = University of Tokyo Team (Faculty of Engineering, University of Tokyo)
MoNA Rating=3.75

>  <NUM PEAKS>  (4770) 
168

>  <MASS SPECTRAL PEAKS>  (4770) 
41 1.4
43 17.3
44 1.6
54 2.9
55 26.1
56 11.6
57 60.7
58 0.73
59 1.6
60 3.4
61 7.2
66 0.13
67 11.6
68 10.4
69 45.4
70 1.41
71 75.9
72 5.8
73 40
74 0.56
75 4.2
77 3.9
79 3.3
80 0.31
81 21
82 30.6
83 57.9
84 1.53
85 82.5
86 20.1
87 3.9
91 0.17
93 2.7
94 5
95 27
96 3.41
97 64.9
98 18.8
99 45.4
100 7.22
101 25.9
102 3.3
103 52.4
104 0.32
105 2.9
107 3.2
108 4.5
109 1.83
110 19.6
111 41.3
112 25.7
113 2.83
114 3.7
115 11.3
116 32.3
117 99.99
118 5.6
119 6.9
120 1.5
121 0.58
122 4.4
123 16.4
124 17
125 3.32
126 10.5
127 23.1
128 2.9
129 0.45
130 1.5
133 4.1
135 9.8
136 0.38
137 12.4
138 13.2
139 13.6
140 0.54
141 20.3
142 2.8
143 1.2
144 0.11
145 20.3
146 1.9
147 4.6
149 1.28
150 2.4
151 7.4
152 8.5
153 0.95
154 3.8
155 15.3
156 2.1
157 0.14
158 2
159 71.9
160 5.9
161 0.15
163 3.3
165 6.7
166 6.4
167 0.91
168 3.3
169 10.3
170 2
171 0.18
177 5.6
178 1.4
179 6
180 0.38
181 4.2
182 2.3
183 5.8
184 0.19
185 3
186 1.3
189 2.8
191 0.53
192 1.3
193 5.7
194 5.2
195 0.42
196 3.6
199 1.5
205 1.9
206 0.19
207 37.6
208 9.5
209 8.3
210 0.24
213 1.7
219 2.2
220 1.9
221 0.23
222 9.4
223 8.2
224 5
225 2.27
226 3.9
227 2.3
233 2.1
237 0.47
238 2.3
239 1.6
241 1.3
251 1
252 5.4
253 16.9
254 3.4
255 6.06
256 12
257 1.1
267 3.1
269 0.16
280 14.4
281 10.7
282 2.7
283 0.25
285 6.9
286 1.7
297 75.8
298 1.92
299 2.7
327 2.5
338 1.6
339 0.21
341 3.4
342 1.1
355 1.4
357 0.7

>  <PREDICTED SPECTRUM>  (4770) 
15 18
17 12
18 16
25 4
26 54
27 164
28 106
29 211
30 36
31 102
32 28
36 3
38 22
39 127
40 68
41 437
42 262
43 999
44 205
45 177
46 0
49 35
50 20
51 81
52 62
53 186
54 256
55 576
56 348
57 656
58 323
59 136
60 132
61 250
62 41
63 46
65 96
66 109
67 291
68 285
69 534
70 298
71 492
72 166
73 382
74 104
75 118
76 37
77 121
78 63
79 153
80 119
81 285
82 413
83 518
84 340
85 380
86 184
87 103
88 110
89 107
90 81
91 207
92 33
93 138
94 108
95 291
96 260
97 528
98 362
99 374
100 410
101 280
102 142
103 257
104 57
105 57
106 67
107 161
108 141
109 181
110 137
111 473
112 235
113 295
114 49
115 234
116 206
117 382
118 97
119 104
120 74
121 158
122 106
123 181
124 185
125 337
126 244
127 137
128 90
129 58
130 42
131 86
132 36
133 97
134 96
135 155
136 98
137 91
138 80
139 137
140 137
141 89
142 20
143 71
144 71
145 117
146 45
147 85
148 96
149 148
150 67
151 134
152 157
153 202
154 93
155 78
156 42
157 85
158 76
159 399
160 29
161 20
162 6
163 80
164 90
165 123
166 109
167 89
168 100
169 47
170 57
171 118
172 50
175 18
176 69
177 114
178 112
179 21
180 37
181 154
182 109
183 103
184 15
185 31
186 18
187 49
191 35
192 19
193 103
194 89
195 121
196 91
197 74
198 42
199 93
200 61
204 52
205 42
206 23
209 53
210 61
211 123
212 68
213 80
214 64
220 30
222 61
223 117
224 143
225 401
226 169
227 69
228 31
235 43
236 70
237 65
238 67
239 93
240 39
241 128
242 84
247 15
248 19
249 30
250 38
251 63
252 162
253 121
254 128
255 229
256 125
265 44
266 16
267 129
268 40
269 81
270 13
271 6
279 59
280 180
281 116
282 17
283 145
284 39
285 116
295 29
296 48
297 262
298 177
299 106
308 5
309 26
310 27
311 59
312 56
313 0
325 90
326 65
327 140
328 99
340 165
341 106
342 88
343 40
400 43
401 28
405 13

$$$$

     RDKit          2D

 26 25  0  0  0  0  0  0  0  0999 V2000
  -20.4599   10.6875    0.0000 C   0  0  0  0  0  0  0  0  0  0  0  0
    5.5209   10.6875    0.0000 C   0  0  0  0  0  0  0  0  0  0  0  0
    2.9228   12.1875    0.0000 C   0  0  0  0  0  0  0  0  0  0  0  0
  -19.1608    9.9375    0.0000 C   0  0  0  0  0  0  0  0  0  0  0  0
  -17.8618   10.6875    0.0000 C   0  0  0  0  0  0  0  0  0  0  0  0
  -16.5627    9.9375    0.0000 C   0  0  0  0  0  0  0  0  0  0  0  0
  -15.2637   10.6875    0.0000 C   0  0  0  0  0  0  0  0  0  0  0  0
  -13.9647    9.9375    0.0000 C   0  0  0  0  0  0  0  0  0  0  0  0
  -12.6656   10.6875    0.0000 C   0  0  0  0  0  0  0  0  0  0  0  0
  -11.3666    9.9375    0.0000 C   0  0  0  0  0  0  0  0  0  0  0  0
  -10.0675   10.6875    0.0000 C   0  0  0  0  0  0  0  0  0  0  0  0
   -8.7685    9.9375    0.0000 C   0  0  0  0  0  0  0  0  0  0  0  0
   -7.4695   10.6875    0.0000 C   0  0  0  0  0  0  0  0  0  0  0  0
   -6.1704    9.9375    0.0000 C   0  0  0  0  0  0  0  0  0  0  0  0
   -4.8714   10.6875    0.0000 C   0  0  0  0  0  0  0  0  0  0  0  0
   -3.5724    9.9375    0.0000 C   0  0  0  0  0  0  0  0  0  0  0  0
   -0.9743    9.9375    0.0000 C   0  0  0  0  0  0  0  0  0  0  0  0
    1.6238    9.9375    0.0000 C   0  0  0  0  0  0  0  0  0  0  0  0
    4.2219    9.9375    0.0000 C   0  0  0  0  0  0  0  0  0  0  0  0
    1.6238   12.9375    0.0000 C   0  0  0  0  0  0  0  0  0  0  0  0
    0.3248   10.6875    0.0000 C   0  0  0  0  0  0  0  0  0  0  0  0
    4.2219    8.4375    0.0000 O   0  0  0  0  0  0  0  0  0  0  0  0
    1.6238   14.4375    0.0000 O   0  0  0  0  0  0  0  0  0  0  0  0
   -2.2733   10.6875    0.0000 O   0  0  0  0  0  0  0  0  0  0  0  0
    2.9228   10.6875    0.0000 O   0  0  0  0  0  0  0  0  0  0  0  0
    0.3248   12.1875    0.0000 O   0  0  0  0  0  0  0  0  0  0  0  0
  4  1  1  0
  5  4  1  0
  6  5  1  0
  7  6  1  0
  8  7  1  0
  9  8  1  0
 10  9  1  0
 11 10  1  0
 12 11  1  0
 13 12  1  0
 14 13  1  0
 15 14  1  0
 16 15  1  0
 19  2  1  0
 20  3  1  0
 21 17  1  0
 21 18  1  0
 22 19  2  0
 23 20  2  0
 24 16  1  0
 24 17  1  0
 25 18  1  0
 25 19  1  0
 26 20  1  0
 26 21  1  0
M  END
>  <NAME>  (4771) 
1-TETRADECYL-2,3-DI-O-ACETHYL GLYCEROL

>  <SYNONYMS>  (4771) 


>  <SPECTRUM TYPE>  (4771) 
MS1

>  <INSTRUMENT TYPE>  (4771) 
EI-B

>  <INSTRUMENT>  (4771) 
SHIMADZU LKB-9000B

>  <ION MODE>  (4771) 
P

>  <INCHIKEY>  (4771) 
UYEQSZIEGZNHSU-UHFFFAOYSA-N

>  <FORMULA>  (4771) 
C21H40O5

>  <EXACT MASS>  (4771) 
372.28757437999997

>  <MW>  (4771) 
372

>  <ID>  (4771) 
JP002682

>  <CONTRIBUTOR>  (4771) 
University of Tokyo Team, {Faculty of Engineering, University of Tokyo

>  <COMMENT>  (4771) 
SMILES=CCCCCCCCCCCCCCOCC(COC(C)=O)OC(C)=O
InChI=InChI=1S/C21H40O5/c1-4-5-6-7-8-9-10-11-12-13-14-15-16-24-17-21(26-20(3)23)18-25-19(2)22/h21H,4-18H2,1-3H3
computed SMILES=O=C(OCC(OC(=O)C)COCCCCCCCCCCCCCC)C
accession=JP002682
date=2016.01.19 (Created 2008.10.21, modified 2011.05.06)
author=HAYASHI A, DEPT. OF CHEMISTRY, FAC. OF SCI. AND TECHNOLOGY, KINKI UNIV.
license=CC BY-NC-SA
exact mass=372.28757
ionization energy=70 eV
ion type=[M]+*
computed spectral entropy=4.124217984684242
computed normalized entropy=0.8177414929486456
SPLASH=splash10-014i-6930000000-624d22582a5e1199334e
submitter=submitter = University of Tokyo Team (Faculty of Engineering, University of Tokyo)
MoNA Rating=3.75

>  <NUM PEAKS>  (4771) 
155

>  <MASS SPECTRAL PEAKS>  (4771) 
41 2.5
43 21
44 1.5
45 1.5
54 2.1
55 25.2
56 11.8
57 6.86
58 7.3
59 1.2
60 3.3
61 0.83
66 1
67 10
68 10.2
69 4.54
70 17.7
71 87.3
72 5.9
73 4.7
74 6.1
75 4.4
77 2.9
79 0.32
80 2.5
81 17.4
82 28.2
83 5.2
84 16.1
85 90.7
86 21.4
87 0.41
91 1.5
93 2.4
94 4.4
95 2.3
96 26.9
97 58.7
98 17.4
99 4.79
100 72.4
101 22.3
102 3.1
103 6.54
104 3.8
105 2.3
107 2.8
108 0.39
109 16.6
110 19.1
111 41.2
112 2.59
113 31.7
114 3.1
115 11.8
116 3.36
117 99.99
118 6.3
119 6.1
120 0.1
121 5.2
122 3.5
123 13.1
124 1.23
125 31.2
126 10.3
127 25
128 0.32
129 4.1
130 1.5
133 3.2
135 1.02
136 3.3
137 10
138 8.2
139 1.29
140 5.4
141 18.3
142 2.7
143 0.15
144 1.1
145 19.2
146 1.5
147 0.47
149 8.4
150 2.3
151 7.6
152 0.57
153 6.3
154 2.8
155 8.8
156 0.43
157 1.5
159 58.2
160 5
161 0.14
163 2.8
165 5.4
166 5.9
167 0.51
168 3.9
169 1.3
171 1.4
177 0.39
178 1
179 2.5
180 1.3
181 0.4
185 2.3
189 2.1
191 3.8
192 0.16
193 2.4
194 8.3
195 7.8
196 0.44
197 22.1
198 3.4
199 1.2
205 0.27
206 1.4
207 25.2
208 6.1
209 6.5
210 1.5
211 1.9
213 1.5
219 0.1
221 1
223 11.4
224 3.8
225 1.63
226 2.8
227 64.7
228 10.7
229 0.12
239 2.2
241 1
252 10.5
253 0.56
255 1.5
257 8.1
258 1.4
267 0.11
269 85.5
270 18.4
271 2.4
281 0.47
282 1.4
283 1.7
299 3.3
311 0.15
312 1.2
313 1.6
341 1.2

>  <PREDICTED SPECTRUM>  (4771) 
15 22
17 10
18 13
25 2
26 54
27 175
28 104
29 233
30 44
31 109
32 27
36 8
38 32
39 144
40 78
41 427
42 245
43 999
44 205
45 167
49 37
50 27
51 77
52 69
53 197
54 253
55 551
56 355
57 613
58 322
59 51
60 89
61 238
62 35
63 61
65 102
66 100
67 277
68 258
69 515
70 298
71 456
72 146
73 375
74 99
75 113
76 10
77 73
78 47
79 183
80 132
81 273
82 390
83 486
84 337
85 359
86 168
87 148
88 130
89 137
90 66
91 210
92 60
93 163
94 149
95 281
96 254
97 477
98 338
99 373
100 418
101 268
102 119
103 244
104 62
105 122
106 91
107 140
108 120
109 101
110 98
111 422
112 215
113 268
114 20
115 212
116 191
117 372
118 96
119 101
120 101
121 167
122 82
123 172
124 178
125 299
126 239
127 114
128 56
129 99
130 31
133 0
134 25
135 129
136 141
137 160
138 133
139 112
140 143
141 83
142 72
143 54
144 42
145 35
147 33
148 74
149 108
150 120
151 95
152 110
153 216
154 147
155 131
156 22
157 23
158 57
159 456
160 16
163 70
164 50
165 112
166 116
167 145
168 140
169 75
170 58
171 146
172 76
176 90
177 94
178 77
179 40
180 23
181 90
182 88
183 151
184 105
185 89
186 95
190 0
192 52
193 14
194 43
195 147
196 119
197 452
198 194
199 100
200 64
208 12
209 32
210 87
211 82
212 6
213 118
214 73
221 30
222 6
223 16
224 97
225 124
226 95
227 201
228 104
236 16
237 79
239 144
240 41
241 97
242 14
248 1
251 63
252 162
253 65
254 2
255 130
256 31
257 121
268 16
269 257
270 184
271 109
280 95
281 69
282 7
283 37
284 29
295 17
297 87
298 57
299 158
300 100
312 164
313 80
314 87
315 25
372 30
373 20

$$$$

     RDKit          2D

 25 24  0  0  1  0  0  0  0  0999 V2000
    5.4707    9.2745    0.0000 C   0  0  0  0  0  0  0  0  0  0  0  0
  -13.2649   11.3236    0.0000 C   0  0  0  0  0  0  0  0  0  0  0  0
  -15.3139   10.7745    0.0000 C   0  0  0  0  0  0  0  0  0  0  0  0
  -14.7649    8.7255    0.0000 C   0  0  0  0  0  0  0  0  0  0  0  0
   -9.3678   13.5736    0.0000 C   0  0  0  0  0  0  0  0  0  0  0  0
  -11.4168   13.0245    0.0000 C   0  0  0  0  0  0  0  0  0  0  0  0
  -10.8678   10.9755    0.0000 C   0  0  0  0  0  0  0  0  0  0  0  0
    4.1716   10.0245    0.0000 C   0  0  0  0  0  0  0  0  0  0  0  0
    2.8726    9.2745    0.0000 C   0  0  0  0  0  0  0  0  0  0  0  0
    1.5736   10.0245    0.0000 C   0  0  0  0  0  0  0  0  0  0  0  0
    0.2745    9.2745    0.0000 C   0  0  0  0  0  0  0  0  0  0  0  0
   -1.0245   10.0245    0.0000 C   0  0  0  0  0  0  0  0  0  0  0  0
   -2.3236    9.2745    0.0000 C   0  0  0  0  0  0  0  0  0  0  0  0
   -3.6226   10.0245    0.0000 C   0  0  0  0  0  0  0  0  0  0  0  0
   -4.9216    9.2745    0.0000 C   0  0  0  0  0  0  0  0  0  0  0  0
   -6.2207   10.0245    0.0000 C   0  0  0  0  0  0  0  0  0  0  0  0
   -7.5197    9.2745    0.0000 C   0  0  0  0  0  0  0  0  0  0  0  0
  -11.4168   10.0245    0.0000 C   0  0  0  0  0  0  0  0  0  0  0  0
  -10.1178    9.2745    0.0000 C   0  0  0  0  0  0  0  0  0  0  0  0
   -8.8187   10.0245    0.0000 C   0  0  0  0  0  0  0  0  0  0  0  0
  -10.1178    7.7745    0.0000 N   0  0  0  0  0  0  0  0  0  0  0  0
  -12.7159    9.2745    0.0000 O   0  0  0  0  0  0  0  0  0  0  0  0
   -8.8187   11.5245    0.0000 O   0  0  0  0  0  0  0  0  0  0  0  0
  -14.0149   10.0245    0.0000 Si  0  0  0  0  0  4  0  0  0  0  0  0
  -10.1178   12.2745    0.0000 Si  0  0  0  0  0  4  0  0  0  0  0  0
  8  1  1  0
  9  8  1  0
 10  9  1  0
 11 10  1  0
 12 11  1  0
 13 12  1  0
 14 13  1  0
 15 14  1  0
 16 15  1  0
 17 16  1  0
 19 18  1  0
 20 17  1  6
 20 19  1  0
 19 21  1  1
 22 18  1  0
 20 23  1  0
 24  2  1  0
 24  3  1  0
 24  4  1  0
 24 22  1  0
 25  5  1  0
 25  6  1  0
 25  7  1  0
 25 23  1  0
M  END
>  <NAME>  (4772) 
1,3-DI-O-TRIMETHYLSILYL TETRADECASPHINGANINE

>  <SYNONYMS>  (4772) 


>  <SPECTRUM TYPE>  (4772) 
MS1

>  <INSTRUMENT TYPE>  (4772) 
EI-B

>  <INSTRUMENT>  (4772) 
SHIMADZU LKB-9000B

>  <ION MODE>  (4772) 
P

>  <INCHIKEY>  (4772) 
JDPBVDIIFKBKPO-VQTJNVASSA-N

>  <FORMULA>  (4772) 
C20H47NO2Si2

>  <EXACT MASS>  (4772) 
389.314532804

>  <MW>  (4772) 
389

>  <ID>  (4772) 
JP002680

>  <CONTRIBUTOR>  (4772) 
University of Tokyo Team, {Faculty of Engineering, University of Tokyo

>  <COMMENT>  (4772) 
SMILES=CCCCCCCCCCCC([H])(O[Si](C)(C)C)C([H])(N)CO[Si](C)(C)C
InChI=InChI=1S/C20H47NO2Si2/c1-8-9-10-11-12-13-14-15-16-17-20(23-25(5,6)7)19(21)18-22-24(2,3)4/h19-20H,8-18,21H2,1-7H3/t19-,20+/m0/s1
computed SMILES=O(CC(N)C(O[Si](C)(C)C)CCCCCCCCCCC)[Si](C)(C)C
accession=JP002680
date=2016.01.19 (Created 2008.10.21, modified 2011.05.06)
author=HAYASHI A, DEPT. OF CHEMISTRY, FAC. OF SCI. AND TECHNOLOGY, KINKI UNIV.
license=CC BY-NC-SA
exact mass=389.31453
ionization energy=70 eV
ion type=[M]+*
computed spectral entropy=3.050289773604144
computed normalized entropy=0.645237896821207
SPLASH=splash10-001i-7910000000-3d696785c5e70de7e771
submitter=submitter = University of Tokyo Team (Faculty of Engineering, University of Tokyo)
MoNA Rating=3.75

>  <NUM PEAKS>  (4772) 
113

>  <MASS SPECTRAL PEAKS>  (4772) 
41 5.3
42 1.8
43 6.9
44 0.8
45 4
46 0.3
47 1.6
48 0.04
49 0.4
53 0.5
54 1
55 0.42
56 3.5
57 3.4
58 0.9
59 0.3
60 0.7
61 1.2
67 2.3
68 0.17
69 4
70 2
71 1.2
72 0.11
73 45.5
74 6.7
75 16.9
76 0.16
77 1.1
79 0.6
80 0.4
81 0.2
82 1.9
83 0.8
84 0.8
85 0.07
86 0.6
87 0.5
88 1
89 0.1
90 0.3
91 0.8
93 0.5
94 0.04
95 1.5
96 1.1
97 2.3
98 0.07
99 0.5
100 1.3
101 1.8
102 0.19
103 4.5
104 0.8
105 0.4
107 0.03
108 0.4
109 0.7
110 0.7
111 0.09
112 0.5
113 0.3
114 0.6
115 0.27
116 18.6
117 2.2
118 0.9
119 0.04
123 0.3
124 0.3
128 1.2
129 0.5
130 1.5
131 7.2
132 99.99
133 1.24
134 4.2
135 0.6
141 0.4
142 1
143 0.08
144 1.2
145 0.6
147 3.3
148 0.08
149 0.7
158 0.6
172 0.5
184 0.06
185 0.3
196 1.8
207 0.2
208 0.05
210 0.7
217 1
218 0.5
219 0.04
234 0.7
241 0.4
256 0.3
257 0.43
258 1
269 0.4
270 1.7
271 0.04
281 0.1
284 2.2
285 0.9
286 2.32
287 5.4
288 1.4
345 0.8
374 0.09

>  <PREDICTED SPECTRUM>  (4772) 
27 20
29 45
30 32
31 3
39 77
40 33
41 196
42 121
43 227
44 221
45 157
46 76
47 94
50 2
51 51
52 31
53 68
54 103
55 196
56 85
57 225
58 86
59 164
60 146
61 123
63 5
64 27
65 53
66 42
67 123
68 107
69 269
70 66
71 123
72 57
73 730
74 236
75 365
76 84
77 150
78 61
79 110
80 43
81 89
82 116
83 159
84 92
85 42
86 49
87 62
88 31
89 93
90 18
91 106
92 46
93 24
94 13
95 84
96 58
97 122
98 82
99 58
100 59
101 91
102 77
103 186
104 115
105 75
106 62
107 53
109 94
110 76
111 74
112 58
113 58
114 32
115 131
116 429
117 75
118 53
119 3
120 6
122 13
123 10
124 27
125 32
127 24
128 69
129 48
130 79
131 151
132 999
133 321
134 171
138 16
140 13
141 34
142 32
143 89
144 105
145 48
147 242
148 65
149 99
151 21
152 53
153 12
154 125
155 149
156 121
157 112
158 10
159 13
161 11
162 16
165 2
167 9
168 18
169 79
170 53
171 42
172 52
173 3
178 29
184 10
186 14
188 2
195 53
196 184
197 93
198 91
199 49
200 28
203 20
204 1
210 23
212 15
214 15
217 13
222 11
228 3
242 52
243 20
250 21
257 43
258 28
270 131
271 41
284 190
285 81
286 209
287 250
288 104
289 10
300 4
311 18
312 101
342 35
374 42

$$$$

     RDKit          2D

 23 22  0  0  1  0  0  0  0  0999 V2000
  -14.1154    8.3505    0.0000 C   0  0  0  0  0  0  0  0  0  0  0  0
    2.0221    6.3014    0.0000 C   0  0  0  0  0  0  0  0  0  0  0  0
    4.0712    6.8505    0.0000 C   0  0  0  0  0  0  0  0  0  0  0  0
    3.5221    8.8995    0.0000 C   0  0  0  0  0  0  0  0  0  0  0  0
   -1.8750    4.0514    0.0000 C   0  0  0  0  0  0  0  0  0  0  0  0
    0.1740    4.6005    0.0000 C   0  0  0  0  0  0  0  0  0  0  0  0
   -0.3750    6.6495    0.0000 C   0  0  0  0  0  0  0  0  0  0  0  0
  -12.8163    7.6005    0.0000 C   0  0  0  0  0  0  0  0  0  0  0  0
  -11.5173    8.3505    0.0000 C   0  0  0  0  0  0  0  0  0  0  0  0
  -10.2183    7.6005    0.0000 C   0  0  0  0  0  0  0  0  0  0  0  0
   -8.9192    8.3505    0.0000 C   0  0  0  0  0  0  0  0  0  0  0  0
   -7.6202    7.6005    0.0000 C   0  0  0  0  0  0  0  0  0  0  0  0
   -6.3212    8.3505    0.0000 C   0  0  0  0  0  0  0  0  0  0  0  0
   -5.0221    7.6005    0.0000 C   0  0  0  0  0  0  0  0  0  0  0  0
   -3.7231    8.3505    0.0000 C   0  0  0  0  0  0  0  0  0  0  0  0
    0.1740    7.6005    0.0000 C   0  0  0  0  0  0  0  0  0  0  0  0
   -1.1250    8.3505    0.0000 C   0  0  0  0  0  0  0  0  0  0  0  0
   -2.4240    7.6005    0.0000 C   0  0  0  0  0  0  0  0  0  0  0  0
   -1.1250    9.8505    0.0000 N   0  0  0  0  0  0  0  0  0  0  0  0
    1.4731    8.3505    0.0000 O   0  0  0  0  0  0  0  0  0  0  0  0
   -2.4240    6.1005    0.0000 O   0  0  0  0  0  0  0  0  0  0  0  0
    2.7721    7.6005    0.0000 Si  0  0  0  0  0  4  0  0  0  0  0  0
   -1.1250    5.3505    0.0000 Si  0  0  0  0  0  4  0  0  0  0  0  0
  8  1  1  0
  9  8  1  0
 10  9  1  0
 11 10  1  0
 12 11  1  0
 13 12  1  0
 14 13  1  0
 15 14  1  0
 17 16  1  0
 18 15  1  6
 18 17  1  0
 17 19  1  1
 20 16  1  0
 18 21  1  0
 22  2  1  0
 22  3  1  0
 22  4  1  0
 22 20  1  0
 23  5  1  0
 23  6  1  0
 23  7  1  0
 23 21  1  0
M  END
>  <NAME>  (4773) 
1,3-DI-O-TRIMETHYLSILYL DODECASPHINGANINE

>  <SYNONYMS>  (4773) 


>  <SPECTRUM TYPE>  (4773) 
MS1

>  <INSTRUMENT TYPE>  (4773) 
EI-B

>  <INSTRUMENT>  (4773) 
SHIMADZU LKB-9000B

>  <ION MODE>  (4773) 
P

>  <INCHIKEY>  (4773) 
WSLBFLLKCVEBDX-ZWKOTPCHSA-N

>  <FORMULA>  (4773) 
C18H43NO2Si2

>  <EXACT MASS>  (4773) 
361.28323267600007

>  <MW>  (4773) 
361

>  <ID>  (4773) 
JP002679

>  <CONTRIBUTOR>  (4773) 
University of Tokyo Team, {Faculty of Engineering, University of Tokyo

>  <COMMENT>  (4773) 
SMILES=CCCCCCCCCC([H])(O[Si](C)(C)C)C([H])(N)CO[Si](C)(C)C
InChI=InChI=1S/C18H43NO2Si2/c1-8-9-10-11-12-13-14-15-18(21-23(5,6)7)17(19)16-20-22(2,3)4/h17-18H,8-16,19H2,1-7H3/t17-,18+/m0/s1
computed SMILES=O(CC(N)C(O[Si](C)(C)C)CCCCCCCCC)[Si](C)(C)C
accession=JP002679
date=2016.01.19 (Created 2008.10.21, modified 2011.05.06)
author=HAYASHI A, DEPT. OF CHEMISTRY, FAC. OF SCI. AND TECHNOLOGY, KINKI UNIV.
license=CC BY-NC-SA
exact mass=361.28323
ionization energy=70 eV
ion type=[M]+*
computed spectral entropy=3.199008114661197
computed normalized entropy=0.6593133061121802
SPLASH=splash10-001i-6920000000-e5219d599da41686d795
submitter=submitter = University of Tokyo Team (Faculty of Engineering, University of Tokyo)
MoNA Rating=3.75

>  <NUM PEAKS>  (4773) 
128

>  <MASS SPECTRAL PEAKS>  (4773) 
41 4.8
42 1.7
43 5.4
44 1.6
45 4.4
46 0.4
47 1.7
48 0.01
53 0.5
54 1.1
55 4.3
56 0.38
57 2.7
58 0.9
59 3.2
60 0.08
61 1.3
66 0.2
67 1.9
68 0.15
69 4.1
70 2.3
71 1.3
72 0.11
73 49.1
74 7.8
75 18.6
76 0.19
77 1
79 0.5
80 0.3
81 0.18
82 1.6
83 2.5
84 1
85 0.05
86 0.8
87 0.1
88 1.3
89 0.1
90 0.4
91 0.8
93 0.6
94 0.03
95 1.6
96 0.9
97 2.2
98 0.05
99 0.6
100 1.6
101 1.8
102 0.2
103 5.8
104 0.8
105 0.5
107 0.04
108 0.3
109 0.7
110 0.7
111 0.03
112 0.6
113 0.4
114 0.7
115 0.27
116 21.4
117 2.5
118 1.1
119 0.03
126 0.3
128 1.5
129 4.8
130 0.15
131 7.3
132 99.99
133 12.6
134 0.43
135 0.6
138 0.3
141 0.4
142 0.1
143 0.9
144 1.3
145 0.5
147 0.43
148 1
149 0.9
155 0.3
156 0.07
157 0.3
158 1.3
159 0.4
168 0.22
169 0.3
171 0.3
177 0.3
182 0.08
185 0.4
191 0.3
204 0.3
206 0.03
207 0.3
213 0.5
217 1.1
218 0.06
219 0.5
226 0.4
227 0.3
228 0.04
229 7.3
230 1.6
231 0.5
233 0.2
234 0.07
242 2.3
243 0.4
256 3
257 0.09
258 28.4
259 6.3
260 1.6
270 0.03
281 0.1
284 1.1
285 0.3
317 1.2
318 0.3
346 1
347 0.3

>  <PREDICTED SPECTRUM>  (4773) 
27 22
29 55
30 41
31 19
39 75
40 40
41 198
42 125
43 225
44 224
45 179
46 72
47 132
50 11
51 64
52 33
53 62
54 112
55 212
56 90
57 198
58 70
59 155
60 68
61 109
62 0
63 10
64 24
65 56
66 45
67 114
68 95
69 258
70 116
71 107
72 73
73 775
74 246
75 385
76 89
77 116
78 56
79 93
80 32
81 101
82 109
83 145
84 101
85 57
86 63
87 69
88 49
89 59
90 0
91 13
92 14
94 16
95 102
96 75
97 117
98 54
99 60
100 82
101 89
102 79
103 204
104 107
105 67
106 17
107 18
109 62
110 78
111 55
112 51
113 46
114 31
115 104
116 422
117 120
118 61
119 8
124 47
125 44
126 135
127 160
128 139
129 160
130 80
131 185
132 999
133 329
134 185
135 6
140 12
141 85
142 59
143 163
144 135
145 34
146 4
147 243
148 83
149 113
155 17
156 26
157 32
158 40
159 6
160 29
167 45
168 174
169 103
170 124
171 70
172 57
173 12
175 35
182 40
183 8
184 38
185 15
186 40
192 6
194 2
200 40
201 25
202 9
214 81
215 40
220 18
222 2
226 6
227 17
228 5
229 62
230 22
242 149
243 54
245 0
256 192
257 85
258 562
259 257
260 124
261 30
312 67
342 30
346 112
347 25
348 4
362 2
364 24

$$$$

     RDKit          2D

 21 20  0  0  1  0  0  0  0  0999 V2000
    4.1716    7.0245    0.0000 C   0  0  0  0  0  0  0  0  0  0  0  0
   -9.3678    9.0736    0.0000 C   0  0  0  0  0  0  0  0  0  0  0  0
  -11.4168    8.5245    0.0000 C   0  0  0  0  0  0  0  0  0  0  0  0
  -10.8678    6.4755    0.0000 C   0  0  0  0  0  0  0  0  0  0  0  0
   -5.4707   11.3236    0.0000 C   0  0  0  0  0  0  0  0  0  0  0  0
   -7.5197   10.7745    0.0000 C   0  0  0  0  0  0  0  0  0  0  0  0
   -6.9707    8.7255    0.0000 C   0  0  0  0  0  0  0  0  0  0  0  0
    2.8726    7.7745    0.0000 C   0  0  0  0  0  0  0  0  0  0  0  0
    1.5736    7.0245    0.0000 C   0  0  0  0  0  0  0  0  0  0  0  0
    0.2745    7.7745    0.0000 C   0  0  0  0  0  0  0  0  0  0  0  0
   -1.0245    7.0245    0.0000 C   0  0  0  0  0  0  0  0  0  0  0  0
   -2.3236    7.7745    0.0000 C   0  0  0  0  0  0  0  0  0  0  0  0
   -3.6226    7.0245    0.0000 C   0  0  0  0  0  0  0  0  0  0  0  0
   -7.5197    7.7745    0.0000 C   0  0  0  0  0  0  0  0  0  0  0  0
   -6.2207    7.0245    0.0000 C   0  0  0  0  0  0  0  0  0  0  0  0
   -4.9216    7.7745    0.0000 C   0  0  0  0  0  0  0  0  0  0  0  0
   -6.2207    5.5245    0.0000 N   0  0  0  0  0  0  0  0  0  0  0  0
   -8.8187    7.0245    0.0000 O   0  0  0  0  0  0  0  0  0  0  0  0
   -4.9216    9.2745    0.0000 O   0  0  0  0  0  0  0  0  0  0  0  0
  -10.1178    7.7745    0.0000 Si  0  0  0  0  0  4  0  0  0  0  0  0
   -6.2207   10.0245    0.0000 Si  0  0  0  0  0  4  0  0  0  0  0  0
  8  1  1  0
  9  8  1  0
 10  9  1  0
 11 10  1  0
 12 11  1  0
 13 12  1  0
 15 14  1  0
 16 13  1  6
 16 15  1  0
 15 17  1  1
 18 14  1  0
 16 19  1  0
 20  2  1  0
 20  3  1  0
 20  4  1  0
 20 18  1  0
 21  5  1  0
 21  6  1  0
 21  7  1  0
 21 19  1  0
M  END
>  <NAME>  (4774) 
1,3-DI-O-TRIMETHYLSILYL DECASPHINGANINE

>  <SYNONYMS>  (4774) 


>  <SPECTRUM TYPE>  (4774) 
MS1

>  <INSTRUMENT TYPE>  (4774) 
EI-B

>  <INSTRUMENT>  (4774) 
SHIMADZU LKB-9000B

>  <ION MODE>  (4774) 
P

>  <INCHIKEY>  (4774) 
VAWUXPDWLWBZIW-JKSUJKDBSA-N

>  <FORMULA>  (4774) 
C16H39NO2Si2

>  <EXACT MASS>  (4774) 
333.25193254799996

>  <MW>  (4774) 
333

>  <ID>  (4774) 
JP002678

>  <CONTRIBUTOR>  (4774) 
University of Tokyo Team, {Faculty of Engineering, University of Tokyo

>  <COMMENT>  (4774) 
SMILES=CCCCCCCC([H])(O[Si](C)(C)C)C([H])(N)CO[Si](C)(C)C
InChI=InChI=1S/C16H39NO2Si2/c1-8-9-10-11-12-13-16(19-21(5,6)7)15(17)14-18-20(2,3)4/h15-16H,8-14,17H2,1-7H3/t15-,16+/m0/s1
computed SMILES=O(CC(N)C(O[Si](C)(C)C)CCCCCCC)[Si](C)(C)C
accession=JP002678
date=2016.01.19 (Created 2008.10.21, modified 2011.05.06)
author=HAYASHI A, DEPT. OF CHEMISTRY, FAC. OF SCI. AND TECHNOLOGY, KINKI UNIV.
license=CC BY-NC-SA
exact mass=333.25193
ionization energy=70 eV
ion type=[M]+*
computed spectral entropy=3.134726663608977
computed normalized entropy=0.6264508993400746
SPLASH=splash10-001i-7920000000-e9663bb8dd180954a52f
submitter=submitter = University of Tokyo Team (Faculty of Engineering, University of Tokyo)
MoNA Rating=3.75

>  <NUM PEAKS>  (4774) 
149

>  <MASS SPECTRAL PEAKS>  (4774) 
41 4
42 1.5
43 4.6
44 3.7
45 5.6
46 0.5
47 2.5
48 0.05
49 0.4
50 0.2
51 0.1
53 0.04
55 4.6
56 4.4
57 1.7
58 0.11
59 4
60 0.9
61 1.6
62 0.01
63 0.1
65 0.1
66 0.2
67 0.17
68 1
69 7.3
70 1.9
71 0.06
72 1.5
73 56.1
74 9.2
75 1.77
76 1.9
77 1
79 0.3
80 0.02
81 1.8
82 1
83 2.4
84 0.09
85 1.5
86 0.6
87 0.3
88 0.16
89 0.9
90 0.3
91 0.7
92 0.01
93 0.5
94 0.2
95 0.6
96 0.04
97 0.3
98 0.4
99 0.6
100 0.18
101 1.7
102 2.3
103 6.4
104 0.09
105 0.4
107 0.2
108 0.2
109 0.03
110 0.4
111 0.5
112 0.5
113 0.03
114 0.7
115 2.1
116 25.1
117 0.3
118 1.2
119 0.2
123 0.2
124 0.01
126 0.2
127 0.2
128 1.9
129 0.36
130 1.7
131 7.2
132 99.99
133 1.2
134 4.3
135 0.4
138 0.1
140 0.29
141 0.5
142 0.7
143 0.7
144 0.11
145 0.4
146 0.1
147 4.4
148 0.11
149 0.9
150 0.1
154 1.2
155 0.03
156 0.2
157 0.4
158 0.7
159 0.02
171 0.2
172 0.1
177 0.3
184 0.02
185 0.5
186 0.2
187 0.2
189 0.01
191 0.2
198 0.4
199 0.3
200 0.05
201 7.3
202 1.4
203 0.4
204 0.03
205 0.2
206 0.2
207 0.2
209 0.1
212 0.1
213 0.6
214 2.6
215 0.05
216 0.2
217 1.1
218 0.4
219 0.02
228 3.3
229 0.8
230 26.5
231 0.49
232 1.4
233 0.3
234 0.7
235 0.01
242 0.2
256 0.6
257 0.1
289 0.11
290 0.3
307 0.1
309 0.2
318 0.07
319 0.2

>  <PREDICTED SPECTRUM>  (4774) 
26 1
27 34
28 16
29 74
30 54
31 40
38 11
39 84
40 54
41 197
42 143
43 233
44 258
45 202
46 67
47 107
50 24
51 73
52 35
53 62
54 117
55 224
56 119
57 191
58 99
59 167
60 93
61 114
62 8
63 21
64 19
65 61
66 52
67 129
68 109
69 237
70 114
71 92
72 117
73 817
74 254
75 415
76 93
77 131
78 52
79 81
80 24
81 55
82 93
83 109
84 91
85 49
86 67
87 60
88 54
89 104
90 12
91 39
92 20
93 18
94 18
95 102
96 84
97 99
98 117
99 175
100 134
101 132
102 72
103 210
104 133
105 100
106 44
107 13
109 67
111 31
112 33
113 83
114 61
115 143
116 446
117 124
118 80
119 71
122 2
127 30
128 35
129 79
130 113
131 190
132 999
133 315
134 159
135 18
140 135
141 95
142 106
143 184
144 136
145 43
146 12
147 202
148 87
149 130
154 46
155 8
156 62
157 45
158 72
159 8
161 22
164 5
166 7
170 74
171 30
172 82
173 46
174 43
186 107
187 44
192 36
193 4
194 12
198 47
199 57
200 41
201 84
202 19
214 165
215 62
217 1
218 0
228 196
229 84
230 596
231 244
232 126
233 50
234 10
260 8
312 41
319 26

$$$$

     RDKit          2D

 27 26  0  0  0  0  0  0  0  0999 V2000
    8.4437   13.8750    0.0000 C   0  0  0  0  0  0  0  0  0  0  0  0
  -24.0322   14.6250    0.0000 C   0  0  0  0  0  0  0  0  0  0  0  0
    7.1447   14.6250    0.0000 C   0  0  0  0  0  0  0  0  0  0  0  0
    5.8457   13.8750    0.0000 C   0  0  0  0  0  0  0  0  0  0  0  0
    4.5466   14.6250    0.0000 C   0  0  0  0  0  0  0  0  0  0  0  0
    3.2476   13.8750    0.0000 C   0  0  0  0  0  0  0  0  0  0  0  0
    1.9486   14.6250    0.0000 C   0  0  0  0  0  0  0  0  0  0  0  0
    0.6495   13.8750    0.0000 C   0  0  0  0  0  0  0  0  0  0  0  0
   -0.6495   14.6250    0.0000 C   0  0  0  0  0  0  0  0  0  0  0  0
   -1.9486   13.8750    0.0000 C   0  0  0  0  0  0  0  0  0  0  0  0
   -3.2476   14.6250    0.0000 C   0  0  0  0  0  0  0  0  0  0  0  0
   -4.5466   13.8750    0.0000 C   0  0  0  0  0  0  0  0  0  0  0  0
   -5.8457   14.6250    0.0000 C   0  0  0  0  0  0  0  0  0  0  0  0
   -7.1447   13.8750    0.0000 C   0  0  0  0  0  0  0  0  0  0  0  0
   -8.4437   14.6250    0.0000 C   0  0  0  0  0  0  0  0  0  0  0  0
   -9.7428   13.8750    0.0000 C   0  0  0  0  0  0  0  0  0  0  0  0
  -11.0418   14.6250    0.0000 C   0  0  0  0  0  0  0  0  0  0  0  0
  -12.3409   13.8750    0.0000 C   0  0  0  0  0  0  0  0  0  0  0  0
  -13.6399   14.6250    0.0000 C   0  0  0  0  0  0  0  0  0  0  0  0
  -14.9389   13.8750    0.0000 C   0  0  0  0  0  0  0  0  0  0  0  0
  -16.2380   14.6250    0.0000 C   0  0  0  0  0  0  0  0  0  0  0  0
  -17.5370   13.8750    0.0000 C   0  0  0  0  0  0  0  0  0  0  0  0
  -18.8361   14.6250    0.0000 C   0  0  0  0  0  0  0  0  0  0  0  0
  -20.1351   13.8750    0.0000 C   0  0  0  0  0  0  0  0  0  0  0  0
  -21.4341   14.6250    0.0000 C   0  0  0  0  0  0  0  0  0  0  0  0
  -21.4341   16.1250    0.0000 O   0  0  0  0  0  0  0  0  0  0  0  0
  -22.7332   13.8750    0.0000 O   0  0  0  0  0  0  0  0  0  0  0  0
  3  1  1  0
  4  3  1  0
  5  4  1  0
  6  5  1  0
  7  6  1  0
  8  7  1  0
  9  8  1  0
 10  9  1  0
 11 10  1  0
 12 11  1  0
 13 12  1  0
 14 13  1  0
 15 14  1  0
 16 15  1  0
 17 16  1  0
 18 17  1  0
 19 18  1  0
 20 19  1  0
 21 20  1  0
 22 21  1  0
 23 22  1  0
 24 23  1  0
 25 24  1  0
 26 25  2  0
 27  2  1  0
 27 25  1  0
M  END
>  <NAME>  (4775) 
METHYL TETRACOSANOATE

>  <SYNONYMS>  (4775) 


>  <SPECTRUM TYPE>  (4775) 
MS1

>  <INSTRUMENT TYPE>  (4775) 
EI-B

>  <INSTRUMENT>  (4775) 
SHIMADZU LKB-9000B

>  <ION MODE>  (4775) 
P

>  <INCHIKEY>  (4775) 
XUDJZDNUVZHSKZ-UHFFFAOYSA-N

>  <FORMULA>  (4775) 
C25H50O2

>  <EXACT MASS>  (4775) 
382.38108084

>  <MW>  (4775) 
382

>  <ID>  (4775) 
JP002667

>  <CONTRIBUTOR>  (4775) 
University of Tokyo Team, {Faculty of Engineering, University of Tokyo

>  <COMMENT>  (4775) 
SMILES=CCCCCCCCCCCCCCCCCCCCCCCC(=O)OC
InChI=InChI=1S/C25H50O2/c1-3-4-5-6-7-8-9-10-11-12-13-14-15-16-17-18-19-20-21-22-23-24-25(26)27-2/h3-24H2,1-2H3
computed SMILES=O=C(OC)CCCCCCCCCCCCCCCCCCCCCCC
accession=JP002667
date=2016.01.19 (Created 2008.10.21, modified 2011.05.06)
author=HAYASHI A, DEPT. OF CHEMISTRY, FAC. OF SCI. AND TECHNOLOGY, KINKI UNIV.
license=CC BY-NC-SA
exact mass=382.38108
ionization energy=70 eV
ion type=[M]+*
computed spectral entropy=3.1387123230842886
computed normalized entropy=0.7729975066592323
SPLASH=splash10-00di-9311000000-49a941ff39c1dfe81ed9
submitter=submitter = University of Tokyo Team (Faculty of Engineering, University of Tokyo)
MoNA Rating=3.75

>  <NUM PEAKS>  (4775) 
58

>  <MASS SPECTRAL PEAKS>  (4775) 
43 1.3
55 6
56 1.1
57 0.73
59 1.7
67 2.7
68 1.3
69 1.11
70 2.4
71 9.3
74 83.2
75 26.8
76 0.11
79 1
81 4.2
82 2.4
83 1.45
84 5.7
85 7.8
88 8.2
98 7.8
99 2.9
101 11.5
102 0.12
110 2.1
111 9.5
112 3
113 0.22
115 6.4
116 0.3
121 3.3
125 7
126 1.3
127 1.5
129 1.98
130 6.1
145 1
151 1.4
165 1
191 1.9
199 19.8
200 3.5
205 1
207 0.7
208 1.7
209 0.15
213 4.5
214 0.12
228 1.8
242 1.9
270 1.3
283 15.6
284 3.9
298 0.21
341 2.2
354 1.8
383 17.2
384 2.8

>  <PREDICTED SPECTRUM>  (4775) 
15 49
16 7
17 39
18 80
27 96
28 67
29 171
30 56
31 43
32 5
39 73
40 62
41 326
42 168
43 534
44 124
45 91
50 5
51 8
52 10
53 122
54 138
55 670
56 359
57 777
58 131
59 259
60 91
61 97
62 24
64 0
66 13
67 234
68 194
69 568
70 291
71 561
72 90
73 194
74 999
75 653
76 134
77 30
78 4
79 69
80 56
81 225
82 215
83 494
84 318
85 394
86 53
87 940
88 213
89 66
93 62
94 63
95 215
96 207
97 472
98 304
99 182
100 105
101 280
102 147
103 51
107 75
108 87
109 165
110 124
111 329
112 194
113 159
114 59
115 245
116 103
121 141
122 67
123 122
124 105
125 227
126 128
127 103
128 17
129 291
130 150
131 67
135 133
136 27
137 78
138 62
139 145
140 113
141 145
142 22
143 564
144 118
149 36
151 62
152 49
153 104
154 86
155 38
157 77
158 44
159 8
163 49
164 7
165 52
166 43
167 77
168 68
169 33
171 135
172 44
177 36
178 3
179 15
180 49
181 100
182 8
185 108
186 56
191 9
194 27
195 69
196 0
199 210
200 49
205 18
206 5
207 86
208 48
209 90
210 21
213 72
214 19
222 38
223 55
224 33
227 83
228 9
233 41
236 2
237 92
238 27
241 142
242 41
250 32
251 35
252 60
255 135
256 36
265 4
267 10
269 70
270 39
271 8
278 24
279 39
280 23
283 250
284 104
285 30
294 23
296 30
297 162
298 32
299 4
306 37
307 14
308 74
310 32
311 110
312 79
321 19
322 31
325 149
326 23
333 92
334 11
335 30
339 291
340 127
341 11
348 31
349 2
350 50
351 60
352 32
353 117
367 96
368 21
381 139
382 664
383 355
384 66
385 34

$$$$

     RDKit          2D

 21 20  0  0  0  0  0  0  0  0999 V2000
    6.4952   10.5000    0.0000 C   0  0  0  0  0  0  0  0  0  0  0  0
  -18.1865   11.2500    0.0000 C   0  0  0  0  0  0  0  0  0  0  0  0
    5.1962   11.2500    0.0000 C   0  0  0  0  0  0  0  0  0  0  0  0
    3.8971   10.5000    0.0000 C   0  0  0  0  0  0  0  0  0  0  0  0
    2.5981   11.2500    0.0000 C   0  0  0  0  0  0  0  0  0  0  0  0
    1.2990   10.5000    0.0000 C   0  0  0  0  0  0  0  0  0  0  0  0
    0.0000   11.2500    0.0000 C   0  0  0  0  0  0  0  0  0  0  0  0
   -1.2990   10.5000    0.0000 C   0  0  0  0  0  0  0  0  0  0  0  0
   -2.5981   11.2500    0.0000 C   0  0  0  0  0  0  0  0  0  0  0  0
   -3.8971   10.5000    0.0000 C   0  0  0  0  0  0  0  0  0  0  0  0
   -5.1962   11.2500    0.0000 C   0  0  0  0  0  0  0  0  0  0  0  0
   -6.4952   10.5000    0.0000 C   0  0  0  0  0  0  0  0  0  0  0  0
   -7.7942   11.2500    0.0000 C   0  0  0  0  0  0  0  0  0  0  0  0
   -9.0933   10.5000    0.0000 C   0  0  0  0  0  0  0  0  0  0  0  0
  -10.3923   11.2500    0.0000 C   0  0  0  0  0  0  0  0  0  0  0  0
  -11.6913   10.5000    0.0000 C   0  0  0  0  0  0  0  0  0  0  0  0
  -12.9904   11.2500    0.0000 C   0  0  0  0  0  0  0  0  0  0  0  0
  -14.2894   10.5000    0.0000 C   0  0  0  0  0  0  0  0  0  0  0  0
  -15.5885   11.2500    0.0000 C   0  0  0  0  0  0  0  0  0  0  0  0
  -15.5885   12.7500    0.0000 O   0  0  0  0  0  0  0  0  0  0  0  0
  -16.8875   10.5000    0.0000 O   0  0  0  0  0  0  0  0  0  0  0  0
  3  1  1  0
  4  3  1  0
  4  5  2  0
  6  5  1  0
  7  6  1  0
  7  8  2  0
  9  8  1  0
 10  9  1  0
 10 11  2  0
 12 11  1  0
 13 12  1  0
 14 13  1  0
 15 14  1  0
 16 15  1  0
 17 16  1  0
 18 17  1  0
 19 18  1  0
 20 19  2  0
 21  2  1  0
 21 19  1  0
M  END
>  <NAME>  (4776) 
METHYL-9,12,15-OCTADECATRIENOATE

>  <SYNONYMS>  (4776) 


>  <SPECTRUM TYPE>  (4776) 
MS1

>  <INSTRUMENT TYPE>  (4776) 
EI-B

>  <INSTRUMENT>  (4776) 
SHIMADZU LKB-9000B

>  <ION MODE>  (4776) 
P

>  <INCHIKEY>  (4776) 
DVWSXZIHSUZZKJ-JSIPCRQOSA-N

>  <FORMULA>  (4776) 
C19H32O2

>  <EXACT MASS>  (4776) 
292.240230264

>  <MW>  (4776) 
292

>  <ID>  (4776) 
JP002664

>  <CONTRIBUTOR>  (4776) 
University of Tokyo Team, {Faculty of Engineering, University of Tokyo

>  <COMMENT>  (4776) 
SMILES=CCC=CCC=CCC=CCCCCCCCC(=O)OC
InChI=InChI=1S/C19H32O2/c1-3-4-5-6-7-8-9-10-11-12-13-14-15-16-17-18-19(20)21-2/h4-5,7-8,10-11H,3,6,9,12-18H2,1-2H3/b5-4+,8-7+,11-10+
computed SMILES=O=C(OC)CCCCCCCC=CCC=CCC=CCC
accession=JP002664
date=2016.01.19 (Created 2008.10.21, modified 2011.05.06)
author=HAYASHI A, DEPT. OF CHEMISTRY, FAC. OF SCI. AND TECHNOLOGY, KINKI UNIV.
license=CC BY-NC-SA
exact mass=292.24023
ionization energy=70 eV
ion type=[M]+*
computed spectral entropy=3.872693114736684
computed normalized entropy=0.7968811946858174
SPLASH=splash10-0a7m-9710000000-a711aabccb84e2c5bca5
submitter=submitter = University of Tokyo Team (Faculty of Engineering, University of Tokyo)
MoNA Rating=3.75

>  <NUM PEAKS>  (4776) 
129

>  <MASS SPECTRAL PEAKS>  (4776) 
53 1.7
54 2.6
55 5.1
59 2.2
65 3.2
66 4.8
67 39.5
68 0.98
69 11.1
74 7.7
77 15
78 1.35
79 99.99
80 48.3
81 48.9
82 1.31
83 9.1
85 4.1
87 15.8
90 0.16
91 31
92 8.3
93 75.6
94 3.93
95 94.4
96 17.6
97 10.6
98 0.21
104 1.3
105 17.3
106 7.7
107 4.59
108 88.1
109 31.4
110 6.8
111 0.57
113 1
115 2.2
116 1.7
117 0.48
118 1.4
119 11.5
120 6.4
121 4.5
122 29.8
123 13.2
124 2.9
125 0.4
129 4.8
131 7.7
133 9.4
134 0.46
135 37
136 27.7
137 8.1
138 0.21
139 1.8
141 3.4
143 3.5
144 0.1
146 20.1
147 7.5
148 3.1
149 3.22
150 15.8
151 4.1
154 1.3
155 0.16
157 2.5
158 17.7
159 2.4
161 0.56
162 3.5
163 14.6
164 9.3
165 0.23
167 1.7
168 1.6
170 1.2
171 0.24
173 11.1
174 2.8
175 6
176 0.19
177 4.7
178 5.1
179 2
181 0.25
182 1.5
185 2.2
186 1.2
191 1.15
192 3.5
193 1.4
202 1.5
203 0.15
204 2.6
205 1.9
206 1.6
207 0.17
208 1.3
210 1.5
213 1.2
217 0.31
218 1.6
221 1.8
222 1.8
223 0.61
224 2.5
231 1.7
232 1.2
235 2
236 1.86
237 3.9
238 1.8
243 1.3
249 0.35
250 2.2
259 2.1
261 15.3
262 0.34
263 6.4
264 1.6
270 1.9
280 1.5
288 12.8
290 2.3
292 26.2
293 0.58

>  <PREDICTED SPECTRUM>  (4776) 
27 28
28 8
29 40
33 10
39 173
40 64
41 450
42 118
43 211
44 67
45 121
50 60
51 188
52 153
53 401
54 393
55 754
56 242
57 281
58 90
59 391
60 112
61 74
62 22
63 108
64 57
65 349
66 324
67 934
68 426
69 427
70 139
71 237
72 60
73 227
74 283
75 100
76 41
77 565
78 388
79 999
80 723
81 724
82 391
83 283
84 136
85 222
86 43
87 299
88 94
89 82
91 622
92 355
93 752
94 579
95 650
96 333
97 256
98 126
99 127
100 65
101 210
102 36
103 143
104 119
105 408
106 315
107 526
108 708
109 443
110 235
111 159
112 52
113 73
114 14
115 172
116 45
117 193
118 102
119 336
120 227
121 499
122 440
123 230
124 120
125 123
126 32
127 132
128 50
129 212
130 47
131 203
132 78
133 254
134 219
135 436
136 332
137 152
138 43
139 59
140 21
141 92
143 115
144 20
145 145
146 67
147 230
148 175
149 361
150 372
151 162
152 79
153 76
154 75
155 83
157 91
158 10
159 94
160 27
161 177
162 105
163 222
164 232
165 94
166 13
167 52
168 62
169 21
171 88
172 24
173 106
174 44
175 195
176 72
177 178
178 166
179 39
180 10
181 71
182 20
183 34
185 123
186 31
187 45
188 28
189 104
190 48
191 143
192 60
193 59
194 40
195 26
196 58
197 31
199 113
201 28
203 108
204 27
205 86
206 74
207 34
208 50
209 59
210 49
213 76
215 5
217 51
218 69
221 89
222 60
223 134
224 70
231 32
232 29
233 30
234 39
235 105
236 279
237 109
238 89
248 5
249 165
250 75
251 44
260 55
261 188
262 109
263 197
264 80
265 5
277 64
278 4
292 409
293 172
294 53

$$$$

     RDKit          2D

 21 20  0  0  0  0  0  0  0  0999 V2000
    6.4952   10.5000    0.0000 C   0  0  0  0  0  0  0  0  0  0  0  0
  -18.1865   11.2500    0.0000 C   0  0  0  0  0  0  0  0  0  0  0  0
    5.1962   11.2500    0.0000 C   0  0  0  0  0  0  0  0  0  0  0  0
    3.8971   10.5000    0.0000 C   0  0  0  0  0  0  0  0  0  0  0  0
    2.5981   11.2500    0.0000 C   0  0  0  0  0  0  0  0  0  0  0  0
    1.2990   10.5000    0.0000 C   0  0  0  0  0  0  0  0  0  0  0  0
    0.0000   11.2500    0.0000 C   0  0  0  0  0  0  0  0  0  0  0  0
   -1.2990   10.5000    0.0000 C   0  0  0  0  0  0  0  0  0  0  0  0
   -2.5981   11.2500    0.0000 C   0  0  0  0  0  0  0  0  0  0  0  0
   -3.8971   10.5000    0.0000 C   0  0  0  0  0  0  0  0  0  0  0  0
   -5.1962   11.2500    0.0000 C   0  0  0  0  0  0  0  0  0  0  0  0
   -6.4952   10.5000    0.0000 C   0  0  0  0  0  0  0  0  0  0  0  0
   -7.7942   11.2500    0.0000 C   0  0  0  0  0  0  0  0  0  0  0  0
   -9.0933   10.5000    0.0000 C   0  0  0  0  0  0  0  0  0  0  0  0
  -10.3923   11.2500    0.0000 C   0  0  0  0  0  0  0  0  0  0  0  0
  -11.6913   10.5000    0.0000 C   0  0  0  0  0  0  0  0  0  0  0  0
  -12.9904   11.2500    0.0000 C   0  0  0  0  0  0  0  0  0  0  0  0
  -14.2894   10.5000    0.0000 C   0  0  0  0  0  0  0  0  0  0  0  0
  -15.5885   11.2500    0.0000 C   0  0  0  0  0  0  0  0  0  0  0  0
  -15.5885   12.7500    0.0000 O   0  0  0  0  0  0  0  0  0  0  0  0
  -16.8875   10.5000    0.0000 O   0  0  0  0  0  0  0  0  0  0  0  0
  3  1  1  0
  4  3  1  0
  5  4  1  0
  6  5  1  0
  7  6  1  0
  7  8  2  0
  9  8  1  0
 10  9  1  0
 10 11  2  0
 12 11  1  0
 13 12  1  0
 14 13  1  0
 15 14  1  0
 16 15  1  0
 17 16  1  0
 18 17  1  0
 19 18  1  0
 20 19  2  0
 21  2  1  0
 21 19  1  0
M  END
>  <NAME>  (4777) 
METHYL-9,12-OCTADECADIENOATE

>  <SYNONYMS>  (4777) 


>  <SPECTRUM TYPE>  (4777) 
MS1

>  <INSTRUMENT TYPE>  (4777) 
EI-B

>  <INSTRUMENT>  (4777) 
SHIMADZU LKB-9000B

>  <ION MODE>  (4777) 
P

>  <INCHIKEY>  (4777) 
WTTJVINHCBCLGX-ZDVGBALWSA-N

>  <FORMULA>  (4777) 
C19H34O2

>  <EXACT MASS>  (4777) 
294.255880328

>  <MW>  (4777) 
294

>  <ID>  (4777) 
JP002663

>  <CONTRIBUTOR>  (4777) 
University of Tokyo Team, {Faculty of Engineering, University of Tokyo

>  <COMMENT>  (4777) 
SMILES=CCCCCC=CCC=CCCCCCCCC(=O)OC
cas=13038-47-6
InChI=InChI=1S/C19H34O2/c1-3-4-5-6-7-8-9-10-11-12-13-14-15-16-17-18-19(20)21-2/h7-8,10-11H,3-6,9,12-18H2,1-2H3/b8-7+,11-10+
computed SMILES=O=C(OC)CCCCCCCC=CCC=CCCCCC
accession=JP002663
date=2016.01.19 (Created 2008.10.21, modified 2011.05.06)
author=HAYASHI A, DEPT. OF CHEMISTRY, FAC. OF SCI. AND TECHNOLOGY, KINKI UNIV.
license=CC BY-NC-SA
exact mass=294.25588
ionization energy=70 eV
ion type=[M]+*
computed spectral entropy=4.142059189313162
computed normalized entropy=0.8346139155874078
SPLASH=splash10-01qa-8920000000-1f86d7f4e3cf3a8132da
submitter=submitter = University of Tokyo Team (Faculty of Engineering, University of Tokyo)
MoNA Rating=3.75

>  <NUM PEAKS>  (4777) 
143

>  <MASS SPECTRAL PEAKS>  (4777) 
53 1
54 12.6
55 10.4
57 0.1
59 1.7
65 2.7
66 4.5
67 7.33
68 36.9
69 25.7
70 2.1
71 0.28
74 9
77 11.2
78 3.5
79 3.37
80 27.7
81 99.99
82 62.4
83 2.57
84 5.4
85 6
86 1.8
87 1.05
88 2.8
89 1.4
91 15.1
92 0.43
93 22.4
94 25.5
95 98.4
96 7.38
97 24.7
98 4.1
99 1.4
105 0.51
106 4.6
107 21.3
108 18.9
109 5.96
110 47.5
111 15.2
112 2.4
113 0.19
115 8.6
116 1
117 3.7
119 0.61
120 7.4
121 25.8
122 23.5
123 3.78
124 32.3
125 8
127 2.2
129 0.73
131 6.1
132 2.1
133 8.6
134 0.4
135 24.6
136 31.9
137 24.7
138 1.74
139 8.2
140 3.8
141 6.4
143 0.32
144 1.1
147 1.8
148 1.7
149 2.15
150 35.5
151 18.7
152 14.2
153 0.66
154 5.4
155 2.8
157 2.5
158 0.27
159 9.7
160 2
161 3.9
162 0.21
163 16
164 26.9
165 13.9
166 0.75
167 4.4
168 5.3
169 3.2
170 0.3
173 4.5
174 1.3
175 2.1
177 0.86
178 19.6
179 8.3
180 3.7
181 0.49
182 4.6
183 2.3
187 4.7
191 0.76
192 6.1
193 4.8
194 1.8
195 0.4
196 4.3
201 2
204 3.6
205 0.41
206 3.7
208 1.1
209 3.9
210 0.36
214 3.9
215 1.8
218 1.7
219 0.24
220 11.6
221 3.4
222 1.7
223 0.28
224 3.4
230 3.9
234 4.5
235 0.17
237 2.1
238 2.1
244 2.2
245 0.24
247 1.6
258 2.6
261 1.9
262 2.76
263 34.7
264 7
265 1.9
280 0.34
286 2.2
294 50.7
295 11.9

>  <PREDICTED SPECTRUM>  (4777) 
15 23
26 19
27 152
28 89
29 196
30 36
31 10
32 24
39 249
40 98
41 566
42 199
43 454
44 79
45 114
50 66
51 181
52 154
53 404
54 626
55 938
56 313
57 389
58 119
59 472
60 90
61 60
62 40
63 79
64 48
65 293
66 282
67 999
68 619
69 613
70 193
71 268
72 70
73 192
74 499
75 169
76 74
77 435
78 275
79 749
80 630
81 974
82 730
83 479
84 278
85 256
86 53
87 337
88 112
89 35
90 36
91 399
92 210
93 511
94 509
95 810
96 712
97 397
98 207
99 143
100 94
101 161
102 61
103 102
104 112
105 241
106 181
107 399
108 371
109 602
110 469
111 293
112 121
113 110
114 116
115 218
116 68
117 152
118 140
119 203
120 134
121 424
122 362
123 420
124 357
125 194
126 113
127 127
128 127
129 221
130 113
131 210
132 106
133 174
134 87
135 386
136 398
137 344
138 299
139 158
140 149
141 213
142 104
143 187
144 92
145 119
146 77
147 166
148 98
149 343
150 463
151 229
152 219
153 148
154 201
155 124
156 107
157 103
158 5
159 148
160 101
161 130
162 46
163 208
164 305
165 200
166 179
167 186
168 166
169 36
170 20
171 57
173 130
174 57
175 92
176 47
177 244
178 253
179 163
180 127
181 141
182 134
183 73
184 48
185 54
186 25
187 100
188 33
189 8
191 146
192 106
193 110
194 74
195 148
196 157
197 27
198 5
201 58
203 8
205 104
206 156
207 63
208 102
209 125
210 80
211 10
215 14
218 76
219 66
220 226
221 77
222 60
223 133
224 118
225 1
233 46
234 70
235 42
237 74
238 38
239 3
244 19
245 126
246 44
251 67
252 22
262 223
263 300
264 139
265 68
266 19
294 460
295 201
296 62

$$$$

     RDKit          2D

 21 20  0  0  0  0  0  0  0  0999 V2000
    6.4952   10.5000    0.0000 C   0  0  0  0  0  0  0  0  0  0  0  0
  -18.1865   11.2500    0.0000 C   0  0  0  0  0  0  0  0  0  0  0  0
    5.1962   11.2500    0.0000 C   0  0  0  0  0  0  0  0  0  0  0  0
    3.8971   10.5000    0.0000 C   0  0  0  0  0  0  0  0  0  0  0  0
    2.5981   11.2500    0.0000 C   0  0  0  0  0  0  0  0  0  0  0  0
    1.2990   10.5000    0.0000 C   0  0  0  0  0  0  0  0  0  0  0  0
    0.0000   11.2500    0.0000 C   0  0  0  0  0  0  0  0  0  0  0  0
   -1.2990   10.5000    0.0000 C   0  0  0  0  0  0  0  0  0  0  0  0
   -2.5981   11.2500    0.0000 C   0  0  0  0  0  0  0  0  0  0  0  0
   -3.8971   10.5000    0.0000 C   0  0  0  0  0  0  0  0  0  0  0  0
   -5.1962   11.2500    0.0000 C   0  0  0  0  0  0  0  0  0  0  0  0
   -6.4952   10.5000    0.0000 C   0  0  0  0  0  0  0  0  0  0  0  0
   -7.7942   11.2500    0.0000 C   0  0  0  0  0  0  0  0  0  0  0  0
   -9.0933   10.5000    0.0000 C   0  0  0  0  0  0  0  0  0  0  0  0
  -10.3923   11.2500    0.0000 C   0  0  0  0  0  0  0  0  0  0  0  0
  -11.6913   10.5000    0.0000 C   0  0  0  0  0  0  0  0  0  0  0  0
  -12.9904   11.2500    0.0000 C   0  0  0  0  0  0  0  0  0  0  0  0
  -14.2894   10.5000    0.0000 C   0  0  0  0  0  0  0  0  0  0  0  0
  -15.5885   11.2500    0.0000 C   0  0  0  0  0  0  0  0  0  0  0  0
  -15.5885   12.7500    0.0000 O   0  0  0  0  0  0  0  0  0  0  0  0
  -16.8875   10.5000    0.0000 O   0  0  0  0  0  0  0  0  0  0  0  0
  3  1  1  0
  4  3  1  0
  5  4  1  0
  6  5  1  0
  7  6  1  0
  8  7  1  0
  9  8  1  0
 10  9  1  0
 10 11  2  0
 12 11  1  0
 13 12  1  0
 14 13  1  0
 15 14  1  0
 16 15  1  0
 17 16  1  0
 18 17  1  0
 19 18  1  0
 20 19  2  0
 21  2  1  0
 21 19  1  0
M  END
>  <NAME>  (4778) 
METHYL-9-OCTADECENOATE

>  <SYNONYMS>  (4778) 


>  <SPECTRUM TYPE>  (4778) 
MS1

>  <INSTRUMENT TYPE>  (4778) 
EI-B

>  <INSTRUMENT>  (4778) 
SHIMADZU LKB-9000B

>  <ION MODE>  (4778) 
P

>  <INCHIKEY>  (4778) 
QYDYPVFESGNLHU-ZHACJKMWSA-N

>  <FORMULA>  (4778) 
C19H36O2

>  <EXACT MASS>  (4778) 
296.271530392

>  <MW>  (4778) 
296

>  <ID>  (4778) 
JP002662

>  <CONTRIBUTOR>  (4778) 
University of Tokyo Team, {Faculty of Engineering, University of Tokyo

>  <COMMENT>  (4778) 
SMILES=CCCCCCCCC=CCCCCCCCC(=O)OC
InChI=InChI=1S/C19H36O2/c1-3-4-5-6-7-8-9-10-11-12-13-14-15-16-17-18-19(20)21-2/h10-11H,3-9,12-18H2,1-2H3/b11-10+
computed SMILES=O=C(OC)CCCCCCCC=CCCCCCCCC
accession=JP002662
date=2016.01.19 (Created 2008.10.21, modified 2011.05.06)
author=HAYASHI A, DEPT. OF CHEMISTRY, FAC. OF SCI. AND TECHNOLOGY, KINKI UNIV.
license=CC BY-NC-SA
exact mass=296.27153
ionization energy=70 eV
ion type=[M]+*
computed spectral entropy=4.147547886788386
computed normalized entropy=0.8534378576148269
SPLASH=splash10-03ea-7930000000-17eb05bbccb341c02e68
submitter=submitter = University of Tokyo Team (Faculty of Engineering, University of Tokyo)
MoNA Rating=3.75

>  <NUM PEAKS>  (4778) 
129

>  <MASS SPECTRAL PEAKS>  (4778) 
53 1
54 7.3
55 16.6
57 0.54
59 5.9
67 27
68 21.2
69 6.03
70 10.7
71 7.7
74 67.1
75 0.14
79 12.2
80 9
81 47.5
82 3.28
83 80
84 62.5
85 15
87 6.62
88 1.8
91 5
93 11.2
94 1.14
95 43.6
96 85.9
97 92.7
98 7.88
105 5.4
106 2.8
107 8.9
108 0.91
109 37.3
110 58.7
111 62
112 2.24
113 10.5
115 9.9
116 3.3
119 1.03
120 5.7
121 16
122 8
123 4.84
124 37.7
125 37.5
127 5.2
128 1.19
129 10.5
130 3.5
131 1.4
133 1.03
134 11
135 13.8
136 6.5
137 3.57
138 28.8
139 24
140 3.6
141 2.32
142 4.9
143 13.8
144 3.2
146 4.38
147 5.2
148 9.7
149 11.8
150 0.6
151 25.2
152 28.7
153 18.2
154 0.27
155 7.1
156 2.8
157 6.7
158 2.73
161 5.5
162 5.3
163 5.4
164 0.52
165 16.2
166 23.3
167 12.1
168 0.29
169 10
170 3.7
171 1.8
172 0.1
173 1.1
175 5.7
177 4.1
178 0.29
179 9.8
180 44.4
181 11.1
183 0.63
185 4.5
187 5.8
188 62
189 1.05
191 4.6
193 7.4
194 9.4
195 0.37
199 6
200 2.9
204 3.2
207 0.63
208 6.9
209 3.1
213 4.4
214 2.62
215 3.2
220 18.4
221 16.4
222 5.18
223 14
235 10.7
236 7.1
246 0.81
247 4.8
253 2.6
264 99.99
265 59.5
266 11.6
267 3.6
280 3.1
296 1.8
297 4.2

>  <PREDICTED SPECTRUM>  (4778) 
14 5
15 65
16 14
17 23
18 28
25 0
26 45
27 189
28 183
29 312
30 94
31 89
32 40
33 21
36 5
38 7
39 228
40 126
41 617
42 308
43 590
44 160
45 127
50 43
51 97
52 111
53 311
54 495
55 999
56 504
57 583
58 80
59 454
60 107
61 60
62 59
63 47
65 161
66 142
67 591
68 466
69 809
70 424
71 332
72 142
73 183
74 742
75 304
76 70
77 140
78 85
79 303
80 229
81 565
82 500
83 714
84 595
85 321
86 52
87 608
88 166
89 51
91 177
92 79
93 171
94 187
95 498
96 633
97 652
98 552
99 201
100 114
101 284
102 92
104 1
105 112
106 94
107 148
108 170
109 400
110 476
111 477
112 233
113 189
114 243
115 264
116 87
117 27
118 22
119 163
120 104
121 197
122 120
123 382
124 306
125 341
126 147
127 158
128 169
129 190
130 70
131 28
132 1
133 152
134 150
135 158
136 102
137 277
138 313
139 235
140 133
141 287
142 118
143 210
144 82
145 25
146 24
147 113
148 122
149 122
150 73
151 246
152 286
153 181
154 79
155 83
156 45
157 123
158 52
159 2
160 15
161 153
162 87
163 86
164 106
165 173
166 230
167 136
168 73
169 182
170 38
171 87
172 25
174 2
175 58
176 46
177 44
178 65
179 179
180 332
181 171
182 35
183 89
185 77
186 53
189 36
191 29
193 118
194 116
195 52
196 52
197 88
199 98
200 74
203 11
206 21
207 105
208 98
209 32
210 23
211 23
213 51
214 42
220 231
221 190
222 399
223 174
224 53
225 26
227 10
228 17
235 131
236 125
237 43
239 10
241 20
246 138
247 127
248 68
249 6
253 47
262 37
263 21
264 552
265 446
266 134
267 40
296 240
297 102
298 46

$$$$

     RDKit          2D

 18 17  0  0  0  0  0  0  0  0999 V2000
    4.5466    7.8750    0.0000 C   0  0  0  0  0  0  0  0  0  0  0  0
  -13.6399    7.8750    0.0000 C   0  0  0  0  0  0  0  0  0  0  0  0
    3.2476    8.6250    0.0000 C   0  0  0  0  0  0  0  0  0  0  0  0
  -12.3409    8.6250    0.0000 C   0  0  0  0  0  0  0  0  0  0  0  0
    1.9486    7.8750    0.0000 C   0  0  0  0  0  0  0  0  0  0  0  0
  -11.0418    7.8750    0.0000 C   0  0  0  0  0  0  0  0  0  0  0  0
    0.6495    8.6250    0.0000 C   0  0  0  0  0  0  0  0  0  0  0  0
   -9.7428    8.6250    0.0000 C   0  0  0  0  0  0  0  0  0  0  0  0
   -0.6495    7.8750    0.0000 C   0  0  0  0  0  0  0  0  0  0  0  0
   -1.9486    8.6250    0.0000 C   0  0  0  0  0  0  0  0  0  0  0  0
   -8.4437    7.8750    0.0000 C   0  0  0  0  0  0  0  0  0  0  0  0
   -3.2476    7.8750    0.0000 C   0  0  0  0  0  0  0  0  0  0  0  0
   -7.1447    8.6250    0.0000 C   0  0  0  0  0  0  0  0  0  0  0  0
   -4.5466    8.6250    0.0000 C   0  0  0  0  0  0  0  0  0  0  0  0
   -5.8457    7.8750    0.0000 C   0  0  0  0  0  0  0  0  0  0  0  0
   -5.8457    6.3750    0.0000 C   0  0  0  0  0  0  0  0  0  0  0  0
   -4.5466    5.6250    0.0000 O   0  0  0  0  0  0  0  0  0  0  0  0
   -7.1447    5.6250    0.0000 O   0  0  0  0  0  0  0  0  0  0  0  0
  3  1  1  0
  4  2  1  0
  5  3  1  0
  6  4  1  0
  7  5  1  0
  8  6  1  0
  9  7  1  0
 10  9  1  0
 11  8  1  0
 12 10  1  0
 13 11  1  0
 14 12  1  0
 15 13  1  0
 15 14  1  0
 16 15  1  0
 17 16  2  0
 18 16  1  0
M  END
>  <NAME>  (4779) 
2-HEXYLDECANOIC ACID

>  <SYNONYMS>  (4779) 


>  <SPECTRUM TYPE>  (4779) 
MS1

>  <INSTRUMENT TYPE>  (4779) 
EI-B

>  <INSTRUMENT>  (4779) 
JEOL JMS-01-SG

>  <ION MODE>  (4779) 
P

>  <INCHIKEY>  (4779) 
JMOLZNNXZPAGBH-UHFFFAOYSA-N

>  <FORMULA>  (4779) 
C16H32O2

>  <EXACT MASS>  (4779) 
256.240230264

>  <MW>  (4779) 
256

>  <ID>  (4779) 
JP002656

>  <CONTRIBUTOR>  (4779) 
University of Tokyo Team, {Faculty of Engineering, University of Tokyo

>  <COMMENT>  (4779) 
SMILES=CCCCCCCCC(CCCCCC)C(O)=O
InChI=InChI=1S/C16H32O2/c1-3-5-7-9-10-12-14-15(16(17)18)13-11-8-6-4-2/h15H,3-14H2,1-2H3,(H,17,18)
computed SMILES=O=C(O)C(CCCCCC)CCCCCCCC
accession=JP002656
date=2016.01.19 (Created 2008.10.21, modified 2011.05.06)
author=KOGA M, UNIV. OF OCCUPATIONAL AND ENVIRONMENTAL HEALTH
license=CC BY-NC-SA
exact mass=256.24023
ionization energy=70 eV
ion type=[M]+*
computed spectral entropy=3.231379331445774
computed normalized entropy=0.8488746612365794
SPLASH=splash10-0avi-9600000000-820b256082ea8eaa7bd3
submitter=submitter = University of Tokyo Team (Faculty of Engineering, University of Tokyo)
MoNA Rating=3.75

>  <NUM PEAKS>  (4779) 
45

>  <MASS SPECTRAL PEAKS>  (4779) 
41 29.9
42 6.3
44 10.4
53 0.82
55 99.99
56 15.3
57 62.5
60 3.48
67 14.9
68 7.1
69 58.8
70 1.31
71 34
73 17.9
74 17.9
77 0.78
81 8.9
82 8.9
83 31.4
84 1.87
85 16.8
87 96.6
88 10.1
97 1.94
98 15.7
101 94
102 9.7
110 0.59
111 7.4
115 47.5
116 6.7
129 6.59
130 8.9
143 33.3
144 11.9
145 1.42
157 43.4
171 15.7
172 75.2
173 0.71
185 30.7
186 6.7
199 11.9
213 0.56
256 13.8

>  <PREDICTED SPECTRUM>  (4779) 
15 24
17 9
18 43
25 11
26 71
27 342
28 178
29 510
30 64
31 148
32 10
37 13
38 30
39 343
40 158
41 866
42 393
43 979
44 236
45 257
46 20
50 20
51 43
52 55
53 231
54 223
55 851
56 455
57 710
58 196
59 230
60 284
61 74
65 90
66 88
67 308
68 245
69 543
70 316
71 427
72 203
73 999
74 277
75 154
77 59
78 24
79 144
80 113
81 223
82 195
83 472
84 276
85 249
86 69
87 517
88 181
89 21
93 75
94 34
95 165
96 185
97 287
98 276
99 187
100 182
101 487
102 294
103 27
107 64
108 70
109 169
110 77
111 189
112 164
113 115
114 101
115 320
116 329
117 108
124 33
125 64
126 154
127 240
128 72
129 504
130 329
131 160
135 5
137 56
138 50
139 121
140 99
141 58
143 488
144 478
145 95
146 15
153 12
154 17
155 49
156 86
157 394
158 170
171 219
172 631
173 184
174 29
185 368
186 105
199 119
200 32
213 97
214 3
227 142
228 39
256 287
257 105
258 20

$$$$

     RDKit          2D

 19 18  0  0  0  0  0  0  0  0999 V2000
  -16.2380   10.1250    0.0000 C   0  0  0  0  0  0  0  0  0  0  0  0
    5.8457    9.3750    0.0000 C   0  0  0  0  0  0  0  0  0  0  0  0
  -14.9389    9.3750    0.0000 C   0  0  0  0  0  0  0  0  0  0  0  0
  -13.6399   10.1250    0.0000 C   0  0  0  0  0  0  0  0  0  0  0  0
  -12.3409    9.3750    0.0000 C   0  0  0  0  0  0  0  0  0  0  0  0
  -11.0418   10.1250    0.0000 C   0  0  0  0  0  0  0  0  0  0  0  0
   -9.7428    9.3750    0.0000 C   0  0  0  0  0  0  0  0  0  0  0  0
   -8.4437   10.1250    0.0000 C   0  0  0  0  0  0  0  0  0  0  0  0
   -7.1447    9.3750    0.0000 C   0  0  0  0  0  0  0  0  0  0  0  0
   -5.8457   10.1250    0.0000 C   0  0  0  0  0  0  0  0  0  0  0  0
   -4.5466    9.3750    0.0000 C   0  0  0  0  0  0  0  0  0  0  0  0
   -3.2476   10.1250    0.0000 C   0  0  0  0  0  0  0  0  0  0  0  0
   -1.9486    9.3750    0.0000 C   0  0  0  0  0  0  0  0  0  0  0  0
   -0.6495   10.1250    0.0000 C   0  0  0  0  0  0  0  0  0  0  0  0
    0.6495    9.3750    0.0000 C   0  0  0  0  0  0  0  0  0  0  0  0
    1.9486   10.1250    0.0000 C   0  0  0  0  0  0  0  0  0  0  0  0
    3.2476    9.3750    0.0000 C   0  0  0  0  0  0  0  0  0  0  0  0
    3.2476    7.8750    0.0000 O   0  0  0  0  0  0  0  0  0  0  0  0
    4.5466   10.1250    0.0000 O   0  0  0  0  0  0  0  0  0  0  0  0
  3  1  1  0
  4  3  1  0
  5  4  1  0
  6  5  1  0
  7  6  1  0
  8  7  1  0
  9  8  1  0
 10  9  1  0
 11 10  1  0
 12 11  1  0
 13 12  1  0
 14 13  1  0
 15 14  1  0
 15 16  2  0
 17 16  1  0
 18 17  2  0
 19  2  1  0
 19 17  1  0
M  END
>  <NAME>  (4780) 
2-HEXADECENOIC ACID METHYL ESTER

>  <SYNONYMS>  (4780) 


>  <SPECTRUM TYPE>  (4780) 
MS1

>  <INSTRUMENT TYPE>  (4780) 
EI-B

>  <INSTRUMENT>  (4780) 
JEOL JMS-01-SG

>  <ION MODE>  (4780) 
P

>  <INCHIKEY>  (4780) 
ODPLFJYILBATKC-FOCLMDBBSA-N

>  <FORMULA>  (4780) 
C17H32O2

>  <EXACT MASS>  (4780) 
268.240230264

>  <MW>  (4780) 
268

>  <ID>  (4780) 
JP002654

>  <CONTRIBUTOR>  (4780) 
University of Tokyo Team, {Faculty of Engineering, University of Tokyo

>  <COMMENT>  (4780) 
SMILES=CCCCCCCCCCCCCC=CC(=O)OC
InChI=InChI=1S/C17H32O2/c1-3-4-5-6-7-8-9-10-11-12-13-14-15-16-17(18)19-2/h15-16H,3-14H2,1-2H3/b16-15+
computed SMILES=O=C(OC)C=CCCCCCCCCCCCCC
accession=JP002654
date=2016.01.19 (Created 2008.10.21, modified 2011.05.06)
author=KOGA M, UNIV. OF OCCUPATIONAL AND ENVIRONMENTAL HEALTH
license=CC BY-NC-SA
exact mass=268.24023
ionization energy=70 eV
ion type=[M]+*
computed spectral entropy=3.1748680763282198
computed normalized entropy=0.892983758951071
SPLASH=splash10-001a-9200000000-215b78e5e80397091531
submitter=submitter = University of Tokyo Team (Faculty of Engineering, University of Tokyo)
MoNA Rating=3.75

>  <NUM PEAKS>  (4780) 
35

>  <MASS SPECTRAL PEAKS>  (4780) 
41 14.2
53 10.1
54 10.3
55 5.76
56 18
57 39.3
59 16.3
67 2.07
68 20.2
69 33.6
70 12.5
71 1.72
74 37.1
81 32.2
82 16.6
83 2.92
84 28.9
85 20.3
87 99.99
95 1.99
96 26.5
97 26.7
98 22.9
100 1.5
101 16.6
109 11.4
110 12.8
111 1.33
113 36.3
127 9
141 11.7
152 0.9
194 9.8
236 9.8
237 10.3

>  <PREDICTED SPECTRUM>  (4780) 
15 22
17 3
18 3
25 11
26 79
27 298
28 177
29 401
30 61
31 83
32 28
33 41
36 24
37 18
38 57
39 349
40 194
41 806
42 354
43 844
44 197
45 171
50 38
51 118
52 97
53 340
54 460
55 999
56 477
57 690
58 157
59 513
60 85
61 104
62 50
63 37
65 171
66 160
67 603
68 468
69 694
70 343
71 448
72 172
73 225
74 732
75 309
76 28
77 188
78 81
79 329
80 262
81 623
82 474
83 619
84 478
85 420
86 144
87 834
88 184
89 42
91 183
92 91
93 247
94 206
95 539
96 532
97 626
98 505
99 322
100 408
101 393
102 101
103 28
105 118
106 60
107 186
108 232
109 394
110 413
111 494
112 236
113 499
114 381
115 314
116 144
117 30
119 107
120 57
121 187
122 132
123 374
124 290
125 235
126 104
127 269
128 202
129 208
130 106
131 36
132 1
133 161
134 123
135 159
136 131
137 272
138 310
139 206
140 67
141 373
142 204
143 219
144 97
145 19
147 86
148 76
149 113
150 97
151 211
152 274
153 184
154 63
155 173
156 127
157 127
158 78
159 11
161 15
162 4
163 14
164 40
165 160
166 189
167 106
168 61
169 167
170 93
171 171
172 105
175 13
176 92
177 60
178 40
179 91
180 124
181 72
182 25
183 138
184 13
185 158
186 95
192 180
193 157
194 348
195 181
197 92
199 61
200 42
201 32
207 72
208 176
209 122
211 60
212 1
213 22
218 44
219 16
225 92
226 34
227 26
236 357
237 251
238 114
239 58
240 27
250 23
268 262
269 93

$$$$

     RDKit          2D

 16 17  0  0  0  0  0  0  0  0999 V2000
    7.3099    6.1357    0.0000 C   0  0  0  0  0  0  0  0  0  0  0  0
   -2.5200    0.5000    0.0000 C   0  0  0  0  0  0  0  0  0  0  0  0
   -2.5300   -1.0000    0.0000 C   0  0  0  0  0  0  0  0  0  0  0  0
    3.4366    2.6719    0.0000 C   0  0  0  0  0  0  0  0  0  0  0  0
    1.9684    2.3650    0.0000 C   0  0  0  0  0  0  0  0  0  0  0  0
   -1.2200    1.2400    0.0000 C   0  0  0  0  0  0  0  0  0  0  0  0
   -1.2300   -1.7600    0.0000 C   0  0  0  0  0  0  0  0  0  0  0  0
    3.9050    4.0969    0.0000 C   0  0  0  0  0  0  0  0  0  0  0  0
    2.3800   -0.2700    0.0000 C   0  0  0  0  0  0  0  0  0  0  0  0
    1.5000    0.9400    0.0000 C   0  0  0  0  0  0  0  0  0  0  0  0
    0.0800    0.4900    0.0000 C   0  0  0  0  0  0  0  0  0  0  0  0
    0.0700   -1.0100    0.0000 C   0  0  0  0  0  0  0  0  0  0  0  0
    5.3733    4.4038    0.0000 C   0  0  0  0  0  0  0  0  0  0  0  0
    1.5000   -1.4800    0.0000 N   0  0  0  0  0  0  0  0  0  0  0  0
    6.3732    3.2857    0.0000 O   0  0  0  0  0  0  0  0  0  0  0  0
    5.8416    5.8288    0.0000 O   0  0  0  0  0  0  0  0  0  0  0  0
  3  2  2  0
  5  4  1  0
  6  2  1  0
  7  3  1  0
  8  4  1  0
 10  5  1  0
 10  9  2  0
 11  6  2  0
 11 10  1  0
 12  7  2  0
 12 11  1  0
 13  8  1  0
 14  9  1  0
 14 12  1  0
 15 13  2  0
 16  1  1  0
 16 13  1  0
M  END
>  <NAME>  (4781) 
3-INDOLEBUTYRIC ACID METHYL ESTER

>  <SYNONYMS>  (4781) 


>  <SPECTRUM TYPE>  (4781) 
MS1

>  <INSTRUMENT TYPE>  (4781) 
EI-B

>  <INSTRUMENT>  (4781) 
JEOL JMS-01-SG

>  <ION MODE>  (4781) 
P

>  <INCHIKEY>  (4781) 
ZEJUFCOACOWDPP-UHFFFAOYSA-N

>  <FORMULA>  (4781) 
C13H15NO2

>  <EXACT MASS>  (4781) 
217.11027872

>  <MW>  (4781) 
217

>  <ID>  (4781) 
JP002653

>  <CONTRIBUTOR>  (4781) 
University of Tokyo Team, {Faculty of Engineering, University of Tokyo

>  <COMMENT>  (4781) 
SMILES=COC(=O)CCCC1=CNC2=CC=CC=C21
InChI=InChI=1S/C13H15NO2/c1-16-13(15)8-4-5-10-9-14-12-7-3-2-6-11(10)12/h2-3,6-7,9,14H,4-5,8H2,1H3
computed SMILES=O=C(OC)CCCC1=CNC=2C=CC=CC21
accession=JP002653
date=2016.01.19 (Created 2008.10.21, modified 2011.05.06)
author=KOGA M, UNIV. OF OCCUPATIONAL AND ENVIRONMENTAL HEALTH
license=CC BY-NC-SA
exact mass=217.11028
ionization energy=70 eV
ion type=[M]+*
computed spectral entropy=2.6649176310312757
computed normalized entropy=0.7835233689757041
SPLASH=splash10-014l-2920000000-52fdd1c03c70a3ca305a
submitter=submitter = University of Tokyo Team (Faculty of Engineering, University of Tokyo)
MoNA Rating=3.75

>  <NUM PEAKS>  (4781) 
30

>  <MASS SPECTRAL PEAKS>  (4781) 
42 9.8
51 14.3
55 4.5
63 0.65
65 15.6
75 4.5
76 5.2
77 4.18
78 5.2
79 5.2
89 5.2
102 1.17
103 26.1
115 15.6
116 4.5
117 0.91
127 4.5
128 11.1
129 21.5
130 8.56
131 49.6
142 7.1
143 90.8
144 2.48
156 16.3
157 5.2
186 39.2
187 0.52
217 99.99
218 1.1

>  <PREDICTED SPECTRUM>  (4781) 
16 14
17 2
27 30
28 18
29 44
31 5
39 52
40 23
41 80
42 45
43 53
44 55
45 26
50 52
51 123
52 45
53 28
55 92
56 23
57 144
58 37
59 52
60 3
62 25
63 97
64 37
65 59
66 8
67 2
69 41
71 21
74 50
75 72
76 92
77 284
78 93
83 4
84 39
85 61
86 11
87 54
89 111
90 61
91 92
95 8
98 20
99 13
101 43
102 112
103 205
104 23
105 14
113 42
115 200
116 195
117 279
118 132
126 42
127 85
128 227
129 263
130 999
131 372
141 109
142 167
143 381
144 391
145 135
146 18
156 61
157 31
158 113
169 41
171 33
172 10
186 285
187 76
188 17
202 12
203 12
214 54
215 114
216 93
217 687
218 285
219 115

$$$$

     RDKit          2D

 15 16  0  0  0  0  0  0  0  0999 V2000
    5.8416    5.8288    0.0000 C   0  0  0  0  0  0  0  0  0  0  0  0
   -2.5200    0.5000    0.0000 C   0  0  0  0  0  0  0  0  0  0  0  0
   -2.5300   -1.0000    0.0000 C   0  0  0  0  0  0  0  0  0  0  0  0
   -1.2200    1.2400    0.0000 C   0  0  0  0  0  0  0  0  0  0  0  0
   -1.2300   -1.7600    0.0000 C   0  0  0  0  0  0  0  0  0  0  0  0
    1.9684    2.3650    0.0000 C   0  0  0  0  0  0  0  0  0  0  0  0
    3.4366    2.6719    0.0000 C   0  0  0  0  0  0  0  0  0  0  0  0
    2.3800   -0.2700    0.0000 C   0  0  0  0  0  0  0  0  0  0  0  0
    1.5000    0.9400    0.0000 C   0  0  0  0  0  0  0  0  0  0  0  0
    0.0800    0.4900    0.0000 C   0  0  0  0  0  0  0  0  0  0  0  0
    0.0700   -1.0100    0.0000 C   0  0  0  0  0  0  0  0  0  0  0  0
    3.9050    4.0969    0.0000 C   0  0  0  0  0  0  0  0  0  0  0  0
    1.5000   -1.4800    0.0000 N   0  0  0  0  0  0  0  0  0  0  0  0
    2.9051    5.2150    0.0000 O   0  0  0  0  0  0  0  0  0  0  0  0
    5.3733    4.4038    0.0000 O   0  0  0  0  0  0  0  0  0  0  0  0
  3  2  2  0
  4  2  1  0
  5  3  1  0
  6  7  2  0
  9  6  1  0
  9  8  2  0
 10  4  2  0
 10  9  1  0
 11  5  2  0
 11 10  1  0
 12  7  1  0
 13  8  1  0
 13 11  1  0
 14 12  2  0
 15  1  1  0
 15 12  1  0
M  END
>  <NAME>  (4782) 
3-INDOLEACRYLIC ACID METHYL ESTER

>  <SYNONYMS>  (4782) 


>  <SPECTRUM TYPE>  (4782) 
MS1

>  <INSTRUMENT TYPE>  (4782) 
EI-B

>  <INSTRUMENT>  (4782) 
JEOL JMS-01-SG

>  <ION MODE>  (4782) 
P

>  <INCHIKEY>  (4782) 
JKVXFZPEUCTHQO-VOTSOKGWSA-N

>  <FORMULA>  (4782) 
C12H11NO2

>  <EXACT MASS>  (4782) 
201.078978592

>  <MW>  (4782) 
201

>  <ID>  (4782) 
JP002652

>  <CONTRIBUTOR>  (4782) 
University of Tokyo Team, {Faculty of Engineering, University of Tokyo

>  <COMMENT>  (4782) 
SMILES=COC(=O)/C=C/C1=CNC2=CC=CC=C21
InChI=InChI=1S/C12H11NO2/c1-15-12(14)7-6-9-8-13-11-5-3-2-4-10(9)11/h2-8,13H,1H3/b7-6+
computed SMILES=O=C(OC)C=CC1=CNC=2C=CC=CC12
accession=JP002652
date=2016.01.19 (Created 2008.10.21, modified 2011.05.06)
author=KOGA M, UNIV. OF OCCUPATIONAL AND ENVIRONMENTAL HEALTH
license=CC BY-NC-SA
exact mass=201.07898
ionization energy=70 eV
ion type=[M]+*
computed spectral entropy=2.3582556559898387
computed normalized entropy=0.7745896784236715
SPLASH=splash10-00di-1900000000-e32b1efad45ef203fff8
submitter=submitter = University of Tokyo Team (Faculty of Engineering, University of Tokyo)
MoNA Rating=3.75

>  <NUM PEAKS>  (4782) 
21

>  <MASS SPECTRAL PEAKS>  (4782) 
42 4
63 5.6
67 8.1
70 0.65
71 13
89 5.6
100 9.7
107 0.73
114 12.1
115 46.3
116 5.6
130 1.3
140 5.6
141 15.4
142 17
143 2.03
156 9.7
170 99.99
171 13
201 8.37
202 6.5

>  <PREDICTED SPECTRUM>  (4782) 
26 6
33 4
37 16
38 68
39 134
40 39
41 61
43 82
44 62
45 29
49 23
50 139
51 181
52 135
53 96
54 37
57 13
58 22
59 36
61 97
62 199
63 247
64 144
65 123
66 8
71 6
73 25
74 137
75 204
76 139
77 191
78 50
82 2
83 48
84 77
85 59
86 107
87 123
88 172
89 225
90 217
91 133
96 1
97 33
98 50
99 52
100 22
101 120
102 159
103 135
104 56
110 37
112 55
113 116
114 233
115 614
116 300
117 118
118 2
127 11
128 144
129 182
130 102
131 45
139 17
140 274
141 329
142 305
143 537
144 204
155 26
156 132
157 69
158 49
168 77
169 31
170 999
171 354
172 159
173 30
185 22
186 103
200 100
201 898
202 308
203 122

$$$$

     RDKit          2D

 15 14  0  0  0  0  0  0  0  0999 V2000
    3.0227    2.4827    0.0000 C   0  0  0  0  0  0  0  0  0  0  0  0
   -4.7716    2.4827    0.0000 C   0  0  0  0  0  0  0  0  0  0  0  0
    0.5409    6.9404    0.0000 C   0  0  0  0  0  0  0  0  0  0  0  0
   -4.2800    5.2704    0.0000 C   0  0  0  0  0  0  0  0  0  0  0  0
    1.7236    3.2327    0.0000 C   0  0  0  0  0  0  0  0  0  0  0  0
   -3.4725    3.2327    0.0000 C   0  0  0  0  0  0  0  0  0  0  0  0
    0.4246    2.4827    0.0000 C   0  0  0  0  0  0  0  0  0  0  0  0
   -2.1735    2.4827    0.0000 C   0  0  0  0  0  0  0  0  0  0  0  0
    0.0897    4.3818    0.0000 C   0  0  0  0  0  0  0  0  0  0  0  0
   -1.8386    4.3818    0.0000 C   0  0  0  0  0  0  0  0  0  0  0  0
   -0.8744    3.2327    0.0000 C   0  0  0  0  0  0  0  0  0  0  0  0
    1.5669    4.1213    0.0000 O   0  0  0  0  0  0  0  0  0  0  0  0
   -1.3256    5.7913    0.0000 O   0  0  0  0  0  0  0  0  0  0  0  0
   -0.4233    5.7913    0.0000 O   0  0  0  0  0  0  0  0  0  0  0  0
   -3.3158    4.1213    0.0000 O   0  0  0  0  0  0  0  0  0  0  0  0
  5  1  1  0
  6  2  1  0
  7  5  1  0
  8  6  1  0
 11  7  1  0
 11  8  1  0
 11  9  1  0
 11 10  1  0
 12  9  2  0
 13 10  2  0
 14  3  1  0
 14  9  1  0
 15  4  1  0
 15 10  1  0
M  END
>  <NAME>  (4783) 
HEPTANE-4,4-DICARBOXYLIC ACID DIMETHYL ESTER

>  <SYNONYMS>  (4783) 


>  <SPECTRUM TYPE>  (4783) 
MS1

>  <INSTRUMENT TYPE>  (4783) 
EI-B

>  <INSTRUMENT>  (4783) 
JEOL JMS-01-SG

>  <ION MODE>  (4783) 
P

>  <INCHIKEY>  (4783) 
ZFMAHACGDXIMSE-UHFFFAOYSA-N

>  <FORMULA>  (4783) 
C11H20O4

>  <EXACT MASS>  (4783) 
216.13615912

>  <MW>  (4783) 
216

>  <ID>  (4783) 
JP002650

>  <CONTRIBUTOR>  (4783) 
University of Tokyo Team, {Faculty of Engineering, University of Tokyo

>  <COMMENT>  (4783) 
SMILES=CCCC(CCC)(C(=O)OC)C(=O)OC
InChI=InChI=1S/C11H20O4/c1-5-7-11(8-6-2,9(12)14-3)10(13)15-4/h5-8H2,1-4H3
computed SMILES=O=C(OC)C(C(=O)OC)(CCC)CCC
accession=JP002650
date=2016.01.19 (Created 2008.10.21, modified 2011.05.06)
author=KOGA M, UNIV. OF OCCUPATIONAL AND ENVIRONMENTAL HEALTH
license=CC BY-NC-SA
exact mass=216.13616
ionization energy=70 eV
ion type=[M]+*
computed spectral entropy=2.9391583461218556
computed normalized entropy=0.8641540070472173
SPLASH=splash10-06r2-6900000000-a4ab0e98365e99e7ce02
submitter=submitter = University of Tokyo Team (Faculty of Engineering, University of Tokyo)
MoNA Rating=3.75

>  <NUM PEAKS>  (4783) 
30

>  <MASS SPECTRAL PEAKS>  (4783) 
44 9.8
53 11.9
55 81.7
56 0.96
59 46.4
67 13.9
69 23.7
73 4.36
82 7.2
83 13.4
85 7
87 0.87
95 17.3
97 61.2
109 8.3
110 3.85
113 84.3
114 33.8
125 7.9
127 2.93
141 21.6
142 24.8
143 32.1
145 99.99
146 22
155 11.7
156 16.2
157 4.17
174 50.9
185 17.5

>  <PREDICTED SPECTRUM>  (4783) 
14 2
15 163
16 24
17 38
18 67
25 4
26 117
27 476
28 203
29 374
30 58
31 163
32 72
33 123
37 28
38 77
39 523
40 226
41 899
42 309
43 999
44 241
45 280
50 81
51 220
52 125
53 322
54 116
55 642
56 228
57 523
58 122
59 642
60 33
63 23
65 43
67 212
68 73
69 712
70 79
71 400
72 21
73 262
74 145
77 205
79 128
80 38
81 204
82 85
83 257
84 170
85 637
86 131
87 546
88 117
95 12
96 91
97 425
98 172
99 281
100 208
101 496
102 112
103 37
104 60
109 41
113 433
114 241
115 755
116 262
125 133
126 22
127 222
128 304
129 315
130 266
131 313
132 79
133 68
141 184
142 206
143 306
144 131
145 469
146 219
156 33
157 726
158 332
159 176
160 15
173 636
174 366
175 89
185 275
186 40
187 158
188 68
216 45

$$$$

     RDKit          2D

 14 14  0  0  0  0  0  0  0  0999 V2000
   -4.1876   -2.8302    0.0000 C   0  0  0  0  0  0  0  0  0  0  0  0
    1.0100    0.1702    0.0000 C   0  0  0  0  0  0  0  0  0  0  0  0
   -0.2900   -0.5798    0.0000 C   0  0  0  0  0  0  0  0  0  0  0  0
   -0.2900    2.4202    0.0000 C   0  0  0  0  0  0  0  0  0  0  0  0
    1.0100    1.6702    0.0000 C   0  0  0  0  0  0  0  0  0  0  0  0
   -1.5900    0.1702    0.0000 C   0  0  0  0  0  0  0  0  0  0  0  0
   -1.5900    1.6702    0.0000 C   0  0  0  0  0  0  0  0  0  0  0  0
   -2.8889   -0.5800    0.0000 C   0  0  0  0  0  0  0  0  0  0  0  0
   -2.8889    2.4204    0.0000 Cl  0  0  0  0  0  0  0  0  0  0  0  0
    2.3089    2.4204    0.0000 N   0  0  0  0  0  0  0  0  0  0  0  0
   -4.1881    0.1698    0.0000 O   0  0  0  0  0  0  0  0  0  0  0  0
    3.6081    1.6706    0.0000 O   0  0  0  0  0  0  0  0  0  0  0  0
    2.3087    3.9204    0.0000 O   0  0  0  0  0  0  0  0  0  0  0  0
   -2.8887   -2.0800    0.0000 O   0  0  0  0  0  0  0  0  0  0  0  0
  3  2  2  0
  5  2  1  0
  5  4  2  0
  6  3  1  0
  7  4  1  0
  7  6  2  0
  8  6  1  0
  9  7  1  0
 10  5  1  0
 11  8  2  0
 12 10  1  0
 13 10  2  0
 14  1  1  0
 14  8  1  0
M  CHG  2  10   1  12  -1
M  END
>  <NAME>  (4784) 
2-CHLORO-4-NITROBENZOIC ACID METHYL ESTER

>  <SYNONYMS>  (4784) 


>  <SPECTRUM TYPE>  (4784) 
MS1

>  <INSTRUMENT TYPE>  (4784) 
EI-B

>  <INSTRUMENT>  (4784) 
JEOL JMS-01-SG

>  <ION MODE>  (4784) 
P

>  <INCHIKEY>  (4784) 
PICNSXCJRMYANX-UHFFFAOYSA-N

>  <FORMULA>  (4784) 
C8H6ClNO4

>  <EXACT MASS>  (4784) 
214.99853535199998

>  <MW>  (4784) 
215

>  <ID>  (4784) 
JP002649

>  <CONTRIBUTOR>  (4784) 
University of Tokyo Team, {Faculty of Engineering, University of Tokyo

>  <COMMENT>  (4784) 
SMILES=COC(=O)c(c1)c(Cl)cc(c1)[N+1]([O-1])=O
InChI=InChI=1S/C8H6ClNO4/c1-14-8(11)6-3-2-5(10(12)13)4-7(6)9/h2-4H,1H3
computed SMILES=O=C(OC)C1=CC=C(C=C1Cl)N(=O)=O
accession=JP002649
date=2016.01.19 (Created 2008.10.21, modified 2011.05.06)
author=KOGA M, UNIV. OF OCCUPATIONAL AND ENVIRONMENTAL HEALTH
license=CC BY-NC-SA
exact mass=214.99854
ionization energy=70 eV
ion type=[M]+*
computed spectral entropy=2.6128780717256377
computed normalized entropy=0.7682230045845595
SPLASH=splash10-001r-3910000000-ccd41bd60ca98dd8a401
submitter=submitter = University of Tokyo Team (Faculty of Engineering, University of Tokyo)
MoNA Rating=3.75

>  <NUM PEAKS>  (4784) 
30

>  <MASS SPECTRAL PEAKS>  (4784) 
50 4.7
51 2.9
59 7.7
63 1.01
73 3.5
74 23.3
75 37.1
76 0.29
77 4.1
84 2.9
109 3.5
110 1.61
111 2.9
112 2.9
119 7.1
126 1.49
128 4.7
137 4.7
138 29.9
139 0.35
140 9.5
154 21.5
156 3.5
184 99.99
185 9.5
186 32.9
187 2.9
198 0.35
215 26.9
217 7.1

>  <PREDICTED SPECTRUM>  (4784) 
14 28
15 110
16 18
25 0
26 7
28 65
29 137
30 252
31 61
32 0
35 38
36 56
37 96
38 92
39 91
40 5
43 9
44 41
46 22
49 81
50 187
51 146
52 31
53 192
54 40
55 41
56 15
57 14
59 171
60 118
61 135
62 199
63 191
64 68
65 11
68 23
69 27
72 129
73 242
74 449
75 530
76 238
77 116
79 25
81 73
82 51
83 31
84 166
85 106
86 94
87 4
88 11
90 2
91 64
93 19
94 16
95 41
96 41
97 132
98 95
99 87
100 29
101 21
104 44
108 8
109 186
110 326
111 174
112 194
113 199
114 71
115 33
118 54
122 149
126 254
127 47
128 74
129 25
138 277
139 119
140 205
141 253
145 9
154 300
155 49
156 252
157 115
158 63
168 16
169 143
170 152
171 93
172 36
184 999
185 251
186 576
187 188
188 84
199 47
215 589
216 185
217 383
218 111

$$$$

     RDKit          2D

 14 14  0  0  0  0  0  0  0  0999 V2000
   -5.1970   -1.5006    0.0000 C   0  0  0  0  0  0  0  0  0  0  0  0
   -1.3000    0.7500    0.0000 C   0  0  0  0  0  0  0  0  0  0  0  0
    0.0000    1.5000    0.0000 C   0  0  0  0  0  0  0  0  0  0  0  0
    0.0000   -1.5000    0.0000 C   0  0  0  0  0  0  0  0  0  0  0  0
   -1.3000   -0.7500    0.0000 C   0  0  0  0  0  0  0  0  0  0  0  0
    1.3000    0.7500    0.0000 C   0  0  0  0  0  0  0  0  0  0  0  0
    1.3000   -0.7500    0.0000 C   0  0  0  0  0  0  0  0  0  0  0  0
   -2.5989   -1.5002    0.0000 C   0  0  0  0  0  0  0  0  0  0  0  0
    2.5989    1.5002    0.0000 Cl  0  0  0  0  0  0  0  0  0  0  0  0
    2.5989   -1.5002    0.0000 N   0  0  0  0  0  0  0  0  0  0  0  0
   -2.5987   -3.0002    0.0000 O   0  0  0  0  0  0  0  0  0  0  0  0
    3.8981   -0.7504    0.0000 O   0  0  0  0  0  0  0  0  0  0  0  0
    2.5987   -3.0002    0.0000 O   0  0  0  0  0  0  0  0  0  0  0  0
   -3.8981   -0.7504    0.0000 O   0  0  0  0  0  0  0  0  0  0  0  0
  3  2  2  0
  5  2  1  0
  5  4  2  0
  6  3  1  0
  7  4  1  0
  7  6  2  0
  8  5  1  0
  9  6  1  0
 10  7  1  0
 11  8  2  0
 12 10  1  0
 13 10  2  0
 14  1  1  0
 14  8  1  0
M  CHG  2  10   1  12  -1
M  END
>  <NAME>  (4785) 
4-CHLORO-3-NITROBENZOIC ACID METHYL ESTER

>  <SYNONYMS>  (4785) 


>  <SPECTRUM TYPE>  (4785) 
MS1

>  <INSTRUMENT TYPE>  (4785) 
EI-B

>  <INSTRUMENT>  (4785) 
JEOL JMS-01-SG

>  <ION MODE>  (4785) 
P

>  <INCHIKEY>  (4785) 
XRTKWPWDSUNLHS-UHFFFAOYSA-N

>  <FORMULA>  (4785) 
C8H6ClNO4

>  <EXACT MASS>  (4785) 
214.99853535199998

>  <MW>  (4785) 
215

>  <ID>  (4785) 
JP002648

>  <CONTRIBUTOR>  (4785) 
University of Tokyo Team, {Faculty of Engineering, University of Tokyo

>  <COMMENT>  (4785) 
SMILES=COC(=O)c(c1)cc([N+1]([O-1])=O)c(Cl)c1
InChI=InChI=1S/C8H6ClNO4/c1-14-8(11)5-2-3-6(9)7(4-5)10(12)13/h2-4H,1H3
computed SMILES=O=C(OC)C1=CC=C(Cl)C(=C1)N(=O)=O
accession=JP002648
date=2016.01.19 (Created 2008.10.21, modified 2011.05.06)
author=KOGA M, UNIV. OF OCCUPATIONAL AND ENVIRONMENTAL HEALTH
license=CC BY-NC-SA
exact mass=214.99854
ionization energy=70 eV
ion type=[M]+*
computed spectral entropy=2.563574676830731
computed normalized entropy=0.7537271111204723
SPLASH=splash10-001r-1910000000-178cf9d622bc5046e1a5
submitter=submitter = University of Tokyo Team (Faculty of Engineering, University of Tokyo)
MoNA Rating=3.75

>  <NUM PEAKS>  (4785) 
30

>  <MASS SPECTRAL PEAKS>  (4785) 
44 4.6
50 4.6
51 5.2
62 0.23
63 12.1
73 2.8
74 9.2
75 3.69
77 5.7
84 2.3
109 2.8
110 2.25
111 2.8
112 4
126 7.5
137 0.23
138 39.3
139 2.3
140 11.5
153 0.63
154 19.6
155 2.8
156 2.8
169 0.23
184 99.99
185 21.9
186 35.2
187 0.28
215 35.8
217 9.2

>  <PREDICTED SPECTRUM>  (4785) 
14 15
15 82
16 13
25 2
28 32
29 79
30 217
31 18
35 87
36 108
37 136
38 154
39 113
40 46
43 41
44 114
45 104
46 142
47 21
49 154
50 313
51 258
52 102
53 231
54 28
55 79
57 16
59 258
60 206
61 213
62 321
63 386
64 149
65 72
66 6
68 27
69 70
70 48
71 51
72 194
73 435
74 590
75 676
76 355
77 167
78 64
79 44
80 1
81 43
82 64
83 67
84 264
85 206
86 178
87 0
90 6
91 117
92 95
93 10
95 74
96 104
97 280
98 255
99 139
100 141
101 79
103 63
104 41
105 39
107 26
108 146
109 349
110 553
111 185
112 250
113 232
114 37
115 36
118 41
120 59
122 62
125 36
126 494
127 95
128 123
129 110
137 91
138 362
139 197
140 286
141 202
142 6
154 293
155 70
156 268
157 132
158 64
159 10
168 197
169 176
170 229
171 103
172 88
180 85
184 999
185 285
186 528
187 221
188 96
199 42
215 516
216 191
217 341
218 103

$$$$

     RDKit          2D

 14 14  0  0  0  0  0  0  0  0999 V2000
    5.1970   -1.5006    0.0000 C   0  0  0  0  0  0  0  0  0  0  0  0
   -1.3000    0.7500    0.0000 C   0  0  0  0  0  0  0  0  0  0  0  0
    0.0000    1.5000    0.0000 C   0  0  0  0  0  0  0  0  0  0  0  0
   -0.0000   -1.5000    0.0000 C   0  0  0  0  0  0  0  0  0  0  0  0
   -1.3000   -0.7500    0.0000 C   0  0  0  0  0  0  0  0  0  0  0  0
    1.3000   -0.7500    0.0000 C   0  0  0  0  0  0  0  0  0  0  0  0
    1.3000    0.7500    0.0000 C   0  0  0  0  0  0  0  0  0  0  0  0
    2.5989   -1.5002    0.0000 C   0  0  0  0  0  0  0  0  0  0  0  0
   -2.5989   -1.5002    0.0000 Cl  0  0  0  0  0  0  0  0  0  0  0  0
    2.5989    1.5002    0.0000 N   0  0  0  0  0  0  0  0  0  0  0  0
    2.5987   -3.0002    0.0000 O   0  0  0  0  0  0  0  0  0  0  0  0
    2.5987    3.0002    0.0000 O   0  0  0  0  0  0  0  0  0  0  0  0
    3.8981    0.7504    0.0000 O   0  0  0  0  0  0  0  0  0  0  0  0
    3.8981   -0.7504    0.0000 O   0  0  0  0  0  0  0  0  0  0  0  0
  3  2  2  0
  5  2  1  0
  5  4  2  0
  6  4  1  0
  7  3  1  0
  7  6  2  0
  8  6  1  0
  9  5  1  0
 10  7  1  0
 11  8  2  0
 12 10  1  0
 13 10  2  0
 14  1  1  0
 14  8  1  0
M  CHG  2  10   1  12  -1
M  END
>  <NAME>  (4786) 
5-CHLORO-2-NITROBENZOIC ACID METHYL ESTER

>  <SYNONYMS>  (4786) 


>  <SPECTRUM TYPE>  (4786) 
MS1

>  <INSTRUMENT TYPE>  (4786) 
EI-B

>  <INSTRUMENT>  (4786) 
JEOL JMS-01-SG

>  <ION MODE>  (4786) 
P

>  <INCHIKEY>  (4786) 
JGBJHRKCUKTQOE-UHFFFAOYSA-N

>  <FORMULA>  (4786) 
C8H6ClNO4

>  <EXACT MASS>  (4786) 
214.998535352

>  <MW>  (4786) 
215

>  <ID>  (4786) 
JP002647

>  <CONTRIBUTOR>  (4786) 
University of Tokyo Team, {Faculty of Engineering, University of Tokyo

>  <COMMENT>  (4786) 
SMILES=COC(=O)c(c1)c(ccc(Cl)1)[N+1]([O-1])=O
InChI=InChI=1S/C8H6ClNO4/c1-14-8(11)6-4-5(9)2-3-7(6)10(12)13/h2-4H,1H3
computed SMILES=O=C(OC)C1=CC(Cl)=CC=C1N(=O)=O
accession=JP002647
date=2016.01.19 (Created 2008.10.21, modified 2011.05.06)
author=KOGA M, UNIV. OF OCCUPATIONAL AND ENVIRONMENTAL HEALTH
license=CC BY-NC-SA
exact mass=214.99854
ionization energy=70 eV
ion type=[M]+*
computed spectral entropy=2.7637118021175993
computed normalized entropy=0.7773393080844578
SPLASH=splash10-01si-6910000000-2ddc3b18a42c5dd3e0ea
submitter=submitter = University of Tokyo Team (Faculty of Engineering, University of Tokyo)
MoNA Rating=3.75

>  <NUM PEAKS>  (4786) 
35

>  <MASS SPECTRAL PEAKS>  (4786) 
44 2.5
50 12.4
51 6.2
57 0.84
62 5.8
63 17.2
65 2.9
73 0.32
74 20.5
75 38.4
76 38.4
77 0.87
84 3.2
85 2.9
98 2.9
99 0.25
110 21.2
111 14.6
112 12.8
113 0.51
126 16.4
127 2.9
128 3.2
129 0.25
138 2.5
153 2.9
154 3.2
155 0.4
157 2.9
184 99.99
185 13.9
186 3.58
187 2.9
215 21.9
217 8

>  <PREDICTED SPECTRUM>  (4786) 
14 0
15 77
16 3
29 10
30 229
31 23
35 40
36 32
37 82
38 77
39 4
44 23
45 62
46 48
49 91
50 307
51 188
52 38
53 170
54 6
55 32
57 39
59 206
60 61
61 171
62 259
63 339
64 162
65 55
69 60
72 88
73 320
74 549
75 797
76 434
77 134
78 34
82 41
83 29
84 111
85 144
86 93
87 22
90 26
91 10
97 156
98 65
99 138
100 43
101 28
103 25
104 77
108 21
109 190
110 353
111 402
112 202
113 285
114 177
115 82
125 49
126 319
127 110
128 63
129 113
138 308
139 237
140 287
141 405
142 12
153 15
154 420
155 155
156 171
157 191
159 37
169 76
170 162
171 79
184 999
185 332
186 621
187 273
188 73
199 66
201 27
215 554
216 185
217 394
218 129

$$$$

     RDKit          2D

 14 14  0  0  0  0  0  0  0  0999 V2000
    5.1970   -1.5006    0.0000 C   0  0  0  0  0  0  0  0  0  0  0  0
   -1.3000    0.7500    0.0000 C   0  0  0  0  0  0  0  0  0  0  0  0
    0.0000    1.5000    0.0000 C   0  0  0  0  0  0  0  0  0  0  0  0
    0.0000   -1.5000    0.0000 C   0  0  0  0  0  0  0  0  0  0  0  0
   -1.3000   -0.7500    0.0000 C   0  0  0  0  0  0  0  0  0  0  0  0
    1.3000   -0.7500    0.0000 C   0  0  0  0  0  0  0  0  0  0  0  0
    1.3000    0.7500    0.0000 C   0  0  0  0  0  0  0  0  0  0  0  0
    2.5989   -1.5002    0.0000 C   0  0  0  0  0  0  0  0  0  0  0  0
    2.5989    1.5002    0.0000 Cl  0  0  0  0  0  0  0  0  0  0  0  0
   -2.5989   -1.5002    0.0000 N   0  0  0  0  0  0  0  0  0  0  0  0
    2.5987   -3.0002    0.0000 O   0  0  0  0  0  0  0  0  0  0  0  0
   -3.8981   -0.7504    0.0000 O   0  0  0  0  0  0  0  0  0  0  0  0
   -2.5987   -3.0002    0.0000 O   0  0  0  0  0  0  0  0  0  0  0  0
    3.8981   -0.7504    0.0000 O   0  0  0  0  0  0  0  0  0  0  0  0
  3  2  2  0
  5  2  1  0
  5  4  2  0
  6  4  1  0
  7  3  1  0
  7  6  2  0
  8  6  1  0
  9  7  1  0
 10  5  1  0
 11  8  2  0
 12 10  1  0
 13 10  2  0
 14  1  1  0
 14  8  1  0
M  CHG  2  10   1  12  -1
M  END
>  <NAME>  (4787) 
2-CHLORO-5-NITROBENZOIC ACID METHYL ESTER

>  <SYNONYMS>  (4787) 


>  <SPECTRUM TYPE>  (4787) 
MS1

>  <INSTRUMENT TYPE>  (4787) 
EI-B

>  <INSTRUMENT>  (4787) 
JEOL JMS-01-SG

>  <ION MODE>  (4787) 
P

>  <INCHIKEY>  (4787) 
VCYWZLGOWNCJNJ-UHFFFAOYSA-N

>  <FORMULA>  (4787) 
C8H6ClNO4

>  <EXACT MASS>  (4787) 
214.99853535199998

>  <MW>  (4787) 
215

>  <ID>  (4787) 
JP002646

>  <CONTRIBUTOR>  (4787) 
University of Tokyo Team, {Faculty of Engineering, University of Tokyo

>  <COMMENT>  (4787) 
SMILES=COC(=O)c(c1)c(Cl)ccc([N+1]([O-1])=O)1
InChI=InChI=1S/C8H6ClNO4/c1-14-8(11)6-4-5(10(12)13)2-3-7(6)9/h2-4H,1H3
computed SMILES=O=C(OC)C1=CC(=CC=C1Cl)N(=O)=O
accession=JP002646
date=2016.01.19 (Created 2008.10.21, modified 2011.05.06)
author=KOGA M, UNIV. OF OCCUPATIONAL AND ENVIRONMENTAL HEALTH
license=CC BY-NC-SA
exact mass=214.99854
ionization energy=70 eV
ion type=[M]+*
computed spectral entropy=2.395775707220954
computed normalized entropy=0.7189761912587371
SPLASH=splash10-001i-2910000000-49e92828797ffcb471e4
submitter=submitter = University of Tokyo Team (Faculty of Engineering, University of Tokyo)
MoNA Rating=3.75

>  <NUM PEAKS>  (4787) 
28

>  <MASS SPECTRAL PEAKS>  (4787) 
44 3.6
50 3
51 2.4
63 0.9
73 2.4
74 19.3
75 34.5
77 0.42
84 2.4
109 4.8
110 18.7
111 0.18
112 4.8
126 9
137 2.4
138 2.96
139 2.4
140 9
153 4.8
154 1.15
156 1.8
169 1.8
184 99.99
185 1.63
186 37.5
187 4.8
215 26.6
217 1.2

>  <PREDICTED SPECTRUM>  (4787) 
14 14
15 96
16 20
28 48
29 74
30 182
31 13
32 3
35 59
36 83
37 77
38 57
39 33
44 13
46 85
47 25
49 108
50 136
51 111
53 136
55 23
59 170
60 160
61 146
62 182
63 217
64 48
65 11
68 15
69 7
72 151
73 331
74 515
75 481
76 132
77 67
82 45
83 29
84 240
85 157
86 118
87 6
91 44
95 8
96 68
97 255
98 117
99 174
100 51
108 82
109 316
110 401
111 315
112 236
113 178
114 68
115 28
118 15
122 30
124 5
125 24
126 329
127 95
128 63
129 37
138 354
139 171
140 199
141 228
142 37
143 2
145 21
154 307
155 54
156 239
157 167
158 55
168 100
169 229
170 188
171 85
172 37
184 999
185 315
186 598
187 246
188 115
199 99
201 41
215 741
216 227
217 440
218 133

$$$$

     RDKit          2D

 12 12  0  0  0  0  0  0  0  0999 V2000
   -2.5989   -0.3306    0.0000 C   0  0  0  0  0  0  0  0  0  0  0  0
    2.5981    2.6700    0.0000 C   0  0  0  0  0  0  0  0  0  0  0  0
    1.2981    1.9200    0.0000 C   0  0  0  0  0  0  0  0  0  0  0  0
    3.8981    0.4200    0.0000 C   0  0  0  0  0  0  0  0  0  0  0  0
    3.8981    1.9200    0.0000 C   0  0  0  0  0  0  0  0  0  0  0  0
    1.2981    0.4200    0.0000 C   0  0  0  0  0  0  0  0  0  0  0  0
    2.5981   -0.3300    0.0000 C   0  0  0  0  0  0  0  0  0  0  0  0
   -0.0008   -0.3302    0.0000 C   0  0  0  0  0  0  0  0  0  0  0  0
    5.1970    2.6702    0.0000 Cl  0  0  0  0  0  0  0  0  0  0  0  0
    2.5981   -1.8300    0.0000 Cl  0  0  0  0  0  0  0  0  0  0  0  0
   -0.0006   -1.8302    0.0000 O   0  0  0  0  0  0  0  0  0  0  0  0
   -1.3000    0.4196    0.0000 O   0  0  0  0  0  0  0  0  0  0  0  0
  3  2  2  0
  5  2  1  0
  5  4  2  0
  6  3  1  0
  7  4  1  0
  7  6  2  0
  8  6  1  0
  9  5  1  0
 10  7  1  0
 11  8  2  0
 12  1  1  0
 12  8  1  0
M  END
>  <NAME>  (4788) 
2,4-DICHLOROBENZOIC ACID METHYL ESTER

>  <SYNONYMS>  (4788) 


>  <SPECTRUM TYPE>  (4788) 
MS1

>  <INSTRUMENT TYPE>  (4788) 
EI-B

>  <INSTRUMENT>  (4788) 
JEOL JMS-01-SG

>  <ION MODE>  (4788) 
P

>  <INCHIKEY>  (4788) 
VCRWILYAWSRHBN-UHFFFAOYSA-N

>  <FORMULA>  (4788) 
C8H6Cl2O2

>  <EXACT MASS>  (4788) 
203.974484792

>  <MW>  (4788) 
204

>  <ID>  (4788) 
JP002645

>  <CONTRIBUTOR>  (4788) 
University of Tokyo Team, {Faculty of Engineering, University of Tokyo

>  <COMMENT>  (4788) 
SMILES=COC(=O)c(c1)c(Cl)cc(Cl)c1
InChI=InChI=1S/C8H6Cl2O2/c1-12-8(11)6-3-2-5(9)4-7(6)10/h2-4H,1H3
computed SMILES=O=C(OC)C1=CC=C(Cl)C=C1Cl
accession=JP002645
date=2016.01.19 (Created 2008.10.21, modified 2011.05.06)
author=KOGA M, UNIV. OF OCCUPATIONAL AND ENVIRONMENTAL HEALTH
license=CC BY-NC-SA
exact mass=203.97448
ionization energy=70 eV
ion type=[M]+*
computed spectral entropy=2.872440684839351
computed normalized entropy=0.8364739044710602
SPLASH=splash10-0zos-6960000000-d6781db43d29f6daf7cb
submitter=submitter = University of Tokyo Team (Faculty of Engineering, University of Tokyo)
MoNA Rating=3.75

>  <NUM PEAKS>  (4788) 
31

>  <MASS SPECTRAL PEAKS>  (4788) 
49 4.5
50 19
51 4.5
63 0.45
73 9.9
74 58
75 47.3
77 0.45
84 13.7
85 6.1
86 4.5
109 5.87
110 25.1
111 23.6
112 6.1
145 9.23
146 6.8
147 61
149 6.8
173 6.48
174 30.5
175 40.4
176 17.5
177 4.12
186 8.3
203 6.1
204 99.99
205 1.14
206 60.3
207 5.3
208 9.1

>  <PREDICTED SPECTRUM>  (4788) 
14 0
15 36
25 0
29 12
31 23
35 34
36 67
37 126
38 109
39 33
44 48
48 8
49 109
50 264
51 73
53 38
55 7
58 4
59 147
60 3
61 106
62 129
63 145
64 49
68 47
69 112
70 20
71 17
72 145
73 255
74 446
75 442
76 90
77 58
83 22
84 209
85 175
86 140
87 12
94 10
99 39
102 15
105 32
109 550
110 326
111 388
112 154
119 38
144 46
145 710
146 257
147 467
148 58
149 159
169 108
171 44
172 25
173 999
174 366
175 829
176 318
177 425
178 82
179 19
203 72
204 517
205 207
206 445
207 138
208 143

$$$$

     RDKit          2D

 12 12  0  0  0  0  0  0  0  0999 V2000
   -3.5724    1.7675    0.0000 C   0  0  0  0  0  0  0  0  0  0  0  0
    2.9228   -0.4825    0.0000 C   0  0  0  0  0  0  0  0  0  0  0  0
    2.9233    1.0183    0.0000 C   0  0  0  0  0  0  0  0  0  0  0  0
    1.6233   -1.2333    0.0000 C   0  0  0  0  0  0  0  0  0  0  0  0
    1.6243    1.7683    0.0000 C   0  0  0  0  0  0  0  0  0  0  0  0
    0.3243   -0.4833    0.0000 C   0  0  0  0  0  0  0  0  0  0  0  0
    0.3248    1.0175    0.0000 C   0  0  0  0  0  0  0  0  0  0  0  0
   -0.9743    1.7675    0.0000 C   0  0  0  0  0  0  0  0  0  0  0  0
    1.6240    3.2683    0.0000 Cl  0  0  0  0  0  0  0  0  0  0  0  0
   -0.9749   -1.2331    0.0000 Cl  0  0  0  0  0  0  0  0  0  0  0  0
   -0.9743    3.2675    0.0000 O   0  0  0  0  0  0  0  0  0  0  0  0
   -2.2733    1.0175    0.0000 O   0  0  0  0  0  0  0  0  0  0  0  0
  3  2  2  0
  4  2  1  0
  5  3  1  0
  6  4  2  0
  7  5  2  0
  7  6  1  0
  8  7  1  0
  9  5  1  0
 10  6  1  0
 11  8  2  0
 12  1  1  0
 12  8  1  0
M  END
>  <NAME>  (4789) 
2,6-DICHLOROBENZOIC ACID METHYL ESTER

>  <SYNONYMS>  (4789) 


>  <SPECTRUM TYPE>  (4789) 
MS1

>  <INSTRUMENT TYPE>  (4789) 
EI-B

>  <INSTRUMENT>  (4789) 
JEOL JMS-01-SG

>  <ION MODE>  (4789) 
P

>  <INCHIKEY>  (4789) 
HEYGSGDIWJDORA-UHFFFAOYSA-N

>  <FORMULA>  (4789) 
C8H6Cl2O2

>  <EXACT MASS>  (4789) 
203.974484792

>  <MW>  (4789) 
204

>  <ID>  (4789) 
JP002644

>  <CONTRIBUTOR>  (4789) 
University of Tokyo Team, {Faculty of Engineering, University of Tokyo

>  <COMMENT>  (4789) 
SMILES=COC(=O)c(c(Cl)1)c(Cl)ccc1
InChI=InChI=1S/C8H6Cl2O2/c1-12-8(11)7-5(9)3-2-4-6(7)10/h2-4H,1H3
computed SMILES=O=C(OC)C=1C(Cl)=CC=CC1Cl
accession=JP002644
date=2016.01.19 (Created 2008.10.21, modified 2011.05.06)
author=KOGA M, UNIV. OF OCCUPATIONAL AND ENVIRONMENTAL HEALTH
license=CC BY-NC-SA
exact mass=203.97448
ionization energy=70 eV
ion type=[M]+*
computed spectral entropy=2.5244512155251533
computed normalized entropy=0.7422242617073465
SPLASH=splash10-00fr-2920000000-43bd32b64f2edfeaeb24
submitter=submitter = University of Tokyo Team (Faculty of Engineering, University of Tokyo)
MoNA Rating=3.75

>  <NUM PEAKS>  (4789) 
30

>  <MASS SPECTRAL PEAKS>  (4789) 
45 2.6
50 4.9
51 2.6
63 0.26
73 4.4
74 22.4
75 22.4
84 0.78
85 4.2
86 2
109 28.5
110 0.96
111 10.5
112 2.2
126 2
145 3.91
146 2.4
147 23.8
149 3.1
173 99.99
174 16.1
175 84.9
176 11.6
177 2.42
186 3.5
204 52.8
205 3.8
206 3.43
207 2.6
208 4.7

>  <PREDICTED SPECTRUM>  (4789) 
15 9
35 29
36 81
37 137
38 119
39 55
40 9
41 55
44 24
47 53
48 26
49 111
50 203
51 29
53 4
55 30
56 14
57 3
58 13
59 307
60 9
61 158
62 128
63 183
64 59
68 59
69 164
70 28
71 78
72 189
73 343
74 495
75 479
76 70
77 30
82 29
83 104
84 227
85 135
86 159
87 70
94 54
97 14
99 64
100 23
102 9
105 63
109 629
110 375
111 411
112 209
113 2
121 9
144 70
145 700
146 300
147 486
148 157
149 258
160 20
169 32
171 29
172 45
173 999
174 306
175 753
176 270
177 413
178 142
179 50
204 587
205 180
206 503
207 146
208 178

$$$$

     RDKit          2D

 12 12  0  0  0  0  0  0  0  0999 V2000
   -5.1970   -1.5006    0.0000 C   0  0  0  0  0  0  0  0  0  0  0  0
   -1.3000    0.7500    0.0000 C   0  0  0  0  0  0  0  0  0  0  0  0
    0.0000    1.5000    0.0000 C   0  0  0  0  0  0  0  0  0  0  0  0
    0.0000   -1.5000    0.0000 C   0  0  0  0  0  0  0  0  0  0  0  0
   -1.3000   -0.7500    0.0000 C   0  0  0  0  0  0  0  0  0  0  0  0
    1.3000    0.7500    0.0000 C   0  0  0  0  0  0  0  0  0  0  0  0
    1.3000   -0.7500    0.0000 C   0  0  0  0  0  0  0  0  0  0  0  0
   -2.5989   -1.5002    0.0000 C   0  0  0  0  0  0  0  0  0  0  0  0
    2.5989    1.5002    0.0000 Cl  0  0  0  0  0  0  0  0  0  0  0  0
    2.5989   -1.5002    0.0000 Cl  0  0  0  0  0  0  0  0  0  0  0  0
   -2.5987   -3.0002    0.0000 O   0  0  0  0  0  0  0  0  0  0  0  0
   -3.8981   -0.7504    0.0000 O   0  0  0  0  0  0  0  0  0  0  0  0
  3  2  2  0
  5  2  1  0
  5  4  2  0
  6  3  1  0
  7  4  1  0
  7  6  2  0
  8  5  1  0
  9  6  1  0
 10  7  1  0
 11  8  2  0
 12  1  1  0
 12  8  1  0
M  END
>  <NAME>  (4790) 
3,4-DICHLOROBENZOIC ACID METHYL ESTER

>  <SYNONYMS>  (4790) 


>  <SPECTRUM TYPE>  (4790) 
MS1

>  <INSTRUMENT TYPE>  (4790) 
EI-B

>  <INSTRUMENT>  (4790) 
JEOL JMS-01-SG

>  <ION MODE>  (4790) 
P

>  <INCHIKEY>  (4790) 
WICGATIORFSOJL-UHFFFAOYSA-N

>  <FORMULA>  (4790) 
C8H6Cl2O2

>  <EXACT MASS>  (4790) 
203.974484792

>  <MW>  (4790) 
204

>  <ID>  (4790) 
JP002643

>  <CONTRIBUTOR>  (4790) 
University of Tokyo Team, {Faculty of Engineering, University of Tokyo

>  <COMMENT>  (4790) 
SMILES=COC(=O)c(c1)cc(Cl)c(Cl)c1
InChI=InChI=1S/C8H6Cl2O2/c1-12-8(11)5-2-3-6(9)7(10)4-5/h2-4H,1H3
computed SMILES=O=C(OC)C1=CC=C(Cl)C(Cl)=C1
accession=JP002643
date=2016.01.19 (Created 2008.10.21, modified 2011.05.06)
author=KOGA M, UNIV. OF OCCUPATIONAL AND ENVIRONMENTAL HEALTH
license=CC BY-NC-SA
exact mass=203.97448
ionization energy=70 eV
ion type=[M]+*
computed spectral entropy=2.525305486092988
computed normalized entropy=0.7662107042192636
SPLASH=splash10-004j-1930000000-ca6bd6dd0b6297438dd3
submitter=submitter = University of Tokyo Team (Faculty of Engineering, University of Tokyo)
MoNA Rating=3.75

>  <NUM PEAKS>  (4790) 
27

>  <MASS SPECTRAL PEAKS>  (4790) 
50 6.9
59 2.5
73 4.3
74 2.52
75 22.3
84 7.6
85 2.9
109 2.49
110 8.4
111 8
145 50.1
146 0.26
147 31.5
149 5.1
169 3.6
173 1.83
174 12.4
175 99.99
176 7.6
177 1.64
186 6.9
203 3.2
204 47.2
205 0.58
206 29.6
207 3.2
208 4.3

>  <PREDICTED SPECTRUM>  (4790) 
14 2
15 43
16 4
25 15
29 38
31 36
35 81
36 97
37 189
38 166
39 57
40 28
41 11
42 3
43 4
44 136
47 44
48 71
49 172
50 278
53 32
55 15
56 78
57 0
58 6
59 255
60 96
61 174
62 146
63 231
64 84
68 46
69 101
70 19
71 33
72 188
73 296
74 546
75 522
76 123
77 117
82 31
83 123
84 292
85 286
86 227
87 52
94 26
96 10
97 32
99 44
102 21
103 0
105 39
107 31
109 715
110 429
111 465
112 206
114 27
119 1
144 31
145 830
146 348
147 637
148 122
149 258
160 49
169 183
170 14
171 56
173 999
174 318
175 877
176 336
177 451
178 139
179 46
203 182
204 655
205 257
206 567
207 171
208 241
209 34

$$$$

     RDKit          2D

 12 12  0  0  0  0  0  0  0  0999 V2000
    5.1970   -1.5006    0.0000 C   0  0  0  0  0  0  0  0  0  0  0  0
   -1.3000    0.7500    0.0000 C   0  0  0  0  0  0  0  0  0  0  0  0
    0.0000    1.5000    0.0000 C   0  0  0  0  0  0  0  0  0  0  0  0
   -0.0000   -1.5000    0.0000 C   0  0  0  0  0  0  0  0  0  0  0  0
   -1.3000   -0.7500    0.0000 C   0  0  0  0  0  0  0  0  0  0  0  0
    1.3000   -0.7500    0.0000 C   0  0  0  0  0  0  0  0  0  0  0  0
    1.3000    0.7500    0.0000 C   0  0  0  0  0  0  0  0  0  0  0  0
    2.5989   -1.5002    0.0000 C   0  0  0  0  0  0  0  0  0  0  0  0
   -2.5989   -1.5002    0.0000 Cl  0  0  0  0  0  0  0  0  0  0  0  0
    2.5989    1.5002    0.0000 Cl  0  0  0  0  0  0  0  0  0  0  0  0
    2.5987   -3.0002    0.0000 O   0  0  0  0  0  0  0  0  0  0  0  0
    3.8981   -0.7504    0.0000 O   0  0  0  0  0  0  0  0  0  0  0  0
  3  2  2  0
  5  2  1  0
  5  4  2  0
  6  4  1  0
  7  3  1  0
  7  6  2  0
  8  6  1  0
  9  5  1  0
 10  7  1  0
 11  8  2  0
 12  1  1  0
 12  8  1  0
M  END
>  <NAME>  (4791) 
2,5-DICHLOROBENZOIC ACID METHYL ESTER

>  <SYNONYMS>  (4791) 


>  <SPECTRUM TYPE>  (4791) 
MS1

>  <INSTRUMENT TYPE>  (4791) 
EI-B

>  <INSTRUMENT>  (4791) 
JEOL JMS-01-SG

>  <ION MODE>  (4791) 
P

>  <INCHIKEY>  (4791) 
SPJQBGGHUDNAIC-UHFFFAOYSA-N

>  <FORMULA>  (4791) 
C8H6Cl2O2

>  <EXACT MASS>  (4791) 
203.974484792

>  <MW>  (4791) 
204

>  <ID>  (4791) 
JP002642

>  <CONTRIBUTOR>  (4791) 
University of Tokyo Team, {Faculty of Engineering, University of Tokyo

>  <COMMENT>  (4791) 
SMILES=COC(=O)c(c1)c(Cl)ccc(Cl)1
InChI=InChI=1S/C8H6Cl2O2/c1-12-8(11)6-4-5(9)2-3-7(6)10/h2-4H,1H3
computed SMILES=O=C(OC)C1=CC(Cl)=CC=C1Cl
accession=JP002642
date=2016.01.19 (Created 2008.10.21, modified 2011.05.06)
author=KOGA M, UNIV. OF OCCUPATIONAL AND ENVIRONMENTAL HEALTH
license=CC BY-NC-SA
exact mass=203.97448
ionization energy=70 eV
ion type=[M]+*
computed spectral entropy=2.4528773386120477
computed normalized entropy=0.7935437237191864
SPLASH=splash10-00b9-2920000000-bb334199ec4a0421b68e
submitter=submitter = University of Tokyo Team (Faculty of Engineering, University of Tokyo)
MoNA Rating=3.75

>  <NUM PEAKS>  (4791) 
22

>  <MASS SPECTRAL PEAKS>  (4791) 
50 11
73 7.1
74 30.9
75 2.81
84 6.7
85 2.4
109 30.2
110 0.99
111 9.2
145 46.6
146 2.4
147 3.06
149 2.8
173 36.6
174 11.7
175 99.99
176 14.2
177 2.4
204 45.5
205 1.85
206 14.9
207 3.2

>  <PREDICTED SPECTRUM>  (4791) 
14 10
15 83
16 15
25 9
26 17
28 21
29 74
31 21
35 53
36 97
37 135
38 107
39 17
43 43
44 93
47 32
48 35
49 145
50 229
51 60
53 52
55 18
59 186
60 60
61 75
62 118
63 141
64 23
68 55
69 78
70 18
71 20
72 201
73 291
74 498
75 454
76 86
77 59
82 45
83 79
84 263
85 220
86 163
97 23
98 16
99 13
102 34
103 41
108 54
109 502
110 440
111 353
112 156
119 31
130 44
144 7
145 573
146 132
147 389
148 41
149 116
160 27
161 39
169 140
171 44
173 999
174 261
175 812
176 254
177 335
178 41
189 0
203 27
204 517
205 145
206 438
207 114
208 147
209 17

$$$$

     RDKit          2D

 12 12  0  0  0  0  0  0  0  0999 V2000
    3.5724    1.3123    0.0000 C   0  0  0  0  0  0  0  0  0  0  0  0
   -0.3242    3.5632    0.0000 C   0  0  0  0  0  0  0  0  0  0  0  0
   -1.6242    1.3115    0.0000 C   0  0  0  0  0  0  0  0  0  0  0  0
   -2.9227    3.5623    0.0000 C   0  0  0  0  0  0  0  0  0  0  0  0
   -0.3247    2.0623    0.0000 C   0  0  0  0  0  0  0  0  0  0  0  0
   -1.6232    4.3132    0.0000 C   0  0  0  0  0  0  0  0  0  0  0  0
   -2.9232    2.0615    0.0000 C   0  0  0  0  0  0  0  0  0  0  0  0
    0.9744    1.3123    0.0000 C   0  0  0  0  0  0  0  0  0  0  0  0
   -1.6235    5.8132    0.0000 Cl  0  0  0  0  0  0  0  0  0  0  0  0
   -4.2224    1.3117    0.0000 Cl  0  0  0  0  0  0  0  0  0  0  0  0
    0.9744   -0.1877    0.0000 O   0  0  0  0  0  0  0  0  0  0  0  0
    2.2734    2.0623    0.0000 O   0  0  0  0  0  0  0  0  0  0  0  0
  5  2  2  0
  5  3  1  0
  6  2  1  0
  6  4  2  0
  7  3  2  0
  7  4  1  0
  8  5  1  0
  9  6  1  0
 10  7  1  0
 11  8  2  0
 12  1  1  0
 12  8  1  0
M  END
>  <NAME>  (4792) 
3,5-DICHLOROBENZOIC ACID METHYL ESTER

>  <SYNONYMS>  (4792) 


>  <SPECTRUM TYPE>  (4792) 
MS1

>  <INSTRUMENT TYPE>  (4792) 
EI-B

>  <INSTRUMENT>  (4792) 
JEOL JMS-01-SG

>  <ION MODE>  (4792) 
P

>  <INCHIKEY>  (4792) 
BTEVDFJXGLQUDS-UHFFFAOYSA-N

>  <FORMULA>  (4792) 
C8H6Cl2O2

>  <EXACT MASS>  (4792) 
203.974484792

>  <MW>  (4792) 
204

>  <ID>  (4792) 
JP002641

>  <CONTRIBUTOR>  (4792) 
University of Tokyo Team, {Faculty of Engineering, University of Tokyo

>  <COMMENT>  (4792) 
SMILES=COC(=O)c(c1)cc(Cl)cc(Cl)1
InChI=InChI=1S/C8H6Cl2O2/c1-12-8(11)5-2-6(9)4-7(10)3-5/h2-4H,1H3
computed SMILES=O=C(OC)C=1C=C(Cl)C=C(Cl)C1
accession=JP002641
date=2016.01.19 (Created 2008.10.21, modified 2011.05.06)
author=KOGA M, UNIV. OF OCCUPATIONAL AND ENVIRONMENTAL HEALTH
license=CC BY-NC-SA
exact mass=203.97448
ionization energy=70 eV
ion type=[M]+*
computed spectral entropy=2.3843057801135514
computed normalized entropy=0.7155340474550247
SPLASH=splash10-00fr-1910000000-fd62a52d32761f57d5b7
submitter=submitter = University of Tokyo Team (Faculty of Engineering, University of Tokyo)
MoNA Rating=3.75

>  <NUM PEAKS>  (4792) 
28

>  <MASS SPECTRAL PEAKS>  (4792) 
42 2.7
44 6.1
50 5.2
73 0.34
74 13.2
75 15.2
84 3.1
85 0.25
109 15.7
110 5.9
111 5.9
145 3.16
146 2.9
147 20
148 1.1
149 0.29
173 99.99
174 7.2
175 59.9
176 0.47
177 8.8
186 1.3
203 1.1
204 3.07
205 3.4
206 20
207 1.1
208 3.1

>  <PREDICTED SPECTRUM>  (4792) 
14 10
15 63
16 0
25 9
26 1
35 61
36 116
37 175
38 159
40 10
41 11
43 45
44 129
47 92
48 44
49 157
50 224
53 57
55 17
56 0
57 26
59 232
60 95
61 113
62 148
63 164
64 55
68 27
69 72
70 37
71 25
72 59
73 284
74 541
75 475
76 130
77 62
82 62
83 159
84 321
85 262
86 213
87 14
94 34
96 0
102 19
103 23
105 3
107 32
108 112
109 699
110 442
111 342
112 227
114 18
119 6
130 16
143 11
145 785
146 251
147 642
148 130
149 224
158 5
160 11
169 154
170 0
171 23
173 999
174 290
175 866
176 321
177 439
178 108
179 24
190 1
203 98
204 670
205 247
206 560
207 160
208 207
209 28

$$$$

     RDKit          2D

 15 16  0  0  0  0  0  0  0  0999 V2000
    5.8416    5.8288    0.0000 C   0  0  0  0  0  0  0  0  0  0  0  0
   -2.5200    0.5000    0.0000 C   0  0  0  0  0  0  0  0  0  0  0  0
   -2.5300   -1.0000    0.0000 C   0  0  0  0  0  0  0  0  0  0  0  0
   -1.2200    1.2400    0.0000 C   0  0  0  0  0  0  0  0  0  0  0  0
   -1.2300   -1.7600    0.0000 C   0  0  0  0  0  0  0  0  0  0  0  0
    1.9684    2.3650    0.0000 C   0  0  0  0  0  0  0  0  0  0  0  0
    3.4366    2.6719    0.0000 C   0  0  0  0  0  0  0  0  0  0  0  0
    2.3800   -0.2700    0.0000 C   0  0  0  0  0  0  0  0  0  0  0  0
    1.5000    0.9400    0.0000 C   0  0  0  0  0  0  0  0  0  0  0  0
    0.0800    0.4900    0.0000 C   0  0  0  0  0  0  0  0  0  0  0  0
    0.0700   -1.0100    0.0000 C   0  0  0  0  0  0  0  0  0  0  0  0
    3.9050    4.0969    0.0000 C   0  0  0  0  0  0  0  0  0  0  0  0
    1.5000   -1.4800    0.0000 N   0  0  0  0  0  0  0  0  0  0  0  0
    2.9051    5.2150    0.0000 O   0  0  0  0  0  0  0  0  0  0  0  0
    5.3733    4.4038    0.0000 O   0  0  0  0  0  0  0  0  0  0  0  0
  3  2  2  0
  4  2  1  0
  5  3  1  0
  7  6  1  0
  9  6  1  0
  9  8  2  0
 10  4  2  0
 10  9  1  0
 11  5  2  0
 11 10  1  0
 12  7  1  0
 13  8  1  0
 13 11  1  0
 14 12  2  0
 15  1  1  0
 15 12  1  0
M  END
>  <NAME>  (4793) 
3-INDOLEPROPIONIC ACID METHYL ESTER

>  <SYNONYMS>  (4793) 


>  <SPECTRUM TYPE>  (4793) 
MS1

>  <INSTRUMENT TYPE>  (4793) 
EI-B

>  <INSTRUMENT>  (4793) 
JEOL JMS-01-SG

>  <ION MODE>  (4793) 
P

>  <INCHIKEY>  (4793) 
BAYIDMGOQRXHBC-UHFFFAOYSA-N

>  <FORMULA>  (4793) 
C12H13NO2

>  <EXACT MASS>  (4793) 
203.094628656

>  <MW>  (4793) 
203

>  <ID>  (4793) 
JP002640

>  <CONTRIBUTOR>  (4793) 
University of Tokyo Team, {Faculty of Engineering, University of Tokyo

>  <COMMENT>  (4793) 
SMILES=COC(=O)CCC1=CNC2=CC=CC=C21
InChI=InChI=1S/C12H13NO2/c1-15-12(14)7-6-9-8-13-11-5-3-2-4-10(9)11/h2-5,8,13H,6-7H2,1H3
computed SMILES=O=C(OC)CCC1=CNC=2C=CC=CC21
accession=JP002640
date=2016.01.19 (Created 2008.10.21, modified 2011.05.06)
author=KOGA M, UNIV. OF OCCUPATIONAL AND ENVIRONMENTAL HEALTH
license=CC BY-NC-SA
exact mass=203.09463
ionization energy=70 eV
ion type=[M]+*
computed spectral entropy=1.635260688674081
computed normalized entropy=0.5657613710785597
SPLASH=splash10-001i-1910000000-bf9da59907b5908134d8
submitter=submitter = University of Tokyo Team (Faculty of Engineering, University of Tokyo)
MoNA Rating=3.75

>  <NUM PEAKS>  (4793) 
18

>  <MASS SPECTRAL PEAKS>  (4793) 
39 2.5
41 3.5
42 3
51 0.65
56 2.5
65 2.5
89 2.5
103 0.25
115 7.5
129 3
130 99.99
131 0.9
142 3
143 7.5
144 6
186 0.1
203 21.1
204 2.5

>  <PREDICTED SPECTRUM>  (4793) 
14 2
16 7
17 17
18 9
26 15
27 41
28 25
29 23
33 17
38 11
39 85
40 20
41 47
42 42
43 118
44 86
45 14
50 95
51 152
52 86
53 35
54 0
55 48
57 39
59 41
60 49
61 3
62 78
63 137
64 67
65 88
66 9
69 5
70 27
71 76
72 4
73 11
74 46
75 86
76 108
77 299
78 116
79 49
80 19
81 8
83 6
85 15
86 15
87 34
89 126
90 111
91 77
95 0
97 11
98 2
99 15
101 53
102 186
103 224
104 97
105 25
106 0
107 19
113 41
114 53
115 203
116 171
117 206
118 43
122 33
127 97
128 211
129 255
130 999
131 352
132 109
141 66
142 166
143 270
144 316
145 80
155 12
156 26
157 56
158 24
170 11
171 9
172 202
173 6
174 0
186 28
187 7
188 0
189 2
200 39
201 49
202 76
203 629
204 262
205 110

$$$$

     RDKit          2D

 14 14  0  0  0  0  0  0  0  0999 V2000
    2.5980   -3.0002    0.0000 C   0  0  0  0  0  0  0  0  0  0  0  0
    5.1970    1.5002    0.0000 C   0  0  0  0  0  0  0  0  0  0  0  0
   -3.8981    2.2504    0.0000 C   0  0  0  0  0  0  0  0  0  0  0  0
   -0.0011   -0.0002    0.0000 C   0  0  0  0  0  0  0  0  0  0  0  0
    1.2989    2.2498    0.0000 C   0  0  0  0  0  0  0  0  0  0  0  0
    2.5989   -0.0002    0.0000 C   0  0  0  0  0  0  0  0  0  0  0  0
   -0.0011    1.4998    0.0000 C   0  0  0  0  0  0  0  0  0  0  0  0
    1.2989   -0.7502    0.0000 C   0  0  0  0  0  0  0  0  0  0  0  0
    2.5989    1.4998    0.0000 C   0  0  0  0  0  0  0  0  0  0  0  0
   -1.3000    2.2500    0.0000 C   0  0  0  0  0  0  0  0  0  0  0  0
   -1.2998    3.7500    0.0000 O   0  0  0  0  0  0  0  0  0  0  0  0
    1.2989   -2.2502    0.0000 O   0  0  0  0  0  0  0  0  0  0  0  0
    3.8978    2.2500    0.0000 O   0  0  0  0  0  0  0  0  0  0  0  0
   -2.5992    1.5002    0.0000 O   0  0  0  0  0  0  0  0  0  0  0  0
  7  4  2  0
  7  5  1  0
  8  4  1  0
  8  6  2  0
  9  5  2  0
  9  6  1  0
 10  7  1  0
 11 10  2  0
 12  1  1  0
 12  8  1  0
 13  2  1  0
 13  9  1  0
 14  3  1  0
 14 10  1  0
M  END
>  <NAME>  (4794) 
3,5-DIMETHOXYBENZOIC ACID METHYL ESTER

>  <SYNONYMS>  (4794) 


>  <SPECTRUM TYPE>  (4794) 
MS1

>  <INSTRUMENT TYPE>  (4794) 
EI-B

>  <INSTRUMENT>  (4794) 
JEOL JMS-01-SG

>  <ION MODE>  (4794) 
P

>  <INCHIKEY>  (4794) 
YXUIOVUOFQKWDM-UHFFFAOYSA-N

>  <FORMULA>  (4794) 
C10H12O4

>  <EXACT MASS>  (4794) 
196.073558864

>  <MW>  (4794) 
196

>  <ID>  (4794) 
JP002639

>  <CONTRIBUTOR>  (4794) 
University of Tokyo Team, {Faculty of Engineering, University of Tokyo

>  <COMMENT>  (4794) 
SMILES=COC(=O)c(c1)cc(OC)cc(OC)1
InChI=InChI=1S/C10H12O4/c1-12-8-4-7(10(11)14-3)5-9(6-8)13-2/h4-6H,1-3H3
computed SMILES=O=C(OC)C=1C=C(OC)C=C(OC)C1
accession=JP002639
date=2016.01.19 (Created 2008.10.21, modified 2011.05.06)
author=KOGA M, UNIV. OF OCCUPATIONAL AND ENVIRONMENTAL HEALTH
license=CC BY-NC-SA
exact mass=196.07356
ionization energy=70 eV
ion type=[M]+*
computed spectral entropy=3.395516424514306
computed normalized entropy=0.8972902399181536
SPLASH=splash10-0a4i-9800000000-0abf4ca17a48e7f4506e
submitter=submitter = University of Tokyo Team (Faculty of Engineering, University of Tokyo)
MoNA Rating=3.75

>  <NUM PEAKS>  (4794) 
44

>  <MASS SPECTRAL PEAKS>  (4794) 
50 22.4
51 67.2
52 21
53 2.45
59 48.3
62 31.1
63 92
64 3.3
65 16.6
66 24
69 65.8
74 1.14
75 13.1
77 92
78 34.1
79 7.02
82 12.5
91 16.6
92 35.5
93 1.63
94 28.1
95 19.3
98 14.7
106 2.4
107 99.99
108 50.8
109 77.8
110 1.03
122 60.3
123 39.3
125 16.9
135 7.86
136 11.2
137 72.1
138 20.4
139 2.92
150 22.1
151 13.6
165 36.8
166 6.8
167 11.2
196 46.7
197 18.8
198 10.3

>  <PREDICTED SPECTRUM>  (4794) 
14 9
15 81
26 12
27 6
29 53
31 41
33 1
37 35
38 89
39 115
40 48
41 58
44 38
45 1
49 47
50 175
51 232
52 144
53 199
54 40
55 126
56 1
57 70
59 325
60 68
61 88
62 164
63 288
64 165
65 170
66 143
67 105
68 28
69 217
70 21
71 11
72 4
74 63
75 100
76 119
77 319
78 169
79 264
80 89
81 70
82 53
83 32
85 42
86 15
90 29
91 134
92 185
93 218
94 194
95 209
96 19
97 75
99 19
104 7
105 53
106 96
107 273
108 137
109 205
110 154
111 91
113 46
119 36
120 61
121 188
122 291
123 167
124 81
125 106
134 5
135 171
136 146
137 348
138 201
139 32
149 114
150 199
151 157
152 29
153 154
154 25
163 13
165 788
166 298
167 205
168 45
180 19
181 156
182 47
195 159
196 999
197 365
198 141
199 26

$$$$

     RDKit          2D

 14 14  0  0  0  0  0  0  0  0999 V2000
    3.8981    0.0804    0.0000 C   0  0  0  0  0  0  0  0  0  0  0  0
    1.2990    3.0800    0.0000 C   0  0  0  0  0  0  0  0  0  0  0  0
   -5.1970    0.8306    0.0000 C   0  0  0  0  0  0  0  0  0  0  0  0
   -0.0000   -2.1700    0.0000 C   0  0  0  0  0  0  0  0  0  0  0  0
   -1.3000   -1.4200    0.0000 C   0  0  0  0  0  0  0  0  0  0  0  0
    1.3000   -1.4200    0.0000 C   0  0  0  0  0  0  0  0  0  0  0  0
   -1.3000    0.0800    0.0000 C   0  0  0  0  0  0  0  0  0  0  0  0
    1.3000    0.0800    0.0000 C   0  0  0  0  0  0  0  0  0  0  0  0
   -0.0000    0.8300    0.0000 C   0  0  0  0  0  0  0  0  0  0  0  0
   -2.5989    0.8302    0.0000 C   0  0  0  0  0  0  0  0  0  0  0  0
   -2.5987    2.3302    0.0000 O   0  0  0  0  0  0  0  0  0  0  0  0
    2.5989    0.8302    0.0000 O   0  0  0  0  0  0  0  0  0  0  0  0
    0.0000    2.3300    0.0000 O   0  0  0  0  0  0  0  0  0  0  0  0
   -3.8981    0.0804    0.0000 O   0  0  0  0  0  0  0  0  0  0  0  0
  5  4  2  0
  6  4  1  0
  7  5  1  0
  8  6  2  0
  9  7  2  0
  9  8  1  0
 10  7  1  0
 11 10  2  0
 12  1  1  0
 12  8  1  0
 13  2  1  0
 13  9  1  0
 14  3  1  0
 14 10  1  0
M  END
>  <NAME>  (4795) 
2,3-DIMETHOXYBENZOIC ACID METHYL ESTER

>  <SYNONYMS>  (4795) 


>  <SPECTRUM TYPE>  (4795) 
MS1

>  <INSTRUMENT TYPE>  (4795) 
EI-B

>  <INSTRUMENT>  (4795) 
JEOL JMS-01-SG

>  <ION MODE>  (4795) 
P

>  <INCHIKEY>  (4795) 
MGLIMPUPAKQITQ-UHFFFAOYSA-N

>  <FORMULA>  (4795) 
C10H12O4

>  <EXACT MASS>  (4795) 
196.073558864

>  <MW>  (4795) 
196

>  <ID>  (4795) 
JP002638

>  <CONTRIBUTOR>  (4795) 
University of Tokyo Team, {Faculty of Engineering, University of Tokyo

>  <COMMENT>  (4795) 
SMILES=COC(=O)c(c1)c(OC)c(OC)cc1
InChI=InChI=1S/C10H12O4/c1-12-8-6-4-5-7(9(8)13-2)10(11)14-3/h4-6H,1-3H3
computed SMILES=O=C(OC)C=1C=CC=C(OC)C1OC
accession=JP002638
date=2016.01.19 (Created 2008.10.21, modified 2011.05.06)
author=KOGA M, UNIV. OF OCCUPATIONAL AND ENVIRONMENTAL HEALTH
license=CC BY-NC-SA
exact mass=196.07356
ionization energy=70 eV
ion type=[M]+*
computed spectral entropy=2.974132547381349
computed normalized entropy=0.8176115744857186
SPLASH=splash10-014j-3900000000-6c600db974875cd0ab36
submitter=submitter = University of Tokyo Team (Faculty of Engineering, University of Tokyo)
MoNA Rating=3.75

>  <NUM PEAKS>  (4795) 
38

>  <MASS SPECTRAL PEAKS>  (4795) 
44 27.4
50 10
51 27.7
53 1.03
55 6.6
59 8.8
63 8.5
65 1.96
76 7
77 33.7
78 12.2
79 1.48
91 5.9
92 12.2
93 7
95 0.68
107 38.5
108 7.4
109 7
119 0.96
120 6.2
121 11.8
122 34.4
123 1.25
125 8.1
135 24.8
136 8.1
137 0.81
149 30
153 11.4
164 1.29
165 97
166 10.3
167 16.2
168 99.99
181 0.62
196 88.8
197 9.2

>  <PREDICTED SPECTRUM>  (4795) 
14 27
15 122
16 13
25 0
26 27
27 8
28 8
29 80
30 14
31 41
36 1
37 72
38 126
39 135
40 26
41 51
43 69
44 66
45 97
49 89
50 250
51 323
52 179
53 270
54 90
55 34
57 17
59 124
61 80
62 183
63 338
64 243
65 289
66 181
67 121
68 77
69 85
72 16
74 144
75 127
76 175
77 431
78 277
79 295
80 129
81 72
82 22
90 79
91 236
92 286
93 251
94 176
95 194
96 11
97 15
104 91
105 199
106 284
107 408
108 186
109 169
110 58
119 101
120 210
121 281
122 351
123 203
124 12
125 47
127 22
133 64
134 136
135 341
136 170
137 189
138 162
147 43
149 204
150 388
151 282
152 89
153 77
163 217
164 55
165 999
166 306
167 174
179 99
180 15
181 79
196 680
197 218
198 75

$$$$

     RDKit          2D

 13 13  0  0  0  0  0  0  0  0999 V2000
    5.8522    0.3571    0.0000 C   0  0  0  0  0  0  0  0  0  0  0  0
   -4.5510    1.8802    0.0000 C   0  0  0  0  0  0  0  0  0  0  0  0
    1.9442    2.6046    0.0000 C   0  0  0  0  0  0  0  0  0  0  0  0
    0.6306    0.3798    0.0000 C   0  0  0  0  0  0  0  0  0  0  0  0
    3.2287    1.8798    0.0000 C   0  0  0  0  0  0  0  0  0  0  0  0
    1.9551   -0.4144    0.0000 C   0  0  0  0  0  0  0  0  0  0  0  0
   -0.6502    2.6110    0.0000 C   0  0  0  0  0  0  0  0  0  0  0  0
    0.6451    1.8546    0.0000 C   0  0  0  0  0  0  0  0  0  0  0  0
    3.2542    0.3356    0.0000 C   0  0  0  0  0  0  0  0  0  0  0  0
   -1.9529    1.8674    0.0000 C   0  0  0  0  0  0  0  0  0  0  0  0
   -1.9603    0.3674    0.0000 O   0  0  0  0  0  0  0  0  0  0  0  0
    4.5594   -0.4036    0.0000 O   0  0  0  0  0  0  0  0  0  0  0  0
   -3.2482    2.6238    0.0000 O   0  0  0  0  0  0  0  0  0  0  0  0
  5  3  2  0
  6  4  1  0
  8  3  1  0
  8  4  2  0
  8  7  1  0
  9  5  1  0
  9  6  2  0
 10  7  1  0
 11 10  2  0
 12  1  1  0
 12  9  1  0
 13  2  1  0
 13 10  1  0
M  END
>  <NAME>  (4796) 
4-METHOXYPHENYLACETIC ACID METHYL ESTER

>  <SYNONYMS>  (4796) 


>  <SPECTRUM TYPE>  (4796) 
MS1

>  <INSTRUMENT TYPE>  (4796) 
EI-B

>  <INSTRUMENT>  (4796) 
JEOL JMS-01-SG

>  <ION MODE>  (4796) 
P

>  <INCHIKEY>  (4796) 
ZQYLDVNTWDEAJI-UHFFFAOYSA-N

>  <FORMULA>  (4796) 
C10H12O3

>  <EXACT MASS>  (4796) 
180.07864424399997

>  <MW>  (4796) 
180

>  <ID>  (4796) 
JP002636

>  <CONTRIBUTOR>  (4796) 
University of Tokyo Team, {Faculty of Engineering, University of Tokyo

>  <COMMENT>  (4796) 
SMILES=COC(=O)Cc(c1)ccc(OC)c1
InChI=InChI=1S/C10H12O3/c1-12-9-5-3-8(4-6-9)7-10(11)13-2/h3-6H,7H2,1-2H3
computed SMILES=O=C(OC)CC1=CC=C(OC)C=C1
accession=JP002636
date=2016.01.19 (Created 2008.10.21, modified 2011.05.06)
author=KOGA M, UNIV. OF OCCUPATIONAL AND ENVIRONMENTAL HEALTH
license=CC BY-NC-SA
exact mass=180.07864
ionization energy=70 eV
ion type=[M]+*
computed spectral entropy=2.2361696253086194
computed normalized entropy=0.7736615953292721
SPLASH=splash10-00ai-9800000000-4e4d33afb476f217dd2e
submitter=submitter = University of Tokyo Team (Faculty of Engineering, University of Tokyo)
MoNA Rating=3.75

>  <NUM PEAKS>  (4796) 
18

>  <MASS SPECTRAL PEAKS>  (4796) 
42 12.4
50 5.8
51 26.2
52 1.45
53 3.6
63 5.1
65 9.4
74 0.8
77 43
78 40.8
79 3.6
89 1.02
91 25.5
106 4.3
121 56.2
122 4.37
180 99.99
181 10.2

>  <PREDICTED SPECTRUM>  (4796) 
14 24
15 103
16 17
18 6
26 52
27 115
28 72
29 100
30 51
31 16
32 0
33 5
37 20
38 89
39 194
40 64
41 108
42 101
43 113
44 75
46 7
49 20
50 163
51 255
52 206
53 118
54 45
55 18
59 186
61 10
62 74
63 188
64 135
65 223
66 85
67 13
68 3
74 107
75 84
76 70
77 362
78 319
79 106
80 58
86 42
89 173
90 135
91 254
92 158
93 122
94 78
95 0
105 84
106 176
107 107
108 45
119 12
120 59
121 999
122 341
123 50
133 86
135 12
137 46
148 107
149 109
165 10
180 596
181 205
182 46

$$$$

     RDKit          2D

 13 14  0  0  0  0  0  0  0  0999 V2000
    6.3500    1.2990    0.0000 C   0  0  0  0  0  0  0  0  0  0  0  0
   -2.3100    0.7500    0.0000 C   0  0  0  0  0  0  0  0  0  0  0  0
   -2.3100   -0.7500    0.0000 C   0  0  0  0  0  0  0  0  0  0  0  0
   -1.0100    1.5000    0.0000 C   0  0  0  0  0  0  0  0  0  0  0  0
   -1.0100   -1.5000    0.0000 C   0  0  0  0  0  0  0  0  0  0  0  0
    1.7200    1.2100    0.0000 C   0  0  0  0  0  0  0  0  0  0  0  0
    0.2900    0.7500    0.0000 C   0  0  0  0  0  0  0  0  0  0  0  0
    0.2900   -0.7500    0.0000 C   0  0  0  0  0  0  0  0  0  0  0  0
    2.6000   -0.0000    0.0000 C   0  0  0  0  0  0  0  0  0  0  0  0
    4.1000   -0.0000    0.0000 C   0  0  0  0  0  0  0  0  0  0  0  0
    1.7200   -1.2100    0.0000 N   0  0  0  0  0  0  0  0  0  0  0  0
    4.8500   -1.2990    0.0000 O   0  0  0  0  0  0  0  0  0  0  0  0
    4.8500    1.2990    0.0000 O   0  0  0  0  0  0  0  0  0  0  0  0
  3  2  2  0
  4  2  1  0
  5  3  1  0
  7  4  2  0
  7  6  1  0
  8  5  2  0
  8  7  1  0
  9  6  2  0
 10  9  1  0
 11  8  1  0
 11  9  1  0
 12 10  2  0
 13  1  1  0
 13 10  1  0
M  END
>  <NAME>  (4797) 
INDOLE-2-CARBOXYLIC ACID METHYL ESTER

>  <SYNONYMS>  (4797) 


>  <SPECTRUM TYPE>  (4797) 
MS1

>  <INSTRUMENT TYPE>  (4797) 
EI-B

>  <INSTRUMENT>  (4797) 
JEOL JMS-01-SG

>  <ION MODE>  (4797) 
P

>  <INCHIKEY>  (4797) 
NQPIEWBAWBFGOB-UHFFFAOYSA-N

>  <FORMULA>  (4797) 
C10H9NO2

>  <EXACT MASS>  (4797) 
175.063328528

>  <MW>  (4797) 
175

>  <ID>  (4797) 
JP002635

>  <CONTRIBUTOR>  (4797) 
University of Tokyo Team, {Faculty of Engineering, University of Tokyo

>  <COMMENT>  (4797) 
SMILES=COC(=O)C1=CC2=CC=CC=C2N1
InChI=InChI=1S/C10H9NO2/c1-13-10(12)9-6-7-4-2-3-5-8(7)11-9/h2-6,11H,1H3
computed SMILES=O=C(OC)C1=CC=2C=CC=CC2N1
accession=JP002635
date=2016.01.19 (Created 2008.10.21, modified 2011.05.06)
author=KOGA M, UNIV. OF OCCUPATIONAL AND ENVIRONMENTAL HEALTH
license=CC BY-NC-SA
exact mass=175.06333
ionization energy=70 eV
ion type=[M]+*
computed spectral entropy=1.6544587277967584
computed normalized entropy=0.6658031712933395
SPLASH=splash10-0006-0900000000-392d66eda5360eb8f39d
submitter=submitter = University of Tokyo Team (Faculty of Engineering, University of Tokyo)
MoNA Rating=3.75

>  <NUM PEAKS>  (4797) 
12

>  <MASS SPECTRAL PEAKS>  (4797) 
42 2.3
62 5.8
63 8.6
89 1.84
115 2.7
116 21.9
117 3.1
144 99.99
145 11.3
146 3.1
175 49.4
176 4.3

>  <PREDICTED SPECTRUM>  (4797) 
37 31
38 74
39 102
40 25
49 8
50 94
51 138
52 85
61 41
62 135
63 239
64 96
65 33
76 15
77 51
86 40
87 43
88 116
89 515
90 229
91 1
114 175
115 169
116 656
117 403
118 57
142 5
143 221
144 953
145 314
146 25
175 999
176 282
177 11

$$$$

     RDKit          2D

 11 11  0  0  0  0  0  0  0  0999 V2000
   -3.5642    1.2903    0.0000 C   0  0  0  0  0  0  0  0  0  0  0  0
    1.6631   -1.6589    0.0000 C   0  0  0  0  0  0  0  0  0  0  0  0
    2.9619   -0.9039    0.0000 C   0  0  0  0  0  0  0  0  0  0  0  0
    0.3512   -0.9317    0.0000 C   0  0  0  0  0  0  0  0  0  0  0  0
    2.9411    0.6054    0.0000 C   0  0  0  0  0  0  0  0  0  0  0  0
    0.3390    0.5729    0.0000 C   0  0  0  0  0  0  0  0  0  0  0  0
    1.6291    1.3327    0.0000 C   0  0  0  0  0  0  0  0  0  0  0  0
   -0.9662    1.3120    0.0000 C   0  0  0  0  0  0  0  0  0  0  0  0
    1.6096    2.8325    0.0000 Cl  0  0  0  0  0  0  0  0  0  0  0  0
   -0.9788    2.8119    0.0000 O   0  0  0  0  0  0  0  0  0  0  0  0
   -2.2590    0.5512    0.0000 O   0  0  0  0  0  0  0  0  0  0  0  0
  3  2  2  0
  4  2  1  0
  5  3  1  0
  6  4  2  0
  7  5  2  0
  7  6  1  0
  8  6  1  0
  9  7  1  0
 10  8  2  0
 11  1  1  0
 11  8  1  0
M  END
>  <NAME>  (4798) 
2-CHLOROBENZOIC ACID METHYL ESTER

>  <SYNONYMS>  (4798) 


>  <SPECTRUM TYPE>  (4798) 
MS1

>  <INSTRUMENT TYPE>  (4798) 
EI-B

>  <INSTRUMENT>  (4798) 
JEOL JMS-01-SG

>  <ION MODE>  (4798) 
P

>  <INCHIKEY>  (4798) 
JAVRNIFMYIJXIE-UHFFFAOYSA-N

>  <FORMULA>  (4798) 
C8H7ClO2

>  <EXACT MASS>  (4798) 
170.013457144

>  <MW>  (4798) 
170

>  <ID>  (4798) 
JP002634

>  <CONTRIBUTOR>  (4798) 
University of Tokyo Team, {Faculty of Engineering, University of Tokyo

>  <COMMENT>  (4798) 
SMILES=COC(=O)c(c1)c(Cl)ccc1
InChI=InChI=1S/C8H7ClO2/c1-11-8(10)6-4-2-3-5-7(6)9/h2-5H,1H3
computed SMILES=O=C(OC)C=1C=CC=CC1Cl
accession=JP002634
license=CC BY-NC-SA
date=2016.01.19 (Created 2008.10.21, modified 2011.05.06)
author=KOGA M, UNIV. OF OCCUPATIONAL AND ENVIRONMENTAL HEALTH
exact mass=170.01346
ionization energy=70 eV
ion type=[M]+*
computed spectral entropy=1.821780243469618
computed normalized entropy=0.6903147661954016
SPLASH=splash10-000i-3900000000-2fec1ba51e91e5bf09c7
submitter=submitter = University of Tokyo Team (Faculty of Engineering, University of Tokyo)
MoNA Rating=3.75

>  <NUM PEAKS>  (4798) 
14

>  <MASS SPECTRAL PEAKS>  (4798) 
50 12.7
51 7.7
71 2.2
74 0.5
75 25.9
76 4
77 3.6
111 3.4
113 7.7
139 99.99
140 5.4
141 3.4
170 28.1
172 5.4

>  <PREDICTED SPECTRUM>  (4798) 
14 7
15 75
16 4
26 49
27 50
28 46
29 107
31 73
35 8
36 30
37 68
38 98
39 88
40 5
47 4
49 133
50 405
51 320
52 90
53 71
57 24
59 230
60 66
61 140
62 118
63 131
64 99
68 18
69 17
70 23
73 71
74 343
75 644
76 373
77 218
78 72
83 72
84 174
85 166
86 99
91 1
92 49
103 21
104 53
109 23
110 68
111 653
112 176
113 392
114 59
115 6
135 137
139 999
140 321
141 647
142 204
143 46
169 90
170 443
171 153
172 250
173 49

$$$$

     RDKit          2D

 11 11  0  0  0  0  0  0  0  0999 V2000
    4.2095    2.0811    0.0000 C   0  0  0  0  0  0  0  0  0  0  0  0
   -0.9733    2.0450    0.0000 C   0  0  0  0  0  0  0  0  0  0  0  0
    0.3217   -0.1980    0.0000 C   0  0  0  0  0  0  0  0  0  0  0  0
   -2.2724    1.2950    0.0000 C   0  0  0  0  0  0  0  0  0  0  0  0
   -0.9774   -0.9480    0.0000 C   0  0  0  0  0  0  0  0  0  0  0  0
    0.3162    1.3115    0.0000 C   0  0  0  0  0  0  0  0  0  0  0  0
   -2.2905   -0.1935    0.0000 C   0  0  0  0  0  0  0  0  0  0  0  0
    1.6114    2.0680    0.0000 C   0  0  0  0  0  0  0  0  0  0  0  0
   -3.5934   -0.9369    0.0000 Cl  0  0  0  0  0  0  0  0  0  0  0  0
    1.6039    3.5680    0.0000 O   0  0  0  0  0  0  0  0  0  0  0  0
    2.9142    1.3245    0.0000 O   0  0  0  0  0  0  0  0  0  0  0  0
  4  2  2  0
  5  3  1  0
  6  2  1  0
  6  3  2  0
  7  4  1  0
  7  5  2  0
  8  6  1  0
  9  7  1  0
 10  8  2  0
 11  1  1  0
 11  8  1  0
M  END
>  <NAME>  (4799) 
4-CHLOROBENZOIC ACID METHYL ESTER

>  <SYNONYMS>  (4799) 


>  <SPECTRUM TYPE>  (4799) 
MS1

>  <INSTRUMENT TYPE>  (4799) 
EI-B

>  <INSTRUMENT>  (4799) 
JEOL JMS-01-SG

>  <ION MODE>  (4799) 
P

>  <INCHIKEY>  (4799) 
LXNFVVDCCWUUKC-UHFFFAOYSA-N

>  <FORMULA>  (4799) 
C8H7ClO2

>  <EXACT MASS>  (4799) 
170.013457144

>  <MW>  (4799) 
170

>  <ID>  (4799) 
JP002632

>  <CONTRIBUTOR>  (4799) 
University of Tokyo Team, {Faculty of Engineering, University of Tokyo

>  <COMMENT>  (4799) 
SMILES=COC(=O)c(c1)ccc(Cl)c1
InChI=InChI=1S/C8H7ClO2/c1-11-8(10)6-2-4-7(9)5-3-6/h2-5H,1H3
computed SMILES=O=C(OC)C1=CC=C(Cl)C=C1
accession=JP002632
date=2016.01.19 (Created 2008.10.21, modified 2011.05.06)
author=KOGA M, UNIV. OF OCCUPATIONAL AND ENVIRONMENTAL HEALTH
license=CC BY-NC-SA
exact mass=170.01346
ionization energy=70 eV
ion type=[M]+*
computed spectral entropy=2.4815550855004425
computed normalized entropy=0.7709384333277447
SPLASH=splash10-024i-5900000000-27527e684c27d4f8f350
submitter=submitter = University of Tokyo Team (Faculty of Engineering, University of Tokyo)
MoNA Rating=3.75

>  <NUM PEAKS>  (4799) 
25

>  <MASS SPECTRAL PEAKS>  (4799) 
49 3
50 33.1
51 15.2
55 0.34
57 3
59 6.5
63 3.4
73 0.34
74 18.7
75 61.1
76 14.8
77 0.26
85 5.2
111 99.99
112 5.6
113 3.4
135 3
139 33.6
140 20.9
141 8.73
142 4.8
169 3.4
170 75.9
171 0.52
172 26.6

>  <PREDICTED SPECTRUM>  (4799) 
14 16
15 110
16 18
25 0
26 60
27 89
28 70
29 188
30 11
31 74
35 36
36 60
37 83
38 121
39 89
40 14
41 14
43 42
44 8
45 13
47 48
48 14
49 136
50 403
51 270
52 76
53 100
55 15
56 12
59 237
60 73
61 171
62 152
63 149
64 80
65 15
67 0
68 23
69 81
70 40
72 28
73 174
74 345
75 675
76 364
77 119
78 37
79 5
82 21
83 95
84 176
85 242
86 83
91 65
92 30
96 6
98 15
99 59
103 30
104 80
109 63
110 1
111 734
112 111
113 367
125 40
127 16
135 178
136 29
139 999
140 282
141 630
142 194
143 48
169 100
170 412
171 128
172 281
173 71

$$$$

     RDKit          2D

 12 11  0  0  0  0  0  0  0  0999 V2000
   -8.4437    5.6250    0.0000 C   0  0  0  0  0  0  0  0  0  0  0  0
    3.2476    4.8750    0.0000 C   0  0  0  0  0  0  0  0  0  0  0  0
   -3.2476    5.6250    0.0000 C   0  0  0  0  0  0  0  0  0  0  0  0
   -1.9486    4.8750    0.0000 C   0  0  0  0  0  0  0  0  0  0  0  0
   -4.5466    4.8750    0.0000 C   0  0  0  0  0  0  0  0  0  0  0  0
   -0.6495    5.6250    0.0000 C   0  0  0  0  0  0  0  0  0  0  0  0
   -5.8457    5.6250    0.0000 C   0  0  0  0  0  0  0  0  0  0  0  0
    0.6495    4.8750    0.0000 C   0  0  0  0  0  0  0  0  0  0  0  0
   -5.8457    7.1250    0.0000 O   0  0  0  0  0  0  0  0  0  0  0  0
    0.6495    3.3750    0.0000 O   0  0  0  0  0  0  0  0  0  0  0  0
   -7.1447    4.8750    0.0000 O   0  0  0  0  0  0  0  0  0  0  0  0
    1.9486    5.6250    0.0000 O   0  0  0  0  0  0  0  0  0  0  0  0
  4  3  1  0
  3  5  2  0
  4  6  2  0
  7  5  1  0
  8  6  1  0
  9  7  2  0
 10  8  2  0
 11  1  1  0
 11  7  1  0
 12  2  1  0
 12  8  1  0
M  END
>  <NAME>  (4800) 
2,4-HEXADIENEDIOIC ACID DIMETHYL ESTER

>  <SYNONYMS>  (4800) 


>  <SPECTRUM TYPE>  (4800) 
MS1

>  <INSTRUMENT TYPE>  (4800) 
EI-B

>  <INSTRUMENT>  (4800) 
JEOL JMS-01-SG

>  <ION MODE>  (4800) 
P

>  <INCHIKEY>  (4800) 
PXYBXMZVYNWQAM-GGWOSOGESA-N

>  <FORMULA>  (4800) 
C8H10O4

>  <EXACT MASS>  (4800) 
170.0579088

>  <MW>  (4800) 
170

>  <ID>  (4800) 
JP002631

>  <CONTRIBUTOR>  (4800) 
University of Tokyo Team, {Faculty of Engineering, University of Tokyo

>  <COMMENT>  (4800) 
SMILES=COC(=O)C=CC=CC(=O)OC
InChI=InChI=1S/C8H10O4/c1-11-7(9)5-3-4-6-8(10)12-2/h3-6H,1-2H3/b5-3+,6-4+
computed SMILES=O=C(OC)C=CC=CC(=O)OC
accession=JP002631
date=2016.01.19 (Created 2008.10.21, modified 2011.05.06)
author=KOGA M, UNIV. OF OCCUPATIONAL AND ENVIRONMENTAL HEALTH
license=CC BY-NC-SA
exact mass=170.05791
ionization energy=70 eV
ion type=[M]+*
computed spectral entropy=2.2939244688013805
computed normalized entropy=0.7657307994615888
SPLASH=splash10-03di-6900000000-b3c5616a8a5a7e8a7743
submitter=submitter = University of Tokyo Team (Faculty of Engineering, University of Tokyo)
MoNA Rating=3.75

>  <NUM PEAKS>  (4800) 
20

>  <MASS SPECTRAL PEAKS>  (4800) 
50 9.8
51 22.3
52 17.6
53 0.96
54 7.7
55 9.6
59 17.1
68 0.79
69 2.5
79 17.3
80 7.7
83 0.37
95 3
107 3.5
111 99.99
112 0.72
123 11
139 25.5
155 3.5
170 13.3

>  <PREDICTED SPECTRUM>  (4800) 
15 46
26 49
27 59
29 17
37 25
38 14
39 150
40 62
41 44
44 12
45 28
49 22
50 8
51 438
52 313
53 281
54 67
58 0
59 401
63 31
65 37
67 141
68 48
69 98
77 9
79 712
80 238
81 88
83 78
95 131
107 103
111 999
112 220
113 44
123 64
138 51
139 369
155 54
170 386
171 67

$$$$

     RDKit          2D

  8  7  0  0  0  0  0  0  0  0999 V2000
    1.9486    2.6250    0.0000 C   0  0  0  0  0  0  0  0  0  0  0  0
   -4.5466    3.3750    0.0000 C   0  0  0  0  0  0  0  0  0  0  0  0
    0.6495    3.3750    0.0000 C   0  0  0  0  0  0  0  0  0  0  0  0
   -0.6495    2.6250    0.0000 C   0  0  0  0  0  0  0  0  0  0  0  0
   -1.9486    3.3750    0.0000 C   0  0  0  0  0  0  0  0  0  0  0  0
   -0.6495    1.1250    0.0000 Cl  0  0  0  0  0  0  0  0  0  0  0  0
   -1.9486    4.8750    0.0000 O   0  0  0  0  0  0  0  0  0  0  0  0
   -3.2476    2.6250    0.0000 O   0  0  0  0  0  0  0  0  0  0  0  0
  3  1  1  0
  4  3  1  0
  5  4  1  0
  6  4  1  0
  7  5  2  0
  8  2  1  0
  8  5  1  0
M  END
>  <NAME>  (4801) 
ALPHA-CHLORO-N-BUTYRIC ACID METHYL ESTER

>  <SYNONYMS>  (4801) 


>  <SPECTRUM TYPE>  (4801) 
MS1

>  <INSTRUMENT TYPE>  (4801) 
EI-B

>  <INSTRUMENT>  (4801) 
JEOL JMS-01-SG

>  <ION MODE>  (4801) 
P

>  <INCHIKEY>  (4801) 
BHQQXAOBIZQEGI-UHFFFAOYSA-N

>  <FORMULA>  (4801) 
C5H9ClO2

>  <EXACT MASS>  (4801) 
136.029107208

>  <MW>  (4801) 
136

>  <ID>  (4801) 
JP002630

>  <CONTRIBUTOR>  (4801) 
University of Tokyo Team, {Faculty of Engineering, University of Tokyo

>  <COMMENT>  (4801) 
SMILES=CCC(Cl)C(=O)OC
InChI=InChI=1S/C5H9ClO2/c1-3-4(6)5(7)8-2/h4H,3H2,1-2H3
computed SMILES=O=C(OC)C(Cl)CC
accession=JP002630
date=2016.01.19 (Created 2008.10.21, modified 2011.05.06)
author=KOGA M, UNIV. OF OCCUPATIONAL AND ENVIRONMENTAL HEALTH
license=CC BY-NC-SA
exact mass=136.02911
ionization energy=70 eV
ion type=[M]+*
computed spectral entropy=2.4232661248954335
computed normalized entropy=0.7437674410860123
SPLASH=splash10-0a4i-9300000000-f3df95bdab2e213008d8
submitter=submitter = University of Tokyo Team (Faculty of Engineering, University of Tokyo)
MoNA Rating=3.75

>  <NUM PEAKS>  (4801) 
26

>  <MASS SPECTRAL PEAKS>  (4801) 
41 7.5
43 3.8
44 5.4
45 1.62
49 8.6
51 3.6
55 13
56 0.29
57 8.4
59 99.99
60 6.4
61 0.25
62 2.7
63 4.5
65 2.7
69 1.62
70 2.9
74 8.2
76 11.2
77 4.43
78 4.8
79 13.2
101 10.9
108 53.3
109 0.38
110 17.8

>  <PREDICTED SPECTRUM>  (4801) 
14 93
15 401
16 45
17 9
18 8
25 27
26 237
27 579
28 161
29 669
31 275
33 76
35 50
36 104
37 108
38 46
39 695
40 185
41 999
42 445
43 444
44 137
45 45
49 271
50 206
51 168
52 57
53 253
55 636
57 153
59 800
60 101
61 50
67 33
68 142
69 434
73 218
74 160
75 175
76 374
77 816
78 215
79 580
80 97
81 6
87 73
101 536
102 43
103 44
104 46
105 405
106 79
107 469
108 471
109 158
110 133
121 65
136 130

$$$$

     RDKit          2D

  8  7  0  0  0  0  0  0  0  0999 V2000
   -3.5724    3.9375    0.0000 C   0  0  0  0  0  0  0  0  0  0  0  0
    2.9228    3.1875    0.0000 C   0  0  0  0  0  0  0  0  0  0  0  0
   -0.9743    3.9375    0.0000 C   0  0  0  0  0  0  0  0  0  0  0  0
   -2.2733    3.1875    0.0000 C   0  0  0  0  0  0  0  0  0  0  0  0
    0.3248    3.1875    0.0000 C   0  0  0  0  0  0  0  0  0  0  0  0
   -2.2733    1.6875    0.0000 Cl  0  0  0  0  0  0  0  0  0  0  0  0
    0.3248    1.6875    0.0000 O   0  0  0  0  0  0  0  0  0  0  0  0
    1.6238    3.9375    0.0000 O   0  0  0  0  0  0  0  0  0  0  0  0
  4  1  1  0
  4  3  1  0
  5  3  1  0
  6  4  1  0
  7  5  2  0
  8  2  1  0
  8  5  1  0
M  END
>  <NAME>  (4802) 
BETA-CHLORO-N-BUTYRIC ACID METHYL ESTER

>  <SYNONYMS>  (4802) 


>  <SPECTRUM TYPE>  (4802) 
MS1

>  <INSTRUMENT TYPE>  (4802) 
EI-B

>  <INSTRUMENT>  (4802) 
JEOL JMS-01-SG

>  <ION MODE>  (4802) 
P

>  <INCHIKEY>  (4802) 
HDQHWBXUKZBPDN-UHFFFAOYSA-N

>  <FORMULA>  (4802) 
C5H9ClO2

>  <EXACT MASS>  (4802) 
136.029107208

>  <MW>  (4802) 
136

>  <ID>  (4802) 
JP002629

>  <CONTRIBUTOR>  (4802) 
University of Tokyo Team, {Faculty of Engineering, University of Tokyo

>  <COMMENT>  (4802) 
SMILES=COC(=O)CC(C)Cl
InChI=InChI=1S/C5H9ClO2/c1-4(6)3-5(7)8-2/h4H,3H2,1-2H3
computed SMILES=O=C(OC)CC(Cl)C
accession=JP002629
date=2016.01.19 (Created 2008.10.21, modified 2011.05.06)
author=KOGA M, UNIV. OF OCCUPATIONAL AND ENVIRONMENTAL HEALTH
license=CC BY-NC-SA
exact mass=136.02911
ionization energy=70 eV
ion type=[M]+*
computed spectral entropy=2.0538351333950966
computed normalized entropy=0.7584184120955957
SPLASH=splash10-0pb9-9500000000-14f944016ede404f2132
submitter=submitter = University of Tokyo Team (Faculty of Engineering, University of Tokyo)
MoNA Rating=3.75

>  <NUM PEAKS>  (4802) 
15

>  <MASS SPECTRAL PEAKS>  (4802) 
42 21.6
51 5.6
58 8.8
59 99.99
63 10.4
69 17.6
71 5.6
72 0.8
77 44.8
79 15.2
85 1.6
100 0.88
101 99.2
105 24.8
107 8.8

>  <PREDICTED SPECTRUM>  (4802) 
14 33
15 175
25 8
26 118
27 252
29 126
31 82
33 13
35 25
36 69
37 81
38 98
39 371
40 86
41 677
42 378
43 410
44 122
45 90
49 171
51 116
57 36
59 580
60 105
61 98
63 156
65 138
66 67
68 68
69 318
70 150
71 41
72 16
73 143
75 25
76 252
77 461
78 188
79 435
80 8
81 43
85 5
87 146
100 112
101 999
102 195
103 228
104 36
105 400
106 4
107 310
108 31
109 95
110 0
121 49
136 257
138 84

$$$$

     RDKit          2D

 13 13  0  0  0  0  0  0  0  0999 V2000
    3.8981   -0.7504    0.0000 C   0  0  0  0  0  0  0  0  0  0  0  0
    2.5987   -3.0002    0.0000 C   0  0  0  0  0  0  0  0  0  0  0  0
   -5.1970    1.5006    0.0000 C   0  0  0  0  0  0  0  0  0  0  0  0
   -1.3000   -0.7500    0.0000 C   0  0  0  0  0  0  0  0  0  0  0  0
    0.0000    1.5000    0.0000 C   0  0  0  0  0  0  0  0  0  0  0  0
    0.0000   -1.5000    0.0000 C   0  0  0  0  0  0  0  0  0  0  0  0
    1.3000    0.7500    0.0000 C   0  0  0  0  0  0  0  0  0  0  0  0
   -1.3000    0.7500    0.0000 C   0  0  0  0  0  0  0  0  0  0  0  0
    1.3000   -0.7500    0.0000 C   0  0  0  0  0  0  0  0  0  0  0  0
   -2.5989    1.5002    0.0000 C   0  0  0  0  0  0  0  0  0  0  0  0
    2.5989   -1.5002    0.0000 N   0  0  0  0  0  0  0  0  0  0  0  0
   -2.5987    3.0002    0.0000 O   0  0  0  0  0  0  0  0  0  0  0  0
   -3.8981    0.7504    0.0000 O   0  0  0  0  0  0  0  0  0  0  0  0
  6  4  2  0
  7  5  1  0
  8  4  1  0
  8  5  2  0
  9  6  1  0
  9  7  2  0
 10  8  1  0
 11  1  1  0
 11  2  1  0
 11  9  1  0
 12 10  2  0
 13  3  1  0
 13 10  1  0
M  END
>  <NAME>  (4803) 
4-DIMETHYLAMINOBENZOIC ACID METHYL ESTER

>  <SYNONYMS>  (4803) 


>  <SPECTRUM TYPE>  (4803) 
MS1

>  <INSTRUMENT TYPE>  (4803) 
EI-B

>  <INSTRUMENT>  (4803) 
JEOL JMS-01-SG

>  <ION MODE>  (4803) 
P

>  <INCHIKEY>  (4803) 
DBQGARDMYOMOOS-UHFFFAOYSA-N

>  <FORMULA>  (4803) 
C10H13NO2

>  <EXACT MASS>  (4803) 
179.094628656

>  <MW>  (4803) 
179

>  <ID>  (4803) 
JP002628

>  <CONTRIBUTOR>  (4803) 
University of Tokyo Team, {Faculty of Engineering, University of Tokyo

>  <COMMENT>  (4803) 
SMILES=COC(=O)c(c1)ccc(N(C)C)c1
InChI=InChI=1S/C10H13NO2/c1-11(2)9-6-4-8(5-7-9)10(12)13-3/h4-7H,1-3H3
computed SMILES=O=C(OC)C1=CC=C(C=C1)N(C)C
accession=JP002628
date=2016.01.19 (Created 2008.10.21, modified 2011.05.06)
author=KOGA M, UNIV. OF OCCUPATIONAL AND ENVIRONMENTAL HEALTH
license=CC BY-NC-SA
exact mass=179.09463
ionization energy=70 eV
ion type=[M]+*
computed spectral entropy=2.2384826239511115
computed normalized entropy=0.7139169999354554
SPLASH=splash10-004j-2900000000-b9646fb901e41ccd02db
submitter=submitter = University of Tokyo Team (Faculty of Engineering, University of Tokyo)
MoNA Rating=3.75

>  <NUM PEAKS>  (4803) 
23

>  <MASS SPECTRAL PEAKS>  (4803) 
39 9.6
42 7.2
50 4.8
51 1.68
63 4
74 13.6
77 28
78 1.04
79 4.8
91 4.8
92 4
104 0.96
105 11.2
118 5.6
119 4.8
120 0.56
132 6.4
134 4
148 99.99
149 0.56
178 47.2
179 87.2
180 5.6

>  <PREDICTED SPECTRUM>  (4803) 
14 26
15 174
16 11
17 24
18 57
26 30
27 124
28 119
29 108
30 58
31 57
32 4
33 7
37 49
38 102
39 188
40 69
41 91
42 342
43 107
44 171
45 53
49 53
50 272
51 351
52 201
53 168
54 37
59 189
60 4
61 75
62 157
63 279
64 192
65 291
66 164
67 70
74 121
75 184
76 262
77 472
78 304
79 328
80 150
81 66
82 25
83 2
88 30
89 131
90 169
91 319
92 195
93 130
102 123
103 255
104 364
105 350
106 120
107 95
108 104
117 123
118 317
119 388
120 380
121 130
122 14
131 34
132 215
133 177
134 127
135 190
136 54
146 206
147 124
148 641
149 212
150 101
162 99
163 118
164 282
165 108
176 34
177 29
178 868
179 999
180 326
181 112

$$$$

     RDKit          2D

 11 11  0  0  0  0  0  0  0  0999 V2000
    2.1296   -1.8529    0.0000 C   0  0  0  0  0  0  0  0  0  0  0  0
   -1.7652    0.4011    0.0000 C   0  0  0  0  0  0  0  0  0  0  0  0
    5.0626    2.1944    0.0000 C   0  0  0  0  0  0  0  0  0  0  0  0
    3.5954    1.8825    0.0000 C   0  0  0  0  0  0  0  0  0  0  0  0
    5.8078    0.9010    0.0000 C   0  0  0  0  0  0  0  0  0  0  0  0
    2.1311   -0.3529    0.0000 C   0  0  0  0  0  0  0  0  0  0  0  0
    3.4309    0.3958    0.0000 C   0  0  0  0  0  0  0  0  0  0  0  0
    0.8328    0.3985    0.0000 C   0  0  0  0  0  0  0  0  0  0  0  0
    0.8344    1.8985    0.0000 O   0  0  0  0  0  0  0  0  0  0  0  0
   -0.4670   -0.3502    0.0000 O   0  0  0  0  0  0  0  0  0  0  0  0
    4.8072   -0.2113    0.0000 O   0  0  0  0  0  0  0  0  0  0  0  0
  4  3  1  0
  5  3  2  0
  6  1  2  0
  7  4  2  0
  7  6  1  0
  8  6  1  0
  9  8  2  0
 10  2  1  0
 10  8  1  0
 11  5  1  0
 11  7  1  0
M  END
>  <NAME>  (4804) 
2-(2-FURYL)ACRYLIC ACID METHYL ESTER

>  <SYNONYMS>  (4804) 


>  <SPECTRUM TYPE>  (4804) 
MS1

>  <INSTRUMENT TYPE>  (4804) 
EI-B

>  <INSTRUMENT>  (4804) 
JEOL JMS-01-SG

>  <ION MODE>  (4804) 
P

>  <INCHIKEY>  (4804) 
IVLQYNGAWMWRCK-UHFFFAOYSA-N

>  <FORMULA>  (4804) 
C8H8O3

>  <EXACT MASS>  (4804) 
152.04734411599998

>  <MW>  (4804) 
152

>  <ID>  (4804) 
JP002626

>  <CONTRIBUTOR>  (4804) 
University of Tokyo Team, {Faculty of Engineering, University of Tokyo

>  <COMMENT>  (4804) 
SMILES=COC(=O)C(=C)c(c1)occ1
InChI=InChI=1S/C8H8O3/c1-6(8(9)10-2)7-4-3-5-11-7/h3-5H,1H2,2H3
computed SMILES=O=C(OC)C(=C)C=1OC=CC1
accession=JP002626
date=2016.01.19 (Created 2008.10.21, modified 2011.05.06)
author=KOGA M, UNIV. OF OCCUPATIONAL AND ENVIRONMENTAL HEALTH
license=CC BY-NC-SA
exact mass=152.04734
ionization energy=70 eV
ion type=[M]+*
computed spectral entropy=2.308551927675429
computed normalized entropy=0.7264042873127419
SPLASH=splash10-0g4i-6900000000-4a0ffea23242f38f8b19
submitter=submitter = University of Tokyo Team (Faculty of Engineering, University of Tokyo)
MoNA Rating=3.75

>  <NUM PEAKS>  (4804) 
24

>  <MASS SPECTRAL PEAKS>  (4804) 
42 5.6
53 4.9
59 2.5
62 0.49
63 13.1
64 5.6
65 53
66 0.58
77 3.5
78 11.7
79 5.3
81 0.51
92 8.6
93 14.3
94 6.5
107 0.42
108 9.6
109 10.3
121 99.99
122 0.93
123 3
124 7.2
152 65.2
153 4.9

>  <PREDICTED SPECTRUM>  (4804) 
15 36
25 5
26 54
27 36
29 4
33 11
37 122
38 231
39 540
40 163
41 198
42 90
44 42
45 96
49 10
50 136
51 286
52 163
53 382
54 140
55 140
59 231
61 51
62 46
63 133
64 125
65 444
66 196
67 240
68 1
69 20
77 130
79 65
80 3
81 253
82 55
91 60
92 175
93 705
94 320
95 907
96 24
107 59
121 637
122 104
123 20
124 95
137 156
152 999
153 285
154 22

$$$$

     RDKit          2D

  8  7  0  0  0  0  0  0  0  0999 V2000
    1.9486    3.3750    0.0000 C   0  0  0  0  0  0  0  0  0  0  0  0
   -3.2476    3.3750    0.0000 C   0  0  0  0  0  0  0  0  0  0  0  0
   -1.9486    4.1250    0.0000 C   0  0  0  0  0  0  0  0  0  0  0  0
   -4.5466    4.1250    0.0000 C   0  0  0  0  0  0  0  0  0  0  0  0
   -0.6495    3.3750    0.0000 C   0  0  0  0  0  0  0  0  0  0  0  0
   -5.8457    3.3750    0.0000 Cl  0  0  0  0  0  0  0  0  0  0  0  0
   -0.6495    1.8750    0.0000 O   0  0  0  0  0  0  0  0  0  0  0  0
    0.6495    4.1250    0.0000 O   0  0  0  0  0  0  0  0  0  0  0  0
  3  2  1  0
  4  2  1  0
  5  3  1  0
  6  4  1  0
  7  5  2  0
  8  1  1  0
  8  5  1  0
M  END
>  <NAME>  (4805) 
GAMMA-CHLORO-N-BUTYRIC ACID METHYL ESTER

>  <SYNONYMS>  (4805) 


>  <SPECTRUM TYPE>  (4805) 
MS1

>  <INSTRUMENT TYPE>  (4805) 
EI-B

>  <INSTRUMENT>  (4805) 
JEOL JMS-01-SG

>  <ION MODE>  (4805) 
P

>  <INCHIKEY>  (4805) 
ZZUYIRISBMWFMV-UHFFFAOYSA-N

>  <FORMULA>  (4805) 
C5H9ClO2

>  <EXACT MASS>  (4805) 
136.029107208

>  <MW>  (4805) 
136

>  <ID>  (4805) 
JP002625

>  <CONTRIBUTOR>  (4805) 
University of Tokyo Team, {Faculty of Engineering, University of Tokyo

>  <COMMENT>  (4805) 
SMILES=COC(=O)CCCCl
InChI=InChI=1S/C5H9ClO2/c1-8-5(7)3-2-4-6/h2-4H2,1H3
computed SMILES=O=C(OC)CCCCl
accession=JP002625
date=2016.01.19 (Created 2008.10.21, modified 2011.05.06)
author=KOGA M, UNIV. OF OCCUPATIONAL AND ENVIRONMENTAL HEALTH
license=CC BY-NC-SA
exact mass=136.02911
ionization energy=70 eV
ion type=[M]+*
computed spectral entropy=2.1814878787583423
computed normalized entropy=0.7699695059445045
SPLASH=splash10-0a4i-9400000000-0ba1698874baf8327ca1
submitter=submitter = University of Tokyo Team (Faculty of Engineering, University of Tokyo)
MoNA Rating=3.75

>  <NUM PEAKS>  (4805) 
17

>  <MASS SPECTRAL PEAKS>  (4805) 
39 15.6
41 9.4
42 10.6
49 1.73
51 3.9
55 12.2
59 66.4
60 0.67
69 4.4
74 84.3
75 17.8
76 0.33
77 48
79 13.9
105 99.99
106 0.39
107 32.4

>  <PREDICTED SPECTRUM>  (4805) 
14 38
15 185
26 108
27 313
29 213
31 113
33 10
37 4
38 18
39 331
40 78
41 833
42 387
43 339
44 69
45 342
49 410
50 120
51 229
53 40
55 628
57 181
59 777
60 138
61 125
68 54
69 430
70 140
71 82
73 283
74 290
75 118
76 342
77 999
78 204
79 652
81 173
87 343
93 10
100 15
101 354
104 28
105 734
106 40
107 380
108 163
109 0
110 30
121 14
136 50

$$$$

     RDKit          2D

 13 12  0  0  0  0  0  0  0  0999 V2000
   -3.5623    3.3509    0.0000 C   0  0  0  0  0  0  0  0  0  0  0  0
   -1.6339    3.3509    0.0000 C   0  0  0  0  0  0  0  0  0  0  0  0
    2.5981    4.5000    0.0000 C   0  0  0  0  0  0  0  0  0  0  0  0
   -7.7942    4.5000    0.0000 C   0  0  0  0  0  0  0  0  0  0  0  0
   -1.2990    5.2500    0.0000 C   0  0  0  0  0  0  0  0  0  0  0  0
   -3.8971    5.2500    0.0000 C   0  0  0  0  0  0  0  0  0  0  0  0
    0.0000    4.5000    0.0000 C   0  0  0  0  0  0  0  0  0  0  0  0
   -5.1962    4.5000    0.0000 C   0  0  0  0  0  0  0  0  0  0  0  0
   -2.5981    4.5000    0.0000 C   0  0  0  0  0  0  0  0  0  0  0  0
    0.0000    3.0000    0.0000 O   0  0  0  0  0  0  0  0  0  0  0  0
   -5.1962    3.0000    0.0000 O   0  0  0  0  0  0  0  0  0  0  0  0
    1.2990    5.2500    0.0000 O   0  0  0  0  0  0  0  0  0  0  0  0
   -6.4952    5.2500    0.0000 O   0  0  0  0  0  0  0  0  0  0  0  0
  7  5  1  0
  8  6  1  0
  9  1  1  0
  9  2  1  0
  9  5  1  0
  9  6  1  0
 10  7  2  0
 11  8  2  0
 12  3  1  0
 12  7  1  0
 13  4  1  0
 13  8  1  0
M  END
>  <NAME>  (4806) 
3,3-DIMETHYLGLUTARIC ACID DIMETHYL ESTER

>  <SYNONYMS>  (4806) 


>  <SPECTRUM TYPE>  (4806) 
MS1

>  <INSTRUMENT TYPE>  (4806) 
EI-B

>  <INSTRUMENT>  (4806) 
JEOL JMS-01-SG

>  <ION MODE>  (4806) 
P

>  <INCHIKEY>  (4806) 
NPEAPWIQJBAJIO-UHFFFAOYSA-N

>  <FORMULA>  (4806) 
C9H16O4

>  <EXACT MASS>  (4806) 
188.104858992

>  <MW>  (4806) 
188

>  <ID>  (4806) 
JP002623

>  <CONTRIBUTOR>  (4806) 
University of Tokyo Team, {Faculty of Engineering, University of Tokyo

>  <COMMENT>  (4806) 
SMILES=COC(=O)CC(C)(C)CC(=O)OC
InChI=InChI=1S/C9H16O4/c1-9(2,5-7(10)12-3)6-8(11)13-4/h5-6H2,1-4H3
computed SMILES=O=C(OC)CC(C)(C)CC(=O)OC
accession=JP002623
date=2016.01.19 (Created 2008.10.21, modified 2011.05.06)
author=KOGA M, UNIV. OF OCCUPATIONAL AND ENVIRONMENTAL HEALTH
license=CC BY-NC-SA
exact mass=188.10486
ionization energy=70 eV
ion type=[M]+*
computed spectral entropy=2.651124543928575
computed normalized entropy=0.7873156021279022
SPLASH=splash10-060r-9400000000-96c136a2cf1c2810d74f
submitter=submitter = University of Tokyo Team (Faculty of Engineering, University of Tokyo)
MoNA Rating=3.75

>  <NUM PEAKS>  (4806) 
29

>  <MASS SPECTRAL PEAKS>  (4806) 
41 3.1
42 11.6
44 3.2
53 0.56
55 43.4
56 10.6
59 29.8
68 0.32
69 14.5
71 3.4
73 99.99
74 2.79
81 5.8
82 5.8
83 60
87 0.65
96 6.7
97 9.1
109 9.4
113 1.33
114 7.7
115 68.6
116 4.4
128 4.08
129 12.9
141 21.3
156 15.8
157 4.63
158 3.2

>  <PREDICTED SPECTRUM>  (4806) 
14 7
15 57
26 6
27 137
28 36
29 206
31 104
32 13
33 29
38 21
39 297
40 128
41 611
42 359
43 660
44 163
45 229
46 0
47 27
51 37
52 23
53 215
54 148
55 658
56 333
57 244
58 140
59 710
60 7
61 41
65 63
66 47
67 233
68 206
69 395
70 207
71 231
72 229
73 507
74 676
75 161
77 13
79 86
81 108
82 244
83 688
84 168
85 250
86 113
87 380
88 72
89 31
95 80
96 218
97 392
98 155
99 271
100 73
101 212
109 99
111 23
112 20
113 299
114 441
115 999
116 260
117 54
122 18
123 26
125 172
127 186
128 523
129 342
130 115
131 115
139 75
140 5
141 254
145 54
146 65
155 91
156 462
157 642
158 179
159 70
171 83
173 61
188 141
189 44

$$$$

     RDKit          2D

 13 13  0  0  0  0  0  0  0  0999 V2000
   -3.2563    1.8680    0.0000 C   0  0  0  0  0  0  0  0  0  0  0  0
   -1.9576   -0.3822    0.0000 C   0  0  0  0  0  0  0  0  0  0  0  0
    5.8387    1.1249    0.0000 C   0  0  0  0  0  0  0  0  0  0  0  0
    0.6368    4.1106    0.0000 C   0  0  0  0  0  0  0  0  0  0  0  0
    1.9358    3.3606    0.0000 C   0  0  0  0  0  0  0  0  0  0  0  0
   -0.6577    3.3684    0.0000 C   0  0  0  0  0  0  0  0  0  0  0  0
    0.6408    1.1176    0.0000 C   0  0  0  0  0  0  0  0  0  0  0  0
    1.9404    1.8684    0.0000 C   0  0  0  0  0  0  0  0  0  0  0  0
   -0.6582    1.8676    0.0000 C   0  0  0  0  0  0  0  0  0  0  0  0
    3.2407    1.1206    0.0000 C   0  0  0  0  0  0  0  0  0  0  0  0
   -1.9574    1.1178    0.0000 N   0  0  0  0  0  0  0  0  0  0  0  0
    3.2432   -0.3794    0.0000 O   0  0  0  0  0  0  0  0  0  0  0  0
    4.5384    1.8728    0.0000 O   0  0  0  0  0  0  0  0  0  0  0  0
  5  4  2  0
  6  4  1  0
  8  5  1  0
  8  7  2  0
  9  6  2  0
  9  7  1  0
 10  8  1  0
 11  1  1  0
 11  2  1  0
 11  9  1  0
 12 10  2  0
 13  3  1  0
 13 10  1  0
M  END
>  <NAME>  (4807) 
3-DIMETHYLAMINOBENZOIC ACID METHYL ESTER

>  <SYNONYMS>  (4807) 


>  <SPECTRUM TYPE>  (4807) 
MS1

>  <INSTRUMENT TYPE>  (4807) 
EI-B

>  <INSTRUMENT>  (4807) 
JEOL JMS-01-SG

>  <ION MODE>  (4807) 
P

>  <INCHIKEY>  (4807) 
CABFTHPIDKWPNQ-UHFFFAOYSA-N

>  <FORMULA>  (4807) 
C10H13NO2

>  <EXACT MASS>  (4807) 
179.094628656

>  <MW>  (4807) 
179

>  <ID>  (4807) 
JP002621

>  <CONTRIBUTOR>  (4807) 
University of Tokyo Team, {Faculty of Engineering, University of Tokyo

>  <COMMENT>  (4807) 
SMILES=COC(=O)c(c1)cc(cc1)N(C)C
InChI=InChI=1S/C10H13NO2/c1-11(2)9-6-4-5-8(7-9)10(12)13-3/h4-7H,1-3H3
computed SMILES=O=C(OC)C1=CC=CC(=C1)N(C)C
accession=JP002621
date=2016.01.19 (Created 2008.10.21, modified 2011.05.06)
author=KOGA M, UNIV. OF OCCUPATIONAL AND ENVIRONMENTAL HEALTH
license=CC BY-NC-SA
exact mass=179.09463
ionization energy=70 eV
ion type=[M]+*
computed spectral entropy=2.4548665565145495
computed normalized entropy=0.7290320424637031
SPLASH=splash10-004i-3900000000-32ec3a722f093ab92c1b
submitter=submitter = University of Tokyo Team (Faculty of Engineering, University of Tokyo)
MoNA Rating=3.75

>  <NUM PEAKS>  (4807) 
29

>  <MASS SPECTRAL PEAKS>  (4807) 
42 6.3
50 4.1
51 4.8
59 0.33
63 4.8
65 2.6
74 11.2
75 0.26
76 2.9
77 13.8
78 4.8
79 0.44
91 4.4
92 2.9
104 7.1
105 0.52
106 5.6
118 8.9
119 4.1
120 1.61
121 3.7
132 4.1
148 11.2
163 0.26
164 2.9
165 7.4
178 99.99
179 8.65
180 8.9

>  <PREDICTED SPECTRUM>  (4807) 
15 76
16 0
26 7
27 51
28 66
30 40
33 0
38 47
39 102
40 31
41 14
42 153
43 51
44 95
49 1
50 142
51 215
52 124
53 83
54 26
59 59
61 39
62 78
63 179
64 126
65 198
66 127
67 36
68 26
73 12
74 78
75 133
76 156
77 320
78 209
79 217
80 78
81 35
89 57
90 127
91 256
92 185
93 100
102 106
103 180
104 276
105 255
106 105
107 79
108 54
117 159
118 313
119 326
120 345
121 185
122 2
130 3
131 63
132 171
133 83
134 96
135 119
136 7
145 0
146 143
147 82
148 285
149 106
150 53
162 84
163 134
164 272
165 108
176 52
178 999
179 995
180 344
181 107

$$$$

     RDKit          2D

 15 16  0  0  0  0  0  0  0  0999 V2000
    2.5990    5.2500    0.0000 C   0  0  0  0  0  0  0  0  0  0  0  0
   -2.6000   -0.7500    0.0000 C   0  0  0  0  0  0  0  0  0  0  0  0
   -2.6000    0.7500    0.0000 C   0  0  0  0  0  0  0  0  0  0  0  0
   -1.3000   -1.5000    0.0000 C   0  0  0  0  0  0  0  0  0  0  0  0
   -1.3000    1.5000    0.0000 C   0  0  0  0  0  0  0  0  0  0  0  0
    1.3000   -1.5000    0.0000 C   0  0  0  0  0  0  0  0  0  0  0  0
    2.6000   -0.7500    0.0000 C   0  0  0  0  0  0  0  0  0  0  0  0
    0.0000   -0.7500    0.0000 C   0  0  0  0  0  0  0  0  0  0  0  0
    0.0000    0.7500    0.0000 C   0  0  0  0  0  0  0  0  0  0  0  0
    2.6000    0.7500    0.0000 C   0  0  0  0  0  0  0  0  0  0  0  0
    1.3000    1.5000    0.0000 C   0  0  0  0  0  0  0  0  0  0  0  0
    1.3000    3.0000    0.0000 C   0  0  0  0  0  0  0  0  0  0  0  0
    3.8989    1.5002    0.0000 O   0  0  0  0  0  0  0  0  0  0  0  0
    0.0010    3.7500    0.0000 O   0  0  0  0  0  0  0  0  0  0  0  0
    2.5990    3.7500    0.0000 O   0  0  0  0  0  0  0  0  0  0  0  0
  3  2  2  0
  4  2  1  0
  5  3  1  0
  7  6  2  0
  8  4  2  0
  8  6  1  0
  9  5  2  0
  9  8  1  0
 10  7  1  0
 11  9  1  0
 11 10  2  0
 12 11  1  0
 13 10  1  0
 14 12  2  0
 15  1  1  0
 15 12  1  0
M  END
>  <NAME>  (4808) 
2-HYDROXY-1-NAPHTHOIC ACID METHYL ESTER

>  <SYNONYMS>  (4808) 


>  <SPECTRUM TYPE>  (4808) 
MS1

>  <INSTRUMENT TYPE>  (4808) 
EI-B

>  <INSTRUMENT>  (4808) 
JEOL JMS-01-SG

>  <ION MODE>  (4808) 
P

>  <INCHIKEY>  (4808) 
LEENMPKUUNPLHM-UHFFFAOYSA-N

>  <FORMULA>  (4808) 
C12H10O3

>  <EXACT MASS>  (4808) 
202.06299417999998

>  <MW>  (4808) 
202

>  <ID>  (4808) 
JP002620

>  <CONTRIBUTOR>  (4808) 
University of Tokyo Team, {Faculty of Engineering, University of Tokyo

>  <COMMENT>  (4808) 
SMILES=COC(=O)c(c(O)1)c(c2)c(ccc2)cc1
InChI=InChI=1S/C12H10O3/c1-15-12(14)11-9-5-3-2-4-8(9)6-7-10(11)13/h2-7,13H,1H3
computed SMILES=O=C(OC)C1=C(O)C=CC=2C=CC=CC21
accession=JP002620
date=2016.01.19 (Created 2008.10.21, modified 2011.05.06)
author=KOGA M, UNIV. OF OCCUPATIONAL AND ENVIRONMENTAL HEALTH
license=CC BY-NC-SA
exact mass=202.06299
ionization energy=70 eV
ion type=[M]+*
computed spectral entropy=2.3621682740672827
computed normalized entropy=0.7533639392689152
SPLASH=splash10-00dl-2910000000-277da7e8c2e07e24935d
submitter=submitter = University of Tokyo Team (Faculty of Engineering, University of Tokyo)
MoNA Rating=3.75

>  <NUM PEAKS>  (4808) 
23

>  <MASS SPECTRAL PEAKS>  (4808) 
44 21.5
51 7.5
62 2.6
63 1.32
65 4.1
71 2.2
72 4.1
77 0.64
87 2.2
88 3.7
89 8.3
113 0.67
114 39.2
115 39.6
116 6.7
142 2.71
143 4.9
144 44.5
145 3
170 99.99
171 20.3
202 30.1
203 1.8

>  <PREDICTED SPECTRUM>  (4808) 
15 42
26 24
27 14
28 61
29 41
30 1
31 11
32 31
33 20
37 20
38 69
39 124
40 60
41 83
43 192
44 182
45 71
49 58
50 212
51 246
52 127
53 164
54 40
55 68
56 66
57 153
58 28
59 35
61 39
62 198
63 314
64 149
65 108
67 7
68 23
69 63
70 93
71 120
72 23
74 198
75 169
76 251
77 240
78 28
79 23
84 68
85 96
86 189
87 227
88 161
89 165
90 51
92 37
93 5
98 93
99 86
100 86
101 78
102 49
103 136
112 12
113 353
114 529
115 343
116 84
117 43
126 54
127 158
128 86
129 88
130 16
141 142
142 405
143 206
144 9
145 28
157 103
170 999
171 488
172 143
173 75
174 14
202 736
203 267
204 58

$$$$

     RDKit          2D

 16 17  0  0  0  0  0  0  0  0999 V2000
   -0.4734    3.3757    0.0000 C   0  0  0  0  0  0  0  0  0  0  0  0
    6.0441    1.1454    0.0000 C   0  0  0  0  0  0  0  0  0  0  0  0
   -3.0200   -1.1200    0.0000 C   0  0  0  0  0  0  0  0  0  0  0  0
   -3.0200    0.3600    0.0000 C   0  0  0  0  0  0  0  0  0  0  0  0
   -1.7200   -1.8800    0.0000 C   0  0  0  0  0  0  0  0  0  0  0  0
   -1.7500    1.1100    0.0000 C   0  0  0  0  0  0  0  0  0  0  0  0
    0.8800   -1.8800    0.0000 C   0  0  0  0  0  0  0  0  0  0  0  0
    2.1700   -1.1200    0.0000 C   0  0  0  0  0  0  0  0  0  0  0  0
   -0.4200   -1.1200    0.0000 C   0  0  0  0  0  0  0  0  0  0  0  0
   -0.4200    0.3600    0.0000 C   0  0  0  0  0  0  0  0  0  0  0  0
    2.1500    0.3800    0.0000 C   0  0  0  0  0  0  0  0  0  0  0  0
    0.8500    1.1400    0.0000 C   0  0  0  0  0  0  0  0  0  0  0  0
    3.4461    1.1351    0.0000 C   0  0  0  0  0  0  0  0  0  0  0  0
    3.4401    2.6351    0.0000 O   0  0  0  0  0  0  0  0  0  0  0  0
    0.8337    2.6399    0.0000 O   0  0  0  0  0  0  0  0  0  0  0  0
    4.7481    0.3903    0.0000 O   0  0  0  0  0  0  0  0  0  0  0  0
  4  3  2  0
  5  3  1  0
  6  4  1  0
  8  7  2  0
  9  5  2  0
  9  7  1  0
 10  6  2  0
 10  9  1  0
 11  8  1  0
 12 10  1  0
 12 11  2  0
 13 11  1  0
 14 13  2  0
 15  1  1  0
 15 12  1  0
 16  2  1  0
 16 13  1  0
M  END
>  <NAME>  (4809) 
1-METHOXY-2-NAPHTHOIC ACID METHYL ESTER

>  <SYNONYMS>  (4809) 


>  <SPECTRUM TYPE>  (4809) 
MS1

>  <INSTRUMENT TYPE>  (4809) 
EI-B

>  <INSTRUMENT>  (4809) 
JEOL JMS-01-SG

>  <ION MODE>  (4809) 
P

>  <INCHIKEY>  (4809) 
IKYRLYKWULPUNA-UHFFFAOYSA-N

>  <FORMULA>  (4809) 
C13H12O3

>  <EXACT MASS>  (4809) 
216.07864424399997

>  <MW>  (4809) 
216

>  <ID>  (4809) 
JP002619

>  <CONTRIBUTOR>  (4809) 
University of Tokyo Team, {Faculty of Engineering, University of Tokyo

>  <COMMENT>  (4809) 
SMILES=COC(=O)c(c1)c(OC)c(c2)c(ccc2)c1
InChI=InChI=1S/C13H12O3/c1-15-12-10-6-4-3-5-9(10)7-8-11(12)13(14)16-2/h3-8H,1-2H3
computed SMILES=O=C(OC)C=1C=CC=2C=CC=CC2C1OC
accession=JP002619
date=2016.01.19 (Created 2008.10.21, modified 2011.05.06)
author=KOGA M, UNIV. OF OCCUPATIONAL AND ENVIRONMENTAL HEALTH
license=CC BY-NC-SA
exact mass=216.07864
ionization energy=70 eV
ion type=[M]+*
computed spectral entropy=2.736346684820689
computed normalized entropy=0.8398605298793167
SPLASH=splash10-014r-0920000000-2088ad36378be7d246b1
submitter=submitter = University of Tokyo Team (Faculty of Engineering, University of Tokyo)
MoNA Rating=3.75

>  <NUM PEAKS>  (4809) 
26

>  <MASS SPECTRAL PEAKS>  (4809) 
51 7.8
57 11.7
63 13.2
113 1.64
114 53.9
115 26.5
126 7
127 4.29
128 19.5
129 21.8
130 6.2
142 1.48
143 17.1
145 21
155 23.4
156 1.25
157 17.9
170 34.3
171 13.2
183 2.89
184 8.5
185 99.99
186 11.7
187 2.03
216 83.5
217 9.3

>  <PREDICTED SPECTRUM>  (4809) 
14 8
15 73
16 6
29 22
32 5
37 9
38 36
39 68
40 7
43 119
44 56
45 21
49 16
50 141
51 184
52 22
53 70
56 17
57 79
59 155
61 36
62 146
63 264
64 108
65 3
69 23
70 11
71 90
74 197
75 189
76 169
77 185
78 19
84 43
85 29
86 143
87 145
88 197
89 132
90 48
91 12
97 14
98 111
99 125
100 84
101 190
102 109
103 39
104 70
111 22
113 274
114 347
115 227
116 46
117 14
125 102
126 300
127 430
128 324
129 323
130 158
140 31
141 156
142 218
143 158
144 72
145 74
147 0
155 244
156 167
157 342
158 131
159 50
169 98
170 266
171 193
172 83
173 43
183 248
184 129
185 999
186 317
187 148
201 158
202 37
216 744
217 268
218 82

$$$$

     RDKit          2D

 18 20  0  0  0  0  0  0  0  0999 V2000
   -1.2990    5.2500    0.0000 C   0  0  0  0  0  0  0  0  0  0  0  0
    3.9000    0.7500    0.0000 C   0  0  0  0  0  0  0  0  0  0  0  0
   -3.9000    0.7500    0.0000 C   0  0  0  0  0  0  0  0  0  0  0  0
    3.9000   -0.7500    0.0000 C   0  0  0  0  0  0  0  0  0  0  0  0
   -3.9000   -0.7500    0.0000 C   0  0  0  0  0  0  0  0  0  0  0  0
    2.6000    1.5000    0.0000 C   0  0  0  0  0  0  0  0  0  0  0  0
   -2.6000    1.5000    0.0000 C   0  0  0  0  0  0  0  0  0  0  0  0
    2.6000   -1.5000    0.0000 C   0  0  0  0  0  0  0  0  0  0  0  0
   -2.6000   -1.5000    0.0000 C   0  0  0  0  0  0  0  0  0  0  0  0
    1.3000    0.7500    0.0000 C   0  0  0  0  0  0  0  0  0  0  0  0
   -1.3000    0.7500    0.0000 C   0  0  0  0  0  0  0  0  0  0  0  0
    1.3000   -0.7500    0.0000 C   0  0  0  0  0  0  0  0  0  0  0  0
   -1.3000   -0.7500    0.0000 C   0  0  0  0  0  0  0  0  0  0  0  0
    0.0000    1.5000    0.0000 C   0  0  0  0  0  0  0  0  0  0  0  0
    0.0000    3.0000    0.0000 C   0  0  0  0  0  0  0  0  0  0  0  0
    1.2990    3.7500    0.0000 O   0  0  0  0  0  0  0  0  0  0  0  0
   -1.2990    3.7500    0.0000 O   0  0  0  0  0  0  0  0  0  0  0  0
    0.0000   -1.5000    0.0000 O   0  0  0  0  0  0  0  0  0  0  0  0
  4  2  2  0
  5  3  2  0
  6  2  1  0
  7  3  1  0
  8  4  1  0
  9  5  1  0
 10  6  2  0
 11  7  2  0
 12  8  2  0
 12 10  1  0
 13  9  2  0
 13 11  1  0
 14 10  1  0
 14 11  1  0
 15 14  1  0
 16 15  2  0
 17  1  1  0
 17 15  1  0
 18 12  1  0
 18 13  1  0
M  END
>  <NAME>  (4810) 
XANTHENE-9-CARBOXYLIC ACID METHYL ESTER

>  <SYNONYMS>  (4810) 


>  <SPECTRUM TYPE>  (4810) 
MS1

>  <INSTRUMENT TYPE>  (4810) 
EI-B

>  <INSTRUMENT>  (4810) 
JEOL JMS-01-SG

>  <ION MODE>  (4810) 
P

>  <INCHIKEY>  (4810) 
RFHABUQANXJNQS-UHFFFAOYSA-N

>  <FORMULA>  (4810) 
C15H12O3

>  <EXACT MASS>  (4810) 
240.07864424399997

>  <MW>  (4810) 
240

>  <ID>  (4810) 
JP002617

>  <CONTRIBUTOR>  (4810) 
University of Tokyo Team, {Faculty of Engineering, University of Tokyo

>  <COMMENT>  (4810) 
SMILES=COC(=O)C(c21)c(c3)c(ccc3)Oc(cccc2)1
InChI=InChI=1S/C15H12O3/c1-17-15(16)14-10-6-2-4-8-12(10)18-13-9-5-3-7-11(13)14/h2-9,14H,1H3
computed SMILES=O=C(OC)C1C=2C=CC=CC2OC=3C=CC=CC31
accession=JP002617
date=2016.01.19 (Created 2008.10.21, modified 2011.05.06)
author=KOGA M, UNIV. OF OCCUPATIONAL AND ENVIRONMENTAL HEALTH
license=CC BY-NC-SA
exact mass=240.07864
ionization energy=70 eV
ion type=[M]+*
computed spectral entropy=2.6436430071184063
computed normalized entropy=0.7377226275403386
SPLASH=splash10-00kb-4900000000-e7420c3935556dc0680d
submitter=submitter = University of Tokyo Team (Faculty of Engineering, University of Tokyo)
MoNA Rating=3.75

>  <NUM PEAKS>  (4810) 
36

>  <MASS SPECTRAL PEAKS>  (4810) 
50 10.2
51 2.4
53 4.1
61 0.34
62 6.3
63 17.7
64 14.3
65 0.24
67 2.6
69 6.5
70 12.1
75 0.75
76 4.3
84 20.1
85 2.9
87 0.38
88 3.8
89 6.3
92 11.6
93 0.29
98 4.1
105 2.4
113 6.5
114 0.72
119 3.1
129 3.8
138 2.4
139 7.08
140 16.5
167 4.8
168 98.7
169 1.45
195 8
196 99.99
197 27
198 2.6

>  <PREDICTED SPECTRUM>  (4810) 
39 36
44 5
50 37
51 123
52 43
53 43
55 29
63 101
64 33
65 13
74 70
75 98
76 120
77 130
78 17
80 0
83 4
101 5
126 140
127 216
149 3
150 106
151 143
152 333
153 167
166 27
178 38
179 77
180 475
181 999
182 370
208 40
209 110
240 213
241 70

$$$$

     RDKit          2D

 17 19  0  0  0  0  0  0  0  0999 V2000
   -1.2990    5.5900    0.0000 C   0  0  0  0  0  0  0  0  0  0  0  0
    3.2200   -1.2700    0.0000 C   0  0  0  0  0  0  0  0  0  0  0  0
   -3.2200   -1.2700    0.0000 C   0  0  0  0  0  0  0  0  0  0  0  0
    3.6900    0.1600    0.0000 C   0  0  0  0  0  0  0  0  0  0  0  0
   -3.6800    0.1600    0.0000 C   0  0  0  0  0  0  0  0  0  0  0  0
    1.7500   -1.5800    0.0000 C   0  0  0  0  0  0  0  0  0  0  0  0
   -1.7500   -1.5800    0.0000 C   0  0  0  0  0  0  0  0  0  0  0  0
    2.6800    1.2700    0.0000 C   0  0  0  0  0  0  0  0  0  0  0  0
   -2.6800    1.2700    0.0000 C   0  0  0  0  0  0  0  0  0  0  0  0
    0.7500   -0.4700    0.0000 C   0  0  0  0  0  0  0  0  0  0  0  0
   -0.7500   -0.4700    0.0000 C   0  0  0  0  0  0  0  0  0  0  0  0
    1.2100    0.9600    0.0000 C   0  0  0  0  0  0  0  0  0  0  0  0
   -1.2100    0.9600    0.0000 C   0  0  0  0  0  0  0  0  0  0  0  0
   -0.0000    1.8400    0.0000 C   0  0  0  0  0  0  0  0  0  0  0  0
    0.0000    3.3400    0.0000 C   0  0  0  0  0  0  0  0  0  0  0  0
    1.2990    4.0900    0.0000 O   0  0  0  0  0  0  0  0  0  0  0  0
   -1.2990    4.0900    0.0000 O   0  0  0  0  0  0  0  0  0  0  0  0
  4  2  2  0
  5  3  2  0
  6  2  1  0
  7  3  1  0
  8  4  1  0
  9  5  1  0
 10  6  2  0
 11  7  2  0
 11 10  1  0
 12  8  2  0
 12 10  1  0
 13  9  2  0
 13 11  1  0
 14 12  1  0
 14 13  1  0
 15 14  1  0
 16 15  2  0
 17  1  1  0
 17 15  1  0
M  END
>  <NAME>  (4811) 
9-FLUORENECARBOXYLIC ACID METHYL ESTER

>  <SYNONYMS>  (4811) 


>  <SPECTRUM TYPE>  (4811) 
MS1

>  <INSTRUMENT TYPE>  (4811) 
EI-B

>  <INSTRUMENT>  (4811) 
JEOL JMS-01-SG

>  <ION MODE>  (4811) 
P

>  <INCHIKEY>  (4811) 
LQSPZSGFDFRDBS-UHFFFAOYSA-N

>  <FORMULA>  (4811) 
C15H12O2

>  <EXACT MASS>  (4811) 
224.083729624

>  <MW>  (4811) 
224

>  <ID>  (4811) 
JP002616

>  <CONTRIBUTOR>  (4811) 
University of Tokyo Team, {Faculty of Engineering, University of Tokyo

>  <COMMENT>  (4811) 
SMILES=COC(=O)C(c21)c(c3)c(ccc3)c(cccc2)1
InChI=InChI=1S/C15H12O2/c1-17-15(16)14-12-8-4-2-6-10(12)11-7-3-5-9-13(11)14/h2-9,14H,1H3
computed SMILES=O=C(OC)C1C=2C=CC=CC2C=3C=CC=CC31
accession=JP002616
date=2016.01.19 (Created 2008.10.21, modified 2011.05.06)
author=KOGA M, UNIV. OF OCCUPATIONAL AND ENVIRONMENTAL HEALTH
license=CC BY-NC-SA
exact mass=224.08373
ionization energy=70 eV
ion type=[M]+*
computed spectral entropy=2.757850998334299
computed normalized entropy=0.7581541377267998
SPLASH=splash10-02t9-4900000000-ef3ee41bdb7ea9c736ed
submitter=submitter = University of Tokyo Team (Faculty of Engineering, University of Tokyo)
MoNA Rating=3.75

>  <NUM PEAKS>  (4811) 
38

>  <MASS SPECTRAL PEAKS>  (4811) 
50 7.2
51 6
61 2.2
62 0.6
63 15.2
64 4.1
67 3.6
70 1.74
75 4.9
76 2.4
79 2.4
81 0.49
82 27.4
83 28.8
85 2.2
86 0.41
87 6.9
88 2.2
89 8.5
92 0.44
98 2.4
105 4.1
110 2.2
111 0.22
113 4.7
115 11.3
128 3
137 0.38
138 2.2
139 20.2
140 2.2
162 0.55
163 39
164 33.7
165 99.99
166 3.68
167 34.9
168 4.7

>  <PREDICTED SPECTRUM>  (4811) 
15 43
26 21
27 31
28 56
29 59
31 27
38 3
39 114
40 12
41 67
42 86
43 21
44 93
45 78
50 50
51 106
55 26
57 34
59 178
62 26
63 129
64 7
65 19
69 102
73 33
74 89
75 76
76 109
77 17
81 34
82 178
83 190
85 35
86 47
87 84
88 79
89 111
96 13
97 29
98 27
99 78
100 65
105 2
107 26
111 71
112 0
113 111
115 69
121 12
122 23
125 42
126 132
127 42
137 105
138 13
139 62
149 30
150 8
151 98
152 91
161 3
162 121
163 356
164 434
165 999
166 521
167 50
177 48
178 13
179 168
191 156
192 292
193 276
224 707
225 197
226 57

$$$$

     RDKit          2D

  8  7  0  0  0  0  0  0  0  0999 V2000
    1.1209    2.2500    0.0000 C   0  0  0  0  0  0  0  0  0  0  0  0
   -4.0753    2.2500    0.0000 C   0  0  0  0  0  0  0  0  0  0  0  0
    0.9642    1.3614    0.0000 C   0  0  0  0  0  0  0  0  0  0  0  0
   -2.4414    1.1009    0.0000 O   0  0  0  0  0  0  0  0  0  0  0  0
   -0.1782    3.0000    0.0000 O   0  0  0  0  0  0  0  0  0  0  0  0
   -2.7762    3.0000    0.0000 O   0  0  0  0  0  0  0  0  0  0  0  0
   -0.5130    1.1009    0.0000 O   0  0  0  0  0  0  0  0  0  0  0  0
   -1.4772    2.2500    0.0000 P   0  0  0  0  0  0  0  0  0  0  0  0
  5  1  1  0
  6  2  1  0
  7  3  1  0
  8  4  2  0
  8  5  1  0
  8  6  1  0
  8  7  1  0
M  END
>  <NAME>  (4812) 
PHOSPHORIC ACID TRIMETHYL ESTER

>  <SYNONYMS>  (4812) 


>  <SPECTRUM TYPE>  (4812) 
MS1

>  <INSTRUMENT TYPE>  (4812) 
EI-B

>  <INSTRUMENT>  (4812) 
JEOL JMS-01-SG

>  <ION MODE>  (4812) 
P

>  <INCHIKEY>  (4812) 
WVLBCYQITXONBZ-UHFFFAOYSA-N

>  <FORMULA>  (4812) 
C3H9O4P

>  <EXACT MASS>  (4812) 
140.023845398

>  <MW>  (4812) 
140

>  <ID>  (4812) 
JP002615

>  <CONTRIBUTOR>  (4812) 
University of Tokyo Team, {Faculty of Engineering, University of Tokyo

>  <COMMENT>  (4812) 
SMILES=COP(=O)(OC)OC
InChI=InChI=1S/C3H9O4P/c1-5-8(4,6-2)7-3/h1-3H3
computed SMILES=O=P(OC)(OC)OC
accession=JP002615
date=2016.01.19 (Created 2008.10.21, modified 2011.05.06)
author=KOGA M, UNIV. OF OCCUPATIONAL AND ENVIRONMENTAL HEALTH
license=CC BY-NC-SA
exact mass=140.02385
ionization energy=70 eV
ion type=[M]+*
computed spectral entropy=1.6470914869675395
computed normalized entropy=0.6082204407795516
SPLASH=splash10-03di-5900000000-78a40709f0f96c60a9ef
submitter=submitter = University of Tokyo Team (Faculty of Engineering, University of Tokyo)
MoNA Rating=3.75

>  <NUM PEAKS>  (4812) 
15

>  <MASS SPECTRAL PEAKS>  (4812) 
45 1.4
47 7.9
48 1
55 0.18
59 1.4
65 3.9
79 33.6
80 3.33
87 1.8
93 2.8
95 19.9
109 2.93
110 99.99
111 2.5
140 10.5

>  <PREDICTED SPECTRUM>  (4812) 
14 16
15 150
27 47
28 117
29 134
30 87
31 161
33 7
39 18
44 21
45 208
46 57
47 265
49 3
52 89
53 62
62 26
63 101
64 29
65 47
67 100
68 9
79 392
80 243
90 81
93 168
94 84
95 491
96 316
97 1
107 48
108 258
109 981
110 419
121 68
122 79
123 382
124 175
125 40
127 999
128 153
139 380
140 511
141 202
142 58

$$$$

     RDKit          2D

  7  8  0  0  0  0  0  0  0  0999 V2000
    1.2300   -0.7500    0.0000 C   0  0  0  0  0  0  0  0  0  0  0  0
    1.2300    0.7500    0.0000 C   0  0  0  0  0  0  0  0  0  0  0  0
   -1.3600   -0.7500    0.0000 C   0  0  0  0  0  0  0  0  0  0  0  0
   -1.3600    0.7500    0.0000 C   0  0  0  0  0  0  0  0  0  0  0  0
    0.3900   -0.0000    0.0000 C   0  0  0  0  0  0  0  0  0  0  0  0
   -0.0700   -1.5000    0.0000 C   0  0  0  0  0  0  0  0  0  0  0  0
   -0.0700    1.5000    0.0000 C   0  0  0  0  0  0  0  0  0  0  0  0
  2  1  1  0
  4  3  1  0
  6  1  1  0
  6  3  1  0
  6  5  1  0
  7  2  1  0
  7  4  1  0
  7  5  1  0
M  END
>  <NAME>  (4813) 
NORBORNANE

>  <SYNONYMS>  (4813) 
BICYCLO(2.2.1)HEPTANE

>  <SPECTRUM TYPE>  (4813) 
MS1

>  <INSTRUMENT TYPE>  (4813) 
EI-B

>  <INSTRUMENT>  (4813) 
HITACHI RMU-6M

>  <ION MODE>  (4813) 
P

>  <INCHIKEY>  (4813) 
UMRZSTCPUPJPOJ-UHFFFAOYSA-N

>  <FORMULA>  (4813) 
C7H12

>  <EXACT MASS>  (4813) 
96.093900384

>  <MW>  (4813) 
96

>  <ID>  (4813) 
JP002604

>  <CONTRIBUTOR>  (4813) 
University of Tokyo Team, {Faculty of Engineering, University of Tokyo

>  <COMMENT>  (4813) 
SMILES=C(C1)C(C2)CC1C2
InChI=InChI=1S/C7H12/c1-2-7-4-3-6(1)5-7/h6-7H,1-5H2
computed SMILES=C1CC2CCC1C2
accession=JP002604
date=2016.01.19 (Created 2008.10.21, modified 2011.05.06)
author=YAMAMOTO M, DEP. CHEMISTRY, FAC. SCIENCE, NARA WOMEN'S UNIV.
license=CC BY-NC-SA
exact mass=96.0939
ionization energy=70 eV
ion type=[M]+*
computed spectral entropy=2.9050462319639405
computed normalized entropy=0.798619222859165
SPLASH=splash10-0159-9000000000-e56983907183db17daf9
submitter=submitter = University of Tokyo Team (Faculty of Engineering, University of Tokyo)
MoNA Rating=3.75

>  <NUM PEAKS>  (4813) 
38

>  <MASS SPECTRAL PEAKS>  (4813) 
15 5.82
26 2.72
27 19.94
28 4.05
29 12.8
30 1.94
31 26.07
32 12.02
38 2.87
39 31.81
40 7.14
41 24.44
42 4.03
43 1.94
45 6.44
46 2.79
50 2.17
51 3.88
52 2.09
53 14.74
54 47.71
55 29.17
56 1.94
63 1.55
65 4.65
66 13.19
67 99.99
68 79.37
69 4.65
77 3.18
79 3.88
80 1.32
81 72.09
82 5.28
91 1.55
95 5.28
96 33.44
97 3.1

>  <PREDICTED SPECTRUM>  (4813) 
14 8
15 37
25 18
26 159
27 362
28 278
29 255
31 28
32 0
33 10
35 1
36 37
37 104
38 173
39 544
40 341
41 650
42 327
43 58
44 52
47 26
49 49
50 177
51 265
52 244
53 502
54 551
55 395
56 120
57 70
59 19
62 46
63 144
64 7
65 254
66 379
67 961
68 999
69 401
70 74
77 257
78 172
79 275
81 847
82 258
93 15
94 9
95 215
96 844
97 281
98 33

$$$$

     RDKit          2D

  8  9  0  0  0  0  0  0  0  0999 V2000
    1.2300   -0.7500    0.0000 C   0  0  0  0  0  0  0  0  0  0  0  0
    1.2300    0.7500    0.0000 C   0  0  0  0  0  0  0  0  0  0  0  0
    0.3900   -0.0000    0.0000 C   0  0  0  0  0  0  0  0  0  0  0  0
   -1.3600   -0.7500    0.0000 C   0  0  0  0  0  0  0  0  0  0  0  0
   -0.0700   -1.5000    0.0000 C   0  0  0  0  0  0  0  0  0  0  0  0
   -0.0700    1.5000    0.0000 C   0  0  0  0  0  0  0  0  0  0  0  0
   -1.3600    0.7500    0.0000 C   0  0  0  0  0  0  0  0  0  0  0  0
   -2.6602    1.4980    0.0000 O   0  0  0  0  0  0  0  0  0  0  0  0
  2  1  1  0
  5  1  1  0
  5  3  1  0
  5  4  1  0
  6  2  1  0
  6  3  1  0
  7  4  1  0
  7  6  1  0
  8  7  1  0
M  END
>  <NAME>  (4814) 
NORBORNEOL

>  <SYNONYMS>  (4814) 
ENDO-BICYCLO(2.2.1)HEPTAN-2-OL

>  <SPECTRUM TYPE>  (4814) 
MS1

>  <INSTRUMENT TYPE>  (4814) 
EI-B

>  <INSTRUMENT>  (4814) 
HITACHI RMU-6M

>  <ION MODE>  (4814) 
P

>  <INCHIKEY>  (4814) 
ZQTYQMYDIHMKQB-UHFFFAOYSA-N

>  <FORMULA>  (4814) 
C7H12O

>  <EXACT MASS>  (4814) 
112.088815004

>  <MW>  (4814) 
112

>  <ID>  (4814) 
JP002601

>  <CONTRIBUTOR>  (4814) 
University of Tokyo Team, {Faculty of Engineering, University of Tokyo

>  <COMMENT>  (4814) 
SMILES=OC(C1)C(C2)CC(C2)1
InChI=InChI=1S/C7H12O/c8-7-4-5-1-2-6(7)3-5/h5-8H,1-4H2
computed SMILES=OC1CC2CCC1C2
accession=JP002601
date=2016.01.19 (Created 2008.10.21, modified 2011.05.06)
author=YAMAMOTO M, DEP. CHEMISTRY, FAC. SCIENCE, NARA WOMEN'S UNIV.
license=CC BY-NC-SA
exact mass=112.08882
ionization energy=70 eV
ion type=[M]+*
computed spectral entropy=3.1678595590196705
computed normalized entropy=0.8274108831202189
SPLASH=splash10-016u-9000000000-2dd03bd9111cb7344cec
submitter=submitter = University of Tokyo Team (Faculty of Engineering, University of Tokyo)
MoNA Rating=3.75

>  <NUM PEAKS>  (4814) 
46

>  <MASS SPECTRAL PEAKS>  (4814) 
15 3.17
26 2.09
27 25.25
28 4.4
29 13.65
31 6.73
38 2.64
39 31.48
40 8.22
41 37.57
42 7.57
43 8.5
44 5.96
45 6.53
50 2.4
51 4.61
52 2.11
53 16.02
54 6.25
55 17.87
56 9.18
57 20.61
58 4.2
63 1.37
65 5.31
66 60.46
67 66.54
68 60.3
69 5.96
70 12.49
71 5.65
77 6.63
78 2.04
79 69.43
80 5.91
81 12.25
82 1.68
83 12.9
84 4.8
91 2.52
93 5.43
94 99.99
95 8.53
97 5.09
111 1.2
112 3.84

>  <PREDICTED SPECTRUM>  (4814) 
14 4
15 68
16 2
17 3
18 3
25 22
26 184
27 583
28 266
29 370
30 12
31 243
35 9
36 21
37 88
38 208
39 782
40 363
41 843
42 332
43 462
44 286
45 242
46 23
47 60
49 48
50 204
51 359
52 310
53 540
54 530
55 485
56 218
57 449
58 214
59 31
60 65
61 63
62 92
63 180
64 41
65 412
66 804
67 716
68 917
69 324
70 473
71 214
75 38
77 465
78 387
79 999
80 200
81 453
82 164
83 325
84 206
85 39
91 150
92 88
93 182
94 873
95 270
96 85
97 154
98 20
111 13
112 198
113 19

$$$$

     RDKit          2D

  8  9  0  0  0  0  0  0  0  0999 V2000
    1.2300   -0.7500    0.0000 C   0  0  0  0  0  0  0  0  0  0  0  0
    1.2300    0.7500    0.0000 C   0  0  0  0  0  0  0  0  0  0  0  0
    0.3900   -0.0000    0.0000 C   0  0  0  0  0  0  0  0  0  0  0  0
   -1.3600   -0.7500    0.0000 C   0  0  0  0  0  0  0  0  0  0  0  0
   -0.0700   -1.5000    0.0000 C   0  0  0  0  0  0  0  0  0  0  0  0
   -0.0700    1.5000    0.0000 C   0  0  0  0  0  0  0  0  0  0  0  0
   -1.3600    0.7500    0.0000 C   0  0  0  0  0  0  0  0  0  0  0  0
   -2.6602    1.4980    0.0000 O   0  0  0  0  0  0  0  0  0  0  0  0
  2  1  1  0
  5  1  1  0
  5  3  1  0
  5  4  1  0
  6  2  1  0
  6  3  1  0
  7  4  1  0
  7  6  1  0
  8  7  2  0
M  END
>  <NAME>  (4815) 
NORCAMPHOR

>  <SYNONYMS>  (4815) 
BICYCLO(2.2.1)HEPTAN-2-ONE

>  <SPECTRUM TYPE>  (4815) 
MS1

>  <INSTRUMENT TYPE>  (4815) 
EI-B

>  <INSTRUMENT>  (4815) 
HITACHI RMU-6M

>  <ION MODE>  (4815) 
P

>  <INCHIKEY>  (4815) 
KPMKEVXVVHNIEY-UHFFFAOYSA-N

>  <FORMULA>  (4815) 
C7H10O

>  <EXACT MASS>  (4815) 
110.07316494

>  <MW>  (4815) 
110

>  <ID>  (4815) 
JP002599

>  <CONTRIBUTOR>  (4815) 
University of Tokyo Team, {Faculty of Engineering, University of Tokyo

>  <COMMENT>  (4815) 
SMILES=O=C(C1)C(C2)CC(C2)1
InChI=InChI=1S/C7H10O/c8-7-4-5-1-2-6(7)3-5/h5-6H,1-4H2
computed SMILES=O=C1CC2CCC1C2
accession=JP002599
date=2016.01.19 (Created 2008.10.21, modified 2011.05.06)
author=YAMAMOTO M, DEP. CHEMISTRY, FAC. SCIENCE, NARA WOMEN'S UNIV.
license=CC BY-NC-SA
exact mass=110.07316
ionization energy=70 eV
ion type=[M]+*
computed spectral entropy=2.7742263212611333
computed normalized entropy=0.7626558380873669
SPLASH=splash10-014i-9000000000-e9230a8bea9a1a8d723c
submitter=submitter = University of Tokyo Team (Faculty of Engineering, University of Tokyo)
MoNA Rating=3.75

>  <NUM PEAKS>  (4815) 
38

>  <MASS SPECTRAL PEAKS>  (4815) 
15 1.95
26 3.55
27 21.57
28 4.38
29 3.17
37 1.27
38 3.51
39 34.09
40 8.38
41 42.81
42 4.14
43 3.02
50 3.41
51 4.53
52 2.92
53 11.98
54 37.5
55 6.91
56 1.7
63 1.36
65 3.9
66 99.99
67 93.75
68 21.18
69 2.19
77 2.09
79 5.55
80 1.61
81 15.1
82 5.21
84 1.17
91 1.31
92 4.24
93 1.27
95 5.36
109 4.87
110 41.41
111 3.6

>  <PREDICTED SPECTRUM>  (4815) 
25 18
26 144
27 425
28 208
29 236
31 6
37 47
38 141
39 541
40 289
41 587
42 241
43 233
44 33
45 12
49 6
50 149
51 212
52 211
53 519
54 631
55 440
56 134
57 38
61 5
62 40
63 82
65 209
66 533
67 999
68 562
69 225
70 112
71 98
77 221
78 88
79 266
80 153
81 817
82 352
83 92
91 99
92 155
93 16
95 233
96 25
109 133
110 755
111 215
112 28

$$$$

     RDKit          2D

  7  8  0  0  0  0  0  0  0  0999 V2000
    1.2300   -0.7500    0.0000 C   0  0  0  0  0  0  0  0  0  0  0  0
    1.2300    0.7500    0.0000 C   0  0  0  0  0  0  0  0  0  0  0  0
   -1.3600   -0.7500    0.0000 C   0  0  0  0  0  0  0  0  0  0  0  0
   -1.3600    0.7500    0.0000 C   0  0  0  0  0  0  0  0  0  0  0  0
    0.3900   -0.0000    0.0000 C   0  0  0  0  0  0  0  0  0  0  0  0
   -0.0700   -1.5000    0.0000 C   0  0  0  0  0  0  0  0  0  0  0  0
   -0.0700    1.5000    0.0000 C   0  0  0  0  0  0  0  0  0  0  0  0
  2  1  2  0
  4  3  1  0
  6  1  1  0
  6  3  1  0
  6  5  1  0
  7  2  1  0
  7  4  1  0
  7  5  1  0
M  END
>  <NAME>  (4816) 
NORBORNYLENE

>  <SYNONYMS>  (4816) 
BICYCLO(2.2.1)HEPT-2-ENE

>  <SPECTRUM TYPE>  (4816) 
MS1

>  <INSTRUMENT TYPE>  (4816) 
EI-B

>  <INSTRUMENT>  (4816) 
HITACHI RMU-6M

>  <ION MODE>  (4816) 
P

>  <INCHIKEY>  (4816) 
JFNLZVQOOSMTJK-UHFFFAOYSA-N

>  <FORMULA>  (4816) 
C7H10

>  <EXACT MASS>  (4816) 
94.07825032

>  <MW>  (4816) 
94

>  <ID>  (4816) 
JP002598

>  <CONTRIBUTOR>  (4816) 
University of Tokyo Team, {Faculty of Engineering, University of Tokyo

>  <COMMENT>  (4816) 
SMILES=C(C1)C(C=2)CC1C2
InChI=InChI=1S/C7H10/c1-2-7-4-3-6(1)5-7/h1-2,6-7H,3-5H2
computed SMILES=C1=CC2CCC1C2
accession=JP002598
date=2016.01.19 (Created 2008.10.21, modified 2011.05.06)
author=YAMAMOTO M, DEP. CHEMISTRY, FAC. SCIENCE, NARA WOMEN'S UNIV.
license=CC BY-NC-SA
exact mass=94.07825
ionization energy=70 eV
ion type=[M]+*
computed spectral entropy=2.1693121726689664
computed normalized entropy=0.6825913872048737
SPLASH=splash10-014i-9000000000-2eaab03328d3587960e6
submitter=submitter = University of Tokyo Team (Faculty of Engineering, University of Tokyo)
MoNA Rating=3.75

>  <NUM PEAKS>  (4816) 
24

>  <MASS SPECTRAL PEAKS>  (4816) 
26 1.31
27 6.81
37 1.05
38 2.41
39 14.98
40 5.92
41 4.35
50 2.1
51 3.98
52 1.89
53 3.3
62 1.15
63 2.2
65 6.71
66 99.99
67 7.23
77 7.6
78 1.83
79 12.16
80 1.05
91 3.98
93 2.1
94 15.35
95 1.47

>  <PREDICTED SPECTRUM>  (4816) 
26 44
27 127
28 17
38 38
39 279
40 64
41 244
50 88
51 211
52 230
53 280
54 126
63 54
65 163
66 323
67 165
77 376
78 5
79 999
80 785
91 75
92 221
93 48
94 289
95 25

$$$$

     RDKit          2D

 12 13  0  0  0  0  0  0  0  0999 V2000
    1.2027   -2.3196    0.0000 C   0  0  0  0  0  0  0  0  0  0  0  0
    2.1672   -0.6497    0.0000 C   0  0  0  0  0  0  0  0  0  0  0  0
   -0.6100    2.8400    0.0000 C   0  0  0  0  0  0  0  0  0  0  0  0
   -1.9100   -0.9100    0.0000 C   0  0  0  0  0  0  0  0  0  0  0  0
   -1.9100    0.5900    0.0000 C   0  0  0  0  0  0  0  0  0  0  0  0
   -1.3600   -0.1500    0.0000 C   0  0  0  0  0  0  0  0  0  0  0  0
   -0.6100   -1.6600    0.0000 C   0  0  0  0  0  0  0  0  0  0  0  0
    0.6900    0.5900    0.0000 C   0  0  0  0  0  0  0  0  0  0  0  0
    0.6900   -0.9100    0.0000 C   0  0  0  0  0  0  0  0  0  0  0  0
   -0.6100    1.3400    0.0000 C   0  0  0  0  0  0  0  0  0  0  0  0
    1.9889    1.3402    0.0000 O   0  0  0  0  0  0  0  0  0  0  0  0
    1.9887    2.8402    0.0000 H   0  0  0  0  0  0  0  0  0  0  0  0
 11 12  1  0
  5  4  1  0
  7  4  1  0
  7  6  1  0
  9  1  1  0
  9  2  1  0
  9  7  1  0
  9  8  1  0
 10  3  1  0
 10  5  1  0
 10  6  1  0
 10  8  1  0
 11  8  1  0
M  ISO  1  12   2
M  END
>  <NAME>  (4817) 
FENCHYL ALCOHOL (OD)

>  <SYNONYMS>  (4817) 
1,3,3-TRIMETHYLBICYCLO(2.2.1)HEPTAN-2-(2H)OL

>  <SPECTRUM TYPE>  (4817) 
MS1

>  <INSTRUMENT TYPE>  (4817) 
EI-B

>  <INSTRUMENT>  (4817) 
HITACHI RMU-6M

>  <ION MODE>  (4817) 
P

>  <INCHIKEY>  (4817) 
IAIHUHQCLTYTSF-WORMITQPSA-N

>  <FORMULA>  (4817) 
C10H18O

>  <EXACT MASS>  (4817) 
155.142041942

>  <MW>  (4817) 
155

>  <ID>  (4817) 
JP002595

>  <CONTRIBUTOR>  (4817) 
University of Tokyo Team, {Faculty of Engineering, University of Tokyo

>  <COMMENT>  (4817) 
SMILES=[2H]OC(C(C)(C)1)C(C)(C2)CC(C2)1
InChI=InChI=1S/C10H18O/c1-9(2)7-4-5-10(3,6-7)8(9)11/h7-8,11H,4-6H2,1-3H3/i11D
computed SMILES=[H]OC1C(C)(C)C2CCC1(C)C2
accession=JP002595
date=2016.01.19 (Created 2008.10.21, modified 2011.05.06)
author=YAMAMOTO M, DEP. CHEMISTRY, FAC. SCIENCE, NARA WOMEN'S UNIV.
license=CC BY-NC-SA
exact mass=154.13577
ionization energy=70 eV
ion type=[M]+*
computed spectral entropy=3.5315508585383393
computed normalized entropy=0.8369580304844935
SPLASH=splash10-001i-9100000000-2391ca66f3cd432bb0a2
submitter=submitter = University of Tokyo Team (Faculty of Engineering, University of Tokyo)
MoNA Rating=3.75

>  <NUM PEAKS>  (4817) 
68

>  <MASS SPECTRAL PEAKS>  (4817) 
27 10.38
28 3.89
29 7.88
30 3.25
31 1.22
39 12.03
40 3.99
41 27.58
42 8.3
43 25.5
44 7.24
45 1.54
46 2.72
51 2.13
52 1.6
53 7.77
54 3.67
55 14.05
56 7.45
57 3.09
58 9.69
59 2.29
65 2.29
66 1.97
67 15.12
68 4.53
69 21.99
70 4.79
71 2.45
72 25.55
73 20.66
74 2.66
77 3.3
78 2.13
79 6.02
80 74.38
81 99.99
82 21.61
83 11.55
84 15.49
85 7.35
86 3.78
91 2.18
92 2.08
93 5.38
94 11.39
95 5.64
96 4.53
97 3.41
98 3.25
99 2.61
100 1.6
106 1.01
107 9.37
108 3.35
109 2.4
110 1.86
111 1.92
112 12.72
113 1.54
121 1.01
122 10.54
123 6.12
124 1.01
125 2.13
137 4.26
140 3.73
155 4.42

>  <PREDICTED SPECTRUM>  (4817) 
26 36
27 260
28 131
29 296
30 21
31 36
37 6
38 58
39 326
40 153
41 657
42 146
43 351
44 69
45 50
50 107
51 180
52 89
53 307
54 157
55 505
56 217
57 376
58 193
59 25
62 13
63 83
64 9
65 159
66 158
67 644
68 231
69 612
70 230
71 270
72 151
73 93
77 259
78 117
79 326
80 344
81 999
82 584
83 349
84 128
85 71
86 36
91 148
92 177
93 500
94 90
95 312
96 283
97 34
98 99
99 151
100 70
107 159
108 96
109 69
111 60
112 142
121 312
123 367
126 17
136 140
140 124
155 102
156 19

$$$$

     RDKit          2D

 11 12  0  0  0  0  0  0  0  0999 V2000
    1.2027   -2.3196    0.0000 C   0  0  0  0  0  0  0  0  0  0  0  0
    2.1672   -0.6497    0.0000 C   0  0  0  0  0  0  0  0  0  0  0  0
   -0.6100    2.8400    0.0000 C   0  0  0  0  0  0  0  0  0  0  0  0
   -1.9100   -0.9100    0.0000 C   0  0  0  0  0  0  0  0  0  0  0  0
   -1.9100    0.5900    0.0000 C   0  0  0  0  0  0  0  0  0  0  0  0
   -1.3600   -0.1500    0.0000 C   0  0  0  0  0  0  0  0  0  0  0  0
   -0.6100   -1.6600    0.0000 C   0  0  0  0  0  0  0  0  0  0  0  0
    0.6900    0.5900    0.0000 C   0  0  0  0  0  0  0  0  0  0  0  0
    0.6900   -0.9100    0.0000 C   0  0  0  0  0  0  0  0  0  0  0  0
   -0.6100    1.3400    0.0000 C   0  0  0  0  0  0  0  0  0  0  0  0
    1.9889    1.3402    0.0000 O   0  0  0  0  0  0  0  0  0  0  0  0
  5  4  1  0
  7  4  1  0
  7  6  1  0
  9  1  1  0
  9  2  1  0
  9  7  1  0
  9  8  1  0
 10  3  1  0
 10  5  1  0
 10  6  1  0
 10  8  1  0
 11  8  1  0
M  END
>  <NAME>  (4818) 
FENCHYL ALCOHOL

>  <SYNONYMS>  (4818) 
1,3,3-TRIMETHYLBICYCLO(2.2.1)HEPTAN-2-OL

>  <SPECTRUM TYPE>  (4818) 
MS1

>  <INSTRUMENT TYPE>  (4818) 
EI-B

>  <INSTRUMENT>  (4818) 
HITACHI RMU-6M

>  <ION MODE>  (4818) 
P

>  <INCHIKEY>  (4818) 
IAIHUHQCLTYTSF-UHFFFAOYSA-N

>  <FORMULA>  (4818) 
C10H18O

>  <EXACT MASS>  (4818) 
154.135765196

>  <MW>  (4818) 
154

>  <ID>  (4818) 
JP002594

>  <CONTRIBUTOR>  (4818) 
University of Tokyo Team, {Faculty of Engineering, University of Tokyo

>  <COMMENT>  (4818) 
SMILES=OC(C(C)(C)1)C(C)(C2)CC(C2)1
InChI=InChI=1S/C10H18O/c1-9(2)7-4-5-10(3,6-7)8(9)11/h7-8,11H,4-6H2,1-3H3
computed SMILES=OC1C(C)(C)C2CCC1(C)C2
accession=JP002594
date=2016.01.19 (Created 2008.10.21, modified 2011.05.06)
author=YAMAMOTO M, DEP. CHEMISTRY, FAC. SCIENCE, NARA WOMEN'S UNIV.
license=CC BY-NC-SA
exact mass=154.13577
ionization energy=70 eV
ion type=[M]+*
computed spectral entropy=3.3967014421514907
computed normalized entropy=0.8296081071173986
SPLASH=splash10-001i-9000000000-03610ff0a989a69cf478
submitter=submitter = University of Tokyo Team (Faculty of Engineering, University of Tokyo)
MoNA Rating=3.75

>  <NUM PEAKS>  (4818) 
60

>  <MASS SPECTRAL PEAKS>  (4818) 
27 13.31
28 9.28
29 9.42
31 2.33
39 14.28
40 2.87
41 33.07
42 2.87
43 26.71
44 1.55
45 3.16
51 2.38
52 1.6
53 8.94
54 2.57
55 16.03
56 4.37
57 10.44
58 1.02
59 1.75
65 2.96
66 1.55
67 17.14
68 3.4
69 23.26
70 3.64
71 23.8
72 23.89
73 3.35
77 4.47
78 1.12
79 7.38
80 72.81
81 99.99
82 20.15
83 12.29
84 15.44
85 4.13
86 1.26
91 3.21
92 3.45
93 13.16
94 2.57
95 5.58
96 4.37
97 4.32
98 4.18
99 1.94
105 1.36
107 10.34
108 1.85
109 2.19
110 1.85
111 14.33
112 1.46
123 5.34
125 2.57
136 3.84
139 3.89
154 4.32

>  <PREDICTED SPECTRUM>  (4818) 
26 45
27 349
28 136
29 353
30 14
31 159
37 6
38 79
39 459
40 204
41 955
42 266
43 764
44 281
45 214
46 13
50 145
51 246
52 153
53 452
54 256
55 695
56 312
57 501
58 190
59 239
60 29
62 84
63 160
64 96
65 288
66 218
67 749
68 450
69 867
70 434
71 727
72 384
73 247
74 123
75 14
76 27
77 413
78 207
79 493
80 382
81 999
82 607
83 484
84 361
85 400
86 182
87 2
88 27
91 452
92 298
93 833
94 428
95 757
96 557
97 375
98 389
99 213
100 75
103 18
105 266
106 96
107 564
108 511
109 712
110 363
111 411
112 210
113 60
120 11
121 805
122 404
123 399
124 53
125 197
126 75
135 39
136 672
137 286
138 110
139 421
140 129
141 37
152 92
154 364
155 156

$$$$

     RDKit          2D

 12 13  0  0  0  0  0  0  0  0999 V2000
   -2.8369   -0.4880    0.0000 C   0  0  0  0  0  0  0  0  0  0  0  0
   -1.8759   -2.1585    0.0000 C   0  0  0  0  0  0  0  0  0  0  0  0
   -0.0725    3.0000    0.0000 C   0  0  0  0  0  0  0  0  0  0  0  0
    1.2300   -0.7500    0.0000 C   0  0  0  0  0  0  0  0  0  0  0  0
    1.2300    0.7500    0.0000 C   0  0  0  0  0  0  0  0  0  0  0  0
    0.3900   -0.0000    0.0000 C   0  0  0  0  0  0  0  0  0  0  0  0
   -1.3600    0.7500    0.0000 C   0  0  0  0  0  0  0  0  0  0  0  0
   -1.8759    2.1585    0.0000 H   0  0  0  0  0  0  0  0  0  0  0  0
   -2.8369    0.4880    0.0000 H   0  0  0  0  0  0  0  0  0  0  0  0
   -0.0700   -1.5000    0.0000 C   0  0  0  0  0  0  0  0  0  0  0  0
   -1.3600   -0.7500    0.0000 C   0  0  0  0  0  0  0  0  0  0  0  0
   -0.0700    1.5000    0.0000 C   0  0  0  0  0  0  0  0  0  0  0  0
  7  8  1  0
  7  9  1  0
  5  4  1  0
 10  4  1  0
 10  6  1  0
 11  1  1  0
 11  2  1  0
 11  7  1  0
 11 10  1  0
 12  3  1  0
 12  5  1  0
 12  6  1  0
 12  7  1  0
M  ISO  2   8   2   9   2
M  END
>  <NAME>  (4819) 
FENCHANE (2,2-D2)

>  <SYNONYMS>  (4819) 
1,3,3-TRIMETHYLBICYCLO(2.2.1)(2,2-2H2)HEPTANE

>  <SPECTRUM TYPE>  (4819) 
MS1

>  <INSTRUMENT TYPE>  (4819) 
EI-B

>  <INSTRUMENT>  (4819) 
HITACHI M-80

>  <ION MODE>  (4819) 
P

>  <INCHIKEY>  (4819) 
HINAOCRDJFBYGD-RJSZUWSASA-N

>  <FORMULA>  (4819) 
C10H18

>  <EXACT MASS>  (4819) 
140.153404068

>  <MW>  (4819) 
140

>  <ID>  (4819) 
JP002593

>  <CONTRIBUTOR>  (4819) 
University of Tokyo Team, {Faculty of Engineering, University of Tokyo

>  <COMMENT>  (4819) 
SMILES=CC(C)(C21)C([2H])([2H])C(C)(CC2)C1
InChI=InChI=1S/C10H18/c1-9(2)7-10(3)5-4-8(9)6-10/h8H,4-7H2,1-3H3/i7D2
computed SMILES=[H]C1([H])C(C)(C)C2CCC1(C)C2
accession=JP002593
date=2016.01.19 (Created 2008.10.21, modified 2011.05.06)
author=YAMAMOTO M, DEP. CHEMISTRY, FAC. SCIENCE, NARA WOMEN'S UNIV.
license=CC BY-NC-SA
exact mass=138.14085
ionization energy=70 eV
ion type=[M]+*
computed spectral entropy=3.532488900486753
computed normalized entropy=0.8627727458701193
SPLASH=splash10-0002-9100000000-17a28c0b9d4d2255a3b4
submitter=submitter = University of Tokyo Team (Faculty of Engineering, University of Tokyo)
MoNA Rating=3.75

>  <NUM PEAKS>  (4819) 
60

>  <MASS SPECTRAL PEAKS>  (4819) 
15 1.75
27 13.11
28 8.75
29 8.59
30 6.62
31 1.87
39 17.43
40 10.76
41 31.58
42 20.88
43 10.04
44 4.03
51 3.17
52 3.55
53 9.48
54 9.49
55 22.9
56 22.53
57 19.66
58 1.94
63 1.15
65 2.78
66 3.78
67 18.85
68 27.56
69 29.96
70 16.92
71 10.58
72 1.21
77 5.92
78 7.21
79 8.76
80 11.3
81 14.84
82 65.37
83 38.46
84 10.69
85 10.53
86 2.41
91 3.05
92 4.72
93 8.06
95 32.69
96 77.78
97 99.99
98 14.85
99 7.55
107 1.65
108 1.79
109 4.36
110 46.78
111 7.38
112 1.56
124 1.96
125 17.54
126 1.9
138 1.05
139 2.6
140 16.3
141 1.97

>  <PREDICTED SPECTRUM>  (4819) 
15 7
16 3
26 69
27 367
28 194
29 410
30 161
31 22
32 38
37 23
38 74
39 516
40 221
41 999
42 317
43 571
44 137
45 36
50 107
51 221
52 178
53 438
54 260
55 903
56 430
57 559
58 422
59 148
62 21
63 121
64 38
65 249
66 132
67 620
68 334
69 862
70 307
71 161
72 114
77 293
78 122
79 388
80 266
81 665
82 690
83 717
84 333
85 234
86 22
91 189
92 102
93 151
94 94
95 344
96 418
97 451
98 217
99 55
107 417
108 296
109 437
110 77
111 175
112 67
122 200
123 143
124 7
125 351
126 113
139 66
140 299
141 102

$$$$

     RDKit          2D

 10 11  0  0  0  0  0  0  0  0999 V2000
   -2.8369   -0.4880    0.0000 C   0  0  0  0  0  0  0  0  0  0  0  0
   -1.8759   -2.1585    0.0000 C   0  0  0  0  0  0  0  0  0  0  0  0
   -0.0725    3.0000    0.0000 C   0  0  0  0  0  0  0  0  0  0  0  0
    1.2300   -0.7500    0.0000 C   0  0  0  0  0  0  0  0  0  0  0  0
    1.2300    0.7500    0.0000 C   0  0  0  0  0  0  0  0  0  0  0  0
    0.3900   -0.0000    0.0000 C   0  0  0  0  0  0  0  0  0  0  0  0
   -1.3600    0.7500    0.0000 C   0  0  0  0  0  0  0  0  0  0  0  0
   -0.0700   -1.5000    0.0000 C   0  0  0  0  0  0  0  0  0  0  0  0
   -1.3600   -0.7500    0.0000 C   0  0  0  0  0  0  0  0  0  0  0  0
   -0.0700    1.5000    0.0000 C   0  0  0  0  0  0  0  0  0  0  0  0
  5  4  1  0
  8  4  1  0
  8  6  1  0
  9  1  1  0
  9  2  1  0
  9  7  1  0
  9  8  1  0
 10  3  1  0
 10  5  1  0
 10  6  1  0
 10  7  1  0
M  END
>  <NAME>  (4820) 
FENCHANE

>  <SYNONYMS>  (4820) 
1,3,3-TRIMETHYLBICYCLO(2.2.1)HEPTANE

>  <SPECTRUM TYPE>  (4820) 
MS1

>  <INSTRUMENT TYPE>  (4820) 
EI-B

>  <INSTRUMENT>  (4820) 
HITACHI M-80

>  <ION MODE>  (4820) 
P

>  <INCHIKEY>  (4820) 
HINAOCRDJFBYGD-UHFFFAOYSA-N

>  <FORMULA>  (4820) 
C10H18

>  <EXACT MASS>  (4820) 
138.140850576

>  <MW>  (4820) 
138

>  <ID>  (4820) 
JP002592

>  <CONTRIBUTOR>  (4820) 
University of Tokyo Team, {Faculty of Engineering, University of Tokyo

>  <COMMENT>  (4820) 
SMILES=CC(C)(C1)C(C2)CC(C)(C2)1
InChI=InChI=1S/C10H18/c1-9(2)7-10(3)5-4-8(9)6-10/h8H,4-7H2,1-3H3
computed SMILES=CC1(C)CC2(C)CCC1C2
accession=JP002592
date=2016.01.19 (Created 2008.10.21, modified 2011.05.06)
author=YAMAMOTO M, DEP. CHEMISTRY, FAC. SCIENCE, NARA WOMEN'S UNIV.
license=CC BY-NC-SA
exact mass=138.14085
ionization energy=70 eV
ion type=[M]+*
computed spectral entropy=3.1270598734589496
computed normalized entropy=0.8420625255925431
SPLASH=splash10-0532-9100000000-4f94c002ed3977136fa7
submitter=submitter = University of Tokyo Team (Faculty of Engineering, University of Tokyo)
MoNA Rating=3.75

>  <NUM PEAKS>  (4820) 
41

>  <MASS SPECTRAL PEAKS>  (4820) 
27 13.94
28 1.82
29 9.11
39 18.06
40 3.27
41 37.75
42 1.34
43 4.66
51 3.43
52 1.53
53 12.38
54 3.28
55 41.23
56 2.75
57 1.41
65 4.34
66 2.05
67 32.31
68 15.93
69 23.38
70 4.9
77 7.31
78 1.72
79 10.6
80 3.96
81 44.68
82 39.11
83 12.28
84 2.69
91 5.44
93 3.19
94 14.55
95 99.99
96 24.63
97 7.5
109 39.39
110 4.35
123 17.33
124 1.74
138 12.25
139 1.59

>  <PREDICTED SPECTRUM>  (4820) 
26 10
27 196
28 119
29 247
38 1
39 335
40 143
41 720
42 201
43 330
44 35
50 34
51 177
52 128
53 391
54 155
55 575
56 282
57 204
58 11
63 92
64 49
65 279
66 124
67 762
68 372
69 632
70 288
71 119
77 284
78 219
79 414
80 220
81 648
82 814
83 429
84 68
91 388
92 254
93 220
94 109
95 585
96 267
97 88
105 315
106 72
107 206
108 66
109 413
110 130
111 1
120 23
121 136
123 999
124 310
125 71
126 0
138 804
139 264
140 52

$$$$

     RDKit          2D

 29 28  0  0  1  0  0  0  0  0999 V2000
   -7.4695   12.1875    0.0000 C   0  0  0  0  0  0  0  0  0  0  0  0
   -8.7685    9.9375    0.0000 C   0  0  0  0  0  0  0  0  0  0  0  0
   -0.9743    5.4375    0.0000 C   0  0  0  0  0  0  0  0  0  0  0  0
   -3.5724    5.4375    0.0000 C   0  0  0  0  0  0  0  0  0  0  0  0
  -10.0675    6.1875    0.0000 C   0  0  0  0  0  0  0  0  0  0  0  0
    5.5209    7.6875    0.0000 C   0  0  0  0  0  0  0  0  0  0  0  0
  -13.9647    8.4375    0.0000 C   0  0  0  0  0  0  0  0  0  0  0  0
   -6.1704    9.9375    0.0000 C   0  0  0  0  0  0  0  0  0  0  0  0
    1.6238    8.4375    0.0000 C   0  0  0  0  0  0  0  0  0  0  0  0
   -7.4695   10.6875    0.0000 C   0  0  0  0  0  0  0  0  0  0  0  0
   -2.2733    6.1875    0.0000 C   0  0  0  0  0  0  0  0  0  0  0  0
  -10.0675    7.6875    0.0000 C   0  0  0  0  0  0  0  0  0  0  0  0
    4.2219    8.4375    0.0000 C   0  0  0  0  0  0  0  0  0  0  0  0
   -6.1704    8.4375    0.0000 C   0  0  0  0  0  0  0  0  0  0  0  0
    0.3248    7.6875    0.0000 C   0  0  0  0  0  0  0  0  0  0  0  0
   -2.2733    7.6875    0.0000 C   0  0  0  0  0  0  0  0  0  0  0  0
   -7.4695    7.6875    0.0000 C   0  0  0  0  0  0  0  0  0  0  0  0
   -3.5724    8.4375    0.0000 C   0  0  0  0  0  0  0  0  0  0  0  0
  -11.3666    8.4375    0.0000 C   0  0  0  0  0  0  0  0  0  0  0  0
    2.9228    7.6875    0.0000 N   0  0  0  0  0  0  0  0  0  0  0  0
   -8.7685    8.4375    0.0000 N   0  0  0  0  0  0  0  0  0  0  0  0
   -4.8714    7.6875    0.0000 N   0  0  0  0  0  0  0  0  0  0  0  0
   -0.9743    8.4375    0.0000 N   0  0  0  0  0  0  0  0  0  0  0  0
    4.2219    9.9375    0.0000 O   0  0  0  0  0  0  0  0  0  0  0  0
    0.3248    6.1875    0.0000 O   0  0  0  0  0  0  0  0  0  0  0  0
   -7.4695    6.1875    0.0000 O   0  0  0  0  0  0  0  0  0  0  0  0
   -3.5724    9.9375    0.0000 O   0  0  0  0  0  0  0  0  0  0  0  0
  -11.3666    9.9375    0.0000 O   0  0  0  0  0  0  0  0  0  0  0  0
  -12.6656    7.6875    0.0000 O   0  0  0  0  0  0  0  0  0  0  0  0
 10  1  1  0
 10  2  1  0
 10  8  1  0
 11  3  1  0
 11  4  1  0
 12  5  1  1
 13  6  1  0
 14  8  1  6
 15  9  1  0
 16 11  1  0
 17 14  1  0
 18 16  1  0
 19 12  1  0
 20  9  1  0
 20 13  2  3
 21 12  1  0
 21 17  2  3
 14 22  1  0
 22 18  2  3
 23 15  2  3
 16 23  1  6
 24 13  1  0
 25 15  1  0
 26 17  1  0
 27 18  1  0
 28 19  2  0
 29  7  1  0
 29 19  1  0
M  END
>  <NAME>  (4821) 
N-ACETYL-GLYCYL-VALYL-LEUCYL-ALANINE METHYL ESTER

>  <SYNONYMS>  (4821) 


>  <SPECTRUM TYPE>  (4821) 
MS1

>  <INSTRUMENT TYPE>  (4821) 
EI-B

>  <INSTRUMENT>  (4821) 
HITACHI RMU-6M

>  <ION MODE>  (4821) 
P

>  <INCHIKEY>  (4821) 
LJJHAWVPDHHHQY-DUVNUKRYSA-N

>  <FORMULA>  (4821) 
C19H34N4O6

>  <EXACT MASS>  (4821) 
414.247834808

>  <MW>  (4821) 
414

>  <ID>  (4821) 
JP002589

>  <CONTRIBUTOR>  (4821) 
University of Tokyo Team, {Faculty of Engineering, University of Tokyo

>  <COMMENT>  (4821) 
SMILES=CC(=O)NCC(=O)NC([H])(C(C)C)C(=O)NC([H])(CC(C)C)C(=O)NC([H])(C)C(=O)OC
InChI=InChI=1S/C19H34N4O6/c1-10(2)8-14(17(26)21-12(5)19(28)29-7)22-18(27)16(11(3)4)23-15(25)9-20-13(6)24/h10-12,14,16H,8-9H2,1-7H3,(H,20,24)(H,21,26)(H,22,27)(H,23,25)/t12-,14-,16+/m0/s1
computed SMILES=O=C(OC)C(N=C(O)C(N=C(O)C(N=C(O)CN=C(O)C)C(C)C)CC(C)C)C
accession=JP002589
date=2016.01.19 (Created 2008.10.21, modified 2011.05.06)
author=YAMAMOTO M, DEP. CHEMISTRY, FAC. SCIENCE, NARA WOMEN'S UNIV.
license=CC BY-NC-SA
exact mass=414.24783
ionization energy=70 eV
ion type=[M]+*
computed spectral entropy=2.807290115480613
computed normalized entropy=0.7070739826203358
SPLASH=splash10-00dr-9100000000-fee0b99ef02cc2a3b469
submitter=submitter = University of Tokyo Team (Faculty of Engineering, University of Tokyo)
MoNA Rating=3.75

>  <NUM PEAKS>  (4821) 
53

>  <MASS SPECTRAL PEAKS>  (4821) 
15 3.41
26 1.31
27 4.61
28 9.75
29 2.28
30 14.92
31 1.22
39 3.18
40 1.76
41 7.8
42 4.31
43 7.52
44 10.39
53 1.35
54 1.72
55 5.85
56 3.01
57 1.87
59 1.18
67 1.04
68 1.51
69 2.78
70 3.93
71 2.55
72 99.99
73 3.43
83 2.46
84 1.8
85 1.88
86 92.02
87 3.52
96 1
97 2.31
98 2.83
100 3.91
102 1.3
104 2.75
113 1.5
141 1.1
158 1.18
169 1.32
171 5.06
172 3.37
183 1.22
199 14.37
200 1.79
201 1.21
211 1.29
284 16.2
285 5.1
312 2.43
357 2.98
414 0.24

>  <PREDICTED SPECTRUM>  (4821) 
14 8
16 15
17 25
18 38
25 2
26 31
27 159
28 121
29 199
30 154
31 126
32 48
33 55
34 26
35 18
36 86
37 36
38 70
39 240
40 188
41 805
42 679
43 999
44 559
45 605
46 166
47 117
48 19
49 63
50 137
51 171
52 154
53 276
54 339
55 499
56 455
57 384
58 528
59 339
60 269
61 234
62 95
63 83
64 48
65 151
66 92
67 209
68 264
69 436
70 299
71 467
72 167
73 261
74 241
75 141
76 110
77 209
78 80
79 107
80 242
81 251
82 290
83 225
84 210
85 181
86 423
87 182
88 103
89 177
90 69
91 128
92 63
93 166
94 140
95 72
96 272
97 372
98 459
99 360
100 108
101 154
102 153
103 93
104 40
105 88
106 82
107 109
108 196
109 203
110 198
111 148
112 212
113 207
114 89
115 87
116 78
117 80
118 18
119 60
120 135
121 153
122 108
123 206
124 230
125 282
126 373
127 275
128 156
129 139
130 133
131 28
132 8
133 143
134 110
135 203
136 104
137 68
138 252
139 187
140 209
141 154
142 219
143 52
144 46
145 36
146 14
149 42
150 35
151 33
152 126
153 91
154 41
155 152
156 65
157 110
158 130
159 47
160 97
161 71
163 121
164 57
165 154
166 224
167 335
168 73
169 46
170 25
171 44
172 50
178 41
179 61
180 117
181 73
182 53
183 29
184 93
185 125
186 322
187 86
188 0
190 26
191 15
194 13
195 88
196 9
199 23
200 104
207 20
208 20
209 91
210 128
211 10
214 42
215 64
217 56
218 47
219 116
221 17
223 127
224 36
225 57
226 29
228 45
237 39
250 81
251 34
252 205
253 22
254 57
255 79
271 9
279 13
284 7
296 15
299 87
300 21
301 59
310 17
313 59
314 51
315 50
319 33
320 27
322 22
328 13
334 0
399 29
414 90

$$$$

     RDKit          2D

 30 29  0  0  1  0  0  0  0  0999 V2000
   -7.4695   12.1875    0.0000 C   0  0  0  0  0  0  0  0  0  0  0  0
   -8.7685    9.9375    0.0000 C   0  0  0  0  0  0  0  0  0  0  0  0
   -0.9743    5.4375    0.0000 C   0  0  0  0  0  0  0  0  0  0  0  0
   -3.5724    5.4375    0.0000 C   0  0  0  0  0  0  0  0  0  0  0  0
    1.6238    9.9375    0.0000 C   0  0  0  0  0  0  0  0  0  0  0  0
  -10.0675    6.1875    0.0000 C   0  0  0  0  0  0  0  0  0  0  0  0
    5.5209    7.6875    0.0000 C   0  0  0  0  0  0  0  0  0  0  0  0
  -13.9647    8.4375    0.0000 C   0  0  0  0  0  0  0  0  0  0  0  0
   -6.1704    9.9375    0.0000 C   0  0  0  0  0  0  0  0  0  0  0  0
   -7.4695   10.6875    0.0000 C   0  0  0  0  0  0  0  0  0  0  0  0
   -2.2733    6.1875    0.0000 C   0  0  0  0  0  0  0  0  0  0  0  0
    1.6238    8.4375    0.0000 C   0  0  0  0  0  0  0  0  0  0  0  0
  -10.0675    7.6875    0.0000 C   0  0  0  0  0  0  0  0  0  0  0  0
    4.2219    8.4375    0.0000 C   0  0  0  0  0  0  0  0  0  0  0  0
   -6.1704    8.4375    0.0000 C   0  0  0  0  0  0  0  0  0  0  0  0
   -2.2733    7.6875    0.0000 C   0  0  0  0  0  0  0  0  0  0  0  0
    0.3248    7.6875    0.0000 C   0  0  0  0  0  0  0  0  0  0  0  0
   -7.4695    7.6875    0.0000 C   0  0  0  0  0  0  0  0  0  0  0  0
   -3.5724    8.4375    0.0000 C   0  0  0  0  0  0  0  0  0  0  0  0
  -11.3666    8.4375    0.0000 C   0  0  0  0  0  0  0  0  0  0  0  0
    2.9228    7.6875    0.0000 N   0  0  0  0  0  0  0  0  0  0  0  0
   -8.7685    8.4375    0.0000 N   0  0  0  0  0  0  0  0  0  0  0  0
   -4.8714    7.6875    0.0000 N   0  0  0  0  0  0  0  0  0  0  0  0
   -0.9743    8.4375    0.0000 N   0  0  0  0  0  0  0  0  0  0  0  0
    4.2219    9.9375    0.0000 O   0  0  0  0  0  0  0  0  0  0  0  0
    0.3248    6.1875    0.0000 O   0  0  0  0  0  0  0  0  0  0  0  0
   -7.4695    6.1875    0.0000 O   0  0  0  0  0  0  0  0  0  0  0  0
   -3.5724    9.9375    0.0000 O   0  0  0  0  0  0  0  0  0  0  0  0
  -11.3666    9.9375    0.0000 O   0  0  0  0  0  0  0  0  0  0  0  0
  -12.6656    7.6875    0.0000 O   0  0  0  0  0  0  0  0  0  0  0  0
 10  1  1  0
 10  2  1  0
 10  9  1  0
 11  3  1  0
 11  4  1  0
 12  5  1  6
 13  6  1  1
 14  7  1  0
 15  9  1  6
 16 11  1  0
 17 12  1  0
 18 15  1  0
 19 16  1  0
 20 13  1  0
 21 12  1  0
 21 14  2  3
 22 13  1  0
 22 18  2  3
 15 23  1  0
 23 19  2  3
 16 24  1  6
 24 17  2  3
 25 14  1  0
 26 17  1  0
 27 18  1  0
 28 19  1  0
 29 20  2  0
 30  8  1  0
 30 20  1  0
M  END
>  <NAME>  (4822) 
N-ACETYL-ALANYL-VALYL-LEUCYL-ALANINE METHYL ESTER

>  <SYNONYMS>  (4822) 


>  <SPECTRUM TYPE>  (4822) 
MS1

>  <INSTRUMENT TYPE>  (4822) 
EI-B

>  <INSTRUMENT>  (4822) 
HITACHI RMU-6M

>  <ION MODE>  (4822) 
P

>  <INCHIKEY>  (4822) 
IJDVBFIHILPVAM-DARAHFNDSA-N

>  <FORMULA>  (4822) 
C20H36N4O6

>  <EXACT MASS>  (4822) 
428.26348487199994

>  <MW>  (4822) 
428

>  <ID>  (4822) 
JP002588

>  <CONTRIBUTOR>  (4822) 
University of Tokyo Team, {Faculty of Engineering, University of Tokyo

>  <COMMENT>  (4822) 
SMILES=COC(=O)C([H])(C)NC(=O)C([H])(CC(C)C)NC(=O)C([H])(C(C)C)NC(=O)C([H])(C)NC(C)=O
InChI=InChI=1S/C20H36N4O6/c1-10(2)9-15(18(27)22-13(6)20(29)30-8)23-19(28)16(11(3)4)24-17(26)12(5)21-14(7)25/h10-13,15-16H,9H2,1-8H3,(H,21,25)(H,22,27)(H,23,28)(H,24,26)/t12-,13-,15-,16+/m0/s1
computed SMILES=O=C(OC)C(N=C(O)C(N=C(O)C(N=C(O)C(N=C(O)C)C)C(C)C)CC(C)C)C
accession=JP002588
date=2016.01.19 (Created 2008.10.21, modified 2011.05.06)
author=YAMAMOTO M, DEP. CHEMISTRY, FAC. SCIENCE, NARA WOMEN'S UNIV.
license=CC BY-NC-SA
exact mass=428.26348
ionization energy=70 eV
ion type=[M]+*
computed spectral entropy=4.125352902051403
computed normalized entropy=0.8336134695223931
SPLASH=splash10-0076-9210000000-591c64cd7070bbbc0865
submitter=submitter = University of Tokyo Team (Faculty of Engineering, University of Tokyo)
MoNA Rating=3.75

>  <NUM PEAKS>  (4822) 
141

>  <MASS SPECTRAL PEAKS>  (4822) 
14 2.89
15 9.89
25 1.04
26 3.39
27 12.02
28 6.55
29 9.85
30 9.62
31 3.16
37 1.58
38 3.12
39 12.87
40 4.7
41 26.7
42 13.64
43 26.74
44 63.72
45 2.98
50 1.9
51 3.16
52 1.99
53 3.03
54 4.34
55 18.29
56 8.9
57 15.31
58 2.48
59 2.89
60 1.13
65 2.48
66 1.17
67 2.3
68 2.98
69 9.94
70 10.16
71 11.61
72 99.99
73 5.87
74 1.4
76 1.13
77 3.25
78 4.34
79 3.34
80 2.08
81 3.43
82 3.52
83 6.32
84 4.74
85 6.78
86 60.52
87 6.69
91 7.74
92 1.13
93 1.45
94 1.17
95 3.21
96 2.89
97 5.47
98 4.65
99 3.61
100 2.39
101 1.4
102 3.34
103 3.34
104 4.97
105 17.44
106 2.44
107 1.58
109 2.08
110 1.54
111 2.67
112 4.52
113 2.67
114 6.78
115 3.84
116 1.63
117 4.97
118 6.46
119 1.99
123 1.9
125 1.81
126 1.45
127 3.93
128 2.48
131 3.03
135 1.08
137 1.13
139 1.13
140 1.22
141 3.61
142 1.67
143 2.21
144 1.31
145 1.54
150 1.58
152 2.08
154 1.17
155 1.54
156 1.45
157 1.31
158 3.43
159 1.76
165 1.4
167 4.43
171 1.04
173 1.08
179 1.08
181 1.45
182 1.45
183 2.71
184 1.26
185 6.96
186 4.88
187 1.58
189 1.08
195 1.08
197 2.35
201 1.49
211 3.75
212 1.22
213 28.41
214 4.02
215 1.81
219 2.03
221 1.13
223 1.72
237 1.67
239 1.13
257 1.04
267 1.31
279 2.26
282 1.31
297 1.22
298 19.38
299 6.19
300 1.94
326 2.48
342 1.04
372 4.07
397 1.31
428 0.44

>  <PREDICTED SPECTRUM>  (4822) 
14 4
16 15
17 28
18 39
25 8
26 41
27 196
28 113
29 238
30 164
31 155
32 32
33 62
34 27
36 15
38 26
39 186
40 140
41 766
42 564
43 999
44 498
45 430
46 149
47 59
48 12
49 51
50 48
51 79
52 76
53 122
54 225
55 337
56 342
57 370
58 438
59 332
60 230
61 153
62 45
63 64
64 53
65 156
66 66
67 73
68 246
69 475
70 297
71 273
72 206
73 294
74 204
75 186
76 44
77 68
78 44
79 93
80 121
81 159
82 185
83 138
84 128
85 212
86 383
87 200
88 121
89 64
90 9
91 156
93 39
94 91
95 60
96 198
97 311
98 338
99 368
100 156
101 183
102 139
103 172
104 51
105 78
107 29
108 20
109 86
110 5
111 77
112 170
113 177
114 71
115 89
116 8
117 54
119 47
120 72
121 88
122 121
123 196
124 241
125 283
126 324
127 149
128 198
129 126
130 44
131 23
132 1
133 17
134 74
135 146
136 27
137 69
138 172
139 87
140 142
141 61
142 145
143 132
144 95
145 55
146 49
147 76
148 54
149 131
150 56
151 48
152 86
153 156
154 30
155 175
156 25
157 33
158 61
159 49
160 80
161 13
163 3
166 72
167 150
168 48
169 123
170 69
171 140
172 139
173 88
174 35
175 96
176 3
177 81
178 45
179 101
180 90
181 145
182 107
183 89
184 40
185 23
186 323
187 26
192 29
193 106
194 75
196 26
198 7
199 29
200 46
201 56
204 53
208 3
209 113
210 124
211 10
214 44
219 77
221 163
223 139
224 59
225 107
226 144
229 32
231 57
232 53
237 21
239 35
250 62
251 59
252 272
253 38
267 8
269 38
293 34
308 6
309 47
310 78
311 10
312 0
313 74
327 21
328 187
329 18
337 43
338 2
399 30
407 0
410 44
411 0
413 22
414 23
431 23

$$$$

     RDKit          2D

 11 10  0  0  0  0  0  0  0  0999 V2000
    2.2733    2.8125    0.0000 C   0  0  0  0  0  0  0  0  0  0  0  0
    0.9743    5.0625    0.0000 C   0  0  0  0  0  0  0  0  0  0  0  0
   -5.5209    2.8125    0.0000 C   0  0  0  0  0  0  0  0  0  0  0  0
   -4.2219    5.0625    0.0000 C   0  0  0  0  0  0  0  0  0  0  0  0
    0.9743    3.5625    0.0000 C   0  0  0  0  0  0  0  0  0  0  0  0
   -4.2219    3.5625    0.0000 C   0  0  0  0  0  0  0  0  0  0  0  0
   -0.3248    2.8125    0.0000 C   0  0  0  0  0  0  0  0  0  0  0  0
   -2.9228    2.8125    0.0000 C   0  0  0  0  0  0  0  0  0  0  0  0
   -0.3248    1.3125    0.0000 O   0  0  0  0  0  0  0  0  0  0  0  0
   -2.9228    1.3125    0.0000 O   0  0  0  0  0  0  0  0  0  0  0  0
   -1.6238    3.5625    0.0000 O   0  0  0  0  0  0  0  0  0  0  0  0
  5  1  1  0
  5  2  1  0
  6  3  1  0
  6  4  1  0
  7  5  1  0
  8  6  1  0
  9  7  2  0
 10  8  2  0
 11  7  1  0
 11  8  1  0
M  END
>  <NAME>  (4823) 
ISOBUTYRIC ANHYDRIDE

>  <SYNONYMS>  (4823) 


>  <SPECTRUM TYPE>  (4823) 
MS1

>  <INSTRUMENT TYPE>  (4823) 
EI-B

>  <INSTRUMENT>  (4823) 
HITACHI RMU-6M

>  <ION MODE>  (4823) 
P

>  <INCHIKEY>  (4823) 
LSACYLWPPQLVSM-UHFFFAOYSA-N

>  <FORMULA>  (4823) 
C8H14O3

>  <EXACT MASS>  (4823) 
158.09429430799997

>  <MW>  (4823) 
158

>  <ID>  (4823) 
JP002587

>  <CONTRIBUTOR>  (4823) 
University of Tokyo Team, {Faculty of Engineering, University of Tokyo

>  <COMMENT>  (4823) 
SMILES=CC(C)C(=O)OC(=O)C(C)C
InChI=InChI=1S/C8H14O3/c1-5(2)7(9)11-8(10)6(3)4/h5-6H,1-4H3
computed SMILES=O=C(OC(=O)C(C)C)C(C)C
accession=JP002587
date=2016.01.19 (Created 2008.10.21, modified 2011.05.06)
author=YAMAMOTO M, DEP. CHEMISTRY, FAC. SCIENCE, NARA WOMEN'S UNIV.
license=CC BY-NC-SA
exact mass=158.09429
ionization energy=70 eV
ion type=[M]+*
computed spectral entropy=1.5501918808093036
computed normalized entropy=0.6238431053100357
SPLASH=splash10-001l-9000000000-2c92346ab0274fdd8fcc
submitter=submitter = University of Tokyo Team (Faculty of Engineering, University of Tokyo)
MoNA Rating=3.75

>  <NUM PEAKS>  (4823) 
12

>  <MASS SPECTRAL PEAKS>  (4823) 
15 1.43
26 1.4
27 14.23
28 3.26
39 6.87
40 1.4
41 17.67
42 5.03
43 81.66
44 2.8
81 99.99
82 4.64

>  <PREDICTED SPECTRUM>  (4823) 
14 5
26 43
27 173
28 81
29 49
31 18
38 25
39 208
40 83
41 347
42 170
43 952
44 206
45 122
52 18
53 74
54 43
55 190
56 57
57 115
58 11
59 40
69 50
70 314
71 999
72 229
73 10
87 94
88 199
89 278
90 33
99 27
101 17
115 64
158 29

$$$$

     RDKit          2D

 11 10  0  0  0  0  0  0  0  0999 V2000
    2.5981    4.5000    0.0000 C   0  0  0  0  0  0  0  0  0  0  0  0
   -7.7942    4.5000    0.0000 C   0  0  0  0  0  0  0  0  0  0  0  0
    1.2990    5.2500    0.0000 C   0  0  0  0  0  0  0  0  0  0  0  0
   -6.4952    5.2500    0.0000 C   0  0  0  0  0  0  0  0  0  0  0  0
    0.0000    4.5000    0.0000 C   0  0  0  0  0  0  0  0  0  0  0  0
   -5.1962    4.5000    0.0000 C   0  0  0  0  0  0  0  0  0  0  0  0
   -1.2990    5.2500    0.0000 C   0  0  0  0  0  0  0  0  0  0  0  0
   -3.8971    5.2500    0.0000 C   0  0  0  0  0  0  0  0  0  0  0  0
   -1.2990    6.7500    0.0000 O   0  0  0  0  0  0  0  0  0  0  0  0
   -3.8971    6.7500    0.0000 O   0  0  0  0  0  0  0  0  0  0  0  0
   -2.5981    4.5000    0.0000 O   0  0  0  0  0  0  0  0  0  0  0  0
  3  1  1  0
  4  2  1  0
  5  3  1  0
  6  4  1  0
  7  5  1  0
  8  6  1  0
  9  7  2  0
 10  8  2  0
 11  7  1  0
 11  8  1  0
M  END
>  <NAME>  (4824) 
BUTYRIC ANHYDRIDE

>  <SYNONYMS>  (4824) 


>  <SPECTRUM TYPE>  (4824) 
MS1

>  <INSTRUMENT TYPE>  (4824) 
EI-B

>  <INSTRUMENT>  (4824) 
HITACHI RMU-6M

>  <ION MODE>  (4824) 
P

>  <INCHIKEY>  (4824) 
YHASWHZGWUONAO-UHFFFAOYSA-N

>  <FORMULA>  (4824) 
C8H14O3

>  <EXACT MASS>  (4824) 
158.09429430799997

>  <MW>  (4824) 
158

>  <ID>  (4824) 
JP002586

>  <CONTRIBUTOR>  (4824) 
University of Tokyo Team, {Faculty of Engineering, University of Tokyo

>  <COMMENT>  (4824) 
SMILES=CCCC(=O)OC(=O)CCC
InChI=InChI=1S/C8H14O3/c1-3-5-7(9)11-8(10)6-4-2/h3-6H2,1-2H3
computed SMILES=O=C(OC(=O)CCC)CCC
accession=JP002586
date=2016.01.19 (Created 2008.10.21, modified 2011.05.06)
author=YAMAMOTO M, DEP. CHEMISTRY, FAC. SCIENCE, NARA WOMEN'S UNIV.
license=CC BY-NC-SA
exact mass=158.09429
ionization energy=70 eV
ion type=[M]+*
computed spectral entropy=1.6389183952675461
computed normalized entropy=0.6052023683314608
SPLASH=splash10-001l-9000000000-21ca608b8d89fb906295
submitter=submitter = University of Tokyo Team (Faculty of Engineering, University of Tokyo)
MoNA Rating=3.75

>  <NUM PEAKS>  (4824) 
15

>  <MASS SPECTRAL PEAKS>  (4824) 
15 1.4
26 1.09
27 14.62
28 2.24
29 1.83
39 5.75
40 1.03
41 14.37
42 4.42
43 51.38
44 1.89
65 1.76
70 1.97
81 99.99
82 4.67

>  <PREDICTED SPECTRUM>  (4824) 
0 2
14 11
25 7
26 59
27 219
28 120
29 134
31 8
36 2
37 3
38 35
39 180
40 80
41 327
42 199
43 857
44 134
45 70
53 53
55 160
57 10
59 38
60 88
67 3
68 2
69 71
70 204
71 999
72 182
73 86
87 55
88 140
89 131
114 32
115 38
116 18
117 8
130 30
131 18
158 19
160 7

$$$$

     RDKit          2D

  8  8  0  0  0  0  0  0  0  0999 V2000
    1.9489    1.5002    0.0000 C   0  0  0  0  0  0  0  0  0  0  0  0
   -1.9500    0.7500    0.0000 C   0  0  0  0  0  0  0  0  0  0  0  0
   -1.9500   -0.7500    0.0000 C   0  0  0  0  0  0  0  0  0  0  0  0
   -0.6500    1.5000    0.0000 C   0  0  0  0  0  0  0  0  0  0  0  0
   -0.6500   -1.5000    0.0000 C   0  0  0  0  0  0  0  0  0  0  0  0
    0.6500    0.7500    0.0000 C   0  0  0  0  0  0  0  0  0  0  0  0
    0.6500   -0.7500    0.0000 C   0  0  0  0  0  0  0  0  0  0  0  0
    1.9489   -1.5002    0.0000 O   0  0  0  0  0  0  0  0  0  0  0  0
  3  2  1  0
  4  2  1  0
  5  3  1  0
  6  1  1  0
  6  4  1  0
  7  5  1  0
  7  6  1  0
  8  7  2  0
M  END
>  <NAME>  (4825) 
2-METHYLCYCLOHEXANONE

>  <SYNONYMS>  (4825) 


>  <SPECTRUM TYPE>  (4825) 
MS1

>  <INSTRUMENT TYPE>  (4825) 
EI-B

>  <INSTRUMENT>  (4825) 
HITACHI RMU-6M

>  <ION MODE>  (4825) 
P

>  <INCHIKEY>  (4825) 
LFSAPCRASZRSKS-UHFFFAOYSA-N

>  <FORMULA>  (4825) 
C7H12O

>  <EXACT MASS>  (4825) 
112.088815004

>  <MW>  (4825) 
112

>  <ID>  (4825) 
JP002581

>  <CONTRIBUTOR>  (4825) 
University of Tokyo Team, {Faculty of Engineering, University of Tokyo

>  <COMMENT>  (4825) 
SMILES=CC(C1)C(=O)CCC1
InChI=InChI=1S/C7H12O/c1-6-4-2-3-5-7(6)8/h6H,2-5H2,1H3
computed SMILES=O=C1CCCCC1C
accession=JP002581
date=2016.01.19 (Created 2008.10.21, modified 2011.05.06)
author=YAMAMOTO M, DEP. CHEMISTRY, FAC. SCIENCE, NARA WOMEN'S UNIV.
license=CC BY-NC-SA
exact mass=112.08882
ionization energy=70 eV
ion type=[M]+*
computed spectral entropy=2.8941903106985714
computed normalized entropy=0.8140385303052808
SPLASH=splash10-014l-9000000000-583da36651420dac2bf9
submitter=submitter = University of Tokyo Team (Faculty of Engineering, University of Tokyo)
MoNA Rating=3.75

>  <NUM PEAKS>  (4825) 
35

>  <MASS SPECTRAL PEAKS>  (4825) 
15 2.28
26 3.71
27 28.82
28 15.72
29 12.98
38 2.1
39 27.73
40 6.55
41 65.39
42 35.01
43 10.45
50 1.67
51 2.59
52 1.28
53 5.45
54 33.82
55 51.74
57 4.39
58 3.96
67 6.21
68 99.99
69 39.09
70 9.78
71 2.68
79 2.74
81 1.61
83 10.48
84 27.88
85 1.98
94 4.26
96 1.06
97 7.55
98 1.52
112 42.69
113 3.41

>  <PREDICTED SPECTRUM>  (4825) 
14 13
15 18
26 129
27 406
28 296
29 291
30 54
37 56
38 124
39 512
40 279
41 933
42 901
43 518
44 179
45 74
50 159
51 202
52 108
53 291
54 284
55 885
56 999
57 370
58 64
63 0
64 9
65 112
66 91
67 248
68 504
69 808
70 749
71 214
77 94
78 13
79 173
82 177
83 471
84 566
85 161
93 2
94 67
95 33
97 463
98 153
111 98
112 793
113 227

$$$$

     RDKit          2D

 10  9  0  0  0  0  0  0  0  0999 V2000
    2.5981    4.5000    0.0000 C   0  0  0  0  0  0  0  0  0  0  0  0
   -7.7942    4.5000    0.0000 C   0  0  0  0  0  0  0  0  0  0  0  0
    1.2990    5.2500    0.0000 C   0  0  0  0  0  0  0  0  0  0  0  0
   -6.4952    5.2500    0.0000 C   0  0  0  0  0  0  0  0  0  0  0  0
    0.0000    4.5000    0.0000 C   0  0  0  0  0  0  0  0  0  0  0  0
   -5.1962    4.5000    0.0000 C   0  0  0  0  0  0  0  0  0  0  0  0
   -1.2990    5.2500    0.0000 C   0  0  0  0  0  0  0  0  0  0  0  0
   -3.8971    5.2500    0.0000 C   0  0  0  0  0  0  0  0  0  0  0  0
   -2.5981    4.5000    0.0000 C   0  0  0  0  0  0  0  0  0  0  0  0
   -2.5981    3.0000    0.0000 O   0  0  0  0  0  0  0  0  0  0  0  0
  3  1  1  0
  4  2  1  0
  5  3  1  0
  6  4  1  0
  7  5  1  0
  8  6  1  0
  9  7  1  0
  9  8  1  0
 10  9  2  0
M  END
>  <NAME>  (4826) 
5-NONANONE

>  <SYNONYMS>  (4826) 
DIBUTYL KETONE

>  <SPECTRUM TYPE>  (4826) 
MS1

>  <INSTRUMENT TYPE>  (4826) 
EI-B

>  <INSTRUMENT>  (4826) 
HITACHI RMU-6M

>  <ION MODE>  (4826) 
P

>  <INCHIKEY>  (4826) 
WSGCRAOTEDLMFQ-UHFFFAOYSA-N

>  <FORMULA>  (4826) 
C9H18O

>  <EXACT MASS>  (4826) 
142.135765196

>  <MW>  (4826) 
142

>  <ID>  (4826) 
JP002580

>  <CONTRIBUTOR>  (4826) 
University of Tokyo Team, {Faculty of Engineering, University of Tokyo

>  <COMMENT>  (4826) 
computed SMILES=O=C(CCCC)CCCC
SMILES=CCCCC(=O)CCCC
InChI=InChI=1S/C9H18O/c1-3-5-7-9(10)8-6-4-2/h3-8H2,1-2H3
accession=JP002580
date=2016.01.19 (Created 2008.10.21, modified 2011.05.06)
author=YAMAMOTO M, DEP. CHEMISTRY, FAC. SCIENCE, NARA WOMEN'S UNIV.
license=CC BY-NC-SA
exact mass=142.13577
ionization energy=70 eV
ion type=[M]+*
computed spectral entropy=2.384953515252592
computed normalized entropy=0.7320082408303602
SPLASH=splash10-0a4i-9000000000-fa8c242876cff36ca65d
submitter=submitter = University of Tokyo Team (Faculty of Engineering, University of Tokyo)
MoNA Rating=3.75

>  <NUM PEAKS>  (4826) 
26

>  <MASS SPECTRAL PEAKS>  (4826) 
15 1.4
26 1.2
27 17.92
28 7.24
29 41.01
30 1.09
39 9.05
40 1.35
41 36.22
42 3.06
43 5.2
53 2.07
55 4.9
56 1.99
57 99.99
58 78.04
59 5.66
71 6.86
72 3.98
84 1.1
85 88.14
86 5.36
100 8.91
113 5.51
142 15.75
143 1.73

>  <PREDICTED SPECTRUM>  (4826) 
14 20
15 89
25 0
26 91
27 346
28 246
29 469
30 138
31 68
38 34
39 291
40 130
41 584
42 300
43 427
44 175
45 68
47 44
49 17
51 101
53 151
54 109
55 383
56 274
57 784
58 468
59 175
60 68
65 31
66 24
67 124
68 49
69 82
70 92
71 216
72 192
73 9
81 62
82 39
83 151
84 20
85 999
86 238
87 51
99 25
100 311
101 90
113 322
114 118
115 11
127 71
141 3
142 187
143 51

$$$$

     RDKit          2D

 10  9  0  0  0  0  0  0  0  0999 V2000
    2.5981    4.5000    0.0000 C   0  0  0  0  0  0  0  0  0  0  0  0
   -7.7942    4.5000    0.0000 C   0  0  0  0  0  0  0  0  0  0  0  0
    1.2990    5.2500    0.0000 C   0  0  0  0  0  0  0  0  0  0  0  0
   -6.4952    5.2500    0.0000 C   0  0  0  0  0  0  0  0  0  0  0  0
    0.0000    4.5000    0.0000 C   0  0  0  0  0  0  0  0  0  0  0  0
   -1.2990    5.2500    0.0000 C   0  0  0  0  0  0  0  0  0  0  0  0
   -5.1962    4.5000    0.0000 C   0  0  0  0  0  0  0  0  0  0  0  0
   -2.5981    4.5000    0.0000 C   0  0  0  0  0  0  0  0  0  0  0  0
   -3.8971    5.2500    0.0000 C   0  0  0  0  0  0  0  0  0  0  0  0
   -3.8971    6.7500    0.0000 O   0  0  0  0  0  0  0  0  0  0  0  0
  3  1  1  0
  4  2  1  0
  5  3  1  0
  6  5  1  0
  7  4  1  0
  8  6  1  0
  9  7  1  0
  9  8  1  0
 10  9  2  0
M  END
>  <NAME>  (4827) 
4-NONANONE

>  <SYNONYMS>  (4827) 
PENTYL PROPYL KETONE

>  <SPECTRUM TYPE>  (4827) 
MS1

>  <INSTRUMENT TYPE>  (4827) 
EI-B

>  <INSTRUMENT>  (4827) 
HITACHI RMU-6M

>  <ION MODE>  (4827) 
P

>  <INCHIKEY>  (4827) 
TYBCSQFBSWACAA-UHFFFAOYSA-N

>  <FORMULA>  (4827) 
C9H18O

>  <EXACT MASS>  (4827) 
142.135765196

>  <MW>  (4827) 
142

>  <ID>  (4827) 
JP002579

>  <CONTRIBUTOR>  (4827) 
University of Tokyo Team, {Faculty of Engineering, University of Tokyo

>  <COMMENT>  (4827) 
SMILES=CCCCCC(=O)CCC
InChI=InChI=1S/C9H18O/c1-3-5-6-8-9(10)7-4-2/h3-8H2,1-2H3
computed SMILES=O=C(CCC)CCCCC
accession=JP002579
date=2016.01.19 (Created 2008.10.21, modified 2011.05.06)
author=YAMAMOTO M, DEP. CHEMISTRY, FAC. SCIENCE, NARA WOMEN'S UNIV.
license=CC BY-NC-SA
exact mass=142.13577
ionization energy=70 eV
ion type=[M]+*
computed spectral entropy=2.438058324362974
computed normalized entropy=0.7574254047102927
SPLASH=splash10-0006-9000000000-ed1056ec4790ac686ee3
submitter=submitter = University of Tokyo Team (Faculty of Engineering, University of Tokyo)
MoNA Rating=3.75

>  <NUM PEAKS>  (4827) 
25

>  <MASS SPECTRAL PEAKS>  (4827) 
15 1.46
27 19.7
28 3.15
29 13.14
39 8.79
40 1.63
41 21.99
42 4.87
43 99.99
44 3.38
53 1.54
55 5.84
56 1.08
57 2.43
58 42.67
59 1.86
70 1.8
71 57.81
72 3.26
86 23.91
87 3.37
99 43.67
100 3.78
142 11.83
143 1.43

>  <PREDICTED SPECTRUM>  (4827) 
14 20
15 65
18 3
26 72
27 354
28 86
29 279
30 70
31 40
32 9
38 27
39 343
40 140
41 606
42 376
43 986
44 337
45 172
53 95
54 60
55 248
56 86
57 277
58 517
59 137
67 63
68 6
69 35
70 26
71 999
72 406
73 67
81 82
82 5
85 50
86 462
87 122
99 667
100 103
113 111
114 14
142 211
143 43

$$$$

     RDKit          2D

  7  7  0  0  0  0  0  0  0  0999 V2000
    0.0000    2.5700    0.0000 C   0  0  0  0  0  0  0  0  0  0  0  0
    1.3000    1.8200    0.0000 C   0  0  0  0  0  0  0  0  0  0  0  0
   -1.3000    1.8200    0.0000 C   0  0  0  0  0  0  0  0  0  0  0  0
    1.3000    0.3200    0.0000 C   0  0  0  0  0  0  0  0  0  0  0  0
   -1.3000    0.3200    0.0000 C   0  0  0  0  0  0  0  0  0  0  0  0
   -0.0000   -0.4300    0.0000 C   0  0  0  0  0  0  0  0  0  0  0  0
   -0.0000   -1.9300    0.0000 N   0  0  0  0  0  0  0  0  0  0  0  0
  2  1  1  0
  3  1  1  0
  4  2  1  0
  5  3  1  0
  6  4  1  0
  6  5  1  0
  7  6  1  0
M  END
>  <NAME>  (4828) 
CYCLOHEXYLAMINE

>  <SYNONYMS>  (4828) 


>  <SPECTRUM TYPE>  (4828) 
MS1

>  <INSTRUMENT TYPE>  (4828) 
EI-B

>  <INSTRUMENT>  (4828) 
HITACHI RMU-6M

>  <ION MODE>  (4828) 
P

>  <INCHIKEY>  (4828) 
PAFZNILMFXTMIY-UHFFFAOYSA-N

>  <FORMULA>  (4828) 
C6H13N

>  <EXACT MASS>  (4828) 
99.10479941599999

>  <MW>  (4828) 
99

>  <ID>  (4828) 
JP002567

>  <CONTRIBUTOR>  (4828) 
University of Tokyo Team, {Faculty of Engineering, University of Tokyo

>  <COMMENT>  (4828) 
SMILES=NC(C1)CCCC1
InChI=InChI=1S/C6H13N/c7-6-4-2-1-3-5-6/h6H,1-5,7H2
computed SMILES=NC1CCCCC1
accession=JP002567
date=2016.01.19 (Created 2008.10.21, modified 2011.05.06)
author=YAMAMOTO M, DEP. CHEMISTRY, FAC. SCIENCE, NARA WOMEN'S UNIV.
license=CC BY-NC-SA
exact mass=99.1048
ionization energy=70 eV
ion type=[M]+*
computed spectral entropy=1.8830923094380405
computed normalized entropy=0.6395419714118636
SPLASH=splash10-0a4i-9000000000-9f0030286662e0b15eb9
submitter=submitter = University of Tokyo Team (Faculty of Engineering, University of Tokyo)
MoNA Rating=3.75

>  <NUM PEAKS>  (4828) 
19

>  <MASS SPECTRAL PEAKS>  (4828) 
15 1.16
27 4.41
28 6.96
29 2.57
30 9.14
39 3.83
41 3.85
42 4.37
43 20.31
53 1.25
54 1.52
55 2.03
56 99.99
57 4.85
67 1.39
70 6.38
98 1.48
99 13.59
100 1.03

>  <PREDICTED SPECTRUM>  (4828) 
14 26
15 67
16 13
17 29
18 16
26 52
27 105
28 258
29 68
30 383
36 6
38 8
39 191
40 78
41 410
42 329
43 287
44 152
50 33
51 53
52 61
53 141
54 357
55 281
56 999
57 324
64 13
65 24
67 233
68 160
69 14
70 195
71 40
79 16
80 172
81 119
82 579
83 187
84 71
96 63
98 189
99 329
100 74

$$$$

     RDKit          2D

  9  8  0  0  0  0  0  0  0  0999 V2000
    2.2733    2.8125    0.0000 C   0  0  0  0  0  0  0  0  0  0  0  0
    0.9743    5.0625    0.0000 C   0  0  0  0  0  0  0  0  0  0  0  0
   -5.5209    2.8125    0.0000 C   0  0  0  0  0  0  0  0  0  0  0  0
   -4.2219    5.0625    0.0000 C   0  0  0  0  0  0  0  0  0  0  0  0
   -0.3248    2.8125    0.0000 C   0  0  0  0  0  0  0  0  0  0  0  0
   -2.9228    2.8125    0.0000 C   0  0  0  0  0  0  0  0  0  0  0  0
    0.9743    3.5625    0.0000 C   0  0  0  0  0  0  0  0  0  0  0  0
   -4.2219    3.5625    0.0000 C   0  0  0  0  0  0  0  0  0  0  0  0
   -1.6238    3.5625    0.0000 N   0  0  0  0  0  0  0  0  0  0  0  0
  7  1  1  0
  7  2  1  0
  7  5  1  0
  8  3  1  0
  8  4  1  0
  8  6  1  0
  9  5  1  0
  9  6  1  0
M  END
>  <NAME>  (4829) 
DI-ISOBUTYLAMINE

>  <SYNONYMS>  (4829) 


>  <SPECTRUM TYPE>  (4829) 
MS1

>  <INSTRUMENT TYPE>  (4829) 
EI-B

>  <INSTRUMENT>  (4829) 
HITACHI RMU-6M

>  <ION MODE>  (4829) 
P

>  <INCHIKEY>  (4829) 
NJBCRXCAPCODGX-UHFFFAOYSA-N

>  <FORMULA>  (4829) 
C8H19N

>  <EXACT MASS>  (4829) 
129.151749608

>  <MW>  (4829) 
129

>  <ID>  (4829) 
JP002566

>  <CONTRIBUTOR>  (4829) 
University of Tokyo Team, {Faculty of Engineering, University of Tokyo

>  <COMMENT>  (4829) 
SMILES=CC(C)CNCC(C)C
InChI=InChI=1S/C8H19N/c1-7(2)5-9-6-8(3)4/h7-9H,5-6H2,1-4H3
computed SMILES=N(CC(C)C)CC(C)C
accession=JP002566
date=2016.01.19 (Created 2008.10.21, modified 2011.05.06)
author=YAMAMOTO M, DEP. CHEMISTRY, FAC. SCIENCE, NARA WOMEN'S UNIV.
license=CC BY-NC-SA
exact mass=129.15175
ionization energy=70 eV
ion type=[M]+*
computed spectral entropy=2.149191084626497
computed normalized entropy=0.6854393395809921
SPLASH=splash10-0019-9000000000-255f3e82a264d316b340
submitter=submitter = University of Tokyo Team (Faculty of Engineering, University of Tokyo)
MoNA Rating=3.75

>  <NUM PEAKS>  (4829) 
23

>  <MASS SPECTRAL PEAKS>  (4829) 
15 1.02
27 5.43
28 4.18
29 12.75
30 68.6
31 1.01
39 4.77
41 14.7
42 4.61
43 4.78
44 2.97
55 4
56 1.76
57 27.12
58 5.03
70 2.08
72 3.01
84 1.11
86 99.99
87 6.09
114 1.72
128 1.12
129 6.96

>  <PREDICTED SPECTRUM>  (4829) 
15 38
18 5
26 35
27 334
28 237
29 401
30 521
31 150
32 28
38 10
39 290
40 106
41 516
42 252
43 285
44 477
45 170
46 40
54 84
55 169
56 323
57 500
58 290
59 157
70 49
71 55
72 231
73 33
74 147
84 117
86 999
87 293
100 116
114 244
115 34
128 73
129 304
130 98

$$$$

     RDKit          2D

  7  6  0  0  0  0  0  0  0  0999 V2000
    1.9486    3.3750    0.0000 C   0  0  0  0  0  0  0  0  0  0  0  0
   -5.8457    3.3750    0.0000 C   0  0  0  0  0  0  0  0  0  0  0  0
    0.6495    4.1250    0.0000 C   0  0  0  0  0  0  0  0  0  0  0  0
   -4.5466    4.1250    0.0000 C   0  0  0  0  0  0  0  0  0  0  0  0
   -0.6495    3.3750    0.0000 C   0  0  0  0  0  0  0  0  0  0  0  0
   -3.2476    3.3750    0.0000 C   0  0  0  0  0  0  0  0  0  0  0  0
   -1.9486    4.1250    0.0000 N   0  0  0  0  0  0  0  0  0  0  0  0
  3  1  1  0
  4  2  1  0
  5  3  1  0
  6  4  1  0
  7  5  1  0
  7  6  1  0
M  END
>  <NAME>  (4830) 
DI-N-PROPYLAMINE

>  <SYNONYMS>  (4830) 


>  <SPECTRUM TYPE>  (4830) 
MS1

>  <INSTRUMENT TYPE>  (4830) 
EI-B

>  <INSTRUMENT>  (4830) 
HITACHI RMU-6M

>  <ION MODE>  (4830) 
P

>  <INCHIKEY>  (4830) 
WEHWNAOGRSTTBQ-UHFFFAOYSA-N

>  <FORMULA>  (4830) 
C6H15N

>  <EXACT MASS>  (4830) 
101.12044947999999

>  <MW>  (4830) 
101

>  <ID>  (4830) 
JP002563

>  <CONTRIBUTOR>  (4830) 
University of Tokyo Team, {Faculty of Engineering, University of Tokyo

>  <COMMENT>  (4830) 
SMILES=CCCNCCC
InChI=InChI=1S/C6H15N/c1-3-5-7-6-4-2/h7H,3-6H2,1-2H3
computed SMILES=N(CCC)CCC
accession=JP002563
date=2016.01.19 (Created 2008.10.21, modified 2011.05.06)
author=YAMAMOTO M, DEP. CHEMISTRY, FAC. SCIENCE, NARA WOMEN'S UNIV.
license=CC BY-NC-SA
exact mass=101.12045
ionization energy=70 eV
ion type=[M]+*
computed spectral entropy=2.0336468232912686
computed normalized entropy=0.6906737880052745
SPLASH=splash10-00e9-9000000000-219a01cc119233c56cd3
submitter=submitter = University of Tokyo Team (Faculty of Engineering, University of Tokyo)
MoNA Rating=3.75

>  <NUM PEAKS>  (4830) 
19

>  <MASS SPECTRAL PEAKS>  (4830) 
15 1.73
27 10.66
28 7.81
29 1.75
30 74.75
31 1.05
39 4.88
41 13.42
42 4.19
43 21.65
44 6.57
56 2.89
58 6.51
70 2.21
72 99.99
73 4.9
100 2.44
101 12.3
102 1.01

>  <PREDICTED SPECTRUM>  (4830) 
14 68
15 219
16 40
17 29
18 118
25 40
26 198
27 466
28 518
29 444
30 999
31 288
32 8
38 75
39 421
40 128
41 543
42 468
43 639
44 538
45 34
46 21
52 41
54 103
56 243
57 159
58 21
59 118
60 71
61 97
70 121
71 81
72 994
73 200
86 51
100 137
101 283
102 98

$$$$

     RDKit          2D

  7  6  0  0  0  0  0  0  0  0999 V2000
    1.9486    3.3750    0.0000 C   0  0  0  0  0  0  0  0  0  0  0  0
   -5.8457    3.3750    0.0000 C   0  0  0  0  0  0  0  0  0  0  0  0
    0.6495    4.1250    0.0000 C   0  0  0  0  0  0  0  0  0  0  0  0
   -4.5466    4.1250    0.0000 C   0  0  0  0  0  0  0  0  0  0  0  0
   -0.6495    3.3750    0.0000 C   0  0  0  0  0  0  0  0  0  0  0  0
   -1.9486    4.1250    0.0000 C   0  0  0  0  0  0  0  0  0  0  0  0
   -3.2476    3.3750    0.0000 N   0  0  0  0  0  0  0  0  0  0  0  0
  3  1  1  0
  4  2  1  0
  5  3  1  0
  6  5  1  0
  7  4  1  0
  7  6  1  0
M  END
>  <NAME>  (4831) 
ETHYL-N-BUTYLAMINE

>  <SYNONYMS>  (4831) 


>  <SPECTRUM TYPE>  (4831) 
MS1

>  <INSTRUMENT TYPE>  (4831) 
EI-B

>  <INSTRUMENT>  (4831) 
HITACHI RMU-6M

>  <ION MODE>  (4831) 
P

>  <INCHIKEY>  (4831) 
QHCCDDQKNUYGNC-UHFFFAOYSA-N

>  <FORMULA>  (4831) 
C6H15N

>  <EXACT MASS>  (4831) 
101.12044947999999

>  <MW>  (4831) 
101

>  <ID>  (4831) 
JP002562

>  <CONTRIBUTOR>  (4831) 
University of Tokyo Team, {Faculty of Engineering, University of Tokyo

>  <COMMENT>  (4831) 
SMILES=CCCCNCC
InChI=InChI=1S/C6H15N/c1-3-5-6-7-4-2/h7H,3-6H2,1-2H3
computed SMILES=N(CC)CCCC
accession=JP002562
date=2016.01.19 (Created 2008.10.21, modified 2011.05.06)
author=YAMAMOTO M, DEP. CHEMISTRY, FAC. SCIENCE, NARA WOMEN'S UNIV.
license=CC BY-NC-SA
exact mass=101.12045
ionization energy=70 eV
ion type=[M]+*
computed spectral entropy=1.886132708460554
computed normalized entropy=0.6657220898727807
SPLASH=splash10-0a4i-9000000000-63737036519dc1d9af6a
submitter=submitter = University of Tokyo Team (Faculty of Engineering, University of Tokyo)
MoNA Rating=3.75

>  <NUM PEAKS>  (4831) 
17

>  <MASS SPECTRAL PEAKS>  (4831) 
15 1.48
27 6.98
28 6.77
29 9.08
30 35.88
39 2.14
41 4.33
42 3.5
43 1.66
44 10.12
56 2.83
57 2.56
58 99.99
59 4.12
86 2.73
100 2.21
101 10.61

>  <PREDICTED SPECTRUM>  (4831) 
14 23
15 82
26 47
27 246
28 174
29 255
30 530
31 40
38 10
39 198
40 94
41 263
42 289
43 149
44 229
45 57
54 19
55 60
56 228
57 219
58 999
59 186
70 15
71 54
84 54
86 267
87 20
100 124
101 263
102 67

$$$$

     RDKit          2D

  6  5  0  0  0  0  0  0  0  0999 V2000
   -4.5466    3.3750    0.0000 C   0  0  0  0  0  0  0  0  0  0  0  0
    1.9486    2.6250    0.0000 C   0  0  0  0  0  0  0  0  0  0  0  0
   -3.2476    2.6250    0.0000 C   0  0  0  0  0  0  0  0  0  0  0  0
    0.6495    3.3750    0.0000 C   0  0  0  0  0  0  0  0  0  0  0  0
   -1.9486    3.3750    0.0000 C   0  0  0  0  0  0  0  0  0  0  0  0
   -0.6495    2.6250    0.0000 N   0  0  0  0  0  0  0  0  0  0  0  0
  3  1  1  0
  4  2  1  0
  5  3  1  0
  6  4  1  0
  6  5  1  0
M  END
>  <NAME>  (4832) 
ETHYL-N-PROPYLAMINE

>  <SYNONYMS>  (4832) 


>  <SPECTRUM TYPE>  (4832) 
MS1

>  <INSTRUMENT TYPE>  (4832) 
EI-B

>  <INSTRUMENT>  (4832) 
HITACHI RMU-6M

>  <ION MODE>  (4832) 
P

>  <INCHIKEY>  (4832) 
XCVNDBIXFPGMIW-UHFFFAOYSA-N

>  <FORMULA>  (4832) 
C5H13N

>  <EXACT MASS>  (4832) 
87.10479941599999

>  <MW>  (4832) 
87

>  <ID>  (4832) 
JP002561

>  <CONTRIBUTOR>  (4832) 
University of Tokyo Team, {Faculty of Engineering, University of Tokyo

>  <COMMENT>  (4832) 
SMILES=CCCNCC
InChI=InChI=1S/C5H13N/c1-3-5-6-4-2/h6H,3-5H2,1-2H3
computed SMILES=N(CC)CCC
accession=JP002561
date=2016.01.19 (Created 2008.10.21, modified 2011.05.06)
author=YAMAMOTO M, DEP. CHEMISTRY, FAC. SCIENCE, NARA WOMEN'S UNIV.
license=CC BY-NC-SA
exact mass=87.1048
ionization energy=70 eV
ion type=[M]+*
computed spectral entropy=2.0815433771901937
computed normalized entropy=0.6948362494091477
SPLASH=splash10-0a59-9000000000-b415a090d5bc0380d21d
submitter=submitter = University of Tokyo Team (Faculty of Engineering, University of Tokyo)
MoNA Rating=3.75

>  <NUM PEAKS>  (4832) 
20

>  <MASS SPECTRAL PEAKS>  (4832) 
15 2.46
26 1.15
27 9.74
28 10.1
29 6.97
30 59.18
39 3.23
41 7.17
42 4.52
43 6.22
44 9.33
56 3.18
57 1.06
58 99.99
59 3.63
70 1.37
72 7.58
86 4.06
87 14.84
88 1.02

>  <PREDICTED SPECTRUM>  (4832) 
14 15
15 86
18 2
26 67
27 241
28 145
29 387
30 555
31 72
32 26
39 113
40 55
41 145
42 195
43 140
44 262
45 121
54 9
56 186
57 76
58 999
59 234
72 270
73 11
86 145
87 234
88 73

$$$$

     RDKit          2D

  5  4  0  0  0  0  0  0  0  0999 V2000
   -3.8971    2.2500    0.0000 C   0  0  0  0  0  0  0  0  0  0  0  0
    1.2990    2.2500    0.0000 C   0  0  0  0  0  0  0  0  0  0  0  0
   -2.5981    1.5000    0.0000 C   0  0  0  0  0  0  0  0  0  0  0  0
    0.0000    1.5000    0.0000 C   0  0  0  0  0  0  0  0  0  0  0  0
   -1.2990    2.2500    0.0000 N   0  0  0  0  0  0  0  0  0  0  0  0
  3  1  1  0
  4  2  1  0
  5  3  1  0
  5  4  1  0
M  END
>  <NAME>  (4833) 
DIETHYLAMINE

>  <SYNONYMS>  (4833) 


>  <SPECTRUM TYPE>  (4833) 
MS1

>  <INSTRUMENT TYPE>  (4833) 
EI-B

>  <INSTRUMENT>  (4833) 
HITACHI RMU-6M

>  <ION MODE>  (4833) 
P

>  <INCHIKEY>  (4833) 
HPNMFZURTQLUMO-UHFFFAOYSA-N

>  <FORMULA>  (4833) 
C4H11N

>  <EXACT MASS>  (4833) 
73.08914935199999

>  <MW>  (4833) 
73

>  <ID>  (4833) 
JP002560

>  <CONTRIBUTOR>  (4833) 
University of Tokyo Team, {Faculty of Engineering, University of Tokyo

>  <COMMENT>  (4833) 
SMILES=CCNCC
InChI=InChI=1S/C4H11N/c1-3-5-4-2/h5H,3-4H2,1-2H3
computed SMILES=N(CC)CC
license=CC BY-NC-SA
accession=JP002560
date=2016.01.19 (Created 2008.10.21, modified 2011.05.06)
author=YAMAMOTO M, DEP. CHEMISTRY, FAC. SCIENCE, NARA WOMEN'S UNIV.
exact mass=73.08915
ionization energy=70 eV
ion type=[M]+*
computed spectral entropy=2.1663984701258268
computed normalized entropy=0.735759336652691
SPLASH=splash10-0a59-9000000000-52bf754cf3d4f70f7ad9
submitter=submitter = University of Tokyo Team (Faculty of Engineering, University of Tokyo)
MoNA Rating=3.75

>  <NUM PEAKS>  (4833) 
19

>  <MASS SPECTRAL PEAKS>  (4833) 
15 5.47
26 2.62
27 14.96
28 16.57
29 14.91
30 82.54
31 1.09
40 1.45
41 3.4
42 9.74
43 2.82
44 28.74
56 3.54
57 1.41
58 99.99
59 3.54
72 16.66
73 28.76
74 1.45

>  <PREDICTED SPECTRUM>  (4833) 
14 55
15 200
16 23
17 18
18 58
25 19
26 136
27 488
28 468
29 523
30 749
31 153
32 24
40 106
41 260
42 440
43 211
44 573
45 219
46 4
54 0
56 348
57 204
58 999
59 228
60 20
72 348
73 333
74 93

$$$$

     RDKit          2D

  8  7  0  0  0  0  0  0  0  0999 V2000
    1.9486    3.3750    0.0000 C   0  0  0  0  0  0  0  0  0  0  0  0
   -5.8457    3.3750    0.0000 C   0  0  0  0  0  0  0  0  0  0  0  0
    0.6495    4.1250    0.0000 C   0  0  0  0  0  0  0  0  0  0  0  0
   -4.5466    4.1250    0.0000 C   0  0  0  0  0  0  0  0  0  0  0  0
   -0.6495    3.3750    0.0000 C   0  0  0  0  0  0  0  0  0  0  0  0
   -1.9486    4.1250    0.0000 C   0  0  0  0  0  0  0  0  0  0  0  0
   -1.9486    5.6250    0.0000 O   0  0  0  0  0  0  0  0  0  0  0  0
   -3.2476    3.3750    0.0000 O   0  0  0  0  0  0  0  0  0  0  0  0
  3  1  1  0
  4  2  2  0
  5  3  1  0
  6  5  1  0
  7  6  2  0
  8  4  1  0
  8  6  1  0
M  END
>  <NAME>  (4834) 
VINYL BUTYRATE

>  <SYNONYMS>  (4834) 


>  <SPECTRUM TYPE>  (4834) 
MS1

>  <INSTRUMENT TYPE>  (4834) 
EI-B

>  <INSTRUMENT>  (4834) 
HITACHI RMU-6M

>  <ION MODE>  (4834) 
P

>  <INCHIKEY>  (4834) 
MEGHWIAOTJPCHQ-UHFFFAOYSA-N

>  <FORMULA>  (4834) 
C6H10O2

>  <EXACT MASS>  (4834) 
114.06807956

>  <MW>  (4834) 
114

>  <ID>  (4834) 
JP002551

>  <CONTRIBUTOR>  (4834) 
University of Tokyo Team, {Faculty of Engineering, University of Tokyo

>  <COMMENT>  (4834) 
SMILES=CCCC(=O)OC=C
InChI=InChI=1S/C6H10O2/c1-3-5-6(7)8-4-2/h4H,2-3,5H2,1H3
computed SMILES=O=C(OC=C)CCC
accession=JP002551
exact mass=114.06808
date=2016.01.19 (Created 2008.10.21, modified 2011.05.06)
author=YAMAMOTO M, DEP. CHEMISTRY, FAC. SCIENCE, NARA WOMEN'S UNIV.
license=CC BY-NC-SA
ionization energy=70 eV
ion type=[M]+*
computed spectral entropy=2.0443241625869097
computed normalized entropy=0.6824121703511319
SPLASH=splash10-0006-9000000000-a3de6eaf8ffafcf555a1
submitter=submitter = University of Tokyo Team (Faculty of Engineering, University of Tokyo)
MoNA Rating=3.75

>  <NUM PEAKS>  (4834) 
20

>  <MASS SPECTRAL PEAKS>  (4834) 
14 1.56
15 6.04
26 2.94
27 27
28 2.57
29 3.45
39 7.98
40 1.28
41 27.59
42 6.21
43 99.99
44 6.78
45 1.09
55 3.72
57 6.92
60 1.01
71 62.71
72 2.69
99 1.01
114 4.12

>  <PREDICTED SPECTRUM>  (4834) 
14 48
15 103
16 11
25 16
26 114
27 375
28 149
29 254
31 94
32 4
37 45
38 99
39 375
40 129
41 513
42 216
43 999
44 218
45 131
46 15
51 34
52 18
53 72
54 15
55 173
57 21
67 65
69 106
70 82
71 840
72 175
85 3
86 14
87 23
114 248
115 67

$$$$

     RDKit          2D

  7  6  0  0  0  0  0  0  0  0999 V2000
    1.9486    2.6250    0.0000 C   0  0  0  0  0  0  0  0  0  0  0  0
   -4.5466    3.3750    0.0000 C   0  0  0  0  0  0  0  0  0  0  0  0
    0.6495    3.3750    0.0000 C   0  0  0  0  0  0  0  0  0  0  0  0
   -3.2476    2.6250    0.0000 C   0  0  0  0  0  0  0  0  0  0  0  0
   -0.6495    2.6250    0.0000 C   0  0  0  0  0  0  0  0  0  0  0  0
   -0.6495    1.1250    0.0000 O   0  0  0  0  0  0  0  0  0  0  0  0
   -1.9486    3.3750    0.0000 O   0  0  0  0  0  0  0  0  0  0  0  0
  3  1  1  0
  4  2  2  0
  5  3  1  0
  6  5  2  0
  7  4  1  0
  7  5  1  0
M  END
>  <NAME>  (4835) 
VINYL PROPIONATE

>  <SYNONYMS>  (4835) 


>  <SPECTRUM TYPE>  (4835) 
MS1

>  <INSTRUMENT TYPE>  (4835) 
EI-B

>  <INSTRUMENT>  (4835) 
HITACHI RMU-6M

>  <ION MODE>  (4835) 
P

>  <INCHIKEY>  (4835) 
UIWXSTHGICQLQT-UHFFFAOYSA-N

>  <FORMULA>  (4835) 
C5H8O2

>  <EXACT MASS>  (4835) 
100.052429496

>  <MW>  (4835) 
100

>  <ID>  (4835) 
JP002540

>  <CONTRIBUTOR>  (4835) 
University of Tokyo Team, {Faculty of Engineering, University of Tokyo

>  <COMMENT>  (4835) 
SMILES=C=COC(=O)CC
InChI=InChI=1S/C5H8O2/c1-3-5(6)7-4-2/h4H,2-3H2,1H3
computed SMILES=O=C(OC=C)CC
accession=JP002540
date=2016.01.19 (Created 2008.10.21, modified 2011.05.06)
author=YAMAMOTO M, DEP. CHEMISTRY, FAC. SCIENCE, NARA WOMEN'S UNIV.
license=CC BY-NC-SA
exact mass=100.05243
ionization energy=70 eV
ion type=[M]+*
computed spectral entropy=1.8501965835237195
computed normalized entropy=0.6832209324519415
SPLASH=splash10-056r-9000000000-1b7ab4bbe884f68d4876
submitter=submitter = University of Tokyo Team (Faculty of Engineering, University of Tokyo)
MoNA Rating=3.75

>  <NUM PEAKS>  (4835) 
15

>  <MASS SPECTRAL PEAKS>  (4835) 
14 2.06
15 6
26 6.06
27 27.83
28 8.2
29 99.99
30 2.14
42 4.45
43 12.97
44 12.46
55 1.66
56 2.51
57 93.08
58 3.38
100 8.43

>  <PREDICTED SPECTRUM>  (4835) 
14 43
15 72
16 16
18 3
25 28
26 145
27 399
28 213
29 575
30 98
31 150
37 10
38 22
39 166
40 39
41 367
42 125
43 320
44 79
45 87
54 10
55 149
56 216
57 999
58 142
59 8
71 128
72 37
73 53
85 32
99 13
100 210
101 66

$$$$

     RDKit          2D

 11 11  0  0  0  0  0  0  0  0999 V2000
   -4.5648    2.6125    0.0000 C   0  0  0  0  0  0  0  0  0  0  0  0
    1.9623   -2.6414    0.0000 C   0  0  0  0  0  0  0  0  0  0  0  0
   -1.9705    2.6061    0.0000 C   0  0  0  0  0  0  0  0  0  0  0  0
   -3.2840    0.3812    0.0000 C   0  0  0  0  0  0  0  0  0  0  0  0
   -0.6859    1.8812    0.0000 C   0  0  0  0  0  0  0  0  0  0  0  0
   -1.9595   -0.4129    0.0000 C   0  0  0  0  0  0  0  0  0  0  0  0
   -3.2695    1.8561    0.0000 C   0  0  0  0  0  0  0  0  0  0  0  0
    0.6571   -1.9021    0.0000 C   0  0  0  0  0  0  0  0  0  0  0  0
   -0.6605    0.3371    0.0000 C   0  0  0  0  0  0  0  0  0  0  0  0
   -0.6357   -2.6628    0.0000 O   0  0  0  0  0  0  0  0  0  0  0  0
    0.6447   -0.4022    0.0000 O   0  0  0  0  0  0  0  0  0  0  0  0
  5  3  2  0
  6  4  1  0
  7  1  1  0
  7  3  1  0
  7  4  2  0
  8  2  1  0
  9  5  1  0
  9  6  2  0
 10  8  2  0
 11  8  1  0
 11  9  1  0
M  END
>  <NAME>  (4836) 
PARA-CRESOL ACETATE

>  <SYNONYMS>  (4836) 
PARA-TOLYL ACETATE

>  <SPECTRUM TYPE>  (4836) 
MS1

>  <INSTRUMENT TYPE>  (4836) 
EI-B

>  <INSTRUMENT>  (4836) 
HITACHI RMU-6M

>  <ION MODE>  (4836) 
P

>  <INCHIKEY>  (4836) 
CDJJKTLOZJAGIZ-UHFFFAOYSA-N

>  <FORMULA>  (4836) 
C9H10O2

>  <EXACT MASS>  (4836) 
150.06807956

>  <MW>  (4836) 
150

>  <ID>  (4836) 
JP002532

>  <CONTRIBUTOR>  (4836) 
University of Tokyo Team, {Faculty of Engineering, University of Tokyo

>  <COMMENT>  (4836) 
SMILES=CC(=O)Oc(c1)ccc(C)c1
InChI=InChI=1S/C9H10O2/c1-7-3-5-9(6-4-7)11-8(2)10/h3-6H,1-2H3
computed SMILES=O=C(OC1=CC=C(C=C1)C)C
accession=JP002532
date=2016.01.19 (Created 2008.10.21, modified 2011.05.06)
author=YAMAMOTO M, DEP. CHEMISTRY, FAC. SCIENCE, NARA WOMEN'S UNIV.
license=CC BY-NC-SA
exact mass=150.06808
ionization energy=70 eV
ion type=[M]+*
computed spectral entropy=2.2514265362524974
computed normalized entropy=0.7084293270155221
SPLASH=splash10-0a4i-4900000000-84f9b68467e23b1b2be6
submitter=submitter = University of Tokyo Team (Faculty of Engineering, University of Tokyo)
MoNA Rating=3.75

>  <NUM PEAKS>  (4836) 
24

>  <MASS SPECTRAL PEAKS>  (4836) 
15 4.49
27 4.43
28 2.6
38 1.07
39 4.66
43 19.25
50 2.72
51 5.49
52 3.62
53 3.3
63 2.11
65 1.83
77 9.77
78 3.32
79 6.27
80 3.86
90 4.46
91 2.64
106 1.13
107 38.37
108 99.99
109 8.1
150 11.39
151 1.27

>  <PREDICTED SPECTRUM>  (4836) 
14 30
15 91
25 13
26 84
27 158
28 80
29 11
37 54
38 132
39 314
40 119
41 235
42 126
43 459
44 98
50 158
51 247
52 202
53 200
54 68
55 78
60 59
61 34
62 79
63 149
64 83
65 211
66 109
67 50
74 86
75 65
76 32
77 380
78 221
79 267
80 183
81 43
89 97
90 126
91 237
92 81
93 102
96 29
105 63
106 65
107 775
108 999
109 292
110 21
150 414
151 111
152 26

$$$$

     RDKit          2D

 11 11  0  0  0  0  0  0  0  0999 V2000
    3.8910    2.2482    0.0000 C   0  0  0  0  0  0  0  0  0  0  0  0
   -3.9051    2.2411    0.0000 C   0  0  0  0  0  0  0  0  0  0  0  0
    1.2969   -0.7445    0.0000 C   0  0  0  0  0  0  0  0  0  0  0  0
    2.5914   -0.0024    0.0000 C   0  0  0  0  0  0  0  0  0  0  0  0
   -0.0022    0.0055    0.0000 C   0  0  0  0  0  0  0  0  0  0  0  0
    1.2928    2.2485    0.0000 C   0  0  0  0  0  0  0  0  0  0  0  0
    2.5919    1.4985    0.0000 C   0  0  0  0  0  0  0  0  0  0  0  0
   -2.6048    1.4933    0.0000 C   0  0  0  0  0  0  0  0  0  0  0  0
   -0.0067    1.4976    0.0000 C   0  0  0  0  0  0  0  0  0  0  0  0
   -2.6023   -0.0067    0.0000 O   0  0  0  0  0  0  0  0  0  0  0  0
   -1.3070    2.2454    0.0000 O   0  0  0  0  0  0  0  0  0  0  0  0
  4  3  2  0
  5  3  1  0
  7  1  1  0
  7  4  1  0
  7  6  2  0
  8  2  1  0
  9  5  2  0
  9  6  1  0
 10  8  2  0
 11  8  1  0
 11  9  1  0
M  END
>  <NAME>  (4837) 
META-CRESOL ACETATE

>  <SYNONYMS>  (4837) 
META-TOLYL ACETATE

>  <SPECTRUM TYPE>  (4837) 
MS1

>  <INSTRUMENT TYPE>  (4837) 
EI-B

>  <INSTRUMENT>  (4837) 
HITACHI RMU-6M

>  <ION MODE>  (4837) 
P

>  <INCHIKEY>  (4837) 
OTGAHJPFNKQGAE-UHFFFAOYSA-N

>  <FORMULA>  (4837) 
C9H10O2

>  <EXACT MASS>  (4837) 
150.06807956

>  <MW>  (4837) 
150

>  <ID>  (4837) 
JP002531

>  <CONTRIBUTOR>  (4837) 
University of Tokyo Team, {Faculty of Engineering, University of Tokyo

>  <COMMENT>  (4837) 
SMILES=CC(=O)Oc(c1)cc(C)cc1
InChI=InChI=1S/C9H10O2/c1-7-4-3-5-9(6-7)11-8(2)10/h3-6H,1-2H3
computed SMILES=O=C(OC1=CC=CC(=C1)C)C
accession=JP002531
date=2016.01.19 (Created 2008.10.21, modified 2011.05.06)
author=YAMAMOTO M, DEP. CHEMISTRY, FAC. SCIENCE, NARA WOMEN'S UNIV.
license=CC BY-NC-SA
exact mass=150.06808
ionization energy=70 eV
ion type=[M]+*
computed spectral entropy=2.297676379553923
computed normalized entropy=0.7229822093046059
SPLASH=splash10-0a4i-5900000000-d82c9754fc9037b9fbd2
submitter=submitter = University of Tokyo Team (Faculty of Engineering, University of Tokyo)
MoNA Rating=3.75

>  <NUM PEAKS>  (4837) 
24

>  <MASS SPECTRAL PEAKS>  (4837) 
15 5.17
27 3.67
28 2.6
38 1.67
39 6.81
43 22.75
50 2.42
51 5.05
52 2.92
53 3.26
63 2.34
65 2.06
77 9.07
78 3.1
79 8.08
80 4.01
90 4.47
91 3.1
106 1.04
107 29.02
108 99.99
109 7.8
150 15.23
151 1.57

>  <PREDICTED SPECTRUM>  (4837) 
14 43
15 127
25 9
26 70
27 131
28 76
29 23
37 42
38 128
39 298
40 115
41 181
42 106
43 504
44 72
50 153
51 253
52 216
53 205
54 55
55 47
60 9
62 65
63 131
64 80
65 167
66 76
67 36
74 61
75 16
76 35
77 383
78 206
79 277
80 181
81 8
89 65
90 120
91 212
92 55
93 5
106 19
107 765
108 999
109 286
150 449
151 120
152 39

$$$$

     RDKit          2D

 22 21  0  0  0  0  0  0  0  0999 V2000
  -10.3923    4.5000    0.0000 C   0  0  0  0  0  0  0  0  0  0  0  0
   10.3923   13.5000    0.0000 C   0  0  0  0  0  0  0  0  0  0  0  0
   -9.0933    5.2500    0.0000 C   0  0  0  0  0  0  0  0  0  0  0  0
    9.0933   14.2500    0.0000 C   0  0  0  0  0  0  0  0  0  0  0  0
   -9.0933    6.7500    0.0000 C   0  0  0  0  0  0  0  0  0  0  0  0
   -7.7942    7.5000    0.0000 C   0  0  0  0  0  0  0  0  0  0  0  0
   -7.7942    9.0000    0.0000 C   0  0  0  0  0  0  0  0  0  0  0  0
   -6.4952    9.7500    0.0000 C   0  0  0  0  0  0  0  0  0  0  0  0
   -6.4952   11.2500    0.0000 C   0  0  0  0  0  0  0  0  0  0  0  0
   -5.1962   12.0000    0.0000 C   0  0  0  0  0  0  0  0  0  0  0  0
   -5.1962   13.5000    0.0000 C   0  0  0  0  0  0  0  0  0  0  0  0
   -3.8971   14.2500    0.0000 C   0  0  0  0  0  0  0  0  0  0  0  0
   -2.5981   13.5000    0.0000 C   0  0  0  0  0  0  0  0  0  0  0  0
   -1.2990   14.2500    0.0000 C   0  0  0  0  0  0  0  0  0  0  0  0
    0.0000   13.5000    0.0000 C   0  0  0  0  0  0  0  0  0  0  0  0
    1.2990   14.2500    0.0000 C   0  0  0  0  0  0  0  0  0  0  0  0
    2.5981   13.5000    0.0000 C   0  0  0  0  0  0  0  0  0  0  0  0
    3.8971   14.2500    0.0000 C   0  0  0  0  0  0  0  0  0  0  0  0
    5.1962   13.5000    0.0000 C   0  0  0  0  0  0  0  0  0  0  0  0
    6.4952   14.2500    0.0000 C   0  0  0  0  0  0  0  0  0  0  0  0
    6.4952   15.7500    0.0000 O   0  0  0  0  0  0  0  0  0  0  0  0
    7.7942   13.5000    0.0000 O   0  0  0  0  0  0  0  0  0  0  0  0
  3  1  1  0
  4  2  1  0
  5  3  1  0
  6  5  1  0
  7  6  1  0
  8  7  1  0
  9  8  1  0
 10  9  1  0
 11 10  1  0
 11 12  2  0
 13 12  1  0
 14 13  1  0
 15 14  1  0
 16 15  1  0
 17 16  1  0
 18 17  1  0
 19 18  1  0
 20 19  1  0
 21 20  2  0
 22  4  1  0
 22 20  1  0
M  END
>  <NAME>  (4838) 
OLEYL ACETATE

>  <SYNONYMS>  (4838) 
CIS-9-OCTADECENYL ACETATE

>  <SPECTRUM TYPE>  (4838) 
MS1

>  <INSTRUMENT TYPE>  (4838) 
EI-B

>  <INSTRUMENT>  (4838) 
HITACHI RMU-6M

>  <ION MODE>  (4838) 
P

>  <INCHIKEY>  (4838) 
LVGKNOAMLMIIKO-QXMHVHEDSA-N

>  <FORMULA>  (4838) 
C20H38O2

>  <EXACT MASS>  (4838) 
310.287180456

>  <MW>  (4838) 
310

>  <ID>  (4838) 
JP002528

>  <CONTRIBUTOR>  (4838) 
University of Tokyo Team, {Faculty of Engineering, University of Tokyo

>  <COMMENT>  (4838) 
SMILES=CCCCCCCCC=CCCCCCCCC(=O)OCC
InChI=InChI=1S/C20H38O2/c1-3-5-6-7-8-9-10-11-12-13-14-15-16-17-18-19-20(21)22-4-2/h11-12H,3-10,13-19H2,1-2H3/b12-11-
computed SMILES=O=C(OCC)CCCCCCCC=CCCCCCCCC
accession=JP002528
date=2016.01.19 (Created 2008.10.21, modified 2011.05.06)
author=YAMAMOTO M, DEP. CHEMISTRY, FAC. SCIENCE, NARA WOMEN'S UNIV.
license=CC BY-NC-SA
exact mass=310.28718
ionization energy=70 eV
ion type=[M]+*
computed spectral entropy=3.6026485115682605
computed normalized entropy=0.819817998744555
SPLASH=splash10-05o4-9100000000-a451572fc0202f2eb2cd
submitter=submitter = University of Tokyo Team (Faculty of Engineering, University of Tokyo)
MoNA Rating=3.75

>  <NUM PEAKS>  (4838) 
81

>  <MASS SPECTRAL PEAKS>  (4838) 
15 3.83
27 11.18
28 2.78
29 29
31 1.34
39 8.96
40 2.19
41 74.93
42 14.29
43 92.8
44 2.98
53 7.29
54 45.15
55 99.99
56 25.41
57 34.69
58 1.57
61 21.17
65 1.67
66 6.4
67 64.93
68 47.22
69 62.18
70 17.19
71 11.62
73 2.96
77 2.02
79 7.23
80 7.14
81 57.54
82 91.28
83 50.56
84 10.52
85 5.54
91 1.96
93 2.75
94 3.64
95 47.23
96 71.72
97 32.48
98 6.12
99 1.35
105 1.07
107 1.21
108 2
109 30.4
110 33.04
111 13.39
112 3.44
116 1.02
121 1.27
122 1.63
123 15.29
124 20.18
125 6.25
126 2.42
137 9.15
138 12.14
139 2.87
140 1.73
151 3.9
152 6.5
153 1.67
154 1.19
165 2.25
166 4.39
167 1.5
168 1.52
179 1.6
180 2.83
193 1.59
194 3.1
196 1.54
208 1.86
222 5.75
223 1.19
224 2.21
236 1.34
250 19.07
251 4.02
310 0.5

>  <PREDICTED SPECTRUM>  (4838) 
17 8
18 4
26 33
27 159
28 89
29 339
30 71
31 16
32 13
39 184
40 94
41 613
42 273
43 550
44 147
45 187
46 13
47 21
49 1
50 40
51 124
52 138
53 333
54 490
55 999
56 479
57 574
58 143
59 184
60 320
61 360
62 74
63 61
64 19
65 179
66 201
67 672
68 519
69 843
70 572
71 430
72 66
73 317
74 74
75 37
76 23
77 224
78 123
79 390
80 307
81 595
82 550
83 764
84 572
85 241
86 117
87 192
88 742
89 292
90 60
91 200
92 114
93 262
94 275
95 549
96 606
97 685
98 587
99 225
100 88
101 665
102 197
103 60
104 16
105 133
106 107
107 205
108 210
109 506
110 511
111 519
112 245
113 131
114 142
115 254
116 141
117 85
119 139
120 57
121 295
122 218
123 433
124 369
125 438
126 235
127 208
128 166
129 237
130 58
131 34
133 132
134 142
135 303
136 221
137 387
138 424
139 277
140 154
141 159
142 149
143 220
144 153
147 151
148 158
149 229
150 138
151 320
152 345
153 212
154 128
155 203
156 90
157 184
158 38
159 25
161 146
162 92
163 211
164 161
165 211
166 353
167 208
168 91
169 137
170 13
171 149
172 34
173 5
174 15
175 149
176 93
177 159
178 156
179 226
180 247
181 190
182 94
183 249
184 19
185 165
186 99
187 33
189 84
190 18
191 102
192 62
193 149
194 164
195 48
197 42
199 85
200 38
202 8
203 59
204 48
205 101
206 133
207 150
208 145
209 37
210 20
213 60
214 9
217 55
218 71
220 160
221 197
222 351
223 174
224 81
225 48
227 27
228 73
231 33
234 23
235 131
236 120
237 12
239 65
245 19
246 125
247 154
248 54
249 82
250 15
253 53
254 24
255 76
262 25
263 117
264 481
265 404
266 144
267 131
268 12
280 1
281 54
282 3
292 37
308 23
309 57
310 355
311 151
312 31

$$$$

     RDKit          2D

 24 25  0  0  0  0  0  0  0  0999 V2000
    2.5990   -3.7500    0.0000 C   0  0  0  0  0  0  0  0  0  0  0  0
    0.0010   -3.7500    0.0000 C   0  0  0  0  0  0  0  0  0  0  0  0
   -4.4483    0.5487    0.0000 C   0  0  0  0  0  0  0  0  0  0  0  0
   -6.4972   -0.0006    0.0000 C   0  0  0  0  0  0  0  0  0  0  0  0
   -5.9479   -2.0496    0.0000 C   0  0  0  0  0  0  0  0  0  0  0  0
    3.4810    0.9116    0.0000 C   0  0  0  0  0  0  0  0  0  0  0  0
    5.2185    2.1285    0.0000 C   0  0  0  0  0  0  0  0  0  0  0  0
    4.0016    3.8661    0.0000 C   0  0  0  0  0  0  0  0  0  0  0  0
   -2.6000    0.7500    0.0000 C   0  0  0  0  0  0  0  0  0  0  0  0
   -1.3000    1.5000    0.0000 C   0  0  0  0  0  0  0  0  0  0  0  0
    2.6000   -0.7500    0.0000 C   0  0  0  0  0  0  0  0  0  0  0  0
    2.6000    0.7500    0.0000 C   0  0  0  0  0  0  0  0  0  0  0  0
   -1.3000   -1.5000    0.0000 C   0  0  0  0  0  0  0  0  0  0  0  0
   -3.8989   -1.5002    0.0000 C   0  0  0  0  0  0  0  0  0  0  0  0
    2.2641    2.6492    0.0000 C   0  0  0  0  0  0  0  0  0  0  0  0
    1.3000   -3.0000    0.0000 C   0  0  0  0  0  0  0  0  0  0  0  0
   -2.6000   -0.7500    0.0000 C   0  0  0  0  0  0  0  0  0  0  0  0
    1.3000   -1.5000    0.0000 C   0  0  0  0  0  0  0  0  0  0  0  0
    0.0000   -0.7500    0.0000 C   0  0  0  0  0  0  0  0  0  0  0  0
    0.0000    0.7500    0.0000 C   0  0  0  0  0  0  0  0  0  0  0  0
    1.3000    1.5000    0.0000 C   0  0  0  0  0  0  0  0  0  0  0  0
    0.3359    2.6492    0.0000 O   0  0  0  0  0  0  0  0  0  0  0  0
   -5.1981   -0.7504    0.0000 Si  0  0  0  0  0  4  0  0  0  0  0  0
    3.7413    2.3889    0.0000 Si  0  0  0  0  0  4  0  0  0  0  0  0
 10  9  1  0
 12 11  1  0
 16  1  1  0
 16  2  1  0
 17  9  2  0
 17 13  1  0
 17 14  1  0
 18 11  1  0
 18 16  1  0
 19 13  1  0
 19 18  1  0
 20 10  1  0
 20 19  1  0
 21 12  1  0
 21 15  1  0
 21 20  1  0
 22 21  1  0
 23  3  1  0
 23  4  1  0
 23  5  1  0
 23 14  1  0
 24  6  1  0
 24  7  1  0
 24  8  1  0
 24 15  1  0
M  END
>  <NAME>  (4839) 
2,5-BIS(TRIMETHYLSILYLMETHYL)-5-HYDROXY-8-ISOPROPYL-1,4,4A,5,6,7,8,8A-OCTAHYDRONAPHTHALENE

>  <SYNONYMS>  (4839) 


>  <SPECTRUM TYPE>  (4839) 
MS1

>  <INSTRUMENT TYPE>  (4839) 
EI-B

>  <INSTRUMENT>  (4839) 
JEOL JMS-D-3000

>  <ION MODE>  (4839) 
P

>  <INCHIKEY>  (4839) 
QETFXHFDVNOOAZ-UHFFFAOYSA-N

>  <FORMULA>  (4839) 
C21H42OSi2

>  <EXACT MASS>  (4839) 
366.277419024

>  <MW>  (4839) 
366

>  <ID>  (4839) 
JP002516

>  <CONTRIBUTOR>  (4839) 
University of Tokyo Team, {Faculty of Engineering, University of Tokyo

>  <COMMENT>  (4839) 
SMILES=CC(C)C(C1)C(C2)C(CC=C(C[Si](C)(C)C)2)C(O)(C1)C[Si](C)(C)C
InChI=InChI=1S/C21H42OSi2/c1-16(2)18-11-12-21(22,15-24(6,7)8)20-10-9-17(13-19(18)20)14-23(3,4)5/h9,16,18-20,22H,10-15H2,1-8H3
computed SMILES=OC1(CCC(C(C)C)C2CC(=CCC21)C[Si](C)(C)C)C[Si](C)(C)C
accession=JP002516
date=2016.01.19 (Created 2008.10.21, modified 2011.05.06)
author=MASS SPECTROSCOPY SOC. OF JAPAN (MSSJ)
license=CC BY-NC-SA
exact mass=366.27742
ionization energy=70 eV
ion type=[M]+*
computed spectral entropy=2.2541002997569057
computed normalized entropy=0.669409643098082
SPLASH=splash10-00di-9121000000-7f41fc2d0ac8dfd702ce
submitter=submitter = University of Tokyo Team (Faculty of Engineering, University of Tokyo)
MoNA Rating=3.75

>  <NUM PEAKS>  (4839) 
29

>  <MASS SPECTRAL PEAKS>  (4839) 
45 5.04
59 6.01
73 99.99
74 8.82
75 4.89
91 1.58
149 4.56
157 2.32
164 1.21
165 6.03
166 1.91
175 2.78
177 2.51
191 2.21
204 1.46
208 6.95
209 1.66
217 4.74
218 1.19
231 2.24
259 1.3
261 2.79
274 5.12
275 1.6
305 1.49
333 3.12
348 11.42
349 3.79
350 1.34

>  <PREDICTED SPECTRUM>  (4839) 
45 153
55 42
59 142
69 16
71 45
73 999
74 271
75 257
81 23
85 20
91 66
92 3
99 77
105 32
121 23
149 56
151 64
155 5
165 9
175 15
177 26
189 5
191 26
193 99
197 2
203 15
217 109
219 64
261 124
285 13
299 23
348 308
349 27
351 1
367 34

$$$$

     RDKit          2D

 17 12  0  0  0  0  0  0  0  0999 V2000
   -2.5981    2.2500    0.0000 C   0  0  0  0  0  3  0  0  0  0  0  0
    1.2990    1.5000    0.0000 C   0  0  0  0  0  0  0  0  0  0  0  0
   -1.2990    1.5000    0.0000 C   0  0  0  0  0  0  0  0  0  0  0  0
    0.0000    2.2500    0.0000 C   0  0  0  0  0  0  0  0  0  0  0  0
   -2.5981    2.2500    0.0000 C   0  0  0  0  0  3  0  0  0  0  0  0
    1.2990    1.5000    0.0000 C   0  0  0  0  0  0  0  0  0  0  0  0
   -1.2990    1.5000    0.0000 C   0  0  0  0  0  0  0  0  0  0  0  0
    0.0000    2.2500    0.0000 C   0  0  0  0  0  0  0  0  0  0  0  0
   -2.5981    2.2500    0.0000 C   0  0  0  0  0  3  0  0  0  0  0  0
    1.2990    1.5000    0.0000 C   0  0  0  0  0  0  0  0  0  0  0  0
   -1.2990    1.5000    0.0000 C   0  0  0  0  0  0  0  0  0  0  0  0
    0.0000    2.2500    0.0000 C   0  0  0  0  0  0  0  0  0  0  0  0
   -2.5981    2.2500    0.0000 C   0  0  0  0  0  3  0  0  0  0  0  0
    1.2990    1.5000    0.0000 C   0  0  0  0  0  0  0  0  0  0  0  0
   -1.2990    1.5000    0.0000 C   0  0  0  0  0  0  0  0  0  0  0  0
    0.0000    2.2500    0.0000 C   0  0  0  0  0  0  0  0  0  0  0  0
    0.0000    0.0000    0.0000 Sn  0  0  0  0  0 15  0  0  0  0  0  0
  3  1  1  0
  4  2  1  0
  4  3  1  0
  7  5  1  0
  8  6  1  0
  8  7  1  0
 11  9  1  0
 12 10  1  0
 12 11  1  0
 15 13  1  0
 16 14  1  0
 16 15  1  0
M  RAD  4   1   2   5   2   9   2  13   2
M  END
>  <NAME>  (4840) 
TETRA-N-BUTYLSTANNANE

>  <SYNONYMS>  (4840) 


>  <SPECTRUM TYPE>  (4840) 
MS1

>  <INSTRUMENT TYPE>  (4840) 
EI-B

>  <INSTRUMENT>  (4840) 
JEOL JMS-D-3000

>  <ION MODE>  (4840) 
P

>  <INCHIKEY>  (4840) 
AFCAKJKUYFLYFK-UHFFFAOYSA-N

>  <FORMULA>  (4840) 
C16H36Sn

>  <EXACT MASS>  (4840) 
348.183895852

>  <MW>  (4840) 
348

>  <ID>  (4840) 
JP002515

>  <CONTRIBUTOR>  (4840) 
University of Tokyo Team, {Faculty of Engineering, University of Tokyo

>  <COMMENT>  (4840) 
SMILES=CCCC[Sn](CCCC)(CCCC)CCCC
InChI=InChI=1S/4C4H9.Sn/c4*1-3-4-2;/h4*1,3-4H2,2H3;
computed SMILES=[Sn].[CH2]CCC.[CH2]CCC.[CH2]CCC.[CH2]CCC
accession=JP002515
date=2016.01.19 (Created 2008.10.21, modified 2011.05.06)
author=MASS SPECTROSCOPY SOC. OF JAPAN (MSSJ)
license=CC BY-NC-SA
exact mass=348.1839
ionization energy=70 eV
ion type=[M]+*
computed spectral entropy=3.3656539398891465
computed normalized entropy=0.8517960874095312
SPLASH=splash10-004i-0980000000-e4737eb9ff0e17e28947
submitter=submitter = University of Tokyo Team (Faculty of Engineering, University of Tokyo)
MoNA Rating=3.75

>  <NUM PEAKS>  (4840) 
52

>  <MASS SPECTRAL PEAKS>  (4840) 
43 1.63
44 3.28
55 2.51
56 3.95
57 5.11
78 2.31
116 3.06
117 12.33
118 9.98
119 24.04
120 14.85
121 31.94
122 3.57
123 13.78
125 5.81
127 1.92
133 1.71
135 2.57
145 1.9
147 2.93
149 3.1
171 3.8
173 9.72
174 6.16
175 57.58
176 31.28
177 89.13
178 31.6
179 99.99
180 4.94
181 17.22
183 17.17
227 2.45
229 1.91
230 1.66
231 36.37
232 22.57
233 61.41
234 26.86
235 79.51
236 7.46
237 11.73
239 13.89
283 1.89
287 28.64
288 18.97
289 47.68
290 22.31
291 62.42
292 8.41
293 9.56
295 10.94

>  <PREDICTED SPECTRUM>  (4840) 
25 28
26 95
27 319
28 66
29 217
38 31
39 351
40 138
41 449
42 288
43 301
44 56
45 44
50 0
51 119
52 97
53 231
54 65
55 356
56 64
57 107
58 91
63 40
65 185
66 118
67 337
68 123
69 114
70 64
71 286
72 22
75 62
77 218
78 132
79 118
80 13
81 98
83 179
84 32
85 202
89 270
90 114
91 398
92 27
93 124
94 67
95 181
96 68
97 167
98 43
99 127
101 113
103 134
104 241
105 430
107 193
108 37
109 272
110 63
111 119
112 55
113 52
115 176
116 78
118 14
119 265
120 243
121 153
123 88
124 7
125 111
127 132
129 54
131 103
133 118
135 339
136 243
137 411
138 44
139 110
140 18
141 152
143 62
149 46
151 28
153 94
157 54
163 58
164 12
171 5
175 180
177 103
178 28
179 578
180 119
181 188
193 89
194 61
195 55
197 47
207 140
209 20
219 200
220 219
221 877
222 267
223 311
224 118
225 115
235 301
236 122
237 85
247 242
248 6
249 233
261 129
262 66
263 696
264 304
265 171
266 22
277 239
278 72
304 28
305 999
306 364
307 195
308 63
319 123
348 254
349 51

$$$$

     RDKit          2D

 20 20  0  0  0  0  0  0  0  0999 V2000
   -4.7795    3.5092    0.0000 C   0  0  0  0  0  0  0  0  0  0  0  0
    5.6089   -1.0139    0.0000 C   0  0  0  0  0  0  0  0  0  0  0  0
    3.0108   -1.0011    0.0000 C   0  0  0  0  0  0  0  0  0  0  0  0
    6.1626   -0.0656    0.0000 C   0  0  0  0  0  0  0  0  0  0  0  0
    8.2143    0.4733    0.0000 C   0  0  0  0  0  0  0  0  0  0  0  0
    7.6753    2.5250    0.0000 C   0  0  0  0  0  0  0  0  0  0  0  0
   -0.8715    1.2617    0.0000 C   0  0  0  0  0  0  0  0  0  0  0  0
    0.4421    3.4865    0.0000 C   0  0  0  0  0  0  0  0  0  0  0  0
   -2.1560    1.9865    0.0000 C   0  0  0  0  0  0  0  0  0  0  0  0
   -0.8825    4.2807    0.0000 C   0  0  0  0  0  0  0  0  0  0  0  0
    3.0256    1.9989    0.0000 C   0  0  0  0  0  0  0  0  0  0  0  0
    5.6236    1.9861    0.0000 C   0  0  0  0  0  0  0  0  0  0  0  0
    0.4275    2.0117    0.0000 C   0  0  0  0  0  0  0  0  0  0  0  0
   -2.1815    3.5307    0.0000 C   0  0  0  0  0  0  0  0  0  0  0  0
    4.3209    1.2425    0.0000 C   0  0  0  0  0  0  0  0  0  0  0  0
    1.7229    1.2553    0.0000 C   0  0  0  0  0  0  0  0  0  0  0  0
   -3.4867    4.2699    0.0000 O   0  0  0  0  0  0  0  0  0  0  0  0
    4.3135   -0.2575    0.0000 S   0  0  0  0  0  0  0  0  0  0  0  0
    1.7155   -0.2447    0.0000 S   0  0  0  0  0  0  0  0  0  0  0  0
    6.9190    1.2297    0.0000 Si  0  0  0  0  0  4  0  0  0  0  0  0
  9  7  2  0
 10  8  1  0
 13  7  1  0
 13  8  2  0
 14  9  1  0
 14 10  2  0
 15 11  1  0
 15 12  1  0
 16 11  1  0
 16 13  1  0
 17  1  1  0
 17 14  1  0
 18  2  1  0
 18 15  1  0
 19  3  1  0
 19 16  1  0
 20  4  1  0
 20  5  1  0
 20  6  1  0
 20 12  1  0
M  END
>  <NAME>  (4841) 
1-(4-METHOXYPHENYL)-1,3-BIS(METHYLTHIO)-4-TRIMETHYLSILYLBUTANE

>  <SYNONYMS>  (4841) 


>  <SPECTRUM TYPE>  (4841) 
MS1

>  <INSTRUMENT TYPE>  (4841) 
EI-B

>  <INSTRUMENT>  (4841) 
JEOL JMS-D-3000

>  <ION MODE>  (4841) 
P

>  <INCHIKEY>  (4841) 
UBRRIEQBDLWYEF-UHFFFAOYSA-N

>  <FORMULA>  (4841) 
C16H28OS2Si

>  <EXACT MASS>  (4841) 
328.135084046

>  <MW>  (4841) 
328

>  <ID>  (4841) 
JP002514

>  <CONTRIBUTOR>  (4841) 
University of Tokyo Team, {Faculty of Engineering, University of Tokyo

>  <COMMENT>  (4841) 
SMILES=COc(c1)ccc(c1)C(SC)CC(SC)C[Si](C)(C)C
InChI=InChI=1S/C16H28OS2Si/c1-17-14-9-7-13(8-10-14)16(19-3)11-15(18-2)12-20(4,5)6/h7-10,15-16H,11-12H2,1-6H3
computed SMILES=O(C1=CC=C(C=C1)C(SC)CC(SC)C[Si](C)(C)C)C
accession=JP002514
date=2016.01.19 (Created 2008.10.21, modified 2011.05.06)
author=MASS SPECTROSCOPY SOC. OF JAPAN (MSSJ)
license=CC BY-NC-SA
exact mass=328.13508
ionization energy=70 eV
ion type=[M]+*
computed spectral entropy=2.9840059358664845
computed normalized entropy=0.8955050408084313
SPLASH=splash10-0300-4900000000-970133a125c3910c0873
submitter=submitter = University of Tokyo Team (Faculty of Engineering, University of Tokyo)
MoNA Rating=3.75

>  <NUM PEAKS>  (4841) 
28

>  <MASS SPECTRAL PEAKS>  (4841) 
45 14.68
47 13.85
59 9.75
73 99.99
74 10.81
75 10.22
77 15.47
91 20.02
94 14.11
105 22.17
115 14.1
121 11.16
128 10.43
129 17.95
134 14.27
144 14.94
145 10.94
146 9.5
147 54.78
159 31.43
160 31.28
161 82.47
162 9.91
167 92.56
168 10.21
233 15.75
265 28.96
328 16.86

>  <PREDICTED SPECTRUM>  (4841) 
15 31
27 36
28 34
29 19
30 34
31 49
33 15
35 13
37 24
38 64
39 212
40 84
41 324
42 197
43 137
44 224
45 446
46 123
47 286
48 162
49 95
50 136
51 200
52 108
53 228
54 61
55 292
56 86
57 11
58 27
59 226
60 13
61 378
62 129
63 177
64 109
65 200
66 130
67 119
68 42
69 221
70 41
71 76
72 73
73 886
74 361
75 529
76 161
77 323
78 161
79 133
80 108
81 45
82 36
83 112
84 123
85 71
86 159
87 101
88 172
89 173
90 112
91 298
92 198
93 212
94 133
95 148
96 39
97 81
98 29
99 50
100 69
101 118
102 147
104 164
105 108
106 117
107 155
108 160
109 218
110 81
111 50
112 27
113 47
114 151
115 158
116 99
117 210
118 96
119 86
120 60
121 129
122 204
124 73
125 64
127 79
129 5
130 152
131 117
132 97
133 326
134 284
135 337
136 199
137 204
138 113
139 102
140 6
142 110
145 25
146 78
147 173
148 39
149 40
150 81
151 90
152 251
153 58
159 68
163 18
165 183
174 49
175 54
176 18
177 44
178 218
179 45
180 40
193 28
195 12
196 21
207 201
208 62
209 110
210 57
233 241
234 154
280 130
281 999
282 453
283 4
313 63
314 26
315 34
328 23
329 26
330 8

$$$$

     RDKit          2D

 15 15  0  0  0  0  0  0  0  0999 V2000
    9.0942    0.7512    0.0000 C   0  0  0  0  0  0  0  0  0  0  0  0
    7.7948    3.0010    0.0000 C   0  0  0  0  0  0  0  0  0  0  0  0
   -2.5989   -1.5002    0.0000 C   0  0  0  0  0  0  0  0  0  0  0  0
    2.5987    3.0002    0.0000 C   0  0  0  0  0  0  0  0  0  0  0  0
    5.1970    1.5006    0.0000 C   0  0  0  0  0  0  0  0  0  0  0  0
    6.4962    0.7508    0.0000 C   0  0  0  0  0  0  0  0  0  0  0  0
    3.8981    0.7504    0.0000 C   0  0  0  0  0  0  0  0  0  0  0  0
   -1.3000    0.7500    0.0000 C   0  0  0  0  0  0  0  0  0  0  0  0
   -0.0000   -1.5000    0.0000 C   0  0  0  0  0  0  0  0  0  0  0  0
    0.0000    1.5000    0.0000 C   0  0  0  0  0  0  0  0  0  0  0  0
    1.3000   -0.7500    0.0000 C   0  0  0  0  0  0  0  0  0  0  0  0
    7.7951    1.5010    0.0000 C   0  0  0  0  0  0  0  0  0  0  0  0
   -1.3000   -0.7500    0.0000 C   0  0  0  0  0  0  0  0  0  0  0  0
    2.5989    1.5002    0.0000 C   0  0  0  0  0  0  0  0  0  0  0  0
    1.3000    0.7500    0.0000 C   0  0  0  0  0  0  0  0  0  0  0  0
  6  5  1  0
  7  5  1  0
 10  8  1  0
 11  9  1  0
 12  1  1  0
 12  2  1  0
 12  6  2  0
 13  3  2  0
 13  8  1  0
 13  9  1  0
 14  4  2  0
 14  7  1  0
 15 10  1  0
 15 11  1  0
 15 14  1  0
M  END
>  <NAME>  (4842) 
ISOBISABOLENE

>  <SYNONYMS>  (4842) 
6-METHYL-2-(4-METHYLENECYCLOHEXYL)-1,5-HEPTADIENE

>  <SPECTRUM TYPE>  (4842) 
MS1

>  <INSTRUMENT TYPE>  (4842) 
EI-B

>  <INSTRUMENT>  (4842) 
JEOL JMS-D-3000

>  <ION MODE>  (4842) 
P

>  <INCHIKEY>  (4842) 
XMGWPQCLCZIWPP-UHFFFAOYSA-N

>  <FORMULA>  (4842) 
C15H24

>  <EXACT MASS>  (4842) 
204.187800768

>  <MW>  (4842) 
204

>  <ID>  (4842) 
JP002513

>  <CONTRIBUTOR>  (4842) 
University of Tokyo Team, {Faculty of Engineering, University of Tokyo

>  <COMMENT>  (4842) 
SMILES=CC(C)=CCCC(=C)C(C1)CCC(=C)C1
InChI=InChI=1S/C15H24/c1-12(2)6-5-7-14(4)15-10-8-13(3)9-11-15/h6,15H,3-5,7-11H2,1-2H3
computed SMILES=C=C1CCC(C(=C)CCC=C(C)C)CC1
accession=JP002513
date=2016.01.19 (Created 2008.10.21, modified 2011.05.06)
author=MASS SPECTROSCOPY SOC. OF JAPAN (MSSJ)
license=CC BY-NC-SA
exact mass=204.1878
ionization energy=70 eV
ion type=[M]+*
computed spectral entropy=2.8119687336691515
computed normalized entropy=0.826758467129876
SPLASH=splash10-014l-9200000000-3bc1c00936795e4c77e5
submitter=submitter = University of Tokyo Team (Faculty of Engineering, University of Tokyo)
MoNA Rating=3.75

>  <NUM PEAKS>  (4842) 
30

>  <MASS SPECTRAL PEAKS>  (4842) 
41 58.85
43 3.81
53 6.44
55 9.75
67 21.43
68 4.51
69 99.99
70 5.86
77 6.13
79 14.79
80 3.94
81 10.26
82 5.67
91 9.23
92 4.79
93 25.66
94 7.89
95 6.39
105 5.96
107 7.46
108 3.1
109 26.64
119 4.4
120 3.72
121 3.81
133 4.23
134 3.25
135 5.03
161 19.65
204 12.26

>  <PREDICTED SPECTRUM>  (4842) 
27 48
29 58
39 197
40 30
41 691
42 70
43 205
50 8
51 136
52 56
53 338
54 30
55 295
57 86
65 170
66 62
67 449
68 183
69 999
70 71
77 428
78 137
79 518
80 235
81 428
82 79
91 377
92 281
93 622
94 101
95 216
105 313
106 52
107 407
108 158
109 310
119 329
120 141
121 229
122 81
133 202
134 153
135 181
136 28
146 47
147 81
148 29
161 399
162 31
189 71
204 334
205 67

$$$$

     RDKit          2D

 16 17  0  0  0  0  0  0  0  0999 V2000
    5.9479   -2.0496    0.0000 C   0  0  0  0  0  0  0  0  0  0  0  0
    6.4972   -0.0006    0.0000 C   0  0  0  0  0  0  0  0  0  0  0  0
    4.4483    0.5487    0.0000 C   0  0  0  0  0  0  0  0  0  0  0  0
   -2.6000    0.7500    0.0000 C   0  0  0  0  0  0  0  0  0  0  0  0
   -1.3000    1.5000    0.0000 C   0  0  0  0  0  0  0  0  0  0  0  0
   -2.6000   -0.7500    0.0000 C   0  0  0  0  0  0  0  0  0  0  0  0
    2.6000    0.7500    0.0000 C   0  0  0  0  0  0  0  0  0  0  0  0
    1.3000    1.5000    0.0000 C   0  0  0  0  0  0  0  0  0  0  0  0
    1.3000   -1.5000    0.0000 C   0  0  0  0  0  0  0  0  0  0  0  0
    3.8989   -1.5002    0.0000 C   0  0  0  0  0  0  0  0  0  0  0  0
    2.6000   -0.7500    0.0000 C   0  0  0  0  0  0  0  0  0  0  0  0
    0.0000    0.7500    0.0000 C   0  0  0  0  0  0  0  0  0  0  0  0
    0.0000   -0.7500    0.0000 C   0  0  0  0  0  0  0  0  0  0  0  0
   -1.3000   -1.5000    0.0000 C   0  0  0  0  0  0  0  0  0  0  0  0
   -1.3000   -3.0000    0.0000 O   0  0  0  0  0  0  0  0  0  0  0  0
    5.1981   -0.7504    0.0000 Si  0  0  0  0  0  4  0  0  0  0  0  0
  5  4  1  0
  6  4  1  0
  8  7  1  0
 11  7  2  0
 11  9  1  0
 11 10  1  0
 12  5  1  0
 12  8  1  0
 13  9  1  0
 13 12  1  0
 14  6  1  0
 14 13  1  0
 15 14  2  0
 16  1  1  0
 16  2  1  0
 16  3  1  0
 16 10  1  0
M  END
>  <NAME>  (4843) 
7-TRIMETHYLSILYLMETHYL-3,4,4A,5,8,8A-HEXAHYDRO-1(2H)-NAPHTHALENONE

>  <SYNONYMS>  (4843) 


>  <SPECTRUM TYPE>  (4843) 
MS1

>  <INSTRUMENT TYPE>  (4843) 
EI-B

>  <INSTRUMENT>  (4843) 
JEOL JMS-D-3000

>  <ION MODE>  (4843) 
P

>  <INCHIKEY>  (4843) 
VTSZSPVMHBJJIS-UHFFFAOYSA-N

>  <FORMULA>  (4843) 
C14H24OSi

>  <EXACT MASS>  (4843) 
236.15964191799998

>  <MW>  (4843) 
236

>  <ID>  (4843) 
JP002512

>  <CONTRIBUTOR>  (4843) 
University of Tokyo Team, {Faculty of Engineering, University of Tokyo

>  <COMMENT>  (4843) 
SMILES=O=C(C2)C(C1)C(CC2)CC=C(C[Si](C)(C)C)1
InChI=InChI=1S/C14H24OSi/c1-16(2,3)10-11-7-8-12-5-4-6-14(15)13(12)9-11/h7,12-13H,4-6,8-10H2,1-3H3
computed SMILES=O=C1CCCC2CC=C(CC12)C[Si](C)(C)C
accession=JP002512
date=2016.01.19 (Created 2008.10.21, modified 2011.05.06)
author=MASS SPECTROSCOPY SOC. OF JAPAN (MSSJ)
license=CC BY-NC-SA
exact mass=236.15964
ionization energy=70 eV
ion type=[M]+*
computed spectral entropy=2.66126655755815
computed normalized entropy=0.807463071066532
SPLASH=splash10-00di-9710000000-3a8194939c5b4f5593b3
submitter=submitter = University of Tokyo Team (Faculty of Engineering, University of Tokyo)
MoNA Rating=3.75

>  <NUM PEAKS>  (4843) 
27

>  <MASS SPECTRAL PEAKS>  (4843) 
42 3.42
45 9.68
55 3.38
59 7.03
73 99.99
74 9.44
75 21.57
77 3.69
79 3.81
91 8.16
104 3.69
105 5.87
117 4.19
118 4.97
129 21.18
131 9.4
145 3.34
146 7.73
155 4.08
156 7.23
169 42.65
170 6.57
179 3.18
180 6.33
195 4.27
221 7.03
236 13.84

>  <PREDICTED SPECTRUM>  (4843) 
27 15
28 2
29 45
41 42
43 56
44 3
45 282
46 6
47 59
51 30
53 59
55 31
59 202
60 56
61 13
65 40
66 35
67 77
71 5
73 999
74 276
75 375
76 73
77 180
78 99
79 202
80 22
81 63
85 2
89 0
91 221
92 125
93 107
95 51
96 12
103 181
104 164
105 154
107 9
109 18
117 240
118 174
119 155
120 22
121 38
123 65
129 115
130 23
131 236
132 45
134 20
135 8
137 60
144 33
145 253
146 344
147 102
148 36
149 27
151 39
153 36
154 22
155 8
162 91
163 46
164 39
165 39
167 133
168 165
169 266
170 103
177 5
179 30
180 25
181 105
182 37
193 86
194 73
195 41
208 42
209 21
221 157
222 47
235 20
236 445
237 174
238 57

$$$$

     RDKit          2D

 14 14  0  0  0  0  0  0  0  0999 V2000
   -6.8197    3.1321    0.0000 C   0  0  0  0  0  0  0  0  0  0  0  0
   -4.2216    6.1321    0.0000 C   0  0  0  0  0  0  0  0  0  0  0  0
   -5.5207    3.8821    0.0000 C   0  0  0  0  0  0  0  0  0  0  0  0
    3.5726    1.6321    0.0000 C   0  0  0  0  0  0  0  0  0  0  0  0
    3.5731    3.1329    0.0000 C   0  0  0  0  0  0  0  0  0  0  0  0
    2.2731    0.8813    0.0000 C   0  0  0  0  0  0  0  0  0  0  0  0
   -4.2216    3.1321    0.0000 C   0  0  0  0  0  0  0  0  0  0  0  0
    2.2740    3.8829    0.0000 C   0  0  0  0  0  0  0  0  0  0  0  0
    0.9740    1.6313    0.0000 C   0  0  0  0  0  0  0  0  0  0  0  0
   -0.3245    3.8821    0.0000 C   0  0  0  0  0  0  0  0  0  0  0  0
   -1.6236    3.1321    0.0000 C   0  0  0  0  0  0  0  0  0  0  0  0
    0.9745    3.1321    0.0000 C   0  0  0  0  0  0  0  0  0  0  0  0
   -2.9226    3.8821    0.0000 C   0  0  0  0  0  0  0  0  0  0  0  0
   -2.9226    5.3821    0.0000 S   0  0  0  0  0  0  0  0  0  0  0  0
  3  1  2  0
  5  4  2  0
  6  4  1  0
  7  3  1  0
  8  5  1  0
  9  6  2  0
 11 10  1  0
 12  8  2  0
 12  9  1  0
 12 10  1  0
 13  7  1  0
 13 11  1  0
 14  2  1  0
 14 13  1  0
M  END
>  <NAME>  (4844) 
6-PHENYL-4-METHYLTHIO-1-HEXENE

>  <SYNONYMS>  (4844) 


>  <SPECTRUM TYPE>  (4844) 
MS1

>  <INSTRUMENT TYPE>  (4844) 
EI-B

>  <INSTRUMENT>  (4844) 
JEOL JMS-D-3000

>  <ION MODE>  (4844) 
P

>  <INCHIKEY>  (4844) 
QLNCUBLOWMDGLA-UHFFFAOYSA-N

>  <FORMULA>  (4844) 
C13H18S

>  <EXACT MASS>  (4844) 
206.112921576

>  <MW>  (4844) 
206

>  <ID>  (4844) 
JP002511

>  <CONTRIBUTOR>  (4844) 
University of Tokyo Team, {Faculty of Engineering, University of Tokyo

>  <COMMENT>  (4844) 
SMILES=C=CCC(SC)CCc(c1)cccc1
InChI=InChI=1S/C13H18S/c1-3-7-13(14-2)11-10-12-8-5-4-6-9-12/h3-6,8-9,13H,1,7,10-11H2,2H3
computed SMILES=S(C)C(CC=C)CCC=1C=CC=CC1
accession=JP002511
date=2016.01.19 (Created 2008.10.21, modified 2011.05.06)
author=MASS SPECTROSCOPY SOC. OF JAPAN (MSSJ)
license=CC BY-NC-SA
exact mass=206.11292
ionization energy=70 eV
ion type=[M]+*
computed spectral entropy=1.7828725945939294
computed normalized entropy=0.6755717560913502
SPLASH=splash10-014i-0920000000-390073a5c67da0f41e72
submitter=submitter = University of Tokyo Team (Faculty of Engineering, University of Tokyo)
MoNA Rating=3.75

>  <NUM PEAKS>  (4844) 
14

>  <MASS SPECTRAL PEAKS>  (4844) 
61 2.43
91 12.36
92 1.05
102 9.94
104 3.73
117 99.99
118 10.74
129 1.24
158 4.09
165 18.07
166 2.13
206 39.31
207 6.06
208 2.25

>  <PREDICTED SPECTRUM>  (4844) 
27 59
28 13
29 13
31 43
36 8
37 34
38 85
39 250
40 94
41 381
42 118
43 47
44 72
45 142
46 34
47 75
48 13
49 48
50 97
51 188
52 101
53 132
55 83
56 19
57 78
58 58
59 64
60 55
61 123
62 76
63 149
64 105
65 248
66 67
67 44
68 3
69 380
71 7
74 39
75 31
76 32
77 215
78 180
79 142
80 24
83 19
85 17
87 16
89 109
90 138
91 999
92 365
93 45
95 19
102 59
103 232
104 214
105 301
106 62
107 87
109 18
115 149
116 93
117 296
121 47
123 26
124 68
128 122
129 122
130 1
131 234
132 187
137 197
138 40
165 428
166 141
206 166
207 28

$$$$

     RDKit          2D

 19 18  0  0  0  0  0  0  0  0999 V2000
    2.5981    6.0000    0.0000 C   0  0  0  0  0  0  0  0  0  0  0  0
   -6.4952   11.2500    0.0000 C   0  0  0  0  0  0  0  0  0  0  0  0
   -9.0933    6.7500    0.0000 C   0  0  0  0  0  0  0  0  0  0  0  0
   -6.4952    2.2500    0.0000 C   0  0  0  0  0  0  0  0  0  0  0  0
    1.2990    6.7500    0.0000 C   0  0  0  0  0  0  0  0  0  0  0  0
   -5.1962   10.5000    0.0000 C   0  0  0  0  0  0  0  0  0  0  0  0
   -7.7942    6.0000    0.0000 C   0  0  0  0  0  0  0  0  0  0  0  0
   -6.4952    3.7500    0.0000 C   0  0  0  0  0  0  0  0  0  0  0  0
   -2.5981    6.0000    0.0000 C   0  0  0  0  0  0  0  0  0  0  0  0
   -3.8971    6.7500    0.0000 C   0  0  0  0  0  0  0  0  0  0  0  0
   -1.2990    6.7500    0.0000 C   0  0  0  0  0  0  0  0  0  0  0  0
   -3.8971    8.2500    0.0000 C   0  0  0  0  0  0  0  0  0  0  0  0
   -5.1962    6.0000    0.0000 C   0  0  0  0  0  0  0  0  0  0  0  0
   -1.2990    8.2500    0.0000 O   0  0  0  0  0  0  0  0  0  0  0  0
   -2.5981    9.0000    0.0000 O   0  0  0  0  0  0  0  0  0  0  0  0
    0.0000    6.0000    0.0000 O   0  0  0  0  0  0  0  0  0  0  0  0
   -5.1962    9.0000    0.0000 O   0  0  0  0  0  0  0  0  0  0  0  0
   -6.4952    6.7500    0.0000 O   0  0  0  0  0  0  0  0  0  0  0  0
   -5.1962    4.5000    0.0000 O   0  0  0  0  0  0  0  0  0  0  0  0
  5  1  1  0
  6  2  1  0
  7  3  1  0
  8  4  1  0
 10  9  1  0
 11  9  1  0
 12 10  1  0
 13 10  1  0
 14 11  2  0
 15 12  2  0
 16  5  1  0
 16 11  1  0
 17  6  1  0
 17 12  1  0
 18  7  1  0
 18 13  1  0
 19  8  1  0
 19 13  1  0
M  END
>  <NAME>  (4845) 
DIETHYL 2-(DIETHOXYMETHYL)SUCCINATE

>  <SYNONYMS>  (4845) 


>  <SPECTRUM TYPE>  (4845) 
MS1

>  <INSTRUMENT TYPE>  (4845) 
EI-B

>  <INSTRUMENT>  (4845) 
JEOL JMS-D-3000

>  <ION MODE>  (4845) 
P

>  <INCHIKEY>  (4845) 
XKFYOTHOBBFZSE-UHFFFAOYSA-N

>  <FORMULA>  (4845) 
C13H24O6

>  <EXACT MASS>  (4845) 
276.15728848799995

>  <MW>  (4845) 
276

>  <ID>  (4845) 
JP002510

>  <CONTRIBUTOR>  (4845) 
University of Tokyo Team, {Faculty of Engineering, University of Tokyo

>  <COMMENT>  (4845) 
SMILES=CCOC(=O)CC(C(=O)OCC)C(OCC)OCC
InChI=InChI=1S/C13H24O6/c1-5-16-11(14)9-10(12(15)17-6-2)13(18-7-3)19-8-4/h10,13H,5-9H2,1-4H3
computed SMILES=O=C(OCC)CC(C(=O)OCC)C(OCC)OCC
accession=JP002510
date=2016.01.19 (Created 2008.10.21, modified 2011.05.06)
author=MASS SPECTROSCOPY SOC. OF JAPAN (MSSJ)
license=CC BY-NC-SA
exact mass=276.15729
ionization energy=70 eV
ion type=[M]+*
computed spectral entropy=2.6941092682543712
computed normalized entropy=0.7461009453636438
SPLASH=splash10-055r-2910000000-5ee6bd0168f1a2685771
submitter=submitter = University of Tokyo Team (Faculty of Engineering, University of Tokyo)
MoNA Rating=3.75

>  <NUM PEAKS>  (4845) 
37

>  <MASS SPECTRAL PEAKS>  (4845) 
75 60.59
76 1.86
83 10.68
84 1.28
85 3.11
88 1.49
99 1.4
100 24.4
101 1.31
104 12.76
105 1.11
110 1.72
112 1.59
113 1.48
127 1.88
128 4.86
129 34.01
130 2.41
141 1.77
145 5.26
155 1.45
156 4.53
157 57.9
158 7.15
173 5.41
184 10.43
185 99.99
186 9.88
187 1.58
189 4.07
201 5.49
202 1.2
230 17.81
231 16.14
232 2.14
247 1.77
276 2.31

>  <PREDICTED SPECTRUM>  (4845) 
27 45
29 82
31 77
44 8
45 88
47 441
53 28
55 80
57 85
58 22
59 56
60 16
61 55
65 121
66 0
69 16
73 66
74 21
75 345
76 19
81 72
82 29
83 270
84 67
85 157
86 12
89 32
91 7
99 162
100 178
101 163
102 156
103 376
104 188
105 24
111 169
112 13
113 100
114 5
115 98
117 163
127 186
128 311
129 803
130 341
131 187
132 4
133 9
139 119
142 46
143 99
147 87
155 96
156 377
157 894
158 279
159 16
173 245
174 150
175 155
184 443
185 999
186 373
187 21
201 198
202 160
203 286
229 17
230 314
231 524
232 120

$$$$

     RDKit          2D

 15 15  0  0  0  0  0  0  0  0999 V2000
   -5.1972   -0.5500    0.0000 C   0  0  0  0  0  0  0  0  0  0  0  0
    3.1480    0.4019    0.0000 C   0  0  0  0  0  0  0  0  0  0  0  0
    5.1970    0.9513    0.0000 C   0  0  0  0  0  0  0  0  0  0  0  0
    4.6476    3.0002    0.0000 C   0  0  0  0  0  0  0  0  0  0  0  0
    1.2998    0.2006    0.0000 C   0  0  0  0  0  0  0  0  0  0  0  0
   -0.0002    2.4506    0.0000 C   0  0  0  0  0  0  0  0  0  0  0  0
   -0.0002   -0.5494    0.0000 C   0  0  0  0  0  0  0  0  0  0  0  0
   -1.3002    1.7006    0.0000 C   0  0  0  0  0  0  0  0  0  0  0  0
    2.5987    2.4508    0.0000 C   0  0  0  0  0  0  0  0  0  0  0  0
    1.2998    1.7006    0.0000 C   0  0  0  0  0  0  0  0  0  0  0  0
   -1.3002    0.2006    0.0000 C   0  0  0  0  0  0  0  0  0  0  0  0
   -2.5992   -0.5496    0.0000 C   0  0  0  0  0  0  0  0  0  0  0  0
   -2.5989   -2.0496    0.0000 O   0  0  0  0  0  0  0  0  0  0  0  0
   -3.8983    0.2002    0.0000 O   0  0  0  0  0  0  0  0  0  0  0  0
    3.8978    1.7010    0.0000 Si  0  0  0  0  0  4  0  0  0  0  0  0
  7  5  1  0
  8  6  1  0
 10  5  2  0
 10  6  1  0
 10  9  1  0
 11  7  1  0
 11  8  1  0
 12 11  1  0
 13 12  2  0
 14  1  1  0
 14 12  1  0
 15  2  1  0
 15  3  1  0
 15  4  1  0
 15  9  1  0
M  END
>  <NAME>  (4846) 
METHYL 4-TRIMETHYLSILYLMETHYL-3-CYCLOHEXENECARBOXYLATE

>  <SYNONYMS>  (4846) 


>  <SPECTRUM TYPE>  (4846) 
MS1

>  <INSTRUMENT TYPE>  (4846) 
EI-B

>  <INSTRUMENT>  (4846) 
JEOL JMS-D-3000

>  <ION MODE>  (4846) 
P

>  <INCHIKEY>  (4846) 
DBBWPGOLVKGOEO-UHFFFAOYSA-N

>  <FORMULA>  (4846) 
C12H22O2Si

>  <EXACT MASS>  (4846) 
226.138906474

>  <MW>  (4846) 
226

>  <ID>  (4846) 
JP002509

>  <CONTRIBUTOR>  (4846) 
University of Tokyo Team, {Faculty of Engineering, University of Tokyo

>  <COMMENT>  (4846) 
SMILES=COC(=O)C(C1)CC=C(C1)C[Si](C)(C)C
InChI=InChI=1S/C12H22O2Si/c1-14-12(13)11-7-5-10(6-8-11)9-15(2,3)4/h5,11H,6-9H2,1-4H3
computed SMILES=O=C(OC)C1CC=C(CC1)C[Si](C)(C)C
accession=JP002509
date=2016.01.19 (Created 2008.10.21, modified 2011.05.06)
author=MASS SPECTROSCOPY SOC. OF JAPAN (MSSJ)
license=CC BY-NC-SA
exact mass=226.13891
ionization energy=70 eV
ion type=[M]+*
computed spectral entropy=3.0422288664516177
computed normalized entropy=0.8088452549381657
SPLASH=splash10-00c3-9700000000-13b09b6d799c2e3cbad2
submitter=submitter = University of Tokyo Team (Faculty of Engineering, University of Tokyo)
MoNA Rating=3.75

>  <NUM PEAKS>  (4846) 
43

>  <MASS SPECTRAL PEAKS>  (4846) 
59 9.61
61 9.22
71 13.14
72 2.37
73 78.24
74 7.56
75 99.99
76 7.26
77 9.44
79 4.92
85 2.75
91 12.23
92 2.85
93 13.46
94 3.2
110 3.34
115 2.78
117 6.52
119 20.08
121 7.02
125 3.8
127 3.69
135 3.87
136 3.66
141 11.03
143 53.05
144 7.36
145 3.02
149 8.43
151 2.4
155 3.06
156 5.35
165 6.81
167 9.84
168 2.38
169 2.91
183 50.72
184 8.95
185 2.57
193 7.36
211 13.81
212 2.51
226 1.64

>  <PREDICTED SPECTRUM>  (4846) 
41 27
43 103
45 351
47 27
51 25
52 16
53 79
55 86
59 291
60 37
61 43
65 42
66 68
67 107
69 163
71 9
72 7
73 999
74 300
75 351
76 47
77 149
78 75
79 337
80 71
81 41
83 8
85 30
89 438
90 75
91 138
92 43
93 330
94 456
95 219
96 25
97 141
98 33
99 46
103 2
104 71
105 115
107 195
109 27
111 4
121 97
122 292
131 6
135 56
136 82
149 68
151 45
152 26
159 63
166 16
167 323
168 91
169 14
183 47
195 35
211 118
226 254
227 90
228 25

$$$$

     RDKit          2D

 15 16  0  0  0  0  0  0  0  0999 V2000
   -1.4390   -4.0000    0.0000 C   0  0  0  0  0  0  0  0  0  0  0  0
    1.1596    3.0977    0.0000 C   0  0  0  0  0  0  0  0  0  0  0  0
    0.6112    5.1469    0.0000 C   0  0  0  0  0  0  0  0  0  0  0  0
   -1.4380    4.5985    0.0000 C   0  0  0  0  0  0  0  0  0  0  0  0
   -1.4400   -1.0000    0.0000 C   0  0  0  0  0  0  0  0  0  0  0  0
   -1.4400    0.5000    0.0000 C   0  0  0  0  0  0  0  0  0  0  0  0
    1.1600   -1.0000    0.0000 C   0  0  0  0  0  0  0  0  0  0  0  0
   -0.8896    2.5493    0.0000 C   0  0  0  0  0  0  0  0  0  0  0  0
   -0.1400   -3.2500    0.0000 C   0  0  0  0  0  0  0  0  0  0  0  0
   -0.1400   -1.7500    0.0000 C   0  0  0  0  0  0  0  0  0  0  0  0
    1.1600    0.5000    0.0000 C   0  0  0  0  0  0  0  0  0  0  0  0
   -0.1400    1.2500    0.0000 C   0  0  0  0  0  0  0  0  0  0  0  0
    1.1590   -4.0000    0.0000 O   0  0  0  0  0  0  0  0  0  0  0  0
    1.1600    2.0000    0.0000 O   0  0  0  0  0  0  0  0  0  0  0  0
   -0.1392    3.8481    0.0000 Si  0  0  0  0  0  4  0  0  0  0  0  0
  6  5  1  0
  9  1  1  0
 10  5  1  0
 10  7  1  0
 10  9  1  0
 11  7  1  0
 12  6  1  0
 12  8  1  0
 12 11  1  0
 13  9  2  0
 14 11  1  0
 14 12  1  0
 15  2  1  0
 15  3  1  0
 15  4  1  0
 15  8  1  0
M  END
>  <NAME>  (4847) 
METHYL 3,4-EPOXY-4-TRIMETHYLSILYLMETHYLCYCLOHEXYL KETONE

>  <SYNONYMS>  (4847) 


>  <SPECTRUM TYPE>  (4847) 
MS1

>  <INSTRUMENT TYPE>  (4847) 
EI-B

>  <INSTRUMENT>  (4847) 
JEOL JMS-D-3000

>  <ION MODE>  (4847) 
P

>  <INCHIKEY>  (4847) 
SMCFBVDPIWMNCF-UHFFFAOYSA-N

>  <FORMULA>  (4847) 
C12H22O2Si

>  <EXACT MASS>  (4847) 
226.138906474

>  <MW>  (4847) 
226

>  <ID>  (4847) 
JP002508

>  <CONTRIBUTOR>  (4847) 
University of Tokyo Team, {Faculty of Engineering, University of Tokyo

>  <COMMENT>  (4847) 
SMILES=CC(=O)C(C2)CC(O1)C(C2)(C[Si](C)(C)C)1
InChI=InChI=1S/C12H22O2Si/c1-9(13)10-5-6-12(8-15(2,3)4)11(7-10)14-12/h10-11H,5-8H2,1-4H3
computed SMILES=O=C(C)C1CCC2(OC2C1)C[Si](C)(C)C
accession=JP002508
date=2016.01.19 (Created 2008.10.21, modified 2011.05.06)
author=MASS SPECTROSCOPY SOC. OF JAPAN (MSSJ)
license=CC BY-NC-SA
exact mass=226.13891
ionization energy=70 eV
ion type=[M]+*
computed spectral entropy=2.751049304324605
computed normalized entropy=0.8088472957074239
SPLASH=splash10-00fu-9300000000-7e97e630ccf7ef8e6f0b
submitter=submitter = University of Tokyo Team (Faculty of Engineering, University of Tokyo)
MoNA Rating=3.75

>  <NUM PEAKS>  (4847) 
30

>  <MASS SPECTRAL PEAKS>  (4847) 
58 9.98
59 6.57
61 4.72
71 5.17
73 99.99
74 9.07
75 58.45
76 4.18
77 9.78
79 4.18
91 14.84
92 11.5
93 33.4
94 6.52
117 4.42
118 3.14
119 10.13
121 7.75
136 2.67
141 4.32
143 32.59
144 4.54
149 4.04
165 3.15
167 5.38
183 22.74
184 3.74
193 3.25
211 5.57
226 3

>  <PREDICTED SPECTRUM>  (4847) 
39 29
41 63
43 557
44 40
45 258
47 27
51 24
52 18
53 155
55 161
59 176
61 111
65 116
66 55
67 179
69 90
71 92
72 49
73 999
74 271
75 548
76 134
77 126
78 72
79 279
80 56
81 42
83 40
85 169
86 85
91 243
92 140
93 557
94 195
95 354
96 11
97 140
99 63
103 79
105 15
107 10
108 31
109 36
110 7
111 120
112 28
113 40
115 37
117 139
118 101
119 171
121 116
125 28
127 64
128 26
129 1
130 20
131 20
135 13
136 152
141 127
143 31
145 360
149 130
150 128
151 3
155 115
156 56
157 7
158 4
159 111
167 130
169 40
182 0
183 583
184 225
185 158
186 77
193 100
211 132
212 10
226 103
227 22

$$$$

     RDKit          2D

 15 15  0  0  0  0  0  0  0  0999 V2000
    8.1753   -0.0079    0.0000 C   0  0  0  0  0  0  0  0  0  0  0  0
    8.7240    2.0412    0.0000 C   0  0  0  0  0  0  0  0  0  0  0  0
    6.6749    2.5900    0.0000 C   0  0  0  0  0  0  0  0  0  0  0  0
   -1.6700   -0.9600    0.0000 C   0  0  0  0  0  0  0  0  0  0  0  0
   -1.6700    0.5400    0.0000 C   0  0  0  0  0  0  0  0  0  0  0  0
   -0.3700   -1.7100    0.0000 C   0  0  0  0  0  0  0  0  0  0  0  0
   -0.3700    1.2900    0.0000 C   0  0  0  0  0  0  0  0  0  0  0  0
    0.9300   -0.9600    0.0000 C   0  0  0  0  0  0  0  0  0  0  0  0
    3.5281    0.5404    0.0000 C   0  0  0  0  0  0  0  0  0  0  0  0
    6.1262    0.5408    0.0000 C   0  0  0  0  0  0  0  0  0  0  0  0
    4.8270    1.2906    0.0000 C   0  0  0  0  0  0  0  0  0  0  0  0
    0.9300    0.5400    0.0000 C   0  0  0  0  0  0  0  0  0  0  0  0
    4.8268    2.7906    0.0000 O   0  0  0  0  0  0  0  0  0  0  0  0
    2.2289    1.2902    0.0000 O   0  0  0  0  0  0  0  0  0  0  0  0
    7.4251    1.2910    0.0000 Si  0  0  0  0  0  4  0  0  0  0  0  0
  5  4  2  0
  6  4  1  0
  7  5  1  0
  8  6  2  0
 11  9  1  0
 11 10  1  0
 12  7  2  0
 12  8  1  0
 13 11  2  0
 14  9  1  0
 14 12  1  0
 15  1  1  0
 15  2  1  0
 15  3  1  0
 15 10  1  0
M  END
>  <NAME>  (4848) 
1-PHENOXY-3-TRIMETHYLSILYL-2-PROPANONE

>  <SYNONYMS>  (4848) 


>  <SPECTRUM TYPE>  (4848) 
MS1

>  <INSTRUMENT TYPE>  (4848) 
EI-B

>  <INSTRUMENT>  (4848) 
JEOL JMS-D-3000

>  <ION MODE>  (4848) 
P

>  <INCHIKEY>  (4848) 
NRAWMMGVSRRVSR-UHFFFAOYSA-N

>  <FORMULA>  (4848) 
C12H18O2Si

>  <EXACT MASS>  (4848) 
222.107606346

>  <MW>  (4848) 
222

>  <ID>  (4848) 
JP002507

>  <CONTRIBUTOR>  (4848) 
University of Tokyo Team, {Faculty of Engineering, University of Tokyo

>  <COMMENT>  (4848) 
SMILES=O=C(COc(c1)cccc1)C[Si](C)(C)C
InChI=InChI=1S/C12H18O2Si/c1-15(2,3)10-11(13)9-14-12-7-5-4-6-8-12/h4-8H,9-10H2,1-3H3
computed SMILES=O=C(COC=1C=CC=CC1)C[Si](C)(C)C
accession=JP002507
date=2016.01.19 (Created 2008.10.21, modified 2011.05.06)
author=MASS SPECTROSCOPY SOC. OF JAPAN (MSSJ)
license=CC BY-NC-SA
exact mass=222.10761
ionization energy=70 eV
ion type=[M]+*
computed spectral entropy=3.1232842338876536
computed normalized entropy=0.7725067101512364
SPLASH=splash10-00b9-9310000000-59187edd7c419b037370
submitter=submitter = University of Tokyo Team (Faculty of Engineering, University of Tokyo)
MoNA Rating=3.75

>  <NUM PEAKS>  (4848) 
57

>  <MASS SPECTRAL PEAKS>  (4848) 
43 5.49
44 2.88
45 7.73
47 3.78
51 5.12
54 1.01
55 1.33
57 1.17
58 1.86
59 3.84
61 2.98
65 3.57
66 1.7
67 2.24
72 2.82
73 52.5
74 4.9
75 99.99
76 8.43
77 15.63
78 1.97
79 1.6
85 1.97
91 5.76
93 1.17
94 2.02
95 1.97
99 1.22
104 6.18
105 1.22
107 4.42
113 1.28
115 5.28
129 9.44
130 1.38
131 8.64
132 13.07
133 2.02
135 1.97
149 1.01
150 3.46
151 15.9
152 2.66
153 1.28
154 1.54
161 2.77
166 4.32
167 1.22
179 7.57
180 2.4
189 6.4
194 1.76
205 1.33
207 3.78
222 37.24
223 6.61
224 1.65

>  <PREDICTED SPECTRUM>  (4848) 
29 41
31 12
35 0
38 22
39 124
40 32
41 178
42 79
43 233
44 50
45 263
46 15
47 154
49 40
50 36
51 166
52 29
53 74
55 112
56 36
57 118
58 45
59 182
60 37
61 202
62 30
63 100
64 2
65 175
66 99
67 76
69 79
71 15
72 63
73 999
74 280
75 675
76 140
77 436
78 116
79 171
82 3
83 82
84 7
85 81
87 35
88 78
89 136
90 22
91 227
92 27
93 47
94 246
95 86
96 40
99 82
101 67
103 3
104 86
105 125
107 103
109 0
111 127
115 218
116 112
117 122
121 29
129 268
130 132
131 204
132 208
133 110
135 27
147 115
148 15
149 101
150 64
151 381
152 128
153 15
154 2
161 168
162 38
163 158
164 83
166 169
177 14
178 11
179 224
180 205
189 90
207 167
208 49
222 592
223 269
224 132
225 29

$$$$

     RDKit          2D

 14 14  0  0  0  0  0  0  0  0999 V2000
   -3.5905    1.3257    0.0000 C   0  0  0  0  0  0  0  0  0  0  0  0
    6.8126   -0.1974    0.0000 C   0  0  0  0  0  0  0  0  0  0  0  0
   -0.9777    4.3129    0.0000 C   0  0  0  0  0  0  0  0  0  0  0  0
   -2.2878    2.0693    0.0000 C   0  0  0  0  0  0  0  0  0  0  0  0
   -0.9925    1.3129    0.0000 C   0  0  0  0  0  0  0  0  0  0  0  0
    2.9046    2.0501    0.0000 C   0  0  0  0  0  0  0  0  0  0  0  0
    1.5910   -0.1747    0.0000 C   0  0  0  0  0  0  0  0  0  0  0  0
    4.1891    1.3253    0.0000 C   0  0  0  0  0  0  0  0  0  0  0  0
    2.9156   -0.9689    0.0000 C   0  0  0  0  0  0  0  0  0  0  0  0
    1.6056    1.3001    0.0000 C   0  0  0  0  0  0  0  0  0  0  0  0
    4.2146   -0.2189    0.0000 C   0  0  0  0  0  0  0  0  0  0  0  0
    0.3102    2.0565    0.0000 C   0  0  0  0  0  0  0  0  0  0  0  0
    5.5198   -0.9581    0.0000 O   0  0  0  0  0  0  0  0  0  0  0  0
    0.3176    3.5565    0.0000 S   0  0  0  0  0  0  0  0  0  0  0  0
  4  1  2  0
  5  4  1  0
  8  6  2  0
  9  7  1  0
 10  6  1  0
 10  7  2  0
 11  8  1  0
 11  9  2  0
 12  5  1  0
 12 10  1  0
 13  2  1  0
 13 11  1  0
 14  3  1  0
 14 12  1  0
M  END
>  <NAME>  (4849) 
4-(4-METHOXYPHENYL)-4-METHYLTHIO-1-BUTENE

>  <SYNONYMS>  (4849) 


>  <SPECTRUM TYPE>  (4849) 
MS1

>  <INSTRUMENT TYPE>  (4849) 
EI-B

>  <INSTRUMENT>  (4849) 
JEOL JMS-D-3000

>  <ION MODE>  (4849) 
P

>  <INCHIKEY>  (4849) 
WEYDOWYVKXIWLV-UHFFFAOYSA-N

>  <FORMULA>  (4849) 
C12H16OS

>  <EXACT MASS>  (4849) 
208.092186132

>  <MW>  (4849) 
208

>  <ID>  (4849) 
JP002506

>  <CONTRIBUTOR>  (4849) 
University of Tokyo Team, {Faculty of Engineering, University of Tokyo

>  <COMMENT>  (4849) 
SMILES=C=CCC(SC)c(c1)ccc(OC)c1
InChI=InChI=1S/C12H16OS/c1-4-5-12(14-3)10-6-8-11(13-2)9-7-10/h4,6-9,12H,1,5H2,2-3H3
computed SMILES=O(C1=CC=C(C=C1)C(SC)CC=C)C
computed normalized entropy=0.8613669725979355
accession=JP002506
date=2016.01.19 (Created 2008.10.21, modified 2011.05.06)
author=MASS SPECTROSCOPY SOC. OF JAPAN (MSSJ)
license=CC BY-NC-SA
exact mass=208.09219
ionization energy=70 eV
ion type=[M]+*
computed spectral entropy=3.3345246950837977
SPLASH=splash10-03xr-2900000000-7e785972c017ccb8fee8
submitter=submitter = University of Tokyo Team (Faculty of Engineering, University of Tokyo)
MoNA Rating=3.75

>  <NUM PEAKS>  (4849) 
48

>  <MASS SPECTRAL PEAKS>  (4849) 
50 5.94
51 11.23
52 3.03
53 3.38
62 3.66
63 12.92
64 5.49
65 12.19
75 4.11
76 3.76
77 11.85
78 4.97
79 5.36
80 3.8
89 9.3
91 29.03
92 3.78
94 10.48
102 8.86
103 4.5
107 3.45
115 42.59
116 13.57
117 28.53
118 3.86
119 4.57
121 8.07
127 16.07
128 24.71
129 42.97
130 9.67
131 8.33
134 3.4
143 3.2
144 40.83
145 36.36
146 10.73
151 4.85
152 5.03
158 6.68
159 67.03
160 99.99
161 59.72
162 7.17
167 51.94
168 5.91
174 11.99
208 3.17

>  <PREDICTED SPECTRUM>  (4849) 
14 20
15 48
18 15
26 3
27 72
28 38
38 63
39 263
40 59
41 273
42 61
43 99
44 27
45 198
46 24
47 74
49 1
50 135
51 246
52 95
53 145
54 41
55 94
56 32
57 120
58 57
61 111
62 98
63 269
64 160
65 259
66 84
67 69
68 95
69 148
70 49
71 22
72 4
74 63
75 57
76 136
77 342
78 167
79 172
80 97
81 74
82 83
83 10
84 35
85 67
86 109
87 83
88 89
89 158
90 51
91 314
92 161
93 155
94 104
95 84
96 51
97 7
98 35
99 56
100 14
101 32
102 122
103 189
104 65
105 48
106 103
107 157
108 196
109 168
110 66
111 39
115 215
117 136
118 197
119 197
120 105
121 486
122 257
123 46
124 91
126 18
127 77
128 167
132 65
133 62
134 220
135 211
136 170
137 107
139 200
146 158
147 122
148 98
149 88
150 81
151 123
152 93
153 140
159 155
160 218
161 999
162 364
163 228
164 125
165 176
167 924
168 453
169 126
174 18
175 233
176 155
177 36
178 11
193 236
194 59
206 46
207 235
208 700
209 256
210 99
211 3

$$$$

     RDKit          2D

 13 13  0  0  0  0  0  0  0  0999 V2000
   -5.3834    4.1934    0.0000 C   0  0  0  0  0  0  0  0  0  0  0  0
   -5.9324    2.1443    0.0000 C   0  0  0  0  0  0  0  0  0  0  0  0
   -3.8834    1.5953    0.0000 C   0  0  0  0  0  0  0  0  0  0  0  0
    3.1608    1.3943    0.0000 C   0  0  0  0  0  0  0  0  0  0  0  0
    3.1613    2.8952    0.0000 C   0  0  0  0  0  0  0  0  0  0  0  0
    1.8613    0.6435    0.0000 C   0  0  0  0  0  0  0  0  0  0  0  0
    1.8623    3.6452    0.0000 C   0  0  0  0  0  0  0  0  0  0  0  0
    0.5623    1.3935    0.0000 C   0  0  0  0  0  0  0  0  0  0  0  0
   -0.7363    3.6443    0.0000 C   0  0  0  0  0  0  0  0  0  0  0  0
   -3.3344    3.6443    0.0000 C   0  0  0  0  0  0  0  0  0  0  0  0
    0.5627    2.8943    0.0000 C   0  0  0  0  0  0  0  0  0  0  0  0
   -2.0353    2.8943    0.0000 N   0  0  0  0  0  0  0  0  0  0  0  0
   -4.6334    2.8943    0.0000 Si  0  0  0  0  0  4  0  0  0  0  0  0
  5  4  2  0
  6  4  1  0
  7  5  1  0
  8  6  2  0
 11  7  2  0
 11  8  1  0
 11  9  1  0
 12  9  1  0
 12 10  1  0
 13  1  1  0
 13  2  1  0
 13  3  1  0
 13 10  1  0
M  END
>  <NAME>  (4850) 
BENZYL(TRIMETHYLSILYLMETHYL)AMINE

>  <SYNONYMS>  (4850) 


>  <SPECTRUM TYPE>  (4850) 
MS1

>  <INSTRUMENT TYPE>  (4850) 
EI-B

>  <INSTRUMENT>  (4850) 
JEOL JMS-D-3000

>  <ION MODE>  (4850) 
P

>  <INCHIKEY>  (4850) 
WECLUYCAWLJMKM-UHFFFAOYSA-N

>  <FORMULA>  (4850) 
C11H19NSi

>  <EXACT MASS>  (4850) 
193.128676138

>  <MW>  (4850) 
193

>  <ID>  (4850) 
JP002505

>  <CONTRIBUTOR>  (4850) 
University of Tokyo Team, {Faculty of Engineering, University of Tokyo

>  <COMMENT>  (4850) 
SMILES=c(c1)ccc(c1)CNC[Si](C)(C)C
InChI=InChI=1S/C11H19NSi/c1-13(2,3)10-12-9-11-7-5-4-6-8-11/h4-8,12H,9-10H2,1-3H3
computed SMILES=C=1C=CC(=CC1)CNC[Si](C)(C)C
accession=JP002505
date=2016.01.19 (Created 2008.10.21, modified 2011.05.06)
author=MASS SPECTROSCOPY SOC. OF JAPAN (MSSJ)
license=CC BY-NC-SA
exact mass=193.12868
ionization energy=70 eV
ion type=[M]+*
computed spectral entropy=2.2605304355108977
computed normalized entropy=0.6646278300985234
SPLASH=splash10-0fdo-9500000000-cd4f4ade68f7d058f99a
submitter=submitter = University of Tokyo Team (Faculty of Engineering, University of Tokyo)
MoNA Rating=3.75

>  <NUM PEAKS>  (4850) 
30

>  <MASS SPECTRAL PEAKS>  (4850) 
43 3.19
45 7.89
59 6.62
60 1.11
63 1.54
65 8.58
72 1.27
73 56.87
74 4.46
75 2.81
86 1.54
89 2.07
90 1.42
91 99.99
92 7.73
100 12.16
101 1.54
102 73.16
103 7.23
104 2.96
118 2.81
119 1.15
120 14.51
121 2.69
133 1.11
149 1
178 3.81
179 1.03
190 1
193 0.03

>  <PREDICTED SPECTRUM>  (4850) 
15 36
18 6
26 7
27 41
28 49
29 48
30 72
31 80
32 3
38 35
39 131
40 52
41 89
42 179
43 130
44 106
45 361
46 50
47 43
50 68
51 147
52 101
53 52
54 62
55 42
56 76
59 472
60 121
61 95
62 9
63 80
64 49
65 355
66 63
70 14
71 11
72 81
73 793
74 279
75 251
76 35
77 94
78 78
86 107
87 77
88 64
89 93
90 14
91 999
92 391
93 82
100 139
101 41
102 552
103 212
104 169
105 65
107 70
116 93
117 44
118 66
119 6
120 290
121 198
132 72
135 19
149 17
178 199
179 117
180 35
192 39
193 100
194 33

$$$$

     RDKit          2D

 13 13  0  0  0  0  0  0  0  0999 V2000
    6.4962   -0.7508    0.0000 C   0  0  0  0  0  0  0  0  0  0  0  0
    5.1968   -3.0006    0.0000 C   0  0  0  0  0  0  0  0  0  0  0  0
    1.6346   -2.6491    0.0000 C   0  0  0  0  0  0  0  0  0  0  0  0
    3.5629   -2.6494    0.0000 C   0  0  0  0  0  0  0  0  0  0  0  0
   -1.3000    0.7500    0.0000 C   0  0  0  0  0  0  0  0  0  0  0  0
    0.0000    1.5000    0.0000 C   0  0  0  0  0  0  0  0  0  0  0  0
   -1.3000   -0.7500    0.0000 C   0  0  0  0  0  0  0  0  0  0  0  0
    1.3000    0.7500    0.0000 C   0  0  0  0  0  0  0  0  0  0  0  0
    0.0000   -1.5000    0.0000 C   0  0  0  0  0  0  0  0  0  0  0  0
    3.8981   -0.7504    0.0000 C   0  0  0  0  0  0  0  0  0  0  0  0
    1.3000   -0.7500    0.0000 C   0  0  0  0  0  0  0  0  0  0  0  0
    5.1970   -1.5006    0.0000 N   0  0  0  0  0  0  0  0  0  0  0  0
    2.5989   -1.5002    0.0000 Si  0  0  0  0  0  4  0  0  0  0  0  0
  6  5  2  0
  7  5  1  0
  8  6  1  0
  9  7  2  0
 11  8  2  0
 11  9  1  0
 12  1  1  0
 12  2  1  0
 12 10  1  0
 13  3  1  0
 13  4  1  0
 13 10  1  0
 13 11  1  0
M  END
>  <NAME>  (4851) 
DIMETHYL(PHENYLDIMETHYLSILYLMETHYL)AMINE

>  <SYNONYMS>  (4851) 


>  <SPECTRUM TYPE>  (4851) 
MS1

>  <INSTRUMENT TYPE>  (4851) 
EI-B

>  <INSTRUMENT>  (4851) 
JEOL JMS-D-3000

>  <ION MODE>  (4851) 
P

>  <INCHIKEY>  (4851) 
YWEUYNRHLCXDKJ-UHFFFAOYSA-N

>  <FORMULA>  (4851) 
C11H19NSi

>  <EXACT MASS>  (4851) 
193.128676138

>  <MW>  (4851) 
193

>  <ID>  (4851) 
JP002504

>  <CONTRIBUTOR>  (4851) 
University of Tokyo Team, {Faculty of Engineering, University of Tokyo

>  <COMMENT>  (4851) 
SMILES=CN(C)C[Si](C)(C)c(c1)cccc1
InChI=InChI=1S/C11H19NSi/c1-12(2)10-13(3,4)11-8-6-5-7-9-11/h5-9H,10H2,1-4H3
computed SMILES=C=1C=CC(=CC1)[Si](C)(C)CN(C)C
accession=JP002504
date=2016.01.19 (Created 2008.10.21, modified 2011.05.06)
author=MASS SPECTROSCOPY SOC. OF JAPAN (MSSJ)
license=CC BY-NC-SA
exact mass=193.12868
ionization energy=70 eV
ion type=[M]+*
computed spectral entropy=1.1185824231600878
computed normalized entropy=0.42385681076627585
SPLASH=splash10-0a4i-9100000000-6b05eaa8897a9b6feb65
submitter=submitter = University of Tokyo Team (Faculty of Engineering, University of Tokyo)
MoNA Rating=3.75

>  <NUM PEAKS>  (4851) 
14

>  <MASS SPECTRAL PEAKS>  (4851) 
42 2.99
43 2.57
53 1.14
57 2.44
58 99.99
59 3.78
78 1.1
105 1.89
107 1.3
121 1.41
135 5.86
137 1.21
178 1.47
193 3.8

>  <PREDICTED SPECTRUM>  (4851) 
15 0
27 48
28 60
29 67
30 69
39 99
40 45
41 129
42 305
43 136
44 313
45 206
46 66
50 50
51 151
52 68
53 94
54 23
55 54
56 89
57 73
58 999
59 333
60 2
61 37
62 17
63 94
64 14
65 151
66 51
67 53
71 93
72 8
73 276
74 84
75 91
76 16
77 160
78 164
79 68
80 31
81 34
82 26
89 47
91 253
92 127
93 177
94 43
102 112
103 89
104 105
105 129
106 47
107 61
115 153
116 210
117 181
118 70
119 96
120 75
121 203
132 44
133 33
134 73
135 194
136 139
137 69
148 79
149 183
150 83
178 162
179 38
192 101
193 167
194 73

$$$$

     RDKit          2D

 13 13  0  0  0  0  0  0  0  0999 V2000
   -5.5207    3.1321    0.0000 C   0  0  0  0  0  0  0  0  0  0  0  0
   -4.2216    5.3821    0.0000 C   0  0  0  0  0  0  0  0  0  0  0  0
    3.5726    0.8821    0.0000 C   0  0  0  0  0  0  0  0  0  0  0  0
    3.5731    2.3829    0.0000 C   0  0  0  0  0  0  0  0  0  0  0  0
    2.2731    0.1313    0.0000 C   0  0  0  0  0  0  0  0  0  0  0  0
    2.2740    3.1329    0.0000 C   0  0  0  0  0  0  0  0  0  0  0  0
    0.9740    0.8813    0.0000 C   0  0  0  0  0  0  0  0  0  0  0  0
   -0.3245    3.1321    0.0000 C   0  0  0  0  0  0  0  0  0  0  0  0
   -1.6236    2.3821    0.0000 C   0  0  0  0  0  0  0  0  0  0  0  0
    0.9745    2.3821    0.0000 C   0  0  0  0  0  0  0  0  0  0  0  0
   -2.9226    3.1321    0.0000 C   0  0  0  0  0  0  0  0  0  0  0  0
   -4.2216    2.3821    0.0000 S   0  0  0  0  0  0  0  0  0  0  0  0
   -2.9226    4.6321    0.0000 S   0  0  0  0  0  0  0  0  0  0  0  0
  4  3  2  0
  5  3  1  0
  6  4  1  0
  7  5  2  0
  9  8  1  0
 10  6  2  0
 10  7  1  0
 10  8  1  0
 11  9  1  0
 12  1  1  0
 12 11  1  0
 13  2  1  0
 13 11  1  0
M  END
>  <NAME>  (4852) 
3-PHENYL-1,1-BIS(METHYLTHIO)PROPANE

>  <SYNONYMS>  (4852) 


>  <SPECTRUM TYPE>  (4852) 
MS1

>  <INSTRUMENT TYPE>  (4852) 
EI-B

>  <INSTRUMENT>  (4852) 
JEOL JMS-D-3000

>  <ION MODE>  (4852) 
P

>  <INCHIKEY>  (4852) 
DOUCNIUISDRCHR-UHFFFAOYSA-N

>  <FORMULA>  (4852) 
C11H16S2

>  <EXACT MASS>  (4852) 
212.069342512

>  <MW>  (4852) 
212

>  <ID>  (4852) 
JP002503

>  <CONTRIBUTOR>  (4852) 
University of Tokyo Team, {Faculty of Engineering, University of Tokyo

>  <COMMENT>  (4852) 
SMILES=CSC(SC)CCc(c1)cccc1
InChI=InChI=1S/C11H16S2/c1-12-11(13-2)9-8-10-6-4-3-5-7-10/h3-7,11H,8-9H2,1-2H3
computed SMILES=S(C)C(SC)CCC=1C=CC=CC1
accession=JP002503
date=2016.01.19 (Created 2008.10.21, modified 2011.05.06)
author=MASS SPECTROSCOPY SOC. OF JAPAN (MSSJ)
license=CC BY-NC-SA
exact mass=212.06934
ionization energy=70 eV
ion type=[M]+*
computed spectral entropy=2.021364147568255
computed normalized entropy=0.7134528544448884
SPLASH=splash10-014i-1900000000-557fd946a4b6a22b992a
submitter=submitter = University of Tokyo Team (Faculty of Engineering, University of Tokyo)
MoNA Rating=3.75

>  <NUM PEAKS>  (4852) 
17

>  <MASS SPECTRAL PEAKS>  (4852) 
47 2.32
48 8.04
61 2.04
91 11.67
92 1.39
115 4.71
116 6.55
117 99.99
118 10.28
149 3.3
164 40.29
165 33.49
166 5.46
167 1.53
212 17.65
213 2.3
214 1.68

>  <PREDICTED SPECTRUM>  (4852) 
27 81
28 6
35 11
38 15
39 256
41 111
45 403
46 96
47 230
48 114
49 71
50 124
51 264
52 25
53 68
55 27
59 55
61 375
62 81
63 256
64 35
65 299
66 37
69 57
74 102
75 199
76 61
77 203
78 163
79 63
82 19
87 185
88 30
89 248
90 79
91 999
92 151
101 15
102 108
103 141
104 130
106 40
108 50
115 392
116 308
117 312
118 91
121 29
122 45
129 49
137 76
150 87
164 208
165 909
166 209
167 21
212 292
213 62
214 49

$$$$

     RDKit          2D

 12 12  0  0  0  0  0  0  0  0999 V2000
    5.5772   -0.0083    0.0000 C   0  0  0  0  0  0  0  0  0  0  0  0
    6.1259    2.0408    0.0000 C   0  0  0  0  0  0  0  0  0  0  0  0
    4.0768    2.5895    0.0000 C   0  0  0  0  0  0  0  0  0  0  0  0
   -1.6700   -0.9600    0.0000 C   0  0  0  0  0  0  0  0  0  0  0  0
   -0.3700   -1.7100    0.0000 C   0  0  0  0  0  0  0  0  0  0  0  0
   -1.6700    0.5400    0.0000 C   0  0  0  0  0  0  0  0  0  0  0  0
    0.9300   -0.9600    0.0000 C   0  0  0  0  0  0  0  0  0  0  0  0
   -0.3700    1.2900    0.0000 C   0  0  0  0  0  0  0  0  0  0  0  0
    3.5281    0.5404    0.0000 C   0  0  0  0  0  0  0  0  0  0  0  0
    0.9300    0.5400    0.0000 C   0  0  0  0  0  0  0  0  0  0  0  0
    2.2289    1.2902    0.0000 S   0  0  0  0  0  0  0  0  0  0  0  0
    4.8270    1.2906    0.0000 Si  0  0  0  0  0  4  0  0  0  0  0  0
  5  4  2  0
  6  4  1  0
  7  5  1  0
  8  6  2  0
 10  7  2  0
 10  8  1  0
 11  9  1  0
 11 10  1  0
 12  1  1  0
 12  2  1  0
 12  3  1  0
 12  9  1  0
M  END
>  <NAME>  (4853) 
PHENYLTHIOMETHYLTRIMETHYLSILANE

>  <SYNONYMS>  (4853) 


>  <SPECTRUM TYPE>  (4853) 
MS1

>  <INSTRUMENT TYPE>  (4853) 
EI-B

>  <INSTRUMENT>  (4853) 
JEOL JMS-D-3000

>  <ION MODE>  (4853) 
P

>  <INCHIKEY>  (4853) 
UOQDIMYVQSHALM-UHFFFAOYSA-N

>  <FORMULA>  (4853) 
C10H16SSi

>  <EXACT MASS>  (4853) 
196.074198042

>  <MW>  (4853) 
196

>  <ID>  (4853) 
JP002502

>  <CONTRIBUTOR>  (4853) 
University of Tokyo Team, {Faculty of Engineering, University of Tokyo

>  <COMMENT>  (4853) 
SMILES=c(c1)ccc(c1)SC[Si](C)(C)C
InChI=InChI=1S/C10H16SSi/c1-12(2,3)9-11-10-7-5-4-6-8-10/h4-8H,9H2,1-3H3
computed SMILES=S(C=1C=CC=CC1)C[Si](C)(C)C
accession=JP002502
date=2016.01.19 (Created 2008.10.21, modified 2011.05.06)
author=MASS SPECTROSCOPY SOC. OF JAPAN (MSSJ)
license=CC BY-NC-SA
exact mass=196.0742
ionization energy=70 eV
ion type=[M]+*
computed spectral entropy=2.470056331531466
computed normalized entropy=0.7412679275803492
SPLASH=splash10-00di-9500000000-4f9046e93221a702fbb3
submitter=submitter = University of Tokyo Team (Faculty of Engineering, University of Tokyo)
MoNA Rating=3.75

>  <NUM PEAKS>  (4853) 
28

>  <MASS SPECTRAL PEAKS>  (4853) 
43 4.62
44 3.31
45 8.13
51 3.79
58 1.03
59 4.58
65 2.51
72 4.44
73 99.99
74 9.03
75 5
77 5.58
91 11.24
105 4.34
109 1.75
135 8.72
136 1.27
137 1.62
151 2.48
165 12.41
166 1.86
167 1.58
181 26.55
182 4.24
183 2.34
196 25.48
197 4.65
198 2.41

>  <PREDICTED SPECTRUM>  (4853) 
14 18
15 52
26 20
27 97
28 37
29 81
30 25
31 103
37 33
38 72
39 229
40 84
41 197
42 172
43 262
44 43
45 461
46 88
47 135
49 10
50 141
51 228
52 84
53 46
54 44
55 87
56 108
57 75
58 40
59 323
60 72
61 79
62 41
63 124
64 54
65 232
66 143
67 48
68 30
69 131
70 122
71 142
72 1
73 999
74 307
75 305
76 105
77 258
78 175
79 123
80 37
81 71
82 75
83 117
84 53
87 284
88 146
89 91
90 75
91 172
93 52
95 3
96 15
103 8
104 53
105 118
106 16
108 68
109 327
110 220
121 21
122 29
123 250
124 125
135 25
137 24
151 36
153 79
154 17
155 89
156 18
167 344
168 86
181 280
182 143
183 49
184 16
196 444
197 175
198 154
199 13

$$$$

     RDKit          2D

 16 15  0  0  0  0  0  0  0  0999 V2000
   -8.4437    5.6250    0.0000 C   0  0  0  0  0  0  0  0  0  0  0  0
    3.2476    4.8750    0.0000 C   0  0  0  0  0  0  0  0  0  0  0  0
   -7.1447    4.8750    0.0000 C   0  0  0  0  0  0  0  0  0  0  0  0
    1.9486    5.6250    0.0000 C   0  0  0  0  0  0  0  0  0  0  0  0
   -3.2476    7.1250    0.0000 C   0  0  0  0  0  0  0  0  0  0  0  0
   -1.9486    3.3750    0.0000 C   0  0  0  0  0  0  0  0  0  0  0  0
   -3.2476    5.6250    0.0000 C   0  0  0  0  0  0  0  0  0  0  0  0
   -1.9486    4.8750    0.0000 C   0  0  0  0  0  0  0  0  0  0  0  0
   -4.5466    4.8750    0.0000 C   0  0  0  0  0  0  0  0  0  0  0  0
   -0.6495    5.6250    0.0000 C   0  0  0  0  0  0  0  0  0  0  0  0
   -4.5466    7.8750    0.0000 O   0  0  0  0  0  0  0  0  0  0  0  0
   -0.6495    2.6250    0.0000 O   0  0  0  0  0  0  0  0  0  0  0  0
   -4.5466    3.3750    0.0000 O   0  0  0  0  0  0  0  0  0  0  0  0
   -0.6495    7.1250    0.0000 O   0  0  0  0  0  0  0  0  0  0  0  0
   -5.8457    5.6250    0.0000 O   0  0  0  0  0  0  0  0  0  0  0  0
    0.6495    4.8750    0.0000 O   0  0  0  0  0  0  0  0  0  0  0  0
  3  1  1  0
  4  2  1  0
  7  5  1  0
  8  6  1  0
  8  7  1  0
  9  7  1  0
 10  8  1  0
 11  5  2  0
 12  6  2  0
 13  9  2  0
 14 10  2  0
 15  3  1  0
 15  9  1  0
 16  4  1  0
 16 10  1  0
M  END
>  <NAME>  (4854) 
DIETHYL 2,3-DIFORMYLSUCCINATE

>  <SYNONYMS>  (4854) 


>  <SPECTRUM TYPE>  (4854) 
MS1

>  <INSTRUMENT TYPE>  (4854) 
EI-B

>  <INSTRUMENT>  (4854) 
JEOL JMS-D-3000

>  <ION MODE>  (4854) 
P

>  <INCHIKEY>  (4854) 
AEISKPJPXBJHSV-UHFFFAOYSA-N

>  <FORMULA>  (4854) 
C10H14O6

>  <EXACT MASS>  (4854) 
230.07903816799998

>  <MW>  (4854) 
230

>  <ID>  (4854) 
JP002501

>  <CONTRIBUTOR>  (4854) 
University of Tokyo Team, {Faculty of Engineering, University of Tokyo

>  <COMMENT>  (4854) 
SMILES=CCOC(=O)C(C=O)C(C=O)C(=O)OCC
InChI=InChI=1S/C10H14O6/c1-3-15-9(13)7(5-11)8(6-12)10(14)16-4-2/h5-8H,3-4H2,1-2H3
computed SMILES=O=CC(C(=O)OCC)C(C=O)C(=O)OCC
accession=JP002501
date=2016.01.19 (Created 2008.10.21, modified 2011.05.06)
author=MASS SPECTROSCOPY SOC. OF JAPAN (MSSJ)
license=CC BY-NC-SA
exact mass=230.07904
ionization energy=70 eV
ion type=[M]+*
computed spectral entropy=2.628575098705659
computed normalized entropy=0.8383287984879046
SPLASH=splash10-0f89-4900000000-ddabbad8ee59a08e04cf
submitter=submitter = University of Tokyo Team (Faculty of Engineering, University of Tokyo)
MoNA Rating=3.75

>  <NUM PEAKS>  (4854) 
23

>  <MASS SPECTRAL PEAKS>  (4854) 
55 19.37
56 5.42
57 4.76
75 6.8
83 99.99
84 7.46
85 4.59
100 58.62
103 10.69
110 8.34
115 21.88
128 8.1
129 53.03
130 4.48
143 9.95
156 6.67
157 45.2
158 5.48
171 4.88
184 12.91
185 25.3
216 5.23
230 17.38

>  <PREDICTED SPECTRUM>  (4854) 
15 7
16 32
17 10
18 13
25 20
26 200
27 490
28 371
29 707
30 224
31 270
38 27
39 216
40 140
41 146
42 230
43 307
44 358
45 221
46 76
47 105
51 60
52 96
53 328
54 215
55 401
56 272
57 350
58 94
60 110
61 119
62 87
63 138
64 12
65 73
66 29
68 259
69 248
70 117
71 297
72 275
73 361
74 14
75 78
76 26
81 194
82 155
83 496
84 412
85 384
86 347
87 121
88 176
89 254
90 128
93 117
94 142
97 81
99 376
100 303
101 524
102 201
103 135
104 60
110 302
111 957
112 658
113 346
114 83
117 36
118 1
127 326
128 858
129 999
130 414
131 17
138 409
139 497
140 282
146 160
155 196
156 574
157 876
158 300
159 30
174 1
184 390
185 796
186 218
187 40
201 144
202 320
230 166
231 44

$$$$

     RDKit          2D

 12 12  0  0  0  0  0  0  0  0999 V2000
    5.2044    2.7915    0.0000 C   0  0  0  0  0  0  0  0  0  0  0  0
    2.4322    0.2764    0.0000 C   0  0  0  0  0  0  0  0  0  0  0  0
    4.1892    1.0711    0.0000 C   0  0  0  0  0  0  0  0  0  0  0  0
    3.7117    2.9394    0.0000 C   0  0  0  0  0  0  0  0  0  0  0  0
   -1.0100    0.6500    0.0000 C   0  0  0  0  0  0  0  0  0  0  0  0
   -1.4900   -0.7700    0.0000 C   0  0  0  0  0  0  0  0  0  0  0  0
    0.9500   -0.7700    0.0000 C   0  0  0  0  0  0  0  0  0  0  0  0
    0.4700    0.6500    0.0000 C   0  0  0  0  0  0  0  0  0  0  0  0
    1.3445    1.8687    0.0000 C   0  0  0  0  0  0  0  0  0  0  0  0
    2.8372    1.7207    0.0000 C   0  0  0  0  0  0  0  0  0  0  0  0
    0.7263    3.2354    0.0000 O   0  0  0  0  0  0  0  0  0  0  0  0
   -0.2600   -1.6500    0.0000 O   0  0  0  0  0  0  0  0  0  0  0  0
  4  1  2  0
  6  5  2  0
  8  5  1  0
  8  7  2  0
  9  8  1  0
 10  2  1  0
 10  3  1  0
 10  4  1  0
 10  9  1  0
 11  9  2  0
 12  6  1  0
 12  7  1  0
M  END
>  <NAME>  (4855) 
3-FURYL 1,1-DIMETHYL-2-PROPENYL KETONE

>  <SYNONYMS>  (4855) 


>  <SPECTRUM TYPE>  (4855) 
MS1

>  <INSTRUMENT TYPE>  (4855) 
EI-B

>  <INSTRUMENT>  (4855) 
JEOL JMS-D-3000

>  <ION MODE>  (4855) 
P

>  <INCHIKEY>  (4855) 
CJCMABCNODTCIC-UHFFFAOYSA-N

>  <FORMULA>  (4855) 
C10H12O2

>  <EXACT MASS>  (4855) 
164.083729624

>  <MW>  (4855) 
164

>  <ID>  (4855) 
JP002500

>  <CONTRIBUTOR>  (4855) 
University of Tokyo Team, {Faculty of Engineering, University of Tokyo

>  <COMMENT>  (4855) 
SMILES=C=CC(C)(C)C(=O)c(c1)coc1
InChI=InChI=1S/C10H12O2/c1-4-10(2,3)9(11)8-5-6-12-7-8/h4-7H,1H2,2-3H3
computed SMILES=O=C(C1=COC=C1)C(C=C)(C)C
accession=JP002500
date=2016.01.19 (Created 2008.10.21, modified 2011.05.06)
author=MASS SPECTROSCOPY SOC. OF JAPAN (MSSJ)
license=CC BY-NC-SA
exact mass=164.08373
ionization energy=70 eV
ion type=[M]+*
computed spectral entropy=0.9074214838781319
computed normalized entropy=0.43637749159569517
SPLASH=splash10-0002-9000000000-b04ea3a29322e164cf8f
submitter=submitter = University of Tokyo Team (Faculty of Engineering, University of Tokyo)
MoNA Rating=3.75

>  <NUM PEAKS>  (4855) 
8

>  <MASS SPECTRAL PEAKS>  (4855) 
32 3.66
41 3.33
69 3.41
95 99.99
96 5.84
135 1.25
164 9.51
165 1.14

>  <PREDICTED SPECTRUM>  (4855) 
26 53
27 157
28 33
29 104
37 65
38 133
39 421
40 160
41 458
42 106
43 82
44 19
49 42
50 134
51 219
52 121
53 228
54 29
55 121
57 170
63 50
64 20
65 130
66 102
67 291
68 253
69 349
70 22
77 98
78 68
79 157
80 159
81 214
82 56
91 67
92 13
93 174
94 136
95 999
96 261
107 140
108 461
109 203
110 131
120 30
121 212
122 81
123 67
136 94
137 45
149 333
150 50
164 233
165 54

$$$$

     RDKit          2D

 14 13  0  0  0  0  0  0  0  0999 V2000
   -8.4437    5.6250    0.0000 C   0  0  0  0  0  0  0  0  0  0  0  0
    3.2476    4.8750    0.0000 C   0  0  0  0  0  0  0  0  0  0  0  0
   -7.1447    4.8750    0.0000 C   0  0  0  0  0  0  0  0  0  0  0  0
    1.9486    5.6250    0.0000 C   0  0  0  0  0  0  0  0  0  0  0  0
   -3.2476    5.6250    0.0000 C   0  0  0  0  0  0  0  0  0  0  0  0
   -1.9486    3.3750    0.0000 C   0  0  0  0  0  0  0  0  0  0  0  0
   -1.9486    4.8750    0.0000 C   0  0  0  0  0  0  0  0  0  0  0  0
   -4.5466    4.8750    0.0000 C   0  0  0  0  0  0  0  0  0  0  0  0
   -0.6495    5.6250    0.0000 C   0  0  0  0  0  0  0  0  0  0  0  0
   -0.6495    2.6250    0.0000 O   0  0  0  0  0  0  0  0  0  0  0  0
   -4.5466    3.3750    0.0000 O   0  0  0  0  0  0  0  0  0  0  0  0
   -0.6495    7.1250    0.0000 O   0  0  0  0  0  0  0  0  0  0  0  0
   -5.8457    5.6250    0.0000 O   0  0  0  0  0  0  0  0  0  0  0  0
    0.6495    4.8750    0.0000 O   0  0  0  0  0  0  0  0  0  0  0  0
  3  1  1  0
  4  2  1  0
  7  5  1  0
  7  6  1  0
  8  5  1  0
  9  7  1  0
 10  6  2  0
 11  8  2  0
 12  9  2  0
 13  3  1  0
 13  8  1  0
 14  4  1  0
 14  9  1  0
M  END
>  <NAME>  (4856) 
DIETHYL 2-FORMYLSUCCINATE

>  <SYNONYMS>  (4856) 


>  <SPECTRUM TYPE>  (4856) 
MS1

>  <INSTRUMENT TYPE>  (4856) 
EI-B

>  <INSTRUMENT>  (4856) 
JEOL JMS-D-3000

>  <ION MODE>  (4856) 
P

>  <INCHIKEY>  (4856) 
LHHLYOVYBZWIGM-UHFFFAOYSA-N

>  <FORMULA>  (4856) 
C9H14O5

>  <EXACT MASS>  (4856) 
202.084123548

>  <MW>  (4856) 
202

>  <ID>  (4856) 
JP002499

>  <CONTRIBUTOR>  (4856) 
University of Tokyo Team, {Faculty of Engineering, University of Tokyo

>  <COMMENT>  (4856) 
SMILES=CCOC(=O)CC(C=O)C(=O)OCC
InChI=InChI=1S/C9H14O5/c1-3-13-8(11)5-7(6-10)9(12)14-4-2/h6-7H,3-5H2,1-2H3
computed SMILES=O=CC(C(=O)OCC)CC(=O)OCC
accession=JP002499
date=2016.01.19 (Created 2008.10.21, modified 2011.05.06)
author=MASS SPECTROSCOPY SOC. OF JAPAN (MSSJ)
license=CC BY-NC-SA
exact mass=202.08412
ionization energy=70 eV
ion type=[M]+*
computed spectral entropy=2.829823301772757
computed normalized entropy=0.8492345812304204
SPLASH=splash10-056r-9700000000-45c03da07d87852f3342
submitter=submitter = University of Tokyo Team (Faculty of Engineering, University of Tokyo)
MoNA Rating=3.75

>  <NUM PEAKS>  (4856) 
28

>  <MASS SPECTRAL PEAKS>  (4856) 
54 5.52
55 84.69
56 14.67
57 14.52
60 6.03
71 2.8
72 8.13
73 49.2
74 3.21
82 4.36
83 74.5
84 17.37
85 5.59
88 18.31
98 14.68
99 62.96
100 65.68
101 4.56
110 21.07
111 13.77
128 99.99
129 63.8
130 5.45
156 18.49
157 35.55
158 2.93
174 10.01
202 5.7

>  <PREDICTED SPECTRUM>  (4856) 
26 31
27 170
28 62
29 320
31 69
39 74
40 34
41 109
42 147
43 286
44 181
45 166
46 53
47 85
53 74
54 159
55 480
56 347
57 114
60 184
61 126
68 59
70 29
71 153
72 224
73 294
74 158
75 63
82 197
83 551
84 492
85 215
86 85
87 24
88 211
98 93
99 459
100 826
101 456
102 184
103 57
110 294
111 342
112 21
127 80
128 999
129 770
130 238
131 19
146 4
156 494
157 573
158 159
174 177
175 9
202 81
203 25

$$$$

     RDKit          2D

 10 10  0  0  0  0  0  0  0  0999 V2000
    5.2044    2.7915    0.0000 C   0  0  0  0  0  0  0  0  0  0  0  0
    3.7117    2.9394    0.0000 C   0  0  0  0  0  0  0  0  0  0  0  0
    2.8372    1.7207    0.0000 C   0  0  0  0  0  0  0  0  0  0  0  0
   -1.0100    0.6500    0.0000 C   0  0  0  0  0  0  0  0  0  0  0  0
   -1.4900   -0.7700    0.0000 C   0  0  0  0  0  0  0  0  0  0  0  0
    0.9500   -0.7700    0.0000 C   0  0  0  0  0  0  0  0  0  0  0  0
    0.4700    0.6500    0.0000 C   0  0  0  0  0  0  0  0  0  0  0  0
    1.3445    1.8687    0.0000 C   0  0  0  0  0  0  0  0  0  0  0  0
    0.7263    3.2354    0.0000 O   0  0  0  0  0  0  0  0  0  0  0  0
   -0.2600   -1.6500    0.0000 O   0  0  0  0  0  0  0  0  0  0  0  0
  2  1  2  0
  3  2  1  0
  5  4  2  0
  7  4  1  0
  7  6  2  0
  8  3  1  0
  8  7  1  0
  9  8  1  0
 10  5  1  0
 10  6  1  0
M  END
>  <NAME>  (4857) 
1-(3-FURYL)-3-BUTENE-1-OL

>  <SYNONYMS>  (4857) 


>  <SPECTRUM TYPE>  (4857) 
MS1

>  <INSTRUMENT TYPE>  (4857) 
EI-B

>  <INSTRUMENT>  (4857) 
JEOL JMS-D-3000

>  <ION MODE>  (4857) 
P

>  <INCHIKEY>  (4857) 
YFOVGIPVIZYMST-UHFFFAOYSA-N

>  <FORMULA>  (4857) 
C8H10O2

>  <EXACT MASS>  (4857) 
138.06807956

>  <MW>  (4857) 
138

>  <ID>  (4857) 
JP002497

>  <CONTRIBUTOR>  (4857) 
University of Tokyo Team, {Faculty of Engineering, University of Tokyo

>  <COMMENT>  (4857) 
SMILES=C=CCC(O)c(c([H])1)c([H])c([H])o1
InChI=InChI=1S/C8H10O2/c1-2-3-8(9)7-4-5-10-6-7/h2,4-6,8-9H,1,3H2
computed SMILES=OC(C1=COC=C1)CC=C
accession=JP002497
date=2016.01.19 (Created 2008.10.21, modified 2011.05.06)
author=MASS SPECTROSCOPY SOC. OF JAPAN (MSSJ)
license=CC BY-NC-SA
exact mass=138.06808
ionization energy=70 eV
ion type=[M]+*
computed spectral entropy=2.544168611872631
computed normalized entropy=0.7340918879068006
SPLASH=splash10-0007-9200000000-95dc47c412c92548ff3b
submitter=submitter = University of Tokyo Team (Faculty of Engineering, University of Tokyo)
MoNA Rating=3.75

>  <NUM PEAKS>  (4857) 
32

>  <MASS SPECTRAL PEAKS>  (4857) 
42 27.3
45 2.5
50 3.67
51 9.08
52 2.37
53 2.67
55 1.78
57 3.66
60 1.86
62 2.4
63 7.19
64 1.89
65 19.15
66 2.95
67 1.33
69 23.26
77 3.91
78 1.95
79 1.54
89 2.92
90 2.4
91 88.76
92 10.1
95 11.65
96 4.55
97 99.99
98 5.29
105 1.59
119 6.73
120 57.04
121 5.8
138 6.38

>  <PREDICTED SPECTRUM>  (4857) 
14 21
17 1
18 12
25 12
26 106
27 255
28 105
29 184
31 240
32 15
36 46
37 63
38 169
39 532
40 200
41 478
42 153
43 260
44 78
45 162
46 96
47 88
48 28
49 130
50 184
51 350
52 151
53 310
54 67
55 133
56 90
57 423
58 27
59 23
61 5
62 47
63 93
65 140
66 94
67 205
68 228
69 409
70 232
71 250
72 21
76 11
77 302
78 70
79 104
80 193
81 210
82 56
91 186
93 2
95 848
96 66
97 999
98 352
99 156
109 200
110 51
120 158
121 92
122 4
137 17
138 277
139 51

$$$$

     RDKit          2D

 10 10  0  0  0  0  0  0  0  0999 V2000
    5.8815   -0.8855    0.0000 C   0  0  0  0  0  0  0  0  0  0  0  0
    4.7678    0.1193    0.0000 C   0  0  0  0  0  0  0  0  0  0  0  0
   -1.1700   -1.2200    0.0000 C   0  0  0  0  0  0  0  0  0  0  0  0
    3.3407   -0.3428    0.0000 C   0  0  0  0  0  0  0  0  0  0  0  0
    0.3300   -1.2200    0.0000 C   0  0  0  0  0  0  0  0  0  0  0  0
   -1.6300    0.2000    0.0000 C   0  0  0  0  0  0  0  0  0  0  0  0
    2.2271    0.6621    0.0000 C   0  0  0  0  0  0  0  0  0  0  0  0
    0.8000    0.2000    0.0000 C   0  0  0  0  0  0  0  0  0  0  0  0
    2.5404    2.1290    0.0000 O   0  0  0  0  0  0  0  0  0  0  0  0
   -0.4200    1.0800    0.0000 O   0  0  0  0  0  0  0  0  0  0  0  0
  2  1  2  0
  4  2  1  0
  5  3  1  0
  6  3  2  0
  7  4  1  0
  8  5  2  0
  8  7  1  0
  9  7  1  0
 10  6  1  0
 10  8  1  0
M  END
>  <NAME>  (4858) 
1-(2-FURYL)-3-BUTENE-1-OL

>  <SYNONYMS>  (4858) 


>  <SPECTRUM TYPE>  (4858) 
MS1

>  <INSTRUMENT TYPE>  (4858) 
EI-B

>  <INSTRUMENT>  (4858) 
JEOL JMS-D-300

>  <ION MODE>  (4858) 
P

>  <INCHIKEY>  (4858) 
LCSKPZJIQPMRAV-UHFFFAOYSA-N

>  <FORMULA>  (4858) 
C8H10O2

>  <EXACT MASS>  (4858) 
138.06807956

>  <MW>  (4858) 
138

>  <ID>  (4858) 
JP002496

>  <CONTRIBUTOR>  (4858) 
University of Tokyo Team, {Faculty of Engineering, University of Tokyo

>  <COMMENT>  (4858) 
SMILES=C=CCC(O)c(o1)c([H])c([H])c([H])1
InChI=InChI=1S/C8H10O2/c1-2-4-7(9)8-5-3-6-10-8/h2-3,5-7,9H,1,4H2
computed SMILES=OC(C=1OC=CC1)CC=C
accession=JP002496
date=2016.01.19 (Created 2008.10.21, modified 2011.05.06)
author=MASS SPECTROSCOPY SOC. OF JAPAN (MSSJ)
license=CC BY-NC-SA
exact mass=138.06808
ionization energy=70 eV
ion type=[M]+*
computed spectral entropy=1.5974555326194162
computed normalized entropy=0.6428633980096206
SPLASH=splash10-000t-9000000000-6411f35db2ce4a6ab8dd
submitter=submitter = University of Tokyo Team (Faculty of Engineering, University of Tokyo)
MoNA Rating=3.75

>  <NUM PEAKS>  (4858) 
12

>  <MASS SPECTRAL PEAKS>  (4858) 
28 37.03
32 56.75
40 1.98
41 5.18
43 1.03
69 2.89
91 5.31
92 1.05
97 99.99
98 5.62
120 7.75
138 3.97

>  <PREDICTED SPECTRUM>  (4858) 
26 1
27 33
31 11
37 8
38 52
39 247
40 39
41 273
42 120
43 126
49 16
50 32
51 134
52 14
53 103
57 200
63 8
65 56
67 303
68 120
69 393
70 39
71 235
77 14
80 16
81 140
95 585
96 135
97 999
98 308
109 109
110 33
119 9
120 240
121 136
123 5
138 274
139 44

$$$$

     RDKit          2D

 10 10  0  0  0  0  0  0  0  0999 V2000
   -1.6700   -0.9602    0.0000 C   0  0  0  0  0  0  0  0  0  0  0  0
    6.1262    0.5406    0.0000 C   0  0  0  0  0  0  0  0  0  0  0  0
    4.8262    1.2906    0.0000 C   0  0  0  0  0  0  0  0  0  0  0  0
    6.1262   -0.9594    0.0000 C   0  0  0  0  0  0  0  0  0  0  0  0
    3.5262    0.5406    0.0000 C   0  0  0  0  0  0  0  0  0  0  0  0
    4.8262   -1.7094    0.0000 C   0  0  0  0  0  0  0  0  0  0  0  0
    0.9281   -0.9598    0.0000 C   0  0  0  0  0  0  0  0  0  0  0  0
    3.5262   -0.9594    0.0000 C   0  0  0  0  0  0  0  0  0  0  0  0
   -0.3708   -1.7100    0.0000 O   0  0  0  0  0  0  0  0  0  0  0  0
    2.2272   -1.7096    0.0000 S   0  0  0  0  0  0  0  0  0  0  0  0
  3  2  2  0
  4  2  1  0
  5  3  1  0
  6  4  2  0
  8  5  2  0
  8  6  1  0
  9  1  1  0
  9  7  1  0
 10  7  1  0
 10  8  1  0
M  END
>  <NAME>  (4859) 
PHENYLTHIOMETHYL METHYL ETHER

>  <SYNONYMS>  (4859) 


>  <SPECTRUM TYPE>  (4859) 
MS1

>  <INSTRUMENT TYPE>  (4859) 
EI-B

>  <INSTRUMENT>  (4859) 
JEOL JMS-D-3000

>  <ION MODE>  (4859) 
P

>  <INCHIKEY>  (4859) 
QPXQVNXSQCRWEV-UHFFFAOYSA-N

>  <FORMULA>  (4859) 
C8H10OS

>  <EXACT MASS>  (4859) 
154.04523594

>  <MW>  (4859) 
154

>  <ID>  (4859) 
JP002495

>  <CONTRIBUTOR>  (4859) 
University of Tokyo Team, {Faculty of Engineering, University of Tokyo

>  <COMMENT>  (4859) 
SMILES=COCSc(c1)cccc1
InChI=InChI=1S/C8H10OS/c1-9-7-10-8-5-3-2-4-6-8/h2-6H,7H2,1H3
computed SMILES=O(C)CSC=1C=CC=CC1
ion type=[M]+*
accession=JP002495
date=2016.01.19 (Created 2008.10.21, modified 2011.05.06)
author=MASS SPECTROSCOPY SOC. OF JAPAN (MSSJ)
license=CC BY-NC-SA
exact mass=154.04524
ionization energy=70 eV
computed spectral entropy=1.7128698405906349
computed normalized entropy=0.5926122949102552
SPLASH=splash10-0002-9300000000-115698aa26c48f982aef
submitter=submitter = University of Tokyo Team (Faculty of Engineering, University of Tokyo)
MoNA Rating=3.75

>  <NUM PEAKS>  (4859) 
18

>  <MASS SPECTRAL PEAKS>  (4859) 
45 99.99
46 2.54
50 1.99
51 4.66
65 6.23
66 1.24
69 2.74
77 3.73
78 2.55
79 1.02
91 2.06
109 6.84
110 1.81
123 4.34
124 4.98
154 25.38
155 2.45
156 1.28

>  <PREDICTED SPECTRUM>  (4859) 
14 3
15 112
26 51
27 123
28 40
29 155
30 71
31 76
32 8
38 0
39 232
41 70
43 43
44 307
45 999
46 138
47 131
49 23
50 186
51 418
52 86
57 0
58 108
59 70
62 31
63 106
65 359
66 143
69 238
71 49
74 72
75 100
76 63
77 524
78 288
79 211
84 71
91 304
92 87
105 34
108 18
109 496
110 700
111 64
121 180
122 163
123 907
124 264
125 198
126 95
127 143
128 88
154 743
155 234
156 245
157 74

$$$$

     RDKit          2D

 10 10  0  0  0  0  0  0  0  0999 V2000
    5.8815   -0.8855    0.0000 C   0  0  0  0  0  0  0  0  0  0  0  0
    4.7678    0.1193    0.0000 C   0  0  0  0  0  0  0  0  0  0  0  0
   -1.1700   -1.2200    0.0000 C   0  0  0  0  0  0  0  0  0  0  0  0
    3.3407   -0.3428    0.0000 C   0  0  0  0  0  0  0  0  0  0  0  0
    0.3300   -1.2200    0.0000 C   0  0  0  0  0  0  0  0  0  0  0  0
   -1.6300    0.2000    0.0000 C   0  0  0  0  0  0  0  0  0  0  0  0
    2.2271    0.6621    0.0000 C   0  0  0  0  0  0  0  0  0  0  0  0
    0.8000    0.2000    0.0000 C   0  0  0  0  0  0  0  0  0  0  0  0
    2.5404    2.1290    0.0000 O   0  0  0  0  0  0  0  0  0  0  0  0
   -0.4200    1.0800    0.0000 O   0  0  0  0  0  0  0  0  0  0  0  0
  2  1  2  0
  4  2  1  0
  5  3  1  0
  6  3  2  0
  7  4  1  0
  8  5  2  0
  8  7  1  0
  9  7  2  0
 10  6  1  0
 10  8  1  0
M  END
>  <NAME>  (4860) 
ALLYL 2-FURYL KETONE

>  <SYNONYMS>  (4860) 


>  <SPECTRUM TYPE>  (4860) 
MS1

>  <INSTRUMENT TYPE>  (4860) 
EI-B

>  <INSTRUMENT>  (4860) 
JEOL JMS-D-3000

>  <ION MODE>  (4860) 
P

>  <INCHIKEY>  (4860) 
INHOSYWZGAASRA-UHFFFAOYSA-N

>  <FORMULA>  (4860) 
C8H8O2

>  <EXACT MASS>  (4860) 
136.052429496

>  <MW>  (4860) 
136

>  <ID>  (4860) 
JP002494

>  <CONTRIBUTOR>  (4860) 
University of Tokyo Team, {Faculty of Engineering, University of Tokyo

>  <COMMENT>  (4860) 
SMILES=C=CCC(=O)c(c1)occ1
InChI=InChI=1S/C8H8O2/c1-2-4-7(9)8-5-3-6-10-8/h2-3,5-6H,1,4H2
computed SMILES=O=C(C=1OC=CC1)CC=C
accession=JP002494
date=2016.01.19 (Created 2008.10.21, modified 2011.05.06)
author=MASS SPECTROSCOPY SOC. OF JAPAN (MSSJ)
license=CC BY-NC-SA
exact mass=136.05243
ionization energy=70 eV
ion type=[M]+*
computed spectral entropy=1.3888074013029208
computed normalized entropy=0.6678751835365375
SPLASH=splash10-0002-9600000000-ebb79890e29f9014d58b
submitter=submitter = University of Tokyo Team (Faculty of Engineering, University of Tokyo)
MoNA Rating=3.75

>  <NUM PEAKS>  (4860) 
8

>  <MASS SPECTRAL PEAKS>  (4860) 
69 3.23
79 3.57
95 99.99
96 5.51
107 7.01
108 27.75
136 37.39
137 3.79

>  <PREDICTED SPECTRUM>  (4860) 
25 8
26 62
27 156
28 27
29 94
36 9
37 116
38 199
39 546
40 129
41 340
42 53
49 4
50 92
51 187
52 100
53 112
54 65
56 1
61 6
62 23
63 82
64 32
65 144
66 98
67 206
68 137
69 142
77 123
78 19
79 128
80 86
81 37
82 142
91 38
93 15
95 999
96 246
97 102
107 189
108 234
109 48
110 17
119 41
121 92
135 49
136 395
137 119

$$$$

     RDKit          2D

 19 20  0  0  0  0  0  0  0  0999 V2000
    2.6990   -3.6400    0.0000 C   0  0  0  0  0  0  0  0  0  0  0  0
    0.1010   -3.6400    0.0000 C   0  0  0  0  0  0  0  0  0  0  0  0
    1.4000    3.1100    0.0000 C   0  0  0  0  0  0  0  0  0  0  0  0
   -4.3483    0.6587    0.0000 C   0  0  0  0  0  0  0  0  0  0  0  0
   -6.3972    0.1094    0.0000 C   0  0  0  0  0  0  0  0  0  0  0  0
   -5.8479   -1.9396    0.0000 C   0  0  0  0  0  0  0  0  0  0  0  0
    2.7000    0.8600    0.0000 C   0  0  0  0  0  0  0  0  0  0  0  0
   -2.5000    0.8600    0.0000 C   0  0  0  0  0  0  0  0  0  0  0  0
    2.7000   -0.6400    0.0000 C   0  0  0  0  0  0  0  0  0  0  0  0
   -1.2000    1.6100    0.0000 C   0  0  0  0  0  0  0  0  0  0  0  0
   -1.2000   -1.3900    0.0000 C   0  0  0  0  0  0  0  0  0  0  0  0
   -3.7989   -1.3902    0.0000 C   0  0  0  0  0  0  0  0  0  0  0  0
    1.4000   -2.8900    0.0000 C   0  0  0  0  0  0  0  0  0  0  0  0
    1.4000    1.6100    0.0000 C   0  0  0  0  0  0  0  0  0  0  0  0
   -2.5000   -0.6400    0.0000 C   0  0  0  0  0  0  0  0  0  0  0  0
    1.4000   -1.3900    0.0000 C   0  0  0  0  0  0  0  0  0  0  0  0
    0.1000    0.8600    0.0000 C   0  0  0  0  0  0  0  0  0  0  0  0
    0.1000   -0.6400    0.0000 C   0  0  0  0  0  0  0  0  0  0  0  0
   -5.0981   -0.6404    0.0000 Si  0  0  0  0  0  4  0  0  0  0  0  0
  9  7  1  0
 10  8  1  0
 13  1  1  0
 13  2  1  0
 14  3  2  0
 14  7  1  0
 15  8  2  0
 15 11  1  0
 15 12  1  0
 16  9  1  0
 16 13  1  0
 17 10  1  0
 17 14  1  0
 18 11  1  0
 18 16  1  0
 18 17  1  0
 19  4  1  0
 19  5  1  0
 19  6  1  0
 19 12  1  0
M  END
>  <NAME>  (4861) 
2-TRIMETHYLSILYLMETHYL-5-METHYLENE-8-ISOPROPYL-1,4,4A,5,6,7,8,8A-OCTAHYDRONAPHTHALENE

>  <SYNONYMS>  (4861) 


>  <SPECTRUM TYPE>  (4861) 
MS1

>  <INSTRUMENT TYPE>  (4861) 
EI-B

>  <INSTRUMENT>  (4861) 
JEOL JMS-D-3000

>  <ION MODE>  (4861) 
P

>  <INCHIKEY>  (4861) 
MDIMFWRFBWZBBF-UHFFFAOYSA-N

>  <FORMULA>  (4861) 
C18H32Si

>  <EXACT MASS>  (4861) 
276.227327554

>  <MW>  (4861) 
276

>  <ID>  (4861) 
JP002491

>  <CONTRIBUTOR>  (4861) 
University of Tokyo Team, {Faculty of Engineering, University of Tokyo

>  <COMMENT>  (4861) 
SMILES=CC(C)C(C1)C(C2)C(CC=C(C[Si](C)(C)C)2)C(=C)C1
InChI=InChI=1S/C18H32Si/c1-13(2)16-9-7-14(3)17-10-8-15(11-18(16)17)12-19(4,5)6/h8,13,16-18H,3,7,9-12H2,1-2,4-6H3
computed SMILES=C=C1CCC(C(C)C)C2CC(=CCC12)C[Si](C)(C)C
accession=JP002491
date=2016.01.19 (Created 2008.10.21, modified 2011.05.06)
author=MASS SPECTROSCOPY SOC. OF JAPAN (MSSJ)
license=CC BY-NC-SA
exact mass=276.22733
ionization energy=70 eV
ion type=[M]+*
computed spectral entropy=2.439052792625148
computed normalized entropy=0.7243357625144997
SPLASH=splash10-00di-9230000000-c186e138e0d767a5262f
submitter=submitter = University of Tokyo Team (Faculty of Engineering, University of Tokyo)
MoNA Rating=3.75

>  <NUM PEAKS>  (4861) 
29

>  <MASS SPECTRAL PEAKS>  (4861) 
42 3.04
45 3.85
59 4.92
69 1.99
73 99.99
74 8.81
75 4.55
77 1.73
79 2.28
91 3.99
92 3.36
93 5.61
105 2.76
117 1.95
119 2.95
133 1.82
135 3.79
136 5.11
140 2.02
149 2.27
159 8.29
161 2.16
162 2.36
202 4.45
209 7.74
233 6.84
261 4.11
276 26.37
277 6.76

>  <PREDICTED SPECTRUM>  (4861) 
41 22
43 38
44 0
45 231
53 20
55 15
59 162
60 5
65 2
66 31
67 66
73 999
74 244
75 291
77 57
79 186
91 235
92 56
93 156
103 83
104 16
105 160
106 19
115 62
117 205
118 32
119 139
127 11
129 188
130 84
131 7
135 11
143 211
144 54
157 46
158 30
159 39
163 7
165 7
171 118
185 11
186 232
187 14
202 9
208 25
209 229
233 115
234 3
261 106
276 253
277 111
278 9

$$$$

     RDKit          2D

 19 20  0  0  0  0  0  0  0  0999 V2000
    2.6990    3.8600    0.0000 C   0  0  0  0  0  0  0  0  0  0  0  0
    0.1010    3.8600    0.0000 C   0  0  0  0  0  0  0  0  0  0  0  0
    1.4000   -2.8900    0.0000 C   0  0  0  0  0  0  0  0  0  0  0  0
   -4.3483    0.6587    0.0000 C   0  0  0  0  0  0  0  0  0  0  0  0
   -6.3972    0.1094    0.0000 C   0  0  0  0  0  0  0  0  0  0  0  0
   -5.8479   -1.9396    0.0000 C   0  0  0  0  0  0  0  0  0  0  0  0
    2.7000   -0.6400    0.0000 C   0  0  0  0  0  0  0  0  0  0  0  0
   -2.5000    0.8600    0.0000 C   0  0  0  0  0  0  0  0  0  0  0  0
    2.7000    0.8600    0.0000 C   0  0  0  0  0  0  0  0  0  0  0  0
   -1.2000    1.6100    0.0000 C   0  0  0  0  0  0  0  0  0  0  0  0
   -1.2000   -1.3900    0.0000 C   0  0  0  0  0  0  0  0  0  0  0  0
   -3.7989   -1.3902    0.0000 C   0  0  0  0  0  0  0  0  0  0  0  0
    1.4000    3.1100    0.0000 C   0  0  0  0  0  0  0  0  0  0  0  0
    1.4000   -1.3900    0.0000 C   0  0  0  0  0  0  0  0  0  0  0  0
   -2.5000   -0.6400    0.0000 C   0  0  0  0  0  0  0  0  0  0  0  0
    1.4000    1.6100    0.0000 C   0  0  0  0  0  0  0  0  0  0  0  0
    0.1000    0.8600    0.0000 C   0  0  0  0  0  0  0  0  0  0  0  0
    0.1000   -0.6400    0.0000 C   0  0  0  0  0  0  0  0  0  0  0  0
   -5.0981   -0.6404    0.0000 Si  0  0  0  0  0  4  0  0  0  0  0  0
  9  7  1  0
 10  8  1  0
 13  1  1  0
 13  2  1  0
 14  3  2  0
 14  7  1  0
 15  8  2  0
 15 11  1  0
 15 12  1  0
 16  9  1  0
 16 13  1  0
 17 10  1  0
 17 16  1  0
 18 11  1  0
 18 14  1  0
 18 17  1  0
 19  4  1  0
 19  5  1  0
 19  6  1  0
 19 12  1  0
M  END
>  <NAME>  (4862) 
2-TRIMETHYLSILYLMETHYL-5-ISOPROPYL-8-METHYLENE-1,4,4A,5,6,7,8,8A-OCTAHYDRONAPHTHALENE

>  <SYNONYMS>  (4862) 


>  <SPECTRUM TYPE>  (4862) 
MS1

>  <INSTRUMENT TYPE>  (4862) 
EI-B

>  <INSTRUMENT>  (4862) 
JEOL JMS-D-3000

>  <ION MODE>  (4862) 
P

>  <INCHIKEY>  (4862) 
UJRQRJJLPSKUKJ-UHFFFAOYSA-N

>  <FORMULA>  (4862) 
C18H32Si

>  <EXACT MASS>  (4862) 
276.227327554

>  <MW>  (4862) 
276

>  <ID>  (4862) 
JP002490

>  <CONTRIBUTOR>  (4862) 
University of Tokyo Team, {Faculty of Engineering, University of Tokyo

>  <COMMENT>  (4862) 
SMILES=CC(C)C(C1)C(C2)C(CC(=C2)C[Si](C)(C)C)C(=C)C1
InChI=InChI=1S/C18H32Si/c1-13(2)16-9-7-14(3)18-11-15(8-10-17(16)18)12-19(4,5)6/h8,13,16-18H,3,7,9-12H2,1-2,4-6H3
computed SMILES=C=C1CCC(C(C)C)C2CC=C(CC12)C[Si](C)(C)C
accession=JP002490
date=2016.01.19 (Created 2008.10.21, modified 2011.05.06)
author=MASS SPECTROSCOPY SOC. OF JAPAN (MSSJ)
license=CC BY-NC-SA
exact mass=276.22733
ionization energy=70 eV
ion type=[M]+*
computed spectral entropy=2.3337707765421762
computed normalized entropy=0.7080965689213548
SPLASH=splash10-00di-9210000000-7275a0753f3cdfd195d0
submitter=submitter = University of Tokyo Team (Faculty of Engineering, University of Tokyo)
MoNA Rating=3.75

>  <NUM PEAKS>  (4862) 
27

>  <MASS SPECTRAL PEAKS>  (4862) 
42 3.31
45 4.64
59 4.98
69 2.02
73 99.99
74 8.75
75 4.95
77 1.72
79 1.79
91 3.39
92 5.63
93 7.52
105 2.71
117 2.51
119 1.79
133 1.98
136 12.04
148 3.88
159 6.5
166 2.23
177 1.93
206 4.44
233 7.48
234 2
261 2.67
276 11.07
277 2.85

>  <PREDICTED SPECTRUM>  (4862) 
41 55
43 62
45 192
55 29
59 222
67 82
69 16
73 999
74 232
75 249
77 38
79 180
81 21
91 214
92 5
93 115
95 8
103 25
105 126
117 113
119 152
129 33
137 16
143 18
171 6
186 31
195 36
205 5
207 11
208 38
209 131
233 114
261 137
276 369
277 166
278 27

$$$$

     RDKit          2D

 19 19  0  0  0  0  0  0  0  0999 V2000
    9.0942    0.7512    0.0000 C   0  0  0  0  0  0  0  0  0  0  0  0
    7.7948    3.0010    0.0000 C   0  0  0  0  0  0  0  0  0  0  0  0
   -3.1483    0.5487    0.0000 C   0  0  0  0  0  0  0  0  0  0  0  0
   -5.1972   -0.0006    0.0000 C   0  0  0  0  0  0  0  0  0  0  0  0
   -4.6479   -2.0496    0.0000 C   0  0  0  0  0  0  0  0  0  0  0  0
    5.1970    1.5006    0.0000 C   0  0  0  0  0  0  0  0  0  0  0  0
    6.4962    0.7508    0.0000 C   0  0  0  0  0  0  0  0  0  0  0  0
    3.8981    0.7504    0.0000 C   0  0  0  0  0  0  0  0  0  0  0  0
   -1.3000    0.7500    0.0000 C   0  0  0  0  0  0  0  0  0  0  0  0
   -0.0000   -1.5000    0.0000 C   0  0  0  0  0  0  0  0  0  0  0  0
    0.0000    1.5000    0.0000 C   0  0  0  0  0  0  0  0  0  0  0  0
    1.3000   -0.7500    0.0000 C   0  0  0  0  0  0  0  0  0  0  0  0
   -2.5989   -1.5002    0.0000 C   0  0  0  0  0  0  0  0  0  0  0  0
    7.7951    1.5010    0.0000 C   0  0  0  0  0  0  0  0  0  0  0  0
   -1.3000   -0.7500    0.0000 C   0  0  0  0  0  0  0  0  0  0  0  0
    1.3000    0.7500    0.0000 C   0  0  0  0  0  0  0  0  0  0  0  0
    2.5989    1.5002    0.0000 C   0  0  0  0  0  0  0  0  0  0  0  0
    2.5987    3.0002    0.0000 O   0  0  0  0  0  0  0  0  0  0  0  0
   -3.8981   -0.7504    0.0000 Si  0  0  0  0  0  4  0  0  0  0  0  0
  7  6  1  0
  8  6  1  0
 11  9  1  0
 12 10  1  0
 14  1  1  0
 14  2  1  0
 14  7  2  0
 15  9  2  0
 15 10  1  0
 15 13  1  0
 16 11  1  0
 16 12  1  0
 17  8  1  0
 17 16  1  0
 18 17  2  0
 19  3  1  0
 19  4  1  0
 19  5  1  0
 19 13  1  0
M  END
>  <NAME>  (4863) 
4-TRIMETHYLSILYLMETHYL-3-CYCLOHEXENYL 4-METHYL-3-PENTENYL KETONE

>  <SYNONYMS>  (4863) 


>  <SPECTRUM TYPE>  (4863) 
MS1

>  <INSTRUMENT TYPE>  (4863) 
EI-B

>  <INSTRUMENT>  (4863) 
JEOL JMS-D-3000

>  <ION MODE>  (4863) 
P

>  <INCHIKEY>  (4863) 
LBAPEYHQZIRTRZ-UHFFFAOYSA-N

>  <FORMULA>  (4863) 
C17H30OSi

>  <EXACT MASS>  (4863) 
278.20659211

>  <MW>  (4863) 
278

>  <ID>  (4863) 
JP002489

>  <CONTRIBUTOR>  (4863) 
University of Tokyo Team, {Faculty of Engineering, University of Tokyo

>  <COMMENT>  (4863) 
SMILES=CC(C)=CCCC(=O)C(C1)CC=C(C1)C[Si](C)(C)C
InChI=InChI=1S/C17H30OSi/c1-14(2)7-6-8-17(18)16-11-9-15(10-12-16)13-19(3,4)5/h7,9,16H,6,8,10-13H2,1-5H3
computed SMILES=O=C(CCC=C(C)C)C1CC=C(CC1)C[Si](C)(C)C
accession=JP002489
date=2016.01.19 (Created 2008.10.21, modified 2011.05.06)
author=MASS SPECTROSCOPY SOC. OF JAPAN (MSSJ)
license=CC BY-NC-SA
exact mass=278.20659
ionization energy=70 eV
ion type=[M]+*
computed spectral entropy=2.6741403554751293
computed normalized entropy=0.7941507044499475
SPLASH=splash10-00xr-9110000000-65009541625ec0bb72df
submitter=submitter = University of Tokyo Team (Faculty of Engineering, University of Tokyo)
MoNA Rating=3.75

>  <NUM PEAKS>  (4863) 
29

>  <MASS SPECTRAL PEAKS>  (4863) 
42 20.93
43 3.42
45 9.34
55 5.38
59 5.46
69 56.25
70 3.63
73 99.99
74 8.72
75 11.67
79 4.49
83 2.73
91 5.69
93 3.99
94 4.11
95 3.34
117 3.61
119 11.56
121 3.99
132 3.95
143 4.8
151 2.41
155 7.38
183 12.31
195 4.69
211 21.17
212 4.06
278 13.26
279 3.32

>  <PREDICTED SPECTRUM>  (4863) 
27 37
28 19
29 61
31 3
39 16
41 190
42 13
43 111
44 43
45 210
51 1
53 76
55 120
57 38
58 54
59 230
60 19
65 32
66 15
67 123
68 5
69 269
71 45
73 999
74 251
75 289
76 26
77 161
78 46
79 136
81 61
91 135
92 26
93 164
95 80
97 29
103 4
104 0
105 180
106 26
107 37
109 54
113 31
115 65
117 77
119 95
120 8
121 132
122 17
123 54
125 2
127 53
128 59
129 42
131 77
133 49
135 130
137 36
138 30
139 0
141 142
142 161
143 235
144 82
145 112
146 2
149 93
150 5
155 22
159 24
161 29
163 53
165 18
167 35
169 83
177 55
179 18
181 2
182 28
188 16
195 122
197 1
204 59
205 47
207 3
209 176
210 159
211 206
212 14
222 16
223 24
235 63
263 100
264 0
278 251
279 95
280 25

$$$$

     RDKit          2D

 19 20  0  0  0  0  0  0  0  0999 V2000
   -2.5990    3.7500    0.0000 C   0  0  0  0  0  0  0  0  0  0  0  0
   -0.0010    3.7500    0.0000 C   0  0  0  0  0  0  0  0  0  0  0  0
    4.4483   -0.5487    0.0000 C   0  0  0  0  0  0  0  0  0  0  0  0
    6.4972    0.0006    0.0000 C   0  0  0  0  0  0  0  0  0  0  0  0
    5.9479    2.0496    0.0000 C   0  0  0  0  0  0  0  0  0  0  0  0
    2.6000   -0.7500    0.0000 C   0  0  0  0  0  0  0  0  0  0  0  0
    1.3000   -1.5000    0.0000 C   0  0  0  0  0  0  0  0  0  0  0  0
   -2.6000    0.7500    0.0000 C   0  0  0  0  0  0  0  0  0  0  0  0
   -2.6000   -0.7500    0.0000 C   0  0  0  0  0  0  0  0  0  0  0  0
    1.3000    1.5000    0.0000 C   0  0  0  0  0  0  0  0  0  0  0  0
    3.8989    1.5002    0.0000 C   0  0  0  0  0  0  0  0  0  0  0  0
   -1.3000    3.0000    0.0000 C   0  0  0  0  0  0  0  0  0  0  0  0
    2.6000    0.7500    0.0000 C   0  0  0  0  0  0  0  0  0  0  0  0
   -1.3000    1.5000    0.0000 C   0  0  0  0  0  0  0  0  0  0  0  0
    0.0000   -0.7500    0.0000 C   0  0  0  0  0  0  0  0  0  0  0  0
    0.0000    0.7500    0.0000 C   0  0  0  0  0  0  0  0  0  0  0  0
   -1.3000   -1.5000    0.0000 C   0  0  0  0  0  0  0  0  0  0  0  0
   -1.3000   -3.0000    0.0000 O   0  0  0  0  0  0  0  0  0  0  0  0
    5.1981    0.7504    0.0000 Si  0  0  0  0  0  4  0  0  0  0  0  0
  7  6  1  0
  9  8  1  0
 12  1  1  0
 12  2  1  0
 13  6  2  0
 13 10  1  0
 13 11  1  0
 14  8  1  0
 14 12  1  0
 15  7  1  0
 16 10  1  0
 16 14  1  0
 16 15  1  0
 17  9  1  0
 17 15  1  0
 18 17  2  0
 19  3  1  0
 19  4  1  0
 19  5  1  0
 19 11  1  0
M  END
>  <NAME>  (4864) 
4-ISOPROPYL-6-TRIMETHYLSILYLMETHYL-3,4,4A,5,8,8A-HEXAHYDRO-1(2H)-NAPHTHALENONE

>  <SYNONYMS>  (4864) 


>  <SPECTRUM TYPE>  (4864) 
MS1

>  <INSTRUMENT TYPE>  (4864) 
EI-B

>  <INSTRUMENT>  (4864) 
JEOL JMS-D-3000

>  <ION MODE>  (4864) 
P

>  <INCHIKEY>  (4864) 
ROXCJFJOMADILD-UHFFFAOYSA-N

>  <FORMULA>  (4864) 
C17H30OSi

>  <EXACT MASS>  (4864) 
278.20659211

>  <MW>  (4864) 
278

>  <ID>  (4864) 
JP002488

>  <CONTRIBUTOR>  (4864) 
University of Tokyo Team, {Faculty of Engineering, University of Tokyo

>  <COMMENT>  (4864) 
SMILES=CC(C)C(C1)C(C2)C(CC=C(C[Si](C)(C)C)2)C(=O)C1
InChI=InChI=1S/C17H30OSi/c1-12(2)14-8-9-17(18)15-7-6-13(10-16(14)15)11-19(3,4)5/h6,12,14-16H,7-11H2,1-5H3
computed SMILES=O=C1CCC(C(C)C)C2CC(=CCC12)C[Si](C)(C)C
accession=JP002488
date=2016.01.19 (Created 2008.10.21, modified 2011.05.06)
author=MASS SPECTROSCOPY SOC. OF JAPAN (MSSJ)
license=CC BY-NC-SA
exact mass=278.20659
ionization energy=70 eV
ion type=[M]+*
computed spectral entropy=3.4297900755636044
computed normalized entropy=0.8859757129375296
SPLASH=splash10-00di-9510000000-a6a8769d2b0a60f63247
submitter=submitter = University of Tokyo Team (Faculty of Engineering, University of Tokyo)
MoNA Rating=3.75

>  <NUM PEAKS>  (4864) 
48

>  <MASS SPECTRAL PEAKS>  (4864) 
42 12.75
43 8.43
45 12.06
55 9.95
59 9.41
67 5.1
69 14.66
73 99.99
74 9.36
75 27.66
77 7.25
79 8.53
80 3.33
81 6.13
83 8.92
91 13.87
92 4.9
93 6.47
95 3.97
104 18.04
105 9.75
106 6.27
107 3.43
115 3.48
117 9.71
118 8.23
119 5.88
121 7.06
129 5.14
131 7.45
132 3.58
139 6.91
143 4.16
145 23.58
146 3.72
155 7.89
159 6.96
160 4.9
163 3.33
188 12.89
189 3.58
191 3.62
193 3.38
206 5.73
211 27.7
212 5.49
278 13.24
279 3.18

>  <PREDICTED SPECTRUM>  (4864) 
27 44
28 25
29 36
41 112
42 4
43 100
44 8
45 267
46 11
47 38
53 94
54 15
55 119
59 259
60 21
61 80
65 60
66 76
67 91
69 43
71 14
73 999
74 284
75 476
76 78
77 139
78 70
79 204
80 34
81 75
91 214
92 59
93 142
103 110
104 110
105 237
106 76
115 130
116 4
117 202
118 40
119 270
120 99
121 163
122 18
129 300
130 85
131 145
132 119
133 108
134 57
135 98
136 32
137 115
141 27
145 182
146 103
149 4
151 13
159 55
160 91
161 111
163 1
165 150
166 54
167 94
173 144
174 0
186 10
187 62
188 271
189 38
193 20
195 80
196 64
197 52
207 6
209 79
210 176
211 280
212 102
221 0
222 32
223 164
224 83
235 79
236 44
237 39
250 36
263 169
264 53
277 3
278 458
279 248
280 107

$$$$

     RDKit          2D

 19 20  0  0  0  0  0  0  0  0999 V2000
    2.5990    3.7500    0.0000 C   0  0  0  0  0  0  0  0  0  0  0  0
    0.0010    3.7500    0.0000 C   0  0  0  0  0  0  0  0  0  0  0  0
   -4.4483    0.5487    0.0000 C   0  0  0  0  0  0  0  0  0  0  0  0
   -6.4972   -0.0006    0.0000 C   0  0  0  0  0  0  0  0  0  0  0  0
   -5.9479   -2.0496    0.0000 C   0  0  0  0  0  0  0  0  0  0  0  0
   -2.6000    0.7500    0.0000 C   0  0  0  0  0  0  0  0  0  0  0  0
   -1.3000    1.5000    0.0000 C   0  0  0  0  0  0  0  0  0  0  0  0
    2.6000    0.7500    0.0000 C   0  0  0  0  0  0  0  0  0  0  0  0
    2.6000   -0.7500    0.0000 C   0  0  0  0  0  0  0  0  0  0  0  0
   -1.3000   -1.5000    0.0000 C   0  0  0  0  0  0  0  0  0  0  0  0
   -3.8989   -1.5002    0.0000 C   0  0  0  0  0  0  0  0  0  0  0  0
    1.3000    3.0000    0.0000 C   0  0  0  0  0  0  0  0  0  0  0  0
   -2.6000   -0.7500    0.0000 C   0  0  0  0  0  0  0  0  0  0  0  0
    1.3000    1.5000    0.0000 C   0  0  0  0  0  0  0  0  0  0  0  0
    0.0000    0.7500    0.0000 C   0  0  0  0  0  0  0  0  0  0  0  0
    0.0000   -0.7500    0.0000 C   0  0  0  0  0  0  0  0  0  0  0  0
    1.3000   -1.5000    0.0000 C   0  0  0  0  0  0  0  0  0  0  0  0
    1.3000   -3.0000    0.0000 O   0  0  0  0  0  0  0  0  0  0  0  0
   -5.1981   -0.7504    0.0000 Si  0  0  0  0  0  4  0  0  0  0  0  0
  7  6  1  0
  9  8  1  0
 12  1  1  0
 12  2  1  0
 13  6  2  0
 13 10  1  0
 13 11  1  0
 14  8  1  0
 14 12  1  0
 15  7  1  0
 15 14  1  0
 16 10  1  0
 16 15  1  0
 17  9  1  0
 17 16  1  0
 18 17  2  0
 19  3  1  0
 19  4  1  0
 19  5  1  0
 19 11  1  0
M  END
>  <NAME>  (4865) 
4-ISOPROPYL-7-TRIMETHYLSILYLMETHYL-3,4,4A,5,8,8A-HEXAHYDRO-1(2H)-NAPHTHALENONE

>  <SYNONYMS>  (4865) 


>  <SPECTRUM TYPE>  (4865) 
MS1

>  <INSTRUMENT TYPE>  (4865) 
EI-B

>  <INSTRUMENT>  (4865) 
JEOL JMS-D-3000

>  <ION MODE>  (4865) 
P

>  <INCHIKEY>  (4865) 
HLPZCWLAJKNQBB-UHFFFAOYSA-N

>  <FORMULA>  (4865) 
C17H30OSi

>  <EXACT MASS>  (4865) 
278.20659211

>  <MW>  (4865) 
278

>  <ID>  (4865) 
JP002487

>  <CONTRIBUTOR>  (4865) 
University of Tokyo Team, {Faculty of Engineering, University of Tokyo

>  <COMMENT>  (4865) 
SMILES=CC(C)C(C1)C(C2)C(CC(=C2)C[Si](C)(C)C)C(=O)C1
InChI=InChI=1S/C17H30OSi/c1-12(2)14-8-9-17(18)16-10-13(6-7-15(14)16)11-19(3,4)5/h6,12,14-16H,7-11H2,1-5H3
computed SMILES=O=C1CCC(C(C)C)C2CC=C(CC12)C[Si](C)(C)C
accession=JP002487
date=2016.01.19 (Created 2008.10.21, modified 2011.05.06)
author=MASS SPECTROSCOPY SOC. OF JAPAN (MSSJ)
license=CC BY-NC-SA
exact mass=278.20659
ionization energy=70 eV
ion type=[M]+*
computed spectral entropy=2.8663574694912786
computed normalized entropy=0.8512342289518389
SPLASH=splash10-00di-9340000000-99cdd177bff7b4ebd745
submitter=submitter = University of Tokyo Team (Faculty of Engineering, University of Tokyo)
MoNA Rating=3.75

>  <NUM PEAKS>  (4865) 
29

>  <MASS SPECTRAL PEAKS>  (4865) 
41 9.39
43 4.07
45 10.18
55 5.99
59 6.02
69 9.49
73 99.99
74 8.8
75 16.38
79 3.94
91 8.27
95 4.16
104 4.14
105 4.31
117 10.42
118 5.4
119 4.52
129 7.73
145 15.09
155 17.52
191 6.72
193 6.48
208 4.73
211 33.67
212 6.28
235 10.52
263 9.61
278 27.57
279 6.77

>  <PREDICTED SPECTRUM>  (4865) 
29 0
41 58
43 5
45 164
53 27
55 71
57 18
59 261
61 4
67 106
69 36
73 999
74 237
75 395
76 14
77 78
78 1
79 198
80 13
81 126
91 218
92 34
93 152
94 1
95 13
103 77
104 51
105 215
106 25
115 22
117 179
118 28
119 221
120 101
121 130
129 238
131 99
132 94
133 1
135 53
137 11
141 18
145 143
146 29
160 6
165 167
166 13
167 80
173 106
179 84
180 123
182 24
188 165
191 16
193 118
194 37
195 104
196 164
197 82
205 56
206 52
207 148
208 24
209 81
210 95
211 207
212 14
222 83
223 140
224 53
235 95
236 42
250 6
263 200
264 48
278 579
279 353
280 172

$$$$

     RDKit          2D

 15 16  0  0  0  0  0  0  0  0999 V2000
   -4.1583    0.5487    0.0000 C   0  0  0  0  0  0  0  0  0  0  0  0
   -6.2072   -0.0006    0.0000 C   0  0  0  0  0  0  0  0  0  0  0  0
   -5.6579   -2.0496    0.0000 C   0  0  0  0  0  0  0  0  0  0  0  0
   -2.3100    0.7500    0.0000 C   0  0  0  0  0  0  0  0  0  0  0  0
   -1.0100    1.5000    0.0000 C   0  0  0  0  0  0  0  0  0  0  0  0
    1.7200    1.2100    0.0000 C   0  0  0  0  0  0  0  0  0  0  0  0
    2.6000    0.0000    0.0000 C   0  0  0  0  0  0  0  0  0  0  0  0
   -1.0100   -1.5000    0.0000 C   0  0  0  0  0  0  0  0  0  0  0  0
   -3.6089   -1.5002    0.0000 C   0  0  0  0  0  0  0  0  0  0  0  0
   -2.3100   -0.7500    0.0000 C   0  0  0  0  0  0  0  0  0  0  0  0
    0.2900    0.7500    0.0000 C   0  0  0  0  0  0  0  0  0  0  0  0
    0.2900   -0.7500    0.0000 C   0  0  0  0  0  0  0  0  0  0  0  0
    1.7200   -1.2100    0.0000 C   0  0  0  0  0  0  0  0  0  0  0  0
    2.1853   -2.6360    0.0000 O   0  0  0  0  0  0  0  0  0  0  0  0
   -4.9081   -0.7504    0.0000 Si  0  0  0  0  0  4  0  0  0  0  0  0
  5  4  1  0
  7  6  1  0
 10  4  2  0
 10  8  1  0
 10  9  1  0
 11  5  1  0
 11  6  1  0
 12  8  1  0
 12 11  1  0
 13  7  1  0
 13 12  1  0
 14 13  2  0
 15  1  1  0
 15  2  1  0
 15  3  1  0
 15  9  1  0
M  END
>  <NAME>  (4866) 
6-TRIMETHYLSILYLMETHYL-2,3,3A,4,7,7A-HEXAHYDROINDEN-1-ONE

>  <SYNONYMS>  (4866) 


>  <SPECTRUM TYPE>  (4866) 
MS1

>  <INSTRUMENT TYPE>  (4866) 
EI-B

>  <INSTRUMENT>  (4866) 
JEOL JMS-D-3000

>  <ION MODE>  (4866) 
P

>  <INCHIKEY>  (4866) 
URLCUOXPPURWLW-UHFFFAOYSA-N

>  <FORMULA>  (4866) 
C13H22OSi

>  <EXACT MASS>  (4866) 
222.143991854

>  <MW>  (4866) 
222

>  <ID>  (4866) 
JP002485

>  <CONTRIBUTOR>  (4866) 
University of Tokyo Team, {Faculty of Engineering, University of Tokyo

>  <COMMENT>  (4866) 
SMILES=O=C(C2)C(C1)C(C2)CC=C(C[Si](C)(C)C)1
InChI=InChI=1S/C13H22OSi/c1-15(2,3)9-10-4-5-11-6-7-13(14)12(11)8-10/h4,11-12H,5-9H2,1-3H3
computed SMILES=O=C1CCC2CC=C(CC12)C[Si](C)(C)C
accession=JP002485
date=2016.01.19 (Created 2008.10.21, modified 2011.05.06)
author=MASS SPECTROSCOPY SOC. OF JAPAN (MSSJ)
license=CC BY-NC-SA
exact mass=222.14399
ionization energy=70 eV
ion type=[M]+*
computed spectral entropy=2.81651599865499
computed normalized entropy=0.911186449605355
SPLASH=splash10-00di-9860000000-01636aed43c5ae9d88f3
submitter=submitter = University of Tokyo Team (Faculty of Engineering, University of Tokyo)
MoNA Rating=3.75

>  <NUM PEAKS>  (4866) 
22

>  <MASS SPECTRAL PEAKS>  (4866) 
45 12.96
59 11.37
73 99.99
75 14.02
91 17.72
92 18.25
105 20.1
106 20.37
117 25.39
131 10.58
132 14.28
133 13.75
141 9.25
148 8.73
179 14.81
181 10.84
193 12.16
194 14.02
207 30.68
221 20.1
222 57.93
223 16.4

>  <PREDICTED SPECTRUM>  (4866) 
27 26
31 14
39 11
41 71
43 77
45 272
46 1
47 61
51 26
52 6
53 98
54 46
55 61
57 18
58 18
59 241
60 70
61 28
65 59
66 82
67 131
69 5
71 27
72 2
73 999
74 278
75 354
76 77
77 149
78 85
79 142
80 21
81 77
82 18
83 12
85 45
89 0
91 178
92 28
93 39
95 51
97 16
99 14
103 154
104 156
105 164
106 30
107 4
109 68
115 43
117 212
118 70
119 27
120 35
128 16
129 100
130 106
131 272
132 318
133 70
137 2
139 16
141 30
144 5
147 35
148 120
149 77
150 23
151 15
153 98
154 173
155 288
156 135
163 2
165 142
166 129
167 281
168 171
169 86
177 10
179 135
180 69
181 154
182 32
193 77
194 122
195 60
207 209
208 77
209 8
221 149
222 569
223 248
224 102

$$$$

     RDKit          2D

 15 16  0  0  0  0  0  0  0  0999 V2000
   -4.1583    0.5487    0.0000 C   0  0  0  0  0  0  0  0  0  0  0  0
   -6.2072   -0.0006    0.0000 C   0  0  0  0  0  0  0  0  0  0  0  0
   -5.6579   -2.0496    0.0000 C   0  0  0  0  0  0  0  0  0  0  0  0
   -2.3100    0.7500    0.0000 C   0  0  0  0  0  0  0  0  0  0  0  0
    1.7200   -1.2100    0.0000 C   0  0  0  0  0  0  0  0  0  0  0  0
   -1.0100    1.5000    0.0000 C   0  0  0  0  0  0  0  0  0  0  0  0
    2.6000    0.0000    0.0000 C   0  0  0  0  0  0  0  0  0  0  0  0
   -1.0100   -1.5000    0.0000 C   0  0  0  0  0  0  0  0  0  0  0  0
   -3.6089   -1.5002    0.0000 C   0  0  0  0  0  0  0  0  0  0  0  0
   -2.3100   -0.7500    0.0000 C   0  0  0  0  0  0  0  0  0  0  0  0
    0.2900   -0.7500    0.0000 C   0  0  0  0  0  0  0  0  0  0  0  0
    0.2900    0.7500    0.0000 C   0  0  0  0  0  0  0  0  0  0  0  0
    1.7200    1.2100    0.0000 C   0  0  0  0  0  0  0  0  0  0  0  0
    2.1853    2.6360    0.0000 O   0  0  0  0  0  0  0  0  0  0  0  0
   -4.9081   -0.7504    0.0000 Si  0  0  0  0  0  4  0  0  0  0  0  0
  6  4  1  0
  7  5  1  0
 10  4  2  0
 10  8  1  0
 10  9  1  0
 11  5  1  0
 11  8  1  0
 12  6  1  0
 12 11  1  0
 13  7  1  0
 13 12  1  0
 14 13  2  0
 15  1  1  0
 15  2  1  0
 15  3  1  0
 15  9  1  0
M  END
>  <NAME>  (4867) 
5-TRIMETHYLSILYLMETHYL-2,3,3A,4,7,7A-HEXAHYDROINDEN-1-ONE

>  <SYNONYMS>  (4867) 


>  <SPECTRUM TYPE>  (4867) 
MS1

>  <INSTRUMENT TYPE>  (4867) 
EI-B

>  <INSTRUMENT>  (4867) 
JEOL JMS-D-3000

>  <ION MODE>  (4867) 
P

>  <INCHIKEY>  (4867) 
HNVXPSNCOVLESZ-UHFFFAOYSA-N

>  <FORMULA>  (4867) 
C13H22OSi

>  <EXACT MASS>  (4867) 
222.14399185399998

>  <MW>  (4867) 
222

>  <ID>  (4867) 
JP002484

>  <CONTRIBUTOR>  (4867) 
University of Tokyo Team, {Faculty of Engineering, University of Tokyo

>  <COMMENT>  (4867) 
SMILES=O=C(C2)C(C1)C(C2)CC(=C1)C[Si](C)(C)C
InChI=InChI=1S/C13H22OSi/c1-15(2,3)9-10-4-6-12-11(8-10)5-7-13(12)14/h4,11-12H,5-9H2,1-3H3
computed SMILES=O=C1CCC2CC(=CCC12)C[Si](C)(C)C
accession=JP002484
date=2016.01.19 (Created 2008.10.21, modified 2011.05.06)
author=MASS SPECTROSCOPY SOC. OF JAPAN (MSSJ)
license=CC BY-NC-SA
exact mass=222.14399
ionization energy=70 eV
ion type=[M]+*
computed spectral entropy=2.6551053450977777
computed normalized entropy=0.7884977973878947
SPLASH=splash10-00di-9720000000-2c166704795a66f78402
submitter=submitter = University of Tokyo Team (Faculty of Engineering, University of Tokyo)
MoNA Rating=3.75

>  <NUM PEAKS>  (4867) 
29

>  <MASS SPECTRAL PEAKS>  (4867) 
43 3.23
45 10.06
59 6.15
73 99.99
74 9.41
75 13.75
77 3.14
79 2.62
91 8.26
92 2.15
105 2.61
106 3.46
117 6.58
131 3.7
132 6.32
154 7.55
155 18.18
156 2.85
166 9.81
167 52.74
168 9.28
169 2.84
181 5.47
193 2.46
207 12.3
208 2.56
221 2.37
222 25.62
223 4.85

>  <PREDICTED SPECTRUM>  (4867) 
41 65
43 65
45 263
47 37
51 10
53 108
55 48
59 231
60 74
61 19
65 66
66 48
67 99
73 999
74 305
75 442
76 81
77 144
78 90
79 179
80 1
81 45
85 37
91 159
93 31
95 53
99 8
103 197
104 137
105 196
109 7
115 79
117 215
118 33
127 3
128 21
129 165
130 110
131 267
132 381
133 74
139 7
141 20
148 46
153 101
154 259
155 373
156 119
165 72
166 112
167 408
168 227
169 50
179 126
180 69
181 111
182 36
193 49
194 145
195 66
207 255
208 89
221 115
222 473
223 233
224 83

$$$$

     RDKit          2D

 11 10  0  0  0  0  0  0  0  0999 V2000
   -5.3469    4.4130    0.0000 C   0  0  0  0  0  0  0  0  0  0  0  0
   -4.0478    2.1630    0.0000 C   0  0  0  0  0  0  0  0  0  0  0  0
   -1.4498    2.1630    0.0000 C   0  0  0  0  0  0  0  0  0  0  0  0
    0.3983    2.3639    0.0000 C   0  0  0  0  0  0  0  0  0  0  0  0
    2.4474    2.9130    0.0000 C   0  0  0  0  0  0  0  0  0  0  0  0
    1.8983    4.9620    0.0000 C   0  0  0  0  0  0  0  0  0  0  0  0
   -2.7488    4.4130    0.0000 C   0  0  0  0  0  0  0  0  0  0  0  0
   -4.0478    3.6630    0.0000 C   0  0  0  0  0  0  0  0  0  0  0  0
   -1.4498    3.6630    0.0000 C   0  0  0  0  0  0  0  0  0  0  0  0
   -0.1507    4.4130    0.0000 O   0  0  0  0  0  0  0  0  0  0  0  0
    1.1483    3.6630    0.0000 Si  0  0  0  0  0  4  0  0  0  0  0  0
  8  1  1  0
  8  2  1  0
  8  7  2  0
  9  3  2  0
  9  7  1  0
 10  9  1  0
 11  4  1  0
 11  5  1  0
 11  6  1  0
 11 10  1  0
M  END
>  <NAME>  (4868) 
2-TRIMETHYLSILOXY-4-METHYL-1,3-PENTADIENE

>  <SYNONYMS>  (4868) 


>  <SPECTRUM TYPE>  (4868) 
MS1

>  <INSTRUMENT TYPE>  (4868) 
EI-B

>  <INSTRUMENT>  (4868) 
JEOL JMS-D-3000

>  <ION MODE>  (4868) 
P

>  <INCHIKEY>  (4868) 
DKSBCCBPNYPGQP-UHFFFAOYSA-N

>  <FORMULA>  (4868) 
C9H18OSi

>  <EXACT MASS>  (4868) 
170.11269172599998

>  <MW>  (4868) 
170

>  <ID>  (4868) 
JP002483

>  <CONTRIBUTOR>  (4868) 
University of Tokyo Team, {Faculty of Engineering, University of Tokyo

>  <COMMENT>  (4868) 
SMILES=CC(C)=CC(=C)O[Si](C)(C)C
InChI=InChI=1S/C9H18OSi/c1-8(2)7-9(3)10-11(4,5)6/h7H,3H2,1-2,4-6H3
computed SMILES=O(C(=C)C=C(C)C)[Si](C)(C)C
accession=JP002483
date=2016.01.19 (Created 2008.10.21, modified 2011.05.06)
author=MASS SPECTROSCOPY SOC. OF JAPAN (MSSJ)
license=CC BY-NC-SA
exact mass=170.11269
ionization energy=70 eV
ion type=[M]+*
computed spectral entropy=2.569321193519148
computed normalized entropy=0.7630221172249866
SPLASH=splash10-05i0-9400000000-26c25441cc2c3f606f36
submitter=submitter = University of Tokyo Team (Faculty of Engineering, University of Tokyo)
MoNA Rating=3.75

>  <NUM PEAKS>  (4868) 
29

>  <MASS SPECTRAL PEAKS>  (4868) 
43 6.19
45 14.4
47 8.66
53 4.07
55 4.81
57 2.92
59 3.63
61 4.73
70 11.36
73 99.99
74 9.06
75 93.31
76 6.94
77 5.74
79 15.88
80 9.05
81 3.78
83 4.21
85 3.66
97 5.17
99 3
113 5.54
115 7.52
127 4.61
155 91.74
156 13.32
157 4.14
170 28.42
171 4.41

>  <PREDICTED SPECTRUM>  (4868) 
26 52
27 181
28 68
29 123
31 66
38 17
39 222
40 42
41 188
42 33
43 262
44 73
45 345
46 37
47 232
50 24
51 87
52 13
53 174
54 17
55 274
56 45
57 86
58 90
59 345
61 108
65 159
66 33
67 108
68 9
69 146
70 28
71 18
72 7
73 784
74 208
75 890
76 182
77 206
78 56
79 222
80 192
81 159
83 160
85 143
86 78
89 3
95 1
97 58
98 12
99 193
100 58
101 40
111 68
113 223
114 66
115 197
116 76
125 92
127 230
128 113
129 57
139 89
141 80
153 62
154 0
155 999
156 369
157 204
158 20
169 67
170 497
171 199
172 92

$$$$

     RDKit          2D

 10  9  0  0  0  0  0  0  0  0999 V2000
   -7.4695    3.9375    0.0000 C   0  0  0  0  0  0  0  0  0  0  0  0
    1.6238    3.1875    0.0000 C   0  0  0  0  0  0  0  0  0  0  0  0
    0.3248    5.4375    0.0000 C   0  0  0  0  0  0  0  0  0  0  0  0
   -6.1704    3.1875    0.0000 C   0  0  0  0  0  0  0  0  0  0  0  0
   -2.2733    3.9375    0.0000 C   0  0  0  0  0  0  0  0  0  0  0  0
   -0.9743    3.1875    0.0000 C   0  0  0  0  0  0  0  0  0  0  0  0
   -3.5724    3.1875    0.0000 C   0  0  0  0  0  0  0  0  0  0  0  0
    0.3248    3.9375    0.0000 C   0  0  0  0  0  0  0  0  0  0  0  0
   -4.8714    3.9375    0.0000 C   0  0  0  0  0  0  0  0  0  0  0  0
   -4.8714    5.4375    0.0000 O   0  0  0  0  0  0  0  0  0  0  0  0
  4  1  2  0
  6  5  1  0
  7  5  1  0
  8  2  1  0
  8  3  1  0
  8  6  2  0
  9  4  1  0
  9  7  1  0
 10  9  2  0
M  END
>  <NAME>  (4869) 
7-METHYL-1,6-OCTADIEN-3-ONE

>  <SYNONYMS>  (4869) 


>  <SPECTRUM TYPE>  (4869) 
MS1

>  <INSTRUMENT TYPE>  (4869) 
EI-B

>  <INSTRUMENT>  (4869) 
JEOL JMS-D-3000

>  <ION MODE>  (4869) 
P

>  <INCHIKEY>  (4869) 
FVAZRTUEFHNRTR-UHFFFAOYSA-N

>  <FORMULA>  (4869) 
C9H14O

>  <EXACT MASS>  (4869) 
138.104465068

>  <MW>  (4869) 
138

>  <ID>  (4869) 
JP002482

>  <CONTRIBUTOR>  (4869) 
University of Tokyo Team, {Faculty of Engineering, University of Tokyo

>  <COMMENT>  (4869) 
SMILES=C=CC(=O)CCC=C(C)C
InChI=InChI=1S/C9H14O/c1-4-9(10)7-5-6-8(2)3/h4,6H,1,5,7H2,2-3H3
computed SMILES=O=C(C=C)CCC=C(C)C
accession=JP002482
date=2016.01.19 (Created 2008.10.21, modified 2011.05.06)
author=MASS SPECTROSCOPY SOC. OF JAPAN (MSSJ)
license=CC BY-NC-SA
exact mass=138.10447
ionization energy=70 eV
ion type=[M]+*
computed spectral entropy=2.9435483037859442
computed normalized entropy=0.8741579155514139
SPLASH=splash10-0avm-9100000000-0742d60aa2d5e573b58c
submitter=submitter = University of Tokyo Team (Faculty of Engineering, University of Tokyo)
MoNA Rating=3.75

>  <NUM PEAKS>  (4869) 
29

>  <MASS SPECTRAL PEAKS>  (4869) 
42 69.1
43 15.85
53 10.2
54 4.71
55 99.99
56 9.95
57 4.13
59 10.16
67 24.09
68 17.45
69 32.44
70 37.29
77 5.67
79 8.12
81 10.77
82 15.03
83 26.61
93 5.4
94 6.48
95 41.2
96 12.78
97 18.17
105 6.87
109 7.89
110 4.29
120 6.97
121 4.54
123 20.48
138 9.06

>  <PREDICTED SPECTRUM>  (4869) 
26 27
27 191
28 82
29 150
37 9
38 52
39 335
40 143
41 696
42 122
43 142
49 0
50 81
51 151
52 119
53 293
54 138
55 478
56 214
57 72
62 3
63 41
64 22
65 158
66 124
67 320
68 224
69 999
70 240
71 44
77 186
78 68
79 125
80 156
81 229
82 154
83 217
84 108
91 127
92 90
93 105
94 142
95 374
96 145
97 4
105 64
109 53
110 40
121 10
123 240
124 34
138 239
139 77

$$$$

     RDKit          2D

 12 12  0  0  0  0  0  0  0  0999 V2000
    3.6071   -1.3299    0.0000 C   0  0  0  0  0  0  0  0  0  0  0  0
   -4.1871    1.6701    0.0000 C   0  0  0  0  0  0  0  0  0  0  0  0
    1.0085   -1.3308    0.0000 C   0  0  0  0  0  0  0  0  0  0  0  0
   -0.2905   -0.5808    0.0000 C   0  0  0  0  0  0  0  0  0  0  0  0
    1.0095    1.6709    0.0000 C   0  0  0  0  0  0  0  0  0  0  0  0
    2.3080   -0.5799    0.0000 C   0  0  0  0  0  0  0  0  0  0  0  0
   -0.2900    0.9201    0.0000 C   0  0  0  0  0  0  0  0  0  0  0  0
    2.3085    0.9209    0.0000 C   0  0  0  0  0  0  0  0  0  0  0  0
   -1.5891    1.6701    0.0000 C   0  0  0  0  0  0  0  0  0  0  0  0
    3.6077    1.6707    0.0000 O   0  0  0  0  0  0  0  0  0  0  0  0
   -1.5891    3.1701    0.0000 O   0  0  0  0  0  0  0  0  0  0  0  0
   -2.8881    0.9201    0.0000 O   0  0  0  0  0  0  0  0  0  0  0  0
  4  3  1  0
  6  1  2  0
  6  3  1  0
  7  4  1  0
  7  5  1  0
  8  5  1  0
  8  6  1  0
  9  7  1  0
 10  8  1  0
 11  9  2  0
 12  2  1  0
 12  9  1  0
M  END
>  <NAME>  (4870) 
METHYL 3-HYDROXY-4-METHYLENECYCLOHEXANECARBOXYLATE

>  <SYNONYMS>  (4870) 


>  <SPECTRUM TYPE>  (4870) 
MS1

>  <INSTRUMENT TYPE>  (4870) 
EI-B

>  <INSTRUMENT>  (4870) 
JEOL JMS-D-3000

>  <ION MODE>  (4870) 
P

>  <INCHIKEY>  (4870) 
XQBZFGGJIWUYCF-UHFFFAOYSA-N

>  <FORMULA>  (4870) 
C9H14O3

>  <EXACT MASS>  (4870) 
170.09429430799997

>  <MW>  (4870) 
170

>  <ID>  (4870) 
JP002481

>  <CONTRIBUTOR>  (4870) 
University of Tokyo Team, {Faculty of Engineering, University of Tokyo

>  <COMMENT>  (4870) 
SMILES=COC(=O)C(C1)CC(O)C(=C)C1
InChI=InChI=1S/C9H14O3/c1-6-3-4-7(5-8(6)10)9(11)12-2/h7-8,10H,1,3-5H2,2H3
computed SMILES=O=C(OC)C1CCC(=C)C(O)C1
accession=JP002481
date=2016.01.19 (Created 2008.10.21, modified 2011.05.06)
author=MASS SPECTROSCOPY SOC. OF JAPAN (MSSJ)
license=CC BY-NC-SA
exact mass=170.09429
ionization energy=70 eV
ion type=[M]+*
computed spectral entropy=2.9887622579008735
computed normalized entropy=0.8969324207966237
SPLASH=splash10-03dl-9400000000-91a8b7cfacbf74ea2822
submitter=submitter = University of Tokyo Team (Faculty of Engineering, University of Tokyo)
MoNA Rating=3.75

>  <NUM PEAKS>  (4870) 
28

>  <MASS SPECTRAL PEAKS>  (4870) 
42 32.07
43 27.82
53 10.69
55 55.43
56 6.7
59 11.02
66 8.67
67 25.81
68 6.66
69 19.8
77 14.86
79 10.06
81 18.49
82 13.58
83 8.75
84 12.55
87 64.18
91 15.92
92 13.95
93 62.43
95 23.43
109 11.57
110 61.88
111 99.99
112 7.35
138 15.89
139 7.61
170 9.88

>  <PREDICTED SPECTRUM>  (4870) 
27 140
28 50
29 76
31 69
33 49
38 14
39 306
40 109
41 518
42 146
43 410
44 39
45 114
50 82
51 153
52 133
53 346
54 151
55 612
56 200
57 229
59 355
60 141
61 112
62 11
63 37
65 186
66 175
67 474
68 323
69 382
70 149
71 88
74 184
75 15
77 305
78 163
79 465
80 90
81 389
82 425
83 378
84 231
87 516
88 132
91 332
92 386
93 613
94 176
95 439
96 84
97 40
100 51
109 245
110 999
111 877
112 261
113 34
114 43
120 17
121 7
123 25
126 60
127 22
128 15
137 48
138 347
139 183
140 8
152 133
155 61
170 240
171 36

$$$$

     RDKit          2D

 10 10  0  0  0  0  0  0  0  0999 V2000
   -2.2915    1.3193    0.0000 C   0  0  0  0  0  0  0  0  0  0  0  0
   -0.9814    3.5628    0.0000 C   0  0  0  0  0  0  0  0  0  0  0  0
    1.6056    2.0565    0.0000 C   0  0  0  0  0  0  0  0  0  0  0  0
    0.2920   -0.1684    0.0000 C   0  0  0  0  0  0  0  0  0  0  0  0
    2.8901    1.3316    0.0000 C   0  0  0  0  0  0  0  0  0  0  0  0
    1.6165   -0.9625    0.0000 C   0  0  0  0  0  0  0  0  0  0  0  0
   -0.9888    2.0629    0.0000 C   0  0  0  0  0  0  0  0  0  0  0  0
    0.3065    1.3065    0.0000 C   0  0  0  0  0  0  0  0  0  0  0  0
    2.9156   -0.2125    0.0000 C   0  0  0  0  0  0  0  0  0  0  0  0
    4.2207   -0.9518    0.0000 O   0  0  0  0  0  0  0  0  0  0  0  0
  5  3  2  0
  6  4  1  0
  7  1  1  0
  7  2  1  0
  8  3  1  0
  8  4  1  0
  8  7  1  0
  9  5  1  0
  9  6  1  0
 10  9  2  0
M  END
>  <NAME>  (4871) 
CRYPTONE

>  <SYNONYMS>  (4871) 
4-ISOPROPYL-2-CYCLOHEXENONE

>  <SPECTRUM TYPE>  (4871) 
MS1

>  <INSTRUMENT TYPE>  (4871) 
EI-B

>  <INSTRUMENT>  (4871) 
JEOL JMS-D-3000

>  <ION MODE>  (4871) 
P

>  <INCHIKEY>  (4871) 
AANMVENRNJYEMK-UHFFFAOYSA-N

>  <FORMULA>  (4871) 
C9H14O

>  <EXACT MASS>  (4871) 
138.104465068

>  <MW>  (4871) 
138

>  <ID>  (4871) 
JP002480

>  <CONTRIBUTOR>  (4871) 
University of Tokyo Team, {Faculty of Engineering, University of Tokyo

>  <COMMENT>  (4871) 
SMILES=CC(C)C(C1)C=CC(=O)C1
InChI=InChI=1S/C9H14O/c1-7(2)8-3-5-9(10)6-4-8/h3,5,7-8H,4,6H2,1-2H3
computed SMILES=O=C1C=CC(CC1)C(C)C
accession=JP002480
date=2016.01.19 (Created 2008.10.21, modified 2011.05.06)
author=MASS SPECTROSCOPY SOC. OF JAPAN (MSSJ)
license=CC BY-NC-SA
exact mass=138.10447
ionization energy=70 eV
ion type=[M]+*
computed spectral entropy=2.730176363123071
computed normalized entropy=0.8107919532374551
SPLASH=splash10-0002-9100000000-8be20fa842397bcfd4b4
submitter=submitter = University of Tokyo Team (Faculty of Engineering, University of Tokyo)
MoNA Rating=3.75

>  <NUM PEAKS>  (4871) 
29

>  <MASS SPECTRAL PEAKS>  (4871) 
42 32.98
43 42.72
51 2.99
53 5.82
54 4.6
55 11.98
56 2.68
65 5.16
66 7.87
67 24.46
68 15.91
69 3.89
70 2.51
77 4.32
79 4.3
81 20.78
82 6.49
83 7.01
94 2.95
95 58.72
96 99.99
97 16.67
109 3.2
110 3.91
120 3.48
121 5.03
123 5.68
138 23.57
139 2.33

>  <PREDICTED SPECTRUM>  (4871) 
26 24
27 172
28 0
29 33
37 6
38 70
39 403
40 252
41 698
42 255
43 519
44 48
50 125
51 282
52 259
53 488
54 329
55 391
56 216
57 41
62 9
63 107
64 57
65 289
66 220
67 817
68 567
69 565
70 201
77 340
78 159
79 486
80 333
81 590
82 320
83 258
84 162
91 276
92 57
93 207
94 320
95 999
96 900
97 336
105 176
107 31
109 191
110 209
120 41
123 231
124 43
138 593
139 155

$$$$

     RDKit          2D

  7  7  0  0  0  0  0  0  0  0999 V2000
    2.7540   -0.1871    0.0000 C   0  0  0  0  0  0  0  0  0  0  0  0
    2.2050    1.8620    0.0000 C   0  0  0  0  0  0  0  0  0  0  0  0
    0.7045   -2.2370    0.0000 C   0  0  0  0  0  0  0  0  0  0  0  0
   -0.5945   -1.4870    0.0000 C   0  0  0  0  0  0  0  0  0  0  0  0
    0.7050   -0.7361    0.0000 C   0  0  0  0  0  0  0  0  0  0  0  0
    1.4550    0.5629    0.0000 C   0  0  0  0  0  0  0  0  0  0  0  0
    0.1560    1.3129    0.0000 O   0  0  0  0  0  0  0  0  0  0  0  0
  4  3  1  0
  5  3  1  0
  5  4  1  0
  6  1  1  0
  6  2  1  0
  6  5  1  0
  7  6  1  0
M  END
>  <NAME>  (4872) 
2-CYCLOPROPYL-2-PROPANOL

>  <SYNONYMS>  (4872) 


>  <SPECTRUM TYPE>  (4872) 
MS1

>  <INSTRUMENT TYPE>  (4872) 
EI-B

>  <INSTRUMENT>  (4872) 
JEOL JMS-D-3000

>  <ION MODE>  (4872) 
P

>  <INCHIKEY>  (4872) 
ITQVACMQJLOIDS-UHFFFAOYSA-N

>  <FORMULA>  (4872) 
C6H12O

>  <EXACT MASS>  (4872) 
100.088815004

>  <MW>  (4872) 
100

>  <ID>  (4872) 
JP002479

>  <CONTRIBUTOR>  (4872) 
University of Tokyo Team, {Faculty of Engineering, University of Tokyo

>  <COMMENT>  (4872) 
SMILES=CC(C)(O)C(C1)C1
InChI=InChI=1S/C6H12O/c1-6(2,7)5-3-4-5/h5,7H,3-4H2,1-2H3
computed SMILES=OC(C)(C)C1CC1
accession=JP002479
date=2016.01.19 (Created 2008.10.21, modified 2011.05.06)
author=MASS SPECTROSCOPY SOC. OF JAPAN (MSSJ)
license=CC BY-NC-SA
exact mass=100.08882
ionization energy=70 eV
ion type=[M]+*
computed spectral entropy=2.7363057931345636
computed normalized entropy=0.7825825470221268
SPLASH=splash10-00kf-9000000000-50cc5f711023c1461a12
submitter=submitter = University of Tokyo Team (Faculty of Engineering, University of Tokyo)
MoNA Rating=3.75

>  <NUM PEAKS>  (4872) 
33

>  <MASS SPECTRAL PEAKS>  (4872) 
41 56.56
42 8.52
43 99.99
44 3.13
45 3.55
50 2.88
51 4.82
52 2.34
53 11.76
54 10.47
55 11.87
56 3.64
57 20.04
58 3.83
59 31.84
60 1.12
63 1.35
65 9.16
66 2.66
67 89.95
68 5.82
69 6.79
71 5.51
72 34.97
73 1.7
77 2.29
79 5.76
81 11.64
82 24.12
83 3.23
85 58.6
86 3.55
100 1.19

>  <PREDICTED SPECTRUM>  (4872) 
14 47
15 110
17 7
18 29
19 10
25 13
26 90
27 240
28 126
29 202
31 282
32 32
33 38
37 55
38 107
39 419
40 191
41 514
42 221
43 903
44 144
45 74
50 84
51 144
52 108
53 271
54 215
55 266
56 68
57 331
58 268
59 999
60 189
65 108
66 131
67 613
68 171
71 325
72 220
79 61
81 237
82 290
83 91
85 612
86 156

$$$$

     RDKit          2D

 25 27  0  0  0  0  0  0  0  0999 V2000
   -6.4683    1.8149    0.0000 C   0  0  0  0  0  0  0  0  0  0  0  0
   -4.5985    3.6188    0.0000 C   0  0  0  0  0  0  0  0  0  0  0  0
   -1.7844   -2.5601    0.0000 C   0  0  0  0  0  0  0  0  0  0  0  0
    9.5491   -1.1600    0.0000 C   0  0  0  0  0  0  0  0  0  0  0  0
    9.5496    0.3409    0.0000 C   0  0  0  0  0  0  0  0  0  0  0  0
    8.2496   -1.9108    0.0000 C   0  0  0  0  0  0  0  0  0  0  0  0
    8.2505    1.0909    0.0000 C   0  0  0  0  0  0  0  0  0  0  0  0
    6.9505   -1.1608    0.0000 C   0  0  0  0  0  0  0  0  0  0  0  0
   -2.5156    1.4595    0.0000 C   0  0  0  0  0  0  0  0  0  0  0  0
   -4.3854   -0.3450    0.0000 C   0  0  0  0  0  0  0  0  0  0  0  0
    2.7274   -1.4645    0.0000 C   0  0  0  0  0  0  0  0  0  0  0  0
   -1.4740    0.3789    0.0000 C   0  0  0  0  0  0  0  0  0  0  0  0
   -3.3439   -1.4256    0.0000 C   0  0  0  0  0  0  0  0  0  0  0  0
    4.1872   -1.1529    0.0000 C   0  0  0  0  0  0  0  0  0  0  0  0
    5.6520    1.0900    0.0000 C   0  0  0  0  0  0  0  0  0  0  0  0
    2.9772    0.9429    0.0000 C   0  0  0  0  0  0  0  0  0  0  0  0
   -5.0127    2.1771    0.0000 C   0  0  0  0  0  0  0  0  0  0  0  0
    6.9510    0.3400    0.0000 C   0  0  0  0  0  0  0  0  0  0  0  0
   -3.9712    1.0976    0.0000 C   0  0  0  0  0  0  0  0  0  0  0  0
    1.9774   -0.1655    0.0000 C   0  0  0  0  0  0  0  0  0  0  0  0
    0.4857   -0.0080    0.0000 C   0  0  0  0  0  0  0  0  0  0  0  0
   -1.8882   -1.0637    0.0000 C   0  0  0  0  0  0  0  0  0  0  0  0
    4.3529    0.3400    0.0000 N   0  0  0  0  0  0  0  0  0  0  0  0
   -0.1238    1.3626    0.0000 O   0  0  0  0  0  0  0  0  0  0  0  0
   -0.3965   -1.2211    0.0000 O   0  0  0  0  0  0  0  0  0  0  0  0
  5  4  2  0
  6  4  1  0
  7  5  1  0
  8  6  2  0
 12  9  1  0
 13 10  1  0
 14 11  1  0
 17  1  1  0
 17  2  1  0
 18  7  2  0
 18  8  1  0
 18 15  1  0
 19  9  1  0
 19 10  1  0
 19 17  1  0
 20 11  1  0
 20 16  1  0
 21 20  1  0
 22  3  1  0
 22 12  1  0
 22 13  1  0
 23 14  1  0
 23 15  1  0
 23 16  1  0
 24 21  2  0
 25 21  1  0
 25 22  1  0
M  END
>  <NAME>  (4873) 
N-BENZYL-3-MENTHOXYCARBONYLPYRROLIDINE

>  <SYNONYMS>  (4873) 


>  <SPECTRUM TYPE>  (4873) 
MS1

>  <INSTRUMENT TYPE>  (4873) 
EI-B

>  <INSTRUMENT>  (4873) 
JEOL JMS-D-3000

>  <ION MODE>  (4873) 
P

>  <INCHIKEY>  (4873) 
ULEFDVPTRAHPIR-UHFFFAOYSA-N

>  <FORMULA>  (4873) 
C22H33NO2

>  <EXACT MASS>  (4873) 
343.251129296

>  <MW>  (4873) 
343

>  <ID>  (4873) 
JP002478

>  <CONTRIBUTOR>  (4873) 
University of Tokyo Team, {Faculty of Engineering, University of Tokyo

>  <COMMENT>  (4873) 
SMILES=CC(C)C(C3)CCC(C)(C3)OC(=O)C(C2)CN(C2)Cc(c1)cccc1
InChI=InChI=1S/C22H33NO2/c1-17(2)19-9-12-22(3,13-10-19)25-21(24)20-11-14-23(16-20)15-18-7-5-4-6-8-18/h4-8,17,19-20H,9-16H2,1-3H3
computed SMILES=O=C(OC1(C)CCC(CC1)C(C)C)C2CN(CC=3C=CC=CC3)CC2
accession=JP002478
date=2016.01.19 (Created 2008.10.21, modified 2011.05.06)
author=MASS SPECTROSCOPY SOC. OF JAPAN (MSSJ)
license=CC BY-NC-SA
exact mass=343.25113
ionization energy=70 eV
ion type=[M]+*
computed spectral entropy=2.9977243623281526
computed normalized entropy=0.7586786783692486
SPLASH=splash10-0gvo-9640000000-73a545692d2b3395e8b9
submitter=submitter = University of Tokyo Team (Faculty of Engineering, University of Tokyo)
MoNA Rating=3.75

>  <NUM PEAKS>  (4873) 
52

>  <MASS SPECTRAL PEAKS>  (4873) 
40 9.4
42 12.57
43 5.64
53 1.26
55 10.17
57 5.79
65 4.14
67 2.47
68 4.31
69 9.31
70 1.99
71 1.07
79 1.05
81 4.64
82 2.39
83 16.45
84 1.42
91 99.99
92 10.96
95 4.56
96 1.13
97 2.68
100 1.22
101 1.4
104 1.09
105 1.01
114 69.26
115 4.39
118 1.65
119 1.17
120 1.93
123 1.19
128 9.56
131 1.11
132 10.28
133 3.87
138 1.55
139 2.57
158 2.7
159 3.32
160 6.08
161 1.34
176 1.63
177 1.61
178 1.59
188 11.9
189 1.8
204 63.71
205 13.13
206 6.35
252 30.75
343 7.21

>  <PREDICTED SPECTRUM>  (4873) 
27 69
28 31
29 47
30 33
33 24
37 17
38 44
39 170
40 90
41 263
42 285
43 179
44 102
50 50
51 119
52 51
53 83
54 69
55 345
56 164
57 163
58 54
62 38
63 105
64 29
65 235
66 39
67 143
68 127
69 370
70 154
71 174
72 44
74 2
77 47
78 42
79 93
80 47
81 150
82 222
83 305
84 172
85 19
86 27
87 20
88 104
89 78
90 33
91 999
92 298
94 66
95 181
96 123
97 194
99 17
100 73
101 96
102 61
103 20
104 44
105 40
106 0
111 8
112 94
113 21
114 266
115 166
116 69
117 51
118 124
119 72
120 56
126 75
128 229
129 49
130 70
131 136
132 209
133 62
138 82
139 198
140 95
141 27
142 22
144 41
145 16
146 43
156 92
158 177
159 97
160 256
161 97
172 34
182 18
186 15
187 12
188 230
189 55
196 1
203 48
204 763
205 444
206 344
207 95
208 121
224 133
252 615
253 110
254 49
328 1
342 81
343 278
344 114
345 43

$$$$

     RDKit          2D

 21 22  0  0  0  0  0  0  0  0999 V2000
   -6.5196   -0.0371    0.0000 C   0  0  0  0  0  0  0  0  0  0  0  0
   -4.6147    3.2624    0.0000 C   0  0  0  0  0  0  0  0  0  0  0  0
    6.2167   -3.6908    0.0000 C   0  0  0  0  0  0  0  0  0  0  0  0
    6.2172   -2.1900    0.0000 C   0  0  0  0  0  0  0  0  0  0  0  0
    4.9172   -4.4416    0.0000 C   0  0  0  0  0  0  0  0  0  0  0  0
    4.9181   -1.4400    0.0000 C   0  0  0  0  0  0  0  0  0  0  0  0
    3.6181   -3.6916    0.0000 C   0  0  0  0  0  0  0  0  0  0  0  0
    2.3196   -1.4408    0.0000 C   0  0  0  0  0  0  0  0  0  0  0  0
    1.0206   -2.1908    0.0000 C   0  0  0  0  0  0  0  0  0  0  0  0
   -1.6543   -2.0437    0.0000 C   0  0  0  0  0  0  0  0  0  0  0  0
   -0.4443    0.0521    0.0000 C   0  0  0  0  0  0  0  0  0  0  0  0
    3.6186   -2.1908    0.0000 C   0  0  0  0  0  0  0  0  0  0  0  0
   -2.6540   -0.9353    0.0000 C   0  0  0  0  0  0  0  0  0  0  0  0
   -1.9040    0.3637    0.0000 C   0  0  0  0  0  0  0  0  0  0  0  0
   -4.1457   -1.0928    0.0000 C   0  0  0  0  0  0  0  0  0  0  0  0
   -2.5135    1.7343    0.0000 C   0  0  0  0  0  0  0  0  0  0  0  0
   -0.2785   -1.4408    0.0000 N   0  0  0  0  0  0  0  0  0  0  0  0
   -4.7552   -2.4633    0.0000 O   0  0  0  0  0  0  0  0  0  0  0  0
   -1.6313    2.9475    0.0000 O   0  0  0  0  0  0  0  0  0  0  0  0
   -5.0279    0.1204    0.0000 O   0  0  0  0  0  0  0  0  0  0  0  0
   -4.0052    1.8918    0.0000 O   0  0  0  0  0  0  0  0  0  0  0  0
  4  3  2  0
  5  3  1  0
  6  4  1  0
  7  5  2  0
  9  8  1  0
 12  6  2  0
 12  7  1  0
 12  8  1  0
 13 10  1  0
 14 11  1  0
 14 13  1  0
 15 13  1  0
 16 14  1  0
 17  9  1  0
 17 10  1  0
 17 11  1  0
 18 15  2  0
 19 16  2  0
 20  1  1  0
 20 15  1  0
 21  2  1  0
 21 16  1  0
M  END
>  <NAME>  (4874) 
N-((1R)-PHENYLETHYL)-TRANS-3,4-DI(METHOXYCARBONYL)PYRROLIDINE

>  <SYNONYMS>  (4874) 


>  <SPECTRUM TYPE>  (4874) 
MS1

>  <INSTRUMENT TYPE>  (4874) 
EI-B

>  <INSTRUMENT>  (4874) 
JEOL JMS-D-3000

>  <ION MODE>  (4874) 
P

>  <INCHIKEY>  (4874) 
RMWZNMIFTKZUCP-UHFFFAOYSA-N

>  <FORMULA>  (4874) 
C16H21NO4

>  <EXACT MASS>  (4874) 
291.147058152

>  <MW>  (4874) 
291

>  <ID>  (4874) 
JP002477

>  <CONTRIBUTOR>  (4874) 
University of Tokyo Team, {Faculty of Engineering, University of Tokyo

>  <COMMENT>  (4874) 
SMILES=COC(=O)C(C1)C(C(=O)OC)CN(CCc(c2)cccc2)1
InChI=InChI=1S/C16H21NO4/c1-20-15(18)13-10-17(11-14(13)16(19)21-2)9-8-12-6-4-3-5-7-12/h3-7,13-14H,8-11H2,1-2H3
computed SMILES=O=C(OC)C1CN(CCC=2C=CC=CC2)CC1C(=O)OC
accession=JP002477
date=2016.01.19 (Created 2008.10.21, modified 2011.05.06)
author=MASS SPECTROSCOPY SOC. OF JAPAN (MSSJ)
license=CC BY-NC-SA
exact mass=291.14706
ionization energy=70 eV
ion type=[M]+*
computed spectral entropy=2.7182538064321724
computed normalized entropy=0.7368779165176308
SPLASH=splash10-004i-3590000000-6fdaff56d847524ac8cd
submitter=submitter = University of Tokyo Team (Faculty of Engineering, University of Tokyo)
MoNA Rating=3.75

>  <NUM PEAKS>  (4874) 
40

>  <MASS SPECTRAL PEAKS>  (4874) 
42 4.51
43 2.35
45 1.14
51 2.06
53 2.08
55 1.76
56 5.05
59 3.12
67 1.16
68 5.31
77 9.28
78 2.54
79 8.35
91 9.13
94 1.48
96 1.76
101 1.04
103 5.91
104 4.33
105 56.94
106 6.59
118 3.31
121 2.24
126 2.79
127 2.21
128 1.46
154 7.49
156 4.54
158 2.62
186 2.3
214 16.99
215 2.01
216 1.03
260 10.91
261 2.05
276 99.99
277 17.57
278 2.37
290 1.5
291 3.93

>  <PREDICTED SPECTRUM>  (4874) 
15 126
26 32
27 63
28 64
29 34
30 27
31 17
33 57
37 0
38 52
39 255
40 129
41 262
42 498
43 189
44 226
45 176
50 90
51 243
52 161
53 182
54 145
55 255
56 140
57 114
58 100
59 393
60 71
62 34
63 177
64 53
65 393
66 126
67 179
68 251
69 245
70 241
71 191
72 104
77 291
78 197
79 284
80 158
81 153
82 212
83 104
84 121
85 114
86 66
87 27
89 25
91 915
92 285
93 46
94 74
95 78
96 205
97 197
98 118
99 113
100 55
103 175
104 162
105 317
106 125
107 63
108 13
110 42
111 36
112 191
113 218
114 115
115 274
117 79
118 2
125 45
126 200
127 236
128 324
129 221
130 143
131 120
132 45
140 242
141 249
142 105
144 65
154 15
156 115
157 45
158 175
168 302
169 108
170 101
172 465
173 165
186 22
187 25
188 44
200 999
201 389
202 73
214 77
217 3
230 133
231 64
232 378
233 107
260 158
261 35
276 15
291 119
292 25

$$$$

     RDKit          2D

 11 11  0  0  0  0  0  0  0  0999 V2000
   -3.4349    3.0684    0.0000 C   0  0  0  0  0  0  0  0  0  0  0  0
   -3.9839    1.0193    0.0000 C   0  0  0  0  0  0  0  0  0  0  0  0
   -1.9349    0.4703    0.0000 C   0  0  0  0  0  0  0  0  0  0  0  0
    2.5113    0.2693    0.0000 C   0  0  0  0  0  0  0  0  0  0  0  0
    2.5118    1.7702    0.0000 C   0  0  0  0  0  0  0  0  0  0  0  0
    1.2118   -0.4815    0.0000 C   0  0  0  0  0  0  0  0  0  0  0  0
    1.2127    2.5202    0.0000 C   0  0  0  0  0  0  0  0  0  0  0  0
   -0.0873    0.2685    0.0000 C   0  0  0  0  0  0  0  0  0  0  0  0
   -1.3858    2.5193    0.0000 C   0  0  0  0  0  0  0  0  0  0  0  0
   -0.0868    1.7693    0.0000 C   0  0  0  0  0  0  0  0  0  0  0  0
   -2.6849    1.7693    0.0000 Si  0  0  0  0  0  4  0  0  0  0  0  0
  5  4  2  0
  6  4  1  0
  7  5  1  0
  8  6  2  0
 10  7  2  0
 10  8  1  0
 10  9  1  0
 11  1  1  0
 11  2  1  0
 11  3  1  0
 11  9  1  0
M  END
>  <NAME>  (4875) 
BENZYLTRIMETHYLSILANE

>  <SYNONYMS>  (4875) 


>  <SPECTRUM TYPE>  (4875) 
MS1

>  <INSTRUMENT TYPE>  (4875) 
EI-B

>  <INSTRUMENT>  (4875) 
JEOL JMS-D-3000

>  <ION MODE>  (4875) 
P

>  <INCHIKEY>  (4875) 
MRIWRLGWLMRJIW-UHFFFAOYSA-N

>  <FORMULA>  (4875) 
C10H16Si

>  <EXACT MASS>  (4875) 
164.102127042

>  <MW>  (4875) 
164

>  <ID>  (4875) 
JP002476

>  <CONTRIBUTOR>  (4875) 
University of Tokyo Team, {Faculty of Engineering, University of Tokyo

>  <COMMENT>  (4875) 
SMILES=c(c1)ccc(c1)C[Si](C)(C)C
InChI=InChI=1S/C10H16Si/c1-11(2,3)9-10-7-5-4-6-8-10/h4-8H,9H2,1-3H3
computed SMILES=C=1C=CC(=CC1)C[Si](C)(C)C
accession=JP002476
date=2016.01.19 (Created 2008.10.21, modified 2011.05.06)
author=MASS SPECTROSCOPY SOC. OF JAPAN (MSSJ)
license=CC BY-NC-SA
exact mass=164.10213
ionization energy=70 eV
ion type=[M]+*
computed spectral entropy=2.20892711943899
computed normalized entropy=0.6702173709577313
SPLASH=splash10-00di-9500000000-6433c2be552fb96ee47e
submitter=submitter = University of Tokyo Team (Faculty of Engineering, University of Tokyo)
MoNA Rating=3.75

>  <NUM PEAKS>  (4875) 
27

>  <MASS SPECTRAL PEAKS>  (4875) 
43 3.87
45 5.19
58 1.38
59 4.14
65 2.17
72 1.11
73 99.99
74 10.29
75 4.04
77 1.21
79 1.57
91 4.12
105 2.1
107 2.17
108 1.4
119 1.54
121 13.72
122 1.83
131 1.02
133 1.19
146 6.19
147 1.08
149 19.45
150 3.04
164 28.55
165 4.84
166 1.36

>  <PREDICTED SPECTRUM>  (4875) 
15 18
27 74
29 130
31 73
38 39
39 162
40 18
41 121
42 46
43 342
44 139
45 479
46 82
47 105
50 94
51 159
52 103
53 149
54 7
55 110
56 12
57 147
58 224
59 413
60 81
61 65
62 18
63 96
64 51
65 288
66 96
67 52
69 55
71 116
72 141
73 999
74 309
75 419
76 130
77 126
78 110
79 42
81 4
85 45
89 70
90 45
91 694
92 258
93 90
97 11
99 4
104 39
105 72
107 4
115 5
119 43
121 117
131 111
133 101
135 331
136 49
147 102
148 73
149 538
150 211
151 116
163 66
164 459
165 190
166 89

$$$$

     RDKit          2D

 14 15  0  0  0  0  0  0  0  0999 V2000
    3.6672   -1.5044    0.0000 C   0  0  0  0  0  0  0  0  0  0  0  0
    3.6677   -0.0036    0.0000 C   0  0  0  0  0  0  0  0  0  0  0  0
    2.3677   -2.2552    0.0000 C   0  0  0  0  0  0  0  0  0  0  0  0
    2.3687    0.7464    0.0000 C   0  0  0  0  0  0  0  0  0  0  0  0
    1.0687   -1.5052    0.0000 C   0  0  0  0  0  0  0  0  0  0  0  0
   -3.1544   -1.8089    0.0000 C   0  0  0  0  0  0  0  0  0  0  0  0
   -1.6947   -1.4973    0.0000 C   0  0  0  0  0  0  0  0  0  0  0  0
   -0.2299    0.7456    0.0000 C   0  0  0  0  0  0  0  0  0  0  0  0
   -2.9047    0.5985    0.0000 C   0  0  0  0  0  0  0  0  0  0  0  0
   -5.3961   -0.3524    0.0000 C   0  0  0  0  0  0  0  0  0  0  0  0
    1.0692   -0.0044    0.0000 C   0  0  0  0  0  0  0  0  0  0  0  0
   -3.9044   -0.5099    0.0000 C   0  0  0  0  0  0  0  0  0  0  0  0
   -1.5289   -0.0044    0.0000 N   0  0  0  0  0  0  0  0  0  0  0  0
   -6.2784   -1.5656    0.0000 O   0  0  0  0  0  0  0  0  0  0  0  0
  2  1  2  0
  3  1  1  0
  4  2  1  0
  5  3  2  0
  7  6  1  0
 11  4  2  0
 11  5  1  0
 11  8  1  0
 12  6  1  0
 12  9  1  0
 12 10  1  0
 13  7  1  0
 13  8  1  0
 13  9  1  0
 14 10  1  0
M  END
>  <NAME>  (4876) 
N-BENZYL-3-HYDROXYMETHYLPYRROLIDINE

>  <SYNONYMS>  (4876) 


>  <SPECTRUM TYPE>  (4876) 
MS1

>  <INSTRUMENT TYPE>  (4876) 
EI-B

>  <INSTRUMENT>  (4876) 
JEOL JMS-D-3000

>  <ION MODE>  (4876) 
P

>  <INCHIKEY>  (4876) 
QPQQBJDSKDWQMJ-UHFFFAOYSA-N

>  <FORMULA>  (4876) 
C12H17NO

>  <EXACT MASS>  (4876) 
191.131014164

>  <MW>  (4876) 
191

>  <ID>  (4876) 
JP002475

>  <CONTRIBUTOR>  (4876) 
University of Tokyo Team, {Faculty of Engineering, University of Tokyo

>  <COMMENT>  (4876) 
SMILES=OCC(C2)CN(C2)Cc(c1)cccc1
InChI=InChI=1S/C12H17NO/c14-10-12-6-7-13(9-12)8-11-4-2-1-3-5-11/h1-5,12,14H,6-10H2
computed SMILES=OCC1CN(CC=2C=CC=CC2)CC1
accession=JP002475
date=2016.01.19 (Created 2008.10.21, modified 2011.05.06)
author=MASS SPECTROSCOPY SOC. OF JAPAN (MSSJ)
license=CC BY-NC-SA
exact mass=191.13101
ionization energy=70 eV
ion type=[M]+*
computed spectral entropy=2.7844698265362178
computed normalized entropy=0.7654718553101328
SPLASH=splash10-0006-9600000000-403650cf549010ef653d
submitter=submitter = University of Tokyo Team (Faculty of Engineering, University of Tokyo)
MoNA Rating=3.75

>  <NUM PEAKS>  (4876) 
38

>  <MASS SPECTRAL PEAKS>  (4876) 
40 5.51
42 48.67
43 5.2
44 5.26
45 1.7
51 3.21
53 1.66
55 5.97
57 2.02
59 2.04
63 2.46
65 14.3
68 2.2
70 1.52
71 4.52
72 1.68
77 2.69
82 3.95
89 2.85
90 1.81
91 99.99
92 15.31
100 29.99
101 1.8
104 1.97
105 1.65
106 4.83
107 4.12
114 32.9
115 2.51
118 2.8
120 3.86
132 7.02
133 4.96
134 1.62
190 33.84
191 30.3
192 3.93

>  <PREDICTED SPECTRUM>  (4876) 
14 8
15 31
17 4
18 1
26 19
27 68
28 67
29 48
30 44
31 35
38 26
39 167
40 81
41 198
42 504
43 119
44 121
45 59
49 30
50 56
51 165
52 86
53 60
54 87
55 159
56 153
57 70
58 19
62 38
63 130
64 60
65 328
66 71
67 17
68 67
69 43
70 91
71 60
72 151
73 8
74 17
75 3
77 116
78 90
79 47
80 21
82 130
83 30
84 8
86 6
88 0
89 134
90 36
91 999
92 354
93 13
100 403
101 57
104 47
105 99
106 105
113 36
114 420
115 132
116 28
117 9
118 197
119 83
120 104
128 20
132 253
133 162
134 148
135 0
142 3
144 14
146 122
147 112
160 65
161 0
162 12
163 0
172 108
174 9
176 0
190 441
191 529
192 194
193 17

$$$$

     RDKit          2D

 13 14  0  0  0  0  0  0  0  0999 V2000
   -5.9896   -1.3804    0.0000 C   0  0  0  0  0  0  0  0  0  0  0  0
    3.0738   -2.5323    0.0000 C   0  0  0  0  0  0  0  0  0  0  0  0
    3.0742   -1.0315    0.0000 C   0  0  0  0  0  0  0  0  0  0  0  0
    1.7742   -3.2832    0.0000 C   0  0  0  0  0  0  0  0  0  0  0  0
    1.7752   -0.2815    0.0000 C   0  0  0  0  0  0  0  0  0  0  0  0
    0.4752   -2.5332    0.0000 C   0  0  0  0  0  0  0  0  0  0  0  0
   -3.7479   -2.8369    0.0000 C   0  0  0  0  0  0  0  0  0  0  0  0
   -2.2882   -2.5252    0.0000 C   0  0  0  0  0  0  0  0  0  0  0  0
   -3.4982   -0.4294    0.0000 C   0  0  0  0  0  0  0  0  0  0  0  0
   -0.8234   -0.2823    0.0000 C   0  0  0  0  0  0  0  0  0  0  0  0
   -4.4979   -1.5378    0.0000 C   0  0  0  0  0  0  0  0  0  0  0  0
    0.4757   -1.0323    0.0000 C   0  0  0  0  0  0  0  0  0  0  0  0
   -2.1224   -1.0323    0.0000 N   0  0  0  0  0  0  0  0  0  0  0  0
  3  2  2  0
  4  2  1  0
  5  3  1  0
  6  4  2  0
  8  7  1  0
 11  1  1  0
 11  7  1  0
 11  9  1  0
 12  5  2  0
 12  6  1  0
 12 10  1  0
 13  8  1  0
 13  9  1  0
 13 10  1  0
M  END
>  <NAME>  (4877) 
N-BENZYL-3-METHYLPYRROLIDINE

>  <SYNONYMS>  (4877) 


>  <SPECTRUM TYPE>  (4877) 
MS1

>  <INSTRUMENT TYPE>  (4877) 
EI-B

>  <INSTRUMENT>  (4877) 
JEOL JMS-D-3000

>  <ION MODE>  (4877) 
P

>  <INCHIKEY>  (4877) 
MJIUUKUNEAAVEV-UHFFFAOYSA-N

>  <FORMULA>  (4877) 
C12H17N

>  <EXACT MASS>  (4877) 
175.136099544

>  <MW>  (4877) 
175

>  <ID>  (4877) 
JP002474

>  <CONTRIBUTOR>  (4877) 
University of Tokyo Team, {Faculty of Engineering, University of Tokyo

>  <COMMENT>  (4877) 
SMILES=CC(C2)CN(C2)Cc(c1)cccc1
InChI=InChI=1S/C12H17N/c1-11-7-8-13(9-11)10-12-5-3-2-4-6-12/h2-6,11H,7-10H2,1H3
computed SMILES=C=1C=CC(=CC1)CN2CCC(C)C2
accession=JP002474
date=2016.01.19 (Created 2008.10.21, modified 2011.05.06)
author=MASS SPECTROSCOPY SOC. OF JAPAN (MSSJ)
license=CC BY-NC-SA
exact mass=175.1361
ionization energy=70 eV
ion type=[M]+*
computed spectral entropy=2.478655482860712
computed normalized entropy=0.7218010246582541
SPLASH=splash10-0006-9200000000-87c2196b4bed11b83cab
submitter=submitter = University of Tokyo Team (Faculty of Engineering, University of Tokyo)
MoNA Rating=3.75

>  <NUM PEAKS>  (4877) 
31

>  <MASS SPECTRAL PEAKS>  (4877) 
42 99.99
43 3.14
51 2.89
53 1.01
55 6.48
56 2.64
57 2.22
63 2.5
65 15
66 1.15
68 1.01
69 3.16
77 1.77
82 1.8
84 44.2
85 2.57
89 2.67
90 1.7
91 92.32
92 14.51
97 1.3
98 50.58
99 3.56
104 2.26
105 1.19
118 2.83
132 9.95
133 7.8
174 38.94
175 35.21
176 4.58

>  <PREDICTED SPECTRUM>  (4877) 
15 15
26 5
27 59
28 48
29 66
30 45
38 18
39 172
40 68
41 211
42 456
43 166
44 78
49 33
50 82
51 174
52 59
53 29
54 48
55 146
56 199
57 77
58 6
62 61
63 163
64 54
65 331
66 59
67 22
68 32
69 150
70 141
71 16
77 72
78 54
79 5
82 108
83 33
84 596
85 130
89 171
90 71
91 999
92 355
97 43
98 431
99 135
104 106
105 73
106 44
112 4
116 0
117 34
118 176
119 56
120 90
131 78
132 226
133 159
134 3
146 136
147 48
160 135
161 36
173 6
174 636
175 552
176 182
177 23

$$$$

     RDKit          2D

 12 12  0  0  0  0  0  0  0  0999 V2000
    2.0704   -2.0473    0.0000 C   0  0  0  0  0  0  0  0  0  0  0  0
   -3.7942    0.6580    0.0000 C   0  0  0  0  0  0  0  0  0  0  0  0
   -1.7792   -1.1452    0.0000 C   0  0  0  0  0  0  0  0  0  0  0  0
   -0.1554   -2.3260    0.0000 C   0  0  0  0  0  0  0  0  0  0  0  0
   -1.5265    1.8822    0.0000 C   0  0  0  0  0  0  0  0  0  0  0  0
    1.6482    0.5858    0.0000 C   0  0  0  0  0  0  0  0  0  0  0  0
    0.4382    1.4758    0.0000 C   0  0  0  0  0  0  0  0  0  0  0  0
    1.1882   -0.8342    0.0000 C   0  0  0  0  0  0  0  0  0  0  0  0
   -2.5795   -0.2220    0.0000 C   0  0  0  0  0  0  0  0  0  0  0  0
   -0.3118   -0.8342    0.0000 C   0  0  0  0  0  0  0  0  0  0  0  0
   -0.7718    0.5858    0.0000 C   0  0  0  0  0  0  0  0  0  0  0  0
   -2.7342   -1.7140    0.0000 O   0  0  0  0  0  0  0  0  0  0  0  0
  7  6  1  0
  8  1  1  0
  8  6  1  0
  9  2  1  0
 10  3  1  0
 10  4  1  0
 10  8  1  0
 11  5  1  0
 11  7  1  0
 11  9  1  0
 11 10  1  0
 12  9  2  0
M  END
>  <NAME>  (4878) 
D-CAMPHOLYLMETHANE

>  <SYNONYMS>  (4878) 
(D)-1-ACETYL-1,2,2,3-TETRAMETHYLCYCLOPENTANE

>  <SPECTRUM TYPE>  (4878) 
MS1

>  <INSTRUMENT TYPE>  (4878) 
EI-B

>  <INSTRUMENT>  (4878) 
JEOL JMS-D-3000

>  <ION MODE>  (4878) 
P

>  <INCHIKEY>  (4878) 
RUPLXQJJFFMCOX-UHFFFAOYSA-N

>  <FORMULA>  (4878) 
C11H20O

>  <EXACT MASS>  (4878) 
168.15141526

>  <MW>  (4878) 
168

>  <ID>  (4878) 
JP002473

>  <CONTRIBUTOR>  (4878) 
University of Tokyo Team, {Faculty of Engineering, University of Tokyo

>  <COMMENT>  (4878) 
SMILES=CC(=O)C(C)(C1)C(C)(C)C(C)C1
InChI=InChI=1S/C11H20O/c1-8-6-7-11(5,9(2)12)10(8,3)4/h8H,6-7H2,1-5H3
computed SMILES=O=C(C)C1(C)CCC(C)C1(C)C
accession=JP002473
date=2016.01.19 (Created 2008.10.21, modified 2011.05.06)
author=MASS SPECTROSCOPY SOC. OF JAPAN (MSSJ)
license=CC BY-NC-SA
exact mass=168.15142
ionization energy=70 eV
ion type=[M]+*
computed spectral entropy=2.832363474038675
computed normalized entropy=0.7678113392618314
SPLASH=splash10-0159-9100000000-912dfb9b12e355e76404
submitter=submitter = University of Tokyo Team (Faculty of Engineering, University of Tokyo)
MoNA Rating=3.75

>  <NUM PEAKS>  (4878) 
40

>  <MASS SPECTRAL PEAKS>  (4878) 
42 3.37
43 38.57
51 1.5
53 6.07
54 1.32
55 26.34
56 3.06
57 12.96
65 1.7
67 7.48
68 1.97
69 99.99
70 7.76
71 1
72 1.48
77 2.01
79 1.94
81 4.89
82 1.42
83 26.08
84 34.29
85 27.71
86 1.85
91 1.22
93 1.06
95 2.85
96 12.17
97 3.79
98 12.68
99 1.53
107 1.25
109 5.73
110 2.42
111 2.63
123 1.64
124 5.57
125 32.91
126 3.17
150 1.95
168 2.01

>  <PREDICTED SPECTRUM>  (4878) 
14 4
15 32
18 19
25 8
26 67
27 372
28 184
29 329
30 55
32 26
37 35
38 85
39 511
40 205
41 940
42 318
43 999
44 188
45 127
50 110
51 211
52 166
53 342
54 161
55 681
56 356
57 392
58 202
59 117
63 72
64 32
65 197
66 81
67 417
68 186
69 931
70 390
71 339
72 229
73 33
77 214
78 100
79 248
80 90
81 300
82 299
83 447
84 350
85 309
86 161
87 33
91 163
92 62
93 232
94 116
95 321
96 235
97 369
98 164
99 16
100 3
105 79
107 154
108 104
109 295
110 415
111 370
112 136
113 72
121 38
123 86
124 205
125 460
126 206
127 103
135 75
139 59
140 51
150 62
153 134
168 157
169 40

$$$$

     RDKit          2D

 12 12  0  0  1  0  0  0  0  0999 V2000
    2.0704   -2.0473    0.0000 C   0  0  0  0  0  0  0  0  0  0  0  0
   -1.7792   -1.1452    0.0000 C   0  0  0  0  0  0  0  0  0  0  0  0
   -0.1554   -2.3260    0.0000 C   0  0  0  0  0  0  0  0  0  0  0  0
   -1.5265    1.8822    0.0000 C   0  0  0  0  0  0  0  0  0  0  0  0
    1.6482    0.5858    0.0000 C   0  0  0  0  0  0  0  0  0  0  0  0
    0.4382    1.4758    0.0000 C   0  0  0  0  0  0  0  0  0  0  0  0
    1.1882   -0.8342    0.0000 C   0  0  0  0  0  0  0  0  0  0  0  0
   -2.5795   -0.2220    0.0000 C   0  0  0  0  0  0  0  0  0  0  0  0
   -0.3118   -0.8342    0.0000 C   0  0  0  0  0  0  0  0  0  0  0  0
   -0.7718    0.5858    0.0000 C   0  0  0  0  0  0  0  0  0  0  0  0
   -2.7342   -1.7140    0.0000 O   0  0  0  0  0  0  0  0  0  0  0  0
   -3.7942    0.6580    0.0000 O   0  0  0  0  0  0  0  0  0  0  0  0
  6  5  1  0
  7  1  1  1
  7  5  1  0
  9  2  1  0
  9  3  1  0
  9  7  1  0
 10  4  1  1
 10  6  1  0
 10  8  1  0
 10  9  1  0
 11  8  2  0
 12  8  1  0
M  END
>  <NAME>  (4879) 
D-CAMPHOLIC ACID

>  <SYNONYMS>  (4879) 
(D)-TRANS-1,2,2,3-TETRAMETHYLCYCLOPENTANECARBOXYLIC ACID

>  <SPECTRUM TYPE>  (4879) 
MS1

>  <INSTRUMENT TYPE>  (4879) 
EI-B

>  <INSTRUMENT>  (4879) 
JEOL JMS-D-3000

>  <ION MODE>  (4879) 
P

>  <INCHIKEY>  (4879) 
JDFOIACPOPEQLS-XCBNKYQSSA-N

>  <FORMULA>  (4879) 
C10H18O2

>  <EXACT MASS>  (4879) 
170.130679816

>  <MW>  (4879) 
170

>  <ID>  (4879) 
JP002471

>  <CONTRIBUTOR>  (4879) 
University of Tokyo Team, {Faculty of Engineering, University of Tokyo

>  <COMMENT>  (4879) 
SMILES=OC(=O)C(C)(C1)C(C)(C)C([H])(C)C1
InChI=InChI=1S/C10H18O2/c1-7-5-6-10(4,8(11)12)9(7,2)3/h7H,5-6H2,1-4H3,(H,11,12)/t7-,10+/m1/s1
computed SMILES=O=C(O)C1(C)CCC(C)C1(C)C
accession=JP002471
date=2016.01.19 (Created 2008.10.21, modified 2011.05.06)
author=MASS SPECTROSCOPY SOC. OF JAPAN (MSSJ)
license=CC BY-NC-SA
exact mass=170.13068
ionization energy=70 eV
ion type=[M]+*
computed spectral entropy=2.7028885551485455
computed normalized entropy=0.7430445456037948
SPLASH=splash10-00lr-9000000000-7e708060dec5f0ea6624
submitter=submitter = University of Tokyo Team (Faculty of Engineering, University of Tokyo)
MoNA Rating=3.75

>  <NUM PEAKS>  (4879) 
38

>  <MASS SPECTRAL PEAKS>  (4879) 
42 2.55
43 11.66
45 6.97
53 3.67
55 15.86
56 6.43
57 2.81
58 1.86
59 10.48
67 4.77
68 2.1
69 73.71
70 9.43
71 2.33
73 1.93
74 5
77 1.13
79 1.27
81 3.22
82 1.83
83 6.83
84 99.99
85 7.89
87 16.71
95 2.21
96 9.69
97 9.12
99 2.32
100 2.85
101 1.24
109 7.39
110 1.5
113 3.3
114 3.97
115 1.12
127 1.97
152 1.41
170 4.68

>  <PREDICTED SPECTRUM>  (4879) 
18 6
26 55
27 331
28 102
29 300
30 94
31 46
38 71
39 394
40 142
41 838
42 306
43 641
44 212
45 363
46 17
49 4
50 173
51 217
52 133
53 348
54 174
55 641
56 411
57 464
58 188
59 294
60 118
61 33
62 55
63 124
64 75
65 201
66 77
67 479
68 306
69 999
70 461
71 391
72 130
73 138
74 31
77 223
78 95
79 157
80 44
81 480
82 396
83 474
84 369
85 348
86 213
87 347
88 133
91 122
92 92
93 173
94 94
95 419
96 355
97 299
98 203
99 315
100 26
101 28
102 21
107 174
108 80
109 557
110 251
111 295
112 106
113 266
114 160
115 141
123 124
124 342
125 483
126 369
127 221
128 34
137 255
138 90
142 108
143 28
152 228
153 165
155 237
156 42
170 144
171 49

$$$$

     RDKit          2D

  9  9  0  0  1  0  0  0  0  0999 V2000
   -2.9228    0.8825    0.0000 C   0  0  0  0  0  0  0  0  0  0  0  0
    2.2733   -0.6175    0.0000 C   0  0  0  0  0  0  0  0  0  0  0  0
    2.2738    0.8833    0.0000 C   0  0  0  0  0  0  0  0  0  0  0  0
    0.9738   -1.3683    0.0000 C   0  0  0  0  0  0  0  0  0  0  0  0
    0.9748    1.6333    0.0000 C   0  0  0  0  0  0  0  0  0  0  0  0
   -0.3252   -0.6183    0.0000 C   0  0  0  0  0  0  0  0  0  0  0  0
   -1.6238    1.6325    0.0000 C   0  0  0  0  0  0  0  0  0  0  0  0
   -0.3248    0.8825    0.0000 C   0  0  0  0  0  0  0  0  0  0  0  0
   -1.6238    3.1325    0.0000 N   0  0  0  0  0  0  0  0  0  0  0  0
  3  2  2  0
  4  2  1  0
  5  3  1  0
  6  4  2  0
  7  1  1  1
  8  5  2  0
  8  6  1  0
  8  7  1  0
  7  9  1  0
M  END
>  <NAME>  (4880) 
L-(-)-ALPHA-PHENYLETHYLAMINE

>  <SYNONYMS>  (4880) 


>  <SPECTRUM TYPE>  (4880) 
MS1

>  <INSTRUMENT TYPE>  (4880) 
EI-B

>  <INSTRUMENT>  (4880) 
JEOL JMS-D-3000

>  <ION MODE>  (4880) 
P

>  <INCHIKEY>  (4880) 
RQEUFEKYXDPUSK-SSDOTTSWSA-N

>  <FORMULA>  (4880) 
C8H11N

>  <EXACT MASS>  (4880) 
121.08914935199999

>  <MW>  (4880) 
121

>  <ID>  (4880) 
JP002470

>  <CONTRIBUTOR>  (4880) 
University of Tokyo Team, {Faculty of Engineering, University of Tokyo

>  <COMMENT>  (4880) 
SMILES=[H]C(C)(N)c(c1)cccc1
InChI=InChI=1S/C8H11N/c1-7(9)8-5-3-2-4-6-8/h2-7H,9H2,1H3/t7-/m1/s1
computed SMILES=NC(C=1C=CC=CC1)C
accession=JP002470
date=2016.01.19 (Created 2008.10.21, modified 2011.05.06)
author=MASS SPECTROSCOPY SOC. OF JAPAN (MSSJ)
license=CC BY-NC-SA
exact mass=121.08915
ionization energy=70 eV
ion type=[M]+*
computed spectral entropy=2.6982539514095665
computed normalized entropy=0.801311820417158
SPLASH=splash10-0a4i-9700000000-2b2bbe2f7e713187dda7
submitter=submitter = University of Tokyo Team (Faculty of Engineering, University of Tokyo)
MoNA Rating=3.75

>  <NUM PEAKS>  (4880) 
29

>  <MASS SPECTRAL PEAKS>  (4880) 
42 14.39
43 15.73
44 17.27
45 15.17
50 3.5
51 8.76
52 3.29
53 10.22
58 4.03
59 21.31
60 1.59
63 1.72
65 1.57
73 1.19
74 13.28
75 1.19
76 1.18
77 16.74
78 5.58
79 26.49
80 1.98
91 2.41
103 4.05
104 5.63
105 20.83
106 99.99
107 8.43
120 8.4
121 1.57

>  <PREDICTED SPECTRUM>  (4880) 
14 12
15 51
17 15
18 33
25 8
26 66
27 148
28 201
29 42
30 77
31 2
36 43
37 114
38 162
39 339
40 195
41 243
42 383
43 275
44 584
45 121
46 29
49 43
50 259
51 424
52 287
53 259
54 148
59 19
61 2
62 89
63 141
64 60
65 190
66 161
67 130
74 155
75 162
76 160
77 516
78 348
79 416
80 169
81 44
87 4
89 99
90 68
91 268
92 46
93 24
102 69
103 178
104 535
105 453
106 999
107 376
108 35
118 105
120 335
121 145
122 39

$$$$

     RDKit          2D

 10  9  0  0  0  0  0  0  0  0999 V2000
    3.2476    3.3750    0.0000 C   0  0  0  0  0  0  0  0  0  0  0  0
   -5.8457    5.6250    0.0000 C   0  0  0  0  0  0  0  0  0  0  0  0
   -0.6495    4.1250    0.0000 C   0  0  0  0  0  0  0  0  0  0  0  0
   -1.9486    4.8750    0.0000 C   0  0  0  0  0  0  0  0  0  0  0  0
    0.6495    3.3750    0.0000 C   0  0  0  0  0  0  0  0  0  0  0  0
   -3.2476    5.6250    0.0000 C   0  0  0  0  0  0  0  0  0  0  0  0
    0.6495    1.8750    0.0000 O   0  0  0  0  0  0  0  0  0  0  0  0
   -3.2476    7.1250    0.0000 O   0  0  0  0  0  0  0  0  0  0  0  0
    1.9486    4.1250    0.0000 O   0  0  0  0  0  0  0  0  0  0  0  0
   -4.5466    4.8750    0.0000 O   0  0  0  0  0  0  0  0  0  0  0  0
  4  3  3  0
  5  3  1  0
  6  4  1  0
  7  5  2  0
  8  6  2  0
  9  1  1  0
  9  5  1  0
 10  2  1  0
 10  6  1  0
M  END
>  <NAME>  (4881) 
DIMETHYL ACETYLENEDICARBOXYLATE

>  <SYNONYMS>  (4881) 


>  <SPECTRUM TYPE>  (4881) 
MS1

>  <INSTRUMENT TYPE>  (4881) 
EI-B

>  <INSTRUMENT>  (4881) 
JEOL JMS-D-3000

>  <ION MODE>  (4881) 
P

>  <INCHIKEY>  (4881) 
VHILMKFSCRWWIJ-UHFFFAOYSA-N

>  <FORMULA>  (4881) 
C6H6O4

>  <EXACT MASS>  (4881) 
142.026608672

>  <MW>  (4881) 
142

>  <ID>  (4881) 
JP002469

>  <CONTRIBUTOR>  (4881) 
University of Tokyo Team, {Faculty of Engineering, University of Tokyo

>  <COMMENT>  (4881) 
SMILES=COC(=O)C#CC(=O)OC
InChI=InChI=1S/C6H6O4/c1-9-5(7)3-4-6(8)10-2/h1-2H3
computed SMILES=O=C(C#CC(=O)OC)OC
accession=JP002469
date=2016.01.19 (Created 2008.10.21, modified 2011.05.06)
author=MASS SPECTROSCOPY SOC. OF JAPAN (MSSJ)
license=CC BY-NC-SA
exact mass=142.02661
ionization energy=70 eV
ion type=[M]+*
computed spectral entropy=2.379087639533111
computed normalized entropy=0.6994853201875799
SPLASH=splash10-03k9-4900000000-4d712956ef214af5d5b6
submitter=submitter = University of Tokyo Team (Faculty of Engineering, University of Tokyo)
MoNA Rating=3.75

>  <NUM PEAKS>  (4881) 
30

>  <MASS SPECTRAL PEAKS>  (4881) 
42 1.27
43 4.94
45 5.55
51 1.92
52 13.03
53 6.22
54 1.09
58 1.83
59 18.8
65 1.06
66 2
68 1.16
69 3.73
74 3.03
77 8.7
78 1.3
80 8.97
81 1.25
82 2.36
83 3.96
84 4.59
91 5.08
98 4.19
105 2.44
111 99.99
112 15.13
113 2.03
121 68.24
122 6.22
142 1.16

>  <PREDICTED SPECTRUM>  (4881) 
14 68
15 262
16 59
17 9
18 23
25 51
26 121
27 189
28 261
29 478
30 63
31 338
32 68
33 94
36 5
37 179
38 196
39 292
40 229
41 92
42 120
43 43
44 320
45 548
50 111
51 63
52 127
53 137
54 211
55 308
56 133
58 37
59 895
60 147
65 118
66 109
67 175
68 336
69 116
70 48
81 125
82 139
83 295
84 153
85 19
96 17
97 147
98 56
111 999
112 338
142 50

$$$$

     RDKit          2D

  6  5  0  0  0  0  0  0  0  0999 V2000
    0.8002    0.0135    0.0000 C   0  0  0  0  0  0  0  0  0  0  0  0
   -0.6998    2.6115    0.0000 C   0  0  0  0  0  0  0  0  0  0  0  0
   -1.2488    0.5625    0.0000 C   0  0  0  0  0  0  0  0  0  0  0  0
    1.3493    2.0625    0.0000 C   0  0  0  0  0  0  0  0  0  0  0  0
    1.3493    3.5625    0.0000 I   0  0  0  0  0  0  0  0  0  0  0  0
    0.0502    1.3125    0.0000 Si  0  0  0  0  0  4  0  0  0  0  0  0
  5  4  1  0
  6  1  1  0
  6  2  1  0
  6  3  1  0
  6  4  1  0
M  END
>  <NAME>  (4882) 
IODOMETHYLTRIMETHYLSILANE

>  <SYNONYMS>  (4882) 


>  <SPECTRUM TYPE>  (4882) 
MS1

>  <INSTRUMENT TYPE>  (4882) 
EI-B

>  <INSTRUMENT>  (4882) 
JEOL JMS-D-3000

>  <ION MODE>  (4882) 
P

>  <INCHIKEY>  (4882) 
VZNYXGQMDSRJAL-UHFFFAOYSA-N

>  <FORMULA>  (4882) 
C4H11ISi

>  <EXACT MASS>  (4882) 
213.967474882

>  <MW>  (4882) 
214

>  <ID>  (4882) 
JP002468

>  <CONTRIBUTOR>  (4882) 
University of Tokyo Team, {Faculty of Engineering, University of Tokyo

>  <COMMENT>  (4882) 
SMILES=C[Si](C)(C)CI
InChI=InChI=1S/C4H11ISi/c1-6(2,3)4-5/h4H2,1-3H3
computed SMILES=IC[Si](C)(C)C
accession=JP002468
date=2016.01.19 (Created 2008.10.21, modified 2011.05.06)
author=MASS SPECTROSCOPY SOC. OF JAPAN (MSSJ)
license=CC BY-NC-SA
exact mass=213.96747
ionization energy=70 eV
ion type=[M]+*
computed spectral entropy=2.348866283539432
computed normalized entropy=0.6840055433146539
SPLASH=splash10-00dj-4920000000-232170215b2f2cc6de50
submitter=submitter = University of Tokyo Team (Faculty of Engineering, University of Tokyo)
MoNA Rating=3.75

>  <NUM PEAKS>  (4882) 
31

>  <MASS SPECTRAL PEAKS>  (4882) 
42 2.33
43 9.49
44 2.67
45 5.27
53 1.28
55 1.76
57 1.46
58 1.69
59 4.76
72 6.74
73 51.04
74 4.86
75 1.93
87 1.41
127 1.6
128 1.74
155 5.61
156 1.05
157 2.76
169 1.6
170 4.23
171 77.96
172 5.14
173 2.82
185 2.52
199 99.99
200 8.68
201 3.71
214 38.56
215 3.71
216 1.45

>  <PREDICTED SPECTRUM>  (4882) 
14 8
15 9
26 1
27 91
28 12
29 118
31 86
39 111
40 4
41 136
43 353
44 173
45 447
46 46
47 123
53 54
55 193
57 150
58 121
59 442
60 114
71 114
72 274
73 999
74 231
75 349
76 19
87 71
93 5
156 42
157 223
171 281
172 79
173 55
199 681
200 163
201 96
214 412
215 70
216 18

$$$$

     RDKit          2D

 23 24  0  0  0  0  0  0  0  0999 V2000
   -5.0923    1.6547    0.0000 C   0  0  0  0  0  0  0  0  0  0  0  0
   -2.4942    3.1547    0.0000 C   0  0  0  0  0  0  0  0  0  0  0  0
    0.6169    3.0642    0.0000 C   0  0  0  0  0  0  0  0  0  0  0  0
    0.1657    5.6229    0.0000 C   0  0  0  0  0  0  0  0  0  0  0  0
   -1.7568    4.7263    0.0000 C   0  0  0  0  0  0  0  0  0  0  0  0
   -3.7933    0.9047    0.0000 C   0  0  0  0  0  0  0  0  0  0  0  0
    4.0010   -0.5953    0.0000 C   0  0  0  0  0  0  0  0  0  0  0  0
    3.3049    5.4696    0.0000 C   0  0  0  0  0  0  0  0  0  0  0  0
    4.0015    0.9055    0.0000 C   0  0  0  0  0  0  0  0  0  0  0  0
    2.7015   -1.3461    0.0000 C   0  0  0  0  0  0  0  0  0  0  0  0
    1.8270    5.7307    0.0000 C   0  0  0  0  0  0  0  0  0  0  0  0
    3.8187    4.0595    0.0000 C   0  0  0  0  0  0  0  0  0  0  0  0
    2.7024    1.6555    0.0000 C   0  0  0  0  0  0  0  0  0  0  0  0
    1.4024   -0.5961    0.0000 C   0  0  0  0  0  0  0  0  0  0  0  0
    0.8628    4.5816    0.0000 C   0  0  0  0  0  0  0  0  0  0  0  0
    2.8545    2.9104    0.0000 C   0  0  0  0  0  0  0  0  0  0  0  0
   -1.1952    0.9047    0.0000 C   0  0  0  0  0  0  0  0  0  0  0  0
   -2.4942    1.6547    0.0000 C   0  0  0  0  0  0  0  0  0  0  0  0
    1.4029    0.9047    0.0000 C   0  0  0  0  0  0  0  0  0  0  0  0
    1.3766    3.1715    0.0000 C   0  0  0  0  0  0  0  0  0  0  0  0
    0.1039    1.6547    0.0000 C   0  0  0  0  0  0  0  0  0  0  0  0
   -0.8603    2.8038    0.0000 O   0  0  0  0  0  0  0  0  0  0  0  0
   -0.3473    4.2133    0.0000 Si  0  0  0  0  0  4  0  0  0  0  0  0
  6  1  2  0
  9  7  2  0
 10  7  1  0
 11  8  2  0
 12  8  1  0
 13  9  1  0
 14 10  2  0
 15 11  1  0
 16 12  2  0
 18  2  2  0
 18  6  1  0
 18 17  1  0
 19 13  2  0
 19 14  1  0
 20 15  2  0
 20 16  1  0
 21 17  1  0
 21 19  1  0
 21 20  1  0
 22 21  1  0
 23  3  1  0
 23  4  1  0
 23  5  1  0
 23 22  1  0
M  END
>  <NAME>  (4883) 
3-METHYLENE-5,5-DIPHENYL-5-TRIMETHYLSILOXYPENTENE

>  <SYNONYMS>  (4883) 


>  <SPECTRUM TYPE>  (4883) 
MS1

>  <INSTRUMENT TYPE>  (4883) 
EI-B

>  <INSTRUMENT>  (4883) 
JEOL JMS-D-3000

>  <ION MODE>  (4883) 
P

>  <INCHIKEY>  (4883) 
XJINLCNJCGOXLL-UHFFFAOYSA-N

>  <FORMULA>  (4883) 
C21H26OSi

>  <EXACT MASS>  (4883) 
322.175291982

>  <MW>  (4883) 
322

>  <ID>  (4883) 
JP002418

>  <CONTRIBUTOR>  (4883) 
University of Tokyo Team, {Faculty of Engineering, University of Tokyo

>  <COMMENT>  (4883) 
SMILES=C=CC(=C)CC(O[Si](C)(C)C)(c(c2)cccc2)c(c1)cccc1
InChI=InChI=1S/C21H26OSi/c1-6-18(2)17-21(22-23(3,4)5,19-13-9-7-10-14-19)20-15-11-8-12-16-20/h6-16H,1-2,17H2,3-5H3
computed SMILES=O(C(C=1C=CC=CC1)(C=2C=CC=CC2)CC(=C)C=C)[Si](C)(C)C
accession=JP002418
date=2016.01.19 (Created 2008.10.21, modified 2011.05.06)
author=MASS SPECTROSCOPY SOC. OF JAPAN (MSSJ)
license=CC BY-NC-SA
exact mass=322.17529
ionization energy=70 eV
ion type=[M]+*
computed spectral entropy=2.1040946752476186
computed normalized entropy=0.6314422385608581
SPLASH=splash10-0ab9-6190000000-a3670ac34572c46515ad
submitter=submitter = University of Tokyo Team (Faculty of Engineering, University of Tokyo)
MoNA Rating=3.75

>  <NUM PEAKS>  (4883) 
28

>  <MASS SPECTRAL PEAKS>  (4883) 
45 6
47 1.25
53 1.25
59 1.85
73 69.45
74 6.1
75 10.99
77 3.14
91 4.6
105 2.68
112 1.76
115 1.55
125 2.4
128 1.45
141 1.48
155 1.47
165 2.9
178 1.5
191 1.55
202 1.29
215 1.65
217 1.77
231 1.64
232 3.93
239 2.25
255 99.99
256 23.18
257 6.19

>  <PREDICTED SPECTRUM>  (4883) 
29 19
41 19
43 7
44 6
45 158
51 58
53 14
55 1
57 23
58 103
59 175
65 66
66 59
67 51
72 2
73 863
74 177
75 362
77 244
78 65
79 53
81 72
83 30
84 13
91 129
92 17
93 101
94 23
95 43
97 16
102 55
105 213
106 6
107 21
111 30
115 149
118 20
125 56
126 4
127 110
128 111
129 57
139 28
140 17
146 10
153 51
162 3
163 71
165 176
171 38
178 73
179 99
189 104
203 156
204 53
215 22
216 76
217 64
231 36
232 193
239 134
240 0
253 167
254 278
255 999
256 688
257 219

$$$$

     RDKit          2D

 18 18  0  0  0  0  0  0  0  0999 V2000
    2.2610   -0.4990    0.0000 C   0  0  0  0  0  0  0  0  0  0  0  0
    4.3100   -1.0481    0.0000 C   0  0  0  0  0  0  0  0  0  0  0  0
    4.8590    1.0010    0.0000 C   0  0  0  0  0  0  0  0  0  0  0  0
   -3.1900    1.5500    0.0000 C   0  0  0  0  0  0  0  0  0  0  0  0
   -2.4400    0.2500    0.0000 C   0  0  0  0  0  0  0  0  0  0  0  0
   -2.4400    2.8500    0.0000 C   0  0  0  0  0  0  0  0  0  0  0  0
   -0.9400    0.2500    0.0000 C   0  0  0  0  0  0  0  0  0  0  0  0
   -0.9400    2.8500    0.0000 C   0  0  0  0  0  0  0  0  0  0  0  0
   -0.1900   -1.0500    0.0000 C   0  0  0  0  0  0  0  0  0  0  0  0
   -0.1900    4.1500    0.0000 C   0  0  0  0  0  0  0  0  0  0  0  0
    1.3100   -1.0500    0.0000 C   0  0  0  0  0  0  0  0  0  0  0  0
    1.3100    4.1500    0.0000 C   0  0  0  0  0  0  0  0  0  0  0  0
    2.0600    0.2500    0.0000 C   0  0  0  0  0  0  0  0  0  0  0  0
    2.0600    2.8500    0.0000 C   0  0  0  0  0  0  0  0  0  0  0  0
    1.3100    1.5500    0.0000 C   0  0  0  0  0  0  0  0  0  0  0  0
    3.5600    2.8500    0.0000 I   0  0  0  0  0  0  0  0  0  0  0  0
    2.8100    1.5500    0.0000 O   0  0  0  0  0  0  0  0  0  0  0  0
    3.5600    0.2510    0.0000 Si  0  0  0  0  0  4  0  0  0  0  0  0
  5  4  1  0
  6  4  1  0
  7  5  1  0
  8  6  1  0
  9  7  1  0
 10  8  1  0
 11  9  1  0
 12 10  1  0
 13 11  1  0
 14 12  1  0
 15 13  1  0
 15 14  1  0
 16 14  1  0
 17 15  1  0
 18  1  1  0
 18  2  1  0
 18  3  1  0
 18 17  1  0
M  END
>  <NAME>  (4884) 
1-IODO-2-TRIMETHYLSILOXYCYCLODODECANE

>  <SYNONYMS>  (4884) 


>  <SPECTRUM TYPE>  (4884) 
MS1

>  <INSTRUMENT TYPE>  (4884) 
EI-B

>  <INSTRUMENT>  (4884) 
JEOL JMS-D-3000

>  <ION MODE>  (4884) 
P

>  <INCHIKEY>  (4884) 
VWRHWBFXGSUGKF-UHFFFAOYSA-N

>  <FORMULA>  (4884) 
C15H31IOSi

>  <EXACT MASS>  (4884) 
382.118890142

>  <MW>  (4884) 
382

>  <ID>  (4884) 
JP002417

>  <CONTRIBUTOR>  (4884) 
University of Tokyo Team, {Faculty of Engineering, University of Tokyo

>  <COMMENT>  (4884) 
SMILES=C(C1)CCCCC(O[Si](C)(C)C)C(I)CCCC1
InChI=InChI=1S/C15H31IOSi/c1-18(2,3)17-15-13-11-9-7-5-4-6-8-10-12-14(15)16/h14-15H,4-13H2,1-3H3
computed SMILES=IC1CCCCCCCCCCC1O[Si](C)(C)C
accession=JP002417
date=2016.01.19 (Created 2008.10.21, modified 2011.05.06)
author=MASS SPECTROSCOPY SOC. OF JAPAN (MSSJ)
license=CC BY-NC-SA
exact mass=382.11889
ionization energy=70 eV
ion type=[M]+*
computed spectral entropy=3.699565787686826
computed normalized entropy=0.879865931370435
SPLASH=splash10-05e9-9410000000-99d356587dfd18188621
submitter=submitter = University of Tokyo Team (Faculty of Engineering, University of Tokyo)
MoNA Rating=3.75

>  <NUM PEAKS>  (4884) 
67

>  <MASS SPECTRAL PEAKS>  (4884) 
42 42.82
43 7.75
45 12.96
47 5.84
53 8.13
54 6.48
55 57.56
58 18.04
59 11.05
61 4.19
67 37.1
68 13.85
69 29.86
71 11.05
73 99.99
74 6.09
75 88.69
76 4.7
77 4.95
79 15.88
80 9.78
81 33.03
82 23.37
83 53.11
84 8.25
91 9.02
93 8.76
94 4.32
95 32.78
96 12.45
97 18.8
98 14.35
99 4.06
103 19.56
107 4.82
109 25.15
111 7.75
112 4.32
115 7.36
116 4.32
121 8.13
122 4.7
123 5.97
125 4.7
127 4.32
129 80.55
130 43.58
131 4.82
135 7.24
143 29.73
144 6.6
155 15.5
156 4.32
157 6.73
164 4.95
182 6.35
183 8.76
185 9.4
199 4.44
211 4.82
239 4.32
254 11.94
255 83.22
256 19.31
257 6.86
367 5.84
382 4.95

>  <PREDICTED SPECTRUM>  (4884) 
26 21
27 102
28 13
29 84
30 15
39 138
40 82
41 431
42 190
43 304
44 93
45 202
47 103
50 72
51 88
52 33
53 201
54 278
55 534
56 135
57 209
58 121
59 153
60 20
61 156
62 8
63 15
64 4
65 89
66 115
67 529
68 329
69 512
70 172
71 245
72 125
73 830
74 271
75 727
76 251
77 264
78 100
79 281
80 236
81 673
82 404
83 388
84 135
85 147
87 1
89 65
91 235
92 150
93 261
94 229
95 572
96 226
97 305
98 90
99 179
100 76
101 184
102 44
103 364
104 196
105 155
106 45
107 115
108 91
109 300
110 122
111 237
112 116
113 135
115 208
116 152
117 211
118 22
121 91
122 94
123 243
124 75
125 95
126 6
127 122
128 72
129 926
130 572
131 116
132 13
134 5
135 72
136 11
137 99
138 9
139 130
141 78
142 20
143 369
144 101
145 73
146 56
147 74
148 31
149 10
151 28
152 64
153 28
154 10
155 147
156 31
157 73
161 4
162 6
163 81
164 45
165 127
166 35
167 96
168 26
169 88
170 37
171 131
172 9
179 45
181 48
183 81
184 58
185 304
186 3
187 84
195 66
197 98
198 55
199 187
200 58
202 64
211 78
212 15
213 90
222 3
227 12
228 2
237 24
239 118
240 31
253 92
254 220
255 999
256 407
257 314
258 28
270 2
292 19
367 202
368 61
382 166
383 50

$$$$

     RDKit          2D

 19 18  0  0  0  0  0  0  0  0999 V2000
    3.2476    5.6250    0.0000 C   0  0  0  0  0  0  0  0  0  0  0  0
    1.9486    7.8750    0.0000 C   0  0  0  0  0  0  0  0  0  0  0  0
   -3.2476    7.8750    0.0000 C   0  0  0  0  0  0  0  0  0  0  0  0
   -9.7428    5.6250    0.0000 C   0  0  0  0  0  0  0  0  0  0  0  0
   -6.5957    4.6740    0.0000 C   0  0  0  0  0  0  0  0  0  0  0  0
   -7.1447    2.6250    0.0000 C   0  0  0  0  0  0  0  0  0  0  0  0
   -5.0957    2.0760    0.0000 C   0  0  0  0  0  0  0  0  0  0  0  0
   -0.6495    6.3750    0.0000 C   0  0  0  0  0  0  0  0  0  0  0  0
    0.6495    5.6250    0.0000 C   0  0  0  0  0  0  0  0  0  0  0  0
   -1.9486    5.6250    0.0000 C   0  0  0  0  0  0  0  0  0  0  0  0
   -5.8457    6.3750    0.0000 C   0  0  0  0  0  0  0  0  0  0  0  0
    1.9486    6.3750    0.0000 C   0  0  0  0  0  0  0  0  0  0  0  0
   -3.2476    6.3750    0.0000 C   0  0  0  0  0  0  0  0  0  0  0  0
   -8.4437    6.3750    0.0000 C   0  0  0  0  0  0  0  0  0  0  0  0
   -4.5466    5.6250    0.0000 C   0  0  0  0  0  0  0  0  0  0  0  0
   -8.4437    7.8750    0.0000 O   0  0  0  0  0  0  0  0  0  0  0  0
   -7.1447    5.6250    0.0000 O   0  0  0  0  0  0  0  0  0  0  0  0
   -4.5466    4.1250    0.0000 O   0  0  0  0  0  0  0  0  0  0  0  0
   -5.8457    3.3750    0.0000 Si  0  0  0  0  0  4  0  0  0  0  0  0
  9  8  1  0
 10  8  1  0
 12  1  1  0
 12  2  1  0
 12  9  2  0
 13  3  1  0
 10 13  2  0
 14  4  1  0
 15 11  1  0
 15 13  1  0
 16 14  2  0
 17 11  1  0
 17 14  1  0
 18 15  1  0
 19  5  1  0
 19  6  1  0
 19  7  1  0
 19 18  1  0
M  END
>  <NAME>  (4885) 
2-TRIMETHYLSILOXYGERANYL ACETATE

>  <SYNONYMS>  (4885) 
3,7-DIMETHYL-2-TRIMETHYLSILOXY-3,6-OCTADIENYL ACETATE

>  <SPECTRUM TYPE>  (4885) 
MS1

>  <INSTRUMENT TYPE>  (4885) 
EI-B

>  <INSTRUMENT>  (4885) 
JEOL JMS-D-3000

>  <ION MODE>  (4885) 
P

>  <INCHIKEY>  (4885) 
UMXASTJSQGQEKV-JLHYYAGUSA-N

>  <FORMULA>  (4885) 
C15H28O3Si

>  <EXACT MASS>  (4885) 
284.180771286

>  <MW>  (4885) 
284

>  <ID>  (4885) 
JP002416

>  <CONTRIBUTOR>  (4885) 
University of Tokyo Team, {Faculty of Engineering, University of Tokyo

>  <COMMENT>  (4885) 
SMILES=CC(C)=CCC=C(C)C(COC(C)=O)O[Si](C)(C)C
InChI=InChI=1S/C15H28O3Si/c1-12(2)9-8-10-13(3)15(11-17-14(4)16)18-19(5,6)7/h9-10,15H,8,11H2,1-7H3/b13-10+
computed SMILES=O=C(OCC(O[Si](C)(C)C)C(=CCC=C(C)C)C)C
accession=JP002416
date=2016.01.19 (Created 2008.10.21, modified 2011.05.06)
author=MASS SPECTROSCOPY SOC. OF JAPAN (MSSJ)
license=CC BY-NC-SA
exact mass=284.18077
ionization energy=70 eV
ion type=[M]+*
computed spectral entropy=2.83403312384548
computed normalized entropy=0.841634732121788
SPLASH=splash10-01x0-2930000000-99913a98b17ca933143d
submitter=submitter = University of Tokyo Team (Faculty of Engineering, University of Tokyo)
MoNA Rating=3.75

>  <NUM PEAKS>  (4885) 
29

>  <MASS SPECTRAL PEAKS>  (4885) 
43 6.2
69 5.15
73 26.7
75 8.45
79 7.05
82 11.2
93 32.1
105 5.35
117 25
119 24.8
121 75.75
122 8.25
131 99.99
132 12.4
133 10.15
134 47.95
135 9.75
155 8.25
175 15.95
181 6.05
194 20.3
209 8.65
211 89.4
212 16.4
215 5.3
224 8.35
228 7.05
229 1.25
284 0.6

>  <PREDICTED SPECTRUM>  (4885) 
28 10
39 1
41 53
43 145
45 84
55 21
57 46
59 74
67 99
69 219
73 544
75 108
77 50
79 115
80 75
85 37
91 14
92 52
93 509
95 6
97 20
103 26
104 4
105 75
111 18
115 82
117 387
119 154
121 554
122 112
127 57
131 805
132 230
133 394
134 438
135 91
136 48
137 64
147 18
155 204
169 14
181 89
183 38
193 202
194 269
209 326
211 999
212 384
213 39
224 255
241 58
269 10
284 34
285 17

$$$$

     RDKit          2D

 17 17  0  0  0  0  0  0  0  0999 V2000
    5.1975   -1.4994    0.0000 C   0  0  0  0  0  0  0  0  0  0  0  0
    2.5994   -1.4998    0.0000 C   0  0  0  0  0  0  0  0  0  0  0  0
   -2.5989   -1.5002    0.0000 C   0  0  0  0  0  0  0  0  0  0  0  0
    5.7464   -0.5483    0.0000 C   0  0  0  0  0  0  0  0  0  0  0  0
    7.7953    0.0010    0.0000 C   0  0  0  0  0  0  0  0  0  0  0  0
    7.2459    2.0500    0.0000 C   0  0  0  0  0  0  0  0  0  0  0  0
   -1.3000    0.7500    0.0000 C   0  0  0  0  0  0  0  0  0  0  0  0
    0.0000   -1.5000    0.0000 C   0  0  0  0  0  0  0  0  0  0  0  0
    0.0000    1.5000    0.0000 C   0  0  0  0  0  0  0  0  0  0  0  0
    1.3000   -0.7500    0.0000 C   0  0  0  0  0  0  0  0  0  0  0  0
    2.5989    1.5002    0.0000 C   0  0  0  0  0  0  0  0  0  0  0  0
    3.8983   -0.7496    0.0000 C   0  0  0  0  0  0  0  0  0  0  0  0
   -1.3000   -0.7500    0.0000 C   0  0  0  0  0  0  0  0  0  0  0  0
    1.3000    0.7500    0.0000 C   0  0  0  0  0  0  0  0  0  0  0  0
    3.8981    0.7504    0.0000 C   0  0  0  0  0  0  0  0  0  0  0  0
    5.1970    1.5006    0.0000 O   0  0  0  0  0  0  0  0  0  0  0  0
    6.4962    0.7508    0.0000 Si  0  0  0  0  0  4  0  0  0  0  0  0
  9  7  2  0
 10  8  1  0
 12  1  1  0
 12  2  1  0
 13  3  1  0
 13  7  1  0
 13  8  2  0
 14  9  1  0
 14 10  2  0
 14 11  1  0
 15 11  1  0
 15 12  2  0
 16 15  1  0
 17  4  1  0
 17  5  1  0
 17  6  1  0
 17 16  1  0
M  END
>  <NAME>  (4886) 
3-METHYL-1-PARA-TOLYL-2-TRIMETHYLSILOXY-2-BUTENE

>  <SYNONYMS>  (4886) 


>  <SPECTRUM TYPE>  (4886) 
MS1

>  <INSTRUMENT TYPE>  (4886) 
EI-B

>  <INSTRUMENT>  (4886) 
JEOL JMS-D-3000

>  <ION MODE>  (4886) 
P

>  <INCHIKEY>  (4886) 
VORDKEHQNNRQAM-UHFFFAOYSA-N

>  <FORMULA>  (4886) 
C15H24OSi

>  <EXACT MASS>  (4886) 
248.15964191799998

>  <MW>  (4886) 
248

>  <ID>  (4886) 
JP002415

>  <CONTRIBUTOR>  (4886) 
University of Tokyo Team, {Faculty of Engineering, University of Tokyo

>  <COMMENT>  (4886) 
SMILES=Cc(c1)ccc(c1)CC(=C(C)C)O[Si](C)(C)C
InChI=InChI=1S/C15H24OSi/c1-12(2)15(16-17(4,5)6)11-14-9-7-13(3)8-10-14/h7-10H,11H2,1-6H3
computed SMILES=O(C(=C(C)C)CC1=CC=C(C=C1)C)[Si](C)(C)C
accession=JP002415
date=2016.01.19 (Created 2008.10.21, modified 2011.05.06)
author=MASS SPECTROSCOPY SOC. OF JAPAN (MSSJ)
license=CC BY-NC-SA
exact mass=248.15964
ionization energy=70 eV
ion type=[M]+*
computed spectral entropy=2.5632732331774655
computed normalized entropy=0.7777306151335764
SPLASH=splash10-00dj-9230000000-5fa5796fefea7eb5c8e2
submitter=submitter = University of Tokyo Team (Faculty of Engineering, University of Tokyo)
MoNA Rating=3.75

>  <NUM PEAKS>  (4886) 
27

>  <MASS SPECTRAL PEAKS>  (4886) 
41 4.82
42 2.33
43 4.94
45 15.91
47 2.7
70 3.51
71 2.86
73 99.99
74 8.5
75 44.36
76 3.48
77 4.32
105 8.1
119 6.9
128 2.72
141 7.04
142 2.98
143 19.26
144 2.81
157 4.48
159 7.07
191 4.08
233 15.64
234 3.53
248 45.49
249 9.63
250 2.65

>  <PREDICTED SPECTRUM>  (4886) 
27 28
41 66
43 266
44 11
45 342
47 109
51 48
52 17
53 105
55 18
57 51
58 53
59 197
60 3
61 27
65 78
67 34
69 12
73 999
74 261
75 446
76 93
77 143
78 103
79 79
85 29
89 1
91 118
103 83
104 90
105 457
106 120
107 53
115 83
116 133
129 98
130 70
131 47
141 90
142 117
143 466
144 216
147 10
149 7
155 2
157 153
158 232
159 141
160 19
174 0
176 10
191 56
205 0
233 431
234 178
235 47
248 730
249 326
250 148
251 13

$$$$

     RDKit          2D

 16 16  0  0  0  0  0  0  0  0999 V2000
    5.0600    2.8490    0.0000 C   0  0  0  0  0  0  0  0  0  0  0  0
    2.8100    4.1481    0.0000 C   0  0  0  0  0  0  0  0  0  0  0  0
   -3.1900    1.5500    0.0000 C   0  0  0  0  0  0  0  0  0  0  0  0
   -2.4400    0.2500    0.0000 C   0  0  0  0  0  0  0  0  0  0  0  0
   -2.4400    2.8500    0.0000 C   0  0  0  0  0  0  0  0  0  0  0  0
   -0.9400    0.2500    0.0000 C   0  0  0  0  0  0  0  0  0  0  0  0
   -0.9400    2.8500    0.0000 C   0  0  0  0  0  0  0  0  0  0  0  0
   -0.1900   -1.0500    0.0000 C   0  0  0  0  0  0  0  0  0  0  0  0
   -0.1900    4.1500    0.0000 C   0  0  0  0  0  0  0  0  0  0  0  0
    1.3100   -1.0500    0.0000 C   0  0  0  0  0  0  0  0  0  0  0  0
    1.3100    4.1500    0.0000 C   0  0  0  0  0  0  0  0  0  0  0  0
    2.0600    0.2500    0.0000 C   0  0  0  0  0  0  0  0  0  0  0  0
    2.0600    2.8500    0.0000 C   0  0  0  0  0  0  0  0  0  0  0  0
    1.3100    1.5500    0.0000 C   0  0  0  0  0  0  0  0  0  0  0  0
    2.8100    1.5500    0.0000 N   0  0  0  0  0  0  0  0  0  0  0  0
    3.5600    2.8490    0.0000 N   0  0  0  0  0  0  0  0  0  0  0  0
  4  3  1  0
  5  3  1  0
  6  4  1  0
  7  5  1  0
  8  6  1  0
  9  7  1  0
 10  8  1  0
 11  9  1  0
 12 10  1  0
 13 11  1  0
 14 12  1  0
 14 13  1  0
 15 14  2  3
 16  1  1  0
 16  2  1  0
 16 15  1  0
M  END
>  <NAME>  (4887) 
N-DIMETHYLAMINOCYCLODODECANIMINE

>  <SYNONYMS>  (4887) 
CYCLODODECANONE DIMETHYLHYDRAZONE

>  <SPECTRUM TYPE>  (4887) 
MS1

>  <INSTRUMENT TYPE>  (4887) 
EI-B

>  <INSTRUMENT>  (4887) 
JEOL JMS-D-3000

>  <ION MODE>  (4887) 
P

>  <INCHIKEY>  (4887) 
CJCDXLQSYITABD-UHFFFAOYSA-N

>  <FORMULA>  (4887) 
C14H28N2

>  <EXACT MASS>  (4887) 
224.22524889599998

>  <MW>  (4887) 
224

>  <ID>  (4887) 
JP002414

>  <CONTRIBUTOR>  (4887) 
University of Tokyo Team, {Faculty of Engineering, University of Tokyo

>  <COMMENT>  (4887) 
SMILES=CN(C)N=C(C1)CCCCCCCCCC1
InChI=InChI=1S/C14H28N2/c1-16(2)15-14-12-10-8-6-4-3-5-7-9-11-13-14/h3-13H2,1-2H3
computed SMILES=N(=C1CCCCCCCCCCC1)N(C)C
accession=JP002414
date=2016.01.19 (Created 2008.10.21, modified 2011.05.06)
author=MASS SPECTROSCOPY SOC. OF JAPAN (MSSJ)
license=CC BY-NC-SA
exact mass=224.22525
ionization energy=70 eV
ion type=[M]+*
computed spectral entropy=3.876782105788361
computed normalized entropy=0.9718720507612575
SPLASH=splash10-052f-9300000000-c319e2b09d70cab1cf37
submitter=submitter = University of Tokyo Team (Faculty of Engineering, University of Tokyo)
MoNA Rating=3.75

>  <NUM PEAKS>  (4887) 
54

>  <MASS SPECTRAL PEAKS>  (4887) 
41 99.99
42 44.59
43 70.27
45 40.54
46 31.08
53 20.27
54 24.32
55 85.13
56 25.67
57 66.21
58 62.16
59 35.13
60 89.18
67 29.72
68 20.27
69 62.16
70 31.08
71 41.89
72 32.43
73 14.86
79 31.08
80 27.02
81 36.48
82 32.43
83 52.7
84 21.62
85 27.02
86 44.59
91 24.32
93 27.02
94 24.32
95 41.89
96 24.32
97 35.13
98 12.16
99 33.78
100 29.72
108 24.32
109 33.78
110 31.08
111 35.13
112 32.43
113 29.72
121 12.16
122 24.32
123 33.78
124 31.08
125 35.13
135 28.37
137 22.97
149 24.32
180 27.02
182 24.32
224 14.86

>  <PREDICTED SPECTRUM>  (4887) 
27 69
28 54
29 186
30 208
31 41
33 8
34 29
36 35
37 8
38 51
39 390
40 231
41 999
42 787
43 778
44 863
45 460
46 181
50 59
51 122
52 140
53 369
54 334
55 856
56 473
57 525
58 313
59 391
60 200
61 45
62 9
63 91
64 121
65 171
66 110
67 470
68 400
69 599
70 545
71 467
72 438
73 561
74 152
75 23
76 67
77 137
78 62
79 335
80 232
81 377
82 403
83 439
84 420
85 334
86 221
87 203
88 23
91 69
92 100
93 150
94 198
95 349
96 418
97 383
98 398
99 339
100 270
101 133
102 124
107 24
108 216
109 167
110 206
111 256
112 322
113 250
114 254
115 185
116 111
117 25
119 3
120 82
122 103
123 124
124 195
125 344
126 308
127 248
128 293
129 140
130 37
136 49
137 80
138 85
139 271
140 182
141 231
142 91
150 135
152 112
153 304
154 215
155 148
156 71
164 11
165 43
166 59
167 258
168 144
169 93
179 15
180 60
181 427
182 230
183 121
195 268
196 107
207 51
208 71
209 302
210 162
223 271
224 865
225 395
226 141

$$$$

     RDKit          2D

 16 16  0  0  0  0  0  0  0  0999 V2000
   -0.3240    4.6329    0.0000 C   0  0  0  0  0  0  0  0  0  0  0  0
   -0.3240   -1.3671    0.0000 C   0  0  0  0  0  0  0  0  0  0  0  0
    0.2250   -0.4161    0.0000 C   0  0  0  0  0  0  0  0  0  0  0  0
    2.2740    0.1329    0.0000 C   0  0  0  0  0  0  0  0  0  0  0  0
    1.7250    2.1820    0.0000 C   0  0  0  0  0  0  0  0  0  0  0  0
   -0.3240    3.1329    0.0000 C   0  0  0  0  0  0  0  0  0  0  0  0
   -5.5202    3.1329    0.0000 C   0  0  0  0  0  0  0  0  0  0  0  0
   -5.5207    1.6321    0.0000 C   0  0  0  0  0  0  0  0  0  0  0  0
   -4.2207    3.8837    0.0000 C   0  0  0  0  0  0  0  0  0  0  0  0
   -4.2216    0.8821    0.0000 C   0  0  0  0  0  0  0  0  0  0  0  0
   -2.9216    3.1337    0.0000 C   0  0  0  0  0  0  0  0  0  0  0  0
   -2.9221    1.6329    0.0000 C   0  0  0  0  0  0  0  0  0  0  0  0
   -0.3240    1.6329    0.0000 C   0  0  0  0  0  0  0  0  0  0  0  0
   -1.6231    0.8829    0.0000 C   0  0  0  0  0  0  0  0  0  0  0  0
   -1.6231   -0.6171    0.0000 O   0  0  0  0  0  0  0  0  0  0  0  0
    0.9750    0.8829    0.0000 Si  0  0  0  0  0  4  0  0  0  0  0  0
  6  1  2  0
  8  7  2  0
  9  7  1  0
 10  8  1  0
 11  9  2  0
 12 10  2  0
 12 11  1  0
 13  6  2  0
 14 12  1  0
 14 13  1  0
 15  2  1  0
 15 14  1  0
 16  3  1  0
 16  4  1  0
 16  5  1  0
 16 13  1  0
M  END
>  <NAME>  (4888) 
4-METHOXY-4-PHENYL-3-TRIMETHYLSILYL-1,2-BUTADIENE

>  <SYNONYMS>  (4888) 


>  <SPECTRUM TYPE>  (4888) 
MS1

>  <INSTRUMENT TYPE>  (4888) 
EI-B

>  <INSTRUMENT>  (4888) 
JEOL JMS-D-3000

>  <ION MODE>  (4888) 
P

>  <INCHIKEY>  (4888) 
NDPBSSRBORGJGZ-UHFFFAOYSA-N

>  <FORMULA>  (4888) 
C14H20OSi

>  <EXACT MASS>  (4888) 
232.12834179

>  <MW>  (4888) 
232

>  <ID>  (4888) 
JP002413

>  <CONTRIBUTOR>  (4888) 
University of Tokyo Team, {Faculty of Engineering, University of Tokyo

>  <COMMENT>  (4888) 
SMILES=COC(c(c1)cccc1)C(=C=C)[Si](C)(C)C
InChI=InChI=1S/C14H20OSi/c1-6-13(16(3,4)5)14(15-2)12-10-8-7-9-11-12/h7-11,14H,1H2,2-5H3
computed SMILES=C(=C)=C(C(OC)C=1C=CC=CC1)[Si](C)(C)C
accession=JP002413
date=2016.01.19 (Created 2008.10.21, modified 2011.05.06)
author=MASS SPECTROSCOPY SOC. OF JAPAN (MSSJ)
license=CC BY-NC-SA
exact mass=232.12834
ionization energy=70 eV
ion type=[M]+*
computed spectral entropy=2.1602037757117682
computed normalized entropy=0.6630263254948172
SPLASH=splash10-00dr-7900000000-7efa0f44c0c89b962634
submitter=submitter = University of Tokyo Team (Faculty of Engineering, University of Tokyo)
MoNA Rating=3.75

>  <NUM PEAKS>  (4888) 
26

>  <MASS SPECTRAL PEAKS>  (4888) 
59 3.59
73 19.86
74 1.71
75 1.2
77 12.38
78 1.31
89 70.59
90 6.11
91 13.06
92 1.1
93 1.63
96 1.28
105 3.13
106 1.26
122 99.99
123 6.22
127 2.1
128 34.97
129 4.1
158 1.78
159 3.27
185 3.72
200 1.28
201 1.13
217 3.24
232 0.19

>  <PREDICTED SPECTRUM>  (4888) 
27 77
28 31
29 37
31 17
38 7
39 129
40 18
42 6
43 123
44 66
45 433
47 76
50 52
51 170
52 47
53 98
54 18
55 123
56 11
58 92
59 391
60 149
61 100
62 65
63 121
65 68
67 9
68 12
69 202
70 43
71 30
72 93
73 891
74 203
75 128
76 30
77 222
78 147
79 77
83 159
84 13
85 27
86 27
87 29
88 22
89 999
90 460
91 437
93 17
101 11
104 34
105 299
111 47
115 45
116 8
117 28
118 94
121 269
122 441
123 173
127 75
128 370
129 20
157 73
158 33
159 6
173 51
217 239
218 70
232 88
233 2

$$$$

     RDKit          2D

 16 17  0  0  0  0  0  0  0  0999 V2000
    0.0011   -1.9302    0.0000 C   0  0  0  0  0  0  0  0  0  0  0  0
    5.1972    2.5698    0.0000 C   0  0  0  0  0  0  0  0  0  0  0  0
    3.8977    3.3206    0.0000 C   0  0  0  0  0  0  0  0  0  0  0  0
    5.1977    1.0690    0.0000 C   0  0  0  0  0  0  0  0  0  0  0  0
   -1.2986    3.3217    0.0000 C   0  0  0  0  0  0  0  0  0  0  0  0
   -2.5977    2.5719    0.0000 C   0  0  0  0  0  0  0  0  0  0  0  0
    2.5987    2.5706    0.0000 C   0  0  0  0  0  0  0  0  0  0  0  0
    3.8987    0.3190    0.0000 C   0  0  0  0  0  0  0  0  0  0  0  0
    0.0008    2.5706    0.0000 C   0  0  0  0  0  0  0  0  0  0  0  0
   -2.5975    1.0710    0.0000 C   0  0  0  0  0  0  0  0  0  0  0  0
    2.5992    1.0698    0.0000 C   0  0  0  0  0  0  0  0  0  0  0  0
    0.0011    1.0698    0.0000 C   0  0  0  0  0  0  0  0  0  0  0  0
   -1.2981    0.3200    0.0000 C   0  0  0  0  0  0  0  0  0  0  0  0
    1.3001    0.3198    0.0000 C   0  0  0  0  0  0  0  0  0  0  0  0
   -1.2986   -1.1800    0.0000 O   0  0  0  0  0  0  0  0  0  0  0  0
    1.3001   -1.1802    0.0000 O   0  0  0  0  0  0  0  0  0  0  0  0
  3  2  2  0
  4  2  1  0
  6  5  1  0
  7  3  1  0
  8  4  2  0
  9  5  1  0
 10  6  1  0
 11  7  2  0
 11  8  1  0
 12  9  1  0
 13 10  1  0
 13 12  1  0
 14 11  1  0
 14 12  1  0
 15 13  2  0
 16  1  1  0
 16 14  1  0
M  END
>  <NAME>  (4889) 
2-(I-METHOXYBENZYL)CYCLOHEXANONE

>  <SYNONYMS>  (4889) 


>  <SPECTRUM TYPE>  (4889) 
MS1

>  <INSTRUMENT TYPE>  (4889) 
EI-B

>  <INSTRUMENT>  (4889) 
JEOL JMS-D-3000

>  <ION MODE>  (4889) 
P

>  <INCHIKEY>  (4889) 
LRFLORXTZQEIMB-UHFFFAOYSA-N

>  <FORMULA>  (4889) 
C14H18O2

>  <EXACT MASS>  (4889) 
218.130679816

>  <MW>  (4889) 
218

>  <ID>  (4889) 
JP002412

>  <CONTRIBUTOR>  (4889) 
University of Tokyo Team, {Faculty of Engineering, University of Tokyo

>  <COMMENT>  (4889) 
SMILES=COC(c(c2)cccc2)C(C1)C(=O)CCC1
InChI=InChI=1S/C14H18O2/c1-16-14(11-7-3-2-4-8-11)12-9-5-6-10-13(12)15/h2-4,7-8,12,14H,5-6,9-10H2,1H3
computed SMILES=O=C1CCCCC1C(OC)C=2C=CC=CC2
accession=JP002412
date=2016.01.19 (Created 2008.10.21, modified 2011.05.06)
author=MASS SPECTROSCOPY SOC. OF JAPAN (MSSJ)
license=CC BY-NC-SA
exact mass=218.13068
ionization energy=70 eV
ion type=[M]+*
computed spectral entropy=1.8227935122194225
computed normalized entropy=0.5897018691021267
SPLASH=splash10-00di-2900000000-5f1b263d875c2a232b0a
submitter=submitter = University of Tokyo Team (Faculty of Engineering, University of Tokyo)
MoNA Rating=3.75

>  <NUM PEAKS>  (4889) 
22

>  <MASS SPECTRAL PEAKS>  (4889) 
42 3.91
51 3.08
55 2.51
65 2.05
67 1.12
77 11.93
78 2.32
91 9.44
103 1.16
105 8.08
115 3.18
117 2.35
121 99.99
122 9.51
128 1.29
129 1.92
130 1.35
185 1.45
186 1.55
189 1.69
203 1.69
218 1.22

>  <PREDICTED SPECTRUM>  (4889) 
39 65
40 22
41 124
51 35
55 88
65 44
67 33
69 52
74 37
77 204
78 90
79 46
81 30
91 326
97 28
103 62
105 206
106 95
115 92
116 36
119 22
120 3
121 999
122 327
128 60
129 98
145 15
186 157
218 103

$$$$

     RDKit          2D

 15 15  0  0  0  0  0  0  0  0999 V2000
   -6.8197    3.1321    0.0000 C   0  0  0  0  0  0  0  0  0  0  0  0
   -4.2216    7.6321    0.0000 C   0  0  0  0  0  0  0  0  0  0  0  0
   -5.5207    3.8821    0.0000 C   0  0  0  0  0  0  0  0  0  0  0  0
   -4.2216    6.1321    0.0000 C   0  0  0  0  0  0  0  0  0  0  0  0
    3.5726    1.6321    0.0000 C   0  0  0  0  0  0  0  0  0  0  0  0
    3.5731    3.1329    0.0000 C   0  0  0  0  0  0  0  0  0  0  0  0
    2.2731    0.8813    0.0000 C   0  0  0  0  0  0  0  0  0  0  0  0
   -4.2216    3.1321    0.0000 C   0  0  0  0  0  0  0  0  0  0  0  0
    2.2740    3.8829    0.0000 C   0  0  0  0  0  0  0  0  0  0  0  0
    0.9740    1.6313    0.0000 C   0  0  0  0  0  0  0  0  0  0  0  0
   -0.3245    3.8821    0.0000 C   0  0  0  0  0  0  0  0  0  0  0  0
   -1.6236    3.1321    0.0000 C   0  0  0  0  0  0  0  0  0  0  0  0
    0.9745    3.1321    0.0000 C   0  0  0  0  0  0  0  0  0  0  0  0
   -2.9226    3.8821    0.0000 C   0  0  0  0  0  0  0  0  0  0  0  0
   -2.9226    5.3821    0.0000 O   0  0  0  0  0  0  0  0  0  0  0  0
  3  1  2  0
  4  2  1  0
  6  5  2  0
  7  5  1  0
  8  3  1  0
  9  6  1  0
 10  7  2  0
 11 12  2  0
 13  9  2  0
 13 10  1  0
 13 11  1  0
 14  8  1  0
 14 12  1  0
 15  4  1  0
 15 14  1  0
M  END
>  <NAME>  (4890) 
3-ETHOXY-1-PHENYL-1,5-HEXADIENE

>  <SYNONYMS>  (4890) 


>  <SPECTRUM TYPE>  (4890) 
MS1

>  <INSTRUMENT TYPE>  (4890) 
EI-B

>  <INSTRUMENT>  (4890) 
JEOL JMS-D-3000

>  <ION MODE>  (4890) 
P

>  <INCHIKEY>  (4890) 
WTTVTGXLZBPQGO-VAWYXSNFSA-N

>  <FORMULA>  (4890) 
C14H18O

>  <EXACT MASS>  (4890) 
202.135765196

>  <MW>  (4890) 
202

>  <ID>  (4890) 
JP002411

>  <CONTRIBUTOR>  (4890) 
University of Tokyo Team, {Faculty of Engineering, University of Tokyo

>  <COMMENT>  (4890) 
SMILES=C=CCC(OCC)C=Cc(c1)cccc1
InChI=InChI=1S/C14H18O/c1-3-8-14(15-4-2)12-11-13-9-6-5-7-10-13/h3,5-7,9-12,14H,1,4,8H2,2H3/b12-11+
computed SMILES=O(CC)C(C=CC=1C=CC=CC1)CC=C
accession=JP002411
date=2016.01.19 (Created 2008.10.21, modified 2011.05.06)
author=MASS SPECTROSCOPY SOC. OF JAPAN (MSSJ)
license=CC BY-NC-SA
exact mass=202.13577
ionization energy=70 eV
ion type=[M]+*
computed spectral entropy=2.609898636693406
computed normalized entropy=0.7750725711271674
SPLASH=splash10-03e9-3900000000-3059a5b1b359efaed894
submitter=submitter = University of Tokyo Team (Faculty of Engineering, University of Tokyo)
MoNA Rating=3.75

>  <NUM PEAKS>  (4890) 
29

>  <MASS SPECTRAL PEAKS>  (4890) 
42 6.39
51 5.56
55 32.77
63 2.65
65 3.32
76 2.01
77 15.2
78 5.64
79 5.68
89 2.27
91 15.35
102 3.25
103 11.06
104 4.07
105 11.06
115 36.8
116 4.74
117 2.09
127 2.13
128 5.64
129 5
131 7.66
132 1.98
133 66.25
134 6.76
141 2.46
156 2.01
161 99.99
162 12.63

>  <PREDICTED SPECTRUM>  (4890) 
14 12
15 7
17 2
18 25
19 0
25 17
26 109
27 318
28 106
29 307
30 15
31 112
36 15
37 75
38 163
39 531
40 182
41 553
42 136
43 272
44 112
45 282
46 37
47 78
49 37
50 262
51 470
52 225
53 266
54 54
55 279
56 32
57 207
58 39
60 40
61 78
62 151
63 303
64 200
65 428
66 134
67 215
68 123
69 177
70 93
71 135
73 17
74 186
75 251
76 253
77 552
78 364
79 332
80 113
81 229
82 105
83 110
85 54
86 42
87 163
88 123
89 206
90 65
91 954
92 319
93 84
94 50
95 131
96 43
97 108
98 67
99 135
100 60
101 234
102 335
103 438
104 267
105 548
106 176
107 121
110 22
111 213
113 28
114 73
115 753
116 400
117 271
118 160
119 88
120 68
121 58
125 10
126 86
127 429
128 632
129 764
130 421
131 489
132 172
133 228
134 128
139 14
141 354
142 197
143 375
144 211
145 357
146 215
147 70
148 57
153 89
154 70
155 473
156 463
157 999
158 508
159 409
160 192
161 504
162 201
169 99
171 9
172 162
173 439
174 174
175 38
183 96
184 31
185 44
186 89
187 211
188 26
200 0
201 182
202 554
203 193
204 14

$$$$

     RDKit          2D

 15 15  0  0  0  0  0  0  0  0999 V2000
   -5.2353    2.6378    0.0000 C   0  0  0  0  0  0  0  0  0  0  0  0
    0.4120    5.1965    0.0000 C   0  0  0  0  0  0  0  0  0  0  0  0
   -2.6372    4.1378    0.0000 C   0  0  0  0  0  0  0  0  0  0  0  0
   -3.9363    1.8878    0.0000 C   0  0  0  0  0  0  0  0  0  0  0  0
    0.9250    3.7869    0.0000 C   0  0  0  0  0  0  0  0  0  0  0  0
    3.8579    0.3878    0.0000 C   0  0  0  0  0  0  0  0  0  0  0  0
    3.8584    1.8887    0.0000 C   0  0  0  0  0  0  0  0  0  0  0  0
    2.5584   -0.3630    0.0000 C   0  0  0  0  0  0  0  0  0  0  0  0
    2.5594    2.6387    0.0000 C   0  0  0  0  0  0  0  0  0  0  0  0
    1.2594    0.3870    0.0000 C   0  0  0  0  0  0  0  0  0  0  0  0
   -1.3382    1.8878    0.0000 C   0  0  0  0  0  0  0  0  0  0  0  0
   -2.6372    2.6378    0.0000 C   0  0  0  0  0  0  0  0  0  0  0  0
    1.2599    1.8878    0.0000 C   0  0  0  0  0  0  0  0  0  0  0  0
   -0.0392    2.6378    0.0000 C   0  0  0  0  0  0  0  0  0  0  0  0
   -1.0034    3.7869    0.0000 O   0  0  0  0  0  0  0  0  0  0  0  0
  4  1  2  0
  5  2  1  0
  7  6  2  0
  8  6  1  0
  9  7  1  0
 10  8  2  0
 12  3  2  0
 12  4  1  0
 12 11  1  0
 13  9  2  0
 13 10  1  0
 14  5  1  0
 14 11  1  0
 14 13  1  0
 15 14  1  0
M  END
>  <NAME>  (4891) 
5-METHYLENE-3-PHENYL-6-HEPTEN-3-OL

>  <SYNONYMS>  (4891) 


>  <SPECTRUM TYPE>  (4891) 
MS1

>  <INSTRUMENT TYPE>  (4891) 
EI-B

>  <INSTRUMENT>  (4891) 
JEOL JMS-D-3000

>  <ION MODE>  (4891) 
P

>  <INCHIKEY>  (4891) 
WPSCHDLKCBWLIC-UHFFFAOYSA-N

>  <FORMULA>  (4891) 
C14H18O

>  <EXACT MASS>  (4891) 
202.135765196

>  <MW>  (4891) 
202

>  <ID>  (4891) 
JP002410

>  <CONTRIBUTOR>  (4891) 
University of Tokyo Team, {Faculty of Engineering, University of Tokyo

>  <COMMENT>  (4891) 
SMILES=C=CC(=C)CC(O)(CC)c(c1)cccc1
InChI=InChI=1S/C14H18O/c1-4-12(3)11-14(15,5-2)13-9-7-6-8-10-13/h4,6-10,15H,1,3,5,11H2,2H3
computed SMILES=OC(C=1C=CC=CC1)(CC(=C)C=C)CC
accession=JP002410
date=2016.01.19 (Created 2008.10.21, modified 2011.05.06)
author=MASS SPECTROSCOPY SOC. OF JAPAN (MSSJ)
license=CC BY-NC-SA
exact mass=202.13577
ionization energy=70 eV
ion type=[M]+*
computed spectral entropy=2.672779885083212
computed normalized entropy=0.7937466798377344
SPLASH=splash10-0a4r-6900000000-f6b625fd6f0923b2c4cd
submitter=submitter = University of Tokyo Team (Faculty of Engineering, University of Tokyo)
MoNA Rating=3.75

>  <NUM PEAKS>  (4891) 
29

>  <MASS SPECTRAL PEAKS>  (4891) 
41 7.54
43 10.57
51 8.61
53 4.45
57 67.25
65 4.16
67 3.5
68 3.87
77 23.91
78 4.57
79 3.76
91 14.04
93 5.88
105 32.12
106 3.63
115 8.56
117 4.7
128 4.78
129 5.5
135 99.99
136 10.15
141 4.33
153 3.47
154 4.54
155 23.54
156 3.62
169 7.55
184 7.78
202 0.12

>  <PREDICTED SPECTRUM>  (4891) 
26 42
27 215
29 268
38 21
39 351
40 76
41 406
43 612
45 99
49 9
50 152
51 429
52 150
53 169
55 210
57 777
58 29
63 182
64 8
65 231
66 146
67 254
69 166
70 13
71 5
74 54
75 134
76 34
77 813
78 319
79 254
81 17
83 22
85 100
87 110
89 98
91 499
92 54
93 153
99 15
102 108
103 74
104 74
105 999
106 237
107 103
115 614
116 259
117 377
126 28
127 158
128 413
129 600
130 5
133 51
134 165
135 852
136 250
137 169
139 107
141 251
143 30
147 185
151 112
152 5
153 392
154 511
155 773
156 308
161 19
168 14
169 350
170 90
173 211
174 47
183 18
184 288
202 16

$$$$

     RDKit          2D

 15 14  0  0  0  0  0  0  0  0999 V2000
    5.6813    1.9785    0.0000 C   0  0  0  0  0  0  0  0  0  0  0  0
    3.0832    0.4785    0.0000 C   0  0  0  0  0  0  0  0  0  0  0  0
    5.1323   -0.0706    0.0000 C   0  0  0  0  0  0  0  0  0  0  0  0
   -0.5977    5.3265    0.0000 C   0  0  0  0  0  0  0  0  0  0  0  0
   -2.0977    3.8265    0.0000 C   0  0  0  0  0  0  0  0  0  0  0  0
   -0.5977    2.3265    0.0000 C   0  0  0  0  0  0  0  0  0  0  0  0
    5.0418    3.0405    0.0000 C   0  0  0  0  0  0  0  0  0  0  0  0
    3.3718    4.0047    0.0000 C   0  0  0  0  0  0  0  0  0  0  0  0
    2.3118    4.3396    0.0000 C   0  0  0  0  0  0  0  0  0  0  0  0
    0.6418    5.3037    0.0000 C   0  0  0  0  0  0  0  0  0  0  0  0
    4.3823    1.2285    0.0000 C   0  0  0  0  0  0  0  0  0  0  0  0
   -0.5977    3.8265    0.0000 C   0  0  0  0  0  0  0  0  0  0  0  0
    1.6523    2.5275    0.0000 O   0  0  0  0  0  0  0  0  0  0  0  0
    3.6323    2.5275    0.0000 Si  0  0  0  0  0  4  0  0  0  0  0  0
    0.9023    3.8265    0.0000 Si  0  0  0  0  0  4  0  0  0  0  0  0
 11  1  1  0
 11  2  1  0
 11  3  1  0
 12  4  1  0
 12  5  1  0
 12  6  1  0
 14  7  1  0
 14  8  1  0
 14 11  1  0
 14 13  1  0
 15  9  1  0
 15 10  1  0
 15 12  1  0
 15 13  1  0
M  END
>  <NAME>  (4892) 
BIS(TERT-BUTYLDIMETHYLSILYL) ETHER

>  <SYNONYMS>  (4892) 


>  <SPECTRUM TYPE>  (4892) 
MS1

>  <INSTRUMENT TYPE>  (4892) 
EI-B

>  <INSTRUMENT>  (4892) 
JEOL JMS-D-3000

>  <ION MODE>  (4892) 
P

>  <INCHIKEY>  (4892) 
FGTJJHCZWOVVNH-UHFFFAOYSA-N

>  <FORMULA>  (4892) 
C12H30OSi2

>  <EXACT MASS>  (4892) 
246.18351864

>  <MW>  (4892) 
246

>  <ID>  (4892) 
JP002409

>  <CONTRIBUTOR>  (4892) 
University of Tokyo Team, {Faculty of Engineering, University of Tokyo

>  <COMMENT>  (4892) 
SMILES=CC(C)(C)[Si](C)(C)O[Si](C)(C)C(C)(C)C
InChI=InChI=1S/C12H30OSi2/c1-11(2,3)14(7,8)13-15(9,10)12(4,5)6/h1-10H3
computed SMILES=O([Si](C)(C)C(C)(C)C)[Si](C)(C)C(C)(C)C
accession=JP002409
date=2016.01.19 (Created 2008.10.21, modified 2011.05.06)
author=MASS SPECTROSCOPY SOC. OF JAPAN (MSSJ)
license=CC BY-NC-SA
exact mass=246.18352
ionization energy=70 eV
ion type=[M]+*
computed spectral entropy=1.9206536133016179
computed normalized entropy=0.641129926815205
SPLASH=splash10-0002-1900000000-71bc412104d55ee124c9
submitter=submitter = University of Tokyo Team (Faculty of Engineering, University of Tokyo)
MoNA Rating=3.75

>  <NUM PEAKS>  (4892) 
20

>  <MASS SPECTRAL PEAKS>  (4892) 
42 1.99
45 2
57 1.49
59 3.59
66 2.37
73 14.74
74 1.33
75 1.3
117 4.18
119 1
131 4
133 5.22
147 99.99
148 15.83
149 7.92
189 27.02
190 5.24
191 2.34
231 1.16
246 0.77

>  <PREDICTED SPECTRUM>  (4892) 
29 105
39 54
40 11
41 168
42 47
43 118
44 39
45 99
47 60
53 12
55 28
56 240
57 383
58 187
59 296
60 100
61 80
62 12
63 60
64 9
66 56
68 5
69 52
71 35
73 864
74 262
75 255
76 88
77 169
78 17
79 13
85 32
89 15
90 39
91 3
92 59
99 123
100 59
103 63
104 63
106 1
113 109
115 132
116 45
117 203
118 93
119 221
120 82
131 191
132 226
133 430
134 226
135 88
145 13
146 109
147 480
148 270
149 261
150 154
151 85
159 10
161 10
173 86
189 999
190 456
191 306
192 80
231 136
232 6

$$$$

     RDKit          2D

 14 14  0  0  0  0  0  0  0  0999 V2000
    3.2474    5.2504    0.0000 C   0  0  0  0  0  0  0  0  0  0  0  0
    4.5468    3.0006    0.0000 C   0  0  0  0  0  0  0  0  0  0  0  0
    4.5470    1.5006    0.0000 C   0  0  0  0  0  0  0  0  0  0  0  0
   -1.9500    0.7500    0.0000 C   0  0  0  0  0  0  0  0  0  0  0  0
   -1.9500   -0.7500    0.0000 C   0  0  0  0  0  0  0  0  0  0  0  0
   -0.6500    1.5000    0.0000 C   0  0  0  0  0  0  0  0  0  0  0  0
   -0.6500   -1.5000    0.0000 C   0  0  0  0  0  0  0  0  0  0  0  0
    1.9487    3.0002    0.0000 C   0  0  0  0  0  0  0  0  0  0  0  0
    3.2476    3.7504    0.0000 C   0  0  0  0  0  0  0  0  0  0  0  0
    0.6500    0.7500    0.0000 C   0  0  0  0  0  0  0  0  0  0  0  0
    0.6500   -0.7500    0.0000 C   0  0  0  0  0  0  0  0  0  0  0  0
    1.9489    1.5002    0.0000 C   0  0  0  0  0  0  0  0  0  0  0  0
    1.9489   -1.5002    0.0000 O   0  0  0  0  0  0  0  0  0  0  0  0
    3.2481    0.7504    0.0000 O   0  0  0  0  0  0  0  0  0  0  0  0
  5  4  1  0
  6  4  1  0
  7  5  1  0
  9  1  1  0
  9  2  1  0
  9  8  1  0
 10  6  1  0
 11  7  1  0
 11 10  1  0
 12  8  1  0
 12 10  1  0
 13 11  2  0
 14  3  1  0
 14 12  1  0
M  END
>  <NAME>  (4893) 
2-(1-METHOXY-3-METHYLBUTYL)CYCLOHEXANONE

>  <SYNONYMS>  (4893) 


>  <SPECTRUM TYPE>  (4893) 
MS1

>  <INSTRUMENT TYPE>  (4893) 
EI-B

>  <INSTRUMENT>  (4893) 
JEOL JMS-D-3000

>  <ION MODE>  (4893) 
P

>  <INCHIKEY>  (4893) 
VYNARGPIYFNYEH-UHFFFAOYSA-N

>  <FORMULA>  (4893) 
C12H22O2

>  <EXACT MASS>  (4893) 
198.161979944

>  <MW>  (4893) 
198

>  <ID>  (4893) 
JP002408

>  <CONTRIBUTOR>  (4893) 
University of Tokyo Team, {Faculty of Engineering, University of Tokyo

>  <COMMENT>  (4893) 
SMILES=COC(CC(C)C)C(C1)C(=O)CCC1
InChI=InChI=1S/C12H22O2/c1-9(2)8-12(14-3)10-6-4-5-7-11(10)13/h9-10,12H,4-8H2,1-3H3
computed SMILES=O=C1CCCCC1C(OC)CC(C)C
accession=JP002408
date=2016.01.19 (Created 2008.10.21, modified 2011.05.06)
author=MASS SPECTROSCOPY SOC. OF JAPAN (MSSJ)
license=CC BY-NC-SA
exact mass=198.16198
ionization energy=70 eV
ion type=[M]+*
computed spectral entropy=2.92982347716144
computed normalized entropy=0.8889467520015268
SPLASH=splash10-0fry-9400000000-8461628784313398a15b
submitter=submitter = University of Tokyo Team (Faculty of Engineering, University of Tokyo)
MoNA Rating=3.75

>  <NUM PEAKS>  (4893) 
27

>  <MASS SPECTRAL PEAKS>  (4893) 
42 36.81
43 25.66
45 55.29
53 7.25
55 15.97
57 6.97
59 42.07
67 12.27
69 85.8
70 7.79
71 19.91
81 61.44
82 6.57
85 21.16
95 7.12
97 15.74
98 25.32
100 12.85
101 99.99
102 6.54
109 11.18
111 13.11
123 6.95
141 54.08
166 19.26
169 11.36
198 10.11

>  <PREDICTED SPECTRUM>  (4893) 
33 3
39 90
40 20
41 431
42 171
43 374
45 491
51 26
53 177
54 147
55 477
56 104
57 150
58 132
59 294
65 24
66 70
67 293
68 77
69 684
70 200
71 345
77 11
79 91
80 63
81 413
82 225
83 234
84 46
85 91
93 97
94 8
95 243
97 201
98 316
99 66
100 5
101 999
102 152
109 287
110 91
111 81
113 3
114 14
115 112
116 19
123 117
124 29
125 65
137 103
138 99
141 644
142 132
155 45
166 318
167 81
198 175
199 5

$$$$

     RDKit          2D

 14 14  0  0  0  0  0  0  0  0999 V2000
   -3.5733    3.1877    0.0000 C   0  0  0  0  0  0  0  0  0  0  0  0
    0.3234    5.4383    0.0000 C   0  0  0  0  0  0  0  0  0  0  0  0
   -2.2742    2.4379    0.0000 C   0  0  0  0  0  0  0  0  0  0  0  0
   -0.9753    3.1881    0.0000 C   0  0  0  0  0  0  0  0  0  0  0  0
    4.2220    0.1870    0.0000 C   0  0  0  0  0  0  0  0  0  0  0  0
    5.5210    0.9370    0.0000 C   0  0  0  0  0  0  0  0  0  0  0  0
    2.9224    0.9379    0.0000 C   0  0  0  0  0  0  0  0  0  0  0  0
    5.5205    2.4379    0.0000 C   0  0  0  0  0  0  0  0  0  0  0  0
    0.3239    2.4383    0.0000 C   0  0  0  0  0  0  0  0  0  0  0  0
    2.9220    2.4387    0.0000 C   0  0  0  0  0  0  0  0  0  0  0  0
    4.2210    3.1887    0.0000 C   0  0  0  0  0  0  0  0  0  0  0  0
    1.6228    3.1885    0.0000 C   0  0  0  0  0  0  0  0  0  0  0  0
    4.2212    4.6887    0.0000 O   0  0  0  0  0  0  0  0  0  0  0  0
    1.6226    4.6885    0.0000 O   0  0  0  0  0  0  0  0  0  0  0  0
  3  1  1  0
  4  3  1  0
  6  5  1  0
  7  5  1  0
  8  6  1  0
  9  4  1  0
 10  7  1  0
 11  8  1  0
 11 10  1  0
 12  9  1  0
 12 10  1  0
 13 11  2  0
 14  2  1  0
 14 12  1  0
M  END
>  <NAME>  (4894) 
2-(1-METHOXYPENTYL)CYCLOHEXANONE

>  <SYNONYMS>  (4894) 


>  <SPECTRUM TYPE>  (4894) 
MS1

>  <INSTRUMENT TYPE>  (4894) 
EI-B

>  <INSTRUMENT>  (4894) 
JEOL JMS-D-3000

>  <ION MODE>  (4894) 
P

>  <INCHIKEY>  (4894) 
VETUWLQRWUEGEF-UHFFFAOYSA-N

>  <FORMULA>  (4894) 
C12H22O2

>  <EXACT MASS>  (4894) 
198.161979944

>  <MW>  (4894) 
198

>  <ID>  (4894) 
JP002407

>  <CONTRIBUTOR>  (4894) 
University of Tokyo Team, {Faculty of Engineering, University of Tokyo

>  <COMMENT>  (4894) 
SMILES=CCCCC(OC)C(C1)C(=O)CCC1
InChI=InChI=1S/C12H22O2/c1-3-4-9-12(14-2)10-7-5-6-8-11(10)13/h10,12H,3-9H2,1-2H3
computed SMILES=O=C1CCCCC1C(OC)CCCC
accession=JP002407
date=2016.01.19 (Created 2008.10.21, modified 2011.05.06)
author=MASS SPECTROSCOPY SOC. OF JAPAN (MSSJ)
license=CC BY-NC-SA
exact mass=198.16198
ionization energy=70 eV
ion type=[M]+*
computed spectral entropy=3.4255355709185715
computed normalized entropy=0.8801885258118358
SPLASH=splash10-015d-9300000000-c3351cd1c2548cd7d756
submitter=submitter = University of Tokyo Team (Faculty of Engineering, University of Tokyo)
MoNA Rating=3.75

>  <NUM PEAKS>  (4894) 
49

>  <MASS SPECTRAL PEAKS>  (4894) 
41 98.41
42 9.17
43 22.33
45 78.77
51 5.18
53 18.51
54 13.91
55 40.3
56 4.58
57 9.16
59 6.52
65 7.13
66 5.14
67 52.99
68 12.38
69 99.99
70 9.62
71 24.04
77 10.11
79 23.33
80 7.79
81 76.57
82 14.61
83 8.38
85 10.19
91 9.58
93 8.55
94 3.82
95 23.3
96 6.03
97 15.18
98 35.66
99 3.83
100 9.44
101 63.79
102 4.67
109 25.07
111 11.36
119 5.24
123 6.56
131 13.73
135 14.83
137 36.73
138 4.99
141 28.86
166 28.85
167 4.35
169 7.49
198 3.82

>  <PREDICTED SPECTRUM>  (4894) 
29 0
33 30
39 177
40 55
41 523
42 233
43 334
44 41
45 473
51 105
52 40
53 284
54 292
55 620
56 192
57 217
58 152
59 338
61 13
65 104
66 129
67 481
68 283
69 695
70 169
71 353
72 22
77 89
79 218
80 192
81 561
82 355
83 335
84 129
85 76
87 11
88 34
91 69
93 202
94 108
95 350
96 124
97 372
98 402
99 167
100 180
101 999
102 201
103 27
107 4
108 49
109 445
110 237
111 178
112 64
113 37
114 99
115 106
116 56
119 77
120 12
122 40
123 201
124 82
125 86
127 13
128 16
134 1
135 48
137 329
138 191
139 7
141 638
142 130
155 82
156 20
165 29
166 488
167 194
198 194
199 49

$$$$

     RDKit          2D

 13 13  0  0  0  0  0  0  0  0999 V2000
   -2.4400    0.2500    0.0000 C   0  0  0  0  0  0  0  0  0  0  0  0
   -0.9400    0.2500    0.0000 C   0  0  0  0  0  0  0  0  0  0  0  0
   -3.1900    1.5500    0.0000 C   0  0  0  0  0  0  0  0  0  0  0  0
   -0.1900   -1.0500    0.0000 C   0  0  0  0  0  0  0  0  0  0  0  0
   -2.4400    2.8500    0.0000 C   0  0  0  0  0  0  0  0  0  0  0  0
    1.3100   -1.0500    0.0000 C   0  0  0  0  0  0  0  0  0  0  0  0
   -0.9400    2.8500    0.0000 C   0  0  0  0  0  0  0  0  0  0  0  0
    2.0600    0.2500    0.0000 C   0  0  0  0  0  0  0  0  0  0  0  0
   -0.1900    4.1500    0.0000 C   0  0  0  0  0  0  0  0  0  0  0  0
    1.3100    1.5500    0.0000 C   0  0  0  0  0  0  0  0  0  0  0  0
    1.3100    4.1500    0.0000 C   0  0  0  0  0  0  0  0  0  0  0  0
    2.0600    2.8500    0.0000 C   0  0  0  0  0  0  0  0  0  0  0  0
    3.5600    2.8500    0.0000 O   0  0  0  0  0  0  0  0  0  0  0  0
  2  1  1  0
  3  1  1  0
  4  2  1  0
  5  3  1  0
  6  4  1  0
  7  5  1  0
  8  6  1  0
  9  7  1  0
  8 10  2  0
 11  9  1  0
 12 10  1  0
 12 11  1  0
 13 12  1  0
M  END
>  <NAME>  (4895) 
2-CYCLODODECENOL

>  <SYNONYMS>  (4895) 


>  <SPECTRUM TYPE>  (4895) 
MS1

>  <INSTRUMENT TYPE>  (4895) 
EI-B

>  <INSTRUMENT>  (4895) 
JEOL JMS-D-3000

>  <ION MODE>  (4895) 
P

>  <INCHIKEY>  (4895) 
HNTAJRDNEDXPDP-CSKARUKUSA-N

>  <FORMULA>  (4895) 
C12H22O

>  <EXACT MASS>  (4895) 
182.167065324

>  <MW>  (4895) 
182

>  <ID>  (4895) 
JP002406

>  <CONTRIBUTOR>  (4895) 
University of Tokyo Team, {Faculty of Engineering, University of Tokyo

>  <COMMENT>  (4895) 
SMILES=OC(C1)C=CCCCCCCCC1
InChI=InChI=1S/C12H22O/c13-12-10-8-6-4-2-1-3-5-7-9-11-12/h8,10,12-13H,1-7,9,11H2/b10-8+
computed SMILES=OC1C=CCCCCCCCCC1
accession=JP002406
date=2016.01.19 (Created 2008.10.21, modified 2011.05.06)
author=MASS SPECTROSCOPY SOC. OF JAPAN (MSSJ)
license=CC BY-NC-SA
exact mass=182.16707
ionization energy=70 eV
ion type=[M]+*
computed spectral entropy=3.402519883685606
computed normalized entropy=0.8887016388648341
SPLASH=splash10-067l-9100000000-376f10bd2a1fc5c7be91
submitter=submitter = University of Tokyo Team (Faculty of Engineering, University of Tokyo)
MoNA Rating=3.75

>  <NUM PEAKS>  (4895) 
46

>  <MASS SPECTRAL PEAKS>  (4895) 
40 2.91
42 83.36
43 15.72
53 10.74
54 33.96
55 99.99
56 21.58
57 28.14
58 9.33
67 75.46
68 46.61
69 41.86
70 20.91
71 16.49
72 2.47
77 6.39
78 2.64
79 33.6
80 33.36
81 54.75
82 59.06
83 37.98
84 10.5
85 5.58
91 4.51
93 19.84
94 16.86
95 29.35
96 32.32
97 28.14
98 14.12
107 11.17
108 6.89
109 11.37
110 6.12
111 21.78
112 3.64
121 15.66
122 5.72
123 4.08
125 4.08
135 8.56
136 4.41
139 2.3
164 10.5
182 2.4

>  <PREDICTED SPECTRUM>  (4895) 
15 11
18 15
25 2
26 92
27 421
28 183
29 435
30 33
31 171
32 43
38 33
39 460
40 164
41 893
42 399
43 608
44 202
45 90
50 56
51 186
52 142
53 407
54 666
55 983
56 418
57 612
58 284
59 151
63 56
64 16
65 228
66 323
67 969
68 797
69 617
70 495
71 411
72 173
73 33
77 320
78 187
79 524
80 516
81 999
82 824
83 642
84 448
85 184
86 122
91 236
92 144
93 418
94 457
95 714
96 896
97 529
98 382
99 163
100 71
105 98
106 45
107 298
108 308
109 470
110 376
111 365
112 249
113 115
115 14
117 41
120 132
121 378
122 333
123 249
124 192
125 161
126 102
127 80
128 36
135 348
136 199
137 126
138 279
139 111
140 88
149 221
150 118
151 70
153 30
154 14
162 10
163 59
164 444
165 88
166 40
182 153
183 41

$$$$

     RDKit          2D

 15 15  0  0  0  0  0  0  0  0999 V2000
    7.2107   -0.2406    0.0000 C   0  0  0  0  0  0  0  0  0  0  0  0
    5.5129   -2.2073    0.0000 C   0  0  0  0  0  0  0  0  0  0  0  0
   -6.0059    0.3334    0.0000 C   0  0  0  0  0  0  0  0  0  0  0  0
    0.9204   -1.2422    0.0000 C   0  0  0  0  0  0  0  0  0  0  0  0
    3.2420   -0.2469    0.0000 C   0  0  0  0  0  0  0  0  0  0  0  0
    4.6586    0.2463    0.0000 C   0  0  0  0  0  0  0  0  0  0  0  0
    2.1066    0.7332    0.0000 C   0  0  0  0  0  0  0  0  0  0  0  0
   -2.1167   -0.4566    0.0000 C   0  0  0  0  0  0  0  0  0  0  0  0
    5.7941   -0.7339    0.0000 C   0  0  0  0  0  0  0  0  0  0  0  0
   -4.7146   -0.4299    0.0000 C   0  0  0  0  0  0  0  0  0  0  0  0
   -0.8100    0.2800    0.0000 C   0  0  0  0  0  0  0  0  0  0  0  0
    0.6900    0.2400    0.0000 C   0  0  0  0  0  0  0  0  0  0  0  0
   -4.7300   -1.9298    0.0000 O   0  0  0  0  0  0  0  0  0  0  0  0
   -3.4079    0.3067    0.0000 O   0  0  0  0  0  0  0  0  0  0  0  0
   -0.0700    1.5800    0.0000 O   0  0  0  0  0  0  0  0  0  0  0  0
  6  5  1  0
  7  5  1  0
  9  1  1  0
  9  2  1  0
  9  6  2  0
 10  3  1  0
 11  8  1  0
 12  4  1  0
 12  7  1  0
 12 11  1  0
 13 10  2  0
 14  8  1  0
 14 10  1  0
 15 11  1  0
 15 12  1  0
M  END
>  <NAME>  (4896) 
2,3-EPOXYGERANYL ACETATE

>  <SYNONYMS>  (4896) 
2,3-EPOXY-3,7-DIMETHYL-6-OCTENYL ACETATE

>  <SPECTRUM TYPE>  (4896) 
MS1

>  <INSTRUMENT TYPE>  (4896) 
EI-B

>  <INSTRUMENT>  (4896) 
JEOL JMS-D-3000

>  <ION MODE>  (4896) 
P

>  <INCHIKEY>  (4896) 
HUUKHKAFVDAFIX-UHFFFAOYSA-N

>  <FORMULA>  (4896) 
C12H20O3

>  <EXACT MASS>  (4896) 
212.14124449999997

>  <MW>  (4896) 
212

>  <ID>  (4896) 
JP002405

>  <CONTRIBUTOR>  (4896) 
University of Tokyo Team, {Faculty of Engineering, University of Tokyo

>  <COMMENT>  (4896) 
SMILES=CC(C)=CCCC(C)(O1)C(COC(C)=O)1
InChI=InChI=1S/C12H20O3/c1-9(2)6-5-7-12(4)11(15-12)8-14-10(3)13/h6,11H,5,7-8H2,1-4H3
computed SMILES=O=C(OCC1OC1(C)CCC=C(C)C)C
accession=JP002405
date=2016.01.19 (Created 2008.10.21, modified 2011.05.06)
author=MASS SPECTROSCOPY SOC. OF JAPAN (MSSJ)
license=CC BY-NC-SA
exact mass=212.14124
ionization energy=70 eV
ion type=[M]+*
computed spectral entropy=3.5399748593399183
computed normalized entropy=0.8055559945610036
SPLASH=splash10-00l6-9200000000-c906ee74e7526368b247
submitter=submitter = University of Tokyo Team (Faculty of Engineering, University of Tokyo)
MoNA Rating=3.75

>  <NUM PEAKS>  (4896) 
81

>  <MASS SPECTRAL PEAKS>  (4896) 
42 53.84
43 78.17
45 7.76
50 1.15
51 3.35
52 1.56
53 9.89
54 3.35
55 21.97
56 3.09
57 2.26
59 4.04
60 7.55
61 3.23
63 1.68
65 4.4
66 1.89
67 31.16
68 9.01
69 76.35
70 19.41
71 7.78
72 1.98
73 1.63
77 7.8
78 2.4
79 10.15
80 3.07
81 14.7
82 99.99
83 16.93
84 5.11
85 2
87 1.84
88 18.6
89 1.49
91 16.4
92 4.67
93 8.64
94 4.74
95 7.51
96 2.07
97 2.75
101 3.28
103 2.98
104 1.33
105 6.34
106 2.49
107 4.53
108 2.75
109 17.58
110 4
111 3.07
112 1.31
113 1.26
115 3.16
116 1.22
117 5.04
118 1
119 20.16
120 2.54
121 8.69
122 2.3
123 2.38
124 1.42
128 1.33
129 1.49
130 15.88
131 2.31
132 3.37
133 1.77
134 13.89
135 3.02
137 2.6
139 3.74
143 1.38
148 1.05
150 1.75
152 8.11
153 1.14
212 0.26

>  <PREDICTED SPECTRUM>  (4896) 
25 3
26 40
27 204
28 88
29 161
30 36
31 85
33 6
37 38
38 74
39 303
40 168
41 663
42 240
43 999
44 215
45 150
46 23
50 77
51 127
52 100
53 297
54 241
55 387
56 201
57 261
58 179
59 276
60 79
61 124
62 6
63 18
64 25
65 158
66 145
67 487
68 423
69 641
70 250
71 346
72 188
73 105
74 24
77 218
78 72
79 220
80 104
81 328
82 393
83 354
84 267
85 332
86 86
87 68
88 41
91 88
92 154
93 392
94 190
95 357
96 235
97 206
98 111
99 72
100 72
101 99
102 61
103 28
105 42
106 9
107 173
108 111
109 284
110 131
111 230
112 159
113 65
115 42
119 108
121 174
123 125
124 74
125 76
126 113
127 58
129 10
130 21
131 44
135 78
136 114
137 346
138 142
139 85
140 39
141 30
143 76
144 58
151 42
152 189
153 94
154 63
155 46
168 3
169 83
170 48
171 3
212 4

$$$$

     RDKit          2D

 16 16  0  0  0  0  0  0  0  0999 V2000
    7.9744   -0.7579    0.0000 C   0  0  0  0  0  0  0  0  0  0  0  0
   10.0234   -0.2085    0.0000 C   0  0  0  0  0  0  0  0  0  0  0  0
    9.4740    1.8404    0.0000 C   0  0  0  0  0  0  0  0  0  0  0  0
   -1.6700   -0.9600    0.0000 C   0  0  0  0  0  0  0  0  0  0  0  0
   -1.6700    0.5400    0.0000 C   0  0  0  0  0  0  0  0  0  0  0  0
   -0.3700   -1.7100    0.0000 C   0  0  0  0  0  0  0  0  0  0  0  0
   -0.3700    1.2900    0.0000 C   0  0  0  0  0  0  0  0  0  0  0  0
    0.9300   -0.9600    0.0000 C   0  0  0  0  0  0  0  0  0  0  0  0
    3.5281    0.5404    0.0000 C   0  0  0  0  0  0  0  0  0  0  0  0
    6.1262    0.5408    0.0000 C   0  0  0  0  0  0  0  0  0  0  0  0
    4.8270    1.2906    0.0000 C   0  0  0  0  0  0  0  0  0  0  0  0
    0.9300    0.5400    0.0000 C   0  0  0  0  0  0  0  0  0  0  0  0
    4.8268    2.7906    0.0000 I   0  0  0  0  0  0  0  0  0  0  0  0
    2.2289    1.2902    0.0000 O   0  0  0  0  0  0  0  0  0  0  0  0
    7.4251    1.2910    0.0000 O   0  0  0  0  0  0  0  0  0  0  0  0
    8.7242    0.5412    0.0000 Si  0  0  0  0  0  4  0  0  0  0  0  0
  5  4  2  0
  6  4  1  0
  7  5  1  0
  8  6  2  0
 11  9  1  0
 11 10  1  0
 12  7  2  0
 12  8  1  0
 13 11  1  0
 14  9  1  0
 14 12  1  0
 15 10  1  0
 16  1  1  0
 16  2  1  0
 16  3  1  0
 16 15  1  0
M  END
>  <NAME>  (4897) 
2-IODO-1-PHENOXY-3-TRIMETHYLSILOXYPROPANE

>  <SYNONYMS>  (4897) 


>  <SPECTRUM TYPE>  (4897) 
MS1

>  <INSTRUMENT TYPE>  (4897) 
EI-B

>  <INSTRUMENT>  (4897) 
JEOL JMS-D-3000

>  <ION MODE>  (4897) 
P

>  <INCHIKEY>  (4897) 
GMVDFWYKVLJLMT-UHFFFAOYSA-N

>  <FORMULA>  (4897) 
C12H19IO2Si

>  <EXACT MASS>  (4897) 
350.01990437800004

>  <MW>  (4897) 
350

>  <ID>  (4897) 
JP002404

>  <CONTRIBUTOR>  (4897) 
University of Tokyo Team, {Faculty of Engineering, University of Tokyo

>  <COMMENT>  (4897) 
SMILES=c(c1)ccc(c1)OCC(I)CO[Si](C)(C)C
InChI=InChI=1S/C12H19IO2Si/c1-16(2,3)15-10-11(13)9-14-12-7-5-4-6-8-12/h4-8,11H,9-10H2,1-3H3
computed SMILES=IC(COC=1C=CC=CC1)CO[Si](C)(C)C
accession=JP002404
date=2016.01.19 (Created 2008.10.21, modified 2011.05.06)
author=MASS SPECTROSCOPY SOC. OF JAPAN (MSSJ)
license=CC BY-NC-SA
exact mass=350.0199
ionization energy=70 eV
ion type=[M]+*
computed spectral entropy=2.7669245628184203
computed normalized entropy=0.8217052206041352
SPLASH=splash10-00di-9410000000-6edbd6798850419a1baa
submitter=submitter = University of Tokyo Team (Faculty of Engineering, University of Tokyo)
MoNA Rating=3.75

>  <NUM PEAKS>  (4897) 
29

>  <MASS SPECTRAL PEAKS>  (4897) 
40 15.05
43 3.39
45 8.7
47 3.67
51 6.55
59 9.43
65 3.88
73 99.99
74 9.27
75 20.68
77 20.32
79 5.01
91 3.63
94 4.17
101 7.62
107 28.31
108 2.74
116 23.4
117 2.5
127 6
129 2.83
133 10.26
151 17.71
152 2.27
189 4.71
207 2.97
234 2.66
243 20.14
350 3.94

>  <PREDICTED SPECTRUM>  (4897) 
14 2
15 10
31 2
38 45
39 176
40 61
41 131
42 45
43 222
44 114
45 343
46 53
47 131
49 26
50 86
51 210
52 99
53 118
54 41
55 149
56 31
57 84
58 229
59 339
60 99
61 164
62 67
63 127
64 93
65 266
66 208
67 76
68 8
69 108
70 32
71 52
72 89
73 999
74 208
75 496
76 145
77 401
78 158
79 126
80 17
81 33
82 2
83 75
85 105
86 11
87 43
88 10
89 162
90 34
91 205
92 112
93 7
94 437
95 88
96 17
97 22
99 60
101 165
102 95
103 422
104 203
105 140
106 48
107 88
111 41
114 7
115 251
116 171
117 199
118 115
119 53
121 71
126 4
127 124
128 40
129 58
130 59
131 97
132 72
133 137
134 63
135 92
138 15
139 100
141 60
142 15
143 86
147 34
149 100
150 80
151 519
152 195
153 142
154 23
155 131
156 5
157 42
159 5
163 66
165 92
166 221
167 219
168 156
169 144
170 29
171 13
179 17
181 36
183 34
184 7
185 52
187 3
189 34
190 19
191 4
193 49
199 19
202 3
207 48
208 15
221 21
222 15
223 109
239 58
241 38
247 67
248 26
257 512
258 188
259 166
260 71
261 43
275 60
276 24
277 58
289 12
335 84
336 23
350 300
351 126
352 27

$$$$

     RDKit          2D

 14 14  0  0  0  0  0  0  0  0999 V2000
    5.5772   -0.0083    0.0000 C   0  0  0  0  0  0  0  0  0  0  0  0
    6.1259    2.0408    0.0000 C   0  0  0  0  0  0  0  0  0  0  0  0
    4.0768    2.5895    0.0000 C   0  0  0  0  0  0  0  0  0  0  0  0
    2.5641   -0.6088    0.0000 C   0  0  0  0  0  0  0  0  0  0  0  0
    4.4924   -0.6085    0.0000 C   0  0  0  0  0  0  0  0  0  0  0  0
   -1.6700   -0.9600    0.0000 C   0  0  0  0  0  0  0  0  0  0  0  0
   -1.6700    0.5400    0.0000 C   0  0  0  0  0  0  0  0  0  0  0  0
   -0.3700   -1.7100    0.0000 C   0  0  0  0  0  0  0  0  0  0  0  0
   -0.3700    1.2900    0.0000 C   0  0  0  0  0  0  0  0  0  0  0  0
    0.9300   -0.9600    0.0000 C   0  0  0  0  0  0  0  0  0  0  0  0
    0.9300    0.5400    0.0000 C   0  0  0  0  0  0  0  0  0  0  0  0
    2.2289    1.2902    0.0000 O   0  0  0  0  0  0  0  0  0  0  0  0
    4.8270    1.2906    0.0000 Si  0  0  0  0  0  4  0  0  0  0  0  0
    3.5281    0.5404    0.0000 Si  0  0  0  0  0  4  0  0  0  0  0  0
  7  6  2  0
  8  6  1  0
  9  7  1  0
 10  8  2  0
 11  9  2  0
 11 10  1  0
 12 11  1  0
 13  1  1  0
 13  2  1  0
 13  3  1  0
 14  4  1  0
 14  5  1  0
 14 12  1  0
 14 13  1  0
M  END
>  <NAME>  (4898) 
PHENOXYPENTAMETHYLDISILANE

>  <SYNONYMS>  (4898) 


>  <SPECTRUM TYPE>  (4898) 
MS1

>  <INSTRUMENT TYPE>  (4898) 
EI-B

>  <INSTRUMENT>  (4898) 
JEOL JMS-D-3000

>  <ION MODE>  (4898) 
P

>  <INCHIKEY>  (4898) 
FSBACNVBMRMBSF-UHFFFAOYSA-N

>  <FORMULA>  (4898) 
C11H20OSi2

>  <EXACT MASS>  (4898) 
224.10526832

>  <MW>  (4898) 
224

>  <ID>  (4898) 
JP002403

>  <CONTRIBUTOR>  (4898) 
University of Tokyo Team, {Faculty of Engineering, University of Tokyo

>  <COMMENT>  (4898) 
SMILES=c(c1)ccc(c1)O[Si](C)(C)[Si](C)(C)C
InChI=InChI=1S/C11H20OSi2/c1-13(2,3)14(4,5)12-11-9-7-6-8-10-11/h6-10H,1-5H3
computed SMILES=O(C=1C=CC=CC1)[Si](C)(C)[Si](C)(C)C
accession=JP002403
date=2016.01.19 (Created 2008.10.21, modified 2011.05.06)
author=MASS SPECTROSCOPY SOC. OF JAPAN (MSSJ)
license=CC BY-NC-SA
exact mass=224.10527
ionization energy=70 eV
ion type=[M]+*
computed spectral entropy=3.0489573768259843
computed normalized entropy=0.7754558980056778
SPLASH=splash10-0fka-8920000000-9a48fdfec59bce4e984a
submitter=submitter = University of Tokyo Team (Faculty of Engineering, University of Tokyo)
MoNA Rating=3.75

>  <NUM PEAKS>  (4898) 
51

>  <MASS SPECTRAL PEAKS>  (4898) 
40 1.61
43 9.74
44 2.82
45 22.3
46 1.37
47 2.55
51 6.36
53 1.16
55 1.38
57 1.4
58 2.6
59 7.18
65 1.65
72 3.39
73 99.99
74 8.88
75 17.09
76 1.63
77 17.85
78 1.56
83 1.22
85 1.15
91 8.77
95 7.36
105 1.65
115 1.04
117 1.7
121 15.29
122 1.85
123 2.07
129 1.02
131 6.29
132 1.03
133 5.16
135 9.89
136 1.53
147 39.96
148 6.73
149 4.72
150 1
151 80.85
152 12.05
153 3.76
179 2.81
193 32.04
194 6.54
195 2.93
210 37.41
211 15.59
212 2.28
224 0.78

>  <PREDICTED SPECTRUM>  (4898) 
27 7
29 35
31 27
38 14
39 103
40 13
41 82
43 179
44 126
45 355
46 58
47 94
51 76
52 4
53 57
55 50
57 109
58 93
59 297
60 100
61 61
63 46
64 2
65 111
66 88
67 16
69 25
70 51
72 43
73 999
74 280
75 370
76 69
77 209
78 50
79 45
81 14
83 62
84 30
85 37
89 56
90 6
91 83
93 94
94 29
95 27
102 66
105 79
106 61
107 31
115 94
116 38
117 185
118 73
119 154
121 18
131 286
132 141
133 251
134 28
135 272
136 262
137 48
147 862
148 163
149 183
150 195
151 474
152 159
163 28
164 47
165 65
166 5
177 34
179 4
193 167
194 206
195 65
207 1
209 314
210 122
211 61
224 444
225 199
226 117
227 8

$$$$

     RDKit          2D

 11 10  0  0  0  0  0  0  0  0999 V2000
    1.7758    3.6743    0.0000 C   0  0  0  0  0  0  0  0  0  0  0  0
   -6.0185    3.6743    0.0000 C   0  0  0  0  0  0  0  0  0  0  0  0
   -5.8618    2.7857    0.0000 C   0  0  0  0  0  0  0  0  0  0  0  0
   -0.8223    2.1743    0.0000 C   0  0  0  0  0  0  0  0  0  0  0  0
    0.4767    4.4243    0.0000 C   0  0  0  0  0  0  0  0  0  0  0  0
   -4.7194    4.4243    0.0000 C   0  0  0  0  0  0  0  0  0  0  0  0
   -4.3846    2.5252    0.0000 C   0  0  0  0  0  0  0  0  0  0  0  0
   -2.1214    4.4243    0.0000 C   0  0  0  0  0  0  0  0  0  0  0  0
   -0.8223    3.6743    0.0000 C   0  0  0  0  0  0  0  0  0  0  0  0
   -3.4204    3.6743    0.0000 C   0  0  0  0  0  0  0  0  0  0  0  0
   -2.4562    2.5252    0.0000 O   0  0  0  0  0  0  0  0  0  0  0  0
  5  1  2  0
  6  2  1  0
  7  3  1  0
  9  4  2  0
  9  5  1  0
  9  8  1  0
 10  6  1  0
 10  7  1  0
 10  8  1  0
 11 10  1  0
M  END
>  <NAME>  (4899) 
3-ETHYL-5-METHYLENE-6-HEPTEN-3-OL

>  <SYNONYMS>  (4899) 


>  <SPECTRUM TYPE>  (4899) 
MS1

>  <INSTRUMENT TYPE>  (4899) 
EI-B

>  <INSTRUMENT>  (4899) 
JEOL JMS-D-3000

>  <ION MODE>  (4899) 
P

>  <INCHIKEY>  (4899) 
DCURWKJHOAMPCY-UHFFFAOYSA-N

>  <FORMULA>  (4899) 
C10H18O

>  <EXACT MASS>  (4899) 
154.135765196

>  <MW>  (4899) 
154

>  <ID>  (4899) 
JP002402

>  <CONTRIBUTOR>  (4899) 
University of Tokyo Team, {Faculty of Engineering, University of Tokyo

>  <COMMENT>  (4899) 
SMILES=C=CC(=C)CC(O)(CC)CC
InChI=InChI=1S/C10H18O/c1-5-9(4)8-10(11,6-2)7-3/h5,11H,1,4,6-8H2,2-3H3
computed SMILES=OC(CC(=C)C=C)(CC)CC
accession=JP002402
date=2016.01.19 (Created 2008.10.21, modified 2011.05.06)
author=MASS SPECTROSCOPY SOC. OF JAPAN (MSSJ)
license=CC BY-NC-SA
exact mass=154.13577
ionization energy=70 eV
ion type=[M]+*
computed spectral entropy=2.2746198946962046
computed normalized entropy=0.6901494179394305
SPLASH=splash10-0a4r-9000000000-f726f11478544adbd360
submitter=submitter = University of Tokyo Team (Faculty of Engineering, University of Tokyo)
MoNA Rating=3.75

>  <NUM PEAKS>  (4899) 
27

>  <MASS SPECTRAL PEAKS>  (4899) 
41 15.45
42 1.08
43 8.14
45 37.82
51 1.19
53 3.76
55 3.46
57 99.99
58 4.52
65 1.6
67 5.55
68 25.66
69 14.08
70 1.09
77 1.28
79 3.16
81 1.21
87 77.85
88 4.62
91 2.13
93 2.21
95 1.26
107 6.19
121 1.4
125 10.29
136 1.42
154 0.47

>  <PREDICTED SPECTRUM>  (4899) 
26 31
27 132
28 13
29 132
31 70
38 16
39 239
40 100
41 418
42 107
43 399
44 29
45 361
46 1
50 13
51 143
52 53
53 198
54 28
55 101
57 448
58 138
59 113
60 17
61 54
65 122
66 66
67 299
68 296
69 406
70 24
74 33
77 18
79 123
81 74
82 45
86 219
87 999
88 135
91 30
93 182
95 78
107 216
125 276
126 8
136 60

$$$$

     RDKit          2D

 11 10  0  0  0  0  0  0  0  0999 V2000
   -7.4695    3.9375    0.0000 C   0  0  0  0  0  0  0  0  0  0  0  0
    1.6238    3.1875    0.0000 C   0  0  0  0  0  0  0  0  0  0  0  0
    0.3248    5.4375    0.0000 C   0  0  0  0  0  0  0  0  0  0  0  0
   -4.8714    5.4375    0.0000 C   0  0  0  0  0  0  0  0  0  0  0  0
   -6.1704    3.1875    0.0000 C   0  0  0  0  0  0  0  0  0  0  0  0
   -0.9743    3.1875    0.0000 C   0  0  0  0  0  0  0  0  0  0  0  0
   -3.5724    3.1875    0.0000 C   0  0  0  0  0  0  0  0  0  0  0  0
    0.3248    3.9375    0.0000 C   0  0  0  0  0  0  0  0  0  0  0  0
   -4.8714    3.9375    0.0000 C   0  0  0  0  0  0  0  0  0  0  0  0
   -2.2733    3.9375    0.0000 C   0  0  0  0  0  0  0  0  0  0  0  0
   -2.2733    5.4375    0.0000 O   0  0  0  0  0  0  0  0  0  0  0  0
  5  1  2  0
  8  2  1  0
  8  3  1  0
  8  6  2  0
  9  4  2  0
  9  5  1  0
  9  7  1  0
 10  6  1  0
 10  7  1  0
 11 10  1  0
M  END
>  <NAME>  (4900) 
2-METHYL-6-METHYLENE-2,7-OCTADIEN-4-OL

>  <SYNONYMS>  (4900) 


>  <SPECTRUM TYPE>  (4900) 
MS1

>  <INSTRUMENT TYPE>  (4900) 
EI-B

>  <INSTRUMENT>  (4900) 
JEOL JMS-D-3000

>  <ION MODE>  (4900) 
P

>  <INCHIKEY>  (4900) 
NHMKYUHMPXBMFI-UHFFFAOYSA-N

>  <FORMULA>  (4900) 
C10H16O

>  <EXACT MASS>  (4900) 
152.120115132

>  <MW>  (4900) 
152

>  <ID>  (4900) 
JP002401

>  <CONTRIBUTOR>  (4900) 
University of Tokyo Team, {Faculty of Engineering, University of Tokyo

>  <COMMENT>  (4900) 
SMILES=C=CC(=C)CC(O)C=C(C)C
InChI=InChI=1S/C10H16O/c1-5-9(4)7-10(11)6-8(2)3/h5-6,10-11H,1,4,7H2,2-3H3
computed SMILES=OC(C=C(C)C)CC(=C)C=C
accession=JP002401
date=2016.01.19 (Created 2008.10.21, modified 2011.05.06)
author=MASS SPECTROSCOPY SOC. OF JAPAN (MSSJ)
license=CC BY-NC-SA
exact mass=152.12012
ionization energy=70 eV
ion type=[M]+*
computed spectral entropy=2.661470860625441
computed normalized entropy=0.7825099698638448
SPLASH=splash10-000l-9100000000-61ef9412b16d890e7441
submitter=submitter = University of Tokyo Team (Faculty of Engineering, University of Tokyo)
MoNA Rating=3.75

>  <NUM PEAKS>  (4900) 
30

>  <MASS SPECTRAL PEAKS>  (4900) 
41 30.24
43 11.34
51 2.83
53 6.86
55 8.83
57 4.36
59 1.82
65 4.85
66 1.86
67 11.26
68 6.85
69 3.3
77 5.86
78 3.55
79 16.41
80 2.57
81 3.45
83 6.93
85 99.99
86 5.86
91 12.45
92 5.02
93 3.98
105 3.74
108 1.82
109 3.39
117 1.67
119 11.84
134 7.23
152 1.32

>  <PREDICTED SPECTRUM>  (4900) 
25 9
26 126
27 524
28 115
29 341
31 119
37 62
38 147
39 732
40 317
41 923
42 170
43 884
44 149
45 228
46 21
49 49
50 226
51 413
52 249
53 642
54 284
55 583
56 280
57 428
58 128
59 135
60 32
61 9
62 110
63 241
64 32
65 387
66 285
67 999
68 457
69 506
70 328
71 336
72 142
73 44
75 40
77 564
78 317
79 969
80 455
81 438
82 218
83 467
84 456
85 533
86 170
87 69
89 100
91 700
92 259
93 540
94 754
95 541
96 224
97 539
98 319
102 17
103 141
104 274
105 447
106 268
107 344
108 295
109 514
110 173
111 122
115 162
116 9
117 374
118 196
119 774
120 183
122 51
123 167
124 20
125 84
133 205
134 568
135 200
137 459
138 126
152 300
153 17

$$$$

     RDKit          2D

 11 10  0  0  0  0  0  0  0  0999 V2000
    0.0000    0.0000    0.0000 C   0  0  0  0  0  0  0  0  0  0  0  0
    1.2990    2.2500    0.0000 C   0  0  0  0  0  0  0  0  0  0  0  0
   -1.8481    5.7990    0.0000 C   0  0  0  0  0  0  0  0  0  0  0  0
   -3.8971    5.2500    0.0000 C   0  0  0  0  0  0  0  0  0  0  0  0
   -3.3481    3.2010    0.0000 C   0  0  0  0  0  0  0  0  0  0  0  0
    0.1782    3.4895    0.0000 C   0  0  0  0  0  0  0  0  0  0  0  0
   -0.7860    5.1595    0.0000 C   0  0  0  0  0  0  0  0  0  0  0  0
   -1.2990    2.2500    0.0000 C   0  0  0  0  0  0  0  0  0  0  0  0
    0.0000    1.5000    0.0000 C   0  0  0  0  0  0  0  0  0  0  0  0
   -2.5981    4.5000    0.0000 Si  0  0  0  0  0  4  0  0  0  0  0  0
   -1.2990    3.7500    0.0000 Si  0  0  0  0  0  4  0  0  0  0  0  0
  9  1  2  0
  9  2  1  0
  9  8  1  0
 10  3  1  0
 10  4  1  0
 10  5  1  0
 11  6  1  0
 11  7  1  0
 11  8  1  0
 11 10  1  0
M  END
>  <NAME>  (4901) 
2-METHYLALLYLPENTAMETHYLDISILANE

>  <SYNONYMS>  (4901) 


>  <SPECTRUM TYPE>  (4901) 
MS1

>  <INSTRUMENT TYPE>  (4901) 
EI-B

>  <INSTRUMENT>  (4901) 
JEOL JMS-D-3000

>  <ION MODE>  (4901) 
P

>  <INCHIKEY>  (4901) 
ZFYSRCJRMPTMOE-UHFFFAOYSA-N

>  <FORMULA>  (4901) 
C9H22Si2

>  <EXACT MASS>  (4901) 
186.126003764

>  <MW>  (4901) 
186

>  <ID>  (4901) 
JP002399

>  <CONTRIBUTOR>  (4901) 
University of Tokyo Team, {Faculty of Engineering, University of Tokyo

>  <COMMENT>  (4901) 
SMILES=CC(=C)C[Si](C)(C)[Si](C)(C)C
InChI=InChI=1S/C9H22Si2/c1-9(2)8-11(6,7)10(3,4)5/h1,8H2,2-7H3
computed SMILES=C=C(C)C[Si](C)(C)[Si](C)(C)C
accession=JP002399
date=2016.01.19 (Created 2008.10.21, modified 2011.05.06)
author=MASS SPECTROSCOPY SOC. OF JAPAN (MSSJ)
license=CC BY-NC-SA
exact mass=186.126
ionization energy=70 eV
ion type=[M]+*
computed spectral entropy=2.385544735562055
computed normalized entropy=0.8101865083437368
SPLASH=splash10-0089-3900000000-73f00fd756d1e65c2439
submitter=submitter = University of Tokyo Team (Faculty of Engineering, University of Tokyo)
MoNA Rating=3.75

>  <NUM PEAKS>  (4901) 
19

>  <MASS SPECTRAL PEAKS>  (4901) 
41 4.37
45 3.75
59 6.78
73 49.92
74 5.2
75 10.16
85 5.73
97 5.65
112 17.66
113 21.27
114 3.18
115 3.3
129 8.08
131 99.99
132 17.02
133 12.74
171 15.48
186 24.05
187 5.14

>  <PREDICTED SPECTRUM>  (4901) 
27 1
31 86
39 74
40 3
41 31
43 130
44 92
45 247
46 27
47 74
53 96
55 144
56 14
57 71
58 99
59 320
60 50
61 13
69 78
71 32
72 61
73 999
74 255
75 229
81 13
83 150
84 6
85 207
97 233
98 84
99 78
103 16
105 68
111 42
112 232
113 374
114 142
115 197
117 85
129 223
130 194
131 738
132 263
133 282
134 2
144 21
171 344
172 105
173 15
186 350
187 115
188 83

$$$$

     RDKit          2D

 12 11  0  0  0  0  0  0  0  0999 V2000
    1.5813    3.0601    0.0000 C   0  0  0  0  0  0  0  0  0  0  0  0
   -4.3648    4.3591    0.0000 C   0  0  0  0  0  0  0  0  0  0  0  0
   -4.9139    2.3101    0.0000 C   0  0  0  0  0  0  0  0  0  0  0  0
   -2.8648    1.7611    0.0000 C   0  0  0  0  0  0  0  0  0  0  0  0
   -1.3516    4.9592    0.0000 C   0  0  0  0  0  0  0  0  0  0  0  0
   -3.2800    4.9592    0.0000 C   0  0  0  0  0  0  0  0  0  0  0  0
    0.2823    3.8101    0.0000 C   0  0  0  0  0  0  0  0  0  0  0  0
   -1.0168    1.5601    0.0000 C   0  0  0  0  0  0  0  0  0  0  0  0
   -1.0168    3.0601    0.0000 C   0  0  0  0  0  0  0  0  0  0  0  0
   -1.0168    0.0601    0.0000 O   0  0  0  0  0  0  0  0  0  0  0  0
   -3.6148    3.0601    0.0000 Si  0  0  0  0  0  4  0  0  0  0  0  0
   -2.3158    3.8101    0.0000 Si  0  0  0  0  0  4  0  0  0  0  0  0
  7  1  1  0
  9  7  1  0
  9  8  2  0
 10  8  2  0
 11  2  1  0
 11  3  1  0
 11  4  1  0
 12  5  1  0
 12  6  1  0
 12  9  1  0
 12 11  1  0
M  END
>  <NAME>  (4902) 
ETHYL(PENTAMETHYLDISILANYL)KETENE

>  <SYNONYMS>  (4902) 


>  <SPECTRUM TYPE>  (4902) 
MS1

>  <INSTRUMENT TYPE>  (4902) 
EI-B

>  <INSTRUMENT>  (4902) 
JEOL JMS-D-3000

>  <ION MODE>  (4902) 
P

>  <INCHIKEY>  (4902) 
FOOSEGCIMSEKQV-UHFFFAOYSA-N

>  <FORMULA>  (4902) 
C9H20OSi2

>  <EXACT MASS>  (4902) 
200.10526832

>  <MW>  (4902) 
200

>  <ID>  (4902) 
JP002398

>  <CONTRIBUTOR>  (4902) 
University of Tokyo Team, {Faculty of Engineering, University of Tokyo

>  <COMMENT>  (4902) 
SMILES=CCC(=C=O)[Si](C)(C)[Si](C)(C)C
InChI=InChI=1S/C9H20OSi2/c1-7-9(8-10)12(5,6)11(2,3)4/h7H2,1-6H3
computed SMILES=O=C=C(CC)[Si](C)(C)[Si](C)(C)C
accession=JP002398
date=2016.01.19 (Created 2008.10.21, modified 2011.05.06)
author=MASS SPECTROSCOPY SOC. OF JAPAN (MSSJ)
license=CC BY-NC-SA
exact mass=200.10527
ionization energy=70 eV
ion type=[M]+*
computed spectral entropy=3.131863032228229
computed normalized entropy=0.7851279914056596
SPLASH=splash10-00dj-9800000000-86fa42717b9def5533c1
submitter=submitter = University of Tokyo Team (Faculty of Engineering, University of Tokyo)
MoNA Rating=3.75

>  <NUM PEAKS>  (4902) 
54

>  <MASS SPECTRAL PEAKS>  (4902) 
43 10.97
45 17.22
53 1.14
55 2.03
57 1.21
58 3.09
59 32.84
60 2.8
61 1.28
69 2.69
71 1.31
72 1.15
73 99.99
74 8.23
75 8.75
83 7.96
84 2.43
85 1.77
97 8.85
98 12.16
99 59.24
100 6.59
101 3.05
103 1.55
111 11.93
112 1.47
113 1.46
115 1.7
117 9.4
118 1.23
119 3.39
127 56.18
128 5.85
129 3.86
131 11.17
132 1.89
133 18.71
134 2.63
135 1.49
141 1.19
143 3.85
145 1.15
147 4.31
155 2.1
157 27.11
158 4.83
159 2.37
171 1.24
172 45.75
173 8.38
174 3.8
185 9.49
186 1.86
200 1.02

>  <PREDICTED SPECTRUM>  (4902) 
26 23
27 97
28 84
29 91
31 108
39 98
40 4
41 9
42 12
43 313
44 122
45 351
46 73
47 45
53 99
54 27
55 178
56 3
57 116
58 149
59 469
60 111
61 150
66 34
67 92
68 55
69 114
70 40
71 127
72 205
73 999
74 265
75 333
76 15
77 31
81 95
82 71
83 215
84 90
85 299
86 8
87 59
89 48
91 120
93 27
95 47
96 144
97 310
98 156
99 357
100 159
101 204
102 37
103 104
104 14
105 5
111 153
112 115
113 20
115 67
116 62
117 180
119 87
125 81
126 158
127 552
128 158
129 261
130 43
131 402
132 153
133 235
134 5
137 12
139 39
141 124
142 56
143 206
144 66
145 120
155 46
156 0
157 504
158 276
159 172
171 393
172 389
173 281
174 74
183 0
185 294
186 85
200 131
201 36

$$$$

     RDKit          2D

 12 11  0  0  0  0  0  0  0  0999 V2000
    1.9486    4.1250    0.0000 C   0  0  0  0  0  0  0  0  0  0  0  0
   -3.7966    6.1740    0.0000 C   0  0  0  0  0  0  0  0  0  0  0  0
   -5.8457    5.6250    0.0000 C   0  0  0  0  0  0  0  0  0  0  0  0
   -5.2966    3.5760    0.0000 C   0  0  0  0  0  0  0  0  0  0  0  0
    0.6495    4.8750    0.0000 C   0  0  0  0  0  0  0  0  0  0  0  0
   -0.6495    4.1250    0.0000 C   0  0  0  0  0  0  0  0  0  0  0  0
   -1.9486    4.8750    0.0000 C   0  0  0  0  0  0  0  0  0  0  0  0
   -3.2476    4.1250    0.0000 C   0  0  0  0  0  0  0  0  0  0  0  0
   -3.2476    2.6250    0.0000 C   0  0  0  0  0  0  0  0  0  0  0  0
   -1.9486    1.8750    0.0000 O   0  0  0  0  0  0  0  0  0  0  0  0
   -4.5466    1.8750    0.0000 O   0  0  0  0  0  0  0  0  0  0  0  0
   -4.5466    4.8750    0.0000 Si  0  0  0  0  0  4  0  0  0  0  0  0
  5  1  1  0
  6  5  1  0
  7  6  1  0
  8  7  1  0
  9  8  1  0
 10  9  2  0
 11  9  1  0
 12  2  1  0
 12  3  1  0
 12  4  1  0
 12  8  1  0
M  END
>  <NAME>  (4903) 
2-TRIMETHYLSILYLHEXANOIC ACID

>  <SYNONYMS>  (4903) 


>  <SPECTRUM TYPE>  (4903) 
MS1

>  <INSTRUMENT TYPE>  (4903) 
EI-B

>  <INSTRUMENT>  (4903) 
JEOL JMS-D-3000

>  <ION MODE>  (4903) 
P

>  <INCHIKEY>  (4903) 
YQQCMSGNERDIER-UHFFFAOYSA-N

>  <FORMULA>  (4903) 
C9H20O2Si

>  <EXACT MASS>  (4903) 
188.12325641

>  <MW>  (4903) 
188

>  <ID>  (4903) 
JP002397

>  <CONTRIBUTOR>  (4903) 
University of Tokyo Team, {Faculty of Engineering, University of Tokyo

>  <COMMENT>  (4903) 
SMILES=CCCCC(C(O)=O)[Si](C)(C)C
InChI=InChI=1S/C9H20O2Si/c1-5-6-7-8(9(10)11)12(2,3)4/h8H,5-7H2,1-4H3,(H,10,11)
computed SMILES=O=C(O)C(CCCC)[Si](C)(C)C
accession=JP002397
date=2016.01.19 (Created 2008.10.21, modified 2011.05.06)
author=MASS SPECTROSCOPY SOC. OF JAPAN (MSSJ)
license=CC BY-NC-SA
exact mass=188.12326
ionization energy=70 eV
ion type=[M]+*
computed spectral entropy=2.3264621431154047
computed normalized entropy=0.6908992439564627
SPLASH=splash10-00fr-9600000000-ba8c404e796516741b49
submitter=submitter = University of Tokyo Team (Faculty of Engineering, University of Tokyo)
MoNA Rating=3.75

>  <NUM PEAKS>  (4903) 
29

>  <MASS SPECTRAL PEAKS>  (4903) 
45 5.28
47 4.32
55 1.18
59 1.27
60 1.12
61 4.76
72 2.66
73 95.66
74 9.1
75 99.99
76 7.73
77 4.08
81 2.61
116 2.43
117 34.83
118 3.16
119 1.35
129 6.14
131 12.37
132 14.83
133 1.82
143 1.11
145 5.72
146 1.09
159 1.49
173 74.71
174 10.34
175 3.9
188 1.33

>  <PREDICTED SPECTRUM>  (4903) 
27 87
28 54
29 167
31 53
39 86
40 24
41 258
42 104
43 255
44 73
45 397
46 130
47 187
48 34
49 75
50 13
51 41
53 124
54 50
55 303
56 160
57 355
58 213
59 243
60 150
61 260
63 5
65 23
66 35
67 75
68 40
69 396
70 154
71 150
72 77
73 999
74 350
75 756
76 188
77 144
81 66
82 18
83 200
84 90
85 349
86 218
87 178
88 52
96 2
97 116
99 141
100 45
101 126
102 63
103 58
104 7
111 16
113 238
114 261
115 224
116 38
117 93
119 37
125 52
127 61
129 32
131 582
132 316
133 75
143 249
171 43
173 138
174 25
188 332
189 115
190 69

$$$$

     RDKit          2D

 11 10  0  0  0  0  0  0  0  0999 V2000
   -7.1447    3.3750    0.0000 C   0  0  0  0  0  0  0  0  0  0  0  0
   -1.3995    1.3260    0.0000 C   0  0  0  0  0  0  0  0  0  0  0  0
    0.6495    1.8750    0.0000 C   0  0  0  0  0  0  0  0  0  0  0  0
    0.1005    3.9240    0.0000 C   0  0  0  0  0  0  0  0  0  0  0  0
   -5.8457    2.6250    0.0000 C   0  0  0  0  0  0  0  0  0  0  0  0
   -4.5466    3.3750    0.0000 C   0  0  0  0  0  0  0  0  0  0  0  0
   -3.2476    2.6250    0.0000 C   0  0  0  0  0  0  0  0  0  0  0  0
   -1.9486    4.8750    0.0000 C   0  0  0  0  0  0  0  0  0  0  0  0
   -1.9486    3.3750    0.0000 C   0  0  0  0  0  0  0  0  0  0  0  0
   -1.9486    6.3750    0.0000 O   0  0  0  0  0  0  0  0  0  0  0  0
   -0.6495    2.6250    0.0000 Si  0  0  0  0  0  4  0  0  0  0  0  0
  5  1  1  0
  6  5  1  0
  7  6  1  0
  9  7  1  0
  9  8  2  0
 10  8  2  0
 11  2  1  0
 11  3  1  0
 11  4  1  0
 11  9  1  0
M  END
>  <NAME>  (4904) 
BUTYL(TRIMETHYLSILYL)KETENE

>  <SYNONYMS>  (4904) 


>  <SPECTRUM TYPE>  (4904) 
MS1

>  <INSTRUMENT TYPE>  (4904) 
EI-B

>  <INSTRUMENT>  (4904) 
JEOL JMS-D-3000

>  <ION MODE>  (4904) 
P

>  <INCHIKEY>  (4904) 
WWOZYODFTOAQNT-UHFFFAOYSA-N

>  <FORMULA>  (4904) 
C9H18OSi

>  <EXACT MASS>  (4904) 
170.11269172599998

>  <MW>  (4904) 
170

>  <ID>  (4904) 
JP002396

>  <CONTRIBUTOR>  (4904) 
University of Tokyo Team, {Faculty of Engineering, University of Tokyo

>  <COMMENT>  (4904) 
SMILES=CCCCC(=C=O)[Si](C)(C)C
InChI=InChI=1S/C9H18OSi/c1-5-6-7-9(8-10)11(2,3)4/h5-7H2,1-4H3
computed SMILES=O=C=C(CCCC)[Si](C)(C)C
accession=JP002396
date=2016.01.19 (Created 2008.10.21, modified 2011.05.06)
author=MASS SPECTROSCOPY SOC. OF JAPAN (MSSJ)
license=CC BY-NC-SA
exact mass=170.11269
ionization energy=70 eV
ion type=[M]+*
computed spectral entropy=3.0712078155864555
computed normalized entropy=0.7891443027514513
SPLASH=splash10-0a6r-7900000000-cb430c1bb830cfb7b263
submitter=submitter = University of Tokyo Team (Faculty of Engineering, University of Tokyo)
MoNA Rating=3.75

>  <NUM PEAKS>  (4904) 
49

>  <MASS SPECTRAL PEAKS>  (4904) 
41 4.34
43 16.15
45 26.48
46 1.79
47 1.56
53 2.81
55 6.27
57 1.42
58 9.2
59 72.81
60 2.09
61 2.49
67 2.13
69 3.38
70 2.56
72 3.24
74 18.91
75 85.8
76 6.06
77 3.63
79 1.9
80 1.41
81 3.91
83 7.22
84 3.46
85 15.89
86 1.5
97 2.99
98 2.99
99 23.18
100 2.91
101 8.56
111 2.09
113 41.53
114 4.38
115 8.69
125 1.87
127 81.77
128 10.53
129 4.23
141 2.47
142 6.96
155 99.99
156 15.26
157 4.54
169 36.06
170 53.73
171 8.53
172 2.42

>  <PREDICTED SPECTRUM>  (4904) 
26 7
27 47
28 40
29 20
31 21
38 42
39 60
40 9
41 59
42 70
43 367
44 111
45 331
46 27
47 210
48 15
49 24
50 4
51 94
52 48
53 178
54 69
55 263
56 19
57 126
58 189
59 648
60 219
61 333
62 52
63 97
65 107
66 22
67 174
68 153
69 225
70 94
71 145
72 109
73 101
74 160
75 999
76 198
77 183
78 87
79 146
80 70
81 189
82 28
83 202
84 97
85 581
86 243
87 241
95 165
96 85
97 179
98 101
99 435
100 283
101 210
102 72
109 22
111 117
112 2
113 504
114 156
115 162
116 23
125 156
126 69
127 853
128 362
129 226
130 0
139 7
141 188
142 158
143 141
153 62
154 75
155 995
156 368
157 219
158 18
168 101
169 290
170 718
171 283
172 175
173 21

$$$$

     RDKit          2D

 10 10  0  0  0  0  0  0  0  0999 V2000
   -0.3112    2.4384    0.0000 C   0  0  0  0  0  0  0  0  0  0  0  0
   -2.3530    1.8632    0.0000 C   0  0  0  0  0  0  0  0  0  0  0  0
   -1.7778   -0.1786    0.0000 C   0  0  0  0  0  0  0  0  0  0  0  0
    3.1552    2.9887    0.0000 C   0  0  0  0  0  0  0  0  0  0  0  0
    3.9052    1.6896    0.0000 C   0  0  0  0  0  0  0  0  0  0  0  0
    1.6931    2.6411    0.0000 C   0  0  0  0  0  0  0  0  0  0  0  0
    2.9328    0.5739    0.0000 C   0  0  0  0  0  0  0  0  0  0  0  0
    1.5534    1.1632    0.0000 C   0  0  0  0  0  0  0  0  0  0  0  0
    0.2640    0.3966    0.0000 O   0  0  0  0  0  0  0  0  0  0  0  0
   -1.0445    1.1299    0.0000 Si  0  0  0  0  0  4  0  0  0  0  0  0
  5  4  1  0
  6  4  1  0
  7  5  1  0
  8  6  2  0
  8  7  1  0
  9  8  1  0
 10  1  1  0
 10  2  1  0
 10  3  1  0
 10  9  1  0
M  END
>  <NAME>  (4905) 
1-TRIMETHYLSILOXYCYCLOPENTENE

>  <SYNONYMS>  (4905) 


>  <SPECTRUM TYPE>  (4905) 
MS1

>  <INSTRUMENT TYPE>  (4905) 
EI-B

>  <INSTRUMENT>  (4905) 
JEOL JMS-D-3000

>  <ION MODE>  (4905) 
P

>  <INCHIKEY>  (4905) 
UBMYYGXGMPGCBO-UHFFFAOYSA-N

>  <FORMULA>  (4905) 
C8H16OSi

>  <EXACT MASS>  (4905) 
156.09704166199998

>  <MW>  (4905) 
156

>  <ID>  (4905) 
JP002395

>  <CONTRIBUTOR>  (4905) 
University of Tokyo Team, {Faculty of Engineering, University of Tokyo

>  <COMMENT>  (4905) 
SMILES=C(C1)CC(=C1)O[Si](C)(C)C
InChI=InChI=1S/C8H16OSi/c1-10(2,3)9-8-6-4-5-7-8/h6H,4-5,7H2,1-3H3
computed SMILES=O(C1=CCCC1)[Si](C)(C)C
accession=JP002395
date=2016.01.19 (Created 2008.10.21, modified 2011.05.06)
author=MASS SPECTROSCOPY SOC. OF JAPAN (MSSJ)
license=CC BY-NC-SA
exact mass=156.09704
ionization energy=70 eV
ion type=[M]+*
computed spectral entropy=2.435235846656567
computed normalized entropy=0.766266393414094
SPLASH=splash10-05di-9300000000-a03f7a713e6064dec874
submitter=submitter = University of Tokyo Team (Faculty of Engineering, University of Tokyo)
MoNA Rating=3.75

>  <NUM PEAKS>  (4905) 
24

>  <MASS SPECTRAL PEAKS>  (4905) 
42 5.28
43 5.41
45 14.6
47 4.52
55 7.54
57 3.9
59 9.98
61 3.37
63 2.92
67 3.37
70 4.74
71 3.86
73 81.75
74 7.45
75 99.99
76 7.23
77 4.39
85 2.92
99 5.14
127 3.95
141 20.06
155 46.24
156 45.13
157 8.03

>  <PREDICTED SPECTRUM>  (4905) 
14 21
15 53
26 45
27 141
28 50
29 149
31 63
37 18
38 81
39 210
40 75
41 137
42 59
43 165
44 98
45 426
46 97
47 186
49 8
50 97
51 157
52 111
53 173
54 60
55 135
56 21
57 109
58 90
59 220
60 45
61 77
62 23
63 79
64 11
65 153
66 152
67 144
68 66
69 67
70 24
71 77
72 110
73 999
74 314
75 724
76 209
77 257
78 107
79 102
80 56
81 103
82 23
83 118
84 82
85 159
86 72
89 26
93 10
95 59
97 120
98 16
99 186
100 80
101 95
102 6
110 8
111 163
112 7
113 192
114 82
115 98
116 3
123 81
124 39
125 159
127 202
128 214
129 172
130 45
139 148
140 58
141 803
142 303
143 192
144 35
154 20
155 303
156 716
157 310
158 163
159 34

$$$$

     RDKit          2D

 10  9  0  0  0  0  0  0  0  0999 V2000
   -4.4596    3.2243    0.0000 C   0  0  0  0  0  0  0  0  0  0  0  0
   -1.8615    4.7243    0.0000 C   0  0  0  0  0  0  0  0  0  0  0  0
    1.4865    1.9252    0.0000 C   0  0  0  0  0  0  0  0  0  0  0  0
    2.0356    3.9743    0.0000 C   0  0  0  0  0  0  0  0  0  0  0  0
   -0.0135    4.5233    0.0000 C   0  0  0  0  0  0  0  0  0  0  0  0
   -3.1606    2.4743    0.0000 C   0  0  0  0  0  0  0  0  0  0  0  0
   -1.8615    3.2243    0.0000 C   0  0  0  0  0  0  0  0  0  0  0  0
   -3.1606    0.9743    0.0000 I   0  0  0  0  0  0  0  0  0  0  0  0
   -0.5625    2.4743    0.0000 O   0  0  0  0  0  0  0  0  0  0  0  0
    0.7365    3.2243    0.0000 Si  0  0  0  0  0  4  0  0  0  0  0  0
  6  1  1  0
  7  2  1  0
  7  6  1  0
  8  6  1  0
  9  7  1  0
 10  3  1  0
 10  4  1  0
 10  5  1  0
 10  9  1  0
M  END
>  <NAME>  (4906) 
2-IODO-3-TRIMETHYLSILOXYBUTANE

>  <SYNONYMS>  (4906) 


>  <SPECTRUM TYPE>  (4906) 
MS1

>  <INSTRUMENT TYPE>  (4906) 
EI-B

>  <INSTRUMENT>  (4906) 
JEOL JMS-D-3000

>  <ION MODE>  (4906) 
P

>  <INCHIKEY>  (4906) 
XZBCZKWFLSEZIK-UHFFFAOYSA-N

>  <FORMULA>  (4906) 
C7H17IOSi

>  <EXACT MASS>  (4906) 
272.009339694

>  <MW>  (4906) 
272

>  <ID>  (4906) 
JP002394

>  <CONTRIBUTOR>  (4906) 
University of Tokyo Team, {Faculty of Engineering, University of Tokyo

>  <COMMENT>  (4906) 
SMILES=C[Si](C)(C)OC(C)C(C)I
InChI=InChI=1S/C7H17IOSi/c1-6(8)7(2)9-10(3,4)5/h6-7H,1-5H3
computed SMILES=IC(C)C(O[Si](C)(C)C)C
accession=JP002394
date=2016.01.19 (Created 2008.10.21, modified 2011.05.06)
author=MASS SPECTROSCOPY SOC. OF JAPAN (MSSJ)
license=CC BY-NC-SA
exact mass=272.00933
ionization energy=70 eV
ion type=[M]+*
computed spectral entropy=2.5517007237191547
computed normalized entropy=0.7430722864623277
SPLASH=splash10-00xr-8900000000-68fe716279d63e32af7a
submitter=submitter = University of Tokyo Team (Faculty of Engineering, University of Tokyo)
MoNA Rating=3.75

>  <NUM PEAKS>  (4906) 
31

>  <MASS SPECTRAL PEAKS>  (4906) 
41 2.39
43 6.06
45 6.67
47 4.37
51 3
55 6.2
57 1.92
59 2.76
61 2.32
65 2.7
72 2.59
73 99.99
74 8.97
75 26.09
76 1.88
117 60.44
118 6.64
119 2.5
127 4.41
129 18.59
130 5.22
145 47.98
146 6.54
147 2.25
171 1.58
185 30.23
186 2.19
187 1.65
257 9.73
258 1.25
272 0.24

>  <PREDICTED SPECTRUM>  (4906) 
14 5
15 2
26 23
27 102
28 20
29 52
31 1
38 17
39 80
40 33
41 137
42 66
43 429
44 143
45 303
46 16
47 153
49 7
50 41
51 84
52 68
53 88
54 25
55 240
56 53
57 49
58 49
59 75
61 128
65 42
67 16
71 63
72 82
73 973
74 268
75 451
76 114
77 106
78 30
79 0
83 48
85 37
86 28
87 27
93 2
101 74
102 68
103 146
115 6
117 999
118 339
119 159
127 74
128 53
129 251
130 327
131 71
145 646
146 159
147 172
171 51
184 3
185 494
186 155
187 21
228 31
257 315
258 106

$$$$

     RDKit          2D

  9  8  0  0  0  0  0  0  0  0999 V2000
   -6.3212    3.8505    0.0000 C   0  0  0  0  0  0  0  0  0  0  0  0
   -0.5760    1.8014    0.0000 C   0  0  0  0  0  0  0  0  0  0  0  0
    1.4731    2.3505    0.0000 C   0  0  0  0  0  0  0  0  0  0  0  0
    0.9240    4.3995    0.0000 C   0  0  0  0  0  0  0  0  0  0  0  0
   -5.0221    3.1005    0.0000 C   0  0  0  0  0  0  0  0  0  0  0  0
   -3.7231    3.8505    0.0000 C   0  0  0  0  0  0  0  0  0  0  0  0
   -2.4240    3.1005    0.0000 C   0  0  0  0  0  0  0  0  0  0  0  0
   -1.1250    3.8505    0.0000 O   0  0  0  0  0  0  0  0  0  0  0  0
    0.1740    3.1005    0.0000 Si  0  0  0  0  0  4  0  0  0  0  0  0
  5  1  1  0
  5  6  2  0
  7  6  1  0
  8  7  1  0
  9  2  1  0
  9  3  1  0
  9  4  1  0
  9  8  1  0
M  END
>  <NAME>  (4907) 
1-TRIMETHYLSILOXY-2-BUTENE

>  <SYNONYMS>  (4907) 


>  <SPECTRUM TYPE>  (4907) 
MS1

>  <INSTRUMENT TYPE>  (4907) 
EI-B

>  <INSTRUMENT>  (4907) 
JEOL JMS-D-3000

>  <ION MODE>  (4907) 
P

>  <INCHIKEY>  (4907) 
RQYBDDHHZHXTRM-AATRIKPKSA-N

>  <FORMULA>  (4907) 
C7H16OSi

>  <EXACT MASS>  (4907) 
144.09704166199998

>  <MW>  (4907) 
144

>  <ID>  (4907) 
JP002393

>  <CONTRIBUTOR>  (4907) 
University of Tokyo Team, {Faculty of Engineering, University of Tokyo

>  <COMMENT>  (4907) 
SMILES=CC=CCO[Si](C)(C)C
InChI=InChI=1S/C7H16OSi/c1-5-6-7-8-9(2,3)4/h5-6H,7H2,1-4H3/b6-5+
computed SMILES=O(CC=CC)[Si](C)(C)C
accession=JP002393
date=2016.01.19 (Created 2008.10.21, modified 2011.05.06)
author=MASS SPECTROSCOPY SOC. OF JAPAN (MSSJ)
license=CC BY-NC-SA
exact mass=144.09704
ionization energy=70 eV
ion type=[M]+*
computed spectral entropy=2.326215076816151
computed normalized entropy=0.7058040708296075
SPLASH=splash10-004i-9400000000-d45056819014a7ec2b30
submitter=submitter = University of Tokyo Team (Faculty of Engineering, University of Tokyo)
MoNA Rating=3.75

>  <NUM PEAKS>  (4907) 
27

>  <MASS SPECTRAL PEAKS>  (4907) 
42 1.63
43 4.83
44 1.91
45 8.11
47 5.28
53 2.21
54 2.4
55 4.28
57 3.62
58 1.95
59 4.83
60 1.24
61 4.3
73 45
74 4.55
75 99.99
76 7.46
77 3.84
85 1.52
99 3.16
101 3.05
113 1.59
129 57.82
130 6.95
131 2.49
144 23.62
145 3.51

>  <PREDICTED SPECTRUM>  (4907) 
26 74
27 88
28 9
29 55
31 102
39 159
40 26
41 148
42 84
43 157
44 127
45 352
46 75
47 290
49 50
50 50
51 94
52 36
53 144
54 99
55 285
56 22
57 149
58 110
59 329
60 124
61 246
62 0
63 16
69 50
71 37
72 108
73 725
74 227
75 999
76 290
77 295
78 94
81 2
85 164
86 27
87 45
88 14
89 79
91 18
99 260
100 40
101 362
102 111
103 54
104 32
113 193
115 147
116 13
117 11
127 132
128 51
129 912
130 400
131 190
132 50
143 150
144 364
145 195
146 125

$$$$

     RDKit          2D

  9  8  0  0  0  0  0  0  0  0999 V2000
   -3.1974   -0.2880    0.0000 C   0  0  0  0  0  0  0  0  0  0  0  0
    0.1507    1.4130    0.0000 C   0  0  0  0  0  0  0  0  0  0  0  0
    0.6998    3.4620    0.0000 C   0  0  0  0  0  0  0  0  0  0  0  0
   -1.3493    4.0111    0.0000 C   0  0  0  0  0  0  0  0  0  0  0  0
   -1.8983    0.4620    0.0000 C   0  0  0  0  0  0  0  0  0  0  0  0
   -3.1974    2.7120    0.0000 C   0  0  0  0  0  0  0  0  0  0  0  0
   -1.8983    1.9620    0.0000 C   0  0  0  0  0  0  0  0  0  0  0  0
   -4.4964    3.4620    0.0000 O   0  0  0  0  0  0  0  0  0  0  0  0
   -0.5993    2.7120    0.0000 Si  0  0  0  0  0  4  0  0  0  0  0  0
  5  1  1  0
  7  5  1  0
  7  6  2  0
  8  6  2  0
  9  2  1  0
  9  3  1  0
  9  4  1  0
  9  7  1  0
M  END
>  <NAME>  (4908) 
ETHYL(TRIMETHYLSILYL)KETENE

>  <SYNONYMS>  (4908) 


>  <SPECTRUM TYPE>  (4908) 
MS1

>  <INSTRUMENT TYPE>  (4908) 
EI-B

>  <INSTRUMENT>  (4908) 
JEOL JMS-D-3000

>  <ION MODE>  (4908) 
P

>  <INCHIKEY>  (4908) 
RQSLKPHKSDWYDG-UHFFFAOYSA-N

>  <FORMULA>  (4908) 
C7H14OSi

>  <EXACT MASS>  (4908) 
142.08139159799998

>  <MW>  (4908) 
142

>  <ID>  (4908) 
JP002392

>  <CONTRIBUTOR>  (4908) 
University of Tokyo Team, {Faculty of Engineering, University of Tokyo

>  <COMMENT>  (4908) 
SMILES=CCC(=C=O)[Si](C)(C)C
InChI=InChI=1S/C7H14OSi/c1-5-7(6-8)9(2,3)4/h5H2,1-4H3
computed SMILES=O=C=C(CC)[Si](C)(C)C
accession=JP002392
date=2016.01.19 (Created 2008.10.21, modified 2011.05.06)
author=MASS SPECTROSCOPY SOC. OF JAPAN (MSSJ)
license=CC BY-NC-SA
exact mass=142.08139
ionization energy=70 eV
ion type=[M]+*
computed spectral entropy=2.1746934204029604
computed normalized entropy=0.714297058040115
SPLASH=splash10-004i-4900000000-7a4ddf476e471d5ab3e3
submitter=submitter = University of Tokyo Team (Faculty of Engineering, University of Tokyo)
MoNA Rating=3.75

>  <NUM PEAKS>  (4908) 
21

>  <MASS SPECTRAL PEAKS>  (4908) 
32 11.47
43 2.74
55 10.22
56 1.85
57 4.08
58 2.18
69 4.08
70 2.76
71 3.13
72 6.85
82 6.06
83 4.6
84 2.46
93 2.43
97 13.12
98 3.46
111 31.66
112 2.32
126 99.99
127 11.5
142 3.74

>  <PREDICTED SPECTRUM>  (4908) 
14 9
15 38
25 7
26 50
27 112
28 57
29 131
31 83
38 17
39 90
40 14
41 129
42 76
43 396
44 138
45 329
46 29
47 80
49 12
50 21
51 57
52 36
53 158
54 14
55 202
57 135
58 188
59 434
60 17
61 143
62 16
63 103
66 43
67 97
68 48
69 142
70 107
71 189
72 202
73 631
74 175
75 527
76 50
79 100
81 58
83 238
84 18
85 277
86 74
87 53
95 18
97 213
98 48
99 760
100 245
101 135
113 315
114 245
115 133
125 15
127 999
128 343
129 205
141 5
142 389
143 139
144 40

$$$$

     RDKit          2D

  8  9  0  0  0  0  0  0  0  0999 V2000
    1.6796    2.0493    0.0000 C   0  0  0  0  0  0  0  0  0  0  0  0
   -1.6700   -0.7500    0.0000 C   0  0  0  0  0  0  0  0  0  0  0  0
   -1.6700    0.7500    0.0000 C   0  0  0  0  0  0  0  0  0  0  0  0
   -0.3700   -1.5000    0.0000 C   0  0  0  0  0  0  0  0  0  0  0  0
   -0.3700    1.5000    0.0000 C   0  0  0  0  0  0  0  0  0  0  0  0
    0.9300   -0.7500    0.0000 C   0  0  0  0  0  0  0  0  0  0  0  0
    0.9300    0.7500    0.0000 C   0  0  0  0  0  0  0  0  0  0  0  0
    2.2300   -0.0000    0.0000 O   0  0  0  0  0  0  0  0  0  0  0  0
  3  2  1  0
  4  2  1  0
  5  3  1  0
  6  4  1  0
  7  1  1  0
  7  5  1  0
  7  6  1  0
  8  6  1  0
  8  7  1  0
M  END
>  <NAME>  (4909) 
1-METHYL-1,2-EPOXYCYCLOHEXANE

>  <SYNONYMS>  (4909) 


>  <SPECTRUM TYPE>  (4909) 
MS1

>  <INSTRUMENT TYPE>  (4909) 
EI-B

>  <INSTRUMENT>  (4909) 
JEOL JMS-D-3000

>  <ION MODE>  (4909) 
P

>  <INCHIKEY>  (4909) 
FIEKVYPYFQSFTP-UHFFFAOYSA-N

>  <FORMULA>  (4909) 
C7H12O

>  <EXACT MASS>  (4909) 
112.088815004

>  <MW>  (4909) 
112

>  <ID>  (4909) 
JP002391

>  <CONTRIBUTOR>  (4909) 
University of Tokyo Team, {Faculty of Engineering, University of Tokyo

>  <COMMENT>  (4909) 
SMILES=CC(C2)(O1)C(CCC2)1
InChI=InChI=1S/C7H12O/c1-7-5-3-2-4-6(7)8-7/h6H,2-5H2,1H3
computed SMILES=O1C2CCCCC12C
accession=JP002391
date=2016.01.19 (Created 2008.10.21, modified 2011.05.06)
author=MASS SPECTROSCOPY SOC. OF JAPAN (MSSJ)
license=CC BY-NC-SA
exact mass=112.08882
ionization energy=70 eV
ion type=[M]+*
computed spectral entropy=2.8035917346047725
computed normalized entropy=0.8242955112574694
SPLASH=splash10-05ng-9000000000-64b13d76160fe950134d
submitter=submitter = University of Tokyo Team (Faculty of Engineering, University of Tokyo)
MoNA Rating=3.75

>  <NUM PEAKS>  (4909) 
30

>  <MASS SPECTRAL PEAKS>  (4909) 
42 64.12
43 68.25
44 3.48
51 4.17
53 12.8
54 4.13
55 95.85
56 18.05
57 10.69
58 14.48
65 3.16
67 22.09
68 27.02
69 33.91
70 6.75
71 23.63
77 6.73
79 14.56
81 2.91
82 2.58
83 96.31
84 20.3
91 3.81
93 2.64
94 5.83
97 99.99
98 6.91
111 6.18
112 34.62
113 2.83

>  <PREDICTED SPECTRUM>  (4909) 
14 27
15 58
25 15
26 169
27 488
28 263
29 390
30 147
31 183
32 26
33 13
34 1
36 27
37 121
38 241
39 792
40 459
41 979
42 706
43 999
44 405
45 205
46 38
49 5
50 166
51 312
52 317
53 620
54 567
55 798
56 473
57 294
58 228
59 98
60 38
61 5
62 24
63 104
64 35
65 267
66 245
67 818
68 551
69 888
70 455
71 364
72 34
77 241
78 103
79 500
80 249
81 396
82 136
83 611
84 406
85 167
91 75
93 294
94 406
95 293
96 161
97 545
98 170
111 198
112 555
113 155

$$$$

     RDKit          2D

 12 12  0  0  0  0  0  0  0  0999 V2000
    4.1347    1.1614    0.0000 C   0  0  0  0  0  0  0  0  0  0  0  0
   -1.6111    3.2110    0.0000 C   0  0  0  0  0  0  0  0  0  0  0  0
   -3.6601    2.6620    0.0000 C   0  0  0  0  0  0  0  0  0  0  0  0
   -3.1111    0.6129    0.0000 C   0  0  0  0  0  0  0  0  0  0  0  0
    0.2365    3.4128    0.0000 C   0  0  0  0  0  0  0  0  0  0  0  0
    1.5356    4.1628    0.0000 C   0  0  0  0  0  0  0  0  0  0  0  0
    1.5365    1.1612    0.0000 C   0  0  0  0  0  0  0  0  0  0  0  0
   -1.0620    1.1620    0.0000 C   0  0  0  0  0  0  0  0  0  0  0  0
    2.8356    1.9112    0.0000 C   0  0  0  0  0  0  0  0  0  0  0  0
    0.2370    1.9120    0.0000 C   0  0  0  0  0  0  0  0  0  0  0  0
    2.8351    3.4120    0.0000 O   0  0  0  0  0  0  0  0  0  0  0  0
   -2.3611    1.9120    0.0000 Si  0  0  0  0  0  4  0  0  0  0  0  0
  6  5  1  0
  9  1  1  0
  9  7  1  0
 10  5  2  0
 10  7  1  0
 10  8  1  0
 11  6  1  0
 11  9  1  0
 12  2  1  0
 12  3  1  0
 12  4  1  0
 12  8  1  0
M  END
>  <NAME>  (4910) 
6-METHYL-4-TRIMETHYLSILYLMETHYL-5,6-DIHYDRO-2H-PYRAN

>  <SYNONYMS>  (4910) 


>  <SPECTRUM TYPE>  (4910) 
MS1

>  <INSTRUMENT TYPE>  (4910) 
EI-B

>  <INSTRUMENT>  (4910) 
JEOL JMS-D-3000

>  <ION MODE>  (4910) 
P

>  <INCHIKEY>  (4910) 
WOUCLWIGYRWDRJ-UHFFFAOYSA-N

>  <FORMULA>  (4910) 
C10H20OSi

>  <EXACT MASS>  (4910) 
184.12834178999998

>  <MW>  (4910) 
184

>  <ID>  (4910) 
JP002388

>  <CONTRIBUTOR>  (4910) 
University of Tokyo Team, {Faculty of Engineering, University of Tokyo

>  <COMMENT>  (4910) 
SMILES=CC(O1)CC(=CC1)C[Si](C)(C)C
InChI=InChI=1S/C10H20OSi/c1-9-7-10(5-6-11-9)8-12(2,3)4/h5,9H,6-8H2,1-4H3
computed SMILES=O1CC=C(CC1C)C[Si](C)(C)C
accession=JP002388
date=2016.01.19 (Created 2008.10.21, modified 2011.05.06)
author=MASS SPECTROSCOPY SOC. OF JAPAN (MSSJ)
license=CC BY-NC-SA
exact mass=184.12834
ionization energy=70 eV
ion type=[M]+*
computed spectral entropy=2.3097470313574306
computed normalized entropy=0.7008074505088071
SPLASH=splash10-00di-9300000000-23ba25059a98b3fa13be
submitter=submitter = University of Tokyo Team (Faculty of Engineering, University of Tokyo)
MoNA Rating=3.75

>  <NUM PEAKS>  (4910) 
27

>  <MASS SPECTRAL PEAKS>  (4910) 
43 11.72
44 4.16
45 11.63
53 1.39
55 1.82
58 2.55
59 9.6
67 1.4
72 1.51
73 99.99
74 9.01
75 11.64
77 1.4
79 3.77
83 1.4
95 3.24
97 7.91
101 2.38
110 3.94
115 1.92
117 47.54
118 5.08
119 2.11
125 5.92
127 1.36
169 1.68
184 3.46

>  <PREDICTED SPECTRUM>  (4910) 
27 45
29 20
31 13
39 94
40 13
41 78
42 22
43 204
44 114
45 320
47 7
51 44
52 26
53 59
55 84
57 11
59 166
60 7
65 51
66 14
67 46
69 8
72 15
73 999
74 314
75 321
76 53
77 57
79 164
80 63
81 31
83 10
93 123
94 112
95 29
97 16
111 79
112 30
117 177
141 59
169 118
170 8
183 3
184 207
185 61

$$$$

     RDKit          2D

 21 23  0  0  1  0  0  0  0  0999 V2000
   -3.5603   -2.2833    0.0000 C   0  0  0  0  0  0  0  0  0  0  0  0
    6.1126    0.2393    0.0000 C   0  0  0  0  0  0  0  0  0  0  0  0
   -2.5376    4.6556    0.0000 C   0  0  0  0  0  0  0  0  0  0  0  0
    4.8131    0.9901    0.0000 C   0  0  0  0  0  0  0  0  0  0  0  0
    6.1131   -1.2615    0.0000 C   0  0  0  0  0  0  0  0  0  0  0  0
   -3.4207    3.4421    0.0000 C   0  0  0  0  0  0  0  0  0  0  0  0
   -1.0450    4.4985    0.0000 C   0  0  0  0  0  0  0  0  0  0  0  0
    3.5140    0.2401    0.0000 C   0  0  0  0  0  0  0  0  0  0  0  0
    4.8140   -2.0115    0.0000 C   0  0  0  0  0  0  0  0  0  0  0  0
   -2.8112    2.0715    0.0000 C   0  0  0  0  0  0  0  0  0  0  0  0
   -0.4355    3.1279    0.0000 C   0  0  0  0  0  0  0  0  0  0  0  0
    2.2155   -2.0107    0.0000 C   0  0  0  0  0  0  0  0  0  0  0  0
   -0.4593   -1.8636    0.0000 C   0  0  0  0  0  0  0  0  0  0  0  0
    0.7507    0.2322    0.0000 C   0  0  0  0  0  0  0  0  0  0  0  0
   -2.9508   -0.9127    0.0000 C   0  0  0  0  0  0  0  0  0  0  0  0
    3.5145   -1.2607    0.0000 C   0  0  0  0  0  0  0  0  0  0  0  0
   -1.3186    1.9144    0.0000 C   0  0  0  0  0  0  0  0  0  0  0  0
   -1.4591   -0.7552    0.0000 C   0  0  0  0  0  0  0  0  0  0  0  0
   -0.7091    0.5438    0.0000 C   0  0  0  0  0  0  0  0  0  0  0  0
    0.9164   -1.2607    0.0000 N   0  0  0  0  0  0  0  0  0  0  0  0
   -3.8330    0.3005    0.0000 O   0  0  0  0  0  0  0  0  0  0  0  0
  4  2  2  0
  5  2  1  0
  6  3  2  0
  7  3  1  0
  8  4  1  0
  9  5  2  0
 10  6  1  0
 11  7  2  0
 15  1  1  0
 16  8  2  0
 16  9  1  0
 16 12  1  0
 17 10  2  0
 17 11  1  0
 18 13  1  0
 18 15  1  6
 19 14  1  0
 19 17  1  1
 19 18  1  0
 20 12  1  0
 20 13  1  0
 20 14  1  0
 21 15  2  0
M  END
>  <NAME>  (4911) 
N-BENZYL-TRANS-(3-ACETYL-4-PHENYL)PYRROLIDINE

>  <SYNONYMS>  (4911) 


>  <SPECTRUM TYPE>  (4911) 
MS1

>  <INSTRUMENT TYPE>  (4911) 
EI-B

>  <INSTRUMENT>  (4911) 
JEOL JMS-D-3000

>  <ION MODE>  (4911) 
P

>  <INCHIKEY>  (4911) 
XUMMZAHZYIBFES-RTBURBONSA-N

>  <FORMULA>  (4911) 
C19H21NO

>  <EXACT MASS>  (4911) 
279.162314292

>  <MW>  (4911) 
279

>  <ID>  (4911) 
JP002387

>  <CONTRIBUTOR>  (4911) 
University of Tokyo Team, {Faculty of Engineering, University of Tokyo

>  <COMMENT>  (4911) 
SMILES=CC(=O)C(C2)C(CN(Cc(c3)cccc3)2)c(c1)cccc1
InChI=InChI=1S/C19H21NO/c1-15(21)18-13-20(12-16-8-4-2-5-9-16)14-19(18)17-10-6-3-7-11-17/h2-11,18-19H,12-14H2,1H3/t18-,19-/m1/s1
computed SMILES=O=C(C)C1CN(CC=2C=CC=CC2)CC1C=3C=CC=CC3
accession=JP002387
date=2016.01.19 (Created 2008.10.21, modified 2011.05.06)
author=MASS SPECTROSCOPY SOC. OF JAPAN (MSSJ)
license=CC BY-NC-SA
exact mass=279.16231
ionization energy=70 eV
ion type=[M]+*
computed spectral entropy=2.658103138042775
computed normalized entropy=0.8257861696642533
SPLASH=splash10-0006-9710000000-923c9c0d72935fbd3af2
submitter=submitter = University of Tokyo Team (Faculty of Engineering, University of Tokyo)
MoNA Rating=3.75

>  <NUM PEAKS>  (4911) 
25

>  <MASS SPECTRAL PEAKS>  (4911) 
42 63.42
43 19.33
51 4.33
65 15.26
77 5.47
91 99.99
92 8.84
104 5.74
105 3.41
115 10.8
116 4.21
117 50.67
118 7.96
132 16.18
133 11.31
144 4.11
158 3.41
160 8.3
175 32.46
176 4.67
188 8.69
209 14.46
260 3.63
279 18.48
280 3.94

>  <PREDICTED SPECTRUM>  (4911) 
14 9
15 26
16 8
17 7
18 7
26 11
27 33
28 30
29 24
33 15
34 15
38 41
39 229
40 127
41 164
42 254
43 379
44 165
45 73
50 83
51 200
52 98
53 96
54 92
55 143
56 182
57 117
58 66
62 29
63 151
64 70
65 360
66 101
67 56
68 114
69 100
70 61
71 58
72 22
74 73
75 63
76 102
77 233
78 169
79 94
80 39
81 5
82 69
83 79
84 100
85 52
86 27
87 37
88 3
89 180
90 85
91 999
92 327
93 107
94 52
95 11
97 0
98 50
99 18
100 77
101 54
102 118
103 187
104 257
105 164
106 157
107 46
108 24
109 12
110 1
111 23
112 67
113 25
114 34
115 262
116 177
117 292
118 267
119 163
120 106
121 45
126 23
127 76
128 165
129 145
130 209
131 232
132 288
133 148
134 204
135 51
140 17
141 15
142 78
143 120
144 244
145 209
146 227
147 109
148 39
153 23
154 32
157 46
158 97
159 132
160 152
161 60
162 12
170 30
171 117
172 140
173 85
174 103
175 64
176 16
178 21
179 21
180 38
181 0
186 71
187 79
188 267
189 93
190 17
191 41
193 46
194 50
195 44
200 1
201 53
202 263
203 121
204 12
205 8
206 27
207 50
208 74
209 60
210 13
218 48
219 32
220 40
221 49
222 28
223 19
234 19
235 44
236 86
237 38
250 24
261 24
262 49
264 119
265 69
278 215
279 297
280 119

$$$$

     RDKit          2D

 18 21  0  0  1  0  0  0  0  0999 V2000
    0.2689    6.2540    0.0000 C   0  0  0  0  0  0  0  0  0  0  0  0
    4.1431    5.5367    0.0000 C   0  0  0  0  0  0  0  0  0  0  0  0
    4.1580    4.0618    0.0000 C   0  0  0  0  0  0  0  0  0  0  0  0
    2.8511    6.2632    0.0000 C   0  0  0  0  0  0  0  0  0  0  0  0
    2.8794    3.2775    0.0000 C   0  0  0  0  0  0  0  0  0  0  0  0
    0.2900   -1.2100    0.0000 C   0  0  0  0  0  0  0  0  0  0  0  0
   -1.8200   -1.9400    0.0000 C   0  0  0  0  0  0  0  0  0  0  0  0
    0.8500   -1.9400    0.0000 C   0  0  0  0  0  0  0  0  0  0  0  0
   -1.0100    1.0400    0.0000 C   0  0  0  0  0  0  0  0  0  0  0  0
    1.5900    1.0400    0.0000 C   0  0  0  0  0  0  0  0  0  0  0  0
   -0.5200    0.1700    0.0000 C   0  0  0  0  0  0  0  0  0  0  0  0
    1.5741    5.5148    0.0000 C   0  0  0  0  0  0  0  0  0  0  0  0
   -1.0100   -0.4600    0.0000 C   0  0  0  0  0  0  0  0  0  0  0  0
    1.5900   -0.4600    0.0000 C   0  0  0  0  0  0  0  0  0  0  0  0
   -0.5200   -1.3300    0.0000 C   0  0  0  0  0  0  0  0  0  0  0  0
    1.5890    4.0400    0.0000 C   0  0  0  0  0  0  0  0  0  0  0  0
    0.2900    1.7900    0.0000 C   0  0  0  0  0  0  0  0  0  0  0  0
    0.2900    3.2900    0.0000 N   0  0  0  0  0  0  0  0  0  0  0  0
  3  2  1  0
  4  2  1  0
  5  3  1  0
 12  1  1  0
 12  4  1  0
 13  6  1  1
 13  7  1  0
 13  9  1  0
 14  6  1  6
 14  8  1  0
 14 10  1  0
 15  7  1  6
 15  8  1  0
 15 11  1  0
 16  5  1  0
 16 12  1  0
 17  9  1  0
 17 10  1  0
 17 11  1  0
 16 18  2  0
 17 18  1  1
M  END
>  <NAME>  (4912) 
N-(1-ADAMANTYL)-2-METHYLCYCLOHEXANIMINE

>  <SYNONYMS>  (4912) 


>  <SPECTRUM TYPE>  (4912) 
MS1

>  <INSTRUMENT TYPE>  (4912) 
EI-B

>  <INSTRUMENT>  (4912) 
JEOL JMS-D-3000

>  <ION MODE>  (4912) 
P

>  <INCHIKEY>  (4912) 
HYDCFZQSWVGFFZ-OZRGJFLCSA-N

>  <FORMULA>  (4912) 
C17H27N

>  <EXACT MASS>  (4912) 
245.21434986399998

>  <MW>  (4912) 
245

>  <ID>  (4912) 
JP002386

>  <CONTRIBUTOR>  (4912) 
University of Tokyo Team, {Faculty of Engineering, University of Tokyo

>  <COMMENT>  (4912) 
SMILES=CC(C4)C(CCC4)=NC(C3)(C1)CC([H])(C2)CC([H])(CC([H])23)1
InChI=InChI=1S/C17H27N/c1-12-4-2-3-5-16(12)18-17-9-13-6-14(10-17)8-15(7-13)11-17/h12-15H,2-11H2,1H3/b18-16+/t12?,13-,14+,15-,17-
computed SMILES=N(=C1CCCCC1C)C23CC4CC(CC(C4)C2)C3
accession=JP002386
date=2016.01.19 (Created 2008.10.21, modified 2011.05.06)
author=MASS SPECTROSCOPY SOC. OF JAPAN (MSSJ)
license=CC BY-NC-SA
exact mass=245.21435
ionization energy=70 eV
ion type=[M]+*
computed spectral entropy=2.0682726524537136
computed normalized entropy=0.7459716747253088
SPLASH=splash10-000i-4920000000-63376b9222f794bed58a
submitter=submitter = University of Tokyo Team (Faculty of Engineering, University of Tokyo)
MoNA Rating=3.75

>  <NUM PEAKS>  (4912) 
16

>  <MASS SPECTRAL PEAKS>  (4912) 
53 3.17
55 7.21
67 9.17
69 2.51
77 4.9
79 15.62
81 5.21
91 4.71
93 12.34
94 3.62
107 4.45
135 99.99
136 11.69
188 9
245 24.31
246 4.95

>  <PREDICTED SPECTRUM>  (4912) 
33 4
34 3
36 3
38 16
39 198
40 111
41 397
42 101
43 228
44 102
45 44
46 0
50 20
51 98
52 72
53 226
54 103
55 379
56 134
57 158
58 92
63 53
64 13
65 196
66 111
67 377
68 140
69 216
70 28
71 32
77 318
78 116
79 413
80 124
81 352
82 86
83 128
84 44
85 45
86 6
91 314
92 137
93 462
94 142
95 207
96 78
97 106
98 36
99 9
103 22
104 24
105 159
106 20
107 236
108 45
109 139
110 168
111 93
112 35
115 0
119 53
120 26
121 34
133 58
134 55
135 999
136 312
137 23
151 18
164 42
188 296
189 102
190 127
202 48
245 248
246 106
247 5

$$$$

     RDKit          2D

 18 21  0  0  1  0  0  0  0  0999 V2000
   -4.8395    1.5051    0.0000 C   0  0  0  0  0  0  0  0  0  0  0  0
   -3.2512    5.1108    0.0000 C   0  0  0  0  0  0  0  0  0  0  0  0
   -1.8124    4.7865    0.0000 C   0  0  0  0  0  0  0  0  0  0  0  0
   -4.2551    4.0203    0.0000 C   0  0  0  0  0  0  0  0  0  0  0  0
   -1.3428    3.3619    0.0000 C   0  0  0  0  0  0  0  0  0  0  0  0
    1.7215   -1.2108    0.0000 C   0  0  0  0  0  0  0  0  0  0  0  0
    2.2815   -1.9408    0.0000 C   0  0  0  0  0  0  0  0  0  0  0  0
    3.0215    1.0392    0.0000 C   0  0  0  0  0  0  0  0  0  0  0  0
   -0.3885   -1.9408    0.0000 C   0  0  0  0  0  0  0  0  0  0  0  0
    0.4215    1.0392    0.0000 C   0  0  0  0  0  0  0  0  0  0  0  0
   -3.8202    2.6055    0.0000 C   0  0  0  0  0  0  0  0  0  0  0  0
    3.0215   -0.4608    0.0000 C   0  0  0  0  0  0  0  0  0  0  0  0
    0.4215   -0.4608    0.0000 C   0  0  0  0  0  0  0  0  0  0  0  0
    0.9115   -1.3308    0.0000 C   0  0  0  0  0  0  0  0  0  0  0  0
    1.7215    1.7892    0.0000 C   0  0  0  0  0  0  0  0  0  0  0  0
   -2.3814    2.2812    0.0000 C   0  0  0  0  0  0  0  0  0  0  0  0
    0.9115    0.1692    0.0000 C   0  0  0  0  0  0  0  0  0  0  0  0
   -1.9499    0.8446    0.0000 N   0  0  0  0  0  0  0  0  0  0  0  0
  3  2  1  0
  4  2  1  0
  5  3  1  0
 11  1  1  0
 11  4  1  0
 12  6  1  1
 12  7  1  0
 12  8  1  0
 13  6  1  6
 13  9  1  0
 13 10  1  0
 14  7  1  1
 14  9  1  0
 15  8  1  1
 15 10  1  0
 16  5  1  0
 16 11  1  0
 17 14  1  0
 17 15  1  0
 16 18  2  0
 18 17  1  0
M  END
>  <NAME>  (4913) 
N-(2-ADAMANTYL)-2-METHYLCYCLOHEXANIMINE

>  <SYNONYMS>  (4913) 


>  <SPECTRUM TYPE>  (4913) 
MS1

>  <INSTRUMENT TYPE>  (4913) 
EI-B

>  <INSTRUMENT>  (4913) 
JEOL JMS-D-3000

>  <ION MODE>  (4913) 
P

>  <INCHIKEY>  (4913) 
WSEFNHGCDYIOSY-QIXOVXMPSA-N

>  <FORMULA>  (4913) 
C17H27N

>  <EXACT MASS>  (4913) 
245.21434986399998

>  <MW>  (4913) 
245

>  <ID>  (4913) 
JP002385

>  <CONTRIBUTOR>  (4913) 
University of Tokyo Team, {Faculty of Engineering, University of Tokyo

>  <COMMENT>  (4913) 
SMILES=CC(C4)C(CCC4)=NC(C([H])31)C([H])(C2)CC([H])(CC([H])(C3)2)C1
InChI=InChI=1S/C17H27N/c1-11-4-2-3-5-16(11)18-17-14-7-12-6-13(9-14)10-15(17)8-12/h11-15,17H,2-10H2,1H3/b18-16+/t11?,12-,13+,14-,15+,17?
computed SMILES=N(=C1CCCCC1C)C2C3CC4CC(C3)CC2C4
accession=JP002385
date=2016.01.19 (Created 2008.10.21, modified 2011.05.06)
author=MASS SPECTROSCOPY SOC. OF JAPAN (MSSJ)
license=CC BY-NC-SA
exact mass=245.21435
ionization energy=70 eV
ion type=[M]+*
computed spectral entropy=2.849752452377898
computed normalized entropy=0.8966973514309214
SPLASH=splash10-000j-9850000000-708060c4f6010f196186
submitter=submitter = University of Tokyo Team (Faculty of Engineering, University of Tokyo)
MoNA Rating=3.75

>  <NUM PEAKS>  (4913) 
24

>  <MASS SPECTRAL PEAKS>  (4913) 
44 8.06
53 9.04
55 18.91
67 48
77 13.16
79 33.34
81 18.49
91 17.38
92 8.7
93 29.43
107 12.29
110 8.29
112 11.82
135 99.99
136 12.06
150 32.99
188 7.78
202 9.22
230 19.57
241 8.56
243 15.11
244 9.33
245 61.09
246 11.74

>  <PREDICTED SPECTRUM>  (4913) 
27 18
28 50
29 67
30 24
39 241
40 95
41 437
42 100
43 105
44 85
51 55
52 46
53 230
54 98
55 449
56 136
57 82
58 2
65 232
66 92
67 481
68 197
69 244
70 40
77 340
78 141
79 550
80 257
81 372
82 66
83 55
91 278
92 330
93 570
94 250
95 319
96 147
97 95
105 121
106 34
107 262
108 136
109 193
110 506
111 365
112 20
115 41
119 113
120 73
121 62
122 106
123 20
124 98
132 69
133 75
134 35
135 999
136 261
146 79
147 84
148 110
149 79
150 190
151 51
152 59
164 65
165 13
174 40
175 43
176 130
188 291
189 195
190 199
202 124
203 40
230 138
244 220
245 847
246 272
247 79

$$$$

     RDKit          2D

 20 20  0  0  0  0  0  0  0  0999 V2000
    3.8978    3.3204    0.0000 C   0  0  0  0  0  0  0  0  0  0  0  0
    1.2998    4.8204    0.0000 C   0  0  0  0  0  0  0  0  0  0  0  0
    0.7507    4.2714    0.0000 C   0  0  0  0  0  0  0  0  0  0  0  0
    1.2998    6.3204    0.0000 C   0  0  0  0  0  0  0  0  0  0  0  0
   -0.7493    6.8695    0.0000 C   0  0  0  0  0  0  0  0  0  0  0  0
    2.5988    2.5704    0.0000 C   0  0  0  0  0  0  0  0  0  0  0  0
   -9.0925    4.8204    0.0000 C   0  0  0  0  0  0  0  0  0  0  0  0
   -9.0930    3.3196    0.0000 C   0  0  0  0  0  0  0  0  0  0  0  0
   -7.7930    5.5712    0.0000 C   0  0  0  0  0  0  0  0  0  0  0  0
   -7.7940    2.5696    0.0000 C   0  0  0  0  0  0  0  0  0  0  0  0
   -6.4940    4.8212    0.0000 C   0  0  0  0  0  0  0  0  0  0  0  0
    0.0007    2.5704    0.0000 C   0  0  0  0  0  0  0  0  0  0  0  0
   -5.1954    2.5704    0.0000 C   0  0  0  0  0  0  0  0  0  0  0  0
   -2.5974    2.5704    0.0000 C   0  0  0  0  0  0  0  0  0  0  0  0
    1.2998    3.3204    0.0000 C   0  0  0  0  0  0  0  0  0  0  0  0
   -6.4945    3.3204    0.0000 C   0  0  0  0  0  0  0  0  0  0  0  0
   -1.2983    3.3204    0.0000 C   0  0  0  0  0  0  0  0  0  0  0  0
   -3.8964    3.3204    0.0000 O   0  0  0  0  0  0  0  0  0  0  0  0
   -1.2983    4.8204    0.0000 O   0  0  0  0  0  0  0  0  0  0  0  0
    0.0007    5.5704    0.0000 Si  0  0  0  0  0  4  0  0  0  0  0  0
  6  1  2  0
  8  7  2  0
  9  7  1  0
 10  8  1  0
 11  9  2  0
 15  2  2  0
 15  6  1  0
 15 12  1  0
 16 10  2  0
 16 11  1  0
 16 13  1  0
 17 12  1  0
 17 14  1  0
 18 13  1  0
 18 14  1  0
 19 17  1  0
 20  3  1  0
 20  4  1  0
 20  5  1  0
 20 19  1  0
M  END
>  <NAME>  (4914) 
6-BENZYLOXY-3-METHYLENE-5-TRIMETHYLSILOXY-1-HEXENE

>  <SYNONYMS>  (4914) 


>  <SPECTRUM TYPE>  (4914) 
MS1

>  <INSTRUMENT TYPE>  (4914) 
EI-B

>  <INSTRUMENT>  (4914) 
JEOL JMS-D-3000

>  <ION MODE>  (4914) 
P

>  <INCHIKEY>  (4914) 
IAPWZIJERGMFKY-UHFFFAOYSA-N

>  <FORMULA>  (4914) 
C17H26O2Si

>  <EXACT MASS>  (4914) 
290.170206602

>  <MW>  (4914) 
290

>  <ID>  (4914) 
JP002384

>  <CONTRIBUTOR>  (4914) 
University of Tokyo Team, {Faculty of Engineering, University of Tokyo

>  <COMMENT>  (4914) 
SMILES=C=CC(=C)CC(COCc(c1)cccc1)O[Si](C)(C)C
InChI=InChI=1S/C17H26O2Si/c1-6-15(2)12-17(19-20(3,4)5)14-18-13-16-10-8-7-9-11-16/h6-11,17H,1-2,12-14H2,3-5H3
computed SMILES=O(CC=1C=CC=CC1)CC(O[Si](C)(C)C)CC(=C)C=C
accession=JP002384
date=2016.01.19 (Created 2008.10.21, modified 2011.05.06)
author=MASS SPECTROSCOPY SOC. OF JAPAN (MSSJ)
license=CC BY-NC-SA
exact mass=290.17021
ionization energy=70 eV
ion type=[M]+*
computed spectral entropy=2.3950969832995095
computed normalized entropy=0.6910789080508638
SPLASH=splash10-006x-9100000000-1f63875e37cd3e7384a6
submitter=submitter = University of Tokyo Team (Faculty of Engineering, University of Tokyo)
MoNA Rating=3.75

>  <NUM PEAKS>  (4914) 
32

>  <MASS SPECTRAL PEAKS>  (4914) 
41 3.18
43 3.54
45 4.52
59 6.13
65 6.39
73 56.25
74 5.12
75 17.13
77 4.12
79 7.61
81 4.49
91 99.99
92 9.98
94 2.62
95 2.14
97 2.01
103 3.2
105 2.08
107 5.95
109 4.54
117 4.32
125 2.43
129 2.32
140 1.9
141 1.89
150 2.17
169 4.84
199 3.03
217 0.06
222 0.73
275 0.04
290 0.29

>  <PREDICTED SPECTRUM>  (4914) 
26 9
27 49
28 14
29 38
31 25
38 11
39 46
40 3
41 71
42 33
43 59
44 18
45 168
46 9
47 50
49 1
50 24
51 80
52 56
53 66
54 32
55 80
56 23
57 26
58 49
59 125
60 27
61 60
62 9
63 40
64 17
65 192
66 57
67 48
68 34
69 44
70 2
71 28
72 55
73 663
74 174
75 297
76 39
77 148
78 64
79 147
80 54
81 90
82 41
83 81
84 10
85 6
91 999
92 344
93 111
94 14
95 67
96 10
97 43
99 25
101 15
103 30
104 43
105 125
106 47
107 121
108 63
109 49
110 25
111 61
112 62
113 1
114 3
115 30
117 193
118 47
119 61
121 23
125 48
127 65
128 58
129 80
130 30
132 19
139 20
140 13
141 90
142 51
143 5
147 50
149 24
150 28
151 20
155 36
156 62
157 37
169 132
170 14
171 72
179 0
181 40
184 24
185 40
191 5
199 39
200 36
217 16
222 28
223 26
275 20
290 56

$$$$

     RDKit          2D

 20 21  0  0  0  0  0  0  0  0999 V2000
   -6.4827   -0.7265    0.0000 C   0  0  0  0  0  0  0  0  0  0  0  0
   -8.5318   -1.2756    0.0000 C   0  0  0  0  0  0  0  0  0  0  0  0
   -7.9827   -3.3246    0.0000 C   0  0  0  0  0  0  0  0  0  0  0  0
    5.7579   -0.5251    0.0000 C   0  0  0  0  0  0  0  0  0  0  0  0
    4.4583    0.2255    0.0000 C   0  0  0  0  0  0  0  0  0  0  0  0
    5.7586   -2.0260    0.0000 C   0  0  0  0  0  0  0  0  0  0  0  0
    3.1593   -0.5247    0.0000 C   0  0  0  0  0  0  0  0  0  0  0  0
    4.4597   -2.7762    0.0000 C   0  0  0  0  0  0  0  0  0  0  0  0
   -4.6351   -0.5247    0.0000 C   0  0  0  0  0  0  0  0  0  0  0  0
   -3.3361    0.2253    0.0000 C   0  0  0  0  0  0  0  0  0  0  0  0
   -3.3351   -2.7764    0.0000 C   0  0  0  0  0  0  0  0  0  0  0  0
    1.8611   -2.7758    0.0000 C   0  0  0  0  0  0  0  0  0  0  0  0
   -0.7369   -2.7762    0.0000 C   0  0  0  0  0  0  0  0  0  0  0  0
   -5.9337   -2.7756    0.0000 C   0  0  0  0  0  0  0  0  0  0  0  0
    3.1601   -2.0256    0.0000 C   0  0  0  0  0  0  0  0  0  0  0  0
   -4.6346   -2.0256    0.0000 C   0  0  0  0  0  0  0  0  0  0  0  0
   -2.0361   -2.0264    0.0000 C   0  0  0  0  0  0  0  0  0  0  0  0
    0.5620   -2.0260    0.0000 O   0  0  0  0  0  0  0  0  0  0  0  0
   -2.0366   -0.5256    0.0000 O   0  0  0  0  0  0  0  0  0  0  0  0
   -7.2327   -2.0256    0.0000 Si  0  0  0  0  0  4  0  0  0  0  0  0
  5  4  2  0
  6  4  1  0
  7  5  1  0
  8  6  2  0
 10  9  1  0
 15  7  2  0
 15  8  1  0
 15 12  1  0
 16  9  2  0
 16 11  1  0
 16 14  1  0
 17 11  1  0
 17 13  1  0
 18 12  1  0
 18 13  1  0
 19 10  1  0
 19 17  1  0
 20  1  1  0
 20  2  1  0
 20  3  1  0
 20 14  1  0
M  END
>  <NAME>  (4915) 
6-BENZYLOXYMETHYL-4-TRIMETHYLSILYLMETHYL-5,6-DIHYDRO-2H-PYRANE

>  <SYNONYMS>  (4915) 


>  <SPECTRUM TYPE>  (4915) 
MS1

>  <INSTRUMENT TYPE>  (4915) 
EI-B

>  <INSTRUMENT>  (4915) 
JEOL JMS-D-3000

>  <ION MODE>  (4915) 
P

>  <INCHIKEY>  (4915) 
OTXSTMDCYMFJRJ-UHFFFAOYSA-N

>  <FORMULA>  (4915) 
C17H26O2Si

>  <EXACT MASS>  (4915) 
290.170206602

>  <MW>  (4915) 
290

>  <ID>  (4915) 
JP002383

>  <CONTRIBUTOR>  (4915) 
University of Tokyo Team, {Faculty of Engineering, University of Tokyo

>  <COMMENT>  (4915) 
SMILES=c(c2)ccc(c2)COCC(O1)CC(=CC1)C[Si](C)(C)C
InChI=InChI=1S/C17H26O2Si/c1-20(2,3)14-16-9-10-19-17(11-16)13-18-12-15-7-5-4-6-8-15/h4-9,17H,10-14H2,1-3H3
computed SMILES=O(CC=1C=CC=CC1)CC2OCC=C(C2)C[Si](C)(C)C
accession=JP002383
date=2016.01.19 (Created 2008.10.21, modified 2011.05.06)
author=MASS SPECTROSCOPY SOC. OF JAPAN (MSSJ)
license=CC BY-NC-SA
exact mass=290.17021
ionization energy=70 eV
ion type=[M]+*
computed spectral entropy=2.541431984956522
computed normalized entropy=0.7547397417014977
SPLASH=splash10-00dl-9200000000-11f41b3dcf7f3aacc3ee
submitter=submitter = University of Tokyo Team (Faculty of Engineering, University of Tokyo)
MoNA Rating=3.75

>  <NUM PEAKS>  (4915) 
29

>  <MASS SPECTRAL PEAKS>  (4915) 
45 7.68
51 1.65
59 4.86
65 6.75
67 3.51
68 2.57
73 99.99
74 8.76
75 13.59
77 3.3
79 14.64
81 13.69
87 1.72
91 86.76
92 8.68
95 5.54
96 1.73
97 3.93
103 5.83
105 1.79
107 2.71
109 12.67
117 4.88
169 24.21
170 4.1
199 31.5
200 5.25
201 1.72
290 1.7

>  <PREDICTED SPECTRUM>  (4915) 
26 16
27 65
28 7
29 83
30 14
31 90
38 15
39 66
40 9
41 100
42 57
43 106
44 49
45 220
46 13
47 80
49 38
50 42
51 98
52 41
53 65
54 15
55 94
56 44
57 57
58 56
59 183
60 18
61 43
63 36
64 2
65 170
66 23
67 55
68 43
69 84
70 50
71 68
72 55
73 874
74 224
75 326
76 63
77 144
78 74
79 132
81 54
83 76
84 15
85 62
86 21
87 0
89 53
90 14
91 999
92 322
93 94
95 45
96 12
97 70
99 50
101 44
103 86
104 148
105 150
106 6
107 102
109 56
110 10
111 44
112 35
113 15
115 30
116 0
117 207
118 34
119 60
121 26
125 66
126 42
127 94
128 34
129 108
130 29
131 140
132 43
133 79
134 37
135 57
141 108
142 48
143 55
147 53
149 14
150 19
153 31
155 115
156 75
157 67
158 18
169 57
170 23
171 122
172 7
179 18
180 25
181 26
182 20
183 26
184 38
185 78
191 5
199 41
200 59
201 61
217 48
218 21
223 41
250 3
275 10
290 159
291 54

$$$$

     RDKit          2D

 17 18  0  0  0  0  0  0  0  0999 V2000
    0.0000    3.0000    0.0000 C   0  0  0  0  0  0  0  0  0  0  0  0
   -5.1551   -3.0009    0.0000 C   0  0  0  0  0  0  0  0  0  0  0  0
    1.8127   -2.1596    0.0000 C   0  0  0  0  0  0  0  0  0  0  0  0
    2.7772   -0.4897    0.0000 C   0  0  0  0  0  0  0  0  0  0  0  0
   -6.4715    0.7127    0.0000 C   0  0  0  0  0  0  0  0  0  0  0  0
   -5.2018    1.4633    0.0000 C   0  0  0  0  0  0  0  0  0  0  0  0
   -6.4544   -0.7694    0.0000 C   0  0  0  0  0  0  0  0  0  0  0  0
   -3.8831    0.7483    0.0000 C   0  0  0  0  0  0  0  0  0  0  0  0
   -1.3000    0.7500    0.0000 C   0  0  0  0  0  0  0  0  0  0  0  0
    1.3000    0.7500    0.0000 C   0  0  0  0  0  0  0  0  0  0  0  0
    0.0000   -1.5000    0.0000 C   0  0  0  0  0  0  0  0  0  0  0  0
    0.0000    1.5000    0.0000 C   0  0  0  0  0  0  0  0  0  0  0  0
   -5.1677   -1.5010    0.0000 C   0  0  0  0  0  0  0  0  0  0  0  0
   -1.3000   -0.7500    0.0000 C   0  0  0  0  0  0  0  0  0  0  0  0
   -3.8981   -0.7504    0.0000 C   0  0  0  0  0  0  0  0  0  0  0  0
    1.3000   -0.7500    0.0000 C   0  0  0  0  0  0  0  0  0  0  0  0
   -2.5989   -1.5002    0.0000 N   0  0  0  0  0  0  0  0  0  0  0  0
  6  5  1  0
  7  5  1  0
  8  6  1  0
 12  1  1  0
 12  9  1  0
 12 10  1  0
 13  2  1  0
 13  7  1  0
 14  9  1  0
 14 11  1  0
 15  8  1  0
 15 13  1  0
 16  3  1  0
 16  4  1  0
 16 10  1  0
 16 11  1  0
 17 14  1  0
 15 17  2  0
M  END
>  <NAME>  (4916) 
N-(3,3,5-TRIMETHYLCYCLOHEXYL)-2-METHYLCYCLOHEXANIMINE

>  <SYNONYMS>  (4916) 


>  <SPECTRUM TYPE>  (4916) 
MS1

>  <INSTRUMENT TYPE>  (4916) 
EI-B

>  <INSTRUMENT>  (4916) 
JEOL JMS-D-300

>  <ION MODE>  (4916) 
P

>  <INCHIKEY>  (4916) 
QEISLGFRKREVJZ-BMRADRMJSA-N

>  <FORMULA>  (4916) 
C16H29N

>  <EXACT MASS>  (4916) 
235.22999992799998

>  <MW>  (4916) 
235

>  <ID>  (4916) 
JP002382

>  <CONTRIBUTOR>  (4916) 
University of Tokyo Team, {Faculty of Engineering, University of Tokyo

>  <COMMENT>  (4916) 
SMILES=CC(C1)CC(C)(C)CC1N=C(C2)C(C)CCC2
InChI=InChI=1S/C16H29N/c1-12-9-14(11-16(3,4)10-12)17-15-8-6-5-7-13(15)2/h12-14H,5-11H2,1-4H3/b17-15+
computed SMILES=N(=C1CCCCC1C)C2CC(C)CC(C)(C)C2
accession=JP002382
date=2016.01.19 (Created 2008.10.21, modified 2011.05.06)
author=MASS SPECTROSCOPY SOC. OF JAPAN (MSSJ)
license=CC BY-NC-SA
exact mass=235.23
ionization energy=70 eV
ion type=[M]+*
computed spectral entropy=2.954735804921282
computed normalized entropy=0.9068901950694133
SPLASH=splash10-02t9-9520000000-faeb604de59316ea2864
submitter=submitter = University of Tokyo Team (Faculty of Engineering, University of Tokyo)
MoNA Rating=3.75

>  <NUM PEAKS>  (4916) 
26

>  <MASS SPECTRAL PEAKS>  (4916) 
43 11.17
53 8.18
55 36.42
57 15.21
67 17.01
68 10.47
69 99.99
70 8.33
79 8.13
81 11.77
83 33.73
95 8.98
107 8.13
109 11.27
110 22.4
112 40.36
123 10.47
124 8.33
125 19.61
160 12.37
174 9.43
178 12.22
218 13.22
220 26.94
233 9.58
235 19.01

>  <PREDICTED SPECTRUM>  (4916) 
27 155
28 86
29 220
30 35
39 390
40 200
41 986
42 327
43 596
44 350
45 117
50 50
51 175
52 97
53 404
54 186
55 884
56 434
57 451
58 42
59 38
60 25
63 32
65 242
66 164
67 691
68 442
69 866
70 355
71 140
73 19
74 33
76 37
77 372
78 134
79 422
80 158
81 684
82 527
83 374
84 69
85 58
86 6
91 280
92 105
93 482
94 162
95 841
96 409
97 165
98 196
99 15
105 208
106 94
107 345
108 116
109 999
110 613
111 500
112 566
113 211
114 14
119 37
120 58
121 72
122 108
123 223
124 516
125 620
126 187
127 33
136 194
137 115
138 162
139 22
148 114
149 32
150 282
151 134
152 80
153 53
162 34
163 61
164 201
165 53
166 80
178 273
179 148
180 124
191 42
192 200
193 24
206 31
220 324
221 165
235 284
236 121

$$$$

     RDKit          2D

 17 17  0  0  0  0  0  0  0  0999 V2000
   -5.1459    2.4830    0.0000 C   0  0  0  0  0  0  0  0  0  0  0  0
   -2.5478    3.9830    0.0000 C   0  0  0  0  0  0  0  0  0  0  0  0
   -0.4988    6.0320    0.0000 C   0  0  0  0  0  0  0  0  0  0  0  0
   -2.5478    5.4830    0.0000 C   0  0  0  0  0  0  0  0  0  0  0  0
   -1.9988    3.4339    0.0000 C   0  0  0  0  0  0  0  0  0  0  0  0
   -3.8469    1.7330    0.0000 C   0  0  0  0  0  0  0  0  0  0  0  0
    3.9474    0.2330    0.0000 C   0  0  0  0  0  0  0  0  0  0  0  0
    3.9478    1.7338    0.0000 C   0  0  0  0  0  0  0  0  0  0  0  0
    2.6478   -0.5179    0.0000 C   0  0  0  0  0  0  0  0  0  0  0  0
    2.6488    2.4838    0.0000 C   0  0  0  0  0  0  0  0  0  0  0  0
    1.3488    0.2321    0.0000 C   0  0  0  0  0  0  0  0  0  0  0  0
   -1.2488    1.7330    0.0000 C   0  0  0  0  0  0  0  0  0  0  0  0
   -2.5478    2.4830    0.0000 C   0  0  0  0  0  0  0  0  0  0  0  0
    1.3493    1.7330    0.0000 C   0  0  0  0  0  0  0  0  0  0  0  0
    0.0502    2.4830    0.0000 C   0  0  0  0  0  0  0  0  0  0  0  0
    0.0502    3.9830    0.0000 O   0  0  0  0  0  0  0  0  0  0  0  0
   -1.2488    4.7330    0.0000 Si  0  0  0  0  0  4  0  0  0  0  0  0
  6  1  2  0
  8  7  2  0
  9  7  1  0
 10  8  1  0
 11  9  2  0
 13  2  2  0
 13  6  1  0
 13 12  1  0
 14 10  2  0
 14 11  1  0
 15 12  1  0
 15 14  1  0
 16 15  1  0
 17  3  1  0
 17  4  1  0
 17  5  1  0
 17 16  1  0
M  END
>  <NAME>  (4917) 
3-METHYLENE-5-PHENYL-5-TRIMETHYLSILOXY-1-PENTENE

>  <SYNONYMS>  (4917) 


>  <SPECTRUM TYPE>  (4917) 
MS1

>  <INSTRUMENT TYPE>  (4917) 
EI-B

>  <INSTRUMENT>  (4917) 
JEOL JMS-D-3000

>  <ION MODE>  (4917) 
P

>  <INCHIKEY>  (4917) 
XTFVPAAHRMECEV-UHFFFAOYSA-N

>  <FORMULA>  (4917) 
C15H22OSi

>  <EXACT MASS>  (4917) 
246.14399185399998

>  <MW>  (4917) 
246

>  <ID>  (4917) 
JP002381

>  <CONTRIBUTOR>  (4917) 
University of Tokyo Team, {Faculty of Engineering, University of Tokyo

>  <COMMENT>  (4917) 
SMILES=C=CC(=C)CC(O[Si](C)(C)C)c(c1)cccc1
InChI=InChI=1S/C15H22OSi/c1-6-13(2)12-15(16-17(3,4)5)14-10-8-7-9-11-14/h6-11,15H,1-2,12H2,3-5H3
computed SMILES=O(C(C=1C=CC=CC1)CC(=C)C=C)[Si](C)(C)C
accession=JP002381
date=2016.01.19 (Created 2008.10.21, modified 2011.05.06)
author=MASS SPECTROSCOPY SOC. OF JAPAN (MSSJ)
license=CC BY-NC-SA
exact mass=246.14399
ionization energy=70 eV
ion type=[M]+*
computed spectral entropy=2.11419503778013
computed normalized entropy=0.6568116177226866
SPLASH=splash10-00b9-9700000000-f8d3921811d09a49e2ab
submitter=submitter = University of Tokyo Team (Faculty of Engineering, University of Tokyo)
MoNA Rating=3.75

>  <NUM PEAKS>  (4917) 
25

>  <MASS SPECTRAL PEAKS>  (4917) 
43 12.91
45 8.09
47 2.84
53 2.33
58 4.53
59 3.58
73 90.51
74 7.45
75 16.78
76 1.87
77 3.94
91 2.54
104 1.91
105 2.06
117 2.74
119 1.85
125 3.86
127 1.91
128 2.06
163 2.25
179 99.99
180 16.27
181 4.72
231 2.67
246 0.39

>  <PREDICTED SPECTRUM>  (4917) 
29 7
31 20
39 92
40 10
41 79
43 60
44 61
45 288
46 35
47 87
50 52
51 136
52 48
53 51
57 5
58 54
59 168
60 63
61 59
62 7
63 103
64 18
65 93
66 5
67 38
72 15
73 999
74 283
75 418
76 143
77 238
78 140
79 119
80 18
81 51
83 64
84 16
89 23
91 182
92 57
93 152
94 9
95 17
102 112
103 164
104 228
105 226
106 60
115 188
116 38
119 81
121 87
126 5
127 82
128 224
129 133
135 5
139 35
141 185
142 131
147 75
152 43
153 69
154 50
155 93
156 352
157 93
158 51
161 20
163 83
164 20
165 103
166 65
167 49
169 5
170 11
171 10
174 17
177 78
178 120
179 752
180 226
181 31
191 53
192 85
193 52
195 16
203 14
205 19
231 214
232 79
245 32
246 226
247 67
248 59

$$$$

     RDKit          2D

 20 21  0  0  1  0  0  0  0  0999 V2000
   -5.3523    0.1902    0.0000 C   0  0  0  0  0  0  0  0  0  0  0  0
   -3.4474    3.4896    0.0000 C   0  0  0  0  0  0  0  0  0  0  0  0
    6.0850    0.2865    0.0000 C   0  0  0  0  0  0  0  0  0  0  0  0
    4.7855    1.0373    0.0000 C   0  0  0  0  0  0  0  0  0  0  0  0
    6.0855   -1.2143    0.0000 C   0  0  0  0  0  0  0  0  0  0  0  0
    3.4864    0.2873    0.0000 C   0  0  0  0  0  0  0  0  0  0  0  0
    4.7864   -1.9643    0.0000 C   0  0  0  0  0  0  0  0  0  0  0  0
    2.1879   -1.9635    0.0000 C   0  0  0  0  0  0  0  0  0  0  0  0
   -0.4869   -1.8164    0.0000 C   0  0  0  0  0  0  0  0  0  0  0  0
    0.7231    0.2794    0.0000 C   0  0  0  0  0  0  0  0  0  0  0  0
    3.4869   -1.2135    0.0000 C   0  0  0  0  0  0  0  0  0  0  0  0
   -1.4867   -0.7080    0.0000 C   0  0  0  0  0  0  0  0  0  0  0  0
   -0.7367    0.5910    0.0000 C   0  0  0  0  0  0  0  0  0  0  0  0
   -2.9784   -0.8655    0.0000 C   0  0  0  0  0  0  0  0  0  0  0  0
   -1.3462    1.9616    0.0000 C   0  0  0  0  0  0  0  0  0  0  0  0
    0.8888   -1.2135    0.0000 N   0  0  0  0  0  0  0  0  0  0  0  0
   -3.5879   -2.2361    0.0000 O   0  0  0  0  0  0  0  0  0  0  0  0
   -0.4640    3.1747    0.0000 O   0  0  0  0  0  0  0  0  0  0  0  0
   -3.8606    0.3477    0.0000 O   0  0  0  0  0  0  0  0  0  0  0  0
   -2.8379    2.1191    0.0000 O   0  0  0  0  0  0  0  0  0  0  0  0
  4  3  2  0
  5  3  1  0
  6  4  1  0
  7  5  2  0
 11  6  2  0
 11  7  1  0
 11  8  1  0
 12  9  1  0
 13 10  1  0
 13 12  1  0
 12 14  1  6
 13 15  1  6
 16  8  1  0
 16  9  1  0
 16 10  1  0
 17 14  2  0
 18 15  2  0
 19  1  1  0
 19 14  1  0
 20  2  1  0
 20 15  1  0
M  END
>  <NAME>  (4918) 
N-BENZYL-CIS-3,4-DI(METHOXYCARBONYL)PYRR0LIDINE

>  <SYNONYMS>  (4918) 
DIMETHYL 1-BENZYLPYRROLIDINE-CIS-3,4-DICARBOXYLATE

>  <SPECTRUM TYPE>  (4918) 
MS1

>  <INSTRUMENT TYPE>  (4918) 
EI-B

>  <INSTRUMENT>  (4918) 
JEOL JMS-D-3000

>  <ION MODE>  (4918) 
P

>  <INCHIKEY>  (4918) 
JSRVVUSBZJFOJO-BETUJISGSA-N

>  <FORMULA>  (4918) 
C15H19NO4

>  <EXACT MASS>  (4918) 
277.131408088

>  <MW>  (4918) 
277

>  <ID>  (4918) 
JP002380

>  <CONTRIBUTOR>  (4918) 
University of Tokyo Team, {Faculty of Engineering, University of Tokyo

>  <COMMENT>  (4918) 
SMILES=COC(=O)C(C1)C(C(=O)OC)CN(Cc(c2)cccc2)1
InChI=InChI=1S/C15H19NO4/c1-19-14(17)12-9-16(10-13(12)15(18)20-2)8-11-6-4-3-5-7-11/h3-7,12-13H,8-10H2,1-2H3/t12-,13+
computed SMILES=O=C(OC)C1CN(CC=2C=CC=CC2)CC1C(=O)OC
accession=JP002380
date=2016.01.19 (Created 2008.10.21, modified 2011.05.06)
author=MASS SPECTROSCOPY SOC. OF JAPAN (MSSJ)
license=CC BY-NC-SA
exact mass=277.13141
ionization energy=70 eV
ion type=[M]+*
computed spectral entropy=2.900167231836511
computed normalized entropy=0.797277948752328
SPLASH=splash10-0006-9730000000-c90d18d651000b25421b
submitter=submitter = University of Tokyo Team (Faculty of Engineering, University of Tokyo)
MoNA Rating=3.75

>  <NUM PEAKS>  (4918) 
38

>  <MASS SPECTRAL PEAKS>  (4918) 
42 20.04
44 5.55
45 2.88
55 3.27
59 3.38
65 10.83
68 4.89
73 2.83
77 2.35
82 2.28
87 2.62
91 99.99
92 11.66
105 2.63
118 2.23
120 2.74
126 6.4
127 4.13
132 6.12
133 2.6
154 12.89
158 9.39
159 3.53
176 3.55
180 9.18
186 59.4
187 5.66
191 11.54
200 9.13
216 4.17
217 2.21
218 3.75
246 23.73
247 3.76
262 3.08
276 5.95
277 11.94
278 2.22

>  <PREDICTED SPECTRUM>  (4918) 
15 38
27 8
28 15
29 44
33 17
38 14
39 142
40 66
41 173
42 373
43 113
44 98
45 165
50 35
51 137
52 57
53 85
54 87
55 137
56 123
57 54
58 55
59 169
60 19
62 21
63 104
64 37
65 326
66 121
67 90
68 69
69 18
70 32
71 30
76 13
77 121
78 83
79 37
80 21
81 66
82 177
83 85
84 51
85 60
86 63
87 47
89 88
90 53
91 999
92 245
93 49
94 5
98 64
99 101
100 64
104 58
105 84
107 100
112 39
113 5
114 33
115 52
116 45
117 28
118 169
120 80
125 1
126 242
127 151
128 72
129 70
130 41
131 86
132 195
133 94
141 33
142 63
152 12
153 88
154 340
155 81
156 40
158 303
159 152
186 616
187 225
188 43
189 5
190 61
191 138
200 291
201 68
216 107
217 60
218 229
219 47
244 42
245 120
246 340
247 135
262 179
263 61
276 131
277 224
278 91

$$$$

     RDKit          2D

 17 18  0  0  0  0  0  0  0  0999 V2000
   -6.4147   -1.3294    0.0000 C   0  0  0  0  0  0  0  0  0  0  0  0
   -5.5325   -0.1162    0.0000 C   0  0  0  0  0  0  0  0  0  0  0  0
    5.9048   -0.2125    0.0000 C   0  0  0  0  0  0  0  0  0  0  0  0
    5.9053    1.2883    0.0000 C   0  0  0  0  0  0  0  0  0  0  0  0
    4.6053   -0.9634    0.0000 C   0  0  0  0  0  0  0  0  0  0  0  0
    4.6063    2.0383    0.0000 C   0  0  0  0  0  0  0  0  0  0  0  0
    3.3063   -0.2134    0.0000 C   0  0  0  0  0  0  0  0  0  0  0  0
   -0.9169   -0.5171    0.0000 C   0  0  0  0  0  0  0  0  0  0  0  0
    0.5429   -0.2054    0.0000 C   0  0  0  0  0  0  0  0  0  0  0  0
    2.0077    2.0375    0.0000 C   0  0  0  0  0  0  0  0  0  0  0  0
   -0.6671    1.8904    0.0000 C   0  0  0  0  0  0  0  0  0  0  0  0
    3.3067    1.2875    0.0000 C   0  0  0  0  0  0  0  0  0  0  0  0
   -1.6669    0.7820    0.0000 C   0  0  0  0  0  0  0  0  0  0  0  0
   -3.1586    0.9394    0.0000 C   0  0  0  0  0  0  0  0  0  0  0  0
    0.7087    1.2875    0.0000 N   0  0  0  0  0  0  0  0  0  0  0  0
   -3.7681    2.3100    0.0000 O   0  0  0  0  0  0  0  0  0  0  0  0
   -4.0408   -0.2737    0.0000 O   0  0  0  0  0  0  0  0  0  0  0  0
  2  1  1  0
  4  3  2  0
  5  3  1  0
  6  4  1  0
  7  5  2  0
  9  8  1  0
 12  6  2  0
 12  7  1  0
 12 10  1  0
 13  8  1  0
 13 11  1  0
 14 13  1  0
 15  9  1  0
 15 10  1  0
 15 11  1  0
 16 14  2  0
 17  2  1  0
 17 14  1  0
M  END
>  <NAME>  (4919) 
N-BENZYL-3-ETHOXYCARBONYLPYRROLIDINE

>  <SYNONYMS>  (4919) 
ETHYL 1-BENZYLPYRROLIDINE-3-CARBOXYLATE

>  <SPECTRUM TYPE>  (4919) 
MS1

>  <INSTRUMENT TYPE>  (4919) 
EI-B

>  <INSTRUMENT>  (4919) 
JEOL JMS-D-3000

>  <ION MODE>  (4919) 
P

>  <INCHIKEY>  (4919) 
CYPXEPWPTXKUPL-UHFFFAOYSA-N

>  <FORMULA>  (4919) 
C14H19NO2

>  <EXACT MASS>  (4919) 
233.141578848

>  <MW>  (4919) 
233

>  <ID>  (4919) 
JP002378

>  <CONTRIBUTOR>  (4919) 
University of Tokyo Team, {Faculty of Engineering, University of Tokyo

>  <COMMENT>  (4919) 
SMILES=CCOC(=O)C(C2)CN(C2)Cc(c1)cccc1
InChI=InChI=1S/C14H19NO2/c1-2-17-14(16)13-8-9-15(11-13)10-12-6-4-3-5-7-12/h3-7,13H,2,8-11H2,1H3
computed SMILES=O=C(OCC)C1CN(CC=2C=CC=CC2)CC1
author=MASS SPECTROSCOPY SOC. OF JAPAN (MSSJ)
license=CC BY-NC-SA
exact mass=233.14158
accession=JP002378
date=2016.01.19 (Created 2008.10.21, modified 2011.05.06)
ionization energy=70 eV
ion type=[M]+*
computed spectral entropy=2.471042291552962
computed normalized entropy=0.7415638157884364
SPLASH=splash10-0006-9400000000-2688c8fccc692b1a9bc0
submitter=submitter = University of Tokyo Team (Faculty of Engineering, University of Tokyo)
MoNA Rating=3.75

>  <NUM PEAKS>  (4919) 
28

>  <MASS SPECTRAL PEAKS>  (4919) 
42 28.25
43 1.9
44 2.58
51 2.38
55 3.19
65 12.66
68 9.71
69 2.85
77 2.03
82 2.25
89 2.03
91 99.99
92 12.54
114 2.42
128 3.94
132 6.86
133 2.88
142 50.16
143 4.3
156 9.34
160 2.43
184 3.07
188 13.95
189 1.95
204 4.01
229 2.96
232 4.95
233 5.87

>  <PREDICTED SPECTRUM>  (4919) 
15 35
26 17
27 101
28 63
29 141
30 48
31 6
33 19
38 23
39 220
40 106
41 260
42 435
43 122
44 73
45 108
46 36
50 93
51 195
52 113
53 70
54 122
55 206
56 133
57 60
59 7
62 22
63 159
64 70
65 406
66 87
67 77
68 184
69 123
70 126
71 30
73 29
74 33
76 44
77 135
78 76
79 83
82 181
83 33
84 52
85 1
86 87
87 11
89 155
91 999
92 312
96 140
97 9
98 13
101 63
104 38
105 66
106 48
114 72
115 32
117 112
119 63
120 60
124 21
128 127
130 49
132 62
133 125
142 444
143 106
144 21
146 52
147 95
156 276
157 8
158 181
160 635
161 237
162 20
176 19
186 207
187 13
188 231
189 12
204 250
205 145
206 32
218 26
232 394
233 341
234 130
235 15

$$$$

     RDKit          2D

 16 16  0  0  0  0  0  0  0  0999 V2000
   -8.7683    4.2571    0.0000 C   0  0  0  0  0  0  0  0  0  0  0  0
   -6.1702    2.7571    0.0000 C   0  0  0  0  0  0  0  0  0  0  0  0
   -7.4692    5.0071    0.0000 C   0  0  0  0  0  0  0  0  0  0  0  0
    4.2221    2.7571    0.0000 C   0  0  0  0  0  0  0  0  0  0  0  0
    4.2226    4.2579    0.0000 C   0  0  0  0  0  0  0  0  0  0  0  0
    2.9226    2.0063    0.0000 C   0  0  0  0  0  0  0  0  0  0  0  0
    2.9236    5.0079    0.0000 C   0  0  0  0  0  0  0  0  0  0  0  0
    1.6236    2.7563    0.0000 C   0  0  0  0  0  0  0  0  0  0  0  0
   -4.8712    5.0071    0.0000 C   0  0  0  0  0  0  0  0  0  0  0  0
    0.3250    5.0071    0.0000 C   0  0  0  0  0  0  0  0  0  0  0  0
   -2.2731    5.0071    0.0000 C   0  0  0  0  0  0  0  0  0  0  0  0
   -6.1702    4.2571    0.0000 C   0  0  0  0  0  0  0  0  0  0  0  0
    1.6240    4.2571    0.0000 C   0  0  0  0  0  0  0  0  0  0  0  0
   -3.5721    4.2571    0.0000 C   0  0  0  0  0  0  0  0  0  0  0  0
   -3.5721    2.7571    0.0000 O   0  0  0  0  0  0  0  0  0  0  0  0
   -0.9740    4.2571    0.0000 O   0  0  0  0  0  0  0  0  0  0  0  0
  3  1  2  0
  5  4  2  0
  6  4  1  0
  7  5  1  0
  8  6  2  0
 12  2  2  0
 12  3  1  0
 12  9  1  0
 13  7  2  0
 13  8  1  0
 13 10  1  0
 14  9  1  0
 14 11  1  0
 15 14  1  0
 16 10  1  0
 16 11  1  0
M  END
>  <NAME>  (4920) 
1-BENZYLOXY-4-METHYLENE-5-HEXEN-2-OL

>  <SYNONYMS>  (4920) 


>  <SPECTRUM TYPE>  (4920) 
MS1

>  <INSTRUMENT TYPE>  (4920) 
EI-B

>  <INSTRUMENT>  (4920) 
JEOL JMS-D-3000

>  <ION MODE>  (4920) 
P

>  <INCHIKEY>  (4920) 
JWRUCASEZDOQPK-UHFFFAOYSA-N

>  <FORMULA>  (4920) 
C14H18O2

>  <EXACT MASS>  (4920) 
218.130679816

>  <MW>  (4920) 
218

>  <ID>  (4920) 
JP002377

>  <CONTRIBUTOR>  (4920) 
University of Tokyo Team, {Faculty of Engineering, University of Tokyo

>  <COMMENT>  (4920) 
SMILES=C=CC(=C)CC(O)COCc(c1)cccc1
InChI=InChI=1S/C14H18O2/c1-3-12(2)9-14(15)11-16-10-13-7-5-4-6-8-13/h3-8,14-15H,1-2,9-11H2
computed SMILES=OC(COCC=1C=CC=CC1)CC(=C)C=C
accession=JP002377
date=2016.01.19 (Created 2008.10.21, modified 2011.05.06)
author=MASS SPECTROSCOPY SOC. OF JAPAN (MSSJ)
license=CC BY-NC-SA
exact mass=218.13068
ionization energy=70 eV
ion type=[M]+*
computed spectral entropy=2.5783328858711316
computed normalized entropy=0.750827749883156
SPLASH=splash10-0006-9100000000-b5dfe3567eac804c3cf2
submitter=submitter = University of Tokyo Team (Faculty of Engineering, University of Tokyo)
MoNA Rating=3.75

>  <NUM PEAKS>  (4920) 
31

>  <MASS SPECTRAL PEAKS>  (4920) 
41 22.6
43 5.95
51 3.31
53 4.34
55 1.71
63 1.88
65 10.62
67 5.95
68 6.99
69 10.85
77 3.45
79 7.24
81 6.83
83 1.87
89 1.86
91 99.99
92 17.2
94 2.57
95 2.31
97 2.8
107 6.49
109 5.64
112 2.06
113 2.62
114 2.85
126 6.33
127 5.42
143 4.01
169 1.72
187 2.88
218 0.38

>  <PREDICTED SPECTRUM>  (4920) 
15 3
16 5
17 14
18 13
25 7
26 48
27 162
28 55
29 125
30 21
31 108
32 3
33 4
36 9
37 23
38 60
39 206
40 80
41 267
42 111
43 183
44 62
45 138
46 7
47 0
49 24
50 108
51 193
52 102
53 122
54 71
55 150
56 64
57 87
58 6
59 33
60 26
61 21
62 66
63 148
64 74
65 310
66 115
67 118
68 83
69 164
70 72
71 75
73 30
74 56
75 41
76 64
77 266
78 144
79 281
80 77
81 69
82 3
83 101
84 111
85 129
89 133
90 94
91 999
92 423
93 169
94 109
95 99
96 50
97 118
98 39
99 53
100 11
102 13
103 60
104 45
105 170
106 128
107 384
108 227
109 86
110 31
112 54
113 6
117 18
119 35
121 6
127 69
128 36
129 17
134 65
143 11
200 35

$$$$

     RDKit          2D

 16 17  0  0  0  0  0  0  0  0999 V2000
   -7.7945   -3.7503    0.0000 C   0  0  0  0  0  0  0  0  0  0  0  0
    3.8971   -1.4998    0.0000 C   0  0  0  0  0  0  0  0  0  0  0  0
    2.5974   -0.7492    0.0000 C   0  0  0  0  0  0  0  0  0  0  0  0
    3.8978   -3.0007    0.0000 C   0  0  0  0  0  0  0  0  0  0  0  0
    1.2985   -1.4994    0.0000 C   0  0  0  0  0  0  0  0  0  0  0  0
    2.5989   -3.7509    0.0000 C   0  0  0  0  0  0  0  0  0  0  0  0
   -6.4959   -1.4994    0.0000 C   0  0  0  0  0  0  0  0  0  0  0  0
   -5.1969   -0.7494    0.0000 C   0  0  0  0  0  0  0  0  0  0  0  0
   -5.1959   -3.7511    0.0000 C   0  0  0  0  0  0  0  0  0  0  0  0
    0.0003   -3.7505    0.0000 C   0  0  0  0  0  0  0  0  0  0  0  0
   -2.5977   -3.7509    0.0000 C   0  0  0  0  0  0  0  0  0  0  0  0
   -6.4955   -3.0003    0.0000 C   0  0  0  0  0  0  0  0  0  0  0  0
    1.2992   -3.0003    0.0000 C   0  0  0  0  0  0  0  0  0  0  0  0
   -3.8969   -3.0011    0.0000 C   0  0  0  0  0  0  0  0  0  0  0  0
   -1.2988   -3.0007    0.0000 O   0  0  0  0  0  0  0  0  0  0  0  0
   -3.8974   -1.5003    0.0000 O   0  0  0  0  0  0  0  0  0  0  0  0
  3  2  2  0
  4  2  1  0
  5  3  1  0
  6  4  2  0
  8  7  1  0
 12  1  2  0
 12  7  1  0
 12  9  1  0
 13  5  2  0
 13  6  1  0
 13 10  1  0
 14  9  1  0
 14 11  1  0
 15 10  1  0
 15 11  1  0
 16  8  1  0
 16 14  1  0
M  END
>  <NAME>  (4921) 
2-(BENZYLOXYMETHYL)-4-METHYLENE-4H-TETRAHYDROPYRAN

>  <SYNONYMS>  (4921) 


>  <SPECTRUM TYPE>  (4921) 
MS1

>  <INSTRUMENT TYPE>  (4921) 
EI-B

>  <INSTRUMENT>  (4921) 
JEOL JMS-D-3000

>  <ION MODE>  (4921) 
P

>  <INCHIKEY>  (4921) 
IDIMKXOKGIWVMZ-UHFFFAOYSA-N

>  <FORMULA>  (4921) 
C14H18O2

>  <EXACT MASS>  (4921) 
218.130679816

>  <MW>  (4921) 
218

>  <ID>  (4921) 
JP002376

>  <CONTRIBUTOR>  (4921) 
University of Tokyo Team, {Faculty of Engineering, University of Tokyo

>  <COMMENT>  (4921) 
SMILES=C=C(C2)CC(OC2)COCc(c1)cccc1
InChI=InChI=1S/C14H18O2/c1-12-7-8-16-14(9-12)11-15-10-13-5-3-2-4-6-13/h2-6,14H,1,7-11H2
computed SMILES=O(CC=1C=CC=CC1)CC2OCCC(=C)C2
accession=JP002376
date=2016.01.19 (Created 2008.10.21, modified 2011.05.06)
author=MASS SPECTROSCOPY SOC. OF JAPAN (MSSJ)
license=CC BY-NC-SA
exact mass=218.13068
ionization energy=70 eV
ion type=[M]+*
computed spectral entropy=2.4813490344490483
computed normalized entropy=0.7368966552781362
SPLASH=splash10-0005-9000000000-c5733bd707eff5fd141c
submitter=submitter = University of Tokyo Team (Faculty of Engineering, University of Tokyo)
MoNA Rating=3.75

>  <NUM PEAKS>  (4921) 
29

>  <MASS SPECTRAL PEAKS>  (4921) 
41 29.26
42 1.87
43 6.98
51 2.52
53 7.21
55 1.73
63 1.65
65 11.27
67 11.51
68 2.8
69 21.78
70 1.46
77 2.32
79 7.11
81 4.1
83 2.05
84 2.39
89 1.96
91 69.16
92 7.54
95 1.58
96 29.82
97 99.99
98 7.67
107 7.51
112 3.49
127 2.57
187 2.3
218 1.41

>  <PREDICTED SPECTRUM>  (4921) 
25 8
26 55
27 156
28 41
29 150
30 12
31 65
37 15
38 51
39 209
40 79
41 280
42 95
43 163
44 3
45 139
46 8
50 95
51 165
52 100
53 132
54 91
55 178
56 133
57 163
58 48
59 65
60 14
62 27
63 102
64 75
65 253
66 88
67 156
68 104
69 183
70 103
71 164
72 14
73 31
74 35
76 39
77 239
78 154
79 268
80 82
81 143
82 74
83 129
84 149
85 156
87 52
89 67
90 66
91 999
92 457
93 185
94 107
95 112
96 28
97 127
99 94
100 50
101 13
102 51
103 72
104 99
105 125
106 21
107 310
108 117
109 75
110 23
111 23
112 118
113 54
114 6
115 120
116 86
117 170
118 97
119 54
126 13
127 196
128 106
129 101
130 74
131 102
132 90
133 23
134 2
141 13
142 34
144 77
145 77
146 42
158 10
159 17
161 6
162 26
172 3
203 9
217 45
218 186
219 28

$$$$

     RDKit          2D

 15 16  0  0  0  0  0  0  0  0999 V2000
    1.8127   -2.1596    0.0000 C   0  0  0  0  0  0  0  0  0  0  0  0
    5.6694   -3.9372    0.0000 C   0  0  0  0  0  0  0  0  0  0  0  0
    6.1833   -2.5271    0.0000 C   0  0  0  0  0  0  0  0  0  0  0  0
    4.1914   -4.1981    0.0000 C   0  0  0  0  0  0  0  0  0  0  0  0
   -1.3000    0.7500    0.0000 C   0  0  0  0  0  0  0  0  0  0  0  0
    0.0000    1.5000    0.0000 C   0  0  0  0  0  0  0  0  0  0  0  0
    5.2193   -1.3779    0.0000 C   0  0  0  0  0  0  0  0  0  0  0  0
    3.2274   -3.0490    0.0000 C   0  0  0  0  0  0  0  0  0  0  0  0
   -1.3000   -0.7500    0.0000 C   0  0  0  0  0  0  0  0  0  0  0  0
    1.3000    0.7500    0.0000 C   0  0  0  0  0  0  0  0  0  0  0  0
    2.7772   -0.4897    0.0000 C   0  0  0  0  0  0  0  0  0  0  0  0
    3.7413   -1.6389    0.0000 C   0  0  0  0  0  0  0  0  0  0  0  0
    0.0000   -1.5000    0.0000 C   0  0  0  0  0  0  0  0  0  0  0  0
    1.3000   -0.7500    0.0000 C   0  0  0  0  0  0  0  0  0  0  0  0
   -0.0000   -3.0000    0.0000 O   0  0  0  0  0  0  0  0  0  0  0  0
  3  2  2  0
  4  2  1  0
  6  5  1  0
  7  3  1  0
  8  4  2  0
  9  5  1  0
 10  6  1  0
 12  7  2  0
 12  8  1  0
 12 11  1  0
 13  9  1  0
 14  1  1  0
 14 10  1  0
 14 11  1  0
 14 13  1  0
 15 13  2  0
M  END
>  <NAME>  (4922) 
2-BENZYL-2-METHYLCYCLOHEXANONE

>  <SYNONYMS>  (4922) 


>  <SPECTRUM TYPE>  (4922) 
MS1

>  <INSTRUMENT TYPE>  (4922) 
EI-B

>  <INSTRUMENT>  (4922) 
JEOL JMS-D-3000

>  <ION MODE>  (4922) 
P

>  <INCHIKEY>  (4922) 
JHMRHFGOPQLVBP-UHFFFAOYSA-N

>  <FORMULA>  (4922) 
C14H18O

>  <EXACT MASS>  (4922) 
202.135765196

>  <MW>  (4922) 
202

>  <ID>  (4922) 
JP002375

>  <CONTRIBUTOR>  (4922) 
University of Tokyo Team, {Faculty of Engineering, University of Tokyo

>  <COMMENT>  (4922) 
SMILES=c(c2)ccc(c2)CC(C)(C1)C(=O)CCC1
InChI=InChI=1S/C14H18O/c1-14(10-6-5-9-13(14)15)11-12-7-3-2-4-8-12/h2-4,7-8H,5-6,9-11H2,1H3
computed SMILES=O=C1CCCCC1(C)CC=2C=CC=CC2
accession=JP002375
date=2016.01.19 (Created 2008.10.21, modified 2011.05.06)
author=MASS SPECTROSCOPY SOC. OF JAPAN (MSSJ)
license=CC BY-NC-SA
exact mass=202.13577
ionization energy=70 eV
ion type=[M]+*
computed spectral entropy=2.391245672210589
computed normalized entropy=0.7626375644587131
SPLASH=splash10-0006-9310000000-e9984670fb1e5b012086
submitter=submitter = University of Tokyo Team (Faculty of Engineering, University of Tokyo)
MoNA Rating=3.75

>  <NUM PEAKS>  (4922) 
23

>  <MASS SPECTRAL PEAKS>  (4922) 
44 3.27
51 3.4
55 14.79
65 7.55
67 3.71
77 4.09
83 7.11
91 99.99
92 13.91
105 3.65
111 3.33
115 3.84
117 8.62
118 2.95
129 4.03
131 4.59
143 6.54
145 3.71
158 4.53
159 9.82
187 5.41
202 23.36
203 4.53

>  <PREDICTED SPECTRUM>  (4922) 
26 13
27 134
28 41
29 87
38 29
39 289
40 132
41 459
42 172
43 252
44 80
50 129
51 242
52 142
53 227
54 114
55 395
56 72
57 121
62 54
63 212
64 114
65 402
66 103
67 232
68 80
69 219
70 62
71 86
74 7
76 18
77 185
78 175
79 207
80 23
81 78
83 246
84 75
85 58
89 138
90 103
91 999
92 520
93 179
94 3
97 0
99 11
102 83
103 100
104 210
105 122
106 35
110 89
111 580
112 59
115 389
116 222
117 349
118 199
119 60
125 20
127 53
128 224
129 339
130 136
131 272
132 136
133 121
141 55
142 82
143 84
144 93
145 319
146 276
147 59
155 29
156 14
158 27
159 274
160 120
173 191
174 140
184 116
185 45
187 92
200 43
201 67
202 597
203 217
204 33

$$$$

     RDKit          2D

 15 16  0  0  1  0  0  0  0  0999 V2000
   -5.8651    3.6678    0.0000 C   0  0  0  0  0  0  0  0  0  0  0  0
    3.2429    1.4498    0.0000 C   0  0  0  0  0  0  0  0  0  0  0  0
    3.2434    2.9507    0.0000 C   0  0  0  0  0  0  0  0  0  0  0  0
    1.9434    0.6990    0.0000 C   0  0  0  0  0  0  0  0  0  0  0  0
   -3.2872    0.7155    0.0000 C   0  0  0  0  0  0  0  0  0  0  0  0
   -4.5632    1.4406    0.0000 C   0  0  0  0  0  0  0  0  0  0  0  0
    1.9444    3.7007    0.0000 C   0  0  0  0  0  0  0  0  0  0  0  0
    0.6444    1.4490    0.0000 C   0  0  0  0  0  0  0  0  0  0  0  0
   -1.9829    1.4301    0.0000 C   0  0  0  0  0  0  0  0  0  0  0  0
   -0.6542    3.6998    0.0000 C   0  0  0  0  0  0  0  0  0  0  0  0
   -4.5643    2.9209    0.0000 C   0  0  0  0  0  0  0  0  0  0  0  0
    0.6449    2.9498    0.0000 C   0  0  0  0  0  0  0  0  0  0  0  0
   -1.9532    2.9498    0.0000 C   0  0  0  0  0  0  0  0  0  0  0  0
   -3.2693    3.6757    0.0000 C   0  0  0  0  0  0  0  0  0  0  0  0
   -3.2870    5.1756    0.0000 O   0  0  0  0  0  0  0  0  0  0  0  0
  3  2  2  0
  4  2  1  0
  6  5  1  0
  7  3  1  0
  8  4  2  0
  9  5  1  0
 11  1  1  1
 11  6  1  0
 12  7  2  0
 12  8  1  0
 12 10  1  0
 13  9  1  0
 13 10  1  6
 14 11  1  0
 14 13  1  0
 15 14  2  0
M  END
>  <NAME>  (4923) 
TRANS-2-BENZYL-6-METHYLCYCLOHEXANONE

>  <SYNONYMS>  (4923) 


>  <SPECTRUM TYPE>  (4923) 
MS1

>  <INSTRUMENT TYPE>  (4923) 
EI-B

>  <INSTRUMENT>  (4923) 
JEOL JMS-D-3000

>  <ION MODE>  (4923) 
P

>  <INCHIKEY>  (4923) 
RADVUEMOCLDJMY-YPMHNXCESA-N

>  <FORMULA>  (4923) 
C14H18O

>  <EXACT MASS>  (4923) 
202.135765196

>  <MW>  (4923) 
202

>  <ID>  (4923) 
JP002374

>  <CONTRIBUTOR>  (4923) 
University of Tokyo Team, {Faculty of Engineering, University of Tokyo

>  <COMMENT>  (4923) 
SMILES=CC(C2)C(=O)C(CC2)Cc(c1)cccc1
InChI=InChI=1S/C14H18O/c1-11-6-5-9-13(14(11)15)10-12-7-3-2-4-8-12/h2-4,7-8,11,13H,5-6,9-10H2,1H3/t11-,13+/m1/s1
computed SMILES=O=C1C(C)CCCC1CC=2C=CC=CC2
accession=JP002374
date=2016.01.19 (Created 2008.10.21, modified 2011.05.06)
author=MASS SPECTROSCOPY SOC. OF JAPAN (MSSJ)
license=CC BY-NC-SA
exact mass=202.13577
ionization energy=70 eV
ion type=[M]+*
computed spectral entropy=2.559598523880235
computed normalized entropy=0.8053981022719179
SPLASH=splash10-0006-9410000000-12e4fff609b10191fdcc
submitter=submitter = University of Tokyo Team (Faculty of Engineering, University of Tokyo)
MoNA Rating=3.75

>  <NUM PEAKS>  (4923) 
24

>  <MASS SPECTRAL PEAKS>  (4923) 
43 5.81
55 17.25
57 6.09
65 9.1
67 3.92
77 4.09
83 6.8
91 99.99
92 15.1
104 5.49
105 3.15
111 8.13
115 5.65
117 12.75
118 3.98
129 4.99
131 6.04
143 5.99
145 6.8
158 3.28
159 13.25
187 5.6
202 30.4
203 4.75

>  <PREDICTED SPECTRUM>  (4923) 
41 94
42 62
43 106
51 88
52 7
53 57
55 234
56 99
57 181
63 38
65 263
67 71
68 5
69 104
77 92
78 91
79 36
81 4
83 148
84 26
85 53
91 999
92 455
93 11
102 34
103 80
104 287
105 147
111 558
115 346
116 21
117 493
118 21
128 70
129 197
131 355
132 58
144 0
145 492
146 210
159 653
160 32
187 315
188 8
202 890
203 237
204 2

$$$$

     RDKit          2D

 16 17  0  0  0  0  0  0  0  0999 V2000
   -6.1260   -1.1442    0.0000 C   0  0  0  0  0  0  0  0  0  0  0  0
    5.3113   -1.2405    0.0000 C   0  0  0  0  0  0  0  0  0  0  0  0
    5.3118    0.2604    0.0000 C   0  0  0  0  0  0  0  0  0  0  0  0
    4.0118   -1.9913    0.0000 C   0  0  0  0  0  0  0  0  0  0  0  0
    4.0128    1.0104    0.0000 C   0  0  0  0  0  0  0  0  0  0  0  0
    2.7128   -1.2413    0.0000 C   0  0  0  0  0  0  0  0  0  0  0  0
   -1.5103   -1.5450    0.0000 C   0  0  0  0  0  0  0  0  0  0  0  0
   -0.0506   -1.2334    0.0000 C   0  0  0  0  0  0  0  0  0  0  0  0
    1.4142    1.0095    0.0000 C   0  0  0  0  0  0  0  0  0  0  0  0
   -1.2606    0.8624    0.0000 C   0  0  0  0  0  0  0  0  0  0  0  0
    2.7133    0.2595    0.0000 C   0  0  0  0  0  0  0  0  0  0  0  0
   -2.2603   -0.2460    0.0000 C   0  0  0  0  0  0  0  0  0  0  0  0
   -3.7521   -0.0885    0.0000 C   0  0  0  0  0  0  0  0  0  0  0  0
    0.1152    0.2595    0.0000 N   0  0  0  0  0  0  0  0  0  0  0  0
   -4.3616    1.2821    0.0000 O   0  0  0  0  0  0  0  0  0  0  0  0
   -4.6343   -1.3016    0.0000 O   0  0  0  0  0  0  0  0  0  0  0  0
  3  2  2  0
  4  2  1  0
  5  3  1  0
  6  4  2  0
  8  7  1  0
 11  5  2  0
 11  6  1  0
 11  9  1  0
 12  7  1  0
 12 10  1  0
 13 12  1  0
 14  8  1  0
 14  9  1  0
 14 10  1  0
 15 13  2  0
 16  1  1  0
 16 13  1  0
M  END
>  <NAME>  (4924) 
N-BENZYL-3-METHOXYCARBONYLPYRROLIDINE

>  <SYNONYMS>  (4924) 
METHYL 1-BENZYLPYRROLIDINE-3-CARBOXYLATE

>  <SPECTRUM TYPE>  (4924) 
MS1

>  <INSTRUMENT TYPE>  (4924) 
EI-B

>  <INSTRUMENT>  (4924) 
JEOL JMS-D-3000

>  <ION MODE>  (4924) 
P

>  <INCHIKEY>  (4924) 
GDWFCUOFVSNTTG-UHFFFAOYSA-N

>  <FORMULA>  (4924) 
C13H17NO2

>  <EXACT MASS>  (4924) 
219.125928784

>  <MW>  (4924) 
219

>  <ID>  (4924) 
JP002372

>  <CONTRIBUTOR>  (4924) 
University of Tokyo Team, {Faculty of Engineering, University of Tokyo

>  <COMMENT>  (4924) 
SMILES=COC(=O)C(C2)CN(C2)Cc(c1)cccc1
InChI=InChI=1S/C13H17NO2/c1-16-13(15)12-7-8-14(10-12)9-11-5-3-2-4-6-11/h2-6,12H,7-10H2,1H3
computed SMILES=O=C(OC)C1CN(CC=2C=CC=CC2)CC1
date=2016.01.19 (Created 2008.10.21, modified 2011.05.06)
author=MASS SPECTROSCOPY SOC. OF JAPAN (MSSJ)
accession=JP002372
license=CC BY-NC-SA
exact mass=219.12593
ionization energy=70 eV
ion type=[M]+*
computed spectral entropy=2.461075998213803
computed normalized entropy=0.784908479725741
SPLASH=splash10-0006-9410000000-d58b85061e8deb3b8005
submitter=submitter = University of Tokyo Team (Faculty of Engineering, University of Tokyo)
MoNA Rating=3.75

>  <NUM PEAKS>  (4924) 
23

>  <MASS SPECTRAL PEAKS>  (4924) 
42 28.13
44 5.06
51 3.18
55 3.63
59 2.76
65 13.04
68 6.15
73 9.69
77 3.06
91 99.99
92 12.57
128 53.55
129 4.09
130 5.88
132 6.55
133 2.61
142 17.74
188 10.85
204 3.83
215 5.25
218 11.61
219 8.4
220 2.62

>  <PREDICTED SPECTRUM>  (4924) 
15 50
26 11
27 86
28 58
29 73
30 26
31 11
33 15
39 178
40 88
41 219
42 426
43 146
44 56
45 120
49 7
50 57
51 162
52 59
53 78
54 99
55 158
56 140
57 52
58 22
59 153
62 46
63 123
65 326
66 87
67 40
68 120
69 84
70 77
71 68
73 0
74 93
75 11
76 8
77 134
78 101
79 50
80 25
81 2
82 197
83 26
84 12
87 77
89 183
90 51
91 999
92 311
93 10
94 10
96 47
98 21
100 141
101 52
103 33
104 150
105 145
106 70
107 49
110 13
114 4
115 49
116 30
117 72
118 127
119 120
120 118
126 20
128 292
129 113
130 82
131 107
132 257
133 219
134 74
141 25
142 241
143 111
144 40
146 103
147 18
158 150
159 115
160 421
161 120
162 62
172 48
186 10
188 124
204 233
205 91
217 1
218 404
219 401
220 152
221 6

$$$$

     RDKit          2D

 13 13  0  0  0  0  0  0  0  0999 V2000
   -5.5207    3.1321    0.0000 C   0  0  0  0  0  0  0  0  0  0  0  0
   -2.9226    4.6321    0.0000 C   0  0  0  0  0  0  0  0  0  0  0  0
   -4.2216    2.3821    0.0000 C   0  0  0  0  0  0  0  0  0  0  0  0
    3.5726    0.8821    0.0000 C   0  0  0  0  0  0  0  0  0  0  0  0
    3.5731    2.3829    0.0000 C   0  0  0  0  0  0  0  0  0  0  0  0
    2.2731    0.1313    0.0000 C   0  0  0  0  0  0  0  0  0  0  0  0
    2.2740    3.1329    0.0000 C   0  0  0  0  0  0  0  0  0  0  0  0
    0.9740    0.8813    0.0000 C   0  0  0  0  0  0  0  0  0  0  0  0
   -1.6236    2.3821    0.0000 C   0  0  0  0  0  0  0  0  0  0  0  0
   -2.9226    3.1321    0.0000 C   0  0  0  0  0  0  0  0  0  0  0  0
    0.9745    2.3821    0.0000 C   0  0  0  0  0  0  0  0  0  0  0  0
   -0.3245    3.1321    0.0000 C   0  0  0  0  0  0  0  0  0  0  0  0
   -0.3245    4.6321    0.0000 O   0  0  0  0  0  0  0  0  0  0  0  0
  3  1  2  0
  5  4  2  0
  6  4  1  0
  7  5  1  0
  8  6  2  0
 10  2  2  0
 10  3  1  0
 10  9  1  0
 11  7  2  0
 11  8  1  0
 12  9  1  0
 12 11  1  0
 13 12  1  0
M  END
>  <NAME>  (4925) 
3-METHYLENE-1-PHENYL-4-PENTEN-1-OL

>  <SYNONYMS>  (4925) 


>  <SPECTRUM TYPE>  (4925) 
MS1

>  <INSTRUMENT TYPE>  (4925) 
EI-B

>  <INSTRUMENT>  (4925) 
JEOL JMS-D-3000

>  <ION MODE>  (4925) 
P

>  <INCHIKEY>  (4925) 
DRGKXHCIROMRKK-UHFFFAOYSA-N

>  <FORMULA>  (4925) 
C12H14O

>  <EXACT MASS>  (4925) 
174.104465068

>  <MW>  (4925) 
174

>  <ID>  (4925) 
JP002371

>  <CONTRIBUTOR>  (4925) 
University of Tokyo Team, {Faculty of Engineering, University of Tokyo

>  <COMMENT>  (4925) 
SMILES=C=CC(=C)CC(O)c(c1)cccc1
InChI=InChI=1S/C12H14O/c1-3-10(2)9-12(13)11-7-5-4-6-8-11/h3-8,12-13H,1-2,9H2
computed SMILES=OC(C=1C=CC=CC1)CC(=C)C=C
accession=JP002371
date=2016.01.19 (Created 2008.10.21, modified 2011.05.06)
author=MASS SPECTROSCOPY SOC. OF JAPAN (MSSJ)
license=CC BY-NC-SA
exact mass=174.10447
ionization energy=70 eV
ion type=[M]+*
computed spectral entropy=2.814037094259714
computed normalized entropy=0.7980003957666857
SPLASH=splash10-0a6r-9800000000-13dd9b0b3d389de1239c
submitter=submitter = University of Tokyo Team (Faculty of Engineering, University of Tokyo)
MoNA Rating=3.75

>  <NUM PEAKS>  (4925) 
34

>  <MASS SPECTRAL PEAKS>  (4925) 
41 11.62
42 3.51
50 7.02
51 18.41
52 5.28
53 15.56
63 2.79
65 3.74
66 1.87
67 24.26
68 42.54
69 2.46
74 2.33
75 1.64
76 2.65
77 50.62
78 8.92
79 47.01
80 3.28
91 3.64
105 55.18
106 32.56
107 99.99
108 7.87
115 5.18
127 1.73
128 5.28
129 3.77
141 6.82
153 2.03
154 1.8
155 6.1
156 11.52
174 1.7

>  <PREDICTED SPECTRUM>  (4925) 
19 4
26 55
27 159
28 49
29 101
31 70
33 7
34 0
36 0
37 43
38 84
39 291
40 134
41 246
42 44
43 25
45 39
46 5
47 23
49 48
50 209
51 414
52 201
53 231
54 62
55 100
56 28
57 50
61 64
62 92
63 171
64 57
65 120
66 62
67 203
68 594
69 272
70 120
72 15
73 1
74 105
75 155
76 132
77 783
78 350
79 823
80 220
81 19
89 77
90 9
91 229
92 59
95 61
99 23
102 58
103 1
105 732
106 560
107 999
108 384
109 6
115 204
116 18
120 12
121 76
123 35
124 55
126 118
127 115
128 242
129 0
139 40
141 181
142 68
153 25
154 99
155 148
156 201
157 36
159 10
160 1
174 162
175 33

$$$$

     RDKit          2D

 12 11  0  0  0  0  0  0  0  0999 V2000
    2.5981    4.5000    0.0000 C   0  0  0  0  0  0  0  0  0  0  0  0
   -7.7942    4.5000    0.0000 C   0  0  0  0  0  0  0  0  0  0  0  0
   -5.1962    3.0000    0.0000 C   0  0  0  0  0  0  0  0  0  0  0  0
   -1.2990    6.7500    0.0000 C   0  0  0  0  0  0  0  0  0  0  0  0
    1.2990    5.2500    0.0000 C   0  0  0  0  0  0  0  0  0  0  0  0
   -6.4952    5.2500    0.0000 C   0  0  0  0  0  0  0  0  0  0  0  0
    0.0000    4.5000    0.0000 C   0  0  0  0  0  0  0  0  0  0  0  0
   -3.8971    5.2500    0.0000 C   0  0  0  0  0  0  0  0  0  0  0  0
   -5.1962    4.5000    0.0000 C   0  0  0  0  0  0  0  0  0  0  0  0
   -1.2990    5.2500    0.0000 C   0  0  0  0  0  0  0  0  0  0  0  0
   -2.5981    4.5000    0.0000 C   0  0  0  0  0  0  0  0  0  0  0  0
   -2.5981    3.0000    0.0000 O   0  0  0  0  0  0  0  0  0  0  0  0
  5  1  1  0
  6  2  2  0
  7  5  1  0
  9  3  2  0
  9  6  1  0
  9  8  1  0
 10  4  1  0
 10  7  1  0
 11  8  1  0
 11 10  1  0
 12 11  1  0
M  END
>  <NAME>  (4926) 
6-METHYL-3-METH YLENE-1-NONEN-5-OL

>  <SYNONYMS>  (4926) 


>  <SPECTRUM TYPE>  (4926) 
MS1

>  <INSTRUMENT TYPE>  (4926) 
EI-B

>  <INSTRUMENT>  (4926) 
JEOL JMS-D-3000

>  <ION MODE>  (4926) 
P

>  <INCHIKEY>  (4926) 
ILEIVICQNLSORA-UHFFFAOYSA-N

>  <FORMULA>  (4926) 
C11H20O

>  <EXACT MASS>  (4926) 
168.15141526

>  <MW>  (4926) 
168

>  <ID>  (4926) 
JP002370

>  <CONTRIBUTOR>  (4926) 
University of Tokyo Team, {Faculty of Engineering, University of Tokyo

>  <COMMENT>  (4926) 
SMILES=CCCC(C)C(O)CC(=C)C=C
InChI=InChI=1S/C11H20O/c1-5-7-10(4)11(12)8-9(3)6-2/h6,10-12H,2-3,5,7-8H2,1,4H3
computed SMILES=OC(CC(=C)C=C)C(C)CCC
accession=JP002370
date=2016.01.19 (Created 2008.10.21, modified 2011.05.06)
author=MASS SPECTROSCOPY SOC. OF JAPAN (MSSJ)
license=CC BY-NC-SA
exact mass=168.15142
ionization energy=70 eV
ion type=[M]+*
computed spectral entropy=2.6829448439131256
computed normalized entropy=0.7375618682568699
SPLASH=splash10-014i-9000000000-dc7b4655a4fce3823d17
submitter=submitter = University of Tokyo Team (Faculty of Engineering, University of Tokyo)
MoNA Rating=3.75

>  <NUM PEAKS>  (4926) 
38

>  <MASS SPECTRAL PEAKS>  (4926) 
41 33.35
42 3.88
43 15.22
44 7.81
45 3.06
51 1.41
52 1.14
53 9.79
54 1.08
55 42.62
56 8.94
57 9.59
58 1.55
59 1.12
65 1.94
66 1.64
67 22.96
68 99.99
69 11.55
70 1.43
71 5.35
72 1.93
77 1.19
79 3.65
80 1.18
81 1.74
82 2.19
83 27.24
84 2.36
93 2.29
94 1.09
97 1.47
99 17.27
100 1.82
101 3.27
107 0.85
150 0.65
168 0.69

>  <PREDICTED SPECTRUM>  (4926) 
19 0
26 45
27 360
28 55
29 318
31 53
37 2
38 63
39 437
40 197
41 821
42 261
43 778
44 125
45 216
50 30
51 142
52 123
53 404
54 277
55 999
56 262
57 528
58 52
65 111
66 178
67 545
68 423
69 550
70 402
71 307
72 155
73 97
77 219
78 83
79 407
80 181
81 325
82 333
83 501
84 46
85 113
93 359
94 129
95 129
96 191
97 394
98 127
99 87
107 6
113 72
153 1

$$$$

     RDKit          2D

 12 11  0  0  0  0  0  0  0  0999 V2000
    0.0000    0.0000    0.0000 C   0  0  0  0  0  0  0  0  0  0  0  0
    1.2990    2.2500    0.0000 C   0  0  0  0  0  0  0  0  0  0  0  0
   -2.5981    0.0000    0.0000 C   0  0  0  0  0  0  0  0  0  0  0  0
   -3.8971    2.2500    0.0000 C   0  0  0  0  0  0  0  0  0  0  0  0
   -1.8481    5.7990    0.0000 C   0  0  0  0  0  0  0  0  0  0  0  0
   -3.8971    5.2500    0.0000 C   0  0  0  0  0  0  0  0  0  0  0  0
   -3.3481    3.2010    0.0000 C   0  0  0  0  0  0  0  0  0  0  0  0
    0.0000    1.5000    0.0000 C   0  0  0  0  0  0  0  0  0  0  0  0
   -2.5981    1.5000    0.0000 C   0  0  0  0  0  0  0  0  0  0  0  0
   -1.2990    2.2500    0.0000 C   0  0  0  0  0  0  0  0  0  0  0  0
   -1.2990    3.7500    0.0000 O   0  0  0  0  0  0  0  0  0  0  0  0
   -2.5981    4.5000    0.0000 Si  0  0  0  0  0  4  0  0  0  0  0  0
  8  1  1  0
  8  2  1  0
  9  3  1  0
  9  4  1  0
 10  8  1  0
 10  9  2  0
 11 10  1  0
 12  5  1  0
 12  6  1  0
 12  7  1  0
 12 11  1  0
M  END
>  <NAME>  (4927) 
2,4-DIMETHYL-3-TRIMETHYLSILOXY-2-PENTENE

>  <SYNONYMS>  (4927) 


>  <SPECTRUM TYPE>  (4927) 
MS1

>  <INSTRUMENT TYPE>  (4927) 
EI-B

>  <INSTRUMENT>  (4927) 
JEOL JMS-D-3000

>  <ION MODE>  (4927) 
P

>  <INCHIKEY>  (4927) 
NTNHDIJDGWDRNM-UHFFFAOYSA-N

>  <FORMULA>  (4927) 
C10H22OSi

>  <EXACT MASS>  (4927) 
186.14399185399998

>  <MW>  (4927) 
186

>  <ID>  (4927) 
JP002368

>  <CONTRIBUTOR>  (4927) 
University of Tokyo Team, {Faculty of Engineering, University of Tokyo

>  <COMMENT>  (4927) 
SMILES=CC(C)C(=C(C)C)O[Si](C)(C)C
InChI=InChI=1S/C10H22OSi/c1-8(2)10(9(3)4)11-12(5,6)7/h8H,1-7H3
computed SMILES=O(C(=C(C)C)C(C)C)[Si](C)(C)C
accession=JP002368
date=2016.01.19 (Created 2008.10.21, modified 2011.05.06)
author=MASS SPECTROSCOPY SOC. OF JAPAN (MSSJ)
license=CC BY-NC-SA
exact mass=186.14399
ionization energy=70 eV
ion type=[M]+*
computed spectral entropy=2.5690177890131554
computed normalized entropy=0.7885026606894902
SPLASH=splash10-00di-9400000000-fe175751b63e20ca821f
submitter=submitter = University of Tokyo Team (Faculty of Engineering, University of Tokyo)
MoNA Rating=3.75

>  <NUM PEAKS>  (4927) 
26

>  <MASS SPECTRAL PEAKS>  (4927) 
41 9.71
43 5.79
45 11.66
47 3.11
55 4.2
59 4.46
64 3.49
73 99.99
74 8.8
75 50.13
76 3.57
77 2.69
78 4.2
79 2.96
81 30.5
91 3.84
95 3.89
99 3.59
129 8.05
130 2.9
143 15.57
158 3.56
171 36.62
172 5.61
186 37.96
187 6.42

>  <PREDICTED SPECTRUM>  (4927) 
27 66
28 3
39 59
41 158
42 7
43 228
44 57
45 299
47 120
51 15
53 98
55 150
59 261
60 7
61 113
65 45
67 153
68 63
69 145
73 999
74 253
75 727
76 158
77 154
78 13
79 84
81 338
82 92
83 13
91 133
93 72
95 165
96 204
97 65
99 9
103 44
115 100
127 32
128 0
129 251
130 178
131 146
143 369
144 135
145 48
171 619
172 243
173 87
174 1
186 607
187 269
188 108

$$$$

     RDKit          2D

 11 10  0  0  0  0  0  0  0  0999 V2000
    2.2733    4.3125    0.0000 C   0  0  0  0  0  0  0  0  0  0  0  0
   -6.8200    5.0625    0.0000 C   0  0  0  0  0  0  0  0  0  0  0  0
   -5.5209    2.8125    0.0000 C   0  0  0  0  0  0  0  0  0  0  0  0
   -1.6238    6.5625    0.0000 C   0  0  0  0  0  0  0  0  0  0  0  0
    0.9743    5.0625    0.0000 C   0  0  0  0  0  0  0  0  0  0  0  0
   -0.3248    4.3125    0.0000 C   0  0  0  0  0  0  0  0  0  0  0  0
   -4.2219    5.0625    0.0000 C   0  0  0  0  0  0  0  0  0  0  0  0
   -5.5209    4.3125    0.0000 C   0  0  0  0  0  0  0  0  0  0  0  0
   -1.6238    5.0625    0.0000 C   0  0  0  0  0  0  0  0  0  0  0  0
   -2.9228    4.3125    0.0000 C   0  0  0  0  0  0  0  0  0  0  0  0
   -2.9228    2.8125    0.0000 O   0  0  0  0  0  0  0  0  0  0  0  0
  5  1  2  0
  6  5  1  0
  8  2  1  0
  8  3  1  0
  8  7  1  0
  9  4  2  0
  9  6  1  0
 10  7  1  0
 10  9  1  0
 11 10  1  0
M  END
>  <NAME>  (4928) 
2-METHYL-6-METHYLENE-7-OCTEN-4-OL

>  <SYNONYMS>  (4928) 


>  <SPECTRUM TYPE>  (4928) 
MS1

>  <INSTRUMENT TYPE>  (4928) 
EI-B

>  <INSTRUMENT>  (4928) 
JEOL JMS-D-3000

>  <ION MODE>  (4928) 
P

>  <INCHIKEY>  (4928) 
INNRBDIICBSBPH-UHFFFAOYSA-N

>  <FORMULA>  (4928) 
C10H18O

>  <EXACT MASS>  (4928) 
154.135765196

>  <MW>  (4928) 
154

>  <ID>  (4928) 
JP002367

>  <CONTRIBUTOR>  (4928) 
University of Tokyo Team, {Faculty of Engineering, University of Tokyo

>  <COMMENT>  (4928) 
SMILES=C=CCC(=C)C(O)CC(C)C
InChI=InChI=1S/C10H18O/c1-5-6-9(4)10(11)7-8(2)3/h5,8,10-11H,1,4,6-7H2,2-3H3
computed SMILES=OC(C(=C)CC=C)CC(C)C
accession=JP002367
date=2016.01.19 (Created 2008.10.21, modified 2011.05.06)
author=MASS SPECTROSCOPY SOC. OF JAPAN (MSSJ)
license=CC BY-NC-SA
exact mass=154.13577
ionization energy=70 eV
ion type=[M]+*
computed spectral entropy=2.5896232650870585
computed normalized entropy=0.7472073284623569
SPLASH=splash10-014i-9000000000-1207c13a922f6f8cb768
submitter=submitter = University of Tokyo Team (Faculty of Engineering, University of Tokyo)
MoNA Rating=3.75

>  <NUM PEAKS>  (4928) 
32

>  <MASS SPECTRAL PEAKS>  (4928) 
41 39.6
42 4.37
43 41.19
44 7.05
45 20.95
51 1.87
52 1.35
53 11.44
55 3.03
57 13.15
58 3.68
65 2.16
66 1.93
67 27.19
68 99.99
69 56.51
70 4.36
71 4.7
77 1.4
79 3.23
80 2.39
81 1.27
83 1.24
85 17.05
86 2.16
87 7.15
93 3.74
97 1.93
98 3.12
121 1.2
136 3.35
154 0.14

>  <PREDICTED SPECTRUM>  (4928) 
19 3
26 13
27 229
28 70
29 190
31 69
37 32
38 58
39 390
40 136
41 745
42 177
43 445
44 135
45 423
46 9
49 18
50 77
51 132
52 50
53 293
54 94
55 133
56 25
57 188
58 31
62 7
63 28
65 81
66 11
67 466
68 496
69 999
70 192
71 231
77 76
78 5
79 161
81 109
82 4
83 121
84 128
85 207
86 95
87 291
91 72
93 242
95 61
96 27
97 152
98 92
99 18
111 14
113 133
121 119
136 49

$$$$

     RDKit          2D

 11 11  0  0  0  0  0  0  0  0999 V2000
   -5.5207    3.1321    0.0000 C   0  0  0  0  0  0  0  0  0  0  0  0
   -4.2216    2.3821    0.0000 C   0  0  0  0  0  0  0  0  0  0  0  0
    3.5726    0.8821    0.0000 C   0  0  0  0  0  0  0  0  0  0  0  0
    3.5731    2.3829    0.0000 C   0  0  0  0  0  0  0  0  0  0  0  0
    2.2731    0.1313    0.0000 C   0  0  0  0  0  0  0  0  0  0  0  0
    2.2740    3.1329    0.0000 C   0  0  0  0  0  0  0  0  0  0  0  0
    0.9740    0.8813    0.0000 C   0  0  0  0  0  0  0  0  0  0  0  0
   -2.9226    3.1321    0.0000 C   0  0  0  0  0  0  0  0  0  0  0  0
   -0.3245    3.1321    0.0000 C   0  0  0  0  0  0  0  0  0  0  0  0
    0.9745    2.3821    0.0000 C   0  0  0  0  0  0  0  0  0  0  0  0
   -1.6236    2.3821    0.0000 O   0  0  0  0  0  0  0  0  0  0  0  0
  2  1  2  0
  4  3  2  0
  5  3  1  0
  6  4  1  0
  7  5  2  0
  8  2  1  0
 10  6  2  0
 10  7  1  0
 10  9  1  0
 11  8  1  0
 11  9  1  0
M  END
>  <NAME>  (4929) 
ALLYL BENZYL ETHER

>  <SYNONYMS>  (4929) 


>  <SPECTRUM TYPE>  (4929) 
MS1

>  <INSTRUMENT TYPE>  (4929) 
EI-B

>  <INSTRUMENT>  (4929) 
JEOL JMS-D-3000

>  <ION MODE>  (4929) 
P

>  <INCHIKEY>  (4929) 
HUGHWHMUUQNACD-UHFFFAOYSA-N

>  <FORMULA>  (4929) 
C10H12O

>  <EXACT MASS>  (4929) 
148.088815004

>  <MW>  (4929) 
148

>  <ID>  (4929) 
JP002365

>  <CONTRIBUTOR>  (4929) 
University of Tokyo Team, {Faculty of Engineering, University of Tokyo

>  <COMMENT>  (4929) 
SMILES=C=CCOCc(c1)cccc1
InChI=InChI=1S/C10H12O/c1-2-8-11-9-10-6-4-3-5-7-10/h2-7H,1,8-9H2
computed SMILES=O(CC=C)CC=1C=CC=CC1
accession=JP002365
date=2016.01.19 (Created 2008.10.21, modified 2011.05.06)
author=MASS SPECTROSCOPY SOC. OF JAPAN (MSSJ)
license=CC BY-NC-SA
exact mass=148.08882
ionization energy=70 eV
ion type=[M]+*
computed spectral entropy=2.252632784429734
computed normalized entropy=0.7088088826308857
SPLASH=splash10-0006-9100000000-f4cbb025a4cbc1034096
submitter=submitter = University of Tokyo Team (Faculty of Engineering, University of Tokyo)
MoNA Rating=3.75

>  <NUM PEAKS>  (4929) 
24

>  <MASS SPECTRAL PEAKS>  (4929) 
41 14.29
42 1.98
43 2.13
51 6.14
52 1.33
63 2.45
65 11.76
77 10.85
78 2.76
79 12.75
89 2.8
90 1.62
91 99.99
92 58.66
93 3.81
104 6.72
105 11.07
106 3.99
107 16.54
108 1.58
118 2.09
130 1.28
147 2.22
148 1.78

>  <PREDICTED SPECTRUM>  (4929) 
25 6
26 59
27 158
28 55
29 112
30 15
31 2
36 4
37 23
38 76
39 270
40 102
41 376
42 121
43 65
44 65
45 3
49 7
50 113
51 204
52 117
53 55
54 4
55 63
56 61
57 170
58 89
62 63
63 146
64 85
65 291
66 45
69 57
74 33
75 61
76 34
77 243
78 166
79 188
80 38
89 100
90 142
91 999
92 402
93 72
102 9
103 156
104 110
105 278
106 193
107 381
108 178
118 5
119 87
120 47
129 62
130 3
131 155
132 20
133 15
147 23
148 212
149 53

$$$$

     RDKit          2D

 11 11  0  0  0  0  0  0  0  0999 V2000
    3.5726    0.8821    0.0000 C   0  0  0  0  0  0  0  0  0  0  0  0
    3.5731    2.3829    0.0000 C   0  0  0  0  0  0  0  0  0  0  0  0
    2.2731    0.1313    0.0000 C   0  0  0  0  0  0  0  0  0  0  0  0
    2.2740    3.1329    0.0000 C   0  0  0  0  0  0  0  0  0  0  0  0
    0.9740    0.8813    0.0000 C   0  0  0  0  0  0  0  0  0  0  0  0
   -4.2216    2.3821    0.0000 C   0  0  0  0  0  0  0  0  0  0  0  0
   -2.9226    3.1321    0.0000 C   0  0  0  0  0  0  0  0  0  0  0  0
   -0.3245    3.1321    0.0000 C   0  0  0  0  0  0  0  0  0  0  0  0
    0.9745    2.3821    0.0000 C   0  0  0  0  0  0  0  0  0  0  0  0
   -5.5207    3.1321    0.0000 O   0  0  0  0  0  0  0  0  0  0  0  0
   -1.6236    2.3821    0.0000 O   0  0  0  0  0  0  0  0  0  0  0  0
  2  1  2  0
  3  1  1  0
  4  2  1  0
  5  3  2  0
  7  6  1  0
  9  4  2  0
  9  5  1  0
  9  8  1  0
 10  6  2  0
 11  7  1  0
 11  8  1  0
M  END
>  <NAME>  (4930) 
BENZYLOXYACETALDEHYDE

>  <SYNONYMS>  (4930) 


>  <SPECTRUM TYPE>  (4930) 
MS1

>  <INSTRUMENT TYPE>  (4930) 
EI-B

>  <INSTRUMENT>  (4930) 
JEOL JMS-D-3000

>  <ION MODE>  (4930) 
P

>  <INCHIKEY>  (4930) 
NFNOAHXEQXMCGT-UHFFFAOYSA-N

>  <FORMULA>  (4930) 
C9H10O2

>  <EXACT MASS>  (4930) 
150.06807956

>  <MW>  (4930) 
150

>  <ID>  (4930) 
JP002363

>  <CONTRIBUTOR>  (4930) 
University of Tokyo Team, {Faculty of Engineering, University of Tokyo

>  <COMMENT>  (4930) 
SMILES=O=CCOCc(c1)cccc1
InChI=InChI=1S/C9H10O2/c10-6-7-11-8-9-4-2-1-3-5-9/h1-6H,7-8H2
computed SMILES=O=CCOCC=1C=CC=CC1
accession=JP002363
date=2016.01.19 (Created 2008.10.21, modified 2011.05.06)
author=MASS SPECTROSCOPY SOC. OF JAPAN (MSSJ)
license=CC BY-NC-SA
exact mass=150.06808
ionization energy=70 eV
ion type=[M]+*
computed spectral entropy=2.1892565958853796
computed normalized entropy=0.6801308018693205
SPLASH=splash10-0006-9400000000-f208772c70ba9e197f44
submitter=submitter = University of Tokyo Team (Faculty of Engineering, University of Tokyo)
MoNA Rating=3.75

>  <NUM PEAKS>  (4930) 
25

>  <MASS SPECTRAL PEAKS>  (4930) 
41 1.4
43 2.89
45 1.24
50 2.15
51 5.77
52 1.26
58 1.09
63 3.01
65 9.81
73 2.95
77 6.96
78 2.15
79 2.79
89 3.59
90 4.15
91 99.99
92 10.29
105 6.55
106 2.37
107 43.88
108 4.16
121 1.03
136 1.69
149 10.82
150 6.1

>  <PREDICTED SPECTRUM>  (4930) 
14 1
15 8
16 10
17 8
18 22
19 1
25 12
26 67
27 163
28 72
29 186
30 64
31 107
37 2
38 49
39 131
40 49
41 177
42 102
43 148
44 213
45 140
49 19
50 135
51 221
52 141
53 92
57 144
58 51
59 56
60 10
61 18
62 76
63 175
64 85
65 357
66 48
70 20
74 63
75 39
76 36
77 251
78 169
79 273
80 55
89 159
90 140
91 999
92 451
93 78
94 46
104 26
105 256
106 136
107 407
108 245
120 21
121 76
122 8
132 59
133 24
134 6
149 73
150 271
151 83
152 16

$$$$

     RDKit          2D

 11 11  0  0  0  0  0  0  0  0999 V2000
    2.7783   -0.7587    0.0000 C   0  0  0  0  0  0  0  0  0  0  0  0
    4.8272   -0.2094    0.0000 C   0  0  0  0  0  0  0  0  0  0  0  0
    4.2779    1.8396    0.0000 C   0  0  0  0  0  0  0  0  0  0  0  0
   -1.6700   -0.9600    0.0000 C   0  0  0  0  0  0  0  0  0  0  0  0
   -1.6700    0.5400    0.0000 C   0  0  0  0  0  0  0  0  0  0  0  0
   -0.3700   -1.7100    0.0000 C   0  0  0  0  0  0  0  0  0  0  0  0
   -0.3700    1.2900    0.0000 C   0  0  0  0  0  0  0  0  0  0  0  0
    0.9300   -0.9600    0.0000 C   0  0  0  0  0  0  0  0  0  0  0  0
    0.9300    0.5400    0.0000 C   0  0  0  0  0  0  0  0  0  0  0  0
    2.2289    1.2902    0.0000 O   0  0  0  0  0  0  0  0  0  0  0  0
    3.5281    0.5404    0.0000 Si  0  0  0  0  0  4  0  0  0  0  0  0
  5  4  1  0
  6  4  1  0
  7  5  2  0
  8  6  1  0
  9  7  1  0
  9  8  2  0
 10  9  1  0
 11  1  1  0
 11  2  1  0
 11  3  1  0
 11 10  1  0
M  END
>  <NAME>  (4931) 
2-TRIMETHYLSILOXY-1,3-CYCLOHEXADIENE

>  <SYNONYMS>  (4931) 


>  <SPECTRUM TYPE>  (4931) 
MS1

>  <INSTRUMENT TYPE>  (4931) 
EI-B

>  <INSTRUMENT>  (4931) 
JEOL JMS-D-3000

>  <ION MODE>  (4931) 
P

>  <INCHIKEY>  (4931) 
WPIRVUXAMPRMAY-UHFFFAOYSA-N

>  <FORMULA>  (4931) 
C9H16OSi

>  <EXACT MASS>  (4931) 
168.097041662

>  <MW>  (4931) 
168

>  <ID>  (4931) 
JP002362

>  <CONTRIBUTOR>  (4931) 
University of Tokyo Team, {Faculty of Engineering, University of Tokyo

>  <COMMENT>  (4931) 
SMILES=C(C1)C=CC(=C1)O[Si](C)(C)C
InChI=InChI=1S/C9H16OSi/c1-11(2,3)10-9-7-5-4-6-8-9/h5,7-8H,4,6H2,1-3H3
computed SMILES=O(C=1C=CCCC1)[Si](C)(C)C
accession=JP002362
date=2016.01.19 (Created 2008.10.21, modified 2011.05.06)
author=MASS SPECTROSCOPY SOC. OF JAPAN (MSSJ)
license=CC BY-NC-SA
exact mass=168.09704
ionization energy=70 eV
ion type=[M]+*
computed spectral entropy=2.5875154862704486
computed normalized entropy=0.8787804755264328
SPLASH=splash10-0gk9-9500000000-cf16d1cd901ad3f2b2d2
submitter=submitter = University of Tokyo Team (Faculty of Engineering, University of Tokyo)
MoNA Rating=3.75

>  <NUM PEAKS>  (4931) 
19

>  <MASS SPECTRAL PEAKS>  (4931) 
43 8.62
44 9.64
45 15.22
59 11.16
68 39.59
73 99.99
74 12.69
75 65.98
76 11.16
77 13.7
94 9.13
96 18.27
151 59.39
152 9.13
153 18.27
166 13.7
167 14.21
168 58.88
169 13.7

>  <PREDICTED SPECTRUM>  (4931) 
14 9
15 28
26 46
27 115
28 23
29 94
31 69
37 27
38 73
39 215
40 63
41 220
42 95
43 289
44 89
45 394
46 77
47 141
48 6
49 35
50 137
51 205
52 135
53 228
54 83
55 172
56 17
57 5
58 147
59 316
60 64
61 146
62 65
63 132
64 55
65 163
66 97
67 212
68 81
69 149
70 13
71 12
72 47
73 642
74 228
75 464
76 133
77 261
78 161
79 231
80 73
81 91
82 26
83 51
85 59
87 5
89 48
91 181
92 99
93 127
94 30
95 127
96 56
97 130
98 38
99 149
101 33
105 92
106 16
107 47
109 98
110 23
113 39
115 23
122 31
123 170
124 46
125 207
126 8
127 72
128 0
129 1
135 124
136 54
137 352
138 183
139 147
140 69
141 92
151 125
152 102
153 999
154 405
155 260
156 52
167 85
168 519
169 193
170 78
171 5

$$$$

     RDKit          2D

 11 10  0  0  0  0  0  0  0  0999 V2000
    5.3603    3.9608    0.0000 C   0  0  0  0  0  0  0  0  0  0  0  0
    3.8603    1.3627    0.0000 C   0  0  0  0  0  0  0  0  0  0  0  0
    5.9094    1.9118    0.0000 C   0  0  0  0  0  0  0  0  0  0  0  0
   -1.3358    3.9608    0.0000 C   0  0  0  0  0  0  0  0  0  0  0  0
   -1.8849    1.9118    0.0000 C   0  0  0  0  0  0  0  0  0  0  0  0
    0.1642    1.3627    0.0000 C   0  0  0  0  0  0  0  0  0  0  0  0
    3.3113    3.4118    0.0000 C   0  0  0  0  0  0  0  0  0  0  0  0
    0.7132    3.4118    0.0000 C   0  0  0  0  0  0  0  0  0  0  0  0
    2.0123    2.6618    0.0000 S   0  0  0  0  0  0  0  0  0  0  0  0
    4.6103    2.6618    0.0000 Si  0  0  0  0  0  4  0  0  0  0  0  0
   -0.5858    2.6618    0.0000 Si  0  0  0  0  0  4  0  0  0  0  0  0
  9  7  1  0
  9  8  1  0
 10  1  1  0
 10  2  1  0
 10  3  1  0
 10  7  1  0
 11  4  1  0
 11  5  1  0
 11  6  1  0
 11  8  1  0
M  END
>  <NAME>  (4932) 
BIS(TRIMETHYLSILYLMETHYL) SULFIDE

>  <SYNONYMS>  (4932) 


>  <SPECTRUM TYPE>  (4932) 
MS1

>  <INSTRUMENT TYPE>  (4932) 
EI-B

>  <INSTRUMENT>  (4932) 
JEOL JMS-D-3000

>  <ION MODE>  (4932) 
P

>  <INCHIKEY>  (4932) 
GISUCMFTNKRCPF-UHFFFAOYSA-N

>  <FORMULA>  (4932) 
C8H22SSi2

>  <EXACT MASS>  (4932) 
206.098074764

>  <MW>  (4932) 
206

>  <ID>  (4932) 
JP002361

>  <CONTRIBUTOR>  (4932) 
University of Tokyo Team, {Faculty of Engineering, University of Tokyo

>  <COMMENT>  (4932) 
SMILES=C[Si](C)(C)CSC[Si](C)(C)C
InChI=InChI=1S/C8H22SSi2/c1-10(2,3)7-9-8-11(4,5)6/h7-8H2,1-6H3
computed SMILES=S(C[Si](C)(C)C)C[Si](C)(C)C
accession=JP002361
date=2016.01.19 (Created 2008.10.21, modified 2011.05.06)
author=MASS SPECTROSCOPY SOC. OF JAPAN (MSSJ)
license=CC BY-NC-SA
exact mass=206.09807
ionization energy=70 eV
ion type=[M]+*
computed spectral entropy=2.375208232371137
computed normalized entropy=0.729017143799401
SPLASH=splash10-00di-9100000000-56d23b18fc69a115ae00
submitter=submitter = University of Tokyo Team (Faculty of Engineering, University of Tokyo)
MoNA Rating=3.75

>  <NUM PEAKS>  (4932) 
26

>  <MASS SPECTRAL PEAKS>  (4932) 
43 7.83
44 34.51
45 15.37
46 2.91
47 2.15
48 1.72
57 1.67
58 2.79
59 11.45
64 1.98
72 5.58
73 99.99
74 8.86
75 13.35
77 1.81
90 3.42
103 2.44
105 2.06
118 3.2
119 7.84
163 3.94
191 12.39
192 2.57
193 1.69
206 5.13
207 1.57

>  <PREDICTED SPECTRUM>  (4932) 
29 78
39 6
41 11
43 198
44 98
45 449
46 129
47 63
51 0
57 46
58 57
59 325
60 54
61 59
66 6
69 6
71 57
72 147
73 999
74 344
75 188
76 41
77 87
78 17
85 5
87 45
88 1
90 46
91 182
92 11
99 16
101 30
102 21
103 253
104 95
105 156
106 24
115 29
117 72
118 229
119 97
120 9
131 24
132 77
133 55
147 46
206 346
207 124
208 80

$$$$

     RDKit          2D

  8  7  0  0  0  0  0  0  0  0999 V2000
    1.6238    3.1875    0.0000 C   0  0  0  0  0  0  0  0  0  0  0  0
   -0.9743    1.6875    0.0000 C   0  0  0  0  0  0  0  0  0  0  0  0
   -4.8714    3.9375    0.0000 C   0  0  0  0  0  0  0  0  0  0  0  0
    0.3248    3.9375    0.0000 C   0  0  0  0  0  0  0  0  0  0  0  0
   -2.2733    3.9375    0.0000 C   0  0  0  0  0  0  0  0  0  0  0  0
   -0.9743    3.1875    0.0000 C   0  0  0  0  0  0  0  0  0  0  0  0
   -3.5724    3.1875    0.0000 C   0  0  0  0  0  0  0  0  0  0  0  0
   -3.5724    1.6875    0.0000 O   0  0  0  0  0  0  0  0  0  0  0  0
  4  1  2  0
  6  2  2  0
  6  4  1  0
  6  5  1  0
  7  3  1  0
  7  5  1  0
  8  7  1  0
M  END
>  <NAME>  (4933) 
4-METHYLENE-5-HEXEN-2-OL

>  <SYNONYMS>  (4933) 


>  <SPECTRUM TYPE>  (4933) 
MS1

>  <INSTRUMENT TYPE>  (4933) 
EI-B

>  <INSTRUMENT>  (4933) 
JEOL JMS-D-3000

>  <ION MODE>  (4933) 
P

>  <INCHIKEY>  (4933) 
HHQQFJVNLOLQAM-UHFFFAOYSA-N

>  <FORMULA>  (4933) 
C7H12O

>  <EXACT MASS>  (4933) 
112.088815004

>  <MW>  (4933) 
112

>  <ID>  (4933) 
JP002359

>  <CONTRIBUTOR>  (4933) 
University of Tokyo Team, {Faculty of Engineering, University of Tokyo

>  <COMMENT>  (4933) 
SMILES=C=CC(=C)CC(C)O
InChI=InChI=1S/C7H12O/c1-4-6(2)5-7(3)8/h4,7-8H,1-2,5H2,3H3
computed SMILES=OC(C)CC(=C)C=C
accession=JP002359
date=2016.01.19 (Created 2008.10.21, modified 2011.05.06)
author=MASS SPECTROSCOPY SOC. OF JAPAN (MSSJ)
license=CC BY-NC-SA
exact mass=112.08882
ionization energy=70 eV
ion type=[M]+*
computed spectral entropy=2.252656190170323
computed normalized entropy=0.7399046110675974
SPLASH=splash10-014j-9000000000-3056101afa8aa7e43667
submitter=submitter = University of Tokyo Team (Faculty of Engineering, University of Tokyo)
MoNA Rating=3.75

>  <NUM PEAKS>  (4933) 
21

>  <MASS SPECTRAL PEAKS>  (4933) 
42 7.01
43 31.37
45 82.88
50 2.5
51 4.98
52 3.63
53 24.91
55 2.49
58 3.06
65 3.21
66 3.82
67 62.8
68 99.99
69 16.61
70 4.42
73 3.29
75 2.75
77 2.46
79 3.68
97 19.92
112 5.28

>  <PREDICTED SPECTRUM>  (4933) 
14 9
19 35
25 12
26 77
27 247
28 51
29 121
31 60
37 1
38 40
39 262
40 146
41 393
42 121
43 418
44 19
45 821
46 226
47 7
49 73
50 67
51 133
52 71
53 358
54 235
55 140
57 1
61 34
64 22
65 125
66 108
67 590
68 999
69 388
70 166
71 52
77 52
79 162
85 57
86 19
93 94
95 11
97 325
98 61
111 10
112 169
113 36

$$$$

     RDKit          2D

  6  5  0  0  0  0  0  0  0  0999 V2000
    1.2990    2.2500    0.0000 C   0  0  0  0  0  0  0  0  0  0  0  0
   -1.2990    0.7500    0.0000 C   0  0  0  0  0  0  0  0  0  0  0  0
    0.0000    3.0000    0.0000 C   0  0  0  0  0  0  0  0  0  0  0  0
   -2.5981    3.0000    0.0000 C   0  0  0  0  0  0  0  0  0  0  0  0
   -1.2990    2.2500    0.0000 C   0  0  0  0  0  0  0  0  0  0  0  0
   -3.8971    2.2500    0.0000 Br  0  0  0  0  0  0  0  0  0  0  0  0
  3  1  2  0
  5  2  2  0
  5  3  1  0
  5  4  1  0
  6  4  1  0
M  END
>  <NAME>  (4934) 
2-BROMOMETHYL-1,3-BUTADIENE

>  <SYNONYMS>  (4934) 


>  <SPECTRUM TYPE>  (4934) 
MS1

>  <INSTRUMENT TYPE>  (4934) 
EI-B

>  <INSTRUMENT>  (4934) 
JEOL JMS-D-3000

>  <ION MODE>  (4934) 
P

>  <INCHIKEY>  (4934) 
KWEFLUDPRLSSTJ-UHFFFAOYSA-N

>  <FORMULA>  (4934) 
C5H7Br

>  <EXACT MASS>  (4934) 
145.973112324

>  <MW>  (4934) 
146

>  <ID>  (4934) 
JP002358

>  <CONTRIBUTOR>  (4934) 
University of Tokyo Team, {Faculty of Engineering, University of Tokyo

>  <COMMENT>  (4934) 
SMILES=C=CC(=C)CBr
InChI=InChI=1S/C5H7Br/c1-3-5(2)4-6/h3H,1-2,4H2
computed SMILES=BrCC(=C)C=C
accession=JP002358
date=2016.01.19 (Created 2008.10.21, modified 2011.05.06)
author=MASS SPECTROSCOPY SOC. OF JAPAN (MSSJ)
license=CC BY-NC-SA
exact mass=145.97311
ionization energy=70 eV
ion type=[M]+*
computed spectral entropy=2.015752925801907
computed normalized entropy=0.6521272212265664
SPLASH=splash10-014i-9100000000-a8eb7f3ac9daf7bfcf85
submitter=submitter = University of Tokyo Team (Faculty of Engineering, University of Tokyo)
MoNA Rating=3.75

>  <NUM PEAKS>  (4934) 
22

>  <MASS SPECTRAL PEAKS>  (4934) 
41 50.63
42 1.75
43 1.1
49 3.55
50 2.77
51 3.59
52 2.77
53 3.42
62 1.02
63 1.71
65 12.45
66 3.3
67 99.99
68 5.79
69 2.69
75 1.06
84 2.24
86 1.34
146 20.53
147 2.04
148 20.62
149 1.26

>  <PREDICTED SPECTRUM>  (4934) 
14 35
15 29
25 72
26 202
27 425
28 172
29 157
35 22
36 107
37 218
38 315
39 706
40 324
41 565
42 177
43 59
49 169
50 334
51 403
52 328
53 356
54 230
60 2
61 94
62 131
63 204
64 124
65 333
66 290
67 999
68 212
74 101
77 144
78 16
79 458
81 63
91 7
92 78
93 20
106 37
118 11
120 84
146 368
147 113
148 384
149 100

$$$$

     RDKit          2D

  6  5  0  0  0  0  0  0  0  0999 V2000
    0.8002    0.0135    0.0000 C   0  0  0  0  0  0  0  0  0  0  0  0
   -0.6998    2.6115    0.0000 C   0  0  0  0  0  0  0  0  0  0  0  0
   -1.2488    0.5625    0.0000 C   0  0  0  0  0  0  0  0  0  0  0  0
    1.3493    2.0625    0.0000 C   0  0  0  0  0  0  0  0  0  0  0  0
    1.3493    3.5625    0.0000 S   0  0  0  0  0  0  0  0  0  0  0  0
    0.0502    1.3125    0.0000 Si  0  0  0  0  0  4  0  0  0  0  0  0
  5  4  1  0
  6  1  1  0
  6  2  1  0
  6  3  1  0
  6  4  1  0
M  END
>  <NAME>  (4935) 
TRIMETHYLSILYLMETHANETHIOL

>  <SYNONYMS>  (4935) 


>  <SPECTRUM TYPE>  (4935) 
MS1

>  <INSTRUMENT TYPE>  (4935) 
EI-B

>  <INSTRUMENT>  (4935) 
JEOL JMS-D-3000

>  <ION MODE>  (4935) 
P

>  <INCHIKEY>  (4935) 
IIYTXTQVIDHSSL-UHFFFAOYSA-N

>  <FORMULA>  (4935) 
C4H12SSi

>  <EXACT MASS>  (4935) 
120.04289791400001

>  <MW>  (4935) 
120

>  <ID>  (4935) 
JP002357

>  <CONTRIBUTOR>  (4935) 
University of Tokyo Team, {Faculty of Engineering, University of Tokyo

>  <COMMENT>  (4935) 
SMILES=SC[Si](C)(C)C
InChI=InChI=1S/C4H12SSi/c1-6(2,3)4-5/h5H,4H2,1-3H3
computed SMILES=SC[Si](C)(C)C
accession=JP002357
date=2016.01.19 (Created 2008.10.21, modified 2011.05.06)
author=MASS SPECTROSCOPY SOC. OF JAPAN (MSSJ)
license=CC BY-NC-SA
exact mass=120.0429
ionization energy=70 eV
ion type=[M]+*
computed spectral entropy=2.574849138501563
computed normalized entropy=0.7812428961701471
SPLASH=splash10-00dl-9100000000-dd3bd3d8e561bd24ef2c
submitter=submitter = University of Tokyo Team (Faculty of Engineering, University of Tokyo)
MoNA Rating=3.75

>  <NUM PEAKS>  (4935) 
27

>  <MASS SPECTRAL PEAKS>  (4935) 
42 3.25
43 24.93
44 62.85
45 25.38
46 5.03
47 3.85
48 3.78
53 1.79
55 1.9
57 1.9
58 7.15
59 25.19
60 2.26
61 2.93
64 4.27
72 2.29
73 99.99
74 11.48
75 14.43
77 16.44
105 28.57
106 2.69
107 2.62
117 4.99
119 4.92
120 15.26
121 2.48

>  <PREDICTED SPECTRUM>  (4935) 
15 10
29 53
31 39
39 62
41 55
42 113
43 218
44 235
45 427
46 140
47 215
48 18
49 15
51 0
53 102
55 47
57 54
58 189
59 594
60 184
61 145
63 16
65 77
69 33
71 14
72 88
73 999
74 307
75 455
76 75
77 198
78 66
79 113
85 20
93 85
105 529
106 159
107 76
119 114
120 463
121 136
122 62

$$$$

     RDKit          2D

 22 24  0  0  0  0  0  0  0  0999 V2000
   -1.5000   -3.0000    0.0000 C   0  0  0  0  0  0  0  0  0  0  0  0
   -0.0000   -4.5000    0.0000 C   0  0  0  0  0  0  0  0  0  0  0  0
    1.5000   -3.0000    0.0000 C   0  0  0  0  0  0  0  0  0  0  0  0
    1.5000    3.0000    0.0000 C   0  0  0  0  0  0  0  0  0  0  0  0
    0.0000    4.5000    0.0000 C   0  0  0  0  0  0  0  0  0  0  0  0
   -1.5000    3.0000    0.0000 C   0  0  0  0  0  0  0  0  0  0  0  0
    3.9000   -0.7500    0.0000 C   0  0  0  0  0  0  0  0  0  0  0  0
   -3.9000   -0.7500    0.0000 C   0  0  0  0  0  0  0  0  0  0  0  0
    3.9000    0.7500    0.0000 C   0  0  0  0  0  0  0  0  0  0  0  0
   -3.9000    0.7500    0.0000 C   0  0  0  0  0  0  0  0  0  0  0  0
    2.6000   -1.5000    0.0000 C   0  0  0  0  0  0  0  0  0  0  0  0
   -2.6000   -1.5000    0.0000 C   0  0  0  0  0  0  0  0  0  0  0  0
    2.6000    1.5000    0.0000 C   0  0  0  0  0  0  0  0  0  0  0  0
   -2.6000    1.5000    0.0000 C   0  0  0  0  0  0  0  0  0  0  0  0
    1.3000   -0.7500    0.0000 C   0  0  0  0  0  0  0  0  0  0  0  0
   -1.3000   -0.7500    0.0000 C   0  0  0  0  0  0  0  0  0  0  0  0
    1.3000    0.7500    0.0000 C   0  0  0  0  0  0  0  0  0  0  0  0
   -1.3000    0.7500    0.0000 C   0  0  0  0  0  0  0  0  0  0  0  0
   -0.0000   -1.5000    0.0000 C   0  0  0  0  0  0  0  0  0  0  0  0
   -0.0000    1.5000    0.0000 C   0  0  0  0  0  0  0  0  0  0  0  0
   -0.0000   -3.0000    0.0000 Si  0  0  0  0  0  4  0  0  0  0  0  0
    0.0000    3.0000    0.0000 Si  0  0  0  0  0  4  0  0  0  0  0  0
  9  7  2  0
 10  8  1  0
 11  7  1  0
 12  8  2  0
 13  9  1  0
 14 10  2  0
 15 11  2  0
 16 12  1  0
 17 13  2  0
 17 15  1  0
 18 14  1  0
 18 16  1  0
 19 15  1  0
 19 16  2  0
 20 17  1  0
 20 18  2  0
 21  1  1  0
 21  2  1  0
 21  3  1  0
 21 19  1  0
 22  4  1  0
 22  5  1  0
 22  6  1  0
 22 20  1  0
M  END
>  <NAME>  (4936) 
9,10-BIS(TRIMETHYLSILYL)ANTHRACENE

>  <SYNONYMS>  (4936) 


>  <SPECTRUM TYPE>  (4936) 
MS1

>  <INSTRUMENT TYPE>  (4936) 
EI-B

>  <INSTRUMENT>  (4936) 
JEOL JMS-D-3000

>  <ION MODE>  (4936) 
P

>  <INCHIKEY>  (4936) 
BOZCPJYCSHAPRN-UHFFFAOYSA-N

>  <FORMULA>  (4936) 
C20H26Si2

>  <EXACT MASS>  (4936) 
322.15730389199996

>  <MW>  (4936) 
322

>  <ID>  (4936) 
JP002356

>  <CONTRIBUTOR>  (4936) 
University of Tokyo Team, {Faculty of Engineering, University of Tokyo

>  <COMMENT>  (4936) 
SMILES=C[Si](C)(C)c(c21)c(c3)c(ccc3)c([Si](C)(C)C)c(cccc2)1
InChI=InChI=1S/C20H26Si2/c1-21(2,3)19-15-11-7-9-13-17(15)20(22(4,5)6)18-14-10-8-12-16(18)19/h7-14H,1-6H3
computed SMILES=C=1C=CC=2C(C1)=C(C=3C=CC=CC3C2[Si](C)(C)C)[Si](C)(C)C
accession=JP002356
date=2016.01.19 (Created 2008.10.21, modified 2011.05.06)
author=MASS SPECTROSCOPY SOC. OF JAPAN (MSSJ)
license=CC BY-NC-SA
exact mass=322.1573
ionization energy=70 eV
ion type=[M]+*
computed spectral entropy=3.42446925873844
computed normalized entropy=0.783730433309774
SPLASH=splash10-00di-9387000000-6ea3ee9d123e3aff10f7
submitter=submitter = University of Tokyo Team (Faculty of Engineering, University of Tokyo)
MoNA Rating=3.75

>  <NUM PEAKS>  (4936) 
79

>  <MASS SPECTRAL PEAKS>  (4936) 
43 2.77
44 1.11
45 10.73
59 2.67
63 1.31
65 1.67
73 99.99
74 9.12
75 9.78
76 2.65
77 1.33
88 1.07
89 1.15
93 12.83
95 4.81
118 1.5
123 1.29
129 1.06
130 1.58
131 1.6
137 1.15
138 4.1
139 1.36
145 1.37
146 11.15
147 3
151 1.44
152 2.02
165 1.33
176 2.18
177 1.42
178 7.14
179 2.22
180 2.43
189 1.7
191 2.21
192 1.78
202 1.9
203 2.15
204 1.7
205 2.68
206 2.53
207 3.71
208 3.12
212 1.68
215 1.06
217 6.08
218 2.98
219 21.33
220 4.81
221 1.53
229 1.04
231 3.32
232 2.22
233 9.59
234 5.26
235 11.34
236 2.58
245 1.88
247 2.11
248 1.66
249 24.21
250 12.4
251 3.35
261 1.15
265 1.06
269 1.11
275 1.22
277 1.01
281 1.1
291 1.91
305 1.43
307 26.97
308 8.94
309 3.21
322 64.46
323 21.11
324 7.36
325 1.9

>  <PREDICTED SPECTRUM>  (4936) 
15 11
26 8
27 44
28 39
29 98
31 84
38 8
39 19
40 1
41 44
42 28
43 166
44 83
45 408
46 94
47 64
50 21
51 48
52 20
53 80
54 48
55 55
56 38
57 104
58 98
59 264
60 68
61 40
63 24
65 42
66 13
67 60
68 5
69 63
70 23
71 36
72 28
73 999
74 239
75 233
76 53
77 89
78 42
79 55
80 5
81 77
82 19
83 70
84 0
85 63
86 9
87 64
88 27
89 42
90 9
91 112
92 30
93 69
94 16
95 38
98 6
99 53
100 27
101 58
102 53
103 65
104 51
105 137
106 70
107 79
108 25
109 96
110 18
111 0
113 33
114 54
115 102
116 65
117 65
118 49
119 70
120 54
121 93
122 9
123 14
126 16
127 95
128 82
129 97
130 76
131 61
132 59
133 99
134 110
135 145
136 74
137 77
138 21
139 54
140 30
141 53
142 10
143 3
144 52
145 92
146 87
147 133
148 80
149 132
150 60
151 76
152 60
153 56
155 80
156 9
157 62
158 55
159 109
160 49
161 66
162 86
163 123
164 127
165 181
166 69
167 22
168 29
169 39
170 9
171 75
172 57
173 62
174 69
175 45
176 73
177 96
178 54
179 61
185 6
186 34
187 56
188 4
189 124
190 73
191 104
192 42
193 80
194 57
195 74
196 25
200 40
201 9
202 73
203 100
204 105
205 115
206 68
207 45
208 32
209 24
210 62
213 6
215 64
216 4
217 132
218 100
219 170
220 55
221 154
222 80
223 105
224 14
229 3
230 27
231 96
232 89
233 258
234 251
235 196
236 110
237 71
245 116
246 93
247 170
248 133
249 239
250 132
251 99
252 30
257 1
261 36
262 10
263 49
264 31
265 96
266 83
267 27
275 110
276 142
277 93
278 20
287 18
290 21
291 190
292 103
293 73
294 9
303 31
305 98
306 106
307 659
308 307
309 225
310 109
311 20
321 111
322 750
323 421
324 247
325 128
326 9

$$$$

     RDKit          2D

 18 20  0  0  0  0  0  0  0  0999 V2000
    1.5000    3.0000    0.0000 C   0  0  0  0  0  0  0  0  0  0  0  0
    0.0000    4.5000    0.0000 C   0  0  0  0  0  0  0  0  0  0  0  0
   -1.5000    3.0000    0.0000 C   0  0  0  0  0  0  0  0  0  0  0  0
    3.9000   -0.7500    0.0000 C   0  0  0  0  0  0  0  0  0  0  0  0
   -3.9000   -0.7500    0.0000 C   0  0  0  0  0  0  0  0  0  0  0  0
    3.9000    0.7500    0.0000 C   0  0  0  0  0  0  0  0  0  0  0  0
   -3.9000    0.7500    0.0000 C   0  0  0  0  0  0  0  0  0  0  0  0
    2.6000   -1.5000    0.0000 C   0  0  0  0  0  0  0  0  0  0  0  0
   -2.6000   -1.5000    0.0000 C   0  0  0  0  0  0  0  0  0  0  0  0
    2.6000    1.5000    0.0000 C   0  0  0  0  0  0  0  0  0  0  0  0
   -2.6000    1.5000    0.0000 C   0  0  0  0  0  0  0  0  0  0  0  0
   -0.0000   -1.5000    0.0000 C   0  0  0  0  0  0  0  0  0  0  0  0
    1.3000   -0.7500    0.0000 C   0  0  0  0  0  0  0  0  0  0  0  0
   -1.3000   -0.7500    0.0000 C   0  0  0  0  0  0  0  0  0  0  0  0
    1.3000    0.7500    0.0000 C   0  0  0  0  0  0  0  0  0  0  0  0
   -1.3000    0.7500    0.0000 C   0  0  0  0  0  0  0  0  0  0  0  0
   -0.0000    1.5000    0.0000 C   0  0  0  0  0  0  0  0  0  0  0  0
    0.0000    3.0000    0.0000 Si  0  0  0  0  0  4  0  0  0  0  0  0
  6  4  2  0
  7  5  1  0
  8  4  1  0
  9  5  2  0
 10  6  1  0
 11  7  2  0
 13  8  2  0
 13 12  1  0
 14  9  1  0
 14 12  2  0
 15 10  2  0
 15 13  1  0
 16 11  1  0
 16 14  1  0
 17 15  1  0
 17 16  2  0
 18  1  1  0
 18  2  1  0
 18  3  1  0
 18 17  1  0
M  END
>  <NAME>  (4937) 
9-TRIMETHYLSILYLANTHRACENE

>  <SYNONYMS>  (4937) 


>  <SPECTRUM TYPE>  (4937) 
MS1

>  <INSTRUMENT TYPE>  (4937) 
EI-B

>  <INSTRUMENT>  (4937) 
JEOL JMS-D-3000

>  <ION MODE>  (4937) 
P

>  <INCHIKEY>  (4937) 
BCXUWDHESDSDMJ-UHFFFAOYSA-N

>  <FORMULA>  (4937) 
C17H18Si

>  <EXACT MASS>  (4937) 
250.117777106

>  <MW>  (4937) 
250

>  <ID>  (4937) 
JP002355

>  <CONTRIBUTOR>  (4937) 
University of Tokyo Team, {Faculty of Engineering, University of Tokyo

>  <COMMENT>  (4937) 
SMILES=c(c3)cc(c1)c(c3)c([Si](C)(C)C)c(c2)c(ccc2)1
InChI=InChI=1S/C17H18Si/c1-18(2,3)17-15-10-6-4-8-13(15)12-14-9-5-7-11-16(14)17/h4-12H,1-3H3
computed SMILES=C=1C=CC2=C(C1)C=C3C=CC=CC3=C2[Si](C)(C)C
accession=JP002355
date=2016.01.19 (Created 2008.10.21, modified 2011.05.06)
license=CC BY-NC-SA
author=MASS SPECTROSCOPY SOC. OF JAPAN (MSSJ)
exact mass=250.11778
ionization energy=70 eV
ion type=[M]+*
computed spectral entropy=3.144796204866578
computed normalized entropy=0.7712488844380289
SPLASH=splash10-0f79-1390000000-08ee56e42f4b315fbe71
submitter=submitter = University of Tokyo Team (Faculty of Engineering, University of Tokyo)
MoNA Rating=3.75

>  <NUM PEAKS>  (4937) 
59

>  <MASS SPECTRAL PEAKS>  (4937) 
43 3.21
44 1.53
45 3
53 1.9
73 7.05
75 3.6
76 2.81
77 1.27
88 1.49
89 2.53
93 4.29
95 1.62
103 1.93
104 1.15
109 2.09
110 4.15
116 1.06
118 14.58
125 1.19
150 1.46
151 2.2
152 2.51
153 1.15
165 3.73
176 4.74
177 3.29
178 18.06
179 5.43
180 1.94
181 1.21
189 4.71
190 2.3
191 7.83
192 12.09
193 2.69
195 1.15
202 3.33
203 3.71
204 3.93
205 6.89
206 1.63
208 1.52
212 1.09
215 1.06
216 1.15
217 10.03
218 4.75
219 10.36
220 2.62
221 1
231 2.63
233 10.3
234 3.29
235 99.99
236 24.05
237 6.27
250 69.06
251 16.99
252 4.49

>  <PREDICTED SPECTRUM>  (4937) 
27 17
29 22
31 14
38 0
39 64
40 3
43 130
44 90
45 249
46 35
47 49
49 0
50 35
51 62
52 16
53 8
54 4
55 71
57 27
58 64
59 105
60 34
61 22
62 27
63 83
64 35
65 37
67 20
69 39
70 9
71 25
72 37
73 434
74 159
75 214
76 102
77 111
78 36
79 51
80 27
81 73
82 44
83 83
84 24
85 71
86 87
87 73
88 111
89 101
90 34
91 105
92 37
93 96
94 44
95 88
96 39
98 19
99 63
100 105
101 108
102 92
103 49
104 19
105 132
106 70
107 116
108 5
109 0
110 26
111 20
113 64
114 66
115 76
116 26
117 53
118 50
119 110
120 65
121 73
122 70
123 39
125 38
126 88
127 96
128 102
129 56
130 60
131 76
132 23
133 107
134 36
135 118
136 24
137 73
138 56
139 103
140 35
141 56
142 22
143 57
144 87
145 107
146 34
147 88
148 42
149 147
150 105
151 150
152 105
153 31
155 57
156 1
157 111
158 32
159 118
161 42
162 30
163 114
164 35
165 177
166 33
167 65
173 115
174 79
175 59
176 175
177 210
178 217
179 92
180 55
187 23
188 32
189 203
190 100
191 112
192 54
193 15
195 26
200 58
201 54
202 70
203 123
204 172
205 215
206 101
207 78
208 36
213 84
215 103
216 71
217 206
218 160
219 478
220 269
221 120
230 27
231 83
232 98
233 223
234 233
235 999
236 421
237 230
238 82
239 73
246 11
247 103
248 147
249 136
250 817
251 411
252 198
253 71

$$$$

     RDKit          2D

 18 18  0  0  0  0  0  0  0  0999 V2000
   -5.0593    5.1603    0.0000 C   0  0  0  0  0  0  0  0  0  0  0  0
   -5.6275    2.3356    0.0000 C   0  0  0  0  0  0  0  0  0  0  0  0
   -3.7049    1.4391    0.0000 C   0  0  0  0  0  0  0  0  0  0  0  0
   -1.7214    5.8033    0.0000 C   0  0  0  0  0  0  0  0  0  0  0  0
   -3.8347    5.9881    0.0000 C   0  0  0  0  0  0  0  0  0  0  0  0
   -4.1695    4.0891    0.0000 C   0  0  0  0  0  0  0  0  0  0  0  0
   -0.9421    4.8391    0.0000 C   0  0  0  0  0  0  0  0  0  0  0  0
    4.5889   -0.0600    0.0000 C   0  0  0  0  0  0  0  0  0  0  0  0
    4.5894    1.4408    0.0000 C   0  0  0  0  0  0  0  0  0  0  0  0
    3.2894   -0.8108    0.0000 C   0  0  0  0  0  0  0  0  0  0  0  0
    3.2903    2.1908    0.0000 C   0  0  0  0  0  0  0  0  0  0  0  0
    1.9903   -0.0608    0.0000 C   0  0  0  0  0  0  0  0  0  0  0  0
    0.6918    2.1900    0.0000 C   0  0  0  0  0  0  0  0  0  0  0  0
   -0.6073    2.9400    0.0000 C   0  0  0  0  0  0  0  0  0  0  0  0
    1.9908    1.4400    0.0000 C   0  0  0  0  0  0  0  0  0  0  0  0
   -4.2180    2.8486    0.0000 Si  0  0  0  0  0  4  0  0  0  0  0  0
   -2.8705    4.8391    0.0000 Si  0  0  0  0  0  4  0  0  0  0  0  0
   -1.9063    3.6900    0.0000 Si  0  0  0  0  0  4  0  0  0  0  0  0
  9  8  2  0
 10  8  1  0
 11  9  1  0
 12 10  2  0
 14 13  3  0
 15 11  2  0
 15 12  1  0
 15 13  1  0
 16  1  1  0
 16  2  1  0
 16  3  1  0
 17  4  1  0
 17  5  1  0
 17  6  1  0
 18  7  1  0
 18 14  1  0
 18 16  1  0
 18 17  1  0
M  END
>  <NAME>  (4938) 
2-(PHENYLETHYNYL)-1,1,1,2,3,3,3-HEPTAMETHYLTRISILANE

>  <SYNONYMS>  (4938) 


>  <SPECTRUM TYPE>  (4938) 
MS1

>  <INSTRUMENT TYPE>  (4938) 
EI-B

>  <INSTRUMENT>  (4938) 
JEOL JMS-D-3000

>  <ION MODE>  (4938) 
P

>  <INCHIKEY>  (4938) 
CLDYVJDWBYFRLX-UHFFFAOYSA-N

>  <FORMULA>  (4938) 
C15H26Si3

>  <EXACT MASS>  (4938) 
290.134230422

>  <MW>  (4938) 
290

>  <ID>  (4938) 
JP002354

>  <CONTRIBUTOR>  (4938) 
University of Tokyo Team, {Faculty of Engineering, University of Tokyo

>  <COMMENT>  (4938) 
SMILES=c(c1)ccc(c1)C#C[Si](C)([Si](C)(C)C)[Si](C)(C)C
InChI=InChI=1S/C15H26Si3/c1-16(2,3)18(7,17(4,5)6)14-13-15-11-9-8-10-12-15/h8-12H,1-7H3
computed SMILES=C(#C[Si](C)([Si](C)(C)C)[Si](C)(C)C)C=1C=CC=CC1
accession=JP002354
date=2016.01.19 (Created 2008.10.21, modified 2011.05.06)
author=MASS SPECTROSCOPY SOC. OF JAPAN (MSSJ)
license=CC BY-NC-SA
exact mass=290.13423
ionization energy=70 eV
ion type=[M]+*
computed spectral entropy=3.2336129021811315
computed normalized entropy=0.7804749581478008
SPLASH=splash10-01b9-7930000000-356a7593c6fbba17f990
submitter=submitter = University of Tokyo Team (Faculty of Engineering, University of Tokyo)
MoNA Rating=3.75

>  <NUM PEAKS>  (4938) 
63

>  <MASS SPECTRAL PEAKS>  (4938) 
43 14.77
45 21.85
46 1.3
47 1.52
53 3.12
55 1.45
59 6.59
67 1.22
69 1.24
73 99.99
74 8.32
75 9.68
76 1.52
77 1.36
83 1.5
85 1.53
91 1.25
93 1.43
99 2.2
101 7.88
102 4.26
103 2.04
105 7
115 2.87
116 69.85
117 11.11
118 5.56
119 1.29
125 1
129 8.59
130 1.67
131 6.27
132 1.01
133 1.08
135 24.7
136 3.26
137 1.05
140 7.15
141 1.5
142 1.03
143 2.19
145 3.91
155 3.3
159 25.17
160 4.08
161 1.82
175 1.01
177 2.24
187 6.76
188 1.34
191 2.59
201 2.06
202 3.16
203 1.11
217 27.47
218 6.91
219 2.79
275 9.28
276 2.91
277 1.49
290 17.24
291 5.71
292 2.66

>  <PREDICTED SPECTRUM>  (4938) 
29 81
31 33
43 260
44 11
45 298
46 10
51 30
53 42
55 94
57 140
58 121
59 323
60 29
63 55
65 14
67 6
69 136
71 50
72 13
73 999
74 266
75 198
76 8
77 125
83 18
85 87
87 48
89 59
91 2
93 11
97 13
99 94
100 50
101 185
102 110
103 154
104 33
105 149
113 30
115 174
116 620
117 365
118 118
119 10
127 51
129 476
130 64
131 328
132 68
133 85
135 523
136 47
140 86
141 97
142 22
143 104
144 2
145 234
155 138
157 67
158 72
159 509
160 290
161 150
162 7
163 16
175 35
177 233
178 37
187 324
188 60
189 136
191 70
201 49
202 196
203 94
216 94
217 549
218 243
219 161
275 282
276 210
277 119
278 15
290 499
291 279
292 151
293 63

$$$$

     RDKit          2D

 15 16  0  0  0  0  0  0  0  0999 V2000
    3.8981   -0.7504    0.0000 C   0  0  0  0  0  0  0  0  0  0  0  0
    1.6346   -2.6491    0.0000 C   0  0  0  0  0  0  0  0  0  0  0  0
   -1.3000    0.7500    0.0000 C   0  0  0  0  0  0  0  0  0  0  0  0
    5.4931   -4.9482    0.0000 C   0  0  0  0  0  0  0  0  0  0  0  0
    0.0000    1.5000    0.0000 C   0  0  0  0  0  0  0  0  0  0  0  0
   -1.3000   -0.7500    0.0000 C   0  0  0  0  0  0  0  0  0  0  0  0
    4.0150   -5.2084    0.0000 C   0  0  0  0  0  0  0  0  0  0  0  0
    6.0061   -3.5387    0.0000 C   0  0  0  0  0  0  0  0  0  0  0  0
    1.3000    0.7500    0.0000 C   0  0  0  0  0  0  0  0  0  0  0  0
    0.0000   -1.5000    0.0000 C   0  0  0  0  0  0  0  0  0  0  0  0
    3.0499   -4.0590    0.0000 C   0  0  0  0  0  0  0  0  0  0  0  0
    5.0410   -2.3893    0.0000 C   0  0  0  0  0  0  0  0  0  0  0  0
    1.3000   -0.7500    0.0000 C   0  0  0  0  0  0  0  0  0  0  0  0
    3.5629   -2.6494    0.0000 C   0  0  0  0  0  0  0  0  0  0  0  0
    2.5989   -1.5002    0.0000 Si  0  0  0  0  0  4  0  0  0  0  0  0
  5  3  2  0
  6  3  1  0
  7  4  2  0
  8  4  1  0
  9  5  1  0
 10  6  2  0
 11  7  1  0
 12  8  2  0
 13  9  2  0
 13 10  1  0
 14 11  2  0
 14 12  1  0
 15  1  1  0
 15  2  1  0
 15 13  1  0
 15 14  1  0
M  END
>  <NAME>  (4939) 
DIMETHYLDIPHENYLSILANE

>  <SYNONYMS>  (4939) 


>  <SPECTRUM TYPE>  (4939) 
MS1

>  <INSTRUMENT TYPE>  (4939) 
EI-B

>  <INSTRUMENT>  (4939) 
JEOL JMS-D-3000

>  <ION MODE>  (4939) 
P

>  <INCHIKEY>  (4939) 
WJKVFIFBAASZJX-UHFFFAOYSA-N

>  <FORMULA>  (4939) 
C14H16Si

>  <EXACT MASS>  (4939) 
212.102127042

>  <MW>  (4939) 
212

>  <ID>  (4939) 
JP002353

>  <CONTRIBUTOR>  (4939) 
University of Tokyo Team, {Faculty of Engineering, University of Tokyo

>  <COMMENT>  (4939) 
SMILES=c(c2)ccc(c2)[Si](C)(C)c(c1)cccc1
InChI=InChI=1S/C14H16Si/c1-15(2,13-9-5-3-6-10-13)14-11-7-4-8-12-14/h3-12H,1-2H3
computed SMILES=C=1C=CC(=CC1)[Si](C=2C=CC=CC2)(C)C
accession=JP002353
date=2016.01.19 (Created 2008.10.21, modified 2011.05.06)
author=MASS SPECTROSCOPY SOC. OF JAPAN (MSSJ)
license=CC BY-NC-SA
exact mass=212.10213
ionization energy=70 eV
ion type=[M]+*
computed spectral entropy=2.5871127212515237
computed normalized entropy=0.7164695470346535
SPLASH=splash10-0002-2900000000-061c63df9a24362f818f
submitter=submitter = University of Tokyo Team (Faculty of Engineering, University of Tokyo)
MoNA Rating=3.75

>  <NUM PEAKS>  (4939) 
37

>  <MASS SPECTRAL PEAKS>  (4939) 
43 9.76
50 1.21
51 2.44
53 7.66
65 1.19
67 2.02
69 1.15
77 1.65
78 2.36
79 2.9
91 3.13
93 5.77
95 1.32
97 1.77
98 2.63
103 1.56
105 13.36
106 3.85
107 2.77
117 1.11
119 5.56
120 1.21
129 1
135 8.7
136 1.5
137 1.04
155 1.4
165 4.02
180 1.79
181 3.81
193 1.34
195 5.08
197 99.99
198 20.33
199 5.5
212 16.33
213 3.42

>  <PREDICTED SPECTRUM>  (4939) 
26 0
27 13
29 42
31 20
38 4
39 46
43 101
44 40
45 100
50 80
51 129
52 55
53 126
54 23
55 37
57 49
58 22
59 44
61 39
62 30
63 75
64 14
65 47
66 35
67 56
68 20
69 63
71 1
73 26
74 41
75 85
76 66
77 180
78 81
79 82
81 41
83 37
84 13
85 61
86 15
89 29
91 105
92 32
93 34
95 56
99 41
102 35
103 71
104 27
105 263
106 59
107 103
109 43
115 8
117 32
119 274
120 148
121 174
122 27
127 56
133 127
134 184
135 343
136 149
137 107
139 0
152 35
154 12
165 3
167 114
169 1
171 23
179 49
180 72
181 179
182 113
195 155
196 30
197 999
198 319
199 253
200 35
211 12
212 438
213 190
214 36

$$$$

     RDKit          2D

 15 16  0  0  0  0  0  0  0  0999 V2000
    3.8981   -0.7504    0.0000 C   0  0  0  0  0  0  0  0  0  0  0  0
    1.6346   -2.6491    0.0000 C   0  0  0  0  0  0  0  0  0  0  0  0
   -1.3000    0.7500    0.0000 C   0  0  0  0  0  0  0  0  0  0  0  0
    5.4931   -4.9482    0.0000 C   0  0  0  0  0  0  0  0  0  0  0  0
    0.0000    1.5000    0.0000 C   0  0  0  0  0  0  0  0  0  0  0  0
   -1.3000   -0.7500    0.0000 C   0  0  0  0  0  0  0  0  0  0  0  0
    4.0150   -5.2084    0.0000 C   0  0  0  0  0  0  0  0  0  0  0  0
    6.0061   -3.5387    0.0000 C   0  0  0  0  0  0  0  0  0  0  0  0
    1.3000    0.7500    0.0000 C   0  0  0  0  0  0  0  0  0  0  0  0
    0.0000   -1.5000    0.0000 C   0  0  0  0  0  0  0  0  0  0  0  0
    3.0499   -4.0590    0.0000 C   0  0  0  0  0  0  0  0  0  0  0  0
    5.0410   -2.3893    0.0000 C   0  0  0  0  0  0  0  0  0  0  0  0
    1.3000   -0.7500    0.0000 C   0  0  0  0  0  0  0  0  0  0  0  0
    3.5629   -2.6494    0.0000 C   0  0  0  0  0  0  0  0  0  0  0  0
    2.5989   -1.5002    0.0000 Ge  0  0  0  0  0  4  0  0  0  0  0  0
  5  3  2  0
  6  3  1  0
  7  4  2  0
  8  4  1  0
  9  5  1  0
 10  6  2  0
 11  7  1  0
 12  8  2  0
 13  9  2  0
 13 10  1  0
 14 11  2  0
 14 12  1  0
 15  1  1  0
 15  2  1  0
 15 13  1  0
 15 14  1  0
M  END
>  <NAME>  (4940) 
DIMETHYLDIPHENYLGERMANE

>  <SYNONYMS>  (4940) 


>  <SPECTRUM TYPE>  (4940) 
MS1

>  <INSTRUMENT TYPE>  (4940) 
EI-B

>  <INSTRUMENT>  (4940) 
JEOL JMS-D-3000

>  <ION MODE>  (4940) 
P

>  <INCHIKEY>  (4940) 
QTOKZEXKYJMZND-UHFFFAOYSA-N

>  <FORMULA>  (4940) 
C14H16Ge

>  <EXACT MASS>  (4940) 
258.046378312

>  <MW>  (4940) 
258

>  <ID>  (4940) 
JP002352

>  <CONTRIBUTOR>  (4940) 
University of Tokyo Team, {Faculty of Engineering, University of Tokyo

>  <COMMENT>  (4940) 
SMILES=c(c2)ccc(c2)[Ge](C)(C)c(c1)cccc1
InChI=InChI=1S/C14H16Ge/c1-15(2,13-9-5-3-6-10-13)14-11-7-4-8-12-14/h3-12H,1-2H3
computed SMILES=C=1C=CC(=CC1)[Ge](C=2C=CC=CC2)(C)C
accession=JP002352
date=2016.01.19 (Created 2008.10.21, modified 2011.05.06)
author=MASS SPECTROSCOPY SOC. OF JAPAN (MSSJ)
license=CC BY-NC-SA
exact mass=258.04638
ionization energy=70 eV
ion type=[M]+*
computed spectral entropy=3.041467940526439
computed normalized entropy=0.7624668098500081
SPLASH=splash10-0006-1290000000-81a384afeb9499de41a7
submitter=submitter = University of Tokyo Team (Faculty of Engineering, University of Tokyo)
MoNA Rating=3.75

>  <NUM PEAKS>  (4940) 
54

>  <MASS SPECTRAL PEAKS>  (4940) 
50 1.53
51 4.56
65 2.18
77 2.31
78 3.13
85 2.71
87 3.66
88 1.1
89 4.72
91 6.23
95 2.22
97 3.08
99 3.99
101 1.1
121 2.22
123 2.83
124 1.06
125 3.12
139 1.03
147 12.37
148 1.58
149 15.68
150 6.14
151 20.18
152 3.69
153 5.07
154 2.07
163 1.12
165 1.99
167 1.05
177 3.46
179 4.45
180 1.62
181 6.03
183 1.36
222 1.12
223 5.28
224 2.64
225 7.64
226 5.2
227 9.68
228 2.54
229 2.33
239 56.84
240 8.83
241 74.53
242 32.01
243 99.99
244 15
245 21.84
246 3.33
254 1.31
256 1.71
258 2.32

>  <PREDICTED SPECTRUM>  (4940) 
15 7
39 32
40 2
41 7
43 9
50 54
51 208
55 3
56 1
63 88
65 67
66 5
69 82
70 43
71 59
73 76
74 64
75 30
76 25
77 245
78 116
83 33
85 142
86 6
87 264
88 72
89 269
91 366
95 67
97 15
98 58
99 2
100 42
101 140
102 105
103 126
104 103
105 71
106 29
107 97
109 90
111 40
112 20
115 39
120 4
121 163
122 25
123 28
124 42
125 131
127 10
130 63
135 2
139 181
147 294
148 65
149 356
150 186
151 453
152 123
153 323
154 76
158 4
162 9
163 91
165 191
166 75
167 30
175 12
177 110
179 140
181 180
183 42
209 5
211 63
213 55
223 49
224 113
225 278
226 203
227 248
228 92
229 51
237 73
239 717
240 114
241 928
242 558
243 999
244 376
245 535
246 195
247 72
254 124
256 91
257 10
258 96
259 59
260 35

$$$$

     RDKit          2D

 14 13  0  0  0  0  0  0  0  0999 V2000
    1.7205   -0.6081    0.0000 C   0  0  0  0  0  0  0  0  0  0  0  0
    0.2205    1.9900    0.0000 C   0  0  0  0  0  0  0  0  0  0  0  0
   -0.3286   -0.0591    0.0000 C   0  0  0  0  0  0  0  0  0  0  0  0
    0.2205    2.8719    0.0000 C   0  0  0  0  0  0  0  0  0  0  0  0
   -0.3286    4.9209    0.0000 C   0  0  0  0  0  0  0  0  0  0  0  0
    1.7205    5.4700    0.0000 C   0  0  0  0  0  0  0  0  0  0  0  0
    2.8186    5.4700    0.0000 C   0  0  0  0  0  0  0  0  0  0  0  0
    4.8676    4.9209    0.0000 C   0  0  0  0  0  0  0  0  0  0  0  0
    2.2695    1.4409    0.0000 C   0  0  0  0  0  0  0  0  0  0  0  0
    2.2695    3.4209    0.0000 C   0  0  0  0  0  0  0  0  0  0  0  0
    0.9705    0.6909    0.0000 C   0  0  0  0  0  0  0  0  0  0  0  0
    4.3186    2.8719    0.0000 Cl  0  0  0  0  0  0  0  0  0  0  0  0
    0.9705    4.1709    0.0000 Si  0  0  0  0  0  4  0  0  0  0  0  0
    3.5686    4.1709    0.0000 Si  0  0  0  0  0  4  0  0  0  0  0  0
  9 10  2  0
 11  1  1  0
 11  2  1  0
 11  3  1  0
 11  9  1  0
 13  4  1  0
 13  5  1  0
 13  6  1  0
 13 10  1  0
 14  7  1  0
 14  8  1  0
 14 10  1  0
 14 12  1  0
M  END
>  <NAME>  (4941) 
(E)-1-CHLORODIMETHYLSILYL-1-TRIMETHYLSILYL-3,3-DIMETHYL-1-BUTENE

>  <SYNONYMS>  (4941) 


>  <SPECTRUM TYPE>  (4941) 
MS1

>  <INSTRUMENT TYPE>  (4941) 
EI-B

>  <INSTRUMENT>  (4941) 
JEOL JMS-D-3000

>  <ION MODE>  (4941) 
P

>  <INCHIKEY>  (4941) 
DWNGYQWUOSDVAC-MDZDMXLPSA-N

>  <FORMULA>  (4941) 
C11H25ClSi2

>  <EXACT MASS>  (4941) 
248.11833153999999

>  <MW>  (4941) 
248

>  <ID>  (4941) 
JP002351

>  <CONTRIBUTOR>  (4941) 
University of Tokyo Team, {Faculty of Engineering, University of Tokyo

>  <COMMENT>  (4941) 
SMILES=CC(C)(C)C([H])=C([Si](C)(C)C)[Si](C)(C)Cl
InChI=InChI=1S/C11H25ClSi2/c1-11(2,3)9-10(13(4,5)6)14(7,8)12/h9H,1-8H3/b10-9+
computed SMILES=Cl[Si](C(=CC(C)(C)C)[Si](C)(C)C)(C)C
accession=JP002351
date=2016.01.19 (Created 2008.10.21, modified 2011.05.06)
author=MASS SPECTROSCOPY SOC. OF JAPAN (MSSJ)
license=CC BY-NC-SA
exact mass=248.11833
ionization energy=70 eV
ion type=[M]+*
computed spectral entropy=2.9725426942908317
computed normalized entropy=0.7678605905286479
SPLASH=splash10-00gi-9510000000-2bed7a4ed277effa37ed
submitter=submitter = University of Tokyo Team (Faculty of Engineering, University of Tokyo)
MoNA Rating=3.75

>  <NUM PEAKS>  (4941) 
48

>  <MASS SPECTRAL PEAKS>  (4941) 
43 2.71
45 8.51
55 1.21
56 1.1
57 10.41
58 1.01
59 7.52
63 1.24
65 2.16
67 2.18
69 1.27
72 1.8
73 99.99
74 8.79
75 7.58
79 1.03
83 50.34
84 5.25
85 5.56
93 7.95
95 3.64
97 18.5
98 11.46
99 3.91
100 2.46
109 2.53
112 1.71
117 1.8
123 2.42
124 1.52
125 52.83
126 7.14
127 2.4
133 1.37
139 29.37
140 37.51
141 6.71
142 1.74
175 1.37
191 1.99
213 1.24
215 1.21
233 19.54
234 4.26
235 7.97
236 1.78
248 3.85
250 1.69

>  <PREDICTED SPECTRUM>  (4941) 
27 16
28 20
29 58
31 4
39 60
41 63
43 151
44 103
45 242
46 12
47 5
51 35
52 24
53 76
54 34
55 94
56 18
57 251
58 54
59 357
60 39
61 29
63 93
65 204
66 101
67 186
68 36
69 29
70 28
71 87
72 70
73 999
74 256
75 197
77 26
78 112
79 175
80 86
81 160
83 82
85 140
87 9
91 13
92 43
93 909
94 264
95 590
96 102
97 191
98 10
99 78
103 58
104 66
105 198
106 88
109 3
111 9
112 0
113 75
115 68
117 67
118 27
119 109
120 112
121 111
122 28
123 141
125 164
126 24
127 111
129 113
130 1
131 88
133 21
139 145
140 190
141 290
142 156
143 80
147 22
155 212
156 134
157 34
158 4
159 28
161 42
163 33
165 37
167 59
181 70
191 197
192 152
193 259
194 103
195 118
197 105
205 14
233 155
235 57
248 263
249 70
250 80
251 5

$$$$

     RDKit          2D

 12 11  0  0  0  0  0  0  0  0999 V2000
    2.6403    0.7450    0.0000 C   0  0  0  0  0  0  0  0  0  0  0  0
   -3.1108    3.7153    0.0000 C   0  0  0  0  0  0  0  0  0  0  0  0
   -3.6789    0.8906    0.0000 C   0  0  0  0  0  0  0  0  0  0  0  0
   -1.7564   -0.0059    0.0000 C   0  0  0  0  0  0  0  0  0  0  0  0
    0.2271    4.3583    0.0000 C   0  0  0  0  0  0  0  0  0  0  0  0
   -1.8861    4.5431    0.0000 C   0  0  0  0  0  0  0  0  0  0  0  0
   -2.2210    2.6441    0.0000 C   0  0  0  0  0  0  0  0  0  0  0  0
    1.0064    3.3941    0.0000 C   0  0  0  0  0  0  0  0  0  0  0  0
    1.3413    1.4950    0.0000 C   0  0  0  0  0  0  0  0  0  0  0  0
   -2.2694    1.4036    0.0000 Si  0  0  0  0  0  4  0  0  0  0  0  0
   -0.9219    3.3941    0.0000 Si  0  0  0  0  0  4  0  0  0  0  0  0
    0.0423    2.2450    0.0000 Si  0  0  0  0  0  4  0  0  0  0  0  0
  9  1  3  0
 10  2  1  0
 10  3  1  0
 10  4  1  0
 11  5  1  0
 11  6  1  0
 11  7  1  0
 12  8  1  0
 12  9  1  0
 12 10  1  0
 12 11  1  0
M  END
>  <NAME>  (4942) 
2-ETHYNYL-1,1,1,2,3,3,3-HEPTAMETHYLTRISILANE

>  <SYNONYMS>  (4942) 


>  <SPECTRUM TYPE>  (4942) 
MS1

>  <INSTRUMENT TYPE>  (4942) 
EI-B

>  <INSTRUMENT>  (4942) 
JEOL JMS-D-3000

>  <ION MODE>  (4942) 
P

>  <INCHIKEY>  (4942) 
PWGUZZBESIYXHZ-UHFFFAOYSA-N

>  <FORMULA>  (4942) 
C9H22Si3

>  <EXACT MASS>  (4942) 
214.10293029399998

>  <MW>  (4942) 
214

>  <ID>  (4942) 
JP002350

>  <CONTRIBUTOR>  (4942) 
University of Tokyo Team, {Faculty of Engineering, University of Tokyo

>  <COMMENT>  (4942) 
SMILES=C#C[Si](C)([Si](C)(C)C)[Si](C)(C)C
InChI=InChI=1S/C9H22Si3/c1-9-12(8,10(2,3)4)11(5,6)7/h1H,2-8H3
computed SMILES=C#C[Si](C)([Si](C)(C)C)[Si](C)(C)C
accession=JP002350
date=2016.01.19 (Created 2008.10.21, modified 2011.05.06)
author=MASS SPECTROSCOPY SOC. OF JAPAN (MSSJ)
license=CC BY-NC-SA
exact mass=214.10293
ionization energy=70 eV
ion type=[M]+*
computed spectral entropy=3.0646924340674966
computed normalized entropy=0.7834034794312478
SPLASH=splash10-00xr-5910000000-24a34ecdbf8231deb9fd
submitter=submitter = University of Tokyo Team (Faculty of Engineering, University of Tokyo)
MoNA Rating=3.75

>  <NUM PEAKS>  (4942) 
50

>  <MASS SPECTRAL PEAKS>  (4942) 
43 4.72
45 12.08
46 1.08
53 1.53
55 2.12
59 1.91
67 1.88
69 2.46
71 1.04
72 1.02
73 99.99
74 6.78
75 5.81
81 1.17
83 10.62
84 1.37
85 3.67
95 1.04
97 2.11
99 3.07
101 11.36
102 1.66
111 13.68
112 2.15
113 2.4
115 3.87
116 66.34
117 10.45
118 5.34
125 6.36
126 7.41
127 2.29
129 1.98
131 2.75
139 1.17
140 17.15
141 24.59
142 5.38
143 2.07
155 19.63
156 3.7
157 2.07
171 1.59
183 1.1
199 32.56
200 8.4
201 4.31
214 24.71
215 6.91
216 3.24

>  <PREDICTED SPECTRUM>  (4942) 
15 0
28 0
29 56
31 27
32 2
43 229
44 34
45 311
46 31
52 32
53 81
54 1
55 113
56 28
57 111
58 106
59 278
60 37
66 19
67 103
68 7
69 144
71 5
72 7
73 999
74 277
75 183
79 23
81 19
82 27
83 207
84 59
85 162
87 26
95 126
96 34
97 89
98 29
99 121
100 105
101 202
102 70
111 322
112 107
113 129
114 56
115 261
116 591
117 395
118 96
125 192
126 285
127 180
128 68
129 109
131 344
139 66
140 309
141 507
142 261
143 115
145 5
155 144
156 114
157 18
183 17
199 566
200 288
201 210
202 65
214 441
215 242
216 139
217 27

$$$$

     RDKit          2D

  3  2  0  0  0  0  0  0  0  0999 V2000
   -0.0000    0.7500    0.0000 C   0  0  0  0  0  0  0  0  0  0  0  0
   -1.2990    0.0000    0.0000 Cl  0  0  0  0  0  0  0  0  0  0  0  0
    0.0000    2.2500    0.0000 Cl  0  0  0  0  0  0  0  0  0  0  0  0
  2  1  1  0
  3  1  1  0
M  END
>  <NAME>  (4943) 
DICHLOROMETHANE

>  <SYNONYMS>  (4943) 


>  <SPECTRUM TYPE>  (4943) 
MS1

>  <INSTRUMENT TYPE>  (4943) 
EI-B

>  <INSTRUMENT>  (4943) 
JEOL JMS-D-3000

>  <ION MODE>  (4943) 
P

>  <INCHIKEY>  (4943) 
YMWUJEATGCHHMB-UHFFFAOYSA-N

>  <FORMULA>  (4943) 
CH2Cl2

>  <EXACT MASS>  (4943) 
83.953355424

>  <MW>  (4943) 
84

>  <ID>  (4943) 
JP002342

>  <CONTRIBUTOR>  (4943) 
University of Tokyo Team, {Faculty of Engineering, University of Tokyo

>  <COMMENT>  (4943) 
SMILES=ClCCl
InChI=InChI=1S/CH2Cl2/c2-1-3/h1H2
computed SMILES=ClCCl
accession=JP002342
date=2016.01.19 (Created 2008.10.21, modified 2011.05.06)
author=MASS SPECTROSCOPY SOC. OF JAPAN (MSSJ)
license=CC BY-NC-SA
exact mass=83.95336
ionization energy=70 eV
ion type=[M]+*
computed spectral entropy=1.7441058735771051
computed normalized entropy=0.7273486433549343
SPLASH=splash10-000t-9000000000-3c727a0b79ead1d0afc9
submitter=submitter = University of Tokyo Team (Faculty of Engineering, University of Tokyo)
MoNA Rating=3.75

>  <NUM PEAKS>  (4943) 
11

>  <MASS SPECTRAL PEAKS>  (4943) 
42 3
47 13.31
48 7.4
49 99.99
50 3.41
51 30.9
83 1.82
84 57.85
85 1.93
86 36.56
88 5.94

>  <PREDICTED SPECTRUM>  (4943) 
14 129
15 9
25 98
26 52
28 60
32 36
33 19
35 413
36 423
37 462
38 303
39 217
47 453
48 364
49 999
50 626
51 926
52 280
53 230
55 40
63 221
65 92
67 69
82 108
83 74
84 687
85 297
86 638
87 208
88 261
89 46

$$$$

     RDKit          2D

  3  2  0  0  0  0  0  0  0  0999 V2000
   -0.0000    0.7500    0.0000 C   0  0  0  0  0  0  0  0  0  0  0  0
   -1.2990    0.0000    0.0000 Br  0  0  0  0  0  0  0  0  0  0  0  0
    0.0000    2.2500    0.0000 Br  0  0  0  0  0  0  0  0  0  0  0  0
  2  1  1  0
  3  1  1  0
M  END
>  <NAME>  (4944) 
DIBROMOMETHANE

>  <SYNONYMS>  (4944) 


>  <SPECTRUM TYPE>  (4944) 
MS1

>  <INSTRUMENT TYPE>  (4944) 
EI-B

>  <INSTRUMENT>  (4944) 
JEOL JMS-D-3000

>  <ION MODE>  (4944) 
P

>  <INCHIKEY>  (4944) 
FJBFPHVGVWTDIP-UHFFFAOYSA-N

>  <FORMULA>  (4944) 
CH2Br2

>  <EXACT MASS>  (4944) 
171.852324264

>  <MW>  (4944) 
172

>  <ID>  (4944) 
JP002341

>  <CONTRIBUTOR>  (4944) 
University of Tokyo Team, {Faculty of Engineering, University of Tokyo

>  <COMMENT>  (4944) 
SMILES=BrCBr
InChI=InChI=1S/CH2Br2/c2-1-3/h1H2
computed SMILES=BrCBr
accession=JP002341
date=2016.01.19 (Created 2008.10.21, modified 2011.05.06)
author=MASS SPECTROSCOPY SOC. OF JAPAN (MSSJ)
license=CC BY-NC-SA
exact mass=171.85233
ionization energy=70 eV
ion type=[M]+*
computed spectral entropy=1.9997029376625473
computed normalized entropy=0.6918497360069991
SPLASH=splash10-00di-7900000000-459bcfcdc5499e25c899
submitter=submitter = University of Tokyo Team (Faculty of Engineering, University of Tokyo)
MoNA Rating=3.75

>  <NUM PEAKS>  (4944) 
18

>  <MASS SPECTRAL PEAKS>  (4944) 
79 7.26
80 1.18
81 7.48
82 1.07
87 1.33
91 8.36
92 3.69
93 74.59
94 4.27
95 65.24
158 1.03
160 2.01
162 1.03
172 51.98
173 1.93
174 99.99
175 1.8
176 48.78

>  <PREDICTED SPECTRUM>  (4944) 
14 95
15 162
16 24
18 17
25 36
26 119
30 46
31 73
32 8
38 180
39 149
41 50
42 1
53 5
54 10
55 20
66 119
67 131
68 62
69 62
79 390
80 207
81 509
82 219
92 183
93 610
94 201
95 999
96 165
97 200
159 27
161 30
172 324
173 23
174 484
175 58
176 357
177 4

$$$$

     RDKit          2D

  4  3  0  0  0  0  0  0  0  0999 V2000
   -0.3248    1.3125    0.0000 C   0  0  0  0  0  0  0  0  0  0  0  0
    0.9743    0.5625    0.0000 Cl  0  0  0  0  0  0  0  0  0  0  0  0
   -1.6238    0.5625    0.0000 Cl  0  0  0  0  0  0  0  0  0  0  0  0
   -0.3248    2.8125    0.0000 Cl  0  0  0  0  0  0  0  0  0  0  0  0
  2  1  1  0
  3  1  1  0
  4  1  1  0
M  END
>  <NAME>  (4945) 
CHLOROFORM

>  <SYNONYMS>  (4945) 


>  <SPECTRUM TYPE>  (4945) 
MS1

>  <INSTRUMENT TYPE>  (4945) 
EI-B

>  <INSTRUMENT>  (4945) 
JEOL JMS-D-3000

>  <ION MODE>  (4945) 
P

>  <INCHIKEY>  (4945) 
HEDRZPFGACZZDS-UHFFFAOYSA-N

>  <FORMULA>  (4945) 
CHCl3

>  <EXACT MASS>  (4945) 
117.91438307199999

>  <MW>  (4945) 
118

>  <ID>  (4945) 
JP002340

>  <CONTRIBUTOR>  (4945) 
University of Tokyo Team, {Faculty of Engineering, University of Tokyo

>  <COMMENT>  (4945) 
SMILES=ClC(Cl)Cl
InChI=InChI=1S/CHCl3/c2-1(3)4/h1H
computed SMILES=ClC(Cl)Cl
ionization energy=70 eV
ion type=[M]+*
accession=JP002340
date=2016.01.19 (Created 2008.10.21, modified 2011.05.06)
author=MASS SPECTROSCOPY SOC. OF JAPAN (MSSJ)
license=CC BY-NC-SA
exact mass=117.91438
computed spectral entropy=1.7284734027300344
computed normalized entropy=0.654958641228921
SPLASH=splash10-001r-9000000000-4c60f1e48cbdf424460b
submitter=submitter = University of Tokyo Team (Faculty of Engineering, University of Tokyo)
MoNA Rating=3.75

>  <NUM PEAKS>  (4945) 
14

>  <MASS SPECTRAL PEAKS>  (4945) 
47 25.98
48 13.39
49 9
50 4.47
82 3.78
83 99.99
84 3.5
85 65.55
86 1.1
87 10.41
117 1.21
118 1.98
119 1.23
120 2

>  <PREDICTED SPECTRUM>  (4945) 
14 29
15 38
16 6
25 65
26 53
31 77
32 5
33 0
35 344
36 155
37 206
38 21
39 88
47 333
48 254
49 264
50 230
51 184
52 59
53 25
60 57
81 58
82 168
83 999
84 225
85 705
86 60
87 285
89 1
118 193
120 205
122 113

$$$$

     RDKit          2D

 12 12  0  0  0  0  0  0  0  0999 V2000
   -2.8427    1.4898    0.0000 C   0  0  0  0  0  0  0  0  0  0  0  0
    0.2749   -2.0308    0.0000 C   0  0  0  0  0  0  0  0  0  0  0  0
    2.3253   -1.4869    0.0000 C   0  0  0  0  0  0  0  0  0  0  0  0
    1.7815    0.5635    0.0000 C   0  0  0  0  0  0  0  0  0  0  0  0
   -0.2768    4.4798    0.0000 C   0  0  0  0  0  0  0  0  0  0  0  0
    1.0061    3.7521    0.0000 C   0  0  0  0  0  0  0  0  0  0  0  0
   -1.5539    3.7274    0.0000 C   0  0  0  0  0  0  0  0  0  0  0  0
    1.0423    2.2525    0.0000 C   0  0  0  0  0  0  0  0  0  0  0  0
   -1.5481    2.2473    0.0000 C   0  0  0  0  0  0  0  0  0  0  0  0
   -0.2652    1.5196    0.0000 C   0  0  0  0  0  0  0  0  0  0  0  0
    1.0282   -0.7337    0.0000 C   0  0  0  0  0  0  0  0  0  0  0  0
   -0.2689    0.0196    0.0000 N   0  0  0  0  0  0  0  0  0  0  0  0
  6  5  1  0
  7  5  1  0
  8  6  1  0
  9  1  1  0
  9  7  1  0
 10  8  1  0
 10  9  1  0
 11  2  1  0
 11  3  1  0
 11  4  1  0
 10 12  2  0
 12 11  1  0
M  END
>  <NAME>  (4946) 
N-(TERT-BUTYL)-2-METHYLCYCLOHEXANIMINE

>  <SYNONYMS>  (4946) 


>  <SPECTRUM TYPE>  (4946) 
MS1

>  <INSTRUMENT TYPE>  (4946) 
EI-B

>  <INSTRUMENT>  (4946) 
JEOL JMS-D-3000

>  <ION MODE>  (4946) 
P

>  <INCHIKEY>  (4946) 
KFNAZWBIFXRKJD-ZRDIBKRKSA-N

>  <FORMULA>  (4946) 
C11H21N

>  <EXACT MASS>  (4946) 
167.167399672

>  <MW>  (4946) 
167

>  <ID>  (4946) 
JP002338

>  <CONTRIBUTOR>  (4946) 
University of Tokyo Team, {Faculty of Engineering, University of Tokyo

>  <COMMENT>  (4946) 
SMILES=CC(C1)C(CCC1)=NC(C)(C)C
InChI=InChI=1S/C11H21N/c1-9-7-5-6-8-10(9)12-11(2,3)4/h9H,5-8H2,1-4H3/b12-10+
computed SMILES=N(=C1CCCCC1C)C(C)(C)C
accession=JP002338
date=2016.01.19 (Created 2008.10.21, modified 2011.05.06)
author=MASS SPECTROSCOPY SOC. OF JAPAN (MSSJ)
license=CC BY-NC-SA
exact mass=167.1674
ionization energy=70 eV
ion type=[M]+*
computed spectral entropy=2.7649864348120374
computed normalized entropy=0.8389330380190018
SPLASH=splash10-0a4i-9300000000-e0573e0e1b7a41fd90df
submitter=submitter = University of Tokyo Team (Faculty of Engineering, University of Tokyo)
MoNA Rating=3.75

>  <NUM PEAKS>  (4946) 
27

>  <MASS SPECTRAL PEAKS>  (4946) 
42 29.35
44 1.8
53 1.96
54 8.29
55 8.62
56 11.19
57 99.99
58 13.23
67 4.12
68 10.91
69 7.05
70 1.46
82 15.04
83 28.63
84 2.39
95 7.28
96 30.91
97 2.61
110 12.37
111 18.88
112 11.16
124 12.82
125 1.96
152 25.96
153 3.02
167 23.98
168 3.13

>  <PREDICTED SPECTRUM>  (4946) 
27 51
28 24
29 194
39 201
40 124
41 685
42 384
43 369
44 115
50 11
51 97
52 86
53 230
54 248
55 614
56 473
57 999
58 259
65 99
66 80
67 315
68 434
69 369
70 229
77 112
82 337
83 469
84 227
85 70
94 144
95 96
96 583
97 183
98 36
109 12
110 422
111 811
112 281
124 318
125 160
152 642
153 172
167 531
168 161

$$$$

     RDKit          2D

 12 11  0  0  0  0  0  0  0  0999 V2000
   -7.4695    3.9375    0.0000 C   0  0  0  0  0  0  0  0  0  0  0  0
    1.6238    3.1875    0.0000 C   0  0  0  0  0  0  0  0  0  0  0  0
    0.3248    5.4375    0.0000 C   0  0  0  0  0  0  0  0  0  0  0  0
   -4.8714    5.4375    0.0000 C   0  0  0  0  0  0  0  0  0  0  0  0
   -0.9743    6.1875    0.0000 C   0  0  0  0  0  0  0  0  0  0  0  0
   -6.1704    3.1875    0.0000 C   0  0  0  0  0  0  0  0  0  0  0  0
   -0.9743    3.1875    0.0000 C   0  0  0  0  0  0  0  0  0  0  0  0
   -3.5724    3.1875    0.0000 C   0  0  0  0  0  0  0  0  0  0  0  0
    0.3248    3.9375    0.0000 C   0  0  0  0  0  0  0  0  0  0  0  0
   -4.8714    3.9375    0.0000 C   0  0  0  0  0  0  0  0  0  0  0  0
   -2.2733    3.9375    0.0000 C   0  0  0  0  0  0  0  0  0  0  0  0
   -2.2733    5.4375    0.0000 O   0  0  0  0  0  0  0  0  0  0  0  0
  6  1  2  0
  9  2  1  0
  9  3  1  0
  9  7  1  0
 10  4  2  0
 10  6  1  0
 10  8  1  0
 11  7  1  0
 11  8  1  0
 12  5  1  0
 12 11  1  0
M  END
>  <NAME>  (4947) 
5-METHOXY-7-METHYL-3-METHYLENEOCT-1-ENE

>  <SYNONYMS>  (4947) 


>  <SPECTRUM TYPE>  (4947) 
MS1

>  <INSTRUMENT TYPE>  (4947) 
EI-B

>  <INSTRUMENT>  (4947) 
JEOL JMS-D-3000

>  <ION MODE>  (4947) 
P

>  <INCHIKEY>  (4947) 
AYRYNESGTLKBAU-UHFFFAOYSA-N

>  <FORMULA>  (4947) 
C11H20O

>  <EXACT MASS>  (4947) 
168.15141526

>  <MW>  (4947) 
168

>  <ID>  (4947) 
JP002337

>  <CONTRIBUTOR>  (4947) 
University of Tokyo Team, {Faculty of Engineering, University of Tokyo

>  <COMMENT>  (4947) 
SMILES=C=CC(=C)CC(OC)CC(C)C
InChI=InChI=1S/C11H20O/c1-6-10(4)8-11(12-5)7-9(2)3/h6,9,11H,1,4,7-8H2,2-3,5H3
computed SMILES=O(C)C(CC(=C)C=C)CC(C)C
accession=JP002337
date=2016.01.19 (Created 2008.10.21, modified 2011.05.06)
author=MASS SPECTROSCOPY SOC. OF JAPAN (MSSJ)
license=CC BY-NC-SA
exact mass=168.15142
ionization energy=70 eV
ion type=[M]+*
computed spectral entropy=2.4885590933080075
computed normalized entropy=0.7731143506941289
SPLASH=splash10-1004-9300000000-f427ff74df47ed89ed20
submitter=submitter = University of Tokyo Team (Faculty of Engineering, University of Tokyo)
MoNA Rating=3.75

>  <NUM PEAKS>  (4947) 
25

>  <MASS SPECTRAL PEAKS>  (4947) 
42 28.86
43 26.02
45 51.55
53 9.96
55 4.96
58 3.75
59 52.57
65 2.61
67 5.83
69 91.89
70 4.77
71 14.35
77 5.15
79 12.99
80 2.84
81 12.57
82 3.71
85 3.71
93 3.63
101 99.99
102 6.7
111 2.91
112 3.59
136 2.65
168 4.05

>  <PREDICTED SPECTRUM>  (4947) 
15 21
26 26
27 279
28 28
29 289
31 63
33 60
38 37
39 509
40 172
41 984
42 286
43 999
45 925
46 79
47 16
50 71
51 243
52 110
53 428
54 228
55 710
56 222
57 540
58 274
59 430
63 8
65 313
66 154
67 652
68 240
69 372
70 32
75 101
77 370
78 123
79 476
80 241
81 721
82 495
83 783
84 54
85 937
86 183
87 399
88 359
90 51
91 64
93 310
95 51
96 13
97 164
98 6
101 173
105 108
109 126
110 17
111 521
112 184
113 467
117 67
121 94
123 60
124 4
125 55
127 190
134 27
136 106
141 5
153 106
155 2

$$$$

     RDKit          2D

 13 13  0  0  0  0  0  0  0  0999 V2000
    3.2481    0.7504    0.0000 C   0  0  0  0  0  0  0  0  0  0  0  0
    3.2474    5.2504    0.0000 C   0  0  0  0  0  0  0  0  0  0  0  0
   -1.9500    0.7500    0.0000 C   0  0  0  0  0  0  0  0  0  0  0  0
   -1.9500   -0.7500    0.0000 C   0  0  0  0  0  0  0  0  0  0  0  0
   -0.6500    1.5000    0.0000 C   0  0  0  0  0  0  0  0  0  0  0  0
   -0.6500   -1.5000    0.0000 C   0  0  0  0  0  0  0  0  0  0  0  0
    1.9487    3.0002    0.0000 C   0  0  0  0  0  0  0  0  0  0  0  0
    1.9489    1.5002    0.0000 C   0  0  0  0  0  0  0  0  0  0  0  0
    3.2476    3.7504    0.0000 C   0  0  0  0  0  0  0  0  0  0  0  0
    0.6500    0.7500    0.0000 C   0  0  0  0  0  0  0  0  0  0  0  0
    0.6500   -0.7500    0.0000 C   0  0  0  0  0  0  0  0  0  0  0  0
    4.5468    3.0006    0.0000 O   0  0  0  0  0  0  0  0  0  0  0  0
    1.9489   -1.5002    0.0000 O   0  0  0  0  0  0  0  0  0  0  0  0
  4  3  1  0
  5  3  1  0
  6  4  1  0
  8  1  1  0
  8  7  1  0
  9  2  1  0
  9  7  1  0
 10  5  1  0
 10  8  1  0
 11  6  1  0
 11 10  1  0
 12  9  2  0
 13 11  2  0
M  END
>  <NAME>  (4948) 
2-(1-METHYL-3-OXOBUTYL)CYCLOHEXANONE

>  <SYNONYMS>  (4948) 


>  <SPECTRUM TYPE>  (4948) 
MS1

>  <INSTRUMENT TYPE>  (4948) 
EI-B

>  <INSTRUMENT>  (4948) 
JEOL JMS-D-3000

>  <ION MODE>  (4948) 
P

>  <INCHIKEY>  (4948) 
QXEQYZLLHMLPPY-UHFFFAOYSA-N

>  <FORMULA>  (4948) 
C11H18O2

>  <EXACT MASS>  (4948) 
182.130679816

>  <MW>  (4948) 
182

>  <ID>  (4948) 
JP002336

>  <CONTRIBUTOR>  (4948) 
University of Tokyo Team, {Faculty of Engineering, University of Tokyo

>  <COMMENT>  (4948) 
SMILES=CC(=O)CC(C)C(C1)C(=O)CCC1
InChI=InChI=1S/C11H18O2/c1-8(7-9(2)12)10-5-3-4-6-11(10)13/h8,10H,3-7H2,1-2H3
computed SMILES=O=C(C)CC(C)C1C(=O)CCCC1
accession=JP002336
date=2016.01.19 (Created 2008.10.21, modified 2011.05.06)
author=MASS SPECTROSCOPY SOC. OF JAPAN (MSSJ)
license=CC BY-NC-SA
exact mass=182.13068
ionization energy=70 eV
ion type=[M]+*
computed spectral entropy=3.0910405445479636
computed normalized entropy=0.794240306020445
SPLASH=splash10-002b-5900000000-8a4151afce912a100d13
submitter=submitter = University of Tokyo Team (Faculty of Engineering, University of Tokyo)
MoNA Rating=3.75

>  <NUM PEAKS>  (4948) 
49

>  <MASS SPECTRAL PEAKS>  (4948) 
18 1.6
43 12.77
55 6.04
58 3.57
67 4.62
68 3.17
69 8.14
70 5.25
71 1.71
79 3.2
80 1.6
81 5.69
82 1.75
83 6.58
84 5.6
85 33.8
86 3.59
93 2.41
94 1.93
95 6.05
96 8.54
97 21.52
98 98.62
99 9.54
107 5.36
109 4.62
111 6.7
112 1.79
121 6.53
122 6.62
123 2.81
124 20.21
125 99.99
126 29.11
127 1.86
135 7.47
136 2.97
137 2.15
139 12.73
140 1.93
149 67.29
150 7.96
163 4.66
164 27.87
165 5.33
167 5.66
180 2.55
182 73.12
183 10.1

>  <PREDICTED SPECTRUM>  (4948) 
27 1
39 50
40 36
41 206
42 76
43 527
51 46
52 24
53 163
54 82
55 356
56 86
57 113
58 105
59 9
63 9
65 76
66 76
67 247
68 168
69 273
70 106
71 185
72 16
77 94
78 91
79 148
80 115
81 198
82 137
83 224
84 264
85 314
86 77
87 28
91 53
92 34
93 149
94 90
95 186
96 81
97 313
98 597
99 231
105 11
106 90
107 255
108 135
109 190
110 45
111 194
112 81
113 65
119 41
120 29
121 242
122 279
123 131
124 380
125 999
126 315
127 97
135 155
136 75
137 89
138 46
139 183
140 153
149 484
150 154
153 34
154 12
163 134
164 489
165 238
166 58
167 203
168 2
182 568
183 219
184 40

$$$$

     RDKit          2D

 12 12  0  0  0  0  0  0  0  0999 V2000
   -3.5732    2.4377    0.0000 C   0  0  0  0  0  0  0  0  0  0  0  0
    0.3235    4.6883    0.0000 C   0  0  0  0  0  0  0  0  0  0  0  0
   -2.2743    3.1879    0.0000 C   0  0  0  0  0  0  0  0  0  0  0  0
    2.9229    0.1868    0.0000 C   0  0  0  0  0  0  0  0  0  0  0  0
    4.2220    0.9368    0.0000 C   0  0  0  0  0  0  0  0  0  0  0  0
   -0.9752    2.4381    0.0000 C   0  0  0  0  0  0  0  0  0  0  0  0
    1.6234    0.9377    0.0000 C   0  0  0  0  0  0  0  0  0  0  0  0
    4.2215    2.4377    0.0000 C   0  0  0  0  0  0  0  0  0  0  0  0
    0.3238    3.1883    0.0000 C   0  0  0  0  0  0  0  0  0  0  0  0
    1.6229    2.4385    0.0000 C   0  0  0  0  0  0  0  0  0  0  0  0
    2.9220    3.1885    0.0000 C   0  0  0  0  0  0  0  0  0  0  0  0
    2.9222    4.6885    0.0000 O   0  0  0  0  0  0  0  0  0  0  0  0
  3  1  2  0
  5  4  1  0
  6  3  1  0
  7  4  1  0
  8  5  1  0
  9  2  1  0
  9  6  1  0
 10  7  1  0
 10  9  1  0
 11  8  1  0
 11 10  1  0
 12 11  2  0
M  END
>  <NAME>  (4949) 
2-(1-METHYL-3-BUTENYL)CYCLOHEXANONE

>  <SYNONYMS>  (4949) 


>  <SPECTRUM TYPE>  (4949) 
MS1

>  <INSTRUMENT TYPE>  (4949) 
EI-B

>  <INSTRUMENT>  (4949) 
JEOL JMS-D-3000

>  <ION MODE>  (4949) 
P

>  <INCHIKEY>  (4949) 
DRGWHWMMHCDREE-UHFFFAOYSA-N

>  <FORMULA>  (4949) 
C11H18O

>  <EXACT MASS>  (4949) 
166.135765196

>  <MW>  (4949) 
166

>  <ID>  (4949) 
JP002335

>  <CONTRIBUTOR>  (4949) 
University of Tokyo Team, {Faculty of Engineering, University of Tokyo

>  <COMMENT>  (4949) 
SMILES=C=CCC(C)C(C1)C(=O)CCC1
InChI=InChI=1S/C11H18O/c1-3-6-9(2)10-7-4-5-8-11(10)12/h3,9-10H,1,4-8H2,2H3
computed SMILES=O=C1CCCCC1C(C)CC=C
accession=JP002335
date=2016.01.19 (Created 2008.10.21, modified 2011.05.06)
author=MASS SPECTROSCOPY SOC. OF JAPAN (MSSJ)
license=CC BY-NC-SA
exact mass=166.13577
ionization energy=70 eV
ion type=[M]+*
computed spectral entropy=2.790351188887343
computed normalized entropy=0.7564224376525693
SPLASH=splash10-0002-9100000000-690a32b6a414dec01d87
submitter=submitter = University of Tokyo Team (Faculty of Engineering, University of Tokyo)
MoNA Rating=3.75

>  <NUM PEAKS>  (4949) 
40

>  <MASS SPECTRAL PEAKS>  (4949) 
42 23.01
43 3.66
51 1.59
53 5.01
54 1.95
55 34.12
56 1.92
57 1.5
65 1.83
67 8.88
68 4.45
69 7.19
70 21.14
71 1.22
77 2.51
79 5.34
80 1.95
81 9.56
83 14.93
84 1.15
91 6.88
92 1.14
93 1.47
95 1.9
97 12.13
98 99.99
99 6.97
105 4.37
106 2.14
107 1.92
109 1.81
119 1.92
125 2.53
131 1.67
133 2.73
137 2.08
148 4
149 1.18
151 3.41
166 5.79

>  <PREDICTED SPECTRUM>  (4949) 
15 5
26 59
27 172
28 75
29 99
37 24
38 61
39 228
40 103
41 398
42 162
43 187
44 19
45 0
49 14
50 38
51 96
52 42
53 213
54 149
55 449
56 151
57 64
63 29
64 24
65 104
66 77
67 284
68 202
69 433
70 274
71 148
73 21
77 82
78 32
79 161
80 95
81 235
82 190
83 214
84 106
91 93
92 60
93 142
94 33
95 216
96 68
97 371
98 999
99 357
105 23
107 59
109 88
110 61
111 46
112 18
119 56
121 35
123 68
124 32
125 99
133 24
137 32
138 30
139 21
148 64
151 95
165 34
166 122
167 53

$$$$

     RDKit          2D

 12 12  0  0  0  0  0  0  0  0999 V2000
   -4.8712    2.0071    0.0000 C   0  0  0  0  0  0  0  0  0  0  0  0
   -3.5721    4.2571    0.0000 C   0  0  0  0  0  0  0  0  0  0  0  0
    2.9231    0.5071    0.0000 C   0  0  0  0  0  0  0  0  0  0  0  0
    2.9236    2.0079    0.0000 C   0  0  0  0  0  0  0  0  0  0  0  0
    1.6236   -0.2437    0.0000 C   0  0  0  0  0  0  0  0  0  0  0  0
    1.6245    2.7579    0.0000 C   0  0  0  0  0  0  0  0  0  0  0  0
    0.3245    0.5063    0.0000 C   0  0  0  0  0  0  0  0  0  0  0  0
   -0.9740    2.7571    0.0000 C   0  0  0  0  0  0  0  0  0  0  0  0
   -3.5721    2.7571    0.0000 C   0  0  0  0  0  0  0  0  0  0  0  0
    0.3250    2.0071    0.0000 C   0  0  0  0  0  0  0  0  0  0  0  0
   -2.2731    2.0071    0.0000 C   0  0  0  0  0  0  0  0  0  0  0  0
   -2.2731    0.5071    0.0000 O   0  0  0  0  0  0  0  0  0  0  0  0
  4  3  2  0
  5  3  1  0
  6  4  1  0
  7  5  2  0
  9  1  1  0
  9  2  1  0
 10  6  2  0
 10  7  1  0
 10  8  1  0
 11  8  1  0
 11  9  1  0
 12 11  2  0
M  END
>  <NAME>  (4950) 
3-METHYL-1-PHENYL-2-BUTANONE

>  <SYNONYMS>  (4950) 


>  <SPECTRUM TYPE>  (4950) 
MS1

>  <INSTRUMENT TYPE>  (4950) 
EI-B

>  <INSTRUMENT>  (4950) 
JEOL JMS-D-3000

>  <ION MODE>  (4950) 
P

>  <INCHIKEY>  (4950) 
ZATIMOAGKJEVGN-UHFFFAOYSA-N

>  <FORMULA>  (4950) 
C11H14O

>  <EXACT MASS>  (4950) 
162.104465068

>  <MW>  (4950) 
162

>  <ID>  (4950) 
JP002334

>  <CONTRIBUTOR>  (4950) 
University of Tokyo Team, {Faculty of Engineering, University of Tokyo

>  <COMMENT>  (4950) 
SMILES=CC(C)C(=O)Cc(c1)cccc1
InChI=InChI=1S/C11H14O/c1-9(2)11(12)8-10-6-4-3-5-7-10/h3-7,9H,8H2,1-2H3
computed SMILES=O=C(CC=1C=CC=CC1)C(C)C
accession=JP002334
date=2016.01.19 (Created 2008.10.21, modified 2011.05.06)
author=MASS SPECTROSCOPY SOC. OF JAPAN (MSSJ)
license=CC BY-NC-SA
exact mass=162.10447
ionization energy=70 eV
ion type=[M]+*
computed spectral entropy=1.9505161424349544
computed normalized entropy=0.6884466171694879
SPLASH=splash10-006x-9000000000-a92fd915daa1a1411e0a
submitter=submitter = University of Tokyo Team (Faculty of Engineering, University of Tokyo)
MoNA Rating=3.75

>  <NUM PEAKS>  (4950) 
17

>  <MASS SPECTRAL PEAKS>  (4950) 
42 9.5
43 99.99
51 2.68
63 3.17
64 1.08
65 14.26
70 16.86
71 84.65
72 4.1
77 1.27
89 3.33
90 2.17
91 62.54
92 11.2
105 1.51
162 11.75
163 1.37

>  <PREDICTED SPECTRUM>  (4950) 
15 14
25 1
26 93
27 310
28 80
29 241
30 36
37 14
38 82
39 360
40 154
41 421
42 136
43 850
44 218
45 40
46 9
50 81
51 185
52 139
53 154
54 11
55 6
62 37
63 222
64 170
65 415
66 149
70 88
71 649
72 215
74 30
75 4
76 8
77 126
78 126
79 5
89 243
90 252
91 999
92 561
93 74
100 14
101 7
102 8
105 59
115 114
118 260
119 374
120 104
162 467
163 177
164 31

$$$$

     RDKit          2D

 12 12  0  0  0  0  0  0  0  0999 V2000
    2.5987    3.0002    0.0000 C   0  0  0  0  0  0  0  0  0  0  0  0
    3.8981    0.7504    0.0000 C   0  0  0  0  0  0  0  0  0  0  0  0
   -2.5989   -1.5002    0.0000 C   0  0  0  0  0  0  0  0  0  0  0  0
   -0.0000   -3.0000    0.0000 C   0  0  0  0  0  0  0  0  0  0  0  0
   -1.3000    0.7500    0.0000 C   0  0  0  0  0  0  0  0  0  0  0  0
    0.0000    1.5000    0.0000 C   0  0  0  0  0  0  0  0  0  0  0  0
    2.5989    1.5002    0.0000 C   0  0  0  0  0  0  0  0  0  0  0  0
   -1.3000   -0.7500    0.0000 C   0  0  0  0  0  0  0  0  0  0  0  0
   -0.0000   -1.5000    0.0000 C   0  0  0  0  0  0  0  0  0  0  0  0
    1.3000    0.7500    0.0000 C   0  0  0  0  0  0  0  0  0  0  0  0
    1.3000   -0.7500    0.0000 C   0  0  0  0  0  0  0  0  0  0  0  0
    2.5989   -1.5002    0.0000 O   0  0  0  0  0  0  0  0  0  0  0  0
  6  5  1  0
  7  1  1  0
  7  2  1  0
  8  3  1  0
  8  5  1  0
  9  4  2  0
  9  8  1  0
 10  6  1  0
 10  7  1  0
 11  9  1  0
 11 10  1  0
 12 11  2  0
M  END
>  <NAME>  (4951) 
6-ISOPROPYL-3-METHYL-2-METHYLENECYCLOHEXANONE

>  <SYNONYMS>  (4951) 


>  <SPECTRUM TYPE>  (4951) 
MS1

>  <INSTRUMENT TYPE>  (4951) 
EI-B

>  <INSTRUMENT>  (4951) 
JEOL JMS-D-3000

>  <ION MODE>  (4951) 
P

>  <INCHIKEY>  (4951) 
IRMRWAWQVBGNMC-UHFFFAOYSA-N

>  <FORMULA>  (4951) 
C11H18O

>  <EXACT MASS>  (4951) 
166.135765196

>  <MW>  (4951) 
166

>  <ID>  (4951) 
JP002333

>  <CONTRIBUTOR>  (4951) 
University of Tokyo Team, {Faculty of Engineering, University of Tokyo

>  <COMMENT>  (4951) 
SMILES=CC(C)C(C1)C(=O)C(=C)C(C)C1
InChI=InChI=1S/C11H18O/c1-7(2)10-6-5-8(3)9(4)11(10)12/h7-8,10H,4-6H2,1-3H3
computed SMILES=O=C1C(=C)C(C)CCC1C(C)C
accession=JP002333
date=2016.01.19 (Created 2008.10.21, modified 2011.05.06)
author=MASS SPECTROSCOPY SOC. OF JAPAN (MSSJ)
license=CC BY-NC-SA
exact mass=166.13577
ionization energy=70 eV
ion type=[M]+*
computed spectral entropy=2.993478498021896
computed normalized entropy=0.9187813998414305
SPLASH=splash10-05fr-9700000000-719c10d927fc370923c9
submitter=submitter = University of Tokyo Team (Faculty of Engineering, University of Tokyo)
MoNA Rating=3.75

>  <NUM PEAKS>  (4951) 
26

>  <MASS SPECTRAL PEAKS>  (4951) 
42 37.05
53 16.68
54 9.64
55 32.72
67 28.34
68 16.24
69 16.78
77 7.77
79 9.99
81 26.27
82 12.25
83 9.64
91 10.18
93 6.93
95 41.73
96 13.13
109 29.37
110 10.23
123 24.16
124 99.99
125 9.39
151 25.68
161 29.23
162 7.08
163 11.26
166 15.15

>  <PREDICTED SPECTRUM>  (4951) 
15 19
26 73
27 319
28 128
29 245
31 37
32 11
33 28
34 14
36 19
37 63
38 142
39 590
40 296
41 802
42 310
43 650
44 136
45 143
46 18
47 11
50 146
51 290
52 222
53 447
54 248
55 545
56 249
57 222
58 90
59 102
60 3
61 9
62 67
63 175
64 94
65 291
66 232
67 581
68 327
69 562
70 228
71 136
72 47
73 38
74 27
75 56
76 38
77 343
78 222
79 449
80 261
81 564
82 332
83 315
84 194
85 40
87 6
89 68
91 345
92 128
93 277
94 181
95 557
96 358
97 232
98 116
99 17
103 1
105 178
106 133
107 243
108 148
109 855
110 296
111 214
112 54
115 24
119 105
120 31
121 114
122 91
123 475
124 999
125 339
126 125
133 140
135 41
137 132
138 145
139 20
148 17
149 52
151 427
152 120
165 26
166 414
167 156

$$$$

     RDKit          2D

 13 13  0  0  0  0  0  0  0  0999 V2000
    2.8183   -1.1087    0.0000 C   0  0  0  0  0  0  0  0  0  0  0  0
    4.8672   -0.5594    0.0000 C   0  0  0  0  0  0  0  0  0  0  0  0
    4.3179    1.4896    0.0000 C   0  0  0  0  0  0  0  0  0  0  0  0
   -1.6200   -1.3100    0.0000 C   0  0  0  0  0  0  0  0  0  0  0  0
   -0.3300   -2.0600    0.0000 C   0  0  0  0  0  0  0  0  0  0  0  0
   -1.6200    0.1900    0.0000 C   0  0  0  0  0  0  0  0  0  0  0  0
    0.9700   -1.3100    0.0000 C   0  0  0  0  0  0  0  0  0  0  0  0
   -0.3325    2.4400    0.0000 C   0  0  0  0  0  0  0  0  0  0  0  0
    2.2689    0.9402    0.0000 C   0  0  0  0  0  0  0  0  0  0  0  0
   -0.3300    0.9400    0.0000 C   0  0  0  0  0  0  0  0  0  0  0  0
    0.9700    0.1900    0.0000 C   0  0  0  0  0  0  0  0  0  0  0  0
   -1.6328    3.1878    0.0000 O   0  0  0  0  0  0  0  0  0  0  0  0
    3.5681    0.1904    0.0000 Si  0  0  0  0  0  4  0  0  0  0  0  0
  5  4  2  0
  6  4  1  0
  7  5  1  0
 10  6  2  0
 10  8  1  0
 11  7  2  0
 11  9  1  0
 11 10  1  0
 12  8  2  0
 13  1  1  0
 13  2  1  0
 13  3  1  0
 13  9  1  0
M  END
>  <NAME>  (4952) 
2-(TRIMETHYLSILYLMETHYL)BENZALDEHYDE

>  <SYNONYMS>  (4952) 


>  <SPECTRUM TYPE>  (4952) 
MS1

>  <INSTRUMENT TYPE>  (4952) 
EI-B

>  <INSTRUMENT>  (4952) 
JEOL JMS-D-3000

>  <ION MODE>  (4952) 
P

>  <INCHIKEY>  (4952) 
JLRRMHMDTHMAND-UHFFFAOYSA-N

>  <FORMULA>  (4952) 
C11H16OSi

>  <EXACT MASS>  (4952) 
192.09704166199998

>  <MW>  (4952) 
192

>  <ID>  (4952) 
JP002332

>  <CONTRIBUTOR>  (4952) 
University of Tokyo Team, {Faculty of Engineering, University of Tokyo

>  <COMMENT>  (4952) 
SMILES=O=Cc(c1)c(ccc1)C[Si](C)(C)C
InChI=InChI=1S/C11H16OSi/c1-13(2,3)9-11-7-5-4-6-10(11)8-12/h4-8H,9H2,1-3H3
computed SMILES=O=CC=1C=CC=CC1C[Si](C)(C)C
accession=JP002332
date=2016.01.19 (Created 2008.10.21, modified 2011.05.06)
author=MASS SPECTROSCOPY SOC. OF JAPAN (MSSJ)
license=CC BY-NC-SA
exact mass=192.09704
ionization energy=70 eV
ion type=[M]+*
computed spectral entropy=2.493958912222255
computed normalized entropy=0.7484411309710176
SPLASH=splash10-00fr-9600000000-3e950f74b94c8d4d370f
submitter=submitter = University of Tokyo Team (Faculty of Engineering, University of Tokyo)
MoNA Rating=3.75

>  <NUM PEAKS>  (4952) 
28

>  <MASS SPECTRAL PEAKS>  (4952) 
42 5.32
43 8.91
44 10.6
58 3.29
60 5.78
65 2.44
73 99.99
74 8.81
75 10.21
77 3.26
81 4.87
91 2.91
103 2.4
115 2.62
117 2.27
118 6.23
119 5.61
131 2.94
133 4.24
149 3.1
159 5.03
161 2.8
177 45.56
178 7.49
179 2.34
191 2.28
192 15.22
193 2.65

>  <PREDICTED SPECTRUM>  (4952) 
29 85
39 16
43 209
44 76
45 257
46 17
47 49
51 45
53 51
55 32
57 60
58 48
59 242
60 15
63 23
65 76
66 21
73 999
74 240
75 369
76 44
77 153
78 40
79 7
89 69
90 12
91 212
92 57
93 59
102 39
103 275
104 83
105 94
106 5
115 198
117 109
118 132
119 142
120 34
121 26
133 106
134 5
135 88
147 114
148 19
149 247
150 62
161 90
163 54
164 53
177 468
178 197
179 75
191 142
192 397
193 156
194 67

$$$$

     RDKit          2D

 14 14  0  0  0  0  0  0  0  0999 V2000
   -5.5207    3.1321    0.0000 C   0  0  0  0  0  0  0  0  0  0  0  0
   -4.2216    5.3821    0.0000 C   0  0  0  0  0  0  0  0  0  0  0  0
    3.5726    0.8821    0.0000 C   0  0  0  0  0  0  0  0  0  0  0  0
    3.5731    2.3829    0.0000 C   0  0  0  0  0  0  0  0  0  0  0  0
    2.2731    0.1313    0.0000 C   0  0  0  0  0  0  0  0  0  0  0  0
    2.2740    3.1329    0.0000 C   0  0  0  0  0  0  0  0  0  0  0  0
    0.9740    0.8813    0.0000 C   0  0  0  0  0  0  0  0  0  0  0  0
   -1.6236    2.3821    0.0000 C   0  0  0  0  0  0  0  0  0  0  0  0
    0.9745    2.3821    0.0000 C   0  0  0  0  0  0  0  0  0  0  0  0
   -0.3245    3.1321    0.0000 C   0  0  0  0  0  0  0  0  0  0  0  0
   -2.9226    3.1321    0.0000 C   0  0  0  0  0  0  0  0  0  0  0  0
   -0.3245    4.6321    0.0000 O   0  0  0  0  0  0  0  0  0  0  0  0
   -4.2216    2.3821    0.0000 O   0  0  0  0  0  0  0  0  0  0  0  0
   -2.9226    4.6321    0.0000 O   0  0  0  0  0  0  0  0  0  0  0  0
  4  3  2  0
  5  3  1  0
  6  4  1  0
  7  5  2  0
  9  6  2  0
  9  7  1  0
 10  8  1  0
 10  9  1  0
 11  8  1  0
 12 10  2  0
 13  1  1  0
 13 11  1  0
 14  2  1  0
 14 11  1  0
M  END
>  <NAME>  (4953) 
3,3-DIMETHOXYPROPIOPHENONE

>  <SYNONYMS>  (4953) 


>  <SPECTRUM TYPE>  (4953) 
MS1

>  <INSTRUMENT TYPE>  (4953) 
EI-B

>  <INSTRUMENT>  (4953) 
JEOL JMS-D-3000

>  <ION MODE>  (4953) 
P

>  <INCHIKEY>  (4953) 
PQNPAOSXSXMRKJ-UHFFFAOYSA-N

>  <FORMULA>  (4953) 
C11H14O3

>  <EXACT MASS>  (4953) 
194.094294308

>  <MW>  (4953) 
194

>  <ID>  (4953) 
JP002331

>  <CONTRIBUTOR>  (4953) 
University of Tokyo Team, {Faculty of Engineering, University of Tokyo

>  <COMMENT>  (4953) 
SMILES=COC(OC)CC(=O)c(c1)cccc1
InChI=InChI=1S/C11H14O3/c1-13-11(14-2)8-10(12)9-6-4-3-5-7-9/h3-7,11H,8H2,1-2H3
computed SMILES=O=C(C=1C=CC=CC1)CC(OC)OC
accession=JP002331
date=2016.01.19 (Created 2008.10.21, modified 2011.05.06)
author=MASS SPECTROSCOPY SOC. OF JAPAN (MSSJ)
license=CC BY-NC-SA
exact mass=194.09429
ionization energy=70 eV
ion type=[M]+*
computed spectral entropy=2.2068781848315195
computed normalized entropy=0.7038374281221722
SPLASH=splash10-056r-9800000000-bfaa2510dfe58293dfda
submitter=submitter = University of Tokyo Team (Faculty of Engineering, University of Tokyo)
MoNA Rating=3.75

>  <NUM PEAKS>  (4953) 
23

>  <MASS SPECTRAL PEAKS>  (4953) 
43 2.13
47 7.3
50 3.01
51 10.1
58 7.61
59 1.24
74 1.33
75 63.92
76 4.04
77 32.02
78 3.28
85 10.8
91 1.85
105 99.99
106 8.31
133 1.58
147 3.47
162 3.47
163 3.59
164 1
179 16.68
180 1.73
194 5.14

>  <PREDICTED SPECTRUM>  (4953) 
14 15
15 60
16 2
17 5
18 2
26 17
27 71
28 28
29 70
31 90
32 21
33 11
37 3
38 45
39 96
40 14
41 75
42 59
43 106
45 122
46 9
47 272
48 5
49 24
50 189
51 331
52 41
53 48
55 64
57 33
58 83
59 201
71 27
73 86
74 163
75 821
76 121
77 611
78 154
85 12
89 38
91 70
92 28
101 1
102 26
103 88
104 75
105 999
106 316
117 163
119 38
120 9
131 86
132 70
133 66
134 15
147 142
148 42
162 106
163 201
164 37
179 284
180 2
194 172
195 61

$$$$

     RDKit          2D

 13 13  0  0  0  0  0  0  0  0999 V2000
   -7.4918    0.8285    0.0000 C   0  0  0  0  0  0  0  0  0  0  0  0
   -3.5891   -1.4118    0.0000 C   0  0  0  0  0  0  0  0  0  0  0  0
   -6.1947    1.5817    0.0000 C   0  0  0  0  0  0  0  0  0  0  0  0
   -4.8938    0.8350    0.0000 C   0  0  0  0  0  0  0  0  0  0  0  0
    0.6208    3.3931    0.0000 C   0  0  0  0  0  0  0  0  0  0  0  0
   -0.8503    3.0894    0.0000 C   0  0  0  0  0  0  0  0  0  0  0  0
    1.3682    2.1011    0.0000 C   0  0  0  0  0  0  0  0  0  0  0  0
   -3.5966    1.5882    0.0000 C   0  0  0  0  0  0  0  0  0  0  0  0
   -0.9985    1.5947    0.0000 C   0  0  0  0  0  0  0  0  0  0  0  0
    0.3645    0.9863    0.0000 C   0  0  0  0  0  0  0  0  0  0  0  0
   -2.2957    0.8414    0.0000 C   0  0  0  0  0  0  0  0  0  0  0  0
    0.6758   -0.4810    0.0000 O   0  0  0  0  0  0  0  0  0  0  0  0
   -2.2920   -0.6586    0.0000 O   0  0  0  0  0  0  0  0  0  0  0  0
  3  1  1  0
  4  3  1  0
  6  5  1  0
  7  5  1  0
  8  4  1  0
  9  6  1  0
 10  7  1  0
 10  9  1  0
 11  8  1  0
 11  9  1  0
 12 10  2  0
 13  2  1  0
 13 11  1  0
M  END
>  <NAME>  (4954) 
2-(1-METHOXYPENTYL)CYCLOPENTANONE

>  <SYNONYMS>  (4954) 


>  <SPECTRUM TYPE>  (4954) 
MS1

>  <INSTRUMENT TYPE>  (4954) 
EI-B

>  <INSTRUMENT>  (4954) 
JEOL JMS-D-3000

>  <ION MODE>  (4954) 
P

>  <INCHIKEY>  (4954) 
NABMSHMIHYWUPQ-UHFFFAOYSA-N

>  <FORMULA>  (4954) 
C11H20O2

>  <EXACT MASS>  (4954) 
184.14632988

>  <MW>  (4954) 
184

>  <ID>  (4954) 
JP002330

>  <CONTRIBUTOR>  (4954) 
University of Tokyo Team, {Faculty of Engineering, University of Tokyo

>  <COMMENT>  (4954) 
SMILES=CCCCC(OC)C(C1)C(=O)CC1
InChI=InChI=1S/C11H20O2/c1-3-4-8-11(13-2)9-6-5-7-10(9)12/h9,11H,3-8H2,1-2H3
computed SMILES=O=C1CCCC1C(OC)CCCC
accession=JP002330
date=2016.01.19 (Created 2008.10.21, modified 2011.05.06)
author=MASS SPECTROSCOPY SOC. OF JAPAN (MSSJ)
license=CC BY-NC-SA
exact mass=184.14633
ionization energy=70 eV
ion type=[M]+*
computed spectral entropy=3.2746206158101776
computed normalized entropy=0.860234030363894
SPLASH=splash10-0gba-9400000000-275658d3ed7d817a539a
submitter=submitter = University of Tokyo Team (Faculty of Engineering, University of Tokyo)
MoNA Rating=3.75

>  <NUM PEAKS>  (4954) 
45

>  <MASS SPECTRAL PEAKS>  (4954) 
41 55.8
42 4.15
43 12.63
44 4.23
45 45.88
53 12.81
54 23.86
55 26.3
56 4.19
57 3.8
59 9.06
65 4.85
66 3.21
67 95.97
68 17.88
69 82.07
70 5.17
71 17.52
74 9.18
77 4.74
79 11.29
80 3.51
81 24.27
82 8.67
83 7.61
84 30.5
85 6.4
93 3.38
95 53.89
96 15.32
97 36.71
98 4.88
100 9.67
101 99.99
102 7.41
109 5.93
110 11.7
111 3.74
123 53.82
124 7.33
127 52.47
128 4.52
152 50.97
153 6.35
184 3.11

>  <PREDICTED SPECTRUM>  (4954) 
33 30
39 183
40 54
41 542
42 270
43 333
44 80
45 461
51 104
52 31
53 258
54 262
55 605
56 134
57 213
58 113
59 365
65 52
66 107
67 399
68 353
69 672
70 155
71 316
72 1
73 92
74 106
77 93
79 217
80 138
81 448
82 277
83 368
84 300
85 173
87 28
88 66
93 56
94 56
95 508
96 368
97 304
98 168
99 47
100 185
101 999
102 217
105 79
106 36
107 22
108 72
109 201
110 152
111 142
113 39
114 12
123 395
124 287
125 7
127 648
128 223
129 10
137 24
141 130
142 50
151 40
152 545
153 224
184 246
185 69

$$$$

     RDKit          2D

 14 13  0  0  0  0  0  0  0  0999 V2000
    4.6740    1.6005    0.0000 C   0  0  0  0  0  0  0  0  0  0  0  0
    2.0760    0.1005    0.0000 C   0  0  0  0  0  0  0  0  0  0  0  0
    4.1250   -0.4486    0.0000 C   0  0  0  0  0  0  0  0  0  0  0  0
    1.6740    4.1986    0.0000 C   0  0  0  0  0  0  0  0  0  0  0  0
   -0.3750    4.7476    0.0000 C   0  0  0  0  0  0  0  0  0  0  0  0
   -0.9240    2.6986    0.0000 C   0  0  0  0  0  0  0  0  0  0  0  0
    4.0345    2.6625    0.0000 C   0  0  0  0  0  0  0  0  0  0  0  0
    2.3645    3.6267    0.0000 C   0  0  0  0  0  0  0  0  0  0  0  0
   -0.2845    1.6365    0.0000 C   0  0  0  0  0  0  0  0  0  0  0  0
    1.3855    0.6723    0.0000 C   0  0  0  0  0  0  0  0  0  0  0  0
    3.3750    0.8505    0.0000 Si  0  0  0  0  0  4  0  0  0  0  0  0
    0.3750    3.4486    0.0000 Si  0  0  0  0  0  4  0  0  0  0  0  0
    2.6250    2.1495    0.0000 Si  0  0  0  0  0  4  0  0  0  0  0  0
    1.1250    2.1495    0.0000 Si  0  0  0  0  0  4  0  0  0  0  0  0
 11  1  1  0
 11  2  1  0
 11  3  1  0
 12  4  1  0
 12  5  1  0
 12  6  1  0
 13  7  1  0
 13  8  1  0
 13 11  1  0
 14  9  1  0
 14 10  1  0
 14 12  1  0
 14 13  1  0
M  END
>  <NAME>  (4955) 
DECAMETHYLTETRASILANE

>  <SYNONYMS>  (4955) 


>  <SPECTRUM TYPE>  (4955) 
MS1

>  <INSTRUMENT TYPE>  (4955) 
EI-B

>  <INSTRUMENT>  (4955) 
JEOL JMS-D-3000

>  <ION MODE>  (4955) 
P

>  <INCHIKEY>  (4955) 
WYNNMDYMPQMXFH-UHFFFAOYSA-N

>  <FORMULA>  (4955) 
C10H30Si4

>  <EXACT MASS>  (4955) 
262.14245708

>  <MW>  (4955) 
262

>  <ID>  (4955) 
JP002328

>  <CONTRIBUTOR>  (4955) 
University of Tokyo Team, {Faculty of Engineering, University of Tokyo

>  <COMMENT>  (4955) 
SMILES=C[Si](C)(C)[Si](C)(C)[Si](C)(C)[Si](C)(C)C
InChI=InChI=1S/C10H30Si4/c1-11(2,3)13(7,8)14(9,10)12(4,5)6/h1-10H3
computed SMILES=C[Si](C)(C)[Si](C)(C)[Si](C)(C)[Si](C)(C)C
accession=JP002328
date=2016.01.19 (Created 2008.10.21, modified 2011.05.06)
author=MASS SPECTROSCOPY SOC. OF JAPAN (MSSJ)
license=CC BY-NC-SA
exact mass=262.14246
ionization energy=70 eV
ion type=[M]+*
computed spectral entropy=2.8932019044335977
computed normalized entropy=0.8506421650306276
SPLASH=splash10-00di-3910000000-b4800d4b1e0176400795
submitter=submitter = University of Tokyo Team (Faculty of Engineering, University of Tokyo)
MoNA Rating=3.75

>  <NUM PEAKS>  (4955) 
30

>  <MASS SPECTRAL PEAKS>  (4955) 
59 8.96
73 99.99
74 8.45
75 5.5
99 5.48
101 5.23
113 3.78
114 3.04
115 16.95
116 26.13
117 6.51
129 15.98
131 56.7
132 8.38
133 4.59
145 5.32
159 15
160 2.99
173 27.97
174 40.8
175 11.14
176 4.68
187 5.84
189 46.26
190 10.58
191 5.91
247 9.25
262 26.11
263 8.26
264 4.45

>  <PREDICTED SPECTRUM>  (4955) 
29 62
31 14
41 26
42 32
43 226
44 2
45 228
55 93
56 19
57 152
58 124
59 345
60 84
61 40
69 116
73 999
74 233
75 213
76 2
97 24
99 184
100 103
101 216
102 81
103 64
105 28
113 96
114 67
115 377
116 458
117 252
118 69
129 323
130 196
131 687
132 286
133 157
134 84
139 21
145 39
146 21
147 107
148 2
149 102
150 6
159 37
161 27
173 812
174 795
175 202
176 65
187 64
188 98
189 729
190 301
191 42
205 52
247 245
248 97
249 25
262 384
263 187
264 140
265 23

$$$$

     RDKit          2D

 14 13  0  0  0  0  0  0  0  0999 V2000
    9.4216    4.3726    0.0000 C   0  0  0  0  0  0  0  0  0  0  0  0
    7.9216    1.7745    0.0000 C   0  0  0  0  0  0  0  0  0  0  0  0
    9.9707    2.3236    0.0000 C   0  0  0  0  0  0  0  0  0  0  0  0
    0.3284    5.1226    0.0000 C   0  0  0  0  0  0  0  0  0  0  0  0
   -1.7207    4.5736    0.0000 C   0  0  0  0  0  0  0  0  0  0  0  0
   -1.1716    2.5245    0.0000 C   0  0  0  0  0  0  0  0  0  0  0  0
    4.7745    3.8236    0.0000 C   0  0  0  0  0  0  0  0  0  0  0  0
    3.4755    3.0736    0.0000 C   0  0  0  0  0  0  0  0  0  0  0  0
    6.0736    3.0736    0.0000 C   0  0  0  0  0  0  0  0  0  0  0  0
    2.1764    3.8236    0.0000 C   0  0  0  0  0  0  0  0  0  0  0  0
    7.3726    3.8236    0.0000 O   0  0  0  0  0  0  0  0  0  0  0  0
    0.8774    3.0736    0.0000 O   0  0  0  0  0  0  0  0  0  0  0  0
    8.6716    3.0736    0.0000 Si  0  0  0  0  0  4  0  0  0  0  0  0
   -0.4216    3.8236    0.0000 Si  0  0  0  0  0  4  0  0  0  0  0  0
  8  7  1  0
  9  7  1  0
 10  8  1  0
 11  9  1  0
 12 10  1  0
 13  1  1  0
 13  2  1  0
 13  3  1  0
 13 11  1  0
 14  4  1  0
 14  5  1  0
 14  6  1  0
 14 12  1  0
M  END
>  <NAME>  (4956) 
1,4-BIS(TRIMETHYLSILOXY)BUTANE

>  <SYNONYMS>  (4956) 


>  <SPECTRUM TYPE>  (4956) 
MS1

>  <INSTRUMENT TYPE>  (4956) 
EI-B

>  <INSTRUMENT>  (4956) 
JEOL JMS-D-3000

>  <ION MODE>  (4956) 
P

>  <INCHIKEY>  (4956) 
ITDZOVTUXDYFSE-UHFFFAOYSA-N

>  <FORMULA>  (4956) 
C10H26O2Si2

>  <EXACT MASS>  (4956) 
234.147133132

>  <MW>  (4956) 
234

>  <ID>  (4956) 
JP002327

>  <CONTRIBUTOR>  (4956) 
University of Tokyo Team, {Faculty of Engineering, University of Tokyo

>  <COMMENT>  (4956) 
SMILES=C[Si](C)(C)OCCCCO[Si](C)(C)C
InChI=InChI=1S/C10H26O2Si2/c1-13(2,3)11-9-7-8-10-12-14(4,5)6/h7-10H2,1-6H3
computed SMILES=O(CCCCO[Si](C)(C)C)[Si](C)(C)C
accession=JP002327
date=2016.01.19 (Created 2008.10.21, modified 2011.05.06)
author=MASS SPECTROSCOPY SOC. OF JAPAN (MSSJ)
license=CC BY-NC-SA
exact mass=234.14713
ionization energy=70 eV
ion type=[M]+*
computed spectral entropy=2.5180591802600776
computed normalized entropy=0.7728620533107957
SPLASH=splash10-0002-4900000000-062d19917f55ffe43140
submitter=submitter = University of Tokyo Team (Faculty of Engineering, University of Tokyo)
MoNA Rating=3.75

>  <NUM PEAKS>  (4956) 
26

>  <MASS SPECTRAL PEAKS>  (4956) 
45 6.09
47 2.89
55 14.17
59 5.66
61 2.49
66 7.33
72 2.06
73 48.7
74 4.31
75 12.81
81 4.09
100 10.53
101 3.85
102 13.18
112 45.96
113 5.29
116 2.15
131 4.03
133 5.14
147 99.99
148 16.14
149 8.41
177 11.21
178 2.18
219 2.89
234 0.14

>  <PREDICTED SPECTRUM>  (4956) 
15 12
18 13
26 19
27 81
28 54
29 42
30 19
31 24
39 54
40 50
41 240
42 194
43 227
44 220
45 436
46 142
47 327
48 11
49 6
52 48
53 109
54 165
55 491
56 154
57 153
58 220
59 355
60 148
61 212
65 51
66 132
67 92
68 43
69 36
70 0
71 107
72 158
73 999
74 306
75 621
76 126
77 89
79 33
81 1
83 53
84 16
85 152
86 85
87 149
88 128
89 152
90 13
91 107
99 58
101 212
102 57
103 472
104 99
105 127
106 16
113 35
115 198
116 142
117 153
118 10
119 62
129 352
130 140
131 259
133 156
134 59
135 62
143 31
144 207
145 92
147 903
148 418
149 476
150 203
151 133
177 43
191 52
219 188
220 48
221 100
234 6

$$$$

     RDKit          2D

 12 11  0  0  0  0  0  0  0  0999 V2000
    1.8149    3.2978    0.0000 C   0  0  0  0  0  0  0  0  0  0  0  0
   -1.2343    0.7392    0.0000 C   0  0  0  0  0  0  0  0  0  0  0  0
    1.6582    2.4093    0.0000 C   0  0  0  0  0  0  0  0  0  0  0  0
   -5.9793    3.2978    0.0000 C   0  0  0  0  0  0  0  0  0  0  0  0
   -4.6803    5.5478    0.0000 C   0  0  0  0  0  0  0  0  0  0  0  0
    0.5159    4.0478    0.0000 C   0  0  0  0  0  0  0  0  0  0  0  0
   -1.7473    2.1488    0.0000 C   0  0  0  0  0  0  0  0  0  0  0  0
    0.1810    2.1488    0.0000 C   0  0  0  0  0  0  0  0  0  0  0  0
   -3.3812    3.2978    0.0000 C   0  0  0  0  0  0  0  0  0  0  0  0
   -4.6803    4.0478    0.0000 C   0  0  0  0  0  0  0  0  0  0  0  0
   -2.0822    4.0478    0.0000 O   0  0  0  0  0  0  0  0  0  0  0  0
   -0.7831    3.2978    0.0000 Si  0  0  0  0  0  4  0  0  0  0  0  0
  6  1  1  0
  7  2  1  0
  8  3  1  0
 10  4  1  0
 10  5  1  0
 10  9  1  0
 11  9  1  0
 12  6  1  0
 12  7  1  0
 12  8  1  0
 12 11  1  0
M  END
>  <NAME>  (4957) 
2-METHYL-1-TRIETHYLSILOXYPROPANE

>  <SYNONYMS>  (4957) 


>  <SPECTRUM TYPE>  (4957) 
MS1

>  <INSTRUMENT TYPE>  (4957) 
EI-B

>  <INSTRUMENT>  (4957) 
JEOL JMS-D-3000

>  <ION MODE>  (4957) 
P

>  <INCHIKEY>  (4957) 
COCSZBCQKMSION-UHFFFAOYSA-N

>  <FORMULA>  (4957) 
C10H24OSi

>  <EXACT MASS>  (4957) 
188.15964191799998

>  <MW>  (4957) 
188

>  <ID>  (4957) 
JP002326

>  <CONTRIBUTOR>  (4957) 
University of Tokyo Team, {Faculty of Engineering, University of Tokyo

>  <COMMENT>  (4957) 
SMILES=CC(C)CO[Si](CC)(CC)CC
InChI=InChI=1S/C10H24OSi/c1-6-12(7-2,8-3)11-9-10(4)5/h10H,6-9H2,1-5H3
computed SMILES=O(CC(C)C)[Si](CC)(CC)CC
accession=JP002326
date=2016.01.19 (Created 2008.10.21, modified 2011.05.06)
author=MASS SPECTROSCOPY SOC. OF JAPAN (MSSJ)
license=CC BY-NC-SA
exact mass=188.15964
ionization energy=70 eV
ion type=[M]+*
computed spectral entropy=2.4720880561770135
computed normalized entropy=0.7418776514551425
SPLASH=splash10-0pdi-7900000000-a003d2f98ce68a80d9e7
submitter=submitter = University of Tokyo Team (Faculty of Engineering, University of Tokyo)
MoNA Rating=3.75

>  <NUM PEAKS>  (4957) 
28

>  <MASS SPECTRAL PEAKS>  (4957) 
41 6.27
43 2.8
45 9.77
47 16.38
57 4.95
58 7.01
59 18.95
60 1.97
61 3.96
73 2.58
74 2.02
75 78.37
76 5.93
77 2.71
87 16.6
88 3.3
89 1.67
100 1.66
102 72.36
103 7.09
104 2.74
112 8.2
113 8.46
131 4.94
159 99.99
160 14.4
161 4.46
188 0.36

>  <PREDICTED SPECTRUM>  (4957) 
25 33
26 118
27 342
28 133
29 439
30 71
31 156
32 1
36 30
37 10
38 29
39 166
40 86
41 311
42 158
43 241
44 115
45 325
46 92
47 494
48 119
49 96
50 74
51 120
52 85
53 143
54 128
55 250
56 198
57 309
58 198
59 443
60 171
61 251
62 61
63 110
65 53
66 29
67 184
68 2
69 113
70 87
71 137
73 268
74 128
75 759
76 269
77 207
78 118
79 222
80 71
81 128
82 41
83 76
84 10
85 187
86 160
87 382
88 166
89 284
90 53
91 87
93 129
96 5
97 35
99 6
101 152
102 44
103 895
104 333
105 316
106 50
115 343
116 75
117 212
118 7
129 162
130 69
131 345
132 120
133 101
134 61
143 4
145 47
157 81
158 67
159 999
160 415
161 243
162 58

$$$$

     RDKit          2D

 12 11  0  0  0  0  0  0  0  0999 V2000
    6.2476    3.7231    0.0000 C   0  0  0  0  0  0  0  0  0  0  0  0
    4.7476    1.1250    0.0000 C   0  0  0  0  0  0  0  0  0  0  0  0
    6.7966    1.6740    0.0000 C   0  0  0  0  0  0  0  0  0  0  0  0
    5.1627    4.3231    0.0000 C   0  0  0  0  0  0  0  0  0  0  0  0
    3.2344    4.3231    0.0000 C   0  0  0  0  0  0  0  0  0  0  0  0
    1.6005    3.1740    0.0000 C   0  0  0  0  0  0  0  0  0  0  0  0
    2.8995    2.4240    0.0000 C   0  0  0  0  0  0  0  0  0  0  0  0
    0.3014    2.4240    0.0000 C   0  0  0  0  0  0  0  0  0  0  0  0
    5.4976    2.4240    0.0000 C   0  0  0  0  0  0  0  0  0  0  0  0
    4.1986    3.1740    0.0000 C   0  0  0  0  0  0  0  0  0  0  0  0
   -0.9976    3.1740    0.0000 O   0  0  0  0  0  0  0  0  0  0  0  0
   -2.2966    2.4240    0.0000 Si  0  0  0  0  0  4  0  0  0  0  0  0
  7  6  1  0
  8  6  1  0
  9  1  1  0
  9  2  1  0
  9  3  1  0
 10  4  1  0
 10  5  1  0
 10  7  1  0
 10  9  1  0
 11  8  1  0
 12 11  1  0
M  END
>  <NAME>  (4958) 
TERT-BUTYLDIMETHYLSILOXYBUTANE

>  <SYNONYMS>  (4958) 


>  <SPECTRUM TYPE>  (4958) 
MS1

>  <INSTRUMENT TYPE>  (4958) 
EI-B

>  <INSTRUMENT>  (4958) 
JEOL JMS-D-3000

>  <ION MODE>  (4958) 
P

>  <INCHIKEY>  (4958) 
REZBYFYIMOZMSY-UHFFFAOYSA-N

>  <FORMULA>  (4958) 
C10H24OSi

>  <EXACT MASS>  (4958) 
188.15964191799998

>  <MW>  (4958) 
188

>  <ID>  (4958) 
JP002325

>  <CONTRIBUTOR>  (4958) 
University of Tokyo Team, {Faculty of Engineering, University of Tokyo

>  <COMMENT>  (4958) 
SMILES=[SiH3]OCCCC(C)(C)C(C)(C)C
InChI=InChI=1S/C10H24OSi/c1-9(2,3)10(4,5)7-6-8-11-12/h6-8H2,1-5,12H3
computed SMILES=O([SiH3])CCCC(C)(C)C(C)(C)C
accession=JP002325
date=2016.01.19 (Created 2008.10.21, modified 2011.05.06)
author=MASS SPECTROSCOPY SOC. OF JAPAN (MSSJ)
license=CC BY-NC-SA
exact mass=188.15964
ionization energy=70 eV
ion type=[M]+*
computed spectral entropy=1.9566255968557615
computed normalized entropy=0.6156678587919143
SPLASH=splash10-003r-9700000000-dc65b20e77b3b56c5167
submitter=submitter = University of Tokyo Team (Faculty of Engineering, University of Tokyo)
MoNA Rating=3.75

>  <NUM PEAKS>  (4958) 
24

>  <MASS SPECTRAL PEAKS>  (4958) 
42 2.68
43 1.43
45 3.18
47 3.12
55 1.34
57 1.25
58 2.09
59 5.34
61 2.05
73 10.39
74 1.32
75 73.94
76 5.81
77 2.85
87 1.07
88 1.05
89 16.51
90 1.55
115 1.86
131 99.99
132 12.33
133 4.31
173 1.18
188 0.75

>  <PREDICTED SPECTRUM>  (4958) 
27 122
29 167
39 252
40 91
41 625
42 193
43 638
44 3
45 150
50 30
51 54
52 12
53 141
54 75
55 530
56 336
57 999
58 460
59 461
60 45
61 108
65 46
66 4
67 193
69 116
70 60
71 359
72 157
73 244
77 26
83 16
84 14
85 231
86 117
87 90
88 99
89 225
99 194
113 274
117 196
130 27
131 557
132 102
173 79

$$$$

     RDKit          2D

 12 11  0  0  0  0  0  0  0  0999 V2000
    2.1863    4.2623    0.0000 C   0  0  0  0  0  0  0  0  0  0  0  0
   -0.4118    2.7623    0.0000 C   0  0  0  0  0  0  0  0  0  0  0  0
   -3.0099    2.7623    0.0000 C   0  0  0  0  0  0  0  0  0  0  0  0
   -6.3579    5.5613    0.0000 C   0  0  0  0  0  0  0  0  0  0  0  0
   -6.9070    3.5123    0.0000 C   0  0  0  0  0  0  0  0  0  0  0  0
   -4.8579    2.9632    0.0000 C   0  0  0  0  0  0  0  0  0  0  0  0
    0.8873    5.0123    0.0000 C   0  0  0  0  0  0  0  0  0  0  0  0
   -1.7108    5.0123    0.0000 C   0  0  0  0  0  0  0  0  0  0  0  0
   -0.4118    4.2623    0.0000 C   0  0  0  0  0  0  0  0  0  0  0  0
   -3.0099    4.2623    0.0000 C   0  0  0  0  0  0  0  0  0  0  0  0
   -4.3089    5.0123    0.0000 O   0  0  0  0  0  0  0  0  0  0  0  0
   -5.6079    4.2623    0.0000 Si  0  0  0  0  0  4  0  0  0  0  0  0
  7  1  1  0
  9  2  1  0
  9  7  1  0
  9  8  1  0
 10  3  2  0
 10  8  1  0
 11 10  1  0
 12  4  1  0
 12  5  1  0
 12  6  1  0
 12 11  1  0
M  END
>  <NAME>  (4959) 
4-METHYL-2-TRIMETHYLSILOXYHEXENE

>  <SYNONYMS>  (4959) 


>  <SPECTRUM TYPE>  (4959) 
MS1

>  <INSTRUMENT TYPE>  (4959) 
EI-B

>  <INSTRUMENT>  (4959) 
JEOL JMS-D-3000

>  <ION MODE>  (4959) 
P

>  <INCHIKEY>  (4959) 
URNYBCYAAMHBET-UHFFFAOYSA-N

>  <FORMULA>  (4959) 
C10H22OSi

>  <EXACT MASS>  (4959) 
186.14399185399998

>  <MW>  (4959) 
186

>  <ID>  (4959) 
JP002324

>  <CONTRIBUTOR>  (4959) 
University of Tokyo Team, {Faculty of Engineering, University of Tokyo

>  <COMMENT>  (4959) 
SMILES=CCC(C)CC(=C)O[Si](C)(C)C
InChI=InChI=1S/C10H22OSi/c1-7-9(2)8-10(3)11-12(4,5)6/h9H,3,7-8H2,1-2,4-6H3
computed SMILES=O(C(=C)CC(C)CC)[Si](C)(C)C
accession=JP002324
date=2016.01.19 (Created 2008.10.21, modified 2011.05.06)
author=MASS SPECTROSCOPY SOC. OF JAPAN (MSSJ)
license=CC BY-NC-SA
exact mass=186.14399
ionization energy=70 eV
ion type=[M]+*
computed spectral entropy=2.7340358276490115
computed normalized entropy=0.7629472243913739
SPLASH=splash10-00ur-8900000000-5efe8efa2a6fbbd78f6a
submitter=submitter = University of Tokyo Team (Faculty of Engineering, University of Tokyo)
MoNA Rating=3.75

>  <NUM PEAKS>  (4959) 
36

>  <MASS SPECTRAL PEAKS>  (4959) 
40 3.22
41 9.42
43 17.32
44 6.45
45 14.23
47 5.9
55 4.81
57 5.02
58 8
59 5.51
60 3.98
61 4.2
67 2.18
69 1.82
72 6.4
73 67.83
74 6.63
75 69.95
76 5.16
77 3.2
85 2.5
95 2.18
99 2.71
101 3.67
115 96.81
116 10.81
117 4.84
130 99.99
131 13.02
132 4.3
143 5.23
157 17.92
158 2.64
171 12.52
172 1.83
186 2.15

>  <PREDICTED SPECTRUM>  (4959) 
15 13
26 1
27 62
28 2
29 90
39 118
40 21
41 264
42 64
43 221
44 90
45 253
46 29
47 128
49 11
51 10
52 7
53 76
54 2
55 242
56 100
57 261
58 109
59 131
60 81
61 154
62 12
63 33
67 13
68 32
69 96
70 65
71 87
72 75
73 681
74 184
75 670
76 150
77 69
78 0
85 111
86 67
87 57
99 180
100 40
101 39
102 35
103 0
113 144
114 88
115 999
116 316
117 199
118 18
129 42
130 776
131 309
132 152
143 82
157 153
158 92
171 371
172 112
173 66
186 171
187 62
188 16

$$$$

     RDKit          2D

 11 10  0  0  0  0  0  0  0  0999 V2000
   -7.4695    3.9375    0.0000 C   0  0  0  0  0  0  0  0  0  0  0  0
    0.3248    5.4375    0.0000 C   0  0  0  0  0  0  0  0  0  0  0  0
    1.6238    3.1875    0.0000 C   0  0  0  0  0  0  0  0  0  0  0  0
   -0.9743    6.1875    0.0000 C   0  0  0  0  0  0  0  0  0  0  0  0
   -6.1704    3.1875    0.0000 C   0  0  0  0  0  0  0  0  0  0  0  0
   -4.8714    3.9375    0.0000 C   0  0  0  0  0  0  0  0  0  0  0  0
   -3.5724    3.1875    0.0000 C   0  0  0  0  0  0  0  0  0  0  0  0
   -0.9743    3.1875    0.0000 C   0  0  0  0  0  0  0  0  0  0  0  0
    0.3248    3.9375    0.0000 C   0  0  0  0  0  0  0  0  0  0  0  0
   -2.2733    3.9375    0.0000 C   0  0  0  0  0  0  0  0  0  0  0  0
   -2.2733    5.4375    0.0000 O   0  0  0  0  0  0  0  0  0  0  0  0
  5  1  1  0
  6  5  1  0
  7  6  1  0
  9  2  2  0
  9  3  1  0
  9  8  1  0
 10  7  1  0
 10  8  1  0
 11  4  1  0
 11 10  1  0
M  END
>  <NAME>  (4960) 
2-METHYL-4-METHOXYOCT-1-ENE

>  <SYNONYMS>  (4960) 


>  <SPECTRUM TYPE>  (4960) 
MS1

>  <INSTRUMENT TYPE>  (4960) 
EI-B

>  <INSTRUMENT>  (4960) 
JEOL JMS-D-3000

>  <ION MODE>  (4960) 
P

>  <INCHIKEY>  (4960) 
GQKIPQSVWNDERA-UHFFFAOYSA-N

>  <FORMULA>  (4960) 
C10H20O

>  <EXACT MASS>  (4960) 
156.15141526

>  <MW>  (4960) 
156

>  <ID>  (4960) 
JP002323

>  <CONTRIBUTOR>  (4960) 
University of Tokyo Team, {Faculty of Engineering, University of Tokyo

>  <COMMENT>  (4960) 
SMILES=CCCCC(OC)CC(C)=C
InChI=InChI=1S/C10H20O/c1-5-6-7-10(11-4)8-9(2)3/h10H,2,5-8H2,1,3-4H3
computed SMILES=O(C)C(CC(=C)C)CCCC
accession=JP002323
date=2016.01.19 (Created 2008.10.21, modified 2011.05.06)
author=MASS SPECTROSCOPY SOC. OF JAPAN (MSSJ)
license=CC BY-NC-SA
exact mass=156.15142
ionization energy=70 eV
ion type=[M]+*
computed spectral entropy=2.0705346530018773
computed normalized entropy=0.6698499565259317
SPLASH=splash10-0uxs-9400000000-b0fbda23ebac7975818f
submitter=submitter = University of Tokyo Team (Faculty of Engineering, University of Tokyo)
MoNA Rating=3.75

>  <NUM PEAKS>  (4960) 
22

>  <MASS SPECTRAL PEAKS>  (4960) 
42 22.26
43 6
45 52.11
46 1.2
53 2.36
55 5.95
57 1.63
58 2.25
59 6.89
67 7.4
68 2.1
69 94.55
70 5.72
71 5.98
81 2.35
83 1.03
95 1.71
99 12.78
100 1.47
101 99.99
102 7.2
156 0.1

>  <PREDICTED SPECTRUM>  (4960) 
27 65
28 24
29 118
31 8
32 9
33 16
39 149
40 37
41 342
42 163
43 232
45 401
51 30
52 19
53 116
54 58
55 208
56 184
57 182
58 153
59 131
65 54
67 160
68 155
69 577
70 132
71 275
72 0
83 30
85 7
93 25
95 62
99 427
100 120
101 999
102 248
114 6
115 36
124 29

$$$$

     RDKit          2D

 11 10  0  0  0  0  0  0  0  0999 V2000
    0.0000    0.0000    0.0000 C   0  0  0  0  0  0  0  0  0  0  0  0
    1.2990    2.2500    0.0000 C   0  0  0  0  0  0  0  0  0  0  0  0
   -2.5981    1.5000    0.0000 C   0  0  0  0  0  0  0  0  0  0  0  0
   -1.8481    5.7990    0.0000 C   0  0  0  0  0  0  0  0  0  0  0  0
   -3.8971    5.2500    0.0000 C   0  0  0  0  0  0  0  0  0  0  0  0
   -3.3481    3.2010    0.0000 C   0  0  0  0  0  0  0  0  0  0  0  0
    0.0000    1.5000    0.0000 C   0  0  0  0  0  0  0  0  0  0  0  0
   -1.2990    2.2500    0.0000 C   0  0  0  0  0  0  0  0  0  0  0  0
   -1.2990    3.7500    0.0000 C   0  0  0  0  0  0  0  0  0  0  0  0
   -2.5981    4.5000    0.0000 C   0  0  0  0  0  0  0  0  0  0  0  0
    0.0000    4.5000    0.0000 O   0  0  0  0  0  0  0  0  0  0  0  0
  7  1  2  0
  7  2  1  0
  8  3  1  0
  8  7  1  0
  9  8  1  0
 10  4  1  0
 10  5  1  0
 10  6  1  0
 10  9  1  0
 11  9  2  0
M  END
>  <NAME>  (4961) 
2,2,4,5-TETRAMETHYL-5-HEXEN-3-ONE

>  <SYNONYMS>  (4961) 


>  <SPECTRUM TYPE>  (4961) 
MS1

>  <INSTRUMENT TYPE>  (4961) 
EI-B

>  <INSTRUMENT>  (4961) 
JEOL JMS-D-3000

>  <ION MODE>  (4961) 
P

>  <INCHIKEY>  (4961) 
BBWANVSATBDGOP-UHFFFAOYSA-N

>  <FORMULA>  (4961) 
C10H18O

>  <EXACT MASS>  (4961) 
154.135765196

>  <MW>  (4961) 
154

>  <ID>  (4961) 
JP002322

>  <CONTRIBUTOR>  (4961) 
University of Tokyo Team, {Faculty of Engineering, University of Tokyo

>  <COMMENT>  (4961) 
SMILES=CC(=C)C(C)C(=O)C(C)(C)C
InChI=InChI=1S/C10H18O/c1-7(2)8(3)9(11)10(4,5)6/h8H,1H2,2-6H3
computed SMILES=O=C(C(C(=C)C)C)C(C)(C)C
accession=JP002322
date=2016.01.19 (Created 2008.10.21, modified 2011.05.06)
author=MASS SPECTROSCOPY SOC. OF JAPAN (MSSJ)
license=CC BY-NC-SA
exact mass=154.13577
ionization energy=70 eV
ion type=[M]+*
computed spectral entropy=2.112342287597039
computed normalized entropy=0.7174005990761049
SPLASH=splash10-0a4i-9000000000-318e91acb68cc03c76c5
submitter=submitter = University of Tokyo Team (Faculty of Engineering, University of Tokyo)
MoNA Rating=3.75

>  <NUM PEAKS>  (4961) 
19

>  <MASS SPECTRAL PEAKS>  (4961) 
15 1.04
27 5.93
29 15.11
39 9.69
41 36.69
42 4.14
43 2.82
53 2.86
55 5.96
56 2.32
57 99.99
58 6.76
67 1.43
69 12.56
70 9.17
85 25.69
86 1.47
97 1.1
154 3.58

>  <PREDICTED SPECTRUM>  (4961) 
26 22
27 203
28 73
29 317
38 5
39 266
40 97
41 575
42 141
43 104
44 19
51 29
52 55
53 172
54 63
55 266
56 294
57 999
58 222
65 13
67 81
68 48
69 257
70 303
71 92
72 22
83 38
84 60
85 571
86 131
97 144
154 164
155 27

$$$$

     RDKit          2D

 12 12  0  0  0  0  0  0  0  0999 V2000
   -2.5476    4.3306    0.0000 C   0  0  0  0  0  0  0  0  0  0  0  0
   -4.5966    3.7816    0.0000 C   0  0  0  0  0  0  0  0  0  0  0  0
   -4.0476    1.7326    0.0000 C   0  0  0  0  0  0  0  0  0  0  0  0
    3.1976    0.7816    0.0000 C   0  0  0  0  0  0  0  0  0  0  0  0
    3.1981    2.2824    0.0000 C   0  0  0  0  0  0  0  0  0  0  0  0
    1.8981    0.0308    0.0000 C   0  0  0  0  0  0  0  0  0  0  0  0
    1.8990    3.0324    0.0000 C   0  0  0  0  0  0  0  0  0  0  0  0
    0.5990    0.7808    0.0000 C   0  0  0  0  0  0  0  0  0  0  0  0
   -0.6995    3.0316    0.0000 C   0  0  0  0  0  0  0  0  0  0  0  0
    0.5995    2.2816    0.0000 C   0  0  0  0  0  0  0  0  0  0  0  0
   -1.9986    2.2816    0.0000 O   0  0  0  0  0  0  0  0  0  0  0  0
   -3.2976    3.0316    0.0000 Si  0  0  0  0  0  4  0  0  0  0  0  0
  5  4  2  0
  6  4  1  0
  7  5  1  0
  8  6  2  0
 10  7  2  0
 10  8  1  0
 10  9  1  0
 11  9  1  0
 12  1  1  0
 12  2  1  0
 12  3  1  0
 12 11  1  0
M  END
>  <NAME>  (4962) 
BENZYLOXYTRIMETHYLSILANE

>  <SYNONYMS>  (4962) 


>  <SPECTRUM TYPE>  (4962) 
MS1

>  <INSTRUMENT TYPE>  (4962) 
EI-B

>  <INSTRUMENT>  (4962) 
JEOL JMS-D-3000

>  <ION MODE>  (4962) 
P

>  <INCHIKEY>  (4962) 
AOKMFXQCRBQJOP-UHFFFAOYSA-N

>  <FORMULA>  (4962) 
C10H16OSi

>  <EXACT MASS>  (4962) 
180.09704166199998

>  <MW>  (4962) 
180

>  <ID>  (4962) 
JP002321

>  <CONTRIBUTOR>  (4962) 
University of Tokyo Team, {Faculty of Engineering, University of Tokyo

>  <COMMENT>  (4962) 
SMILES=c(c1)ccc(c1)CO[Si](C)(C)C
InChI=InChI=1S/C10H16OSi/c1-12(2,3)11-9-10-7-5-4-6-8-10/h4-8H,9H2,1-3H3
computed SMILES=O(CC=1C=CC=CC1)[Si](C)(C)C
accession=JP002321
date=2016.01.19 (Created 2008.10.21, modified 2011.05.06)
author=MASS SPECTROSCOPY SOC. OF JAPAN (MSSJ)
license=CC BY-NC-SA
exact mass=180.09704
ionization energy=70 eV
ion type=[M]+*
computed spectral entropy=2.246916711836509
computed normalized entropy=0.7269122782171134
SPLASH=splash10-014l-8900000000-6985c84e4f9a06cf8ed9
submitter=submitter = University of Tokyo Team (Faculty of Engineering, University of Tokyo)
MoNA Rating=3.75

>  <NUM PEAKS>  (4962) 
22

>  <MASS SPECTRAL PEAKS>  (4962) 
44 3.59
56 2.37
62 2.64
65 14.93
73 16.97
74 2.98
75 3.53
77 2.78
83 6.38
89 3.46
91 99.99
92 8.35
135 51.93
136 8.07
137 2.51
149 2.57
165 77.18
166 11.81
167 3.86
179 3.25
180 12.08
181 2.57

>  <PREDICTED SPECTRUM>  (4962) 
14 3
15 44
18 13
26 31
27 5
28 18
29 86
31 90
37 45
38 89
39 202
40 47
41 116
42 66
43 263
44 166
45 381
46 65
47 116
49 62
50 144
51 226
52 120
53 125
54 26
55 69
57 129
58 169
59 230
60 94
61 180
62 115
63 201
64 96
65 345
66 122
67 38
69 28
70 0
71 15
72 58
73 582
74 195
75 421
76 149
77 271
78 146
79 140
80 5
81 50
82 16
83 52
85 67
86 26
89 232
90 188
91 999
92 366
93 65
101 8
102 15
103 117
104 166
105 203
106 7
107 61
119 13
120 32
121 89
134 117
135 465
136 167
137 142
138 8
149 90
151 46
163 68
164 2
165 793
166 327
167 140
168 2
179 88
180 223
181 68
182 16

$$$$

     RDKit          2D

 11 11  0  0  0  0  0  0  0  0999 V2000
    2.6196    0.6986    0.0000 C   0  0  0  0  0  0  0  0  0  0  0  0
   -5.1894    0.6500    0.0000 C   0  0  0  0  0  0  0  0  0  0  0  0
    1.3221   -0.0542    0.0000 C   0  0  0  0  0  0  0  0  0  0  0  0
   -2.6052   -2.2968    0.0000 C   0  0  0  0  0  0  0  0  0  0  0  0
    0.0215    0.6931    0.0000 C   0  0  0  0  0  0  0  0  0  0  0  0
   -3.8828   -1.5744    0.0000 C   0  0  0  0  0  0  0  0  0  0  0  0
   -1.3025   -1.5794    0.0000 C   0  0  0  0  0  0  0  0  0  0  0  0
   -3.8870   -0.0941    0.0000 C   0  0  0  0  0  0  0  0  0  0  0  0
   -1.2760   -0.0596    0.0000 C   0  0  0  0  0  0  0  0  0  0  0  0
   -2.5935    0.6635    0.0000 C   0  0  0  0  0  0  0  0  0  0  0  0
   -2.6145    2.1633    0.0000 O   0  0  0  0  0  0  0  0  0  0  0  0
  3  1  2  0
  5  3  1  0
  6  4  1  0
  7  4  1  0
  8  2  1  0
  8  6  1  0
  9  5  1  0
  9  7  1  0
 10  8  1  0
 10  9  1  0
 11 10  2  0
M  END
>  <NAME>  (4963) 
2-ALLYL-6-METHYLCYCLOHEXANONE

>  <SYNONYMS>  (4963) 


>  <SPECTRUM TYPE>  (4963) 
MS1

>  <INSTRUMENT TYPE>  (4963) 
EI-B

>  <INSTRUMENT>  (4963) 
JEOL JMS-D-3000

>  <ION MODE>  (4963) 
P

>  <INCHIKEY>  (4963) 
AGKHZTYZZUCRAM-UHFFFAOYSA-N

>  <FORMULA>  (4963) 
C10H16O

>  <EXACT MASS>  (4963) 
152.120115132

>  <MW>  (4963) 
152

>  <ID>  (4963) 
JP002320

>  <CONTRIBUTOR>  (4963) 
University of Tokyo Team, {Faculty of Engineering, University of Tokyo

>  <COMMENT>  (4963) 
SMILES=C=CCC(C1)C(=O)C(C)CC1
InChI=InChI=1S/C10H16O/c1-3-5-9-7-4-6-8(2)10(9)11/h3,8-9H,1,4-7H2,2H3
computed SMILES=O=C1C(C)CCCC1CC=C
accession=JP002320
date=2016.01.19 (Created 2008.10.21, modified 2011.05.06)
author=MASS SPECTROSCOPY SOC. OF JAPAN (MSSJ)
license=CC BY-NC-SA
exact mass=152.12012
ionization energy=70 eV
ion type=[M]+*
computed spectral entropy=3.2324868245001555
computed normalized entropy=0.9020426234702167
SPLASH=splash10-0ktg-9200000000-6577ab813a1b07d2d91a
submitter=submitter = University of Tokyo Team (Faculty of Engineering, University of Tokyo)
MoNA Rating=3.75

>  <NUM PEAKS>  (4963) 
36

>  <MASS SPECTRAL PEAKS>  (4963) 
42 95.69
43 12.31
53 24.5
54 65.66
55 63.63
56 16.42
57 7.44
65 6.88
66 10.02
67 99.09
68 67.78
69 27.89
70 15.32
77 6.82
79 41.76
80 15.64
81 46.77
82 28.38
83 17.13
84 10.28
93 13.65
94 99.99
95 75.1
96 50.81
97 12.49
98 8.13
108 15.76
109 56.95
110 12.19
111 12.96
119 5.87
123 15.59
124 9.66
137 24.79
152 66.74
153 8.19

>  <PREDICTED SPECTRUM>  (4963) 
27 21
28 29
39 242
40 119
41 665
42 283
43 275
44 18
50 33
51 193
52 151
53 481
54 599
55 769
56 328
57 198
58 63
60 2
63 29
65 252
66 217
67 999
68 796
69 619
70 299
71 134
77 264
78 109
79 451
80 262
81 974
82 734
83 434
84 245
85 87
91 263
92 93
93 427
94 742
95 946
96 819
97 400
98 153
105 25
107 231
108 452
109 797
110 529
111 357
112 86
119 226
122 55
123 454
124 359
125 36
134 93
135 87
137 499
138 118
151 125
152 953
153 342
154 19

$$$$

     RDKit          2D

 11 11  0  0  0  0  0  0  0  0999 V2000
    5.2185   -1.3785    0.0000 C   0  0  0  0  0  0  0  0  0  0  0  0
    1.8127   -2.1596    0.0000 C   0  0  0  0  0  0  0  0  0  0  0  0
    3.7413   -1.6389    0.0000 C   0  0  0  0  0  0  0  0  0  0  0  0
   -1.3000    0.7500    0.0000 C   0  0  0  0  0  0  0  0  0  0  0  0
    0.0000    1.5000    0.0000 C   0  0  0  0  0  0  0  0  0  0  0  0
   -1.3000   -0.7500    0.0000 C   0  0  0  0  0  0  0  0  0  0  0  0
    2.7772   -0.4897    0.0000 C   0  0  0  0  0  0  0  0  0  0  0  0
    1.3000    0.7500    0.0000 C   0  0  0  0  0  0  0  0  0  0  0  0
    0.0000   -1.5000    0.0000 C   0  0  0  0  0  0  0  0  0  0  0  0
    1.3000   -0.7500    0.0000 C   0  0  0  0  0  0  0  0  0  0  0  0
   -0.0000   -3.0000    0.0000 O   0  0  0  0  0  0  0  0  0  0  0  0
  3  1  2  0
  5  4  1  0
  6  4  1  0
  7  3  1  0
  8  5  1  0
  9  6  1  0
 10  2  1  0
 10  7  1  0
 10  8  1  0
 10  9  1  0
 11  9  2  0
M  END
>  <NAME>  (4964) 
2-ALLYL-2-METHYLCYCLOHEXANONE

>  <SYNONYMS>  (4964) 


>  <SPECTRUM TYPE>  (4964) 
MS1

>  <INSTRUMENT TYPE>  (4964) 
EI-B

>  <INSTRUMENT>  (4964) 
JEOL JMS-D-3000

>  <ION MODE>  (4964) 
P

>  <INCHIKEY>  (4964) 
FGDGJMZVLROUMG-UHFFFAOYSA-N

>  <FORMULA>  (4964) 
C10H16O

>  <EXACT MASS>  (4964) 
152.120115132

>  <MW>  (4964) 
152

>  <ID>  (4964) 
JP002319

>  <CONTRIBUTOR>  (4964) 
University of Tokyo Team, {Faculty of Engineering, University of Tokyo

>  <COMMENT>  (4964) 
SMILES=C=CCC(C)(C1)C(=O)CCC1
InChI=InChI=1S/C10H16O/c1-3-7-10(2)8-5-4-6-9(10)11/h3H,1,4-8H2,2H3
computed SMILES=O=C1CCCCC1(C)CC=C
accession=JP002319
date=2016.01.19 (Created 2008.10.21, modified 2011.05.06)
author=MASS SPECTROSCOPY SOC. OF JAPAN (MSSJ)
license=CC BY-NC-SA
exact mass=152.12012
ionization energy=70 eV
ion type=[M]+*
computed spectral entropy=3.2016105896982157
computed normalized entropy=0.8801470120886529
SPLASH=splash10-0a4l-9200000000-03198d0dbf5d5ec63756
submitter=submitter = University of Tokyo Team (Faculty of Engineering, University of Tokyo)
MoNA Rating=3.75

>  <NUM PEAKS>  (4964) 
38

>  <MASS SPECTRAL PEAKS>  (4964) 
42 60.45
43 9.43
51 4
53 15.88
54 10.25
55 99.99
56 6.15
65 4.85
66 4.06
67 52.58
68 19.29
69 16.08
70 4.26
71 3.56
77 5.95
79 16.68
80 9.21
81 30.37
82 18.43
83 43.75
84 8.82
91 5.22
93 51.76
94 21.24
95 31.34
96 6.2
97 3.55
108 27.66
109 48.73
110 8.47
111 4.8
119 5.8
123 19.06
124 4.25
134 4.84
137 24.78
152 29.19
153 3.41

>  <PREDICTED SPECTRUM>  (4964) 
26 6
27 214
28 74
29 130
39 404
40 197
41 852
42 346
43 504
44 83
50 77
51 239
52 177
53 558
54 499
55 976
56 309
57 145
63 105
65 295
66 202
67 931
68 618
69 750
70 358
71 193
77 377
78 160
79 545
80 357
81 974
82 689
83 535
84 297
85 20
91 417
92 101
93 682
94 537
95 829
96 434
97 371
98 126
105 77
106 3
107 242
108 578
109 999
110 511
111 387
112 75
119 193
123 375
124 366
125 22
134 282
135 100
137 527
138 116
151 37
152 719
153 234

$$$$

     RDKit          2D

 10 10  0  0  0  0  0  0  0  0999 V2000
    2.5987    3.0002    0.0000 C   0  0  0  0  0  0  0  0  0  0  0  0
    3.8981    0.7504    0.0000 C   0  0  0  0  0  0  0  0  0  0  0  0
   -2.5989   -1.5002    0.0000 C   0  0  0  0  0  0  0  0  0  0  0  0
   -1.3000    0.7500    0.0000 C   0  0  0  0  0  0  0  0  0  0  0  0
   -0.0000   -1.5000    0.0000 C   0  0  0  0  0  0  0  0  0  0  0  0
    0.0000    1.5000    0.0000 C   0  0  0  0  0  0  0  0  0  0  0  0
    1.3000   -0.7500    0.0000 C   0  0  0  0  0  0  0  0  0  0  0  0
    2.5989    1.5002    0.0000 C   0  0  0  0  0  0  0  0  0  0  0  0
   -1.3000   -0.7500    0.0000 C   0  0  0  0  0  0  0  0  0  0  0  0
    1.3000    0.7500    0.0000 C   0  0  0  0  0  0  0  0  0  0  0  0
  6  4  1  0
  7  5  1  0
  8  1  2  0
  8  2  1  0
  9  3  1  0
  9  4  2  0
  9  5  1  0
 10  6  1  0
 10  7  1  0
 10  8  1  0
M  END
>  <NAME>  (4965) 
1-METHYL-4-ISOPROPENYLCYCLOHEXENE

>  <SYNONYMS>  (4965) 


>  <SPECTRUM TYPE>  (4965) 
MS1

>  <INSTRUMENT TYPE>  (4965) 
EI-B

>  <INSTRUMENT>  (4965) 
JEOL JMS-D-3000

>  <ION MODE>  (4965) 
P

>  <INCHIKEY>  (4965) 
XMGQYMWWDOXHJM-UHFFFAOYSA-N

>  <FORMULA>  (4965) 
C10H16

>  <EXACT MASS>  (4965) 
136.125200512

>  <MW>  (4965) 
136

>  <ID>  (4965) 
JP002318

>  <CONTRIBUTOR>  (4965) 
University of Tokyo Team, {Faculty of Engineering, University of Tokyo

>  <COMMENT>  (4965) 
SMILES=CC(=C)C(C1)CC([H])=C(C)C1
InChI=InChI=1S/C10H16/c1-8(2)10-6-4-9(3)5-7-10/h4,10H,1,5-7H2,2-3H3
computed SMILES=C=C(C)C1CC=C(C)CC1
accession=JP002318
date=2016.01.19 (Created 2008.10.21, modified 2011.05.06)
author=MASS SPECTROSCOPY SOC. OF JAPAN (MSSJ)
license=CC BY-NC-SA
exact mass=136.1252
ionization energy=70 eV
ion type=[M]+*
computed spectral entropy=2.797852336916808
computed normalized entropy=0.880366565915118
SPLASH=splash10-00kf-9300000000-d7348db845e3e79845dd
submitter=submitter = University of Tokyo Team (Faculty of Engineering, University of Tokyo)
MoNA Rating=3.75

>  <NUM PEAKS>  (4965) 
24

>  <MASS SPECTRAL PEAKS>  (4965) 
41 22.69
43 5.29
53 11.46
55 6.69
65 3.88
67 31.55
68 66.98
69 14.7
77 11.7
79 29.33
80 15.73
81 13.29
91 14.56
92 23.23
93 99.99
94 28.57
95 10
105 5.79
107 28.22
108 6.88
121 37.18
122 3.96
136 62.63
137 7.06

>  <PREDICTED SPECTRUM>  (4965) 
25 0
26 59
27 314
28 105
29 214
37 35
38 80
39 489
40 237
41 700
42 207
43 185
44 20
50 140
51 275
52 235
53 531
54 367
55 352
56 93
57 81
59 14
61 13
62 77
63 152
64 66
65 329
66 331
67 999
68 904
69 341
70 63
74 7
75 48
76 30
77 451
78 207
79 807
80 604
81 690
82 209
89 55
90 27
91 527
92 331
93 990
94 648
95 405
96 175
102 10
103 142
104 63
105 255
106 73
107 532
108 327
109 136
115 21
118 24
119 176
120 5
121 586
122 196
123 22
134 0
135 6
136 490
137 152

$$$$

     RDKit          2D

 11 12  0  0  0  0  0  0  0  0999 V2000
    0.4487    2.2416    0.0000 C   0  0  0  0  0  0  0  0  0  0  0  0
   -2.3100   -0.7500    0.0000 C   0  0  0  0  0  0  0  0  0  0  0  0
   -2.3100    0.7500    0.0000 C   0  0  0  0  0  0  0  0  0  0  0  0
   -1.0100   -1.5000    0.0000 C   0  0  0  0  0  0  0  0  0  0  0  0
   -1.0100    1.5000    0.0000 C   0  0  0  0  0  0  0  0  0  0  0  0
    1.7200   -1.2100    0.0000 C   0  0  0  0  0  0  0  0  0  0  0  0
    1.7200    1.2100    0.0000 C   0  0  0  0  0  0  0  0  0  0  0  0
    0.2900   -0.7500    0.0000 C   0  0  0  0  0  0  0  0  0  0  0  0
    2.6000    0.0000    0.0000 C   0  0  0  0  0  0  0  0  0  0  0  0
    0.2900    0.7500    0.0000 C   0  0  0  0  0  0  0  0  0  0  0  0
    4.1000   -0.0000    0.0000 O   0  0  0  0  0  0  0  0  0  0  0  0
  3  2  1  0
  4  2  1  0
  5  3  1  0
  8  4  1  0
  8  6  2  0
  9  6  1  0
  9  7  1  0
 10  1  1  0
 10  5  1  0
 10  7  1  0
 10  8  1  0
 11  9  2  0
M  END
>  <NAME>  (4966) 
Y-METHYLBICYCLO(4.3.0)NON-6-EN-8-ONE

>  <SYNONYMS>  (4966) 


>  <SPECTRUM TYPE>  (4966) 
MS1

>  <INSTRUMENT TYPE>  (4966) 
EI-B

>  <INSTRUMENT>  (4966) 
JEOL JMS-D-3000

>  <ION MODE>  (4966) 
P

>  <INCHIKEY>  (4966) 
HJDKCIOQDUHLEF-UHFFFAOYSA-N

>  <FORMULA>  (4966) 
C10H14O

>  <EXACT MASS>  (4966) 
150.104465068

>  <MW>  (4966) 
150

>  <ID>  (4966) 
JP002317

>  <CONTRIBUTOR>  (4966) 
University of Tokyo Team, {Faculty of Engineering, University of Tokyo

>  <COMMENT>  (4966) 
SMILES=O=C(C=1)CC(C)(C2)C(CCC2)1
InChI=InChI=1S/C10H14O/c1-10-5-3-2-4-8(10)6-9(11)7-10/h6H,2-5,7H2,1H3
computed SMILES=O=C1C=C2CCCCC2(C)C1
accession=JP002317
date=2016.01.19 (Created 2008.10.21, modified 2011.05.06)
author=MASS SPECTROSCOPY SOC. OF JAPAN (MSSJ)
license=CC BY-NC-SA
exact mass=150.10447
ionization energy=70 eV
ion type=[M]+*
computed spectral entropy=2.980090267955072
computed normalized entropy=0.8761885693616259
SPLASH=splash10-0kil-6900000000-d7a8c5c8d8e324b3846e
submitter=submitter = University of Tokyo Team (Faculty of Engineering, University of Tokyo)
MoNA Rating=3.75

>  <NUM PEAKS>  (4966) 
30

>  <MASS SPECTRAL PEAKS>  (4966) 
43 5.59
51 9.68
52 6.04
53 12.71
55 10.86
65 10.19
66 6.08
67 12.51
77 23.27
78 7.07
79 54.27
80 15.54
81 11.57
82 13.13
91 22.72
93 37.28
94 10.57
95 6.09
105 5.29
107 37.35
108 19.03
109 61.11
110 5.06
121 34.29
122 21.01
135 99.99
136 10.25
149 5.09
150 87.26
151 10.31

>  <PREDICTED SPECTRUM>  (4966) 
26 70
27 252
28 85
29 120
37 29
38 121
39 516
40 253
41 615
42 213
43 251
44 122
45 24
49 17
50 233
51 457
52 311
53 511
54 267
55 421
56 123
57 133
58 32
60 4
62 115
63 290
64 148
65 466
66 360
67 661
68 353
69 305
70 78
71 20
74 70
75 57
76 44
77 662
78 354
79 895
80 438
81 524
82 406
83 209
84 87
89 121
90 15
91 619
92 330
93 743
94 529
95 451
96 280
97 62
102 9
103 140
104 88
105 303
106 171
107 938
108 742
109 557
110 250
115 26
116 2
117 189
118 28
119 126
120 125
121 643
122 652
123 206
131 107
132 56
133 182
134 58
135 979
136 319
137 48
148 28
149 293
150 999
151 355
152 90

$$$$

     RDKit          2D

 12 12  0  0  0  0  0  0  0  0999 V2000
   -0.4685   -1.8502    0.0000 C   0  0  0  0  0  0  0  0  0  0  0  0
   -1.7652    0.4011    0.0000 C   0  0  0  0  0  0  0  0  0  0  0  0
    0.8344    1.8985    0.0000 C   0  0  0  0  0  0  0  0  0  0  0  0
    5.0626    2.1944    0.0000 C   0  0  0  0  0  0  0  0  0  0  0  0
    3.5954    1.8825    0.0000 C   0  0  0  0  0  0  0  0  0  0  0  0
    5.8078    0.9010    0.0000 C   0  0  0  0  0  0  0  0  0  0  0  0
   -0.4670   -0.3502    0.0000 C   0  0  0  0  0  0  0  0  0  0  0  0
    0.8328    0.3985    0.0000 C   0  0  0  0  0  0  0  0  0  0  0  0
    3.4309    0.3958    0.0000 C   0  0  0  0  0  0  0  0  0  0  0  0
    2.1311   -0.3529    0.0000 C   0  0  0  0  0  0  0  0  0  0  0  0
    2.1296   -1.8529    0.0000 O   0  0  0  0  0  0  0  0  0  0  0  0
    4.8072   -0.2113    0.0000 O   0  0  0  0  0  0  0  0  0  0  0  0
  5  4  1  0
  6  4  2  0
  7  1  2  0
  7  2  1  0
  8  3  1  0
  8  7  1  0
  9  5  2  0
 10  8  1  0
 10  9  1  0
 11 10  2  0
 12  6  1  0
 12  9  1  0
M  END
>  <NAME>  (4967) 
2,3-DIMETHYL-1-(2-FURYL)-3-BUTEN-1-ONE

>  <SYNONYMS>  (4967) 


>  <SPECTRUM TYPE>  (4967) 
MS1

>  <INSTRUMENT TYPE>  (4967) 
EI-B

>  <INSTRUMENT>  (4967) 
JEOL JMS-D-3000

>  <ION MODE>  (4967) 
P

>  <INCHIKEY>  (4967) 
WGNCXGIIBJVYLT-UHFFFAOYSA-N

>  <FORMULA>  (4967) 
C10H12O2

>  <EXACT MASS>  (4967) 
164.083729624

>  <MW>  (4967) 
164

>  <ID>  (4967) 
JP002316

>  <CONTRIBUTOR>  (4967) 
University of Tokyo Team, {Faculty of Engineering, University of Tokyo

>  <COMMENT>  (4967) 
SMILES=CC(=C)C(C)C(=O)c(c1)occ1
InChI=InChI=1S/C10H12O2/c1-7(2)8(3)10(11)9-5-4-6-12-9/h4-6,8H,1H2,2-3H3
computed SMILES=O=C(C=1OC=CC1)C(C(=C)C)C
accession=JP002316
date=2016.01.19 (Created 2008.10.21, modified 2011.05.06)
author=MASS SPECTROSCOPY SOC. OF JAPAN (MSSJ)
license=CC BY-NC-SA
exact mass=164.08373
ionization energy=70 eV
ion type=[M]+*
computed spectral entropy=2.987274405561821
computed normalized entropy=0.7560339524270879
SPLASH=splash10-000b-9300000000-71a7b55cebffef54773c
submitter=submitter = University of Tokyo Team (Faculty of Engineering, University of Tokyo)
MoNA Rating=3.75

>  <NUM PEAKS>  (4967) 
52

>  <MASS SPECTRAL PEAKS>  (4967) 
26 1.06
27 14.54
29 3.29
36 1.27
37 2.08
38 7.68
39 61.87
41 63.4
42 4.14
43 5.32
44 1.48
50 2.12
51 7.1
52 2.28
53 11.3
54 2.08
55 5.2
56 1.13
57 1.34
63 1.71
65 3.33
66 2.15
67 10.81
68 9.36
69 15.61
70 1.69
77 4.38
78 1.29
79 2.49
80 1.41
81 5.89
82 1.38
91 4.31
92 1.22
93 4.29
94 1.86
95 99.99
96 25.24
97 3.24
107 4.47
108 1.25
110 4.82
121 16.45
122 2.83
123 1.61
124 2.76
135 2.3
136 86.56
137 8.96
149 24.41
150 2.51
164 5.29

>  <PREDICTED SPECTRUM>  (4967) 
26 23
27 90
29 12
37 48
38 115
39 368
40 67
41 311
43 143
50 48
51 138
52 104
53 166
54 69
55 80
63 46
64 22
65 165
66 96
67 119
68 107
69 293
77 45
79 53
80 20
81 96
82 21
93 222
94 133
95 999
96 202
97 0
107 104
108 62
121 91
122 117
123 48
135 71
136 95
137 7
149 50
164 271
165 42

$$$$

     RDKit          2D

 11 10  0  0  0  0  0  0  0  0999 V2000
    5.3603    3.9608    0.0000 C   0  0  0  0  0  0  0  0  0  0  0  0
    3.8603    1.3627    0.0000 C   0  0  0  0  0  0  0  0  0  0  0  0
    5.9094    1.9118    0.0000 C   0  0  0  0  0  0  0  0  0  0  0  0
   -1.3358    3.9608    0.0000 C   0  0  0  0  0  0  0  0  0  0  0  0
   -1.8849    1.9118    0.0000 C   0  0  0  0  0  0  0  0  0  0  0  0
    0.1642    1.3627    0.0000 C   0  0  0  0  0  0  0  0  0  0  0  0
    2.0123    2.6618    0.0000 C   0  0  0  0  0  0  0  0  0  0  0  0
    3.3113    3.4118    0.0000 C   0  0  0  0  0  0  0  0  0  0  0  0
    0.7132    3.4118    0.0000 C   0  0  0  0  0  0  0  0  0  0  0  0
    4.6103    2.6618    0.0000 Si  0  0  0  0  0  4  0  0  0  0  0  0
   -0.5858    2.6618    0.0000 Si  0  0  0  0  0  4  0  0  0  0  0  0
  7  8  2  0
  9  7  1  0
 10  1  1  0
 10  2  1  0
 10  3  1  0
 10  8  1  0
 11  4  1  0
 11  5  1  0
 11  6  1  0
 11  9  1  0
M  END
>  <NAME>  (4968) 
1,3-BIS(TRIMETHYLSILYL)PROPENE

>  <SYNONYMS>  (4968) 


>  <SPECTRUM TYPE>  (4968) 
MS1

>  <INSTRUMENT TYPE>  (4968) 
EI-B

>  <INSTRUMENT>  (4968) 
JEOL JMS-D-3000

>  <ION MODE>  (4968) 
P

>  <INCHIKEY>  (4968) 
SVOLIZOGHWXZQV-BQYQJAHWSA-N

>  <FORMULA>  (4968) 
C9H22Si2

>  <EXACT MASS>  (4968) 
186.12600376400002

>  <MW>  (4968) 
186

>  <ID>  (4968) 
JP002314

>  <CONTRIBUTOR>  (4968) 
University of Tokyo Team, {Faculty of Engineering, University of Tokyo

>  <COMMENT>  (4968) 
SMILES=C[Si](C)(C)CC=C[Si](C)(C)C
InChI=InChI=1S/C9H22Si2/c1-10(2,3)8-7-9-11(4,5)6/h7-8H,9H2,1-6H3/b8-7+
computed SMILES=C(=C[Si](C)(C)C)C[Si](C)(C)C
accession=JP002314
date=2016.01.19 (Created 2008.10.21, modified 2011.05.06)
author=MASS SPECTROSCOPY SOC. OF JAPAN (MSSJ)
license=CC BY-NC-SA
exact mass=186.126
ionization energy=70 eV
ion type=[M]+*
computed spectral entropy=1.7832058756329154
computed normalized entropy=0.6756980440030398
SPLASH=splash10-00dj-9000000000-68cfbf19268852848289
submitter=submitter = University of Tokyo Team (Faculty of Engineering, University of Tokyo)
MoNA Rating=3.75

>  <NUM PEAKS>  (4968) 
14

>  <MASS SPECTRAL PEAKS>  (4968) 
41 1.63
44 5.46
45 1.63
46 14.75
59 5.46
73 99.99
74 6.55
75 4.91
83 7.1
97 4.37
98 69.39
99 4.37
171 8.19
186 7.65

>  <PREDICTED SPECTRUM>  (4968) 
29 3
31 39
39 18
40 2
43 151
44 104
45 375
46 45
53 29
54 6
55 103
57 31
58 199
59 377
60 34
67 44
69 22
71 26
72 104
73 999
74 284
75 112
81 6
83 318
84 129
85 116
86 6
97 188
98 176
99 76
112 188
113 43
171 65
186 151

$$$$

     RDKit          2D

 10  9  0  0  0  0  0  0  0  0999 V2000
   -4.8714    3.9375    0.0000 C   0  0  0  0  0  0  0  0  0  0  0  0
    2.9228    3.9375    0.0000 C   0  0  0  0  0  0  0  0  0  0  0  0
    0.3248   -0.5625    0.0000 C   0  0  0  0  0  0  0  0  0  0  0  0
   -3.5724    3.1875    0.0000 C   0  0  0  0  0  0  0  0  0  0  0  0
    1.6238    3.1875    0.0000 C   0  0  0  0  0  0  0  0  0  0  0  0
    0.3248    0.9375    0.0000 C   0  0  0  0  0  0  0  0  0  0  0  0
   -2.2733    3.9375    0.0000 C   0  0  0  0  0  0  0  0  0  0  0  0
    0.3248    3.9375    0.0000 C   0  0  0  0  0  0  0  0  0  0  0  0
   -0.9743    1.6875    0.0000 C   0  0  0  0  0  0  0  0  0  0  0  0
   -0.9743    3.1875    0.0000 N   0  0  0  0  0  0  0  0  0  0  0  0
  4  1  1  0
  5  2  1  0
  6  3  1  0
  7  4  1  0
  8  5  1  0
  9  6  1  0
 10  7  1  0
 10  8  1  0
 10  9  1  0
M  END
>  <NAME>  (4969) 
TRIPROPYLAMINE

>  <SYNONYMS>  (4969) 


>  <SPECTRUM TYPE>  (4969) 
MS1

>  <INSTRUMENT TYPE>  (4969) 
EI-B

>  <INSTRUMENT>  (4969) 
JEOL JMS-D-3000

>  <ION MODE>  (4969) 
P

>  <INCHIKEY>  (4969) 
YFTHZRPMJXBUME-UHFFFAOYSA-N

>  <FORMULA>  (4969) 
C9H21N

>  <EXACT MASS>  (4969) 
143.167399672

>  <MW>  (4969) 
143

>  <ID>  (4969) 
JP002313

>  <CONTRIBUTOR>  (4969) 
University of Tokyo Team, {Faculty of Engineering, University of Tokyo

>  <COMMENT>  (4969) 
SMILES=CCCN(CCC)CCC
InChI=InChI=1S/C9H21N/c1-4-7-10(8-5-2)9-6-3/h4-9H2,1-3H3
computed SMILES=N(CCC)(CCC)CCC
accession=JP002313
date=2016.01.19 (Created 2008.10.21, modified 2011.05.06)
author=MASS SPECTROSCOPY SOC. OF JAPAN (MSSJ)
license=CC BY-NC-SA
exact mass=143.1674
ionization energy=70 eV
ion type=[M]+*
computed spectral entropy=2.10452038701526
computed normalized entropy=0.702506163716212
SPLASH=splash10-00du-9000000000-a9eef4712317c253591f
submitter=submitter = University of Tokyo Team (Faculty of Engineering, University of Tokyo)
MoNA Rating=3.75

>  <NUM PEAKS>  (4969) 
20

>  <MASS SPECTRAL PEAKS>  (4969) 
41 1.63
42 1.13
43 50.75
44 5.49
45 19.76
56 4.48
57 48.32
58 3.5
59 4.81
68 3.27
71 99.99
72 6.64
73 1.09
76 4.81
85 87.21
86 8.43
87 2.78
98 6.16
112 3.4
143 1.37

>  <PREDICTED SPECTRUM>  (4969) 
14 0
15 115
18 54
25 26
26 89
27 413
28 327
29 325
30 563
39 359
40 149
41 685
42 487
43 725
44 388
45 37
51 33
52 12
54 183
55 121
56 271
57 91
58 185
67 77
68 144
69 61
70 332
71 57
72 741
73 201
74 10
78 40
84 215
85 15
86 396
87 51
96 26
98 103
100 159
101 67
112 126
114 999
115 386
116 158
142 142
143 344
144 129

$$$$

     RDKit          2D

 12 11  0  0  0  0  0  0  0  0999 V2000
   -8.2697    4.9755    0.0000 C   0  0  0  0  0  0  0  0  0  0  0  0
    0.0736    2.9264    0.0000 C   0  0  0  0  0  0  0  0  0  0  0  0
    2.1226    3.4755    0.0000 C   0  0  0  0  0  0  0  0  0  0  0  0
    1.5736    5.5245    0.0000 C   0  0  0  0  0  0  0  0  0  0  0  0
   -6.9707    4.2255    0.0000 C   0  0  0  0  0  0  0  0  0  0  0  0
   -5.6716    4.9755    0.0000 C   0  0  0  0  0  0  0  0  0  0  0  0
   -4.3726    4.2255    0.0000 C   0  0  0  0  0  0  0  0  0  0  0  0
   -3.0736    4.9755    0.0000 C   0  0  0  0  0  0  0  0  0  0  0  0
   -1.7745    4.2255    0.0000 C   0  0  0  0  0  0  0  0  0  0  0  0
   -1.7745    2.7255    0.0000 O   0  0  0  0  0  0  0  0  0  0  0  0
   -0.4755    4.9755    0.0000 O   0  0  0  0  0  0  0  0  0  0  0  0
    0.8236    4.2255    0.0000 Si  0  0  0  0  0  4  0  0  0  0  0  0
  5  1  1  0
  6  5  1  0
  7  6  1  0
  8  7  1  0
  9  8  1  0
 10  9  2  0
 11  9  1  0
 12  2  1  0
 12  3  1  0
 12  4  1  0
 12 11  1  0
M  END
>  <NAME>  (4970) 
TRIMETHYLSILYL HEXANOATE

>  <SYNONYMS>  (4970) 


>  <SPECTRUM TYPE>  (4970) 
MS1

>  <INSTRUMENT TYPE>  (4970) 
EI-B

>  <INSTRUMENT>  (4970) 
JEOL JMS-D-3000

>  <ION MODE>  (4970) 
P

>  <INCHIKEY>  (4970) 
CYXNJMDACJPPRR-UHFFFAOYSA-N

>  <FORMULA>  (4970) 
C9H20O2Si

>  <EXACT MASS>  (4970) 
188.12325641

>  <MW>  (4970) 
188

>  <ID>  (4970) 
JP002312

>  <CONTRIBUTOR>  (4970) 
University of Tokyo Team, {Faculty of Engineering, University of Tokyo

>  <COMMENT>  (4970) 
SMILES=CCCCCC(=O)O[Si](C)(C)C
InChI=InChI=1S/C9H20O2Si/c1-5-6-7-8-9(10)11-12(2,3)4/h5-8H2,1-4H3
computed SMILES=O=C(O[Si](C)(C)C)CCCCC
accession=JP002312
date=2016.01.19 (Created 2008.10.21, modified 2011.05.06)
author=MASS SPECTROSCOPY SOC. OF JAPAN (MSSJ)
license=CC BY-NC-SA
exact mass=188.12326
ionization energy=70 eV
ion type=[M]+*
computed spectral entropy=2.136079959166228
computed normalized entropy=0.7539425026525091
SPLASH=splash10-00fr-9300000000-a578dc8e72e90713c600
submitter=submitter = University of Tokyo Team (Faculty of Engineering, University of Tokyo)
MoNA Rating=3.75

>  <NUM PEAKS>  (4970) 
17

>  <MASS SPECTRAL PEAKS>  (4970) 
42 6.85
43 6.29
45 8.61
47 6.18
55 6.75
60 5.27
61 7.02
73 99.99
74 9.85
75 99.01
76 7.18
117 26.33
131 7.6
132 12.22
173 48.07
174 6.71
188 0.89

>  <PREDICTED SPECTRUM>  (4970) 
14 6
15 15
26 12
27 95
28 49
29 103
31 20
32 10
36 4
38 28
39 172
40 67
41 263
42 193
43 360
44 163
45 341
46 66
47 291
48 24
49 50
50 14
51 42
52 25
53 106
54 49
55 371
56 103
57 122
58 137
59 127
60 102
61 301
62 25
63 58
65 21
66 8
67 0
69 228
70 134
71 130
72 218
73 848
74 259
75 999
76 296
77 242
78 30
81 24
83 48
85 14
86 58
87 68
88 70
89 55
90 25
98 114
99 179
101 147
102 68
103 119
104 14
105 15
111 34
112 37
113 85
115 132
116 247
117 629
118 225
119 27
127 46
128 11
129 456
130 235
131 289
132 345
133 148
134 35
143 21
144 74
145 281
146 75
155 44
156 0
157 37
159 110
160 38
171 8
173 669
174 252
175 134
176 7
188 69
189 6

$$$$

     RDKit          2D

 11 10  0  0  0  0  0  0  0  0999 V2000
    1.5368    3.1373    0.0000 C   0  0  0  0  0  0  0  0  0  0  0  0
    0.2377    0.8873    0.0000 C   0  0  0  0  0  0  0  0  0  0  0  0
   -2.3603    0.8873    0.0000 C   0  0  0  0  0  0  0  0  0  0  0  0
   -4.4094    4.4363    0.0000 C   0  0  0  0  0  0  0  0  0  0  0  0
   -4.9584    2.3873    0.0000 C   0  0  0  0  0  0  0  0  0  0  0  0
   -2.9094    1.8382    0.0000 C   0  0  0  0  0  0  0  0  0  0  0  0
    0.2377    3.8873    0.0000 C   0  0  0  0  0  0  0  0  0  0  0  0
   -1.0613    1.6373    0.0000 C   0  0  0  0  0  0  0  0  0  0  0  0
   -1.0613    3.1373    0.0000 C   0  0  0  0  0  0  0  0  0  0  0  0
   -2.3603    3.8873    0.0000 O   0  0  0  0  0  0  0  0  0  0  0  0
   -3.6594    3.1373    0.0000 Si  0  0  0  0  0  4  0  0  0  0  0  0
  7  1  1  0
  8  2  1  0
  8  3  1  0
  9  7  1  0
  9  8  2  0
 10  9  1  0
 11  4  1  0
 11  5  1  0
 11  6  1  0
 11 10  1  0
M  END
>  <NAME>  (4971) 
2-METHYL-3-TRIMETHYLSILOXY-2-PENTENE

>  <SYNONYMS>  (4971) 


>  <SPECTRUM TYPE>  (4971) 
MS1

>  <INSTRUMENT TYPE>  (4971) 
EI-B

>  <INSTRUMENT>  (4971) 
JEOL JMS-D-3000

>  <ION MODE>  (4971) 
P

>  <INCHIKEY>  (4971) 
DYKBJHFIVZAUPC-UHFFFAOYSA-N

>  <FORMULA>  (4971) 
C9H20OSi

>  <EXACT MASS>  (4971) 
172.12834178999998

>  <MW>  (4971) 
172

>  <ID>  (4971) 
JP002311

>  <CONTRIBUTOR>  (4971) 
University of Tokyo Team, {Faculty of Engineering, University of Tokyo

>  <COMMENT>  (4971) 
InChI=InChI=1S/C9H20OSi/c1-7-9(8(2)3)10-11(4,5)6/h7H2,1-6H3
SMILES=CCC(=C(C)C)O[Si](C)(C)C
computed SMILES=O(C(=C(C)C)CC)[Si](C)(C)C
accession=JP002311
date=2016.01.19 (Created 2008.10.21, modified 2011.05.06)
author=MASS SPECTROSCOPY SOC. OF JAPAN (MSSJ)
license=CC BY-NC-SA
exact mass=172.12834
ionization energy=70 eV
ion type=[M]+*
computed spectral entropy=2.3852656496658526
computed normalized entropy=0.7410244381712113
SPLASH=splash10-00fr-9200000000-dec650c6d497b25e8082
submitter=submitter = University of Tokyo Team (Faculty of Engineering, University of Tokyo)
MoNA Rating=3.75

>  <NUM PEAKS>  (4971) 
25

>  <MASS SPECTRAL PEAKS>  (4971) 
42 7.46
43 5.51
44 2.85
45 15.18
47 5.29
55 3.6
57 7.35
59 5.05
61 3.52
67 5.9
71 3.92
73 99.99
74 8.76
75 80.06
76 5.91
77 3.25
91 2.39
115 2.38
129 3.02
143 6.94
144 4.43
157 23.01
158 3.35
172 20.9
173 3.23

>  <PREDICTED SPECTRUM>  (4971) 
27 51
29 90
39 66
40 24
41 133
42 16
43 225
44 73
45 269
46 36
47 111
53 103
54 50
55 83
57 110
58 30
59 214
60 27
61 128
65 9
67 148
68 18
69 50
71 20
72 82
73 999
74 245
75 802
76 209
77 108
81 76
82 175
83 15
89 66
99 1
101 22
104 10
113 22
115 213
116 112
117 49
127 43
129 333
130 90
143 269
144 147
145 48
157 438
158 146
159 24
172 504
173 170
174 74

$$$$

     RDKit          2D

 10  9  0  0  0  0  0  0  0  0999 V2000
   -7.4695    3.9375    0.0000 C   0  0  0  0  0  0  0  0  0  0  0  0
    1.6238    3.1875    0.0000 C   0  0  0  0  0  0  0  0  0  0  0  0
   -0.9743    6.1875    0.0000 C   0  0  0  0  0  0  0  0  0  0  0  0
   -6.1704    3.1875    0.0000 C   0  0  0  0  0  0  0  0  0  0  0  0
    0.3248    3.9375    0.0000 C   0  0  0  0  0  0  0  0  0  0  0  0
   -4.8714    3.9375    0.0000 C   0  0  0  0  0  0  0  0  0  0  0  0
   -0.9743    3.1875    0.0000 C   0  0  0  0  0  0  0  0  0  0  0  0
   -3.5724    3.1875    0.0000 C   0  0  0  0  0  0  0  0  0  0  0  0
   -2.2733    3.9375    0.0000 C   0  0  0  0  0  0  0  0  0  0  0  0
   -2.2733    5.4375    0.0000 O   0  0  0  0  0  0  0  0  0  0  0  0
  4  1  1  0
  5  2  2  0
  6  4  1  0
  7  5  1  0
  8  6  1  0
  9  7  1  0
  9  8  1  0
 10  3  1  0
 10  9  1  0
M  END
>  <NAME>  (4972) 
4-METHOXYOCT-1-ENE

>  <SYNONYMS>  (4972) 


>  <SPECTRUM TYPE>  (4972) 
MS1

>  <INSTRUMENT TYPE>  (4972) 
EI-B

>  <INSTRUMENT>  (4972) 
JEOL JMS-D-3000

>  <ION MODE>  (4972) 
P

>  <INCHIKEY>  (4972) 
IASDJCRPRZHAJM-UHFFFAOYSA-N

>  <FORMULA>  (4972) 
C9H18O

>  <EXACT MASS>  (4972) 
142.135765196

>  <MW>  (4972) 
142

>  <ID>  (4972) 
JP002310

>  <CONTRIBUTOR>  (4972) 
University of Tokyo Team, {Faculty of Engineering, University of Tokyo

>  <COMMENT>  (4972) 
SMILES=CCCCC(OC)CC=C
InChI=InChI=1S/C9H18O/c1-4-6-8-9(10-3)7-5-2/h5,9H,2,4,6-8H2,1,3H3
computed SMILES=O(C)C(CC=C)CCCC
accession=JP002310
date=2016.01.19 (Created 2008.10.21, modified 2011.05.06)
author=MASS SPECTROSCOPY SOC. OF JAPAN (MSSJ)
license=CC BY-NC-SA
exact mass=142.13577
ionization energy=70 eV
ion type=[M]+*
computed spectral entropy=2.2339474835719693
computed normalized entropy=0.7124706121997988
SPLASH=splash10-0gba-9200000000-2922f58c754a2dba98e0
submitter=submitter = University of Tokyo Team (Faculty of Engineering, University of Tokyo)
MoNA Rating=3.75

>  <NUM PEAKS>  (4972) 
23

>  <MASS SPECTRAL PEAKS>  (4972) 
42 35.01
43 9.6
44 2.48
45 66.84
46 1.38
53 6.01
54 3.81
55 16.14
56 1.09
57 1.56
58 2.95
59 9.49
67 5.43
68 1.33
69 99.99
70 6.07
71 5.78
81 1.73
85 29.91
86 1.44
101 93.28
102 5.84
119 1.44

>  <PREDICTED SPECTRUM>  (4972) 
31 66
33 19
38 7
39 243
40 59
41 489
42 333
43 389
45 657
50 6
51 84
53 179
54 85
55 382
56 53
57 281
58 221
59 280
67 146
68 113
69 924
70 209
71 331
72 113
73 166
77 18
81 106
83 203
85 643
86 57
100 32
101 999
102 300
103 110
110 33

$$$$

     RDKit          2D

 11 10  0  0  0  0  0  0  0  0999 V2000
   -7.4695    3.9375    0.0000 C   0  0  0  0  0  0  0  0  0  0  0  0
    1.6238    3.1875    0.0000 C   0  0  0  0  0  0  0  0  0  0  0  0
   -0.9743    6.1875    0.0000 C   0  0  0  0  0  0  0  0  0  0  0  0
   -6.1704    3.1875    0.0000 C   0  0  0  0  0  0  0  0  0  0  0  0
    0.3248    3.9375    0.0000 C   0  0  0  0  0  0  0  0  0  0  0  0
   -4.8714    3.9375    0.0000 C   0  0  0  0  0  0  0  0  0  0  0  0
   -0.9743    3.1875    0.0000 C   0  0  0  0  0  0  0  0  0  0  0  0
   -3.5724    3.1875    0.0000 C   0  0  0  0  0  0  0  0  0  0  0  0
   -2.2733    3.9375    0.0000 C   0  0  0  0  0  0  0  0  0  0  0  0
   -3.5724    1.6875    0.0000 Br  0  0  0  0  0  0  0  0  0  0  0  0
   -2.2733    5.4375    0.0000 O   0  0  0  0  0  0  0  0  0  0  0  0
  4  1  1  0
  5  2  2  0
  6  4  1  0
  7  5  1  0
  8  6  1  0
  9  7  1  0
  9  8  1  0
 10  8  1  0
 11  3  1  0
 11  9  1  0
M  END
>  <NAME>  (4973) 
5-BROMO-4-METHOXYOCT-1-ENE

>  <SYNONYMS>  (4973) 


>  <SPECTRUM TYPE>  (4973) 
MS1

>  <INSTRUMENT TYPE>  (4973) 
EI-B

>  <INSTRUMENT>  (4973) 
JEOL JMS-D-3000

>  <ION MODE>  (4973) 
P

>  <INCHIKEY>  (4973) 
PFJHYEBEIPVXNR-UHFFFAOYSA-N

>  <FORMULA>  (4973) 
C9H17BrO

>  <EXACT MASS>  (4973) 
220.046277264

>  <MW>  (4973) 
220

>  <ID>  (4973) 
JP002309

>  <CONTRIBUTOR>  (4973) 
University of Tokyo Team, {Faculty of Engineering, University of Tokyo

>  <COMMENT>  (4973) 
SMILES=C=CCC(OC)C(Br)CCC
InChI=InChI=1S/C9H17BrO/c1-4-6-8(10)9(11-3)7-5-2/h5,8-9H,2,4,6-7H2,1,3H3
computed SMILES=BrC(CCC)C(OC)CC=C
accession=JP002309
date=2016.01.19 (Created 2008.10.21, modified 2011.05.06)
author=MASS SPECTROSCOPY SOC. OF JAPAN (MSSJ)
license=CC BY-NC-SA
exact mass=220.04628
ionization energy=70 eV
ion type=[M]+*
computed spectral entropy=2.5137873755284152
computed normalized entropy=0.7809519572353631
SPLASH=splash10-0a4i-4390000000-6331ee34323ed2515205
submitter=submitter = University of Tokyo Team (Faculty of Engineering, University of Tokyo)
MoNA Rating=3.75

>  <NUM PEAKS>  (4973) 
25

>  <MASS SPECTRAL PEAKS>  (4973) 
41 14.12
55 7.22
57 27.28
67 6.52
77 3.08
81 9.1
91 5.14
95 5.4
105 6.32
115 3.24
119 3.82
121 3.4
128 2.84
129 3.16
131 2.78
145 11.84
161 5.74
163 2.74
177 5.96
189 4.18
203 2.78
205 99.99
206 15.26
220 26.76
221 4.92

>  <PREDICTED SPECTRUM>  (4973) 
15 7
27 131
29 72
31 28
38 17
39 454
40 115
41 786
42 236
43 617
44 50
45 245
50 65
51 106
53 320
54 159
55 776
66 40
67 441
69 386
70 209
71 460
72 169
73 13
75 73
76 14
77 26
79 157
80 91
81 450
82 143
83 127
93 14
94 35
95 289
96 83
97 188
98 4
99 80
107 204
108 157
109 297
110 76
111 60
119 48
120 39
121 35
122 65
123 253
125 67
141 165
142 3
147 104
149 206
150 62
151 342
153 36
177 464
178 25
179 999
180 289
181 365
191 202
193 5

$$$$

     RDKit          2D

 10 10  0  0  0  0  0  0  0  0999 V2000
   -2.5989   -1.5002    0.0000 C   0  0  0  0  0  0  0  0  0  0  0  0
    3.8981    0.7504    0.0000 C   0  0  0  0  0  0  0  0  0  0  0  0
   -1.3000    0.7500    0.0000 C   0  0  0  0  0  0  0  0  0  0  0  0
   -0.0000   -1.5000    0.0000 C   0  0  0  0  0  0  0  0  0  0  0  0
    0.0000    1.5000    0.0000 C   0  0  0  0  0  0  0  0  0  0  0  0
    1.3000   -0.7500    0.0000 C   0  0  0  0  0  0  0  0  0  0  0  0
   -1.3000   -0.7500    0.0000 C   0  0  0  0  0  0  0  0  0  0  0  0
    2.5989    1.5002    0.0000 C   0  0  0  0  0  0  0  0  0  0  0  0
    1.3000    0.7500    0.0000 C   0  0  0  0  0  0  0  0  0  0  0  0
    2.5987    3.0002    0.0000 O   0  0  0  0  0  0  0  0  0  0  0  0
  5  3  1  0
  6  4  1  0
  7  1  1  0
  7  3  2  0
  7  4  1  0
  8  2  1  0
  9  5  1  0
  9  6  1  0
  9  8  1  0
 10  8  2  0
M  END
>  <NAME>  (4974) 
METHYL 4-METHYL-3-CYCLOHEXENYL KETONE

>  <SYNONYMS>  (4974) 
4-ACETYL-1-METHYLCYCLOHEXENE

>  <SPECTRUM TYPE>  (4974) 
MS1

>  <INSTRUMENT TYPE>  (4974) 
EI-B

>  <INSTRUMENT>  (4974) 
JEOL JMS-D-3000

>  <ION MODE>  (4974) 
P

>  <INCHIKEY>  (4974) 
HOBBEYSRFFJETF-UHFFFAOYSA-N

>  <FORMULA>  (4974) 
C9H14O

>  <EXACT MASS>  (4974) 
138.104465068

>  <MW>  (4974) 
138

>  <ID>  (4974) 
JP002308

>  <CONTRIBUTOR>  (4974) 
University of Tokyo Team, {Faculty of Engineering, University of Tokyo

>  <COMMENT>  (4974) 
SMILES=CC(C1)=CCC(C1)C(C)=O
InChI=InChI=1S/C9H14O/c1-7-3-5-9(6-4-7)8(2)10/h3,9H,4-6H2,1-2H3
computed SMILES=O=C(C)C1CC=C(C)CC1
accession=JP002308
date=2016.01.19 (Created 2008.10.21, modified 2011.05.06)
author=MASS SPECTROSCOPY SOC. OF JAPAN (MSSJ)
license=CC BY-NC-SA
exact mass=138.10447
ionization energy=70 eV
ion type=[M]+*
computed spectral entropy=2.798486464254192
computed normalized entropy=0.8490973849828027
SPLASH=splash10-000g-9200000000-c7a992e3f2edf78ecf36
submitter=submitter = University of Tokyo Team (Faculty of Engineering, University of Tokyo)
MoNA Rating=3.75

>  <NUM PEAKS>  (4974) 
27

>  <MASS SPECTRAL PEAKS>  (4974) 
41 21.41
43 92.15
45 5.76
51 5.08
53 13.83
55 29.09
65 5.56
67 43.87
68 13.99
71 4.21
77 14.87
78 3.04
79 24.69
80 16.08
81 11.62
91 9.25
92 3.06
93 20.07
94 16.4
95 99.99
96 8.48
105 13.39
109 4.99
123 44.35
124 4.01
138 75.66
139 7.99

>  <PREDICTED SPECTRUM>  (4974) 
26 24
27 157
28 35
29 68
37 19
38 55
39 288
40 133
41 435
42 157
43 999
44 148
45 70
47 7
49 9
50 158
51 295
52 202
53 425
54 140
55 298
56 69
57 84
58 39
59 36
61 0
62 25
63 71
64 31
65 243
66 185
67 460
68 344
69 264
70 91
71 324
72 84
76 31
77 351
78 146
79 323
80 457
81 309
82 112
83 118
84 106
85 44
89 12
91 420
92 181
93 301
94 215
95 892
96 361
97 127
98 24
103 79
104 7
105 223
106 16
107 44
108 57
109 110
110 88
111 42
119 63
120 194
121 94
122 2
123 331
124 71
136 11
137 1
138 433
139 115

$$$$

     RDKit          2D

 12 12  0  0  0  0  0  0  0  0999 V2000
   -0.7506    0.5496    0.0000 C   0  0  0  0  0  0  0  0  0  0  0  0
   -1.3000   -1.4994    0.0000 C   0  0  0  0  0  0  0  0  0  0  0  0
    0.7490   -2.0487    0.0000 C   0  0  0  0  0  0  0  0  0  0  0  0
    5.1972   -2.2500    0.0000 C   0  0  0  0  0  0  0  0  0  0  0  0
    3.8972   -3.0000    0.0000 C   0  0  0  0  0  0  0  0  0  0  0  0
    5.1972   -0.7500    0.0000 C   0  0  0  0  0  0  0  0  0  0  0  0
    2.5972   -2.2500    0.0000 C   0  0  0  0  0  0  0  0  0  0  0  0
    3.8972   -0.0000    0.0000 C   0  0  0  0  0  0  0  0  0  0  0  0
    2.5972   -0.7500    0.0000 C   0  0  0  0  0  0  0  0  0  0  0  0
    3.8972    1.5000    0.0000 Cl  0  0  0  0  0  0  0  0  0  0  0  0
    1.2983    0.0002    0.0000 O   0  0  0  0  0  0  0  0  0  0  0  0
   -0.0008   -0.7496    0.0000 Si  0  0  0  0  0  4  0  0  0  0  0  0
  5  4  2  0
  6  4  1  0
  7  5  1  0
  8  6  2  0
  9  7  2  0
  9  8  1  0
 10  8  1  0
 11  9  1  0
 12  1  1  0
 12  2  1  0
 12  3  1  0
 12 11  1  0
M  END
>  <NAME>  (4975) 
1-CHLORO-2-TRIMETHYLSILOXYBENZENE

>  <SYNONYMS>  (4975) 


>  <SPECTRUM TYPE>  (4975) 
MS1

>  <INSTRUMENT TYPE>  (4975) 
EI-B

>  <INSTRUMENT>  (4975) 
JEOL JMS-D-3000

>  <ION MODE>  (4975) 
P

>  <INCHIKEY>  (4975) 
NZLHRQHCIXYIMM-UHFFFAOYSA-N

>  <FORMULA>  (4975) 
C9H13ClOSi

>  <EXACT MASS>  (4975) 
200.04241924599998

>  <MW>  (4975) 
200

>  <ID>  (4975) 
JP002307

>  <CONTRIBUTOR>  (4975) 
University of Tokyo Team, {Faculty of Engineering, University of Tokyo

>  <COMMENT>  (4975) 
SMILES=Clc(c1)c(ccc1)O[Si](C)(C)C
InChI=InChI=1S/C9H13ClOSi/c1-12(2,3)11-9-7-5-4-6-8(9)10/h4-7H,1-3H3
computed SMILES=ClC=1C=CC=CC1O[Si](C)(C)C
accession=JP002307
date=2016.01.19 (Created 2008.10.21, modified 2011.05.06)
author=MASS SPECTROSCOPY SOC. OF JAPAN (MSSJ)
license=CC BY-NC-SA
exact mass=200.04242
ionization energy=70 eV
ion type=[M]+*
computed spectral entropy=2.358991742744641
computed normalized entropy=0.8326205817481263
SPLASH=splash10-000j-5920000000-6aa19ac60e234c9a7be8
submitter=submitter = University of Tokyo Team (Faculty of Engineering, University of Tokyo)
MoNA Rating=3.75

>  <NUM PEAKS>  (4975) 
17

>  <MASS SPECTRAL PEAKS>  (4975) 
63 5.82
65 6.2
73 9.75
79 4.55
91 13.31
93 60.64
94 5.09
95 22.02
149 55.41
150 8.47
185 99.99
186 15.09
187 37.44
188 5.12
200 38.06
201 4.75
202 13.75

>  <PREDICTED SPECTRUM>  (4975) 
15 8
26 4
27 0
29 83
31 36
33 9
36 13
37 48
38 104
39 182
40 54
42 50
43 206
44 143
45 360
46 85
47 112
49 40
50 133
51 190
52 121
53 161
54 79
55 91
56 2
57 114
58 92
59 158
60 65
61 88
62 105
63 363
64 184
65 404
66 146
67 216
68 96
69 35
70 37
71 29
72 94
73 484
74 172
75 308
76 131
77 235
78 137
79 227
80 89
81 135
82 64
83 95
84 31
85 76
86 34
88 50
89 172
90 66
91 343
92 295
93 971
94 335
95 683
96 198
97 180
98 33
99 136
100 15
102 67
103 118
105 121
106 24
107 174
108 57
109 3
110 87
111 31
112 21
113 131
114 50
115 143
116 74
117 102
118 12
119 113
121 203
122 22
123 145
124 3
125 52
127 114
128 27
129 72
130 38
131 93
132 20
133 72
134 88
135 125
136 89
139 17
141 51
143 27
145 63
147 147
148 77
149 670
150 266
151 162
155 45
156 22
157 114
159 60
161 9
164 21
167 24
169 122
171 5
173 17
183 42
184 40
185 999
186 396
187 587
188 215
189 100
200 421
201 150
202 230
203 89
204 41

$$$$

     RDKit          2D

 10 10  0  0  0  0  0  0  0  0999 V2000
   -2.5989   -1.5002    0.0000 C   0  0  0  0  0  0  0  0  0  0  0  0
    3.8981    0.7504    0.0000 C   0  0  0  0  0  0  0  0  0  0  0  0
   -1.3000    0.7500    0.0000 C   0  0  0  0  0  0  0  0  0  0  0  0
   -0.0000   -1.5000    0.0000 C   0  0  0  0  0  0  0  0  0  0  0  0
    0.0000    1.5000    0.0000 C   0  0  0  0  0  0  0  0  0  0  0  0
    1.3000   -0.7500    0.0000 C   0  0  0  0  0  0  0  0  0  0  0  0
   -1.3000   -0.7500    0.0000 C   0  0  0  0  0  0  0  0  0  0  0  0
    2.5989    1.5002    0.0000 C   0  0  0  0  0  0  0  0  0  0  0  0
    1.3000    0.7500    0.0000 C   0  0  0  0  0  0  0  0  0  0  0  0
    2.5987    3.0002    0.0000 O   0  0  0  0  0  0  0  0  0  0  0  0
  5  3  1  0
  6  4  1  0
  7  1  2  0
  7  3  1  0
  7  4  1  0
  8  2  1  0
  9  5  1  0
  9  6  1  0
  9  8  1  0
 10  8  2  0
M  END
>  <NAME>  (4976) 
METHYL 4-METHYLENECYCLOHEXYL KETONE

>  <SYNONYMS>  (4976) 
1-ACETYL-4-METHYLENECYCLOHEXANE

>  <SPECTRUM TYPE>  (4976) 
MS1

>  <INSTRUMENT TYPE>  (4976) 
EI-B

>  <INSTRUMENT>  (4976) 
JEOL JMS-D-3000

>  <ION MODE>  (4976) 
P

>  <INCHIKEY>  (4976) 
FUVYWLRLHOAXFT-UHFFFAOYSA-N

>  <FORMULA>  (4976) 
C9H14O

>  <EXACT MASS>  (4976) 
138.104465068

>  <MW>  (4976) 
138

>  <ID>  (4976) 
JP002306

>  <CONTRIBUTOR>  (4976) 
University of Tokyo Team, {Faculty of Engineering, University of Tokyo

>  <COMMENT>  (4976) 
SMILES=C=C(C1)CCC(C1)C(C)=O
InChI=InChI=1S/C9H14O/c1-7-3-5-9(6-4-7)8(2)10/h9H,1,3-6H2,2H3
computed SMILES=O=C(C)C1CCC(=C)CC1
accession=JP002306
date=2016.01.19 (Created 2008.10.21, modified 2011.05.06)
author=MASS SPECTROSCOPY SOC. OF JAPAN (MSSJ)
license=CC BY-NC-SA
exact mass=138.10447
ionization energy=70 eV
ion type=[M]+*
computed spectral entropy=2.4527066925736696
computed normalized entropy=0.8485782792034124
SPLASH=splash10-00dl-9100000000-30aae28114340971539a
submitter=submitter = University of Tokyo Team (Faculty of Engineering, University of Tokyo)
MoNA Rating=3.75

>  <NUM PEAKS>  (4976) 
18

>  <MASS SPECTRAL PEAKS>  (4976) 
41 17.27
43 56.89
53 9.61
55 15.23
67 21.4
68 24.48
71 99.99
72 4.9
77 5.52
79 13.08
80 7.7
93 6.83
94 9.72
95 42.59
96 3.79
123 15.19
138 38.64
139 4.09

>  <PREDICTED SPECTRUM>  (4976) 
27 97
38 13
39 256
40 84
41 435
42 93
43 853
44 94
45 16
50 69
51 195
52 126
53 371
54 116
55 381
56 55
57 3
59 9
60 13
65 175
66 127
67 452
68 202
69 155
71 208
72 35
77 382
78 137
79 535
80 391
81 210
82 99
83 31
84 11
91 322
92 92
93 245
94 172
95 999
96 291
97 7
105 141
109 38
110 168
111 14
120 173
121 82
123 233
138 417
139 87

$$$$

     RDKit          2D

 11 11  0  0  0  0  0  0  0  0999 V2000
   -4.3810    2.7764    0.0000 C   0  0  0  0  0  0  0  0  0  0  0  0
   -5.1777    0.3035    0.0000 C   0  0  0  0  0  0  0  0  0  0  0  0
    1.2100    0.3900    0.0000 C   0  0  0  0  0  0  0  0  0  0  0  0
    0.0000    1.2800    0.0000 C   0  0  0  0  0  0  0  0  0  0  0  0
    0.7500   -1.0300    0.0000 C   0  0  0  0  0  0  0  0  0  0  0  0
   -1.2100    0.3900    0.0000 C   0  0  0  0  0  0  0  0  0  0  0  0
   -0.7500   -1.0300    0.0000 C   0  0  0  0  0  0  0  0  0  0  0  0
   -2.6377    0.8500    0.0000 C   0  0  0  0  0  0  0  0  0  0  0  0
   -1.6322   -2.2431    0.0000 O   0  0  0  0  0  0  0  0  0  0  0  0
   -2.9533    2.3164    0.0000 O   0  0  0  0  0  0  0  0  0  0  0  0
   -3.7499   -0.1565    0.0000 O   0  0  0  0  0  0  0  0  0  0  0  0
  4  3  1  0
  5  3  1  0
  6  4  1  0
  7  5  1  0
  7  6  1  0
  8  6  1  0
  9  7  2  0
 10  1  1  0
 10  8  1  0
 11  2  1  0
 11  8  1  0
M  END
>  <NAME>  (4977) 
2-(DIMETHOXYMETHYL)CYCLOPENTANONE

>  <SYNONYMS>  (4977) 


>  <SPECTRUM TYPE>  (4977) 
MS1

>  <INSTRUMENT TYPE>  (4977) 
EI-B

>  <INSTRUMENT>  (4977) 
JEOL JMS-D-3000

>  <ION MODE>  (4977) 
P

>  <INCHIKEY>  (4977) 
BMUJLDCMIRTFHP-UHFFFAOYSA-N

>  <FORMULA>  (4977) 
C8H14O3

>  <EXACT MASS>  (4977) 
158.09429430799997

>  <MW>  (4977) 
158

>  <ID>  (4977) 
JP002304

>  <CONTRIBUTOR>  (4977) 
University of Tokyo Team, {Faculty of Engineering, University of Tokyo

>  <COMMENT>  (4977) 
SMILES=COC(OC)C(C1)C(=O)CC1
InChI=InChI=1S/C8H14O3/c1-10-8(11-2)6-4-3-5-7(6)9/h6,8H,3-5H2,1-2H3
computed SMILES=O=C1CCCC1C(OC)OC
accession=JP002304
date=2016.01.19 (Created 2008.10.21, modified 2011.05.06)
author=MASS SPECTROSCOPY SOC. OF JAPAN (MSSJ)
license=CC BY-NC-SA
exact mass=158.09429
ionization energy=70 eV
ion type=[M]+*
computed spectral entropy=2.420227563672396
computed normalized entropy=0.7428348225501348
SPLASH=splash10-004i-9100000000-abeab23508923cc141f7
submitter=submitter = University of Tokyo Team (Faculty of Engineering, University of Tokyo)
MoNA Rating=3.75

>  <NUM PEAKS>  (4977) 
26

>  <MASS SPECTRAL PEAKS>  (4977) 
41 15.65
42 3.1
43 1.68
45 3.25
47 9.49
53 2.11
55 6.78
59 2.7
67 20.91
68 1.76
69 4.27
70 4.94
71 10.2
75 99.99
76 3.1
83 1.8
84 10.4
85 3.06
87 2.04
95 8.39
97 5.49
98 1.76
111 2.11
126 9.41
127 11.53
158 2.04

>  <PREDICTED SPECTRUM>  (4977) 
27 33
29 84
31 100
32 19
33 45
39 99
40 19
41 237
42 41
43 156
44 34
45 267
46 0
47 266
51 3
52 14
53 114
54 41
55 254
56 34
57 83
58 128
59 8
66 20
67 220
68 112
69 197
70 53
71 298
72 30
75 999
76 177
77 41
79 25
81 70
83 174
84 143
85 80
94 68
95 236
96 76
97 153
98 17
99 39
111 108
115 8
126 234
127 314
128 32
143 24
158 35

$$$$

     RDKit          2D

  9  9  0  0  0  0  0  0  0  0999 V2000
    1.8127   -2.1596    0.0000 C   0  0  0  0  0  0  0  0  0  0  0  0
    2.7772   -0.4897    0.0000 C   0  0  0  0  0  0  0  0  0  0  0  0
   -1.3000    0.7500    0.0000 C   0  0  0  0  0  0  0  0  0  0  0  0
    0.0000    1.5000    0.0000 C   0  0  0  0  0  0  0  0  0  0  0  0
   -1.3000   -0.7500    0.0000 C   0  0  0  0  0  0  0  0  0  0  0  0
    1.3000    0.7500    0.0000 C   0  0  0  0  0  0  0  0  0  0  0  0
   -0.0000   -1.5000    0.0000 C   0  0  0  0  0  0  0  0  0  0  0  0
    1.3000   -0.7500    0.0000 C   0  0  0  0  0  0  0  0  0  0  0  0
   -0.0000   -3.0000    0.0000 O   0  0  0  0  0  0  0  0  0  0  0  0
  4  3  1  0
  5  3  1  0
  6  4  1  0
  7  5  1  0
  8  1  1  0
  8  2  1  0
  8  6  1  0
  8  7  1  0
  9  7  2  0
M  END
>  <NAME>  (4978) 
2,2-DIMETHYLCYCLOHEXANONE

>  <SYNONYMS>  (4978) 


>  <SPECTRUM TYPE>  (4978) 
MS1

>  <INSTRUMENT TYPE>  (4978) 
EI-B

>  <INSTRUMENT>  (4978) 
JEOL JMS-D-3000

>  <ION MODE>  (4978) 
P

>  <INCHIKEY>  (4978) 
KNSPBSQWRKKAPI-UHFFFAOYSA-N

>  <FORMULA>  (4978) 
C8H14O

>  <EXACT MASS>  (4978) 
126.104465068

>  <MW>  (4978) 
126

>  <ID>  (4978) 
JP002302

>  <CONTRIBUTOR>  (4978) 
University of Tokyo Team, {Faculty of Engineering, University of Tokyo

>  <COMMENT>  (4978) 
SMILES=O=C(C1)C(C)(C)CCC1
InChI=InChI=1S/C8H14O/c1-8(2)6-4-3-5-7(8)9/h3-6H2,1-2H3
computed SMILES=O=C1CCCCC1(C)C
accession=JP002302
date=2016.01.19 (Created 2008.10.21, modified 2011.05.06)
author=MASS SPECTROSCOPY SOC. OF JAPAN (MSSJ)
license=CC BY-NC-SA
exact mass=126.10447
ionization energy=70 eV
ion type=[M]+*
computed spectral entropy=2.817663811546095
computed normalized entropy=0.799028854785854
SPLASH=splash10-0apl-9000000000-fe0c8568c4c5c7bdb4a0
submitter=submitter = University of Tokyo Team (Faculty of Engineering, University of Tokyo)
MoNA Rating=3.75

>  <NUM PEAKS>  (4978) 
34

>  <MASS SPECTRAL PEAKS>  (4978) 
40 35.61
42 49.23
43 9.93
44 18.95
45 1.99
51 1.69
53 4.96
54 3.6
55 44.59
56 61.64
57 7.58
58 9.75
59 2.88
67 11.72
68 37.61
69 59.84
70 14.07
71 2.27
74 1.67
77 1.43
79 1.11
81 1.77
82 99.99
83 15.63
84 7.26
93 1.88
95 1.23
97 4.43
98 16.34
99 1.27
108 1.22
111 3.03
126 43
127 4

>  <PREDICTED SPECTRUM>  (4978) 
26 83
27 339
28 142
29 225
30 13
37 30
38 119
39 555
40 275
41 999
42 584
43 564
44 185
45 22
50 159
51 264
52 185
53 429
54 277
55 884
56 631
57 283
58 149
59 47
62 13
63 101
65 200
66 147
67 585
68 473
69 894
70 706
71 281
72 57
77 188
78 56
79 267
80 102
81 278
82 470
83 757
84 397
85 210
91 72
93 207
94 65
95 163
96 74
97 449
98 432
99 135
108 151
109 64
111 400
112 84
125 42
126 595
127 202

$$$$

     RDKit          2D

  8  7  0  0  0  0  0  0  0  0999 V2000
    1.6238    3.1875    0.0000 C   0  0  0  0  0  0  0  0  0  0  0  0
   -0.9743    1.6875    0.0000 C   0  0  0  0  0  0  0  0  0  0  0  0
   -4.8714    3.9375    0.0000 C   0  0  0  0  0  0  0  0  0  0  0  0
    0.3248    3.9375    0.0000 C   0  0  0  0  0  0  0  0  0  0  0  0
   -2.2733    3.9375    0.0000 C   0  0  0  0  0  0  0  0  0  0  0  0
   -0.9743    3.1875    0.0000 C   0  0  0  0  0  0  0  0  0  0  0  0
   -3.5724    3.1875    0.0000 C   0  0  0  0  0  0  0  0  0  0  0  0
   -3.5724    1.6875    0.0000 O   0  0  0  0  0  0  0  0  0  0  0  0
  4  1  1  0
  6  2  1  0
  6  4  1  0
  6  5  1  0
  7  3  1  0
  7  5  1  0
  8  7  2  0
M  END
>  <NAME>  (4979) 
4-METHYL-2-HEXANONE

>  <SYNONYMS>  (4979) 


>  <SPECTRUM TYPE>  (4979) 
MS1

>  <INSTRUMENT TYPE>  (4979) 
EI-B

>  <INSTRUMENT>  (4979) 
JEOL JMS-D-3000

>  <ION MODE>  (4979) 
P

>  <INCHIKEY>  (4979) 
XUPXMIAWKPTZLZ-UHFFFAOYSA-N

>  <FORMULA>  (4979) 
C7H14O

>  <EXACT MASS>  (4979) 
114.104465068

>  <MW>  (4979) 
114

>  <ID>  (4979) 
JP002301

>  <CONTRIBUTOR>  (4979) 
University of Tokyo Team, {Faculty of Engineering, University of Tokyo

>  <COMMENT>  (4979) 
SMILES=CCC(C)CC(C)=O
InChI=InChI=1S/C7H14O/c1-4-6(2)5-7(3)8/h6H,4-5H2,1-3H3
computed SMILES=O=C(C)CC(C)CC
accession=JP002301
date=2016.01.19 (Created 2008.10.21, modified 2011.05.06)
author=MASS SPECTROSCOPY SOC. OF JAPAN (MSSJ)
license=CC BY-NC-SA
exact mass=114.10447
ionization energy=70 eV
ion type=[M]+*
computed spectral entropy=2.0722767300399885
computed normalized entropy=0.6806574010962315
SPLASH=splash10-0a4l-9000000000-145f2e0d11a8d4f0c011
submitter=submitter = University of Tokyo Team (Faculty of Engineering, University of Tokyo)
MoNA Rating=3.75

>  <NUM PEAKS>  (4979) 
21

>  <MASS SPECTRAL PEAKS>  (4979) 
40 1.1
41 38.52
42 1.96
43 55.1
45 2.82
53 1.61
55 7.77
56 99.99
57 79.1
58 3.66
59 2.43
69 3.34
70 1.45
71 1.4
73 1.25
74 1.67
83 1.19
84 11
85 46.83
86 3.26
114 3.75

>  <PREDICTED SPECTRUM>  (4979) 
14 21
15 78
26 59
27 311
28 163
29 332
30 49
31 68
38 32
39 297
40 115
41 546
42 243
43 999
44 306
45 191
51 57
52 28
53 103
54 53
55 189
56 377
57 631
58 540
59 242
69 210
70 117
71 312
72 249
85 194
86 87
99 170
114 239
115 56

$$$$

     RDKit          2D

  8  7  0  0  0  0  0  0  0  0999 V2000
    3.8236    3.0736    0.0000 C   0  0  0  0  0  0  0  0  0  0  0  0
    2.3236    0.4755    0.0000 C   0  0  0  0  0  0  0  0  0  0  0  0
    4.3726    1.0245    0.0000 C   0  0  0  0  0  0  0  0  0  0  0  0
   -0.8236    2.5245    0.0000 C   0  0  0  0  0  0  0  0  0  0  0  0
    0.4755    1.7745    0.0000 C   0  0  0  0  0  0  0  0  0  0  0  0
   -2.1226    1.7745    0.0000 Cl  0  0  0  0  0  0  0  0  0  0  0  0
    1.7745    2.5245    0.0000 O   0  0  0  0  0  0  0  0  0  0  0  0
    3.0736    1.7745    0.0000 Si  0  0  0  0  0  4  0  0  0  0  0  0
  5  4  1  0
  6  4  1  0
  7  5  1  0
  8  1  1  0
  8  2  1  0
  8  3  1  0
  8  7  1  0
M  END
>  <NAME>  (4980) 
1-CHLORO-2-TRIMETHYLSILOXYETHANE

>  <SYNONYMS>  (4980) 


>  <SPECTRUM TYPE>  (4980) 
MS1

>  <INSTRUMENT TYPE>  (4980) 
EI-B

>  <INSTRUMENT>  (4980) 
JEOL JMS-D-3000

>  <ION MODE>  (4980) 
P

>  <INCHIKEY>  (4980) 
SJIIMFTWFNLSKY-UHFFFAOYSA-N

>  <FORMULA>  (4980) 
C5H13ClOSi

>  <EXACT MASS>  (4980) 
152.042419246

>  <MW>  (4980) 
152

>  <ID>  (4980) 
JP002299

>  <CONTRIBUTOR>  (4980) 
University of Tokyo Team, {Faculty of Engineering, University of Tokyo

>  <COMMENT>  (4980) 
SMILES=ClCCO[Si](C)(C)C
InChI=InChI=1S/C5H13ClOSi/c1-8(2,3)7-5-4-6/h4-5H2,1-3H3
computed SMILES=ClCCO[Si](C)(C)C
accession=JP002299
date=2016.01.19 (Created 2008.10.21, modified 2011.05.06)
author=MASS SPECTROSCOPY SOC. OF JAPAN (MSSJ)
license=CC BY-NC-SA
exact mass=152.04242
ionization energy=70 eV
ion type=[M]+*
computed spectral entropy=2.1786347363653142
computed normalized entropy=0.6948297736596887
SPLASH=splash10-0006-9300000000-d2c5d5dda347907cb96e
submitter=submitter = University of Tokyo Team (Faculty of Engineering, University of Tokyo)
MoNA Rating=3.75

>  <NUM PEAKS>  (4980) 
23

>  <MASS SPECTRAL PEAKS>  (4980) 
43 4.13
45 3.44
47 1.32
58 1.11
59 1.71
63 1.92
65 2.31
73 27.22
74 2.77
75 2.33
79 2.7
93 99.99
94 8.06
95 37.61
96 2.68
100 5.88
102 17.38
103 1.93
137 30.99
138 2.99
139 10.94
140 1.11
152 0.01

>  <PREDICTED SPECTRUM>  (4980) 
14 4
15 66
26 30
27 92
28 27
29 101
31 40
33 11
35 13
36 44
37 6
38 46
39 148
40 16
41 18
42 151
43 227
44 188
45 351
46 65
47 185
48 53
49 153
50 38
51 113
52 46
53 95
54 42
55 112
56 0
57 160
58 197
59 268
60 99
61 139
62 75
63 305
64 110
65 308
66 87
67 154
68 30
69 113
70 11
71 31
72 97
73 533
74 136
75 310
76 107
77 110
79 136
80 42
81 1
82 14
83 33
85 32
87 24
88 28
89 146
93 999
94 241
95 721
96 185
97 215
98 26
99 124
101 315
102 67
103 383
104 65
107 94
109 170
110 101
111 70
121 35
137 703
138 252
139 431
140 132
141 65
152 94
154 37

$$$$

     RDKit          2D

  5  4  0  0  0  0  0  0  0  0999 V2000
    0.0000    0.0000    0.0000 C   0  0  0  0  0  0  0  0  0  0  0  0
   -1.2990    2.2500    0.0000 C   0  0  0  0  0  0  0  0  0  0  0  0
    0.0000    1.5000    0.0000 C   0  0  0  0  0  0  0  0  0  0  0  0
   -1.2990    3.7500    0.0000 I   0  0  0  0  0  0  0  0  0  0  0  0
    1.2990    2.2500    0.0000 I   0  0  0  0  0  0  0  0  0  0  0  0
  3  1  1  0
  3  2  1  0
  4  2  1  0
  5  3  1  0
M  END
>  <NAME>  (4981) 
1,2-DIIODOPROPANE

>  <SYNONYMS>  (4981) 


>  <SPECTRUM TYPE>  (4981) 
MS1

>  <INSTRUMENT TYPE>  (4981) 
EI-B

>  <INSTRUMENT>  (4981) 
JEOL JMS-D-3000

>  <ION MODE>  (4981) 
P

>  <INCHIKEY>  (4981) 
ISXPOEJSKALLKA-UHFFFAOYSA-N

>  <FORMULA>  (4981) 
C3H6I2

>  <EXACT MASS>  (4981) 
295.855896192

>  <MW>  (4981) 
296

>  <ID>  (4981) 
JP002298

>  <CONTRIBUTOR>  (4981) 
University of Tokyo Team, {Faculty of Engineering, University of Tokyo

>  <COMMENT>  (4981) 
SMILES=CC(I)CI
InChI=InChI=1S/C3H6I2/c1-3(5)2-4/h3H,2H2,1H3
computed SMILES=ICC(I)C
accession=JP002298
date=2016.01.19 (Created 2008.10.21, modified 2011.05.06)
author=MASS SPECTROSCOPY SOC. OF JAPAN (MSSJ)
license=CC BY-NC-SA
exact mass=295.85589
ionization energy=70 eV
ion type=[M]+*
computed spectral entropy=1.6774520103971315
computed normalized entropy=0.7634413103237593
SPLASH=splash10-014l-5920000000-a44943dd70bca751d85d
submitter=submitter = University of Tokyo Team (Faculty of Engineering, University of Tokyo)
MoNA Rating=3.75

>  <NUM PEAKS>  (4981) 
9

>  <MASS SPECTRAL PEAKS>  (4981) 
41 70.87
42 19.21
127 15.96
128 20.67
141 2.49
169 99.99
170 3.85
254 29.18
296 3.01

>  <PREDICTED SPECTRUM>  (4981) 
14 50
15 90
18 6
25 37
26 127
27 334
28 108
29 182
31 68
36 33
37 96
38 172
39 305
40 145
41 440
42 233
43 202
44 76
49 47
50 32
51 248
52 84
53 249
54 86
55 191
56 33
65 52
67 82
68 6
71 14
75 63
77 41
103 29
125 6
127 392
128 112
129 111
140 13
141 232
142 41
155 113
167 8
168 73
169 999
170 224
254 241
296 318
297 33

$$$$

     RDKit          2D

 29 29  0  0  0  0  0  0  0  0999 V2000
    3.0600   -2.4087    0.0000 C   0  0  0  0  0  0  0  0  0  0  0  0
    5.1090   -1.8597    0.0000 C   0  0  0  0  0  0  0  0  0  0  0  0
    4.5600    0.1894    0.0000 C   0  0  0  0  0  0  0  0  0  0  0  0
    2.7122    3.3914    0.0000 C   0  0  0  0  0  0  0  0  0  0  0  0
    1.2119    4.8912    0.0000 C   0  0  0  0  0  0  0  0  0  0  0  0
   -0.2878    3.3909    0.0000 C   0  0  0  0  0  0  0  0  0  0  0  0
    0.6621   -2.0616    0.0000 C   0  0  0  0  0  0  0  0  0  0  0  0
    1.2108   -4.1107    0.0000 C   0  0  0  0  0  0  0  0  0  0  0  0
   -0.8383   -4.6594    0.0000 C   0  0  0  0  0  0  0  0  0  0  0  0
   -5.1504   -0.0506    0.0000 C   0  0  0  0  0  0  0  0  0  0  0  0
   -5.6997   -2.0996    0.0000 C   0  0  0  0  0  0  0  0  0  0  0  0
   -3.6508   -2.6490    0.0000 C   0  0  0  0  0  0  0  0  0  0  0  0
   -1.9003   -4.0197    0.0000 C   0  0  0  0  0  0  0  0  0  0  0  0
   -2.8642   -2.3496    0.0000 C   0  0  0  0  0  0  0  0  0  0  0  0
   -1.7213    0.7888    0.0000 C   0  0  0  0  0  0  0  0  0  0  0  0
   -3.6497    0.7891    0.0000 C   0  0  0  0  0  0  0  0  0  0  0  0
    2.5114    1.1412    0.0000 C   0  0  0  0  0  0  0  0  0  0  0  0
    1.2114   -1.1105    0.0000 C   0  0  0  0  0  0  0  0  0  0  0  0
   -0.0871    1.1403    0.0000 C   0  0  0  0  0  0  0  0  0  0  0  0
    2.5110   -0.3597    0.0000 C   0  0  0  0  0  0  0  0  0  0  0  0
    1.2124    1.8912    0.0000 C   0  0  0  0  0  0  0  0  0  0  0  0
   -0.0876   -0.3605    0.0000 C   0  0  0  0  0  0  0  0  0  0  0  0
    3.8100   -1.1097    0.0000 C   0  0  0  0  0  0  0  0  0  0  0  0
    1.2122    3.3912    0.0000 C   0  0  0  0  0  0  0  0  0  0  0  0
   -0.0881   -3.3605    0.0000 C   0  0  0  0  0  0  0  0  0  0  0  0
   -4.4006   -1.3498    0.0000 C   0  0  0  0  0  0  0  0  0  0  0  0
   -1.3868   -1.1103    0.0000 N   0  0  0  0  0  0  0  0  0  0  0  0
   -1.3870   -2.6103    0.0000 Si  0  0  0  0  0  4  0  0  0  0  0  0
   -2.6857   -0.3601    0.0000 Si  0  0  0  0  0  4  0  0  0  0  0  0
 20 17  2  0
 20 18  1  0
 21 17  1  0
 21 19  2  0
 22 18  2  0
 22 19  1  0
 23  1  1  0
 23  2  1  0
 23  3  1  0
 23 20  1  0
 24  4  1  0
 24  5  1  0
 24  6  1  0
 24 21  1  0
 25  7  1  0
 25  8  1  0
 25  9  1  0
 26 10  1  0
 26 11  1  0
 26 12  1  0
 27 22  1  0
 28 13  1  0
 28 14  1  0
 28 25  1  0
 28 27  1  0
 29 15  1  0
 29 16  1  0
 29 26  1  0
 29 27  1  0
M  END
>  <NAME>  (4982) 
3,5-DI-TERT-BUTYL-N,N-BIS(TERT-BUTYLDIMETHYLSILYL)ANILINE

>  <SYNONYMS>  (4982) 


>  <SPECTRUM TYPE>  (4982) 
MS1

>  <INSTRUMENT TYPE>  (4982) 
EI-B

>  <INSTRUMENT>  (4982) 
JEOL JMS-D-3000

>  <ION MODE>  (4982) 
P

>  <INCHIKEY>  (4982) 
VITNSGDBOAYRHK-UHFFFAOYSA-N

>  <FORMULA>  (4982) 
C26H51NSi2

>  <EXACT MASS>  (4982) 
433.356003692

>  <MW>  (4982) 
433

>  <ID>  (4982) 
JP002296

>  <CONTRIBUTOR>  (4982) 
University of Tokyo Team, {Faculty of Engineering, University of Tokyo

>  <COMMENT>  (4982) 
SMILES=C[Si](C)(N([Si](C)(C)C(C)(C)C)c(c1)cc(C(C)(C)C)cc(C(C)(C)C)1)C(C)(C)C
InChI=InChI=1S/C26H51NSi2/c1-23(2,3)20-17-21(24(4,5)6)19-22(18-20)27(28(13,14)25(7,8)9)29(15,16)26(10,11)12/h17-19H,1-16H3
computed SMILES=C=1C(=CC(=CC1C(C)(C)C)C(C)(C)C)N([Si](C)(C)C(C)(C)C)[Si](C)(C)C(C)(C)C
accession=JP002296
date=2016.01.19 (Created 2008.10.21, modified 2011.05.06)
author=MASS SPECTROSCOPY SOC. OF JAPAN (MSSJ)
license=CC BY-NC-SA
exact mass=433.356
ionization energy=70 eV
ion type=[M]+*
computed spectral entropy=2.8907960591742796
computed normalized entropy=0.7281066788330826
SPLASH=splash10-0059-3019000000-03baa580275b0601352b
submitter=submitter = University of Tokyo Team (Faculty of Engineering, University of Tokyo)
MoNA Rating=3.75

>  <NUM PEAKS>  (4982) 
53

>  <MASS SPECTRAL PEAKS>  (4982) 
45 1.08
55 1.1
56 2.93
57 61.38
58 2.82
59 3.64
73 26.11
74 2.7
75 1.71
99 1.32
100 1.04
130 2.28
134 1.18
150 1.01
160 1.9
190 2.52
205 1.23
206 2.75
222 8.19
223 2.03
232 1.54
246 2.02
247 1.23
248 1.92
262 6.88
263 2.14
264 7.05
265 1.74
277 1.02
278 12.34
279 3.54
280 1.33
288 2.4
302 1.88
304 10.15
305 3.28
306 1.41
318 5.34
319 3.38
320 8.52
321 2.68
322 1
334 99.99
335 32.05
336 11.96
337 2.46
360 1.3
376 81.51
377 28.52
378 10.48
379 2.35
418 2.76
419 1

>  <PREDICTED SPECTRUM>  (4982) 
29 26
39 28
41 83
42 18
43 77
44 12
45 29
47 3
55 35
56 77
57 302
58 77
59 53
60 24
68 22
69 6
70 9
72 11
73 461
74 138
75 116
80 3
83 37
84 9
85 39
86 17
87 6
92 25
99 117
100 47
104 22
105 12
107 2
109 5
113 22
114 15
116 11
120 8
121 33
122 42
123 43
128 4
130 8
131 19
132 7
133 7
134 61
135 43
136 64
137 7
138 10
139 10
141 1
142 44
144 30
147 67
148 76
150 54
151 15
152 40
153 14
154 40
157 23
158 45
164 23
166 10
178 9
180 4
185 13
186 8
204 13
205 9
206 24
207 38
208 8
209 13
210 50
220 33
221 21
222 69
223 47
224 2
228 14
232 20
234 76
235 37
236 38
239 1
244 25
246 76
247 11
248 95
249 83
250 85
251 8
260 138
261 61
262 121
263 119
264 156
265 74
266 29
276 61
277 101
278 168
279 91
288 42
290 33
291 15
292 4
293 11
302 27
303 27
304 193
305 90
306 68
318 124
319 105
320 250
321 155
322 89
334 999
335 484
336 277
337 95
360 100
362 2
376 660
377 361
378 214
379 87
418 117
419 66
420 7
433 118
434 64
435 30

$$$$

     RDKit          2D

 17 17  0  0  0  0  0  0  0  0999 V2000
    1.8487   -2.7991    0.0000 C   0  0  0  0  0  0  0  0  0  0  0  0
    3.8978   -2.2504    0.0000 C   0  0  0  0  0  0  0  0  0  0  0  0
    3.3491   -0.2013    0.0000 C   0  0  0  0  0  0  0  0  0  0  0  0
   -3.3491   -0.2013    0.0000 C   0  0  0  0  0  0  0  0  0  0  0  0
   -3.8978   -2.2504    0.0000 C   0  0  0  0  0  0  0  0  0  0  0  0
   -1.8487   -2.7991    0.0000 C   0  0  0  0  0  0  0  0  0  0  0  0
    1.3000    0.7500    0.0000 C   0  0  0  0  0  0  0  0  0  0  0  0
   -1.3000    0.7500    0.0000 C   0  0  0  0  0  0  0  0  0  0  0  0
    0.0000   -1.5000    0.0000 C   0  0  0  0  0  0  0  0  0  0  0  0
    0.0000    1.5000    0.0000 C   0  0  0  0  0  0  0  0  0  0  0  0
    1.3000   -0.7500    0.0000 C   0  0  0  0  0  0  0  0  0  0  0  0
   -1.3000   -0.7500    0.0000 C   0  0  0  0  0  0  0  0  0  0  0  0
    0.0000    3.0000    0.0000 C   0  0  0  0  0  0  0  0  0  0  0  0
    2.5989   -1.5002    0.0000 C   0  0  0  0  0  0  0  0  0  0  0  0
   -2.5989   -1.5002    0.0000 C   0  0  0  0  0  0  0  0  0  0  0  0
    1.2990    3.7500    0.0000 O   0  0  0  0  0  0  0  0  0  0  0  0
   -1.2990    3.7500    0.0000 O   0  0  0  0  0  0  0  0  0  0  0  0
 10  7  2  0
 10  8  1  0
 11  7  1  0
 11  9  2  0
 12  8  2  0
 12  9  1  0
 13 10  1  0
 14  1  1  0
 14  2  1  0
 14  3  1  0
 14 11  1  0
 15  4  1  0
 15  5  1  0
 15  6  1  0
 15 12  1  0
 16 13  2  0
 17 13  1  0
M  END
>  <NAME>  (4983) 
3,5-DI-TERT-BUTYLBENZOICACID

>  <SYNONYMS>  (4983) 


>  <SPECTRUM TYPE>  (4983) 
MS1

>  <INSTRUMENT TYPE>  (4983) 
EI-B

>  <INSTRUMENT>  (4983) 
JEOL JMS-D-3000

>  <ION MODE>  (4983) 
P

>  <INCHIKEY>  (4983) 
NCTSLPBQVXUAHR-UHFFFAOYSA-N

>  <FORMULA>  (4983) 
C15H22O2

>  <EXACT MASS>  (4983) 
234.161979944

>  <MW>  (4983) 
234

>  <ID>  (4983) 
JP002295

>  <CONTRIBUTOR>  (4983) 
University of Tokyo Team, {Faculty of Engineering, University of Tokyo

>  <COMMENT>  (4983) 
SMILES=OC(=O)c(c1)cc(cc1C(C)(C)C)C(C)(C)C
InChI=InChI=1S/C15H22O2/c1-14(2,3)11-7-10(13(16)17)8-12(9-11)15(4,5)6/h7-9H,1-6H3,(H,16,17)
computed SMILES=O=C(O)C=1C=C(C=C(C1)C(C)(C)C)C(C)(C)C
accession=JP002295
date=2016.01.19 (Created 2008.10.21, modified 2011.05.06)
author=MASS SPECTROSCOPY SOC. OF JAPAN (MSSJ)
license=CC BY-NC-SA
exact mass=234.16198
ionization energy=70 eV
ion type=[M]+*
computed spectral entropy=2.682372234948225
computed normalized entropy=0.708836631997963
SPLASH=splash10-014i-7290000000-65b93c0a785c5a5fe6d8
submitter=submitter = University of Tokyo Team (Faculty of Engineering, University of Tokyo)
MoNA Rating=3.75

>  <NUM PEAKS>  (4983) 
44

>  <MASS SPECTRAL PEAKS>  (4983) 
40 10.25
43 2.78
44 25.02
45 1.15
51 1.91
53 1.12
55 3.01
56 2.02
57 35.36
58 2.43
64 1.37
65 1.38
69 3.4
73 1.17
77 2.14
78 2.79
79 2.7
87 2.01
88 3.92
91 5.34
102 3.96
103 1.03
105 1.85
115 2.61
116 1.03
117 1.9
119 2.02
128 1.8
129 1.4
131 2.01
135 1.32
145 1.37
163 2.38
175 1.11
189 2.19
191 7.2
192 1.15
203 1.21
217 1.3
219 99.99
220 16.88
221 5
234 12.88
235 2.39

>  <PREDICTED SPECTRUM>  (4983) 
15 20
18 8
27 27
28 6
29 90
36 11
37 3
38 26
39 180
40 87
41 323
42 42
43 191
44 76
45 53
50 93
51 170
52 98
53 149
54 35
55 120
56 12
57 350
58 91
59 61
62 38
63 112
64 70
65 171
66 89
67 92
68 24
69 61
70 6
71 62
72 33
73 79
74 79
75 117
76 67
77 223
78 134
79 156
80 59
81 67
82 2
83 22
84 24
85 14
86 13
87 29
88 40
89 103
90 45
91 256
92 77
93 73
94 42
95 32
96 17
97 62
101 58
102 70
103 133
104 83
105 150
106 59
107 98
108 22
109 38
111 2
113 16
114 3
115 270
116 151
117 174
118 79
119 91
120 24
121 70
122 1
123 55
125 29
126 13
127 50
128 105
129 148
130 96
131 139
132 51
133 125
134 32
135 75
136 6
141 53
142 57
143 93
144 140
145 126
146 47
147 99
148 12
152 20
153 62
155 33
156 25
157 45
158 53
159 140
160 83
161 123
162 37
163 81
165 14
169 30
171 6
173 187
174 38
175 84
176 26
177 27
178 3
179 37
185 0
187 39
188 35
189 120
190 13
191 222
192 118
193 50
201 151
202 81
203 133
204 56
216 17
217 107
219 999
220 377
221 152
222 4
233 10
234 408
235 160
236 41

$$$$

     RDKit          2D

 10  9  0  0  0  0  0  0  0  0999 V2000
    1.9486    2.6250    0.0000 C   0  0  0  0  0  0  0  0  0  0  0  0
   -4.5466    3.3750    0.0000 C   0  0  0  0  0  0  0  0  0  0  0  0
   -1.6137    1.4759    0.0000 C   0  0  0  0  0  0  0  0  0  0  0  0
    0.3147    1.4759    0.0000 C   0  0  0  0  0  0  0  0  0  0  0  0
   -0.9844    4.5241    0.0000 C   0  0  0  0  0  0  0  0  0  0  0  0
   -2.9127    4.5241    0.0000 C   0  0  0  0  0  0  0  0  0  0  0  0
    0.6495    3.3750    0.0000 C   0  0  0  0  0  0  0  0  0  0  0  0
   -3.2476    2.6250    0.0000 C   0  0  0  0  0  0  0  0  0  0  0  0
   -0.6495    2.6250    0.0000 Si  0  0  0  0  0  4  0  0  0  0  0  0
   -1.9486    3.3750    0.0000 Si  0  0  0  0  0  4  0  0  0  0  0  0
  7  1  1  0
  8  2  1  0
  9  3  1  0
  9  4  1  0
  9  7  1  0
 10  5  1  0
 10  6  1  0
 10  8  1  0
 10  9  1  0
M  END
>  <NAME>  (4984) 
1,2-DIETHYL-1,1,2,2-TETRAMETHYLDISILANE

>  <SYNONYMS>  (4984) 


>  <SPECTRUM TYPE>  (4984) 
MS1

>  <INSTRUMENT TYPE>  (4984) 
EI-B

>  <INSTRUMENT>  (4984) 
JEOL JMS-D-3000

>  <ION MODE>  (4984) 
P

>  <INCHIKEY>  (4984) 
VPHDNCJLFNXQQN-UHFFFAOYSA-N

>  <FORMULA>  (4984) 
C8H22Si2

>  <EXACT MASS>  (4984) 
174.126003764

>  <MW>  (4984) 
174

>  <ID>  (4984) 
JP002290

>  <CONTRIBUTOR>  (4984) 
University of Tokyo Team, {Faculty of Engineering, University of Tokyo

>  <COMMENT>  (4984) 
SMILES=CC[Si](C)(C)[Si](C)(C)CC
InChI=InChI=1S/C8H22Si2/c1-7-9(3,4)10(5,6)8-2/h7-8H2,1-6H3
computed SMILES=CC[Si](C)(C)[Si](C)(C)CC
accession=JP002290
date=2016.01.19 (Created 2008.10.21, modified 2011.05.06)
author=MASS SPECTROSCOPY SOC. OF JAPAN (MSSJ)
license=CC BY-NC-SA
exact mass=174.126
ionization energy=70 eV
ion type=[M]+*
computed spectral entropy=2.7969626668143865
computed normalized entropy=0.7483172544551895
SPLASH=splash10-052r-9400000000-0f7f5291bd358f7eb8b8
submitter=submitter = University of Tokyo Team (Faculty of Engineering, University of Tokyo)
MoNA Rating=3.75

>  <NUM PEAKS>  (4984) 
42

>  <MASS SPECTRAL PEAKS>  (4984) 
43 10.13
44 2.46
45 9.38
55 1.32
57 1.98
58 8.39
59 96.3
60 7.84
61 3.91
69 1.25
71 3.9
72 2.34
73 32.72
74 2.87
75 1.67
85 8.39
86 12.11
87 99.99
88 10.29
89 4.18
99 1.69
101 3.47
102 1.56
103 14.63
104 2.05
105 1.07
115 1.98
116 1.05
117 41.79
118 6.63
119 3.31
129 1.19
131 8.57
132 1.33
145 15.92
146 2.87
147 1.33
159 6.11
160 1.18
174 21.63
175 4.23
176 1.89

>  <PREDICTED SPECTRUM>  (4984) 
28 5
29 122
31 70
42 31
43 157
44 166
45 299
46 46
47 139
51 9
53 26
56 56
57 154
58 204
59 605
60 236
61 163
62 81
63 33
64 7
65 7
66 3
70 60
71 113
72 131
73 692
74 240
75 192
76 61
77 21
78 31
83 28
85 192
86 132
87 362
88 127
89 303
90 73
91 138
99 62
100 109
101 250
102 151
103 143
104 29
114 78
115 204
116 69
117 866
118 352
119 282
120 3
129 30
130 28
131 13
132 8
145 999
146 403
147 194
159 252
160 97
161 52
173 159
174 193
175 96
176 7

$$$$

     RDKit          2D

 16 15  0  0  0  0  0  0  0  0999 V2000
    6.9240    2.8995    0.0000 C   0  0  0  0  0  0  0  0  0  0  0  0
    4.3260    1.3995    0.0000 C   0  0  0  0  0  0  0  0  0  0  0  0
    6.3750    0.8505    0.0000 C   0  0  0  0  0  0  0  0  0  0  0  0
    0.9240    5.4976    0.0000 C   0  0  0  0  0  0  0  0  0  0  0  0
   -1.1250    6.0466    0.0000 C   0  0  0  0  0  0  0  0  0  0  0  0
   -1.6740    3.9976    0.0000 C   0  0  0  0  0  0  0  0  0  0  0  0
    6.2845    3.9616    0.0000 C   0  0  0  0  0  0  0  0  0  0  0  0
    4.6145    4.9258    0.0000 C   0  0  0  0  0  0  0  0  0  0  0  0
   -1.0345    2.9355    0.0000 C   0  0  0  0  0  0  0  0  0  0  0  0
    0.6355    1.9713    0.0000 C   0  0  0  0  0  0  0  0  0  0  0  0
    3.3750    3.4486    0.0000 C   0  0  0  0  0  0  0  0  0  0  0  0
    1.8750    3.4486    0.0000 C   0  0  0  0  0  0  0  0  0  0  0  0
    5.6250    2.1495    0.0000 C   0  0  0  0  0  0  0  0  0  0  0  0
   -0.3750    4.7476    0.0000 C   0  0  0  0  0  0  0  0  0  0  0  0
    4.8750    3.4486    0.0000 Si  0  0  0  0  0  4  0  0  0  0  0  0
    0.3750    3.4486    0.0000 Si  0  0  0  0  0  4  0  0  0  0  0  0
 12 11  3  0
 13  1  1  0
 13  2  1  0
 13  3  1  0
 14  4  1  0
 14  5  1  0
 14  6  1  0
 15  7  1  0
 15  8  1  0
 15 11  1  0
 15 13  1  0
 16  9  1  0
 16 10  1  0
 16 12  1  0
 16 14  1  0
M  END
>  <NAME>  (4985) 
BIS(TERT-BUTYLDIMETHYLSILYL)ACETYLENE

>  <SYNONYMS>  (4985) 


>  <SPECTRUM TYPE>  (4985) 
MS1

>  <INSTRUMENT TYPE>  (4985) 
EI-B

>  <INSTRUMENT>  (4985) 
JEOL JMS-D-3000

>  <ION MODE>  (4985) 
P

>  <INCHIKEY>  (4985) 
YRUARCSGWDQBNC-UHFFFAOYSA-N

>  <FORMULA>  (4985) 
C14H30Si2

>  <EXACT MASS>  (4985) 
254.18860402

>  <MW>  (4985) 
254

>  <ID>  (4985) 
JP002289

>  <CONTRIBUTOR>  (4985) 
University of Tokyo Team, {Faculty of Engineering, University of Tokyo

>  <COMMENT>  (4985) 
SMILES=CC(C)(C)[Si](C)(C)C#C[Si](C)(C)C(C)(C)C
InChI=InChI=1S/C14H30Si2/c1-13(2,3)15(7,8)11-12-16(9,10)14(4,5)6/h1-10H3
computed SMILES=C(#C[Si](C)(C)C(C)(C)C)[Si](C)(C)C(C)(C)C
accession=JP002289
date=2016.01.19 (Created 2008.10.21, modified 2011.05.06)
author=MASS SPECTROSCOPY SOC. OF JAPAN (MSSJ)
license=CC BY-NC-SA
exact mass=254.1886
ionization energy=70 eV
ion type=[M]+*
computed spectral entropy=2.83562927700678
computed normalized entropy=0.7493359348565961
SPLASH=splash10-0002-5900000000-265a73aae5c2ca157bf9
submitter=submitter = University of Tokyo Team (Faculty of Engineering, University of Tokyo)
MoNA Rating=3.75

>  <NUM PEAKS>  (4985) 
44

>  <MASS SPECTRAL PEAKS>  (4985) 
43 7.16
45 6.77
53 1.16
55 2.57
56 2.26
57 5.78
58 1.12
59 8.63
67 3.6
69 2.95
70 3.56
71 1.1
73 61.6
74 5.39
75 2.33
81 1.38
83 9.98
84 1.19
85 3.05
95 1.38
97 10.86
98 1.31
99 10
100 1.33
109 2.7
111 1.5
123 2.1
125 10.26
126 1.79
127 1.53
139 1.31
140 6.87
141 13.5
142 2.6
143 1.05
151 1.56
155 46.31
156 8.68
157 3.85
197 99.99
198 22.16
199 9.12
200 1.34
254 2.53

>  <PREDICTED SPECTRUM>  (4985) 
27 46
28 1
29 142
31 50
39 83
40 8
41 113
42 41
43 162
44 25
45 192
47 7
51 23
53 68
54 23
55 121
56 149
57 305
58 192
59 363
60 111
61 80
63 6
66 71
67 74
69 119
70 50
71 99
72 28
73 794
74 287
75 145
76 1
77 50
79 69
81 59
82 6
83 294
84 130
85 273
86 5
87 15
93 27
97 169
98 96
99 285
100 181
101 42
102 12
106 0
109 95
111 149
112 27
113 89
114 18
115 39
116 33
123 110
124 62
125 181
126 57
127 101
128 1
139 197
140 174
141 349
142 193
143 120
151 17
153 43
154 62
155 606
156 288
157 190
158 26
165 11
167 24
169 22
170 42
181 51
183 33
195 18
196 10
197 999
198 526
199 365
200 137
201 9
212 8
213 6
223 5
239 94
240 24
241 21
254 139
255 73
256 45

$$$$

     RDKit          2D

 19 19  0  0  0  0  0  0  0  0999 V2000
   -7.4192    4.1705    0.0000 C   0  0  0  0  0  0  0  0  0  0  0  0
   -4.8212    5.6705    0.0000 C   0  0  0  0  0  0  0  0  0  0  0  0
   -2.7721    7.7195    0.0000 C   0  0  0  0  0  0  0  0  0  0  0  0
   -4.8212    7.1705    0.0000 C   0  0  0  0  0  0  0  0  0  0  0  0
   -4.2721    5.1214    0.0000 C   0  0  0  0  0  0  0  0  0  0  0  0
   -6.1202    3.4205    0.0000 C   0  0  0  0  0  0  0  0  0  0  0  0
    4.2721    1.9205    0.0000 C   0  0  0  0  0  0  0  0  0  0  0  0
    4.2726    3.4213    0.0000 C   0  0  0  0  0  0  0  0  0  0  0  0
    2.9726    1.1696    0.0000 C   0  0  0  0  0  0  0  0  0  0  0  0
    2.9736    4.1713    0.0000 C   0  0  0  0  0  0  0  0  0  0  0  0
    1.6736    1.9196    0.0000 C   0  0  0  0  0  0  0  0  0  0  0  0
    0.3750    4.1705    0.0000 C   0  0  0  0  0  0  0  0  0  0  0  0
   -0.9240    3.4205    0.0000 C   0  0  0  0  0  0  0  0  0  0  0  0
   -3.5221    3.4205    0.0000 C   0  0  0  0  0  0  0  0  0  0  0  0
   -4.8212    4.1705    0.0000 C   0  0  0  0  0  0  0  0  0  0  0  0
    1.6740    3.4205    0.0000 C   0  0  0  0  0  0  0  0  0  0  0  0
   -2.2231    4.1705    0.0000 C   0  0  0  0  0  0  0  0  0  0  0  0
   -2.2231    5.6705    0.0000 O   0  0  0  0  0  0  0  0  0  0  0  0
   -3.5221    6.4205    0.0000 Si  0  0  0  0  0  4  0  0  0  0  0  0
  6  1  2  0
  8  7  2  0
  9  7  1  0
 10  8  1  0
 11  9  2  0
 13 12  1  0
 15  2  2  0
 15  6  1  0
 15 14  1  0
 16 10  2  0
 16 11  1  0
 16 12  1  0
 17 13  1  0
 17 14  1  0
 18 17  1  0
 19  3  1  0
 19  4  1  0
 19  5  1  0
 19 18  1  0
M  END
>  <NAME>  (4986) 
3-METHYLENE-7-PHENYL-5-TRIMETHYLSILOXY-1-HEPTENE

>  <SYNONYMS>  (4986) 


>  <SPECTRUM TYPE>  (4986) 
MS1

>  <INSTRUMENT TYPE>  (4986) 
EI-B

>  <INSTRUMENT>  (4986) 
JEOL JMS-D-3000

>  <ION MODE>  (4986) 
P

>  <INCHIKEY>  (4986) 
ITNCTDBNPCKRAP-UHFFFAOYSA-N

>  <FORMULA>  (4986) 
C17H26OSi

>  <EXACT MASS>  (4986) 
274.175291982

>  <MW>  (4986) 
274

>  <ID>  (4986) 
JP002288

>  <CONTRIBUTOR>  (4986) 
University of Tokyo Team, {Faculty of Engineering, University of Tokyo

>  <COMMENT>  (4986) 
SMILES=C=CC(=C)CC(CCc(c1)cccc1)O[Si](C)(C)C
InChI=InChI=1S/C17H26OSi/c1-6-15(2)14-17(18-19(3,4)5)13-12-16-10-8-7-9-11-16/h6-11,17H,1-2,12-14H2,3-5H3
computed SMILES=O(C(CC(=C)C=C)CCC=1C=CC=CC1)[Si](C)(C)C
accession=JP002288
date=2016.01.19 (Created 2008.10.21, modified 2011.05.06)
author=MASS SPECTROSCOPY SOC. OF JAPAN (MSSJ)
license=CC BY-NC-SA
exact mass=274.17529
ionization energy=70 eV
ion type=[M]+*
computed spectral entropy=2.779706007416805
computed normalized entropy=0.8255009799444828
SPLASH=splash10-00di-9310000000-ba395a56738e09763fdf
submitter=submitter = University of Tokyo Team (Faculty of Engineering, University of Tokyo)
MoNA Rating=3.75

>  <NUM PEAKS>  (4986) 
29

>  <MASS SPECTRAL PEAKS>  (4986) 
43 4.12
45 10.81
59 8.41
65 4.73
73 99.99
74 8.39
75 15.97
77 4.89
78 3.22
79 6.02
80 4.24
91 52.75
92 9.88
93 7.69
97 3.92
103 10.43
104 6.4
105 5.64
117 23.98
155 3.59
156 3.22
169 29.55
170 5.02
184 5.19
187 5.69
207 28.58
208 5.26
274 13.65
275 3.5

>  <PREDICTED SPECTRUM>  (4986) 
27 29
29 60
30 16
31 6
39 65
40 23
41 93
42 0
43 60
44 82
45 277
47 58
50 10
51 99
52 59
53 67
55 24
57 58
58 80
59 199
60 23
61 65
63 31
64 5
65 174
66 69
67 85
68 17
69 26
70 68
71 20
73 999
74 296
75 462
76 99
77 192
78 206
79 219
80 71
81 18
89 48
90 14
91 833
92 333
93 128
94 3
95 8
97 30
103 238
104 245
105 374
106 52
111 47
115 144
116 3
117 515
119 55
127 81
128 10
134 48
141 40
142 67
143 11
153 47
154 60
155 296
156 54
157 48
167 61
168 64
169 611
170 330
171 15
183 180
184 261
205 120
206 146
207 413
208 165
259 101
274 299
275 113
276 8

$$$$

     RDKit          2D

 19 20  0  0  0  0  0  0  0  0999 V2000
    2.5850   -2.4751    0.0000 C   0  0  0  0  0  0  0  0  0  0  0  0
    4.6340   -1.9260    0.0000 C   0  0  0  0  0  0  0  0  0  0  0  0
    4.0850    0.1230    0.0000 C   0  0  0  0  0  0  0  0  0  0  0  0
   -8.3572    1.0738    0.0000 C   0  0  0  0  0  0  0  0  0  0  0  0
   -8.3574   -0.4271    0.0000 C   0  0  0  0  0  0  0  0  0  0  0  0
   -7.0578    1.8248    0.0000 C   0  0  0  0  0  0  0  0  0  0  0  0
   -7.0583   -1.1769    0.0000 C   0  0  0  0  0  0  0  0  0  0  0  0
   -5.7586    1.0750    0.0000 C   0  0  0  0  0  0  0  0  0  0  0  0
   -4.4597   -1.1756    0.0000 C   0  0  0  0  0  0  0  0  0  0  0  0
   -3.1608   -0.4254    0.0000 C   0  0  0  0  0  0  0  0  0  0  0  0
    0.7374   -2.6769    0.0000 C   0  0  0  0  0  0  0  0  0  0  0  0
   -0.5616   -3.4269    0.0000 C   0  0  0  0  0  0  0  0  0  0  0  0
   -0.5626   -0.4252    0.0000 C   0  0  0  0  0  0  0  0  0  0  0  0
    2.0360   -0.4260    0.0000 C   0  0  0  0  0  0  0  0  0  0  0  0
   -5.7589   -0.4258    0.0000 C   0  0  0  0  0  0  0  0  0  0  0  0
    0.7369   -1.1760    0.0000 C   0  0  0  0  0  0  0  0  0  0  0  0
   -1.8616   -1.1752    0.0000 C   0  0  0  0  0  0  0  0  0  0  0  0
   -1.8611   -2.6760    0.0000 O   0  0  0  0  0  0  0  0  0  0  0  0
    3.3350   -1.1760    0.0000 Si  0  0  0  0  0  4  0  0  0  0  0  0
  5  4  2  0
  6  4  1  0
  7  5  1  0
  8  6  2  0
 10  9  1  0
 12 11  1  0
 15  7  2  0
 15  8  1  0
 15  9  1  0
 16 11  2  0
 16 13  1  0
 16 14  1  0
 17 10  1  0
 17 13  1  0
 18 12  1  0
 18 17  1  0
 19  1  1  0
 19  2  1  0
 19  3  1  0
 19 14  1  0
M  END
>  <NAME>  (4987) 
4-TRIMETHYLSILYLMETHYL-6-(2-PHENYLETHYL)-5,6-DIHYDRO-2H-PYRAN

>  <SYNONYMS>  (4987) 


>  <SPECTRUM TYPE>  (4987) 
MS1

>  <INSTRUMENT TYPE>  (4987) 
EI-B

>  <INSTRUMENT>  (4987) 
JEOL JMS-D-3000

>  <ION MODE>  (4987) 
P

>  <INCHIKEY>  (4987) 
HARHZXXSHAMBPR-UHFFFAOYSA-N

>  <FORMULA>  (4987) 
C17H26OSi

>  <EXACT MASS>  (4987) 
274.175291982

>  <MW>  (4987) 
274

>  <ID>  (4987) 
JP002287

>  <CONTRIBUTOR>  (4987) 
University of Tokyo Team, {Faculty of Engineering, University of Tokyo

>  <COMMENT>  (4987) 
SMILES=c(c2)ccc(c2)CCC(O1)CC(=CC1)C[Si](C)(C)C
InChI=InChI=1S/C17H26OSi/c1-19(2,3)14-16-11-12-18-17(13-16)10-9-15-7-5-4-6-8-15/h4-8,11,17H,9-10,12-14H2,1-3H3
computed SMILES=O1CC=C(CC1CCC=2C=CC=CC2)C[Si](C)(C)C
accession=JP002287
date=2016.01.19 (Created 2008.10.21, modified 2011.05.06)
author=MASS SPECTROSCOPY SOC. OF JAPAN (MSSJ)
license=CC BY-NC-SA
exact mass=274.17529
ionization energy=70 eV
ion type=[M]+*
computed spectral entropy=2.62251415107559
computed normalized entropy=0.8049221747947785
SPLASH=splash10-00dl-9210000000-3d789ae87b3a6bab10bd
submitter=submitter = University of Tokyo Team (Faculty of Engineering, University of Tokyo)
MoNA Rating=3.75

>  <NUM PEAKS>  (4987) 
26

>  <MASS SPECTRAL PEAKS>  (4987) 
43 3.54
45 10.34
59 8.94
65 4
73 99.99
74 8.56
75 16.48
77 4.03
78 3.62
79 6.25
80 4.3
91 51.25
92 10.06
93 8.38
103 8.15
104 6.99
105 5.15
117 23.5
125 3.65
155 3.5
156 3.56
169 9.06
184 3.47
207 26.17
208 5.04
274 4.82

>  <PREDICTED SPECTRUM>  (4987) 
29 30
31 16
39 3
41 32
43 20
44 29
45 278
46 3
47 38
50 3
51 59
52 3
53 21
55 9
57 36
58 21
59 192
60 4
61 18
65 108
66 28
67 64
70 1
71 4
73 999
74 284
75 397
76 63
77 162
78 101
79 103
80 20
81 10
89 54
91 684
92 230
93 69
94 7
97 29
103 174
104 265
105 288
109 18
111 61
115 90
117 354
127 29
131 16
133 10
134 53
135 31
141 25
142 23
154 12
155 177
156 43
167 25
168 66
169 306
170 75
182 100
183 31
184 143
206 18
207 380
208 222
209 49
259 45
274 262
275 62
276 5

$$$$

     RDKit          2D

 18 19  0  0  0  0  0  0  0  0999 V2000
    0.6276   -1.7732    0.0000 C   0  0  0  0  0  0  0  0  0  0  0  0
   -8.7927   -1.0232    0.0000 C   0  0  0  0  0  0  0  0  0  0  0  0
   -8.2437   -3.0722    0.0000 C   0  0  0  0  0  0  0  0  0  0  0  0
   -6.1947   -2.5232    0.0000 C   0  0  0  0  0  0  0  0  0  0  0  0
   -0.8724   -1.7732    0.0000 C   0  0  0  0  0  0  0  0  0  0  0  0
   -4.1830    3.5865    0.0000 C   0  0  0  0  0  0  0  0  0  0  0  0
   -2.8840    2.8365    0.0000 C   0  0  0  0  0  0  0  0  0  0  0  0
   -1.6224   -0.4742    0.0000 C   0  0  0  0  0  0  0  0  0  0  0  0
   -5.4821    2.8365    0.0000 C   0  0  0  0  0  0  0  0  0  0  0  0
   -2.8840    1.3365    0.0000 C   0  0  0  0  0  0  0  0  0  0  0  0
   -4.1830   -1.5348    0.0000 C   0  0  0  0  0  0  0  0  0  0  0  0
   -6.7437   -0.4742    0.0000 C   0  0  0  0  0  0  0  0  0  0  0  0
   -3.1224   -0.4742    0.0000 C   0  0  0  0  0  0  0  0  0  0  0  0
   -5.2437   -0.4742    0.0000 C   0  0  0  0  0  0  0  0  0  0  0  0
   -5.4821    1.3365    0.0000 C   0  0  0  0  0  0  0  0  0  0  0  0
   -4.1830    0.5865    0.0000 C   0  0  0  0  0  0  0  0  0  0  0  0
   -6.7811    0.5865    0.0000 O   0  0  0  0  0  0  0  0  0  0  0  0
   -7.4937   -1.7732    0.0000 Si  0  0  0  0  0  4  0  0  0  0  0  0
  5  1  1  0
  7  6  1  0
  8  5  1  0
  9  6  1  0
 10  7  1  0
 13  8  1  0
 13 11  1  0
 14 11  1  0
 14 12  1  0
 15  9  1  0
 16 10  1  0
 16 13  1  0
 16 14  1  0
 16 15  1  0
 17 15  2  0
 18  2  1  0
 18  3  1  0
 18  4  1  0
 18 12  1  0
M  END
>  <NAME>  (4988) 
3-PROPYL-1-TRIMETHYLSILYLMETHYLSPIRO(3.5)NONAN-5-ONE

>  <SYNONYMS>  (4988) 


>  <SPECTRUM TYPE>  (4988) 
MS1

>  <INSTRUMENT TYPE>  (4988) 
EI-B

>  <INSTRUMENT>  (4988) 
JEOL JMS-D-3000

>  <ION MODE>  (4988) 
P

>  <INCHIKEY>  (4988) 
HBGMUTZBIXAHPY-UHFFFAOYSA-N

>  <FORMULA>  (4988) 
C16H30OSi

>  <EXACT MASS>  (4988) 
266.20659211

>  <MW>  (4988) 
266

>  <ID>  (4988) 
JP002286

>  <CONTRIBUTOR>  (4988) 
University of Tokyo Team, {Faculty of Engineering, University of Tokyo

>  <COMMENT>  (4988) 
SMILES=CCCC(C1)C(C2)(C(=O)CCC2)C(C[Si](C)(C)C)1
InChI=InChI=1S/C16H30OSi/c1-5-8-13-11-14(12-18(2,3)4)16(13)10-7-6-9-15(16)17/h13-14H,5-12H2,1-4H3
computed SMILES=O=C1CCCCC12C(CCC)CC2C[Si](C)(C)C
accession=JP002286
date=2016.01.19 (Created 2008.10.21, modified 2011.05.06)
author=MASS SPECTROSCOPY SOC. OF JAPAN (MSSJ)
license=CC BY-NC-SA
exact mass=266.20659
ionization energy=70 eV
ion type=[M]+*
computed spectral entropy=3.476245305603323
computed normalized entropy=0.8456219822016818
SPLASH=splash10-0fk9-9810000000-a8359ff00de37be684ad
submitter=submitter = University of Tokyo Team (Faculty of Engineering, University of Tokyo)
MoNA Rating=3.75

>  <NUM PEAKS>  (4988) 
61

>  <MASS SPECTRAL PEAKS>  (4988) 
42 8.61
43 3.67
45 7.22
53 4.18
55 5.95
59 11.91
61 3.16
65 3.8
67 11.91
68 3.16
69 3.04
73 99.99
74 9.12
75 23.19
77 5.32
79 9.12
80 4.43
81 5.7
91 21.03
92 4.18
93 9.37
95 6.21
98 3.16
103 2.91
105 5.32
109 5.19
111 34.72
112 3.54
117 3.29
119 6.46
121 3.42
122 3.04
123 3.29
128 3.04
129 3.04
131 4.94
132 3.04
133 12.04
134 3.29
135 6.08
143 2.91
145 5.7
149 3.67
151 3.54
152 4.68
153 70.59
154 8.87
170 6.97
171 3.04
174 4.18
175 6.21
176 3.42
181 3.16
183 24.2
184 3.92
223 15.71
224 3.29
225 12.8
226 2.78
251 3.16
266 3.54

>  <PREDICTED SPECTRUM>  (4988) 
39 28
41 163
42 15
43 173
44 46
45 204
46 19
47 27
51 2
53 120
54 1
55 218
57 24
58 41
59 266
60 48
61 111
63 10
65 43
66 28
67 238
68 49
69 150
71 30
72 16
73 999
74 244
75 619
76 132
77 178
78 56
79 188
80 8
81 235
83 107
85 25
87 3
89 31
91 233
92 63
93 304
95 232
97 33
105 196
106 130
107 154
108 24
109 149
110 33
111 260
112 23
113 43
115 60
117 114
118 6
119 153
120 10
121 205
122 25
123 105
125 48
126 31
129 58
131 47
133 297
134 181
135 206
139 16
140 71
141 60
143 12
145 233
147 40
148 18
149 104
151 177
152 107
153 732
154 362
155 245
156 57
166 12
167 19
168 21
176 72
180 3
181 170
182 36
183 343
184 88
211 37
223 381
224 199
225 460
226 205
238 10
251 145
252 21
266 14
267 126
268 37

$$$$

     RDKit          2D

 18 19  0  0  0  0  0  0  0  0999 V2000
    2.2731    7.2579    0.0000 C   0  0  0  0  0  0  0  0  0  0  0  0
   -4.2221    0.5079    0.0000 C   0  0  0  0  0  0  0  0  0  0  0  0
    4.8712    2.7579    0.0000 C   0  0  0  0  0  0  0  0  0  0  0  0
   -2.9226   -0.2429    0.0000 C   0  0  0  0  0  0  0  0  0  0  0  0
   -4.2226    2.0087    0.0000 C   0  0  0  0  0  0  0  0  0  0  0  0
    4.8716    4.2587    0.0000 C   0  0  0  0  0  0  0  0  0  0  0  0
    3.5716    2.0071    0.0000 C   0  0  0  0  0  0  0  0  0  0  0  0
   -1.6236    0.5071    0.0000 C   0  0  0  0  0  0  0  0  0  0  0  0
   -2.9236    2.7587    0.0000 C   0  0  0  0  0  0  0  0  0  0  0  0
    3.5726    5.0087    0.0000 C   0  0  0  0  0  0  0  0  0  0  0  0
    2.2726    2.7571    0.0000 C   0  0  0  0  0  0  0  0  0  0  0  0
   -0.3250    4.2579    0.0000 C   0  0  0  0  0  0  0  0  0  0  0  0
   -1.6240    2.0079    0.0000 C   0  0  0  0  0  0  0  0  0  0  0  0
    2.2731    4.2579    0.0000 C   0  0  0  0  0  0  0  0  0  0  0  0
   -0.3250    2.7579    0.0000 C   0  0  0  0  0  0  0  0  0  0  0  0
    0.9740    5.0079    0.0000 C   0  0  0  0  0  0  0  0  0  0  0  0
    0.9740    2.0079    0.0000 O   0  0  0  0  0  0  0  0  0  0  0  0
    0.9740    6.5079    0.0000 O   0  0  0  0  0  0  0  0  0  0  0  0
  4  2  2  0
  5  2  1  0
  6  3  2  0
  7  3  1  0
  8  4  1  0
  9  5  2  0
 10  6  1  0
 11  7  2  0
 13  8  2  0
 13  9  1  0
 14 10  2  0
 14 11  1  0
 15 12  1  0
 15 13  1  0
 16 12  1  0
 16 14  1  0
 17 15  2  0
 18  1  1  0
 18 16  1  0
M  END
>  <NAME>  (4989) 
3-METHOXY-3-PHENYLPROPIOPHENONE

>  <SYNONYMS>  (4989) 


>  <SPECTRUM TYPE>  (4989) 
MS1

>  <INSTRUMENT TYPE>  (4989) 
EI-B

>  <INSTRUMENT>  (4989) 
JEOL JMS-D-3000

>  <ION MODE>  (4989) 
P

>  <INCHIKEY>  (4989) 
AVZUDRKDFJPJMF-UHFFFAOYSA-N

>  <FORMULA>  (4989) 
C16H16O2

>  <EXACT MASS>  (4989) 
240.115029752

>  <MW>  (4989) 
240

>  <ID>  (4989) 
JP002285

>  <CONTRIBUTOR>  (4989) 
University of Tokyo Team, {Faculty of Engineering, University of Tokyo

>  <COMMENT>  (4989) 
SMILES=COC(CC(=O)c(c2)cccc2)c(c1)cccc1
InChI=InChI=1S/C16H16O2/c1-18-16(14-10-6-3-7-11-14)12-15(17)13-8-4-2-5-9-13/h2-11,16H,12H2,1H3
computed SMILES=O=C(C=1C=CC=CC1)CC(OC)C=2C=CC=CC2
accession=JP002285
date=2016.01.19 (Created 2008.10.21, modified 2011.05.06)
author=MASS SPECTROSCOPY SOC. OF JAPAN (MSSJ)
license=CC BY-NC-SA
exact mass=240.11503
ionization energy=70 eV
ion type=[M]+*
computed spectral entropy=2.4669527521928853
computed normalized entropy=0.7403365383666609
SPLASH=splash10-0adi-3920000000-d6dcabb7be28f24baa41
submitter=submitter = University of Tokyo Team (Faculty of Engineering, University of Tokyo)
MoNA Rating=3.75

>  <NUM PEAKS>  (4989) 
28

>  <MASS SPECTRAL PEAKS>  (4989) 
40 1.39
50 3.17
51 12.66
52 1.51
63 1.58
65 2.16
75 1.51
76 2.47
77 55.32
78 8.36
89 1.7
91 10.38
102 2.09
103 11.08
104 9.14
105 96.08
106 8.98
121 99.99
122 8.48
130 2.05
131 6.16
179 2.28
207 15.76
208 15.53
209 2.9
225 35.91
226 6.16
240 4.14

>  <PREDICTED SPECTRUM>  (4989) 
15 20
17 3
18 4
27 10
29 1
32 23
33 6
38 30
39 120
40 31
41 19
45 64
50 134
51 316
52 113
53 24
59 5
61 36
62 35
63 90
64 54
65 129
74 37
75 105
76 83
77 653
78 233
79 96
89 77
90 48
91 241
92 40
93 23
101 23
102 131
103 239
104 184
105 755
106 223
119 99
120 219
121 999
122 266
131 21
135 48
165 31
178 22
179 46
180 21
207 227
208 269
209 113
225 286
226 138
240 168
241 54

$$$$

     RDKit          2D

 17 17  0  0  0  0  0  0  0  0999 V2000
    5.8100    4.1490    0.0000 C   0  0  0  0  0  0  0  0  0  0  0  0
   -3.1900    1.5500    0.0000 C   0  0  0  0  0  0  0  0  0  0  0  0
   -2.4400    0.2500    0.0000 C   0  0  0  0  0  0  0  0  0  0  0  0
   -2.4400    2.8500    0.0000 C   0  0  0  0  0  0  0  0  0  0  0  0
   -0.9400    0.2500    0.0000 C   0  0  0  0  0  0  0  0  0  0  0  0
   -0.9400    2.8500    0.0000 C   0  0  0  0  0  0  0  0  0  0  0  0
   -0.1900   -1.0500    0.0000 C   0  0  0  0  0  0  0  0  0  0  0  0
   -0.1900    4.1500    0.0000 C   0  0  0  0  0  0  0  0  0  0  0  0
    1.3100   -1.0500    0.0000 C   0  0  0  0  0  0  0  0  0  0  0  0
    1.3100    4.1500    0.0000 C   0  0  0  0  0  0  0  0  0  0  0  0
    2.0600    0.2500    0.0000 C   0  0  0  0  0  0  0  0  0  0  0  0
    3.5600    2.8500    0.0000 C   0  0  0  0  0  0  0  0  0  0  0  0
    4.3100    4.1490    0.0000 C   0  0  0  0  0  0  0  0  0  0  0  0
    2.0600    2.8500    0.0000 C   0  0  0  0  0  0  0  0  0  0  0  0
    1.3100    1.5500    0.0000 C   0  0  0  0  0  0  0  0  0  0  0  0
    3.5600    5.4481    0.0000 O   0  0  0  0  0  0  0  0  0  0  0  0
   -0.1900    1.5500    0.0000 O   0  0  0  0  0  0  0  0  0  0  0  0
  3  2  1  0
  4  2  1  0
  5  3  1  0
  6  4  1  0
  7  5  1  0
  8  6  1  0
  9  7  1  0
 10  8  1  0
 11  9  1  0
 13  1  1  0
 13 12  1  0
 14 10  1  0
 14 12  1  0
 15 11  1  0
 15 14  1  0
 16 13  2  0
 17 15  2  0
M  END
>  <NAME>  (4990) 
2-(2-OXOPROPYL)CYCLODODECANONE

>  <SYNONYMS>  (4990) 


>  <SPECTRUM TYPE>  (4990) 
MS1

>  <INSTRUMENT TYPE>  (4990) 
EI-B

>  <INSTRUMENT>  (4990) 
JEOL JMS-D-3000

>  <ION MODE>  (4990) 
P

>  <INCHIKEY>  (4990) 
GNMCLGGNPWOVOH-UHFFFAOYSA-N

>  <FORMULA>  (4990) 
C15H26O2

>  <EXACT MASS>  (4990) 
238.193280072

>  <MW>  (4990) 
238

>  <ID>  (4990) 
JP002284

>  <CONTRIBUTOR>  (4990) 
University of Tokyo Team, {Faculty of Engineering, University of Tokyo

>  <COMMENT>  (4990) 
SMILES=CC(=O)CC(C1)C(=O)CCCCCCCCC1
InChI=InChI=1S/C15H26O2/c1-13(16)12-14-10-8-6-4-2-3-5-7-9-11-15(14)17/h14H,2-12H2,1H3
computed SMILES=O=C(C)CC1C(=O)CCCCCCCCCC1
accession=JP002284
date=2016.01.19 (Created 2008.10.21, modified 2011.05.06)
author=MASS SPECTROSCOPY SOC. OF JAPAN (MSSJ)
license=CC BY-NC-SA
exact mass=238.19328
ionization energy=70 eV
ion type=[M]+*
computed spectral entropy=2.9460821503752337
computed normalized entropy=0.9531031018918592
SPLASH=splash10-052g-9310000000-24be8fadaaa24ce82f36
submitter=submitter = University of Tokyo Team (Faculty of Engineering, University of Tokyo)
MoNA Rating=3.75

>  <NUM PEAKS>  (4990) 
22

>  <MASS SPECTRAL PEAKS>  (4990) 
42 29.75
43 99.99
55 39.44
67 15.72
69 22.28
71 24.11
81 22.28
82 16.9
83 15.46
95 24.77
96 30.79
97 17.43
98 33.55
108 13.36
109 29.88
111 14.15
114 32.37
121 17.56
181 14.41
195 37.35
220 28.7
238 36.3

>  <PREDICTED SPECTRUM>  (4990) 
26 45
27 220
28 90
29 239
31 30
37 2
38 30
39 296
40 138
41 791
42 275
43 999
44 159
45 168
50 3
51 76
52 46
53 292
54 244
55 802
56 291
57 278
58 343
59 135
60 106
61 1
63 10
65 148
66 136
67 496
68 274
69 529
70 285
71 474
72 129
73 97
74 22
76 8
77 216
78 83
79 300
80 169
81 524
82 314
83 464
84 375
85 385
86 79
87 49
91 247
92 63
93 258
94 204
95 463
96 312
97 519
98 688
99 254
100 130
101 91
103 7
105 182
106 85
107 209
108 236
109 348
110 211
111 390
112 195
113 124
114 24
115 117
116 41
117 59
119 84
120 113
121 250
122 207
123 258
124 139
125 125
126 130
127 125
128 75
131 2
133 81
134 113
135 242
136 140
137 139
138 140
139 168
140 110
141 112
142 100
143 31
146 25
147 96
148 125
149 269
150 134
151 124
152 60
153 98
154 10
155 43
161 4
162 98
163 161
164 40
165 74
166 144
167 107
168 79
169 18
176 3
177 174
178 115
179 53
180 180
181 266
182 98
183 77
191 41
192 40
193 46
194 22
195 142
196 88
205 125
206 11
209 26
210 27
211 3
220 236
221 52
223 61
224 19
238 305
239 105

$$$$

     RDKit          2D

 15 15  0  0  0  0  0  0  0  0999 V2000
    9.0942    0.7512    0.0000 C   0  0  0  0  0  0  0  0  0  0  0  0
    7.7948    3.0010    0.0000 C   0  0  0  0  0  0  0  0  0  0  0  0
   -2.5989   -1.5002    0.0000 C   0  0  0  0  0  0  0  0  0  0  0  0
    2.5987    3.0002    0.0000 C   0  0  0  0  0  0  0  0  0  0  0  0
    5.1970    1.5006    0.0000 C   0  0  0  0  0  0  0  0  0  0  0  0
    6.4962    0.7508    0.0000 C   0  0  0  0  0  0  0  0  0  0  0  0
    3.8981    0.7504    0.0000 C   0  0  0  0  0  0  0  0  0  0  0  0
   -1.3000    0.7500    0.0000 C   0  0  0  0  0  0  0  0  0  0  0  0
   -0.0000   -1.5000    0.0000 C   0  0  0  0  0  0  0  0  0  0  0  0
    0.0000    1.5000    0.0000 C   0  0  0  0  0  0  0  0  0  0  0  0
    1.3000   -0.7500    0.0000 C   0  0  0  0  0  0  0  0  0  0  0  0
    7.7951    1.5010    0.0000 C   0  0  0  0  0  0  0  0  0  0  0  0
   -1.3000   -0.7500    0.0000 C   0  0  0  0  0  0  0  0  0  0  0  0
    2.5989    1.5002    0.0000 C   0  0  0  0  0  0  0  0  0  0  0  0
    1.3000    0.7500    0.0000 C   0  0  0  0  0  0  0  0  0  0  0  0
  6  5  1  0
  7  5  1  0
 10  8  1  0
 11  9  1  0
 12  1  1  0
 12  2  1  0
 12  6  2  0
 13  3  1  0
 13  8  2  0
 13  9  1  0
 14  4  2  0
 14  7  1  0
 15 10  1  0
 15 11  1  0
 15 14  1  0
M  END
>  <NAME>  (4991) 
1-METHYL-4-(1-METHYLENE-5-METHYL-4-HEXENYL)CYCLOHEXENE

>  <SYNONYMS>  (4991) 


>  <SPECTRUM TYPE>  (4991) 
MS1

>  <INSTRUMENT TYPE>  (4991) 
EI-B

>  <INSTRUMENT>  (4991) 
JEOL JMS-D-3000

>  <ION MODE>  (4991) 
P

>  <INCHIKEY>  (4991) 
XZRVRYFILCSYSP-UHFFFAOYSA-N

>  <FORMULA>  (4991) 
C15H24

>  <EXACT MASS>  (4991) 
204.187800768

>  <MW>  (4991) 
204

>  <ID>  (4991) 
JP002283

>  <CONTRIBUTOR>  (4991) 
University of Tokyo Team, {Faculty of Engineering, University of Tokyo

>  <COMMENT>  (4991) 
SMILES=CC(C)=CCCC(=C)C(C1)CC([H])=C(C)C1
InChI=InChI=1S/C15H24/c1-12(2)6-5-7-14(4)15-10-8-13(3)9-11-15/h6,8,15H,4-5,7,9-11H2,1-3H3
computed SMILES=C=C(CCC=C(C)C)C1CC=C(C)CC1
accession=JP002283
date=2016.01.19 (Created 2008.10.21, modified 2011.05.06)
author=MASS SPECTROSCOPY SOC. OF JAPAN (MSSJ)
license=CC BY-NC-SA
exact mass=204.1878
ionization energy=70 eV
ion type=[M]+*
computed spectral entropy=3.105728845533055
computed normalized entropy=0.9320342842251778
SPLASH=splash10-00kf-9410000000-63ed3a2552a50f20d1fb
submitter=submitter = University of Tokyo Team (Faculty of Engineering, University of Tokyo)
MoNA Rating=3.75

>  <NUM PEAKS>  (4991) 
28

>  <MASS SPECTRAL PEAKS>  (4991) 
41 65.35
53 13.09
55 17.13
67 33.57
68 12.61
69 96.34
77 17.13
79 33.62
80 13.09
81 18.75
91 24.67
92 22.13
93 99.99
94 45.2
95 19.16
105 24.28
107 30.65
108 14.08
109 44.13
119 35.3
120 13.75
121 25.78
133 13.98
134 15.76
135 18.22
161 34.23
204 76.82
205 15.53

>  <PREDICTED SPECTRUM>  (4991) 
26 8
27 231
28 52
29 253
38 24
39 377
40 175
41 843
42 210
43 277
44 50
50 75
51 216
52 154
53 484
54 125
55 505
56 128
57 207
63 87
64 67
65 302
66 139
67 492
68 346
69 758
70 124
71 17
77 531
78 208
79 608
80 379
81 548
82 173
83 128
84 60
89 62
90 2
91 531
92 499
93 999
94 317
95 193
103 143
104 83
105 507
106 162
107 670
108 266
109 258
110 39
111 9
115 159
116 40
117 103
118 71
119 509
120 221
121 444
122 198
123 58
129 7
130 8
131 121
132 83
133 377
134 242
135 252
136 230
143 37
146 33
147 237
148 220
149 116
160 54
161 339
162 138
163 23
175 64
176 24
189 169
190 26
204 357
205 122

$$$$

     RDKit          2D

 17 18  0  0  0  0  0  0  0  0999 V2000
   -4.5347    2.6480    0.0000 C   0  0  0  0  0  0  0  0  0  0  0  0
   -6.5837    2.0989    0.0000 C   0  0  0  0  0  0  0  0  0  0  0  0
   -6.0347    0.0499    0.0000 C   0  0  0  0  0  0  0  0  0  0  0  0
    3.8094   -0.9013    0.0000 C   0  0  0  0  0  0  0  0  0  0  0  0
    3.8096    0.5995    0.0000 C   0  0  0  0  0  0  0  0  0  0  0  0
    2.5100   -1.6523    0.0000 C   0  0  0  0  0  0  0  0  0  0  0  0
    2.5105    1.3493    0.0000 C   0  0  0  0  0  0  0  0  0  0  0  0
    1.2108   -0.9025    0.0000 C   0  0  0  0  0  0  0  0  0  0  0  0
   -2.6871    2.8497    0.0000 C   0  0  0  0  0  0  0  0  0  0  0  0
   -1.3881    3.5997    0.0000 C   0  0  0  0  0  0  0  0  0  0  0  0
   -1.3871    0.5981    0.0000 C   0  0  0  0  0  0  0  0  0  0  0  0
   -3.9857    0.5989    0.0000 C   0  0  0  0  0  0  0  0  0  0  0  0
   -2.6866    1.3489    0.0000 C   0  0  0  0  0  0  0  0  0  0  0  0
    1.2111    0.5983    0.0000 C   0  0  0  0  0  0  0  0  0  0  0  0
   -0.0881    1.3481    0.0000 C   0  0  0  0  0  0  0  0  0  0  0  0
   -0.0886    2.8489    0.0000 O   0  0  0  0  0  0  0  0  0  0  0  0
   -5.2847    1.3489    0.0000 Si  0  0  0  0  0  4  0  0  0  0  0  0
  5  4  2  0
  6  4  1  0
  7  5  1  0
  8  6  2  0
 10  9  1  0
 13  9  2  0
 13 11  1  0
 13 12  1  0
 14  7  2  0
 14  8  1  0
 15 11  1  0
 15 14  1  0
 16 10  1  0
 16 15  1  0
 17  1  1  0
 17  2  1  0
 17  3  1  0
 17 12  1  0
M  END
>  <NAME>  (4992) 
4-TRIMETHYLSILYLMETHYL-6-PHENYL-5,6-DIHYDRO-2H-PYRAN

>  <SYNONYMS>  (4992) 


>  <SPECTRUM TYPE>  (4992) 
MS1

>  <INSTRUMENT TYPE>  (4992) 
EI-B

>  <INSTRUMENT>  (4992) 
JEOL JMS-D-3000

>  <ION MODE>  (4992) 
P

>  <INCHIKEY>  (4992) 
XZFMEUWLAAFAPN-UHFFFAOYSA-N

>  <FORMULA>  (4992) 
C15H22OSi

>  <EXACT MASS>  (4992) 
246.14399185399998

>  <MW>  (4992) 
246

>  <ID>  (4992) 
JP002282

>  <CONTRIBUTOR>  (4992) 
University of Tokyo Team, {Faculty of Engineering, University of Tokyo

>  <COMMENT>  (4992) 
SMILES=c(c2)ccc(c2)C(O1)CC(=CC1)C[Si](C)(C)C
InChI=InChI=1S/C15H22OSi/c1-17(2,3)12-13-9-10-16-15(11-13)14-7-5-4-6-8-14/h4-9,15H,10-12H2,1-3H3
computed SMILES=O1CC=C(CC1C=2C=CC=CC2)C[Si](C)(C)C
accession=JP002282
date=2016.01.19 (Created 2008.10.21, modified 2011.05.06)
author=MASS SPECTROSCOPY SOC. OF JAPAN (MSSJ)
license=CC BY-NC-SA
exact mass=246.14399
ionization energy=70 eV
ion type=[M]+*
computed spectral entropy=2.58562895887289
computed normalized entropy=0.8135887863767887
SPLASH=splash10-00di-9500000000-f005c26cf6bb36312b65
submitter=submitter = University of Tokyo Team (Faculty of Engineering, University of Tokyo)
MoNA Rating=3.75

>  <NUM PEAKS>  (4992) 
24

>  <MASS SPECTRAL PEAKS>  (4992) 
43 4.21
45 8.47
51 3.84
59 7.1
73 99.99
74 9.71
75 12.81
77 9.88
91 8.35
98 5.44
104 3.82
105 9.82
106 6.82
125 3.42
128 6.54
129 4.45
140 8.77
141 9.6
155 6.62
156 12.13
179 32.83
180 5.4
231 6.51
246 4.11

>  <PREDICTED SPECTRUM>  (4992) 
31 8
39 1
41 27
43 131
44 19
45 285
47 15
51 78
52 31
53 58
55 1
57 24
58 22
59 192
60 27
65 38
66 3
67 58
72 3
73 999
74 264
75 312
76 46
77 170
78 48
79 71
81 70
83 70
85 30
91 193
92 21
93 40
95 14
97 73
98 24
99 16
103 35
104 124
105 254
106 146
111 35
115 29
125 42
126 14
127 71
128 40
129 42
139 6
140 193
141 230
142 45
153 2
154 59
155 205
156 239
157 55
158 69
172 6
179 517
180 240
181 60
195 8
231 86
232 16
246 111
247 7

$$$$

     RDKit          2D

 19 19  0  0  0  0  0  0  0  0999 V2000
    1.6238    5.0075    0.0000 C   0  0  0  0  0  0  0  0  0  0  0  0
    4.2219    2.0075    0.0000 C   0  0  0  0  0  0  0  0  0  0  0  0
    2.9228   -0.2425    0.0000 C   0  0  0  0  0  0  0  0  0  0  0  0
   -4.8714    4.2575    0.0000 C   0  0  0  0  0  0  0  0  0  0  0  0
   -4.8719    2.7567    0.0000 C   0  0  0  0  0  0  0  0  0  0  0  0
   -3.5719    5.0083    0.0000 C   0  0  0  0  0  0  0  0  0  0  0  0
   -3.5728    2.0067    0.0000 C   0  0  0  0  0  0  0  0  0  0  0  0
   -2.2728    4.2583    0.0000 C   0  0  0  0  0  0  0  0  0  0  0  0
   -0.9743    0.5075    0.0000 C   0  0  0  0  0  0  0  0  0  0  0  0
    0.3248   -0.2425    0.0000 C   0  0  0  0  0  0  0  0  0  0  0  0
    0.3248    4.2575    0.0000 C   0  0  0  0  0  0  0  0  0  0  0  0
   -2.2733    2.7575    0.0000 C   0  0  0  0  0  0  0  0  0  0  0  0
   -0.9743    2.0075    0.0000 C   0  0  0  0  0  0  0  0  0  0  0  0
    0.3248    2.7575    0.0000 C   0  0  0  0  0  0  0  0  0  0  0  0
    1.6238    2.0075    0.0000 C   0  0  0  0  0  0  0  0  0  0  0  0
    0.3248   -1.7425    0.0000 O   0  0  0  0  0  0  0  0  0  0  0  0
   -0.9743    5.0075    0.0000 O   0  0  0  0  0  0  0  0  0  0  0  0
    2.9228    2.7575    0.0000 O   0  0  0  0  0  0  0  0  0  0  0  0
    1.6238    0.5075    0.0000 O   0  0  0  0  0  0  0  0  0  0  0  0
  5  4  2  0
  6  4  1  0
  7  5  1  0
  8  6  2  0
 10  9  1  0
 11  1  1  0
 12  7  2  0
 12  8  1  0
 13  9  1  0
 13 12  1  0
 14 11  1  0
 14 13  1  0
 15 14  1  0
 16 10  2  0
 17 11  2  0
 18  2  1  0
 18 15  1  0
 19  3  1  0
 19 15  1  0
M  END
>  <NAME>  (4993) 
4-DIMETHOXYMETHYL-3-PHENYL-5-OXOHEXANAL

>  <SYNONYMS>  (4993) 


>  <SPECTRUM TYPE>  (4993) 
MS1

>  <INSTRUMENT TYPE>  (4993) 
EI-B

>  <INSTRUMENT>  (4993) 
JEOL JMS-D-3000

>  <ION MODE>  (4993) 
P

>  <INCHIKEY>  (4993) 
UBLRDRTVLCTAKO-UHFFFAOYSA-N

>  <FORMULA>  (4993) 
C15H20O4

>  <EXACT MASS>  (4993) 
264.13615912

>  <MW>  (4993) 
264

>  <ID>  (4993) 
JP002281

>  <CONTRIBUTOR>  (4993) 
University of Tokyo Team, {Faculty of Engineering, University of Tokyo

>  <COMMENT>  (4993) 
SMILES=O=CCC(c(c1)cccc1)C(C(C)=O)C(OC)OC
InChI=InChI=1S/C15H20O4/c1-11(17)14(15(18-2)19-3)13(9-10-16)12-7-5-4-6-8-12/h4-8,10,13-15H,9H2,1-3H3
computed SMILES=O=CCC(C=1C=CC=CC1)C(C(=O)C)C(OC)OC
accession=JP002281
date=2016.01.19 (Created 2008.10.21, modified 2011.05.06)
author=MASS SPECTROSCOPY SOC. OF JAPAN (MSSJ)
license=CC BY-NC-SA
exact mass=264.13616
ionization energy=70 eV
ion type=[M]+*
computed spectral entropy=3.3830378721217365
computed normalized entropy=0.8367536417448608
SPLASH=splash10-0059-5910000000-27ca3eeee38a3431a9e5
submitter=submitter = University of Tokyo Team (Faculty of Engineering, University of Tokyo)
MoNA Rating=3.75

>  <NUM PEAKS>  (4993) 
57

>  <MASS SPECTRAL PEAKS>  (4993) 
18 1.56
28 2.02
29 1.96
31 15.91
43 13.12
58 2.44
60 2.51
68 1.69
71 2.46
75 99.99
76 3.39
77 1.89
78 2.53
85 20.1
91 2
95 8.45
100 5.3
101 21.62
103 5.85
104 14.93
105 4.75
115 3.92
117 1.59
123 2.32
128 4.74
129 11
130 5.86
131 37.97
132 21.03
133 2.8
141 1.46
143 3.83
145 4.33
146 3.62
147 13.42
148 1.84
154 2.02
155 3.64
157 22.45
158 9.13
159 2.63
171 8.43
172 25.94
173 6.47
183 1.44
185 1.45
189 14.18
190 3.16
199 3.78
200 13.38
201 3.13
204 2.18
213 2.02
214 20.57
215 3.26
232 3.46
246 4.02

>  <PREDICTED SPECTRUM>  (4993) 
15 11
27 75
29 80
31 87
32 42
33 22
38 0
39 134
40 15
41 88
43 671
44 39
45 157
47 196
48 8
50 28
51 100
53 78
54 0
55 119
56 67
57 134
59 22
60 8
61 114
67 41
69 79
71 160
72 38
73 102
74 128
75 833
76 171
77 310
78 28
83 53
84 25
85 172
86 68
87 98
88 66
91 175
93 25
95 10
99 91
100 58
101 314
102 73
103 123
104 470
105 432
113 51
114 8
115 203
116 126
117 187
118 101
120 5
121 6
123 26
127 60
128 117
129 274
130 259
131 999
132 327
141 79
142 8
143 42
144 26
145 120
146 198
147 589
148 1
155 29
157 273
158 184
159 227
160 110
161 47
171 134
172 556
173 260
174 33
189 420
190 193
191 26
199 132
200 285
201 181
214 262
232 219

$$$$

     RDKit          2D

 17 18  0  0  0  0  0  0  0  0999 V2000
    4.8961    2.6912    0.0000 C   0  0  0  0  0  0  0  0  0  0  0  0
   -4.1971    4.9412    0.0000 C   0  0  0  0  0  0  0  0  0  0  0  0
   -4.1976    3.4403    0.0000 C   0  0  0  0  0  0  0  0  0  0  0  0
   -2.8976    5.6920    0.0000 C   0  0  0  0  0  0  0  0  0  0  0  0
    3.0402   -1.1123    0.0000 C   0  0  0  0  0  0  0  0  0  0  0  0
   -2.8986    2.6903    0.0000 C   0  0  0  0  0  0  0  0  0  0  0  0
   -1.5986    4.9420    0.0000 C   0  0  0  0  0  0  0  0  0  0  0  0
    3.5162    0.3124    0.0000 C   0  0  0  0  0  0  0  0  0  0  0  0
    1.5475   -1.1099    0.0000 C   0  0  0  0  0  0  0  0  0  0  0  0
   -0.3000    2.6912    0.0000 C   0  0  0  0  0  0  0  0  0  0  0  0
    0.9990    3.4412    0.0000 C   0  0  0  0  0  0  0  0  0  0  0  0
   -1.5991    3.4412    0.0000 C   0  0  0  0  0  0  0  0  0  0  0  0
    2.2981    1.1912    0.0000 C   0  0  0  0  0  0  0  0  0  0  0  0
    1.0875    0.3179    0.0000 C   0  0  0  0  0  0  0  0  0  0  0  0
    2.2981    2.6912    0.0000 C   0  0  0  0  0  0  0  0  0  0  0  0
   -0.3377    0.7856    0.0000 O   0  0  0  0  0  0  0  0  0  0  0  0
    3.5971    3.4412    0.0000 O   0  0  0  0  0  0  0  0  0  0  0  0
  3  2  2  0
  4  2  1  0
  6  3  1  0
  7  4  2  0
  8  5  1  0
  9  5  1  0
 10 11  2  0
 12  6  2  0
 12  7  1  0
 12 10  1  0
 13  8  1  0
 14  9  1  0
 14 13  1  0
 15 11  1  0
 15 13  1  0
 16 14  2  0
 17  1  1  0
 17 15  1  0
M  END
>  <NAME>  (4994) 
2-(1-METHOXY-3-PHENYL-2-PROPENYL)CYCLOPENTANONE

>  <SYNONYMS>  (4994) 


>  <SPECTRUM TYPE>  (4994) 
MS1

>  <INSTRUMENT TYPE>  (4994) 
EI-B

>  <INSTRUMENT>  (4994) 
JEOL JMS-D-3000

>  <ION MODE>  (4994) 
P

>  <INCHIKEY>  (4994) 
HRGKKSYTZKMLOS-ZHACJKMWSA-N

>  <FORMULA>  (4994) 
C15H18O2

>  <EXACT MASS>  (4994) 
230.130679816

>  <MW>  (4994) 
230

>  <ID>  (4994) 
JP002279

>  <CONTRIBUTOR>  (4994) 
University of Tokyo Team, {Faculty of Engineering, University of Tokyo

>  <COMMENT>  (4994) 
SMILES=COC(C=Cc(c2)cccc2)C(C1)C(=O)CC1
InChI=InChI=1S/C15H18O2/c1-17-15(13-8-5-9-14(13)16)11-10-12-6-3-2-4-7-12/h2-4,6-7,10-11,13,15H,5,8-9H2,1H3/b11-10+
computed SMILES=O=C1CCCC1C(OC)C=CC=2C=CC=CC2
accession=JP002279
date=2016.01.19 (Created 2008.10.21, modified 2011.05.06)
author=MASS SPECTROSCOPY SOC. OF JAPAN (MSSJ)
license=CC BY-NC-SA
exact mass=230.13068
ionization energy=70 eV
ion type=[M]+*
computed spectral entropy=3.3099710545873844
computed normalized entropy=0.8800305627920646
SPLASH=splash10-0005-2900000000-463824e9c5eaf39aa09e
submitter=submitter = University of Tokyo Team (Faculty of Engineering, University of Tokyo)
MoNA Rating=3.75

>  <NUM PEAKS>  (4994) 
43

>  <MASS SPECTRAL PEAKS>  (4994) 
41 9.33
44 13.6
51 13.2
55 9.33
63 10.13
65 9.73
71 10.53
76 6.26
77 19.33
78 8.8
79 6.53
85 7.6
89 5.86
91 41.2
102 7.2
103 7.2
104 5.86
115 61.46
116 9.6
117 8.4
121 29.06
127 7.06
128 26
129 15.2
131 7.6
139 6.8
141 93.46
142 65.6
143 12.66
147 77.73
148 10.26
152 5.73
153 8.13
154 20.93
155 24.93
156 16.53
165 5.73
169 9.86
170 16.4
197 27.86
198 99.99
199 14.93
230 5.73

>  <PREDICTED SPECTRUM>  (4994) 
26 15
27 171
28 73
29 199
30 0
31 116
38 28
39 248
40 71
41 273
42 40
43 148
44 37
45 105
50 83
51 239
52 68
53 195
54 95
55 218
56 45
57 80
58 5
59 64
62 4
63 122
64 52
65 183
66 6
67 162
68 59
69 221
70 66
71 185
74 63
75 152
76 101
77 479
78 197
79 148
80 102
81 245
82 100
83 150
84 83
85 82
86 39
89 126
90 50
91 626
92 184
93 168
94 134
95 159
96 169
97 153
98 62
99 81
101 93
102 199
103 511
104 349
105 251
107 196
108 69
109 66
110 98
111 163
115 455
116 194
117 69
118 104
119 3
121 62
122 21
123 91
124 95
125 102
126 57
127 195
128 195
129 277
130 20
131 999
132 368
133 233
134 201
135 168
136 51
137 10
139 89
141 206
142 84
143 43
147 108
149 38
150 37
151 17
152 141
153 92
154 182
155 187
156 152
157 72
165 44
166 133
167 140
168 191
169 137
170 68
182 171
183 138
184 129
185 49
198 89
212 47
230 153
231 31

$$$$

     RDKit          2D

 16 17  0  0  0  0  0  0  0  0999 V2000
    3.2481    2.1950    0.0000 C   0  0  0  0  0  0  0  0  0  0  0  0
   -7.1442    2.1950    0.0000 C   0  0  0  0  0  0  0  0  0  0  0  0
    3.2486    3.6958    0.0000 C   0  0  0  0  0  0  0  0  0  0  0  0
    1.9486    1.4442    0.0000 C   0  0  0  0  0  0  0  0  0  0  0  0
   -5.8447    1.4442    0.0000 C   0  0  0  0  0  0  0  0  0  0  0  0
   -7.1447    3.6958    0.0000 C   0  0  0  0  0  0  0  0  0  0  0  0
    1.9495    4.4458    0.0000 C   0  0  0  0  0  0  0  0  0  0  0  0
    0.6495    2.1942    0.0000 C   0  0  0  0  0  0  0  0  0  0  0  0
   -4.5457    2.1942    0.0000 C   0  0  0  0  0  0  0  0  0  0  0  0
   -5.8457    4.4458    0.0000 C   0  0  0  0  0  0  0  0  0  0  0  0
   -0.6490    4.4450    0.0000 C   0  0  0  0  0  0  0  0  0  0  0  0
   -1.9481    3.6950    0.0000 C   0  0  0  0  0  0  0  0  0  0  0  0
    0.6500    3.6950    0.0000 C   0  0  0  0  0  0  0  0  0  0  0  0
   -4.5462    3.6950    0.0000 C   0  0  0  0  0  0  0  0  0  0  0  0
   -3.2471    4.4450    0.0000 C   0  0  0  0  0  0  0  0  0  0  0  0
   -3.2471    5.9450    0.0000 O   0  0  0  0  0  0  0  0  0  0  0  0
  3  1  2  0
  4  1  1  0
  5  2  2  0
  6  2  1  0
  7  3  1  0
  8  4  2  0
  9  5  1  0
 10  6  2  0
 11 12  2  0
 13  7  2  0
 13  8  1  0
 13 11  1  0
 14  9  2  0
 14 10  1  0
 15 12  1  0
 15 14  1  0
 16 15  2  0
M  END
>  <NAME>  (4995) 
CHALCONE

>  <SYNONYMS>  (4995) 


>  <SPECTRUM TYPE>  (4995) 
MS1

>  <INSTRUMENT TYPE>  (4995) 
EI-B

>  <INSTRUMENT>  (4995) 
JEOL JMS-D-3000

>  <ION MODE>  (4995) 
P

>  <INCHIKEY>  (4995) 
DQFBYFPFKXHELB-VAWYXSNFSA-N

>  <FORMULA>  (4995) 
C15H12O

>  <EXACT MASS>  (4995) 
208.088815004

>  <MW>  (4995) 
208

>  <ID>  (4995) 
JP002278

>  <CONTRIBUTOR>  (4995) 
University of Tokyo Team, {Faculty of Engineering, University of Tokyo

>  <COMMENT>  (4995) 
SMILES=O=C(C=Cc(c2)cccc2)c(c1)cccc1
InChI=InChI=1S/C15H12O/c16-15(14-9-5-2-6-10-14)12-11-13-7-3-1-4-8-13/h1-12H/b12-11+
computed SMILES=O=C(C=CC=1C=CC=CC1)C=2C=CC=CC2
accession=JP002278
date=2016.01.19 (Created 2008.10.21, modified 2011.05.06)
author=MASS SPECTROSCOPY SOC. OF JAPAN (MSSJ)
license=CC BY-NC-SA
exact mass=208.08882
ionization energy=70 eV
ion type=[M]+*
computed spectral entropy=2.5639480939768684
computed normalized entropy=0.8067667292143247
SPLASH=splash10-0a4i-5890000000-645c9135637f00e29e82
submitter=submitter = University of Tokyo Team (Faculty of Engineering, University of Tokyo)
MoNA Rating=3.75

>  <NUM PEAKS>  (4995) 
24

>  <MASS SPECTRAL PEAKS>  (4995) 
50 4.52
51 19.98
63 3
75 2.7
76 6.94
77 66.17
78 5.04
89 8.24
90 4.02
102 8.95
103 36.41
104 4.46
105 33.93
106 3
130 12.48
131 43.49
132 4.29
165 7.35
178 8.35
179 15.98
180 5.59
207 99.99
208 91.42
209 13.64

>  <PREDICTED SPECTRUM>  (4995) 
26 16
27 96
28 25
29 28
38 52
39 90
40 23
41 41
49 9
50 269
51 584
52 146
53 73
55 23
62 71
63 196
64 35
65 98
74 141
75 233
76 267
77 999
78 283
79 73
83 6
88 31
89 253
91 52
92 31
101 186
102 345
103 552
104 79
105 577
106 112
130 111
131 713
132 141
152 2
165 140
177 3
178 301
179 453
180 323
181 85
182 22
183 27
193 52
205 40
207 851
208 964
209 309
210 47

$$$$

     RDKit          2D

 17 17  0  0  0  0  0  0  0  0999 V2000
   -2.8578    1.9595    0.0000 C   0  0  0  0  0  0  0  0  0  0  0  0
   -3.4065   -0.0897    0.0000 C   0  0  0  0  0  0  0  0  0  0  0  0
   -1.3574   -0.6384    0.0000 C   0  0  0  0  0  0  0  0  0  0  0  0
    3.6411    1.6178    0.0000 C   0  0  0  0  0  0  0  0  0  0  0  0
    5.6893    2.1703    0.0000 C   0  0  0  0  0  0  0  0  0  0  0  0
    5.1368    4.2184    0.0000 C   0  0  0  0  0  0  0  0  0  0  0  0
   -0.8129    5.9038    0.0000 C   0  0  0  0  0  0  0  0  0  0  0  0
   -2.1075    5.1616    0.0000 C   0  0  0  0  0  0  0  0  0  0  0  0
    0.4861    5.1538    0.0000 C   0  0  0  0  0  0  0  0  0  0  0  0
   -2.1079    3.6608    0.0000 C   0  0  0  0  0  0  0  0  0  0  0  0
    1.7909    2.9138    0.0000 C   0  0  0  0  0  0  0  0  0  0  0  0
   -0.8087    1.4108    0.0000 C   0  0  0  0  0  0  0  0  0  0  0  0
    0.4906    3.6616    0.0000 C   0  0  0  0  0  0  0  0  0  0  0  0
   -0.8089    2.9108    0.0000 C   0  0  0  0  0  0  0  0  0  0  0  0
    3.0887    3.6659    0.0000 O   0  0  0  0  0  0  0  0  0  0  0  0
   -2.1076    0.6606    0.0000 Si  0  0  0  0  0  4  0  0  0  0  0  0
    4.3890    2.9181    0.0000 Si  0  0  0  0  0  4  0  0  0  0  0  0
  8  7  2  0
  9  7  1  0
 10  8  1  0
 13  9  2  0
 13 11  1  0
 14 10  2  0
 14 12  1  0
 14 13  1  0
 15 11  1  0
 16  1  1  0
 16  2  1  0
 16  3  1  0
 16 12  1  0
 17  4  1  0
 17  5  1  0
 17  6  1  0
 17 15  1  0
M  END
>  <NAME>  (4996) 
2-(TRIMETHYLSILYLMETHYL)BENZYL TRIMETHYLSILYL ETHER

>  <SYNONYMS>  (4996) 


>  <SPECTRUM TYPE>  (4996) 
MS1

>  <INSTRUMENT TYPE>  (4996) 
EI-B

>  <INSTRUMENT>  (4996) 
JEOL JMS-D-3000

>  <ION MODE>  (4996) 
P

>  <INCHIKEY>  (4996) 
ICZDVVZHLUFUDE-UHFFFAOYSA-N

>  <FORMULA>  (4996) 
C14H26OSi2

>  <EXACT MASS>  (4996) 
266.152218512

>  <MW>  (4996) 
266

>  <ID>  (4996) 
JP002277

>  <CONTRIBUTOR>  (4996) 
University of Tokyo Team, {Faculty of Engineering, University of Tokyo

>  <COMMENT>  (4996) 
SMILES=C[Si](C)(C)OCc(c1)c(ccc1)C[Si](C)(C)C
InChI=InChI=1S/C14H26OSi2/c1-16(2,3)12-14-10-8-7-9-13(14)11-15-17(4,5)6/h7-10H,11-12H2,1-6H3
computed SMILES=O(CC=1C=CC=CC1C[Si](C)(C)C)[Si](C)(C)C
accession=JP002277
date=2016.01.19 (Created 2008.10.21, modified 2011.05.06)
author=MASS SPECTROSCOPY SOC. OF JAPAN (MSSJ)
license=CC BY-NC-SA
exact mass=266.15222
ionization energy=70 eV
ion type=[M]+*
computed spectral entropy=1.8362422344741995
computed normalized entropy=0.6481129415567813
SPLASH=splash10-0udi-6900000000-ba550bd2ec47dd3290ec
submitter=submitter = University of Tokyo Team (Faculty of Engineering, University of Tokyo)
MoNA Rating=3.75

>  <NUM PEAKS>  (4996) 
17

>  <MASS SPECTRAL PEAKS>  (4996) 
43 2.9
45 8.51
73 46.03
74 3.79
75 23.47
77 3.65
78 3.9
103 4.29
104 99.99
105 11.88
147 5.12
161 3.09
163 3.01
176 2.03
177 2.07
266 0.15
267 0.04

>  <PREDICTED SPECTRUM>  (4996) 
29 61
39 2
43 129
44 140
45 347
46 43
47 35
51 56
52 23
53 20
55 46
57 86
58 98
59 186
60 56
61 34
65 15
66 8
71 10
72 33
73 999
74 277
75 318
76 62
77 184
78 104
79 55
89 51
90 1
91 42
103 472
104 458
105 283
106 25
115 51
116 2
117 82
119 98
120 11
129 15
131 64
133 107
134 22
145 18
147 242
148 81
149 16
161 181
162 41
163 201
164 17
165 20
176 207
177 168
178 207
179 60
192 0
193 1
251 78
266 143
267 26

$$$$

     RDKit          2D

 16 17  0  0  0  0  0  0  0  0999 V2000
   -0.4974    0.1754    0.0000 C   0  0  0  0  0  0  0  0  0  0  0  0
   -7.6677   -0.3737    0.0000 C   0  0  0  0  0  0  0  0  0  0  0  0
   -7.1187   -2.4227    0.0000 C   0  0  0  0  0  0  0  0  0  0  0  0
   -5.0697   -1.8737    0.0000 C   0  0  0  0  0  0  0  0  0  0  0  0
   -3.0580    4.2360    0.0000 C   0  0  0  0  0  0  0  0  0  0  0  0
   -1.7590    3.4860    0.0000 C   0  0  0  0  0  0  0  0  0  0  0  0
   -4.3571    3.4860    0.0000 C   0  0  0  0  0  0  0  0  0  0  0  0
   -1.7590    1.9860    0.0000 C   0  0  0  0  0  0  0  0  0  0  0  0
   -3.0580   -0.8853    0.0000 C   0  0  0  0  0  0  0  0  0  0  0  0
   -5.6187    0.1754    0.0000 C   0  0  0  0  0  0  0  0  0  0  0  0
   -1.9974    0.1754    0.0000 C   0  0  0  0  0  0  0  0  0  0  0  0
   -4.1187    0.1754    0.0000 C   0  0  0  0  0  0  0  0  0  0  0  0
   -4.3571    1.9860    0.0000 C   0  0  0  0  0  0  0  0  0  0  0  0
   -3.0580    1.2360    0.0000 C   0  0  0  0  0  0  0  0  0  0  0  0
   -5.6561    1.2360    0.0000 O   0  0  0  0  0  0  0  0  0  0  0  0
   -6.3687   -1.1237    0.0000 Si  0  0  0  0  0  4  0  0  0  0  0  0
  6  5  1  0
  7  5  1  0
  8  6  1  0
 11  1  1  0
 11  9  1  0
 12  9  1  0
 12 10  1  0
 13  7  1  0
 14  8  1  0
 14 11  1  0
 14 12  1  0
 14 13  1  0
 15 13  2  0
 16  2  1  0
 16  3  1  0
 16  4  1  0
 16 10  1  0
M  END
>  <NAME>  (4997) 
3-METHYL-1-TRIMETHYLSILYLMETHYLSPIRO(3.5)NONAN-5-ONE

>  <SYNONYMS>  (4997) 


>  <SPECTRUM TYPE>  (4997) 
MS1

>  <INSTRUMENT TYPE>  (4997) 
EI-B

>  <INSTRUMENT>  (4997) 
JEOL JMS-D-3000

>  <ION MODE>  (4997) 
P

>  <INCHIKEY>  (4997) 
WAWKLYQBEDIBDK-UHFFFAOYSA-N

>  <FORMULA>  (4997) 
C14H26OSi

>  <EXACT MASS>  (4997) 
238.17529198199998

>  <MW>  (4997) 
238

>  <ID>  (4997) 
JP002276

>  <CONTRIBUTOR>  (4997) 
University of Tokyo Team, {Faculty of Engineering, University of Tokyo

>  <COMMENT>  (4997) 
SMILES=C[Si](C)(C)CC(C1)C(C2)(C(=O)CCC2)C(C)1
InChI=InChI=1S/C14H26OSi/c1-11-9-12(10-16(2,3)4)14(11)8-6-5-7-13(14)15/h11-12H,5-10H2,1-4H3
computed SMILES=O=C1CCCCC12C(C)CC2C[Si](C)(C)C
accession=JP002276
date=2016.01.19 (Created 2008.10.21, modified 2011.05.06)
author=MASS SPECTROSCOPY SOC. OF JAPAN (MSSJ)
license=CC BY-NC-SA
exact mass=238.17529
ionization energy=70 eV
ion type=[M]+*
computed spectral entropy=2.744115893461907
computed normalized entropy=0.791784478224416
SPLASH=splash10-00b9-7900000000-37e4f3f93902d95ad424
submitter=submitter = University of Tokyo Team (Faculty of Engineering, University of Tokyo)
MoNA Rating=3.75

>  <NUM PEAKS>  (4997) 
32

>  <MASS SPECTRAL PEAKS>  (4997) 
42 5.35
43 3.5
45 8.35
55 5.11
59 10.28
67 4.82
73 82.39
74 7.19
75 20.18
77 3.68
79 6.46
81 4.98
91 7.12
93 4.16
105 7.3
106 3.2
107 3.72
111 5.42
119 3.02
125 99.99
126 9.58
133 5
146 3.14
147 5.48
148 5.17
170 4.27
183 22.23
184 3.45
197 31.85
198 5.87
223 6.92
238 9.57

>  <PREDICTED SPECTRUM>  (4997) 
41 82
43 4
45 193
53 85
55 121
59 240
61 27
65 4
66 14
67 208
69 22
73 999
74 199
75 481
76 93
77 113
78 28
79 176
80 19
81 195
83 173
84 25
91 194
92 32
93 220
95 149
96 20
97 114
98 79
99 65
105 232
106 112
107 120
111 186
112 108
113 17
121 12
123 6
124 2
125 564
126 184
127 85
129 107
133 30
142 25
148 147
151 14
153 42
155 152
156 22
167 11
169 55
170 48
171 21
181 15
182 63
183 279
184 95
195 132
196 56
197 415
198 177
210 38
223 187
224 33
238 238
239 98
240 5

$$$$

     RDKit          2D

 16 16  0  0  0  0  0  0  0  0999 V2000
   -3.3344    0.6443    0.0000 C   0  0  0  0  0  0  0  0  0  0  0  0
   -0.7363    0.6443    0.0000 C   0  0  0  0  0  0  0  0  0  0  0  0
   -5.3834    4.1934    0.0000 C   0  0  0  0  0  0  0  0  0  0  0  0
   -5.9324    2.1443    0.0000 C   0  0  0  0  0  0  0  0  0  0  0  0
   -3.8834    1.5953    0.0000 C   0  0  0  0  0  0  0  0  0  0  0  0
    3.1608    1.3943    0.0000 C   0  0  0  0  0  0  0  0  0  0  0  0
    3.1613    2.8952    0.0000 C   0  0  0  0  0  0  0  0  0  0  0  0
    1.8613    0.6435    0.0000 C   0  0  0  0  0  0  0  0  0  0  0  0
    1.8623    3.6452    0.0000 C   0  0  0  0  0  0  0  0  0  0  0  0
    0.5623    1.3935    0.0000 C   0  0  0  0  0  0  0  0  0  0  0  0
   -0.7363    3.6443    0.0000 C   0  0  0  0  0  0  0  0  0  0  0  0
   -2.0353    1.3943    0.0000 C   0  0  0  0  0  0  0  0  0  0  0  0
    0.5627    2.8943    0.0000 C   0  0  0  0  0  0  0  0  0  0  0  0
   -2.0353    2.8943    0.0000 C   0  0  0  0  0  0  0  0  0  0  0  0
   -3.3344    3.6443    0.0000 O   0  0  0  0  0  0  0  0  0  0  0  0
   -4.6334    2.8943    0.0000 Si  0  0  0  0  0  4  0  0  0  0  0  0
  7  6  2  0
  8  6  1  0
  9  7  1  0
 10  8  2  0
 12  1  1  0
 12  2  1  0
 13  9  2  0
 13 10  1  0
 13 11  1  0
 14 11  1  0
 14 12  2  0
 15 14  1  0
 16  3  1  0
 16  4  1  0
 16  5  1  0
 16 15  1  0
M  END
>  <NAME>  (4998) 
3-METHYL-1-PHENYL-2-TRIMETHYLSILOXY-2-BUTENE

>  <SYNONYMS>  (4998) 


>  <SPECTRUM TYPE>  (4998) 
MS1

>  <INSTRUMENT TYPE>  (4998) 
EI-B

>  <INSTRUMENT>  (4998) 
JEOL JMS-D-300

>  <ION MODE>  (4998) 
P

>  <INCHIKEY>  (4998) 
WKPXIXBVMCGQPV-UHFFFAOYSA-N

>  <FORMULA>  (4998) 
C14H22OSi

>  <EXACT MASS>  (4998) 
234.143991854

>  <MW>  (4998) 
234

>  <ID>  (4998) 
JP002275

>  <CONTRIBUTOR>  (4998) 
University of Tokyo Team, {Faculty of Engineering, University of Tokyo

>  <COMMENT>  (4998) 
SMILES=CC(C)=C(Cc(c1)cccc1)O[Si](C)(C)C
InChI=InChI=1S/C14H22OSi/c1-12(2)14(15-16(3,4)5)11-13-9-7-6-8-10-13/h6-10H,11H2,1-5H3
computed SMILES=O(C(=C(C)C)CC=1C=CC=CC1)[Si](C)(C)C
accession=JP002275
date=2016.01.19 (Created 2008.10.21, modified 2011.05.06)
author=MASS SPECTROSCOPY SOC. OF JAPAN (MSSJ)
license=CC BY-NC-SA
exact mass=234.14399
ionization energy=70 eV
ion type=[M]+*
computed spectral entropy=2.5781141181565723
computed normalized entropy=0.7580019119315725
SPLASH=splash10-00fr-9220000000-2cfbbc878ae8ffd019f3
submitter=submitter = University of Tokyo Team (Faculty of Engineering, University of Tokyo)
MoNA Rating=3.75

>  <NUM PEAKS>  (4998) 
30

>  <MASS SPECTRAL PEAKS>  (4998) 
42 6.07
43 3.68
45 16.18
47 3.05
59 4.35
61 2.01
65 3.01
73 99.99
74 8.8
75 54.61
76 4.13
77 3.43
91 0.99
105 5.25
115 2.61
128 3.85
129 11.27
130 2.47
135 2.64
141 3.39
143 11.25
144 2.94
145 5.95
163 1.85
177 5.89
219 16.66
220 3.32
234 36.72
235 7.79
236 2.1

>  <PREDICTED SPECTRUM>  (4998) 
15 5
27 58
29 51
31 19
39 59
41 48
43 299
44 100
45 385
46 39
47 110
50 24
51 83
52 28
53 88
55 78
57 55
58 86
59 243
60 24
61 64
63 39
64 2
65 132
66 6
69 9
71 5
72 24
73 999
74 280
75 580
76 149
77 84
78 66
85 25
89 7
91 381
92 88
93 44
99 17
102 7
104 58
105 110
115 91
116 7
127 104
128 108
129 230
130 91
135 147
141 177
142 67
143 522
144 316
145 179
146 47
147 1
177 178
178 66
191 50
201 34
203 33
217 61
218 5
219 450
220 215
221 79
234 652
235 299
236 155
237 11

$$$$

     RDKit          2D

 15 15  0  0  0  0  0  0  0  0999 V2000
    9.0942    0.7512    0.0000 C   0  0  0  0  0  0  0  0  0  0  0  0
    7.7948    3.0010    0.0000 C   0  0  0  0  0  0  0  0  0  0  0  0
   -2.5989   -1.5002    0.0000 C   0  0  0  0  0  0  0  0  0  0  0  0
    5.1970    1.5006    0.0000 C   0  0  0  0  0  0  0  0  0  0  0  0
    6.4962    0.7508    0.0000 C   0  0  0  0  0  0  0  0  0  0  0  0
    3.8981    0.7504    0.0000 C   0  0  0  0  0  0  0  0  0  0  0  0
   -1.3000    0.7500    0.0000 C   0  0  0  0  0  0  0  0  0  0  0  0
   -0.0000   -1.5000    0.0000 C   0  0  0  0  0  0  0  0  0  0  0  0
    0.0000    1.5000    0.0000 C   0  0  0  0  0  0  0  0  0  0  0  0
    1.3000   -0.7500    0.0000 C   0  0  0  0  0  0  0  0  0  0  0  0
    7.7951    1.5010    0.0000 C   0  0  0  0  0  0  0  0  0  0  0  0
   -1.3000   -0.7500    0.0000 C   0  0  0  0  0  0  0  0  0  0  0  0
    1.3000    0.7500    0.0000 C   0  0  0  0  0  0  0  0  0  0  0  0
    2.5989    1.5002    0.0000 C   0  0  0  0  0  0  0  0  0  0  0  0
    2.5987    3.0002    0.0000 O   0  0  0  0  0  0  0  0  0  0  0  0
  5  4  1  0
  6  4  1  0
  9  7  1  0
 10  8  1  0
 11  1  1  0
 11  2  1  0
 11  5  2  0
 12  3  1  0
 12  7  2  0
 12  8  1  0
 13  9  1  0
 13 10  1  0
 14  6  1  0
 14 13  1  0
 15 14  2  0
M  END
>  <NAME>  (4999) 
4-METHYL-3-CYCLOHEXENYL 4-METHYL-3-PENTENYL KETONE

>  <SYNONYMS>  (4999) 


>  <SPECTRUM TYPE>  (4999) 
MS1

>  <INSTRUMENT TYPE>  (4999) 
EI-B

>  <INSTRUMENT>  (4999) 
JEOL JMS-D-3000

>  <ION MODE>  (4999) 
P

>  <INCHIKEY>  (4999) 
BUSKKOPCEZGTQK-UHFFFAOYSA-N

>  <FORMULA>  (4999) 
C14H22O

>  <EXACT MASS>  (4999) 
206.167065324

>  <MW>  (4999) 
206

>  <ID>  (4999) 
JP002274

>  <CONTRIBUTOR>  (4999) 
University of Tokyo Team, {Faculty of Engineering, University of Tokyo

>  <COMMENT>  (4999) 
SMILES=CC(C)=CCCC(=O)C(C1)CC=C(C)C1
InChI=InChI=1S/C14H22O/c1-11(2)5-4-6-14(15)13-9-7-12(3)8-10-13/h5,7,13H,4,6,8-10H2,1-3H3
computed SMILES=O=C(CCC=C(C)C)C1CC=C(C)CC1
accession=JP002274
date=2016.01.19 (Created 2008.10.21, modified 2011.05.06)
author=MASS SPECTROSCOPY SOC. OF JAPAN (MSSJ)
license=CC BY-NC-SA
exact mass=206.16707
ionization energy=70 eV
ion type=[M]+*
computed spectral entropy=2.9589142006097884
computed normalized entropy=0.9081726603492922
SPLASH=splash10-066v-9200000000-ed9e7e18148415178917
submitter=submitter = University of Tokyo Team (Faculty of Engineering, University of Tokyo)
MoNA Rating=3.75

>  <NUM PEAKS>  (4999) 
26

>  <MASS SPECTRAL PEAKS>  (4999) 
41 70.06
43 20.68
53 13.74
55 46.86
56 10.35
67 29.45
69 99.99
70 8.96
77 9.99
79 24.12
81 13.59
82 10.33
83 20.02
93 18.34
94 39.95
95 80.77
96 11.02
109 14.15
111 27.73
121 14.66
123 43.59
136 14.4
137 9.76
149 10.22
206 48.62
207 9.01

>  <PREDICTED SPECTRUM>  (4999) 
25 2
26 31
27 232
28 55
29 232
37 0
38 56
39 445
40 207
41 999
42 282
43 655
44 125
45 5
50 123
51 286
52 207
53 571
54 247
55 638
56 137
57 220
58 13
59 29
63 101
64 77
65 358
66 233
67 589
68 432
69 954
70 182
71 232
72 35
76 3
77 551
78 260
79 601
80 440
81 598
82 229
83 269
84 105
85 78
89 71
91 530
92 449
93 977
94 355
95 494
96 189
97 86
99 0
103 133
104 81
105 419
106 202
107 674
108 352
109 406
110 187
111 262
112 76
117 206
118 25
119 208
120 163
121 665
122 216
123 329
124 110
125 17
131 76
132 116
133 144
134 217
135 300
136 617
137 325
138 174
145 154
148 107
149 142
150 87
162 61
163 437
164 197
165 2
188 32
189 85
191 166
192 19
206 558
207 200

$$$$

     RDKit          2D

 16 16  0  0  0  0  0  0  0  0999 V2000
   -7.4692    4.2571    0.0000 C   0  0  0  0  0  0  0  0  0  0  0  0
   -3.5721    6.5071    0.0000 C   0  0  0  0  0  0  0  0  0  0  0  0
   -6.1702    3.5071    0.0000 C   0  0  0  0  0  0  0  0  0  0  0  0
   -4.8712    4.2571    0.0000 C   0  0  0  0  0  0  0  0  0  0  0  0
    4.2221    2.0071    0.0000 C   0  0  0  0  0  0  0  0  0  0  0  0
    4.2226    3.5079    0.0000 C   0  0  0  0  0  0  0  0  0  0  0  0
    2.9226    1.2563    0.0000 C   0  0  0  0  0  0  0  0  0  0  0  0
    2.9236    4.2579    0.0000 C   0  0  0  0  0  0  0  0  0  0  0  0
    1.6236    2.0063    0.0000 C   0  0  0  0  0  0  0  0  0  0  0  0
   -3.5721    3.5071    0.0000 C   0  0  0  0  0  0  0  0  0  0  0  0
   -0.9740    3.5071    0.0000 C   0  0  0  0  0  0  0  0  0  0  0  0
    1.6240    3.5071    0.0000 C   0  0  0  0  0  0  0  0  0  0  0  0
   -2.2731    4.2571    0.0000 C   0  0  0  0  0  0  0  0  0  0  0  0
    0.3250    4.2571    0.0000 C   0  0  0  0  0  0  0  0  0  0  0  0
    0.3250    5.7571    0.0000 O   0  0  0  0  0  0  0  0  0  0  0  0
   -2.2731    5.7571    0.0000 O   0  0  0  0  0  0  0  0  0  0  0  0
  3  1  1  0
  4  3  1  0
  6  5  2  0
  7  5  1  0
  8  6  1  0
  9  7  2  0
 10  4  1  0
 12  8  2  0
 12  9  1  0
 13 10  1  0
 13 11  1  0
 14 11  1  0
 14 12  1  0
 15 14  2  0
 16  2  1  0
 16 13  1  0
M  END
>  <NAME>  (5000) 
3-METHOXYHEPTANOPHENONE

>  <SYNONYMS>  (5000) 
3-METHOXY-1-PHENYL-1-HEPTANONE

>  <SPECTRUM TYPE>  (5000) 
MS1

>  <INSTRUMENT TYPE>  (5000) 
EI-B

>  <INSTRUMENT>  (5000) 
JEOL JMS-D-3000

>  <ION MODE>  (5000) 
P

>  <INCHIKEY>  (5000) 
JOWQOLYPYCSOFE-UHFFFAOYSA-N

>  <FORMULA>  (5000) 
C14H20O2

>  <EXACT MASS>  (5000) 
220.14632988

>  <MW>  (5000) 
220

>  <ID>  (5000) 
JP002273

>  <CONTRIBUTOR>  (5000) 
University of Tokyo Team, {Faculty of Engineering, University of Tokyo

>  <COMMENT>  (5000) 
SMILES=CCCCC(OC)CC(=O)c(c1)cccc1
InChI=InChI=1S/C14H20O2/c1-3-4-10-13(16-2)11-14(15)12-8-6-5-7-9-12/h5-9,13H,3-4,10-11H2,1-2H3
computed SMILES=O=C(C=1C=CC=CC1)CC(OC)CCCC
accession=JP002273
date=2016.01.19 (Created 2008.10.21, modified 2011.05.06)
author=MASS SPECTROSCOPY SOC. OF JAPAN (MSSJ)
license=CC BY-NC-SA
exact mass=220.14633
ionization energy=70 eV
ion type=[M]+*
computed spectral entropy=2.8011815437067304
computed normalized entropy=0.7543091916330309
SPLASH=splash10-0a4i-4900000000-18d2d006ac8ce13e8a03
submitter=submitter = University of Tokyo Team (Faculty of Engineering, University of Tokyo)
MoNA Rating=3.75

>  <NUM PEAKS>  (5000) 
41

>  <MASS SPECTRAL PEAKS>  (5000) 
41 7.57
43 2.41
44 3.38
45 8.11
50 1.59
51 7.33
55 5.52
57 2.76
58 1.27
69 9.27
71 3.64
76 1.62
77 31.76
78 3.19
81 1.97
85 5.29
91 2.76
100 1.98
101 6.58
105 99.99
106 8.37
111 2.49
115 1.93
117 1.59
120 5.26
131 2.81
132 1.43
133 2.32
134 1.82
145 3.91
146 1.22
157 3.42
159 6.61
163 12.17
164 1.51
182 1.95
184 1.53
188 11.99
189 2.28
205 3.86
220 1.18

>  <PREDICTED SPECTRUM>  (5000) 
27 61
29 85
38 1
39 91
40 27
41 160
42 72
43 98
44 23
45 68
50 89
51 262
52 55
53 72
54 31
55 125
56 69
57 122
59 7
61 10
63 11
65 68
66 8
67 34
68 24
69 99
70 4
71 56
74 37
75 88
76 41
77 540
78 157
79 51
83 74
85 41
89 42
90 5
91 126
92 22
100 22
101 87
102 68
103 62
104 1
105 999
106 275
107 17
109 8
110 13
115 71
117 48
119 12
120 148
129 23
130 49
131 164
132 97
133 102
145 130
146 106
157 0
158 93
159 105
163 326
164 77
173 58
174 1
187 15
188 157
189 105
205 11
220 3

$$$$

     RDKit          2D

 16 16  0  0  0  0  0  0  0  0999 V2000
   -6.8197    3.1321    0.0000 C   0  0  0  0  0  0  0  0  0  0  0  0
   -5.5207    5.3821    0.0000 C   0  0  0  0  0  0  0  0  0  0  0  0
   -4.2216    6.1321    0.0000 C   0  0  0  0  0  0  0  0  0  0  0  0
    3.5726    1.6321    0.0000 C   0  0  0  0  0  0  0  0  0  0  0  0
    3.5731    3.1329    0.0000 C   0  0  0  0  0  0  0  0  0  0  0  0
    2.2731    0.8813    0.0000 C   0  0  0  0  0  0  0  0  0  0  0  0
    2.2740    3.8829    0.0000 C   0  0  0  0  0  0  0  0  0  0  0  0
    0.9740    1.6313    0.0000 C   0  0  0  0  0  0  0  0  0  0  0  0
   -4.2216    3.1321    0.0000 C   0  0  0  0  0  0  0  0  0  0  0  0
   -1.6236    3.1321    0.0000 C   0  0  0  0  0  0  0  0  0  0  0  0
   -5.5207    3.8821    0.0000 C   0  0  0  0  0  0  0  0  0  0  0  0
    0.9745    3.1321    0.0000 C   0  0  0  0  0  0  0  0  0  0  0  0
   -2.9226    3.8821    0.0000 C   0  0  0  0  0  0  0  0  0  0  0  0
   -0.3245    3.8821    0.0000 C   0  0  0  0  0  0  0  0  0  0  0  0
   -0.3245    5.3821    0.0000 O   0  0  0  0  0  0  0  0  0  0  0  0
   -2.9226    5.3821    0.0000 O   0  0  0  0  0  0  0  0  0  0  0  0
  5  4  2  0
  6  4  1  0
  7  5  1  0
  8  6  2  0
 11  1  1  0
 11  2  1  0
 11  9  1  0
 12  7  2  0
 12  8  1  0
 13  9  1  0
 13 10  1  0
 14 10  1  0
 14 12  1  0
 15 14  2  0
 16  3  1  0
 16 13  1  0
M  END
>  <NAME>  (5001) 
3-METHOXY-5-METHYLHEXANOPHENONE

>  <SYNONYMS>  (5001) 
3-METHOXY-5-METHYL-1-PHENYL-1-HEXANONE

>  <SPECTRUM TYPE>  (5001) 
MS1

>  <INSTRUMENT TYPE>  (5001) 
EI-B

>  <INSTRUMENT>  (5001) 
JEOL JMS-D-3000

>  <ION MODE>  (5001) 
P

>  <INCHIKEY>  (5001) 
BKZPFDYLUSKCEG-UHFFFAOYSA-N

>  <FORMULA>  (5001) 
C14H20O2

>  <EXACT MASS>  (5001) 
220.14632988

>  <MW>  (5001) 
220

>  <ID>  (5001) 
JP002272

>  <CONTRIBUTOR>  (5001) 
University of Tokyo Team, {Faculty of Engineering, University of Tokyo

>  <COMMENT>  (5001) 
SMILES=COC(CC(C)C)CC(=O)c(c1)cccc1
InChI=InChI=1S/C14H20O2/c1-11(2)9-13(16-3)10-14(15)12-7-5-4-6-8-12/h4-8,11,13H,9-10H2,1-3H3
computed SMILES=O=C(C=1C=CC=CC1)CC(OC)CC(C)C
accession=JP002272
date=2016.01.19 (Created 2008.10.21, modified 2011.05.06)
author=MASS SPECTROSCOPY SOC. OF JAPAN (MSSJ)
license=CC BY-NC-SA
exact mass=220.14633
ionization energy=70 eV
ion type=[M]+*
computed spectral entropy=2.7392843076764453
computed normalized entropy=0.7704686743184572
SPLASH=splash10-0a4i-5900000000-cb5f463ce5c9b8a512ed
submitter=submitter = University of Tokyo Team (Faculty of Engineering, University of Tokyo)
MoNA Rating=3.75

>  <NUM PEAKS>  (5001) 
35

>  <MASS SPECTRAL PEAKS>  (5001) 
41 7.58
43 8.36
45 7.53
50 1.33
51 6.05
55 3.72
57 3.95
58 1.78
59 6.67
69 11.93
71 1.62
76 1.32
77 27.28
78 2.7
85 11.73
91 1.9
100 2.01
101 7.85
105 99.99
106 8.38
115 1.33
117 1.65
120 5.88
131 2.73
132 1.36
133 4.82
145 8.53
146 4.89
163 13.04
164 1.55
173 3.07
188 10.13
189 1.68
205 4.65
220 1.28

>  <PREDICTED SPECTRUM>  (5001) 
27 45
29 57
38 18
39 98
40 37
41 192
42 87
43 205
44 53
45 68
50 85
51 266
52 41
53 84
54 9
55 116
56 39
57 95
59 37
65 73
66 18
67 60
68 16
69 142
70 8
71 15
74 22
75 62
76 26
77 520
78 153
79 58
83 79
85 186
89 12
91 176
92 3
93 8
97 3
100 41
101 80
102 59
103 114
104 76
105 999
106 267
109 18
111 22
115 67
117 62
118 56
119 121
120 139
129 8
130 46
131 158
132 86
133 46
135 20
136 6
143 23
144 34
145 248
146 170
161 10
163 312
164 100
173 118
174 30
188 189
189 154
205 69

$$$$

     RDKit          2D

 15 15  0  0  0  0  0  0  0  0999 V2000
   -6.8197    3.1321    0.0000 C   0  0  0  0  0  0  0  0  0  0  0  0
   -2.9226    0.8821    0.0000 C   0  0  0  0  0  0  0  0  0  0  0  0
   -5.5207    3.8821    0.0000 C   0  0  0  0  0  0  0  0  0  0  0  0
   -4.2216    3.1321    0.0000 C   0  0  0  0  0  0  0  0  0  0  0  0
    3.5726    1.6321    0.0000 C   0  0  0  0  0  0  0  0  0  0  0  0
    3.5731    3.1329    0.0000 C   0  0  0  0  0  0  0  0  0  0  0  0
    2.2731    0.8813    0.0000 C   0  0  0  0  0  0  0  0  0  0  0  0
    2.2740    3.8829    0.0000 C   0  0  0  0  0  0  0  0  0  0  0  0
    0.9740    1.6313    0.0000 C   0  0  0  0  0  0  0  0  0  0  0  0
   -2.9226    3.8821    0.0000 C   0  0  0  0  0  0  0  0  0  0  0  0
   -0.3245    3.8821    0.0000 C   0  0  0  0  0  0  0  0  0  0  0  0
   -1.6236    1.6321    0.0000 C   0  0  0  0  0  0  0  0  0  0  0  0
    0.9745    3.1321    0.0000 C   0  0  0  0  0  0  0  0  0  0  0  0
   -1.6236    3.1321    0.0000 C   0  0  0  0  0  0  0  0  0  0  0  0
   -0.3245    0.8821    0.0000 O   0  0  0  0  0  0  0  0  0  0  0  0
  3  1  1  0
  4  3  1  0
  6  5  2  0
  7  5  1  0
  8  6  1  0
  9  7  2  0
 10  4  1  0
 12  2  1  0
 13  8  2  0
 13  9  1  0
 13 11  1  0
 14 10  1  0
 14 11  1  0
 14 12  1  0
 15 12  2  0
M  END
>  <NAME>  (5002) 
3-BENZYL-2-HEPTANONE

>  <SYNONYMS>  (5002) 


>  <SPECTRUM TYPE>  (5002) 
MS1

>  <INSTRUMENT TYPE>  (5002) 
EI-B

>  <INSTRUMENT>  (5002) 
JEOL JMS-D-3000

>  <ION MODE>  (5002) 
P

>  <INCHIKEY>  (5002) 
DQQOAEDWHZWPBO-UHFFFAOYSA-N

>  <FORMULA>  (5002) 
C14H20O

>  <EXACT MASS>  (5002) 
204.15141526

>  <MW>  (5002) 
204

>  <ID>  (5002) 
JP002271

>  <CONTRIBUTOR>  (5002) 
University of Tokyo Team, {Faculty of Engineering, University of Tokyo

>  <COMMENT>  (5002) 
SMILES=CCCCC(C(C)=O)Cc(c1)cccc1
InChI=InChI=1S/C14H20O/c1-3-4-10-14(12(2)15)11-13-8-6-5-7-9-13/h5-9,14H,3-4,10-11H2,1-2H3
computed SMILES=O=C(C)C(CC=1C=CC=CC1)CCCC
accession=JP002271
date=2016.01.19 (Created 2008.10.21, modified 2011.05.06)
author=MASS SPECTROSCOPY SOC. OF JAPAN (MSSJ)
license=CC BY-NC-SA
exact mass=204.15142
ionization energy=70 eV
ion type=[M]+*
computed spectral entropy=2.353129561962776
computed normalized entropy=0.7061780136174928
SPLASH=splash10-0005-7900000000-2fabac8b7786a1c2d99e
submitter=submitter = University of Tokyo Team (Faculty of Engineering, University of Tokyo)
MoNA Rating=3.75

>  <NUM PEAKS>  (5002) 
28

>  <MASS SPECTRAL PEAKS>  (5002) 
41 6.66
43 34.67
51 1.85
55 3.69
57 1.62
65 7.19
71 2.28
77 3.24
78 2.63
79 1.59
85 2.28
91 96.12
92 9.55
103 2.03
104 5.13
105 13.08
115 3.38
117 6.75
119 2.82
129 6.74
133 3.54
143 1.55
147 99.99
148 43.76
149 4.74
161 4.13
189 2.24
204 6.63

>  <PREDICTED SPECTRUM>  (5002) 
27 75
29 122
39 137
40 28
41 292
43 536
45 55
50 15
51 134
52 41
53 118
55 144
57 63
58 44
63 32
65 205
66 8
67 3
69 84
71 110
77 164
78 142
79 120
85 78
91 904
92 278
93 10
102 17
103 48
104 44
105 210
106 62
115 149
116 1
117 247
118 44
119 58
120 18
129 32
130 19
131 52
133 11
145 95
146 104
147 999
148 555
149 139
161 78
162 51
189 59
204 348
205 125
206 3

$$$$

     RDKit          2D

 15 15  0  0  0  0  0  0  0  0999 V2000
    4.8721    3.8829    0.0000 C   0  0  0  0  0  0  0  0  0  0  0  0
    3.5731    3.1329    0.0000 C   0  0  0  0  0  0  0  0  0  0  0  0
    2.2740    3.8829    0.0000 C   0  0  0  0  0  0  0  0  0  0  0  0
   -8.1183    5.3829    0.0000 C   0  0  0  0  0  0  0  0  0  0  0  0
    0.9750    3.1329    0.0000 C   0  0  0  0  0  0  0  0  0  0  0  0
   -8.1187    3.8821    0.0000 C   0  0  0  0  0  0  0  0  0  0  0  0
   -6.8187    6.1337    0.0000 C   0  0  0  0  0  0  0  0  0  0  0  0
   -6.8197    3.1321    0.0000 C   0  0  0  0  0  0  0  0  0  0  0  0
   -5.5197    5.3837    0.0000 C   0  0  0  0  0  0  0  0  0  0  0  0
   -0.3240    3.8829    0.0000 C   0  0  0  0  0  0  0  0  0  0  0  0
   -4.2212    3.1329    0.0000 C   0  0  0  0  0  0  0  0  0  0  0  0
   -2.9221    3.8829    0.0000 C   0  0  0  0  0  0  0  0  0  0  0  0
   -5.5202    3.8829    0.0000 C   0  0  0  0  0  0  0  0  0  0  0  0
   -1.6231    3.1329    0.0000 C   0  0  0  0  0  0  0  0  0  0  0  0
   -1.6231    1.6329    0.0000 O   0  0  0  0  0  0  0  0  0  0  0  0
  2  1  1  0
  3  2  1  0
  5  3  1  0
  6  4  2  0
  7  4  1  0
  8  6  1  0
  9  7  2  0
 10  5  1  0
 12 11  1  0
 13  8  2  0
 13  9  1  0
 13 11  1  0
 14 10  1  0
 14 12  1  0
 15 14  2  0
M  END
>  <NAME>  (5003) 
1-PHENYL-3-OCTANONE

>  <SYNONYMS>  (5003) 


>  <SPECTRUM TYPE>  (5003) 
MS1

>  <INSTRUMENT TYPE>  (5003) 
EI-B

>  <INSTRUMENT>  (5003) 
JEOL JMS-D-3000

>  <ION MODE>  (5003) 
P

>  <INCHIKEY>  (5003) 
PMMNDSRSUDQZCC-UHFFFAOYSA-N

>  <FORMULA>  (5003) 
C14H20O

>  <EXACT MASS>  (5003) 
204.15141526

>  <MW>  (5003) 
204

>  <ID>  (5003) 
JP002270

>  <CONTRIBUTOR>  (5003) 
University of Tokyo Team, {Faculty of Engineering, University of Tokyo

>  <COMMENT>  (5003) 
SMILES=CCCCCC(=O)CCc(c1)cccc1
InChI=InChI=1S/C14H20O/c1-2-3-5-10-14(15)12-11-13-8-6-4-7-9-13/h4,6-9H,2-3,5,10-12H2,1H3
computed SMILES=O=C(CCC=1C=CC=CC1)CCCCC
ionization energy=70 eV
accession=JP002270
date=2016.01.19 (Created 2008.10.21, modified 2011.05.06)
author=MASS SPECTROSCOPY SOC. OF JAPAN (MSSJ)
license=CC BY-NC-SA
exact mass=204.15142
ion type=[M]+*
computed spectral entropy=2.9245643552847396
computed normalized entropy=0.8873510656582655
SPLASH=splash10-0006-9400000000-1878c561a8c244284d9d
submitter=submitter = University of Tokyo Team (Faculty of Engineering, University of Tokyo)
MoNA Rating=3.75

>  <NUM PEAKS>  (5003) 
27

>  <MASS SPECTRAL PEAKS>  (5003) 
41 23.22
42 5.27
43 99.99
44 5.12
51 11.61
55 16.28
65 12.51
71 47.2
77 21.26
78 9.8
79 10.4
80 16.13
81 18.7
82 5.58
91 98.34
92 10.55
99 40.42
103 16.13
104 32.12
105 78.12
106 8.59
130 26.24
131 19.6
133 30.92
146 7.54
148 21.11
204 11.01

>  <PREDICTED SPECTRUM>  (5003) 
18 17
25 2
26 39
27 195
28 90
29 154
30 35
31 0
38 32
39 264
40 102
41 433
42 190
43 795
44 287
45 7
49 16
50 178
51 314
52 183
53 170
54 49
55 361
56 64
57 237
58 11
61 10
62 68
63 222
64 77
65 357
66 104
67 42
69 113
71 451
72 281
73 123
74 36
75 57
76 75
77 458
78 343
79 349
80 48
81 43
82 1
83 17
89 152
91 999
92 326
93 16
96 7
99 391
100 149
101 4
102 68
103 242
104 455
105 910
106 428
107 98
113 41
114 30
115 103
116 26
117 68
119 20
126 50
130 231
131 271
132 93
133 730
134 196
147 11
148 390
149 201
161 42
162 61
175 43
204 361
205 142
206 6

$$$$

     RDKit          2D

 15 15  0  0  0  0  0  0  0  0999 V2000
   -7.4692    4.2571    0.0000 C   0  0  0  0  0  0  0  0  0  0  0  0
   -4.8712    5.7571    0.0000 C   0  0  0  0  0  0  0  0  0  0  0  0
   -6.1702    3.5071    0.0000 C   0  0  0  0  0  0  0  0  0  0  0  0
    4.2221    2.0071    0.0000 C   0  0  0  0  0  0  0  0  0  0  0  0
    4.2226    3.5079    0.0000 C   0  0  0  0  0  0  0  0  0  0  0  0
    2.9226    1.2563    0.0000 C   0  0  0  0  0  0  0  0  0  0  0  0
    2.9236    4.2579    0.0000 C   0  0  0  0  0  0  0  0  0  0  0  0
    1.6236    2.0063    0.0000 C   0  0  0  0  0  0  0  0  0  0  0  0
    0.3250    4.2571    0.0000 C   0  0  0  0  0  0  0  0  0  0  0  0
   -0.9740    3.5071    0.0000 C   0  0  0  0  0  0  0  0  0  0  0  0
   -3.5721    3.5071    0.0000 C   0  0  0  0  0  0  0  0  0  0  0  0
   -4.8712    4.2571    0.0000 C   0  0  0  0  0  0  0  0  0  0  0  0
    1.6240    3.5071    0.0000 C   0  0  0  0  0  0  0  0  0  0  0  0
   -2.2731    4.2571    0.0000 C   0  0  0  0  0  0  0  0  0  0  0  0
   -2.2731    5.7571    0.0000 O   0  0  0  0  0  0  0  0  0  0  0  0
  3  1  2  0
  5  4  2  0
  6  4  1  0
  7  5  1  0
  8  6  2  0
 10  9  1  0
 12  2  2  0
 12  3  1  0
 12 11  1  0
 13  7  2  0
 13  8  1  0
 13  9  1  0
 14 10  1  0
 14 11  1  0
 15 14  1  0
M  END
>  <NAME>  (5004) 
5-METHYLENE-1-PHENYL-6-HEPTEN-3-OL

>  <SYNONYMS>  (5004) 


>  <SPECTRUM TYPE>  (5004) 
MS1

>  <INSTRUMENT TYPE>  (5004) 
EI-B

>  <INSTRUMENT>  (5004) 
JEOL JMS-D-3000

>  <ION MODE>  (5004) 
P

>  <INCHIKEY>  (5004) 
COBOTNFHQDSRRO-UHFFFAOYSA-N

>  <FORMULA>  (5004) 
C14H18O

>  <EXACT MASS>  (5004) 
202.135765196

>  <MW>  (5004) 
202

>  <ID>  (5004) 
JP002269

>  <CONTRIBUTOR>  (5004) 
University of Tokyo Team, {Faculty of Engineering, University of Tokyo

>  <COMMENT>  (5004) 
SMILES=C=CC(=C)CC(O)CCc(c1)cccc1
InChI=InChI=1S/C14H18O/c1-3-12(2)11-14(15)10-9-13-7-5-4-6-8-13/h3-8,14-15H,1-2,9-11H2
computed SMILES=OC(CC(=C)C=C)CCC=1C=CC=CC1
accession=JP002269
date=2016.01.19 (Created 2008.10.21, modified 2011.05.06)
author=MASS SPECTROSCOPY SOC. OF JAPAN (MSSJ)
license=CC BY-NC-SA
exact mass=202.13577
ionization energy=70 eV
ion type=[M]+*
computed spectral entropy=2.673360850502046
computed normalized entropy=0.73492715584313
SPLASH=splash10-0006-9300000000-c47834f182f475736c09
submitter=submitter = University of Tokyo Team (Faculty of Engineering, University of Tokyo)
MoNA Rating=3.75

>  <NUM PEAKS>  (5004) 
38

>  <MASS SPECTRAL PEAKS>  (5004) 
41 1.12
43 2.18
51 3.28
52 1.3
55 1.18
63 1.5
65 8.66
66 1.06
67 6.53
68 20.85
69 4.31
77 5.25
78 6.14
79 3.73
80 1.48
91 99.99
92 29.47
93 5.02
103 2
104 3.69
105 11.69
106 2.01
115 1.34
116 1.59
117 13.96
118 2.56
128 1.04
129 1.54
130 1.03
133 6.06
134 13.07
135 4
143 1.5
158 1.3
169 1.36
184 13.82
185 2.05
202 1.03

>  <PREDICTED SPECTRUM>  (5004) 
26 35
27 123
28 25
29 80
31 46
37 5
38 54
39 203
40 64
41 260
42 55
43 162
44 40
45 83
49 10
50 112
51 166
52 97
53 157
54 76
55 201
56 13
57 10
62 63
63 154
64 88
65 298
66 143
67 171
68 107
69 183
70 24
71 14
74 62
75 89
76 104
77 198
78 193
79 200
80 81
81 41
83 107
84 10
85 12
89 128
90 71
91 999
92 535
93 226
94 83
95 10
97 135
98 57
102 70
103 209
104 223
105 325
106 114
107 52
108 19
110 49
111 102
115 168
116 136
117 507
118 103
119 71
120 42
121 10
127 18
128 162
129 159
130 100
131 129
132 137
133 162
134 284
135 81
136 75
141 50
142 39
143 68
144 73
145 20
147 2
148 18
155 50
156 12
157 60
158 72
159 62
169 148
170 0
173 57
174 0
184 266
185 68
202 143
203 48

$$$$

     RDKit          2D

 15 16  0  0  0  0  0  0  0  0999 V2000
    2.5987   -1.5004    0.0000 C   0  0  0  0  0  0  0  0  0  0  0  0
   -7.7944   -0.0006    0.0000 C   0  0  0  0  0  0  0  0  0  0  0  0
   -7.7947   -1.5014    0.0000 C   0  0  0  0  0  0  0  0  0  0  0  0
   -6.4950    0.7505    0.0000 C   0  0  0  0  0  0  0  0  0  0  0  0
   -6.4955   -2.2512    0.0000 C   0  0  0  0  0  0  0  0  0  0  0  0
   -5.1959    0.0007    0.0000 C   0  0  0  0  0  0  0  0  0  0  0  0
   -3.8970   -2.2499    0.0000 C   0  0  0  0  0  0  0  0  0  0  0  0
   -2.5980   -1.4997    0.0000 C   0  0  0  0  0  0  0  0  0  0  0  0
    1.3002   -3.7512    0.0000 C   0  0  0  0  0  0  0  0  0  0  0  0
    0.0011   -4.5012    0.0000 C   0  0  0  0  0  0  0  0  0  0  0  0
    0.0001   -1.4995    0.0000 C   0  0  0  0  0  0  0  0  0  0  0  0
    1.2997   -2.2504    0.0000 C   0  0  0  0  0  0  0  0  0  0  0  0
   -5.1961   -1.5002    0.0000 C   0  0  0  0  0  0  0  0  0  0  0  0
   -1.2989   -2.2495    0.0000 C   0  0  0  0  0  0  0  0  0  0  0  0
   -1.2984   -3.7504    0.0000 O   0  0  0  0  0  0  0  0  0  0  0  0
  3  2  2  0
  4  2  1  0
  5  3  1  0
  6  4  2  0
  8  7  1  0
 10  9  1  0
 12  1  2  0
 12  9  1  0
 12 11  1  0
 13  5  2  0
 13  6  1  0
 13  7  1  0
 14  8  1  0
 14 11  1  0
 15 10  1  0
 15 14  1  0
M  END
>  <NAME>  (5005) 
4-METHYLENE-2-(2-PHENYLETHYL)-TETRAHYDROPYRAN

>  <SYNONYMS>  (5005) 


>  <SPECTRUM TYPE>  (5005) 
MS1

>  <INSTRUMENT TYPE>  (5005) 
EI-B

>  <INSTRUMENT>  (5005) 
JEOL JMS-D-3000

>  <ION MODE>  (5005) 
P

>  <INCHIKEY>  (5005) 
KMJUZEPIVYGWPT-UHFFFAOYSA-N

>  <FORMULA>  (5005) 
C14H18O

>  <EXACT MASS>  (5005) 
202.135765196

>  <MW>  (5005) 
202

>  <ID>  (5005) 
JP002268

>  <CONTRIBUTOR>  (5005) 
University of Tokyo Team, {Faculty of Engineering, University of Tokyo

>  <COMMENT>  (5005) 
SMILES=C=C(C2)CC(OC2)CCc(c1)cccc1
InChI=InChI=1S/C14H18O/c1-12-9-10-15-14(11-12)8-7-13-5-3-2-4-6-13/h2-6,14H,1,7-11H2
computed SMILES=O1CCC(=C)CC1CCC=2C=CC=CC2
accession=JP002268
date=2016.01.19 (Created 2008.10.21, modified 2011.05.06)
author=MASS SPECTROSCOPY SOC. OF JAPAN (MSSJ)
license=CC BY-NC-SA
exact mass=202.13577
ionization energy=70 eV
ion type=[M]+*
computed spectral entropy=2.867592138144247
computed normalized entropy=0.9145582612068335
SPLASH=splash10-0fr7-9310000000-57cf1474e950763659fa
submitter=submitter = University of Tokyo Team (Faculty of Engineering, University of Tokyo)
MoNA Rating=3.75

>  <NUM PEAKS>  (5005) 
23

>  <MASS SPECTRAL PEAKS>  (5005) 
43 18.49
53 27.49
65 20.43
67 63.74
68 18.24
69 14.11
77 13.62
78 19.95
79 12.4
91 92.21
92 93.43
93 19.95
97 99.99
98 12.16
104 44.52
105 21.41
111 21.89
117 66.42
124 28.46
134 19.7
157 22.38
202 83.94
203 16.05

>  <PREDICTED SPECTRUM>  (5005) 
26 42
27 178
28 35
29 173
30 36
31 70
37 14
38 64
39 310
40 124
41 430
42 148
43 370
44 110
45 135
46 26
50 151
51 254
52 175
53 228
54 134
55 230
56 60
57 120
58 70
59 60
62 59
63 181
64 91
65 377
66 127
67 285
68 218
69 286
70 118
71 185
73 25
74 86
75 105
76 76
77 347
78 302
79 372
80 151
81 201
82 83
83 171
84 97
85 109
86 63
87 68
89 112
90 15
91 999
92 537
93 195
94 35
95 134
96 67
97 341
98 269
99 139
100 80
101 66
102 117
103 264
104 522
105 488
106 150
109 31
110 83
111 299
112 123
113 82
114 35
115 296
116 174
117 351
118 20
119 7
126 31
127 11
128 158
129 202
130 254
131 239
132 76
134 35
141 68
142 115
143 106
144 87
145 24
155 11
156 68
157 46
158 32
170 43
173 52
174 15
187 5
201 16
202 195
203 42

$$$$

     RDKit          2D

 15 14  0  0  0  0  0  0  0  0999 V2000
    3.0748    5.9243    0.0000 C   0  0  0  0  0  0  0  0  0  0  0  0
   -9.9156    5.9243    0.0000 C   0  0  0  0  0  0  0  0  0  0  0  0
   -6.8664    3.3657    0.0000 C   0  0  0  0  0  0  0  0  0  0  0  0
   -4.7194    4.4243    0.0000 C   0  0  0  0  0  0  0  0  0  0  0  0
   -8.2817    4.7752    0.0000 C   0  0  0  0  0  0  0  0  0  0  0  0
    1.7758    6.6743    0.0000 C   0  0  0  0  0  0  0  0  0  0  0  0
   -8.6165    6.6743    0.0000 C   0  0  0  0  0  0  0  0  0  0  0  0
   -6.3533    4.7752    0.0000 C   0  0  0  0  0  0  0  0  0  0  0  0
    0.4767    5.9243    0.0000 C   0  0  0  0  0  0  0  0  0  0  0  0
   -0.8223    6.6743    0.0000 C   0  0  0  0  0  0  0  0  0  0  0  0
   -2.1214    5.9243    0.0000 C   0  0  0  0  0  0  0  0  0  0  0  0
   -3.4204    6.6743    0.0000 C   0  0  0  0  0  0  0  0  0  0  0  0
   -4.7194    5.9243    0.0000 C   0  0  0  0  0  0  0  0  0  0  0  0
   -6.0185    6.6743    0.0000 O   0  0  0  0  0  0  0  0  0  0  0  0
   -7.3175    5.9243    0.0000 Si  0  0  0  0  0  4  0  0  0  0  0  0
  6  1  1  0
  7  2  1  0
  8  3  1  0
  9  6  1  0
 10  9  1  0
 11 10  1  0
 12 11  1  0
 13  4  1  0
 13 12  1  0
 14 13  1  0
 15  5  1  0
 15  7  1  0
 15  8  1  0
 15 14  1  0
M  END
>  <NAME>  (5006) 
2-(METHYLDIETHYLSILOXY)OCTANE

>  <SYNONYMS>  (5006) 


>  <SPECTRUM TYPE>  (5006) 
MS1

>  <INSTRUMENT TYPE>  (5006) 
EI-B

>  <INSTRUMENT>  (5006) 
JEOL JMS-D-3000

>  <ION MODE>  (5006) 
P

>  <INCHIKEY>  (5006) 
AWUGSFXDDGKRQI-UHFFFAOYSA-N

>  <FORMULA>  (5006) 
C13H30OSi

>  <EXACT MASS>  (5006) 
230.20659211

>  <MW>  (5006) 
230

>  <ID>  (5006) 
JP002267

>  <CONTRIBUTOR>  (5006) 
University of Tokyo Team, {Faculty of Engineering, University of Tokyo

>  <COMMENT>  (5006) 
SMILES=CCCCCCC(C)O[Si](C)(CC)CC
InChI=InChI=1S/C13H30OSi/c1-6-9-10-11-12-13(4)14-15(5,7-2)8-3/h13H,6-12H2,1-5H3
computed SMILES=O(C(C)CCCCCC)[Si](C)(CC)CC
accession=JP002267
date=2016.01.19 (Created 2008.10.21, modified 2011.05.06)
author=MASS SPECTROSCOPY SOC. OF JAPAN (MSSJ)
license=CC BY-NC-SA
exact mass=230.20659
ionization energy=70 eV
ion type=[M]+*
computed spectral entropy=2.688868701720871
computed normalized entropy=0.8158379225185046
SPLASH=splash10-0f9i-9330000000-f6e80af48f3f498dfb5a
submitter=submitter = University of Tokyo Team (Faculty of Engineering, University of Tokyo)
MoNA Rating=3.75

>  <NUM PEAKS>  (5006) 
27

>  <MASS SPECTRAL PEAKS>  (5006) 
42 8.68
43 6.09
45 6.89
55 7.16
57 7.37
61 27.37
69 3.92
71 5.93
73 26.79
75 99.99
76 7.3
77 3.72
89 71.07
90 6.33
101 19.84
103 8.71
115 4.41
117 7.25
145 25.04
159 8.56
187 43.41
188 7.3
201 77.32
202 14.07
203 4.31
215 3.72
230 0.36

>  <PREDICTED SPECTRUM>  (5006) 
27 71
28 12
29 101
31 12
32 2
38 5
39 125
40 64
41 214
42 79
43 192
44 86
45 141
46 35
47 128
51 19
53 67
55 279
56 88
57 221
58 30
59 173
60 37
61 203
62 13
63 31
67 54
68 28
69 171
70 37
71 111
72 19
73 483
74 109
75 820
76 176
77 169
81 0
87 194
88 82
89 318
90 29
91 84
97 168
99 89
101 344
102 159
103 394
104 39
105 38
109 39
113 52
115 222
116 33
117 194
118 15
129 161
130 34
131 278
132 16
143 20
144 2
145 576
146 166
147 59
157 50
159 57
201 999
202 379
203 246
204 17
215 183
216 53

$$$$

     RDKit          2D

 15 15  0  0  0  0  0  0  0  0999 V2000
   -1.5890   -3.5800    0.0000 C   0  0  0  0  0  0  0  0  0  0  0  0
    1.0090   -3.5800    0.0000 C   0  0  0  0  0  0  0  0  0  0  0  0
   -0.2900    3.1700    0.0000 C   0  0  0  0  0  0  0  0  0  0  0  0
    4.3579   -1.8796    0.0000 C   0  0  0  0  0  0  0  0  0  0  0  0
    4.9072    0.1694    0.0000 C   0  0  0  0  0  0  0  0  0  0  0  0
    2.8583    0.7187    0.0000 C   0  0  0  0  0  0  0  0  0  0  0  0
   -1.5900    0.9200    0.0000 C   0  0  0  0  0  0  0  0  0  0  0  0
   -1.5900   -0.5800    0.0000 C   0  0  0  0  0  0  0  0  0  0  0  0
    1.0100    0.9200    0.0000 C   0  0  0  0  0  0  0  0  0  0  0  0
   -0.2900   -2.8300    0.0000 C   0  0  0  0  0  0  0  0  0  0  0  0
   -0.2900    1.6700    0.0000 C   0  0  0  0  0  0  0  0  0  0  0  0
   -0.2900   -1.3300    0.0000 C   0  0  0  0  0  0  0  0  0  0  0  0
    1.0100   -0.5800    0.0000 C   0  0  0  0  0  0  0  0  0  0  0  0
    2.3089   -1.3302    0.0000 O   0  0  0  0  0  0  0  0  0  0  0  0
    3.6081   -0.5804    0.0000 Si  0  0  0  0  0  4  0  0  0  0  0  0
  8  7  1  0
 10  1  1  0
 10  2  1  0
 11  3  1  0
 11  7  1  0
 11  9  1  0
 12  8  1  0
 12 10  1  0
 13  9  1  0
 13 12  1  0
 14 13  1  0
 15  4  1  0
 15  5  1  0
 15  6  1  0
 15 14  1  0
M  END
>  <NAME>  (5007) 
1-ISOPROPYL-4-METHYL-2-TRIMETHYLSILOXYCYCLOHEXANE

>  <SYNONYMS>  (5007) 
MENTHYLOXYTRIMETHYLSILANE

>  <SPECTRUM TYPE>  (5007) 
MS1

>  <INSTRUMENT TYPE>  (5007) 
EI-B

>  <INSTRUMENT>  (5007) 
JEOL JMS-D-3000

>  <ION MODE>  (5007) 
P

>  <INCHIKEY>  (5007) 
LDWGJYAAQHHQTJ-UHFFFAOYSA-N

>  <FORMULA>  (5007) 
C13H28OSi

>  <EXACT MASS>  (5007) 
228.19094204600003

>  <MW>  (5007) 
228

>  <ID>  (5007) 
JP002266

>  <CONTRIBUTOR>  (5007) 
University of Tokyo Team, {Faculty of Engineering, University of Tokyo

>  <COMMENT>  (5007) 
SMILES=CC(C1)CC(O[Si](C)(C)C)C(C1)C(C)C
InChI=InChI=1S/C13H28OSi/c1-10(2)12-8-7-11(3)9-13(12)14-15(4,5)6/h10-13H,7-9H2,1-6H3
computed SMILES=O(C1CC(C)CCC1C(C)C)[Si](C)(C)C
accession=JP002266
date=2016.01.19 (Created 2008.10.21, modified 2011.05.06)
author=MASS SPECTROSCOPY SOC. OF JAPAN (MSSJ)
license=CC BY-NC-SA
exact mass=228.19094
ionization energy=70 eV
ion type=[M]+*
computed spectral entropy=2.4073991171097364
computed normalized entropy=0.7677893663077114
SPLASH=splash10-0006-2920000000-a7165ffe2a728965e3c3
submitter=submitter = University of Tokyo Team (Faculty of Engineering, University of Tokyo)
MoNA Rating=3.75

>  <NUM PEAKS>  (5007) 
23

>  <MASS SPECTRAL PEAKS>  (5007) 
43 3.71
44 1.81
55 1.69
73 10.23
75 16.93
81 6.64
82 3.26
95 5.38
123 3.99
137 5.18
138 20.04
139 2.52
143 99.99
144 13.64
145 5.2
157 4.87
171 5.38
205 6.79
213 17.91
214 3.71
220 2.37
228 14.91
229 3.36

>  <PREDICTED SPECTRUM>  (5007) 
26 25
27 132
28 64
29 136
31 10
39 150
40 64
41 305
42 144
43 251
44 129
45 260
46 108
47 174
48 70
49 6
50 30
51 71
52 31
53 191
54 205
55 335
56 125
57 214
58 190
59 278
60 81
61 319
62 54
63 56
65 45
66 62
67 359
68 286
69 294
70 108
71 77
72 49
73 809
74 239
75 999
76 288
77 290
79 55
80 165
81 566
82 349
83 272
84 109
85 116
86 91
87 113
88 11
89 68
90 32
91 210
92 12
93 118
94 90
95 557
96 418
97 204
98 8
99 111
100 36
101 227
102 54
103 300
104 104
109 352
110 135
111 31
112 16
113 125
114 65
115 221
116 127
117 118
123 225
124 45
125 3
127 17
128 19
129 292
130 292
131 18
135 37
136 99
137 429
138 475
139 102
141 23
142 38
143 562
144 248
145 110
156 31
157 128
158 88
159 80
169 37
171 432
172 115
173 49
184 41
185 311
186 121
187 23
199 115
200 64
213 536
214 195
215 98
216 20
227 81
228 380
229 159
230 39

$$$$

     RDKit          2D

 15 16  0  0  0  0  0  0  0  0999 V2000
   -0.6759    1.4813    0.0000 C   0  0  0  0  0  0  0  0  0  0  0  0
   -0.6759   -2.3013    0.0000 C   0  0  0  0  0  0  0  0  0  0  0  0
    2.4475    2.5900    0.0000 C   0  0  0  0  0  0  0  0  0  0  0  0
    5.5811   -0.9618    0.0000 C   0  0  0  0  0  0  0  0  0  0  0  0
    7.6310   -0.4159    0.0000 C   0  0  0  0  0  0  0  0  0  0  0  0
    7.0850    1.6340    0.0000 C   0  0  0  0  0  0  0  0  0  0  0  0
    1.1450   -1.1600    0.0000 C   0  0  0  0  0  0  0  0  0  0  0  0
    1.1450    0.3400    0.0000 C   0  0  0  0  0  0  0  0  0  0  0  0
    3.7350   -1.1600    0.0000 C   0  0  0  0  0  0  0  0  0  0  0  0
    2.4450   -1.9100    0.0000 C   0  0  0  0  0  0  0  0  0  0  0  0
    3.7350    0.3400    0.0000 C   0  0  0  0  0  0  0  0  0  0  0  0
    1.5750   -0.4100    0.0000 C   0  0  0  0  0  0  0  0  0  0  0  0
    2.4450    1.0900    0.0000 C   0  0  0  0  0  0  0  0  0  0  0  0
    5.0352    1.0880    0.0000 O   0  0  0  0  0  0  0  0  0  0  0  0
    6.3331    0.3361    0.0000 Si  0  0  0  0  0  4  0  0  0  0  0  0
  8  7  1  0
 10  7  1  0
 10  9  1  0
 11  9  1  0
 12  1  1  0
 12  2  1  0
 12 10  1  0
 13  3  1  0
 13  8  1  0
 13 11  1  0
 13 12  1  0
 14 11  1  0
 15  4  1  0
 15  5  1  0
 15  6  1  0
 15 14  1  0
M  END
>  <NAME>  (5008) 
1,7,7-TRIMETHYL-2-TRIMETHYLSILOXYBICYCLO(2.2.1)HEPTANE

>  <SYNONYMS>  (5008) 
BORNYLOXYTRIMETHYLSILANE

>  <SPECTRUM TYPE>  (5008) 
MS1

>  <INSTRUMENT TYPE>  (5008) 
EI-B

>  <INSTRUMENT>  (5008) 
JEOL JMS-D-3000

>  <ION MODE>  (5008) 
P

>  <INCHIKEY>  (5008) 
RUVRGUBFCPLVCZ-UHFFFAOYSA-N

>  <FORMULA>  (5008) 
C13H26OSi

>  <EXACT MASS>  (5008) 
226.17529198199998

>  <MW>  (5008) 
226

>  <ID>  (5008) 
JP002265

>  <CONTRIBUTOR>  (5008) 
University of Tokyo Team, {Faculty of Engineering, University of Tokyo

>  <COMMENT>  (5008) 
SMILES=C[Si](C)(C)OC(C1)C(C)(C2)C(C)(C)C(C2)1
InChI=InChI=1S/C13H26OSi/c1-12(2)10-7-8-13(12,3)11(9-10)14-15(4,5)6/h10-11H,7-9H2,1-6H3
computed SMILES=O(C1CC2CCC1(C)C2(C)C)[Si](C)(C)C
accession=JP002265
date=2016.01.19 (Created 2008.10.21, modified 2011.05.06)
author=MASS SPECTROSCOPY SOC. OF JAPAN (MSSJ)
license=CC BY-NC-SA
exact mass=226.17529
ionization energy=70 eV
ion type=[M]+*
computed spectral entropy=2.984224416615456
computed normalized entropy=0.8955706072369936
SPLASH=splash10-0092-9810000000-cd46bc89adc2949ef09e
submitter=submitter = University of Tokyo Team (Faculty of Engineering, University of Tokyo)
MoNA Rating=3.75

>  <NUM PEAKS>  (5008) 
28

>  <MASS SPECTRAL PEAKS>  (5008) 
41 15.19
45 6.98
55 7.34
67 6.71
73 57.51
75 35.49
80 8.91
81 13.11
93 18.1
95 99.99
96 8.48
100 17.82
106 6.1
107 35.3
108 10.31
112 16.87
113 28.5
121 39.22
136 47.55
137 6.02
142 13.29
143 10.49
144 11.27
145 5.8
155 17.74
211 9.5
226 28.57
227 5.93

>  <PREDICTED SPECTRUM>  (5008) 
26 48
27 154
28 82
29 164
30 23
31 71
33 13
34 3
36 56
37 62
38 110
39 350
40 197
41 544
42 181
43 383
44 194
45 372
46 129
47 305
48 74
49 58
50 118
51 178
52 164
53 301
54 140
55 448
56 123
57 130
58 79
59 256
60 162
61 301
62 101
63 154
64 93
65 242
66 191
67 451
68 259
69 314
70 67
71 136
72 142
73 691
74 373
75 932
76 288
77 349
78 196
79 379
80 232
81 240
82 181
83 181
84 27
85 76
86 31
87 173
88 146
89 177
90 70
91 238
92 270
93 477
94 327
95 999
96 286
97 26
98 20
99 137
100 61
101 331
102 159
103 215
104 35
105 171
106 63
107 305
108 682
109 317
110 468
111 60
113 107
114 59
115 281
116 241
117 371
118 139
119 158
120 67
121 622
122 219
123 95
125 47
127 219
128 137
129 422
130 104
131 46
135 155
136 619
137 99
141 109
142 248
143 327
144 167
145 108
146 80
149 13
154 38
155 384
156 234
157 147
169 125
170 72
171 74
183 172
184 77
185 45
198 60
211 267
212 115
213 35
226 347
227 179
228 77
229 13

$$$$

     RDKit          2D

 16 16  0  0  0  0  0  0  0  0999 V2000
    4.8670    0.9406    0.0000 C   0  0  0  0  0  0  0  0  0  0  0  0
    3.5676    3.1904    0.0000 C   0  0  0  0  0  0  0  0  0  0  0  0
   -0.8850    4.4881    0.0000 C   0  0  0  0  0  0  0  0  0  0  0  0
   -2.9331    3.9356    0.0000 C   0  0  0  0  0  0  0  0  0  0  0  0
   -2.3806    1.8875    0.0000 C   0  0  0  0  0  0  0  0  0  0  0  0
   -1.6200   -1.3100    0.0000 C   0  0  0  0  0  0  0  0  0  0  0  0
   -0.3300   -2.0600    0.0000 C   0  0  0  0  0  0  0  0  0  0  0  0
   -1.6200    0.1900    0.0000 C   0  0  0  0  0  0  0  0  0  0  0  0
    0.9700   -1.3100    0.0000 C   0  0  0  0  0  0  0  0  0  0  0  0
   -0.3325    2.4400    0.0000 C   0  0  0  0  0  0  0  0  0  0  0  0
   -0.3300    0.9400    0.0000 C   0  0  0  0  0  0  0  0  0  0  0  0
    0.9700    0.1900    0.0000 C   0  0  0  0  0  0  0  0  0  0  0  0
    2.2689    0.9402    0.0000 C   0  0  0  0  0  0  0  0  0  0  0  0
    3.5681    0.1904    0.0000 O   0  0  0  0  0  0  0  0  0  0  0  0
    2.2687    2.4402    0.0000 O   0  0  0  0  0  0  0  0  0  0  0  0
   -1.6328    3.1878    0.0000 Si  0  0  0  0  0  4  0  0  0  0  0  0
  7  6  2  0
  8  6  1  0
  9  7  1  0
 11  8  2  0
 11 10  1  0
 12  9  2  0
 12 11  1  0
 13 12  1  0
 14  1  1  0
 14 13  1  0
 15  2  1  0
 15 13  1  0
 16  3  1  0
 16  4  1  0
 16  5  1  0
 16 10  1  0
M  END
>  <NAME>  (5009) 
2-(TRIMETHYLSILYLMETHYL)BENZALDEHYDE DIMETHYL ACETAL

>  <SYNONYMS>  (5009) 


>  <SPECTRUM TYPE>  (5009) 
MS1

>  <INSTRUMENT TYPE>  (5009) 
EI-B

>  <INSTRUMENT>  (5009) 
JEOL JMS-D-3000

>  <ION MODE>  (5009) 
P

>  <INCHIKEY>  (5009) 
CZUABHFBQIIFGM-UHFFFAOYSA-N

>  <FORMULA>  (5009) 
C13H22O2Si

>  <EXACT MASS>  (5009) 
238.138906474

>  <MW>  (5009) 
238

>  <ID>  (5009) 
JP002264

>  <CONTRIBUTOR>  (5009) 
University of Tokyo Team, {Faculty of Engineering, University of Tokyo

>  <COMMENT>  (5009) 
SMILES=COC(OC)c(c1)c(ccc1)C[Si](C)(C)C
InChI=InChI=1S/C13H22O2Si/c1-14-13(15-2)12-9-7-6-8-11(12)10-16(3,4)5/h6-9,13H,10H2,1-5H3
computed SMILES=O(C)C(OC)C=1C=CC=CC1C[Si](C)(C)C
accession=JP002264
date=2016.01.19 (Created 2008.10.21, modified 2011.05.06)
author=MASS SPECTROSCOPY SOC. OF JAPAN (MSSJ)
license=CC BY-NC-SA
exact mass=238.13891
ionization energy=70 eV
ion type=[M]+*
computed spectral entropy=2.9734054546730873
computed normalized entropy=0.8579434608018113
SPLASH=splash10-00ec-9810000000-807f0412d3811aa95e88
submitter=submitter = University of Tokyo Team (Faculty of Engineering, University of Tokyo)
MoNA Rating=3.75

>  <NUM PEAKS>  (5009) 
32

>  <MASS SPECTRAL PEAKS>  (5009) 
40 30.05
44 25.52
45 15.35
59 23.94
61 9.48
73 99.99
74 8.76
75 12.82
89 26.44
91 17.29
103 13.02
104 6.75
105 8.01
118 6.63
119 39.88
133 9.55
134 58.23
135 7.47
159 7.79
163 9.65
177 47.93
178 7.76
191 5.58
192 22.73
203 1.4
205 2.68
206 2.15
207 15.57
208 3.14
223 6.37
224 1.16
238 0.47

>  <PREDICTED SPECTRUM>  (5009) 
15 29
26 5
27 110
28 32
29 85
31 62
32 43
39 53
40 0
41 78
42 30
43 202
44 98
45 412
46 37
47 117
50 27
51 112
52 52
53 81
55 144
56 37
57 126
58 105
59 382
60 106
61 135
62 10
63 46
65 94
69 0
71 40
72 71
73 999
74 297
75 324
76 80
77 256
78 127
79 95
80 20
81 23
83 50
85 19
87 36
88 107
89 430
90 118
91 335
92 77
93 47
97 2
101 82
102 59
103 214
104 199
105 205
106 83
107 33
108 10
109 25
115 81
117 116
118 170
119 222
120 55
121 74
122 2
123 62
131 134
132 45
133 191
134 203
135 185
136 92
137 50
145 74
147 185
148 185
149 74
150 130
151 24
161 29
163 30
164 63
165 74
166 0
175 74
177 89
179 39
191 166
192 56
193 31
195 30
206 21
207 85
208 57
209 0
223 119
224 19
238 170
239 44
240 12

$$$$

     RDKit          2D

 15 15  0  0  0  0  0  0  0  0999 V2000
    4.0890    2.2394    0.0000 C   0  0  0  0  0  0  0  0  0  0  0  0
    1.0397   -0.3192    0.0000 C   0  0  0  0  0  0  0  0  0  0  0  0
    3.9323    1.3508    0.0000 C   0  0  0  0  0  0  0  0  0  0  0  0
    2.7899    2.9894    0.0000 C   0  0  0  0  0  0  0  0  0  0  0  0
    0.5267    1.0903    0.0000 C   0  0  0  0  0  0  0  0  0  0  0  0
    2.4551    1.0903    0.0000 C   0  0  0  0  0  0  0  0  0  0  0  0
   -5.0043    4.4894    0.0000 C   0  0  0  0  0  0  0  0  0  0  0  0
   -5.0048    2.9885    0.0000 C   0  0  0  0  0  0  0  0  0  0  0  0
   -3.7048    5.2402    0.0000 C   0  0  0  0  0  0  0  0  0  0  0  0
   -3.7057    2.2385    0.0000 C   0  0  0  0  0  0  0  0  0  0  0  0
   -2.4057    4.4902    0.0000 C   0  0  0  0  0  0  0  0  0  0  0  0
   -1.1072    2.2394    0.0000 C   0  0  0  0  0  0  0  0  0  0  0  0
   -2.4062    2.9894    0.0000 C   0  0  0  0  0  0  0  0  0  0  0  0
    0.1919    2.9894    0.0000 O   0  0  0  0  0  0  0  0  0  0  0  0
    1.4909    2.2394    0.0000 Si  0  0  0  0  0  4  0  0  0  0  0  0
  4  1  1  0
  5  2  1  0
  6  3  1  0
  8  7  2  0
  9  7  1  0
 10  8  1  0
 11  9  2  0
 13 10  2  0
 13 11  1  0
 13 12  1  0
 14 12  1  0
 15  4  1  0
 15  5  1  0
 15  6  1  0
 15 14  1  0
M  END
>  <NAME>  (5010) 
BENZYLOXYTRIETHYLSILANE

>  <SYNONYMS>  (5010) 


>  <SPECTRUM TYPE>  (5010) 
MS1

>  <INSTRUMENT TYPE>  (5010) 
EI-B

>  <INSTRUMENT>  (5010) 
JEOL JMS-D-3000

>  <ION MODE>  (5010) 
P

>  <INCHIKEY>  (5010) 
PVEFGVHUGAHUHQ-UHFFFAOYSA-N

>  <FORMULA>  (5010) 
C13H22OSi

>  <EXACT MASS>  (5010) 
222.14399185399998

>  <MW>  (5010) 
222

>  <ID>  (5010) 
JP002263

>  <CONTRIBUTOR>  (5010) 
University of Tokyo Team, {Faculty of Engineering, University of Tokyo

>  <COMMENT>  (5010) 
SMILES=CC[Si](CC)(CC)OCc(c1)cccc1
InChI=InChI=1S/C13H22OSi/c1-4-15(5-2,6-3)14-12-13-10-8-7-9-11-13/h7-11H,4-6,12H2,1-3H3
computed SMILES=O(CC=1C=CC=CC1)[Si](CC)(CC)CC
accession=JP002263
date=2016.01.19 (Created 2008.10.21, modified 2011.05.06)
author=MASS SPECTROSCOPY SOC. OF JAPAN (MSSJ)
license=CC BY-NC-SA
exact mass=222.14399
ionization energy=70 eV
ion type=[M]+*
computed spectral entropy=2.1211508838301882
computed normalized entropy=0.7080575599346727
SPLASH=splash10-0006-4900000000-570f6c440f32b4c0d871
submitter=submitter = University of Tokyo Team (Faculty of Engineering, University of Tokyo)
MoNA Rating=3.75

>  <NUM PEAKS>  (5010) 
20

>  <MASS SPECTRAL PEAKS>  (5010) 
42 2.44
44 2.87
59 4.38
65 5.67
69 2.66
75 2.07
83 5.07
87 4.21
91 55.26
92 4.98
97 1.7
135 15.04
136 2.28
163 27.88
164 4.79
165 7.64
193 99.99
194 18.46
195 5.45
222 0.14

>  <PREDICTED SPECTRUM>  (5010) 
26 56
27 149
28 35
29 181
31 78
38 20
39 163
40 55
41 166
42 34
43 151
44 51
45 240
46 12
47 146
49 24
50 113
51 228
52 126
53 102
54 56
55 117
56 47
57 137
58 177
59 217
60 41
61 84
62 56
63 189
64 52
65 348
66 68
67 47
68 27
69 40
70 1
71 69
73 7
74 55
75 211
76 70
77 212
78 90
79 126
80 5
81 12
82 67
83 100
84 10
85 43
86 40
87 135
88 56
89 168
90 126
91 989
92 324
93 41
99 0
101 71
102 1
103 121
104 52
105 193
107 182
108 47
109 80
115 90
116 0
117 79
119 19
121 242
122 31
123 49
127 1
128 13
134 58
135 396
136 151
137 392
138 26
139 90
149 97
161 50
162 71
163 362
164 165
165 338
166 110
167 57
193 999
194 381
195 217
196 71
222 7

$$$$

     RDKit          2D

 14 14  0  0  0  0  0  0  0  0999 V2000
    5.8462    0.7508    0.0000 C   0  0  0  0  0  0  0  0  0  0  0  0
    3.2474    5.2504    0.0000 C   0  0  0  0  0  0  0  0  0  0  0  0
    4.5470    1.5006    0.0000 C   0  0  0  0  0  0  0  0  0  0  0  0
    3.2476    3.7504    0.0000 C   0  0  0  0  0  0  0  0  0  0  0  0
   -1.9500    0.7500    0.0000 C   0  0  0  0  0  0  0  0  0  0  0  0
   -1.9500   -0.7500    0.0000 C   0  0  0  0  0  0  0  0  0  0  0  0
    3.2481    0.7504    0.0000 C   0  0  0  0  0  0  0  0  0  0  0  0
    1.9487    3.0002    0.0000 C   0  0  0  0  0  0  0  0  0  0  0  0
   -0.6500    1.5000    0.0000 C   0  0  0  0  0  0  0  0  0  0  0  0
   -0.6500   -1.5000    0.0000 C   0  0  0  0  0  0  0  0  0  0  0  0
    1.9489    1.5002    0.0000 C   0  0  0  0  0  0  0  0  0  0  0  0
    0.6500    0.7500    0.0000 C   0  0  0  0  0  0  0  0  0  0  0  0
    0.6500   -0.7500    0.0000 C   0  0  0  0  0  0  0  0  0  0  0  0
    1.9489   -1.5002    0.0000 O   0  0  0  0  0  0  0  0  0  0  0  0
  3  1  2  0
  4  2  1  0
  6  5  1  0
  7  3  1  0
  8  4  1  0
  9  5  1  0
 10  6  1  0
 11  7  1  0
 11  8  1  0
 12  9  1  0
 12 11  1  0
 13 10  1  0
 13 12  1  0
 14 13  2  0
M  END
>  <NAME>  (5011) 
2-(1-PROPYL-3-BUTENYL)CYCLOHEXANONE

>  <SYNONYMS>  (5011) 


>  <SPECTRUM TYPE>  (5011) 
MS1

>  <INSTRUMENT TYPE>  (5011) 
EI-B

>  <INSTRUMENT>  (5011) 
JEOL JMS-D-3000

>  <ION MODE>  (5011) 
P

>  <INCHIKEY>  (5011) 
IFAVPAZDGBNKPQ-UHFFFAOYSA-N

>  <FORMULA>  (5011) 
C13H22O

>  <EXACT MASS>  (5011) 
194.167065324

>  <MW>  (5011) 
194

>  <ID>  (5011) 
JP002262

>  <CONTRIBUTOR>  (5011) 
University of Tokyo Team, {Faculty of Engineering, University of Tokyo

>  <COMMENT>  (5011) 
SMILES=CCCC(CC=C)C(C1)C(=O)CCC1
InChI=InChI=1S/C13H22O/c1-3-7-11(8-4-2)12-9-5-6-10-13(12)14/h3,11-12H,1,4-10H2,2H3
computed SMILES=O=C1CCCCC1C(CC=C)CCC
accession=JP002262
date=2016.01.19 (Created 2008.10.21, modified 2011.05.06)
author=MASS SPECTROSCOPY SOC. OF JAPAN (MSSJ)
license=CC BY-NC-SA
exact mass=194.16707
ionization energy=70 eV
ion type=[M]+*
computed spectral entropy=2.758890061494493
computed normalized entropy=0.7823618833740188
SPLASH=splash10-0002-9100000000-ee79ab475e57e966dde2
submitter=submitter = University of Tokyo Team (Faculty of Engineering, University of Tokyo)
MoNA Rating=3.75

>  <NUM PEAKS>  (5011) 
34

>  <MASS SPECTRAL PEAKS>  (5011) 
42 16
43 1.77
53 3.28
54 3.8
55 17.55
57 2.43
65 2.3
67 9.65
69 7.51
70 13.54
77 3.07
79 5.97
80 1.78
81 7.23
83 12.77
91 9.2
93 3.17
95 3.12
96 4.11
97 11.19
98 99.99
99 7.06
105 2.72
111 2.41
129 1.71
131 2.91
133 6.14
134 2.13
145 2.95
147 3.1
151 8.03
153 1.8
176 3.69
194 2.53

>  <PREDICTED SPECTRUM>  (5011) 
26 71
27 270
28 137
29 250
38 55
39 406
40 208
41 791
42 368
43 540
44 147
50 20
51 131
52 76
53 356
54 342
55 999
56 382
57 268
63 73
64 5
65 172
66 154
67 559
68 374
69 634
70 354
71 320
77 229
78 102
79 312
80 252
81 570
82 448
83 649
84 408
85 155
91 205
92 41
93 123
94 110
95 499
96 484
97 931
98 492
99 156
100 19
105 72
106 34
107 262
108 228
109 428
110 263
111 236
112 203
119 16
121 158
122 123
123 332
124 305
125 178
126 28
131 30
133 95
135 33
136 48
137 181
138 49
139 23
148 28
149 34
151 289
152 316
153 400
154 57
165 143
179 144
180 53
193 38
194 316
195 148

$$$$

     RDKit          2D

 16 16  0  0  0  0  0  0  0  0999 V2000
   -0.1858    0.8429    0.0000 C   0  0  0  0  0  0  0  0  0  0  0  0
    7.6267    0.8325    0.0000 C   0  0  0  0  0  0  0  0  0  0  0  0
   -3.5201    3.6584    0.0000 C   0  0  0  0  0  0  0  0  0  0  0  0
   -4.0792    1.6121    0.0000 C   0  0  0  0  0  0  0  0  0  0  0  0
   -2.0329    1.0529    0.0000 C   0  0  0  0  0  0  0  0  0  0  0  0
    3.7187    3.0801    0.0000 C   0  0  0  0  0  0  0  0  0  0  0  0
    2.4051    0.8552    0.0000 C   0  0  0  0  0  0  0  0  0  0  0  0
    5.0032    2.3552    0.0000 C   0  0  0  0  0  0  0  0  0  0  0  0
    3.7296    0.0611    0.0000 C   0  0  0  0  0  0  0  0  0  0  0  0
    1.1243    3.0865    0.0000 C   0  0  0  0  0  0  0  0  0  0  0  0
   -0.1784    2.3429    0.0000 C   0  0  0  0  0  0  0  0  0  0  0  0
    2.4196    2.3301    0.0000 C   0  0  0  0  0  0  0  0  0  0  0  0
    5.0287    0.8111    0.0000 C   0  0  0  0  0  0  0  0  0  0  0  0
    6.3338    0.0718    0.0000 O   0  0  0  0  0  0  0  0  0  0  0  0
   -1.4737    3.0993    0.0000 O   0  0  0  0  0  0  0  0  0  0  0  0
   -2.7765    2.3557    0.0000 Si  0  0  0  0  0  4  0  0  0  0  0  0
  8  6  2  0
  9  7  1  0
 11  1  2  0
 11 10  1  0
 12  6  1  0
 12  7  2  0
 12 10  1  0
 13  8  1  0
 13  9  2  0
 14  2  1  0
 14 13  1  0
 15 11  1  0
 16  3  1  0
 16  4  1  0
 16  5  1  0
 16 15  1  0
M  END
>  <NAME>  (5012) 
3-(PARA-METHOXYPHENYL)-2-TRIMETHYLSILOXYPROPENE

>  <SYNONYMS>  (5012) 


>  <SPECTRUM TYPE>  (5012) 
MS1

>  <INSTRUMENT TYPE>  (5012) 
EI-B

>  <INSTRUMENT>  (5012) 
JEOL JMS-D-3000

>  <ION MODE>  (5012) 
P

>  <INCHIKEY>  (5012) 
DUEZNAYVAXALAR-UHFFFAOYSA-N

>  <FORMULA>  (5012) 
C13H20O2Si

>  <EXACT MASS>  (5012) 
236.12325641

>  <MW>  (5012) 
236

>  <ID>  (5012) 
JP002260

>  <CONTRIBUTOR>  (5012) 
University of Tokyo Team, {Faculty of Engineering, University of Tokyo

>  <COMMENT>  (5012) 
SMILES=COc(c1)ccc(c1)CC(=C)O[Si](C)(C)C
InChI=InChI=1S/C13H20O2Si/c1-11(15-16(3,4)5)10-12-6-8-13(14-2)9-7-12/h6-9H,1,10H2,2-5H3
computed SMILES=O(C1=CC=C(C=C1)CC(O[Si](C)(C)C)=C)C
accession=JP002260
date=2016.01.19 (Created 2008.10.21, modified 2011.05.06)
author=MASS SPECTROSCOPY SOC. OF JAPAN (MSSJ)
license=CC BY-NC-SA
exact mass=236.12326
ion type=[M]+*
ionization energy=70 eV
computed spectral entropy=2.9763226352216643
computed normalized entropy=0.7963043658707923
SPLASH=splash10-00di-9240000000-b8d6c43779968f3e3450
submitter=submitter = University of Tokyo Team (Faculty of Engineering, University of Tokyo)
MoNA Rating=3.75

>  <NUM PEAKS>  (5012) 
42

>  <MASS SPECTRAL PEAKS>  (5012) 
47 2.65
48 5.01
51 3.48
55 4.3
57 5.55
58 4.16
59 5.39
60 4.84
69 2.71
73 99.99
74 10.22
75 43.62
76 4.23
77 11.97
78 3.77
79 2.42
89 2.85
91 5.51
92 3.52
97 2.41
103 3.11
105 2.78
107 3.01
115 2.94
117 2.99
121 19.98
135 23.5
136 3.26
147 3.08
163 2.58
164 3.21
193 3.46
205 3.01
206 3.52
207 2.98
209 41.83
210 7.41
211 2.31
221 5.48
223 3.9
236 23.76
237 8.45

>  <PREDICTED SPECTRUM>  (5012) 
29 39
39 56
41 70
42 1
43 91
44 66
45 216
46 35
47 105
50 22
51 95
52 45
53 14
55 35
57 1
59 198
61 53
63 46
64 21
65 59
73 683
74 140
75 375
76 96
77 249
78 184
79 58
89 107
90 43
91 104
92 24
103 64
104 48
115 356
116 56
117 132
118 58
119 61
120 15
121 999
122 383
123 1
131 40
132 24
135 32
145 58
146 250
147 235
148 50
153 42
163 12
179 125
193 54
194 15
205 82
206 97
221 466
222 156
223 54
235 124
236 604
237 250
238 112

$$$$

     RDKit          2D

 15 15  0  0  0  0  0  0  0  0999 V2000
   -5.1962    2.5700    0.0000 C   0  0  0  0  0  0  0  0  0  0  0  0
   -1.2990    0.3200    0.0000 C   0  0  0  0  0  0  0  0  0  0  0  0
    1.2990    4.8200    0.0000 C   0  0  0  0  0  0  0  0  0  0  0  0
   -3.8971    1.8200    0.0000 C   0  0  0  0  0  0  0  0  0  0  0  0
    3.8971    0.3200    0.0000 C   0  0  0  0  0  0  0  0  0  0  0  0
    3.8976    1.8208    0.0000 C   0  0  0  0  0  0  0  0  0  0  0  0
    2.5976   -0.4308    0.0000 C   0  0  0  0  0  0  0  0  0  0  0  0
    2.5986    2.5708    0.0000 C   0  0  0  0  0  0  0  0  0  0  0  0
    1.2986    0.3192    0.0000 C   0  0  0  0  0  0  0  0  0  0  0  0
   -1.2990    1.8200    0.0000 C   0  0  0  0  0  0  0  0  0  0  0  0
    1.2990    1.8200    0.0000 C   0  0  0  0  0  0  0  0  0  0  0  0
   -2.5981    2.5700    0.0000 C   0  0  0  0  0  0  0  0  0  0  0  0
    0.0000    2.5700    0.0000 C   0  0  0  0  0  0  0  0  0  0  0  0
   -2.5981    4.0700    0.0000 O   0  0  0  0  0  0  0  0  0  0  0  0
    0.0000    4.0700    0.0000 O   0  0  0  0  0  0  0  0  0  0  0  0
  4  1  1  0
  6  5  2  0
  7  5  1  0
  8  6  1  0
  9  7  2  0
 10  2  1  0
 11  8  2  0
 11  9  1  0
 12  4  1  0
 12 10  1  0
 13 10  1  0
 13 11  1  0
 14 12  2  0
 15  3  1  0
 15 13  1  0
M  END
>  <NAME>  (5013) 
1-METHOXY-2-METHYL-1-PHENYLPENTAN-3-ONE

>  <SYNONYMS>  (5013) 


>  <SPECTRUM TYPE>  (5013) 
MS1

>  <INSTRUMENT TYPE>  (5013) 
EI-B

>  <INSTRUMENT>  (5013) 
JEOL JMS-D-3000

>  <ION MODE>  (5013) 
P

>  <INCHIKEY>  (5013) 
JEAZSOXKLCVEAR-UHFFFAOYSA-N

>  <FORMULA>  (5013) 
C13H18O2

>  <EXACT MASS>  (5013) 
206.130679816

>  <MW>  (5013) 
206

>  <ID>  (5013) 
JP002259

>  <CONTRIBUTOR>  (5013) 
University of Tokyo Team, {Faculty of Engineering, University of Tokyo

>  <COMMENT>  (5013) 
SMILES=CCC(=O)C(C)C(OC)c(c1)cccc1
InChI=InChI=1S/C13H18O2/c1-4-12(14)10(2)13(15-3)11-8-6-5-7-9-11/h5-10,13H,4H2,1-3H3
computed SMILES=O=C(CC)C(C)C(OC)C=1C=CC=CC1
accession=JP002259
date=2016.01.19 (Created 2008.10.21, modified 2011.05.06)
author=MASS SPECTROSCOPY SOC. OF JAPAN (MSSJ)
license=CC BY-NC-SA
exact mass=206.13068
ionization energy=70 eV
ion type=[M]+*
computed spectral entropy=1.4300976517322448
computed normalized entropy=0.5280912632824079
SPLASH=splash10-00di-1900000000-b0e26b5aec74d220bdcb
submitter=submitter = University of Tokyo Team (Faculty of Engineering, University of Tokyo)
MoNA Rating=3.75

>  <NUM PEAKS>  (5013) 
15

>  <MASS SPECTRAL PEAKS>  (5013) 
57 4.37
77 5.63
78 1.05
91 4.71
105 4.15
115 2.08
117 5.63
118 2.88
121 99.99
122 9.47
145 1.54
174 5.43
177 1.29
191 1.28
206 0.19

>  <PREDICTED SPECTRUM>  (5013) 
29 12
41 65
42 6
43 92
44 23
45 24
50 5
51 61
52 17
53 4
57 132
58 61
59 31
65 20
77 174
78 83
79 39
85 59
89 43
91 227
102 13
105 71
117 105
118 108
120 39
121 999
122 290
131 16
174 165
206 36

$$$$

     RDKit          2D

 16 16  0  0  0  0  0  0  0  0999 V2000
   -6.8197    3.1321    0.0000 C   0  0  0  0  0  0  0  0  0  0  0  0
   -4.2216    7.6321    0.0000 C   0  0  0  0  0  0  0  0  0  0  0  0
   -5.5207    3.8821    0.0000 C   0  0  0  0  0  0  0  0  0  0  0  0
   -4.2216    6.1321    0.0000 C   0  0  0  0  0  0  0  0  0  0  0  0
    3.5726    1.6321    0.0000 C   0  0  0  0  0  0  0  0  0  0  0  0
    3.5731    3.1329    0.0000 C   0  0  0  0  0  0  0  0  0  0  0  0
    2.2731    0.8813    0.0000 C   0  0  0  0  0  0  0  0  0  0  0  0
    2.2740    3.8829    0.0000 C   0  0  0  0  0  0  0  0  0  0  0  0
    0.9740    1.6313    0.0000 C   0  0  0  0  0  0  0  0  0  0  0  0
   -1.6236    3.1321    0.0000 C   0  0  0  0  0  0  0  0  0  0  0  0
    0.9745    3.1321    0.0000 C   0  0  0  0  0  0  0  0  0  0  0  0
   -0.3245    3.8821    0.0000 C   0  0  0  0  0  0  0  0  0  0  0  0
   -2.9226    3.8821    0.0000 C   0  0  0  0  0  0  0  0  0  0  0  0
   -0.3245    5.3821    0.0000 O   0  0  0  0  0  0  0  0  0  0  0  0
   -4.2216    3.1321    0.0000 O   0  0  0  0  0  0  0  0  0  0  0  0
   -2.9226    5.3821    0.0000 O   0  0  0  0  0  0  0  0  0  0  0  0
  3  1  1  0
  4  2  1  0
  6  5  2  0
  7  5  1  0
  8  6  1  0
  9  7  2  0
 11  8  2  0
 11  9  1  0
 12 10  1  0
 12 11  1  0
 13 10  1  0
 14 12  2  0
 15  3  1  0
 15 13  1  0
 16  4  1  0
 16 13  1  0
M  END
>  <NAME>  (5014) 
3,3-DIETHOXYPROPIOPHENONE

>  <SYNONYMS>  (5014) 


>  <SPECTRUM TYPE>  (5014) 
MS1

>  <INSTRUMENT TYPE>  (5014) 
EI-B

>  <INSTRUMENT>  (5014) 
JEOL JMS-D-3000

>  <ION MODE>  (5014) 
P

>  <INCHIKEY>  (5014) 
DTLKIEUIPAYFLA-UHFFFAOYSA-N

>  <FORMULA>  (5014) 
C13H18O3

>  <EXACT MASS>  (5014) 
222.12559443599997

>  <MW>  (5014) 
222

>  <ID>  (5014) 
JP002258

>  <CONTRIBUTOR>  (5014) 
University of Tokyo Team, {Faculty of Engineering, University of Tokyo

>  <COMMENT>  (5014) 
SMILES=CCOC(OCC)CC(=O)c(c1)cccc1
InChI=InChI=1S/C13H18O3/c1-3-15-13(16-4-2)10-12(14)11-8-6-5-7-9-11/h5-9,13H,3-4,10H2,1-2H3
computed SMILES=O=C(C=1C=CC=CC1)CC(OCC)OCC
accession=JP002258
date=2016.01.19 (Created 2008.10.21, modified 2011.05.06)
author=MASS SPECTROSCOPY SOC. OF JAPAN (MSSJ)
license=CC BY-NC-SA
exact mass=222.12559
ionization energy=70 eV
ion type=[M]+*
computed spectral entropy=2.2480487472487067
computed normalized entropy=0.7169679139664865
SPLASH=splash10-0a4i-4900000000-c22fcf24d8b6f3ea191b
submitter=submitter = University of Tokyo Team (Faculty of Engineering, University of Tokyo)
MoNA Rating=3.75

>  <NUM PEAKS>  (5014) 
23

>  <MASS SPECTRAL PEAKS>  (5014) 
43 3
44 3.46
45 1.44
47 21.2
51 5.49
71 3.23
72 2.45
75 19.46
76 2.06
77 21.64
78 2.97
99 1.54
103 30.07
104 2.26
105 99.99
106 8.18
120 1.39
147 4.07
177 4.33
178 1.47
193 15.66
194 1.96
222 2.09

>  <PREDICTED SPECTRUM>  (5014) 
14 17
15 32
17 18
18 39
19 4
25 7
26 80
27 237
28 102
29 333
30 37
31 146
32 34
37 9
38 45
39 104
40 4
41 72
43 260
44 157
45 260
46 126
47 670
48 126
49 107
50 218
51 401
52 105
53 112
54 0
55 70
57 32
59 25
60 96
61 125
62 77
63 68
64 10
65 128
66 18
71 83
73 88
74 141
75 619
76 188
77 761
78 236
79 88
81 1
89 99
90 56
91 170
92 51
93 83
102 49
103 723
104 135
105 999
106 370
107 133
109 11
117 82
119 258
120 128
121 104
130 4
131 277
132 193
133 122
134 26
145 89
147 122
148 297
149 289
161 3
175 5
176 299
177 314
178 77
222 51
223 28

$$$$

     RDKit          2D

 16 18  0  0  0  0  0  0  0  0999 V2000
   -5.1296    2.9615    0.0000 C   0  0  0  0  0  0  0  0  0  0  0  0
   -2.5315   -1.5385    0.0000 C   0  0  0  0  0  0  0  0  0  0  0  0
    2.6647    4.4615    0.0000 C   0  0  0  0  0  0  0  0  0  0  0  0
    1.3652    5.2124    0.0000 C   0  0  0  0  0  0  0  0  0  0  0  0
    2.6652    2.9607    0.0000 C   0  0  0  0  0  0  0  0  0  0  0  0
    0.0661    4.4624    0.0000 C   0  0  0  0  0  0  0  0  0  0  0  0
    1.3661    2.2107    0.0000 C   0  0  0  0  0  0  0  0  0  0  0  0
   -2.5315    2.9615    0.0000 C   0  0  0  0  0  0  0  0  0  0  0  0
   -1.2324    0.7115    0.0000 C   0  0  0  0  0  0  0  0  0  0  0  0
    0.0666    2.9615    0.0000 C   0  0  0  0  0  0  0  0  0  0  0  0
   -1.2324    2.2115    0.0000 C   0  0  0  0  0  0  0  0  0  0  0  0
   -3.8305    2.2115    0.0000 C   0  0  0  0  0  0  0  0  0  0  0  0
   -2.5315   -0.0385    0.0000 C   0  0  0  0  0  0  0  0  0  0  0  0
   -3.8305    0.7115    0.0000 O   0  0  0  0  0  0  0  0  0  0  0  0
   -5.7258    0.6866    0.0000 O   0  0  0  0  0  0  0  0  0  0  0  0
   -4.7997   -0.9173    0.0000 O   0  0  0  0  0  0  0  0  0  0  0  0
  4  3  2  0
  5  3  1  0
  6  4  1  0
  7  5  2  0
 10  6  2  0
 10  7  1  0
 11  8  1  0
 11  9  1  0
 11 10  1  0
 12  1  1  0
 12  8  1  0
 13  2  1  0
 13  9  1  0
 14 12  1  0
 14 13  1  0
 15 12  1  0
 16 13  1  0
 16 15  1  0
M  END
>  <NAME>  (5015) 
1,5-DIMETHYL-3-PHENYL-6,7,8-TRIOXABICYCLO(3.2.1)OCTANE

>  <SYNONYMS>  (5015) 


>  <SPECTRUM TYPE>  (5015) 
MS1

>  <INSTRUMENT TYPE>  (5015) 
EI-B

>  <INSTRUMENT>  (5015) 
JEOL JMS-D-3000

>  <ION MODE>  (5015) 
P

>  <INCHIKEY>  (5015) 
NACUOFJOIXFQJT-UHFFFAOYSA-N

>  <FORMULA>  (5015) 
C13H16O3

>  <EXACT MASS>  (5015) 
220.10994437199997

>  <MW>  (5015) 
220

>  <ID>  (5015) 
JP002257

>  <CONTRIBUTOR>  (5015) 
University of Tokyo Team, {Faculty of Engineering, University of Tokyo

>  <COMMENT>  (5015) 
SMILES=c(c3)ccc(c3)C(C1)CC(C)(O2)OC(C)(O2)1
InChI=InChI=1S/C13H16O3/c1-12-8-11(10-6-4-3-5-7-10)9-13(2,14-12)16-15-12/h3-7,11H,8-9H2,1-2H3
computed SMILES=O1OC2(OC1(C)CC(C=3C=CC=CC3)C2)C
accession=JP002257
date=2016.01.19 (Created 2008.10.21, modified 2011.05.06)
author=MASS SPECTROSCOPY SOC. OF JAPAN (MSSJ)
license=CC BY-NC-SA
exact mass=220.10994
ionization energy=70 eV
ion type=[M]+*
computed spectral entropy=3.3988957761725467
computed normalized entropy=0.9152631792572083
SPLASH=splash10-014i-3900000000-0de90a07d95b5eaff1d8
submitter=submitter = University of Tokyo Team (Faculty of Engineering, University of Tokyo)
MoNA Rating=3.75

>  <NUM PEAKS>  (5015) 
41

>  <MASS SPECTRAL PEAKS>  (5015) 
40 12.09
43 9.33
44 23.25
45 16.9
50 8.28
51 23.14
52 5.58
58 9.39
60 16.62
63 9.72
65 11.82
77 23.75
78 17.95
82 10.38
83 11.82
89 8.06
91 40.11
102 7.12
103 31.1
104 53.97
105 18.83
115 42.98
116 10.77
117 99.99
118 63.81
119 9
127 6.18
128 8.28
129 15.63
130 28.17
137 25.8
145 29.17
146 9.55
147 59.55
148 7.4
158 11.87
159 15.46
160 54.8
161 10.27
162 7.95
204 8.06

>  <PREDICTED SPECTRUM>  (5015) 
37 0
38 44
39 247
40 111
41 196
42 160
43 999
44 166
45 107
46 35
50 141
51 296
52 136
53 85
54 59
55 120
56 177
57 97
58 56
59 92
62 10
63 105
64 10
65 135
66 13
69 44
70 142
71 151
72 131
73 79
74 113
75 62
76 87
77 511
78 222
79 61
80 36
86 24
87 1
88 22
89 149
90 13
91 172
96 85
97 41
98 265
99 18
100 32
101 69
102 131
103 395
104 862
105 788
106 157
109 4
114 5
115 209
116 280
117 153
118 58
130 54
131 111
145 89
160 28
220 86
221 9

$$$$

     RDKit          2D

 15 16  0  0  0  0  0  0  0  0999 V2000
   -0.3706   -2.1717    0.0000 C   0  0  0  0  0  0  0  0  0  0  0  0
    4.8256    2.3283    0.0000 C   0  0  0  0  0  0  0  0  0  0  0  0
    3.5261    3.0791    0.0000 C   0  0  0  0  0  0  0  0  0  0  0  0
    4.8261    0.8275    0.0000 C   0  0  0  0  0  0  0  0  0  0  0  0
   -2.7364    1.3374    0.0000 C   0  0  0  0  0  0  0  0  0  0  0  0
    2.2270    2.3291    0.0000 C   0  0  0  0  0  0  0  0  0  0  0  0
    3.5270    0.0775    0.0000 C   0  0  0  0  0  0  0  0  0  0  0  0
   -1.7407    0.2127    0.0000 C   0  0  0  0  0  0  0  0  0  0  0  0
   -1.9880    2.6288    0.0000 C   0  0  0  0  0  0  0  0  0  0  0  0
    2.2275    0.8283    0.0000 C   0  0  0  0  0  0  0  0  0  0  0  0
   -0.3706    0.8283    0.0000 C   0  0  0  0  0  0  0  0  0  0  0  0
   -0.5216    2.3133    0.0000 C   0  0  0  0  0  0  0  0  0  0  0  0
    0.9285    0.0783    0.0000 C   0  0  0  0  0  0  0  0  0  0  0  0
    0.5961    3.3137    0.0000 O   0  0  0  0  0  0  0  0  0  0  0  0
    0.9285   -1.4217    0.0000 O   0  0  0  0  0  0  0  0  0  0  0  0
  3  2  2  0
  4  2  1  0
  6  3  1  0
  7  4  2  0
  8  5  1  0
  9  5  1  0
 10  6  2  0
 10  7  1  0
 11  8  1  0
 12  9  1  0
 12 11  1  0
 13 10  1  0
 13 11  1  0
 14 12  2  0
 15  1  1  0
 15 13  1  0
M  END
>  <NAME>  (5016) 
2-(1-METHOXYBENZYL)CYCLOPENTANONE

>  <SYNONYMS>  (5016) 


>  <SPECTRUM TYPE>  (5016) 
MS1

>  <INSTRUMENT TYPE>  (5016) 
EI-B

>  <INSTRUMENT>  (5016) 
JEOL JMS-D-3000

>  <ION MODE>  (5016) 
P

>  <INCHIKEY>  (5016) 
JECPKECYQZJMRB-UHFFFAOYSA-N

>  <FORMULA>  (5016) 
C13H16O2

>  <EXACT MASS>  (5016) 
204.115029752

>  <MW>  (5016) 
204

>  <ID>  (5016) 
JP002256

>  <CONTRIBUTOR>  (5016) 
University of Tokyo Team, {Faculty of Engineering, University of Tokyo

>  <COMMENT>  (5016) 
SMILES=COC(c(c2)cccc2)C(C1)C(=O)CC1
InChI=InChI=1S/C13H16O2/c1-15-13(10-6-3-2-4-7-10)11-8-5-9-12(11)14/h2-4,6-7,11,13H,5,8-9H2,1H3
computed SMILES=O=C1CCCC1C(OC)C=2C=CC=CC2
accession=JP002256
date=2016.01.19 (Created 2008.10.21, modified 2011.05.06)
author=MASS SPECTROSCOPY SOC. OF JAPAN (MSSJ)
license=CC BY-NC-SA
exact mass=204.11503
ionization energy=70 eV
ion type=[M]+*
computed spectral entropy=1.7528101384364714
computed normalized entropy=0.5757258073444043
SPLASH=splash10-00di-2900000000-d8d799df3f792d0d2c43
submitter=submitter = University of Tokyo Team (Faculty of Engineering, University of Tokyo)
MoNA Rating=3.75

>  <NUM PEAKS>  (5016) 
21

>  <MASS SPECTRAL PEAKS>  (5016) 
40 2.76
42 1.69
44 1.08
51 2.28
55 1.13
65 1.69
77 9.91
78 2
91 8.14
105 4.01
115 4.23
116 2.23
117 2.63
121 99.99
122 9.3
128 1.46
129 2.28
130 2.79
171 2.4
172 2.81
204 0.6

>  <PREDICTED SPECTRUM>  (5016) 
27 13
28 34
32 11
38 1
39 98
40 45
41 105
42 12
43 65
45 0
50 58
51 113
52 32
53 40
55 116
58 33
59 21
63 21
65 95
67 9
70 8
74 50
75 12
76 32
77 240
78 140
79 66
80 51
81 37
83 4
89 57
90 53
91 371
92 101
93 21
94 28
102 20
103 77
105 187
106 43
108 45
110 39
115 153
116 163
117 69
118 57
121 999
122 333
128 172
129 214
131 80
143 16
157 75
172 97
204 76

$$$$

     RDKit          2D

 14 14  0  0  0  0  0  0  0  0999 V2000
    1.9493   -1.5546    0.0000 C   0  0  0  0  0  0  0  0  0  0  0  0
    3.2483    2.1954    0.0000 C   0  0  0  0  0  0  0  0  0  0  0  0
    0.6502   -0.8046    0.0000 C   0  0  0  0  0  0  0  0  0  0  0  0
   -4.5459    3.6954    0.0000 C   0  0  0  0  0  0  0  0  0  0  0  0
   -4.5464    2.1946    0.0000 C   0  0  0  0  0  0  0  0  0  0  0  0
   -3.2464    4.4462    0.0000 C   0  0  0  0  0  0  0  0  0  0  0  0
   -0.6488   -0.0546    0.0000 C   0  0  0  0  0  0  0  0  0  0  0  0
   -3.2474    1.4446    0.0000 C   0  0  0  0  0  0  0  0  0  0  0  0
   -1.9474    3.6962    0.0000 C   0  0  0  0  0  0  0  0  0  0  0  0
    0.6502    2.1954    0.0000 C   0  0  0  0  0  0  0  0  0  0  0  0
    1.9493    1.4454    0.0000 C   0  0  0  0  0  0  0  0  0  0  0  0
   -1.9478    2.1954    0.0000 C   0  0  0  0  0  0  0  0  0  0  0  0
   -0.6488    1.4454    0.0000 C   0  0  0  0  0  0  0  0  0  0  0  0
    1.9493   -0.0546    0.0000 O   0  0  0  0  0  0  0  0  0  0  0  0
  3  1  3  0
  5  4  2  0
  6  4  1  0
  7  3  1  0
  8  5  1  0
  9  6  2  0
 11  2  1  0
 11 10  1  0
 12  8  2  0
 12  9  1  0
 13  7  1  0
 13 10  1  0
 13 12  1  0
 14 11  2  0
M  END
>  <NAME>  (5017) 
4-PHENYL-6-HEPTYN-2-ONE

>  <SYNONYMS>  (5017) 


>  <SPECTRUM TYPE>  (5017) 
MS1

>  <INSTRUMENT TYPE>  (5017) 
EI-B

>  <INSTRUMENT>  (5017) 
JEOL JMS-D-3000

>  <ION MODE>  (5017) 
P

>  <INCHIKEY>  (5017) 
BYUGDDFTCNVKKD-UHFFFAOYSA-N

>  <FORMULA>  (5017) 
C13H14O

>  <EXACT MASS>  (5017) 
186.104465068

>  <MW>  (5017) 
186

>  <ID>  (5017) 
JP002255

>  <CONTRIBUTOR>  (5017) 
University of Tokyo Team, {Faculty of Engineering, University of Tokyo

>  <COMMENT>  (5017) 
SMILES=C#CCC(CC(C)=O)c(c1)cccc1
InChI=InChI=1S/C13H14O/c1-3-7-13(10-11(2)14)12-8-5-4-6-9-12/h1,4-6,8-9,13H,7,10H2,2H3
computed SMILES=O=C(C)CC(C=1C=CC=CC1)CC#C
accession=JP002255
date=2016.01.19 (Created 2008.10.21, modified 2011.05.06)
author=MASS SPECTROSCOPY SOC. OF JAPAN (MSSJ)
license=CC BY-NC-SA
exact mass=186.10447
ionization energy=70 eV
ion type=[M]+*
computed spectral entropy=2.000816459910276
computed normalized entropy=0.6215885820920728
SPLASH=splash10-0006-9600000000-81a6b4279cd6aa18342c
submitter=submitter = University of Tokyo Team (Faculty of Engineering, University of Tokyo)
MoNA Rating=3.75

>  <NUM PEAKS>  (5017) 
25

>  <MASS SPECTRAL PEAKS>  (5017) 
43 99.99
50 1.24
51 4.1
52 1.19
63 1.99
65 1.62
67 1.27
75 1
77 5.17
78 2.8
91 3.4
102 1.58
103 3.36
104 2.65
105 1.54
115 2.01
127 2.99
128 36.7
129 7.38
141 1.11
142 1.3
143 17.52
144 4.77
147 3.36
186 0.8

>  <PREDICTED SPECTRUM>  (5017) 
14 11
15 18
26 30
27 95
28 31
38 11
39 196
40 43
41 27
43 999
44 86
45 11
50 112
51 269
52 107
53 143
58 95
62 68
63 184
64 72
65 162
66 50
67 48
69 16
74 25
75 15
76 89
77 316
78 184
79 120
85 54
89 51
91 371
92 109
102 146
103 291
104 145
105 5
110 16
115 262
125 126
127 144
128 594
129 454
130 147
141 10
142 35
143 460
144 170
145 13
186 132

$$$$

     RDKit          2D

 14 15  0  0  0  0  0  0  0  0999 V2000
    2.5986   -3.7512    0.0000 C   0  0  0  0  0  0  0  0  0  0  0  0
   -2.5982    2.2494    0.0000 C   0  0  0  0  0  0  0  0  0  0  0  0
   -2.5989    0.7485    0.0000 C   0  0  0  0  0  0  0  0  0  0  0  0
   -1.2986    3.0000    0.0000 C   0  0  0  0  0  0  0  0  0  0  0  0
   -1.3000   -0.0017    0.0000 C   0  0  0  0  0  0  0  0  0  0  0  0
    0.0004    2.2498    0.0000 C   0  0  0  0  0  0  0  0  0  0  0  0
    1.2986   -1.5012    0.0000 C   0  0  0  0  0  0  0  0  0  0  0  0
    3.8986   -1.5012    0.0000 C   0  0  0  0  0  0  0  0  0  0  0  0
    2.5986    0.7488    0.0000 C   0  0  0  0  0  0  0  0  0  0  0  0
    2.5986   -2.2512    0.0000 C   0  0  0  0  0  0  0  0  0  0  0  0
   -0.0004    0.7490    0.0000 C   0  0  0  0  0  0  0  0  0  0  0  0
    1.2986   -0.0012    0.0000 C   0  0  0  0  0  0  0  0  0  0  0  0
    3.8986   -0.0012    0.0000 C   0  0  0  0  0  0  0  0  0  0  0  0
    5.1975    0.7490    0.0000 O   0  0  0  0  0  0  0  0  0  0  0  0
  3  2  2  0
  4  2  1  0
  5  3  1  0
  6  4  2  0
 10  1  1  0
 10  7  1  0
 10  8  2  0
 11  5  2  0
 11  6  1  0
 12  7  1  0
 12  9  1  0
 12 11  1  0
 13  8  1  0
 13  9  1  0
 14 13  2  0
M  END
>  <NAME>  (5018) 
3-METHYL-5-PHENYLCYCLOHEX-2-ENONE

>  <SYNONYMS>  (5018) 


>  <SPECTRUM TYPE>  (5018) 
MS1

>  <INSTRUMENT TYPE>  (5018) 
EI-B

>  <INSTRUMENT>  (5018) 
JEOL JMS-D-3000

>  <ION MODE>  (5018) 
P

>  <INCHIKEY>  (5018) 
NIWQFOONBVIMGR-UHFFFAOYSA-N

>  <FORMULA>  (5018) 
C13H14O

>  <EXACT MASS>  (5018) 
186.104465068

>  <MW>  (5018) 
186

>  <ID>  (5018) 
JP002254

>  <CONTRIBUTOR>  (5018) 
University of Tokyo Team, {Faculty of Engineering, University of Tokyo

>  <COMMENT>  (5018) 
SMILES=CC(=C2)CC(CC(=O)2)c(c1)cccc1
InChI=InChI=1S/C13H14O/c1-10-7-12(9-13(14)8-10)11-5-3-2-4-6-11/h2-6,8,12H,7,9H2,1H3
computed SMILES=O=C1C=C(C)CC(C=2C=CC=CC2)C1
accession=JP002254
date=2016.01.19 (Created 2008.10.21, modified 2011.05.06)
author=MASS SPECTROSCOPY SOC. OF JAPAN (MSSJ)
license=CC BY-NC-SA
exact mass=186.10447
ionization energy=70 eV
ion type=[M]+*
computed spectral entropy=1.4750347514417468
computed normalized entropy=0.5935976514721747
SPLASH=splash10-001i-9500000000-2b589e450435bac91e86
submitter=submitter = University of Tokyo Team (Faculty of Engineering, University of Tokyo)
MoNA Rating=3.75

>  <NUM PEAKS>  (5018) 
12

>  <MASS SPECTRAL PEAKS>  (5018) 
44 1.84
54 3.54
82 99.99
83 5.83
104 11.01
105 1.99
142 3.67
143 2.08
144 3.08
184 1.86
186 42.45
187 5.94

>  <PREDICTED SPECTRUM>  (5018) 
26 104
27 161
28 46
30 60
37 21
38 101
39 398
40 209
41 257
42 194
43 140
44 29
50 202
51 375
52 287
53 306
54 272
55 288
56 104
58 2
62 54
63 196
64 154
65 272
66 96
67 96
68 70
69 48
70 9
71 21
74 71
75 102
76 102
77 348
78 330
79 169
80 108
81 180
82 999
83 299
84 45
87 1
89 53
91 289
92 119
94 27
95 128
96 91
102 137
103 269
104 648
105 161
106 13
107 25
108 113
109 289
110 83
115 278
116 156
117 45
118 33
127 102
128 185
129 167
130 83
141 162
142 90
143 304
144 187
157 163
158 206
159 77
160 24
168 55
169 75
170 28
171 196
172 32
185 222
186 896
187 322
188 80

$$$$

     RDKit          2D

 14 13  0  0  0  0  0  0  0  0999 V2000
   -8.2697    4.9755    0.0000 C   0  0  0  0  0  0  0  0  0  0  0  0
   -0.4755    1.9755    0.0000 C   0  0  0  0  0  0  0  0  0  0  0  0
   -3.0736    1.9755    0.0000 C   0  0  0  0  0  0  0  0  0  0  0  0
    0.0736    2.9264    0.0000 C   0  0  0  0  0  0  0  0  0  0  0  0
    2.1226    3.4755    0.0000 C   0  0  0  0  0  0  0  0  0  0  0  0
    1.5736    5.5245    0.0000 C   0  0  0  0  0  0  0  0  0  0  0  0
   -6.9707    4.2255    0.0000 C   0  0  0  0  0  0  0  0  0  0  0  0
   -5.6716    4.9755    0.0000 C   0  0  0  0  0  0  0  0  0  0  0  0
   -4.3726    4.2255    0.0000 C   0  0  0  0  0  0  0  0  0  0  0  0
   -3.0736    4.9755    0.0000 C   0  0  0  0  0  0  0  0  0  0  0  0
   -1.7745    2.7255    0.0000 C   0  0  0  0  0  0  0  0  0  0  0  0
   -1.7745    4.2255    0.0000 C   0  0  0  0  0  0  0  0  0  0  0  0
   -0.4755    4.9755    0.0000 O   0  0  0  0  0  0  0  0  0  0  0  0
    0.8236    4.2255    0.0000 Si  0  0  0  0  0  4  0  0  0  0  0  0
  7  1  1  0
  8  7  1  0
  9  8  1  0
 10  9  1  0
 11  2  1  0
 11  3  1  0
 12 10  1  0
 12 11  2  0
 13 12  1  0
 14  4  1  0
 14  5  1  0
 14  6  1  0
 14 13  1  0
M  END
>  <NAME>  (5019) 
2-METHYL-3-TRIMETHYLSILOXY-2-OCTENE

>  <SYNONYMS>  (5019) 


>  <SPECTRUM TYPE>  (5019) 
MS1

>  <INSTRUMENT TYPE>  (5019) 
EI-B

>  <INSTRUMENT>  (5019) 
JEOL JMS-D-3000

>  <ION MODE>  (5019) 
P

>  <INCHIKEY>  (5019) 
XEAQQYZZUGWXNO-UHFFFAOYSA-N

>  <FORMULA>  (5019) 
C12H26OSi

>  <EXACT MASS>  (5019) 
214.175291982

>  <MW>  (5019) 
214

>  <ID>  (5019) 
JP002253

>  <CONTRIBUTOR>  (5019) 
University of Tokyo Team, {Faculty of Engineering, University of Tokyo

>  <COMMENT>  (5019) 
SMILES=CCCCCC(=C(C)C)O[Si](C)(C)C
InChI=InChI=1S/C12H26OSi/c1-7-8-9-10-12(11(2)3)13-14(4,5)6/h7-10H2,1-6H3
computed SMILES=O(C(=C(C)C)CCCCC)[Si](C)(C)C
accession=JP002253
date=2016.01.19 (Created 2008.10.21, modified 2011.05.06)
author=MASS SPECTROSCOPY SOC. OF JAPAN (MSSJ)
license=CC BY-NC-SA
exact mass=214.17529
ionization energy=70 eV
ion type=[M]+*
computed spectral entropy=2.6925253159352973
computed normalized entropy=0.8169473870833753
SPLASH=splash10-05fu-8900000000-20abe269eaf66a8b1e10
submitter=submitter = University of Tokyo Team (Faculty of Engineering, University of Tokyo)
MoNA Rating=3.75

>  <NUM PEAKS>  (5019) 
27

>  <MASS SPECTRAL PEAKS>  (5019) 
42 18.3
43 11.37
45 12.83
55 4.66
59 5.14
67 9.49
69 6.36
71 5.53
73 99.99
74 8.57
75 62.66
76 4.58
81 6.53
91 7.59
99 4.92
130 7.98
143 72.94
144 10.61
157 4.78
158 92.64
159 14.66
160 4.44
171 45.97
172 8.18
199 10.73
214 22.86
215 4.52

>  <PREDICTED SPECTRUM>  (5019) 
14 0
15 12
27 71
28 2
29 121
39 24
41 148
43 185
44 46
45 247
46 29
47 98
51 34
52 5
53 70
54 7
55 224
56 14
57 80
58 65
59 194
60 24
61 38
65 1
67 115
68 78
69 177
70 14
71 55
72 107
73 958
74 209
75 681
76 171
77 175
78 23
79 16
81 156
82 157
83 48
89 42
91 45
95 122
96 69
97 70
98 5
99 102
101 71
109 46
113 13
115 144
116 84
127 77
129 89
130 98
131 73
141 7
143 999
144 337
145 113
155 4
157 146
158 925
159 315
160 193
169 22
171 515
172 198
185 60
186 48
187 17
199 391
200 120
201 36
214 478
215 214
216 99

$$$$

     RDKit          2D

 14 13  0  0  0  0  0  0  0  0999 V2000
    2.9228    3.9375    0.0000 C   0  0  0  0  0  0  0  0  0  0  0  0
    1.6238    6.1875    0.0000 C   0  0  0  0  0  0  0  0  0  0  0  0
   -7.4695    3.9375    0.0000 C   0  0  0  0  0  0  0  0  0  0  0  0
   -3.5724    1.6875    0.0000 C   0  0  0  0  0  0  0  0  0  0  0  0
    0.3248    3.9375    0.0000 C   0  0  0  0  0  0  0  0  0  0  0  0
   -4.8714    3.9375    0.0000 C   0  0  0  0  0  0  0  0  0  0  0  0
   -0.9743    4.6875    0.0000 C   0  0  0  0  0  0  0  0  0  0  0  0
   -3.5724    4.6875    0.0000 C   0  0  0  0  0  0  0  0  0  0  0  0
    1.6238    4.6875    0.0000 C   0  0  0  0  0  0  0  0  0  0  0  0
   -6.1704    4.6875    0.0000 C   0  0  0  0  0  0  0  0  0  0  0  0
   -2.2733    2.4375    0.0000 C   0  0  0  0  0  0  0  0  0  0  0  0
   -2.2733    3.9375    0.0000 C   0  0  0  0  0  0  0  0  0  0  0  0
   -6.1704    6.1875    0.0000 O   0  0  0  0  0  0  0  0  0  0  0  0
   -0.9743    1.6875    0.0000 O   0  0  0  0  0  0  0  0  0  0  0  0
  7  5  1  0
  8  6  1  0
  9  1  2  0
  9  2  1  0
  9  5  1  0
 10  3  1  0
 10  6  1  0
 11  4  1  0
 12  7  1  0
 12  8  1  0
 12 11  1  0
 13 10  2  0
 14 11  2  0
M  END
>  <NAME>  (5020) 
3-(3-METHYL-3-BUTENYL)HEPTA-2,6-DIONE

>  <SYNONYMS>  (5020) 


>  <SPECTRUM TYPE>  (5020) 
MS1

>  <INSTRUMENT TYPE>  (5020) 
EI-B

>  <INSTRUMENT>  (5020) 
JEOL JMS-D-3000

>  <ION MODE>  (5020) 
P

>  <INCHIKEY>  (5020) 
UIPLNRWNRUEEPE-UHFFFAOYSA-N

>  <FORMULA>  (5020) 
C12H20O2

>  <EXACT MASS>  (5020) 
196.14632988

>  <MW>  (5020) 
196

>  <ID>  (5020) 
JP002252

>  <CONTRIBUTOR>  (5020) 
University of Tokyo Team, {Faculty of Engineering, University of Tokyo

>  <COMMENT>  (5020) 
SMILES=CC(=C)CCC(CCC(C)=O)C(C)=O
InChI=InChI=1S/C12H20O2/c1-9(2)5-7-12(11(4)14)8-6-10(3)13/h12H,1,5-8H2,2-4H3
computed SMILES=O=C(C)CCC(C(=O)C)CCC(=C)C
accession=JP002252
date=2016.01.19 (Created 2008.10.21, modified 2011.05.06)
author=MASS SPECTROSCOPY SOC. OF JAPAN (MSSJ)
license=CC BY-NC-SA
exact mass=196.14633
ionization energy=70 eV
ion type=[M]+*
computed spectral entropy=3.0345900315621614
computed normalized entropy=0.8342317950182709
SPLASH=splash10-004i-2900000000-25ac693cdc7acee56329
submitter=submitter = University of Tokyo Team (Faculty of Engineering, University of Tokyo)
MoNA Rating=3.75

>  <NUM PEAKS>  (5020) 
38

>  <MASS SPECTRAL PEAKS>  (5020) 
43 3.3
71 17.03
72 2.61
85 5.77
86 2.32
93 7.11
95 22.41
96 2.62
97 2.66
99 2.97
100 3.36
105 8.76
106 2.09
107 6.4
108 5.15
109 2.75
110 4.27
111 2.84
113 3.08
118 2.89
119 4.51
120 19.95
121 6.94
123 7.95
125 10.03
126 3.46
128 99.99
129 8.6
135 7.58
138 7.76
139 9.81
141 11.27
145 9.79
153 2.6
158 3.5
160 10.99
178 9.9
196 9.71

>  <PREDICTED SPECTRUM>  (5020) 
26 12
27 138
28 44
29 117
38 22
39 241
40 121
41 569
42 228
43 999
44 206
45 106
50 25
51 82
52 99
53 271
54 209
55 460
56 228
57 182
58 346
59 134
63 19
65 136
66 74
67 332
68 312
69 416
70 179
71 672
72 163
73 33
77 111
78 58
79 218
80 171
81 345
82 245
83 327
84 195
85 148
86 89
87 16
91 180
92 88
93 326
94 148
95 258
96 193
97 279
98 54
99 93
100 63
101 1
105 96
106 17
107 248
108 212
109 329
110 190
111 306
112 143
113 69
114 15
120 116
121 228
122 98
123 243
124 65
125 200
126 149
127 54
128 47
134 42
135 309
136 194
137 96
138 358
139 216
140 50
141 53
149 71
150 10
151 23
152 4
153 191
154 94
163 158
164 7
177 4
178 146
181 61
196 62
197 11

$$$$

     RDKit          2D

 13 13  0  0  0  0  0  0  0  0999 V2000
    4.5468    3.0006    0.0000 C   0  0  0  0  0  0  0  0  0  0  0  0
    3.2474    5.2504    0.0000 C   0  0  0  0  0  0  0  0  0  0  0  0
    3.2481    0.7504    0.0000 C   0  0  0  0  0  0  0  0  0  0  0  0
   -1.9500    0.7500    0.0000 C   0  0  0  0  0  0  0  0  0  0  0  0
   -1.9500   -0.7500    0.0000 C   0  0  0  0  0  0  0  0  0  0  0  0
   -0.6500    1.5000    0.0000 C   0  0  0  0  0  0  0  0  0  0  0  0
   -0.6500   -1.5000    0.0000 C   0  0  0  0  0  0  0  0  0  0  0  0
    1.9487    3.0002    0.0000 C   0  0  0  0  0  0  0  0  0  0  0  0
    3.2476    3.7504    0.0000 C   0  0  0  0  0  0  0  0  0  0  0  0
    1.9489    1.5002    0.0000 C   0  0  0  0  0  0  0  0  0  0  0  0
    0.6500    0.7500    0.0000 C   0  0  0  0  0  0  0  0  0  0  0  0
    0.6500   -0.7500    0.0000 C   0  0  0  0  0  0  0  0  0  0  0  0
    1.9489   -1.5002    0.0000 O   0  0  0  0  0  0  0  0  0  0  0  0
  5  4  1  0
  6  4  1  0
  7  5  1  0
  9  1  2  0
  9  2  1  0
  9  8  1  0
 10  3  1  0
 10  8  1  0
 11  6  1  0
 11 10  1  0
 12  7  1  0
 12 11  1  0
 13 12  2  0
M  END
>  <NAME>  (5021) 
2-(1,3-DIMETHYL-3-BUTENYL)CYCLOHEXANONE

>  <SYNONYMS>  (5021) 


>  <SPECTRUM TYPE>  (5021) 
MS1

>  <INSTRUMENT TYPE>  (5021) 
EI-B

>  <INSTRUMENT>  (5021) 
JEOL JMS-D-3000

>  <ION MODE>  (5021) 
P

>  <INCHIKEY>  (5021) 
JNHRKKHWPNJMSO-UHFFFAOYSA-N

>  <FORMULA>  (5021) 
C12H20O

>  <EXACT MASS>  (5021) 
180.15141526

>  <MW>  (5021) 
180

>  <ID>  (5021) 
JP002251

>  <CONTRIBUTOR>  (5021) 
University of Tokyo Team, {Faculty of Engineering, University of Tokyo

>  <COMMENT>  (5021) 
SMILES=CC(=C)CC(C)C(C1)C(=O)CCC1
InChI=InChI=1S/C12H20O/c1-9(2)8-10(3)11-6-4-5-7-12(11)13/h10-11H,1,4-8H2,2-3H3
computed SMILES=O=C1CCCCC1C(C)CC(=C)C
accession=JP002251
date=2016.01.19 (Created 2008.10.21, modified 2011.05.06)
author=MASS SPECTROSCOPY SOC. OF JAPAN (MSSJ)
license=CC BY-NC-SA
exact mass=180.15142
ionization energy=70 eV
ion type=[M]+*
computed spectral entropy=2.788272186296523
computed normalized entropy=0.8662254582034681
SPLASH=splash10-06r2-4900000000-7e6214bf9210221be420
submitter=submitter = University of Tokyo Team (Faculty of Engineering, University of Tokyo)
MoNA Rating=3.75

>  <NUM PEAKS>  (5021) 
25

>  <MASS SPECTRAL PEAKS>  (5021) 
55 14.89
67 9.57
70 9.09
79 7.09
81 6.09
82 8.02
83 37.15
91 9.46
93 8.76
97 8.02
98 63.17
105 67.68
106 11.42
107 8.57
119 30.31
120 27.65
125 22.36
133 13.38
137 7.72
145 7.06
147 70.83
148 9.02
162 99.99
163 11.9
180 11.6

>  <PREDICTED SPECTRUM>  (5021) 
26 112
27 430
28 242
29 372
38 53
39 445
40 232
41 793
42 227
43 351
44 6
45 0
49 5
50 33
51 139
52 144
53 474
54 312
55 999
56 597
57 513
58 249
59 46
63 64
64 28
65 230
66 123
67 634
68 342
69 751
70 556
71 249
72 49
77 268
78 101
79 446
80 283
81 619
82 636
83 585
84 601
85 255
91 323
92 156
93 389
94 227
95 469
96 366
97 395
98 836
99 293
100 48
105 180
106 152
107 399
108 325
109 339
110 95
111 6
112 204
119 219
120 225
121 271
122 293
123 548
124 332
125 585
126 285
133 143
134 99
135 244
136 91
137 206
138 102
147 208
148 75
151 208
152 109
161 26
162 103
163 18
164 4
165 246
166 19
180 574
181 262

$$$$

     RDKit          2D

 14 14  0  0  0  0  0  0  0  0999 V2000
   -1.6353    4.6878    0.0000 C   0  0  0  0  0  0  0  0  0  0  0  0
    2.8183   -1.1087    0.0000 C   0  0  0  0  0  0  0  0  0  0  0  0
    4.8672   -0.5594    0.0000 C   0  0  0  0  0  0  0  0  0  0  0  0
    4.3179    1.4896    0.0000 C   0  0  0  0  0  0  0  0  0  0  0  0
   -1.6200   -1.3100    0.0000 C   0  0  0  0  0  0  0  0  0  0  0  0
   -0.3300   -2.0600    0.0000 C   0  0  0  0  0  0  0  0  0  0  0  0
   -1.6200    0.1900    0.0000 C   0  0  0  0  0  0  0  0  0  0  0  0
    0.9700   -1.3100    0.0000 C   0  0  0  0  0  0  0  0  0  0  0  0
   -0.3325    2.4400    0.0000 C   0  0  0  0  0  0  0  0  0  0  0  0
    2.2689    0.9402    0.0000 C   0  0  0  0  0  0  0  0  0  0  0  0
   -0.3300    0.9400    0.0000 C   0  0  0  0  0  0  0  0  0  0  0  0
    0.9700    0.1900    0.0000 C   0  0  0  0  0  0  0  0  0  0  0  0
   -1.6328    3.1878    0.0000 O   0  0  0  0  0  0  0  0  0  0  0  0
    3.5681    0.1904    0.0000 Si  0  0  0  0  0  4  0  0  0  0  0  0
  6  5  2  0
  7  5  1  0
  8  6  1  0
 11  7  2  0
 11  9  1  0
 12  8  2  0
 12 10  1  0
 12 11  1  0
 13  1  1  0
 13  9  1  0
 14  2  1  0
 14  3  1  0
 14  4  1  0
 14 10  1  0
M  END
>  <NAME>  (5022) 
2-(TRIMETHYLSILYLMETHYL)BENZYL METHYL ETHER

>  <SYNONYMS>  (5022) 


>  <SPECTRUM TYPE>  (5022) 
MS1

>  <INSTRUMENT TYPE>  (5022) 
EI-B

>  <INSTRUMENT>  (5022) 
JEOL JMS-D-3000

>  <ION MODE>  (5022) 
P

>  <INCHIKEY>  (5022) 
UGIPJBGGQSXMIT-UHFFFAOYSA-N

>  <FORMULA>  (5022) 
C12H20OSi

>  <EXACT MASS>  (5022) 
208.12834179

>  <MW>  (5022) 
208

>  <ID>  (5022) 
JP002250

>  <CONTRIBUTOR>  (5022) 
University of Tokyo Team, {Faculty of Engineering, University of Tokyo

>  <COMMENT>  (5022) 
SMILES=COCc(c1)c(ccc1)C[Si](C)(C)C
InChI=InChI=1S/C12H20OSi/c1-13-9-11-7-5-6-8-12(11)10-14(2,3)4/h5-8H,9-10H2,1-4H3
computed SMILES=O(C)CC=1C=CC=CC1C[Si](C)(C)C
accession=JP002250
date=2016.01.19 (Created 2008.10.21, modified 2011.05.06)
author=MASS SPECTROSCOPY SOC. OF JAPAN (MSSJ)
license=CC BY-NC-SA
exact mass=208.12834
ionization energy=70 eV
ion type=[M]+*
computed spectral entropy=1.0059892165005322
computed normalized entropy=0.4578454232111912
SPLASH=splash10-0udi-1900000000-cb672a949ee39665122b
submitter=submitter = University of Tokyo Team (Faculty of Engineering, University of Tokyo)
MoNA Rating=3.75

>  <NUM PEAKS>  (5022) 
9

>  <MASS SPECTRAL PEAKS>  (5022) 
73 10.8
89 2.79
104 99.99
105 8.36
163 3.69
177 4.14
192 2.26
193 1.15
208 0.33

>  <PREDICTED SPECTRUM>  (5022) 
27 26
29 81
31 33
38 4
39 103
40 27
41 107
42 56
43 262
44 139
45 620
46 113
47 129
50 66
51 131
52 91
53 43
54 35
55 77
56 1
57 57
58 104
59 384
60 141
61 113
62 36
63 114
64 76
65 139
66 59
67 24
69 25
71 118
72 64
73 999
74 310
75 362
76 105
77 227
78 167
79 165
80 50
81 52
83 12
85 54
86 78
87 73
88 14
89 371
90 201
91 279
92 92
93 32
99 19
102 17
103 343
104 459
105 374
106 68
107 23
115 34
116 4
117 107
118 116
119 204
120 77
121 105
122 39
129 129
130 75
131 65
132 19
133 51
134 132
135 101
136 28
147 45
148 19
149 70
163 80
176 105
177 95
178 82
179 108
180 3
193 111
194 36
207 23
208 148
209 53
210 10

$$$$

     RDKit          2D

 14 14  0  0  0  0  0  0  0  0999 V2000
   -2.0353    1.3943    0.0000 C   0  0  0  0  0  0  0  0  0  0  0  0
   -5.3834    4.1934    0.0000 C   0  0  0  0  0  0  0  0  0  0  0  0
   -5.9324    2.1443    0.0000 C   0  0  0  0  0  0  0  0  0  0  0  0
   -3.8834    1.5953    0.0000 C   0  0  0  0  0  0  0  0  0  0  0  0
    3.1608    1.3943    0.0000 C   0  0  0  0  0  0  0  0  0  0  0  0
    3.1613    2.8952    0.0000 C   0  0  0  0  0  0  0  0  0  0  0  0
    1.8613    0.6435    0.0000 C   0  0  0  0  0  0  0  0  0  0  0  0
    1.8623    3.6452    0.0000 C   0  0  0  0  0  0  0  0  0  0  0  0
    0.5623    1.3935    0.0000 C   0  0  0  0  0  0  0  0  0  0  0  0
   -0.7363    3.6443    0.0000 C   0  0  0  0  0  0  0  0  0  0  0  0
   -2.0353    2.8943    0.0000 C   0  0  0  0  0  0  0  0  0  0  0  0
    0.5627    2.8943    0.0000 C   0  0  0  0  0  0  0  0  0  0  0  0
   -3.3344    3.6443    0.0000 O   0  0  0  0  0  0  0  0  0  0  0  0
   -4.6334    2.8943    0.0000 Si  0  0  0  0  0  4  0  0  0  0  0  0
  6  5  2  0
  7  5  1  0
  8  6  1  0
  9  7  2  0
 11  1  2  0
 11 10  1  0
 12  8  2  0
 12  9  1  0
 12 10  1  0
 13 11  1  0
 14  2  1  0
 14  3  1  0
 14  4  1  0
 14 13  1  0
M  END
>  <NAME>  (5023) 
3-PHENYL-2-TRIMETHYLSILOXYPROPENE

>  <SYNONYMS>  (5023) 


>  <SPECTRUM TYPE>  (5023) 
MS1

>  <INSTRUMENT TYPE>  (5023) 
EI-B

>  <INSTRUMENT>  (5023) 
JEOL JMS-D-3000

>  <ION MODE>  (5023) 
P

>  <INCHIKEY>  (5023) 
OEHNYSQPYONHIW-UHFFFAOYSA-N

>  <FORMULA>  (5023) 
C12H18OSi

>  <EXACT MASS>  (5023) 
206.112691726

>  <MW>  (5023) 
206

>  <ID>  (5023) 
JP002249

>  <CONTRIBUTOR>  (5023) 
University of Tokyo Team, {Faculty of Engineering, University of Tokyo

>  <COMMENT>  (5023) 
SMILES=C=C(Cc(c1)cccc1)O[Si](C)(C)C
InChI=InChI=1S/C12H18OSi/c1-11(13-14(2,3)4)10-12-8-6-5-7-9-12/h5-9H,1,10H2,2-4H3
computed SMILES=O(C(=C)CC=1C=CC=CC1)[Si](C)(C)C
accession=JP002249
date=2016.01.19 (Created 2008.10.21, modified 2011.05.06)
author=MASS SPECTROSCOPY SOC. OF JAPAN (MSSJ)
license=CC BY-NC-SA
exact mass=206.11269
ionization energy=70 eV
ion type=[M]+*
computed spectral entropy=2.793842757671782
computed normalized entropy=0.821429174541596
SPLASH=splash10-0axu-9630000000-1f26db7ab39ea3802d19
submitter=submitter = University of Tokyo Team (Faculty of Engineering, University of Tokyo)
MoNA Rating=3.75

>  <NUM PEAKS>  (5023) 
30

>  <MASS SPECTRAL PEAKS>  (5023) 
43 22.56
44 3.36
45 15.22
47 6.53
51 4.3
59 3.72
61 3.36
65 6.72
72 4.7
73 99.99
74 9.54
75 55.35
76 4.39
77 10.17
91 22.32
92 6.02
105 11.23
115 21.16
116 6.81
117 62.99
118 6.36
134 6.15
135 3.89
173 8.58
175 7.76
191 61.75
192 10.68
206 92.57
207 16.74
208 4.43

>  <PREDICTED SPECTRUM>  (5023) 
15 23
26 13
27 110
28 14
29 101
31 67
38 45
39 173
40 27
41 85
42 50
43 275
44 155
45 451
46 87
47 208
48 6
49 10
50 96
51 156
52 77
53 119
55 99
56 7
57 97
58 158
59 297
60 70
61 126
62 83
63 193
64 103
65 262
66 81
67 50
69 76
70 10
71 54
72 127
73 999
74 289
75 665
76 217
77 305
78 156
79 155
81 32
83 35
85 66
86 28
87 12
88 4
89 168
90 72
91 462
92 219
93 143
99 58
101 62
102 84
103 32
104 166
105 171
106 49
107 44
115 543
116 504
117 534
118 175
119 83
120 1
121 23
129 27
131 61
132 28
133 79
134 92
135 200
136 5
143 0
145 46
147 78
149 45
161 95
162 9
163 57
164 15
173 79
175 118
176 18
189 70
190 60
191 776
192 345
193 138
194 39
205 183
206 937
207 427
208 210
209 66

$$$$

     RDKit          2D

 14 14  0  0  0  0  0  0  0  0999 V2000
   -6.8197    3.1321    0.0000 C   0  0  0  0  0  0  0  0  0  0  0  0
   -4.2216    6.1321    0.0000 C   0  0  0  0  0  0  0  0  0  0  0  0
   -5.5207    3.8821    0.0000 C   0  0  0  0  0  0  0  0  0  0  0  0
    3.5726    1.6321    0.0000 C   0  0  0  0  0  0  0  0  0  0  0  0
    3.5731    3.1329    0.0000 C   0  0  0  0  0  0  0  0  0  0  0  0
    2.2731    0.8813    0.0000 C   0  0  0  0  0  0  0  0  0  0  0  0
   -4.2216    3.1321    0.0000 C   0  0  0  0  0  0  0  0  0  0  0  0
    2.2740    3.8829    0.0000 C   0  0  0  0  0  0  0  0  0  0  0  0
    0.9740    1.6313    0.0000 C   0  0  0  0  0  0  0  0  0  0  0  0
   -0.3245    3.8821    0.0000 C   0  0  0  0  0  0  0  0  0  0  0  0
   -1.6236    3.1321    0.0000 C   0  0  0  0  0  0  0  0  0  0  0  0
    0.9745    3.1321    0.0000 C   0  0  0  0  0  0  0  0  0  0  0  0
   -2.9226    3.8821    0.0000 C   0  0  0  0  0  0  0  0  0  0  0  0
   -2.9226    5.3821    0.0000 O   0  0  0  0  0  0  0  0  0  0  0  0
  3  1  2  0
  5  4  2  0
  6  4  1  0
  7  3  1  0
  8  5  1  0
  9  6  2  0
 10 11  2  0
 12  8  2  0
 12  9  1  0
 12 10  1  0
 13  7  1  0
 13 11  1  0
 14  2  1  0
 14 13  1  0
M  END
>  <NAME>  (5024) 
1-PHENYL-3-METHOXY-1,5-HEXADIENE

>  <SYNONYMS>  (5024) 


>  <SPECTRUM TYPE>  (5024) 
MS1

>  <INSTRUMENT TYPE>  (5024) 
EI-B

>  <INSTRUMENT>  (5024) 
JEOL JMS-D-3000

>  <ION MODE>  (5024) 
P

>  <INCHIKEY>  (5024) 
NDUMBKGCLBBXLU-ZHACJKMWSA-N

>  <FORMULA>  (5024) 
C13H16O

>  <EXACT MASS>  (5024) 
188.120115132

>  <MW>  (5024) 
188

>  <ID>  (5024) 
JP002248

>  <CONTRIBUTOR>  (5024) 
University of Tokyo Team, {Faculty of Engineering, University of Tokyo

>  <COMMENT>  (5024) 
SMILES=C=CCC(OC)C=Cc(c1)cccc1
InChI=InChI=1S/C13H16O/c1-3-7-13(14-2)11-10-12-8-5-4-6-9-12/h3-6,8-11,13H,1,7H2,2H3/b11-10+
computed SMILES=O(C)C(C=CC=1C=CC=CC1)CC=C
accession=JP002248
date=2016.01.19 (Created 2008.10.21, modified 2011.05.06)
author=MASS SPECTROSCOPY SOC. OF JAPAN (MSSJ)
license=CC BY-NC-SA
exact mass=188.12012
ionization energy=70 eV
ion type=[M]+*
computed spectral entropy=3.1959343468771046
computed normalized entropy=0.8606092165361982
SPLASH=splash10-007a-1900000000-ae708097dbcfbeae0929
submitter=submitter = University of Tokyo Team (Faculty of Engineering, University of Tokyo)
MoNA Rating=3.75

>  <NUM PEAKS>  (5024) 
41

>  <MASS SPECTRAL PEAKS>  (5024) 
41 12.36
45 7.85
50 2.97
51 9.53
55 10.31
63 4.46
65 4.24
76 2.92
77 16.26
78 8.04
79 3
91 28.26
102 3.51
103 10.31
104 5.78
105 3.9
115 53.04
116 7.17
117 8.29
128 4.51
129 4.36
131 8.87
132 2.92
133 10.97
141 2.8
147 99.99
148 11.07
156 3.12
160 32.28
161 16.14
162 20.17
169 10.76
170 10.76
171 24.21
172 13.45
173 52.45
174 9.41
185 12.1
186 13.45
187 80.7
188 41.69

>  <PREDICTED SPECTRUM>  (5024) 
38 75
39 391
40 118
41 250
43 86
44 9
45 157
50 210
51 442
52 161
53 170
54 1
55 101
57 41
62 136
63 337
64 136
65 395
66 108
67 82
68 38
69 117
71 92
74 80
75 285
76 249
77 554
78 316
79 185
80 140
81 154
82 103
84 7
85 31
88 8
89 421
90 182
91 908
92 258
95 69
96 27
97 156
98 171
101 50
102 293
103 413
104 232
105 186
106 69
107 12
108 39
109 24
110 154
111 68
113 78
114 52
115 999
116 624
117 378
118 118
119 173
121 101
125 64
126 7
127 311
128 458
129 434
130 82
131 476
132 130
141 380
142 171
143 199
144 115
145 272
146 250
147 748
148 320
149 38
150 18
154 264
155 493
156 642
157 575
158 315
159 56
173 117
187 69
188 660
189 184
190 8

$$$$

     RDKit          2D

 13 13  0  0  0  0  0  0  0  0999 V2000
   -3.5721    4.2571    0.0000 C   0  0  0  0  0  0  0  0  0  0  0  0
   -4.8712    2.0071    0.0000 C   0  0  0  0  0  0  0  0  0  0  0  0
   -2.2731    0.5071    0.0000 C   0  0  0  0  0  0  0  0  0  0  0  0
    2.9231    0.5071    0.0000 C   0  0  0  0  0  0  0  0  0  0  0  0
    2.9236    2.0079    0.0000 C   0  0  0  0  0  0  0  0  0  0  0  0
    1.6236   -0.2437    0.0000 C   0  0  0  0  0  0  0  0  0  0  0  0
    1.6245    2.7579    0.0000 C   0  0  0  0  0  0  0  0  0  0  0  0
    0.3245    0.5063    0.0000 C   0  0  0  0  0  0  0  0  0  0  0  0
   -3.5721    2.7571    0.0000 C   0  0  0  0  0  0  0  0  0  0  0  0
   -2.2731    2.0071    0.0000 C   0  0  0  0  0  0  0  0  0  0  0  0
    0.3250    2.0071    0.0000 C   0  0  0  0  0  0  0  0  0  0  0  0
   -0.9740    2.7571    0.0000 C   0  0  0  0  0  0  0  0  0  0  0  0
   -0.9740    4.2571    0.0000 O   0  0  0  0  0  0  0  0  0  0  0  0
  5  4  2  0
  6  4  1  0
  7  5  1  0
  8  6  2  0
  9  1  2  0
  9  2  1  0
 10  3  1  0
 10  9  1  0
 11  7  2  0
 11  8  1  0
 12 10  1  0
 12 11  1  0
 13 12  2  0
M  END
>  <NAME>  (5025) 
2,3-DIMETHYL-1-PHENYL-3-BUTEN-1-ONE

>  <SYNONYMS>  (5025) 


>  <SPECTRUM TYPE>  (5025) 
MS1

>  <INSTRUMENT TYPE>  (5025) 
EI-B

>  <INSTRUMENT>  (5025) 
JEOL JMS-D-3000

>  <ION MODE>  (5025) 
P

>  <INCHIKEY>  (5025) 
WBQKHEBUULKXGU-UHFFFAOYSA-N

>  <FORMULA>  (5025) 
C12H14O

>  <EXACT MASS>  (5025) 
174.104465068

>  <MW>  (5025) 
174

>  <ID>  (5025) 
JP002247

>  <CONTRIBUTOR>  (5025) 
University of Tokyo Team, {Faculty of Engineering, University of Tokyo

>  <COMMENT>  (5025) 
SMILES=CC(=C)C(C)C(=O)c(c1)cccc1
InChI=InChI=1S/C12H14O/c1-9(2)10(3)12(13)11-7-5-4-6-8-11/h4-8,10H,1H2,2-3H3
computed SMILES=O=C(C=1C=CC=CC1)C(C(=C)C)C
accession=JP002247
date=2016.01.19 (Created 2008.10.21, modified 2011.05.06)
author=MASS SPECTROSCOPY SOC. OF JAPAN (MSSJ)
license=CC BY-NC-SA
exact mass=174.10447
ionization energy=70 eV
ion type=[M]+*
computed spectral entropy=0.782045421418507
computed normalized entropy=0.43646786013941713
SPLASH=splash10-0a4i-1900000000-c282e2332ec10180cc72
submitter=submitter = University of Tokyo Team (Faculty of Engineering, University of Tokyo)
MoNA Rating=3.75

>  <NUM PEAKS>  (5025) 
6

>  <MASS SPECTRAL PEAKS>  (5025) 
41 2.15
77 12.02
105 99.99
106 7.5
159 1.26
174 3.09

>  <PREDICTED SPECTRUM>  (5025) 
26 66
27 220
28 111
29 40
37 27
38 82
39 310
40 141
41 385
42 114
43 369
44 74
45 72
50 169
51 344
52 160
53 181
54 71
55 142
56 15
57 62
62 71
63 161
64 100
65 171
66 83
67 75
68 109
69 496
70 124
71 26
74 62
75 97
76 109
77 594
78 234
79 99
80 35
82 22
83 129
84 28
89 91
90 48
91 290
92 155
93 109
94 17
96 26
97 49
102 52
103 179
104 343
105 999
106 347
107 102
115 294
116 117
117 56
118 84
119 65
120 123
127 85
128 125
129 160
130 68
131 316
132 268
133 133
134 31
141 9
145 98
146 142
147 103
153 3
158 18
159 230
160 66
173 138
174 454
175 146

$$$$

     RDKit          2D

 13 12  0  0  0  0  0  0  0  0999 V2000
  -10.2183    6.1005    0.0000 C   0  0  0  0  0  0  0  0  0  0  0  0
    0.7231    4.0514    0.0000 C   0  0  0  0  0  0  0  0  0  0  0  0
    2.7721    4.6005    0.0000 C   0  0  0  0  0  0  0  0  0  0  0  0
    2.2231    6.6495    0.0000 C   0  0  0  0  0  0  0  0  0  0  0  0
   -8.9192    5.3505    0.0000 C   0  0  0  0  0  0  0  0  0  0  0  0
   -7.6202    6.1005    0.0000 C   0  0  0  0  0  0  0  0  0  0  0  0
   -6.3212    5.3505    0.0000 C   0  0  0  0  0  0  0  0  0  0  0  0
   -5.0221    6.1005    0.0000 C   0  0  0  0  0  0  0  0  0  0  0  0
   -3.7231    5.3505    0.0000 C   0  0  0  0  0  0  0  0  0  0  0  0
   -2.4240    6.1005    0.0000 C   0  0  0  0  0  0  0  0  0  0  0  0
   -1.1250    5.3505    0.0000 C   0  0  0  0  0  0  0  0  0  0  0  0
    0.1740    6.1005    0.0000 O   0  0  0  0  0  0  0  0  0  0  0  0
    1.4731    5.3505    0.0000 Si  0  0  0  0  0  4  0  0  0  0  0  0
  5  1  1  0
  6  5  1  0
  7  6  1  0
  8  7  1  0
  9  8  1  0
 10  9  1  0
 11 10  1  0
 12 11  1  0
 13  2  1  0
 13  3  1  0
 13  4  1  0
 13 12  1  0
M  END
>  <NAME>  (5026) 
1-TRIMETHYLSILOXYOCTANE

>  <SYNONYMS>  (5026) 


>  <SPECTRUM TYPE>  (5026) 
MS1

>  <INSTRUMENT TYPE>  (5026) 
EI-B

>  <INSTRUMENT>  (5026) 
JEOL JMS-D-3000

>  <ION MODE>  (5026) 
P

>  <INCHIKEY>  (5026) 
CDGIKLPUDRGJQN-UHFFFAOYSA-N

>  <FORMULA>  (5026) 
C11H26OSi

>  <EXACT MASS>  (5026) 
202.175291982

>  <MW>  (5026) 
202

>  <ID>  (5026) 
JP002246

>  <CONTRIBUTOR>  (5026) 
University of Tokyo Team, {Faculty of Engineering, University of Tokyo

>  <COMMENT>  (5026) 
SMILES=CCCCCCCCO[Si](C)(C)C
InChI=InChI=1S/C11H26OSi/c1-5-6-7-8-9-10-11-12-13(2,3)4/h5-11H2,1-4H3
computed SMILES=O(CCCCCCCC)[Si](C)(C)C
accession=JP002246
date=2016.01.19 (Created 2008.10.21, modified 2011.05.06)
author=MASS SPECTROSCOPY SOC. OF JAPAN (MSSJ)
license=CC BY-NC-SA
exact mass=202.17529
ionization energy=70 eV
ion type=[M]+*
computed spectral entropy=2.5914472239439115
computed normalized entropy=0.8965792088385774
SPLASH=splash10-0553-9300000000-4d24c56946561f597876
submitter=submitter = University of Tokyo Team (Faculty of Engineering, University of Tokyo)
MoNA Rating=3.75

>  <NUM PEAKS>  (5026) 
18

>  <MASS SPECTRAL PEAKS>  (5026) 
42 30.95
43 10.37
44 36.45
55 29.75
56 18.71
57 42.6
69 46.69
70 15.35
71 18.04
73 50.63
75 95.41
84 9.34
85 9.89
89 21.55
103 29.86
187 99.99
188 16.87
202 0.88

>  <PREDICTED SPECTRUM>  (5026) 
25 4
26 25
27 143
28 32
29 157
31 63
36 43
37 15
38 49
39 225
40 94
41 457
42 279
43 510
44 164
45 401
46 117
47 295
48 12
49 45
50 23
51 20
52 34
53 146
54 110
55 566
56 311
57 327
58 210
59 309
60 114
61 330
62 27
63 77
65 17
66 63
67 145
68 146
69 477
70 282
71 210
72 116
73 748
74 194
75 947
76 284
77 296
78 91
79 63
81 145
82 99
83 448
84 236
85 193
86 46
87 160
88 157
89 299
90 83
91 179
93 13
96 78
97 373
98 178
99 169
100 6
101 251
102 63
103 621
104 191
105 159
109 10
110 7
111 192
112 149
113 87
115 267
116 28
117 17
127 17
129 132
130 41
131 91
141 3
143 32
157 67
159 27
171 38
185 71
186 25
187 999
188 388
189 207
190 26

$$$$

     RDKit          2D

 13 12  0  0  0  0  0  0  0  0999 V2000
    2.8358    5.3873    0.0000 C   0  0  0  0  0  0  0  0  0  0  0  0
   -4.9584    3.8873    0.0000 C   0  0  0  0  0  0  0  0  0  0  0  0
   -8.3065    6.6863    0.0000 C   0  0  0  0  0  0  0  0  0  0  0  0
   -8.8555    4.6373    0.0000 C   0  0  0  0  0  0  0  0  0  0  0  0
   -6.8065    4.0882    0.0000 C   0  0  0  0  0  0  0  0  0  0  0  0
    1.5368    6.1373    0.0000 C   0  0  0  0  0  0  0  0  0  0  0  0
    0.2377    5.3873    0.0000 C   0  0  0  0  0  0  0  0  0  0  0  0
   -1.0613    6.1373    0.0000 C   0  0  0  0  0  0  0  0  0  0  0  0
   -2.3603    5.3873    0.0000 C   0  0  0  0  0  0  0  0  0  0  0  0
   -3.6594    6.1373    0.0000 C   0  0  0  0  0  0  0  0  0  0  0  0
   -4.9584    5.3873    0.0000 C   0  0  0  0  0  0  0  0  0  0  0  0
   -6.2575    6.1373    0.0000 O   0  0  0  0  0  0  0  0  0  0  0  0
   -7.5565    5.3873    0.0000 Si  0  0  0  0  0  4  0  0  0  0  0  0
  6  1  1  0
  7  6  1  0
  8  7  1  0
  9  8  1  0
 10  9  1  0
 11  2  1  0
 11 10  1  0
 12 11  1  0
 13  3  1  0
 13  4  1  0
 13  5  1  0
 13 12  1  0
M  END
>  <NAME>  (5027) 
2-TRIMETHYLSILOXYOCTANE

>  <SYNONYMS>  (5027) 


>  <SPECTRUM TYPE>  (5027) 
MS1

>  <INSTRUMENT TYPE>  (5027) 
EI-B

>  <INSTRUMENT>  (5027) 
JEOL JMS-D-3000

>  <ION MODE>  (5027) 
P

>  <INCHIKEY>  (5027) 
UHWVCRDNNJCGLG-UHFFFAOYSA-N

>  <FORMULA>  (5027) 
C11H26OSi

>  <EXACT MASS>  (5027) 
202.17529198199998

>  <MW>  (5027) 
202

>  <ID>  (5027) 
JP002245

>  <CONTRIBUTOR>  (5027) 
University of Tokyo Team, {Faculty of Engineering, University of Tokyo

>  <COMMENT>  (5027) 
SMILES=CCCCCCC(C)O[Si](C)(C)C
InChI=InChI=1S/C11H26OSi/c1-6-7-8-9-10-11(2)12-13(3,4)5/h11H,6-10H2,1-5H3
computed SMILES=O(C(C)CCCCCC)[Si](C)(C)C
accession=JP002245
date=2016.01.19 (Created 2008.10.21, modified 2011.05.06)
author=MASS SPECTROSCOPY SOC. OF JAPAN (MSSJ)
license=CC BY-NC-SA
exact mass=202.17529
ionization energy=70 eV
ion type=[M]+*
computed spectral entropy=2.0792625469287516
computed normalized entropy=0.6459592292641139
SPLASH=splash10-014i-9800000000-06f61df6389fe198109b
submitter=submitter = University of Tokyo Team (Faculty of Engineering, University of Tokyo)
MoNA Rating=3.75

>  <NUM PEAKS>  (5027) 
25

>  <MASS SPECTRAL PEAKS>  (5027) 
43 3.22
45 6.52
47 2.62
55 4.79
56 1.69
57 1.38
58 1.36
59 2.23
61 3.91
69 1.49
70 1.7
72 1.35
73 49.42
74 4.59
75 40.04
76 2.93
77 1.49
101 1.5
103 1.84
117 99.99
118 10.78
119 4
187 8.55
188 1.35
202 0.09

>  <PREDICTED SPECTRUM>  (5027) 
27 53
28 17
29 44
38 1
39 77
40 49
41 228
42 101
43 223
44 101
45 128
46 0
47 88
51 19
52 55
53 77
54 57
55 203
56 43
57 112
58 58
59 135
60 13
61 139
67 64
68 35
69 160
70 170
71 67
72 72
73 746
74 230
75 573
76 147
77 125
78 28
83 141
84 60
85 14
89 81
91 39
97 138
101 80
102 16
103 140
112 94
115 80
116 40
117 999
118 317
119 189
130 22
131 43
143 135
158 35
159 53
187 310
188 123
189 72

$$$$

     RDKit          2D

 12 11  0  0  0  0  0  0  0  0999 V2000
    1.5368    4.6373    0.0000 C   0  0  0  0  0  0  0  0  0  0  0  0
   -4.9584    6.8873    0.0000 C   0  0  0  0  0  0  0  0  0  0  0  0
   -4.7575    3.1373    0.0000 C   0  0  0  0  0  0  0  0  0  0  0  0
   -6.2575    1.6373    0.0000 C   0  0  0  0  0  0  0  0  0  0  0  0
   -7.7575    3.1373    0.0000 C   0  0  0  0  0  0  0  0  0  0  0  0
    0.2377    5.3873    0.0000 C   0  0  0  0  0  0  0  0  0  0  0  0
   -1.0613    4.6373    0.0000 C   0  0  0  0  0  0  0  0  0  0  0  0
   -2.3603    5.3873    0.0000 C   0  0  0  0  0  0  0  0  0  0  0  0
   -3.6594    4.6373    0.0000 C   0  0  0  0  0  0  0  0  0  0  0  0
   -4.9584    5.3873    0.0000 C   0  0  0  0  0  0  0  0  0  0  0  0
   -6.2575    3.1373    0.0000 C   0  0  0  0  0  0  0  0  0  0  0  0
   -6.2575    4.6373    0.0000 N   0  0  0  0  0  0  0  0  0  0  0  0
  6  1  1  0
  7  6  1  0
  8  7  1  0
  9  8  1  0
 10  2  1  0
 10  9  1  0
 11  3  1  0
 11  4  1  0
 11  5  1  0
 10 12  2  0
 12 11  1  0
M  END
>  <NAME>  (5028) 
N-(TERT-BUTYL)-2-HEPTANIMINE

>  <SYNONYMS>  (5028) 


>  <SPECTRUM TYPE>  (5028) 
MS1

>  <INSTRUMENT TYPE>  (5028) 
EI-B

>  <INSTRUMENT>  (5028) 
JEOL JMS-D-3000

>  <ION MODE>  (5028) 
P

>  <INCHIKEY>  (5028) 
MVGGGQZIXGZLBW-BENRWUELSA-N

>  <FORMULA>  (5028) 
C11H23N

>  <EXACT MASS>  (5028) 
169.183049736

>  <MW>  (5028) 
169

>  <ID>  (5028) 
JP002244

>  <CONTRIBUTOR>  (5028) 
University of Tokyo Team, {Faculty of Engineering, University of Tokyo

>  <COMMENT>  (5028) 
SMILES=CCCCCC(C)=NC(C)(C)C
InChI=InChI=1S/C11H23N/c1-6-7-8-9-10(2)12-11(3,4)5/h6-9H2,1-5H3/b12-10-
computed SMILES=N(=C(C)CCCCC)C(C)(C)C
accession=JP002244
date=2016.01.19 (Created 2008.10.21, modified 2011.05.06)
author=MASS SPECTROSCOPY SOC. OF JAPAN (MSSJ)
license=CC BY-NC-SA
exact mass=169.18305
ionization energy=70 eV
ion type=[M]+*
computed spectral entropy=2.5227884646206955
computed normalized entropy=0.7938155233652826
SPLASH=splash10-0a4l-9100000000-ebbb62aa1098c4a41794
submitter=submitter = University of Tokyo Team (Faculty of Engineering, University of Tokyo)
MoNA Rating=3.75

>  <NUM PEAKS>  (5028) 
24

>  <MASS SPECTRAL PEAKS>  (5028) 
41 46.11
42 32.28
43 32.45
53 1.82
54 1.62
55 13.45
56 10.86
57 99.99
58 43.7
59 5.24
69 1.06
70 23.24
71 11.27
72 1.72
82 1.72
84 6.93
96 1.48
98 14.17
99 1.82
113 16.72
114 6.62
126 4.17
154 10.34
169 1.44

>  <PREDICTED SPECTRUM>  (5028) 
27 168
28 55
29 278
38 6
39 221
40 124
41 640
42 393
43 618
44 70
50 16
51 49
52 35
53 143
54 88
55 374
56 508
57 999
58 569
59 152
68 52
69 92
70 449
71 450
72 51
82 3
83 22
84 86
85 21
96 78
98 497
99 207
112 268
113 468
114 214
126 133
154 248
155 13
169 134
170 12

$$$$

     RDKit          2D

 13 13  0  0  0  0  0  0  0  0999 V2000
    2.8183   -1.1087    0.0000 C   0  0  0  0  0  0  0  0  0  0  0  0
    4.8672   -0.5594    0.0000 C   0  0  0  0  0  0  0  0  0  0  0  0
    4.3179    1.4896    0.0000 C   0  0  0  0  0  0  0  0  0  0  0  0
   -1.6200   -1.3100    0.0000 C   0  0  0  0  0  0  0  0  0  0  0  0
   -0.3300   -2.0600    0.0000 C   0  0  0  0  0  0  0  0  0  0  0  0
   -1.6200    0.1900    0.0000 C   0  0  0  0  0  0  0  0  0  0  0  0
    0.9700   -1.3100    0.0000 C   0  0  0  0  0  0  0  0  0  0  0  0
   -0.3325    2.4400    0.0000 C   0  0  0  0  0  0  0  0  0  0  0  0
    2.2689    0.9402    0.0000 C   0  0  0  0  0  0  0  0  0  0  0  0
   -0.3300    0.9400    0.0000 C   0  0  0  0  0  0  0  0  0  0  0  0
    0.9700    0.1900    0.0000 C   0  0  0  0  0  0  0  0  0  0  0  0
   -1.6328    3.1878    0.0000 O   0  0  0  0  0  0  0  0  0  0  0  0
    3.5681    0.1904    0.0000 Si  0  0  0  0  0  4  0  0  0  0  0  0
  5  4  2  0
  6  4  1  0
  7  5  1  0
 10  6  2  0
 10  8  1  0
 11  7  2  0
 11  9  1  0
 11 10  1  0
 12  8  1  0
 13  1  1  0
 13  2  1  0
 13  3  1  0
 13  9  1  0
M  END
>  <NAME>  (5029) 
2-(TRIMETHYLSILYLMETHYL)BENZYL ALCOHOL

>  <SYNONYMS>  (5029) 


>  <SPECTRUM TYPE>  (5029) 
MS1

>  <INSTRUMENT TYPE>  (5029) 
EI-B

>  <INSTRUMENT>  (5029) 
JEOL JMS-D-3000

>  <ION MODE>  (5029) 
P

>  <INCHIKEY>  (5029) 
GDBYLQNQAUNHCX-UHFFFAOYSA-N

>  <FORMULA>  (5029) 
C11H18OSi

>  <EXACT MASS>  (5029) 
194.11269172599998

>  <MW>  (5029) 
194

>  <ID>  (5029) 
JP002243

>  <CONTRIBUTOR>  (5029) 
University of Tokyo Team, {Faculty of Engineering, University of Tokyo

>  <COMMENT>  (5029) 
SMILES=OCc(c1)c(ccc1)C[Si](C)(C)C
InChI=InChI=1S/C11H18OSi/c1-13(2,3)9-11-7-5-4-6-10(11)8-12/h4-7,12H,8-9H2,1-3H3
computed SMILES=OCC=1C=CC=CC1C[Si](C)(C)C
accession=JP002243
date=2016.01.19 (Created 2008.10.21, modified 2011.05.06)
author=MASS SPECTROSCOPY SOC. OF JAPAN (MSSJ)
license=CC BY-NC-SA
exact mass=194.11269
ionization energy=70 eV
ion type=[M]+*
computed spectral entropy=1.9772965315315942
computed normalized entropy=0.6396859834077421
SPLASH=splash10-0udi-7900000000-c046c485f47a6ef6483d
submitter=submitter = University of Tokyo Team (Faculty of Engineering, University of Tokyo)
MoNA Rating=3.75

>  <NUM PEAKS>  (5029) 
22

>  <MASS SPECTRAL PEAKS>  (5029) 
43 3.1
44 1.34
45 8.85
47 3.57
51 1.38
59 1.43
61 2.04
65 1.57
73 36.98
74 3.36
75 28
76 2.32
77 4.4
78 4.69
91 2.72
103 4.29
104 99.99
105 10.38
119 1.12
161 1.82
179 1.34
194 0.06

>  <PREDICTED SPECTRUM>  (5029) 
29 79
39 23
43 122
44 38
45 324
46 26
47 110
50 38
51 180
52 80
53 75
57 15
59 165
60 88
61 43
63 13
65 152
66 32
69 39
73 999
74 290
75 531
76 117
77 406
78 171
79 74
85 0
89 136
91 221
92 61
103 261
104 548
105 343
106 110
107 64
115 64
118 42
119 136
120 46
127 17
131 54
132 120
135 7
179 111
194 137

$$$$

     RDKit          2D

 19 18  0  0  0  0  0  0  0  0999 V2000
    3.0861    4.1347    0.0000 C   0  0  0  0  0  0  0  0  0  0  0  0
    1.7871    6.3847    0.0000 C   0  0  0  0  0  0  0  0  0  0  0  0
   -7.7219    4.3747    0.0000 C   0  0  0  0  0  0  0  0  0  0  0  0
   -6.4228    6.6247    0.0000 C   0  0  0  0  0  0  0  0  0  0  0  0
   -0.4761    2.9856    0.0000 C   0  0  0  0  0  0  0  0  0  0  0  0
    1.4522    2.9856    0.0000 C   0  0  0  0  0  0  0  0  0  0  0  0
   -6.0880    3.2256    0.0000 C   0  0  0  0  0  0  0  0  0  0  0  0
   -4.1596    3.2256    0.0000 C   0  0  0  0  0  0  0  0  0  0  0  0
    0.1532    6.0337    0.0000 C   0  0  0  0  0  0  0  0  0  0  0  0
   -1.7752    6.0337    0.0000 C   0  0  0  0  0  0  0  0  0  0  0  0
   -2.8606    6.2737    0.0000 C   0  0  0  0  0  0  0  0  0  0  0  0
   -4.7889    6.2737    0.0000 C   0  0  0  0  0  0  0  0  0  0  0  0
    1.7871    4.8847    0.0000 C   0  0  0  0  0  0  0  0  0  0  0  0
   -6.4228    5.1247    0.0000 C   0  0  0  0  0  0  0  0  0  0  0  0
   -2.1100    4.1347    0.0000 O   0  0  0  0  0  0  0  0  0  0  0  0
    0.4881    4.1347    0.0000 Si  0  0  0  0  0  4  0  0  0  0  0  0
   -5.1238    4.3747    0.0000 Si  0  0  0  0  0  4  0  0  0  0  0  0
   -0.8110    4.8847    0.0000 Si  0  0  0  0  0  4  0  0  0  0  0  0
   -3.8247    5.1247    0.0000 Si  0  0  0  0  0  4  0  0  0  0  0  0
 13  1  1  0
 13  2  1  0
 14  3  1  0
 14  4  1  0
 16  5  1  0
 16  6  1  0
 16 13  1  0
 17  7  1  0
 17  8  1  0
 17 14  1  0
 18  9  1  0
 18 10  1  0
 18 15  1  0
 18 16  1  0
 19 11  1  0
 19 12  1  0
 19 15  1  0
 19 17  1  0
M  END
>  <NAME>  (5030) 
2,3,3,4,4,6,6,7,7,8-DECAMETHYL-5-OXA-3,4,6,7-TETRASILANONANE

>  <SYNONYMS>  (5030) 


>  <SPECTRUM TYPE>  (5030) 
MS1

>  <INSTRUMENT TYPE>  (5030) 
EI-B

>  <INSTRUMENT>  (5030) 
JEOL JMS-D-3000

>  <ION MODE>  (5030) 
P

>  <INCHIKEY>  (5030) 
ILTJVKMWYFGWOL-UHFFFAOYSA-N

>  <FORMULA>  (5030) 
C14H38OSi4

>  <EXACT MASS>  (5030) 
334.19997195599996

>  <MW>  (5030) 
334

>  <ID>  (5030) 
JP002242

>  <CONTRIBUTOR>  (5030) 
University of Tokyo Team, {Faculty of Engineering, University of Tokyo

>  <COMMENT>  (5030) 
SMILES=CC(C)[Si](C)(C)[Si](C)(C)O[Si](C)(C)[Si](C)(C)C(C)C
InChI=InChI=1S/C14H38OSi4/c1-13(2)16(5,6)18(9,10)15-19(11,12)17(7,8)14(3)4/h13-14H,1-12H3
computed SMILES=O([Si](C)(C)[Si](C)(C)C(C)C)[Si](C)(C)[Si](C)(C)C(C)C
accession=JP002242
date=2016.01.19 (Created 2008.10.21, modified 2011.05.06)
author=MASS SPECTROSCOPY SOC. OF JAPAN (MSSJ)
license=CC BY-NC-SA
exact mass=334.19997
ionization energy=70 eV
ion type=[M]+*
computed spectral entropy=3.1594467715706074
computed normalized entropy=0.7920429700118379
SPLASH=splash10-0006-1920000000-e73398592b78c1fe3008
submitter=submitter = University of Tokyo Team (Faculty of Engineering, University of Tokyo)
MoNA Rating=3.75

>  <NUM PEAKS>  (5030) 
54

>  <MASS SPECTRAL PEAKS>  (5030) 
45 1.45
59 8.11
73 31.42
74 2.75
75 1.27
85 1.55
101 1.9
103 2.03
117 9.38
118 1.38
119 1.54
129 1.41
131 4.83
133 10.11
134 1.37
143 1.64
144 7.1
145 5.45
146 1.34
147 13.66
148 2.05
149 1.13
159 6.31
160 2.44
161 3.08
174 3.83
175 13.93
176 4.14
177 2.61
189 3.28
190 1.27
191 99.99
192 23.33
193 13.17
194 2.09
203 1.54
217 1.8
219 2.09
233 24.3
234 6.51
235 7.07
236 1.78
249 8.52
250 2.73
251 1.66
277 2.59
291 11.23
292 3.8
293 2.2
319 3.61
320 1.37
334 5.53
335 2.06
336 1.15

>  <PREDICTED SPECTRUM>  (5030) 
27 24
29 12
39 26
41 89
43 130
44 29
45 118
46 0
47 52
58 25
59 297
60 15
61 7
66 56
72 94
73 703
74 161
75 189
76 34
87 54
89 64
91 24
93 9
100 52
101 113
102 86
103 209
105 22
107 41
115 114
116 34
117 305
118 123
119 153
120 42
127 63
129 135
130 68
131 260
132 144
133 364
134 65
135 132
143 75
144 48
145 248
146 158
147 482
148 174
149 157
159 157
160 116
161 353
162 66
163 124
164 2
165 6
173 128
174 305
175 283
176 111
177 142
178 74
179 58
180 54
189 286
190 209
191 999
192 400
193 223
194 102
203 21
205 38
206 35
207 112
208 19
216 22
217 168
218 64
219 73
232 51
233 307
234 187
235 390
236 155
237 49
238 8
247 32
248 44
249 298
250 155
251 90
261 9
277 134
291 327
292 295
293 128
319 178
320 107
321 33
334 196
335 76
336 75

$$$$

     RDKit          2D

 14 14  0  0  0  0  0  0  0  0999 V2000
   -2.5989   -1.5002    0.0000 C   0  0  0  0  0  0  0  0  0  0  0  0
   -1.3000    0.7500    0.0000 C   0  0  0  0  0  0  0  0  0  0  0  0
   -0.0000   -1.5000    0.0000 C   0  0  0  0  0  0  0  0  0  0  0  0
    0.0000    1.5000    0.0000 C   0  0  0  0  0  0  0  0  0  0  0  0
    1.3000   -0.7500    0.0000 C   0  0  0  0  0  0  0  0  0  0  0  0
    5.1970    1.5006    0.0000 C   0  0  0  0  0  0  0  0  0  0  0  0
   -1.3000   -0.7500    0.0000 C   0  0  0  0  0  0  0  0  0  0  0  0
    1.3000    0.7500    0.0000 C   0  0  0  0  0  0  0  0  0  0  0  0
    6.4962    0.7508    0.0000 C   0  0  0  0  0  0  0  0  0  0  0  0
    2.5989    1.5002    0.0000 C   0  0  0  0  0  0  0  0  0  0  0  0
    3.8981    0.7504    0.0000 N   0  0  0  0  0  0  0  0  0  0  0  0
    6.4964   -0.7492    0.0000 O   0  0  0  0  0  0  0  0  0  0  0  0
    7.7951    1.5010    0.0000 O   0  0  0  0  0  0  0  0  0  0  0  0
    2.5987    3.0002    0.0000 O   0  0  0  0  0  0  0  0  0  0  0  0
  4  2  2  0
  5  3  1  0
  7  1  1  0
  7  2  1  0
  7  3  2  0
  8  4  1  0
  8  5  2  0
  9  6  1  0
 10  8  1  0
 11  6  1  0
 11 10  1  0
 12  9  2  0
 13  9  1  0
 14 10  2  0
M  END
>  <NAME>  (5031) 
PARA-METHYLHIPPURIC ACID

>  <SYNONYMS>  (5031) 


>  <SPECTRUM TYPE>  (5031) 
MS1

>  <INSTRUMENT TYPE>  (5031) 
EI-B

>  <INSTRUMENT>  (5031) 
VARIAN MAT-44

>  <ION MODE>  (5031) 
P

>  <INCHIKEY>  (5031) 
NRSCPTLHWVWLLH-UHFFFAOYSA-N

>  <FORMULA>  (5031) 
C10H11NO3

>  <EXACT MASS>  (5031) 
193.073893212

>  <MW>  (5031) 
193

>  <ID>  (5031) 
JP002238

>  <CONTRIBUTOR>  (5031) 
University of Tokyo Team, {Faculty of Engineering, University of Tokyo

>  <COMMENT>  (5031) 
SMILES=OC(=O)CNC(=O)c(c1)ccc(C)c1
InChI=InChI=1S/C10H11NO3/c1-7-2-4-8(5-3-7)10(14)11-6-9(12)13/h2-5H,6H2,1H3,(H,11,14)(H,12,13)
computed SMILES=O=C(O)CNC(=O)C1=CC=C(C=C1)C
accession=JP002238
date=2016.01.19 (Created 2008.10.21, modified 2011.05.06)
author=KOGA M, UNIV. OF OCCUPATIONAL AND ENVIRONMENTAL HEALTH
license=CC BY-NC-SA
exact mass=193.07389
ionization energy=70 eV
ion type=[M]+*
computed spectral entropy=2.24511468343678
computed normalized entropy=0.7263292941827884
SPLASH=splash10-014i-5900000000-3993dac60df8a66d7eb9
submitter=submitter = University of Tokyo Team (Faculty of Engineering, University of Tokyo)
MoNA Rating=3.75

>  <NUM PEAKS>  (5031) 
22

>  <MASS SPECTRAL PEAKS>  (5031) 
51 4.11
56 1.61
62 2.54
63 7.7
64 3.22
65 30.06
66 1.93
73 1.25
74 1.61
77 1.61
89 8.31
90 8.95
91 17.67
92 6.05
105 1.29
118 11.54
119 99.99
120 10.04
148 10.93
149 17.11
150 1.57
193 1.25

>  <PREDICTED SPECTRUM>  (5031) 
17 0
18 0
26 11
27 57
28 44
29 65
30 20
38 42
39 186
40 75
41 116
42 72
43 60
44 63
45 65
46 23
50 82
51 124
52 68
53 50
54 7
55 19
56 36
57 6
62 70
63 157
64 87
65 330
66 77
67 1
68 9
74 27
75 26
76 35
77 109
78 41
79 61
89 199
90 156
91 546
92 157
93 72
105 44
107 20
118 49
119 999
120 265
121 97
134 4
136 132
146 8
147 120
148 263
149 242
150 20
175 59
176 14
193 256
194 79

$$$$

     RDKit          2D

 14 14  0  0  0  0  0  0  0  0999 V2000
   -3.2521   -1.1338    0.0000 C   0  0  0  0  0  0  0  0  0  0  0  0
   -0.6482   -4.1238    0.0000 C   0  0  0  0  0  0  0  0  0  0  0  0
   -1.9473   -3.3738    0.0000 C   0  0  0  0  0  0  0  0  0  0  0  0
    0.6463   -3.3816    0.0000 C   0  0  0  0  0  0  0  0  0  0  0  0
   -0.6523   -1.1308    0.0000 C   0  0  0  0  0  0  0  0  0  0  0  0
    4.5440   -1.1314    0.0000 C   0  0  0  0  0  0  0  0  0  0  0  0
   -1.9518   -1.8816    0.0000 C   0  0  0  0  0  0  0  0  0  0  0  0
    0.6468   -1.8808    0.0000 C   0  0  0  0  0  0  0  0  0  0  0  0
    5.8429   -1.8816    0.0000 C   0  0  0  0  0  0  0  0  0  0  0  0
    1.9459   -1.1310    0.0000 C   0  0  0  0  0  0  0  0  0  0  0  0
    3.2449   -1.8812    0.0000 N   0  0  0  0  0  0  0  0  0  0  0  0
    5.8427   -3.3816    0.0000 O   0  0  0  0  0  0  0  0  0  0  0  0
    7.1421   -1.1318    0.0000 O   0  0  0  0  0  0  0  0  0  0  0  0
    1.9462    0.3690    0.0000 O   0  0  0  0  0  0  0  0  0  0  0  0
  3  2  2  0
  4  2  1  0
  7  1  1  0
  7  3  1  0
  7  5  2  0
  8  4  2  0
  8  5  1  0
  9  6  1  0
 10  8  1  0
 11  6  1  0
 11 10  2  3
 12  9  2  0
 13  9  1  0
 14 10  1  0
M  END
>  <NAME>  (5032) 
META-METHYLHIPPURIC ACID

>  <SYNONYMS>  (5032) 


>  <SPECTRUM TYPE>  (5032) 
MS1

>  <INSTRUMENT TYPE>  (5032) 
EI-B

>  <INSTRUMENT>  (5032) 
VARIAN MAT-44

>  <ION MODE>  (5032) 
P

>  <INCHIKEY>  (5032) 
YKAKNMHEIJUKEX-UHFFFAOYSA-N

>  <FORMULA>  (5032) 
C10H11NO3

>  <EXACT MASS>  (5032) 
193.073893212

>  <MW>  (5032) 
193

>  <ID>  (5032) 
JP002237

>  <CONTRIBUTOR>  (5032) 
University of Tokyo Team, {Faculty of Engineering, University of Tokyo

>  <COMMENT>  (5032) 
SMILES=OC(=O)CNC(=O)c(c1)cc(C)cc1
InChI=InChI=1S/C10H11NO3/c1-7-3-2-4-8(5-7)10(14)11-6-9(12)13/h2-5H,6H2,1H3,(H,11,14)(H,12,13)
computed SMILES=O=C(O)CN=C(O)C1=CC=CC(=C1)C
accession=JP002237
date=2016.01.19 (Created 2008.10.21, modified 2011.05.06)
author=KOGA M, UNIV. OF OCCUPATIONAL AND ENVIRONMENTAL HEALTH
license=CC BY-NC-SA
exact mass=193.07389
ionization energy=70 eV
ion type=[M]+*
computed spectral entropy=2.3668745027803997
computed normalized entropy=0.7548648920339396
SPLASH=splash10-014i-6900000000-4a327638e0211a45d7b3
submitter=submitter = University of Tokyo Team (Faculty of Engineering, University of Tokyo)
MoNA Rating=3.75

>  <NUM PEAKS>  (5032) 
23

>  <MASS SPECTRAL PEAKS>  (5032) 
51 4.67
52 1.29
56 2.16
62 2.82
63 8.84
64 4.08
65 28.6
66 1.92
74 2.82
77 2.16
89 8.76
90 10.33
91 32.06
92 10.05
105 1.8
118 8.72
119 99.99
120 10.05
134 2.75
148 15.44
149 21.1
150 2.23
193 1.17

>  <PREDICTED SPECTRUM>  (5032) 
14 25
15 67
16 15
17 26
18 32
19 0
26 49
27 104
28 79
29 79
31 17
32 17
33 3
34 0
36 34
37 63
38 116
39 337
40 149
41 216
42 185
43 103
44 162
45 265
46 38
49 18
50 178
51 330
52 180
53 197
54 66
55 71
56 73
57 68
58 121
59 127
60 26
61 46
62 161
63 295
64 148
65 477
66 121
67 70
68 70
69 77
70 7
72 5
73 49
74 124
75 97
76 78
77 344
78 138
79 155
80 48
81 48
82 111
83 8
86 26
87 84
88 80
89 296
90 174
91 840
92 262
93 93
94 56
101 13
102 277
103 253
104 219
105 288
106 34
107 85
108 12
115 212
116 112
117 132
118 257
119 598
120 194
121 117
129 5
130 105
131 219
132 137
133 31
134 164
135 109
136 59
145 22
146 255
147 399
148 999
149 538
150 179
175 222
176 54
193 380
194 114
195 56

$$$$

     RDKit          2D

 14 14  0  0  0  0  0  0  0  0999 V2000
    6.1776   -2.0598    0.0000 C   0  0  0  0  0  0  0  0  0  0  0  0
    7.4651    1.6902    0.0000 C   0  0  0  0  0  0  0  0  0  0  0  0
    6.1751    2.4402    0.0000 C   0  0  0  0  0  0  0  0  0  0  0  0
    7.4651    0.1902    0.0000 C   0  0  0  0  0  0  0  0  0  0  0  0
    4.8751    1.6902    0.0000 C   0  0  0  0  0  0  0  0  0  0  0  0
    0.9781   -0.5604    0.0000 C   0  0  0  0  0  0  0  0  0  0  0  0
    6.1751   -0.5598    0.0000 C   0  0  0  0  0  0  0  0  0  0  0  0
    4.8751    0.1902    0.0000 C   0  0  0  0  0  0  0  0  0  0  0  0
   -0.3211    0.1894    0.0000 C   0  0  0  0  0  0  0  0  0  0  0  0
    3.5762   -0.5600    0.0000 C   0  0  0  0  0  0  0  0  0  0  0  0
    2.2770    0.1898    0.0000 N   0  0  0  0  0  0  0  0  0  0  0  0
   -0.3213    1.6894    0.0000 O   0  0  0  0  0  0  0  0  0  0  0  0
   -1.6200   -0.5608    0.0000 O   0  0  0  0  0  0  0  0  0  0  0  0
    3.5764   -2.0600    0.0000 O   0  0  0  0  0  0  0  0  0  0  0  0
  3  2  2  0
  4  2  1  0
  5  3  1  0
  7  1  1  0
  7  4  2  0
  8  5  2  0
  8  7  1  0
  9  6  1  0
 10  8  1  0
 11  6  1  0
 11 10  2  3
 12  9  2  0
 13  9  1  0
 14 10  1  0
M  END
>  <NAME>  (5033) 
ORTHO-METHYLHIPPURIC ACID

>  <SYNONYMS>  (5033) 


>  <SPECTRUM TYPE>  (5033) 
MS1

>  <INSTRUMENT TYPE>  (5033) 
EI-B

>  <INSTRUMENT>  (5033) 
VARIAN MAT-44

>  <ION MODE>  (5033) 
P

>  <INCHIKEY>  (5033) 
YOEBAVRJHRCKRE-UHFFFAOYSA-N

>  <FORMULA>  (5033) 
C10H11NO3

>  <EXACT MASS>  (5033) 
193.073893212

>  <MW>  (5033) 
193

>  <ID>  (5033) 
JP002236

>  <CONTRIBUTOR>  (5033) 
University of Tokyo Team, {Faculty of Engineering, University of Tokyo

>  <COMMENT>  (5033) 
SMILES=OC(=O)CNC(=O)c(c1)c(C)ccc1
InChI=InChI=1S/C10H11NO3/c1-7-4-2-3-5-8(7)10(14)11-6-9(12)13/h2-5H,6H2,1H3,(H,11,14)(H,12,13)
computed SMILES=O=C(O)CN=C(O)C=1C=CC=CC1C
accession=JP002236
license=CC BY-NC-SA
date=2016.01.19 (Created 2008.10.21, modified 2011.05.06)
author=KOGA M, UNIV. OF OCCUPATIONAL AND ENVIRONMENTAL HEALTH
exact mass=193.07389
ionization energy=70 eV
ion type=[M]+*
computed spectral entropy=2.259413392518371
computed normalized entropy=0.7205924287915909
SPLASH=splash10-014l-8900000000-f3facdb25edf52b32bf5
submitter=submitter = University of Tokyo Team (Faculty of Engineering, University of Tokyo)
MoNA Rating=3.75

>  <NUM PEAKS>  (5033) 
23

>  <MASS SPECTRAL PEAKS>  (5033) 
51 4.89
56 2.44
62 2.44
63 7.69
64 3.14
65 31.11
66 2.79
73 2.44
74 3.14
77 2.44
89 13.28
90 21.67
91 86.71
92 10.48
105 2.09
117 4.89
118 72.72
119 99.99
120 8.74
148 2.09
149 2.44
175 2.79
193 8.04

>  <PREDICTED SPECTRUM>  (5033) 
14 33
15 68
16 28
17 61
18 78
19 11
26 54
27 116
28 122
29 58
30 25
31 5
32 32
33 7
36 56
37 103
38 169
39 454
40 197
41 237
42 286
43 144
44 250
45 392
46 87
49 50
50 299
51 444
52 288
53 247
54 156
55 148
56 269
57 172
58 196
59 183
60 46
61 80
62 220
63 425
64 260
65 599
66 203
67 78
68 77
69 70
70 68
71 22
72 65
73 80
74 193
75 198
76 179
77 455
78 258
79 188
80 71
81 45
82 82
83 63
84 112
85 10
86 57
87 107
88 75
89 457
90 364
91 999
92 345
93 139
96 19
101 108
102 262
103 347
104 268
105 286
106 52
107 93
115 201
116 254
117 315
118 445
119 654
120 108
121 69
128 62
129 83
130 407
131 499
132 262
133 32
134 124
135 87
136 3
144 40
145 84
146 389
147 582
148 704
149 312
150 49
174 179
175 514
176 246
177 34
193 285
194 79

$$$$

     RDKit          2D

 18 18  0  0  0  0  0  0  0  0999 V2000
   -4.2212    3.1329    0.0000 C   0  0  0  0  0  0  0  0  0  0  0  0
   -5.5203    3.8829    0.0000 H   0  0  0  0  0  0  0  0  0  0  0  0
   -4.2217    1.6320    0.0000 C   0  0  0  0  0  0  0  0  0  0  0  0
   -5.5209    0.8822    0.0000 H   0  0  0  0  0  0  0  0  0  0  0  0
   -2.9217    3.8837    0.0000 C   0  0  0  0  0  0  0  0  0  0  0  0
   -2.9220    5.3837    0.0000 H   0  0  0  0  0  0  0  0  0  0  0  0
   -2.9227    0.8820    0.0000 C   0  0  0  0  0  0  0  0  0  0  0  0
   -2.9224   -0.6180    0.0000 H   0  0  0  0  0  0  0  0  0  0  0  0
   -1.6227    3.1337    0.0000 C   0  0  0  0  0  0  0  0  0  0  0  0
   -0.3235    3.8835    0.0000 H   0  0  0  0  0  0  0  0  0  0  0  0
    2.2739    0.8829    0.0000 C   0  0  0  0  0  0  0  0  0  0  0  0
   -1.6232    1.6329    0.0000 C   0  0  0  0  0  0  0  0  0  0  0  0
    3.5730    1.6329    0.0000 C   0  0  0  0  0  0  0  0  0  0  0  0
   -0.3241    0.8829    0.0000 C   0  0  0  0  0  0  0  0  0  0  0  0
    0.9749    1.6329    0.0000 N   0  0  0  0  0  0  0  0  0  0  0  0
    3.5730    3.1329    0.0000 O   0  0  0  0  0  0  0  0  0  0  0  0
    4.8720    0.8829    0.0000 O   0  0  0  0  0  0  0  0  0  0  0  0
   -0.3241   -0.6171    0.0000 O   0  0  0  0  0  0  0  0  0  0  0  0
  1  2  1  0
  3  4  1  0
  5  6  1  0
  7  8  1  0
  9 10  1  0
  3  1  2  0
  5  1  1  0
  7  3  1  0
  9  5  2  0
 12  7  2  0
 12  9  1  0
 13 11  1  0
 14 12  1  0
 15 11  1  0
 15 14  2  3
 16 13  2  0
 17 13  1  0
 18 14  1  0
M  ISO  5   2   2   4   2   6   2   8   2  10   2
M  END
>  <NAME>  (5034) 
N-BENZOYL(D5) GLYCINE

>  <SYNONYMS>  (5034) 


>  <SPECTRUM TYPE>  (5034) 
MS1

>  <INSTRUMENT TYPE>  (5034) 
EI-B

>  <INSTRUMENT>  (5034) 
VARIAN MAT-44

>  <ION MODE>  (5034) 
P

>  <INCHIKEY>  (5034) 
QIAFMBKCNZACKA-RALIUCGRSA-N

>  <FORMULA>  (5034) 
C9H9NO3

>  <EXACT MASS>  (5034) 
184.089626878

>  <MW>  (5034) 
184

>  <ID>  (5034) 
JP002235

>  <CONTRIBUTOR>  (5034) 
University of Tokyo Team, {Faculty of Engineering, University of Tokyo

>  <COMMENT>  (5034) 
SMILES=OC(=O)CNC(=O)c(c([2H])1)c([2H])c([2H])c([2H])c([2H])1
InChI=InChI=1S/C9H9NO3/c11-8(12)6-10-9(13)7-4-2-1-3-5-7/h1-5H,6H2,(H,10,13)(H,11,12)/i1D,2D,3D,4D,5D
computed SMILES=[H]C=1C(C(O)=NCC(=O)O)=C([H])C([H])=C([H])C1[H]
accession=JP002235
date=2016.01.19 (Created 2008.10.21, modified 2011.05.06)
author=KOGA M, UNIV. OF OCCUPATIONAL AND ENVIRONMENTAL HEALTH
license=CC BY-NC-SA
exact mass=179.05824
ionization energy=70 eV
ion type=[M]+*
computed spectral entropy=2.3072694815394996
computed normalized entropy=0.5960086998939867
SPLASH=splash10-0il0-9700000000-5eb7d5acc34cdb44f3e0
submitter=submitter = University of Tokyo Team (Faculty of Engineering, University of Tokyo)
MoNA Rating=3.75

>  <NUM PEAKS>  (5034) 
48

>  <MASS SPECTRAL PEAKS>  (5034) 
51 1.33
52 10.48
53 5.32
54 50.74
55 4.15
56 2.66
57 0.16
59 0.16
61 0.16
63 0.16
71 0.16
72 0.16
73 0.16
76 2.49
77 2.32
78 1.33
79 0.16
80 4.15
81 13.31
82 78.53
83 6.65
85 0.16
86 0.16
95 0.16
96 0.16
97 0.16
105 2.32
106 0.16
107 0.16
108 0.99
109 14.47
110 99.99
111 7.98
117 0.16
120 0.16
121 0.16
127 0.16
132 0.16
136 0.16
138 6.32
139 7.65
140 19.63
141 1.16
142 0.16
165 0.16
166 0.16
184 0.99
185 0.16

>  <PREDICTED SPECTRUM>  (5034) 
14 35
15 52
16 36
17 59
18 98
25 34
26 96
27 170
28 209
29 135
30 224
31 86
32 25
36 72
37 128
38 205
39 312
40 218
41 392
42 390
43 289
44 296
45 228
46 109
49 42
50 170
51 228
52 357
53 385
54 327
55 169
56 193
57 163
58 143
59 3
60 12
62 42
63 160
64 238
65 262
66 330
67 312
68 276
69 156
70 135
71 85
72 134
73 115
74 88
75 123
76 177
77 145
78 249
79 234
80 195
81 214
82 227
83 155
84 93
85 96
86 35
90 88
91 219
92 280
93 302
94 277
95 245
96 178
97 184
98 94
99 30
101 9
103 5
104 20
105 17
107 57
108 245
109 283
110 240
111 129
112 58
120 146
121 304
122 296
123 233
124 133
125 137
126 102
127 60
128 66
133 16
136 69
137 195
138 364
139 442
140 260
141 61
147 72
148 51
149 128
150 88
151 167
152 8
164 40
165 343
166 999
167 431
168 112
184 257
185 49

$$$$

     RDKit          2D

 14 14  0  0  0  0  0  0  0  0999 V2000
    3.5726    1.6321    0.0000 C   0  0  0  0  0  0  0  0  0  0  0  0
    3.5731    3.1329    0.0000 C   0  0  0  0  0  0  0  0  0  0  0  0
    2.2731    0.8813    0.0000 C   0  0  0  0  0  0  0  0  0  0  0  0
    2.2740    3.8829    0.0000 C   0  0  0  0  0  0  0  0  0  0  0  0
    0.9740    1.6313    0.0000 C   0  0  0  0  0  0  0  0  0  0  0  0
   -0.3245    3.8821    0.0000 C   0  0  0  0  0  0  0  0  0  0  0  0
   -4.2216    3.1321    0.0000 C   0  0  0  0  0  0  0  0  0  0  0  0
    0.9745    3.1321    0.0000 C   0  0  0  0  0  0  0  0  0  0  0  0
   -1.6236    3.1321    0.0000 C   0  0  0  0  0  0  0  0  0  0  0  0
   -5.5207    3.8821    0.0000 C   0  0  0  0  0  0  0  0  0  0  0  0
   -2.9226    3.8821    0.0000 N   0  0  0  0  0  0  0  0  0  0  0  0
   -1.6236    1.6321    0.0000 O   0  0  0  0  0  0  0  0  0  0  0  0
   -5.5207    5.3821    0.0000 O   0  0  0  0  0  0  0  0  0  0  0  0
   -6.8197    3.1321    0.0000 O   0  0  0  0  0  0  0  0  0  0  0  0
  2  1  2  0
  3  1  1  0
  4  2  1  0
  5  3  2  0
  8  4  2  0
  8  5  1  0
  8  6  1  0
  9  6  1  0
 10  7  1  0
 11  7  1  0
 11  9  2  3
 12  9  1  0
 13 10  2  0
 14 10  1  0
M  END
>  <NAME>  (5035) 
PHENATURIC ACID

>  <SYNONYMS>  (5035) 
PHENYLACETAMIDOACETIC ACID

>  <SPECTRUM TYPE>  (5035) 
MS1

>  <INSTRUMENT TYPE>  (5035) 
EI-B

>  <INSTRUMENT>  (5035) 
VARIAN MAT-44

>  <ION MODE>  (5035) 
P

>  <INCHIKEY>  (5035) 
UTYVDVLMYQPLQB-UHFFFAOYSA-N

>  <FORMULA>  (5035) 
C10H11NO3

>  <EXACT MASS>  (5035) 
193.07389321199997

>  <MW>  (5035) 
193

>  <ID>  (5035) 
JP002233

>  <CONTRIBUTOR>  (5035) 
University of Tokyo Team, {Faculty of Engineering, University of Tokyo

>  <COMMENT>  (5035) 
SMILES=OC(=O)CNC(=O)Cc(c1)cccc1
InChI=InChI=1S/C10H11NO3/c12-9(11-7-10(13)14)6-8-4-2-1-3-5-8/h1-5H,6-7H2,(H,11,12)(H,13,14)
computed SMILES=O=C(O)CN=C(O)CC=1C=CC=CC1
accession=JP002233
date=2016.01.19 (Created 2008.10.21, modified 2011.05.06)
author=KOGA M, UNIV. OF OCCUPATIONAL AND ENVIRONMENTAL HEALTH
license=CC BY-NC-SA
exact mass=193.07389
ionization energy=70 eV
ion type=[M]+*
computed spectral entropy=2.5108374161466904
computed normalized entropy=0.7244745377506577
SPLASH=splash10-0006-9000000000-96f6d1819364e0910beb
submitter=submitter = University of Tokyo Team (Faculty of Engineering, University of Tokyo)
MoNA Rating=3.75

>  <NUM PEAKS>  (5035) 
32

>  <MASS SPECTRAL PEAKS>  (5035) 
51 9.49
52 3
55 3.54
56 24.89
57 1.39
58 1.24
59 1.04
61 1.3
62 5.32
63 10.98
64 8.57
65 29.42
66 2.03
73 9.49
74 30.8
75 1.96
76 2.02
77 1.93
84 1.3
88 1.59
89 9.1
90 7.61
91 99.99
92 74.16
93 6.79
102 2.01
117 2.4
118 1.3
119 1.59
149 4.41
193 4.58
194 1.24

>  <PREDICTED SPECTRUM>  (5035) 
14 18
15 31
16 37
17 46
18 59
19 17
26 61
27 153
28 117
29 112
30 54
31 70
32 8
34 9
36 14
37 52
38 103
39 275
40 111
41 291
42 228
43 181
44 218
45 291
46 71
49 60
50 157
51 277
52 171
53 120
54 102
55 143
56 145
57 142
58 121
59 131
60 93
61 62
62 129
63 229
64 140
65 417
66 129
67 80
68 58
69 73
70 51
71 64
72 16
73 61
74 130
75 97
76 121
77 273
78 193
79 217
80 38
84 48
85 22
86 21
87 34
88 30
89 277
90 206
91 999
92 372
93 88
94 16
97 7
98 13
100 5
101 31
102 236
103 172
104 149
105 168
106 33
107 105
114 8
115 72
116 155
117 233
118 199
119 98
120 123
121 97
129 14
130 82
131 188
132 129
133 44
134 104
135 66
136 21
144 11
145 43
146 174
147 225
148 563
149 392
150 100
151 2
175 195
176 66
192 62
193 299
194 93
195 19

$$$$

     RDKit          2D

 12 12  0  0  0  0  0  0  0  0999 V2000
   -4.8714    4.2575    0.0000 C   0  0  0  0  0  0  0  0  0  0  0  0
    4.2219    0.5075    0.0000 C   0  0  0  0  0  0  0  0  0  0  0  0
    4.2224    2.0083    0.0000 C   0  0  0  0  0  0  0  0  0  0  0  0
    2.9224   -0.2433    0.0000 C   0  0  0  0  0  0  0  0  0  0  0  0
    2.9233    2.7583    0.0000 C   0  0  0  0  0  0  0  0  0  0  0  0
    1.6233    0.5067    0.0000 C   0  0  0  0  0  0  0  0  0  0  0  0
    0.3248    2.7575    0.0000 C   0  0  0  0  0  0  0  0  0  0  0  0
   -0.9743    3.5075    0.0000 C   0  0  0  0  0  0  0  0  0  0  0  0
    1.6238    2.0075    0.0000 C   0  0  0  0  0  0  0  0  0  0  0  0
   -2.2733    4.2575    0.0000 C   0  0  0  0  0  0  0  0  0  0  0  0
   -2.2733    5.7575    0.0000 O   0  0  0  0  0  0  0  0  0  0  0  0
   -3.5724    3.5075    0.0000 O   0  0  0  0  0  0  0  0  0  0  0  0
  3  2  2  0
  4  2  1  0
  5  3  1  0
  6  4  2  0
  8  7  3  0
  9  5  2  0
  9  6  1  0
  9  7  1  0
 10  8  1  0
 11 10  2  0
 12  1  1  0
 12 10  1  0
M  END
>  <NAME>  (5036) 
PHENYLPROPIOLIC ACID METHYL ESTER

>  <SYNONYMS>  (5036) 


>  <SPECTRUM TYPE>  (5036) 
MS1

>  <INSTRUMENT TYPE>  (5036) 
EI-B

>  <INSTRUMENT>  (5036) 
JEOL JMS-01-SG

>  <ION MODE>  (5036) 
P

>  <INCHIKEY>  (5036) 
JFGWPXKGINUNDH-UHFFFAOYSA-N

>  <FORMULA>  (5036) 
C10H8O2

>  <EXACT MASS>  (5036) 
160.052429496

>  <MW>  (5036) 
160

>  <ID>  (5036) 
JP002232

>  <CONTRIBUTOR>  (5036) 
University of Tokyo Team, {Faculty of Engineering, University of Tokyo

>  <COMMENT>  (5036) 
SMILES=COC(=O)C#Cc(c1)cccc1
InChI=InChI=1S/C10H8O2/c1-12-10(11)8-7-9-5-3-2-4-6-9/h2-6H,1H3
computed SMILES=O=C(C#CC=1C=CC=CC1)OC
accession=JP002232
date=2016.01.19 (Created 2008.10.21, modified 2011.05.06)
author=KOGA M, UNIV. OF OCCUPATIONAL AND ENVIRONMENTAL HEALTH
license=CC BY-NC-SA
exact mass=160.05243
ionization energy=70 eV
ion type=[M]+*
computed spectral entropy=2.288110331074021
computed normalized entropy=0.740239050611571
SPLASH=splash10-0fb9-2900000000-01da70e9791d312ae174
submitter=submitter = University of Tokyo Team (Faculty of Engineering, University of Tokyo)
MoNA Rating=3.75

>  <NUM PEAKS>  (5036) 
22

>  <MASS SPECTRAL PEAKS>  (5036) 
44 4.4
49 3.7
50 8.5
51 3.01
61 4.8
62 7
63 6.6
74 0.7
75 52.7
76 5.9
77 6.6
89 0.81
98 5.5
100 2.6
101 30.8
102 99.99
103 7.8
129 99.2
130 30.4
131 0.44
160 71.7
161 8.5

>  <PREDICTED SPECTRUM>  (5036) 
14 10
15 47
26 47
37 75
38 124
39 194
40 4
43 103
44 6
49 87
50 451
51 463
52 244
53 109
57 8
59 140
61 128
62 282
63 408
64 138
65 86
73 38
74 314
75 366
76 240
77 112
86 48
87 68
88 68
89 24
90 40
98 11
99 58
100 55
101 671
102 934
103 322
116 17
117 3
129 999
130 466
131 162
132 36
159 65
160 677
161 181
162 27

$$$$

     RDKit          2D

 13 13  0  0  0  0  0  0  0  0999 V2000
   -2.5989   -1.5002    0.0000 C   0  0  0  0  0  0  0  0  0  0  0  0
    7.7951    1.5010    0.0000 C   0  0  0  0  0  0  0  0  0  0  0  0
   -1.3000    0.7500    0.0000 C   0  0  0  0  0  0  0  0  0  0  0  0
   -0.0000   -1.5000    0.0000 C   0  0  0  0  0  0  0  0  0  0  0  0
    0.0000    1.5000    0.0000 C   0  0  0  0  0  0  0  0  0  0  0  0
    1.3000   -0.7500    0.0000 C   0  0  0  0  0  0  0  0  0  0  0  0
    2.5989    1.5002    0.0000 C   0  0  0  0  0  0  0  0  0  0  0  0
    3.8981    0.7504    0.0000 C   0  0  0  0  0  0  0  0  0  0  0  0
   -1.3000   -0.7500    0.0000 C   0  0  0  0  0  0  0  0  0  0  0  0
    1.3000    0.7500    0.0000 C   0  0  0  0  0  0  0  0  0  0  0  0
    5.1970    1.5006    0.0000 C   0  0  0  0  0  0  0  0  0  0  0  0
    5.1968    3.0006    0.0000 O   0  0  0  0  0  0  0  0  0  0  0  0
    6.4962    0.7508    0.0000 O   0  0  0  0  0  0  0  0  0  0  0  0
  5  3  2  0
  6  4  1  0
  7  8  2  0
  9  1  1  0
  9  3  1  0
  9  4  2  0
 10  5  1  0
 10  6  2  0
 10  7  1  0
 11  8  1  0
 12 11  2  0
 13  2  1  0
 13 11  1  0
M  END
>  <NAME>  (5037) 
PARA-METHYLCINNAMIC ACID METHYL ESTER

>  <SYNONYMS>  (5037) 


>  <SPECTRUM TYPE>  (5037) 
MS1

>  <INSTRUMENT TYPE>  (5037) 
EI-B

>  <INSTRUMENT>  (5037) 
JEOL JMS-01-SG

>  <ION MODE>  (5037) 
P

>  <INCHIKEY>  (5037) 
WLJBRXRCJNSDHT-BQYQJAHWSA-N

>  <FORMULA>  (5037) 
C11H12O2

>  <EXACT MASS>  (5037) 
176.083729624

>  <MW>  (5037) 
176

>  <ID>  (5037) 
JP002230

>  <CONTRIBUTOR>  (5037) 
University of Tokyo Team, {Faculty of Engineering, University of Tokyo

>  <COMMENT>  (5037) 
SMILES=COC(=O)C=Cc(c1)ccc(C)c1
InChI=InChI=1S/C11H12O2/c1-9-3-5-10(6-4-9)7-8-11(12)13-2/h3-8H,1-2H3/b8-7+
computed SMILES=O=C(OC)C=CC1=CC=C(C=C1)C
accession=JP002230
date=2016.01.19 (Created 2008.10.21, modified 2011.05.06)
author=KOGA M, UNIV. OF OCCUPATIONAL AND ENVIRONMENTAL HEALTH
license=CC BY-NC-SA
exact mass=176.08373
ionization energy=70 eV
ion type=[M]+*
computed spectral entropy=2.7698778416449863
computed normalized entropy=0.7364345837616308
SPLASH=splash10-014j-2900000000-93b0b51e717b0cd721d6
submitter=submitter = University of Tokyo Team (Faculty of Engineering, University of Tokyo)
MoNA Rating=3.75

>  <NUM PEAKS>  (5037) 
43

>  <MASS SPECTRAL PEAKS>  (5037) 
50 7.2
51 6.4
52 4.8
57 0.16
58 7.2
59 13.7
61 2.4
62 0.4
63 4.8
65 11.2
72 2.4
73 0.16
76 4
77 4
87 3.2
89 0.8
90 2.4
91 19.3
101 1.6
102 0.4
103 3.2
113 2.4
115 46.7
116 1.77
117 46.7
118 10.4
127 2.4
130 0.24
131 4
132 2.4
135 3.2
140 0.24
144 4
145 99.99
146 12.9
147 0.16
149 1.6
158 2.4
161 8.8
175 1.37
176 54.8
177 7.2
178 2.4

>  <PREDICTED SPECTRUM>  (5037) 
14 21
15 100
18 0
26 76
27 226
28 48
29 113
31 56
32 11
37 15
38 94
39 299
40 66
41 114
43 81
45 5
50 159
51 264
52 141
53 160
54 3
55 68
57 78
58 130
59 228
61 31
62 118
63 268
64 153
65 296
66 57
70 33
71 20
74 63
75 62
76 29
77 275
78 83
79 145
85 60
86 44
87 29
89 256
90 158
91 348
92 103
98 17
101 21
102 300
103 142
104 9
105 260
106 0
114 38
115 791
116 578
117 756
118 391
119 103
129 175
130 96
131 123
133 245
134 15
143 83
144 389
145 999
146 325
147 100
148 22
149 2
161 410
162 113
175 242
176 929
177 277
178 86

$$$$

     RDKit          2D

 12 12  0  0  0  0  0  0  0  0999 V2000
    5.1970    1.5006    0.0000 C   0  0  0  0  0  0  0  0  0  0  0  0
   -1.3000    0.7500    0.0000 C   0  0  0  0  0  0  0  0  0  0  0  0
   -0.0000   -1.5000    0.0000 C   0  0  0  0  0  0  0  0  0  0  0  0
    0.0000    1.5000    0.0000 C   0  0  0  0  0  0  0  0  0  0  0  0
    1.3000   -0.7500    0.0000 C   0  0  0  0  0  0  0  0  0  0  0  0
   -2.5989   -1.5002    0.0000 C   0  0  0  0  0  0  0  0  0  0  0  0
   -1.3000   -0.7500    0.0000 C   0  0  0  0  0  0  0  0  0  0  0  0
    1.3000    0.7500    0.0000 C   0  0  0  0  0  0  0  0  0  0  0  0
    2.5989    1.5002    0.0000 C   0  0  0  0  0  0  0  0  0  0  0  0
   -3.8981   -0.7504    0.0000 O   0  0  0  0  0  0  0  0  0  0  0  0
    2.5987    3.0002    0.0000 O   0  0  0  0  0  0  0  0  0  0  0  0
    3.8981    0.7504    0.0000 O   0  0  0  0  0  0  0  0  0  0  0  0
  4  2  2  0
  5  3  1  0
  7  2  1  0
  7  3  2  0
  7  6  1  0
  8  4  1  0
  8  5  2  0
  9  8  1  0
 10  6  2  0
 11  9  2  0
 12  1  1  0
 12  9  1  0
M  END
>  <NAME>  (5038) 
TEREPHTHALALDEHYDIC ACID METHYL ESTER

>  <SYNONYMS>  (5038) 
METHYL PARA-FORMYLBENZOATE

>  <SPECTRUM TYPE>  (5038) 
MS1

>  <INSTRUMENT TYPE>  (5038) 
EI-B

>  <INSTRUMENT>  (5038) 
JEOL JMS-01-SG

>  <ION MODE>  (5038) 
P

>  <INCHIKEY>  (5038) 
FEIOASZZURHTHB-UHFFFAOYSA-N

>  <FORMULA>  (5038) 
C9H8O3

>  <EXACT MASS>  (5038) 
164.04734411599998

>  <MW>  (5038) 
164

>  <ID>  (5038) 
JP002229

>  <CONTRIBUTOR>  (5038) 
University of Tokyo Team, {Faculty of Engineering, University of Tokyo

>  <COMMENT>  (5038) 
SMILES=O=Cc(c1)ccc(c1)C(=O)OC
InChI=InChI=1S/C9H8O3/c1-12-9(11)8-4-2-7(6-10)3-5-8/h2-6H,1H3
computed SMILES=O=CC1=CC=C(C=C1)C(=O)OC
accession=JP002229
date=2016.01.19 (Created 2008.10.21, modified 2011.05.06)
author=KOGA M, UNIV. OF OCCUPATIONAL AND ENVIRONMENTAL HEALTH
license=CC BY-NC-SA
exact mass=164.04734
ionization energy=70 eV
ion type=[M]+*
computed spectral entropy=2.31489538975471
computed normalized entropy=0.6874642165799875
SPLASH=splash10-001i-4900000000-fe21f4a3ee117cb5579b
submitter=submitter = University of Tokyo Team (Faculty of Engineering, University of Tokyo)
MoNA Rating=3.75

>  <NUM PEAKS>  (5038) 
29

>  <MASS SPECTRAL PEAKS>  (5038) 
49 0.9
50 13.5
51 20.7
52 0.29
53 0.9
62 1.4
63 1.7
66 0.17
75 6.4
76 9.6
77 31.1
78 0.17
91 0.9
92 1.4
103 6.1
104 0.64
105 38.7
106 3.4
107 1.7
119 0.29
120 3.2
121 0.9
133 99.99
134 0.93
135 10.3
136 1.4
163 18.7
164 5.35
165 6.1

>  <PREDICTED SPECTRUM>  (5038) 
14 32
15 144
16 16
25 0
26 57
27 91
28 89
29 188
31 55
37 83
38 125
39 140
40 18
44 14
49 86
50 390
51 350
52 108
53 126
59 209
61 89
62 152
63 138
64 118
65 111
66 56
73 3
74 194
75 290
76 230
77 424
78 131
79 45
90 13
92 69
93 17
103 97
104 292
105 584
106 108
107 116
119 77
120 45
121 77
133 999
134 353
135 297
136 56
149 1
163 409
164 554
165 141
166 10

$$$$

     RDKit          2D

 15 14  0  0  0  0  0  0  0  0999 V2000
   -7.7942    8.2500    0.0000 C   0  0  0  0  0  0  0  0  0  0  0  0
    0.0000    3.7500    0.0000 C   0  0  0  0  0  0  0  0  0  0  0  0
   -3.8971    0.0000    0.0000 C   0  0  0  0  0  0  0  0  0  0  0  0
   -6.4952    4.5000    0.0000 C   0  0  0  0  0  0  0  0  0  0  0  0
   -3.8971    4.5000    0.0000 C   0  0  0  0  0  0  0  0  0  0  0  0
   -5.1962    3.7500    0.0000 C   0  0  0  0  0  0  0  0  0  0  0  0
   -6.4952    6.0000    0.0000 C   0  0  0  0  0  0  0  0  0  0  0  0
   -2.5981    3.7500    0.0000 C   0  0  0  0  0  0  0  0  0  0  0  0
   -5.1962    2.2500    0.0000 C   0  0  0  0  0  0  0  0  0  0  0  0
   -5.1962    6.7500    0.0000 O   0  0  0  0  0  0  0  0  0  0  0  0
   -2.5981    2.2500    0.0000 O   0  0  0  0  0  0  0  0  0  0  0  0
   -6.4952    1.5000    0.0000 O   0  0  0  0  0  0  0  0  0  0  0  0
   -7.7942    6.7500    0.0000 O   0  0  0  0  0  0  0  0  0  0  0  0
   -1.2990    4.5000    0.0000 O   0  0  0  0  0  0  0  0  0  0  0  0
   -3.8971    1.5000    0.0000 O   0  0  0  0  0  0  0  0  0  0  0  0
  4  6  2  0
  6  5  1  0
  7  4  1  0
  8  5  1  0
  9  6  1  0
 10  7  2  0
 11  8  2  0
 12  9  2  0
 13  1  1  0
 13  7  1  0
 14  2  1  0
 14  8  1  0
 15  3  1  0
 15  9  1  0
M  END
>  <NAME>  (5039) 
TRANS-ACONITIC ACID TRIMETHYL ESTER

>  <SYNONYMS>  (5039) 


>  <SPECTRUM TYPE>  (5039) 
MS1

>  <INSTRUMENT TYPE>  (5039) 
EI-B

>  <INSTRUMENT>  (5039) 
JEOL JMS-01-SG

>  <ION MODE>  (5039) 
P

>  <INCHIKEY>  (5039) 
DZAIBGWGBBQGPZ-GQCTYLIASA-N

>  <FORMULA>  (5039) 
C9H12O6

>  <EXACT MASS>  (5039) 
216.06338810399998

>  <MW>  (5039) 
216

>  <ID>  (5039) 
JP002228

>  <CONTRIBUTOR>  (5039) 
University of Tokyo Team, {Faculty of Engineering, University of Tokyo

>  <COMMENT>  (5039) 
SMILES=COC(=O)CC(=CC(=O)OC)C(=O)OC
InChI=InChI=1S/C9H12O6/c1-13-7(10)4-6(9(12)15-3)5-8(11)14-2/h4H,5H2,1-3H3/b6-4+
computed SMILES=O=C(OC)C=C(C(=O)OC)CC(=O)OC
accession=JP002228
date=2016.01.19 (Created 2008.10.21, modified 2011.05.06)
author=KOGA M, UNIV. OF OCCUPATIONAL AND ENVIRONMENTAL HEALTH
license=CC BY-NC-SA
exact mass=216.06339
ionization energy=70 eV
ion type=[M]+*
computed spectral entropy=3.268458917511085
computed normalized entropy=0.7416989225125212
SPLASH=splash10-01bi-2900000000-e5e0d24f5aeb8dcff78a
submitter=submitter = University of Tokyo Team (Faculty of Engineering, University of Tokyo)
MoNA Rating=3.75

>  <NUM PEAKS>  (5039) 
82

>  <MASS SPECTRAL PEAKS>  (5039) 
43 0.7
45 5.6
47 0.9
50 0.32
51 9.6
52 8.9
53 38
54 0.63
55 16.9
56 0.7
58 0.7
59 4.81
60 0.9
61 0.9
63 1.1
65 0.14
66 0.7
67 8.6
68 3.9
69 0.65
70 0.9
71 0.9
75 7.5
79 0.7
80 4.2
81 9.3
82 5.1
83 2.88
84 4.6
85 4.6
86 1.1
87 0.21
89 1.4
95 2.8
96 0.9
97 0.42
98 0.7
99 1.1
101 3.9
107 0.23
108 4.4
110 9.8
111 63.6
112 1.43
113 4.9
114 1.4
115 0.9
116 0.14
123 8.4
124 1.1
127 9.1
129 0.93
130 0.9
133 1.8
136 0.7
137 0.07
138 20.1
139 66.6
140 7.5
142 0.16
143 7.5
144 0.9
147 0.7
151 0.32
152 0.9
155 9.3
156 2.5
157 1.1
166 99.99
167 53
168 5.1
169 0.09
170 23.4
171 61.7
172 6.1
173 0.11
183 1.4
198 31.9
199 41
200 0.49
201 0.7
215 3.7

>  <PREDICTED SPECTRUM>  (5039) 
14 4
15 156
25 8
26 84
27 125
28 130
29 222
30 39
31 132
32 29
33 50
37 67
38 132
39 308
40 191
41 257
42 327
43 99
44 213
45 337
46 14
47 40
49 7
51 56
52 182
53 180
54 256
55 263
56 128
57 184
58 74
59 702
60 40
65 99
66 202
67 269
68 285
69 281
70 120
71 175
72 32
73 31
74 38
75 96
81 230
82 94
83 75
84 39
85 170
86 43
93 143
94 109
95 70
96 98
97 369
98 190
99 204
100 105
111 86
113 181
114 112
115 184
116 10
124 119
125 721
126 353
127 147
128 46
129 180
130 4
141 51
142 59
143 25
153 216
154 62
156 143
157 999
158 305
171 85
184 382
185 575
186 177
216 227
217 38

$$$$

     RDKit          2D

 16 16  0  0  0  0  0  0  0  0999 V2000
   -5.1962    2.5700    0.0000 C   0  0  0  0  0  0  0  0  0  0  0  0
   -1.2990    6.3200    0.0000 C   0  0  0  0  0  0  0  0  0  0  0  0
    3.8971    0.3200    0.0000 C   0  0  0  0  0  0  0  0  0  0  0  0
    3.8976    1.8208    0.0000 C   0  0  0  0  0  0  0  0  0  0  0  0
    2.5976   -0.4308    0.0000 C   0  0  0  0  0  0  0  0  0  0  0  0
    2.5986    2.5708    0.0000 C   0  0  0  0  0  0  0  0  0  0  0  0
    1.2986    0.3192    0.0000 C   0  0  0  0  0  0  0  0  0  0  0  0
   -1.2990    1.8200    0.0000 C   0  0  0  0  0  0  0  0  0  0  0  0
    1.2990    1.8200    0.0000 C   0  0  0  0  0  0  0  0  0  0  0  0
    0.0000    2.5700    0.0000 C   0  0  0  0  0  0  0  0  0  0  0  0
   -2.5981    2.5700    0.0000 C   0  0  0  0  0  0  0  0  0  0  0  0
    0.0000    4.0700    0.0000 C   0  0  0  0  0  0  0  0  0  0  0  0
   -2.5981    4.0700    0.0000 O   0  0  0  0  0  0  0  0  0  0  0  0
    1.2990    4.8200    0.0000 O   0  0  0  0  0  0  0  0  0  0  0  0
   -3.8971    1.8200    0.0000 O   0  0  0  0  0  0  0  0  0  0  0  0
   -1.2990    4.8200    0.0000 O   0  0  0  0  0  0  0  0  0  0  0  0
  4  3  2  0
  5  3  1  0
  6  4  1  0
  7  5  2  0
  9  6  2  0
  9  7  1  0
 10  8  1  0
 10  9  1  0
 11  8  1  0
 12 10  1  0
 13 11  2  0
 14 12  2  0
 15  1  1  0
 15 11  1  0
 16  2  1  0
 16 12  1  0
M  END
>  <NAME>  (5040) 
PHENYLSUCCINIC ACID DIMETHYL ESTER

>  <SYNONYMS>  (5040) 


>  <SPECTRUM TYPE>  (5040) 
MS1

>  <INSTRUMENT TYPE>  (5040) 
EI-B

>  <INSTRUMENT>  (5040) 
JEOL JMS-01-SG

>  <ION MODE>  (5040) 
P

>  <INCHIKEY>  (5040) 
CGVIBFZHFCVINR-UHFFFAOYSA-N

>  <FORMULA>  (5040) 
C12H14O4

>  <EXACT MASS>  (5040) 
222.089208928

>  <MW>  (5040) 
222

>  <ID>  (5040) 
JP002227

>  <CONTRIBUTOR>  (5040) 
University of Tokyo Team, {Faculty of Engineering, University of Tokyo

>  <COMMENT>  (5040) 
SMILES=COC(=O)CC(C(=O)OC)c(c1)cccc1
InChI=InChI=1S/C12H14O4/c1-15-11(13)8-10(12(14)16-2)9-6-4-3-5-7-9/h3-7,10H,8H2,1-2H3
computed SMILES=O=C(OC)CC(C(=O)OC)C=1C=CC=CC1
accession=JP002227
date=2016.01.19 (Created 2008.10.21, modified 2011.05.06)
author=KOGA M, UNIV. OF OCCUPATIONAL AND ENVIRONMENTAL HEALTH
license=CC BY-NC-SA
exact mass=222.08921
ionization energy=70 eV
ion type=[M]+*
computed spectral entropy=2.888265992277154
computed normalized entropy=0.7543840472826012
SPLASH=splash10-0fk9-2900000000-ed82043c01aeffb821cc
submitter=submitter = University of Tokyo Team (Faculty of Engineering, University of Tokyo)
MoNA Rating=3.75

>  <NUM PEAKS>  (5040) 
46

>  <MASS SPECTRAL PEAKS>  (5040) 
50 2.2
51 11.2
52 6.7
53 0.22
59 2.2
63 2.2
66 3.3
67 0.11
75 4.4
76 5.6
77 17.9
78 1.12
79 7.8
89 4.4
90 2.2
91 1.46
93 2.2
94 1.1
96 2.2
102 0.56
103 37
104 23.5
105 2.2
115 0.11
116 1.1
117 7.8
118 2.2
121 99.99
122 10.1
131 15.7
132 11.2
133 0.33
139 4.4
140 1.1
141 1.1
142 0.22
147 1.1
149 3.3
155 1.1
162 8.31
163 24.7
164 3.3
167 1.1
190 6.17
191 15.7
192 1.1

>  <PREDICTED SPECTRUM>  (5040) 
14 36
15 203
16 22
17 6
18 10
26 65
27 142
28 83
29 106
31 109
32 64
33 36
37 35
38 113
39 318
40 139
41 185
42 122
43 179
44 185
45 240
50 336
51 533
52 279
53 247
54 64
55 279
57 52
59 754
60 140
61 68
62 156
63 338
64 126
65 247
66 36
67 37
69 114
73 0
74 240
75 199
76 139
77 749
78 357
79 389
80 71
81 42
82 1
83 66
85 84
87 35
89 343
90 163
91 610
92 162
93 143
94 8
95 7
101 81
102 179
103 770
104 800
105 732
106 181
107 217
116 95
117 221
118 393
119 290
120 141
121 893
122 243
123 87
130 163
131 597
132 421
133 201
134 225
135 59
147 131
148 280
149 245
150 39
159 217
160 67
161 107
162 999
163 474
164 187
180 20
190 798
191 497
192 147
222 193
223 52

$$$$

     RDKit          2D

 16 16  0  0  1  0  0  0  0  0999 V2000
   -1.7792   -1.1452    0.0000 C   0  0  0  0  0  0  0  0  0  0  0  0
   -0.1554   -2.3260    0.0000 C   0  0  0  0  0  0  0  0  0  0  0  0
   -1.5265    1.8822    0.0000 C   0  0  0  0  0  0  0  0  0  0  0  0
    4.4444   -3.1030    0.0000 C   0  0  0  0  0  0  0  0  0  0  0  0
   -5.1637    0.0461    0.0000 C   0  0  0  0  0  0  0  0  0  0  0  0
    1.6482    0.5858    0.0000 C   0  0  0  0  0  0  0  0  0  0  0  0
    0.4382    1.4758    0.0000 C   0  0  0  0  0  0  0  0  0  0  0  0
    1.1882   -0.8342    0.0000 C   0  0  0  0  0  0  0  0  0  0  0  0
    2.0704   -2.0473    0.0000 C   0  0  0  0  0  0  0  0  0  0  0  0
   -2.5795   -0.2220    0.0000 C   0  0  0  0  0  0  0  0  0  0  0  0
   -0.3118   -0.8342    0.0000 C   0  0  0  0  0  0  0  0  0  0  0  0
   -0.7718    0.5858    0.0000 C   0  0  0  0  0  0  0  0  0  0  0  0
    1.4609   -3.4179    0.0000 O   0  0  0  0  0  0  0  0  0  0  0  0
   -2.7342   -1.7140    0.0000 O   0  0  0  0  0  0  0  0  0  0  0  0
    3.5622   -1.8899    0.0000 O   0  0  0  0  0  0  0  0  0  0  0  0
   -3.7942    0.6580    0.0000 O   0  0  0  0  0  0  0  0  0  0  0  0
  7  6  1  0
  8  6  1  0
  8  9  1  6
 11  1  1  0
 11  2  1  0
 11  8  1  0
 12  3  1  1
 12  7  1  0
 12 10  1  0
 12 11  1  0
 13  9  2  0
 14 10  2  0
 15  4  1  0
 15  9  1  0
 16  5  1  0
 16 10  1  0
M  END
>  <NAME>  (5041) 
CAMPHORIC ACID DIMETHYL ESTER

>  <SYNONYMS>  (5041) 


>  <SPECTRUM TYPE>  (5041) 
MS1

>  <INSTRUMENT TYPE>  (5041) 
EI-B

>  <INSTRUMENT>  (5041) 
JEOL JMS-01-SG

>  <ION MODE>  (5041) 
P

>  <INCHIKEY>  (5041) 
JTQKJWYDOXYYBH-PELKAZGASA-N

>  <FORMULA>  (5041) 
C12H20O4

>  <EXACT MASS>  (5041) 
228.13615912

>  <MW>  (5041) 
228

>  <ID>  (5041) 
JP002226

>  <CONTRIBUTOR>  (5041) 
University of Tokyo Team, {Faculty of Engineering, University of Tokyo

>  <COMMENT>  (5041) 
SMILES=COC(=O)C([H])(C1)C(C)(C)C(C)(C1)C(=O)OC
InChI=InChI=1S/C12H20O4/c1-11(2)8(9(13)15-4)6-7-12(11,3)10(14)16-5/h8H,6-7H2,1-5H3/t8-,12+/m1/s1
computed SMILES=O=C(OC)C1CCC(C(=O)OC)(C)C1(C)C
accession=JP002226
date=2016.01.19 (Created 2008.10.21, modified 2011.05.06)
author=KOGA M, UNIV. OF OCCUPATIONAL AND ENVIRONMENTAL HEALTH
license=CC BY-NC-SA
exact mass=228.13616
ionization energy=70 eV
ion type=[M]+*
computed spectral entropy=3.4568610479029394
computed normalized entropy=0.7982160932758758
SPLASH=splash10-0ap0-4900000000-3e5882cf59c26e7da1ac
submitter=submitter = University of Tokyo Team (Faculty of Engineering, University of Tokyo)
MoNA Rating=3.75

>  <NUM PEAKS>  (5041) 
76

>  <MASS SPECTRAL PEAKS>  (5041) 
43 1.3
45 2.2
51 1.3
52 0.31
53 12.4
54 5.3
55 32.8
56 0.17
59 14.2
65 3.1
66 3.1
67 3.42
68 34.6
69 29.3
70 1.3
73 1.95
75 2.2
77 5.7
79 10.6
80 0.31
81 9.7
82 12.8
83 16.4
85 0.13
87 4.8
88 2.6
91 5.7
93 2.48
94 7.1
95 22.2
96 25.3
97 0.44
99 1.3
100 1.7
101 15.1
102 0.22
107 7.5
108 69.3
109 99.99
110 0.93
112 3.1
113 4.4
114 5.3
115 0.4
121 11.1
122 3.1
123 2.2
125 0.84
126 5.3
127 5.7
128 10.2
129 0.13
135 2.6
136 69.7
137 40.8
138 0.48
139 1.7
140 6.2
142 1.7
146 0.22
149 4
150 1.3
153 11.5
154 0.93
155 2.6
159 2.6
164 29.3
165 0.4
167 2.2
168 58.6
169 23.5
170 0.31
181 2.2
196 19.5
197 8.8
198 1.3

>  <PREDICTED SPECTRUM>  (5041) 
15 76
26 96
27 369
28 159
29 268
30 73
31 131
32 26
33 51
38 46
39 445
40 179
41 726
42 177
43 267
44 34
45 230
50 77
51 149
52 129
53 447
54 268
55 666
56 172
57 189
58 90
59 548
60 40
61 54
63 42
65 207
66 147
67 485
68 250
69 376
70 144
71 184
72 82
73 143
74 77
75 66
77 201
78 109
79 284
80 182
81 579
82 332
83 380
84 143
85 241
86 46
87 241
88 148
89 38
91 84
92 24
93 307
94 194
95 405
96 176
97 251
98 137
99 343
100 210
101 318
102 31
103 19
105 44
107 265
108 301
109 999
110 373
111 184
112 114
113 318
114 236
115 150
116 36
117 1
118 24
119 73
121 177
122 60
123 38
124 53
125 256
126 155
127 469
128 215
129 125
135 127
136 377
137 469
138 155
139 214
140 202
141 286
142 201
145 95
149 73
151 102
153 485
154 241
155 159
156 26
163 67
164 281
165 110
167 124
168 595
169 416
170 137
181 232
182 69
195 9
196 444
197 311
198 97
213 77
228 193
229 19

$$$$

     RDKit          2D

  5  4  0  0  0  0  0  0  0  0999 V2000
   -3.8971    2.2500    0.0000 C   0  0  0  0  0  0  0  0  0  0  0  0
    0.0000    1.5000    0.0000 C   0  0  0  0  0  0  0  0  0  0  0  0
   -1.2990    2.2500    0.0000 C   0  0  0  0  0  0  0  0  0  0  0  0
    1.2990    2.2500    0.0000 O   0  0  0  0  0  0  0  0  0  0  0  0
   -2.5981    1.5000    0.0000 S   0  0  0  0  0  0  0  0  0  0  0  0
  3  2  1  0
  4  2  1  0
  5  1  1  0
  5  3  1  0
M  END
>  <NAME>  (5042) 
2-METHYLTHIOETHANOL

>  <SYNONYMS>  (5042) 


>  <SPECTRUM TYPE>  (5042) 
MS1

>  <INSTRUMENT TYPE>  (5042) 
EI-B

>  <INSTRUMENT>  (5042) 
JEOL JMS-01-SG

>  <ION MODE>  (5042) 
P

>  <INCHIKEY>  (5042) 
WBBPRCNXBQTYLF-UHFFFAOYSA-N

>  <FORMULA>  (5042) 
C3H8OS

>  <EXACT MASS>  (5042) 
92.029585876

>  <MW>  (5042) 
92

>  <ID>  (5042) 
JP002225

>  <CONTRIBUTOR>  (5042) 
University of Tokyo Team, {Faculty of Engineering, University of Tokyo

>  <COMMENT>  (5042) 
SMILES=OCCSC
InChI=InChI=1S/C3H8OS/c1-5-3-2-4/h4H,2-3H2,1H3
computed SMILES=OCCSC
accession=JP002225
date=2016.01.19 (Created 2008.10.21, modified 2011.05.06)
author=KOGA M, UNIV. OF OCCUPATIONAL AND ENVIRONMENTAL HEALTH
license=CC BY-NC-SA
exact mass=92.02959
ionization energy=70 eV
ion type=[M]+*
computed spectral entropy=1.99693447127182
computed normalized entropy=0.7202418646710197
SPLASH=splash10-03dm-9000000000-72514bd7603ac40929c9
submitter=submitter = University of Tokyo Team (Faculty of Engineering, University of Tokyo)
MoNA Rating=3.75

>  <NUM PEAKS>  (5042) 
16

>  <MASS SPECTRAL PEAKS>  (5042) 
45 29.4
46 14.2
47 32.4
48 1.87
49 11.1
53 2.5
59 4
61 99.99
62 21.3
63 4
66 1.5
68 0.2
74 3
76 2.5
92 63.9
94 4.5

>  <PREDICTED SPECTRUM>  (5042) 
14 60
15 237
16 11
17 9
19 20
25 37
26 146
27 324
28 201
29 258
30 158
31 291
32 98
33 144
34 120
35 285
36 9
37 33
40 108
41 311
42 209
43 217
44 325
45 907
46 660
47 650
48 415
49 145
58 137
59 130
60 156
61 999
62 340
63 274
64 8
73 11
74 282
75 196
76 145
77 144
78 0
92 727
93 174
94 144

$$$$

     RDKit          2D

 14 13  0  0  0  0  0  0  0  0999 V2000
   -2.1469    1.9414    0.0000 C   0  0  0  0  0  0  0  0  0  0  0  0
   -3.5623    3.3509    0.0000 C   0  0  0  0  0  0  0  0  0  0  0  0
    2.5981    4.5000    0.0000 C   0  0  0  0  0  0  0  0  0  0  0  0
   -7.7942    4.5000    0.0000 C   0  0  0  0  0  0  0  0  0  0  0  0
   -1.6339    3.3509    0.0000 C   0  0  0  0  0  0  0  0  0  0  0  0
   -1.2990    5.2500    0.0000 C   0  0  0  0  0  0  0  0  0  0  0  0
   -3.8971    5.2500    0.0000 C   0  0  0  0  0  0  0  0  0  0  0  0
    0.0000    4.5000    0.0000 C   0  0  0  0  0  0  0  0  0  0  0  0
   -5.1962    4.5000    0.0000 C   0  0  0  0  0  0  0  0  0  0  0  0
   -2.5981    4.5000    0.0000 C   0  0  0  0  0  0  0  0  0  0  0  0
    0.0000    3.0000    0.0000 O   0  0  0  0  0  0  0  0  0  0  0  0
   -5.1962    3.0000    0.0000 O   0  0  0  0  0  0  0  0  0  0  0  0
    1.2990    5.2500    0.0000 O   0  0  0  0  0  0  0  0  0  0  0  0
   -6.4952    5.2500    0.0000 O   0  0  0  0  0  0  0  0  0  0  0  0
  5  1  1  0
  8  6  1  0
  9  7  1  0
 10  2  1  0
 10  5  1  0
 10  6  1  0
 10  7  1  0
 11  8  2  0
 12  9  2  0
 13  3  1  0
 13  8  1  0
 14  4  1  0
 14  9  1  0
M  END
>  <NAME>  (5043) 
3-ETHYL-3-METHYLGLUTARIC ACID DIMETHY ESTER

>  <SYNONYMS>  (5043) 


>  <SPECTRUM TYPE>  (5043) 
MS1

>  <INSTRUMENT TYPE>  (5043) 
EI-B

>  <INSTRUMENT>  (5043) 
JEOL JMS-01-SG

>  <ION MODE>  (5043) 
P

>  <INCHIKEY>  (5043) 
MYBLGPBPMJJRAB-UHFFFAOYSA-N

>  <FORMULA>  (5043) 
C10H18O4

>  <EXACT MASS>  (5043) 
202.120509056

>  <MW>  (5043) 
202

>  <ID>  (5043) 
JP002224

>  <CONTRIBUTOR>  (5043) 
University of Tokyo Team, {Faculty of Engineering, University of Tokyo

>  <COMMENT>  (5043) 
SMILES=COC(=O)CC(C)(CC)CC(=O)OC
InChI=InChI=1S/C10H18O4/c1-5-10(2,6-8(11)13-3)7-9(12)14-4/h5-7H2,1-4H3
computed SMILES=O=C(OC)CC(C)(CC(=O)OC)CC
accession=JP002224
date=2016.01.19 (Created 2008.10.21, modified 2011.05.06)
author=KOGA M, UNIV. OF OCCUPATIONAL AND ENVIRONMENTAL HEALTH
license=CC BY-NC-SA
exact mass=202.12051
ionization energy=70 eV
ion type=[M]+*
computed spectral entropy=3.283051586379057
computed normalized entropy=0.8018503417302194
SPLASH=splash10-00or-9700000000-a375838bb40ef6cf843a
submitter=submitter = University of Tokyo Team (Faculty of Engineering, University of Tokyo)
MoNA Rating=3.75

>  <NUM PEAKS>  (5043) 
60

>  <MASS SPECTRAL PEAKS>  (5043) 
39 12.5
41 34.6
42 5.7
43 1.44
51 1.9
53 8.6
54 5.7
55 4.03
56 1.9
59 7.6
61 3.8
64 0.19
67 6.7
68 11.5
69 83.6
70 0.57
71 1.9
74 9.6
75 2.8
79 0.19
81 9.6
83 7.6
84 1.9
85 1.05
86 3.8
87 43.2
88 3.8
93 0.28
94 3.8
95 7.6
96 16.3
97 8.55
98 7.6
99 4.8
101 2.8
104 0.38
109 19.2
110 5.7
111 8.6
112 0.19
113 20.1
114 1.9
117 4.8
121 0.38
127 7.6
128 19.2
129 99.99
130 0.86
131 1.9
139 3.8
140 1.9
141 5.09
142 18.2
143 9.6
155 4.8
170 1.05
171 39.4
172 3.8
173 1.9
186 4.8

>  <PREDICTED SPECTRUM>  (5043) 
14 13
15 74
26 54
27 256
28 106
29 244
30 45
31 146
32 14
33 35
38 15
39 322
40 139
41 667
42 308
43 487
44 79
45 261
46 23
47 52
49 1
50 3
51 73
52 66
53 266
54 174
55 540
56 286
57 255
58 75
59 536
60 24
61 66
65 101
66 76
67 259
68 255
69 645
70 260
71 232
72 175
73 322
74 507
75 99
77 62
78 40
79 192
80 64
81 273
82 219
83 572
84 190
85 240
86 96
87 461
88 136
91 15
93 38
95 52
96 270
97 689
98 315
99 193
100 194
101 238
102 5
103 2
109 155
110 219
111 355
112 143
113 248
114 93
116 16
123 128
125 22
127 226
128 323
129 999
130 281
131 97
136 15
139 55
141 184
142 594
143 413
144 155
145 59
155 85
169 1
170 329
171 604
172 171
173 159
174 57

$$$$

     RDKit          2D

 12 12  0  0  0  0  0  0  0  0999 V2000
   -2.5989   -1.5002    0.0000 C   0  0  0  0  0  0  0  0  0  0  0  0
    6.4962    0.7508    0.0000 C   0  0  0  0  0  0  0  0  0  0  0  0
   -1.3000    0.7500    0.0000 C   0  0  0  0  0  0  0  0  0  0  0  0
   -0.0000   -1.5000    0.0000 C   0  0  0  0  0  0  0  0  0  0  0  0
    0.0000    1.5000    0.0000 C   0  0  0  0  0  0  0  0  0  0  0  0
    1.3000   -0.7500    0.0000 C   0  0  0  0  0  0  0  0  0  0  0  0
    2.5989    1.5002    0.0000 C   0  0  0  0  0  0  0  0  0  0  0  0
   -1.3000   -0.7500    0.0000 C   0  0  0  0  0  0  0  0  0  0  0  0
    1.3000    0.7500    0.0000 C   0  0  0  0  0  0  0  0  0  0  0  0
    3.8981    0.7504    0.0000 C   0  0  0  0  0  0  0  0  0  0  0  0
    3.8983   -0.7496    0.0000 O   0  0  0  0  0  0  0  0  0  0  0  0
    5.1970    1.5006    0.0000 O   0  0  0  0  0  0  0  0  0  0  0  0
  5  3  2  0
  6  4  1  0
  8  1  1  0
  8  3  1  0
  8  4  2  0
  9  5  1  0
  9  6  2  0
  9  7  1  0
 10  7  1  0
 11 10  2  0
 12  2  1  0
 12 10  1  0
M  END
>  <NAME>  (5044) 
PARA-TOLYLACETIC ACID METHYL ESTER

>  <SYNONYMS>  (5044) 


>  <SPECTRUM TYPE>  (5044) 
MS1

>  <INSTRUMENT TYPE>  (5044) 
EI-B

>  <INSTRUMENT>  (5044) 
JEOL JMS-01-SG

>  <ION MODE>  (5044) 
P

>  <INCHIKEY>  (5044) 
LSAGWGNECLEVPE-UHFFFAOYSA-N

>  <FORMULA>  (5044) 
C10H12O2

>  <EXACT MASS>  (5044) 
164.083729624

>  <MW>  (5044) 
164

>  <ID>  (5044) 
JP002223

>  <CONTRIBUTOR>  (5044) 
University of Tokyo Team, {Faculty of Engineering, University of Tokyo

>  <COMMENT>  (5044) 
SMILES=COC(=O)Cc(c1)ccc(C)c1
InChI=InChI=1S/C10H12O2/c1-8-3-5-9(6-4-8)7-10(11)12-2/h3-6H,7H2,1-2H3
computed SMILES=O=C(OC)CC1=CC=C(C=C1)C
accession=JP002223
date=2016.01.19 (Created 2008.10.21, modified 2011.05.06)
author=KOGA M, UNIV. OF OCCUPATIONAL AND ENVIRONMENTAL HEALTH
license=CC BY-NC-SA
exact mass=164.08373
ionization energy=70 eV
ion type=[M]+*
computed spectral entropy=2.2594231236843494
computed normalized entropy=0.6519317071618523
SPLASH=splash10-0bt9-2900000000-98e6565813ab01d4269c
submitter=submitter = University of Tokyo Team (Faculty of Engineering, University of Tokyo)
MoNA Rating=3.75

>  <NUM PEAKS>  (5044) 
32

>  <MASS SPECTRAL PEAKS>  (5044) 
38 1.8
39 5.7
50 4.2
51 1.06
52 4.5
53 2.4
62 2.1
63 0.42
65 3.3
66 1.2
76 1.8
77 2.18
78 9.1
79 17.9
80 1.8
89 0.24
91 3.3
102 2.1
103 15.5
104 0.94
105 99.99
106 21.2
107 1.8
115 0.15
119 1.8
121 1.2
132 3
133 0.27
149 1.5
164 64.7
165 7.2
166 1.2

>  <PREDICTED SPECTRUM>  (5044) 
14 8
15 83
16 7
26 25
27 160
28 4
29 8
32 11
33 0
37 22
38 89
39 327
40 90
41 159
42 101
43 87
44 72
45 51
49 25
50 188
51 300
52 200
53 146
54 33
59 371
60 28
61 79
62 102
63 219
64 125
65 362
66 108
74 53
75 58
76 21
77 458
78 243
79 262
89 109
90 76
91 461
92 178
93 139
102 115
103 145
104 214
105 999
106 498
107 160
117 64
121 190
122 10
132 145
133 90
149 191
150 44
164 611
165 173

$$$$

     RDKit          2D

 14 14  0  0  0  0  0  0  0  0999 V2000
   -1.6353    4.6878    0.0000 C   0  0  0  0  0  0  0  0  0  0  0  0
    4.8670    0.9406    0.0000 C   0  0  0  0  0  0  0  0  0  0  0  0
   -1.6200   -1.3100    0.0000 C   0  0  0  0  0  0  0  0  0  0  0  0
   -0.3300   -2.0600    0.0000 C   0  0  0  0  0  0  0  0  0  0  0  0
   -1.6200    0.1900    0.0000 C   0  0  0  0  0  0  0  0  0  0  0  0
    0.9700   -1.3100    0.0000 C   0  0  0  0  0  0  0  0  0  0  0  0
   -0.3300    0.9400    0.0000 C   0  0  0  0  0  0  0  0  0  0  0  0
    0.9700    0.1900    0.0000 C   0  0  0  0  0  0  0  0  0  0  0  0
   -0.3325    2.4400    0.0000 C   0  0  0  0  0  0  0  0  0  0  0  0
    2.2689    0.9402    0.0000 C   0  0  0  0  0  0  0  0  0  0  0  0
    0.9653    3.1922    0.0000 O   0  0  0  0  0  0  0  0  0  0  0  0
    2.2687    2.4402    0.0000 O   0  0  0  0  0  0  0  0  0  0  0  0
   -1.6328    3.1878    0.0000 O   0  0  0  0  0  0  0  0  0  0  0  0
    3.5681    0.1904    0.0000 O   0  0  0  0  0  0  0  0  0  0  0  0
  4  3  2  0
  5  3  1  0
  6  4  1  0
  7  5  1  0
  8  6  1  0
  8  7  1  0
  9  7  1  0
 10  8  1  0
 11  9  2  0
 12 10  2  0
 13  1  1  0
 13  9  1  0
 14  2  1  0
 14 10  1  0
M  END
>  <NAME>  (5045) 
CYCLOHEXENE-4,5-DICARBOXYLIC ACID DIMETHYLESTER

>  <SYNONYMS>  (5045) 


>  <SPECTRUM TYPE>  (5045) 
MS1

>  <INSTRUMENT TYPE>  (5045) 
EI-B

>  <INSTRUMENT>  (5045) 
JEOL JMS-01-SG

>  <ION MODE>  (5045) 
P

>  <INCHIKEY>  (5045) 
DVVAGRMJGUQHLI-UHFFFAOYSA-N

>  <FORMULA>  (5045) 
C10H14O4

>  <EXACT MASS>  (5045) 
198.089208928

>  <MW>  (5045) 
198

>  <ID>  (5045) 
JP002220

>  <CONTRIBUTOR>  (5045) 
University of Tokyo Team, {Faculty of Engineering, University of Tokyo

>  <COMMENT>  (5045) 
SMILES=COC(=O)C(C1)C(CC=C1)C(=O)OC
InChI=InChI=1S/C10H14O4/c1-13-9(11)7-5-3-4-6-8(7)10(12)14-2/h3-4,7-8H,5-6H2,1-2H3
computed SMILES=O=C(OC)C1CC=CCC1C(=O)OC
author=KOGA M, UNIV. OF OCCUPATIONAL AND ENVIRONMENTAL HEALTH
license=CC BY-NC-SA
accession=JP002220
date=2016.01.19 (Created 2008.10.21, modified 2011.05.06)
exact mass=198.08921
ionization energy=70 eV
ion type=[M]+*
computed spectral entropy=2.2951995466685733
computed normalized entropy=0.6309677478103268
SPLASH=splash10-004i-9400000000-64ea1725bf5bc139283e
submitter=submitter = University of Tokyo Team (Faculty of Engineering, University of Tokyo)
MoNA Rating=3.75

>  <NUM PEAKS>  (5045) 
38

>  <MASS SPECTRAL PEAKS>  (5045) 
33 5
39 4.1
50 1.8
51 0.34
52 2.7
53 3.1
54 1.5
55 0.25
59 1.3
61 1.5
63 0.9
65 0.22
66 0.9
67 1.5
68 1.1
77 1.27
78 38.3
79 99.99
80 10
81 0.34
82 0.9
91 1.5
93 1.5
97 0.09
105 2.2
106 3.6
107 13
108 0.11
110 1.3
111 2.2
123 1.1
137 0.63
138 40.8
139 5.9
166 15.9
167 1.66
168 1.1
198 0.9

>  <PREDICTED SPECTRUM>  (5045) 
15 53
26 67
27 200
28 115
29 103
30 111
31 155
32 25
33 57
37 22
38 78
39 262
40 107
41 218
42 42
43 6
44 17
45 128
50 110
51 233
52 198
53 235
54 79
55 105
57 6
59 375
60 76
61 41
62 21
63 79
64 37
65 213
66 55
67 175
68 78
69 1
70 24
71 89
74 0
77 480
78 404
79 999
80 373
81 66
83 16
87 1
91 23
92 7
93 29
105 179
106 280
107 353
108 57
109 15
110 194
111 52
112 125
113 1
121 100
123 173
134 0
137 199
138 565
139 272
140 9
166 324
167 235
168 125
198 27

$$$$

     RDKit          2D

 15 16  0  0  0  0  0  0  0  0999 V2000
    3.7781    5.7300    0.0000 C   0  0  0  0  0  0  0  0  0  0  0  0
   -2.7200   -1.0200    0.0000 C   0  0  0  0  0  0  0  0  0  0  0  0
   -2.7200    0.4800    0.0000 C   0  0  0  0  0  0  0  0  0  0  0  0
    2.4800   -1.0200    0.0000 C   0  0  0  0  0  0  0  0  0  0  0  0
   -1.4200   -1.7700    0.0000 C   0  0  0  0  0  0  0  0  0  0  0  0
    1.1800   -1.7700    0.0000 C   0  0  0  0  0  0  0  0  0  0  0  0
    2.4800    0.4800    0.0000 C   0  0  0  0  0  0  0  0  0  0  0  0
   -1.4200    1.2300    0.0000 C   0  0  0  0  0  0  0  0  0  0  0  0
    1.1800    2.7300    0.0000 C   0  0  0  0  0  0  0  0  0  0  0  0
   -0.1200   -1.0200    0.0000 C   0  0  0  0  0  0  0  0  0  0  0  0
    1.1800    1.2300    0.0000 C   0  0  0  0  0  0  0  0  0  0  0  0
   -0.1200    0.4800    0.0000 C   0  0  0  0  0  0  0  0  0  0  0  0
    2.4790    3.4800    0.0000 C   0  0  0  0  0  0  0  0  0  0  0  0
    3.7781    2.7300    0.0000 O   0  0  0  0  0  0  0  0  0  0  0  0
    2.4790    4.9800    0.0000 O   0  0  0  0  0  0  0  0  0  0  0  0
  3  2  2  0
  5  2  1  0
  6  4  2  0
  7  4  1  0
  8  3  1  0
 10  5  2  0
 10  6  1  0
 11  7  2  0
 11  9  1  0
 12  8  2  0
 12 10  1  0
 12 11  1  0
 13  9  1  0
 14 13  2  0
 15  1  1  0
 15 13  1  0
M  END
>  <NAME>  (5046) 
ALPHA-NAPHTHALENEACETIC ACID METHYL ESTER

>  <SYNONYMS>  (5046) 


>  <SPECTRUM TYPE>  (5046) 
MS1

>  <INSTRUMENT TYPE>  (5046) 
EI-B

>  <INSTRUMENT>  (5046) 
JEOL JMS-01-SG

>  <ION MODE>  (5046) 
P

>  <INCHIKEY>  (5046) 
YGGXZTQSGNFKPJ-UHFFFAOYSA-N

>  <FORMULA>  (5046) 
C13H12O2

>  <EXACT MASS>  (5046) 
200.083729624

>  <MW>  (5046) 
200

>  <ID>  (5046) 
JP002219

>  <CONTRIBUTOR>  (5046) 
University of Tokyo Team, {Faculty of Engineering, University of Tokyo

>  <COMMENT>  (5046) 
SMILES=COC(=O)Cc(c1)c(c2)c(ccc2)cc1
InChI=InChI=1S/C13H12O2/c1-15-13(14)9-11-7-4-6-10-5-2-3-8-12(10)11/h2-8H,9H2,1H3
computed SMILES=O=C(OC)CC1=CC=CC=2C=CC=CC21
accession=JP002219
date=2016.01.19 (Created 2008.10.21, modified 2011.05.06)
author=KOGA M, UNIV. OF OCCUPATIONAL AND ENVIRONMENTAL HEALTH
license=CC BY-NC-SA
exact mass=200.08373
ionization energy=70 eV
ion type=[M]+*
computed spectral entropy=1.8015081154296808
computed normalized entropy=0.5152307220162582
SPLASH=splash10-0006-1920000000-6bd8e01c4742ccf73f44
submitter=submitter = University of Tokyo Team (Faculty of Engineering, University of Tokyo)
MoNA Rating=3.75

>  <NUM PEAKS>  (5046) 
33

>  <MASS SPECTRAL PEAKS>  (5046) 
39 1
50 2
51 1
58 0.26
62 1.3
63 2.3
64 1
65 0.06
69 0.6
70 3.3
75 0.6
76 0.1
78 1
86 0.6
87 1
88 0.06
89 2.3
113 1.6
114 1
115 1.77
116 2
139 7.7
140 3.6
141 99.99
142 12
143 1
156 0.6
158 0.06
168 0.6
169 1.3
200 35.9
201 0.5
202 0.6

>  <PREDICTED SPECTRUM>  (5046) 
14 10
15 60
16 3
26 38
27 133
28 23
29 80
31 10
32 7
38 34
39 110
40 14
41 60
42 38
43 82
44 35
45 1
50 68
51 139
52 40
53 1
55 27
57 21
59 230
62 63
63 178
64 87
65 106
66 7
69 7
70 21
71 22
74 78
75 136
76 115
77 141
78 48
83 3
86 64
87 39
88 68
89 88
91 75
92 83
93 19
97 1
102 68
105 50
113 29
114 43
115 490
116 75
125 59
126 108
127 158
128 233
129 259
138 1
139 254
140 217
141 999
142 505
143 95
153 29
154 11
155 96
156 5
157 25
168 218
169 91
170 21
185 83
200 769
201 288
202 59

$$$$

     RDKit          2D

 15 15  0  0  0  0  0  0  0  0999 V2000
   -2.9356    5.4356    0.0000 C   0  0  0  0  0  0  0  0  0  0  0  0
    4.8670    0.9406    0.0000 C   0  0  0  0  0  0  0  0  0  0  0  0
   -1.6200   -1.3100    0.0000 C   0  0  0  0  0  0  0  0  0  0  0  0
   -0.3300   -2.0600    0.0000 C   0  0  0  0  0  0  0  0  0  0  0  0
   -1.6200    0.1900    0.0000 C   0  0  0  0  0  0  0  0  0  0  0  0
    0.9700   -1.3100    0.0000 C   0  0  0  0  0  0  0  0  0  0  0  0
   -0.3325    2.4400    0.0000 C   0  0  0  0  0  0  0  0  0  0  0  0
   -0.3300    0.9400    0.0000 C   0  0  0  0  0  0  0  0  0  0  0  0
    0.9700    0.1900    0.0000 C   0  0  0  0  0  0  0  0  0  0  0  0
   -1.6328    3.1878    0.0000 C   0  0  0  0  0  0  0  0  0  0  0  0
    2.2689    0.9402    0.0000 C   0  0  0  0  0  0  0  0  0  0  0  0
   -2.9306    2.4356    0.0000 O   0  0  0  0  0  0  0  0  0  0  0  0
    2.2687    2.4402    0.0000 O   0  0  0  0  0  0  0  0  0  0  0  0
   -1.6353    4.6878    0.0000 O   0  0  0  0  0  0  0  0  0  0  0  0
    3.5681    0.1904    0.0000 O   0  0  0  0  0  0  0  0  0  0  0  0
  4  3  2  0
  5  3  1  0
  6  4  1  0
  8  5  2  0
  8  7  1  0
  9  6  2  0
  9  8  1  0
 10  7  1  0
 11  9  1  0
 12 10  2  0
 13 11  2  0
 14  1  1  0
 14 10  1  0
 15  2  1  0
 15 11  1  0
M  END
>  <NAME>  (5047) 
(ORTHO-METHOXYCARBONYL)PHENYLACETIC ACID METHYL ESTER

>  <SYNONYMS>  (5047) 


>  <SPECTRUM TYPE>  (5047) 
MS1

>  <INSTRUMENT TYPE>  (5047) 
EI-B

>  <INSTRUMENT>  (5047) 
JEOL JMS-01-SG

>  <ION MODE>  (5047) 
P

>  <INCHIKEY>  (5047) 
ROMWRJNZSHFGEK-UHFFFAOYSA-N

>  <FORMULA>  (5047) 
C11H12O4

>  <EXACT MASS>  (5047) 
208.073558864

>  <MW>  (5047) 
208

>  <ID>  (5047) 
JP002218

>  <CONTRIBUTOR>  (5047) 
University of Tokyo Team, {Faculty of Engineering, University of Tokyo

>  <COMMENT>  (5047) 
SMILES=COC(=O)Cc(c1)c(ccc1)C(=O)OC
InChI=InChI=1S/C11H12O4/c1-14-10(12)7-8-5-3-4-6-9(8)11(13)15-2/h3-6H,7H2,1-2H3
computed SMILES=O=C(OC)C=1C=CC=CC1CC(=O)OC
accession=JP002218
date=2016.01.19 (Created 2008.10.21, modified 2011.05.06)
author=KOGA M, UNIV. OF OCCUPATIONAL AND ENVIRONMENTAL HEALTH
license=CC BY-NC-SA
exact mass=208.07356
ionization energy=70 eV
ion type=[M]+*
computed spectral entropy=2.7376283569684134
computed normalized entropy=0.742130067144194
SPLASH=splash10-002b-3900000000-0cd70492ca6bdf804629
submitter=submitter = University of Tokyo Team (Faculty of Engineering, University of Tokyo)
MoNA Rating=3.75

>  <NUM PEAKS>  (5047) 
40

>  <MASS SPECTRAL PEAKS>  (5047) 
38 2.6
39 7.8
50 2.6
51 0.96
52 2.6
53 3.5
62 6.1
63 1.4
64 6.1
65 10.5
75 1.7
76 0.35
77 10.5
78 7
79 2.6
88 0.17
89 25.4
90 21
91 67.5
92 0.35
103 2.6
104 2.6
105 14.9
106 0.35
117 3.5
118 9.6
119 40.3
120 0.43
121 2.6
133 78.9
134 9.6
145 0.26
148 99.99
149 80.7
150 7
163 0.17
176 98.2
177 33.3
178 4.3
208 2.6

>  <PREDICTED SPECTRUM>  (5047) 
14 32
15 194
16 1
26 48
27 90
28 62
29 85
31 21
32 36
33 19
37 64
38 127
39 262
40 72
41 126
42 8
43 215
44 68
45 194
49 87
50 373
51 472
52 249
53 262
54 31
55 75
57 22
58 48
59 406
61 78
62 217
63 428
64 241
65 366
66 109
67 101
68 38
69 59
74 158
75 192
76 212
77 617
78 359
79 294
80 38
81 66
82 39
83 71
85 48
86 18
87 7
88 47
89 606
90 506
91 660
92 282
93 140
103 62
104 220
105 478
106 258
107 132
108 76
109 68
116 78
117 578
118 450
119 398
120 178
121 294
122 3
132 140
133 402
134 320
135 172
144 27
145 143
146 127
147 231
148 826
149 889
150 350
151 82
162 58
163 145
164 78
165 17
176 999
177 750
178 282
179 41
193 153
194 43
207 83
208 414
209 136

$$$$

     RDKit          2D

 11 11  0  0  0  0  0  0  0  0999 V2000
   -4.8712    2.0071    0.0000 C   0  0  0  0  0  0  0  0  0  0  0  0
    2.9231    0.5071    0.0000 C   0  0  0  0  0  0  0  0  0  0  0  0
    2.9236    2.0079    0.0000 C   0  0  0  0  0  0  0  0  0  0  0  0
    1.6236   -0.2437    0.0000 C   0  0  0  0  0  0  0  0  0  0  0  0
    1.6245    2.7579    0.0000 C   0  0  0  0  0  0  0  0  0  0  0  0
    0.3245    0.5063    0.0000 C   0  0  0  0  0  0  0  0  0  0  0  0
   -0.9740    2.7571    0.0000 C   0  0  0  0  0  0  0  0  0  0  0  0
    0.3250    2.0071    0.0000 C   0  0  0  0  0  0  0  0  0  0  0  0
   -2.2731    2.0071    0.0000 C   0  0  0  0  0  0  0  0  0  0  0  0
   -2.2731    0.5071    0.0000 O   0  0  0  0  0  0  0  0  0  0  0  0
   -3.5721    2.7571    0.0000 O   0  0  0  0  0  0  0  0  0  0  0  0
  3  2  1  0
  4  2  1  0
  5  3  1  0
  6  4  1  0
  8  5  1  0
  8  6  1  0
  8  7  1  0
  9  7  1  0
 10  9  2  0
 11  1  1  0
 11  9  1  0
M  END
>  <NAME>  (5048) 
CYCLOHEXYLACETIC ACID METHYL ESTER

>  <SYNONYMS>  (5048) 


>  <SPECTRUM TYPE>  (5048) 
MS1

>  <INSTRUMENT TYPE>  (5048) 
EI-B

>  <INSTRUMENT>  (5048) 
JEOL JMS-01-SG

>  <ION MODE>  (5048) 
P

>  <INCHIKEY>  (5048) 
IMXBRVLCKXGWSS-UHFFFAOYSA-N

>  <FORMULA>  (5048) 
C9H16O2

>  <EXACT MASS>  (5048) 
156.115029752

>  <MW>  (5048) 
156

>  <ID>  (5048) 
JP002217

>  <CONTRIBUTOR>  (5048) 
University of Tokyo Team, {Faculty of Engineering, University of Tokyo

>  <COMMENT>  (5048) 
SMILES=COC(=O)CC(C1)CCCC1
InChI=InChI=1S/C9H16O2/c1-11-9(10)7-8-5-3-2-4-6-8/h8H,2-7H2,1H3
computed SMILES=O=C(OC)CC1CCCCC1
accession=JP002217
date=2016.01.19 (Created 2008.10.21, modified 2011.05.06)
author=KOGA M, UNIV. OF OCCUPATIONAL AND ENVIRONMENTAL HEALTH
license=CC BY-NC-SA
exact mass=156.11503
ionization energy=70 eV
ion type=[M]+*
computed spectral entropy=2.5359952070914518
computed normalized entropy=0.6784963536333584
SPLASH=splash10-00bc-9000000000-6ae9fad45b0a90df0df6
submitter=submitter = University of Tokyo Team (Faculty of Engineering, University of Tokyo)
MoNA Rating=3.75

>  <NUM PEAKS>  (5048) 
42

>  <MASS SPECTRAL PEAKS>  (5048) 
38 1.3
39 14.2
41 28.1
42 0.3
43 77.6
44 3.3
46 1
50 0.16
52 1.3
53 8.4
54 11.1
55 4.67
56 4
66 1.6
67 14.5
68 0.44
69 1.6
74 84
75 99.99
76 0.5
77 2
79 4
80 4.4
81 1.28
82 8.1
83 8.4
84 1
87 0.2
93 1.6
94 1.6
95 4.7
96 0.2
97 12.8
98 1.3
99 1.6
113 0.57
123 2
124 2
125 15.5
126 0.16
156 2.7
157 1

>  <PREDICTED SPECTRUM>  (5048) 
15 38
26 29
27 192
28 90
29 189
31 79
32 32
33 39
34 4
37 0
38 31
39 349
40 126
41 615
42 268
43 439
44 84
45 176
50 73
51 89
52 58
53 222
54 276
55 618
56 97
57 101
59 378
60 87
61 82
62 41
65 85
66 32
67 314
68 167
69 105
70 23
71 94
72 2
73 46
74 999
75 435
76 122
77 31
79 92
80 148
81 185
82 248
83 521
84 108
85 60
87 348
88 56
89 68
93 67
95 158
96 206
97 228
99 15
101 78
107 12
108 32
113 79
114 33
124 133
125 237
127 72
128 7
141 1
156 193
157 37

$$$$

     RDKit          2D

 10 10  0  0  0  0  0  0  0  0999 V2000
   -2.4863    2.6509    0.0000 C   0  0  0  0  0  0  0  0  0  0  0  0
    3.8509   -0.4865    0.0000 C   0  0  0  0  0  0  0  0  0  0  0  0
    4.8219    0.6515    0.0000 C   0  0  0  0  0  0  0  0  0  0  0  0
    2.4614    0.1200    0.0000 C   0  0  0  0  0  0  0  0  0  0  0  0
    4.0596    1.9319    0.0000 C   0  0  0  0  0  0  0  0  0  0  0  0
    1.4821    2.6062    0.0000 C   0  0  0  0  0  0  0  0  0  0  0  0
    2.6049    1.6116    0.0000 C   0  0  0  0  0  0  0  0  0  0  0  0
    0.0593    2.1312    0.0000 C   0  0  0  0  0  0  0  0  0  0  0  0
   -0.2407    0.6616    0.0000 O   0  0  0  0  0  0  0  0  0  0  0  0
   -1.0635    3.1259    0.0000 O   0  0  0  0  0  0  0  0  0  0  0  0
  3  2  1  0
  4  2  1  0
  5  3  1  0
  7  4  1  0
  7  5  1  0
  7  6  1  0
  8  6  1  0
  9  8  2  0
 10  1  1  0
 10  8  1  0
M  END
>  <NAME>  (5049) 
CYCLOPENTYLACETIC ACID METHYL ESTER

>  <SYNONYMS>  (5049) 


>  <SPECTRUM TYPE>  (5049) 
MS1

>  <INSTRUMENT TYPE>  (5049) 
EI-B

>  <INSTRUMENT>  (5049) 
JEOL JMS-01-SG

>  <ION MODE>  (5049) 
P

>  <INCHIKEY>  (5049) 
ILSNISVKFYYCCE-UHFFFAOYSA-N

>  <FORMULA>  (5049) 
C8H14O2

>  <EXACT MASS>  (5049) 
142.099379688

>  <MW>  (5049) 
142

>  <ID>  (5049) 
JP002216

>  <CONTRIBUTOR>  (5049) 
University of Tokyo Team, {Faculty of Engineering, University of Tokyo

>  <COMMENT>  (5049) 
SMILES=COC(=O)CC(C1)CCC1
InChI=InChI=1S/C8H14O2/c1-10-8(9)6-7-4-2-3-5-7/h7H,2-6H2,1H3
computed SMILES=O=C(OC)CC1CCCC1
accession=JP002216
date=2016.01.19 (Created 2008.10.21, modified 2011.05.06)
author=KOGA M, UNIV. OF OCCUPATIONAL AND ENVIRONMENTAL HEALTH
license=CC BY-NC-SA
exact mass=142.09938
ionization energy=70 eV
ion type=[M]+*
computed spectral entropy=2.968844806454828
computed normalized entropy=0.7550804851937808
SPLASH=splash10-002f-9100000000-c1f3ce52422c2e0aa2cc
submitter=submitter = University of Tokyo Team (Faculty of Engineering, University of Tokyo)
MoNA Rating=3.75

>  <NUM PEAKS>  (5049) 
51

>  <MASS SPECTRAL PEAKS>  (5049) 
38 2
39 32.6
41 71.8
42 1.3
43 82.9
50 2.5
51 1
52 0.25
53 13.5
54 16
55 66.3
56 0.5
58 2.5
61 1.5
63 1.5
66 0.55
67 38.6
68 16.5
69 19
70 0.2
71 1.5
72 5.5
74 76.8
75 99.99
76 5
78 1.5
79 5
80 0.15
81 10
82 16
83 38.6
84 0.3
85 3
86 1
87 10.5
88 0.25
91 1
93 1.5
95 2
99 3.06
100 5
101 3
109 3.5
110 0.45
111 39.6
112 3
113 29.1
114 0.5
127 3.5
142 6
143 1.5

>  <PREDICTED SPECTRUM>  (5049) 
15 60
26 59
27 257
28 115
29 243
31 114
32 35
33 43
36 3
37 29
38 58
39 371
40 153
41 617
42 295
43 403
44 117
45 202
46 11
47 2
48 10
49 15
50 95
51 113
52 85
53 240
54 253
55 600
56 125
57 84
59 374
60 121
61 132
62 46
63 15
65 50
66 89
67 322
68 347
69 490
70 109
71 206
72 100
73 63
74 999
75 460
76 111
77 43
79 121
80 50
81 201
82 238
83 445
84 34
85 114
86 7
87 250
92 48
93 131
94 106
95 132
96 70
99 141
100 92
101 74
110 155
111 344
112 99
113 174
114 101
127 61
142 201
143 60
144 8

$$$$

     RDKit          2D

 11 10  0  0  0  0  0  0  0  0999 V2000
   -4.8714    3.9375    0.0000 C   0  0  0  0  0  0  0  0  0  0  0  0
    2.9228    3.9375    0.0000 C   0  0  0  0  0  0  0  0  0  0  0  0
    0.3248   -0.5625    0.0000 C   0  0  0  0  0  0  0  0  0  0  0  0
   -3.5724    3.1875    0.0000 C   0  0  0  0  0  0  0  0  0  0  0  0
    1.6238    3.1875    0.0000 C   0  0  0  0  0  0  0  0  0  0  0  0
   -2.2733    3.9375    0.0000 C   0  0  0  0  0  0  0  0  0  0  0  0
    0.3248    3.9375    0.0000 C   0  0  0  0  0  0  0  0  0  0  0  0
   -0.9743    3.1875    0.0000 C   0  0  0  0  0  0  0  0  0  0  0  0
   -0.9743    1.6875    0.0000 C   0  0  0  0  0  0  0  0  0  0  0  0
   -2.2733    0.9375    0.0000 O   0  0  0  0  0  0  0  0  0  0  0  0
    0.3248    0.9375    0.0000 O   0  0  0  0  0  0  0  0  0  0  0  0
  4  1  1  0
  5  2  1  0
  6  4  1  0
  7  5  1  0
  8  6  1  0
  8  7  1  0
  9  8  1  0
 10  9  2  0
 11  3  1  0
 11  9  1  0
M  END
>  <NAME>  (5050) 
2-PROPYLPENTANOIC ACID METHYL ESTER

>  <SYNONYMS>  (5050) 


>  <SPECTRUM TYPE>  (5050) 
MS1

>  <INSTRUMENT TYPE>  (5050) 
EI-B

>  <INSTRUMENT>  (5050) 
JEOL JMS-01-SG

>  <ION MODE>  (5050) 
P

>  <INCHIKEY>  (5050) 
WPRYUWYMOZQHIY-UHFFFAOYSA-N

>  <FORMULA>  (5050) 
C9H18O2

>  <EXACT MASS>  (5050) 
158.130679816

>  <MW>  (5050) 
158

>  <ID>  (5050) 
JP002215

>  <CONTRIBUTOR>  (5050) 
University of Tokyo Team, {Faculty of Engineering, University of Tokyo

>  <COMMENT>  (5050) 
SMILES=CCCC(CCC)C(=O)OC
InChI=InChI=1S/C9H18O2/c1-4-6-8(7-5-2)9(10)11-3/h8H,4-7H2,1-3H3
computed SMILES=O=C(OC)C(CCC)CCC
accession=JP002215
date=2016.01.19 (Created 2008.10.21, modified 2011.05.06)
author=KOGA M, UNIV. OF OCCUPATIONAL AND ENVIRONMENTAL HEALTH
license=CC BY-NC-SA
exact mass=158.13068
ionization energy=70 eV
ion type=[M]+*
computed spectral entropy=2.028979013749711
computed normalized entropy=0.6088999062194502
SPLASH=splash10-052r-9100000000-bf6b9f29bfbf3f101478
submitter=submitter = University of Tokyo Team (Faculty of Engineering, University of Tokyo)
MoNA Rating=3.75

>  <NUM PEAKS>  (5050) 
28

>  <MASS SPECTRAL PEAKS>  (5050) 
43 1
51 0.7
53 2.4
54 0.1
55 16.7
56 3.2
57 40.2
58 0.07
67 0.7
69 4.2
70 0.7
78 0.07
79 1
83 5.3
84 2.1
87 99.99
88 6.7
91 1.4
93 1
97 0.21
98 0.7
99 4.6
115 7.4
116 4.41
117 3.2
127 5.6
129 6
130 0.7

>  <PREDICTED SPECTRUM>  (5050) 
14 3
15 148
16 4
25 6
26 85
27 397
28 158
29 471
30 32
31 146
32 14
33 26
37 23
38 117
39 481
40 190
41 789
42 342
43 733
44 81
45 160
46 33
50 106
51 152
52 83
53 234
54 169
55 882
56 322
57 999
58 268
59 568
60 120
61 50
66 6
67 173
68 33
69 368
70 223
71 121
72 127
73 372
74 172
82 94
83 383
84 311
85 174
87 993
88 389
89 13
96 9
97 64
98 122
99 352
100 71
101 326
102 101
113 16
115 379
116 856
117 210
126 0
127 266
129 341
130 101

$$$$

     RDKit          2D

  9  9  0  0  0  0  0  0  0  0999 V2000
   -1.9249    2.1536    0.0000 C   0  0  0  0  0  0  0  0  0  0  0  0
    2.9894   -1.4589    0.0000 C   0  0  0  0  0  0  0  0  0  0  0  0
    3.9605   -0.3209    0.0000 C   0  0  0  0  0  0  0  0  0  0  0  0
    1.6000   -0.8523    0.0000 C   0  0  0  0  0  0  0  0  0  0  0  0
    3.1982    0.9595    0.0000 C   0  0  0  0  0  0  0  0  0  0  0  0
    1.7435    0.6392    0.0000 C   0  0  0  0  0  0  0  0  0  0  0  0
    0.6207    1.6339    0.0000 C   0  0  0  0  0  0  0  0  0  0  0  0
    0.9207    3.1036    0.0000 O   0  0  0  0  0  0  0  0  0  0  0  0
   -0.8021    1.1589    0.0000 O   0  0  0  0  0  0  0  0  0  0  0  0
  3  2  1  0
  4  2  1  0
  5  3  1  0
  6  4  1  0
  6  5  1  0
  7  6  1  0
  8  7  2  0
  9  1  1  0
  9  7  1  0
M  END
>  <NAME>  (5051) 
CYCLOPENTANECARBOXYLIC ACID METHYL ESTER

>  <SYNONYMS>  (5051) 


>  <SPECTRUM TYPE>  (5051) 
MS1

>  <INSTRUMENT TYPE>  (5051) 
EI-B

>  <INSTRUMENT>  (5051) 
JEOL JMS-01-SG

>  <ION MODE>  (5051) 
P

>  <INCHIKEY>  (5051) 
IIHIJFJSXPDTNO-UHFFFAOYSA-N

>  <FORMULA>  (5051) 
C7H12O2

>  <EXACT MASS>  (5051) 
128.083729624

>  <MW>  (5051) 
128

>  <ID>  (5051) 
JP002214

>  <CONTRIBUTOR>  (5051) 
University of Tokyo Team, {Faculty of Engineering, University of Tokyo

>  <COMMENT>  (5051) 
SMILES=COC(=O)C(C1)CCC1
InChI=InChI=1S/C7H12O2/c1-9-7(8)6-4-2-3-5-6/h6H,2-5H2,1H3
computed SMILES=O=C(OC)C1CCCC1
accession=JP002214
date=2016.01.19 (Created 2008.10.21, modified 2011.05.06)
author=KOGA M, UNIV. OF OCCUPATIONAL AND ENVIRONMENTAL HEALTH
license=CC BY-NC-SA
exact mass=128.08373
ionization energy=70 eV
ion type=[M]+*
computed spectral entropy=1.970561097938202
computed normalized entropy=0.620052775418992
SPLASH=splash10-00kr-9100000000-c00e2b8f297d67e56996
submitter=submitter = University of Tokyo Team (Faculty of Engineering, University of Tokyo)
MoNA Rating=3.75

>  <NUM PEAKS>  (5051) 
24

>  <MASS SPECTRAL PEAKS>  (5051) 
42 1.2
53 3
55 14.5
56 0.09
65 0.9
66 1.8
67 12.4
68 1
69 43
70 2.4
85 2.1
87 99.99
88 4.8
95 2.4
96 2.1
97 1.57
98 1.5
99 0.9
100 13.9
101 0.18
113 1.5
127 2.4
128 8.7
129 1.8

>  <PREDICTED SPECTRUM>  (5051) 
14 40
15 143
16 4
25 15
26 129
27 380
28 192
29 380
31 162
32 19
33 47
36 15
37 65
38 127
39 448
40 220
41 660
42 286
43 127
45 182
46 23
50 76
51 79
52 34
53 142
54 173
55 536
56 171
57 70
58 32
59 544
61 0
63 24
65 116
66 78
67 242
68 278
69 999
70 272
71 167
72 74
73 259
74 30
85 111
86 149
87 860
88 186
89 51
96 100
97 335
98 0
99 65
100 207
101 105
113 26
128 289
129 47

$$$$

     RDKit          2D

 12 12  0  0  0  0  0  0  0  0999 V2000
   -0.9740    4.2571    0.0000 C   0  0  0  0  0  0  0  0  0  0  0  0
   -4.8712    2.0071    0.0000 C   0  0  0  0  0  0  0  0  0  0  0  0
    2.9231    0.5071    0.0000 C   0  0  0  0  0  0  0  0  0  0  0  0
    2.9236    2.0079    0.0000 C   0  0  0  0  0  0  0  0  0  0  0  0
    1.6236   -0.2437    0.0000 C   0  0  0  0  0  0  0  0  0  0  0  0
    1.6245    2.7579    0.0000 C   0  0  0  0  0  0  0  0  0  0  0  0
    0.3245    0.5063    0.0000 C   0  0  0  0  0  0  0  0  0  0  0  0
   -0.9740    2.7571    0.0000 C   0  0  0  0  0  0  0  0  0  0  0  0
    0.3250    2.0071    0.0000 C   0  0  0  0  0  0  0  0  0  0  0  0
   -2.2731    2.0071    0.0000 C   0  0  0  0  0  0  0  0  0  0  0  0
   -2.2731    0.5071    0.0000 O   0  0  0  0  0  0  0  0  0  0  0  0
   -3.5721    2.7571    0.0000 O   0  0  0  0  0  0  0  0  0  0  0  0
  4  3  2  0
  5  3  1  0
  6  4  1  0
  7  5  2  0
  8  1  1  0
  9  6  2  0
  9  7  1  0
  9  8  1  0
 10  8  1  0
 11 10  2  0
 12  2  1  0
 12 10  1  0
M  END
>  <NAME>  (5052) 
ALPHA-PHENYLPROPIONIC ACID METHYL ESTER

>  <SYNONYMS>  (5052) 


>  <SPECTRUM TYPE>  (5052) 
MS1

>  <INSTRUMENT TYPE>  (5052) 
EI-B

>  <INSTRUMENT>  (5052) 
JEOL JMS-01-SG

>  <ION MODE>  (5052) 
P

>  <INCHIKEY>  (5052) 
DZIQUZJSNSZOCH-UHFFFAOYSA-N

>  <FORMULA>  (5052) 
C10H12O2

>  <EXACT MASS>  (5052) 
164.083729624

>  <MW>  (5052) 
164

>  <ID>  (5052) 
JP002211

>  <CONTRIBUTOR>  (5052) 
University of Tokyo Team, {Faculty of Engineering, University of Tokyo

>  <COMMENT>  (5052) 
SMILES=COC(=O)C(C)c(c1)cccc1
InChI=InChI=1S/C10H12O2/c1-8(10(11)12-2)9-6-4-3-5-7-9/h3-8H,1-2H3
computed SMILES=O=C(OC)C(C=1C=CC=CC1)C
accession=JP002211
date=2016.01.19 (Created 2008.10.21, modified 2011.05.06)
author=KOGA M, UNIV. OF OCCUPATIONAL AND ENVIRONMENTAL HEALTH
license=CC BY-NC-SA
exact mass=164.08373
ionization energy=70 eV
ion type=[M]+*
computed spectral entropy=1.523851543948241
computed normalized entropy=0.577422675456012
SPLASH=splash10-0a4i-2900000000-65a5be1d1341a3fe58be
submitter=submitter = University of Tokyo Team (Faculty of Engineering, University of Tokyo)
MoNA Rating=3.75

>  <NUM PEAKS>  (5052) 
14

>  <MASS SPECTRAL PEAKS>  (5052) 
50 2.2
51 4.5
52 1.4
63 0.17
70 8.7
77 10.8
78 3.1
79 1.17
103 7.5
104 4.3
105 99.99
106 0.92
164 19.6
165 2.4

>  <PREDICTED SPECTRUM>  (5052) 
15 41
26 63
27 232
28 47
29 62
32 26
37 9
38 69
39 240
40 56
41 187
42 10
43 134
44 44
49 29
50 173
51 309
52 140
53 110
54 7
55 45
59 292
60 31
61 38
62 88
63 152
64 19
65 174
66 33
67 7
69 43
74 53
75 64
76 45
77 491
78 253
79 327
89 149
90 82
91 361
92 22
102 187
103 322
104 373
105 999
106 334
107 59
118 36
119 35
121 150
122 90
128 21
132 75
133 43
164 433
165 146
166 23

$$$$

     RDKit          2D

 16 16  0  0  0  0  0  0  0  0999 V2000
   -6.1702    4.2571    0.0000 C   0  0  0  0  0  0  0  0  0  0  0  0
   -3.5721   -0.2429    0.0000 C   0  0  0  0  0  0  0  0  0  0  0  0
    2.9231    2.0071    0.0000 C   0  0  0  0  0  0  0  0  0  0  0  0
    2.9236    3.5079    0.0000 C   0  0  0  0  0  0  0  0  0  0  0  0
    1.6236    1.2563    0.0000 C   0  0  0  0  0  0  0  0  0  0  0  0
    1.6245    4.2579    0.0000 C   0  0  0  0  0  0  0  0  0  0  0  0
    0.3245    2.0063    0.0000 C   0  0  0  0  0  0  0  0  0  0  0  0
   -0.9740    4.2571    0.0000 C   0  0  0  0  0  0  0  0  0  0  0  0
    0.3250    3.5071    0.0000 C   0  0  0  0  0  0  0  0  0  0  0  0
   -2.2731    3.5071    0.0000 C   0  0  0  0  0  0  0  0  0  0  0  0
   -3.5721    4.2571    0.0000 C   0  0  0  0  0  0  0  0  0  0  0  0
   -2.2731    2.0071    0.0000 C   0  0  0  0  0  0  0  0  0  0  0  0
   -3.5721    5.7571    0.0000 O   0  0  0  0  0  0  0  0  0  0  0  0
   -0.9740    1.2571    0.0000 O   0  0  0  0  0  0  0  0  0  0  0  0
   -4.8712    3.5071    0.0000 O   0  0  0  0  0  0  0  0  0  0  0  0
   -3.5721    1.2571    0.0000 O   0  0  0  0  0  0  0  0  0  0  0  0
  4  3  2  0
  5  3  1  0
  6  4  1  0
  7  5  2  0
  9  6  2  0
  9  7  1  0
  9  8  1  0
 10  8  1  0
 11 10  1  0
 12 10  1  0
 13 11  2  0
 14 12  2  0
 15  1  1  0
 15 11  1  0
 16  2  1  0
 16 12  1  0
M  END
>  <NAME>  (5053) 
BENZYLMALONIC ACID METHYL ESTER

>  <SYNONYMS>  (5053) 


>  <SPECTRUM TYPE>  (5053) 
MS1

>  <INSTRUMENT TYPE>  (5053) 
EI-B

>  <INSTRUMENT>  (5053) 
JEOL JMS-01-SG

>  <ION MODE>  (5053) 
P

>  <INCHIKEY>  (5053) 
ZMYJSOIMFGAQRQ-UHFFFAOYSA-N

>  <FORMULA>  (5053) 
C12H14O4

>  <EXACT MASS>  (5053) 
222.089208928

>  <MW>  (5053) 
222

>  <ID>  (5053) 
JP002209

>  <CONTRIBUTOR>  (5053) 
University of Tokyo Team, {Faculty of Engineering, University of Tokyo

>  <COMMENT>  (5053) 
SMILES=COC(=O)C(C(=O)OC)Cc(c1)cccc1
InChI=InChI=1S/C12H14O4/c1-15-11(13)10(12(14)16-2)8-9-6-4-3-5-7-9/h3-7,10H,8H2,1-2H3
computed SMILES=O=C(OC)C(C(=O)OC)CC=1C=CC=CC1
accession=JP002209
date=2016.01.19 (Created 2008.10.21, modified 2011.05.06)
author=KOGA M, UNIV. OF OCCUPATIONAL AND ENVIRONMENTAL HEALTH
license=CC BY-NC-SA
exact mass=222.08921
ionization energy=70 eV
ion type=[M]+*
computed spectral entropy=2.6014863162302313
computed normalized entropy=0.7440242214546032
SPLASH=splash10-03ec-3900000000-31ecf271eb2b3186dabe
submitter=submitter = University of Tokyo Team (Faculty of Engineering, University of Tokyo)
MoNA Rating=3.75

>  <NUM PEAKS>  (5053) 
33

>  <MASS SPECTRAL PEAKS>  (5053) 
50 2.9
51 12.9
52 4.7
59 0.82
63 5.2
65 11.1
76 2.9
77 1.64
78 6.4
89 3.5
91 72.3
92 0.64
102 7.6
103 27.6
104 7
105 0.41
117 7
121 6.4
130 3.5
131 99.99
132 10.5
144 3.5
147 5.2
159 2.88
160 4.7
161 25.8
162 87
163 2.17
164 2.9
190 5.2
191 4.7
222 3.94
223 7

>  <PREDICTED SPECTRUM>  (5053) 
14 11
15 176
16 6
26 22
27 131
28 68
29 49
30 31
31 59
32 17
33 51
38 28
39 209
40 27
41 83
42 70
44 3
45 51
50 144
51 285
52 76
53 53
55 129
56 35
57 86
59 178
60 41
61 57
62 71
63 198
64 51
65 352
66 60
69 30
71 18
74 58
75 74
76 11
77 299
78 214
79 8
88 100
89 157
90 119
91 972
92 266
93 38
99 14
101 99
102 223
103 430
104 285
105 116
113 24
115 10
117 117
118 87
119 87
120 51
121 102
128 63
130 95
131 830
132 482
133 117
134 78
158 18
159 141
160 72
161 598
162 999
163 501
164 140
190 11
191 48
222 163
223 46

$$$$

     RDKit          2D

 10 10  0  0  0  0  0  0  0  0999 V2000
   -3.5724    2.0075    0.0000 C   0  0  0  0  0  0  0  0  0  0  0  0
    2.9228   -0.2425    0.0000 C   0  0  0  0  0  0  0  0  0  0  0  0
    2.9233    1.2583    0.0000 C   0  0  0  0  0  0  0  0  0  0  0  0
    1.6233   -0.9933    0.0000 C   0  0  0  0  0  0  0  0  0  0  0  0
    1.6243    2.0083    0.0000 C   0  0  0  0  0  0  0  0  0  0  0  0
    0.3243   -0.2433    0.0000 C   0  0  0  0  0  0  0  0  0  0  0  0
    0.3248    1.2575    0.0000 C   0  0  0  0  0  0  0  0  0  0  0  0
   -0.9743    2.0075    0.0000 C   0  0  0  0  0  0  0  0  0  0  0  0
   -0.9743    3.5075    0.0000 O   0  0  0  0  0  0  0  0  0  0  0  0
   -2.2733    1.2575    0.0000 O   0  0  0  0  0  0  0  0  0  0  0  0
  3  2  1  0
  4  2  1  0
  5  3  1  0
  6  4  1  0
  7  5  1  0
  7  6  1  0
  8  7  1  0
  9  8  2  0
 10  1  1  0
 10  8  1  0
M  END
>  <NAME>  (5054) 
CYCLOHEXANECARBOXYLIC ACID METHYL ESTER

>  <SYNONYMS>  (5054) 


>  <SPECTRUM TYPE>  (5054) 
MS1

>  <INSTRUMENT TYPE>  (5054) 
EI-B

>  <INSTRUMENT>  (5054) 
JEOL JMS-01-SG

>  <ION MODE>  (5054) 
P

>  <INCHIKEY>  (5054) 
ZQWPRMPSCMSAJU-UHFFFAOYSA-N

>  <FORMULA>  (5054) 
C8H14O2

>  <EXACT MASS>  (5054) 
142.099379688

>  <MW>  (5054) 
142

>  <ID>  (5054) 
JP002208

>  <CONTRIBUTOR>  (5054) 
University of Tokyo Team, {Faculty of Engineering, University of Tokyo

>  <COMMENT>  (5054) 
SMILES=COC(=O)C(C1)CCCC1
InChI=InChI=1S/C8H14O2/c1-10-8(9)7-5-3-2-4-6-7/h7H,2-6H2,1H3
computed SMILES=O=C(OC)C1CCCCC1
accession=JP002208
date=2016.01.19 (Created 2008.10.21, modified 2011.05.06)
author=KOGA M, UNIV. OF OCCUPATIONAL AND ENVIRONMENTAL HEALTH
license=CC BY-NC-SA
exact mass=142.09938
ionization energy=70 eV
ion type=[M]+*
computed spectral entropy=2.692702127389102
computed normalized entropy=0.7841328365674024
SPLASH=splash10-0bu9-9300000000-4e253eb261ff28940df3
submitter=submitter = University of Tokyo Team (Faculty of Engineering, University of Tokyo)
MoNA Rating=3.75

>  <NUM PEAKS>  (5054) 
31

>  <MASS SPECTRAL PEAKS>  (5054) 
50 2.6
53 9.3
54 10.6
55 99.99
56 5.3
61 5.3
65 12.6
67 1.86
68 20
69 12
74 4
75 0.4
78 2.6
79 6.6
81 18.6
82 2.93
83 77.3
84 6.6
87 98.6
88 0.66
99 2.6
100 5.3
101 16
109 0.53
110 29.3
111 26.6
113 21.3
114 0.53
127 10.6
142 28
143 5.3

>  <PREDICTED SPECTRUM>  (5054) 
14 14
15 126
16 13
17 7
18 20
25 12
26 166
27 547
28 266
29 500
30 7
31 201
32 40
33 69
37 64
38 132
39 610
40 258
41 867
42 360
43 315
44 31
45 264
46 73
47 15
49 21
50 176
51 220
52 141
53 357
54 356
55 999
56 319
57 124
59 640
60 134
61 59
62 72
63 95
64 40
65 176
66 180
67 499
68 433
69 456
70 187
71 171
72 39
73 215
74 489
75 198
76 63
77 157
78 67
79 57
80 99
81 373
82 470
83 819
84 278
85 223
86 58
87 954
88 311
91 32
92 121
93 109
95 139
96 23
98 61
99 275
100 367
101 346
102 101
109 37
110 515
111 486
112 64
113 239
114 208
115 30
127 184
141 83
142 404
143 82

$$$$

     RDKit          2D

 13 13  0  0  0  0  0  0  0  0999 V2000
   -3.8982   -0.3752    0.0000 C   0  0  0  0  0  0  0  0  0  0  0  0
    2.5977   -4.1256    0.0000 C   0  0  0  0  0  0  0  0  0  0  0  0
   -2.5990    0.3746    0.0000 C   0  0  0  0  0  0  0  0  0  0  0  0
    2.5981    1.8758    0.0000 C   0  0  0  0  0  0  0  0  0  0  0  0
    1.2990    2.6258    0.0000 C   0  0  0  0  0  0  0  0  0  0  0  0
    2.5976    0.3750    0.0000 C   0  0  0  0  0  0  0  0  0  0  0  0
   -0.0005    1.8750    0.0000 C   0  0  0  0  0  0  0  0  0  0  0  0
    1.2981   -0.3758    0.0000 C   0  0  0  0  0  0  0  0  0  0  0  0
   -0.0010    0.3742    0.0000 C   0  0  0  0  0  0  0  0  0  0  0  0
    1.2983   -1.8758    0.0000 C   0  0  0  0  0  0  0  0  0  0  0  0
   -0.0006   -2.6260    0.0000 O   0  0  0  0  0  0  0  0  0  0  0  0
    2.5975   -2.6256    0.0000 O   0  0  0  0  0  0  0  0  0  0  0  0
   -1.3001   -0.3756    0.0000 O   0  0  0  0  0  0  0  0  0  0  0  0
  3  1  1  0
  5  4  2  0
  6  4  1  0
  7  5  1  0
  8  6  2  0
  9  7  2  0
  9  8  1  0
 10  8  1  0
 11 10  2  0
 12  2  1  0
 12 10  1  0
 13  3  1  0
 13  9  1  0
M  END
>  <NAME>  (5055) 
2-ETHOXYBENZOIC ACID METHYL ESTER

>  <SYNONYMS>  (5055) 


>  <SPECTRUM TYPE>  (5055) 
MS1

>  <INSTRUMENT TYPE>  (5055) 
EI-B

>  <INSTRUMENT>  (5055) 
JEOL JMS-01-SG

>  <ION MODE>  (5055) 
P

>  <INCHIKEY>  (5055) 
QAYQKAPOTVSWLS-UHFFFAOYSA-N

>  <FORMULA>  (5055) 
C10H12O3

>  <EXACT MASS>  (5055) 
180.078644244

>  <MW>  (5055) 
180

>  <ID>  (5055) 
JP002206

>  <CONTRIBUTOR>  (5055) 
University of Tokyo Team, {Faculty of Engineering, University of Tokyo

>  <COMMENT>  (5055) 
SMILES=CCOc(c1)c(ccc1)C(=O)OC
InChI=InChI=1S/C10H12O3/c1-3-13-9-7-5-4-6-8(9)10(11)12-2/h4-7H,3H2,1-2H3
computed SMILES=O=C(OC)C=1C=CC=CC1OCC
accession=JP002206
date=2016.01.19 (Created 2008.10.21, modified 2011.05.06)
author=KOGA M, UNIV. OF OCCUPATIONAL AND ENVIRONMENTAL HEALTH
license=CC BY-NC-SA
exact mass=180.07864
ionization energy=70 eV
ion type=[M]+*
computed spectral entropy=2.421430312061196
computed normalized entropy=0.6810670207762459
SPLASH=splash10-00di-2900000000-c682f42166c19c565234
submitter=submitter = University of Tokyo Team (Faculty of Engineering, University of Tokyo)
MoNA Rating=3.75

>  <NUM PEAKS>  (5055) 
35

>  <MASS SPECTRAL PEAKS>  (5055) 
50 1.4
51 3.4
52 2
53 0.25
62 1.7
63 5.7
64 7.1
65 1.26
76 2
77 5.7
91 2.5
92 3.18
93 10
103 1.4
104 1.4
105 0.51
107 1.1
120 99.99
121 28
122 0.28
133 17.4
134 1.7
135 2.5
137 0.02
147 14.3
148 2.8
149 9.7
150 0.17
151 1.1
152 3.4
157 1.1
165 1.63
166 2.2
180 13.4
181 1.7

>  <PREDICTED SPECTRUM>  (5055) 
14 48
15 225
16 27
17 15
18 40
25 31
26 136
27 326
28 201
29 428
30 83
31 131
32 28
33 3
37 145
38 250
39 409
40 112
41 195
42 36
43 20
44 102
45 138
49 112
50 358
51 375
52 258
53 258
54 94
59 26
61 86
62 228
63 517
64 437
65 527
66 249
67 77
68 42
74 118
75 149
76 304
77 482
78 234
79 133
80 107
81 54
89 128
90 191
91 222
92 605
93 493
94 223
95 129
104 154
105 325
106 176
107 93
108 57
119 250
120 999
121 817
122 307
123 122
133 471
135 165
136 124
137 133
147 108
148 207
149 633
150 169
151 136
152 455
153 157
165 99
180 486
181 149
182 16

$$$$

     RDKit          2D

 15 15  0  0  0  0  0  0  0  0999 V2000
   -7.7951   -1.5010    0.0000 C   0  0  0  0  0  0  0  0  0  0  0  0
    5.1970    1.5006    0.0000 C   0  0  0  0  0  0  0  0  0  0  0  0
   -6.4962   -0.7508    0.0000 C   0  0  0  0  0  0  0  0  0  0  0  0
   -5.1970   -1.5006    0.0000 C   0  0  0  0  0  0  0  0  0  0  0  0
   -3.8981   -0.7504    0.0000 C   0  0  0  0  0  0  0  0  0  0  0  0
   -2.5989   -1.5002    0.0000 C   0  0  0  0  0  0  0  0  0  0  0  0
   -1.3000    0.7500    0.0000 C   0  0  0  0  0  0  0  0  0  0  0  0
    0.0000   -1.5000    0.0000 C   0  0  0  0  0  0  0  0  0  0  0  0
    0.0000    1.5000    0.0000 C   0  0  0  0  0  0  0  0  0  0  0  0
    1.3000   -0.7500    0.0000 C   0  0  0  0  0  0  0  0  0  0  0  0
   -1.3000   -0.7500    0.0000 C   0  0  0  0  0  0  0  0  0  0  0  0
    1.3000    0.7500    0.0000 C   0  0  0  0  0  0  0  0  0  0  0  0
    2.5989    1.5002    0.0000 C   0  0  0  0  0  0  0  0  0  0  0  0
    2.5987    3.0002    0.0000 O   0  0  0  0  0  0  0  0  0  0  0  0
    3.8981    0.7504    0.0000 O   0  0  0  0  0  0  0  0  0  0  0  0
  3  1  1  0
  4  3  1  0
  5  4  1  0
  6  5  1  0
  9  7  2  0
 10  8  1  0
 11  6  1  0
 11  7  1  0
 11  8  2  0
 12  9  1  0
 12 10  2  0
 13 12  1  0
 14 13  2  0
 15  2  1  0
 15 13  1  0
M  END
>  <NAME>  (5056) 
4-N-AMYLBENZOIC ACID METHYL ESTER

>  <SYNONYMS>  (5056) 


>  <SPECTRUM TYPE>  (5056) 
MS1

>  <INSTRUMENT TYPE>  (5056) 
EI-B

>  <INSTRUMENT>  (5056) 
JEOL JMS-01-SG

>  <ION MODE>  (5056) 
P

>  <INCHIKEY>  (5056) 
STDGBCHZHMQCAE-UHFFFAOYSA-N

>  <FORMULA>  (5056) 
C13H18O2

>  <EXACT MASS>  (5056) 
206.130679816

>  <MW>  (5056) 
206

>  <ID>  (5056) 
JP002205

>  <CONTRIBUTOR>  (5056) 
University of Tokyo Team, {Faculty of Engineering, University of Tokyo

>  <COMMENT>  (5056) 
SMILES=CCCCCc(c1)ccc(c1)C(=O)OC
InChI=InChI=1S/C13H18O2/c1-3-4-5-6-11-7-9-12(10-8-11)13(14)15-2/h7-10H,3-6H2,1-2H3
computed SMILES=O=C(OC)C1=CC=C(C=C1)CCCCC
accession=JP002205
date=2016.01.19 (Created 2008.10.21, modified 2011.05.06)
author=KOGA M, UNIV. OF OCCUPATIONAL AND ENVIRONMENTAL HEALTH
license=CC BY-NC-SA
exact mass=206.13068
ionization energy=70 eV
ion type=[M]+*
computed spectral entropy=3.1489126374144525
computed normalized entropy=0.7788455868631623
SPLASH=splash10-0k96-4910000000-564da4d816cdbfa3fa2e
submitter=submitter = University of Tokyo Team (Faculty of Engineering, University of Tokyo)
MoNA Rating=3.75

>  <NUM PEAKS>  (5056) 
57

>  <MASS SPECTRAL PEAKS>  (5056) 
42 2.2
45 3.4
51 3.4
55 0.22
59 5.7
62 3.4
63 3.4
64 0.22
65 10.3
76 6.8
77 10.3
78 0.45
79 2.2
89 12.6
90 18.3
91 99.99
92 5.7
102 5.7
103 4.5
104 0.22
105 19.5
106 8
107 6.8
110 0.22
115 6.8
117 2.2
118 32.1
119 2.75
121 22.9
122 4.5
123 3.4
131 0.45
133 2.2
134 2.2
135 13.7
145 0.45
146 4.5
147 9.1
148 3.4
149 6.78
150 97.7
151 8
152 4.5
161 0.45
163 9.1
164 4.5
165 4.5
167 0.22
175 51.7
176 9.1
178 2.2
180 0.57
205 5.7
206 45.9
207 5.7
208 0.34
219 5.7

>  <PREDICTED SPECTRUM>  (5056) 
15 2
26 15
27 110
29 177
31 0
33 0
37 10
38 99
39 302
40 92
41 381
42 97
43 294
44 99
45 23
50 222
51 346
52 180
53 158
54 13
55 189
56 5
57 65
59 220
62 149
63 309
64 211
65 338
66 78
67 67
69 59
70 22
74 113
75 141
76 198
77 491
78 287
79 231
80 24
87 64
88 52
89 393
90 442
91 912
92 352
93 55
102 169
103 331
104 269
105 352
106 123
107 319
108 114
109 7
115 186
116 120
117 271
118 431
119 300
120 121
121 175
122 33
123 10
131 378
132 158
133 86
134 60
135 367
136 568
137 178
138 74
145 129
146 97
147 280
148 82
149 999
150 832
151 11
161 60
162 111
163 242
164 90
173 3
175 823
176 286
177 236
178 79
191 94
192 0
205 53
206 714
207 305
208 74

$$$$

     RDKit          2D

 14 14  0  0  0  0  0  0  0  0999 V2000
    5.1970    2.2504    0.0000 C   0  0  0  0  0  0  0  0  0  0  0  0
   -6.4962   -0.0010    0.0000 C   0  0  0  0  0  0  0  0  0  0  0  0
    3.8978    3.0002    0.0000 C   0  0  0  0  0  0  0  0  0  0  0  0
    2.5989    2.2500    0.0000 C   0  0  0  0  0  0  0  0  0  0  0  0
    1.2998    2.9998    0.0000 C   0  0  0  0  0  0  0  0  0  0  0  0
    0.0008    0.7496    0.0000 C   0  0  0  0  0  0  0  0  0  0  0  0
   -1.2992    2.9996    0.0000 C   0  0  0  0  0  0  0  0  0  0  0  0
   -1.2992   -0.0004    0.0000 C   0  0  0  0  0  0  0  0  0  0  0  0
   -2.5992    2.2496    0.0000 C   0  0  0  0  0  0  0  0  0  0  0  0
    0.0008    2.2496    0.0000 C   0  0  0  0  0  0  0  0  0  0  0  0
   -2.5992    0.7496    0.0000 C   0  0  0  0  0  0  0  0  0  0  0  0
   -3.8981   -0.0006    0.0000 C   0  0  0  0  0  0  0  0  0  0  0  0
   -3.8978   -1.5006    0.0000 O   0  0  0  0  0  0  0  0  0  0  0  0
   -5.1972    0.7492    0.0000 O   0  0  0  0  0  0  0  0  0  0  0  0
  3  1  1  0
  4  3  1  0
  5  4  1  0
  8  6  2  0
  9  7  1  0
 10  5  1  0
 10  6  1  0
 10  7  2  0
 11  8  1  0
 11  9  2  0
 12 11  1  0
 13 12  2  0
 14  2  1  0
 14 12  1  0
M  END
>  <NAME>  (5057) 
4-N-BUTYLBENZOIC ACID METHYL ESTER

>  <SYNONYMS>  (5057) 


>  <SPECTRUM TYPE>  (5057) 
MS1

>  <INSTRUMENT TYPE>  (5057) 
EI-B

>  <INSTRUMENT>  (5057) 
JEOL JMS-01-SG

>  <ION MODE>  (5057) 
P

>  <INCHIKEY>  (5057) 
XJRYQLPELPLPHZ-UHFFFAOYSA-N

>  <FORMULA>  (5057) 
C12H16O2

>  <EXACT MASS>  (5057) 
192.115029752

>  <MW>  (5057) 
192

>  <ID>  (5057) 
JP002204

>  <CONTRIBUTOR>  (5057) 
University of Tokyo Team, {Faculty of Engineering, University of Tokyo

>  <COMMENT>  (5057) 
SMILES=CCCCc(c1)ccc(c1)C(=O)OC
InChI=InChI=1S/C12H16O2/c1-3-4-5-10-6-8-11(9-7-10)12(13)14-2/h6-9H,3-5H2,1-2H3
computed SMILES=O=C(OC)C1=CC=C(C=C1)CCCC
accession=JP002204
date=2016.01.19 (Created 2008.10.21, modified 2011.05.06)
author=KOGA M, UNIV. OF OCCUPATIONAL AND ENVIRONMENTAL HEALTH
license=CC BY-NC-SA
exact mass=192.11503
ionization energy=70 eV
ion type=[M]+*
computed spectral entropy=2.8610466576992946
computed normalized entropy=0.7390591833484538
SPLASH=splash10-0gvp-3900000000-096bbde31a3692198c42
submitter=submitter = University of Tokyo Team (Faculty of Engineering, University of Tokyo)
MoNA Rating=3.75

>  <NUM PEAKS>  (5057) 
48

>  <MASS SPECTRAL PEAKS>  (5057) 
45 5.4
50 4.5
51 6.3
52 0.27
53 6.3
55 5.4
58 5.4
62 0.27
63 5.4
65 7.2
66 1.8
77 0.99
78 4.5
79 2.7
89 10.8
90 1.62
91 96.3
92 6.3
102 3.6
103 0.45
104 4.5
105 2.7
107 5.4
110 0.45
115 5.4
116 4.5
118 17.1
119 1.44
120 3.6
121 28.8
131 5.4
133 1.53
134 5.4
135 9
141 1.8
143 0.27
149 87.3
150 99.99
151 8.1
152 0.27
161 66.6
162 10.8
163 5.4
164 0.36
178 5.4
191 5.4
192 54.9
193 5.4

>  <PREDICTED SPECTRUM>  (5057) 
26 9
27 103
29 113
33 7
38 77
39 302
40 80
41 338
43 217
44 38
50 126
51 285
52 123
53 132
54 17
55 169
59 119
62 123
63 288
64 173
65 347
66 33
67 88
74 94
75 87
76 111
77 451
78 281
79 251
80 6
89 483
90 527
91 884
92 342
93 51
102 176
103 316
104 220
105 395
106 114
107 274
108 132
115 226
116 128
117 347
118 469
119 233
120 57
121 294
122 128
123 89
129 48
130 48
131 487
132 193
133 354
134 103
135 348
136 272
147 81
149 999
150 626
151 136
161 942
162 508
163 339
164 130
177 201
178 302
191 116
192 753
193 281
194 33

$$$$

     RDKit          2D

 14 14  0  0  0  0  0  0  0  0999 V2000
    3.3491    0.2013    0.0000 C   0  0  0  0  0  0  0  0  0  0  0  0
    3.8978    2.2504    0.0000 C   0  0  0  0  0  0  0  0  0  0  0  0
    1.8487    2.7991    0.0000 C   0  0  0  0  0  0  0  0  0  0  0  0
   -5.1970   -1.5006    0.0000 C   0  0  0  0  0  0  0  0  0  0  0  0
   -1.3000    0.7500    0.0000 C   0  0  0  0  0  0  0  0  0  0  0  0
   -0.0000   -1.5000    0.0000 C   0  0  0  0  0  0  0  0  0  0  0  0
    0.0000    1.5000    0.0000 C   0  0  0  0  0  0  0  0  0  0  0  0
    1.3000   -0.7500    0.0000 C   0  0  0  0  0  0  0  0  0  0  0  0
   -1.3000   -0.7500    0.0000 C   0  0  0  0  0  0  0  0  0  0  0  0
    1.3000    0.7500    0.0000 C   0  0  0  0  0  0  0  0  0  0  0  0
   -2.5989   -1.5002    0.0000 C   0  0  0  0  0  0  0  0  0  0  0  0
    2.5989    1.5002    0.0000 C   0  0  0  0  0  0  0  0  0  0  0  0
   -2.5987   -3.0002    0.0000 O   0  0  0  0  0  0  0  0  0  0  0  0
   -3.8981   -0.7504    0.0000 O   0  0  0  0  0  0  0  0  0  0  0  0
  7  5  2  0
  8  6  1  0
  9  5  1  0
  9  6  2  0
 10  7  1  0
 10  8  2  0
 11  9  1  0
 12  1  1  0
 12  2  1  0
 12  3  1  0
 12 10  1  0
 13 11  2  0
 14  4  1  0
 14 11  1  0
M  END
>  <NAME>  (5058) 
4-TERT-BUTYLBENZOIC ACID METHYL ESTER

>  <SYNONYMS>  (5058) 


>  <SPECTRUM TYPE>  (5058) 
MS1

>  <INSTRUMENT TYPE>  (5058) 
EI-B

>  <INSTRUMENT>  (5058) 
JEOL JMS-01-SG

>  <ION MODE>  (5058) 
P

>  <INCHIKEY>  (5058) 
UPIJOAFHOIWPLT-UHFFFAOYSA-N

>  <FORMULA>  (5058) 
C12H16O2

>  <EXACT MASS>  (5058) 
192.115029752

>  <MW>  (5058) 
192

>  <ID>  (5058) 
JP002203

>  <CONTRIBUTOR>  (5058) 
University of Tokyo Team, {Faculty of Engineering, University of Tokyo

>  <COMMENT>  (5058) 
SMILES=COC(=O)c(c1)ccc(c1)C(C)(C)C
InChI=InChI=1S/C12H16O2/c1-12(2,3)10-7-5-9(6-8-10)11(13)14-4/h5-8H,1-4H3
computed SMILES=O=C(OC)C1=CC=C(C=C1)C(C)(C)C
accession=JP002203
date=2016.01.19 (Created 2008.10.21, modified 2011.05.06)
author=KOGA M, UNIV. OF OCCUPATIONAL AND ENVIRONMENTAL HEALTH
license=CC BY-NC-SA
exact mass=192.11503
ionization energy=70 eV
ion type=[M]+*
computed spectral entropy=2.7125711556378005
computed normalized entropy=0.6899011830690683
SPLASH=splash10-004i-2900000000-9a3ca45e21a73221aa29
submitter=submitter = University of Tokyo Team (Faculty of Engineering, University of Tokyo)
MoNA Rating=3.75

>  <NUM PEAKS>  (5058) 
51

>  <MASS SPECTRAL PEAKS>  (5058) 
44 1.1
45 1.9
50 2.2
51 0.53
55 1.9
57 1.1
58 3.4
59 0.8
63 1.5
64 1.1
65 2.6
72 0.19
77 5.3
78 1.9
80 1.9
90 0.3
91 13.3
92 1.1
93 6.4
102 0.26
103 2.2
104 2.2
105 16
106 0.26
107 1.1
110 1.1
115 5.7
116 0.3
117 7.6
118 4.9
119 2.2
121 0.22
122 1.9
132 1.5
133 1.5
135 0.22
145 3.8
146 3.8
149 22.1
150 0.11
151 1.1
161 8
162 1.5
177 99.99
178 11.8
179 2.2
191 1.5
192 1.6
193 3.4
203 1.1
276 1.5

>  <PREDICTED SPECTRUM>  (5058) 
14 10
15 86
26 18
27 127
28 33
29 155
30 10
31 27
33 2
37 37
38 82
39 250
40 82
41 315
42 55
43 172
44 28
45 101
47 21
49 22
50 146
51 225
52 129
53 187
54 38
55 159
57 177
58 37
59 259
60 22
61 70
62 112
63 214
64 144
65 242
66 113
67 92
71 49
72 11
73 107
74 121
75 205
76 133
77 294
78 162
79 188
80 66
81 19
82 0
86 44
87 89
88 83
89 216
90 141
91 419
92 129
93 115
95 2
100 8
101 87
102 162
103 236
104 156
105 252
106 91
107 37
108 31
115 334
116 149
117 298
118 260
119 188
120 30
121 115
128 36
129 113
130 29
131 154
132 69
133 200
134 77
135 192
136 25
137 37
143 11
144 24
145 239
146 243
147 125
149 396
150 112
151 1
161 404
162 155
163 47
175 1
177 999
178 354
179 106
191 61
192 365
193 111
194 7

$$$$

     RDKit          2D

 13 13  0  0  0  0  0  0  0  0999 V2000
   -5.1970   -1.5006    0.0000 C   0  0  0  0  0  0  0  0  0  0  0  0
    5.1970    1.5006    0.0000 C   0  0  0  0  0  0  0  0  0  0  0  0
   -3.8981   -0.7504    0.0000 C   0  0  0  0  0  0  0  0  0  0  0  0
   -2.5989   -1.5002    0.0000 C   0  0  0  0  0  0  0  0  0  0  0  0
   -1.3000    0.7500    0.0000 C   0  0  0  0  0  0  0  0  0  0  0  0
   -0.0000   -1.5000    0.0000 C   0  0  0  0  0  0  0  0  0  0  0  0
    0.0000    1.5000    0.0000 C   0  0  0  0  0  0  0  0  0  0  0  0
    1.3000   -0.7500    0.0000 C   0  0  0  0  0  0  0  0  0  0  0  0
   -1.3000   -0.7500    0.0000 C   0  0  0  0  0  0  0  0  0  0  0  0
    1.3000    0.7500    0.0000 C   0  0  0  0  0  0  0  0  0  0  0  0
    2.5989    1.5002    0.0000 C   0  0  0  0  0  0  0  0  0  0  0  0
    2.5987    3.0002    0.0000 O   0  0  0  0  0  0  0  0  0  0  0  0
    3.8981    0.7504    0.0000 O   0  0  0  0  0  0  0  0  0  0  0  0
  3  1  1  0
  4  3  1  0
  7  5  2  0
  8  6  1  0
  9  4  1  0
  9  5  1  0
  9  6  2  0
 10  7  1  0
 10  8  2  0
 11 10  1  0
 12 11  2  0
 13  2  1  0
 13 11  1  0
M  END
>  <NAME>  (5059) 
4-PROPYLBENZOIC ACID METHYL ESTER

>  <SYNONYMS>  (5059) 


>  <SPECTRUM TYPE>  (5059) 
MS1

>  <INSTRUMENT TYPE>  (5059) 
EI-B

>  <INSTRUMENT>  (5059) 
JEOL JMS-01-SG

>  <ION MODE>  (5059) 
P

>  <INCHIKEY>  (5059) 
RXFJHVNBEFFCJX-UHFFFAOYSA-N

>  <FORMULA>  (5059) 
C11H14O2

>  <EXACT MASS>  (5059) 
178.099379688

>  <MW>  (5059) 
178

>  <ID>  (5059) 
JP002202

>  <CONTRIBUTOR>  (5059) 
University of Tokyo Team, {Faculty of Engineering, University of Tokyo

>  <COMMENT>  (5059) 
SMILES=CCCc(c1)ccc(c1)C(=O)OC
InChI=InChI=1S/C11H14O2/c1-3-4-9-5-7-10(8-6-9)11(12)13-2/h5-8H,3-4H2,1-2H3
computed SMILES=O=C(OC)C1=CC=C(C=C1)CCC
accession=JP002202
date=2016.01.19 (Created 2008.10.21, modified 2011.05.06)
author=KOGA M, UNIV. OF OCCUPATIONAL AND ENVIRONMENTAL HEALTH
license=CC BY-NC-SA
exact mass=178.09938
ionization energy=70 eV
ion type=[M]+*
computed spectral entropy=2.8766974214092036
computed normalized entropy=0.7353477772031577
SPLASH=splash10-03xr-2900000000-f083ec19e46d944b4b6c
submitter=submitter = University of Tokyo Team (Faculty of Engineering, University of Tokyo)
MoNA Rating=3.75

>  <NUM PEAKS>  (5059) 
50

>  <MASS SPECTRAL PEAKS>  (5059) 
44 2.1
50 2.8
51 6.4
59 1.85
61 1.4
62 2.8
63 1.4
65 0.57
66 1.4
72 1.4
74 3.5
75 0.21
76 2.1
77 21.4
78 9.2
79 0.5
85 1.4
89 4.2
90 2.1
91 4.42
92 2.1
93 2.1
98 1.4
101 0.21
102 4.2
103 17.8
104 10
105 0.57
110 2.1
115 5
117 10
118 0.28
119 63.5
120 7.1
121 3.5
123 0.35
131 27.8
132 2.8
135 4.2
145 0.28
146 2.1
147 33.5
148 4.2
163 99.99
164 10
165 3.5
177 2.1
178 4.42
179 4.2
183 1.4

>  <PREDICTED SPECTRUM>  (5059) 
15 63
26 58
27 166
28 27
29 174
31 26
37 58
38 146
39 364
40 161
41 300
42 7
43 147
44 69
45 124
46 33
49 12
50 274
51 418
52 291
53 273
54 59
55 27
56 58
58 27
59 302
61 90
62 213
63 355
64 178
65 357
66 152
67 90
73 45
74 141
75 153
76 159
77 552
78 271
79 358
80 80
86 31
89 520
90 486
91 864
92 274
93 41
101 90
102 155
103 310
104 300
105 183
106 68
107 197
108 2
115 193
116 90
117 313
118 480
119 692
120 368
121 189
122 17
131 44
132 12
133 196
134 65
135 550
136 128
137 28
146 37
147 690
148 166
149 999
150 478
151 176
162 30
163 342
164 145
177 178
178 661
179 213
180 16

$$$$

     RDKit          2D

 12 12  0  0  0  0  0  0  0  0999 V2000
    0.0000    3.0000    0.0000 C   0  0  0  0  0  0  0  0  0  0  0  0
    2.5989   -1.5002    0.0000 C   0  0  0  0  0  0  0  0  0  0  0  0
   -5.1970   -1.5006    0.0000 C   0  0  0  0  0  0  0  0  0  0  0  0
    1.3000    0.7500    0.0000 C   0  0  0  0  0  0  0  0  0  0  0  0
   -1.3000    0.7500    0.0000 C   0  0  0  0  0  0  0  0  0  0  0  0
   -0.0000   -1.5000    0.0000 C   0  0  0  0  0  0  0  0  0  0  0  0
    0.0000    1.5000    0.0000 C   0  0  0  0  0  0  0  0  0  0  0  0
    1.3000   -0.7500    0.0000 C   0  0  0  0  0  0  0  0  0  0  0  0
   -1.3000   -0.7500    0.0000 C   0  0  0  0  0  0  0  0  0  0  0  0
   -2.5989   -1.5002    0.0000 C   0  0  0  0  0  0  0  0  0  0  0  0
   -2.5987   -3.0002    0.0000 O   0  0  0  0  0  0  0  0  0  0  0  0
   -3.8981   -0.7504    0.0000 O   0  0  0  0  0  0  0  0  0  0  0  0
  7  1  1  0
  7  4  2  0
  7  5  1  0
  8  2  1  0
  8  4  1  0
  8  6  2  0
  9  5  2  0
  9  6  1  0
 10  9  1  0
 11 10  2  0
 12  3  1  0
 12 10  1  0
M  END
>  <NAME>  (5060) 
3,5-DIMETHYLBENZOIC ACID METHYL ESTER

>  <SYNONYMS>  (5060) 


>  <SPECTRUM TYPE>  (5060) 
MS1

>  <INSTRUMENT TYPE>  (5060) 
EI-B

>  <INSTRUMENT>  (5060) 
JEOL JMS-01-SG

>  <ION MODE>  (5060) 
P

>  <INCHIKEY>  (5060) 
PEVXENGLERTHJE-UHFFFAOYSA-N

>  <FORMULA>  (5060) 
C10H12O2

>  <EXACT MASS>  (5060) 
164.083729624

>  <MW>  (5060) 
164

>  <ID>  (5060) 
JP002201

>  <CONTRIBUTOR>  (5060) 
University of Tokyo Team, {Faculty of Engineering, University of Tokyo

>  <COMMENT>  (5060) 
SMILES=COC(=O)c(c1)cc(C)cc(C)1
InChI=InChI=1S/C10H12O2/c1-7-4-8(2)6-9(5-7)10(11)12-3/h4-6H,1-3H3
computed SMILES=O=C(OC)C=1C=C(C=C(C1)C)C
ionization energy=70 eV
accession=JP002201
date=2016.01.19 (Created 2008.10.21, modified 2011.05.06)
author=KOGA M, UNIV. OF OCCUPATIONAL AND ENVIRONMENTAL HEALTH
license=CC BY-NC-SA
exact mass=164.08373
ion type=[M]+*
computed spectral entropy=2.212759609997693
computed normalized entropy=0.6274910334752424
SPLASH=splash10-001i-1900000000-b340f946af909f620519
submitter=submitter = University of Tokyo Team (Faculty of Engineering, University of Tokyo)
MoNA Rating=3.75

>  <NUM PEAKS>  (5060) 
34

>  <MASS SPECTRAL PEAKS>  (5060) 
51 5.1
52 3
62 2.5
63 0.25
64 1
65 3
76 3
77 1.49
78 3
79 13.4
80 1.5
89 0.2
90 1
91 1
98 1
102 0.25
103 9.7
104 5.1
105 50
106 0.51
107 2.5
119 2
120 1
121 0.2
123 1
133 99.99
134 11.3
135 0.2
139 1
149 2
150 1
163 0.2
164 39.6
165 6.7

>  <PREDICTED SPECTRUM>  (5060) 
14 23
15 96
16 17
17 1
26 54
27 103
28 43
29 47
31 22
32 19
33 4
34 14
36 5
37 67
38 126
39 243
40 100
41 150
42 12
43 59
44 50
45 71
49 63
50 197
51 304
52 193
53 224
54 36
59 103
61 148
62 188
63 301
64 166
65 286
66 130
67 54
68 4
72 3
73 82
74 159
75 155
76 108
77 385
78 199
79 194
80 81
85 25
86 97
87 26
88 26
89 197
90 168
91 409
92 121
93 49
102 36
103 215
104 287
105 637
106 200
107 76
117 180
118 139
119 228
120 44
121 67
131 74
132 348
133 999
134 322
135 91
136 2
149 201
150 63
163 87
164 620
165 213
166 71

$$$$

     RDKit          2D

 11 11  0  0  0  0  0  0  0  0999 V2000
   -0.3325    2.4400    0.0000 C   0  0  0  0  0  0  0  0  0  0  0  0
    4.8670    0.9406    0.0000 C   0  0  0  0  0  0  0  0  0  0  0  0
   -1.6200   -1.3100    0.0000 C   0  0  0  0  0  0  0  0  0  0  0  0
   -0.3300   -2.0600    0.0000 C   0  0  0  0  0  0  0  0  0  0  0  0
   -1.6200    0.1900    0.0000 C   0  0  0  0  0  0  0  0  0  0  0  0
    0.9700   -1.3100    0.0000 C   0  0  0  0  0  0  0  0  0  0  0  0
   -0.3300    0.9400    0.0000 C   0  0  0  0  0  0  0  0  0  0  0  0
    0.9700    0.1900    0.0000 C   0  0  0  0  0  0  0  0  0  0  0  0
    2.2689    0.9402    0.0000 C   0  0  0  0  0  0  0  0  0  0  0  0
    2.2687    2.4402    0.0000 O   0  0  0  0  0  0  0  0  0  0  0  0
    3.5681    0.1904    0.0000 O   0  0  0  0  0  0  0  0  0  0  0  0
  4  3  2  0
  5  3  1  0
  6  4  1  0
  7  1  1  0
  7  5  2  0
  8  6  2  0
  8  7  1  0
  9  8  1  0
 10  9  2  0
 11  2  1  0
 11  9  1  0
M  END
>  <NAME>  (5061) 
2-METHYLBENZOIC ACID METHYL ESTER

>  <SYNONYMS>  (5061) 


>  <SPECTRUM TYPE>  (5061) 
MS1

>  <INSTRUMENT TYPE>  (5061) 
EI-B

>  <INSTRUMENT>  (5061) 
JEOL JMS-01-SG

>  <ION MODE>  (5061) 
P

>  <INCHIKEY>  (5061) 
WVWZECQNFWFVFW-UHFFFAOYSA-N

>  <FORMULA>  (5061) 
C9H10O2

>  <EXACT MASS>  (5061) 
150.06807956

>  <MW>  (5061) 
150

>  <ID>  (5061) 
JP002200

>  <CONTRIBUTOR>  (5061) 
University of Tokyo Team, {Faculty of Engineering, University of Tokyo

>  <COMMENT>  (5061) 
SMILES=COC(=O)c(c1)c(C)ccc1
InChI=InChI=1S/C9H10O2/c1-7-5-3-4-6-8(7)9(10)11-2/h3-6H,1-2H3
computed SMILES=O=C(OC)C=1C=CC=CC1C
accession=JP002200
date=2016.01.19 (Created 2008.10.21, modified 2011.05.06)
author=KOGA M, UNIV. OF OCCUPATIONAL AND ENVIRONMENTAL HEALTH
license=CC BY-NC-SA
exact mass=150.06808
ionization energy=70 eV
ion type=[M]+*
computed spectral entropy=2.5370720506507904
computed normalized entropy=0.6589544903483544
SPLASH=splash10-014i-6900000000-8aa8201a6c48c2865c69
submitter=submitter = University of Tokyo Team (Faculty of Engineering, University of Tokyo)
MoNA Rating=3.75

>  <NUM PEAKS>  (5061) 
47

>  <MASS SPECTRAL PEAKS>  (5061) 
45 5.5
50 3.1
51 9.4
53 0.39
59 8.6
60 1.5
62 3.9
63 0.78
64 2.3
65 29.9
66 3.1
68 0.07
69 1.5
73 0.7
74 3.9
76 0.07
77 11.8
78 0.7
79 3.9
80 0.15
86 0.7
87 2.3
89 10.2
90 2.51
91 88.9
92 1.5
97 0.7
105 0.78
106 3.1
107 3.1
110 0.7
112 0.07
115 0.7
118 75.5
119 99.99
120 0.94
121 3.9
122 2.3
123 2.3
133 0.39
135 7
136 3.9
137 0.7
149 0.07
150 50.3
151 6.2
152 1.5

>  <PREDICTED SPECTRUM>  (5061) 
14 21
15 111
25 8
26 88
27 99
28 52
29 40
30 10
31 19
32 34
33 2
36 29
37 135
38 218
39 434
40 135
41 206
44 110
45 47
49 71
50 300
51 410
52 240
53 132
54 10
58 8
59 83
60 67
61 168
62 275
63 492
64 299
65 582
66 144
73 45
74 142
75 37
76 33
77 221
78 49
79 164
86 67
89 475
90 570
91 892
92 280
93 43
105 11
117 7
118 690
119 999
120 198
135 69
149 123
150 738
151 218
152 23

$$$$

     RDKit          2D

 12 12  0  0  0  0  0  0  0  0999 V2000
   -2.5989   -1.5002    0.0000 C   0  0  0  0  0  0  0  0  0  0  0  0
   -0.0000   -3.0000    0.0000 C   0  0  0  0  0  0  0  0  0  0  0  0
    3.8976    3.7504    0.0000 C   0  0  0  0  0  0  0  0  0  0  0  0
   -1.3000    0.7500    0.0000 C   0  0  0  0  0  0  0  0  0  0  0  0
    0.0000    1.5000    0.0000 C   0  0  0  0  0  0  0  0  0  0  0  0
    1.3000   -0.7500    0.0000 C   0  0  0  0  0  0  0  0  0  0  0  0
   -1.3000   -0.7500    0.0000 C   0  0  0  0  0  0  0  0  0  0  0  0
   -0.0000   -1.5000    0.0000 C   0  0  0  0  0  0  0  0  0  0  0  0
    1.3000    0.7500    0.0000 C   0  0  0  0  0  0  0  0  0  0  0  0
    2.5989    1.5002    0.0000 C   0  0  0  0  0  0  0  0  0  0  0  0
    3.8981    0.7504    0.0000 O   0  0  0  0  0  0  0  0  0  0  0  0
    2.5987    3.0002    0.0000 O   0  0  0  0  0  0  0  0  0  0  0  0
  5  4  2  0
  7  1  1  0
  7  4  1  0
  8  2  1  0
  8  6  1  0
  8  7  2  0
  9  5  1  0
  9  6  2  0
 10  9  1  0
 11 10  2  0
 12  3  1  0
 12 10  1  0
M  END
>  <NAME>  (5062) 
3,4-DIMETHYLBENZOIC ACID METHYL ESTER

>  <SYNONYMS>  (5062) 


>  <SPECTRUM TYPE>  (5062) 
MS1

>  <INSTRUMENT TYPE>  (5062) 
EI-B

>  <INSTRUMENT>  (5062) 
JEOL JMS-01-SG

>  <ION MODE>  (5062) 
P

>  <INCHIKEY>  (5062) 
PTSSKYUSCIALKU-UHFFFAOYSA-N

>  <FORMULA>  (5062) 
C10H12O2

>  <EXACT MASS>  (5062) 
164.083729624

>  <MW>  (5062) 
164

>  <ID>  (5062) 
JP002198

>  <CONTRIBUTOR>  (5062) 
University of Tokyo Team, {Faculty of Engineering, University of Tokyo

>  <COMMENT>  (5062) 
SMILES=COC(=O)c(c1)cc(C)c(C)c1
InChI=InChI=1S/C10H12O2/c1-7-4-5-9(6-8(7)2)10(11)12-3/h4-6H,1-3H3
computed SMILES=O=C(OC)C1=CC=C(C(=C1)C)C
accession=JP002198
date=2016.01.19 (Created 2008.10.21, modified 2011.05.06)
author=KOGA M, UNIV. OF OCCUPATIONAL AND ENVIRONMENTAL HEALTH
license=CC BY-NC-SA
exact mass=164.08373
ionization energy=70 eV
ion type=[M]+*
computed spectral entropy=2.2368205774701275
computed normalized entropy=0.6063685748732087
SPLASH=splash10-001i-2900000000-d222e838dbdc3d456eb1
submitter=submitter = University of Tokyo Team (Faculty of Engineering, University of Tokyo)
MoNA Rating=3.75

>  <NUM PEAKS>  (5062) 
40

>  <MASS SPECTRAL PEAKS>  (5062) 
44 3.2
45 1.3
51 6.8
52 0.13
53 1.8
59 1.8
62 1.8
63 0.22
64 1.8
65 3.2
66 2.7
68 0.13
75 0.9
77 11
78 3.2
79 1.19
82 0.9
89 2.2
91 1.3
92 0.18
98 1.3
102 1.8
103 6.8
104 0.18
105 35.3
106 3.2
107 0.9
120 0.13
123 0.9
125 0.9
133 99.99
134 0.91
135 2.2
139 0.9
149 0.9
157 0.09
163 1.8
164 29.8
165 3.2
181 0.9

>  <PREDICTED SPECTRUM>  (5062) 
14 38
15 111
16 11
25 3
26 76
27 192
28 71
29 84
31 15
34 0
37 57
38 125
39 262
40 88
41 143
42 38
43 82
44 66
49 69
50 236
51 382
52 256
53 285
54 27
55 56
59 179
61 82
62 160
63 294
64 152
65 216
66 99
67 43
73 26
74 131
75 108
76 90
77 549
78 335
79 384
80 120
85 5
86 61
88 6
89 172
90 145
91 260
92 85
93 38
102 48
103 174
104 173
105 650
106 223
107 83
119 84
121 52
131 25
132 141
133 999
134 330
135 97
149 108
150 28
163 94
164 477
165 137

$$$$

     RDKit          2D

 12 12  0  0  0  0  0  0  0  0999 V2000
   -2.5989   -1.5002    0.0000 C   0  0  0  0  0  0  0  0  0  0  0  0
    2.5989    1.5002    0.0000 C   0  0  0  0  0  0  0  0  0  0  0  0
    5.1970   -1.5006    0.0000 C   0  0  0  0  0  0  0  0  0  0  0  0
   -1.3000    0.7500    0.0000 C   0  0  0  0  0  0  0  0  0  0  0  0
    0.0000    1.5000    0.0000 C   0  0  0  0  0  0  0  0  0  0  0  0
   -0.0000   -1.5000    0.0000 C   0  0  0  0  0  0  0  0  0  0  0  0
   -1.3000   -0.7500    0.0000 C   0  0  0  0  0  0  0  0  0  0  0  0
    1.3000    0.7500    0.0000 C   0  0  0  0  0  0  0  0  0  0  0  0
    1.3000   -0.7500    0.0000 C   0  0  0  0  0  0  0  0  0  0  0  0
    2.5989   -1.5002    0.0000 C   0  0  0  0  0  0  0  0  0  0  0  0
    2.5987   -3.0002    0.0000 O   0  0  0  0  0  0  0  0  0  0  0  0
    3.8981   -0.7504    0.0000 O   0  0  0  0  0  0  0  0  0  0  0  0
  5  4  2  0
  7  1  1  0
  7  4  1  0
  7  6  2  0
  8  2  1  0
  8  5  1  0
  9  6  1  0
  9  8  2  0
 10  9  1  0
 11 10  2  0
 12  3  1  0
 12 10  1  0
M  END
>  <NAME>  (5063) 
2,5-DIMETHYLBENZOIC ACID METHYL ESTER

>  <SYNONYMS>  (5063) 


>  <SPECTRUM TYPE>  (5063) 
MS1

>  <INSTRUMENT TYPE>  (5063) 
EI-B

>  <INSTRUMENT>  (5063) 
JEOL JMS-01-SG

>  <ION MODE>  (5063) 
P

>  <INCHIKEY>  (5063) 
YILVOENZHZWHHK-UHFFFAOYSA-N

>  <FORMULA>  (5063) 
C10H12O2

>  <EXACT MASS>  (5063) 
164.083729624

>  <MW>  (5063) 
164

>  <ID>  (5063) 
JP002197

>  <CONTRIBUTOR>  (5063) 
University of Tokyo Team, {Faculty of Engineering, University of Tokyo

>  <COMMENT>  (5063) 
SMILES=COC(=O)c(c1)c(C)ccc(C)1
InChI=InChI=1S/C10H12O2/c1-7-4-5-8(2)9(6-7)10(11)12-3/h4-6H,1-3H3
computed SMILES=O=C(OC)C1=CC(=CC=C1C)C
accession=JP002197
date=2016.01.19 (Created 2008.10.21, modified 2011.05.06)
author=KOGA M, UNIV. OF OCCUPATIONAL AND ENVIRONMENTAL HEALTH
license=CC BY-NC-SA
exact mass=164.08373
ionization energy=70 eV
ion type=[M]+*
computed spectral entropy=2.739441087543622
computed normalized entropy=0.7239174968901133
SPLASH=splash10-001i-2900000000-3b368cce71f0f903d7fe
submitter=submitter = University of Tokyo Team (Faculty of Engineering, University of Tokyo)
MoNA Rating=3.75

>  <NUM PEAKS>  (5063) 
44

>  <MASS SPECTRAL PEAKS>  (5063) 
45 11.2
50 2.8
51 18.6
52 0.28
53 7.4
54 1.8
55 1.8
59 1.02
62 3.7
63 5.6
65 7.4
71 0.18
73 1.8
74 2.8
75 5.6
77 2.99
78 12.1
79 21.4
80 2.8
89 0.18
91 9.3
92 2.8
93 4.6
102 0.56
103 22.4
104 44.8
105 80.3
106 0.74
110 2.8
116 1.8
117 1.8
119 0.28
120 2.8
132 99.99
133 85.9
134 1.02
135 1.8
147 2.8
149 8.4
150 0.18
157 1.8
163 3.7
164 56
165 5.6

>  <PREDICTED SPECTRUM>  (5063) 
14 31
15 130
16 5
26 62
27 142
28 38
29 68
32 7
34 6
37 45
38 108
39 258
40 87
41 139
42 57
43 106
44 49
45 54
49 54
50 222
51 404
52 243
53 293
54 42
59 149
61 95
62 148
63 321
64 161
65 291
66 108
67 60
73 28
74 137
75 169
76 131
77 573
78 347
79 304
80 77
86 63
87 41
89 248
90 122
91 243
92 84
93 47
102 149
103 496
104 547
105 618
106 237
107 125
117 18
119 141
121 57
131 290
132 999
133 937
134 299
135 203
136 17
147 73
149 200
150 73
163 143
164 506
165 165
166 20

$$$$

     RDKit          2D

 12 12  0  0  0  0  0  0  0  0999 V2000
   -2.5989   -1.5002    0.0000 C   0  0  0  0  0  0  0  0  0  0  0  0
    2.5989   -1.5002    0.0000 C   0  0  0  0  0  0  0  0  0  0  0  0
    3.8976    3.7504    0.0000 C   0  0  0  0  0  0  0  0  0  0  0  0
   -1.3000    0.7500    0.0000 C   0  0  0  0  0  0  0  0  0  0  0  0
   -0.0000    1.5000    0.0000 C   0  0  0  0  0  0  0  0  0  0  0  0
   -0.0000   -1.5000    0.0000 C   0  0  0  0  0  0  0  0  0  0  0  0
   -1.3000   -0.7500    0.0000 C   0  0  0  0  0  0  0  0  0  0  0  0
    1.3000   -0.7500    0.0000 C   0  0  0  0  0  0  0  0  0  0  0  0
    1.3000    0.7500    0.0000 C   0  0  0  0  0  0  0  0  0  0  0  0
    2.5989    1.5002    0.0000 C   0  0  0  0  0  0  0  0  0  0  0  0
    3.8981    0.7504    0.0000 O   0  0  0  0  0  0  0  0  0  0  0  0
    2.5987    3.0002    0.0000 O   0  0  0  0  0  0  0  0  0  0  0  0
  5  4  2  0
  7  1  1  0
  7  4  1  0
  7  6  2  0
  8  2  1  0
  8  6  1  0
  9  5  1  0
  9  8  2  0
 10  9  1  0
 11 10  2  0
 12  3  1  0
 12 10  1  0
M  END
>  <NAME>  (5064) 
2,4-DIMETHYLBENZOIC ACID METHYL ESTER

>  <SYNONYMS>  (5064) 


>  <SPECTRUM TYPE>  (5064) 
MS1

>  <INSTRUMENT TYPE>  (5064) 
EI-B

>  <INSTRUMENT>  (5064) 
JEOL JMS-01-SG

>  <ION MODE>  (5064) 
P

>  <INCHIKEY>  (5064) 
QQCLNRPRQRDMCK-UHFFFAOYSA-N

>  <FORMULA>  (5064) 
C10H12O2

>  <EXACT MASS>  (5064) 
164.083729624

>  <MW>  (5064) 
164

>  <ID>  (5064) 
JP002196

>  <CONTRIBUTOR>  (5064) 
University of Tokyo Team, {Faculty of Engineering, University of Tokyo

>  <COMMENT>  (5064) 
computed SMILES=O=C(OC)C1=CC=C(C=C1C)C
SMILES=COC(=O)c(c1)c(C)cc(C)c1
InChI=InChI=1S/C10H12O2/c1-7-4-5-9(8(2)6-7)10(11)12-3/h4-6H,1-3H3
computed spectral entropy=2.549665324590361
computed normalized entropy=0.6911761027449423
ionization energy=70 eV
ion type=[M]+*
accession=JP002196
date=2016.01.19 (Created 2008.10.21, modified 2011.05.06)
author=KOGA M, UNIV. OF OCCUPATIONAL AND ENVIRONMENTAL HEALTH
license=CC BY-NC-SA
exact mass=164.08373
SPLASH=splash10-001i-2900000000-690f2da82fd946ce62b5
submitter=submitter = University of Tokyo Team (Faculty of Engineering, University of Tokyo)
MoNA Rating=3.75

>  <NUM PEAKS>  (5064) 
40

>  <MASS SPECTRAL PEAKS>  (5064) 
42 1.8
45 4.3
50 1.8
51 0.75
52 4.3
53 5.6
59 1.2
60 0.12
62 2.5
63 4.3
65 4.3
66 0.12
74 5
75 1.2
77 21.8
78 0.75
79 15.6
80 2.5
89 4.3
91 0.56
93 1.2
102 2.5
103 11.2
104 1.75
105 57.5
106 6.8
119 2.5
120 0.31
123 1.2
132 58.7
133 99.99
134 1
135 3.1
137 1.2
140 1.8
147 0.18
149 3.7
163 3.7
164 46.8
165 5

>  <PREDICTED SPECTRUM>  (5064) 
14 25
15 84
16 7
26 51
27 114
28 26
29 16
32 9
34 26
37 37
38 95
39 253
40 81
41 121
42 18
43 77
44 67
49 60
50 188
51 351
52 205
53 215
59 85
61 61
62 117
63 250
64 127
65 244
66 102
67 71
73 14
74 92
75 85
76 85
77 534
78 297
79 341
80 94
86 38
89 160
90 127
91 244
92 55
93 34
102 112
103 360
104 412
105 545
106 166
107 39
119 48
131 163
132 641
133 999
134 291
135 69
147 52
149 35
163 116
164 512
165 169
166 7

$$$$

     RDKit          2D

 11 11  0  0  0  0  0  0  0  0999 V2000
   -2.6023   -0.0091    0.0000 C   0  0  0  0  0  0  0  0  0  0  0  0
    5.1938   -0.0067    0.0000 C   0  0  0  0  0  0  0  0  0  0  0  0
    0.0016   -2.9991    0.0000 C   0  0  0  0  0  0  0  0  0  0  0  0
   -1.2974   -2.2491    0.0000 C   0  0  0  0  0  0  0  0  0  0  0  0
    1.2961   -2.2569    0.0000 C   0  0  0  0  0  0  0  0  0  0  0  0
   -0.0024   -0.0061    0.0000 C   0  0  0  0  0  0  0  0  0  0  0  0
   -1.3020   -0.7569    0.0000 C   0  0  0  0  0  0  0  0  0  0  0  0
    1.2966   -0.7561    0.0000 C   0  0  0  0  0  0  0  0  0  0  0  0
    2.5958   -0.0063    0.0000 C   0  0  0  0  0  0  0  0  0  0  0  0
    2.5960    1.4937    0.0000 O   0  0  0  0  0  0  0  0  0  0  0  0
    3.8947   -0.7565    0.0000 O   0  0  0  0  0  0  0  0  0  0  0  0
  4  3  2  0
  5  3  1  0
  7  1  1  0
  7  4  1  0
  7  6  2  0
  8  5  2  0
  8  6  1  0
  9  8  1  0
 10  9  2  0
 11  2  1  0
 11  9  1  0
M  END
>  <NAME>  (5065) 
3-METHYLBENZOIC ACID METHYL ESTER

>  <SYNONYMS>  (5065) 


>  <SPECTRUM TYPE>  (5065) 
MS1

>  <INSTRUMENT TYPE>  (5065) 
EI-B

>  <INSTRUMENT>  (5065) 
JEOL JMS-01-SG

>  <ION MODE>  (5065) 
P

>  <INCHIKEY>  (5065) 
CPXCDEMFNPKOEF-UHFFFAOYSA-N

>  <FORMULA>  (5065) 
C9H10O2

>  <EXACT MASS>  (5065) 
150.06807956

>  <MW>  (5065) 
150

>  <ID>  (5065) 
JP002195

>  <CONTRIBUTOR>  (5065) 
University of Tokyo Team, {Faculty of Engineering, University of Tokyo

>  <COMMENT>  (5065) 
SMILES=COC(=O)c(c1)cc(C)cc1
InChI=InChI=1S/C9H10O2/c1-7-4-3-5-8(6-7)9(10)11-2/h3-6H,1-2H3
computed SMILES=O=C(OC)C1=CC=CC(=C1)C
computed spectral entropy=1.8505866310379149
accession=JP002195
date=2016.01.19 (Created 2008.10.21, modified 2011.05.06)
author=KOGA M, UNIV. OF OCCUPATIONAL AND ENVIRONMENTAL HEALTH
license=CC BY-NC-SA
exact mass=150.06808
ionization energy=70 eV
ion type=[M]+*
computed normalized entropy=0.5749170616464176
SPLASH=splash10-014l-5900000000-49d98d581fea2767e5bd
submitter=submitter = University of Tokyo Team (Faculty of Engineering, University of Tokyo)
MoNA Rating=3.75

>  <NUM PEAKS>  (5065) 
25

>  <MASS SPECTRAL PEAKS>  (5065) 
45 2.1
50 1.7
51 3.5
53 0.14
59 2.5
62 2.8
63 5
65 1.54
66 1
74 2.5
89 4.6
90 0.39
91 57.9
92 3.5
106 1.4
110 0.14
118 1.4
119 99.99
120 8.2
133 0.14
135 2.1
149 1
150 34.5
151 0.25
152 1.7

>  <PREDICTED SPECTRUM>  (5065) 
14 26
15 158
16 4
25 6
26 80
27 129
28 63
29 88
30 60
31 93
32 37
37 98
38 188
39 327
40 100
41 82
44 6
45 0
49 23
50 213
51 288
52 175
53 118
59 215
60 40
61 182
62 242
63 385
64 238
65 462
66 121
74 107
75 40
76 81
77 221
78 25
79 60
80 2
86 76
87 35
89 376
90 365
91 873
92 273
93 51
105 89
107 120
108 6
118 70
119 999
120 299
121 27
135 168
136 30
149 188
150 666
151 193
152 39

$$$$

     RDKit          2D

 11 11  0  0  0  0  0  0  0  0999 V2000
   -2.5989   -1.5002    0.0000 C   0  0  0  0  0  0  0  0  0  0  0  0
    5.1970    1.5006    0.0000 C   0  0  0  0  0  0  0  0  0  0  0  0
   -1.3000    0.7500    0.0000 C   0  0  0  0  0  0  0  0  0  0  0  0
   -0.0000   -1.5000    0.0000 C   0  0  0  0  0  0  0  0  0  0  0  0
    0.0000    1.5000    0.0000 C   0  0  0  0  0  0  0  0  0  0  0  0
    1.3000   -0.7500    0.0000 C   0  0  0  0  0  0  0  0  0  0  0  0
   -1.3000   -0.7500    0.0000 C   0  0  0  0  0  0  0  0  0  0  0  0
    1.3000    0.7500    0.0000 C   0  0  0  0  0  0  0  0  0  0  0  0
    2.5989    1.5002    0.0000 C   0  0  0  0  0  0  0  0  0  0  0  0
    2.5987    3.0002    0.0000 O   0  0  0  0  0  0  0  0  0  0  0  0
    3.8981    0.7504    0.0000 O   0  0  0  0  0  0  0  0  0  0  0  0
  5  3  2  0
  6  4  1  0
  7  1  1  0
  7  3  1  0
  7  4  2  0
  8  5  1  0
  8  6  2  0
  9  8  1  0
 10  9  2  0
 11  2  1  0
 11  9  1  0
M  END
>  <NAME>  (5066) 
4-METHYLBENZOIC ACID METHYL ESTER

>  <SYNONYMS>  (5066) 


>  <SPECTRUM TYPE>  (5066) 
MS1

>  <INSTRUMENT TYPE>  (5066) 
EI-B

>  <INSTRUMENT>  (5066) 
JEOL JMS-01-SG

>  <ION MODE>  (5066) 
P

>  <INCHIKEY>  (5066) 
QSSJZLPUHJDYKF-UHFFFAOYSA-N

>  <FORMULA>  (5066) 
C9H10O2

>  <EXACT MASS>  (5066) 
150.06807956

>  <MW>  (5066) 
150

>  <ID>  (5066) 
JP002194

>  <CONTRIBUTOR>  (5066) 
University of Tokyo Team, {Faculty of Engineering, University of Tokyo

>  <COMMENT>  (5066) 
SMILES=COC(=O)c(c1)ccc(C)c1
InChI=InChI=1S/C9H10O2/c1-7-3-5-8(6-4-7)9(10)11-2/h3-6H,1-2H3
computed SMILES=O=C(OC)C1=CC=C(C=C1)C
accession=JP002194
date=2016.01.19 (Created 2008.10.21, modified 2011.05.06)
author=KOGA M, UNIV. OF OCCUPATIONAL AND ENVIRONMENTAL HEALTH
license=CC BY-NC-SA
exact mass=150.06808
ionization energy=70 eV
ion type=[M]+*
computed spectral entropy=1.9271937307626892
computed normalized entropy=0.5847357770165066
SPLASH=splash10-014i-5900000000-9a63e568df5efb37c37f
submitter=submitter = University of Tokyo Team (Faculty of Engineering, University of Tokyo)
MoNA Rating=3.75

>  <NUM PEAKS>  (5066) 
27

>  <MASS SPECTRAL PEAKS>  (5066) 
44 1.6
45 2.2
50 0.9
51 0.29
53 1.6
59 4.5
61 1.3
62 0.09
63 4.5
65 15.7
74 2.2
89 0.39
90 3.6
91 41.6
92 2.2
106 0.16
107 0.6
110 0.9
118 0.9
119 99.99
120 8.8
133 1.3
135 0.9
149 0.13
150 30.1
151 2.6
152 0.6

>  <PREDICTED SPECTRUM>  (5066) 
14 17
15 112
25 2
26 47
27 106
28 50
29 48
30 71
31 51
32 23
37 80
38 159
39 311
40 84
41 103
44 23
50 169
51 262
52 151
53 71
59 191
60 7
61 140
62 200
63 348
64 210
65 426
66 130
74 93
75 21
76 87
77 203
78 31
79 62
86 10
89 323
90 299
91 845
92 267
105 79
107 100
118 47
119 999
120 323
121 63
135 125
136 2
149 201
150 682
151 181
152 14

$$$$

     RDKit          2D

 25 24  0  0  0  0  0  0  0  0999 V2000
  -22.0836   13.5000    0.0000 C   0  0  0  0  0  0  0  0  0  0  0  0
    7.7942   12.7500    0.0000 C   0  0  0  0  0  0  0  0  0  0  0  0
  -20.7846   12.7500    0.0000 C   0  0  0  0  0  0  0  0  0  0  0  0
  -19.4856   13.5000    0.0000 C   0  0  0  0  0  0  0  0  0  0  0  0
  -18.1865   12.7500    0.0000 C   0  0  0  0  0  0  0  0  0  0  0  0
  -16.8875   13.5000    0.0000 C   0  0  0  0  0  0  0  0  0  0  0  0
  -15.5885   12.7500    0.0000 C   0  0  0  0  0  0  0  0  0  0  0  0
  -14.2894   13.5000    0.0000 C   0  0  0  0  0  0  0  0  0  0  0  0
  -12.9904   12.7500    0.0000 C   0  0  0  0  0  0  0  0  0  0  0  0
  -11.6913   13.5000    0.0000 C   0  0  0  0  0  0  0  0  0  0  0  0
  -10.3923   12.7500    0.0000 C   0  0  0  0  0  0  0  0  0  0  0  0
   -9.0933   13.5000    0.0000 C   0  0  0  0  0  0  0  0  0  0  0  0
   -7.7942   12.7500    0.0000 C   0  0  0  0  0  0  0  0  0  0  0  0
   -6.4952   13.5000    0.0000 C   0  0  0  0  0  0  0  0  0  0  0  0
   -5.1962   12.7500    0.0000 C   0  0  0  0  0  0  0  0  0  0  0  0
   -3.8971   13.5000    0.0000 C   0  0  0  0  0  0  0  0  0  0  0  0
   -2.5981   12.7500    0.0000 C   0  0  0  0  0  0  0  0  0  0  0  0
   -1.2990   13.5000    0.0000 C   0  0  0  0  0  0  0  0  0  0  0  0
    0.0000   12.7500    0.0000 C   0  0  0  0  0  0  0  0  0  0  0  0
    1.2990   13.5000    0.0000 C   0  0  0  0  0  0  0  0  0  0  0  0
    2.5981   12.7500    0.0000 C   0  0  0  0  0  0  0  0  0  0  0  0
    3.8971   13.5000    0.0000 C   0  0  0  0  0  0  0  0  0  0  0  0
    5.1962   12.7500    0.0000 C   0  0  0  0  0  0  0  0  0  0  0  0
    5.1962   11.2500    0.0000 O   0  0  0  0  0  0  0  0  0  0  0  0
    6.4952   13.5000    0.0000 O   0  0  0  0  0  0  0  0  0  0  0  0
  3  1  1  0
  4  3  1  0
  5  4  1  0
  6  5  1  0
  7  6  1  0
  8  7  1  0
  9  8  1  0
 10  9  1  0
 10 11  2  0
 12 11  1  0
 13 12  1  0
 14 13  1  0
 15 14  1  0
 16 15  1  0
 17 16  1  0
 18 17  1  0
 19 18  1  0
 20 19  1  0
 21 20  1  0
 22 21  1  0
 23 22  1  0
 24 23  2  0
 25  2  1  0
 25 23  1  0
M  END
>  <NAME>  (5067) 
13-DOCOSENOIC ACID METHYL ESTER

>  <SYNONYMS>  (5067) 
ERUCIC ACID METHYL ESTER

>  <SPECTRUM TYPE>  (5067) 
MS1

>  <INSTRUMENT TYPE>  (5067) 
EI-B

>  <INSTRUMENT>  (5067) 
JEOL JMS-01-SG

>  <ION MODE>  (5067) 
P

>  <INCHIKEY>  (5067) 
ZYNDJIBBPLNPOW-ZHACJKMWSA-N

>  <FORMULA>  (5067) 
C23H44O2

>  <EXACT MASS>  (5067) 
352.334130648

>  <MW>  (5067) 
352

>  <ID>  (5067) 
JP002191

>  <CONTRIBUTOR>  (5067) 
University of Tokyo Team, {Faculty of Engineering, University of Tokyo

>  <COMMENT>  (5067) 
SMILES=CCCCCCCCC=CCCCCCCCCCCCC(=O)OC
InChI=InChI=1S/C23H44O2/c1-3-4-5-6-7-8-9-10-11-12-13-14-15-16-17-18-19-20-21-22-23(24)25-2/h10-11H,3-9,12-22H2,1-2H3/b11-10+
computed SMILES=O=C(OC)CCCCCCCCCCCC=CCCCCCCCC
accession=JP002191
date=2016.01.19 (Created 2008.10.21, modified 2011.05.06)
author=KOGA M, UNIV. OF OCCUPATIONAL AND ENVIRONMENTAL HEALTH
license=CC BY-NC-SA
exact mass=352.33413
ionization energy=70 eV
ion type=[M]+*
computed spectral entropy=3.9691691353489533
computed normalized entropy=0.7932077789549757
SPLASH=splash10-0a4i-9200000000-ddeeb656e43675e3860f
submitter=submitter = University of Tokyo Team (Faculty of Engineering, University of Tokyo)
MoNA Rating=3.75

>  <NUM PEAKS>  (5067) 
149

>  <MASS SPECTRAL PEAKS>  (5067) 
42 12.4
43 2.9
45 9.5
46 0.08
53 3.7
54 14.5
55 99.99
56 3.73
57 65.9
58 4.9
59 15.3
60 0.16
61 0.8
62 0.8
66 0.8
67 2.44
68 14.9
69 56.8
70 16.5
71 1.61
73 2.9
74 39
75 7.4
76 0.08
77 2.9
79 5.3
80 3.7
81 2.86
82 20.3
83 53.1
84 27.8
85 0.91
86 6.2
87 27.3
88 2.9
89 0.08
91 1.2
92 1.6
93 3.3
94 0.58
95 21.1
96 31.1
97 45.2
98 2.73
99 4.5
100 2.4
101 5.8
106 0.08
107 4.5
108 3.7
109 14.1
110 1.7
111 24
112 7.8
113 2.9
114 0.33
115 4.5
118 0.8
119 1.6
120 0.2
121 8.2
122 2.9
123 12.8
124 1.12
125 13.2
126 1.2
127 2.9
128 0.2
129 5.3
133 3.3
134 4.1
135 0.58
136 1.6
137 7
138 8.7
139 0.78
140 1.6
141 5.3
143 5.3
144 0.08
146 0.8
147 1.6
148 2.4
149 0.49
150 1.2
151 4.5
152 8.2
153 0.53
155 0.8
161 1.2
162 2
163 0.24
164 1.2
165 2.4
166 4.5
167 0.2
169 2
171 1.2
172 0.8
173 0.16
177 1.2
179 2.4
180 2
181 0.12
182 0.8
183 0.8
185 0.8
191 0.12
193 2.4
194 2.9
195 0.8
196 0.16
200 1.6
204 1.6
206 1.6
208 0.24
217 1.6
220 2
221 2
222 0.58
224 1.6
225 2
227 1.2
232 0.12
235 2.4
236 6.6
237 2.4
238 0.12
239 2
241 1.2
249 1.6
250 0.33
255 1.2
256 1.6
263 2
264 0.37
270 1.2
277 2.4
278 7.4
279 0.2
291 2.9
292 2
302 2.4
320 2.28
321 13.2
322 3.7
352 3.3
353 0.08
354 1.2

>  <PREDICTED SPECTRUM>  (5067) 
15 44
16 5
17 21
18 32
25 2
26 42
27 156
28 184
29 290
30 6
31 68
32 40
33 10
36 0
39 185
40 101
41 550
42 260
43 570
44 143
45 92
50 27
51 80
52 85
53 276
54 482
55 999
56 512
57 646
58 85
59 450
60 68
61 57
62 52
63 20
65 144
66 137
67 601
68 473
69 839
70 423
71 371
72 141
73 197
74 770
75 330
76 71
77 132
78 83
79 297
80 238
81 576
82 546
83 764
84 597
85 358
86 68
87 643
88 155
89 49
91 158
92 68
93 152
94 190
95 518
96 669
97 694
98 591
99 237
100 124
101 237
102 57
103 3
104 9
105 118
106 103
107 144
108 192
109 418
110 489
111 499
112 274
113 172
114 237
115 243
116 82
117 8
119 149
120 80
121 202
122 136
123 373
124 322
125 368
126 118
127 153
128 169
129 180
130 102
131 47
132 10
133 145
134 128
135 158
136 90
137 272
138 291
139 244
140 131
141 281
142 124
143 222
144 80
145 32
146 37
147 102
148 95
149 183
150 80
151 205
152 291
153 181
154 120
155 83
156 69
157 171
158 74
159 1
161 111
162 94
163 113
164 115
165 156
166 129
167 201
168 70
169 119
170 18
171 121
172 50
173 4
175 109
176 80
177 103
178 72
179 132
180 180
181 147
182 79
183 119
184 1
185 100
186 3
189 98
190 66
191 108
192 106
193 153
194 213
195 144
196 84
197 97
199 131
200 66
202 31
203 85
204 12
206 59
207 155
208 195
209 92
210 43
211 34
213 100
214 30
217 84
218 32
219 13
220 91
221 161
222 247
223 136
224 76
225 72
226 30
227 75
228 16
232 7
234 25
235 193
236 295
237 138
238 26
239 70
240 0
241 72
242 42
247 20
249 150
250 110
251 70
252 51
253 57
254 8
255 77
256 54
260 23
262 39
263 149
264 129
265 75
266 51
267 32
269 31
270 36
276 220
277 191
278 415
279 178
280 40
281 28
283 20
284 18
291 148
292 126
293 26
295 11
297 0
302 150
303 120
304 45
305 13
309 32
311 5
320 636
321 525
322 218
323 70
324 4
352 127
353 49
354 24
357 19

$$$$

     RDKit          2D

 23 22  0  0  0  0  0  0  0  0999 V2000
    8.1190    9.9375    0.0000 C   0  0  0  0  0  0  0  0  0  0  0  0
  -15.2637   17.4375    0.0000 C   0  0  0  0  0  0  0  0  0  0  0  0
    6.8200   10.6875    0.0000 C   0  0  0  0  0  0  0  0  0  0  0  0
    5.5209    9.9375    0.0000 C   0  0  0  0  0  0  0  0  0  0  0  0
    4.2219   10.6875    0.0000 C   0  0  0  0  0  0  0  0  0  0  0  0
    2.9228    9.9375    0.0000 C   0  0  0  0  0  0  0  0  0  0  0  0
    1.6238   10.6875    0.0000 C   0  0  0  0  0  0  0  0  0  0  0  0
    0.3248    9.9375    0.0000 C   0  0  0  0  0  0  0  0  0  0  0  0
   -0.9743   10.6875    0.0000 C   0  0  0  0  0  0  0  0  0  0  0  0
   -2.2733    9.9375    0.0000 C   0  0  0  0  0  0  0  0  0  0  0  0
   -3.5724   10.6875    0.0000 C   0  0  0  0  0  0  0  0  0  0  0  0
   -4.8714    9.9375    0.0000 C   0  0  0  0  0  0  0  0  0  0  0  0
   -6.1704   10.6875    0.0000 C   0  0  0  0  0  0  0  0  0  0  0  0
   -7.4695    9.9375    0.0000 C   0  0  0  0  0  0  0  0  0  0  0  0
   -8.7685   10.6875    0.0000 C   0  0  0  0  0  0  0  0  0  0  0  0
  -10.0675    9.9375    0.0000 C   0  0  0  0  0  0  0  0  0  0  0  0
  -11.3666   10.6875    0.0000 C   0  0  0  0  0  0  0  0  0  0  0  0
  -11.3666   12.1875    0.0000 C   0  0  0  0  0  0  0  0  0  0  0  0
  -12.6656   12.9375    0.0000 C   0  0  0  0  0  0  0  0  0  0  0  0
  -12.6656   14.4375    0.0000 C   0  0  0  0  0  0  0  0  0  0  0  0
  -13.9647   15.1875    0.0000 C   0  0  0  0  0  0  0  0  0  0  0  0
  -15.2637   14.4375    0.0000 O   0  0  0  0  0  0  0  0  0  0  0  0
  -13.9647   16.6875    0.0000 O   0  0  0  0  0  0  0  0  0  0  0  0
  3  1  1  0
  4  3  1  0
  5  4  1  0
  6  5  1  0
  7  6  1  0
  8  7  1  0
  9  8  1  0
 10  9  1  0
 11 10  1  0
 12 11  1  0
 13 12  1  0
 14 13  1  0
 15 14  1  0
 16 15  1  0
 16 17  2  0
 18 17  1  0
 19 18  1  0
 20 19  1  0
 21 20  1  0
 22 21  2  0
 23  2  1  0
 23 21  1  0
M  END
>  <NAME>  (5068) 
CIS-5-EICOSENOIC ACID METHYL ESTER

>  <SYNONYMS>  (5068) 


>  <SPECTRUM TYPE>  (5068) 
MS1

>  <INSTRUMENT TYPE>  (5068) 
EI-B

>  <INSTRUMENT>  (5068) 
JEOL JMS-01-SG

>  <ION MODE>  (5068) 
P

>  <INCHIKEY>  (5068) 
DCELZGFMHKOOJH-MSUUIHNZSA-N

>  <FORMULA>  (5068) 
C21H40O2

>  <EXACT MASS>  (5068) 
324.30283052

>  <MW>  (5068) 
324

>  <ID>  (5068) 
JP002190

>  <CONTRIBUTOR>  (5068) 
University of Tokyo Team, {Faculty of Engineering, University of Tokyo

>  <COMMENT>  (5068) 
SMILES=CCCCCCCCCCCCCCC=CCCCC(=O)OC
InChI=InChI=1S/C21H40O2/c1-3-4-5-6-7-8-9-10-11-12-13-14-15-16-17-18-19-20-21(22)23-2/h16-17H,3-15,18-20H2,1-2H3/b17-16-
computed SMILES=O=C(OC)CCCC=CCCCCCCCCCCCCCC
accession=JP002190
date=2016.01.19 (Created 2008.10.21, modified 2011.05.06)
author=KOGA M, UNIV. OF OCCUPATIONAL AND ENVIRONMENTAL HEALTH
license=CC BY-NC-SA
exact mass=324.30283
ionization energy=70 eV
ion type=[M]+*
computed spectral entropy=4.030583669012067
computed normalized entropy=0.7971494710064662
SPLASH=splash10-05o1-9310000000-a6697956cb8bd50b7101
submitter=submitter = University of Tokyo Team (Faculty of Engineering, University of Tokyo)
MoNA Rating=3.75

>  <NUM PEAKS>  (5068) 
157

>  <MASS SPECTRAL PEAKS>  (5068) 
43 5.3
47 2.2
48 0.7
52 0.07
53 7.6
54 27.4
55 99.99
56 1.9
57 50.3
58 1.5
61 1.5
62 0.22
64 0.7
65 6.1
66 0.7
67 6.94
68 56.4
69 60.3
70 19
71 2.06
72 0.7
74 83.9
75 17.5
77 0.15
78 5.3
79 17.5
80 16
81 6.48
82 47.3
83 69.4
84 69.4
85 2.21
87 32.8
88 6.1
91 4.5
92 0.3
93 4.5
94 10.6
95 37.4
96 9.08
97 71.7
98 47.3
99 9.9
101 0.91
102 0.7
105 3.8
107 6.1
108 0.61
109 29.7
110 38.1
111 37.4
112 1.29
113 3.8
114 7.6
115 6.8
116 0.15
118 3.8
119 4.5
120 0.7
121 1.06
122 3
123 24.4
124 18.3
125 1.67
126 1.5
127 6.8
128 6.8
129 0.76
130 1.5
131 1.5
132 3
133 0.3
134 10.6
135 9.9
136 0.7
137 1.22
138 12.2
139 6.8
140 1.5
141 1.37
142 0.7
143 3
144 3.8
147 0.22
148 9.1
149 4.5
150 0.7
151 1.06
152 14.5
153 4.5
155 3
157 0.15
161 0.7
162 3.8
163 1.5
164 0.38
165 4.5
166 7.6
167 1.5
169 0.3
172 1.5
173 3.8
176 3.8
177 0.15
179 3
180 3
181 2.2
182 0.3
187 4.5
191 0.7
194 10.6
196 0.3
199 3.8
203 0.7
204 0.7
205 0.07
206 3
207 3.8
208 14.5
210 0.3
211 0.7
214 0.7
219 0.7
220 0.15
221 5.3
222 4.5
224 2.2
225 0.22
227 3
228 2.2
235 0.7
236 0.38
237 2.2
241 3
242 0.7
248 0.61
249 6.8
250 22.9
251 6.1
252 0.07
253 1.5
255 0.7
256 0.7
260 0.07
262 0.7
264 3.8
267 2.2
274 0.45
275 7.6
277 0.7
278 1.5
283 0.07
292 35.1
293 12.2
294 2.2
324 0.45
325 0.7

>  <PREDICTED SPECTRUM>  (5068) 
14 0
15 47
16 9
17 17
18 27
25 2
26 47
27 193
28 187
29 309
30 21
31 53
32 41
33 23
36 7
38 9
39 226
40 116
41 613
42 288
43 634
44 195
45 166
50 47
51 105
52 109
53 323
54 499
55 999
56 488
57 682
58 160
59 499
60 80
61 84
62 66
63 39
65 162
66 154
67 636
68 509
69 812
70 412
71 411
72 148
73 101
74 820
75 382
76 91
77 167
78 106
79 332
80 284
81 670
82 614
83 745
84 582
85 388
86 70
87 646
88 148
89 34
91 173
92 96
93 178
94 226
95 560
96 725
97 692
98 553
99 227
100 162
101 236
102 90
103 34
104 30
105 116
106 42
107 157
108 158
109 465
110 522
111 489
112 258
113 208
114 276
115 306
116 104
117 43
118 42
119 185
120 92
121 212
122 146
123 397
124 299
125 313
126 144
127 185
128 186
129 203
130 83
131 27
133 168
134 177
135 162
136 122
137 248
138 290
139 260
140 140
141 350
142 171
143 187
144 87
145 36
146 16
147 115
148 146
149 208
150 139
151 228
152 286
153 181
154 125
155 128
156 60
157 117
158 42
160 4
161 143
162 134
163 142
164 125
165 188
166 254
167 173
168 116
169 133
170 11
171 129
172 74
173 67
174 40
175 155
176 111
177 84
178 69
179 170
180 213
181 108
182 79
183 141
184 14
185 112
186 54
189 153
190 72
191 86
192 98
193 165
194 229
195 149
196 75
197 166
198 38
199 85
200 22
202 15
203 47
204 21
206 98
207 200
208 358
209 186
210 42
211 64
212 0
213 79
214 71
217 32
218 2
219 8
220 21
221 168
222 154
223 116
224 85
225 51
226 7
227 72
228 77
232 33
234 4
235 119
236 126
237 51
238 68
239 40
241 72
242 56
245 7
247 11
248 269
249 212
250 478
251 243
252 60
253 20
255 32
256 47
263 133
264 156
265 74
266 14
267 1
269 0
274 162
275 155
276 105
277 22
281 76
282 15
283 10
290 11
292 639
293 445
294 206
295 61
296 0
324 246
325 151
326 50

$$$$

     RDKit          2D

 17 16  0  0  0  0  0  0  0  0999 V2000
    8.4437   12.3750    0.0000 C   0  0  0  0  0  0  0  0  0  0  0  0
   -8.4437    7.1250    0.0000 C   0  0  0  0  0  0  0  0  0  0  0  0
    7.1447   11.6250    0.0000 C   0  0  0  0  0  0  0  0  0  0  0  0
    7.1447   10.1250    0.0000 C   0  0  0  0  0  0  0  0  0  0  0  0
    5.8457    9.3750    0.0000 C   0  0  0  0  0  0  0  0  0  0  0  0
    5.8457    7.8750    0.0000 C   0  0  0  0  0  0  0  0  0  0  0  0
    4.5466    7.1250    0.0000 C   0  0  0  0  0  0  0  0  0  0  0  0
    3.2476    7.8750    0.0000 C   0  0  0  0  0  0  0  0  0  0  0  0
    1.9486    7.1250    0.0000 C   0  0  0  0  0  0  0  0  0  0  0  0
    0.6495    7.8750    0.0000 C   0  0  0  0  0  0  0  0  0  0  0  0
   -0.6495    7.1250    0.0000 C   0  0  0  0  0  0  0  0  0  0  0  0
   -1.9486    7.8750    0.0000 C   0  0  0  0  0  0  0  0  0  0  0  0
   -3.2476    7.1250    0.0000 C   0  0  0  0  0  0  0  0  0  0  0  0
   -4.5466    7.8750    0.0000 C   0  0  0  0  0  0  0  0  0  0  0  0
   -5.8457    7.1250    0.0000 C   0  0  0  0  0  0  0  0  0  0  0  0
   -5.8457    5.6250    0.0000 O   0  0  0  0  0  0  0  0  0  0  0  0
   -7.1447    7.8750    0.0000 O   0  0  0  0  0  0  0  0  0  0  0  0
  3  1  1  0
  4  3  1  0
  5  4  1  0
  6  5  1  0
  6  7  2  0
  8  7  1  0
  9  8  1  0
 10  9  1  0
 11 10  1  0
 12 11  1  0
 13 12  1  0
 14 13  1  0
 15 14  1  0
 16 15  2  0
 17  2  1  0
 17 15  1  0
M  END
>  <NAME>  (5069) 
CIS-9-TETRADECENOIC ACID METHYL ESTER

>  <SYNONYMS>  (5069) 
MYRISTOLEIC ACID METHYL ESTER

>  <SPECTRUM TYPE>  (5069) 
MS1

>  <INSTRUMENT TYPE>  (5069) 
EI-B

>  <INSTRUMENT>  (5069) 
JEOL JMS-01-SG

>  <ION MODE>  (5069) 
P

>  <INCHIKEY>  (5069) 
RWIPSJUSVXDVPB-SREVYHEPSA-N

>  <FORMULA>  (5069) 
C15H28O2

>  <EXACT MASS>  (5069) 
240.208930136

>  <MW>  (5069) 
240

>  <ID>  (5069) 
JP002186

>  <CONTRIBUTOR>  (5069) 
University of Tokyo Team, {Faculty of Engineering, University of Tokyo

>  <COMMENT>  (5069) 
SMILES=CCCCC=CCCCCCCCC(=O)OC
InChI=InChI=1S/C15H28O2/c1-3-4-5-6-7-8-9-10-11-12-13-14-15(16)17-2/h6-7H,3-5,8-14H2,1-2H3/b7-6-
computed SMILES=O=C(OC)CCCCCCCC=CCCCC
accession=JP002186
date=2016.01.19 (Created 2008.10.21, modified 2011.05.06)
author=KOGA M, UNIV. OF OCCUPATIONAL AND ENVIRONMENTAL HEALTH
license=CC BY-NC-SA
exact mass=240.20893
ionization energy=70 eV
ion type=[M]+*
computed spectral entropy=3.7767005506319777
computed normalized entropy=0.8274348038766602
SPLASH=splash10-05us-9300000000-b46b3886901119dc669c
submitter=submitter = University of Tokyo Team (Faculty of Engineering, University of Tokyo)
MoNA Rating=3.75

>  <NUM PEAKS>  (5069) 
96

>  <MASS SPECTRAL PEAKS>  (5069) 
43 1.7
45 3.8
53 13
54 3.46
55 92.2
56 21.5
59 25.7
65 0.45
66 2.1
67 56.5
68 33.5
69 9.25
70 19.7
71 6.3
72 1.4
73 0.84
74 99.99
75 12.7
77 2.1
78 0.28
79 12
80 8.4
81 43.4
82 3.6
83 60.4
84 57.5
85 12.3
87 7.13
88 5.3
91 4.5
93 7.4
94 0.95
95 30
96 59
97 49.4
98 5.3
99 7
100 2.4
101 10.2
105 0.28
107 6
108 5.6
109 20.4
110 3.07
111 27.9
112 10.6
113 9.5
114 0.6
115 8.4
119 6.3
121 7.7
122 0.24
123 20.4
124 26.8
125 14.4
126 0.45
127 4.9
128 6
129 4.5
133 0.45
134 2.8
135 5.3
136 1.4
137 1.41
138 9.8
139 4.5
141 6.3
143 0.31
144 1.7
147 5.3
148 4.2
149 0.14
151 7.4
152 6
153 1.4
154 0.14
157 1.4
161 3.1
164 9.5
165 0.67
166 29.3
167 5.3
170 1.4
172 0.14
179 2.8
180 3.1
190 5.6
191 0.21
194 1.4
197 2.4
208 25.7
209 1.73
210 2.8
222 1.4
240 7
241 1.7

>  <PREDICTED SPECTRUM>  (5069) 
14 6
15 48
16 10
17 13
18 21
26 32
27 178
28 138
29 263
30 2
31 39
32 30
33 4
38 9
39 232
40 104
41 610
42 295
43 500
44 103
45 131
50 43
51 121
52 105
53 306
54 472
55 999
56 450
57 450
58 69
59 434
60 64
61 55
62 49
63 52
65 167
66 138
67 560
68 439
69 719
70 362
71 244
72 107
73 195
74 750
75 287
76 63
77 157
78 78
79 287
80 195
81 519
82 440
83 615
84 548
85 262
86 31
87 580
88 145
89 31
91 157
92 53
93 119
94 180
95 415
96 587
97 564
98 499
99 178
100 76
101 255
102 72
103 0
104 0
105 128
106 74
107 122
108 112
109 316
110 437
111 341
112 163
113 172
114 207
115 232
116 52
117 5
118 18
119 148
120 57
121 162
122 90
123 349
124 353
125 295
126 83
127 81
128 54
129 153
130 83
131 10
133 118
134 101
135 113
136 10
137 186
138 238
139 127
140 40
141 244
142 64
143 107
144 74
147 70
148 83
149 92
150 14
151 211
152 197
153 58
154 18
155 26
157 49
158 48
161 9
164 222
165 185
166 413
167 167
168 49
169 25
171 9
179 108
180 99
181 20
183 12
185 9
190 77
191 76
192 17
193 1
197 47
199 18
208 411
209 363
210 123
211 43
240 226
241 85
242 47

$$$$

     RDKit          2D

 24 23  0  0  0  0  0  0  0  0999 V2000
  -19.1608   12.9375    0.0000 C   0  0  0  0  0  0  0  0  0  0  0  0
  -17.8618   10.6875    0.0000 C   0  0  0  0  0  0  0  0  0  0  0  0
    8.1190   12.1875    0.0000 C   0  0  0  0  0  0  0  0  0  0  0  0
   -6.1704   12.9375    0.0000 C   0  0  0  0  0  0  0  0  0  0  0  0
   -7.4695   12.1875    0.0000 C   0  0  0  0  0  0  0  0  0  0  0  0
   -4.8714   12.1875    0.0000 C   0  0  0  0  0  0  0  0  0  0  0  0
   -8.7685   12.9375    0.0000 C   0  0  0  0  0  0  0  0  0  0  0  0
   -3.5724   12.9375    0.0000 C   0  0  0  0  0  0  0  0  0  0  0  0
  -10.0675   12.1875    0.0000 C   0  0  0  0  0  0  0  0  0  0  0  0
   -2.2733   12.1875    0.0000 C   0  0  0  0  0  0  0  0  0  0  0  0
  -11.3666   12.9375    0.0000 C   0  0  0  0  0  0  0  0  0  0  0  0
   -0.9743   12.9375    0.0000 C   0  0  0  0  0  0  0  0  0  0  0  0
  -12.6656   12.1875    0.0000 C   0  0  0  0  0  0  0  0  0  0  0  0
    0.3248   12.1875    0.0000 C   0  0  0  0  0  0  0  0  0  0  0  0
  -13.9647   12.9375    0.0000 C   0  0  0  0  0  0  0  0  0  0  0  0
    1.6238   12.9375    0.0000 C   0  0  0  0  0  0  0  0  0  0  0  0
  -15.2637   12.1875    0.0000 C   0  0  0  0  0  0  0  0  0  0  0  0
    2.9228   12.1875    0.0000 C   0  0  0  0  0  0  0  0  0  0  0  0
  -16.5627   12.9375    0.0000 C   0  0  0  0  0  0  0  0  0  0  0  0
    4.2219   12.9375    0.0000 C   0  0  0  0  0  0  0  0  0  0  0  0
  -17.8618   12.1875    0.0000 C   0  0  0  0  0  0  0  0  0  0  0  0
    5.5209   12.1875    0.0000 C   0  0  0  0  0  0  0  0  0  0  0  0
    5.5209   10.6875    0.0000 O   0  0  0  0  0  0  0  0  0  0  0  0
    6.8200   12.9375    0.0000 O   0  0  0  0  0  0  0  0  0  0  0  0
  5  4  1  0
  6  4  1  0
  7  5  1  0
  8  6  1  0
  9  7  1  0
 10  8  1  0
 11  9  1  0
 12 10  1  0
 13 11  1  0
 14 12  1  0
 15 13  1  0
 16 14  1  0
 17 15  1  0
 18 16  1  0
 19 17  1  0
 20 18  1  0
 21  1  1  0
 21  2  1  0
 21 19  1  0
 22 20  1  0
 23 22  2  0
 24  3  1  0
 24 22  1  0
M  END
>  <NAME>  (5070) 
19-METHYLEICOSANOIC ACID METHYL ESTER

>  <SYNONYMS>  (5070) 


>  <SPECTRUM TYPE>  (5070) 
MS1

>  <INSTRUMENT TYPE>  (5070) 
EI-B

>  <INSTRUMENT>  (5070) 
JEOL JMS-01-SG

>  <ION MODE>  (5070) 
P

>  <INCHIKEY>  (5070) 
CMVPFMWIPGEIMP-UHFFFAOYSA-N

>  <FORMULA>  (5070) 
C22H44O2

>  <EXACT MASS>  (5070) 
340.334130648

>  <MW>  (5070) 
340

>  <ID>  (5070) 
JP002183

>  <CONTRIBUTOR>  (5070) 
University of Tokyo Team, {Faculty of Engineering, University of Tokyo

>  <COMMENT>  (5070) 
SMILES=COC(=O)CCCCCCCCCCCCCCCCCC(C)C
InChI=InChI=1S/C22H44O2/c1-21(2)19-17-15-13-11-9-7-5-4-6-8-10-12-14-16-18-20-22(23)24-3/h21H,4-20H2,1-3H3
computed SMILES=O=C(OC)CCCCCCCCCCCCCCCCCC(C)C
accession=JP002183
date=2016.01.19 (Created 2008.10.21, modified 2011.05.06)
author=KOGA M, UNIV. OF OCCUPATIONAL AND ENVIRONMENTAL HEALTH
license=CC BY-NC-SA
exact mass=340.33413
ionization energy=70 eV
ion type=[M]+*
computed spectral entropy=3.146183041664104
computed normalized entropy=0.74825518211598
SPLASH=splash10-00dr-9210000000-8bbc2d09780f72030712
submitter=submitter = University of Tokyo Team (Faculty of Engineering, University of Tokyo)
MoNA Rating=3.75

>  <NUM PEAKS>  (5070) 
67

>  <MASS SPECTRAL PEAKS>  (5070) 
54 1.3
55 31.5
56 8.5
57 3.09
67 5.5
68 1.3
69 21
70 0.23
71 12.1
74 99.99
75 26.6
81 0.55
82 3.2
83 12.1
84 3.6
85 0.69
87 66.4
88 6.5
95 4.2
96 0.13
97 12.1
98 4.6
99 1.6
101 1.05
103 1.3
109 2.6
111 4.9
115 0.29
116 1.3
121 1.6
122 1.9
123 0.13
124 1.6
125 2.9
129 7.8
130 0.26
135 1.9
136 1.3
143 21
144 0.19
149 1.6
157 3.9
171 2.3
172 0.16
185 7.8
197 1.3
199 9.5
200 0.23
213 2.3
225 1.3
227 2.9
228 0.16
241 7.8
242 1.9
255 5.2
256 0.16
269 1.3
283 1.6
284 1.3
291 0.13
297 14.4
298 2.3
309 1.3
311 0.19
312 1.3
340 17.1
341 4.6

>  <PREDICTED SPECTRUM>  (5070) 
15 10
17 31
18 65
27 86
28 40
29 90
30 11
31 0
39 19
40 33
41 216
42 90
43 176
44 79
45 32
49 1
50 6
51 3
52 45
53 113
54 120
55 617
56 350
57 676
58 107
59 284
60 135
61 36
62 26
64 26
65 6
66 15
67 206
68 148
69 512
70 255
71 469
72 47
73 200
74 999
75 580
76 114
77 52
79 89
80 70
81 233
82 161
83 425
84 231
85 322
86 39
87 915
88 311
89 84
90 11
93 93
94 30
95 203
96 131
97 366
98 189
99 171
100 43
101 434
102 208
103 91
107 113
108 52
109 198
110 115
111 273
112 131
113 94
114 6
115 207
116 126
117 43
121 154
122 65
123 77
124 78
125 201
126 108
127 36
128 12
129 330
130 142
131 59
135 121
136 40
137 114
138 78
139 134
140 38
141 53
143 610
144 176
145 1
149 60
150 10
152 9
153 120
157 245
158 78
163 93
165 23
166 23
167 88
168 9
171 228
172 105
177 26
179 48
180 42
181 59
183 1
185 227
186 91
191 80
194 4
195 67
199 289
200 82
205 43
207 57
208 62
209 24
213 155
214 57
222 1
223 9
227 137
228 72
237 19
241 304
242 125
243 39
252 33
255 247
256 59
264 68
269 143
270 100
275 26
279 19
283 224
284 90
291 21
292 53
293 70
297 396
298 166
299 51
308 12
309 40
311 76
325 57
339 20
340 548
341 142
342 103

$$$$

     RDKit          2D

 23 22  0  0  0  0  0  0  0  0999 V2000
    6.8200   10.6875    0.0000 C   0  0  0  0  0  0  0  0  0  0  0  0
    5.5209   12.9375    0.0000 C   0  0  0  0  0  0  0  0  0  0  0  0
  -19.1608   10.6875    0.0000 C   0  0  0  0  0  0  0  0  0  0  0  0
   -4.8714   11.4375    0.0000 C   0  0  0  0  0  0  0  0  0  0  0  0
   -6.1704   10.6875    0.0000 C   0  0  0  0  0  0  0  0  0  0  0  0
   -3.5724   10.6875    0.0000 C   0  0  0  0  0  0  0  0  0  0  0  0
   -7.4695   11.4375    0.0000 C   0  0  0  0  0  0  0  0  0  0  0  0
   -2.2733   11.4375    0.0000 C   0  0  0  0  0  0  0  0  0  0  0  0
   -8.7685   10.6875    0.0000 C   0  0  0  0  0  0  0  0  0  0  0  0
   -0.9743   10.6875    0.0000 C   0  0  0  0  0  0  0  0  0  0  0  0
  -10.0675   11.4375    0.0000 C   0  0  0  0  0  0  0  0  0  0  0  0
    0.3248   11.4375    0.0000 C   0  0  0  0  0  0  0  0  0  0  0  0
  -11.3666   10.6875    0.0000 C   0  0  0  0  0  0  0  0  0  0  0  0
    1.6238   10.6875    0.0000 C   0  0  0  0  0  0  0  0  0  0  0  0
  -12.6656   11.4375    0.0000 C   0  0  0  0  0  0  0  0  0  0  0  0
    2.9228   11.4375    0.0000 C   0  0  0  0  0  0  0  0  0  0  0  0
  -13.9647   10.6875    0.0000 C   0  0  0  0  0  0  0  0  0  0  0  0
    4.2219   10.6875    0.0000 C   0  0  0  0  0  0  0  0  0  0  0  0
  -15.2637   11.4375    0.0000 C   0  0  0  0  0  0  0  0  0  0  0  0
    5.5209   11.4375    0.0000 C   0  0  0  0  0  0  0  0  0  0  0  0
  -16.5627   10.6875    0.0000 C   0  0  0  0  0  0  0  0  0  0  0  0
  -16.5627    9.1875    0.0000 O   0  0  0  0  0  0  0  0  0  0  0  0
  -17.8618   11.4375    0.0000 O   0  0  0  0  0  0  0  0  0  0  0  0
  5  4  1  0
  6  4  1  0
  7  5  1  0
  8  6  1  0
  9  7  1  0
 10  8  1  0
 11  9  1  0
 12 10  1  0
 13 11  1  0
 14 12  1  0
 15 13  1  0
 16 14  1  0
 17 15  1  0
 18 16  1  0
 19 17  1  0
 20  1  1  0
 20  2  1  0
 20 18  1  0
 21 19  1  0
 22 21  2  0
 23  3  1  0
 23 21  1  0
M  END
>  <NAME>  (5071) 
18-METHYLNONADECANOIC ACID METHYL ESTER

>  <SYNONYMS>  (5071) 


>  <SPECTRUM TYPE>  (5071) 
MS1

>  <INSTRUMENT TYPE>  (5071) 
EI-B

>  <INSTRUMENT>  (5071) 
JEOL JMS-01-SG

>  <ION MODE>  (5071) 
P

>  <INCHIKEY>  (5071) 
IVHQIMJNEKWLSS-UHFFFAOYSA-N

>  <FORMULA>  (5071) 
C21H42O2

>  <EXACT MASS>  (5071) 
326.318480584

>  <MW>  (5071) 
326

>  <ID>  (5071) 
JP002182

>  <CONTRIBUTOR>  (5071) 
University of Tokyo Team, {Faculty of Engineering, University of Tokyo

>  <COMMENT>  (5071) 
SMILES=COC(=O)CCCCCCCCCCCCCCCCC(C)C
InChI=InChI=1S/C21H42O2/c1-20(2)18-16-14-12-10-8-6-4-5-7-9-11-13-15-17-19-21(22)23-3/h20H,4-19H2,1-3H3
computed SMILES=O=C(OC)CCCCCCCCCCCCCCCCC(C)C
accession=JP002182
date=2016.01.19 (Created 2008.10.21, modified 2011.05.06)
author=KOGA M, UNIV. OF OCCUPATIONAL AND ENVIRONMENTAL HEALTH
license=CC BY-NC-SA
exact mass=326.31848
ionization energy=70 eV
ion type=[M]+*
computed spectral entropy=3.2079937101549345
computed normalized entropy=0.7146922686335521
SPLASH=splash10-00g0-9210000000-ba013b95508c28e6474f
submitter=submitter = University of Tokyo Team (Faculty of Engineering, University of Tokyo)
MoNA Rating=3.75

>  <NUM PEAKS>  (5071) 
89

>  <MASS SPECTRAL PEAKS>  (5071) 
43 3.1
44 1
54 2
55 3.6
56 9.7
57 36.3
60 1
67 0.45
68 2
69 23.4
70 2.7
71 1.29
73 1
74 99.99
75 33.9
77 0.17
79 1.7
81 4.1
82 2
83 1.36
84 4.1
85 5.9
87 83.5
88 0.62
91 1
93 2
95 3.4
97 1.43
98 4.1
99 3.1
101 9
102 0.13
108 1.7
109 3.4
111 6.6
112 0.1
113 2
115 3.1
118 1
119 0.1
121 2
123 1.7
125 3.1
129 0.83
130 2.7
134 1
135 1
136 0.1
139 2.4
143 27.9
144 3.8
149 0.1
150 1.3
156 1
157 4.8
171 0.59
172 2.4
185 6.2
186 1.3
199 1.04
200 2.4
210 1
213 2.7
214 0.2
221 1
224 1
225 1
227 0.87
228 2.4
237 1
241 6.6
242 0.17
253 1
255 4.5
256 1.3
262 0.13
269 1.7
270 1.3
271 1.7
277 0.2
278 1
279 1
283 13.6
284 0.34
295 2
297 1
326 18.1
327 0.45
328 1

>  <PREDICTED SPECTRUM>  (5071) 
15 42
17 31
18 65
27 52
28 25
29 81
30 20
31 17
39 24
40 36
41 222
42 90
43 264
44 87
45 31
51 0
52 42
53 113
54 115
55 613
56 333
57 658
58 100
59 286
60 136
62 1
64 21
65 22
66 5
67 208
68 151
69 510
70 258
71 450
72 24
73 163
74 999
75 576
76 125
77 59
79 87
80 69
81 232
82 157
83 421
84 231
85 314
86 57
87 926
88 296
89 67
90 12
93 80
94 28
95 216
96 141
97 362
98 191
99 141
100 0
101 365
102 190
103 98
107 130
108 77
109 175
110 98
111 272
112 119
113 79
114 37
115 277
116 141
117 5
121 149
122 54
123 112
124 91
125 201
126 98
127 20
129 327
130 141
131 65
135 103
136 29
137 25
138 16
139 125
140 6
141 41
143 620
144 169
149 74
151 15
152 46
153 120
154 15
157 246
158 92
163 42
165 66
166 37
167 76
169 7
171 239
172 95
177 93
179 1
181 77
185 221
186 82
191 59
194 31
195 37
199 264
200 71
207 64
208 59
209 23
210 1
213 142
214 84
223 27
227 297
228 119
229 5
241 243
242 59
250 67
251 64
252 53
255 167
256 108
269 212
270 102
271 55
277 81
278 17
279 62
283 430
284 146
295 149
296 20
297 99
298 8
311 59
326 645
327 260
328 118
329 9

$$$$

     RDKit          2D

 22 21  0  0  0  0  0  0  0  0999 V2000
    6.8200    9.9375    0.0000 C   0  0  0  0  0  0  0  0  0  0  0  0
    5.5209   12.1875    0.0000 C   0  0  0  0  0  0  0  0  0  0  0  0
  -17.8618   10.6875    0.0000 C   0  0  0  0  0  0  0  0  0  0  0  0
   -4.8714   10.6875    0.0000 C   0  0  0  0  0  0  0  0  0  0  0  0
   -3.5724    9.9375    0.0000 C   0  0  0  0  0  0  0  0  0  0  0  0
   -6.1704    9.9375    0.0000 C   0  0  0  0  0  0  0  0  0  0  0  0
   -2.2733   10.6875    0.0000 C   0  0  0  0  0  0  0  0  0  0  0  0
   -7.4695   10.6875    0.0000 C   0  0  0  0  0  0  0  0  0  0  0  0
   -0.9743    9.9375    0.0000 C   0  0  0  0  0  0  0  0  0  0  0  0
   -8.7685    9.9375    0.0000 C   0  0  0  0  0  0  0  0  0  0  0  0
    0.3248   10.6875    0.0000 C   0  0  0  0  0  0  0  0  0  0  0  0
  -10.0675   10.6875    0.0000 C   0  0  0  0  0  0  0  0  0  0  0  0
    1.6238    9.9375    0.0000 C   0  0  0  0  0  0  0  0  0  0  0  0
  -11.3666    9.9375    0.0000 C   0  0  0  0  0  0  0  0  0  0  0  0
    2.9228   10.6875    0.0000 C   0  0  0  0  0  0  0  0  0  0  0  0
  -12.6656   10.6875    0.0000 C   0  0  0  0  0  0  0  0  0  0  0  0
    4.2219    9.9375    0.0000 C   0  0  0  0  0  0  0  0  0  0  0  0
  -13.9647    9.9375    0.0000 C   0  0  0  0  0  0  0  0  0  0  0  0
    5.5209   10.6875    0.0000 C   0  0  0  0  0  0  0  0  0  0  0  0
  -15.2637   10.6875    0.0000 C   0  0  0  0  0  0  0  0  0  0  0  0
  -15.2637   12.1875    0.0000 O   0  0  0  0  0  0  0  0  0  0  0  0
  -16.5627    9.9375    0.0000 O   0  0  0  0  0  0  0  0  0  0  0  0
  5  4  1  0
  6  4  1  0
  7  5  1  0
  8  6  1  0
  9  7  1  0
 10  8  1  0
 11  9  1  0
 12 10  1  0
 13 11  1  0
 14 12  1  0
 15 13  1  0
 16 14  1  0
 17 15  1  0
 18 16  1  0
 19  1  1  0
 19  2  1  0
 19 17  1  0
 20 18  1  0
 21 20  2  0
 22  3  1  0
 22 20  1  0
M  END
>  <NAME>  (5072) 
17-METHYLOCTADECANOIC ACID METHYL ESTER

>  <SYNONYMS>  (5072) 


>  <SPECTRUM TYPE>  (5072) 
MS1

>  <INSTRUMENT TYPE>  (5072) 
EI-B

>  <INSTRUMENT>  (5072) 
JEOL JMS-01-SG

>  <ION MODE>  (5072) 
P

>  <INCHIKEY>  (5072) 
MASZVQKLIMRPFY-UHFFFAOYSA-N

>  <FORMULA>  (5072) 
C20H40O2

>  <EXACT MASS>  (5072) 
312.30283052

>  <MW>  (5072) 
312

>  <ID>  (5072) 
JP002181

>  <CONTRIBUTOR>  (5072) 
University of Tokyo Team, {Faculty of Engineering, University of Tokyo

>  <COMMENT>  (5072) 
SMILES=COC(=O)CCCCCCCCCCCCCCCC(C)C
InChI=InChI=1S/C20H40O2/c1-19(2)17-15-13-11-9-7-5-4-6-8-10-12-14-16-18-20(21)22-3/h19H,4-18H2,1-3H3
computed SMILES=O=C(OC)CCCCCCCCCCCCCCCC(C)C
accession=JP002181
date=2016.01.19 (Created 2008.10.21, modified 2011.05.06)
author=KOGA M, UNIV. OF OCCUPATIONAL AND ENVIRONMENTAL HEALTH
license=CC BY-NC-SA
exact mass=312.30283
ionization energy=70 eV
ion type=[M]+*
computed spectral entropy=3.227750980578884
computed normalized entropy=0.7790601063533594
SPLASH=splash10-00dr-9210000000-9b1214cf902bc9d2ee7f
submitter=submitter = University of Tokyo Team (Faculty of Engineering, University of Tokyo)
MoNA Rating=3.75

>  <NUM PEAKS>  (5072) 
63

>  <MASS SPECTRAL PEAKS>  (5072) 
42 9.2
43 3.3
44 18.4
55 3.27
56 5.8
57 34.4
67 5
69 2.35
71 13.4
74 99.99
75 34.4
81 0.42
82 2.5
83 15.1
84 2.5
85 0.58
87 89
88 6.7
92 3.3
93 0.33
95 9.2
97 14.2
98 4.2
99 0.25
101 11.7
108 2.5
109 3.3
111 0.5
113 2.5
120 2.5
129 10
135 0.33
139 3.3
143 26
150 3.3
157 0.92
171 4.2
172 3.3
177 4.2
182 0.25
185 4.2
194 2.5
195 5
198 0.25
199 8.4
200 5
203 5
213 0.58
214 3.3
221 2.5
223 2.5
227 0.58
228 2.5
241 5.8
242 2.5
255 0.5
256 2.5
269 11.7
270 4.2
281 0.5
283 5
312 13.4
313 5

>  <PREDICTED SPECTRUM>  (5072) 
4 0
15 26
17 38
18 66
27 103
28 71
29 112
30 27
31 9
39 29
40 34
41 227
42 87
43 203
44 70
45 38
51 8
52 39
53 119
54 120
55 606
56 326
57 635
58 91
59 282
60 123
61 65
62 27
64 16
65 21
66 3
67 206
68 139
69 504
70 250
71 427
72 37
73 240
74 999
75 563
76 124
77 56
79 78
80 66
81 236
82 158
83 415
84 225
85 293
86 28
87 918
88 282
89 83
93 92
94 32
95 203
96 128
97 357
98 181
99 130
100 25
101 419
102 191
103 64
107 129
108 70
109 198
110 114
111 271
112 105
113 62
114 5
115 280
116 140
117 14
121 134
122 45
123 54
124 52
125 199
126 79
127 11
129 327
130 141
131 40
135 115
137 45
138 53
139 130
140 24
141 31
143 627
144 181
149 32
151 54
152 56
153 106
155 40
157 255
158 90
163 97
165 29
167 91
171 223
172 81
177 83
180 48
181 47
185 174
186 52
194 25
195 34
196 17
199 252
200 72
205 33
207 65
208 49
209 38
213 282
214 112
227 237
228 62
236 79
237 83
238 28
241 159
242 108
247 28
252 12
255 232
256 108
257 33
263 67
264 53
265 6
269 392
270 190
271 53
281 161
282 8
283 96
284 37
297 79
312 641
313 322
314 93
315 13

$$$$

     RDKit          2D

 21 20  0  0  0  0  0  0  0  0999 V2000
    6.1704    9.5625    0.0000 C   0  0  0  0  0  0  0  0  0  0  0  0
    4.8714   11.8125    0.0000 C   0  0  0  0  0  0  0  0  0  0  0  0
  -17.2123    9.5625    0.0000 C   0  0  0  0  0  0  0  0  0  0  0  0
   -4.2219    9.5625    0.0000 C   0  0  0  0  0  0  0  0  0  0  0  0
   -5.5209   10.3125    0.0000 C   0  0  0  0  0  0  0  0  0  0  0  0
   -2.9228   10.3125    0.0000 C   0  0  0  0  0  0  0  0  0  0  0  0
   -6.8200    9.5625    0.0000 C   0  0  0  0  0  0  0  0  0  0  0  0
   -1.6238    9.5625    0.0000 C   0  0  0  0  0  0  0  0  0  0  0  0
   -8.1190   10.3125    0.0000 C   0  0  0  0  0  0  0  0  0  0  0  0
   -0.3248   10.3125    0.0000 C   0  0  0  0  0  0  0  0  0  0  0  0
   -9.4180    9.5625    0.0000 C   0  0  0  0  0  0  0  0  0  0  0  0
    0.9743    9.5625    0.0000 C   0  0  0  0  0  0  0  0  0  0  0  0
  -10.7171   10.3125    0.0000 C   0  0  0  0  0  0  0  0  0  0  0  0
    2.2733   10.3125    0.0000 C   0  0  0  0  0  0  0  0  0  0  0  0
  -12.0161    9.5625    0.0000 C   0  0  0  0  0  0  0  0  0  0  0  0
    3.5724    9.5625    0.0000 C   0  0  0  0  0  0  0  0  0  0  0  0
  -13.3151   10.3125    0.0000 C   0  0  0  0  0  0  0  0  0  0  0  0
    4.8714   10.3125    0.0000 C   0  0  0  0  0  0  0  0  0  0  0  0
  -14.6142    9.5625    0.0000 C   0  0  0  0  0  0  0  0  0  0  0  0
  -14.6142    8.0625    0.0000 O   0  0  0  0  0  0  0  0  0  0  0  0
  -15.9132   10.3125    0.0000 O   0  0  0  0  0  0  0  0  0  0  0  0
  5  4  1  0
  6  4  1  0
  7  5  1  0
  8  6  1  0
  9  7  1  0
 10  8  1  0
 11  9  1  0
 12 10  1  0
 13 11  1  0
 14 12  1  0
 15 13  1  0
 16 14  1  0
 17 15  1  0
 18  1  1  0
 18  2  1  0
 18 16  1  0
 19 17  1  0
 20 19  2  0
 21  3  1  0
 21 19  1  0
M  END
>  <NAME>  (5073) 
16-METHYLHEPTADECANOIC ACID METHYL ESTER

>  <SYNONYMS>  (5073) 


>  <SPECTRUM TYPE>  (5073) 
MS1

>  <INSTRUMENT TYPE>  (5073) 
EI-B

>  <INSTRUMENT>  (5073) 
JEOL JMS-01-SG

>  <ION MODE>  (5073) 
P

>  <INCHIKEY>  (5073) 
KDQIFKKWPMBNOH-UHFFFAOYSA-N

>  <FORMULA>  (5073) 
C19H38O2

>  <EXACT MASS>  (5073) 
298.287180456

>  <MW>  (5073) 
298

>  <ID>  (5073) 
JP002180

>  <CONTRIBUTOR>  (5073) 
University of Tokyo Team, {Faculty of Engineering, University of Tokyo

>  <COMMENT>  (5073) 
SMILES=COC(=O)CCCCCCCCCCCCCCC(C)C
InChI=InChI=1S/C19H38O2/c1-18(2)16-14-12-10-8-6-4-5-7-9-11-13-15-17-19(20)21-3/h18H,4-17H2,1-3H3
computed SMILES=O=C(OC)CCCCCCCCCCCCCCC(C)C
accession=JP002180
date=2016.01.19 (Created 2008.10.21, modified 2011.05.06)
author=KOGA M, UNIV. OF OCCUPATIONAL AND ENVIRONMENTAL HEALTH
license=CC BY-NC-SA
exact mass=298.28718
ionization energy=70 eV
ion type=[M]+*
computed spectral entropy=2.9742051209269436
computed normalized entropy=0.720646541509321
SPLASH=splash10-00dr-9200000000-b5765f5af3633a9b717c
submitter=submitter = University of Tokyo Team (Faculty of Engineering, University of Tokyo)
MoNA Rating=3.75

>  <NUM PEAKS>  (5073) 
62

>  <MASS SPECTRAL PEAKS>  (5073) 
44 7.2
55 10.3
56 19.3
59 0.45
67 1.8
68 1.8
69 14.4
70 0.22
71 6.3
74 99.99
75 18
81 0.36
82 2.2
83 10.8
84 3.6
85 0.27
87 53.1
88 4
93 1.8
95 0.36
97 7.6
98 3.6
100 2.2
101 0.67
102 2.7
104 1.3
106 2.2
108 0.22
109 2.2
111 3.6
112 1.3
115 0.18
120 2.7
125 1.8
129 6.3
130 0.13
141 1.8
143 16.2
144 3.1
150 0.13
157 3.6
171 2.2
172 1.3
180 0.13
184 1.8
185 2.2
199 8.1
200 0.22
204 1.3
213 1.8
225 1.3
235 0.13
242 1.3
243 1.3
249 1.3
255 1.57
256 2.7
262 2.2
267 1.8
269 0.18
298 5.8
299 2.2

>  <PREDICTED SPECTRUM>  (5073) 
3 2
15 105
17 36
18 68
27 72
28 11
29 90
30 1
31 4
39 38
40 43
41 236
42 87
43 219
44 59
45 41
51 3
52 36
53 122
54 114
55 595
56 314
57 605
58 93
59 293
60 96
61 40
62 26
64 14
65 16
66 0
67 204
68 141
69 490
70 234
71 397
72 1
73 145
74 999
75 550
76 107
77 43
79 85
80 64
81 228
82 146
83 405
84 215
85 273
86 40
87 923
88 276
89 46
93 87
94 26
95 211
96 133
97 344
98 163
99 111
101 429
102 183
103 59
107 121
108 71
109 138
110 82
111 265
112 92
113 53
115 281
116 141
121 135
122 7
123 62
124 66
125 194
126 82
129 319
130 150
131 20
135 69
136 8
137 80
138 55
139 112
140 6
141 79
143 629
144 186
149 65
151 27
152 20
153 118
157 233
158 69
163 93
165 4
166 49
167 61
168 6
171 181
172 53
180 29
181 44
185 152
186 76
191 51
194 13
195 53
199 304
200 75
201 18
207 38
208 22
209 9
213 229
214 77
222 82
223 90
224 2
227 159
228 103
233 47
241 225
242 108
243 57
249 123
250 47
251 54
255 410
256 185
257 28
267 112
268 20
269 105
270 5
283 72
284 27
298 533
299 257
300 50
301 8

$$$$

     RDKit          2D

 20 19  0  0  0  0  0  0  0  0999 V2000
  -15.2637   10.6875    0.0000 C   0  0  0  0  0  0  0  0  0  0  0  0
  -13.9647    8.4375    0.0000 C   0  0  0  0  0  0  0  0  0  0  0  0
    6.8200    9.9375    0.0000 C   0  0  0  0  0  0  0  0  0  0  0  0
   -4.8714   10.6875    0.0000 C   0  0  0  0  0  0  0  0  0  0  0  0
   -6.1704    9.9375    0.0000 C   0  0  0  0  0  0  0  0  0  0  0  0
   -3.5724    9.9375    0.0000 C   0  0  0  0  0  0  0  0  0  0  0  0
   -7.4695   10.6875    0.0000 C   0  0  0  0  0  0  0  0  0  0  0  0
   -2.2733   10.6875    0.0000 C   0  0  0  0  0  0  0  0  0  0  0  0
   -8.7685    9.9375    0.0000 C   0  0  0  0  0  0  0  0  0  0  0  0
   -0.9743    9.9375    0.0000 C   0  0  0  0  0  0  0  0  0  0  0  0
  -10.0675   10.6875    0.0000 C   0  0  0  0  0  0  0  0  0  0  0  0
    0.3248   10.6875    0.0000 C   0  0  0  0  0  0  0  0  0  0  0  0
  -11.3666    9.9375    0.0000 C   0  0  0  0  0  0  0  0  0  0  0  0
    1.6238    9.9375    0.0000 C   0  0  0  0  0  0  0  0  0  0  0  0
  -12.6656   10.6875    0.0000 C   0  0  0  0  0  0  0  0  0  0  0  0
    2.9228   10.6875    0.0000 C   0  0  0  0  0  0  0  0  0  0  0  0
  -13.9647    9.9375    0.0000 C   0  0  0  0  0  0  0  0  0  0  0  0
    4.2219    9.9375    0.0000 C   0  0  0  0  0  0  0  0  0  0  0  0
    4.2219    8.4375    0.0000 O   0  0  0  0  0  0  0  0  0  0  0  0
    5.5209   10.6875    0.0000 O   0  0  0  0  0  0  0  0  0  0  0  0
  5  4  1  0
  6  4  1  0
  7  5  1  0
  8  6  1  0
  9  7  1  0
 10  8  1  0
 11  9  1  0
 12 10  1  0
 13 11  1  0
 14 12  1  0
 15 13  1  0
 16 14  1  0
 17  1  1  0
 17  2  1  0
 17 15  1  0
 18 16  1  0
 19 18  2  0
 20  3  1  0
 20 18  1  0
M  END
>  <NAME>  (5074) 
15-METHYLHEXADECANOIC ACID METHYL ESTER

>  <SYNONYMS>  (5074) 


>  <SPECTRUM TYPE>  (5074) 
MS1

>  <INSTRUMENT TYPE>  (5074) 
EI-B

>  <INSTRUMENT>  (5074) 
JEOL JMS-01-SG

>  <ION MODE>  (5074) 
P

>  <INCHIKEY>  (5074) 
BNHKXOIJKIMOJH-UHFFFAOYSA-N

>  <FORMULA>  (5074) 
C18H36O2

>  <EXACT MASS>  (5074) 
284.271530392

>  <MW>  (5074) 
284

>  <ID>  (5074) 
JP002179

>  <CONTRIBUTOR>  (5074) 
University of Tokyo Team, {Faculty of Engineering, University of Tokyo

>  <COMMENT>  (5074) 
SMILES=COC(=O)CCCCCCCCCCCCCC(C)C
InChI=InChI=1S/C18H36O2/c1-17(2)15-13-11-9-7-5-4-6-8-10-12-14-16-18(19)20-3/h17H,4-16H2,1-3H3
computed SMILES=O=C(OC)CCCCCCCCCCCCCC(C)C
accession=JP002179
date=2016.01.19 (Created 2008.10.21, modified 2011.05.06)
author=KOGA M, UNIV. OF OCCUPATIONAL AND ENVIRONMENTAL HEALTH
license=CC BY-NC-SA
exact mass=284.27153
ionization energy=70 eV
ion type=[M]+*
computed spectral entropy=2.7798382043200136
computed normalized entropy=0.6905826913753049
SPLASH=splash10-00dr-9110000000-2928094e268aec8c5f34
submitter=submitter = University of Tokyo Team (Faculty of Engineering, University of Tokyo)
MoNA Rating=3.75

>  <NUM PEAKS>  (5074) 
56

>  <MASS SPECTRAL PEAKS>  (5074) 
43 2
53 1.1
54 1.3
55 2.56
56 2.4
57 9.9
59 5.1
67 0.24
68 1.8
69 12.8
70 1.8
71 0.31
73 1.5
74 99.99
75 22.5
77 0.18
79 1.5
81 3.6
83 9.9
84 0.2
85 1.5
87 70.4
88 5.4
95 0.31
97 9.4
98 2.9
99 1.1
101 0.78
109 1.1
111 3.3
120 1.3
123 0.2
125 2.2
129 5.8
130 1.5
138 0.15
143 20.2
144 1.3
157 2.7
171 0.24
172 1.3
184 2.7
185 4.7
199 0.92
200 1.3
213 2.4
216 1.1
227 0.27
229 1.1
241 15
242 2.9
243 0.11
253 1.5
255 2
284 9.2
285 2

>  <PREDICTED SPECTRUM>  (5074) 
1 1
3 0
4 0
15 54
17 37
18 70
27 89
28 34
29 93
39 42
40 39
41 244
42 87
43 227
44 68
45 50
52 32
53 127
54 117
55 583
56 299
57 568
58 70
59 283
60 104
61 53
64 7
65 19
66 0
67 197
68 127
69 474
70 212
71 366
72 15
73 208
74 999
75 530
76 97
77 45
79 80
80 57
81 224
82 140
83 393
84 196
85 247
86 23
87 927
88 277
89 54
93 82
94 25
95 186
96 116
97 331
98 147
99 93
101 433
102 177
103 37
107 123
108 29
109 136
110 100
111 264
112 101
113 36
115 275
116 144
121 99
122 17
123 81
124 56
125 183
126 66
127 73
129 333
130 161
131 43
135 94
137 49
138 25
139 128
141 14
143 611
144 158
149 71
151 2
152 72
153 89
154 7
157 214
158 46
163 2
165 14
166 28
167 59
168 38
171 159
172 69
177 73
179 29
180 12
181 56
185 281
186 105
187 5
195 2
199 271
200 59
207 2
208 92
209 75
210 5
213 159
214 94
219 8
227 218
228 106
229 25
235 98
236 69
237 68
241 422
242 184
243 48
253 59
254 9
255 120
256 11
269 84
284 365
285 85
286 63
287 15

$$$$

     RDKit          2D

 14 13  0  0  0  0  0  0  0  0999 V2000
   -0.6495    7.1250    0.0000 C   0  0  0  0  0  0  0  0  0  0  0  0
   -4.5466    3.3750    0.0000 C   0  0  0  0  0  0  0  0  0  0  0  0
    3.2476    4.8750    0.0000 C   0  0  0  0  0  0  0  0  0  0  0  0
   -8.4437    5.6250    0.0000 C   0  0  0  0  0  0  0  0  0  0  0  0
   -1.9486    4.8750    0.0000 C   0  0  0  0  0  0  0  0  0  0  0  0
   -3.2476    5.6250    0.0000 C   0  0  0  0  0  0  0  0  0  0  0  0
   -0.6495    5.6250    0.0000 C   0  0  0  0  0  0  0  0  0  0  0  0
   -4.5466    4.8750    0.0000 C   0  0  0  0  0  0  0  0  0  0  0  0
    0.6495    4.8750    0.0000 C   0  0  0  0  0  0  0  0  0  0  0  0
   -5.8457    5.6250    0.0000 C   0  0  0  0  0  0  0  0  0  0  0  0
    0.6495    3.3750    0.0000 O   0  0  0  0  0  0  0  0  0  0  0  0
   -5.8457    7.1250    0.0000 O   0  0  0  0  0  0  0  0  0  0  0  0
    1.9486    5.6250    0.0000 O   0  0  0  0  0  0  0  0  0  0  0  0
   -7.1447    4.8750    0.0000 O   0  0  0  0  0  0  0  0  0  0  0  0
  6  5  1  0
  7  1  1  0
  5  7  2  0
  8  2  1  0
  6  8  2  0
  9  7  1  0
 10  8  1  0
 11  9  2  0
 12 10  2  0
 13  3  1  0
 13  9  1  0
 14  4  1  0
 14 10  1  0
M  END
>  <NAME>  (5075) 
2,5-DIMETHYL-2,4-HEXADIENEDIOIC ACID DIMETHYL ESTER

>  <SYNONYMS>  (5075) 


>  <SPECTRUM TYPE>  (5075) 
MS1

>  <INSTRUMENT TYPE>  (5075) 
EI-B

>  <INSTRUMENT>  (5075) 
JEOL JMS-01-SG

>  <ION MODE>  (5075) 
P

>  <INCHIKEY>  (5075) 
DZQYXTIAUQLOHM-KQQUZDAGSA-N

>  <FORMULA>  (5075) 
C10H14O4

>  <EXACT MASS>  (5075) 
198.089208928

>  <MW>  (5075) 
198

>  <ID>  (5075) 
JP002178

>  <CONTRIBUTOR>  (5075) 
University of Tokyo Team, {Faculty of Engineering, University of Tokyo

>  <COMMENT>  (5075) 
SMILES=COC(=O)C(C)=CC=C(C)C(=O)OC
InChI=InChI=1S/C10H14O4/c1-7(9(11)13-3)5-6-8(2)10(12)14-4/h5-6H,1-4H3/b7-5+,8-6+
computed SMILES=O=C(OC)C(=CC=C(C(=O)OC)C)C
accession=JP002178
date=2016.01.19 (Created 2008.10.21, modified 2011.05.06)
author=KOGA M, UNIV. OF OCCUPATIONAL AND ENVIRONMENTAL HEALTH
license=CC BY-NC-SA
exact mass=198.08921
ionization energy=70 eV
ion type=[M]+*
computed spectral entropy=2.9661316093387224
computed normalized entropy=0.7079656420338071
SPLASH=splash10-000i-5900000000-9492163c668e4c95e698
submitter=submitter = University of Tokyo Team (Faculty of Engineering, University of Tokyo)
MoNA Rating=3.75

>  <NUM PEAKS>  (5075) 
66

>  <MASS SPECTRAL PEAKS>  (5075) 
38 1.5
39 9.8
41 8.2
43 1.33
50 1.5
51 4.1
52 2.8
53 0.91
54 1
55 5.2
59 3
62 0.06
63 0.8
65 1.9
66 1.5
67 0.41
68 1.3
69 5.4
77 10.2
78 0.24
79 15.9
80 2.6
81 2.8
82 0.06
83 2.1
84 0.6
95 5.2
96 0.56
97 15.7
98 2.8
106 1.3
107 1.31
108 2.8
109 1.7
110 1.3
111 0.3
112 12.4
113 1
117 0.8
121 0.1
122 1
123 3.7
124 5.2
125 0.08
127 0.6
135 1
137 3.4
138 0.32
139 99.99
140 8.9
141 1.3
142 0.06
143 1.7
151 6.7
152 1
153 0.13
155 0.8
165 0.8
166 1.3
167 0.76
168 1
183 1.9
184 1
197 0.06
198 9.3
199 1

>  <PREDICTED SPECTRUM>  (5075) 
14 1
15 124
16 6
25 14
26 159
27 353
28 171
29 217
31 149
32 30
33 87
37 86
38 168
39 560
40 240
41 462
42 156
43 92
44 129
45 192
50 241
51 398
52 286
53 539
54 299
55 381
56 131
57 252
58 87
59 829
60 64
61 48
62 38
63 228
64 110
65 301
66 225
67 399
68 241
69 212
70 37
71 218
72 175
73 134
74 67
75 84
76 31
77 305
78 445
79 999
80 499
81 353
82 231
83 321
84 102
85 277
86 18
91 205
93 162
94 107
95 334
96 191
97 414
98 197
99 197
100 19
101 16
105 180
106 618
107 737
108 370
109 387
110 304
111 372
112 101
113 30
114 122
119 9
123 340
124 200
125 160
126 101
127 10
133 92
134 659
135 374
136 101
137 134
138 711
139 517
140 213
141 81
143 16
151 99
153 36
165 113
166 837
167 683
168 196
169 87
198 155

$$$$

     RDKit          2D

 12 11  0  0  0  0  0  0  0  0999 V2000
   -8.4437    5.6250    0.0000 C   0  0  0  0  0  0  0  0  0  0  0  0
    3.2476    4.8750    0.0000 C   0  0  0  0  0  0  0  0  0  0  0  0
   -3.2476    5.6250    0.0000 C   0  0  0  0  0  0  0  0  0  0  0  0
   -1.9486    4.8750    0.0000 C   0  0  0  0  0  0  0  0  0  0  0  0
   -4.5466    4.8750    0.0000 C   0  0  0  0  0  0  0  0  0  0  0  0
   -0.6495    5.6250    0.0000 C   0  0  0  0  0  0  0  0  0  0  0  0
   -5.8457    5.6250    0.0000 C   0  0  0  0  0  0  0  0  0  0  0  0
    0.6495    4.8750    0.0000 C   0  0  0  0  0  0  0  0  0  0  0  0
   -5.8457    7.1250    0.0000 O   0  0  0  0  0  0  0  0  0  0  0  0
    0.6495    3.3750    0.0000 O   0  0  0  0  0  0  0  0  0  0  0  0
   -7.1447    4.8750    0.0000 O   0  0  0  0  0  0  0  0  0  0  0  0
    1.9486    5.6250    0.0000 O   0  0  0  0  0  0  0  0  0  0  0  0
  3  4  2  0
  5  3  1  0
  6  4  1  0
  7  5  1  0
  8  6  1  0
  9  7  2  0
 10  8  2  0
 11  1  1  0
 11  7  1  0
 12  2  1  0
 12  8  1  0
M  END
>  <NAME>  (5076) 
TRANS-2-BUTENE-1,4-DICARBOXYLIC ACID DIMETHYL ESTER

>  <SYNONYMS>  (5076) 


>  <SPECTRUM TYPE>  (5076) 
MS1

>  <INSTRUMENT TYPE>  (5076) 
EI-B

>  <INSTRUMENT>  (5076) 
JEOL JMS-01-SG

>  <ION MODE>  (5076) 
P

>  <INCHIKEY>  (5076) 
CPSQPCGPYWRIPB-ONEGZZNKSA-N

>  <FORMULA>  (5076) 
C8H12O4

>  <EXACT MASS>  (5076) 
172.073558864

>  <MW>  (5076) 
172

>  <ID>  (5076) 
JP002176

>  <CONTRIBUTOR>  (5076) 
University of Tokyo Team, {Faculty of Engineering, University of Tokyo

>  <COMMENT>  (5076) 
SMILES=COC(=O)CC=CCC(=O)OC
InChI=InChI=1S/C8H12O4/c1-11-7(9)5-3-4-6-8(10)12-2/h3-4H,5-6H2,1-2H3/b4-3+
computed SMILES=O=C(OC)CC=CCC(=O)OC
accession=JP002176
date=2016.01.19 (Created 2008.10.21, modified 2011.05.06)
author=KOGA M, UNIV. OF OCCUPATIONAL AND ENVIRONMENTAL HEALTH
license=CC BY-NC-SA
exact mass=172.07356
ionization energy=70 eV
ion type=[M]+*
computed spectral entropy=2.8228127905728937
computed normalized entropy=0.7076520631874154
SPLASH=splash10-0a4l-9600000000-44e4fd3fc9889abd1c39
submitter=submitter = University of Tokyo Team (Faculty of Engineering, University of Tokyo)
MoNA Rating=3.75

>  <NUM PEAKS>  (5076) 
54

>  <MASS SPECTRAL PEAKS>  (5076) 
37 0.9
38 2.3
39 21.2
40 0.14
41 39.4
42 3.7
43 3.7
44 0.04
49 0.4
50 3
51 4.9
52 0.44
53 24
54 26.8
55 10.9
59 99.99
60 1.4
67 1.8
68 3.5
69 0.53
71 37.6
72 6.3
74 1.6
75 0.07
79 0.7
80 5.1
81 22.8
82 0.46
83 1.4
84 0.9
85 3.9
86 0.09
87 1.1
97 5.3
98 4.2
99 0.28
101 3.5
108 75.7
109 4.2
111 0.3
112 15.8
113 45.5
114 3.9
127 0.14
130 2.5
131 0.7
140 85.9
141 1.44
142 1.6
149 0.4
155 1.1
157 0.07
172 2.3
173 0.4

>  <PREDICTED SPECTRUM>  (5076) 
15 54
25 12
26 125
27 296
28 63
29 165
31 114
32 22
33 75
36 10
37 80
38 185
39 612
40 276
41 648
42 243
43 218
44 130
45 456
47 30
49 4
50 157
51 278
52 318
53 702
54 456
55 492
56 180
57 128
58 170
59 999
60 91
61 36
62 15
63 56
64 2
65 98
66 145
67 232
68 204
69 284
70 100
71 440
72 208
73 48
74 132
75 102
77 30
79 198
80 563
81 701
82 396
83 269
84 217
85 141
86 39
87 55
91 42
93 0
95 78
96 42
97 209
98 225
99 304
100 179
101 81
108 674
109 517
110 194
111 230
112 566
113 487
114 165
115 127
129 2
130 51
139 58
140 845
141 480
142 219
143 91
144 49
145 53
172 119

$$$$

     RDKit          2D

 25 24  0  0  0  0  0  0  0  0999 V2000
   -1.3000    0.7500    0.0000 C   0  0  0  0  0  0  0  0  0  0  0  0
    0.0000    1.5000    0.0000 C   0  0  0  0  0  0  0  0  0  0  0  0
   -1.3000   -0.7500    0.0000 C   0  0  0  0  0  0  0  0  0  0  0  0
    1.3000    0.7500    0.0000 C   0  0  0  0  0  0  0  0  0  0  0  0
   -0.0000   -1.5000    0.0000 C   0  0  0  0  0  0  0  0  0  0  0  0
    1.3000   -0.7500    0.0000 C   0  0  0  0  0  3  0  0  0  0  0  0
   -1.3000    0.7500    0.0000 C   0  0  0  0  0  0  0  0  0  0  0  0
    0.0000    1.5000    0.0000 C   0  0  0  0  0  0  0  0  0  0  0  0
   -1.3000   -0.7500    0.0000 C   0  0  0  0  0  0  0  0  0  0  0  0
    1.3000    0.7500    0.0000 C   0  0  0  0  0  0  0  0  0  0  0  0
   -0.0000   -1.5000    0.0000 C   0  0  0  0  0  0  0  0  0  0  0  0
    1.3000   -0.7500    0.0000 C   0  0  0  0  0  3  0  0  0  0  0  0
   -1.3000    0.7500    0.0000 C   0  0  0  0  0  0  0  0  0  0  0  0
    0.0000    1.5000    0.0000 C   0  0  0  0  0  0  0  0  0  0  0  0
   -1.3000   -0.7500    0.0000 C   0  0  0  0  0  0  0  0  0  0  0  0
    1.3000    0.7500    0.0000 C   0  0  0  0  0  0  0  0  0  0  0  0
   -0.0000   -1.5000    0.0000 C   0  0  0  0  0  0  0  0  0  0  0  0
    1.3000   -0.7500    0.0000 C   0  0  0  0  0  3  0  0  0  0  0  0
   -1.3000    0.7500    0.0000 C   0  0  0  0  0  0  0  0  0  0  0  0
    0.0000    1.5000    0.0000 C   0  0  0  0  0  0  0  0  0  0  0  0
   -1.3000   -0.7500    0.0000 C   0  0  0  0  0  0  0  0  0  0  0  0
    1.3000    0.7500    0.0000 C   0  0  0  0  0  0  0  0  0  0  0  0
   -0.0000   -1.5000    0.0000 C   0  0  0  0  0  0  0  0  0  0  0  0
    1.3000   -0.7500    0.0000 C   0  0  0  0  0  3  0  0  0  0  0  0
    0.0000    0.0000    0.0000 Sn  0  0  0  0  0 15  0  0  0  0  0  0
  2  1  2  0
  3  1  1  0
  4  2  1  0
  5  3  2  0
  6  4  2  0
  6  5  1  0
  8  7  2  0
  9  7  1  0
 10  8  1  0
 11  9  2  0
 12 10  2  0
 12 11  1  0
 14 13  2  0
 15 13  1  0
 16 14  1  0
 17 15  2  0
 18 16  2  0
 18 17  1  0
 20 19  2  0
 21 19  1  0
 22 20  1  0
 23 21  2  0
 24 22  2  0
 24 23  1  0
M  RAD  4   6   2  12   2  18   2  24   2
M  END
>  <NAME>  (5077) 
TETRAPHENYLTIN

>  <SYNONYMS>  (5077) 


>  <SPECTRUM TYPE>  (5077) 
MS1

>  <INSTRUMENT TYPE>  (5077) 
EI-B

>  <INSTRUMENT>  (5077) 
VARIAN MAT-44

>  <ION MODE>  (5077) 
P

>  <INCHIKEY>  (5077) 
CRHIAMBJMSSNNM-UHFFFAOYSA-N

>  <FORMULA>  (5077) 
C24H20Sn

>  <EXACT MASS>  (5077) 
428.05869534

>  <MW>  (5077) 
428

>  <ID>  (5077) 
JP002175

>  <CONTRIBUTOR>  (5077) 
University of Tokyo Team, {Faculty of Engineering, University of Tokyo

>  <COMMENT>  (5077) 
SMILES=c([Sn](c(c4)cccc4)(c(c3)cccc3)c(c2)cccc2)(c1)cccc1
InChI=InChI=1S/4C6H5.Sn/c4*1-2-4-6-5-3-1;/h4*1-5H;
computed SMILES=[Sn].[C]=1C=CC=CC1.[C]=1C=CC=CC1.[C]=1C=CC=CC1.[C]=1C=CC=CC1
accession=JP002175
date=2016.01.19 (Created 2008.10.21, modified 2011.05.06)
author=KOGA M, UNIV. OF OCCUPATIONAL AND ENVIRONMENTAL HEALTH
license=CC BY-NC-SA
exact mass=428.0587
ionization energy=70 eV
ion type=[M]+*
computed spectral entropy=3.5904165516519964
computed normalized entropy=0.8368373133230179
SPLASH=splash10-0f6t-1925000000-50dff29b233b751a3a0a
submitter=submitter = University of Tokyo Team (Faculty of Engineering, University of Tokyo)
MoNA Rating=3.75

>  <NUM PEAKS>  (5077) 
73

>  <MASS SPECTRAL PEAKS>  (5077) 
45 4.31
50 10.07
51 38.84
52 3.95
55 7.19
56 2.51
57 9.35
60 3.95
70 1.07
71 3.23
73 2.87
74 1.43
75 1.43
77 14.38
78 4.67
83 1.79
85 2.15
112 3.59
113 1.07
114 1.79
115 3.59
116 45.68
117 26.61
118 75.89
119 26.97
120 99.99
121 2.15
122 14.74
124 16.9
141 1.43
143 2.51
145 3.23
151 1.43
152 8.63
153 6.11
154 8.99
155 1.79
169 1.07
189 1.79
191 1.79
192 2.51
193 34.17
194 21.94
195 56.83
196 25.89
197 74.46
198 4.67
199 10.07
200 1.07
201 12.23
268 1.43
269 2.51
270 17.98
271 14.02
272 30.57
273 17.98
274 37.05
275 4.67
276 5.39
278 5.75
343 2.51
345 1.79
346 2.15
347 38.12
348 31.29
349 73.74
350 42.08
351 92.8
352 18.7
353 14.38
354 2.87
355 15.82
356 2.51

>  <PREDICTED SPECTRUM>  (5077) 
26 83
27 113
28 95
37 42
38 100
39 336
40 104
50 215
51 399
52 114
55 12
57 70
62 61
63 186
64 5
65 51
66 66
68 52
74 118
75 34
76 98
77 217
78 324
79 60
80 13
83 42
89 42
91 120
92 52
93 46
95 84
97 14
99 3
102 67
103 58
104 90
105 208
106 179
107 194
108 5
113 27
115 60
116 147
117 45
118 0
119 48
120 77
121 218
124 164
125 104
126 118
127 126
128 188
129 117
130 51
131 44
133 82
134 1
138 38
139 89
141 167
142 132
143 164
145 58
149 146
150 78
151 274
152 277
153 310
154 201
155 198
156 96
158 69
162 75
163 131
164 208
165 135
166 149
167 116
168 44
169 51
170 41
175 21
177 14
178 93
179 130
180 167
181 228
182 299
183 289
184 177
186 2
187 29
188 46
189 142
190 128
192 56
194 139
195 158
196 247
197 48
208 22
209 65
210 142
211 92
212 114
213 49
216 8
218 49
219 91
220 104
221 15
222 66
224 85
234 145
236 42
241 66
242 170
243 124
244 43
246 111
247 81
248 92
249 8
259 182
260 282
261 491
262 427
263 139
268 47
269 211
270 211
271 36
272 100
273 103
274 201
275 68
278 33
285 14
298 20
322 167
323 113
324 109
335 66
336 193
338 58
339 180
343 17
344 12
346 38
347 71
348 147
349 246
350 509
351 444
352 115
353 159
354 12
358 16
359 33
361 237
362 95
371 16
375 24
376 2
386 20
388 12
422 15
423 311
424 306
425 172
426 181
427 500
428 999
429 634
430 287
431 42
432 59

$$$$

     RDKit          2D

 20 18  0  0  0  0  0  0  0  0999 V2000
   -1.3000    0.7500    0.0000 C   0  0  0  0  0  0  0  0  0  0  0  0
    0.0000    1.5000    0.0000 C   0  0  0  0  0  0  0  0  0  0  0  0
   -1.3000   -0.7500    0.0000 C   0  0  0  0  0  0  0  0  0  0  0  0
    1.3000    0.7500    0.0000 C   0  0  0  0  0  0  0  0  0  0  0  0
   -0.0000   -1.5000    0.0000 C   0  0  0  0  0  0  0  0  0  0  0  0
    1.3000   -0.7500    0.0000 C   0  0  0  0  0  3  0  0  0  0  0  0
   -1.3000    0.7500    0.0000 C   0  0  0  0  0  0  0  0  0  0  0  0
    0.0000    1.5000    0.0000 C   0  0  0  0  0  0  0  0  0  0  0  0
   -1.3000   -0.7500    0.0000 C   0  0  0  0  0  0  0  0  0  0  0  0
    1.3000    0.7500    0.0000 C   0  0  0  0  0  0  0  0  0  0  0  0
   -0.0000   -1.5000    0.0000 C   0  0  0  0  0  0  0  0  0  0  0  0
    1.3000   -0.7500    0.0000 C   0  0  0  0  0  3  0  0  0  0  0  0
   -1.3000    0.7500    0.0000 C   0  0  0  0  0  0  0  0  0  0  0  0
    0.0000    1.5000    0.0000 C   0  0  0  0  0  0  0  0  0  0  0  0
   -1.3000   -0.7500    0.0000 C   0  0  0  0  0  0  0  0  0  0  0  0
    1.3000    0.7500    0.0000 C   0  0  0  0  0  0  0  0  0  0  0  0
   -0.0000   -1.5000    0.0000 C   0  0  0  0  0  0  0  0  0  0  0  0
    1.3000   -0.7500    0.0000 C   0  0  0  0  0  3  0  0  0  0  0  0
    0.0000    0.0000    0.0000 Cl  0  0  0  0  0  0  0  0  0  0  0  0
    0.0000    0.0000    0.0000 Sn  0  0  0  0  0 15  0  0  0  0  0  0
  2  1  2  0
  3  1  1  0
  4  2  1  0
  5  3  2  0
  6  4  2  0
  6  5  1  0
  8  7  2  0
  9  7  1  0
 10  8  1  0
 11  9  2  0
 12 10  2  0
 12 11  1  0
 14 13  2  0
 15 13  1  0
 16 14  1  0
 17 15  2  0
 18 16  2  0
 18 17  1  0
M  CHG  2  19  -1  20   1
M  RAD  3   6   2  12   2  18   2
M  END
>  <NAME>  (5078) 
TRIPHENYLTIN CHLORIDE

>  <SYNONYMS>  (5078) 


>  <SPECTRUM TYPE>  (5078) 
MS1

>  <INSTRUMENT TYPE>  (5078) 
EI-B

>  <INSTRUMENT>  (5078) 
VARIAN MAT-44

>  <ION MODE>  (5078) 
P

>  <INCHIKEY>  (5078) 
NJVOZLGKTAPUTQ-UHFFFAOYSA-M

>  <FORMULA>  (5078) 
C18H15ClSn

>  <EXACT MASS>  (5078) 
385.98842286

>  <MW>  (5078) 
386

>  <ID>  (5078) 
JP002173

>  <CONTRIBUTOR>  (5078) 
University of Tokyo Team, {Faculty of Engineering, University of Tokyo

>  <COMMENT>  (5078) 
SMILES=c(c3)ccc(c3)[Sn](Cl)(c(c2)cccc2)c(c1)cccc1
InChI=InChI=1S/3C6H5.ClH.Sn/c3*1-2-4-6-5-3-1;;/h3*1-5H;1H;/q;;;;+1/p-1
computed SMILES=[Cl-].[Sn+].[C]=1C=CC=CC1.[C]=1C=CC=CC1.[C]=1C=CC=CC1
accession=JP002173
date=2016.01.19 (Created 2008.10.21, modified 2011.05.06)
author=KOGA M, UNIV. OF OCCUPATIONAL AND ENVIRONMENTAL HEALTH
license=CC BY-NC-SA
exact mass=385.98842
ionization energy=70 eV
ion type=[M]+*
computed spectral entropy=3.41446139399395
computed normalized entropy=0.8064184002661802
SPLASH=splash10-0zfr-4905000000-fb1d0dfd80a55e5f5e4b
submitter=submitter = University of Tokyo Team (Faculty of Engineering, University of Tokyo)
MoNA Rating=3.75

>  <NUM PEAKS>  (5078) 
69

>  <MASS SPECTRAL PEAKS>  (5078) 
51 93.44
52 6.2
63 1.32
74 4.25
75 4.03
76 6.02
77 59.99
78 5.74
115 1.36
116 5.65
117 3.88
118 9.78
119 4.54
120 12.97
122 1.83
124 2.2
143 1.66
145 2.12
147 1.2
149 1.54
150 1.79
151 16.2
152 16.36
153 37.32
154 99.99
155 50.89
156 4.77
157 14.52
159 6.05
161 1.42
193 8.03
194 5.67
195 13.38
196 6.86
197 16.73
198 1.45
199 2.41
201 2.76
228 1.17
229 1.3
230 3.12
231 6.22
232 3.22
301 1.12
303 1.23
304 5.06
305 17.85
306 19.19
307 34.34
308 29.07
309 39.82
310 13.51
311 14.85
312 4.56
313 6.51
314 1.63
315 1.75
346 1.18
347 2.52
348 3.23
349 3.72
350 4.09
351 3.16
382 1.37
383 2.08
384 2.38
385 3.04
386 2.45
387 1.36

>  <PREDICTED SPECTRUM>  (5078) 
25 10
26 108
27 3
28 39
36 20
37 98
38 157
39 406
40 119
41 45
44 71
49 7
50 228
51 444
52 115
53 66
54 0
55 16
57 27
62 109
63 224
64 78
65 112
66 45
67 75
68 72
69 30
73 18
74 129
76 44
77 211
78 278
79 21
80 53
83 41
89 17
91 18
92 4
96 0
97 14
99 50
101 74
102 82
103 78
107 37
113 15
116 42
117 49
118 40
121 34
123 11
124 91
125 80
126 134
127 127
128 121
129 38
131 26
133 14
137 15
138 63
139 99
141 187
142 93
143 10
145 49
147 43
148 0
150 76
151 173
152 266
153 208
154 238
155 49
156 1
162 44
163 39
164 70
166 43
167 23
168 85
169 14
170 3
174 4
177 51
178 105
179 46
180 106
182 72
191 72
192 130
193 4
194 38
199 53
200 106
201 39
202 36
204 113
205 73
206 193
207 118
208 136
217 45
218 140
219 344
220 215
221 46
226 53
227 142
228 190
230 139
231 61
232 141
233 73
234 27
236 1
238 16
256 43
265 19
266 21
267 44
271 14
274 40
279 89
280 202
281 129
282 228
283 17
293 260
294 238
295 354
297 78
300 115
302 28
303 80
304 64
305 75
306 134
307 344
308 486
309 521
310 145
311 135
316 66
317 6
318 39
319 184
320 176
333 147
344 50
346 59
356 88
357 30
358 47
359 48
360 4
380 128
381 150
382 301
383 479
384 533
385 501
386 999
387 473
388 215
389 38

$$$$

     RDKit          2D

 17 12  0  0  0  0  0  0  0  0999 V2000
   -2.5981    2.2500    0.0000 C   0  0  0  0  0  3  0  0  0  0  0  0
    1.2990    1.5000    0.0000 C   0  0  0  0  0  0  0  0  0  0  0  0
   -1.2990    1.5000    0.0000 C   0  0  0  0  0  0  0  0  0  0  0  0
    0.0000    2.2500    0.0000 C   0  0  0  0  0  0  0  0  0  0  0  0
   -2.5981    2.2500    0.0000 C   0  0  0  0  0  3  0  0  0  0  0  0
    1.2990    1.5000    0.0000 C   0  0  0  0  0  0  0  0  0  0  0  0
   -1.2990    1.5000    0.0000 C   0  0  0  0  0  0  0  0  0  0  0  0
    0.0000    2.2500    0.0000 C   0  0  0  0  0  0  0  0  0  0  0  0
   -2.5981    2.2500    0.0000 C   0  0  0  0  0  3  0  0  0  0  0  0
    1.2990    1.5000    0.0000 C   0  0  0  0  0  0  0  0  0  0  0  0
   -1.2990    1.5000    0.0000 C   0  0  0  0  0  0  0  0  0  0  0  0
    0.0000    2.2500    0.0000 C   0  0  0  0  0  0  0  0  0  0  0  0
    0.9743    0.5625    0.0000 C   0  0  0  0  0  0  0  0  0  0  0  0
   -0.3248    1.3125    0.0000 C   0  0  0  0  0  0  0  0  0  0  0  0
   -1.6238    0.5625    0.0000 O   0  0  0  0  0  0  0  0  0  0  0  0
   -0.3248    2.8125    0.0000 O   0  0  0  0  0  0  0  0  0  0  0  0
    0.0000    0.0000    0.0000 Sn  0  0  0  0  0 15  0  0  0  0  0  0
  3  1  1  0
  4  2  1  0
  4  3  1  0
  7  5  1  0
  8  6  1  0
  8  7  1  0
 11  9  1  0
 12 10  1  0
 12 11  1  0
 14 13  1  0
 15 14  2  0
 16 14  1  0
M  CHG  2  16  -1  17   1
M  RAD  3   1   2   5   2   9   2
M  END
>  <NAME>  (5079) 
TRIBUTYLTIN ACETATE

>  <SYNONYMS>  (5079) 
TRIBUTYLSTANNYL ACETATE

>  <SPECTRUM TYPE>  (5079) 
MS1

>  <INSTRUMENT TYPE>  (5079) 
EI-B

>  <INSTRUMENT>  (5079) 
VARIAN MAT-44

>  <ION MODE>  (5079) 
P

>  <INCHIKEY>  (5079) 
PWBHRVGYSMBMIO-UHFFFAOYSA-M

>  <FORMULA>  (5079) 
C14H30O2Sn

>  <EXACT MASS>  (5079) 
350.1267749

>  <MW>  (5079) 
350

>  <ID>  (5079) 
JP002172

>  <CONTRIBUTOR>  (5079) 
University of Tokyo Team, {Faculty of Engineering, University of Tokyo

>  <COMMENT>  (5079) 
SMILES=CCCC[Sn](CCCC)(CCCC)OC(C)=O
InChI=InChI=1S/3C4H9.C2H4O2.Sn/c3*1-3-4-2;1-2(3)4;/h3*1,3-4H2,2H3;1H3,(H,3,4);/q;;;;+1/p-1
computed SMILES=[Sn+].O=C([O-])C.[CH2]CCC.[CH2]CCC.[CH2]CCC
accession=JP002172
date=2016.01.19 (Created 2008.10.21, modified 2011.05.06)
author=KOGA M, UNIV. OF OCCUPATIONAL AND ENVIRONMENTAL HEALTH
license=CC BY-NC-SA
exact mass=350.12678
ionization energy=70 eV
ion type=[M]+*
computed spectral entropy=3.597820026938593
computed normalized entropy=0.8210402005478339
SPLASH=splash10-002f-1890000000-e100f32d003c01572593
submitter=submitter = University of Tokyo Team (Faculty of Engineering, University of Tokyo)
MoNA Rating=3.75

>  <NUM PEAKS>  (5079) 
80

>  <MASS SPECTRAL PEAKS>  (5079) 
53 1.33
55 4.46
56 2.15
57 32.81
58 1.56
60 2.8
69 24.07
76 3.25
100 1.2
116 2.21
117 8.73
118 7.82
119 20.56
120 9.97
121 18.86
122 1.17
123 3.97
125 3.25
126 1.72
131 5.83
132 1.49
133 9.44
134 5.79
135 15.44
136 5.44
137 18.44
138 1.36
139 4.07
141 3.19
145 1.43
147 2.08
149 2.37
153 1.07
155 1.3
169 4.33
171 2.6
173 13.39
174 9.18
175 48.12
176 25.83
177 74.09
178 22.9
179 69.4
180 4
181 19.74
182 1.04
183 11.4
213 1.07
229 6.25
230 4.43
231 12.74
232 6.77
233 18.21
234 4.13
235 6.41
236 1.92
237 4.72
249 1.14
251 1.98
253 2.47
265 1.04
267 1.95
268 1.01
269 2.96
271 1.14
285 3.16
287 3.71
288 5.27
289 51.31
290 39.36
291 84.09
292 47.73
293 99.99
294 13.62
295 15.34
296 4.04
297 15.21
298 1.79
376 1.23
471 1.07

>  <PREDICTED SPECTRUM>  (5079) 
26 39
27 238
28 84
29 132
39 333
40 107
41 491
42 352
43 404
44 60
51 84
52 69
53 110
54 100
55 351
56 181
57 168
58 146
65 146
66 93
67 235
68 99
69 26
70 211
71 223
72 202
77 178
78 146
79 141
80 59
81 80
83 83
84 49
85 143
89 102
90 75
91 277
92 6
93 77
94 19
95 70
96 97
97 176
103 77
104 66
105 242
106 104
107 127
109 117
111 156
112 72
113 44
116 6
117 114
118 69
120 143
121 110
131 73
132 29
133 105
134 56
135 134
137 246
138 208
139 191
148 6
149 88
150 11
151 77
164 44
165 164
166 6
176 139
177 483
178 187
179 258
181 313
191 197
192 115
193 155
194 63
195 123
207 40
209 53
219 215
220 60
221 493
222 363
223 921
224 4
225 68
233 147
235 131
236 27
237 381
238 32
249 222
251 111
263 389
264 100
265 786
266 218
267 48
279 18
306 33
307 999
308 272
309 0
350 104
351 7

$$$$

     RDKit          2D

 14  9  0  0  0  0  0  0  0  0999 V2000
   -2.5981    2.2500    0.0000 C   0  0  0  0  0  3  0  0  0  0  0  0
    1.2990    1.5000    0.0000 C   0  0  0  0  0  0  0  0  0  0  0  0
   -1.2990    1.5000    0.0000 C   0  0  0  0  0  0  0  0  0  0  0  0
    0.0000    2.2500    0.0000 C   0  0  0  0  0  0  0  0  0  0  0  0
   -2.5981    2.2500    0.0000 C   0  0  0  0  0  3  0  0  0  0  0  0
    1.2990    1.5000    0.0000 C   0  0  0  0  0  0  0  0  0  0  0  0
   -1.2990    1.5000    0.0000 C   0  0  0  0  0  0  0  0  0  0  0  0
    0.0000    2.2500    0.0000 C   0  0  0  0  0  0  0  0  0  0  0  0
   -2.5981    2.2500    0.0000 C   0  0  0  0  0  3  0  0  0  0  0  0
    1.2990    1.5000    0.0000 C   0  0  0  0  0  0  0  0  0  0  0  0
   -1.2990    1.5000    0.0000 C   0  0  0  0  0  0  0  0  0  0  0  0
    0.0000    2.2500    0.0000 C   0  0  0  0  0  0  0  0  0  0  0  0
    0.0000    0.0000    0.0000 Cl  0  0  0  0  0  0  0  0  0  0  0  0
    0.0000    0.0000    0.0000 Sn  0  0  0  0  0 15  0  0  0  0  0  0
  3  1  1  0
  4  2  1  0
  4  3  1  0
  7  5  1  0
  8  6  1  0
  8  7  1  0
 11  9  1  0
 12 10  1  0
 12 11  1  0
M  CHG  2  13  -1  14   1
M  RAD  3   1   2   5   2   9   2
M  END
>  <NAME>  (5080) 
TRI-BUTYLTIN CHLORIDE

>  <SYNONYMS>  (5080) 


>  <SPECTRUM TYPE>  (5080) 
MS1

>  <INSTRUMENT TYPE>  (5080) 
EI-B

>  <INSTRUMENT>  (5080) 
VARIAN MAT-44

>  <ION MODE>  (5080) 
P

>  <INCHIKEY>  (5080) 
GCTFWCDSFPMHHS-UHFFFAOYSA-M

>  <FORMULA>  (5080) 
C12H27ClSn

>  <EXACT MASS>  (5080) 
326.082323244

>  <MW>  (5080) 
326

>  <ID>  (5080) 
JP002170

>  <CONTRIBUTOR>  (5080) 
University of Tokyo Team, {Faculty of Engineering, University of Tokyo

>  <COMMENT>  (5080) 
SMILES=CCCC[Sn](Cl)(CCCC)CCCC
InChI=InChI=1S/3C4H9.ClH.Sn/c3*1-3-4-2;;/h3*1,3-4H2,2H3;1H;/q;;;;+1/p-1
computed SMILES=[Cl-].[Sn+].[CH2]CCC.[CH2]CCC.[CH2]CCC
accession=JP002170
date=2016.01.19 (Created 2008.10.21, modified 2011.05.06)
author=KOGA M, UNIV. OF OCCUPATIONAL AND ENVIRONMENTAL HEALTH
license=CC BY-NC-SA
exact mass=326.08233
ionization energy=70 eV
ion type=[M]+*
computed spectral entropy=3.895724708456186
computed normalized entropy=0.8657532193289984
SPLASH=splash10-066r-2690000000-7b10b43b6782c3d055b4
submitter=submitter = University of Tokyo Team (Faculty of Engineering, University of Tokyo)
MoNA Rating=3.75

>  <NUM PEAKS>  (5080) 
90

>  <MASS SPECTRAL PEAKS>  (5080) 
51 1.18
53 3.2
54 1.73
55 11.8
56 12.88
57 99.99
58 6.24
69 2
71 1.83
115 1.03
116 3.87
117 8.99
118 9.39
119 15.18
120 11.94
121 18.88
122 1.84
123 4.2
124 1.3
125 3.52
133 1.58
134 1.07
135 1.79
145 1.49
147 2.69
149 2.66
150 2.41
151 12.22
152 10.64
153 23.21
154 14.17
155 32.31
156 4.73
157 12.7
158 1.05
159 5.91
161 1.52
171 1.12
172 2.23
173 11.09
174 9.6
175 19.89
176 12.14
177 25.12
178 4.16
179 7.68
180 1.65
181 5.16
182 1.1
183 1.73
207 2.38
208 4.06
209 12.91
210 11.78
211 22.44
212 14.3
213 25.42
214 5.52
215 9.6
216 1.6
217 4.45
219 1.13
230 1.24
231 2.83
232 3.11
233 4.25
234 3.7
235 4.04
261 1.84
263 2.49
264 7.64
265 25.04
266 28.07
267 44.81
268 36.75
269 52.21
270 15.36
271 21.63
272 4.78
273 10.41
274 1.74
275 2.76
287 4.81
288 4.58
289 7.68
290 5.61
291 9.11
292 1.74
293 1.52
295 1.59

>  <PREDICTED SPECTRUM>  (5080) 
25 30
26 79
27 317
28 62
29 200
37 30
38 73
39 393
40 175
41 533
42 322
43 314
44 61
45 43
50 24
51 103
52 86
53 194
54 86
55 369
56 98
57 160
58 29
59 44
61 27
63 43
65 114
66 89
67 271
68 93
69 69
70 74
71 197
72 55
73 58
74 30
75 24
77 171
78 118
79 167
80 29
81 75
82 16
83 3
85 117
87 109
89 175
90 90
91 275
93 131
94 40
95 23
96 39
97 96
98 16
99 31
103 27
104 74
105 377
107 173
108 22
109 122
110 5
111 153
112 9
113 267
114 148
115 259
116 11
117 32
119 117
121 92
127 57
131 56
135 60
140 9
141 59
153 108
155 86
157 222
159 32
168 4
169 73
170 16
171 60
173 43
175 11
185 61
195 63
197 239
198 164
199 722
200 156
201 239
202 63
203 92
209 66
210 10
211 183
212 28
213 398
214 188
215 173
225 344
226 66
227 299
228 20
229 80
239 225
240 160
241 700
242 334
243 192
253 33
254 40
255 425
256 134
267 123
268 29
269 137
281 86
282 142
283 999
284 325
285 147
286 21
297 143
326 308
327 62

$$$$

     RDKit          2D

 14  9  0  0  0  0  0  0  0  0999 V2000
   -2.5981    2.2500    0.0000 C   0  0  0  0  0  3  0  0  0  0  0  0
    1.2990    1.5000    0.0000 C   0  0  0  0  0  0  0  0  0  0  0  0
   -1.2990    1.5000    0.0000 C   0  0  0  0  0  0  0  0  0  0  0  0
    0.0000    2.2500    0.0000 C   0  0  0  0  0  0  0  0  0  0  0  0
   -2.5981    2.2500    0.0000 C   0  0  0  0  0  3  0  0  0  0  0  0
    1.2990    1.5000    0.0000 C   0  0  0  0  0  0  0  0  0  0  0  0
   -1.2990    1.5000    0.0000 C   0  0  0  0  0  0  0  0  0  0  0  0
    0.0000    2.2500    0.0000 C   0  0  0  0  0  0  0  0  0  0  0  0
   -2.5981    2.2500    0.0000 C   0  0  0  0  0  3  0  0  0  0  0  0
    1.2990    1.5000    0.0000 C   0  0  0  0  0  0  0  0  0  0  0  0
   -1.2990    1.5000    0.0000 C   0  0  0  0  0  0  0  0  0  0  0  0
    0.0000    2.2500    0.0000 C   0  0  0  0  0  0  0  0  0  0  0  0
    0.0000    0.0000    0.0000 F   0  0  0  0  0  0  0  0  0  0  0  0
    0.0000    0.0000    0.0000 Sn  0  0  0  0  0 15  0  0  0  0  0  0
  3  1  1  0
  4  2  1  0
  4  3  1  0
  7  5  1  0
  8  6  1  0
  8  7  1  0
 11  9  1  0
 12 10  1  0
 12 11  1  0
M  CHG  2  13  -1  14   1
M  RAD  3   1   2   5   2   9   2
M  END
>  <NAME>  (5081) 
TRI-BUTHYLTIN FLUORIDE

>  <SYNONYMS>  (5081) 


>  <SPECTRUM TYPE>  (5081) 
MS1

>  <INSTRUMENT TYPE>  (5081) 
EI-B

>  <INSTRUMENT>  (5081) 
VARIAN MAT-44

>  <ION MODE>  (5081) 
P

>  <INCHIKEY>  (5081) 
DFNPRTKVCGZMMC-UHFFFAOYSA-M

>  <FORMULA>  (5081) 
C12H27FSn

>  <EXACT MASS>  (5081) 
310.111873784

>  <MW>  (5081) 
310

>  <ID>  (5081) 
JP002169

>  <CONTRIBUTOR>  (5081) 
University of Tokyo Team, {Faculty of Engineering, University of Tokyo

>  <COMMENT>  (5081) 
SMILES=CCCC[Sn](F)(CCCC)CCCC
cas=1983-10-4
InChI=InChI=1S/3C4H9.FH.Sn/c3*1-3-4-2;;/h3*1,3-4H2,2H3;1H;/q;;;;+1/p-1
computed SMILES=[F-].[Sn+].[CH2]CCC.[CH2]CCC.[CH2]CCC
accession=JP002169
date=2016.01.19 (Created 2008.10.21, modified 2011.05.06)
author=KOGA M, UNIV. OF OCCUPATIONAL AND ENVIRONMENTAL HEALTH
license=CC BY-NC-SA
exact mass=310.11188
ionization energy=70 eV
ion type=[M]+*
computed spectral entropy=3.7986404153007993
computed normalized entropy=0.8284988787755215
SPLASH=splash10-0udi-1970000000-d2ae49205af4a824b734
submitter=submitter = University of Tokyo Team (Faculty of Engineering, University of Tokyo)
MoNA Rating=3.75

>  <NUM PEAKS>  (5081) 
98

>  <MASS SPECTRAL PEAKS>  (5081) 
51 1.22
53 2.28
55 8.3
56 3.45
57 60.21
58 2.96
69 2.07
116 2.62
117 11.06
118 8.95
119 17.96
120 10.8
121 21.03
123 3.37
125 3.79
131 2.75
132 1.16
133 3.19
134 1.94
135 18.07
136 8.82
137 25.49
138 9.65
139 33.26
141 5.08
143 6.31
145 2.33
146 1.11
147 3.32
149 3.68
151 2.33
152 1.22
153 4.02
154 2.02
155 4.9
157 1.86
159 1.06
163 1.86
164 1.81
165 3.5
166 2.36
167 4.62
168 1.92
169 2.72
171 2.49
172 2.02
173 29.31
174 17.86
175 49.44
176 21.29
177 64.37
178 4.05
179 10.56
181 11.01
191 2.05
192 2.38
193 9.68
194 6.67
195 14.64
196 6.82
197 13.99
198 1.03
199 2.59
201 2.44
209 2.18
210 1.42
211 4.02
212 1.76
213 4.72
215 1.73
231 2.15
232 1.55
233 2.93
234 1.42
235 1.58
245 3.11
247 2.31
248 2.7
249 45.33
250 31.78
251 77.27
252 38.32
253 99.99
254 9.58
255 14.15
256 2.28
257 15.96
258 1.53
265 3.97
266 2.72
267 7.58
268 4.2
269 10.28
270 1.84
271 3.84
273 1.68
289 1.06
291 1.27

>  <PREDICTED SPECTRUM>  (5081) 
25 17
26 70
27 257
28 43
29 162
37 12
38 58
39 330
40 159
41 440
42 284
43 288
44 77
45 102
50 4
51 86
52 93
53 189
54 100
55 364
56 132
57 177
58 90
59 38
63 38
65 135
66 111
67 271
68 123
69 80
70 80
71 211
72 39
75 24
77 183
78 132
79 65
80 64
81 82
82 16
83 13
85 73
87 5
89 97
90 47
91 220
92 16
93 144
94 37
95 198
96 12
97 253
98 137
99 239
101 22
103 51
104 53
105 202
107 36
111 75
113 63
115 84
119 38
124 36
125 62
126 2
137 182
138 30
139 128
140 22
141 305
143 65
152 47
153 119
154 62
155 81
157 97
159 14
169 157
170 32
171 17
179 75
181 276
182 212
183 720
184 185
185 221
186 45
187 91
193 46
195 212
196 77
197 466
198 232
199 197
209 317
210 80
211 277
212 45
213 65
223 237
224 163
225 823
226 368
227 244
228 7
237 37
238 86
239 432
240 162
251 126
252 71
253 151
265 33
266 88
267 999
268 371
269 116
281 301
282 9
310 323
311 74

$$$$

     RDKit          2D

  9  4  0  0  0  0  0  0  0  0999 V2000
    0.0000    0.0000    0.0000 C   0  0  0  0  0  3  0  0  0  0  0  0
    1.5000    0.0000    0.0000 C   0  0  0  0  0  0  0  0  0  0  0  0
    0.0000    0.0000    0.0000 C   0  0  0  0  0  3  0  0  0  0  0  0
    1.5000    0.0000    0.0000 C   0  0  0  0  0  0  0  0  0  0  0  0
    0.0000    0.0000    0.0000 C   0  0  0  0  0  3  0  0  0  0  0  0
    1.5000    0.0000    0.0000 C   0  0  0  0  0  0  0  0  0  0  0  0
    0.0000    0.0000    0.0000 C   0  0  0  0  0  3  0  0  0  0  0  0
    1.5000    0.0000    0.0000 C   0  0  0  0  0  0  0  0  0  0  0  0
    0.0000    0.0000    0.0000 Sn  0  0  0  0  0 15  0  0  0  0  0  0
  2  1  1  0
  4  3  1  0
  6  5  1  0
  8  7  1  0
M  RAD  4   1   2   3   2   5   2   7   2
M  END
>  <NAME>  (5082) 
TETRAETHYL TIN

>  <SYNONYMS>  (5082) 


>  <SPECTRUM TYPE>  (5082) 
MS1

>  <INSTRUMENT TYPE>  (5082) 
EI-B

>  <INSTRUMENT>  (5082) 
VARIAN MAT-44

>  <ION MODE>  (5082) 
P

>  <INCHIKEY>  (5082) 
RWWNQEOPUOCKGR-UHFFFAOYSA-N

>  <FORMULA>  (5082) 
C8H20Sn

>  <EXACT MASS>  (5082) 
236.05869533999999

>  <MW>  (5082) 
236

>  <ID>  (5082) 
JP002168

>  <CONTRIBUTOR>  (5082) 
University of Tokyo Team, {Faculty of Engineering, University of Tokyo

>  <COMMENT>  (5082) 
SMILES=CC[Sn](CC)(CC)CC
InChI=InChI=1S/4C2H5.Sn/c4*1-2;/h4*1H2,2H3;
computed SMILES=[Sn].[CH2]C.[CH2]C.[CH2]C.[CH2]C
accession=JP002168
date=2016.01.19 (Created 2008.10.21, modified 2011.05.06)
author=KOGA M, UNIV. OF OCCUPATIONAL AND ENVIRONMENTAL HEALTH
license=CC BY-NC-SA
exact mass=236.0587
ionization energy=70 eV
ion type=[M]+*
computed spectral entropy=4.490981492003181
computed normalized entropy=0.8986973628439404
SPLASH=splash10-0f6t-0339100000-55385e2abf7cf981332b
submitter=submitter = University of Tokyo Team (Faculty of Engineering, University of Tokyo)
MoNA Rating=3.75

>  <NUM PEAKS>  (5082) 
148

>  <MASS SPECTRAL PEAKS>  (5082) 
45 8
55 18.66
56 4
57 26.66
67 4
69 13.33
70 5.33
71 13.33
79 1.33
81 2.66
82 1.33
83 8
85 5.33
95 1.33
97 4
109 1.33
117 4
118 5.33
119 10.66
120 9.33
121 9.33
123 1.33
125 1.33
133 6.66
134 2.66
135 13.33
136 2.66
137 18.66
139 2.66
141 2.66
145 10.66
146 4
147 25.33
148 8
149 42.66
150 2.66
151 20
153 12
154 2.66
155 16
156 2.66
157 5.33
175 9.33
176 4
177 16
178 5.33
179 21.33
181 2.66
182 2.66
183 14.66
184 20
185 22.66
186 14.66
187 5.33
191 5.33
192 1.33
193 9.33
194 1.33
195 13.33
197 2.66
203 1.33
205 5.33
207 6.66
209 4
211 10.66
212 1.33
213 12
215 2.66
249 8
250 8
251 28
252 26.66
253 54.66
254 36
255 60
256 28
257 46.66
258 6.66
259 18.66
260 2.66
261 13.33
279 6.66
280 2.66
281 16
282 9.33
283 25.33
284 9.33
285 24
286 4
287 14.66
289 4
291 1.33
307 4
308 4
309 17.33
310 12
311 40
312 22.66
313 42.66
314 14.66
315 34.66
316 2.66
317 13.33
318 1.33
319 5.33
335 4
336 2.66
337 17.33
338 13.33
339 41.33
340 26.66
341 50.66
342 22.66
343 44
344 8
345 21.33
346 2.66
347 9.33
349 1.33
365 12
366 9.33
367 36
368 29.33
369 74.66
370 45.33
371 76
372 30.66
373 0.6
374 9.33
375 20
376 4
377 13.33
391 1.33
393 14.66
394 14.66
395 42.66
396 38.66
397 92
398 60
399 99.99
400 45.33
401 77.33
402 17.33
403 29.33
404 5.33
405 18.66
427 1.33
429 1.33

>  <PREDICTED SPECTRUM>  (5082) 
14 30
15 96
25 3
26 87
27 249
28 115
29 117
30 7
31 1
32 9
36 12
37 54
38 93
39 342
40 130
41 350
42 124
43 84
45 50
49 34
50 117
51 219
52 133
53 248
54 132
55 1
57 27
58 73
61 2
62 42
63 113
64 15
65 153
66 49
67 43
71 106
72 80
73 184
74 137
75 139
76 46
77 198
78 169
79 212
80 163
81 177
83 9
86 17
87 136
88 43
89 129
91 84
92 34
93 104
94 109
95 9
98 8
99 23
101 124
102 60
103 210
104 45
105 97
106 94
107 130
108 100
109 282
113 14
114 95
115 479
116 99
117 229
118 31
119 78
120 50
121 108
122 85
123 182
124 97
125 10
127 137
128 130
129 112
130 119
131 44
132 66
133 122
134 80
135 69
136 14
137 64
138 20
141 84
142 99
143 165
144 144
145 55
146 43
147 23
148 14
149 66
151 87
152 88
153 169
155 44
158 15
159 36
160 43
161 151
162 135
163 169
164 62
165 153
166 3
167 161
169 44
175 94
176 107
177 324
178 254
179 414
180 131
181 83
182 95
189 180
190 143
191 483
192 139
193 451
194 189
195 145
196 149
197 23
201 8
202 166
203 303
204 301
205 566
206 553
207 482
208 213
209 205
215 87
216 110
217 233
218 95
219 420
220 336
221 999
222 219
223 29
233 30
234 36
235 208
236 286

$$$$

     RDKit          2D

 19 18  0  0  0  0  0  0  0  0999 V2000
    5.5209    8.4375    0.0000 C   0  0  0  0  0  0  0  0  0  0  0  0
    4.2219   10.6875    0.0000 C   0  0  0  0  0  0  0  0  0  0  0  0
  -15.2637    8.4375    0.0000 C   0  0  0  0  0  0  0  0  0  0  0  0
   -3.5724    9.1875    0.0000 C   0  0  0  0  0  0  0  0  0  0  0  0
   -4.8714    8.4375    0.0000 C   0  0  0  0  0  0  0  0  0  0  0  0
   -2.2733    8.4375    0.0000 C   0  0  0  0  0  0  0  0  0  0  0  0
   -6.1704    9.1875    0.0000 C   0  0  0  0  0  0  0  0  0  0  0  0
   -0.9743    9.1875    0.0000 C   0  0  0  0  0  0  0  0  0  0  0  0
   -7.4695    8.4375    0.0000 C   0  0  0  0  0  0  0  0  0  0  0  0
    0.3248    8.4375    0.0000 C   0  0  0  0  0  0  0  0  0  0  0  0
   -8.7685    9.1875    0.0000 C   0  0  0  0  0  0  0  0  0  0  0  0
    1.6238    9.1875    0.0000 C   0  0  0  0  0  0  0  0  0  0  0  0
  -10.0675    8.4375    0.0000 C   0  0  0  0  0  0  0  0  0  0  0  0
    2.9228    8.4375    0.0000 C   0  0  0  0  0  0  0  0  0  0  0  0
  -11.3666    9.1875    0.0000 C   0  0  0  0  0  0  0  0  0  0  0  0
    4.2219    9.1875    0.0000 C   0  0  0  0  0  0  0  0  0  0  0  0
  -12.6656    8.4375    0.0000 C   0  0  0  0  0  0  0  0  0  0  0  0
  -12.6656    6.9375    0.0000 O   0  0  0  0  0  0  0  0  0  0  0  0
  -13.9647    9.1875    0.0000 O   0  0  0  0  0  0  0  0  0  0  0  0
  5  4  1  0
  6  4  1  0
  7  5  1  0
  8  6  1  0
  9  7  1  0
 10  8  1  0
 11  9  1  0
 12 10  1  0
 13 11  1  0
 14 12  1  0
 15 13  1  0
 16  1  1  0
 16  2  1  0
 16 14  1  0
 17 15  1  0
 18 17  2  0
 19  3  1  0
 19 17  1  0
M  END
>  <NAME>  (5083) 
14-METHYLPENTADECANOIC ACID METHYL ESTER

>  <SYNONYMS>  (5083) 


>  <SPECTRUM TYPE>  (5083) 
MS1

>  <INSTRUMENT TYPE>  (5083) 
EI-B

>  <INSTRUMENT>  (5083) 
JEOL JMS-01-SG

>  <ION MODE>  (5083) 
P

>  <INCHIKEY>  (5083) 
WAKCWJNDXBPEBP-UHFFFAOYSA-N

>  <FORMULA>  (5083) 
C17H34O2

>  <EXACT MASS>  (5083) 
270.255880328

>  <MW>  (5083) 
270

>  <ID>  (5083) 
JP002166

>  <CONTRIBUTOR>  (5083) 
University of Tokyo Team, {Faculty of Engineering, University of Tokyo

>  <COMMENT>  (5083) 
SMILES=COC(=O)CCCCCCCCCCCCC(C)C
InChI=InChI=1S/C17H34O2/c1-16(2)14-12-10-8-6-4-5-7-9-11-13-15-17(18)19-3/h16H,4-15H2,1-3H3
computed SMILES=O=C(OC)CCCCCCCCCCCCC(C)C
accession=JP002166
date=2016.01.19 (Created 2008.10.21, modified 2011.05.06)
author=KOGA M, UNIV. OF OCCUPATIONAL AND ENVIRONMENTAL HEALTH
license=CC BY-NC-SA
exact mass=270.25588
ionization energy=70 eV
ion type=[M]+*
computed spectral entropy=3.204363400876669
computed normalized entropy=0.7858575046725579
SPLASH=splash10-00di-9210000000-cb4ca10245305ebee3ba
submitter=submitter = University of Tokyo Team (Faculty of Engineering, University of Tokyo)
MoNA Rating=3.75

>  <NUM PEAKS>  (5083) 
59

>  <MASS SPECTRAL PEAKS>  (5083) 
42 4.7
43 2
55 21.6
56 0.6
57 17.5
59 2
67 4
68 0.47
69 17.5
71 8.1
72 2.7
74 99.99
75 14.1
81 4.7
83 14.1
87 5.6
88 6.7
89 2
93 3.3
97 0.54
98 2.7
101 10.1
102 3.3
112 0.33
124 3.3
126 2.7
129 6
135 0.4
137 3.3
138 3.3
139 2
143 1.55
144 3.3
147 3.3
153 3.3
159 0.27
166 2.7
170 2
171 7.4
172 0.2
177 2.7
185 4
189 3.3
193 0.2
197 2
199 6.7
205 4
206 0.2
209 2.7
213 4.7
215 2
223 0.2
227 12.1
228 4
239 3.3
241 0.31
253 2
270 8.1
271 2

>  <PREDICTED SPECTRUM>  (5083) 
4 2
15 66
17 37
18 68
27 94
28 43
29 90
31 3
39 48
40 47
41 250
42 88
43 193
44 49
45 41
52 29
53 126
54 107
55 568
56 283
57 532
58 67
59 286
60 81
65 17
67 188
68 127
69 454
70 182
71 334
72 4
73 226
74 999
75 508
76 92
77 36
79 77
80 51
81 200
82 118
83 377
84 181
85 220
87 929
88 268
89 45
93 84
94 10
95 183
96 125
97 319
98 147
99 70
101 426
102 170
103 13
107 101
108 55
109 146
110 88
111 254
112 96
113 107
115 301
116 163
117 20
121 105
123 62
124 37
125 179
126 45
129 262
130 117
131 28
135 113
136 5
137 25
138 77
139 96
140 17
141 16
143 598
144 140
149 8
151 17
152 46
153 88
154 43
157 199
158 60
163 78
165 51
166 12
167 60
168 10
171 285
172 94
173 10
177 11
181 4
185 214
186 74
194 57
195 91
196 16
199 228
200 58
205 52
207 7
213 211
214 102
215 16
221 55
222 73
223 71
227 426
228 182
229 29
239 161
240 35
241 114
242 8
255 92
270 546
271 241
272 25

$$$$

     RDKit          2D

 18 17  0  0  0  0  0  0  0  0999 V2000
    5.5209    7.6875    0.0000 C   0  0  0  0  0  0  0  0  0  0  0  0
    4.2219    9.9375    0.0000 C   0  0  0  0  0  0  0  0  0  0  0  0
  -13.9647    8.4375    0.0000 C   0  0  0  0  0  0  0  0  0  0  0  0
   -3.5724    8.4375    0.0000 C   0  0  0  0  0  0  0  0  0  0  0  0
   -2.2733    7.6875    0.0000 C   0  0  0  0  0  0  0  0  0  0  0  0
   -4.8714    7.6875    0.0000 C   0  0  0  0  0  0  0  0  0  0  0  0
   -0.9743    8.4375    0.0000 C   0  0  0  0  0  0  0  0  0  0  0  0
   -6.1704    8.4375    0.0000 C   0  0  0  0  0  0  0  0  0  0  0  0
    0.3248    7.6875    0.0000 C   0  0  0  0  0  0  0  0  0  0  0  0
   -7.4695    7.6875    0.0000 C   0  0  0  0  0  0  0  0  0  0  0  0
    1.6238    8.4375    0.0000 C   0  0  0  0  0  0  0  0  0  0  0  0
   -8.7685    8.4375    0.0000 C   0  0  0  0  0  0  0  0  0  0  0  0
    2.9228    7.6875    0.0000 C   0  0  0  0  0  0  0  0  0  0  0  0
  -10.0675    7.6875    0.0000 C   0  0  0  0  0  0  0  0  0  0  0  0
    4.2219    8.4375    0.0000 C   0  0  0  0  0  0  0  0  0  0  0  0
  -11.3666    8.4375    0.0000 C   0  0  0  0  0  0  0  0  0  0  0  0
  -11.3666    9.9375    0.0000 O   0  0  0  0  0  0  0  0  0  0  0  0
  -12.6656    7.6875    0.0000 O   0  0  0  0  0  0  0  0  0  0  0  0
  5  4  1  0
  6  4  1  0
  7  5  1  0
  8  6  1  0
  9  7  1  0
 10  8  1  0
 11  9  1  0
 12 10  1  0
 13 11  1  0
 14 12  1  0
 15  1  1  0
 15  2  1  0
 15 13  1  0
 16 14  1  0
 17 16  2  0
 18  3  1  0
 18 16  1  0
M  END
>  <NAME>  (5084) 
13-METHYLTETRADECANOIC ACID METHYL ESTER

>  <SYNONYMS>  (5084) 


>  <SPECTRUM TYPE>  (5084) 
MS1

>  <INSTRUMENT TYPE>  (5084) 
EI-B

>  <INSTRUMENT>  (5084) 
JEOL JMS-01-SG

>  <ION MODE>  (5084) 
P

>  <INCHIKEY>  (5084) 
OGGUSDOXMVVCIX-UHFFFAOYSA-N

>  <FORMULA>  (5084) 
C16H32O2

>  <EXACT MASS>  (5084) 
256.240230264

>  <MW>  (5084) 
256

>  <ID>  (5084) 
JP002165

>  <CONTRIBUTOR>  (5084) 
University of Tokyo Team, {Faculty of Engineering, University of Tokyo

>  <COMMENT>  (5084) 
SMILES=COC(=O)CCCCCCCCCCCC(C)C
InChI=InChI=1S/C16H32O2/c1-15(2)13-11-9-7-5-4-6-8-10-12-14-16(17)18-3/h15H,4-14H2,1-3H3
computed SMILES=O=C(OC)CCCCCCCCCCCC(C)C
accession=JP002165
date=2016.01.19 (Created 2008.10.21, modified 2011.05.06)
author=KOGA M, UNIV. OF OCCUPATIONAL AND ENVIRONMENTAL HEALTH
license=CC BY-NC-SA
exact mass=256.24023
ionization energy=70 eV
ion type=[M]+*
computed spectral entropy=2.557522589218612
computed normalized entropy=0.7030823400237991
SPLASH=splash10-00dr-9100000000-bc9efe344475c8bedff2
submitter=submitter = University of Tokyo Team (Faculty of Engineering, University of Tokyo)
MoNA Rating=3.75

>  <NUM PEAKS>  (5084) 
38

>  <MASS SPECTRAL PEAKS>  (5084) 
43 1.3
44 1.3
55 20
56 0.4
57 12.4
59 4.8
65 1.3
67 0.35
69 14
70 1.6
71 2.7
74 99.99
75 12.7
81 3.5
83 8.6
84 0.24
87 52.1
88 5.1
95 1.6
97 0.64
101 7
102 1.6
107 1.8
111 0.37
125 1.6
129 4.5
143 14.5
144 0.24
157 5.6
171 2.9
185 2.7
199 0.45
213 11.3
214 1.8
225 1.8
227 0.18
256 5.4
257 1.3

>  <PREDICTED SPECTRUM>  (5084) 
4 2
15 64
17 37
18 65
27 91
28 44
29 79
32 1
39 59
40 39
41 263
42 94
43 203
44 60
45 50
52 28
53 130
54 110
55 556
56 266
57 496
58 59
59 289
60 109
65 19
67 174
68 111
69 437
70 166
71 305
73 221
74 999
75 483
76 90
77 48
79 83
80 36
81 187
82 113
83 368
84 175
85 193
87 932
88 252
89 22
93 74
94 17
95 177
96 115
97 304
98 131
99 119
101 432
102 187
103 56
107 98
108 39
109 130
110 75
111 257
112 86
113 32
115 214
116 103
121 127
122 21
123 45
124 71
125 157
126 46
127 4
129 251
130 99
135 31
137 44
138 48
139 105
140 52
141 23
143 581
144 145
149 66
151 50
152 25
153 75
154 12
157 273
158 86
159 11
162 6
163 19
167 15
171 217
172 70
177 0
180 67
181 87
185 149
186 72
191 64
199 255
200 67
201 44
207 85
208 78
209 61
213 435
214 174
215 27
225 150
226 28
227 112
228 6
241 81
256 495
257 211
258 80
259 13

$$$$

     RDKit          2D

 17 16  0  0  0  0  0  0  0  0999 V2000
    4.8714    7.3125    0.0000 C   0  0  0  0  0  0  0  0  0  0  0  0
    3.5724    9.5625    0.0000 C   0  0  0  0  0  0  0  0  0  0  0  0
  -13.3151    7.3125    0.0000 C   0  0  0  0  0  0  0  0  0  0  0  0
   -2.9228    7.3125    0.0000 C   0  0  0  0  0  0  0  0  0  0  0  0
   -4.2219    8.0625    0.0000 C   0  0  0  0  0  0  0  0  0  0  0  0
   -1.6238    8.0625    0.0000 C   0  0  0  0  0  0  0  0  0  0  0  0
   -5.5209    7.3125    0.0000 C   0  0  0  0  0  0  0  0  0  0  0  0
   -0.3248    7.3125    0.0000 C   0  0  0  0  0  0  0  0  0  0  0  0
   -6.8200    8.0625    0.0000 C   0  0  0  0  0  0  0  0  0  0  0  0
    0.9743    8.0625    0.0000 C   0  0  0  0  0  0  0  0  0  0  0  0
   -8.1190    7.3125    0.0000 C   0  0  0  0  0  0  0  0  0  0  0  0
    2.2733    7.3125    0.0000 C   0  0  0  0  0  0  0  0  0  0  0  0
   -9.4180    8.0625    0.0000 C   0  0  0  0  0  0  0  0  0  0  0  0
    3.5724    8.0625    0.0000 C   0  0  0  0  0  0  0  0  0  0  0  0
  -10.7171    7.3125    0.0000 C   0  0  0  0  0  0  0  0  0  0  0  0
  -10.7171    5.8125    0.0000 O   0  0  0  0  0  0  0  0  0  0  0  0
  -12.0161    8.0625    0.0000 O   0  0  0  0  0  0  0  0  0  0  0  0
  5  4  1  0
  6  4  1  0
  7  5  1  0
  8  6  1  0
  9  7  1  0
 10  8  1  0
 11  9  1  0
 12 10  1  0
 13 11  1  0
 14  1  1  0
 14  2  1  0
 14 12  1  0
 15 13  1  0
 16 15  2  0
 17  3  1  0
 17 15  1  0
M  END
>  <NAME>  (5085) 
12-METHYLTRIDECANOIC ACID METHYL ESTER

>  <SYNONYMS>  (5085) 


>  <SPECTRUM TYPE>  (5085) 
MS1

>  <INSTRUMENT TYPE>  (5085) 
EI-B

>  <INSTRUMENT>  (5085) 
JEOL JMS-01-SG

>  <ION MODE>  (5085) 
P

>  <INCHIKEY>  (5085) 
FLESKWMKPOBWDE-UHFFFAOYSA-N

>  <FORMULA>  (5085) 
C15H30O2

>  <EXACT MASS>  (5085) 
242.2245802

>  <MW>  (5085) 
242

>  <ID>  (5085) 
JP002164

>  <CONTRIBUTOR>  (5085) 
University of Tokyo Team, {Faculty of Engineering, University of Tokyo

>  <COMMENT>  (5085) 
SMILES=COC(=O)CCCCCCCCCCC(C)C
InChI=InChI=1S/C15H30O2/c1-14(2)12-10-8-6-4-5-7-9-11-13-15(16)17-3/h14H,4-13H2,1-3H3
computed SMILES=O=C(OC)CCCCCCCCCCC(C)C
accession=JP002164
date=2016.01.19 (Created 2008.10.21, modified 2011.05.06)
author=KOGA M, UNIV. OF OCCUPATIONAL AND ENVIRONMENTAL HEALTH
license=CC BY-NC-SA
exact mass=242.22458
ionization energy=70 eV
ion type=[M]+*
computed spectral entropy=2.8388690124402975
computed normalized entropy=0.7414820868424947
SPLASH=splash10-00di-9200000000-966db9aaa54d6cbabdf9
submitter=submitter = University of Tokyo Team (Faculty of Engineering, University of Tokyo)
MoNA Rating=3.75

>  <NUM PEAKS>  (5085) 
46

>  <MASS SPECTRAL PEAKS>  (5085) 
43 3.4
55 26.2
56 7.3
57 1.5
59 3
67 3
69 13.1
70 0.46
71 2.3
74 99.99
75 16.6
81 0.38
83 9.2
84 3
85 2.3
87 6.98
88 8.1
92 3.4
95 3.4
97 1.11
98 1.9
99 2.7
101 9.2
109 0.19
111 4.6
113 1.5
115 3.8
125 0.19
126 1.9
129 6.1
130 3.4
138 0.15
143 15.8
144 3
154 1.9
157 0.42
159 2.3
166 1.9
185 1.5
199 2.2
200 4.2
202 1.9
211 2.3
212 0.15
242 7.3
243 1.9

>  <PREDICTED SPECTRUM>  (5085) 
15 37
17 33
18 64
27 96
28 39
29 83
31 0
32 6
39 70
40 50
41 275
42 103
43 207
44 69
45 59
51 0
52 27
53 124
54 103
55 545
56 255
57 460
58 37
59 288
60 118
62 12
65 27
67 162
68 114
69 426
70 157
71 277
73 260
74 999
75 455
76 58
77 44
79 80
80 39
81 180
82 94
83 357
84 171
85 201
86 5
87 936
88 267
89 80
93 63
94 3
95 160
96 106
97 294
98 106
99 43
101 342
102 125
103 30
107 122
108 81
109 115
110 107
111 238
112 93
113 47
115 214
116 86
121 56
123 60
124 48
125 148
126 72
127 11
129 236
130 98
135 93
137 71
138 26
139 86
140 17
141 7
143 595
144 164
145 16
149 33
153 45
157 228
158 63
159 11
166 46
167 88
168 3
171 150
172 65
177 80
185 206
186 97
187 40
193 80
194 52
195 81
199 421
200 107
201 56
211 104
212 36
213 111
214 8
227 80
242 447
243 224
244 60
245 6

$$$$

     RDKit          2D

 16 15  0  0  0  0  0  0  0  0999 V2000
    4.8714    6.5625    0.0000 C   0  0  0  0  0  0  0  0  0  0  0  0
    3.5724    8.8125    0.0000 C   0  0  0  0  0  0  0  0  0  0  0  0
  -12.0161    7.3125    0.0000 C   0  0  0  0  0  0  0  0  0  0  0  0
   -2.9228    6.5625    0.0000 C   0  0  0  0  0  0  0  0  0  0  0  0
   -1.6238    7.3125    0.0000 C   0  0  0  0  0  0  0  0  0  0  0  0
   -4.2219    7.3125    0.0000 C   0  0  0  0  0  0  0  0  0  0  0  0
   -0.3248    6.5625    0.0000 C   0  0  0  0  0  0  0  0  0  0  0  0
   -5.5209    6.5625    0.0000 C   0  0  0  0  0  0  0  0  0  0  0  0
    0.9743    7.3125    0.0000 C   0  0  0  0  0  0  0  0  0  0  0  0
   -6.8200    7.3125    0.0000 C   0  0  0  0  0  0  0  0  0  0  0  0
    2.2733    6.5625    0.0000 C   0  0  0  0  0  0  0  0  0  0  0  0
   -8.1190    6.5625    0.0000 C   0  0  0  0  0  0  0  0  0  0  0  0
    3.5724    7.3125    0.0000 C   0  0  0  0  0  0  0  0  0  0  0  0
   -9.4180    7.3125    0.0000 C   0  0  0  0  0  0  0  0  0  0  0  0
   -9.4180    8.8125    0.0000 O   0  0  0  0  0  0  0  0  0  0  0  0
  -10.7171    6.5625    0.0000 O   0  0  0  0  0  0  0  0  0  0  0  0
  5  4  1  0
  6  4  1  0
  7  5  1  0
  8  6  1  0
  9  7  1  0
 10  8  1  0
 11  9  1  0
 12 10  1  0
 13  1  1  0
 13  2  1  0
 13 11  1  0
 14 12  1  0
 15 14  2  0
 16  3  1  0
 16 14  1  0
M  END
>  <NAME>  (5086) 
11-METHYLDODECANOIC ACID METHYL ESTER

>  <SYNONYMS>  (5086) 


>  <SPECTRUM TYPE>  (5086) 
MS1

>  <INSTRUMENT TYPE>  (5086) 
EI-B

>  <INSTRUMENT>  (5086) 
JEOL JMS-01-SG

>  <ION MODE>  (5086) 
P

>  <INCHIKEY>  (5086) 
GSRXTORWPQDOOY-UHFFFAOYSA-N

>  <FORMULA>  (5086) 
C14H28O2

>  <EXACT MASS>  (5086) 
228.208930136

>  <MW>  (5086) 
228

>  <ID>  (5086) 
JP002163

>  <CONTRIBUTOR>  (5086) 
University of Tokyo Team, {Faculty of Engineering, University of Tokyo

>  <COMMENT>  (5086) 
SMILES=COC(=O)CCCCCCCCCC(C)C
InChI=InChI=1S/C14H28O2/c1-13(2)11-9-7-5-4-6-8-10-12-14(15)16-3/h13H,4-12H2,1-3H3
computed SMILES=O=C(OC)CCCCCCCCCC(C)C
accession=JP002163
date=2016.01.19 (Created 2008.10.21, modified 2011.05.06)
author=KOGA M, UNIV. OF OCCUPATIONAL AND ENVIRONMENTAL HEALTH
license=CC BY-NC-SA
exact mass=228.20893
ionization energy=70 eV
ion type=[M]+*
computed spectral entropy=2.5654528321702337
computed normalized entropy=0.7159032437751005
SPLASH=splash10-00di-9100000000-dd95718648ff6c0211f0
submitter=submitter = University of Tokyo Team (Faculty of Engineering, University of Tokyo)
MoNA Rating=3.75

>  <NUM PEAKS>  (5086) 
36

>  <MASS SPECTRAL PEAKS>  (5086) 
44 4.4
55 21.5
56 4.7
57 1.15
67 2.9
69 10.6
71 4.1
74 99.99
75 14.4
77 2.9
79 2.3
81 0.32
83 8.2
84 2
85 3.2
87 5.41
88 5
95 2.9
97 8.8
98 0.2
101 5
109 1.7
111 1.7
115 0.32
129 5.9
130 2.3
138 1.7
143 1.39
144 2.9
157 1.7
168 3.2
185 1.68
197 2
199 2
228 7.1
229 1.7

>  <PREDICTED SPECTRUM>  (5086) 
15 33
17 36
18 61
27 79
28 28
29 88
31 11
32 11
39 77
40 41
41 286
42 115
43 211
44 48
45 61
51 4
52 20
53 122
54 110
55 537
56 242
57 423
58 32
59 300
60 123
65 27
67 155
68 109
69 412
70 161
71 268
73 290
74 999
75 449
76 70
77 25
79 62
80 29
81 173
82 88
83 351
84 156
85 162
86 15
87 929
88 203
89 44
93 84
94 18
95 151
96 115
97 275
98 114
99 61
101 338
102 115
107 56
109 118
110 81
111 237
112 119
113 52
115 203
116 78
121 102
122 9
123 73
124 25
125 113
126 32
127 8
129 328
130 122
131 24
134 21
135 51
137 3
139 57
143 558
144 134
145 19
149 14
152 47
153 100
154 1
157 169
158 55
163 65
171 218
172 92
173 56
179 170
180 64
181 75
185 482
186 188
187 51
197 158
198 32
199 188
200 24
213 81
228 404
229 176
230 55

$$$$

     RDKit          2D

 15 14  0  0  0  0  0  0  0  0999 V2000
  -10.7171    7.3125    0.0000 C   0  0  0  0  0  0  0  0  0  0  0  0
   -9.4180    5.0625    0.0000 C   0  0  0  0  0  0  0  0  0  0  0  0
    4.8714    7.3125    0.0000 C   0  0  0  0  0  0  0  0  0  0  0  0
   -4.2219    6.5625    0.0000 C   0  0  0  0  0  0  0  0  0  0  0  0
   -2.9228    7.3125    0.0000 C   0  0  0  0  0  0  0  0  0  0  0  0
   -5.5209    7.3125    0.0000 C   0  0  0  0  0  0  0  0  0  0  0  0
   -1.6238    6.5625    0.0000 C   0  0  0  0  0  0  0  0  0  0  0  0
   -6.8200    6.5625    0.0000 C   0  0  0  0  0  0  0  0  0  0  0  0
   -0.3248    7.3125    0.0000 C   0  0  0  0  0  0  0  0  0  0  0  0
   -8.1190    7.3125    0.0000 C   0  0  0  0  0  0  0  0  0  0  0  0
    0.9743    6.5625    0.0000 C   0  0  0  0  0  0  0  0  0  0  0  0
   -9.4180    6.5625    0.0000 C   0  0  0  0  0  0  0  0  0  0  0  0
    2.2733    7.3125    0.0000 C   0  0  0  0  0  0  0  0  0  0  0  0
    2.2733    8.8125    0.0000 O   0  0  0  0  0  0  0  0  0  0  0  0
    3.5724    6.5625    0.0000 O   0  0  0  0  0  0  0  0  0  0  0  0
  5  4  1  0
  6  4  1  0
  7  5  1  0
  8  6  1  0
  9  7  1  0
 10  8  1  0
 11  9  1  0
 12  1  1  0
 12  2  1  0
 12 10  1  0
 13 11  1  0
 14 13  2  0
 15  3  1  0
 15 13  1  0
M  END
>  <NAME>  (5087) 
10-METHYLUNDECANOIC ACID METHYL ESTER

>  <SYNONYMS>  (5087) 


>  <SPECTRUM TYPE>  (5087) 
MS1

>  <INSTRUMENT TYPE>  (5087) 
EI-B

>  <INSTRUMENT>  (5087) 
JEOL JMS-01-SG

>  <ION MODE>  (5087) 
P

>  <INCHIKEY>  (5087) 
XPVCTJYIICVJOE-UHFFFAOYSA-N

>  <FORMULA>  (5087) 
C13H26O2

>  <EXACT MASS>  (5087) 
214.193280072

>  <MW>  (5087) 
214

>  <ID>  (5087) 
JP002162

>  <CONTRIBUTOR>  (5087) 
University of Tokyo Team, {Faculty of Engineering, University of Tokyo

>  <COMMENT>  (5087) 
SMILES=COC(=O)CCCCCCCCC(C)C
InChI=InChI=1S/C13H26O2/c1-12(2)10-8-6-4-5-7-9-11-13(14)15-3/h12H,4-11H2,1-3H3
computed SMILES=O=C(OC)CCCCCCCCC(C)C
accession=JP002162
date=2016.01.19 (Created 2008.10.21, modified 2011.05.06)
author=KOGA M, UNIV. OF OCCUPATIONAL AND ENVIRONMENTAL HEALTH
license=CC BY-NC-SA
exact mass=214.19328
ionization energy=70 eV
ion type=[M]+*
computed spectral entropy=2.933209274934623
computed normalized entropy=0.7254939600371785
SPLASH=splash10-00di-9100000000-5ab7730312b911d41002
submitter=submitter = University of Tokyo Team (Faculty of Engineering, University of Tokyo)
MoNA Rating=3.75

>  <NUM PEAKS>  (5087) 
57

>  <MASS SPECTRAL PEAKS>  (5087) 
43 3.4
51 1.1
53 1.5
54 0.11
55 23.3
56 7.2
57 19.1
59 0.42
60 3
61 2.6
62 1.1
63 0.15
67 2.6
68 1.1
69 24.1
70 0.22
71 4.9
72 1.1
74 99.99
75 1.32
79 1.9
80 1.9
81 4.2
82 0.19
83 10.7
84 4.5
85 2.6
86 0.34
87 51.7
88 6.5
93 1.5
95 0.34
97 6.8
98 5.3
99 2.2
101 0.53
104 4.2
109 4.2
111 1.5
112 0.15
114 1.5
115 3.4
117 1.9
126 0.19
129 6.1
130 3
143 13
144 0.26
155 3
157 2.2
171 13.4
173 0.38
183 4.2
199 2.2
207 2.2
214 0.61
215 1.9

>  <PREDICTED SPECTRUM>  (5087) 
15 42
17 39
18 60
27 95
28 35
29 97
31 10
32 17
39 90
40 49
41 300
42 128
43 198
44 45
45 78
51 7
52 16
53 122
54 108
55 531
56 239
57 405
58 48
59 311
60 169
61 78
62 5
65 8
67 147
68 114
69 406
70 157
71 235
72 4
73 193
74 999
75 426
76 53
77 39
79 78
80 35
81 172
82 100
83 340
84 157
85 168
86 18
87 926
88 192
93 35
95 143
96 102
97 268
98 137
99 54
101 316
102 99
103 11
107 94
108 70
109 128
110 53
111 207
112 86
113 56
114 20
115 299
116 105
117 20
119 0
120 9
121 60
123 19
124 0
125 81
129 268
130 89
131 25
135 11
138 41
139 120
140 7
141 16
143 503
144 119
149 57
157 224
158 83
159 52
165 148
166 46
167 66
171 489
172 187
173 65
183 189
184 41
185 104
199 162
200 2
214 354
215 141
216 27

$$$$

     RDKit          2D

 13 12  0  0  0  0  0  0  0  0999 V2000
   -9.7428    5.6250    0.0000 C   0  0  0  0  0  0  0  0  0  0  0  0
   -3.2476    3.3750    0.0000 C   0  0  0  0  0  0  0  0  0  0  0  0
    3.2476    5.6250    0.0000 C   0  0  0  0  0  0  0  0  0  0  0  0
   -8.4437    4.8750    0.0000 C   0  0  0  0  0  0  0  0  0  0  0  0
   -7.1447    5.6250    0.0000 C   0  0  0  0  0  0  0  0  0  0  0  0
   -5.8457    4.8750    0.0000 C   0  0  0  0  0  0  0  0  0  0  0  0
   -4.5466    5.6250    0.0000 C   0  0  0  0  0  0  0  0  0  0  0  0
   -1.9486    5.6250    0.0000 C   0  0  0  0  0  0  0  0  0  0  0  0
   -0.6495    4.8750    0.0000 C   0  0  0  0  0  0  0  0  0  0  0  0
   -3.2476    4.8750    0.0000 C   0  0  0  0  0  0  0  0  0  0  0  0
    0.6495    5.6250    0.0000 C   0  0  0  0  0  0  0  0  0  0  0  0
    0.6495    7.1250    0.0000 O   0  0  0  0  0  0  0  0  0  0  0  0
    1.9486    4.8750    0.0000 O   0  0  0  0  0  0  0  0  0  0  0  0
  4  1  1  0
  5  4  1  0
  6  5  1  0
  7  6  1  0
  9  8  1  0
 10  2  1  0
 10  7  1  0
 10  8  1  0
 11  9  1  0
 12 11  2  0
 13  3  1  0
 13 11  1  0
M  END
>  <NAME>  (5088) 
4-METHYLNONANOIC ACID METHYL ESTER

>  <SYNONYMS>  (5088) 


>  <SPECTRUM TYPE>  (5088) 
MS1

>  <INSTRUMENT TYPE>  (5088) 
EI-B

>  <INSTRUMENT>  (5088) 
JEOL JMS-01-SG

>  <ION MODE>  (5088) 
P

>  <INCHIKEY>  (5088) 
GXZVGQNXKJXNBV-UHFFFAOYSA-N

>  <FORMULA>  (5088) 
C11H22O2

>  <EXACT MASS>  (5088) 
186.161979944

>  <MW>  (5088) 
186

>  <ID>  (5088) 
JP002161

>  <CONTRIBUTOR>  (5088) 
University of Tokyo Team, {Faculty of Engineering, University of Tokyo

>  <COMMENT>  (5088) 
SMILES=CCCCCC(C)CCC(=O)OC
InChI=InChI=1S/C11H22O2/c1-4-5-6-7-10(2)8-9-11(12)13-3/h10H,4-9H2,1-3H3
computed SMILES=O=C(OC)CCC(C)CCCCC
accession=JP002161
date=2016.01.19 (Created 2008.10.21, modified 2011.05.06)
author=KOGA M, UNIV. OF OCCUPATIONAL AND ENVIRONMENTAL HEALTH
license=CC BY-NC-SA
exact mass=186.16198
ionization energy=70 eV
ion type=[M]+*
computed spectral entropy=2.733645331699393
computed normalized entropy=0.7061491573278667
SPLASH=splash10-000i-9300000000-53ce2f1571d2f336bb11
submitter=submitter = University of Tokyo Team (Faculty of Engineering, University of Tokyo)
MoNA Rating=3.75

>  <NUM PEAKS>  (5088) 
48

>  <MASS SPECTRAL PEAKS>  (5088) 
41 1.3
43 2.3
44 3.7
53 0.23
54 2.5
55 34
56 7.6
57 1.59
67 4.6
68 1.8
69 26.6
70 0.3
71 5.7
73 3.4
74 6.4
75 1.55
79 1.3
81 9.2
82 2.3
83 1.01
84 4.1
85 1.3
87 99.99
88 0.78
93 1.3
95 5.3
97 8.5
98 0.23
101 11.3
103 1.3
111 4.1
112 0.16
115 1.6
121 2.5
126 1.1
129 0.53
130 1.1
136 1.1
137 3.4
138 0.13
139 3.4
143 42.3
144 5
145 0.18
154 1.1
155 6.4
157 3
186 0.6

>  <PREDICTED SPECTRUM>  (5088) 
15 76
17 15
18 37
26 2
27 161
28 74
29 207
31 61
32 27
39 190
40 79
41 433
42 180
43 392
44 84
45 84
53 109
54 78
55 563
56 252
57 391
58 41
59 254
67 119
68 80
69 421
70 152
71 167
73 164
74 858
75 264
79 18
81 151
82 96
83 348
84 102
85 135
87 999
88 136
95 147
96 7
97 281
98 10
100 6
101 304
102 82
107 38
110 111
111 229
112 97
113 219
114 24
115 195
116 199
121 74
125 9
129 311
130 31
131 4
137 153
138 53
139 56
143 348
144 117
155 238
157 123
158 15
171 12
186 130
187 38

$$$$

     RDKit          2D

 14 15  0  0  0  0  0  0  0  0999 V2000
    2.4790    4.9800    0.0000 C   0  0  0  0  0  0  0  0  0  0  0  0
   -2.7200   -1.0200    0.0000 C   0  0  0  0  0  0  0  0  0  0  0  0
   -2.7200    0.4800    0.0000 C   0  0  0  0  0  0  0  0  0  0  0  0
    2.4800   -1.0200    0.0000 C   0  0  0  0  0  0  0  0  0  0  0  0
   -1.4200   -1.7700    0.0000 C   0  0  0  0  0  0  0  0  0  0  0  0
    1.1800   -1.7700    0.0000 C   0  0  0  0  0  0  0  0  0  0  0  0
   -1.4200    1.2300    0.0000 C   0  0  0  0  0  0  0  0  0  0  0  0
    2.4800    0.4800    0.0000 C   0  0  0  0  0  0  0  0  0  0  0  0
   -0.1200   -1.0200    0.0000 C   0  0  0  0  0  0  0  0  0  0  0  0
   -0.1200    0.4800    0.0000 C   0  0  0  0  0  0  0  0  0  0  0  0
    1.1800    1.2300    0.0000 C   0  0  0  0  0  0  0  0  0  0  0  0
    1.1800    2.7300    0.0000 C   0  0  0  0  0  0  0  0  0  0  0  0
   -0.1190    3.4800    0.0000 O   0  0  0  0  0  0  0  0  0  0  0  0
    2.4790    3.4800    0.0000 O   0  0  0  0  0  0  0  0  0  0  0  0
  3  2  2  0
  5  2  1  0
  6  4  2  0
  7  3  1  0
  8  4  1  0
  9  5  2  0
  9  6  1  0
 10  7  2  0
 10  9  1  0
 11  8  2  0
 11 10  1  0
 12 11  1  0
 13 12  2  0
 14  1  1  0
 14 12  1  0
M  END
>  <NAME>  (5089) 
1-NAPHTHOIC ACID METHYL ESTER

>  <SYNONYMS>  (5089) 


>  <SPECTRUM TYPE>  (5089) 
MS1

>  <INSTRUMENT TYPE>  (5089) 
EI-B

>  <INSTRUMENT>  (5089) 
JEOL JMS-01-SG

>  <ION MODE>  (5089) 
P

>  <INCHIKEY>  (5089) 
HMRROBKAACRWBP-UHFFFAOYSA-N

>  <FORMULA>  (5089) 
C12H10O2

>  <EXACT MASS>  (5089) 
186.06807956

>  <MW>  (5089) 
186

>  <ID>  (5089) 
JP002160

>  <CONTRIBUTOR>  (5089) 
University of Tokyo Team, {Faculty of Engineering, University of Tokyo

>  <COMMENT>  (5089) 
SMILES=COC(=O)c(c1)c(c2)c(ccc2)cc1
InChI=InChI=1S/C12H10O2/c1-14-12(13)11-8-4-6-9-5-2-3-7-10(9)11/h2-8H,1H3
computed SMILES=O=C(OC)C1=CC=CC=2C=CC=CC21
accession=JP002160
date=2016.01.19 (Created 2008.10.21, modified 2011.05.06)
author=KOGA M, UNIV. OF OCCUPATIONAL AND ENVIRONMENTAL HEALTH
license=CC BY-NC-SA
exact mass=186.06808
ionization energy=70 eV
ion type=[M]+*
computed spectral entropy=2.332019334840833
computed normalized entropy=0.6507623860488201
SPLASH=splash10-004r-2900000000-bb31de6b26f38e0185ef
submitter=submitter = University of Tokyo Team (Faculty of Engineering, University of Tokyo)
MoNA Rating=3.75

>  <NUM PEAKS>  (5089) 
36

>  <MASS SPECTRAL PEAKS>  (5089) 
44 2.8
50 1.3
51 7.5
61 0.13
62 1.6
63 12.2
64 11.9
71 0.11
74 4.3
75 7.5
76 3.5
77 1.32
78 1.3
86 1.3
87 2.3
88 0.13
100 1.3
101 6.2
114 1.3
115 0.21
125 1.3
126 15.9
127 99.99
128 1.38
129 1.5
141 2.8
154 1.8
155 3.97
156 16.6
157 1.8
168 1.8
171 0.11
185 1.1
186 76.7
187 9.9
188 1.3

>  <PREDICTED SPECTRUM>  (5089) 
14 17
15 107
16 3
26 2
28 28
29 9
31 17
37 4
38 71
39 116
40 26
41 52
43 3
44 21
49 41
50 190
51 253
52 57
53 47
56 26
57 15
59 199
61 41
62 165
63 319
64 147
69 35
70 40
71 10
74 234
75 263
76 228
77 357
78 53
84 20
86 86
87 110
88 126
89 55
97 19
98 59
99 142
100 98
101 274
113 36
114 20
115 162
116 23
125 162
126 494
127 876
128 389
129 85
140 11
141 54
153 88
154 108
155 999
156 349
157 36
170 6
171 135
172 4
186 819
187 316
188 76

$$$$

     RDKit          2D

 15 15  0  0  0  0  0  0  0  0999 V2000
    5.8714   -2.6397    0.0000 C   0  0  0  0  0  0  0  0  0  0  0  0
   -7.1322    0.3449    0.0000 C   0  0  0  0  0  0  0  0  0  0  0  0
    4.5662   -1.9004    0.0000 C   0  0  0  0  0  0  0  0  0  0  0  0
    3.2734   -2.6611    0.0000 C   0  0  0  0  0  0  0  0  0  0  0  0
   -1.9398    0.3257    0.0000 C   0  0  0  0  0  0  0  0  0  0  0  0
   -3.2534   -1.8991    0.0000 C   0  0  0  0  0  0  0  0  0  0  0  0
   -0.6553   -0.3991    0.0000 C   0  0  0  0  0  0  0  0  0  0  0  0
   -1.9288   -2.6933    0.0000 C   0  0  0  0  0  0  0  0  0  0  0  0
    1.9682   -1.9218    0.0000 C   0  0  0  0  0  0  0  0  0  0  0  0
   -3.2388   -0.4243    0.0000 C   0  0  0  0  0  0  0  0  0  0  0  0
   -0.6298   -1.9433    0.0000 C   0  0  0  0  0  0  0  0  0  0  0  0
   -4.5342    0.3321    0.0000 C   0  0  0  0  0  0  0  0  0  0  0  0
   -4.5268    1.8321    0.0000 O   0  0  0  0  0  0  0  0  0  0  0  0
   -5.8369   -0.4115    0.0000 O   0  0  0  0  0  0  0  0  0  0  0  0
    0.6754   -2.6825    0.0000 O   0  0  0  0  0  0  0  0  0  0  0  0
  3  1  1  0
  4  3  1  0
  7  5  2  0
  8  6  1  0
  9  4  1  0
 10  5  1  0
 10  6  2  0
 11  7  1  0
 11  8  2  0
 12 10  1  0
 13 12  2  0
 14  2  1  0
 14 12  1  0
 15  9  1  0
 15 11  1  0
M  END
>  <NAME>  (5090) 
4-BUTOXYBENZOIC ACID METHYL ESTER

>  <SYNONYMS>  (5090) 


>  <SPECTRUM TYPE>  (5090) 
MS1

>  <INSTRUMENT TYPE>  (5090) 
EI-B

>  <INSTRUMENT>  (5090) 
JEOL JMS-01-SG

>  <ION MODE>  (5090) 
P

>  <INCHIKEY>  (5090) 
PUHCYTHGLBCWEA-UHFFFAOYSA-N

>  <FORMULA>  (5090) 
C12H16O3

>  <EXACT MASS>  (5090) 
208.109944372

>  <MW>  (5090) 
208

>  <ID>  (5090) 
JP002159

>  <CONTRIBUTOR>  (5090) 
University of Tokyo Team, {Faculty of Engineering, University of Tokyo

>  <COMMENT>  (5090) 
SMILES=CCCCOc(c1)ccc(c1)C(=O)OC
InChI=InChI=1S/C12H16O3/c1-3-4-9-15-11-7-5-10(6-8-11)12(13)14-2/h5-8H,3-4,9H2,1-2H3
computed SMILES=O=C(OC)C1=CC=C(OCCCC)C=C1
accession=JP002159
date=2016.01.19 (Created 2008.10.21, modified 2011.05.06)
author=KOGA M, UNIV. OF OCCUPATIONAL AND ENVIRONMENTAL HEALTH
license=CC BY-NC-SA
exact mass=208.10994
ionization energy=70 eV
ion type=[M]+*
computed spectral entropy=2.473203575547348
computed normalized entropy=0.645974203229193
SPLASH=splash10-0fk9-2900000000-e801d65bf9c649a513fe
submitter=submitter = University of Tokyo Team (Faculty of Engineering, University of Tokyo)
MoNA Rating=3.75

>  <NUM PEAKS>  (5090) 
46

>  <MASS SPECTRAL PEAKS>  (5090) 
45 1.5
50 4.8
51 2.7
53 0.15
55 3.3
56 3.9
57 9
63 0.42
64 4.8
65 14.1
66 1.5
67 0.24
70 2.1
75 1.5
76 4.2
77 0.12
79 1.2
82 1.2
91 2.7
92 0.72
93 15
94 1.5
95 1.5
103 0.27
107 2.1
109 1.5
115 1.5
119 0.15
120 4.2
121 96.9
122 16.2
123 0.3
124 1.2
135 1.8
136 1.5
141 0.15
147 1.2
150 1.2
151 7.8
152 99.99
153 9.3
165 1.8
177 8.7
208 3.49
209 4.2
210 1.5

>  <PREDICTED SPECTRUM>  (5090) 
15 25
18 5
26 28
27 143
28 51
29 264
30 47
31 43
37 40
38 84
39 247
40 52
41 345
42 29
43 76
44 8
49 1
50 153
51 122
52 82
53 159
54 53
55 203
56 176
57 245
59 142
61 59
62 122
63 238
64 191
65 301
66 102
67 76
74 93
75 99
76 216
77 142
78 44
79 90
80 51
81 78
82 41
88 21
89 40
90 25
91 166
92 233
93 321
94 103
95 97
96 45
103 156
104 152
105 130
106 24
107 87
108 65
109 124
110 28
111 17
112 35
118 50
119 195
120 223
121 999
122 269
123 141
124 35
125 4
133 106
134 9
135 50
136 28
137 25
138 12
139 9
147 20
149 24
151 263
152 819
153 246
165 50
177 256
178 16
179 48
193 29
208 306
209 118
210 5

$$$$

     RDKit          2D

 46 49  0  0  0  0  0  0  0  0999 V2000
   -2.5462    3.0799    0.0000 C   0  0  0  0  0  0  0  0  0  0  0  0
    4.3656    0.5894    0.0000 C   0  0  0  0  0  0  0  0  0  0  0  0
    2.6499    7.5806    0.0000 C   0  0  0  0  0  0  0  0  0  0  0  0
   -1.2471   -2.1701    0.0000 C   0  0  0  0  0  0  0  0  0  0  0  0
   -1.2471   -3.6701    0.0000 H   0  0  0  0  0  0  0  0  0  0  0  0
    8.2621    4.3400    0.0000 C   0  0  0  0  0  0  0  0  0  0  0  0
    9.5610    5.0902    0.0000 H   0  0  0  0  0  0  0  0  0  0  0  0
   -2.5460    9.0814    0.0000 C   0  0  0  0  0  0  0  0  0  0  0  0
   -3.8450    9.8316    0.0000 H   0  0  0  0  0  0  0  0  0  0  0  0
    0.0529   -1.4201    0.0000 C   0  0  0  0  0  0  0  0  0  0  0  0
    1.3518   -2.1703    0.0000 H   0  0  0  0  0  0  0  0  0  0  0  0
   -2.5471   -1.4201    0.0000 C   0  0  0  0  0  0  0  0  0  0  0  0
   -3.8460   -2.1703    0.0000 H   0  0  0  0  0  0  0  0  0  0  0  0
    8.2628    2.8392    0.0000 C   0  0  0  0  0  0  0  0  0  0  0  0
    9.5621    2.0896    0.0000 H   0  0  0  0  0  0  0  0  0  0  0  0
    6.9625    5.0906    0.0000 C   0  0  0  0  0  0  0  0  0  0  0  0
    6.9625    6.5906    0.0000 H   0  0  0  0  0  0  0  0  0  0  0  0
   -2.5468    7.5806    0.0000 C   0  0  0  0  0  0  0  0  0  0  0  0
   -3.8460    6.8310    0.0000 H   0  0  0  0  0  0  0  0  0  0  0  0
   -1.2464    9.8320    0.0000 C   0  0  0  0  0  0  0  0  0  0  0  0
   -1.2464   11.3320    0.0000 H   0  0  0  0  0  0  0  0  0  0  0  0
    0.0529    0.0799    0.0000 C   0  0  0  0  0  0  0  0  0  0  0  0
    1.3518    0.8301    0.0000 H   0  0  0  0  0  0  0  0  0  0  0  0
   -2.5471    0.0799    0.0000 C   0  0  0  0  0  0  0  0  0  0  0  0
   -3.8460    0.8301    0.0000 H   0  0  0  0  0  0  0  0  0  0  0  0
    6.9639    2.0890    0.0000 C   0  0  0  0  0  0  0  0  0  0  0  0
    6.9639    0.5890    0.0000 H   0  0  0  0  0  0  0  0  0  0  0  0
    5.6636    4.3404    0.0000 C   0  0  0  0  0  0  0  0  0  0  0  0
    4.3643    5.0900    0.0000 H   0  0  0  0  0  0  0  0  0  0  0  0
   -1.2478    6.8303    0.0000 C   0  0  0  0  0  0  0  0  0  0  0  0
   -1.2478    5.3303    0.0000 H   0  0  0  0  0  0  0  0  0  0  0  0
    0.0525    9.0818    0.0000 C   0  0  0  0  0  0  0  0  0  0  0  0
    1.3518    9.8314    0.0000 H   0  0  0  0  0  0  0  0  0  0  0  0
    1.3514    2.3291    0.0000 C   0  0  0  0  0  0  0  0  0  0  0  0
    0.0514    4.5808    0.0000 C   0  0  0  0  0  0  0  0  0  0  0  0
   -1.2471    2.3299    0.0000 C   0  0  0  0  0  0  0  0  0  0  0  0
    4.3654    2.0894    0.0000 C   0  0  0  0  0  0  0  0  0  0  0  0
    1.3507    6.8308    0.0000 C   0  0  0  0  0  0  0  0  0  0  0  0
   -1.2471    0.8299    0.0000 C   0  0  0  0  0  0  0  0  0  0  0  0
    5.6643    2.8396    0.0000 C   0  0  0  0  0  0  0  0  0  0  0  0
    0.0518    7.5810    0.0000 C   0  0  0  0  0  0  0  0  0  0  0  0
    0.0519    3.0799    0.0000 C   0  0  0  0  0  0  0  0  0  0  0  0
    2.6505    3.0791    0.0000 C   0  0  0  0  0  0  0  0  0  0  0  0
    1.3505    5.3308    0.0000 C   0  0  0  0  0  0  0  0  0  0  0  0
    2.6500    4.5799    0.0000 C   0  0  0  0  0  0  0  0  0  0  0  0
    4.7804    5.8099    0.0000 O   0  0  0  0  0  0  0  0  0  0  0  0
  4  5  1  0
  6  7  1  0
  8  9  1  0
 10 11  1  0
 12 13  1  0
 14 15  1  0
 16 17  1  0
 18 19  1  0
 20 21  1  0
 22 23  1  0
 24 25  1  0
 26 27  1  0
 28 29  1  0
 30 31  1  0
 32 33  1  0
 10  4  2  0
 12  4  1  0
 14  6  2  0
 16  6  1  0
 18  8  2  0
 20  8  1  0
 22 10  1  0
 24 12  2  0
 26 14  1  0
 28 16  2  0
 30 18  1  0
 32 20  2  0
 36  1  1  0
 37  2  1  0
 38  3  1  0
 39 22  2  0
 39 24  1  0
 39 36  1  0
 40 26  2  0
 40 28  1  0
 40 37  1  0
 41 30  2  0
 41 32  1  0
 41 38  1  0
 42 34  2  0
 42 35  1  0
 42 36  1  0
 43 34  1  0
 43 37  1  0
 44 35  2  0
 44 38  1  0
 45 43  2  0
 45 44  1  0
 46 45  1  0
M  ISO  8   5   2   7   2   9   2  11   2  13   2  15   2  17   2  19   2
M  ISO  7  21   2  23   2  25   2  27   2  29   2  31   2  33   2
M  END
>  <NAME>  (5091) 
2,4,6-TRI(ALPHA-METHYLBENZYL(5D))PHENOL

>  <SYNONYMS>  (5091) 


>  <SPECTRUM TYPE>  (5091) 
MS1

>  <INSTRUMENT TYPE>  (5091) 
EI-B

>  <INSTRUMENT>  (5091) 
JEOL JMS-01-SG

>  <ION MODE>  (5091) 
P

>  <INCHIKEY>  (5091) 
BYLSIPUARIZAHZ-RXLUIHFSSA-N

>  <FORMULA>  (5091) 
C30H30O

>  <EXACT MASS>  (5091) 
421.32381677

>  <MW>  (5091) 
421

>  <ID>  (5091) 
JP002157

>  <CONTRIBUTOR>  (5091) 
University of Tokyo Team, {Faculty of Engineering, University of Tokyo

>  <COMMENT>  (5091) 
SMILES=Oc(c(C(c(c4[2H])c(c(c([2H])c4[2H])[2H])[2H])C)1)c(C(c(c3[2H])c(c(c([2H])c3[2H])[2H])[2H])C)cc(C(c(c2[2H])c(c(c([2H])c([2H])2)[2H])[2H])C)c1
InChI=InChI=1S/C30H30O/c1-21(24-13-7-4-8-14-24)27-19-28(22(2)25-15-9-5-10-16-25)30(31)29(20-27)23(3)26-17-11-6-12-18-26/h4-23,31H,1-3H3/i4D,5D,6D,7D,8D,9D,10D,11D,12D,13D,14D,15D,16D,17D,18D
computed SMILES=[H]C=1C(=C([H])C([H])=C([H])C1[H])C(C=2C=C(C(O)=C(C2)C(C=3C([H])=C([H])C([H])=C([H])C3[H])C)C(C=4C([H])=C([H])C([H])=C([H])C4[H])C)C
accession=JP002157
date=2016.01.19 (Created 2008.10.21, modified 2011.05.06)
author=KOGA M, UNIV. OF OCCUPATIONAL AND ENVIRONMENTAL HEALTH
license=CC BY-NC-SA
exact mass=406.22967
ionization energy=70 eV
ion type=[M]+*
computed spectral entropy=2.138401878608739
computed normalized entropy=0.7398362763429549
SPLASH=splash10-0c00-0302900000-9756bc26fe6aa47d8c20
submitter=submitter = University of Tokyo Team (Faculty of Engineering, University of Tokyo)
MoNA Rating=3.75

>  <NUM PEAKS>  (5091) 
18

>  <MASS SPECTRAL PEAKS>  (5091) 
83 6.6
96 6.8
108 6.8
109 1.22
110 42
111 7.1
154 6.8
240 0.74
241 8.5
311 16.4
312 8.3
322 0.85
323 18.7
324 6.6
407 99.99
408 0.44
421 58.6
422 5.9

>  <PREDICTED SPECTRUM>  (5091) 
14 94
15 184
16 32
17 33
26 83
27 162
28 405
29 267
30 250
32 121
38 1
39 299
40 110
41 476
42 146
44 151
45 1
48 44
49 130
50 213
51 273
52 293
53 309
54 215
55 125
56 246
57 290
62 59
63 185
64 192
65 50
66 22
67 222
69 284
71 74
74 267
75 182
76 769
77 496
78 573
79 415
80 90
82 28
84 21
88 64
89 741
90 416
91 252
92 261
93 314
94 229
95 174
96 238
97 68
99 245
100 117
101 206
102 371
103 735
104 429
105 42
106 476
107 56
108 208
111 190
112 57
114 73
115 277
119 35
120 411
121 247
122 302
123 403
125 469
126 71
127 92
128 198
130 336
131 200
132 136
133 139
134 399
135 248
137 97
139 98
140 271
141 193
142 146
143 188
144 20
145 12
146 80
147 373
149 14
151 101
152 248
153 321
154 375
155 267
156 117
160 24
161 105
162 111
163 165
164 87
165 104
166 87
167 67
168 26
169 400
170 394
171 47
172 39
173 93
178 72
180 137
181 130
182 30
183 164
184 294
185 202
190 30
193 2
194 97
196 12
197 291
198 79
199 289
200 100
201 278
207 133
208 363
209 299
210 333
211 147
214 49
216 134
221 258
224 393
226 192
227 190
228 246
230 94
231 384
235 321
236 171
237 397
238 132
243 72
249 111
256 274
257 7
259 166
261 456
263 256
264 84
269 298
271 297
272 86
273 208
274 52
275 470
276 341
277 5
281 1
283 161
284 160
285 104
286 682
287 671
288 621
289 690
290 467
291 356
294 10
300 64
301 349
302 169
303 58
310 316
317 84
323 387
327 266
328 668
330 55
335 170
342 205
345 147
352 162
355 45
367 33
369 98
370 70
385 253
386 133
388 42
389 117
391 232
403 432
408 30
409 107
412 117
415 251
416 319
417 632
418 237
419 217
421 999
422 673
423 167
424 81

$$$$

     RDKit          2D

 31 34  0  0  0  0  0  0  0  0999 V2000
    1.3000    0.3198    0.0000 C   0  0  0  0  0  0  0  0  0  0  0  0
    5.1977    7.0701    0.0000 C   0  0  0  0  0  0  0  0  0  0  0  0
    0.0003    7.0701    0.0000 C   0  0  0  0  0  0  0  0  0  0  0  0
    6.4961   -1.1802    0.0000 C   0  0  0  0  0  0  0  0  0  0  0  0
    9.0954    3.3207    0.0000 C   0  0  0  0  0  0  0  0  0  0  0  0
   -3.8974    3.3207    0.0000 C   0  0  0  0  0  0  0  0  0  0  0  0
    6.4966    0.3207    0.0000 C   0  0  0  0  0  0  0  0  0  0  0  0
    5.1966   -1.9310    0.0000 C   0  0  0  0  0  0  0  0  0  0  0  0
    9.0956    4.8215    0.0000 C   0  0  0  0  0  0  0  0  0  0  0  0
    7.7960    2.5696    0.0000 C   0  0  0  0  0  0  0  0  0  0  0  0
   -2.5980    2.5696    0.0000 C   0  0  0  0  0  0  0  0  0  0  0  0
   -3.8976    4.8215    0.0000 C   0  0  0  0  0  0  0  0  0  0  0  0
    5.1976    1.0707    0.0000 C   0  0  0  0  0  0  0  0  0  0  0  0
    3.8976   -1.1810    0.0000 C   0  0  0  0  0  0  0  0  0  0  0  0
    7.7965    5.5713    0.0000 C   0  0  0  0  0  0  0  0  0  0  0  0
    6.4968    3.3194    0.0000 C   0  0  0  0  0  0  0  0  0  0  0  0
   -1.2988    3.3194    0.0000 C   0  0  0  0  0  0  0  0  0  0  0  0
   -2.5985    5.5713    0.0000 C   0  0  0  0  0  0  0  0  0  0  0  0
    3.8990    3.3198    0.0000 C   0  0  0  0  0  0  0  0  0  0  0  0
    1.2990    3.3198    0.0000 C   0  0  0  0  0  0  0  0  0  0  0  0
    2.5990    1.0698    0.0000 C   0  0  0  0  0  0  0  0  0  0  0  0
    5.1979    5.5701    0.0000 C   0  0  0  0  0  0  0  0  0  0  0  0
    0.0001    5.5701    0.0000 C   0  0  0  0  0  0  0  0  0  0  0  0
    3.8980    0.3198    0.0000 C   0  0  0  0  0  0  0  0  0  0  0  0
    6.4971    4.8203    0.0000 C   0  0  0  0  0  0  0  0  0  0  0  0
   -1.2991    4.8203    0.0000 C   0  0  0  0  0  0  0  0  0  0  0  0
    2.5990    2.5698    0.0000 C   0  0  0  0  0  0  0  0  0  0  0  0
    3.8990    4.8198    0.0000 C   0  0  0  0  0  0  0  0  0  0  0  0
    1.2990    4.8198    0.0000 C   0  0  0  0  0  0  0  0  0  0  0  0
    2.5990    5.5698    0.0000 C   0  0  0  0  0  0  0  0  0  0  0  0
    2.5990    7.0698    0.0000 O   0  0  0  0  0  0  0  0  0  0  0  0
  7  4  2  0
  8  4  1  0
  9  5  2  0
 10  5  1  0
 11  6  2  0
 12  6  1  0
 13  7  1  0
 14  8  2  0
 15  9  1  0
 16 10  2  0
 17 11  1  0
 18 12  2  0
 21  1  1  0
 22  2  1  0
 23  3  1  0
 24 13  2  0
 24 14  1  0
 24 21  1  0
 25 15  2  0
 25 16  1  0
 25 22  1  0
 26 17  2  0
 26 18  1  0
 26 23  1  0
 27 19  2  0
 27 20  1  0
 27 21  1  0
 28 19  1  0
 28 22  1  0
 29 20  2  0
 29 23  1  0
 30 28  2  0
 30 29  1  0
 31 30  1  0
M  END
>  <NAME>  (5092) 
2,4,6-TRI(ALPHA-METHYLBENZYL)PHENOL

>  <SYNONYMS>  (5092) 


>  <SPECTRUM TYPE>  (5092) 
MS1

>  <INSTRUMENT TYPE>  (5092) 
EI-B

>  <INSTRUMENT>  (5092) 
JEOL JMS-01-SG

>  <ION MODE>  (5092) 
P

>  <INCHIKEY>  (5092) 
BYLSIPUARIZAHZ-UHFFFAOYSA-N

>  <FORMULA>  (5092) 
C30H30O

>  <EXACT MASS>  (5092) 
406.22966557999996

>  <MW>  (5092) 
406

>  <ID>  (5092) 
JP002156

>  <CONTRIBUTOR>  (5092) 
University of Tokyo Team, {Faculty of Engineering, University of Tokyo

>  <COMMENT>  (5092) 
SMILES=c(c4)c(ccc4)C(c(c2)c(c(cc(C(c(c3)cccc3)C)2)C(c(c1)cccc1)C)O)C
InChI=InChI=1S/C30H30O/c1-21(24-13-7-4-8-14-24)27-19-28(22(2)25-15-9-5-10-16-25)30(31)29(20-27)23(3)26-17-11-6-12-18-26/h4-23,31H,1-3H3
computed SMILES=OC=1C(=CC(=CC1C(C=2C=CC=CC2)C)C(C=3C=CC=CC3)C)C(C=4C=CC=CC4)C
accession=JP002156
date=2016.01.19 (Created 2008.10.21, modified 2011.05.06)
author=KOGA M, UNIV. OF OCCUPATIONAL AND ENVIRONMENTAL HEALTH
license=CC BY-NC-SA
exact mass=406.22967
ionization energy=70 eV
ion type=[M]+*
computed spectral entropy=2.013592697622419
computed normalized entropy=0.7629969516107389
SPLASH=splash10-0a4l-2118900000-4f1f8d980f60b12e1eac
submitter=submitter = University of Tokyo Team (Faculty of Engineering, University of Tokyo)
MoNA Rating=3.75

>  <NUM PEAKS>  (5092) 
14

>  <MASS SPECTRAL PEAKS>  (5092) 
44 10.6
77 10.1
91 11.9
105 5.38
149 10.6
235 11.7
287 9.6
301 1.63
302 9
313 17.4
391 91.4
392 2.6
406 99.99
407 29.5

>  <PREDICTED SPECTRUM>  (5092) 
27 42
28 0
29 39
36 3
39 111
40 24
41 178
42 12
43 154
44 68
50 28
51 180
52 60
53 90
55 123
56 20
57 110
60 55
62 15
63 45
65 95
67 57
69 42
71 32
73 3
74 18
75 95
76 65
77 479
78 255
79 296
80 33
81 13
82 36
83 32
86 7
89 109
91 378
92 97
93 95
94 26
95 49
98 58
99 41
101 56
102 76
103 390
104 167
105 761
106 250
107 179
108 117
109 36
110 22
111 50
112 61
113 79
114 29
115 255
116 82
117 158
118 53
119 138
120 101
121 153
122 4
125 64
126 113
127 155
128 140
129 165
130 81
131 141
132 99
133 130
134 115
135 110
136 38
137 83
138 37
139 89
140 39
141 73
142 21
143 28
145 78
146 85
147 64
148 91
149 148
150 86
151 188
152 278
153 207
154 72
155 113
156 79
157 59
158 18
159 32
161 51
162 36
163 125
164 113
165 332
166 163
167 89
168 28
169 11
173 43
175 91
176 101
177 110
178 216
179 183
180 99
181 149
182 65
183 33
184 21
185 28
189 150
190 62
191 165
192 133
193 182
194 125
195 109
196 53
197 38
199 19
200 34
201 24
202 128
203 136
204 47
205 112
206 116
207 169
208 132
209 113
210 41
211 40
213 26
214 26
215 138
216 40
217 36
218 63
219 114
220 81
221 130
222 51
223 142
224 84
225 98
226 150
227 55
228 73
230 19
232 16
234 69
235 159
236 125
237 167
238 69
239 158
240 97
241 93
242 64
243 32
244 54
249 30
250 53
251 131
252 256
253 169
254 89
255 99
256 101
257 51
259 12
263 84
265 190
266 7
267 72
268 66
269 149
270 113
271 125
272 84
277 11
278 6
281 38
283 70
284 118
285 192
286 82
287 182
288 99
295 19
296 12
297 21
298 58
299 118
300 32
301 393
302 246
303 78
310 9
311 79
312 46
313 416
314 206
315 72
316 13
326 10
327 170
328 120
329 176
330 59
374 78
377 50
378 27
389 76
391 999
392 546
393 278
394 125
395 7
404 117
405 9
406 826
407 490
408 176
409 61

$$$$

     RDKit          2D

 33 35  0  0  0  0  0  0  0  0999 V2000
   -0.0082    7.0730    0.0000 C   0  0  0  0  0  0  0  0  0  0  0  0
    5.2064    7.0924    0.0000 C   0  0  0  0  0  0  0  0  0  0  0  0
   -3.9053    3.3230    0.0000 C   0  0  0  0  0  0  0  0  0  0  0  0
   -5.2043    2.5730    0.0000 H   0  0  0  0  0  0  0  0  0  0  0  0
    9.0945    3.3330    0.0000 C   0  0  0  0  0  0  0  0  0  0  0  0
   10.3917    2.5799    0.0000 H   0  0  0  0  0  0  0  0  0  0  0  0
   -2.6058    2.5721    0.0000 C   0  0  0  0  0  0  0  0  0  0  0  0
   -2.6060    1.0721    0.0000 H   0  0  0  0  0  0  0  0  0  0  0  0
   -3.9058    4.8238    0.0000 C   0  0  0  0  0  0  0  0  0  0  0  0
   -5.2049    5.5736    0.0000 H   0  0  0  0  0  0  0  0  0  0  0  0
    7.7932    2.5854    0.0000 C   0  0  0  0  0  0  0  0  0  0  0  0
    7.7898    1.0854    0.0000 H   0  0  0  0  0  0  0  0  0  0  0  0
    9.0986    4.8339    0.0000 C   0  0  0  0  0  0  0  0  0  0  0  0
   10.3996    5.5805    0.0000 H   0  0  0  0  0  0  0  0  0  0  0  0
    2.5626    2.6145    0.0000 C   0  0  0  0  0  0  0  0  0  0  0  0
   -1.3067    3.3221    0.0000 C   0  0  0  0  0  0  0  0  0  0  0  0
   -0.0076    2.5723    0.0000 H   0  0  0  0  0  0  0  0  0  0  0  0
   -2.6067    5.5738    0.0000 C   0  0  0  0  0  0  0  0  0  0  0  0
   -2.6065    7.0738    0.0000 H   0  0  0  0  0  0  0  0  0  0  0  0
    6.4959    3.3385    0.0000 C   0  0  0  0  0  0  0  0  0  0  0  0
    5.1950    2.5918    0.0000 H   0  0  0  0  0  0  0  0  0  0  0  0
    7.8014    5.5870    0.0000 C   0  0  0  0  0  0  0  0  0  0  0  0
    7.8048    7.0870    0.0000 H   0  0  0  0  0  0  0  0  0  0  0  0
    1.2883    3.3427    0.0000 C   0  0  0  0  0  0  0  0  0  0  0  0
    3.8686    3.3260    0.0000 C   0  0  0  0  0  0  0  0  0  0  0  0
   -0.0082    5.5730    0.0000 C   0  0  0  0  0  0  0  0  0  0  0  0
    5.2028    5.5925    0.0000 C   0  0  0  0  0  0  0  0  0  0  0  0
   -1.3072    4.8230    0.0000 C   0  0  0  0  0  0  0  0  0  0  0  0
    6.5000    4.8393    0.0000 C   0  0  0  0  0  0  0  0  0  0  0  0
    1.2908    4.8230    0.0000 C   0  0  0  0  0  0  0  0  0  0  0  0
    3.9020    4.8456    0.0000 C   0  0  0  0  0  0  0  0  0  0  0  0
    2.5877    5.5747    0.0000 C   0  0  0  0  0  0  0  0  0  0  0  0
    2.5735    7.0746    0.0000 O   0  0  0  0  0  0  0  0  0  0  0  0
  3  4  1  0
  5  6  1  0
  7  8  1  0
  9 10  1  0
 11 12  1  0
 13 14  1  0
 16 17  1  0
 18 19  1  0
 20 21  1  0
 22 23  1  0
  7  3  2  0
  9  3  1  0
 11  5  2  0
 13  5  1  0
 16  7  1  0
 18  9  2  0
 20 11  1  0
 22 13  2  0
 24 15  2  0
 25 15  1  0
 26  1  1  0
 27  2  1  0
 28 16  2  0
 28 18  1  0
 28 26  1  0
 29 20  2  0
 29 22  1  0
 29 27  1  0
 30 24  1  0
 30 26  1  0
 31 25  2  0
 31 27  1  0
 32 30  2  0
 32 31  1  0
 33 32  1  0
M  ISO  8   4   2   6   2   8   2  10   2  12   2  14   2  17   2  19   2
M  ISO  2  21   2  23   2
M  END
>  <NAME>  (5093) 
2,6-DI(ALPHA-METHYLBENZYL(5D))PHENOL

>  <SYNONYMS>  (5093) 


>  <SPECTRUM TYPE>  (5093) 
MS1

>  <INSTRUMENT TYPE>  (5093) 
EI-B

>  <INSTRUMENT>  (5093) 
JEOL JMS-01-SG

>  <ION MODE>  (5093) 
P

>  <INCHIKEY>  (5093) 
NYPMHOYLEBBBGY-ZKZWDRQZSA-N

>  <FORMULA>  (5093) 
C22H22O

>  <EXACT MASS>  (5093) 
312.229832784

>  <MW>  (5093) 
312

>  <ID>  (5093) 
JP002155

>  <CONTRIBUTOR>  (5093) 
University of Tokyo Team, {Faculty of Engineering, University of Tokyo

>  <COMMENT>  (5093) 
SMILES=[2H]c(c([2H])3)c([2H])c([2H])c(c([2H])3)C(C)c(c2)c(O)c(cc2)C(C)c(c([2H])1)c([2H])c([2H])c([2H])c([2H])1
InChI=InChI=1S/C22H22O/c1-16(18-10-5-3-6-11-18)20-14-9-15-21(22(20)23)17(2)19-12-7-4-8-13-19/h3-17,23H,1-2H3/i3D,4D,5D,6D,7D,8D,10D,11D,12D,13D
computed SMILES=[H]C=1C(=C([H])C([H])=C([H])C1[H])C(C2=CC=CC(=C2O)C(C=3C([H])=C([H])C([H])=C([H])C3[H])C)C
accession=JP002155
date=2016.01.19 (Created 2008.10.21, modified 2011.05.06)
author=KOGA M, UNIV. OF OCCUPATIONAL AND ENVIRONMENTAL HEALTH
license=CC BY-NC-SA
exact mass=302.16707
ionization energy=70 eV
ion type=[M]+*
computed spectral entropy=2.4567610697075093
computed normalized entropy=0.8200869922174079
SPLASH=splash10-03dj-0293000000-0b1adcba6816eec8b121
submitter=submitter = University of Tokyo Team (Faculty of Engineering, University of Tokyo)
MoNA Rating=3.75

>  <NUM PEAKS>  (5093) 
20

>  <MASS SPECTRAL PEAKS>  (5093) 
96 9
108 6.4
109 9.6
110 2.07
169 11.6
170 10.4
188 33.9
189 0.83
202 11.2
213 14.6
214 43
215 1.27
227 9.5
228 9.1
229 13.3
296 1.16
297 99.99
298 25.9
312 59.2
313 19.5

>  <PREDICTED SPECTRUM>  (5093) 
14 41
15 124
16 19
17 15
26 63
27 231
28 246
29 207
30 109
32 41
38 42
39 205
40 108
41 344
42 146
43 200
44 257
45 37
50 72
51 169
52 167
53 246
54 123
55 41
56 131
57 195
58 104
62 26
63 150
64 81
65 51
66 44
67 133
68 12
69 28
71 44
75 53
76 303
77 230
78 235
79 212
80 93
81 92
82 79
83 3
89 247
90 106
91 184
92 60
93 16
99 125
101 69
102 106
103 208
104 313
105 141
106 128
107 66
108 4
115 210
116 60
118 108
119 81
120 161
127 92
128 155
129 7
132 63
133 54
134 64
135 77
140 91
142 12
147 112
152 152
153 55
154 71
156 38
160 123
161 62
162 259
163 68
164 96
165 185
166 172
167 215
168 59
169 2
174 110
175 89
176 169
177 396
178 349
179 261
180 266
181 188
182 86
190 33
191 33
192 19
193 50
194 193
195 2
202 22
217 28
218 92
219 222
221 144
224 82
226 101
228 206
231 294
233 59
234 45
239 23
240 134
241 129
242 62
243 225
246 0
247 26
249 53
252 43
253 59
254 147
255 57
256 90
261 63
262 24
263 25
267 30
269 94
270 28
275 110
276 81
277 34
278 212
279 423
280 328
281 134
282 300
283 220
284 34
293 73
294 425
295 352
296 11
297 403
298 70
299 0
306 10
307 2
308 303
309 94
310 259
311 252
312 999
313 491
314 58

$$$$

     RDKit          2D

 23 25  0  0  0  0  0  0  0  0999 V2000
    0.6584    1.4592    0.0000 C   0  0  0  0  0  0  0  0  0  0  0  0
   -0.6613    8.2124    0.0000 C   0  0  0  0  0  0  0  0  0  0  0  0
    5.8546   -0.0408    0.0000 C   0  0  0  0  0  0  0  0  0  0  0  0
   -4.5674    4.4718    0.0000 C   0  0  0  0  0  0  0  0  0  0  0  0
    5.8551    1.4601    0.0000 C   0  0  0  0  0  0  0  0  0  0  0  0
    4.5551   -0.7916    0.0000 C   0  0  0  0  0  0  0  0  0  0  0  0
   -3.2697    3.7178    0.0000 C   0  0  0  0  0  0  0  0  0  0  0  0
   -4.5643    5.9726    0.0000 C   0  0  0  0  0  0  0  0  0  0  0  0
    3.2342    5.9149    0.0000 C   0  0  0  0  0  0  0  0  0  0  0  0
    4.5560    2.2101    0.0000 C   0  0  0  0  0  0  0  0  0  0  0  0
    3.2560   -0.0416    0.0000 C   0  0  0  0  0  0  0  0  0  0  0  0
   -1.9689    4.4647    0.0000 C   0  0  0  0  0  0  0  0  0  0  0  0
   -3.2634    6.7195    0.0000 C   0  0  0  0  0  0  0  0  0  0  0  0
    3.2407    4.4472    0.0000 C   0  0  0  0  0  0  0  0  0  0  0  0
    1.9651    6.6901    0.0000 C   0  0  0  0  0  0  0  0  0  0  0  0
    1.9575    2.2092    0.0000 C   0  0  0  0  0  0  0  0  0  0  0  0
   -0.6649    6.7124    0.0000 C   0  0  0  0  0  0  0  0  0  0  0  0
    3.2565    1.4592    0.0000 C   0  0  0  0  0  0  0  0  0  0  0  0
   -1.9657    5.9655    0.0000 C   0  0  0  0  0  0  0  0  0  0  0  0
    1.9575    3.7092    0.0000 C   0  0  0  0  0  0  0  0  0  0  0  0
    0.6323    5.9592    0.0000 C   0  0  0  0  0  0  0  0  0  0  0  0
    0.6581    4.4565    0.0000 C   0  0  0  0  0  0  0  0  0  0  0  0
   -0.6338    3.6943    0.0000 O   0  0  0  0  0  0  0  0  0  0  0  0
  5  3  2  0
  6  3  1  0
  7  4  2  0
  8  4  1  0
 10  5  1  0
 11  6  2  0
 12  7  1  0
 13  8  2  0
 14  9  2  0
 15  9  1  0
 16  1  1  0
 17  2  1  0
 18 10  2  0
 18 11  1  0
 18 16  1  0
 19 12  2  0
 19 13  1  0
 19 17  1  0
 20 14  1  0
 20 16  1  0
 21 15  2  0
 21 17  1  0
 22 20  2  0
 22 21  1  0
 23 22  1  0
M  END
>  <NAME>  (5094) 
2,6-DI(ALPHA-METHYLBENZYL)PHENOL

>  <SYNONYMS>  (5094) 


>  <SPECTRUM TYPE>  (5094) 
MS1

>  <INSTRUMENT TYPE>  (5094) 
EI-B

>  <INSTRUMENT>  (5094) 
JEOL JMS-01-SG

>  <ION MODE>  (5094) 
P

>  <INCHIKEY>  (5094) 
NYPMHOYLEBBBGY-UHFFFAOYSA-N

>  <FORMULA>  (5094) 
C22H22O

>  <EXACT MASS>  (5094) 
302.167065324

>  <MW>  (5094) 
302

>  <ID>  (5094) 
JP002154

>  <CONTRIBUTOR>  (5094) 
University of Tokyo Team, {Faculty of Engineering, University of Tokyo

>  <COMMENT>  (5094) 
SMILES=c(c3)ccc(c3)C(C)c(c2)c(O)c(cc2)C(C)c(c1)cccc1
InChI=InChI=1S/C22H22O/c1-16(18-10-5-3-6-11-18)20-14-9-15-21(22(20)23)17(2)19-12-7-4-8-13-19/h3-17,23H,1-2H3
computed SMILES=OC=1C(=CC=CC1C(C=2C=CC=CC2)C)C(C=3C=CC=CC3)C
accession=JP002154
date=2016.01.19 (Created 2008.10.21, modified 2011.05.06)
author=KOGA M, UNIV. OF OCCUPATIONAL AND ENVIRONMENTAL HEALTH
license=CC BY-NC-SA
exact mass=302.16707
ionization energy=70 eV
ion type=[M]+*
computed spectral entropy=2.9820547581254786
computed normalized entropy=0.8855933391921366
SPLASH=splash10-052u-9460000000-0347a34b0a9a5b001d99
submitter=submitter = University of Tokyo Team (Faculty of Engineering, University of Tokyo)
MoNA Rating=3.75

>  <NUM PEAKS>  (5094) 
29

>  <MASS SPECTRAL PEAKS>  (5094) 
43 28.9
44 49.7
45 11.6
51 1.6
55 24.1
56 13.5
57 23.6
69 1.66
71 12.7
77 20.9
78 20.8
79 1.05
83 12.2
91 15.3
103 19.9
104 3.18
105 28.3
119 8.5
149 35.3
165 1.44
181 8.5
197 15.5
209 35.7
223 1.49
224 23
287 99.99
288 21.6
302 7.13
303 16.4

>  <PREDICTED SPECTRUM>  (5094) 
26 6
27 119
28 24
29 87
31 0
34 11
36 23
39 227
40 76
41 222
42 41
43 121
44 110
45 65
49 40
50 124
51 298
52 145
53 140
54 11
55 107
56 5
57 73
60 15
61 2
62 44
63 138
64 54
65 181
66 18
67 52
69 46
70 47
71 81
74 45
75 147
76 161
77 537
78 330
79 294
80 10
81 8
82 29
83 8
86 26
87 33
88 23
89 193
90 49
91 510
92 114
93 15
94 3
95 53
96 37
97 39
98 27
99 48
101 75
102 138
103 457
104 253
105 715
106 193
107 145
108 19
109 0
111 42
112 90
113 116
114 21
115 317
116 121
117 169
118 83
119 207
120 125
121 144
125 61
126 154
127 199
128 178
129 128
130 79
131 239
132 168
133 221
134 128
135 118
137 1
138 14
139 160
140 46
141 109
142 40
143 35
145 115
146 78
147 122
148 83
149 143
150 115
151 219
152 338
153 265
154 72
155 125
156 39
159 42
161 88
162 18
163 140
164 145
165 498
166 271
167 215
168 152
169 103
170 44
171 8
173 9
174 17
175 35
176 64
177 79
178 298
179 320
180 281
181 427
182 235
183 294
184 155
185 26
187 6
189 253
190 17
191 157
192 21
193 152
194 137
195 263
196 127
197 476
198 226
199 71
202 242
205 13
206 42
207 313
208 245
209 729
210 398
211 245
212 85
213 8
215 126
221 13
222 67
223 336
224 263
225 361
226 241
227 96
228 13
231 2
237 29
242 8
250 6
251 16
252 48
254 47
255 19
265 54
270 51
271 25
272 43
273 123
274 46
285 105
286 19
287 951
288 489
289 174
290 40
299 14
300 91
302 999
303 469
304 204
305 9

$$$$

     RDKit          2D

 18 19  0  0  0  0  0  0  0  0999 V2000
    6.4970    1.5006    0.0000 C   0  0  0  0  0  0  0  0  0  0  0  0
    0.0010    5.2500    0.0000 C   0  0  0  0  0  0  0  0  0  0  0  0
   -2.6000   -0.7500    0.0000 C   0  0  0  0  0  0  0  0  0  0  0  0
   -2.6000    0.7500    0.0000 C   0  0  0  0  0  0  0  0  0  0  0  0
   -1.3000   -1.5000    0.0000 C   0  0  0  0  0  0  0  0  0  0  0  0
   -1.3000    1.5000    0.0000 C   0  0  0  0  0  0  0  0  0  0  0  0
    1.3000   -1.5000    0.0000 C   0  0  0  0  0  0  0  0  0  0  0  0
    2.6000   -0.7500    0.0000 C   0  0  0  0  0  0  0  0  0  0  0  0
    0.0000   -0.7500    0.0000 C   0  0  0  0  0  0  0  0  0  0  0  0
    0.0000    0.7500    0.0000 C   0  0  0  0  0  0  0  0  0  0  0  0
    2.6000    0.7500    0.0000 C   0  0  0  0  0  0  0  0  0  0  0  0
    1.3000    1.5000    0.0000 C   0  0  0  0  0  0  0  0  0  0  0  0
    3.8989    1.5002    0.0000 C   0  0  0  0  0  0  0  0  0  0  0  0
    1.3000    3.0000    0.0000 C   0  0  0  0  0  0  0  0  0  0  0  0
    3.8987    3.0002    0.0000 O   0  0  0  0  0  0  0  0  0  0  0  0
    2.5990    3.7500    0.0000 O   0  0  0  0  0  0  0  0  0  0  0  0
    5.1981    0.7504    0.0000 O   0  0  0  0  0  0  0  0  0  0  0  0
    0.0010    3.7500    0.0000 O   0  0  0  0  0  0  0  0  0  0  0  0
  4  3  2  0
  5  3  1  0
  6  4  1  0
  8  7  2  0
  9  5  2  0
  9  7  1  0
 10  6  2  0
 10  9  1  0
 11  8  1  0
 12 10  1  0
 12 11  2  0
 13 11  1  0
 14 12  1  0
 15 13  2  0
 16 14  2  0
 17  1  1  0
 17 13  1  0
 18  2  1  0
 18 14  1  0
M  END
>  <NAME>  (5095) 
NAPHTHALENE-1,2-DICARBOXYLIC ACID DIMETHYLESTER

>  <SYNONYMS>  (5095) 


>  <SPECTRUM TYPE>  (5095) 
MS1

>  <INSTRUMENT TYPE>  (5095) 
EI-B

>  <INSTRUMENT>  (5095) 
JEOL JMS-01-SG

>  <ION MODE>  (5095) 
P

>  <INCHIKEY>  (5095) 
JGJWEXOAAXEJMW-UHFFFAOYSA-N

>  <FORMULA>  (5095) 
C14H12O4

>  <EXACT MASS>  (5095) 
244.073558864

>  <MW>  (5095) 
244

>  <ID>  (5095) 
JP002153

>  <CONTRIBUTOR>  (5095) 
University of Tokyo Team, {Faculty of Engineering, University of Tokyo

>  <COMMENT>  (5095) 
SMILES=COC(=O)c(c1)c(C(=O)OC)c(c2)c(ccc2)c1
InChI=InChI=1S/C14H12O4/c1-17-13(15)11-8-7-9-5-3-4-6-10(9)12(11)14(16)18-2/h3-8H,1-2H3
computed SMILES=O=C(OC)C=1C=CC=2C=CC=CC2C1C(=O)OC
accession=JP002153
date=2016.01.19 (Created 2008.10.21, modified 2011.05.06)
author=KOGA M, UNIV. OF OCCUPATIONAL AND ENVIRONMENTAL HEALTH
license=CC BY-NC-SA
exact mass=244.07356
ionization energy=70 eV
ion type=[M]+*
computed spectral entropy=1.815852792124546
computed normalized entropy=0.7572694323740943
SPLASH=splash10-03di-0390000000-ab37ea50370469d51905
submitter=submitter = University of Tokyo Team (Faculty of Engineering, University of Tokyo)
MoNA Rating=3.75

>  <NUM PEAKS>  (5095) 
11

>  <MASS SPECTRAL PEAKS>  (5095) 
114 10.8
126 12.5
127 13.6
154 0.79
170 11.9
171 6.7
185 6.6
213 99.99
214 13.1
244 43.9
245 8.5

>  <PREDICTED SPECTRUM>  (5095) 
15 50
16 0
38 23
39 29
40 5
41 49
43 78
44 62
45 50
50 90
51 91
53 31
56 13
59 160
61 20
62 87
63 147
64 13
69 15
70 35
71 61
74 171
75 91
76 63
77 16
83 5
84 33
85 37
86 117
87 80
88 33
93 40
95 21
98 133
99 144
100 118
101 57
111 85
112 23
113 181
114 239
115 89
116 36
121 3
122 78
125 156
126 389
127 235
128 62
129 56
140 37
141 246
142 146
143 22
153 232
154 313
155 198
170 289
181 1
183 157
184 45
185 263
186 63
199 22
213 999
214 349
215 116
216 35
244 669
245 282
246 65

$$$$

     RDKit          2D

 15 15  0  0  0  0  0  0  0  0999 V2000
   -1.2100    0.3900    0.0000 C   0  0  0  0  0  0  0  0  0  0  0  0
    3.1239   -2.0857    0.0000 C   0  0  0  0  0  0  0  0  0  0  0  0
    0.7500   -1.0300    0.0000 C   0  0  0  0  0  0  0  0  0  0  0  0
    4.0061   -3.2988    0.0000 C   0  0  0  0  0  0  0  0  0  0  0  0
    5.4979   -3.1414    0.0000 C   0  0  0  0  0  0  0  0  0  0  0  0
    2.6582   -3.9570    0.0000 F   0  0  0  0  0  0  0  0  0  0  0  0
    4.4202   -4.7405    0.0000 F   0  0  0  0  0  0  0  0  0  0  0  0
    5.6553   -4.6331    0.0000 F   0  0  0  0  0  0  0  0  0  0  0  0
    6.9896   -2.9839    0.0000 F   0  0  0  0  0  0  0  0  0  0  0  0
    5.3404   -1.6497    0.0000 F   0  0  0  0  0  0  0  0  0  0  0  0
   -0.7500   -1.0300    0.0000 N   0  0  0  0  0  0  0  0  0  0  0  0
    0.0000    1.2800    0.0000 N   0  0  0  0  0  0  0  0  0  0  0  0
    1.6322   -2.2431    0.0000 N   0  0  0  0  0  0  0  0  0  0  0  0
    1.2100    0.3900    0.0000 N   0  0  0  0  0  0  0  0  0  0  0  0
    3.7334   -0.7151    0.0000 O   0  0  0  0  0  0  0  0  0  0  0  0
  4  2  1  0
  5  4  1  0
  6  4  1  0
  7  4  1  0
  8  5  1  0
  9  5  1  0
 10  5  1  0
 11  1  2  0
 11  3  1  0
 12  1  1  0
 13  2  2  3
 13  3  1  0
 14  3  1  0
 14 12  2  0
 15  2  1  0
M  END
>  <NAME>  (5096) 
3-(N-PENTAFLUOROPROPYL)AMINO-1,2,4-TRIAZOLE

>  <SYNONYMS>  (5096) 


>  <SPECTRUM TYPE>  (5096) 
MS1

>  <INSTRUMENT TYPE>  (5096) 
EI-B

>  <INSTRUMENT>  (5096) 
JEOL JMS-01-SG

>  <ION MODE>  (5096) 
P

>  <INCHIKEY>  (5096) 
SYVBYMQVZXBVAZ-UHFFFAOYSA-N

>  <FORMULA>  (5096) 
C5H3F5N4O

>  <EXACT MASS>  (5096) 
230.022701816

>  <MW>  (5096) 
230

>  <ID>  (5096) 
JP002152

>  <CONTRIBUTOR>  (5096) 
University of Tokyo Team, {Faculty of Engineering, University of Tokyo

>  <COMMENT>  (5096) 
SMILES=[H]C(N=1)=NC(N1)NC(=O)C(F)(F)C(F)(F)F
InChI=InChI=1S/C5H3F5N4O/c6-4(7,5(8,9)10)2(15)13-3-11-1-12-14-3/h1,3H,(H,13,15)
computed SMILES=FC(F)(F)C(F)(F)C(O)=NC1N=NC=N1
accession=JP002152
date=2016.01.19 (Created 2008.10.21, modified 2011.05.06)
author=KOGA M, UNIV. OF OCCUPATIONAL AND ENVIRONMENTAL HEALTH
license=CC BY-NC-SA
exact mass=230.0227
ionization energy=70 eV
ion type=[M]+*
computed spectral entropy=1.955829297035983
computed normalized entropy=0.7870836102446119
SPLASH=splash10-0159-8970000000-8811b8fb8c5450888b1a
submitter=submitter = University of Tokyo Team (Faculty of Engineering, University of Tokyo)
MoNA Rating=3.75

>  <NUM PEAKS>  (5096) 
12

>  <MASS SPECTRAL PEAKS>  (5096) 
50 10.4
53 9.6
54 15.1
55 0.59
68 24.2
69 65.9
83 7
100 1.36
111 74.7
119 61.5
230 99.99
231 8.4

>  <PREDICTED SPECTRUM>  (5096) 
14 27
15 12
16 8
17 19
25 24
26 82
27 133
28 153
29 119
30 148
31 274
33 32
36 6
37 153
38 294
39 522
40 384
41 422
42 172
43 119
44 75
45 179
46 20
47 15
49 11
50 248
51 22
52 61
53 232
54 292
55 178
63 93
64 37
65 157
66 363
67 199
68 156
69 999
76 14
77 139
79 18
81 104
82 5
83 141
90 73
92 112
93 122
100 257
105 43
111 267
118 105
119 416
131 9
133 57
145 133
161 60
211 25
212 25
230 802
231 202

$$$$

     RDKit          2D

 15 15  0  0  0  0  0  0  0  0999 V2000
    0.7500   -1.0300    0.0000 C   0  0  0  0  0  0  0  0  0  0  0  0
   -1.2100    0.3900    0.0000 C   0  0  0  0  0  0  0  0  0  0  0  0
   -3.1239   -2.0857    0.0000 C   0  0  0  0  0  0  0  0  0  0  0  0
   -4.0061   -3.2988    0.0000 C   0  0  0  0  0  0  0  0  0  0  0  0
   -5.4979   -3.1414    0.0000 C   0  0  0  0  0  0  0  0  0  0  0  0
   -4.4202   -4.7405    0.0000 F   0  0  0  0  0  0  0  0  0  0  0  0
   -2.6582   -3.9570    0.0000 F   0  0  0  0  0  0  0  0  0  0  0  0
   -5.3404   -1.6497    0.0000 F   0  0  0  0  0  0  0  0  0  0  0  0
   -6.9896   -2.9839    0.0000 F   0  0  0  0  0  0  0  0  0  0  0  0
   -5.6553   -4.6331    0.0000 F   0  0  0  0  0  0  0  0  0  0  0  0
    1.2100    0.3900    0.0000 N   0  0  0  0  0  0  0  0  0  0  0  0
    0.0000    1.2800    0.0000 N   0  0  0  0  0  0  0  0  0  0  0  0
   -1.6322   -2.2431    0.0000 N   0  0  0  0  0  0  0  0  0  0  0  0
   -0.7500   -1.0300    0.0000 N   0  0  0  0  0  0  0  0  0  0  0  0
   -3.7334   -0.7151    0.0000 O   0  0  0  0  0  0  0  0  0  0  0  0
  4  3  1  0
  5  4  1  0
  6  4  1  0
  7  4  1  0
  8  5  1  0
  9  5  1  0
 10  5  1  0
 11  1  2  0
 12  2  2  0
 12 11  1  0
 13  3  2  3
 14  1  1  0
 14  2  1  0
 14 13  1  0
 15  3  1  0
M  END
>  <NAME>  (5097) 
4-(N-PENTAFLUOROPROPIONYL)AMINO1,2,4-TRIAZOLE

>  <SYNONYMS>  (5097) 


>  <SPECTRUM TYPE>  (5097) 
MS1

>  <INSTRUMENT TYPE>  (5097) 
EI-B

>  <INSTRUMENT>  (5097) 
JEOL JMS-01-SG

>  <ION MODE>  (5097) 
P

>  <INCHIKEY>  (5097) 
OIXIJWYGTNCGQU-UHFFFAOYSA-N

>  <FORMULA>  (5097) 
C5H3F5N4O

>  <EXACT MASS>  (5097) 
230.022701816

>  <MW>  (5097) 
230

>  <ID>  (5097) 
JP002151

>  <CONTRIBUTOR>  (5097) 
University of Tokyo Team, {Faculty of Engineering, University of Tokyo

>  <COMMENT>  (5097) 
SMILES=O=C(Nn(c1)cnn1)C(F)(F)C(F)(F)F
InChI=InChI=1S/C5H3F5N4O/c6-4(7,5(8,9)10)3(15)13-14-1-11-12-2-14/h1-2H,(H,13,15)
computed SMILES=FC(F)(F)C(F)(F)C(O)=NN1C=NN=C1
accession=JP002151
date=2016.01.19 (Created 2008.10.21, modified 2011.05.06)
author=KOGA M, UNIV. OF OCCUPATIONAL AND ENVIRONMENTAL HEALTH
license=CC BY-NC-SA
exact mass=230.0227
ionization energy=70 eV
ion type=[M]+*
computed spectral entropy=2.09497641531158
computed normalized entropy=0.7938351288552725
SPLASH=splash10-014i-6920000000-4a44be72898f75784ca4
submitter=submitter = University of Tokyo Team (Faculty of Engineering, University of Tokyo)
MoNA Rating=3.75

>  <NUM PEAKS>  (5097) 
14

>  <MASS SPECTRAL PEAKS>  (5097) 
43 10.5
44 4.6
50 18
55 2.61
56 10
57 8.2
69 71.6
83 0.7
84 5.8
100 42.9
111 29.4
119 99.99
230 33.3
231 8.4

>  <PREDICTED SPECTRUM>  (5097) 
14 7
19 11
25 1
26 29
27 44
28 84
29 38
31 177
36 40
37 122
38 256
39 440
40 374
41 316
42 173
43 93
44 139
45 135
46 100
47 104
49 13
50 414
51 166
52 79
53 335
54 154
55 172
56 47
61 75
62 59
63 125
64 26
65 160
66 130
67 159
68 128
69 999
70 201
71 58
73 1
75 1
76 40
77 29
78 46
82 50
83 226
84 99
86 2
90 48
91 187
92 50
93 143
96 2
100 303
105 19
106 5
107 30
111 461
112 92
113 74
114 67
115 139
118 16
119 659
133 79
134 39
135 2
161 326
162 1
183 4
203 15
211 264
230 893
231 230
232 7

$$$$

     RDKit          2D

 16 17  0  0  0  0  0  0  0  0999 V2000
    5.1981    0.7504    0.0000 C   0  0  0  0  0  0  0  0  0  0  0  0
    2.5990    5.2500    0.0000 C   0  0  0  0  0  0  0  0  0  0  0  0
   -2.6000   -0.7500    0.0000 C   0  0  0  0  0  0  0  0  0  0  0  0
   -2.6000    0.7500    0.0000 C   0  0  0  0  0  0  0  0  0  0  0  0
   -1.3000   -1.5000    0.0000 C   0  0  0  0  0  0  0  0  0  0  0  0
   -1.3000    1.5000    0.0000 C   0  0  0  0  0  0  0  0  0  0  0  0
    1.3000   -1.5000    0.0000 C   0  0  0  0  0  0  0  0  0  0  0  0
    2.6000   -0.7500    0.0000 C   0  0  0  0  0  0  0  0  0  0  0  0
    0.0000   -0.7500    0.0000 C   0  0  0  0  0  0  0  0  0  0  0  0
    0.0000    0.7500    0.0000 C   0  0  0  0  0  0  0  0  0  0  0  0
    2.6000    0.7500    0.0000 C   0  0  0  0  0  0  0  0  0  0  0  0
    1.3000    1.5000    0.0000 C   0  0  0  0  0  0  0  0  0  0  0  0
    1.3000    3.0000    0.0000 C   0  0  0  0  0  0  0  0  0  0  0  0
    0.0010    3.7500    0.0000 O   0  0  0  0  0  0  0  0  0  0  0  0
    3.8989    1.5002    0.0000 O   0  0  0  0  0  0  0  0  0  0  0  0
    2.5990    3.7500    0.0000 O   0  0  0  0  0  0  0  0  0  0  0  0
  4  3  2  0
  5  3  1  0
  6  4  1  0
  8  7  2  0
  9  5  2  0
  9  7  1  0
 10  6  2  0
 10  9  1  0
 11  8  1  0
 12 10  1  0
 12 11  2  0
 13 12  1  0
 14 13  2  0
 15  1  1  0
 15 11  1  0
 16  2  1  0
 16 13  1  0
M  END
>  <NAME>  (5098) 
2-METHOXY-1-NAPHTHOIC ACID METHYL ESTER

>  <SYNONYMS>  (5098) 


>  <SPECTRUM TYPE>  (5098) 
MS1

>  <INSTRUMENT TYPE>  (5098) 
EI-B

>  <INSTRUMENT>  (5098) 
JEOL JMS-01-SG

>  <ION MODE>  (5098) 
P

>  <INCHIKEY>  (5098) 
BDXGQHHFVPQVAQ-UHFFFAOYSA-N

>  <FORMULA>  (5098) 
C13H12O3

>  <EXACT MASS>  (5098) 
216.07864424399997

>  <MW>  (5098) 
216

>  <ID>  (5098) 
JP002149

>  <CONTRIBUTOR>  (5098) 
University of Tokyo Team, {Faculty of Engineering, University of Tokyo

>  <COMMENT>  (5098) 
SMILES=COC(=O)c(c(OC)1)c(c2)c(ccc2)cc1
InChI=InChI=1S/C13H12O3/c1-15-11-8-7-9-5-3-4-6-10(9)12(11)13(14)16-2/h3-8H,1-2H3
computed SMILES=O=C(OC)C1=C(OC)C=CC=2C=CC=CC21
accession=JP002149
date=2016.01.19 (Created 2008.10.21, modified 2011.05.06)
author=KOGA M, UNIV. OF OCCUPATIONAL AND ENVIRONMENTAL HEALTH
license=CC BY-NC-SA
exact mass=216.07864
ionization energy=70 eV
ion type=[M]+*
computed spectral entropy=1.8588575807754528
computed normalized entropy=0.7043642288159201
SPLASH=splash10-00kr-0930000000-1ab8c6f60dd80efe973b
submitter=submitter = University of Tokyo Team (Faculty of Engineering, University of Tokyo)
MoNA Rating=3.75

>  <NUM PEAKS>  (5098) 
14

>  <MASS SPECTRAL PEAKS>  (5098) 
88 5
114 15.5
115 6.4
127 1.63
128 5
129 5.4
142 16.3
149 3.88
150 4.6
170 8.9
185 99.99
186 1.61
216 62.3
217 9.9

>  <PREDICTED SPECTRUM>  (5098) 
14 9
15 108
16 8
17 16
18 2
26 9
27 30
28 35
29 59
31 34
32 22
33 14
37 12
38 38
39 137
40 52
41 111
42 34
43 301
44 132
45 99
49 39
50 220
51 277
52 101
53 160
54 27
55 77
56 50
57 70
59 135
61 87
62 239
63 381
64 137
65 121
66 25
67 3
68 6
69 130
70 78
71 214
72 39
74 265
75 325
76 287
77 328
78 114
79 47
83 12
84 119
85 88
86 193
87 232
88 242
89 251
90 136
91 99
92 15
97 72
98 208
99 300
100 155
101 288
102 159
103 110
104 75
106 7
110 23
111 82
112 112
113 429
114 464
115 408
116 78
117 101
118 14
125 121
126 435
127 544
128 337
129 363
130 218
131 53
139 133
140 144
141 431
142 466
143 282
144 150
145 132
153 84
154 90
155 409
156 332
157 261
158 156
159 26
169 444
170 442
171 276
172 84
173 122
174 25
183 224
184 505
185 973
186 328
187 190
188 49
199 118
200 112
201 247
202 80
215 58
216 999
217 370
218 133

$$$$

     RDKit          2D

 20 21  0  0  0  0  0  0  0  0999 V2000
    0.6652   -2.2841    0.0000 C   0  0  0  0  0  0  0  0  0  0  0  0
    4.5623    1.4659    0.0000 C   0  0  0  0  0  0  0  0  0  0  0  0
    5.8614    2.2159    0.0000 H   0  0  0  0  0  0  0  0  0  0  0  0
    3.2628    2.2167    0.0000 C   0  0  0  0  0  0  0  0  0  0  0  0
    3.2631    3.7167    0.0000 H   0  0  0  0  0  0  0  0  0  0  0  0
    4.5628   -0.0350    0.0000 C   0  0  0  0  0  0  0  0  0  0  0  0
    5.8620   -0.7848    0.0000 H   0  0  0  0  0  0  0  0  0  0  0  0
    1.9638    1.4667    0.0000 C   0  0  0  0  0  0  0  0  0  0  0  0
    0.6646    2.2165    0.0000 H   0  0  0  0  0  0  0  0  0  0  0  0
    3.2638   -0.7850    0.0000 C   0  0  0  0  0  0  0  0  0  0  0  0
    3.2635   -2.2850    0.0000 H   0  0  0  0  0  0  0  0  0  0  0  0
   -1.9291   -0.7905    0.0000 C   0  0  0  0  0  0  0  0  0  0  0  0
   -0.6265    1.4408    0.0000 C   0  0  0  0  0  0  0  0  0  0  0  0
   -3.2172   -0.0720    0.0000 C   0  0  0  0  0  0  0  0  0  0  0  0
   -1.9550    2.2284    0.0000 C   0  0  0  0  0  0  0  0  0  0  0  0
    0.6652   -0.7841    0.0000 C   0  0  0  0  0  0  0  0  0  0  0  0
    1.9643   -0.0341    0.0000 C   0  0  0  0  0  0  0  0  0  0  0  0
   -0.6338   -0.0341    0.0000 C   0  0  0  0  0  0  0  0  0  0  0  0
   -3.2503    1.4720    0.0000 C   0  0  0  0  0  0  0  0  0  0  0  0
   -4.5591    2.2048    0.0000 O   0  0  0  0  0  0  0  0  0  0  0  0
  2  3  1  0
  4  5  1  0
  6  7  1  0
  8  9  1  0
 10 11  1  0
  4  2  2  0
  6  2  1  0
  8  4  1  0
 10  6  2  0
 14 12  2  0
 15 13  1  0
 16  1  1  0
 17  8  2  0
 17 10  1  0
 17 16  1  0
 18 12  1  0
 18 13  2  0
 18 16  1  0
 19 14  1  0
 19 15  2  0
 20 19  1  0
M  ISO  5   3   2   5   2   7   2   9   2  11   2
M  END
>  <NAME>  (5099) 
PARA-(ALPHA-METHYLBENZYL(5D))PHENOL

>  <SYNONYMS>  (5099) 


>  <SPECTRUM TYPE>  (5099) 
MS1

>  <INSTRUMENT TYPE>  (5099) 
EI-B

>  <INSTRUMENT>  (5099) 
JEOL JMS-01-SG

>  <ION MODE>  (5099) 
P

>  <INCHIKEY>  (5099) 
XHASMJXNUHCHBL-VIQYUKPQSA-N

>  <FORMULA>  (5099) 
C14H14O

>  <EXACT MASS>  (5099) 
203.135848798

>  <MW>  (5099) 
203

>  <ID>  (5099) 
JP002148

>  <CONTRIBUTOR>  (5099) 
University of Tokyo Team, {Faculty of Engineering, University of Tokyo

>  <COMMENT>  (5099) 
SMILES=Oc(c2)ccc(c2)C(C)c(c([2H])1)c([2H])c([2H])c([2H])c([2H])1
InChI=InChI=1S/C14H14O/c1-11(12-5-3-2-4-6-12)13-7-9-14(15)10-8-13/h2-11,15H,1H3/i2D,3D,4D,5D,6D
computed SMILES=[H]C=1C(=C([H])C([H])=C([H])C1[H])C(C2=CC=C(O)C=C2)C
accession=JP002148
date=2016.01.19 (Created 2008.10.21, modified 2011.05.06)
author=KOGA M, UNIV. OF OCCUPATIONAL AND ENVIRONMENTAL HEALTH
license=CC BY-NC-SA
exact mass=198.10447
ionization energy=70 eV
ion type=[M]+*
computed spectral entropy=2.305112852600322
computed normalized entropy=0.7571344602485496
SPLASH=splash10-000i-2900000000-155160b2a02a5708d277
submitter=submitter = University of Tokyo Team (Faculty of Engineering, University of Tokyo)
MoNA Rating=3.75

>  <NUM PEAKS>  (5099) 
21

>  <MASS SPECTRAL PEAKS>  (5099) 
44 8.1
51 7.2
55 7.2
56 0.72
57 7.2
65 7.5
77 8.1
78 0.72
91 7.2
121 7.2
157 7.2
158 0.72
160 7.2
169 14.7
170 12.5
186 0.72
187 8.8
188 99.99
189 15.7
203 3.61
204 7.5

>  <PREDICTED SPECTRUM>  (5099) 
14 4
15 14
17 7
18 2
26 7
27 57
28 64
29 44
30 55
32 28
33 1
34 7
37 19
38 75
39 317
40 144
41 308
42 233
43 128
44 159
49 21
50 169
51 307
52 224
53 210
54 120
55 181
56 182
57 124
58 33
62 42
63 140
64 114
65 254
66 142
67 144
68 65
69 140
70 137
71 60
74 22
75 120
76 183
77 401
78 216
79 182
80 136
81 132
82 85
83 50
84 60
87 4
88 9
89 227
90 121
91 331
92 128
93 115
94 134
95 74
96 73
97 9
98 23
101 34
102 64
103 185
104 189
105 78
106 22
107 156
108 113
109 118
110 91
111 51
112 62
113 14
114 9
115 277
116 175
117 202
118 131
119 61
120 91
126 21
127 141
128 127
129 60
130 142
131 192
132 161
133 66
139 40
140 82
141 91
143 134
144 100
145 182
146 149
147 133
148 70
149 10
151 66
152 133
153 115
154 165
155 114
156 116
157 157
158 165
159 146
160 109
161 31
165 20
166 67
168 75
169 137
170 270
171 254
172 92
173 305
174 156
175 34
182 43
183 58
184 167
185 212
186 564
187 320
188 897
189 372
190 96
198 5
199 68
200 110
201 153
202 452
203 999
204 402
205 94

$$$$

     RDKit          2D

 15 16  0  0  0  0  0  0  0  0999 V2000
    6.0441    1.1454    0.0000 C   0  0  0  0  0  0  0  0  0  0  0  0
   -3.0200   -1.1200    0.0000 C   0  0  0  0  0  0  0  0  0  0  0  0
   -3.0200    0.3600    0.0000 C   0  0  0  0  0  0  0  0  0  0  0  0
   -1.7200   -1.8800    0.0000 C   0  0  0  0  0  0  0  0  0  0  0  0
   -1.7500    1.1100    0.0000 C   0  0  0  0  0  0  0  0  0  0  0  0
    0.8800   -1.8800    0.0000 C   0  0  0  0  0  0  0  0  0  0  0  0
    2.1700   -1.1200    0.0000 C   0  0  0  0  0  0  0  0  0  0  0  0
   -0.4200   -1.1200    0.0000 C   0  0  0  0  0  0  0  0  0  0  0  0
   -0.4200    0.3600    0.0000 C   0  0  0  0  0  0  0  0  0  0  0  0
    2.1500    0.3800    0.0000 C   0  0  0  0  0  0  0  0  0  0  0  0
    0.8500    1.1400    0.0000 C   0  0  0  0  0  0  0  0  0  0  0  0
    3.4461    1.1351    0.0000 C   0  0  0  0  0  0  0  0  0  0  0  0
    0.8337    2.6399    0.0000 O   0  0  0  0  0  0  0  0  0  0  0  0
    3.4401    2.6351    0.0000 O   0  0  0  0  0  0  0  0  0  0  0  0
    4.7481    0.3903    0.0000 O   0  0  0  0  0  0  0  0  0  0  0  0
  3  2  2  0
  4  2  1  0
  5  3  1  0
  7  6  2  0
  8  4  2  0
  8  6  1  0
  9  5  2  0
  9  8  1  0
 10  7  1  0
 11  9  1  0
 11 10  2  0
 12 10  1  0
 13 11  1  0
 14 12  2  0
 15  1  1  0
 15 12  1  0
M  END
>  <NAME>  (5100) 
1-HYDROXY-2-NAPHTHOIC ACID METHYL ESTER

>  <SYNONYMS>  (5100) 


>  <SPECTRUM TYPE>  (5100) 
MS1

>  <INSTRUMENT TYPE>  (5100) 
EI-B

>  <INSTRUMENT>  (5100) 
JEOL JMS-01-SG

>  <ION MODE>  (5100) 
P

>  <INCHIKEY>  (5100) 
HMIBDRSTVGFJPB-UHFFFAOYSA-N

>  <FORMULA>  (5100) 
C12H10O3

>  <EXACT MASS>  (5100) 
202.06299417999998

>  <MW>  (5100) 
202

>  <ID>  (5100) 
JP002147

>  <CONTRIBUTOR>  (5100) 
University of Tokyo Team, {Faculty of Engineering, University of Tokyo

>  <COMMENT>  (5100) 
SMILES=COC(=O)c(c1)c(O)c(c2)c(ccc2)c1
InChI=InChI=1S/C12H10O3/c1-15-12(14)10-7-6-8-4-2-3-5-9(8)11(10)13/h2-7,13H,1H3
computed SMILES=O=C(OC)C=1C=CC=2C=CC=CC2C1O
accession=JP002147
date=2016.01.19 (Created 2008.10.21, modified 2011.05.06)
author=KOGA M, UNIV. OF OCCUPATIONAL AND ENVIRONMENTAL HEALTH
license=CC BY-NC-SA
exact mass=202.06299
ionization energy=70 eV
ion type=[M]+*
computed spectral entropy=1.977466550110299
computed normalized entropy=0.7957910814392188
SPLASH=splash10-00di-1910000000-e150b9bb19db367685cb
submitter=submitter = University of Tokyo Team (Faculty of Engineering, University of Tokyo)
MoNA Rating=3.75

>  <NUM PEAKS>  (5100) 
12

>  <MASS SPECTRAL PEAKS>  (5100) 
63 10.3
71 13.1
85 7.9
113 1.07
114 37.4
115 19.1
142 62.5
143 0.98
170 99.99
171 17
202 41.3
203 6.2

>  <PREDICTED SPECTRUM>  (5100) 
15 3
26 20
27 7
28 76
29 51
30 37
31 18
32 11
38 46
39 131
40 46
43 67
44 148
49 21
50 167
51 269
52 134
53 156
57 135
62 136
63 279
64 84
65 87
74 112
75 105
76 256
77 316
78 139
85 14
86 110
87 147
88 83
89 61
103 11
113 321
114 774
115 402
116 30
126 147
141 263
142 372
143 240
169 240
170 999
171 544
172 157
173 110
202 780
203 269

$$$$

     RDKit          2D

 15 16  0  0  0  0  0  0  0  0999 V2000
    2.2889   -1.7216    0.0000 C   0  0  0  0  0  0  0  0  0  0  0  0
    6.1861    2.0284    0.0000 C   0  0  0  0  0  0  0  0  0  0  0  0
    4.8865    2.7792    0.0000 C   0  0  0  0  0  0  0  0  0  0  0  0
    6.1865    0.5276    0.0000 C   0  0  0  0  0  0  0  0  0  0  0  0
    3.5875    2.0292    0.0000 C   0  0  0  0  0  0  0  0  0  0  0  0
    4.8875   -0.2224    0.0000 C   0  0  0  0  0  0  0  0  0  0  0  0
   -0.3054   -0.2280    0.0000 C   0  0  0  0  0  0  0  0  0  0  0  0
    0.9972    2.0033    0.0000 C   0  0  0  0  0  0  0  0  0  0  0  0
   -1.5935    0.4905    0.0000 C   0  0  0  0  0  0  0  0  0  0  0  0
   -0.3312    2.7909    0.0000 C   0  0  0  0  0  0  0  0  0  0  0  0
    2.2889   -0.2216    0.0000 C   0  0  0  0  0  0  0  0  0  0  0  0
    3.5880    0.5284    0.0000 C   0  0  0  0  0  0  0  0  0  0  0  0
    0.9899    0.5284    0.0000 C   0  0  0  0  0  0  0  0  0  0  0  0
   -1.6266    2.0345    0.0000 C   0  0  0  0  0  0  0  0  0  0  0  0
   -2.9354    2.7674    0.0000 O   0  0  0  0  0  0  0  0  0  0  0  0
  3  2  2  0
  4  2  1  0
  5  3  1  0
  6  4  2  0
  9  7  2  0
 10  8  1  0
 11  1  1  0
 12  5  2  0
 12  6  1  0
 12 11  1  0
 13  7  1  0
 13  8  2  0
 13 11  1  0
 14  9  1  0
 14 10  2  0
 15 14  1  0
M  END
>  <NAME>  (5101) 
PARA-(ALPHA-METHYLBENZYL)PHENOL

>  <SYNONYMS>  (5101) 


>  <SPECTRUM TYPE>  (5101) 
MS1

>  <INSTRUMENT TYPE>  (5101) 
EI-B

>  <INSTRUMENT>  (5101) 
JEOL JMS-01-SG

>  <ION MODE>  (5101) 
P

>  <INCHIKEY>  (5101) 
XHASMJXNUHCHBL-UHFFFAOYSA-N

>  <FORMULA>  (5101) 
C14H14O

>  <EXACT MASS>  (5101) 
198.104465068

>  <MW>  (5101) 
198

>  <ID>  (5101) 
JP002146

>  <CONTRIBUTOR>  (5101) 
University of Tokyo Team, {Faculty of Engineering, University of Tokyo

>  <COMMENT>  (5101) 
SMILES=Oc(c2)ccc(c2)C(C)c(c1)cccc1
InChI=InChI=1S/C14H14O/c1-11(12-5-3-2-4-6-12)13-7-9-14(15)10-8-13/h2-11,15H,1H3
computed SMILES=OC1=CC=C(C=C1)C(C=2C=CC=CC2)C
accession=JP002146
date=2016.01.19 (Created 2008.10.21, modified 2011.05.06)
author=KOGA M, UNIV. OF OCCUPATIONAL AND ENVIRONMENTAL HEALTH
license=CC BY-NC-SA
exact mass=198.10447
ionization energy=70 eV
ion type=[M]+*
computed spectral entropy=2.6419544074014643
computed normalized entropy=0.8016035121921578
SPLASH=splash10-001i-5900000000-d67bcb715aec85ab57fb
submitter=submitter = University of Tokyo Team (Faculty of Engineering, University of Tokyo)
MoNA Rating=3.75

>  <NUM PEAKS>  (5101) 
27

>  <MASS SPECTRAL PEAKS>  (5101) 
44 10
45 6.1
51 6.1
55 1.93
56 10.2
57 15.2
67 0.68
69 12.1
70 7.5
71 7.8
75 10.2
77 0.86
78 6.8
79 5
81 6.4
82 0.58
83 8.3
84 5.8
91 8.3
94 0.58
97 5.7
149 9.5
165 25.7
183 99.99
184 15.1
198 51.9
199 9.3

>  <PREDICTED SPECTRUM>  (5101) 
27 40
28 5
29 7
33 1
34 2
36 11
37 6
38 42
39 166
40 54
41 111
42 31
43 63
44 50
47 7
49 19
50 144
51 246
52 140
53 133
54 32
55 104
56 41
57 68
61 21
62 63
63 149
64 107
65 194
66 72
67 69
68 16
69 84
70 87
71 32
72 7
73 32
74 75
75 148
76 160
77 308
78 184
79 174
80 66
81 62
82 108
83 134
84 96
85 69
86 77
87 47
88 30
89 140
90 90
91 343
92 121
93 52
94 27
95 67
96 83
97 105
98 83
99 40
100 4
101 58
102 123
103 250
104 150
105 324
106 114
107 124
108 29
109 6
110 6
111 47
112 48
113 47
114 0
115 201
116 41
119 127
120 156
121 204
122 90
123 11
126 86
127 155
128 180
129 76
135 23
136 24
137 40
138 56
139 133
140 73
141 146
142 57
143 8
144 0
145 16
149 24
150 92
151 177
152 281
153 196
154 64
155 99
156 6
157 14
158 11
163 62
164 85
165 331
166 195
167 132
168 173
169 74
171 15
177 8
178 217
179 119
180 30
181 225
182 137
183 999
184 423
185 125
195 49
196 16
197 94
198 508
199 205
200 60

$$$$

     RDKit          2D

 12 12  0  0  0  0  0  0  0  0999 V2000
   -3.8894    0.4766    0.0000 C   0  0  0  0  0  0  0  0  0  0  0  0
   -4.1392   -1.9308    0.0000 C   0  0  0  0  0  0  0  0  0  0  0  0
   -1.0382   -2.3505    0.0000 C   0  0  0  0  0  0  0  0  0  0  0  0
    0.4535   -2.5079    0.0000 C   0  0  0  0  0  0  0  0  0  0  0  0
    0.2960   -3.9996    0.0000 F   0  0  0  0  0  0  0  0  0  0  0  0
    1.9452   -2.6654    0.0000 F   0  0  0  0  0  0  0  0  0  0  0  0
    0.6109   -1.0162    0.0000 F   0  0  0  0  0  0  0  0  0  0  0  0
   -5.3492    0.1650    0.0000 N   0  0  0  0  0  0  0  0  0  0  0  0
   -5.5149   -1.3279    0.0000 N   0  0  0  0  0  0  0  0  0  0  0  0
   -1.6477   -0.9799    0.0000 N   0  0  0  0  0  0  0  0  0  0  0  0
   -3.1394   -0.8224    0.0000 N   0  0  0  0  0  0  0  0  0  0  0  0
   -1.9204   -3.5636    0.0000 O   0  0  0  0  0  0  0  0  0  0  0  0
  4  3  1  0
  5  4  1  0
  6  4  1  0
  7  4  1  0
  8  1  2  0
  9  2  2  0
  9  8  1  0
 10  3  2  3
 11  1  1  0
 11  2  1  0
 11 10  1  0
 12  3  1  0
M  END
>  <NAME>  (5102) 
4-(N-TRIFLUOROACETYL)AMINO-1,2,4-TRIAZOLE

>  <SYNONYMS>  (5102) 


>  <SPECTRUM TYPE>  (5102) 
MS1

>  <INSTRUMENT TYPE>  (5102) 
EI-B

>  <INSTRUMENT>  (5102) 
JEOL JMS-01-SG

>  <ION MODE>  (5102) 
P

>  <INCHIKEY>  (5102) 
YTBZSBHBBPVUID-UHFFFAOYSA-N

>  <FORMULA>  (5102) 
C4H3F3N4O

>  <EXACT MASS>  (5102) 
180.025895376

>  <MW>  (5102) 
180

>  <ID>  (5102) 
JP002144

>  <CONTRIBUTOR>  (5102) 
University of Tokyo Team, {Faculty of Engineering, University of Tokyo

>  <COMMENT>  (5102) 
SMILES=O=C(Nn(c1)cnn1)C(F)(F)F
InChI=InChI=1S/C4H3F3N4O/c5-4(6,7)3(12)10-11-1-8-9-2-11/h1-2H,(H,10,12)
computed SMILES=FC(F)(F)C(O)=NN1C=NN=C1
accession=JP002144
date=2016.01.19 (Created 2008.10.21, modified 2011.05.06)
author=KOGA M, UNIV. OF OCCUPATIONAL AND ENVIRONMENTAL HEALTH
license=CC BY-NC-SA
exact mass=180.0259
ionization energy=70 eV
ion type=[M]+*
computed spectral entropy=1.3863956923587908
computed normalized entropy=0.6667153966919496
SPLASH=splash10-001i-4900000000-0b863527ddd815ec2f67
submitter=submitter = University of Tokyo Team (Faculty of Engineering, University of Tokyo)
MoNA Rating=3.75

>  <NUM PEAKS>  (5102) 
8

>  <MASS SPECTRAL PEAKS>  (5102) 
51 13.1
53 5.6
69 41.2
84 0.84
111 14
153 5
180 99.99
181 5.9

>  <PREDICTED SPECTRUM>  (5102) 
14 30
16 15
17 16
19 22
25 26
26 82
27 142
28 137
29 123
30 119
31 172
33 19
34 13
36 85
37 79
38 300
39 503
40 333
41 276
42 214
43 162
44 217
45 165
46 71
47 101
50 367
51 149
52 166
53 320
54 140
55 244
56 121
57 141
58 21
63 48
64 10
65 147
66 144
67 182
68 252
69 999
70 165
72 0
81 19
82 20
83 284
84 159
85 9
91 122
93 56
111 351
112 214
161 41
180 486
181 76

$$$$

     RDKit          2D

 12 12  0  0  0  0  0  0  0  0999 V2000
   -1.3399   -3.3969    0.0000 C   0  0  0  0  0  0  0  0  0  0  0  0
    2.9711   -0.8815    0.0000 C   0  0  0  0  0  0  0  0  0  0  0  0
    0.8698   -2.4095    0.0000 C   0  0  0  0  0  0  0  0  0  0  0  0
    4.4628   -0.7240    0.0000 C   0  0  0  0  0  0  0  0  0  0  0  0
    4.6202   -2.2158    0.0000 F   0  0  0  0  0  0  0  0  0  0  0  0
    5.9545   -0.5666    0.0000 F   0  0  0  0  0  0  0  0  0  0  0  0
    4.3053    0.7677    0.0000 F   0  0  0  0  0  0  0  0  0  0  0  0
    0.1198   -3.7086    0.0000 N   0  0  0  0  0  0  0  0  0  0  0  0
   -1.5057   -1.9041    0.0000 N   0  0  0  0  0  0  0  0  0  0  0  0
    2.3616   -2.2521    0.0000 N   0  0  0  0  0  0  0  0  0  0  0  0
   -0.1299   -1.3012    0.0000 N   0  0  0  0  0  0  0  0  0  0  0  0
    2.0888    0.3316    0.0000 O   0  0  0  0  0  0  0  0  0  0  0  0
  4  2  1  0
  5  4  1  0
  6  4  1  0
  7  4  1  0
  8  1  2  0
  8  3  1  0
  9  1  1  0
 10  2  2  3
 10  3  1  0
 11  3  2  0
 11  9  1  0
 12  2  1  0
M  END
>  <NAME>  (5103) 
3-(N-TRIFLUOROACETYL)AMINO-1,2,4-TRIAZOLE

>  <SYNONYMS>  (5103) 


>  <SPECTRUM TYPE>  (5103) 
MS1

>  <INSTRUMENT TYPE>  (5103) 
EI-B

>  <INSTRUMENT>  (5103) 
JEOL JMS-01-SG

>  <ION MODE>  (5103) 
P

>  <INCHIKEY>  (5103) 
YZJAOMRBFRWXNC-UHFFFAOYSA-N

>  <FORMULA>  (5103) 
C4H3F3N4O

>  <EXACT MASS>  (5103) 
180.025895376

>  <MW>  (5103) 
180

>  <ID>  (5103) 
JP002143

>  <CONTRIBUTOR>  (5103) 
University of Tokyo Team, {Faculty of Engineering, University of Tokyo

>  <COMMENT>  (5103) 
SMILES=C1=NNC(=N1)NC(=O)C(F)(F)F
InChI=InChI=1S/C4H3F3N4O/c5-4(6,7)2(12)10-3-8-1-9-11-3/h1H,(H2,8,9,10,11,12)
computed SMILES=FC(F)(F)C(O)=NC=1N=CNN1
accession=JP002143
date=2016.01.19 (Created 2008.10.21, modified 2011.05.06)
author=KOGA M, UNIV. OF OCCUPATIONAL AND ENVIRONMENTAL HEALTH
license=CC BY-NC-SA
exact mass=180.0259
ionization energy=70 eV
ion type=[M]+*
computed spectral entropy=1.5450391845709124
computed normalized entropy=0.7031776362359933
SPLASH=splash10-00lr-5900000000-8defba1107eb01ed8e87
submitter=submitter = University of Tokyo Team (Faculty of Engineering, University of Tokyo)
MoNA Rating=3.75

>  <NUM PEAKS>  (5103) 
9

>  <MASS SPECTRAL PEAKS>  (5103) 
50 8.1
51 9.2
53 6.1
67 1.03
69 65
111 42.7
149 5.1
180 99.99
181 5.6

>  <PREDICTED SPECTRUM>  (5103) 
14 14
16 3
17 1
19 3
25 28
26 70
27 94
28 116
29 20
31 132
32 3
33 53
34 16
36 59
37 107
38 226
39 210
40 283
41 167
42 424
43 165
44 267
45 138
46 135
48 9
49 15
50 158
51 192
52 313
53 402
54 346
55 200
56 160
57 173
58 140
63 73
64 65
65 152
66 153
67 336
68 324
69 852
70 228
71 45
72 3
76 38
81 208
82 195
83 355
84 272
85 104
91 60
92 57
93 136
94 60
95 140
96 37
97 31
107 11
110 14
111 999
112 306
113 38
135 98
153 10
160 114
161 158
162 43
163 91
180 595
181 166
182 2

$$$$

     RDKit          2D

 10  9  0  0  0  0  0  0  0  0999 V2000
   -7.1447    4.8750    0.0000 C   0  0  0  0  0  0  0  0  0  0  0  0
    1.9486    5.6250    0.0000 C   0  0  0  0  0  0  0  0  0  0  0  0
   -5.8457    5.6250    0.0000 C   0  0  0  0  0  0  0  0  0  0  0  0
    0.6495    4.8750    0.0000 C   0  0  0  0  0  0  0  0  0  0  0  0
   -3.2476    5.6250    0.0000 C   0  0  0  0  0  0  0  0  0  0  0  0
   -1.9486    4.8750    0.0000 C   0  0  0  0  0  0  0  0  0  0  0  0
   -8.4437    5.6250    0.0000 N   0  0  0  0  0  0  0  0  0  0  0  0
    3.2476    4.8750    0.0000 N   0  0  0  0  0  0  0  0  0  0  0  0
   -4.5466    4.8750    0.0000 N   0  0  0  0  0  0  0  0  0  0  0  0
   -0.6495    5.6250    0.0000 N   0  0  0  0  0  0  0  0  0  0  0  0
  3  1  1  0
  4  2  1  0
  6  5  1  0
  7  1  1  0
  8  2  1  0
  9  3  1  0
  9  5  1  0
 10  4  1  0
 10  6  1  0
M  END
>  <NAME>  (5104) 
TRIETHYLENETETRAMINE

>  <SYNONYMS>  (5104) 


>  <SPECTRUM TYPE>  (5104) 
MS1

>  <INSTRUMENT TYPE>  (5104) 
EI-B

>  <INSTRUMENT>  (5104) 
JEOL JMS-01-SG

>  <ION MODE>  (5104) 
P

>  <INCHIKEY>  (5104) 
VILCJCGEZXAXTO-UHFFFAOYSA-N

>  <FORMULA>  (5104) 
C6H18N4

>  <EXACT MASS>  (5104) 
146.15314657599998

>  <MW>  (5104) 
146

>  <ID>  (5104) 
JP002142

>  <CONTRIBUTOR>  (5104) 
University of Tokyo Team, {Faculty of Engineering, University of Tokyo

>  <COMMENT>  (5104) 
SMILES=NCCNCCNCCN
InChI=InChI=1S/C6H18N4/c7-1-3-9-5-6-10-4-2-8/h9-10H,1-8H2
computed SMILES=NCCNCCNCCN
accession=JP002142
date=2016.01.19 (Created 2008.10.21, modified 2011.05.06)
author=KOGA M, UNIV. OF OCCUPATIONAL AND ENVIRONMENTAL HEALTH
license=CC BY-NC-SA
exact mass=146.15315
ionization energy=70 eV
ion type=[M]+*
computed spectral entropy=1.9600252738296784
computed normalized entropy=0.7426990129522596
SPLASH=splash10-0006-9000000000-dc59b9e5ca78bd735bee
submitter=submitter = University of Tokyo Team (Faculty of Engineering, University of Tokyo)
MoNA Rating=3.75

>  <NUM PEAKS>  (5104) 
14

>  <MASS SPECTRAL PEAKS>  (5104) 
43 12.8
44 99.99
56 24.9
57 0.53
58 8.4
61 8
70 13
73 3.22
85 6.7
87 5.6
97 6.6
98 0.63
99 23.9
116 13.5

>  <PREDICTED SPECTRUM>  (5104) 
14 44
15 154
16 69
17 122
18 251
19 3
25 4
26 42
27 160
28 294
29 233
30 919
31 109
32 43
40 58
41 134
42 355
43 334
44 999
45 418
46 113
54 102
55 124
56 381
57 271
58 150
59 120
60 77
61 183
62 18
68 103
69 27
70 264
71 198
72 61
73 369
74 121
85 206
86 70
87 351
88 96
89 16
97 45
98 102
99 590
112 45
116 512
117 212
147 23

$$$$

     RDKit          2D

 12 12  0  0  0  0  0  0  0  0999 V2000
    7.4251    1.2910    0.0000 C   0  0  0  0  0  0  0  0  0  0  0  0
   -1.6700   -0.9600    0.0000 C   0  0  0  0  0  0  0  0  0  0  0  0
   -1.6700    0.5400    0.0000 C   0  0  0  0  0  0  0  0  0  0  0  0
   -0.3700   -1.7100    0.0000 C   0  0  0  0  0  0  0  0  0  0  0  0
   -0.3700    1.2900    0.0000 C   0  0  0  0  0  0  0  0  0  0  0  0
    0.9300   -0.9600    0.0000 C   0  0  0  0  0  0  0  0  0  0  0  0
    3.5281    0.5404    0.0000 C   0  0  0  0  0  0  0  0  0  0  0  0
    6.1262    0.5408    0.0000 C   0  0  0  0  0  0  0  0  0  0  0  0
    0.9300    0.5400    0.0000 C   0  0  0  0  0  0  0  0  0  0  0  0
    6.1264   -0.9592    0.0000 O   0  0  0  0  0  0  0  0  0  0  0  0
    4.8270    1.2906    0.0000 O   0  0  0  0  0  0  0  0  0  0  0  0
    2.2289    1.2902    0.0000 O   0  0  0  0  0  0  0  0  0  0  0  0
  3  2  2  0
  4  2  1  0
  5  3  1  0
  6  4  2  0
  8  1  1  0
  9  5  2  0
  9  6  1  0
 10  8  2  0
 11  7  1  0
 11  8  1  0
 12  7  1  0
 12  9  1  0
M  END
>  <NAME>  (5105) 
PHENOXY METHYL ACETATE

>  <SYNONYMS>  (5105) 


>  <SPECTRUM TYPE>  (5105) 
MS1

>  <INSTRUMENT TYPE>  (5105) 
EI-B

>  <INSTRUMENT>  (5105) 
HITACHI RMU-7M

>  <ION MODE>  (5105) 
P

>  <INCHIKEY>  (5105) 
HTZSHXWXQWAYEO-UHFFFAOYSA-N

>  <FORMULA>  (5105) 
C9H10O3

>  <EXACT MASS>  (5105) 
166.06299417999998

>  <MW>  (5105) 
166

>  <ID>  (5105) 
JP002141

>  <CONTRIBUTOR>  (5105) 
University of Tokyo Team, {Faculty of Engineering, University of Tokyo

>  <COMMENT>  (5105) 
SMILES=CC(=O)OCOc(c1)cccc1
InChI=InChI=1S/C9H10O3/c1-8(10)11-7-12-9-5-3-2-4-6-9/h2-6H,7H2,1H3
computed SMILES=O=C(OCOC=1C=CC=CC1)C
accession=JP002141
date=2016.01.19 (Created 2008.10.21, modified 2011.05.06)
author=TAJIMA S, GUNMA COLLEGE OF TECHNOLOGY
license=CC BY-NC-SA
exact mass=166.06299
ionization energy=70 eV
ion type=[M]+*
computed spectral entropy=2.287369003465932
computed normalized entropy=0.6864431629214932
SPLASH=splash10-0ar0-9800000000-56af52db42155eee1096
submitter=submitter = University of Tokyo Team (Faculty of Engineering, University of Tokyo)
MoNA Rating=3.75

>  <NUM PEAKS>  (5105) 
28

>  <MASS SPECTRAL PEAKS>  (5105) 
15 3.16
27 1.14
28 4.3
29 1.77
31 1.2
32 1.2
38 1.39
39 6.33
42 1.64
44 3.16
45 8.79
50 3.86
51 14.8
59 2.53
63 1.9
64 1.08
65 6.7
66 1.2
77 73.69
78 6.14
79 23.59
80 1.58
91 1.2
94 3.86
107 99.99
108 8.29
166 59.65
167 5.95

>  <PREDICTED SPECTRUM>  (5105) 
14 5
15 22
25 4
26 40
27 140
28 21
29 130
31 35
37 19
38 124
39 245
40 54
41 45
42 74
43 363
44 67
45 100
49 26
50 235
51 462
52 109
53 100
62 62
63 192
64 81
65 261
66 140
73 72
74 90
75 89
76 70
77 828
78 291
79 608
80 108
93 168
94 304
95 90
105 26
107 999
108 299
109 5
123 11
124 61
166 732
167 234
168 15

$$$$

     RDKit          2D

  5  4  0  0  0  0  0  0  0  0999 V2000
   -0.0000   -0.0000    0.0000 C   0  0  0  0  0  0  0  0  0  0  0  0
   -1.2990    3.7500    0.0000 C   0  0  0  0  0  0  0  0  0  0  0  0
    0.0000    1.5000    0.0000 C   0  0  0  0  0  0  0  0  0  0  0  0
   -1.2990    2.2500    0.0000 C   0  0  0  0  0  0  0  0  0  0  0  0
   -2.5981    1.5000    0.0000 O   0  0  0  0  0  0  0  0  0  0  0  0
  3  1  2  0
  4  2  1  0
  4  3  1  0
  5  4  2  0
M  END
>  <NAME>  (5106) 
METHYL VINYL KETONE

>  <SYNONYMS>  (5106) 


>  <SPECTRUM TYPE>  (5106) 
MS1

>  <INSTRUMENT TYPE>  (5106) 
EI-B

>  <INSTRUMENT>  (5106) 
HITACHI RMU-7M

>  <ION MODE>  (5106) 
P

>  <INCHIKEY>  (5106) 
FUSUHKVFWTUUBE-UHFFFAOYSA-N

>  <FORMULA>  (5106) 
C4H6O

>  <EXACT MASS>  (5106) 
70.041864812

>  <MW>  (5106) 
70

>  <ID>  (5106) 
JP002135

>  <CONTRIBUTOR>  (5106) 
University of Tokyo Team, {Faculty of Engineering, University of Tokyo

>  <COMMENT>  (5106) 
computed SMILES=O=C(C=C)C
SMILES=C=CC(C)=O
InChI=InChI=1S/C4H6O/c1-3-4(2)5/h3H,1H2,2H3
accession=JP002135
date=2016.01.19 (Created 2008.10.21, modified 2011.05.06)
author=TAJIMA S, GUNMA COLLEGE OF TECHNOLOGY
license=CC BY-NC-SA
exact mass=70.04186
ionization energy=70 eV
ion type=[M]+*
computed spectral entropy=2.494056336383093
computed normalized entropy=0.7748221652772872
SPLASH=splash10-0006-9000000000-ed02292aef1db44add36
submitter=submitter = University of Tokyo Team (Faculty of Engineering, University of Tokyo)
MoNA Rating=3.75

>  <NUM PEAKS>  (5106) 
25

>  <MASS SPECTRAL PEAKS>  (5106) 
15 8.13
27 13.74
28 17.41
29 5.04
39 11.3
40 2.76
41 43.41
42 5.85
43 99.99
44 29.19
45 2.44
50 1.63
51 3.17
52 1.63
53 8.29
54 2.11
55 24.39
56 1.63
57 2.44
65 3.66
67 12.44
68 2.44
69 12.76
70 5.53
71 2.36

>  <PREDICTED SPECTRUM>  (5106) 
14 41
15 58
25 46
26 166
27 335
28 111
29 89
37 75
38 129
39 392
40 156
41 218
42 241
43 999
44 108
50 141
51 156
52 75
53 345
54 43
55 938
56 147
69 304
70 474
71 107

$$$$

     RDKit          2D

 14 14  0  0  0  0  0  0  0  0999 V2000
   -4.5464    1.4446    0.0000 C   0  0  0  0  0  0  0  0  0  0  0  0
   -5.8454    3.6946    0.0000 C   0  0  0  0  0  0  0  0  0  0  0  0
   -0.6493    5.1946    0.0000 C   0  0  0  0  0  0  0  0  0  0  0  0
    3.2478    1.4446    0.0000 C   0  0  0  0  0  0  0  0  0  0  0  0
    3.2483    2.9454    0.0000 C   0  0  0  0  0  0  0  0  0  0  0  0
    1.9483    0.6938    0.0000 C   0  0  0  0  0  0  0  0  0  0  0  0
    1.9493    3.6954    0.0000 C   0  0  0  0  0  0  0  0  0  0  0  0
    0.6493    1.4438    0.0000 C   0  0  0  0  0  0  0  0  0  0  0  0
   -4.5464    2.9446    0.0000 C   0  0  0  0  0  0  0  0  0  0  0  0
   -0.6493    3.6946    0.0000 C   0  0  0  0  0  0  0  0  0  0  0  0
    0.6498    2.9446    0.0000 C   0  0  0  0  0  0  0  0  0  0  0  0
   -3.2474    3.6946    0.0000 C   0  0  0  0  0  0  0  0  0  0  0  0
   -3.2474    5.1946    0.0000 O   0  0  0  0  0  0  0  0  0  0  0  0
   -1.9483    2.9446    0.0000 O   0  0  0  0  0  0  0  0  0  0  0  0
  5  4  2  0
  6  4  1  0
  7  5  1  0
  8  6  2  0
  9  1  2  0
  9  2  1  0
 10  3  1  0
 11  7  2  0
 11  8  1  0
 11 10  1  0
 12  9  1  0
 13 12  2  0
 14 10  1  0
 14 12  1  0
M  END
>  <NAME>  (5107) 
ALPHA-METHYLBENZYL METHACRYLATE

>  <SYNONYMS>  (5107) 
METHACRYLIC ACID ALPHA-METHYLBENZYL ESTER

>  <SPECTRUM TYPE>  (5107) 
MS1

>  <INSTRUMENT TYPE>  (5107) 
EI-B

>  <INSTRUMENT>  (5107) 
HITACHI RMU-7M

>  <ION MODE>  (5107) 
P

>  <INCHIKEY>  (5107) 
BQMWZHUIGYNOAL-UHFFFAOYSA-N

>  <FORMULA>  (5107) 
C12H14O2

>  <EXACT MASS>  (5107) 
190.099379688

>  <MW>  (5107) 
190

>  <ID>  (5107) 
JP002134

>  <CONTRIBUTOR>  (5107) 
University of Tokyo Team, {Faculty of Engineering, University of Tokyo

>  <COMMENT>  (5107) 
SMILES=CC(=C)C(=O)OC(C)c(c1)cccc1
InChI=InChI=1S/C12H14O2/c1-9(2)12(13)14-10(3)11-7-5-4-6-8-11/h4-8,10H,1H2,2-3H3
computed SMILES=O=C(OC(C=1C=CC=CC1)C)C(=C)C
accession=JP002134
date=2016.01.19 (Created 2008.10.21, modified 2011.05.06)
author=TAJIMA S, GUNMA COLLEGE OF TECHNOLOGY
license=CC BY-NC-SA
exact mass=190.09938
ionization energy=70 eV
ion type=[M]+*
computed spectral entropy=2.4988524327407777
computed normalized entropy=0.7969564797938197
SPLASH=splash10-0pvm-6900000000-ddd61fe8e43d35fe4b3d
submitter=submitter = University of Tokyo Team (Faculty of Engineering, University of Tokyo)
MoNA Rating=3.75

>  <NUM PEAKS>  (5107) 
23

>  <MASS SPECTRAL PEAKS>  (5107) 
27 4.11
28 4.39
39 10.05
41 36.18
43 14.09
50 1.52
51 8.61
52 1.52
69 71.21
70 12.11
77 20.94
78 13.1
79 12.87
103 14.39
104 77.91
105 99.99
106 7.77
121 15.23
145 60.17
146 6.7
172 1.68
175 1
190 1.22

>  <PREDICTED SPECTRUM>  (5107) 
26 55
27 173
28 5
29 31
36 4
37 47
38 95
39 294
40 101
41 360
42 65
43 146
44 55
45 45
49 1
50 145
51 235
52 148
53 184
54 20
58 41
60 2
61 16
62 40
63 108
64 44
65 100
66 4
68 61
69 707
70 232
71 54
74 55
75 38
76 29
77 353
78 261
79 295
80 10
86 25
87 31
89 14
91 104
92 24
102 80
103 369
104 809
105 999
106 249
121 202
122 157
190 150
191 24

$$$$

     RDKit          2D

 13 12  0  0  0  0  0  0  0  0999 V2000
    0.2010    0.7500    0.0000 C   0  0  0  0  0  0  0  0  0  0  0  0
    0.9510   -0.5490    0.0000 H   0  0  0  0  0  0  0  0  0  0  0  0
   -0.5490    2.0490    0.0000 H   0  0  0  0  0  0  0  0  0  0  0  0
   -1.0981   -0.0000    0.0000 H   0  0  0  0  0  0  0  0  0  0  0  0
    2.7990    0.7500    0.0000 C   0  0  0  0  0  0  0  0  0  0  0  0
    2.0490   -0.5490    0.0000 H   0  0  0  0  0  0  0  0  0  0  0  0
    4.0981   -0.0000    0.0000 H   0  0  0  0  0  0  0  0  0  0  0  0
    3.5490    2.0490    0.0000 H   0  0  0  0  0  0  0  0  0  0  0  0
    2.7990    5.2500    0.0000 C   0  0  0  0  0  0  0  0  0  0  0  0
    1.5000    1.5000    0.0000 C   0  0  0  0  0  0  0  0  0  0  0  0
    2.7990    3.7500    0.0000 C   0  0  0  0  0  0  0  0  0  0  0  0
    4.0981    3.0000    0.0000 O   0  0  0  0  0  0  0  0  0  0  0  0
    1.5000    3.0000    0.0000 O   0  0  0  0  0  0  0  0  0  0  0  0
  1  2  1  0
  1  3  1  0
  1  4  1  0
  5  6  1  0
  5  7  1  0
  5  8  1  0
 10  1  1  0
 10  5  1  0
 11  9  1  0
 12 11  2  0
 13 10  1  0
 13 11  1  0
M  ISO  6   2   2   3   2   4   2   6   2   7   2   8   2
M  END
>  <NAME>  (5108) 
ISOPROPYL ACETATE (1,1,1,3,3,3-D6)

>  <SYNONYMS>  (5108) 
ACETIC ACID ISOPROPYL ESTER (1,1,1,3,3,3-D6)

>  <SPECTRUM TYPE>  (5108) 
MS1

>  <INSTRUMENT TYPE>  (5108) 
EI-B

>  <INSTRUMENT>  (5108) 
HITACHI RMU-7M

>  <ION MODE>  (5108) 
P

>  <INCHIKEY>  (5108) 
JMMWKPVZQRWMSS-WFGJKAKNSA-N

>  <FORMULA>  (5108) 
C5H10O2

>  <EXACT MASS>  (5108) 
108.10574003599999

>  <MW>  (5108) 
108

>  <ID>  (5108) 
JP002133

>  <CONTRIBUTOR>  (5108) 
University of Tokyo Team, {Faculty of Engineering, University of Tokyo

>  <COMMENT>  (5108) 
SMILES=[2H]C([2H])([2H])C(C([2H])([2H])[2H])OC(C)=O
InChI=InChI=1S/C5H10O2/c1-4(2)7-5(3)6/h4H,1-3H3/i1D3,2D3
computed SMILES=[H]C([H])([H])C(OC(=O)C)C([H])([H])[H]
accession=JP002133
date=2016.01.19 (Created 2008.10.21, modified 2011.05.06)
author=TAJIMA S, GUNMA COLLEGE OF TECHNOLOGY
license=CC BY-NC-SA
exact mass=102.06808
ionization energy=70 eV
ion type=[M]+*
computed spectral entropy=2.097437428395647
computed normalized entropy=0.7256635492184313
SPLASH=splash10-0006-9000000000-cdf84450d15ce5ef480a
submitter=submitter = University of Tokyo Team (Faculty of Engineering, University of Tokyo)
MoNA Rating=3.75

>  <NUM PEAKS>  (5108) 
18

>  <MASS SPECTRAL PEAKS>  (5108) 
15 4.44
18 1
29 5.56
30 4.49
31 1.97
41 1.4
42 4.49
43 99.99
44 3.88
45 8.99
46 9.27
47 4.1
48 8.88
49 21.52
62 3.03
63 15.34
65 12.47
90 9.83

>  <PREDICTED SPECTRUM>  (5108) 
34 28
41 66
42 537
43 999
44 704
45 617
46 305
47 489
48 441
49 315
50 232
51 29
54 709
55 131
58 43
59 130
60 663
61 638
62 338
63 130
72 291
75 5
78 61
79 64
89 224
90 867
91 26
92 156
107 297
108 699
109 51

$$$$

     RDKit          2D

 12 11  0  0  0  0  0  0  0  0999 V2000
   -5.3469    4.4130    0.0000 C   0  0  0  0  0  0  0  0  0  0  0  0
   -4.0478    2.1630    0.0000 C   0  0  0  0  0  0  0  0  0  0  0  0
    1.1483    3.6630    0.0000 C   0  0  0  0  0  0  0  0  0  0  0  0
    0.3983    2.3639    0.0000 H   0  0  0  0  0  0  0  0  0  0  0  0
    2.4474    2.9130    0.0000 H   0  0  0  0  0  0  0  0  0  0  0  0
    1.8983    4.9620    0.0000 H   0  0  0  0  0  0  0  0  0  0  0  0
   -0.1507    5.9130    0.0000 C   0  0  0  0  0  0  0  0  0  0  0  0
   -4.0478    3.6630    0.0000 C   0  0  0  0  0  0  0  0  0  0  0  0
   -0.1507    4.4130    0.0000 C   0  0  0  0  0  0  0  0  0  0  0  0
   -2.7488    4.4130    0.0000 C   0  0  0  0  0  0  0  0  0  0  0  0
   -2.7488    5.9130    0.0000 O   0  0  0  0  0  0  0  0  0  0  0  0
   -1.4498    3.6630    0.0000 O   0  0  0  0  0  0  0  0  0  0  0  0
  3  4  1  0
  3  5  1  0
  3  6  1  0
  8  1  2  0
  8  2  1  0
  9  3  1  0
  9  7  1  0
 10  8  1  0
 11 10  2  0
 12  9  1  0
 12 10  1  0
M  ISO  3   4   2   5   2   6   2
M  END
>  <NAME>  (5109) 
ISOPROPYL METHACRYLATE (1,1,1-D3)

>  <SYNONYMS>  (5109) 
METHACRYLIC ACID ISOPROPYL ESTER (1,1,1-D3)

>  <SPECTRUM TYPE>  (5109) 
MS1

>  <INSTRUMENT TYPE>  (5109) 
EI-B

>  <INSTRUMENT>  (5109) 
HITACHI RMU-5B

>  <ION MODE>  (5109) 
P

>  <INCHIKEY>  (5109) 
BOQSSGDQNWEFSX-HPRDVNIFSA-N

>  <FORMULA>  (5109) 
C7H12O2

>  <EXACT MASS>  (5109) 
131.102559862

>  <MW>  (5109) 
131

>  <ID>  (5109) 
JP002132

>  <CONTRIBUTOR>  (5109) 
University of Tokyo Team, {Faculty of Engineering, University of Tokyo

>  <COMMENT>  (5109) 
SMILES=[2H]C([2H])([2H])C(C)OC(=O)C(C)=C
InChI=InChI=1S/C7H12O2/c1-5(2)7(8)9-6(3)4/h6H,1H2,2-4H3/i3D3
computed SMILES=[H]C([H])([H])C(OC(=O)C(=C)C)C
accession=JP002132
date=2016.01.19 (Created 2008.10.21, modified 2011.05.06)
author=TAJIMA S, GUNMA COLLEGE OF TECHNOLOGY
license=CC BY-NC-SA
exact mass=128.08373
ionization energy=70 eV
ion type=[M]+*
computed spectral entropy=2.7008386970759446
computed normalized entropy=0.7724389693420763
SPLASH=splash10-00kp-9000000000-758b3869a90cad776a77
submitter=submitter = University of Tokyo Team (Faculty of Engineering, University of Tokyo)
MoNA Rating=3.75

>  <NUM PEAKS>  (5109) 
33

>  <MASS SPECTRAL PEAKS>  (5109) 
26 2.98
27 8.95
28 5.96
29 10.93
37 3.88
38 7.75
39 49.9
40 15.71
41 82.7
42 12.72
43 20.78
44 14.12
45 10.93
46 90.46
47 2.78
48 2.58
53 1.99
55 1.89
62 19.88
67 3.88
68 1.99
69 99.99
70 9.64
73 9.34
85 1.99
86 8.35
87 3.38
88 30.02
89 1.79
95 1.79
113 1.09
116 1.19
131 2.98

>  <PREDICTED SPECTRUM>  (5109) 
14 5
25 13
26 99
27 152
28 110
29 135
30 52
31 119
33 19
36 34
37 68
38 126
39 449
40 200
41 645
42 274
43 150
44 141
45 261
46 103
47 14
49 79
50 23
51 21
53 97
54 71
56 9
57 84
58 30
61 7
69 999
70 160
73 42
86 90
87 41
101 10
115 0
130 38
131 96

$$$$

     RDKit          2D

 10 10  0  0  0  0  0  0  0  0999 V2000
    5.1970   -1.5006    0.0000 C   0  0  0  0  0  0  0  0  0  0  0  0
   -2.5989    1.5002    0.0000 C   0  0  0  0  0  0  0  0  0  0  0  0
    3.8981   -0.7504    0.0000 C   0  0  0  0  0  0  0  0  0  0  0  0
   -1.3000   -0.7500    0.0000 C   0  0  0  0  0  0  0  0  0  0  0  0
    0.0000    1.5000    0.0000 C   0  0  0  0  0  0  0  0  0  0  0  0
    0.0000   -1.5000    0.0000 C   0  0  0  0  0  0  0  0  0  0  0  0
    1.3000    0.7500    0.0000 C   0  0  0  0  0  0  0  0  0  0  0  0
   -1.3000    0.7500    0.0000 C   0  0  0  0  0  0  0  0  0  0  0  0
    1.3000   -0.7500    0.0000 C   0  0  0  0  0  0  0  0  0  0  0  0
    2.5989   -1.5002    0.0000 N   0  0  0  0  0  0  0  0  0  0  0  0
  3  1  1  0
  6  4  2  0
  7  5  1  0
  8  2  1  0
  8  4  1  0
  8  5  2  0
  9  6  1  0
  9  7  2  0
 10  3  1  0
 10  9  1  0
M  END
>  <NAME>  (5110) 
N-ETHYL-PARA-TOLUIDINE

>  <SYNONYMS>  (5110) 


>  <SPECTRUM TYPE>  (5110) 
MS1

>  <INSTRUMENT TYPE>  (5110) 
EI-B

>  <INSTRUMENT>  (5110) 
HITACHI RMU-7M

>  <ION MODE>  (5110) 
P

>  <INCHIKEY>  (5110) 
AASABFUMCBTXRL-UHFFFAOYSA-N

>  <FORMULA>  (5110) 
C9H13N

>  <EXACT MASS>  (5110) 
135.104799416

>  <MW>  (5110) 
135

>  <ID>  (5110) 
JP002127

>  <CONTRIBUTOR>  (5110) 
University of Tokyo Team, {Faculty of Engineering, University of Tokyo

>  <COMMENT>  (5110) 
SMILES=CCNc(c1)ccc(C)c1
InChI=InChI=1S/C9H13N/c1-3-10-9-6-4-8(2)5-7-9/h4-7,10H,3H2,1-2H3
computed SMILES=C=1C=C(C=CC1NCC)C
accession=JP002127
date=2016.01.19 (Created 2008.10.21, modified 2011.05.06)
author=TAJIMA S, GUNMA COLLEGE OF TECHNOLOGY
license=CC BY-NC-SA
exact mass=135.1048
ionization energy=70 eV
ion type=[M]+*
computed spectral entropy=2.5770321314738704
computed normalized entropy=0.7307908858111937
SPLASH=splash10-00di-4900000000-6d53ce0794464a508c44
submitter=submitter = University of Tokyo Team (Faculty of Engineering, University of Tokyo)
MoNA Rating=3.75

>  <NUM PEAKS>  (5110) 
34

>  <MASS SPECTRAL PEAKS>  (5110) 
27 3.58
28 4.63
29 1.68
39 4.79
41 1.91
50 1.44
51 4.04
52 2.43
53 1.73
58.5 2.2
59.5 4.1
60 4.04
63 2.31
65 8.38
77 8.43
78 2.43
79 3.41
89 2.25
90 1.73
91 17.85
92 5.2
93 3.59
104 1.62
105 1.68
106 3.93
118 5.55
119 4.04
120 99.99
121 9.53
132 1.16
133 1.79
134 7.51
135 38.42
136 4.04

>  <PREDICTED SPECTRUM>  (5110) 
15 47
26 25
27 151
28 65
29 88
30 48
34 3
37 37
38 94
39 281
40 118
41 219
42 224
43 48
44 86
50 177
51 270
52 254
53 201
54 118
55 24
56 10
58 39
61 31
62 131
63 244
64 129
65 371
66 180
67 117
74 91
75 131
76 128
77 364
78 263
79 276
80 161
81 35
89 186
90 178
91 512
92 284
93 215
94 85
102 3
103 23
104 159
105 221
106 448
107 341
108 112
116 41
117 87
118 256
119 179
120 999
121 328
122 50
132 101
133 70
134 283
135 838
136 265
137 60

$$$$

     RDKit          2D

 10 10  0  0  0  0  0  0  0  0999 V2000
    5.1937   -0.0065    0.0000 C   0  0  0  0  0  0  0  0  0  0  0  0
   -2.6024   -0.0089    0.0000 C   0  0  0  0  0  0  0  0  0  0  0  0
    3.8946   -0.7563    0.0000 C   0  0  0  0  0  0  0  0  0  0  0  0
    0.0015   -2.9989    0.0000 C   0  0  0  0  0  0  0  0  0  0  0  0
   -1.2976   -2.2489    0.0000 C   0  0  0  0  0  0  0  0  0  0  0  0
    1.2960   -2.2567    0.0000 C   0  0  0  0  0  0  0  0  0  0  0  0
   -0.0026   -0.0059    0.0000 C   0  0  0  0  0  0  0  0  0  0  0  0
   -1.3021   -0.7567    0.0000 C   0  0  0  0  0  0  0  0  0  0  0  0
    1.2965   -0.7559    0.0000 C   0  0  0  0  0  0  0  0  0  0  0  0
    2.5956   -0.0061    0.0000 N   0  0  0  0  0  0  0  0  0  0  0  0
  3  1  1  0
  5  4  2  0
  6  4  1  0
  8  2  1  0
  8  5  1  0
  8  7  2  0
  9  6  2  0
  9  7  1  0
 10  3  1  0
 10  9  1  0
M  END
>  <NAME>  (5111) 
N-ETHYL-META-TOLUIDINE

>  <SYNONYMS>  (5111) 


>  <SPECTRUM TYPE>  (5111) 
MS1

>  <INSTRUMENT TYPE>  (5111) 
EI-B

>  <INSTRUMENT>  (5111) 
HITACHI RMU-7M

>  <ION MODE>  (5111) 
P

>  <INCHIKEY>  (5111) 
GUYMMHOQXYZMJQ-UHFFFAOYSA-N

>  <FORMULA>  (5111) 
C9H13N

>  <EXACT MASS>  (5111) 
135.104799416

>  <MW>  (5111) 
135

>  <ID>  (5111) 
JP002126

>  <CONTRIBUTOR>  (5111) 
University of Tokyo Team, {Faculty of Engineering, University of Tokyo

>  <COMMENT>  (5111) 
SMILES=CCNc(c1)cc(C)cc1
InChI=InChI=1S/C9H13N/c1-3-10-9-6-4-5-8(2)7-9/h4-7,10H,3H2,1-2H3
computed SMILES=C=1C=C(C=C(C1)C)NCC
accession=JP002126
date=2016.01.19 (Created 2008.10.21, modified 2011.05.06)
author=TAJIMA S, GUNMA COLLEGE OF TECHNOLOGY
license=CC BY-NC-SA
exact mass=135.1048
ionization energy=70 eV
ion type=[M]+*
computed spectral entropy=2.4409727333331444
computed normalized entropy=0.724905935378701
SPLASH=splash10-00di-5900000000-4cca99d986bc3cc4f079
submitter=submitter = University of Tokyo Team (Faculty of Engineering, University of Tokyo)
MoNA Rating=3.75

>  <NUM PEAKS>  (5111) 
29

>  <MASS SPECTRAL PEAKS>  (5111) 
27 3.24
28 7.54
39 5.27
41 1.96
42 1.35
44 1.43
51 3.16
52 1.2
58.5 2.18
59.5 3.09
60 2.26
63 2.26
65 10.99
77 7.45
78 1.5
79 2.48
89 2.26
91 24.76
92 5.57
93 5.87
106 1.88
118 7.22
119 3.76
120 99.99
121 9.78
133 2.93
134 5.27
135 36.12
136 3.61

>  <PREDICTED SPECTRUM>  (5111) 
15 27
26 25
27 121
28 68
29 48
30 61
37 39
38 93
39 282
40 116
41 183
42 198
43 100
44 75
50 146
51 255
52 227
53 163
54 78
56 2
58 30
61 1
62 94
63 221
64 143
65 360
66 187
67 61
68 3
74 51
75 112
76 86
77 335
78 232
79 189
80 128
89 175
90 181
91 571
92 276
93 210
94 68
103 57
104 161
105 225
106 329
107 193
108 2
116 26
117 76
118 303
119 193
120 999
121 350
122 37
132 65
133 45
134 227
135 772
136 234
137 32

$$$$

     RDKit          2D

  9  9  0  0  0  0  0  0  0  0999 V2000
   -3.8981    0.7504    0.0000 C   0  0  0  0  0  0  0  0  0  0  0  0
   -2.5989    1.5002    0.0000 C   0  0  0  0  0  0  0  0  0  0  0  0
   -1.3000   -0.7500    0.0000 C   0  0  0  0  0  0  0  0  0  0  0  0
    0.0000    1.5000    0.0000 C   0  0  0  0  0  0  0  0  0  0  0  0
    0.0000   -1.5000    0.0000 C   0  0  0  0  0  0  0  0  0  0  0  0
    1.3000    0.7500    0.0000 C   0  0  0  0  0  0  0  0  0  0  0  0
   -1.3000    0.7500    0.0000 C   0  0  0  0  0  0  0  0  0  0  0  0
    1.3000   -0.7500    0.0000 C   0  0  0  0  0  0  0  0  0  0  0  0
    2.5989   -1.5002    0.0000 N   0  0  0  0  0  0  0  0  0  0  0  0
  2  1  1  0
  5  3  2  0
  6  4  1  0
  7  2  1  0
  7  3  1  0
  7  4  2  0
  8  5  1  0
  8  6  2  0
  9  8  1  0
M  END
>  <NAME>  (5112) 
PARA-ETHYL ANILINE

>  <SYNONYMS>  (5112) 


>  <SPECTRUM TYPE>  (5112) 
MS1

>  <INSTRUMENT TYPE>  (5112) 
EI-B

>  <INSTRUMENT>  (5112) 
HITACHI RMU-7M

>  <ION MODE>  (5112) 
P

>  <INCHIKEY>  (5112) 
HRXZRAXKKNUKRF-UHFFFAOYSA-N

>  <FORMULA>  (5112) 
C8H11N

>  <EXACT MASS>  (5112) 
121.08914935199999

>  <MW>  (5112) 
121

>  <ID>  (5112) 
JP002125

>  <CONTRIBUTOR>  (5112) 
University of Tokyo Team, {Faculty of Engineering, University of Tokyo

>  <COMMENT>  (5112) 
SMILES=CCc(c1)ccc(N)c1
InChI=InChI=1S/C8H11N/c1-2-7-3-5-8(9)6-4-7/h3-6H,2,9H2,1H3
computed SMILES=NC1=CC=C(C=C1)CC
accession=JP002125
date=2016.01.19 (Created 2008.10.21, modified 2011.05.06)
author=TAJIMA S, GUNMA COLLEGE OF TECHNOLOGY
license=CC BY-NC-SA
exact mass=121.08915
ionization energy=70 eV
ion type=[M]+*
computed spectral entropy=2.1507184076723505
computed normalized entropy=0.660115003522394
SPLASH=splash10-0a4i-3900000000-00d2642a2c01197ba178
submitter=submitter = University of Tokyo Team (Faculty of Engineering, University of Tokyo)
MoNA Rating=3.75

>  <NUM PEAKS>  (5112) 
26

>  <MASS SPECTRAL PEAKS>  (5112) 
27 1.04
28 8.59
39 3.46
41 1.38
44 1.94
51 2.28
52 2.07
53 4.36
58.5 2.63
59.5 1.24
63 1.11
65 3.46
77 11.27
78 2.84
79 6.64
91 3.25
93 2.07
103 1.31
104 1.11
106 99.99
107 10.44
118 2.56
119 2.63
120 4.15
121 34.16
122 3.39

>  <PREDICTED SPECTRUM>  (5112) 
14 0
16 2
17 0
18 6
26 43
27 142
28 89
29 58
36 11
37 29
38 84
39 211
40 82
41 227
42 105
50 131
51 254
52 195
53 210
54 142
55 22
62 68
63 162
64 94
65 216
66 110
67 74
74 51
75 79
76 58
77 374
78 241
79 306
80 116
81 23
82 3
89 70
90 8
91 253
92 134
93 147
94 43
99 20
102 64
103 128
104 103
105 146
106 999
107 311
115 48
118 32
120 76
121 514
122 166

$$$$

     RDKit          2D

  9  9  0  0  0  0  0  0  0  0999 V2000
    3.5660    1.3113    0.0000 C   0  0  0  0  0  0  0  0  0  0  0  0
    2.2682    0.5591    0.0000 C   0  0  0  0  0  0  0  0  0  0  0  0
   -0.3357    3.5491    0.0000 C   0  0  0  0  0  0  0  0  0  0  0  0
    0.9634    2.7991    0.0000 C   0  0  0  0  0  0  0  0  0  0  0  0
   -1.6302    2.8069    0.0000 C   0  0  0  0  0  0  0  0  0  0  0  0
   -0.3316    0.5561    0.0000 C   0  0  0  0  0  0  0  0  0  0  0  0
    0.9679    1.3069    0.0000 C   0  0  0  0  0  0  0  0  0  0  0  0
   -1.6307    1.3061    0.0000 C   0  0  0  0  0  0  0  0  0  0  0  0
   -2.9298    0.5563    0.0000 N   0  0  0  0  0  0  0  0  0  0  0  0
  2  1  1  0
  4  3  2  0
  5  3  1  0
  7  2  1  0
  7  4  1  0
  7  6  2  0
  8  5  2  0
  8  6  1  0
  9  8  1  0
M  END
>  <NAME>  (5113) 
META-ETHYL ANILINE

>  <SYNONYMS>  (5113) 


>  <SPECTRUM TYPE>  (5113) 
MS1

>  <INSTRUMENT TYPE>  (5113) 
EI-B

>  <INSTRUMENT>  (5113) 
HITACHI RMU-7M

>  <ION MODE>  (5113) 
P

>  <INCHIKEY>  (5113) 
AMKPQMFZCBTTAT-UHFFFAOYSA-N

>  <FORMULA>  (5113) 
C8H11N

>  <EXACT MASS>  (5113) 
121.08914935199999

>  <MW>  (5113) 
121

>  <ID>  (5113) 
JP002124

>  <CONTRIBUTOR>  (5113) 
University of Tokyo Team, {Faculty of Engineering, University of Tokyo

>  <COMMENT>  (5113) 
SMILES=CCc(c1)cc(N)cc1
InChI=InChI=1S/C8H11N/c1-2-7-4-3-5-8(9)6-7/h3-6H,2,9H2,1H3
computed SMILES=NC1=CC=CC(=C1)CC
accession=JP002124
date=2016.01.19 (Created 2008.10.21, modified 2011.05.06)
author=TAJIMA S, GUNMA COLLEGE OF TECHNOLOGY
license=CC BY-NC-SA
exact mass=121.08915
ionization energy=70 eV
ion type=[M]+*
computed spectral entropy=2.5973113182577223
computed normalized entropy=0.7428301734226413
SPLASH=splash10-0ab9-4900000000-a4b5f37ca091a8329011
submitter=submitter = University of Tokyo Team (Faculty of Engineering, University of Tokyo)
MoNA Rating=3.75

>  <NUM PEAKS>  (5113) 
33

>  <MASS SPECTRAL PEAKS>  (5113) 
27 1.89
28 7.59
30 1.53
39 6.47
41 2.93
42 2.01
44 2.81
51 3.48
52 2.62
53 3.66
58.5 4.27
59.5 2.44
63 2.38
65 5.98
66 3.05
77 18.06
78 5.06
79 15.62
80 4.39
89 1.4
91 6.35
92 1.77
93 8.79
94 3.66
103 4.03
104 2.75
106 99.99
107 11.35
118 3.36
119 2.56
120 18.3
121 73.76
122 9.21

>  <PREDICTED SPECTRUM>  (5113) 
14 2
15 10
26 51
27 178
28 75
29 16
37 51
38 122
39 341
40 130
41 265
42 132
44 50
49 0
50 176
51 303
52 286
53 272
54 163
58 26
61 100
62 121
63 221
64 149
65 359
66 202
67 123
68 22
74 83
75 88
76 67
77 433
78 346
79 389
80 181
81 23
86 37
87 3
89 75
90 99
91 318
92 332
93 264
94 140
102 35
103 145
104 237
105 179
106 999
107 282
118 135
119 50
120 405
121 894
122 269

$$$$

     RDKit          2D

  9  9  0  0  0  0  0  0  0  0999 V2000
    3.2511   -1.1212    0.0000 C   0  0  0  0  0  0  0  0  0  0  0  0
   -3.2458   -0.3738    0.0000 C   0  0  0  0  0  0  0  0  0  0  0  0
    0.6473    1.8688    0.0000 C   0  0  0  0  0  0  0  0  0  0  0  0
    1.9463    1.1188    0.0000 C   0  0  0  0  0  0  0  0  0  0  0  0
   -0.6473    1.1266    0.0000 C   0  0  0  0  0  0  0  0  0  0  0  0
    0.6513   -1.1242    0.0000 C   0  0  0  0  0  0  0  0  0  0  0  0
    1.9508   -0.3734    0.0000 C   0  0  0  0  0  0  0  0  0  0  0  0
   -0.6477   -0.3742    0.0000 C   0  0  0  0  0  0  0  0  0  0  0  0
   -1.9469   -1.1240    0.0000 N   0  0  0  0  0  0  0  0  0  0  0  0
  4  3  2  0
  5  3  1  0
  7  1  1  0
  7  4  1  0
  7  6  2  0
  8  5  2  0
  8  6  1  0
  9  2  1  0
  9  8  1  0
M  END
>  <NAME>  (5114) 
N-METHYL-META-TOLUIDINE

>  <SYNONYMS>  (5114) 


>  <SPECTRUM TYPE>  (5114) 
MS1

>  <INSTRUMENT TYPE>  (5114) 
EI-B

>  <INSTRUMENT>  (5114) 
HITACHI RMU-7M

>  <ION MODE>  (5114) 
P

>  <INCHIKEY>  (5114) 
FBGJJTQNZVNEQU-UHFFFAOYSA-N

>  <FORMULA>  (5114) 
C8H11N

>  <EXACT MASS>  (5114) 
121.08914935199999

>  <MW>  (5114) 
121

>  <ID>  (5114) 
JP002123

>  <CONTRIBUTOR>  (5114) 
University of Tokyo Team, {Faculty of Engineering, University of Tokyo

>  <COMMENT>  (5114) 
SMILES=CNc(c1)cc(C)cc1
InChI=InChI=1S/C8H11N/c1-7-4-3-5-8(6-7)9-2/h3-6,9H,1-2H3
computed SMILES=C=1C=C(C=C(C1)C)NC
accession=JP002123
date=2016.01.19 (Created 2008.10.21, modified 2011.05.06)
author=TAJIMA S, GUNMA COLLEGE OF TECHNOLOGY
license=CC BY-NC-SA
exact mass=121.08915
ionization energy=70 eV
ion type=[M]+*
computed spectral entropy=2.6807603784384217
computed normalized entropy=0.7369613421445569
SPLASH=splash10-00di-6900000000-4ff02cb0f23a83d18912
submitter=submitter = University of Tokyo Team (Faculty of Engineering, University of Tokyo)
MoNA Rating=3.75

>  <NUM PEAKS>  (5114) 
38

>  <MASS SPECTRAL PEAKS>  (5114) 
27 2.89
28 4.69
30 2.49
38 2
39 8.78
40 1.5
41 3.24
42 1.9
44 1.6
50 2.89
51 6.28
52 3.54
53 2.49
58.5 3.59
59.5 6.98
60.5 3.59
62 1.75
63 4.89
64 1.9
65 12.52
66 1.5
77 11.47
78 3.99
79 5.39
80 1.5
89 3.39
90 2.44
91 31.12
92 7.98
93 4.79
104 2.44
105 1.75
106 6.43
118 7.53
119 9.78
120 99.99
121 84.24
122 7.73

>  <PREDICTED SPECTRUM>  (5114) 
15 30
26 7
27 45
28 37
37 9
38 44
39 151
40 21
41 53
42 51
44 12
50 113
51 210
52 145
53 100
54 49
57 3
61 15
62 70
63 168
64 56
65 259
66 105
67 1
71 4
74 77
75 105
76 57
77 322
78 233
79 249
80 87
89 125
90 84
91 351
92 159
93 166
94 68
103 94
104 140
105 236
106 491
107 175
117 50
118 266
119 243
120 870
121 999
122 289
123 13

$$$$

     RDKit          2D

  7  6  0  0  0  0  0  0  0  0999 V2000
    1.9486    2.6250    0.0000 C   0  0  0  0  0  0  0  0  0  0  0  0
   -4.5466    3.3750    0.0000 C   0  0  0  0  0  0  0  0  0  0  0  0
   -0.6495    2.6250    0.0000 C   0  0  0  0  0  0  0  0  0  0  0  0
   -1.9486    3.3750    0.0000 C   0  0  0  0  0  0  0  0  0  0  0  0
   -1.9486    4.8750    0.0000 O   0  0  0  0  0  0  0  0  0  0  0  0
    0.6495    3.3750    0.0000 O   0  0  0  0  0  0  0  0  0  0  0  0
   -3.2476    2.6250    0.0000 O   0  0  0  0  0  0  0  0  0  0  0  0
  4  3  1  0
  5  4  2  0
  6  1  1  0
  6  3  1  0
  7  2  1  0
  7  4  1  0
M  END
>  <NAME>  (5115) 
METHOXY ACETIC ACID METHYL ESTER

>  <SYNONYMS>  (5115) 
METHYL METHOXY ACETATE

>  <SPECTRUM TYPE>  (5115) 
MS1

>  <INSTRUMENT TYPE>  (5115) 
EI-B

>  <INSTRUMENT>  (5115) 
HITACHI RMU-7M

>  <ION MODE>  (5115) 
P

>  <INCHIKEY>  (5115) 
QRMHDGWGLNLHMN-UHFFFAOYSA-N

>  <FORMULA>  (5115) 
C4H8O3

>  <EXACT MASS>  (5115) 
104.04734411599999

>  <MW>  (5115) 
104

>  <ID>  (5115) 
JP002116

>  <CONTRIBUTOR>  (5115) 
University of Tokyo Team, {Faculty of Engineering, University of Tokyo

>  <COMMENT>  (5115) 
SMILES=COCC(=O)OC
InChI=InChI=1S/C4H8O3/c1-6-3-4(5)7-2/h3H2,1-2H3
computed SMILES=O=C(OC)COC
accession=JP002116
date=2016.01.19 (Created 2008.10.21, modified 2011.05.06)
author=TAJIMA S, GUNMA COLLEGE OF TECHNOLOGY
license=CC BY-NC-SA
exact mass=104.04734
ionization energy=70 eV
ion type=[M]+*
computed spectral entropy=1.5547763571578872
computed normalized entropy=0.6256880343132941
SPLASH=splash10-0002-9000000000-3df00b19857674681d71
submitter=submitter = University of Tokyo Team (Faculty of Engineering, University of Tokyo)
MoNA Rating=3.75

>  <NUM PEAKS>  (5115) 
12

>  <MASS SPECTRAL PEAKS>  (5115) 
15 17.93
28 1.06
29 12.63
31 2.44
42 4.16
43 4.81
44 2.04
45 99.99
46 1.79
59 3.26
74 23.55
75 5.05

>  <PREDICTED SPECTRUM>  (5115) 
14 58
15 176
16 22
18 9
19 12
25 25
26 69
27 240
28 159
29 382
30 177
31 273
32 77
33 105
41 98
42 185
43 334
44 136
45 999
46 247
47 40
49 6
57 25
58 71
59 267
60 66
61 97
62 28
63 45
72 38
73 124
74 186
75 29
76 25
89 189
90 57
104 57

$$$$

     RDKit          2D

 15 14  0  0  0  0  0  0  0  0999 V2000
   -0.4853    3.3849    0.0000 C   0  0  0  0  0  0  0  0  0  0  0  0
   -1.2353    2.0858    0.0000 H   0  0  0  0  0  0  0  0  0  0  0  0
    0.2647    4.6839    0.0000 H   0  0  0  0  0  0  0  0  0  0  0  0
   -1.7844    4.1349    0.0000 H   0  0  0  0  0  0  0  0  0  0  0  0
    7.3089    3.3849    0.0000 C   0  0  0  0  0  0  0  0  0  0  0  0
    8.0589    2.0858    0.0000 H   0  0  0  0  0  0  0  0  0  0  0  0
    8.6079    4.1349    0.0000 H   0  0  0  0  0  0  0  0  0  0  0  0
    6.5589    4.6839    0.0000 H   0  0  0  0  0  0  0  0  0  0  0  0
    3.4118    2.6349    0.0000 C   0  0  0  0  0  0  0  0  0  0  0  0
    2.1127    3.3849    0.0000 C   0  0  0  0  0  0  0  0  0  0  0  0
    4.7108    3.3849    0.0000 C   0  0  0  0  0  0  0  0  0  0  0  0
    2.1127    4.8849    0.0000 O   0  0  0  0  0  0  0  0  0  0  0  0
    4.7108    4.8849    0.0000 O   0  0  0  0  0  0  0  0  0  0  0  0
    0.8137    2.6349    0.0000 O   0  0  0  0  0  0  0  0  0  0  0  0
    6.0099    2.6349    0.0000 O   0  0  0  0  0  0  0  0  0  0  0  0
  1  2  1  0
  1  3  1  0
  1  4  1  0
  5  6  1  0
  5  7  1  0
  5  8  1  0
 10  9  1  0
 11  9  1  0
 12 10  2  0
 13 11  2  0
 14  1  1  0
 14 10  1  0
 15  5  1  0
 15 11  1  0
M  ISO  6   2   2   3   2   4   2   6   2   7   2   8   2
M  END
>  <NAME>  (5116) 
MALONIC ACID DIMETHYL ESTER (1,1,1,7,7,7-D6)

>  <SYNONYMS>  (5116) 
PROPANEDIOIC ACID DIMETHYL ESTER (1,1,1,7,7,7-D6)

>  <SPECTRUM TYPE>  (5116) 
MS1

>  <INSTRUMENT TYPE>  (5116) 
EI-B

>  <INSTRUMENT>  (5116) 
HITACHI RMU-7M

>  <ION MODE>  (5116) 
P

>  <INCHIKEY>  (5116) 
BEPAFCGSDWSTEL-WFGJKAKNSA-N

>  <FORMULA>  (5116) 
C5H8O4

>  <EXACT MASS>  (5116) 
138.079919212

>  <MW>  (5116) 
138

>  <ID>  (5116) 
JP002113

>  <CONTRIBUTOR>  (5116) 
University of Tokyo Team, {Faculty of Engineering, University of Tokyo

>  <COMMENT>  (5116) 
SMILES=[2H]C([2H])([2H])OC(=O)CC(=O)OC([2H])([2H])[2H]
InChI=InChI=1S/C5H8O4/c1-8-4(6)3-5(7)9-2/h3H2,1-2H3/i1D3,2D3
computed SMILES=[H]C([H])([H])OC(=O)CC(=O)OC([H])([H])[H]
accession=JP002113
date=2016.01.19 (Created 2008.10.21, modified 2011.05.06)
author=TAJIMA S, GUNMA COLLEGE OF TECHNOLOGY
license=CC BY-NC-SA
exact mass=132.04226
ionization energy=70 eV
ion type=[M]+*
computed spectral entropy=2.4174519569204636
computed normalized entropy=0.7334865332249391
SPLASH=splash10-0ik9-9200000000-d60208b3cf3bfe73f67b
submitter=submitter = University of Tokyo Team (Faculty of Engineering, University of Tokyo)
MoNA Rating=3.75

>  <NUM PEAKS>  (5116) 
27

>  <MASS SPECTRAL PEAKS>  (5116) 
18 47.09
28 4.6
29 3.32
30 5.82
32 12.74
33 2.66
41 2.77
42 17.73
43 2.22
44 16.62
45 1.55
48 1.66
50 4.99
60 27.15
61 2.66
62 99.99
63 2.94
69 9.58
78 34.35
79 1.27
102 1.94
103 3.05
104 77.84
105 3.88
110 1
120 1.39
138 3.05

>  <PREDICTED SPECTRUM>  (5116) 
14 86
16 69
17 0
25 61
26 249
27 305
28 381
29 394
30 531
31 599
32 112
33 184
34 8
36 212
38 32
39 83
40 233
41 999
42 518
43 590
44 579
45 445
46 438
47 784
48 557
49 192
50 63
54 797
55 188
59 795
60 358
62 180
63 123
64 478
65 404
66 73
71 599
72 632
74 24
75 399
76 53
85 148
108 230
120 180
138 263

$$$$

     RDKit          2D

  7  6  0  0  0  0  0  0  0  0999 V2000
    1.9486    3.3750    0.0000 C   0  0  0  0  0  0  0  0  0  0  0  0
   -5.8457    3.3750    0.0000 C   0  0  0  0  0  0  0  0  0  0  0  0
    0.6495    4.1250    0.0000 C   0  0  0  0  0  0  0  0  0  0  0  0
   -4.5466    4.1250    0.0000 C   0  0  0  0  0  0  0  0  0  0  0  0
   -0.6495    3.3750    0.0000 C   0  0  0  0  0  0  0  0  0  0  0  0
   -3.2476    3.3750    0.0000 C   0  0  0  0  0  0  0  0  0  0  0  0
   -1.9486    4.1250    0.0000 O   0  0  0  0  0  0  0  0  0  0  0  0
  3  1  1  0
  4  2  1  0
  5  3  1  0
  6  4  1  0
  7  5  1  0
  7  6  1  0
M  END
>  <NAME>  (5117) 
DIPROPYL ETHER

>  <SYNONYMS>  (5117) 


>  <SPECTRUM TYPE>  (5117) 
MS1

>  <INSTRUMENT TYPE>  (5117) 
EI-B

>  <INSTRUMENT>  (5117) 
HITACHI RMU-7M

>  <ION MODE>  (5117) 
P

>  <INCHIKEY>  (5117) 
POLCUAVZOMRGSN-UHFFFAOYSA-N

>  <FORMULA>  (5117) 
C6H14O

>  <EXACT MASS>  (5117) 
102.104465068

>  <MW>  (5117) 
102

>  <ID>  (5117) 
JP002109

>  <CONTRIBUTOR>  (5117) 
University of Tokyo Team, {Faculty of Engineering, University of Tokyo

>  <COMMENT>  (5117) 
SMILES=CCCOCCC
InChI=InChI=1S/C6H14O/c1-3-5-7-6-4-2/h3-6H2,1-2H3
computed SMILES=O(CCC)CCC
accession=JP002109
date=2016.01.19 (Created 2008.10.21, modified 2011.05.06)
author=TAJIMA S, GUNMA COLLEGE OF TECHNOLOGY
license=CC BY-NC-SA
exact mass=102.10447
ionization energy=70 eV
ion type=[M]+*
computed spectral entropy=2.4488196596200966
computed normalized entropy=0.7607686014791718
SPLASH=splash10-0006-9000000000-daf6911056cd08d0468c
submitter=submitter = University of Tokyo Team (Faculty of Engineering, University of Tokyo)
MoNA Rating=3.75

>  <NUM PEAKS>  (5117) 
25

>  <MASS SPECTRAL PEAKS>  (5117) 
15 2.04
19 2.41
26 2.34
27 18.76
29 11.9
31 71.9
33 1.46
39 7.37
40 1.46
41 32.34
42 14.01
43 99.99
44 5.77
45 59.42
46 2.19
55 7.15
56 2.04
57 9.2
58 1.53
59 23.14
60 4.38
61 2.34
73 16.79
87 3.36
102 5.04

>  <PREDICTED SPECTRUM>  (5117) 
14 28
15 110
26 84
27 363
28 155
29 246
30 19
31 257
32 39
37 9
38 63
39 301
40 102
41 563
42 302
43 999
44 203
45 303
55 16
57 60
59 263
60 180
61 217
73 351
74 3
87 63
102 32

$$$$

     RDKit          2D

 13 13  0  0  0  0  0  0  0  0999 V2000
    2.3089   -1.6702    0.0000 C   0  0  0  0  0  0  0  0  0  0  0  0
   -0.2900   -1.6700    0.0000 C   0  0  0  0  0  0  0  0  0  0  0  0
   -1.5900   -0.9200    0.0000 C   0  0  0  0  0  0  0  0  0  0  0  0
   -0.2900    1.3300    0.0000 C   0  0  0  0  0  0  0  0  0  0  0  0
   -4.1881    0.5804    0.0000 C   0  0  0  0  0  0  0  0  0  0  0  0
    3.6081    0.5804    0.0000 C   0  0  0  0  0  0  0  0  0  0  0  0
    1.0100   -0.9200    0.0000 C   0  0  0  0  0  0  0  0  0  0  0  0
   -1.5900    0.5800    0.0000 C   0  0  0  0  0  0  0  0  0  0  0  0
    1.0100    0.5800    0.0000 C   0  0  0  0  0  0  0  0  0  0  0  0
   -2.8889    1.3302    0.0000 N   0  0  0  0  0  0  0  0  0  0  0  0
    2.3089    1.3302    0.0000 N   0  0  0  0  0  0  0  0  0  0  0  0
   -5.4872   -0.1694    0.0000 O   0  0  0  0  0  0  0  0  0  0  0  0
    4.9072   -0.1694    0.0000 O   0  0  0  0  0  0  0  0  0  0  0  0
  3  2  2  0
  7  1  1  0
  7  2  1  0
  8  3  1  0
  8  4  2  0
  9  4  1  0
  9  7  2  0
 10  5  2  0
 10  8  1  0
 11  6  2  0
 11  9  1  0
 12  5  2  0
 13  6  2  0
M  END
>  <NAME>  (5118) 
TOLUENE-2,4-DIISOCYANATE

>  <SYNONYMS>  (5118) 


>  <SPECTRUM TYPE>  (5118) 
MS1

>  <INSTRUMENT TYPE>  (5118) 
EI-B

>  <INSTRUMENT>  (5118) 
HITACHI RMU-7M

>  <ION MODE>  (5118) 
P

>  <INCHIKEY>  (5118) 
DVKJHBMWWAPEIU-UHFFFAOYSA-N

>  <FORMULA>  (5118) 
C9H6N2O2

>  <EXACT MASS>  (5118) 
174.042927432

>  <MW>  (5118) 
174

>  <ID>  (5118) 
JP002096

>  <CONTRIBUTOR>  (5118) 
University of Tokyo Team, {Faculty of Engineering, University of Tokyo

>  <COMMENT>  (5118) 
SMILES=O=C=Nc(c1)cc(N=C=O)c(C)c1
InChI=InChI=1S/C9H6N2O2/c1-7-2-3-8(10-5-12)4-9(7)11-6-13/h2-4H,1H3
computed SMILES=O=C=NC1=CC=C(C(N=C=O)=C1)C
accession=JP002096
date=2016.01.19 (Created 2008.10.21, modified 2011.05.06)
author=TAJIMA S, GUNMA COLLEGE OF TECHNOLOGY
license=CC BY-NC-SA
exact mass=174.04293
ionization energy=70 eV
ion type=[M]+*
computed spectral entropy=2.9101900856795235
computed normalized entropy=0.7644991100472146
SPLASH=splash10-00dj-3900000000-347a0157566e6fd204bf
submitter=submitter = University of Tokyo Team (Faculty of Engineering, University of Tokyo)
MoNA Rating=3.75

>  <NUM PEAKS>  (5118) 
45

>  <MASS SPECTRAL PEAKS>  (5118) 
26 1.29
27 3.65
37 1.53
38 3.24
39 5.12
40 1.77
41 1.65
44 8.42
45.5 1.18
50 4.71
51 7
52 4.65
53 1.47
58.5 1.06
59 3.83
62 1.47
63 4.24
64 5.18
65 2.53
66 1.24
72.5 1
73 1.35
75 2.06
76 5.59
77 5.47
78 2.12
87 3.24
90 4.71
91 9.65
102 2.35
103 3
104 1.77
106 1.18
117 3.65
118 7.3
119 6.47
120 1.82
132 13.48
133 1.18
145 37.79
146 29.02
147 3
173 26.43
174 99.99
175 10.36

>  <PREDICTED SPECTRUM>  (5118) 
14 27
15 60
17 8
18 16
25 22
26 90
27 98
28 125
29 52
30 31
32 24
36 50
37 225
38 315
39 398
40 200
41 135
42 47
43 105
44 90
48 12
49 104
50 342
51 421
52 458
53 249
54 184
55 122
56 3
57 11
60 42
61 159
62 262
63 389
64 351
65 299
66 205
67 160
68 85
69 8
73 92
74 111
75 242
76 271
77 337
78 255
79 172
80 159
81 15
82 47
83 15
84 1
87 46
88 82
89 182
90 330
91 386
92 287
93 82
94 71
100 17
102 52
103 85
104 85
106 63
116 101
117 310
118 405
119 202
120 73
129 1
131 69
145 507
146 538
147 165
148 11
159 53
174 999
175 330
176 72

$$$$

     RDKit          2D

 10 10  0  0  0  0  0  0  0  0999 V2000
    3.5681    3.1900    0.0000 C   0  0  0  0  0  0  0  0  0  0  0  0
    2.2781    3.9400    0.0000 C   0  0  0  0  0  0  0  0  0  0  0  0
    3.5681    1.6900    0.0000 C   0  0  0  0  0  0  0  0  0  0  0  0
    0.9781    3.1900    0.0000 C   0  0  0  0  0  0  0  0  0  0  0  0
    2.2806   -0.5600    0.0000 C   0  0  0  0  0  0  0  0  0  0  0  0
   -0.3208    0.9398    0.0000 C   0  0  0  0  0  0  0  0  0  0  0  0
    2.2781    0.9400    0.0000 C   0  0  0  0  0  0  0  0  0  0  0  0
    0.9781    1.6900    0.0000 C   0  0  0  0  0  0  0  0  0  0  0  0
    2.2831   -2.0600    0.0000 N   0  0  0  0  0  0  0  0  0  0  0  0
   -1.6200    1.6896    0.0000 O   0  0  0  0  0  0  0  0  0  0  0  0
  2  1  2  0
  3  1  1  0
  4  2  1  0
  7  3  2  0
  7  5  1  0
  8  4  2  0
  8  6  1  0
  8  7  1  0
  9  5  3  0
 10  6  2  0
M  END
>  <NAME>  (5119) 
ORTHO-CYANOBENZALDEHYDE

>  <SYNONYMS>  (5119) 


>  <SPECTRUM TYPE>  (5119) 
MS1

>  <INSTRUMENT TYPE>  (5119) 
EI-B

>  <INSTRUMENT>  (5119) 
HITACHI RMU-7M

>  <ION MODE>  (5119) 
P

>  <INCHIKEY>  (5119) 
QVTPWONEVZJCCS-UHFFFAOYSA-N

>  <FORMULA>  (5119) 
C8H5NO

>  <EXACT MASS>  (5119) 
131.03711378

>  <MW>  (5119) 
131

>  <ID>  (5119) 
JP002095

>  <CONTRIBUTOR>  (5119) 
University of Tokyo Team, {Faculty of Engineering, University of Tokyo

>  <COMMENT>  (5119) 
SMILES=N#Cc(c1)c(C=O)ccc1
InChI=InChI=1S/C8H5NO/c9-5-7-3-1-2-4-8(7)6-10/h1-4,6H
computed SMILES=N#CC=1C=CC=CC1C=O
accession=JP002095
date=2016.01.19 (Created 2008.10.21, modified 2011.05.06)
author=TAJIMA S, GUNMA COLLEGE OF TECHNOLOGY
license=CC BY-NC-SA
exact mass=131.03711
ionization energy=70 eV
ion type=[M]+*
computed spectral entropy=2.359318180348845
computed normalized entropy=0.7329634035961762
SPLASH=splash10-0udi-5900000000-409f18589016609c8a58
submitter=submitter = University of Tokyo Team (Faculty of Engineering, University of Tokyo)
MoNA Rating=3.75

>  <NUM PEAKS>  (5119) 
25

>  <MASS SPECTRAL PEAKS>  (5119) 
27 2.41
29 2.97
37 2.62
38 2.41
39 3.38
49 1.93
50 14.9
51 8.9
51.5 1.52
52 3.31
61 1.38
62 1.38
63 1.59
73 1.38
74 4.83
75 15.03
76 38.14
77 3.86
102 31.03
103 99.99
104 24.41
105 1.52
130 23.1
131 8.14
132 1.38

>  <PREDICTED SPECTRUM>  (5119) 
14 8
16 5
25 21
26 64
27 77
28 126
29 140
36 21
37 138
38 191
39 232
40 85
41 44
44 10
48 27
49 173
50 370
51 345
52 205
53 79
55 19
61 118
62 233
63 353
64 221
65 144
73 81
74 191
75 328
76 465
77 283
78 75
85 26
86 100
87 80
88 85
101 113
102 643
103 999
104 323
105 44
130 306
131 693
132 217
133 13

$$$$

     RDKit          2D

 10 10  0  0  0  0  0  0  0  0999 V2000
   -1.6200   -1.3100    0.0000 C   0  0  0  0  0  0  0  0  0  0  0  0
   -0.3300   -2.0600    0.0000 C   0  0  0  0  0  0  0  0  0  0  0  0
   -1.6200    0.1900    0.0000 C   0  0  0  0  0  0  0  0  0  0  0  0
    0.9700   -1.3100    0.0000 C   0  0  0  0  0  0  0  0  0  0  0  0
   -0.3325    2.4400    0.0000 C   0  0  0  0  0  0  0  0  0  0  0  0
    2.2689    0.9402    0.0000 C   0  0  0  0  0  0  0  0  0  0  0  0
   -0.3300    0.9400    0.0000 C   0  0  0  0  0  0  0  0  0  0  0  0
    0.9700    0.1900    0.0000 C   0  0  0  0  0  0  0  0  0  0  0  0
   -1.6328    3.1878    0.0000 O   0  0  0  0  0  0  0  0  0  0  0  0
    3.5681    0.1904    0.0000 O   0  0  0  0  0  0  0  0  0  0  0  0
  2  1  2  0
  3  1  1  0
  4  2  1  0
  7  3  2  0
  7  5  1  0
  8  4  2  0
  8  6  1  0
  8  7  1  0
  9  5  2  0
 10  6  2  0
M  END
>  <NAME>  (5120) 
ORTHO-PHTHALALDEHYDE

>  <SYNONYMS>  (5120) 
1,2-BENZENEDICARBALDEHYDE

>  <SPECTRUM TYPE>  (5120) 
MS1

>  <INSTRUMENT TYPE>  (5120) 
EI-B

>  <INSTRUMENT>  (5120) 
HITACHI RMU-7M

>  <ION MODE>  (5120) 
P

>  <INCHIKEY>  (5120) 
ZWLUXSQADUDCSB-UHFFFAOYSA-N

>  <FORMULA>  (5120) 
C8H6O2

>  <EXACT MASS>  (5120) 
134.036779432

>  <MW>  (5120) 
134

>  <ID>  (5120) 
JP002094

>  <CONTRIBUTOR>  (5120) 
University of Tokyo Team, {Faculty of Engineering, University of Tokyo

>  <COMMENT>  (5120) 
SMILES=O=Cc(c1)c(C=O)ccc1
InChI=InChI=1S/C8H6O2/c9-5-7-3-1-2-4-8(7)6-10/h1-6H
computed SMILES=O=CC=1C=CC=CC1C=O
accession=JP002094
date=2016.01.19 (Created 2008.10.21, modified 2011.05.06)
author=TAJIMA S, GUNMA COLLEGE OF TECHNOLOGY
license=CC BY-NC-SA
exact mass=134.03678
ionization energy=70 eV
ion type=[M]+*
computed spectral entropy=2.6354417382366897
computed normalized entropy=0.7996274832108842
SPLASH=splash10-0pdi-9500000000-95efe464dfb075a64362
submitter=submitter = University of Tokyo Team (Faculty of Engineering, University of Tokyo)
MoNA Rating=3.75

>  <NUM PEAKS>  (5120) 
27

>  <MASS SPECTRAL PEAKS>  (5120) 
26 1.81
27 5.93
29 10.42
37 5.12
38 5.93
39 9.99
49 3.87
50 29.96
51 49.44
52 11.3
53 4.68
61 3.12
62 3.87
63 4.49
73 2.5
74 11.3
75 6.24
76 10.11
77 84.52
78 17.67
104 3.25
105 99.99
106 30.15
120 4.99
133 7.62
134 35.58
135 3.12

>  <PREDICTED SPECTRUM>  (5120) 
14 28
15 69
16 30
17 13
18 21
25 36
26 129
27 238
28 211
29 331
30 19
31 21
32 5
36 9
37 162
38 255
39 497
40 146
41 138
43 63
44 7
49 145
50 497
51 585
52 240
53 243
60 73
61 167
62 334
63 570
64 278
65 420
66 133
73 246
74 319
75 280
76 375
77 677
78 381
79 139
86 110
87 91
88 89
89 201
92 21
104 152
105 999
106 410
107 9
132 19
133 598
134 724
135 207
136 51

$$$$

     RDKit          2D

  7  6  0  0  0  0  0  0  0  0999 V2000
    1.4498    2.6115    0.0000 C   0  0  0  0  0  0  0  0  0  0  0  0
   -0.0502    0.0135    0.0000 C   0  0  0  0  0  0  0  0  0  0  0  0
   -0.5993    2.0625    0.0000 C   0  0  0  0  0  0  0  0  0  0  0  0
    0.6998    1.3125    0.0000 C   0  0  0  0  0  0  0  0  0  0  0  0
   -0.5993    3.5625    0.0000 O   0  0  0  0  0  0  0  0  0  0  0  0
   -1.8983    1.3125    0.0000 O   0  0  0  0  0  0  0  0  0  0  0  0
    1.9988    0.5625    0.0000 O   0  0  0  0  0  0  0  0  0  0  0  0
  4  1  1  0
  4  2  1  0
  4  3  1  0
  5  3  2  0
  6  3  1  0
  7  4  1  0
M  END
>  <NAME>  (5121) 
2-METHYLLACTIC ACID

>  <SYNONYMS>  (5121) 
ALPHA-HYDROXY ISOBUTYRIC ACID

>  <SPECTRUM TYPE>  (5121) 
MS1

>  <INSTRUMENT TYPE>  (5121) 
EI-B

>  <INSTRUMENT>  (5121) 
HITACHI RMU-7M

>  <ION MODE>  (5121) 
P

>  <INCHIKEY>  (5121) 
BWLBGMIXKSTLSX-UHFFFAOYSA-N

>  <FORMULA>  (5121) 
C4H8O3

>  <EXACT MASS>  (5121) 
104.04734411599999

>  <MW>  (5121) 
104

>  <ID>  (5121) 
JP002093

>  <CONTRIBUTOR>  (5121) 
University of Tokyo Team, {Faculty of Engineering, University of Tokyo

>  <COMMENT>  (5121) 
SMILES=OC(=O)C(C)(C)O
InChI=InChI=1S/C4H8O3/c1-4(2,7)3(5)6/h7H,1-2H3,(H,5,6)
computed SMILES=O=C(O)C(O)(C)C
accession=JP002093
date=2016.01.19 (Created 2008.10.21, modified 2011.05.06)
author=TAJIMA S, GUNMA COLLEGE OF TECHNOLOGY
license=CC BY-NC-SA
exact mass=104.04734
ionization energy=70 eV
ion type=[M]+*
computed spectral entropy=2.130236149071161
computed normalized entropy=0.7110902959776018
SPLASH=splash10-0a4l-9000000000-bb87a50521380a4f04c0
submitter=submitter = University of Tokyo Team (Faculty of Engineering, University of Tokyo)
MoNA Rating=3.75

>  <NUM PEAKS>  (5121) 
20

>  <MASS SPECTRAL PEAKS>  (5121) 
14 2.06
15 10.66
26 1.62
27 5.88
28 3.58
29 7.5
31 47.72
38 1.62
39 8.82
40 1.76
41 25.15
42 5.88
43 48.75
44 3.9
45 5.74
47 2.65
58 1.69
59 99.99
60 3.9
89 1.84

>  <PREDICTED SPECTRUM>  (5121) 
14 77
15 164
16 37
17 26
18 27
19 76
25 25
26 67
27 245
28 217
29 291
31 339
33 73
38 41
39 165
40 102
41 440
42 341
43 793
44 99
45 429
46 22
50 26
58 67
59 999
60 104
61 17
71 166
89 397

$$$$

     RDKit          2D

  8  8  0  0  0  0  0  0  0  0999 V2000
    1.9446    2.2539    0.0000 C   0  0  0  0  0  0  0  0  0  0  0  0
   -1.9467    1.4939    0.0000 C   0  0  0  0  0  0  0  0  0  0  0  0
   -0.6477    2.2439    0.0000 C   0  0  0  0  0  0  0  0  0  0  0  0
   -1.9512    0.0017    0.0000 C   0  0  0  0  0  0  0  0  0  0  0  0
    0.6473    0.0009    0.0000 C   0  0  0  0  0  0  0  0  0  0  0  0
    0.6468    1.5017    0.0000 C   0  0  0  0  0  0  0  0  0  0  0  0
   -0.6517   -0.7491    0.0000 C   0  0  0  0  0  0  0  0  0  0  0  0
   -0.6520   -2.2491    0.0000 N   0  0  0  0  0  0  0  0  0  0  0  0
  3  2  2  0
  4  2  1  0
  6  1  1  0
  6  3  1  0
  6  5  2  0
  7  4  2  0
  7  5  1  0
  8  7  1  0
M  END
>  <NAME>  (5122) 
META-TOLUIDINE

>  <SYNONYMS>  (5122) 


>  <SPECTRUM TYPE>  (5122) 
MS1

>  <INSTRUMENT TYPE>  (5122) 
EI-B

>  <INSTRUMENT>  (5122) 
HITACHI RMU-7M

>  <ION MODE>  (5122) 
P

>  <INCHIKEY>  (5122) 
JJYPMNFTHPTTDI-UHFFFAOYSA-N

>  <FORMULA>  (5122) 
C7H9N

>  <EXACT MASS>  (5122) 
107.073499288

>  <MW>  (5122) 
107

>  <ID>  (5122) 
JP002092

>  <CONTRIBUTOR>  (5122) 
University of Tokyo Team, {Faculty of Engineering, University of Tokyo

>  <COMMENT>  (5122) 
SMILES=Cc(c1)cc(N)cc1
InChI=InChI=1S/C7H9N/c1-6-3-2-4-7(8)5-6/h2-5H,8H2,1H3
computed SMILES=NC1=CC=CC(=C1)C
accession=JP002092
date=2016.01.19 (Created 2008.10.21, modified 2011.05.06)
author=TAJIMA S, GUNMA COLLEGE OF TECHNOLOGY
license=CC BY-NC-SA
exact mass=107.0735
ionization energy=70 eV
ion type=[M]+*
computed spectral entropy=2.2567315387257176
computed normalized entropy=0.6635109008648182
SPLASH=splash10-0a4i-4900000000-a860382b14b555e54dba
submitter=submitter = University of Tokyo Team (Faculty of Engineering, University of Tokyo)
MoNA Rating=3.75

>  <NUM PEAKS>  (5122) 
30

>  <MASS SPECTRAL PEAKS>  (5122) 
27 3.06
30 1.48
38 2.14
39 7.81
40 1.53
41 3.01
42 1.89
50 2.35
51 5.2
52 4.85
52.5 2.19
53 6.12
53.5 3.78
54 1.79
62 1.07
63 2.7
64 1.28
65 4.08
66 1.79
77 16.73
78 5.15
79 18.37
80 4.64
89 3.16
90 2.7
91 3.32
104 2.6
106 99.99
107 95.61
108 7.6

>  <PREDICTED SPECTRUM>  (5122) 
14 10
15 17
16 5
25 38
26 114
27 216
28 160
29 2
34 2
36 28
37 129
38 189
39 432
40 146
41 334
42 70
44 23
46 48
49 48
50 226
51 338
52 311
53 273
54 159
55 19
56 35
57 55
60 46
61 217
62 177
63 321
64 206
65 455
66 251
67 159
68 34
72 1
73 81
74 141
75 142
76 50
77 400
78 349
79 553
80 407
81 114
87 4
89 156
90 153
91 269
92 407
93 94
104 169
105 140
106 776
107 999
108 281
109 0

$$$$

     RDKit          2D

 12 12  0  0  0  0  0  0  0  0999 V2000
    3.3491   -0.1287    0.0000 C   0  0  0  0  0  0  0  0  0  0  0  0
    3.8978    1.9204    0.0000 C   0  0  0  0  0  0  0  0  0  0  0  0
    1.8487    2.4691    0.0000 C   0  0  0  0  0  0  0  0  0  0  0  0
    1.3000   -1.0800    0.0000 C   0  0  0  0  0  0  0  0  0  0  0  0
    1.3000    0.4200    0.0000 C   0  0  0  0  0  0  0  0  0  0  0  0
    0.0000    1.1700    0.0000 C   0  0  0  0  0  0  0  0  0  0  0  0
   -1.3000   -1.0800    0.0000 C   0  0  0  0  0  0  0  0  0  0  0  0
    2.5989    1.1702    0.0000 C   0  0  0  0  0  0  0  0  0  0  0  0
   -0.0000   -1.8300    0.0000 N   0  0  0  0  0  0  0  0  0  0  0  0
   -1.3000    0.4200    0.0000 N   0  0  0  0  0  0  0  0  0  0  0  0
    0.0000    2.6700    0.0000 O   0  0  0  0  0  0  0  0  0  0  0  0
   -2.5989   -1.8302    0.0000 O   0  0  0  0  0  0  0  0  0  0  0  0
  5  4  2  0
  6  5  1  0
  8  1  1  0
  8  2  1  0
  8  3  1  0
  8  5  1  0
  9  4  1  0
  9  7  2  0
 10  6  2  0
 10  7  1  0
 11  6  1  0
 12  7  1  0
M  END
>  <NAME>  (5123) 
5-TERT-BUTYL-1,2,3,4-TETRAHYDROPYRIMIDINE-2,4-DIONE

>  <SYNONYMS>  (5123) 
5-TERT-BUTYLURACIL

>  <SPECTRUM TYPE>  (5123) 
MS1

>  <INSTRUMENT TYPE>  (5123) 
EI-B

>  <INSTRUMENT>  (5123) 
MS-902

>  <ION MODE>  (5123) 
P

>  <INCHIKEY>  (5123) 
FFVVCDOCJNTZKL-UHFFFAOYSA-N

>  <FORMULA>  (5123) 
C8H12N2O2

>  <EXACT MASS>  (5123) 
168.089877624

>  <MW>  (5123) 
168

>  <ID>  (5123) 
JP002049

>  <CONTRIBUTOR>  (5123) 
University of Tokyo Team, {Faculty of Engineering, University of Tokyo

>  <COMMENT>  (5123) 
SMILES=O=C(N1)NC(=O)C(=C1)C(C)(C)C
InChI=InChI=1S/C8H12N2O2/c1-8(2,3)5-4-9-7(12)10-6(5)11/h4H,1-3H3,(H2,9,10,11,12)
computed SMILES=OC1=NC=C(C(O)=N1)C(C)(C)C
accession=JP002049
date=2016.01.19 (Created 2008.10.21, modified 2011.05.06)
author=SASAKI S, TOYOHASHI UNIV. OF TECH.
license=CC BY-NC-SA
exact mass=168.08988
ionization energy=70 eV
ion type=[M]+*
computed spectral entropy=2.6807012891791455
computed normalized entropy=0.7042130202987577
SPLASH=splash10-0w29-5900000000-ddc9b28d37f60974fa83
submitter=submitter = University of Tokyo Team (Faculty of Engineering, University of Tokyo)
MoNA Rating=3.75

>  <NUM PEAKS>  (5123) 
45

>  <MASS SPECTRAL PEAKS>  (5123) 
38 1.4
39 12.1
40 1.6
41 1.23
42 10.4
43 3.2
44 2.9
50 0.11
51 2.4
52 1.3
53 5.5
54 0.15
55 9.3
56 1.4
57 3.6
65 0.29
66 2.5
67 6.3
68 22.1
69 0.43
70 2.6
71 1.3
76 1.6
76.5 0.27
77 1.1
79 1.1
80 5.9
81 0.36
82 15.4
83 3.9
92 12.5
96 0.11
97 1
110 58
111 4.8
125 1.13
126 22.7
127 1.5
149 1.1
151 0.12
153 99.99
154 9.3
167 1.3
168 3.13
169 3.2

>  <PREDICTED SPECTRUM>  (5123) 
14 5
15 13
16 5
17 25
18 47
26 31
27 73
28 69
29 84
30 22
31 1
33 14
34 15
36 8
37 39
38 108
39 290
40 205
41 457
42 282
43 214
44 208
45 126
46 59
47 24
50 63
51 127
52 125
53 274
54 214
55 221
56 182
57 265
58 113
59 92
60 19
61 15
62 31
63 39
64 84
65 132
66 145
67 263
68 235
69 259
70 168
71 107
72 24
73 5
77 105
78 127
79 99
80 50
81 79
82 156
83 176
84 148
85 157
86 45
91 12
92 73
93 54
94 63
95 61
96 53
97 135
98 93
99 37
106 25
107 32
108 51
109 113
110 159
111 99
112 131
113 102
121 15
123 112
124 125
125 226
126 307
127 221
128 76
135 93
136 30
138 52
139 65
140 58
141 38
150 39
151 102
152 74
153 999
154 297
155 120
167 150
168 673
169 219
170 53

$$$$

     RDKit          2D

 12 12  0  0  0  0  0  0  0  0999 V2000
    3.8981    0.7504    0.0000 C   0  0  0  0  0  0  0  0  0  0  0  0
    2.5987    3.0002    0.0000 C   0  0  0  0  0  0  0  0  0  0  0  0
    0.0000   -1.5000    0.0000 C   0  0  0  0  0  0  0  0  0  0  0  0
   -1.3000    0.7500    0.0000 C   0  0  0  0  0  0  0  0  0  0  0  0
   -1.3000   -0.7500    0.0000 C   0  0  0  0  0  0  0  0  0  0  0  0
    1.3000    0.7500    0.0000 C   0  0  0  0  0  0  0  0  0  0  0  0
    1.3000   -0.7500    0.0000 N   0  0  0  0  0  0  0  0  0  0  0  0
    0.0000    1.5000    0.0000 N   0  0  0  0  0  0  0  0  0  0  0  0
    2.5989    1.5002    0.0000 N   0  0  0  0  0  0  0  0  0  0  0  0
   -2.5989   -1.5002    0.0000 N   0  0  0  0  0  0  0  0  0  0  0  0
   -3.8981   -0.7504    0.0000 O   0  0  0  0  0  0  0  0  0  0  0  0
   -2.5987   -3.0002    0.0000 O   0  0  0  0  0  0  0  0  0  0  0  0
  5  3  2  0
  5  4  1  0
  7  3  1  0
  7  6  2  0
  8  4  2  0
  8  6  1  0
  9  1  1  0
  9  2  1  0
  9  6  1  0
 10  5  1  0
 11 10  1  0
 12 10  2  0
M  CHG  2  10   1  11  -1
M  END
>  <NAME>  (5124) 
2-DIMETHYLAMINO-5-NITROPYRIMIDINE

>  <SYNONYMS>  (5124) 


>  <SPECTRUM TYPE>  (5124) 
MS1

>  <INSTRUMENT TYPE>  (5124) 
EI-B

>  <INSTRUMENT>  (5124) 
MS-902

>  <ION MODE>  (5124) 
P

>  <INCHIKEY>  (5124) 
IFFZVNFNYKKNFB-UHFFFAOYSA-N

>  <FORMULA>  (5124) 
C6H8N4O2

>  <EXACT MASS>  (5124) 
168.064725496

>  <MW>  (5124) 
168

>  <ID>  (5124) 
JP002048

>  <CONTRIBUTOR>  (5124) 
University of Tokyo Team, {Faculty of Engineering, University of Tokyo

>  <COMMENT>  (5124) 
SMILES=CN(C)c(n1)ncc(c1)[N+1]([O-1])=O
InChI=InChI=1S/C6H8N4O2/c1-9(2)6-7-3-5(4-8-6)10(11)12/h3-4H,1-2H3
computed SMILES=O=N(=O)C1=CN=C(N=C1)N(C)C
accession=JP002048
date=2016.01.19 (Created 2008.10.21, modified 2011.05.06)
author=SASAKI S, TOYOHASHI UNIV. OF TECH.
license=CC BY-NC-SA
exact mass=168.06473
ionization energy=70 eV
ion type=[M]+*
computed spectral entropy=2.827842122833475
computed normalized entropy=0.7518456970779984
SPLASH=splash10-00kf-6900000000-0cdab6a073c667cd1d89
submitter=submitter = University of Tokyo Team (Faculty of Engineering, University of Tokyo)
MoNA Rating=3.75

>  <NUM PEAKS>  (5124) 
43

>  <MASS SPECTRAL PEAKS>  (5124) 
38 1.1
39 1.5
40 4.3
41 0.48
42 30.3
43 24.8
44 65
45 0.15
50 2.4
52 9
53 8.3
54 0.28
55 4.3
68 2
69 13.5
70 10
71 0.15
72 3.9
77 1.8
79 24
80 1.58
81 2.9
93 8.5
94 2.5
95 0.98
106 1.2
107 45
108 4
109 0.16
110 1.3
121 28.8
122 5.5
123 0.12
125 4.3
135 4.3
139 55
140 0.43
152 1.3
153 37.1
154 2.5
167 1.53
168 99.99
169 9.5

>  <PREDICTED SPECTRUM>  (5124) 
27 14
28 69
30 167
37 32
38 121
39 260
40 289
41 359
42 917
43 488
44 810
45 208
46 329
50 138
51 350
52 481
53 450
54 432
55 470
56 370
57 281
58 43
64 88
65 146
66 340
67 444
68 252
69 425
70 160
71 321
72 136
74 37
76 51
77 143
78 292
79 360
80 320
81 329
82 214
83 163
84 41
91 14
92 141
93 310
94 404
95 355
96 408
97 141
98 165
99 25
105 138
106 259
107 352
108 118
109 147
110 217
111 41
120 103
121 395
122 273
123 266
124 272
125 143
126 62
138 142
139 359
140 46
141 26
151 303
152 164
153 665
154 183
167 262
168 999
169 300
170 37

$$$$

     RDKit          2D

 12 13  0  0  0  0  0  0  0  0999 V2000
   -1.3000    3.0000    0.0000 C   0  0  0  0  0  0  0  0  0  0  0  0
   -2.6000   -0.7500    0.0000 C   0  0  0  0  0  0  0  0  0  0  0  0
   -2.6000    0.7500    0.0000 C   0  0  0  0  0  0  0  0  0  0  0  0
   -1.3000   -1.5000    0.0000 C   0  0  0  0  0  0  0  0  0  0  0  0
    2.6000    0.7500    0.0000 C   0  0  0  0  0  0  0  0  0  0  0  0
    2.6000   -0.7500    0.0000 C   0  0  0  0  0  0  0  0  0  0  0  0
   -1.3000    1.5000    0.0000 C   0  0  0  0  0  0  0  0  0  0  0  0
    0.0000   -0.7500    0.0000 C   0  0  0  0  0  0  0  0  0  0  0  0
    1.3000    1.5000    0.0000 C   0  0  0  0  0  0  0  0  0  0  0  0
    1.3000   -1.5000    0.0000 N   0  0  0  0  0  0  0  0  0  0  0  0
    0.0000    0.7500    0.0000 N   0  0  0  0  0  0  0  0  0  0  0  0
    1.3000    3.0000    0.0000 O   0  0  0  0  0  0  0  0  0  0  0  0
  3  2  1  0
  4  2  1  0
  6  5  2  0
  7  1  1  0
  7  3  1  0
  8  4  1  0
  9  5  1  0
 10  6  1  0
 10  8  2  0
 11  7  1  0
 11  8  1  0
 11  9  1  0
 12  9  2  0
M  END
>  <NAME>  (5125) 
6,7,8,9-TETRAHYDRO-6-METHYL-4H-PYRIDO(1,2-A)PYRIMIDIN-4-ONE

>  <SYNONYMS>  (5125) 


>  <SPECTRUM TYPE>  (5125) 
MS1

>  <INSTRUMENT TYPE>  (5125) 
EI-B

>  <INSTRUMENT>  (5125) 
MS-902

>  <ION MODE>  (5125) 
P

>  <INCHIKEY>  (5125) 
HCJOGZBBWGQKGC-UHFFFAOYSA-N

>  <FORMULA>  (5125) 
C9H12N2O

>  <EXACT MASS>  (5125) 
164.094963004

>  <MW>  (5125) 
164

>  <ID>  (5125) 
JP002047

>  <CONTRIBUTOR>  (5125) 
University of Tokyo Team, {Faculty of Engineering, University of Tokyo

>  <COMMENT>  (5125) 
SMILES=CC(C2)N(C(=O)1)C(CC2)=NC=C1
InChI=InChI=1S/C9H12N2O/c1-7-3-2-4-8-10-6-5-9(12)11(7)8/h5-7H,2-4H2,1H3
computed SMILES=O=C1C=CN=C2N1C(C)CCC2
accession=JP002047
date=2016.01.19 (Created 2008.10.21, modified 2011.05.06)
author=SASAKI S, TOYOHASHI UNIV. OF TECH.
license=CC BY-NC-SA
exact mass=164.09496
ionization energy=70 eV
ion type=[M]+*
computed spectral entropy=2.1637527514854265
computed normalized entropy=0.763709784166008
SPLASH=splash10-03di-1900000000-4690e372a58f5ca29a62
submitter=submitter = University of Tokyo Team (Faculty of Engineering, University of Tokyo)
MoNA Rating=3.75

>  <NUM PEAKS>  (5125) 
17

>  <MASS SPECTRAL PEAKS>  (5125) 
51 7
52 6
53 6
66 0.7
67 6
69 15
93 6
94 0.6
110 60
121 6
122 7
123 1.4
135 20
149 52
163 50
164 99.99
165 11

>  <PREDICTED SPECTRUM>  (5125) 
26 45
27 56
28 92
37 81
38 219
39 659
40 409
41 999
42 676
43 332
50 118
51 355
52 336
53 436
54 522
55 592
56 242
62 12
64 55
65 125
66 359
67 711
68 879
69 727
70 251
77 25
79 70
80 266
81 312
82 438
83 127
92 56
93 206
94 196
95 237
96 348
97 228
98 183
107 193
108 400
109 208
110 22
120 85
121 340
122 92
135 280
136 552
137 171
149 375
150 32
163 180
164 969
165 300

$$$$

     RDKit          2D

 10 10  0  0  0  0  0  0  0  0999 V2000
    3.8981    0.7504    0.0000 C   0  0  0  0  0  0  0  0  0  0  0  0
    2.5987    3.0002    0.0000 C   0  0  0  0  0  0  0  0  0  0  0  0
   -0.0000   -1.5000    0.0000 C   0  0  0  0  0  0  0  0  0  0  0  0
   -1.3000    0.7500    0.0000 C   0  0  0  0  0  0  0  0  0  0  0  0
   -1.3000   -0.7500    0.0000 C   0  0  0  0  0  0  0  0  0  0  0  0
    1.3000    0.7500    0.0000 C   0  0  0  0  0  0  0  0  0  0  0  0
   -2.5989   -1.5002    0.0000 Cl  0  0  0  0  0  0  0  0  0  0  0  0
    1.3000   -0.7500    0.0000 N   0  0  0  0  0  0  0  0  0  0  0  0
    0.0000    1.5000    0.0000 N   0  0  0  0  0  0  0  0  0  0  0  0
    2.5989    1.5002    0.0000 N   0  0  0  0  0  0  0  0  0  0  0  0
  5  3  2  0
  5  4  1  0
  7  5  1  0
  8  3  1  0
  8  6  2  0
  9  4  2  0
  9  6  1  0
 10  1  1  0
 10  2  1  0
 10  6  1  0
M  END
>  <NAME>  (5126) 
5-CHLORO-2-DIMETHYLAMINOPYRIMIDINE

>  <SYNONYMS>  (5126) 


>  <SPECTRUM TYPE>  (5126) 
MS1

>  <INSTRUMENT TYPE>  (5126) 
EI-B

>  <INSTRUMENT>  (5126) 
MS-902

>  <ION MODE>  (5126) 
P

>  <INCHIKEY>  (5126) 
NAMGQSSLAIYNCN-UHFFFAOYSA-N

>  <FORMULA>  (5126) 
C6H8ClN3

>  <EXACT MASS>  (5126) 
157.040674936

>  <MW>  (5126) 
157

>  <ID>  (5126) 
JP002046

>  <CONTRIBUTOR>  (5126) 
University of Tokyo Team, {Faculty of Engineering, University of Tokyo

>  <COMMENT>  (5126) 
SMILES=CN(C)c(n1)ncc(Cl)c1
InChI=InChI=1S/C6H8ClN3/c1-10(2)6-8-3-5(7)4-9-6/h3-4H,1-2H3
computed SMILES=ClC1=CN=C(N=C1)N(C)C
accession=JP002046
date=2016.01.19 (Created 2008.10.21, modified 2011.05.06)
author=SASAKI S, TOYOHASHI UNIV. OF TECH.
license=CC BY-NC-SA
exact mass=157.04067
ionization energy=70 eV
ion type=[M]+*
computed spectral entropy=3.032105248313433
computed normalized entropy=0.7290672008658649
SPLASH=splash10-0a6u-3900000000-141560089c5c9c461abc
submitter=submitter = University of Tokyo Team (Faculty of Engineering, University of Tokyo)
MoNA Rating=3.75

>  <NUM PEAKS>  (5126) 
64

>  <MASS SPECTRAL PEAKS>  (5126) 
36 3.7
38 1.2
39 1.8
40 0.26
41 3.6
42 26.3
43 7.4
44 8.25
45 2
51 3.8
52 7
53 0.65
54 2.7
55 2.9
58 1.8
59 0.26
60 2.6
61 1.6
66 1.1
67 0.16
69 11.8
70 6
73 1
74 0.22
77 1.8
78.5 3.2
79 4.9
80 0.24
82 1.6
83 3.2
86 3.5
87 0.7
88 3.2
89 2.6
90 1
95 0.11
100 1.4
101 2
102 1.6
103 0.15
107 4.4
108 1
113 5.6
114 1.81
115 15.2
116 6.5
117 4.3
121 0.15
127 1.2
128 74
129 10.3
130 2.45
131 3.3
137 1
142 54.8
143 0.34
144 15.9
145 1.2
154 1
156 2.66
157 99.99
158 14
159 29.1
160 2.3

>  <PREDICTED SPECTRUM>  (5126) 
14 20
15 98
16 13
18 10
26 49
27 80
28 214
29 41
30 95
31 22
35 49
36 101
37 43
38 121
39 141
40 202
42 560
43 314
44 847
45 52
49 92
50 172
51 244
52 349
53 253
54 224
55 191
56 90
57 27
60 42
61 19
62 40
63 10
64 63
65 23
66 113
67 47
69 81
71 139
73 34
75 84
76 51
77 135
78 224
79 195
80 141
81 82
83 128
85 62
86 194
87 187
88 179
89 74
90 103
91 6
93 30
94 51
95 119
99 65
100 25
101 128
102 71
103 41
112 43
113 417
114 350
115 380
116 167
117 134
122 252
123 13
128 553
129 218
130 402
131 93
141 15
142 866
143 259
144 556
145 155
156 456
157 999
158 453
159 585
160 183

$$$$

     RDKit          2D

 12 13  0  0  0  0  0  0  0  0999 V2000
    5.1968    3.0006    0.0000 C   0  0  0  0  0  0  0  0  0  0  0  0
    3.8971    3.7512    0.0000 C   0  0  0  0  0  0  0  0  0  0  0  0
    5.1975    1.4998    0.0000 C   0  0  0  0  0  0  0  0  0  0  0  0
   -1.3000   -0.7500    0.0000 C   0  0  0  0  0  0  0  0  0  0  0  0
    2.5982    3.0010    0.0000 C   0  0  0  0  0  0  0  0  0  0  0  0
    3.8986    0.7496    0.0000 C   0  0  0  0  0  0  0  0  0  0  0  0
   -1.3000    0.7500    0.0000 C   0  0  0  0  0  0  0  0  0  0  0  0
   -0.0000   -1.5000    0.0000 C   0  0  0  0  0  0  0  0  0  0  0  0
    2.5989    1.5002    0.0000 C   0  0  0  0  0  0  0  0  0  0  0  0
    1.3000    0.7500    0.0000 C   0  0  0  0  0  0  0  0  0  0  0  0
    0.0000    1.5000    0.0000 N   0  0  0  0  0  0  0  0  0  0  0  0
    1.3000   -0.7500    0.0000 N   0  0  0  0  0  0  0  0  0  0  0  0
  2  1  2  0
  3  1  1  0
  5  2  1  0
  6  3  2  0
  7  4  2  0
  8  4  1  0
  9  5  2  0
  9  6  1  0
 10  9  1  0
 11  7  1  0
 11 10  2  0
 12  8  2  0
 12 10  1  0
M  END
>  <NAME>  (5127) 
2-PHENYLPYRIMIDINE

>  <SYNONYMS>  (5127) 


>  <SPECTRUM TYPE>  (5127) 
MS1

>  <INSTRUMENT TYPE>  (5127) 
EI-B

>  <INSTRUMENT>  (5127) 
MS-902

>  <ION MODE>  (5127) 
P

>  <INCHIKEY>  (5127) 
OXPDQFOKSZYEMJ-UHFFFAOYSA-N

>  <FORMULA>  (5127) 
C10H8N2

>  <EXACT MASS>  (5127) 
156.068748256

>  <MW>  (5127) 
156

>  <ID>  (5127) 
JP002045

>  <CONTRIBUTOR>  (5127) 
University of Tokyo Team, {Faculty of Engineering, University of Tokyo

>  <COMMENT>  (5127) 
SMILES=c(c2)ccc(c2)c(n1)nccc1
InChI=InChI=1S/C10H8N2/c1-2-5-9(6-3-1)10-11-7-4-8-12-10/h1-8H
computed SMILES=N=1C=CC=NC1C=2C=CC=CC2
accession=JP002045
date=2016.01.19 (Created 2008.10.21, modified 2011.05.06)
author=SASAKI S, TOYOHASHI UNIV. OF TECH.
license=CC BY-NC-SA
exact mass=156.06875
ionization energy=70 eV
ion type=[M]+*
computed spectral entropy=2.5546356810243926
computed normalized entropy=0.6792075939711918
SPLASH=splash10-0pb9-4900000000-4dbdb2b9c10d87840dde
submitter=submitter = University of Tokyo Team (Faculty of Engineering, University of Tokyo)
MoNA Rating=3.75

>  <NUM PEAKS>  (5127) 
43

>  <MASS SPECTRAL PEAKS>  (5127) 
39 3.9
41 6.6
42 3.1
43 1.1
44 7.2
50 5.4
51 6.6
52 0.31
53 1.5
55 3.8
56 2.5
57 1.3
58 1
63 1.3
65 1.2
67 0.15
69 2.6
70 1.8
71 9
74 0.15
75 2.8
76 13
77 8.7
78 0.49
80 2
81 1
82 2
83 0.18
84 1.2
85 6.2
97 1.4
99 0.2
102 1.8
103 66.6
104 8.7
113 0.12
127 1
128 2.9
129 9.3
130 0.12
155 8.5
156 99.99
157 10.9

>  <PREDICTED SPECTRUM>  (5127) 
26 44
27 63
28 27
38 27
39 189
40 38
50 286
51 447
52 298
53 148
63 170
64 25
74 101
75 169
76 196
77 555
78 103
79 99
80 21
102 119
103 266
104 170
128 116
129 347
130 175
141 115
154 4
155 309
156 999
157 326
158 13

$$$$

     RDKit          2D

 11 11  0  0  0  0  0  0  0  0999 V2000
   -3.8981   -0.7504    0.0000 C   0  0  0  0  0  0  0  0  0  0  0  0
    1.3000    0.7500    0.0000 C   0  0  0  0  0  0  0  0  0  0  0  0
   -2.5989   -1.5002    0.0000 C   0  0  0  0  0  0  0  0  0  0  0  0
   -1.3000   -0.7500    0.0000 C   0  0  0  0  0  0  0  0  0  0  0  0
   -1.3000    0.7500    0.0000 C   0  0  0  0  0  0  0  0  0  0  0  0
    0.0000   -1.5000    0.0000 C   0  0  0  0  0  0  0  0  0  0  0  0
    0.0000    1.5000    0.0000 N   0  0  0  0  0  0  0  0  0  0  0  0
    1.3000   -0.7500    0.0000 N   0  0  0  0  0  0  0  0  0  0  0  0
   -2.5987   -3.0002    0.0000 O   0  0  0  0  0  0  0  0  0  0  0  0
   -2.5989    1.5002    0.0000 O   0  0  0  0  0  0  0  0  0  0  0  0
   -0.0000   -3.0000    0.0000 O   0  0  0  0  0  0  0  0  0  0  0  0
  3  1  1  0
  4  3  1  0
  5  4  2  0
  6  4  1  0
  7  2  1  0
  7  5  1  0
  8  2  1  0
  8  6  2  0
  9  3  2  0
 10  5  1  0
 11  6  1  0
M  END
>  <NAME>  (5128) 
5-ACETYL-1,2-DIHYDRO-4,6-DIHYDROXYPYRIMIDINE

>  <SYNONYMS>  (5128) 


>  <SPECTRUM TYPE>  (5128) 
MS1

>  <INSTRUMENT TYPE>  (5128) 
EI-B

>  <INSTRUMENT>  (5128) 
MS-902

>  <ION MODE>  (5128) 
P

>  <INCHIKEY>  (5128) 
SHGXAQVFSPSKPP-UHFFFAOYSA-N

>  <FORMULA>  (5128) 
C6H8N2O3

>  <EXACT MASS>  (5128) 
156.05349211599997

>  <MW>  (5128) 
156

>  <ID>  (5128) 
JP002044

>  <CONTRIBUTOR>  (5128) 
University of Tokyo Team, {Faculty of Engineering, University of Tokyo

>  <COMMENT>  (5128) 
SMILES=CC(=O)C(=C(O)1)C(O)=NCN1
InChI=InChI=1S/C6H8N2O3/c1-3(9)4-5(10)7-2-8-6(4)11/h7,10H,2H2,1H3,(H,8,11)
computed SMILES=O=C(C=1C(O)=NCNC1O)C
accession=JP002044
date=2016.01.19 (Created 2008.10.21, modified 2011.05.06)
author=SASAKI S, TOYOHASHI UNIV. OF TECH.
license=CC BY-NC-SA
exact mass=156.05349
ionization energy=70 eV
ion type=[M]+*
computed spectral entropy=2.390559706955685
computed normalized entropy=0.6836992813346165
SPLASH=splash10-0a4i-6900000000-18d54300517cd2c7c579
submitter=submitter = University of Tokyo Team (Faculty of Engineering, University of Tokyo)
MoNA Rating=3.75

>  <NUM PEAKS>  (5128) 
33

>  <MASS SPECTRAL PEAKS>  (5128) 
41 1.8
42 6.3
43 53.4
44 1.13
45 13.4
46 1.6
53 1.2
55 0.24
56 4.7
60 2.6
66 1.2
67 0.12
68 3
69 19.7
71 10.1
73 0.13
83 1.3
84 3.9
85 10.8
86 0.31
99 13.8
111 2.6
112 2.2
126 0.2
127 1.8
128 3.9
138 3.9
139 0.82
141 7.9
154 3.6
155 73.9
156 99.99
157 6.5

>  <PREDICTED SPECTRUM>  (5128) 
14 2
15 6
28 13
29 32
36 21
37 60
38 183
39 218
40 295
41 213
42 603
43 937
44 450
45 157
46 38
50 14
51 61
52 210
53 224
54 343
55 151
56 86
57 137
58 79
66 21
67 227
68 200
69 503
70 235
71 177
72 81
73 58
81 36
82 50
83 42
84 76
85 200
86 214
87 22
97 2
98 234
99 166
100 22
110 112
111 104
112 13
113 157
114 68
126 2
127 214
128 200
129 56
138 230
139 192
141 503
142 60
155 37
156 999
157 259
158 29

$$$$

     RDKit          2D

 11 11  0  0  0  0  0  0  0  0999 V2000
    1.3000    0.7500    0.0000 C   0  0  0  0  0  0  0  0  0  0  0  0
   -1.3000   -0.7500    0.0000 C   0  0  0  0  0  0  0  0  0  0  0  0
   -2.5989   -1.5002    0.0000 C   0  0  0  0  0  0  0  0  0  0  0  0
   -1.3000    0.7500    0.0000 C   0  0  0  0  0  0  0  0  0  0  0  0
    0.0000   -1.5000    0.0000 C   0  0  0  0  0  0  0  0  0  0  0  0
   -3.8981   -0.7504    0.0000 N   0  0  0  0  0  0  0  0  0  0  0  0
    0.0000    1.5000    0.0000 N   0  0  0  0  0  0  0  0  0  0  0  0
    1.3000   -0.7500    0.0000 N   0  0  0  0  0  0  0  0  0  0  0  0
   -2.5987   -3.0002    0.0000 O   0  0  0  0  0  0  0  0  0  0  0  0
   -2.5989    1.5002    0.0000 O   0  0  0  0  0  0  0  0  0  0  0  0
   -0.0000   -3.0000    0.0000 O   0  0  0  0  0  0  0  0  0  0  0  0
  3  2  1  0
  4  2  2  0
  5  2  1  0
  6  3  1  0
  7  1  2  0
  7  4  1  0
  8  1  1  0
  8  5  2  0
  9  3  2  0
 10  4  1  0
 11  5  1  0
M  END
>  <NAME>  (5129) 
4,6-DIHYDROXYPYRIMIDINE-5-CARBOXAMIDE

>  <SYNONYMS>  (5129) 


>  <SPECTRUM TYPE>  (5129) 
MS1

>  <INSTRUMENT TYPE>  (5129) 
EI-B

>  <INSTRUMENT>  (5129) 
MS-902

>  <ION MODE>  (5129) 
P

>  <INCHIKEY>  (5129) 
RVVVQQNYGKCVMV-UHFFFAOYSA-N

>  <FORMULA>  (5129) 
C5H5N3O3

>  <EXACT MASS>  (5129) 
155.03309102

>  <MW>  (5129) 
155

>  <ID>  (5129) 
JP002043

>  <CONTRIBUTOR>  (5129) 
University of Tokyo Team, {Faculty of Engineering, University of Tokyo

>  <COMMENT>  (5129) 
SMILES=NC(=O)c(c(O)1)c(O)ncn1
InChI=InChI=1S/C5H5N3O3/c6-3(9)2-4(10)7-1-8-5(2)11/h1H,(H2,6,9)(H2,7,8,10,11)
computed SMILES=O=C(N)C=1C(O)=NC=NC1O
accession=JP002043
date=2016.01.19 (Created 2008.10.21, modified 2011.05.06)
author=SASAKI S, TOYOHASHI UNIV. OF TECH.
license=CC BY-NC-SA
exact mass=155.03309
ionization energy=70 eV
ion type=[M]+*
computed spectral entropy=1.4905483577843492
computed normalized entropy=0.5376016809951673
SPLASH=splash10-0a4r-1900000000-6765db8ea494ffce90b4
submitter=submitter = University of Tokyo Team (Faculty of Engineering, University of Tokyo)
MoNA Rating=3.75

>  <NUM PEAKS>  (5129) 
16

>  <MASS SPECTRAL PEAKS>  (5129) 
40 2.7
41 1.9
42 4.3
44 0.67
57 1
67 1
68 2.1
69 1
71 10
84 1.4
110 2.7
112 0.32
139 66.7
140 4.4
155 99.99
156 8

>  <PREDICTED SPECTRUM>  (5129) 
16 31
17 66
18 65
27 43
28 66
29 22
30 20
36 53
37 62
38 136
39 201
40 187
41 298
42 309
43 447
44 886
45 212
46 46
47 8
50 20
51 240
52 164
53 390
54 416
55 418
56 251
57 242
58 123
60 51
61 11
65 80
66 205
67 315
68 256
69 302
70 194
71 116
72 199
73 217
74 49
75 106
81 235
82 252
83 445
84 349
85 185
86 106
95 74
96 206
97 35
98 72
99 44
100 51
109 78
110 446
111 350
112 209
126 114
127 200
137 82
138 220
139 717
140 112
141 17
154 25
155 999
156 253
157 41

$$$$

     RDKit          2D

 11 11  0  0  0  0  0  0  0  0999 V2000
    3.8981    0.7504    0.0000 C   0  0  0  0  0  0  0  0  0  0  0  0
   -0.0000   -1.5000    0.0000 C   0  0  0  0  0  0  0  0  0  0  0  0
   -1.3000    0.7500    0.0000 C   0  0  0  0  0  0  0  0  0  0  0  0
   -1.3000   -0.7500    0.0000 C   0  0  0  0  0  0  0  0  0  0  0  0
    1.3000    0.7500    0.0000 C   0  0  0  0  0  0  0  0  0  0  0  0
    1.3000   -0.7500    0.0000 N   0  0  0  0  0  0  0  0  0  0  0  0
    0.0000    1.5000    0.0000 N   0  0  0  0  0  0  0  0  0  0  0  0
   -2.5989   -1.5002    0.0000 N   0  0  0  0  0  0  0  0  0  0  0  0
   -3.8981   -0.7504    0.0000 O   0  0  0  0  0  0  0  0  0  0  0  0
   -2.5987   -3.0002    0.0000 O   0  0  0  0  0  0  0  0  0  0  0  0
    2.5989    1.5002    0.0000 O   0  0  0  0  0  0  0  0  0  0  0  0
  4  2  2  0
  4  3  1  0
  6  2  1  0
  6  5  2  0
  7  3  2  0
  7  5  1  0
  8  4  1  0
  9  8  1  0
 10  8  2  0
 11  1  1  0
 11  5  1  0
M  CHG  2   8   1   9  -1
M  END
>  <NAME>  (5130) 
2-METHOXY-5-NITROPYRIMIDINE

>  <SYNONYMS>  (5130) 


>  <SPECTRUM TYPE>  (5130) 
MS1

>  <INSTRUMENT TYPE>  (5130) 
EI-B

>  <INSTRUMENT>  (5130) 
MS-902

>  <ION MODE>  (5130) 
P

>  <INCHIKEY>  (5130) 
ZPUHFIFABZPKHA-UHFFFAOYSA-N

>  <FORMULA>  (5130) 
C5H5N3O3

>  <EXACT MASS>  (5130) 
155.03309102

>  <MW>  (5130) 
155

>  <ID>  (5130) 
JP002042

>  <CONTRIBUTOR>  (5130) 
University of Tokyo Team, {Faculty of Engineering, University of Tokyo

>  <COMMENT>  (5130) 
SMILES=COc(n1)ncc(c1)[N+1]([O-1])=O
InChI=InChI=1S/C5H5N3O3/c1-11-5-6-2-4(3-7-5)8(9)10/h2-3H,1H3
computed SMILES=O=N(=O)C1=CN=C(N=C1)OC
accession=JP002042
date=2016.01.19 (Created 2008.10.21, modified 2011.05.06)
author=SASAKI S, TOYOHASHI UNIV. OF TECH.
license=CC BY-NC-SA
exact mass=155.03309
ionization energy=70 eV
ion type=[M]+*
computed spectral entropy=2.9129586133767815
computed normalized entropy=0.7484823014030078
SPLASH=splash10-004i-9700000000-1d0d3199d1e2d13a088d
submitter=submitter = University of Tokyo Team (Faculty of Engineering, University of Tokyo)
MoNA Rating=3.75

>  <NUM PEAKS>  (5130) 
49

>  <MASS SPECTRAL PEAKS>  (5130) 
36 3
38 4
39 10.6
40 0.56
42 8.3
43 1.3
44 13.3
46 0.2
51 5.4
52 13.9
53 16.4
54 0.96
55 4.6
56 4.2
57 1.8
58 0.51
59 2.1
65 4.6
66 6.3
67 1.37
68 2.2
69 1.2
70 1.6
77 0.54
78 2.2
79 42.7
80 5.5
81 0.67
82 7.9
83 1.3
84 1.8
94 1.03
95 2.7
97 2.3
98 7.2
108 0.49
109 6.3
110 1.8
122 5.4
123 0.47
124 1
125 99.99
126 13.3
127 0.24
139 1.1
140 2
154 9.8
155 5.73
156 4.9

>  <PREDICTED SPECTRUM>  (5130) 
15 37
26 40
27 51
28 8
30 2
37 33
38 116
39 210
40 161
41 235
42 327
43 214
44 91
46 168
50 131
51 302
52 399
53 449
54 413
55 380
56 258
57 249
58 184
59 72
63 50
64 108
65 130
66 197
67 356
68 332
69 301
70 176
71 21
79 223
80 353
81 429
82 426
83 248
84 14
85 7
93 71
94 360
95 136
96 31
97 258
98 137
108 230
109 504
110 341
111 98
125 467
126 176
127 19
128 5
138 135
139 125
140 447
141 78
154 340
155 999
156 275
157 31

$$$$

     RDKit          2D

 10 10  0  0  0  0  0  0  0  0999 V2000
   -2.5989   -1.5002    0.0000 C   0  0  0  0  0  0  0  0  0  0  0  0
    1.3000    0.7500    0.0000 C   0  0  0  0  0  0  0  0  0  0  0  0
   -1.3000   -0.7500    0.0000 C   0  0  0  0  0  0  0  0  0  0  0  0
   -1.3000    0.7500    0.0000 C   0  0  0  0  0  0  0  0  0  0  0  0
   -0.0000   -1.5000    0.0000 C   0  0  0  0  0  0  0  0  0  0  0  0
   -2.5989    1.5002    0.0000 Cl  0  0  0  0  0  0  0  0  0  0  0  0
   -3.8978   -2.2504    0.0000 N   0  0  0  0  0  0  0  0  0  0  0  0
    0.0000    1.5000    0.0000 N   0  0  0  0  0  0  0  0  0  0  0  0
    1.3000   -0.7500    0.0000 N   0  0  0  0  0  0  0  0  0  0  0  0
   -0.0000   -3.0000    0.0000 O   0  0  0  0  0  0  0  0  0  0  0  0
  3  1  1  0
  4  3  2  0
  5  3  1  0
  6  4  1  0
  7  1  3  0
  8  2  2  0
  8  4  1  0
  9  2  1  0
  9  5  2  0
 10  5  1  0
M  END
>  <NAME>  (5131) 
6-CHLORO-5-CYANO-3,4-DIHYDROPYRIMIDIN-4-ONE

>  <SYNONYMS>  (5131) 


>  <SPECTRUM TYPE>  (5131) 
MS1

>  <INSTRUMENT TYPE>  (5131) 
EI-B

>  <INSTRUMENT>  (5131) 
MS-902

>  <ION MODE>  (5131) 
P

>  <INCHIKEY>  (5131) 
PEBPXXOYLASTAA-UHFFFAOYSA-N

>  <FORMULA>  (5131) 
C5H2ClN3O

>  <EXACT MASS>  (5131) 
154.988639364

>  <MW>  (5131) 
155

>  <ID>  (5131) 
JP002041

>  <CONTRIBUTOR>  (5131) 
University of Tokyo Team, {Faculty of Engineering, University of Tokyo

>  <COMMENT>  (5131) 
SMILES=N#CC(C(=O)1)=C(Cl)N=CN1
InChI=InChI=1S/C5H2ClN3O/c6-4-3(1-7)5(10)9-2-8-4/h2H,(H,8,9,10)
computed SMILES=N#CC=1C(Cl)=NC=NC1O
accession=JP002041
date=2016.01.19 (Created 2008.10.21, modified 2011.05.06)
author=SASAKI S, TOYOHASHI UNIV. OF TECH.
license=CC BY-NC-SA
exact mass=154.98864
ionization energy=70 eV
ion type=[M]+*
computed spectral entropy=2.7541568054444063
computed normalized entropy=0.7153379793078937
SPLASH=splash10-0a4l-8900000000-4d78ce7514559b18e7cc
submitter=submitter = University of Tokyo Team (Faculty of Engineering, University of Tokyo)
MoNA Rating=3.75

>  <NUM PEAKS>  (5131) 
47

>  <MASS SPECTRAL PEAKS>  (5131) 
35 2.8
36 16
37 1
38 1.81
39 4
40 1.9
41 1.4
43 0.11
47 11.1
48 3.6
49 3.5
50 0.42
51 4
53 1.1
55 1.2
57 0.17
62 4.4
63 4.7
64 10.4
65 0.86
66 1.8
67 4.8
73 1.3
76 0.46
77 5.3
82 1.2
85 21.4
86 0.12
87 5.2
92 3.2
93 82.4
94 0.45
99 3.9
100 2.9
101 1.3
111 0.11
120 11.1
127 39.1
128 15.1
129 1.35
130 5.2
137 1.6
149 1.6
155 99.99
156 8.2
157 38.6
158 2.7

>  <PREDICTED SPECTRUM>  (5131) 
25 31
26 13
29 6
33 3
34 18
35 113
36 143
37 273
38 318
39 259
40 193
41 174
42 155
43 185
44 123
45 97
46 30
47 245
48 188
49 287
50 279
51 327
52 315
53 322
54 229
55 126
56 99
57 73
58 3
60 179
61 275
62 392
63 420
64 463
65 371
66 306
67 193
68 82
71 83
72 166
73 325
74 253
75 259
76 331
77 200
78 30
79 65
80 41
81 7
82 35
83 50
84 144
85 125
86 177
87 53
88 20
91 121
92 344
93 188
94 60
97 30
98 68
99 328
100 462
101 367
102 279
103 122
104 84
110 51
111 24
113 49
114 23
119 142
120 215
121 55
126 99
127 372
128 334
129 250
130 171
131 18
138 22
139 81
155 999
156 293
157 588
158 185
159 26

$$$$

     RDKit          2D

 11 11  0  0  0  0  0  0  0  0999 V2000
   -3.8981   -0.7504    0.0000 C   0  0  0  0  0  0  0  0  0  0  0  0
    1.3000    0.7500    0.0000 C   0  0  0  0  0  0  0  0  0  0  0  0
   -2.5989   -1.5002    0.0000 C   0  0  0  0  0  0  0  0  0  0  0  0
   -1.3000   -0.7500    0.0000 C   0  0  0  0  0  0  0  0  0  0  0  0
   -1.3000    0.7500    0.0000 C   0  0  0  0  0  0  0  0  0  0  0  0
    0.0000   -1.5000    0.0000 C   0  0  0  0  0  0  0  0  0  0  0  0
    0.0000    1.5000    0.0000 N   0  0  0  0  0  0  0  0  0  0  0  0
    1.3000   -0.7500    0.0000 N   0  0  0  0  0  0  0  0  0  0  0  0
   -2.5987   -3.0002    0.0000 O   0  0  0  0  0  0  0  0  0  0  0  0
   -2.5989    1.5002    0.0000 O   0  0  0  0  0  0  0  0  0  0  0  0
   -0.0000   -3.0000    0.0000 O   0  0  0  0  0  0  0  0  0  0  0  0
  3  1  1  0
  4  3  1  0
  5  4  2  0
  6  4  1  0
  7  2  2  0
  7  5  1  0
  8  2  1  0
  8  6  2  0
  9  3  2  0
 10  5  1  0
 11  6  1  0
M  END
>  <NAME>  (5132) 
5-ACETYL-3,4-DIHYDRO-6-HYDROXYPYRIMIDIN-4-ONE

>  <SYNONYMS>  (5132) 


>  <SPECTRUM TYPE>  (5132) 
MS1

>  <INSTRUMENT TYPE>  (5132) 
EI-B

>  <INSTRUMENT>  (5132) 
MS-902

>  <ION MODE>  (5132) 
P

>  <INCHIKEY>  (5132) 
PYJZBCIQPVBBPY-UHFFFAOYSA-N

>  <FORMULA>  (5132) 
C6H6N2O3

>  <EXACT MASS>  (5132) 
154.03784205199997

>  <MW>  (5132) 
154

>  <ID>  (5132) 
JP002040

>  <CONTRIBUTOR>  (5132) 
University of Tokyo Team, {Faculty of Engineering, University of Tokyo

>  <COMMENT>  (5132) 
SMILES=CC(=O)C(=C(O)1)C(=O)NC=N1
InChI=InChI=1S/C6H6N2O3/c1-3(9)4-5(10)7-2-8-6(4)11/h2H,1H3,(H2,7,8,10,11)
computed SMILES=O=C(C=1C(O)=NC=NC1O)C
accession=JP002040
date=2016.01.19 (Created 2008.10.21, modified 2011.05.06)
author=SASAKI S, TOYOHASHI UNIV. OF TECH.
license=CC BY-NC-SA
exact mass=154.03784
ionization energy=70 eV
ion type=[M]+*
computed spectral entropy=2.3248899194676196
computed normalized entropy=0.6539134507392427
SPLASH=splash10-000i-4900000000-77f464783e8c7108a029
submitter=submitter = University of Tokyo Team (Faculty of Engineering, University of Tokyo)
MoNA Rating=3.75

>  <NUM PEAKS>  (5132) 
35

>  <MASS SPECTRAL PEAKS>  (5132) 
36 4.3
38 1.3
39 1.9
40 0.19
41 2.8
42 4
43 18.1
44 1.61
45 1
53 1.2
55 1.9
56 0.23
57 2.3
66 1.3
67 2
68 0.37
69 14.3
70 1.3
71 26.9
83 0.29
84 5.9
85 1.6
92 2.2
111 0.13
112 8.9
125 1.9
126 1.3
137 0.19
139 99.99
140 5.7
141 1
151 0.1
153 7.3
154 48.9
155 5.5

>  <PREDICTED SPECTRUM>  (5132) 
14 12
15 7
16 11
17 22
18 12
26 28
27 61
28 83
30 50
38 78
39 0
40 159
41 206
42 438
43 594
44 255
45 71
51 98
52 91
53 269
54 282
55 256
56 214
57 120
67 83
68 100
69 233
70 235
71 382
72 238
73 60
80 34
82 261
83 148
84 230
85 229
86 110
87 18
97 7
98 116
99 158
100 20
110 92
111 216
112 179
113 79
125 195
126 209
127 97
137 16
138 52
139 791
140 203
153 86
154 999
155 316
156 23

$$$$

     RDKit          2D

  9  9  0  0  0  0  0  0  0  0999 V2000
   -2.5989   -0.7504    0.0000 C   0  0  0  0  0  0  0  0  0  0  0  0
    1.2992    1.5000    0.0000 C   0  0  0  0  0  0  0  0  0  0  0  0
    2.5992   -0.7500    0.0000 C   0  0  0  0  0  0  0  0  0  0  0  0
    2.5992    0.7500    0.0000 C   0  0  0  0  0  0  0  0  0  0  0  0
   -0.0008   -0.7500    0.0000 C   0  0  0  0  0  0  0  0  0  0  0  0
    3.8981    1.5002    0.0000 Cl  0  0  0  0  0  0  0  0  0  0  0  0
   -0.0008    0.7500    0.0000 N   0  0  0  0  0  0  0  0  0  0  0  0
    1.2992   -1.5000    0.0000 N   0  0  0  0  0  0  0  0  0  0  0  0
   -1.2998   -1.5002    0.0000 O   0  0  0  0  0  0  0  0  0  0  0  0
  4  2  2  0
  4  3  1  0
  6  4  1  0
  7  2  1  0
  7  5  2  0
  8  3  2  0
  8  5  1  0
  9  1  1  0
  9  5  1  0
M  END
>  <NAME>  (5133) 
5-CHLORO-2-METHOXYPYRIMIDINE

>  <SYNONYMS>  (5133) 


>  <SPECTRUM TYPE>  (5133) 
MS1

>  <INSTRUMENT TYPE>  (5133) 
EI-B

>  <INSTRUMENT>  (5133) 
MS-902

>  <ION MODE>  (5133) 
P

>  <INCHIKEY>  (5133) 
GJNGJHZIOYFEOP-UHFFFAOYSA-N

>  <FORMULA>  (5133) 
C5H5ClN2O

>  <EXACT MASS>  (5133) 
144.00904046

>  <MW>  (5133) 
144

>  <ID>  (5133) 
JP002039

>  <CONTRIBUTOR>  (5133) 
University of Tokyo Team, {Faculty of Engineering, University of Tokyo

>  <COMMENT>  (5133) 
SMILES=COc(n1)ncc(Cl)c1
InChI=InChI=1S/C5H5ClN2O/c1-9-5-7-2-4(6)3-8-5/h2-3H,1H3
computed SMILES=ClC1=CN=C(N=C1)OC
accession=JP002039
date=2016.01.19 (Created 2008.10.21, modified 2011.05.06)
author=SASAKI S, TOYOHASHI UNIV. OF TECH.
license=CC BY-NC-SA
exact mass=144.00904
ionization energy=70 eV
ion type=[M]+*
computed spectral entropy=2.922723607465657
computed normalized entropy=0.7677916325179654
SPLASH=splash10-0296-5900000000-7b2caffd467d54d3a435
submitter=submitter = University of Tokyo Team (Faculty of Engineering, University of Tokyo)
MoNA Rating=3.75

>  <NUM PEAKS>  (5133) 
45

>  <MASS SPECTRAL PEAKS>  (5133) 
38 4.1
39 5.9
40 1.1
42 0.91
43 2.1
49 1.8
50 7.8
51 0.98
52 15.5
53 9
54 7.9
56 0.1
60 9.8
61 1.9
62 3.8
65 0.14
67 2.1
73 4.3
74 20.9
75 0.17
76 6.9
77 3.1
79 6.7
81 0.25
82 17.8
86 5.5
87 34.5
88 0.34
89 11.4
90 2.4
102 8.6
104 0.26
109 1.2
110 1.3
113 4
114 99.99
115 35.3
116 34.5
117 12.8
118 0.14
143 25.9
144 81.9
145 14.3
146 2.88
147 1.8

>  <PREDICTED SPECTRUM>  (5133) 
14 47
15 142
16 13
17 1
25 28
26 120
27 156
28 173
29 187
30 66
31 80
35 62
36 95
37 112
38 201
39 120
40 156
41 125
42 143
43 94
44 48
45 11
47 142
48 37
49 21
50 61
51 253
52 314
53 278
54 196
55 101
56 54
57 93
58 62
60 57
61 80
62 90
64 138
65 225
66 161
67 34
68 36
69 11
72 69
74 97
75 126
76 164
77 152
78 95
79 204
80 119
81 122
82 98
83 49
85 58
86 83
87 165
88 104
89 171
90 61
93 5
99 60
100 125
101 162
102 89
103 153
104 69
105 47
108 24
109 212
110 32
113 40
114 221
115 355
116 264
117 297
118 44
119 32
129 493
130 88
131 343
132 71
143 519
144 999
145 412
146 599
147 153
148 18

$$$$

     RDKit          2D

 10 10  0  0  0  0  0  0  0  0999 V2000
   -3.8981   -0.7504    0.0000 C   0  0  0  0  0  0  0  0  0  0  0  0
    3.8981    0.7504    0.0000 C   0  0  0  0  0  0  0  0  0  0  0  0
    0.0000   -1.5000    0.0000 C   0  0  0  0  0  0  0  0  0  0  0  0
   -1.3000    0.7500    0.0000 C   0  0  0  0  0  0  0  0  0  0  0  0
   -1.3000   -0.7500    0.0000 C   0  0  0  0  0  0  0  0  0  0  0  0
    1.3000    0.7500    0.0000 C   0  0  0  0  0  0  0  0  0  0  0  0
    1.3000   -0.7500    0.0000 N   0  0  0  0  0  0  0  0  0  0  0  0
    0.0000    1.5000    0.0000 N   0  0  0  0  0  0  0  0  0  0  0  0
   -2.5989   -1.5002    0.0000 O   0  0  0  0  0  0  0  0  0  0  0  0
    2.5989    1.5002    0.0000 O   0  0  0  0  0  0  0  0  0  0  0  0
  5  3  2  0
  5  4  1  0
  7  3  1  0
  7  6  2  0
  8  4  2  0
  8  6  1  0
  9  1  1  0
  9  5  1  0
 10  2  1  0
 10  6  1  0
M  END
>  <NAME>  (5134) 
2,5-DIMETHOXYPYRIMIDINE

>  <SYNONYMS>  (5134) 


>  <SPECTRUM TYPE>  (5134) 
MS1

>  <INSTRUMENT TYPE>  (5134) 
EI-B

>  <INSTRUMENT>  (5134) 
MS-902

>  <ION MODE>  (5134) 
P

>  <INCHIKEY>  (5134) 
JCDHBXYIWAUNSH-UHFFFAOYSA-N

>  <FORMULA>  (5134) 
C6H8N2O2

>  <EXACT MASS>  (5134) 
140.058577496

>  <MW>  (5134) 
140

>  <ID>  (5134) 
JP002038

>  <CONTRIBUTOR>  (5134) 
University of Tokyo Team, {Faculty of Engineering, University of Tokyo

>  <COMMENT>  (5134) 
SMILES=COc(c1)cnc(OC)n1
InChI=InChI=1S/C6H8N2O2/c1-9-5-3-7-6(10-2)8-4-5/h3-4H,1-2H3
computed SMILES=N=1C=C(OC)C=NC1OC
accession=JP002038
date=2016.01.19 (Created 2008.10.21, modified 2011.05.06)
author=SASAKI S, TOYOHASHI UNIV. OF TECH.
license=CC BY-NC-SA
exact mass=140.05858
ionization energy=70 eV
ion type=[M]+*
computed spectral entropy=2.6642576883234277
computed normalized entropy=0.7272315701683555
SPLASH=splash10-01ox-4900000000-dd55651667f8cdda96e1
submitter=submitter = University of Tokyo Team (Faculty of Engineering, University of Tokyo)
MoNA Rating=3.75

>  <NUM PEAKS>  (5134) 
39

>  <MASS SPECTRAL PEAKS>  (5134) 
38 2.2
39 7.3
40 3.3
41 0.3
42 16.9
43 3.1
44 2
51 0.19
52 3.4
53 13.9
54 7.2
55 2.26
56 19
57 2.1
65 1
67 0.6
68 3.9
69 1.3
70 21.7
77 0.14
79 1.5
80 2.1
81 3.1
82 0.32
83 18.1
96 1.5
97 9.1
98 0.51
109 3.1
110 57.3
111 51.8
112 0.35
118 1
124 1.8
125 23.2
126 0.18
139 58
140 99.99
141 7.9

>  <PREDICTED SPECTRUM>  (5134) 
14 11
15 83
26 65
27 214
28 208
29 131
38 35
39 169
40 183
41 219
42 233
43 218
44 86
45 71
51 35
52 134
53 260
54 271
55 394
56 267
57 236
58 191
65 24
66 123
67 274
68 324
69 349
70 325
71 151
72 26
79 21
81 103
82 466
83 364
84 119
94 64
95 328
96 108
97 267
98 80
109 75
110 617
111 300
112 6
125 608
126 141
139 469
140 999
141 293
142 48

$$$$

     RDKit          2D

 10 10  0  0  0  0  0  0  0  0999 V2000
   -2.5989   -1.5002    0.0000 C   0  0  0  0  0  0  0  0  0  0  0  0
    1.3000    0.7500    0.0000 C   0  0  0  0  0  0  0  0  0  0  0  0
   -1.3000   -0.7500    0.0000 C   0  0  0  0  0  0  0  0  0  0  0  0
   -1.3000    0.7500    0.0000 C   0  0  0  0  0  0  0  0  0  0  0  0
   -0.0000   -1.5000    0.0000 C   0  0  0  0  0  0  0  0  0  0  0  0
    0.0000    1.5000    0.0000 N   0  0  0  0  0  0  0  0  0  0  0  0
    1.3000   -0.7500    0.0000 N   0  0  0  0  0  0  0  0  0  0  0  0
   -3.8981   -0.7504    0.0000 O   0  0  0  0  0  0  0  0  0  0  0  0
   -2.5989    1.5002    0.0000 O   0  0  0  0  0  0  0  0  0  0  0  0
   -0.0000   -3.0000    0.0000 O   0  0  0  0  0  0  0  0  0  0  0  0
  3  1  1  0
  4  3  2  0
  5  3  1  0
  6  2  2  0
  6  4  1  0
  7  2  1  0
  7  5  2  0
  8  1  2  0
  9  4  1  0
 10  5  1  0
M  END
>  <NAME>  (5135) 
5-FORMYL-4,6-DIHYDROXYPYRIMIDINE

>  <SYNONYMS>  (5135) 
4,6-DIHYDROXYPYRIMIDINE-5-CARBALDEHYDE

>  <SPECTRUM TYPE>  (5135) 
MS1

>  <INSTRUMENT TYPE>  (5135) 
EI-B

>  <INSTRUMENT>  (5135) 
MS-902

>  <ION MODE>  (5135) 
P

>  <INCHIKEY>  (5135) 
LJMXTWXGOCCHQO-UHFFFAOYSA-N

>  <FORMULA>  (5135) 
C5H4N2O3

>  <EXACT MASS>  (5135) 
140.02219198799997

>  <MW>  (5135) 
140

>  <ID>  (5135) 
JP002037

>  <CONTRIBUTOR>  (5135) 
University of Tokyo Team, {Faculty of Engineering, University of Tokyo

>  <COMMENT>  (5135) 
SMILES=O=Cc(c(O)1)c(O)ncn1
InChI=InChI=1S/C5H4N2O3/c8-1-3-4(9)6-2-7-5(3)10/h1-2H,(H2,6,7,9,10)
computed SMILES=O=CC=1C(O)=NC=NC1O
accession=JP002037
date=2016.01.19 (Created 2008.10.21, modified 2011.05.06)
author=SASAKI S, TOYOHASHI UNIV. OF TECH.
license=CC BY-NC-SA
exact mass=140.02219
ionization energy=70 eV
ion type=[M]+*
computed spectral entropy=2.123334547829585
computed normalized entropy=0.6681241606272963
SPLASH=splash10-03di-6900000000-df428dbdfec477ec9910
submitter=submitter = University of Tokyo Team (Faculty of Engineering, University of Tokyo)
MoNA Rating=3.75

>  <NUM PEAKS>  (5135) 
24

>  <MASS SPECTRAL PEAKS>  (5135) 
36 3.8
38 1.5
39 1.6
40 0.21
41 7.5
42 10.8
43 9.8
44 0.87
47 1.5
53 3.6
56 4.6
57 1.93
58 2.9
67 2.5
68 4.6
69 1.7
70 6.3
71 7.3
84 8.2
112 99.99
113 5.8
139 1.7
140 10.2
141 1

>  <PREDICTED SPECTRUM>  (5135) 
29 73
37 43
38 130
39 113
40 131
41 124
42 180
43 167
44 148
45 50
50 10
51 99
53 211
54 121
55 173
56 170
57 162
58 87
65 31
66 100
67 69
68 205
69 124
70 241
71 85
82 50
83 117
84 230
85 138
95 3
96 32
112 999
113 242
114 10
140 383
141 95

$$$$

     RDKit          2D

  9  9  0  0  0  0  0  0  0  0999 V2000
    3.8981    1.5002    0.0000 C   0  0  0  0  0  0  0  0  0  0  0  0
   -2.5989   -0.7504    0.0000 C   0  0  0  0  0  0  0  0  0  0  0  0
    1.2992    1.5000    0.0000 C   0  0  0  0  0  0  0  0  0  0  0  0
    2.5992   -0.7500    0.0000 C   0  0  0  0  0  0  0  0  0  0  0  0
    2.5992    0.7500    0.0000 C   0  0  0  0  0  0  0  0  0  0  0  0
   -0.0008   -0.7500    0.0000 C   0  0  0  0  0  0  0  0  0  0  0  0
   -0.0008    0.7500    0.0000 N   0  0  0  0  0  0  0  0  0  0  0  0
    1.2992   -1.5000    0.0000 N   0  0  0  0  0  0  0  0  0  0  0  0
   -1.2998   -1.5002    0.0000 O   0  0  0  0  0  0  0  0  0  0  0  0
  5  1  1  0
  5  3  2  0
  5  4  1  0
  7  3  1  0
  7  6  2  0
  8  4  2  0
  8  6  1  0
  9  2  1  0
  9  6  1  0
M  END
>  <NAME>  (5136) 
2-METHOXY-5-METHYLPYRIMIDINE

>  <SYNONYMS>  (5136) 


>  <SPECTRUM TYPE>  (5136) 
MS1

>  <INSTRUMENT TYPE>  (5136) 
EI-B

>  <INSTRUMENT>  (5136) 
MS-902

>  <ION MODE>  (5136) 
P

>  <INCHIKEY>  (5136) 
BCJLWYKGUBGKFP-UHFFFAOYSA-N

>  <FORMULA>  (5136) 
C6H8N2O

>  <EXACT MASS>  (5136) 
124.063662876

>  <MW>  (5136) 
124

>  <ID>  (5136) 
JP002036

>  <CONTRIBUTOR>  (5136) 
University of Tokyo Team, {Faculty of Engineering, University of Tokyo

>  <COMMENT>  (5136) 
SMILES=COc(n1)ncc(C)c1
InChI=InChI=1S/C6H8N2O/c1-5-3-7-6(9-2)8-4-5/h3-4H,1-2H3
computed SMILES=N=1C=C(C=NC1OC)C
accession=JP002036
date=2016.01.19 (Created 2008.10.21, modified 2011.05.06)
author=SASAKI S, TOYOHASHI UNIV. OF TECH.
license=CC BY-NC-SA
exact mass=124.06366
ionization energy=70 eV
ion type=[M]+*
computed spectral entropy=2.5088091197826343
computed normalized entropy=0.7238892951294824
SPLASH=splash10-00dl-9600000000-9a32d4906ea4b81824f1
submitter=submitter = University of Tokyo Team (Faculty of Engineering, University of Tokyo)
MoNA Rating=3.75

>  <NUM PEAKS>  (5136) 
32

>  <MASS SPECTRAL PEAKS>  (5136) 
37 2
38 4.2
39 19.4
40 1.03
41 13.8
42 11.5
43 7.3
44 0.19
45 1
51 2.4
52 8.3
53 0.76
54 10.6
56 2.2
58 15.4
61 0.1
64 1.3
65 1.1
66 7.2
67 5.51
68 7.8
79 1.3
80 1.3
81 0.12
82 6.7
93 11.5
94 83.4
95 3.67
96 4.1
123 48.2
124 99.99
125 9.4

>  <PREDICTED SPECTRUM>  (5136) 
14 13
15 67
26 77
27 109
28 121
29 30
38 159
39 387
40 293
41 319
42 541
43 51
45 131
51 82
52 224
53 163
54 312
55 263
56 93
57 197
64 6
65 30
66 550
67 377
68 369
69 173
79 247
80 103
81 123
82 116
83 6
93 217
94 302
95 262
96 100
97 1
109 732
110 94
123 544
124 999
125 249

$$$$

     RDKit          2D

  9  9  0  0  0  0  0  0  0  0999 V2000
   -1.6700    0.5398    0.0000 C   0  0  0  0  0  0  0  0  0  0  0  0
   -0.3706   -1.7100    0.0000 C   0  0  0  0  0  0  0  0  0  0  0  0
    0.9281    2.0402    0.0000 C   0  0  0  0  0  0  0  0  0  0  0  0
    2.2281   -0.2098    0.0000 C   0  0  0  0  0  0  0  0  0  0  0  0
    3.5281    2.0402    0.0000 C   0  0  0  0  0  0  0  0  0  0  0  0
    0.9281    0.5402    0.0000 C   0  0  0  0  0  0  0  0  0  0  0  0
    2.2281    2.7902    0.0000 N   0  0  0  0  0  0  0  0  0  0  0  0
    3.5281    0.5402    0.0000 N   0  0  0  0  0  0  0  0  0  0  0  0
   -0.3708   -0.2100    0.0000 N   0  0  0  0  0  0  0  0  0  0  0  0
  6  3  2  0
  6  4  1  0
  7  3  1  0
  7  5  2  0
  8  4  2  0
  8  5  1  0
  9  1  1  0
  9  2  1  0
  9  6  1  0
M  END
>  <NAME>  (5137) 
5-DIMETHYLAMINOPYRIMIDINE

>  <SYNONYMS>  (5137) 


>  <SPECTRUM TYPE>  (5137) 
MS1

>  <INSTRUMENT TYPE>  (5137) 
EI-B

>  <INSTRUMENT>  (5137) 
MS-902

>  <ION MODE>  (5137) 
P

>  <INCHIKEY>  (5137) 
JWVNPUBYKCSIKR-UHFFFAOYSA-N

>  <FORMULA>  (5137) 
C6H9N3

>  <EXACT MASS>  (5137) 
123.07964728799999

>  <MW>  (5137) 
123

>  <ID>  (5137) 
JP002035

>  <CONTRIBUTOR>  (5137) 
University of Tokyo Team, {Faculty of Engineering, University of Tokyo

>  <COMMENT>  (5137) 
SMILES=CN(C)c(c1)cncn1
InChI=InChI=1S/C6H9N3/c1-9(2)6-3-7-5-8-4-6/h3-5H,1-2H3
computed SMILES=N=1C=NC=C(C1)N(C)C
accession=JP002035
date=2016.01.19 (Created 2008.10.21, modified 2011.05.06)
author=SASAKI S, TOYOHASHI UNIV. OF TECH.
license=CC BY-NC-SA
exact mass=123.07965
ionization energy=70 eV
ion type=[M]+*
computed spectral entropy=2.2281221823456137
computed normalized entropy=0.6616948123487456
SPLASH=splash10-00di-6900000000-3ada785e1607c944e5a3
submitter=submitter = University of Tokyo Team (Faculty of Engineering, University of Tokyo)
MoNA Rating=3.75

>  <NUM PEAKS>  (5137) 
29

>  <MASS SPECTRAL PEAKS>  (5137) 
39 1.6
40 4.1
40.5 1.6
41 0.2
42 16.6
43 1.6
44 1.7
48 0.46
51 3.1
52 8.5
53 6.1
54 0.96
55 1.1
66 1.7
67 4.6
68 1.27
69 10.6
79 2.1
80 2.9
81 2.17
82 1.8
94 6.1
95 6.7
106 0.29
107 4.3
108 1
122 99.99
123 8.85
124 7.5

>  <PREDICTED SPECTRUM>  (5137) 
26 24
27 45
28 100
36 9
37 58
38 95
39 187
40 197
41 225
42 582
43 372
44 297
49 8
50 121
51 197
52 273
53 309
54 276
55 124
56 41
64 25
65 100
66 128
67 139
68 217
69 211
70 32
78 85
79 225
80 265
81 388
82 158
83 6
92 17
93 57
94 262
95 245
96 120
97 7
106 82
107 298
108 462
109 95
120 105
121 98
122 836
123 999
124 220

$$$$

     RDKit          2D

  9  9  0  0  0  0  0  0  0  0999 V2000
   -1.3000    0.7498    0.0000 C   0  0  0  0  0  0  0  0  0  0  0  0
   -0.0006   -1.5000    0.0000 C   0  0  0  0  0  0  0  0  0  0  0  0
    3.8981    2.2502    0.0000 C   0  0  0  0  0  0  0  0  0  0  0  0
    3.8981    0.7502    0.0000 C   0  0  0  0  0  0  0  0  0  0  0  0
    2.5981    3.0002    0.0000 C   0  0  0  0  0  0  0  0  0  0  0  0
    1.2981    0.7502    0.0000 C   0  0  0  0  0  0  0  0  0  0  0  0
    2.5981    0.0002    0.0000 N   0  0  0  0  0  0  0  0  0  0  0  0
    1.2981    2.2502    0.0000 N   0  0  0  0  0  0  0  0  0  0  0  0
   -0.0008   -0.0000    0.0000 N   0  0  0  0  0  0  0  0  0  0  0  0
  4  3  2  0
  5  3  1  0
  7  4  1  0
  7  6  2  0
  8  5  2  0
  8  6  1  0
  9  1  1  0
  9  2  1  0
  9  6  1  0
M  END
>  <NAME>  (5138) 
2-DIMETHYLAMINOPYRIMIDINE

>  <SYNONYMS>  (5138) 


>  <SPECTRUM TYPE>  (5138) 
MS1

>  <INSTRUMENT TYPE>  (5138) 
EI-B

>  <INSTRUMENT>  (5138) 
MS-902

>  <ION MODE>  (5138) 
P

>  <INCHIKEY>  (5138) 
OUMGIYIBWRLOAF-UHFFFAOYSA-N

>  <FORMULA>  (5138) 
C6H9N3

>  <EXACT MASS>  (5138) 
123.079647288

>  <MW>  (5138) 
123

>  <ID>  (5138) 
JP002034

>  <CONTRIBUTOR>  (5138) 
University of Tokyo Team, {Faculty of Engineering, University of Tokyo

>  <COMMENT>  (5138) 
SMILES=CN(C)c(n1)nccc1
InChI=InChI=1S/C6H9N3/c1-9(2)6-7-4-3-5-8-6/h3-5H,1-2H3
computed SMILES=N=1C=CC=NC1N(C)C
accession=JP002034
date=2016.01.19 (Created 2008.10.21, modified 2011.05.06)
author=SASAKI S, TOYOHASHI UNIV. OF TECH.
license=CC BY-NC-SA
exact mass=123.07965
ionization energy=70 eV
ion type=[M]+*
computed spectral entropy=2.6611640360077686
computed normalized entropy=0.7610920294682967
SPLASH=splash10-0006-9100000000-e6758d4c49694ca14ace
submitter=submitter = University of Tokyo Team (Faculty of Engineering, University of Tokyo)
MoNA Rating=3.75

>  <NUM PEAKS>  (5138) 
33

>  <MASS SPECTRAL PEAKS>  (5138) 
39 2.2
40 5.2
41 5.6
42 2.95
43 5.2
44 54.8
45 1.2
51 0.27
52 11.2
53 26
54 8.5
55 0.46
66 2.6
67 4.6
68 3.2
69 1.18
70 3.4
78 1.8
79 22.2
80 3.27
81 34.8
82 2.1
93 1.7
94 99.99
95 19.2
96 3
106 1.6
108 6.03
109 4.7
120 1
122 16.7
123 9.86
124 8.8

>  <PREDICTED SPECTRUM>  (5138) 
26 26
28 95
39 110
40 178
41 158
42 403
43 151
44 464
45 44
51 110
52 323
53 273
54 264
55 112
57 39
65 2
66 67
67 112
68 111
69 197
70 112
71 15
78 67
79 294
80 201
81 382
82 36
93 80
94 999
95 323
96 174
108 433
109 83
122 275
123 519
124 157

$$$$

     RDKit          2D

  9  9  0  0  0  0  0  0  0  0999 V2000
    1.3000   -0.7498    0.0000 C   0  0  0  0  0  0  0  0  0  0  0  0
   -2.5981   -0.0002    0.0000 C   0  0  0  0  0  0  0  0  0  0  0  0
   -1.2981   -2.2502    0.0000 C   0  0  0  0  0  0  0  0  0  0  0  0
   -3.8981   -2.2502    0.0000 C   0  0  0  0  0  0  0  0  0  0  0  0
    0.0008    0.0000    0.0000 C   0  0  0  0  0  0  0  0  0  0  0  0
   -1.2981   -0.7502    0.0000 C   0  0  0  0  0  0  0  0  0  0  0  0
   -3.8981   -0.7502    0.0000 N   0  0  0  0  0  0  0  0  0  0  0  0
   -2.5981   -3.0002    0.0000 N   0  0  0  0  0  0  0  0  0  0  0  0
    0.0006    1.5000    0.0000 O   0  0  0  0  0  0  0  0  0  0  0  0
  5  1  1  0
  6  2  2  0
  6  3  1  0
  6  5  1  0
  7  2  1  0
  7  4  2  0
  8  3  2  0
  8  4  1  0
  9  5  2  0
M  END
>  <NAME>  (5139) 
5-ACETYLPYRIMIDINE

>  <SYNONYMS>  (5139) 


>  <SPECTRUM TYPE>  (5139) 
MS1

>  <INSTRUMENT TYPE>  (5139) 
EI-B

>  <INSTRUMENT>  (5139) 
MS-902

>  <ION MODE>  (5139) 
P

>  <INCHIKEY>  (5139) 
COTYNDRSENVEFI-UHFFFAOYSA-N

>  <FORMULA>  (5139) 
C6H6N2O

>  <EXACT MASS>  (5139) 
122.048012812

>  <MW>  (5139) 
122

>  <ID>  (5139) 
JP002033

>  <CONTRIBUTOR>  (5139) 
University of Tokyo Team, {Faculty of Engineering, University of Tokyo

>  <COMMENT>  (5139) 
SMILES=CC(=O)c(c1)cncn1
InChI=InChI=1S/C6H6N2O/c1-5(9)6-2-7-4-8-3-6/h2-4H,1H3
computed SMILES=O=C(C=1C=NC=NC1)C
accession=JP002033
date=2016.01.19 (Created 2008.10.21, modified 2011.05.06)
author=SASAKI S, TOYOHASHI UNIV. OF TECH.
license=CC BY-NC-SA
exact mass=122.04801
ionization energy=70 eV
ion type=[M]+*
computed spectral entropy=1.9243877324502103
computed normalized entropy=0.6792244348585232
SPLASH=splash10-0a4i-8900000000-7db97e237537356d8741
submitter=submitter = University of Tokyo Team (Faculty of Engineering, University of Tokyo)
MoNA Rating=3.75

>  <NUM PEAKS>  (5139) 
17

>  <MASS SPECTRAL PEAKS>  (5139) 
37 1.7
38 2.2
39 2.9
40 0.12
42 3.7
43 40.3
44 1
50 0.12
51 6.4
52 26.4
53 16.6
79 5.18
80 8.3
107 99.99
108 6.7
122 6.58
123 5.6

>  <PREDICTED SPECTRUM>  (5139) 
14 16
26 47
28 56
38 82
39 64
40 118
41 23
42 100
43 462
44 79
50 136
51 307
52 311
53 179
54 78
64 95
66 23
67 88
68 7
78 126
79 376
80 226
93 77
94 114
95 25
107 999
108 205
122 672
123 206

$$$$

     RDKit          2D

  8  8  0  0  0  0  0  0  0  0999 V2000
   -1.3000   -0.7500    0.0000 C   0  0  0  0  0  0  0  0  0  0  0  0
   -1.3000    0.7500    0.0000 C   0  0  0  0  0  0  0  0  0  0  0  0
   -0.0000   -1.5000    0.0000 C   0  0  0  0  0  0  0  0  0  0  0  0
    1.3000    0.7500    0.0000 C   0  0  0  0  0  0  0  0  0  0  0  0
    2.5989    1.5002    0.0000 N   0  0  0  0  0  0  0  0  0  0  0  0
    0.0000    1.5000    0.0000 N   0  0  0  0  0  0  0  0  0  0  0  0
    1.3000   -0.7500    0.0000 N   0  0  0  0  0  0  0  0  0  0  0  0
    2.5989   -1.5002    0.0000 O   0  0  0  0  0  0  0  0  0  0  0  0
  2  1  2  0
  3  1  1  0
  5  4  2  0
  6  2  1  0
  6  4  1  0
  7  3  2  0
  7  4  1  0
  8  7  1  0
M  CHG  2   7   1   8  -1
M  END
>  <NAME>  (5140) 
2-AMINOPYRIMIDINE 1-OXIDE

>  <SYNONYMS>  (5140) 


>  <SPECTRUM TYPE>  (5140) 
MS1

>  <INSTRUMENT TYPE>  (5140) 
EI-B

>  <INSTRUMENT>  (5140) 
MS-902

>  <ION MODE>  (5140) 
P

>  <INCHIKEY>  (5140) 
BAEWURLBOZSGIA-UHFFFAOYSA-N

>  <FORMULA>  (5140) 
C4H5N3O

>  <EXACT MASS>  (5140) 
111.04326178

>  <MW>  (5140) 
111

>  <ID>  (5140) 
JP002032

>  <CONTRIBUTOR>  (5140) 
University of Tokyo Team, {Faculty of Engineering, University of Tokyo

>  <COMMENT>  (5140) 
SMILES=Nc(n1)[n+1]([O-1])ccc1
InChI=InChI=1S/C4H5N3O/c5-4-6-2-1-3-7(4)8/h1-3H,(H2,5,6)
computed SMILES=O=N1=CC=CNC1=N
accession=JP002032
date=2016.01.19 (Created 2008.10.21, modified 2011.05.06)
author=SASAKI S, TOYOHASHI UNIV. OF TECH.
license=CC BY-NC-SA
exact mass=111.04326
ionization energy=70 eV
ion type=[M]+*
computed spectral entropy=1.8652210542205894
computed normalized entropy=0.5948730649046543
SPLASH=splash10-03di-6900000000-e091f19d3de9fbbe7ab4
submitter=submitter = University of Tokyo Team (Faculty of Engineering, University of Tokyo)
MoNA Rating=3.75

>  <NUM PEAKS>  (5140) 
23

>  <MASS SPECTRAL PEAKS>  (5140) 
44 4.1
45 1.6
47.5 1.3
51 0.19
52 6
53 7.5
54 4.4
55 0.14
55.5 1.3
57 1.6
66 3.3
67 1.1
68 17.6
69 2.8
70 14.2
77 0.11
81 1.7
84 1.7
94 2.2
95 2.48
96 1.7
111 99.99
112 6.3

>  <PREDICTED SPECTRUM>  (5140) 
25 3
28 46
29 38
37 89
38 204
39 330
40 299
41 419
42 287
43 193
44 275
45 18
49 19
50 158
51 368
52 420
53 314
54 329
55 275
56 184
57 67
64 15
65 76
66 392
67 503
68 304
69 194
70 41
80 110
81 28
82 82
83 201
84 126
94 278
95 899
96 215
97 37
110 83
111 999
112 249

$$$$

     RDKit          2D

  8  8  0  0  0  0  0  0  0  0999 V2000
   -3.8981   -0.7504    0.0000 C   0  0  0  0  0  0  0  0  0  0  0  0
    0.0000   -1.5000    0.0000 C   0  0  0  0  0  0  0  0  0  0  0  0
   -1.3000    0.7500    0.0000 C   0  0  0  0  0  0  0  0  0  0  0  0
    1.3000    0.7500    0.0000 C   0  0  0  0  0  0  0  0  0  0  0  0
   -1.3000   -0.7500    0.0000 C   0  0  0  0  0  0  0  0  0  0  0  0
    1.3000   -0.7500    0.0000 N   0  0  0  0  0  0  0  0  0  0  0  0
    0.0000    1.5000    0.0000 N   0  0  0  0  0  0  0  0  0  0  0  0
   -2.5989   -1.5002    0.0000 O   0  0  0  0  0  0  0  0  0  0  0  0
  5  2  2  0
  5  3  1  0
  6  2  1  0
  6  4  2  0
  7  3  2  0
  7  4  1  0
  8  1  1  0
  8  5  1  0
M  END
>  <NAME>  (5141) 
5-METHOXYPYRIMIDINE

>  <SYNONYMS>  (5141) 


>  <SPECTRUM TYPE>  (5141) 
MS1

>  <INSTRUMENT TYPE>  (5141) 
EI-B

>  <INSTRUMENT>  (5141) 
MS-902

>  <ION MODE>  (5141) 
P

>  <INCHIKEY>  (5141) 
JIADELSANNMYFC-UHFFFAOYSA-N

>  <FORMULA>  (5141) 
C5H6N2O

>  <EXACT MASS>  (5141) 
110.048012812

>  <MW>  (5141) 
110

>  <ID>  (5141) 
JP002031

>  <CONTRIBUTOR>  (5141) 
University of Tokyo Team, {Faculty of Engineering, University of Tokyo

>  <COMMENT>  (5141) 
SMILES=COc(c1)cncn1
InChI=InChI=1S/C5H6N2O/c1-8-5-2-6-4-7-3-5/h2-4H,1H3
computed SMILES=N=1C=NC=C(OC)C1
accession=JP002031
date=2016.01.19 (Created 2008.10.21, modified 2011.05.06)
author=SASAKI S, TOYOHASHI UNIV. OF TECH.
license=CC BY-NC-SA
exact mass=110.04801
ionization energy=70 eV
ion type=[M]+*
computed spectral entropy=1.75786576070079
computed normalized entropy=0.6081798148969945
SPLASH=splash10-03di-8900000000-108eb68304fce860d83b
submitter=submitter = University of Tokyo Team (Faculty of Engineering, University of Tokyo)
MoNA Rating=3.75

>  <NUM PEAKS>  (5141) 
18

>  <MASS SPECTRAL PEAKS>  (5141) 
38 1.2
39 3.5
40 13
41 0.14
42 2.4
51 3.5
52 6.6
53 0.12
56 41.3
57 1.4
66 1.4
67 0.11
68 21.1
79 1.3
83 9.2
94 0.1
110 99.99
111 7.3

>  <PREDICTED SPECTRUM>  (5141) 
14 30
15 86
16 10
25 41
26 131
27 139
28 131
29 60
31 53
32 7
37 50
38 189
39 240
40 225
41 264
42 119
43 95
50 65
51 199
52 343
53 208
54 154
55 129
56 134
65 14
66 35
67 349
68 164
69 24
79 102
80 332
81 207
82 144
83 174
94 15
95 266
96 11
109 208
110 999
111 245
112 5

$$$$

     RDKit          2D

  8  8  0  0  0  0  0  0  0  0999 V2000
    3.8981    0.7504    0.0000 C   0  0  0  0  0  0  0  0  0  0  0  0
   -1.3000   -0.7500    0.0000 C   0  0  0  0  0  0  0  0  0  0  0  0
   -1.3000    0.7500    0.0000 C   0  0  0  0  0  0  0  0  0  0  0  0
   -0.0000   -1.5000    0.0000 C   0  0  0  0  0  0  0  0  0  0  0  0
    1.3000    0.7500    0.0000 C   0  0  0  0  0  0  0  0  0  0  0  0
    0.0000    1.5000    0.0000 N   0  0  0  0  0  0  0  0  0  0  0  0
    1.3000   -0.7500    0.0000 N   0  0  0  0  0  0  0  0  0  0  0  0
    2.5989    1.5002    0.0000 O   0  0  0  0  0  0  0  0  0  0  0  0
  3  2  2  0
  4  2  1  0
  6  3  1  0
  6  5  2  0
  7  4  2  0
  7  5  1  0
  8  1  1  0
  8  5  1  0
M  END
>  <NAME>  (5142) 
2-METHOXYPYRIMIDINE

>  <SYNONYMS>  (5142) 


>  <SPECTRUM TYPE>  (5142) 
MS1

>  <INSTRUMENT TYPE>  (5142) 
EI-B

>  <INSTRUMENT>  (5142) 
MS-902

>  <ION MODE>  (5142) 
P

>  <INCHIKEY>  (5142) 
YLZYSVYZMDJYOT-UHFFFAOYSA-N

>  <FORMULA>  (5142) 
C5H6N2O

>  <EXACT MASS>  (5142) 
110.048012812

>  <MW>  (5142) 
110

>  <ID>  (5142) 
JP002030

>  <CONTRIBUTOR>  (5142) 
University of Tokyo Team, {Faculty of Engineering, University of Tokyo

>  <COMMENT>  (5142) 
SMILES=COc(n1)nccc1
InChI=InChI=1S/C5H6N2O/c1-8-5-6-3-2-4-7-5/h2-4H,1H3
computed SMILES=N=1C=CC=NC1OC
accession=JP002030
date=2016.01.19 (Created 2008.10.21, modified 2011.05.06)
author=SASAKI S, TOYOHASHI UNIV. OF TECH.
license=CC BY-NC-SA
exact mass=110.04801
ionization energy=70 eV
ion type=[M]+*
computed spectral entropy=2.3301237732103175
computed normalized entropy=0.7331920406632025
SPLASH=splash10-03di-9800000000-872abe1b8e40dd5dca91
submitter=submitter = University of Tokyo Team (Faculty of Engineering, University of Tokyo)
MoNA Rating=3.75

>  <NUM PEAKS>  (5142) 
24

>  <MASS SPECTRAL PEAKS>  (5142) 
38 2
39 5.9
40 26
41 0.31
42 4.3
51 4
52 12.9
53 6.73
54 6.9
55 1.6
56 10.6
57 0.19
58 2.5
66 1.7
67 2.5
68 0.52
79 14.8
80 9.99
81 27.1
82 0.47
95 2
109 27.3
110 99.99
111 8.4

>  <PREDICTED SPECTRUM>  (5142) 
14 54
15 116
16 29
25 36
26 182
27 184
28 183
29 5
32 7
36 10
37 2
38 145
39 63
40 392
41 305
42 273
43 231
50 82
51 203
52 494
53 504
54 344
55 234
56 20
57 16
65 143
66 88
67 480
68 254
69 53
70 20
79 419
80 628
81 343
82 317
83 101
94 51
95 243
109 554
110 999
111 197

$$$$

     RDKit          2D

 19 19  0  0  0  0  0  0  0  0999 V2000
    3.5639   -0.3087    0.0000 C   0  0  0  0  0  0  0  0  0  0  0  0
    5.6129    0.2407    0.0000 C   0  0  0  0  0  0  0  0  0  0  0  0
    5.0635    2.2896    0.0000 C   0  0  0  0  0  0  0  0  0  0  0  0
    3.1991    3.8536    0.0000 C   0  0  0  0  0  0  0  0  0  0  0  0
    1.0858    4.0381    0.0000 C   0  0  0  0  0  0  0  0  0  0  0  0
    0.9013    1.9248    0.0000 C   0  0  0  0  0  0  0  0  0  0  0  0
    3.9786    2.8895    0.0000 C   0  0  0  0  0  0  0  0  0  0  0  0
   -1.3000    0.7500    0.0000 C   0  0  0  0  0  0  0  0  0  0  0  0
   -0.0000   -1.5000    0.0000 C   0  0  0  0  0  0  0  0  0  0  0  0
    0.0000    1.5000    0.0000 C   0  0  0  0  0  0  0  0  0  0  0  0
    1.3000   -0.7500    0.0000 C   0  0  0  0  0  0  0  0  0  0  0  0
   -1.3000   -0.7500    0.0000 C   0  0  0  0  0  0  0  0  0  0  0  0
    1.3000    0.7500    0.0000 C   0  0  0  0  0  0  0  0  0  0  0  0
   -2.5989   -1.5002    0.0000 N   0  0  0  0  0  0  0  0  0  0  0  0
   -3.8981   -0.7504    0.0000 O   0  0  0  0  0  0  0  0  0  0  0  0
   -2.5987   -3.0002    0.0000 O   0  0  0  0  0  0  0  0  0  0  0  0
    4.3137    0.9905    0.0000 Si  0  0  0  0  0  4  0  0  0  0  0  0
    2.0502    2.8892    0.0000 Si  0  0  0  0  0  4  0  0  0  0  0  0
    3.0146    1.7403    0.0000 Si  0  0  0  0  0  4  0  0  0  0  0  0
 10  8  2  0
 11  9  1  0
 12  8  1  0
 12  9  2  0
 13 10  1  0
 13 11  2  0
 14 12  1  0
 15 14  1  0
 16 14  2  0
 17  1  1  0
 17  2  1  0
 17  3  1  0
 18  4  1  0
 18  5  1  0
 18  6  1  0
 19  7  1  0
 19 13  1  0
 19 17  1  0
 19 18  1  0
M  CHG  2  14   1  15  -1
M  END
>  <NAME>  (5143) 
2-(PARA-NITROPHENYL)-HEPTAMETHYLTRISILANE

>  <SYNONYMS>  (5143) 


>  <SPECTRUM TYPE>  (5143) 
MS1

>  <INSTRUMENT TYPE>  (5143) 
EI-B

>  <INSTRUMENT>  (5143) 
JEOL JMS-D-3000

>  <ION MODE>  (5143) 
P

>  <INCHIKEY>  (5143) 
NEEWTQVEDZXWHS-UHFFFAOYSA-N

>  <FORMULA>  (5143) 
C13H25NO2Si3

>  <EXACT MASS>  (5143) 
311.11930863000003

>  <MW>  (5143) 
311

>  <ID>  (5143) 
JP001980

>  <CONTRIBUTOR>  (5143) 
University of Tokyo Team, {Faculty of Engineering, University of Tokyo

>  <COMMENT>  (5143) 
SMILES=[O-1][N+1](=O)c(c1)ccc(c1)[Si](C)([Si](C)(C)C)[Si](C)(C)C
InChI=InChI=1S/C13H25NO2Si3/c1-17(2,3)19(7,18(4,5)6)13-10-8-12(9-11-13)14(15)16/h8-11H,1-7H3
computed SMILES=O=N(=O)C1=CC=C(C=C1)[Si](C)([Si](C)(C)C)[Si](C)(C)C
license=CC BY-NC-SA
accession=JP001980
date=2016.01.19 (Created 2008.10.21, modified 2011.05.06)
author=MASS SPECTROSCOPY SOC. OF JAPAN (MSSJ)
exact mass=311.11931
ionization energy=70 eV
ion type=[M]+*
computed spectral entropy=2.674149765965335
computed normalized entropy=0.786237746854458
SPLASH=splash10-00di-9710000000-eb86d41da80b8abad099
submitter=submitter = University of Tokyo Team (Faculty of Engineering, University of Tokyo)
MoNA Rating=3.75

>  <NUM PEAKS>  (5143) 
30

>  <MASS SPECTRAL PEAKS>  (5143) 
40 8.57
56 4.24
73 99.99
74 8.67
75 5.02
117 3.46
119 6.33
121 2.98
131 3.79
133 5.32
134 10.89
135 3.01
147 7.75
148 3.77
149 4.34
162 2.83
164 6.6
177 9.69
179 15.97
180 6.25
192 7.62
193 8.08
222 8.86
223 4.24
238 2.95
265 6.02
296 3.82
297 1.12
311 3.19
312 1.03

>  <PREDICTED SPECTRUM>  (5143) 
27 14
28 98
29 55
30 13
31 32
38 11
40 10
43 38
44 1
45 155
46 45
47 34
50 21
51 11
52 3
53 16
54 1
55 66
56 19
57 38
58 33
59 163
60 26
61 23
63 20
64 34
66 14
69 84
73 999
74 244
75 260
76 101
77 22
78 34
80 22
83 46
85 79
89 31
90 65
91 119
92 67
93 1
95 20
100 22
101 0
102 40
103 0
104 84
105 49
107 19
109 25
115 66
116 41
117 56
118 48
119 151
120 43
121 67
122 20
129 4
131 141
132 140
133 190
134 100
135 177
136 15
145 5
146 104
147 246
148 82
149 144
150 151
151 12
161 76
162 8
163 36
164 67
165 74
174 15
175 35
176 34
177 169
178 63
179 107
180 84
181 38
189 55
190 45
191 68
192 289
193 394
194 196
204 21
205 64
206 88
207 223
208 185
209 35
222 83
223 94
224 31
237 60
238 68
250 78
264 11
265 46
266 80
280 26
281 5
294 7
296 155
297 123
298 40
311 106
312 21
313 0

$$$$

     RDKit          2D

 19 19  0  0  0  0  0  0  0  0999 V2000
   -2.1428    0.2397    0.0000 C   0  0  0  0  0  0  0  0  0  0  0  0
   -4.1918   -0.3093    0.0000 C   0  0  0  0  0  0  0  0  0  0  0  0
   -3.6428   -2.3583    0.0000 C   0  0  0  0  0  0  0  0  0  0  0  0
   -1.7786   -3.9225    0.0000 C   0  0  0  0  0  0  0  0  0  0  0  0
    0.3346   -4.1074    0.0000 C   0  0  0  0  0  0  0  0  0  0  0  0
    0.5195   -1.9942    0.0000 C   0  0  0  0  0  0  0  0  0  0  0  0
   -2.5579   -2.9584    0.0000 C   0  0  0  0  0  0  0  0  0  0  0  0
    1.4195    1.4315    0.0000 C   0  0  0  0  0  0  0  0  0  0  0  0
    2.7191    0.6807    0.0000 C   0  0  0  0  0  0  0  0  0  0  0  0
    0.1205    0.6815    0.0000 C   0  0  0  0  0  0  0  0  0  0  0  0
    1.4205   -1.5701    0.0000 C   0  0  0  0  0  0  0  0  0  0  0  0
    2.7195   -0.8201    0.0000 C   0  0  0  0  0  0  0  0  0  0  0  0
    0.1210   -0.8193    0.0000 C   0  0  0  0  0  0  0  0  0  0  0  0
    4.0187   -1.5699    0.0000 N   0  0  0  0  0  0  0  0  0  0  0  0
    5.3176   -0.8197    0.0000 O   0  0  0  0  0  0  0  0  0  0  0  0
    4.0189   -3.0699    0.0000 O   0  0  0  0  0  0  0  0  0  0  0  0
   -2.8928   -1.0593    0.0000 Si  0  0  0  0  0  4  0  0  0  0  0  0
   -0.6296   -2.9584    0.0000 Si  0  0  0  0  0  4  0  0  0  0  0  0
   -1.5938   -1.8093    0.0000 Si  0  0  0  0  0  4  0  0  0  0  0  0
  9  8  2  0
 10  8  1  0
 12  9  1  0
 12 11  2  0
 13 10  2  0
 13 11  1  0
 14 12  1  0
 15 14  1  0
 16 14  2  0
 17  1  1  0
 17  2  1  0
 17  3  1  0
 18  4  1  0
 18  5  1  0
 18  6  1  0
 19  7  1  0
 19 13  1  0
 19 17  1  0
 19 18  1  0
M  CHG  2  14   1  15  -1
M  END
>  <NAME>  (5144) 
2-(META-NITROPHENYL)HEPTAMETHYLTRISILANE

>  <SYNONYMS>  (5144) 


>  <SPECTRUM TYPE>  (5144) 
MS1

>  <INSTRUMENT TYPE>  (5144) 
EI-B

>  <INSTRUMENT>  (5144) 
JEOL JMS-D-3000

>  <ION MODE>  (5144) 
P

>  <INCHIKEY>  (5144) 
IFUNCUBPOATDRW-UHFFFAOYSA-N

>  <FORMULA>  (5144) 
C13H25NO2Si3

>  <EXACT MASS>  (5144) 
311.11930863000003

>  <MW>  (5144) 
311

>  <ID>  (5144) 
JP001978

>  <CONTRIBUTOR>  (5144) 
University of Tokyo Team, {Faculty of Engineering, University of Tokyo

>  <COMMENT>  (5144) 
SMILES=[O-1][N+1](=O)c(c1)cc(cc1)[Si](C)([Si](C)(C)C)[Si](C)(C)C
InChI=InChI=1S/C13H25NO2Si3/c1-17(2,3)19(7,18(4,5)6)13-10-8-9-12(11-13)14(15)16/h8-11H,1-7H3
computed SMILES=O=N(=O)C1=CC=CC(=C1)[Si](C)([Si](C)(C)C)[Si](C)(C)C
accession=JP001978
date=2016.01.19 (Created 2008.10.21, modified 2011.05.06)
author=MASS SPECTROSCOPY SOC. OF JAPAN (MSSJ)
license=CC BY-NC-SA
exact mass=311.11931
ionization energy=70 eV
ion type=[M]+*
computed spectral entropy=2.966615025512229
computed normalized entropy=0.7545133743524352
SPLASH=splash10-00di-9810000000-423a19c0495e255d741d
submitter=submitter = University of Tokyo Team (Faculty of Engineering, University of Tokyo)
MoNA Rating=3.75

>  <NUM PEAKS>  (5144) 
51

>  <MASS SPECTRAL PEAKS>  (5144) 
40 8.23
47 1.14
56 3.99
73 99.99
74 8.63
75 6.66
83 1.98
93 1.67
103 1.84
105 1.75
115 1.1
117 3.69
119 9.57
120 1.84
121 2.68
131 4.38
132 2.05
133 10.99
134 5.83
135 3.11
145 1.39
147 9.21
148 4.03
149 10.2
150 2.36
158 1.48
161 1.18
162 1.3
163 1.23
164 2.57
165 1.34
175 1.88
177 5.62
178 1.68
179 12.28
180 3.2
181 1.29
191 1.48
192 2.2
193 7.85
194 2.68
195 1.4
205 1.29
206 1.5
207 1.77
208 1.32
222 1.91
237 2.21
296 3.74
297 1.09
311 3.2

>  <PREDICTED SPECTRUM>  (5144) 
15 4
27 4
28 74
29 67
30 33
31 4
43 77
44 44
45 209
46 63
47 31
50 5
51 28
52 22
53 19
55 47
56 16
57 41
58 55
59 178
60 45
61 37
63 24
64 34
66 20
69 2
73 999
74 280
75 287
76 111
77 64
78 61
79 23
80 19
83 20
85 4
87 2
89 83
90 79
91 108
92 63
93 0
95 0
101 11
102 25
103 20
104 119
105 82
106 44
107 56
115 54
116 95
117 112
118 96
119 214
120 73
121 68
122 9
131 155
132 153
133 264
134 246
135 200
136 17
146 59
147 403
148 243
149 221
150 201
151 17
161 71
162 60
163 47
164 101
165 78
174 5
175 70
176 105
177 368
178 135
179 344
180 152
181 36
189 51
190 38
191 71
192 225
193 409
194 290
195 56
205 66
206 109
207 154
208 210
209 37
222 1
223 47
237 43
238 46
239 19
250 42
265 89
266 35
296 90
297 86
310 14
311 191
312 65
313 22

$$$$

     RDKit          2D

 19 19  0  0  0  0  0  0  0  0999 V2000
   -3.3494   -0.4024    0.0000 C   0  0  0  0  0  0  0  0  0  0  0  0
   -3.8981   -2.4515    0.0000 C   0  0  0  0  0  0  0  0  0  0  0  0
   -1.8490   -3.0002    0.0000 C   0  0  0  0  0  0  0  0  0  0  0  0
   -0.9651   -2.8501    0.0000 C   0  0  0  0  0  0  0  0  0  0  0  0
    0.9633   -2.8498    0.0000 C   0  0  0  0  0  0  0  0  0  0  0  0
   -0.3362    0.1981    0.0000 C   0  0  0  0  0  0  0  0  0  0  0  0
   -2.2646    0.1978    0.0000 C   0  0  0  0  0  0  0  0  0  0  0  0
    3.8978   -0.9507    0.0000 C   0  0  0  0  0  0  0  0  0  0  0  0
    2.5978    1.2993    0.0000 C   0  0  0  0  0  0  0  0  0  0  0  0
    2.5978   -1.7007    0.0000 C   0  0  0  0  0  0  0  0  0  0  0  0
    1.2978    0.5493    0.0000 C   0  0  0  0  0  0  0  0  0  0  0  0
    3.8978    0.5493    0.0000 C   0  0  0  0  0  0  0  0  0  0  0  0
    1.2978   -0.9507    0.0000 C   0  0  0  0  0  0  0  0  0  0  0  0
    5.1968    1.2995    0.0000 N   0  0  0  0  0  0  0  0  0  0  0  0
    6.4959    0.5498    0.0000 O   0  0  0  0  0  0  0  0  0  0  0  0
    5.1965    2.7995    0.0000 O   0  0  0  0  0  0  0  0  0  0  0  0
   -2.5992   -1.7013    0.0000 Si  0  0  0  0  0  4  0  0  0  0  0  0
   -0.0011   -1.7009    0.0000 Si  0  0  0  0  0  4  0  0  0  0  0  0
   -1.3002   -0.9511    0.0000 Si  0  0  0  0  0  4  0  0  0  0  0  0
 10  8  2  0
 11  9  1  0
 12  8  1  0
 12  9  2  0
 13 10  1  0
 13 11  2  0
 14 12  1  0
 15 14  1  0
 16 14  2  0
 17  1  1  0
 17  2  1  0
 17  3  1  0
 18  4  1  0
 18  5  1  0
 18 13  1  0
 19  6  1  0
 19  7  1  0
 19 17  1  0
 19 18  1  0
M  CHG  2  14   1  15  -1
M  END
>  <NAME>  (5145) 
1-(PARA-NITROPHENYL)HEPTAMETHYLTRISILANE

>  <SYNONYMS>  (5145) 


>  <SPECTRUM TYPE>  (5145) 
MS1

>  <INSTRUMENT TYPE>  (5145) 
EI-B

>  <INSTRUMENT>  (5145) 
JEOL JMS-D-3000

>  <ION MODE>  (5145) 
P

>  <INCHIKEY>  (5145) 
SFVPLOSWHJTENK-UHFFFAOYSA-N

>  <FORMULA>  (5145) 
C13H25NO2Si3

>  <EXACT MASS>  (5145) 
311.11930863

>  <MW>  (5145) 
311

>  <ID>  (5145) 
JP001977

>  <CONTRIBUTOR>  (5145) 
University of Tokyo Team, {Faculty of Engineering, University of Tokyo

>  <COMMENT>  (5145) 
SMILES=[O-1][N+1](=O)c(c1)ccc(c1)[Si](C)(C)[Si](C)(C)[Si](C)(C)C
InChI=InChI=1S/C13H25NO2Si3/c1-17(2,3)19(6,7)18(4,5)13-10-8-12(9-11-13)14(15)16/h8-11H,1-7H3
computed SMILES=O=N(=O)C1=CC=C(C=C1)[Si](C)(C)[Si](C)(C)[Si](C)(C)C
accession=JP001977
date=2016.01.19 (Created 2008.10.21, modified 2011.05.06)
author=MASS SPECTROSCOPY SOC. OF JAPAN (MSSJ)
license=CC BY-NC-SA
exact mass=311.11931
ionization energy=70 eV
ion type=[M]+*
computed spectral entropy=2.687321564494953
computed normalized entropy=0.8248133636110306
SPLASH=splash10-00e9-7911000000-5e78198c3849ae1ac0fa
submitter=submitter = University of Tokyo Team (Faculty of Engineering, University of Tokyo)
MoNA Rating=3.75

>  <NUM PEAKS>  (5145) 
26

>  <MASS SPECTRAL PEAKS>  (5145) 
40 7.52
56 5.69
73 99.99
74 8.83
75 4.71
117 4.26
119 9.22
131 38.29
132 6.79
133 9.6
134 19.31
135 4.56
147 11.57
148 4.94
162 4.49
164 11.04
177 4.75
180 7.52
192 4.07
193 10.79
222 5.9
223 5.86
238 8.14
296 4.36
311 14.01
312 4.36

>  <PREDICTED SPECTRUM>  (5145) 
28 63
29 54
31 28
39 1
40 15
41 18
42 9
43 119
44 66
45 222
46 81
47 12
50 9
51 1
53 23
55 71
56 48
57 93
58 51
59 188
60 34
61 12
63 23
64 17
66 18
67 0
69 27
70 30
72 32
73 999
74 287
75 284
76 123
77 72
78 37
79 5
80 29
83 74
85 44
87 5
89 14
90 110
91 117
92 50
95 15
96 2
101 7
102 39
103 30
104 105
105 105
106 44
107 37
109 24
113 22
115 26
116 30
117 39
118 81
119 121
120 99
121 29
122 16
126 8
128 12
129 1
131 98
132 54
133 107
134 159
135 215
136 136
137 13
146 121
147 185
148 102
149 123
150 189
151 55
152 33
153 21
155 41
156 9
157 14
160 39
161 144
162 27
163 106
164 143
165 50
174 34
175 18
176 147
177 175
178 193
179 241
180 189
181 83
182 22
189 70
191 103
192 275
193 646
194 325
195 70
204 24
205 90
206 30
207 350
208 137
209 52
210 90
222 105
223 192
224 40
237 62
238 321
239 141
240 5
264 1
265 5
294 64
295 0
296 165
297 78
298 29
311 99
312 26
313 2

$$$$

     RDKit          2D

 19 19  0  0  0  0  0  0  0  0999 V2000
    5.1467   -3.0873    0.0000 C   0  0  0  0  0  0  0  0  0  0  0  0
    5.6958   -1.0382    0.0000 C   0  0  0  0  0  0  0  0  0  0  0  0
    3.6467   -0.4892    0.0000 C   0  0  0  0  0  0  0  0  0  0  0  0
    2.7628   -0.6392    0.0000 C   0  0  0  0  0  0  0  0  0  0  0  0
    0.8345   -0.6392    0.0000 C   0  0  0  0  0  0  0  0  0  0  0  0
    2.1335   -3.6873    0.0000 C   0  0  0  0  0  0  0  0  0  0  0  0
    4.0619   -3.6873    0.0000 C   0  0  0  0  0  0  0  0  0  0  0  0
   -0.7989   -4.7891    0.0000 C   0  0  0  0  0  0  0  0  0  0  0  0
   -2.0985   -4.0382    0.0000 C   0  0  0  0  0  0  0  0  0  0  0  0
    0.5001   -4.0391    0.0000 C   0  0  0  0  0  0  0  0  0  0  0  0
   -0.7999   -1.7874    0.0000 C   0  0  0  0  0  0  0  0  0  0  0  0
   -2.0989   -2.5374    0.0000 C   0  0  0  0  0  0  0  0  0  0  0  0
    0.4996   -2.5382    0.0000 C   0  0  0  0  0  0  0  0  0  0  0  0
   -3.3981   -1.7876    0.0000 N   0  0  0  0  0  0  0  0  0  0  0  0
   -4.6970   -2.5378    0.0000 O   0  0  0  0  0  0  0  0  0  0  0  0
   -3.3983   -0.2876    0.0000 O   0  0  0  0  0  0  0  0  0  0  0  0
    4.3967   -1.7882    0.0000 Si  0  0  0  0  0  4  0  0  0  0  0  0
    1.7986   -1.7882    0.0000 Si  0  0  0  0  0  4  0  0  0  0  0  0
    3.0977   -2.5382    0.0000 Si  0  0  0  0  0  4  0  0  0  0  0  0
  9  8  2  0
 10  8  1  0
 12  9  1  0
 12 11  2  0
 13 10  2  0
 13 11  1  0
 14 12  1  0
 15 14  1  0
 16 14  2  0
 17  1  1  0
 17  2  1  0
 17  3  1  0
 18  4  1  0
 18  5  1  0
 18 13  1  0
 19  6  1  0
 19  7  1  0
 19 17  1  0
 19 18  1  0
M  CHG  2  14   1  15  -1
M  END
>  <NAME>  (5146) 
1-(META-NITROPHENYL)HEPTAMETHYLTRISILANE

>  <SYNONYMS>  (5146) 


>  <SPECTRUM TYPE>  (5146) 
MS1

>  <INSTRUMENT TYPE>  (5146) 
EI-B

>  <INSTRUMENT>  (5146) 
JEOL JMS-D-3000

>  <ION MODE>  (5146) 
P

>  <INCHIKEY>  (5146) 
FONSERSZTSBZOB-UHFFFAOYSA-N

>  <FORMULA>  (5146) 
C13H25NO2Si3

>  <EXACT MASS>  (5146) 
311.11930863

>  <MW>  (5146) 
311

>  <ID>  (5146) 
JP001976

>  <CONTRIBUTOR>  (5146) 
University of Tokyo Team, {Faculty of Engineering, University of Tokyo

>  <COMMENT>  (5146) 
SMILES=[O-1][N+1](=O)c(c1)cc(cc1)[Si](C)(C)[Si](C)(C)[Si](C)(C)C
InChI=InChI=1S/C13H25NO2Si3/c1-17(2,3)19(6,7)18(4,5)13-10-8-9-12(11-13)14(15)16/h8-11H,1-7H3
computed SMILES=O=N(=O)C1=CC=CC(=C1)[Si](C)(C)[Si](C)(C)[Si](C)(C)C
accession=JP001976
date=2016.01.19 (Created 2008.10.21, modified 2011.05.06)
author=MASS SPECTROSCOPY SOC. OF JAPAN (MSSJ)
license=CC BY-NC-SA
exact mass=311.11931
ionization energy=70 eV
ion type=[M]+*
computed spectral entropy=2.4545983272154506
computed normalized entropy=0.79410049012708
SPLASH=splash10-00di-9801000000-a65619b4ac90379e0519
submitter=submitter = University of Tokyo Team (Faculty of Engineering, University of Tokyo)
MoNA Rating=3.75

>  <NUM PEAKS>  (5146) 
22

>  <MASS SPECTRAL PEAKS>  (5146) 
40 7.32
56 4.89
73 99.99
74 8.83
75 5.95
117 9.04
119 12.36
131 22.83
132 4.52
133 12.18
134 11.79
135 3.74
147 11.14
148 3.42
149 3.42
164 7.5
177 3.25
180 3.79
193 9.25
296 3.45
311 11.59
312 3.61

>  <PREDICTED SPECTRUM>  (5146) 
28 39
29 80
30 28
31 25
38 7
39 32
40 22
41 40
42 45
43 168
44 140
45 316
46 113
47 46
50 53
51 78
52 33
53 49
55 94
56 53
57 107
58 95
59 195
60 67
61 41
62 5
63 51
64 44
65 35
66 89
67 30
68 3
69 51
70 81
71 32
72 50
73 999
74 335
75 364
76 160
77 104
78 92
79 41
80 40
81 45
82 13
83 75
84 14
85 16
87 11
88 21
89 59
90 106
91 139
92 72
93 20
95 41
96 30
97 28
99 40
100 15
101 58
102 75
103 88
104 155
105 125
106 75
107 68
108 13
109 31
110 1
115 69
116 131
117 147
118 130
119 207
120 123
121 76
122 55
125 7
129 47
131 170
132 96
133 306
134 307
135 306
136 168
137 36
138 5
143 13
145 26
146 108
147 683
148 298
149 362
150 237
151 42
152 54
153 20
155 27
157 26
161 113
162 74
163 87
164 131
165 103
166 26
171 12
175 73
176 149
177 273
178 202
179 407
180 170
181 82
182 24
189 72
190 99
191 168
192 244
193 617
194 392
195 159
196 20
205 60
206 81
207 185
208 230
209 90
210 123
211 8
221 47
222 137
223 159
224 59
236 3
237 76
238 279
239 142
264 60
265 64
266 42
281 21
294 40
296 153
297 82
298 8
311 107
312 44

$$$$

     RDKit          2D

 16 16  0  0  0  0  0  0  0  0999 V2000
    3.1483   -0.5487    0.0000 C   0  0  0  0  0  0  0  0  0  0  0  0
    5.1972    0.0006    0.0000 C   0  0  0  0  0  0  0  0  0  0  0  0
    4.6479    2.0496    0.0000 C   0  0  0  0  0  0  0  0  0  0  0  0
    3.5629    2.6494    0.0000 C   0  0  0  0  0  0  0  0  0  0  0  0
    1.6346    2.6491    0.0000 C   0  0  0  0  0  0  0  0  0  0  0  0
   -1.3000    0.7500    0.0000 C   0  0  0  0  0  0  0  0  0  0  0  0
   -0.0000   -1.5000    0.0000 C   0  0  0  0  0  0  0  0  0  0  0  0
    0.0000    1.5000    0.0000 C   0  0  0  0  0  0  0  0  0  0  0  0
    1.3000   -0.7500    0.0000 C   0  0  0  0  0  0  0  0  0  0  0  0
   -1.3000   -0.7500    0.0000 C   0  0  0  0  0  0  0  0  0  0  0  0
    1.3000    0.7500    0.0000 C   0  0  0  0  0  0  0  0  0  0  0  0
   -2.5989   -1.5002    0.0000 N   0  0  0  0  0  0  0  0  0  0  0  0
   -3.8981   -0.7504    0.0000 O   0  0  0  0  0  0  0  0  0  0  0  0
   -2.5987   -3.0002    0.0000 O   0  0  0  0  0  0  0  0  0  0  0  0
    3.8981    0.7504    0.0000 Si  0  0  0  0  0  4  0  0  0  0  0  0
    2.5989    1.5002    0.0000 Si  0  0  0  0  0  4  0  0  0  0  0  0
  8  6  2  0
  9  7  1  0
 10  6  1  0
 10  7  2  0
 11  8  1  0
 11  9  2  0
 12 10  1  0
 13 12  1  0
 14 12  2  0
 15  1  1  0
 15  2  1  0
 15  3  1  0
 16  4  1  0
 16  5  1  0
 16 11  1  0
 16 15  1  0
M  CHG  2  12   1  13  -1
M  END
>  <NAME>  (5147) 
PARA-NITROPHENYLPENTAMETHYLDISILANE

>  <SYNONYMS>  (5147) 


>  <SPECTRUM TYPE>  (5147) 
MS1

>  <INSTRUMENT TYPE>  (5147) 
EI-B

>  <INSTRUMENT>  (5147) 
JEOL JMS-D-3000

>  <ION MODE>  (5147) 
P

>  <INCHIKEY>  (5147) 
JBRHXSPSFSQEFQ-UHFFFAOYSA-N

>  <FORMULA>  (5147) 
C11H19NO2Si2

>  <EXACT MASS>  (5147) 
253.095431908

>  <MW>  (5147) 
253

>  <ID>  (5147) 
JP001975

>  <CONTRIBUTOR>  (5147) 
University of Tokyo Team, {Faculty of Engineering, University of Tokyo

>  <COMMENT>  (5147) 
SMILES=[O-1][N+1](=O)c(c1)ccc(c1)[Si](C)(C)[Si](C)(C)C
InChI=InChI=1S/C11H19NO2Si2/c1-15(2,3)16(4,5)11-8-6-10(7-9-11)12(13)14/h6-9H,1-5H3
computed SMILES=O=N(=O)C1=CC=C(C=C1)[Si](C)(C)[Si](C)(C)C
accession=JP001975
date=2016.01.19 (Created 2008.10.21, modified 2011.05.06)
author=MASS SPECTROSCOPY SOC. OF JAPAN (MSSJ)
license=CC BY-NC-SA
exact mass=253.09543
ionization energy=70 eV
ion type=[M]+*
computed spectral entropy=3.1419605317121087
computed normalized entropy=0.7737974707565939
SPLASH=splash10-00e9-6900000000-5c2dadfdfc0b6b7ac03b
submitter=submitter = University of Tokyo Team (Faculty of Engineering, University of Tokyo)
MoNA Rating=3.75

>  <NUM PEAKS>  (5147) 
58

>  <MASS SPECTRAL PEAKS>  (5147) 
53 3.72
55 1.89
57 1.04
58 2.96
59 4.35
67 1.97
69 1.69
72 1.38
73 99.99
74 9.53
75 7.64
77 1.15
79 1.11
83 3.79
90 1.43
91 1.35
93 4.12
99 1.04
103 1.47
104 1.65
105 2.1
107 1.46
117 1.41
119 18.48
120 3.03
121 2.25
122 1.99
131 4.12
132 1.25
133 7.58
134 40.37
135 7.16
136 2.03
145 1.1
147 4.69
148 1.41
149 4.7
150 8.33
151 1.74
158 3.61
164 18.63
165 3.29
175 1.33
177 1.65
179 14.59
180 13.02
181 2.44
192 1.35
193 19.76
194 4.27
195 2.04
207 7.12
208 3.08
222 1.69
223 1.68
238 5.45
239 1.24
253 1.03

>  <PREDICTED SPECTRUM>  (5147) 
29 8
31 36
39 39
40 16
41 38
43 108
44 78
45 194
46 29
50 20
51 17
53 41
54 16
55 64
56 51
57 166
58 125
59 341
60 13
61 25
63 53
67 4
69 32
73 999
74 247
75 282
76 92
77 78
78 31
79 32
83 77
85 17
89 81
90 57
91 152
92 100
93 16
95 0
96 5
97 38
103 90
104 126
105 198
106 65
107 62
109 0
115 0
117 62
118 89
119 326
120 149
121 154
122 41
123 1
131 200
132 103
133 280
134 383
135 402
136 171
137 4
147 198
148 44
149 226
150 257
151 157
152 60
163 20
164 280
165 259
166 80
176 43
177 145
179 367
180 416
181 181
192 105
193 820
194 503
195 53
196 10
206 56
207 476
208 65
223 31
236 46
237 29
238 213
239 83
240 1
252 5
253 114
254 23

$$$$

     RDKit          2D

 16 16  0  0  0  0  0  0  0  0999 V2000
    3.2349   -2.6486    0.0000 C   0  0  0  0  0  0  0  0  0  0  0  0
    5.2840   -2.0995    0.0000 C   0  0  0  0  0  0  0  0  0  0  0  0
    4.7349   -0.0505    0.0000 C   0  0  0  0  0  0  0  0  0  0  0  0
    3.6501    0.5495    0.0000 C   0  0  0  0  0  0  0  0  0  0  0  0
    1.7217    0.5495    0.0000 C   0  0  0  0  0  0  0  0  0  0  0  0
    0.0883   -3.6004    0.0000 C   0  0  0  0  0  0  0  0  0  0  0  0
   -1.2112   -2.8495    0.0000 C   0  0  0  0  0  0  0  0  0  0  0  0
    1.3873   -2.8504    0.0000 C   0  0  0  0  0  0  0  0  0  0  0  0
    0.0873   -0.5987    0.0000 C   0  0  0  0  0  0  0  0  0  0  0  0
   -1.2117   -1.3487    0.0000 C   0  0  0  0  0  0  0  0  0  0  0  0
    1.3869   -1.3495    0.0000 C   0  0  0  0  0  0  0  0  0  0  0  0
   -2.5108   -0.5989    0.0000 N   0  0  0  0  0  0  0  0  0  0  0  0
   -3.8098   -1.3491    0.0000 O   0  0  0  0  0  0  0  0  0  0  0  0
   -2.5111    0.9011    0.0000 O   0  0  0  0  0  0  0  0  0  0  0  0
    3.9849   -1.3495    0.0000 Si  0  0  0  0  0  4  0  0  0  0  0  0
    2.6859   -0.5995    0.0000 Si  0  0  0  0  0  4  0  0  0  0  0  0
  7  6  2  0
  8  6  1  0
 10  7  1  0
 10  9  2  0
 11  8  2  0
 11  9  1  0
 12 10  1  0
 13 12  1  0
 14 12  2  0
 15  1  1  0
 15  2  1  0
 15  3  1  0
 16  4  1  0
 16  5  1  0
 16 11  1  0
 16 15  1  0
M  CHG  2  12   1  13  -1
M  END
>  <NAME>  (5148) 
META-NITROPHENYLPENTAMETHYLDISILANE

>  <SYNONYMS>  (5148) 


>  <SPECTRUM TYPE>  (5148) 
MS1

>  <INSTRUMENT TYPE>  (5148) 
EI-B

>  <INSTRUMENT>  (5148) 
JEOL JMS-D-3000

>  <ION MODE>  (5148) 
P

>  <INCHIKEY>  (5148) 
FCVHPSZRDHJMPG-UHFFFAOYSA-N

>  <FORMULA>  (5148) 
C11H19NO2Si2

>  <EXACT MASS>  (5148) 
253.095431908

>  <MW>  (5148) 
253

>  <ID>  (5148) 
JP001974

>  <CONTRIBUTOR>  (5148) 
University of Tokyo Team, {Faculty of Engineering, University of Tokyo

>  <COMMENT>  (5148) 
SMILES=[O-1][N+1](=O)c(c1)cc(cc1)[Si](C)(C)[Si](C)(C)C
InChI=InChI=1S/C11H19NO2Si2/c1-15(2,3)16(4,5)11-8-6-7-10(9-11)12(13)14/h6-9H,1-5H3
computed SMILES=O=N(=O)C1=CC=CC(=C1)[Si](C)(C)[Si](C)(C)C
accession=JP001974
date=2016.01.19 (Created 2008.10.21, modified 2011.05.06)
author=MASS SPECTROSCOPY SOC. OF JAPAN (MSSJ)
license=CC BY-NC-SA
exact mass=253.09543
ionization energy=70 eV
ion type=[M]+*
computed spectral entropy=3.2362615028882775
computed normalized entropy=0.8039698768027992
SPLASH=splash10-00e9-4900000000-1d2f91ba4e8ebb008d79
submitter=submitter = University of Tokyo Team (Faculty of Engineering, University of Tokyo)
MoNA Rating=3.75

>  <NUM PEAKS>  (5148) 
56

>  <MASS SPECTRAL PEAKS>  (5148) 
53 4.88
55 1.96
58 2.33
59 5.9
63 1.36
67 2.31
69 1.75
72 1.49
73 99.99
74 9.78
75 6.94
77 1.33
79 1.44
83 5.17
90 2.71
91 2.26
93 5.29
103 2.55
104 1.53
105 3.23
107 1.87
117 2.04
119 33.9
120 5.1
121 4.98
131 7.61
132 2.72
133 21.13
134 38.1
135 7.71
136 2.14
145 1.84
147 12.02
148 2.71
149 20.08
150 7.02
151 1.79
158 6.13
159 1.4
164 21.76
165 3.94
175 1.85
177 1.98
179 21.39
180 14.22
181 3.01
191 1.25
192 1.89
193 28.19
194 6.45
195 3.13
207 2.63
208 4.52
222 1.28
238 2.08
253 1.37

>  <PREDICTED SPECTRUM>  (5148) 
15 2
28 7
29 6
30 37
31 36
38 6
39 58
40 23
41 55
42 63
43 235
44 179
45 328
46 93
47 58
50 83
51 98
52 51
53 95
54 20
55 87
56 62
57 166
58 147
59 312
60 45
61 78
62 22
63 71
64 31
65 50
66 76
67 39
68 20
69 67
70 61
71 8
72 56
73 999
74 322
75 370
76 143
77 132
78 103
79 116
80 40
81 59
83 135
85 50
88 7
89 131
90 101
91 172
92 148
93 44
95 38
96 54
97 89
98 31
99 28
103 102
104 182
105 217
106 129
107 134
108 39
109 44
110 0
111 24
115 17
117 151
118 112
119 362
120 193
121 171
122 61
123 24
131 169
132 123
133 374
134 394
135 388
136 152
137 47
147 572
148 223
149 371
150 276
151 134
152 69
162 15
163 119
164 274
165 253
166 104
176 83
177 179
178 42
179 525
180 318
181 162
191 64
192 145
193 799
194 510
195 45
206 136
207 269
208 110
223 142
236 37
237 32
238 187
239 67
253 124
254 51

$$$$

     RDKit          2D

 13 13  0  0  0  0  0  0  0  0999 V2000
    3.3491    0.2013    0.0000 C   0  0  0  0  0  0  0  0  0  0  0  0
    3.8978    2.2504    0.0000 C   0  0  0  0  0  0  0  0  0  0  0  0
    1.8487    2.7991    0.0000 C   0  0  0  0  0  0  0  0  0  0  0  0
   -1.3000    0.7500    0.0000 C   0  0  0  0  0  0  0  0  0  0  0  0
   -0.0000   -1.5000    0.0000 C   0  0  0  0  0  0  0  0  0  0  0  0
    0.0000    1.5000    0.0000 C   0  0  0  0  0  0  0  0  0  0  0  0
    1.3000   -0.7500    0.0000 C   0  0  0  0  0  0  0  0  0  0  0  0
   -1.3000   -0.7500    0.0000 C   0  0  0  0  0  0  0  0  0  0  0  0
    1.3000    0.7500    0.0000 C   0  0  0  0  0  0  0  0  0  0  0  0
   -2.5989   -1.5002    0.0000 N   0  0  0  0  0  0  0  0  0  0  0  0
   -3.8981   -0.7504    0.0000 O   0  0  0  0  0  0  0  0  0  0  0  0
   -2.5987   -3.0002    0.0000 O   0  0  0  0  0  0  0  0  0  0  0  0
    2.5989    1.5002    0.0000 Si  0  0  0  0  0  4  0  0  0  0  0  0
  6  4  2  0
  7  5  1  0
  8  4  1  0
  8  5  2  0
  9  6  1  0
  9  7  2  0
 10  8  1  0
 11 10  1  0
 12 10  2  0
 13  1  1  0
 13  2  1  0
 13  3  1  0
 13  9  1  0
M  CHG  2  10   1  11  -1
M  END
>  <NAME>  (5149) 
PARA-NITROPHENYLTRIMETHYLSILANE

>  <SYNONYMS>  (5149) 


>  <SPECTRUM TYPE>  (5149) 
MS1

>  <INSTRUMENT TYPE>  (5149) 
EI-B

>  <INSTRUMENT>  (5149) 
JEOL JMS-D-3000

>  <ION MODE>  (5149) 
P

>  <INCHIKEY>  (5149) 
IJGJSNAIGBFOTK-UHFFFAOYSA-N

>  <FORMULA>  (5149) 
C9H13NO2Si

>  <EXACT MASS>  (5149) 
195.071555186

>  <MW>  (5149) 
195

>  <ID>  (5149) 
JP001973

>  <CONTRIBUTOR>  (5149) 
University of Tokyo Team, {Faculty of Engineering, University of Tokyo

>  <COMMENT>  (5149) 
SMILES=[O-1][N+1](=O)c(c1)ccc(c1)[Si](C)(C)C
InChI=InChI=1S/C9H13NO2Si/c1-13(2,3)9-6-4-8(5-7-9)10(11)12/h4-7H,1-3H3
computed SMILES=O=N(=O)C1=CC=C(C=C1)[Si](C)(C)C
accession=JP001973
date=2016.01.19 (Created 2008.10.21, modified 2011.05.06)
author=MASS SPECTROSCOPY SOC. OF JAPAN (MSSJ)
license=CC BY-NC-SA
exact mass=195.07156
ionization energy=70 eV
ion type=[M]+*
computed spectral entropy=2.031988185524112
computed normalized entropy=0.6312726231392644
SPLASH=splash10-001i-1900000000-0bed72ad0b8421be8350
submitter=submitter = University of Tokyo Team (Faculty of Engineering, University of Tokyo)
MoNA Rating=3.75

>  <NUM PEAKS>  (5149) 
25

>  <MASS SPECTRAL PEAKS>  (5149) 
43 3.51
45 2.18
53 2.33
55 1.11
58 1.05
67 1.44
73 5.44
83 1.91
93 3.23
104 1.47
105 1.88
119 8.59
120 2.55
121 1.82
122 3.43
133 1.15
134 22.03
135 3.32
136 1.22
150 1.41
180 99.99
181 14.85
182 5.48
195 5.07
196 0.87

>  <PREDICTED SPECTRUM>  (5149) 
27 28
28 11
29 23
30 11
31 16
39 10
41 1
42 32
43 184
44 62
45 198
46 15
47 24
50 40
51 60
52 27
53 69
55 81
56 44
57 88
58 68
59 80
60 30
61 34
62 22
63 63
64 14
65 2
66 0
67 35
68 3
69 44
72 40
73 479
74 89
75 182
76 66
77 119
78 83
79 47
81 12
83 48
89 51
90 44
91 141
93 28
95 31
97 25
103 69
104 108
105 96
106 122
107 76
108 42
109 30
118 109
119 217
120 163
121 147
122 110
123 52
132 64
133 165
134 512
135 220
136 135
148 62
149 26
150 178
151 55
164 25
165 39
178 8
179 19
180 999
181 374
182 222
183 26
195 136
196 49

$$$$

     RDKit          2D

 13 13  0  0  0  0  0  0  0  0999 V2000
   -5.5652    3.2092    0.0000 C   0  0  0  0  0  0  0  0  0  0  0  0
   -2.6323    1.3102    0.0000 C   0  0  0  0  0  0  0  0  0  0  0  0
   -0.7039    1.3102    0.0000 C   0  0  0  0  0  0  0  0  0  0  0  0
   -4.2662    2.4592    0.0000 C   0  0  0  0  0  0  0  0  0  0  0  0
    3.5281    0.9592    0.0000 C   0  0  0  0  0  0  0  0  0  0  0  0
    3.5285    2.4601    0.0000 C   0  0  0  0  0  0  0  0  0  0  0  0
    2.2285    0.2084    0.0000 C   0  0  0  0  0  0  0  0  0  0  0  0
    2.2295    3.2101    0.0000 C   0  0  0  0  0  0  0  0  0  0  0  0
    0.9295    0.9584    0.0000 C   0  0  0  0  0  0  0  0  0  0  0  0
   -2.9671    3.2092    0.0000 C   0  0  0  0  0  0  0  0  0  0  0  0
   -0.3691    3.2092    0.0000 C   0  0  0  0  0  0  0  0  0  0  0  0
    0.9300    2.4592    0.0000 C   0  0  0  0  0  0  0  0  0  0  0  0
   -1.6681    2.4592    0.0000 Si  0  0  0  0  0  4  0  0  0  0  0  0
  4  1  2  0
  6  5  2  0
  7  5  1  0
  8  6  1  0
  9  7  2  0
 10  4  1  0
 12  8  2  0
 12  9  1  0
 12 11  1  0
 13  2  1  0
 13  3  1  0
 13 10  1  0
 13 11  1  0
M  END
>  <NAME>  (5150) 
ALLYLBENZYLDIMETHYLSILANE

>  <SYNONYMS>  (5150) 


>  <SPECTRUM TYPE>  (5150) 
MS1

>  <INSTRUMENT TYPE>  (5150) 
EI-B

>  <INSTRUMENT>  (5150) 
JEOL JMS-D-3000

>  <ION MODE>  (5150) 
P

>  <INCHIKEY>  (5150) 
MWHVQTOELUOXTM-UHFFFAOYSA-N

>  <FORMULA>  (5150) 
C12H18Si

>  <EXACT MASS>  (5150) 
190.117777106

>  <MW>  (5150) 
190

>  <ID>  (5150) 
JP001972

>  <CONTRIBUTOR>  (5150) 
University of Tokyo Team, {Faculty of Engineering, University of Tokyo

>  <COMMENT>  (5150) 
InChI=InChI=1S/C12H18Si/c1-4-10-13(2,3)11-12-8-6-5-7-9-12/h4-9H,1,10-11H2,2-3H3
SMILES=C=CC[Si](C)(C)Cc(c1)cccc1
computed SMILES=C=CC[Si](C)(C)CC=1C=CC=CC1
accession=JP001972
date=2016.01.19 (Created 2008.10.21, modified 2011.05.06)
author=MASS SPECTROSCOPY SOC. OF JAPAN (MSSJ)
license=CC BY-NC-SA
exact mass=190.11778
ionization energy=70 eV
ion type=[M]+*
computed spectral entropy=2.222365815714477
computed normalized entropy=0.741843934230468
SPLASH=splash10-0002-3900000000-2a04da553afb3752591c
submitter=submitter = University of Tokyo Team (Faculty of Engineering, University of Tokyo)
MoNA Rating=3.75

>  <NUM PEAKS>  (5150) 
20

>  <MASS SPECTRAL PEAKS>  (5150) 
41 3.05
44 9.74
45 5.77
59 16.25
65 3.08
71 5.11
91 5.44
99 23.1
100 2.57
105 2.84
107 2.4
119 2.4
121 36.29
122 4.98
133 3.79
148 2.71
149 99.99
150 15.18
151 4.52
190 7.64

>  <PREDICTED SPECTRUM>  (5150) 
29 20
31 28
38 6
39 181
40 70
41 107
42 89
43 131
44 48
45 264
46 67
47 78
50 10
51 107
52 54
53 112
54 36
55 105
56 40
57 102
58 118
59 378
60 59
61 75
63 64
65 230
66 40
67 131
68 27
69 12
71 232
72 92
73 159
74 39
75 170
76 34
77 127
78 69
79 11
81 24
83 118
85 17
89 77
90 2
91 424
92 31
93 0
99 519
100 198
101 77
103 15
104 71
105 164
106 16
107 114
118 2
119 163
120 56
121 582
122 178
131 34
132 24
133 90
135 44
147 60
148 34
149 999
150 324
151 134
159 2
162 49
175 159
176 43
189 38
190 153
191 57

$$$$

     RDKit          2D

 17 13  0  0  0  0  0  0  0  0999 V2000
    1.1437    1.1474    0.0000 C   0  0  0  0  0  0  0  0  0  0  0  0
   -4.7044   -1.0920    0.0000 C   0  0  0  0  0  0  0  0  0  0  0  0
   -3.4321   -2.4632    0.0000 C   0  0  0  0  0  0  0  0  0  0  0  0
   -2.5821    3.1760    0.0000 C   0  0  0  0  0  0  0  0  0  0  0  0
   -4.2020    2.2408    0.0000 C   0  0  0  0  0  0  0  0  0  0  0  0
   -0.5132   -0.7779    0.0000 C   0  0  0  0  0  3  0  0  0  0  0  0
   -1.8122   -1.5279    0.0000 C   0  0  0  0  0  0  0  0  0  0  0  0
   -1.3099    1.8049    0.0000 C   0  0  0  0  0  0  0  0  0  0  0  0
   -0.2896    0.7053    0.0000 C   0  0  0  0  0  0  0  0  0  0  0  0
   -3.6507    0.4534    0.0000 C   0  0  0  0  0  0  0  0  0  0  0  0
   -3.2085   -0.9799    0.0000 C   0  0  0  0  0  0  0  0  0  0  0  0
   -2.8057    1.6928    0.0000 C   0  0  0  0  0  0  0  0  0  0  0  0
   -5.1339    0.6770    0.0000 O   0  0  0  0  0  0  0  0  0  0  0  0
    0.0000    0.0000    0.0000 C   0  0  0  0  0  3  0  0  0  0  0  0
    0.0000    0.0000    0.0000 C   0  0  0  0  0  3  0  0  0  0  0  0
    0.0000    0.0000    0.0000 C   0  0  0  0  0  3  0  0  0  0  0  0
    0.0000    0.0000    0.0000 Sn  0  0  0  0  0 15  0  0  0  0  0  0
  7  6  1  0
  9  1  2  0
  9  6  1  0
  9  8  1  0
 11  2  1  0
 11  3  1  0
 11  7  1  0
 11 10  1  0
 12  4  1  0
 12  5  1  0
 12  8  1  0
 12 10  1  0
 13 10  2  0
M  RAD  4   6   2  14   2  15   2  16   2
M  END
>  <NAME>  (5151) 
2,2,7,7-TETRAMETHYL-4-(TRIMETHYLSTANNYLMETHYL)CYCLOHEPT-4-ENONE

>  <SYNONYMS>  (5151) 


>  <SPECTRUM TYPE>  (5151) 
MS1

>  <INSTRUMENT TYPE>  (5151) 
EI-B

>  <INSTRUMENT>  (5151) 
JEOL JMS-D-3000

>  <ION MODE>  (5151) 
P

>  <INCHIKEY>  (5151) 
HLYWPYLMMCZNEC-UHFFFAOYSA-N

>  <FORMULA>  (5151) 
C15H28OSn

>  <EXACT MASS>  (5151) 
344.11621021599996

>  <MW>  (5151) 
344

>  <ID>  (5151) 
JP001971

>  <CONTRIBUTOR>  (5151) 
University of Tokyo Team, {Faculty of Engineering, University of Tokyo

>  <COMMENT>  (5151) 
SMILES=O=C(C(C)(C)1)C(C)(C)CC(=CC1)C[Sn](C)(C)C
InChI=InChI=1S/C12H19O.3CH3.Sn/c1-9-6-7-11(2,3)10(13)12(4,5)8-9;;;;/h6H,1,7-8H2,2-5H3;3*1H3;
computed SMILES=[Sn].O=C1C(C)(C)C[CH]C(=C)CC1(C)C.[CH3].[CH3].[CH3]
accession=JP001971
date=2016.01.19 (Created 2008.10.21, modified 2011.05.06)
author=MASS SPECTROSCOPY SOC. OF JAPAN (MSSJ)
license=CC BY-NC-SA
exact mass=344.11621
ionization energy=70 eV
ion type=[M]+*
computed spectral entropy=2.8278572055846984
computed normalized entropy=0.8580088519408484
SPLASH=splash10-03xr-1902000000-1bd1d8db3973c830c8fb
submitter=submitter = University of Tokyo Team (Faculty of Engineering, University of Tokyo)
MoNA Rating=3.75

>  <NUM PEAKS>  (5151) 
27

>  <MASS SPECTRAL PEAKS>  (5151) 
41 11.43
55 6.04
67 6.93
79 9.83
93 6.01
95 4.58
107 8.08
133 5.04
135 8.41
150 5.24
161 45.45
162 25.57
163 67.07
164 27.94
165 99.99
167 13.84
169 18.21
325 6.67
326 4.15
327 11.11
328 5.88
329 16.3
340 9.66
341 6.45
342 16.5
343 8.69
344 21.94

>  <PREDICTED SPECTRUM>  (5151) 
18 1
26 56
27 299
28 162
29 228
37 27
38 87
39 509
40 159
41 936
42 243
43 903
44 198
45 58
49 12
50 143
51 337
52 276
53 552
54 230
55 549
56 173
57 170
58 69
62 20
63 138
64 127
65 324
66 208
67 584
68 360
69 463
70 160
71 78
77 477
78 223
79 424
80 160
81 370
82 221
83 304
89 94
90 46
91 594
92 280
93 428
94 213
95 817
96 299
97 191
98 120
99 86
103 71
104 67
105 208
106 123
107 283
108 89
109 121
110 89
111 83
112 37
113 37
115 101
117 103
119 521
120 173
121 125
122 151
123 221
124 118
125 101
127 61
128 69
129 110
131 183
132 144
133 204
135 92
137 131
138 116
139 133
140 116
141 157
142 44
143 149
145 59
147 266
148 65
149 166
150 140
151 139
152 40
157 119
158 22
159 150
160 108
161 209
162 19
163 34
164 47
165 54
166 86
171 99
172 20
173 124
174 36
175 273
176 178
177 193
178 23
179 28
185 254
186 70
187 173
188 69
189 134
190 34
191 154
192 68
193 268
194 28
201 13
202 192
203 302
204 26
205 150
206 74
207 199
208 241
209 10
213 60
214 9
215 105
216 60
217 392
218 234
219 154
220 77
221 9
228 11
229 44
230 152
231 408
232 145
233 28
234 59
240 26
241 57
243 223
244 285
245 360
246 172
247 80
248 35
257 26
258 145
259 286
260 19
261 29
262 72
269 28
270 27
271 26
272 74
273 130
274 75
275 42
276 38
285 13
286 280
287 226
301 102
302 58
315 52
316 21
328 155
329 999
330 279
344 368
345 41

$$$$

     RDKit          2D

 17 17  0  0  0  0  0  0  0  0999 V2000
   -0.1094    2.3928    0.0000 C   0  0  0  0  0  0  0  0  0  0  0  0
    0.6921   -3.4031    0.0000 C   0  0  0  0  0  0  0  0  0  0  0  0
    2.7039   -3.4031    0.0000 C   0  0  0  0  0  0  0  0  0  0  0  0
    3.9154    0.3306    0.0000 C   0  0  0  0  0  0  0  0  0  0  0  0
    2.2917    1.5114    0.0000 C   0  0  0  0  0  0  0  0  0  0  0  0
   -0.4071   -1.7877    0.0000 C   0  0  0  0  0  0  0  0  0  0  0  0
   -2.5255   -1.9000    0.0000 C   0  0  0  0  0  0  0  0  0  0  0  0
   -2.6377    0.2183    0.0000 C   0  0  0  0  0  0  0  0  0  0  0  0
    1.1044    1.5114    0.0000 C   0  0  0  0  0  0  0  0  0  0  0  0
    0.4880   -1.4004    0.0000 C   0  0  0  0  0  0  0  0  0  0  0  0
   -0.5194    0.3306    0.0000 C   0  0  0  0  0  0  0  0  0  0  0  0
    2.9080   -1.4004    0.0000 C   0  0  0  0  0  0  0  0  0  0  0  0
    1.6980   -2.2904    0.0000 C   0  0  0  0  0  0  0  0  0  0  0  0
    2.4480    0.0196    0.0000 C   0  0  0  0  0  0  0  0  0  0  0  0
    0.9480    0.0196    0.0000 C   0  0  0  0  0  0  0  0  0  0  0  0
    4.3358   -1.8604    0.0000 O   0  0  0  0  0  0  0  0  0  0  0  0
   -1.5224   -0.7847    0.0000 Si  0  0  0  0  0  4  0  0  0  0  0  0
  9  1  2  0
 13  2  1  0
 13  3  1  0
 13 10  1  0
 13 12  1  0
 14  4  1  0
 14  5  1  0
 14 12  1  0
 15  9  1  0
 15 10  1  0
 15 11  1  0
 15 14  1  0
 16 12  2  0
 17  6  1  0
 17  7  1  0
 17  8  1  0
 17 11  1  0
M  END
>  <NAME>  (5152) 
2,2,5,5-TETRAMETHYL-3-(TRIMETHYLSILYLMETHYL)-3-VINYLCYCLOPENTANONE

>  <SYNONYMS>  (5152) 


>  <SPECTRUM TYPE>  (5152) 
MS1

>  <INSTRUMENT TYPE>  (5152) 
EI-B

>  <INSTRUMENT>  (5152) 
JEOL JMS-D-3000

>  <ION MODE>  (5152) 
P

>  <INCHIKEY>  (5152) 
HLDNWEJDMZLBMJ-UHFFFAOYSA-N

>  <FORMULA>  (5152) 
C15H28OSi

>  <EXACT MASS>  (5152) 
252.19094204599998

>  <MW>  (5152) 
252

>  <ID>  (5152) 
JP001970

>  <CONTRIBUTOR>  (5152) 
University of Tokyo Team, {Faculty of Engineering, University of Tokyo

>  <COMMENT>  (5152) 
SMILES=C=CC(C[Si](C)(C)C)(C1)C(C)(C)C(=O)C(C)(C)1
InChI=InChI=1S/C15H28OSi/c1-9-15(11-17(6,7)8)10-13(2,3)12(16)14(15,4)5/h9H,1,10-11H2,2-8H3
computed SMILES=O=C1C(C)(C)CC(C=C)(C[Si](C)(C)C)C1(C)C
accession=JP001970
date=2016.01.19 (Created 2008.10.21, modified 2011.05.06)
author=MASS SPECTROSCOPY SOC. OF JAPAN (MSSJ)
license=CC BY-NC-SA
exact mass=252.19094
ionization energy=70 eV
ion type=[M]+*
computed spectral entropy=2.7976163991285463
computed normalized entropy=0.8072214610664785
SPLASH=splash10-00dj-9310000000-3a418bb3a05b6b0b55d1
submitter=submitter = University of Tokyo Team (Faculty of Engineering, University of Tokyo)
MoNA Rating=3.75

>  <NUM PEAKS>  (5152) 
32

>  <MASS SPECTRAL PEAKS>  (5152) 
42 6.68
43 4.25
45 9.82
55 4.64
59 10.99
67 7.95
73 99.99
74 8.59
75 14.97
81 5
91 3.58
93 3.69
95 54.14
96 4.68
107 3.32
113 3.45
119 3.41
144 3.99
147 3.9
153 5.13
158 16.09
168 5.43
179 3.51
181 6.98
185 23.77
186 3.69
196 3.84
209 4.27
237 12.67
238 3.32
252 13.25
253 3.06

>  <PREDICTED SPECTRUM>  (5152) 
41 111
43 182
45 92
53 18
55 140
59 244
67 113
68 9
69 157
73 999
74 302
75 399
76 34
77 13
79 88
81 73
91 112
93 189
94 16
95 374
96 8
105 52
107 67
109 19
111 51
113 78
119 74
120 51
121 57
125 39
129 5
139 72
147 142
148 59
153 9
179 66
181 364
182 76
183 10
196 23
209 218
210 8
211 67
237 372
238 99
252 247
253 108
254 4

$$$$

     RDKit          2D

 17 17  0  0  0  0  0  0  0  0999 V2000
   -5.0095    0.2549    0.0000 C   0  0  0  0  0  0  0  0  0  0  0  0
   -3.7373   -1.1163    0.0000 C   0  0  0  0  0  0  0  0  0  0  0  0
   -2.8873    4.5229    0.0000 C   0  0  0  0  0  0  0  0  0  0  0  0
   -4.5072    3.5877    0.0000 C   0  0  0  0  0  0  0  0  0  0  0  0
    0.9179    0.3745    0.0000 C   0  0  0  0  0  0  0  0  0  0  0  0
    3.0377    0.4538    0.0000 C   0  0  0  0  0  0  0  0  0  0  0  0
    2.9584    2.5737    0.0000 C   0  0  0  0  0  0  0  0  0  0  0  0
   -0.8184    0.5690    0.0000 C   0  0  0  0  0  0  0  0  0  0  0  0
   -2.1174   -0.1810    0.0000 C   0  0  0  0  0  0  0  0  0  0  0  0
   -1.6151    3.1518    0.0000 C   0  0  0  0  0  0  0  0  0  0  0  0
    0.8386    2.4944    0.0000 C   0  0  0  0  0  0  0  0  0  0  0  0
   -0.5948    2.0522    0.0000 C   0  0  0  0  0  0  0  0  0  0  0  0
   -3.9559    1.8003    0.0000 C   0  0  0  0  0  0  0  0  0  0  0  0
   -3.5137    0.3670    0.0000 C   0  0  0  0  0  0  0  0  0  0  0  0
   -3.1109    3.0397    0.0000 C   0  0  0  0  0  0  0  0  0  0  0  0
   -5.4391    2.0239    0.0000 O   0  0  0  0  0  0  0  0  0  0  0  0
    1.9381    1.4741    0.0000 Si  0  0  0  0  0  4  0  0  0  0  0  0
  9  8  1  0
 12  8  2  0
 12 10  1  0
 12 11  1  0
 14  1  1  0
 14  2  1  0
 14  9  1  0
 14 13  1  0
 15  3  1  0
 15  4  1  0
 15 10  1  0
 15 13  1  0
 16 13  2  0
 17  5  1  0
 17  6  1  0
 17  7  1  0
 17 11  1  0
M  END
>  <NAME>  (5153) 
2,2,7,7-TETRAMETHYL-4-(TRIMETHYLSILYLMETHYL)CYCLOHEPT-4-ENONE

>  <SYNONYMS>  (5153) 


>  <SPECTRUM TYPE>  (5153) 
MS1

>  <INSTRUMENT TYPE>  (5153) 
EI-B

>  <INSTRUMENT>  (5153) 
JEOL JMS-D-3000

>  <ION MODE>  (5153) 
P

>  <INCHIKEY>  (5153) 
IFNYFGDYSCEBQD-UHFFFAOYSA-N

>  <FORMULA>  (5153) 
C15H28OSi

>  <EXACT MASS>  (5153) 
252.190942046

>  <MW>  (5153) 
252

>  <ID>  (5153) 
JP001969

>  <CONTRIBUTOR>  (5153) 
University of Tokyo Team, {Faculty of Engineering, University of Tokyo

>  <COMMENT>  (5153) 
SMILES=C[Si](C)(C)CC(=C1)CC(C)(C)C(=O)C(C)(C)C1
InChI=InChI=1S/C15H28OSi/c1-14(2)9-8-12(11-17(5,6)7)10-15(3,4)13(14)16/h8H,9-11H2,1-7H3
computed SMILES=O=C1C(C)(C)CC=C(CC1(C)C)C[Si](C)(C)C
accession=JP001969
date=2016.01.19 (Created 2008.10.21, modified 2011.05.06)
author=MASS SPECTROSCOPY SOC. OF JAPAN (MSSJ)
license=CC BY-NC-SA
exact mass=252.19094
ionization energy=70 eV
ion type=[M]+*
computed spectral entropy=2.6102527327596494
computed normalized entropy=0.7674511179013158
SPLASH=splash10-00di-9310000000-10162daf36dcf2e2b3ef
submitter=submitter = University of Tokyo Team (Faculty of Engineering, University of Tokyo)
MoNA Rating=3.75

>  <NUM PEAKS>  (5153) 
30

>  <MASS SPECTRAL PEAKS>  (5153) 
42 5.26
43 2.23
45 8.47
55 3.23
59 5.84
67 4.05
73 99.99
74 8.85
75 12.63
79 1.98
91 2.14
93 3.32
95 28.12
96 2.46
107 2.36
144 2.39
147 2.55
158 14.87
159 2.12
168 5.26
169 2.23
181 9.19
185 19.82
186 3.36
196 3.49
209 2.13
237 9.61
238 2.04
252 13.79
253 2.99

>  <PREDICTED SPECTRUM>  (5153) 
27 5
39 47
41 137
42 23
43 190
44 9
45 224
47 4
53 80
55 118
59 272
65 30
67 133
69 76
70 45
71 23
73 999
74 249
75 247
77 37
78 15
79 139
80 6
81 60
83 76
91 118
92 10
93 119
94 72
95 289
96 35
97 21
99 19
105 38
107 38
108 4
109 36
111 69
112 108
113 16
115 22
119 65
120 18
121 11
139 106
140 27
147 42
153 28
154 1
155 59
157 12
168 14
169 116
170 131
171 66
181 73
183 28
184 42
185 188
196 57
197 22
209 25
224 37
237 217
238 62
252 295
253 131
254 33

$$$$

     RDKit          2D

 15 15  0  0  0  0  0  0  0  0999 V2000
    2.9001    3.4974    0.0000 C   0  0  0  0  0  0  0  0  0  0  0  0
    1.0656    4.3132    0.0000 C   0  0  0  0  0  0  0  0  0  0  0  0
    0.5349   -0.8223    0.0000 C   0  0  0  0  0  0  0  0  0  0  0  0
    2.4950   -0.4006    0.0000 C   0  0  0  0  0  0  0  0  0  0  0  0
   -1.9436    2.3814    0.0000 C   0  0  0  0  0  0  0  0  0  0  0  0
   -3.9926    1.8324    0.0000 C   0  0  0  0  0  0  0  0  0  0  0  0
   -3.4436   -0.2167    0.0000 C   0  0  0  0  0  0  0  0  0  0  0  0
    0.0702    2.5752    0.0000 C   0  0  0  0  0  0  0  0  0  0  0  0
   -1.3946    0.3324    0.0000 C   0  0  0  0  0  0  0  0  0  0  0  0
   -0.0955    1.0824    0.0000 C   0  0  0  0  0  0  0  0  0  0  0  0
    2.2800    1.5878    0.0000 C   0  0  0  0  0  0  0  0  0  0  0  0
    1.5300    2.8869    0.0000 C   0  0  0  0  0  0  0  0  0  0  0  0
    1.2802    0.4795    0.0000 C   0  0  0  0  0  0  0  0  0  0  0  0
    3.7717    1.4304    0.0000 O   0  0  0  0  0  0  0  0  0  0  0  0
   -2.6936    1.0824    0.0000 Si  0  0  0  0  0  4  0  0  0  0  0  0
 10  8  1  0
 10  9  1  0
 12  1  1  0
 12  2  1  0
 12  8  1  0
 12 11  1  0
 13  3  1  0
 13  4  1  0
 13 10  1  0
 13 11  1  0
 14 11  2  0
 15  5  1  0
 15  6  1  0
 15  7  1  0
 15  9  1  0
M  END
>  <NAME>  (5154) 
2,2,5,5-TETRAMETHYL-3-(TRIMETHYLSILYLMETHYL)CYCLOPENTANONE

>  <SYNONYMS>  (5154) 


>  <SPECTRUM TYPE>  (5154) 
MS1

>  <INSTRUMENT TYPE>  (5154) 
EI-B

>  <INSTRUMENT>  (5154) 
JEOL JMS-D-3000

>  <ION MODE>  (5154) 
P

>  <INCHIKEY>  (5154) 
QQGIKIMSAOMDCY-UHFFFAOYSA-N

>  <FORMULA>  (5154) 
C13H26OSi

>  <EXACT MASS>  (5154) 
226.175291982

>  <MW>  (5154) 
226

>  <ID>  (5154) 
JP001968

>  <CONTRIBUTOR>  (5154) 
University of Tokyo Team, {Faculty of Engineering, University of Tokyo

>  <COMMENT>  (5154) 
SMILES=C[Si](C)(C)CC(C1)C(C)(C)C(=O)C(C)(C)1
InChI=InChI=1S/C13H26OSi/c1-12(2)8-10(9-15(5,6)7)13(3,4)11(12)14/h10H,8-9H2,1-7H3
computed SMILES=O=C1C(C)(C)CC(C[Si](C)(C)C)C1(C)C
accession=JP001968
date=2016.01.19 (Created 2008.10.21, modified 2011.05.06)
author=MASS SPECTROSCOPY SOC. OF JAPAN (MSSJ)
license=CC BY-NC-SA
exact mass=226.17529
ionization energy=70 eV
ion type=[M]+*
computed spectral entropy=2.552766180544388
computed normalized entropy=0.7660892879621504
SPLASH=splash10-00ba-9330000000-dc8af67582eff6b34d19
submitter=submitter = University of Tokyo Team (Faculty of Engineering, University of Tokyo)
MoNA Rating=3.75

>  <NUM PEAKS>  (5154) 
28

>  <MASS SPECTRAL PEAKS>  (5154) 
41 7.99
43 2.28
45 7.41
55 5.05
59 8.37
67 4.31
69 3.16
72 2.63
73 99.99
74 8.89
75 16.52
83 9.27
84 2.41
95 69.92
96 5.72
113 3.5
121 3.14
142 4.07
155 7.88
156 6.96
170 2.94
185 53.04
186 9.21
187 2.68
211 8.4
226 80.98
227 15.89
228 4.31

>  <PREDICTED SPECTRUM>  (5154) 
41 40
42 50
43 238
44 59
45 147
53 50
55 178
57 131
59 381
61 27
67 147
68 68
69 168
70 97
71 109
72 26
73 999
74 239
75 357
76 8
81 61
82 10
83 186
85 117
86 28
87 62
91 26
93 80
95 565
96 143
97 85
99 36
100 8
109 81
111 69
113 267
115 120
117 53
121 73
127 27
128 27
129 140
130 4
135 1
141 127
142 90
143 125
144 80
155 75
156 84
157 15
169 76
170 61
171 43
183 158
184 118
185 619
186 316
187 49
211 312
212 103
226 816
227 383
228 220
229 33

$$$$

     RDKit          2D

 15 14  0  0  0  0  0  0  0  0999 V2000
    2.2308    4.1851    0.0000 C   0  0  0  0  0  0  0  0  0  0  0  0
   -4.2643    1.9351    0.0000 C   0  0  0  0  0  0  0  0  0  0  0  0
   -1.6663    1.9351    0.0000 C   0  0  0  0  0  0  0  0  0  0  0  0
   -0.7021    6.0842    0.0000 C   0  0  0  0  0  0  0  0  0  0  0  0
   -2.6305    6.0842    0.0000 C   0  0  0  0  0  0  0  0  0  0  0  0
   -6.3134    5.4841    0.0000 C   0  0  0  0  0  0  0  0  0  0  0  0
   -6.8624    3.4351    0.0000 C   0  0  0  0  0  0  0  0  0  0  0  0
   -4.8134    2.8861    0.0000 C   0  0  0  0  0  0  0  0  0  0  0  0
    0.9318    4.9351    0.0000 C   0  0  0  0  0  0  0  0  0  0  0  0
   -0.3672    4.1851    0.0000 C   0  0  0  0  0  0  0  0  0  0  0  0
   -2.9653    2.6851    0.0000 C   0  0  0  0  0  0  0  0  0  0  0  0
   -2.9653    4.1851    0.0000 C   0  0  0  0  0  0  0  0  0  0  0  0
   -1.6663    4.9351    0.0000 C   0  0  0  0  0  0  0  0  0  0  0  0
   -4.2643    4.9351    0.0000 O   0  0  0  0  0  0  0  0  0  0  0  0
   -5.5634    4.1851    0.0000 Si  0  0  0  0  0  4  0  0  0  0  0  0
  9  1  2  0
 10  9  1  0
 11  2  1  0
 11  3  1  0
 12 11  2  0
 13  4  1  0
 13  5  1  0
 13 10  1  0
 13 12  1  0
 14 12  1  0
 15  6  1  0
 15  7  1  0
 15  8  1  0
 15 14  1  0
M  END
>  <NAME>  (5155) 
2,4,4-TRIMETHYL-3-TRIMETHYLSILOXYHEPTA-2,6-DIENE

>  <SYNONYMS>  (5155) 


>  <SPECTRUM TYPE>  (5155) 
MS1

>  <INSTRUMENT TYPE>  (5155) 
EI-B

>  <INSTRUMENT>  (5155) 
JEOL JMS-D-3000

>  <ION MODE>  (5155) 
P

>  <INCHIKEY>  (5155) 
HEERNIKATQJDAJ-UHFFFAOYSA-N

>  <FORMULA>  (5155) 
C13H26OSi

>  <EXACT MASS>  (5155) 
226.175291982

>  <MW>  (5155) 
226

>  <ID>  (5155) 
JP001967

>  <CONTRIBUTOR>  (5155) 
University of Tokyo Team, {Faculty of Engineering, University of Tokyo

>  <COMMENT>  (5155) 
SMILES=C=CCC(C)(C)C(=C(C)C)O[Si](C)(C)C
InChI=InChI=1S/C13H26OSi/c1-9-10-13(4,5)12(11(2)3)14-15(6,7)8/h9H,1,10H2,2-8H3
computed SMILES=O(C(=C(C)C)C(C)(C)CC=C)[Si](C)(C)C
accession=JP001967
date=2016.01.19 (Created 2008.10.21, modified 2011.05.06)
author=MASS SPECTROSCOPY SOC. OF JAPAN (MSSJ)
license=CC BY-NC-SA
exact mass=226.17529
ionization energy=70 eV
ion type=[M]+*
computed spectral entropy=2.3285152849795967
computed normalized entropy=0.7772774975706223
SPLASH=splash10-0072-9300000000-c36942d8439c8292dc64
submitter=submitter = University of Tokyo Team (Faculty of Engineering, University of Tokyo)
MoNA Rating=3.75

>  <NUM PEAKS>  (5155) 
20

>  <MASS SPECTRAL PEAKS>  (5155) 
41 7.11
45 6.68
55 6.65
67 9.89
73 59.23
74 5.18
75 21.15
83 2.98
93 3.44
95 99.99
96 8.01
156 15.66
157 3.09
170 5.1
185 57.07
186 9.92
187 2.78
211 9.63
226 12
227 2.51

>  <PREDICTED SPECTRUM>  (5155) 
15 19
26 41
27 176
28 90
29 183
30 30
31 88
37 16
38 55
39 250
40 106
41 357
42 121
43 358
44 138
45 333
46 57
47 148
49 10
50 51
51 145
52 118
53 201
54 100
55 252
56 77
57 137
58 82
59 321
60 60
61 154
62 9
63 43
64 16
65 158
66 136
67 208
68 103
69 145
70 63
71 70
72 101
73 999
74 247
75 546
76 166
77 252
78 158
79 253
80 164
81 194
82 85
83 138
84 33
85 83
86 27
87 22
89 79
91 242
92 139
93 313
94 205
95 231
96 94
97 20
99 84
101 67
102 29
103 117
104 81
105 145
106 51
107 206
108 91
109 129
110 56
111 71
113 69
114 12
115 150
116 53
117 39
119 103
120 3
121 207
122 101
123 41
125 83
126 16
127 176
128 109
129 93
130 34
131 15
135 119
136 104
137 60
139 29
140 7
141 168
142 134
143 165
144 45
149 10
151 18
152 14
153 41
154 29
155 185
156 131
157 133
158 90
167 76
168 17
169 182
170 132
171 82
181 47
183 190
184 156
185 124
186 6
197 31
198 55
199 37
211 259
212 102
213 37
226 157
227 57
228 7

$$$$

     RDKit          2D

 13 12  0  0  0  0  0  0  0  0999 V2000
    2.2308    4.1851    0.0000 C   0  0  0  0  0  0  0  0  0  0  0  0
   -2.9653    2.6851    0.0000 C   0  0  0  0  0  0  0  0  0  0  0  0
   -0.7021    6.0842    0.0000 C   0  0  0  0  0  0  0  0  0  0  0  0
   -2.6305    6.0842    0.0000 C   0  0  0  0  0  0  0  0  0  0  0  0
   -6.3134    5.4841    0.0000 C   0  0  0  0  0  0  0  0  0  0  0  0
   -6.8624    3.4351    0.0000 C   0  0  0  0  0  0  0  0  0  0  0  0
   -4.8134    2.8861    0.0000 C   0  0  0  0  0  0  0  0  0  0  0  0
    0.9318    4.9351    0.0000 C   0  0  0  0  0  0  0  0  0  0  0  0
   -0.3672    4.1851    0.0000 C   0  0  0  0  0  0  0  0  0  0  0  0
   -2.9653    4.1851    0.0000 C   0  0  0  0  0  0  0  0  0  0  0  0
   -1.6663    4.9351    0.0000 C   0  0  0  0  0  0  0  0  0  0  0  0
   -4.2643    4.9351    0.0000 O   0  0  0  0  0  0  0  0  0  0  0  0
   -5.5634    4.1851    0.0000 Si  0  0  0  0  0  4  0  0  0  0  0  0
  8  1  2  0
  9  8  1  0
 10  2  2  0
 11  3  1  0
 11  4  1  0
 11  9  1  0
 11 10  1  0
 12 10  1  0
 13  5  1  0
 13  6  1  0
 13  7  1  0
 13 12  1  0
M  END
>  <NAME>  (5156) 
3,3-DIMETHYL-2-TRIMETHYLSILOXYHEXA-1,5-DIENE

>  <SYNONYMS>  (5156) 


>  <SPECTRUM TYPE>  (5156) 
MS1

>  <INSTRUMENT TYPE>  (5156) 
EI-B

>  <INSTRUMENT>  (5156) 
JEOL JMS-D-3000

>  <ION MODE>  (5156) 
P

>  <INCHIKEY>  (5156) 
SEIFSZWKKUPJQW-UHFFFAOYSA-N

>  <FORMULA>  (5156) 
C11H22OSi

>  <EXACT MASS>  (5156) 
198.14399185399998

>  <MW>  (5156) 
198

>  <ID>  (5156) 
JP001966

>  <CONTRIBUTOR>  (5156) 
University of Tokyo Team, {Faculty of Engineering, University of Tokyo

>  <COMMENT>  (5156) 
SMILES=C=CCC(C)(C)C(=C)O[Si](C)(C)C
InChI=InChI=1S/C11H22OSi/c1-8-9-11(3,4)10(2)12-13(5,6)7/h8H,1-2,9H2,3-7H3
computed SMILES=O(C(=C)C(C)(C)CC=C)[Si](C)(C)C
accession=JP001966
date=2016.01.19 (Created 2008.10.21, modified 2011.05.06)
author=MASS SPECTROSCOPY SOC. OF JAPAN (MSSJ)
license=CC BY-NC-SA
exact mass=198.14399
ionization energy=70 eV
ion type=[M]+*
computed spectral entropy=2.697978091518165
computed normalized entropy=0.7932436106368137
SPLASH=splash10-006x-9300000000-5d54a6de13cbb39c3d8e
submitter=submitter = University of Tokyo Team (Faculty of Engineering, University of Tokyo)
MoNA Rating=3.75

>  <NUM PEAKS>  (5156) 
30

>  <MASS SPECTRAL PEAKS>  (5156) 
43 6.17
45 10.55
47 4.02
55 5.19
59 3.88
61 4.02
67 51.42
68 3.23
73 99.99
74 9.13
75 53.21
76 4.02
77 3.67
91 96.05
92 8.17
93 6.88
99 3.88
127 5.61
130 5.69
141 11.19
142 4.29
143 3.21
155 10.21
156 3.15
157 26.43
158 4.35
183 33.75
184 5.42
198 32.78
199 5.79

>  <PREDICTED SPECTRUM>  (5156) 
26 3
27 85
28 3
29 101
31 41
37 14
38 61
39 286
40 126
41 447
42 154
43 324
44 124
45 402
46 77
47 276
48 24
49 23
50 55
51 143
52 106
53 193
54 64
55 277
56 73
57 139
58 126
59 204
60 66
61 218
62 36
63 82
64 44
65 170
66 133
67 206
68 60
69 233
70 54
71 106
72 68
73 999
74 244
75 832
76 220
77 250
78 83
79 222
80 135
81 181
82 59
83 180
85 116
86 13
89 24
91 116
92 37
93 178
94 11
95 5
97 89
99 155
101 42
103 27
107 133
108 211
109 49
111 44
113 95
115 181
116 75
125 71
127 102
128 56
129 120
130 99
131 53
132 65
137 22
139 92
141 212
142 133
143 134
144 3
153 63
155 175
156 113
157 259
158 59
167 25
168 23
169 24
171 8
183 440
184 143
185 25
198 245
199 73
200 6

$$$$

     RDKit          2D

 13 12  0  0  0  0  0  0  0  0999 V2000
    2.1863    4.2623    0.0000 C   0  0  0  0  0  0  0  0  0  0  0  0
   -4.3089    2.0123    0.0000 C   0  0  0  0  0  0  0  0  0  0  0  0
   -1.7108    2.0123    0.0000 C   0  0  0  0  0  0  0  0  0  0  0  0
   -6.3579    5.5613    0.0000 C   0  0  0  0  0  0  0  0  0  0  0  0
   -6.9070    3.5123    0.0000 C   0  0  0  0  0  0  0  0  0  0  0  0
   -4.8579    2.9632    0.0000 C   0  0  0  0  0  0  0  0  0  0  0  0
    0.8873    5.0123    0.0000 C   0  0  0  0  0  0  0  0  0  0  0  0
   -0.4118    4.2623    0.0000 C   0  0  0  0  0  0  0  0  0  0  0  0
   -1.7108    5.0123    0.0000 C   0  0  0  0  0  0  0  0  0  0  0  0
   -3.0099    2.7623    0.0000 C   0  0  0  0  0  0  0  0  0  0  0  0
   -3.0099    4.2623    0.0000 C   0  0  0  0  0  0  0  0  0  0  0  0
   -4.3089    5.0123    0.0000 O   0  0  0  0  0  0  0  0  0  0  0  0
   -5.6079    4.2623    0.0000 Si  0  0  0  0  0  4  0  0  0  0  0  0
  7  1  1  0
  8  7  1  0
  8  9  2  0
 10  2  1  0
 10  3  1  0
 11  9  1  0
 11 10  2  0
 12 11  1  0
 13  4  1  0
 13  5  1  0
 13  6  1  0
 13 12  1  0
M  END
>  <NAME>  (5157) 
2-METHYL-3-TRIMETHYLSILOXYHEPTA-2,6-DIENE

>  <SYNONYMS>  (5157) 


>  <SPECTRUM TYPE>  (5157) 
MS1

>  <INSTRUMENT TYPE>  (5157) 
EI-B

>  <INSTRUMENT>  (5157) 
JEOL JMS-D-3000

>  <ION MODE>  (5157) 
P

>  <INCHIKEY>  (5157) 
XMLUNFLKLCCWQP-CMDGGOBGSA-N

>  <FORMULA>  (5157) 
C11H22OSi

>  <EXACT MASS>  (5157) 
198.143991854

>  <MW>  (5157) 
198

>  <ID>  (5157) 
JP001965

>  <CONTRIBUTOR>  (5157) 
University of Tokyo Team, {Faculty of Engineering, University of Tokyo

>  <COMMENT>  (5157) 
SMILES=CCC=CC(=C(C)C)O[Si](C)(C)C
InChI=InChI=1S/C11H22OSi/c1-7-8-9-11(10(2)3)12-13(4,5)6/h8-9H,7H2,1-6H3/b9-8+
computed SMILES=O(C(C=CCC)=C(C)C)[Si](C)(C)C
accession=JP001965
date=2016.01.19 (Created 2008.10.21, modified 2011.05.06)
author=MASS SPECTROSCOPY SOC. OF JAPAN (MSSJ)
license=CC BY-NC-SA
exact mass=198.14399
ionization energy=70 eV
ion type=[M]+*
computed spectral entropy=2.5850275006832755
computed normalized entropy=0.7934164842927166
SPLASH=splash10-006x-9300000000-6900503668d6fcf28ba0
submitter=submitter = University of Tokyo Team (Faculty of Engineering, University of Tokyo)
MoNA Rating=3.75

>  <NUM PEAKS>  (5157) 
26

>  <MASS SPECTRAL PEAKS>  (5157) 
43 4.22
45 12.37
47 3.58
55 3.34
59 5.55
61 3.85
67 50.26
73 99.99
74 9.01
75 54.69
76 4.21
77 3.4
91 99.33
92 9.06
93 6.45
127 5.52
130 4.82
141 10.18
142 3.59
155 11.41
157 21.1
158 3.59
183 29.09
184 4.96
198 42.1
199 7.5

>  <PREDICTED SPECTRUM>  (5157) 
15 8
26 52
27 170
28 46
29 114
31 45
38 14
39 172
40 69
41 201
42 82
43 284
44 74
45 332
46 64
47 181
49 22
50 23
51 105
52 48
53 194
54 108
55 225
56 58
57 67
58 84
59 315
60 75
61 182
62 12
63 39
64 9
65 157
66 93
67 222
68 105
69 129
70 18
71 64
72 256
73 999
74 269
75 762
76 212
77 161
78 30
79 235
80 158
81 150
82 152
83 95
85 144
86 49
89 94
91 109
92 79
93 386
94 59
95 58
96 39
97 122
98 45
99 149
100 7
101 17
106 30
107 143
108 410
109 24
111 56
112 4
113 165
115 184
116 67
117 87
125 91
126 39
127 118
129 136
130 175
131 77
139 170
140 62
141 231
142 94
143 88
144 48
153 86
154 37
155 342
156 209
157 47
167 3
169 233
170 83
171 9
183 470
184 140
185 71
198 255
199 87
200 19

$$$$

     RDKit          2D

 11 10  0  0  0  0  0  0  0  0999 V2000
    1.9931    3.2978    0.0000 C   0  0  0  0  0  0  0  0  0  0  0  0
   -5.8011    3.2978    0.0000 C   0  0  0  0  0  0  0  0  0  0  0  0
   -4.5021    5.5478    0.0000 C   0  0  0  0  0  0  0  0  0  0  0  0
   -0.9398    5.1969    0.0000 C   0  0  0  0  0  0  0  0  0  0  0  0
   -2.8682    5.1969    0.0000 C   0  0  0  0  0  0  0  0  0  0  0  0
    0.6941    4.0478    0.0000 C   0  0  0  0  0  0  0  0  0  0  0  0
   -0.6050    3.2978    0.0000 C   0  0  0  0  0  0  0  0  0  0  0  0
   -4.5021    4.0478    0.0000 C   0  0  0  0  0  0  0  0  0  0  0  0
   -3.2031    3.2978    0.0000 C   0  0  0  0  0  0  0  0  0  0  0  0
   -1.9040    4.0478    0.0000 C   0  0  0  0  0  0  0  0  0  0  0  0
   -3.2031    1.7978    0.0000 O   0  0  0  0  0  0  0  0  0  0  0  0
  6  1  2  0
  7  6  1  0
  8  2  1  0
  8  3  1  0
  9  8  1  0
 10  4  1  0
 10  5  1  0
 10  7  1  0
 10  9  1  0
 11  9  2  0
M  END
>  <NAME>  (5158) 
2,4,4-TRIMETHYLHEPT-6-EN-3-ONE

>  <SYNONYMS>  (5158) 


>  <SPECTRUM TYPE>  (5158) 
MS1

>  <INSTRUMENT TYPE>  (5158) 
EI-B

>  <INSTRUMENT>  (5158) 
JEOL JMS-D-3000

>  <ION MODE>  (5158) 
P

>  <INCHIKEY>  (5158) 
UCARIABCKZAQBN-UHFFFAOYSA-N

>  <FORMULA>  (5158) 
C10H18O

>  <EXACT MASS>  (5158) 
154.135765196

>  <MW>  (5158) 
154

>  <ID>  (5158) 
JP001964

>  <CONTRIBUTOR>  (5158) 
University of Tokyo Team, {Faculty of Engineering, University of Tokyo

>  <COMMENT>  (5158) 
SMILES=C=CCC(C)(C)C(=O)C(C)C
InChI=InChI=1S/C10H18O/c1-6-7-10(4,5)9(11)8(2)3/h6,8H,1,7H2,2-5H3
computed SMILES=O=C(C(C)C)C(C)(C)CC=C
accession=JP001964
date=2016.01.19 (Created 2008.10.21, modified 2011.05.06)
author=MASS SPECTROSCOPY SOC. OF JAPAN (MSSJ)
license=CC BY-NC-SA
exact mass=154.13577
ionization energy=70 eV
ion type=[M]+*
computed spectral entropy=2.459482295785477
computed normalized entropy=0.7640811356511966
SPLASH=splash10-053u-9100000000-fa87252b0987d90094be
submitter=submitter = University of Tokyo Team (Faculty of Engineering, University of Tokyo)
MoNA Rating=3.75

>  <NUM PEAKS>  (5158) 
25

>  <MASS SPECTRAL PEAKS>  (5158) 
41 31.76
42 4.14
43 55.63
53 2.68
55 77.99
56 4.38
65 1.89
67 9.56
69 4.1
70 5.25
71 52.78
72 2.96
73 3.71
75 1.97
82 22.28
83 99.99
84 7.26
111 32.91
112 2.56
117 1.77
118 1.77
131 5.72
139 1.89
154 24.89
155 2.92

>  <PREDICTED SPECTRUM>  (5158) 
14 8
15 12
25 6
26 61
27 295
28 103
29 221
38 45
39 335
40 134
41 641
42 228
43 999
44 188
50 35
51 156
52 104
53 224
54 75
55 642
56 303
57 541
58 39
63 36
64 3
65 167
66 37
67 194
68 69
69 252
70 78
71 612
77 61
78 35
79 111
80 4
81 140
82 73
83 595
84 204
85 167
93 57
95 119
96 119
97 186
98 178
99 134
109 40
110 104
111 911
112 325
113 95
139 105
154 235
155 67

$$$$

     RDKit          2D

 11 10  0  0  0  0  0  0  0  0999 V2000
    1.9040    3.4522    0.0000 C   0  0  0  0  0  0  0  0  0  0  0  0
   -0.6941    1.9522    0.0000 C   0  0  0  0  0  0  0  0  0  0  0  0
   -5.8902    3.4522    0.0000 C   0  0  0  0  0  0  0  0  0  0  0  0
   -4.2563    2.3031    0.0000 C   0  0  0  0  0  0  0  0  0  0  0  0
   -2.3280    2.3031    0.0000 C   0  0  0  0  0  0  0  0  0  0  0  0
    0.6050    4.2022    0.0000 C   0  0  0  0  0  0  0  0  0  0  0  0
   -1.9931    4.2022    0.0000 C   0  0  0  0  0  0  0  0  0  0  0  0
   -0.6941    3.4522    0.0000 C   0  0  0  0  0  0  0  0  0  0  0  0
   -4.5912    4.2022    0.0000 C   0  0  0  0  0  0  0  0  0  0  0  0
   -3.2921    3.4522    0.0000 C   0  0  0  0  0  0  0  0  0  0  0  0
   -4.5912    5.7022    0.0000 O   0  0  0  0  0  0  0  0  0  0  0  0
  6  1  2  0
  8  2  2  0
  8  6  1  0
  8  7  1  0
  9  3  1  0
 10  4  1  0
 10  5  1  0
 10  7  1  0
 10  9  1  0
 11  9  2  0
M  END
>  <NAME>  (5159) 
3,3-DIMETHYL-5-METHYLENEHEPT-6-EN-2-ONE

>  <SYNONYMS>  (5159) 


>  <SPECTRUM TYPE>  (5159) 
MS1

>  <INSTRUMENT TYPE>  (5159) 
EI-B

>  <INSTRUMENT>  (5159) 
JEOL JMS-D-3000

>  <ION MODE>  (5159) 
P

>  <INCHIKEY>  (5159) 
COQAKJCNHZRCGV-UHFFFAOYSA-N

>  <FORMULA>  (5159) 
C10H16O

>  <EXACT MASS>  (5159) 
152.120115132

>  <MW>  (5159) 
152

>  <ID>  (5159) 
JP001963

>  <CONTRIBUTOR>  (5159) 
University of Tokyo Team, {Faculty of Engineering, University of Tokyo

>  <COMMENT>  (5159) 
SMILES=C=CC(=C)CC(C)(C)C(C)=O
InChI=InChI=1S/C10H16O/c1-6-8(2)7-10(4,5)9(3)11/h6H,1-2,7H2,3-5H3
computed SMILES=O=C(C)C(C)(C)CC(=C)C=C
accession=JP001963
date=2016.01.19 (Created 2008.10.21, modified 2011.05.06)
author=MASS SPECTROSCOPY SOC. OF JAPAN (MSSJ)
license=CC BY-NC-SA
exact mass=152.12012
ionization energy=70 eV
ion type=[M]+*
computed spectral entropy=2.804376192774351
computed normalized entropy=0.8245261530231628
SPLASH=splash10-0aou-9400000000-f21aa3432e66e88e3c6b
submitter=submitter = University of Tokyo Team (Faculty of Engineering, University of Tokyo)
MoNA Rating=3.75

>  <NUM PEAKS>  (5159) 
30

>  <MASS SPECTRAL PEAKS>  (5159) 
42 30.6
43 47.69
44 3.6
51 4.59
52 2.44
53 17.85
55 26.06
56 2.11
57 5.56
65 6.73
67 86.09
68 9.43
69 7.92
77 8.07
79 12.47
81 26.21
91 10.2
93 9.09
94 6.61
95 6.15
105 2.36
107 5.6
108 2.15
109 99.99
110 9.74
119 12.78
123 2.44
134 10.7
137 7.86
152 17.87

>  <PREDICTED SPECTRUM>  (5159) 
26 29
27 247
28 32
29 163
38 48
39 378
40 139
41 620
42 93
43 937
44 76
50 108
51 249
52 124
53 388
54 162
55 441
56 157
57 251
58 1
62 11
63 119
64 49
65 286
66 158
67 655
68 199
69 347
70 75
71 83
75 14
76 9
77 334
78 74
79 366
80 183
81 489
82 151
83 45
84 4
91 492
92 189
93 247
94 144
95 357
96 82
97 92
103 20
105 103
107 138
108 127
109 999
110 311
111 70
119 195
123 48
124 24
134 179
135 1
137 290
138 79
152 269
153 73

$$$$

     RDKit          2D

 11 10  0  0  0  0  0  0  0  0999 V2000
   -7.4695    3.9375    0.0000 C   0  0  0  0  0  0  0  0  0  0  0  0
    1.6238    3.1875    0.0000 C   0  0  0  0  0  0  0  0  0  0  0  0
    0.3248    5.4375    0.0000 C   0  0  0  0  0  0  0  0  0  0  0  0
   -4.8714    5.4375    0.0000 C   0  0  0  0  0  0  0  0  0  0  0  0
   -6.1704    3.1875    0.0000 C   0  0  0  0  0  0  0  0  0  0  0  0
   -3.5724    3.1875    0.0000 C   0  0  0  0  0  0  0  0  0  0  0  0
   -2.2733    3.9375    0.0000 C   0  0  0  0  0  0  0  0  0  0  0  0
    0.3248    3.9375    0.0000 C   0  0  0  0  0  0  0  0  0  0  0  0
   -4.8714    3.9375    0.0000 C   0  0  0  0  0  0  0  0  0  0  0  0
   -0.9743    3.1875    0.0000 C   0  0  0  0  0  0  0  0  0  0  0  0
   -0.9743    1.6875    0.0000 O   0  0  0  0  0  0  0  0  0  0  0  0
  5  1  2  0
  7  6  1  0
  8  2  1  0
  8  3  1  0
  9  4  2  0
  9  5  1  0
  9  6  1  0
 10  7  1  0
 10  8  1  0
 11 10  2  0
M  END
>  <NAME>  (5160) 
2-METHYL-6-METHYLENEOCT-7-EN-3-ONE

>  <SYNONYMS>  (5160) 


>  <SPECTRUM TYPE>  (5160) 
MS1

>  <INSTRUMENT TYPE>  (5160) 
EI-B

>  <INSTRUMENT>  (5160) 
JEOL JMS-D-3000

>  <ION MODE>  (5160) 
P

>  <INCHIKEY>  (5160) 
IYFQOCPXUHQIMN-UHFFFAOYSA-N

>  <FORMULA>  (5160) 
C10H16O

>  <EXACT MASS>  (5160) 
152.120115132

>  <MW>  (5160) 
152

>  <ID>  (5160) 
JP001962

>  <CONTRIBUTOR>  (5160) 
University of Tokyo Team, {Faculty of Engineering, University of Tokyo

>  <COMMENT>  (5160) 
SMILES=C=CC(=C)CCC(=O)C(C)C
InChI=InChI=1S/C10H16O/c1-5-9(4)6-7-10(11)8(2)3/h5,8H,1,4,6-7H2,2-3H3
computed SMILES=O=C(CCC(=C)C=C)C(C)C
accession=JP001962
date=2016.01.19 (Created 2008.10.21, modified 2011.05.06)
author=MASS SPECTROSCOPY SOC. OF JAPAN (MSSJ)
license=CC BY-NC-SA
exact mass=152.12012
ionization energy=70 eV
ion type=[M]+*
computed spectral entropy=2.3398133115879878
computed normalized entropy=0.7462342936884112
SPLASH=splash10-007o-9000000000-9c0aa5527f62f7fc4e09
submitter=submitter = University of Tokyo Team (Faculty of Engineering, University of Tokyo)
MoNA Rating=3.75

>  <NUM PEAKS>  (5160) 
23

>  <MASS SPECTRAL PEAKS>  (5160) 
42 26.77
43 84.35
44 2.44
51 3.04
52 2.49
53 19.83
55 4.95
65 4.52
66 2.63
67 52.75
68 5.24
71 99.99
72 5.42
77 3.34
79 19.11
80 3.04
81 56.83
82 4.87
91 2
95 2
109 10.8
119 2.54
152 5.55

>  <PREDICTED SPECTRUM>  (5160) 
26 16
27 143
28 2
29 19
38 4
39 259
40 78
41 512
42 107
43 905
44 99
50 29
51 121
52 83
53 273
54 163
55 211
56 94
63 31
65 109
66 79
67 359
68 124
69 82
71 999
72 318
77 107
78 32
79 281
80 121
81 722
82 339
83 142
84 115
91 205
92 1
93 83
94 47
95 88
107 24
108 49
109 420
110 47
119 162
123 13
134 54
137 82
152 220
153 43

$$$$

     RDKit          2D

  9  8  0  0  0  0  0  0  0  0999 V2000
    1.6683    3.1103    0.0000 C   0  0  0  0  0  0  0  0  0  0  0  0
   -4.8268    3.8603    0.0000 C   0  0  0  0  0  0  0  0  0  0  0  0
   -1.2646    5.0094    0.0000 C   0  0  0  0  0  0  0  0  0  0  0  0
   -3.1930    5.0094    0.0000 C   0  0  0  0  0  0  0  0  0  0  0  0
    0.3693    3.8603    0.0000 C   0  0  0  0  0  0  0  0  0  0  0  0
   -0.9297    3.1103    0.0000 C   0  0  0  0  0  0  0  0  0  0  0  0
   -3.5278    3.1103    0.0000 C   0  0  0  0  0  0  0  0  0  0  0  0
   -2.2288    3.8603    0.0000 C   0  0  0  0  0  0  0  0  0  0  0  0
   -3.5278    1.6103    0.0000 O   0  0  0  0  0  0  0  0  0  0  0  0
  5  1  2  0
  6  5  1  0
  7  2  1  0
  8  3  1  0
  8  4  1  0
  8  6  1  0
  8  7  1  0
  9  7  2  0
M  END
>  <NAME>  (5161) 
3,3-DIMETHYLHEX-5-EN-2-ONE

>  <SYNONYMS>  (5161) 


>  <SPECTRUM TYPE>  (5161) 
MS1

>  <INSTRUMENT TYPE>  (5161) 
EI-B

>  <INSTRUMENT>  (5161) 
JEOL JMS-D-3000

>  <ION MODE>  (5161) 
P

>  <INCHIKEY>  (5161) 
AICKKCPBGSMRJG-UHFFFAOYSA-N

>  <FORMULA>  (5161) 
C8H14O

>  <EXACT MASS>  (5161) 
126.104465068

>  <MW>  (5161) 
126

>  <ID>  (5161) 
JP001961

>  <CONTRIBUTOR>  (5161) 
University of Tokyo Team, {Faculty of Engineering, University of Tokyo

>  <COMMENT>  (5161) 
SMILES=C=CCC(C)(C)C(C)=O
InChI=InChI=1S/C8H14O/c1-5-6-8(3,4)7(2)9/h5H,1,6H2,2-4H3
computed SMILES=O=C(C)C(C)(C)CC=C
accession=JP001961
date=2016.01.19 (Created 2008.10.21, modified 2011.05.06)
author=MASS SPECTROSCOPY SOC. OF JAPAN (MSSJ)
license=CC BY-NC-SA
exact mass=126.10447
ionization energy=70 eV
ion type=[M]+*
computed spectral entropy=2.0830052931882443
computed normalized entropy=0.6953242489580247
SPLASH=splash10-0a4i-9100000000-2e562c82393b7adc577b
submitter=submitter = University of Tokyo Team (Faculty of Engineering, University of Tokyo)
MoNA Rating=3.75

>  <NUM PEAKS>  (5161) 
20

>  <MASS SPECTRAL PEAKS>  (5161) 
41 3.04
43 47.63
53 2.78
55 99.99
56 5.13
57 3.81
65 1.46
67 8.58
68 1.43
69 3.04
71 2.55
81 1.57
82 8.72
83 47.14
84 3.47
85 1
93 3.7
108 10.59
111 10.24
126 7.09

>  <PREDICTED SPECTRUM>  (5161) 
26 2
27 150
29 15
38 1
39 290
40 88
41 593
42 125
43 956
44 55
50 40
51 149
52 55
53 289
54 102
55 781
56 62
57 154
65 115
66 27
67 326
68 98
69 177
79 103
81 57
82 130
83 999
84 346
85 49
93 77
111 113
126 69

$$$$

     RDKit          2D

  9  8  0  0  0  0  0  0  0  0999 V2000
    1.9486    3.3750    0.0000 C   0  0  0  0  0  0  0  0  0  0  0  0
   -5.8457    3.3750    0.0000 C   0  0  0  0  0  0  0  0  0  0  0  0
   -4.5466    5.6250    0.0000 C   0  0  0  0  0  0  0  0  0  0  0  0
    0.6495    4.1250    0.0000 C   0  0  0  0  0  0  0  0  0  0  0  0
   -0.6495    3.3750    0.0000 C   0  0  0  0  0  0  0  0  0  0  0  0
   -1.9486    4.1250    0.0000 C   0  0  0  0  0  0  0  0  0  0  0  0
   -4.5466    4.1250    0.0000 C   0  0  0  0  0  0  0  0  0  0  0  0
   -3.2476    3.3750    0.0000 C   0  0  0  0  0  0  0  0  0  0  0  0
   -3.2476    1.8750    0.0000 O   0  0  0  0  0  0  0  0  0  0  0  0
  4  1  2  0
  5  4  1  0
  6  5  1  0
  7  2  1  0
  7  3  1  0
  8  6  1  0
  8  7  1  0
  9  8  2  0
M  END
>  <NAME>  (5162) 
2-METHYLHEPT-6-EN-3-ONE

>  <SYNONYMS>  (5162) 


>  <SPECTRUM TYPE>  (5162) 
MS1

>  <INSTRUMENT TYPE>  (5162) 
EI-B

>  <INSTRUMENT>  (5162) 
JEOL JMS-D-3000

>  <ION MODE>  (5162) 
P

>  <INCHIKEY>  (5162) 
NJAYZISKWWQCJX-UHFFFAOYSA-N

>  <FORMULA>  (5162) 
C8H14O

>  <EXACT MASS>  (5162) 
126.104465068

>  <MW>  (5162) 
126

>  <ID>  (5162) 
JP001960

>  <CONTRIBUTOR>  (5162) 
University of Tokyo Team, {Faculty of Engineering, University of Tokyo

>  <COMMENT>  (5162) 
SMILES=C=CCCC(=O)C(C)C
InChI=InChI=1S/C8H14O/c1-4-5-6-8(9)7(2)3/h4,7H,1,5-6H2,2-3H3
computed SMILES=O=C(CCC=C)C(C)C
accession=JP001960
date=2016.01.19 (Created 2008.10.21, modified 2011.05.06)
author=MASS SPECTROSCOPY SOC. OF JAPAN (MSSJ)
license=CC BY-NC-SA
exact mass=126.10447
ionization energy=70 eV
ion type=[M]+*
computed spectral entropy=1.7979184947601656
computed normalized entropy=0.6484620240782601
SPLASH=splash10-0ab9-9000000000-44520ecf09e90d393b14
submitter=submitter = University of Tokyo Team (Faculty of Engineering, University of Tokyo)
MoNA Rating=3.75

>  <NUM PEAKS>  (5162) 
16

>  <MASS SPECTRAL PEAKS>  (5162) 
42 3.3
43 49.22
53 3.68
54 1.96
55 99.99
56 5.16
57 1.55
67 1.04
69 1.47
70 1.33
71 54.64
72 3.49
82 1.39
83 38.36
84 2.31
126 5.41

>  <PREDICTED SPECTRUM>  (5162) 
14 0
26 40
27 250
28 76
29 76
39 226
40 73
41 484
42 158
43 897
44 194
51 40
52 4
53 228
54 154
55 819
56 293
57 98
65 109
67 107
68 5
69 66
70 93
71 999
72 171
82 41
83 853
84 146
85 37
93 10
108 24
111 94
126 179

$$$$

     RDKit          2D

 25 25  0  0  0  0  0  0  0  0999 V2000
    1.5662   -3.0307    0.0000 C   0  0  0  0  0  0  0  0  0  0  0  0
    3.6152   -2.4817    0.0000 C   0  0  0  0  0  0  0  0  0  0  0  0
    3.0662   -0.4327    0.0000 C   0  0  0  0  0  0  0  0  0  0  0  0
    1.2183    3.2494    0.0000 C   0  0  0  0  0  0  0  0  0  0  0  0
   -0.2820    4.7491    0.0000 C   0  0  0  0  0  0  0  0  0  0  0  0
   -1.7817    3.2489    0.0000 C   0  0  0  0  0  0  0  0  0  0  0  0
   -3.6304   -0.4332    0.0000 C   0  0  0  0  0  0  0  0  0  0  0  0
   -4.1797   -2.4821    0.0000 C   0  0  0  0  0  0  0  0  0  0  0  0
   -2.1308   -3.0315    0.0000 C   0  0  0  0  0  0  0  0  0  0  0  0
   -5.7604    1.3373    0.0000 C   0  0  0  0  0  0  0  0  0  0  0  0
   -6.3094   -0.7117    0.0000 C   0  0  0  0  0  0  0  0  0  0  0  0
   -4.2604   -1.2607    0.0000 C   0  0  0  0  0  0  0  0  0  0  0  0
    1.0176    0.5191    0.0000 C   0  0  0  0  0  0  0  0  0  0  0  0
   -0.2824   -1.7325    0.0000 C   0  0  0  0  0  0  0  0  0  0  0  0
    1.0172   -0.9817    0.0000 C   0  0  0  0  0  0  0  0  0  0  0  0
   -0.2814    1.2691    0.0000 C   0  0  0  0  0  0  0  0  0  0  0  0
   -1.5814   -0.9825    0.0000 C   0  0  0  0  0  0  0  0  0  0  0  0
   -1.5809    0.5183    0.0000 C   0  0  0  0  0  0  0  0  0  0  0  0
    2.3162   -1.7317    0.0000 C   0  0  0  0  0  0  0  0  0  0  0  0
   -0.2817    3.2491    0.0000 C   0  0  0  0  0  0  0  0  0  0  0  0
   -2.8806   -1.7323    0.0000 C   0  0  0  0  0  0  0  0  0  0  0  0
   -5.0104    0.0383    0.0000 C   0  0  0  0  0  0  0  0  0  0  0  0
   -1.9158    2.4174    0.0000 F   0  0  0  0  0  0  0  0  0  0  0  0
   -3.8441    2.4174    0.0000 F   0  0  0  0  0  0  0  0  0  0  0  0
   -2.8800    1.2683    0.0000 Si  0  0  0  0  0  4  0  0  0  0  0  0
 15 13  2  0
 15 14  1  0
 16 13  1  0
 17 14  2  0
 18 16  2  0
 18 17  1  0
 19  1  1  0
 19  2  1  0
 19  3  1  0
 19 15  1  0
 20  4  1  0
 20  5  1  0
 20  6  1  0
 20 16  1  0
 21  7  1  0
 21  8  1  0
 21  9  1  0
 21 17  1  0
 22 10  1  0
 22 11  1  0
 22 12  1  0
 25 18  1  0
 25 22  1  0
 25 23  1  0
 25 24  1  0
M  END
>  <NAME>  (5163) 
2,4,6-TRI-TERT-BUTYL-1-TERT-BUTYLDIFLUOROSILYLBENZENE

>  <SYNONYMS>  (5163) 
TERT-BUTYLDIFLUORO-2,4,6-TRI-TERT-BUTYLPHENYLSILANE

>  <SPECTRUM TYPE>  (5163) 
MS1

>  <INSTRUMENT TYPE>  (5163) 
EI-B

>  <INSTRUMENT>  (5163) 
JEOL JMS-D-3000

>  <ION MODE>  (5163) 
P

>  <INCHIKEY>  (5163) 
QTOAVPZOPLUZID-UHFFFAOYSA-N

>  <FORMULA>  (5163) 
C22H38F2Si

>  <EXACT MASS>  (5163) 
368.271084186

>  <MW>  (5163) 
368

>  <ID>  (5163) 
JP001959

>  <CONTRIBUTOR>  (5163) 
University of Tokyo Team, {Faculty of Engineering, University of Tokyo

>  <COMMENT>  (5163) 
SMILES=CC(C)(C)c(c1)cc(C(C)(C)C)c(c1C(C)(C)C)[Si](F)(F)C(C)(C)C
InChI=InChI=1S/C22H38F2Si/c1-19(2,3)15-13-16(20(4,5)6)18(17(14-15)21(7,8)9)25(23,24)22(10,11)12/h13-14H,1-12H3
computed SMILES=F[Si](F)(C=1C(=CC(=CC1C(C)(C)C)C(C)(C)C)C(C)(C)C)C(C)(C)C
accession=JP001959
date=2016.01.19 (Created 2008.10.21, modified 2011.05.06)
author=MASS SPECTROSCOPY SOC. OF JAPAN (MSSJ)
license=CC BY-NC-SA
exact mass=368.27108
ionization energy=70 eV
ion type=[M]+*
computed spectral entropy=1.9281449005423723
computed normalized entropy=0.5726092977551418
SPLASH=splash10-0a4j-9071000000-8b6dd5b7b5881015a716
submitter=submitter = University of Tokyo Team (Faculty of Engineering, University of Tokyo)
MoNA Rating=3.75

>  <NUM PEAKS>  (5163) 
29

>  <MASS SPECTRAL PEAKS>  (5163) 
43 1.83
44 1.28
55 2.65
57 99.99
58 4.53
77 1.37
81 5.58
91 1.86
105 1.03
115 1.04
117 1.18
128 1.16
129 1.33
131 1.47
143 1.07
159 1.01
173 1.12
189 1.02
215 1.06
231 3.51
241 1.74
297 72.09
298 17.72
299 4.58
311 1.08
312 8.19
313 1.89
353 1.44
368 1.08

>  <PREDICTED SPECTRUM>  (5163) 
41 214
43 14
44 10
55 153
56 86
57 709
58 135
67 12
69 18
77 49
85 2
91 81
115 37
116 2
117 7
128 39
129 28
131 41
132 1
144 25
147 21
157 48
171 3
199 49
200 9
231 290
240 8
241 108
249 41
269 20
297 999
298 474
299 225
311 93
312 270
313 61
340 11
353 98
368 112

$$$$

     RDKit          2D

 22 22  0  0  0  0  0  0  0  0999 V2000
   -2.3677    3.2191    0.0000 C   0  0  0  0  0  0  0  0  0  0  0  0
   -4.4167    2.6701    0.0000 C   0  0  0  0  0  0  0  0  0  0  0  0
   -3.8677    0.6210    0.0000 C   0  0  0  0  0  0  0  0  0  0  0  0
   -2.0198   -2.5810    0.0000 C   0  0  0  0  0  0  0  0  0  0  0  0
   -0.5196   -4.0807    0.0000 C   0  0  0  0  0  0  0  0  0  0  0  0
    0.9802   -2.5805    0.0000 C   0  0  0  0  0  0  0  0  0  0  0  0
    3.2446    0.8615    0.0000 C   0  0  0  0  0  0  0  0  0  0  0  0
    3.7940    2.9104    0.0000 C   0  0  0  0  0  0  0  0  0  0  0  0
    1.7450    3.4598    0.0000 C   0  0  0  0  0  0  0  0  0  0  0  0
   -1.8191   -0.3307    0.0000 C   0  0  0  0  0  0  0  0  0  0  0  0
   -0.5191    1.9209    0.0000 C   0  0  0  0  0  0  0  0  0  0  0  0
   -1.8186    1.1701    0.0000 C   0  0  0  0  0  0  0  0  0  0  0  0
   -0.5201   -1.0807    0.0000 C   0  0  0  0  0  0  0  0  0  0  0  0
    0.7799    1.1709    0.0000 C   0  0  0  0  0  0  0  0  0  0  0  0
    0.7795   -0.3299    0.0000 C   0  0  0  0  0  0  0  0  0  0  0  0
   -3.1177    1.9201    0.0000 C   0  0  0  0  0  0  0  0  0  0  0  0
   -0.5198   -2.5807    0.0000 C   0  0  0  0  0  0  0  0  0  0  0  0
    2.4948    2.1606    0.0000 C   0  0  0  0  0  0  0  0  0  0  0  0
    1.7442   -2.6190    0.0000 F   0  0  0  0  0  0  0  0  0  0  0  0
    3.7932   -2.0699    0.0000 F   0  0  0  0  0  0  0  0  0  0  0  0
    3.2442   -0.0209    0.0000 F   0  0  0  0  0  0  0  0  0  0  0  0
    2.4942   -1.3199    0.0000 Si  0  0  0  0  0  4  0  0  0  0  0  0
 12 10  2  0
 12 11  1  0
 13 10  1  0
 14 11  2  0
 15 13  2  0
 15 14  1  0
 16  1  1  0
 16  2  1  0
 16  3  1  0
 16 12  1  0
 17  4  1  0
 17  5  1  0
 17  6  1  0
 17 13  1  0
 18  7  1  0
 18  8  1  0
 18  9  1  0
 18 14  1  0
 22 15  1  0
 22 19  1  0
 22 20  1  0
 22 21  1  0
M  END
>  <NAME>  (5164) 
2,4,6-TRI-TERT-BUTYL-1-TRIFLUOROSILYLBENZENE

>  <SYNONYMS>  (5164) 
TRIFLUORO-2,4,6-TRI-TERT-BUTYLPHENYLSILANE

>  <SPECTRUM TYPE>  (5164) 
MS1

>  <INSTRUMENT TYPE>  (5164) 
EI-B

>  <INSTRUMENT>  (5164) 
JEOL JMS-D-3000

>  <ION MODE>  (5164) 
P

>  <INCHIKEY>  (5164) 
ZVGWMROARPHAON-UHFFFAOYSA-N

>  <FORMULA>  (5164) 
C18H29F3Si

>  <EXACT MASS>  (5164) 
330.19906211800003

>  <MW>  (5164) 
330

>  <ID>  (5164) 
JP001958

>  <CONTRIBUTOR>  (5164) 
University of Tokyo Team, {Faculty of Engineering, University of Tokyo

>  <COMMENT>  (5164) 
SMILES=CC(C)(C)c(c1)cc(C(C)(C)C)c([Si](F)(F)F)c1C(C)(C)C
InChI=InChI=1S/C18H29F3Si/c1-16(2,3)12-10-13(17(4,5)6)15(22(19,20)21)14(11-12)18(7,8)9/h10-11H,1-9H3
computed SMILES=F[Si](F)(F)C=1C(=CC(=CC1C(C)(C)C)C(C)(C)C)C(C)(C)C
ion type=[M]+*
accession=JP001958
date=2016.01.19 (Created 2008.10.21, modified 2011.05.06)
author=MASS SPECTROSCOPY SOC. OF JAPAN (MSSJ)
license=CC BY-NC-SA
exact mass=330.19906
ionization energy=70 eV
computed spectral entropy=1.959908918850334
computed normalized entropy=0.5820423918198498
SPLASH=splash10-0a4i-9071000000-19270a9bfa5510eca865
submitter=submitter = University of Tokyo Team (Faculty of Engineering, University of Tokyo)
MoNA Rating=3.75

>  <NUM PEAKS>  (5164) 
29

>  <MASS SPECTRAL PEAKS>  (5164) 
42 1.03
43 3.13
44 1.21
53 1.06
55 3.76
57 99.99
58 4.47
59 1.04
77 1.35
91 2.22
105 1.13
115 1.58
128 1.47
129 1.31
141 1.02
142 1.03
143 2.78
199 1.43
231 2.48
243 1.09
259 74.57
260 14.68
261 4
274 4.81
275 1.1
315 5.52
316 1.32
330 5.7
331 1.5

>  <PREDICTED SPECTRUM>  (5164) 
29 26
39 56
41 210
42 9
43 33
51 50
53 20
55 116
56 70
57 636
58 88
65 30
66 32
67 34
69 22
77 140
78 58
79 47
91 120
92 5
93 53
94 3
102 22
105 79
106 3
115 110
117 18
119 64
120 2
128 80
129 83
130 8
131 24
143 15
160 2
162 22
203 60
211 72
212 24
231 184
259 999
260 409
261 200
274 81
275 68
302 9
315 234
316 51
330 228
331 23

$$$$

     RDKit          2D

 19 19  0  0  0  0  0  0  0  0999 V2000
    3.1483   -0.8995    0.0000 C   0  0  0  0  0  0  0  0  0  0  0  0
    5.1972   -0.3502    0.0000 C   0  0  0  0  0  0  0  0  0  0  0  0
    4.6479    1.6988    0.0000 C   0  0  0  0  0  0  0  0  0  0  0  0
   -3.1483    0.1980    0.0000 C   0  0  0  0  0  0  0  0  0  0  0  0
   -5.1972   -0.3514    0.0000 C   0  0  0  0  0  0  0  0  0  0  0  0
   -4.6479   -2.4004    0.0000 C   0  0  0  0  0  0  0  0  0  0  0  0
   -3.5629   -3.0002    0.0000 C   0  0  0  0  0  0  0  0  0  0  0  0
   -1.6346   -2.9999    0.0000 C   0  0  0  0  0  0  0  0  0  0  0  0
    1.3000   -1.1008    0.0000 C   0  0  0  0  0  0  0  0  0  0  0  0
    0.0000    1.1492    0.0000 C   0  0  0  0  0  0  0  0  0  0  0  0
   -0.0000   -1.8508    0.0000 C   0  0  0  0  0  0  0  0  0  0  0  0
   -1.3000    0.3992    0.0000 C   0  0  0  0  0  0  0  0  0  0  0  0
    1.3000    0.3992    0.0000 C   0  0  0  0  0  0  0  0  0  0  0  0
   -1.3000   -1.1008    0.0000 C   0  0  0  0  0  0  0  0  0  0  0  0
    2.5989    1.1494    0.0000 C   0  0  0  0  0  0  0  0  0  0  0  0
    2.5987    2.6494    0.0000 O   0  0  0  0  0  0  0  0  0  0  0  0
    3.8981    0.3996    0.0000 Si  0  0  0  0  0  4  0  0  0  0  0  0
   -3.8981   -1.1012    0.0000 Si  0  0  0  0  0  4  0  0  0  0  0  0
   -2.5989   -1.8510    0.0000 Si  0  0  0  0  0  4  0  0  0  0  0  0
 11  9  2  0
 12 10  1  0
 13  9  1  0
 13 10  2  0
 14 11  1  0
 14 12  2  0
 15 13  1  0
 16 15  1  0
 17  1  1  0
 17  2  1  0
 17  3  1  0
 17 15  1  0
 18  4  1  0
 18  5  1  0
 18  6  1  0
 19  7  1  0
 19  8  1  0
 19 14  1  0
 19 18  1  0
M  END
>  <NAME>  (5165) 
4-(PENTAMETHYLDISILANYL)PHENYLTRIMETHYLSILYLMETHANOL

>  <SYNONYMS>  (5165) 


>  <SPECTRUM TYPE>  (5165) 
MS1

>  <INSTRUMENT TYPE>  (5165) 
EI-B

>  <INSTRUMENT>  (5165) 
JEOL JMS-D-3000

>  <ION MODE>  (5165) 
P

>  <INCHIKEY>  (5165) 
BFRCFBRSQSVTJZ-UHFFFAOYSA-N

>  <FORMULA>  (5165) 
C15H30OSi3

>  <EXACT MASS>  (5165) 
310.16044517

>  <MW>  (5165) 
310

>  <ID>  (5165) 
JP001957

>  <CONTRIBUTOR>  (5165) 
University of Tokyo Team, {Faculty of Engineering, University of Tokyo

>  <COMMENT>  (5165) 
SMILES=C[Si](C)(C)C(O)c(c1)ccc(c1)[Si](C)(C)[Si](C)(C)C
InChI=InChI=1S/C15H30OSi3/c1-17(2,3)15(16)13-9-11-14(12-10-13)19(7,8)18(4,5)6/h9-12,15-16H,1-8H3
computed SMILES=OC(C1=CC=C(C=C1)[Si](C)(C)[Si](C)(C)C)[Si](C)(C)C
accession=JP001957
ionization energy=70 eV
date=2016.01.19 (Created 2008.10.21, modified 2011.05.06)
author=MASS SPECTROSCOPY SOC. OF JAPAN (MSSJ)
license=CC BY-NC-SA
exact mass=310.16045
ion type=[M]+*
computed spectral entropy=2.1807244324443937
computed normalized entropy=0.6544389534872016
SPLASH=splash10-05fr-6319000000-8a0e6195f5953c8c9b6b
submitter=submitter = University of Tokyo Team (Faculty of Engineering, University of Tokyo)
MoNA Rating=3.75

>  <NUM PEAKS>  (5165) 
28

>  <MASS SPECTRAL PEAKS>  (5165) 
59 1.18
73 99.99
74 8.67
75 5.09
131 6.81
132 1.14
133 3.27
145 1.2
147 13.06
148 2.47
149 1.55
161 1.39
163 2.94
177 1.23
193 12.53
194 2.52
195 1.22
207 1.76
219 1.29
221 6.09
222 1.44
236 5.67
237 1.56
309 99.38
310 31.85
311 15.21
312 3.29
313 0.81

>  <PREDICTED SPECTRUM>  (5165) 
31 5
33 8
39 62
40 7
43 33
44 34
45 321
46 24
47 9
51 34
57 23
59 273
60 5
61 3
63 59
73 999
74 267
75 188
77 140
78 7
79 23
89 61
90 19
91 28
101 3
103 37
105 46
109 7
115 55
117 33
118 0
119 19
121 2
131 227
132 29
133 113
134 66
135 94
147 279
148 223
149 203
150 62
161 51
162 5
163 80
164 27
176 10
177 101
191 35
192 4
193 165
194 48
195 41
206 3
207 127
208 38
209 67
219 23
221 187
222 154
235 26
236 102
237 158
238 2
295 44
296 16
308 79
309 991
310 519
311 302
312 130
313 18

$$$$

     RDKit          2D

 20 19  0  0  0  0  0  0  0  0999 V2000
    4.9624    1.1278    0.0000 C   0  0  0  0  0  0  0  0  0  0  0  0
    2.3643   -0.3722    0.0000 C   0  0  0  0  0  0  0  0  0  0  0  0
    4.4134   -0.9213    0.0000 C   0  0  0  0  0  0  0  0  0  0  0  0
    1.4824    4.5572    0.0000 C   0  0  0  0  0  0  0  0  0  0  0  0
   -0.5666    5.1063    0.0000 C   0  0  0  0  0  0  0  0  0  0  0  0
   -1.9470    2.5772    0.0000 C   0  0  0  0  0  0  0  0  0  0  0  0
   -2.5949    3.8497    0.0000 C   0  0  0  0  0  0  0  0  0  0  0  0
   -2.9989    0.5739    0.0000 C   0  0  0  0  0  0  0  0  0  0  0  0
   -1.2455   -0.8630    0.0000 C   0  0  0  0  0  0  0  0  0  0  0  0
   -0.3266    0.5925    0.0000 C   0  0  0  0  0  0  0  0  0  0  0  0
    1.1734   -0.9075    0.0000 C   0  0  0  0  0  0  0  0  0  0  0  0
    2.6734    0.5925    0.0000 C   0  0  0  0  0  0  0  0  0  0  0  0
    3.6634    0.3778    0.0000 C   0  0  0  0  0  0  0  0  0  0  0  0
    1.1734    2.0925    0.0000 C   0  0  0  0  0  0  0  0  0  0  0  0
    4.0829    2.6055    0.0000 F   0  0  0  0  0  0  0  0  0  0  0  0
    2.4129    3.5697    0.0000 F   0  0  0  0  0  0  0  0  0  0  0  0
    0.1834    3.8072    0.0000 Si  0  0  0  0  0  4  0  0  0  0  0  0
   -1.5893    1.0870    0.0000 Si  0  0  0  0  0  4  0  0  0  0  0  0
    1.1734    0.5925    0.0000 Si  0  0  0  0  0  4  0  0  0  0  0  0
    2.6734    2.0925    0.0000 Si  0  0  0  0  0  4  0  0  0  0  0  0
 13  1  1  0
 13  2  1  0
 13  3  1  0
 17  4  1  0
 17  5  1  0
 17  6  1  0
 17 14  1  0
 18  7  1  0
 18  8  1  0
 18  9  1  0
 18 14  1  0
 19 10  1  0
 19 11  1  0
 19 12  1  0
 19 14  1  0
 20 13  1  0
 20 14  1  0
 20 15  1  0
 20 16  1  0
M  END
>  <NAME>  (5166) 
TERT-BUTYLDIFLUOROTRIS(TRIMETHYLSILYL)METHYLSILANE

>  <SYNONYMS>  (5166) 
TERT-BUTYLDIFLUOROSILYLTRIS(TRIMETHYLSILYL)METHANE

>  <SPECTRUM TYPE>  (5166) 
MS1

>  <INSTRUMENT TYPE>  (5166) 
EI-B

>  <INSTRUMENT>  (5166) 
JEOL JMS-D-3000

>  <ION MODE>  (5166) 
P

>  <INCHIKEY>  (5166) 
ZDCXZZOUTBYJPB-UHFFFAOYSA-N

>  <FORMULA>  (5166) 
C14H36F2Si4

>  <EXACT MASS>  (5166) 
354.186213712

>  <MW>  (5166) 
354

>  <ID>  (5166) 
JP001956

>  <CONTRIBUTOR>  (5166) 
University of Tokyo Team, {Faculty of Engineering, University of Tokyo

>  <COMMENT>  (5166) 
SMILES=CC(C)(C)[Si](F)(F)C([Si](C)(C)C)([Si](C)(C)C)[Si](C)(C)C
InChI=InChI=1S/C14H36F2Si4/c1-13(2,3)20(15,16)14(17(4,5)6,18(7,8)9)19(10,11)12/h1-12H3
computed SMILES=F[Si](F)(C(C)(C)C)C([Si](C)(C)C)([Si](C)(C)C)[Si](C)(C)C
license=CC BY-NC-SA
accession=JP001956
date=2016.01.19 (Created 2008.10.21, modified 2011.05.06)
author=MASS SPECTROSCOPY SOC. OF JAPAN (MSSJ)
exact mass=354.18621
ionization energy=70 eV
ion type=[M]+*
computed spectral entropy=3.062451757028799
computed normalized entropy=0.7713417108136261
SPLASH=splash10-0a4i-3191000000-5a5e7e54ee548df03d70
submitter=submitter = University of Tokyo Team (Faculty of Engineering, University of Tokyo)
MoNA Rating=3.75

>  <NUM PEAKS>  (5166) 
53

>  <MASS SPECTRAL PEAKS>  (5166) 
43 2.21
44 2.24
45 7.35
57 3.05
59 9.53
73 52.73
74 4.44
75 1.97
77 3.69
83 2.42
85 1.79
97 3.27
99 1.39
103 1.03
113 4.28
115 1.27
117 1.27
127 3.09
129 3.02
131 7.29
132 1.15
133 1.73
141 1.98
155 2.59
175 2.33
185 1.35
189 7.48
190 1.72
191 3.67
193 1.57
195 1.03
201 2.62
205 99.99
206 26.41
207 14.76
208 2.68
209 14.43
210 3.79
211 2.32
247 5.27
248 1.46
262 3.07
281 1.49
283 3.58
284 1.07
297 36.48
298 11.62
299 7.28
300 1.51
339 31.68
340 11.29
341 6.28
342 1.46

>  <PREDICTED SPECTRUM>  (5166) 
29 63
31 24
41 88
43 86
45 136
51 53
53 13
57 162
58 8
59 282
60 4
63 26
66 4
69 48
71 21
73 866
74 191
75 190
77 97
78 47
79 21
83 97
85 113
86 1
87 26
91 28
95 9
97 55
98 25
99 180
100 55
101 39
103 83
104 22
105 66
113 75
115 130
116 31
117 78
118 34
127 27
128 24
129 152
130 168
131 260
132 85
133 163
134 35
135 65
141 22
143 2
145 3
147 63
148 3
149 77
150 21
151 65
153 9
155 29
161 25
167 118
169 76
170 29
171 62
172 29
173 80
175 121
176 69
177 95
185 151
189 171
190 69
191 174
193 111
195 90
198 77
200 18
201 2
203 67
205 999
206 573
207 517
208 198
209 321
210 43
211 80
219 15
220 27
221 31
223 72
231 92
232 11
241 53
247 219
248 131
249 78
250 46
251 86
255 7
262 9
266 5
267 6
280 2
283 196
284 23
297 596
298 393
299 333
300 49
339 766
340 448
341 278
342 133
354 26

$$$$

     RDKit          2D

 15 15  0  0  0  0  0  0  0  0999 V2000
   -4.8637    1.0953    0.0000 C   0  0  0  0  0  0  0  0  0  0  0  0
   -2.9353    1.6168    0.0000 C   0  0  0  0  0  0  0  0  0  0  0  0
    3.5252   -2.5929    0.0000 C   0  0  0  0  0  0  0  0  0  0  0  0
    4.0739   -0.5438    0.0000 C   0  0  0  0  0  0  0  0  0  0  0  0
    2.0248    0.0049    0.0000 C   0  0  0  0  0  0  0  0  0  0  0  0
   -1.1221   -2.0444    0.0000 C   0  0  0  0  0  0  0  0  0  0  0  0
    0.1764    0.2064    0.0000 C   0  0  0  0  0  0  0  0  0  0  0  0
   -2.4217   -1.2936    0.0000 C   0  0  0  0  0  0  0  0  0  0  0  0
   -1.1231    0.9573    0.0000 C   0  0  0  0  0  0  0  0  0  0  0  0
    1.4761   -2.0442    0.0000 C   0  0  0  0  0  0  0  0  0  0  0  0
   -3.8993   -0.0535    0.0000 C   0  0  0  0  0  0  0  0  0  0  0  0
    0.1769   -1.2944    0.0000 C   0  0  0  0  0  0  0  0  0  0  0  0
   -2.4221    0.2073    0.0000 C   0  0  0  0  0  0  0  0  0  0  0  0
   -4.4120   -1.4632    0.0000 O   0  0  0  0  0  0  0  0  0  0  0  0
    2.7750   -1.2940    0.0000 Si  0  0  0  0  0  4  0  0  0  0  0  0
  8  6  1  0
  9  7  1  0
 11  1  1  0
 12  6  2  0
 12  7  1  0
 12 10  1  0
 13  2  1  0
 13  8  1  0
 13  9  1  0
 13 11  1  0
 14 11  2  0
 15  3  1  0
 15  4  1  0
 15  5  1  0
 15 10  1  0
M  END
>  <NAME>  (5167) 
4-ACETYL-4-METHYL-1-TRIMETHYLSILYLMETHYLCYCLOHEXENE

>  <SYNONYMS>  (5167) 


>  <SPECTRUM TYPE>  (5167) 
MS1

>  <INSTRUMENT TYPE>  (5167) 
EI-B

>  <INSTRUMENT>  (5167) 
JEOL JMS-D-3000

>  <ION MODE>  (5167) 
P

>  <INCHIKEY>  (5167) 
YIDRDQNBNNKTAA-UHFFFAOYSA-N

>  <FORMULA>  (5167) 
C13H24OSi

>  <EXACT MASS>  (5167) 
224.159641918

>  <MW>  (5167) 
224

>  <ID>  (5167) 
JP001954

>  <CONTRIBUTOR>  (5167) 
University of Tokyo Team, {Faculty of Engineering, University of Tokyo

>  <COMMENT>  (5167) 
SMILES=CC(=O)C(C)(C1)CC=C(C1)C[Si](C)(C)C
InChI=InChI=1S/C13H24OSi/c1-11(14)13(2)8-6-12(7-9-13)10-15(3,4)5/h6H,7-10H2,1-5H3
computed SMILES=O=C(C)C1(C)CC=C(CC1)C[Si](C)(C)C
accession=JP001954
date=2016.01.19 (Created 2008.10.21, modified 2011.05.06)
author=MASS SPECTROSCOPY SOC. OF JAPAN (MSSJ)
license=CC BY-NC-SA
exact mass=224.15964
ionization energy=70 eV
ion type=[M]+*
computed spectral entropy=2.23320644046184
computed normalized entropy=0.6775840344213525
SPLASH=splash10-00di-9100000000-df002301b0f69f9255ae
submitter=submitter = University of Tokyo Team (Faculty of Engineering, University of Tokyo)
MoNA Rating=3.75

>  <NUM PEAKS>  (5167) 
27

>  <MASS SPECTRAL PEAKS>  (5167) 
41 3.72
43 11.77
44 2.26
45 11.43
59 7.75
67 1.84
72 1.36
73 99.99
74 8.62
75 11.64
77 1.96
79 1.96
91 4.16
93 1.57
97 1.36
107 2.05
119 2.17
125 1.51
134 2.32
151 2.07
157 5.01
158 7.21
159 2.26
168 1.51
209 2.85
224 6.23
225 1.24

>  <PREDICTED SPECTRUM>  (5167) 
41 60
42 13
43 327
44 45
45 229
51 7
53 64
55 101
59 90
65 35
67 108
69 55
73 999
74 236
75 308
76 18
77 91
78 41
79 121
81 11
82 4
83 68
84 46
85 25
91 269
92 41
93 120
95 88
97 18
99 4
105 183
106 90
107 55
109 22
119 43
127 33
128 5
129 63
134 141
135 20
136 44
148 1
150 39
151 97
157 92
167 43
168 80
181 162
182 41
209 132
210 3
224 250
225 103
226 32

$$$$

     RDKit          2D

 16 16  0  0  0  0  0  0  0  0999 V2000
   -3.8981   -0.7504    0.0000 C   0  0  0  0  0  0  0  0  0  0  0  0
    3.1483   -0.5487    0.0000 C   0  0  0  0  0  0  0  0  0  0  0  0
    5.1972    0.0006    0.0000 C   0  0  0  0  0  0  0  0  0  0  0  0
    4.6479    2.0496    0.0000 C   0  0  0  0  0  0  0  0  0  0  0  0
    3.5629    2.6494    0.0000 C   0  0  0  0  0  0  0  0  0  0  0  0
    1.6346    2.6491    0.0000 C   0  0  0  0  0  0  0  0  0  0  0  0
   -1.3000    0.7500    0.0000 C   0  0  0  0  0  0  0  0  0  0  0  0
   -0.0000   -1.5000    0.0000 C   0  0  0  0  0  0  0  0  0  0  0  0
    0.0000    1.5000    0.0000 C   0  0  0  0  0  0  0  0  0  0  0  0
    1.3000   -0.7500    0.0000 C   0  0  0  0  0  0  0  0  0  0  0  0
   -2.5989   -1.5002    0.0000 C   0  0  0  0  0  0  0  0  0  0  0  0
   -1.3000   -0.7500    0.0000 C   0  0  0  0  0  0  0  0  0  0  0  0
    1.3000    0.7500    0.0000 C   0  0  0  0  0  0  0  0  0  0  0  0
   -2.5987   -3.0002    0.0000 O   0  0  0  0  0  0  0  0  0  0  0  0
    3.8981    0.7504    0.0000 Si  0  0  0  0  0  4  0  0  0  0  0  0
    2.5989    1.5002    0.0000 Si  0  0  0  0  0  4  0  0  0  0  0  0
  9  7  2  0
 10  8  1  0
 11  1  1  0
 12  7  1  0
 12  8  2  0
 12 11  1  0
 13  9  1  0
 13 10  2  0
 14 11  2  0
 15  2  1  0
 15  3  1  0
 15  4  1  0
 16  5  1  0
 16  6  1  0
 16 13  1  0
 16 15  1  0
M  END
>  <NAME>  (5168) 
4-(PENTAMETHYLDISILANYL)ACETOPHENONE

>  <SYNONYMS>  (5168) 


>  <SPECTRUM TYPE>  (5168) 
MS1

>  <INSTRUMENT TYPE>  (5168) 
EI-B

>  <INSTRUMENT>  (5168) 
JEOL JMS-D-3000

>  <ION MODE>  (5168) 
P

>  <INCHIKEY>  (5168) 
RHZVIGVRZQHWGA-UHFFFAOYSA-N

>  <FORMULA>  (5168) 
C13H22OSi2

>  <EXACT MASS>  (5168) 
250.120918384

>  <MW>  (5168) 
250

>  <ID>  (5168) 
JP001953

>  <CONTRIBUTOR>  (5168) 
University of Tokyo Team, {Faculty of Engineering, University of Tokyo

>  <COMMENT>  (5168) 
SMILES=CC(=O)c(c1)ccc(c1)[Si](C)(C)[Si](C)(C)C
InChI=InChI=1S/C13H22OSi2/c1-11(14)12-7-9-13(10-8-12)16(5,6)15(2,3)4/h7-10H,1-6H3
computed SMILES=O=C(C1=CC=C(C=C1)[Si](C)(C)[Si](C)(C)C)C
accession=JP001953
date=2016.01.19 (Created 2008.10.21, modified 2011.05.06)
author=MASS SPECTROSCOPY SOC. OF JAPAN (MSSJ)
license=CC BY-NC-SA
exact mass=250.12092
ionization energy=70 eV
ion type=[M]+*
computed spectral entropy=2.475735698671679
computed normalized entropy=0.727901212678752
SPLASH=splash10-004i-3930000000-5990d7959a22041229c1
submitter=submitter = University of Tokyo Team (Faculty of Engineering, University of Tokyo)
MoNA Rating=3.75

>  <NUM PEAKS>  (5168) 
30

>  <MASS SPECTRAL PEAKS>  (5168) 
44 6.47
45 2.03
46 4.73
73 35.09
74 2.94
75 2.96
119 5.51
131 1.82
133 2.45
134 5.76
147 2.57
149 2.14
161 1.9
162 2.59
176 2.01
177 99.99
178 16.72
179 5.7
191 1.86
193 3.37
206 1.85
207 3.5
219 2.21
235 16.62
236 4.37
237 1.82
249 3.02
250 22.58
251 5.9
252 2.2

>  <PREDICTED SPECTRUM>  (5168) 
15 43
29 87
30 39
41 1
42 1
43 350
44 96
45 232
46 35
53 16
57 54
58 109
59 169
60 39
63 20
65 21
72 20
73 882
74 193
75 193
77 24
79 22
89 96
90 14
91 65
93 16
100 70
103 32
105 38
117 47
118 45
119 225
120 68
121 136
131 97
132 53
133 65
134 82
135 55
147 214
148 69
149 139
150 2
151 44
161 212
162 181
163 108
177 999
178 446
179 269
193 841
194 136
207 150
208 74
235 501
236 263
237 72
249 79
250 465
251 237
252 122
253 12

$$$$

     RDKit          2D

 16 16  0  0  0  0  0  0  0  0999 V2000
   -6.4962   -0.7508    0.0000 C   0  0  0  0  0  0  0  0  0  0  0  0
   -5.1968   -3.0006    0.0000 C   0  0  0  0  0  0  0  0  0  0  0  0
    3.1483   -0.5487    0.0000 C   0  0  0  0  0  0  0  0  0  0  0  0
    5.1972    0.0006    0.0000 C   0  0  0  0  0  0  0  0  0  0  0  0
    4.6479    2.0496    0.0000 C   0  0  0  0  0  0  0  0  0  0  0  0
   -1.3000    0.7500    0.0000 C   0  0  0  0  0  0  0  0  0  0  0  0
   -0.0000   -1.5000    0.0000 C   0  0  0  0  0  0  0  0  0  0  0  0
    0.0000    1.5000    0.0000 C   0  0  0  0  0  0  0  0  0  0  0  0
    1.3000   -0.7500    0.0000 C   0  0  0  0  0  0  0  0  0  0  0  0
   -2.5989   -1.5002    0.0000 C   0  0  0  0  0  0  0  0  0  0  0  0
    2.5989    1.5002    0.0000 C   0  0  0  0  0  0  0  0  0  0  0  0
   -1.3000   -0.7500    0.0000 C   0  0  0  0  0  0  0  0  0  0  0  0
    1.3000    0.7500    0.0000 C   0  0  0  0  0  0  0  0  0  0  0  0
   -3.8981   -0.7504    0.0000 N   0  0  0  0  0  0  0  0  0  0  0  0
   -5.1970   -1.5006    0.0000 N   0  0  0  0  0  0  0  0  0  0  0  0
    3.8981    0.7504    0.0000 Si  0  0  0  0  0  4  0  0  0  0  0  0
  8  6  1  0
  9  7  1  0
 12  6  1  0
 12  7  1  0
 12 10  1  0
 13  8  2  0
 13  9  1  0
 13 11  1  0
 10 14  2  0
 15  1  1  0
 15  2  1  0
 15 14  1  0
 16  3  1  0
 16  4  1  0
 16  5  1  0
 16 11  1  0
M  END
>  <NAME>  (5169) 
4-(TRIMETHYLSILYLMETHYL)CYCLOHEX-3-ENECARBOXALDEHYDE DIMETHYLHYDRAZONE

>  <SYNONYMS>  (5169) 


>  <SPECTRUM TYPE>  (5169) 
MS1

>  <INSTRUMENT TYPE>  (5169) 
EI-B

>  <INSTRUMENT>  (5169) 
JEOL JMS-D-3000

>  <ION MODE>  (5169) 
P

>  <INCHIKEY>  (5169) 
BXNPGGXMEZJXKR-GXDHUFHOSA-N

>  <FORMULA>  (5169) 
C13H26N2Si

>  <EXACT MASS>  (5169) 
238.186525362

>  <MW>  (5169) 
238

>  <ID>  (5169) 
JP001952

>  <CONTRIBUTOR>  (5169) 
University of Tokyo Team, {Faculty of Engineering, University of Tokyo

>  <COMMENT>  (5169) 
SMILES=CN(C)N=CC(C1)CC=C(C1)C[Si](C)(C)C
InChI=InChI=1S/C13H26N2Si/c1-15(2)14-10-12-6-8-13(9-7-12)11-16(3,4)5/h8,10,12H,6-7,9,11H2,1-5H3/b14-10+
computed SMILES=N(=CC1CC=C(CC1)C[Si](C)(C)C)N(C)C
ion type=[M]+*
accession=JP001952
date=2016.01.19 (Created 2008.10.21, modified 2011.05.06)
author=MASS SPECTROSCOPY SOC. OF JAPAN (MSSJ)
license=CC BY-NC-SA
exact mass=238.18653
ionization energy=70 eV
computed spectral entropy=2.786556788117731
computed normalized entropy=0.8275354850924768
SPLASH=splash10-00dj-9210000000-5b05dfb76b5c58365ac0
submitter=submitter = University of Tokyo Team (Faculty of Engineering, University of Tokyo)
MoNA Rating=3.75

>  <NUM PEAKS>  (5169) 
29

>  <MASS SPECTRAL PEAKS>  (5169) 
42 7.49
43 11.6
44 8.39
45 13.56
58 5.57
59 20.11
73 99.99
74 10.45
75 5.3
83 23.46
86 4.8
92 3.67
98 75.76
99 6.28
102 7.81
151 7.89
165 5.99
166 10.29
168 4.35
179 6.61
180 3.41
183 17.23
193 4.71
194 5.02
208 4.87
223 12.06
237 4.8
238 27.75
239 6.13

>  <PREDICTED SPECTRUM>  (5169) 
27 13
28 27
29 72
30 85
31 52
38 1
39 64
40 21
41 133
42 222
43 239
44 386
45 348
46 95
51 41
52 16
53 83
54 70
55 77
56 122
57 58
58 201
59 330
60 89
61 6
65 5
66 26
67 80
68 71
69 107
70 111
71 173
72 123
73 999
74 278
75 196
76 30
77 82
78 48
79 51
80 49
81 98
82 64
83 136
84 175
85 66
86 141
87 45
88 32
90 5
91 33
93 18
94 13
96 3
97 69
98 242
99 174
100 91
101 21
102 125
103 29
104 45
105 35
107 42
108 11
109 85
110 54
111 59
112 54
113 3
115 19
116 9
119 23
120 18
121 74
122 29
123 15
124 10
125 1
126 28
130 74
131 18
134 7
135 41
136 18
137 40
138 121
139 61
140 32
142 16
147 17
148 45
149 56
150 94
151 115
152 51
154 25
163 23
164 101
165 172
166 150
167 48
168 27
179 57
180 162
181 119
182 126
183 57
184 28
192 27
193 95
194 121
195 28
196 28
207 43
208 76
209 25
210 8
223 205
224 51
225 8
237 16
238 564
239 232
240 119

$$$$

     RDKit          2D

 17 16  0  0  0  0  0  0  0  0999 V2000
   -1.7911    4.9090    0.0000 C   0  0  0  0  0  0  0  0  0  0  0  0
    1.2227    6.6490    0.0000 C   0  0  0  0  0  0  0  0  0  0  0  0
   -0.8263    7.1980    0.0000 C   0  0  0  0  0  0  0  0  0  0  0  0
    2.5858    1.2774    0.0000 C   0  0  0  0  0  0  0  0  0  0  0  0
    4.5735    3.9123    0.0000 C   0  0  0  0  0  0  0  0  0  0  0  0
    3.3568    5.6500    0.0000 C   0  0  0  0  0  0  0  0  0  0  0  0
   -2.9304    5.9060    0.0000 C   0  0  0  0  0  0  0  0  0  0  0  0
   -3.4986    3.0814    0.0000 C   0  0  0  0  0  0  0  0  0  0  0  0
   -1.0835    0.8317    0.0000 C   0  0  0  0  0  0  0  0  0  0  0  0
   -1.4885    2.6955    0.0000 C   0  0  0  0  0  0  0  0  0  0  0  0
    1.1946    1.6455    0.0000 C   0  0  0  0  0  0  0  0  0  0  0  0
    2.4341    3.1227    0.0000 C   0  0  0  0  0  0  0  0  0  0  0  0
   -0.0763    5.8990    0.0000 Si  0  0  0  0  0  4  0  0  0  0  0  0
    3.0963    4.1727    0.0000 Si  0  0  0  0  0  4  0  0  0  0  0  0
   -2.0890    3.5944    0.0000 Si  0  0  0  0  0  4  0  0  0  0  0  0
    0.9341    3.1227    0.0000 Si  0  0  0  0  0  4  0  0  0  0  0  0
    0.6737    4.5999    0.0000 Si  0  0  0  0  0  4  0  0  0  0  0  0
 13  1  1  0
 13  2  1  0
 13  3  1  0
 14  4  1  0
 14  5  1  0
 14  6  1  0
 15  7  1  0
 15  8  1  0
 15  9  1  0
 16 10  1  0
 16 11  1  0
 16 12  1  0
 17 13  1  0
 17 14  1  0
 17 15  1  0
 17 16  1  0
M  END
>  <NAME>  (5170) 
TETRAKIS(TRIMETHYLSILYL)SILANE

>  <SYNONYMS>  (5170) 


>  <SPECTRUM TYPE>  (5170) 
MS1

>  <INSTRUMENT TYPE>  (5170) 
EI-B

>  <INSTRUMENT>  (5170) 
JEOL JMS-D-3000

>  <ION MODE>  (5170) 
P

>  <INCHIKEY>  (5170) 
BOJSDHZZKKYWAS-UHFFFAOYSA-N

>  <FORMULA>  (5170) 
C12H36Si5

>  <EXACT MASS>  (5170) 
320.166333802

>  <MW>  (5170) 
320

>  <ID>  (5170) 
JP001951

>  <CONTRIBUTOR>  (5170) 
University of Tokyo Team, {Faculty of Engineering, University of Tokyo

>  <COMMENT>  (5170) 
SMILES=C[Si](C)(C)[Si]([Si](C)(C)C)([Si](C)(C)C)[Si](C)(C)C
InChI=InChI=1S/C12H36Si5/c1-13(2,3)17(14(4,5)6,15(7,8)9)16(10,11)12/h1-12H3
computed SMILES=C[Si](C)(C)[Si]([Si](C)(C)C)([Si](C)(C)C)[Si](C)(C)C
accession=JP001951
date=2016.01.19 (Created 2008.10.21, modified 2011.05.06)
author=MASS SPECTROSCOPY SOC. OF JAPAN (MSSJ)
license=CC BY-NC-SA
exact mass=320.16633
ionization energy=70 eV
ion type=[M]+*
computed spectral entropy=3.152630263446989
computed normalized entropy=0.8018235186239835
SPLASH=splash10-00e9-8973000000-a479b5cff4591706542d
submitter=submitter = University of Tokyo Team (Faculty of Engineering, University of Tokyo)
MoNA Rating=3.75

>  <NUM PEAKS>  (5170) 
51

>  <MASS SPECTRAL PEAKS>  (5170) 
43 2.17
45 13.15
59 8.12
73 99.99
74 8.71
75 4.6
85 1.81
99 6.62
100 1.39
101 2.93
113 4.95
115 6.24
116 1.75
117 3.11
127 1.28
129 8.06
130 1.43
131 12.65
132 1.64
141 1.29
143 4.6
144 1.66
145 3.55
157 8.96
158 25.01
159 10.11
160 3.76
171 5.67
172 3.01
173 27.13
174 6.23
175 3.25
187 4.06
188 1
189 1.2
217 2.41
225 2.4
227 1.2
231 13.26
232 74.25
233 25.38
234 12.43
235 2.9
247 2.49
305 13.28
306 4.6
307 2.8
320 23.92
321 8.31
322 5.06
323 1.32

>  <PREDICTED SPECTRUM>  (5170) 
31 66
43 100
45 185
46 60
47 39
56 69
57 138
58 375
59 194
60 54
69 54
73 903
74 197
75 109
79 34
83 17
85 146
93 9
99 4
100 102
101 134
111 36
113 53
114 1
115 3
116 183
129 25
131 421
132 199
133 193
139 13
141 8
143 11
144 39
146 56
147 266
148 24
149 22
159 89
160 7
161 74
172 40
173 871
174 759
175 529
176 150
177 6
187 30
189 363
190 262
193 180
201 169
202 70
204 7
205 125
215 148
216 32
217 450
218 246
219 394
220 45
221 71
223 49
231 161
232 301
233 245
234 167
246 73
247 826
248 395
249 383
250 37
251 0
265 1
275 209
276 137
277 38
291 67
292 101
305 999
306 600
307 607
308 308
309 215
320 475
321 169
322 268
323 134
324 88

$$$$

     RDKit          2D

 16 16  0  0  0  0  0  0  0  0999 V2000
    0.8059    3.7722    0.0000 C   0  0  0  0  0  0  0  0  0  0  0  0
   -0.6941    5.2722    0.0000 C   0  0  0  0  0  0  0  0  0  0  0  0
   -2.1941    3.7722    0.0000 C   0  0  0  0  0  0  0  0  0  0  0  0
   -2.9573    0.3731    0.0000 C   0  0  0  0  0  0  0  0  0  0  0  0
   -1.0289    0.3731    0.0000 C   0  0  0  0  0  0  0  0  0  0  0  0
    3.2031    0.0222    0.0000 C   0  0  0  0  0  0  0  0  0  0  0  0
    1.9035   -0.7287    0.0000 C   0  0  0  0  0  0  0  0  0  0  0  0
    3.2035    1.5230    0.0000 C   0  0  0  0  0  0  0  0  0  0  0  0
    0.6045    0.0213    0.0000 C   0  0  0  0  0  0  0  0  0  0  0  0
    1.9045    2.2730    0.0000 C   0  0  0  0  0  0  0  0  0  0  0  0
   -3.2921    2.2722    0.0000 C   0  0  0  0  0  0  0  0  0  0  0  0
    0.6050    1.5222    0.0000 C   0  0  0  0  0  0  0  0  0  0  0  0
   -4.5912    1.5222    0.0000 Cl  0  0  0  0  0  0  0  0  0  0  0  0
   -0.6941    2.2722    0.0000 N   0  0  0  0  0  0  0  0  0  0  0  0
   -0.6941    3.7722    0.0000 Si  0  0  0  0  0  4  0  0  0  0  0  0
   -1.9931    1.5222    0.0000 Si  0  0  0  0  0  4  0  0  0  0  0  0
  7  6  2  0
  8  6  1  0
  9  7  1  0
 10  8  2  0
 12  9  2  0
 12 10  1  0
 13 11  1  0
 14 12  1  0
 15  1  1  0
 15  2  1  0
 15  3  1  0
 15 14  1  0
 16  4  1  0
 16  5  1  0
 16 11  1  0
 16 14  1  0
M  END
>  <NAME>  (5171) 
1-(CHLOROMETHYL)-1,1,3,3,3-PENTAMETYL-2-PHENYL-DISILAZANE

>  <SYNONYMS>  (5171) 
N-CHLOROMETHYLDIMETHYLSILYL-N-TRIMETHYLSILYLANILINE

>  <SPECTRUM TYPE>  (5171) 
MS1

>  <INSTRUMENT TYPE>  (5171) 
EI-B

>  <INSTRUMENT>  (5171) 
JEOL JMS-D-3000

>  <ION MODE>  (5171) 
P

>  <INCHIKEY>  (5171) 
LIFSXFXUFRZUAU-UHFFFAOYSA-N

>  <FORMULA>  (5171) 
C12H22ClNSi2

>  <EXACT MASS>  (5171) 
271.097930444

>  <MW>  (5171) 
271

>  <ID>  (5171) 
JP001950

>  <CONTRIBUTOR>  (5171) 
University of Tokyo Team, {Faculty of Engineering, University of Tokyo

>  <COMMENT>  (5171) 
SMILES=ClC[Si](C)(C)N(c(c1)cccc1)[Si](C)(C)C
InChI=InChI=1S/C12H22ClNSi2/c1-15(2,3)14(16(4,5)11-13)12-9-7-6-8-10-12/h6-10H,11H2,1-5H3
computed SMILES=ClC[Si](N(C=1C=CC=CC1)[Si](C)(C)C)(C)C
accession=JP001950
date=2016.01.19 (Created 2008.10.21, modified 2011.05.06)
author=MASS SPECTROSCOPY SOC. OF JAPAN (MSSJ)
license=CC BY-NC-SA
exact mass=271.09793
ionization energy=70 eV
ion type=[M]+*
computed spectral entropy=3.0629624320024926
computed normalized entropy=0.7543419336380012
SPLASH=splash10-00di-5190000000-fd9fa2fa7fa71800c0cc
submitter=submitter = University of Tokyo Team (Faculty of Engineering, University of Tokyo)
MoNA Rating=3.75

>  <NUM PEAKS>  (5171) 
58

>  <MASS SPECTRAL PEAKS>  (5171) 
44 7.89
45 1.29
46 12.98
51 1.26
58 2.13
59 14.32
60 1.11
63 1.78
65 1.34
70 1.65
73 36.53
74 3.28
75 5.26
77 3.62
79 6.35
81 2.49
84 2.53
91 2.04
93 6.99
95 3.17
100 1.48
104 1.48
105 1.92
107 1.25
119 1.52
120 1.81
121 1.4
130 1.82
132 1.07
134 1.64
135 1.45
146 1.07
148 2.6
149 2.54
150 3.67
160 1.16
162 1.95
176 1.06
178 1.61
192 5
206 7.04
207 1
220 4.41
221 1.5
222 99.99
223 23.78
224 9.04
225 1.4
226 1.26
228 6.73
229 1.44
230 2.67
256 5.63
257 1.43
258 2.5
271 5.93
272 1.36
273 2.81

>  <PREDICTED SPECTRUM>  (5171) 
27 11
28 20
29 26
31 42
36 7
38 3
39 97
40 0
41 59
42 26
43 85
44 49
45 198
46 19
47 58
49 27
50 6
51 110
52 37
53 67
54 4
55 64
57 131
58 77
59 266
60 8
61 5
63 105
64 17
65 151
66 20
67 45
70 4
71 53
72 65
73 483
74 148
75 223
76 35
77 196
78 106
79 159
80 50
81 66
83 24
84 19
85 44
86 1
89 1
90 40
91 98
92 84
93 307
94 32
95 164
97 30
98 36
99 41
102 31
103 99
104 93
105 134
106 145
107 125
108 15
109 61
110 6
111 8
116 58
117 30
119 24
120 66
122 9
123 4
125 17
128 62
129 12
130 40
132 11
133 68
134 148
135 121
136 3
138 10
139 63
140 46
141 70
142 37
143 34
144 7
145 33
146 82
147 20
148 101
150 37
152 57
154 18
162 51
164 32
165 23
166 36
170 38
178 31
179 72
180 24
182 0
186 23
192 9
193 24
204 66
206 146
207 2
220 236
221 245
222 999
223 460
224 243
225 112
226 39
256 185
257 77
258 119
270 48
271 194
272 89
273 130
274 50

$$$$

     RDKit          2D

 13 13  0  0  0  0  0  0  0  0999 V2000
    1.1437    1.1474    0.0000 C   0  0  0  0  0  0  0  0  0  0  0  0
   -4.7044   -1.0920    0.0000 C   0  0  0  0  0  0  0  0  0  0  0  0
   -3.4321   -2.4632    0.0000 C   0  0  0  0  0  0  0  0  0  0  0  0
   -2.5821    3.1760    0.0000 C   0  0  0  0  0  0  0  0  0  0  0  0
   -4.2020    2.2408    0.0000 C   0  0  0  0  0  0  0  0  0  0  0  0
   -0.5132   -0.7779    0.0000 C   0  0  0  0  0  0  0  0  0  0  0  0
   -1.8122   -1.5279    0.0000 C   0  0  0  0  0  0  0  0  0  0  0  0
   -1.3099    1.8049    0.0000 C   0  0  0  0  0  0  0  0  0  0  0  0
   -0.2896    0.7053    0.0000 C   0  0  0  0  0  0  0  0  0  0  0  0
   -3.6507    0.4534    0.0000 C   0  0  0  0  0  0  0  0  0  0  0  0
   -3.2085   -0.9799    0.0000 C   0  0  0  0  0  0  0  0  0  0  0  0
   -2.8057    1.6928    0.0000 C   0  0  0  0  0  0  0  0  0  0  0  0
   -5.1339    0.6770    0.0000 O   0  0  0  0  0  0  0  0  0  0  0  0
  7  6  1  0
  9  1  2  0
  9  6  1  0
  9  8  1  0
 11  2  1  0
 11  3  1  0
 11  7  1  0
 11 10  1  0
 12  4  1  0
 12  5  1  0
 12  8  1  0
 12 10  1  0
 13 10  2  0
M  END
>  <NAME>  (5172) 
2,2,7,7-TETRAMETHYL-4-METHYLENECYCLOHEPTANONE

>  <SYNONYMS>  (5172) 


>  <SPECTRUM TYPE>  (5172) 
MS1

>  <INSTRUMENT TYPE>  (5172) 
EI-B

>  <INSTRUMENT>  (5172) 
JEOL JMS-D-3000

>  <ION MODE>  (5172) 
P

>  <INCHIKEY>  (5172) 
WTVWRJYDHWAHLK-UHFFFAOYSA-N

>  <FORMULA>  (5172) 
C12H20O

>  <EXACT MASS>  (5172) 
180.15141526

>  <MW>  (5172) 
180

>  <ID>  (5172) 
JP001949

>  <CONTRIBUTOR>  (5172) 
University of Tokyo Team, {Faculty of Engineering, University of Tokyo

>  <COMMENT>  (5172) 
SMILES=C=C(C1)CC(C)(C)C(=O)C(C)(C)C1
InChI=InChI=1S/C12H20O/c1-9-6-7-11(2,3)10(13)12(4,5)8-9/h1,6-8H2,2-5H3
computed SMILES=O=C1C(C)(C)CC(=C)CCC1(C)C
accession=JP001949
date=2016.01.19 (Created 2008.10.21, modified 2011.05.06)
author=MASS SPECTROSCOPY SOC. OF JAPAN (MSSJ)
license=CC BY-NC-SA
exact mass=180.15142
ionization energy=70 eV
ion type=[M]+*
computed spectral entropy=2.9399848028068423
computed normalized entropy=0.8730996476833613
SPLASH=splash10-053s-9400000000-9c648ed150436c221836
submitter=submitter = University of Tokyo Team (Faculty of Engineering, University of Tokyo)
MoNA Rating=3.75

>  <NUM PEAKS>  (5172) 
29

>  <MASS SPECTRAL PEAKS>  (5172) 
41 36.17
43 13.61
53 9.36
55 21.27
56 13.61
57 4.68
67 22.12
68 12.34
69 15.31
77 7.23
79 3.82
81 99.99
82 20.85
83 9.78
93 4.25
95 39.14
96 71.06
97 5.95
108 8.93
109 74.89
110 9.36
111 8.08
124 21.27
125 28.08
137 15.74
138 3.4
165 11.06
180 43.82
181 3.4

>  <PREDICTED SPECTRUM>  (5172) 
27 143
28 15
29 115
38 6
39 285
40 130
41 657
42 106
43 272
50 82
51 190
52 92
53 326
54 205
55 468
56 288
57 178
58 8
63 37
64 8
65 144
66 92
67 682
68 357
69 536
70 212
71 51
77 304
78 97
79 353
80 206
81 919
82 652
83 372
84 129
85 7
91 207
93 65
94 21
95 853
96 676
97 225
98 96
107 201
108 95
109 999
110 267
111 105
119 53
121 23
122 15
123 154
124 655
125 297
136 27
137 519
138 88
147 58
151 81
152 203
153 52
165 336
166 26
180 671
181 182

$$$$

     RDKit          2D

 13 12  0  0  0  0  0  0  0  0999 V2000
   -7.4695    3.9375    0.0000 C   0  0  0  0  0  0  0  0  0  0  0  0
    1.6238    3.1875    0.0000 C   0  0  0  0  0  0  0  0  0  0  0  0
    0.3248    5.4375    0.0000 C   0  0  0  0  0  0  0  0  0  0  0  0
   -4.8714    5.4375    0.0000 C   0  0  0  0  0  0  0  0  0  0  0  0
   -1.3091    5.0866    0.0000 C   0  0  0  0  0  0  0  0  0  0  0  0
   -3.2375    5.0866    0.0000 C   0  0  0  0  0  0  0  0  0  0  0  0
   -6.1704    3.1875    0.0000 C   0  0  0  0  0  0  0  0  0  0  0  0
   -3.5724    3.1875    0.0000 C   0  0  0  0  0  0  0  0  0  0  0  0
    0.3248    3.9375    0.0000 C   0  0  0  0  0  0  0  0  0  0  0  0
   -4.8714    3.9375    0.0000 C   0  0  0  0  0  0  0  0  0  0  0  0
   -0.9743    3.1875    0.0000 C   0  0  0  0  0  0  0  0  0  0  0  0
   -2.2733    3.9375    0.0000 C   0  0  0  0  0  0  0  0  0  0  0  0
   -0.9743    1.6875    0.0000 O   0  0  0  0  0  0  0  0  0  0  0  0
  7  1  2  0
  9  2  1  0
  9  3  1  0
 10  4  2  0
 10  7  1  0
 10  8  1  0
 11  9  1  0
 12  5  1  0
 12  6  1  0
 12  8  1  0
 12 11  1  0
 13 11  2  0
M  END
>  <NAME>  (5173) 
2,4,4-TRIMETHYL-6-METHYLENEOCT-7-EN-3-ONE

>  <SYNONYMS>  (5173) 


>  <SPECTRUM TYPE>  (5173) 
MS1

>  <INSTRUMENT TYPE>  (5173) 
EI-B

>  <INSTRUMENT>  (5173) 
JEOL JMS-D-3000

>  <ION MODE>  (5173) 
P

>  <INCHIKEY>  (5173) 
SBYFNTNCYJALMR-UHFFFAOYSA-N

>  <FORMULA>  (5173) 
C12H20O

>  <EXACT MASS>  (5173) 
180.15141526

>  <MW>  (5173) 
180

>  <ID>  (5173) 
JP001948

>  <CONTRIBUTOR>  (5173) 
University of Tokyo Team, {Faculty of Engineering, University of Tokyo

>  <COMMENT>  (5173) 
SMILES=C=CC(=C)CC(C)(C)C(=O)C(C)C
InChI=InChI=1S/C12H20O/c1-7-10(4)8-12(5,6)11(13)9(2)3/h7,9H,1,4,8H2,2-3,5-6H3
computed SMILES=O=C(C(C)C)C(C)(C)CC(=C)C=C
accession=JP001948
date=2016.01.19 (Created 2008.10.21, modified 2011.05.06)
author=MASS SPECTROSCOPY SOC. OF JAPAN (MSSJ)
license=CC BY-NC-SA
exact mass=180.15142
ionization energy=70 eV
ion type=[M]+*
computed spectral entropy=2.8701241825083055
computed normalized entropy=0.8438569893011278
SPLASH=splash10-001i-9100000000-7df6bd05557d8eb42e02
submitter=submitter = University of Tokyo Team (Faculty of Engineering, University of Tokyo)
MoNA Rating=3.75

>  <NUM PEAKS>  (5173) 
30

>  <MASS SPECTRAL PEAKS>  (5173) 
41 31.78
42 4.53
43 11.73
53 7.37
55 13.36
56 3.14
57 9.59
66 4.16
67 16.53
68 9.63
69 34.29
70 4.88
77 3.16
79 3.87
81 10.55
83 5.73
84 99.99
85 9.84
91 2.93
94 5.6
95 14.8
96 13.52
107 4.46
109 9.67
121 2.9
123 4.4
124 6.81
125 8.83
163 3.52
180 18.06

>  <PREDICTED SPECTRUM>  (5173) 
26 51
27 249
28 61
29 158
38 40
39 327
40 156
41 678
42 186
43 999
44 176
45 71
50 62
51 175
52 123
53 322
54 163
55 562
56 142
57 363
63 65
64 25
65 240
66 145
67 368
68 158
69 334
70 115
71 536
72 181
77 285
78 73
79 304
80 101
81 371
82 171
83 180
84 20
91 375
92 170
93 387
94 171
95 225
96 78
97 39
105 113
106 105
107 128
108 118
109 845
110 371
111 73
119 324
120 92
121 4
123 33
135 9
137 429
138 91
151 11
152 66
153 72
165 177
166 13
180 268
181 71

$$$$

     RDKit          2D

 13 14  0  0  0  0  0  0  0  0999 V2000
   -1.3000    0.7500    0.0000 C   0  0  0  0  0  0  0  0  0  0  0  0
    6.4971    0.7512    0.0000 C   0  0  0  0  0  0  0  0  0  0  0  0
    0.0000    1.5000    0.0000 C   0  0  0  0  0  0  0  0  0  0  0  0
   -1.3000   -0.7500    0.0000 C   0  0  0  0  0  0  0  0  0  0  0  0
    6.4966   -0.7496    0.0000 C   0  0  0  0  0  0  0  0  0  0  0  0
    5.1981    1.5012    0.0000 C   0  0  0  0  0  0  0  0  0  0  0  0
    1.3000    0.7500    0.0000 C   0  0  0  0  0  0  0  0  0  0  0  0
   -0.0000   -1.5000    0.0000 C   0  0  0  0  0  0  0  0  0  0  0  0
    5.1971   -1.5004    0.0000 C   0  0  0  0  0  0  0  0  0  0  0  0
    3.8986    0.7504    0.0000 C   0  0  0  0  0  0  0  0  0  0  0  0
    1.3000   -0.7500    0.0000 C   0  0  0  0  0  0  0  0  0  0  0  0
    3.8981   -0.7504    0.0000 C   0  0  0  0  0  0  0  0  0  0  0  0
    2.5989   -1.5002    0.0000 Si  0  0  0  0  0  4  0  0  0  0  0  0
  3  1  2  0
  4  1  1  0
  5  2  2  0
  6  2  1  0
  7  3  1  0
  8  4  2  0
  9  5  1  0
 10  6  2  0
 11  7  2  0
 11  8  1  0
 12  9  2  0
 12 10  1  0
 13 11  1  0
 13 12  1  0
M  END
>  <NAME>  (5174) 
DIHYDRODIPHENYLSILANE

>  <SYNONYMS>  (5174) 


>  <SPECTRUM TYPE>  (5174) 
MS1

>  <INSTRUMENT TYPE>  (5174) 
EI-B

>  <INSTRUMENT>  (5174) 
JEOL JMS-D-3000

>  <ION MODE>  (5174) 
P

>  <INCHIKEY>  (5174) 
VDCSGNNYCFPWFK-UHFFFAOYSA-N

>  <FORMULA>  (5174) 
C12H12Si

>  <EXACT MASS>  (5174) 
184.070826914

>  <MW>  (5174) 
184

>  <ID>  (5174) 
JP001947

>  <CONTRIBUTOR>  (5174) 
University of Tokyo Team, {Faculty of Engineering, University of Tokyo

>  <COMMENT>  (5174) 
SMILES=c(c2)ccc(c2)[SiH2]c(c1)cccc1
InChI=InChI=1S/C12H12Si/c1-3-7-11(8-4-1)13-12-9-5-2-6-10-12/h1-10H,13H2
computed SMILES=C=1C=CC(=CC1)[SiH2]C=2C=CC=CC2
accession=JP001947
date=2016.01.19 (Created 2008.10.21, modified 2011.05.06)
author=MASS SPECTROSCOPY SOC. OF JAPAN (MSSJ)
license=CC BY-NC-SA
exact mass=184.07083
ionization energy=70 eV
ion type=[M]+*
computed spectral entropy=2.8829259922054544
computed normalized entropy=0.771316431528135
SPLASH=splash10-0a4i-4900000000-0cd2394218a64aa5d6cd
submitter=submitter = University of Tokyo Team (Faculty of Engineering, University of Tokyo)
MoNA Rating=3.75

>  <NUM PEAKS>  (5174) 
42

>  <MASS SPECTRAL PEAKS>  (5174) 
41 5.68
42 2.24
43 13.55
44 3.14
45 13.3
50 1.28
51 2.75
53 13.28
54 2.67
55 3.12
56 4.64
57 3.92
58 3.44
59 18.31
66 1.05
67 1.14
73 1.08
74 14.62
77 2.8
78 3.15
79 8.07
80 2.24
81 2.5
86 1
91 4.54
92 1.12
103 3.07
104 1.23
105 48.66
106 99.99
107 15.37
108 4.25
129 1.6
154 1.22
155 2.65
180 3
181 9.75
182 4.13
183 17.39
184 54.58
185 10.41
186 2.72

>  <PREDICTED SPECTRUM>  (5174) 
25 4
26 75
27 141
28 78
29 71
36 26
37 80
38 147
39 446
40 149
41 183
42 132
43 81
44 41
45 1
49 28
50 320
51 555
52 305
53 248
54 151
55 128
56 14
57 38
61 164
62 196
63 351
64 191
65 367
66 147
67 190
68 154
69 104
70 7
71 44
74 177
75 164
76 205
77 558
78 418
79 334
80 311
81 170
82 112
83 1
86 49
87 32
88 86
89 175
90 116
91 497
92 293
93 302
94 94
95 112
96 17
97 37
98 26
100 5
101 89
102 230
103 254
104 287
105 446
106 513
107 711
108 232
113 25
114 3
115 249
116 134
117 81
118 41
126 45
127 232
128 188
129 219
130 153
131 126
139 170
140 1
141 88
142 82
143 121
144 47
151 35
152 83
153 95
154 303
155 169
156 183
157 74
158 29
163 133
164 52
165 287
166 220
167 205
168 242
169 350
170 104
179 154
180 156
181 374
182 416
183 969
184 999
185 336
186 62
189 27

$$$$

     RDKit          2D

 17 16  0  0  0  0  0  0  0  0999 V2000
    0.7988    0.4465    0.0000 C   0  0  0  0  0  0  0  0  0  0  0  0
   -2.2150    2.1865    0.0000 C   0  0  0  0  0  0  0  0  0  0  0  0
   -1.6660    0.1374    0.0000 C   0  0  0  0  0  0  0  0  0  0  0  0
    0.3212    4.7107    0.0000 C   0  0  0  0  0  0  0  0  0  0  0  0
   -1.9060    5.7493    0.0000 C   0  0  0  0  0  0  0  0  0  0  0  0
   -2.4550    3.7003    0.0000 C   0  0  0  0  0  0  0  0  0  0  0  0
    3.2997    2.4323    0.0000 C   0  0  0  0  0  0  0  0  0  0  0  0
    2.8676    5.2810    0.0000 C   0  0  0  0  0  0  0  0  0  0  0  0
    0.4458    5.8335    0.0000 C   0  0  0  0  0  0  0  0  0  0  0  0
    1.7185    1.1543    0.0000 C   0  0  0  0  0  0  0  0  0  0  0  0
    0.1372   -0.7302    0.0000 F   0  0  0  0  0  0  0  0  0  0  0  0
    2.8676    0.1901    0.0000 F   0  0  0  0  0  0  0  0  0  0  0  0
    4.4812    2.1598    0.0000 F   0  0  0  0  0  0  0  0  0  0  0  0
   -0.9160    1.4365    0.0000 Si  0  0  0  0  0  4  0  0  0  0  0  0
   -1.1560    4.4503    0.0000 Si  0  0  0  0  0  4  0  0  0  0  0  0
    1.7185    4.3168    0.0000 Si  0  0  0  0  0  4  0  0  0  0  0  0
   -0.1660    2.7355    0.0000 Si  0  0  0  0  0  4  0  0  0  0  0  0
 11 10  1  0
 12 10  1  0
 13 10  1  0
 14  1  1  0
 14  2  1  0
 14  3  1  0
 15  4  1  0
 15  5  1  0
 15  6  1  0
 16  7  1  0
 16  8  1  0
 16  9  1  0
 17 10  1  0
 17 14  1  0
 17 15  1  0
 17 16  1  0
M  END
>  <NAME>  (5175) 
TRIFLUOROTRIS(TRIMETHYLSILYL)METHYLSILANE

>  <SYNONYMS>  (5175) 
TRIFLUOROSILYLTRIS(TRIMETHYSILYL)METHANE

>  <SPECTRUM TYPE>  (5175) 
MS1

>  <INSTRUMENT TYPE>  (5175) 
EI-B

>  <INSTRUMENT>  (5175) 
JEOL JMS-D-3000

>  <ION MODE>  (5175) 
P

>  <INCHIKEY>  (5175) 
GLHNOPPKUIOCTF-UHFFFAOYSA-N

>  <FORMULA>  (5175) 
C10H27F3Si4

>  <EXACT MASS>  (5175) 
316.114191644

>  <MW>  (5175) 
316

>  <ID>  (5175) 
JP001945

>  <CONTRIBUTOR>  (5175) 
University of Tokyo Team, {Faculty of Engineering, University of Tokyo

>  <COMMENT>  (5175) 
SMILES=FC(F)(F)[Si]([Si](C)(C)C)([Si](C)(C)C)[Si](C)(C)C
InChI=InChI=1S/C10H27F3Si4/c1-14(2,3)17(10(11,12)13,15(4,5)6)16(7,8)9/h1-9H3
computed SMILES=FC(F)(F)[Si]([Si](C)(C)C)([Si](C)(C)C)[Si](C)(C)C
accession=JP001945
date=2016.01.19 (Created 2008.10.21, modified 2011.05.06)
author=MASS SPECTROSCOPY SOC. OF JAPAN (MSSJ)
license=CC BY-NC-SA
exact mass=316.11419
ionization energy=70 eV
ion type=[M]+*
computed spectral entropy=2.7674268942051556
computed normalized entropy=0.7269956035351409
SPLASH=splash10-0zfr-5196000000-f192d5b8dba3370a7abd
submitter=submitter = University of Tokyo Team (Faculty of Engineering, University of Tokyo)
MoNA Rating=3.75

>  <NUM PEAKS>  (5175) 
45

>  <MASS SPECTRAL PEAKS>  (5175) 
43 4.39
44 2.15
45 14.25
46 1.09
47 1.48
55 1.14
59 13.94
60 1.17
69 1.66
73 47.06
74 3.95
75 1.76
77 4.99
83 2.6
85 2.21
113 2.23
117 2.41
119 1.01
127 2.7
129 1.04
131 1.53
133 1.24
147 1.43
179 1.14
189 2.34
193 8.01
194 1.71
195 2.44
197 1.48
205 9.46
206 2.1
207 1.61
209 99.99
210 21.93
211 12.51
212 2
213 20.36
214 4.13
215 2.36
228 2.18
285 2.47
301 87.17
302 25.85
303 15.66
304 3.3

>  <PREDICTED SPECTRUM>  (5175) 
15 33
28 33
29 59
31 29
41 63
42 15
43 241
44 20
45 161
47 49
49 42
51 28
53 17
55 4
56 0
57 49
59 173
60 18
61 38
63 65
65 18
66 58
67 39
69 177
70 1
71 21
73 931
74 250
75 186
76 44
77 369
78 83
79 120
80 14
81 59
85 59
91 66
93 3
95 66
96 42
97 83
99 61
100 32
105 132
107 25
109 10
113 129
114 1
115 64
117 4
118 40
119 5
120 36
126 5
127 105
129 142
130 190
131 365
132 112
133 61
134 53
135 51
141 39
143 48
147 57
150 25
151 56
155 75
157 208
158 29
160 32
162 34
163 120
165 21
166 61
169 54
170 58
171 81
173 35
179 42
180 8
181 36
183 43
189 189
193 403
194 86
195 130
197 93
205 399
206 7
207 260
208 37
209 656
210 308
211 342
212 58
213 377
214 68
215 47
224 43
247 83
295 58
297 25
301 999
302 577
303 394
304 168
305 80
316 49

$$$$

     RDKit          2D

 12 12  0  0  0  0  0  0  0  0999 V2000
   -1.3858    4.0193    0.0000 C   0  0  0  0  0  0  0  0  0  0  0  0
   -3.4349    3.0684    0.0000 C   0  0  0  0  0  0  0  0  0  0  0  0
   -3.9839    1.0193    0.0000 C   0  0  0  0  0  0  0  0  0  0  0  0
   -1.9349    0.4703    0.0000 C   0  0  0  0  0  0  0  0  0  0  0  0
    2.5113    0.2693    0.0000 C   0  0  0  0  0  0  0  0  0  0  0  0
    1.2118   -0.4815    0.0000 C   0  0  0  0  0  0  0  0  0  0  0  0
    2.5118    1.7702    0.0000 C   0  0  0  0  0  0  0  0  0  0  0  0
   -0.0873    0.2685    0.0000 C   0  0  0  0  0  0  0  0  0  0  0  0
    1.2127    2.5202    0.0000 C   0  0  0  0  0  0  0  0  0  0  0  0
   -0.0868    1.7693    0.0000 C   0  0  0  0  0  0  0  0  0  0  0  0
   -1.3858    2.5193    0.0000 N   0  0  0  0  0  0  0  0  0  0  0  0
   -2.6849    1.7693    0.0000 Si  0  0  0  0  0  4  0  0  0  0  0  0
  6  5  2  0
  7  5  1  0
  8  6  1  0
  9  7  2  0
 10  8  2  0
 10  9  1  0
 11  1  1  0
 11 10  1  0
 12  2  1  0
 12  3  1  0
 12  4  1  0
 12 11  1  0
M  END
>  <NAME>  (5176) 
N-METHYL-N-TRIMETHYLSILYLANILINE

>  <SYNONYMS>  (5176) 


>  <SPECTRUM TYPE>  (5176) 
MS1

>  <INSTRUMENT TYPE>  (5176) 
EI-B

>  <INSTRUMENT>  (5176) 
JEOL JMS-D-3000

>  <ION MODE>  (5176) 
P

>  <INCHIKEY>  (5176) 
LUZXFCNMHQMIBH-UHFFFAOYSA-N

>  <FORMULA>  (5176) 
C10H17NSi

>  <EXACT MASS>  (5176) 
179.113026074

>  <MW>  (5176) 
179

>  <ID>  (5176) 
JP001944

>  <CONTRIBUTOR>  (5176) 
University of Tokyo Team, {Faculty of Engineering, University of Tokyo

>  <COMMENT>  (5176) 
SMILES=c(c1)ccc(c1)N(C)[Si](C)(C)C
InChI=InChI=1S/C10H17NSi/c1-11(12(2,3)4)10-8-6-5-7-9-10/h5-9H,1-4H3
computed SMILES=C=1C=CC(=CC1)N(C)[Si](C)(C)C
accession=JP001944
date=2016.01.19 (Created 2008.10.21, modified 2011.05.06)
author=MASS SPECTROSCOPY SOC. OF JAPAN (MSSJ)
license=CC BY-NC-SA
exact mass=179.11303
ionization energy=70 eV
ion type=[M]+*
computed spectral entropy=3.057749774508871
computed normalized entropy=0.777692110519709
SPLASH=splash10-0bvi-5900000000-13b5cd3f9cc416e94e9d
submitter=submitter = University of Tokyo Team (Faculty of Engineering, University of Tokyo)
MoNA Rating=3.75

>  <NUM PEAKS>  (5176) 
51

>  <MASS SPECTRAL PEAKS>  (5176) 
43 6.26
45 10.61
47 1.58
50 3.91
51 10.38
52 3.6
53 3.46
55 1.01
58 1.64
59 42.63
60 3.21
61 2.03
63 2.69
64 1.87
65 5.11
66 1.17
73 19.65
74 2.99
75 13.43
76 2.37
77 21.09
78 5.45
79 9.47
80 1.04
82 2.27
84 2.49
91 2.01
92 1.37
93 1.89
104 10.67
105 5.99
106 49.75
107 41.55
108 3.9
119 3.13
120 1.7
121 1.32
134 2.21
135 1.62
148 2.01
149 5.13
150 1.08
162 2.12
163 1.15
164 99.99
165 15.85
166 4.35
178 1.51
179 43.52
180 7.46
181 1.95

>  <PREDICTED SPECTRUM>  (5176) 
14 17
15 71
17 8
18 8
26 33
27 110
28 83
29 112
30 37
31 100
36 4
37 30
38 99
39 229
40 81
41 163
42 205
43 299
44 180
45 306
46 110
47 118
48 6
49 36
50 167
51 297
52 167
53 168
54 95
55 79
56 70
57 122
58 148
59 238
60 91
61 93
62 70
63 143
64 109
65 185
66 136
67 104
68 82
69 49
70 69
71 30
72 124
73 708
74 222
75 293
76 167
77 449
78 236
79 165
80 99
81 72
82 15
83 92
84 60
85 46
86 87
87 18
88 20
89 92
90 114
91 199
92 106
93 94
94 33
95 53
96 65
98 3
99 77
100 76
102 83
103 125
104 260
105 179
106 230
107 173
108 25
109 64
115 95
116 2
117 87
118 190
119 157
120 199
121 160
122 124
123 134
124 21
131 28
132 108
133 161
134 266
135 223
136 86
137 124
138 22
139 21
144 8
145 28
146 105
147 146
148 365
149 236
150 129
151 48
160 14
161 48
162 230
163 133
164 999
165 402
166 170
167 30
176 26
177 8
178 489
179 748
180 327
181 128
182 11

$$$$

     RDKit          2D

 13 13  0  0  0  0  0  0  0  0999 V2000
   -1.0186    4.3342    0.0000 C   0  0  0  0  0  0  0  0  0  0  0  0
   -3.2818    0.9352    0.0000 C   0  0  0  0  0  0  0  0  0  0  0  0
   -1.3534    0.9352    0.0000 C   0  0  0  0  0  0  0  0  0  0  0  0
    2.8785    0.5842    0.0000 C   0  0  0  0  0  0  0  0  0  0  0  0
    1.5790   -0.1666    0.0000 C   0  0  0  0  0  0  0  0  0  0  0  0
    2.8790    2.0851    0.0000 C   0  0  0  0  0  0  0  0  0  0  0  0
    0.2800    0.5834    0.0000 C   0  0  0  0  0  0  0  0  0  0  0  0
    1.5800    2.8351    0.0000 C   0  0  0  0  0  0  0  0  0  0  0  0
   -3.6167    2.8342    0.0000 C   0  0  0  0  0  0  0  0  0  0  0  0
    0.2805    2.0842    0.0000 C   0  0  0  0  0  0  0  0  0  0  0  0
   -4.9157    2.0842    0.0000 Cl  0  0  0  0  0  0  0  0  0  0  0  0
   -1.0186    2.8342    0.0000 N   0  0  0  0  0  0  0  0  0  0  0  0
   -2.3176    2.0842    0.0000 Si  0  0  0  0  0  4  0  0  0  0  0  0
  5  4  2  0
  6  4  1  0
  7  5  1  0
  8  6  2  0
 10  7  2  0
 10  8  1  0
 11  9  1  0
 12  1  1  0
 12 10  1  0
 13  2  1  0
 13  3  1  0
 13  9  1  0
 13 12  1  0
M  END
>  <NAME>  (5177) 
N-(CHLOROMETHYLDIMETHYLSILYL)-N-METHYLANILINE

>  <SYNONYMS>  (5177) 


>  <SPECTRUM TYPE>  (5177) 
MS1

>  <INSTRUMENT TYPE>  (5177) 
EI-B

>  <INSTRUMENT>  (5177) 
JEOL JMS-D-3000

>  <ION MODE>  (5177) 
P

>  <INCHIKEY>  (5177) 
ALLAMHREESSLKW-UHFFFAOYSA-N

>  <FORMULA>  (5177) 
C10H16ClNSi

>  <EXACT MASS>  (5177) 
213.07405372199997

>  <MW>  (5177) 
213

>  <ID>  (5177) 
JP001943

>  <CONTRIBUTOR>  (5177) 
University of Tokyo Team, {Faculty of Engineering, University of Tokyo

>  <COMMENT>  (5177) 
SMILES=ClC[Si](C)(C)N(C)c(c1)cccc1
InChI=InChI=1S/C10H16ClNSi/c1-12(13(2,3)9-11)10-7-5-4-6-8-10/h4-8H,9H2,1-3H3
computed SMILES=ClC[Si](N(C=1C=CC=CC1)C)(C)C
accession=JP001943
date=2016.01.19 (Created 2008.10.21, modified 2011.05.06)
author=MASS SPECTROSCOPY SOC. OF JAPAN (MSSJ)
license=CC BY-NC-SA
exact mass=213.07405
ionization energy=70 eV
ion type=[M]+*
computed spectral entropy=3.1923808959009015
computed normalized entropy=0.793068815141933
SPLASH=splash10-08fr-7910000000-da27057e73a0c984244f
submitter=submitter = University of Tokyo Team (Faculty of Engineering, University of Tokyo)
MoNA Rating=3.75

>  <NUM PEAKS>  (5177) 
56

>  <MASS SPECTRAL PEAKS>  (5177) 
43 1.1
44 5.73
45 2.47
46 3.02
47 2.01
49 1.29
50 3.13
51 9.04
52 4.23
53 2.08
58 1.21
59 43.22
60 3.58
61 2
63 2.9
64 1.61
65 3.08
73 1.85
74 2.1
75 17
76 2.67
77 25.45
78 4.86
79 10.53
80 1.28
81 6.66
82 4.88
83 1.3
84 1.79
91 3.09
92 1.02
93 3.45
95 1.34
103 1.52
104 17.26
105 14.86
106 21.86
107 14.37
108 1.42
109 1.08
119 3.49
120 5.16
121 1.24
134 1.77
135 1.79
148 1.55
149 4.96
162 6.68
163 1.35
164 99.99
165 15.8
166 4.59
213 16.45
214 2.78
215 6.05
216 1.13

>  <PREDICTED SPECTRUM>  (5177) 
14 9
15 27
26 17
27 27
28 1
29 49
30 9
36 8
38 37
39 124
40 33
41 134
42 54
43 140
44 174
45 143
46 62
47 88
48 9
49 109
50 100
51 214
52 114
53 116
54 53
55 61
56 29
57 102
58 110
59 283
60 39
61 57
62 36
63 165
64 66
65 167
66 77
67 73
68 40
69 17
70 55
71 45
72 113
73 206
74 127
75 243
76 96
77 241
78 200
79 311
80 129
81 174
82 93
83 65
85 34
86 28
89 58
90 29
91 92
92 110
93 76
94 113
95 91
96 11
99 1
103 70
104 162
105 254
106 291
107 315
108 105
109 69
117 20
118 107
119 29
120 116
121 34
130 15
132 18
134 173
135 101
146 54
148 91
160 1
162 154
163 159
164 999
165 385
166 125
167 73
168 11
198 44
200 23
212 30
213 247
214 100
215 148
216 48

$$$$

     RDKit          2D

 11 11  0  0  0  0  0  0  0  0999 V2000
    3.8999   -0.4436    0.0000 C   0  0  0  0  0  0  0  0  0  0  0  0
   -2.4399    2.6959    0.0000 C   0  0  0  0  0  0  0  0  0  0  0  0
   -0.5115    3.2173    0.0000 C   0  0  0  0  0  0  0  0  0  0  0  0
    1.3017   -0.4438    0.0000 C   0  0  0  0  0  0  0  0  0  0  0  0
    2.6003    1.8070    0.0000 C   0  0  0  0  0  0  0  0  0  0  0  0
    0.0022    0.3070    0.0000 C   0  0  0  0  0  0  0  0  0  0  0  0
    1.3008    2.5579    0.0000 C   0  0  0  0  0  0  0  0  0  0  0  0
    2.6008    0.3062    0.0000 C   0  0  0  0  0  0  0  0  0  0  0  0
   -1.4754    1.5471    0.0000 C   0  0  0  0  0  0  0  0  0  0  0  0
    0.0017    1.8079    0.0000 C   0  0  0  0  0  0  0  0  0  0  0  0
   -1.9882    0.1374    0.0000 O   0  0  0  0  0  0  0  0  0  0  0  0
  6  4  1  0
  7  5  1  0
  8  1  2  0
  8  4  1  0
  8  5  1  0
  9  2  1  0
 10  3  1  0
 10  6  1  0
 10  7  1  0
 10  9  1  0
 11  9  2  0
M  END
>  <NAME>  (5178) 
1-ACETYL-1-METHYL-4-METHYLENECYCLOHEXANE

>  <SYNONYMS>  (5178) 


>  <SPECTRUM TYPE>  (5178) 
MS1

>  <INSTRUMENT TYPE>  (5178) 
EI-B

>  <INSTRUMENT>  (5178) 
JEOL JMS-D-3000

>  <ION MODE>  (5178) 
P

>  <INCHIKEY>  (5178) 
JSCQETDRSINWLO-UHFFFAOYSA-N

>  <FORMULA>  (5178) 
C10H16O

>  <EXACT MASS>  (5178) 
152.120115132

>  <MW>  (5178) 
152

>  <ID>  (5178) 
JP001942

>  <CONTRIBUTOR>  (5178) 
University of Tokyo Team, {Faculty of Engineering, University of Tokyo

>  <COMMENT>  (5178) 
SMILES=C=C(C1)CCC(C)(C1)C(C)=O
InChI=InChI=1S/C10H16O/c1-8-4-6-10(3,7-5-8)9(2)11/h1,4-7H2,2-3H3
computed SMILES=O=C(C)C1(C)CCC(=C)CC1
accession=JP001942
date=2016.01.19 (Created 2008.10.21, modified 2011.05.06)
author=MASS SPECTROSCOPY SOC. OF JAPAN (MSSJ)
license=CC BY-NC-SA
exact mass=152.12012
ionization energy=70 eV
ion type=[M]+*
computed spectral entropy=2.817195188187488
computed normalized entropy=0.8547738564508756
SPLASH=splash10-0ap3-9300000000-8f7b9db23da676cbd06c
submitter=submitter = University of Tokyo Team (Faculty of Engineering, University of Tokyo)
MoNA Rating=3.75

>  <NUM PEAKS>  (5178) 
27

>  <MASS SPECTRAL PEAKS>  (5178) 
41 39.93
43 54.64
51 3.98
53 13.42
55 28.77
57 16.71
59 4.49
65 6.6
67 75.15
68 34.64
69 7.68
77 9.25
79 14.6
80 4.88
81 25.55
85 79.1
86 4.43
91 7.08
93 10.07
94 8.16
107 4.27
108 7.2
109 99.99
110 9.63
137 21.56
152 30.97
153 3.47

>  <PREDICTED SPECTRUM>  (5178) 
26 19
27 187
28 35
29 134
37 1
38 54
39 323
40 134
41 545
42 117
43 825
44 116
45 42
50 93
51 220
52 137
53 347
54 104
55 387
56 49
57 139
61 11
62 19
63 85
64 49
65 236
66 133
67 736
68 220
69 293
70 1
71 54
72 17
77 358
78 99
79 431
80 149
81 439
82 106
83 16
85 77
91 320
92 91
93 200
94 257
95 318
96 124
97 7
105 9
107 93
108 170
109 999
110 264
111 58
119 95
123 30
124 69
125 31
134 35
135 4
137 291
138 51
152 565
153 190

$$$$

     RDKit          2D

 11 12  0  0  0  0  0  0  0  0999 V2000
    3.0195    1.9591    0.0000 C   0  0  0  0  0  0  0  0  0  0  0  0
    1.1124    2.5814    0.0000 C   0  0  0  0  0  0  0  0  0  0  0  0
   -2.3100   -0.7500    0.0000 C   0  0  0  0  0  0  0  0  0  0  0  0
   -2.3100    0.7500    0.0000 C   0  0  0  0  0  0  0  0  0  0  0  0
   -1.0100   -1.5000    0.0000 C   0  0  0  0  0  0  0  0  0  0  0  0
   -1.0100    1.5000    0.0000 C   0  0  0  0  0  0  0  0  0  0  0  0
    1.7200   -1.2100    0.0000 C   0  0  0  0  0  0  0  0  0  0  0  0
    0.2900   -0.7500    0.0000 C   0  0  0  0  0  0  0  0  0  0  0  0
    0.2900    0.7500    0.0000 C   0  0  0  0  0  0  0  0  0  0  0  0
    2.6000    0.0000    0.0000 O   0  0  0  0  0  0  0  0  0  0  0  0
    1.7200    1.2100    0.0000 Si  0  0  0  0  0  4  0  0  0  0  0  0
  4  3  2  0
  5  3  1  0
  6  4  1  0
  8  5  2  0
  8  7  1  0
  9  6  2  0
  9  8  1  0
 10  7  1  0
 11  1  1  0
 11  2  1  0
 11  9  1  0
 11 10  1  0
M  END
>  <NAME>  (5179) 
2,2-DIMETHYL-3,4-BENZO-1-OXA-2-SILACYCLOPENT-3-ENE

>  <SYNONYMS>  (5179) 


>  <SPECTRUM TYPE>  (5179) 
MS1

>  <INSTRUMENT TYPE>  (5179) 
EI-B

>  <INSTRUMENT>  (5179) 
JEOL JMS-D-3000

>  <ION MODE>  (5179) 
P

>  <INCHIKEY>  (5179) 
GLZOQCBCUKBUJG-UHFFFAOYSA-N

>  <FORMULA>  (5179) 
C9H12OSi

>  <EXACT MASS>  (5179) 
164.06574153399998

>  <MW>  (5179) 
164

>  <ID>  (5179) 
JP001941

>  <CONTRIBUTOR>  (5179) 
University of Tokyo Team, {Faculty of Engineering, University of Tokyo

>  <COMMENT>  (5179) 
SMILES=c(c2)cc(C1)c(c2)[Si](C)(C)O1
InChI=InChI=1S/C9H12OSi/c1-11(2)9-6-4-3-5-8(9)7-10-11/h3-6H,7H2,1-2H3
computed SMILES=O1CC=2C=CC=CC2[Si]1(C)C
accession=JP001941
date=2016.01.19 (Created 2008.10.21, modified 2011.05.06)
author=MASS SPECTROSCOPY SOC. OF JAPAN (MSSJ)
license=CC BY-NC-SA
exact mass=164.06574
ionization energy=70 eV
ion type=[M]+*
computed spectral entropy=2.22627919261615
computed normalized entropy=0.6681100112006915
SPLASH=splash10-0002-1900000000-fb4d7549e9f716ae026a
submitter=submitter = University of Tokyo Team (Faculty of Engineering, University of Tokyo)
MoNA Rating=3.75

>  <NUM PEAKS>  (5179) 
28

>  <MASS SPECTRAL PEAKS>  (5179) 
43 4.22
45 3.17
53 2.05
63 2.07
67 1.79
74 2.2
75 2.73
77 2.83
81 2.36
89 3.51
90 1.83
91 1.77
103 2.19
105 5.85
119 1.51
121 1.67
131 2.53
133 3.1
145 2.29
147 2.53
148 1.66
149 99.99
150 14.45
151 4.41
163 12.82
164 24.04
165 3.97
166 1.09

>  <PREDICTED SPECTRUM>  (5179) 
27 41
39 84
40 4
41 67
43 242
44 6
45 149
47 10
50 41
51 139
52 42
53 79
55 1
59 147
63 8
65 61
66 48
67 108
73 227
74 54
75 177
76 51
77 117
78 69
89 119
90 38
91 179
92 22
93 78
95 11
103 56
104 102
105 208
106 26
117 36
118 14
119 152
120 17
121 73
131 46
133 68
135 27
146 17
147 165
148 63
149 999
150 365
151 196
152 13
163 198
164 437
165 176
166 57

$$$$

     RDKit          2D

 10  9  0  0  0  0  0  0  0  0999 V2000
    1.0514   -0.9240    0.0000 C   0  0  0  0  0  0  0  0  0  0  0  0
   -0.4486    1.6740    0.0000 C   0  0  0  0  0  0  0  0  0  0  0  0
   -0.9976   -0.3750    0.0000 C   0  0  0  0  0  0  0  0  0  0  0  0
    4.9486    1.3260    0.0000 C   0  0  0  0  0  0  0  0  0  0  0  0
    5.4976    3.3750    0.0000 C   0  0  0  0  0  0  0  0  0  0  0  0
    3.4486    3.9240    0.0000 C   0  0  0  0  0  0  0  0  0  0  0  0
    1.6005    1.1250    0.0000 C   0  0  0  0  0  0  0  0  0  0  0  0
    2.8995    1.8750    0.0000 C   0  0  0  0  0  0  0  0  0  0  0  0
    0.3014    0.3750    0.0000 Si  0  0  0  0  0  4  0  0  0  0  0  0
    4.1986    2.6250    0.0000 Si  0  0  0  0  0  4  0  0  0  0  0  0
  8  7  3  0
  9  1  1  0
  9  2  1  0
  9  3  1  0
  9  7  1  0
 10  4  1  0
 10  5  1  0
 10  6  1  0
 10  8  1  0
M  END
>  <NAME>  (5180) 
BIS(TRIMEHYLSILYL)ACETYLENE

>  <SYNONYMS>  (5180) 


>  <SPECTRUM TYPE>  (5180) 
MS1

>  <INSTRUMENT TYPE>  (5180) 
EI-B

>  <INSTRUMENT>  (5180) 
JEOL JMS-D-3000

>  <ION MODE>  (5180) 
P

>  <INCHIKEY>  (5180) 
ZDWYFWIBTZJGOR-UHFFFAOYSA-N

>  <FORMULA>  (5180) 
C8H18Si2

>  <EXACT MASS>  (5180) 
170.094703636

>  <MW>  (5180) 
170

>  <ID>  (5180) 
JP001940

>  <CONTRIBUTOR>  (5180) 
University of Tokyo Team, {Faculty of Engineering, University of Tokyo

>  <COMMENT>  (5180) 
SMILES=C[Si](C)(C)C#C[Si](C)(C)C
InChI=InChI=1S/C8H18Si2/c1-9(2,3)7-8-10(4,5)6/h1-6H3
computed SMILES=C(#C[Si](C)(C)C)[Si](C)(C)C
accession=JP001940
date=2016.01.19 (Created 2008.10.21, modified 2011.05.06)
author=MASS SPECTROSCOPY SOC. OF JAPAN (MSSJ)
license=CC BY-NC-SA
exact mass=170.0947
ionization energy=70 eV
ion type=[M]+*
computed spectral entropy=1.7745583574169326
computed normalized entropy=0.6026813155147482
SPLASH=splash10-0a4i-2900000000-f9352c023ee66acb3f97
submitter=submitter = University of Tokyo Team (Faculty of Engineering, University of Tokyo)
MoNA Rating=3.75

>  <NUM PEAKS>  (5180) 
19

>  <MASS SPECTRAL PEAKS>  (5180) 
43 1.93
45 2.32
55 1.12
59 1.56
67 1.48
70 5.11
73 13.63
83 2.73
97 4.36
101 1.13
117 1.88
125 1.74
139 1.61
155 99.99
156 18.96
157 8.54
158 1.2
170 9.13
171 1.99

>  <PREDICTED SPECTRUM>  (5180) 
15 11
27 34
28 24
29 51
31 53
39 63
42 35
43 258
44 83
45 247
47 48
51 6
53 103
54 29
55 91
56 43
57 116
58 98
59 234
60 12
65 34
66 51
67 140
68 57
69 153
70 49
71 86
72 54
73 585
74 122
75 25
77 30
78 28
79 74
80 28
81 121
82 109
83 238
84 85
85 98
86 2
94 4
95 164
96 104
97 278
98 88
99 100
103 10
107 34
110 6
111 152
112 39
113 47
115 22
118 7
123 56
125 188
126 97
127 93
128 17
129 23
130 70
131 85
137 47
139 193
140 93
141 77
155 999
156 376
157 283
158 97
159 29
170 380
171 182
172 69

$$$$

     RDKit          2D

  9  8  0  0  0  0  0  0  0  0999 V2000
    1.5368    3.1373    0.0000 C   0  0  0  0  0  0  0  0  0  0  0  0
   -1.0613    1.6373    0.0000 C   0  0  0  0  0  0  0  0  0  0  0  0
   -4.4094    4.4363    0.0000 C   0  0  0  0  0  0  0  0  0  0  0  0
   -4.9584    2.3873    0.0000 C   0  0  0  0  0  0  0  0  0  0  0  0
   -2.9094    1.8382    0.0000 C   0  0  0  0  0  0  0  0  0  0  0  0
    0.2377    3.8873    0.0000 C   0  0  0  0  0  0  0  0  0  0  0  0
   -2.3603    3.8873    0.0000 C   0  0  0  0  0  0  0  0  0  0  0  0
   -1.0613    3.1373    0.0000 C   0  0  0  0  0  0  0  0  0  0  0  0
   -3.6594    3.1373    0.0000 Si  0  0  0  0  0  4  0  0  0  0  0  0
  6  1  2  0
  8  2  2  0
  8  6  1  0
  8  7  1  0
  9  3  1  0
  9  4  1  0
  9  5  1  0
  9  7  1  0
M  END
>  <NAME>  (5181) 
2-(TRIMETHYLSILYLMETHYL)BUTA-1,3-DIENE

>  <SYNONYMS>  (5181) 


>  <SPECTRUM TYPE>  (5181) 
MS1

>  <INSTRUMENT TYPE>  (5181) 
EI-B

>  <INSTRUMENT>  (5181) 
JEOL JMS-D-3000

>  <ION MODE>  (5181) 
P

>  <INCHIKEY>  (5181) 
JGVXFONXFYPFAK-UHFFFAOYSA-N

>  <FORMULA>  (5181) 
C8H16Si

>  <EXACT MASS>  (5181) 
140.102127042

>  <MW>  (5181) 
140

>  <ID>  (5181) 
JP001939

>  <CONTRIBUTOR>  (5181) 
University of Tokyo Team, {Faculty of Engineering, University of Tokyo

>  <COMMENT>  (5181) 
SMILES=C=CC(=C)C[Si](C)(C)C
InChI=InChI=1S/C8H16Si/c1-6-8(2)7-9(3,4)5/h6H,1-2,7H2,3-5H3
computed SMILES=C=CC(=C)C[Si](C)(C)C
accession=JP001939
date=2016.01.19 (Created 2008.10.21, modified 2011.05.06)
author=MASS SPECTROSCOPY SOC. OF JAPAN (MSSJ)
license=CC BY-NC-SA
exact mass=140.10213
ionization energy=70 eV
ion type=[M]+*
computed spectral entropy=2.0003878180242447
computed normalized entropy=0.637981664217953
SPLASH=splash10-00di-9100000000-e799ee2de4158073e3d5
submitter=submitter = University of Tokyo Team (Faculty of Engineering, University of Tokyo)
MoNA Rating=3.75

>  <NUM PEAKS>  (5181) 
23

>  <MASS SPECTRAL PEAKS>  (5181) 
43 4.94
44 1.36
45 6.4
55 1.3
58 2.01
59 10.29
69 1.15
71 1.15
72 1.57
73 99.99
74 9.03
75 3.53
83 1.62
85 3.76
86 1.64
97 7.92
98 4.95
99 1.66
109 1.29
125 9.14
126 1.09
140 11.99
141 1.75

>  <PREDICTED SPECTRUM>  (5181) 
27 75
28 7
29 28
31 59
39 82
40 9
41 44
43 197
44 141
45 363
46 16
47 34
51 21
52 10
53 100
54 15
55 61
57 64
58 92
59 336
60 117
61 18
65 46
66 137
67 98
68 1
69 20
71 81
72 140
73 999
74 294
75 272
77 63
79 33
81 20
83 165
84 94
85 171
86 89
95 70
97 275
98 109
99 94
112 8
113 35
125 225
126 35
127 4
139 10
140 299
141 88
142 34

$$$$

     RDKit          2D

 10  9  0  0  0  0  0  0  0  0999 V2000
   -6.3212    3.8505    0.0000 C   0  0  0  0  0  0  0  0  0  0  0  0
   -0.5760    1.8014    0.0000 C   0  0  0  0  0  0  0  0  0  0  0  0
    1.4731    2.3505    0.0000 C   0  0  0  0  0  0  0  0  0  0  0  0
   -5.0221    3.1005    0.0000 C   0  0  0  0  0  0  0  0  0  0  0  0
   -3.7231    3.8505    0.0000 C   0  0  0  0  0  0  0  0  0  0  0  0
   -2.4240    3.1005    0.0000 C   0  0  0  0  0  0  0  0  0  0  0  0
   -1.1250    3.8505    0.0000 C   0  0  0  0  0  0  0  0  0  0  0  0
    0.1740    3.1005    0.0000 C   0  0  0  0  0  0  0  0  0  0  0  0
    0.9240    4.3995    0.0000 Br  0  0  0  0  0  0  0  0  0  0  0  0
   -1.1250    5.3505    0.0000 O   0  0  0  0  0  0  0  0  0  0  0  0
  4  1  2  0
  5  4  1  0
  6  5  1  0
  7  6  1  0
  8  2  1  0
  8  3  1  0
  8  7  1  0
  9  8  1  0
 10  7  2  0
M  END
>  <NAME>  (5182) 
2-METHYL-2-BROMOHEPT-6-EN-3-ONE

>  <SYNONYMS>  (5182) 


>  <SPECTRUM TYPE>  (5182) 
MS1

>  <INSTRUMENT TYPE>  (5182) 
EI-B

>  <INSTRUMENT>  (5182) 
JEOL JMS-D-3000

>  <ION MODE>  (5182) 
P

>  <INCHIKEY>  (5182) 
AOWPRVPXYURVBN-UHFFFAOYSA-N

>  <FORMULA>  (5182) 
C8H13BrO

>  <EXACT MASS>  (5182) 
204.014977136

>  <MW>  (5182) 
204

>  <ID>  (5182) 
JP001938

>  <CONTRIBUTOR>  (5182) 
University of Tokyo Team, {Faculty of Engineering, University of Tokyo

>  <COMMENT>  (5182) 
SMILES=C=CCCC(=O)C(C)(C)Br
InChI=InChI=1S/C8H13BrO/c1-4-5-6-7(10)8(2,3)9/h4H,1,5-6H2,2-3H3
computed SMILES=O=C(CCC=C)C(Br)(C)C
accession=JP001938
date=2016.01.19 (Created 2008.10.21, modified 2011.05.06)
author=MASS SPECTROSCOPY SOC. OF JAPAN (MSSJ)
license=CC BY-NC-SA
exact mass=204.01498
ionization energy=70 eV
ion type=[M]+*
computed spectral entropy=1.763826019852587
computed normalized entropy=0.5706249740880291
SPLASH=splash10-053r-9000000000-1eab196b7c54b935db7b
submitter=submitter = University of Tokyo Team (Faculty of Engineering, University of Tokyo)
MoNA Rating=3.75

>  <NUM PEAKS>  (5182) 
22

>  <MASS SPECTRAL PEAKS>  (5182) 
42 5.63
43 4.07
53 2.81
54 1.91
55 92.69
56 4.2
67 1.14
69 3.26
70 12.97
71 1.06
81 1.01
82 5.09
83 99.99
84 5.75
97 1.22
121 3.5
123 3.22
125 2.08
149 1.22
151 1.38
204 1.46
206 1.42

>  <PREDICTED SPECTRUM>  (5182) 
26 24
27 150
28 53
29 104
36 9
37 16
38 41
39 248
40 99
41 373
42 145
43 83
44 14
50 55
51 108
52 74
53 230
54 180
55 895
56 256
65 31
67 122
69 46
70 96
79 8
80 17
81 69
82 151
83 999
84 301
95 52
96 76
97 4
105 25
107 115
122 42
123 74
124 41
125 116
206 23

$$$$

     RDKit          2D

 10 10  0  0  0  0  0  0  0  0999 V2000
    1.8487   -2.7991    0.0000 C   0  0  0  0  0  0  0  0  0  0  0  0
    3.8978   -2.2504    0.0000 C   0  0  0  0  0  0  0  0  0  0  0  0
   -1.3000    0.7500    0.0000 C   0  0  0  0  0  0  0  0  0  0  0  0
    0.0000    1.5000    0.0000 C   0  0  0  0  0  0  0  0  0  0  0  0
   -1.3000   -0.7500    0.0000 C   0  0  0  0  0  0  0  0  0  0  0  0
    1.3000    0.7500    0.0000 C   0  0  0  0  0  0  0  0  0  0  0  0
    0.0000   -1.5000    0.0000 C   0  0  0  0  0  0  0  0  0  0  0  0
    1.3000   -0.7500    0.0000 C   0  0  0  0  0  0  0  0  0  0  0  0
    3.3491   -0.2013    0.0000 Cl  0  0  0  0  0  0  0  0  0  0  0  0
    2.5989   -1.5002    0.0000 Si  0  0  0  0  0  4  0  0  0  0  0  0
  4  3  2  0
  5  3  1  0
  6  4  1  0
  7  5  2  0
  8  6  2  0
  8  7  1  0
 10  1  1  0
 10  2  1  0
 10  8  1  0
 10  9  1  0
M  END
>  <NAME>  (5183) 
CHLORODIMETHYLPHENYLSILANE

>  <SYNONYMS>  (5183) 


>  <SPECTRUM TYPE>  (5183) 
MS1

>  <INSTRUMENT TYPE>  (5183) 
EI-B

>  <INSTRUMENT>  (5183) 
JEOL JMS-D-3000

>  <ION MODE>  (5183) 
P

>  <INCHIKEY>  (5183) 
KWYZNESIGBQHJK-UHFFFAOYSA-N

>  <FORMULA>  (5183) 
C8H11ClSi

>  <EXACT MASS>  (5183) 
170.031854562

>  <MW>  (5183) 
170

>  <ID>  (5183) 
JP001937

>  <CONTRIBUTOR>  (5183) 
University of Tokyo Team, {Faculty of Engineering, University of Tokyo

>  <COMMENT>  (5183) 
SMILES=c(c1)ccc(c1)[Si](C)(C)Cl
InChI=InChI=1S/C8H11ClSi/c1-10(2,9)8-6-4-3-5-7-8/h3-7H,1-2H3
computed SMILES=Cl[Si](C=1C=CC=CC1)(C)C
accession=JP001937
date=2016.01.19 (Created 2008.10.21, modified 2011.05.06)
author=MASS SPECTROSCOPY SOC. OF JAPAN (MSSJ)
license=CC BY-NC-SA
exact mass=170.03185
ionization energy=70 eV
ion type=[M]+*
computed spectral entropy=2.1493208580020817
computed normalized entropy=0.685480728072454
SPLASH=splash10-0a4i-1900000000-9375b32bfbf121816569
submitter=submitter = University of Tokyo Team (Faculty of Engineering, University of Tokyo)
MoNA Rating=3.75

>  <NUM PEAKS>  (5183) 
23

>  <MASS SPECTRAL PEAKS>  (5183) 
50 1.05
51 2.5
53 1.81
63 10.67
65 4.88
77 1.32
78 2.26
79 1.65
91 11.05
92 1.04
93 3.44
103 1.64
105 2.98
119 2.05
135 3.54
155 99.99
156 13.18
157 36.56
158 4.76
159 1.46
170 18.57
171 2.88
172 8.4

>  <PREDICTED SPECTRUM>  (5183) 
15 27
26 11
27 65
28 96
29 89
36 2
37 12
38 74
39 187
40 52
41 67
42 55
43 212
44 112
45 92
47 32
48 15
49 47
50 129
51 237
52 171
53 199
54 59
55 39
57 52
58 88
59 152
61 12
62 82
63 290
64 154
65 391
66 176
67 183
68 10
69 4
72 14
73 166
74 85
75 173
76 71
77 321
78 231
79 194
80 31
81 5
89 85
90 50
91 405
92 283
93 465
94 112
95 159
96 3
99 16
105 195
106 14
107 99
115 50
117 136
118 19
119 336
120 55
127 100
129 36
135 113
136 26
139 1
153 22
155 999
156 340
157 559
158 173
169 17
170 515
171 197
172 259
173 69

$$$$

     RDKit          2D

  9  9  0  0  0  0  0  0  0  0999 V2000
   -4.6848    0.1045    0.0000 C   0  0  0  0  0  0  0  0  0  0  0  0
   -2.3109    1.1602    0.0000 C   0  0  0  0  0  0  0  0  0  0  0  0
    1.1179   -2.5684    0.0000 C   0  0  0  0  0  0  0  0  0  0  0  0
    1.2837   -1.0755    0.0000 C   0  0  0  0  0  0  0  0  0  0  0  0
   -0.3419   -2.8800    0.0000 C   0  0  0  0  0  0  0  0  0  0  0  0
   -0.0921   -0.4726    0.0000 C   0  0  0  0  0  0  0  0  0  0  0  0
   -1.0919   -1.5810    0.0000 C   0  0  0  0  0  0  0  0  0  0  0  0
   -2.5836   -1.4235    0.0000 N   0  0  0  0  0  0  0  0  0  0  0  0
   -3.1931   -0.0529    0.0000 N   0  0  0  0  0  0  0  0  0  0  0  0
  4  3  1  0
  5  3  1  0
  6  4  1  0
  7  5  1  0
  7  6  1  0
  8  7  2  3
  9  1  1  0
  9  2  1  0
  9  8  1  0
M  END
>  <NAME>  (5184) 
CYCLOPENTANONE DIMETHYLHYDRAZONE

>  <SYNONYMS>  (5184) 


>  <SPECTRUM TYPE>  (5184) 
MS1

>  <INSTRUMENT TYPE>  (5184) 
EI-B

>  <INSTRUMENT>  (5184) 
JEOL JMS-D-3000

>  <ION MODE>  (5184) 
P

>  <INCHIKEY>  (5184) 
WEZHJSIEBKGPAO-UHFFFAOYSA-N

>  <FORMULA>  (5184) 
C7H14N2

>  <EXACT MASS>  (5184) 
126.11569844799999

>  <MW>  (5184) 
126

>  <ID>  (5184) 
JP001936

>  <CONTRIBUTOR>  (5184) 
University of Tokyo Team, {Faculty of Engineering, University of Tokyo

>  <COMMENT>  (5184) 
SMILES=CN(C)N=C(C1)CCC1
InChI=InChI=1S/C7H14N2/c1-9(2)8-7-5-3-4-6-7/h3-6H2,1-2H3
computed SMILES=N(=C1CCCC1)N(C)C
accession=JP001936
date=2016.01.19 (Created 2008.10.21, modified 2011.05.06)
author=MASS SPECTROSCOPY SOC. OF JAPAN (MSSJ)
license=CC BY-NC-SA
exact mass=126.1157
ionization energy=70 eV
ion type=[M]+*
computed spectral entropy=2.7028354489882793
computed normalized entropy=0.8504687438514414
SPLASH=splash10-0006-9200000000-30e67abaebd411e0f172
submitter=submitter = University of Tokyo Team (Faculty of Engineering, University of Tokyo)
MoNA Rating=3.75

>  <NUM PEAKS>  (5184) 
24

>  <MASS SPECTRAL PEAKS>  (5184) 
41 29.25
42 48.19
43 96.99
44 99.99
45 24.75
52 5.1
53 9.23
54 23.36
55 46.37
56 5.9
58 21.35
59 3.92
67 8.78
68 5.17
70 5.3
80 4.86
82 71.98
83 11.83
84 17.77
97 5.55
111 28.94
125 13.65
126 89.61
127 7.79

>  <PREDICTED SPECTRUM>  (5184) 
14 0
15 0
26 14
27 97
28 112
29 92
30 111
32 22
33 7
34 23
36 43
37 33
38 91
39 394
40 260
41 655
42 941
43 672
44 943
45 451
46 177
49 13
50 86
51 167
52 196
53 295
54 319
55 403
56 355
57 300
58 184
59 161
60 1
63 52
64 31
65 126
66 161
67 311
68 301
69 223
70 269
71 234
72 97
73 52
78 13
79 167
80 159
81 225
82 522
83 457
84 228
85 33
92 75
93 102
94 69
95 86
96 64
97 172
98 118
99 6
109 114
110 201
111 304
112 100
124 1
125 257
126 999
127 351
128 125

$$$$

     RDKit          2D

  6  5  0  0  0  0  0  0  0  0999 V2000
    1.2990    2.2500    0.0000 C   0  0  0  0  0  0  0  0  0  0  0  0
   -3.8971    2.2500    0.0000 C   0  0  0  0  0  0  0  0  0  0  0  0
   -1.2990    0.7500    0.0000 C   0  0  0  0  0  0  0  0  0  0  0  0
    0.0000    3.0000    0.0000 C   0  0  0  0  0  0  0  0  0  0  0  0
   -2.5981    3.0000    0.0000 C   0  0  0  0  0  0  0  0  0  0  0  0
   -1.2990    2.2500    0.0000 Si  0  0  0  0  0  4  0  0  0  0  0  0
  4  1  1  0
  5  2  1  0
  6  3  1  0
  6  4  1  0
  6  5  1  0
M  END
>  <NAME>  (5185) 
DIETHYLMETHYLSILANE

>  <SYNONYMS>  (5185) 


>  <SPECTRUM TYPE>  (5185) 
MS1

>  <INSTRUMENT TYPE>  (5185) 
EI-B

>  <INSTRUMENT>  (5185) 
JEOL JMS-D-3000

>  <ION MODE>  (5185) 
P

>  <INCHIKEY>  (5185) 
UUTZEAQZDHSEAL-UHFFFAOYSA-N

>  <FORMULA>  (5185) 
C5H14Si

>  <EXACT MASS>  (5185) 
102.08647697800001

>  <MW>  (5185) 
102

>  <ID>  (5185) 
JP001933

>  <CONTRIBUTOR>  (5185) 
University of Tokyo Team, {Faculty of Engineering, University of Tokyo

>  <COMMENT>  (5185) 
SMILES=CC[SiH](C)CC
InChI=InChI=1S/C5H14Si/c1-4-6(3)5-2/h6H,4-5H2,1-3H3
computed SMILES=CC[SiH](C)CC
accession=JP001933
date=2016.01.19 (Created 2008.10.21, modified 2011.05.06)
author=MASS SPECTROSCOPY SOC. OF JAPAN (MSSJ)
license=CC BY-NC-SA
exact mass=102.08648
ionization energy=70 eV
ion type=[M]+*
computed spectral entropy=2.3350025031513004
computed normalized entropy=0.7446999874178887
SPLASH=splash10-00di-9000000000-7d840880a38fd5b54ba9
submitter=submitter = University of Tokyo Team (Faculty of Engineering, University of Tokyo)
MoNA Rating=3.75

>  <NUM PEAKS>  (5185) 
23

>  <MASS SPECTRAL PEAKS>  (5185) 
42 5.03
43 57.22
44 9.46
45 47.48
46 3.6
47 1.67
53 1.41
55 2.56
57 2.16
58 21.9
59 18.2
60 1.24
70 1.11
71 1.67
72 36.98
73 99.99
74 16.04
75 3.82
86 1.62
87 7.77
101 8.96
102 7.32
103 1.05

>  <PREDICTED SPECTRUM>  (5185) 
14 17
15 29
25 32
26 162
27 322
28 186
29 290
30 12
31 333
32 0
33 25
35 1
37 40
38 31
39 251
40 125
41 348
42 241
43 722
44 488
45 999
46 214
47 260
48 90
50 33
51 75
52 12
53 159
54 75
55 161
56 92
57 329
58 205
59 534
60 202
61 269
63 108
69 94
71 233
72 285
73 947
74 444
75 249
76 31
85 7
86 14
87 257
88 52
100 63
101 190
102 362
103 130
104 12

$$$$

     RDKit          2D

  8  7  0  0  0  0  0  0  0  0999 V2000
    1.6740    0.1005    0.0000 C   0  0  0  0  0  0  0  0  0  0  0  0
   -0.9240    1.6005    0.0000 C   0  0  0  0  0  0  0  0  0  0  0  0
    2.4240    1.3995    0.0000 C   0  0  0  0  0  0  0  0  0  0  0  0
    1.8750    3.4486    0.0000 C   0  0  0  0  0  0  0  0  0  0  0  0
   -0.3750   -0.4486    0.0000 Cl  0  0  0  0  0  0  0  0  0  0  0  0
   -0.1740    2.8995    0.0000 Cl  0  0  0  0  0  0  0  0  0  0  0  0
    0.3750    0.8505    0.0000 Si  0  0  0  0  0  4  0  0  0  0  0  0
    1.1250    2.1495    0.0000 Si  0  0  0  0  0  4  0  0  0  0  0  0
  7  1  1  0
  7  2  1  0
  7  5  1  0
  8  3  1  0
  8  4  1  0
  8  6  1  0
  8  7  1  0
M  END
>  <NAME>  (5186) 
1,2-DICHLORO-1,1,2,2-TETRAMETHYLDISILANE

>  <SYNONYMS>  (5186) 


>  <SPECTRUM TYPE>  (5186) 
MS1

>  <INSTRUMENT TYPE>  (5186) 
EI-B

>  <INSTRUMENT>  (5186) 
JEOL JMS-D-3000

>  <ION MODE>  (5186) 
P

>  <INCHIKEY>  (5186) 
SFAZXBAPWCPIER-UHFFFAOYSA-N

>  <FORMULA>  (5186) 
C4H12Cl2Si2

>  <EXACT MASS>  (5186) 
185.985458804

>  <MW>  (5186) 
186

>  <ID>  (5186) 
JP001930

>  <CONTRIBUTOR>  (5186) 
University of Tokyo Team, {Faculty of Engineering, University of Tokyo

>  <COMMENT>  (5186) 
SMILES=C[Si](C)(Cl)[Si](C)(C)Cl
InChI=InChI=1S/C4H12Cl2Si2/c1-7(2,5)8(3,4)6/h1-4H3
computed SMILES=Cl[Si](C)(C)[Si](Cl)(C)C
license=CC BY-NC-SA
exact mass=185.98546
accession=JP001930
date=2016.01.19 (Created 2008.10.21, modified 2011.05.06)
author=MASS SPECTROSCOPY SOC. OF JAPAN (MSSJ)
ionization energy=70 eV
ion type=[M]+*
computed spectral entropy=2.5564636012205297
computed normalized entropy=0.7190473497971872
SPLASH=splash10-0abc-9000000000-59792d56622ed9679b9f
submitter=submitter = University of Tokyo Team (Faculty of Engineering, University of Tokyo)
MoNA Rating=3.75

>  <NUM PEAKS>  (5186) 
35

>  <MASS SPECTRAL PEAKS>  (5186) 
42 1.92
43 18.72
44 2.26
45 3.82
53 1.13
55 1.92
57 1.11
58 99.99
59 10.84
60 3.71
63 9.08
65 11.46
67 3.2
72 1.85
73 69.64
74 8.05
75 12.84
78 1.53
79 1.5
92 1.79
93 74.16
94 6.2
95 26.07
96 1.9
133 1
135 1.09
151 11.49
152 1.88
153 4.89
171 1.51
173 1.08
186 8.62
187 1.33
188 6.22
190 1.31

>  <PREDICTED SPECTRUM>  (5186) 
28 19
31 42
33 15
39 25
42 40
43 280
44 191
45 217
47 19
49 8
50 16
51 85
52 29
53 55
54 22
55 82
56 60
57 190
58 393
59 441
60 68
63 273
64 49
65 320
66 59
67 107
71 26
72 245
73 660
74 212
76 1
77 157
78 238
79 243
80 145
81 86
85 58
91 46
92 96
93 999
94 284
95 594
96 193
97 35
98 57
99 8
100 139
103 36
105 65
107 50
113 189
115 110
119 16
131 119
133 12
135 66
143 42
145 81
151 176
152 17
153 72
155 108
159 3
171 379
172 128
173 260
174 48
175 56
186 120
187 53
188 59

$$$$

     RDKit          2D

 21 23  0  0  0  0  0  0  0  0999 V2000
    0.2010    5.2500    0.0000 C   0  0  0  0  0  0  0  0  0  0  0  0
   -1.2990    6.7500    0.0000 C   0  0  0  0  0  0  0  0  0  0  0  0
   -2.7990    5.2500    0.0000 C   0  0  0  0  0  0  0  0  0  0  0  0
    3.9000   -0.7500    0.0000 C   0  0  0  0  0  0  0  0  0  0  0  0
   -3.9000   -0.7500    0.0000 C   0  0  0  0  0  0  0  0  0  0  0  0
    3.9000    0.7500    0.0000 C   0  0  0  0  0  0  0  0  0  0  0  0
   -3.9000    0.7500    0.0000 C   0  0  0  0  0  0  0  0  0  0  0  0
    2.6000   -1.5000    0.0000 C   0  0  0  0  0  0  0  0  0  0  0  0
   -2.6000   -1.5000    0.0000 C   0  0  0  0  0  0  0  0  0  0  0  0
    2.6000    1.5000    0.0000 C   0  0  0  0  0  0  0  0  0  0  0  0
   -2.6000    1.5000    0.0000 C   0  0  0  0  0  0  0  0  0  0  0  0
   -0.0000   -1.5000    0.0000 C   0  0  0  0  0  0  0  0  0  0  0  0
    1.3000   -0.7500    0.0000 C   0  0  0  0  0  0  0  0  0  0  0  0
   -1.3000   -0.7500    0.0000 C   0  0  0  0  0  0  0  0  0  0  0  0
    1.3000    0.7500    0.0000 C   0  0  0  0  0  0  0  0  0  0  0  0
   -1.3000    0.7500    0.0000 C   0  0  0  0  0  0  0  0  0  0  0  0
   -0.0000    1.5000    0.0000 C   0  0  0  0  0  0  0  0  0  0  0  0
    0.0000    3.0000    0.0000 C   0  0  0  0  0  0  0  0  0  0  0  0
    1.2990    3.7500    0.0000 O   0  0  0  0  0  0  0  0  0  0  0  0
   -1.2990    3.7500    0.0000 O   0  0  0  0  0  0  0  0  0  0  0  0
   -1.2990    5.2500    0.0000 Si  0  0  0  0  0  4  0  0  0  0  0  0
  6  4  2  0
  7  5  1  0
  8  4  1  0
  9  5  2  0
 10  6  1  0
 11  7  2  0
 13  8  2  0
 13 12  1  0
 14  9  1  0
 14 12  2  0
 15 10  2  0
 15 13  1  0
 16 11  1  0
 16 14  1  0
 17 15  1  0
 17 16  2  0
 18 17  1  0
 19 18  2  0
 20 18  1  0
 21  1  1  0
 21  2  1  0
 21  3  1  0
 21 20  1  0
M  END
>  <NAME>  (5187) 
ANTHRACENE-9-CARBOXYLIC ACID TRIMETHYLSILYL ESTER

>  <SYNONYMS>  (5187) 


>  <SPECTRUM TYPE>  (5187) 
MS1

>  <INSTRUMENT TYPE>  (5187) 
EI-B

>  <INSTRUMENT>  (5187) 
JEOL JMS-01-SG

>  <ION MODE>  (5187) 
P

>  <INCHIKEY>  (5187) 
JTUMBWFAVUSXJY-UHFFFAOYSA-N

>  <FORMULA>  (5187) 
C18H18O2Si

>  <EXACT MASS>  (5187) 
294.107606346

>  <MW>  (5187) 
294

>  <ID>  (5187) 
JP001929

>  <CONTRIBUTOR>  (5187) 
University of Tokyo Team, {Faculty of Engineering, University of Tokyo

>  <COMMENT>  (5187) 
SMILES=C[Si](C)(C)OC(=O)c(c21)c(c3)c(ccc3)cc(cccc2)1
InChI=InChI=1S/C18H18O2Si/c1-21(2,3)20-18(19)17-15-10-6-4-8-13(15)12-14-9-5-7-11-16(14)17/h4-12H,1-3H3
computed SMILES=O=C(O[Si](C)(C)C)C=1C=2C=CC=CC2C=C3C=CC=CC31
accession=JP001929
date=2016.01.19 (Created 2008.10.21, modified 2011.05.06)
author=KOGA M, UNIV. OF OCCUPATIONAL AND ENVIRONMENTAL HEALTH
license=CC BY-NC-SA
exact mass=294.10761
ionization energy=70 eV
ion type=[M]+*
computed spectral entropy=2.659753027569766
computed normalized entropy=0.8878473724270308
SPLASH=splash10-004i-2690000000-5da2f1a3f2ee73044e2a
submitter=submitter = University of Tokyo Team (Faculty of Engineering, University of Tokyo)
MoNA Rating=3.75

>  <NUM PEAKS>  (5187) 
20

>  <MASS SPECTRAL PEAKS>  (5187) 
45 26
73 37.8
75 23.9
88 1.91
140 17.4
150 15.8
151 33.3
175 1.09
176 96.7
177 41
178 35.7
191 0.6
206 59.7
235 34.9
236 7
279 99.99
280 21.9
293 34.1
294 52.8
295 13.4

>  <PREDICTED SPECTRUM>  (5187) 
27 12
29 35
38 10
39 98
40 50
41 24
43 158
44 72
45 318
46 77
47 149
48 24
49 39
50 46
51 67
52 15
59 105
60 57
61 73
62 83
63 114
64 78
65 11
69 9
70 15
73 332
74 154
75 337
76 153
77 123
82 45
83 48
84 10
86 75
87 136
88 161
89 114
90 40
91 35
92 0
93 10
98 82
99 102
100 114
101 139
102 171
103 78
104 51
105 3
110 81
111 8
113 49
114 148
115 118
116 30
118 31
119 49
121 44
122 52
125 92
126 281
127 230
128 17
129 78
130 36
131 64
133 59
137 8
138 73
139 85
140 110
142 12
145 15
146 63
147 144
148 0
149 168
150 312
151 440
152 250
153 195
159 9
161 53
162 73
163 69
164 98
165 62
166 105
167 8
175 232
176 432
177 485
178 307
179 121
188 45
189 154
190 160
191 155
192 223
193 102
194 23
201 43
202 10
203 345
204 417
205 615
206 236
207 88
217 23
218 73
219 86
220 92
221 24
222 66
232 1
233 95
234 25
235 467
236 192
237 70
247 21
249 122
250 86
251 26
265 63
275 41
277 53
278 111
279 999
280 505
281 255
282 95
291 22
292 17
293 188
294 766
295 387
296 180
297 72

$$$$

     RDKit          2D

 18 17  0  0  0  0  0  0  0  0999 V2000
   -1.3457    3.1740    0.0000 C   0  0  0  0  0  0  0  0  0  0  0  0
    0.1543    5.7721    0.0000 C   0  0  0  0  0  0  0  0  0  0  0  0
   -1.8947    5.2231    0.0000 C   0  0  0  0  0  0  0  0  0  0  0  0
   10.3457    2.4240    0.0000 C   0  0  0  0  0  0  0  0  0  0  0  0
   12.3947    2.9731    0.0000 C   0  0  0  0  0  0  0  0  0  0  0  0
   11.8457    5.0221    0.0000 C   0  0  0  0  0  0  0  0  0  0  0  0
    4.6005    4.4731    0.0000 C   0  0  0  0  0  0  0  0  0  0  0  0
    5.8995    3.7231    0.0000 C   0  0  0  0  0  0  0  0  0  0  0  0
    3.3014    3.7231    0.0000 C   0  0  0  0  0  0  0  0  0  0  0  0
    7.1986    4.4731    0.0000 C   0  0  0  0  0  0  0  0  0  0  0  0
    2.0024    4.4731    0.0000 C   0  0  0  0  0  0  0  0  0  0  0  0
    8.4976    3.7231    0.0000 C   0  0  0  0  0  0  0  0  0  0  0  0
    2.0024    5.9731    0.0000 O   0  0  0  0  0  0  0  0  0  0  0  0
    8.4976    2.2231    0.0000 O   0  0  0  0  0  0  0  0  0  0  0  0
    0.7034    3.7231    0.0000 O   0  0  0  0  0  0  0  0  0  0  0  0
    9.7966    4.4731    0.0000 O   0  0  0  0  0  0  0  0  0  0  0  0
   -0.5957    4.4731    0.0000 Si  0  0  0  0  0  4  0  0  0  0  0  0
   11.0957    3.7231    0.0000 Si  0  0  0  0  0  4  0  0  0  0  0  0
  8  7  1  0
  9  7  1  0
 10  8  1  0
 11  9  1  0
 12 10  1  0
 13 11  2  0
 14 12  2  0
 15 11  1  0
 16 12  1  0
 17  1  1  0
 17  2  1  0
 17  3  1  0
 17 15  1  0
 18  4  1  0
 18  5  1  0
 18  6  1  0
 18 16  1  0
M  END
>  <NAME>  (5188) 
HEXANEDIOIC ACID BIS(TRIMETHYLSILYL) ESTER

>  <SYNONYMS>  (5188) 
BIS(TRIMETHYLSILYL) ADIPATE

>  <SPECTRUM TYPE>  (5188) 
MS1

>  <INSTRUMENT TYPE>  (5188) 
EI-B

>  <INSTRUMENT>  (5188) 
JEOL JMS-01-SG

>  <ION MODE>  (5188) 
P

>  <INCHIKEY>  (5188) 
DVGSOFSBBKDKRU-UHFFFAOYSA-N

>  <FORMULA>  (5188) 
C12H26O4Si2

>  <EXACT MASS>  (5188) 
290.13696237199997

>  <MW>  (5188) 
290

>  <ID>  (5188) 
JP001927

>  <CONTRIBUTOR>  (5188) 
University of Tokyo Team, {Faculty of Engineering, University of Tokyo

>  <COMMENT>  (5188) 
SMILES=O=C(CCCCC(=O)O[Si](C)(C)C)O[Si](C)(C)C
InChI=InChI=1S/C12H26O4Si2/c1-17(2,3)15-11(13)9-7-8-10-12(14)16-18(4,5)6/h7-10H2,1-6H3
computed SMILES=O=C(O[Si](C)(C)C)CCCCC(=O)O[Si](C)(C)C
accession=JP001927
date=2016.01.19 (Created 2008.10.21, modified 2011.05.06)
author=KOGA M, UNIV. OF OCCUPATIONAL AND ENVIRONMENTAL HEALTH
license=CC BY-NC-SA
exact mass=290.13696
ionization energy=70 eV
ion type=[M]+*
computed spectral entropy=2.5445592891293765
computed normalized entropy=0.8641915513052105
SPLASH=splash10-00fr-9410000000-04fa750756439db22706
submitter=submitter = University of Tokyo Team (Faculty of Engineering, University of Tokyo)
MoNA Rating=3.75

>  <NUM PEAKS>  (5188) 
19

>  <MASS SPECTRAL PEAKS>  (5188) 
45 9
47 12.6
55 29.7
73 99.99
74 10.6
75 68.5
83 23
111 8.93
117 15.9
129 11.3
141 44.3
147 5.38
149 12.4
159 18.1
172 20.8
185 1.68
217 10.4
275 33.9
276 5.9

>  <PREDICTED SPECTRUM>  (5188) 
26 14
27 72
28 35
29 44
38 0
39 111
40 71
41 239
42 138
43 261
44 198
45 331
46 95
47 174
48 69
49 74
51 20
52 23
53 142
54 92
55 592
56 170
57 84
58 186
59 214
60 126
61 211
62 12
63 22
65 38
66 49
67 163
68 102
69 364
70 88
71 120
72 366
73 999
74 236
75 760
76 198
77 186
78 4
79 103
80 10
81 178
82 177
83 350
84 181
85 125
86 102
87 79
88 44
89 121
90 5
91 118
92 5
93 92
95 55
97 69
98 124
99 143
100 56
101 166
102 26
103 123
104 36
105 75
106 20
109 26
110 124
111 390
112 140
113 138
114 23
115 212
116 270
117 419
118 130
119 118
120 25
125 282
126 81
127 82
128 77
129 403
130 232
131 212
132 128
133 250
134 21
139 40
141 214
142 52
143 211
144 124
145 252
146 99
147 545
148 195
149 297
150 141
151 85
155 163
156 150
157 301
158 217
159 289
160 127
161 48
167 1
169 26
171 124
172 137
173 273
174 99
175 107
176 60
177 46
178 21
185 206
186 162
187 68
188 19
189 141
190 107
200 258
201 116
202 12
203 99
204 385
205 129
213 49
215 69
217 346
218 112
228 60
229 22
231 278
232 117
233 114
234 14
235 17
246 76
247 77
248 36
275 452
276 207
277 79
278 24

$$$$

     RDKit          2D

 19 18  0  0  0  0  0  0  0  0999 V2000
    4.7844    8.7623    0.0000 C   0  0  0  0  0  0  0  0  0  0  0  0
  -14.1522   10.0613    0.0000 C   0  0  0  0  0  0  0  0  0  0  0  0
  -14.7012    8.0123    0.0000 C   0  0  0  0  0  0  0  0  0  0  0  0
  -12.6522    7.4632    0.0000 C   0  0  0  0  0  0  0  0  0  0  0  0
    3.4853    9.5123    0.0000 C   0  0  0  0  0  0  0  0  0  0  0  0
    2.1863    8.7623    0.0000 C   0  0  0  0  0  0  0  0  0  0  0  0
    0.8873    9.5123    0.0000 C   0  0  0  0  0  0  0  0  0  0  0  0
   -0.4118    8.7623    0.0000 C   0  0  0  0  0  0  0  0  0  0  0  0
   -1.7108    9.5123    0.0000 C   0  0  0  0  0  0  0  0  0  0  0  0
   -3.0099    8.7623    0.0000 C   0  0  0  0  0  0  0  0  0  0  0  0
   -4.3089    9.5123    0.0000 C   0  0  0  0  0  0  0  0  0  0  0  0
   -5.6079    8.7623    0.0000 C   0  0  0  0  0  0  0  0  0  0  0  0
   -6.9070    9.5123    0.0000 C   0  0  0  0  0  0  0  0  0  0  0  0
   -8.2060    8.7623    0.0000 C   0  0  0  0  0  0  0  0  0  0  0  0
   -9.5050    9.5123    0.0000 C   0  0  0  0  0  0  0  0  0  0  0  0
  -10.8041    8.7623    0.0000 C   0  0  0  0  0  0  0  0  0  0  0  0
  -10.8041    7.2623    0.0000 O   0  0  0  0  0  0  0  0  0  0  0  0
  -12.1031    9.5123    0.0000 O   0  0  0  0  0  0  0  0  0  0  0  0
  -13.4022    8.7623    0.0000 Si  0  0  0  0  0  4  0  0  0  0  0  0
  5  1  1  0
  6  5  1  0
  7  6  1  0
  8  7  1  0
  9  8  1  0
 10  9  1  0
 11 10  1  0
 12 11  1  0
 13 12  1  0
 14 13  1  0
 15 14  1  0
 16 15  1  0
 17 16  2  0
 18 16  1  0
 19  2  1  0
 19  3  1  0
 19  4  1  0
 19 18  1  0
M  END
>  <NAME>  (5189) 
TRIDECANOIC ACID TRIMETHYLSILYL ESTER

>  <SYNONYMS>  (5189) 


>  <SPECTRUM TYPE>  (5189) 
MS1

>  <INSTRUMENT TYPE>  (5189) 
EI-B

>  <INSTRUMENT>  (5189) 
JEOL JMS-01-SG

>  <ION MODE>  (5189) 
P

>  <INCHIKEY>  (5189) 
UZUTZCYXYDHJAT-UHFFFAOYSA-N

>  <FORMULA>  (5189) 
C16H34O2Si

>  <EXACT MASS>  (5189) 
286.232806858

>  <MW>  (5189) 
286

>  <ID>  (5189) 
JP001926

>  <CONTRIBUTOR>  (5189) 
University of Tokyo Team, {Faculty of Engineering, University of Tokyo

>  <COMMENT>  (5189) 
SMILES=CCCCCCCCCCCCC(=O)O[Si](C)(C)C
InChI=InChI=1S/C16H34O2Si/c1-5-6-7-8-9-10-11-12-13-14-15-16(17)18-19(2,3)4/h5-15H2,1-4H3
computed SMILES=O=C(O[Si](C)(C)C)CCCCCCCCCCCC
accession=JP001926
date=2016.01.19 (Created 2008.10.21, modified 2011.05.06)
author=KOGA M, UNIV. OF OCCUPATIONAL AND ENVIRONMENTAL HEALTH
license=CC BY-NC-SA
exact mass=286.23281
ionization energy=70 eV
ion type=[M]+*
computed spectral entropy=2.3373380100398693
computed normalized entropy=0.7938143824945426
SPLASH=splash10-00bc-9110000000-d82340760ca3f00725e3
submitter=submitter = University of Tokyo Team (Faculty of Engineering, University of Tokyo)
MoNA Rating=3.75

>  <NUM PEAKS>  (5189) 
19

>  <MASS SPECTRAL PEAKS>  (5189) 
43 75.6
45 10
47 9.7
55 2.64
57 8.8
69 10.3
73 99.99
74 0.97
75 96.3
76 6.3
77 21.8
117 7.5
118 6.9
129 24
131 13
132 2.58
145 17
271 38.9
272 6.9

>  <PREDICTED SPECTRUM>  (5189) 
15 8
18 2
27 67
28 27
29 88
32 14
39 86
40 18
41 308
42 172
43 377
44 116
45 213
46 54
47 134
49 1
53 99
54 108
55 543
56 223
57 321
58 109
59 134
60 90
61 207
62 16
63 5
65 7
66 13
67 199
68 101
69 362
70 176
71 157
72 184
73 999
74 273
75 905
76 266
77 229
78 41
79 84
80 22
81 236
82 75
83 290
84 220
85 148
86 61
87 72
88 86
89 161
90 68
91 24
93 133
95 230
96 148
97 233
98 245
99 122
100 20
101 111
102 29
103 130
104 50
105 112
106 16
107 77
109 102
110 21
111 116
112 102
113 31
115 110
116 340
117 853
118 248
119 169
121 52
123 70
125 92
126 54
127 43
129 652
130 184
131 396
132 620
133 312
134 97
137 1
139 37
141 18
143 241
144 77
145 644
146 282
147 92
148 3
149 49
153 52
154 44
155 95
156 50
157 85
158 53
159 203
160 87
161 99
168 11
171 190
173 157
174 2
175 1
185 162
186 58
187 68
188 61
190 16
196 128
197 60
199 184
200 38
201 217
202 66
203 13
213 56
214 22
215 70
216 6
227 133
228 26
229 71
243 100
244 67
255 81
257 74
271 924
272 459
273 196
274 49
286 161
287 61
288 3

$$$$

     RDKit          2D

 20 21  0  0  0  0  0  0  0  0999 V2000
   -4.7340    3.0686    0.0000 C   0  0  0  0  0  0  0  0  0  0  0  0
   -5.2831    1.0196    0.0000 C   0  0  0  0  0  0  0  0  0  0  0  0
   -3.2340    0.4705    0.0000 C   0  0  0  0  0  0  0  0  0  0  0  0
    3.8102    0.2696    0.0000 C   0  0  0  0  0  0  0  0  0  0  0  0
   -0.0869    7.0196    0.0000 C   0  0  0  0  0  0  0  0  0  0  0  0
    3.8107    1.7704    0.0000 C   0  0  0  0  0  0  0  0  0  0  0  0
    2.5107   -0.4813    0.0000 C   0  0  0  0  0  0  0  0  0  0  0  0
   -1.3869    6.2696    0.0000 C   0  0  0  0  0  0  0  0  0  0  0  0
    1.2131    6.2696    0.0000 C   0  0  0  0  0  0  0  0  0  0  0  0
    2.5117    2.5204    0.0000 C   0  0  0  0  0  0  0  0  0  0  0  0
    1.2117    0.2687    0.0000 C   0  0  0  0  0  0  0  0  0  0  0  0
   -1.3869    4.7696    0.0000 C   0  0  0  0  0  0  0  0  0  0  0  0
    1.2131    4.7696    0.0000 C   0  0  0  0  0  0  0  0  0  0  0  0
    1.2121    1.7696    0.0000 C   0  0  0  0  0  0  0  0  0  0  0  0
   -0.0869    4.0196    0.0000 C   0  0  0  0  0  0  0  0  0  0  0  0
   -0.0869    2.5196    0.0000 C   0  0  0  0  0  0  0  0  0  0  0  0
   -1.3859    1.7696    0.0000 C   0  0  0  0  0  0  0  0  0  0  0  0
   -1.3859    0.2696    0.0000 O   0  0  0  0  0  0  0  0  0  0  0  0
   -2.6850    2.5196    0.0000 O   0  0  0  0  0  0  0  0  0  0  0  0
   -3.9840    1.7696    0.0000 Si  0  0  0  0  0  4  0  0  0  0  0  0
  6  4  2  0
  7  4  1  0
  8  5  2  0
  9  5  1  0
 10  6  1  0
 11  7  2  0
 12  8  1  0
 13  9  2  0
 14 10  2  0
 14 11  1  0
 15 12  2  0
 15 13  1  0
 16 14  1  0
 16 15  1  0
 17 16  1  0
 18 17  2  0
 19 17  1  0
 20  1  1  0
 20  2  1  0
 20  3  1  0
 20 19  1  0
M  END
>  <NAME>  (5190) 
DIPHENYLACETIC ACID TRIMETHYLSILYL ESTER

>  <SYNONYMS>  (5190) 


>  <SPECTRUM TYPE>  (5190) 
MS1

>  <INSTRUMENT TYPE>  (5190) 
EI-B

>  <INSTRUMENT>  (5190) 
JEOL JMS-01-SG

>  <ION MODE>  (5190) 
P

>  <INCHIKEY>  (5190) 
QSBLMZZLVMXTHB-UHFFFAOYSA-N

>  <FORMULA>  (5190) 
C17H20O2Si

>  <EXACT MASS>  (5190) 
284.12325641

>  <MW>  (5190) 
284

>  <ID>  (5190) 
JP001925

>  <CONTRIBUTOR>  (5190) 
University of Tokyo Team, {Faculty of Engineering, University of Tokyo

>  <COMMENT>  (5190) 
SMILES=c(c2)ccc(c2)C(c(c1)cccc1)C(=O)O[Si](C)(C)C
InChI=InChI=1S/C17H20O2Si/c1-20(2,3)19-17(18)16(14-10-6-4-7-11-14)15-12-8-5-9-13-15/h4-13,16H,1-3H3
computed SMILES=O=C(O[Si](C)(C)C)C(C=1C=CC=CC1)C=2C=CC=CC2
accession=JP001925
date=2016.01.19 (Created 2008.10.21, modified 2011.05.06)
author=KOGA M, UNIV. OF OCCUPATIONAL AND ENVIRONMENTAL HEALTH
license=CC BY-NC-SA
exact mass=284.12326
ionization energy=70 eV
ion type=[M]+*
computed spectral entropy=2.0114837924885913
computed normalized entropy=0.6831467069689571
SPLASH=splash10-00di-9100000000-7bc2d4a2a654f0340574
submitter=submitter = University of Tokyo Team (Faculty of Engineering, University of Tokyo)
MoNA Rating=3.75

>  <NUM PEAKS>  (5190) 
19

>  <MASS SPECTRAL PEAKS>  (5190) 
43 2.1
44 21.3
45 12.4
47 0.28
51 5.6
73 99.99
74 8.2
75 2.23
76 3.2
77 15
78 2.3
105 1.87
152 4.4
165 8.2
166 3
167 0.63
182 7.5
240 7.2
269 3

>  <PREDICTED SPECTRUM>  (5190) 
39 33
40 21
43 99
44 33
45 236
46 58
47 113
50 55
51 75
52 48
53 10
55 28
57 53
58 93
59 5
61 41
62 25
63 73
64 5
71 2
72 220
73 999
74 296
75 338
76 150
77 177
78 103
79 81
81 59
85 0
89 35
90 48
91 116
93 15
104 122
105 38
106 9
115 9
117 11
126 61
151 91
152 187
163 236
164 97
165 368
166 192
167 415
168 118
240 493
241 192
242 22
269 312
270 125
271 51
284 59
285 19

$$$$

     RDKit          2D

 20 22  0  0  0  0  0  0  0  0999 V2000
    0.2010    5.5900    0.0000 C   0  0  0  0  0  0  0  0  0  0  0  0
   -1.2990    7.0900    0.0000 C   0  0  0  0  0  0  0  0  0  0  0  0
   -2.7990    5.5900    0.0000 C   0  0  0  0  0  0  0  0  0  0  0  0
    3.2200   -1.2700    0.0000 C   0  0  0  0  0  0  0  0  0  0  0  0
   -3.2200   -1.2700    0.0000 C   0  0  0  0  0  0  0  0  0  0  0  0
    3.6900    0.1600    0.0000 C   0  0  0  0  0  0  0  0  0  0  0  0
   -3.6800    0.1600    0.0000 C   0  0  0  0  0  0  0  0  0  0  0  0
    1.7500   -1.5800    0.0000 C   0  0  0  0  0  0  0  0  0  0  0  0
   -1.7500   -1.5800    0.0000 C   0  0  0  0  0  0  0  0  0  0  0  0
    2.6800    1.2700    0.0000 C   0  0  0  0  0  0  0  0  0  0  0  0
   -2.6800    1.2700    0.0000 C   0  0  0  0  0  0  0  0  0  0  0  0
    0.7500   -0.4700    0.0000 C   0  0  0  0  0  0  0  0  0  0  0  0
   -0.7500   -0.4700    0.0000 C   0  0  0  0  0  0  0  0  0  0  0  0
    1.2100    0.9600    0.0000 C   0  0  0  0  0  0  0  0  0  0  0  0
   -1.2100    0.9600    0.0000 C   0  0  0  0  0  0  0  0  0  0  0  0
   -0.0000    1.8400    0.0000 C   0  0  0  0  0  0  0  0  0  0  0  0
    0.0000    3.3400    0.0000 C   0  0  0  0  0  0  0  0  0  0  0  0
    1.2990    4.0900    0.0000 O   0  0  0  0  0  0  0  0  0  0  0  0
   -1.2990    4.0900    0.0000 O   0  0  0  0  0  0  0  0  0  0  0  0
   -1.2990    5.5900    0.0000 Si  0  0  0  0  0  4  0  0  0  0  0  0
  6  4  2  0
  7  5  2  0
  8  4  1  0
  9  5  1  0
 10  6  1  0
 11  7  1  0
 12  8  2  0
 13  9  2  0
 13 12  1  0
 14 10  2  0
 14 12  1  0
 15 11  2  0
 15 13  1  0
 16 14  1  0
 16 15  1  0
 17 16  1  0
 18 17  2  0
 19 17  1  0
 20  1  1  0
 20  2  1  0
 20  3  1  0
 20 19  1  0
M  END
>  <NAME>  (5191) 
9-FLUORENECARBOXYLIC ACID TRIMETHYLSILYL ESTER

>  <SYNONYMS>  (5191) 


>  <SPECTRUM TYPE>  (5191) 
MS1

>  <INSTRUMENT TYPE>  (5191) 
EI-B

>  <INSTRUMENT>  (5191) 
JEOL JMS-01-SG

>  <ION MODE>  (5191) 
P

>  <INCHIKEY>  (5191) 
XYXUFGRMSJQXCQ-UHFFFAOYSA-N

>  <FORMULA>  (5191) 
C17H18O2Si

>  <EXACT MASS>  (5191) 
282.107606346

>  <MW>  (5191) 
282

>  <ID>  (5191) 
JP001924

>  <CONTRIBUTOR>  (5191) 
University of Tokyo Team, {Faculty of Engineering, University of Tokyo

>  <COMMENT>  (5191) 
SMILES=C[Si](C)(C)OC(=O)C(c21)c(c3)c(ccc3)c(cccc2)1
InChI=InChI=1S/C17H18O2Si/c1-20(2,3)19-17(18)16-14-10-6-4-8-12(14)13-9-5-7-11-15(13)16/h4-11,16H,1-3H3
computed SMILES=O=C(O[Si](C)(C)C)C1C=2C=CC=CC2C=3C=CC=CC31
ionization energy=70 eV
accession=JP001924
date=2016.01.19 (Created 2008.10.21, modified 2011.05.06)
author=KOGA M, UNIV. OF OCCUPATIONAL AND ENVIRONMENTAL HEALTH
license=CC BY-NC-SA
exact mass=282.10761
ion type=[M]+*
computed spectral entropy=2.476225546290445
computed normalized entropy=0.7144876631511577
SPLASH=splash10-00di-9200000000-4050903235737411937d
submitter=submitter = University of Tokyo Team (Faculty of Engineering, University of Tokyo)
MoNA Rating=3.75

>  <NUM PEAKS>  (5191) 
32

>  <MASS SPECTRAL PEAKS>  (5191) 
43 2
44 10.4
45 12.6
49 0.47
61 2.7
63 4
70 2.7
73 99.99
74 8.9
75 18.2
77 17.4
79 0.28
82 3.2
91 2.5
92 2.5
93 0.44
95 2.9
104 2.8
115 2.6
117 0.27
152 2.9
163 6.5
164 8.7
165 2.16
166 9.9
167 3
180 3.4
192 0.32
238 5.2
239 2.6
267 2.7
282 2.4

>  <PREDICTED SPECTRUM>  (5191) 
27 1
30 11
31 3
38 39
39 121
40 25
41 18
42 33
43 89
44 163
45 354
46 51
47 100
50 59
51 91
52 5
56 28
57 94
58 69
59 168
60 40
61 116
62 72
63 129
64 45
65 52
66 6
69 37
72 25
73 999
74 287
75 353
76 83
77 102
78 14
79 29
83 23
85 1
86 0
87 73
88 31
89 66
91 74
93 18
94 8
95 6
99 26
102 12
103 36
104 2
113 22
115 107
117 26
123 32
125 0
126 77
128 48
135 23
137 10
138 9
139 49
149 50
150 94
151 97
152 153
153 5
163 134
164 199
165 373
166 287
167 115
176 23
238 111
239 53
266 52
267 117
268 50
282 202
283 84
284 28

$$$$

     RDKit          2D

 19 20  0  0  0  0  0  0  0  0999 V2000
   -4.7875    3.1612    0.0000 C   0  0  0  0  0  0  0  0  0  0  0  0
   -5.3365    1.1122    0.0000 C   0  0  0  0  0  0  0  0  0  0  0  0
   -3.2875    0.5631    0.0000 C   0  0  0  0  0  0  0  0  0  0  0  0
    3.7567    0.3622    0.0000 C   0  0  0  0  0  0  0  0  0  0  0  0
    3.7572    1.8630    0.0000 C   0  0  0  0  0  0  0  0  0  0  0  0
    2.4572   -0.3887    0.0000 C   0  0  0  0  0  0  0  0  0  0  0  0
    0.6039    6.4361    0.0000 C   0  0  0  0  0  0  0  0  0  0  0  0
   -0.8919    6.4083    0.0000 C   0  0  0  0  0  0  0  0  0  0  0  0
    2.4582    2.6130    0.0000 C   0  0  0  0  0  0  0  0  0  0  0  0
    1.1582    0.3613    0.0000 C   0  0  0  0  0  0  0  0  0  0  0  0
    1.0712    4.9939    0.0000 C   0  0  0  0  0  0  0  0  0  0  0  0
   -1.3448    4.9887    0.0000 C   0  0  0  0  0  0  0  0  0  0  0  0
    1.1587    1.8622    0.0000 C   0  0  0  0  0  0  0  0  0  0  0  0
   -0.1404    4.1122    0.0000 C   0  0  0  0  0  0  0  0  0  0  0  0
   -0.1404    2.6122    0.0000 C   0  0  0  0  0  0  0  0  0  0  0  0
   -1.4394    1.8622    0.0000 C   0  0  0  0  0  0  0  0  0  0  0  0
   -1.4394    0.3622    0.0000 O   0  0  0  0  0  0  0  0  0  0  0  0
   -2.7384    2.6122    0.0000 O   0  0  0  0  0  0  0  0  0  0  0  0
   -4.0375    1.8622    0.0000 Si  0  0  0  0  0  4  0  0  0  0  0  0
  5  4  2  0
  6  4  1  0
  8  7  1  0
  9  5  1  0
 10  6  2  0
 11  7  1  0
 12  8  1  0
 13  9  2  0
 13 10  1  0
 14 11  1  0
 14 12  1  0
 15 13  1  0
 15 14  1  0
 16 15  1  0
 17 16  2  0
 18 16  1  0
 19  1  1  0
 19  2  1  0
 19  3  1  0
 19 18  1  0
M  END
>  <NAME>  (5192) 
ALPHA-CYCLOPENTYL-ALPHA-PHENYLACETIC ACIDTRIMETHYLSILYL ESTER

>  <SYNONYMS>  (5192) 


>  <SPECTRUM TYPE>  (5192) 
MS1

>  <INSTRUMENT TYPE>  (5192) 
EI-B

>  <INSTRUMENT>  (5192) 
JEOL JMS-01-SG

>  <ION MODE>  (5192) 
P

>  <INCHIKEY>  (5192) 
LLMWGMYFEFHAIY-UHFFFAOYSA-N

>  <FORMULA>  (5192) 
C16H24O2Si

>  <EXACT MASS>  (5192) 
276.154556538

>  <MW>  (5192) 
276

>  <ID>  (5192) 
JP001923

>  <CONTRIBUTOR>  (5192) 
University of Tokyo Team, {Faculty of Engineering, University of Tokyo

>  <COMMENT>  (5192) 
SMILES=c(c2)ccc(c2)C(C(C1)CCC1)C(=O)O[Si](C)(C)C
InChI=InChI=1S/C16H24O2Si/c1-19(2,3)18-16(17)15(14-11-7-8-12-14)13-9-5-4-6-10-13/h4-6,9-10,14-15H,7-8,11-12H2,1-3H3
computed SMILES=O=C(O[Si](C)(C)C)C(C=1C=CC=CC1)C2CCCC2
accession=JP001923
date=2016.01.19 (Created 2008.10.21, modified 2011.05.06)
author=KOGA M, UNIV. OF OCCUPATIONAL AND ENVIRONMENTAL HEALTH
license=CC BY-NC-SA
exact mass=276.15456
ionization energy=70 eV
ion type=[M]+*
computed spectral entropy=2.0741790078730498
computed normalized entropy=0.7481019421436098
SPLASH=splash10-05fr-9410000000-1a009d85dbde8dc61b1b
submitter=submitter = University of Tokyo Team (Faculty of Engineering, University of Tokyo)
MoNA Rating=3.75

>  <NUM PEAKS>  (5192) 
16

>  <MASS SPECTRAL PEAKS>  (5192) 
45 9.9
67 6.5
73 99.99
74 1.7
75 22.7
77 6.1
91 24.3
115 0.55
117 8.5
118 12.2
158 67.9
159 0.99
208 12.2
232 9.3
261 10.2
262 2.3

>  <PREDICTED SPECTRUM>  (5192) 
27 72
28 36
29 51
39 68
40 22
41 167
43 27
44 70
45 178
46 5
47 183
50 32
51 84
52 59
53 128
54 80
55 217
56 72
57 54
58 18
59 100
60 30
61 98
62 62
63 88
64 17
65 96
66 13
67 205
68 84
69 286
70 209
71 132
72 101
73 999
74 313
75 588
76 156
77 271
78 148
79 85
82 72
85 80
86 10
88 32
89 183
90 219
91 382
92 63
97 142
98 14
99 42
102 53
103 119
104 127
105 44
114 2
115 190
116 25
118 297
127 117
128 38
129 75
134 14
141 38
142 72
143 137
144 51
147 4
157 171
158 213
159 487
160 67
161 19
163 56
186 231
193 162
194 254
195 121
232 145
233 3
261 330
262 154
276 101
277 59

$$$$

     RDKit          2D

 17 16  0  0  0  0  0  0  0  0999 V2000
   -1.4094    2.7353    0.0000 C   0  0  0  0  0  0  0  0  0  0  0  0
    0.0906    5.3334    0.0000 C   0  0  0  0  0  0  0  0  0  0  0  0
   -1.9584    4.7844    0.0000 C   0  0  0  0  0  0  0  0  0  0  0  0
   10.4829    2.7353    0.0000 C   0  0  0  0  0  0  0  0  0  0  0  0
   11.0320    4.7844    0.0000 C   0  0  0  0  0  0  0  0  0  0  0  0
    8.9829    5.3334    0.0000 C   0  0  0  0  0  0  0  0  0  0  0  0
    4.5368    4.0344    0.0000 C   0  0  0  0  0  0  0  0  0  0  0  0
    3.2377    3.2844    0.0000 C   0  0  0  0  0  0  0  0  0  0  0  0
    5.8358    3.2844    0.0000 C   0  0  0  0  0  0  0  0  0  0  0  0
    1.9387    4.0344    0.0000 C   0  0  0  0  0  0  0  0  0  0  0  0
    7.1349    4.0344    0.0000 C   0  0  0  0  0  0  0  0  0  0  0  0
    1.9387    5.5344    0.0000 O   0  0  0  0  0  0  0  0  0  0  0  0
    7.1349    5.5344    0.0000 O   0  0  0  0  0  0  0  0  0  0  0  0
    0.6397    3.2844    0.0000 O   0  0  0  0  0  0  0  0  0  0  0  0
    8.4339    3.2844    0.0000 O   0  0  0  0  0  0  0  0  0  0  0  0
   -0.6594    4.0344    0.0000 Si  0  0  0  0  0  4  0  0  0  0  0  0
    9.7329    4.0344    0.0000 Si  0  0  0  0  0  4  0  0  0  0  0  0
  8  7  1  0
  9  7  1  0
 10  8  1  0
 11  9  1  0
 12 10  2  0
 13 11  2  0
 14 10  1  0
 15 11  1  0
 16  1  1  0
 16  2  1  0
 16  3  1  0
 16 14  1  0
 17  4  1  0
 17  5  1  0
 17  6  1  0
 17 15  1  0
M  END
>  <NAME>  (5193) 
PENTANEDIOIC ACID BIS(TRIMETHYLSILYL) ESTER

>  <SYNONYMS>  (5193) 
BIS(TRIMETHYLSILYL) GLUTARATE

>  <SPECTRUM TYPE>  (5193) 
MS1

>  <INSTRUMENT TYPE>  (5193) 
EI-B

>  <INSTRUMENT>  (5193) 
JEOL JMS-01-SG

>  <ION MODE>  (5193) 
P

>  <INCHIKEY>  (5193) 
UWZGPXOJVOOLSG-UHFFFAOYSA-N

>  <FORMULA>  (5193) 
C11H24O4Si2

>  <EXACT MASS>  (5193) 
276.12131230800003

>  <MW>  (5193) 
276

>  <ID>  (5193) 
JP001922

>  <CONTRIBUTOR>  (5193) 
University of Tokyo Team, {Faculty of Engineering, University of Tokyo

>  <COMMENT>  (5193) 
SMILES=O=C(CCCC(=O)O[Si](C)(C)C)O[Si](C)(C)C
InChI=InChI=1S/C11H24O4Si2/c1-16(2,3)14-10(12)8-7-9-11(13)15-17(4,5)6/h7-9H2,1-6H3
computed SMILES=O=C(O[Si](C)(C)C)CCCC(=O)O[Si](C)(C)C
accession=JP001922
date=2016.01.19 (Created 2008.10.21, modified 2011.05.06)
author=KOGA M, UNIV. OF OCCUPATIONAL AND ENVIRONMENTAL HEALTH
license=CC BY-NC-SA
exact mass=276.12131
ionization energy=70 eV
ion type=[M]+*
computed spectral entropy=2.268544430221297
computed normalized entropy=0.8182044498791361
SPLASH=splash10-0002-9820000000-c555698fdca408b9ae89
submitter=submitter = University of Tokyo Team (Faculty of Engineering, University of Tokyo)
MoNA Rating=3.75

>  <NUM PEAKS>  (5193) 
16

>  <MASS SPECTRAL PEAKS>  (5193) 
43 7.5
45 14.1
55 46.6
73 8.83
74 9.3
75 40.5
97 14.4
129 1.19
147 99.99
148 20.2
149 16.6
158 2.22
204 7.7
233 8
261 21.9
262 4.7

>  <PREDICTED SPECTRUM>  (5193) 
26 16
27 80
28 39
29 89
31 29
38 13
39 124
40 60
41 261
42 165
43 250
44 222
45 390
46 121
47 235
48 62
49 64
51 7
52 7
53 121
54 52
55 529
56 124
57 140
58 208
59 307
60 126
61 208
62 15
66 60
67 95
68 133
69 338
70 142
71 86
72 321
73 999
74 310
75 807
76 206
77 203
78 27
79 136
80 23
81 126
83 73
84 51
85 77
86 110
87 99
88 66
89 133
91 46
95 27
96 149
97 298
98 149
99 245
100 74
101 191
102 28
103 189
104 36
105 67
111 55
112 23
113 78
114 63
115 240
116 263
117 380
118 89
119 91
125 51
127 124
128 19
129 436
130 243
131 275
132 140
133 228
134 64
135 36
141 17
142 119
143 306
144 210
145 302
146 159
147 705
148 285
149 377
150 162
151 81
155 70
157 107
158 199
159 216
160 95
161 84
162 44
171 258
172 152
173 162
174 45
175 66
176 35
186 218
187 204
188 56
189 84
190 62
201 31
203 79
204 283
205 98
215 14
217 273
218 114
219 120
220 54
221 42
231 5
232 70
233 76
234 53
245 76
261 557
262 167
263 172
264 46

$$$$

     RDKit          2D

 18 18  0  0  0  0  0  0  0  0999 V2000
    7.5043    3.5800    0.0000 C   0  0  0  0  0  0  0  0  0  0  0  0
    7.5043   -3.9200    0.0000 C   0  0  0  0  0  0  0  0  0  0  0  0
    0.4590    0.3783    0.0000 C   0  0  0  0  0  0  0  0  0  0  0  0
   -1.5900   -0.1710    0.0000 C   0  0  0  0  0  0  0  0  0  0  0  0
   -1.0406   -2.2200    0.0000 C   0  0  0  0  0  0  0  0  0  0  0  0
    7.5053    0.5800    0.0000 C   0  0  0  0  0  0  0  0  0  0  0  0
    7.5053   -0.9200    0.0000 C   0  0  0  0  0  0  0  0  0  0  0  0
    4.9053    0.5800    0.0000 C   0  0  0  0  0  0  0  0  0  0  0  0
    3.6064   -1.6702    0.0000 C   0  0  0  0  0  0  0  0  0  0  0  0
    4.9053   -0.9200    0.0000 C   0  0  0  0  0  0  0  0  0  0  0  0
    6.2053    1.3300    0.0000 C   0  0  0  0  0  0  0  0  0  0  0  0
    6.2053   -1.6700    0.0000 C   0  0  0  0  0  0  0  0  0  0  0  0
    2.3072   -0.9204    0.0000 C   0  0  0  0  0  0  0  0  0  0  0  0
    2.3070    0.5796    0.0000 O   0  0  0  0  0  0  0  0  0  0  0  0
    6.2053    2.8300    0.0000 O   0  0  0  0  0  0  0  0  0  0  0  0
    6.2053   -3.1700    0.0000 O   0  0  0  0  0  0  0  0  0  0  0  0
    1.0083   -1.6706    0.0000 O   0  0  0  0  0  0  0  0  0  0  0  0
   -0.2908   -0.9208    0.0000 Si  0  0  0  0  0  4  0  0  0  0  0  0
  7  6  2  0
 10  8  1  0
 10  9  1  0
 11  6  1  0
 11  8  2  0
 12  7  1  0
 12 10  2  0
 13  9  1  0
 14 13  2  0
 15  1  1  0
 15 11  1  0
 16  2  1  0
 16 12  1  0
 17 13  1  0
 18  3  1  0
 18  4  1  0
 18  5  1  0
 18 17  1  0
M  END
>  <NAME>  (5194) 
2,5-DIMETHOXYPHENYLACETIC ACID TRIMETHYLSILYL ESTER

>  <SYNONYMS>  (5194) 


>  <SPECTRUM TYPE>  (5194) 
MS1

>  <INSTRUMENT TYPE>  (5194) 
EI-B

>  <INSTRUMENT>  (5194) 
JEOL JMS-01-SG

>  <ION MODE>  (5194) 
P

>  <INCHIKEY>  (5194) 
ZPSFULASMKZAKO-UHFFFAOYSA-N

>  <FORMULA>  (5194) 
C13H20O4Si

>  <EXACT MASS>  (5194) 
268.11308565

>  <MW>  (5194) 
268

>  <ID>  (5194) 
JP001921

>  <CONTRIBUTOR>  (5194) 
University of Tokyo Team, {Faculty of Engineering, University of Tokyo

>  <COMMENT>  (5194) 
SMILES=COc(c1)cc(CC(=O)O[Si](C)(C)C)c(OC)c1
InChI=InChI=1S/C13H20O4Si/c1-15-11-6-7-12(16-2)10(8-11)9-13(14)17-18(3,4)5/h6-8H,9H2,1-5H3
computed SMILES=O=C(O[Si](C)(C)C)CC1=CC(OC)=CC=C1OC
accession=JP001921
date=2016.01.19 (Created 2008.10.21, modified 2011.05.06)
author=KOGA M, UNIV. OF OCCUPATIONAL AND ENVIRONMENTAL HEALTH
license=CC BY-NC-SA
exact mass=268.11309
ionization energy=70 eV
ion type=[M]+*
computed spectral entropy=2.5610119732270675
computed normalized entropy=0.7529736401171485
SPLASH=splash10-00di-9260000000-48c4840500464832f833
submitter=submitter = University of Tokyo Team (Faculty of Engineering, University of Tokyo)
MoNA Rating=3.75

>  <NUM PEAKS>  (5194) 
30

>  <MASS SPECTRAL PEAKS>  (5194) 
45 7.6
47 2.9
65 3.4
73 99.99
74 5.9
75 28.2
77 11.1
78 0.38
89 3.8
91 5.5
121 7.2
134 0.34
135 6.4
151 4.2
163 4.2
178 0.25
179 5.9
193 5.9
194 12.3
195 0.34
207 2.9
209 43.5
210 10.2
211 0.29
224 2.5
238 12.8
239 2.9
253 0.76
268 32.9
269 6.4

>  <PREDICTED SPECTRUM>  (5194) 
39 2
44 76
45 346
46 0
47 176
51 71
52 39
53 15
59 110
61 82
63 36
65 111
67 3
72 87
73 999
74 201
75 488
76 69
77 321
78 111
79 30
89 177
90 7
91 259
92 96
93 5
105 146
106 71
107 20
117 13
119 64
120 17
121 273
122 49
135 182
136 102
147 27
148 33
149 85
150 128
151 412
152 47
163 5
177 51
178 216
179 252
180 31
181 94
193 232
194 336
195 215
196 73
207 53
209 648
210 308
211 112
225 51
238 178
253 302
254 121
268 730
269 283
270 162

$$$$

     RDKit          2D

 18 18  0  0  0  0  0  0  0  0999 V2000
    7.4125   -2.2267    0.0000 C   0  0  0  0  0  0  0  0  0  0  0  0
   -4.8347    2.0532    0.0000 C   0  0  0  0  0  0  0  0  0  0  0  0
   -6.8864    1.5142    0.0000 C   0  0  0  0  0  0  0  0  0  0  0  0
   -6.3475   -0.5375    0.0000 C   0  0  0  0  0  0  0  0  0  0  0  0
    6.1073   -1.4875    0.0000 C   0  0  0  0  0  0  0  0  0  0  0  0
    4.8145   -2.2482    0.0000 C   0  0  0  0  0  0  0  0  0  0  0  0
   -0.3987    0.7386    0.0000 C   0  0  0  0  0  0  0  0  0  0  0  0
   -1.7122   -1.4862    0.0000 C   0  0  0  0  0  0  0  0  0  0  0  0
    0.8858    0.0138    0.0000 C   0  0  0  0  0  0  0  0  0  0  0  0
   -0.3877   -2.2803    0.0000 C   0  0  0  0  0  0  0  0  0  0  0  0
    3.5093   -1.5089    0.0000 C   0  0  0  0  0  0  0  0  0  0  0  0
   -1.6977   -0.0114    0.0000 C   0  0  0  0  0  0  0  0  0  0  0  0
    0.9113   -1.5303    0.0000 C   0  0  0  0  0  0  0  0  0  0  0  0
   -2.9930    0.7450    0.0000 C   0  0  0  0  0  0  0  0  0  0  0  0
   -2.9857    2.2450    0.0000 O   0  0  0  0  0  0  0  0  0  0  0  0
    2.2165   -2.2696    0.0000 O   0  0  0  0  0  0  0  0  0  0  0  0
   -4.2958    0.0014    0.0000 O   0  0  0  0  0  0  0  0  0  0  0  0
   -5.5911    0.7578    0.0000 Si  0  0  0  0  0  4  0  0  0  0  0  0
  5  1  1  0
  6  5  1  0
  9  7  2  0
 10  8  1  0
 11  6  1  0
 12  7  1  0
 12  8  2  0
 13  9  1  0
 13 10  2  0
 14 12  1  0
 15 14  2  0
 16 11  1  0
 16 13  1  0
 17 14  1  0
 18  2  1  0
 18  3  1  0
 18  4  1  0
 18 17  1  0
M  END
>  <NAME>  (5195) 
4-BUTOXYBENZOIC ACID TRIMETHYLSILYL ESTER

>  <SYNONYMS>  (5195) 


>  <SPECTRUM TYPE>  (5195) 
MS1

>  <INSTRUMENT TYPE>  (5195) 
EI-B

>  <INSTRUMENT>  (5195) 
JEOL JMS-01-SG

>  <ION MODE>  (5195) 
P

>  <INCHIKEY>  (5195) 
SJNBPQNORONGJJ-UHFFFAOYSA-N

>  <FORMULA>  (5195) 
C14H22O3Si

>  <EXACT MASS>  (5195) 
266.133821094

>  <MW>  (5195) 
266

>  <ID>  (5195) 
JP001920

>  <CONTRIBUTOR>  (5195) 
University of Tokyo Team, {Faculty of Engineering, University of Tokyo

>  <COMMENT>  (5195) 
computed SMILES=O=C(O[Si](C)(C)C)C1=CC=C(OCCCC)C=C1
SMILES=CCCCOc(c1)ccc(c1)C(=O)O[Si](C)(C)C
InChI=InChI=1S/C14H22O3Si/c1-5-6-11-16-13-9-7-12(8-10-13)14(15)17-18(2,3)4/h7-10H,5-6,11H2,1-4H3
accession=JP001920
date=2016.01.19 (Created 2008.10.21, modified 2011.05.06)
author=KOGA M, UNIV. OF OCCUPATIONAL AND ENVIRONMENTAL HEALTH
license=CC BY-NC-SA
exact mass=266.13382
ionization energy=70 eV
ion type=[M]+*
computed spectral entropy=2.360266968975177
computed normalized entropy=0.8165963297029866
SPLASH=splash10-0002-3940000000-e57dab3b63b62ac25a37
submitter=submitter = University of Tokyo Team (Faculty of Engineering, University of Tokyo)
MoNA Rating=3.75

>  <NUM PEAKS>  (5195) 
18

>  <MASS SPECTRAL PEAKS>  (5195) 
57 3.2
65 5.8
73 14.1
75 2.32
77 18
92 5.1
93 10.3
121 4.9
122 5.1
151 34.8
177 10.9
195 99.99
196 12.9
207 34.8
208 4.5
251 7.61
252 12.9
266 22.5

>  <PREDICTED SPECTRUM>  (5195) 
15 0
26 9
27 113
28 26
29 189
38 47
39 161
40 29
41 358
42 96
43 227
44 49
45 246
46 59
47 140
49 0
50 109
51 99
52 58
53 159
54 76
55 251
56 167
57 260
58 86
59 130
60 56
61 113
62 64
63 201
64 214
65 285
66 69
67 76
68 51
69 162
70 74
71 70
72 40
73 495
74 188
75 415
76 212
77 212
78 66
79 117
80 59
81 86
83 30
85 32
89 62
90 52
91 195
92 279
93 187
94 37
95 113
96 74
97 5
102 48
103 198
104 176
105 131
106 37
107 79
108 98
109 63
110 84
111 32
112 4
117 46
118 36
119 101
120 157
121 341
122 209
123 47
128 5
131 78
132 75
133 72
135 162
136 70
137 104
138 130
139 325
140 78
148 24
149 243
150 88
151 197
152 158
153 93
154 105
163 30
164 7
165 105
166 142
167 150
168 68
176 40
177 472
178 146
179 235
180 71
181 103
191 47
192 27
193 293
194 203
195 541
196 203
197 65
205 5
207 340
208 215
209 394
210 307
211 73
223 62
224 41
237 4
249 18
251 999
252 429
253 244
254 66
265 34
266 672
267 302
268 128
269 34

$$$$

     RDKit          2D

 18 18  0  0  0  0  0  0  0  0999 V2000
   -7.7951   -1.5010    0.0000 C   0  0  0  0  0  0  0  0  0  0  0  0
    5.9472    0.2017    0.0000 C   0  0  0  0  0  0  0  0  0  0  0  0
    6.4959    2.2508    0.0000 C   0  0  0  0  0  0  0  0  0  0  0  0
    4.4468    2.7995    0.0000 C   0  0  0  0  0  0  0  0  0  0  0  0
   -6.4962   -0.7508    0.0000 C   0  0  0  0  0  0  0  0  0  0  0  0
   -5.1970   -1.5006    0.0000 C   0  0  0  0  0  0  0  0  0  0  0  0
   -3.8981   -0.7504    0.0000 C   0  0  0  0  0  0  0  0  0  0  0  0
   -2.5989   -1.5002    0.0000 C   0  0  0  0  0  0  0  0  0  0  0  0
   -1.3000    0.7500    0.0000 C   0  0  0  0  0  0  0  0  0  0  0  0
   -0.0000   -1.5000    0.0000 C   0  0  0  0  0  0  0  0  0  0  0  0
    0.0000    1.5000    0.0000 C   0  0  0  0  0  0  0  0  0  0  0  0
    1.3000   -0.7500    0.0000 C   0  0  0  0  0  0  0  0  0  0  0  0
   -1.3000   -0.7500    0.0000 C   0  0  0  0  0  0  0  0  0  0  0  0
    1.3000    0.7500    0.0000 C   0  0  0  0  0  0  0  0  0  0  0  0
    2.5989    1.5002    0.0000 C   0  0  0  0  0  0  0  0  0  0  0  0
    2.5987    3.0002    0.0000 O   0  0  0  0  0  0  0  0  0  0  0  0
    3.8981    0.7504    0.0000 O   0  0  0  0  0  0  0  0  0  0  0  0
    5.1970    1.5006    0.0000 Si  0  0  0  0  0  4  0  0  0  0  0  0
  5  1  1  0
  6  5  1  0
  7  6  1  0
  8  7  1  0
 11  9  2  0
 12 10  1  0
 13  8  1  0
 13  9  1  0
 13 10  2  0
 14 11  1  0
 14 12  2  0
 15 14  1  0
 16 15  2  0
 17 15  1  0
 18  2  1  0
 18  3  1  0
 18  4  1  0
 18 17  1  0
M  END
>  <NAME>  (5196) 
4-PENTYLBENZOIC ACID TRIMETHYLSILYL ESTER

>  <SYNONYMS>  (5196) 


>  <SPECTRUM TYPE>  (5196) 
MS1

>  <INSTRUMENT TYPE>  (5196) 
EI-B

>  <INSTRUMENT>  (5196) 
JEOL JMS-01-SG

>  <ION MODE>  (5196) 
P

>  <INCHIKEY>  (5196) 
JKDYEPCDZXAYSI-UHFFFAOYSA-N

>  <FORMULA>  (5196) 
C15H24O2Si

>  <EXACT MASS>  (5196) 
264.154556538

>  <MW>  (5196) 
264

>  <ID>  (5196) 
JP001919

>  <CONTRIBUTOR>  (5196) 
University of Tokyo Team, {Faculty of Engineering, University of Tokyo

>  <COMMENT>  (5196) 
SMILES=CCCCCc(c1)ccc(c1)C(=O)O[Si](C)(C)C
InChI=InChI=1S/C15H24O2Si/c1-5-6-7-8-13-9-11-14(12-10-13)15(16)17-18(2,3)4/h9-12H,5-8H2,1-4H3
computed SMILES=O=C(O[Si](C)(C)C)C1=CC=C(C=C1)CCCCC
accession=JP001919
date=2016.01.19 (Created 2008.10.21, modified 2011.05.06)
author=KOGA M, UNIV. OF OCCUPATIONAL AND ENVIRONMENTAL HEALTH
license=CC BY-NC-SA
exact mass=264.15456
ionization energy=70 eV
ion type=[M]+*
computed spectral entropy=2.054579139641583
computed normalized entropy=0.725176289301289
SPLASH=splash10-0002-3190000000-94d111fc3991dcfcb548
submitter=submitter = University of Tokyo Team (Faculty of Engineering, University of Tokyo)
MoNA Rating=3.75

>  <NUM PEAKS>  (5196) 
17

>  <MASS SPECTRAL PEAKS>  (5196) 
43 7.7
45 7.7
73 12.9
77 0.9
90 10.9
91 19.3
118 8.3
175 4.83
176 3.8
193 5.8
205 48.3
206 0.58
207 3.8
249 99.99
250 16.7
251 0.38
264 3.8

>  <PREDICTED SPECTRUM>  (5196) 
15 12
26 0
27 81
28 20
29 155
38 5
39 106
40 7
41 157
42 59
43 175
44 110
45 196
46 21
47 125
50 63
51 117
52 57
53 69
55 145
57 58
58 101
59 135
60 71
61 82
62 31
63 87
64 66
65 131
66 48
67 45
69 13
71 5
72 20
73 438
74 95
75 406
76 158
77 252
78 137
79 127
80 24
85 27
89 231
90 194
91 352
92 115
93 37
96 12
101 6
102 103
103 310
104 217
105 192
106 60
107 38
115 116
116 77
117 175
118 129
119 219
120 88
121 13
131 155
132 177
133 100
134 68
145 162
146 151
147 204
148 32
149 61
150 22
151 29
152 35
157 11
159 70
160 65
161 46
162 31
163 26
173 71
174 74
175 579
176 158
177 133
178 41
179 94
189 43
191 20
192 55
193 189
194 69
203 29
205 496
206 222
207 431
208 179
220 40
221 34
235 5
249 999
250 419
251 228
252 46
263 133
264 289
265 93
266 54

$$$$

     RDKit          2D

 16 15  0  0  0  0  0  0  0  0999 V2000
    2.2769   -1.6005    0.0000 C   0  0  0  0  0  0  0  0  0  0  0  0
    0.7769    0.9976    0.0000 C   0  0  0  0  0  0  0  0  0  0  0  0
    0.2279   -1.0514    0.0000 C   0  0  0  0  0  0  0  0  0  0  0  0
    7.4731    5.8995    0.0000 C   0  0  0  0  0  0  0  0  0  0  0  0
    8.0221    7.9486    0.0000 C   0  0  0  0  0  0  0  0  0  0  0  0
    5.9731    8.4976    0.0000 C   0  0  0  0  0  0  0  0  0  0  0  0
    4.1250    2.6986    0.0000 C   0  0  0  0  0  0  0  0  0  0  0  0
    4.1250    4.1986    0.0000 C   0  0  0  0  0  0  0  0  0  0  0  0
    2.8260    1.9486    0.0000 C   0  0  0  0  0  0  0  0  0  0  0  0
    5.4240    4.9486    0.0000 C   0  0  0  0  0  0  0  0  0  0  0  0
    1.5269    2.6986    0.0000 O   0  0  0  0  0  0  0  0  0  0  0  0
    6.7231    4.1986    0.0000 O   0  0  0  0  0  0  0  0  0  0  0  0
    2.8260    0.4486    0.0000 O   0  0  0  0  0  0  0  0  0  0  0  0
    5.4240    6.4486    0.0000 O   0  0  0  0  0  0  0  0  0  0  0  0
    1.5269   -0.3014    0.0000 Si  0  0  0  0  0  4  0  0  0  0  0  0
    6.7231    7.1986    0.0000 Si  0  0  0  0  0  4  0  0  0  0  0  0
  8  7  1  0
  9  7  1  0
 10  8  1  0
 11  9  2  0
 12 10  2  0
 13  9  1  0
 14 10  1  0
 15  1  1  0
 15  2  1  0
 15  3  1  0
 15 13  1  0
 16  4  1  0
 16  5  1  0
 16  6  1  0
 16 14  1  0
M  END
>  <NAME>  (5197) 
BUTANEDIOIC ACID BIS(TRIMETHYLSILYL) ESTER

>  <SYNONYMS>  (5197) 
BIS(TRIMETHYLSILYL) SUCCINATE

>  <SPECTRUM TYPE>  (5197) 
MS1

>  <INSTRUMENT TYPE>  (5197) 
EI-B

>  <INSTRUMENT>  (5197) 
JEOL JMS-01-SG

>  <ION MODE>  (5197) 
P

>  <INCHIKEY>  (5197) 
QUUDZINXVRFXLB-UHFFFAOYSA-N

>  <FORMULA>  (5197) 
C10H22O4Si2

>  <EXACT MASS>  (5197) 
262.105662244

>  <MW>  (5197) 
262

>  <ID>  (5197) 
JP001918

>  <CONTRIBUTOR>  (5197) 
University of Tokyo Team, {Faculty of Engineering, University of Tokyo

>  <COMMENT>  (5197) 
SMILES=O=C(CCC(=O)O[Si](C)(C)C)O[Si](C)(C)C
InChI=InChI=1S/C10H22O4Si2/c1-15(2,3)13-9(11)7-8-10(12)14-16(4,5)6/h7-8H2,1-6H3
computed SMILES=O=C(O[Si](C)(C)C)CCC(=O)O[Si](C)(C)C
accession=JP001918
date=2016.01.19 (Created 2008.10.21, modified 2011.05.06)
author=KOGA M, UNIV. OF OCCUPATIONAL AND ENVIRONMENTAL HEALTH
license=CC BY-NC-SA
exact mass=262.10566
ionization energy=70 eV
ion type=[M]+*
computed spectral entropy=1.9375114903475161
computed normalized entropy=0.7797119825458292
SPLASH=splash10-0002-7910000000-813556755505f2b49b53
submitter=submitter = University of Tokyo Team (Faculty of Engineering, University of Tokyo)
MoNA Rating=3.75

>  <NUM PEAKS>  (5197) 
12

>  <MASS SPECTRAL PEAKS>  (5197) 
45 18
55 17.5
56 13
73 1.65
74 11.6
75 44
147 99.99
148 3.64
149 9.9
172 7.1
247 21.3
248 4

>  <PREDICTED SPECTRUM>  (5197) 
26 27
27 155
28 53
29 29
39 86
40 35
41 198
42 104
43 224
44 194
45 361
46 122
47 223
48 35
49 12
53 106
54 81
55 500
56 212
57 198
58 203
59 265
60 103
61 230
62 22
66 74
67 22
69 36
71 71
72 260
73 999
74 269
75 713
76 177
77 159
79 19
81 75
82 156
83 264
84 103
85 203
86 67
87 105
88 70
89 159
90 5
91 71
97 80
98 65
99 193
100 133
101 322
102 80
103 251
104 88
105 53
111 21
113 128
115 197
116 249
117 391
118 118
119 125
120 1
127 92
128 59
129 492
130 257
131 320
132 103
133 281
134 33
135 67
143 61
144 162
145 586
146 278
147 755
148 324
149 354
150 157
151 44
157 250
158 175
159 49
161 18
162 42
171 13
172 326
173 246
174 127
175 77
176 11
189 78
190 73
191 105
201 17
203 102
204 219
205 146
206 67
207 47
217 81
218 73
219 180
220 89
231 17
247 529
248 236
249 160
250 41
262 87
263 1

$$$$

     RDKit          2D

 18 19  0  0  0  0  0  0  0  0999 V2000
    4.5281    4.4310    0.0000 C   0  0  0  0  0  0  0  0  0  0  0  0
    5.0771    6.4800    0.0000 C   0  0  0  0  0  0  0  0  0  0  0  0
    3.0281    7.0290    0.0000 C   0  0  0  0  0  0  0  0  0  0  0  0
   -2.7200   -1.0200    0.0000 C   0  0  0  0  0  0  0  0  0  0  0  0
   -2.7200    0.4800    0.0000 C   0  0  0  0  0  0  0  0  0  0  0  0
    2.4800   -1.0200    0.0000 C   0  0  0  0  0  0  0  0  0  0  0  0
   -1.4200   -1.7700    0.0000 C   0  0  0  0  0  0  0  0  0  0  0  0
    1.1800   -1.7700    0.0000 C   0  0  0  0  0  0  0  0  0  0  0  0
    2.4800    0.4800    0.0000 C   0  0  0  0  0  0  0  0  0  0  0  0
   -1.4200    1.2300    0.0000 C   0  0  0  0  0  0  0  0  0  0  0  0
    1.1800    2.7300    0.0000 C   0  0  0  0  0  0  0  0  0  0  0  0
   -0.1200   -1.0200    0.0000 C   0  0  0  0  0  0  0  0  0  0  0  0
    1.1800    1.2300    0.0000 C   0  0  0  0  0  0  0  0  0  0  0  0
   -0.1200    0.4800    0.0000 C   0  0  0  0  0  0  0  0  0  0  0  0
    2.4790    3.4800    0.0000 C   0  0  0  0  0  0  0  0  0  0  0  0
    3.7781    2.7300    0.0000 O   0  0  0  0  0  0  0  0  0  0  0  0
    2.4790    4.9800    0.0000 O   0  0  0  0  0  0  0  0  0  0  0  0
    3.7781    5.7300    0.0000 Si  0  0  0  0  0  4  0  0  0  0  0  0
  5  4  2  0
  7  4  1  0
  8  6  2  0
  9  6  1  0
 10  5  1  0
 12  7  2  0
 12  8  1  0
 13  9  2  0
 13 11  1  0
 14 10  2  0
 14 12  1  0
 14 13  1  0
 15 11  1  0
 16 15  2  0
 17 15  1  0
 18  1  1  0
 18  2  1  0
 18  3  1  0
 18 17  1  0
M  END
>  <NAME>  (5198) 
ALPHA-NAPHTHALENEACETIC ACID TRIMETHYLSILYL ESTER

>  <SYNONYMS>  (5198) 


>  <SPECTRUM TYPE>  (5198) 
MS1

>  <INSTRUMENT TYPE>  (5198) 
EI-B

>  <INSTRUMENT>  (5198) 
JEOL JMS-01-SG

>  <ION MODE>  (5198) 
P

>  <INCHIKEY>  (5198) 
FUAQQDROLSPOHA-UHFFFAOYSA-N

>  <FORMULA>  (5198) 
C15H18O2Si

>  <EXACT MASS>  (5198) 
258.107606346

>  <MW>  (5198) 
258

>  <ID>  (5198) 
JP001917

>  <CONTRIBUTOR>  (5198) 
University of Tokyo Team, {Faculty of Engineering, University of Tokyo

>  <COMMENT>  (5198) 
SMILES=O=C(O[Si](C)(C)C)Cc(c1)c(c2)c(ccc2)cc1
InChI=InChI=1S/C15H18O2Si/c1-18(2,3)17-15(16)11-13-9-6-8-12-7-4-5-10-14(12)13/h4-10H,11H2,1-3H3
computed SMILES=O=C(O[Si](C)(C)C)CC1=CC=CC=2C=CC=CC21
accession=JP001917
date=2016.01.19 (Created 2008.10.21, modified 2011.05.06)
license=CC BY-NC-SA
author=KOGA M, UNIV. OF OCCUPATIONAL AND ENVIRONMENTAL HEALTH
exact mass=258.10761
ionization energy=70 eV
ion type=[M]+*
computed spectral entropy=1.5184891641242972
computed normalized entropy=0.6110849935766589
SPLASH=splash10-00di-9010000000-187459ff1d4b9d9432a2
submitter=submitter = University of Tokyo Team (Faculty of Engineering, University of Tokyo)
MoNA Rating=3.75

>  <NUM PEAKS>  (5198) 
12

>  <MASS SPECTRAL PEAKS>  (5198) 
45 6.2
73 99.99
74 9.7
75 2.11
77 5.1
115 8.6
139 4
141 1.02
214 9.7
243 5.4
258 8.1
259 1.8

>  <PREDICTED SPECTRUM>  (5198) 
27 11
39 32
41 27
42 55
43 139
44 150
45 315
46 26
47 215
48 14
49 2
50 64
51 113
52 7
55 1
56 75
57 169
58 181
59 169
60 59
61 195
62 126
63 197
64 127
69 9
70 84
71 58
72 79
73 999
74 286
75 601
76 186
77 258
78 58
84 0
86 50
87 8
88 22
89 94
95 3
99 55
101 52
102 5
113 36
114 56
115 406
116 208
117 167
121 4
125 42
126 130
127 278
128 252
129 87
130 56
131 62
139 272
140 177
141 842
142 349
143 163
144 10
153 34
158 8
168 150
169 194
170 55
171 17
183 149
184 1
185 10
199 172
200 79
201 51
214 38
215 33
243 300
244 122
258 779
259 353
260 173
261 39

$$$$

     RDKit          2D

 17 16  0  0  0  0  0  0  0  0999 V2000
    4.1349    7.6373    0.0000 C   0  0  0  0  0  0  0  0  0  0  0  0
  -12.2036    8.9363    0.0000 C   0  0  0  0  0  0  0  0  0  0  0  0
  -12.7526    6.8873    0.0000 C   0  0  0  0  0  0  0  0  0  0  0  0
  -10.7036    6.3382    0.0000 C   0  0  0  0  0  0  0  0  0  0  0  0
    2.8358    8.3873    0.0000 C   0  0  0  0  0  0  0  0  0  0  0  0
    1.5368    7.6373    0.0000 C   0  0  0  0  0  0  0  0  0  0  0  0
    0.2377    8.3873    0.0000 C   0  0  0  0  0  0  0  0  0  0  0  0
   -1.0613    7.6373    0.0000 C   0  0  0  0  0  0  0  0  0  0  0  0
   -2.3603    8.3873    0.0000 C   0  0  0  0  0  0  0  0  0  0  0  0
   -3.6594    7.6373    0.0000 C   0  0  0  0  0  0  0  0  0  0  0  0
   -4.9584    8.3873    0.0000 C   0  0  0  0  0  0  0  0  0  0  0  0
   -6.2575    7.6373    0.0000 C   0  0  0  0  0  0  0  0  0  0  0  0
   -7.5565    8.3873    0.0000 C   0  0  0  0  0  0  0  0  0  0  0  0
   -8.8555    7.6373    0.0000 C   0  0  0  0  0  0  0  0  0  0  0  0
   -8.8555    6.1373    0.0000 O   0  0  0  0  0  0  0  0  0  0  0  0
  -10.1546    8.3873    0.0000 O   0  0  0  0  0  0  0  0  0  0  0  0
  -11.4536    7.6373    0.0000 Si  0  0  0  0  0  4  0  0  0  0  0  0
  5  1  2  0
  6  5  1  0
  7  6  1  0
  8  7  1  0
  9  8  1  0
 10  9  1  0
 11 10  1  0
 12 11  1  0
 13 12  1  0
 14 13  1  0
 15 14  2  0
 16 14  1  0
 17  2  1  0
 17  3  1  0
 17  4  1  0
 17 16  1  0
M  END
>  <NAME>  (5199) 
10-UNDECENOIC ACID TRIMETHYLSILYL ESTER

>  <SYNONYMS>  (5199) 


>  <SPECTRUM TYPE>  (5199) 
MS1

>  <INSTRUMENT TYPE>  (5199) 
EI-B

>  <INSTRUMENT>  (5199) 
JEOL JMS-01-SG

>  <ION MODE>  (5199) 
P

>  <INCHIKEY>  (5199) 
VMXRWOBZWPBJEY-UHFFFAOYSA-N

>  <FORMULA>  (5199) 
C14H28O2Si

>  <EXACT MASS>  (5199) 
256.185856666

>  <MW>  (5199) 
256

>  <ID>  (5199) 
JP001916

>  <CONTRIBUTOR>  (5199) 
University of Tokyo Team, {Faculty of Engineering, University of Tokyo

>  <COMMENT>  (5199) 
SMILES=C=CCCCCCCCCC(=O)O[Si](C)(C)C
InChI=InChI=1S/C14H28O2Si/c1-5-6-7-8-9-10-11-12-13-14(15)16-17(2,3)4/h5H,1,6-13H2,2-4H3
computed SMILES=O=C(O[Si](C)(C)C)CCCCCCCCC=C
accession=JP001916
date=2016.01.19 (Created 2008.10.21, modified 2011.05.06)
author=KOGA M, UNIV. OF OCCUPATIONAL AND ENVIRONMENTAL HEALTH
license=CC BY-NC-SA
exact mass=256.18586
ionization energy=70 eV
ion type=[M]+*
computed spectral entropy=2.6711245539120245
computed normalized entropy=0.7639407342770683
SPLASH=splash10-00b9-9400000000-fcef3116190d971a2469
submitter=submitter = University of Tokyo Team (Faculty of Engineering, University of Tokyo)
MoNA Rating=3.75

>  <NUM PEAKS>  (5199) 
33

>  <MASS SPECTRAL PEAKS>  (5199) 
44 4.2
45 10
47 6.3
55 2.36
61 6.3
67 9.4
69 8.4
72 0.52
73 99.99
74 10
75 98.4
76 0.63
77 18.9
81 9.4
82 5.7
83 0.57
84 7.8
95 5.7
96 7.8
97 0.57
98 6.3
116 5.2
117 73.1
118 0.57
124 6.3
129 31
131 20.5
132 1.89
145 14.2
147 8.4
166 3.6
241 5.36
242 5.7

>  <PREDICTED SPECTRUM>  (5199) 
15 11
26 39
27 84
28 47
29 109
31 25
37 6
38 16
39 182
40 69
41 339
42 197
43 192
44 120
45 265
46 97
47 219
48 24
49 35
50 13
51 27
52 38
53 176
54 240
55 522
56 164
57 133
58 138
59 199
60 120
61 216
62 18
63 19
65 59
66 72
67 324
68 255
69 421
70 181
71 111
72 244
73 898
74 276
75 999
76 293
77 235
78 102
79 210
80 119
81 317
82 255
83 256
84 215
85 171
86 107
87 98
88 86
89 98
90 29
91 144
92 49
93 223
94 112
95 300
96 234
97 209
98 172
99 188
100 59
101 142
102 53
103 142
104 15
105 127
106 72
107 141
108 15
109 223
110 189
111 158
112 101
113 102
114 15
115 163
116 260
117 863
118 261
119 264
120 88
121 128
122 114
123 233
124 221
125 167
126 89
127 92
129 661
130 234
131 301
132 451
133 212
134 119
135 49
136 20
137 146
138 175
139 35
141 92
142 40
143 212
144 59
145 468
146 219
147 86
148 72
149 71
151 54
155 151
156 81
157 138
158 73
159 193
160 115
161 137
166 310
167 122
168 32
169 110
170 87
171 208
172 67
173 181
174 81
175 19
181 25
183 74
184 46
185 205
186 105
187 104
188 78
195 11
197 117
198 15
199 182
200 49
201 119
202 16
211 52
212 60
213 162
214 79
215 40
223 58
225 44
227 44
241 804
242 363
243 169
244 39
256 148
257 62

$$$$

     RDKit          2D

 17 17  0  0  0  0  0  0  0  0999 V2000
    3.5571   -1.9933    0.0000 C   0  0  0  0  0  0  0  0  0  0  0  0
    4.8566    1.7571    0.0000 C   0  0  0  0  0  0  0  0  0  0  0  0
   -3.4871    3.8057    0.0000 C   0  0  0  0  0  0  0  0  0  0  0  0
   -5.5362    3.2567    0.0000 C   0  0  0  0  0  0  0  0  0  0  0  0
   -4.9871    1.2076    0.0000 C   0  0  0  0  0  0  0  0  0  0  0  0
   -0.3405    0.2558    0.0000 C   0  0  0  0  0  0  0  0  0  0  0  0
    0.9585   -0.4942    0.0000 C   0  0  0  0  0  0  0  0  0  0  0  0
    0.9595    2.5075    0.0000 C   0  0  0  0  0  0  0  0  0  0  0  0
   -0.3400    1.7567    0.0000 C   0  0  0  0  0  0  0  0  0  0  0  0
    2.2580    0.2567    0.0000 C   0  0  0  0  0  0  0  0  0  0  0  0
    2.2585    1.7575    0.0000 C   0  0  0  0  0  0  0  0  0  0  0  0
   -1.6391    2.5067    0.0000 C   0  0  0  0  0  0  0  0  0  0  0  0
   -1.6391    4.0067    0.0000 O   0  0  0  0  0  0  0  0  0  0  0  0
    3.5571   -0.4933    0.0000 O   0  0  0  0  0  0  0  0  0  0  0  0
    3.5577    2.5073    0.0000 O   0  0  0  0  0  0  0  0  0  0  0  0
   -2.9381    1.7567    0.0000 O   0  0  0  0  0  0  0  0  0  0  0  0
   -4.2371    2.5067    0.0000 Si  0  0  0  0  0  4  0  0  0  0  0  0
  7  6  2  0
  9  6  1  0
  9  8  2  0
 10  7  1  0
 11  8  1  0
 11 10  2  0
 12  9  1  0
 13 12  2  0
 14  1  1  0
 14 10  1  0
 15  2  1  0
 15 11  1  0
 16 12  1  0
 17  3  1  0
 17  4  1  0
 17  5  1  0
 17 16  1  0
M  END
>  <NAME>  (5200) 
3,4-DIMETHOXYBENZOIC ACID TRIMETHYLSILYL ESTER

>  <SYNONYMS>  (5200) 


>  <SPECTRUM TYPE>  (5200) 
MS1

>  <INSTRUMENT TYPE>  (5200) 
EI-B

>  <INSTRUMENT>  (5200) 
JEOL JMS-01-SG

>  <ION MODE>  (5200) 
P

>  <INCHIKEY>  (5200) 
JZIXRRXJQVBHJP-UHFFFAOYSA-N

>  <FORMULA>  (5200) 
C12H18O4Si

>  <EXACT MASS>  (5200) 
254.09743558600002

>  <MW>  (5200) 
254

>  <ID>  (5200) 
JP001915

>  <CONTRIBUTOR>  (5200) 
University of Tokyo Team, {Faculty of Engineering, University of Tokyo

>  <COMMENT>  (5200) 
SMILES=COc(c1)c(OC)cc(c1)C(=O)O[Si](C)(C)C
InChI=InChI=1S/C12H18O4Si/c1-14-10-7-6-9(8-11(10)15-2)12(13)16-17(3,4)5/h6-8H,1-5H3
computed SMILES=O=C(O[Si](C)(C)C)C1=CC=C(OC)C(OC)=C1
accession=JP001915
date=2016.01.19 (Created 2008.10.21, modified 2011.05.06)
author=KOGA M, UNIV. OF OCCUPATIONAL AND ENVIRONMENTAL HEALTH
license=CC BY-NC-SA
exact mass=254.09744
ionization energy=70 eV
ion type=[M]+*
computed spectral entropy=1.9379123727241936
computed normalized entropy=0.7798733094820791
SPLASH=splash10-00kk-2950000000-d9b7cc7fdc185e89c1fa
submitter=submitter = University of Tokyo Team (Faculty of Engineering, University of Tokyo)
MoNA Rating=3.75

>  <NUM PEAKS>  (5200) 
12

>  <MASS SPECTRAL PEAKS>  (5200) 
73 11
75 14.9
77 20.1
79 0.9
137 12.3
165 90.9
195 99.99
196 1.42
239 75.9
240 11
254 35
255 6.4

>  <PREDICTED SPECTRUM>  (5200) 
15 81
26 13
27 51
28 37
29 90
31 8
38 38
39 93
40 29
41 64
42 51
43 96
44 87
45 247
46 30
47 132
49 31
50 193
51 239
52 92
53 208
54 51
55 159
56 100
57 127
58 119
59 232
60 43
61 112
62 104
63 244
64 154
65 154
66 157
67 125
68 51
69 104
70 43
71 9
72 55
73 363
74 177
75 350
76 233
77 429
78 205
79 390
80 110
81 114
82 53
83 76
84 4
88 2
89 155
90 59
91 190
92 313
93 172
94 181
95 145
96 36
97 46
98 9
102 0
103 40
104 184
105 167
106 198
107 291
108 104
109 79
110 33
111 54
117 53
119 155
120 220
121 317
122 319
123 225
124 54
126 32
132 11
133 23
134 107
135 165
136 201
137 406
138 133
139 26
148 8
149 165
150 100
151 151
152 38
153 31
163 87
164 185
165 999
166 447
167 215
168 18
177 86
178 23
179 193
180 131
181 98
182 17
193 76
194 7
195 564
196 299
197 139
209 174
210 82
211 102
223 199
224 260
225 114
227 3
239 915
240 359
241 193
242 29
253 50
254 709
255 298
256 159
257 42

$$$$

     RDKit          2D

 17 17  0  0  0  0  0  0  0  0999 V2000
   -4.7795    3.5092    0.0000 C   0  0  0  0  0  0  0  0  0  0  0  0
    6.1626   -0.0656    0.0000 C   0  0  0  0  0  0  0  0  0  0  0  0
    8.2143    0.4733    0.0000 C   0  0  0  0  0  0  0  0  0  0  0  0
    7.6753    2.5250    0.0000 C   0  0  0  0  0  0  0  0  0  0  0  0
   -0.8715    1.2617    0.0000 C   0  0  0  0  0  0  0  0  0  0  0  0
    0.4421    3.4865    0.0000 C   0  0  0  0  0  0  0  0  0  0  0  0
    1.7229    1.2553    0.0000 C   0  0  0  0  0  0  0  0  0  0  0  0
   -2.1560    1.9865    0.0000 C   0  0  0  0  0  0  0  0  0  0  0  0
   -0.8825    4.2807    0.0000 C   0  0  0  0  0  0  0  0  0  0  0  0
    3.0256    1.9989    0.0000 C   0  0  0  0  0  0  0  0  0  0  0  0
    0.4275    2.0117    0.0000 C   0  0  0  0  0  0  0  0  0  0  0  0
   -2.1815    3.5307    0.0000 C   0  0  0  0  0  0  0  0  0  0  0  0
    4.3209    1.2425    0.0000 C   0  0  0  0  0  0  0  0  0  0  0  0
    4.3135   -0.2575    0.0000 O   0  0  0  0  0  0  0  0  0  0  0  0
   -3.4867    4.2699    0.0000 O   0  0  0  0  0  0  0  0  0  0  0  0
    5.6236    1.9861    0.0000 O   0  0  0  0  0  0  0  0  0  0  0  0
    6.9190    1.2297    0.0000 Si  0  0  0  0  0  4  0  0  0  0  0  0
  8  5  2  0
  9  6  1  0
  7 10  2  0
 11  5  1  0
 11  6  2  0
 11  7  1  0
 12  8  1  0
 12  9  2  0
 13 10  1  0
 14 13  2  0
 15  1  1  0
 15 12  1  0
 16 13  1  0
 17  2  1  0
 17  3  1  0
 17  4  1  0
 17 16  1  0
M  END
>  <NAME>  (5201) 
PARA-METHOXYCINNAMIC ACID TRIMETHYLSILYL ESTER

>  <SYNONYMS>  (5201) 


>  <SPECTRUM TYPE>  (5201) 
MS1

>  <INSTRUMENT TYPE>  (5201) 
EI-B

>  <INSTRUMENT>  (5201) 
JEOL JMS-01-SG

>  <ION MODE>  (5201) 
P

>  <INCHIKEY>  (5201) 
YQVAQSPGNGFHAH-JXMROGBWSA-N

>  <FORMULA>  (5201) 
C13H18O3Si

>  <EXACT MASS>  (5201) 
250.102520966

>  <MW>  (5201) 
250

>  <ID>  (5201) 
JP001913

>  <CONTRIBUTOR>  (5201) 
University of Tokyo Team, {Faculty of Engineering, University of Tokyo

>  <COMMENT>  (5201) 
SMILES=COc(c1)ccc(c1)C=CC(=O)O[Si](C)(C)C
InChI=InChI=1S/C13H18O3Si/c1-15-12-8-5-11(6-9-12)7-10-13(14)16-17(2,3)4/h5-10H,1-4H3/b10-7+
computed SMILES=O=C(O[Si](C)(C)C)C=CC1=CC=C(OC)C=C1
accession=JP001913
date=2016.01.19 (Created 2008.10.21, modified 2011.05.06)
author=KOGA M, UNIV. OF OCCUPATIONAL AND ENVIRONMENTAL HEALTH
license=CC BY-NC-SA
exact mass=250.10252
ionization energy=70 eV
ion type=[M]+*
computed spectral entropy=2.2879009906638816
computed normalized entropy=0.8251858533189321
SPLASH=splash10-03du-2940000000-719ec2dde6cbd77d0022
submitter=submitter = University of Tokyo Team (Faculty of Engineering, University of Tokyo)
MoNA Rating=3.75

>  <NUM PEAKS>  (5201) 
16

>  <MASS SPECTRAL PEAKS>  (5201) 
73 14.4
75 22.3
77 18.8
90 0.69
118 8.8
121 19.4
133 24.8
161 99.99
162 9.4
165 5.9
191 58.4
192 0.81
235 60.3
236 8.8
250 31.7
251 5

>  <PREDICTED SPECTRUM>  (5201) 
15 59
26 30
27 33
28 9
29 108
30 30
31 27
38 54
39 146
40 19
41 27
43 138
44 93
45 286
46 75
47 236
49 55
50 110
51 204
52 80
53 144
54 59
55 91
56 16
57 99
58 94
59 218
60 67
61 143
62 136
63 286
64 225
65 230
66 97
67 41
68 2
69 69
71 33
72 91
73 614
74 202
75 501
76 202
77 423
78 162
79 140
80 22
81 11
82 52
83 40
86 42
87 76
88 95
89 473
90 234
91 285
92 314
93 34
94 41
95 61
96 46
99 60
100 26
101 173
102 246
103 297
104 146
105 232
106 98
107 63
108 37
110 20
113 14
114 61
115 298
116 157
117 405
118 362
119 163
120 39
121 42
122 56
123 40
129 35
130 185
131 275
132 414
133 625
134 188
135 169
136 43
138 13
142 6
143 130
144 5
145 216
146 150
147 105
148 29
149 44
150 42
151 57
159 65
160 236
161 999
162 315
163 251
164 64
165 72
175 280
176 252
177 121
178 73
189 46
191 604
192 272
193 66
194 39
203 4
205 46
206 74
207 139
208 1
219 173
220 137
221 26
222 28
223 69
233 7
235 781
236 349
237 175
238 65
249 257
250 673
251 309
252 146
253 28

$$$$

     RDKit          2D

 17 17  0  0  0  0  0  0  0  0999 V2000
   -4.4670   -2.5807    0.0000 C   0  0  0  0  0  0  0  0  0  0  0  0
    7.9748   -3.1257    0.0000 C   0  0  0  0  0  0  0  0  0  0  0  0
    8.5241   -1.0767    0.0000 C   0  0  0  0  0  0  0  0  0  0  0  0
    6.4752   -0.5273    0.0000 C   0  0  0  0  0  0  0  0  0  0  0  0
   -0.5653   -4.8185    0.0000 C   0  0  0  0  0  0  0  0  0  0  0  0
    0.7292   -4.0763    0.0000 C   0  0  0  0  0  0  0  0  0  0  0  0
   -1.8644   -4.0685    0.0000 C   0  0  0  0  0  0  0  0  0  0  0  0
    2.0288   -1.8257    0.0000 C   0  0  0  0  0  0  0  0  0  0  0  0
    3.3278   -2.5759    0.0000 C   0  0  0  0  0  0  0  0  0  0  0  0
   -0.5694   -1.8255    0.0000 C   0  0  0  0  0  0  0  0  0  0  0  0
    0.7297   -2.5755    0.0000 C   0  0  0  0  0  0  0  0  0  0  0  0
   -1.8689   -2.5763    0.0000 C   0  0  0  0  0  0  0  0  0  0  0  0
    4.6269   -1.8261    0.0000 C   0  0  0  0  0  0  0  0  0  0  0  0
    4.6272   -0.3261    0.0000 O   0  0  0  0  0  0  0  0  0  0  0  0
   -3.1692   -1.8285    0.0000 O   0  0  0  0  0  0  0  0  0  0  0  0
    5.9258   -2.5763    0.0000 O   0  0  0  0  0  0  0  0  0  0  0  0
    7.2250   -1.8265    0.0000 Si  0  0  0  0  0  4  0  0  0  0  0  0
  6  5  2  0
  7  5  1  0
  8  9  2  0
 11  6  1  0
 11  8  1  0
 11 10  2  0
 12  7  2  0
 12 10  1  0
 13  9  1  0
 14 13  2  0
 15  1  1  0
 15 12  1  0
 16 13  1  0
 17  2  1  0
 17  3  1  0
 17  4  1  0
 17 16  1  0
M  END
>  <NAME>  (5202) 
META-METHOXYCINNAMIC ACID TRIMETHYLSILYL ESTER

>  <SYNONYMS>  (5202) 


>  <SPECTRUM TYPE>  (5202) 
MS1

>  <INSTRUMENT TYPE>  (5202) 
EI-B

>  <INSTRUMENT>  (5202) 
JEOL JMS-01-SG

>  <ION MODE>  (5202) 
P

>  <INCHIKEY>  (5202) 
RGDYRMJCKDCLTE-CMDGGOBGSA-N

>  <FORMULA>  (5202) 
C13H18O3Si

>  <EXACT MASS>  (5202) 
250.102520966

>  <MW>  (5202) 
250

>  <ID>  (5202) 
JP001912

>  <CONTRIBUTOR>  (5202) 
University of Tokyo Team, {Faculty of Engineering, University of Tokyo

>  <COMMENT>  (5202) 
SMILES=COc(c1)cc(cc1)C=CC(=O)O[Si](C)(C)C
InChI=InChI=1S/C13H18O3Si/c1-15-12-7-5-6-11(10-12)8-9-13(14)16-17(2,3)4/h5-10H,1-4H3/b9-8+
computed SMILES=O=C(O[Si](C)(C)C)C=CC=1C=CC=C(OC)C1
accession=JP001912
date=2016.01.19 (Created 2008.10.21, modified 2011.05.06)
author=KOGA M, UNIV. OF OCCUPATIONAL AND ENVIRONMENTAL HEALTH
license=CC BY-NC-SA
exact mass=250.10252
ionization energy=70 eV
ion type=[M]+*
computed spectral entropy=2.673725262579174
computed normalized entropy=0.8206402822559781
SPLASH=splash10-01tl-8940000000-91c6436bd78fc1ad2cd8
submitter=submitter = University of Tokyo Team (Faculty of Engineering, University of Tokyo)
MoNA Rating=3.75

>  <NUM PEAKS>  (5202) 
26

>  <MASS SPECTRAL PEAKS>  (5202) 
45 21
47 15.6
51 8.5
63 1.09
64 8.5
73 24.2
75 96
76 1.17
77 32
79 8.5
89 19.5
90 1.95
92 9.3
102 14
103 10.1
118 2.89
133 28.9
161 99.99
162 10.9
175 2.96
191 79.6
192 14
235 84.3
236 1.25
250 30.4
251 7.8

>  <PREDICTED SPECTRUM>  (5202) 
15 38
26 22
27 19
28 12
29 104
30 13
31 35
38 42
39 117
40 27
41 25
43 96
44 97
45 310
46 59
47 221
48 12
49 61
50 126
51 207
52 65
53 119
54 54
55 80
56 3
57 89
58 98
59 215
60 69
61 130
62 113
63 232
64 185
65 160
66 70
67 7
69 37
71 19
72 78
73 494
74 182
75 504
76 216
77 431
78 142
79 147
80 3
81 0
82 86
83 15
86 23
87 1
88 32
89 373
90 189
91 205
92 257
94 7
99 8
100 41
101 149
102 237
103 217
104 126
105 223
106 41
107 25
113 18
114 11
115 176
116 123
117 296
118 337
119 84
120 22
121 7
122 23
130 103
131 200
132 331
133 574
134 174
135 186
143 70
145 164
146 131
147 70
148 3
149 4
150 21
151 36
152 6
159 54
160 170
161 999
162 292
163 120
164 2
165 25
173 15
174 4
175 182
176 175
177 71
178 38
189 5
191 562
192 255
193 42
205 39
206 43
207 49
219 176
220 91
221 44
223 68
233 31
235 848
236 362
237 187
238 72
249 242
250 530
251 254
252 99
253 21

$$$$

     RDKit          2D

 17 17  0  0  0  0  0  0  0  0999 V2000
    3.3491    0.2013    0.0000 C   0  0  0  0  0  0  0  0  0  0  0  0
    3.8978    2.2504    0.0000 C   0  0  0  0  0  0  0  0  0  0  0  0
    1.8487    2.7991    0.0000 C   0  0  0  0  0  0  0  0  0  0  0  0
   -5.9472   -0.2017    0.0000 C   0  0  0  0  0  0  0  0  0  0  0  0
   -6.4959   -2.2508    0.0000 C   0  0  0  0  0  0  0  0  0  0  0  0
   -4.4468   -2.7995    0.0000 C   0  0  0  0  0  0  0  0  0  0  0  0
   -1.3000    0.7500    0.0000 C   0  0  0  0  0  0  0  0  0  0  0  0
   -0.0000   -1.5000    0.0000 C   0  0  0  0  0  0  0  0  0  0  0  0
    0.0000    1.5000    0.0000 C   0  0  0  0  0  0  0  0  0  0  0  0
    1.3000   -0.7500    0.0000 C   0  0  0  0  0  0  0  0  0  0  0  0
   -1.3000   -0.7500    0.0000 C   0  0  0  0  0  0  0  0  0  0  0  0
    1.3000    0.7500    0.0000 C   0  0  0  0  0  0  0  0  0  0  0  0
   -2.5989   -1.5002    0.0000 C   0  0  0  0  0  0  0  0  0  0  0  0
    2.5989    1.5002    0.0000 C   0  0  0  0  0  0  0  0  0  0  0  0
   -2.5987   -3.0002    0.0000 O   0  0  0  0  0  0  0  0  0  0  0  0
   -3.8981   -0.7504    0.0000 O   0  0  0  0  0  0  0  0  0  0  0  0
   -5.1970   -1.5006    0.0000 Si  0  0  0  0  0  4  0  0  0  0  0  0
  9  7  2  0
 10  8  1  0
 11  7  1  0
 11  8  2  0
 12  9  1  0
 12 10  2  0
 13 11  1  0
 14  1  1  0
 14  2  1  0
 14  3  1  0
 14 12  1  0
 15 13  2  0
 16 13  1  0
 17  4  1  0
 17  5  1  0
 17  6  1  0
 17 16  1  0
M  END
>  <NAME>  (5203) 
4-TERT-BUTYLBENZOIC ACID TRIMETHYLSILYL ESTER

>  <SYNONYMS>  (5203) 


>  <SPECTRUM TYPE>  (5203) 
MS1

>  <INSTRUMENT TYPE>  (5203) 
EI-B

>  <INSTRUMENT>  (5203) 
JEOL JMS-01-SG

>  <ION MODE>  (5203) 
P

>  <INCHIKEY>  (5203) 
PLYFZJPAUGYADQ-UHFFFAOYSA-N

>  <FORMULA>  (5203) 
C14H22O2Si

>  <EXACT MASS>  (5203) 
250.138906474

>  <MW>  (5203) 
250

>  <ID>  (5203) 
JP001911

>  <CONTRIBUTOR>  (5203) 
University of Tokyo Team, {Faculty of Engineering, University of Tokyo

>  <COMMENT>  (5203) 
SMILES=CC(C)(C)c(c1)ccc(c1)C(=O)O[Si](C)(C)C
InChI=InChI=1S/C14H22O2Si/c1-14(2,3)12-9-7-11(8-10-12)13(15)16-17(4,5)6/h7-10H,1-6H3
computed SMILES=O=C(O[Si](C)(C)C)C1=CC=C(C=C1)C(C)(C)C
accession=JP001911
date=2016.01.19 (Created 2008.10.21, modified 2011.05.06)
author=KOGA M, UNIV. OF OCCUPATIONAL AND ENVIRONMENTAL HEALTH
license=CC BY-NC-SA
exact mass=250.13891
ionization energy=70 eV
ion type=[M]+*
computed spectral entropy=2.383034879536567
computed normalized entropy=0.7314193584281248
SPLASH=splash10-000i-5790000000-21ff59593925b1df7b9d
submitter=submitter = University of Tokyo Team (Faculty of Engineering, University of Tokyo)
MoNA Rating=3.75

>  <NUM PEAKS>  (5203) 
26

>  <MASS SPECTRAL PEAKS>  (5203) 
45 9.9
57 3.4
73 35
74 0.19
75 7.1
77 9.1
91 7.4
96 2.59
103 1.7
105 1.7
110 4.2
115 0.42
117 4.2
118 9.9
145 3.7
146 0.51
161 29.9
162 3.4
191 29
192 0.56
193 7.9
207 5.6
235 99.99
236 1.88
237 5.1
250 4.8

>  <PREDICTED SPECTRUM>  (5203) 
15 19
27 70
28 30
29 99
38 15
39 86
41 182
42 8
43 134
44 72
45 130
46 7
47 108
49 5
50 48
51 106
52 12
53 26
55 118
56 9
57 105
58 44
59 94
60 60
61 55
62 12
63 47
64 19
65 97
72 52
73 400
74 101
75 293
76 74
77 239
78 76
79 61
89 147
90 58
91 233
92 34
101 37
102 91
103 167
104 107
105 201
106 12
115 171
116 77
117 183
118 172
119 13
131 47
132 92
133 188
134 14
137 22
145 163
146 101
147 59
159 11
160 53
161 476
162 98
163 47
165 10
175 17
176 4
177 24
178 23
179 48
191 483
192 162
193 172
207 99
208 7
219 45
221 4
235 999
236 384
237 214
238 46
249 9
250 242
251 67
252 21

$$$$

     RDKit          2D

 17 17  0  0  0  0  0  0  0  0999 V2000
   -6.4962   -0.7508    0.0000 C   0  0  0  0  0  0  0  0  0  0  0  0
    5.9472    0.2017    0.0000 C   0  0  0  0  0  0  0  0  0  0  0  0
    6.4959    2.2508    0.0000 C   0  0  0  0  0  0  0  0  0  0  0  0
    4.4468    2.7995    0.0000 C   0  0  0  0  0  0  0  0  0  0  0  0
   -5.1970   -1.5006    0.0000 C   0  0  0  0  0  0  0  0  0  0  0  0
   -3.8981   -0.7504    0.0000 C   0  0  0  0  0  0  0  0  0  0  0  0
   -2.5989   -1.5002    0.0000 C   0  0  0  0  0  0  0  0  0  0  0  0
   -1.3000    0.7500    0.0000 C   0  0  0  0  0  0  0  0  0  0  0  0
   -0.0000   -1.5000    0.0000 C   0  0  0  0  0  0  0  0  0  0  0  0
    0.0000    1.5000    0.0000 C   0  0  0  0  0  0  0  0  0  0  0  0
    1.3000   -0.7500    0.0000 C   0  0  0  0  0  0  0  0  0  0  0  0
   -1.3000   -0.7500    0.0000 C   0  0  0  0  0  0  0  0  0  0  0  0
    1.3000    0.7500    0.0000 C   0  0  0  0  0  0  0  0  0  0  0  0
    2.5989    1.5002    0.0000 C   0  0  0  0  0  0  0  0  0  0  0  0
    2.5987    3.0002    0.0000 O   0  0  0  0  0  0  0  0  0  0  0  0
    3.8981    0.7504    0.0000 O   0  0  0  0  0  0  0  0  0  0  0  0
    5.1970    1.5006    0.0000 Si  0  0  0  0  0  4  0  0  0  0  0  0
  5  1  1  0
  6  5  1  0
  7  6  1  0
 10  8  2  0
 11  9  1  0
 12  7  1  0
 12  8  1  0
 12  9  2  0
 13 10  1  0
 13 11  2  0
 14 13  1  0
 15 14  2  0
 16 14  1  0
 17  2  1  0
 17  3  1  0
 17  4  1  0
 17 16  1  0
M  END
>  <NAME>  (5204) 
4-BUTYLBENZOIC ACID TRIMETHYLSILYL ESTER

>  <SYNONYMS>  (5204) 


>  <SPECTRUM TYPE>  (5204) 
MS1

>  <INSTRUMENT TYPE>  (5204) 
EI-B

>  <INSTRUMENT>  (5204) 
JEOL JMS-01-SG

>  <ION MODE>  (5204) 
P

>  <INCHIKEY>  (5204) 
QCIYBSTWFOLQPL-UHFFFAOYSA-N

>  <FORMULA>  (5204) 
C14H22O2Si

>  <EXACT MASS>  (5204) 
250.138906474

>  <MW>  (5204) 
250

>  <ID>  (5204) 
JP001910

>  <CONTRIBUTOR>  (5204) 
University of Tokyo Team, {Faculty of Engineering, University of Tokyo

>  <COMMENT>  (5204) 
SMILES=CCCCc(c1)ccc(c1)C(=O)O[Si](C)(C)C
InChI=InChI=1S/C14H22O2Si/c1-5-6-7-12-8-10-13(11-9-12)14(15)16-17(2,3)4/h8-11H,5-7H2,1-4H3
computed SMILES=O=C(O[Si](C)(C)C)C1=CC=C(C=C1)CCCC
accession=JP001910
date=2016.01.19 (Created 2008.10.21, modified 2011.05.06)
author=KOGA M, UNIV. OF OCCUPATIONAL AND ENVIRONMENTAL HEALTH
license=CC BY-NC-SA
exact mass=250.13891
ionization energy=70 eV
ion type=[M]+*
computed spectral entropy=2.676427676818213
computed normalized entropy=0.8120631528898911
SPLASH=splash10-01pc-7960000000-71d82bd795ea9c7553da
submitter=submitter = University of Tokyo Team (Faculty of Engineering, University of Tokyo)
MoNA Rating=3.75

>  <NUM PEAKS>  (5204) 
27

>  <MASS SPECTRAL PEAKS>  (5204) 
45 34.8
47 11.6
51 6
55 0.73
65 8.9
73 27.4
75 12.3
77 2.19
78 5.4
89 9.6
90 27.1
91 4.51
92 6
103 7.3
105 6
118 1.61
133 7
148 6.1
161 77.6
162 0.96
191 61.6
192 14.4
193 13
235 99.99
236 19.7
237 6.1
250 7

>  <PREDICTED SPECTRUM>  (5204) 
15 2
26 4
27 47
28 12
29 104
38 26
39 105
40 18
41 155
43 91
44 67
45 206
46 1
47 113
49 6
50 49
51 97
52 32
53 35
54 3
55 132
57 37
58 80
59 74
60 63
61 102
62 50
63 107
64 57
65 122
66 30
67 71
71 5
72 54
73 407
74 83
75 288
76 47
77 191
78 102
79 80
89 261
90 243
91 330
92 92
93 40
95 17
96 34
102 40
103 112
104 80
105 133
106 4
107 2
115 84
117 57
118 135
119 23
131 82
132 101
133 164
134 0
135 32
145 37
146 37
147 31
148 45
149 49
160 1
161 609
162 131
163 52
176 21
177 0
178 64
179 54
189 7
190 5
191 602
192 277
193 210
194 7
207 51
235 999
236 396
237 210
238 32
249 105
250 223
251 73
252 19

$$$$

     RDKit          2D

 15 14  0  0  0  0  0  0  0  0999 V2000
   -1.2353    2.0858    0.0000 C   0  0  0  0  0  0  0  0  0  0  0  0
    0.2647    4.6839    0.0000 C   0  0  0  0  0  0  0  0  0  0  0  0
   -1.7844    4.1349    0.0000 C   0  0  0  0  0  0  0  0  0  0  0  0
    8.0589    2.0858    0.0000 C   0  0  0  0  0  0  0  0  0  0  0  0
    8.6079    4.1349    0.0000 C   0  0  0  0  0  0  0  0  0  0  0  0
    6.5589    4.6839    0.0000 C   0  0  0  0  0  0  0  0  0  0  0  0
    3.4118    2.6349    0.0000 C   0  0  0  0  0  0  0  0  0  0  0  0
    2.1127    3.3849    0.0000 C   0  0  0  0  0  0  0  0  0  0  0  0
    4.7108    3.3849    0.0000 C   0  0  0  0  0  0  0  0  0  0  0  0
    2.1127    4.8849    0.0000 O   0  0  0  0  0  0  0  0  0  0  0  0
    4.7108    4.8849    0.0000 O   0  0  0  0  0  0  0  0  0  0  0  0
    0.8137    2.6349    0.0000 O   0  0  0  0  0  0  0  0  0  0  0  0
    6.0099    2.6349    0.0000 O   0  0  0  0  0  0  0  0  0  0  0  0
   -0.4853    3.3849    0.0000 Si  0  0  0  0  0  4  0  0  0  0  0  0
    7.3089    3.3849    0.0000 Si  0  0  0  0  0  4  0  0  0  0  0  0
  8  7  1  0
  9  7  1  0
 10  8  2  0
 11  9  2  0
 12  8  1  0
 13  9  1  0
 14  1  1  0
 14  2  1  0
 14  3  1  0
 14 12  1  0
 15  4  1  0
 15  5  1  0
 15  6  1  0
 15 13  1  0
M  END
>  <NAME>  (5205) 
PROPANEDIOIC ACID BIS(TRIMETHYLSILYL) ESTER

>  <SYNONYMS>  (5205) 
BIS(TRIMETHYLSILYL) MALONATE

>  <SPECTRUM TYPE>  (5205) 
MS1

>  <INSTRUMENT TYPE>  (5205) 
EI-B

>  <INSTRUMENT>  (5205) 
JEOL JMS-01-SG

>  <ION MODE>  (5205) 
P

>  <INCHIKEY>  (5205) 
ATCKJLDGNXGLAO-UHFFFAOYSA-N

>  <FORMULA>  (5205) 
C9H20O4Si2

>  <EXACT MASS>  (5205) 
248.09001218

>  <MW>  (5205) 
248

>  <ID>  (5205) 
JP001909

>  <CONTRIBUTOR>  (5205) 
University of Tokyo Team, {Faculty of Engineering, University of Tokyo

>  <COMMENT>  (5205) 
SMILES=O=C(CC(=O)O[Si](C)(C)C)O[Si](C)(C)C
InChI=InChI=1S/C9H20O4Si2/c1-14(2,3)12-8(10)7-9(11)13-15(4,5)6/h7H2,1-6H3
computed SMILES=O=C(O[Si](C)(C)C)CC(=O)O[Si](C)(C)C
accession=JP001909
date=2016.01.19 (Created 2008.10.21, modified 2011.05.06)
author=KOGA M, UNIV. OF OCCUPATIONAL AND ENVIRONMENTAL HEALTH
license=CC BY-NC-SA
exact mass=248.09001
ionization energy=70 eV
ion type=[M]+*
computed spectral entropy=1.8975312846977386
computed normalized entropy=0.7397928848683686
SPLASH=splash10-00dj-9800000000-3cee22cf8fd191bedf2c
submitter=submitter = University of Tokyo Team (Faculty of Engineering, University of Tokyo)
MoNA Rating=3.75

>  <NUM PEAKS>  (5205) 
13

>  <MASS SPECTRAL PEAKS>  (5205) 
44 10.9
45 14.5
73 98.1
74 1
75 39.5
130 26.3
147 99.99
148 1.54
149 8.6
174 18.1
202 14
217 0.31
233 3.6

>  <PREDICTED SPECTRUM>  (5205) 
13 11
14 5
15 41
18 17
26 16
27 121
28 43
31 33
32 12
39 32
40 39
41 229
42 79
43 189
44 246
45 372
46 109
47 171
48 44
49 42
50 10
51 5
53 23
54 6
55 74
57 85
58 117
59 262
60 109
61 181
62 18
63 2
66 91
68 51
69 152
70 59
71 157
72 242
73 999
74 332
75 538
76 142
77 155
78 33
79 4
83 35
85 68
86 77
87 185
88 87
89 90
90 23
97 31
99 159
100 62
101 159
102 80
103 105
104 57
105 79
106 7
113 39
114 65
115 283
116 207
117 232
118 72
129 133
130 159
131 299
132 97
133 208
134 6
135 26
143 283
144 57
145 67
146 27
147 810
148 323
149 350
150 119
151 65
157 19
158 176
159 18
161 31
162 33
163 48
175 22
176 32
189 249
190 137
191 176
192 21
204 237
205 168
206 87
207 29
215 6
217 54
221 15
233 494
234 214
235 146
236 29
248 25
249 1

$$$$

     RDKit          2D

 16 15  0  0  0  0  0  0  0  0999 V2000
  -10.3053    6.5993    0.0000 C   0  0  0  0  0  0  0  0  0  0  0  0
   -9.0062    4.3493    0.0000 C   0  0  0  0  0  0  0  0  0  0  0  0
    3.4351    5.3002    0.0000 C   0  0  0  0  0  0  0  0  0  0  0  0
    3.9841    7.3493    0.0000 C   0  0  0  0  0  0  0  0  0  0  0  0
    1.9351    7.8983    0.0000 C   0  0  0  0  0  0  0  0  0  0  0  0
   -5.1091    6.5993    0.0000 C   0  0  0  0  0  0  0  0  0  0  0  0
   -3.8101    5.8493    0.0000 C   0  0  0  0  0  0  0  0  0  0  0  0
   -6.4082    5.8493    0.0000 C   0  0  0  0  0  0  0  0  0  0  0  0
   -2.5111    6.5993    0.0000 C   0  0  0  0  0  0  0  0  0  0  0  0
   -7.7072    6.5993    0.0000 C   0  0  0  0  0  0  0  0  0  0  0  0
   -1.2120    5.8493    0.0000 C   0  0  0  0  0  0  0  0  0  0  0  0
   -9.0062    5.8493    0.0000 C   0  0  0  0  0  0  0  0  0  0  0  0
    0.0870    6.5993    0.0000 C   0  0  0  0  0  0  0  0  0  0  0  0
    0.0870    8.0993    0.0000 O   0  0  0  0  0  0  0  0  0  0  0  0
    1.3861    5.8493    0.0000 O   0  0  0  0  0  0  0  0  0  0  0  0
    2.6851    6.5993    0.0000 Si  0  0  0  0  0  4  0  0  0  0  0  0
  7  6  1  0
  8  6  1  0
  9  7  1  0
 10  8  1  0
 11  9  1  0
 12  1  1  0
 12  2  1  0
 12 10  1  0
 13 11  1  0
 14 13  2  0
 15 13  1  0
 16  3  1  0
 16  4  1  0
 16  5  1  0
 16 15  1  0
M  END
>  <NAME>  (5206) 
8-METHYLNONANOIC ACID TRIMETHYLSILYL ESTER

>  <SYNONYMS>  (5206) 


>  <SPECTRUM TYPE>  (5206) 
MS1

>  <INSTRUMENT TYPE>  (5206) 
EI-B

>  <INSTRUMENT>  (5206) 
JEOL JMS-01-SG

>  <ION MODE>  (5206) 
P

>  <INCHIKEY>  (5206) 
RPEGLTSXQCBJRY-UHFFFAOYSA-N

>  <FORMULA>  (5206) 
C13H28O2Si

>  <EXACT MASS>  (5206) 
244.185856666

>  <MW>  (5206) 
244

>  <ID>  (5206) 
JP001908

>  <CONTRIBUTOR>  (5206) 
University of Tokyo Team, {Faculty of Engineering, University of Tokyo

>  <COMMENT>  (5206) 
SMILES=CC(C)CCCCCCC(=O)O[Si](C)(C)C
InChI=InChI=1S/C13H28O2Si/c1-12(2)10-8-6-7-9-11-13(14)15-16(3,4)5/h12H,6-11H2,1-5H3
computed SMILES=O=C(O[Si](C)(C)C)CCCCCCC(C)C
accession=JP001908
date=2016.01.19 (Created 2008.10.21, modified 2011.05.06)
author=KOGA M, UNIV. OF OCCUPATIONAL AND ENVIRONMENTAL HEALTH
license=CC BY-NC-SA
exact mass=244.18586
ionization energy=70 eV
ion type=[M]+*
computed spectral entropy=2.783402705126768
computed normalized entropy=0.8031202558966627
SPLASH=splash10-00b9-9440000000-f462a4b55dbc93e9f19d
submitter=submitter = University of Tokyo Team (Faculty of Engineering, University of Tokyo)
MoNA Rating=3.75

>  <NUM PEAKS>  (5206) 
32

>  <MASS SPECTRAL PEAKS>  (5206) 
43 26.5
45 12.1
47 5.9
55 1.08
56 5.5
58 5.3
61 5.1
69 1.14
71 5.1
73 99.99
74 8.9
75 8.12
76 6.1
77 11.9
81 11.4
83 0.61
95 6.3
97 5.3
116 4.8
117 7.63
118 8.2
129 31.2
130 4.6
131 2.08
132 22.9
133 5.3
145 17.2
185 0.51
201 8.7
229 79.3
230 14.4
231 4.8

>  <PREDICTED SPECTRUM>  (5206) 
27 52
28 8
29 11
39 88
40 18
41 236
42 122
43 341
44 115
45 236
46 61
47 138
49 0
52 4
53 113
54 84
55 461
56 129
57 242
58 133
59 144
60 71
61 207
63 2
65 26
66 6
67 163
68 82
69 359
70 151
71 133
72 193
73 999
74 279
75 928
76 266
77 220
78 34
79 75
81 204
82 42
83 217
84 143
85 94
86 67
87 38
88 12
89 45
90 9
91 73
93 127
94 25
95 217
96 81
97 174
98 151
99 133
100 17
101 94
102 37
103 71
104 6
105 61
107 77
109 71
110 48
111 113
112 111
113 76
114 30
115 119
116 164
117 876
118 247
119 206
121 58
125 65
126 51
129 514
130 126
131 389
132 506
133 216
134 73
135 5
137 11
139 2
143 161
144 95
145 541
146 252
147 80
148 13
149 51
154 112
155 95
157 97
158 93
159 155
160 42
161 64
169 0
171 163
172 60
173 149
174 31
185 149
187 106
189 8
200 12
201 228
202 97
211 63
212 8
213 46
215 28
229 779
230 362
231 139
232 33
244 57
245 17

$$$$

     RDKit          2D

 16 16  0  0  0  0  0  0  0  0999 V2000
    3.2476   -3.7504    0.0000 C   0  0  0  0  0  0  0  0  0  0  0  0
    3.9978    2.4515    0.0000 C   0  0  0  0  0  0  0  0  0  0  0  0
    4.5465    4.5006    0.0000 C   0  0  0  0  0  0  0  0  0  0  0  0
    2.4974    5.0493    0.0000 C   0  0  0  0  0  0  0  0  0  0  0  0
    1.9487   -3.0002    0.0000 C   0  0  0  0  0  0  0  0  0  0  0  0
   -1.9500    0.7500    0.0000 C   0  0  0  0  0  0  0  0  0  0  0  0
   -1.9500   -0.7500    0.0000 C   0  0  0  0  0  0  0  0  0  0  0  0
   -0.6500    1.5000    0.0000 C   0  0  0  0  0  0  0  0  0  0  0  0
   -0.6500   -1.5000    0.0000 C   0  0  0  0  0  0  0  0  0  0  0  0
    0.6500    0.7500    0.0000 C   0  0  0  0  0  0  0  0  0  0  0  0
    0.6500   -0.7500    0.0000 C   0  0  0  0  0  0  0  0  0  0  0  0
    1.9489    1.5002    0.0000 C   0  0  0  0  0  0  0  0  0  0  0  0
    3.2481    0.7504    0.0000 O   0  0  0  0  0  0  0  0  0  0  0  0
    1.9489   -1.5002    0.0000 O   0  0  0  0  0  0  0  0  0  0  0  0
    1.9487    3.0002    0.0000 O   0  0  0  0  0  0  0  0  0  0  0  0
    3.2476    3.7504    0.0000 Si  0  0  0  0  0  4  0  0  0  0  0  0
  5  1  1  0
  7  6  2  0
  8  6  1  0
  9  7  1  0
 10  8  2  0
 11  9  2  0
 11 10  1  0
 12 10  1  0
 13 12  2  0
 14  5  1  0
 14 11  1  0
 15 12  1  0
 16  2  1  0
 16  3  1  0
 16  4  1  0
 16 15  1  0
M  END
>  <NAME>  (5207) 
2-ETHOXYBENZOIC ACID TRIMETHYLSILYL ESTER

>  <SYNONYMS>  (5207) 


>  <SPECTRUM TYPE>  (5207) 
MS1

>  <INSTRUMENT TYPE>  (5207) 
EI-B

>  <INSTRUMENT>  (5207) 
JEOL JMS-01-SG

>  <ION MODE>  (5207) 
P

>  <INCHIKEY>  (5207) 
LPNQWYXWIIDKLT-UHFFFAOYSA-N

>  <FORMULA>  (5207) 
C12H18O3Si

>  <EXACT MASS>  (5207) 
238.102520966

>  <MW>  (5207) 
238

>  <ID>  (5207) 
JP001907

>  <CONTRIBUTOR>  (5207) 
University of Tokyo Team, {Faculty of Engineering, University of Tokyo

>  <COMMENT>  (5207) 
SMILES=CCOc(c1)c(ccc1)C(=O)O[Si](C)(C)C
InChI=InChI=1S/C12H18O3Si/c1-5-14-11-9-7-6-8-10(11)12(13)15-16(2,3)4/h6-9H,5H2,1-4H3
computed SMILES=O=C(O[Si](C)(C)C)C=1C=CC=CC1OCC
accession=JP001907
date=2016.01.19 (Created 2008.10.21, modified 2011.05.06)
author=KOGA M, UNIV. OF OCCUPATIONAL AND ENVIRONMENTAL HEALTH
license=CC BY-NC-SA
exact mass=238.10252
ionization energy=70 eV
ion type=[M]+*
computed spectral entropy=3.1555161186376965
computed normalized entropy=0.8738819865132178
SPLASH=splash10-009t-2900000000-4484158df784b8be5ae2
submitter=submitter = University of Tokyo Team (Faculty of Engineering, University of Tokyo)
MoNA Rating=3.75

>  <NUM PEAKS>  (5207) 
37

>  <MASS SPECTRAL PEAKS>  (5207) 
43 7.9
45 24.7
51 8.5
63 0.91
64 13.7
65 30.5
73 41.8
75 5.16
76 10
77 20.4
91 22.9
92 2.69
93 26.2
105 51
120 69.1
121 6.33
133 96
134 11.3
135 63.3
136 0.88
148 64.2
149 20.4
151 71.2
152 1.03
153 20.7
163 17.7
177 65.7
178 0.82
179 60.5
180 11.6
193 7.9
195 99.99
196 15.5
220 7.6
223 45.2
224 0.82
238 16.5

>  <PREDICTED SPECTRUM>  (5207) 
14 0
18 28
26 41
27 142
28 3
29 68
31 17
37 1
38 82
39 176
40 43
41 100
42 84
43 274
44 283
45 411
46 35
47 223
49 30
50 196
51 280
52 138
53 138
55 57
57 70
58 122
59 121
60 18
61 151
62 115
63 302
64 277
65 463
66 190
73 554
74 195
75 585
76 321
77 569
78 252
79 166
80 2
81 0
83 13
89 49
90 128
91 419
92 459
93 325
94 98
95 141
102 75
103 162
104 208
105 576
106 138
107 215
109 45
117 106
118 63
119 265
120 813
121 565
122 162
123 156
131 177
132 121
133 865
134 274
135 915
136 212
137 131
147 187
148 896
149 432
150 16
151 968
152 266
153 169
161 126
163 357
164 164
165 106
166 95
167 48
176 92
177 654
178 339
179 785
180 294
181 38
193 329
194 178
195 999
196 392
197 132
205 183
209 57
223 597
224 221
225 63
238 516
239 203
240 67

$$$$

     RDKit          2D

 16 16  0  0  0  0  0  0  0  0999 V2000
   -2.0353    5.8943    0.0000 C   0  0  0  0  0  0  0  0  0  0  0  0
   -5.3834    4.1934    0.0000 C   0  0  0  0  0  0  0  0  0  0  0  0
   -5.9324    2.1443    0.0000 C   0  0  0  0  0  0  0  0  0  0  0  0
   -3.8834    1.5953    0.0000 C   0  0  0  0  0  0  0  0  0  0  0  0
   -0.7363    5.1443    0.0000 C   0  0  0  0  0  0  0  0  0  0  0  0
    3.1608    1.3943    0.0000 C   0  0  0  0  0  0  0  0  0  0  0  0
    3.1613    2.8952    0.0000 C   0  0  0  0  0  0  0  0  0  0  0  0
    1.8613    0.6435    0.0000 C   0  0  0  0  0  0  0  0  0  0  0  0
    1.8623    3.6452    0.0000 C   0  0  0  0  0  0  0  0  0  0  0  0
    0.5623    1.3935    0.0000 C   0  0  0  0  0  0  0  0  0  0  0  0
    0.5627    2.8943    0.0000 C   0  0  0  0  0  0  0  0  0  0  0  0
   -0.7363    3.6443    0.0000 C   0  0  0  0  0  0  0  0  0  0  0  0
   -2.0353    2.8943    0.0000 C   0  0  0  0  0  0  0  0  0  0  0  0
   -2.0353    1.3943    0.0000 O   0  0  0  0  0  0  0  0  0  0  0  0
   -3.3344    3.6443    0.0000 O   0  0  0  0  0  0  0  0  0  0  0  0
   -4.6334    2.8943    0.0000 Si  0  0  0  0  0  4  0  0  0  0  0  0
  5  1  1  0
  7  6  2  0
  8  6  1  0
  9  7  1  0
 10  8  2  0
 11  9  2  0
 11 10  1  0
 12  5  1  0
 12 11  1  0
 13 12  1  0
 14 13  2  0
 15 13  1  0
 16  2  1  0
 16  3  1  0
 16  4  1  0
 16 15  1  0
M  END
>  <NAME>  (5208) 
ALPHA-ETHYL-ALPHA-PHENYLACETIC ACID TRIMETHYLSILYL ESTER

>  <SYNONYMS>  (5208) 


>  <SPECTRUM TYPE>  (5208) 
MS1

>  <INSTRUMENT TYPE>  (5208) 
EI-B

>  <INSTRUMENT>  (5208) 
JEOL JMS-01-SG

>  <ION MODE>  (5208) 
P

>  <INCHIKEY>  (5208) 
VYKUZPWIVBWKQA-UHFFFAOYSA-N

>  <FORMULA>  (5208) 
C13H20O2Si

>  <EXACT MASS>  (5208) 
236.12325641

>  <MW>  (5208) 
236

>  <ID>  (5208) 
JP001905

>  <CONTRIBUTOR>  (5208) 
University of Tokyo Team, {Faculty of Engineering, University of Tokyo

>  <COMMENT>  (5208) 
SMILES=CCC(c(c1)cccc1)C(=O)O[Si](C)(C)C
InChI=InChI=1S/C13H20O2Si/c1-5-12(11-9-7-6-8-10-11)13(14)15-16(2,3)4/h6-10,12H,5H2,1-4H3
computed SMILES=O=C(O[Si](C)(C)C)C(C=1C=CC=CC1)CC
accession=JP001905
date=2016.01.19 (Created 2008.10.21, modified 2011.05.06)
author=KOGA M, UNIV. OF OCCUPATIONAL AND ENVIRONMENTAL HEALTH
license=CC BY-NC-SA
exact mass=236.12326
ionization energy=70 eV
ion type=[M]+*
computed spectral entropy=2.404750888330594
computed normalized entropy=0.747077867916529
SPLASH=splash10-00vl-9500000000-e420e57c1e37a418a5da
submitter=submitter = University of Tokyo Team (Faculty of Engineering, University of Tokyo)
MoNA Rating=3.75

>  <NUM PEAKS>  (5208) 
25

>  <MASS SPECTRAL PEAKS>  (5208) 
43 4.3
44 4.3
45 25
47 1.25
51 5
61 4.3
73 91.8
74 3.68
75 87.5
76 5
77 36.2
78 0.43
89 4.3
90 5
91 38.7
115 0.5
117 23.1
118 99.99
119 7.5
147 0.31
148 5
192 39.3
193 5
221 3.56
222 4.3

>  <PREDICTED SPECTRUM>  (5208) 
15 26
26 8
27 61
28 30
29 144
30 19
31 48
38 21
39 89
40 21
41 89
43 127
44 50
45 256
46 62
47 257
48 6
49 47
50 116
51 211
52 134
53 89
54 26
55 25
57 64
58 77
59 214
60 81
61 188
62 92
63 137
64 49
65 156
66 55
67 44
71 4
72 37
73 999
74 285
75 604
76 204
77 326
78 213
79 81
85 57
86 13
87 75
89 206
90 216
91 534
92 135
93 40
99 38
100 0
101 64
102 85
103 173
104 161
107 6
109 21
110 2
115 134
116 54
117 456
118 906
119 253
120 40
135 21
146 53
148 66
149 93
150 22
151 0
153 16
162 17
163 29
164 111
165 16
177 195
178 75
179 85
192 776
193 314
194 107
195 3
221 424
222 178
223 53
236 30
237 3

$$$$

     RDKit          2D

 16 16  0  0  0  0  0  0  0  0999 V2000
   -2.5989   -1.5002    0.0000 C   0  0  0  0  0  0  0  0  0  0  0  0
    8.5453    0.2021    0.0000 C   0  0  0  0  0  0  0  0  0  0  0  0
    9.0940    2.2512    0.0000 C   0  0  0  0  0  0  0  0  0  0  0  0
    7.0449    2.8000    0.0000 C   0  0  0  0  0  0  0  0  0  0  0  0
   -1.3000    0.7500    0.0000 C   0  0  0  0  0  0  0  0  0  0  0  0
    0.0000   -1.5000    0.0000 C   0  0  0  0  0  0  0  0  0  0  0  0
    0.0000    1.5000    0.0000 C   0  0  0  0  0  0  0  0  0  0  0  0
    1.3000   -0.7500    0.0000 C   0  0  0  0  0  0  0  0  0  0  0  0
    2.5989    1.5002    0.0000 C   0  0  0  0  0  0  0  0  0  0  0  0
    3.8981    0.7504    0.0000 C   0  0  0  0  0  0  0  0  0  0  0  0
   -1.3000   -0.7500    0.0000 C   0  0  0  0  0  0  0  0  0  0  0  0
    1.3000    0.7500    0.0000 C   0  0  0  0  0  0  0  0  0  0  0  0
    5.1970    1.5006    0.0000 C   0  0  0  0  0  0  0  0  0  0  0  0
    5.1968    3.0006    0.0000 O   0  0  0  0  0  0  0  0  0  0  0  0
    6.4962    0.7508    0.0000 O   0  0  0  0  0  0  0  0  0  0  0  0
    7.7951    1.5010    0.0000 Si  0  0  0  0  0  4  0  0  0  0  0  0
  7  5  2  0
  8  6  1  0
  9 10  2  0
 11  1  1  0
 11  5  1  0
 11  6  2  0
 12  7  1  0
 12  8  2  0
 12  9  1  0
 13 10  1  0
 14 13  2  0
 15 13  1  0
 16  2  1  0
 16  3  1  0
 16  4  1  0
 16 15  1  0
M  END
>  <NAME>  (5209) 
PARA-METHYLCINNAMIC ACID TRIMETHYLSILYL ESTER

>  <SYNONYMS>  (5209) 


>  <SPECTRUM TYPE>  (5209) 
MS1

>  <INSTRUMENT TYPE>  (5209) 
EI-B

>  <INSTRUMENT>  (5209) 
JEOL JMS-01-SG

>  <ION MODE>  (5209) 
P

>  <INCHIKEY>  (5209) 
FXVQMFXMBNRJBF-MDZDMXLPSA-N

>  <FORMULA>  (5209) 
C13H18O2Si

>  <EXACT MASS>  (5209) 
234.107606346

>  <MW>  (5209) 
234

>  <ID>  (5209) 
JP001904

>  <CONTRIBUTOR>  (5209) 
University of Tokyo Team, {Faculty of Engineering, University of Tokyo

>  <COMMENT>  (5209) 
SMILES=Cc(c1)ccc(c1)C=CC(=O)O[Si](C)(C)C
InChI=InChI=1S/C13H18O2Si/c1-11-5-7-12(8-6-11)9-10-13(14)15-16(2,3)4/h5-10H,1-4H3/b10-9+
computed SMILES=O=C(O[Si](C)(C)C)C=CC1=CC=C(C=C1)C
accession=JP001904
date=2016.01.19 (Created 2008.10.21, modified 2011.05.06)
author=KOGA M, UNIV. OF OCCUPATIONAL AND ENVIRONMENTAL HEALTH
license=CC BY-NC-SA
exact mass=234.10761
ionization energy=70 eV
ion type=[M]+*
computed spectral entropy=2.3480027355625435
computed normalized entropy=0.8123531961409701
SPLASH=splash10-016s-1950000000-6808e4bd4ae4891486cd
submitter=submitter = University of Tokyo Team (Faculty of Engineering, University of Tokyo)
MoNA Rating=3.75

>  <NUM PEAKS>  (5209) 
18

>  <MASS SPECTRAL PEAKS>  (5209) 
45 7.5
47 8.1
73 15.1
75 4.06
77 9.3
91 15.1
105 7.5
115 4.12
117 27.9
145 98.2
146 6.9
149 1.91
159 24.4
175 80.8
176 14.5
219 99.99
220 18
234 32.5

>  <PREDICTED SPECTRUM>  (5209) 
15 28
26 30
27 110
28 25
29 95
31 2
38 86
39 285
40 80
41 150
42 54
43 200
44 90
45 321
46 53
47 254
49 40
50 177
51 263
52 151
53 174
54 86
55 122
56 40
57 117
58 151
59 199
60 85
61 127
62 148
63 292
64 187
65 332
66 104
70 20
71 127
72 177
73 438
74 166
75 442
76 200
77 250
78 149
79 102
80 20
82 21
83 30
85 157
86 69
87 74
88 19
89 273
90 125
91 462
92 190
93 60
96 19
98 10
99 118
100 180
101 203
102 299
103 98
104 42
105 338
106 94
114 17
115 754
116 584
117 702
118 248
119 70
120 46
121 84
122 66
127 65
128 85
129 192
130 229
131 141
132 89
133 51
134 19
135 100
136 87
143 203
144 238
145 999
146 336
147 176
148 74
149 264
150 70
158 32
159 315
160 180
161 131
162 84
173 96
175 908
176 344
177 212
178 14
187 10
189 23
190 53
191 89
207 67
218 12
219 982
220 437
221 244
222 100
233 232
234 520
235 241
236 105
237 20

$$$$

     RDKit          2D

 15 15  0  0  0  0  0  0  0  0999 V2000
   -4.4962    5.4556    0.0000 C   0  0  0  0  0  0  0  0  0  0  0  0
   -6.5452    4.9066    0.0000 C   0  0  0  0  0  0  0  0  0  0  0  0
   -5.9962    2.8576    0.0000 C   0  0  0  0  0  0  0  0  0  0  0  0
    3.8471    1.9066    0.0000 C   0  0  0  0  0  0  0  0  0  0  0  0
    3.8476    3.4074    0.0000 C   0  0  0  0  0  0  0  0  0  0  0  0
    2.5476    1.1558    0.0000 C   0  0  0  0  0  0  0  0  0  0  0  0
    2.5486    4.1574    0.0000 C   0  0  0  0  0  0  0  0  0  0  0  0
    1.2486    1.9058    0.0000 C   0  0  0  0  0  0  0  0  0  0  0  0
   -0.0500    4.1566    0.0000 C   0  0  0  0  0  0  0  0  0  0  0  0
   -1.3490    3.4066    0.0000 C   0  0  0  0  0  0  0  0  0  0  0  0
    1.2490    3.4066    0.0000 C   0  0  0  0  0  0  0  0  0  0  0  0
   -2.6481    4.1566    0.0000 C   0  0  0  0  0  0  0  0  0  0  0  0
   -2.6481    5.6566    0.0000 O   0  0  0  0  0  0  0  0  0  0  0  0
   -3.9471    3.4066    0.0000 O   0  0  0  0  0  0  0  0  0  0  0  0
   -5.2462    4.1566    0.0000 Si  0  0  0  0  0  4  0  0  0  0  0  0
  5  4  1  0
  6  4  1  0
  7  5  1  0
  8  6  1  0
 10  9  1  0
 11  7  1  0
 11  8  1  0
 11  9  1  0
 12 10  1  0
 13 12  2  0
 14 12  1  0
 15  1  1  0
 15  2  1  0
 15  3  1  0
 15 14  1  0
M  END
>  <NAME>  (5210) 
CYCLOHEXANEPROPIONIC ACID TRIMETHYLSILYL ESTER

>  <SYNONYMS>  (5210) 


>  <SPECTRUM TYPE>  (5210) 
MS1

>  <INSTRUMENT TYPE>  (5210) 
EI-B

>  <INSTRUMENT>  (5210) 
JEOL JMS-01-SG

>  <ION MODE>  (5210) 
P

>  <INCHIKEY>  (5210) 
VCAHYVCSQNXYQP-UHFFFAOYSA-N

>  <FORMULA>  (5210) 
C12H24O2Si

>  <EXACT MASS>  (5210) 
228.154556538

>  <MW>  (5210) 
228

>  <ID>  (5210) 
JP001902

>  <CONTRIBUTOR>  (5210) 
University of Tokyo Team, {Faculty of Engineering, University of Tokyo

>  <COMMENT>  (5210) 
SMILES=O=C(CCC(C1)CCCC1)O[Si](C)(C)C
InChI=InChI=1S/C12H24O2Si/c1-15(2,3)14-12(13)10-9-11-7-5-4-6-8-11/h11H,4-10H2,1-3H3
computed SMILES=O=C(O[Si](C)(C)C)CCC1CCCCC1
accession=JP001902
date=2016.01.19 (Created 2008.10.21, modified 2011.05.06)
author=KOGA M, UNIV. OF OCCUPATIONAL AND ENVIRONMENTAL HEALTH
license=CC BY-NC-SA
exact mass=228.15456
ionization energy=70 eV
ion type=[M]+*
computed spectral entropy=2.5713924156337984
computed normalized entropy=0.7988479691474542
SPLASH=splash10-0101-9300000000-f3dd09f9ab4c0abbefee
submitter=submitter = University of Tokyo Team (Faculty of Engineering, University of Tokyo)
MoNA Rating=3.75

>  <NUM PEAKS>  (5210) 
25

>  <MASS SPECTRAL PEAKS>  (5210) 
43 14.9
45 39.2
47 7.1
55 3.15
56 6.5
61 8.7
67 14.1
72 0.57
73 93.9
74 12.1
75 99.99
76 0.74
77 11.4
79 11
81 5.9
93 0.89
95 10.5
117 51.8
121 8.6
129 2.71
131 21.6
132 14.8
145 30.1
213 2.82
214 5.4

>  <PREDICTED SPECTRUM>  (5210) 
26 6
27 66
28 37
29 67
38 0
39 127
40 67
41 303
42 93
43 156
44 124
45 308
46 64
47 185
48 32
49 35
50 20
51 38
52 64
53 177
54 165
55 449
56 101
57 81
58 80
59 189
60 122
61 248
62 40
63 38
65 60
66 71
67 354
68 166
69 333
70 98
71 52
72 185
73 999
74 265
75 856
76 238
77 269
78 119
79 254
80 151
81 371
82 198
83 178
84 4
85 11
86 17
87 7
88 9
90 31
91 123
92 84
93 200
94 122
95 370
96 183
97 111
99 53
101 95
102 43
103 195
104 115
105 170
106 54
107 3
109 110
110 156
111 73
112 23
113 34
115 75
116 207
117 556
118 199
119 107
120 12
121 30
123 121
125 60
129 474
130 266
131 257
132 318
133 101
137 1
138 202
143 173
144 30
145 309
146 222
147 192
148 94
157 7
158 15
159 69
160 52
171 23
173 56
184 74
185 96
186 25
195 5
213 506
214 223
215 106
216 20
228 126
229 75

$$$$

     RDKit          2D

 15 15  0  0  0  0  0  0  0  0999 V2000
    6.7382   -0.3518    0.0000 C   0  0  0  0  0  0  0  0  0  0  0  0
   -1.6058    3.2103    0.0000 C   0  0  0  0  0  0  0  0  0  0  0  0
   -3.6575    2.6713    0.0000 C   0  0  0  0  0  0  0  0  0  0  0  0
   -3.1186    0.6196    0.0000 C   0  0  0  0  0  0  0  0  0  0  0  0
    2.8302    1.8958    0.0000 C   0  0  0  0  0  0  0  0  0  0  0  0
    1.5167   -0.3291    0.0000 C   0  0  0  0  0  0  0  0  0  0  0  0
    4.1148    1.1709    0.0000 C   0  0  0  0  0  0  0  0  0  0  0  0
    2.8412   -1.1232    0.0000 C   0  0  0  0  0  0  0  0  0  0  0  0
    1.5312    1.1458    0.0000 C   0  0  0  0  0  0  0  0  0  0  0  0
    4.1402   -0.3732    0.0000 C   0  0  0  0  0  0  0  0  0  0  0  0
    0.2359    1.9021    0.0000 C   0  0  0  0  0  0  0  0  0  0  0  0
    0.2433    3.4021    0.0000 O   0  0  0  0  0  0  0  0  0  0  0  0
    5.4454   -1.1125    0.0000 O   0  0  0  0  0  0  0  0  0  0  0  0
   -1.0668    1.1585    0.0000 O   0  0  0  0  0  0  0  0  0  0  0  0
   -2.3622    1.9149    0.0000 Si  0  0  0  0  0  4  0  0  0  0  0  0
  7  5  2  0
  8  6  1  0
  9  5  1  0
  9  6  2  0
 10  7  1  0
 10  8  2  0
 11  9  1  0
 12 11  2  0
 13  1  1  0
 13 10  1  0
 14 11  1  0
 15  2  1  0
 15  3  1  0
 15  4  1  0
 15 14  1  0
M  END
>  <NAME>  (5211) 
4-METHOXYBENZOIC ACID TRIMETHYLSILYL ESTER

>  <SYNONYMS>  (5211) 


>  <SPECTRUM TYPE>  (5211) 
MS1

>  <INSTRUMENT TYPE>  (5211) 
EI-B

>  <INSTRUMENT>  (5211) 
Unknown

>  <ION MODE>  (5211) 
P

>  <INCHIKEY>  (5211) 
AYGQUFGXOJWAHD-UHFFFAOYSA-N

>  <FORMULA>  (5211) 
C11H16O3Si

>  <EXACT MASS>  (5211) 
224.086870902

>  <MW>  (5211) 
224

>  <ID>  (5211) 
JP001901

>  <CONTRIBUTOR>  (5211) 
University of Tokyo Team, {Faculty of Engineering, University of Tokyo

>  <COMMENT>  (5211) 
SMILES=COc(c1)ccc(c1)C(=O)O[Si](C)(C)C
InChI=InChI=1S/C11H16O3Si/c1-13-10-7-5-9(6-8-10)11(12)14-15(2,3)4/h5-8H,1-4H3
computed SMILES=O=C(O[Si](C)(C)C)C1=CC=C(OC)C=C1
accession=JP001901
date=2016.01.19 (Created 2008.10.21, modified 2011.05.06)
author=KOGA M, UNIV. OF OCCUPATIONAL AND ENVIRONMENTAL HEALTH
license=CC BY-NC-SA
exact mass=224.08687
ionization energy=70 eV
ion type=[M]+*
computed spectral entropy=1.9846442625410845
computed normalized entropy=0.7004923461569386
SPLASH=splash10-0670-1930000000-840a4c674599245ffd92
submitter=submitter = University of Tokyo Team (Faculty of Engineering, University of Tokyo)
MoNA Rating=3.75

>  <NUM PEAKS>  (5211) 
17

>  <MASS SPECTRAL PEAKS>  (5211) 
64 6.4
73 4.6
75 7.1
77 1.72
92 14.8
104 4
107 12.2
135 99.99
136 8.4
165 90.6
166 12.8
167 0.4
209 80.4
210 11.9
211 3.7
224 1.45
225 2.3

>  <PREDICTED SPECTRUM>  (5211) 
15 107
18 10
25 0
26 24
27 43
28 24
29 74
31 56
37 0
38 88
39 112
40 14
41 39
43 61
44 30
45 252
46 16
47 170
49 28
50 150
51 175
52 45
53 84
54 17
57 13
58 28
59 159
60 45
61 62
62 57
63 238
64 259
65 106
66 81
67 36
68 12
73 301
74 95
75 319
76 181
77 449
78 105
79 136
80 1
82 37
91 101
92 436
93 100
95 79
96 65
97 3
104 93
105 129
106 148
107 340
108 110
120 62
121 8
122 30
123 31
133 4
134 65
135 909
136 307
137 223
138 3
149 23
150 41
151 101
165 849
166 348
167 166
181 30
193 103
209 999
210 394
211 204
212 46
223 134
224 470
225 187
226 69
227 13

$$$$

     RDKit          2D

 15 15  0  0  0  0  0  0  0  0999 V2000
    4.4586    3.6002    0.0000 C   0  0  0  0  0  0  0  0  0  0  0  0
   -1.2873    2.6490    0.0000 C   0  0  0  0  0  0  0  0  0  0  0  0
   -3.3362    2.0996    0.0000 C   0  0  0  0  0  0  0  0  0  0  0  0
   -2.7869    0.0507    0.0000 C   0  0  0  0  0  0  0  0  0  0  0  0
    3.1602   -1.6512    0.0000 C   0  0  0  0  0  0  0  0  0  0  0  0
    4.4592   -0.9012    0.0000 C   0  0  0  0  0  0  0  0  0  0  0  0
    1.8606   -0.9004    0.0000 C   0  0  0  0  0  0  0  0  0  0  0  0
    4.4587    0.5996    0.0000 C   0  0  0  0  0  0  0  0  0  0  0  0
    1.8602    0.6004    0.0000 C   0  0  0  0  0  0  0  0  0  0  0  0
    3.1592    1.3504    0.0000 C   0  0  0  0  0  0  0  0  0  0  0  0
    0.5610    1.3502    0.0000 C   0  0  0  0  0  0  0  0  0  0  0  0
    0.5608    2.8502    0.0000 O   0  0  0  0  0  0  0  0  0  0  0  0
    3.1594    2.8504    0.0000 O   0  0  0  0  0  0  0  0  0  0  0  0
   -0.7379    0.6000    0.0000 O   0  0  0  0  0  0  0  0  0  0  0  0
   -2.0371    1.3498    0.0000 Si  0  0  0  0  0  4  0  0  0  0  0  0
  6  5  2  0
  7  5  1  0
  8  6  1  0
  9  7  2  0
 10  8  2  0
 10  9  1  0
 11  9  1  0
 12 11  2  0
 13  1  1  0
 13 10  1  0
 14 11  1  0
 15  2  1  0
 15  3  1  0
 15  4  1  0
 15 14  1  0
M  END
>  <NAME>  (5212) 
2-METHOXYBENZOIC ACID TRIMETHYLSILYL ESTER

>  <SYNONYMS>  (5212) 


>  <SPECTRUM TYPE>  (5212) 
MS1

>  <INSTRUMENT TYPE>  (5212) 
EI-B

>  <INSTRUMENT>  (5212) 
JEOL JMS-01-SG

>  <ION MODE>  (5212) 
P

>  <INCHIKEY>  (5212) 
LWBFIZBQVRDUMY-UHFFFAOYSA-N

>  <FORMULA>  (5212) 
C11H16O3Si

>  <EXACT MASS>  (5212) 
224.086870902

>  <MW>  (5212) 
224

>  <ID>  (5212) 
JP001900

>  <CONTRIBUTOR>  (5212) 
University of Tokyo Team, {Faculty of Engineering, University of Tokyo

>  <COMMENT>  (5212) 
SMILES=COc(c1)c(ccc1)C(=O)O[Si](C)(C)C
InChI=InChI=1S/C11H16O3Si/c1-13-10-8-6-5-7-9(10)11(12)14-15(2,3)4/h5-8H,1-4H3
computed SMILES=O=C(O[Si](C)(C)C)C=1C=CC=CC1OC
accession=JP001900
date=2016.01.19 (Created 2008.10.21, modified 2011.05.06)
author=KOGA M, UNIV. OF OCCUPATIONAL AND ENVIRONMENTAL HEALTH
license=CC BY-NC-SA
exact mass=224.08687
ionization energy=70 eV
ion type=[M]+*
computed spectral entropy=2.9237865824771405
computed normalized entropy=0.8158981807242235
SPLASH=splash10-057i-9830000000-7c5c591325987a581d23
submitter=submitter = University of Tokyo Team (Faculty of Engineering, University of Tokyo)
MoNA Rating=3.75

>  <NUM PEAKS>  (5212) 
36

>  <MASS SPECTRAL PEAKS>  (5212) 
43 5.4
44 4.8
45 22.7
47 1.51
49 3.7
51 5.4
59 8.6
63 0.54
64 11.8
73 26.4
75 29.7
76 0.48
77 99.99
78 9.7
79 9.1
91 2.27
92 34
104 10.2
105 25.9
106 0.54
120 3.7
133 4.3
134 92.9
135 3.18
136 41
137 5.4
147 14.5
149 1.29
150 5.4
165 31.3
179 23.2
194 1.24
209 76.2
210 10.8
224 23.7
225 3.7

>  <PREDICTED SPECTRUM>  (5212) 
15 37
26 6
27 49
28 12
29 64
37 0
38 64
39 70
40 16
41 53
42 6
43 108
44 74
45 172
46 40
47 69
49 30
50 152
51 203
52 68
53 83
55 5
57 34
58 49
59 110
60 28
61 109
62 86
63 211
64 218
65 162
66 47
67 19
68 18
69 7
73 278
74 139
75 250
76 172
77 485
78 172
79 174
89 89
90 78
91 169
92 327
93 136
94 10
95 3
104 74
105 185
106 110
107 190
108 15
117 56
118 70
119 88
120 161
121 44
122 8
123 42
133 147
134 208
135 999
136 304
137 97
147 52
148 26
149 92
150 149
151 148
152 71
153 59
163 98
164 55
165 267
166 94
179 92
181 62
193 36
194 96
195 46
196 43
209 514
210 200
211 112
212 25
223 8
224 314
225 126
226 60
227 4

$$$$

     RDKit          2D

 15 15  0  0  0  0  0  0  0  0999 V2000
   -2.5989   -1.5002    0.0000 C   0  0  0  0  0  0  0  0  0  0  0  0
    2.5989    1.5002    0.0000 C   0  0  0  0  0  0  0  0  0  0  0  0
    4.4468   -2.7995    0.0000 C   0  0  0  0  0  0  0  0  0  0  0  0
    6.4959   -2.2508    0.0000 C   0  0  0  0  0  0  0  0  0  0  0  0
    5.9472   -0.2017    0.0000 C   0  0  0  0  0  0  0  0  0  0  0  0
   -1.3000    0.7500    0.0000 C   0  0  0  0  0  0  0  0  0  0  0  0
    0.0000    1.5000    0.0000 C   0  0  0  0  0  0  0  0  0  0  0  0
    0.0000   -1.5000    0.0000 C   0  0  0  0  0  0  0  0  0  0  0  0
   -1.3000   -0.7500    0.0000 C   0  0  0  0  0  0  0  0  0  0  0  0
    1.3000    0.7500    0.0000 C   0  0  0  0  0  0  0  0  0  0  0  0
    1.3000   -0.7500    0.0000 C   0  0  0  0  0  0  0  0  0  0  0  0
    2.5989   -1.5002    0.0000 C   0  0  0  0  0  0  0  0  0  0  0  0
    2.5987   -3.0002    0.0000 O   0  0  0  0  0  0  0  0  0  0  0  0
    3.8981   -0.7504    0.0000 O   0  0  0  0  0  0  0  0  0  0  0  0
    5.1970   -1.5006    0.0000 Si  0  0  0  0  0  4  0  0  0  0  0  0
  7  6  2  0
  9  1  1  0
  9  6  1  0
  9  8  2  0
 10  2  1  0
 10  7  1  0
 11  8  1  0
 11 10  2  0
 12 11  1  0
 13 12  2  0
 14 12  1  0
 15  3  1  0
 15  4  1  0
 15  5  1  0
 15 14  1  0
M  END
>  <NAME>  (5213) 
2,5-DIMETHYLBENZOIC ACID TRIMETHYLSILYL ESTER

>  <SYNONYMS>  (5213) 


>  <SPECTRUM TYPE>  (5213) 
MS1

>  <INSTRUMENT TYPE>  (5213) 
EI-B

>  <INSTRUMENT>  (5213) 
JEOL JMS-01-SG

>  <ION MODE>  (5213) 
P

>  <INCHIKEY>  (5213) 
DDDBDWYEBRVNBB-UHFFFAOYSA-N

>  <FORMULA>  (5213) 
C12H18O2Si

>  <EXACT MASS>  (5213) 
222.107606346

>  <MW>  (5213) 
222

>  <ID>  (5213) 
JP001899

>  <CONTRIBUTOR>  (5213) 
University of Tokyo Team, {Faculty of Engineering, University of Tokyo

>  <COMMENT>  (5213) 
SMILES=Cc(c1)cc(c(C)c1)C(=O)O[Si](C)(C)C
InChI=InChI=1S/C12H18O2Si/c1-9-6-7-10(2)11(8-9)12(13)14-15(3,4)5/h6-8H,1-5H3
computed SMILES=O=C(O[Si](C)(C)C)C1=CC(=CC=C1C)C
accession=JP001899
date=2016.01.19 (Created 2008.10.21, modified 2011.05.06)
author=KOGA M, UNIV. OF OCCUPATIONAL AND ENVIRONMENTAL HEALTH
license=CC BY-NC-SA
exact mass=222.10761
ionization energy=70 eV
ion type=[M]+*
computed spectral entropy=2.100866676548343
computed normalized entropy=0.7757857205502557
SPLASH=splash10-001i-2930000000-fbb84a0894282bff8f5a
submitter=submitter = University of Tokyo Team (Faculty of Engineering, University of Tokyo)
MoNA Rating=3.75

>  <NUM PEAKS>  (5213) 
15

>  <MASS SPECTRAL PEAKS>  (5213) 
73 11.7
75 4.9
77 23.5
79 1.27
96 11.7
103 10.7
104 14.7
105 2.84
132 55.8
133 99.99
134 4.9
163 3.72
207 62.7
208 4.9
222 15.6

>  <PREDICTED SPECTRUM>  (5213) 
15 32
26 27
27 75
28 28
29 82
38 51
39 152
40 46
41 110
43 200
44 59
45 292
46 36
47 238
49 1
50 84
51 191
52 110
53 219
54 112
55 105
57 43
58 106
59 250
60 97
61 129
62 53
63 133
64 91
65 191
66 124
67 121
71 41
72 40
73 442
74 144
75 421
76 128
77 448
78 238
79 285
80 87
81 70
82 50
83 10
85 15
86 23
89 183
90 51
91 239
92 60
93 114
96 36
97 104
99 42
100 14
102 74
103 328
104 344
105 744
106 218
107 53
115 128
117 322
118 117
119 194
121 86
123 63
131 249
132 700
133 999
134 283
135 181
136 33
145 44
147 236
148 137
149 166
150 100
151 30
161 51
162 9
163 659
164 264
165 91
166 3
175 45
176 21
177 149
178 62
179 79
191 101
193 97
205 63
206 76
207 902
208 397
209 237
210 58
221 106
222 461
223 200
224 114
225 10

$$$$

     RDKit          2D

 15 15  0  0  0  0  0  0  0  0999 V2000
   -4.4962    5.4556    0.0000 C   0  0  0  0  0  0  0  0  0  0  0  0
   -6.5452    4.9066    0.0000 C   0  0  0  0  0  0  0  0  0  0  0  0
   -5.9962    2.8576    0.0000 C   0  0  0  0  0  0  0  0  0  0  0  0
    3.8471    1.9066    0.0000 C   0  0  0  0  0  0  0  0  0  0  0  0
    3.8476    3.4074    0.0000 C   0  0  0  0  0  0  0  0  0  0  0  0
    2.5476    1.1558    0.0000 C   0  0  0  0  0  0  0  0  0  0  0  0
    2.5486    4.1574    0.0000 C   0  0  0  0  0  0  0  0  0  0  0  0
    1.2486    1.9058    0.0000 C   0  0  0  0  0  0  0  0  0  0  0  0
   -0.0500    4.1566    0.0000 C   0  0  0  0  0  0  0  0  0  0  0  0
   -1.3490    3.4066    0.0000 C   0  0  0  0  0  0  0  0  0  0  0  0
    1.2490    3.4066    0.0000 C   0  0  0  0  0  0  0  0  0  0  0  0
   -2.6481    4.1566    0.0000 C   0  0  0  0  0  0  0  0  0  0  0  0
   -2.6481    5.6566    0.0000 O   0  0  0  0  0  0  0  0  0  0  0  0
   -3.9471    3.4066    0.0000 O   0  0  0  0  0  0  0  0  0  0  0  0
   -5.2462    4.1566    0.0000 Si  0  0  0  0  0  4  0  0  0  0  0  0
  5  4  2  0
  6  4  1  0
  7  5  1  0
  8  6  2  0
 10  9  1  0
 11  7  2  0
 11  8  1  0
 11  9  1  0
 12 10  1  0
 13 12  2  0
 14 12  1  0
 15  1  1  0
 15  2  1  0
 15  3  1  0
 15 14  1  0
M  END
>  <NAME>  (5214) 
BETA-PHENYLPROPIONIC ACID TRIMETHYLSILYL ESTER

>  <SYNONYMS>  (5214) 


>  <SPECTRUM TYPE>  (5214) 
MS1

>  <INSTRUMENT TYPE>  (5214) 
EI-B

>  <INSTRUMENT>  (5214) 
JEOL JMS-01-SG

>  <ION MODE>  (5214) 
P

>  <INCHIKEY>  (5214) 
GRONVOGSDOJOMG-UHFFFAOYSA-N

>  <FORMULA>  (5214) 
C12H18O2Si

>  <EXACT MASS>  (5214) 
222.107606346

>  <MW>  (5214) 
222

>  <ID>  (5214) 
JP001898

>  <CONTRIBUTOR>  (5214) 
University of Tokyo Team, {Faculty of Engineering, University of Tokyo

>  <COMMENT>  (5214) 
SMILES=O=C(CCc(c1)cccc1)O[Si](C)(C)C
InChI=InChI=1S/C12H18O2Si/c1-15(2,3)14-12(13)10-9-11-7-5-4-6-8-11/h4-8H,9-10H2,1-3H3
computed SMILES=O=C(O[Si](C)(C)C)CCC=1C=CC=CC1
accession=JP001898
date=2016.01.19 (Created 2008.10.21, modified 2011.05.06)
author=KOGA M, UNIV. OF OCCUPATIONAL AND ENVIRONMENTAL HEALTH
license=CC BY-NC-SA
exact mass=222.10761
ionization energy=70 eV
ion type=[M]+*
computed spectral entropy=2.263836090210078
computed normalized entropy=0.8578199741269421
SPLASH=splash10-004j-9000000000-2dd07490f3ed7d63d1bf
submitter=submitter = University of Tokyo Team (Faculty of Engineering, University of Tokyo)
MoNA Rating=3.75

>  <NUM PEAKS>  (5214) 
14

>  <MASS SPECTRAL PEAKS>  (5214) 
44 16.5
45 60.9
47 42.1
51 0.22
65 18
73 50.3
75 99.99
77 3.15
78 17.2
85 15.7
91 31.5
104 6.99
105 17.2
207 20.3

>  <PREDICTED SPECTRUM>  (5214) 
26 25
27 70
29 5
38 4
39 103
40 21
41 151
42 43
43 123
44 121
45 271
46 39
47 162
50 123
51 246
52 141
53 106
55 136
57 70
58 131
59 153
60 25
61 172
62 55
63 103
64 41
65 251
66 83
71 8
72 104
73 768
74 228
75 750
76 258
77 444
78 292
79 318
80 59
81 32
83 74
85 80
89 177
90 89
91 999
92 293
93 76
94 8
99 21
101 49
102 68
103 392
104 808
105 792
106 192
107 12
111 6
115 27
116 8
117 293
118 97
131 355
132 469
133 268
134 96
135 83
145 49
147 19
148 71
149 23
150 23
161 34
162 11
163 79
164 9
177 7
178 50
179 13
207 598
208 238
209 72
222 443
223 164
224 106

$$$$

     RDKit          2D

 15 15  0  0  0  0  0  0  0  0999 V2000
   -2.5989   -1.5002    0.0000 C   0  0  0  0  0  0  0  0  0  0  0  0
    5.7464   -0.5483    0.0000 C   0  0  0  0  0  0  0  0  0  0  0  0
    7.7953    0.0010    0.0000 C   0  0  0  0  0  0  0  0  0  0  0  0
    7.2459    2.0500    0.0000 C   0  0  0  0  0  0  0  0  0  0  0  0
   -1.3000    0.7500    0.0000 C   0  0  0  0  0  0  0  0  0  0  0  0
    0.0000   -1.5000    0.0000 C   0  0  0  0  0  0  0  0  0  0  0  0
    0.0000    1.5000    0.0000 C   0  0  0  0  0  0  0  0  0  0  0  0
    1.3000   -0.7500    0.0000 C   0  0  0  0  0  0  0  0  0  0  0  0
    2.5989    1.5002    0.0000 C   0  0  0  0  0  0  0  0  0  0  0  0
   -1.3000   -0.7500    0.0000 C   0  0  0  0  0  0  0  0  0  0  0  0
    1.3000    0.7500    0.0000 C   0  0  0  0  0  0  0  0  0  0  0  0
    3.8981    0.7504    0.0000 C   0  0  0  0  0  0  0  0  0  0  0  0
    3.8983   -0.7496    0.0000 O   0  0  0  0  0  0  0  0  0  0  0  0
    5.1970    1.5006    0.0000 O   0  0  0  0  0  0  0  0  0  0  0  0
    6.4962    0.7508    0.0000 Si  0  0  0  0  0  4  0  0  0  0  0  0
  7  5  2  0
  8  6  1  0
 10  1  1  0
 10  5  1  0
 10  6  2  0
 11  7  1  0
 11  8  2  0
 11  9  1  0
 12  9  1  0
 13 12  2  0
 14 12  1  0
 15  2  1  0
 15  3  1  0
 15  4  1  0
 15 14  1  0
M  END
>  <NAME>  (5215) 
PARA-TOLYLACETIC ACID TRIMETHYLSILYL ESTER

>  <SYNONYMS>  (5215) 


>  <SPECTRUM TYPE>  (5215) 
MS1

>  <INSTRUMENT TYPE>  (5215) 
EI-B

>  <INSTRUMENT>  (5215) 
JEOL JMS-01-SG

>  <ION MODE>  (5215) 
P

>  <INCHIKEY>  (5215) 
LXJDXPPJXKOURQ-UHFFFAOYSA-N

>  <FORMULA>  (5215) 
C12H18O2Si

>  <EXACT MASS>  (5215) 
222.107606346

>  <MW>  (5215) 
222

>  <ID>  (5215) 
JP001897

>  <CONTRIBUTOR>  (5215) 
University of Tokyo Team, {Faculty of Engineering, University of Tokyo

>  <COMMENT>  (5215) 
SMILES=Cc(c1)ccc(c1)CC(=O)O[Si](C)(C)C
InChI=InChI=1S/C12H18O2Si/c1-10-5-7-11(8-6-10)9-12(13)14-15(2,3)4/h5-8H,9H2,1-4H3
computed SMILES=O=C(O[Si](C)(C)C)CC1=CC=C(C=C1)C
accession=JP001897
date=2016.01.19 (Created 2008.10.21, modified 2011.05.06)
author=KOGA M, UNIV. OF OCCUPATIONAL AND ENVIRONMENTAL HEALTH
license=CC BY-NC-SA
exact mass=222.10761
ionization energy=70 eV
ion type=[M]+*
computed spectral entropy=1.8149065743765185
computed normalized entropy=0.654589178632445
SPLASH=splash10-00di-9100000000-75dc4d1fbc46b5e88f82
submitter=submitter = University of Tokyo Team (Faculty of Engineering, University of Tokyo)
MoNA Rating=3.75

>  <NUM PEAKS>  (5215) 
16

>  <MASS SPECTRAL PEAKS>  (5215) 
43 3.9
45 18
73 99.99
74 0.79
75 23.1
77 10.9
78 3.1
79 0.31
103 3.1
104 2.7
105 5.8
151 0.39
178 10.9
179 4.7
207 7
222 2.7

>  <PREDICTED SPECTRUM>  (5215) 
15 6
26 7
27 31
29 13
38 24
39 88
40 18
41 46
42 5
43 130
44 125
45 339
46 24
47 187
48 5
49 27
50 88
51 157
52 122
53 118
54 23
55 18
58 94
59 177
60 89
61 209
62 78
63 123
64 28
65 106
66 24
67 12
72 131
73 999
74 307
75 533
76 125
77 279
78 205
79 186
85 7
89 169
90 121
91 46
92 11
102 19
103 88
104 328
105 526
106 150
107 11
117 114
118 25
119 9
131 16
132 108
134 19
148 39
163 52
165 12
177 22
178 349
179 197
180 45
207 388
208 174
209 92
222 233
223 109
224 47
225 0

$$$$

     RDKit          2D

 15 15  0  0  0  0  0  0  0  0999 V2000
   -0.7363    5.1443    0.0000 C   0  0  0  0  0  0  0  0  0  0  0  0
   -5.3834    4.1934    0.0000 C   0  0  0  0  0  0  0  0  0  0  0  0
   -5.9324    2.1443    0.0000 C   0  0  0  0  0  0  0  0  0  0  0  0
   -3.8834    1.5953    0.0000 C   0  0  0  0  0  0  0  0  0  0  0  0
    3.1608    1.3943    0.0000 C   0  0  0  0  0  0  0  0  0  0  0  0
    3.1613    2.8952    0.0000 C   0  0  0  0  0  0  0  0  0  0  0  0
    1.8613    0.6435    0.0000 C   0  0  0  0  0  0  0  0  0  0  0  0
    1.8623    3.6452    0.0000 C   0  0  0  0  0  0  0  0  0  0  0  0
    0.5623    1.3935    0.0000 C   0  0  0  0  0  0  0  0  0  0  0  0
   -0.7363    3.6443    0.0000 C   0  0  0  0  0  0  0  0  0  0  0  0
    0.5627    2.8943    0.0000 C   0  0  0  0  0  0  0  0  0  0  0  0
   -2.0353    2.8943    0.0000 C   0  0  0  0  0  0  0  0  0  0  0  0
   -2.0353    1.3943    0.0000 O   0  0  0  0  0  0  0  0  0  0  0  0
   -3.3344    3.6443    0.0000 O   0  0  0  0  0  0  0  0  0  0  0  0
   -4.6334    2.8943    0.0000 Si  0  0  0  0  0  4  0  0  0  0  0  0
  6  5  2  0
  7  5  1  0
  8  6  1  0
  9  7  2  0
 10  1  1  0
 11  8  2  0
 11  9  1  0
 11 10  1  0
 12 10  1  0
 13 12  2  0
 14 12  1  0
 15  2  1  0
 15  3  1  0
 15  4  1  0
 15 14  1  0
M  END
>  <NAME>  (5216) 
DL-ALPHA-PHENYLPROPIONIC ACID TRIMETHYLSILYL ESTER

>  <SYNONYMS>  (5216) 


>  <SPECTRUM TYPE>  (5216) 
MS1

>  <INSTRUMENT TYPE>  (5216) 
EI-B

>  <INSTRUMENT>  (5216) 
JEOL JMS-01-SG

>  <ION MODE>  (5216) 
P

>  <INCHIKEY>  (5216) 
OMYJQVPBIWDUAO-UHFFFAOYSA-N

>  <FORMULA>  (5216) 
C12H18O2Si

>  <EXACT MASS>  (5216) 
222.107606346

>  <MW>  (5216) 
222

>  <ID>  (5216) 
JP001896

>  <CONTRIBUTOR>  (5216) 
University of Tokyo Team, {Faculty of Engineering, University of Tokyo

>  <COMMENT>  (5216) 
SMILES=c(c1)ccc(c1)C(C)C(=O)O[Si](C)(C)C
InChI=InChI=1S/C12H18O2Si/c1-10(11-8-6-5-7-9-11)12(13)14-15(2,3)4/h5-10H,1-4H3
computed SMILES=O=C(O[Si](C)(C)C)C(C=1C=CC=CC1)C
accession=JP001896
date=2016.01.19 (Created 2008.10.21, modified 2011.05.06)
author=KOGA M, UNIV. OF OCCUPATIONAL AND ENVIRONMENTAL HEALTH
license=CC BY-NC-SA
exact mass=222.10761
ionization energy=70 eV
ion type=[M]+*
computed spectral entropy=1.8111902025598512
computed normalized entropy=0.6266288056586102
SPLASH=splash10-00di-9100000000-71ff7a6f623ea87de317
submitter=submitter = University of Tokyo Team (Faculty of Engineering, University of Tokyo)
MoNA Rating=3.75

>  <NUM PEAKS>  (5216) 
18

>  <MASS SPECTRAL PEAKS>  (5216) 
44 3.5
45 5.9
47 1.8
51 0.16
73 99.99
74 9.4
75 24.3
77 1.11
79 3.5
103 3.5
104 3.5
105 0.68
117 1.6
147 4.7
178 17.2
179 0.23
207 13.4
208 1.6

>  <PREDICTED SPECTRUM>  (5216) 
15 22
26 2
29 26
31 16
39 4
41 3
43 92
44 43
45 228
46 11
47 210
49 12
50 71
51 144
52 102
53 97
57 12
58 74
59 157
60 19
61 178
62 66
63 82
65 68
66 4
72 61
73 999
74 302
75 541
76 126
77 270
78 184
79 72
85 103
89 119
90 89
91 76
101 0
102 72
103 178
104 338
105 298
106 44
115 108
117 145
118 195
132 63
135 7
148 50
150 48
163 102
164 17
165 8
177 43
178 650
179 348
180 138
181 1
207 402
208 162
209 86
222 15
223 15

$$$$

     RDKit          2D

 15 15  0  0  0  0  0  0  0  0999 V2000
    5.9472    0.2017    0.0000 C   0  0  0  0  0  0  0  0  0  0  0  0
    6.4959    2.2508    0.0000 C   0  0  0  0  0  0  0  0  0  0  0  0
    4.4468    2.7995    0.0000 C   0  0  0  0  0  0  0  0  0  0  0  0
   -1.3000    0.7500    0.0000 C   0  0  0  0  0  0  0  0  0  0  0  0
   -0.0000   -1.5000    0.0000 C   0  0  0  0  0  0  0  0  0  0  0  0
    0.0000    1.5000    0.0000 C   0  0  0  0  0  0  0  0  0  0  0  0
    1.3000   -0.7500    0.0000 C   0  0  0  0  0  0  0  0  0  0  0  0
   -2.5989   -1.5002    0.0000 C   0  0  0  0  0  0  0  0  0  0  0  0
   -1.3000   -0.7500    0.0000 C   0  0  0  0  0  0  0  0  0  0  0  0
    1.3000    0.7500    0.0000 C   0  0  0  0  0  0  0  0  0  0  0  0
    2.5989    1.5002    0.0000 C   0  0  0  0  0  0  0  0  0  0  0  0
   -3.8981   -0.7504    0.0000 O   0  0  0  0  0  0  0  0  0  0  0  0
    2.5987    3.0002    0.0000 O   0  0  0  0  0  0  0  0  0  0  0  0
    3.8981    0.7504    0.0000 O   0  0  0  0  0  0  0  0  0  0  0  0
    5.1970    1.5006    0.0000 Si  0  0  0  0  0  4  0  0  0  0  0  0
  6  4  2  0
  7  5  1  0
  9  4  1  0
  9  5  2  0
  9  8  1  0
 10  6  1  0
 10  7  2  0
 11 10  1  0
 12  8  2  0
 13 11  2  0
 14 11  1  0
 15  1  1  0
 15  2  1  0
 15  3  1  0
 15 14  1  0
M  END
>  <NAME>  (5217) 
BENZALDEHYDE-4-CARBOXYLIC ACID TRIMETHYLSILYL ESTER

>  <SYNONYMS>  (5217) 
TRIMETHYLSILYL 4-FORMYLBENZOATE

>  <SPECTRUM TYPE>  (5217) 
MS1

>  <INSTRUMENT TYPE>  (5217) 
EI-B

>  <INSTRUMENT>  (5217) 
JEOL JMS-01-SG

>  <ION MODE>  (5217) 
P

>  <INCHIKEY>  (5217) 
LLLSJLOFPKECPD-UHFFFAOYSA-N

>  <FORMULA>  (5217) 
C11H14O3Si

>  <EXACT MASS>  (5217) 
222.071220838

>  <MW>  (5217) 
222

>  <ID>  (5217) 
JP001895

>  <CONTRIBUTOR>  (5217) 
University of Tokyo Team, {Faculty of Engineering, University of Tokyo

>  <COMMENT>  (5217) 
SMILES=O=Cc(c1)ccc(c1)C(=O)O[Si](C)(C)C
InChI=InChI=1S/C11H14O3Si/c1-15(2,3)14-11(13)10-6-4-9(8-12)5-7-10/h4-8H,1-3H3
computed SMILES=O=CC1=CC=C(C=C1)C(=O)O[Si](C)(C)C
accession=JP001895
date=2016.01.19 (Created 2008.10.21, modified 2011.05.06)
author=KOGA M, UNIV. OF OCCUPATIONAL AND ENVIRONMENTAL HEALTH
license=CC BY-NC-SA
exact mass=222.07122
ionization energy=70 eV
ion type=[M]+*
computed spectral entropy=2.4148536943652847
computed normalized entropy=0.781242487220331
SPLASH=splash10-0bu0-4940000000-3657816e0cd51fefff4f
submitter=submitter = University of Tokyo Team (Faculty of Engineering, University of Tokyo)
MoNA Rating=3.75

>  <NUM PEAKS>  (5217) 
22

>  <MASS SPECTRAL PEAKS>  (5217) 
45 9
47 7
50 9
51 2.1
73 20
74 5.5
75 16.5
76 1.4
77 35
89 10
103 14
104 0.8
105 35
133 96.5
134 10.5
135 0.5
163 68
164 10
207 99.99
208 1.75
209 6
222 10

>  <PREDICTED SPECTRUM>  (5217) 
15 10
27 31
28 15
29 120
38 28
39 29
41 0
43 157
44 109
45 246
46 23
47 135
49 30
50 132
51 180
52 22
53 40
55 102
59 120
60 49
61 50
62 50
63 105
64 48
65 46
66 33
67 14
73 316
74 152
75 362
76 188
77 381
78 100
79 97
82 4
89 113
90 34
91 157
92 98
95 28
96 56
98 22
101 61
102 188
103 262
104 256
105 430
106 30
132 62
133 869
134 214
135 178
136 68
137 27
149 27
163 911
164 301
165 109
177 40
178 2
179 83
207 999
208 370
209 186
210 28
221 95
222 276
223 95
224 27

$$$$

     RDKit          2D

 15 15  0  0  0  0  0  0  0  0999 V2000
   -4.4962    5.4556    0.0000 C   0  0  0  0  0  0  0  0  0  0  0  0
   -6.5452    4.9066    0.0000 C   0  0  0  0  0  0  0  0  0  0  0  0
   -5.9962    2.8576    0.0000 C   0  0  0  0  0  0  0  0  0  0  0  0
    3.8471    1.9066    0.0000 C   0  0  0  0  0  0  0  0  0  0  0  0
    3.8476    3.4074    0.0000 C   0  0  0  0  0  0  0  0  0  0  0  0
    2.5476    1.1558    0.0000 C   0  0  0  0  0  0  0  0  0  0  0  0
    2.5486    4.1574    0.0000 C   0  0  0  0  0  0  0  0  0  0  0  0
    1.2486    1.9058    0.0000 C   0  0  0  0  0  0  0  0  0  0  0  0
   -0.0500    4.1566    0.0000 C   0  0  0  0  0  0  0  0  0  0  0  0
   -1.3490    3.4066    0.0000 C   0  0  0  0  0  0  0  0  0  0  0  0
    1.2490    3.4066    0.0000 C   0  0  0  0  0  0  0  0  0  0  0  0
   -2.6481    4.1566    0.0000 C   0  0  0  0  0  0  0  0  0  0  0  0
   -2.6481    5.6566    0.0000 O   0  0  0  0  0  0  0  0  0  0  0  0
   -3.9471    3.4066    0.0000 O   0  0  0  0  0  0  0  0  0  0  0  0
   -5.2462    4.1566    0.0000 Si  0  0  0  0  0  4  0  0  0  0  0  0
  5  4  2  0
  6  4  1  0
  7  5  1  0
  8  6  2  0
  9 10  2  0
 11  7  2  0
 11  8  1  0
 11  9  1  0
 12 10  1  0
 13 12  2  0
 14 12  1  0
 15  1  1  0
 15  2  1  0
 15  3  1  0
 15 14  1  0
M  END
>  <NAME>  (5218) 
3-PHENYL-2-PROPENOIC ACID TRIMETHYLSILYL ESTER

>  <SYNONYMS>  (5218) 
CINNAMIC ACID TRIMETHYLSILYL ESTER

>  <SPECTRUM TYPE>  (5218) 
MS1

>  <INSTRUMENT TYPE>  (5218) 
EI-B

>  <INSTRUMENT>  (5218) 
JEOL JMS-01-SG

>  <ION MODE>  (5218) 
P

>  <INCHIKEY>  (5218) 
HEVXLPBSUCJVAQ-MDZDMXLPSA-N

>  <FORMULA>  (5218) 
C12H16O2Si

>  <EXACT MASS>  (5218) 
220.091956282

>  <MW>  (5218) 
220

>  <ID>  (5218) 
JP001894

>  <CONTRIBUTOR>  (5218) 
University of Tokyo Team, {Faculty of Engineering, University of Tokyo

>  <COMMENT>  (5218) 
SMILES=O=C(C=Cc(c1)cccc1)O[Si](C)(C)C
InChI=InChI=1S/C12H16O2Si/c1-15(2,3)14-12(13)10-9-11-7-5-4-6-8-11/h4-10H,1-3H3/b10-9+
computed SMILES=O=C(O[Si](C)(C)C)C=CC=1C=CC=CC1
accession=JP001894
date=2016.01.19 (Created 2008.10.21, modified 2011.05.06)
author=KOGA M, UNIV. OF OCCUPATIONAL AND ENVIRONMENTAL HEALTH
license=CC BY-NC-SA
exact mass=220.09196
ionization energy=70 eV
ion type=[M]+*
computed spectral entropy=2.4579215635223135
computed normalized entropy=0.8347673634649891
SPLASH=splash10-0m30-5940000000-42c6242e404ddf2a790d
submitter=submitter = University of Tokyo Team (Faculty of Engineering, University of Tokyo)
MoNA Rating=3.75

>  <NUM PEAKS>  (5218) 
19

>  <MASS SPECTRAL PEAKS>  (5218) 
43 21.2
45 22.1
51 8.8
73 1.5
75 53
76 7
77 51.3
102 0.88
103 56.6
131 98.2
132 7.9
135 2.12
145 23.8
161 85.8
162 13.2
205 99.99
206 15.9
207 6.1
220 22.1

>  <PREDICTED SPECTRUM>  (5218) 
15 20
26 38
27 116
28 58
29 140
31 38
38 76
39 164
40 26
41 62
43 197
44 162
45 352
46 24
47 255
48 5
49 81
50 263
51 425
52 160
53 121
55 76
56 0
57 255
58 181
59 230
60 43
61 110
62 130
63 229
64 103
65 162
66 91
71 70
72 59
73 642
74 257
75 626
76 330
77 691
78 257
79 65
83 0
85 97
86 28
89 12
90 6
91 150
92 160
93 7
94 10
95 4
99 44
100 88
101 206
102 557
103 829
104 386
105 327
106 105
115 280
116 104
117 114
118 63
119 87
120 76
121 40
122 62
128 44
129 195
130 292
131 999
132 247
133 108
134 35
135 176
143 53
145 122
159 45
161 864
162 319
163 9
175 36
176 99
177 111
178 14
193 64
205 989
206 430
207 191
208 71
219 247
220 520
221 255
222 77

$$$$

     RDKit          2D

 14 14  0  0  0  0  0  0  0  0999 V2000
   -5.3834    4.1934    0.0000 C   0  0  0  0  0  0  0  0  0  0  0  0
   -5.9324    2.1443    0.0000 C   0  0  0  0  0  0  0  0  0  0  0  0
   -3.8834    1.5953    0.0000 C   0  0  0  0  0  0  0  0  0  0  0  0
    3.1608    1.3943    0.0000 C   0  0  0  0  0  0  0  0  0  0  0  0
    3.1613    2.8952    0.0000 C   0  0  0  0  0  0  0  0  0  0  0  0
    1.8613    0.6435    0.0000 C   0  0  0  0  0  0  0  0  0  0  0  0
    1.8623    3.6452    0.0000 C   0  0  0  0  0  0  0  0  0  0  0  0
    0.5623    1.3935    0.0000 C   0  0  0  0  0  0  0  0  0  0  0  0
   -0.7363    3.6443    0.0000 C   0  0  0  0  0  0  0  0  0  0  0  0
    0.5627    2.8943    0.0000 C   0  0  0  0  0  0  0  0  0  0  0  0
   -2.0353    2.8943    0.0000 C   0  0  0  0  0  0  0  0  0  0  0  0
   -2.0353    1.3943    0.0000 O   0  0  0  0  0  0  0  0  0  0  0  0
   -3.3344    3.6443    0.0000 O   0  0  0  0  0  0  0  0  0  0  0  0
   -4.6334    2.8943    0.0000 Si  0  0  0  0  0  4  0  0  0  0  0  0
  5  4  1  0
  6  4  1  0
  7  5  1  0
  8  6  1  0
 10  7  1  0
 10  8  1  0
 10  9  1  0
 11  9  1  0
 12 11  2  0
 13 11  1  0
 14  1  1  0
 14  2  1  0
 14  3  1  0
 14 13  1  0
M  END
>  <NAME>  (5219) 
CYCLOHEXYLACETIC ACID TRIMETHYLSILYL ESTER

>  <SYNONYMS>  (5219) 


>  <SPECTRUM TYPE>  (5219) 
MS1

>  <INSTRUMENT TYPE>  (5219) 
EI-B

>  <INSTRUMENT>  (5219) 
JEOL JMS-01-SG

>  <ION MODE>  (5219) 
P

>  <INCHIKEY>  (5219) 
YKJZHLWHFWFOOE-UHFFFAOYSA-N

>  <FORMULA>  (5219) 
C11H22O2Si

>  <EXACT MASS>  (5219) 
214.138906474

>  <MW>  (5219) 
214

>  <ID>  (5219) 
JP001893

>  <CONTRIBUTOR>  (5219) 
University of Tokyo Team, {Faculty of Engineering, University of Tokyo

>  <COMMENT>  (5219) 
SMILES=O=C(CC(C1)CCCC1)O[Si](C)(C)C
InChI=InChI=1S/C11H22O2Si/c1-14(2,3)13-11(12)9-10-7-5-4-6-8-10/h10H,4-9H2,1-3H3
computed SMILES=O=C(O[Si](C)(C)C)CC1CCCCC1
accession=JP001893
date=2016.01.19 (Created 2008.10.21, modified 2011.05.06)
author=KOGA M, UNIV. OF OCCUPATIONAL AND ENVIRONMENTAL HEALTH
license=CC BY-NC-SA
exact mass=214.13891
ionization energy=70 eV
ion type=[M]+*
computed spectral entropy=2.606466781376729
computed normalized entropy=0.7663379947984542
SPLASH=splash10-014i-6900000000-1f48680799597aa413b2
submitter=submitter = University of Tokyo Team (Faculty of Engineering, University of Tokyo)
MoNA Rating=3.75

>  <NUM PEAKS>  (5219) 
30

>  <MASS SPECTRAL PEAKS>  (5219) 
43 5.2
44 4.9
45 9.8
47 0.8
55 12.1
59 4.3
61 4.6
67 0.43
72 5.4
73 45.3
74 6
75 7.02
76 5.7
77 15.8
79 9.8
81 0.6
83 2
107 4.3
116 4.6
117 99.99
118 9.5
119 4.9
131 7.8
132 3.41
133 8.3
147 1.7
148 2
155 0.2
199 36.4
200 6.3

>  <PREDICTED SPECTRUM>  (5219) 
14 0
15 26
26 45
27 141
28 92
29 99
31 42
36 4
37 15
38 55
39 214
40 116
41 333
42 119
43 172
44 244
45 311
46 92
47 168
49 31
50 55
51 89
52 110
53 185
54 242
55 519
56 113
57 73
58 68
59 232
60 184
61 320
62 39
63 24
64 17
65 65
66 111
67 341
68 139
69 89
71 25
72 128
73 999
74 316
75 831
76 235
77 219
78 127
79 150
80 82
81 229
82 191
83 177
85 23
86 11
88 33
89 113
90 54
91 89
92 24
93 35
95 305
96 177
97 85
98 51
99 64
100 14
101 71
102 56
104 9
105 121
106 35
109 34
113 22
114 19
115 26
116 117
117 820
118 293
119 66
123 56
124 50
127 13
129 218
130 76
131 335
132 353
133 189
134 39
142 40
143 33
145 8
146 3
155 108
170 164
171 39
199 625
200 257
201 151
214 75
215 25

$$$$

     RDKit          2D

 13 13  0  0  0  0  0  0  0  0999 V2000
   -1.2226    4.5396    0.0000 C   0  0  0  0  0  0  0  0  0  0  0  0
   -2.1704    2.6418    0.0000 C   0  0  0  0  0  0  0  0  0  0  0  0
   -0.2726    1.6940    0.0000 C   0  0  0  0  0  0  0  0  0  0  0  0
    5.5895   -0.0207    0.0000 C   0  0  0  0  0  0  0  0  0  0  0  0
    6.5606    1.1173    0.0000 C   0  0  0  0  0  0  0  0  0  0  0  0
    4.2001    0.5859    0.0000 C   0  0  0  0  0  0  0  0  0  0  0  0
    5.7983    2.3977    0.0000 C   0  0  0  0  0  0  0  0  0  0  0  0
    3.2208    3.0721    0.0000 C   0  0  0  0  0  0  0  0  0  0  0  0
    4.3435    2.0774    0.0000 C   0  0  0  0  0  0  0  0  0  0  0  0
    1.7980    2.5971    0.0000 C   0  0  0  0  0  0  0  0  0  0  0  0
    1.4979    1.1274    0.0000 O   0  0  0  0  0  0  0  0  0  0  0  0
    0.6752    3.5918    0.0000 O   0  0  0  0  0  0  0  0  0  0  0  0
   -0.7476    3.1168    0.0000 Si  0  0  0  0  0  4  0  0  0  0  0  0
  5  4  1  0
  6  4  1  0
  7  5  1  0
  9  6  1  0
  9  7  1  0
  9  8  1  0
 10  8  1  0
 11 10  2  0
 12 10  1  0
 13  1  1  0
 13  2  1  0
 13  3  1  0
 13 12  1  0
M  END
>  <NAME>  (5220) 
CYCLOPENTYLACETIC ACID TRIMETHYLSILYL ESTER

>  <SYNONYMS>  (5220) 


>  <SPECTRUM TYPE>  (5220) 
MS1

>  <INSTRUMENT TYPE>  (5220) 
EI-B

>  <INSTRUMENT>  (5220) 
JEOL JMS-01-SG

>  <ION MODE>  (5220) 
P

>  <INCHIKEY>  (5220) 
MPPGRILZFNBLIQ-UHFFFAOYSA-N

>  <FORMULA>  (5220) 
C10H20O2Si

>  <EXACT MASS>  (5220) 
200.12325641

>  <MW>  (5220) 
200

>  <ID>  (5220) 
JP001892

>  <CONTRIBUTOR>  (5220) 
University of Tokyo Team, {Faculty of Engineering, University of Tokyo

>  <COMMENT>  (5220) 
SMILES=O=C(CC(C1)CCC1)O[Si](C)(C)C
InChI=InChI=1S/C10H20O2Si/c1-13(2,3)12-10(11)8-9-6-4-5-7-9/h9H,4-8H2,1-3H3
computed SMILES=O=C(O[Si](C)(C)C)CC1CCCC1
accession=JP001892
date=2016.01.19 (Created 2008.10.21, modified 2011.05.06)
author=KOGA M, UNIV. OF OCCUPATIONAL AND ENVIRONMENTAL HEALTH
license=CC BY-NC-SA
exact mass=200.12326
ionization energy=70 eV
ion type=[M]+*
computed spectral entropy=2.139710169924967
computed normalized entropy=0.7717373127726078
SPLASH=splash10-00vr-9600000000-e54817d7f3770943d7a1
submitter=submitter = University of Tokyo Team (Faculty of Engineering, University of Tokyo)
MoNA Rating=3.75

>  <NUM PEAKS>  (5220) 
16

>  <MASS SPECTRAL PEAKS>  (5220) 
43 11.1
44 4.1
45 20.1
58 0.98
73 98.3
74 10.2
75 99.99
76 0.9
77 16.8
93 9.8
117 72.4
118 0.86
132 16.8
167 10.2
185 92.1
186 16

>  <PREDICTED SPECTRUM>  (5220) 
15 24
26 45
27 134
28 69
29 109
30 18
31 79
35 11
36 20
37 20
38 53
39 236
40 133
41 372
42 154
43 175
44 211
45 343
46 78
47 228
49 59
50 23
51 71
52 81
53 173
54 174
55 468
56 29
57 95
58 77
59 140
60 142
61 318
62 14
63 30
64 10
65 64
66 106
67 350
68 199
69 156
70 36
71 48
72 139
73 999
74 318
75 907
76 269
77 243
78 88
79 126
81 113
82 206
83 198
84 71
85 68
86 47
88 33
91 32
93 49
95 215
96 6
99 89
100 62
101 61
102 57
103 115
104 10
105 63
109 66
110 189
113 44
114 54
115 56
116 88
117 629
118 277
119 76
125 38
127 16
128 83
129 158
130 105
131 197
132 377
133 32
141 127
142 40
143 12
145 28
156 137
157 68
158 0
169 48
185 651
186 266
187 172
188 23
200 99
201 47

$$$$

     RDKit          2D

 13 13  0  0  0  0  0  0  0  0999 V2000
   -2.5476    4.3306    0.0000 C   0  0  0  0  0  0  0  0  0  0  0  0
   -4.5966    3.7816    0.0000 C   0  0  0  0  0  0  0  0  0  0  0  0
   -4.0476    1.7326    0.0000 C   0  0  0  0  0  0  0  0  0  0  0  0
    3.1976    0.7816    0.0000 C   0  0  0  0  0  0  0  0  0  0  0  0
    3.1981    2.2824    0.0000 C   0  0  0  0  0  0  0  0  0  0  0  0
    1.8981    0.0308    0.0000 C   0  0  0  0  0  0  0  0  0  0  0  0
    1.8990    3.0324    0.0000 C   0  0  0  0  0  0  0  0  0  0  0  0
    0.5990    0.7808    0.0000 C   0  0  0  0  0  0  0  0  0  0  0  0
    0.5995    2.2816    0.0000 C   0  0  0  0  0  0  0  0  0  0  0  0
   -0.6995    3.0316    0.0000 C   0  0  0  0  0  0  0  0  0  0  0  0
   -0.6995    4.5316    0.0000 O   0  0  0  0  0  0  0  0  0  0  0  0
   -1.9986    2.2816    0.0000 O   0  0  0  0  0  0  0  0  0  0  0  0
   -3.2976    3.0316    0.0000 Si  0  0  0  0  0  4  0  0  0  0  0  0
  5  4  1  0
  6  4  1  0
  7  5  1  0
  8  6  1  0
  9  7  1  0
  9  8  1  0
 10  9  1  0
 11 10  2  0
 12 10  1  0
 13  1  1  0
 13  2  1  0
 13  3  1  0
 13 12  1  0
M  END
>  <NAME>  (5221) 
CYCLOHEXANECARBOXYLIC ACID TRIMETHYLSILYLESTER

>  <SYNONYMS>  (5221) 


>  <SPECTRUM TYPE>  (5221) 
MS1

>  <INSTRUMENT TYPE>  (5221) 
EI-B

>  <INSTRUMENT>  (5221) 
JEOL JMS-01-SG

>  <ION MODE>  (5221) 
P

>  <INCHIKEY>  (5221) 
PYJUBHQOZUNCIC-UHFFFAOYSA-N

>  <FORMULA>  (5221) 
C10H20O2Si

>  <EXACT MASS>  (5221) 
200.12325640999998

>  <MW>  (5221) 
200

>  <ID>  (5221) 
JP001891

>  <CONTRIBUTOR>  (5221) 
University of Tokyo Team, {Faculty of Engineering, University of Tokyo

>  <COMMENT>  (5221) 
SMILES=C(C1)CCC(C1)C(=O)O[Si](C)(C)C
InChI=InChI=1S/C10H20O2Si/c1-13(2,3)12-10(11)9-7-5-4-6-8-9/h9H,4-8H2,1-3H3
computed SMILES=O=C(O[Si](C)(C)C)C1CCCCC1
accession=JP001891
date=2016.01.19 (Created 2008.10.21, modified 2011.05.06)
author=KOGA M, UNIV. OF OCCUPATIONAL AND ENVIRONMENTAL HEALTH
license=CC BY-NC-SA
exact mass=200.12326
ionization energy=70 eV
ion type=[M]+*
computed spectral entropy=1.719808273336416
computed normalized entropy=0.7172157570206894
SPLASH=splash10-00di-9100000000-20f75081ee87ca9e816a
submitter=submitter = University of Tokyo Team (Faculty of Engineering, University of Tokyo)
MoNA Rating=3.75

>  <NUM PEAKS>  (5221) 
11

>  <MASS SPECTRAL PEAKS>  (5221) 
45 23.1
55 8.4
57 6.2
58 0.64
73 99.99
74 7.9
75 41.3
77 0.57
117 6.9
185 24.9
186 5.9

>  <PREDICTED SPECTRUM>  (5221) 
14 10
15 55
18 18
26 62
27 126
28 68
29 115
30 41
31 72
38 26
39 157
40 72
41 244
42 98
43 166
44 133
45 337
46 115
47 242
48 3
49 21
50 46
51 63
52 78
53 175
54 180
55 293
56 43
57 56
58 103
59 237
60 72
61 145
63 20
65 26
66 93
67 232
68 199
69 55
71 64
72 195
73 999
74 312
75 839
76 223
77 197
78 80
79 65
81 164
82 271
83 280
84 84
85 46
86 23
89 111
90 62
91 156
92 41
93 77
95 127
99 58
104 21
109 54
110 232
111 55
113 62
114 21
115 44
116 114
117 410
118 86
128 26
129 443
130 106
131 35
132 109
141 215
142 15
143 105
144 19
145 158
146 6
155 71
156 264
157 167
158 105
159 43
185 702
186 302
187 122
200 241
201 99

$$$$

     RDKit          2D

 13 13  0  0  0  0  0  0  0  0999 V2000
   -2.5476    4.3306    0.0000 C   0  0  0  0  0  0  0  0  0  0  0  0
   -4.5966    3.7816    0.0000 C   0  0  0  0  0  0  0  0  0  0  0  0
   -4.0476    1.7326    0.0000 C   0  0  0  0  0  0  0  0  0  0  0  0
    3.1976    0.7816    0.0000 C   0  0  0  0  0  0  0  0  0  0  0  0
    3.1981    2.2824    0.0000 C   0  0  0  0  0  0  0  0  0  0  0  0
    1.8981    0.0308    0.0000 C   0  0  0  0  0  0  0  0  0  0  0  0
    1.8990    3.0324    0.0000 C   0  0  0  0  0  0  0  0  0  0  0  0
    0.5990    0.7808    0.0000 C   0  0  0  0  0  0  0  0  0  0  0  0
    0.5995    2.2816    0.0000 C   0  0  0  0  0  0  0  0  0  0  0  0
   -0.6995    3.0316    0.0000 C   0  0  0  0  0  0  0  0  0  0  0  0
   -0.6995    4.5316    0.0000 O   0  0  0  0  0  0  0  0  0  0  0  0
   -1.9986    2.2816    0.0000 O   0  0  0  0  0  0  0  0  0  0  0  0
   -3.2976    3.0316    0.0000 Si  0  0  0  0  0  4  0  0  0  0  0  0
  5  4  2  0
  6  4  1  0
  7  5  1  0
  8  6  1  0
  9  7  1  0
  9  8  1  0
 10  9  1  0
 11 10  2  0
 12 10  1  0
 13  1  1  0
 13  2  1  0
 13  3  1  0
 13 12  1  0
M  END
>  <NAME>  (5222) 
CYCLOHEXENE-4-CARBOXYLIC ACID TRIMETHYLSILYL ESTER

>  <SYNONYMS>  (5222) 


>  <SPECTRUM TYPE>  (5222) 
MS1

>  <INSTRUMENT TYPE>  (5222) 
EI-B

>  <INSTRUMENT>  (5222) 
JEOL JMS-01-SG

>  <ION MODE>  (5222) 
P

>  <INCHIKEY>  (5222) 
BFVIGVPKTFVFNX-UHFFFAOYSA-N

>  <FORMULA>  (5222) 
C10H18O2Si

>  <EXACT MASS>  (5222) 
198.107606346

>  <MW>  (5222) 
198

>  <ID>  (5222) 
JP001890

>  <CONTRIBUTOR>  (5222) 
University of Tokyo Team, {Faculty of Engineering, University of Tokyo

>  <COMMENT>  (5222) 
SMILES=C(C1)=CCC(C1)C(=O)O[Si](C)(C)C
InChI=InChI=1S/C10H18O2Si/c1-13(2,3)12-10(11)9-7-5-4-6-8-9/h4-5,9H,6-8H2,1-3H3
computed SMILES=O=C(O[Si](C)(C)C)C1CC=CCC1
accession=JP001890
date=2016.01.19 (Created 2008.10.21, modified 2011.05.06)
author=KOGA M, UNIV. OF OCCUPATIONAL AND ENVIRONMENTAL HEALTH
license=CC BY-NC-SA
exact mass=198.10761
ionization energy=70 eV
ion type=[M]+*
computed spectral entropy=2.4205455279609733
computed normalized entropy=0.6984218058870508
SPLASH=splash10-00di-9200000000-67c5ceb8c0082d44b131
submitter=submitter = University of Tokyo Team (Faculty of Engineering, University of Tokyo)
MoNA Rating=3.75

>  <NUM PEAKS>  (5222) 
32

>  <MASS SPECTRAL PEAKS>  (5222) 
44 2.7
45 9.8
47 4.5
51 0.17
53 2.9
55 2.1
57 3.2
58 0.32
59 4.3
61 2.7
66 1.6
72 0.16
73 99.99
74 9.8
75 37.3
76 0.23
77 8.2
78 1.7
79 11.7
80 4.66
81 5.8
107 1.6
108 7.6
117 0.68
129 9.6
131 1.7
147 1.4
154 0.45
158 1.6
183 20.5
184 3.6
198 3.2

>  <PREDICTED SPECTRUM>  (5222) 
14 0
15 20
26 23
27 82
28 47
29 59
31 7
38 16
39 99
40 59
41 120
43 99
44 145
45 292
46 7
47 177
49 20
50 35
51 97
52 69
53 159
54 105
55 40
56 15
57 65
58 34
59 128
60 49
61 157
62 30
63 54
65 100
66 140
67 146
71 65
72 88
73 999
74 300
75 687
76 162
77 303
78 133
79 289
80 275
81 291
82 93
85 30
89 27
91 59
92 62
93 38
99 27
102 9
107 60
108 206
115 45
116 76
117 109
127 11
129 349
130 152
131 43
143 13
144 22
153 67
154 57
155 89
156 39
170 31
171 12
183 342
184 133
185 45
198 145
199 66

$$$$

     RDKit          2D

 27 30  0  0  1  0  0  0  0  0999 V2000
    9.2324    7.1952    0.0000 C   0  0  0  0  0  0  0  0  0  0  0  0
    6.7615    7.9981    0.0000 C   0  0  0  0  0  0  0  0  0  0  0  0
    2.8999    4.5213    0.0000 C   0  0  0  0  0  0  0  0  0  0  0  0
   -1.8900    0.7600    0.0000 C   0  0  0  0  0  0  0  0  0  0  0  0
    2.1640    3.0021    0.0000 C   0  0  0  0  0  0  0  0  0  0  0  0
   -4.4900   -2.2400    0.0000 C   0  0  0  0  0  0  0  0  0  0  0  0
   -4.4900   -0.7400    0.0000 C   0  0  0  0  0  0  0  0  0  0  0  0
    5.8343    5.1450    0.0000 C   0  0  0  0  0  0  0  0  0  0  0  0
    7.3016    5.4568    0.0000 C   0  0  0  0  0  0  0  0  0  0  0  0
    5.3708    3.7184    0.0000 C   0  0  0  0  0  0  0  0  0  0  0  0
   -3.1900   -2.9900    0.0000 C   0  0  0  0  0  0  0  0  0  0  0  0
   -0.5900   -2.9900    0.0000 C   0  0  0  0  0  0  0  0  0  0  0  0
    0.7100   -2.2400    0.0000 C   0  0  0  0  0  0  0  0  0  0  0  0
    4.3200    0.7600    0.0000 C   0  0  0  0  0  0  0  0  0  0  0  0
    3.4400   -0.4500    0.0000 C   0  0  0  0  0  0  0  0  0  0  0  0
   -0.5900    1.5100    0.0000 C   0  0  0  0  0  0  0  0  0  0  0  0
   -3.1900    0.0100    0.0000 C   0  0  0  0  0  0  0  0  0  0  0  0
    0.7100    2.2600    0.0000 C   0  0  0  0  0  0  0  0  0  0  0  0
    7.7651    6.8834    0.0000 C   0  0  0  0  0  0  0  0  0  0  0  0
    3.9036    3.4066    0.0000 C   0  0  0  0  0  0  0  0  0  0  0  0
   -1.8900   -2.2400    0.0000 C   0  0  0  0  0  0  0  0  0  0  0  0
    0.7100   -0.7400    0.0000 C   0  0  0  0  0  0  0  0  0  0  0  0
    3.4400    1.9800    0.0000 C   0  0  0  0  0  0  0  0  0  0  0  0
    2.0100    0.0100    0.0000 C   0  0  0  0  0  0  0  0  0  0  0  0
   -0.5900    0.0100    0.0000 C   0  0  0  0  0  0  0  0  0  0  0  0
   -1.8900   -0.7400    0.0000 C   0  0  0  0  0  0  0  0  0  0  0  0
    2.0100    1.5100    0.0000 C   0  0  0  0  0  0  0  0  0  0  0  0
  7  6  1  0
  9  8  1  0
 10  8  1  0
 11  6  2  0
 13 12  1  0
 15 14  1  0
 17  7  1  0
 18 16  1  0
 19  1  1  0
 19  2  1  0
 19  9  1  0
 20  3  1  6
 20 10  1  0
 21 11  1  1
 21 12  1  0
 22 13  1  6
 23 14  1  1
 23 20  1  0
 24 15  1  1
 24 22  1  0
 25 16  1  1
 25 22  1  0
 26  4  1  1
 26 17  1  0
 26 21  1  0
 26 25  1  0
 27  5  1  1
 27 18  1  0
 27 23  1  0
 27 24  1  0
M  END
>  <NAME>  (5223) 
5ALPHA-CHOLEST-3-ENE

>  <SYNONYMS>  (5223) 
3-CHOLESTENE

>  <SPECTRUM TYPE>  (5223) 
MS1

>  <INSTRUMENT TYPE>  (5223) 
EI-B

>  <INSTRUMENT>  (5223) 
SHIMADZU LKB-9000B

>  <ION MODE>  (5223) 
P

>  <INCHIKEY>  (5223) 
SFBMPHLOQAKIBY-XWLABEFZSA-N

>  <FORMULA>  (5223) 
C27H46

>  <EXACT MASS>  (5223) 
370.359951472

>  <MW>  (5223) 
370

>  <ID>  (5223) 
JP001889

>  <CONTRIBUTOR>  (5223) 
University of Tokyo Team, {Faculty of Engineering, University of Tokyo

>  <COMMENT>  (5223) 
SMILES=C(C1)C=CC([H])(C4)C(C(C3([H])C4)([H])CCC(C3([H])2)(C)C([H])(CC2)C(CCCC(C)C)([H])C)(C)1
InChI=InChI=1S/C27H46/c1-19(2)9-8-10-20(3)23-14-15-24-22-13-12-21-11-6-7-17-26(21,4)25(22)16-18-27(23,24)5/h6,11,19-25H,7-10,12-18H2,1-5H3/t20-,21-,22+,23-,24+,25+,26+,27-/m1/s1
computed SMILES=C1=CC2CCC3C4CCC(C(C)CCCC(C)C)C4(C)CCC3C2(C)CC1
accession=JP001889
date=2016.01.19 (Created 2008.10.21, modified 2011.05.06)
author=SEYAMA Y, DEPT. OF PHYSIOL. CHEMISTRY AND NUTRITION, FAC. OF MEDICINE, UNIV. OF TOKYO
license=CC BY-NC-SA
exact mass=370.35995
ionization energy=70 eV
ion type=[M]+*
computed spectral entropy=4.546616302451826
computed normalized entropy=0.8443904673387788
SPLASH=splash10-05mo-9822000000-e0bad95790c46a6d8813
submitter=submitter = University of Tokyo Team (Faculty of Engineering, University of Tokyo)
MoNA Rating=3.75

>  <NUM PEAKS>  (5223) 
218

>  <MASS SPECTRAL PEAKS>  (5223) 
36 8
38 3.1
39 8.4
40 3.6
41 61.3
42 8.2
43 99.99
45 29.9
46 11.4
50 6.8
52 2.3
53 14.8
54 6.5
55 85.9
56 11.6
57 57
58 2.4
59 12.4
65 8
66 4.5
67 60.1
68 16.7
69 52
70 7.5
71 24.6
72 1.8
73 1
74 2.8
77 26
78 8.5
79 74.4
80 18.2
81 86.4
82 17.4
83 36.9
84 3.8
85 4.6
87 2
89 1.2
90 2.4
91 72.7
92 25.2
93 84.1
94 33.2
95 79.7
96 9.5
97 23.6
98 2.9
99 1.9
100 8.6
101 2.7
103 2.9
104 10.9
105 69
106 60.4
107 73.4
108 44.4
109 42.7
110 6.5
111 33.1
112 5.6
113 4.2
114 2.3
115 5.4
116 1
117 12.5
118 5.7
119 35.3
120 20.7
121 36.2
122 14.3
123 24.3
124 3.6
125 5
126 3.4
127 1.4
128 5.6
129 4
130 2.6
131 15
132 6.3
133 31.6
134 16.6
135 25.5
136 7.9
137 8.3
138 4.4
139 3.7
140 3
141 4.9
143 1.7
144 2.9
145 22.7
146 8.6
147 54.9
148 18.3
149 19.4
150 3.7
151 5.7
152 2.3
153 4.5
154 1.3
155 1.3
156 1
157 1.1
158 1.5
159 13.3
160 11.2
161 53.5
162 29.2
163 12.3
164 3
165 2.8
166 3
167 3.6
171 1.9
172 5
173 12.5
174 6.8
175 15.4
176 40.1
177 15.2
178 2.4
179 0.28
181 2.1
185 3.7
186 3.6
187 0.89
188 8.2
189 9.2
190 6.5
192 0.18
193 2.1
194 4.2
197 1.3
198 0.41
199 3.1
201 25
202 12.3
203 4.86
204 7.6
205 1
206 1.4
207 0.15
214 1.6
215 92.7
216 54.6
217 2.5
218 4
219 2.6
220 2.4
221 0.23
222 2.4
225 1.5
226 2.3
227 0.28
229 5.4
230 19
231 8
232 0.33
233 1
241 2.2
242 2.1
243 0.32
244 2.2
245 1.1
246 1.5
247 0.27
249 2.6
251 3
252 1.2
253 0.14
255 3.1
256 4.5
257 31.1
258 0.81
259 1.1
260 2.9
261 3
262 0.64
263 2
267 2.9
268 2.6
271 0.29
272 1.3
273 1
275 6.1
276 0.23
279 1.6
280 2
281 2.2
285 0.32
287 4.8
300 2.7
301 10.2
302 0.42
306 2.7
313 2.2
314 2.7
315 0.58
316 83.5
317 22.3
318 2.7
325 0.18
328 2.5
333 1.4
334 1.6
339 0.27
341 3.3
355 37.9
356 11.8
357 0.22
366 2.5
368 1.2
370 91.4
371 2.95
372 5
399 1.1

>  <PREDICTED SPECTRUM>  (5223) 
26 35
27 73
28 71
29 138
30 24
32 6
34 2
39 128
40 94
41 421
42 182
43 478
44 109
45 90
50 11
51 55
52 45
53 173
54 114
55 533
56 208
57 392
58 117
59 54
60 35
63 44
64 26
65 121
66 98
67 373
68 190
69 352
70 164
71 305
72 63
73 30
74 32
75 1
77 247
78 103
79 367
80 193
81 497
82 224
83 265
84 102
85 124
86 36
87 56
88 0
89 16
91 368
92 191
93 451
94 262
95 463
96 156
97 209
98 55
99 81
101 74
102 20
103 54
104 74
105 327
106 236
107 422
108 340
109 364
110 112
111 196
112 63
113 101
114 29
115 100
116 53
117 160
118 129
119 334
120 235
121 370
122 265
123 263
124 78
125 101
126 79
127 65
128 62
129 84
130 48
131 195
132 88
133 253
134 211
135 305
136 142
137 143
138 57
139 79
140 34
141 43
142 41
143 122
144 98
145 225
146 139
147 361
148 192
149 332
150 105
151 61
152 32
153 25
154 19
155 43
156 47
157 131
158 56
159 177
160 140
161 346
162 202
163 219
164 78
165 114
166 36
167 34
168 5
169 7
171 76
172 30
173 178
174 131
175 309
176 244
177 129
178 45
179 51
180 18
181 53
182 26
183 63
184 16
185 71
186 60
187 142
188 80
189 189
190 38
191 67
193 94
194 23
195 48
196 4
197 96
198 39
199 104
200 71
201 242
202 103
203 219
204 12
205 2
206 11
207 72
208 68
209 34
210 13
211 1
212 49
213 74
214 51
215 651
216 438
217 267
218 86
219 16
220 18
221 19
225 1
227 30
228 10
229 121
230 294
231 201
232 67
233 44
234 13
235 15
236 4
239 58
241 63
242 76
243 105
244 76
245 48
246 24
247 140
248 97
249 63
250 29
255 70
256 50
257 310
258 136
259 87
260 163
261 134
262 179
263 67
264 1
269 13
271 32
274 106
275 163
276 24
277 3
284 23
285 60
286 52
287 77
288 37
299 47
300 14
301 97
302 3
313 70
314 113
315 184
316 228
317 63
327 73
328 133
329 122
339 9
341 103
342 79
343 42
352 17
353 49
354 42
355 485
356 253
357 108
358 36
368 89
369 118
370 999
371 548
372 195
373 52

$$$$

     RDKit          2D

 27 30  0  0  1  0  0  0  0  0999 V2000
    9.2324    7.1952    0.0000 C   0  0  0  0  0  0  0  0  0  0  0  0
    6.7615    7.9981    0.0000 C   0  0  0  0  0  0  0  0  0  0  0  0
    2.8999    4.5213    0.0000 C   0  0  0  0  0  0  0  0  0  0  0  0
   -1.8900    0.7600    0.0000 C   0  0  0  0  0  0  0  0  0  0  0  0
    2.1640    3.0021    0.0000 C   0  0  0  0  0  0  0  0  0  0  0  0
   -4.4900   -2.2400    0.0000 C   0  0  0  0  0  0  0  0  0  0  0  0
   -4.4900   -0.7400    0.0000 C   0  0  0  0  0  0  0  0  0  0  0  0
    5.8343    5.1450    0.0000 C   0  0  0  0  0  0  0  0  0  0  0  0
    7.3016    5.4568    0.0000 C   0  0  0  0  0  0  0  0  0  0  0  0
    5.3708    3.7184    0.0000 C   0  0  0  0  0  0  0  0  0  0  0  0
   -3.1900   -2.9900    0.0000 C   0  0  0  0  0  0  0  0  0  0  0  0
   -0.5900   -2.9900    0.0000 C   0  0  0  0  0  0  0  0  0  0  0  0
    0.7100   -2.2400    0.0000 C   0  0  0  0  0  0  0  0  0  0  0  0
    4.3200    0.7600    0.0000 C   0  0  0  0  0  0  0  0  0  0  0  0
    3.4400   -0.4500    0.0000 C   0  0  0  0  0  0  0  0  0  0  0  0
   -0.5900    1.5100    0.0000 C   0  0  0  0  0  0  0  0  0  0  0  0
   -3.1900    0.0100    0.0000 C   0  0  0  0  0  0  0  0  0  0  0  0
    0.7100    2.2600    0.0000 C   0  0  0  0  0  0  0  0  0  0  0  0
    7.7651    6.8834    0.0000 C   0  0  0  0  0  0  0  0  0  0  0  0
    3.9036    3.4066    0.0000 C   0  0  0  0  0  0  0  0  0  0  0  0
   -1.8900   -2.2400    0.0000 C   0  0  0  0  0  0  0  0  0  0  0  0
    0.7100   -0.7400    0.0000 C   0  0  0  0  0  0  0  0  0  0  0  0
    3.4400    1.9800    0.0000 C   0  0  0  0  0  0  0  0  0  0  0  0
    2.0100    0.0100    0.0000 C   0  0  0  0  0  0  0  0  0  0  0  0
   -0.5900    0.0100    0.0000 C   0  0  0  0  0  0  0  0  0  0  0  0
   -1.8900   -0.7400    0.0000 C   0  0  0  0  0  0  0  0  0  0  0  0
    2.0100    1.5100    0.0000 C   0  0  0  0  0  0  0  0  0  0  0  0
  7  6  1  0
  9  8  1  0
 10  8  1  0
 11  6  2  0
 13 12  1  0
 15 14  1  0
 17  7  1  0
 18 16  1  0
 19  1  1  0
 19  2  1  0
 19  9  1  0
 20  3  1  6
 20 10  1  0
 21 11  1  0
 21 12  2  0
 22 13  1  6
 23 14  1  1
 23 20  1  0
 24 15  1  1
 24 22  1  0
 25 16  1  1
 25 22  1  0
 26  4  1  1
 26 17  1  0
 26 21  1  0
 26 25  1  0
 27  5  1  1
 27 18  1  0
 27 23  1  0
 27 24  1  0
M  END
>  <NAME>  (5224) 
CHOLEST-3,5-DIENE

>  <SYNONYMS>  (5224) 


>  <SPECTRUM TYPE>  (5224) 
MS1

>  <INSTRUMENT TYPE>  (5224) 
EI-B

>  <INSTRUMENT>  (5224) 
SHIMADZU LKB-9000B

>  <ION MODE>  (5224) 
P

>  <INCHIKEY>  (5224) 
RLHIRZFWJBOHHD-HKQCOZBKSA-N

>  <FORMULA>  (5224) 
C27H44

>  <EXACT MASS>  (5224) 
368.344301408

>  <MW>  (5224) 
368

>  <ID>  (5224) 
JP001888

>  <CONTRIBUTOR>  (5224) 
University of Tokyo Team, {Faculty of Engineering, University of Tokyo

>  <COMMENT>  (5224) 
SMILES=C(C3([H])4)(C)(C([H])(CC4)C(CCCC(C)C)([H])C)CCC(C3([H])1)([H])C(C)(C2)C(C=CC2)=CC1
InChI=InChI=1S/C27H44/c1-19(2)9-8-10-20(3)23-14-15-24-22-13-12-21-11-6-7-17-26(21,4)25(22)16-18-27(23,24)5/h6,11-12,19-20,22-25H,7-10,13-18H2,1-5H3/t20-,22+,23-,24+,25+,26+,27-/m1/s1
computed SMILES=C1=CCCC2(C1=CCC3C2CCC4(C)C(CCC34)C(C)CCCC(C)C)C
accession=JP001888
date=2016.01.19 (Created 2008.10.21, modified 2011.05.06)
author=SEYAMA Y, DEPT. OF PHYSIOL. CHEMISTRY AND NUTRITION, FAC. OF MEDICINE, UNIV. OF TOKYO
license=CC BY-NC-SA
exact mass=368.3443
ionization energy=70 eV
ion type=[M]+*
computed spectral entropy=4.459830434821556
computed normalized entropy=0.8606747834093081
SPLASH=splash10-05mp-6921000000-3279ad60b13326a18be4
submitter=submitter = University of Tokyo Team (Faculty of Engineering, University of Tokyo)
MoNA Rating=3.75

>  <NUM PEAKS>  (5224) 
178

>  <MASS SPECTRAL PEAKS>  (5224) 
39 4.8
40 1.3
41 47.9
42 4.9
43 78.1
45 1.8
53 8.4
54 1.4
55 54.7
56 5
57 44
58 2
59 1
65 0.47
66 2.2
67 41.9
68 5.1
69 30.7
70 3
71 22.5
72 1.3
77 16
78 6.1
79 40.3
80 6.9
81 85.6
82 8.1
83 19.5
84 1.5
85 5
89 1
90 1
91 52.7
92 15.4
93 46.5
94 13.4
95 47.2
96 4.8
97 11.9
100 1.1
103 4.6
104 5.5
105 63
106 20.6
107 57
108 21.5
109 28.9
110 3.5
111 7.4
112 1.1
113 1.2
114 1.2
115 7.6
116 5
117 21.8
118 10
119 28.3
120 37.3
121 35.5
122 9.4
123 12.9
124 1.7
125 2.3
127 2.6
128 9.2
129 15.5
130 8.6
131 28.9
132 8.4
133 31.5
134 8.9
135 25.9
136 5.5
137 5.4
141 4.8
142 5.7
143 29.6
144 11.3
145 66.3
146 22.9
147 82.5
148 18.6
149 17.9
150 3
151 4.2
152 1.1
153 1.7
155 3.9
156 2.4
157 13.2
158 11.8
159 26.5
160 20
161 21.4
162 6.1
163 11.3
164 1.6
165 2.8
167 1.2
169 2.3
170 1.1
171 7.4
172 3.5
173 7.3
174 4.3
175 6.5
176 2.3
177 3.5
179 1.5
183 1.9
184 1
185 7.6
186 3
187 4.1
188 1
189 2.3
190 1
191 3.4
192 1
193 3.7
197 2.3
198 1.4
199 8.6
200 4.7
201 6.5
202 1.6
203 1.6
205 7.3
206 5.3
207 1.9
211 1
212 1.7
213 27.7
214 7.5
215 3.3
216 1.4
217 3.6
218 2.1
219 2.6
227 2.8
228 6.6
229 3.8
230 1
231 1.1
232 1.2
239 1.1
241 2.4
242 1.1
245 5
246 5
247 36.9
248 8.5
249 1.4
254 1.2
255 28.7
256 6.4
257 1.3
258 1.2
259 4.4
260 25.5
261 8.8
262 1.8
274 2.2
275 1.3
283 3.1
284 1.3
314 1
326 4
327 1.3
339 2.2
340 1.3
353 31.1
354 9.1
355 1.5
367 2.6
368 99.99
369 31.5
370 4.8

>  <PREDICTED SPECTRUM>  (5224) 
26 21
27 100
28 53
29 176
39 153
40 79
41 625
42 247
43 828
44 133
45 80
51 37
52 29
53 254
54 105
55 761
56 240
57 554
58 128
59 90
60 33
63 24
65 185
66 82
67 518
68 203
69 524
70 250
71 429
72 69
73 11
74 8
75 21
77 359
78 184
79 563
80 283
81 664
82 250
83 382
84 132
85 155
86 49
87 1
89 30
91 738
92 374
93 630
94 356
95 649
96 245
97 298
98 57
99 104
101 9
103 143
104 161
105 651
106 399
107 708
108 474
109 456
110 171
111 251
112 65
113 115
114 10
115 262
116 145
117 469
118 338
119 649
120 481
121 568
122 312
123 352
124 104
125 129
126 28
127 126
128 236
129 387
130 292
131 520
132 347
133 602
134 450
135 607
136 291
137 226
138 38
139 72
141 228
142 209
143 469
144 274
145 620
146 411
147 609
148 339
149 425
150 106
151 142
152 109
153 112
154 19
155 235
156 71
157 327
158 236
159 462
160 393
161 529
162 320
163 327
164 144
165 124
167 32
169 79
170 62
171 318
172 170
173 315
174 280
175 294
176 183
177 265
178 108
179 143
180 71
181 79
182 33
183 121
184 48
185 232
186 115
187 201
188 141
189 189
190 87
191 161
192 51
193 76
195 75
196 50
197 102
198 86
199 294
200 181
201 187
202 92
203 69
204 61
205 106
206 168
207 226
208 60
209 36
210 9
211 88
212 13
213 397
214 244
215 336
216 93
217 99
218 50
219 15
220 32
221 67
223 10
225 12
226 1
227 194
228 299
229 253
230 103
231 164
232 127
233 83
234 65
237 25
238 17
239 60
240 49
241 132
242 82
243 68
244 82
245 189
246 231
247 711
248 342
249 105
250 77
253 31
254 44
255 536
256 233
257 131
258 41
259 98
260 344
261 268
262 225
263 13
269 37
274 3
275 185
277 2
282 7
283 116
284 18
287 74
288 16
289 27
312 30
313 20
314 101
325 38
326 36
327 5
328 22
334 3
336 20
339 95
340 84
341 56
350 50
351 53
352 50
353 516
354 261
355 99
356 2
364 5
366 50
367 144
368 999
369 557
370 231
371 49

$$$$

     RDKit          2D

 22 24  0  0  0  0  0  0  0  0999 V2000
   -4.0667    1.5454    0.0000 C   0  0  0  0  0  0  0  0  0  0  0  0
    5.1962    1.5000    0.0000 C   0  0  0  0  0  0  0  0  0  0  0  0
    2.5981   -0.0000    0.0000 C   0  0  0  0  0  0  0  0  0  0  0  0
    1.2990   -0.7500    0.0000 C   0  0  0  0  0  0  0  0  0  0  0  0
   -0.5449    3.1771    0.0000 C   0  0  0  0  0  0  0  0  0  0  0  0
   -1.4266    4.3906    0.0000 C   0  0  0  0  0  0  0  0  0  0  0  0
    1.2990    2.2500    0.0000 C   0  0  0  0  0  0  0  0  0  0  0  0
   -2.3083    0.7500    0.0000 C   0  0  0  0  0  0  0  0  0  0  0  0
   -2.8532    2.4271    0.0000 C   0  0  0  0  0  0  0  0  0  0  0  0
    2.5981    1.5000    0.0000 C   0  0  0  0  0  0  0  0  0  0  0  0
    0.0000    1.5000    0.0000 C   0  0  0  0  0  0  0  0  0  0  0  0
    0.0000    0.0000    0.0000 C   0  0  0  0  0  0  0  0  0  0  0  0
   -4.0667    4.8087    0.0000 C   0  0  0  0  0  0  0  0  0  0  0  0
   -1.4266    1.9635    0.0000 C   0  0  0  0  0  0  0  0  0  0  0  0
   -3.9099    6.3005    0.0000 C   0  0  0  0  0  0  0  0  0  0  0  0
   -2.4181    6.1437    0.0000 F   0  0  0  0  0  0  0  0  0  0  0  0
   -3.7531    7.7923    0.0000 F   0  0  0  0  0  0  0  0  0  0  0  0
   -5.4017    6.4573    0.0000 F   0  0  0  0  0  0  0  0  0  0  0  0
   -1.4266   -0.4635    0.0000 N   0  0  0  0  0  0  0  0  0  0  0  0
   -2.8532    3.9271    0.0000 N   0  0  0  0  0  0  0  0  0  0  0  0
   -5.4370    4.1986    0.0000 O   0  0  0  0  0  0  0  0  0  0  0  0
    3.8971    2.2500    0.0000 O   0  0  0  0  0  0  0  0  0  0  0  0
  4  3  2  0
  6  5  1  0
  9  1  2  0
 10  3  1  0
 10  7  2  0
 11  7  1  0
 12  4  1  0
 12 11  2  0
 14  5  1  0
 14  8  1  0
 14  9  1  0
 14 11  1  0
 15 13  1  0
 16 15  1  0
 17 15  1  0
 18 15  1  0
 19  8  2  0
 19 12  1  0
 20  6  1  0
 20  9  1  0
 20 13  1  0
 21 13  2  0
 22  2  1  0
 22 10  1  0
M  END
>  <NAME>  (5225) 
5-METHOXYINDOLE-3-SPIRO-3'-N-TRIFLUOROACETYL-2'-METHYLENEPYRROLIDINE

>  <SYNONYMS>  (5225) 
TRIFLUOROACETYL DERIVATIVE OF MELATONIN

>  <SPECTRUM TYPE>  (5225) 
MS1

>  <INSTRUMENT TYPE>  (5225) 
EI-B

>  <INSTRUMENT>  (5225) 
SHIMADZU LKB-9000B

>  <ION MODE>  (5225) 
P

>  <INCHIKEY>  (5225) 
RAEVVXJFQROQDJ-UHFFFAOYSA-N

>  <FORMULA>  (5225) 
C15H13F3N2O2

>  <EXACT MASS>  (5225) 
310.09291231599997

>  <MW>  (5225) 
310

>  <ID>  (5225) 
JP001886

>  <CONTRIBUTOR>  (5225) 
University of Tokyo Team, {Faculty of Engineering, University of Tokyo

>  <COMMENT>  (5225) 
SMILES=COc(c3)cc(c(c3)2)C(C=N2)(C1)C(=C)N(C1)C(=O)C(F)(F)F
InChI=InChI=1S/C15H13F3N2O2/c1-9-14(5-6-20(9)13(21)15(16,17)18)8-19-12-4-3-10(22-2)7-11(12)14/h3-4,7-8H,1,5-6H2,2H3
computed SMILES=O=C(N1C(=C)C2(C=NC=3C=CC(OC)=CC32)CC1)C(F)(F)F
accession=JP001886
date=2016.01.19 (Created 2008.10.21, modified 2011.05.06)
author=SEYAMA Y, DEPT. OF PHYSIOL. CHEMISTRY AND NUTRITION, FAC. OF MEDICINE, UNIV. OF TOKYO
license=CC BY-NC-SA
exact mass=310.09291
ionization energy=70 eV
ion type=[M]+*
computed spectral entropy=3.6319373323103785
computed normalized entropy=0.8219208735210298
SPLASH=splash10-03di-2926000000-6c7037f915a5e3952519
submitter=submitter = University of Tokyo Team (Faculty of Engineering, University of Tokyo)
MoNA Rating=3.75

>  <NUM PEAKS>  (5225) 
83

>  <MASS SPECTRAL PEAKS>  (5225) 
39 1.7
40 1.8
44 1.9
50 1.2
51 2.8
52 1.4
53 1
54 6
62 1.2
63 3.9
64 1.2
65 1.3
69 7
74 1
75 2.4
76 1.5
77 5.4
80 1
88 1.4
89 3.5
90 1.1
101 2.2
102 2.9
103 3.9
114 1.9
115 7.2
116 4.1
117 1.7
120 4.4
127 2.5
128 3.2
129 2
130 5.2
131 1
140 1.9
141 3.8
142 4.3
143 4.7
144 3.1
145 1.9
153 1.1
154 3.6
155 3.9
156 2.1
158 6.5
159 3.3
160 2.5
166 1.5
167 1.1
168 1.4
169 7.7
170 12.6
171 3.1
172 2.9
173 3.9
181 2.1
182 3.9
183 2.4
184 10.3
185 6.8
186 23.8
187 3.4
196 2.3
197 3.6
198 11.8
199 2.4
211 2.1
212 3.2
213 27.4
214 5.3
226 1.1
241 6.9
242 1.1
267 3.3
279 1.7
282 1.7
291 1.9
295 5.1
296 1.4
309 12.1
310 99.99
311 18.9
312 2

>  <PREDICTED SPECTRUM>  (5225) 
14 11
15 74
26 32
27 90
28 111
29 137
30 69
31 63
37 28
38 98
39 205
40 107
41 231
42 315
43 182
44 148
45 53
47 1
49 67
50 210
51 309
52 211
53 169
54 183
55 211
56 211
57 97
61 56
62 163
63 319
64 227
65 225
66 177
67 131
68 142
69 467
70 152
71 68
73 49
74 130
75 253
76 267
77 377
78 217
79 157
80 111
81 84
82 121
83 71
84 101
85 83
86 53
87 153
88 199
89 313
90 233
91 251
92 175
93 61
94 54
95 59
96 48
97 81
98 97
99 123
100 131
101 211
102 257
103 312
104 176
105 138
106 118
107 59
108 74
109 91
110 122
111 27
113 205
114 172
115 448
116 270
117 305
118 184
119 124
120 20
121 51
122 2
124 48
125 142
126 265
127 262
128 349
129 276
130 352
131 229
132 233
133 132
134 118
135 145
136 86
137 90
138 160
139 222
140 364
141 265
142 250
143 219
144 262
145 198
146 150
147 60
148 100
149 56
150 76
151 115
152 198
153 239
154 482
155 254
156 409
157 235
158 356
159 198
160 209
161 133
162 55
163 89
164 102
165 142
166 203
167 184
168 145
169 235
170 392
171 260
172 212
173 168
174 98
175 105
176 49
177 104
178 103
179 121
180 150
181 219
182 201
183 259
184 367
185 409
186 183
187 154
188 104
189 110
194 59
195 79
196 38
197 162
198 269
199 164
200 123
201 62
202 40
203 85
204 89
205 1
206 28
207 12
210 54
211 113
212 113
213 650
214 284
215 173
216 58
217 79
219 13
220 4
221 72
222 91
223 44
225 1
226 97
227 102
228 68
229 33
230 14
239 17
240 60
241 250
242 153
243 137
244 38
248 3
249 65
250 17
251 28
252 33
253 72
254 71
263 100
266 4
267 134
269 26
270 45
271 5
279 35
280 45
281 156
282 102
283 50
291 138
293 48
295 194
296 71
309 376
310 999
311 430
312 135
313 42

$$$$

     RDKit          2D

 35 38  0  0  1  0  0  0  0  0999 V2000
    9.7194    7.6889    0.0000 C   0  0  0  0  0  0  0  0  0  0  0  0
   10.0133    6.2180    0.0000 H   0  0  0  0  0  0  0  0  0  0  0  0
   11.1903    7.9828    0.0000 H   0  0  0  0  0  0  0  0  0  0  0  0
    9.4254    9.1598    0.0000 H   0  0  0  0  0  0  0  0  0  0  0  0
    6.7657    7.6219    0.0000 C   0  0  0  0  0  0  0  0  0  0  0  0
    7.6537    6.4130    0.0000 H   0  0  0  0  0  0  0  0  0  0  0  0
    5.3682    7.0770    0.0000 H   0  0  0  0  0  0  0  0  0  0  0  0
    6.6011    9.1128    0.0000 H   0  0  0  0  0  0  0  0  0  0  0  0
    3.2009    4.6377    0.0000 C   0  0  0  0  0  0  0  0  0  0  0  0
   -1.6125    0.9400    0.0000 C   0  0  0  0  0  0  0  0  0  0  0  0
    2.4507    3.1203    0.0000 C   0  0  0  0  0  0  0  0  0  0  0  0
    6.1427    5.2256    0.0000 C   0  0  0  0  0  0  0  0  0  0  0  0
    7.6137    5.5195    0.0000 C   0  0  0  0  0  0  0  0  0  0  0  0
    5.6618    3.8047    0.0000 C   0  0  0  0  0  0  0  0  0  0  0  0
   -0.3200   -2.8400    0.0000 C   0  0  0  0  0  0  0  0  0  0  0  0
    1.0100   -2.0900    0.0000 C   0  0  0  0  0  0  0  0  0  0  0  0
    4.5500    0.8800    0.0000 C   0  0  0  0  0  0  0  0  0  0  0  0
    3.7100   -0.3100    0.0000 C   0  0  0  0  0  0  0  0  0  0  0  0
   -4.2000   -0.5600    0.0000 C   0  0  0  0  0  0  0  0  0  0  0  0
   -0.3200    1.6300    0.0000 C   0  0  0  0  0  0  0  0  0  0  0  0
   -2.8900    0.1600    0.0000 C   0  0  0  0  0  0  0  0  0  0  0  0
    1.0100    2.3900    0.0000 C   0  0  0  0  0  0  0  0  0  0  0  0
   -2.8900   -2.8400    0.0000 C   0  0  0  0  0  0  0  0  0  0  0  0
    8.2485    7.3950    0.0000 C   0  0  0  0  0  0  0  0  0  0  0  0
    8.2144    8.8946    0.0000 H   0  0  0  0  0  0  0  0  0  0  0  0
    4.1909    3.5108    0.0000 C   0  0  0  0  0  0  0  0  0  0  0  0
   -1.6200   -2.0900    0.0000 C   0  0  0  0  0  0  0  0  0  0  0  0
   -4.2000   -2.0900    0.0000 C   0  0  0  0  0  0  0  0  0  0  0  0
    1.0100   -0.5600    0.0000 C   0  0  0  0  0  0  0  0  0  0  0  0
    3.7100    2.0900    0.0000 C   0  0  0  0  0  0  0  0  0  0  0  0
    2.2800    0.1600    0.0000 C   0  0  0  0  0  0  0  0  0  0  0  0
   -0.3200    0.1600    0.0000 C   0  0  0  0  0  0  0  0  0  0  0  0
   -1.6200   -0.5600    0.0000 C   0  0  0  0  0  0  0  0  0  0  0  0
    2.2800    1.6300    0.0000 C   0  0  0  0  0  0  0  0  0  0  0  0
   -5.4977   -2.8424    0.0000 O   0  0  0  0  0  0  0  0  0  0  0  0
  1  2  1  0
  1  3  1  0
  1  4  1  0
  5  6  1  0
  5  7  1  0
  5  8  1  0
 24 25  1  0
 13 12  1  0
 14 12  1  0
 16 15  1  0
 18 17  1  0
 21 19  1  0
 22 20  1  0
 24  1  1  0
 24  5  1  0
 24 13  1  0
 26  9  1  6
 26 14  1  0
 27 15  1  1
 27 23  1  0
 28 19  1  0
 28 23  1  0
 29 16  1  6
 30 17  1  0
 30 26  1  0
 31 18  1  1
 31 29  1  0
 32 20  1  1
 32 29  1  0
 33 10  1  1
 33 21  1  0
 33 27  1  0
 33 32  1  0
 34 11  1  1
 34 22  1  0
 34 30  1  0
 34 31  1  0
 28 35  1  1
M  ISO  7   2   2   3   2   4   2   6   2   7   2   8   2  25   2
M  END
>  <NAME>  (5226) 
5ALPHA-CHOLESTAN-3BETA-OL (25,26,26,26,27,27,27-D7)

>  <SYNONYMS>  (5226) 
CHOLESTANOL (25,26,26,26,27,27,27-D7)

>  <SPECTRUM TYPE>  (5226) 
MS1

>  <INSTRUMENT TYPE>  (5226) 
EI-B

>  <INSTRUMENT>  (5226) 
SHIMADZU LKB-9000B

>  <ION MODE>  (5226) 
P

>  <INCHIKEY>  (5226) 
QYIXCDOBOSTCEI-ZIXNOYIFSA-N

>  <FORMULA>  (5226) 
C27H48O

>  <EXACT MASS>  (5226) 
395.41445337799996

>  <MW>  (5226) 
395

>  <ID>  (5226) 
JP001885

>  <CONTRIBUTOR>  (5226) 
University of Tokyo Team, {Faculty of Engineering, University of Tokyo

>  <COMMENT>  (5226) 
SMILES=C(C(C([2H])([2H])[2H])([2H])CCCC(C)C(C1)C(C)(C4)C(C(C([H])2C4)([H])CCC([H])(C3)C2(C)CCC3([H])O)([H])C1)([2H])([2H])[2H]
InChI=InChI=1S/C27H48O/c1-18(2)7-6-8-19(3)23-11-12-24-22-10-9-20-17-21(28)13-15-26(20,4)25(22)14-16-27(23,24)5/h18-25,28H,6-17H2,1-5H3/t19-,20+,21+,22+,23?,24+,25+,26+,27-/m1/s1/i1D3,2D3,18D
computed SMILES=[H]C(CCCC(C)C1CCC2C3CCC4CC(O)CCC4(C)C3CCC12C)(C([H])([H])[H])C([H])([H])[H]
accession=JP001885
date=2016.01.19 (Created 2008.10.21, modified 2011.05.06)
author=SEYAMA Y, DEPT. OF PHYSIOL. CHEMISTRY AND NUTRITION, FAC. OF MEDICINE, UNIV. OF TOKYO
license=CC BY-NC-SA
exact mass=388.37052
ionization energy=70 eV
ion type=[M]+*
computed spectral entropy=4.65478436201935
computed normalized entropy=0.8760782812449555
SPLASH=splash10-00ls-8963000000-5a98800e67e851e83be5
submitter=submitter = University of Tokyo Team (Faculty of Engineering, University of Tokyo)
MoNA Rating=3.75

>  <NUM PEAKS>  (5226) 
203

>  <MASS SPECTRAL PEAKS>  (5226) 
39 3.2
40 6.4
41 26.9
42 4.6
43 21.6
44 7.3
45 6.2
46 9.6
47 5.7
48 3.8
49 6.6
50 19.7
53 5.8
54 2.5
55 50
56 9.3
57 19.8
58 5.6
59 4.3
60 8.2
61 6.2
62 2.8
63 7
64 5.7
65 2.5
66 1.7
67 37
68 14.6
69 27.4
70 7.7
71 6.8
72 3.2
73 3
74 4.2
75 7.7
76 3.1
77 8.9
78 3.5
79 32.1
80 8.7
81 56.3
82 13.1
83 16.4
84 4.8
85 3.8
86 2.3
87 3.1
88 2
89 2.5
90 1.3
91 22.8
92 6.2
93 41.2
94 18.2
95 53.1
96 9.6
97 11.7
98 3.6
99 3.1
100 1.3
101 2.6
103 1.3
104 2.4
105 24.6
106 14.5
107 52.4
108 44.6
109 35.4
110 8.7
111 9
112 2.5
113 1.7
115 3.8
117 4
118 2.7
119 18.5
120 14.1
121 31.3
122 21.2
123 22.7
124 17.9
125 5.2
126 1.2
128 3.3
129 2.2
130 1
131 6.8
132 2.8
133 17.7
134 11.5
135 24.5
136 11.1
137 9.2
138 4.9
139 1.2
143 1.8
144 1.3
145 11.1
146 4.4
147 28.3
148 20.5
149 33.5
150 5.4
151 4.4
152 1.2
157 1.3
158 1
159 8.9
160 6.8
161 16.5
162 8.8
163 8.5
164 4.4
165 53.1
166 18.2
167 4
171 1.1
173 7.5
174 3.8
175 8.2
176 4.2
177 3.9
178 3.5
179 2
185 1.1
187 5.3
188 3.4
189 4.6
190 7.6
191 5
192 2.6
198 3.1
199 3
200 1.9
201 11.8
202 3.6
203 5.1
204 2.6
205 3.6
206 3.8
213 1.8
214 1.6
215 83.7
216 33
217 45.7
218 8.8
219 14.7
220 4.6
229 3.4
230 9.9
231 15.5
232 10.1
233 99.99
234 67.5
235 11.3
236 1.1
243 1.1
246 1.5
247 1.3
248 17.8
249 3.5
254 1.4
255 1.8
257 7.3
258 1.7
268 1.2
269 16
270 4.8
271 1.4
273 2.2
274 1.2
282 1
283 1.1
285 4.6
286 1
295 1.6
296 1.3
322 1.2
323 3.4
331 1.3
338 3.4
345 1.4
346 3.8
347 1.3
359 1.3
360 1
361 1.1
362 23.7
363 6.4
364 1.2
366 3
376 1.7
377 10.1
378 4.7
379 2.6
380 38.3
381 11.6
382 1.9
393 5.4
394 4.8
395 95.2
396 28.8
397 4.3

>  <PREDICTED SPECTRUM>  (5226) 
41 578
42 62
43 604
44 143
45 157
46 10
49 45
53 152
54 98
55 730
56 110
57 711
58 124
59 82
60 14
65 74
66 9
67 700
68 229
69 755
70 279
71 621
72 29
73 212
74 63
76 191
77 229
78 157
79 592
80 155
81 999
82 474
83 706
84 472
85 556
86 47
87 8
88 88
89 1
90 22
91 523
92 183
93 805
94 290
95 994
96 401
97 538
98 352
99 260
100 127
101 42
103 80
104 183
105 624
106 309
107 860
108 433
109 666
110 361
111 541
112 366
113 304
114 195
115 209
116 164
117 281
118 60
119 576
120 227
121 592
122 564
123 581
124 620
125 454
126 231
127 98
128 122
129 204
130 27
131 297
132 156
133 338
134 238
135 469
136 177
137 181
138 397
139 192
140 217
141 108
142 94
143 114
144 83
145 267
146 96
147 425
148 335
149 386
150 203
151 255
152 303
153 95
154 14
155 16
156 37
157 116
159 249
160 127
161 458
162 243
163 118
164 168
165 214
166 207
168 58
169 33
171 112
173 2
174 148
175 268
176 95
177 112
178 108
180 20
181 25
182 73
187 123
188 75
189 189
190 58
191 27
192 135
193 8
194 15
198 8
199 138
201 149
202 212
203 102
204 65
205 5
206 239
208 249
209 40
210 34
211 12
213 385
214 104
215 685
216 136
217 264
218 273
219 226
220 45
222 45
223 12
227 108
228 290
229 162
230 92
231 339
232 154
233 410
234 66
235 33
237 1
244 167
246 254
247 79
248 106
249 152
250 86
255 423
256 258
257 61
262 119
272 63
275 11
276 1
283 39
284 105
302 210
303 117
304 139
305 46
307 19
314 33
315 98
316 13
327 18
331 223
332 59
344 448
345 2
347 7
348 52
359 93
360 293
362 417
363 205
377 958
378 575
379 212
380 71
395 406
396 213

$$$$

     RDKit          2D

 28 31  0  0  1  0  0  0  0  0999 V2000
    9.5655    7.2342    0.0000 C   0  0  0  0  0  0  0  0  0  0  0  0
    7.1046    8.0672    0.0000 C   0  0  0  0  0  0  0  0  0  0  0  0
    3.2009    4.6377    0.0000 C   0  0  0  0  0  0  0  0  0  0  0  0
   -1.6125    0.9400    0.0000 C   0  0  0  0  0  0  0  0  0  0  0  0
    2.4507    3.1203    0.0000 C   0  0  0  0  0  0  0  0  0  0  0  0
    6.1427    5.2256    0.0000 C   0  0  0  0  0  0  0  0  0  0  0  0
    7.6137    5.5195    0.0000 C   0  0  0  0  0  0  0  0  0  0  0  0
    5.6618    3.8047    0.0000 C   0  0  0  0  0  0  0  0  0  0  0  0
   -0.3200   -2.8400    0.0000 C   0  0  0  0  0  0  0  0  0  0  0  0
    1.0100   -2.0900    0.0000 C   0  0  0  0  0  0  0  0  0  0  0  0
    4.5500    0.8800    0.0000 C   0  0  0  0  0  0  0  0  0  0  0  0
    3.7100   -0.3100    0.0000 C   0  0  0  0  0  0  0  0  0  0  0  0
   -4.2000   -0.5600    0.0000 C   0  0  0  0  0  0  0  0  0  0  0  0
   -0.3200    1.6300    0.0000 C   0  0  0  0  0  0  0  0  0  0  0  0
   -2.8900    0.1600    0.0000 C   0  0  0  0  0  0  0  0  0  0  0  0
    1.0100    2.3900    0.0000 C   0  0  0  0  0  0  0  0  0  0  0  0
   -2.8900   -2.8400    0.0000 C   0  0  0  0  0  0  0  0  0  0  0  0
    8.0946    6.9403    0.0000 C   0  0  0  0  0  0  0  0  0  0  0  0
    4.1909    3.5108    0.0000 C   0  0  0  0  0  0  0  0  0  0  0  0
   -1.6200   -2.0900    0.0000 C   0  0  0  0  0  0  0  0  0  0  0  0
   -4.2000   -2.0900    0.0000 C   0  0  0  0  0  0  0  0  0  0  0  0
    1.0100   -0.5600    0.0000 C   0  0  0  0  0  0  0  0  0  0  0  0
    3.7100    2.0900    0.0000 C   0  0  0  0  0  0  0  0  0  0  0  0
    2.2800    0.1600    0.0000 C   0  0  0  0  0  0  0  0  0  0  0  0
   -0.3200    0.1600    0.0000 C   0  0  0  0  0  0  0  0  0  0  0  0
   -1.6200   -0.5600    0.0000 C   0  0  0  0  0  0  0  0  0  0  0  0
    2.2800    1.6300    0.0000 C   0  0  0  0  0  0  0  0  0  0  0  0
   -5.4977   -2.8424    0.0000 O   0  0  0  0  0  0  0  0  0  0  0  0
  7  6  1  0
  8  6  1  0
 10  9  1  0
 12 11  1  0
 15 13  1  0
 16 14  1  0
 18  1  1  0
 18  2  1  0
 18  7  1  0
 19  3  1  6
 19  8  1  0
 20  9  1  1
 20 17  1  0
 21 13  1  0
 21 17  1  0
 22 10  1  6
 23 11  1  0
 23 19  1  0
 24 12  1  1
 24 22  1  0
 25 14  1  1
 25 22  1  0
 26  4  1  1
 26 15  1  0
 26 20  1  0
 26 25  1  0
 27  5  1  1
 27 16  1  0
 27 23  1  0
 27 24  1  0
 21 28  1  6
M  END
>  <NAME>  (5227) 
5ALPHA-CHOLESTAN-3ALPHA-OL

>  <SYNONYMS>  (5227) 
EPICHOLESTANOL

>  <SPECTRUM TYPE>  (5227) 
MS1

>  <INSTRUMENT TYPE>  (5227) 
EI-B

>  <INSTRUMENT>  (5227) 
SHIMADZU LKB-9000B

>  <ION MODE>  (5227) 
P

>  <INCHIKEY>  (5227) 
QYIXCDOBOSTCEI-FLWZNDCUSA-N

>  <FORMULA>  (5227) 
C27H48O

>  <EXACT MASS>  (5227) 
388.37051615599995

>  <MW>  (5227) 
388

>  <ID>  (5227) 
JP001884

>  <CONTRIBUTOR>  (5227) 
University of Tokyo Team, {Faculty of Engineering, University of Tokyo

>  <COMMENT>  (5227) 
SMILES=C(C([H])41)([H])(C(C)(C([H])3CC4)CCC(C3)([H])O)CCC(C)(C(C(C)CCCC(C)C)2)C1([H])CC2
InChI=InChI=1S/C27H48O/c1-18(2)7-6-8-19(3)23-11-12-24-22-10-9-20-17-21(28)13-15-26(20,4)25(22)14-16-27(23,24)5/h18-25,28H,6-17H2,1-5H3/t19-,20+,21-,22+,23?,24+,25+,26+,27-/m1/s1
computed SMILES=OC1CCC2(C)C(CCC3C4CCC(C(C)CCCC(C)C)C4(C)CCC32)C1
accession=JP001884
date=2016.01.19 (Created 2008.10.21, modified 2011.05.06)
author=SEYAMA Y, DEPT. OF PHYSIOL. CHEMISTRY AND NUTRITION, FAC. OF MEDICINE, UNIV. OF TOKYO
license=CC BY-NC-SA
exact mass=388.37052
ionization energy=70 eV
ion type=[M]+*
computed spectral entropy=4.515435284950419
computed normalized entropy=0.8667717222911813
SPLASH=splash10-00lr-8963000000-884dec03aaa000f672bc
submitter=submitter = University of Tokyo Team (Faculty of Engineering, University of Tokyo)
MoNA Rating=3.75

>  <NUM PEAKS>  (5227) 
183

>  <MASS SPECTRAL PEAKS>  (5227) 
39 4.1
40 4.5
41 33.9
42 5.5
43 59.6
44 4.5
45 1.1
53 5.7
54 2.5
55 56.8
56 9.2
57 43.5
58 2.5
59 1
65 2.8
66 1.9
67 36.6
68 13.8
69 37.4
70 6.5
71 18.8
72 1.1
74 1.9
77 7.9
78 2.2
79 31.7
80 8.2
81 57.3
82 13.8
83 23.4
84 3.8
85 5.9
87 1.4
91 22.2
92 6
93 40.8
94 18.1
95 54.3
96 8.3
97 16
98 2.1
99 2.5
101 1.2
104 2.1
105 24.7
106 14.7
107 54
108 41.8
109 36.9
110 7.3
111 11.5
112 1.7
113 2.8
115 3
117 3.9
118 2.6
119 18.4
120 13.8
121 32
122 22.4
123 22.6
124 17.7
125 5.8
126 1.1
127 1
128 3
129 1.7
131 6.8
132 2.6
133 18.3
134 11.4
135 24.7
136 11.2
137 9.5
138 4.8
139 1.4
143 1.5
144 1
145 11.2
146 4.3
147 28.7
148 20.2
149 32.5
150 5.1
151 4.8
152 2.8
153 1
157 1.1
159 8.3
160 6.4
161 16.7
162 8.6
163 8.9
164 4.2
165 53.7
166 17.9
167 3.5
171 1
173 7.4
174 3.7
175 8.1
176 4.1
177 4
178 3.4
179 2.4
180 1
185 1
187 5.3
188 3.2
189 4.6
190 7.5
191 5.2
192 2.7
193 1.8
198 3.1
199 3
200 1.3
201 11.9
202 3.3
203 5.2
204 2.8
205 3.9
206 4.1
207 1.4
208 2.3
213 1.7
214 1.2
215 83.7
216 32.8
217 44.7
218 8.4
219 14.9
220 4.1
229 3.3
230 9.6
231 17.3
232 10.7
233 99.99
234 64.7
235 10.6
236 1
243 1.2
246 1.9
247 2.8
248 17.8
249 3.5
255 1.4
257 7.4
258 1.7
259 1
260 1
261 1.2
262 18.5
263 5.2
264 1
273 2.2
274 1.3
275 1.6
285 2.3
288 1.7
289 1.5
301 1.1
315 1.2
316 3.6
331 3.7
332 1
338 1.4
355 26.7
356 7.6
357 1.4
359 3
369 1.8
370 10.1
371 5.2
372 1.6
373 39.7
374 11.6
375 1.6
386 6.6
387 2.4
388 92.4
389 27.5
390 4.1

>  <PREDICTED SPECTRUM>  (5227) 
29 6
41 693
42 247
43 862
44 192
45 217
50 7
51 53
53 274
54 117
55 864
56 211
57 688
58 120
59 70
60 4
62 3
63 6
65 144
66 40
67 588
68 307
69 547
70 202
71 396
72 73
73 71
74 79
77 239
78 99
79 572
80 233
81 749
82 378
83 471
84 130
85 105
87 19
91 463
92 157
93 664
94 341
95 765
96 301
97 314
98 56
99 38
101 18
104 65
105 451
106 324
107 713
108 639
109 584
110 256
111 327
112 41
113 79
115 95
117 176
118 88
119 325
120 215
121 568
122 468
123 440
124 264
125 157
126 39
127 35
129 7
131 118
132 49
133 370
134 207
135 501
136 311
137 229
138 226
139 170
140 66
141 17
143 20
144 51
145 329
146 165
147 420
148 284
149 422
150 149
151 169
152 125
159 268
160 202
161 416
162 298
163 272
164 155
165 636
166 269
167 127
173 194
174 176
175 340
176 217
177 231
178 143
179 152
187 155
188 137
189 124
190 148
191 200
192 149
199 2
201 322
202 129
203 124
204 150
205 227
206 133
215 999
216 658
217 549
218 266
219 357
220 165
229 72
230 324
231 285
232 62
233 887
234 773
235 322
241 1
247 48
248 494
249 158
257 330
260 0
261 68
262 305
263 214
275 128
276 9
288 74
317 6
331 152
332 19
355 374
356 219
370 358
371 206
372 109
373 514
374 274
386 13
388 996
389 475
390 157

$$$$

     RDKit          2D

 34 37  0  0  1  0  0  0  0  0999 V2000
    9.5655    7.2342    0.0000 C   0  0  0  0  0  0  0  0  0  0  0  0
   10.0746    4.6865    0.0000 C   0  0  0  0  0  0  0  0  0  0  0  0
    8.1228    2.9718    0.0000 C   0  0  0  0  0  0  0  0  0  0  0  0
    3.2009    4.6377    0.0000 C   0  0  0  0  0  0  0  0  0  0  0  0
   -1.6125    0.9400    0.0000 C   0  0  0  0  0  0  0  0  0  0  0  0
    2.4507    3.1203    0.0000 C   0  0  0  0  0  0  0  0  0  0  0  0
   -6.0504   -0.7943    0.0000 C   0  0  0  0  0  0  0  0  0  0  0  0
   -8.0985   -1.3471    0.0000 C   0  0  0  0  0  0  0  0  0  0  0  0
   -7.5457   -3.3951    0.0000 C   0  0  0  0  0  0  0  0  0  0  0  0
    8.0946    6.9403    0.0000 C   0  0  0  0  0  0  0  0  0  0  0  0
    5.6618    3.8047    0.0000 C   0  0  0  0  0  0  0  0  0  0  0  0
    6.1427    5.2256    0.0000 C   0  0  0  0  0  0  0  0  0  0  0  0
   -0.3200   -2.8400    0.0000 C   0  0  0  0  0  0  0  0  0  0  0  0
    1.0100   -2.0900    0.0000 C   0  0  0  0  0  0  0  0  0  0  0  0
    4.5500    0.8800    0.0000 C   0  0  0  0  0  0  0  0  0  0  0  0
    3.7100   -0.3100    0.0000 C   0  0  0  0  0  0  0  0  0  0  0  0
   -4.2000   -0.5600    0.0000 C   0  0  0  0  0  0  0  0  0  0  0  0
   -0.3200    1.6300    0.0000 C   0  0  0  0  0  0  0  0  0  0  0  0
   -2.8900    0.1600    0.0000 C   0  0  0  0  0  0  0  0  0  0  0  0
    1.0100    2.3900    0.0000 C   0  0  0  0  0  0  0  0  0  0  0  0
   -2.8900   -2.8400    0.0000 C   0  0  0  0  0  0  0  0  0  0  0  0
    8.6037    4.3926    0.0000 C   0  0  0  0  0  0  0  0  0  0  0  0
    4.1909    3.5108    0.0000 C   0  0  0  0  0  0  0  0  0  0  0  0
    7.6137    5.5195    0.0000 C   0  0  0  0  0  0  0  0  0  0  0  0
   -1.6200   -2.0900    0.0000 C   0  0  0  0  0  0  0  0  0  0  0  0
   -4.2000   -2.0900    0.0000 C   0  0  0  0  0  0  0  0  0  0  0  0
    1.0100   -0.5600    0.0000 C   0  0  0  0  0  0  0  0  0  0  0  0
    3.7100    2.0900    0.0000 C   0  0  0  0  0  0  0  0  0  0  0  0
    2.2800    0.1600    0.0000 C   0  0  0  0  0  0  0  0  0  0  0  0
   -0.3200    0.1600    0.0000 C   0  0  0  0  0  0  0  0  0  0  0  0
   -1.6200   -0.5600    0.0000 C   0  0  0  0  0  0  0  0  0  0  0  0
    2.2800    1.6300    0.0000 C   0  0  0  0  0  0  0  0  0  0  0  0
   -5.4977   -2.8424    0.0000 O   0  0  0  0  0  0  0  0  0  0  0  0
   -6.7981   -2.0947    0.0000 Si  0  0  0  0  0  4  0  0  0  0  0  0
 10  1  1  0
 12 11  1  0
 14 13  1  0
 16 15  1  0
 19 17  1  0
 20 18  1  0
 22  2  1  0
 22  3  1  0
 23  4  1  6
 23 11  1  0
 24 10  1  1
 24 12  1  0
 24 22  1  0
 25 13  2  0
 25 21  1  0
 26 17  1  0
 26 21  1  0
 27 14  1  6
 28 15  1  1
 28 23  1  0
 29 16  1  1
 29 27  1  0
 30 18  1  1
 30 27  1  0
 31  5  1  1
 31 19  1  0
 31 25  1  0
 31 30  1  0
 32  6  1  1
 32 20  1  0
 32 28  1  0
 32 29  1  0
 26 33  1  1
 34  7  1  0
 34  8  1  0
 34  9  1  0
 34 33  1  0
M  END
>  <NAME>  (5228) 
(24R)-24-ETHYL-5-CHOLESTEN-3BETA-YL TRIMETHYLSILYL ETHER

>  <SYNONYMS>  (5228) 
BETA-SITOSTERYL TRIMETHYLSILYL ETHER

>  <SPECTRUM TYPE>  (5228) 
MS1

>  <INSTRUMENT TYPE>  (5228) 
EI-B

>  <INSTRUMENT>  (5228) 
SHIMADZU LKB-9000B

>  <ION MODE>  (5228) 
P

>  <INCHIKEY>  (5228) 
XEWVATFZTBNDCF-BBWXUVGCSA-N

>  <FORMULA>  (5228) 
C32H58OSi

>  <EXACT MASS>  (5228) 
486.42569300599996

>  <MW>  (5228) 
486

>  <ID>  (5228) 
JP001883

>  <CONTRIBUTOR>  (5228) 
University of Tokyo Team, {Faculty of Engineering, University of Tokyo

>  <COMMENT>  (5228) 
computed SMILES=O(C1CC2=CCC3C(CCC4(C)C(CCC34)C(C)CCC(CC)C(C)C)C2(C)CC1)[Si](C)(C)C
SMILES=C(C4)C(CC(C34C)=C([H])CC(C23[H])(C(C1)([H])C(C)(CC2)C(C([H])(C)CCC(CC)([H])C(C)C)(C1)[H])[H])(O[Si](C)(C)C)[H]
InChI=InChI=1S/C32H58OSi/c1-10-24(22(2)3)12-11-23(4)28-15-16-29-27-14-13-25-21-26(33-34(7,8)9)17-19-31(25,5)30(27)18-20-32(28,29)6/h13,22-24,26-30H,10-12,14-21H2,1-9H3/t23-,24-,26+,27+,28-,29+,30+,31+,32-/m1/s1
accession=JP001883
date=2016.01.19 (Created 2008.10.21, modified 2011.05.06)
author=SEYAMA Y, DEPT. OF PHYSIOL. CHEMISTRY AND NUTRITION, FAC. OF MEDICINE, UNIV. OF TOKYO
license=CC BY-NC-SA
exact mass=486.42569
ionization energy=70 eV
ion type=[M]+*
computed spectral entropy=4.6519421058670005
computed normalized entropy=0.9057875153953348
SPLASH=splash10-056s-6923000000-955efb898f374d4ff328
submitter=submitter = University of Tokyo Team (Faculty of Engineering, University of Tokyo)
MoNA Rating=3.75

>  <NUM PEAKS>  (5228) 
170

>  <MASS SPECTRAL PEAKS>  (5228) 
40 2.8
41 16.9
42 3.8
43 39.8
45 1.4
47 4.2
50 5
51 2.5
52 2.4
53 2.9
54 4
55 28.3
56 2.9
57 29.4
58 2
59 9.8
65 1
67 8.8
68 3.1
69 20.8
70 2.2
71 19.9
73 50.1
74 6.5
75 39.8
76 3.8
77 7.1
79 12.7
80 1.9
81 28.6
82 4.6
83 10.8
84 7.1
85 18.6
89 1.2
91 18.1
92 4.6
93 19.4
94 5.7
95 33.6
96 4.6
97 9.6
98 1.5
99 2.4
101 7
103 7.7
104 5
105 21.3
106 4.6
107 29.1
108 6.1
109 18.1
110 2.3
111 8.5
112 4.1
113 2.5
115 3.9
116 6.6
117 7.4
118 2.2
119 27.4
120 16.8
121 28.8
122 5.1
123 9.8
124 1.9
125 3.3
127 1.9
129 99.99
130 19.1
131 19
132 4.6
133 17.5
134 7.9
135 11.2
136 6.9
137 2.7
138 1.6
139 1.6
142 1.8
143 18.2
144 4.9
145 24.5
146 8.8
147 14.5
148 4.9
149 7.4
150 6
151 4.5
153 2.1
155 5.2
157 5.5
158 4.9
159 9.8
160 10.4
161 14
162 7.5
163 10.8
164 4.9
165 2.8
166 4.9
169 3.2
171 5.9
172 5.8
173 11.1
174 6.4
175 6.5
176 4.9
177 4.8
179 3.7
181 4.1
182 4.1
183 1.6
185 3.7
186 6
187 4.5
189 5.1
191 3.9
196 4.9
198 6.1
199 6.1
201 4.2
202 1.5
203 5.1
205 1.8
207 2.6
210 1.2
213 9.9
214 8.4
219 4.2
221 1.8
222 4.6
227 8.2
228 6.3
229 2.1
231 4.3
233 3.1
234 4.7
235 5.5
238 3.1
240 5.4
241 1.6
243 3.8
245 5.6
247 5.7
254 4.1
255 14.8
256 7.9
257 7.9
261 3.7
273 8.2
274 4.8
275 4
281 7.3
296 10
297 2
303 7.6
329 6.1
356 19.4
357 71.8
358 22.9
381 29.9
382 10.1
386 12.3
396 58.6
397 22
398 4.1
471 7.9
486 25.9
487 12.2

>  <PREDICTED SPECTRUM>  (5228) 
26 46
27 62
28 46
29 84
31 10
39 72
40 63
41 266
42 9
43 365
44 126
45 54
46 20
50 17
51 26
53 121
54 76
55 479
56 154
57 452
58 146
59 144
61 109
62 20
63 26
65 104
66 87
67 325
68 68
69 514
70 258
71 353
72 135
73 466
74 214
75 588
76 167
77 294
78 114
79 342
80 132
81 509
82 186
83 402
84 182
85 205
86 69
87 98
89 190
91 407
92 209
93 350
94 184
95 512
96 195
97 339
98 159
99 133
100 97
101 188
102 40
103 248
104 99
105 475
106 388
107 520
108 289
109 467
110 137
111 302
112 105
113 98
114 25
115 220
116 112
117 254
118 96
119 575
120 375
121 591
122 268
123 376
124 40
125 165
126 34
127 172
128 118
129 999
130 339
131 392
132 253
133 418
134 211
135 441
136 218
137 200
138 1
139 166
140 77
141 247
142 134
143 258
144 193
145 466
146 222
147 497
148 261
149 365
150 113
151 126
152 63
153 117
154 79
155 226
156 92
157 234
158 199
159 407
160 330
161 410
162 216
163 350
164 117
165 114
166 33
167 87
168 52
169 161
170 40
171 229
172 95
173 270
174 132
175 229
176 92
177 214
178 48
179 169
181 103
182 79
183 201
184 77
185 144
186 93
187 170
188 122
189 306
190 67
191 209
192 72
193 79
194 33
195 106
196 164
197 129
198 92
199 258
200 135
201 285
202 185
203 280
204 118
205 147
207 108
208 67
209 105
210 17
211 144
212 96
213 236
214 234
215 364
216 312
217 409
218 65
219 185
220 57
221 108
223 17
225 5
227 177
228 140
229 167
230 76
231 123
232 60
233 178
234 92
235 145
239 132
240 63
241 123
242 96
243 93
244 94
245 153
246 120
247 191
248 137
249 99
250 44
253 160
254 86
255 399
256 172
257 30
259 146
260 22
261 127
262 92
264 7
267 93
268 13
269 114
270 38
271 74
273 137
274 195
275 337
276 74
281 15
282 16
283 153
284 73
285 28
286 9
287 118
288 119
289 157
290 77
291 105
297 43
298 3
299 2
301 23
302 151
303 271
304 160
305 45
306 120
315 58
326 67
327 147
328 168
329 330
330 165
331 108
332 103
339 46
340 33
341 52
342 49
344 33
345 62
346 53
353 236
354 241
355 214
356 419
357 986
358 515
359 27
361 21
367 21
368 116
374 17
378 2
381 476
382 373
383 89
384 82
395 72
396 831
397 586
398 236
399 83
412 7
431 2
443 61
471 309
472 213
473 50
476 5
484 73
485 72
486 367
487 267
488 128
489 34

$$$$

     RDKit          2D

 33 36  0  0  1  0  0  0  0  0999 V2000
    9.5655    7.2342    0.0000 C   0  0  0  0  0  0  0  0  0  0  0  0
    7.1046    8.0672    0.0000 C   0  0  0  0  0  0  0  0  0  0  0  0
    8.6037    4.3926    0.0000 C   0  0  0  0  0  0  0  0  0  0  0  0
    3.2009    4.6377    0.0000 C   0  0  0  0  0  0  0  0  0  0  0  0
   -1.6125    0.9400    0.0000 C   0  0  0  0  0  0  0  0  0  0  0  0
    2.4507    3.1203    0.0000 C   0  0  0  0  0  0  0  0  0  0  0  0
   -6.9949   -4.3451    0.0000 C   0  0  0  0  0  0  0  0  0  0  0  0
   -5.4922   -5.8424    0.0000 C   0  0  0  0  0  0  0  0  0  0  0  0
   -3.9950   -4.3396    0.0000 C   0  0  0  0  0  0  0  0  0  0  0  0
    6.1427    5.2256    0.0000 C   0  0  0  0  0  0  0  0  0  0  0  0
    5.6618    3.8047    0.0000 C   0  0  0  0  0  0  0  0  0  0  0  0
   -0.3200   -2.8400    0.0000 C   0  0  0  0  0  0  0  0  0  0  0  0
    1.0100   -2.0900    0.0000 C   0  0  0  0  0  0  0  0  0  0  0  0
    4.5500    0.8800    0.0000 C   0  0  0  0  0  0  0  0  0  0  0  0
    3.7100   -0.3100    0.0000 C   0  0  0  0  0  0  0  0  0  0  0  0
   -4.2000   -0.5600    0.0000 C   0  0  0  0  0  0  0  0  0  0  0  0
   -0.3200    1.6300    0.0000 C   0  0  0  0  0  0  0  0  0  0  0  0
   -2.8900    0.1600    0.0000 C   0  0  0  0  0  0  0  0  0  0  0  0
    1.0100    2.3900    0.0000 C   0  0  0  0  0  0  0  0  0  0  0  0
   -2.8900   -2.8400    0.0000 C   0  0  0  0  0  0  0  0  0  0  0  0
    8.0946    6.9403    0.0000 C   0  0  0  0  0  0  0  0  0  0  0  0
    7.6137    5.5195    0.0000 C   0  0  0  0  0  0  0  0  0  0  0  0
    4.1909    3.5108    0.0000 C   0  0  0  0  0  0  0  0  0  0  0  0
   -1.6200   -2.0900    0.0000 C   0  0  0  0  0  0  0  0  0  0  0  0
   -4.2000   -2.0900    0.0000 C   0  0  0  0  0  0  0  0  0  0  0  0
    1.0100   -0.5600    0.0000 C   0  0  0  0  0  0  0  0  0  0  0  0
    3.7100    2.0900    0.0000 C   0  0  0  0  0  0  0  0  0  0  0  0
    2.2800    0.1600    0.0000 C   0  0  0  0  0  0  0  0  0  0  0  0
   -0.3200    0.1600    0.0000 C   0  0  0  0  0  0  0  0  0  0  0  0
   -1.6200   -0.5600    0.0000 C   0  0  0  0  0  0  0  0  0  0  0  0
    2.2800    1.6300    0.0000 C   0  0  0  0  0  0  0  0  0  0  0  0
   -5.4977   -2.8424    0.0000 O   0  0  0  0  0  0  0  0  0  0  0  0
   -5.4950   -4.3424    0.0000 Si  0  0  0  0  0  4  0  0  0  0  0  0
 11 10  1  0
 13 12  1  0
 15 14  1  0
 18 16  1  0
 19 17  1  0
 21  1  1  0
 21  2  1  0
 22  3  1  6
 22 10  1  0
 22 21  1  0
 23  4  1  6
 23 11  1  0
 24 12  2  0
 24 20  1  0
 25 16  1  0
 25 20  1  0
 26 13  1  6
 27 14  1  1
 27 23  1  0
 28 15  1  1
 28 26  1  0
 29 17  1  1
 29 26  1  0
 30  5  1  1
 30 18  1  0
 30 24  1  0
 30 29  1  0
 31  6  1  1
 31 19  1  0
 31 27  1  0
 31 28  1  0
 25 32  1  1
 33  7  1  0
 33  8  1  0
 33  9  1  0
 33 32  1  0
M  END
>  <NAME>  (5229) 
(24R)-24-METHYL-5-CHOLESTEN-3BETA-YL TRIMETHYLSILYL ETHER

>  <SYNONYMS>  (5229) 
CAMPESTERYL TRIMETHYLSILYL ETHER

>  <SPECTRUM TYPE>  (5229) 
MS1

>  <INSTRUMENT TYPE>  (5229) 
EI-B

>  <INSTRUMENT>  (5229) 
SHIMADZU LKB-9000B

>  <ION MODE>  (5229) 
P

>  <INCHIKEY>  (5229) 
VWYCDHUXOZENHE-MTJVUTKMSA-N

>  <FORMULA>  (5229) 
C31H56OSi

>  <EXACT MASS>  (5229) 
472.410042942

>  <MW>  (5229) 
472

>  <ID>  (5229) 
JP001882

>  <CONTRIBUTOR>  (5229) 
University of Tokyo Team, {Faculty of Engineering, University of Tokyo

>  <COMMENT>  (5229) 
SMILES=C(CC([H])(C)C(C)C)C(C(C4)(C(C)(C3(C4)[H])CCC([H])(C31[H])C(C2)(C(CC([H])(O[Si](C)(C)C)C2)=C([H])C1)C)[H])([H])C
InChI=InChI=1S/C31H56OSi/c1-21(2)22(3)10-11-23(4)27-14-15-28-26-13-12-24-20-25(32-33(7,8)9)16-18-30(24,5)29(26)17-19-31(27,28)6/h12,21-23,25-29H,10-11,13-20H2,1-9H3/t22-,23-,25+,26+,27-,28+,29+,30+,31-/m1/s1
computed SMILES=O(C1CC2=CCC3C(CCC4(C)C(CCC34)C(C)CCC(C)C(C)C)C2(C)CC1)[Si](C)(C)C
accession=JP001882
date=2016.01.19 (Created 2008.10.21, modified 2011.05.06)
author=SEYAMA Y, DEPT. OF PHYSIOL. CHEMISTRY AND NUTRITION, FAC. OF MEDICINE, UNIV. OF TOKYO
license=CC BY-NC-SA
exact mass=472.41004
ionization energy=70 eV
ion type=[M]+*
computed spectral entropy=4.411628240207355
computed normalized entropy=0.8980130586857559
SPLASH=splash10-00bc-5913000000-b516932f652f6cda9eef
submitter=submitter = University of Tokyo Team (Faculty of Engineering, University of Tokyo)
MoNA Rating=3.75

>  <NUM PEAKS>  (5229) 
136

>  <MASS SPECTRAL PEAKS>  (5229) 
41 10.2
42 1.9
43 36.7
44 3.2
47 1.9
51 1.8
53 2.5
55 25.2
56 2.3
57 19.6
63 1.8
65 5.4
67 11.3
69 16.7
70 3.8
71 22.6
73 50.8
74 4
75 26.4
76 3.6
79 7.7
80 2.6
81 17.7
82 1.1
83 10.6
84 1.2
85 6.4
89 1.4
91 17.9
92 4.2
93 19.1
94 4.8
95 32.1
96 1.4
97 9.5
99 5.9
101 7.3
103 6.1
104 1.1
105 20.3
106 5.6
107 25.8
108 5.3
109 12.1
111 4.8
113 1.9
115 4.7
116 6.7
117 6.1
118 2.3
119 26.8
120 12.7
121 27.7
122 3.6
123 6.1
125 2.7
127 5.2
128 1.6
129 99.99
130 17.4
131 16.1
132 6.4
133 18.4
134 10.9
135 12.1
136 6.3
143 12.7
144 10.4
145 24.1
146 11
147 15.1
148 2.1
149 6.5
151 2.1
153 1.6
155 5.1
157 6.6
158 10.8
159 2.3
160 5.1
161 10.4
162 8.6
163 7.3
164 4.2
165 3.2
167 1.7
169 6
171 2.3
173 5
174 4.9
175 5.9
176 5.3
177 2.8
180 5.1
185 3
186 4.7
187 1.3
189 1.5
190 6.1
193 2
195 2.9
196 5.9
197 2.9
198 5.8
199 3.5
201 2.6
202 2.5
203 6.4
211 2.3
213 9.4
222 4.2
223 1.4
225 8.2
227 7.3
229 3.5
247 5.5
253 4.2
255 13.2
256 6
257 4.3
260 4.5
261 13.2
262 4.6
281 6
289 7.1
341 6.7
342 15.7
343 74.5
344 20.9
367 25.9
368 11.1
382 54.7
383 16.5
457 7.9
472 23.5
473 11.1

>  <PREDICTED SPECTRUM>  (5229) 
10 3
16 0
26 5
27 13
29 4
41 74
43 174
44 44
45 8
54 14
55 175
56 66
57 82
58 32
59 67
61 67
65 7
67 145
68 0
69 259
70 108
71 146
72 61
73 228
74 78
75 364
76 57
77 61
78 14
79 137
80 18
81 270
82 61
83 230
84 51
85 106
87 7
89 96
91 103
92 40
93 159
95 218
96 44
97 82
98 18
99 122
101 89
103 115
105 184
106 93
107 229
108 98
109 246
110 26
111 148
115 29
117 95
119 277
120 173
121 349
122 120
123 189
125 21
127 159
128 70
129 709
130 238
131 183
132 59
133 135
134 60
135 217
136 35
137 47
139 17
141 57
142 12
143 73
144 50
145 268
146 123
147 200
148 105
149 164
155 74
157 104
158 66
159 225
160 200
161 240
162 39
163 171
164 49
165 31
169 90
170 52
171 93
172 41
173 140
174 59
175 94
176 28
177 82
179 15
183 23
185 17
187 82
189 152
191 32
196 92
197 32
198 4
199 136
200 63
201 144
202 87
203 126
204 30
205 60
211 27
213 204
214 145
215 319
216 275
217 205
221 74
227 79
228 114
229 161
230 121
232 13
233 57
239 42
245 66
246 5
247 46
248 17
250 30
251 19
253 67
254 55
255 386
256 155
257 143
259 67
261 185
269 8
273 29
274 67
275 77
281 1
283 43
284 12
287 76
288 87
289 173
290 64
291 24
314 18
315 100
316 52
318 30
326 47
327 46
328 29
331 9
339 96
340 94
341 10
342 364
343 999
344 502
345 141
346 46
364 14
367 451
368 219
370 30
382 825
383 421
384 107
416 116
417 113
439 0
443 1
457 253
458 153
459 27
470 10
471 0
472 512
473 274
474 124
475 0
476 25

$$$$

     RDKit          2D

 32 35  0  0  1  0  0  0  0  0999 V2000
    9.5655    7.2342    0.0000 C   0  0  0  0  0  0  0  0  0  0  0  0
    7.1046    8.0672    0.0000 C   0  0  0  0  0  0  0  0  0  0  0  0
    3.2009    4.6377    0.0000 C   0  0  0  0  0  0  0  0  0  0  0  0
   -1.6125    0.9400    0.0000 C   0  0  0  0  0  0  0  0  0  0  0  0
    2.4507    3.1203    0.0000 C   0  0  0  0  0  0  0  0  0  0  0  0
   -6.9949   -4.3451    0.0000 C   0  0  0  0  0  0  0  0  0  0  0  0
   -5.4922   -5.8424    0.0000 C   0  0  0  0  0  0  0  0  0  0  0  0
   -3.9950   -4.3396    0.0000 C   0  0  0  0  0  0  0  0  0  0  0  0
    6.1427    5.2256    0.0000 C   0  0  0  0  0  0  0  0  0  0  0  0
    7.6137    5.5195    0.0000 C   0  0  0  0  0  0  0  0  0  0  0  0
    5.6618    3.8047    0.0000 C   0  0  0  0  0  0  0  0  0  0  0  0
   -0.3200   -2.8400    0.0000 C   0  0  0  0  0  0  0  0  0  0  0  0
    1.0100   -2.0900    0.0000 C   0  0  0  0  0  0  0  0  0  0  0  0
    4.5500    0.8800    0.0000 C   0  0  0  0  0  0  0  0  0  0  0  0
    3.7100   -0.3100    0.0000 C   0  0  0  0  0  0  0  0  0  0  0  0
   -4.2000   -0.5600    0.0000 C   0  0  0  0  0  0  0  0  0  0  0  0
   -0.3200    1.6300    0.0000 C   0  0  0  0  0  0  0  0  0  0  0  0
   -2.8900    0.1600    0.0000 C   0  0  0  0  0  0  0  0  0  0  0  0
    1.0100    2.3900    0.0000 C   0  0  0  0  0  0  0  0  0  0  0  0
   -2.8900   -2.8400    0.0000 C   0  0  0  0  0  0  0  0  0  0  0  0
    8.0946    6.9403    0.0000 C   0  0  0  0  0  0  0  0  0  0  0  0
    4.1909    3.5108    0.0000 C   0  0  0  0  0  0  0  0  0  0  0  0
   -1.6200   -2.0900    0.0000 C   0  0  0  0  0  0  0  0  0  0  0  0
   -4.2000   -2.0900    0.0000 C   0  0  0  0  0  0  0  0  0  0  0  0
    1.0100   -0.5600    0.0000 C   0  0  0  0  0  0  0  0  0  0  0  0
    3.7100    2.0900    0.0000 C   0  0  0  0  0  0  0  0  0  0  0  0
    2.2800    0.1600    0.0000 C   0  0  0  0  0  0  0  0  0  0  0  0
   -0.3200    0.1600    0.0000 C   0  0  0  0  0  0  0  0  0  0  0  0
   -1.6200   -0.5600    0.0000 C   0  0  0  0  0  0  0  0  0  0  0  0
    2.2800    1.6300    0.0000 C   0  0  0  0  0  0  0  0  0  0  0  0
   -5.4977   -2.8424    0.0000 O   0  0  0  0  0  0  0  0  0  0  0  0
   -5.4950   -4.3424    0.0000 Si  0  0  0  0  0  4  0  0  0  0  0  0
 10  9  1  0
 11  9  1  0
 13 12  1  0
 15 14  1  0
 18 16  1  0
 19 17  1  0
 21  1  1  0
 21  2  1  0
 21 10  1  0
 22  3  1  6
 22 11  1  0
 23 12  2  0
 23 20  1  0
 24 16  1  0
 24 20  1  0
 25 13  1  6
 26 14  1  1
 26 22  1  0
 27 15  1  1
 27 25  1  0
 28 17  1  1
 28 25  1  0
 29  4  1  1
 29 18  1  0
 29 23  1  0
 29 28  1  0
 30  5  1  1
 30 19  1  0
 30 26  1  0
 30 27  1  0
 24 31  1  1
 32  6  1  0
 32  7  1  0
 32  8  1  0
 32 31  1  0
M  END
>  <NAME>  (5230) 
5-CHOLESTEN-3BETA-YL TRIMETHYLSILYL ETHER

>  <SYNONYMS>  (5230) 
CHOLESTERYL TRIMETHYLSILYL ETHER

>  <SPECTRUM TYPE>  (5230) 
MS1

>  <INSTRUMENT TYPE>  (5230) 
EI-B

>  <INSTRUMENT>  (5230) 
SHIMADZU LKB-9000B

>  <ION MODE>  (5230) 
P

>  <INCHIKEY>  (5230) 
CBVJJGRSRFXUPK-OCBUSCMESA-N

>  <FORMULA>  (5230) 
C30H54OSi

>  <EXACT MASS>  (5230) 
458.39439287799996

>  <MW>  (5230) 
458

>  <ID>  (5230) 
JP001881

>  <CONTRIBUTOR>  (5230) 
University of Tokyo Team, {Faculty of Engineering, University of Tokyo

>  <COMMENT>  (5230) 
SMILES=C[Si](C)(C)OC([H])(C1)CCC(C([H])42)(C1=C([H])CC2(C(C3(C)CC4)([H])CCC3([H])C(C)CCCC(C)C)[H])C
InChI=InChI=1S/C30H54OSi/c1-21(2)10-9-11-22(3)26-14-15-27-25-13-12-23-20-24(31-32(6,7)8)16-18-29(23,4)28(25)17-19-30(26,27)5/h12,21-22,24-28H,9-11,13-20H2,1-8H3/t22-,24+,25+,26-,27+,28+,29+,30-/m1/s1
computed SMILES=O(C1CC2=CCC3C(CCC4(C)C(CCC34)C(C)CCCC(C)C)C2(C)CC1)[Si](C)(C)C
accession=JP001881
date=2016.01.19 (Created 2008.10.21, modified 2011.05.06)
author=SEYAMA Y, DEPT. OF PHYSIOL. CHEMISTRY AND NUTRITION, FAC. OF MEDICINE, UNIV. OF TOKYO
license=CC BY-NC-SA
exact mass=458.39439
ionization energy=70 eV
ion type=[M]+*
computed spectral entropy=4.556636836050453
computed normalized entropy=0.8675551451145812
SPLASH=splash10-004i-6913000000-e2f0bd0852200d0cdcd4
submitter=submitter = University of Tokyo Team (Faculty of Engineering, University of Tokyo)
MoNA Rating=3.75

>  <NUM PEAKS>  (5230) 
191

>  <MASS SPECTRAL PEAKS>  (5230) 
39 1.9
41 15.2
42 1.7
43 31.3
44 1.5
45 2.8
47 1.2
53 2.5
55 25.5
56 4.5
57 29.3
58 1.7
59 3.3
61 2.3
65 1
67 14
68 2.2
69 19.7
70 2.8
71 16.5
72 1.7
73 56.1
74 5.2
75 40
76 3.3
77 5.8
78 1.7
79 14
80 2.2
81 29
82 3.4
83 14.1
84 1.3
85 3.7
89 2.4
91 16.5
92 4
93 20.1
94 4.6
95 35.6
96 3.5
97 8.7
99 1.4
101 3.1
103 2.8
104 1.9
105 23
106 6.4
107 28.6
108 6.1
109 19
110 3
111 6.8
113 1.8
115 3.8
116 3.2
117 7.7
118 4
119 25.8
120 14.9
121 28.6
122 4.3
123 8.9
124 1.3
125 3.4
127 2.1
128 2
129 99.99
130 16.1
131 16.8
132 5.8
133 17.2
134 4.9
135 13.4
136 2.2
137 6.9
139 1.2
141 2.1
142 2.1
143 13.9
144 5
145 24.7
146 7.4
147 14.9
148 4.9
149 8.7
150 1.3
151 3.5
153 1.4
155 6
156 1.9
157 6.3
158 4.3
159 16
160 11.1
161 15
162 3.5
163 9.1
164 1.3
165 3.5
167 1.2
168 1.1
169 3.3
170 1
171 4.6
172 2
173 8.3
174 3.2
175 6.4
176 1.3
177 4.3
178 1
179 2.6
181 2.5
182 1.5
183 1.9
185 4.1
186 1.6
187 3.9
188 1.2
189 5.1
191 2.6
193 3.5
194 1.1
195 2
196 2.1
197 2.8
198 1
199 4.6
200 1.8
201 4.2
202 1
203 6.4
204 1.2
205 3
206 2.2
207 2.5
209 1.1
213 9.8
214 3.1
215 3.3
217 5.6
218 1.3
219 2.9
220 1.3
221 1.4
227 2.6
228 2.5
229 3.1
231 1.2
233 4.1
234 1
237 1.2
241 1.9
245 2.3
246 2.2
247 16.1
248 3.6
255 13.3
256 2.9
259 2.7
260 1.8
261 1.4
273 1.6
274 3
275 8.3
276 1.9
283 1.2
301 3.7
311 1
313 1.2
326 2.9
327 4.4
328 16.5
329 91
330 23.2
331 3.1
339 1.1
340 2.3
353 30.9
354 9.2
355 1.3
367 3.3
368 61.2
369 18
370 3
443 10
444 3.8
458 26.6
459 10.2
460 2.7

>  <PREDICTED SPECTRUM>  (5230) 
3 10
16 6
21 3
23 3
26 29
27 69
28 68
29 96
36 1
38 1
39 26
40 53
41 289
42 68
43 364
44 91
45 52
46 58
52 1
53 93
54 79
55 431
56 177
57 464
58 148
59 201
61 95
62 30
63 10
65 33
66 48
67 277
68 106
69 511
70 271
71 422
72 117
73 461
74 124
75 491
76 132
77 205
78 80
79 282
80 107
81 457
82 133
83 394
84 194
85 293
86 5
87 89
89 126
91 317
92 135
93 324
94 123
95 471
96 154
97 288
98 98
99 133
100 4
101 116
103 188
104 25
105 365
106 317
107 490
108 319
109 443
110 170
111 325
112 127
113 134
114 57
115 197
116 59
117 212
118 67
119 476
120 360
121 586
122 274
123 346
124 87
125 114
126 57
127 168
128 117
129 999
130 306
131 386
132 232
133 344
134 280
135 448
136 168
137 216
138 51
139 142
140 34
141 125
142 92
143 232
144 159
145 464
146 219
147 366
148 184
149 367
150 102
151 211
152 59
153 61
154 58
155 207
156 144
157 113
158 162
159 317
160 345
161 335
162 207
163 379
164 141
165 127
167 38
169 29
171 78
173 212
174 90
175 149
176 62
177 162
178 20
179 149
181 68
182 1
183 36
185 49
186 40
187 92
188 77
189 190
190 2
191 164
192 57
193 77
194 40
195 29
196 77
197 25
198 4
199 130
200 13
201 126
202 80
203 166
204 48
205 136
206 85
207 184
208 36
211 16
212 28
213 201
214 148
215 207
216 150
217 308
218 39
219 204
221 57
227 88
228 34
229 28
230 4
231 24
233 103
234 36
235 21
236 8
237 32
239 80
240 13
241 56
243 67
245 73
246 108
247 381
248 204
249 100
250 35
253 27
254 95
255 328
256 73
257 16
259 28
260 34
261 89
262 52
273 63
274 120
275 205
276 14
281 60
283 14
287 7
300 71
301 80
302 40
303 72
304 58
311 24
325 64
326 106
327 259
328 252
329 889
330 519
331 206
332 23
339 21
340 52
353 433
354 231
355 49
356 36
367 55
368 646
369 403
370 212
402 10
415 41
431 4
439 5
442 25
443 184
444 43
445 48
454 36
456 3
457 62
458 215
459 185
460 79

$$$$

     RDKit          2D

 40 43  0  0  1  0  0  0  0  0999 V2000
    9.5655    7.2342    0.0000 C   0  0  0  0  0  0  0  0  0  0  0  0
    7.1046    8.0672    0.0000 C   0  0  0  0  0  0  0  0  0  0  0  0
    3.2009    4.6377    0.0000 C   0  0  0  0  0  0  0  0  0  0  0  0
   -1.6125    0.9400    0.0000 C   0  0  0  0  0  0  0  0  0  0  0  0
    2.4507    3.1203    0.0000 C   0  0  0  0  0  0  0  0  0  0  0  0
    6.1427    5.2256    0.0000 C   0  0  0  0  0  0  0  0  0  0  0  0
    7.6137    5.5195    0.0000 C   0  0  0  0  0  0  0  0  0  0  0  0
    5.6618    3.8047    0.0000 C   0  0  0  0  0  0  0  0  0  0  0  0
   -0.3200   -2.8400    0.0000 C   0  0  0  0  0  0  0  0  0  0  0  0
    1.0100   -2.0900    0.0000 C   0  0  0  0  0  0  0  0  0  0  0  0
    4.5500    0.8800    0.0000 C   0  0  0  0  0  0  0  0  0  0  0  0
    3.7100   -0.3100    0.0000 C   0  0  0  0  0  0  0  0  0  0  0  0
   -4.2000   -0.5600    0.0000 C   0  0  0  0  0  0  0  0  0  0  0  0
   -0.3200    1.6300    0.0000 C   0  0  0  0  0  0  0  0  0  0  0  0
   -2.8900    0.1600    0.0000 C   0  0  0  0  0  0  0  0  0  0  0  0
    1.0100    2.3900    0.0000 C   0  0  0  0  0  0  0  0  0  0  0  0
   -2.8900   -2.8400    0.0000 C   0  0  0  0  0  0  0  0  0  0  0  0
    8.0946    6.9403    0.0000 C   0  0  0  0  0  0  0  0  0  0  0  0
    4.1909    3.5108    0.0000 C   0  0  0  0  0  0  0  0  0  0  0  0
   -1.6200   -2.0900    0.0000 C   0  0  0  0  0  0  0  0  0  0  0  0
   -4.2000   -2.0900    0.0000 C   0  0  0  0  0  0  0  0  0  0  0  0
    1.0100   -0.5600    0.0000 C   0  0  0  0  0  0  0  0  0  0  0  0
    3.7100    2.0900    0.0000 C   0  0  0  0  0  0  0  0  0  0  0  0
    2.2800    0.1600    0.0000 C   0  0  0  0  0  0  0  0  0  0  0  0
   -0.3200    0.1600    0.0000 C   0  0  0  0  0  0  0  0  0  0  0  0
   -5.4950   -4.3424    0.0000 C   0  0  0  0  0  0  0  0  0  0  0  0
   -1.6200   -0.5600    0.0000 C   0  0  0  0  0  0  0  0  0  0  0  0
    2.2800    1.6300    0.0000 C   0  0  0  0  0  0  0  0  0  0  0  0
   -6.7926   -5.0947    0.0000 C   0  0  0  0  0  0  0  0  0  0  0  0
   -6.7899   -6.5947    0.0000 C   0  0  0  0  0  0  0  0  0  0  0  0
   -8.0876   -7.3471    0.0000 C   0  0  0  0  0  0  0  0  0  0  0  0
   -7.3082   -3.6861    0.0000 F   0  0  0  0  0  0  0  0  0  0  0  0
   -8.2694   -5.3579    0.0000 F   0  0  0  0  0  0  0  0  0  0  0  0
   -6.2743   -8.0033    0.0000 F   0  0  0  0  0  0  0  0  0  0  0  0
   -5.3132   -6.3316    0.0000 F   0  0  0  0  0  0  0  0  0  0  0  0
   -8.8399   -6.0494    0.0000 F   0  0  0  0  0  0  0  0  0  0  0  0
   -9.3853   -8.0994    0.0000 F   0  0  0  0  0  0  0  0  0  0  0  0
   -7.3352   -8.6447    0.0000 F   0  0  0  0  0  0  0  0  0  0  0  0
   -4.1946   -5.0900    0.0000 O   0  0  0  0  0  0  0  0  0  0  0  0
   -5.4977   -2.8424    0.0000 O   0  0  0  0  0  0  0  0  0  0  0  0
  7  6  1  0
  8  6  1  0
 10  9  1  0
 12 11  1  0
 15 13  1  0
 16 14  1  0
 18  1  1  0
 18  2  1  0
 18  7  1  0
 19  3  1  6
 19  8  1  0
 20  9  2  0
 20 17  1  0
 21 13  1  0
 21 17  1  0
 22 10  1  0
 23 11  1  0
 23 19  1  0
 24 12  1  0
 24 22  1  0
 25 14  1  0
 25 22  1  0
 27  4  1  1
 27 15  1  0
 27 20  1  0
 27 25  1  0
 28  5  1  1
 28 16  1  0
 28 23  1  0
 28 24  1  0
 29 26  1  0
 30 29  1  0
 31 30  1  0
 32 29  1  0
 33 29  1  0
 34 30  1  0
 35 30  1  0
 36 31  1  0
 37 31  1  0
 38 31  1  0
 39 26  2  0
 21 40  1  1
 40 26  1  0
M  END
>  <NAME>  (5231) 
5-CHOLESTEN-3BETA-YL HEPTAFLUOROBUTYRATE

>  <SYNONYMS>  (5231) 
CHOLESTERYL HEPTAFLUOROBUTYRATE

>  <SPECTRUM TYPE>  (5231) 
MS1

>  <INSTRUMENT TYPE>  (5231) 
EI-B

>  <INSTRUMENT>  (5231) 
SHIMADZU LKB-9000B

>  <ION MODE>  (5231) 
P

>  <INCHIKEY>  (5231) 
UGFHVHIEZCURFA-IINHWNONSA-N

>  <FORMULA>  (5231) 
C31H45F7O2

>  <EXACT MASS>  (5231) 
582.3307782200001

>  <MW>  (5231) 
582

>  <ID>  (5231) 
JP001880

>  <CONTRIBUTOR>  (5231) 
University of Tokyo Team, {Faculty of Engineering, University of Tokyo

>  <COMMENT>  (5231) 
SMILES=C(C14)CC(C(CCC(C34)C(C)(C(=CC3)2)CCC(OC(=O)C(C(C(F)(F)F)(F)F)(F)F)(C2)[H])1C)C(CCCC(C)C)C
InChI=InChI=1S/C31H45F7O2/c1-18(2)7-6-8-19(3)23-11-12-24-22-10-9-20-17-21(13-15-27(20,4)25(22)14-16-28(23,24)5)40-26(39)29(32,33)30(34,35)31(36,37)38/h9,18-19,21-25H,6-8,10-17H2,1-5H3/t19-,21+,22?,23?,24?,25?,27+,28-/m1/s1
computed SMILES=O=C(OC1CC2=CCC3C(CCC4(C)C(CCC34)C(C)CCCC(C)C)C2(C)CC1)C(F)(F)C(F)(F)C(F)(F)F
accession=JP001880
date=2016.01.19 (Created 2008.10.21, modified 2011.05.06)
author=SEYAMA Y, DEPT. OF PHYSIOL. CHEMISTRY AND NUTRITION, FAC. OF MEDICINE, UNIV. OF TOKYO
license=CC BY-NC-SA
exact mass=582.33078
ionization energy=70 eV
ion type=[M]+*
computed spectral entropy=4.269988098300634
computed normalized entropy=0.8772383928173286
SPLASH=splash10-014i-5924000000-8e34341609e8159897e7
submitter=submitter = University of Tokyo Team (Faculty of Engineering, University of Tokyo)
MoNA Rating=3.75

>  <NUM PEAKS>  (5231) 
130

>  <MASS SPECTRAL PEAKS>  (5231) 
41 4.2
43 9.8
53 2.2
55 19.8
56 2.3
57 18.4
58 1
65 1
67 13.7
68 2.4
69 14.8
70 1.4
71 9.5
77 3.8
78 1.3
79 12.6
80 2.6
81 24.5
82 3.1
83 8.1
85 1.9
91 14.9
92 4.4
93 16.5
94 5.2
95 20
96 2.1
97 4.6
100 1
103 1.3
104 1.5
105 19.1
106 6.2
107 17.6
108 6.6
109 10.3
110 1.6
111 2.8
115 1.7
116 1.1
117 6.8
118 3.6
119 11.5
120 11.2
121 10.8
122 2.9
123 5.5
125 1
128 2.1
129 4.1
130 2.5
131 10.4
132 3.2
133 13.6
134 4
135 10.1
136 2.1
137 2
141 1.3
142 1.7
143 12
144 4.5
145 23.9
146 6.8
147 18.2
148 4.4
149 5.3
150 1.1
151 1.4
155 1
157 6.1
158 8.4
159 12.6
160 7.4
161 7.6
162 2
163 4.3
165 1.2
169 2.3
171 4
172 1.8
173 4.1
174 1.6
175 2.1
177 1.1
185 3.9
186 1.4
187 2.2
191 1.2
193 1.4
197 1.5
199 6
200 2.1
201 2.5
205 2.3
206 2.1
213 18.1
214 6.3
215 3.5
216 1
227 2.1
228 8.3
229 3
241 1.3
245 1.3
246 1.3
247 11.7
248 2.9
255 11.7
256 2.6
259 1.3
260 9.1
261 3.3
274 1.1
275 4.3
276 1.1
283 1.5
301 1.2
326 1.5
339 1.2
353 15
354 4.7
368 99.99
369 34.4
370 6.2
427 4.2
428 1.9
469 2.6
567 1.2
582 1

>  <PREDICTED SPECTRUM>  (5231) 
2 8
20 11
26 15
27 94
28 41
29 132
38 9
39 45
40 51
41 351
42 141
43 529
44 93
45 26
49 22
50 49
51 65
52 24
53 89
54 53
55 428
56 174
57 470
58 91
59 41
60 41
62 7
63 20
65 60
66 22
67 255
68 118
69 384
70 172
71 334
72 54
73 30
76 19
77 215
78 112
79 282
80 85
81 378
82 155
83 290
84 107
85 166
86 79
87 59
89 4
91 351
92 138
93 341
94 157
95 325
96 95
97 247
98 93
99 85
100 36
101 75
103 49
104 54
105 388
106 211
107 392
108 224
109 259
110 42
111 174
112 74
113 14
114 9
115 82
117 206
118 148
119 306
120 290
121 301
122 145
123 194
124 64
125 67
126 4
127 61
128 97
129 170
130 116
131 277
132 173
133 312
134 166
135 255
136 38
137 86
138 52
139 26
140 63
141 47
142 94
143 310
144 211
145 460
146 262
147 486
148 218
149 209
150 52
151 51
152 44
153 49
155 76
157 224
158 252
159 326
160 285
161 251
162 151
163 226
164 24
165 46
166 79
167 38
168 51
169 78
170 97
171 178
172 102
173 228
174 95
175 157
176 38
177 87
179 95
184 66
185 128
186 79
187 110
188 65
189 30
190 22
191 82
192 62
193 71
194 12
195 23
196 33
197 92
198 68
199 139
200 134
201 143
202 67
203 36
204 43
205 126
206 146
207 45
211 19
212 44
213 284
214 224
215 89
216 55
217 31
218 27
219 49
220 36
226 29
227 64
228 171
229 111
230 38
231 39
233 26
239 40
240 15
241 30
242 8
245 100
246 159
247 397
248 196
249 2
253 10
254 1
255 305
256 109
257 62
258 1
259 153
260 345
261 117
269 12
270 6
271 66
274 76
275 147
276 46
283 140
284 6
285 40
290 1
298 7
299 20
301 64
312 4
313 26
314 9
315 4
326 106
327 9
328 6
329 20
330 25
331 17
345 30
348 4
352 25
353 394
354 183
366 22
368 999
369 605
370 206
381 8
382 2
427 179
428 79
429 1
468 5
469 53
567 108
568 22
582 72

$$$$

     RDKit          2D

 49 52  0  0  1  0  0  0  0  0999 V2000
    3.1899    4.8613    0.0000 C   0  0  0  0  0  0  0  0  0  0  0  0
    2.4540    3.3421    0.0000 C   0  0  0  0  0  0  0  0  0  0  0  0
   -1.6000    1.1000    0.0000 C   0  0  0  0  0  0  0  0  0  0  0  0
    5.6608    4.0584    0.0000 C   0  0  0  0  0  0  0  0  0  0  0  0
    4.6100    1.1000    0.0000 C   0  0  0  0  0  0  0  0  0  0  0  0
    3.7300   -0.1100    0.0000 C   0  0  0  0  0  0  0  0  0  0  0  0
    6.1243    5.4850    0.0000 C   0  0  0  0  0  0  0  0  0  0  0  0
   -4.2000   -0.4000    0.0000 C   0  0  0  0  0  0  0  0  0  0  0  0
   -0.3000    1.8500    0.0000 C   0  0  0  0  0  0  0  0  0  0  0  0
   -2.9000    0.3500    0.0000 C   0  0  0  0  0  0  0  0  0  0  0  0
    1.0000    2.6000    0.0000 C   0  0  0  0  0  0  0  0  0  0  0  0
   -2.9000   -2.6500    0.0000 C   0  0  0  0  0  0  0  0  0  0  0  0
    1.0000   -1.9000    0.0000 C   0  0  0  0  0  0  0  0  0  0  0  0
    4.1936    3.7466    0.0000 C   0  0  0  0  0  0  0  0  0  0  0  0
   -4.2000   -1.9000    0.0000 C   0  0  0  0  0  0  0  0  0  0  0  0
    1.0000   -0.4000    0.0000 C   0  0  0  0  0  0  0  0  0  0  0  0
    3.7300    2.3200    0.0000 C   0  0  0  0  0  0  0  0  0  0  0  0
    2.3000    0.3500    0.0000 C   0  0  0  0  0  0  0  0  0  0  0  0
   -0.3000    0.3500    0.0000 C   0  0  0  0  0  0  0  0  0  0  0  0
   -1.6000   -1.9000    0.0000 C   0  0  0  0  0  0  0  0  0  0  0  0
   -0.3000   -2.6500    0.0000 C   0  0  0  0  0  0  0  0  0  0  0  0
    7.5916    5.7968    0.0000 C   0  0  0  0  0  0  0  0  0  0  0  0
    9.5224    7.5352    0.0000 C   0  0  0  0  0  0  0  0  0  0  0  0
   -5.4987   -4.1502    0.0000 C   0  0  0  0  0  0  0  0  0  0  0  0
   -1.5990   -4.9000    0.0000 C   0  0  0  0  0  0  0  0  0  0  0  0
    2.3000    1.8500    0.0000 C   0  0  0  0  0  0  0  0  0  0  0  0
   -1.6000   -0.4000    0.0000 C   0  0  0  0  0  0  0  0  0  0  0  0
    9.9859    8.9618    0.0000 C   0  0  0  0  0  0  0  0  0  0  0  0
   10.5260    6.4205    0.0000 C   0  0  0  0  0  0  0  0  0  0  0  0
   -6.7976   -4.9004    0.0000 C   0  0  0  0  0  0  0  0  0  0  0  0
   -1.5990   -6.4000    0.0000 C   0  0  0  0  0  0  0  0  0  0  0  0
   11.4125    8.4983    0.0000 F   0  0  0  0  0  0  0  0  0  0  0  0
   10.4495   10.3884    0.0000 F   0  0  0  0  0  0  0  0  0  0  0  0
    8.5593    9.4254    0.0000 F   0  0  0  0  0  0  0  0  0  0  0  0
    9.0281    6.4990    0.0000 F   0  0  0  0  0  0  0  0  0  0  0  0
   10.8379    4.9533    0.0000 F   0  0  0  0  0  0  0  0  0  0  0  0
   11.8625    7.1015    0.0000 F   0  0  0  0  0  0  0  0  0  0  0  0
   -7.5478   -3.6015    0.0000 F   0  0  0  0  0  0  0  0  0  0  0  0
   -8.0965   -5.6506    0.0000 F   0  0  0  0  0  0  0  0  0  0  0  0
   -6.0474   -6.1993    0.0000 F   0  0  0  0  0  0  0  0  0  0  0  0
   -3.0990   -6.4000    0.0000 F   0  0  0  0  0  0  0  0  0  0  0  0
   -1.5990   -7.9000    0.0000 F   0  0  0  0  0  0  0  0  0  0  0  0
   -0.0990   -6.4000    0.0000 F   0  0  0  0  0  0  0  0  0  0  0  0
    8.5952    4.6821    0.0000 O   0  0  0  0  0  0  0  0  0  0  0  0
   -4.1995   -4.9000    0.0000 O   0  0  0  0  0  0  0  0  0  0  0  0
   -2.8981   -4.1500    0.0000 O   0  0  0  0  0  0  0  0  0  0  0  0
   -5.4989   -2.6502    0.0000 O   0  0  0  0  0  0  0  0  0  0  0  0
   -0.3000   -4.1500    0.0000 O   0  0  0  0  0  0  0  0  0  0  0  0
    8.0551    7.2234    0.0000 O   0  0  0  0  0  0  0  0  0  0  0  0
  6  5  1  0
  7  4  1  0
 10  8  1  0
 11  9  1  0
 14  1  1  6
 14  4  1  0
 15  8  1  0
 15 12  1  0
 16 13  1  6
 17  5  1  1
 17 14  1  0
 18  6  1  1
 18 16  1  0
 19  9  1  1
 19 16  1  0
 20 12  1  6
 21 13  1  0
 21 20  1  0
 22  7  1  0
 26  2  1  1
 26 11  1  0
 26 17  1  0
 26 18  1  0
 27  3  1  1
 27 10  1  0
 27 19  1  0
 27 20  1  0
 28 23  1  0
 29 23  1  0
 30 24  1  0
 31 25  1  0
 32 28  1  0
 33 28  1  0
 34 28  1  0
 35 29  1  0
 36 29  1  0
 37 29  1  0
 38 30  1  0
 39 30  1  0
 40 30  1  0
 41 31  1  0
 42 31  1  0
 43 31  1  0
 44 22  2  0
 45 24  2  0
 46 25  2  0
 15 47  1  6
 47 24  1  0
 21 48  1  1
 48 25  1  0
 49 22  1  0
 49 23  1  0
M  END
>  <NAME>  (5232) 
HEXAFLUOROISOPROPYL 3ALPHA,6BETA-BIS(TRIFLUOROACETOXY)-5BETA-CHOLAN-24-OATE

>  <SYNONYMS>  (5232) 


>  <SPECTRUM TYPE>  (5232) 
MS1

>  <INSTRUMENT TYPE>  (5232) 
EI-B

>  <INSTRUMENT>  (5232) 
SHIMADZU LKB-9000B

>  <ION MODE>  (5232) 
P

>  <INCHIKEY>  (5232) 
KYEKUHZLTCKTMI-DKMDMZSLSA-N

>  <FORMULA>  (5232) 
C31H38F12O6

>  <EXACT MASS>  (5232) 
734.247677576

>  <MW>  (5232) 
734

>  <ID>  (5232) 
JP001879

>  <CONTRIBUTOR>  (5232) 
University of Tokyo Team, {Faculty of Engineering, University of Tokyo

>  <COMMENT>  (5232) 
SMILES=C(CC(OC(C(F)(F)F)C(F)(F)F)=O)C(C(C4)(C(C3(C4)[H])(C)CCC(C3([H])1)(C(C)(C2)C(CC(C2)OC(C(F)(F)F)=O)([H])C(C1)OC(=O)C(F)(F)F)[H])[H])([H])C
InChI=InChI=1S/C31H38F12O6/c1-14(4-7-22(44)49-23(28(32,33)34)29(35,36)37)17-5-6-18-16-13-21(48-25(46)31(41,42)43)20-12-15(47-24(45)30(38,39)40)8-10-27(20,3)19(16)9-11-26(17,18)2/h14-21,23H,4-13H2,1-3H3/t14-,15-,16+,17-,18+,19+,20+,21-,26-,27-/m1/s1
computed SMILES=O=C(OC(C(F)(F)F)C(F)(F)F)CCC(C)C1CCC2C3CC(OC(=O)C(F)(F)F)C4CC(OC(=O)C(F)(F)F)CCC4(C)C3CCC12C
accession=JP001879
date=2016.01.19 (Created 2008.10.21, modified 2011.05.06)
author=SEYAMA Y, DEPT. OF PHYSIOL. CHEMISTRY AND NUTRITION, FAC. OF MEDICINE, UNIV. OF TOKYO
license=CC BY-NC-SA
exact mass=734.24768
ionization energy=70 eV
ion type=[M]+*
computed spectral entropy=4.440883500375841
computed normalized entropy=0.8677000526264455
SPLASH=splash10-0694-9723000000-c02e57551e54c10ef40a
submitter=submitter = University of Tokyo Team (Faculty of Engineering, University of Tokyo)
MoNA Rating=3.75

>  <NUM PEAKS>  (5232) 
167

>  <MASS SPECTRAL PEAKS>  (5232) 
39 4.4
41 27.9
42 3.5
43 18.5
45 2.2
50 2.6
51 3.2
53 9.2
54 4.5
55 99.99
56 6.9
57 7.9
59 4.3
63 1
65 5.1
66 3.6
67 48.2
68 69.4
69 44.5
70 3.1
71 2.2
77 10.7
78 3.7
79 18.1
80 6.1
81 42.4
82 14.5
83 22.1
84 1.5
85 6.8
89 1.2
91 31.6
92 10.5
93 50.1
94 14.1
95 59.9
96 2.8
97 7.9
98 1.1
99 1.5
100 1.1
103 1.7
104 2.3
105 38.3
106 13
107 36.4
108 13.1
109 19.6
110 3
111 3.6
113 2
114 2.4
115 2.6
116 1.2
117 10
118 7.2
119 28.9
120 16.7
121 20
122 7.2
123 11.2
124 1
125 1.1
127 3.1
128 2.3
129 5.6
130 2.5
131 16.4
132 5.2
133 19.5
134 58.4
135 18.5
136 3.3
137 7.2
141 2.6
142 1.5
143 15.9
144 5.2
145 24.1
146 5.7
147 16.5
148 9
149 6.3
151 1.9
153 1.4
155 1.2
156 1
157 9.7
158 5.9
159 17.2
160 7.4
161 8.9
162 2.3
163 2.1
169 1.5
170 1.1
171 7.8
172 5.1
173 10.3
174 4.2
175 2.8
181 1.9
183 1.7
185 6.3
186 4.8
187 6.2
188 1
195 1.8
197 1.6
199 12.9
200 3.8
201 4.1
209 5.3
210 4.7
211 1.6
212 1
213 41.6
214 20.5
215 8.9
216 6.2
217 1.2
221 2
223 1.1
227 3.3
228 25.2
229 8
233 1.1
235 2.8
241 1
247 1.3
251 1.6
255 4.9
277 1.5
290 17.1
291 2.5
313 2.4
314 1
315 3.2
327 47.1
328 68.6
329 22
330 17.4
331 4.6
339 3.7
341 1.2
342 50
343 12
344 2.3
345 3.9
355 1.7
356 1.9
369 4.1
385 1.4
435 1.6
453 1.7
487 3.1
491 7.2
492 1.9
506 7.6
507 15.1
508 3.9
549 6.6
550 1.7
605 2.5
620 46.6
621 15.5
622 2.2

>  <PREDICTED SPECTRUM>  (5232) 
27 109
28 3
29 60
39 236
40 96
41 593
42 295
43 552
44 253
45 314
47 85
50 94
51 206
52 56
53 367
54 365
55 999
56 278
57 230
59 206
65 279
66 284
67 781
68 806
69 850
70 246
71 94
73 119
77 443
78 190
79 676
80 376
81 801
82 505
83 533
84 90
85 306
86 36
89 12
91 691
92 370
93 862
94 506
95 747
96 357
97 415
98 101
99 172
100 75
101 49
103 161
104 144
105 605
106 399
107 712
108 395
109 559
110 243
111 243
112 4
113 62
114 117
115 264
116 83
117 361
118 258
119 548
120 292
121 419
122 199
123 396
124 113
125 189
126 91
127 260
128 212
129 197
130 108
131 363
132 304
133 549
134 345
135 419
136 199
137 259
138 17
139 69
140 4
141 257
142 190
143 345
144 209
145 489
146 230
147 571
148 219
149 248
151 99
152 72
153 78
155 36
156 26
157 229
158 129
159 449
160 357
161 369
162 151
163 17
164 69
165 41
167 0
169 130
170 12
171 272
172 180
173 259
174 233
175 130
177 76
181 167
182 9
183 82
185 305
186 206
187 257
189 38
192 33
195 155
196 10
197 163
199 387
200 223
201 237
202 59
203 117
204 1
207 33
209 186
210 237
211 22
212 95
213 618
214 564
215 408
216 270
217 115
219 9
221 139
227 165
228 440
229 222
230 15
232 34
233 131
234 0
235 140
237 87
238 3
241 156
242 150
243 131
244 22
246 24
247 86
250 13
251 169
252 16
253 35
255 322
256 77
257 5
262 6
267 28
273 57
277 160
280 17
281 54
283 77
284 0
286 124
288 19
290 466
291 106
300 53
301 9
313 148
314 103
315 356
316 7
318 11
319 6
327 720
328 835
329 530
330 530
331 181
335 38
336 49
339 218
340 51
341 85
342 605
343 272
344 343
345 266
346 45
351 15
355 109
356 88
357 44
368 3
369 243
374 56
377 31
385 92
387 3
390 11
401 2
417 41
430 22
438 0
487 155
488 24
489 16
491 341
492 119
505 94
506 420
507 536
508 180
509 27
549 285
550 91
564 4
579 11
605 208
620 754
621 468
622 177

$$$$

     RDKit          2D

 56 59  0  0  1  0  0  0  0  0999 V2000
    3.1130    4.9420    0.0000 C   0  0  0  0  0  0  0  0  0  0  0  0
    2.3787    3.4316    0.0000 C   0  0  0  0  0  0  0  0  0  0  0  0
   -1.6800    1.1900    0.0000 C   0  0  0  0  0  0  0  0  0  0  0  0
    5.5829    4.1361    0.0000 C   0  0  0  0  0  0  0  0  0  0  0  0
    4.5300    1.1900    0.0000 C   0  0  0  0  0  0  0  0  0  0  0  0
    3.6500   -0.0200    0.0000 C   0  0  0  0  0  0  0  0  0  0  0  0
    6.0482    5.5621    0.0000 C   0  0  0  0  0  0  0  0  0  0  0  0
   -4.2800   -0.3100    0.0000 C   0  0  0  0  0  0  0  0  0  0  0  0
   -0.3800    1.9400    0.0000 C   0  0  0  0  0  0  0  0  0  0  0  0
   -2.9800    0.4400    0.0000 C   0  0  0  0  0  0  0  0  0  0  0  0
    0.9200    2.6900    0.0000 C   0  0  0  0  0  0  0  0  0  0  0  0
   -2.9800   -2.5600    0.0000 C   0  0  0  0  0  0  0  0  0  0  0  0
    4.1153    3.8260    0.0000 C   0  0  0  0  0  0  0  0  0  0  0  0
   -4.2800   -1.8100    0.0000 C   0  0  0  0  0  0  0  0  0  0  0  0
    3.6500    2.4000    0.0000 C   0  0  0  0  0  0  0  0  0  0  0  0
    2.2200    0.4400    0.0000 C   0  0  0  0  0  0  0  0  0  0  0  0
   -0.3800    0.4400    0.0000 C   0  0  0  0  0  0  0  0  0  0  0  0
   -1.6800   -1.8100    0.0000 C   0  0  0  0  0  0  0  0  0  0  0  0
    7.5158    5.8722    0.0000 C   0  0  0  0  0  0  0  0  0  0  0  0
    0.9200   -0.3100    0.0000 C   0  0  0  0  0  0  0  0  0  0  0  0
   -0.3800   -2.5600    0.0000 C   0  0  0  0  0  0  0  0  0  0  0  0
    0.9200   -1.8100    0.0000 C   0  0  0  0  0  0  0  0  0  0  0  0
    9.4486    7.6082    0.0000 C   0  0  0  0  0  0  0  0  0  0  0  0
   -5.5787   -4.0602    0.0000 C   0  0  0  0  0  0  0  0  0  0  0  0
   -1.6790   -4.8100    0.0000 C   0  0  0  0  0  0  0  0  0  0  0  0
    2.2187   -4.0602    0.0000 C   0  0  0  0  0  0  0  0  0  0  0  0
    2.2200    1.9400    0.0000 C   0  0  0  0  0  0  0  0  0  0  0  0
   -1.6800   -0.3100    0.0000 C   0  0  0  0  0  0  0  0  0  0  0  0
    9.9139    9.0343    0.0000 C   0  0  0  0  0  0  0  0  0  0  0  0
   10.4510    6.4923    0.0000 C   0  0  0  0  0  0  0  0  0  0  0  0
   -6.8776   -4.8104    0.0000 C   0  0  0  0  0  0  0  0  0  0  0  0
   -1.6790   -6.3100    0.0000 C   0  0  0  0  0  0  0  0  0  0  0  0
    3.5176   -4.8104    0.0000 C   0  0  0  0  0  0  0  0  0  0  0  0
   11.3399    8.5690    0.0000 F   0  0  0  0  0  0  0  0  0  0  0  0
   10.3792   10.4603    0.0000 F   0  0  0  0  0  0  0  0  0  0  0  0
    8.4879    9.4995    0.0000 F   0  0  0  0  0  0  0  0  0  0  0  0
    8.9531    6.5726    0.0000 F   0  0  0  0  0  0  0  0  0  0  0  0
   10.7610    5.0247    0.0000 F   0  0  0  0  0  0  0  0  0  0  0  0
   11.7883    7.1716    0.0000 F   0  0  0  0  0  0  0  0  0  0  0  0
   -7.6278   -3.5115    0.0000 F   0  0  0  0  0  0  0  0  0  0  0  0
   -8.1765   -5.5606    0.0000 F   0  0  0  0  0  0  0  0  0  0  0  0
   -6.1274   -6.1093    0.0000 F   0  0  0  0  0  0  0  0  0  0  0  0
   -3.1790   -6.3100    0.0000 F   0  0  0  0  0  0  0  0  0  0  0  0
   -1.6790   -7.8100    0.0000 F   0  0  0  0  0  0  0  0  0  0  0  0
   -0.1790   -6.3100    0.0000 F   0  0  0  0  0  0  0  0  0  0  0  0
    2.7674   -6.1093    0.0000 F   0  0  0  0  0  0  0  0  0  0  0  0
    4.8165   -5.5606    0.0000 F   0  0  0  0  0  0  0  0  0  0  0  0
    4.2678   -3.5115    0.0000 F   0  0  0  0  0  0  0  0  0  0  0  0
    8.5181    4.7562    0.0000 O   0  0  0  0  0  0  0  0  0  0  0  0
   -4.2795   -4.8100    0.0000 O   0  0  0  0  0  0  0  0  0  0  0  0
   -2.9781   -4.0600    0.0000 O   0  0  0  0  0  0  0  0  0  0  0  0
    0.9195   -4.8100    0.0000 O   0  0  0  0  0  0  0  0  0  0  0  0
   -5.5789   -2.5602    0.0000 O   0  0  0  0  0  0  0  0  0  0  0  0
    7.9810    7.2982    0.0000 O   0  0  0  0  0  0  0  0  0  0  0  0
   -0.3800   -4.0600    0.0000 O   0  0  0  0  0  0  0  0  0  0  0  0
    2.2189   -2.5602    0.0000 O   0  0  0  0  0  0  0  0  0  0  0  0
  6  5  1  0
  7  4  1  0
 10  8  1  0
 11  9  1  0
 13  1  1  6
 13  4  1  0
 14  8  1  0
 14 12  1  0
 15  5  1  1
 15 13  1  0
 16  6  1  1
 17  9  1  1
 18 12  1  6
 19  7  1  0
 20 16  1  0
 20 17  1  0
 21 18  1  0
 20 22  1  6
 22 21  1  0
 27  2  1  1
 27 11  1  0
 27 15  1  0
 27 16  1  0
 28  3  1  1
 28 10  1  0
 28 17  1  0
 28 18  1  0
 29 23  1  0
 30 23  1  0
 31 24  1  0
 32 25  1  0
 33 26  1  0
 34 29  1  0
 35 29  1  0
 36 29  1  0
 37 30  1  0
 38 30  1  0
 39 30  1  0
 40 31  1  0
 41 31  1  0
 42 31  1  0
 43 32  1  0
 44 32  1  0
 45 32  1  0
 46 33  1  0
 47 33  1  0
 48 33  1  0
 49 19  2  0
 50 24  2  0
 51 25  2  0
 52 26  2  0
 14 53  1  6
 53 24  1  0
 54 19  1  0
 54 23  1  0
 21 55  1  1
 55 25  1  0
 22 56  1  1
 56 26  1  0
M  END
>  <NAME>  (5233) 
HEXAFLUOROISOPROPYL 3ALPHA,6BETA,7BETA-TRIS(TRIFLUOROACETOXY)-5BETA-CHOLAN-24-OATE

>  <SYNONYMS>  (5233) 
HEXAFLUOROISOPROPYL 3,6,7-TRIS(O-TRIFLUOROACETYL) BETA-MURICHOLATE

>  <SPECTRUM TYPE>  (5233) 
MS1

>  <INSTRUMENT TYPE>  (5233) 
EI-B

>  <INSTRUMENT>  (5233) 
SHIMADZU LKB-9000B

>  <ION MODE>  (5233) 
P

>  <INCHIKEY>  (5233) 
ZMQPGXCUJGKHOP-UDFIMFMKSA-N

>  <FORMULA>  (5233) 
C33H37F15O8

>  <EXACT MASS>  (5233) 
846.224891444

>  <MW>  (5233) 
846

>  <ID>  (5233) 
JP001878

>  <CONTRIBUTOR>  (5233) 
University of Tokyo Team, {Faculty of Engineering, University of Tokyo

>  <COMMENT>  (5233) 
SMILES=C(C(OC(C(F)(F)F)=O)3)(C(C(C(C4)(C3(CC(C4)OC(C(F)(F)F)=O)[H])C)2[H])(C(C1)(C(C)(CC2)C([H])(C1)C(CCC(=O)OC(C(F)(F)F)C(F)(F)F)([H])C)[H])[H])OC(C(F)(F)F)=O
InChI=InChI=1S/C33H37F15O8/c1-13(4-7-19(49)54-23(29(34,35)36)30(37,38)39)15-5-6-16-20-17(9-11-27(15,16)2)28(3)10-8-14(53-24(50)31(40,41)42)12-18(28)21(55-25(51)32(43,44)45)22(20)56-26(52)33(46,47)48/h13-18,20-23H,4-12H2,1-3H3/t13-,14-,15-,16+,17+,18+,20+,21+,22-,27-,28-/m1/s1
computed SMILES=O=C(OC(C(F)(F)F)C(F)(F)F)CCC(C)C1CCC2C3C(OC(=O)C(F)(F)F)C(OC(=O)C(F)(F)F)C4CC(OC(=O)C(F)(F)F)CCC4(C)C3CCC12C
accession=JP001878
date=2016.01.19 (Created 2008.10.21, modified 2011.05.06)
author=SEYAMA Y, DEPT. OF PHYSIOL. CHEMISTRY AND NUTRITION, FAC. OF MEDICINE, UNIV. OF TOKYO
license=CC BY-NC-SA
exact mass=846.22489
ionization energy=70 eV
ion type=[M]+*
computed spectral entropy=4.839442252131519
computed normalized entropy=0.883680171745995
SPLASH=splash10-05mo-9521000000-9e6ca167b5f3e6d3453f
submitter=submitter = University of Tokyo Team (Faculty of Engineering, University of Tokyo)
MoNA Rating=3.75

>  <NUM PEAKS>  (5233) 
239

>  <MASS SPECTRAL PEAKS>  (5233) 
38 1.4
39 15.4
40 7.7
41 35.8
42 3.8
43 19.9
44 13.8
45 6.9
47 9.4
49 1.1
50 3.4
51 6.4
53 8.5
54 4.9
55 99.99
56 7.7
57 12
59 16
60 1.2
63 1
64 1.2
65 7.6
66 3
67 38.8
68 41.8
69 52.7
70 4.8
71 2.4
73 7.1
75 2.2
76 1
77 20.6
78 15.8
79 30.4
80 8.5
81 66.8
82 21.9
83 27.2
84 2.2
85 12.2
89 1.3
91 24.6
92 6.3
93 38.7
94 14.2
95 54.2
96 10.1
97 8.1
98 1.7
99 2.4
103 2.1
104 2
105 26.5
106 6.5
107 30.6
108 10.3
109 18.1
110 5.3
111 3.2
112 1
113 2.7
115 2.9
116 1.4
117 10.4
118 5.3
119 17.7
120 4.6
121 12.5
122 3.2
123 7.5
124 1.6
125 2.3
126 2.5
127 1.6
128 3
129 7.3
130 2.7
131 12.8
132 5
133 14.1
134 3.4
135 9.2
136 1.7
137 21.7
138 5.6
139 2.7
141 4.1
142 2.7
143 10.8
144 3.7
145 15.5
146 5.1
147 9.7
148 1.9
149 4.5
151 2.5
153 2.3
154 1.3
155 6.8
156 2.6
157 14.7
158 4.7
159 18.8
160 4
161 3.8
163 1.4
165 1.3
167 1.5
168 1.1
169 6.4
170 2.1
171 8.1
172 2.4
173 4.5
174 1
175 1.8
177 1.2
179 1.1
181 2.7
183 5
184 2
185 6.4
186 1.4
187 2.8
189 1
191 1.3
195 3.3
196 1.2
197 7.1
198 2.6
199 6.1
200 1.7
201 2.4
202 1.1
203 1.7
205 1.1
207 10.1
208 2
209 6.4
210 6
211 11.4
212 10.2
213 18.3
214 4.9
215 14
216 2.2
217 3.2
219 3.5
221 3
223 1.9
225 3.5
226 5.8
227 6.9
228 1.4
229 1.7
231 1.5
232 4.7
233 4.5
235 4.6
237 8.8
238 1.4
239 3.6
240 1.2
241 1.1
243 1.2
246 1.7
247 2.2
249 1.1
251 5.1
252 1.1
253 10.9
254 2.5
255 1.1
257 1.9
264 3.4
271 3.1
273 1
276 1.5
277 3.9
278 1.8
281 2.6
283 1.9
285 1.6
290 35.8
291 6.8
292 1.2
293 2.5
297 2.3
304 2.1
311 9.8
312 2.1
313 2.5
314 1.2
315 1.6
318 1.5
325 6.8
326 16.5
327 18.9
328 7
329 2.4
331 1.8
337 1.2
339 1.5
340 9.9
341 6.9
342 1.5
343 1.4
344 2.9
345 2.2
346 2.1
353 2.6
354 4.2
355 2
367 20.6
368 4.6
385 1.5
395 7.5
396 2.2
410 1.9
439 8.9
440 46.4
441 10.5
442 1.1
454 3.2
481 5.8
485 1.8
489 3.3
503 2
504 9.9
505 12.8
506 3.3
547 1.3
603 3.8
604 1.1
618 27.9
619 16.2
620 4.5
661 5.4
662 1.5

>  <PREDICTED SPECTRUM>  (5233) 
27 134
29 104
33 14
39 306
40 120
41 620
42 312
43 530
44 229
45 311
47 167
50 157
51 249
52 77
53 358
54 299
55 999
56 279
57 295
59 344
60 11
65 283
66 243
67 711
68 613
69 871
70 198
71 156
73 319
77 444
78 270
79 607
80 343
81 746
82 455
83 538
84 78
85 222
86 13
87 1
89 83
90 23
91 660
92 350
93 737
94 333
95 679
96 321
97 467
98 111
99 161
100 40
101 59
102 31
103 143
104 121
105 579
106 359
107 760
108 380
109 674
110 308
111 258
112 153
113 167
114 226
115 389
116 169
117 439
118 279
119 599
120 199
121 459
122 190
123 318
124 197
125 193
126 245
127 274
128 303
129 274
130 158
131 489
132 340
133 587
134 305
135 374
136 175
137 352
138 286
139 219
140 54
141 263
142 240
143 471
144 243
145 604
146 254
147 579
148 228
149 264
150 19
151 162
153 250
154 158
155 203
156 165
157 454
158 224
159 538
160 365
161 346
162 50
163 77
164 26
165 134
167 169
168 153
169 275
170 163
171 328
172 139
173 231
174 158
175 128
176 20
177 142
181 185
182 35
183 217
184 144
185 265
186 194
187 245
189 106
191 105
195 229
196 134
197 379
198 132
199 265
200 142
201 186
202 81
203 152
205 120
206 21
207 389
208 134
209 307
210 238
211 346
212 300
213 570
214 308
215 397
216 204
217 229
219 224
221 169
222 2
223 141
225 230
226 245
227 337
228 134
229 179
231 152
232 327
233 275
234 53
235 232
237 305
238 123
239 213
240 172
241 166
242 135
243 236
246 193
247 205
248 70
249 70
250 2
251 168
252 71
253 352
254 187
255 169
257 185
258 64
259 28
260 44
261 20
262 7
263 72
264 112
265 24
267 3
268 58
270 65
271 276
272 7
273 192
275 43
276 127
277 100
281 218
282 15
283 297
285 174
286 32
287 132
288 23
290 471
291 281
292 44
293 89
295 75
297 141
301 47
304 114
310 8
311 427
312 184
313 268
314 144
315 228
316 18
318 35
319 30
321 50
324 28
325 282
326 554
327 501
328 345
329 206
330 25
331 112
333 53
337 47
339 216
340 482
341 359
342 209
343 122
344 220
345 213
346 53
347 146
352 7
353 225
354 276
355 220
356 83
357 24
358 22
365 13
366 54
367 419
368 267
378 12
379 80
380 20
385 106
386 31
395 264
396 173
400 10
401 4
403 1
410 226
412 7
413 64
417 0
428 27
437 31
439 419
440 825
441 440
442 186
450 88
453 24
454 31
455 32
458 39
463 23
469 39
470 14
473 3
474 7
476 61
480 23
481 293
487 87
489 195
490 31
491 37
492 18
502 61
503 166
504 380
505 486
506 277
507 2
509 10
547 100
549 139
550 14
579 16
590 12
602 7
603 186
604 141
605 19
618 622
619 617
620 288
636 12
661 274
678 7

$$$$

     RDKit          2D

 42 45  0  0  1  0  0  0  0  0999 V2000
    3.2009    4.6377    0.0000 C   0  0  0  0  0  0  0  0  0  0  0  0
   -1.6125    0.9400    0.0000 C   0  0  0  0  0  0  0  0  0  0  0  0
    2.4507    3.1203    0.0000 C   0  0  0  0  0  0  0  0  0  0  0  0
    5.6618    3.8047    0.0000 C   0  0  0  0  0  0  0  0  0  0  0  0
   -0.3200   -2.8400    0.0000 C   0  0  0  0  0  0  0  0  0  0  0  0
    1.0100   -2.0900    0.0000 C   0  0  0  0  0  0  0  0  0  0  0  0
    4.5500    0.8800    0.0000 C   0  0  0  0  0  0  0  0  0  0  0  0
    3.7100   -0.3100    0.0000 C   0  0  0  0  0  0  0  0  0  0  0  0
    6.1427    5.2256    0.0000 C   0  0  0  0  0  0  0  0  0  0  0  0
   -4.2000   -0.5600    0.0000 C   0  0  0  0  0  0  0  0  0  0  0  0
   -0.3200    1.6300    0.0000 C   0  0  0  0  0  0  0  0  0  0  0  0
   -2.8900    0.1600    0.0000 C   0  0  0  0  0  0  0  0  0  0  0  0
    1.0100    2.3900    0.0000 C   0  0  0  0  0  0  0  0  0  0  0  0
   -2.8900   -2.8400    0.0000 C   0  0  0  0  0  0  0  0  0  0  0  0
    4.1909    3.5108    0.0000 C   0  0  0  0  0  0  0  0  0  0  0  0
   -1.6200   -2.0900    0.0000 C   0  0  0  0  0  0  0  0  0  0  0  0
   -4.2000   -2.0900    0.0000 C   0  0  0  0  0  0  0  0  0  0  0  0
    1.0100   -0.5600    0.0000 C   0  0  0  0  0  0  0  0  0  0  0  0
    3.7100    2.0900    0.0000 C   0  0  0  0  0  0  0  0  0  0  0  0
    2.2800    0.1600    0.0000 C   0  0  0  0  0  0  0  0  0  0  0  0
   -0.3200    0.1600    0.0000 C   0  0  0  0  0  0  0  0  0  0  0  0
    7.6137    5.5195    0.0000 C   0  0  0  0  0  0  0  0  0  0  0  0
    9.5655    7.2342    0.0000 C   0  0  0  0  0  0  0  0  0  0  0  0
   -5.4950   -4.3424    0.0000 C   0  0  0  0  0  0  0  0  0  0  0  0
   -1.6200   -0.5600    0.0000 C   0  0  0  0  0  0  0  0  0  0  0  0
    2.2800    1.6300    0.0000 C   0  0  0  0  0  0  0  0  0  0  0  0
   10.0464    8.6551    0.0000 C   0  0  0  0  0  0  0  0  0  0  0  0
   10.5555    6.1074    0.0000 C   0  0  0  0  0  0  0  0  0  0  0  0
   -6.7926   -5.0947    0.0000 C   0  0  0  0  0  0  0  0  0  0  0  0
   11.4672    8.1742    0.0000 F   0  0  0  0  0  0  0  0  0  0  0  0
   10.5273   10.0759    0.0000 F   0  0  0  0  0  0  0  0  0  0  0  0
    8.6256    9.1360    0.0000 F   0  0  0  0  0  0  0  0  0  0  0  0
    9.0586    6.2041    0.0000 F   0  0  0  0  0  0  0  0  0  0  0  0
   10.8494    4.6364    0.0000 F   0  0  0  0  0  0  0  0  0  0  0  0
   11.9002    6.7720    0.0000 F   0  0  0  0  0  0  0  0  0  0  0  0
   -7.5450   -3.7970    0.0000 F   0  0  0  0  0  0  0  0  0  0  0  0
   -8.0903   -5.8471    0.0000 F   0  0  0  0  0  0  0  0  0  0  0  0
   -6.0403   -6.3924    0.0000 F   0  0  0  0  0  0  0  0  0  0  0  0
    8.6037    4.3926    0.0000 O   0  0  0  0  0  0  0  0  0  0  0  0
   -4.1946   -5.0900    0.0000 O   0  0  0  0  0  0  0  0  0  0  0  0
   -5.4977   -2.8424    0.0000 O   0  0  0  0  0  0  0  0  0  0  0  0
    8.0946    6.9403    0.0000 O   0  0  0  0  0  0  0  0  0  0  0  0
  6  5  1  0
  8  7  1  0
  9  4  1  0
 12 10  1  0
 13 11  1  0
 15  1  1  6
 15  4  1  0
 16  5  1  1
 16 14  1  0
 17 10  1  0
 17 14  1  0
 18  6  1  6
 19  7  1  1
 19 15  1  0
 20  8  1  1
 20 18  1  0
 21 11  1  1
 21 18  1  0
 22  9  1  0
 25  2  1  1
 25 12  1  0
 25 16  1  0
 25 21  1  0
 26  3  1  1
 26 13  1  0
 26 19  1  0
 26 20  1  0
 27 23  1  0
 28 23  1  0
 29 24  1  0
 30 27  1  0
 31 27  1  0
 32 27  1  0
 33 28  1  0
 34 28  1  0
 35 28  1  0
 36 29  1  0
 37 29  1  0
 38 29  1  0
 39 22  2  0
 40 24  2  0
 17 41  1  1
 41 24  1  0
 42 22  1  0
 42 23  1  0
M  END
>  <NAME>  (5234) 
HEXAFLUOROISOPROPYL 3BETA-TRIFLUOROACETOXY-5ALPHA-CHOLAN-24-OATE

>  <SYNONYMS>  (5234) 


>  <SPECTRUM TYPE>  (5234) 
MS1

>  <INSTRUMENT TYPE>  (5234) 
EI-B

>  <INSTRUMENT>  (5234) 
SHIMADZU LKB-9000B

>  <ION MODE>  (5234) 
P

>  <INCHIKEY>  (5234) 
QSMCWSQCJINJEC-MIRCAXOXSA-N

>  <FORMULA>  (5234) 
C29H39F9O4

>  <EXACT MASS>  (5234) 
622.270463708

>  <MW>  (5234) 
622

>  <ID>  (5234) 
JP001875

>  <CONTRIBUTOR>  (5234) 
University of Tokyo Team, {Faculty of Engineering, University of Tokyo

>  <COMMENT>  (5234) 
SMILES=C(C4([H])1)CC(C(CCC([H])(C4([H])3)C(C([H])2CC3)(CCC(C2)OC(=O)C(F)(F)F)C)(C)1)([H])C(CCC(=O)OC(C(F)(F)F)C(F)(F)F)([H])C
InChI=InChI=1S/C29H39F9O4/c1-15(4-9-22(39)42-23(27(30,31)32)28(33,34)35)19-7-8-20-18-6-5-16-14-17(41-24(40)29(36,37)38)10-12-25(16,2)21(18)11-13-26(19,20)3/h15-21,23H,4-14H2,1-3H3/t15-,16+,17+,18+,19-,20+,21+,25+,26-/m1/s1
computed SMILES=O=C(OC(C(F)(F)F)C(F)(F)F)CCC(C)C1CCC2C3CCC4CC(OC(=O)C(F)(F)F)CCC4(C)C3CCC12C
accession=JP001875
date=2016.01.19 (Created 2008.10.21, modified 2011.05.06)
author=SEYAMA Y, DEPT. OF PHYSIOL. CHEMISTRY AND NUTRITION, FAC. OF MEDICINE, UNIV. OF TOKYO
license=CC BY-NC-SA
exact mass=622.27046
ionization energy=70 eV
ion type=[M]+*
computed spectral entropy=4.380297319843023
computed normalized entropy=0.858904322659256
SPLASH=splash10-0aru-9724000000-9b122caa6a9c4034d812
submitter=submitter = University of Tokyo Team (Faculty of Engineering, University of Tokyo)
MoNA Rating=3.75

>  <NUM PEAKS>  (5234) 
164

>  <MASS SPECTRAL PEAKS>  (5234) 
39 2.1
40 1.4
41 19.9
42 3
43 13.3
44 2.6
45 2.4
47 1.8
49 1
50 1.5
51 3.4
53 7.3
54 4.2
55 65.7
56 5.2
57 6.9
59 4
64 1.7
65 3.3
66 2.3
67 45.6
68 35.3
69 29.6
70 2.3
71 1.8
73 1.9
75 1.8
76 1.4
77 9.1
78 4.5
79 23.4
80 11.1
81 50.7
82 16.6
83 17.6
84 1.3
85 8.7
89 1.1
91 22.8
92 6.6
93 45
94 18.8
95 55.1
96 6.6
97 8.5
99 1
101 1.8
103 1
104 1.3
105 19.8
106 14
107 53.1
108 27.6
109 30.1
110 4.5
111 4.3
113 1
115 4.1
117 3.8
118 2
119 14
120 8.5
121 28.7
122 17.7
123 33
124 4.3
125 1.2
128 2.7
129 2.3
131 4.4
132 2
133 13.3
134 5.1
135 18.6
136 5.3
137 6.7
138 1.6
139 1.3
141 2
145 5.4
146 2.7
147 30
148 9.5
149 16.6
150 2.3
151 2.3
155 1.9
157 1.1
159 2.2
160 5
161 11.7
162 4.9
163 5.6
173 3.9
174 2
175 4.3
176 1.7
177 1.4
181 1.3
187 3.3
188 3
189 2.5
191 1
195 1.5
201 7.3
202 1.8
203 2.5
207 3
208 1.7
209 4.1
210 3.2
211 1.7
215 21.8
216 16.5
217 24
218 3.7
219 1.2
221 1.7
229 2.1
230 14.5
231 3.5
233 1.1
235 2.1
237 1.6
238 1.5
257 2.8
261 10.6
262 7.3
263 1.3
274 1.6
277 1.2
281 1.5
287 1.1
288 3
290 1.1
293 1.7
301 3.4
302 8.5
303 2
315 14.8
316 3.9
329 99.99
330 61.4
331 12.8
332 1.2
344 38.8
345 11.6
346 3.1
399 1.3
400 3.7
401 4.7
413 2.1
437 8.8
438 2.4
454 1.5
455 2.5
493 6.3
494 1.2
508 4
509 3.9
607 5.4
608 1.3
622 27.8
623 9.2

>  <PREDICTED SPECTRUM>  (5234) 
27 50
28 6
29 1
39 69
40 32
41 525
42 167
43 495
44 149
45 128
47 115
49 12
50 44
51 168
52 71
53 311
54 230
55 879
56 234
57 286
59 209
61 56
64 13
65 213
66 133
67 683
68 637
69 660
70 161
71 36
72 72
73 172
74 57
75 33
77 349
78 142
79 592
80 341
81 722
82 386
83 453
84 111
85 185
86 38
87 90
88 12
89 12
91 551
92 265
93 756
94 413
95 743
96 224
97 325
98 111
99 76
100 71
101 115
103 109
104 73
105 481
106 397
107 738
108 537
109 565
110 173
111 170
113 48
114 1
115 230
116 47
117 191
118 63
119 415
120 212
121 563
122 497
123 524
124 169
125 135
126 42
128 127
129 46
130 2
131 205
132 64
133 409
134 248
135 437
136 287
137 208
138 107
139 120
141 135
143 17
144 43
145 279
146 59
147 473
148 255
149 544
150 170
151 205
152 18
154 29
155 37
157 12
159 143
160 223
161 369
162 281
163 154
165 87
171 4
173 116
174 82
175 201
176 107
177 70
178 6
181 37
186 15
187 146
188 70
189 139
190 26
191 60
193 33
195 99
197 16
198 3
199 27
200 34
201 266
202 79
203 138
204 12
207 37
208 65
209 204
210 147
211 4
213 5
215 473
216 360
217 370
218 235
219 24
220 5
221 4
222 2
227 55
229 74
230 257
231 95
233 59
235 48
237 113
240 47
250 5
257 144
261 151
262 226
263 163
264 30
267 16
268 5
273 2
276 28
277 102
285 89
291 44
292 43
301 62
302 157
303 21
305 45
306 11
315 417
329 999
330 778
331 347
332 13
333 7
341 85
343 4
344 626
345 319
346 123
355 27
371 15
373 61
374 12
379 45
387 15
389 16
390 4
394 34
396 39
397 6
398 33
399 54
400 99
401 194
402 12
413 70
437 93
438 26
455 32
493 326
494 28
508 218
509 141
607 184
608 57
612 4
622 420
623 236

$$$$

     RDKit          2D

 31 30  0  0  0  0  0  0  0  0999 V2000
    8.0687   13.7745    0.0000 C   0  0  0  0  0  0  0  0  0  0  0  0
  -21.8091   16.0245    0.0000 C   0  0  0  0  0  0  0  0  0  0  0  0
  -21.0591   15.8236    0.0000 C   0  0  0  0  0  0  0  0  0  0  0  0
  -23.1082   15.2745    0.0000 C   0  0  0  0  0  0  0  0  0  0  0  0
  -22.5591   13.2255    0.0000 C   0  0  0  0  0  0  0  0  0  0  0  0
    6.7697   14.5245    0.0000 C   0  0  0  0  0  0  0  0  0  0  0  0
    5.4707   13.7745    0.0000 C   0  0  0  0  0  0  0  0  0  0  0  0
    4.1716   14.5245    0.0000 C   0  0  0  0  0  0  0  0  0  0  0  0
    2.8726   13.7745    0.0000 C   0  0  0  0  0  0  0  0  0  0  0  0
    1.5736   14.5245    0.0000 C   0  0  0  0  0  0  0  0  0  0  0  0
    0.2745   13.7745    0.0000 C   0  0  0  0  0  0  0  0  0  0  0  0
   -1.0245   14.5245    0.0000 C   0  0  0  0  0  0  0  0  0  0  0  0
   -2.3236   13.7745    0.0000 C   0  0  0  0  0  0  0  0  0  0  0  0
   -3.6226   14.5245    0.0000 C   0  0  0  0  0  0  0  0  0  0  0  0
   -4.9216   13.7745    0.0000 C   0  0  0  0  0  0  0  0  0  0  0  0
   -6.2207   14.5245    0.0000 C   0  0  0  0  0  0  0  0  0  0  0  0
   -7.5197   13.7745    0.0000 C   0  0  0  0  0  0  0  0  0  0  0  0
   -8.8187   14.5245    0.0000 C   0  0  0  0  0  0  0  0  0  0  0  0
  -10.1178   13.7745    0.0000 C   0  0  0  0  0  0  0  0  0  0  0  0
  -11.4168   14.5245    0.0000 C   0  0  0  0  0  0  0  0  0  0  0  0
  -12.7159   13.7745    0.0000 C   0  0  0  0  0  0  0  0  0  0  0  0
  -14.0149   14.5245    0.0000 C   0  0  0  0  0  0  0  0  0  0  0  0
  -15.3139   13.7745    0.0000 C   0  0  0  0  0  0  0  0  0  0  0  0
  -16.6130   14.5245    0.0000 C   0  0  0  0  0  0  0  0  0  0  0  0
  -17.9120   13.7745    0.0000 C   0  0  0  0  0  0  0  0  0  0  0  0
  -19.2111   14.5245    0.0000 C   0  0  0  0  0  0  0  0  0  0  0  0
  -19.2111   16.0245    0.0000 C   0  0  0  0  0  0  0  0  0  0  0  0
  -17.9120   16.7745    0.0000 O   0  0  0  0  0  0  0  0  0  0  0  0
  -20.5101   16.7745    0.0000 O   0  0  0  0  0  0  0  0  0  0  0  0
  -20.5101   13.7745    0.0000 O   0  0  0  0  0  0  0  0  0  0  0  0
  -21.8091   14.5245    0.0000 Si  0  0  0  0  0  4  0  0  0  0  0  0
  6  1  1  0
  7  6  1  0
  8  7  1  0
  9  8  1  0
 10  9  1  0
 11 10  1  0
 12 11  1  0
 13 12  1  0
 14 13  1  0
 15 14  1  0
 16 15  1  0
 17 16  1  0
 18 17  1  0
 19 18  1  0
 20 19  1  0
 21 20  1  0
 22 21  1  0
 23 22  1  0
 24 23  1  0
 25 24  1  0
 26 25  1  0
 27 26  1  0
 28 27  2  0
 29  2  1  0
 29 27  1  0
 30 26  1  0
 31  3  1  0
 31  4  1  0
 31  5  1  0
 31 30  1  0
M  END
>  <NAME>  (5235) 
METHYL 2-TRIMETHYLSILOXYTRICOSANOATE

>  <SYNONYMS>  (5235) 
METHYL (O-TRIMETHYLSILYL)-ALPHA-HYDROXYTRICOSANOATE

>  <SPECTRUM TYPE>  (5235) 
MS1

>  <INSTRUMENT TYPE>  (5235) 
EI-B

>  <INSTRUMENT>  (5235) 
SHIMADZU LKB-9000B

>  <ION MODE>  (5235) 
P

>  <INCHIKEY>  (5235) 
GRADXVJUAVCNHF-UHFFFAOYSA-N

>  <FORMULA>  (5235) 
C27H56O3Si

>  <EXACT MASS>  (5235) 
456.39987218199997

>  <MW>  (5235) 
456

>  <ID>  (5235) 
JP001871

>  <CONTRIBUTOR>  (5235) 
University of Tokyo Team, {Faculty of Engineering, University of Tokyo

>  <COMMENT>  (5235) 
SMILES=CCCCCCCCCCCCCCCCCCCCCC(C(=O)OC)O[Si](C)(C)C
InChI=InChI=1S/C27H56O3Si/c1-6-7-8-9-10-11-12-13-14-15-16-17-18-19-20-21-22-23-24-25-26(27(28)29-2)30-31(3,4)5/h26H,6-25H2,1-5H3
computed SMILES=O=C(OC)C(O[Si](C)(C)C)CCCCCCCCCCCCCCCCCCCCC
accession=JP001871
date=2016.01.19 (Created 2008.10.21, modified 2011.05.06)
author=SEYAMA Y, DEPT. OF PHYSIOL. CHEMISTRY AND NUTRITION, FAC. OF MEDICINE, UNIV. OF TOKYO
license=CC BY-NC-SA
exact mass=456.39987
ionization energy=70 eV
ion type=[M]+*
computed spectral entropy=3.467887407535072
computed normalized entropy=0.8135462919026655
SPLASH=splash10-0002-9203100000-10a214409049cff6705c
submitter=submitter = University of Tokyo Team (Faculty of Engineering, University of Tokyo)
MoNA Rating=3.75

>  <NUM PEAKS>  (5235) 
71

>  <MASS SPECTRAL PEAKS>  (5235) 
41 10.2
42 2.5
43 26.7
45 2.1
54 1.6
55 13.5
56 2.7
57 23.5
58 1.5
59 6.7
61 1.6
67 5.1
68 2.6
69 12.4
70 2.7
71 11.7
72 1.6
73 64.7
74 6.5
75 17.8
76 1.5
77 1
81 5.6
82 4
83 15.5
84 1.8
85 6.4
87 1.7
89 28.3
90 2.6
91 6.5
95 6.4
97 13.2
98 1.7
99 1.6
101 3
103 17.5
104 1.8
105 2
107 1.4
109 4.1
110 1.1
111 6.1
113 1
115 3.2
116 2.3
117 1.8
119 1.8
123 1.5
125 2.4
129 17.7
130 2.1
131 2.5
143 2.5
145 2.8
146 2.3
159 10.4
160 1
161 1.4
162 2.2
185 1.5
207 1.4
397 99.99
398 32
399 8
400 1.2
413 3.7
441 32.8
442 10.8
443 2.7
456 3

>  <PREDICTED SPECTRUM>  (5235) 
18 5
29 64
39 63
40 21
41 374
42 184
43 580
44 132
45 174
47 52
50 5
51 52
52 24
53 107
54 156
55 523
56 263
57 688
58 166
59 218
60 90
61 181
62 39
63 0
65 11
66 57
67 358
68 232
69 479
70 199
71 470
72 111
73 960
74 219
75 415
76 137
77 251
78 63
79 185
80 92
81 353
82 249
83 540
84 200
85 396
86 74
87 143
88 58
89 493
90 182
91 303
92 7
93 130
94 36
95 440
96 169
97 506
98 144
99 205
100 38
101 204
102 98
103 514
104 225
105 265
107 73
109 338
110 132
111 348
112 127
113 100
115 200
116 36
117 50
118 52
119 134
120 20
121 16
123 202
124 90
125 239
126 43
127 80
128 28
129 392
130 137
131 154
132 28
133 35
137 1
142 4
143 46
145 87
146 116
147 93
148 2
149 130
150 0
154 7
157 56
158 25
159 304
161 18
170 7
171 67
172 48
173 33
175 6
183 12
184 7
185 67
187 23
189 27
201 30
203 8
209 2
242 1
245 13
307 12
382 25
397 999
398 676
399 259
400 91
413 208
414 52
441 484
442 111
443 170
456 82
457 7

$$$$

     RDKit          2D

 29 28  0  0  0  0  0  0  0  0999 V2000
    7.4192   12.6495    0.0000 C   0  0  0  0  0  0  0  0  0  0  0  0
  -19.8606   14.8995    0.0000 C   0  0  0  0  0  0  0  0  0  0  0  0
  -19.1106   14.6986    0.0000 C   0  0  0  0  0  0  0  0  0  0  0  0
  -21.1596   14.1495    0.0000 C   0  0  0  0  0  0  0  0  0  0  0  0
  -20.6106   12.1005    0.0000 C   0  0  0  0  0  0  0  0  0  0  0  0
    6.1202   13.3995    0.0000 C   0  0  0  0  0  0  0  0  0  0  0  0
    4.8212   12.6495    0.0000 C   0  0  0  0  0  0  0  0  0  0  0  0
    3.5221   13.3995    0.0000 C   0  0  0  0  0  0  0  0  0  0  0  0
    2.2231   12.6495    0.0000 C   0  0  0  0  0  0  0  0  0  0  0  0
    0.9240   13.3995    0.0000 C   0  0  0  0  0  0  0  0  0  0  0  0
   -0.3750   12.6495    0.0000 C   0  0  0  0  0  0  0  0  0  0  0  0
   -1.6740   13.3995    0.0000 C   0  0  0  0  0  0  0  0  0  0  0  0
   -2.9731   12.6495    0.0000 C   0  0  0  0  0  0  0  0  0  0  0  0
   -4.2721   13.3995    0.0000 C   0  0  0  0  0  0  0  0  0  0  0  0
   -5.5712   12.6495    0.0000 C   0  0  0  0  0  0  0  0  0  0  0  0
   -6.8702   13.3995    0.0000 C   0  0  0  0  0  0  0  0  0  0  0  0
   -8.1692   12.6495    0.0000 C   0  0  0  0  0  0  0  0  0  0  0  0
   -9.4683   13.3995    0.0000 C   0  0  0  0  0  0  0  0  0  0  0  0
  -10.7673   12.6495    0.0000 C   0  0  0  0  0  0  0  0  0  0  0  0
  -12.0663   13.3995    0.0000 C   0  0  0  0  0  0  0  0  0  0  0  0
  -13.3654   12.6495    0.0000 C   0  0  0  0  0  0  0  0  0  0  0  0
  -14.6644   13.3995    0.0000 C   0  0  0  0  0  0  0  0  0  0  0  0
  -15.9635   12.6495    0.0000 C   0  0  0  0  0  0  0  0  0  0  0  0
  -17.2625   13.3995    0.0000 C   0  0  0  0  0  0  0  0  0  0  0  0
  -17.2625   14.8995    0.0000 C   0  0  0  0  0  0  0  0  0  0  0  0
  -15.9635   15.6495    0.0000 O   0  0  0  0  0  0  0  0  0  0  0  0
  -18.5615   15.6495    0.0000 O   0  0  0  0  0  0  0  0  0  0  0  0
  -18.5615   12.6495    0.0000 O   0  0  0  0  0  0  0  0  0  0  0  0
  -19.8606   13.3995    0.0000 Si  0  0  0  0  0  4  0  0  0  0  0  0
  6  1  1  0
  7  6  1  0
  8  7  1  0
  9  8  1  0
 10  9  1  0
 11 10  1  0
 12 11  1  0
 13 12  1  0
 14 13  1  0
 15 14  1  0
 16 15  1  0
 17 16  1  0
 18 17  1  0
 19 18  1  0
 20 19  1  0
 21 20  1  0
 22 21  1  0
 23 22  1  0
 24 23  1  0
 25 24  1  0
 26 25  2  0
 27  2  1  0
 27 25  1  0
 28 24  1  0
 29  3  1  0
 29  4  1  0
 29  5  1  0
 29 28  1  0
M  END
>  <NAME>  (5236) 
METHYL 2-TRIMETHYLSILOXYHENEICOSANOATE

>  <SYNONYMS>  (5236) 
METHYL (O-TRIMETHYLSILYL)-ALPHA-HYDROXYHENEICOSANOATE

>  <SPECTRUM TYPE>  (5236) 
MS1

>  <INSTRUMENT TYPE>  (5236) 
EI-B

>  <INSTRUMENT>  (5236) 
SHIMADZU LKB-9000B

>  <ION MODE>  (5236) 
P

>  <INCHIKEY>  (5236) 
KAWPRWNCFLMHOR-UHFFFAOYSA-N

>  <FORMULA>  (5236) 
C25H52O3Si

>  <EXACT MASS>  (5236) 
428.36857205399997

>  <MW>  (5236) 
428

>  <ID>  (5236) 
JP001869

>  <CONTRIBUTOR>  (5236) 
University of Tokyo Team, {Faculty of Engineering, University of Tokyo

>  <COMMENT>  (5236) 
SMILES=CCCCCCCCCCCCCCCCCCCC(C(=O)OC)O[Si](C)(C)C
InChI=InChI=1S/C25H52O3Si/c1-6-7-8-9-10-11-12-13-14-15-16-17-18-19-20-21-22-23-24(25(26)27-2)28-29(3,4)5/h24H,6-23H2,1-5H3
computed SMILES=O=C(OC)C(O[Si](C)(C)C)CCCCCCCCCCCCCCCCCCC
accession=JP001869
date=2016.01.19 (Created 2008.10.21, modified 2011.05.06)
author=SEYAMA Y, DEPT. OF PHYSIOL. CHEMISTRY AND NUTRITION, FAC. OF MEDICINE, UNIV. OF TOKYO
license=CC BY-NC-SA
exact mass=428.36857
ionization energy=70 eV
ion type=[M]+*
computed spectral entropy=3.4227092561325043
computed normalized entropy=0.8140212771672882
SPLASH=splash10-01b9-9203100000-e68f380f6f25fd95e170
submitter=submitter = University of Tokyo Team (Faculty of Engineering, University of Tokyo)
MoNA Rating=3.75

>  <NUM PEAKS>  (5236) 
67

>  <MASS SPECTRAL PEAKS>  (5236) 
41 10.7
42 2.8
43 25.4
45 2.4
54 1.5
55 13.9
56 2.6
57 21.2
58 1.5
59 7.4
61 1.5
67 5.4
68 2.6
69 12.8
70 2.3
71 11.2
72 1.6
73 69.4
74 6.8
75 17.7
76 1.5
81 6.2
82 3.7
83 16.2
84 1.9
85 6.2
87 1.9
89 29.7
90 2.5
91 6.2
95 6.3
97 13.9
98 1.5
99 1.5
101 3.5
103 18.6
104 1.8
105 2
107 1.3
109 3.5
110 1
111 6.5
115 3.2
116 2.3
117 1.9
119 1.9
123 1.6
125 2.2
129 16.7
130 2.1
131 2.5
143 2.1
145 2.5
146 2.2
159 10.9
160 1
161 1.3
162 2
185 1.3
369 99.99
370 30.4
371 7.6
385 3.5
413 32
414 10.2
415 2.5
428 1.8

>  <PREDICTED SPECTRUM>  (5236) 
29 61
39 44
40 15
41 329
42 144
43 536
44 126
45 141
47 31
51 41
52 23
53 92
54 145
55 467
56 236
57 610
58 165
59 222
60 68
61 147
62 28
63 10
65 0
66 49
67 325
68 197
69 436
70 188
71 412
72 50
73 936
74 220
75 404
76 124
77 182
78 37
79 116
80 63
81 319
82 213
83 513
84 148
85 355
86 47
87 138
88 37
89 495
90 188
91 309
92 8
93 97
94 15
95 397
96 134
97 455
98 119
99 144
100 37
101 167
102 40
103 481
104 202
105 236
107 41
109 295
110 102
111 310
112 103
113 65
115 175
117 83
118 34
119 93
120 18
121 32
122 15
123 151
124 67
125 232
126 56
127 58
128 27
129 338
130 134
131 135
132 5
133 12
135 29
137 33
143 97
144 52
145 61
146 28
147 31
149 110
153 2
154 4
155 38
156 28
157 71
159 250
160 16
161 54
163 1
171 8
172 11
173 44
175 21
181 43
184 9
185 27
187 8
201 12
214 13
217 22
369 999
370 608
371 254
372 100
385 204
386 65
413 592
414 334
415 142
428 60
429 2

$$$$

     RDKit          2D

 27 26  0  0  0  0  0  0  0  0999 V2000
    6.7697   11.5245    0.0000 C   0  0  0  0  0  0  0  0  0  0  0  0
  -17.9120   13.7745    0.0000 C   0  0  0  0  0  0  0  0  0  0  0  0
  -17.1620   13.5736    0.0000 C   0  0  0  0  0  0  0  0  0  0  0  0
  -19.2111   13.0245    0.0000 C   0  0  0  0  0  0  0  0  0  0  0  0
  -18.6620   10.9755    0.0000 C   0  0  0  0  0  0  0  0  0  0  0  0
    5.4707   12.2745    0.0000 C   0  0  0  0  0  0  0  0  0  0  0  0
    4.1716   11.5245    0.0000 C   0  0  0  0  0  0  0  0  0  0  0  0
    2.8726   12.2745    0.0000 C   0  0  0  0  0  0  0  0  0  0  0  0
    1.5736   11.5245    0.0000 C   0  0  0  0  0  0  0  0  0  0  0  0
    0.2745   12.2745    0.0000 C   0  0  0  0  0  0  0  0  0  0  0  0
   -1.0245   11.5245    0.0000 C   0  0  0  0  0  0  0  0  0  0  0  0
   -2.3236   12.2745    0.0000 C   0  0  0  0  0  0  0  0  0  0  0  0
   -3.6226   11.5245    0.0000 C   0  0  0  0  0  0  0  0  0  0  0  0
   -4.9216   12.2745    0.0000 C   0  0  0  0  0  0  0  0  0  0  0  0
   -6.2207   11.5245    0.0000 C   0  0  0  0  0  0  0  0  0  0  0  0
   -7.5197   12.2745    0.0000 C   0  0  0  0  0  0  0  0  0  0  0  0
   -8.8187   11.5245    0.0000 C   0  0  0  0  0  0  0  0  0  0  0  0
  -10.1178   12.2745    0.0000 C   0  0  0  0  0  0  0  0  0  0  0  0
  -11.4168   11.5245    0.0000 C   0  0  0  0  0  0  0  0  0  0  0  0
  -12.7159   12.2745    0.0000 C   0  0  0  0  0  0  0  0  0  0  0  0
  -14.0149   11.5245    0.0000 C   0  0  0  0  0  0  0  0  0  0  0  0
  -15.3139   12.2745    0.0000 C   0  0  0  0  0  0  0  0  0  0  0  0
  -15.3139   13.7745    0.0000 C   0  0  0  0  0  0  0  0  0  0  0  0
  -14.0149   14.5245    0.0000 O   0  0  0  0  0  0  0  0  0  0  0  0
  -16.6130   14.5245    0.0000 O   0  0  0  0  0  0  0  0  0  0  0  0
  -16.6130   11.5245    0.0000 O   0  0  0  0  0  0  0  0  0  0  0  0
  -17.9120   12.2745    0.0000 Si  0  0  0  0  0  4  0  0  0  0  0  0
  6  1  1  0
  7  6  1  0
  8  7  1  0
  9  8  1  0
 10  9  1  0
 11 10  1  0
 12 11  1  0
 13 12  1  0
 14 13  1  0
 15 14  1  0
 16 15  1  0
 17 16  1  0
 18 17  1  0
 19 18  1  0
 20 19  1  0
 21 20  1  0
 22 21  1  0
 23 22  1  0
 24 23  2  0
 25  2  1  0
 25 23  1  0
 26 22  1  0
 27  3  1  0
 27  4  1  0
 27  5  1  0
 27 26  1  0
M  END
>  <NAME>  (5237) 
METHYL 2-TRIMETHYLSILOXYNONADECANOATE

>  <SYNONYMS>  (5237) 
METHYL (O-TRIMETHYLSILYL)-ALPHA-HYDROXYNONADECANOATE

>  <SPECTRUM TYPE>  (5237) 
MS1

>  <INSTRUMENT TYPE>  (5237) 
EI-B

>  <INSTRUMENT>  (5237) 
SHIMADZU LKB-9000B

>  <ION MODE>  (5237) 
P

>  <INCHIKEY>  (5237) 
VMAQKURDBISNDM-UHFFFAOYSA-N

>  <FORMULA>  (5237) 
C23H48O3Si

>  <EXACT MASS>  (5237) 
400.33727192599997

>  <MW>  (5237) 
400

>  <ID>  (5237) 
JP001867

>  <CONTRIBUTOR>  (5237) 
University of Tokyo Team, {Faculty of Engineering, University of Tokyo

>  <COMMENT>  (5237) 
SMILES=CCCCCCCCCCCCCCCCCC(C(=O)OC)O[Si](C)(C)C
InChI=InChI=1S/C23H48O3Si/c1-6-7-8-9-10-11-12-13-14-15-16-17-18-19-20-21-22(23(24)25-2)26-27(3,4)5/h22H,6-21H2,1-5H3
computed SMILES=O=C(OC)C(O[Si](C)(C)C)CCCCCCCCCCCCCCCCC
ion type=[M]+*
accession=JP001867
date=2016.01.19 (Created 2008.10.21, modified 2011.05.06)
author=SEYAMA Y, DEPT. OF PHYSIOL. CHEMISTRY AND NUTRITION, FAC. OF MEDICINE, UNIV. OF TOKYO
license=CC BY-NC-SA
exact mass=400.33727
ionization energy=70 eV
computed spectral entropy=3.3135988575976594
computed normalized entropy=0.7997806193677998
SPLASH=splash10-0006-9207000000-7ae9ddaf279fe36a98e2
submitter=submitter = University of Tokyo Team (Faculty of Engineering, University of Tokyo)
MoNA Rating=3.75

>  <NUM PEAKS>  (5237) 
63

>  <MASS SPECTRAL PEAKS>  (5237) 
41 9.4
42 2
43 16.1
45 2
54 1.2
55 9.8
56 2.5
57 14.1
59 5.9
61 1.2
67 4
68 1.8
69 10.3
70 2
71 6.6
72 1.1
73 52.3
74 5.3
75 13.1
76 1.2
77 1.3
81 5
82 2.9
83 10.4
84 1.4
85 3.8
87 1.6
89 24.3
90 2
91 5.4
95 5
97 12
101 2.4
103 14.8
104 1.5
105 2.1
107 1.1
109 2.8
111 5.4
115 2.7
116 1.7
117 1.3
119 2
123 1.1
125 1.7
129 12.9
130 1.6
131 2.2
143 1.6
145 1.6
146 1.8
149 1.1
159 8.1
162 1.4
207 1.8
341 99.99
342 28.3
343 6.8
357 3.6
385 34.6
386 9.2
387 2.1
400 1.1

>  <PREDICTED SPECTRUM>  (5237) 
29 56
39 32
40 7
41 310
42 131
43 503
44 72
45 180
46 10
47 49
51 20
52 12
53 97
54 135
55 453
56 220
57 570
58 170
59 265
60 55
61 142
62 26
63 26
66 43
67 322
68 184
69 431
70 192
71 377
72 77
73 970
74 212
75 411
76 118
77 176
78 18
79 93
80 67
81 297
82 201
83 513
84 143
85 343
86 55
87 127
89 534
90 197
91 316
92 1
93 109
94 43
95 368
96 115
97 438
98 131
99 145
100 48
101 167
102 66
103 465
104 185
105 201
107 68
109 286
110 95
111 307
112 102
113 103
115 214
116 83
117 93
119 51
123 106
124 57
125 236
126 66
127 74
128 48
129 330
130 113
131 155
132 44
133 70
135 59
143 40
144 17
145 88
146 65
147 42
149 102
153 64
155 10
156 28
157 44
158 3
159 181
161 18
167 26
173 35
185 3
186 34
187 39
189 35
199 11
201 30
217 10
231 9
341 999
342 618
343 256
344 101
357 199
358 73
385 597
386 354
387 166
400 44
401 3

$$$$

     RDKit          2D

 23 22  0  0  0  0  0  0  0  0999 V2000
  -19.4856   11.2500    0.0000 C   0  0  0  0  0  0  0  0  0  0  0  0
    6.4952   11.2500    0.0000 C   0  0  0  0  0  0  0  0  0  0  0  0
  -18.1865   10.5000    0.0000 C   0  0  0  0  0  0  0  0  0  0  0  0
    5.1962   10.5000    0.0000 C   0  0  0  0  0  0  0  0  0  0  0  0
  -16.8875   11.2500    0.0000 C   0  0  0  0  0  0  0  0  0  0  0  0
  -15.5885   10.5000    0.0000 C   0  0  0  0  0  0  0  0  0  0  0  0
  -14.2894   11.2500    0.0000 C   0  0  0  0  0  0  0  0  0  0  0  0
  -12.9904   10.5000    0.0000 C   0  0  0  0  0  0  0  0  0  0  0  0
  -11.6913   11.2500    0.0000 C   0  0  0  0  0  0  0  0  0  0  0  0
  -10.3923   10.5000    0.0000 C   0  0  0  0  0  0  0  0  0  0  0  0
   -9.0933   11.2500    0.0000 C   0  0  0  0  0  0  0  0  0  0  0  0
   -7.7942   10.5000    0.0000 C   0  0  0  0  0  0  0  0  0  0  0  0
   -6.4952   11.2500    0.0000 C   0  0  0  0  0  0  0  0  0  0  0  0
   -5.1962   10.5000    0.0000 C   0  0  0  0  0  0  0  0  0  0  0  0
   -3.8971   11.2500    0.0000 C   0  0  0  0  0  0  0  0  0  0  0  0
   -2.5981   10.5000    0.0000 C   0  0  0  0  0  0  0  0  0  0  0  0
   -1.2990   11.2500    0.0000 C   0  0  0  0  0  0  0  0  0  0  0  0
    1.2990   11.2500    0.0000 C   0  0  0  0  0  0  0  0  0  0  0  0
    0.0000   10.5000    0.0000 C   0  0  0  0  0  0  0  0  0  0  0  0
    2.5981   10.5000    0.0000 C   0  0  0  0  0  0  0  0  0  0  0  0
    0.0000    9.0000    0.0000 O   0  0  0  0  0  0  0  0  0  0  0  0
    2.5981    9.0000    0.0000 O   0  0  0  0  0  0  0  0  0  0  0  0
    3.8971   11.2500    0.0000 O   0  0  0  0  0  0  0  0  0  0  0  0
  3  1  1  0
  4  2  1  0
  5  3  1  0
  6  5  1  0
  7  6  1  0
  8  7  1  0
  9  8  1  0
 10  9  1  0
 11 10  1  0
 12 11  1  0
 13 12  1  0
 14 13  1  0
 15 14  1  0
 16 15  1  0
 17 16  1  0
 19 17  1  0
 19 18  1  0
 20 18  1  0
 21 19  1  0
 22 20  2  0
 23  4  1  0
 23 20  1  0
M  END
>  <NAME>  (5238) 
ETHYL 3-HYDROXYOCTADECANOATE

>  <SYNONYMS>  (5238) 
ETHYL BETA-HYDROXYSTEARATE

>  <SPECTRUM TYPE>  (5238) 
MS1

>  <INSTRUMENT TYPE>  (5238) 
EI-B

>  <INSTRUMENT>  (5238) 
SHIMADZU QP-1000

>  <ION MODE>  (5238) 
P

>  <INCHIKEY>  (5238) 
BXRPWBZYLZSTNL-UHFFFAOYSA-N

>  <FORMULA>  (5238) 
C20H40O3

>  <EXACT MASS>  (5238) 
328.29774513999996

>  <MW>  (5238) 
328

>  <ID>  (5238) 
JP001865

>  <CONTRIBUTOR>  (5238) 
University of Tokyo Team, {Faculty of Engineering, University of Tokyo

>  <COMMENT>  (5238) 
SMILES=CCCCCCCCCCCCCCCC(O)CC(=O)OCC
InChI=InChI=1S/C20H40O3/c1-3-5-6-7-8-9-10-11-12-13-14-15-16-17-19(21)18-20(22)23-4-2/h19,21H,3-18H2,1-2H3
computed SMILES=O=C(OCC)CC(O)CCCCCCCCCCCCCCC
accession=JP001865
date=2016.01.19 (Created 2008.10.21, modified 2011.05.06)
author=SEYAMA Y, DEPT. OF PHYSIOL. CHEMISTRY AND NUTRITION, FAC. OF MEDICINE, UNIV. OF TOKYO
license=CC BY-NC-SA
exact mass=328.29775
ionization energy=70 eV
ion type=[M]+*
computed spectral entropy=3.378492953917633
computed normalized entropy=0.806389347558397
SPLASH=splash10-066u-9200000000-fb8fee5485b6ce2a5a9d
submitter=submitter = University of Tokyo Team (Faculty of Engineering, University of Tokyo)
MoNA Rating=3.75

>  <NUM PEAKS>  (5238) 
66

>  <MASS SPECTRAL PEAKS>  (5238) 
39 3.2
40 1.3
41 36
42 11.1
43 74
44 8.3
45 9
47 2.6
53 1.7
54 4.5
55 32.1
56 9.3
57 35.2
58 3.3
59 1.5
60 7
61 7.3
67 8.6
68 7.5
69 17.4
70 13.2
71 37.5
72 2.1
73 7.1
75 7.4
79 1
81 8.4
82 7.8
83 11.6
84 5.5
85 6.1
86 1.1
87 1.5
88 20.5
89 22.7
95 6.1
96 8.2
97 8.4
98 4
99 2.9
101 5.2
109 2.9
110 2.6
111 3.6
112 1.3
114 1.1
115 3.3
116 1.1
117 99.99
118 5.4
119 1.3
123 1.8
124 1.4
125 1.3
127 1.6
128 1.2
147 1.2
149 3
155 1.4
213 1.3
222 2.5
239 1.2
264 3.2
265 2.1
281 0.8
310 0.9

>  <PREDICTED SPECTRUM>  (5238) 
17 6
27 71
28 30
29 144
30 7
39 54
40 10
41 234
42 167
43 326
44 152
45 141
47 34
53 94
54 96
55 277
56 148
57 337
58 119
59 38
60 34
61 123
62 28
63 9
67 160
68 163
69 225
70 205
71 301
72 105
73 64
74 39
75 184
77 9
79 44
80 62
81 123
82 61
83 244
84 144
85 154
86 69
87 88
88 327
89 435
90 130
91 28
93 18
94 6
95 125
96 142
97 210
98 120
99 89
100 31
101 193
102 12
103 33
107 7
109 74
110 15
111 118
112 44
113 55
115 3
116 50
117 999
118 282
123 75
124 16
125 49
126 4
127 67
131 19
132 19
137 28
138 9
139 21
140 39
141 52
143 46
166 97
183 40
195 45
213 34
215 30
221 37
222 166
223 92
236 28
239 27
241 21
242 1
264 190
310 113
311 75

$$$$

     RDKit          2D

 31 34  0  0  1  0  0  0  0  0999 V2000
    3.1099    4.4913    0.0000 C   0  0  0  0  0  0  0  0  0  0  0  0
   -1.6775    0.7300    0.0000 C   0  0  0  0  0  0  0  0  0  0  0  0
    2.3740    2.9721    0.0000 C   0  0  0  0  0  0  0  0  0  0  0  0
    9.4424    7.1652    0.0000 C   0  0  0  0  0  0  0  0  0  0  0  0
    5.5808    3.6884    0.0000 C   0  0  0  0  0  0  0  0  0  0  0  0
   -0.3800   -3.0200    0.0000 C   0  0  0  0  0  0  0  0  0  0  0  0
    0.9200   -2.2700    0.0000 C   0  0  0  0  0  0  0  0  0  0  0  0
    4.5300    0.7300    0.0000 C   0  0  0  0  0  0  0  0  0  0  0  0
    3.6500   -0.4800    0.0000 C   0  0  0  0  0  0  0  0  0  0  0  0
    6.0443    5.1150    0.0000 C   0  0  0  0  0  0  0  0  0  0  0  0
   -4.2700   -0.7700    0.0000 C   0  0  0  0  0  0  0  0  0  0  0  0
   -2.9700   -0.0200    0.0000 C   0  0  0  0  0  0  0  0  0  0  0  0
   -2.9700   -3.0200    0.0000 C   0  0  0  0  0  0  0  0  0  0  0  0
   -0.3800    1.4800    0.0000 C   0  0  0  0  0  0  0  0  0  0  0  0
   -0.8927    2.8896    0.0000 H   0  0  0  0  0  0  0  0  0  0  0  0
   -1.8800    1.4802    0.0000 H   0  0  0  0  0  0  0  0  0  0  0  0
    4.1136    3.3766    0.0000 C   0  0  0  0  0  0  0  0  0  0  0  0
   -1.6800   -2.2700    0.0000 C   0  0  0  0  0  0  0  0  0  0  0  0
   -4.2700   -2.2700    0.0000 C   0  0  0  0  0  0  0  0  0  0  0  0
    0.9200   -0.7700    0.0000 C   0  0  0  0  0  0  0  0  0  0  0  0
    3.6500    1.9500    0.0000 C   0  0  0  0  0  0  0  0  0  0  0  0
    2.2200   -0.0200    0.0000 C   0  0  0  0  0  0  0  0  0  0  0  0
   -0.3800   -0.0200    0.0000 C   0  0  0  0  0  0  0  0  0  0  0  0
    0.9200    2.2300    0.0000 C   0  0  0  0  0  0  0  0  0  0  0  0
    7.5116    5.4268    0.0000 C   0  0  0  0  0  0  0  0  0  0  0  0
   -1.6800   -0.7700    0.0000 C   0  0  0  0  0  0  0  0  0  0  0  0
    2.2200    1.4800    0.0000 C   0  0  0  0  0  0  0  0  0  0  0  0
   -5.5689   -3.0202    0.0000 O   0  0  0  0  0  0  0  0  0  0  0  0
    0.9200    3.7300    0.0000 O   0  0  0  0  0  0  0  0  0  0  0  0
    8.5152    4.3121    0.0000 O   0  0  0  0  0  0  0  0  0  0  0  0
    7.9751    6.8534    0.0000 O   0  0  0  0  0  0  0  0  0  0  0  0
 14 15  1  0
 14 16  1  0
  7  6  1  0
  9  8  1  0
 10  5  1  0
 12 11  1  0
 17  1  1  6
 17  5  1  0
 18  6  1  6
 18 13  1  0
 19 11  1  0
 19 13  1  0
 20  7  1  6
 21  8  1  1
 21 17  1  0
 22  9  1  1
 22 20  1  0
 23 14  1  1
 23 20  1  0
 24 14  1  0
 25 10  1  0
 26  2  1  1
 26 12  1  0
 26 18  1  0
 26 23  1  0
 27  3  1  1
 27 21  1  0
 27 22  1  0
 27 24  1  0
 19 28  1  6
 29 24  2  0
 30 25  2  0
 31  4  1  0
 31 25  1  0
M  ISO  2  15   2  16   2
M  END
>  <NAME>  (5239) 
METHYL 3ALPHA-HYDROXY-12-OXO-5BETA-CHOLAN-24-OATE (11,11-D2)

>  <SYNONYMS>  (5239) 
METHYL 12-KETOLITHOCHOLATE

>  <SPECTRUM TYPE>  (5239) 
MS1

>  <INSTRUMENT TYPE>  (5239) 
EI-B

>  <INSTRUMENT>  (5239) 
SHIMADZU QP-1000

>  <ION MODE>  (5239) 
P

>  <INCHIKEY>  (5239) 
BNXKKGNFJUFIND-XGZZKPOLSA-N

>  <FORMULA>  (5239) 
C25H40O4

>  <EXACT MASS>  (5239) 
406.305213252

>  <MW>  (5239) 
406

>  <ID>  (5239) 
JP001864

>  <CONTRIBUTOR>  (5239) 
University of Tokyo Team, {Faculty of Engineering, University of Tokyo

>  <COMMENT>  (5239) 
SMILES=C(C1(C)4)([H])(CC(O)CC4)CCC(C2([H])3)(C(C(C(C(C([H])(CC3)C([H])(C)CCC(=O)OC)2C)=O)([2H])[2H])1[H])[H]
InChI=InChI=1S/C25H40O4/c1-15(5-10-23(28)29-4)19-8-9-20-18-7-6-16-13-17(26)11-12-24(16,2)21(18)14-22(27)25(19,20)3/h15-21,26H,5-14H2,1-4H3/t15-,16-,17-,18+,19-,20+,21+,24+,25-/m1/s1/i14D2
computed SMILES=[H]C1([H])C(=O)C2(C)C(CCC2C3CCC4CC(O)CCC4(C)C31)C(C)CCC(=O)OC
accession=JP001864
date=2016.01.19 (Created 2008.10.21, modified 2011.05.06)
author=SEYAMA Y, DEPT. OF PHYSIOL. CHEMISTRY AND NUTRITION, FAC. OF MEDICINE, UNIV. OF TOKYO
license=CC BY-NC-SA
exact mass=404.29266
ionization energy=70 eV
ion type=[M]+*
computed spectral entropy=4.845742076649348
computed normalized entropy=0.866706020518507
SPLASH=splash10-0a5c-9641000000-6a71de607f21827380bc
submitter=submitter = University of Tokyo Team (Faculty of Engineering, University of Tokyo)
MoNA Rating=3.75

>  <NUM PEAKS>  (5239) 
268

>  <MASS SPECTRAL PEAKS>  (5239) 
39 8.1
40 11.1
41 61.2
42 15.3
43 73.5
44 10.9
45 18.6
46 1.3
53 14.2
54 8.6
55 99.99
56 19.2
57 28.6
58 3.7
59 21.4
60 2.6
61 1.1
65 5
66 3.5
67 44.4
68 15.3
69 34.2
70 9.9
71 9.9
72 1.6
73 18.7
74 8.9
75 1.1
77 12.3
78 5.6
79 42.3
80 15.6
81 77.9
82 23.2
83 31.5
84 6.4
85 6.1
86 1.4
87 3.6
88 1.4
91 24.6
92 11.1
93 39.4
94 16.3
95 37.4
96 14.2
97 14.7
98 5.4
99 6.3
100 1.6
101 2.6
103 1.3
104 1.4
105 20.2
106 11.4
107 35.2
108 15.9
109 39.9
110 12.2
111 12.2
112 4.2
113 2.8
114 1.4
115 7.3
116 4.5
117 4.8
118 2.8
119 12.6
120 8.7
121 26.5
122 35.2
123 30.9
124 12.9
125 14.9
126 2.8
127 2.1
128 2
129 3.5
130 2.4
131 6.6
132 5
133 11.2
134 6.3
135 17.5
136 11.8
137 13.8
138 6.1
139 4.4
140 1.4
141 4
142 1.8
143 3.9
144 4
145 9.6
146 6.4
147 22.2
149 20
150 7.9
151 17.6
152 3
153 3
154 9.7
155 3.8
156 3.5
157 4.2
158 4.6
159 9.1
160 5.2
161 7.6
162 5.5
163 12
165 10.1
166 2.1
167 1.4
169 1
170 1.7
171 3.2
172 3.3
173 6.3
174 4.3
175 6.5
176 3.6
177 8
178 2.2
179 2.5
180 1.2
181 1.3
183 1.3
184 1
185 2.8
186 3
187 4.4
188 3.1
189 6.7
191 10.4
192 2.5
193 1.6
194 1.5
195 1.7
197 1.4
198 2.1
199 2.7
200 2.3
201 3.3
202 2
203 3.8
204 2.3
205 7.7
206 2.2
207 1.3
211 1.2
212 1.9
213 4.6
214 4.6
215 14.2
216 4.3
217 3.4
218 2.2
219 1.3
220 1.1
221 1.2
223 1.7
224 1.2
225 1.2
226 1
227 2.7
228 2.1
229 5.2
230 20.2
231 18.4
233 94
235 2.4
236 1
237 1
239 1
240 1.1
241 1.8
242 1.8
243 2.2
244 2
245 5
246 4.6
247 3.8
249 10.8
251 70.2
253 2.9
254 6.6
255 16.4
256 3.5
257 2.1
259 6.2
260 2.3
261 2.1
262 1.8
263 6.8
264 6.6
265 2
266 1.3
271 3
272 3
273 12.9
274 2.6
275 1.9
277 8.7
278 5.4
279 2.9
280 1.8
281 1.5
282 1.3
283 3.3
284 1.3
285 1.1
287 1
289 1.7
290 1.9
291 20.8
293 1.3
294 1.1
295 1.6
296 2
297 3.9
298 1.5
299 1.5
300 1.1
301 3.4
302 1.7
303 1.1
310 1
311 5.2
312 2
313 2.3
314 2
315 6.7
316 1.8
319 2
323 1.6
327 1
328 1.4
329 1.1
331 1.9
332 2
333 18
339 1.3
340 1.5
341 4.3
342 1.4
345 1.6
346 1.4
355 1.7
356 2
357 3.7
358 1.2
359 1
369 1
370 2.1
371 1
372 1.1
373 7.1
374 3
375 3.7
376 1.1
388 13.4
389 4.2
391 1.3
404 2.6
406 74.1
407 24.1
408 4.4

>  <PREDICTED SPECTRUM>  (5239) 
32 13
39 59
40 35
41 755
42 161
43 788
44 222
45 237
46 14
47 5
49 46
50 67
51 120
52 21
53 387
54 124
55 999
56 180
57 485
58 70
59 552
60 111
61 72
63 44
65 216
66 49
67 663
68 288
69 685
70 81
71 196
72 1
73 239
74 272
75 185
76 22
77 424
78 118
79 637
80 167
81 899
82 275
83 526
84 217
85 255
86 64
87 182
88 57
91 555
92 137
93 528
94 154
95 623
96 221
97 368
98 94
99 179
100 39
101 240
102 29
103 167
104 123
105 700
106 212
107 667
108 371
109 632
110 375
111 303
112 98
113 85
114 55
115 227
116 119
117 294
118 173
119 404
120 121
121 797
122 393
123 454
124 236
125 244
126 76
127 149
128 56
129 121
130 57
131 289
132 105
133 350
134 163
135 559
136 185
137 270
138 169
139 117
140 95
141 169
142 101
143 239
144 45
145 365
146 146
147 456
148 114
149 383
150 165
151 246
152 135
153 115
154 72
155 113
156 97
157 193
158 55
159 451
160 107
161 400
162 97
163 258
164 68
165 160
166 84
167 150
171 268
172 32
173 348
174 141
175 300
176 150
177 209
178 117
179 254
180 102
181 98
182 14
183 116
184 6
185 214
186 20
187 229
188 108
189 183
190 20
191 175
192 83
193 145
194 50
195 99
196 25
197 81
199 213
201 183
202 28
203 191
204 75
205 177
206 43
207 61
209 27
210 28
211 120
212 37
213 272
214 161
215 169
216 0
217 155
218 75
219 180
220 93
221 46
223 58
225 48
227 59
228 80
229 394
230 100
231 523
232 189
233 48
234 15
235 18
239 44
241 46
243 112
245 131
247 280
248 168
249 416
250 167
251 175
252 5
253 188
254 36
255 91
256 42
257 89
258 5
259 74
260 22
261 144
262 8
263 143
264 146
265 140
266 74
267 162
269 15
271 82
273 257
274 137
275 48
277 88
278 37
279 17
281 83
283 50
287 1
291 27
292 97
293 99
294 63
295 109
297 23
299 60
301 118
305 39
306 17
313 105
314 75
315 66
316 80
317 14
328 28
329 131
330 16
331 119
332 22
333 340
334 139
335 38
339 126
341 110
347 86
348 31
355 35
356 162
357 64
358 103
360 32
362 37
373 118
374 266
375 93
376 101
388 383
389 161
390 59
391 164
392 12
404 81
406 681
407 198
408 14
409 10

$$$$

     RDKit          2D

 33 37  0  0  1  0  0  0  0  0999 V2000
    9.5592    7.5098    0.0000 C   0  0  0  0  0  0  0  0  0  0  0  0
    7.0863    8.3065    0.0000 C   0  0  0  0  0  0  0  0  0  0  0  0
    3.2335    4.8199    0.0000 C   0  0  0  0  0  0  0  0  0  0  0  0
    2.5172    3.3117    0.0000 C   0  0  0  0  0  0  0  0  0  0  0  0
   -1.5400    1.0700    0.0000 C   0  0  0  0  0  0  0  0  0  0  0  0
   -6.9387   -4.1804    0.0000 C   0  0  0  0  0  0  0  0  0  0  0  0
   -5.4384   -5.6802    0.0000 C   0  0  0  0  0  0  0  0  0  0  0  0
   -3.9387   -4.1800    0.0000 C   0  0  0  0  0  0  0  0  0  0  0  0
    6.1664    5.4510    0.0000 C   0  0  0  0  0  0  0  0  0  0  0  0
    7.6328    5.7665    0.0000 C   0  0  0  0  0  0  0  0  0  0  0  0
    5.7064    4.0233    0.0000 C   0  0  0  0  0  0  0  0  0  0  0  0
    4.6700    1.0700    0.0000 C   0  0  0  0  0  0  0  0  0  0  0  0
    3.7800   -0.1400    0.0000 C   0  0  0  0  0  0  0  0  0  0  0  0
   -4.1400   -0.4300    0.0000 C   0  0  0  0  0  0  0  0  0  0  0  0
   -0.2400    1.8200    0.0000 C   0  0  0  0  0  0  0  0  0  0  0  0
    1.0600    2.5700    0.0000 C   0  0  0  0  0  0  0  0  0  0  0  0
   -2.8400    0.3200    0.0000 C   0  0  0  0  0  0  0  0  0  0  0  0
    1.0600   -1.9300    0.0000 C   0  0  0  0  0  0  0  0  0  0  0  0
   -2.8400   -2.6800    0.0000 C   0  0  0  0  0  0  0  0  0  0  0  0
    8.0928    7.1942    0.0000 C   0  0  0  0  0  0  0  0  0  0  0  0
    4.2400    3.7077    0.0000 C   0  0  0  0  0  0  0  0  0  0  0  0
   -4.1400   -1.9300    0.0000 C   0  0  0  0  0  0  0  0  0  0  0  0
    1.0600   -0.4300    0.0000 C   0  0  0  0  0  0  0  0  0  0  0  0
    3.7800    2.2800    0.0000 C   0  0  0  0  0  0  0  0  0  0  0  0
    2.3600    0.3200    0.0000 C   0  0  0  0  0  0  0  0  0  0  0  0
   -0.2400    0.3200    0.0000 C   0  0  0  0  0  0  0  0  0  0  0  0
   -0.2400   -2.6800    0.0000 C   0  0  0  0  0  0  0  0  0  0  0  0
    2.3600    1.8200    0.0000 C   0  0  0  0  0  0  0  0  0  0  0  0
   -1.5400   -0.4300    0.0000 C   0  0  0  0  0  0  0  0  0  0  0  0
   -1.5400   -1.9300    0.0000 C   0  0  0  0  0  0  0  0  0  0  0  0
   -1.5400   -3.4300    0.0000 O   0  0  0  0  0  0  0  0  0  0  0  0
   -5.4389   -2.6802    0.0000 O   0  0  0  0  0  0  0  0  0  0  0  0
   -5.4387   -4.1802    0.0000 Si  0  0  0  0  0  4  0  0  0  0  0  0
 10  9  1  0
 11  9  1  0
 13 12  1  0
 16 15  1  0
 17 14  1  0
 20  1  1  0
 20  2  1  0
 20 10  1  0
 21  3  1  6
 21 11  1  0
 22 14  1  0
 22 19  1  0
 23 18  1  6
 24 12  1  1
 24 21  1  0
 25 13  1  1
 25 23  1  0
 26 15  1  1
 26 23  1  0
 27 18  1  6
 28  4  1  1
 28 16  1  0
 28 24  1  0
 28 25  1  0
 29  5  1  1
 29 17  1  0
 29 26  1  0
 30 19  1  1
 30 27  1  0
 30 29  1  0
 27 31  1  0
 30 31  1  0
 22 32  1  1
 33  6  1  0
 33  7  1  0
 33  8  1  0
 33 32  1  0
M  END
>  <NAME>  (5240) 
3BETA-TRIMETHYLSILOXY-5ALPHA,6ALPHA-EPOXYCHOLESTANE

>  <SYNONYMS>  (5240) 
TRIMETHYLSILYL ALPHA-EPOXYCHOLESTEROL

>  <SPECTRUM TYPE>  (5240) 
MS1

>  <INSTRUMENT TYPE>  (5240) 
EI-B

>  <INSTRUMENT>  (5240) 
SHIMADZU QP-1000

>  <ION MODE>  (5240) 
P

>  <INCHIKEY>  (5240) 
AZHUYKSUWGBLAU-ROMNCUSUSA-N

>  <FORMULA>  (5240) 
C30H54O2Si

>  <EXACT MASS>  (5240) 
474.389307498

>  <MW>  (5240) 
474

>  <ID>  (5240) 
JP001863

>  <CONTRIBUTOR>  (5240) 
University of Tokyo Team, {Faculty of Engineering, University of Tokyo

>  <COMMENT>  (5240) 
SMILES=[H]C(C3)(C4([H])5)C([H])(CCC(C)(C(C(CCCC(C)C)C)CC5)4)C(C)(C(C23)(O2)1)CCC(C1)O[Si](C)(C)C
InChI=InChI=1S/C30H54O2Si/c1-20(2)10-9-11-21(3)24-12-13-25-23-18-27-30(31-27)19-22(32-33(6,7)8)14-17-29(30,5)26(23)15-16-28(24,25)4/h20-27H,9-19H2,1-8H3/t21-,22+,23+,24-,25+,26+,27+,28-,29-,30+/m1/s1
computed SMILES=O1C2CC3C4CCC(C(C)CCCC(C)C)C4(C)CCC3C5(C)CCC(O[Si](C)(C)C)CC125
exact mass=474.38931
accession=JP001863
date=2016.01.19 (Created 2008.10.21, modified 2011.05.06)
author=SEYAMA Y, DEPT. OF PHYSIOL. CHEMISTRY AND NUTRITION, FAC. OF MEDICINE, UNIV. OF TOKYO
license=CC BY-NC-SA
ionization energy=70 eV
ion type=[M]+*
computed spectral entropy=4.616306295807901
computed normalized entropy=0.8633277466908338
SPLASH=splash10-0avj-9710000000-05b0457dce95aa8c567c
submitter=submitter = University of Tokyo Team (Faculty of Engineering, University of Tokyo)
MoNA Rating=3.75

>  <NUM PEAKS>  (5240) 
210

>  <MASS SPECTRAL PEAKS>  (5240) 
53 7
54 2.5
55 86.3
56 12.6
57 81.6
58 4.1
59 8.7
60 1.1
61 5.6
65 3.2
66 1.9
67 41.7
68 8.7
69 47.4
70 6.9
71 33
72 3.4
73 99.99
74 9.2
75 58.8
76 4.6
77 15.2
78 2.9
79 34.9
80 6.5
81 54.8
82 8
83 23.2
84 3.1
85 6.5
87 1
89 2.6
91 30.8
92 8.4
93 54.2
94 20.1
95 61.7
96 40
97 14.4
98 1.5
99 2.8
101 11.2
102 1.2
103 5.2
104 1.7
105 23.6
106 7.9
107 32.4
108 15.6
109 26.4
110 13.3
111 7.8
112 1.2
113 2
115 4.5
116 3.8
117 11.8
118 7.3
119 20.3
120 16
121 24.7
122 14.1
123 30
124 4.2
125 3.2
127 3.8
128 1.8
129 18.3
130 5.5
131 16.7
132 5.5
133 21.9
134 14.1
135 31.1
136 12.9
137 7.8
138 1.9
139 1.6
141 2.8
142 6
143 20.8
144 6.4
145 15.1
146 4.8
147 14
148 5.4
149 12.6
150 3.7
151 3.9
152 1
153 1.4
154 1
155 9.9
156 4.9
157 11
158 7.4
159 17.2
160 4.9
161 12.7
162 4.1
163 12.5
164 3.9
165 3.3
167 1.7
168 2.4
169 8.6
170 3.1
171 6.5
172 2.8
173 8.2
174 2.8
175 7.6
176 3.3
177 5.2
178 1.4
179 2.7
180 1.1
181 11.2
182 6.3
183 9
184 2.7
185 6.3
186 4.7
187 5.6
188 1.7
189 3.5
190 1.2
191 3.1
192 1
193 4
194 1.2
195 2.4
196 1.2
197 18.1
198 4.9
199 6.1
200 3.9
201 8.4
202 1.9
203 3.7
205 1.7
206 3
207 8.8
208 2.8
209 2.3
210 1
211 11
212 3.1
213 4.4
214 1.3
215 2.8
216 2
217 2.8
219 3.2
221 1.6
225 2.1
226 2.2
227 3.9
228 1.1
229 3.1
230 1.1
231 1.5
233 1.9
239 1.5
243 3.2
244 1.1
245 2.3
246 1.8
247 5.6
248 2
249 2.5
251 1.1
253 4.9
254 1.3
255 1.1
259 1.5
260 1.7
261 1.6
262 1.5
271 3.5
272 1
273 2.3
274 2
275 3.1
276 1.1
281 1.6
288 2
289 1.6
291 2.3
299 1
325 1.2
329 1.1
340 1.2
341 2.8
342 1.2
343 1.3
351 2.5
356 4.8
357 1.6
366 3.8
367 2.5
369 2.9
370 1
384 6.6
385 2.1
445 1.1
456 1
459 1.3
474 6.6
475 2.5

>  <PREDICTED SPECTRUM>  (5240) 
29 10
36 8
39 102
40 60
41 695
42 284
43 851
44 272
45 329
46 109
47 156
48 8
49 64
50 89
51 164
52 122
53 360
54 182
55 999
56 364
57 844
58 189
59 352
60 162
61 170
62 60
63 80
64 79
65 277
66 229
67 710
68 334
69 858
70 385
71 624
72 170
73 827
74 232
75 629
76 161
77 526
78 240
79 744
80 355
81 840
82 374
83 661
84 402
85 403
86 76
87 81
89 148
91 602
92 329
93 786
94 463
95 873
96 314
97 525
98 214
99 227
100 24
101 223
103 259
104 154
105 679
106 449
107 726
108 510
109 602
110 369
111 469
112 220
113 195
115 267
116 180
117 541
118 327
119 593
120 397
121 619
122 377
123 497
124 222
125 271
126 138
127 187
128 145
129 574
130 256
131 483
132 316
133 519
134 417
135 499
136 239
137 313
138 128
139 164
140 92
141 198
142 186
143 497
144 194
145 539
146 364
147 509
148 253
149 342
150 174
151 286
152 211
153 231
154 114
155 286
156 150
157 260
158 175
159 466
160 314
161 428
162 232
163 368
164 164
165 245
166 114
167 179
168 116
169 290
170 80
171 193
172 194
173 340
174 238
175 329
176 215
177 276
178 154
179 150
180 44
181 251
182 91
183 166
184 42
185 244
186 114
187 303
188 119
189 173
190 66
191 218
192 101
193 280
194 137
195 215
196 162
197 268
198 144
199 229
200 84
201 276
202 76
203 175
204 145
205 145
206 130
207 305
208 131
209 178
210 39
211 217
212 112
213 364
214 186
215 310
216 148
217 129
218 45
219 127
220 26
221 120
223 85
225 152
226 122
227 243
228 174
229 204
230 115
231 179
232 98
233 133
234 81
235 69
237 8
239 86
241 118
242 117
243 140
244 176
245 128
246 42
247 332
248 106
249 87
250 21
251 85
252 56
253 169
254 58
255 113
256 57
257 110
258 39
259 50
260 20
261 45
262 72
263 3
266 17
267 30
269 16
270 34
271 122
272 68
273 58
274 40
275 111
276 47
281 66
284 33
285 6
286 38
287 41
288 5
289 76
290 27
291 19
295 7
296 64
297 67
299 48
301 46
302 69
303 27
312 70
313 10
314 3
318 16
327 115
328 73
329 134
330 22
331 20
337 5
338 9
339 38
340 54
341 81
342 102
343 54
344 58
345 13
351 149
356 78
361 5
365 11
366 143
367 119
368 19
369 310
370 169
372 5
375 11
384 256
385 138
407 0
445 53
446 9
458 23
459 145
460 58
474 224
475 111
476 51

$$$$

     RDKit          2D

 36 35  0  0  0  0  0  0  0  0999 V2000
   11.0418   19.1250    0.0000 C   0  0  0  0  0  0  0  0  0  0  0  0
  -33.1255   19.1250    0.0000 C   0  0  0  0  0  0  0  0  0  0  0  0
    9.7428   19.8750    0.0000 C   0  0  0  0  0  0  0  0  0  0  0  0
  -31.8264   19.8750    0.0000 C   0  0  0  0  0  0  0  0  0  0  0  0
    8.4437   19.1250    0.0000 C   0  0  0  0  0  0  0  0  0  0  0  0
  -30.5274   19.1250    0.0000 C   0  0  0  0  0  0  0  0  0  0  0  0
    7.1447   19.8750    0.0000 C   0  0  0  0  0  0  0  0  0  0  0  0
  -29.2284   19.8750    0.0000 C   0  0  0  0  0  0  0  0  0  0  0  0
    5.8457   19.1250    0.0000 C   0  0  0  0  0  0  0  0  0  0  0  0
  -27.9293   19.1250    0.0000 C   0  0  0  0  0  0  0  0  0  0  0  0
    4.5466   19.8750    0.0000 C   0  0  0  0  0  0  0  0  0  0  0  0
  -26.6303   19.8750    0.0000 C   0  0  0  0  0  0  0  0  0  0  0  0
    3.2476   19.1250    0.0000 C   0  0  0  0  0  0  0  0  0  0  0  0
  -25.3312   19.1250    0.0000 C   0  0  0  0  0  0  0  0  0  0  0  0
    1.9486   19.8750    0.0000 C   0  0  0  0  0  0  0  0  0  0  0  0
  -24.0322   19.8750    0.0000 C   0  0  0  0  0  0  0  0  0  0  0  0
    0.6495   19.1250    0.0000 C   0  0  0  0  0  0  0  0  0  0  0  0
   -0.6495   19.8750    0.0000 C   0  0  0  0  0  0  0  0  0  0  0  0
   -1.9486   19.1250    0.0000 C   0  0  0  0  0  0  0  0  0  0  0  0
  -22.7332   19.1250    0.0000 C   0  0  0  0  0  0  0  0  0  0  0  0
   -3.2476   19.8750    0.0000 C   0  0  0  0  0  0  0  0  0  0  0  0
  -21.4341   19.8750    0.0000 C   0  0  0  0  0  0  0  0  0  0  0  0
   -4.5466   19.1250    0.0000 C   0  0  0  0  0  0  0  0  0  0  0  0
  -20.1351   19.1250    0.0000 C   0  0  0  0  0  0  0  0  0  0  0  0
   -5.8457   19.8750    0.0000 C   0  0  0  0  0  0  0  0  0  0  0  0
  -18.8361   19.8750    0.0000 C   0  0  0  0  0  0  0  0  0  0  0  0
   -7.1447   19.1250    0.0000 C   0  0  0  0  0  0  0  0  0  0  0  0
  -17.5370   19.1250    0.0000 C   0  0  0  0  0  0  0  0  0  0  0  0
   -8.4437   19.8750    0.0000 C   0  0  0  0  0  0  0  0  0  0  0  0
  -16.2380   19.8750    0.0000 C   0  0  0  0  0  0  0  0  0  0  0  0
   -9.7428   19.1250    0.0000 C   0  0  0  0  0  0  0  0  0  0  0  0
  -14.9389   19.1250    0.0000 C   0  0  0  0  0  0  0  0  0  0  0  0
  -11.0418   19.8750    0.0000 C   0  0  0  0  0  0  0  0  0  0  0  0
  -13.6399   19.8750    0.0000 C   0  0  0  0  0  0  0  0  0  0  0  0
  -13.6399   21.3750    0.0000 O   0  0  0  0  0  0  0  0  0  0  0  0
  -12.3409   19.1250    0.0000 O   0  0  0  0  0  0  0  0  0  0  0  0
  3  1  1  0
  4  2  1  0
  5  3  1  0
  6  4  1  0
  7  5  1  0
  8  6  1  0
  9  7  1  0
 10  8  1  0
 11  9  1  0
 12 10  1  0
 13 11  1  0
 14 12  1  0
 15 13  1  0
 16 14  1  0
 17 15  1  0
 18 17  1  0
 19 18  1  0
 20 16  1  0
 21 19  1  0
 22 20  1  0
 23 21  1  0
 24 22  1  0
 25 23  1  0
 26 24  1  0
 27 25  1  0
 28 26  1  0
 29 27  1  0
 30 28  1  0
 31 29  1  0
 32 30  1  0
 33 31  1  0
 34 32  1  0
 35 34  2  0
 36 33  1  0
 36 34  1  0
M  END
>  <NAME>  (5241) 
OCTADECYL HEXADECANOATE

>  <SYNONYMS>  (5241) 
STEARYL PALMITATE

>  <SPECTRUM TYPE>  (5241) 
MS1

>  <INSTRUMENT TYPE>  (5241) 
EI-B

>  <INSTRUMENT>  (5241) 
SHIMADZU QP-1000

>  <ION MODE>  (5241) 
P

>  <INCHIKEY>  (5241) 
BILPUZXRUDPOOF-UHFFFAOYSA-N

>  <FORMULA>  (5241) 
C34H68O2

>  <EXACT MASS>  (5241) 
508.521931416

>  <MW>  (5241) 
508

>  <ID>  (5241) 
JP001862

>  <CONTRIBUTOR>  (5241) 
University of Tokyo Team, {Faculty of Engineering, University of Tokyo

>  <COMMENT>  (5241) 
SMILES=C(CCCCCCCC(OCCCCCCCCCCCCCCCCCC)=O)CCCCCCC
InChI=InChI=1S/C34H68O2/c1-3-5-7-9-11-13-15-17-18-19-21-23-25-27-29-31-33-36-34(35)32-30-28-26-24-22-20-16-14-12-10-8-6-4-2/h3-33H2,1-2H3
computed SMILES=O=C(OCCCCCCCCCCCCCCCCCC)CCCCCCCCCCCCCCC
accession=JP001862
date=2016.01.19 (Created 2008.10.21, modified 2011.05.06)
author=SEYAMA Y, DEPT. OF PHYSIOL. CHEMISTRY AND NUTRITION, FAC. OF MEDICINE, UNIV. OF TOKYO
license=CC BY-NC-SA
exact mass=508.52193
ionization energy=70 eV
ion type=[M]+*
computed spectral entropy=3.3390688173930365
computed normalized entropy=0.8090526030585153
SPLASH=splash10-0a4l-9000000000-97dfbe411b8f4a98a387
submitter=submitter = University of Tokyo Team (Faculty of Engineering, University of Tokyo)
MoNA Rating=3.75

>  <NUM PEAKS>  (5241) 
62

>  <MASS SPECTRAL PEAKS>  (5241) 
41 40.4
42 12.5
43 99.99
44 4.7
53 1.5
54 6.1
55 48.4
56 19.1
57 82.4
58 4.1
60 8.8
61 13.5
67 7.2
68 8.9
69 34.3
70 14.3
71 35.1
72 2
73 11.8
74 1.4
81 5.5
82 12.3
83 28.2
84 10.1
85 18.2
86 1.4
87 2.8
95 3.6
96 6.4
97 24.2
98 7.7
99 3.6
101 2.1
109 1.6
110 2.4
111 10.7
112 3.3
113 1.9
115 2.1
116 1.7
124 1.4
125 5.5
126 1.7
127 1
129 3.7
139 2.3
140 1.2
153 1.3
157 1.1
171 1
185 1
213 1.6
224 1.5
239 3.2
252 5.9
253 1.5
256 6.3
257 35.4
258 6.5
297 2.1
508 3.5
509 1.3

>  <PREDICTED SPECTRUM>  (5241) 
0 2
15 3
16 1
17 0
25 3
26 45
27 141
28 102
29 255
31 27
32 23
33 3
34 4
36 11
37 39
38 41
39 163
40 101
41 543
42 286
43 888
44 189
45 126
46 15
49 5
50 40
51 70
52 49
53 146
54 261
55 740
56 522
57 999
58 214
59 104
60 310
61 410
62 66
63 34
64 21
65 80
66 100
67 322
68 370
69 658
70 537
71 736
72 207
73 505
74 184
75 84
76 56
77 70
78 25
79 86
80 104
81 330
82 451
83 707
84 433
85 542
86 154
87 242
88 75
89 66
91 40
92 16
93 77
94 74
95 288
96 354
97 638
98 466
99 285
100 111
101 174
102 105
103 95
104 34
105 29
107 71
108 49
109 172
110 224
111 493
112 339
113 231
114 82
115 184
116 163
117 91
118 39
119 52
120 41
121 78
122 27
123 147
124 150
125 333
126 223
127 166
128 54
129 275
130 95
131 70
132 25
133 33
134 45
135 90
136 55
137 127
138 158
139 229
140 184
141 159
142 68
143 113
144 69
145 55
146 33
147 38
148 12
149 93
150 73
151 50
152 115
153 154
154 158
155 80
156 70
157 119
158 60
159 86
160 49
161 25
162 1
163 80
164 45
165 32
166 69
167 108
168 153
169 64
170 53
171 92
172 107
173 55
174 17
175 39
177 24
178 28
179 15
180 83
181 114
182 120
183 84
184 51
185 85
186 89
187 54
188 31
189 20
191 19
192 2
193 19
194 58
195 71
196 257
197 136
198 71
199 92
200 88
201 129
202 94
203 22
207 10
208 47
209 62
210 95
211 82
212 27
213 62
214 71
215 32
216 11
219 9
220 17
221 1
222 79
223 55
224 89
225 99
226 31
227 49
228 123
229 158
230 80
231 10
236 68
237 72
238 94
239 115
240 39
241 81
242 92
243 42
250 34
251 65
252 98
253 115
254 40
255 62
256 112
257 98
258 119
259 83
264 14
265 45
266 29
267 93
268 88
269 99
270 123
271 92
278 3
279 22
280 91
281 96
282 22
283 32
284 162
285 248
286 151
287 49
292 2
293 13
294 28
295 58
296 37
297 63
298 33
299 18
307 3
308 59
309 33
310 9
311 17
312 170
313 307
314 116
315 54
323 20
325 42
326 26
327 20
333 10
340 47
342 38
350 2
351 26
352 18
353 51
354 33
364 17
365 2
367 39
368 51
369 75
370 23
382 1
393 9
394 16
396 7
398 11
406 1
407 10
409 31
410 3
411 13
412 11
413 7
422 2
423 29
426 40
448 11
462 1
466 9
508 419
509 85
510 37
511 14

$$$$

     RDKit          2D

 21 20  0  0  0  0  0  0  0  0999 V2000
  -19.4856   11.2500    0.0000 C   0  0  0  0  0  0  0  0  0  0  0  0
  -18.1865   10.5000    0.0000 C   0  0  0  0  0  0  0  0  0  0  0  0
  -16.8875   11.2500    0.0000 C   0  0  0  0  0  0  0  0  0  0  0  0
  -15.5885   10.5000    0.0000 C   0  0  0  0  0  0  0  0  0  0  0  0
  -14.2894   11.2500    0.0000 C   0  0  0  0  0  0  0  0  0  0  0  0
  -12.9904   10.5000    0.0000 C   0  0  0  0  0  0  0  0  0  0  0  0
  -11.6913   11.2500    0.0000 C   0  0  0  0  0  0  0  0  0  0  0  0
  -10.3923   10.5000    0.0000 C   0  0  0  0  0  0  0  0  0  0  0  0
   -9.0933   11.2500    0.0000 C   0  0  0  0  0  0  0  0  0  0  0  0
   -7.7942   10.5000    0.0000 C   0  0  0  0  0  0  0  0  0  0  0  0
   -6.4952   11.2500    0.0000 C   0  0  0  0  0  0  0  0  0  0  0  0
   -5.1962   10.5000    0.0000 C   0  0  0  0  0  0  0  0  0  0  0  0
   -3.8971   11.2500    0.0000 C   0  0  0  0  0  0  0  0  0  0  0  0
   -2.5981   10.5000    0.0000 C   0  0  0  0  0  0  0  0  0  0  0  0
   -1.2990   11.2500    0.0000 C   0  0  0  0  0  0  0  0  0  0  0  0
    0.0000   10.5000    0.0000 C   0  0  0  0  0  0  0  0  0  0  0  0
    1.2990   11.2500    0.0000 C   0  0  0  0  0  0  0  0  0  0  0  0
    2.5981   10.5000    0.0000 C   0  0  0  0  0  0  0  0  0  0  0  0
    3.8971   11.2500    0.0000 C   0  0  0  0  0  0  0  0  0  0  0  0
    5.1962   10.5000    0.0000 C   0  0  0  0  0  0  0  0  0  0  0  0
    6.4952   11.2500    0.0000 O   0  0  0  0  0  0  0  0  0  0  0  0
  2  1  1  0
  3  2  1  0
  4  3  1  0
  5  4  1  0
  6  5  1  0
  7  6  1  0
  8  7  1  0
  9  8  1  0
  9 10  2  0
 11 10  1  0
 12 11  1  0
 13 12  1  0
 14 13  1  0
 15 14  1  0
 16 15  1  0
 17 16  1  0
 18 17  1  0
 19 18  1  0
 20 19  1  0
 21 20  1  0
M  END
>  <NAME>  (5242) 
11-EICOSENOL

>  <SYNONYMS>  (5242) 


>  <SPECTRUM TYPE>  (5242) 
MS1

>  <INSTRUMENT TYPE>  (5242) 
EI-B

>  <INSTRUMENT>  (5242) 
SHIMADZU QP-1000

>  <ION MODE>  (5242) 
P

>  <INCHIKEY>  (5242) 
QYOZAXQSDUAPDS-MDZDMXLPSA-N

>  <FORMULA>  (5242) 
C20H40O

>  <EXACT MASS>  (5242) 
296.30791589999995

>  <MW>  (5242) 
296

>  <ID>  (5242) 
JP001861

>  <CONTRIBUTOR>  (5242) 
University of Tokyo Team, {Faculty of Engineering, University of Tokyo

>  <COMMENT>  (5242) 
SMILES=CCCCCCCCC=CCCCCCCCCCCO
InChI=InChI=1S/C20H40O/c1-2-3-4-5-6-7-8-9-10-11-12-13-14-15-16-17-18-19-20-21/h9-10,21H,2-8,11-20H2,1H3/b10-9+
computed SMILES=OCCCCCCCCCCC=CCCCCCCCC
accession=JP001861
date=2016.01.19 (Created 2008.10.21, modified 2011.05.06)
author=SEYAMA Y, DEPT. OF PHYSIOL. CHEMISTRY AND NUTRITION, FAC. OF MEDICINE, UNIV. OF TOKYO
license=CC BY-NC-SA
exact mass=296.30792
ionization energy=70 eV
ion type=[M]+*
computed spectral entropy=3.2116118454393248
computed normalized entropy=0.8168245861945889
SPLASH=splash10-05nf-9000000000-5b7739079e31469d2ed2
submitter=submitter = University of Tokyo Team (Faculty of Engineering, University of Tokyo)
MoNA Rating=3.75

>  <NUM PEAKS>  (5242) 
51

>  <MASS SPECTRAL PEAKS>  (5242) 
40 2
41 86.9
42 14.8
43 60.4
44 4
45 1.7
53 5.7
54 32.8
55 99.99
56 23.4
57 34.5
58 1.8
65 1.4
66 4.5
67 44.6
68 33.9
69 51
70 14
71 11.1
77 1
79 4.8
80 3.8
81 38.4
82 57.6
83 31.8
84 6.2
85 3
93 1.4
94 1.7
95 29
96 39.2
97 19.7
98 3.4
99 1
109 14.4
110 13
111 6.1
112 1.4
123 7.7
124 7.7
125 2.2
137 4.2
138 4.7
151 1.6
152 2.4
166 1.4
180 1
250 1
278 5.1
279 1
296 0.1

>  <PREDICTED SPECTRUM>  (5242) 
18 11
27 50
28 39
29 165
30 29
31 48
32 24
39 137
40 40
41 831
42 367
43 717
44 266
45 242
46 39
47 19
50 17
51 68
52 59
53 297
54 593
55 984
56 471
57 576
58 115
59 101
60 84
61 75
62 9
63 36
64 3
65 178
66 268
67 886
68 753
69 834
70 407
71 426
72 138
73 120
74 71
75 20
76 10
77 183
78 117
79 386
80 336
81 915
82 999
83 728
84 339
85 312
86 111
87 77
88 21
91 167
92 80
93 195
94 211
95 777
96 877
97 628
98 318
99 174
100 69
101 71
102 9
103 77
104 18
105 88
106 9
107 168
108 245
109 609
110 548
111 397
112 188
113 115
114 78
115 32
117 16
119 56
120 25
121 225
122 203
123 451
124 411
125 261
126 131
127 98
128 59
129 20
134 18
135 84
136 151
137 291
138 321
139 134
140 93
141 60
142 1
143 55
144 32
145 53
147 48
148 16
149 33
150 10
151 212
152 245
153 88
154 90
155 41
157 33
161 23
162 8
163 84
164 56
165 129
166 152
167 65
168 60
169 54
170 16
171 24
175 0
177 56
178 45
179 114
180 131
181 79
182 54
183 133
184 31
185 41
186 14
189 12
191 13
193 71
194 146
195 61
196 45
197 49
198 3
199 4
203 21
207 103
208 71
209 62
210 47
211 34
212 3
213 3
214 4
217 20
218 13
219 24
221 67
222 76
223 28
224 55
225 21
226 45
228 29
229 27
233 18
234 23
235 29
236 99
237 35
238 21
239 30
244 7
249 53
250 165
251 111
252 61
253 56
254 13
264 9
265 44
268 12
277 48
278 258
279 113
280 41
281 19
297 64

$$$$

     RDKit          2D

 16 15  0  0  0  0  0  0  0  0999 V2000
    4.5466    7.8750    0.0000 C   0  0  0  0  0  0  0  0  0  0  0  0
  -13.6399    7.8750    0.0000 C   0  0  0  0  0  0  0  0  0  0  0  0
    3.2476    8.6250    0.0000 C   0  0  0  0  0  0  0  0  0  0  0  0
  -12.3409    8.6250    0.0000 C   0  0  0  0  0  0  0  0  0  0  0  0
    1.9486    7.8750    0.0000 C   0  0  0  0  0  0  0  0  0  0  0  0
    0.6495    8.6250    0.0000 C   0  0  0  0  0  0  0  0  0  0  0  0
   -0.6495    7.8750    0.0000 C   0  0  0  0  0  0  0  0  0  0  0  0
   -1.9486    8.6250    0.0000 C   0  0  0  0  0  0  0  0  0  0  0  0
   -3.2476    7.8750    0.0000 C   0  0  0  0  0  0  0  0  0  0  0  0
   -4.5466    8.6250    0.0000 C   0  0  0  0  0  0  0  0  0  0  0  0
   -5.8457    7.8750    0.0000 C   0  0  0  0  0  0  0  0  0  0  0  0
   -7.1447    8.6250    0.0000 C   0  0  0  0  0  0  0  0  0  0  0  0
   -8.4437    7.8750    0.0000 C   0  0  0  0  0  0  0  0  0  0  0  0
   -9.7428    8.6250    0.0000 C   0  0  0  0  0  0  0  0  0  0  0  0
  -11.0418    7.8750    0.0000 C   0  0  0  0  0  0  0  0  0  0  0  0
  -11.0418    6.3750    0.0000 O   0  0  0  0  0  0  0  0  0  0  0  0
  3  1  1  0
  4  2  1  0
  5  3  1  0
  6  5  1  0
  7  6  1  0
  8  7  1  0
  9  8  1  0
 10  9  1  0
 11 10  1  0
 12 11  1  0
 13 12  1  0
 14 13  1  0
 15  4  1  0
 15 14  1  0
 16 15  2  0
M  END
>  <NAME>  (5243) 
3-PENTADECANONE

>  <SYNONYMS>  (5243) 
DODECYL ETHYL KETONE

>  <SPECTRUM TYPE>  (5243) 
MS1

>  <INSTRUMENT TYPE>  (5243) 
EI-B

>  <INSTRUMENT>  (5243) 
SHIMADZU QP-1000

>  <ION MODE>  (5243) 
P

>  <INCHIKEY>  (5243) 
YELXTWKVTZTDCM-UHFFFAOYSA-N

>  <FORMULA>  (5243) 
C15H30O

>  <EXACT MASS>  (5243) 
226.22966558000002

>  <MW>  (5243) 
226

>  <ID>  (5243) 
JP001860

>  <CONTRIBUTOR>  (5243) 
University of Tokyo Team, {Faculty of Engineering, University of Tokyo

>  <COMMENT>  (5243) 
SMILES=CCCCCCCCCCCCC(=O)CC
InChI=InChI=1S/C15H30O/c1-3-5-6-7-8-9-10-11-12-13-14-15(16)4-2/h3-14H2,1-2H3
computed SMILES=O=C(CC)CCCCCCCCCCCC
accession=JP001860
date=2016.01.19 (Created 2008.10.21, modified 2011.05.06)
author=SEYAMA Y, DEPT. OF PHYSIOL. CHEMISTRY AND NUTRITION, FAC. OF MEDICINE, UNIV. OF TOKYO
license=CC BY-NC-SA
exact mass=226.22967
ionization energy=70 eV
ion type=[M]+*
computed spectral entropy=2.6231666808069805
computed normalized entropy=0.7320085998867698
SPLASH=splash10-0596-9000000000-13c3914d726903a9778a
submitter=submitter = University of Tokyo Team (Faculty of Engineering, University of Tokyo)
MoNA Rating=3.75

>  <NUM PEAKS>  (5243) 
36

>  <MASS SPECTRAL PEAKS>  (5243) 
41 52.8
42 11.9
43 72.5
44 2.1
53 2.8
54 2.6
55 26.5
56 7.5
57 99.99
58 3.7
67 4.4
68 1.5
69 7.2
70 2.3
71 16.6
72 76.6
73 31.4
74 1.4
81 3.5
82 1.4
83 4
84 1.4
85 19.2
86 1.6
95 4.8
96 2
97 3.5
98 1.1
99 3
109 2.6
110 1.1
114 1.3
123 1.5
153 1
197 13.4
198 1.8

>  <PREDICTED SPECTRUM>  (5243) 
15 72
18 7
26 35
27 273
28 119
29 481
30 120
31 70
32 2
38 1
39 180
40 36
41 608
42 224
43 757
44 257
45 98
49 4
50 10
51 28
52 23
53 149
54 141
55 421
56 343
57 999
58 558
59 231
60 12
65 5
66 16
67 189
68 146
69 248
70 123
71 473
72 694
73 103
79 73
80 40
81 278
82 192
83 168
85 293
86 147
95 252
96 220
97 171
98 65
99 160
100 29
109 155
110 147
111 95
113 34
119 12
123 96
124 87
125 12
126 15
127 8
128 55
137 9
138 5
139 27
140 5
141 51
165 3
169 101
170 69
171 39
197 376
198 101
199 30
208 41
226 159
227 42
228 4

$$$$

     RDKit          2D

 16 15  0  0  0  0  0  0  0  0999 V2000
    4.5466    7.8750    0.0000 C   0  0  0  0  0  0  0  0  0  0  0  0
  -13.6399    7.8750    0.0000 C   0  0  0  0  0  0  0  0  0  0  0  0
    3.2476    8.6250    0.0000 C   0  0  0  0  0  0  0  0  0  0  0  0
  -12.3409    8.6250    0.0000 C   0  0  0  0  0  0  0  0  0  0  0  0
    1.9486    7.8750    0.0000 C   0  0  0  0  0  0  0  0  0  0  0  0
    0.6495    8.6250    0.0000 C   0  0  0  0  0  0  0  0  0  0  0  0
   -0.6495    7.8750    0.0000 C   0  0  0  0  0  0  0  0  0  0  0  0
   -1.9486    8.6250    0.0000 C   0  0  0  0  0  0  0  0  0  0  0  0
   -3.2476    7.8750    0.0000 C   0  0  0  0  0  0  0  0  0  0  0  0
   -4.5466    8.6250    0.0000 C   0  0  0  0  0  0  0  0  0  0  0  0
   -5.8457    7.8750    0.0000 C   0  0  0  0  0  0  0  0  0  0  0  0
   -7.1447    8.6250    0.0000 C   0  0  0  0  0  0  0  0  0  0  0  0
   -8.4437    7.8750    0.0000 C   0  0  0  0  0  0  0  0  0  0  0  0
   -9.7428    8.6250    0.0000 C   0  0  0  0  0  0  0  0  0  0  0  0
  -11.0418    7.8750    0.0000 C   0  0  0  0  0  0  0  0  0  0  0  0
  -11.0418    6.3750    0.0000 O   0  0  0  0  0  0  0  0  0  0  0  0
  3  1  1  0
  4  2  1  0
  5  3  1  0
  6  5  1  0
  7  6  1  0
  8  7  1  0
  9  8  1  0
 10  9  1  0
 11 10  1  0
 12 11  1  0
 13 12  1  0
 14 13  1  0
 15  4  1  0
 15 14  1  0
 16 15  1  0
M  END
>  <NAME>  (5244) 
3-PENTADECANOL

>  <SYNONYMS>  (5244) 
ALPHA-ETHYLTRIDECANOL

>  <SPECTRUM TYPE>  (5244) 
MS1

>  <INSTRUMENT TYPE>  (5244) 
EI-B

>  <INSTRUMENT>  (5244) 
SHIMADZU QP-1000

>  <ION MODE>  (5244) 
P

>  <INCHIKEY>  (5244) 
WVZVEGVDRAOXNT-UHFFFAOYSA-N

>  <FORMULA>  (5244) 
C15H32O

>  <EXACT MASS>  (5244) 
228.24531564400002

>  <MW>  (5244) 
228

>  <ID>  (5244) 
JP001859

>  <CONTRIBUTOR>  (5244) 
University of Tokyo Team, {Faculty of Engineering, University of Tokyo

>  <COMMENT>  (5244) 
SMILES=CCCCCCCCCCCCC(O)CC
InChI=InChI=1S/C15H32O/c1-3-5-6-7-8-9-10-11-12-13-14-15(16)4-2/h15-16H,3-14H2,1-2H3
computed SMILES=OC(CC)CCCCCCCCCCCC
accession=JP001859
date=2016.01.19 (Created 2008.10.21, modified 2011.05.06)
author=SEYAMA Y, DEPT. OF PHYSIOL. CHEMISTRY AND NUTRITION, FAC. OF MEDICINE, UNIV. OF TOKYO
license=CC BY-NC-SA
exact mass=228.24532
ionization energy=70 eV
ion type=[M]+*
computed spectral entropy=2.7510900228342092
computed normalized entropy=0.7801499601727934
SPLASH=splash10-0a4l-9000000000-733e47707224bbd2128a
submitter=submitter = University of Tokyo Team (Faculty of Engineering, University of Tokyo)
MoNA Rating=3.75

>  <NUM PEAKS>  (5244) 
34

>  <MASS SPECTRAL PEAKS>  (5244) 
41 61.4
42 11.3
43 50.7
44 4.1
45 2.4
53 2.5
54 3.3
55 39.6
56 9.7
57 36.2
58 14.7
59 99.99
60 3.2
67 5.1
68 2.4
69 27
70 5.7
71 8.4
72 2.8
73 1
81 2.6
82 2
83 19.2
84 3
85 4.8
95 1.1
96 1.2
97 16.4
98 2
99 1.1
111 9.5
112 1.2
125 4.1
199 7.5

>  <PREDICTED SPECTRUM>  (5244) 
17 4
18 13
26 45
27 319
28 148
29 371
31 313
32 41
33 18
38 25
39 307
40 143
41 802
42 396
43 759
44 245
45 418
46 62
47 95
51 61
52 66
53 218
54 223
55 880
56 521
57 913
58 327
59 999
60 114
62 11
63 7
65 6
66 75
67 303
68 225
69 799
70 430
71 508
72 121
73 130
74 20
76 34
77 146
78 31
79 148
80 21
81 254
82 227
83 676
84 238
85 241
86 65
87 122
95 61
96 156
97 614
98 251
99 210
100 19
101 7
109 46
110 57
111 460
112 226
113 76
124 25
125 285
126 135
127 20
139 16
140 34
169 83
170 6
181 47
182 79
183 15
199 459
200 65
210 135

$$$$

     RDKit          2D

 20 19  0  0  0  0  0  0  0  0999 V2000
    5.8457    9.3750    0.0000 C   0  0  0  0  0  0  0  0  0  0  0  0
  -12.3409    7.8750    0.0000 C   0  0  0  0  0  0  0  0  0  0  0  0
  -16.2380   10.1250    0.0000 C   0  0  0  0  0  0  0  0  0  0  0  0
    4.5466   10.1250    0.0000 C   0  0  0  0  0  0  0  0  0  0  0  0
    3.2476    9.3750    0.0000 C   0  0  0  0  0  0  0  0  0  0  0  0
    1.9486   10.1250    0.0000 C   0  0  0  0  0  0  0  0  0  0  0  0
    0.6495    9.3750    0.0000 C   0  0  0  0  0  0  0  0  0  0  0  0
   -0.6495   10.1250    0.0000 C   0  0  0  0  0  0  0  0  0  0  0  0
   -1.9486    9.3750    0.0000 C   0  0  0  0  0  0  0  0  0  0  0  0
   -3.2476   10.1250    0.0000 C   0  0  0  0  0  0  0  0  0  0  0  0
   -4.5466    9.3750    0.0000 C   0  0  0  0  0  0  0  0  0  0  0  0
   -5.8457   10.1250    0.0000 C   0  0  0  0  0  0  0  0  0  0  0  0
   -7.1447    9.3750    0.0000 C   0  0  0  0  0  0  0  0  0  0  0  0
   -8.4437   10.1250    0.0000 C   0  0  0  0  0  0  0  0  0  0  0  0
   -9.7428    9.3750    0.0000 C   0  0  0  0  0  0  0  0  0  0  0  0
  -11.0418   10.1250    0.0000 C   0  0  0  0  0  0  0  0  0  0  0  0
  -12.3409    9.3750    0.0000 C   0  0  0  0  0  0  0  0  0  0  0  0
  -13.6399   10.1250    0.0000 C   0  0  0  0  0  0  0  0  0  0  0  0
  -13.6399   11.6250    0.0000 O   0  0  0  0  0  0  0  0  0  0  0  0
  -14.9389    9.3750    0.0000 O   0  0  0  0  0  0  0  0  0  0  0  0
  4  1  1  0
  5  4  1  0
  6  5  1  0
  7  6  1  0
  8  7  1  0
  9  8  1  0
 10  9  1  0
 11 10  1  0
 12 11  1  0
 13 12  1  0
 14 13  1  0
 15 14  1  0
 16 15  1  0
 17  2  1  0
 17 16  1  0
 18 17  1  0
 19 18  2  0
 20  3  1  0
 20 18  1  0
M  END
>  <NAME>  (5245) 
METHYL 2-METHYLHEXADECANOATE

>  <SYNONYMS>  (5245) 
METHYL ALPHA-METHYLPALMITATE

>  <SPECTRUM TYPE>  (5245) 
MS1

>  <INSTRUMENT TYPE>  (5245) 
EI-B

>  <INSTRUMENT>  (5245) 
SHIMADZU QP-1000

>  <ION MODE>  (5245) 
P

>  <INCHIKEY>  (5245) 
OAMQXAKDCJRWHE-UHFFFAOYSA-N

>  <FORMULA>  (5245) 
C18H36O2

>  <EXACT MASS>  (5245) 
284.271530392

>  <MW>  (5245) 
284

>  <ID>  (5245) 
JP001858

>  <CONTRIBUTOR>  (5245) 
University of Tokyo Team, {Faculty of Engineering, University of Tokyo

>  <COMMENT>  (5245) 
SMILES=CCCCCCCCCCCCCCC(C)C(=O)OC
InChI=InChI=1S/C18H36O2/c1-4-5-6-7-8-9-10-11-12-13-14-15-16-17(2)18(19)20-3/h17H,4-16H2,1-3H3
computed SMILES=O=C(OC)C(C)CCCCCCCCCCCCCC
accession=JP001858
date=2016.01.19 (Created 2008.10.21, modified 2011.05.06)
author=SEYAMA Y, DEPT. OF PHYSIOL. CHEMISTRY AND NUTRITION, FAC. OF MEDICINE, UNIV. OF TOKYO
license=CC BY-NC-SA
exact mass=284.27153
ionization energy=70 eV
ion type=[M]+*
computed spectral entropy=2.4006344063252714
computed normalized entropy=0.692676670598578
SPLASH=splash10-000i-9200000000-798360131a8c372204c5
submitter=submitter = University of Tokyo Team (Faculty of Engineering, University of Tokyo)
MoNA Rating=3.75

>  <NUM PEAKS>  (5245) 
32

>  <MASS SPECTRAL PEAKS>  (5245) 
54 1.1
55 18.6
56 5.3
57 19.6
59 7.8
67 1.5
69 10.5
70 2.4
71 4.9
73 1.6
74 1
83 4.7
85 2.1
87 3.7
88 99.99
89 4.3
97 2.3
98 1.9
101 32.8
102 2.4
115 2
129 1
143 4.4
157 4.1
171 1.6
185 1.4
199 1.5
213 1.3
227 2.8
241 1.6
284 3
285 0.7

>  <PREDICTED SPECTRUM>  (5245) 
15 24
16 8
17 40
18 56
26 32
27 148
28 71
29 239
30 42
31 44
32 13
33 12
37 9
38 15
39 156
40 76
41 369
42 173
43 397
44 124
45 64
52 18
53 114
54 124
55 424
56 229
57 378
58 82
59 210
60 34
61 0
65 11
66 1
67 163
68 78
69 328
70 151
71 236
72 22
73 77
74 50
77 32
78 0
79 68
80 14
81 131
82 102
83 279
84 88
85 144
87 169
88 999
89 265
90 96
93 14
95 122
96 67
97 217
98 118
99 90
101 610
102 114
103 13
107 3
109 43
110 49
111 149
112 101
113 80
115 139
116 88
121 4
123 36
125 73
126 76
127 55
129 159
130 100
131 1
137 4
139 40
141 32
143 87
144 27
153 49
154 5
155 34
157 240
158 47
165 23
166 8
167 31
171 88
172 27
179 3
181 4
185 104
186 43
195 37
197 73
199 100
200 20
213 120
214 45
225 57
227 165
228 76
241 159
242 44
253 73
255 51
269 52
270 20
284 391
285 154
286 48

$$$$

     RDKit          2D

 24 24  0  0  0  0  0  0  0  0999 V2000
  -11.6913   21.0600    0.0000 C   0  0  0  0  0  0  0  0  0  0  0  0
  -10.3923   20.3100    0.0000 C   0  0  0  0  0  0  0  0  0  0  0  0
  -10.3923   18.8100    0.0000 C   0  0  0  0  0  0  0  0  0  0  0  0
   -9.0933   18.0600    0.0000 C   0  0  0  0  0  0  0  0  0  0  0  0
   -9.0933   16.5600    0.0000 C   0  0  0  0  0  0  0  0  0  0  0  0
   -7.7942   15.8100    0.0000 C   0  0  0  0  0  0  0  0  0  0  0  0
   -7.7942   14.3100    0.0000 C   0  0  0  0  0  0  0  0  0  0  0  0
   -6.4952   13.5600    0.0000 C   0  0  0  0  0  0  0  0  0  0  0  0
   -6.4952   12.0600    0.0000 C   0  0  0  0  0  0  0  0  0  0  0  0
   -5.1962   11.3100    0.0000 C   0  0  0  0  0  0  0  0  0  0  0  0
   -3.8971   12.0600    0.0000 C   0  0  0  0  0  0  0  0  0  0  0  0
   -2.5981   11.3100    0.0000 C   0  0  0  0  0  0  0  0  0  0  0  0
   -1.2990   12.0600    0.0000 C   0  0  0  0  0  0  0  0  0  0  0  0
    0.0000   11.3100    0.0000 C   0  0  0  0  0  0  0  0  0  0  0  0
    1.2990   12.0600    0.0000 C   0  0  0  0  0  0  0  0  0  0  0  0
    2.5981   11.3100    0.0000 C   0  0  0  0  0  0  0  0  0  0  0  0
    8.1207   13.8645    0.0000 C   0  0  0  0  0  0  0  0  0  0  0  0
    8.8707   12.5655    0.0000 C   0  0  0  0  0  0  0  0  0  0  0  0
    3.8971   12.0600    0.0000 C   0  0  0  0  0  0  0  0  0  0  0  0
    6.6523   13.5479    0.0000 C   0  0  0  0  0  0  0  0  0  0  0  0
    7.8623   11.4521    0.0000 C   0  0  0  0  0  0  0  0  0  0  0  0
    5.1962   11.3100    0.0000 C   0  0  0  0  0  0  0  0  0  0  0  0
    6.4952   12.0600    0.0000 N   0  0  0  0  0  0  0  0  0  0  0  0
    5.1962    9.8100    0.0000 O   0  0  0  0  0  0  0  0  0  0  0  0
  2  1  1  0
  3  2  1  0
  4  3  1  0
  5  4  1  0
  6  5  1  0
  7  6  1  0
  8  7  1  0
  9  8  1  0
  9 10  2  0
 11 10  1  0
 12 11  1  0
 13 12  1  0
 14 13  1  0
 15 14  1  0
 16 15  1  0
 18 17  1  0
 19 16  1  0
 20 17  1  0
 21 18  1  0
 22 19  1  0
 23 20  1  0
 23 21  1  0
 23 22  1  0
 24 22  2  0
M  END
>  <NAME>  (5246) 
1-OCTADEC-CIS-9-ENOYLPYRROLIDINE

>  <SYNONYMS>  (5246) 
N-OLEOYLPYRROLIDINE

>  <SPECTRUM TYPE>  (5246) 
MS1

>  <INSTRUMENT TYPE>  (5246) 
EI-B

>  <INSTRUMENT>  (5246) 
SHIMADZU QP-1000

>  <ION MODE>  (5246) 
P

>  <INCHIKEY>  (5246) 
KEMZFVSIIGZOCH-KTKRTIGZSA-N

>  <FORMULA>  (5246) 
C22H41NO

>  <EXACT MASS>  (5246) 
335.318814932

>  <MW>  (5246) 
335

>  <ID>  (5246) 
JP001857

>  <CONTRIBUTOR>  (5246) 
University of Tokyo Team, {Faculty of Engineering, University of Tokyo

>  <COMMENT>  (5246) 
SMILES=CCCCCCCCC([H])=C([H])CCCCCCCC(=O)N(C1)CCC1
InChI=InChI=1S/C22H41NO/c1-2-3-4-5-6-7-8-9-10-11-12-13-14-15-16-19-22(24)23-20-17-18-21-23/h9-10H,2-8,11-21H2,1H3/b10-9-
computed SMILES=O=C(N1CCCC1)CCCCCCCC=CCCCCCCCC
accession=JP001857
date=2016.01.19 (Created 2008.10.21, modified 2011.05.06)
author=SEYAMA Y, DEPT. OF PHYSIOL. CHEMISTRY AND NUTRITION, FAC. OF MEDICINE, UNIV. OF TOKYO
license=CC BY-NC-SA
exact mass=335.31881
ionization energy=70 eV
ion type=[M]+*
computed spectral entropy=2.1849601205976787
computed normalized entropy=0.6424090916857919
SPLASH=splash10-03fr-1900000000-5bfa97923f33db159ad1
submitter=submitter = University of Tokyo Team (Faculty of Engineering, University of Tokyo)
MoNA Rating=3.75

>  <NUM PEAKS>  (5246) 
30

>  <MASS SPECTRAL PEAKS>  (5246) 
95 1.3
97 1.1
98 19.4
99 2.1
112 2.1
113 99.99
114 7.6
126 49.6
127 10.7
140 5.9
141 1.8
154 2.3
168 4.8
169 1
180 1.6
182 6.6
183 1.1
194 1.2
196 1.8
208 1.8
222 2.5
236 4
250 3.6
264 1.7
278 1.1
292 1.1
306 0.7
320 0.1
335 5.7
336 1.6

>  <PREDICTED SPECTRUM>  (5246) 
39 32
40 8
41 96
42 39
43 153
44 55
51 29
52 38
53 131
54 181
55 593
56 253
57 192
58 82
59 18
63 0
65 83
66 61
67 313
68 163
69 319
70 501
71 335
72 437
73 123
74 11
77 91
78 31
79 146
80 85
81 218
82 88
83 146
84 79
85 258
86 52
87 53
91 66
93 84
94 26
95 190
96 75
97 116
98 349
99 124
100 40
101 14
103 74
105 23
107 33
108 15
109 61
110 65
111 84
112 119
113 999
114 218
115 52
117 14
119 30
121 17
122 1
123 47
124 61
125 49
126 713
127 346
128 47
129 8
133 9
138 63
139 23
140 218
141 134
142 43
143 4
151 33
152 88
153 61
154 156
155 84
156 3
165 6
166 114
167 29
168 204
169 107
170 12
179 15
180 115
181 74
182 228
183 80
184 6
193 11
194 152
195 7
196 154
197 43
208 173
209 51
210 151
211 53
220 8
222 154
223 35
224 120
225 13
234 19
236 162
237 84
238 93
239 23
250 171
251 39
252 42
262 11
264 166
265 47
266 42
278 98
279 43
280 40
292 117
293 33
294 9
306 129
307 14
308 27
320 49
321 19
334 87
335 415
336 152
337 50

$$$$

     RDKit          2D

 24 24  0  0  0  0  0  0  0  0999 V2000
  -18.2125    9.7950    0.0000 C   0  0  0  0  0  0  0  0  0  0  0  0
  -16.9135   10.5450    0.0000 C   0  0  0  0  0  0  0  0  0  0  0  0
  -15.6144    9.7950    0.0000 C   0  0  0  0  0  0  0  0  0  0  0  0
  -14.3154   10.5450    0.0000 C   0  0  0  0  0  0  0  0  0  0  0  0
  -13.0164    9.7950    0.0000 C   0  0  0  0  0  0  0  0  0  0  0  0
  -11.7173   10.5450    0.0000 C   0  0  0  0  0  0  0  0  0  0  0  0
  -10.4183    9.7950    0.0000 C   0  0  0  0  0  0  0  0  0  0  0  0
   -9.1192   10.5450    0.0000 C   0  0  0  0  0  0  0  0  0  0  0  0
   -7.8202    9.7950    0.0000 C   0  0  0  0  0  0  0  0  0  0  0  0
   -6.5212   10.5450    0.0000 C   0  0  0  0  0  0  0  0  0  0  0  0
   -5.2221    9.7950    0.0000 C   0  0  0  0  0  0  0  0  0  0  0  0
   -3.9231   10.5450    0.0000 C   0  0  0  0  0  0  0  0  0  0  0  0
   -2.6241    9.7950    0.0000 C   0  0  0  0  0  0  0  0  0  0  0  0
   -1.3250   10.5450    0.0000 C   0  0  0  0  0  0  0  0  0  0  0  0
   -0.0260    9.7950    0.0000 C   0  0  0  0  0  0  0  0  0  0  0  0
    1.2731   10.5450    0.0000 C   0  0  0  0  0  0  0  0  0  0  0  0
    6.7957    7.9905    0.0000 C   0  0  0  0  0  0  0  0  0  0  0  0
    7.5457    9.2895    0.0000 C   0  0  0  0  0  0  0  0  0  0  0  0
    2.5721    9.7950    0.0000 C   0  0  0  0  0  0  0  0  0  0  0  0
    5.3273    8.3071    0.0000 C   0  0  0  0  0  0  0  0  0  0  0  0
    6.5373   10.4029    0.0000 C   0  0  0  0  0  0  0  0  0  0  0  0
    3.8711   10.5450    0.0000 C   0  0  0  0  0  0  0  0  0  0  0  0
    5.1702    9.7950    0.0000 N   0  0  0  0  0  0  0  0  0  0  0  0
    3.8711   12.0450    0.0000 O   0  0  0  0  0  0  0  0  0  0  0  0
  2  1  1  0
  3  2  1  0
  4  3  1  0
  5  4  1  0
  6  5  1  0
  7  6  1  0
  8  7  1  0
  9  8  1  0
 10  9  1  0
 11 10  1  0
 12 11  1  0
 13 12  1  0
 14 13  1  0
 15 14  1  0
 16 15  1  0
 18 17  1  0
 19 16  1  0
 20 17  1  0
 21 18  1  0
 22 19  1  0
 23 20  1  0
 23 21  1  0
 23 22  1  0
 24 22  2  0
M  END
>  <NAME>  (5247) 
1-OCTADECANOYLPYRROLIDINE

>  <SYNONYMS>  (5247) 
N-STEAROYLPYRROLIDINE

>  <SPECTRUM TYPE>  (5247) 
MS1

>  <INSTRUMENT TYPE>  (5247) 
EI-B

>  <INSTRUMENT>  (5247) 
SHIMADZU QP-1000

>  <ION MODE>  (5247) 
P

>  <INCHIKEY>  (5247) 
AEBDOCOLSSICMC-UHFFFAOYSA-N

>  <FORMULA>  (5247) 
C22H43NO

>  <EXACT MASS>  (5247) 
337.33446499599995

>  <MW>  (5247) 
337

>  <ID>  (5247) 
JP001856

>  <CONTRIBUTOR>  (5247) 
University of Tokyo Team, {Faculty of Engineering, University of Tokyo

>  <COMMENT>  (5247) 
SMILES=CCCCCCCCCCCCCCCCCC(=O)N(C1)CCC1
InChI=InChI=1S/C22H43NO/c1-2-3-4-5-6-7-8-9-10-11-12-13-14-15-16-19-22(24)23-20-17-18-21-23/h2-21H2,1H3
computed SMILES=O=C(N1CCCC1)CCCCCCCCCCCCCCCCC
accession=JP001856
date=2016.01.19 (Created 2008.10.21, modified 2011.05.06)
author=SEYAMA Y, DEPT. OF PHYSIOL. CHEMISTRY AND NUTRITION, FAC. OF MEDICINE, UNIV. OF TOKYO
license=CC BY-NC-SA
exact mass=337.33447
ionization energy=70 eV
ion type=[M]+*
computed spectral entropy=1.4155033177477665
computed normalized entropy=0.45144504191927093
SPLASH=splash10-03di-0900000000-f30ef03dab3b94dd7582
submitter=submitter = University of Tokyo Team (Faculty of Engineering, University of Tokyo)
MoNA Rating=3.75

>  <NUM PEAKS>  (5247) 
23

>  <MASS SPECTRAL PEAKS>  (5247) 
98 7.8
99 1.1
112 1.4
113 99.99
114 7.2
126 18.6
127 3.9
140 2.6
154 1.3
168 2.1
182 1.4
196 0.7
210 0.4
224 0.4
238 0.6
252 0.6
266 0.3
280 0.3
294 0.4
308 0.3
322 0.2
337 1
338 0.2

>  <PREDICTED SPECTRUM>  (5247) 
29 7
41 3
43 73
53 61
54 54
55 394
56 176
57 196
58 30
59 24
65 16
67 127
68 93
69 173
70 360
71 340
72 241
73 11
78 5
79 26
81 60
83 78
84 82
85 262
87 24
92 5
93 10
95 26
97 53
98 246
99 114
103 40
112 8
113 999
114 238
126 505
127 185
140 154
141 8
152 32
154 115
155 73
168 142
169 117
182 116
183 26
196 91
197 11
210 93
224 69
238 124
239 2
252 86
266 48
278 13
280 51
294 85
295 24
308 75
322 39
336 105
337 139
338 116

$$$$

     RDKit          2D

 23 23  0  0  0  0  0  0  0  0999 V2000
  -16.9135    9.7950    0.0000 C   0  0  0  0  0  0  0  0  0  0  0  0
  -15.6144    9.0450    0.0000 C   0  0  0  0  0  0  0  0  0  0  0  0
  -14.3154    9.7950    0.0000 C   0  0  0  0  0  0  0  0  0  0  0  0
  -13.0164    9.0450    0.0000 C   0  0  0  0  0  0  0  0  0  0  0  0
  -11.7173    9.7950    0.0000 C   0  0  0  0  0  0  0  0  0  0  0  0
  -10.4183    9.0450    0.0000 C   0  0  0  0  0  0  0  0  0  0  0  0
   -9.1192    9.7950    0.0000 C   0  0  0  0  0  0  0  0  0  0  0  0
   -7.8202    9.0450    0.0000 C   0  0  0  0  0  0  0  0  0  0  0  0
   -6.5212    9.7950    0.0000 C   0  0  0  0  0  0  0  0  0  0  0  0
   -5.2221    9.0450    0.0000 C   0  0  0  0  0  0  0  0  0  0  0  0
   -3.9231    9.7950    0.0000 C   0  0  0  0  0  0  0  0  0  0  0  0
   -2.6241    9.0450    0.0000 C   0  0  0  0  0  0  0  0  0  0  0  0
   -1.3250    9.7950    0.0000 C   0  0  0  0  0  0  0  0  0  0  0  0
   -0.0260    9.0450    0.0000 C   0  0  0  0  0  0  0  0  0  0  0  0
    1.2731    9.7950    0.0000 C   0  0  0  0  0  0  0  0  0  0  0  0
    6.7957    7.2405    0.0000 C   0  0  0  0  0  0  0  0  0  0  0  0
    7.5457    8.5395    0.0000 C   0  0  0  0  0  0  0  0  0  0  0  0
    2.5721    9.0450    0.0000 C   0  0  0  0  0  0  0  0  0  0  0  0
    5.3273    7.5571    0.0000 C   0  0  0  0  0  0  0  0  0  0  0  0
    6.5373    9.6529    0.0000 C   0  0  0  0  0  0  0  0  0  0  0  0
    3.8711    9.7950    0.0000 C   0  0  0  0  0  0  0  0  0  0  0  0
    5.1702    9.0450    0.0000 N   0  0  0  0  0  0  0  0  0  0  0  0
    3.8711   11.2950    0.0000 O   0  0  0  0  0  0  0  0  0  0  0  0
  2  1  1  0
  3  2  1  0
  4  3  1  0
  5  4  1  0
  6  5  1  0
  7  6  1  0
  8  7  1  0
  9  8  1  0
 10  9  1  0
 11 10  1  0
 12 11  1  0
 13 12  1  0
 14 13  1  0
 15 14  1  0
 17 16  1  0
 18 15  1  0
 19 16  1  0
 20 17  1  0
 21 18  1  0
 22 19  1  0
 22 20  1  0
 22 21  1  0
 23 21  2  0
M  END
>  <NAME>  (5248) 
1-HEPTADECANOYLPYRROLIDINE

>  <SYNONYMS>  (5248) 
N-PALMITOYLPYRROLIDINE

>  <SPECTRUM TYPE>  (5248) 
MS1

>  <INSTRUMENT TYPE>  (5248) 
EI-B

>  <INSTRUMENT>  (5248) 
SHIMADZU QP-1000

>  <ION MODE>  (5248) 
P

>  <INCHIKEY>  (5248) 
HGOPYGUCWZFCID-UHFFFAOYSA-N

>  <FORMULA>  (5248) 
C21H41NO

>  <EXACT MASS>  (5248) 
323.318814932

>  <MW>  (5248) 
323

>  <ID>  (5248) 
JP001855

>  <CONTRIBUTOR>  (5248) 
University of Tokyo Team, {Faculty of Engineering, University of Tokyo

>  <COMMENT>  (5248) 
SMILES=CCCCCCCCCCCCCCCCC(=O)N(C1)CCC1
InChI=InChI=1S/C21H41NO/c1-2-3-4-5-6-7-8-9-10-11-12-13-14-15-18-21(23)22-19-16-17-20-22/h2-20H2,1H3
computed SMILES=O=C(N1CCCC1)CCCCCCCCCCCCCCCC
accession=JP001855
date=2016.01.19 (Created 2008.10.21, modified 2011.05.06)
author=SEYAMA Y, DEPT. OF PHYSIOL. CHEMISTRY AND NUTRITION, FAC. OF MEDICINE, UNIV. OF TOKYO
license=CC BY-NC-SA
exact mass=323.31881
ionization energy=70 eV
ion type=[M]+*
computed spectral entropy=1.268073505800148
computed normalized entropy=0.4232933353205717
SPLASH=splash10-03di-0900000000-3487e43c57e2b374325b
submitter=submitter = University of Tokyo Team (Faculty of Engineering, University of Tokyo)
MoNA Rating=3.75

>  <NUM PEAKS>  (5248) 
20

>  <MASS SPECTRAL PEAKS>  (5248) 
98 9
99 1.2
112 1.7
113 99.99
126 24.7
127 6.1
140 1.2
154 2.9
168 0.6
182 1.7
196 0.7
210 0.2
224 0.2
238 0.2
252 0.2
280 0.2
294 0.5
308 0.3
323 0.5
324 0.2

>  <PREDICTED SPECTRUM>  (5248) 
39 1
41 12
43 77
53 65
54 59
55 408
56 179
57 196
58 42
59 15
65 28
67 128
68 96
69 176
70 371
71 347
72 241
73 28
78 7
79 27
81 68
83 65
84 84
85 261
87 4
95 25
97 59
98 251
99 145
100 0
103 37
111 5
112 98
113 999
114 227
126 507
127 182
138 33
140 168
141 45
151 2
154 111
155 63
168 139
169 127
182 119
183 7
196 95
197 34
210 86
224 69
225 8
238 128
252 73
264 17
266 55
280 86
294 75
308 62
322 104
323 220
324 115

$$$$

     RDKit          2D

  8  7  0  0  0  0  0  0  0  0999 V2000
    1.9486    3.3750    0.0000 C   0  0  0  0  0  0  0  0  0  0  0  0
   -5.8457    3.3750    0.0000 C   0  0  0  0  0  0  0  0  0  0  0  0
   -4.5466    5.6250    0.0000 C   0  0  0  0  0  0  0  0  0  0  0  0
    0.6495    4.1250    0.0000 C   0  0  0  0  0  0  0  0  0  0  0  0
   -0.6495    3.3750    0.0000 C   0  0  0  0  0  0  0  0  0  0  0  0
   -1.9486    4.1250    0.0000 C   0  0  0  0  0  0  0  0  0  0  0  0
   -3.2476    3.3750    0.0000 C   0  0  0  0  0  0  0  0  0  0  0  0
   -4.5466    4.1250    0.0000 C   0  0  0  0  0  0  0  0  0  0  0  0
  4  1  1  0
  5  4  1  0
  6  5  1  0
  7  6  1  0
  8  2  1  0
  8  3  1  0
  8  7  1  0
M  END
>  <NAME>  (5249) 
2-METHYLHEPTANE

>  <SYNONYMS>  (5249) 
ISOOCTANE

>  <SPECTRUM TYPE>  (5249) 
MS1

>  <INSTRUMENT TYPE>  (5249) 
EI-B

>  <INSTRUMENT>  (5249) 
HITACHI RMU-7M

>  <ION MODE>  (5249) 
P

>  <INCHIKEY>  (5249) 
JVSWJIKNEAIKJW-UHFFFAOYSA-N

>  <FORMULA>  (5249) 
C8H18

>  <EXACT MASS>  (5249) 
114.14085057599999

>  <MW>  (5249) 
114

>  <ID>  (5249) 
JP001849

>  <CONTRIBUTOR>  (5249) 
University of Tokyo Team, {Faculty of Engineering, University of Tokyo

>  <COMMENT>  (5249) 
SMILES=CCCCCC(C)C
InChI=InChI=1S/C8H18/c1-4-5-6-7-8(2)3/h8H,4-7H2,1-3H3
computed SMILES=CCCCCC(C)C
accession=JP001849
date=2016.01.19 (Created 2008.10.21, modified 2011.05.06)
author=TAJIMA S, GUNMA COLLEGE OF TECHNOLOGY
license=CC BY-NC-SA
exact mass=114.14085
ionization energy=70 eV
ion type=[M]+*
computed spectral entropy=1.635635607711186
computed normalized entropy=0.6582281905240707
SPLASH=splash10-0a4i-9000000000-8f0a0db80b2d392156d2
submitter=submitter = University of Tokyo Team (Faculty of Engineering, University of Tokyo)
MoNA Rating=3.75

>  <NUM PEAKS>  (5249) 
12

>  <MASS SPECTRAL PEAKS>  (5249) 
27 3.67
28 1.3
29 7.99
39 3.59
41 19.79
42 1.03
43 17.6
55 2.64
56 29.33
57 99.99
58 4.33
99 3.74

>  <PREDICTED SPECTRUM>  (5249) 
14 9
15 46
25 1
26 56
27 368
28 113
29 429
37 16
38 29
39 333
40 115
41 648
42 328
43 937
44 147
51 67
52 41
53 147
54 92
55 378
56 481
57 999
58 169
67 30
68 13
69 131
70 246
71 636
72 153
83 9
84 100
85 119
86 37
99 52
100 28
112 22
114 174
115 33

$$$$

     RDKit          2D

  4  3  0  0  0  0  0  0  0  0999 V2000
    0.9743    0.5625    0.0000 C   0  0  0  0  0  0  0  0  0  0  0  0
   -0.3248    1.3125    0.0000 C   0  0  0  0  0  0  0  0  0  0  0  0
   -1.6238    0.5625    0.0000 N   0  0  0  0  0  0  0  0  0  0  0  0
   -0.3248    2.8125    0.0000 O   0  0  0  0  0  0  0  0  0  0  0  0
  2  1  1  0
  3  2  2  0
  4  2  1  0
M  END
>  <NAME>  (5250) 
ACETAMIDE

>  <SYNONYMS>  (5250) 


>  <SPECTRUM TYPE>  (5250) 
MS1

>  <INSTRUMENT TYPE>  (5250) 
EI-B

>  <INSTRUMENT>  (5250) 
HITACHI RMU-7M

>  <ION MODE>  (5250) 
P

>  <INCHIKEY>  (5250) 
DLFVBJFMPXGRIB-UHFFFAOYSA-N

>  <FORMULA>  (5250) 
C2H5NO

>  <EXACT MASS>  (5250) 
59.03711378

>  <MW>  (5250) 
59

>  <ID>  (5250) 
JP001848

>  <CONTRIBUTOR>  (5250) 
University of Tokyo Team, {Faculty of Engineering, University of Tokyo

>  <COMMENT>  (5250) 
SMILES=CC(N)=O
InChI=InChI=1S/C2H5NO/c1-2(3)4/h1H3,(H2,3,4)
computed SMILES=N=C(O)C
accession=JP001848
date=2016.01.19 (Created 2008.10.21, modified 2011.05.06)
author=TAJIMA S, GUNMA COLLEGE OF TECHNOLOGY
license=CC BY-NC-SA
exact mass=59.03711
ionization energy=70 eV
ion type=[M]+*
computed spectral entropy=2.311303539983099
computed normalized entropy=0.7715320759425144
SPLASH=splash10-0006-9000000000-94d49b439405d0f3ad41
submitter=submitter = University of Tokyo Team (Faculty of Engineering, University of Tokyo)
MoNA Rating=3.75

>  <NUM PEAKS>  (5250) 
20

>  <MASS SPECTRAL PEAKS>  (5250) 
12 1.29
13 1.7
14 5.64
15 20.73
16 3.54
27 3.06
28 16.18
29 2.38
30 2.11
31 3.81
38 6.12
39 10.94
40 32.29
41 62.47
42 29.44
43 56.15
44 74.64
45 1.97
59 99.99
60 6.05

>  <PREDICTED SPECTRUM>  (5250) 
14 112
15 136
16 69
17 63
18 32
19 39
25 59
26 171
27 205
28 275
29 168
30 41
31 183
32 61
38 71
39 37
40 284
41 460
42 509
43 978
44 537
45 146
56 142
57 331
58 407
59 999
60 212
61 112

$$$$

     RDKit          2D

 14 14  0  0  0  0  0  0  0  0999 V2000
   -5.1970   -1.5006    0.0000 C   0  0  0  0  0  0  0  0  0  0  0  0
    5.1970    1.5006    0.0000 C   0  0  0  0  0  0  0  0  0  0  0  0
   -1.3000    0.7500    0.0000 C   0  0  0  0  0  0  0  0  0  0  0  0
   -0.0000   -1.5000    0.0000 C   0  0  0  0  0  0  0  0  0  0  0  0
    0.0000    1.5000    0.0000 C   0  0  0  0  0  0  0  0  0  0  0  0
    1.3000   -0.7500    0.0000 C   0  0  0  0  0  0  0  0  0  0  0  0
   -1.3000   -0.7500    0.0000 C   0  0  0  0  0  0  0  0  0  0  0  0
    1.3000    0.7500    0.0000 C   0  0  0  0  0  0  0  0  0  0  0  0
   -2.5989   -1.5002    0.0000 C   0  0  0  0  0  0  0  0  0  0  0  0
    2.5989    1.5002    0.0000 C   0  0  0  0  0  0  0  0  0  0  0  0
   -2.5987   -3.0002    0.0000 O   0  0  0  0  0  0  0  0  0  0  0  0
    2.5987    3.0002    0.0000 O   0  0  0  0  0  0  0  0  0  0  0  0
   -3.8981   -0.7504    0.0000 O   0  0  0  0  0  0  0  0  0  0  0  0
    3.8981    0.7504    0.0000 O   0  0  0  0  0  0  0  0  0  0  0  0
  5  3  2  0
  6  4  1  0
  7  3  1  0
  7  4  2  0
  8  5  1  0
  8  6  2  0
  9  7  1  0
 10  8  1  0
 11  9  2  0
 12 10  2  0
 13  1  1  0
 13  9  1  0
 14  2  1  0
 14 10  1  0
M  END
>  <NAME>  (5251) 
DIMETHYL TEREPHTHALATE

>  <SYNONYMS>  (5251) 
1,4-BENZENEDICARBOXYLIC ACID DIMETHYL ESTER

>  <SPECTRUM TYPE>  (5251) 
MS1

>  <INSTRUMENT TYPE>  (5251) 
EI-B

>  <INSTRUMENT>  (5251) 
HITACHI RMU-7M

>  <ION MODE>  (5251) 
P

>  <INCHIKEY>  (5251) 
WOZVHXUHUFLZGK-UHFFFAOYSA-N

>  <FORMULA>  (5251) 
C10H10O4

>  <EXACT MASS>  (5251) 
194.0579088

>  <MW>  (5251) 
194

>  <ID>  (5251) 
JP001842

>  <CONTRIBUTOR>  (5251) 
University of Tokyo Team, {Faculty of Engineering, University of Tokyo

>  <COMMENT>  (5251) 
SMILES=COC(=O)c(c1)ccc(c1)C(=O)OC
InChI=InChI=1S/C10H10O4/c1-13-9(11)7-3-5-8(6-4-7)10(12)14-2/h3-6H,1-2H3
computed SMILES=O=C(OC)C1=CC=C(C=C1)C(=O)OC
accession=JP001842
date=2016.01.19 (Created 2008.10.21, modified 2011.05.06)
author=TAJIMA S, GUNMA COLLEGE OF TECHNOLOGY
license=CC BY-NC-SA
exact mass=194.05791
ionization energy=70 eV
ion type=[M]+*
computed spectral entropy=2.5880492191092888
computed normalized entropy=0.746753154797105
SPLASH=splash10-03di-3900000000-7ee8d82816aa448b1a19
submitter=submitter = University of Tokyo Team (Faculty of Engineering, University of Tokyo)
MoNA Rating=3.75

>  <NUM PEAKS>  (5251) 
32

>  <MASS SPECTRAL PEAKS>  (5251) 
15 6.17
28 2.77
29 1.41
38 1.47
39 1.64
50 12.28
51 2.26
52 2.89
53 1.13
59 2.21
63 1.41
64 1.19
66 2.32
74 4.47
75 9.96
76 14.09
77 8.55
92 2.94
103 14.66
104 9.05
105 1.7
107 1.36
119 4.53
120 7.07
135 24.56
136 2.15
163 99.99
164 9.8
165 1.08
179 2.72
194 21.17
195 2.26

>  <PREDICTED SPECTRUM>  (5251) 
14 1
15 90
27 19
28 33
29 105
37 24
38 72
39 69
43 85
44 72
45 33
49 50
50 314
51 211
52 137
53 131
59 381
61 58
62 134
63 229
64 210
65 166
66 87
74 200
75 343
76 468
77 384
78 62
79 70
85 47
90 74
91 178
92 236
93 40
103 419
104 422
105 124
106 58
107 99
118 5
119 260
120 299
121 61
132 23
133 12
134 8
135 690
136 141
137 10
149 173
163 999
164 353
165 105
194 571
195 161
196 9

$$$$

     RDKit          2D

 18 18  0  0  0  0  0  0  0  0999 V2000
  -11.3663    6.5071    0.0000 C   0  0  0  0  0  0  0  0  0  0  0  0
  -10.0673    5.7571    0.0000 C   0  0  0  0  0  0  0  0  0  0  0  0
   -8.7683    6.5071    0.0000 C   0  0  0  0  0  0  0  0  0  0  0  0
   -7.4692    5.7571    0.0000 C   0  0  0  0  0  0  0  0  0  0  0  0
   -6.1702    6.5071    0.0000 C   0  0  0  0  0  0  0  0  0  0  0  0
   -4.8712    5.7571    0.0000 C   0  0  0  0  0  0  0  0  0  0  0  0
   -3.5721    6.5071    0.0000 C   0  0  0  0  0  0  0  0  0  0  0  0
    5.5212    4.2571    0.0000 C   0  0  0  0  0  0  0  0  0  0  0  0
    5.5216    5.7579    0.0000 C   0  0  0  0  0  0  0  0  0  0  0  0
    4.2216    3.5063    0.0000 C   0  0  0  0  0  0  0  0  0  0  0  0
   -2.2731    5.7571    0.0000 C   0  0  0  0  0  0  0  0  0  0  0  0
    4.2226    6.5079    0.0000 C   0  0  0  0  0  0  0  0  0  0  0  0
    2.9226    4.2563    0.0000 C   0  0  0  0  0  0  0  0  0  0  0  0
   -0.9740    6.5071    0.0000 C   0  0  0  0  0  0  0  0  0  0  0  0
    2.9231    5.7571    0.0000 C   0  0  0  0  0  0  0  0  0  0  0  0
    1.6240    6.5071    0.0000 C   0  0  0  0  0  0  0  0  0  0  0  0
    1.6240    8.0071    0.0000 O   0  0  0  0  0  0  0  0  0  0  0  0
    0.3250    5.7571    0.0000 O   0  0  0  0  0  0  0  0  0  0  0  0
  2  1  1  0
  3  2  1  0
  4  3  1  0
  5  4  1  0
  6  5  1  0
  7  6  1  0
  9  8  2  0
 10  8  1  0
 11  7  1  0
 12  9  1  0
 13 10  2  0
 14 11  1  0
 15 12  2  0
 15 13  1  0
 16 15  1  0
 17 16  2  0
 18 14  1  0
 18 16  1  0
M  END
>  <NAME>  (5252) 
NONYL-BENZOATE

>  <SYNONYMS>  (5252) 


>  <SPECTRUM TYPE>  (5252) 
MS1

>  <INSTRUMENT TYPE>  (5252) 
EI-B

>  <INSTRUMENT>  (5252) 
HITACHI RMU-7M

>  <ION MODE>  (5252) 
P

>  <INCHIKEY>  (5252) 
VUHMHACHBVTPMF-UHFFFAOYSA-N

>  <FORMULA>  (5252) 
C16H24O2

>  <EXACT MASS>  (5252) 
248.177630008

>  <MW>  (5252) 
248

>  <ID>  (5252) 
JP001840

>  <CONTRIBUTOR>  (5252) 
University of Tokyo Team, {Faculty of Engineering, University of Tokyo

>  <COMMENT>  (5252) 
SMILES=CCCCCCCCCOC(=O)c(c1)cccc1
InChI=InChI=1S/C16H24O2/c1-2-3-4-5-6-7-11-14-18-16(17)15-12-9-8-10-13-15/h8-10,12-13H,2-7,11,14H2,1H3
computed SMILES=O=C(OCCCCCCCCC)C=1C=CC=CC1
accession=JP001840
date=2016.01.19 (Created 2008.10.21, modified 2011.05.06)
author=TAJIMA S, GUNMA COLLEGE OF TECHNOLOGY
license=CC BY-NC-SA
exact mass=248.17763
ionization energy=70 eV
ion type=[M]+*
computed spectral entropy=2.9325541307069005
computed normalized entropy=0.8248289843887715
SPLASH=splash10-0ab9-9500000000-63c13dcf2bc7db2ee6e8
submitter=submitter = University of Tokyo Team (Faculty of Engineering, University of Tokyo)
MoNA Rating=3.75

>  <NUM PEAKS>  (5252) 
35

>  <MASS SPECTRAL PEAKS>  (5252) 
27 1.15
29 2.95
39 2.71
41 15.25
42 5.79
43 14.89
50 1.75
51 9.1
53 1.21
54 2.41
55 21.76
56 26.4
57 9.89
67 3.01
68 4.76
69 20.37
70 25.02
71 7.17
76 1.99
77 55.27
78 4.28
79 13.2
82 5.73
83 15.07
84 15.43
85 3.92
96 2.77
97 15.31
98 10.31
105 99.99
106 7.9
122 9.52
123 79.08
124 5.79
126 7.11

>  <PREDICTED SPECTRUM>  (5252) 
25 4
26 38
27 157
28 56
29 196
31 1
36 41
37 39
38 63
39 208
40 81
41 358
42 215
43 280
44 69
45 6
50 156
51 299
52 84
53 137
54 177
55 360
56 356
57 174
65 32
67 199
68 236
69 325
70 346
71 153
72 4
75 34
76 54
77 577
78 203
79 208
80 45
81 80
82 140
83 248
84 195
85 34
91 29
95 41
96 63
97 207
98 278
99 58
105 855
106 229
107 77
111 125
112 49
121 33
122 371
123 999
124 284
125 93
126 333
127 31
248 1

$$$$

     RDKit          2D

 20 20  0  0  0  0  0  0  0  0999 V2000
  -13.3149    7.6321    0.0000 C   0  0  0  0  0  0  0  0  0  0  0  0
  -12.0159    6.8821    0.0000 C   0  0  0  0  0  0  0  0  0  0  0  0
  -10.7168    7.6321    0.0000 C   0  0  0  0  0  0  0  0  0  0  0  0
   -9.4178    6.8821    0.0000 C   0  0  0  0  0  0  0  0  0  0  0  0
   -8.1187    7.6321    0.0000 C   0  0  0  0  0  0  0  0  0  0  0  0
   -6.8197    6.8821    0.0000 C   0  0  0  0  0  0  0  0  0  0  0  0
   -5.5207    7.6321    0.0000 C   0  0  0  0  0  0  0  0  0  0  0  0
   -4.2216    6.8821    0.0000 C   0  0  0  0  0  0  0  0  0  0  0  0
   -2.9226    7.6321    0.0000 C   0  0  0  0  0  0  0  0  0  0  0  0
    6.1707    5.3821    0.0000 C   0  0  0  0  0  0  0  0  0  0  0  0
    6.1712    6.8829    0.0000 C   0  0  0  0  0  0  0  0  0  0  0  0
    4.8712    4.6313    0.0000 C   0  0  0  0  0  0  0  0  0  0  0  0
   -1.6236    6.8821    0.0000 C   0  0  0  0  0  0  0  0  0  0  0  0
    4.8721    7.6329    0.0000 C   0  0  0  0  0  0  0  0  0  0  0  0
    3.5721    5.3813    0.0000 C   0  0  0  0  0  0  0  0  0  0  0  0
   -0.3245    7.6321    0.0000 C   0  0  0  0  0  0  0  0  0  0  0  0
    3.5726    6.8821    0.0000 C   0  0  0  0  0  0  0  0  0  0  0  0
    2.2736    7.6321    0.0000 C   0  0  0  0  0  0  0  0  0  0  0  0
    2.2736    9.1321    0.0000 O   0  0  0  0  0  0  0  0  0  0  0  0
    0.9745    6.8821    0.0000 O   0  0  0  0  0  0  0  0  0  0  0  0
  2  1  1  0
  3  2  1  0
  4  3  1  0
  5  4  1  0
  6  5  1  0
  7  6  1  0
  8  7  1  0
  9  8  1  0
 11 10  2  0
 12 10  1  0
 13  9  1  0
 14 11  1  0
 15 12  2  0
 16 13  1  0
 17 14  2  0
 17 15  1  0
 18 17  1  0
 19 18  2  0
 20 16  1  0
 20 18  1  0
M  END
>  <NAME>  (5253) 
UNDECYL BENZOATE

>  <SYNONYMS>  (5253) 


>  <SPECTRUM TYPE>  (5253) 
MS1

>  <INSTRUMENT TYPE>  (5253) 
EI-B

>  <INSTRUMENT>  (5253) 
HITACHI RMU-7M

>  <ION MODE>  (5253) 
P

>  <INCHIKEY>  (5253) 
YEHGKFOTJWYCBN-UHFFFAOYSA-N

>  <FORMULA>  (5253) 
C18H28O2

>  <EXACT MASS>  (5253) 
276.208930136

>  <MW>  (5253) 
276

>  <ID>  (5253) 
JP001839

>  <CONTRIBUTOR>  (5253) 
University of Tokyo Team, {Faculty of Engineering, University of Tokyo

>  <COMMENT>  (5253) 
SMILES=CCCCCCCCCCCOC(=O)c(c1)cccc1
InChI=InChI=1S/C18H28O2/c1-2-3-4-5-6-7-8-9-13-16-20-18(19)17-14-11-10-12-15-17/h10-12,14-15H,2-9,13,16H2,1H3
computed SMILES=O=C(OCCCCCCCCCCC)C=1C=CC=CC1
accession=JP001839
date=2016.01.19 (Created 2008.10.21, modified 2011.05.06)
author=TAJIMA S, GUNMA COLLEGE OF TECHNOLOGY
license=CC BY-NC-SA
exact mass=276.20893
ionization energy=70 eV
ion type=[M]+*
computed spectral entropy=2.9930171909082754
computed normalized entropy=0.811362157028575
SPLASH=splash10-0ab9-9700000000-0fd04ca45905d8ec1ae1
submitter=submitter = University of Tokyo Team (Faculty of Engineering, University of Tokyo)
MoNA Rating=3.75

>  <NUM PEAKS>  (5253) 
40

>  <MASS SPECTRAL PEAKS>  (5253) 
27 1.17
29 3.13
39 2.02
41 15.73
42 3.85
43 15.4
51 5.16
54 2.15
55 22.52
56 17.56
57 13.12
67 4.77
68 4.9
69 22.45
70 21.34
71 5.74
76 1.11
77 42.43
78 2.87
79 12.27
81 2.55
82 8.94
83 22.13
84 16.84
85 3.39
96 5.03
97 20.56
98 7.9
105 99.99
106 7.57
110 1.11
111 7.7
112 2.68
122 9.4
123 98.24
124 7.31
125 2.74
126 3.2
141 2.09
154 3.46

>  <PREDICTED SPECTRUM>  (5253) 
25 4
26 29
27 96
28 43
29 187
36 40
37 27
38 41
39 188
40 67
41 354
42 195
43 281
44 53
50 129
51 248
52 56
53 120
54 174
55 366
56 317
57 211
58 5
65 21
66 10
67 215
68 244
69 347
70 301
71 171
72 22
75 26
76 41
77 516
78 172
79 198
80 29
81 119
82 177
83 298
84 200
85 86
87 7
91 22
95 80
96 100
97 267
98 254
99 59
105 747
106 197
107 82
108 49
110 21
111 175
112 133
121 57
122 354
123 999
124 268
125 116
126 156
127 31
136 21
153 43
154 298
155 19

$$$$

     RDKit          2D

  8  7  0  0  0  0  0  0  0  0999 V2000
    0.0000    0.0000    0.0000 C   0  0  0  0  0  0  0  0  0  0  0  0
   -2.5981    6.0000    0.0000 C   0  0  0  0  0  0  0  0  0  0  0  0
   -1.2990    2.2500    0.0000 C   0  0  0  0  0  0  0  0  0  0  0  0
   -1.2990    3.7500    0.0000 C   0  0  0  0  0  0  0  0  0  0  0  0
    0.0000    1.5000    0.0000 C   0  0  0  0  0  0  0  0  0  0  0  0
   -2.5981    4.5000    0.0000 C   0  0  0  0  0  0  0  0  0  0  0  0
    1.2990    2.2500    0.0000 O   0  0  0  0  0  0  0  0  0  0  0  0
   -3.8971    3.7500    0.0000 O   0  0  0  0  0  0  0  0  0  0  0  0
  4  3  1  0
  5  1  1  0
  5  3  1  0
  6  2  1  0
  6  4  1  0
  7  5  1  0
  8  6  1  0
M  END
>  <NAME>  (5254) 
2,5-HEXANEDIOL

>  <SYNONYMS>  (5254) 
2,5-DIHYDROXYHEXANE

>  <SPECTRUM TYPE>  (5254) 
MS1

>  <INSTRUMENT TYPE>  (5254) 
EI-B

>  <INSTRUMENT>  (5254) 
HITACHI RMU-7M

>  <ION MODE>  (5254) 
P

>  <INCHIKEY>  (5254) 
OHMBHFSEKCCCBW-UHFFFAOYSA-N

>  <FORMULA>  (5254) 
C6H14O2

>  <EXACT MASS>  (5254) 
118.099379688

>  <MW>  (5254) 
118

>  <ID>  (5254) 
JP001828

>  <CONTRIBUTOR>  (5254) 
University of Tokyo Team, {Faculty of Engineering, University of Tokyo

>  <COMMENT>  (5254) 
SMILES=CC(O)CCC(C)O
InChI=InChI=1S/C6H14O2/c1-5(7)3-4-6(2)8/h5-8H,3-4H2,1-2H3
computed SMILES=OC(C)CCC(O)C
accession=JP001828
date=2016.01.19 (Created 2008.10.21, modified 2011.05.06)
author=TAJIMA S, GUNMA COLLEGE OF TECHNOLOGY
license=CC BY-NC-SA
exact mass=118.09938
ionization energy=70 eV
ion type=[M]+*
computed spectral entropy=2.4418118188957965
computed normalized entropy=0.7683355755583464
SPLASH=splash10-0a4m-9000000000-c341ee689b419a250560
submitter=submitter = University of Tokyo Team (Faculty of Engineering, University of Tokyo)
MoNA Rating=3.75

>  <NUM PEAKS>  (5254) 
24

>  <MASS SPECTRAL PEAKS>  (5254) 
15 2.47
19 2.95
27 8.52
28 7.76
29 15.8
31 3.98
39 4.26
40 2.06
41 48.56
42 3.09
43 38.8
44 4.05
45 75.89
46 1.51
55 12.36
56 99.99
57 19.37
58 18.2
59 2.06
67 10.1
71 1.44
83 1.58
85 36.88
86 1.72

>  <PREDICTED SPECTRUM>  (5254) 
14 26
15 79
16 11
17 5
18 27
19 48
25 10
26 78
27 229
28 207
29 248
30 134
31 205
32 5
33 18
37 13
38 40
39 257
40 101
41 422
42 283
43 456
44 258
45 999
46 191
47 19
53 89
54 86
55 307
56 507
57 242
58 79
59 310
60 23
61 38
67 182
68 129
69 6
71 297
72 64
73 225
74 403
75 13
85 222
99 31
100 76
101 2
103 130

$$$$

     RDKit          2D

  9  9  0  0  0  0  0  0  0  0999 V2000
   -2.9297    0.1864    0.0000 C   0  0  0  0  0  0  0  0  0  0  0  0
    2.2664   -1.3093    0.0000 C   0  0  0  0  0  0  0  0  0  0  0  0
    0.9719   -2.0515    0.0000 C   0  0  0  0  0  0  0  0  0  0  0  0
    2.2669    0.1916    0.0000 C   0  0  0  0  0  0  0  0  0  0  0  0
   -0.3272   -1.3015    0.0000 C   0  0  0  0  0  0  0  0  0  0  0  0
    0.9678    0.9416    0.0000 C   0  0  0  0  0  0  0  0  0  0  0  0
   -0.3317    0.1907    0.0000 C   0  0  0  0  0  0  0  0  0  0  0  0
    0.9676    2.4416    0.0000 N   0  0  0  0  0  0  0  0  0  0  0  0
   -1.6320    0.9385    0.0000 O   0  0  0  0  0  0  0  0  0  0  0  0
  3  2  2  0
  4  2  1  0
  5  3  1  0
  6  4  2  0
  7  5  2  0
  7  6  1  0
  8  6  1  0
  9  1  1  0
  9  7  1  0
M  END
>  <NAME>  (5255) 
ORTHO-ANISIDINE

>  <SYNONYMS>  (5255) 
ORTHO-METHOXYANILINE

>  <SPECTRUM TYPE>  (5255) 
MS1

>  <INSTRUMENT TYPE>  (5255) 
EI-B

>  <INSTRUMENT>  (5255) 
HITACHI RMU-7M

>  <ION MODE>  (5255) 
P

>  <INCHIKEY>  (5255) 
VMPITZXILSNTON-UHFFFAOYSA-N

>  <FORMULA>  (5255) 
C7H9NO

>  <EXACT MASS>  (5255) 
123.068413908

>  <MW>  (5255) 
123

>  <ID>  (5255) 
JP001818

>  <CONTRIBUTOR>  (5255) 
University of Tokyo Team, {Faculty of Engineering, University of Tokyo

>  <COMMENT>  (5255) 
SMILES=COc(c1)c(N)ccc1
InChI=InChI=1S/C7H9NO/c1-9-7-5-3-2-4-6(7)8/h2-5H,8H2,1H3
computed SMILES=O(C=1C=CC=CC1N)C
accession=JP001818
date=2016.01.19 (Created 2008.10.21, modified 2011.05.06)
author=TAJIMA S, GUNMA COLLEGE OF TECHNOLOGY
license=CC BY-NC-SA
exact mass=123.06841
ionization energy=70 eV
ion type=[M]+*
computed spectral entropy=2.484268697457891
computed normalized entropy=0.704485171075439
SPLASH=splash10-0ac0-8900000000-1e225ec069e10e5f0553
submitter=submitter = University of Tokyo Team (Faculty of Engineering, University of Tokyo)
MoNA Rating=3.75

>  <NUM PEAKS>  (5255) 
34

>  <MASS SPECTRAL PEAKS>  (5255) 
15 2.44
26 1.4
27 5.98
28 7.8
29 1.28
37 1.28
38 3.54
38.5 1.1
39 10.3
40 1.22
41 3.11
50 3.66
51 6.71
52 13.6
53 20.67
54 3.66
62 1.46
63 3.66
64 2.32
65 12.8
66 2.5
77 2.13
78 2.5
79 2.13
80 67.56
81 4.57
91 1
92 5.98
93 2.13
94 1.89
108 99.99
109 7.62
123 85.85
124 7.43

>  <PREDICTED SPECTRUM>  (5255) 
14 26
15 133
16 19
18 2
25 35
26 126
27 255
28 158
29 207
31 116
33 18
36 11
37 141
38 229
39 446
40 179
41 316
42 190
47 2
48 42
49 76
50 235
51 386
52 484
53 441
54 255
55 60
57 0
60 31
61 127
62 167
63 263
64 264
65 387
66 164
67 248
68 45
69 51
74 17
75 17
76 69
77 124
78 288
79 237
80 829
81 340
82 61
90 140
91 138
92 307
93 188
94 221
95 115
96 18
104 45
105 44
106 104
107 159
108 999
109 306
110 32
120 59
122 84
123 982
124 277
125 20

$$$$

     RDKit          2D

 12 12  0  0  0  0  0  0  0  0999 V2000
   -4.8712    2.0071    0.0000 C   0  0  0  0  0  0  0  0  0  0  0  0
   -3.5721    4.2571    0.0000 C   0  0  0  0  0  0  0  0  0  0  0  0
    2.9231    0.5071    0.0000 C   0  0  0  0  0  0  0  0  0  0  0  0
    2.9236    2.0079    0.0000 C   0  0  0  0  0  0  0  0  0  0  0  0
    1.6236   -0.2437    0.0000 C   0  0  0  0  0  0  0  0  0  0  0  0
    1.6245    2.7579    0.0000 C   0  0  0  0  0  0  0  0  0  0  0  0
    0.3245    0.5063    0.0000 C   0  0  0  0  0  0  0  0  0  0  0  0
   -2.2731    2.0071    0.0000 C   0  0  0  0  0  0  0  0  0  0  0  0
   -3.5721    2.7571    0.0000 C   0  0  0  0  0  0  0  0  0  0  0  0
    0.3250    2.0071    0.0000 C   0  0  0  0  0  0  0  0  0  0  0  0
   -0.9740    2.7571    0.0000 C   0  0  0  0  0  0  0  0  0  0  0  0
   -0.9740    4.2571    0.0000 O   0  0  0  0  0  0  0  0  0  0  0  0
  4  3  2  0
  5  3  1  0
  6  4  1  0
  7  5  2  0
  9  1  1  0
  9  2  1  0
  9  8  1  0
 10  6  2  0
 10  7  1  0
 11  8  1  0
 11 10  1  0
 12 11  2  0
M  END
>  <NAME>  (5256) 
ISOBUTYL PHENYL KETONE

>  <SYNONYMS>  (5256) 


>  <SPECTRUM TYPE>  (5256) 
MS1

>  <INSTRUMENT TYPE>  (5256) 
EI-B

>  <INSTRUMENT>  (5256) 
HITACHI RMU-7M

>  <ION MODE>  (5256) 
P

>  <INCHIKEY>  (5256) 
HEOVGVNITGAUKL-UHFFFAOYSA-N

>  <FORMULA>  (5256) 
C11H14O

>  <EXACT MASS>  (5256) 
162.104465068

>  <MW>  (5256) 
162

>  <ID>  (5256) 
JP001817

>  <CONTRIBUTOR>  (5256) 
University of Tokyo Team, {Faculty of Engineering, University of Tokyo

>  <COMMENT>  (5256) 
SMILES=CC(C)CC(=O)c(c1)cccc1
InChI=InChI=1S/C11H14O/c1-9(2)8-11(12)10-6-4-3-5-7-10/h3-7,9H,8H2,1-2H3
computed SMILES=O=C(C=1C=CC=CC1)CC(C)C
accession=JP001817
date=2016.01.19 (Created 2008.10.21, modified 2011.05.06)
author=TAJIMA S, GUNMA COLLEGE OF TECHNOLOGY
license=CC BY-NC-SA
exact mass=162.10447
ionization energy=70 eV
ion type=[M]+*
computed spectral entropy=1.982525438523193
computed normalized entropy=0.6733117760465318
SPLASH=splash10-0a4i-5900000000-604a50e6b49857c08c75
submitter=submitter = University of Tokyo Team (Faculty of Engineering, University of Tokyo)
MoNA Rating=3.75

>  <NUM PEAKS>  (5256) 
19

>  <MASS SPECTRAL PEAKS>  (5256) 
28 4.11
30 3.1
39 4.76
43 1.79
50 3.51
51 13.93
52 1.07
57 1.49
69 1.73
77 45.83
78 6.07
91 1.73
105 99.99
106 7.38
120 22.92
121 1.73
147 3.39
162 11.55
163 1.49

>  <PREDICTED SPECTRUM>  (5256) 
26 15
27 112
29 64
37 1
38 22
39 133
40 41
41 231
42 54
43 215
44 15
50 160
51 289
52 88
53 54
57 136
62 17
63 36
64 41
65 61
66 13
74 81
75 91
76 107
77 499
78 222
79 81
85 36
91 36
92 58
102 20
104 59
105 999
106 284
119 32
120 481
121 70
122 25
147 104
162 131
163 19

$$$$

     RDKit          2D

  7  6  0  0  0  0  0  0  0  0999 V2000
    1.6238    1.6875    0.0000 C   0  0  0  0  0  0  0  0  0  0  0  0
    0.3248    3.9375    0.0000 C   0  0  0  0  0  0  0  0  0  0  0  0
   -3.5724    1.6875    0.0000 C   0  0  0  0  0  0  0  0  0  0  0  0
   -0.9743    1.6875    0.0000 C   0  0  0  0  0  0  0  0  0  0  0  0
    0.3248    2.4375    0.0000 C   0  0  0  0  0  0  0  0  0  0  0  0
   -2.2733    2.4375    0.0000 C   0  0  0  0  0  0  0  0  0  0  0  0
   -2.2733    3.9375    0.0000 O   0  0  0  0  0  0  0  0  0  0  0  0
  5  1  1  0
  5  2  1  0
  5  4  1  0
  6  3  1  0
  6  4  1  0
  7  6  1  0
M  END
>  <NAME>  (5257) 
4-METHYL-2-PENTANOL

>  <SYNONYMS>  (5257) 


>  <SPECTRUM TYPE>  (5257) 
MS1

>  <INSTRUMENT TYPE>  (5257) 
EI-B

>  <INSTRUMENT>  (5257) 
HITACHI RMU-7M

>  <ION MODE>  (5257) 
P

>  <INCHIKEY>  (5257) 
WVYWICLMDOOCFB-UHFFFAOYSA-N

>  <FORMULA>  (5257) 
C6H14O

>  <EXACT MASS>  (5257) 
102.104465068

>  <MW>  (5257) 
102

>  <ID>  (5257) 
JP001816

>  <CONTRIBUTOR>  (5257) 
University of Tokyo Team, {Faculty of Engineering, University of Tokyo

>  <COMMENT>  (5257) 
SMILES=CC(C)CC(C)O
InChI=InChI=1S/C6H14O/c1-5(2)4-6(3)7/h5-7H,4H2,1-3H3
computed SMILES=OC(C)CC(C)C
accession=JP001816
date=2016.01.19 (Created 2008.10.21, modified 2011.05.06)
author=TAJIMA S, GUNMA COLLEGE OF TECHNOLOGY
license=CC BY-NC-SA
exact mass=102.10447
ionization energy=70 eV
ion type=[M]+*
computed spectral entropy=1.997942077234718
computed normalized entropy=0.6912405201083802
SPLASH=splash10-0002-9000000000-249727e6c8ac064ea5fc
submitter=submitter = University of Tokyo Team (Faculty of Engineering, University of Tokyo)
MoNA Rating=3.75

>  <NUM PEAKS>  (5257) 
18

>  <MASS SPECTRAL PEAKS>  (5257) 
15 1.98
19 1.35
27 7.54
29 5.08
31 1.75
39 5.95
41 14.84
42 4.76
43 22.14
44 6.59
45 99.99
46 2.22
55 1.83
56 4.44
57 4.76
69 14.29
84 3.1
87 4.6

>  <PREDICTED SPECTRUM>  (5257) 
14 50
15 121
16 17
17 7
18 33
19 75
25 10
26 64
27 341
28 156
29 322
31 122
32 31
37 16
38 63
39 340
40 124
41 651
42 271
43 774
44 347
45 999
46 149
47 6
50 44
51 95
52 30
53 126
55 186
56 243
57 254
58 191
59 8
69 516
84 77
85 96
87 213

$$$$

     RDKit          2D

  6  5  0  0  0  0  0  0  0  0999 V2000
   -0.0000   -0.0000    0.0000 C   0  0  0  0  0  0  0  0  0  0  0  0
    1.2990    2.2500    0.0000 C   0  0  0  0  0  0  0  0  0  0  0  0
   -1.2990    3.7500    0.0000 C   0  0  0  0  0  0  0  0  0  0  0  0
   -0.0000    1.5000    0.0000 C   0  0  0  0  0  0  0  0  0  0  0  0
   -1.2990    2.2500    0.0000 C   0  0  0  0  0  0  0  0  0  0  0  0
   -2.5981    1.5000    0.0000 O   0  0  0  0  0  0  0  0  0  0  0  0
  4  1  1  0
  4  2  1  0
  5  3  1  0
  5  4  1  0
  6  5  1  0
M  END
>  <NAME>  (5258) 
3-METHYL-2-BUTANOL

>  <SYNONYMS>  (5258) 


>  <SPECTRUM TYPE>  (5258) 
MS1

>  <INSTRUMENT TYPE>  (5258) 
EI-B

>  <INSTRUMENT>  (5258) 
HITACHI RMU-7M

>  <ION MODE>  (5258) 
P

>  <INCHIKEY>  (5258) 
MXLMTQWGSQIYOW-UHFFFAOYSA-N

>  <FORMULA>  (5258) 
C5H12O

>  <EXACT MASS>  (5258) 
88.088815004

>  <MW>  (5258) 
88

>  <ID>  (5258) 
JP001815

>  <CONTRIBUTOR>  (5258) 
University of Tokyo Team, {Faculty of Engineering, University of Tokyo

>  <COMMENT>  (5258) 
SMILES=CC(C)C(C)O
InChI=InChI=1S/C5H12O/c1-4(2)5(3)6/h4-6H,1-3H3
computed SMILES=OC(C)C(C)C
accession=JP001815
date=2016.01.19 (Created 2008.10.21, modified 2011.05.06)
author=TAJIMA S, GUNMA COLLEGE OF TECHNOLOGY
license=CC BY-NC-SA
exact mass=88.08882
ionization energy=70 eV
ion type=[M]+*
computed spectral entropy=1.8265896887701552
computed normalized entropy=0.6203523665099883
SPLASH=splash10-0002-9000000000-44d9d7a94ff7c2651021
submitter=submitter = University of Tokyo Team (Faculty of Engineering, University of Tokyo)
MoNA Rating=3.75

>  <NUM PEAKS>  (5258) 
19

>  <MASS SPECTRAL PEAKS>  (5258) 
15 1.03
19 1.27
27 6.22
28 1.15
29 3.26
31 2.11
39 4.23
41 7.55
42 2.17
43 12.44
44 10.75
45 99.99
46 2.17
55 14.86
57 1.09
69 1
71 2.29
73 10.39
88 0.48

>  <PREDICTED SPECTRUM>  (5258) 
14 22
15 76
16 11
19 57
26 60
27 274
28 114
29 224
31 170
32 18
38 18
39 186
40 7
41 380
42 198
43 524
44 627
45 999
46 168
53 40
55 292
56 102
57 10
73 275

$$$$

     RDKit          2D

  6  5  0  0  0  0  0  0  0  0999 V2000
    1.2990    2.2500    0.0000 C   0  0  0  0  0  0  0  0  0  0  0  0
    0.0000    3.0000    0.0000 C   0  0  0  0  0  0  0  0  0  0  0  0
   -2.5981    3.0000    0.0000 C   0  0  0  0  0  0  0  0  0  0  0  0
   -1.2990    2.2500    0.0000 C   0  0  0  0  0  0  0  0  0  0  0  0
   -3.8971    2.2500    0.0000 O   0  0  0  0  0  0  0  0  0  0  0  0
   -1.2990    0.7500    0.0000 O   0  0  0  0  0  0  0  0  0  0  0  0
  2  1  1  0
  4  2  1  0
  4  3  1  0
  5  3  1  0
  6  4  1  0
M  END
>  <NAME>  (5259) 
1,2-DIHYDROXYLBUTANE

>  <SYNONYMS>  (5259) 
1,2-BUTANEDIOL

>  <SPECTRUM TYPE>  (5259) 
MS1

>  <INSTRUMENT TYPE>  (5259) 
EI-B

>  <INSTRUMENT>  (5259) 
HITACHI RMU-7M

>  <ION MODE>  (5259) 
P

>  <INCHIKEY>  (5259) 
BMRWNKZVCUKKSR-UHFFFAOYSA-N

>  <FORMULA>  (5259) 
C4H10O2

>  <EXACT MASS>  (5259) 
90.06807956

>  <MW>  (5259) 
90

>  <ID>  (5259) 
JP001810

>  <CONTRIBUTOR>  (5259) 
University of Tokyo Team, {Faculty of Engineering, University of Tokyo

>  <COMMENT>  (5259) 
SMILES=CCC(O)CO
InChI=InChI=1S/C4H10O2/c1-2-4(6)3-5/h4-6H,2-3H2,1H3
computed SMILES=OCC(O)CC
accession=JP001810
date=2016.01.19 (Created 2008.10.21, modified 2011.05.06)
author=TAJIMA S, GUNMA COLLEGE OF TECHNOLOGY
license=CC BY-NC-SA
exact mass=90.06808
ionization energy=70 eV
ion type=[M]+*
computed spectral entropy=2.202067301890219
computed normalized entropy=0.6928980500148193
SPLASH=splash10-0a59-9000000000-2535214e40df35508a77
submitter=submitter = University of Tokyo Team (Faculty of Engineering, University of Tokyo)
MoNA Rating=3.75

>  <NUM PEAKS>  (5259) 
24

>  <MASS SPECTRAL PEAKS>  (5259) 
15 4.46
18 1.28
19 1
26 1.15
27 7.72
28 2.23
29 9.69
30 1
31 61.42
32 1.02
33 1.08
39 4.15
41 27.17
42 3.25
43 20.41
44 2.1
45 1.21
55 3.64
57 4.78
58 9.76
59 99.99
60 3.89
61 20.41
73 1.47

>  <PREDICTED SPECTRUM>  (5259) 
14 82
15 210
16 34
17 42
18 86
19 96
25 30
26 182
27 545
28 308
29 646
30 216
31 999
32 176
33 171
35 18
36 1
37 15
38 110
39 368
40 163
41 667
42 423
43 488
44 310
45 253
50 54
51 8
53 121
54 49
55 64
57 436
59 787
60 455
61 284
71 178
72 287

$$$$

     RDKit          2D

  6  5  0  0  0  0  0  0  0  0999 V2000
    1.2990    2.2500    0.0000 C   0  0  0  0  0  0  0  0  0  0  0  0
    0.0000    3.0000    0.0000 C   0  0  0  0  0  0  0  0  0  0  0  0
   -2.5981    3.0000    0.0000 C   0  0  0  0  0  0  0  0  0  0  0  0
   -1.2990    2.2500    0.0000 C   0  0  0  0  0  0  0  0  0  0  0  0
   -1.2990    0.7500    0.0000 N   0  0  0  0  0  0  0  0  0  0  0  0
   -3.8971    2.2500    0.0000 O   0  0  0  0  0  0  0  0  0  0  0  0
  2  1  1  0
  4  2  1  0
  4  3  1  0
  5  4  1  0
  6  3  1  0
M  END
>  <NAME>  (5260) 
2-AMINO-1-BUTANOL

>  <SYNONYMS>  (5260) 


>  <SPECTRUM TYPE>  (5260) 
MS1

>  <INSTRUMENT TYPE>  (5260) 
EI-B

>  <INSTRUMENT>  (5260) 
HITACHI RMU-7M

>  <ION MODE>  (5260) 
P

>  <INCHIKEY>  (5260) 
JCBPETKZIGVZRE-UHFFFAOYSA-N

>  <FORMULA>  (5260) 
C4H11NO

>  <EXACT MASS>  (5260) 
89.084063972

>  <MW>  (5260) 
89

>  <ID>  (5260) 
JP001800

>  <CONTRIBUTOR>  (5260) 
University of Tokyo Team, {Faculty of Engineering, University of Tokyo

>  <COMMENT>  (5260) 
SMILES=CCC(N)CO
InChI=InChI=1S/C4H11NO/c1-2-4(5)3-6/h4,6H,2-3,5H2,1H3
computed SMILES=OCC(N)CC
accession=JP001800
date=2016.01.19 (Created 2008.10.21, modified 2011.05.06)
author=TAJIMA S, GUNMA COLLEGE OF TECHNOLOGY
license=CC BY-NC-SA
exact mass=89.08406
ionization energy=70 eV
ion type=[M]+*
computed spectral entropy=2.223497911629006
computed normalized entropy=0.709137940785552
SPLASH=splash10-0a4i-9000000000-7129a19c0febef7f10c3
submitter=submitter = University of Tokyo Team (Faculty of Engineering, University of Tokyo)
MoNA Rating=3.75

>  <NUM PEAKS>  (5260) 
23

>  <MASS SPECTRAL PEAKS>  (5260) 
15 2.63
18 5.33
26 0.93
27 4.1
28 9.97
29 3.71
30 13.91
31 3.48
39 3.25
41 32.53
42 16.77
43 8.96
44 2.78
54 1.08
55 1
56 4.4
57 2.16
58 99.99
59 4.25
60 17.77
70 1.16
72 2.7
90 2.24

>  <PREDICTED SPECTRUM>  (5260) 
14 52
15 177
16 27
17 63
18 130
19 24
25 6
26 118
27 370
28 361
29 396
30 580
31 361
32 91
33 53
35 31
36 35
37 15
38 76
39 212
40 119
41 294
42 454
43 454
44 256
45 232
46 150
47 41
49 10
50 24
51 36
52 56
53 33
54 79
55 34
56 213
57 66
58 999
59 319
60 523
61 97
70 1
71 167
72 140
74 33
88 28

$$$$

     RDKit          2D

  5  4  0  0  0  0  0  0  0  0999 V2000
   -1.2990    2.2500    0.0000 C   0  0  0  0  0  0  0  0  0  0  0  0
   -2.5981    1.5000    0.0000 C   0  0  0  0  0  0  0  0  0  0  0  0
    0.0000    1.5000    0.0000 C   0  0  0  0  0  0  0  0  0  0  0  0
   -3.8971    2.2500    0.0000 N   0  0  0  0  0  0  0  0  0  0  0  0
    1.2990    2.2500    0.0000 O   0  0  0  0  0  0  0  0  0  0  0  0
  2  1  1  0
  3  1  1  0
  4  2  1  0
  5  3  1  0
M  END
>  <NAME>  (5261) 
3-AMINO-1-PROPANOL

>  <SYNONYMS>  (5261) 


>  <SPECTRUM TYPE>  (5261) 
MS1

>  <INSTRUMENT TYPE>  (5261) 
EI-B

>  <INSTRUMENT>  (5261) 
HITACHI RMU-7M

>  <ION MODE>  (5261) 
P

>  <INCHIKEY>  (5261) 
WUGQZFFCHPXWKQ-UHFFFAOYSA-N

>  <FORMULA>  (5261) 
C3H9NO

>  <EXACT MASS>  (5261) 
75.068413908

>  <MW>  (5261) 
75

>  <ID>  (5261) 
JP001798

>  <CONTRIBUTOR>  (5261) 
University of Tokyo Team, {Faculty of Engineering, University of Tokyo

>  <COMMENT>  (5261) 
SMILES=NCCCO
InChI=InChI=1S/C3H9NO/c4-2-1-3-5/h5H,1-4H2
computed SMILES=OCCCN
accession=JP001798
date=2016.01.19 (Created 2008.10.21, modified 2011.05.06)
author=TAJIMA S, GUNMA COLLEGE OF TECHNOLOGY
license=CC BY-NC-SA
exact mass=75.06841
ionization energy=70 eV
ion type=[M]+*
computed spectral entropy=1.8195525763478309
computed normalized entropy=0.6179623993644248
SPLASH=splash10-001i-9000000000-1d41272cc15beccdffac
submitter=submitter = University of Tokyo Team (Faculty of Engineering, University of Tokyo)
MoNA Rating=3.75

>  <NUM PEAKS>  (5261) 
19

>  <MASS SPECTRAL PEAKS>  (5261) 
15 1.38
17 2.06
18 21.75
26 1.38
27 3.92
28 10.74
29 4.13
30 99.99
31 6.33
41 2.2
42 3.44
43 2.27
44 7.09
45 3.17
55 1.31
56 3.51
57 2.75
58 1.79
75 2.41

>  <PREDICTED SPECTRUM>  (5261) 
14 62
15 106
16 82
17 121
18 170
19 41
25 27
26 96
27 259
28 384
29 362
30 999
31 581
32 143
33 58
36 20
37 50
38 103
39 155
40 131
41 355
42 365
43 417
44 394
45 508
46 95
50 7
52 58
54 258
55 491
56 608
57 765
58 502
59 132
72 15
73 76
74 58
75 273
76 106

$$$$

     RDKit          2D

 14 14  0  0  0  0  0  0  0  0999 V2000
    6.4962    0.7508    0.0000 C   0  0  0  0  0  0  0  0  0  0  0  0
    5.1968    3.0006    0.0000 C   0  0  0  0  0  0  0  0  0  0  0  0
   -1.3000    0.7500    0.0000 C   0  0  0  0  0  0  0  0  0  0  0  0
   -0.0000   -1.5000    0.0000 C   0  0  0  0  0  0  0  0  0  0  0  0
    0.0000    1.5000    0.0000 C   0  0  0  0  0  0  0  0  0  0  0  0
    1.3000   -0.7500    0.0000 C   0  0  0  0  0  0  0  0  0  0  0  0
   -2.5989   -1.5002    0.0000 C   0  0  0  0  0  0  0  0  0  0  0  0
    5.1970    1.5006    0.0000 C   0  0  0  0  0  0  0  0  0  0  0  0
   -1.3000   -0.7500    0.0000 C   0  0  0  0  0  0  0  0  0  0  0  0
    1.3000    0.7500    0.0000 C   0  0  0  0  0  0  0  0  0  0  0  0
    2.5989    1.5002    0.0000 C   0  0  0  0  0  0  0  0  0  0  0  0
   -3.8978   -2.2504    0.0000 N   0  0  0  0  0  0  0  0  0  0  0  0
    2.5987    3.0002    0.0000 O   0  0  0  0  0  0  0  0  0  0  0  0
    3.8981    0.7504    0.0000 O   0  0  0  0  0  0  0  0  0  0  0  0
  5  3  2  0
  6  4  1  0
  8  1  1  0
  8  2  1  0
  9  3  1  0
  9  4  2  0
  9  7  1  0
 10  5  1  0
 10  6  2  0
 11 10  1  0
 12  7  3  0
 13 11  2  0
 14  8  1  0
 14 11  1  0
M  END
>  <NAME>  (5262) 
ISOPROPYL 4-CYANOBENZOATE

>  <SYNONYMS>  (5262) 


>  <SPECTRUM TYPE>  (5262) 
MS1

>  <INSTRUMENT TYPE>  (5262) 
EI-B

>  <INSTRUMENT>  (5262) 
HITACHI RMU-7M

>  <ION MODE>  (5262) 
P

>  <INCHIKEY>  (5262) 
NFNBGZCLCQVHRY-UHFFFAOYSA-N

>  <FORMULA>  (5262) 
C11H11NO2

>  <EXACT MASS>  (5262) 
189.078978592

>  <MW>  (5262) 
189

>  <ID>  (5262) 
JP001796

>  <CONTRIBUTOR>  (5262) 
University of Tokyo Team, {Faculty of Engineering, University of Tokyo

>  <COMMENT>  (5262) 
SMILES=N#Cc(c1)ccc(c1)C(=O)OC(C)C
InChI=InChI=1S/C11H11NO2/c1-8(2)14-11(13)10-5-3-9(7-12)4-6-10/h3-6,8H,1-2H3
computed SMILES=N#CC1=CC=C(C=C1)C(=O)OC(C)C
accession=JP001796
date=2016.01.19 (Created 2008.10.21, modified 2011.05.06)
author=TAJIMA S, GUNMA COLLEGE OF TECHNOLOGY
license=CC BY-NC-SA
exact mass=189.07898
ionization energy=70 eV
ion type=[M]+*
computed spectral entropy=2.561564901610387
computed normalized entropy=0.7772122849987632
SPLASH=splash10-001l-4900000000-cf63cb13e9f9f5cba855
submitter=submitter = University of Tokyo Team (Faculty of Engineering, University of Tokyo)
MoNA Rating=3.75

>  <NUM PEAKS>  (5262) 
27

>  <MASS SPECTRAL PEAKS>  (5262) 
27 6.49
29 9.86
34 1.16
39 4.35
40 21.16
41 11.3
42 17.1
43 22.32
44 3.19
50 4.06
51 5.8
52 1.16
74 1.16
75 8.12
76 5.22
102 30.14
103 6.09
104 3.19
130 99.99
131 12.17
147 4.06
148 53.91
149 5.8
171 0.88
174 4.06
189 5.91
190 0.88

>  <PREDICTED SPECTRUM>  (5262) 
14 20
15 100
16 1
25 31
26 129
27 350
28 121
29 208
30 66
31 156
33 23
34 7
36 76
37 105
38 168
39 335
40 152
41 384
42 282
43 537
44 175
45 101
49 74
50 326
51 280
52 125
53 79
54 14
55 12
57 56
58 118
59 531
60 73
61 32
62 65
63 84
64 77
65 38
66 22
68 58
69 3
73 51
74 231
75 345
76 321
77 118
79 30
84 7
85 25
86 13
87 69
90 35
92 0
93 36
101 91
102 640
103 247
104 116
105 8
119 99
129 22
130 999
131 336
132 78
146 30
147 609
148 326
149 152
150 123
174 28
189 130
190 9

$$$$

     RDKit          2D

 20 20  0  0  0  0  0  0  0  0999 V2000
    6.4962    0.7508    0.0000 C   0  0  0  0  0  0  0  0  0  0  0  0
    5.7464   -0.5483    0.0000 H   0  0  0  0  0  0  0  0  0  0  0  0
    7.7953    0.0010    0.0000 H   0  0  0  0  0  0  0  0  0  0  0  0
    7.2459    2.0500    0.0000 H   0  0  0  0  0  0  0  0  0  0  0  0
    5.1968    3.0006    0.0000 C   0  0  0  0  0  0  0  0  0  0  0  0
    6.6968    3.0009    0.0000 H   0  0  0  0  0  0  0  0  0  0  0  0
    5.1965    4.5006    0.0000 H   0  0  0  0  0  0  0  0  0  0  0  0
    3.6968    3.0004    0.0000 H   0  0  0  0  0  0  0  0  0  0  0  0
   -1.3000    0.7500    0.0000 C   0  0  0  0  0  0  0  0  0  0  0  0
    0.0000   -1.5000    0.0000 C   0  0  0  0  0  0  0  0  0  0  0  0
    0.0000    1.5000    0.0000 C   0  0  0  0  0  0  0  0  0  0  0  0
    1.3000   -0.7500    0.0000 C   0  0  0  0  0  0  0  0  0  0  0  0
   -2.5989   -1.5002    0.0000 C   0  0  0  0  0  0  0  0  0  0  0  0
    5.1970    1.5006    0.0000 C   0  0  0  0  0  0  0  0  0  0  0  0
   -1.3000   -0.7500    0.0000 C   0  0  0  0  0  0  0  0  0  0  0  0
    1.3000    0.7500    0.0000 C   0  0  0  0  0  0  0  0  0  0  0  0
    2.5989    1.5002    0.0000 C   0  0  0  0  0  0  0  0  0  0  0  0
   -3.8978   -2.2504    0.0000 N   0  0  0  0  0  0  0  0  0  0  0  0
    2.5987    3.0002    0.0000 O   0  0  0  0  0  0  0  0  0  0  0  0
    3.8981    0.7504    0.0000 O   0  0  0  0  0  0  0  0  0  0  0  0
  1  2  1  0
  1  3  1  0
  1  4  1  0
  5  6  1  0
  5  7  1  0
  5  8  1  0
 11  9  2  0
 12 10  1  0
 14  1  1  0
 14  5  1  0
 15  9  1  0
 15 10  2  0
 15 13  1  0
 16 11  1  0
 16 12  2  0
 17 16  1  0
 18 13  3  0
 19 17  2  0
 20 14  1  0
 20 17  1  0
M  ISO  6   2   2   3   2   4   2   6   2   7   2   8   2
M  END
>  <NAME>  (5263) 
ISOPROPYL 4-CYANOBENZOATE (D6)

>  <SYNONYMS>  (5263) 
(2,2,2,3,3,3-2H6)ISOPROPYL 4-CYANOBENZOATE

>  <SPECTRUM TYPE>  (5263) 
MS1

>  <INSTRUMENT TYPE>  (5263) 
EI-B

>  <INSTRUMENT>  (5263) 
HITACHI RMU-7M

>  <ION MODE>  (5263) 
P

>  <INCHIKEY>  (5263) 
NFNBGZCLCQVHRY-WFGJKAKNSA-N

>  <FORMULA>  (5263) 
C11H11NO2

>  <EXACT MASS>  (5263) 
195.116639068

>  <MW>  (5263) 
195

>  <ID>  (5263) 
JP001794

>  <CONTRIBUTOR>  (5263) 
University of Tokyo Team, {Faculty of Engineering, University of Tokyo

>  <COMMENT>  (5263) 
SMILES=N#Cc(c1)ccc(c1)C(=O)OC(C([2H])([2H])[2H])C([2H])([2H])[2H]
InChI=InChI=1S/C11H11NO2/c1-8(2)14-11(13)10-5-3-9(7-12)4-6-10/h3-6,8H,1-2H3/i1D3,2D3
computed SMILES=[H]C([H])([H])C(OC(=O)C1=CC=C(C#N)C=C1)C([H])([H])[H]
accession=JP001794
date=2016.01.19 (Created 2008.10.21, modified 2011.05.06)
author=TAJIMA S, GUNMA COLLEGE OF TECHNOLOGY
license=CC BY-NC-SA
exact mass=189.07898
ionization energy=70 eV
ion type=[M]+*
computed spectral entropy=2.5579884923079685
computed normalized entropy=0.7676565122269378
SPLASH=splash10-0f89-5900000000-d7b8f9c164f88da4b554
submitter=submitter = University of Tokyo Team (Faculty of Engineering, University of Tokyo)
MoNA Rating=3.75

>  <NUM PEAKS>  (5263) 
28

>  <MASS SPECTRAL PEAKS>  (5263) 
40 3.42
42 1.61
44 1.94
45 8.07
46 9.17
47 16.09
48 1.94
49 30.36
50 5.36
51 7.11
65 31.52
74 1.49
75 9.82
76 5.94
102 32.43
103 5.49
104 1.29
106 0.84
130 99.99
131 14.21
132 0.8
148 3.17
149 1.94
150 38.11
151 3.23
177 4.52
195 8.66
196 0.65

>  <PREDICTED SPECTRUM>  (5263) 
25 8
26 290
27 78
28 119
39 162
40 1
43 1
44 403
45 129
46 107
49 86
50 288
51 369
52 251
53 200
54 750
62 167
63 528
64 477
65 528
66 242
67 374
68 351
69 175
70 170
71 393
72 932
74 210
75 435
76 388
77 36
78 156
81 19
82 476
84 257
85 295
87 282
89 273
90 589
91 219
92 22
93 62
102 694
103 286
104 287
105 187
109 534
118 260
119 214
120 427
121 360
123 137
125 138
132 125
134 62
137 656
141 59
142 72
143 300
147 172
150 999
151 749
168 166
177 56
179 7
195 976
196 187

$$$$

     RDKit          2D

 15 15  0  0  0  0  0  0  0  0999 V2000
    7.4627   -0.9393    0.0000 C   0  0  0  0  0  0  0  0  0  0  0  0
    6.1633   -3.1891    0.0000 C   0  0  0  0  0  0  0  0  0  0  0  0
   -4.2292   -1.6935    0.0000 C   0  0  0  0  0  0  0  0  0  0  0  0
   -0.3276   -3.9313    0.0000 C   0  0  0  0  0  0  0  0  0  0  0  0
    0.9669   -3.1891    0.0000 C   0  0  0  0  0  0  0  0  0  0  0  0
   -1.6266   -3.1813    0.0000 C   0  0  0  0  0  0  0  0  0  0  0  0
   -0.3316   -0.9383    0.0000 C   0  0  0  0  0  0  0  0  0  0  0  0
    4.8646   -0.9389    0.0000 C   0  0  0  0  0  0  0  0  0  0  0  0
    6.1635   -1.6891    0.0000 C   0  0  0  0  0  0  0  0  0  0  0  0
    0.9674   -1.6883    0.0000 C   0  0  0  0  0  0  0  0  0  0  0  0
   -1.6312   -1.6891    0.0000 C   0  0  0  0  0  0  0  0  0  0  0  0
    2.2666   -0.9385    0.0000 C   0  0  0  0  0  0  0  0  0  0  0  0
    2.2668    0.5615    0.0000 O   0  0  0  0  0  0  0  0  0  0  0  0
   -2.9315   -0.9413    0.0000 O   0  0  0  0  0  0  0  0  0  0  0  0
    3.5655   -1.6887    0.0000 O   0  0  0  0  0  0  0  0  0  0  0  0
  5  4  2  0
  6  4  1  0
  9  1  1  0
  9  2  1  0
  9  8  1  0
 10  5  1  0
 10  7  2  0
 11  6  2  0
 11  7  1  0
 12 10  1  0
 13 12  2  0
 14  3  1  0
 14 11  1  0
 15  8  1  0
 15 12  1  0
M  END
>  <NAME>  (5264) 
ISOBUTYL 3-METHOXYBENZOATE

>  <SYNONYMS>  (5264) 


>  <SPECTRUM TYPE>  (5264) 
MS1

>  <INSTRUMENT TYPE>  (5264) 
EI-B

>  <INSTRUMENT>  (5264) 
HITACHI RMU-7M

>  <ION MODE>  (5264) 
P

>  <INCHIKEY>  (5264) 
YMOAQFMEIBYZJW-UHFFFAOYSA-N

>  <FORMULA>  (5264) 
C12H16O3

>  <EXACT MASS>  (5264) 
208.10994437199997

>  <MW>  (5264) 
208

>  <ID>  (5264) 
JP001793

>  <CONTRIBUTOR>  (5264) 
University of Tokyo Team, {Faculty of Engineering, University of Tokyo

>  <COMMENT>  (5264) 
SMILES=COc(c1)cc(cc1)C(=O)OCC(C)C
InChI=InChI=1S/C12H16O3/c1-9(2)8-15-12(13)10-5-4-6-11(7-10)14-3/h4-7,9H,8H2,1-3H3
computed SMILES=O=C(OCC(C)C)C=1C=CC=C(OC)C1
accession=JP001793
date=2016.01.19 (Created 2008.10.21, modified 2011.05.06)
author=TAJIMA S, GUNMA COLLEGE OF TECHNOLOGY
license=CC BY-NC-SA
exact mass=208.10994
ionization energy=70 eV
ion type=[M]+*
computed spectral entropy=2.6334164301208407
computed normalized entropy=0.7406915960339604
SPLASH=splash10-0f79-4900000000-e30125d95f5f68b2c043
submitter=submitter = University of Tokyo Team (Faculty of Engineering, University of Tokyo)
MoNA Rating=3.75

>  <NUM PEAKS>  (5264) 
35

>  <MASS SPECTRAL PEAKS>  (5264) 
27 5.67
29 10.68
38 2.54
39 6.01
41 10.81
43 3
50 3.27
51 2.2
53 1.74
55 1.4
56 4.34
57 3.6
62 1.4
63 7.21
64 9.68
65 2.6
75 1.34
76 3.67
77 19.36
78 2.67
92 16.15
93 1.34
105 1.47
107 20.63
108 3.4
109 1.87
135 99.99
136 10.08
137 1.2
152 73.77
153 8.01
154 1
165 1.27
208 16.29
209 2.14

>  <PREDICTED SPECTRUM>  (5264) 
14 1
15 8
25 8
26 47
27 161
28 53
29 226
31 7
36 9
37 35
38 92
39 159
40 54
41 296
42 90
43 129
44 28
49 7
50 162
51 154
52 79
53 116
54 30
55 149
56 163
57 93
58 6
61 16
62 93
63 218
64 218
65 130
66 63
67 10
69 4
73 65
74 98
75 107
76 186
77 362
78 163
79 152
80 38
81 82
89 3
91 66
92 306
93 63
94 66
95 16
103 39
104 116
105 188
106 125
107 387
108 181
109 130
119 78
120 33
121 39
122 55
123 76
124 66
133 47
134 31
135 830
136 264
137 140
138 34
149 7
151 94
152 999
153 392
154 67
165 50
193 45
208 349
209 121
210 23

$$$$

     RDKit          2D

 16 16  0  0  0  0  0  0  0  0999 V2000
   -6.1802    2.4253    0.0000 C   0  0  0  0  0  0  0  0  0  0  0  0
   -4.8774    0.1775    0.0000 C   0  0  0  0  0  0  0  0  0  0  0  0
    1.6198   -0.5560    0.0000 C   0  0  0  0  0  0  0  0  0  0  0  0
    0.3207    0.1940    0.0000 C   0  0  0  0  0  0  0  0  0  0  0  0
    2.9143    0.1862    0.0000 C   0  0  0  0  0  0  0  0  0  0  0  0
    1.6157    2.4370    0.0000 C   0  0  0  0  0  0  0  0  0  0  0  0
   -3.5822    2.4296    0.0000 C   0  0  0  0  0  0  0  0  0  0  0  0
   -4.8799    1.6775    0.0000 C   0  0  0  0  0  0  0  0  0  0  0  0
    0.3162    1.6862    0.0000 C   0  0  0  0  0  0  0  0  0  0  0  0
    2.9148    1.6870    0.0000 C   0  0  0  0  0  0  0  0  0  0  0  0
   -0.9841    2.4340    0.0000 C   0  0  0  0  0  0  0  0  0  0  0  0
    4.2139    2.4368    0.0000 N   0  0  0  0  0  0  0  0  0  0  0  0
   -0.9866    3.9340    0.0000 O   0  0  0  0  0  0  0  0  0  0  0  0
    5.5128    1.6866    0.0000 O   0  0  0  0  0  0  0  0  0  0  0  0
    4.2142    3.9368    0.0000 O   0  0  0  0  0  0  0  0  0  0  0  0
   -2.2819    1.6818    0.0000 O   0  0  0  0  0  0  0  0  0  0  0  0
  4  3  2  0
  5  3  1  0
  8  1  1  0
  8  2  1  0
  8  7  1  0
  9  4  1  0
  9  6  2  0
 10  5  2  0
 10  6  1  0
 11  9  1  0
 12 10  1  0
 13 11  2  0
 14 12  1  0
 15 12  2  0
 16  7  1  0
 16 11  1  0
M  CHG  2  12   1  14  -1
M  END
>  <NAME>  (5265) 
ISOBUTYL 3-NITROBENZOATE

>  <SYNONYMS>  (5265) 


>  <SPECTRUM TYPE>  (5265) 
MS1

>  <INSTRUMENT TYPE>  (5265) 
EI-B

>  <INSTRUMENT>  (5265) 
HITACHI RMU-7M

>  <ION MODE>  (5265) 
P

>  <INCHIKEY>  (5265) 
XGXZBLXZWJRBCZ-UHFFFAOYSA-N

>  <FORMULA>  (5265) 
C11H13NO4

>  <EXACT MASS>  (5265) 
223.084457896

>  <MW>  (5265) 
223

>  <ID>  (5265) 
JP001792

>  <CONTRIBUTOR>  (5265) 
University of Tokyo Team, {Faculty of Engineering, University of Tokyo

>  <COMMENT>  (5265) 
SMILES=CC(C)COC(=O)c(c1)cc(cc1)[N+1]([O-1])=O
InChI=InChI=1S/C11H13NO4/c1-8(2)7-16-11(13)9-4-3-5-10(6-9)12(14)15/h3-6,8H,7H2,1-2H3
computed SMILES=O=C(OCC(C)C)C1=CC=CC(=C1)N(=O)=O
accession=JP001792
date=2016.01.19 (Created 2008.10.21, modified 2011.05.06)
author=TAJIMA S, GUNMA COLLEGE OF TECHNOLOGY
license=CC BY-NC-SA
exact mass=223.08446
ionization energy=70 eV
ion type=[M]+*
computed spectral entropy=2.4719420541049004
computed normalized entropy=0.6952742773289402
SPLASH=splash10-0zfr-9700000000-8652066e0ed4181780eb
submitter=submitter = University of Tokyo Team (Faculty of Engineering, University of Tokyo)
MoNA Rating=3.75

>  <NUM PEAKS>  (5265) 
35

>  <MASS SPECTRAL PEAKS>  (5265) 
27 2.13
29 6.21
39 2.98
40 3.69
41 12.46
43 4.36
50 6.16
51 1.42
55 4.07
56 99.99
57 9.24
63 1.04
64 1.42
65 4.26
72 1.04
73 1.42
74 1.52
75 5.31
76 20.84
77 2.27
92 4.22
93 1.09
103 1
104 28.61
105 2.51
120 2.37
121 3.79
122 2.37
134 4.64
137 1.75
150 94.74
151 16.3
152 2.37
168 6.21
169 1.18

>  <PREDICTED SPECTRUM>  (5265) 
25 0
26 66
27 194
28 109
29 263
30 174
31 74
36 40
37 72
38 142
39 274
40 137
41 449
42 113
43 297
44 74
49 71
50 361
51 228
52 81
53 116
54 132
55 315
56 744
57 349
58 73
62 92
63 176
64 145
65 252
66 87
67 12
73 36
74 148
75 299
76 514
77 224
78 24
79 45
90 9
92 284
93 109
94 8
95 49
103 113
104 545
105 174
120 168
121 221
122 231
123 113
134 272
135 80
137 99
150 999
151 480
152 214
153 8
168 369
169 147
170 91

$$$$

     RDKit          2D

 15 15  0  0  0  0  0  0  0  0999 V2000
    7.7916   -0.7568    0.0000 C   0  0  0  0  0  0  0  0  0  0  0  0
    6.4922   -3.0066    0.0000 C   0  0  0  0  0  0  0  0  0  0  0  0
    0.0013   -3.7488    0.0000 C   0  0  0  0  0  0  0  0  0  0  0  0
   -1.2977   -2.9988    0.0000 C   0  0  0  0  0  0  0  0  0  0  0  0
    1.2958   -3.0066    0.0000 C   0  0  0  0  0  0  0  0  0  0  0  0
   -0.0027   -0.7558    0.0000 C   0  0  0  0  0  0  0  0  0  0  0  0
   -2.6026   -0.7588    0.0000 C   0  0  0  0  0  0  0  0  0  0  0  0
    5.1935   -0.7564    0.0000 C   0  0  0  0  0  0  0  0  0  0  0  0
    6.4924   -1.5066    0.0000 C   0  0  0  0  0  0  0  0  0  0  0  0
   -1.3023   -1.5066    0.0000 C   0  0  0  0  0  0  0  0  0  0  0  0
    1.2963   -1.5058    0.0000 C   0  0  0  0  0  0  0  0  0  0  0  0
    2.5955   -0.7560    0.0000 C   0  0  0  0  0  0  0  0  0  0  0  0
   -3.9028   -0.0110    0.0000 N   0  0  0  0  0  0  0  0  0  0  0  0
    2.5957    0.7440    0.0000 O   0  0  0  0  0  0  0  0  0  0  0  0
    3.8944   -1.5062    0.0000 O   0  0  0  0  0  0  0  0  0  0  0  0
  4  3  2  0
  5  3  1  0
  9  1  1  0
  9  2  1  0
  9  8  1  0
 10  4  1  0
 10  6  2  0
 10  7  1  0
 11  5  2  0
 11  6  1  0
 12 11  1  0
 13  7  3  0
 14 12  2  0
 15  8  1  0
 15 12  1  0
M  END
>  <NAME>  (5266) 
ISOBUTYL 3-CYANOBENZOATE

>  <SYNONYMS>  (5266) 


>  <SPECTRUM TYPE>  (5266) 
MS1

>  <INSTRUMENT TYPE>  (5266) 
EI-B

>  <INSTRUMENT>  (5266) 
HITACHI RMU-7M

>  <ION MODE>  (5266) 
P

>  <INCHIKEY>  (5266) 
WYLBZEVZADZBKE-UHFFFAOYSA-N

>  <FORMULA>  (5266) 
C12H13NO2

>  <EXACT MASS>  (5266) 
203.094628656

>  <MW>  (5266) 
203

>  <ID>  (5266) 
JP001791

>  <CONTRIBUTOR>  (5266) 
University of Tokyo Team, {Faculty of Engineering, University of Tokyo

>  <COMMENT>  (5266) 
SMILES=N#Cc(c1)cc(cc1)C(=O)OCC(C)C
InChI=InChI=1S/C12H13NO2/c1-9(2)8-15-12(14)11-5-3-4-10(6-11)7-13/h3-6,9H,8H2,1-2H3
computed SMILES=N#CC1=CC=CC(=C1)C(=O)OCC(C)C
accession=JP001791
date=2016.01.19 (Created 2008.10.21, modified 2011.05.06)
author=TAJIMA S, GUNMA COLLEGE OF TECHNOLOGY
license=CC BY-NC-SA
exact mass=203.09463
ionization energy=70 eV
ion type=[M]+*
computed spectral entropy=2.188638326392857
computed normalized entropy=0.6886725157053857
SPLASH=splash10-053r-7900000000-e206beb3bd4fa27fd6ff
submitter=submitter = University of Tokyo Team (Faculty of Engineering, University of Tokyo)
MoNA Rating=3.75

>  <NUM PEAKS>  (5266) 
24

>  <MASS SPECTRAL PEAKS>  (5266) 
39 4.34
40 1.31
41 14.46
42 3.81
43 8.68
50 2.63
51 4.54
55 2.96
56 77.32
57 5.59
73 2.1
74 1.12
75 6.64
76 4.4
101 1
102 29.52
103 5.65
104 1.12
130 99.99
131 9.2
148 17.82
149 1.91
160 1.12
161 1

>  <PREDICTED SPECTRUM>  (5266) 
26 48
27 161
28 70
29 178
31 26
37 35
38 56
39 198
40 86
41 336
42 99
43 179
44 41
45 28
49 3
50 129
51 157
52 93
53 77
54 25
55 81
56 643
57 235
58 22
64 36
66 5
73 136
74 81
75 166
76 175
77 19
87 58
100 19
101 175
102 404
103 271
104 93
130 999
131 282
147 89
148 435
149 102

$$$$

     RDKit          2D

 12 12  0  0  0  0  0  0  0  0999 V2000
   -1.3000   -0.7500    0.0000 C   0  0  0  0  0  0  0  0  0  0  0  0
    0.0000    1.5000    0.0000 C   0  0  0  0  0  0  0  0  0  0  0  0
    0.0000   -1.5000    0.0000 C   0  0  0  0  0  0  0  0  0  0  0  0
    1.3000    0.7500    0.0000 C   0  0  0  0  0  0  0  0  0  0  0  0
   -1.3000    0.7500    0.0000 C   0  0  0  0  0  0  0  0  0  0  0  0
    1.3000   -0.7500    0.0000 C   0  0  0  0  0  0  0  0  0  0  0  0
   -2.5989    1.5002    0.0000 C   0  0  0  0  0  0  0  0  0  0  0  0
   -3.8981    0.7504    0.0000 Cl  0  0  0  0  0  0  0  0  0  0  0  0
    2.5989   -1.5002    0.0000 N   0  0  0  0  0  0  0  0  0  0  0  0
   -2.5987    3.0002    0.0000 O   0  0  0  0  0  0  0  0  0  0  0  0
    3.8981   -0.7504    0.0000 O   0  0  0  0  0  0  0  0  0  0  0  0
    2.5987   -3.0002    0.0000 O   0  0  0  0  0  0  0  0  0  0  0  0
  3  1  2  0
  4  2  1  0
  5  1  1  0
  5  2  2  0
  6  3  1  0
  6  4  2  0
  7  5  1  0
  8  7  1  0
  9  6  1  0
 10  7  2  0
 11  9  1  0
 12  9  2  0
M  CHG  2   9   1  11  -1
M  END
>  <NAME>  (5267) 
PARA-NITROBENZOYL CHLORIDE

>  <SYNONYMS>  (5267) 


>  <SPECTRUM TYPE>  (5267) 
MS1

>  <INSTRUMENT TYPE>  (5267) 
EI-B

>  <INSTRUMENT>  (5267) 
HITACHI RMU-7M

>  <ION MODE>  (5267) 
P

>  <INCHIKEY>  (5267) 
SKDHHIUENRGTHK-UHFFFAOYSA-N

>  <FORMULA>  (5267) 
C7H4ClNO3

>  <EXACT MASS>  (5267) 
184.987970668

>  <MW>  (5267) 
185

>  <ID>  (5267) 
JP001697

>  <CONTRIBUTOR>  (5267) 
University of Tokyo Team, {Faculty of Engineering, University of Tokyo

>  <COMMENT>  (5267) 
SMILES=[O-1][N+1](=O)c(c1)ccc(c1)C(=O)Cl
InChI=InChI=1S/C7H4ClNO3/c8-7(10)5-1-3-6(4-2-5)9(11)12/h1-4H
computed SMILES=O=C(Cl)C1=CC=C(C=C1)N(=O)=O
accession=JP001697
date=2016.01.19 (Created 2008.10.21, modified 2011.05.06)
author=TAJIMA S, GUNMA COLLEGE OF TECHNOLOGY
license=CC BY-NC-SA
exact mass=184.98797
ionization energy=70 eV
ion type=[M]+*
computed spectral entropy=2.5652617600079117
computed normalized entropy=0.7401780839491017
SPLASH=splash10-0udi-8900000000-87827d4e9641ce426ca5
submitter=submitter = University of Tokyo Team (Faculty of Engineering, University of Tokyo)
MoNA Rating=3.75

>  <NUM PEAKS>  (5267) 
32

>  <MASS SPECTRAL PEAKS>  (5267) 
28 2.84
30 1.95
35 3.01
36 34.47
37 3.85
38 13.11
39 2.12
44 1.39
49 1.17
50 17.23
51 3.46
52 1.23
62 1
63 2.4
64 2.73
65 1.17
73 1.67
74 6.75
75 16.73
76 25.1
77 3.23
92 6.41
103 22.25
104 24.71
105 1.56
111 2.51
113 0.78
120 5.19
121 1
150 99.99
151 7.92
185 0.61

>  <PREDICTED SPECTRUM>  (5267) 
25 18
26 33
27 26
28 49
29 26
30 218
35 64
36 106
37 129
38 199
39 91
46 90
49 47
50 493
51 141
52 63
53 55
61 76
62 87
63 307
64 228
65 95
66 53
73 223
74 347
75 536
76 618
77 101
83 19
85 46
86 96
87 147
90 37
92 363
93 24
99 118
104 560
105 61
112 24
120 203
122 329
123 40
127 218
139 113
140 29
141 11
150 999
151 374
152 205
169 25
185 169
186 84
187 116

$$$$

     RDKit          2D

  7  6  0  0  0  0  0  0  0  0999 V2000
   -2.5111    2.0993    0.0000 C   0  0  0  0  0  0  0  0  0  0  0  0
    0.8370    0.8002    0.0000 C   0  0  0  0  0  0  0  0  0  0  0  0
    1.3861    2.8493    0.0000 C   0  0  0  0  0  0  0  0  0  0  0  0
   -0.6630    3.3983    0.0000 C   0  0  0  0  0  0  0  0  0  0  0  0
   -1.2120    1.3493    0.0000 C   0  0  0  0  0  0  0  0  0  0  0  0
    0.0870    2.0993    0.0000 C   0  0  0  0  0  0  0  0  0  0  0  0
   -1.2120   -0.1507    0.0000 O   0  0  0  0  0  0  0  0  0  0  0  0
  5  1  1  0
  6  2  1  0
  6  3  1  0
  6  4  1  0
  6  5  1  0
  7  5  2  0
M  END
>  <NAME>  (5268) 
PINACOLIN

>  <SYNONYMS>  (5268) 
3,3-DIMETHYL-2-BUTANONE

>  <SPECTRUM TYPE>  (5268) 
MS1

>  <INSTRUMENT TYPE>  (5268) 
EI-B

>  <INSTRUMENT>  (5268) 
HITACHI RMU-7M

>  <ION MODE>  (5268) 
P

>  <INCHIKEY>  (5268) 
PJGSXYOJTGTZAV-UHFFFAOYSA-N

>  <FORMULA>  (5268) 
C6H12O

>  <EXACT MASS>  (5268) 
100.088815004

>  <MW>  (5268) 
100

>  <ID>  (5268) 
JP001693

>  <CONTRIBUTOR>  (5268) 
University of Tokyo Team, {Faculty of Engineering, University of Tokyo

>  <COMMENT>  (5268) 
SMILES=CC(=O)C(C)(C)C
InChI=InChI=1S/C6H12O/c1-5(7)6(2,3)4/h1-4H3
computed SMILES=O=C(C)C(C)(C)C
ionization energy=70 eV
accession=JP001693
date=2016.01.19 (Created 2008.10.21, modified 2011.05.06)
author=TAJIMA S, GUNMA COLLEGE OF TECHNOLOGY
license=CC BY-NC-SA
exact mass=100.08882
ion type=[M]+*
computed spectral entropy=2.042024772088887
computed normalized entropy=0.7064920858399303
SPLASH=splash10-0a4l-9000000000-41d85a09d1c545d1c0e5
submitter=submitter = University of Tokyo Team (Faculty of Engineering, University of Tokyo)
MoNA Rating=3.75

>  <NUM PEAKS>  (5268) 
18

>  <MASS SPECTRAL PEAKS>  (5268) 
15 4.51
27 4.89
28 2.41
29 41.95
39 8.12
40 1.2
41 56.32
42 3.46
43 32.63
55 3.68
56 6.62
57 99.99
58 4.36
67 1
69 1
85 4.59
100 16.77
101 1.35

>  <PREDICTED SPECTRUM>  (5268) 
14 54
15 194
16 5
25 8
26 94
27 336
28 172
29 382
37 9
38 82
39 429
40 158
41 685
42 217
43 999
44 67
51 43
53 134
54 9
55 226
56 110
57 929
58 346
59 16
72 34
85 65
100 186

$$$$

     RDKit          2D

  9  9  0  0  0  0  0  0  0  0999 V2000
   -1.6238    3.1325    0.0000 C   0  0  0  0  0  0  0  0  0  0  0  0
   -2.9228    0.8825    0.0000 C   0  0  0  0  0  0  0  0  0  0  0  0
    2.2733   -0.6175    0.0000 C   0  0  0  0  0  0  0  0  0  0  0  0
    2.2738    0.8833    0.0000 C   0  0  0  0  0  0  0  0  0  0  0  0
    0.9738   -1.3683    0.0000 C   0  0  0  0  0  0  0  0  0  0  0  0
    0.9748    1.6333    0.0000 C   0  0  0  0  0  0  0  0  0  0  0  0
   -0.3252   -0.6183    0.0000 C   0  0  0  0  0  0  0  0  0  0  0  0
   -1.6238    1.6325    0.0000 C   0  0  0  0  0  0  0  0  0  0  0  0
   -0.3248    0.8825    0.0000 C   0  0  0  0  0  0  0  0  0  0  0  0
  4  3  2  0
  5  3  1  0
  6  4  1  0
  7  5  2  0
  8  1  2  0
  8  2  1  0
  9  6  2  0
  9  7  1  0
  9  8  1  0
M  END
>  <NAME>  (5269) 
ISOPROPENYLBENZENE

>  <SYNONYMS>  (5269) 
ALPHA-METHYLSTYRENE

>  <SPECTRUM TYPE>  (5269) 
MS1

>  <INSTRUMENT TYPE>  (5269) 
EI-B

>  <INSTRUMENT>  (5269) 
HITACHI RMU-7M

>  <ION MODE>  (5269) 
P

>  <INCHIKEY>  (5269) 
XYLMUPLGERFSHI-UHFFFAOYSA-N

>  <FORMULA>  (5269) 
C9H10

>  <EXACT MASS>  (5269) 
118.07825032

>  <MW>  (5269) 
118

>  <ID>  (5269) 
JP001690

>  <CONTRIBUTOR>  (5269) 
University of Tokyo Team, {Faculty of Engineering, University of Tokyo

>  <COMMENT>  (5269) 
SMILES=CC(=C)c(c1)cccc1
InChI=InChI=1S/C9H10/c1-8(2)9-6-4-3-5-7-9/h3-7H,1H2,2H3
computed SMILES=C=C(C=1C=CC=CC1)C
accession=JP001690
date=2016.01.19 (Created 2008.10.21, modified 2011.05.06)
author=TAJIMA S, GUNMA COLLEGE OF TECHNOLOGY
license=CC BY-NC-SA
exact mass=118.07825
ionization energy=70 eV
ion type=[M]+*
computed spectral entropy=2.748330989728378
computed normalized entropy=0.7793675577251221
SPLASH=splash10-014i-6900000000-13e1647c84d252f25812
submitter=submitter = University of Tokyo Team (Faculty of Engineering, University of Tokyo)
MoNA Rating=3.75

>  <NUM PEAKS>  (5269) 
34

>  <MASS SPECTRAL PEAKS>  (5269) 
27 3.55
28 2.95
38 1.81
39 12.99
40 1.74
41 2.11
50 7.7
51 19.71
52 4.38
53 1.59
57 2.49
57.5 5.97
58 9.74
62 2.49
63 7.18
65 6.19
74 3.17
75 2.87
76 3.47
77 26.13
78 37.24
79 2.95
89 3.85
90 1.66
91 19.86
92 1.96
102 5.21
103 55.89
104 4.68
115 26.59
116 6.04
117 79.46
118 99.99
119 9.74

>  <PREDICTED SPECTRUM>  (5269) 
14 7
15 57
25 4
26 84
27 161
28 46
36 7
37 81
38 147
39 340
40 127
41 219
42 118
43 89
44 51
45 12
49 34
50 338
51 508
52 250
53 177
56 4
57 67
58 138
61 113
62 200
63 336
64 204
65 279
66 113
67 50
68 0
70 20
71 90
73 42
74 265
75 238
76 219
77 459
78 337
79 134
83 24
84 17
85 43
86 152
87 138
88 42
89 164
90 79
91 391
92 183
93 13
94 8
97 1
98 69
99 34
100 0
101 100
102 293
103 619
104 252
105 13
113 29
114 38
115 572
116 333
117 792
118 999
119 279
120 37

$$$$

     RDKit          2D

  7  6  0  0  0  0  0  0  0  0999 V2000
    1.9486    3.3750    0.0000 C   0  0  0  0  0  0  0  0  0  0  0  0
    0.6495    4.1250    0.0000 C   0  0  0  0  0  0  0  0  0  0  0  0
   -4.5466    4.1250    0.0000 C   0  0  0  0  0  0  0  0  0  0  0  0
   -0.6495    3.3750    0.0000 C   0  0  0  0  0  0  0  0  0  0  0  0
   -3.2476    3.3750    0.0000 C   0  0  0  0  0  0  0  0  0  0  0  0
   -5.8457    3.3750    0.0000 O   0  0  0  0  0  0  0  0  0  0  0  0
   -1.9486    4.1250    0.0000 O   0  0  0  0  0  0  0  0  0  0  0  0
  2  1  1  0
  4  2  1  0
  5  3  1  0
  6  3  1  0
  7  4  1  0
  7  5  1  0
M  END
>  <NAME>  (5270) 
2-PROPOXYETHANOL

>  <SYNONYMS>  (5270) 
ETHYLENE GLYCOL MONO PROPYL ETHER

>  <SPECTRUM TYPE>  (5270) 
MS1

>  <INSTRUMENT TYPE>  (5270) 
EI-B

>  <INSTRUMENT>  (5270) 
HITACHI RMU-7M

>  <ION MODE>  (5270) 
P

>  <INCHIKEY>  (5270) 
YEYKMVJDLWJFOA-UHFFFAOYSA-N

>  <FORMULA>  (5270) 
C5H12O2

>  <EXACT MASS>  (5270) 
104.083729624

>  <MW>  (5270) 
104

>  <ID>  (5270) 
JP001688

>  <CONTRIBUTOR>  (5270) 
University of Tokyo Team, {Faculty of Engineering, University of Tokyo

>  <COMMENT>  (5270) 
SMILES=CCCOCCO
InChI=InChI=1S/C5H12O2/c1-2-4-7-5-3-6/h6H,2-5H2,1H3
computed SMILES=OCCOCCC
accession=JP001688
date=2016.01.19 (Created 2008.10.21, modified 2011.05.06)
author=TAJIMA S, GUNMA COLLEGE OF TECHNOLOGY
license=CC BY-NC-SA
exact mass=104.08373
ionization energy=70 eV
ion type=[M]+*
computed spectral entropy=2.178272948066331
computed normalized entropy=0.7154727851817574
SPLASH=splash10-0006-9000000000-aae83dcce4523b7e9612
submitter=submitter = University of Tokyo Team (Faculty of Engineering, University of Tokyo)
MoNA Rating=3.75

>  <NUM PEAKS>  (5270) 
21

>  <MASS SPECTRAL PEAKS>  (5270) 
15 2.26
19 2.53
27 16.17
28 2.1
29 4.64
31 12.83
39 3.56
41 23.45
42 5.23
43 99.99
44 4.47
45 39.3
46 1.02
55 3.4
57 3.13
58 2.48
59 2.05
73 20.43
74 0.97
75 4.1
86 5.34

>  <PREDICTED SPECTRUM>  (5270) 
14 58
15 148
16 24
17 15
18 29
19 65
25 15
26 112
27 404
28 195
29 439
30 131
31 510
32 69
33 85
35 9
37 24
38 67
39 280
40 99
41 543
42 296
43 999
44 430
45 987
46 205
47 199
48 3
49 38
55 31
57 230
58 139
59 137
60 69
61 412
62 117
63 85
71 118
72 78
73 363
74 207
75 360
76 65
87 65
89 2

$$$$

     RDKit          2D

 14 13  0  0  0  0  0  0  0  0999 V2000
    2.9228    5.4375    0.0000 C   0  0  0  0  0  0  0  0  0  0  0  0
   -0.9743    3.1875    0.0000 C   0  0  0  0  0  0  0  0  0  0  0  0
   -7.4695    3.9375    0.0000 C   0  0  0  0  0  0  0  0  0  0  0  0
   -8.7685    6.1875    0.0000 C   0  0  0  0  0  0  0  0  0  0  0  0
    1.6238    6.1875    0.0000 C   0  0  0  0  0  0  0  0  0  0  0  0
   -2.2733    3.9375    0.0000 C   0  0  0  0  0  0  0  0  0  0  0  0
    0.3248    5.4375    0.0000 C   0  0  0  0  0  0  0  0  0  0  0  0
   -0.9743    6.1875    0.0000 C   0  0  0  0  0  0  0  0  0  0  0  0
   -3.5724    6.1875    0.0000 C   0  0  0  0  0  0  0  0  0  0  0  0
   -7.4695    5.4375    0.0000 C   0  0  0  0  0  0  0  0  0  0  0  0
   -2.2733    5.4375    0.0000 C   0  0  0  0  0  0  0  0  0  0  0  0
   -6.1704    6.1875    0.0000 C   0  0  0  0  0  0  0  0  0  0  0  0
   -6.1704    7.6875    0.0000 O   0  0  0  0  0  0  0  0  0  0  0  0
   -4.8714    5.4375    0.0000 O   0  0  0  0  0  0  0  0  0  0  0  0
  5  1  1  0
  6  2  1  0
  7  5  1  0
  8  7  1  0
 10  3  2  0
 10  4  1  0
 11  6  1  0
 11  8  1  0
 11  9  1  0
 12 10  1  0
 13 12  2  0
 14  9  1  0
 14 12  1  0
M  END
>  <NAME>  (5271) 
METHACRYLIC ACID 2-ETHYLHEXYL ESTER

>  <SYNONYMS>  (5271) 
2-ETHYLHEXYL METHACRYLATE

>  <SPECTRUM TYPE>  (5271) 
MS1

>  <INSTRUMENT TYPE>  (5271) 
EI-B

>  <INSTRUMENT>  (5271) 
HITACHI RMU-7M

>  <ION MODE>  (5271) 
P

>  <INCHIKEY>  (5271) 
WDQMWEYDKDCEHT-UHFFFAOYSA-N

>  <FORMULA>  (5271) 
C12H22O2

>  <EXACT MASS>  (5271) 
198.161979944

>  <MW>  (5271) 
198

>  <ID>  (5271) 
JP001686

>  <CONTRIBUTOR>  (5271) 
University of Tokyo Team, {Faculty of Engineering, University of Tokyo

>  <COMMENT>  (5271) 
SMILES=CCCCC(CC)COC(=O)C(C)=C
InChI=InChI=1S/C12H22O2/c1-5-7-8-11(6-2)9-14-12(13)10(3)4/h11H,3,5-9H2,1-2,4H3
computed SMILES=O=C(OCC(CC)CCCC)C(=C)C
accession=JP001686
date=2016.01.19 (Created 2008.10.21, modified 2011.05.06)
author=TAJIMA S, GUNMA COLLEGE OF TECHNOLOGY
license=CC BY-NC-SA
exact mass=198.16198
ionization energy=70 eV
ion type=[M]+*
computed spectral entropy=2.6708153668776853
computed normalized entropy=0.7706344169848948
SPLASH=splash10-0603-9000000000-52174175656da66091c0
submitter=submitter = University of Tokyo Team (Faculty of Engineering, University of Tokyo)
MoNA Rating=3.75

>  <NUM PEAKS>  (5271) 
32

>  <MASS SPECTRAL PEAKS>  (5271) 
15 0.44
27 6.56
28 2.22
29 12.78
39 11.5
40 2.89
41 63.11
42 10.5
43 19.72
53 1.5
54 1.78
55 30.89
56 20.44
57 31.83
58 1.61
67 1.39
68 1.89
69 94.39
70 99.99
71 13.44
82 4.06
83 21.56
84 12.33
85 2.17
87 11.11
97 2.67
98 1.06
99 4.28
100 2
111 1.11
112 19.78
113 2

>  <PREDICTED SPECTRUM>  (5271) 
14 6
15 67
25 27
26 115
27 386
28 207
29 506
30 43
31 103
32 6
36 36
37 64
38 105
39 497
40 203
41 924
42 428
43 646
44 165
45 241
47 0
48 11
49 44
50 106
51 144
52 104
53 282
54 209
55 715
56 578
57 871
58 239
59 100
63 50
64 21
65 41
66 57
67 220
68 252
69 973
70 999
71 546
72 122
77 18
78 29
79 79
80 10
81 116
82 194
83 529
84 300
85 126
86 70
87 331
88 2
93 4
95 96
96 82
97 212
98 131
99 249
100 127
111 130
112 453
113 159
128 7

$$$$

     RDKit          2D

  9  8  0  0  0  0  0  0  0  0999 V2000
    1.9486    3.3750    0.0000 C   0  0  0  0  0  0  0  0  0  0  0  0
   -4.5466    5.6250    0.0000 C   0  0  0  0  0  0  0  0  0  0  0  0
   -5.8457    3.3750    0.0000 C   0  0  0  0  0  0  0  0  0  0  0  0
    0.6495    4.1250    0.0000 C   0  0  0  0  0  0  0  0  0  0  0  0
   -0.6495    3.3750    0.0000 C   0  0  0  0  0  0  0  0  0  0  0  0
   -4.5466    4.1250    0.0000 C   0  0  0  0  0  0  0  0  0  0  0  0
   -3.2476    3.3750    0.0000 C   0  0  0  0  0  0  0  0  0  0  0  0
   -3.2476    1.8750    0.0000 O   0  0  0  0  0  0  0  0  0  0  0  0
   -1.9486    4.1250    0.0000 O   0  0  0  0  0  0  0  0  0  0  0  0
  4  1  2  0
  5  4  1  0
  6  2  2  0
  6  3  1  0
  7  6  1  0
  8  7  2  0
  9  5  1  0
  9  7  1  0
M  END
>  <NAME>  (5272) 
METHACRYLIC ACID ALLYL ESTER

>  <SYNONYMS>  (5272) 
ALLYL METHACRYLATE

>  <SPECTRUM TYPE>  (5272) 
MS1

>  <INSTRUMENT TYPE>  (5272) 
EI-B

>  <INSTRUMENT>  (5272) 
HITACHI RMU-7M

>  <ION MODE>  (5272) 
P

>  <INCHIKEY>  (5272) 
FBCQUCJYYPMKRO-UHFFFAOYSA-N

>  <FORMULA>  (5272) 
C7H10O2

>  <EXACT MASS>  (5272) 
126.06807956

>  <MW>  (5272) 
126

>  <ID>  (5272) 
JP001685

>  <CONTRIBUTOR>  (5272) 
University of Tokyo Team, {Faculty of Engineering, University of Tokyo

>  <COMMENT>  (5272) 
SMILES=C=CCOC(=O)C(C)=C
InChI=InChI=1S/C7H10O2/c1-4-5-9-7(8)6(2)3/h4H,1-2,5H2,3H3
computed SMILES=O=C(OCC=C)C(=C)C
accession=JP001685
date=2016.01.19 (Created 2008.10.21, modified 2011.05.06)
author=TAJIMA S, GUNMA COLLEGE OF TECHNOLOGY
license=CC BY-NC-SA
exact mass=126.06808
ionization energy=70 eV
ion type=[M]+*
computed spectral entropy=1.989594867187981
computed normalized entropy=0.6181023983021919
SPLASH=splash10-014l-9000000000-b36180c9f35e5bd3c2fe
submitter=submitter = University of Tokyo Team (Faculty of Engineering, University of Tokyo)
MoNA Rating=3.75

>  <NUM PEAKS>  (5272) 
25

>  <MASS SPECTRAL PEAKS>  (5272) 
15 1.56
26 1.35
27 3.18
28 2.23
29 2.57
31 1.08
38 2.1
39 25.56
40 5.41
41 95.74
42 4.73
43 2.7
55 1.89
57 6.29
67 1.35
69 99.99
70 6.36
79 1.49
81 15.55
82 1.56
87 2.16
97 2.23
98 1.15
111 8.11
126 0.41

>  <PREDICTED SPECTRUM>  (5272) 
25 13
26 59
27 179
28 14
29 133
31 22
36 58
37 95
38 137
39 549
40 237
41 999
42 225
43 234
44 40
49 31
50 39
51 30
52 5
53 63
54 75
55 116
56 104
57 162
67 139
68 104
69 936
70 217
71 34
81 74
82 23
83 69
126 17

$$$$

     RDKit          2D

 12 11  0  0  0  0  0  0  0  0999 V2000
    2.9228    5.4375    0.0000 C   0  0  0  0  0  0  0  0  0  0  0  0
   -7.4695    3.9375    0.0000 C   0  0  0  0  0  0  0  0  0  0  0  0
   -8.7685    6.1875    0.0000 C   0  0  0  0  0  0  0  0  0  0  0  0
    1.6238    6.1875    0.0000 C   0  0  0  0  0  0  0  0  0  0  0  0
    0.3248    5.4375    0.0000 C   0  0  0  0  0  0  0  0  0  0  0  0
   -0.9743    6.1875    0.0000 C   0  0  0  0  0  0  0  0  0  0  0  0
   -2.2733    5.4375    0.0000 C   0  0  0  0  0  0  0  0  0  0  0  0
   -3.5724    6.1875    0.0000 C   0  0  0  0  0  0  0  0  0  0  0  0
   -7.4695    5.4375    0.0000 C   0  0  0  0  0  0  0  0  0  0  0  0
   -6.1704    6.1875    0.0000 C   0  0  0  0  0  0  0  0  0  0  0  0
   -6.1704    7.6875    0.0000 O   0  0  0  0  0  0  0  0  0  0  0  0
   -4.8714    5.4375    0.0000 O   0  0  0  0  0  0  0  0  0  0  0  0
  4  1  1  0
  5  4  1  0
  6  5  1  0
  7  6  1  0
  8  7  1  0
  9  2  2  0
  9  3  1  0
 10  9  1  0
 11 10  2  0
 12  8  1  0
 12 10  1  0
M  END
>  <NAME>  (5273) 
METHACRYLIC ACID HEXYL ESTER

>  <SYNONYMS>  (5273) 
HEXYL METHACRYLATE

>  <SPECTRUM TYPE>  (5273) 
MS1

>  <INSTRUMENT TYPE>  (5273) 
EI-B

>  <INSTRUMENT>  (5273) 
HITACHI RMU-7M

>  <ION MODE>  (5273) 
P

>  <INCHIKEY>  (5273) 
LNCPIMCVTKXXOY-UHFFFAOYSA-N

>  <FORMULA>  (5273) 
C10H18O2

>  <EXACT MASS>  (5273) 
170.130679816

>  <MW>  (5273) 
170

>  <ID>  (5273) 
JP001684

>  <CONTRIBUTOR>  (5273) 
University of Tokyo Team, {Faculty of Engineering, University of Tokyo

>  <COMMENT>  (5273) 
SMILES=CCCCCCOC(=O)C(C)=C
InChI=InChI=1S/C10H18O2/c1-4-5-6-7-8-12-10(11)9(2)3/h2,4-8H2,1,3H3
computed SMILES=O=C(OCCCCCC)C(=C)C
accession=JP001684
date=2016.01.19 (Created 2008.10.21, modified 2011.05.06)
author=TAJIMA S, GUNMA COLLEGE OF TECHNOLOGY
license=CC BY-NC-SA
exact mass=170.13068
ionization energy=70 eV
ion type=[M]+*
computed spectral entropy=2.5514835231353725
computed normalized entropy=0.7362025251474605
SPLASH=splash10-05mx-9000000000-bd96149dd8abfd0cc675
submitter=submitter = University of Tokyo Team (Faculty of Engineering, University of Tokyo)
MoNA Rating=3.75

>  <NUM PEAKS>  (5273) 
32

>  <MASS SPECTRAL PEAKS>  (5273) 
15 0.66
27 7.25
28 2.77
29 9.09
31 0.92
39 13.37
40 3.82
41 67.79
42 23.98
43 37.22
44 1.58
45 1.45
53 1.25
54 1.98
55 28
56 57.25
57 5.4
59 1.52
67 1.2
68 1.45
69 99.99
70 7.51
83 3.29
84 31.82
85 2.64
86 2.37
87 64.56
88 3.43
97 2.83
99 1.32
113 1.05
127 0.66

>  <PREDICTED SPECTRUM>  (5273) 
15 0
25 1
26 64
27 315
28 95
29 374
30 7
31 66
36 46
37 82
38 124
39 508
40 235
41 899
42 493
43 568
44 168
45 210
50 73
51 101
52 55
53 159
54 212
55 663
56 670
57 464
58 83
65 31
66 19
67 200
68 268
69 999
70 631
71 185
72 3
73 25
79 22
81 27
82 151
83 211
84 356
85 180
86 120
87 809
88 189
95 74
96 9
97 93
98 68
99 126
100 126
101 35
113 108
114 23
127 12

$$$$

     RDKit          2D

 10  9  0  0  0  0  0  0  0  0999 V2000
   -4.4596    3.2243    0.0000 C   0  0  0  0  0  0  0  0  0  0  0  0
   -3.1606    0.9743    0.0000 C   0  0  0  0  0  0  0  0  0  0  0  0
    1.4865    1.9252    0.0000 C   0  0  0  0  0  0  0  0  0  0  0  0
    2.0356    3.9743    0.0000 C   0  0  0  0  0  0  0  0  0  0  0  0
   -0.0135    4.5233    0.0000 C   0  0  0  0  0  0  0  0  0  0  0  0
   -3.1606    2.4743    0.0000 C   0  0  0  0  0  0  0  0  0  0  0  0
   -1.8615    3.2243    0.0000 C   0  0  0  0  0  0  0  0  0  0  0  0
    0.7365    3.2243    0.0000 C   0  0  0  0  0  0  0  0  0  0  0  0
   -1.8615    4.7243    0.0000 O   0  0  0  0  0  0  0  0  0  0  0  0
   -0.5625    2.4743    0.0000 O   0  0  0  0  0  0  0  0  0  0  0  0
  6  1  2  0
  6  2  1  0
  7  6  1  0
  8  3  1  0
  8  4  1  0
  8  5  1  0
  9  7  2  0
 10  7  1  0
 10  8  1  0
M  END
>  <NAME>  (5274) 
METHACRYLIC ACID TERT-BUTYL ESTER

>  <SYNONYMS>  (5274) 
TERT-BUTYL METHACRYLATE

>  <SPECTRUM TYPE>  (5274) 
MS1

>  <INSTRUMENT TYPE>  (5274) 
EI-B

>  <INSTRUMENT>  (5274) 
HITACHI RMU-7M

>  <ION MODE>  (5274) 
P

>  <INCHIKEY>  (5274) 
SJMYWORNLPSJQO-UHFFFAOYSA-N

>  <FORMULA>  (5274) 
C8H14O2

>  <EXACT MASS>  (5274) 
142.099379688

>  <MW>  (5274) 
142

>  <ID>  (5274) 
JP001683

>  <CONTRIBUTOR>  (5274) 
University of Tokyo Team, {Faculty of Engineering, University of Tokyo

>  <COMMENT>  (5274) 
SMILES=CC(=C)C(=O)OC(C)(C)C
InChI=InChI=1S/C8H14O2/c1-6(2)7(9)10-8(3,4)5/h1H2,2-5H3
computed SMILES=O=C(OC(C)(C)C)C(=C)C
accession=JP001683
date=2016.01.19 (Created 2008.10.21, modified 2011.05.06)
author=TAJIMA S, GUNMA COLLEGE OF TECHNOLOGY
license=CC BY-NC-SA
exact mass=142.09938
ionization energy=70 eV
ion type=[M]+*
computed spectral entropy=2.2666209531995847
computed normalized entropy=0.695688702513406
SPLASH=splash10-0a4i-9000000000-2e0e4d0166ab1b7a7448
submitter=submitter = University of Tokyo Team (Faculty of Engineering, University of Tokyo)
MoNA Rating=3.75

>  <NUM PEAKS>  (5274) 
26

>  <MASS SPECTRAL PEAKS>  (5274) 
15 1.68
27 3.75
28 2.75
29 17.14
31 1.45
38 1.07
39 12.78
40 2.91
41 59.76
42 2.45
43 3.75
55 3.37
56 28.39
57 99.99
58 4.44
59 2.98
69 62.51
70 2.83
86 1.38
87 19.74
88 0.92
91 5.36
105 0.92
106 2.45
124 1.53
127 1.76

>  <PREDICTED SPECTRUM>  (5274) 
15 26
25 3
26 70
27 266
28 107
29 317
31 136
32 23
37 84
38 131
39 564
40 236
41 999
42 280
43 298
44 124
45 229
49 68
50 108
51 123
53 179
54 60
55 87
56 453
57 878
58 179
59 292
65 22
67 77
68 117
69 904
70 177
71 202
85 46
86 59
87 344
97 1
98 18
99 66
127 79

$$$$

     RDKit          2D

 10  9  0  0  0  0  0  0  0  0999 V2000
    2.2733    2.8125    0.0000 C   0  0  0  0  0  0  0  0  0  0  0  0
    0.9743    5.0625    0.0000 C   0  0  0  0  0  0  0  0  0  0  0  0
   -4.2219    5.0625    0.0000 C   0  0  0  0  0  0  0  0  0  0  0  0
   -5.5209    2.8125    0.0000 C   0  0  0  0  0  0  0  0  0  0  0  0
   -0.3248    2.8125    0.0000 C   0  0  0  0  0  0  0  0  0  0  0  0
    0.9743    3.5625    0.0000 C   0  0  0  0  0  0  0  0  0  0  0  0
   -4.2219    3.5625    0.0000 C   0  0  0  0  0  0  0  0  0  0  0  0
   -2.9228    2.8125    0.0000 C   0  0  0  0  0  0  0  0  0  0  0  0
   -2.9228    1.3125    0.0000 O   0  0  0  0  0  0  0  0  0  0  0  0
   -1.6238    3.5625    0.0000 O   0  0  0  0  0  0  0  0  0  0  0  0
  6  1  1  0
  6  2  1  0
  6  5  1  0
  7  3  2  0
  7  4  1  0
  8  7  1  0
  9  8  2  0
 10  5  1  0
 10  8  1  0
M  END
>  <NAME>  (5275) 
METHACRYLIC ACID ISOBUTYL ESTER

>  <SYNONYMS>  (5275) 
ISOBUTYL METHACRYLATE

>  <SPECTRUM TYPE>  (5275) 
MS1

>  <INSTRUMENT TYPE>  (5275) 
EI-B

>  <INSTRUMENT>  (5275) 
HITACHI RMU-7M

>  <ION MODE>  (5275) 
P

>  <INCHIKEY>  (5275) 
RUMACXVDVNRZJZ-UHFFFAOYSA-N

>  <FORMULA>  (5275) 
C8H14O2

>  <EXACT MASS>  (5275) 
142.099379688

>  <MW>  (5275) 
142

>  <ID>  (5275) 
JP001682

>  <CONTRIBUTOR>  (5275) 
University of Tokyo Team, {Faculty of Engineering, University of Tokyo

>  <COMMENT>  (5275) 
SMILES=CC(C)COC(=O)C(C)=C
InChI=InChI=1S/C8H14O2/c1-6(2)5-10-8(9)7(3)4/h6H,3,5H2,1-2,4H3
computed SMILES=O=C(OCC(C)C)C(=C)C
accession=JP001682
date=2016.01.19 (Created 2008.10.21, modified 2011.05.06)
author=TAJIMA S, GUNMA COLLEGE OF TECHNOLOGY
license=CC BY-NC-SA
exact mass=142.09938
ionization energy=70 eV
ion type=[M]+*
computed spectral entropy=2.028473189126163
computed normalized entropy=0.6662697452947588
SPLASH=splash10-066u-9000000000-eb6a9221d885699b6f95
submitter=submitter = University of Tokyo Team (Faculty of Engineering, University of Tokyo)
MoNA Rating=3.75

>  <NUM PEAKS>  (5275) 
21

>  <MASS SPECTRAL PEAKS>  (5275) 
15 0.72
27 3.71
28 1.91
29 8.45
31 0.67
39 11.86
40 2.99
41 56.65
42 3.09
43 3.56
55 3.2
56 52.11
57 8.35
59 1.03
69 99.99
70 5.15
73 1.44
87 23.35
88 1.08
99 2.01
112 0.52

>  <PREDICTED SPECTRUM>  (5275) 
14 7
15 8
19 3
25 15
26 90
27 300
28 156
29 420
31 125
36 61
37 101
38 170
39 550
40 264
41 985
42 299
43 307
44 109
45 255
49 31
50 60
51 85
52 69
53 148
54 119
55 126
56 588
57 570
58 178
59 81
65 28
67 18
68 41
69 999
70 320
71 291
84 1
85 160
86 133
87 524
88 82
99 104

$$$$

     RDKit          2D

 10  9  0  0  0  0  0  0  0  0999 V2000
   -7.4695    3.9375    0.0000 C   0  0  0  0  0  0  0  0  0  0  0  0
    0.3248    5.4375    0.0000 C   0  0  0  0  0  0  0  0  0  0  0  0
    1.6238    3.1875    0.0000 C   0  0  0  0  0  0  0  0  0  0  0  0
   -6.1704    3.1875    0.0000 C   0  0  0  0  0  0  0  0  0  0  0  0
   -4.8714    3.9375    0.0000 C   0  0  0  0  0  0  0  0  0  0  0  0
   -3.5724    3.1875    0.0000 C   0  0  0  0  0  0  0  0  0  0  0  0
    0.3248    3.9375    0.0000 C   0  0  0  0  0  0  0  0  0  0  0  0
   -0.9743    3.1875    0.0000 C   0  0  0  0  0  0  0  0  0  0  0  0
   -0.9743    1.6875    0.0000 O   0  0  0  0  0  0  0  0  0  0  0  0
   -2.2733    3.9375    0.0000 O   0  0  0  0  0  0  0  0  0  0  0  0
  4  1  1  0
  5  4  1  0
  6  5  1  0
  7  2  2  0
  7  3  1  0
  8  7  1  0
  9  8  2  0
 10  6  1  0
 10  8  1  0
M  END
>  <NAME>  (5276) 
METHACRYLIC ACID BUTYL ESTER

>  <SYNONYMS>  (5276) 
BUTYL METHACRYLATE

>  <SPECTRUM TYPE>  (5276) 
MS1

>  <INSTRUMENT TYPE>  (5276) 
EI-B

>  <INSTRUMENT>  (5276) 
HITACHI RMU-7M

>  <ION MODE>  (5276) 
P

>  <INCHIKEY>  (5276) 
SOGAXMICEFXMKE-UHFFFAOYSA-N

>  <FORMULA>  (5276) 
C8H14O2

>  <EXACT MASS>  (5276) 
142.099379688

>  <MW>  (5276) 
142

>  <ID>  (5276) 
JP001681

>  <CONTRIBUTOR>  (5276) 
University of Tokyo Team, {Faculty of Engineering, University of Tokyo

>  <COMMENT>  (5276) 
SMILES=CCCCOC(=O)C(C)=C
InChI=InChI=1S/C8H14O2/c1-4-5-6-10-8(9)7(2)3/h2,4-6H2,1,3H3
computed SMILES=O=C(OCCCC)C(=C)C
accession=JP001681
date=2016.01.19 (Created 2008.10.21, modified 2011.05.06)
author=TAJIMA S, GUNMA COLLEGE OF TECHNOLOGY
license=CC BY-NC-SA
exact mass=142.09938
ionization energy=70 eV
ion type=[M]+*
computed spectral entropy=2.2959875586929477
computed normalized entropy=0.6966326465898364
SPLASH=splash10-0673-9000000000-c486d6de692ac2db015a
submitter=submitter = University of Tokyo Team (Faculty of Engineering, University of Tokyo)
MoNA Rating=3.75

>  <NUM PEAKS>  (5276) 
27

>  <MASS SPECTRAL PEAKS>  (5276) 
15 1.18
26 1.23
27 7.85
28 4.76
29 19.23
31 1.63
39 18.44
40 4.99
41 85.48
42 4.6
43 5.38
45 2.07
55 9.98
56 59.08
57 8.41
59 2.13
68 1.46
69 99.99
70 6
71 1.01
73 1.01
74 1.12
86 3.25
87 68.33
88 3.31
99 1.29
113 1.23

>  <PREDICTED SPECTRUM>  (5276) 
14 5
15 6
19 6
25 13
26 101
27 319
28 153
29 439
31 124
36 55
37 87
38 152
39 538
40 270
41 993
42 325
43 317
44 116
45 314
49 55
50 31
51 97
52 68
53 129
54 114
55 137
56 655
57 541
58 193
59 59
67 0
68 47
69 999
70 366
71 228
85 238
86 219
87 546
88 73
97 15
99 171

$$$$

     RDKit          2D

  9  8  0  0  0  0  0  0  0  0999 V2000
    1.9486    2.6250    0.0000 C   0  0  0  0  0  0  0  0  0  0  0  0
    0.6495    4.8750    0.0000 C   0  0  0  0  0  0  0  0  0  0  0  0
   -4.5466    3.3750    0.0000 C   0  0  0  0  0  0  0  0  0  0  0  0
   -3.2476    1.1250    0.0000 C   0  0  0  0  0  0  0  0  0  0  0  0
    0.6495    3.3750    0.0000 C   0  0  0  0  0  0  0  0  0  0  0  0
   -3.2476    2.6250    0.0000 C   0  0  0  0  0  0  0  0  0  0  0  0
   -0.6495    2.6250    0.0000 C   0  0  0  0  0  0  0  0  0  0  0  0
   -0.6495    1.1250    0.0000 O   0  0  0  0  0  0  0  0  0  0  0  0
   -1.9486    3.3750    0.0000 O   0  0  0  0  0  0  0  0  0  0  0  0
  5  1  2  0
  5  2  1  0
  6  3  1  0
  6  4  1  0
  7  5  1  0
  8  7  2  0
  9  6  1  0
  9  7  1  0
M  END
>  <NAME>  (5277) 
METHACRYLIC ACID ISOPROPYL ESTER

>  <SYNONYMS>  (5277) 
ISOPROPYL METHACRYLATE

>  <SPECTRUM TYPE>  (5277) 
MS1

>  <INSTRUMENT TYPE>  (5277) 
EI-B

>  <INSTRUMENT>  (5277) 
HITACHI RMU-7M

>  <ION MODE>  (5277) 
P

>  <INCHIKEY>  (5277) 
BOQSSGDQNWEFSX-UHFFFAOYSA-N

>  <FORMULA>  (5277) 
C7H12O2

>  <EXACT MASS>  (5277) 
128.083729624

>  <MW>  (5277) 
128

>  <ID>  (5277) 
JP001680

>  <CONTRIBUTOR>  (5277) 
University of Tokyo Team, {Faculty of Engineering, University of Tokyo

>  <COMMENT>  (5277) 
SMILES=CC(C)OC(=O)C(C)=C
InChI=InChI=1S/C7H12O2/c1-5(2)7(8)9-6(3)4/h6H,1H2,2-4H3
computed SMILES=O=C(OC(C)C)C(=C)C
accession=JP001680
date=2016.01.19 (Created 2008.10.21, modified 2011.05.06)
author=TAJIMA S, GUNMA COLLEGE OF TECHNOLOGY
license=CC BY-NC-SA
exact mass=128.08373
ionization energy=70 eV
ion type=[M]+*
computed spectral entropy=2.4041270398332544
computed normalized entropy=0.7214824397758371
SPLASH=splash10-00kf-9000000000-83a970125ce317c3c4ee
submitter=submitter = University of Tokyo Team (Faculty of Engineering, University of Tokyo)
MoNA Rating=3.75

>  <NUM PEAKS>  (5277) 
28

>  <MASS SPECTRAL PEAKS>  (5277) 
15 3.02
26 1.07
27 11.2
28 2.33
29 1.45
31 1.89
38 1.89
39 21.96
40 5.6
41 77.53
42 15.04
43 69.54
44 2.52
45 5.35
55 1.26
59 24.1
68 1.76
69 99.99
70 13.22
74 1.26
82 1.76
83 5.98
86 5.54
87 52.67
88 2.39
110 0.69
113 5.29
128 1.89

>  <PREDICTED SPECTRUM>  (5277) 
14 20
15 74
25 31
26 148
27 445
28 161
29 228
31 83
36 32
37 118
38 202
39 641
40 308
41 964
42 436
43 832
44 152
45 202
49 61
50 131
51 98
52 112
53 122
54 60
58 170
59 116
68 120
69 999
70 200
71 335
72 47
84 116
85 223
86 121
87 251
88 33
113 41
128 34

$$$$

     RDKit          2D

  8  7  0  0  0  0  0  0  0  0999 V2000
    1.6238    3.1875    0.0000 C   0  0  0  0  0  0  0  0  0  0  0  0
   -3.5724    1.6875    0.0000 C   0  0  0  0  0  0  0  0  0  0  0  0
   -4.8714    3.9375    0.0000 C   0  0  0  0  0  0  0  0  0  0  0  0
    0.3248    3.9375    0.0000 C   0  0  0  0  0  0  0  0  0  0  0  0
   -3.5724    3.1875    0.0000 C   0  0  0  0  0  0  0  0  0  0  0  0
   -2.2733    3.9375    0.0000 C   0  0  0  0  0  0  0  0  0  0  0  0
   -2.2733    5.4375    0.0000 O   0  0  0  0  0  0  0  0  0  0  0  0
   -0.9743    3.1875    0.0000 O   0  0  0  0  0  0  0  0  0  0  0  0
  4  1  1  0
  5  2  2  0
  5  3  1  0
  6  5  1  0
  7  6  2  0
  8  4  1  0
  8  6  1  0
M  END
>  <NAME>  (5278) 
METHACRYLIC ACID ETHYL ESTER

>  <SYNONYMS>  (5278) 
ETHYL METHACRYLATE

>  <SPECTRUM TYPE>  (5278) 
MS1

>  <INSTRUMENT TYPE>  (5278) 
EI-B

>  <INSTRUMENT>  (5278) 
HITACHI RMU-7M

>  <ION MODE>  (5278) 
P

>  <INCHIKEY>  (5278) 
SUPCQIBBMFXVTL-UHFFFAOYSA-N

>  <FORMULA>  (5278) 
C6H10O2

>  <EXACT MASS>  (5278) 
114.06807956

>  <MW>  (5278) 
114

>  <ID>  (5278) 
JP001679

>  <CONTRIBUTOR>  (5278) 
University of Tokyo Team, {Faculty of Engineering, University of Tokyo

>  <COMMENT>  (5278) 
SMILES=CCOC(=O)C(C)=C
InChI=InChI=1S/C6H10O2/c1-4-8-6(7)5(2)3/h2,4H2,1,3H3
computed SMILES=O=C(OCC)C(=C)C
accession=JP001679
date=2016.01.19 (Created 2008.10.21, modified 2011.05.06)
author=TAJIMA S, GUNMA COLLEGE OF TECHNOLOGY
license=CC BY-NC-SA
exact mass=114.06808
ionization energy=70 eV
ion type=[M]+*
computed spectral entropy=2.384117429988784
computed normalized entropy=0.7317516231230421
SPLASH=splash10-014l-9000000000-d36b841316cfbfab4ba6
submitter=submitter = University of Tokyo Team (Faculty of Engineering, University of Tokyo)
MoNA Rating=3.75

>  <NUM PEAKS>  (5278) 
26

>  <MASS SPECTRAL PEAKS>  (5278) 
15 3.12
26 2.82
27 12.34
28 3.73
29 33.21
38 3.05
39 29.7
40 8.61
41 91.77
42 8.38
43 3.66
45 9.6
55 2.89
58 2.82
68 5.18
69 99.99
70 8.38
71 2.51
85 1.6
86 17.52
87 2.36
96 2.21
99 11.42
113 1.45
114 6.09
115 0.76

>  <PREDICTED SPECTRUM>  (5278) 
14 40
15 80
19 23
25 36
26 188
27 494
28 208
29 599
31 122
32 4
36 44
37 130
38 220
39 664
40 304
41 924
42 404
43 368
44 89
45 296
46 32
47 8
49 29
50 118
51 108
52 8
53 145
54 51
55 230
56 65
57 165
58 84
59 88
67 60
68 268
69 999
70 272
71 231
72 71
73 19
74 73
83 2
85 121
86 521
87 248
88 42
99 111
114 266
115 60

$$$$

     RDKit          2D

  6  5  0  0  0  0  0  0  0  0999 V2000
   -0.0000   -0.0000    0.0000 C   0  0  0  0  0  0  0  0  0  0  0  0
    1.2990    2.2500    0.0000 C   0  0  0  0  0  0  0  0  0  0  0  0
   -0.0000    1.5000    0.0000 C   0  0  0  0  0  0  0  0  0  0  0  0
   -1.2990    2.2500    0.0000 C   0  0  0  0  0  0  0  0  0  0  0  0
   -2.5981    1.5000    0.0000 O   0  0  0  0  0  0  0  0  0  0  0  0
   -1.2990    3.7500    0.0000 O   0  0  0  0  0  0  0  0  0  0  0  0
  3  1  2  0
  3  2  1  0
  4  3  1  0
  5  4  2  0
  6  4  1  0
M  END
>  <NAME>  (5279) 
METHACRYLIC ACID

>  <SYNONYMS>  (5279) 


>  <SPECTRUM TYPE>  (5279) 
MS1

>  <INSTRUMENT TYPE>  (5279) 
EI-B

>  <INSTRUMENT>  (5279) 
HITACHI RMU-7M

>  <ION MODE>  (5279) 
P

>  <INCHIKEY>  (5279) 
CERQOIWHTDAKMF-UHFFFAOYSA-N

>  <FORMULA>  (5279) 
C4H6O2

>  <EXACT MASS>  (5279) 
86.036779432

>  <MW>  (5279) 
86

>  <ID>  (5279) 
JP001678

>  <CONTRIBUTOR>  (5279) 
University of Tokyo Team, {Faculty of Engineering, University of Tokyo

>  <COMMENT>  (5279) 
SMILES=CC(=C)C(O)=O
InChI=InChI=1S/C4H6O2/c1-3(2)4(5)6/h1H2,2H3,(H,5,6)
computed SMILES=O=C(O)C(=C)C
accession=JP001678
date=2016.01.19 (Created 2008.10.21, modified 2011.05.06)
author=TAJIMA S, GUNMA COLLEGE OF TECHNOLOGY
license=CC BY-NC-SA
exact mass=86.03678
ionization energy=70 eV
ion type=[M]+*
computed spectral entropy=2.288103061098794
computed normalized entropy=0.7199698882533665
SPLASH=splash10-000l-9000000000-c9d0061e71d30b1e89c3
submitter=submitter = University of Tokyo Team (Faculty of Engineering, University of Tokyo)
MoNA Rating=3.75

>  <NUM PEAKS>  (5279) 
24

>  <MASS SPECTRAL PEAKS>  (5279) 
15 2.28
26 2.66
27 5.54
28 4.02
29 3.26
31 1
37 5.32
38 9.04
39 58.92
40 17.46
41 99.99
42 7.59
43 5.32
44 1.9
45 11.31
53 1.75
57 3.26
58 3.95
68 7.44
69 13.9
71 1.75
85 3.64
86 72.29
87 3.87

>  <PREDICTED SPECTRUM>  (5279) 
14 45
15 69
16 23
17 27
18 30
19 30
25 53
26 152
27 323
28 147
29 292
30 25
31 90
32 0
35 8
36 91
37 214
38 287
39 720
40 394
41 933
42 362
43 492
44 240
45 322
46 64
49 86
50 179
51 107
52 6
53 205
54 110
55 118
56 62
57 173
58 137
59 27
67 153
68 296
69 999
70 157
71 375
72 16
85 242
86 614
87 183
88 18

$$$$

     RDKit          2D

  8  8  0  0  0  0  0  0  0  0999 V2000
   -2.9228    0.8825    0.0000 C   0  0  0  0  0  0  0  0  0  0  0  0
   -1.6238    1.6325    0.0000 C   0  0  0  0  0  0  0  0  0  0  0  0
    2.2733   -0.6175    0.0000 C   0  0  0  0  0  0  0  0  0  0  0  0
    2.2738    0.8833    0.0000 C   0  0  0  0  0  0  0  0  0  0  0  0
    0.9738   -1.3683    0.0000 C   0  0  0  0  0  0  0  0  0  0  0  0
    0.9748    1.6333    0.0000 C   0  0  0  0  0  0  0  0  0  0  0  0
   -0.3252   -0.6183    0.0000 C   0  0  0  0  0  0  0  0  0  0  0  0
   -0.3248    0.8825    0.0000 C   0  0  0  0  0  0  0  0  0  0  0  0
  2  1  1  0
  4  3  2  0
  5  3  1  0
  6  4  1  0
  7  5  2  0
  8  2  1  0
  8  6  2  0
  8  7  1  0
M  END
>  <NAME>  (5280) 
ETHYLBENZENE

>  <SYNONYMS>  (5280) 


>  <SPECTRUM TYPE>  (5280) 
MS1

>  <INSTRUMENT TYPE>  (5280) 
EI-B

>  <INSTRUMENT>  (5280) 
HITACHI RMU-7M

>  <ION MODE>  (5280) 
P

>  <INCHIKEY>  (5280) 
YNQLUTRBYVCPMQ-UHFFFAOYSA-N

>  <FORMULA>  (5280) 
C8H10

>  <EXACT MASS>  (5280) 
106.07825032

>  <MW>  (5280) 
106

>  <ID>  (5280) 
JP001672

>  <CONTRIBUTOR>  (5280) 
University of Tokyo Team, {Faculty of Engineering, University of Tokyo

>  <COMMENT>  (5280) 
SMILES=CCc(c1)cccc1
InChI=InChI=1S/C8H10/c1-2-8-6-4-3-5-7-8/h3-7H,2H2,1H3
computed SMILES=C=1C=CC(=CC1)CC
accession=JP001672
date=2016.01.19 (Created 2008.10.21, modified 2011.05.06)
author=TAJIMA S, GUNMA COLLEGE OF TECHNOLOGY
license=CC BY-NC-SA
exact mass=106.07825
ionization energy=70 eV
ion type=[M]+*
computed spectral entropy=1.9089788619133499
computed normalized entropy=0.6737857796406991
SPLASH=splash10-0006-9200000000-c2b5306fbaeb48134d6b
submitter=submitter = University of Tokyo Team (Faculty of Engineering, University of Tokyo)
MoNA Rating=3.75

>  <NUM PEAKS>  (5280) 
17

>  <MASS SPECTRAL PEAKS>  (5280) 
27 2.32
39 5.06
50 2.93
51 9.15
52 2.99
63 2.62
65 7.87
77 7.5
78 5.49
79 3.97
89 1.65
91 99.99
92 7.38
103 3.05
105 5.98
106 32.95
107 2.62

>  <PREDICTED SPECTRUM>  (5280) 
14 17
15 61
25 2
26 77
27 233
28 94
29 110
37 59
38 143
39 362
40 122
41 213
42 54
49 4
50 215
51 371
52 207
53 207
54 63
55 37
56 66
57 33
58 111
61 63
62 111
63 231
64 156
65 377
66 132
67 93
71 44
72 2
74 95
75 88
76 94
77 433
78 346
79 366
80 18
89 179
90 121
91 999
92 388
102 55
103 252
104 258
105 391
106 651
107 244
108 21

$$$$

     RDKit          2D

 11 11  0  0  0  0  0  0  0  0999 V2000
   -3.8969    2.5696    0.0000 C   0  0  0  0  0  0  0  0  0  0  0  0
   -2.5978    0.3196    0.0000 C   0  0  0  0  0  0  0  0  0  0  0  0
    2.5983    0.3196    0.0000 C   0  0  0  0  0  0  0  0  0  0  0  0
    2.5988    1.8204    0.0000 C   0  0  0  0  0  0  0  0  0  0  0  0
    1.2988   -0.4312    0.0000 C   0  0  0  0  0  0  0  0  0  0  0  0
    1.2998    2.5704    0.0000 C   0  0  0  0  0  0  0  0  0  0  0  0
   -0.0002    0.3188    0.0000 C   0  0  0  0  0  0  0  0  0  0  0  0
   -2.5978    1.8196    0.0000 C   0  0  0  0  0  0  0  0  0  0  0  0
    0.0002    1.8196    0.0000 C   0  0  0  0  0  0  0  0  0  0  0  0
   -1.2988    2.5696    0.0000 C   0  0  0  0  0  0  0  0  0  0  0  0
   -1.2988    4.0696    0.0000 O   0  0  0  0  0  0  0  0  0  0  0  0
  4  3  2  0
  5  3  1  0
  6  4  1  0
  7  5  2  0
  8  1  1  0
  8  2  1  0
  9  6  2  0
  9  7  1  0
 10  8  1  0
 10  9  1  0
 11 10  2  0
M  END
>  <NAME>  (5281) 
ISOPROPYL PHENYL KETONE

>  <SYNONYMS>  (5281) 


>  <SPECTRUM TYPE>  (5281) 
MS1

>  <INSTRUMENT TYPE>  (5281) 
EI-B

>  <INSTRUMENT>  (5281) 
HITACHI RMU-7M

>  <ION MODE>  (5281) 
P

>  <INCHIKEY>  (5281) 
BSMGLVDZZMBWQB-UHFFFAOYSA-N

>  <FORMULA>  (5281) 
C10H12O

>  <EXACT MASS>  (5281) 
148.088815004

>  <MW>  (5281) 
148

>  <ID>  (5281) 
JP001664

>  <CONTRIBUTOR>  (5281) 
University of Tokyo Team, {Faculty of Engineering, University of Tokyo

>  <COMMENT>  (5281) 
SMILES=CC(C)C(=O)c(c1)cccc1
InChI=InChI=1S/C10H12O/c1-8(2)10(11)9-6-4-3-5-7-9/h3-8H,1-2H3
computed SMILES=O=C(C=1C=CC=CC1)C(C)C
accession=JP001664
date=2016.01.19 (Created 2008.10.21, modified 2011.05.06)
author=TAJIMA S, GUNMA COLLEGE OF TECHNOLOGY
license=CC BY-NC-SA
exact mass=148.08882
ionization energy=70 eV
ion type=[M]+*
computed spectral entropy=1.2922003826174262
computed normalized entropy=0.5200196887587991
SPLASH=splash10-0a4i-3900000000-408fcfb356cdd271e01e
submitter=submitter = University of Tokyo Team (Faculty of Engineering, University of Tokyo)
MoNA Rating=3.75

>  <NUM PEAKS>  (5281) 
12

>  <MASS SPECTRAL PEAKS>  (5281) 
27 1.72
39 2.28
41 2.74
43 1.35
50 1.95
51 7.57
76 0.93
77 25.73
78 2
105 99.99
106 6.92
148 2.14

>  <PREDICTED SPECTRUM>  (5281) 
15 0
26 30
27 144
28 33
37 30
38 59
39 206
40 62
41 259
42 161
43 480
44 153
49 5
50 179
51 400
52 172
53 98
54 60
55 66
56 121
57 58
58 61
59 7
60 6
62 55
63 94
64 40
65 91
66 66
69 31
71 124
74 55
75 62
76 76
77 629
78 266
79 220
87 21
89 95
90 34
91 188
92 40
102 55
103 144
104 31
105 999
106 309
107 60
115 76
131 30
133 88
134 20
147 88
148 450
149 172

$$$$

     RDKit          2D

 11 11  0  0  0  0  0  0  0  0999 V2000
    0.6471   -2.6191    0.0000 C   0  0  0  0  0  0  0  0  0  0  0  0
   -0.6520   -1.8691    0.0000 C   0  0  0  0  0  0  0  0  0  0  0  0
    1.9416   -1.8769    0.0000 C   0  0  0  0  0  0  0  0  0  0  0  0
    0.6430    0.3740    0.0000 C   0  0  0  0  0  0  0  0  0  0  0  0
   -1.9568    0.3709    0.0000 C   0  0  0  0  0  0  0  0  0  0  0  0
   -0.6565   -0.3769    0.0000 C   0  0  0  0  0  0  0  0  0  0  0  0
    1.9421   -0.3760    0.0000 C   0  0  0  0  0  0  0  0  0  0  0  0
    3.2412    0.3737    0.0000 N   0  0  0  0  0  0  0  0  0  0  0  0
   -3.2546   -0.3812    0.0000 O   0  0  0  0  0  0  0  0  0  0  0  0
    4.5401   -0.3765    0.0000 O   0  0  0  0  0  0  0  0  0  0  0  0
    3.2415    1.8737    0.0000 O   0  0  0  0  0  0  0  0  0  0  0  0
  2  1  2  0
  3  1  1  0
  6  2  1  0
  6  4  2  0
  6  5  1  0
  7  3  2  0
  7  4  1  0
  8  7  1  0
  9  5  2  0
 10  8  1  0
 11  8  2  0
M  CHG  2   8   1  10  -1
M  END
>  <NAME>  (5282) 
META-NITROBENZALDEHYDE

>  <SYNONYMS>  (5282) 


>  <SPECTRUM TYPE>  (5282) 
MS1

>  <INSTRUMENT TYPE>  (5282) 
EI-B

>  <INSTRUMENT>  (5282) 
HITACHI RMU-7M

>  <ION MODE>  (5282) 
P

>  <INCHIKEY>  (5282) 
ZETIVVHRRQLWFW-UHFFFAOYSA-N

>  <FORMULA>  (5282) 
C7H5NO3

>  <EXACT MASS>  (5282) 
151.02694302

>  <MW>  (5282) 
151

>  <ID>  (5282) 
JP001659

>  <CONTRIBUTOR>  (5282) 
University of Tokyo Team, {Faculty of Engineering, University of Tokyo

>  <COMMENT>  (5282) 
SMILES=O=Cc(c1)cc(cc1)[N+1]([O-1])=O
InChI=InChI=1S/C7H5NO3/c9-5-6-2-1-3-7(4-6)8(10)11/h1-5H
computed SMILES=O=CC1=CC=CC(=C1)N(=O)=O
accession=JP001659
date=2016.01.19 (Created 2008.10.21, modified 2011.05.06)
author=TAJIMA S, GUNMA COLLEGE OF TECHNOLOGY
license=CC BY-NC-SA
exact mass=151.02694
ionization energy=70 eV
ion type=[M]+*
computed spectral entropy=2.71188304990289
computed normalized entropy=0.7690317059110324
SPLASH=splash10-0udi-9600000000-f2894ea4fbbd37052a02
submitter=submitter = University of Tokyo Team (Faculty of Engineering, University of Tokyo)
MoNA Rating=3.75

>  <NUM PEAKS>  (5282) 
34

>  <MASS SPECTRAL PEAKS>  (5282) 
27 6.07
28 5.55
29 7.19
30 6.07
31 3.81
32 2.77
37 3.21
38 4.42
39 7.8
49 1.73
50 32.84
51 86.92
52 3.99
62 2.43
63 4.33
64 3.12
65 11.01
73 1.99
74 12.82
75 14.04
76 26.52
77 99.99
78 6.24
92 4.42
93 1.65
104 19.5
105 53.21
106 3.99
120 3.47
121 2.69
135 1.56
150 84.84
151 87.52
152 8.15

>  <PREDICTED SPECTRUM>  (5282) 
14 55
15 141
16 28
17 11
18 44
25 43
26 117
27 151
28 177
29 396
30 497
31 180
32 39
33 22
34 24
36 36
37 237
38 298
39 468
40 136
44 49
45 57
46 235
49 130
50 767
51 615
52 7
53 190
54 19
57 118
60 82
61 161
62 326
63 670
64 90
65 467
66 114
73 309
74 591
75 776
76 760
77 592
78 111
79 42
88 15
90 16
91 128
92 367
93 126
94 20
104 786
105 407
106 103
107 172
120 95
121 308
122 279
134 110
135 104
150 917
151 999
152 328
153 72

$$$$

     RDKit          2D

 12 12  0  0  0  0  0  0  0  0999 V2000
   -3.8981    0.7504    0.0000 C   0  0  0  0  0  0  0  0  0  0  0  0
   -1.3000   -0.7500    0.0000 C   0  0  0  0  0  0  0  0  0  0  0  0
    0.0000    1.5000    0.0000 C   0  0  0  0  0  0  0  0  0  0  0  0
    0.0000   -1.5000    0.0000 C   0  0  0  0  0  0  0  0  0  0  0  0
    1.3000    0.7500    0.0000 C   0  0  0  0  0  0  0  0  0  0  0  0
   -2.5989    1.5002    0.0000 C   0  0  0  0  0  0  0  0  0  0  0  0
   -1.3000    0.7500    0.0000 C   0  0  0  0  0  0  0  0  0  0  0  0
    1.3000   -0.7500    0.0000 C   0  0  0  0  0  0  0  0  0  0  0  0
    2.5989   -1.5002    0.0000 N   0  0  0  0  0  0  0  0  0  0  0  0
   -2.5987    3.0002    0.0000 O   0  0  0  0  0  0  0  0  0  0  0  0
    3.8981   -0.7504    0.0000 O   0  0  0  0  0  0  0  0  0  0  0  0
    2.5987   -3.0002    0.0000 O   0  0  0  0  0  0  0  0  0  0  0  0
  4  2  2  0
  5  3  1  0
  6  1  1  0
  7  2  1  0
  7  3  2  0
  7  6  1  0
  8  4  1  0
  8  5  2  0
  9  8  1  0
 10  6  2  0
 11  9  1  0
 12  9  2  0
M  CHG  2   9   1  11  -1
M  END
>  <NAME>  (5283) 
PARA-NITROACETOPHENONE

>  <SYNONYMS>  (5283) 


>  <SPECTRUM TYPE>  (5283) 
MS1

>  <INSTRUMENT TYPE>  (5283) 
EI-B

>  <INSTRUMENT>  (5283) 
HITACHI RMU-7M

>  <ION MODE>  (5283) 
P

>  <INCHIKEY>  (5283) 
YQYGPGKTNQNXMH-UHFFFAOYSA-N

>  <FORMULA>  (5283) 
C8H7NO3

>  <EXACT MASS>  (5283) 
165.04259308399998

>  <MW>  (5283) 
165

>  <ID>  (5283) 
JP001658

>  <CONTRIBUTOR>  (5283) 
University of Tokyo Team, {Faculty of Engineering, University of Tokyo

>  <COMMENT>  (5283) 
SMILES=CC(=O)c(c1)ccc(c1)[N+1]([O-1])=O
InChI=InChI=1S/C8H7NO3/c1-6(10)7-2-4-8(5-3-7)9(11)12/h2-5H,1H3
computed SMILES=O=C(C1=CC=C(C=C1)N(=O)=O)C
accession=JP001658
date=2016.01.19 (Created 2008.10.21, modified 2011.05.06)
author=TAJIMA S, GUNMA COLLEGE OF TECHNOLOGY
license=CC BY-NC-SA
exact mass=165.04259
ionization energy=70 eV
ion type=[M]+*
computed spectral entropy=2.2874036458580136
computed normalized entropy=0.7106218973053032
SPLASH=splash10-0udi-3900000000-ef4aa0cf3d727e6de0be
submitter=submitter = University of Tokyo Team (Faculty of Engineering, University of Tokyo)
MoNA Rating=3.75

>  <NUM PEAKS>  (5283) 
25

>  <MASS SPECTRAL PEAKS>  (5283) 
43 18.38
44 2.59
50 6.33
51 2.36
55 1.14
57 1.37
63 1.91
64 1.98
65 2.44
74 2.82
75 4.73
76 12.2
77 3.81
91 2.67
92 8.39
104 27.69
105 2.29
119 1
120 19.15
121 2.44
149 1.98
150 99.99
151 7.86
165 11.44
166 0.99

>  <PREDICTED SPECTRUM>  (5283) 
14 32
15 130
26 25
27 50
28 32
29 40
30 136
36 0
37 117
38 175
39 212
40 102
42 68
43 706
44 119
45 69
46 106
49 56
50 407
51 287
52 128
53 167
54 22
61 221
62 286
63 385
64 260
65 221
66 136
67 25
72 4
73 89
74 251
75 351
76 469
77 261
78 111
79 136
87 91
88 21
89 185
90 148
91 190
92 276
93 84
102 35
103 60
104 530
105 202
106 105
107 89
118 110
119 124
120 224
121 89
122 76
123 33
134 15
135 10
149 123
150 999
151 270
152 68
165 388
166 116

$$$$

     RDKit          2D

 11 10  0  0  0  0  0  0  0  0999 V2000
    2.0490    2.5981    0.0000 C   0  0  0  0  0  0  0  0  0  0  0  0
    2.0490    4.0981    0.0000 H   0  0  0  0  0  0  0  0  0  0  0  0
    2.0490    1.0981    0.0000 H   0  0  0  0  0  0  0  0  0  0  0  0
    3.5490    2.5981    0.0000 H   0  0  0  0  0  0  0  0  0  0  0  0
   -0.2010    1.2990    0.0000 C   0  0  0  0  0  0  0  0  0  0  0  0
   -1.5000    2.0490    0.0000 H   0  0  0  0  0  0  0  0  0  0  0  0
   -0.9510    0.0000    0.0000 H   0  0  0  0  0  0  0  0  0  0  0  0
    1.0981    0.5490    0.0000 H   0  0  0  0  0  0  0  0  0  0  0  0
    0.5490    2.5981    0.0000 C   0  0  0  0  0  0  0  0  0  0  0  0
    0.8095    4.0753    0.0000 H   0  0  0  0  0  0  0  0  0  0  0  0
   -0.8605    3.1111    0.0000 O   0  0  0  0  0  0  0  0  0  0  0  0
  1  2  1  0
  1  3  1  0
  1  4  1  0
  5  6  1  0
  5  7  1  0
  5  8  1  0
  9 10  1  0
  9  1  1  0
  9  5  1  0
 11  9  1  0
M  ISO  7   2   2   3   2   4   2   6   2   7   2   8   2  10   2
M  END
>  <NAME>  (5284) 
ISOPROPYL ALCOHOL(1,1,1,2,3,3,3-D7)

>  <SYNONYMS>  (5284) 


>  <SPECTRUM TYPE>  (5284) 
MS1

>  <INSTRUMENT TYPE>  (5284) 
EI-B

>  <INSTRUMENT>  (5284) 
HITACHI RMU-7M

>  <ION MODE>  (5284) 
P

>  <INCHIKEY>  (5284) 
KFZMGEQAYNKOFK-YYWVXINBSA-N

>  <FORMULA>  (5284) 
C3H8O

>  <EXACT MASS>  (5284) 
67.101452098

>  <MW>  (5284) 
67

>  <ID>  (5284) 
JP001656

>  <CONTRIBUTOR>  (5284) 
University of Tokyo Team, {Faculty of Engineering, University of Tokyo

>  <COMMENT>  (5284) 
SMILES=[2H]C([2H])([2H])C([2H])(O)C([2H])([2H])[2H]
InChI=InChI=1S/C3H8O/c1-3(2)4/h3-4H,1-2H3/i1D3,2D3,3D
computed SMILES=[H]C(O)(C([H])([H])[H])C([H])([H])[H]
accession=JP001656
date=2016.01.19 (Created 2008.10.21, modified 2011.05.06)
author=TAJIMA S, GUNMA COLLEGE OF TECHNOLOGY
license=CC BY-NC-SA
exact mass=60.05751
ionization energy=70 eV
ion type=[M]+*
computed spectral entropy=1.4333249786330373
computed normalized entropy=0.5169627096640406
SPLASH=splash10-0002-9000000000-40a45591af6378500aeb
submitter=submitter = University of Tokyo Team (Faculty of Engineering, University of Tokyo)
MoNA Rating=3.75

>  <NUM PEAKS>  (5284) 
16

>  <MASS SPECTRAL PEAKS>  (5284) 
18 2.5
21 3.72
22 0.51
28 1.93
29 1.17
30 11.66
33 2.39
42 2.09
45 2.19
46 8.66
47 1.48
48 1.68
49 99.99
50 7.74
51 0.92
65 2.19

>  <PREDICTED SPECTRUM>  (5284) 
4 237
14 41
15 155
16 53
17 11
18 8
19 9
25 18
31 260
32 184
33 43
34 104
36 253
37 245
38 70
43 129
46 428
47 280
48 489
49 841
50 93
51 240
54 96
61 147
62 16
63 164
64 264
65 549
66 177
67 999
68 164
69 31
71 242

$$$$

     RDKit          2D

 10  9  0  0  0  0  0  0  0  0999 V2000
    0.4118    1.0613    0.0000 C   0  0  0  0  0  0  0  0  0  0  0  0
    1.1618   -0.2377    0.0000 H   0  0  0  0  0  0  0  0  0  0  0  0
   -0.3382    2.3603    0.0000 H   0  0  0  0  0  0  0  0  0  0  0  0
   -0.8873    0.3113    0.0000 H   0  0  0  0  0  0  0  0  0  0  0  0
    1.7108    3.3113    0.0000 C   0  0  0  0  0  0  0  0  0  0  0  0
    3.2108    3.3113    0.0000 H   0  0  0  0  0  0  0  0  0  0  0  0
    1.7108    4.8113    0.0000 H   0  0  0  0  0  0  0  0  0  0  0  0
    0.2108    3.3113    0.0000 H   0  0  0  0  0  0  0  0  0  0  0  0
    1.7108    1.8113    0.0000 C   0  0  0  0  0  0  0  0  0  0  0  0
    3.0099    1.0613    0.0000 O   0  0  0  0  0  0  0  0  0  0  0  0
  1  2  1  0
  1  3  1  0
  1  4  1  0
  5  6  1  0
  5  7  1  0
  5  8  1  0
  9  1  1  0
  9  5  1  0
 10  9  1  0
M  ISO  6   2   2   3   2   4   2   6   2   7   2   8   2
M  END
>  <NAME>  (5285) 
ISOPROPYL ALCOHOL(1,1,1,3,3,3-D6)

>  <SYNONYMS>  (5285) 


>  <SPECTRUM TYPE>  (5285) 
MS1

>  <INSTRUMENT TYPE>  (5285) 
EI-B

>  <INSTRUMENT>  (5285) 
HITACHI RMU-7M

>  <ION MODE>  (5285) 
P

>  <INCHIKEY>  (5285) 
KFZMGEQAYNKOFK-WFGJKAKNSA-N

>  <FORMULA>  (5285) 
C3H8O

>  <EXACT MASS>  (5285) 
66.095175352

>  <MW>  (5285) 
66

>  <ID>  (5285) 
JP001655

>  <CONTRIBUTOR>  (5285) 
University of Tokyo Team, {Faculty of Engineering, University of Tokyo

>  <COMMENT>  (5285) 
SMILES=[2H]C([2H])([2H])C([H])(O)C([2H])([2H])[2H]
InChI=InChI=1S/C3H8O/c1-3(2)4/h3-4H,1-2H3/i1D3,2D3
computed SMILES=[H]C([H])([H])C(O)C([H])([H])[H]
computed spectral entropy=1.5582972291674526
accession=JP001655
date=2016.01.19 (Created 2008.10.21, modified 2011.05.06)
author=TAJIMA S, GUNMA COLLEGE OF TECHNOLOGY
license=CC BY-NC-SA
exact mass=60.05751
ionization energy=70 eV
ion type=[M]+*
computed normalized entropy=0.5754314408695992
SPLASH=splash10-0002-9000000000-a1c27780d39325f67c84
submitter=submitter = University of Tokyo Team (Faculty of Engineering, University of Tokyo)
MoNA Rating=3.75

>  <NUM PEAKS>  (5285) 
15

>  <MASS SPECTRAL PEAKS>  (5285) 
18 2.5
20 3.22
21 2.91
28 1.38
29 6.38
30 4.85
33 3.47
42 1.89
44 1.69
45 5.11
46 8.84
47 1.74
48 99.99
49 8.32
65 4.85

>  <PREDICTED SPECTRUM>  (5285) 
4 22
14 68
16 72
17 91
18 194
19 90
25 57
26 308
28 398
29 139
30 368
31 555
32 222
33 17
34 84
36 74
45 777
46 644
47 868
48 999
49 342
50 274
52 89
54 591
60 415
61 654
62 236
63 222
64 735
65 75
66 671
67 208
71 20

$$$$

     RDKit          2D

  5  4  0  0  0  0  0  0  0  0999 V2000
   -1.2990    0.7500    0.0000 C   0  0  0  0  0  0  0  0  0  0  0  0
    0.7500    0.2010    0.0000 C   0  0  0  0  0  0  0  0  0  0  0  0
    0.0000    1.5000    0.0000 C   0  0  0  0  0  0  0  0  0  0  0  0
    1.2990    2.2500    0.0000 H   0  0  0  0  0  0  0  0  0  0  0  0
   -0.7500    2.7990    0.0000 O   0  0  0  0  0  0  0  0  0  0  0  0
  3  4  1  0
  3  1  1  0
  3  2  1  0
  5  3  1  0
M  ISO  1   4   2
M  END
>  <NAME>  (5286) 
ISOPROPYL ALCOHOL(2-D)

>  <SYNONYMS>  (5286) 


>  <SPECTRUM TYPE>  (5286) 
MS1

>  <INSTRUMENT TYPE>  (5286) 
EI-B

>  <INSTRUMENT>  (5286) 
HITACHI RMU-7M

>  <ION MODE>  (5286) 
P

>  <INCHIKEY>  (5286) 
KFZMGEQAYNKOFK-WFVSFCRTSA-N

>  <FORMULA>  (5286) 
C3H8O

>  <EXACT MASS>  (5286) 
61.063791622

>  <MW>  (5286) 
61

>  <ID>  (5286) 
JP001654

>  <CONTRIBUTOR>  (5286) 
University of Tokyo Team, {Faculty of Engineering, University of Tokyo

>  <COMMENT>  (5286) 
SMILES=[2H]C(C)(C)O
InChI=InChI=1S/C3H8O/c1-3(2)4/h3-4H,1-2H3/i3D
computed SMILES=[H]C(O)(C)C
accession=JP001654
date=2016.01.19 (Created 2008.10.21, modified 2011.05.06)
author=TAJIMA S, GUNMA COLLEGE OF TECHNOLOGY
license=CC BY-NC-SA
exact mass=60.05751
ionization energy=70 eV
ion type=[M]+*
computed spectral entropy=1.6627774069974746
computed normalized entropy=0.564717903397747
SPLASH=splash10-0002-9000000000-f68d78a99d0ee77081c8
submitter=submitter = University of Tokyo Team (Faculty of Engineering, University of Tokyo)
MoNA Rating=3.75

>  <NUM PEAKS>  (5286) 
19

>  <MASS SPECTRAL PEAKS>  (5286) 
15 2.52
19 2.63
20 2.09
27 3.92
28 8.05
29 3.11
30 2.52
31 2.41
32 1.07
39 2.15
40 1.72
41 1.77
42 4.03
43 6.23
44 7.14
45 3.22
46 99.99
47 1.93
59 1.56

>  <PREDICTED SPECTRUM>  (5286) 
14 62
15 175
16 12
18 12
19 40
25 20
26 90
27 246
28 146
29 248
31 405
32 52
33 35
37 15
38 14
39 227
40 79
41 268
42 193
43 600
44 121
45 15
46 136
47 39
50 15
57 53
59 999
60 143
61 58

$$$$

     RDKit          2D

 12 12  0  0  0  0  0  0  0  0999 V2000
    5.1970    1.5006    0.0000 C   0  0  0  0  0  0  0  0  0  0  0  0
    3.8981    0.7504    0.0000 C   0  0  0  0  0  0  0  0  0  0  0  0
   -1.3000    0.7500    0.0000 C   0  0  0  0  0  0  0  0  0  0  0  0
   -0.0000   -1.5000    0.0000 C   0  0  0  0  0  0  0  0  0  0  0  0
    0.0000    1.5000    0.0000 C   0  0  0  0  0  0  0  0  0  0  0  0
    1.3000   -0.7500    0.0000 C   0  0  0  0  0  0  0  0  0  0  0  0
   -1.3000   -0.7500    0.0000 C   0  0  0  0  0  0  0  0  0  0  0  0
    1.3000    0.7500    0.0000 C   0  0  0  0  0  0  0  0  0  0  0  0
   -2.5989   -1.5002    0.0000 N   0  0  0  0  0  0  0  0  0  0  0  0
   -3.8981   -0.7504    0.0000 O   0  0  0  0  0  0  0  0  0  0  0  0
   -2.5987   -3.0002    0.0000 O   0  0  0  0  0  0  0  0  0  0  0  0
    2.5989    1.5002    0.0000 O   0  0  0  0  0  0  0  0  0  0  0  0
  2  1  1  0
  5  3  2  0
  6  4  1  0
  7  3  1  0
  7  4  2  0
  8  5  1  0
  8  6  2  0
  9  7  1  0
 10  9  1  0
 11  9  2  0
 12  2  1  0
 12  8  1  0
M  CHG  2   9   1  10  -1
M  END
>  <NAME>  (5287) 
1-ETHOXY-4-NITROBENZENE

>  <SYNONYMS>  (5287) 


>  <SPECTRUM TYPE>  (5287) 
MS1

>  <INSTRUMENT TYPE>  (5287) 
EI-B

>  <INSTRUMENT>  (5287) 
HITACHI RMU-7M

>  <ION MODE>  (5287) 
P

>  <INCHIKEY>  (5287) 
NWPKEYHUZKMWKJ-UHFFFAOYSA-N

>  <FORMULA>  (5287) 
C8H9NO3

>  <EXACT MASS>  (5287) 
167.058243148

>  <MW>  (5287) 
167

>  <ID>  (5287) 
JP001651

>  <CONTRIBUTOR>  (5287) 
University of Tokyo Team, {Faculty of Engineering, University of Tokyo

>  <COMMENT>  (5287) 
SMILES=CCOc(c1)ccc(c1)[N+1]([O-1])=O
InChI=InChI=1S/C8H9NO3/c1-2-12-8-5-3-7(4-6-8)9(10)11/h3-6H,2H2,1H3
computed SMILES=O=N(=O)C1=CC=C(OCC)C=C1
accession=JP001651
date=2016.01.19 (Created 2008.10.21, modified 2011.05.06)
author=TAJIMA S, GUNMA COLLEGE OF TECHNOLOGY
license=CC BY-NC-SA
exact mass=167.05824
ionization energy=70 eV
ion type=[M]+*
computed spectral entropy=2.8128471409199585
computed normalized entropy=0.8044733470389562
SPLASH=splash10-014r-9700000000-b86ce4714da069ea1c87
submitter=submitter = University of Tokyo Team (Faculty of Engineering, University of Tokyo)
MoNA Rating=3.75

>  <NUM PEAKS>  (5287) 
33

>  <MASS SPECTRAL PEAKS>  (5287) 
26 2.17
27 16.47
28 4.34
29 43.93
30 6.29
38 5.78
39 23.7
50 11.49
51 4.34
52 2.17
53 6.5
62 3.61
63 14.45
64 10.98
65 53.11
66 3.47
74 3.4
75 7.23
76 7.95
77 4.34
81 14.67
91 2.89
92 5.35
93 31.29
94 2.38
109 33.02
110 2.1
122 1.66
123 6.79
139 99.99
140 6.94
167 94.94
168 9.68

>  <PREDICTED SPECTRUM>  (5287) 
14 29
15 117
16 24
17 3
18 8
25 30
26 148
27 286
28 181
29 431
30 221
31 93
36 10
37 141
38 248
39 324
40 87
41 103
45 37
46 24
49 50
50 333
51 295
52 220
53 240
54 173
55 116
61 114
62 230
63 561
64 385
65 545
66 196
67 92
68 66
74 142
75 305
76 192
77 144
78 31
79 33
80 205
81 477
82 236
91 38
92 332
93 467
94 171
95 188
96 59
106 43
107 36
108 168
109 633
110 136
111 6
121 27
122 308
123 273
124 31
137 78
138 40
139 999
140 367
141 37
151 54
152 80
153 33
167 805
168 246
169 45

$$$$

     RDKit          2D

  9  9  0  0  0  0  0  0  0  0999 V2000
   -0.3325    2.4400    0.0000 C   0  0  0  0  0  0  0  0  0  0  0  0
   -1.6200   -1.3100    0.0000 C   0  0  0  0  0  0  0  0  0  0  0  0
   -0.3300   -2.0600    0.0000 C   0  0  0  0  0  0  0  0  0  0  0  0
   -1.6200    0.1900    0.0000 C   0  0  0  0  0  0  0  0  0  0  0  0
    0.9700   -1.3100    0.0000 C   0  0  0  0  0  0  0  0  0  0  0  0
    2.2689    0.9402    0.0000 C   0  0  0  0  0  0  0  0  0  0  0  0
   -0.3300    0.9400    0.0000 C   0  0  0  0  0  0  0  0  0  0  0  0
    0.9700    0.1900    0.0000 C   0  0  0  0  0  0  0  0  0  0  0  0
    3.5678    1.6904    0.0000 N   0  0  0  0  0  0  0  0  0  0  0  0
  3  2  2  0
  4  2  1  0
  5  3  1  0
  7  1  1  0
  7  4  2  0
  8  5  2  0
  8  6  1  0
  8  7  1  0
  9  6  3  0
M  END
>  <NAME>  (5288) 
ORTHO-TOLUNITRILE

>  <SYNONYMS>  (5288) 
1-METHYL-2-CYANOBENZENE

>  <SPECTRUM TYPE>  (5288) 
MS1

>  <INSTRUMENT TYPE>  (5288) 
EI-B

>  <INSTRUMENT>  (5288) 
HITACHI RMU-7M

>  <ION MODE>  (5288) 
P

>  <INCHIKEY>  (5288) 
NWPNXBQSRGKSJB-UHFFFAOYSA-N

>  <FORMULA>  (5288) 
C8H7N

>  <EXACT MASS>  (5288) 
117.057849224

>  <MW>  (5288) 
117

>  <ID>  (5288) 
JP001649

>  <CONTRIBUTOR>  (5288) 
University of Tokyo Team, {Faculty of Engineering, University of Tokyo

>  <COMMENT>  (5288) 
SMILES=N#Cc(c1)c(C)ccc1
InChI=InChI=1S/C8H7N/c1-7-4-2-3-5-8(7)6-9/h2-5H,1H3
computed SMILES=N#CC=1C=CC=CC1C
accession=JP001649
date=2016.01.19 (Created 2008.10.21, modified 2011.05.06)
author=TAJIMA S, GUNMA COLLEGE OF TECHNOLOGY
license=CC BY-NC-SA
exact mass=117.05785
ionization energy=70 eV
ion type=[M]+*
computed spectral entropy=2.218449361917622
computed normalized entropy=0.6980527959385564
SPLASH=splash10-014i-7900000000-d67c49567738ed2f481c
submitter=submitter = University of Tokyo Team (Faculty of Engineering, University of Tokyo)
MoNA Rating=3.75

>  <NUM PEAKS>  (5288) 
24

>  <MASS SPECTRAL PEAKS>  (5288) 
27 2.27
37 2.2
38 3.11
39 9.4
50 4.47
51 5.08
52 1.59
58.5 2.12
61 2.12
62 4.02
63 10.01
64 4.55
65 2.12
75 2.35
76 1.97
88 2.5
89 25.47
90 47.99
91 5.23
114 1.06
115 1.44
116 54.44
117 99.99
118 8.49

>  <PREDICTED SPECTRUM>  (5288) 
14 17
15 13
16 2
25 27
26 98
27 158
28 131
32 11
36 49
37 176
38 231
39 417
40 127
41 187
43 20
44 22
45 7
49 96
50 341
51 426
52 252
53 39
57 99
58 62
61 168
62 253
63 435
64 294
65 316
66 79
70 23
74 156
75 188
76 171
77 157
78 78
85 50
86 59
87 126
88 91
89 588
90 594
91 340
102 323
103 14
114 116
115 274
116 970
117 999
118 298

$$$$

     RDKit          2D

 10  9  0  0  0  0  0  0  0  0999 V2000
   -8.4437    5.6250    0.0000 C   0  0  0  0  0  0  0  0  0  0  0  0
    3.2476    4.8750    0.0000 C   0  0  0  0  0  0  0  0  0  0  0  0
   -7.1447    4.8750    0.0000 C   0  0  0  0  0  0  0  0  0  0  0  0
    1.9486    5.6250    0.0000 C   0  0  0  0  0  0  0  0  0  0  0  0
   -5.8457    5.6250    0.0000 C   0  0  0  0  0  0  0  0  0  0  0  0
    0.6495    4.8750    0.0000 C   0  0  0  0  0  0  0  0  0  0  0  0
   -4.5466    4.8750    0.0000 C   0  0  0  0  0  0  0  0  0  0  0  0
   -0.6495    5.6250    0.0000 C   0  0  0  0  0  0  0  0  0  0  0  0
   -3.2476    5.6250    0.0000 C   0  0  0  0  0  0  0  0  0  0  0  0
   -1.9486    4.8750    0.0000 C   0  0  0  0  0  0  0  0  0  0  0  0
  3  1  1  0
  4  2  1  0
  3  5  2  0
  6  4  1  0
  7  5  1  0
  8  6  1  0
  9  7  1  0
 10  8  1  0
 10  9  1  0
M  END
>  <NAME>  (5289) 
2-DECENE

>  <SYNONYMS>  (5289) 


>  <SPECTRUM TYPE>  (5289) 
MS1

>  <INSTRUMENT TYPE>  (5289) 
EI-B

>  <INSTRUMENT>  (5289) 
VARIAN MAT-44

>  <ION MODE>  (5289) 
P

>  <INCHIKEY>  (5289) 
YKNMBTZOEVIJCM-HWKANZROSA-N

>  <FORMULA>  (5289) 
C10H20

>  <EXACT MASS>  (5289) 
140.15650064

>  <MW>  (5289) 
140

>  <ID>  (5289) 
JP001647

>  <CONTRIBUTOR>  (5289) 
University of Tokyo Team, {Faculty of Engineering, University of Tokyo

>  <COMMENT>  (5289) 
SMILES=CCCCCCCC=CC
InChI=InChI=1S/C10H20/c1-3-5-7-9-10-8-6-4-2/h3,5H,4,6-10H2,1-2H3/b5-3+
computed SMILES=C(=CCCCCCCC)C
accession=JP001647
date=2016.01.19 (Created 2008.10.21, modified 2011.05.06)
author=KOGA M, UNIV. OF OCCUPATIONAL AND ENVIRONMENTAL HEALTH
license=CC BY-NC-SA
exact mass=140.1565
ionization energy=70 eV
ion type=[M]+*
computed spectral entropy=3.1389002645326385
computed normalized entropy=0.8198470265225266
SPLASH=splash10-052f-9000000000-174948192140207f4cb8
submitter=submitter = University of Tokyo Team (Faculty of Engineering, University of Tokyo)
MoNA Rating=3.75

>  <NUM PEAKS>  (5289) 
46

>  <MASS SPECTRAL PEAKS>  (5289) 
30 9.32
31 3.92
32 1.91
39 24.56
40 7.08
41 92.56
42 24.88
43 99.99
44 7.43
45 5.47
53 7.36
54 16.75
55 74
56 38.98
57 82.81
58 12.06
59 2.62
60 2.52
65 1.28
66 2.32
67 18.35
68 16.22
69 37.91
70 43.44
71 24.91
72 8.07
73 3.71
79 3.01
80 1.69
81 12.41
82 16.09
83 25.2
84 12.94
85 9.24
86 1.31
93 1.23
95 6.4
96 7.32
97 12.41
98 5.02
99 1.28
109 2.1
110 2.3
111 3.81
112 1.73
125 1.15

>  <PREDICTED SPECTRUM>  (5289) 
14 4
15 33
25 26
26 118
27 510
28 238
29 600
30 56
31 73
32 28
37 54
38 104
39 507
40 208
41 909
42 528
43 808
44 150
50 106
51 168
52 117
53 316
54 380
55 984
56 999
57 706
58 85
62 0
63 40
64 32
65 154
66 146
67 361
68 392
69 779
70 701
71 312
72 80
77 100
78 62
79 131
80 32
81 212
82 209
83 473
84 337
85 140
86 19
93 36
95 80
96 96
97 262
98 238
99 45
111 233
112 178
140 210
141 24

$$$$

     RDKit          2D

 13 14  0  0  0  0  0  0  0  0999 V2000
    3.8977    0.3206    0.0000 C   0  0  0  0  0  0  0  0  0  0  0  0
    3.8982    1.8214    0.0000 C   0  0  0  0  0  0  0  0  0  0  0  0
    2.5982   -0.4303    0.0000 C   0  0  0  0  0  0  0  0  0  0  0  0
    2.5992    2.5714    0.0000 C   0  0  0  0  0  0  0  0  0  0  0  0
    1.2992    0.3197    0.0000 C   0  0  0  0  0  0  0  0  0  0  0  0
    0.0004    4.0706    0.0000 C   0  0  0  0  0  0  0  0  0  0  0  0
   -1.2992    1.8204    0.0000 C   0  0  0  0  0  0  0  0  0  0  0  0
   -1.2997    4.8204    0.0000 C   0  0  0  0  0  0  0  0  0  0  0  0
   -2.5994    2.5702    0.0000 C   0  0  0  0  0  0  0  0  0  0  0  0
    1.2997    1.8206    0.0000 C   0  0  0  0  0  0  0  0  0  0  0  0
    0.0006    2.5706    0.0000 C   0  0  0  0  0  0  0  0  0  0  0  0
   -2.5996    4.0702    0.0000 C   0  0  0  0  0  0  0  0  0  0  0  0
   -3.8986    4.8202    0.0000 N   0  0  0  0  0  0  0  0  0  0  0  0
  2  1  2  0
  3  1  1  0
  4  2  1  0
  5  3  2  0
  8  6  2  0
  9  7  1  0
 10  4  2  0
 10  5  1  0
 11  6  1  0
 11  7  2  0
 11 10  1  0
 12  8  1  0
 12  9  2  0
 13 12  1  0
M  END
>  <NAME>  (5290) 
4-AMINODIPHENYL

>  <SYNONYMS>  (5290) 
(1,1'-DIPHENYL)-4-AMINE

>  <SPECTRUM TYPE>  (5290) 
MS1

>  <INSTRUMENT TYPE>  (5290) 
EI-B

>  <INSTRUMENT>  (5290) 
VARIAN MAT-44

>  <ION MODE>  (5290) 
P

>  <INCHIKEY>  (5290) 
DMVOXQPQNTYEKQ-UHFFFAOYSA-N

>  <FORMULA>  (5290) 
C12H11N

>  <EXACT MASS>  (5290) 
169.089149352

>  <MW>  (5290) 
169

>  <ID>  (5290) 
JP001641

>  <CONTRIBUTOR>  (5290) 
University of Tokyo Team, {Faculty of Engineering, University of Tokyo

>  <COMMENT>  (5290) 
SMILES=Nc(c2)ccc(c2)c(c1)cccc1
cas=92-67-1
InChI=InChI=1S/C12H11N/c13-12-8-6-11(7-9-12)10-4-2-1-3-5-10/h1-9H,13H2
computed SMILES=NC=1C=CC(=CC1)C=2C=CC=CC2
accession=JP001641
date=2016.01.19 (Created 2008.10.21, modified 2011.05.06)
author=KOGA M, UNIV. OF OCCUPATIONAL AND ENVIRONMENTAL HEALTH
license=CC BY-NC-SA
exact mass=169.08915
ionization energy=70 eV
ion type=[M]+*
computed spectral entropy=3.239513226245319
computed normalized entropy=0.7818990788809749
SPLASH=splash10-014i-6900000000-485d158d46307e7e68a3
submitter=submitter = University of Tokyo Team (Faculty of Engineering, University of Tokyo)
MoNA Rating=3.75

>  <NUM PEAKS>  (5290) 
63

>  <MASS SPECTRAL PEAKS>  (5290) 
32 2.57
38 4.22
39 18.23
40 2.72
41 4.87
42 1.23
43 1.25
44 2.83
50 7.03
51 13.03
52 6.87
53 1.57
54 1.73
57 3.17
58 5.08
61 1.2
62 4.51
63 11.96
64 4.11
65 6.55
66 1.91
69 3.56
70 8.23
71 8.1
72 1.1
74 3.41
75 4.51
76 5.45
77 8.76
78 2.04
83 14.27
84 23.58
85 6.08
86 1.1
87 1.96
88 1.83
89 6.4
90 2.28
91 1.65
101 1.23
102 2.57
103 1.25
113 1.88
114 1.94
115 10.78
116 1.99
126 1.36
127 2.28
128 2.01
139 6.84
140 4.48
141 4.56
142 1.25
143 2.88
151 1.67
152 1.78
153 1.02
154 3.56
166 7.34
167 40.39
168 86.35
169 99.99
170 13.43

>  <PREDICTED SPECTRUM>  (5290) 
11 0
27 1
28 29
37 3
38 59
39 138
40 66
41 90
42 12
49 7
50 89
51 160
52 101
53 28
54 33
55 76
57 47
62 72
63 154
64 89
65 145
66 70
67 26
68 19
69 74
70 46
71 36
74 126
75 125
76 137
77 64
78 44
79 3
82 60
83 106
84 42
85 21
86 41
87 88
88 42
89 100
90 53
91 57
92 88
93 98
94 35
95 2
96 10
97 72
98 59
99 15
102 47
104 14
107 9
110 14
111 22
113 56
114 117
115 272
116 62
117 20
119 20
122 9
126 55
127 69
128 86
129 96
130 36
139 166
140 138
141 295
142 97
143 102
150 63
151 136
152 157
153 97
154 74
165 10
166 159
167 289
168 458
169 999
170 410
171 88

$$$$

     RDKit          2D

 12 13  0  0  0  0  0  0  0  0999 V2000
   -3.8989    1.5002    0.0000 C   0  0  0  0  0  0  0  0  0  0  0  0
    3.8989   -1.5002    0.0000 C   0  0  0  0  0  0  0  0  0  0  0  0
   -2.6000   -0.7500    0.0000 C   0  0  0  0  0  0  0  0  0  0  0  0
    2.6000    0.7500    0.0000 C   0  0  0  0  0  0  0  0  0  0  0  0
    1.3000    1.5000    0.0000 C   0  0  0  0  0  0  0  0  0  0  0  0
   -1.3000   -1.5000    0.0000 C   0  0  0  0  0  0  0  0  0  0  0  0
   -1.3000    1.5000    0.0000 C   0  0  0  0  0  0  0  0  0  0  0  0
   -2.6000    0.7500    0.0000 C   0  0  0  0  0  0  0  0  0  0  0  0
    2.6000   -0.7500    0.0000 C   0  0  0  0  0  0  0  0  0  0  0  0
   -0.0000    0.7500    0.0000 C   0  0  0  0  0  0  0  0  0  0  0  0
   -0.0000   -0.7500    0.0000 C   0  0  0  0  0  0  0  0  0  0  0  0
    1.3000   -1.5000    0.0000 N   0  0  0  0  0  0  0  0  0  0  0  0
  5  4  2  0
  6  3  2  0
  8  1  1  0
  8  3  1  0
  8  7  2  0
  9  2  1  0
  9  4  1  0
 10  5  1  0
 10  7  1  0
 11  6  1  0
 11 10  2  0
 12  9  2  0
 12 11  1  0
M  END
>  <NAME>  (5291) 
2,6-DIMETHYLQUINOLINE

>  <SYNONYMS>  (5291) 


>  <SPECTRUM TYPE>  (5291) 
MS1

>  <INSTRUMENT TYPE>  (5291) 
EI-B

>  <INSTRUMENT>  (5291) 
VARIAN MAT-44

>  <ION MODE>  (5291) 
P

>  <INCHIKEY>  (5291) 
JJPSZKIOGBRMHK-UHFFFAOYSA-N

>  <FORMULA>  (5291) 
C11H11N

>  <EXACT MASS>  (5291) 
157.089149352

>  <MW>  (5291) 
157

>  <ID>  (5291) 
JP001640

>  <CONTRIBUTOR>  (5291) 
University of Tokyo Team, {Faculty of Engineering, University of Tokyo

>  <COMMENT>  (5291) 
SMILES=Cc(c2)cc(c1)c(c2)nc(C)c1
cas=877-43-0
InChI=InChI=1S/C11H11N/c1-8-3-6-11-10(7-8)5-4-9(2)12-11/h3-7H,1-2H3
computed SMILES=N=1C=2C=CC(=CC2C=CC1C)C
accession=JP001640
date=2016.01.19 (Created 2008.10.21, modified 2011.05.06)
author=KOGA M, UNIV. OF OCCUPATIONAL AND ENVIRONMENTAL HEALTH
license=CC BY-NC-SA
exact mass=157.08915
ionization energy=70 eV
ion type=[M]+*
computed spectral entropy=3.3072806518099487
computed normalized entropy=0.8180160064063005
SPLASH=splash10-0a4i-6900000000-8c0b6f687639f30b6612
submitter=submitter = University of Tokyo Team (Faculty of Engineering, University of Tokyo)
MoNA Rating=3.75

>  <NUM PEAKS>  (5291) 
57

>  <MASS SPECTRAL PEAKS>  (5291) 
32 4.01
37 1.02
38 3.24
39 18.04
40 3.89
41 2.81
42 1.54
43 1.76
44 7.86
50 8.11
51 15.66
52 5.53
53 2.74
57 3.21
58 1.24
61 1.15
62 4.64
63 15.03
64 9.04
65 17.9
66 2.58
70 1.08
71 2.01
74 3.08
75 4.37
76 4.17
77 14.41
78 10.85
79 3.62
87 1.85
88 2.17
89 10.04
90 2.08
91 1.38
101 1.54
102 2.24
103 2.44
104 1.02
113 2.1
114 2.94
115 18
116 7.11
117 1.49
127 4.71
128 6.98
129 5.73
130 3.71
131 1.56
140 4.05
141 4.37
142 14.69
143 4.03
154 4.33
155 2.56
156 45.77
157 99.99
158 12.44

>  <PREDICTED SPECTRUM>  (5291) 
14 2
15 24
26 20
27 13
28 5
33 12
36 0
37 71
38 134
39 293
40 117
41 121
42 96
43 42
44 40
49 56
50 282
51 394
52 254
53 111
54 46
61 119
62 238
63 358
64 225
65 281
66 93
67 17
71 25
72 43
73 47
74 209
75 249
76 212
77 361
78 216
79 86
80 38
84 43
85 44
86 169
87 202
88 131
89 301
90 150
91 69
92 17
97 21
98 75
99 89
100 65
101 177
102 202
103 156
104 76
112 3
113 141
114 140
115 423
116 279
117 206
118 4
126 51
127 189
128 316
129 367
130 295
131 151
140 244
141 195
142 326
143 126
154 152
155 167
156 589
157 999
158 347
159 35

$$$$

     RDKit          2D

 12 13  0  0  0  0  0  0  0  0999 V2000
    1.3000    3.0000    0.0000 C   0  0  0  0  0  0  0  0  0  0  0  0
    3.8989   -1.5002    0.0000 C   0  0  0  0  0  0  0  0  0  0  0  0
   -2.6000    0.7500    0.0000 C   0  0  0  0  0  0  0  0  0  0  0  0
   -2.6000   -0.7500    0.0000 C   0  0  0  0  0  0  0  0  0  0  0  0
   -1.3000    1.5000    0.0000 C   0  0  0  0  0  0  0  0  0  0  0  0
   -1.3000   -1.5000    0.0000 C   0  0  0  0  0  0  0  0  0  0  0  0
    2.6000    0.7500    0.0000 C   0  0  0  0  0  0  0  0  0  0  0  0
    1.3000    1.5000    0.0000 C   0  0  0  0  0  0  0  0  0  0  0  0
    2.6000   -0.7500    0.0000 C   0  0  0  0  0  0  0  0  0  0  0  0
   -0.0000    0.7500    0.0000 C   0  0  0  0  0  0  0  0  0  0  0  0
   -0.0000   -0.7500    0.0000 C   0  0  0  0  0  0  0  0  0  0  0  0
    1.3000   -1.5000    0.0000 N   0  0  0  0  0  0  0  0  0  0  0  0
  4  3  2  0
  5  3  1  0
  6  4  1  0
  8  1  1  0
  8  7  2  0
  9  2  1  0
  9  7  1  0
 10  5  2  0
 10  8  1  0
 11  6  2  0
 11 10  1  0
 12  9  2  0
 12 11  1  0
M  END
>  <NAME>  (5292) 
2,4-DIMETHYLQUINOLINE

>  <SYNONYMS>  (5292) 


>  <SPECTRUM TYPE>  (5292) 
MS1

>  <INSTRUMENT TYPE>  (5292) 
EI-B

>  <INSTRUMENT>  (5292) 
VARIAN MAT-44

>  <ION MODE>  (5292) 
P

>  <INCHIKEY>  (5292) 
ZTNANFDSJRRZRJ-UHFFFAOYSA-N

>  <FORMULA>  (5292) 
C11H11N

>  <EXACT MASS>  (5292) 
157.089149352

>  <MW>  (5292) 
157

>  <ID>  (5292) 
JP001639

>  <CONTRIBUTOR>  (5292) 
University of Tokyo Team, {Faculty of Engineering, University of Tokyo

>  <COMMENT>  (5292) 
SMILES=Cc(c1)nc(c2)c(ccc2)c(C)1
cas=1198-37-4
InChI=InChI=1S/C11H11N/c1-8-7-9(2)12-11-6-4-3-5-10(8)11/h3-7H,1-2H3
computed SMILES=N=1C=2C=CC=CC2C(=CC1C)C
accession=JP001639
date=2016.01.19 (Created 2008.10.21, modified 2011.05.06)
author=KOGA M, UNIV. OF OCCUPATIONAL AND ENVIRONMENTAL HEALTH
license=CC BY-NC-SA
exact mass=157.08915
ionization energy=70 eV
ion type=[M]+*
computed spectral entropy=3.5466223370903904
computed normalized entropy=0.8560238976779123
SPLASH=splash10-0a4i-9600000000-8265b040c82df5bc6739
submitter=submitter = University of Tokyo Team (Faculty of Engineering, University of Tokyo)
MoNA Rating=3.75

>  <NUM PEAKS>  (5292) 
63

>  <MASS SPECTRAL PEAKS>  (5292) 
37 3.54
38 13.04
39 48.79
40 9.8
41 9.1
42 17.72
43 1.42
49 2.73
50 22.06
51 31.97
52 11.44
53 4.46
54 1.16
57 3.68
58 1.62
61 4.08
62 12.6
63 27.3
64 12.33
65 17.92
66 4.89
71 1.4
73 1.53
74 8.9
75 13.62
76 10.41
77 20.45
78 9.86
79 3.94
86 2.6
87 4.38
88 4.69
89 15.31
90 3.63
91 3.06
100 1.16
101 4.37
102 3.74
103 2.76
104 1.31
113 3.11
114 5.31
115 29.05
116 11.31
117 3.54
118 3.62
126 1.16
127 4.46
128 8.14
129 8.37
130 7.24
131 1.37
140 4.5
141 3.03
142 11.04
143 1.61
154 2.65
155 3.28
156 29.72
157 99.99
158 14.01
159 1.14
160 2.29

>  <PREDICTED SPECTRUM>  (5292) 
14 4
26 22
27 20
32 7
33 7
36 12
37 58
38 101
39 200
40 95
41 41
42 31
43 12
44 3
49 40
50 209
51 273
52 149
53 76
54 40
58 6
61 82
62 156
63 243
64 176
65 140
66 37
71 0
74 132
75 197
76 189
77 251
78 115
79 42
84 4
85 1
86 67
87 108
88 81
89 215
90 115
91 88
92 4
99 55
100 42
101 93
102 164
103 127
104 61
110 3
112 0
113 68
114 82
115 265
116 198
117 201
118 63
127 105
128 159
129 221
130 214
131 165
132 1
140 104
141 78
142 279
143 129
154 107
155 163
156 358
157 999
158 345
159 52

$$$$

     RDKit          2D

 11 12  0  0  0  0  0  0  0  0999 V2000
    1.3000    3.0000    0.0000 C   0  0  0  0  0  0  0  0  0  0  0  0
   -2.6000    0.7500    0.0000 C   0  0  0  0  0  0  0  0  0  0  0  0
   -2.6000   -0.7500    0.0000 C   0  0  0  0  0  0  0  0  0  0  0  0
   -1.3000    1.5000    0.0000 C   0  0  0  0  0  0  0  0  0  0  0  0
   -1.3000   -1.5000    0.0000 C   0  0  0  0  0  0  0  0  0  0  0  0
    2.6000    0.7500    0.0000 C   0  0  0  0  0  0  0  0  0  0  0  0
    2.6000   -0.7500    0.0000 C   0  0  0  0  0  0  0  0  0  0  0  0
    1.3000    1.5000    0.0000 C   0  0  0  0  0  0  0  0  0  0  0  0
   -0.0000    0.7500    0.0000 C   0  0  0  0  0  0  0  0  0  0  0  0
   -0.0000   -0.7500    0.0000 C   0  0  0  0  0  0  0  0  0  0  0  0
    1.3000   -1.5000    0.0000 N   0  0  0  0  0  0  0  0  0  0  0  0
  3  2  2  0
  4  2  1  0
  5  3  1  0
  7  6  1  0
  8  1  1  0
  8  6  2  0
  9  4  2  0
  9  8  1  0
 10  5  2  0
 10  9  1  0
 11  7  2  0
 11 10  1  0
M  END
>  <NAME>  (5293) 
4-METHYLQUINOLINE

>  <SYNONYMS>  (5293) 
LEPIDINE

>  <SPECTRUM TYPE>  (5293) 
MS1

>  <INSTRUMENT TYPE>  (5293) 
EI-B

>  <INSTRUMENT>  (5293) 
VARIAN MAT-44

>  <ION MODE>  (5293) 
P

>  <INCHIKEY>  (5293) 
MUDSDYNRBDKLGK-UHFFFAOYSA-N

>  <FORMULA>  (5293) 
C10H9N

>  <EXACT MASS>  (5293) 
143.073499288

>  <MW>  (5293) 
143

>  <ID>  (5293) 
JP001638

>  <CONTRIBUTOR>  (5293) 
University of Tokyo Team, {Faculty of Engineering, University of Tokyo

>  <COMMENT>  (5293) 
SMILES=Cc(c1)c(c2)c(ccc2)nc1
cas=491-35-0
InChI=InChI=1S/C10H9N/c1-8-6-7-11-10-5-3-2-4-9(8)10/h2-7H,1H3
computed SMILES=N=1C=CC(=C2C=CC=CC12)C
accession=JP001638
date=2016.01.19 (Created 2008.10.21, modified 2011.05.06)
author=KOGA M, UNIV. OF OCCUPATIONAL AND ENVIRONMENTAL HEALTH
license=CC BY-NC-SA
exact mass=143.0735
ionization energy=70 eV
ion type=[M]+*
computed spectral entropy=3.475910420140461
computed normalized entropy=0.8524533417432011
SPLASH=splash10-0f76-9500000000-6000c29c253b154abc3b
submitter=submitter = University of Tokyo Team (Faculty of Engineering, University of Tokyo)
MoNA Rating=3.75

>  <NUM PEAKS>  (5293) 
59

>  <MASS SPECTRAL PEAKS>  (5293) 
37 9.73
38 20.78
39 49.78
40 7.58
41 4.25
42 1.14
43 1.84
49 5.9
50 33.22
51 37.57
52 12.62
53 3.01
55 1.33
56 1.78
57 13.02
58 13.88
59 1.72
60 1.46
61 7.99
62 18.6
63 28.36
64 10.54
65 10.48
66 1.7
70 3.77
71 6.83
72 1.58
73 3.84
74 11.79
75 12.62
76 10.17
77 13.99
78 3.82
85 1.71
86 3.76
87 6.09
88 6.42
89 21.06
90 7.45
91 2.03
98 1.06
99 1.1
100 1.56
101 5.94
102 3.43
103 2.41
104 7.72
113 3.97
114 8.49
115 49.29
116 18.21
117 9.79
128 4.15
140 2.98
141 6.12
142 38.09
143 99.99
144 14.67
145 1.09

>  <PREDICTED SPECTRUM>  (5293) 
25 0
26 25
36 2
37 80
38 111
39 205
40 61
41 16
44 19
49 62
50 254
51 310
52 158
57 41
61 109
62 199
63 281
64 180
65 162
74 157
75 202
76 149
77 115
84 29
85 28
86 66
87 120
88 113
89 269
90 105
91 75
92 2
96 1
97 14
98 0
99 23
101 28
102 92
103 90
104 30
113 16
114 102
115 443
116 370
117 228
128 114
140 135
141 145
142 539
143 999
144 327
145 27

$$$$

     RDKit          2D

 11 12  0  0  0  0  0  0  0  0999 V2000
    3.5364   -1.3745    0.0000 C   0  0  0  0  0  0  0  0  0  0  0  0
   -2.9500    0.8900    0.0000 C   0  0  0  0  0  0  0  0  0  0  0  0
   -2.9500   -0.6100    0.0000 C   0  0  0  0  0  0  0  0  0  0  0  0
   -1.6500    1.6400    0.0000 C   0  0  0  0  0  0  0  0  0  0  0  0
   -1.6500   -1.3600    0.0000 C   0  0  0  0  0  0  0  0  0  0  0  0
    2.2500    0.8900    0.0000 C   0  0  0  0  0  0  0  0  0  0  0  0
    0.9500    1.6400    0.0000 C   0  0  0  0  0  0  0  0  0  0  0  0
    2.2400   -0.6200    0.0000 C   0  0  0  0  0  0  0  0  0  0  0  0
   -0.3600    0.8800    0.0000 C   0  0  0  0  0  0  0  0  0  0  0  0
   -0.3600   -0.6100    0.0000 C   0  0  0  0  0  0  0  0  0  0  0  0
    0.9400   -1.3700    0.0000 N   0  0  0  0  0  0  0  0  0  0  0  0
  3  2  2  0
  4  2  1  0
  5  3  1  0
  7  6  2  0
  8  1  1  0
  8  6  1  0
  9  4  2  0
  9  7  1  0
 10  5  2  0
 10  9  1  0
 11  8  2  0
 11 10  1  0
M  END
>  <NAME>  (5294) 
2-METHYLQUINOLINE

>  <SYNONYMS>  (5294) 
QUINALDINE

>  <SPECTRUM TYPE>  (5294) 
MS1

>  <INSTRUMENT TYPE>  (5294) 
EI-B

>  <INSTRUMENT>  (5294) 
VARIAN MAT-44

>  <ION MODE>  (5294) 
P

>  <INCHIKEY>  (5294) 
SMUQFGGVLNAIOZ-UHFFFAOYSA-N

>  <FORMULA>  (5294) 
C10H9N

>  <EXACT MASS>  (5294) 
143.073499288

>  <MW>  (5294) 
143

>  <ID>  (5294) 
JP001637

>  <CONTRIBUTOR>  (5294) 
University of Tokyo Team, {Faculty of Engineering, University of Tokyo

>  <COMMENT>  (5294) 
SMILES=Cc(c1)nc(c2)c(ccc2)c1
cas=91-63-4
InChI=InChI=1S/C10H9N/c1-8-6-7-9-4-2-3-5-10(9)11-8/h2-7H,1H3
computed SMILES=N=1C=2C=CC=CC2C=CC1C
accession=JP001637
date=2016.01.19 (Created 2008.10.21, modified 2011.05.06)
author=KOGA M, UNIV. OF OCCUPATIONAL AND ENVIRONMENTAL HEALTH
license=CC BY-NC-SA
exact mass=143.0735
ionization energy=70 eV
ion type=[M]+*
computed spectral entropy=3.515385366134107
computed normalized entropy=0.8551430869166412
SPLASH=splash10-0f9f-9500000000-d8165793af7b5d745a0f
submitter=submitter = University of Tokyo Team (Faculty of Engineering, University of Tokyo)
MoNA Rating=3.75

>  <NUM PEAKS>  (5294) 
61

>  <MASS SPECTRAL PEAKS>  (5294) 
37 10.8
38 22.05
39 47.12
40 8.44
41 6.17
42 10.94
43 1.28
44 1.12
45 2.45
49 5.68
50 38.91
51 40.64
52 15.01
53 2.89
57 4.7
58 11.55
59 1.26
60 1.14
61 7.69
62 17.32
63 16.81
64 7.46
65 5.16
66 1.12
70 2.68
71 6.64
72 3.46
73 2.57
74 15.99
75 25.93
76 19.45
77 15.01
78 3.04
85 1.19
86 2.87
87 4.98
88 4.18
89 12.74
90 6.1
91 2.08
98 1.49
99 1.3
100 1.94
101 12.65
102 8.09
103 2.4
104 1.12
113 2.4
114 3.69
115 27.5
116 12.76
117 7.08
127 2.1
128 20.5
129 6.19
135 3.27
140 2.87
141 2.64
142 19.52
143 99.99
144 12.2

>  <PREDICTED SPECTRUM>  (5294) 
26 18
37 37
38 62
39 116
40 11
42 6
49 17
50 205
51 250
52 163
53 12
61 54
62 183
63 284
64 185
65 140
74 154
75 232
76 145
77 197
78 28
86 28
87 74
88 98
89 207
90 34
100 5
101 208
102 182
103 155
104 14
113 16
114 142
115 345
116 377
117 208
128 241
129 158
140 123
141 82
142 342
143 999
144 332
145 39

$$$$

     RDKit          2D

  9  9  0  0  0  0  0  0  0  0999 V2000
   -0.0000   -1.5002    0.0000 C   0  0  0  0  0  0  0  0  0  0  0  0
    2.5989    3.0000    0.0000 C   0  0  0  0  0  0  0  0  0  0  0  0
    1.3000    0.7498    0.0000 C   0  0  0  0  0  0  0  0  0  0  0  0
   -1.3000    0.7498    0.0000 C   0  0  0  0  0  0  0  0  0  0  0  0
   -0.0000    2.9998    0.0000 C   0  0  0  0  0  0  0  0  0  0  0  0
   -0.0000   -0.0002    0.0000 C   0  0  0  0  0  0  0  0  0  0  0  0
    1.3000    2.2498    0.0000 C   0  0  0  0  0  0  0  0  0  0  0  0
   -1.3000    2.2498    0.0000 C   0  0  0  0  0  0  0  0  0  0  0  0
   -2.5989    3.0000    0.0000 N   0  0  0  0  0  0  0  0  0  0  0  0
  6  1  1  0
  6  3  2  0
  6  4  1  0
  7  2  1  0
  7  3  1  0
  7  5  2  0
  8  4  2  0
  8  5  1  0
  9  8  1  0
M  END
>  <NAME>  (5295) 
3,5-DIMETHYLANILINE

>  <SYNONYMS>  (5295) 
3,5-XYLIDINE

>  <SPECTRUM TYPE>  (5295) 
MS1

>  <INSTRUMENT TYPE>  (5295) 
EI-B

>  <INSTRUMENT>  (5295) 
VARIAN MAT-44

>  <ION MODE>  (5295) 
P

>  <INCHIKEY>  (5295) 
MKARNSWMMBGSHX-UHFFFAOYSA-N

>  <FORMULA>  (5295) 
C8H11N

>  <EXACT MASS>  (5295) 
121.08914935199999

>  <MW>  (5295) 
121

>  <ID>  (5295) 
JP001633

>  <CONTRIBUTOR>  (5295) 
University of Tokyo Team, {Faculty of Engineering, University of Tokyo

>  <COMMENT>  (5295) 
SMILES=Cc(c1)cc(N)cc(C)1
InChI=InChI=1S/C8H11N/c1-6-3-7(2)5-8(9)4-6/h3-5H,9H2,1-2H3
computed SMILES=NC=1C=C(C=C(C1)C)C
accession=JP001633
date=2016.01.19 (Created 2008.10.21, modified 2011.05.06)
author=KOGA M, UNIV. OF OCCUPATIONAL AND ENVIRONMENTAL HEALTH
license=CC BY-NC-SA
exact mass=121.08915
ion type=[M]+*
ionization energy=70 eV
computed spectral entropy=3.1746800422814463
computed normalized entropy=0.8115187558652912
SPLASH=splash10-05fr-9800000000-f46a48e55a4e2c693af2
submitter=submitter = University of Tokyo Team (Faculty of Engineering, University of Tokyo)
MoNA Rating=3.75

>  <NUM PEAKS>  (5295) 
50

>  <MASS SPECTRAL PEAKS>  (5295) 
30 4.85
37 2.26
38 7.86
39 33.34
40 5.15
41 13.67
42 12.56
46 3.12
47 1.2
49 1.79
50 11.77
51 17.42
52 15.47
53 14.51
54 5.69
58 8.18
59 10.54
60 5.84
61 1.47
62 4.31
63 3.08
64 7.04
65 9.21
66 4.8
67 1.6
74 1.52
75 1.79
76 2.9
77 35.68
78 11.95
79 15.17
80 7.61
89 2.19
90 1.45
91 19.66
92 4.41
93 11.13
94 4.06
102 1.08
103 5.84
104 4.75
105 4.46
106 89.92
107 7.19
117 1.65
118 4.28
119 4.06
120 73.73
121 99.99
122 8.99

>  <PREDICTED SPECTRUM>  (5295) 
14 23
15 63
16 20
17 6
18 8
25 15
26 106
27 283
28 205
29 44
30 28
32 17
36 40
37 77
38 159
39 404
40 179
41 371
42 104
43 25
44 66
49 34
50 176
51 297
52 244
53 296
54 151
55 77
57 0
61 137
62 109
63 201
64 115
65 289
66 184
67 176
68 34
73 54
74 65
75 108
76 38
77 400
78 273
79 402
80 208
81 267
86 11
89 43
90 7
91 310
92 221
93 456
94 398
95 185
102 9
103 161
104 153
105 335
106 599
107 173
116 18
118 160
119 162
120 544
121 999
122 306
123 20

$$$$

     RDKit          2D

  6  6  0  0  0  0  0  0  0  0999 V2000
    0.0000    2.3100    0.0000 C   0  0  0  0  0  0  0  0  0  0  0  0
   -0.7500   -1.5000    0.0000 C   0  0  0  0  0  0  0  0  0  0  0  0
    0.7500   -1.5000    0.0000 C   0  0  0  0  0  0  0  0  0  0  0  0
   -1.2100   -0.0700    0.0000 C   0  0  0  0  0  0  0  0  0  0  0  0
    1.2100   -0.0700    0.0000 C   0  0  0  0  0  0  0  0  0  0  0  0
    0.0000    0.8100    0.0000 N   0  0  0  0  0  0  0  0  0  0  0  0
  3  2  1  0
  4  2  2  0
  5  3  2  0
  6  1  1  0
  6  4  1  0
  6  5  1  0
M  END
>  <NAME>  (5296) 
N-METHYLPYRROLE

>  <SYNONYMS>  (5296) 


>  <SPECTRUM TYPE>  (5296) 
MS1

>  <INSTRUMENT TYPE>  (5296) 
EI-B

>  <INSTRUMENT>  (5296) 
VARIAN MAT-44

>  <ION MODE>  (5296) 
P

>  <INCHIKEY>  (5296) 
OXHNLMTVIGZXSG-UHFFFAOYSA-N

>  <FORMULA>  (5296) 
C5H7N

>  <EXACT MASS>  (5296) 
81.057849224

>  <MW>  (5296) 
81

>  <ID>  (5296) 
JP001626

>  <CONTRIBUTOR>  (5296) 
University of Tokyo Team, {Faculty of Engineering, University of Tokyo

>  <COMMENT>  (5296) 
SMILES=Cn(c1)ccc1
cas=96-54-8
InChI=InChI=1S/C5H7N/c1-6-4-2-3-5-6/h2-5H,1H3
computed SMILES=C=1C=CN(C1)C
accession=JP001626
date=2016.01.19 (Created 2008.10.21, modified 2011.05.06)
author=KOGA M, UNIV. OF OCCUPATIONAL AND ENVIRONMENTAL HEALTH
license=CC BY-NC-SA
exact mass=81.05785
ionization energy=70 eV
ion type=[M]+*
computed spectral entropy=2.684294001295443
computed normalized entropy=0.7892202951137273
SPLASH=splash10-001l-9000000000-66817af0d2cc99d62d59
submitter=submitter = University of Tokyo Team (Faculty of Engineering, University of Tokyo)
MoNA Rating=3.75

>  <NUM PEAKS>  (5296) 
30

>  <MASS SPECTRAL PEAKS>  (5296) 
32 6.83
37 5.6
38 10.25
39 44.18
40 16.27
41 18.05
42 54.71
43 2.73
49 1.64
50 4.78
51 5.6
52 11.21
53 56.36
54 22.29
55 29.82
56 2.87
57 3.41
58 2.87
59 1.23
66 3.55
67 2.46
68 3.83
69 4.92
70 1.36
71 1.36
78 13.95
79 4.51
80 74.69
81 99.99
82 6.01

>  <PREDICTED SPECTRUM>  (5296) 
25 9
26 58
27 121
28 102
36 10
37 128
38 210
39 456
40 291
41 247
42 385
49 14
50 181
51 342
52 468
53 521
54 306
55 102
62 32
64 34
65 8
66 299
67 54
78 244
79 310
80 922
81 999
82 213

$$$$

     RDKit          2D

 19 21  0  0  0  0  0  0  0  0999 V2000
    3.9000   -0.7500    0.0000 C   0  0  0  0  0  0  0  0  0  0  0  0
    3.9000    0.7500    0.0000 C   0  0  0  0  0  0  0  0  0  0  0  0
   -3.9000   -0.7500    0.0000 C   0  0  0  0  0  0  0  0  0  0  0  0
    2.6000   -1.5000    0.0000 C   0  0  0  0  0  0  0  0  0  0  0  0
    2.6000    1.5000    0.0000 C   0  0  0  0  0  0  0  0  0  0  0  0
   -2.6000   -1.5000    0.0000 C   0  0  0  0  0  0  0  0  0  0  0  0
   -3.9000    0.7500    0.0000 C   0  0  0  0  0  0  0  0  0  0  0  0
    1.3000   -0.7500    0.0000 C   0  0  0  0  0  0  0  0  0  0  0  0
    1.3000    0.7500    0.0000 C   0  0  0  0  0  0  0  0  0  0  0  0
   -1.3000   -0.7500    0.0000 C   0  0  0  0  0  0  0  0  0  0  0  0
   -2.6000    1.5000    0.0000 C   0  0  0  0  0  0  0  0  0  0  0  0
   -1.3000    0.7500    0.0000 C   0  0  0  0  0  0  0  0  0  0  0  0
   -0.0000   -1.5000    0.0000 C   0  0  0  0  0  0  0  0  0  0  0  0
   -0.0000    1.5000    0.0000 C   0  0  0  0  0  0  0  0  0  0  0  0
   -2.6000    3.0000    0.0000 N   0  0  0  0  0  0  0  0  0  0  0  0
   -0.0000   -3.0000    0.0000 O   0  0  0  0  0  0  0  0  0  0  0  0
    0.0000    3.0000    0.0000 O   0  0  0  0  0  0  0  0  0  0  0  0
   -3.8990    3.7500    0.0000 O   0  0  0  0  0  0  0  0  0  0  0  0
   -1.3010    3.7500    0.0000 O   0  0  0  0  0  0  0  0  0  0  0  0
  2  1  2  0
  4  1  1  0
  5  2  1  0
  6  3  1  0
  7  3  2  0
  8  4  2  0
  9  5  2  0
  9  8  1  0
 10  6  2  0
 11  7  1  0
 12 10  1  0
 12 11  2  0
 13  8  1  0
 13 10  1  0
 14  9  1  0
 14 12  1  0
 15 11  1  0
 16 13  2  0
 17 14  2  0
 18 15  1  0
 19 15  2  0
M  CHG  2  15   1  18  -1
M  END
>  <NAME>  (5297) 
1-NITROANTHRAQUINONE

>  <SYNONYMS>  (5297) 


>  <SPECTRUM TYPE>  (5297) 
MS1

>  <INSTRUMENT TYPE>  (5297) 
EI-B

>  <INSTRUMENT>  (5297) 
VARIAN MAT-44

>  <ION MODE>  (5297) 
P

>  <INCHIKEY>  (5297) 
YCANAXVBJKNANM-UHFFFAOYSA-N

>  <FORMULA>  (5297) 
C14H7NO4

>  <EXACT MASS>  (5297) 
253.03750770399998

>  <MW>  (5297) 
253

>  <ID>  (5297) 
JP001625

>  <CONTRIBUTOR>  (5297) 
University of Tokyo Team, {Faculty of Engineering, University of Tokyo

>  <COMMENT>  (5297) 
SMILES=[O-1][N+1](=O)c(c3)c(c(=O)1)c(cc3)c(=O)c(c2)c(ccc2)1
InChI=InChI=1S/C14H7NO4/c16-13-8-4-1-2-5-9(8)14(17)12-10(13)6-3-7-11(12)15(18)19/h1-7H
computed SMILES=O=C1C=2C=CC=CC2C(=O)C=3C1=CC=CC3N(=O)=O
accession=JP001625
date=2016.01.19 (Created 2008.10.21, modified 2011.05.06)
author=KOGA M, UNIV. OF OCCUPATIONAL AND ENVIRONMENTAL HEALTH
license=CC BY-NC-SA
exact mass=253.03751
ionization energy=70 eV
ion type=[M]+*
computed spectral entropy=3.0424225052322584
computed normalized entropy=0.7777107908135332
SPLASH=splash10-0zgi-5950000000-211963c93322a9c6bae9
submitter=submitter = University of Tokyo Team (Faculty of Engineering, University of Tokyo)
MoNA Rating=3.75

>  <NUM PEAKS>  (5297) 
50

>  <MASS SPECTRAL PEAKS>  (5297) 
41 1.58
43 2.19
49 1.28
50 23.84
51 5.14
53 2.19
55 1.28
57 1.21
61 1.21
62 3.86
63 13.32
69 3.1
73 2.72
74 12.03
75 23.69
76 43.83
77 7.26
81 1.13
86 1.96
87 2.42
90 7.04
98 2.8
99 2.95
100 1.21
101 1.28
102 1.51
104 1.81
125 3.7
126 5.6
139 4.92
149 2.42
150 24.6
151 49.65
152 45.95
167 3.02
179 12.11
180 88.11
181 13.39
182 1.05
195 6.05
196 1.05
206 2.57
207 24.9
208 99.99
209 15.21
210 1.43
236 1.28
244 4.46
253 18.39
254 2.8

>  <PREDICTED SPECTRUM>  (5297) 
30 76
37 19
38 30
39 73
40 64
43 68
44 76
46 79
49 55
50 299
51 186
52 11
53 128
54 24
55 140
56 29
57 33
61 71
62 208
63 220
64 23
65 57
67 13
69 142
70 67
71 34
73 72
74 437
75 508
76 393
77 206
78 16
79 9
80 11
81 49
82 59
83 119
84 74
85 145
86 218
87 173
88 130
89 89
91 29
92 12
93 2
97 103
98 272
99 359
100 184
101 291
102 26
103 81
104 217
105 22
109 61
110 165
111 269
112 168
113 246
114 72
116 4
121 41
122 191
123 253
124 234
125 422
126 143
127 50
128 0
135 33
137 146
138 149
139 364
140 230
141 118
149 394
150 999
151 970
152 356
153 206
154 59
155 25
167 445
168 173
169 184
171 0
179 527
180 167
181 21
183 30
195 465
196 172
197 159
206 166
207 495
208 272
209 143
223 254
224 146
225 112
226 4
236 250
237 23
253 927
254 372
255 162

$$$$

     RDKit          2D

 16 17  0  0  0  0  0  0  0  0999 V2000
   -2.6000    0.7500    0.0000 C   0  0  0  0  0  0  0  0  0  0  0  0
    2.6000    0.7500    0.0000 C   0  0  0  0  0  0  0  0  0  0  0  0
   -1.3000    1.5000    0.0000 C   0  0  0  0  0  0  0  0  0  0  0  0
    1.3000    1.5000    0.0000 C   0  0  0  0  0  0  0  0  0  0  0  0
   -2.6000   -0.7500    0.0000 C   0  0  0  0  0  0  0  0  0  0  0  0
    2.6000   -0.7500    0.0000 C   0  0  0  0  0  0  0  0  0  0  0  0
    0.0000    0.7500    0.0000 C   0  0  0  0  0  0  0  0  0  0  0  0
   -1.3000   -1.5000    0.0000 C   0  0  0  0  0  0  0  0  0  0  0  0
    1.3000   -1.5000    0.0000 C   0  0  0  0  0  0  0  0  0  0  0  0
    0.0000   -0.7500    0.0000 C   0  0  0  0  0  0  0  0  0  0  0  0
   -1.5605   -2.9772    0.0000 N   0  0  0  0  0  0  0  0  0  0  0  0
    1.5605   -2.9772    0.0000 N   0  0  0  0  0  0  0  0  0  0  0  0
   -2.9700   -3.4902    0.0000 O   0  0  0  0  0  0  0  0  0  0  0  0
   -0.4114   -3.9414    0.0000 O   0  0  0  0  0  0  0  0  0  0  0  0
    2.9700   -3.4902    0.0000 O   0  0  0  0  0  0  0  0  0  0  0  0
    0.4114   -3.9414    0.0000 O   0  0  0  0  0  0  0  0  0  0  0  0
  3  1  2  0
  4  2  1  0
  5  1  1  0
  6  2  2  0
  7  3  1  0
  7  4  2  0
  8  5  2  0
  9  6  1  0
 10  7  1  0
 10  8  1  0
 10  9  2  0
 11  8  1  0
 12  9  1  0
 13 11  1  0
 14 11  2  0
 15 12  1  0
 16 12  2  0
M  CHG  4  11   1  12   1  13  -1  15  -1
M  END
>  <NAME>  (5298) 
1,8-DINITRONAPHTHALENE

>  <SYNONYMS>  (5298) 


>  <SPECTRUM TYPE>  (5298) 
MS1

>  <INSTRUMENT TYPE>  (5298) 
EI-B

>  <INSTRUMENT>  (5298) 
VARIAN MAT-44

>  <ION MODE>  (5298) 
P

>  <INCHIKEY>  (5298) 
AVCSMMMOCOTIHF-UHFFFAOYSA-N

>  <FORMULA>  (5298) 
C10H6N2O4

>  <EXACT MASS>  (5298) 
218.032756672

>  <MW>  (5298) 
218

>  <ID>  (5298) 
JP001623

>  <CONTRIBUTOR>  (5298) 
University of Tokyo Team, {Faculty of Engineering, University of Tokyo

>  <COMMENT>  (5298) 
SMILES=[O-1][N+1](=O)c(c2)c(c1cc2)c(ccc1)[N+1]([O-1])=O
cas=602-38-0
InChI=InChI=1S/C10H6N2O4/c13-11(14)8-5-1-3-7-4-2-6-9(10(7)8)12(15)16/h1-6H
computed SMILES=O=N(=O)C=1C=CC=C2C=CC=C(C21)N(=O)=O
accession=JP001623
date=2016.01.19 (Created 2008.10.21, modified 2011.05.06)
author=KOGA M, UNIV. OF OCCUPATIONAL AND ENVIRONMENTAL HEALTH
license=CC BY-NC-SA
exact mass=218.03276
ionization energy=70 eV
ion type=[M]+*
computed spectral entropy=3.4715830748058596
computed normalized entropy=0.8379121858365051
SPLASH=splash10-03xr-5910000000-82f1ddf0bc95d89aed28
submitter=submitter = University of Tokyo Team (Faculty of Engineering, University of Tokyo)
MoNA Rating=3.75

>  <NUM PEAKS>  (5298) 
63

>  <MASS SPECTRAL PEAKS>  (5298) 
43 1.13
46 2.58
50 15.27
51 10.56
52 4.25
53 1.08
55 1.36
61 3.11
62 12.31
63 20.66
64 6.3
65 1.13
73 1.13
74 21.2
75 23.1
76 13.6
77 5.01
78 1.06
85 1.06
86 5.16
87 10.1
88 24.01
89 18.84
90 5.16
91 4.86
98 5.39
99 6.3
100 6.76
101 6.83
102 16.48
103 2.2
104 6.83
105 3.11
113 25.6
114 99.99
115 8.58
116 20.44
117 3.34
118 1.97
119 12.08
120 2.88
122 1.13
125 5.24
126 32.29
128 3.03
129 2.5
130 8.05
132 5.24
142 16.71
143 2.27
144 3.57
146 1.13
156 1.29
158 6.76
159 1.51
160 1.29
171 2.12
172 51.82
173 4.4
188 2.05
217 2.73
218 59.11
219 7.21

>  <PREDICTED SPECTRUM>  (5298) 
27 0
28 38
29 1
30 370
37 45
38 108
39 275
40 66
41 134
43 311
44 275
46 234
49 97
50 457
51 472
52 219
53 239
54 42
55 226
56 160
57 172
60 49
61 143
62 386
63 572
64 269
65 244
66 44
67 57
68 78
69 145
70 124
73 94
74 554
75 603
76 541
77 432
78 189
79 122
80 48
81 98
82 9
83 90
84 153
85 80
86 328
87 351
88 499
89 426
90 334
91 221
92 177
95 28
96 10
97 128
98 457
99 492
100 373
101 379
102 552
103 288
104 59
110 37
111 56
112 151
113 537
114 999
115 537
116 417
117 254
118 108
123 58
124 41
125 277
126 958
127 458
128 273
130 383
141 17
142 580
143 208
144 242
145 55
146 32
155 52
156 26
158 94
160 47
172 361
173 214
174 20
188 129
189 8
218 992
219 286
220 2

$$$$

     RDKit          2D

 16 18  0  0  0  0  0  0  0  0999 V2000
   -3.8900   -1.1300    0.0000 C   0  0  0  0  0  0  0  0  0  0  0  0
   -3.0100   -2.3500    0.0000 C   0  0  0  0  0  0  0  0  0  0  0  0
   -3.2800    0.2400    0.0000 C   0  0  0  0  0  0  0  0  0  0  0  0
   -1.5200   -2.1900    0.0000 C   0  0  0  0  0  0  0  0  0  0  0  0
    3.1200   -0.3600    0.0000 C   0  0  0  0  0  0  0  0  0  0  0  0
    1.8200   -1.1100    0.0000 C   0  0  0  0  0  0  0  0  0  0  0  0
   -0.9100    1.6100    0.0000 C   0  0  0  0  0  0  0  0  0  0  0  0
    1.8200    1.8900    0.0000 C   0  0  0  0  0  0  0  0  0  0  0  0
   -1.7900    0.3900    0.0000 C   0  0  0  0  0  0  0  0  0  0  0  0
    0.5200    1.1400    0.0000 C   0  0  0  0  0  0  0  0  0  0  0  0
    3.1200    1.1400    0.0000 C   0  0  0  0  0  0  0  0  0  0  0  0
   -0.9100   -0.8200    0.0000 C   0  0  0  0  0  0  0  0  0  0  0  0
    0.5200   -0.3600    0.0000 C   0  0  0  0  0  0  0  0  0  0  0  0
    4.4189    1.8902    0.0000 N   0  0  0  0  0  0  0  0  0  0  0  0
    5.7181    1.1404    0.0000 O   0  0  0  0  0  0  0  0  0  0  0  0
    4.4187    3.3902    0.0000 O   0  0  0  0  0  0  0  0  0  0  0  0
  2  1  2  0
  3  1  1  0
  4  2  1  0
  6  5  1  0
  9  3  2  0
  9  7  1  0
 10  7  1  0
 10  8  2  0
 11  5  2  0
 11  8  1  0
 12  4  2  0
 12  9  1  0
 13  6  2  0
 13 10  1  0
 13 12  1  0
 14 11  1  0
 15 14  1  0
 16 14  2  0
M  CHG  2  14   1  15  -1
M  END
>  <NAME>  (5299) 
2-NITROFLUORENE

>  <SYNONYMS>  (5299) 


>  <SPECTRUM TYPE>  (5299) 
MS1

>  <INSTRUMENT TYPE>  (5299) 
EI-B

>  <INSTRUMENT>  (5299) 
VARIAN MAT-44

>  <ION MODE>  (5299) 
P

>  <INCHIKEY>  (5299) 
XFOHWECQTFIEIX-UHFFFAOYSA-N

>  <FORMULA>  (5299) 
C13H9NO2

>  <EXACT MASS>  (5299) 
211.063328528

>  <MW>  (5299) 
211

>  <ID>  (5299) 
JP001621

>  <CONTRIBUTOR>  (5299) 
University of Tokyo Team, {Faculty of Engineering, University of Tokyo

>  <COMMENT>  (5299) 
SMILES=[O-1][N+1](=O)c(c3)cc(C1)c(c3)c(c2)c(ccc2)1
InChI=InChI=1S/C13H9NO2/c15-14(16)11-5-6-13-10(8-11)7-9-3-1-2-4-12(9)13/h1-6,8H,7H2
computed SMILES=O=N(=O)C1=CC=C2C=3C=CC=CC3CC2=C1
accession=JP001621
date=2016.01.19 (Created 2008.10.21, modified 2011.05.06)
author=KOGA M, UNIV. OF OCCUPATIONAL AND ENVIRONMENTAL HEALTH
license=CC BY-NC-SA
exact mass=211.06333
ionization energy=70 eV
ion type=[M]+*
computed spectral entropy=2.9080169066507513
computed normalized entropy=0.7595427739243048
SPLASH=splash10-03xr-2920000000-e163cd4eb030988dfa9e
submitter=submitter = University of Tokyo Team (Faculty of Engineering, University of Tokyo)
MoNA Rating=3.75

>  <NUM PEAKS>  (5299) 
46

>  <MASS SPECTRAL PEAKS>  (5299) 
43 1.1
44 1.21
50 3.75
51 4.36
62 4.3
63 10.76
65 1.54
69 4.63
70 3.2
74 3.92
75 3.86
76 2.87
77 1.43
81 4.3
82 6.29
86 2.7
87 4.3
88 1.6
89 3.47
98 1.38
111 1.15
113 2.54
115 7.17
126 1.82
127 1.49
137 2.26
138 1.76
139 9.88
140 1.21
150 1.87
151 4.36
152 11.76
153 8.39
161 1.32
162 5.41
163 32.35
164 48.59
165 99.99
166 14.24
167 1.1
181 6.12
194 30.81
195 5.9
210 2.65
211 73.49
212 10.87

>  <PREDICTED SPECTRUM>  (5299) 
30 28
38 28
39 87
40 14
44 29
46 80
50 190
51 235
52 101
53 28
54 20
55 87
56 8
57 26
61 99
62 197
63 307
64 86
65 59
69 66
70 14
74 207
75 260
76 241
77 156
78 35
81 116
82 231
83 120
85 85
86 200
87 249
88 208
89 240
96 37
97 58
98 173
99 106
100 89
102 42
110 116
111 166
112 44
113 187
114 2
115 251
125 19
126 96
127 106
128 54
133 34
137 200
138 181
139 291
140 33
149 23
150 167
151 156
152 399
153 266
154 103
161 76
162 256
163 589
164 736
165 999
166 388
167 141
175 125
180 120
181 363
182 109
193 155
194 376
195 196
196 1
211 942
212 357
213 137

$$$$

     RDKit          2D

 15 17  0  0  0  0  0  0  0  0999 V2000
   -2.6000   -1.2500    0.0000 C   0  0  0  0  0  0  0  0  0  0  0  0
   -2.6000    0.2500    0.0000 C   0  0  0  0  0  0  0  0  0  0  0  0
   -1.3000   -2.0000    0.0000 C   0  0  0  0  0  0  0  0  0  0  0  0
   -1.3000    2.5000    0.0000 C   0  0  0  0  0  0  0  0  0  0  0  0
    1.3000    2.5000    0.0000 C   0  0  0  0  0  0  0  0  0  0  0  0
    2.6000    0.2500    0.0000 C   0  0  0  0  0  0  0  0  0  0  0  0
    2.6000   -1.2500    0.0000 C   0  0  0  0  0  0  0  0  0  0  0  0
   -1.3000    1.0000    0.0000 C   0  0  0  0  0  0  0  0  0  0  0  0
    1.3000    1.0000    0.0000 C   0  0  0  0  0  0  0  0  0  0  0  0
    0.0000   -1.2500    0.0000 C   0  0  0  0  0  0  0  0  0  0  0  0
    1.3000   -2.0000    0.0000 C   0  0  0  0  0  0  0  0  0  0  0  0
    0.0000    0.2500    0.0000 C   0  0  0  0  0  0  0  0  0  0  0  0
    1.3000   -3.5000    0.0000 N   0  0  0  0  0  0  0  0  0  0  0  0
    2.5990   -4.2500    0.0000 O   0  0  0  0  0  0  0  0  0  0  0  0
    0.0010   -4.2500    0.0000 O   0  0  0  0  0  0  0  0  0  0  0  0
  2  1  2  0
  3  1  1  0
  5  4  1  0
  7  6  1  0
  8  2  1  0
  8  4  1  0
  9  5  1  0
  9  6  2  0
 10  3  2  0
 11  7  2  0
 11 10  1  0
 12  8  2  0
 12  9  1  0
 12 10  1  0
 13 11  1  0
 14 13  1  0
 15 13  2  0
M  CHG  2  13   1  14  -1
M  END
>  <NAME>  (5300) 
5-NITROACENAPHTHENE

>  <SYNONYMS>  (5300) 


>  <SPECTRUM TYPE>  (5300) 
MS1

>  <INSTRUMENT TYPE>  (5300) 
EI-B

>  <INSTRUMENT>  (5300) 
VARIAN MAT-44

>  <ION MODE>  (5300) 
P

>  <INCHIKEY>  (5300) 
CUARLQDWYSRQDF-UHFFFAOYSA-N

>  <FORMULA>  (5300) 
C12H9NO2

>  <EXACT MASS>  (5300) 
199.063328528

>  <MW>  (5300) 
199

>  <ID>  (5300) 
JP001620

>  <CONTRIBUTOR>  (5300) 
University of Tokyo Team, {Faculty of Engineering, University of Tokyo

>  <COMMENT>  (5300) 
SMILES=[O-1][N+1](=O)c(c1)c(c3)c(c(cc3)2)c(CC2)c1
InChI=InChI=1S/C12H9NO2/c14-13(15)11-7-6-9-5-4-8-2-1-3-10(11)12(8)9/h1-3,6-7H,4-5H2
computed SMILES=O=N(=O)C1=CC=C2C=3C1=CC=CC3CC2
accession=JP001620
date=2016.01.19 (Created 2008.10.21, modified 2011.05.06)
author=KOGA M, UNIV. OF OCCUPATIONAL AND ENVIRONMENTAL HEALTH
license=CC BY-NC-SA
exact mass=199.06333
ionization energy=70 eV
ion type=[M]+*
computed spectral entropy=3.5049679232663205
computed normalized entropy=0.8396365015155739
SPLASH=splash10-0udi-3900000000-47db36c0747a33d8ab45
submitter=submitter = University of Tokyo Team (Faculty of Engineering, University of Tokyo)
MoNA Rating=3.75

>  <NUM PEAKS>  (5300) 
65

>  <MASS SPECTRAL PEAKS>  (5300) 
40 1.22
43 1.09
46 10.34
49 1.27
50 15.52
51 18.48
52 4.05
53 1.11
61 3.74
62 12.01
63 26.59
64 3.06
65 2.28
73 1.69
74 13.91
75 20.12
76 20.64
77 8.63
78 1.32
85 1.92
86 5.82
87 7.82
88 2.62
89 3.71
91 1.11
98 5.01
99 4.52
100 2.6
101 3.38
102 3.77
110 1.32
111 1.56
113 2.96
114 2.78
115 24.23
116 5.12
122 1.14
125 3.01
126 10.34
127 7.59
128 2.34
129 1.53
138 1.22
139 9.95
140 5.79
141 31.64
142 7.67
143 4.23
144 2
149 2.39
150 18.33
151 40.24
152 99.99
153 41.88
154 6.52
168 3.01
169 24.93
170 5.48
171 2.28
181 1.3
182 13.15
183 3.95
198 10.68
199 49.47
200 8.86

>  <PREDICTED SPECTRUM>  (5300) 
30 22
33 1
37 5
38 60
39 155
40 32
41 38
43 56
44 53
46 109
48 8
49 101
50 303
51 309
52 177
53 44
55 84
56 15
57 10
61 106
62 308
63 442
64 193
65 122
68 42
69 107
70 147
71 8
74 347
75 423
76 405
77 192
78 109
79 15
81 12
82 114
83 69
85 84
86 255
87 312
88 219
89 215
90 8
91 10
98 168
99 190
100 188
101 156
102 206
103 46
109 17
110 104
111 86
113 180
114 131
115 393
116 125
122 32
123 79
125 191
126 401
127 387
128 240
129 45
137 114
138 45
139 311
140 330
141 451
142 290
143 124
144 21
149 89
150 444
151 697
152 999
153 741
154 382
155 96
156 0
165 86
167 35
168 114
169 326
170 249
171 128
172 38
182 127
183 56
198 116
199 932
200 359
201 43

$$$$

     RDKit          2D

 15 16  0  0  0  0  0  0  0  0999 V2000
    3.2505    1.4445    0.0000 C   0  0  0  0  0  0  0  0  0  0  0  0
    3.2510    2.9453    0.0000 C   0  0  0  0  0  0  0  0  0  0  0  0
    1.9510    0.6937    0.0000 C   0  0  0  0  0  0  0  0  0  0  0  0
   -1.9464    5.9389    0.0000 C   0  0  0  0  0  0  0  0  0  0  0  0
    1.9520    3.6953    0.0000 C   0  0  0  0  0  0  0  0  0  0  0  0
    0.6520    1.4437    0.0000 C   0  0  0  0  0  0  0  0  0  0  0  0
   -0.6486    5.1867    0.0000 C   0  0  0  0  0  0  0  0  0  0  0  0
   -3.2422    5.1989    0.0000 C   0  0  0  0  0  0  0  0  0  0  0  0
   -1.9474    2.9458    0.0000 C   0  0  0  0  0  0  0  0  0  0  0  0
    0.6524    2.9445    0.0000 C   0  0  0  0  0  0  0  0  0  0  0  0
   -0.6466    3.6945    0.0000 C   0  0  0  0  0  0  0  0  0  0  0  0
   -3.2452    3.6980    0.0000 C   0  0  0  0  0  0  0  0  0  0  0  0
   -4.5456    2.9504    0.0000 N   0  0  0  0  0  0  0  0  0  0  0  0
   -5.8432    3.7028    0.0000 O   0  0  0  0  0  0  0  0  0  0  0  0
   -4.5483    1.4504    0.0000 O   0  0  0  0  0  0  0  0  0  0  0  0
  2  1  2  0
  3  1  1  0
  5  2  1  0
  6  3  2  0
  7  4  2  0
  8  4  1  0
 10  5  2  0
 10  6  1  0
 11  7  1  0
 11  9  2  0
 11 10  1  0
 12  8  2  0
 12  9  1  0
 13 12  1  0
 14 13  1  0
 15 13  2  0
M  CHG  2  13   1  14  -1
M  END
>  <NAME>  (5301) 
3-NITRODIPHENYL

>  <SYNONYMS>  (5301) 


>  <SPECTRUM TYPE>  (5301) 
MS1

>  <INSTRUMENT TYPE>  (5301) 
EI-B

>  <INSTRUMENT>  (5301) 
VARIAN MAT-44

>  <ION MODE>  (5301) 
P

>  <INCHIKEY>  (5301) 
FYRPEHRWMVMHQM-UHFFFAOYSA-N

>  <FORMULA>  (5301) 
C12H9NO2

>  <EXACT MASS>  (5301) 
199.063328528

>  <MW>  (5301) 
199

>  <ID>  (5301) 
JP001619

>  <CONTRIBUTOR>  (5301) 
University of Tokyo Team, {Faculty of Engineering, University of Tokyo

>  <COMMENT>  (5301) 
SMILES=[O-1][N+1](=O)c(c2)cc(cc2)c(c1)cccc1
InChI=InChI=1S/C12H9NO2/c14-13(15)12-8-4-7-11(9-12)10-5-2-1-3-6-10/h1-9H
computed SMILES=O=N(=O)C1=CC=CC(=C1)C=2C=CC=CC2
accession=JP001619
date=2016.01.19 (Created 2008.10.21, modified 2011.05.06)
author=KOGA M, UNIV. OF OCCUPATIONAL AND ENVIRONMENTAL HEALTH
license=CC BY-NC-SA
exact mass=199.06333
ion type=[M]+*
ionization energy=70 eV
computed spectral entropy=2.764986558479219
computed normalized entropy=0.7397621622183712
SPLASH=splash10-0udj-3900000000-b1df2107ea7960fc450b
submitter=submitter = University of Tokyo Team (Faculty of Engineering, University of Tokyo)
MoNA Rating=3.75

>  <NUM PEAKS>  (5301) 
42

>  <MASS SPECTRAL PEAKS>  (5301) 
40 1.34
43 5.31
44 12.46
50 7.39
51 13.2
52 2.26
58 1.4
62 3.05
63 12.22
64 1.1
74 4.7
75 9.04
76 24.81
77 10.26
78 1.16
86 1.22
87 1.83
89 1.46
98 1.22
99 1.65
100 1.22
101 2.26
102 2.81
115 5.92
125 1.22
126 6.35
127 9.22
128 1.16
139 1.58
141 9.16
142 1.34
150 6.29
151 22.79
152 86
153 62.83
154 7.94
173 1.46
183 1.46
198 2.26
199 99.99
200 13.56
201 1.22

>  <PREDICTED SPECTRUM>  (5301) 
26 11
27 12
29 36
30 174
37 25
38 88
39 193
40 66
41 89
42 15
43 35
44 20
46 97
49 14
50 276
51 309
52 146
53 61
54 24
55 103
56 43
57 58
61 9
62 218
63 355
64 144
65 191
66 0
67 0
69 93
70 68
71 50
73 12
74 256
75 329
76 348
77 305
78 96
82 59
85 36
86 136
87 193
88 151
89 230
96 11
97 15
98 90
99 41
100 25
102 253
103 5
105 15
113 184
114 51
115 493
116 20
122 19
125 248
126 310
127 216
128 78
139 425
140 140
141 382
142 113
150 70
151 417
152 820
153 712
154 253
168 22
169 397
170 73
183 52
199 999
200 372
201 76

$$$$

     RDKit          2D

 15 16  0  0  0  0  0  0  0  0999 V2000
    3.8757   -1.1784    0.0000 C   0  0  0  0  0  0  0  0  0  0  0  0
    3.8762    0.3224    0.0000 C   0  0  0  0  0  0  0  0  0  0  0  0
    2.5762   -1.9293    0.0000 C   0  0  0  0  0  0  0  0  0  0  0  0
   -2.5905    1.0710    0.0000 C   0  0  0  0  0  0  0  0  0  0  0  0
   -2.5932    2.5460    0.0000 C   0  0  0  0  0  0  0  0  0  0  0  0
    2.5771    1.0724    0.0000 C   0  0  0  0  0  0  0  0  0  0  0  0
    1.2771   -1.1793    0.0000 C   0  0  0  0  0  0  0  0  0  0  0  0
   -1.3046    0.3338    0.0000 C   0  0  0  0  0  0  0  0  0  0  0  0
   -1.3081    3.3197    0.0000 C   0  0  0  0  0  0  0  0  0  0  0  0
    1.2776    0.3216    0.0000 C   0  0  0  0  0  0  0  0  0  0  0  0
   -0.0214    1.0716    0.0000 C   0  0  0  0  0  0  0  0  0  0  0  0
   -0.0241    2.5465    0.0000 C   0  0  0  0  0  0  0  0  0  0  0  0
    1.2811    3.2857    0.0000 N   0  0  0  0  0  0  0  0  0  0  0  0
    1.2935    4.7856    0.0000 O   0  0  0  0  0  0  0  0  0  0  0  0
    2.5739    2.5249    0.0000 O   0  0  0  0  0  0  0  0  0  0  0  0
  2  1  2  0
  3  1  1  0
  5  4  2  0
  6  2  1  0
  7  3  2  0
  8  4  1  0
  9  5  1  0
 10  6  2  0
 10  7  1  0
 11  8  2  0
 11 10  1  0
 12  9  2  0
 12 11  1  0
 13 12  1  0
 14 13  1  0
 15 13  2  0
M  CHG  2  13   1  14  -1
M  END
>  <NAME>  (5302) 
2-NITRODIPHENYL

>  <SYNONYMS>  (5302) 


>  <SPECTRUM TYPE>  (5302) 
MS1

>  <INSTRUMENT TYPE>  (5302) 
EI-B

>  <INSTRUMENT>  (5302) 
VARIAN MAT-44

>  <ION MODE>  (5302) 
P

>  <INCHIKEY>  (5302) 
YOJKKXRJMXIKSR-UHFFFAOYSA-N

>  <FORMULA>  (5302) 
C12H9NO2

>  <EXACT MASS>  (5302) 
199.063328528

>  <MW>  (5302) 
199

>  <ID>  (5302) 
JP001618

>  <CONTRIBUTOR>  (5302) 
University of Tokyo Team, {Faculty of Engineering, University of Tokyo

>  <COMMENT>  (5302) 
SMILES=[O-1][N+1](=O)c(c2)c(ccc2)c(c1)cccc1
InChI=InChI=1S/C12H9NO2/c14-13(15)12-9-5-4-8-11(12)10-6-2-1-3-7-10/h1-9H
computed SMILES=O=N(=O)C=1C=CC=CC1C=2C=CC=CC2
accession=JP001618
date=2016.01.19 (Created 2008.10.21, modified 2011.05.06)
author=KOGA M, UNIV. OF OCCUPATIONAL AND ENVIRONMENTAL HEALTH
license=CC BY-NC-SA
exact mass=199.06333
ionization energy=70 eV
ion type=[M]+*
computed spectral entropy=3.9392097123726115
computed normalized entropy=0.869084003191327
SPLASH=splash10-0udi-6900000000-aa6e6064cecf88ebcf97
submitter=submitter = University of Tokyo Team (Faculty of Engineering, University of Tokyo)
MoNA Rating=3.75

>  <NUM PEAKS>  (5302) 
93

>  <MASS SPECTRAL PEAKS>  (5302) 
40 6.17
41 3.72
43 2.05
44 3.03
46 6.07
49 3.81
50 53.47
51 69.34
52 15.67
53 11.75
54 1.07
55 4.6
57 2.74
58 4.4
59 1.66
61 6.95
62 24.87
63 58.17
64 11.16
65 9.69
66 1.37
68 1.86
69 1.76
70 2.44
72 1.07
73 4.21
74 31.83
75 40.64
76 58.76
77 34.47
78 6.56
79 1.07
81 2.44
85 3.42
86 10.57
87 14.98
88 6.85
89 13.02
90 9.3
91 5.68
92 2.84
98 8.42
99 6.26
100 4.3
101 9.3
102 12.63
103 4.5
104 4.7
110 1.95
111 2.15
113 6.75
114 8.32
115 97.64
116 30.26
117 24.38
118 2.93
122 1.17
125 4.21
126 23.89
127 21.25
128 15.57
129 16.25
130 6.36
138 1.56
139 16.84
140 7.93
141 24.19
142 26.15
143 43.87
144 11.16
145 1.95
146 3.23
149 1.95
150 18.02
151 46.13
152 99.99
153 19.78
154 25.85
155 4.4
156 1.37
166 5.38
167 2.25
168 9.2
169 6.46
170 20.86
171 50.44
172 7.05
181 2.84
182 33.59
183 5.87
198 5.58
199 27.61
200 4.11

>  <PREDICTED SPECTRUM>  (5302) 
17 20
18 15
25 1
26 101
27 129
28 47
29 79
30 128
31 115
37 74
38 160
39 349
40 94
41 126
42 36
43 129
44 60
46 65
48 4
49 123
50 513
51 581
52 289
53 157
54 57
55 210
56 126
57 165
61 169
62 393
63 616
64 333
65 304
66 103
67 101
68 112
69 211
70 216
71 164
73 107
74 462
75 551
76 563
77 544
78 319
79 167
80 90
81 123
82 226
83 205
84 135
85 172
86 261
87 360
88 260
89 414
90 209
91 253
92 142
93 84
94 43
95 89
96 37
97 51
98 227
99 222
100 125
101 170
102 534
103 185
104 94
105 62
106 31
107 33
108 32
109 65
110 126
111 45
113 233
114 244
115 756
116 453
117 300
118 110
119 46
120 23
121 56
122 158
123 34
125 14
126 442
127 513
128 433
129 342
130 309
131 270
132 56
133 35
137 97
139 577
140 328
141 533
142 530
143 456
144 331
145 259
146 96
149 104
150 298
151 650
152 999
153 597
154 509
155 238
156 234
157 71
158 62
164 64
165 183
166 11
167 237
168 474
169 532
170 649
171 387
172 171
173 49
180 235
181 107
182 567
183 266
184 216
185 48
187 2
197 86
198 261
199 892
200 337
201 122

$$$$

     RDKit          2D

 13 14  0  0  0  0  0  0  0  0999 V2000
   -2.6000   -0.7500    0.0000 C   0  0  0  0  0  0  0  0  0  0  0  0
   -2.6000    0.7500    0.0000 C   0  0  0  0  0  0  0  0  0  0  0  0
   -1.3000   -1.5000    0.0000 C   0  0  0  0  0  0  0  0  0  0  0  0
   -1.3000    1.5000    0.0000 C   0  0  0  0  0  0  0  0  0  0  0  0
    1.3000   -1.5000    0.0000 C   0  0  0  0  0  0  0  0  0  0  0  0
    2.6000   -0.7500    0.0000 C   0  0  0  0  0  0  0  0  0  0  0  0
    1.3000    1.5000    0.0000 C   0  0  0  0  0  0  0  0  0  0  0  0
    0.0000   -0.7500    0.0000 C   0  0  0  0  0  0  0  0  0  0  0  0
    0.0000    0.7500    0.0000 C   0  0  0  0  0  0  0  0  0  0  0  0
    2.6000    0.7500    0.0000 C   0  0  0  0  0  0  0  0  0  0  0  0
    3.8989    1.5002    0.0000 N   0  0  0  0  0  0  0  0  0  0  0  0
    5.1981    0.7504    0.0000 O   0  0  0  0  0  0  0  0  0  0  0  0
    3.8987    3.0002    0.0000 O   0  0  0  0  0  0  0  0  0  0  0  0
  2  1  2  0
  3  1  1  0
  4  2  1  0
  6  5  2  0
  8  3  2  0
  8  5  1  0
  9  4  2  0
  9  7  1  0
  9  8  1  0
 10  6  1  0
 10  7  2  0
 11 10  1  0
 12 11  1  0
 13 11  2  0
M  CHG  2  11   1  12  -1
M  END
>  <NAME>  (5303) 
2-NITRONAPHTHALENE

>  <SYNONYMS>  (5303) 


>  <SPECTRUM TYPE>  (5303) 
MS1

>  <INSTRUMENT TYPE>  (5303) 
EI-B

>  <INSTRUMENT>  (5303) 
VARIAN MAT-44

>  <ION MODE>  (5303) 
P

>  <INCHIKEY>  (5303) 
ZJYJZEAJZXVAMF-UHFFFAOYSA-N

>  <FORMULA>  (5303) 
C10H7NO2

>  <EXACT MASS>  (5303) 
173.047678464

>  <MW>  (5303) 
173

>  <ID>  (5303) 
JP001617

>  <CONTRIBUTOR>  (5303) 
University of Tokyo Team, {Faculty of Engineering, University of Tokyo

>  <COMMENT>  (5303) 
SMILES=[O-1][N+1](=O)c(c1)cc(c2)c(ccc2)c1
InChI=InChI=1S/C10H7NO2/c12-11(13)10-6-5-8-3-1-2-4-9(8)7-10/h1-7H
computed SMILES=O=N(=O)C=1C=CC=2C=CC=CC2C1
accession=JP001617
date=2016.01.19 (Created 2008.10.21, modified 2011.05.06)
author=KOGA M, UNIV. OF OCCUPATIONAL AND ENVIRONMENTAL HEALTH
license=CC BY-NC-SA
exact mass=173.04768
ionization energy=70 eV
ion type=[M]+*
computed spectral entropy=3.0424387452700574
computed normalized entropy=0.7946523140192775
SPLASH=splash10-004i-8900000000-28b47576cf9472ce38b5
submitter=submitter = University of Tokyo Team (Faculty of Engineering, University of Tokyo)
MoNA Rating=3.75

>  <NUM PEAKS>  (5303) 
46

>  <MASS SPECTRAL PEAKS>  (5303) 
40 1.1
41 1
43 2.61
44 11.67
46 2.81
49 1.81
50 24.94
51 36.51
52 5.43
53 1.81
61 4.12
62 10.56
63 25.25
64 3.92
65 2.91
73 1.6
74 18.81
75 25.45
76 13.48
77 39.13
78 3.11
85 1.1
86 3.62
87 5.63
88 1.91
89 5.13
90 1.2
98 3.72
99 3.21
100 3.01
101 14.18
102 1.6
113 1.3
114 2.61
115 40.24
116 4.12
125 2.81
126 26.05
127 99.99
128 11.46
143 2.61
157 1.4
165 1.1
172 1.5
173 65.79
174 7.54

>  <PREDICTED SPECTRUM>  (5303) 
26 1
29 17
30 216
37 30
38 80
39 151
40 29
44 33
46 107
49 33
50 302
51 295
52 134
55 11
57 144
61 86
62 245
63 385
64 115
65 121
69 137
70 54
71 40
73 100
74 309
75 399
76 295
77 311
78 95
83 30
85 65
86 151
87 231
88 222
89 129
95 0
97 56
98 157
99 127
100 254
101 320
102 179
114 62
115 702
116 253
117 6
125 182
126 489
127 939
128 367
129 81
142 58
143 244
144 110
157 82
173 999
174 340
175 65

$$$$

     RDKit          2D

 13 14  0  0  0  0  0  0  0  0999 V2000
   -2.7200   -1.0200    0.0000 C   0  0  0  0  0  0  0  0  0  0  0  0
   -2.7200    0.4800    0.0000 C   0  0  0  0  0  0  0  0  0  0  0  0
    2.4800   -1.0200    0.0000 C   0  0  0  0  0  0  0  0  0  0  0  0
   -1.4200   -1.7700    0.0000 C   0  0  0  0  0  0  0  0  0  0  0  0
    1.1800   -1.7700    0.0000 C   0  0  0  0  0  0  0  0  0  0  0  0
   -1.4200    1.2300    0.0000 C   0  0  0  0  0  0  0  0  0  0  0  0
    2.4800    0.4800    0.0000 C   0  0  0  0  0  0  0  0  0  0  0  0
   -0.1200   -1.0200    0.0000 C   0  0  0  0  0  0  0  0  0  0  0  0
   -0.1200    0.4800    0.0000 C   0  0  0  0  0  0  0  0  0  0  0  0
    1.1800    1.2300    0.0000 C   0  0  0  0  0  0  0  0  0  0  0  0
    1.1800    2.7300    0.0000 N   0  0  0  0  0  0  0  0  0  0  0  0
    2.4790    3.4800    0.0000 O   0  0  0  0  0  0  0  0  0  0  0  0
   -0.1190    3.4800    0.0000 O   0  0  0  0  0  0  0  0  0  0  0  0
  2  1  2  0
  4  1  1  0
  5  3  2  0
  6  2  1  0
  7  3  1  0
  8  4  2  0
  8  5  1  0
  9  6  2  0
  9  8  1  0
 10  7  2  0
 10  9  1  0
 11 10  1  0
 12 11  1  0
 13 11  2  0
M  CHG  2  11   1  12  -1
M  END
>  <NAME>  (5304) 
1-NITRONAPHTHALENE

>  <SYNONYMS>  (5304) 


>  <SPECTRUM TYPE>  (5304) 
MS1

>  <INSTRUMENT TYPE>  (5304) 
EI-B

>  <INSTRUMENT>  (5304) 
VARIAN MAT-44

>  <ION MODE>  (5304) 
P

>  <INCHIKEY>  (5304) 
RJKGJBPXVHTNJL-UHFFFAOYSA-N

>  <FORMULA>  (5304) 
C10H7NO2

>  <EXACT MASS>  (5304) 
173.047678464

>  <MW>  (5304) 
173

>  <ID>  (5304) 
JP001616

>  <CONTRIBUTOR>  (5304) 
University of Tokyo Team, {Faculty of Engineering, University of Tokyo

>  <COMMENT>  (5304) 
SMILES=[O-1][N+1](=O)c(c1)c(c2)c(ccc2)cc1
cas=86-57-7
InChI=InChI=1S/C10H7NO2/c12-11(13)10-7-3-5-8-4-1-2-6-9(8)10/h1-7H
computed SMILES=O=N(=O)C1=CC=CC=2C=CC=CC21
accession=JP001616
date=2016.01.19 (Created 2008.10.21, modified 2011.05.06)
author=KOGA M, UNIV. OF OCCUPATIONAL AND ENVIRONMENTAL HEALTH
license=CC BY-NC-SA
exact mass=173.04768
ionization energy=70 eV
ion type=[M]+*
computed spectral entropy=3.378515936515645
computed normalized entropy=0.8469615062576077
SPLASH=splash10-0fb9-9600000000-bdf73b19a48ec1965ff9
submitter=submitter = University of Tokyo Team (Faculty of Engineering, University of Tokyo)
MoNA Rating=3.75

>  <NUM PEAKS>  (5304) 
54

>  <MASS SPECTRAL PEAKS>  (5304) 
40 2.65
41 1.19
43 2.47
44 1.28
45 1
46 23.55
49 5.77
50 56.27
51 64.16
52 9.34
53 2.56
61 11.82
62 28.13
63 50.96
64 7.79
65 8.15
73 4.94
74 42.07
75 48.48
76 21.99
77 53.07
78 5.31
85 3.11
86 8.79
87 12.37
88 5.59
89 15.03
90 9.25
97 1.19
98 7.88
99 5.86
100 5.95
101 21.81
102 7.42
103 2.47
113 3.11
114 8.52
115 99.99
116 12.09
117 7.51
118 4.85
125 4.3
126 36.57
127 85.88
128 11.73
129 12.28
130 2.65
143 10.99
144 2.19
145 13.01
146 1.28
172 2.93
173 31.89
174 3.75

>  <PREDICTED SPECTRUM>  (5304) 
30 99
37 20
38 76
39 193
41 60
44 73
46 78
49 27
50 329
51 345
52 146
55 77
57 167
58 58
61 132
62 294
63 489
64 209
65 143
69 123
70 99
71 84
73 121
74 369
75 397
76 297
77 307
78 72
82 66
83 88
84 27
85 158
86 216
87 275
88 265
89 302
90 167
91 91
97 58
98 179
99 192
100 188
101 359
102 177
103 86
110 52
111 63
113 173
114 317
115 907
116 548
117 227
118 59
125 217
126 588
127 792
128 410
129 102
130 13
142 246
143 476
144 246
145 57
156 95
157 59
173 999
174 322
175 45

$$$$

     RDKit          2D

 13 13  0  0  0  0  0  0  0  0999 V2000
   -2.5989   -1.5002    0.0000 C   0  0  0  0  0  0  0  0  0  0  0  0
   -1.3000    0.7500    0.0000 C   0  0  0  0  0  0  0  0  0  0  0  0
    0.0000    1.5000    0.0000 C   0  0  0  0  0  0  0  0  0  0  0  0
   -0.0000   -1.5000    0.0000 C   0  0  0  0  0  0  0  0  0  0  0  0
   -1.3000   -0.7500    0.0000 C   0  0  0  0  0  0  0  0  0  0  0  0
    1.3000    0.7500    0.0000 C   0  0  0  0  0  0  0  0  0  0  0  0
    1.3000   -0.7500    0.0000 C   0  0  0  0  0  0  0  0  0  0  0  0
    2.5989    1.5002    0.0000 N   0  0  0  0  0  0  0  0  0  0  0  0
    2.5989   -1.5002    0.0000 N   0  0  0  0  0  0  0  0  0  0  0  0
    2.5987    3.0002    0.0000 O   0  0  0  0  0  0  0  0  0  0  0  0
    3.8981    0.7504    0.0000 O   0  0  0  0  0  0  0  0  0  0  0  0
    2.5987   -3.0002    0.0000 O   0  0  0  0  0  0  0  0  0  0  0  0
    3.8981   -0.7504    0.0000 O   0  0  0  0  0  0  0  0  0  0  0  0
  3  2  2  0
  5  1  1  0
  5  2  1  0
  5  4  2  0
  6  3  1  0
  7  4  1  0
  7  6  2  0
  8  6  1  0
  9  7  1  0
 10  8  1  0
 11  8  2  0
 12  9  1  0
 13  9  2  0
M  CHG  4   8   1   9   1  10  -1  12  -1
M  END
>  <NAME>  (5305) 
4-METHYL-1,2-DINITROBENZENE

>  <SYNONYMS>  (5305) 
3,4-DINITROTOLUENE

>  <SPECTRUM TYPE>  (5305) 
MS1

>  <INSTRUMENT TYPE>  (5305) 
EI-B

>  <INSTRUMENT>  (5305) 
VARIAN MAT-44

>  <ION MODE>  (5305) 
P

>  <INCHIKEY>  (5305) 
INYDMNPNDHRJQJ-UHFFFAOYSA-N

>  <FORMULA>  (5305) 
C7H6N2O4

>  <EXACT MASS>  (5305) 
182.032756672

>  <MW>  (5305) 
182

>  <ID>  (5305) 
JP001615

>  <CONTRIBUTOR>  (5305) 
University of Tokyo Team, {Faculty of Engineering, University of Tokyo

>  <COMMENT>  (5305) 
SMILES=Cc(c1)cc([N+1]([O-1])=O)c(c1)[N+1]([O-1])=O
cas=610-39-9
InChI=InChI=1S/C7H6N2O4/c1-5-2-3-6(8(10)11)7(4-5)9(12)13/h2-4H,1H3
computed SMILES=O=N(=O)C1=CC=C(C=C1N(=O)=O)C
accession=JP001615
date=2016.01.19 (Created 2008.10.21, modified 2011.05.06)
author=KOGA M, UNIV. OF OCCUPATIONAL AND ENVIRONMENTAL HEALTH
license=CC BY-NC-SA
exact mass=182.03276
ionization energy=70 eV
ion type=[M]+*
computed spectral entropy=3.2747889668262844
computed normalized entropy=0.8287995375800298
SPLASH=splash10-0udi-9000000000-67688fcaa838e0f6deef
submitter=submitter = University of Tokyo Team (Faculty of Engineering, University of Tokyo)
MoNA Rating=3.75

>  <NUM PEAKS>  (5305) 
52

>  <MASS SPECTRAL PEAKS>  (5305) 
40 23.52
41 12.54
42 2.53
43 11.7
44 21.71
45 1.2
46 11.45
49 3.25
50 45.71
51 75.27
52 99.99
53 51.38
54 6.63
55 3.86
56 1.68
61 8.56
62 30.03
63 89.26
64 41.97
65 54.76
66 52.11
67 6.51
68 2.41
74 6.87
75 7.72
76 10.61
77 45.23
78 60.55
79 6.51
80 1.68
85 1.56
86 4.22
87 3.98
88 2.17
89 47.76
90 11.58
91 7.59
92 2.05
94 32.32
95 2.05
105 6.99
106 2.65
108 3.98
134 1.8
135 2.77
136 1.68
152 1.8
165 6.03
166 1.68
181 1.32
182 50.54
183 4.82

>  <PREDICTED SPECTRUM>  (5305) 
14 33
15 79
16 34
17 5
18 18
26 124
27 201
28 206
29 101
30 503
37 206
38 321
39 642
40 257
41 299
42 239
43 341
44 180
45 34
46 352
49 173
50 620
51 947
52 707
53 465
54 268
55 219
56 52
57 26
61 252
62 512
63 791
64 426
65 494
66 427
67 219
68 174
69 173
74 178
75 335
76 363
77 999
78 786
79 313
80 259
81 138
82 77
86 161
87 102
88 76
89 626
90 915
91 593
92 279
93 31
94 279
95 49
96 58
99 0
105 170
106 479
107 183
108 315
119 180
120 7
122 16
136 159
137 57
152 384
153 77
165 122
166 101
182 940
183 215
184 0

$$$$

     RDKit          2D

 13 13  0  0  0  0  0  0  0  0999 V2000
    1.6236    1.3135    0.0000 C   0  0  0  0  0  0  0  0  0  0  0  0
    1.6244   -3.1882    0.0000 C   0  0  0  0  0  0  0  0  0  0  0  0
    0.3248   -2.4373    0.0000 C   0  0  0  0  0  0  0  0  0  0  0  0
    2.9234   -2.4382    0.0000 C   0  0  0  0  0  0  0  0  0  0  0  0
    1.6234   -0.1865    0.0000 C   0  0  0  0  0  0  0  0  0  0  0  0
    0.3244   -0.9365    0.0000 C   0  0  0  0  0  0  0  0  0  0  0  0
    2.9229   -0.9373    0.0000 C   0  0  0  0  0  0  0  0  0  0  0  0
   -0.9748   -0.1867    0.0000 N   0  0  0  0  0  0  0  0  0  0  0  0
    4.2220   -0.1873    0.0000 N   0  0  0  0  0  0  0  0  0  0  0  0
   -2.2737   -0.9369    0.0000 O   0  0  0  0  0  0  0  0  0  0  0  0
   -0.9750    1.3133    0.0000 O   0  0  0  0  0  0  0  0  0  0  0  0
    5.5210   -0.9373    0.0000 O   0  0  0  0  0  0  0  0  0  0  0  0
    4.2220    1.3127    0.0000 O   0  0  0  0  0  0  0  0  0  0  0  0
  3  2  2  0
  4  2  1  0
  5  1  1  0
  6  3  1  0
  6  5  2  0
  7  4  2  0
  7  5  1  0
  8  6  1  0
  9  7  1  0
 10  8  1  0
 11  8  2  0
 12  9  1  0
 13  9  2  0
M  CHG  4   8   1   9   1  10  -1  12  -1
M  END
>  <NAME>  (5306) 
2-METHYL-1,3-DINITROBENZENE

>  <SYNONYMS>  (5306) 
2,6-DINITROTOLUENE

>  <SPECTRUM TYPE>  (5306) 
MS1

>  <INSTRUMENT TYPE>  (5306) 
EI-B

>  <INSTRUMENT>  (5306) 
VARIAN MAT-44

>  <ION MODE>  (5306) 
P

>  <INCHIKEY>  (5306) 
XTRDKALNCIHHNI-UHFFFAOYSA-N

>  <FORMULA>  (5306) 
C7H6N2O4

>  <EXACT MASS>  (5306) 
182.032756672

>  <MW>  (5306) 
182

>  <ID>  (5306) 
JP001614

>  <CONTRIBUTOR>  (5306) 
University of Tokyo Team, {Faculty of Engineering, University of Tokyo

>  <COMMENT>  (5306) 
SMILES=[O-1][N+1](=O)c(c1)c(C)c(cc1)[N+1]([O-1])=O
cas=606-20-2
InChI=InChI=1S/C7H6N2O4/c1-5-6(8(10)11)3-2-4-7(5)9(12)13/h2-4H,1H3
computed SMILES=O=N(=O)C1=CC=CC(=C1C)N(=O)=O
accession=JP001614
date=2016.01.19 (Created 2008.10.21, modified 2011.05.06)
author=KOGA M, UNIV. OF OCCUPATIONAL AND ENVIRONMENTAL HEALTH
license=CC BY-NC-SA
exact mass=182.03276
ionization energy=70 eV
ion type=[M]+*
computed spectral entropy=3.3502374651926887
computed normalized entropy=0.8322844120437176
SPLASH=splash10-0ik9-9100000000-98b3a575488a74c908f0
submitter=submitter = University of Tokyo Team (Faculty of Engineering, University of Tokyo)
MoNA Rating=3.75

>  <NUM PEAKS>  (5306) 
56

>  <MASS SPECTRAL PEAKS>  (5306) 
40 11.27
41 3.42
42 4.7
43 46.01
44 2.14
45 1.27
46 20.39
49 4.64
50 40.26
51 72.16
52 42.47
53 14.29
54 2.49
55 2.03
60 1.74
61 9.93
62 32.82
63 99.99
64 41.89
65 10.51
66 7.03
67 1.56
73 1.74
74 11.09
75 22.42
76 14.11
77 34.04
78 27.71
79 9.41
80 2.38
85 1.62
86 4.12
87 3.89
88 2.96
89 47.64
90 31.66
91 17.43
92 3.89
93 1.27
104 4.35
105 2.49
106 3.07
107 3.89
108 5.34
117 1.1
118 2.44
119 3.13
121 10.05
134 2.49
135 6.62
148 8.25
164 2.2
165 34.28
166 3.25
182 0.87
183 0.11

>  <PREDICTED SPECTRUM>  (5306) 
14 51
15 96
16 48
17 61
18 82
25 19
26 132
27 279
28 251
29 230
30 554
31 154
32 0
36 5
37 180
38 294
39 579
40 217
41 213
42 194
43 289
44 198
45 176
46 190
48 24
49 76
50 490
51 588
52 393
53 274
54 173
55 153
56 66
57 147
61 179
62 384
63 693
64 464
65 536
66 290
67 169
68 105
69 155
70 43
71 83
73 57
74 325
75 389
76 274
77 592
78 438
79 314
80 274
81 175
82 158
83 78
84 8
85 83
86 137
87 211
88 182
89 804
90 564
91 543
92 387
93 176
94 160
95 28
96 38
97 37
101 24
102 6
103 165
104 214
105 325
106 249
107 208
108 220
109 100
118 243
119 373
120 228
121 210
122 133
123 12
135 204
136 62
137 69
138 17
148 69
152 46
165 999
166 238
182 302
183 61

$$$$

     RDKit          2D

 13 13  0  0  0  0  0  0  0  0999 V2000
   -2.8889    2.8302    0.0000 C   0  0  0  0  0  0  0  0  0  0  0  0
   -0.2900    2.8300    0.0000 C   0  0  0  0  0  0  0  0  0  0  0  0
    1.0100    2.0800    0.0000 C   0  0  0  0  0  0  0  0  0  0  0  0
   -0.2900   -0.1700    0.0000 C   0  0  0  0  0  0  0  0  0  0  0  0
   -1.5900    2.0800    0.0000 C   0  0  0  0  0  0  0  0  0  0  0  0
    1.0100    0.5800    0.0000 C   0  0  0  0  0  0  0  0  0  0  0  0
   -1.5900    0.5800    0.0000 C   0  0  0  0  0  0  0  0  0  0  0  0
    2.3089   -0.1702    0.0000 N   0  0  0  0  0  0  0  0  0  0  0  0
   -2.8889   -0.1702    0.0000 N   0  0  0  0  0  0  0  0  0  0  0  0
    3.6081    0.5796    0.0000 O   0  0  0  0  0  0  0  0  0  0  0  0
    2.3087   -1.6702    0.0000 O   0  0  0  0  0  0  0  0  0  0  0  0
   -4.1881    0.5796    0.0000 O   0  0  0  0  0  0  0  0  0  0  0  0
   -2.8887   -1.6702    0.0000 O   0  0  0  0  0  0  0  0  0  0  0  0
  3  2  2  0
  5  1  1  0
  5  2  1  0
  6  3  1  0
  6  4  2  0
  7  4  1  0
  7  5  2  0
  8  6  1  0
  9  7  1  0
 10  8  1  0
 11  8  2  0
 12  9  1  0
 13  9  2  0
M  CHG  4   8   1   9   1  10  -1  12  -1
M  END
>  <NAME>  (5307) 
1-METHYL-2,4-DINITROBENZENE

>  <SYNONYMS>  (5307) 
2,4-DINITROTOLUENE

>  <SPECTRUM TYPE>  (5307) 
MS1

>  <INSTRUMENT TYPE>  (5307) 
EI-B

>  <INSTRUMENT>  (5307) 
VARIAN MAT-44

>  <ION MODE>  (5307) 
P

>  <INCHIKEY>  (5307) 
RMBFBMJGBANMMK-UHFFFAOYSA-N

>  <FORMULA>  (5307) 
C7H6N2O4

>  <EXACT MASS>  (5307) 
182.032756672

>  <MW>  (5307) 
182

>  <ID>  (5307) 
JP001613

>  <CONTRIBUTOR>  (5307) 
University of Tokyo Team, {Faculty of Engineering, University of Tokyo

>  <COMMENT>  (5307) 
SMILES=[O-1][N+1](=O)c(c1)cc([N+1]([O-1])=O)c(C)c1
cas=121-14-2
InChI=InChI=1S/C7H6N2O4/c1-5-2-3-6(8(10)11)4-7(5)9(12)13/h2-4H,1H3
computed SMILES=O=N(=O)C1=CC=C(C(=C1)N(=O)=O)C
accession=JP001613
date=2016.01.19 (Created 2008.10.21, modified 2011.05.06)
author=KOGA M, UNIV. OF OCCUPATIONAL AND ENVIRONMENTAL HEALTH
license=CC BY-NC-SA
exact mass=182.03276
ionization energy=70 eV
ion type=[M]+*
computed spectral entropy=3.2328311392101314
computed normalized entropy=0.810439726374584
SPLASH=splash10-0j4r-9200000000-e01f15265175513e4134
submitter=submitter = University of Tokyo Team (Faculty of Engineering, University of Tokyo)
MoNA Rating=3.75

>  <NUM PEAKS>  (5307) 
54

>  <MASS SPECTRAL PEAKS>  (5307) 
40 11.2
41 5.2
42 1.5
43 6.8
44 17.3
46 5.8
49 2.1
50 25.4
51 48.7
52 37.2
53 10
54 2
55 2.5
61 6.4
62 23.4
63 99.99
64 32.9
65 10.4
66 7.4
67 1.4
68 1.3
69 2.3
73 1.1
74 6.1
75 6.4
76 4.9
77 21.4
78 26.7
79 9.7
80 5.4
81 1.1
85 1.4
86 3.4
87 3.3
88 2.5
89 91
90 35.3
91 10.6
92 3.5
94 1.2
105 4.4
106 5.6
107 5.5
108 2.3
118 9.7
119 24.7
120 2.4
148 2.3
149 1.5
164 1.5
165 77.9
166 7.3
182 8.9
183 0.87

>  <PREDICTED SPECTRUM>  (5307) 
14 27
15 53
16 26
17 43
18 55
25 0
26 88
27 190
28 165
29 103
30 292
31 95
37 84
38 171
39 395
40 146
41 85
42 61
43 237
44 87
45 95
46 135
49 50
50 312
51 463
52 303
53 244
54 115
55 62
57 94
61 91
62 244
63 475
64 273
65 401
66 212
67 73
69 74
71 41
73 19
74 181
75 238
76 183
77 605
78 377
79 194
80 145
81 65
82 120
83 43
85 99
86 117
87 139
88 97
89 571
90 405
91 446
92 216
93 112
94 79
96 14
101 101
102 71
103 57
104 127
105 211
106 153
107 189
108 133
109 113
110 25
117 0
118 247
119 352
120 150
121 126
122 25
134 69
135 182
136 166
137 159
138 43
148 13
152 32
165 999
166 270
182 256
183 78

$$$$

     RDKit          2D

 22 27  0  0  0  0  0  0  0  0999 V2000
   -5.7591   -1.1923    0.0000 C   0  0  0  0  0  0  0  0  0  0  0  0
   -5.1490   -2.5626    0.0000 C   0  0  0  0  0  0  0  0  0  0  0  0
    4.2243   -1.3818    0.0000 C   0  0  0  0  0  0  0  0  0  0  0  0
    4.2243    0.1182    0.0000 C   0  0  0  0  0  0  0  0  0  0  0  0
    2.9252   -2.1318    0.0000 C   0  0  0  0  0  0  0  0  0  0  0  0
   -4.8774    0.0213    0.0000 C   0  0  0  0  0  0  0  0  0  0  0  0
   -3.6572   -2.7194    0.0000 C   0  0  0  0  0  0  0  0  0  0  0  0
    2.9252    2.3682    0.0000 C   0  0  0  0  0  0  0  0  0  0  0  0
    1.6262    3.1182    0.0000 C   0  0  0  0  0  0  0  0  0  0  0  0
   -0.9719    3.1182    0.0000 C   0  0  0  0  0  0  0  0  0  0  0  0
   -2.2709    2.3682    0.0000 C   0  0  0  0  0  0  0  0  0  0  0  0
   -0.1691   -2.3527    0.0000 C   0  0  0  0  0  0  0  0  0  0  0  0
    2.9252    0.8682    0.0000 C   0  0  0  0  0  0  0  0  0  0  0  0
    0.3271    2.3682    0.0000 C   0  0  0  0  0  0  0  0  0  0  0  0
    1.6262   -1.3818    0.0000 C   0  0  0  0  0  0  0  0  0  0  0  0
   -3.3857   -0.1355    0.0000 C   0  0  0  0  0  0  0  0  0  0  0  0
   -2.7756   -1.5058    0.0000 C   0  0  0  0  0  0  0  0  0  0  0  0
   -2.2709    0.8682    0.0000 C   0  0  0  0  0  0  0  0  0  0  0  0
   -1.2838   -1.3490    0.0000 C   0  0  0  0  0  0  0  0  0  0  0  0
    1.6262    0.1182    0.0000 C   0  0  0  0  0  0  0  0  0  0  0  0
    0.3271    0.8682    0.0000 C   0  0  0  0  0  0  0  0  0  0  0  0
   -0.9719    0.1182    0.0000 C   0  0  0  0  0  0  0  0  0  0  0  0
  2  1  2  0
  4  3  2  0
  5  3  1  0
  6  1  1  0
  7  2  1  0
  9  8  2  0
 11 10  1  0
 13  4  1  0
 13  8  1  0
 14  9  1  0
 14 10  2  0
 15  5  2  0
 15 12  1  0
 16  6  2  0
 17  7  2  0
 17 16  1  0
 18 11  2  0
 18 16  1  0
 19 12  2  0
 19 17  1  0
 20 13  2  0
 20 15  1  0
 21 14  1  0
 21 20  1  0
 22 18  1  0
 22 19  1  0
 22 21  2  0
M  END
>  <NAME>  (5308) 
INDENO(1,2,3-CD)PYRENE

>  <SYNONYMS>  (5308) 


>  <SPECTRUM TYPE>  (5308) 
MS1

>  <INSTRUMENT TYPE>  (5308) 
EI-B

>  <INSTRUMENT>  (5308) 
VARIAN MAT-44

>  <ION MODE>  (5308) 
P

>  <INCHIKEY>  (5308) 
SXQBHARYMNFBPS-UHFFFAOYSA-N

>  <FORMULA>  (5308) 
C22H12

>  <EXACT MASS>  (5308) 
276.093900384

>  <MW>  (5308) 
276

>  <ID>  (5308) 
JP001609

>  <CONTRIBUTOR>  (5308) 
University of Tokyo Team, {Faculty of Engineering, University of Tokyo

>  <COMMENT>  (5308) 
SMILES=c(c6)cc(c(c6)5)c(c4)c(c15)c(c3c4)c(c2cc3)c(ccc2)c1
cas=193-39-5
InChI=InChI=1S/C22H12/c1-2-7-17-16(6-1)18-11-10-14-9-8-13-4-3-5-15-12-19(17)22(18)21(14)20(13)15/h1-12H
computed SMILES=C1=CC=C2C(=C1)C3=CC=C4C=CC5=CC=CC=6C=C2C3=C4C56
accession=JP001609
date=2016.01.19 (Created 2008.10.21, modified 2011.05.06)
author=KOGA M, UNIV. OF OCCUPATIONAL AND ENVIRONMENTAL HEALTH
license=CC BY-NC-SA
exact mass=276.0939
ionization energy=70 eV
ion type=[M]+*
computed spectral entropy=3.052692120579059
computed normalized entropy=0.776405773229541
SPLASH=splash10-004r-3980000000-4d0e178850db13903033
submitter=submitter = University of Tokyo Team (Faculty of Engineering, University of Tokyo)
MoNA Rating=3.75

>  <NUM PEAKS>  (5308) 
51

>  <MASS SPECTRAL PEAKS>  (5308) 
45 2.02
54 1.44
55 10.4
56 3.17
57 10.11
59 1.73
60 2.89
63 1.15
67 2.6
68 1.44
69 7.8
70 1.73
71 3.46
73 2.6
81 2.89
82 1.15
83 3.46
84 1.44
85 1.73
87 1.15
91 2.6
92 4.91
95 1.15
97 1.44
98 1.73
99 2.02
111 4.62
112 6.35
113 5.2
123 6.35
124 17.05
125 19.65
126 2.31
135 5.2
136 23.98
137 49.13
138 60.4
139 4.04
224 1.15
246 1.15
248 2.89
249 1.44
250 2.31
252 3.46
272 5.49
273 5.2
274 23.12
275 16.18
276 99.99
277 25.14
278 6.35

>  <PREDICTED SPECTRUM>  (5308) 
27 28
39 29
40 14
41 9
44 0
63 23
74 57
75 8
86 11
87 46
98 55
99 48
100 75
110 47
111 59
112 130
113 94
114 43
120 7
121 40
122 60
123 57
124 29
125 23
126 73
134 20
135 25
136 135
137 140
138 54
139 87
148 15
149 46
160 47
161 32
198 15
200 1
211 32
212 54
222 13
223 33
224 101
225 48
237 30
246 49
247 73
248 81
249 93
250 81
251 18
270 75
271 125
272 271
273 310
274 598
275 321
276 999
277 488
278 158
279 3

$$$$

     RDKit          2D

 20 24  0  0  0  0  0  0  0  0999 V2000
   -4.5924    4.6369    0.0000 C   0  0  0  0  0  0  0  0  0  0  0  0
   -3.8318    5.9543    0.0000 C   0  0  0  0  0  0  0  0  0  0  0  0
    2.2626   -1.4448    0.0000 C   0  0  0  0  0  0  0  0  0  0  0  0
    4.8626    3.0585    0.0000 C   0  0  0  0  0  0  0  0  0  0  0  0
   -3.8104    3.3322    0.0000 C   0  0  0  0  0  0  0  0  0  0  0  0
   -2.3109    5.9295    0.0000 C   0  0  0  0  0  0  0  0  0  0  0  0
    3.5621   -0.6940    0.0000 C   0  0  0  0  0  0  0  0  0  0  0  0
    4.8621    1.5577    0.0000 C   0  0  0  0  0  0  0  0  0  0  0  0
    0.9636   -0.6948    0.0000 C   0  0  0  0  0  0  0  0  0  0  0  0
    3.5636    3.8085    0.0000 C   0  0  0  0  0  0  0  0  0  0  0  0
   -1.7542    2.1659    0.0000 C   0  0  0  0  0  0  0  0  0  0  0  0
   -0.2727    4.7319    0.0000 C   0  0  0  0  0  0  0  0  0  0  0  0
    3.5626    0.8069    0.0000 C   0  0  0  0  0  0  0  0  0  0  0  0
   -2.3079    3.4100    0.0000 C   0  0  0  0  0  0  0  0  0  0  0  0
   -1.6270    4.5893    0.0000 C   0  0  0  0  0  0  0  0  0  0  0  0
    0.9641    0.8060    0.0000 C   0  0  0  0  0  0  0  0  0  0  0  0
    2.2641    3.0577    0.0000 C   0  0  0  0  0  0  0  0  0  0  0  0
   -0.3350    1.5560    0.0000 C   0  0  0  0  0  0  0  0  0  0  0  0
    0.9650    3.8077    0.0000 C   0  0  0  0  0  0  0  0  0  0  0  0
    2.2636    1.5569    0.0000 C   0  0  0  0  0  0  0  0  0  0  0  0
  2  1  2  0
  5  1  1  0
  6  2  1  0
  7  3  2  0
  8  4  2  0
  9  3  1  0
 10  4  1  0
 13  7  1  0
 13  8  1  0
 14  5  2  0
 14 11  1  0
 15  6  2  0
 15 12  1  0
 15 14  1  0
 16  9  2  0
 17 10  2  0
 18 11  2  0
 18 16  1  0
 19 12  2  0
 19 17  1  0
 19 18  1  0
 20 13  2  0
 20 16  1  0
 20 17  1  0
M  END
>  <NAME>  (5309) 
BENZO(K)FLUORANTHENE

>  <SYNONYMS>  (5309) 
8,9-BENZFLUORANTHENE

>  <SPECTRUM TYPE>  (5309) 
MS1

>  <INSTRUMENT TYPE>  (5309) 
EI-B

>  <INSTRUMENT>  (5309) 
VARIAN MAT-44

>  <ION MODE>  (5309) 
P

>  <INCHIKEY>  (5309) 
HAXBIWFMXWRORI-UHFFFAOYSA-N

>  <FORMULA>  (5309) 
C20H12

>  <EXACT MASS>  (5309) 
252.093900384

>  <MW>  (5309) 
252

>  <ID>  (5309) 
JP001608

>  <CONTRIBUTOR>  (5309) 
University of Tokyo Team, {Faculty of Engineering, University of Tokyo

>  <COMMENT>  (5309) 
SMILES=c(c5)cc(c1)c(c5)cc(c32)c1c(c4)c(c(cc4)ccc3)2
cas=207-08-9
InChI=InChI=1S/C20H12/c1-2-6-15-12-19-17-10-4-8-13-7-3-9-16(20(13)17)18(19)11-14(15)5-1/h1-12H
computed SMILES=C=1C=CC=2C=C3C4=CC=CC5=CC=CC(C3=CC2C1)=C54
accession=JP001608
date=2016.01.19 (Created 2008.10.21, modified 2011.05.06)
author=KOGA M, UNIV. OF OCCUPATIONAL AND ENVIRONMENTAL HEALTH
license=CC BY-NC-SA
exact mass=252.0939
ionization energy=70 eV
ion type=[M]+*
computed spectral entropy=2.5575440465533674
computed normalized entropy=0.744773901082959
SPLASH=splash10-0udi-1690000000-bd7ea40b5b2181c94a73
submitter=submitter = University of Tokyo Team (Faculty of Engineering, University of Tokyo)
MoNA Rating=3.75

>  <NUM PEAKS>  (5309) 
31

>  <MASS SPECTRAL PEAKS>  (5309) 
55 3.28
57 3.13
63 1.19
69 4.17
74 1.19
75 1.19
81 1.34
83 1.49
84 2.23
87 1.64
99 2.23
100 4.17
101 1.79
111 3.88
112 14.77
113 17.61
123 2.08
124 13.13
125 26.26
126 35.97
223 1.04
224 3.88
225 1.94
226 2.08
248 5.07
249 4.32
250 22.83
251 10.74
252 99.99
253 21.04
254 1.94

>  <PREDICTED SPECTRUM>  (5309) 
26 15
27 45
28 3
36 0
37 0
38 27
39 90
40 37
41 20
43 14
44 6
50 53
51 38
52 0
57 15
62 42
63 102
74 90
75 88
76 53
77 32
85 36
86 46
87 102
88 5
97 9
98 89
99 92
100 141
101 64
105 7
110 103
111 111
112 199
113 210
114 26
115 29
119 31
121 11
122 82
123 77
124 96
125 85
126 166
135 22
136 63
137 55
138 51
139 47
150 18
161 98
172 19
174 77
185 16
197 40
198 72
199 96
200 89
211 53
212 4
213 64
220 14
221 31
222 141
223 190
224 236
225 152
226 155
237 52
246 153
247 187
248 311
249 248
250 721
251 269
252 999
253 499
254 178
255 13

$$$$

     RDKit          2D

 20 24  0  0  0  0  0  0  0  0999 V2000
   -5.1300   -1.3100    0.0000 C   0  0  0  0  0  0  0  0  0  0  0  0
   -5.1300    0.1900    0.0000 C   0  0  0  0  0  0  0  0  0  0  0  0
    5.2600    0.1900    0.0000 C   0  0  0  0  0  0  0  0  0  0  0  0
    5.2600   -1.3100    0.0000 C   0  0  0  0  0  0  0  0  0  0  0  0
    0.0700    3.1900    0.0000 C   0  0  0  0  0  0  0  0  0  0  0  0
   -3.8300   -2.0600    0.0000 C   0  0  0  0  0  0  0  0  0  0  0  0
   -3.8300    0.9400    0.0000 C   0  0  0  0  0  0  0  0  0  0  0  0
    3.9600    0.9400    0.0000 C   0  0  0  0  0  0  0  0  0  0  0  0
    3.9600   -2.0600    0.0000 C   0  0  0  0  0  0  0  0  0  0  0  0
   -1.2300    2.4400    0.0000 C   0  0  0  0  0  0  0  0  0  0  0  0
    1.3600    2.4400    0.0000 C   0  0  0  0  0  0  0  0  0  0  0  0
   -1.2300   -2.0600    0.0000 C   0  0  0  0  0  0  0  0  0  0  0  0
   -2.5300   -1.3100    0.0000 C   0  0  0  0  0  0  0  0  0  0  0  0
   -2.5300    0.1900    0.0000 C   0  0  0  0  0  0  0  0  0  0  0  0
    2.6600    0.1900    0.0000 C   0  0  0  0  0  0  0  0  0  0  0  0
    2.6600   -1.3100    0.0000 C   0  0  0  0  0  0  0  0  0  0  0  0
   -1.2300    0.9400    0.0000 C   0  0  0  0  0  0  0  0  0  0  0  0
    1.3600    0.9400    0.0000 C   0  0  0  0  0  0  0  0  0  0  0  0
    0.0700   -1.3100    0.0000 C   0  0  0  0  0  0  0  0  0  0  0  0
    0.0700    0.1900    0.0000 C   0  0  0  0  0  0  0  0  0  0  0  0
  2  1  2  0
  4  3  2  0
  6  1  1  0
  7  2  1  0
  8  3  1  0
  9  4  1  0
 10  5  1  0
 11  5  2  0
 13  6  2  0
 13 12  1  0
 14  7  2  0
 14 13  1  0
 15  8  2  0
 16  9  2  0
 16 15  1  0
 17 10  2  0
 17 14  1  0
 18 11  1  0
 18 15  1  0
 19 12  2  0
 19 16  1  0
 20 17  1  0
 20 18  2  0
 20 19  1  0
M  END
>  <NAME>  (5310) 
BENZO(B)FLUORANTHENE

>  <SYNONYMS>  (5310) 
2,3-BENZFLUORANTHENE

>  <SPECTRUM TYPE>  (5310) 
MS1

>  <INSTRUMENT TYPE>  (5310) 
EI-B

>  <INSTRUMENT>  (5310) 
VARIAN MAT-44

>  <ION MODE>  (5310) 
P

>  <INCHIKEY>  (5310) 
FTOVXSOBNPWTSH-UHFFFAOYSA-N

>  <FORMULA>  (5310) 
C20H12

>  <EXACT MASS>  (5310) 
252.093900384

>  <MW>  (5310) 
252

>  <ID>  (5310) 
JP001607

>  <CONTRIBUTOR>  (5310) 
University of Tokyo Team, {Faculty of Engineering, University of Tokyo

>  <COMMENT>  (5310) 
SMILES=c(c5)cc(c1)c(c5)c(c4)c(c(cc4)2)c1c(c3)c(ccc3)2
cas=205-99-2
InChI=InChI=1S/C20H12/c1-2-7-14-13(6-1)12-19-16-9-4-3-8-15(16)18-11-5-10-17(14)20(18)19/h1-12H
computed SMILES=C=1C=CC2=C(C1)C=C3C4=CC=CC=C4C5=CC=CC2=C53
accession=JP001607
date=2016.01.19 (Created 2008.10.21, modified 2011.05.06)
author=KOGA M, UNIV. OF OCCUPATIONAL AND ENVIRONMENTAL HEALTH
license=CC BY-NC-SA
exact mass=252.0939
ionization energy=70 eV
ion type=[M]+*
computed spectral entropy=2.8764108778087425
computed normalized entropy=0.7512876187481131
SPLASH=splash10-0ufr-2890000000-a03f6fadc54abc18c617
submitter=submitter = University of Tokyo Team (Faculty of Engineering, University of Tokyo)
MoNA Rating=3.75

>  <NUM PEAKS>  (5310) 
46

>  <MASS SPECTRAL PEAKS>  (5310) 
45 1.72
51 1.23
55 4.19
56 1.48
57 4.19
58 1.97
60 1.23
63 1.48
67 1.23
68 1.23
69 6.17
71 1.23
73 1.23
74 1.48
75 1.72
81 2.22
83 2.71
84 2.71
87 2.46
88 1.23
99 3.45
100 6.66
101 2.22
111 5.67
112 20.74
113 26.91
114 1.23
123 3.2
124 18.02
125 33.58
126 41.72
127 1.23
200 1.72
202 1.72
222 1.23
223 1.23
224 4.69
225 2.71
226 2.71
248 5.43
249 4.19
250 23.45
251 8.64
252 99.99
253 20.49
254 1.72

>  <PREDICTED SPECTRUM>  (5310) 
27 10
36 2
39 51
40 11
50 21
51 17
57 13
62 6
63 27
74 64
75 53
76 21
86 9
87 80
94 11
98 79
99 91
100 107
110 31
111 97
112 153
113 109
121 1
122 83
123 83
124 84
125 125
126 119
136 83
137 47
138 14
139 71
149 43
150 72
151 16
161 26
174 98
175 56
176 6
197 5
198 65
199 61
200 82
201 28
211 26
213 3
221 5
222 97
223 164
224 190
225 173
226 133
227 3
230 11
237 16
246 48
247 84
248 252
249 233
250 649
251 253
252 999
253 490
254 132

$$$$

     RDKit          2D

 20 24  0  0  0  0  0  0  0  0999 V2000
   -4.8500   -1.6500    0.0000 C   0  0  0  0  0  0  0  0  0  0  0  0
   -4.8500   -0.1500    0.0000 C   0  0  0  0  0  0  0  0  0  0  0  0
    4.3000    2.1000    0.0000 C   0  0  0  0  0  0  0  0  0  0  0  0
   -3.5500   -2.4000    0.0000 C   0  0  0  0  0  0  0  0  0  0  0  0
    4.3000    0.6000    0.0000 C   0  0  0  0  0  0  0  0  0  0  0  0
    3.0000    2.8500    0.0000 C   0  0  0  0  0  0  0  0  0  0  0  0
   -3.5500    0.6000    0.0000 C   0  0  0  0  0  0  0  0  0  0  0  0
    3.0000   -1.6500    0.0000 C   0  0  0  0  0  0  0  0  0  0  0  0
    1.7000   -2.4000    0.0000 C   0  0  0  0  0  0  0  0  0  0  0  0
    0.4000    2.8500    0.0000 C   0  0  0  0  0  0  0  0  0  0  0  0
   -0.9000    2.1000    0.0000 C   0  0  0  0  0  0  0  0  0  0  0  0
   -0.9000   -2.4000    0.0000 C   0  0  0  0  0  0  0  0  0  0  0  0
    3.0000   -0.1500    0.0000 C   0  0  0  0  0  0  0  0  0  0  0  0
    1.7000    2.1000    0.0000 C   0  0  0  0  0  0  0  0  0  0  0  0
   -2.2000   -1.6500    0.0000 C   0  0  0  0  0  0  0  0  0  0  0  0
    0.4000   -1.6500    0.0000 C   0  0  0  0  0  0  0  0  0  0  0  0
   -2.2000   -0.1500    0.0000 C   0  0  0  0  0  0  0  0  0  0  0  0
   -0.9000    0.6000    0.0000 C   0  0  0  0  0  0  0  0  0  0  0  0
    1.7000    0.6000    0.0000 C   0  0  0  0  0  0  0  0  0  0  0  0
    0.4000   -0.1500    0.0000 C   0  0  0  0  0  0  0  0  0  0  0  0
  2  1  2  0
  4  1  1  0
  5  3  1  0
  6  3  2  0
  7  2  1  0
  9  8  2  0
 11 10  1  0
 13  5  2  0
 13  8  1  0
 14  6  1  0
 14 10  2  0
 15  4  2  0
 15 12  1  0
 16  9  1  0
 16 12  2  0
 17  7  2  0
 17 15  1  0
 18 11  2  0
 18 17  1  0
 19 13  1  0
 19 14  1  0
 20 16  1  0
 20 18  1  0
 20 19  2  0
M  END
>  <NAME>  (5311) 
BENZO(A)PYRENE

>  <SYNONYMS>  (5311) 


>  <SPECTRUM TYPE>  (5311) 
MS1

>  <INSTRUMENT TYPE>  (5311) 
EI-B

>  <INSTRUMENT>  (5311) 
VARIAN MAT-44

>  <ION MODE>  (5311) 
P

>  <INCHIKEY>  (5311) 
FMMWHPNWAFZXNH-UHFFFAOYSA-N

>  <FORMULA>  (5311) 
C20H12

>  <EXACT MASS>  (5311) 
252.093900384

>  <MW>  (5311) 
252

>  <ID>  (5311) 
JP001606

>  <CONTRIBUTOR>  (5311) 
University of Tokyo Team, {Faculty of Engineering, University of Tokyo

>  <COMMENT>  (5311) 
SMILES=c(c5)cc(c4)c(c5)c(c1)c(c34)c(c2cc3)c(ccc2)c1
cas=50-32-8
InChI=InChI=1S/C20H12/c1-2-7-17-15(4-1)12-16-9-8-13-5-3-6-14-10-11-18(17)20(16)19(13)14/h1-12H
computed SMILES=C=1C=CC2=C(C1)C=C3C=CC4=CC=CC=5C=CC2=C3C45
accession=JP001606
date=2016.01.19 (Created 2008.10.21, modified 2011.05.06)
author=KOGA M, UNIV. OF OCCUPATIONAL AND ENVIRONMENTAL HEALTH
license=CC BY-NC-SA
exact mass=252.0939
ionization energy=70 eV
ion type=[M]+*
computed spectral entropy=2.6086429546963417
computed normalized entropy=0.752695250838069
SPLASH=splash10-0udi-0590000000-6a1e4169eaee2450b6aa
submitter=submitter = University of Tokyo Team (Faculty of Engineering, University of Tokyo)
MoNA Rating=3.75

>  <NUM PEAKS>  (5311) 
32

>  <MASS SPECTRAL PEAKS>  (5311) 
63 1.31
74 1.31
84 1.83
87 1.57
99 2.62
100 3.67
101 1.04
111 4.46
112 15.74
113 25.45
123 2.62
124 17.58
125 27.03
126 30.7
127 1.83
198 1.31
200 1.83
222 1.83
223 1.57
224 5.24
225 3.41
226 3.67
227 1.31
228 1.04
247 1.57
248 5.77
249 4.98
250 24.14
251 13.38
252 99.99
253 24.4
254 3.41

>  <PREDICTED SPECTRUM>  (5311) 
26 19
27 44
36 13
38 21
39 86
40 30
41 24
44 6
50 50
51 49
52 0
62 27
63 65
73 12
74 72
75 55
76 43
77 49
78 23
81 2
86 47
87 74
92 1
94 38
98 71
99 57
100 79
105 10
106 8
107 2
110 53
111 89
112 110
113 98
115 6
118 19
119 25
120 55
121 74
122 118
123 49
124 41
125 39
126 39
136 10
139 22
148 4
149 20
150 56
160 18
161 46
162 20
174 73
175 46
186 14
198 131
199 84
200 120
201 20
211 104
212 10
213 45
221 24
222 76
223 115
224 145
225 166
226 173
227 54
230 13
246 49
247 92
248 207
249 243
250 527
251 314
252 999
253 484
254 171
255 23

$$$$

     RDKit          2D

 15 17  0  0  0  0  0  0  0  0999 V2000
   -4.7289   -2.3002    0.0000 C   0  0  0  0  0  0  0  0  0  0  0  0
    3.0600    2.2000    0.0000 C   0  0  0  0  0  0  0  0  0  0  0  0
    1.7600    2.9500    0.0000 C   0  0  0  0  0  0  0  0  0  0  0  0
    3.0600    0.7000    0.0000 C   0  0  0  0  0  0  0  0  0  0  0  0
    0.4600    2.2000    0.0000 C   0  0  0  0  0  0  0  0  0  0  0  0
   -3.4300   -0.0500    0.0000 C   0  0  0  0  0  0  0  0  0  0  0  0
    1.7600   -1.5500    0.0000 C   0  0  0  0  0  0  0  0  0  0  0  0
    0.4600   -2.3000    0.0000 C   0  0  0  0  0  0  0  0  0  0  0  0
   -2.1300    0.7000    0.0000 C   0  0  0  0  0  0  0  0  0  0  0  0
   -2.1300   -2.3000    0.0000 C   0  0  0  0  0  0  0  0  0  0  0  0
   -3.4300   -1.5500    0.0000 C   0  0  0  0  0  0  0  0  0  0  0  0
    1.7600   -0.0500    0.0000 C   0  0  0  0  0  0  0  0  0  0  0  0
   -0.8300   -1.5500    0.0000 C   0  0  0  0  0  0  0  0  0  0  0  0
    0.4600    0.7000    0.0000 C   0  0  0  0  0  0  0  0  0  0  0  0
   -0.8300   -0.0500    0.0000 C   0  0  0  0  0  0  0  0  0  0  0  0
  3  2  2  0
  4  2  1  0
  5  3  1  0
  8  7  2  0
  9  6  1  0
 11  1  1  0
 11  6  2  0
 11 10  1  0
 12  4  2  0
 12  7  1  0
 13  8  1  0
 13 10  2  0
 14  5  2  0
 14 12  1  0
 15  9  2  0
 15 13  1  0
 15 14  1  0
M  END
>  <NAME>  (5312) 
2-METHYLPHENANTHRENE

>  <SYNONYMS>  (5312) 


>  <SPECTRUM TYPE>  (5312) 
MS1

>  <INSTRUMENT TYPE>  (5312) 
EI-B

>  <INSTRUMENT>  (5312) 
VARIAN MAT-44

>  <ION MODE>  (5312) 
P

>  <INCHIKEY>  (5312) 
KANLOADZXMMCQA-UHFFFAOYSA-N

>  <FORMULA>  (5312) 
C15H12

>  <EXACT MASS>  (5312) 
192.093900384

>  <MW>  (5312) 
192

>  <ID>  (5312) 
JP001600

>  <CONTRIBUTOR>  (5312) 
University of Tokyo Team, {Faculty of Engineering, University of Tokyo

>  <COMMENT>  (5312) 
SMILES=Cc(c3)cc(c1)c(c3)c(c2)c(ccc2)c1
cas=2531-84-2
InChI=InChI=1S/C15H12/c1-11-6-9-15-13(10-11)8-7-12-4-2-3-5-14(12)15/h2-10H,1H3
computed SMILES=C=1C=CC2=C(C1)C=CC=3C=C(C=CC32)C
accession=JP001600
date=2016.01.19 (Created 2008.10.21, modified 2011.05.06)
author=KOGA M, UNIV. OF OCCUPATIONAL AND ENVIRONMENTAL HEALTH
license=CC BY-NC-SA
exact mass=192.0939
ionization energy=70 eV
ion type=[M]+*
computed spectral entropy=2.7040969852046506
computed normalized entropy=0.7433767521833899
SPLASH=splash10-0006-4900000000-27ee11fe5bb5a29ccea2
submitter=submitter = University of Tokyo Team (Faculty of Engineering, University of Tokyo)
MoNA Rating=3.75

>  <NUM PEAKS>  (5312) 
38

>  <MASS SPECTRAL PEAKS>  (5312) 
43 1.16
50 1.51
51 2.21
62 1.86
63 5.84
69 2.92
70 2.8
74 1.98
75 2.8
76 1.4
81 5.49
82 18.69
83 6.42
86 1.05
87 1.98
88 2.33
89 1.16
93 2.68
94 16
95 21.02
96 21.37
139 1.16
150 1.28
151 1.16
152 1.4
163 2.68
164 1.75
165 8.41
166 1.16
176 2.21
187 3.27
188 3.38
189 26.86
190 15.42
191 52.45
192 99.99
193 17.64
194 1.28

>  <PREDICTED SPECTRUM>  (5312) 
26 9
27 65
28 13
29 22
36 10
37 6
38 62
39 155
40 49
41 17
43 69
44 43
50 136
51 171
52 101
53 28
54 13
55 42
56 16
61 34
62 115
63 165
64 70
65 71
66 0
67 0
68 19
69 32
70 13
74 119
75 163
76 175
77 120
78 65
79 37
80 13
81 100
82 86
83 40
84 7
86 82
87 140
88 204
89 167
90 72
92 15
93 2
94 157
95 149
96 54
97 6
98 44
99 41
100 126
101 204
102 149
103 25
106 72
107 87
108 134
109 57
110 65
111 55
112 30
113 114
114 55
115 155
118 26
119 53
120 96
121 96
122 46
123 9
126 102
135 11
137 97
138 100
139 97
140 8
149 42
150 104
151 121
152 91
162 37
163 112
164 101
165 294
166 85
170 41
174 59
175 101
176 237
177 139
178 178
179 34
186 17
187 148
188 119
189 438
190 265
191 566
192 999
193 441
194 106

$$$$

     RDKit          2D

 12 13  0  0  0  0  0  0  0  0999 V2000
    3.8989    1.5002    0.0000 C   0  0  0  0  0  0  0  0  0  0  0  0
   -3.8989   -1.5002    0.0000 C   0  0  0  0  0  0  0  0  0  0  0  0
    2.6000   -0.7500    0.0000 C   0  0  0  0  0  0  0  0  0  0  0  0
   -2.6000    0.7500    0.0000 C   0  0  0  0  0  0  0  0  0  0  0  0
    1.3000   -1.5000    0.0000 C   0  0  0  0  0  0  0  0  0  0  0  0
   -1.3000    1.5000    0.0000 C   0  0  0  0  0  0  0  0  0  0  0  0
    1.3000    1.5000    0.0000 C   0  0  0  0  0  0  0  0  0  0  0  0
   -1.3000   -1.5000    0.0000 C   0  0  0  0  0  0  0  0  0  0  0  0
    2.6000    0.7500    0.0000 C   0  0  0  0  0  0  0  0  0  0  0  0
   -2.6000   -0.7500    0.0000 C   0  0  0  0  0  0  0  0  0  0  0  0
    0.0000    0.7500    0.0000 C   0  0  0  0  0  0  0  0  0  0  0  0
    0.0000   -0.7500    0.0000 C   0  0  0  0  0  0  0  0  0  0  0  0
  5  3  2  0
  6  4  1  0
  9  1  1  0
  9  3  1  0
  9  7  2  0
 10  2  1  0
 10  4  2  0
 10  8  1  0
 11  6  2  0
 11  7  1  0
 12  5  1  0
 12  8  2  0
 12 11  1  0
M  END
>  <NAME>  (5313) 
2,6-DIMETHYLNAPHTHALENE

>  <SYNONYMS>  (5313) 


>  <SPECTRUM TYPE>  (5313) 
MS1

>  <INSTRUMENT TYPE>  (5313) 
EI-B

>  <INSTRUMENT>  (5313) 
VARIAN MAT-44

>  <ION MODE>  (5313) 
P

>  <INCHIKEY>  (5313) 
YGYNBBAUIYTWBF-UHFFFAOYSA-N

>  <FORMULA>  (5313) 
C12H12

>  <EXACT MASS>  (5313) 
156.093900384

>  <MW>  (5313) 
156

>  <ID>  (5313) 
JP001593

>  <CONTRIBUTOR>  (5313) 
University of Tokyo Team, {Faculty of Engineering, University of Tokyo

>  <COMMENT>  (5313) 
SMILES=Cc(c2)cc(c1)c(c2)cc(C)c1
cas=581-42-0
InChI=InChI=1S/C12H12/c1-9-3-5-12-8-10(2)4-6-11(12)7-9/h3-8H,1-2H3
computed SMILES=C=1C=C(C=C2C=CC(=CC12)C)C
accession=JP001593
date=2016.01.19 (Created 2008.10.21, modified 2011.05.06)
author=KOGA M, UNIV. OF OCCUPATIONAL AND ENVIRONMENTAL HEALTH
license=CC BY-NC-SA
exact mass=156.0939
ionization energy=70 eV
ion type=[M]+*
computed spectral entropy=2.9853420349913553
computed normalized entropy=0.809281537151349
SPLASH=splash10-0a6r-6900000000-bd5a0ebc7638e9444780
submitter=submitter = University of Tokyo Team (Faculty of Engineering, University of Tokyo)
MoNA Rating=3.75

>  <NUM PEAKS>  (5313) 
40

>  <MASS SPECTRAL PEAKS>  (5313) 
43 1.04
50 7
51 26.67
52 2.98
53 1.49
57 2.08
58 2.98
62 5.06
63 25.03
64 23.69
65 4.76
69 1.63
70 3.72
71 2.53
74 3.87
75 7.45
76 33.08
77 37.55
78 13.85
86 1.19
87 1.78
89 3.42
102 1.78
115 13.85
116 1.34
126 1.63
127 5.81
128 10.13
129 4.91
139 6.7
140 3.42
141 64.67
142 7.74
151 2.98
152 9.68
153 10.73
154 5.36
155 35.91
156 99.99
157 13.11

>  <PREDICTED SPECTRUM>  (5313) 
15 31
26 20
27 79
28 32
29 9
36 1
37 25
38 89
39 232
40 66
41 62
44 4
49 15
50 206
51 267
52 142
53 91
54 29
57 44
58 7
61 109
62 185
63 275
64 138
65 173
66 17
67 8
68 29
71 39
74 200
75 276
76 291
77 250
78 112
79 35
81 17
82 153
83 116
84 62
85 27
86 120
87 195
88 212
89 298
90 108
91 57
94 106
95 118
96 59
97 26
98 117
99 83
100 114
101 177
102 235
103 98
108 21
110 18
111 21
112 0
113 86
114 72
115 362
116 131
122 5
126 183
127 268
128 300
129 236
130 27
137 8
138 25
139 262
140 171
141 713
142 288
143 40
150 155
151 212
152 263
153 283
154 218
155 627
156 999
157 360
158 74

$$$$

     RDKit          2D

 12 13  0  0  0  0  0  0  0  0999 V2000
    3.8989   -1.5002    0.0000 C   0  0  0  0  0  0  0  0  0  0  0  0
    3.8989    1.5002    0.0000 C   0  0  0  0  0  0  0  0  0  0  0  0
   -2.6000   -0.7500    0.0000 C   0  0  0  0  0  0  0  0  0  0  0  0
   -2.6000    0.7500    0.0000 C   0  0  0  0  0  0  0  0  0  0  0  0
   -1.3000   -1.5000    0.0000 C   0  0  0  0  0  0  0  0  0  0  0  0
   -1.3000    1.5000    0.0000 C   0  0  0  0  0  0  0  0  0  0  0  0
    1.3000   -1.5000    0.0000 C   0  0  0  0  0  0  0  0  0  0  0  0
    1.3000    1.5000    0.0000 C   0  0  0  0  0  0  0  0  0  0  0  0
    2.6000   -0.7500    0.0000 C   0  0  0  0  0  0  0  0  0  0  0  0
    2.6000    0.7500    0.0000 C   0  0  0  0  0  0  0  0  0  0  0  0
    0.0000   -0.7500    0.0000 C   0  0  0  0  0  0  0  0  0  0  0  0
    0.0000    0.7500    0.0000 C   0  0  0  0  0  0  0  0  0  0  0  0
  4  3  2  0
  5  3  1  0
  6  4  1  0
  9  1  1  0
  9  7  2  0
 10  2  1  0
 10  8  2  0
 10  9  1  0
 11  5  2  0
 11  7  1  0
 12  6  2  0
 12  8  1  0
 12 11  1  0
M  END
>  <NAME>  (5314) 
2,3-DIMETHYLNAPHTHALENE

>  <SYNONYMS>  (5314) 


>  <SPECTRUM TYPE>  (5314) 
MS1

>  <INSTRUMENT TYPE>  (5314) 
EI-B

>  <INSTRUMENT>  (5314) 
VARIAN MAT-44

>  <ION MODE>  (5314) 
P

>  <INCHIKEY>  (5314) 
WWGUMAYGTYQSGA-UHFFFAOYSA-N

>  <FORMULA>  (5314) 
C12H12

>  <EXACT MASS>  (5314) 
156.093900384

>  <MW>  (5314) 
156

>  <ID>  (5314) 
JP001592

>  <CONTRIBUTOR>  (5314) 
University of Tokyo Team, {Faculty of Engineering, University of Tokyo

>  <COMMENT>  (5314) 
SMILES=Cc(c1)c(C)cc(c2)c(ccc2)1
cas=581-40-8
InChI=InChI=1S/C12H12/c1-9-7-11-5-3-4-6-12(11)8-10(9)2/h3-8H,1-2H3
computed SMILES=C=1C=CC=2C=C(C(=CC2C1)C)C
accession=JP001592
date=2016.01.19 (Created 2008.10.21, modified 2011.05.06)
author=KOGA M, UNIV. OF OCCUPATIONAL AND ENVIRONMENTAL HEALTH
license=CC BY-NC-SA
exact mass=156.0939
ionization energy=70 eV
ion type=[M]+*
computed spectral entropy=3.2141223591562373
computed normalized entropy=0.8348049715623037
SPLASH=splash10-0a6u-6900000000-7eab7a960bf2588f7c6f
submitter=submitter = University of Tokyo Team (Faculty of Engineering, University of Tokyo)
MoNA Rating=3.75

>  <NUM PEAKS>  (5314) 
47

>  <MASS SPECTRAL PEAKS>  (5314) 
41 1.91
50 13.78
51 34.2
52 5.41
53 2.61
57 2.61
58 4.01
61 1.91
62 10.64
63 33.68
64 18.84
65 7.15
69 2.26
70 5.93
71 2.44
74 8.37
75 11.86
76 31.23
77 24.08
78 13.78
86 2.79
87 4.18
88 1.57
89 6.45
91 1.22
98 1.04
101 1.04
102 3.49
113 1.74
114 1.74
115 30.36
116 3.14
126 2.61
127 8.55
128 16.23
129 6.98
139 7.85
140 5.41
141 71.43
142 12.73
151 3.14
152 10.47
153 10.64
154 5.23
155 26.52
156 99.99
157 13.78

>  <PREDICTED SPECTRUM>  (5314) 
14 8
15 50
26 47
27 133
28 87
29 13
32 0
36 12
37 36
38 100
39 216
40 77
41 75
42 23
43 44
44 31
49 37
50 225
51 284
52 154
53 89
54 35
56 23
57 80
58 47
61 130
62 200
63 298
64 199
65 179
66 32
67 8
68 40
69 42
70 69
71 60
73 19
74 226
75 281
76 266
77 247
78 134
79 69
80 7
81 38
82 146
83 112
84 100
85 82
86 138
87 166
88 147
89 239
90 97
91 113
92 33
94 51
95 56
96 61
97 49
98 134
99 87
100 102
101 169
102 196
103 105
108 4
110 35
111 50
112 13
113 126
114 141
115 407
116 169
126 189
127 317
128 387
129 268
130 113
137 65
138 32
139 331
140 200
141 774
142 317
143 107
150 146
151 218
152 306
153 320
154 269
155 610
156 999
157 355
158 117

$$$$

     RDKit          2D

 12 13  0  0  0  0  0  0  0  0999 V2000
    3.8989    1.5002    0.0000 C   0  0  0  0  0  0  0  0  0  0  0  0
   -1.3000    3.0000    0.0000 C   0  0  0  0  0  0  0  0  0  0  0  0
   -2.6000   -0.7500    0.0000 C   0  0  0  0  0  0  0  0  0  0  0  0
   -2.6000    0.7500    0.0000 C   0  0  0  0  0  0  0  0  0  0  0  0
   -1.3000   -1.5000    0.0000 C   0  0  0  0  0  0  0  0  0  0  0  0
    2.6000   -0.7500    0.0000 C   0  0  0  0  0  0  0  0  0  0  0  0
    1.3000   -1.5000    0.0000 C   0  0  0  0  0  0  0  0  0  0  0  0
    1.3000    1.5000    0.0000 C   0  0  0  0  0  0  0  0  0  0  0  0
    2.6000    0.7500    0.0000 C   0  0  0  0  0  0  0  0  0  0  0  0
   -1.3000    1.5000    0.0000 C   0  0  0  0  0  0  0  0  0  0  0  0
    0.0000   -0.7500    0.0000 C   0  0  0  0  0  0  0  0  0  0  0  0
    0.0000    0.7500    0.0000 C   0  0  0  0  0  0  0  0  0  0  0  0
  4  3  2  0
  5  3  1  0
  7  6  2  0
  9  1  1  0
  9  6  1  0
  9  8  2  0
 10  2  1  0
 10  4  1  0
 11  5  2  0
 11  7  1  0
 12  8  1  0
 12 10  2  0
 12 11  1  0
M  END
>  <NAME>  (5315) 
1,7-DIMETHYLNAPHTHALENE

>  <SYNONYMS>  (5315) 


>  <SPECTRUM TYPE>  (5315) 
MS1

>  <INSTRUMENT TYPE>  (5315) 
EI-B

>  <INSTRUMENT>  (5315) 
VARIAN MAT-44

>  <ION MODE>  (5315) 
P

>  <INCHIKEY>  (5315) 
SPUWFVKLHHEKGV-UHFFFAOYSA-N

>  <FORMULA>  (5315) 
C12H12

>  <EXACT MASS>  (5315) 
156.093900384

>  <MW>  (5315) 
156

>  <ID>  (5315) 
JP001591

>  <CONTRIBUTOR>  (5315) 
University of Tokyo Team, {Faculty of Engineering, University of Tokyo

>  <COMMENT>  (5315) 
SMILES=Cc(c1)cc(c(C)2)c(ccc2)c1
cas=575-37-1
InChI=InChI=1S/C12H12/c1-9-6-7-11-5-3-4-10(2)12(11)8-9/h3-8H,1-2H3
computed SMILES=C1=CC2=CC=C(C=C2C(=C1)C)C
accession=JP001591
date=2016.01.19 (Created 2008.10.21, modified 2011.05.06)
author=KOGA M, UNIV. OF OCCUPATIONAL AND ENVIRONMENTAL HEALTH
license=CC BY-NC-SA
exact mass=156.0939
ionization energy=70 eV
ion type=[M]+*
computed spectral entropy=3.1938309632954804
computed normalized entropy=0.8006627567353491
SPLASH=splash10-0bvo-7900000000-74d647e492c61f373c1f
submitter=submitter = University of Tokyo Team (Faculty of Engineering, University of Tokyo)
MoNA Rating=3.75

>  <NUM PEAKS>  (5315) 
54

>  <MASS SPECTRAL PEAKS>  (5315) 
45 3.53
50 7.57
51 24.74
52 4.04
53 3.53
55 4.54
56 2.52
59 4.04
60 1.01
61 1.51
62 4.54
63 29.29
64 21.21
65 5.55
67 1.01
69 4.54
70 7.57
71 12.12
74 4.04
75 8.08
76 38.88
77 35.85
78 14.64
79 1.01
83 1.01
85 2.02
86 1.51
87 2.52
88 1.01
89 5.05
91 1.51
101 1.51
102 2.02
103 1.01
113 1.51
114 1.01
115 24.74
116 2.52
126 2.52
127 6.06
128 10.6
129 5.05
139 5.55
140 1.51
141 99.99
142 11.61
150 1.01
151 3.03
152 11.11
153 12.12
154 4.04
155 20.2
156 79.79
157 10.1

>  <PREDICTED SPECTRUM>  (5315) 
15 29
26 36
27 83
28 37
36 3
37 15
38 84
39 196
40 56
41 46
44 7
49 15
50 207
51 276
52 126
53 78
54 12
57 61
58 59
61 121
62 192
63 277
64 154
65 152
68 7
70 12
71 73
74 217
75 246
76 267
77 243
78 127
79 40
82 134
83 86
84 92
85 50
86 118
87 175
88 155
89 238
90 69
94 30
95 44
96 11
98 97
99 56
100 51
101 114
102 207
103 60
111 13
113 102
114 52
115 387
116 185
126 191
127 306
128 373
129 325
130 75
137 24
139 274
140 169
141 773
142 313
143 88
150 123
151 191
152 248
153 302
154 235
155 678
156 999
157 338
158 82

$$$$

     RDKit          2D

 12 13  0  0  0  0  0  0  0  0999 V2000
    3.8989    1.5002    0.0000 C   0  0  0  0  0  0  0  0  0  0  0  0
    1.3000    3.0000    0.0000 C   0  0  0  0  0  0  0  0  0  0  0  0
   -2.6000   -0.7500    0.0000 C   0  0  0  0  0  0  0  0  0  0  0  0
   -2.6000    0.7500    0.0000 C   0  0  0  0  0  0  0  0  0  0  0  0
   -1.3000   -1.5000    0.0000 C   0  0  0  0  0  0  0  0  0  0  0  0
   -1.3000    1.5000    0.0000 C   0  0  0  0  0  0  0  0  0  0  0  0
    2.6000   -0.7500    0.0000 C   0  0  0  0  0  0  0  0  0  0  0  0
    1.3000   -1.5000    0.0000 C   0  0  0  0  0  0  0  0  0  0  0  0
    2.6000    0.7500    0.0000 C   0  0  0  0  0  0  0  0  0  0  0  0
    1.3000    1.5000    0.0000 C   0  0  0  0  0  0  0  0  0  0  0  0
    0.0000   -0.7500    0.0000 C   0  0  0  0  0  0  0  0  0  0  0  0
    0.0000    0.7500    0.0000 C   0  0  0  0  0  0  0  0  0  0  0  0
  4  3  2  0
  5  3  1  0
  6  4  1  0
  8  7  2  0
  9  1  1  0
  9  7  1  0
 10  2  1  0
 10  9  2  0
 11  5  2  0
 11  8  1  0
 12  6  2  0
 12 10  1  0
 12 11  1  0
M  END
>  <NAME>  (5316) 
1,2-DIMETHYLNAPHTHALENE

>  <SYNONYMS>  (5316) 


>  <SPECTRUM TYPE>  (5316) 
MS1

>  <INSTRUMENT TYPE>  (5316) 
EI-B

>  <INSTRUMENT>  (5316) 
VARIAN MAT-44

>  <ION MODE>  (5316) 
P

>  <INCHIKEY>  (5316) 
QNLZIZAQLLYXTC-UHFFFAOYSA-N

>  <FORMULA>  (5316) 
C12H12

>  <EXACT MASS>  (5316) 
156.093900384

>  <MW>  (5316) 
156

>  <ID>  (5316) 
JP001590

>  <CONTRIBUTOR>  (5316) 
University of Tokyo Team, {Faculty of Engineering, University of Tokyo

>  <COMMENT>  (5316) 
SMILES=Cc(c1)c(C)c(c2)c(ccc2)c1
cas=573-98-8
InChI=InChI=1S/C12H12/c1-9-7-8-11-5-3-4-6-12(11)10(9)2/h3-8H,1-2H3
computed SMILES=C=1C=CC2=C(C1)C=CC(=C2C)C
accession=JP001590
date=2016.01.19 (Created 2008.10.21, modified 2011.05.06)
author=KOGA M, UNIV. OF OCCUPATIONAL AND ENVIRONMENTAL HEALTH
license=CC BY-NC-SA
exact mass=156.0939
ionization energy=70 eV
ion type=[M]+*
computed spectral entropy=3.2924782940115076
computed normalized entropy=0.8416306063238927
SPLASH=splash10-0pdl-7900000000-a3e1e81ae1e81ac63c5d
submitter=submitter = University of Tokyo Team (Faculty of Engineering, University of Tokyo)
MoNA Rating=3.75

>  <NUM PEAKS>  (5316) 
50

>  <MASS SPECTRAL PEAKS>  (5316) 
41 2.64
49 1.32
50 22.6
51 43.56
52 8.58
53 3.79
57 3.46
58 4.95
61 3.46
62 14.19
63 38.44
64 16.5
65 7.59
69 2.31
70 6.43
71 5.11
74 11.88
75 14.19
76 26.73
77 27.22
78 12.21
86 3.79
87 5.61
88 2.31
89 7.92
91 1.81
98 1.98
99 1.15
101 1.98
102 4.95
113 2.31
114 2.97
115 33.82
116 3.96
126 3.63
127 9.73
128 18.48
129 7.09
139 7.59
140 7.75
141 99.99
142 14.19
143 1.15
151 3.63
152 10.23
153 10.72
154 6.43
155 23.43
156 89.43
157 13.2

>  <PREDICTED SPECTRUM>  (5316) 
15 40
26 51
27 151
28 95
29 36
36 7
37 32
38 120
39 261
40 89
41 86
42 24
44 29
49 20
50 249
51 333
52 154
53 119
54 36
56 33
57 84
58 62
61 120
62 228
63 340
64 202
65 189
66 17
67 29
68 53
69 45
70 91
71 138
73 12
74 262
75 286
76 331
77 281
78 155
79 88
80 1
81 39
82 179
83 110
84 54
85 62
86 127
87 162
88 158
89 249
90 68
91 51
94 63
95 90
96 24
98 106
99 67
100 64
101 167
102 260
103 127
113 91
114 6
115 481
116 177
122 20
126 204
127 395
128 524
129 381
130 97
137 6
139 300
140 127
141 999
142 435
143 123
150 110
151 266
152 223
153 390
154 297
155 665
156 963
157 321
158 80

$$$$

     RDKit          2D

 12 14  0  0  0  0  0  0  0  0999 V2000
   -2.6000   -1.2500    0.0000 C   0  0  0  0  0  0  0  0  0  0  0  0
    2.6000   -1.2500    0.0000 C   0  0  0  0  0  0  0  0  0  0  0  0
   -1.3000   -2.0000    0.0000 C   0  0  0  0  0  0  0  0  0  0  0  0
    1.3000   -2.0000    0.0000 C   0  0  0  0  0  0  0  0  0  0  0  0
   -2.6000    0.2500    0.0000 C   0  0  0  0  0  0  0  0  0  0  0  0
    2.6000    0.2500    0.0000 C   0  0  0  0  0  0  0  0  0  0  0  0
   -1.3000    2.5000    0.0000 C   0  0  0  0  0  0  0  0  0  0  0  0
    1.3000    2.5000    0.0000 C   0  0  0  0  0  0  0  0  0  0  0  0
    0.0000   -1.2500    0.0000 C   0  0  0  0  0  0  0  0  0  0  0  0
   -1.3000    1.0000    0.0000 C   0  0  0  0  0  0  0  0  0  0  0  0
    1.3000    1.0000    0.0000 C   0  0  0  0  0  0  0  0  0  0  0  0
    0.0000    0.2500    0.0000 C   0  0  0  0  0  0  0  0  0  0  0  0
  3  1  2  0
  4  2  1  0
  5  1  1  0
  6  2  2  0
  8  7  2  0
  9  3  1  0
  9  4  2  0
 10  5  2  0
 10  7  1  0
 11  6  1  0
 11  8  1  0
 12  9  1  0
 12 10  1  0
 12 11  2  0
M  END
>  <NAME>  (5317) 
ACENAPHTHYLENE

>  <SYNONYMS>  (5317) 


>  <SPECTRUM TYPE>  (5317) 
MS1

>  <INSTRUMENT TYPE>  (5317) 
EI-B

>  <INSTRUMENT>  (5317) 
VARIAN MAT-44

>  <ION MODE>  (5317) 
P

>  <INCHIKEY>  (5317) 
HXGDTGSAIMULJN-UHFFFAOYSA-N

>  <FORMULA>  (5317) 
C12H8

>  <EXACT MASS>  (5317) 
152.062600256

>  <MW>  (5317) 
152

>  <ID>  (5317) 
JP001587

>  <CONTRIBUTOR>  (5317) 
University of Tokyo Team, {Faculty of Engineering, University of Tokyo

>  <COMMENT>  (5317) 
SMILES=c(c3)cc(C=1)c(c32)c(ccc2)C1
cas=208-96-8
InChI=InChI=1S/C12H8/c1-3-9-4-2-6-11-8-7-10(5-1)12(9)11/h1-8H
computed SMILES=C=1C=C2C=CC=C3C=CC(C1)=C23
accession=JP001587
date=2016.01.19 (Created 2008.10.21, modified 2011.05.06)
author=KOGA M, UNIV. OF OCCUPATIONAL AND ENVIRONMENTAL HEALTH
license=CC BY-NC-SA
exact mass=152.0626
ionization energy=70 eV
ion type=[M]+*
computed spectral entropy=2.4587393958783976
computed normalized entropy=0.7160013271648267
SPLASH=splash10-0udi-3900000000-0917b523bb70decb286a
submitter=submitter = University of Tokyo Team (Faculty of Engineering, University of Tokyo)
MoNA Rating=3.75

>  <NUM PEAKS>  (5317) 
31

>  <MASS SPECTRAL PEAKS>  (5317) 
43 2.62
49 1.56
50 4.89
51 3.51
61 2.93
62 9.73
63 10.64
73 2.66
74 9.5
75 22.61
76 20.91
77 1.84
85 1.14
86 2.3
87 1.94
97 1.24
98 3.24
99 2.44
100 1.45
101 1.3
102 1.24
124 1.14
125 3.37
126 3.65
141 1.2
149 10.62
150 25.71
151 78.43
152 99.99
153 17.24
154 3.44

>  <PREDICTED SPECTRUM>  (5317) 
26 6
27 15
39 58
41 3
49 0
50 68
51 46
62 74
63 168
74 158
75 200
76 142
81 60
82 27
85 17
86 94
87 127
88 140
89 84
94 3
95 4
96 63
98 115
99 75
100 126
101 171
102 103
110 65
111 52
112 11
113 110
122 42
123 56
124 71
125 128
126 195
127 40
137 0
149 162
150 417
151 604
152 999
153 381
154 132

$$$$

     RDKit          2D

 10 11  0  0  0  0  0  0  0  0999 V2000
   -2.7100   -0.0000    0.0000 C   0  0  0  0  0  0  0  0  0  0  0  0
   -2.0600    1.3500    0.0000 C   0  0  0  0  0  0  0  0  0  0  0  0
   -2.0600   -1.3500    0.0000 C   0  0  0  0  0  0  0  0  0  0  0  0
    2.8800   -0.0000    0.0000 C   0  0  0  0  0  0  0  0  0  0  0  0
   -0.6000    1.6900    0.0000 C   0  0  0  0  0  0  0  0  0  0  0  0
   -0.6000   -1.6900    0.0000 C   0  0  0  0  0  0  0  0  0  0  0  0
    2.0000    1.2100    0.0000 C   0  0  0  0  0  0  0  0  0  0  0  0
    2.0000   -1.2100    0.0000 C   0  0  0  0  0  0  0  0  0  0  0  0
    0.5700    0.7500    0.0000 C   0  0  0  0  0  0  0  0  0  0  0  0
    0.5700   -0.7500    0.0000 C   0  0  0  0  0  0  0  0  0  0  0  0
  2  1  2  0
  3  1  1  0
  5  2  1  0
  6  3  2  0
  7  4  2  0
  8  4  1  0
  9  5  2  0
  9  7  1  0
 10  6  1  0
 10  8  2  0
 10  9  1  0
M  END
>  <NAME>  (5318) 
AZULENE

>  <SYNONYMS>  (5318) 


>  <SPECTRUM TYPE>  (5318) 
MS1

>  <INSTRUMENT TYPE>  (5318) 
EI-B

>  <INSTRUMENT>  (5318) 
VARIAN MAT-44

>  <ION MODE>  (5318) 
P

>  <INCHIKEY>  (5318) 
CUFNKYGDVFVPHO-UHFFFAOYSA-N

>  <FORMULA>  (5318) 
C10H8

>  <EXACT MASS>  (5318) 
128.062600256

>  <MW>  (5318) 
128

>  <ID>  (5318) 
JP001584

>  <CONTRIBUTOR>  (5318) 
University of Tokyo Team, {Faculty of Engineering, University of Tokyo

>  <COMMENT>  (5318) 
SMILES=C(=C2)C=CC(=C1)C(=C2)C=C1
cas=275-51-4
InChI=InChI=1S/C10H8/c1-2-5-9-7-4-8-10(9)6-3-1/h1-8H
computed SMILES=C=1C=CC2=CC=CC2=CC1
accession=JP001584
date=2016.01.19 (Created 2008.10.21, modified 2011.05.06)
author=KOGA M, UNIV. OF OCCUPATIONAL AND ENVIRONMENTAL HEALTH
license=CC BY-NC-SA
exact mass=128.0626
ionization energy=70 eV
ion type=[M]+*
computed spectral entropy=2.5936039789069727
computed normalized entropy=0.7783447777551336
SPLASH=splash10-004i-5900000000-9c12163018de963589b1
submitter=submitter = University of Tokyo Team (Faculty of Engineering, University of Tokyo)
MoNA Rating=3.75

>  <NUM PEAKS>  (5318) 
28

>  <MASS SPECTRAL PEAKS>  (5318) 
43 2.36
49 2.96
50 12.93
51 18.92
52 2.76
61 2.6
62 7.04
63 13.66
64 9.33
73 2.26
74 7.49
75 8.04
76 8.63
77 8.01
78 5.35
86 1.66
87 1.78
98 1.74
99 1.1
100 1.71
101 8.45
102 12.75
103 1.34
125 2.64
126 13.63
127 41.56
128 99.99
129 12.1

>  <PREDICTED SPECTRUM>  (5318) 
26 37
27 24
28 0
38 22
39 163
40 8
41 53
44 13
49 54
50 167
51 215
52 56
53 4
55 57
56 14
57 23
61 30
62 147
63 227
64 36
65 29
69 15
73 14
74 210
75 222
76 268
77 117
78 35
81 46
82 49
83 79
84 82
85 68
86 88
87 120
88 98
89 183
96 42
97 45
98 151
99 66
100 79
101 121
102 286
103 17
111 31
113 48
115 216
124 57
126 338
127 446
128 999
129 383
130 103

$$$$

     RDKit          2D

 11 11  0  0  0  0  0  0  0  0999 V2000
   -3.5376    0.5451    0.0000 C   0  0  0  0  0  0  0  0  0  0  0  0
   -2.2386    2.7951    0.0000 C   0  0  0  0  0  0  0  0  0  0  0  0
    2.9576   -1.7049    0.0000 C   0  0  0  0  0  0  0  0  0  0  0  0
    0.3590   -1.7058    0.0000 C   0  0  0  0  0  0  0  0  0  0  0  0
   -0.9400   -0.9558    0.0000 C   0  0  0  0  0  0  0  0  0  0  0  0
    0.3600    1.2959    0.0000 C   0  0  0  0  0  0  0  0  0  0  0  0
   -2.2386    1.2951    0.0000 C   0  0  0  0  0  0  0  0  0  0  0  0
    1.6585   -0.9549    0.0000 C   0  0  0  0  0  0  0  0  0  0  0  0
   -0.9395    0.5451    0.0000 C   0  0  0  0  0  0  0  0  0  0  0  0
    1.6590    0.5459    0.0000 C   0  0  0  0  0  0  0  0  0  0  0  0
    2.9582    1.2957    0.0000 O   0  0  0  0  0  0  0  0  0  0  0  0
  5  4  1  0
  7  1  1  0
  7  2  1  0
  8  3  1  0
  8  4  1  0
  9  5  1  0
  9  6  1  0
  9  7  1  0
 10  6  1  0
 10  8  1  0
 11 10  1  0
M  END
>  <NAME>  (5319) 
CARVOMENTHOL

>  <SYNONYMS>  (5319) 
2-METHYL-5-(1-METHYLETHYL)CYCLOHEXANE-1-OL

>  <SPECTRUM TYPE>  (5319) 
MS1

>  <INSTRUMENT TYPE>  (5319) 
EI-B

>  <INSTRUMENT>  (5319) 
HITACHI RMU-6M

>  <ION MODE>  (5319) 
P

>  <INCHIKEY>  (5319) 
ULJXKUJMXIVDOY-UHFFFAOYSA-N

>  <FORMULA>  (5319) 
C10H20O

>  <EXACT MASS>  (5319) 
156.15141526

>  <MW>  (5319) 
156

>  <ID>  (5319) 
JP001568

>  <CONTRIBUTOR>  (5319) 
University of Tokyo Team, {Faculty of Engineering, University of Tokyo

>  <COMMENT>  (5319) 
SMILES=CC(C)C(C1)CC(O)C(C)C1
InChI=InChI=1S/C10H20O/c1-7(2)9-5-4-8(3)10(11)6-9/h7-11H,4-6H2,1-3H3
computed SMILES=OC1CC(CCC1C)C(C)C
accession=JP001568
date=2016.01.19 (Created 2008.10.21, modified 2011.05.06)
author=YAMAMOTO M, DEP. CHEMISTRY, FAC. SCIENCE, NARA WOMEN'S UNIV.
license=CC BY-NC-SA
exact mass=156.15142
ionization energy=70 eV
ion type=[M]+*
computed spectral entropy=3.46584267697879
computed normalized entropy=0.8688534816186924
SPLASH=splash10-0535-9200000000-c18d1eac69a7e6095cf3
submitter=submitter = University of Tokyo Team (Faculty of Engineering, University of Tokyo)
MoNA Rating=3.75

>  <NUM PEAKS>  (5319) 
54

>  <MASS SPECTRAL PEAKS>  (5319) 
27 18.18
28 4.79
29 15.95
31 4.07
39 15.75
40 3.61
41 40.7
42 7.81
43 24.95
44 6.71
45 8.86
51 2.29
53 9.45
54 3.87
55 47.36
56 8.6
57 47.36
58 8.92
59 2.62
65 2.29
67 19.69
68 11.68
69 25.8
70 9.98
71 13.78
72 2.62
77 2.62
79 4.66
80 7.09
81 28.23
82 27.18
83 21.53
84 6.17
85 1.83
93 5.58
94 7.74
95 99.99
96 23.24
97 3.93
99 3.61
100 2.82
109 9.19
110 6.56
111 1.64
112 4.46
113 43.46
114 4.99
121 2.95
123 16.08
124 1.96
137 1.96
138 41.69
139 4.26
156 3.54

>  <PREDICTED SPECTRUM>  (5319) 
18 11
19 10
26 41
27 309
28 133
29 342
30 61
31 110
32 7
38 13
39 341
40 115
41 918
42 318
43 628
44 253
45 192
50 84
51 175
52 98
53 299
54 205
55 999
56 598
57 681
58 257
59 97
63 24
65 169
66 108
67 541
68 241
69 874
70 390
71 397
72 130
73 60
77 203
78 49
79 215
80 132
81 707
82 520
83 798
84 450
85 246
86 80
87 90
91 67
93 110
94 176
95 734
96 433
97 296
98 76
99 105
100 108
101 13
109 292
110 112
111 106
112 233
113 336
114 98
123 502
124 216
125 36
127 9
128 55
138 491
139 217
141 190
156 306
157 42

$$$$

     RDKit          2D

 23 22  0  0  1  0  0  0  0  0999 V2000
   -6.1704    9.9375    0.0000 C   0  0  0  0  0  0  0  0  0  0  0  0
   -2.2733    6.1875    0.0000 C   0  0  0  0  0  0  0  0  0  0  0  0
    5.5209    7.6875    0.0000 C   0  0  0  0  0  0  0  0  0  0  0  0
  -13.9647    8.4375    0.0000 C   0  0  0  0  0  0  0  0  0  0  0  0
    1.6238    8.4375    0.0000 C   0  0  0  0  0  0  0  0  0  0  0  0
  -10.0675    7.6875    0.0000 C   0  0  0  0  0  0  0  0  0  0  0  0
   -6.1704    8.4375    0.0000 C   0  0  0  0  0  0  0  0  0  0  0  0
   -2.2733    7.6875    0.0000 C   0  0  0  0  0  0  0  0  0  0  0  0
    4.2219    8.4375    0.0000 C   0  0  0  0  0  0  0  0  0  0  0  0
    0.3248    7.6875    0.0000 C   0  0  0  0  0  0  0  0  0  0  0  0
  -11.3666    8.4375    0.0000 C   0  0  0  0  0  0  0  0  0  0  0  0
   -7.4695    7.6875    0.0000 C   0  0  0  0  0  0  0  0  0  0  0  0
   -3.5724    8.4375    0.0000 C   0  0  0  0  0  0  0  0  0  0  0  0
    2.9228    7.6875    0.0000 N   0  0  0  0  0  0  0  0  0  0  0  0
   -8.7685    8.4375    0.0000 N   0  0  0  0  0  0  0  0  0  0  0  0
   -0.9743    8.4375    0.0000 N   0  0  0  0  0  0  0  0  0  0  0  0
   -4.8714    7.6875    0.0000 N   0  0  0  0  0  0  0  0  0  0  0  0
    4.2219    9.9375    0.0000 O   0  0  0  0  0  0  0  0  0  0  0  0
    0.3248    6.1875    0.0000 O   0  0  0  0  0  0  0  0  0  0  0  0
  -11.3666    9.9375    0.0000 O   0  0  0  0  0  0  0  0  0  0  0  0
   -7.4695    6.1875    0.0000 O   0  0  0  0  0  0  0  0  0  0  0  0
   -3.5724    9.9375    0.0000 O   0  0  0  0  0  0  0  0  0  0  0  0
  -12.6656    7.6875    0.0000 O   0  0  0  0  0  0  0  0  0  0  0  0
  7  1  1  6
  8  2  1  6
  9  3  1  0
 10  5  1  0
 11  6  1  0
 12  7  1  0
 13  8  1  0
 14  5  1  0
 14  9  2  3
 15  6  1  0
 15 12  2  3
 16  8  1  0
 16 10  2  3
 17  7  1  0
 17 13  2  3
 18  9  1  0
 19 10  1  0
 20 11  2  0
 21 12  1  0
 22 13  1  0
 23  4  1  0
 23 11  1  0
M  END
>  <NAME>  (5320) 
N-ACETYL-GLYCYL-ALANYL-ALANYL-GLYCINE METHYL ESTER

>  <SYNONYMS>  (5320) 


>  <SPECTRUM TYPE>  (5320) 
MS1

>  <INSTRUMENT TYPE>  (5320) 
EI-B

>  <INSTRUMENT>  (5320) 
HITACHI RMU-6M

>  <ION MODE>  (5320) 
P

>  <INCHIKEY>  (5320) 
QXDJNCUBXZBMIK-JGVFFNPUSA-N

>  <FORMULA>  (5320) 
C13H22N4O6

>  <EXACT MASS>  (5320) 
330.153934424

>  <MW>  (5320) 
330

>  <ID>  (5320) 
JP001567

>  <CONTRIBUTOR>  (5320) 
University of Tokyo Team, {Faculty of Engineering, University of Tokyo

>  <COMMENT>  (5320) 
SMILES=COC(=O)CNC(=O)C([H])(C)NC(=O)C([H])(C)NC(=O)CNC(C)=O
InChI=InChI=1S/C13H22N4O6/c1-7(12(21)15-6-11(20)23-4)17-13(22)8(2)16-10(19)5-14-9(3)18/h7-8H,5-6H2,1-4H3,(H,14,18)(H,15,21)(H,16,19)(H,17,22)/t7-,8+/m0/s1
computed SMILES=O=C(OC)CN=C(O)C(N=C(O)C(N=C(O)CN=C(O)C)C)C
accession=JP001567
date=2016.01.19 (Created 2008.10.21, modified 2011.05.06)
author=YAMAMOTO M, DEP. CHEMISTRY, FAC. SCIENCE, NARA WOMEN'S UNIV.
license=CC BY-NC-SA
exact mass=330.15393
ionization energy=70 eV
ion type=[M]+*
computed spectral entropy=3.4013881249614784
computed normalized entropy=0.7953363742465931
SPLASH=splash10-0006-9310000000-c2e688162c0e6018d43f
submitter=submitter = University of Tokyo Team (Faculty of Engineering, University of Tokyo)
MoNA Rating=3.75

>  <NUM PEAKS>  (5320) 
72

>  <MASS SPECTRAL PEAKS>  (5320) 
14 2.39
15 11.83
26 5.56
27 6.21
28 18.27
29 4.41
30 66.08
31 3.69
38 1.01
39 1.86
41 6.34
42 11.54
43 30.39
44 99.99
45 9.67
54 1.9
55 11.6
56 8.79
58 2.55
59 2.09
60 2.25
67 1.11
69 2.48
70 7.97
71 5.42
72 21.05
73 8.59
74 1.27
81 1.08
83 1.8
84 1.67
85 7.03
86 2.03
87 1.14
88 3.37
89 1.08
90 9.61
91 1.21
97 1.31
98 1.41
99 8.01
100 21.8
101 2.97
111 1.01
113 2.78
114 1.44
115 1.63
116 1.8
117 1.31
120 1.11
127 5.69
128 1.31
129 1.54
141 4.64
142 2.03
143 14.77
144 16.14
145 7.35
149 1.31
155 1.47
169 1.6
171 49.02
172 5.23
187 1.31
214 57.81
215 11.47
216 1.96
242 5.69
258 1.44
299 2.16
330 3.69
331 1.08

>  <PREDICTED SPECTRUM>  (5320) 
14 21
15 62
16 45
17 67
18 96
25 41
26 90
27 263
28 311
29 336
30 239
31 217
32 89
33 67
34 18
35 23
36 86
37 1
38 57
39 272
40 204
41 710
42 999
43 856
44 846
45 755
46 218
47 71
49 34
50 100
51 150
52 107
53 200
54 426
55 570
56 635
57 397
58 608
59 441
60 532
61 165
62 31
63 70
64 39
65 73
66 46
67 125
68 305
69 445
70 378
71 480
72 340
73 476
74 267
75 58
76 50
77 122
78 95
79 150
80 186
81 132
82 229
83 227
84 195
85 129
86 160
87 198
88 45
89 33
94 122
95 58
96 166
97 226
98 495
99 310
100 74
101 143
102 185
103 115
104 78
105 30
106 87
107 35
108 70
109 42
110 104
111 204
112 140
113 49
114 198
115 94
116 71
118 10
119 21
121 72
122 140
123 173
124 183
125 180
126 77
127 171
128 87
129 195
130 232
131 133
132 2
134 69
136 73
137 3
138 159
139 67
140 200
141 104
142 276
144 78
147 28
148 115
150 70
151 71
152 174
153 54
154 26
156 39
157 73
158 192
165 34
166 75
167 203
168 73
171 74
172 22
180 72
181 194
182 108
183 75
185 44
186 96
193 24
194 45
195 170
196 89
197 39
198 46
199 8
200 58
212 114
213 30
215 22
222 8
225 36
226 11
230 53
238 27
239 30
286 0
312 76

$$$$

     RDKit          2D

 12 12  0  0  0  0  0  0  0  0999 V2000
   -3.1900    1.5500    0.0000 C   0  0  0  0  0  0  0  0  0  0  0  0
   -2.4400    0.2500    0.0000 C   0  0  0  0  0  0  0  0  0  0  0  0
   -2.4400    2.8500    0.0000 C   0  0  0  0  0  0  0  0  0  0  0  0
   -0.9400    0.2500    0.0000 C   0  0  0  0  0  0  0  0  0  0  0  0
   -0.9400    2.8500    0.0000 C   0  0  0  0  0  0  0  0  0  0  0  0
   -0.1900   -1.0500    0.0000 C   0  0  0  0  0  0  0  0  0  0  0  0
   -0.1900    4.1500    0.0000 C   0  0  0  0  0  0  0  0  0  0  0  0
    1.3100   -1.0500    0.0000 C   0  0  0  0  0  0  0  0  0  0  0  0
    1.3100    4.1500    0.0000 C   0  0  0  0  0  0  0  0  0  0  0  0
    2.0600    0.2500    0.0000 C   0  0  0  0  0  0  0  0  0  0  0  0
    2.0600    2.8500    0.0000 C   0  0  0  0  0  0  0  0  0  0  0  0
    1.3100    1.5500    0.0000 C   0  0  0  0  0  0  0  0  0  0  0  0
  2  1  1  0
  3  1  1  0
  4  2  1  0
  5  3  1  0
  6  4  1  0
  7  5  1  0
  8  6  1  0
  9  7  1  0
 10  8  1  0
 11  9  1  0
 12 10  1  0
 12 11  1  0
M  END
>  <NAME>  (5321) 
CYCLODODECANE

>  <SYNONYMS>  (5321) 


>  <SPECTRUM TYPE>  (5321) 
MS1

>  <INSTRUMENT TYPE>  (5321) 
EI-B

>  <INSTRUMENT>  (5321) 
HITACHI RMU-6M

>  <ION MODE>  (5321) 
P

>  <INCHIKEY>  (5321) 
DDTBPAQBQHZRDW-UHFFFAOYSA-N

>  <FORMULA>  (5321) 
C12H24

>  <EXACT MASS>  (5321) 
168.187800768

>  <MW>  (5321) 
168

>  <ID>  (5321) 
JP001561

>  <CONTRIBUTOR>  (5321) 
University of Tokyo Team, {Faculty of Engineering, University of Tokyo

>  <COMMENT>  (5321) 
SMILES=C(C1)CCCCCCCCCC1
InChI=InChI=1S/C12H24/c1-2-4-6-8-10-12-11-9-7-5-3-1/h1-12H2
computed SMILES=C1CCCCCCCCCCC1
accession=JP001561
date=2016.01.19 (Created 2008.10.21, modified 2011.05.06)
author=YAMAMOTO M, DEP. CHEMISTRY, FAC. SCIENCE, NARA WOMEN'S UNIV.
license=CC BY-NC-SA
exact mass=168.1878
ionization energy=70 eV
ion type=[M]+*
computed spectral entropy=3.3174694666154387
computed normalized entropy=0.8480189053112082
SPLASH=splash10-0a4l-9100000000-7d09a4bed10ece8916a1
submitter=submitter = University of Tokyo Team (Faculty of Engineering, University of Tokyo)
MoNA Rating=3.75

>  <NUM PEAKS>  (5321) 
50

>  <MASS SPECTRAL PEAKS>  (5321) 
26 1.17
27 22.69
28 7.92
29 37.23
30 1.2
39 23.14
40 4.48
41 90.78
42 31.3
43 56.45
44 2.06
51 1.33
52 1
53 7.98
54 12.65
55 99.99
56 68.23
57 44.6
58 2.34
65 1.34
66 1.53
67 14.14
68 26.68
69 77.64
70 55.96
71 14.58
77 1.13
79 1.41
81 5.82
82 32.09
83 63.39
84 34.96
85 8.36
95 1.84
96 12.9
97 44.95
98 21.89
99 2.87
110 5.55
111 25.48
112 13.08
113 1.58
124 2.33
125 12.3
126 6.94
139 4.42
140 12.23
141 1.71
168 28.71
169 4.5

>  <PREDICTED SPECTRUM>  (5321) 
15 23
18 19
25 27
26 112
27 394
28 186
29 562
30 149
31 21
37 14
38 55
39 407
40 144
41 916
42 498
43 873
44 204
50 32
51 116
52 80
53 251
54 408
55 999
56 770
57 849
58 344
59 133
60 14
61 25
65 100
66 131
67 388
68 426
69 813
70 743
71 736
72 261
77 33
78 33
79 155
80 87
81 271
82 517
83 692
84 524
85 391
86 147
94 20
95 231
96 416
97 651
98 422
99 198
108 15
109 56
110 276
111 480
112 216
113 147
123 58
124 116
125 326
126 75
127 133
136 61
138 39
139 179
140 203
141 8
153 59
168 299
169 111

$$$$

     RDKit          2D

 12 12  0  0  0  0  0  0  0  0999 V2000
   -3.1900    1.5500    0.0000 C   0  0  0  0  0  0  0  0  0  0  0  0
   -2.4400    0.2500    0.0000 C   0  0  0  0  0  0  0  0  0  0  0  0
   -2.4400    2.8500    0.0000 C   0  0  0  0  0  0  0  0  0  0  0  0
   -0.9400    0.2500    0.0000 C   0  0  0  0  0  0  0  0  0  0  0  0
   -0.9400    2.8500    0.0000 C   0  0  0  0  0  0  0  0  0  0  0  0
   -0.1900   -1.0500    0.0000 C   0  0  0  0  0  0  0  0  0  0  0  0
   -0.1900    4.1500    0.0000 C   0  0  0  0  0  0  0  0  0  0  0  0
    1.3100   -1.0500    0.0000 C   0  0  0  0  0  0  0  0  0  0  0  0
    1.3100    4.1500    0.0000 C   0  0  0  0  0  0  0  0  0  0  0  0
    2.0600    0.2500    0.0000 C   0  0  0  0  0  0  0  0  0  0  0  0
    2.0600    2.8500    0.0000 C   0  0  0  0  0  0  0  0  0  0  0  0
    1.3100    1.5500    0.0000 C   0  0  0  0  0  0  0  0  0  0  0  0
  1  2  2  0
  3  1  1  0
  4  2  1  0
  5  3  1  0
  6  4  1  0
  7  5  1  0
  8  6  1  0
  9  7  1  0
 10  8  1  0
 11  9  1  0
 12 10  1  0
 12 11  1  0
M  END
>  <NAME>  (5322) 
CYCLODODECENE

>  <SYNONYMS>  (5322) 


>  <SPECTRUM TYPE>  (5322) 
MS1

>  <INSTRUMENT TYPE>  (5322) 
EI-B

>  <INSTRUMENT>  (5322) 
HITACHI RMU-6M

>  <ION MODE>  (5322) 
P

>  <INCHIKEY>  (5322) 
HYPABJGVBDSCIT-UPHRSURJSA-N

>  <FORMULA>  (5322) 
C12H22

>  <EXACT MASS>  (5322) 
166.172150704

>  <MW>  (5322) 
166

>  <ID>  (5322) 
JP001560

>  <CONTRIBUTOR>  (5322) 
University of Tokyo Team, {Faculty of Engineering, University of Tokyo

>  <COMMENT>  (5322) 
InChI=InChI=1S/C12H22/c1-2-4-6-8-10-12-11-9-7-5-3-1/h1-2H,3-12H2/b2-1-
SMILES=C(C1)CCCCC=CCCCC1
computed SMILES=C1=CCCCCCCCCCC1
accession=JP001560
date=2016.01.19 (Created 2008.10.21, modified 2011.05.06)
author=YAMAMOTO M, DEP. CHEMISTRY, FAC. SCIENCE, NARA WOMEN'S UNIV.
license=CC BY-NC-SA
exact mass=166.17215
ionization energy=70 eV
ion type=[M]+*
computed spectral entropy=3.389705332926833
computed normalized entropy=0.8348117001328571
SPLASH=splash10-067m-9100000000-1b5d9c14de3d8c273242
submitter=submitter = University of Tokyo Team (Faculty of Engineering, University of Tokyo)
MoNA Rating=3.75

>  <NUM PEAKS>  (5322) 
58

>  <MASS SPECTRAL PEAKS>  (5322) 
15 1.05
26 1.39
27 24.3
28 8.05
29 30.41
39 34.65
40 6.29
41 99.99
42 16.41
43 20.39
51 3.2
52 2.23
53 17.45
54 69.53
55 92.4
56 18.33
57 12.04
65 5.38
66 8.92
67 90.63
68 46.12
69 42.89
70 11.7
71 2.25
77 4.69
78 1.77
79 10.17
80 7.48
81 66.58
82 86.29
83 36.17
84 7.34
85 1.64
91 2.82
93 3.36
94 4.57
95 44.35
96 68.28
97 19.7
98 4.15
107 1.44
108 1.85
109 28.14
110 16.48
111 4.83
112 1.7
121 2.1
122 1.31
123 10.86
124 8.98
125 1.8
137 4.56
138 7.61
139 1.3
140 1.44
164 1.18
166 35.06
167 5.13

>  <PREDICTED SPECTRUM>  (5322) 
14 1
15 34
25 13
26 119
27 488
28 212
29 470
30 5
31 11
32 6
37 13
38 62
39 552
40 229
41 892
42 327
43 413
44 64
50 89
51 206
52 177
53 449
54 808
55 833
56 281
57 257
58 68
59 56
62 16
63 115
64 46
65 232
66 307
67 999
68 722
69 483
70 286
71 158
72 8
73 10
77 261
78 169
79 460
80 352
81 874
82 678
83 379
84 201
85 72
86 1
91 144
92 108
93 243
94 198
95 658
96 640
97 262
98 122
99 49
105 64
106 87
107 31
108 101
109 398
110 349
111 214
112 123
119 118
121 138
122 5
123 257
124 162
125 104
134 2
136 6
137 294
138 229
139 87
151 52
166 427
167 156
168 11

$$$$

     RDKit          2D

 12 12  0  0  0  0  0  0  0  0999 V2000
   -7.6800    6.0800    0.0000 C   0  0  0  0  0  0  0  0  0  0  0  0
   -3.5900    6.0800    0.0000 C   0  0  0  0  0  0  0  0  0  0  0  0
   -7.6800    4.5800    0.0000 C   0  0  0  0  0  0  0  0  0  0  0  0
   -3.5900    4.5800    0.0000 C   0  0  0  0  0  0  0  0  0  0  0  0
   -6.3800    3.8300    0.0000 C   0  0  0  0  0  0  0  0  0  0  0  0
   -4.8800    3.8300    0.0000 C   0  0  0  0  0  0  0  0  0  0  0  0
   -6.3800    2.3300    0.0000 C   0  0  0  0  0  0  0  0  0  0  0  0
   -4.8800    2.3300    0.0000 C   0  0  0  0  0  0  0  0  0  0  0  0
   -7.6800    1.5800    0.0000 C   0  0  0  0  0  0  0  0  0  0  0  0
   -3.5900    1.5800    0.0000 C   0  0  0  0  0  0  0  0  0  0  0  0
   -7.6800    0.0800    0.0000 C   0  0  0  0  0  0  0  0  0  0  0  0
   -3.5900    0.0800    0.0000 C   0  0  0  0  0  0  0  0  0  0  0  0
  1  2  2  0
  3  1  1  0
  4  2  1  0
  5  3  1  0
  6  4  1  0
  7  5  1  0
  8  6  1  0
  7  9  2  0
  8 10  2  0
 11  9  1  0
 12 10  1  0
 12 11  1  0
M  END
>  <NAME>  (5323) 
1.5.9-CYCLODODECATRIENE

>  <SYNONYMS>  (5323) 


>  <SPECTRUM TYPE>  (5323) 
MS1

>  <INSTRUMENT TYPE>  (5323) 
EI-B

>  <INSTRUMENT>  (5323) 
HITACHI RMU-6M

>  <ION MODE>  (5323) 
P

>  <INCHIKEY>  (5323) 
ZOLLIQAKMYWTBR-RYMQXAEESA-N

>  <FORMULA>  (5323) 
C12H18

>  <EXACT MASS>  (5323) 
162.140850576

>  <MW>  (5323) 
162

>  <ID>  (5323) 
JP001559

>  <CONTRIBUTOR>  (5323) 
University of Tokyo Team, {Faculty of Engineering, University of Tokyo

>  <COMMENT>  (5323) 
SMILES=C(C1)C=CCCC=CCCC=C1
InChI=InChI=1S/C12H18/c1-2-4-6-8-10-12-11-9-7-5-3-1/h1-2,7-10H,3-6,11-12H2/b2-1-,9-7+,10-8+
computed SMILES=C1=CCCC=CCCC=CCC1
accession=JP001559
date=2016.01.19 (Created 2008.10.21, modified 2011.05.06)
author=YAMAMOTO M, DEP. CHEMISTRY, FAC. SCIENCE, NARA WOMEN'S UNIV.
license=CC BY-NC-SA
exact mass=162.14085
ionization energy=70 eV
ion type=[M]+*
computed spectral entropy=3.166213111125113
computed normalized entropy=0.8223614880943335
SPLASH=splash10-0f6x-9100000000-8f14a0290404c1565291
submitter=submitter = University of Tokyo Team (Faculty of Engineering, University of Tokyo)
MoNA Rating=3.75

>  <NUM PEAKS>  (5323) 
47

>  <MASS SPECTRAL PEAKS>  (5323) 
27 16.35
28 7.13
29 5.4
38 1.24
39 37.47
40 4.39
41 33.49
42 2.04
43 1.26
50 1.59
51 5.21
52 3.77
53 14.07
54 99.99
55 9.23
63 1.78
65 8.5
66 13.95
67 50.5
68 4.17
77 11.28
78 9.22
79 51.44
80 38.23
81 8.01
82 1.24
91 99.11
92 9.23
93 34.04
94 9.64
95 6.21
96 1.42
105 7.98
106 6.47
107 6.37
108 7.32
109 1.05
119 14.41
120 8.81
121 1.09
133 14.26
134 12.7
135 1.66
147 3.03
161 1.26
162 16.72
163 2.42

>  <PREDICTED SPECTRUM>  (5323) 
15 4
25 27
26 120
27 405
28 31
29 106
35 84
36 226
37 109
38 293
39 825
40 275
41 565
42 14
43 64
44 8
49 103
50 226
51 460
52 411
53 499
54 874
55 25
56 32
57 41
58 95
59 100
60 104
61 16
62 137
63 190
64 70
65 350
66 334
67 999
68 64
71 22
73 126
74 117
75 182
76 34
77 521
78 405
79 922
80 884
81 550
82 301
83 137
84 187
85 136
86 100
88 424
89 186
90 92
91 615
92 439
93 494
94 200
95 192
96 64
101 37
103 46
105 139
106 1
107 148
108 319
118 21
119 116
120 205
121 128
122 38
123 87
124 81
125 55
126 233
127 346
128 264
129 345
130 133
131 5
133 96
134 143
135 44
136 49
147 12
148 4
160 43
161 359
162 577
163 380
164 500
165 301
166 267
167 199

$$$$

     RDKit          2D

  8  8  0  0  0  0  0  0  0  0999 V2000
  -10.4600    6.3600    0.0000 C   0  0  0  0  0  0  0  0  0  0  0  0
  -11.3400    5.1500    0.0000 C   0  0  0  0  0  0  0  0  0  0  0  0
   -9.0300    5.9000    0.0000 C   0  0  0  0  0  0  0  0  0  0  0  0
  -10.4600    3.9300    0.0000 C   0  0  0  0  0  0  0  0  0  0  0  0
   -7.6000    6.3600    0.0000 C   0  0  0  0  0  0  0  0  0  0  0  0
   -9.0300    4.4000    0.0000 C   0  0  0  0  0  0  0  0  0  0  0  0
   -6.7200    5.1500    0.0000 C   0  0  0  0  0  0  0  0  0  0  0  0
   -7.6000    3.9300    0.0000 C   0  0  0  0  0  0  0  0  0  0  0  0
  1  2  2  0
  3  1  1  0
  4  2  1  0
  5  3  1  0
  6  4  1  0
  7  5  1  0
  8  6  1  0
  7  8  2  0
M  END
>  <NAME>  (5324) 
1.5-CYCLOOCTADIENE

>  <SYNONYMS>  (5324) 


>  <SPECTRUM TYPE>  (5324) 
MS1

>  <INSTRUMENT TYPE>  (5324) 
EI-B

>  <INSTRUMENT>  (5324) 
HITACHI RMU-6M

>  <ION MODE>  (5324) 
P

>  <INCHIKEY>  (5324) 
VYXHVRARDIDEHS-QGTKBVGQSA-N

>  <FORMULA>  (5324) 
C8H12

>  <EXACT MASS>  (5324) 
108.093900384

>  <MW>  (5324) 
108

>  <ID>  (5324) 
JP001558

>  <CONTRIBUTOR>  (5324) 
University of Tokyo Team, {Faculty of Engineering, University of Tokyo

>  <COMMENT>  (5324) 
SMILES=C(C1)C=CCCC=C1
InChI=InChI=1S/C8H12/c1-2-4-6-8-7-5-3-1/h1-2,7-8H,3-6H2/b2-1-,8-7-
computed SMILES=C1=CCCC=CCC1
accession=JP001558
date=2016.01.19 (Created 2008.10.21, modified 2011.05.06)
author=YAMAMOTO M, DEP. CHEMISTRY, FAC. SCIENCE, NARA WOMEN'S UNIV.
license=CC BY-NC-SA
exact mass=108.0939
ionization energy=70 eV
ion type=[M]+*
computed spectral entropy=2.7779408274921713
computed normalized entropy=0.794490153004865
SPLASH=splash10-0uxr-9000000000-fcefaab2a2f7d4cd012a
submitter=submitter = University of Tokyo Team (Faculty of Engineering, University of Tokyo)
MoNA Rating=3.75

>  <NUM PEAKS>  (5324) 
33

>  <MASS SPECTRAL PEAKS>  (5324) 
26 2.22
27 20.96
28 7.46
29 2.97
38 2.88
39 47.24
40 4.39
41 23.12
42 1.51
50 4.59
51 9.82
52 5.47
53 13.77
54 99.99
55 5.87
62 1.08
63 2.59
65 8.44
66 19.67
67 82.57
68 5.12
77 12.72
78 5.44
79 35.86
80 42.8
81 3.51
91 8.07
92 1.02
93 13.48
94 1.12
107 1.6
108 11.41
109 1.08

>  <PREDICTED SPECTRUM>  (5324) 
15 20
25 21
26 123
27 356
28 55
29 69
35 75
36 212
37 248
38 303
39 749
40 306
41 539
42 85
49 126
50 232
51 425
52 360
53 521
54 824
56 39
57 9
61 16
63 180
64 72
65 292
66 301
67 999
68 233
69 146
70 18
71 58
72 112
73 229
74 162
75 270
76 64
77 467
78 271
79 810
80 610
81 583
82 48
89 22
91 15
92 7
93 168
95 0
107 344
108 513
109 299
110 387
111 213
112 146
113 42

$$$$

     RDKit          2D

  8  8  0  0  0  0  0  0  0  0999 V2000
  -10.8500    6.0400    0.0000 C   0  0  0  0  0  0  0  0  0  0  0  0
  -11.3900    4.6400    0.0000 C   0  0  0  0  0  0  0  0  0  0  0  0
   -9.4800    6.6500    0.0000 C   0  0  0  0  0  0  0  0  0  0  0  0
  -10.7800    3.2700    0.0000 C   0  0  0  0  0  0  0  0  0  0  0  0
   -8.0800    6.1100    0.0000 C   0  0  0  0  0  0  0  0  0  0  0  0
   -9.3800    2.7300    0.0000 C   0  0  0  0  0  0  0  0  0  0  0  0
   -7.4700    4.7400    0.0000 C   0  0  0  0  0  0  0  0  0  0  0  0
   -8.0100    3.3400    0.0000 C   0  0  0  0  0  0  0  0  0  0  0  0
  2  1  1  0
  1  3  2  0
  2  4  2  0
  5  3  1  0
  6  4  1  0
  7  5  1  0
  8  6  1  0
  8  7  1  0
M  END
>  <NAME>  (5325) 
1.3-CYCLOOCTADIENE

>  <SYNONYMS>  (5325) 


>  <SPECTRUM TYPE>  (5325) 
MS1

>  <INSTRUMENT TYPE>  (5325) 
EI-B

>  <INSTRUMENT>  (5325) 
HITACHI RMU-6M

>  <ION MODE>  (5325) 
P

>  <INCHIKEY>  (5325) 
RRKODOZNUZCUBN-CCAGOZQPSA-N

>  <FORMULA>  (5325) 
C8H12

>  <EXACT MASS>  (5325) 
108.093900384

>  <MW>  (5325) 
108

>  <ID>  (5325) 
JP001557

>  <CONTRIBUTOR>  (5325) 
University of Tokyo Team, {Faculty of Engineering, University of Tokyo

>  <COMMENT>  (5325) 
SMILES=C(C1)CC=CC=CC1
InChI=InChI=1S/C8H12/c1-2-4-6-8-7-5-3-1/h1-4H,5-8H2/b3-1-,4-2-
computed SMILES=C=1C=CCCCCC1
accession=JP001557
date=2016.01.19 (Created 2008.10.21, modified 2011.05.06)
author=YAMAMOTO M, DEP. CHEMISTRY, FAC. SCIENCE, NARA WOMEN'S UNIV.
license=CC BY-NC-SA
exact mass=108.0939
ionization energy=70 eV
ion type=[M]+*
computed spectral entropy=2.9454996521212133
computed normalized entropy=0.8284701247751476
SPLASH=splash10-004l-9000000000-b2dc85088642111216e7
submitter=submitter = University of Tokyo Team (Faculty of Engineering, University of Tokyo)
MoNA Rating=3.75

>  <NUM PEAKS>  (5325) 
35

>  <MASS SPECTRAL PEAKS>  (5325) 
26 2.28
27 21.86
28 3.45
29 3.92
38 3.33
39 38.48
40 5.54
41 28.6
42 1.51
50 6.05
51 13.92
52 8.58
53 10.23
54 13.51
55 2.3
62 1.36
63 3.8
65 14.39
66 19.2
67 52.54
68 3.69
74 1.06
77 31.19
78 12.12
79 99.99
80 54.13
81 4.87
91 18.93
92 2.36
93 50.45
94 4.01
105 1.48
107 3.86
108 44.28
109 3.93

>  <PREDICTED SPECTRUM>  (5325) 
15 27
25 11
26 136
27 479
28 167
29 270
37 86
38 171
39 699
40 296
41 598
42 169
43 108
49 14
50 220
51 377
52 281
53 431
54 468
55 146
56 10
61 45
62 114
63 212
64 135
65 377
66 510
67 758
68 192
69 60
74 74
75 131
76 79
77 560
78 367
79 999
80 703
81 441
82 34
89 51
90 25
91 381
92 285
93 596
94 253
95 68
102 2
103 19
105 9
107 148
108 425
109 130

$$$$

     RDKit          2D

  7  7  0  0  0  0  0  0  0  0999 V2000
    0.0000    1.5000    0.0000 C   0  0  0  0  0  0  0  0  0  0  0  0
    0.0000    0.0000    0.0000 C   0  0  0  0  0  0  0  0  0  0  0  0
   -1.1727    2.4352    0.0000 C   0  0  0  0  0  0  0  0  0  0  0  0
   -1.1727   -0.9352    0.0000 C   0  0  0  0  0  0  0  0  0  0  0  0
   -2.6351    2.1015    0.0000 C   0  0  0  0  0  0  0  0  0  0  0  0
   -2.6351   -0.6015    0.0000 C   0  0  0  0  0  0  0  0  0  0  0  0
   -3.2860    0.7500    0.0000 C   0  0  0  0  0  0  0  0  0  0  0  0
  2  1  2  0
  3  1  1  0
  4  2  1  0
  5  3  2  0
  6  4  2  0
  7  5  1  0
  7  6  1  0
M  END
>  <NAME>  (5326) 
CYCLOHEPTATRIENE

>  <SYNONYMS>  (5326) 


>  <SPECTRUM TYPE>  (5326) 
MS1

>  <INSTRUMENT TYPE>  (5326) 
EI-B

>  <INSTRUMENT>  (5326) 
HITACHI RMU-6M

>  <ION MODE>  (5326) 
P

>  <INCHIKEY>  (5326) 
CHVJITGCYZJHLR-UHFFFAOYSA-N

>  <FORMULA>  (5326) 
C7H8

>  <EXACT MASS>  (5326) 
92.062600256

>  <MW>  (5326) 
92

>  <ID>  (5326) 
JP001554

>  <CONTRIBUTOR>  (5326) 
University of Tokyo Team, {Faculty of Engineering, University of Tokyo

>  <COMMENT>  (5326) 
SMILES=C(C=1)C=CC=CC1
InChI=InChI=1S/C7H8/c1-2-4-6-7-5-3-1/h1-6H,7H2
computed SMILES=C1=CC=CCC=C1
accession=JP001554
date=2016.01.19 (Created 2008.10.21, modified 2011.05.06)
author=YAMAMOTO M, DEP. CHEMISTRY, FAC. SCIENCE, NARA WOMEN'S UNIV.
license=CC BY-NC-SA
exact mass=92.0626
ionization energy=70 eV
ion type=[M]+*
computed spectral entropy=2.252999427883974
computed normalized entropy=0.6761287973184796
SPLASH=splash10-0006-9000000000-0aef34a2a88c90bb79c6
submitter=submitter = University of Tokyo Team (Faculty of Engineering, University of Tokyo)
MoNA Rating=3.75

>  <NUM PEAKS>  (5326) 
28

>  <MASS SPECTRAL PEAKS>  (5326) 
26 1.15
27 4.27
37 1.96
38 4.48
39 19.16
40 2.9
41 1.94
43 1.19
45 2.54
45.5 1.18
46 1.54
50 4.03
51 6.94
52 2.2
53 1.85
61 2.04
62 4
63 8.94
64 2.03
65 20
66 3.57
77 1.97
79 1.3
89 3.77
90 1.58
91 99.99
92 49.44
93 3.81

>  <PREDICTED SPECTRUM>  (5326) 
25 15
26 132
27 246
28 29
36 18
37 152
38 252
39 574
40 190
41 152
45 32
49 95
50 343
51 547
52 338
53 187
54 35
61 107
62 183
63 316
64 196
65 422
66 265
67 4
71 55
73 97
74 155
75 200
76 158
77 536
78 612
79 131
86 37
87 80
88 67
89 256
90 124
91 999
92 709
93 204

$$$$

     RDKit          2D

 12 12  0  0  0  0  0  0  0  0999 V2000
   -3.8981   -0.7504    0.0000 C   0  0  0  0  0  0  0  0  0  0  0  0
   -2.5987   -3.0002    0.0000 C   0  0  0  0  0  0  0  0  0  0  0  0
    3.8981    0.7504    0.0000 C   0  0  0  0  0  0  0  0  0  0  0  0
    2.5987    3.0002    0.0000 C   0  0  0  0  0  0  0  0  0  0  0  0
   -1.3000    0.7500    0.0000 C   0  0  0  0  0  0  0  0  0  0  0  0
    0.0000   -1.5000    0.0000 C   0  0  0  0  0  0  0  0  0  0  0  0
    0.0000    1.5000    0.0000 C   0  0  0  0  0  0  0  0  0  0  0  0
    1.3000   -0.7500    0.0000 C   0  0  0  0  0  0  0  0  0  0  0  0
   -2.5989   -1.5002    0.0000 C   0  0  0  0  0  0  0  0  0  0  0  0
    2.5989    1.5002    0.0000 C   0  0  0  0  0  0  0  0  0  0  0  0
   -1.3000   -0.7500    0.0000 C   0  0  0  0  0  0  0  0  0  0  0  0
    1.3000    0.7500    0.0000 C   0  0  0  0  0  0  0  0  0  0  0  0
  7  5  2  0
  8  6  1  0
  9  1  1  0
  9  2  1  0
 10  3  1  0
 10  4  1  0
 11  5  1  0
 11  6  2  0
 11  9  1  0
 12  7  1  0
 12  8  2  0
 12 10  1  0
M  END
>  <NAME>  (5327) 
PARA-DIISOPROPYLBENZENE

>  <SYNONYMS>  (5327) 


>  <SPECTRUM TYPE>  (5327) 
MS1

>  <INSTRUMENT TYPE>  (5327) 
EI-B

>  <INSTRUMENT>  (5327) 
HITACHI RMU-6M

>  <ION MODE>  (5327) 
P

>  <INCHIKEY>  (5327) 
SPPWGCYEYAMHDT-UHFFFAOYSA-N

>  <FORMULA>  (5327) 
C12H18

>  <EXACT MASS>  (5327) 
162.140850576

>  <MW>  (5327) 
162

>  <ID>  (5327) 
JP001545

>  <CONTRIBUTOR>  (5327) 
University of Tokyo Team, {Faculty of Engineering, University of Tokyo

>  <COMMENT>  (5327) 
SMILES=CC(C)c(c1)ccc(C(C)C)c1
InChI=InChI=1S/C12H18/c1-9(2)11-5-7-12(8-6-11)10(3)4/h5-10H,1-4H3
computed SMILES=C=1C=C(C=CC1C(C)C)C(C)C
accession=JP001545
date=2016.01.19 (Created 2008.10.21, modified 2011.05.06)
author=YAMAMOTO M, DEP. CHEMISTRY, FAC. SCIENCE, NARA WOMEN'S UNIV.
license=CC BY-NC-SA
exact mass=162.14085
ionization energy=70 eV
ion type=[M]+*
computed spectral entropy=2.9467865938136875
computed normalized entropy=0.7696689996916196
SPLASH=splash10-0002-4900000000-6e55f07eeef43f87048e
submitter=submitter = University of Tokyo Team (Faculty of Engineering, University of Tokyo)
MoNA Rating=3.75

>  <NUM PEAKS>  (5327) 
46

>  <MASS SPECTRAL PEAKS>  (5327) 
27 5.72
29 1.11
39 5.49
41 11.8
43 22
50 1.26
51 4.55
52 1.16
53 2.31
55 1.57
63 2.31
64 2.35
64.5 1.2
65 4.86
65.5 1.47
66 2.68
77 7.29
78 2.81
79 4.53
89 1.04
91 22.39
92 1.87
102 1.17
103 4.07
104 1.7
105 20.78
106 2.03
115 5.09
116 3.01
117 8.49
118 2.05
119 32.17
120 3.42
127 1.24
128 2.56
129 1.91
131 5.6
132 4.68
133 1.77
145 2.9
146 1.19
147 99.99
148 12.41
161 1.15
162 26.82
163 3.9

>  <PREDICTED SPECTRUM>  (5327) 
14 22
15 83
16 12
17 8
18 31
25 4
26 62
27 238
28 139
29 174
30 30
31 12
37 44
38 100
39 314
40 113
41 372
42 138
43 342
44 102
45 65
49 9
50 147
51 283
52 155
53 171
54 72
55 93
57 39
58 91
59 51
60 22
61 15
62 84
63 183
64 160
65 273
66 128
67 46
69 82
70 46
72 38
73 38
74 79
75 107
76 92
77 360
78 241
79 252
80 42
84 2
86 65
87 34
88 17
89 131
90 46
91 550
92 232
93 83
98 1
101 55
102 147
103 300
104 238
105 408
106 113
107 40
115 353
116 181
117 389
118 223
119 443
120 196
121 42
127 110
128 147
129 102
130 93
131 151
132 185
133 242
134 13
143 36
145 117
146 81
147 999
148 324
149 83
160 73
161 100
162 539
163 193
164 37

$$$$

     RDKit          2D

  9  9  0  0  0  0  0  0  0  0999 V2000
   -2.5989   -1.5002    0.0000 C   0  0  0  0  0  0  0  0  0  0  0  0
    2.5989    1.5002    0.0000 C   0  0  0  0  0  0  0  0  0  0  0  0
    2.5989   -1.5002    0.0000 C   0  0  0  0  0  0  0  0  0  0  0  0
   -1.3000    0.7500    0.0000 C   0  0  0  0  0  0  0  0  0  0  0  0
    0.0000    1.5000    0.0000 C   0  0  0  0  0  0  0  0  0  0  0  0
   -0.0000   -1.5000    0.0000 C   0  0  0  0  0  0  0  0  0  0  0  0
   -1.3000   -0.7500    0.0000 C   0  0  0  0  0  0  0  0  0  0  0  0
    1.3000    0.7500    0.0000 C   0  0  0  0  0  0  0  0  0  0  0  0
    1.3000   -0.7500    0.0000 C   0  0  0  0  0  0  0  0  0  0  0  0
  5  4  2  0
  7  1  1  0
  7  4  1  0
  7  6  2  0
  8  2  1  0
  8  5  1  0
  9  3  1  0
  9  6  1  0
  9  8  2  0
M  END
>  <NAME>  (5328) 
1.2.4-TRIMETHYLBENZENE

>  <SYNONYMS>  (5328) 
PSEUDOCUMENE

>  <SPECTRUM TYPE>  (5328) 
MS1

>  <INSTRUMENT TYPE>  (5328) 
EI-B

>  <INSTRUMENT>  (5328) 
HITACHI RMU-6M

>  <ION MODE>  (5328) 
P

>  <INCHIKEY>  (5328) 
GWHJZXXIDMPWGX-UHFFFAOYSA-N

>  <FORMULA>  (5328) 
C9H12

>  <EXACT MASS>  (5328) 
120.093900384

>  <MW>  (5328) 
120

>  <ID>  (5328) 
JP001538

>  <CONTRIBUTOR>  (5328) 
University of Tokyo Team, {Faculty of Engineering, University of Tokyo

>  <COMMENT>  (5328) 
SMILES=Cc(c1)cc(C)c(C)c1
InChI=InChI=1S/C9H12/c1-7-4-5-8(2)9(3)6-7/h4-6H,1-3H3
computed SMILES=C=1C=C(C(=CC1C)C)C
accession=JP001538
date=2016.01.19 (Created 2008.10.21, modified 2011.05.06)
author=YAMAMOTO M, DEP. CHEMISTRY, FAC. SCIENCE, NARA WOMEN'S UNIV.
license=CC BY-NC-SA
exact mass=120.0939
ionization energy=70 eV
ion type=[M]+*
computed spectral entropy=2.5699131513211078
computed normalized entropy=0.7349943067885868
SPLASH=splash10-0ab9-4900000000-cd43d59aff7151b5c417
submitter=submitter = University of Tokyo Team (Faculty of Engineering, University of Tokyo)
MoNA Rating=3.75

>  <NUM PEAKS>  (5328) 
33

>  <MASS SPECTRAL PEAKS>  (5328) 
27 6.15
38 1.11
39 10.29
40 1.29
41 5.26
50 3.14
51 8.21
52 2.87
53 3.61
57.5 1.92
58 2.4
59 2.77
62 1.46
63 4.33
65 5.56
74 1.25
75 1.2
77 12.71
78 4.73
79 8.09
89 1.37
91 10.05
92 1.75
102 1.41
103 6.44
104 3.2
105 99.99
106 9.24
115 3.38
116 3.39
119 15.28
120 60.8
121 6.3

>  <PREDICTED SPECTRUM>  (5328) 
14 24
15 118
16 10
18 12
25 7
26 99
27 351
28 143
29 112
32 5
36 19
37 83
38 170
39 430
40 143
41 285
42 42
44 8
49 30
50 229
51 352
52 182
53 301
54 57
55 23
58 96
61 107
62 131
63 219
64 168
65 265
66 101
67 80
74 144
75 140
76 113
77 459
78 282
79 401
80 194
87 17
89 105
91 462
92 175
93 216
94 71
101 6
102 143
103 320
104 227
105 999
106 300
115 306
116 188
117 202
118 123
119 368
120 876
121 277
122 5

$$$$

     RDKit          2D

  8  8  0  0  0  0  0  0  0  0999 V2000
   -2.5989   -1.5002    0.0000 C   0  0  0  0  0  0  0  0  0  0  0  0
    2.5989    1.5002    0.0000 C   0  0  0  0  0  0  0  0  0  0  0  0
   -1.3000    0.7500    0.0000 C   0  0  0  0  0  0  0  0  0  0  0  0
   -0.0000   -1.5000    0.0000 C   0  0  0  0  0  0  0  0  0  0  0  0
    0.0000    1.5000    0.0000 C   0  0  0  0  0  0  0  0  0  0  0  0
    1.3000   -0.7500    0.0000 C   0  0  0  0  0  0  0  0  0  0  0  0
   -1.3000   -0.7500    0.0000 C   0  0  0  0  0  0  0  0  0  0  0  0
    1.3000    0.7500    0.0000 C   0  0  0  0  0  0  0  0  0  0  0  0
  5  3  2  0
  6  4  1  0
  7  1  1  0
  7  3  1  0
  7  4  2  0
  8  2  1  0
  8  5  1  0
  8  6  2  0
M  END
>  <NAME>  (5329) 
PARA-XYLENE

>  <SYNONYMS>  (5329) 
1.4-DIMETHYLBENZENE

>  <SPECTRUM TYPE>  (5329) 
MS1

>  <INSTRUMENT TYPE>  (5329) 
EI-B

>  <INSTRUMENT>  (5329) 
HITACHI RMU-6M

>  <ION MODE>  (5329) 
P

>  <INCHIKEY>  (5329) 
URLKBWYHVLBVBO-UHFFFAOYSA-N

>  <FORMULA>  (5329) 
C8H10

>  <EXACT MASS>  (5329) 
106.07825032

>  <MW>  (5329) 
106

>  <ID>  (5329) 
JP001535

>  <CONTRIBUTOR>  (5329) 
University of Tokyo Team, {Faculty of Engineering, University of Tokyo

>  <COMMENT>  (5329) 
InChI=InChI=1S/C8H10/c1-7-3-5-8(2)6-4-7/h3-6H,1-2H3
SMILES=Cc(c1)ccc(C)c1
computed SMILES=C=1C=C(C=CC1C)C
accession=JP001535
date=2016.01.19 (Created 2008.10.21, modified 2011.05.06)
author=YAMAMOTO M, DEP. CHEMISTRY, FAC. SCIENCE, NARA WOMEN'S UNIV.
license=CC BY-NC-SA
exact mass=106.07825
ionization energy=70 eV
ion type=[M]+*
computed spectral entropy=2.4835762220462687
computed normalized entropy=0.7302064371320174
SPLASH=splash10-052f-9400000000-58e5d57804187b27c6c5
submitter=submitter = University of Tokyo Team (Faculty of Engineering, University of Tokyo)
MoNA Rating=3.75

>  <NUM PEAKS>  (5329) 
30

>  <MASS SPECTRAL PEAKS>  (5329) 
27 7.08
38 2.03
39 12.44
40 1.42
41 2.14
44 1.24
50 5.85
51 14.05
52 5.95
53 4.2
62 2.23
63 5.9
64 1.24
65 7.61
66 1.12
74 1.64
75 1.17
76 1.11
77 14.49
78 7.01
79 8.12
89 2.16
91 99.99
92 8.07
102 1.38
103 6.29
104 3.16
105 29.6
106 69.74
107 6.11

>  <PREDICTED SPECTRUM>  (5329) 
15 57
25 3
26 76
27 233
28 79
29 40
37 91
38 190
39 518
40 132
41 286
50 277
51 460
52 288
53 286
54 27
57 42
58 47
61 98
62 164
63 411
64 221
65 623
66 189
67 84
74 147
75 71
76 54
77 566
78 351
79 471
80 68
87 31
89 279
90 300
91 999
92 338
102 94
103 235
104 261
105 660
106 952
107 520
108 20

$$$$

     RDKit          2D

  8  8  0  0  0  0  0  0  0  0999 V2000
    1.9446    2.2539    0.0000 C   0  0  0  0  0  0  0  0  0  0  0  0
   -0.6520   -2.2491    0.0000 C   0  0  0  0  0  0  0  0  0  0  0  0
   -1.9467    1.4939    0.0000 C   0  0  0  0  0  0  0  0  0  0  0  0
   -0.6477    2.2439    0.0000 C   0  0  0  0  0  0  0  0  0  0  0  0
   -1.9512    0.0017    0.0000 C   0  0  0  0  0  0  0  0  0  0  0  0
    0.6473    0.0009    0.0000 C   0  0  0  0  0  0  0  0  0  0  0  0
    0.6468    1.5017    0.0000 C   0  0  0  0  0  0  0  0  0  0  0  0
   -0.6517   -0.7491    0.0000 C   0  0  0  0  0  0  0  0  0  0  0  0
  4  3  2  0
  5  3  1  0
  7  1  1  0
  7  4  1  0
  7  6  2  0
  8  2  1  0
  8  5  2  0
  8  6  1  0
M  END
>  <NAME>  (5330) 
META-XYLENE

>  <SYNONYMS>  (5330) 
1,3-DIMETHYLBENZENE

>  <SPECTRUM TYPE>  (5330) 
MS1

>  <INSTRUMENT TYPE>  (5330) 
EI-B

>  <INSTRUMENT>  (5330) 
HITACHI RMU-6M

>  <ION MODE>  (5330) 
P

>  <INCHIKEY>  (5330) 
IVSZLXZYQVIEFR-UHFFFAOYSA-N

>  <FORMULA>  (5330) 
C8H10

>  <EXACT MASS>  (5330) 
106.07825032

>  <MW>  (5330) 
106

>  <ID>  (5330) 
JP001534

>  <CONTRIBUTOR>  (5330) 
University of Tokyo Team, {Faculty of Engineering, University of Tokyo

>  <COMMENT>  (5330) 
SMILES=Cc(c1)cc(C)cc1
InChI=InChI=1S/C8H10/c1-7-4-3-5-8(2)6-7/h3-6H,1-2H3
computed SMILES=C=1C=C(C=C(C1)C)C
accession=JP001534
date=2016.01.19 (Created 2008.10.21, modified 2011.05.06)
author=YAMAMOTO M, DEP. CHEMISTRY, FAC. SCIENCE, NARA WOMEN'S UNIV.
license=CC BY-NC-SA
exact mass=106.07825
ionization energy=70 eV
ion type=[M]+*
computed spectral entropy=2.4822420853244433
computed normalized entropy=0.7228454672406396
SPLASH=splash10-052f-9400000000-df0f65246037f2bfb507
submitter=submitter = University of Tokyo Team (Faculty of Engineering, University of Tokyo)
MoNA Rating=3.75

>  <NUM PEAKS>  (5330) 
31

>  <MASS SPECTRAL PEAKS>  (5330) 
27 6.05
38 2.47
39 13.02
40 1.68
41 2.22
44 1.08
50 4.72
51 11.96
52 6.24
53 3.42
61 1
62 2.35
63 6.14
64 1.36
65 7.62
66 1.05
74 1.59
75 1.19
76 1.08
77 12.88
78 6.88
79 7.42
89 2.3
91 99.99
92 7.67
102 1.33
103 5.54
104 2.67
105 25.88
106 64.68
107 5.28

>  <PREDICTED SPECTRUM>  (5330) 
14 2
15 32
26 89
27 254
28 61
29 30
37 66
38 170
39 499
40 119
41 259
50 246
51 424
52 303
53 280
54 90
57 3
58 48
61 87
62 115
63 294
64 170
65 493
66 213
67 17
74 115
75 103
76 69
77 556
78 386
79 427
80 105
86 1
89 259
90 234
91 999
92 349
93 12
102 177
103 289
104 293
105 709
106 909
107 347
108 4

$$$$

     RDKit          2D

  8  8  0  0  0  0  0  0  0  0999 V2000
   -1.9526    0.7460    0.0000 C   0  0  0  0  0  0  0  0  0  0  0  0
    0.6470    2.2491    0.0000 C   0  0  0  0  0  0  0  0  0  0  0  0
    0.6513   -2.2440    0.0000 C   0  0  0  0  0  0  0  0  0  0  0  0
    1.9458   -1.5018    0.0000 C   0  0  0  0  0  0  0  0  0  0  0  0
   -0.6478   -1.4940    0.0000 C   0  0  0  0  0  0  0  0  0  0  0  0
    1.9463   -0.0009    0.0000 C   0  0  0  0  0  0  0  0  0  0  0  0
   -0.6523   -0.0018    0.0000 C   0  0  0  0  0  0  0  0  0  0  0  0
    0.6472    0.7491    0.0000 C   0  0  0  0  0  0  0  0  0  0  0  0
  4  3  2  0
  5  3  1  0
  6  4  1  0
  7  1  1  0
  7  5  2  0
  8  2  1  0
  8  6  2  0
  8  7  1  0
M  END
>  <NAME>  (5331) 
ORTHO-XYLENE

>  <SYNONYMS>  (5331) 
1,2-DIMETHYLBENZENE

>  <SPECTRUM TYPE>  (5331) 
MS1

>  <INSTRUMENT TYPE>  (5331) 
EI-B

>  <INSTRUMENT>  (5331) 
HITACHI RMU-6M

>  <ION MODE>  (5331) 
P

>  <INCHIKEY>  (5331) 
CTQNGGLPUBDAKN-UHFFFAOYSA-N

>  <FORMULA>  (5331) 
C8H10

>  <EXACT MASS>  (5331) 
106.07825032

>  <MW>  (5331) 
106

>  <ID>  (5331) 
JP001533

>  <CONTRIBUTOR>  (5331) 
University of Tokyo Team, {Faculty of Engineering, University of Tokyo

>  <COMMENT>  (5331) 
SMILES=Cc(c1)c(C)ccc1
InChI=InChI=1S/C8H10/c1-7-5-3-4-6-8(7)2/h3-6H,1-2H3
computed SMILES=C=1C=CC(=C(C1)C)C
accession=JP001533
license=CC BY-NC-SA
date=2016.01.19 (Created 2008.10.21, modified 2011.05.06)
author=YAMAMOTO M, DEP. CHEMISTRY, FAC. SCIENCE, NARA WOMEN'S UNIV.
exact mass=106.07825
ionization energy=70 eV
ion type=[M]+*
computed spectral entropy=2.645980036011615
computed normalized entropy=0.7634684552490315
SPLASH=splash10-052f-9300000000-7444c78cfa46f8a9a90e
submitter=submitter = University of Tokyo Team (Faculty of Engineering, University of Tokyo)
MoNA Rating=3.75

>  <NUM PEAKS>  (5331) 
32

>  <MASS SPECTRAL PEAKS>  (5331) 
26 1.29
27 9.61
37 1.2
38 2.77
39 18.12
40 2.19
41 3.09
50 7.09
51 16.7
52 7.41
53 5.03
61 1.42
62 3.16
63 7.67
64 1.81
65 9.8
66 1.29
74 2.26
75 1.74
76 1.55
77 14.83
78 8.83
79 7.22
89 2.83
90 99.99
92 8.32
102 1.35
103 5.8
104 2.77
105 21.92
106 55.77
107 5.09

>  <PREDICTED SPECTRUM>  (5331) 
14 14
15 92
26 101
27 354
28 129
29 104
37 85
38 167
39 503
40 114
41 114
49 14
50 296
51 467
52 287
53 322
54 45
58 140
61 84
62 131
63 266
64 169
65 407
66 137
67 57
74 208
75 176
76 128
77 716
78 470
79 610
80 91
86 42
87 23
89 165
90 49
91 992
92 327
93 66
102 181
103 515
104 544
105 999
106 839
107 332

$$$$

     RDKit          2D

 13 12  0  0  0  0  0  0  0  0999 V2000
    3.8971    6.7500    0.0000 C   0  0  0  0  0  0  0  0  0  0  0  0
  -11.6913    6.7500    0.0000 C   0  0  0  0  0  0  0  0  0  0  0  0
    2.5981    7.5000    0.0000 C   0  0  0  0  0  0  0  0  0  0  0  0
  -10.3923    7.5000    0.0000 C   0  0  0  0  0  0  0  0  0  0  0  0
    1.2990    6.7500    0.0000 C   0  0  0  0  0  0  0  0  0  0  0  0
   -9.0933    6.7500    0.0000 C   0  0  0  0  0  0  0  0  0  0  0  0
    0.0000    7.5000    0.0000 C   0  0  0  0  0  0  0  0  0  0  0  0
   -7.7942    7.5000    0.0000 C   0  0  0  0  0  0  0  0  0  0  0  0
   -1.2990    6.7500    0.0000 C   0  0  0  0  0  0  0  0  0  0  0  0
   -6.4952    6.7500    0.0000 C   0  0  0  0  0  0  0  0  0  0  0  0
   -2.5981    7.5000    0.0000 C   0  0  0  0  0  0  0  0  0  0  0  0
   -5.1962    7.5000    0.0000 C   0  0  0  0  0  0  0  0  0  0  0  0
   -3.8971    6.7500    0.0000 O   0  0  0  0  0  0  0  0  0  0  0  0
  3  1  1  0
  4  2  1  0
  5  3  1  0
  6  4  1  0
  7  5  1  0
  8  6  1  0
  9  7  1  0
 10  8  1  0
 11  9  1  0
 12 10  1  0
 13 11  1  0
 13 12  1  0
M  END
>  <NAME>  (5332) 
DIHEXYL ETHER

>  <SYNONYMS>  (5332) 


>  <SPECTRUM TYPE>  (5332) 
MS1

>  <INSTRUMENT TYPE>  (5332) 
EI-B

>  <INSTRUMENT>  (5332) 
HITACHI RMU-6M

>  <ION MODE>  (5332) 
P

>  <INCHIKEY>  (5332) 
BPIUIOXAFBGMNB-UHFFFAOYSA-N

>  <FORMULA>  (5332) 
C12H26O

>  <EXACT MASS>  (5332) 
186.198365452

>  <MW>  (5332) 
186

>  <ID>  (5332) 
JP001506

>  <CONTRIBUTOR>  (5332) 
University of Tokyo Team, {Faculty of Engineering, University of Tokyo

>  <COMMENT>  (5332) 
SMILES=CCCCCCOCCCCCC
InChI=InChI=1S/C12H26O/c1-3-5-7-9-11-13-12-10-8-6-4-2/h3-12H2,1-2H3
computed SMILES=O(CCCCCC)CCCCCC
accession=JP001506
date=2016.01.19 (Created 2008.10.21, modified 2011.05.06)
author=YAMAMOTO M, DEP. CHEMISTRY, FAC. SCIENCE, NARA WOMEN'S UNIV.
license=CC BY-NC-SA
exact mass=186.19837
ionization energy=70 eV
ion type=[M]+*
computed spectral entropy=2.5387015825345927
computed normalized entropy=0.7464140705923795
SPLASH=splash10-052o-9000000000-900a20d47416ce2a0354
submitter=submitter = University of Tokyo Team (Faculty of Engineering, University of Tokyo)
MoNA Rating=3.75

>  <NUM PEAKS>  (5332) 
30

>  <MASS SPECTRAL PEAKS>  (5332) 
27 10.61
28 3.6
29 14.68
31 1.75
39 4.59
40 1.19
41 25.06
42 11.09
43 99.99
44 3.36
45 2.65
53 1.33
54 1.4
55 16.13
56 38.19
57 17.62
67 1.47
69 10.4
70 1.58
71 1.42
73 1.13
82 1.64
83 16.39
84 29.39
85 86.45
86 5.8
101 1.33
103 4.38
115 3.32
186 1.04

>  <PREDICTED SPECTRUM>  (5332) 
26 20
27 228
28 103
29 303
31 74
39 216
40 54
41 489
42 339
43 999
44 194
45 52
53 75
54 116
55 398
56 601
57 636
58 98
67 110
68 216
69 378
70 249
71 355
72 84
81 27
82 169
83 244
84 394
85 665
86 180
87 41
96 52
97 47
98 133
99 74
100 8
103 52
129 53

$$$$

     RDKit          2D

  9  8  0  0  0  0  0  0  0  0999 V2000
    2.2733    2.8125    0.0000 C   0  0  0  0  0  0  0  0  0  0  0  0
    0.9743    5.0625    0.0000 C   0  0  0  0  0  0  0  0  0  0  0  0
   -5.5209    2.8125    0.0000 C   0  0  0  0  0  0  0  0  0  0  0  0
   -4.2219    5.0625    0.0000 C   0  0  0  0  0  0  0  0  0  0  0  0
   -0.3248    2.8125    0.0000 C   0  0  0  0  0  0  0  0  0  0  0  0
   -2.9228    2.8125    0.0000 C   0  0  0  0  0  0  0  0  0  0  0  0
    0.9743    3.5625    0.0000 C   0  0  0  0  0  0  0  0  0  0  0  0
   -4.2219    3.5625    0.0000 C   0  0  0  0  0  0  0  0  0  0  0  0
   -1.6238    3.5625    0.0000 O   0  0  0  0  0  0  0  0  0  0  0  0
  7  1  1  0
  7  2  1  0
  7  5  1  0
  8  3  1  0
  8  4  1  0
  8  6  1  0
  9  5  1  0
  9  6  1  0
M  END
>  <NAME>  (5333) 
DIISOBUTYL ETHER

>  <SYNONYMS>  (5333) 


>  <SPECTRUM TYPE>  (5333) 
MS1

>  <INSTRUMENT TYPE>  (5333) 
EI-B

>  <INSTRUMENT>  (5333) 
HITACHI RMU-6M

>  <ION MODE>  (5333) 
P

>  <INCHIKEY>  (5333) 
SZNYYWIUQFZLLT-UHFFFAOYSA-N

>  <FORMULA>  (5333) 
C8H18O

>  <EXACT MASS>  (5333) 
130.135765196

>  <MW>  (5333) 
130

>  <ID>  (5333) 
JP001503

>  <CONTRIBUTOR>  (5333) 
University of Tokyo Team, {Faculty of Engineering, University of Tokyo

>  <COMMENT>  (5333) 
SMILES=CC(C)COCC(C)C
computed SMILES=O(CC(C)C)CC(C)C
InChI=InChI=1S/C8H18O/c1-7(2)5-9-6-8(3)4/h7-8H,5-6H2,1-4H3
accession=JP001503
date=2016.01.19 (Created 2008.10.21, modified 2011.05.06)
author=YAMAMOTO M, DEP. CHEMISTRY, FAC. SCIENCE, NARA WOMEN'S UNIV.
license=CC BY-NC-SA
exact mass=130.13577
ionization energy=70 eV
ion type=[M]+*
computed spectral entropy=2.0069190099551912
computed normalized entropy=0.659190086789404
SPLASH=splash10-0a4i-9000000000-fd3c9c356f51360f774b
submitter=submitter = University of Tokyo Team (Faculty of Engineering, University of Tokyo)
MoNA Rating=3.75

>  <NUM PEAKS>  (5333) 
21

>  <MASS SPECTRAL PEAKS>  (5333) 
15 1.18
27 7.73
28 1.61
29 18.53
31 1.68
39 6.96
40 1.28
41 27.88
42 3.29
43 4.74
44 1.12
45 2.55
55 2.53
56 5.44
57 99.99
58 4.7
59 1.97
73 1.34
87 10.59
88 1.07
130 4.84

>  <PREDICTED SPECTRUM>  (5333) 
14 6
15 69
26 57
27 301
28 125
29 465
30 20
31 129
37 10
38 34
39 291
40 94
41 657
42 178
43 391
44 12
45 75
53 81
55 141
56 514
57 999
58 266
59 184
60 15
71 102
72 55
73 118
74 31
75 110
87 183
101 27
115 92

$$$$

     RDKit          2D

 12 12  0  0  0  0  0  0  0  0999 V2000
   -2.6849    1.7693    0.0000 C   0  0  0  0  0  0  0  0  0  0  0  0
   -3.4349    3.0684    0.0000 H   0  0  0  0  0  0  0  0  0  0  0  0
   -3.9839    1.0193    0.0000 H   0  0  0  0  0  0  0  0  0  0  0  0
   -1.9349    0.4703    0.0000 H   0  0  0  0  0  0  0  0  0  0  0  0
    2.5113    0.2693    0.0000 C   0  0  0  0  0  0  0  0  0  0  0  0
    2.5118    1.7702    0.0000 C   0  0  0  0  0  0  0  0  0  0  0  0
    1.2118   -0.4815    0.0000 C   0  0  0  0  0  0  0  0  0  0  0  0
    1.2127    2.5202    0.0000 C   0  0  0  0  0  0  0  0  0  0  0  0
   -0.0873    0.2685    0.0000 C   0  0  0  0  0  0  0  0  0  0  0  0
   -1.3858    2.5193    0.0000 C   0  0  0  0  0  0  0  0  0  0  0  0
   -0.0868    1.7693    0.0000 C   0  0  0  0  0  0  0  0  0  0  0  0
   -1.3858    4.0193    0.0000 O   0  0  0  0  0  0  0  0  0  0  0  0
  1  2  1  0
  1  3  1  0
  1  4  1  0
  6  5  2  0
  7  5  1  0
  8  6  1  0
  9  7  2  0
 10  1  1  0
 11  8  2  0
 11  9  1  0
 11 10  1  0
 12 10  2  0
M  ISO  3   2   2   3   2   4   2
M  END
>  <NAME>  (5334) 
(2,2,2,-2H3)ACETOPHENONE

>  <SYNONYMS>  (5334) 


>  <SPECTRUM TYPE>  (5334) 
MS1

>  <INSTRUMENT TYPE>  (5334) 
EI-B

>  <INSTRUMENT>  (5334) 
HITACHI RMU-6M

>  <ION MODE>  (5334) 
P

>  <INCHIKEY>  (5334) 
KWOLFJPFCHCOCG-FIBGUPNXSA-N

>  <FORMULA>  (5334) 
C8H8O

>  <EXACT MASS>  (5334) 
123.076345114

>  <MW>  (5334) 
123

>  <ID>  (5334) 
JP001492

>  <CONTRIBUTOR>  (5334) 
University of Tokyo Team, {Faculty of Engineering, University of Tokyo

>  <COMMENT>  (5334) 
SMILES=[2H]C([2H])([2H])C(=O)c(c1)cccc1
InChI=InChI=1S/C8H8O/c1-7(9)8-5-3-2-4-6-8/h2-6H,1H3/i1D3
computed SMILES=[H]C([H])([H])C(=O)C=1C=CC=CC1
accession=JP001492
date=2016.01.19 (Created 2008.10.21, modified 2011.05.06)
author=YAMAMOTO M, DEP. CHEMISTRY, FAC. SCIENCE, NARA WOMEN'S UNIV.
license=CC BY-NC-SA
exact mass=120.05751
ionization energy=70 eV
ion type=[M]+*
computed spectral entropy=2.2144121882476138
computed normalized entropy=0.6796643875974104
SPLASH=splash10-0a6r-9700000000-d60fa0e8b56fa3eac3dd
submitter=submitter = University of Tokyo Team (Faculty of Engineering, University of Tokyo)
MoNA Rating=3.75

>  <NUM PEAKS>  (5334) 
26

>  <MASS SPECTRAL PEAKS>  (5334) 
18 4.6
27 2.4
28 2.35
37 1.18
38 2.17
38.5 1.15
39 2.73
40 1.34
46 18
50 11.09
51 26.69
52 3.16
52.5 1.42
53 1.32
63 1.12
74 3.78
75 2.56
76 3.03
77 80.93
78 6.47
79 2.57
105 99.99
106 8.11
122 1.37
123 45.45
124 4.37

>  <PREDICTED SPECTRUM>  (5334) 
25 10
26 12
27 4
37 58
38 76
39 166
40 2
46 185
49 45
50 248
51 439
52 153
53 106
54 83
55 29
61 64
62 40
63 51
65 84
74 139
75 73
76 128
77 667
78 179
92 12
93 54
105 999
106 271
107 8
122 204
123 464
124 84

$$$$

     RDKit          2D

  6  5  0  0  0  0  0  0  0  0999 V2000
    0.0000    0.0000    0.0000 C   0  0  0  0  0  0  0  0  0  0  0  0
    1.2990    2.2500    0.0000 C   0  0  0  0  0  0  0  0  0  0  0  0
   -1.2990    2.2500    0.0000 C   0  0  0  0  0  0  0  0  0  0  0  0
   -1.2990    3.7500    0.0000 C   0  0  0  0  0  0  0  0  0  0  0  0
    0.0000    1.5000    0.0000 C   0  0  0  0  0  0  0  0  0  0  0  0
   -2.5981    4.5000    0.0000 O   0  0  0  0  0  0  0  0  0  0  0  0
  4  3  1  0
  5  1  1  0
  5  2  1  0
  5  3  1  0
  6  4  2  0
M  END
>  <NAME>  (5335) 
ISOVALERALDEHYDE

>  <SYNONYMS>  (5335) 


>  <SPECTRUM TYPE>  (5335) 
MS1

>  <INSTRUMENT TYPE>  (5335) 
EI-B

>  <INSTRUMENT>  (5335) 
HITACHI RMU-6M

>  <ION MODE>  (5335) 
P

>  <INCHIKEY>  (5335) 
YGHRJJRRZDOVPD-UHFFFAOYSA-N

>  <FORMULA>  (5335) 
C5H10O

>  <EXACT MASS>  (5335) 
86.07316494

>  <MW>  (5335) 
86

>  <ID>  (5335) 
JP001480

>  <CONTRIBUTOR>  (5335) 
University of Tokyo Team, {Faculty of Engineering, University of Tokyo

>  <COMMENT>  (5335) 
SMILES=O=CCC(C)C
InChI=InChI=1S/C5H10O/c1-5(2)3-4-6/h4-5H,3H2,1-2H3
computed SMILES=O=CCC(C)C
accession=JP001480
date=2016.01.19 (Created 2008.10.21, modified 2011.05.06)
author=YAMAMOTO M, DEP. CHEMISTRY, FAC. SCIENCE, NARA WOMEN'S UNIV.
license=CC BY-NC-SA
exact mass=86.07316
ionization energy=70 eV
ion type=[M]+*
computed spectral entropy=2.5969415612877156
computed normalized entropy=0.7635374457505308
SPLASH=splash10-0006-9000000000-3a38c8f6150bf1f43e74
submitter=submitter = University of Tokyo Team (Faculty of Engineering, University of Tokyo)
MoNA Rating=3.75

>  <NUM PEAKS>  (5335) 
30

>  <MASS SPECTRAL PEAKS>  (5335) 
14 1.21
15 6.09
26 2.76
27 38.9
28 3.09
29 36.36
31 1.24
37 1.58
38 3.63
39 28.51
40 4.14
41 74.13
42 15.33
43 64.42
44 99.99
45 12.65
50 1.61
51 1.61
53 3.38
55 3.31
56 2.08
57 20.3
58 42.79
59 1.93
60 3.38
68 1.13
69 1.15
71 17.68
85 1.63
86 7.44

>  <PREDICTED SPECTRUM>  (5335) 
14 26
15 75
16 12
26 121
27 507
28 293
29 353
30 59
31 273
37 39
38 109
39 504
40 221
41 989
42 549
43 999
44 626
45 214
50 39
51 74
53 297
54 94
56 350
57 537
58 460
59 193
68 104
69 140
71 331
72 24
86 201
87 21

$$$$

     RDKit          2D

  5  4  0  0  0  0  0  0  0  0999 V2000
   -0.0000    0.0000    0.0000 C   0  0  0  0  0  0  0  0  0  0  0  0
   -1.2990    2.2500    0.0000 C   0  0  0  0  0  0  0  0  0  0  0  0
    1.2990    2.2500    0.0000 C   0  0  0  0  0  0  0  0  0  0  0  0
    0.0000    1.5000    0.0000 C   0  0  0  0  0  0  0  0  0  0  0  0
    1.2990    3.7500    0.0000 O   0  0  0  0  0  0  0  0  0  0  0  0
  4  1  1  0
  4  2  1  0
  4  3  1  0
  5  3  2  0
M  END
>  <NAME>  (5336) 
ISOBUTYRALDEHYDE

>  <SYNONYMS>  (5336) 


>  <SPECTRUM TYPE>  (5336) 
MS1

>  <INSTRUMENT TYPE>  (5336) 
EI-B

>  <INSTRUMENT>  (5336) 
HITACHI RMU-6M

>  <ION MODE>  (5336) 
P

>  <INCHIKEY>  (5336) 
AMIMRNSIRUDHCM-UHFFFAOYSA-N

>  <FORMULA>  (5336) 
C4H8O

>  <EXACT MASS>  (5336) 
72.057514876

>  <MW>  (5336) 
72

>  <ID>  (5336) 
JP001478

>  <CONTRIBUTOR>  (5336) 
University of Tokyo Team, {Faculty of Engineering, University of Tokyo

>  <COMMENT>  (5336) 
SMILES=O=CC(C)C
InChI=InChI=1S/C4H8O/c1-4(2)3-5/h3-4H,1-2H3
computed SMILES=O=CC(C)C
accession=JP001478
date=2016.01.19 (Created 2008.10.21, modified 2011.05.06)
author=YAMAMOTO M, DEP. CHEMISTRY, FAC. SCIENCE, NARA WOMEN'S UNIV.
license=CC BY-NC-SA
exact mass=72.05751
ionization energy=70 eV
ion type=[M]+*
computed spectral entropy=2.1962654157109753
computed normalized entropy=0.7459028464338323
SPLASH=splash10-002f-9000000000-987cd15323d99af9f551
submitter=submitter = University of Tokyo Team (Faculty of Engineering, University of Tokyo)
MoNA Rating=3.75

>  <NUM PEAKS>  (5336) 
19

>  <MASS SPECTRAL PEAKS>  (5336) 
14 1.19
15 4.58
26 6.51
27 57.71
28 12.64
29 22.31
31 1.52
37 2.95
38 5.11
39 24.19
40 3.11
41 71.52
42 9.14
43 99.99
44 4.13
55 1.57
57 3.21
72 37.06
73 2.59

>  <PREDICTED SPECTRUM>  (5336) 
14 82
15 197
16 41
17 20
18 54
19 7
25 54
26 238
27 630
28 347
29 582
30 124
31 179
32 71
36 35
37 141
38 217
39 635
40 256
41 915
42 319
43 999
44 451
45 191
51 80
52 24
53 275
54 108
55 78
56 66
57 512
58 19
71 139
72 410
73 119

$$$$

     RDKit          2D

  5  4  0  0  0  0  0  0  0  0999 V2000
   -3.8971    2.2500    0.0000 C   0  0  0  0  0  0  0  0  0  0  0  0
   -2.5981    1.5000    0.0000 C   0  0  0  0  0  0  0  0  0  0  0  0
   -1.2990    2.2500    0.0000 C   0  0  0  0  0  0  0  0  0  0  0  0
    0.0000    1.5000    0.0000 C   0  0  0  0  0  0  0  0  0  0  0  0
    1.2990    2.2500    0.0000 O   0  0  0  0  0  0  0  0  0  0  0  0
  2  1  1  0
  3  2  1  0
  4  3  1  0
  5  4  2  0
M  END
>  <NAME>  (5337) 
BUTYRALDEHYDE

>  <SYNONYMS>  (5337) 


>  <SPECTRUM TYPE>  (5337) 
MS1

>  <INSTRUMENT TYPE>  (5337) 
EI-B

>  <INSTRUMENT>  (5337) 
HITACHI RMU-6M

>  <ION MODE>  (5337) 
P

>  <INCHIKEY>  (5337) 
ZTQSAGDEMFDKMZ-UHFFFAOYSA-N

>  <FORMULA>  (5337) 
C4H8O

>  <EXACT MASS>  (5337) 
72.057514876

>  <MW>  (5337) 
72

>  <ID>  (5337) 
JP001477

>  <CONTRIBUTOR>  (5337) 
University of Tokyo Team, {Faculty of Engineering, University of Tokyo

>  <COMMENT>  (5337) 
SMILES=CCCC=O
InChI=InChI=1S/C4H8O/c1-2-3-4-5/h4H,2-3H2,1H3
computed SMILES=O=CCCC
accession=JP001477
date=2016.01.19 (Created 2008.10.21, modified 2011.05.06)
author=YAMAMOTO M, DEP. CHEMISTRY, FAC. SCIENCE, NARA WOMEN'S UNIV.
license=CC BY-NC-SA
exact mass=72.05751
ionization energy=70 eV
ion type=[M]+*
computed spectral entropy=2.563627797976005
computed normalized entropy=0.7693488770415272
SPLASH=splash10-002f-9000000000-98b59bf5bd3eda9e49fa
submitter=submitter = University of Tokyo Team (Faculty of Engineering, University of Tokyo)
MoNA Rating=3.75

>  <NUM PEAKS>  (5337) 
28

>  <MASS SPECTRAL PEAKS>  (5337) 
14 3.32
15 12.25
25 1.5
26 12.42
27 92.63
28 24.37
29 64.18
30 1.89
31 3
37 4.3
38 7.56
39 36.49
40 4.89
41 74.33
42 10.62
43 77.72
44 99.99
45 3.45
50 1.96
51 1.11
53 1.43
54 2.41
55 1.76
57 25.34
58 1.05
71 6.13
72 58.51
73 3.39

>  <PREDICTED SPECTRUM>  (5337) 
14 42
15 111
16 39
17 6
18 15
25 50
26 255
27 633
28 382
29 527
30 279
31 174
36 39
37 149
38 236
39 732
40 265
41 999
42 616
43 748
44 577
45 133
50 114
51 201
52 26
53 306
54 249
55 190
56 240
57 478
58 10
70 6
71 181
72 182
73 17

$$$$

     RDKit          2D

 14 13  0  0  0  0  0  0  0  0999 V2000
    1.7205   -0.6081    0.0000 C   0  0  0  0  0  0  0  0  0  0  0  0
    0.2205    1.9900    0.0000 C   0  0  0  0  0  0  0  0  0  0  0  0
   -0.3286   -0.0591    0.0000 C   0  0  0  0  0  0  0  0  0  0  0  0
    4.3186    2.8719    0.0000 C   0  0  0  0  0  0  0  0  0  0  0  0
    4.8676    4.9209    0.0000 C   0  0  0  0  0  0  0  0  0  0  0  0
    2.8186    5.4700    0.0000 C   0  0  0  0  0  0  0  0  0  0  0  0
    1.7205    5.4700    0.0000 C   0  0  0  0  0  0  0  0  0  0  0  0
   -0.3286    4.9209    0.0000 C   0  0  0  0  0  0  0  0  0  0  0  0
    0.2205    2.8719    0.0000 C   0  0  0  0  0  0  0  0  0  0  0  0
    2.2695    1.4409    0.0000 C   0  0  0  0  0  0  0  0  0  0  0  0
    2.2695    3.4209    0.0000 C   0  0  0  0  0  0  0  0  0  0  0  0
    0.9705    0.6909    0.0000 C   0  0  0  0  0  0  0  0  0  0  0  0
    3.5686    4.1709    0.0000 Si  0  0  0  0  0  4  0  0  0  0  0  0
    0.9705    4.1709    0.0000 Si  0  0  0  0  0  4  0  0  0  0  0  0
 11 10  1  0
 12  1  1  0
 12  2  1  0
 12  3  1  0
 12 10  1  0
 13  4  1  0
 13  5  1  0
 13  6  1  0
 13 11  1  0
 14  7  1  0
 14  8  1  0
 14  9  1  0
 14 11  1  0
M  END
>  <NAME>  (5338) 
3,3-DIMETHYL-1,1-BIS(TRIMETHYLSILYL)BUTANE

>  <SYNONYMS>  (5338) 


>  <SPECTRUM TYPE>  (5338) 
MS1

>  <INSTRUMENT TYPE>  (5338) 
EI-B

>  <INSTRUMENT>  (5338) 
JEOL JMS-D-3000

>  <ION MODE>  (5338) 
P

>  <INCHIKEY>  (5338) 
BTWDZAHAMUXDLR-UHFFFAOYSA-N

>  <FORMULA>  (5338) 
C12H30Si2

>  <EXACT MASS>  (5338) 
230.18860402

>  <MW>  (5338) 
230

>  <ID>  (5338) 
JP001471

>  <CONTRIBUTOR>  (5338) 
University of Tokyo Team, {Faculty of Engineering, University of Tokyo

>  <COMMENT>  (5338) 
SMILES=CC(C)(C)CC([Si](C)(C)C)[Si](C)(C)C
InChI=InChI=1S/C12H30Si2/c1-12(2,3)10-11(13(4,5)6)14(7,8)9/h11H,10H2,1-9H3
computed SMILES=CC(C)(C)CC([Si](C)(C)C)[Si](C)(C)C
accession=JP001471
date=2016.01.19 (Created 2008.10.21, modified 2011.05.06)
author=MASS SPECTROSCOPY SOC. OF JAPAN (MSSJ)
license=CC BY-NC-SA
exact mass=230.1886
ionization energy=70 eV
ion type=[M]+*
computed spectral entropy=2.317207969838341
computed normalized entropy=0.6953978853226223
SPLASH=splash10-00di-9200000000-ee1d6ff6bf080f2e48df
submitter=submitter = University of Tokyo Team (Faculty of Engineering, University of Tokyo)
MoNA Rating=3.75

>  <NUM PEAKS>  (5338) 
28

>  <MASS SPECTRAL PEAKS>  (5338) 
41 2.63
43 2.42
45 9.3
57 2.7
58 1.18
59 9.49
72 1.67
73 99.99
74 8.01
75 3.69
83 1.09
85 53.19
86 5.53
87 2.26
99 4.41
100 2.79
127 4.65
129 1.2
141 16.21
142 5.07
143 1.2
145 5.12
146 1
157 2.77
173 13.58
174 2.65
175 1.11
215 3.58

>  <PREDICTED SPECTRUM>  (5338) 
27 12
28 2
29 70
31 48
39 87
40 22
41 244
42 30
43 295
44 106
45 304
46 86
47 69
51 14
53 66
54 5
55 243
56 44
57 328
58 116
59 339
60 87
61 76
67 73
68 5
69 185
70 41
71 106
72 120
73 999
74 278
75 359
76 44
77 9
83 127
85 147
86 50
87 102
97 89
99 196
100 117
101 99
102 4
103 61
113 60
114 23
115 169
116 34
117 108
118 55
125 2
127 121
129 422
130 73
131 279
132 144
141 58
142 130
143 157
144 86
145 237
146 112
147 99
156 26
159 193
160 54
161 29
173 251
174 93
175 47
215 184
216 91
230 75
231 31

$$$$

     RDKit          2D

 14 13  0  0  0  0  0  0  0  0999 V2000
    1.7205   -0.6081    0.0000 C   0  0  0  0  0  0  0  0  0  0  0  0
    0.2205    1.9900    0.0000 C   0  0  0  0  0  0  0  0  0  0  0  0
   -0.3286   -0.0591    0.0000 C   0  0  0  0  0  0  0  0  0  0  0  0
    4.3186    2.8719    0.0000 C   0  0  0  0  0  0  0  0  0  0  0  0
    4.8676    4.9209    0.0000 C   0  0  0  0  0  0  0  0  0  0  0  0
    2.8186    5.4700    0.0000 C   0  0  0  0  0  0  0  0  0  0  0  0
    1.7205    5.4700    0.0000 C   0  0  0  0  0  0  0  0  0  0  0  0
   -0.3286    4.9209    0.0000 C   0  0  0  0  0  0  0  0  0  0  0  0
    0.2205    2.8719    0.0000 C   0  0  0  0  0  0  0  0  0  0  0  0
    2.2695    1.4409    0.0000 C   0  0  0  0  0  0  0  0  0  0  0  0
    2.2695    3.4209    0.0000 C   0  0  0  0  0  0  0  0  0  0  0  0
    0.9705    0.6909    0.0000 C   0  0  0  0  0  0  0  0  0  0  0  0
    3.5686    4.1709    0.0000 Si  0  0  0  0  0  4  0  0  0  0  0  0
    0.9705    4.1709    0.0000 Si  0  0  0  0  0  4  0  0  0  0  0  0
 11 10  2  3
 12  1  1  0
 12  2  1  0
 12  3  1  0
 12 10  1  0
 13  4  1  0
 13  5  1  0
 13  6  1  0
 13 11  1  0
 14  7  1  0
 14  8  1  0
 14  9  1  0
 14 11  1  0
M  END
>  <NAME>  (5339) 
1,1-BIS(TRIMETHYLSILYL)-3,3-DIMETHYL-1-BUTENE

>  <SYNONYMS>  (5339) 


>  <SPECTRUM TYPE>  (5339) 
MS1

>  <INSTRUMENT TYPE>  (5339) 
EI-B

>  <INSTRUMENT>  (5339) 
JEOL JMS-D-3000

>  <ION MODE>  (5339) 
P

>  <INCHIKEY>  (5339) 
CLHGWWUIDFQPPX-UHFFFAOYSA-N

>  <FORMULA>  (5339) 
C12H28Si2

>  <EXACT MASS>  (5339) 
228.172953956

>  <MW>  (5339) 
228

>  <ID>  (5339) 
JP001470

>  <CONTRIBUTOR>  (5339) 
University of Tokyo Team, {Faculty of Engineering, University of Tokyo

>  <COMMENT>  (5339) 
SMILES=CC(C)(C)C=C([Si](C)(C)C)[Si](C)(C)C
InChI=InChI=1S/C12H28Si2/c1-12(2,3)10-11(13(4,5)6)14(7,8)9/h10H,1-9H3
computed SMILES=C(=C([Si](C)(C)C)[Si](C)(C)C)C(C)(C)C
accession=JP001470
date=2016.01.19 (Created 2008.10.21, modified 2011.05.06)
author=MASS SPECTROSCOPY SOC. OF JAPAN (MSSJ)
license=CC BY-NC-SA
exact mass=228.17295
ionization energy=70 eV
ion type=[M]+*
computed spectral entropy=2.6397258033591546
computed normalized entropy=0.7485694627455837
SPLASH=splash10-00di-9620000000-b70be0b26afbf3bec1be
submitter=submitter = University of Tokyo Team (Faculty of Engineering, University of Tokyo)
MoNA Rating=3.75

>  <NUM PEAKS>  (5339) 
34

>  <MASS SPECTRAL PEAKS>  (5339) 
41 1.99
43 2.07
45 7.01
57 2.83
59 3.76
67 1.39
73 99.99
74 8.8
75 3.75
83 10.75
84 1.12
85 1.23
97 8.76
98 2.37
99 1.41
109 1.04
123 1.09
125 10.7
126 1.45
139 37.05
140 10.59
141 3.21
154 2.84
155 2.93
171 27.12
172 5.41
173 2.51
185 2.03
213 17.3
214 4.04
215 1.7
228 17.49
229 4.2
230 1.76

>  <PREDICTED SPECTRUM>  (5339) 
27 11
29 30
31 40
39 14
41 50
43 175
45 277
46 35
53 45
54 11
55 86
57 150
58 40
59 353
60 9
66 7
67 74
69 37
71 2
72 33
73 999
74 256
75 159
79 10
81 35
82 7
83 120
85 90
95 20
97 223
98 104
99 87
105 18
109 38
111 49
113 71
115 95
121 9
123 102
125 369
126 91
127 32
129 15
139 419
140 434
141 204
142 14
154 178
155 111
157 16
171 355
172 197
173 96
213 319
214 132
215 41
228 378
229 173
230 89

$$$$

     RDKit          2D

 13 12  0  0  0  0  0  0  0  0999 V2000
    2.0894    3.5724    0.0000 C   0  0  0  0  0  0  0  0  0  0  0  0
   -0.9598    1.0138    0.0000 C   0  0  0  0  0  0  0  0  0  0  0  0
    1.9328    2.6838    0.0000 C   0  0  0  0  0  0  0  0  0  0  0  0
   -3.6557    5.6214    0.0000 C   0  0  0  0  0  0  0  0  0  0  0  0
   -5.7048    5.0724    0.0000 C   0  0  0  0  0  0  0  0  0  0  0  0
   -5.1557    3.0233    0.0000 C   0  0  0  0  0  0  0  0  0  0  0  0
    0.7904    4.3224    0.0000 C   0  0  0  0  0  0  0  0  0  0  0  0
   -1.4728    2.4233    0.0000 C   0  0  0  0  0  0  0  0  0  0  0  0
    0.4556    2.4233    0.0000 C   0  0  0  0  0  0  0  0  0  0  0  0
   -3.1067    3.5724    0.0000 C   0  0  0  0  0  0  0  0  0  0  0  0
   -1.8077    4.3224    0.0000 C   0  0  0  0  0  0  0  0  0  0  0  0
   -4.4057    4.3224    0.0000 C   0  0  0  0  0  0  0  0  0  0  0  0
   -0.5086    3.5724    0.0000 Si  0  0  0  0  0  4  0  0  0  0  0  0
  7  1  1  0
  8  2  1  0
  9  3  1  0
 10 11  2  0
 12  4  1  0
 12  5  1  0
 12  6  1  0
 12 10  1  0
 13  7  1  0
 13  8  1  0
 13  9  1  0
 13 11  1  0
M  END
>  <NAME>  (5340) 
TRANS-1-TRIETHYLSILYL-3,3-DIMETHYL-1-BUTENE

>  <SYNONYMS>  (5340) 


>  <SPECTRUM TYPE>  (5340) 
MS1

>  <INSTRUMENT TYPE>  (5340) 
EI-B

>  <INSTRUMENT>  (5340) 
JEOL JMS-D-3000

>  <ION MODE>  (5340) 
P

>  <INCHIKEY>  (5340) 
NMCXIZRJYSJQHC-ZHACJKMWSA-N

>  <FORMULA>  (5340) 
C12H26Si

>  <EXACT MASS>  (5340) 
198.180377362

>  <MW>  (5340) 
198

>  <ID>  (5340) 
JP001469

>  <CONTRIBUTOR>  (5340) 
University of Tokyo Team, {Faculty of Engineering, University of Tokyo

>  <COMMENT>  (5340) 
SMILES=CC[Si](CC)(CC)C=CC(C)(C)C
InChI=InChI=1S/C12H26Si/c1-7-13(8-2,9-3)11-10-12(4,5)6/h10-11H,7-9H2,1-6H3/b11-10+
computed SMILES=C(=C[Si](CC)(CC)CC)C(C)(C)C
accession=JP001469
date=2016.01.19 (Created 2008.10.21, modified 2011.05.06)
author=MASS SPECTROSCOPY SOC. OF JAPAN (MSSJ)
license=CC BY-NC-SA
exact mass=198.18038
ionization energy=70 eV
ion type=[M]+*
computed spectral entropy=3.2131461610745204
computed normalized entropy=0.8055048913625047
SPLASH=splash10-06du-9700000000-c036ef77ffe74aef122a
submitter=submitter = University of Tokyo Team (Faculty of Engineering, University of Tokyo)
MoNA Rating=3.75

>  <NUM PEAKS>  (5340) 
54

>  <MASS SPECTRAL PEAKS>  (5340) 
41 9.36
43 11.52
45 18.22
46 1.1
53 2.31
54 1.19
55 10.61
56 3.27
57 12.62
58 8.18
59 62.05
60 5.05
61 2.41
63 2.24
67 2.33
69 6.92
70 2.07
71 12.99
72 1.77
73 33.9
74 2.19
75 1.45
81 2.22
83 6.96
84 1.45
85 25.87
86 3.42
87 33.58
88 3.05
89 1.28
95 3.52
97 7.67
98 1.77
99 29.39
100 3.19
101 8.15
109 1.5
111 7.63
112 1.33
113 28.56
114 3.52
115 4.88
125 1.22
127 8.91
128 1.35
139 5.53
140 1.02
141 68.35
142 9.83
143 2.7
169 99.99
170 16.28
171 4.4
198 2.92

>  <PREDICTED SPECTRUM>  (5340) 
26 22
27 109
29 154
31 24
39 92
40 10
41 203
42 1
43 259
44 40
45 273
46 19
47 86
49 12
51 29
53 108
54 9
55 334
56 72
57 420
58 111
59 815
60 278
61 248
62 57
63 55
65 27
67 181
68 40
69 243
70 21
71 271
72 8
73 516
74 161
75 142
76 1
79 8
81 128
83 279
84 42
85 563
86 171
87 965
88 247
89 105
94 12
95 241
97 286
98 25
99 426
100 162
101 347
102 19
103 46
109 24
111 191
112 40
113 698
114 224
115 335
125 24
127 142
137 19
139 106
141 999
142 240
143 50
169 945
170 266
171 142
183 31
198 173
199 26

$$$$

     RDKit          2D

 13 12  0  0  0  0  0  0  0  0999 V2000
    2.0894    3.5724    0.0000 C   0  0  0  0  0  0  0  0  0  0  0  0
   -0.9598    1.0138    0.0000 C   0  0  0  0  0  0  0  0  0  0  0  0
    1.9328    2.6838    0.0000 C   0  0  0  0  0  0  0  0  0  0  0  0
   -3.6557    5.6214    0.0000 C   0  0  0  0  0  0  0  0  0  0  0  0
   -5.7048    5.0724    0.0000 C   0  0  0  0  0  0  0  0  0  0  0  0
   -5.1557    3.0233    0.0000 C   0  0  0  0  0  0  0  0  0  0  0  0
    0.7904    4.3224    0.0000 C   0  0  0  0  0  0  0  0  0  0  0  0
   -1.4728    2.4233    0.0000 C   0  0  0  0  0  0  0  0  0  0  0  0
    0.4556    2.4233    0.0000 C   0  0  0  0  0  0  0  0  0  0  0  0
   -3.1067    3.5724    0.0000 C   0  0  0  0  0  0  0  0  0  0  0  0
   -1.8077    4.3224    0.0000 C   0  0  0  0  0  0  0  0  0  0  0  0
   -4.4057    4.3224    0.0000 Si  0  0  0  0  0  4  0  0  0  0  0  0
   -0.5086    3.5724    0.0000 Si  0  0  0  0  0  4  0  0  0  0  0  0
  7  1  1  0
  8  2  1  0
  9  3  1  0
 10 11  2  0
 12  4  1  0
 12  5  1  0
 12  6  1  0
 12 10  1  0
 13  7  1  0
 13  8  1  0
 13  9  1  0
 13 11  1  0
M  END
>  <NAME>  (5341) 
TRANS-1-TRIETHYLSILYL-2-TRIMETHYLSILYLETHYLENE

>  <SYNONYMS>  (5341) 


>  <SPECTRUM TYPE>  (5341) 
MS1

>  <INSTRUMENT TYPE>  (5341) 
EI-B

>  <INSTRUMENT>  (5341) 
JEOL JMS-D-3000

>  <ION MODE>  (5341) 
P

>  <INCHIKEY>  (5341) 
XGAKZDDPVFAGBU-ZHACJKMWSA-N

>  <FORMULA>  (5341) 
C11H26Si2

>  <EXACT MASS>  (5341) 
214.157303892

>  <MW>  (5341) 
214

>  <ID>  (5341) 
JP001468

>  <CONTRIBUTOR>  (5341) 
University of Tokyo Team, {Faculty of Engineering, University of Tokyo

>  <COMMENT>  (5341) 
SMILES=CC[Si](CC)(CC)C=C[Si](C)(C)C
InChI=InChI=1S/C11H26Si2/c1-7-13(8-2,9-3)11-10-12(4,5)6/h10-11H,7-9H2,1-6H3/b11-10+
computed SMILES=C(=C[Si](CC)(CC)CC)[Si](C)(C)C
accession=JP001468
date=2016.01.19 (Created 2008.10.21, modified 2011.05.06)
author=MASS SPECTROSCOPY SOC. OF JAPAN (MSSJ)
license=CC BY-NC-SA
exact mass=214.1573
ionization energy=70 eV
ion type=[M]+*
computed spectral entropy=3.046530056653469
computed normalized entropy=0.7673315018108616
SPLASH=splash10-000i-9800000000-a0e346ff708f2c2794af
submitter=submitter = University of Tokyo Team (Faculty of Engineering, University of Tokyo)
MoNA Rating=3.75

>  <NUM PEAKS>  (5341) 
53

>  <MASS SPECTRAL PEAKS>  (5341) 
43 6.16
45 13.76
53 1.3
55 4.7
56 1.18
57 6.01
58 5.73
59 40.77
60 3.24
61 1.56
69 2.28
71 7.72
72 1.57
73 99.99
74 8.17
75 4.03
83 9.86
84 1.63
85 3.58
86 1.54
87 99.92
88 10.3
89 3.85
95 1.08
97 4.11
99 1.68
101 50.88
102 5.79
103 2.19
111 10.89
112 5.89
113 5.52
114 1.04
115 14.76
116 1.79
126 15.72
127 6.46
128 1.48
129 4.94
140 3.78
141 2.77
155 1.66
157 39.8
158 7.25
159 3.51
171 2.18
185 94.65
186 20.1
187 8.62
188 1.09
199 4.1
214 7.61
215 1.89

>  <PREDICTED SPECTRUM>  (5341) 
27 80
29 27
43 89
45 198
46 12
47 19
53 25
54 23
55 124
56 5
57 233
58 104
59 737
60 277
61 197
69 106
70 72
71 189
72 77
73 961
74 271
75 60
81 62
82 16
83 286
84 120
85 224
86 177
87 999
88 352
89 276
91 18
95 26
97 138
98 10
99 235
100 80
101 528
102 173
103 152
111 126
112 100
113 242
114 52
115 344
116 43
117 36
125 45
126 85
127 127
128 15
129 368
130 112
131 94
139 41
140 99
141 91
143 58
155 81
156 42
157 744
158 249
159 206
160 11
170 17
171 32
172 1
185 940
186 407
187 300
188 20
199 128
200 39
201 60
213 85
214 212
215 78
216 28

$$$$

     RDKit          2D

 10 10  0  0  0  0  0  0  0  0999 V2000
    1.8487   -2.7991    0.0000 C   0  0  0  0  0  0  0  0  0  0  0  0
    3.8978   -2.2504    0.0000 C   0  0  0  0  0  0  0  0  0  0  0  0
    3.3491   -0.2013    0.0000 C   0  0  0  0  0  0  0  0  0  0  0  0
   -1.3000    0.7500    0.0000 C   0  0  0  0  0  0  0  0  0  0  0  0
    0.0000    1.5000    0.0000 C   0  0  0  0  0  0  0  0  0  0  0  0
   -1.3000   -0.7500    0.0000 C   0  0  0  0  0  0  0  0  0  0  0  0
    1.3000    0.7500    0.0000 C   0  0  0  0  0  0  0  0  0  0  0  0
    0.0000   -1.5000    0.0000 C   0  0  0  0  0  0  0  0  0  0  0  0
    1.3000   -0.7500    0.0000 C   0  0  0  0  0  0  0  0  0  0  0  0
    2.5989   -1.5002    0.0000 Si  0  0  0  0  0  4  0  0  0  0  0  0
  5  4  1  0
  6  4  1  0
  7  5  1  0
  8  6  1  0
  9  7  2  0
  9  8  1  0
 10  1  1  0
 10  2  1  0
 10  3  1  0
 10  9  1  0
M  END
>  <NAME>  (5342) 
1-TRIMETHYLSILYLCYCLOHEXENE

>  <SYNONYMS>  (5342) 


>  <SPECTRUM TYPE>  (5342) 
MS1

>  <INSTRUMENT TYPE>  (5342) 
EI-B

>  <INSTRUMENT>  (5342) 
JEOL JMS-D-3000

>  <ION MODE>  (5342) 
P

>  <INCHIKEY>  (5342) 
GCNCLIUGTVEEBJ-UHFFFAOYSA-N

>  <FORMULA>  (5342) 
C9H18Si

>  <EXACT MASS>  (5342) 
154.117777106

>  <MW>  (5342) 
154

>  <ID>  (5342) 
JP001467

>  <CONTRIBUTOR>  (5342) 
University of Tokyo Team, {Faculty of Engineering, University of Tokyo

>  <COMMENT>  (5342) 
SMILES=C(C1)CC=C(C1)[Si](C)(C)C
InChI=InChI=1S/C9H18Si/c1-10(2,3)9-7-5-4-6-8-9/h7H,4-6,8H2,1-3H3
computed SMILES=C1=C(CCCC1)[Si](C)(C)C
accession=JP001467
date=2016.01.19 (Created 2008.10.21, modified 2011.05.06)
author=MASS SPECTROSCOPY SOC. OF JAPAN (MSSJ)
license=CC BY-NC-SA
exact mass=154.11778
ionization energy=70 eV
ion type=[M]+*
computed spectral entropy=2.283156289904261
computed normalized entropy=0.749922635358049
SPLASH=splash10-00di-9200000000-4ece9969fc9d155396a6
submitter=submitter = University of Tokyo Team (Faculty of Engineering, University of Tokyo)
MoNA Rating=3.75

>  <NUM PEAKS>  (5342) 
21

>  <MASS SPECTRAL PEAKS>  (5342) 
43 8.66
45 10.75
55 2.64
59 44.61
60 3.67
73 99.99
74 8.52
75 4.14
77 2.06
79 30.58
80 21.13
81 2.26
83 2.62
85 3.09
95 2.2
97 2.14
111 3.38
135 3.44
139 38.75
140 5.4
154 9.05

>  <PREDICTED SPECTRUM>  (5342) 
14 1
15 22
26 22
27 174
28 85
29 150
31 126
38 9
39 142
40 25
41 150
43 312
44 124
45 321
46 62
47 32
50 19
51 76
52 68
53 210
54 39
55 183
57 35
58 111
59 386
60 64
61 69
65 136
66 94
67 174
68 27
69 120
70 42
71 79
72 102
73 999
74 282
75 354
76 55
77 86
78 24
79 251
80 162
81 215
82 38
83 216
84 89
85 159
86 58
91 28
93 58
95 189
96 67
97 295
98 160
99 94
100 24
107 18
109 96
111 414
112 160
113 48
123 98
125 96
126 74
127 65
137 54
138 11
139 418
140 112
141 39
153 79
154 336
155 129
156 41

$$$$

     RDKit          2D

  9  8  0  0  0  0  0  0  0  0999 V2000
    1.2255   -0.4755    0.0000 C   0  0  0  0  0  0  0  0  0  0  0  0
   -0.2745    2.1226    0.0000 C   0  0  0  0  0  0  0  0  0  0  0  0
   -0.8236    0.0736    0.0000 C   0  0  0  0  0  0  0  0  0  0  0  0
    3.0736    5.3236    0.0000 C   0  0  0  0  0  0  0  0  0  0  0  0
    4.3726    3.0736    0.0000 C   0  0  0  0  0  0  0  0  0  0  0  0
    1.7745    1.5736    0.0000 C   0  0  0  0  0  0  0  0  0  0  0  0
    1.7745    3.0736    0.0000 C   0  0  0  0  0  0  0  0  0  0  0  0
    0.4755    0.8236    0.0000 C   0  0  0  0  0  0  0  0  0  0  0  0
    3.0736    3.8236    0.0000 Si  0  0  0  0  0  4  0  0  0  0  0  0
  6  7  2  0
  8  1  1  0
  8  2  1  0
  8  3  1  0
  8  6  1  0
  9  4  1  0
  9  5  1  0
  9  7  1  0
M  END
>  <NAME>  (5343) 
TRANS-1-DIMETHYLHYDROSILYL-3,3-DIMETHYL-1-BUTENE

>  <SYNONYMS>  (5343) 


>  <SPECTRUM TYPE>  (5343) 
MS1

>  <INSTRUMENT TYPE>  (5343) 
EI-B

>  <INSTRUMENT>  (5343) 
JEOL JMS-D-3000

>  <ION MODE>  (5343) 
P

>  <INCHIKEY>  (5343) 
AQHDHCUGDPHLTD-VOTSOKGWSA-N

>  <FORMULA>  (5343) 
C8H18Si

>  <EXACT MASS>  (5343) 
142.117777106

>  <MW>  (5343) 
142

>  <ID>  (5343) 
JP001466

>  <CONTRIBUTOR>  (5343) 
University of Tokyo Team, {Faculty of Engineering, University of Tokyo

>  <COMMENT>  (5343) 
SMILES=C[SiH](C)C=CC(C)(C)C
InChI=InChI=1S/C8H18Si/c1-8(2,3)6-7-9(4)5/h6-7,9H,1-5H3/b7-6+
computed SMILES=C(=CC(C)(C)C)[SiH](C)C
accession=JP001466
date=2016.01.19 (Created 2008.10.21, modified 2011.05.06)
author=MASS SPECTROSCOPY SOC. OF JAPAN (MSSJ)
license=CC BY-NC-SA
exact mass=142.11778
ionization energy=70 eV
ion type=[M]+*
computed spectral entropy=3.0297582648992822
computed normalized entropy=0.7913403087783575
SPLASH=splash10-0pj0-9200000000-d8fd1786d6dde2f2e8d9
submitter=submitter = University of Tokyo Team (Faculty of Engineering, University of Tokyo)
MoNA Rating=3.75

>  <NUM PEAKS>  (5343) 
46

>  <MASS SPECTRAL PEAKS>  (5343) 
43 17.48
45 7.77
46 1.03
53 3.52
54 1.21
55 15.04
56 3.65
57 7.61
58 15.89
59 99.99
60 8.21
61 3.46
66 1.03
67 14.89
68 1.12
69 6.71
70 1.74
71 5.8
72 30
73 64.84
74 3.59
75 2.68
81 1.87
82 36.77
83 27.47
84 3.46
85 66.84
86 22.57
87 7.08
88 1.15
95 1.62
97 2.18
99 28.34
100 86.2
101 10.77
102 3.15
109 1.31
111 3.02
113 1.74
125 3.21
126 1.46
127 14.73
128 1.77
141 3.15
142 13.14
143 1.87

>  <PREDICTED SPECTRUM>  (5343) 
14 5
15 78
25 5
26 129
27 423
28 185
29 407
30 13
31 136
37 50
38 120
39 581
40 239
41 796
42 354
43 699
44 249
45 253
46 54
49 13
50 166
51 268
52 215
53 420
54 119
55 581
56 209
57 698
58 514
59 773
60 180
61 213
62 134
63 163
64 9
65 225
66 148
67 450
68 176
69 467
70 295
71 651
72 472
73 524
74 254
75 123
79 107
81 261
82 80
83 384
84 195
85 999
86 374
87 216
88 98
95 82
97 348
98 135
99 629
100 344
101 191
102 64
111 184
112 72
113 274
114 126
115 44
125 203
126 152
127 911
128 296
129 75
141 78
142 604
143 186

$$$$

     RDKit          2D

  9  9  0  0  0  0  0  0  0  0999 V2000
    0.4324   -2.7078    0.0000 C   0  0  0  0  0  0  0  0  0  0  0  0
    2.0816   -1.3735    0.0000 C   0  0  0  0  0  0  0  0  0  0  0  0
    0.7473    0.2757    0.0000 C   0  0  0  0  0  0  0  0  0  0  0  0
   -3.1116   -0.0712    0.0000 C   0  0  0  0  0  0  0  0  0  0  0  0
   -3.2774   -1.5641    0.0000 C   0  0  0  0  0  0  0  0  0  0  0  0
   -1.6519    0.2404    0.0000 C   0  0  0  0  0  0  0  0  0  0  0  0
   -1.9016   -2.1670    0.0000 C   0  0  0  0  0  0  0  0  0  0  0  0
   -0.9019   -1.0586    0.0000 C   0  0  0  0  0  0  0  0  0  0  0  0
    0.5899   -1.2160    0.0000 Si  0  0  0  0  0  4  0  0  0  0  0  0
  5  4  1  0
  6  4  1  0
  7  5  1  0
  8  6  2  0
  8  7  1  0
  9  1  1  0
  9  2  1  0
  9  3  1  0
  9  8  1  0
M  END
>  <NAME>  (5344) 
1-TRIMETHYLSILYLCYCLOPENTENE

>  <SYNONYMS>  (5344) 


>  <SPECTRUM TYPE>  (5344) 
MS1

>  <INSTRUMENT TYPE>  (5344) 
EI-B

>  <INSTRUMENT>  (5344) 
JEOL JMS-D-3000

>  <ION MODE>  (5344) 
P

>  <INCHIKEY>  (5344) 
NCRSFPYUKGCMLQ-UHFFFAOYSA-N

>  <FORMULA>  (5344) 
C8H16Si

>  <EXACT MASS>  (5344) 
140.102127042

>  <MW>  (5344) 
140

>  <ID>  (5344) 
JP001465

>  <CONTRIBUTOR>  (5344) 
University of Tokyo Team, {Faculty of Engineering, University of Tokyo

>  <COMMENT>  (5344) 
SMILES=C[Si](C)(C)C(C1)=CCC1
InChI=InChI=1S/C8H16Si/c1-9(2,3)8-6-4-5-7-8/h6H,4-5,7H2,1-3H3
computed SMILES=C1=C(CCC1)[Si](C)(C)C
accession=JP001465
date=2016.01.19 (Created 2008.10.21, modified 2011.05.06)
author=MASS SPECTROSCOPY SOC. OF JAPAN (MSSJ)
license=CC BY-NC-SA
exact mass=140.10213
ionization energy=70 eV
ion type=[M]+*
computed spectral entropy=2.446885474317158
computed normalized entropy=0.6938840930291713
SPLASH=splash10-004j-9600000000-44588662974e31897e89
submitter=submitter = University of Tokyo Team (Faculty of Engineering, University of Tokyo)
MoNA Rating=3.75

>  <NUM PEAKS>  (5344) 
34

>  <MASS SPECTRAL PEAKS>  (5344) 
41 1.16
43 8.66
45 8.71
53 2.3
55 3.33
57 1.18
58 1.78
59 17.82
60 1.46
66 3.34
67 2.81
69 5.58
71 1.56
72 1.52
73 6.82
74 5.6
75 2.88
80 2.39
81 2.08
83 4.69
85 1.1
93 1.14
95 2.41
96 1.03
97 80.39
98 9.37
99 3.53
109 1.75
123 1.13
125 99.99
126 13.49
127 4.35
140 19.05
141 2.7

>  <PREDICTED SPECTRUM>  (5344) 
14 3
15 20
26 12
27 110
28 25
29 10
31 38
38 5
39 135
40 7
41 146
43 330
44 122
45 317
46 18
47 39
50 20
51 74
52 74
53 218
55 181
57 74
58 45
59 319
60 56
61 38
65 137
66 79
67 247
68 47
69 191
70 56
71 75
72 104
73 999
74 283
75 403
76 46
77 49
79 147
80 15
81 205
82 34
83 276
84 201
85 139
86 15
91 62
93 43
95 121
97 415
98 204
99 90
107 26
108 37
109 154
111 84
112 159
123 84
124 20
125 512
126 56
127 24
139 68
140 487
141 192
142 73

$$$$

     RDKit          2D

  8  7  0  0  0  0  0  0  0  0999 V2000
    1.1209    2.2500    0.0000 C   0  0  0  0  0  0  0  0  0  0  0  0
   -4.0753    2.2500    0.0000 C   0  0  0  0  0  0  0  0  0  0  0  0
    0.9642    1.3614    0.0000 C   0  0  0  0  0  0  0  0  0  0  0  0
   -2.4414    1.1009    0.0000 C   0  0  0  0  0  0  0  0  0  0  0  0
   -0.1782    3.0000    0.0000 C   0  0  0  0  0  0  0  0  0  0  0  0
   -2.7762    3.0000    0.0000 C   0  0  0  0  0  0  0  0  0  0  0  0
   -0.5130    1.1009    0.0000 C   0  0  0  0  0  0  0  0  0  0  0  0
   -1.4772    2.2500    0.0000 Si  0  0  0  0  0  4  0  0  0  0  0  0
  5  1  1  0
  6  2  1  0
  7  3  1  0
  8  4  1  0
  8  5  1  0
  8  6  1  0
  8  7  1  0
M  END
>  <NAME>  (5345) 
TRIETHYLMETHYLSILANE

>  <SYNONYMS>  (5345) 


>  <SPECTRUM TYPE>  (5345) 
MS1

>  <INSTRUMENT TYPE>  (5345) 
EI-B

>  <INSTRUMENT>  (5345) 
JEOL JMS-D-3000

>  <ION MODE>  (5345) 
P

>  <INCHIKEY>  (5345) 
JCSVHJQZTMYYFL-UHFFFAOYSA-N

>  <FORMULA>  (5345) 
C7H18Si

>  <EXACT MASS>  (5345) 
130.117777106

>  <MW>  (5345) 
130

>  <ID>  (5345) 
JP001464

>  <CONTRIBUTOR>  (5345) 
University of Tokyo Team, {Faculty of Engineering, University of Tokyo

>  <COMMENT>  (5345) 
SMILES=CC[Si](C)(CC)CC
InChI=InChI=1S/C7H18Si/c1-5-8(4,6-2)7-3/h5-7H2,1-4H3
computed SMILES=CC[Si](C)(CC)CC
accession=JP001464
date=2016.01.19 (Created 2008.10.21, modified 2011.05.06)
author=MASS SPECTROSCOPY SOC. OF JAPAN (MSSJ)
license=CC BY-NC-SA
exact mass=130.11778
ionization energy=70 eV
ion type=[M]+*
computed spectral entropy=1.880015083767259
computed normalized entropy=0.6275644523924364
SPLASH=splash10-0fk9-9600000000-10b8aaddbc4dfc367c59
submitter=submitter = University of Tokyo Team (Faculty of Engineering, University of Tokyo)
MoNA Rating=3.75

>  <NUM PEAKS>  (5345) 
20

>  <MASS SPECTRAL PEAKS>  (5345) 
43 2.14
45 21.95
47 1.15
53 1.07
55 2.59
57 3.45
58 1.05
70 1.13
71 3.45
72 4
73 99.99
74 3.68
75 4.79
87 7.15
101 85.6
102 9.28
103 3.94
115 3.41
130 8.84
131 1.36

>  <PREDICTED SPECTRUM>  (5345) 
27 53
29 43
31 54
43 204
44 172
45 505
46 79
47 207
48 8
51 4
52 10
53 14
54 17
57 124
58 6
59 153
63 14
69 29
71 201
72 120
73 999
74 280
75 230
76 48
77 15
87 94
99 23
101 981
102 372
103 260
104 63
115 48
129 33
130 253
131 88

$$$$

     RDKit          2D

 22 24  0  0  0  0  0  0  0  0999 V2000
    1.7600    4.4500    0.0000 C   0  0  0  0  0  0  0  0  0  0  0  0
   -4.7289    0.7002    0.0000 C   0  0  0  0  0  0  0  0  0  0  0  0
    4.3589    2.9502    0.0000 C   0  0  0  0  0  0  0  0  0  0  0  0
   -4.7289   -2.3002    0.0000 C   0  0  0  0  0  0  0  0  0  0  0  0
    2.2727   -2.9596    0.0000 C   0  0  0  0  0  0  0  0  0  0  0  0
    3.2372   -1.2897    0.0000 C   0  0  0  0  0  0  0  0  0  0  0  0
   -0.5066   -3.4470    0.0000 C   0  0  0  0  0  0  0  0  0  0  0  0
    1.4228   -3.4502    0.0000 C   0  0  0  0  0  0  0  0  0  0  0  0
    0.4600    2.2000    0.0000 C   0  0  0  0  0  0  0  0  0  0  0  0
   -2.1300    0.7000    0.0000 C   0  0  0  0  0  0  0  0  0  0  0  0
    3.0600    0.7000    0.0000 C   0  0  0  0  0  0  0  0  0  0  0  0
   -2.1300   -2.3000    0.0000 C   0  0  0  0  0  0  0  0  0  0  0  0
    1.7600    2.9500    0.0000 C   0  0  0  0  0  0  0  0  0  0  0  0
   -3.4300   -0.0500    0.0000 C   0  0  0  0  0  0  0  0  0  0  0  0
    3.0600    2.2000    0.0000 C   0  0  0  0  0  0  0  0  0  0  0  0
   -3.4300   -1.5500    0.0000 C   0  0  0  0  0  0  0  0  0  0  0  0
    0.4600    0.7000    0.0000 C   0  0  0  0  0  0  0  0  0  0  0  0
   -0.8300   -0.0500    0.0000 C   0  0  0  0  0  0  0  0  0  0  0  0
    1.7600   -0.0500    0.0000 C   0  0  0  0  0  0  0  0  0  0  0  0
   -0.8300   -1.5500    0.0000 C   0  0  0  0  0  0  0  0  0  0  0  0
    1.7600   -1.5500    0.0000 Si  0  0  0  0  0  4  0  0  0  0  0  0
    0.4600   -2.3000    0.0000 Si  0  0  0  0  0  4  0  0  0  0  0  0
 13  1  1  0
 13  9  2  0
 14  2  1  0
 14 10  1  0
 15  3  1  0
 15 11  2  0
 15 13  1  0
 16  4  1  0
 16 12  1  0
 16 14  2  0
 17  9  1  0
 18 10  2  0
 18 17  1  0
 19 11  1  0
 19 17  2  0
 20 12  2  0
 20 18  1  0
 21  5  1  0
 21  6  1  0
 21 19  1  0
 22  7  1  0
 22  8  1  0
 22 20  1  0
 22 21  1  0
M  END
>  <NAME>  (5346) 
(1,2,1',2'-TETRAMETHYLDIBENZO(4,5-C,4',5'-E))-1,1,2,2-TETRAMETHYL-1,2-DISILACYCLOHEXA-3,5-DIENE

>  <SYNONYMS>  (5346) 


>  <SPECTRUM TYPE>  (5346) 
MS1

>  <INSTRUMENT TYPE>  (5346) 
EI-B

>  <INSTRUMENT>  (5346) 
JEOL JMS-D-3000

>  <ION MODE>  (5346) 
P

>  <INCHIKEY>  (5346) 
FUJMQEAHBZWDST-UHFFFAOYSA-N

>  <FORMULA>  (5346) 
C20H28Si2

>  <EXACT MASS>  (5346) 
324.172953956

>  <MW>  (5346) 
324

>  <ID>  (5346) 
JP001463

>  <CONTRIBUTOR>  (5346) 
University of Tokyo Team, {Faculty of Engineering, University of Tokyo

>  <COMMENT>  (5346) 
SMILES=Cc(c(C)3)cc(c21)c(c3)[Si](C)(C)[Si](C)(C)c(cc(C)c(C)c2)1
InChI=InChI=1S/C20H28Si2/c1-13-9-17-18-10-14(2)16(4)12-20(18)22(7,8)21(5,6)19(17)11-15(13)3/h9-12H,1-8H3
computed SMILES=C=1C=2C=3C=C(C(=CC3[Si](C)(C)[Si](C2C=C(C1C)C)(C)C)C)C
accession=JP001463
date=2016.01.19 (Created 2008.10.21, modified 2011.05.06)
author=MASS SPECTROSCOPY SOC. OF JAPAN (MSSJ)
license=CC BY-NC-SA
exact mass=324.17295
ionization energy=70 eV
ion type=[M]+*
computed spectral entropy=2.823501569660391
computed normalized entropy=0.72174973555693
SPLASH=splash10-0udi-1092000000-763f88f2f0d25511f86b
submitter=submitter = University of Tokyo Team (Faculty of Engineering, University of Tokyo)
MoNA Rating=3.75

>  <NUM PEAKS>  (5346) 
50

>  <MASS SPECTRAL PEAKS>  (5346) 
43 2.13
44 21.1
45 2.16
58 2.02
59 1.72
73 4.26
77 1.08
78 2.57
91 3.58
105 1.01
117 2.84
118 2.13
126 1.79
163 3.88
165 1.35
178 1.04
179 1.31
180 1.11
192 1.11
194 1.21
195 1.42
203 1.11
205 1.72
206 2.7
210 3.75
219 1.89
220 1.45
221 4.63
222 1.18
233 1.14
234 1.01
235 3.04
236 2.33
237 1.72
249 1.85
250 2.87
251 99.99
252 25.53
253 6.93
254 1.31
265 1.42
266 12.03
267 2.97
268 1.04
309 6.56
310 2.67
323 1.18
324 21.27
325 9.29
326 2.84

>  <PREDICTED SPECTRUM>  (5346) 
41 11
43 79
44 20
45 80
57 36
58 103
59 74
65 10
73 235
74 72
75 30
77 75
78 19
81 19
91 28
93 37
103 21
105 25
115 69
116 84
117 72
118 82
119 70
120 9
121 18
129 64
130 8
131 40
135 5
141 41
143 26
145 70
146 71
147 49
150 53
151 38
153 1
155 6
162 4
163 142
164 101
165 188
166 30
167 56
172 48
175 2
177 48
178 68
179 144
180 32
181 35
187 3
189 23
191 0
193 25
194 57
195 81
196 7
205 50
206 24
207 16
208 31
217 25
219 63
220 50
221 107
222 47
234 67
235 107
236 217
237 119
238 65
239 31
248 4
249 102
250 129
251 999
252 547
253 344
254 147
265 95
266 248
267 193
268 60
309 213
310 121
324 537
325 308
326 152
327 21

$$$$

     RDKit          2D

 20 23  0  0  0  0  0  0  0  0999 V2000
    1.0039    2.9546    0.0000 C   0  0  0  0  0  0  0  0  0  0  0  0
   -3.0138    5.1839    0.0000 C   0  0  0  0  0  0  0  0  0  0  0  0
   -1.5458    5.4960    0.0000 C   0  0  0  0  0  0  0  0  0  0  0  0
   -3.4769    3.7572    0.0000 C   0  0  0  0  0  0  0  0  0  0  0  0
    3.2200   -1.2700    0.0000 C   0  0  0  0  0  0  0  0  0  0  0  0
   -3.2200   -1.2700    0.0000 C   0  0  0  0  0  0  0  0  0  0  0  0
    3.6900    0.1600    0.0000 C   0  0  0  0  0  0  0  0  0  0  0  0
   -3.6800    0.1600    0.0000 C   0  0  0  0  0  0  0  0  0  0  0  0
   -0.5408    4.3813    0.0000 C   0  0  0  0  0  0  0  0  0  0  0  0
   -2.4719    2.6425    0.0000 C   0  0  0  0  0  0  0  0  0  0  0  0
    1.7500   -1.5800    0.0000 C   0  0  0  0  0  0  0  0  0  0  0  0
   -1.7500   -1.5800    0.0000 C   0  0  0  0  0  0  0  0  0  0  0  0
    2.6800    1.2700    0.0000 C   0  0  0  0  0  0  0  0  0  0  0  0
   -2.6800    1.2700    0.0000 C   0  0  0  0  0  0  0  0  0  0  0  0
   -1.0039    2.9546    0.0000 C   0  0  0  0  0  0  0  0  0  0  0  0
    0.7500   -0.4700    0.0000 C   0  0  0  0  0  0  0  0  0  0  0  0
   -0.7500   -0.4700    0.0000 C   0  0  0  0  0  0  0  0  0  0  0  0
    1.2100    0.9600    0.0000 C   0  0  0  0  0  0  0  0  0  0  0  0
   -1.2100    0.9600    0.0000 C   0  0  0  0  0  0  0  0  0  0  0  0
    0.0000    1.8400    0.0000 Si  0  0  0  0  0  4  0  0  0  0  0  0
  3  2  2  0
  4  2  1  0
  7  5  2  0
  8  6  2  0
  9  3  1  0
 10  4  2  0
 11  5  1  0
 12  6  1  0
 13  7  1  0
 14  8  1  0
 15  9  2  0
 15 10  1  0
 16 11  2  0
 17 12  2  0
 17 16  1  0
 18 13  2  0
 18 16  1  0
 19 14  2  0
 19 17  1  0
 20  1  1  0
 20 15  1  0
 20 18  1  0
 20 19  1  0
M  END
>  <NAME>  (5347) 
9-METHYL-9-PHENYL-9-SILAFLUORENE

>  <SYNONYMS>  (5347) 


>  <SPECTRUM TYPE>  (5347) 
MS1

>  <INSTRUMENT TYPE>  (5347) 
EI-B

>  <INSTRUMENT>  (5347) 
JEOL JMS-D-3000

>  <ION MODE>  (5347) 
P

>  <INCHIKEY>  (5347) 
FWZYOTZZKGUNHT-UHFFFAOYSA-N

>  <FORMULA>  (5347) 
C19H16Si

>  <EXACT MASS>  (5347) 
272.102127042

>  <MW>  (5347) 
272

>  <ID>  (5347) 
JP001462

>  <CONTRIBUTOR>  (5347) 
University of Tokyo Team, {Faculty of Engineering, University of Tokyo

>  <COMMENT>  (5347) 
SMILES=c(c4)ccc(c4)[Si](C)(c21)c(c3)c(ccc3)c(cccc2)1
InChI=InChI=1S/C19H16Si/c1-20(15-9-3-2-4-10-15)18-13-7-5-11-16(18)17-12-6-8-14-19(17)20/h2-14H,1H3
computed SMILES=C=1C=CC(=CC1)[Si]2(C=3C=CC=CC3C=4C=CC=CC42)C
accession=JP001462
date=2016.01.19 (Created 2008.10.21, modified 2011.05.06)
author=MASS SPECTROSCOPY SOC. OF JAPAN (MSSJ)
license=CC BY-NC-SA
exact mass=272.10213
ionization energy=70 eV
ion type=[M]+*
computed spectral entropy=2.5881363010207927
computed normalized entropy=0.6969398343513747
SPLASH=splash10-0a4i-0290000000-24bcd99cd1eee9a1f469
submitter=submitter = University of Tokyo Team (Faculty of Engineering, University of Tokyo)
MoNA Rating=3.75

>  <NUM PEAKS>  (5347) 
41

>  <MASS SPECTRAL PEAKS>  (5347) 
44 1.37
53 3.7
77 1.6
78 1.11
91 1.23
103 1.33
105 2.55
127 1.37
128 2
129 8.51
135 1.11
136 7.01
153 2.16
154 1.45
155 1.54
165 7.39
166 1.58
167 1.23
179 3.48
180 3.72
181 2.57
193 1.52
195 6.77
196 1.31
202 1.27
205 2.97
226 1.33
227 1.07
228 2.87
229 3.2
230 1.17
231 1.25
254 2.79
255 7.54
257 99.99
258 28.31
259 6.4
260 1.03
272 46.56
273 11.91
274 3.16

>  <PREDICTED SPECTRUM>  (5347) 
43 9
57 14
76 11
77 44
83 23
91 36
104 9
105 138
113 10
120 24
135 11
150 21
151 88
152 140
153 63
164 52
165 199
166 130
167 149
168 28
178 36
179 163
180 196
181 166
183 72
193 71
194 105
195 409
196 192
197 50
201 52
202 66
213 60
214 6
227 39
228 105
229 98
230 12
231 0
239 16
240 56
242 35
243 64
255 151
256 64
257 999
258 498
259 229
260 36
271 38
272 589
273 341
274 131

$$$$

     RDKit          2D

 21 23  0  0  0  0  0  0  0  0999 V2000
   -4.4587    1.6852    0.0000 C   0  0  0  0  0  0  0  0  0  0  0  0
   -4.4587   -0.1852    0.0000 C   0  0  0  0  0  0  0  0  0  0  0  0
   -1.8236   -2.2867    0.0000 C   0  0  0  0  0  0  0  0  0  0  0  0
   -0.0000   -1.8705    0.0000 C   0  0  0  0  0  0  0  0  0  0  0  0
   -4.0975   -0.9352    0.0000 C   0  0  0  0  0  0  0  0  0  0  0  0
   -2.6351   -2.1015    0.0000 C   0  0  0  0  0  0  0  0  0  0  0  0
   -1.7509    4.9682    0.0000 C   0  0  0  0  0  0  0  0  0  0  0  0
    2.5981    1.5000    0.0000 C   0  0  0  0  0  0  0  0  0  0  0  0
   -3.2133    4.6344    0.0000 C   0  0  0  0  0  0  0  0  0  0  0  0
    2.5981   -0.0000    0.0000 C   0  0  0  0  0  0  0  0  0  0  0  0
   -0.7306    3.8686    0.0000 C   0  0  0  0  0  0  0  0  0  0  0  0
    1.2990    2.2500    0.0000 C   0  0  0  0  0  0  0  0  0  0  0  0
   -3.6554    3.2010    0.0000 C   0  0  0  0  0  0  0  0  0  0  0  0
    1.2990   -0.7500    0.0000 C   0  0  0  0  0  0  0  0  0  0  0  0
   -1.1727    2.4352    0.0000 C   0  0  0  0  0  0  0  0  0  0  0  0
    0.0000    1.5000    0.0000 C   0  0  0  0  0  0  0  0  0  0  0  0
   -2.6351    2.1015    0.0000 C   0  0  0  0  0  0  0  0  0  0  0  0
   -0.0000   -0.0000    0.0000 C   0  0  0  0  0  0  0  0  0  0  0  0
   -3.2860    0.7500    0.0000 Si  0  0  0  0  0  4  0  0  0  0  0  0
   -1.1727   -0.9352    0.0000 Si  0  0  0  0  0  4  0  0  0  0  0  0
   -2.6351   -0.6015    0.0000 Si  0  0  0  0  0  4  0  0  0  0  0  0
  9  7  2  0
 10  8  2  0
 11  7  1  0
 12  8  1  0
 13  9  1  0
 14 10  1  0
 15 11  2  0
 16 12  2  0
 16 15  1  0
 17 13  2  0
 17 15  1  0
 18 14  2  0
 18 16  1  0
 19  1  1  0
 19  2  1  0
 19 17  1  0
 20  3  1  0
 20  4  1  0
 20 18  1  0
 21  5  1  0
 21  6  1  0
 21 19  1  0
 21 20  1  0
M  END
>  <NAME>  (5348) 
DIBENZO(D,F)-1,1,2,2,3,3-HEXAMETHYL-1,2,3-TRISILACYCLOHEPTA-4,6-DIENE

>  <SYNONYMS>  (5348) 


>  <SPECTRUM TYPE>  (5348) 
MS1

>  <INSTRUMENT TYPE>  (5348) 
EI-B

>  <INSTRUMENT>  (5348) 
JEOL JMS-D-3000

>  <ION MODE>  (5348) 
P

>  <INCHIKEY>  (5348) 
YFNCLGLQJVKJLI-UHFFFAOYSA-N

>  <FORMULA>  (5348) 
C18H26Si3

>  <EXACT MASS>  (5348) 
326.134230422

>  <MW>  (5348) 
326

>  <ID>  (5348) 
JP001461

>  <CONTRIBUTOR>  (5348) 
University of Tokyo Team, {Faculty of Engineering, University of Tokyo

>  <COMMENT>  (5348) 
SMILES=c(c3)cc(c21)c(c3)[Si](C)(C)[Si](C)(C)[Si](C)(C)c(cccc2)1
InChI=InChI=1S/C18H26Si3/c1-19(2)17-13-9-7-11-15(17)16-12-8-10-14-18(16)20(3,4)21(19,5)6/h7-14H,1-6H3
computed SMILES=C=1C=CC2=C(C1)C=3C=CC=CC3[Si](C)(C)[Si](C)(C)[Si]2(C)C
ion type=[M]+*
accession=JP001461
date=2016.01.19 (Created 2008.10.21, modified 2011.05.06)
author=MASS SPECTROSCOPY SOC. OF JAPAN (MSSJ)
license=CC BY-NC-SA
exact mass=326.13423
ionization energy=70 eV
computed spectral entropy=1.890558174455572
computed normalized entropy=0.6310838225248699
SPLASH=splash10-014i-2900000000-b6e405e69c6a6c2af101
submitter=submitter = University of Tokyo Team (Faculty of Engineering, University of Tokyo)
MoNA Rating=3.75

>  <NUM PEAKS>  (5348) 
20

>  <MASS SPECTRAL PEAKS>  (5348) 
43 2.87
45 3.59
59 2.79
73 32.5
74 2.66
75 1.35
101 6.64
115 1.32
116 99.99
117 16.82
118 9
131 1.02
165 3.66
193 1.07
195 10.88
196 2.25
253 1.89
311 1.03
326 2.73
327 0.99

>  <PREDICTED SPECTRUM>  (5348) 
41 5
43 177
44 35
45 341
57 26
58 42
59 163
60 5
61 4
67 46
69 25
71 9
73 841
74 104
75 50
79 12
81 8
85 39
87 46
91 22
93 61
95 32
105 61
113 7
116 392
117 82
119 59
120 7
121 90
129 52
131 197
133 36
135 203
151 2
152 20
155 11
161 89
163 55
165 102
166 37
167 71
176 26
177 21
178 19
179 106
181 46
191 8
193 98
194 37
195 478
196 199
197 213
213 26
223 131
225 40
237 52
238 302
239 128
251 122
252 115
253 999
254 454
255 220
256 71
311 183
312 94
326 463
327 284
328 163
329 22

$$$$

     RDKit          2D

 21 23  0  0  0  0  0  0  0  0999 V2000
    2.0476   -0.0476    0.0000 C   0  0  0  0  0  0  0  0  0  0  0  0
    1.9369    2.0708    0.0000 C   0  0  0  0  0  0  0  0  0  0  0  0
   -0.5382    2.2814    0.0000 C   0  0  0  0  0  0  0  0  0  0  0  0
    0.4673    3.6372    0.0000 C   0  0  0  0  0  0  0  0  0  0  0  0
   -2.7211    2.7842    0.0000 C   0  0  0  0  0  0  0  0  0  0  0  0
   -2.8317    0.6657    0.0000 C   0  0  0  0  0  0  0  0  0  0  0  0
    3.1492   -3.2683    0.0000 C   0  0  0  0  0  0  0  0  0  0  0  0
   -3.2908   -3.2683    0.0000 C   0  0  0  0  0  0  0  0  0  0  0  0
    3.6192   -1.8383    0.0000 C   0  0  0  0  0  0  0  0  0  0  0  0
   -3.7508   -1.8383    0.0000 C   0  0  0  0  0  0  0  0  0  0  0  0
    1.6792   -3.5783    0.0000 C   0  0  0  0  0  0  0  0  0  0  0  0
   -1.8208   -3.5783    0.0000 C   0  0  0  0  0  0  0  0  0  0  0  0
    2.6092   -0.7283    0.0000 C   0  0  0  0  0  0  0  0  0  0  0  0
   -2.7508   -0.7283    0.0000 C   0  0  0  0  0  0  0  0  0  0  0  0
    0.6792   -2.4683    0.0000 C   0  0  0  0  0  0  0  0  0  0  0  0
   -0.8208   -2.4683    0.0000 C   0  0  0  0  0  0  0  0  0  0  0  0
    1.1392   -1.0383    0.0000 C   0  0  0  0  0  0  0  0  0  0  0  0
   -1.2808   -1.0383    0.0000 C   0  0  0  0  0  0  0  0  0  0  0  0
    0.9330    0.9563    0.0000 Si  0  0  0  0  0  4  0  0  0  0  0  0
   -1.7172    1.6696    0.0000 Si  0  0  0  0  0  4  0  0  0  0  0  0
   -0.0708   -0.1583    0.0000 Si  0  0  0  0  0  4  0  0  0  0  0  0
  9  7  2  0
 10  8  2  0
 11  7  1  0
 12  8  1  0
 13  9  1  0
 14 10  1  0
 15 11  2  0
 16 12  2  0
 16 15  1  0
 17 13  2  0
 17 15  1  0
 18 14  2  0
 18 16  1  0
 19  1  1  0
 19  2  1  0
 19  3  1  0
 20  4  1  0
 20  5  1  0
 20  6  1  0
 21 17  1  0
 21 18  1  0
 21 19  1  0
 21 20  1  0
M  END
>  <NAME>  (5349) 
9,9-BIS(TRIMETHYLSILYL)-9-SILAFLUORENE

>  <SYNONYMS>  (5349) 


>  <SPECTRUM TYPE>  (5349) 
MS1

>  <INSTRUMENT TYPE>  (5349) 
EI-B

>  <INSTRUMENT>  (5349) 
JEOL JMS-D-3000

>  <ION MODE>  (5349) 
P

>  <INCHIKEY>  (5349) 
VVLXLOFKPLEEQP-UHFFFAOYSA-N

>  <FORMULA>  (5349) 
C18H26Si3

>  <EXACT MASS>  (5349) 
326.134230422

>  <MW>  (5349) 
326

>  <ID>  (5349) 
JP001460

>  <CONTRIBUTOR>  (5349) 
University of Tokyo Team, {Faculty of Engineering, University of Tokyo

>  <COMMENT>  (5349) 
SMILES=c(c3)cc(c21)c(c3)[Si]([Si](C)(C)C)([Si](C)(C)C)c(cccc2)1
InChI=InChI=1S/C18H26Si3/c1-19(2,3)21(20(4,5)6)17-13-9-7-11-15(17)16-12-8-10-14-18(16)21/h7-14H,1-6H3
computed SMILES=C=1C=CC2=C(C1)C=3C=CC=CC3[Si]2([Si](C)(C)C)[Si](C)(C)C
accession=JP001460
date=2016.01.19 (Created 2008.10.21, modified 2011.05.06)
author=MASS SPECTROSCOPY SOC. OF JAPAN (MSSJ)
license=CC BY-NC-SA
exact mass=326.13423
ionization energy=70 eV
ion type=[M]+*
computed spectral entropy=3.000687413774932
computed normalized entropy=0.7522435233501208
SPLASH=splash10-0uka-5693000000-09500f841c4ac4024fec
submitter=submitter = University of Tokyo Team (Faculty of Engineering, University of Tokyo)
MoNA Rating=3.75

>  <NUM PEAKS>  (5349) 
54

>  <MASS SPECTRAL PEAKS>  (5349) 
43 4.45
44 3.52
45 13.26
53 1.57
59 2.24
73 96.45
74 9.49
75 6.89
78 1.38
115 1.04
116 9.48
117 1.61
129 1.56
131 3.48
153 1.3
154 1.25
155 1.28
165 11.57
166 2.06
167 1.63
168 1.13
169 1.33
179 2.26
180 4.11
181 4.63
182 1.09
193 4.66
194 1.43
195 70.78
196 14.14
197 4.02
221 1.02
223 2.17
237 3.83
238 33.27
239 9.09
240 3.42
251 1.78
252 3.39
253 99.99
254 27.27
255 10.5
256 1.92
267 8.57
268 2.59
269 1.07
309 1.33
311 12.08
312 4
313 1.72
326 40.59
327 14.88
328 6.74
329 1.72

>  <PREDICTED SPECTRUM>  (5349) 
41 5
43 235
44 22
45 270
46 1
57 34
59 140
60 33
67 21
73 719
74 155
75 166
81 16
85 7
87 0
91 44
93 63
95 10
105 45
115 28
116 327
117 87
119 16
121 21
123 8
129 38
131 117
135 0
139 5
152 44
153 49
163 69
164 55
165 294
166 156
167 224
168 108
169 45
177 89
179 202
180 128
181 171
182 83
193 395
194 160
195 675
196 308
197 232
198 31
199 46
213 43
223 127
225 103
237 183
238 392
239 295
240 133
241 78
251 17
252 134
253 999
254 509
255 326
256 119
257 16
297 5
311 339
312 203
313 88
314 6
326 649
327 388
328 294
329 114

$$$$

     RDKit          2D

 19 21  0  0  0  0  0  0  0  0999 V2000
    4.2209   -2.3872    0.0000 C   0  0  0  0  0  0  0  0  0  0  0  0
   -4.2244   -2.3840    0.0000 C   0  0  0  0  0  0  0  0  0  0  0  0
    5.1569    0.4732    0.0000 C   0  0  0  0  0  0  0  0  0  0  0  0
   -5.1467    0.4742    0.0000 C   0  0  0  0  0  0  0  0  0  0  0  0
    1.0039    2.9546    0.0000 C   0  0  0  0  0  0  0  0  0  0  0  0
   -1.0039    2.9546    0.0000 C   0  0  0  0  0  0  0  0  0  0  0  0
    1.7500   -1.5800    0.0000 C   0  0  0  0  0  0  0  0  0  0  0  0
   -1.7500   -1.5800    0.0000 C   0  0  0  0  0  0  0  0  0  0  0  0
    2.6800    1.2700    0.0000 C   0  0  0  0  0  0  0  0  0  0  0  0
   -2.6800    1.2700    0.0000 C   0  0  0  0  0  0  0  0  0  0  0  0
    3.2200   -1.2700    0.0000 C   0  0  0  0  0  0  0  0  0  0  0  0
   -3.2200   -1.2700    0.0000 C   0  0  0  0  0  0  0  0  0  0  0  0
    3.6900    0.1600    0.0000 C   0  0  0  0  0  0  0  0  0  0  0  0
   -3.6800    0.1600    0.0000 C   0  0  0  0  0  0  0  0  0  0  0  0
    0.7500   -0.4700    0.0000 C   0  0  0  0  0  0  0  0  0  0  0  0
   -0.7500   -0.4700    0.0000 C   0  0  0  0  0  0  0  0  0  0  0  0
    1.2100    0.9600    0.0000 C   0  0  0  0  0  0  0  0  0  0  0  0
   -1.2100    0.9600    0.0000 C   0  0  0  0  0  0  0  0  0  0  0  0
   -0.0000    1.8400    0.0000 Si  0  0  0  0  0  4  0  0  0  0  0  0
 11  1  1  0
 11  7  2  0
 12  2  1  0
 12  8  1  0
 13  3  1  0
 13  9  2  0
 13 11  1  0
 14  4  1  0
 14 10  1  0
 14 12  2  0
 15  7  1  0
 16  8  2  0
 16 15  1  0
 17  9  1  0
 17 15  2  0
 18 10  2  0
 18 16  1  0
 19  5  1  0
 19  6  1  0
 19 17  1  0
 19 18  1  0
M  END
>  <NAME>  (5350) 
2,3,6,7,9,9-HEXAMETHYL-9-SILAFLUORENE

>  <SYNONYMS>  (5350) 


>  <SPECTRUM TYPE>  (5350) 
MS1

>  <INSTRUMENT TYPE>  (5350) 
EI-B

>  <INSTRUMENT>  (5350) 
JEOL JMS-D-3000

>  <ION MODE>  (5350) 
P

>  <INCHIKEY>  (5350) 
VMIACFKGWPODOT-UHFFFAOYSA-N

>  <FORMULA>  (5350) 
C18H22Si

>  <EXACT MASS>  (5350) 
266.149077234

>  <MW>  (5350) 
266

>  <ID>  (5350) 
JP001459

>  <CONTRIBUTOR>  (5350) 
University of Tokyo Team, {Faculty of Engineering, University of Tokyo

>  <COMMENT>  (5350) 
SMILES=Cc(c(C)3)cc(c21)c(c3)[Si](C)(C)c(cc(C)c(C)c2)1
InChI=InChI=1S/C18H22Si/c1-11-7-15-16-8-12(2)14(4)10-18(16)19(5,6)17(15)9-13(11)3/h7-10H,1-6H3
computed SMILES=C=1C=2C=3C=C(C(=CC3[Si](C2C=C(C1C)C)(C)C)C)C
accession=JP001459
date=2016.01.19 (Created 2008.10.21, modified 2011.05.06)
author=MASS SPECTROSCOPY SOC. OF JAPAN (MSSJ)
license=CC BY-NC-SA
exact mass=266.14908
ionization energy=70 eV
ion type=[M]+*
computed spectral entropy=2.5619413148627563
computed normalized entropy=0.6854381410092102
SPLASH=splash10-0uxr-0290000000-3c9d305f7669a736d221
submitter=submitter = University of Tokyo Team (Faculty of Engineering, University of Tokyo)
MoNA Rating=3.75

>  <NUM PEAKS>  (5350) 
42

>  <MASS SPECTRAL PEAKS>  (5350) 
104 2.26
105 1.07
110 1.16
111 1.23
116 1.1
117 1.5
118 15.3
119 2.9
125 4.45
126 14.34
133 3.84
134 1
165 1.4
178 1.43
179 1.43
189 1.41
191 2.2
192 2.05
193 1.89
195 1.21
205 2.76
206 3.84
207 1.3
217 1.01
219 2.24
220 1.55
221 5.31
222 1.38
223 1.31
233 1.19
235 4.04
236 2.07
237 1.53
249 2.2
250 2.7
251 99.99
252 24.3
253 6.21
265 2.69
266 62.12
267 16.04
268 3.71

>  <PREDICTED SPECTRUM>  (5350) 
27 65
28 24
29 21
39 87
40 15
41 60
43 81
50 9
51 95
52 54
53 43
54 22
55 34
56 7
57 33
58 34
59 51
62 5
63 69
64 25
65 100
66 11
69 25
70 8
71 27
73 28
74 41
75 76
76 53
77 172
78 77
79 64
80 18
81 17
82 21
83 70
87 7
88 12
89 78
90 11
91 168
92 45
93 40
95 20
96 39
97 32
98 11
100 8
101 56
102 86
103 169
104 80
105 225
106 60
107 44
109 14
111 40
113 56
114 10
115 154
116 92
117 77
118 48
119 92
120 79
121 67
122 18
123 20
125 22
126 70
127 77
128 68
129 109
130 55
131 129
132 146
133 154
134 87
135 44
139 46
140 1
141 39
142 10
143 11
144 74
145 128
146 113
147 175
148 113
149 107
150 51
151 34
152 85
153 46
154 41
158 60
159 126
160 94
161 161
162 110
163 79
164 19
165 88
166 28
167 80
168 10
171 29
173 124
174 51
175 126
176 102
177 118
178 179
179 150
180 54
181 31
187 14
188 56
189 183
190 148
191 194
192 177
193 302
194 216
195 122
196 29
202 8
203 16
204 33
205 75
206 126
207 186
208 211
209 150
210 15
217 59
218 74
219 179
220 154
221 211
222 159
223 116
232 46
233 186
234 176
235 313
236 292
237 98
246 38
247 50
248 32
249 172
250 129
251 989
252 477
253 204
254 17
263 37
264 34
265 235
266 999
267 505
268 217
269 33

$$$$

     RDKit          2D

 19 21  0  0  0  0  0  0  0  0999 V2000
   -2.9929   -1.5427    0.0000 C   0  0  0  0  0  0  0  0  0  0  0  0
   -1.3730   -2.4779    0.0000 C   0  0  0  0  0  0  0  0  0  0  0  0
    1.7645   -1.2466    0.0000 C   0  0  0  0  0  0  0  0  0  0  0  0
    2.3158    0.5408    0.0000 C   0  0  0  0  0  0  0  0  0  0  0  0
   -4.4820    2.4438    0.0000 C   0  0  0  0  0  0  0  0  0  0  0  0
    0.6960    4.4760    0.0000 C   0  0  0  0  0  0  0  0  0  0  0  0
   -4.9242    1.0105    0.0000 C   0  0  0  0  0  0  0  0  0  0  0  0
    1.9950    3.7260    0.0000 C   0  0  0  0  0  0  0  0  0  0  0  0
   -3.0197    2.7776    0.0000 C   0  0  0  0  0  0  0  0  0  0  0  0
   -0.6031    3.7260    0.0000 C   0  0  0  0  0  0  0  0  0  0  0  0
   -3.9039   -0.0891    0.0000 C   0  0  0  0  0  0  0  0  0  0  0  0
    1.9950    2.2260    0.0000 C   0  0  0  0  0  0  0  0  0  0  0  0
   -1.9994    1.6780    0.0000 C   0  0  0  0  0  0  0  0  0  0  0  0
   -0.6031    2.2260    0.0000 C   0  0  0  0  0  0  0  0  0  0  0  0
   -2.4415    0.2447    0.0000 C   0  0  0  0  0  0  0  0  0  0  0  0
    0.6960    1.4760    0.0000 C   0  0  0  0  0  0  0  0  0  0  0  0
   -0.1007   -1.1068    0.0000 O   0  0  0  0  0  0  0  0  0  0  0  0
   -1.5965   -0.9947    0.0000 Si  0  0  0  0  0  4  0  0  0  0  0  0
    0.9195   -0.0072    0.0000 Si  0  0  0  0  0  4  0  0  0  0  0  0
  7  5  2  0
  8  6  2  0
  9  5  1  0
 10  6  1  0
 11  7  1  0
 12  8  1  0
 13  9  2  0
 14 10  2  0
 14 13  1  0
 15 11  2  0
 15 13  1  0
 16 12  2  0
 16 14  1  0
 18  1  1  0
 18  2  1  0
 18 15  1  0
 18 17  1  0
 19  3  1  0
 19  4  1  0
 19 16  1  0
 19 17  1  0
M  END
>  <NAME>  (5351) 
DIBENZO(D,F)-1,1,3,3-TETRAMETHYL-1,3-DISILA-2-OXACYCLOHEPTA-4,6-DIENE

>  <SYNONYMS>  (5351) 


>  <SPECTRUM TYPE>  (5351) 
MS1

>  <INSTRUMENT TYPE>  (5351) 
EI-B

>  <INSTRUMENT>  (5351) 
JEOL JMS-D-3000

>  <ION MODE>  (5351) 
P

>  <INCHIKEY>  (5351) 
GRSNFLIGYUYVAI-UHFFFAOYSA-N

>  <FORMULA>  (5351) 
C16H20OSi2

>  <EXACT MASS>  (5351) 
284.10526832

>  <MW>  (5351) 
284

>  <ID>  (5351) 
JP001458

>  <CONTRIBUTOR>  (5351) 
University of Tokyo Team, {Faculty of Engineering, University of Tokyo

>  <COMMENT>  (5351) 
SMILES=c(c3)cc(c21)c(c3)[Si](C)(C)O[Si](C)(C)c(cccc2)1
InChI=InChI=1S/C16H20OSi2/c1-18(2)15-11-7-5-9-13(15)14-10-6-8-12-16(14)19(3,4)17-18/h5-12H,1-4H3
computed SMILES=O1[Si](C=2C=CC=CC2C=3C=CC=CC3[Si]1(C)C)(C)C
accession=JP001458
date=2016.01.19 (Created 2008.10.21, modified 2011.05.06)
author=MASS SPECTROSCOPY SOC. OF JAPAN (MSSJ)
license=CC BY-NC-SA
exact mass=284.10527
ionization energy=70 eV
ion type=[M]+*
computed spectral entropy=2.1840496199736927
computed normalized entropy=0.6785131638506497
SPLASH=splash10-014i-0390000000-7e94ed6fb6f607641e5b
submitter=submitter = University of Tokyo Team (Faculty of Engineering, University of Tokyo)
MoNA Rating=3.75

>  <NUM PEAKS>  (5351) 
25

>  <MASS SPECTRAL PEAKS>  (5351) 
73 1.8
97 1.82
119 1.32
127 5.96
134 5.87
135 1.67
165 8.38
166 1.6
167 1.15
179 1.21
180 1.73
181 2.17
193 2.94
195 20.43
196 4.46
197 1.48
209 1.63
253 1.5
269 99.99
270 29.02
271 10.83
272 1.88
284 19.73
285 5.49
286 1.97

>  <PREDICTED SPECTRUM>  (5351) 
73 283
91 14
119 19
133 26
134 31
135 30
151 2
153 26
155 2
165 88
181 160
195 175
196 127
197 124
207 94
209 161
210 110
211 642
212 256
213 208
214 27
239 20
253 15
269 999
270 552
271 325
272 105
284 671
285 343
286 221
287 22

$$$$

     RDKit          2D

 18 20  0  0  0  0  0  0  0  0999 V2000
    0.1107    3.9584    0.0000 C   0  0  0  0  0  0  0  0  0  0  0  0
   -2.0077    4.0691    0.0000 C   0  0  0  0  0  0  0  0  0  0  0  0
   -2.1184    1.9507    0.0000 C   0  0  0  0  0  0  0  0  0  0  0  0
    1.0039    2.9546    0.0000 C   0  0  0  0  0  0  0  0  0  0  0  0
    3.2200   -1.2700    0.0000 C   0  0  0  0  0  0  0  0  0  0  0  0
   -3.2200   -1.2700    0.0000 C   0  0  0  0  0  0  0  0  0  0  0  0
    3.6900    0.1600    0.0000 C   0  0  0  0  0  0  0  0  0  0  0  0
   -3.6800    0.1600    0.0000 C   0  0  0  0  0  0  0  0  0  0  0  0
    1.7500   -1.5800    0.0000 C   0  0  0  0  0  0  0  0  0  0  0  0
   -1.7500   -1.5800    0.0000 C   0  0  0  0  0  0  0  0  0  0  0  0
    2.6800    1.2700    0.0000 C   0  0  0  0  0  0  0  0  0  0  0  0
   -2.6800    1.2700    0.0000 C   0  0  0  0  0  0  0  0  0  0  0  0
    0.7500   -0.4700    0.0000 C   0  0  0  0  0  0  0  0  0  0  0  0
   -0.7500   -0.4700    0.0000 C   0  0  0  0  0  0  0  0  0  0  0  0
    1.2100    0.9600    0.0000 C   0  0  0  0  0  0  0  0  0  0  0  0
   -1.2100    0.9600    0.0000 C   0  0  0  0  0  0  0  0  0  0  0  0
   -1.0039    2.9546    0.0000 Si  0  0  0  0  0  4  0  0  0  0  0  0
   -0.0000    1.8400    0.0000 Si  0  0  0  0  0  4  0  0  0  0  0  0
  7  5  2  0
  8  6  2  0
  9  5  1  0
 10  6  1  0
 11  7  1  0
 12  8  1  0
 13  9  2  0
 14 10  2  0
 14 13  1  0
 15 11  2  0
 15 13  1  0
 16 12  2  0
 16 14  1  0
 17  1  1  0
 17  2  1  0
 17  3  1  0
 18  4  1  0
 18 15  1  0
 18 16  1  0
 18 17  1  0
M  END
>  <NAME>  (5352) 
9-METHYL-9-TRIMETHYLSILYL-9-SILAFLUORENE

>  <SYNONYMS>  (5352) 


>  <SPECTRUM TYPE>  (5352) 
MS1

>  <INSTRUMENT TYPE>  (5352) 
EI-B

>  <INSTRUMENT>  (5352) 
JEOL JMS-D-3000

>  <ION MODE>  (5352) 
P

>  <INCHIKEY>  (5352) 
KYDKAYOCFULJKS-UHFFFAOYSA-N

>  <FORMULA>  (5352) 
C16H20Si2

>  <EXACT MASS>  (5352) 
268.1103537

>  <MW>  (5352) 
268

>  <ID>  (5352) 
JP001457

>  <CONTRIBUTOR>  (5352) 
University of Tokyo Team, {Faculty of Engineering, University of Tokyo

>  <COMMENT>  (5352) 
SMILES=c(c3)cc(c21)c(c3)[Si](C)([Si](C)(C)C)c(cccc2)1
InChI=InChI=1S/C16H20Si2/c1-17(2,3)18(4)15-11-7-5-9-13(15)14-10-6-8-12-16(14)18/h5-12H,1-4H3
computed SMILES=C=1C=CC2=C(C1)C=3C=CC=CC3[Si]2(C)[Si](C)(C)C
accession=JP001457
date=2016.01.19 (Created 2008.10.21, modified 2011.05.06)
author=MASS SPECTROSCOPY SOC. OF JAPAN (MSSJ)
license=CC BY-NC-SA
exact mass=268.11035
ionization energy=70 eV
ion type=[M]+*
computed spectral entropy=2.418707615208098
computed normalized entropy=0.7111341518280491
SPLASH=splash10-0002-3930000000-bc92388fdfed2681bed8
submitter=submitter = University of Tokyo Team (Faculty of Engineering, University of Tokyo)
MoNA Rating=3.75

>  <NUM PEAKS>  (5352) 
30

>  <MASS SPECTRAL PEAKS>  (5352) 
43 1.81
44 2.74
45 5.54
53 1.65
73 43.1
74 3.85
75 2.58
77 1.03
78 2.21
153 1.57
154 1.56
165 13.42
166 2.46
167 2.14
168 1
169 1.17
179 2.56
180 4.81
181 2.19
193 4.91
194 1.71
195 99.99
196 19.62
197 5.39
253 12.64
254 3.24
255 1.31
268 30.87
269 8.88
270 3.39

>  <PREDICTED SPECTRUM>  (5352) 
27 5
29 9
39 8
41 72
43 185
44 71
45 247
55 36
57 75
58 24
59 150
60 60
63 17
65 12
67 64
69 76
73 693
74 153
75 126
76 6
77 8
79 10
81 44
83 57
93 36
95 49
117 10
119 40
137 3
141 30
151 52
152 58
153 37
155 25
165 264
166 120
167 102
169 77
177 7
179 160
180 274
181 178
193 448
194 167
195 999
196 540
197 276
198 25
211 1
225 33
239 3
253 381
254 220
255 76
268 529
269 263
270 143
271 10

$$$$

     RDKit          2D

 18 20  0  0  0  0  0  0  0  0999 V2000
    2.2727   -2.9596    0.0000 C   0  0  0  0  0  0  0  0  0  0  0  0
    3.2372   -1.2897    0.0000 C   0  0  0  0  0  0  0  0  0  0  0  0
   -0.5066   -3.4470    0.0000 C   0  0  0  0  0  0  0  0  0  0  0  0
    1.4228   -3.4502    0.0000 C   0  0  0  0  0  0  0  0  0  0  0  0
    1.7600    2.9500    0.0000 C   0  0  0  0  0  0  0  0  0  0  0  0
   -3.4300   -0.0500    0.0000 C   0  0  0  0  0  0  0  0  0  0  0  0
    3.0600    2.2000    0.0000 C   0  0  0  0  0  0  0  0  0  0  0  0
   -3.4300   -1.5500    0.0000 C   0  0  0  0  0  0  0  0  0  0  0  0
    0.4600    2.2000    0.0000 C   0  0  0  0  0  0  0  0  0  0  0  0
   -2.1300    0.7000    0.0000 C   0  0  0  0  0  0  0  0  0  0  0  0
    3.0600    0.7000    0.0000 C   0  0  0  0  0  0  0  0  0  0  0  0
   -2.1300   -2.3000    0.0000 C   0  0  0  0  0  0  0  0  0  0  0  0
    0.4600    0.7000    0.0000 C   0  0  0  0  0  0  0  0  0  0  0  0
   -0.8300   -0.0500    0.0000 C   0  0  0  0  0  0  0  0  0  0  0  0
    1.7600   -0.0500    0.0000 C   0  0  0  0  0  0  0  0  0  0  0  0
   -0.8300   -1.5500    0.0000 C   0  0  0  0  0  0  0  0  0  0  0  0
    1.7600   -1.5500    0.0000 Si  0  0  0  0  0  4  0  0  0  0  0  0
    0.4600   -2.3000    0.0000 Si  0  0  0  0  0  4  0  0  0  0  0  0
  7  5  2  0
  8  6  2  0
  9  5  1  0
 10  6  1  0
 11  7  1  0
 12  8  1  0
 13  9  2  0
 14 10  2  0
 14 13  1  0
 15 11  2  0
 15 13  1  0
 16 12  2  0
 16 14  1  0
 17  1  1  0
 17  2  1  0
 17 15  1  0
 18  3  1  0
 18  4  1  0
 18 16  1  0
 18 17  1  0
M  END
>  <NAME>  (5353) 
DIBENZO(C,E)-1,1,2,2-TETRAMETHYL-1,2-DISILACYCLOHEXA-3,5-DIENE

>  <SYNONYMS>  (5353) 


>  <SPECTRUM TYPE>  (5353) 
MS1

>  <INSTRUMENT TYPE>  (5353) 
EI-B

>  <INSTRUMENT>  (5353) 
JEOL JMS-D-3000

>  <ION MODE>  (5353) 
P

>  <INCHIKEY>  (5353) 
QHXSSKNXFGRFAI-UHFFFAOYSA-N

>  <FORMULA>  (5353) 
C16H20Si2

>  <EXACT MASS>  (5353) 
268.1103537

>  <MW>  (5353) 
268

>  <ID>  (5353) 
JP001456

>  <CONTRIBUTOR>  (5353) 
University of Tokyo Team, {Faculty of Engineering, University of Tokyo

>  <COMMENT>  (5353) 
SMILES=c(c3)cc(c21)c(c3)[Si](C)(C)[Si](C)(C)c(cccc2)1
cas=85590-07-4
InChI=InChI=1S/C16H20Si2/c1-17(2)15-11-7-5-9-13(15)14-10-6-8-12-16(14)18(17,3)4/h5-12H,1-4H3
computed SMILES=C=1C=CC2=C(C1)C=3C=CC=CC3[Si](C)(C)[Si]2(C)C
accession=JP001456
date=2016.01.19 (Created 2008.10.21, modified 2011.05.06)
author=MASS SPECTROSCOPY SOC. OF JAPAN (MSSJ)
license=CC BY-NC-SA
exact mass=268.11035
ionization energy=70 eV
ion type=[M]+*
computed spectral entropy=2.4018207360984216
computed normalized entropy=0.7132788021502908
SPLASH=splash10-0002-3940000000-cc5904c6de4ab9a1386c
submitter=submitter = University of Tokyo Team (Faculty of Engineering, University of Tokyo)
MoNA Rating=3.75

>  <NUM PEAKS>  (5353) 
29

>  <MASS SPECTRAL PEAKS>  (5353) 
43 4.84
45 2.84
53 1.86
58 4.11
59 1.25
73 35.43
74 2.91
75 1.29
153 1.16
165 12.84
166 2.15
167 2.02
179 1.88
180 3.69
181 2.19
193 4.65
194 1.54
195 99.99
196 19.78
197 5.84
237 1.16
251 1
253 17.94
254 4.9
255 1.86
267 1.16
268 30.37
269 8.67
270 3.35

>  <PREDICTED SPECTRUM>  (5353) 
27 7
43 119
44 5
45 241
46 0
55 26
57 41
58 60
59 111
60 19
61 1
69 43
73 440
74 71
75 82
93 6
97 0
103 1
116 0
118 72
119 1
135 19
155 3
165 222
166 69
167 78
169 10
179 48
180 279
181 132
182 19
193 226
194 104
195 999
196 546
197 279
198 77
253 326
254 149
255 49
268 563
269 279
270 162
271 12

$$$$

     RDKit          2D

 15 17  0  0  0  0  0  0  0  0999 V2000
    1.0039    2.9546    0.0000 C   0  0  0  0  0  0  0  0  0  0  0  0
   -1.0039    2.9546    0.0000 C   0  0  0  0  0  0  0  0  0  0  0  0
    3.2200   -1.2700    0.0000 C   0  0  0  0  0  0  0  0  0  0  0  0
   -3.2200   -1.2700    0.0000 C   0  0  0  0  0  0  0  0  0  0  0  0
    3.6900    0.1600    0.0000 C   0  0  0  0  0  0  0  0  0  0  0  0
   -3.6800    0.1600    0.0000 C   0  0  0  0  0  0  0  0  0  0  0  0
    1.7500   -1.5800    0.0000 C   0  0  0  0  0  0  0  0  0  0  0  0
   -1.7500   -1.5800    0.0000 C   0  0  0  0  0  0  0  0  0  0  0  0
    2.6800    1.2700    0.0000 C   0  0  0  0  0  0  0  0  0  0  0  0
   -2.6800    1.2700    0.0000 C   0  0  0  0  0  0  0  0  0  0  0  0
    0.7500   -0.4700    0.0000 C   0  0  0  0  0  0  0  0  0  0  0  0
   -0.7500   -0.4700    0.0000 C   0  0  0  0  0  0  0  0  0  0  0  0
    1.2100    0.9600    0.0000 C   0  0  0  0  0  0  0  0  0  0  0  0
   -1.2100    0.9600    0.0000 C   0  0  0  0  0  0  0  0  0  0  0  0
   -0.0000    1.8400    0.0000 Si  0  0  0  0  0  4  0  0  0  0  0  0
  5  3  2  0
  6  4  2  0
  7  3  1  0
  8  4  1  0
  9  5  1  0
 10  6  1  0
 11  7  2  0
 12  8  2  0
 12 11  1  0
 13  9  2  0
 13 11  1  0
 14 10  2  0
 14 12  1  0
 15  1  1  0
 15  2  1  0
 15 13  1  0
 15 14  1  0
M  END
>  <NAME>  (5354) 
9,9-DIMETHYL-9-SILAFLUORENE

>  <SYNONYMS>  (5354) 


>  <SPECTRUM TYPE>  (5354) 
MS1

>  <INSTRUMENT TYPE>  (5354) 
EI-B

>  <INSTRUMENT>  (5354) 
JEOL JMS-D-3000

>  <ION MODE>  (5354) 
P

>  <INCHIKEY>  (5354) 
YJQFTKVGILQPMC-UHFFFAOYSA-N

>  <FORMULA>  (5354) 
C14H14Si

>  <EXACT MASS>  (5354) 
210.086476978

>  <MW>  (5354) 
210

>  <ID>  (5354) 
JP001455

>  <CONTRIBUTOR>  (5354) 
University of Tokyo Team, {Faculty of Engineering, University of Tokyo

>  <COMMENT>  (5354) 
SMILES=c(c3)cc(c21)c(c3)[Si](C)(C)c(cccc2)1
cas=13688-68-1
InChI=InChI=1S/C14H14Si/c1-15(2)13-9-5-3-7-11(13)12-8-4-6-10-14(12)15/h3-10H,1-2H3
computed SMILES=C=1C=CC2=C(C1)C=3C=CC=CC3[Si]2(C)C
accession=JP001455
date=2016.01.19 (Created 2008.10.21, modified 2011.05.06)
author=MASS SPECTROSCOPY SOC. OF JAPAN (MSSJ)
license=CC BY-NC-SA
exact mass=210.08648
ionization energy=70 eV
ion type=[M]+*
computed spectral entropy=2.473477895120933
computed normalized entropy=0.7074138555798016
SPLASH=splash10-0002-1920000000-480816ca4b8a4b3bbaf6
submitter=submitter = University of Tokyo Team (Faculty of Engineering, University of Tokyo)
MoNA Rating=3.75

>  <NUM PEAKS>  (5354) 
33

>  <MASS SPECTRAL PEAKS>  (5354) 
43 2.33
53 4.65
77 2.03
78 1.02
91 1.41
97 18.89
98 3.84
103 1.5
104 4.29
105 4.16
115 1.11
129 1.1
152 1.09
153 2.53
154 1.77
155 1.01
165 20.09
166 3.76
167 3.82
169 1.28
179 3.87
180 4.48
181 2.63
191 1.74
192 1.2
193 6.98
194 2.3
195 99.99
196 19.63
197 5.96
210 45.1
211 8.63
212 2.15

>  <PREDICTED SPECTRUM>  (5354) 
133 73
135 5
151 92
152 149
163 17
164 120
165 444
166 146
167 236
168 84
179 28
180 119
181 167
195 999
196 512
197 204
209 93
210 983
211 393
212 114

$$$$

     RDKit          2D

 18 17  0  0  0  0  0  0  0  0999 V2000
   -4.5883    4.5000    0.0000 C   0  0  0  0  0  0  0  0  0  0  0  0
   -3.2893    6.7500    0.0000 C   0  0  0  0  0  0  0  0  0  0  0  0
   -4.4316    3.6114    0.0000 C   0  0  0  0  0  0  0  0  0  0  0  0
   -2.4414    1.9414    0.0000 C   0  0  0  0  0  0  0  0  0  0  0  0
    1.9069    2.2500    0.0000 C   0  0  0  0  0  0  0  0  0  0  0  0
   -0.6912    2.2500    0.0000 C   0  0  0  0  0  0  0  0  0  0  0  0
    2.5981    6.1700    0.0000 C   0  0  0  0  0  0  0  0  0  0  0  0
    0.1567    7.0586    0.0000 C   0  0  0  0  0  0  0  0  0  0  0  0
   -0.6912    6.7500    0.0000 C   0  0  0  0  0  0  0  0  0  0  0  0
   -1.0261    3.3509    0.0000 C   0  0  0  0  0  0  0  0  0  0  0  0
    2.0850    4.2395    0.0000 C   0  0  0  0  0  0  0  0  0  0  0  0
   -3.2893    5.2500    0.0000 C   0  0  0  0  0  0  0  0  0  0  0  0
   -2.9544    3.3509    0.0000 C   0  0  0  0  0  0  0  0  0  0  0  0
    0.6078    3.0000    0.0000 C   0  0  0  0  0  0  0  0  0  0  0  0
    1.1209    5.9095    0.0000 C   0  0  0  0  0  0  0  0  0  0  0  0
   -0.6912    5.2500    0.0000 N   0  0  0  0  0  0  0  0  0  0  0  0
   -1.9902    4.5000    0.0000 Si  0  0  0  0  0  4  0  0  0  0  0  0
    0.6078    4.5000    0.0000 Si  0  0  0  0  0  4  0  0  0  0  0  0
 12  1  1  0
 12  2  1  0
 13  3  1  0
 13  4  1  0
 14  5  1  0
 14  6  1  0
 15  7  1  0
 15  8  1  0
 16  9  1  0
 17 10  1  0
 17 12  1  0
 17 13  1  0
 17 16  1  0
 18 11  1  0
 18 14  1  0
 18 15  1  0
 18 16  1  0
M  END
>  <NAME>  (5355) 
1,1,3,3-TETRA-ISOPROPYL-1,2,3-TRIMETHYLDISILAZANE

>  <SYNONYMS>  (5355) 


>  <SPECTRUM TYPE>  (5355) 
MS1

>  <INSTRUMENT TYPE>  (5355) 
EI-B

>  <INSTRUMENT>  (5355) 
JEOL JMS-D-3000

>  <ION MODE>  (5355) 
P

>  <INCHIKEY>  (5355) 
PXYIHSZXKDOWDJ-UHFFFAOYSA-N

>  <FORMULA>  (5355) 
C15H37NSi2

>  <EXACT MASS>  (5355) 
287.246453244

>  <MW>  (5355) 
287

>  <ID>  (5355) 
JP001454

>  <CONTRIBUTOR>  (5355) 
University of Tokyo Team, {Faculty of Engineering, University of Tokyo

>  <COMMENT>  (5355) 
SMILES=CC(C)[Si](C)(C(C)C)N(C)[Si](C)(C(C)C)C(C)C
InChI=InChI=1S/C15H37NSi2/c1-12(2)17(10,13(3)4)16(9)18(11,14(5)6)15(7)8/h12-15H,1-11H3
computed SMILES=N(C)([Si](C)(C(C)C)C(C)C)[Si](C)(C(C)C)C(C)C
accession=JP001454
date=2016.01.19 (Created 2008.10.21, modified 2011.05.06)
author=MASS SPECTROSCOPY SOC. OF JAPAN (MSSJ)
license=CC BY-NC-SA
exact mass=287.24645
ionization energy=70 eV
ion type=[M]+*
computed spectral entropy=3.469992258812664
computed normalized entropy=0.7964710052586434
SPLASH=splash10-0zml-8790000000-edb1d304123523cebd45
submitter=submitter = University of Tokyo Team (Faculty of Engineering, University of Tokyo)
MoNA Rating=3.75

>  <NUM PEAKS>  (5355) 
78

>  <MASS SPECTRAL PEAKS>  (5355) 
42 8.73
43 8.57
45 14.51
58 4.82
59 70.08
60 5.34
61 3.45
64 1.87
65 6.09
71 3.41
72 11.71
73 61.61
74 7.12
75 5.67
80 1.56
85 5.52
86 13.01
87 8.59
88 6.68
89 3.23
98 1.11
99 1.92
100 5.46
101 8.64
102 3.74
103 6.44
104 1.61
114 7.03
115 2.64
116 16.88
117 3.89
118 15.08
119 2.53
120 1.28
128 1.04
129 2.73
130 5.37
131 3.12
132 22.39
133 3.59
134 2.03
135 2.38
140 1.1
142 4.11
143 1.08
144 3.92
145 1.41
146 5.78
156 1.3
158 13.93
159 4.99
160 52.44
161 9.04
162 4.49
172 1.76
174 11.65
175 1.7
176 1.15
186 1.72
187 1.32
188 1.19
200 4.82
202 93.61
203 19.45
204 8.53
205 1.39
216 1.46
217 4
218 1.13
228 1.08
230 1.61
244 99.99
245 22.92
246 9.32
247 1.74
272 1.17
275 1.7
287 1.54

>  <PREDICTED SPECTRUM>  (5355) 
17 6
18 37
25 30
26 98
27 345
28 153
29 191
30 112
31 51
36 6
37 32
38 67
39 204
40 106
41 256
42 226
43 429
44 341
45 320
46 123
47 62
48 59
55 111
56 136
57 157
58 246
59 408
60 140
61 278
62 59
63 30
67 11
68 18
69 1
70 137
71 188
72 155
73 190
74 238
75 328
76 111
84 12
85 7
86 77
87 172
88 259
89 164
90 92
95 0
96 1
99 0
100 198
101 196
102 138
103 146
104 91
105 14
112 38
114 171
115 169
116 259
117 181
118 212
119 14
126 67
127 46
128 155
129 174
130 270
131 193
132 185
133 102
134 27
144 96
145 112
146 205
147 41
156 17
157 163
158 230
159 165
160 516
161 182
172 131
173 83
174 533
175 228
176 62
186 68
187 94
188 214
189 10
200 65
201 6
202 524
203 224
204 78
216 393
217 157
218 65
219 29
244 999
245 400
246 249
247 78
248 58
287 288
288 135
289 81
290 1

$$$$

     RDKit          2D

 15 15  0  0  0  0  0  0  0  0999 V2000
   -2.5476    4.3306    0.0000 C   0  0  0  0  0  0  0  0  0  0  0  0
   -4.5966    3.7816    0.0000 C   0  0  0  0  0  0  0  0  0  0  0  0
   -4.0476    1.7326    0.0000 C   0  0  0  0  0  0  0  0  0  0  0  0
   -0.6995    4.5316    0.0000 C   0  0  0  0  0  0  0  0  0  0  0  0
   -2.9627    1.1325    0.0000 C   0  0  0  0  0  0  0  0  0  0  0  0
   -1.0344    1.1325    0.0000 C   0  0  0  0  0  0  0  0  0  0  0  0
    3.1976    0.7816    0.0000 C   0  0  0  0  0  0  0  0  0  0  0  0
    1.8981    0.0308    0.0000 C   0  0  0  0  0  0  0  0  0  0  0  0
    3.1981    2.2824    0.0000 C   0  0  0  0  0  0  0  0  0  0  0  0
    0.5990    0.7808    0.0000 C   0  0  0  0  0  0  0  0  0  0  0  0
    1.8990    3.0324    0.0000 C   0  0  0  0  0  0  0  0  0  0  0  0
    0.5995    2.2816    0.0000 C   0  0  0  0  0  0  0  0  0  0  0  0
   -3.2976    3.0316    0.0000 C   0  0  0  0  0  0  0  0  0  0  0  0
   -0.6995    3.0316    0.0000 N   0  0  0  0  0  0  0  0  0  0  0  0
   -1.9986    2.2816    0.0000 Si  0  0  0  0  0  4  0  0  0  0  0  0
  8  7  2  0
  9  7  1  0
 10  8  1  0
 11  9  2  0
 12 10  2  0
 12 11  1  0
 13  1  1  0
 13  2  1  0
 13  3  1  0
 14  4  1  0
 14 12  1  0
 15  5  1  0
 15  6  1  0
 15 13  1  0
 15 14  1  0
M  END
>  <NAME>  (5356) 
N-METHYL-N-(TERT-BUTYLDIMETHYLSILYL)ANILINE

>  <SYNONYMS>  (5356) 


>  <SPECTRUM TYPE>  (5356) 
MS1

>  <INSTRUMENT TYPE>  (5356) 
EI-B

>  <INSTRUMENT>  (5356) 
JEOL JMS-D-3000

>  <ION MODE>  (5356) 
P

>  <INCHIKEY>  (5356) 
GRHVMNXJECNYQT-UHFFFAOYSA-N

>  <FORMULA>  (5356) 
C13H23NSi

>  <EXACT MASS>  (5356) 
221.159976266

>  <MW>  (5356) 
221

>  <ID>  (5356) 
JP001453

>  <CONTRIBUTOR>  (5356) 
University of Tokyo Team, {Faculty of Engineering, University of Tokyo

>  <COMMENT>  (5356) 
SMILES=c(c1)ccc(c1)N(C)[Si](C)(C)C(C)(C)C
InChI=InChI=1S/C13H23NSi/c1-13(2,3)15(5,6)14(4)12-10-8-7-9-11-12/h7-11H,1-6H3
computed SMILES=C=1C=CC(=CC1)N(C)[Si](C)(C)C(C)(C)C
accession=JP001453
date=2016.01.19 (Created 2008.10.21, modified 2011.05.06)
author=MASS SPECTROSCOPY SOC. OF JAPAN (MSSJ)
license=CC BY-NC-SA
exact mass=221.15998
ionization energy=70 eV
ion type=[M]+*
computed spectral entropy=2.3538157243383977
computed normalized entropy=0.6731905145233483
SPLASH=splash10-03di-5900000000-0166276c09a798cac291
submitter=submitter = University of Tokyo Team (Faculty of Engineering, University of Tokyo)
MoNA Rating=3.75

>  <NUM PEAKS>  (5356) 
33

>  <MASS SPECTRAL PEAKS>  (5356) 
43 4.74
45 3.74
51 1.71
56 1.06
58 2.65
59 48.4
60 3.92
61 1.67
65 1.08
73 7.74
75 4.25
77 4.65
79 1.01
84 2.38
104 4.84
105 1.96
106 5.4
107 3.44
119 2.66
120 1.41
121 1
134 2.43
135 1.3
148 1.34
149 4.08
150 1.68
162 1.37
164 99.99
165 15.65
166 4.56
206 1.62
221 7.65
222 1.47

>  <PREDICTED SPECTRUM>  (5356) 
15 7
27 57
28 22
29 92
31 19
38 1
39 82
40 12
41 154
42 54
43 135
44 73
45 142
46 15
47 49
50 29
51 76
52 33
53 49
54 12
55 11
56 49
57 103
58 75
59 229
60 77
61 46
63 17
65 53
66 30
67 33
68 2
70 6
71 20
72 2
73 386
74 125
75 151
76 60
77 175
78 79
79 90
80 17
81 16
84 31
85 40
89 1
90 89
91 136
92 57
93 36
94 26
95 11
102 1
103 3
104 122
105 112
106 144
107 71
109 43
116 26
118 84
119 88
120 142
121 98
122 75
123 31
132 41
133 73
134 148
135 104
136 35
137 30
146 54
147 12
148 134
149 103
150 135
151 18
152 0
162 67
163 47
164 999
165 427
166 203
167 73
206 141
207 45
208 8
220 16
221 250
222 99
223 32

$$$$

     RDKit          2D

 15 15  0  0  0  0  0  0  0  0999 V2000
   -0.5490    4.6190    0.0000 C   0  0  0  0  0  0  0  0  0  0  0  0
   -2.5981    4.0700    0.0000 C   0  0  0  0  0  0  0  0  0  0  0  0
   -2.0490    2.0210    0.0000 C   0  0  0  0  0  0  0  0  0  0  0  0
    2.0490    2.0210    0.0000 C   0  0  0  0  0  0  0  0  0  0  0  0
    2.5981    4.0700    0.0000 C   0  0  0  0  0  0  0  0  0  0  0  0
    0.5490    4.6190    0.0000 C   0  0  0  0  0  0  0  0  0  0  0  0
   -0.0000   -1.9300    0.0000 C   0  0  0  0  0  0  0  0  0  0  0  0
   -1.3000   -1.1800    0.0000 C   0  0  0  0  0  0  0  0  0  0  0  0
    1.3000   -1.1800    0.0000 C   0  0  0  0  0  0  0  0  0  0  0  0
   -1.3000    0.3200    0.0000 C   0  0  0  0  0  0  0  0  0  0  0  0
    1.3000    0.3200    0.0000 C   0  0  0  0  0  0  0  0  0  0  0  0
   -0.0000    1.0700    0.0000 C   0  0  0  0  0  0  0  0  0  0  0  0
    0.0000    2.5700    0.0000 N   0  0  0  0  0  0  0  0  0  0  0  0
   -1.2990    3.3200    0.0000 Si  0  0  0  0  0  4  0  0  0  0  0  0
    1.2990    3.3200    0.0000 Si  0  0  0  0  0  4  0  0  0  0  0  0
  8  7  2  0
  9  7  1  0
 10  8  1  0
 11  9  2  0
 12 10  2  0
 12 11  1  0
 13 12  1  0
 14  1  1  0
 14  2  1  0
 14  3  1  0
 14 13  1  0
 15  4  1  0
 15  5  1  0
 15  6  1  0
 15 13  1  0
M  END
>  <NAME>  (5357) 
1,1,1,3,3,3-HEXAMETHYL-2-PHENYLDISILAZANE

>  <SYNONYMS>  (5357) 


>  <SPECTRUM TYPE>  (5357) 
MS1

>  <INSTRUMENT TYPE>  (5357) 
EI-B

>  <INSTRUMENT>  (5357) 
JEOL JMS-D-3000

>  <ION MODE>  (5357) 
P

>  <INCHIKEY>  (5357) 
UUBHRQZKROMHOC-UHFFFAOYSA-N

>  <FORMULA>  (5357) 
C12H23NSi2

>  <EXACT MASS>  (5357) 
237.136902796

>  <MW>  (5357) 
237

>  <ID>  (5357) 
JP001452

>  <CONTRIBUTOR>  (5357) 
University of Tokyo Team, {Faculty of Engineering, University of Tokyo

>  <COMMENT>  (5357) 
SMILES=c(c1)ccc(c1)N([Si](C)(C)C)[Si](C)(C)C
InChI=InChI=1S/C12H23NSi2/c1-14(2,3)13(15(4,5)6)12-10-8-7-9-11-12/h7-11H,1-6H3
computed SMILES=C=1C=CC(=CC1)N([Si](C)(C)C)[Si](C)(C)C
accession=JP001452
date=2016.01.19 (Created 2008.10.21, modified 2011.05.06)
author=MASS SPECTROSCOPY SOC. OF JAPAN (MSSJ)
license=CC BY-NC-SA
exact mass=237.1369
ionization energy=70 eV
ion type=[M]+*
computed spectral entropy=2.147623851883376
computed normalized entropy=0.6757669839872554
SPLASH=splash10-00di-4090000000-272ab92718a4aa3d6e92
submitter=submitter = University of Tokyo Team (Faculty of Engineering, University of Tokyo)
MoNA Rating=3.75

>  <NUM PEAKS>  (5357) 
24

>  <MASS SPECTRAL PEAKS>  (5357) 
43 4.19
45 12.56
59 7.18
73 37.23
74 3
75 4.82
77 1.14
84 1.48
93 1.69
95 1.29
130 1.41
134 1.31
135 1
149 1.77
150 4.28
192 1.08
206 5.97
222 99.99
223 19.34
224 7.85
225 1.12
237 14.28
238 3.94
239 1.13

>  <PREDICTED SPECTRUM>  (5357) 
15 4
27 21
29 33
31 27
39 61
41 34
42 14
43 88
44 24
45 234
46 39
47 31
50 17
51 30
52 22
53 49
54 19
55 34
56 7
57 29
58 44
59 137
60 43
61 25
62 7
63 52
64 7
65 21
66 30
67 37
68 14
69 3
71 2
72 33
73 501
74 110
75 144
76 48
77 68
78 53
79 63
80 17
81 30
82 5
83 30
84 22
85 8
86 3
87 14
89 64
90 49
91 57
92 8
93 50
94 18
95 29
96 10
100 11
102 19
103 3
104 53
105 38
106 27
107 36
108 17
109 26
110 15
114 13
115 53
116 38
117 34
118 69
119 49
120 41
121 43
130 137
131 79
132 84
133 38
134 113
135 51
136 9
143 10
144 1
145 37
146 103
147 73
148 41
149 85
150 46
151 34
160 58
161 59
162 66
163 23
164 35
165 46
175 8
176 46
177 17
189 21
190 40
191 51
192 64
193 12
205 8
206 219
207 103
208 35
220 70
221 4
222 999
223 485
224 323
225 109
226 28
236 36
237 305
238 122
239 57
240 4

$$$$

     RDKit          2D

 10  9  0  0  0  0  0  0  0  0999 V2000
    1.4510    1.9868    0.0000 C   0  0  0  0  0  0  0  0  0  0  0  0
    0.1520    4.2368    0.0000 C   0  0  0  0  0  0  0  0  0  0  0  0
   -3.7452    1.9868    0.0000 C   0  0  0  0  0  0  0  0  0  0  0  0
   -2.4461    4.2368    0.0000 C   0  0  0  0  0  0  0  0  0  0  0  0
   -0.6959   -0.5718    0.0000 C   0  0  0  0  0  0  0  0  0  0  0  0
   -2.1113    0.8377    0.0000 C   0  0  0  0  0  0  0  0  0  0  0  0
    0.1520    2.7368    0.0000 C   0  0  0  0  0  0  0  0  0  0  0  0
   -2.4461    2.7368    0.0000 C   0  0  0  0  0  0  0  0  0  0  0  0
   -0.1829    0.8377    0.0000 N   0  0  0  0  0  0  0  0  0  0  0  0
   -1.1471    1.9868    0.0000 Si  0  0  0  0  0  4  0  0  0  0  0  0
  7  1  1  0
  7  2  1  0
  8  3  1  0
  8  4  1  0
  9  5  1  0
 10  6  1  0
 10  7  1  0
 10  8  1  0
 10  9  1  0
M  END
>  <NAME>  (5358) 
DI-ISOPROPYLMETHYL(METHYLAMINO)SILANE

>  <SYNONYMS>  (5358) 


>  <SPECTRUM TYPE>  (5358) 
MS1

>  <INSTRUMENT TYPE>  (5358) 
EI-B

>  <INSTRUMENT>  (5358) 
JEOL JMS-D-3000

>  <ION MODE>  (5358) 
P

>  <INCHIKEY>  (5358) 
AAXLXBDCHSZNOB-UHFFFAOYSA-N

>  <FORMULA>  (5358) 
C8H21NSi

>  <EXACT MASS>  (5358) 
159.144326202

>  <MW>  (5358) 
159

>  <ID>  (5358) 
JP001451

>  <CONTRIBUTOR>  (5358) 
University of Tokyo Team, {Faculty of Engineering, University of Tokyo

>  <COMMENT>  (5358) 
SMILES=CN[Si](C)(C(C)C)C(C)C
InChI=InChI=1S/C8H21NSi/c1-7(2)10(6,9-5)8(3)4/h7-9H,1-6H3
computed SMILES=N(C)[Si](C)(C(C)C)C(C)C
accession=JP001451
date=2016.01.19 (Created 2008.10.21, modified 2011.05.06)
author=MASS SPECTROSCOPY SOC. OF JAPAN (MSSJ)
license=CC BY-NC-SA
exact mass=159.14433
ionization energy=70 eV
ion type=[M]+*
computed spectral entropy=2.240551886962049
computed normalized entropy=0.6960665800314898
SPLASH=splash10-014r-9700000000-51aac1ff0b3d29f38ab9
submitter=submitter = University of Tokyo Team (Faculty of Engineering, University of Tokyo)
MoNA Rating=3.75

>  <NUM PEAKS>  (5358) 
25

>  <MASS SPECTRAL PEAKS>  (5358) 
42 3.85
43 3.48
45 6.42
58 8.33
59 14.8
60 2.36
61 2.1
72 1.15
73 6.23
74 24.6
75 8.75
76 1.55
85 2.43
88 64.03
89 5.19
90 2.31
100 1.34
101 1.22
102 1.17
103 3.3
116 99.99
117 10.86
118 4.16
144 1.62
159 4.76

>  <PREDICTED SPECTRUM>  (5358) 
39 56
40 50
41 69
42 96
43 37
44 184
45 280
46 211
47 123
48 13
53 50
55 53
56 29
57 10
58 214
59 453
60 206
61 208
70 120
71 87
72 228
73 225
74 409
75 242
76 44
86 31
87 64
88 999
89 375
90 179
100 101
101 4
102 104
114 28
115 46
116 843
117 318
118 120
144 175
145 72
158 32
159 276
160 83

$$$$

     RDKit          2D

  8  7  0  0  0  0  0  0  0  0999 V2000
   -2.2733    0.5625    0.0000 C   0  0  0  0  0  0  0  0  0  0  0  0
    0.3248    0.5625    0.0000 C   0  0  0  0  0  0  0  0  0  0  0  0
    0.3248    5.0625    0.0000 C   0  0  0  0  0  0  0  0  0  0  0  0
    1.6238    2.8125    0.0000 C   0  0  0  0  0  0  0  0  0  0  0  0
   -2.2733    3.5625    0.0000 C   0  0  0  0  0  0  0  0  0  0  0  0
   -0.9743    1.3125    0.0000 C   0  0  0  0  0  0  0  0  0  0  0  0
    0.3248    3.5625    0.0000 C   0  0  0  0  0  0  0  0  0  0  0  0
   -0.9743    2.8125    0.0000 Si  0  0  0  0  0  4  0  0  0  0  0  0
  6  1  1  0
  6  2  1  0
  7  3  1  0
  7  4  1  0
  8  5  1  0
  8  6  1  0
  8  7  1  0
M  END
>  <NAME>  (5359) 
DI-ISOPROPYLMETHYLSILANE

>  <SYNONYMS>  (5359) 


>  <SPECTRUM TYPE>  (5359) 
MS1

>  <INSTRUMENT TYPE>  (5359) 
EI-B

>  <INSTRUMENT>  (5359) 
JEOL JMS-D-3000

>  <ION MODE>  (5359) 
P

>  <INCHIKEY>  (5359) 
TYZIDFVXYCLNGN-UHFFFAOYSA-N

>  <FORMULA>  (5359) 
C7H18Si

>  <EXACT MASS>  (5359) 
130.117777106

>  <MW>  (5359) 
130

>  <ID>  (5359) 
JP001450

>  <CONTRIBUTOR>  (5359) 
University of Tokyo Team, {Faculty of Engineering, University of Tokyo

>  <COMMENT>  (5359) 
SMILES=CC(C)[SiH](C)C(C)C
InChI=InChI=1S/C7H18Si/c1-6(2)8(5)7(3)4/h6-8H,1-5H3
computed SMILES=CC(C)[SiH](C)C(C)C
accession=JP001450
date=2016.01.19 (Created 2008.10.21, modified 2011.05.06)
author=MASS SPECTROSCOPY SOC. OF JAPAN (MSSJ)
license=CC BY-NC-SA
exact mass=130.11778
ionization energy=70 eV
ion type=[M]+*
computed spectral entropy=1.8491892022243743
computed normalized entropy=0.6669540229286308
SPLASH=splash10-0a4i-9000000000-63cf37bf603a52b2cd22
submitter=submitter = University of Tokyo Team (Faculty of Engineering, University of Tokyo)
MoNA Rating=3.75

>  <NUM PEAKS>  (5359) 
16

>  <MASS SPECTRAL PEAKS>  (5359) 
42 1.21
43 8.69
45 18.31
58 8.42
59 99.99
60 7.81
61 3.88
71 1.74
72 1.06
73 3.41
74 1.06
86 11.35
87 27.59
88 3.02
89 1.02
130 6.17

>  <PREDICTED SPECTRUM>  (5359) 
31 53
39 74
40 29
41 136
42 17
43 259
44 114
45 387
46 40
47 77
53 28
57 29
58 168
59 999
60 327
61 233
66 37
67 55
71 122
72 97
73 128
85 43
86 250
87 591
88 263
89 121
130 302
131 87
132 36

$$$$

     RDKit          2D

  9  8  0  0  0  0  0  0  0  0999 V2000
   -3.0565    2.7353    0.0000 C   0  0  0  0  0  0  0  0  0  0  0  0
   -1.7574    0.4853    0.0000 C   0  0  0  0  0  0  0  0  0  0  0  0
    2.1397    2.7353    0.0000 C   0  0  0  0  0  0  0  0  0  0  0  0
    0.8406    0.4853    0.0000 C   0  0  0  0  0  0  0  0  0  0  0  0
    0.5058    3.8844    0.0000 C   0  0  0  0  0  0  0  0  0  0  0  0
   -1.7574    1.9853    0.0000 C   0  0  0  0  0  0  0  0  0  0  0  0
    0.8406    1.9853    0.0000 C   0  0  0  0  0  0  0  0  0  0  0  0
   -1.4226    3.8844    0.0000 Cl  0  0  0  0  0  0  0  0  0  0  0  0
   -0.4584    2.7353    0.0000 Si  0  0  0  0  0  4  0  0  0  0  0  0
  6  1  1  0
  6  2  1  0
  7  3  1  0
  7  4  1  0
  9  5  1  0
  9  6  1  0
  9  7  1  0
  9  8  1  0
M  END
>  <NAME>  (5360) 
DI-ISOPROPYLMETHYLCHLOROSILANE

>  <SYNONYMS>  (5360) 


>  <SPECTRUM TYPE>  (5360) 
MS1

>  <INSTRUMENT TYPE>  (5360) 
EI-B

>  <INSTRUMENT>  (5360) 
JEOL JMS-D-3000

>  <ION MODE>  (5360) 
P

>  <INCHIKEY>  (5360) 
XOLPGSHGGPYYQX-UHFFFAOYSA-N

>  <FORMULA>  (5360) 
C7H17ClSi

>  <EXACT MASS>  (5360) 
164.078804754

>  <MW>  (5360) 
164

>  <ID>  (5360) 
JP001449

>  <CONTRIBUTOR>  (5360) 
University of Tokyo Team, {Faculty of Engineering, University of Tokyo

>  <COMMENT>  (5360) 
SMILES=CC(C)[Si](C)(Cl)C(C)C
InChI=InChI=1S/C7H17ClSi/c1-6(2)9(5,8)7(3)4/h6-7H,1-5H3
computed SMILES=Cl[Si](C)(C(C)C)C(C)C
accession=JP001449
date=2016.01.19 (Created 2008.10.21, modified 2011.05.06)
author=MASS SPECTROSCOPY SOC. OF JAPAN (MSSJ)
license=CC BY-NC-SA
exact mass=164.0788
ionization energy=70 eV
ion type=[M]+*
computed spectral entropy=2.3472969803553876
computed normalized entropy=0.704427646378754
SPLASH=splash10-0006-9200000000-156500588f83745168cd
submitter=submitter = University of Tokyo Team (Faculty of Engineering, University of Tokyo)
MoNA Rating=3.75

>  <NUM PEAKS>  (5360) 
28

>  <MASS SPECTRAL PEAKS>  (5360) 
42 2.74
43 4.28
58 1.91
59 2.48
63 6.37
65 4.91
67 1.45
75 2.39
78 4.76
79 17.66
80 2.95
81 5.18
85 1.51
93 99.99
94 8.11
95 35.89
96 2.65
97 1.14
105 2.33
107 1.04
121 33.24
122 3.62
123 11.13
124 1.13
129 1.2
164 6.96
165 1
166 2.47

>  <PREDICTED SPECTRUM>  (5360) 
36 19
38 46
39 63
40 36
41 29
42 116
43 153
44 92
45 110
50 3
51 31
53 43
54 2
58 65
59 249
61 10
63 157
64 67
65 214
66 39
67 30
69 30
70 24
75 0
77 80
78 111
79 175
80 67
81 143
82 2
83 5
85 122
86 43
91 54
92 5
93 999
94 200
95 623
96 173
97 137
105 9
107 37
121 462
122 160
123 335
124 68
125 36
129 62
138 8
149 77
150 16
164 304
165 82
166 178
167 42

$$$$

     RDKit          2D

 13 13  0  0  0  0  0  0  0  0999 V2000
    3.2476    1.1250    0.0000 C   0  0  0  0  0  0  0  0  0  0  0  0
   -1.9492    1.1256    0.0000 C   0  0  0  0  0  0  0  0  0  0  0  0
    0.6498   -3.3758    0.0000 C   0  0  0  0  0  0  0  0  0  0  0  0
   -2.6986   -0.5760    0.0000 C   0  0  0  0  0  0  0  0  0  0  0  0
    0.6490    1.1258    0.0000 C   0  0  0  0  0  0  0  0  0  0  0  0
    1.9490   -1.1258    0.0000 C   0  0  0  0  0  0  0  0  0  0  0  0
    1.9486    0.3750    0.0000 C   0  0  0  0  0  0  0  0  0  0  0  0
   -0.6500    0.3758    0.0000 C   0  0  0  0  0  0  0  0  0  0  0  0
    0.6500   -1.8758    0.0000 C   0  0  0  0  0  0  0  0  0  0  0  0
   -0.6495   -1.1250    0.0000 C   0  0  0  0  0  0  0  0  0  0  0  0
   -3.2476   -2.6250    0.0000 Cl  0  0  0  0  0  0  0  0  0  0  0  0
   -1.1986   -3.1740    0.0000 Cl  0  0  0  0  0  0  0  0  0  0  0  0
   -1.9486   -1.8750    0.0000 Si  0  0  0  0  0  4  0  0  0  0  0  0
  7  1  1  0
  7  5  2  0
  7  6  1  0
  8  2  1  0
  8  5  1  0
  9  3  1  0
  9  6  2  0
 10  8  2  0
 10  9  1  0
 13  4  1  0
 13 10  1  0
 13 11  1  0
 13 12  1  0
M  END
>  <NAME>  (5361) 
DICHLOROMESITYLMETHYLSILANE

>  <SYNONYMS>  (5361) 


>  <SPECTRUM TYPE>  (5361) 
MS1

>  <INSTRUMENT TYPE>  (5361) 
EI-B

>  <INSTRUMENT>  (5361) 
JEOL JMS-D-3000

>  <ION MODE>  (5361) 
P

>  <INCHIKEY>  (5361) 
PGCGLGVPISOWIV-UHFFFAOYSA-N

>  <FORMULA>  (5361) 
C10H14Cl2Si

>  <EXACT MASS>  (5361) 
232.024182338

>  <MW>  (5361) 
232

>  <ID>  (5361) 
JP001447

>  <CONTRIBUTOR>  (5361) 
University of Tokyo Team, {Faculty of Engineering, University of Tokyo

>  <COMMENT>  (5361) 
SMILES=Cc(c1)cc(C)c(c(C)1)[Si](C)(Cl)Cl
InChI=InChI=1S/C10H14Cl2Si/c1-7-5-8(2)10(9(3)6-7)13(4,11)12/h5-6H,1-4H3
computed SMILES=Cl[Si](Cl)(C=1C(=CC(=CC1C)C)C)C
accession=JP001447
date=2016.01.19 (Created 2008.10.21, modified 2011.05.06)
author=MASS SPECTROSCOPY SOC. OF JAPAN (MSSJ)
license=CC BY-NC-SA
exact mass=232.02418
ionization energy=70 eV
ion type=[M]+*
computed spectral entropy=3.443297418878469
computed normalized entropy=0.8160424531645116
SPLASH=splash10-0159-3920000000-a7b0540560e6fe1319a6
submitter=submitter = University of Tokyo Team (Faculty of Engineering, University of Tokyo)
MoNA Rating=3.75

>  <NUM PEAKS>  (5361) 
68

>  <MASS SPECTRAL PEAKS>  (5361) 
43 1.26
44 1.42
50 2.31
51 8.39
52 2.95
53 5.86
62 1.18
63 10.41
64 1.26
65 6.51
66 1.12
67 1.15
75 1.44
76 1.39
77 12.11
78 4.45
79 4.18
80 1.11
89 2.04
90 1.05
91 17.78
92 1.9
93 2.2
95 1.54
98 1.09
101 1.45
102 2.07
103 6.09
104 3.33
105 5.28
113 9.3
115 9.02
116 2.73
117 8.42
118 4.06
119 99.99
120 11.82
122 1.77
123 3.67
125 1.47
131 1.15
133 2.65
137 1.02
145 1.86
147 2.26
159 2.4
160 2.02
161 1.77
181 22.84
182 3.81
183 8.87
184 1.36
196 23.43
197 6.15
198 9.39
199 2.85
200 1.08
217 15.62
218 2.44
219 9.93
220 1.51
221 2.05
227 1.36
232 21.46
233 3.87
234 15.83
235 2.55
236 3.06

>  <PREDICTED SPECTRUM>  (5361) 
27 11
36 17
38 4
39 124
40 22
41 41
50 59
51 197
52 95
53 112
54 26
62 10
63 179
64 42
65 286
66 37
67 129
69 76
74 16
75 53
76 10
77 213
78 207
79 176
80 58
81 36
82 37
87 4
89 109
90 88
91 374
92 178
93 81
95 34
97 38
99 17
101 21
102 118
103 228
104 218
105 191
106 45
107 8
113 193
115 262
116 131
117 108
118 280
119 999
120 395
123 68
129 14
131 60
132 63
133 63
134 24
144 32
145 129
146 56
147 167
148 48
155 23
156 16
158 5
160 128
161 22
162 17
181 318
182 205
183 226
184 80
195 49
196 380
197 215
198 259
199 120
200 37
204 8
205 25
217 304
218 140
219 274
220 90
221 126
231 15
232 375
233 147
234 338
235 125
236 141
237 21

$$$$

     RDKit          2D

 13 12  0  0  0  0  0  0  0  0999 V2000
    2.0490    3.0000    0.0000 C   0  0  0  0  0  0  0  0  0  0  0  0
    2.0490   -0.0000    0.0000 C   0  0  0  0  0  0  0  0  0  0  0  0
    3.5490    1.5000    0.0000 C   0  0  0  0  0  0  0  0  0  0  0  0
   -1.5000    0.9510    0.0000 C   0  0  0  0  0  0  0  0  0  0  0  0
   -0.9510   -1.0981    0.0000 C   0  0  0  0  0  0  0  0  0  0  0  0
    1.0981   -0.5490    0.0000 C   0  0  0  0  0  0  0  0  0  0  0  0
    1.0981    3.5490    0.0000 C   0  0  0  0  0  0  0  0  0  0  0  0
   -0.9510    4.0981    0.0000 C   0  0  0  0  0  0  0  0  0  0  0  0
   -1.5000    2.0490    0.0000 C   0  0  0  0  0  0  0  0  0  0  0  0
    0.5490    1.5000    0.0000 C   0  0  0  0  0  0  0  0  0  0  0  0
    2.0490    1.5000    0.0000 Si  0  0  0  0  0  4  0  0  0  0  0  0
   -0.2010    0.2010    0.0000 Si  0  0  0  0  0  4  0  0  0  0  0  0
   -0.2010    2.7990    0.0000 Si  0  0  0  0  0  4  0  0  0  0  0  0
 11  1  1  0
 11  2  1  0
 11  3  1  0
 11 10  1  0
 12  4  1  0
 12  5  1  0
 12  6  1  0
 12 10  1  0
 13  7  1  0
 13  8  1  0
 13  9  1  0
 13 10  1  0
M  END
>  <NAME>  (5362) 
TRIS(TRIMETHYLSILYL)METHANE

>  <SYNONYMS>  (5362) 


>  <SPECTRUM TYPE>  (5362) 
MS1

>  <INSTRUMENT TYPE>  (5362) 
EI-B

>  <INSTRUMENT>  (5362) 
JEOL JMS-D-3000

>  <ION MODE>  (5362) 
P

>  <INCHIKEY>  (5362) 
BNZSPXKCIAAEJK-UHFFFAOYSA-N

>  <FORMULA>  (5362) 
C10H28Si3

>  <EXACT MASS>  (5362) 
232.14988048599997

>  <MW>  (5362) 
232

>  <ID>  (5362) 
JP001446

>  <CONTRIBUTOR>  (5362) 
University of Tokyo Team, {Faculty of Engineering, University of Tokyo

>  <COMMENT>  (5362) 
SMILES=C[Si](C)(C)C([Si](C)(C)C)[Si](C)(C)C
InChI=InChI=1S/C10H28Si3/c1-11(2,3)10(12(4,5)6)13(7,8)9/h10H,1-9H3
computed SMILES=C[Si](C)(C)C([Si](C)(C)C)[Si](C)(C)C
accession=JP001446
date=2016.01.19 (Created 2008.10.21, modified 2011.05.06)
author=MASS SPECTROSCOPY SOC. OF JAPAN (MSSJ)
license=CC BY-NC-SA
exact mass=232.14988
ionization energy=70 eV
ion type=[M]+*
computed spectral entropy=2.0416714580741897
computed normalized entropy=0.6815266758307644
SPLASH=splash10-014i-4290000000-6befbea884ab7b2f4b8f
submitter=submitter = University of Tokyo Team (Faculty of Engineering, University of Tokyo)
MoNA Rating=3.75

>  <NUM PEAKS>  (5362) 
20

>  <MASS SPECTRAL PEAKS>  (5362) 
43 2.41
44 1.46
45 8.71
59 10.45
73 34.71
74 2.48
75 1.13
85 1.69
99 1.29
113 2.37
115 1.16
117 1.25
129 24.86
130 4
131 3.03
201 3.51
217 99.99
218 25.24
219 11.54
220 2.03

>  <PREDICTED SPECTRUM>  (5362) 
29 34
31 72
39 12
41 19
43 223
44 42
45 319
46 48
47 40
53 26
55 89
57 64
58 32
59 367
63 20
66 0
67 8
69 110
70 58
71 36
72 51
73 999
74 268
75 205
76 21
83 91
84 7
85 121
86 22
87 10
97 17
99 58
100 56
101 69
102 71
103 25
113 116
114 46
115 152
116 91
117 104
127 28
128 25
129 402
130 329
131 280
133 6
143 348
144 369
145 164
146 1
157 114
158 187
159 168
160 52
201 118
213 57
215 53
216 103
217 467
218 286
219 158
220 61
228 10
229 35
230 60
231 393
232 394
233 184
234 54

$$$$

     RDKit          2D

 14 13  0  0  0  0  0  0  0  0999 V2000
    3.0269    1.4642    0.0000 C   0  0  0  0  0  0  0  0  0  0  0  0
    0.4288   -0.0358    0.0000 C   0  0  0  0  0  0  0  0  0  0  0  0
    2.4779   -0.5848    0.0000 C   0  0  0  0  0  0  0  0  0  0  0  0
   -1.0176    4.8630    0.0000 C   0  0  0  0  0  0  0  0  0  0  0  0
   -2.9220    2.7009    0.0000 C   0  0  0  0  0  0  0  0  0  0  0  0
   -1.7052    0.9632    0.0000 C   0  0  0  0  0  0  0  0  0  0  0  0
    2.1946    3.7509    0.0000 C   0  0  0  0  0  0  0  0  0  0  0  0
    0.4569    4.9677    0.0000 C   0  0  0  0  0  0  0  0  0  0  0  0
   -0.7826    3.4904    0.0000 C   0  0  0  0  0  0  0  0  0  0  0  0
    2.3874    2.5263    0.0000 Cl  0  0  0  0  0  0  0  0  0  0  0  0
    1.7279    0.7142    0.0000 Si  0  0  0  0  0  4  0  0  0  0  0  0
   -1.4447    2.4404    0.0000 Si  0  0  0  0  0  4  0  0  0  0  0  0
    0.7174    3.4904    0.0000 Si  0  0  0  0  0  4  0  0  0  0  0  0
    0.9779    2.0132    0.0000 Si  0  0  0  0  0  4  0  0  0  0  0  0
 11  1  1  0
 11  2  1  0
 11  3  1  0
 12  4  1  0
 12  5  1  0
 12  6  1  0
 13  7  1  0
 13  8  1  0
 13  9  1  0
 14 10  1  0
 14 11  1  0
 14 12  1  0
 14 13  1  0
M  END
>  <NAME>  (5363) 
CHLOROTRIS(TRIMETHYLSILYL)SILANE

>  <SYNONYMS>  (5363) 
2-CHLORO-1.1.1.3.3.3-HEXAMETHYL-2-TRIMETHYLSILYLTRISILANE

>  <SPECTRUM TYPE>  (5363) 
MS1

>  <INSTRUMENT TYPE>  (5363) 
EI-B

>  <INSTRUMENT>  (5363) 
JEOL JMS-D-3000

>  <ION MODE>  (5363) 
P

>  <INCHIKEY>  (5363) 
HCOROOJWVHFMRJ-UHFFFAOYSA-N

>  <FORMULA>  (5363) 
C9H27ClSi4

>  <EXACT MASS>  (5363) 
282.087834664

>  <MW>  (5363) 
282

>  <ID>  (5363) 
JP001445

>  <CONTRIBUTOR>  (5363) 
University of Tokyo Team, {Faculty of Engineering, University of Tokyo

>  <COMMENT>  (5363) 
SMILES=C[Si](C)(C)[Si](Cl)([Si](C)(C)C)[Si](C)(C)C
InChI=InChI=1S/C9H27ClSi4/c1-11(2,3)14(10,12(4,5)6)13(7,8)9/h1-9H3
computed SMILES=Cl[Si]([Si](C)(C)C)([Si](C)(C)C)[Si](C)(C)C
accession=JP001445
date=2016.01.19 (Created 2008.10.21, modified 2011.05.06)
author=MASS SPECTROSCOPY SOC. OF JAPAN (MSSJ)
license=CC BY-NC-SA
exact mass=282.08783
ionization energy=70 eV
ion type=[M]+*
computed spectral entropy=3.215448992418551
computed normalized entropy=0.7853391290237304
SPLASH=splash10-00di-4910000000-a2ccab1b10ac48b958ce
submitter=submitter = University of Tokyo Team (Faculty of Engineering, University of Tokyo)
MoNA Rating=3.75

>  <NUM PEAKS>  (5363) 
60

>  <MASS SPECTRAL PEAKS>  (5363) 
43 6.71
44 3.05
45 18.23
46 1.14
55 1.08
59 9.56
69 1.33
71 1.26
73 90.11
74 7.17
75 3.95
85 3
86 2.19
93 2.84
95 1.17
99 5.6
100 5.82
101 5.09
102 1.11
113 3.01
114 7.06
115 15.05
116 12.68
117 3.86
118 1.11
129 24.38
130 4.15
131 22.27
132 3.44
133 1.74
145 2.94
157 2.75
158 1.03
159 44.65
160 9.67
161 5.61
165 1.24
172 1.13
173 8.8
174 99.99
175 23.6
176 12.59
177 2.09
189 3.2
193 2.39
194 3.86
195 1.84
196 1.65
209 2.46
211 1.05
247 1
267 17.02
268 5.12
269 8.45
270 2.31
271 1.12
282 10.54
283 3.43
284 5.27
285 1.42

>  <PREDICTED SPECTRUM>  (5363) 
41 77
43 59
45 218
46 30
53 23
55 12
59 323
60 27
69 76
70 13
72 1
73 999
74 261
75 161
77 26
83 4
85 85
86 148
87 18
93 170
95 87
97 60
99 68
100 177
101 116
102 27
103 67
104 20
105 24
113 105
114 34
115 213
116 133
117 111
118 16
119 88
121 14
123 58
127 11
129 318
130 170
131 465
132 131
133 123
135 4
137 26
140 10
143 23
145 104
146 56
147 75
151 61
152 38
154 21
155 70
157 123
158 74
159 266
160 188
161 165
162 8
163 31
172 123
173 674
174 856
175 540
176 221
177 134
178 54
179 116
180 2
181 67
190 17
191 14
192 71
193 145
194 139
195 119
206 3
208 123
209 191
210 77
211 38
213 10
232 3
247 185
249 72
250 73
251 100
252 12
253 51
267 611
268 357
269 422
270 158
271 111
282 263
283 140
284 188
285 53

$$$$

     RDKit          2D

  9  8  0  0  0  0  0  0  0  0999 V2000
    2.0490    4.0981    0.0000 C   0  0  0  0  0  0  0  0  0  0  0  0
    2.0490    1.0981    0.0000 C   0  0  0  0  0  0  0  0  0  0  0  0
    3.5490    2.5981    0.0000 C   0  0  0  0  0  0  0  0  0  0  0  0
   -1.5000    2.0490    0.0000 C   0  0  0  0  0  0  0  0  0  0  0  0
   -0.9510    0.0000    0.0000 C   0  0  0  0  0  0  0  0  0  0  0  0
    1.0981    0.5490    0.0000 C   0  0  0  0  0  0  0  0  0  0  0  0
    0.5490    2.5981    0.0000 C   0  0  0  0  0  0  0  0  0  0  0  0
    2.0490    2.5981    0.0000 Si  0  0  0  0  0  4  0  0  0  0  0  0
   -0.2010    1.2990    0.0000 Si  0  0  0  0  0  4  0  0  0  0  0  0
  8  1  1  0
  8  2  1  0
  8  3  1  0
  8  7  1  0
  9  4  1  0
  9  5  1  0
  9  6  1  0
  9  7  1  0
M  END
>  <NAME>  (5364) 
BIS(TRIMETHYLSILYL)METHANE

>  <SYNONYMS>  (5364) 
1.1.1.3.3.3-HEXAMETHYLDISILMETHYLENE

>  <SPECTRUM TYPE>  (5364) 
MS1

>  <INSTRUMENT TYPE>  (5364) 
EI-B

>  <INSTRUMENT>  (5364) 
JEOL JMS-D-3000

>  <ION MODE>  (5364) 
P

>  <INCHIKEY>  (5364) 
GYIODRUWWNNGPI-UHFFFAOYSA-N

>  <FORMULA>  (5364) 
C7H20Si2

>  <EXACT MASS>  (5364) 
160.1103537

>  <MW>  (5364) 
160

>  <ID>  (5364) 
JP001444

>  <CONTRIBUTOR>  (5364) 
University of Tokyo Team, {Faculty of Engineering, University of Tokyo

>  <COMMENT>  (5364) 
SMILES=C[Si](C)(C)C[Si](C)(C)C
InChI=InChI=1S/C7H20Si2/c1-8(2,3)7-9(4,5)6/h7H2,1-6H3
computed SMILES=C[Si](C)(C)C[Si](C)(C)C
accession=JP001444
date=2016.01.19 (Created 2008.10.21, modified 2011.05.06)
author=MASS SPECTROSCOPY SOC. OF JAPAN (MSSJ)
license=CC BY-NC-SA
exact mass=160.11035
ionization energy=70 eV
ion type=[M]+*
computed spectral entropy=1.860166234986761
computed normalized entropy=0.6109878554147631
SPLASH=splash10-0002-5900000000-ff0b986feaf3c8fce20f
submitter=submitter = University of Tokyo Team (Faculty of Engineering, University of Tokyo)
MoNA Rating=3.75

>  <NUM PEAKS>  (5364) 
21

>  <MASS SPECTRAL PEAKS>  (5364) 
43 3.57
44 1.48
45 8.51
51 1.53
57 1.01
58 1.11
59 7.25
65 6.81
66 1.01
72 1.01
73 37.42
74 3.18
75 1.43
85 1.67
101 1.18
115 1.1
129 4.7
145 99.99
146 14.63
147 6.88
160 0.11

>  <PREDICTED SPECTRUM>  (5364) 
29 37
31 67
39 142
40 11
41 194
42 120
43 391
44 102
45 364
46 69
53 2
54 24
55 122
57 484
58 259
59 430
60 66
61 30
66 40
71 159
72 262
73 999
74 349
75 267
76 30
85 25
86 10
87 87
88 4
89 14
115 65
129 147
131 491
132 178
144 32
145 647
146 396
147 761
148 274
149 138
160 117

$$$$

     RDKit          2D

 10  9  0  0  0  0  0  0  0  0999 V2000
    1.1618   -0.2377    0.0000 C   0  0  0  0  0  0  0  0  0  0  0  0
   -0.3382    2.3603    0.0000 C   0  0  0  0  0  0  0  0  0  0  0  0
   -0.8873    0.3113    0.0000 C   0  0  0  0  0  0  0  0  0  0  0  0
    3.2108    3.3113    0.0000 C   0  0  0  0  0  0  0  0  0  0  0  0
    1.7108    4.8113    0.0000 C   0  0  0  0  0  0  0  0  0  0  0  0
    0.2108    3.3113    0.0000 C   0  0  0  0  0  0  0  0  0  0  0  0
    1.7108    1.8113    0.0000 C   0  0  0  0  0  0  0  0  0  0  0  0
    3.0099    1.0613    0.0000 Cl  0  0  0  0  0  0  0  0  0  0  0  0
    0.4118    1.0613    0.0000 Si  0  0  0  0  0  4  0  0  0  0  0  0
    1.7108    3.3113    0.0000 Si  0  0  0  0  0  4  0  0  0  0  0  0
  8  7  1  0
  9  1  1  0
  9  2  1  0
  9  3  1  0
  9  7  1  0
 10  4  1  0
 10  5  1  0
 10  6  1  0
 10  7  1  0
M  END
>  <NAME>  (5365) 
CHLOROBIS(TRIMETHYLSILYL)METHANE

>  <SYNONYMS>  (5365) 


>  <SPECTRUM TYPE>  (5365) 
MS1

>  <INSTRUMENT TYPE>  (5365) 
EI-B

>  <INSTRUMENT>  (5365) 
JEOL JMS-D-3000

>  <ION MODE>  (5365) 
P

>  <INCHIKEY>  (5365) 
XNJGZHVYPBNLEB-UHFFFAOYSA-N

>  <FORMULA>  (5365) 
C7H19ClSi2

>  <EXACT MASS>  (5365) 
194.071381348

>  <MW>  (5365) 
194

>  <ID>  (5365) 
JP001443

>  <CONTRIBUTOR>  (5365) 
University of Tokyo Team, {Faculty of Engineering, University of Tokyo

>  <COMMENT>  (5365) 
SMILES=C[Si](C)(C)C(Cl)[Si](C)(C)C
InChI=InChI=1S/C7H19ClSi2/c1-9(2,3)7(8)10(4,5)6/h7H,1-6H3
computed SMILES=ClC([Si](C)(C)C)[Si](C)(C)C
accession=JP001443
date=2016.01.19 (Created 2008.10.21, modified 2011.05.06)
author=MASS SPECTROSCOPY SOC. OF JAPAN (MSSJ)
license=CC BY-NC-SA
exact mass=194.07138
ionization energy=70 eV
ion type=[M]+*
computed spectral entropy=2.174801635103994
computed normalized entropy=0.6675068125589269
SPLASH=splash10-00di-9000000000-88350d0b0348d87bf766
submitter=submitter = University of Tokyo Team (Faculty of Engineering, University of Tokyo)
MoNA Rating=3.75

>  <NUM PEAKS>  (5365) 
26

>  <MASS SPECTRAL PEAKS>  (5365) 
43 6.18
44 1.97
45 8
55 1.24
58 2.13
59 21.74
60 1.46
65 1.75
71 1.53
72 1.55
73 99.99
74 8.51
75 3.66
85 39.38
86 7.65
87 2.67
93 4.56
95 1.57
106 4.95
108 1.78
129 1.19
151 1.15
179 7.1
180 1.23
181 2.91
194 1.5

>  <PREDICTED SPECTRUM>  (5365) 
29 19
31 27
39 38
43 194
44 59
45 350
46 80
47 21
51 3
53 30
55 82
57 95
58 78
59 370
60 64
63 61
64 1
65 101
66 50
67 57
68 10
69 58
70 56
71 93
72 154
73 999
74 273
75 162
77 21
79 2
81 61
82 56
83 69
85 165
86 156
87 117
91 42
93 429
94 9
95 183
96 4
100 18
101 21
103 35
105 44
106 12
113 96
120 62
127 48
129 11
143 44
149 30
151 29
152 10
159 59
179 454
180 199
181 228
182 52
183 7
193 54
194 261
195 117
196 133
197 22

$$$$

     RDKit          2D

 11 10  0  0  0  0  0  0  0  0999 V2000
    2.0490    4.0981    0.0000 C   0  0  0  0  0  0  0  0  0  0  0  0
    2.0490    1.0981    0.0000 C   0  0  0  0  0  0  0  0  0  0  0  0
    3.5490    2.5981    0.0000 C   0  0  0  0  0  0  0  0  0  0  0  0
   -1.5000    2.0490    0.0000 C   0  0  0  0  0  0  0  0  0  0  0  0
   -0.9510    0.0000    0.0000 C   0  0  0  0  0  0  0  0  0  0  0  0
    1.0981    0.5490    0.0000 C   0  0  0  0  0  0  0  0  0  0  0  0
    0.5490    2.5981    0.0000 C   0  0  0  0  0  0  0  0  0  0  0  0
    0.8095    4.0753    0.0000 Cl  0  0  0  0  0  0  0  0  0  0  0  0
   -0.8605    3.1111    0.0000 Cl  0  0  0  0  0  0  0  0  0  0  0  0
    2.0490    2.5981    0.0000 Si  0  0  0  0  0  4  0  0  0  0  0  0
   -0.2010    1.2990    0.0000 Si  0  0  0  0  0  4  0  0  0  0  0  0
  8  7  1  0
  9  7  1  0
 10  1  1  0
 10  2  1  0
 10  3  1  0
 10  7  1  0
 11  4  1  0
 11  5  1  0
 11  6  1  0
 11  7  1  0
M  END
>  <NAME>  (5366) 
DICHLOROBIS(TRIMETHYLSILYL)METHANE

>  <SYNONYMS>  (5366) 


>  <SPECTRUM TYPE>  (5366) 
MS1

>  <INSTRUMENT TYPE>  (5366) 
EI-B

>  <INSTRUMENT>  (5366) 
JEOL JMS-D-3000

>  <ION MODE>  (5366) 
P

>  <INCHIKEY>  (5366) 
WWPQQMDJOWANKG-UHFFFAOYSA-N

>  <FORMULA>  (5366) 
C7H18Cl2Si2

>  <EXACT MASS>  (5366) 
228.032408996

>  <MW>  (5366) 
228

>  <ID>  (5366) 
JP001442

>  <CONTRIBUTOR>  (5366) 
University of Tokyo Team, {Faculty of Engineering, University of Tokyo

>  <COMMENT>  (5366) 
SMILES=C[Si](C)(C)C(Cl)(Cl)[Si](C)(C)C
InChI=InChI=1S/C7H18Cl2Si2/c1-10(2,3)7(8,9)11(4,5)6/h1-6H3
computed SMILES=ClC(Cl)([Si](C)(C)C)[Si](C)(C)C
accession=JP001442
date=2016.01.19 (Created 2008.10.21, modified 2011.05.06)
author=MASS SPECTROSCOPY SOC. OF JAPAN (MSSJ)
license=CC BY-NC-SA
exact mass=228.03241
ionization energy=70 eV
ion type=[M]+*
computed spectral entropy=2.576183140740125
computed normalized entropy=0.7305501302991527
SPLASH=splash10-00dl-9100000000-fc82bfcb4c0120748e8c
submitter=submitter = University of Tokyo Team (Faculty of Engineering, University of Tokyo)
MoNA Rating=3.75

>  <NUM PEAKS>  (5366) 
34

>  <MASS SPECTRAL PEAKS>  (5366) 
43 10.49
44 2.55
45 12.92
53 1.14
55 1.97
58 2.74
59 25.98
60 1.79
63 3.03
65 5.43
67 1.91
69 1.07
73 99.99
74 8.29
75 3.57
78 2.71
79 6.76
80 1.33
81 2.52
83 2.65
85 47.32
86 3.98
87 1.63
92 1.21
93 47.62
94 3
95 12.46
105 23.87
106 1.99
107 8.16
119 1.22
120 1.02
228 1.59
230 1.19

>  <PREDICTED SPECTRUM>  (5366) 
15 4
28 9
29 38
31 23
33 2
36 15
39 63
41 18
42 48
43 287
44 126
45 360
46 69
47 66
49 14
51 39
52 15
53 59
54 53
55 22
57 83
58 129
59 387
60 62
61 42
62 20
63 144
64 39
65 169
66 81
67 132
68 26
69 136
70 15
71 47
72 73
73 999
74 207
75 128
76 5
77 61
78 34
79 63
80 5
81 53
82 48
83 190
84 65
85 167
86 48
87 41
89 28
91 90
92 30
93 512
94 64
95 287
96 41
97 149
98 19
99 93
100 82
101 40
102 63
103 141
104 67
105 109
106 27
107 3
109 16
110 37
111 23
113 53
115 48
119 120
120 145
121 186
122 119
123 93
125 198
126 62
127 36
131 21
138 13
140 77
141 16
142 67
143 0
147 15
149 62
153 7
161 93
163 98
165 37
177 159
178 84
197 13
213 626
214 224
215 443
216 158
217 164
228 46
230 32

$$$$

     RDKit          2D

  8  7  0  0  0  0  0  0  0  0999 V2000
    1.6740    0.1005    0.0000 C   0  0  0  0  0  0  0  0  0  0  0  0
   -0.9240    1.6005    0.0000 C   0  0  0  0  0  0  0  0  0  0  0  0
   -0.3750   -0.4486    0.0000 C   0  0  0  0  0  0  0  0  0  0  0  0
    2.4240    1.3995    0.0000 C   0  0  0  0  0  0  0  0  0  0  0  0
    1.8750    3.4486    0.0000 C   0  0  0  0  0  0  0  0  0  0  0  0
   -0.1740    2.8995    0.0000 Cl  0  0  0  0  0  0  0  0  0  0  0  0
    0.3750    0.8505    0.0000 Si  0  0  0  0  0  4  0  0  0  0  0  0
    1.1250    2.1495    0.0000 Si  0  0  0  0  0  4  0  0  0  0  0  0
  7  1  1  0
  7  2  1  0
  7  3  1  0
  8  4  1  0
  8  5  1  0
  8  6  1  0
  8  7  1  0
M  END
>  <NAME>  (5367) 
CHLOROPENTAMETHYLDISILANE

>  <SYNONYMS>  (5367) 


>  <SPECTRUM TYPE>  (5367) 
MS1

>  <INSTRUMENT TYPE>  (5367) 
EI-B

>  <INSTRUMENT>  (5367) 
JEOL JMS-DI-300

>  <ION MODE>  (5367) 
P

>  <INCHIKEY>  (5367) 
GJCAUTWJWBFMFU-UHFFFAOYSA-N

>  <FORMULA>  (5367) 
C5H15ClSi2

>  <EXACT MASS>  (5367) 
166.04008122

>  <MW>  (5367) 
166

>  <ID>  (5367) 
JP001441

>  <CONTRIBUTOR>  (5367) 
University of Tokyo Team, {Faculty of Engineering, University of Tokyo

>  <COMMENT>  (5367) 
SMILES=C[Si](C)(C)[Si](C)(C)Cl
InChI=InChI=1S/C5H15ClSi2/c1-7(2,3)8(4,5)6/h1-5H3
computed SMILES=Cl[Si](C)(C)[Si](C)(C)C
accession=JP001441
date=2016.01.19 (Created 2008.10.21, modified 2011.05.06)
author=MASS SPECTROSCOPY SOC. OF JAPAN (MSSJ)
license=CC BY-NC-SA
exact mass=166.04008
ionization energy=70 eV
ion type=[M]+*
computed spectral entropy=1.8495400776783466
computed normalized entropy=0.6173916454437173
SPLASH=splash10-00di-9000000000-813048c7382a20d37aff
submitter=submitter = University of Tokyo Team (Faculty of Engineering, University of Tokyo)
MoNA Rating=3.75

>  <NUM PEAKS>  (5367) 
20

>  <MASS SPECTRAL PEAKS>  (5367) 
43 7.5
44 6.77
45 8.74
55 1.4
58 3.45
59 2.37
63 1.81
65 2.75
69 1.2
72 3.02
73 99.99
74 8.74
75 3.92
93 3.86
95 1.39
131 4.79
151 4.13
153 1.36
166 4.41
168 1.71

>  <PREDICTED SPECTRUM>  (5367) 
15 24
28 9
29 58
30 35
31 108
33 10
38 28
39 11
42 27
43 257
44 171
45 276
47 46
50 4
51 29
52 29
53 35
54 25
56 13
57 152
58 189
59 383
60 102
63 100
65 136
66 48
67 57
72 189
73 999
74 291
75 193
76 18
77 93
78 94
79 32
85 68
93 525
94 18
95 273
96 64
97 12
99 58
100 107
101 8
113 68
115 102
131 313
132 33
135 69
151 329
152 90
153 217
154 5
166 231
167 90
168 143
169 20

$$$$

     RDKit          2D

 19 21  0  0  0  0  0  0  0  0999 V2000
    6.4971   -5.2506    0.0000 C   0  0  0  0  0  0  0  0  0  0  0  0
   -1.3000   -5.2519    0.0000 C   0  0  0  0  0  0  0  0  0  0  0  0
    2.5975    1.5012    0.0000 C   0  0  0  0  0  0  0  0  0  0  0  0
    5.1971   -6.0006    0.0000 C   0  0  0  0  0  0  0  0  0  0  0  0
    6.4971   -3.7506    0.0000 C   0  0  0  0  0  0  0  0  0  0  0  0
   -1.2995   -3.7510    0.0000 C   0  0  0  0  0  0  0  0  0  0  0  0
   -0.0010   -6.0019    0.0000 C   0  0  0  0  0  0  0  0  0  0  0  0
    3.8970    0.7504    0.0000 C   0  0  0  0  0  0  0  0  0  0  0  0
    1.2984    0.7512    0.0000 C   0  0  0  0  0  0  0  0  0  0  0  0
    3.8971   -5.2506    0.0000 C   0  0  0  0  0  0  0  0  0  0  0  0
    5.1971   -3.0006    0.0000 C   0  0  0  0  0  0  0  0  0  0  0  0
   -0.0000   -3.0002    0.0000 C   0  0  0  0  0  0  0  0  0  0  0  0
    1.2986   -5.2510    0.0000 C   0  0  0  0  0  0  0  0  0  0  0  0
    3.8975   -0.7504    0.0000 C   0  0  0  0  0  0  0  0  0  0  0  0
    1.2989   -0.7496    0.0000 C   0  0  0  0  0  0  0  0  0  0  0  0
    3.8971   -3.7506    0.0000 C   0  0  0  0  0  0  0  0  0  0  0  0
    1.2990   -3.7502    0.0000 C   0  0  0  0  0  0  0  0  0  0  0  0
    2.5984   -1.5004    0.0000 C   0  0  0  0  0  0  0  0  0  0  0  0
    2.5982   -3.0004    0.0000 Si  0  0  0  0  0  4  0  0  0  0  0  0
  4  1  2  0
  5  1  1  0
  6  2  2  0
  7  2  1  0
  8  3  2  0
  9  3  1  0
 10  4  1  0
 11  5  2  0
 12  6  1  0
 13  7  2  0
 14  8  1  0
 15  9  2  0
 16 10  2  0
 16 11  1  0
 17 12  2  0
 17 13  1  0
 18 14  2  0
 18 15  1  0
 19 16  1  0
 19 17  1  0
 19 18  1  0
M  END
>  <NAME>  (5368) 
TRIPHENYLSILANE

>  <SYNONYMS>  (5368) 


>  <SPECTRUM TYPE>  (5368) 
MS1

>  <INSTRUMENT TYPE>  (5368) 
EI-B

>  <INSTRUMENT>  (5368) 
JEOL JMS-D-3000

>  <ION MODE>  (5368) 
P

>  <INCHIKEY>  (5368) 
AKQNYQDSIDKVJZ-UHFFFAOYSA-N

>  <FORMULA>  (5368) 
C18H16Si

>  <EXACT MASS>  (5368) 
260.102127042

>  <MW>  (5368) 
260

>  <ID>  (5368) 
JP001440

>  <CONTRIBUTOR>  (5368) 
University of Tokyo Team, {Faculty of Engineering, University of Tokyo

>  <COMMENT>  (5368) 
SMILES=c(c3)ccc(c3)[SiH](c(c2)cccc2)c(c1)cccc1
InChI=InChI=1S/C18H16Si/c1-4-10-16(11-5-1)19(17-12-6-2-7-13-17)18-14-8-3-9-15-18/h1-15,19H
computed SMILES=C=1C=CC(=CC1)[SiH](C=2C=CC=CC2)C=3C=CC=CC3
accession=JP001440
date=2016.01.19 (Created 2008.10.21, modified 2011.05.06)
author=MASS SPECTROSCOPY SOC. OF JAPAN (MSSJ)
license=CC BY-NC-SA
exact mass=260.10213
ionization energy=70 eV
ion type=[M]+*
computed spectral entropy=2.1856950830258097
computed normalized entropy=0.6970815228814309
SPLASH=splash10-001i-0900000000-a701308cfbdd4e26e15c
submitter=submitter = University of Tokyo Team (Faculty of Engineering, University of Tokyo)
MoNA Rating=3.75

>  <NUM PEAKS>  (5368) 
23

>  <MASS SPECTRAL PEAKS>  (5368) 
51 1.53
53 6.22
77 1.57
78 2.94
79 4.54
91 1.67
103 2.51
104 1.13
105 23.62
106 3.33
107 1.13
129 2.07
154 1.06
155 3.87
179 1.35
180 12.52
181 50.82
182 99.99
183 24.48
184 5.95
259 6.33
260 11.8
261 3.11

>  <PREDICTED SPECTRUM>  (5368) 
15 15
25 20
26 95
27 235
28 147
29 188
31 8
37 20
38 39
39 161
40 36
41 124
44 13
45 144
47 19
49 2
50 200
51 278
52 178
53 325
54 151
55 153
56 10
57 66
59 17
60 160
61 35
62 63
63 163
64 57
65 137
66 113
67 123
69 35
73 163
74 111
75 84
76 78
77 433
78 400
79 222
80 44
81 67
85 115
89 94
90 75
91 222
92 137
93 134
94 90
95 79
96 74
97 114
102 2
103 115
104 508
105 760
106 377
107 155
117 91
119 91
120 178
121 80
122 143
123 63
129 51
137 18
139 73
141 119
142 51
143 8
144 20
151 80
152 133
153 165
154 171
155 305
156 204
157 148
159 15
165 85
167 347
168 202
169 150
177 1
178 205
179 314
180 269
181 620
182 999
183 779
184 387
185 192
197 316
198 135
257 337
258 22
259 658
260 613
261 438
262 226
263 120

$$$$

     RDKit          2D

 16 17  0  0  0  0  0  0  0  0999 V2000
    2.5987   -3.0002    0.0000 C   0  0  0  0  0  0  0  0  0  0  0  0
    5.1970   -1.5006    0.0000 C   0  0  0  0  0  0  0  0  0  0  0  0
   -1.3000    0.7500    0.0000 C   0  0  0  0  0  0  0  0  0  0  0  0
    3.8974    3.7512    0.0000 C   0  0  0  0  0  0  0  0  0  0  0  0
    0.0000    1.5000    0.0000 C   0  0  0  0  0  0  0  0  0  0  0  0
   -1.3000   -0.7500    0.0000 C   0  0  0  0  0  0  0  0  0  0  0  0
    5.1969    3.0004    0.0000 C   0  0  0  0  0  0  0  0  0  0  0  0
    2.5983    3.0012    0.0000 C   0  0  0  0  0  0  0  0  0  0  0  0
    1.3000    0.7500    0.0000 C   0  0  0  0  0  0  0  0  0  0  0  0
   -0.0000   -1.5000    0.0000 C   0  0  0  0  0  0  0  0  0  0  0  0
    5.1974    1.4996    0.0000 C   0  0  0  0  0  0  0  0  0  0  0  0
    2.5988    1.5004    0.0000 C   0  0  0  0  0  0  0  0  0  0  0  0
    1.3000   -0.7500    0.0000 C   0  0  0  0  0  0  0  0  0  0  0  0
    3.8983    0.7496    0.0000 C   0  0  0  0  0  0  0  0  0  0  0  0
    2.5989   -1.5002    0.0000 Si  0  0  0  0  0  4  0  0  0  0  0  0
    3.8981   -0.7504    0.0000 Si  0  0  0  0  0  4  0  0  0  0  0  0
  5  3  2  0
  6  3  1  0
  7  4  2  0
  8  4  1  0
  9  5  1  0
 10  6  2  0
 11  7  1  0
 12  8  2  0
 13  9  2  0
 13 10  1  0
 14 11  2  0
 14 12  1  0
 15  1  1  0
 15 13  1  0
 16  2  1  0
 16 14  1  0
 16 15  1  0
M  END
>  <NAME>  (5369) 
1.2-DIMETHYL-1.2-DIPHENYLDISILANE

>  <SYNONYMS>  (5369) 


>  <SPECTRUM TYPE>  (5369) 
MS1

>  <INSTRUMENT TYPE>  (5369) 
EI-B

>  <INSTRUMENT>  (5369) 
JEOL JMS-D-3000

>  <ION MODE>  (5369) 
P

>  <INCHIKEY>  (5369) 
XHYDSQBIDFZOGB-UHFFFAOYSA-N

>  <FORMULA>  (5369) 
C14H18Si2

>  <EXACT MASS>  (5369) 
242.094703636

>  <MW>  (5369) 
242

>  <ID>  (5369) 
JP001439

>  <CONTRIBUTOR>  (5369) 
University of Tokyo Team, {Faculty of Engineering, University of Tokyo

>  <COMMENT>  (5369) 
SMILES=c(c2)ccc(c2)[SiH](C)[SiH](C)c(c1)cccc1
InChI=InChI=1S/C14H18Si2/c1-15(13-9-5-3-6-10-13)16(2)14-11-7-4-8-12-14/h3-12,15-16H,1-2H3
computed SMILES=C=1C=CC(=CC1)[SiH](C)[SiH](C=2C=CC=CC2)C
accession=JP001439
date=2016.01.19 (Created 2008.10.21, modified 2011.05.06)
author=MASS SPECTROSCOPY SOC. OF JAPAN (MSSJ)
license=CC BY-NC-SA
exact mass=242.0947
ionization energy=70 eV
ion type=[M]+*
computed spectral entropy=2.5670537801635955
computed normalized entropy=0.7163499968189261
SPLASH=splash10-0002-1900000000-360cb1b516e549cdc9be
submitter=submitter = University of Tokyo Team (Faculty of Engineering, University of Tokyo)
MoNA Rating=3.75

>  <NUM PEAKS>  (5369) 
36

>  <MASS SPECTRAL PEAKS>  (5369) 
43 14.09
44 2.38
53 5.29
55 1.03
67 1.27
69 1.76
77 1.11
78 1.95
79 3.71
81 1.3
91 2.02
93 2.81
95 2.95
103 1.23
105 31.67
106 4.46
107 2.48
119 3.71
120 9.63
121 42.71
122 5.99
123 1.88
135 5.44
149 2.84
163 2.61
164 2.65
165 1.64
181 2.25
183 1.53
195 2.05
197 99.99
198 20.18
199 5.34
227 1.62
242 5.86
243 1.54

>  <PREDICTED SPECTRUM>  (5369) 
26 28
27 56
28 20
29 36
34 2
37 0
38 1
39 89
40 14
41 139
42 118
43 272
44 94
45 142
50 87
51 165
52 64
53 199
54 12
55 115
57 66
58 49
59 96
61 20
62 7
63 42
65 73
66 85
67 115
69 61
73 23
74 20
77 142
78 155
79 97
85 12
86 38
89 2
91 55
93 44
103 40
104 76
105 421
106 177
107 116
119 154
120 186
121 612
122 229
123 127
135 251
136 38
149 157
150 25
151 26
163 49
164 275
165 124
181 17
183 131
195 18
197 999
198 484
199 208
227 102
228 34
241 24
242 288
243 135
244 62

$$$$

     RDKit          2D

  7  6  0  0  0  0  0  0  0  0999 V2000
   -0.6495    3.3750    0.0000 C   0  0  0  0  0  0  0  0  0  0  0  0
    0.6495    2.6250    0.0000 C   0  0  0  0  0  0  0  0  0  0  0  0
   -1.9486    2.6250    0.0000 C   0  0  0  0  0  0  0  0  0  0  0  0
    1.9486    3.3750    0.0000 C   0  0  0  0  0  0  0  0  0  0  0  0
   -3.2476    3.3750    0.0000 C   0  0  0  0  0  0  0  0  0  0  0  0
    1.9486    4.8750    0.0000 I   0  0  0  0  0  0  0  0  0  0  0  0
   -3.2476    4.8750    0.0000 I   0  0  0  0  0  0  0  0  0  0  0  0
  2  1  1  0
  3  1  1  0
  2  4  2  0
  3  5  2  0
  6  4  1  0
  7  5  1  0
M  END
>  <NAME>  (5370) 
(1Z.4Z)-1.5-DIIODO-1.4-PENTADIENE

>  <SYNONYMS>  (5370) 


>  <SPECTRUM TYPE>  (5370) 
MS1

>  <INSTRUMENT TYPE>  (5370) 
EI-B

>  <INSTRUMENT>  (5370) 
JEOL JMS-D-3000

>  <ION MODE>  (5370) 
P

>  <INCHIKEY>  (5370) 
PSYRQZJSTOQMOF-JVLMNHKTSA-N

>  <FORMULA>  (5370) 
C5H6I2

>  <EXACT MASS>  (5370) 
319.855896192

>  <MW>  (5370) 
320

>  <ID>  (5370) 
JP001438

>  <CONTRIBUTOR>  (5370) 
University of Tokyo Team, {Faculty of Engineering, University of Tokyo

>  <COMMENT>  (5370) 
SMILES=[H]C(CC([H])=C([H])I)=C([H])I
InChI=InChI=1S/C5H6I2/c6-4-2-1-3-5-7/h2-5H,1H2/b4-2-,5-3-
computed SMILES=IC=CCC=CI
accession=JP001438
date=2016.01.19 (Created 2008.10.21, modified 2011.05.06)
author=MASS SPECTROSCOPY SOC. OF JAPAN (MSSJ)
license=CC BY-NC-SA
exact mass=319.85589
ionization energy=70 eV
ion type=[M]+*
computed spectral entropy=1.7785162470215707
computed normalized entropy=0.6414641424296177
SPLASH=splash10-014i-9301000000-cacf2de33d2475d805b9
submitter=submitter = University of Tokyo Team (Faculty of Engineering, University of Tokyo)
MoNA Rating=3.75

>  <NUM PEAKS>  (5370) 
16

>  <MASS SPECTRAL PEAKS>  (5370) 
61 1.02
62 1.61
63 3.15
64 1.48
65 19.93
66 99.99
67 5.83
127 10.73
128 1.14
141 1.44
167 7.22
193 34.05
194 2.04
254 1.18
320 18.45
321 1.21

>  <PREDICTED SPECTRUM>  (5370) 
14 28
15 49
17 10
18 37
25 50
26 110
27 120
28 36
29 19
36 35
37 155
38 313
39 258
40 198
41 229
49 125
50 148
51 376
52 123
53 55
54 38
55 183
61 39
62 48
63 283
64 214
65 630
66 827
67 314
68 72
74 8
75 13
77 102
79 80
80 16
127 585
128 252
155 63
193 999
194 153
254 289
320 624
321 129

$$$$

     RDKit          2D

 16 16  0  0  0  0  0  0  0  0999 V2000
   -2.5987   -3.0002    0.0000 C   0  0  0  0  0  0  0  0  0  0  0  0
   -3.8981   -0.7504    0.0000 C   0  0  0  0  0  0  0  0  0  0  0  0
    3.1483   -0.5487    0.0000 C   0  0  0  0  0  0  0  0  0  0  0  0
    5.1972    0.0006    0.0000 C   0  0  0  0  0  0  0  0  0  0  0  0
    4.6479    2.0496    0.0000 C   0  0  0  0  0  0  0  0  0  0  0  0
    3.5629    2.6494    0.0000 C   0  0  0  0  0  0  0  0  0  0  0  0
    1.6346    2.6491    0.0000 C   0  0  0  0  0  0  0  0  0  0  0  0
   -1.3000    0.7500    0.0000 C   0  0  0  0  0  0  0  0  0  0  0  0
   -0.0000   -1.5000    0.0000 C   0  0  0  0  0  0  0  0  0  0  0  0
    0.0000    1.5000    0.0000 C   0  0  0  0  0  0  0  0  0  0  0  0
    1.3000   -0.7500    0.0000 C   0  0  0  0  0  0  0  0  0  0  0  0
   -2.5989   -1.5002    0.0000 C   0  0  0  0  0  0  0  0  0  0  0  0
   -1.3000   -0.7500    0.0000 C   0  0  0  0  0  0  0  0  0  0  0  0
    1.3000    0.7500    0.0000 C   0  0  0  0  0  0  0  0  0  0  0  0
    3.8981    0.7504    0.0000 Si  0  0  0  0  0  4  0  0  0  0  0  0
    2.5989    1.5002    0.0000 Si  0  0  0  0  0  4  0  0  0  0  0  0
 10  8  2  0
 11  9  1  0
 12  1  2  0
 12  2  1  0
 13  8  1  0
 13  9  2  0
 13 12  1  0
 14 10  1  0
 14 11  2  0
 15  3  1  0
 15  4  1  0
 15  5  1  0
 16  6  1  0
 16  7  1  0
 16 14  1  0
 16 15  1  0
M  END
>  <NAME>  (5371) 
PARA-ISOPROPENYLPHENYLPENTAMETHYLDISILANE

>  <SYNONYMS>  (5371) 


>  <SPECTRUM TYPE>  (5371) 
MS1

>  <INSTRUMENT TYPE>  (5371) 
EI-B

>  <INSTRUMENT>  (5371) 
JEOL JMS-D-3000

>  <ION MODE>  (5371) 
P

>  <INCHIKEY>  (5371) 
SYQYMCRKKHGMDB-UHFFFAOYSA-N

>  <FORMULA>  (5371) 
C14H24Si2

>  <EXACT MASS>  (5371) 
248.141653828

>  <MW>  (5371) 
248

>  <ID>  (5371) 
JP001437

>  <CONTRIBUTOR>  (5371) 
University of Tokyo Team, {Faculty of Engineering, University of Tokyo

>  <COMMENT>  (5371) 
SMILES=CC(=C)c(c1)ccc(c1)[Si](C)(C)[Si](C)(C)C
InChI=InChI=1S/C14H24Si2/c1-12(2)13-8-10-14(11-9-13)16(6,7)15(3,4)5/h8-11H,1H2,2-7H3
computed SMILES=C=C(C1=CC=C(C=C1)[Si](C)(C)[Si](C)(C)C)C
accession=JP001437
date=2016.01.19 (Created 2008.10.21, modified 2011.05.06)
author=MASS SPECTROSCOPY SOC. OF JAPAN (MSSJ)
license=CC BY-NC-SA
exact mass=248.14165
ionization energy=70 eV
ion type=[M]+*
computed spectral entropy=2.4457523776466976
computed normalized entropy=0.759815696757063
SPLASH=splash10-00b9-3900000000-51c031e76d81e120761d
submitter=submitter = University of Tokyo Team (Faculty of Engineering, University of Tokyo)
MoNA Rating=3.75

>  <NUM PEAKS>  (5371) 
25

>  <MASS SPECTRAL PEAKS>  (5371) 
51 2.42
58 2.61
59 14.16
60 2.42
73 52.71
74 4.85
75 3.19
78 4.14
91 2.36
105 3.63
119 3.76
131 3.31
135 3.89
143 2.61
145 10.84
159 13.84
160 36.24
161 6.5
174 17.93
175 99.99
176 17.86
177 5.16
233 5.1
234 2.1
248 3.25

>  <PREDICTED SPECTRUM>  (5371) 
27 37
28 1
29 62
41 14
43 178
44 146
45 236
46 29
57 79
58 122
59 227
60 12
65 0
73 765
74 192
75 138
77 43
79 0
83 3
85 29
91 84
93 34
102 25
103 31
105 6
115 29
117 106
118 60
119 110
120 0
121 96
130 24
131 162
132 4
135 49
145 286
146 40
147 117
149 79
158 31
159 424
160 523
161 196
162 33
174 233
175 999
176 453
177 189
193 339
233 321
234 173
235 36
248 332
249 149
250 50

$$$$

     RDKit          2D

 16 16  0  0  0  0  0  0  0  0999 V2000
    5.9472    0.2017    0.0000 C   0  0  0  0  0  0  0  0  0  0  0  0
    6.4959    2.2508    0.0000 C   0  0  0  0  0  0  0  0  0  0  0  0
    4.4468    2.7995    0.0000 C   0  0  0  0  0  0  0  0  0  0  0  0
    3.5629    2.6494    0.0000 C   0  0  0  0  0  0  0  0  0  0  0  0
    1.6346    2.6491    0.0000 C   0  0  0  0  0  0  0  0  0  0  0  0
   -1.3000    0.7500    0.0000 C   0  0  0  0  0  0  0  0  0  0  0  0
    0.0000   -1.5000    0.0000 C   0  0  0  0  0  0  0  0  0  0  0  0
    0.0000    1.5000    0.0000 C   0  0  0  0  0  0  0  0  0  0  0  0
    1.3000   -0.7500    0.0000 C   0  0  0  0  0  0  0  0  0  0  0  0
   -2.5989   -1.5002    0.0000 C   0  0  0  0  0  0  0  0  0  0  0  0
   -1.3000   -0.7500    0.0000 C   0  0  0  0  0  0  0  0  0  0  0  0
    1.3000    0.7500    0.0000 C   0  0  0  0  0  0  0  0  0  0  0  0
    5.1970    1.5006    0.0000 C   0  0  0  0  0  0  0  0  0  0  0  0
   -3.8981   -0.7504    0.0000 O   0  0  0  0  0  0  0  0  0  0  0  0
    3.8981    0.7504    0.0000 O   0  0  0  0  0  0  0  0  0  0  0  0
    2.5989    1.5002    0.0000 Si  0  0  0  0  0  4  0  0  0  0  0  0
  8  6  2  0
  9  7  1  0
 11  6  1  0
 11  7  2  0
 11 10  1  0
 12  8  1  0
 12  9  2  0
 13  1  1  0
 13  2  1  0
 13  3  1  0
 14 10  2  0
 15 13  1  0
 16  4  1  0
 16  5  1  0
 16 12  1  0
 16 15  1  0
M  END
>  <NAME>  (5372) 
PARA-(TERT-BUTOXYDIMETHYLSILYL)BENZALDEHYDE

>  <SYNONYMS>  (5372) 


>  <SPECTRUM TYPE>  (5372) 
MS1

>  <INSTRUMENT TYPE>  (5372) 
EI-B

>  <INSTRUMENT>  (5372) 
JEOL JMS-D-3000

>  <ION MODE>  (5372) 
P

>  <INCHIKEY>  (5372) 
ZEPNRRYDCQESKB-UHFFFAOYSA-N

>  <FORMULA>  (5372) 
C13H20O2Si

>  <EXACT MASS>  (5372) 
236.12325641

>  <MW>  (5372) 
236

>  <ID>  (5372) 
JP001436

>  <CONTRIBUTOR>  (5372) 
University of Tokyo Team, {Faculty of Engineering, University of Tokyo

>  <COMMENT>  (5372) 
SMILES=O=Cc(c1)ccc(c1)[Si](C)(C)OC(C)(C)C
InChI=InChI=1S/C13H20O2Si/c1-13(2,3)15-16(4,5)12-8-6-11(10-14)7-9-12/h6-10H,1-5H3
computed SMILES=O=CC1=CC=C(C=C1)[Si](OC(C)(C)C)(C)C
computed normalized entropy=0.7359326322265597
accession=JP001436
date=2016.01.19 (Created 2008.10.21, modified 2011.05.06)
author=MASS SPECTROSCOPY SOC. OF JAPAN (MSSJ)
license=CC BY-NC-SA
exact mass=236.12326
ionization energy=70 eV
ion type=[M]+*
computed spectral entropy=2.962387665400351
SPLASH=splash10-0300-3930000000-5579976c565e2f28567e
submitter=submitter = University of Tokyo Team (Faculty of Engineering, University of Tokyo)
MoNA Rating=3.75

>  <NUM PEAKS>  (5372) 
56

>  <MASS SPECTRAL PEAKS>  (5372) 
41 9.56
43 4.94
45 6.89
47 1.43
51 2.27
53 1.49
55 1.75
56 3.18
57 1.95
59 1.69
61 2.14
65 1.62
67 1.36
75 9.49
76 1.43
77 5.92
78 2.01
79 1.56
81 7.02
83 1.43
85 1.82
89 1.95
91 6.44
92 1.36
93 2.21
94 1.43
103 1.04
105 3.7
106 1.56
107 2.27
110 11.45
111 2.79
115 1.36
117 1.17
119 5
120 1.56
121 2.53
122 3.96
133 4.42
134 3.57
135 3.18
136 1.82
137 2.14
149 1.3
150 2.01
151 1.62
163 52.63
164 10.54
165 99.99
166 18.34
167 5.59
180 1.17
221 71.37
222 16.52
223 5.13
236 0.84

>  <PREDICTED SPECTRUM>  (5372) 
15 16
26 7
27 50
28 19
29 85
31 3
37 0
38 32
39 115
40 23
41 154
42 35
43 187
44 88
45 128
47 71
50 78
51 109
52 55
53 91
55 61
56 70
57 186
58 59
59 136
60 18
61 43
62 44
63 90
64 54
65 84
66 41
67 38
69 65
70 51
71 95
73 146
74 42
75 277
76 118
77 222
78 108
79 113
80 0
85 94
86 2
88 1
89 99
90 71
91 188
92 68
93 102
95 0
102 31
103 79
104 52
105 126
106 57
107 137
108 14
109 57
117 21
118 26
119 196
120 133
121 181
122 59
123 17
133 159
134 136
135 283
136 141
137 122
147 100
148 12
149 115
150 102
151 25
152 42
159 16
161 65
162 8
163 512
164 320
165 999
166 369
167 155
180 112
193 92
194 7
221 720
222 318
223 143
224 12
236 216
237 102
238 0

$$$$

     RDKit          2D

 15 16  0  0  0  0  0  0  0  0999 V2000
    0.7593   -3.1013    0.0000 C   0  0  0  0  0  0  0  0  0  0  0  0
    2.6506   -4.0620    0.0000 C   0  0  0  0  0  0  0  0  0  0  0  0
    3.6113   -2.1707    0.0000 C   0  0  0  0  0  0  0  0  0  0  0  0
    3.0195    1.9591    0.0000 C   0  0  0  0  0  0  0  0  0  0  0  0
    1.1124    2.5814    0.0000 C   0  0  0  0  0  0  0  0  0  0  0  0
   -2.3100   -0.7500    0.0000 C   0  0  0  0  0  0  0  0  0  0  0  0
   -2.3100    0.7500    0.0000 C   0  0  0  0  0  0  0  0  0  0  0  0
   -1.0100   -1.5000    0.0000 C   0  0  0  0  0  0  0  0  0  0  0  0
   -1.0100    1.5000    0.0000 C   0  0  0  0  0  0  0  0  0  0  0  0
    0.2900   -0.7500    0.0000 C   0  0  0  0  0  0  0  0  0  0  0  0
    0.2900    0.7500    0.0000 C   0  0  0  0  0  0  0  0  0  0  0  0
    1.7200   -1.2100    0.0000 C   0  0  0  0  0  0  0  0  0  0  0  0
    2.6000    0.0000    0.0000 O   0  0  0  0  0  0  0  0  0  0  0  0
    2.1853   -2.6360    0.0000 Si  0  0  0  0  0  4  0  0  0  0  0  0
    1.7200    1.2100    0.0000 Si  0  0  0  0  0  4  0  0  0  0  0  0
  7  6  2  0
  8  6  1  0
  9  7  1  0
 10  8  2  0
 11  9  2  0
 11 10  1  0
 12 10  1  0
 13 12  1  0
 14  1  1  0
 14  2  1  0
 14  3  1  0
 14 12  1  0
 15  4  1  0
 15  5  1  0
 15 11  1  0
 15 13  1  0
M  END
>  <NAME>  (5373) 
2,2-DIMETHYL-5-TRIMETHYLSILYL-3,4-BENZO-1-OXA-2-SILACYCLOPENT-3-ENE

>  <SYNONYMS>  (5373) 


>  <SPECTRUM TYPE>  (5373) 
MS1

>  <INSTRUMENT TYPE>  (5373) 
EI-B

>  <INSTRUMENT>  (5373) 
JEOL JMS-D-3000

>  <ION MODE>  (5373) 
P

>  <INCHIKEY>  (5373) 
XJKCNSJHPQYYEU-UHFFFAOYSA-N

>  <FORMULA>  (5373) 
C12H20OSi2

>  <EXACT MASS>  (5373) 
236.10526832

>  <MW>  (5373) 
236

>  <ID>  (5373) 
JP001435

>  <CONTRIBUTOR>  (5373) 
University of Tokyo Team, {Faculty of Engineering, University of Tokyo

>  <COMMENT>  (5373) 
SMILES=C[Si](C)(C)C(O1)c(c2)c(ccc2)[Si](C)(C)1
InChI=InChI=1S/C12H20OSi2/c1-14(2,3)12-10-8-6-7-9-11(10)15(4,5)13-12/h6-9,12H,1-5H3
computed SMILES=O1C(C=2C=CC=CC2[Si]1(C)C)[Si](C)(C)C
accession=JP001435
date=2016.01.19 (Created 2008.10.21, modified 2011.05.06)
author=MASS SPECTROSCOPY SOC. OF JAPAN (MSSJ)
license=CC BY-NC-SA
exact mass=236.10527
ionization energy=70 eV
ion type=[M]+*
computed spectral entropy=2.3829439888633703
computed normalized entropy=0.7954462452802439
SPLASH=splash10-03k9-4930000000-698922b9d52d46fd91a3
submitter=submitter = University of Tokyo Team (Faculty of Engineering, University of Tokyo)
MoNA Rating=3.75

>  <NUM PEAKS>  (5373) 
20

>  <MASS SPECTRAL PEAKS>  (5373) 
43 5.19
45 7.5
73 72.3
74 6.36
75 3.72
88 3.71
105 4.09
133 5.47
145 5.65
148 24.14
149 3.69
163 99.99
164 15.67
165 5.38
193 32
194 6.44
221 22.87
222 5.12
236 35.36
237 8.75

>  <PREDICTED SPECTRUM>  (5373) 
43 168
44 44
45 266
46 1
58 31
59 84
73 808
74 178
75 196
91 15
93 21
103 29
105 114
119 28
133 93
135 21
145 77
146 36
147 169
148 223
149 122
161 55
162 91
163 999
164 426
165 157
177 58
193 799
194 240
221 484
222 218
223 52
236 551
237 249
238 109

$$$$

     RDKit          2D

 15 15  0  0  0  0  0  0  0  0999 V2000
    4.6479   -2.0496    0.0000 C   0  0  0  0  0  0  0  0  0  0  0  0
    5.1972   -0.0006    0.0000 C   0  0  0  0  0  0  0  0  0  0  0  0
    3.1483    0.5487    0.0000 C   0  0  0  0  0  0  0  0  0  0  0  0
    1.6346   -2.6491    0.0000 C   0  0  0  0  0  0  0  0  0  0  0  0
    3.5629   -2.6494    0.0000 C   0  0  0  0  0  0  0  0  0  0  0  0
   -1.3000    0.7500    0.0000 C   0  0  0  0  0  0  0  0  0  0  0  0
    0.0000    1.5000    0.0000 C   0  0  0  0  0  0  0  0  0  0  0  0
   -1.3000   -0.7500    0.0000 C   0  0  0  0  0  0  0  0  0  0  0  0
    1.3000    0.7500    0.0000 C   0  0  0  0  0  0  0  0  0  0  0  0
   -0.0000   -3.0000    0.0000 C   0  0  0  0  0  0  0  0  0  0  0  0
    0.0000   -1.5000    0.0000 C   0  0  0  0  0  0  0  0  0  0  0  0
    1.3000   -0.7500    0.0000 C   0  0  0  0  0  0  0  0  0  0  0  0
   -1.2990   -3.7500    0.0000 O   0  0  0  0  0  0  0  0  0  0  0  0
    3.8981   -0.7504    0.0000 Si  0  0  0  0  0  4  0  0  0  0  0  0
    2.5989   -1.5002    0.0000 Si  0  0  0  0  0  4  0  0  0  0  0  0
  7  6  2  0
  8  6  1  0
  9  7  1  0
 11  8  2  0
 11 10  1  0
 12  9  2  0
 12 11  1  0
 13 10  2  0
 14  1  1  0
 14  2  1  0
 14  3  1  0
 15  4  1  0
 15  5  1  0
 15 12  1  0
 15 14  1  0
M  END
>  <NAME>  (5374) 
ORTHO-(PENTAMETHYLDISILANYL)BENZALDEHYDE

>  <SYNONYMS>  (5374) 


>  <SPECTRUM TYPE>  (5374) 
MS1

>  <INSTRUMENT TYPE>  (5374) 
EI-B

>  <INSTRUMENT>  (5374) 
JEOL JMS-D-3000

>  <ION MODE>  (5374) 
P

>  <INCHIKEY>  (5374) 
WNESRHPOMYTGRC-UHFFFAOYSA-N

>  <FORMULA>  (5374) 
C12H20OSi2

>  <EXACT MASS>  (5374) 
236.10526832

>  <MW>  (5374) 
236

>  <ID>  (5374) 
JP001434

>  <CONTRIBUTOR>  (5374) 
University of Tokyo Team, {Faculty of Engineering, University of Tokyo

>  <COMMENT>  (5374) 
SMILES=O=Cc(c1)c(ccc1)[Si](C)(C)[Si](C)(C)C
InChI=InChI=1S/C12H20OSi2/c1-14(2,3)15(4,5)12-9-7-6-8-11(12)10-13/h6-10H,1-5H3
computed SMILES=O=CC=1C=CC=CC1[Si](C)(C)[Si](C)(C)C
accession=JP001434
date=2016.01.19 (Created 2008.10.21, modified 2011.05.06)
author=MASS SPECTROSCOPY SOC. OF JAPAN (MSSJ)
license=CC BY-NC-SA
exact mass=236.10527
ionization energy=70 eV
ion type=[M]+*
computed spectral entropy=2.4132232694704485
computed normalized entropy=0.7166650604262893
SPLASH=splash10-03di-2910000000-2268e3f52865fd4cc840
submitter=submitter = University of Tokyo Team (Faculty of Engineering, University of Tokyo)
MoNA Rating=3.75

>  <NUM PEAKS>  (5374) 
29

>  <MASS SPECTRAL PEAKS>  (5374) 
43 2.01
53 2.63
61 1.68
73 34.33
74 4.19
77 1.91
89 3.82
91 2.06
93 1.98
103 2.55
105 2.22
107 3.44
117 2.36
119 4.17
121 2.29
146 1.72
148 8.71
161 1.52
163 99.99
164 20.25
179 3.17
193 27.6
194 8.34
195 3.72
219 1.92
221 20.55
222 4.69
223 1.94
236 2

>  <PREDICTED SPECTRUM>  (5374) 
15 8
43 130
44 81
45 151
46 7
51 20
53 11
57 0
58 70
59 223
60 22
63 8
65 43
66 9
72 7
73 598
74 156
75 144
76 6
77 70
78 25
79 65
81 39
85 6
89 36
91 4
93 13
95 20
102 29
103 65
105 91
106 2
107 38
109 36
115 13
117 114
118 26
119 92
120 43
121 122
123 8
131 93
132 6
133 41
135 51
136 1
137 37
145 40
146 26
147 189
148 162
149 77
161 87
162 50
163 999
164 462
165 191
175 15
177 63
179 99
193 494
194 186
195 38
205 47
207 63
208 91
209 22
219 11
221 400
222 185
223 83
235 7
236 84
237 31

$$$$

     RDKit          2D

 15 15  0  0  0  0  0  0  0  0999 V2000
    3.1483   -0.5487    0.0000 C   0  0  0  0  0  0  0  0  0  0  0  0
    5.1972    0.0006    0.0000 C   0  0  0  0  0  0  0  0  0  0  0  0
    4.6479    2.0496    0.0000 C   0  0  0  0  0  0  0  0  0  0  0  0
    3.5629    2.6494    0.0000 C   0  0  0  0  0  0  0  0  0  0  0  0
    1.6346    2.6491    0.0000 C   0  0  0  0  0  0  0  0  0  0  0  0
   -1.3000    0.7500    0.0000 C   0  0  0  0  0  0  0  0  0  0  0  0
    0.0000   -1.5000    0.0000 C   0  0  0  0  0  0  0  0  0  0  0  0
    0.0000    1.5000    0.0000 C   0  0  0  0  0  0  0  0  0  0  0  0
    1.3000   -0.7500    0.0000 C   0  0  0  0  0  0  0  0  0  0  0  0
   -2.5989   -1.5002    0.0000 C   0  0  0  0  0  0  0  0  0  0  0  0
   -1.3000   -0.7500    0.0000 C   0  0  0  0  0  0  0  0  0  0  0  0
    1.3000    0.7500    0.0000 C   0  0  0  0  0  0  0  0  0  0  0  0
   -3.8981   -0.7504    0.0000 O   0  0  0  0  0  0  0  0  0  0  0  0
    3.8981    0.7504    0.0000 Si  0  0  0  0  0  4  0  0  0  0  0  0
    2.5989    1.5002    0.0000 Si  0  0  0  0  0  4  0  0  0  0  0  0
  8  6  2  0
  9  7  1  0
 11  6  1  0
 11  7  2  0
 11 10  1  0
 12  8  1  0
 12  9  2  0
 13 10  2  0
 14  1  1  0
 14  2  1  0
 14  3  1  0
 15  4  1  0
 15  5  1  0
 15 12  1  0
 15 14  1  0
M  END
>  <NAME>  (5375) 
PARA-(PENTAMETHYLDISILANYL)BENZALDEHYDE

>  <SYNONYMS>  (5375) 


>  <SPECTRUM TYPE>  (5375) 
MS1

>  <INSTRUMENT TYPE>  (5375) 
EI-B

>  <INSTRUMENT>  (5375) 
JEOL JMS-D-3000

>  <ION MODE>  (5375) 
P

>  <INCHIKEY>  (5375) 
NEJCUBIDSVZCHT-UHFFFAOYSA-N

>  <FORMULA>  (5375) 
C12H20OSi2

>  <EXACT MASS>  (5375) 
236.10526832

>  <MW>  (5375) 
236

>  <ID>  (5375) 
JP001433

>  <CONTRIBUTOR>  (5375) 
University of Tokyo Team, {Faculty of Engineering, University of Tokyo

>  <COMMENT>  (5375) 
SMILES=O=Cc(c1)ccc(c1)[Si](C)(C)[Si](C)(C)C
InChI=InChI=1S/C12H20OSi2/c1-14(2,3)15(4,5)12-8-6-11(10-13)7-9-12/h6-10H,1-5H3
computed SMILES=O=CC1=CC=C(C=C1)[Si](C)(C)[Si](C)(C)C
accession=JP001433
date=2016.01.19 (Created 2008.10.21, modified 2011.05.06)
author=MASS SPECTROSCOPY SOC. OF JAPAN (MSSJ)
license=CC BY-NC-SA
exact mass=236.10527
ionization energy=70 eV
ion type=[M]+*
computed spectral entropy=2.4483310018212063
computed normalized entropy=0.7270911513085089
SPLASH=splash10-0229-9830000000-7e2d4566f39f13e1d1e3
submitter=submitter = University of Tokyo Team (Faculty of Engineering, University of Tokyo)
MoNA Rating=3.75

>  <NUM PEAKS>  (5375) 
29

>  <MASS SPECTRAL PEAKS>  (5375) 
43 8.03
44 2.76
45 10.74
53 2.17
59 3.26
73 99.99
74 8.37
75 4.2
91 2.2
105 2.64
107 2.04
117 2.16
119 3.44
131 2.42
133 3.96
134 4.01
135 3.5
147 1.87
148 9.68
149 2.07
163 78.19
164 11.84
165 3.78
193 7.58
221 18.68
222 4.36
236 20.29
237 4.88
238 1.96

>  <PREDICTED SPECTRUM>  (5375) 
15 16
29 28
39 5
41 20
43 177
44 109
45 284
46 47
47 30
57 52
58 103
59 251
60 32
63 37
65 10
73 848
74 220
75 220
76 17
77 53
78 6
79 10
83 1
86 17
89 34
90 10
91 65
105 117
106 10
107 56
116 0
117 177
118 24
119 137
120 1
121 43
131 93
133 171
134 54
135 146
137 48
145 116
146 40
147 236
148 235
149 148
162 49
163 999
164 430
165 224
177 44
193 482
194 164
207 76
221 405
222 206
223 63
235 75
236 403
237 206
238 65
239 3

$$$$

     RDKit          2D

 14 14  0  0  0  0  0  0  0  0999 V2000
   -2.5987   -3.0002    0.0000 C   0  0  0  0  0  0  0  0  0  0  0  0
   -3.8981   -0.7504    0.0000 C   0  0  0  0  0  0  0  0  0  0  0  0
    5.1970    1.5006    0.0000 C   0  0  0  0  0  0  0  0  0  0  0  0
    3.5629    2.6494    0.0000 C   0  0  0  0  0  0  0  0  0  0  0  0
    1.6346    2.6491    0.0000 C   0  0  0  0  0  0  0  0  0  0  0  0
   -1.3000    0.7500    0.0000 C   0  0  0  0  0  0  0  0  0  0  0  0
    0.0000   -1.5000    0.0000 C   0  0  0  0  0  0  0  0  0  0  0  0
    0.0000    1.5000    0.0000 C   0  0  0  0  0  0  0  0  0  0  0  0
    1.3000   -0.7500    0.0000 C   0  0  0  0  0  0  0  0  0  0  0  0
   -2.5989   -1.5002    0.0000 C   0  0  0  0  0  0  0  0  0  0  0  0
   -1.3000   -0.7500    0.0000 C   0  0  0  0  0  0  0  0  0  0  0  0
    1.3000    0.7500    0.0000 C   0  0  0  0  0  0  0  0  0  0  0  0
    3.8981    0.7504    0.0000 O   0  0  0  0  0  0  0  0  0  0  0  0
    2.5989    1.5002    0.0000 Si  0  0  0  0  0  4  0  0  0  0  0  0
  8  6  2  0
  9  7  1  0
 10  1  2  0
 10  2  1  0
 11  6  1  0
 11  7  2  0
 11 10  1  0
 12  8  1  0
 12  9  2  0
 13  3  1  0
 14  4  1  0
 14  5  1  0
 14 12  1  0
 14 13  1  0
M  END
>  <NAME>  (5376) 
PARA-ISOPROPENYLPHENYLDIMETHYLMETHOXYSILANE

>  <SYNONYMS>  (5376) 


>  <SPECTRUM TYPE>  (5376) 
MS1

>  <INSTRUMENT TYPE>  (5376) 
EI-B

>  <INSTRUMENT>  (5376) 
JEOL JMS-D-3000

>  <ION MODE>  (5376) 
P

>  <INCHIKEY>  (5376) 
IPKWQMUUORAUAI-UHFFFAOYSA-N

>  <FORMULA>  (5376) 
C12H18OSi

>  <EXACT MASS>  (5376) 
206.11269172599998

>  <MW>  (5376) 
206

>  <ID>  (5376) 
JP001432

>  <CONTRIBUTOR>  (5376) 
University of Tokyo Team, {Faculty of Engineering, University of Tokyo

>  <COMMENT>  (5376) 
SMILES=CC(=C)c(c1)ccc(c1)[Si](C)(C)OC
InChI=InChI=1S/C12H18OSi/c1-10(2)11-6-8-12(9-7-11)14(4,5)13-3/h6-9H,1H2,2-5H3
computed SMILES=O(C)[Si](C1=CC=C(C=C1)C(=C)C)(C)C
accession=JP001432
date=2016.01.19 (Created 2008.10.21, modified 2011.05.06)
author=MASS SPECTROSCOPY SOC. OF JAPAN (MSSJ)
license=CC BY-NC-SA
exact mass=206.11269
ionization energy=70 eV
ion type=[M]+*
computed spectral entropy=2.33139204598923
computed normalized entropy=0.7073748309683989
SPLASH=splash10-052f-2910000000-6f60a57cf0854b0f67db
submitter=submitter = University of Tokyo Team (Faculty of Engineering, University of Tokyo)
MoNA Rating=3.75

>  <NUM PEAKS>  (5376) 
27

>  <MASS SPECTRAL PEAKS>  (5376) 
43 6.07
45 3.64
53 1.75
58 1.51
59 17.58
60 1.41
67 1.42
89 4.16
91 2.79
96 2.04
105 2.49
115 3.39
117 1.7
119 2.2
121 1.78
131 7.39
145 4.17
154 1.75
155 26.59
175 2.16
177 4.05
191 99.99
192 18.75
193 5.19
206 23.03
207 4.34
208 1.15

>  <PREDICTED SPECTRUM>  (5376) 
15 16
27 57
28 17
29 37
31 51
38 26
39 82
40 24
41 52
42 16
43 206
44 41
45 133
46 4
47 0
50 41
51 80
52 21
53 91
55 69
57 10
58 43
59 187
60 45
61 17
62 25
63 80
64 43
65 69
66 21
67 96
68 0
69 25
71 1
72 20
73 186
74 59
75 138
76 41
77 163
78 76
79 107
80 13
81 5
82 2
83 52
85 43
89 100
90 42
91 194
92 35
93 78
95 56
102 40
103 65
104 37
105 150
106 33
107 91
109 9
113 8
115 127
116 75
117 150
118 34
119 80
120 4
121 74
122 23
123 37
128 30
129 11
130 23
131 132
132 79
133 136
134 53
135 205
136 65
137 51
143 14
144 19
145 130
146 65
147 99
148 92
149 157
150 83
151 100
152 37
158 8
159 85
160 60
161 258
162 81
163 102
164 64
165 100
166 61
171 34
172 11
173 6
175 282
176 154
177 70
179 8
189 148
190 73
191 999
192 408
193 186
194 43
203 4
205 80
206 464
207 182
208 56

$$$$

     RDKit          2D

 13 13  0  0  0  0  0  0  0  0999 V2000
   -2.5987   -3.0002    0.0000 C   0  0  0  0  0  0  0  0  0  0  0  0
   -3.8981   -0.7504    0.0000 C   0  0  0  0  0  0  0  0  0  0  0  0
    3.3491    0.2013    0.0000 C   0  0  0  0  0  0  0  0  0  0  0  0
    3.8978    2.2504    0.0000 C   0  0  0  0  0  0  0  0  0  0  0  0
    1.8487    2.7991    0.0000 C   0  0  0  0  0  0  0  0  0  0  0  0
   -1.3000    0.7500    0.0000 C   0  0  0  0  0  0  0  0  0  0  0  0
   -0.0000   -1.5000    0.0000 C   0  0  0  0  0  0  0  0  0  0  0  0
    0.0000    1.5000    0.0000 C   0  0  0  0  0  0  0  0  0  0  0  0
    1.3000   -0.7500    0.0000 C   0  0  0  0  0  0  0  0  0  0  0  0
   -2.5989   -1.5002    0.0000 C   0  0  0  0  0  0  0  0  0  0  0  0
   -1.3000   -0.7500    0.0000 C   0  0  0  0  0  0  0  0  0  0  0  0
    1.3000    0.7500    0.0000 C   0  0  0  0  0  0  0  0  0  0  0  0
    2.5989    1.5002    0.0000 Si  0  0  0  0  0  4  0  0  0  0  0  0
  8  6  2  0
  9  7  1  0
 10  1  2  0
 10  2  1  0
 11  6  1  0
 11  7  2  0
 11 10  1  0
 12  8  1  0
 12  9  2  0
 13  3  1  0
 13  4  1  0
 13  5  1  0
 13 12  1  0
M  END
>  <NAME>  (5377) 
PARA-ISOPROPENYLPHENYLTRIMETHYLSILANE

>  <SYNONYMS>  (5377) 


>  <SPECTRUM TYPE>  (5377) 
MS1

>  <INSTRUMENT TYPE>  (5377) 
EI-B

>  <INSTRUMENT>  (5377) 
JEOL JMS-D-3000

>  <ION MODE>  (5377) 
P

>  <INCHIKEY>  (5377) 
IFMXBBNZFOAHBB-UHFFFAOYSA-N

>  <FORMULA>  (5377) 
C12H18Si

>  <EXACT MASS>  (5377) 
190.117777106

>  <MW>  (5377) 
190

>  <ID>  (5377) 
JP001431

>  <CONTRIBUTOR>  (5377) 
University of Tokyo Team, {Faculty of Engineering, University of Tokyo

>  <COMMENT>  (5377) 
SMILES=CC(=C)c(c1)ccc(c1)[Si](C)(C)C
InChI=InChI=1S/C12H18Si/c1-10(2)11-6-8-12(9-7-11)13(3,4)5/h6-9H,1H2,2-5H3
computed SMILES=C=C(C1=CC=C(C=C1)[Si](C)(C)C)C
accession=JP001431
date=2016.01.19 (Created 2008.10.21, modified 2011.05.06)
author=MASS SPECTROSCOPY SOC. OF JAPAN (MSSJ)
license=CC BY-NC-SA
exact mass=190.11778
ionization energy=70 eV
ion type=[M]+*
computed spectral entropy=2.4479987630729396
computed normalized entropy=0.7197461624166632
SPLASH=splash10-004i-1900000000-685c433c0cc2b9392afa
submitter=submitter = University of Tokyo Team (Faculty of Engineering, University of Tokyo)
MoNA Rating=3.75

>  <NUM PEAKS>  (5377) 
30

>  <MASS SPECTRAL PEAKS>  (5377) 
41 2.18
43 12.07
45 3.94
53 3.39
58 3.62
59 7.4
73 4.06
88 1.53
91 2.64
93 2.06
105 3.87
107 1.55
115 3.34
117 1.95
119 3.55
121 2.41
129 1.53
131 3.87
133 1.95
135 2.39
143 1.92
145 5.06
159 3.8
161 11.37
162 1.57
175 99.99
176 19.78
177 5.66
190 16.14
191 3.29

>  <PREDICTED SPECTRUM>  (5377) 
15 33
26 7
27 66
28 32
29 82
31 71
38 9
39 86
40 0
41 89
42 40
43 304
44 117
45 236
46 53
47 43
50 61
51 111
52 24
53 114
54 0
55 146
56 15
57 98
58 103
59 262
60 67
61 48
62 23
63 78
64 40
65 71
66 44
67 124
69 89
70 30
71 59
72 41
73 463
74 127
75 147
76 52
77 152
78 102
79 110
80 1
81 48
82 30
83 103
84 55
85 100
86 27
87 18
88 10
89 78
90 31
91 230
92 49
93 101
95 53
97 116
99 55
101 34
102 51
103 76
104 22
105 134
106 61
107 116
109 40
115 144
116 180
117 123
118 67
119 190
120 56
121 115
127 32
128 55
129 71
130 33
131 142
132 61
133 132
134 56
135 314
136 54
137 0
142 30
143 45
144 9
145 214
146 76
147 149
148 70
149 102
150 41
151 12
157 12
159 230
160 55
161 54
163 17
173 124
174 36
175 999
176 409
177 199
178 41
186 1
187 17
190 383
191 163
192 56

$$$$

     RDKit          2D

 12 12  0  0  0  0  0  0  0  0999 V2000
   -2.5987   -3.0002    0.0000 C   0  0  0  0  0  0  0  0  0  0  0  0
   -3.8981   -0.7504    0.0000 C   0  0  0  0  0  0  0  0  0  0  0  0
    3.8981    0.7504    0.0000 C   0  0  0  0  0  0  0  0  0  0  0  0
    2.5987    3.0002    0.0000 C   0  0  0  0  0  0  0  0  0  0  0  0
   -1.3000    0.7500    0.0000 C   0  0  0  0  0  0  0  0  0  0  0  0
    0.0000   -1.5000    0.0000 C   0  0  0  0  0  0  0  0  0  0  0  0
    0.0000    1.5000    0.0000 C   0  0  0  0  0  0  0  0  0  0  0  0
    1.3000   -0.7500    0.0000 C   0  0  0  0  0  0  0  0  0  0  0  0
   -2.5989   -1.5002    0.0000 C   0  0  0  0  0  0  0  0  0  0  0  0
   -1.3000   -0.7500    0.0000 C   0  0  0  0  0  0  0  0  0  0  0  0
    1.3000    0.7500    0.0000 C   0  0  0  0  0  0  0  0  0  0  0  0
    2.5989    1.5002    0.0000 Si  0  0  0  0  0  4  0  0  0  0  0  0
  7  5  2  0
  8  6  1  0
  9  1  2  0
  9  2  1  0
 10  5  1  0
 10  6  2  0
 10  9  1  0
 11  7  1  0
 11  8  2  0
 12  3  1  0
 12  4  1  0
 12 11  1  0
M  END
>  <NAME>  (5378) 
PARA-ISOPROPENYLPHENYLDIMETHYLSILANE

>  <SYNONYMS>  (5378) 


>  <SPECTRUM TYPE>  (5378) 
MS1

>  <INSTRUMENT TYPE>  (5378) 
EI-B

>  <INSTRUMENT>  (5378) 
JEOL JMS-D-3000

>  <ION MODE>  (5378) 
P

>  <INCHIKEY>  (5378) 
PBKACEYOTGHHBZ-UHFFFAOYSA-N

>  <FORMULA>  (5378) 
C11H16Si

>  <EXACT MASS>  (5378) 
176.102127042

>  <MW>  (5378) 
176

>  <ID>  (5378) 
JP001430

>  <CONTRIBUTOR>  (5378) 
University of Tokyo Team, {Faculty of Engineering, University of Tokyo

>  <COMMENT>  (5378) 
SMILES=CC(=C)c(c1)ccc(c1)[SiH](C)C
InChI=InChI=1S/C11H16Si/c1-9(2)10-5-7-11(8-6-10)12(3)4/h5-8,12H,1H2,2-4H3
computed SMILES=C=C(C1=CC=C(C=C1)[SiH](C)C)C
accession=JP001430
date=2016.01.19 (Created 2008.10.21, modified 2011.05.06)
author=MASS SPECTROSCOPY SOC. OF JAPAN (MSSJ)
license=CC BY-NC-SA
exact mass=176.10213
ionization energy=70 eV
ion type=[M]+*
computed spectral entropy=2.3437879143218168
computed normalized entropy=0.7698376222427881
SPLASH=splash10-03di-1900000000-268555273aac3946b100
submitter=submitter = University of Tokyo Team (Faculty of Engineering, University of Tokyo)
MoNA Rating=3.75

>  <NUM PEAKS>  (5378) 
21

>  <MASS SPECTRAL PEAKS>  (5378) 
43 17.09
53 4.13
58 9.15
98 3.05
108 5.11
115 3.71
119 4.41
121 6.38
131 3.85
133 3.38
135 7.42
145 8.78
159 8.97
160 3.52
161 99.99
162 16.25
163 5.11
175 11.97
176 25.55
177 4.74
178 1.55

>  <PREDICTED SPECTRUM>  (5378) 
14 16
15 70
16 4
17 7
18 17
26 51
27 194
28 95
29 108
31 44
32 4
33 0
34 6
36 4
37 23
38 58
39 262
40 80
41 186
42 52
43 189
44 68
45 126
46 40
50 144
51 226
52 101
53 215
54 63
55 189
56 79
57 90
58 95
59 210
60 71
61 55
62 80
63 158
64 95
65 204
66 55
67 130
68 45
69 81
70 57
71 74
72 70
73 147
74 135
75 145
76 90
77 278
78 149
79 170
80 75
81 140
82 90
83 166
84 70
85 84
86 68
87 66
88 19
89 171
90 91
91 370
92 147
93 141
94 49
95 73
96 2
97 51
98 183
99 87
100 30
101 53
102 112
103 177
104 90
105 248
106 94
107 168
108 49
109 13
113 60
114 12
115 260
116 183
117 306
118 162
119 206
120 83
121 117
122 57
127 68
128 121
129 176
130 118
131 286
132 147
133 200
134 127
135 227
136 146
137 84
141 28
142 61
143 88
144 129
145 299
146 239
147 167
149 33
157 107
159 252
160 201
161 999
162 350
163 172
164 20
173 40
174 73
175 290
176 600
177 179
178 30

$$$$

     RDKit          2D

 13 13  0  0  0  0  0  0  0  0999 V2000
   -3.8981   -0.7504    0.0000 C   0  0  0  0  0  0  0  0  0  0  0  0
    5.1970    1.5006    0.0000 C   0  0  0  0  0  0  0  0  0  0  0  0
    3.5629    2.6494    0.0000 C   0  0  0  0  0  0  0  0  0  0  0  0
    1.6346    2.6491    0.0000 C   0  0  0  0  0  0  0  0  0  0  0  0
   -1.3000    0.7500    0.0000 C   0  0  0  0  0  0  0  0  0  0  0  0
    0.0000   -1.5000    0.0000 C   0  0  0  0  0  0  0  0  0  0  0  0
    0.0000    1.5000    0.0000 C   0  0  0  0  0  0  0  0  0  0  0  0
    1.3000   -0.7500    0.0000 C   0  0  0  0  0  0  0  0  0  0  0  0
   -1.3000   -0.7500    0.0000 C   0  0  0  0  0  0  0  0  0  0  0  0
    1.3000    0.7500    0.0000 C   0  0  0  0  0  0  0  0  0  0  0  0
   -2.5989   -1.5002    0.0000 O   0  0  0  0  0  0  0  0  0  0  0  0
    3.8981    0.7504    0.0000 O   0  0  0  0  0  0  0  0  0  0  0  0
    2.5989    1.5002    0.0000 Si  0  0  0  0  0  4  0  0  0  0  0  0
  7  5  2  0
  8  6  1  0
  9  5  1  0
  9  6  2  0
 10  7  1  0
 10  8  2  0
 11  1  1  0
 11  9  1  0
 12  2  1  0
 13  3  1  0
 13  4  1  0
 13 10  1  0
 13 12  1  0
M  END
>  <NAME>  (5379) 
PARA-METHOXYPHENYLDIMETHYLMETHOXYSILANE

>  <SYNONYMS>  (5379) 


>  <SPECTRUM TYPE>  (5379) 
MS1

>  <INSTRUMENT TYPE>  (5379) 
EI-B

>  <INSTRUMENT>  (5379) 
JEOL JMS-D-3000

>  <ION MODE>  (5379) 
P

>  <INCHIKEY>  (5379) 
NYZIQYZVZFTFBF-UHFFFAOYSA-N

>  <FORMULA>  (5379) 
C10H16O2Si

>  <EXACT MASS>  (5379) 
196.091956282

>  <MW>  (5379) 
196

>  <ID>  (5379) 
JP001429

>  <CONTRIBUTOR>  (5379) 
University of Tokyo Team, {Faculty of Engineering, University of Tokyo

>  <COMMENT>  (5379) 
SMILES=COc(c1)ccc(c1)[Si](C)(C)OC
InChI=InChI=1S/C10H16O2Si/c1-11-9-5-7-10(8-6-9)13(3,4)12-2/h5-8H,1-4H3
computed SMILES=O(C1=CC=C(C=C1)[Si](OC)(C)C)C
accession=JP001429
date=2016.01.19 (Created 2008.10.21, modified 2011.05.06)
author=MASS SPECTROSCOPY SOC. OF JAPAN (MSSJ)
license=CC BY-NC-SA
exact mass=196.09196
ionization energy=70 eV
ion type=[M]+*
computed spectral entropy=2.19549436408704
computed normalized entropy=0.6908298226800862
SPLASH=splash10-001i-1900000000-7953d623468f73ff7e17
submitter=submitter = University of Tokyo Team (Faculty of Engineering, University of Tokyo)
MoNA Rating=3.75

>  <NUM PEAKS>  (5379) 
24

>  <MASS SPECTRAL PEAKS>  (5379) 
43 3.65
45 1.69
59 13.18
75 2.08
76 1.82
77 1.8
89 3.82
90 1.43
91 4.43
93 2.17
105 1.47
108 1.6
121 8.07
122 1.38
135 3.22
151 34.95
152 5.21
153 1.69
165 3.01
181 99.99
182 15.69
183 5.15
196 20.89
197 3.5

>  <PREDICTED SPECTRUM>  (5379) 
15 38
27 41
29 94
31 19
38 26
39 75
40 11
41 47
42 5
43 199
45 173
47 77
50 38
51 96
52 50
53 78
55 35
57 41
58 81
59 163
60 15
61 20
62 20
63 107
64 35
65 78
66 4
67 32
69 60
70 5
73 82
74 32
75 138
76 20
77 209
78 128
79 87
81 16
82 21
83 67
89 51
91 119
92 34
93 31
95 62
105 78
106 27
107 137
108 73
109 123
111 21
121 459
122 222
123 185
124 10
135 43
136 6
137 91
138 148
139 101
151 372
152 108
153 90
154 58
163 27
165 102
166 257
167 83
179 81
181 999
182 343
183 169
195 20
196 532
197 179
198 67

$$$$

     RDKit          2D

 12 12  0  0  0  0  0  0  0  0999 V2000
   -3.8981   -0.7504    0.0000 C   0  0  0  0  0  0  0  0  0  0  0  0
    3.3491    0.2013    0.0000 C   0  0  0  0  0  0  0  0  0  0  0  0
    3.8978    2.2504    0.0000 C   0  0  0  0  0  0  0  0  0  0  0  0
    1.8487    2.7991    0.0000 C   0  0  0  0  0  0  0  0  0  0  0  0
   -1.3000    0.7500    0.0000 C   0  0  0  0  0  0  0  0  0  0  0  0
   -0.0000   -1.5000    0.0000 C   0  0  0  0  0  0  0  0  0  0  0  0
    0.0000    1.5000    0.0000 C   0  0  0  0  0  0  0  0  0  0  0  0
    1.3000   -0.7500    0.0000 C   0  0  0  0  0  0  0  0  0  0  0  0
   -1.3000   -0.7500    0.0000 C   0  0  0  0  0  0  0  0  0  0  0  0
    1.3000    0.7500    0.0000 C   0  0  0  0  0  0  0  0  0  0  0  0
   -2.5989   -1.5002    0.0000 O   0  0  0  0  0  0  0  0  0  0  0  0
    2.5989    1.5002    0.0000 Si  0  0  0  0  0  4  0  0  0  0  0  0
  7  5  2  0
  8  6  1  0
  9  5  1  0
  9  6  2  0
 10  7  1  0
 10  8  2  0
 11  1  1  0
 11  9  1  0
 12  2  1  0
 12  3  1  0
 12  4  1  0
 12 10  1  0
M  END
>  <NAME>  (5380) 
PARA-METHOXYPHENYLTRIMETHYLSILANE

>  <SYNONYMS>  (5380) 


>  <SPECTRUM TYPE>  (5380) 
MS1

>  <INSTRUMENT TYPE>  (5380) 
EI-B

>  <INSTRUMENT>  (5380) 
JEOL JMS-D-3000

>  <ION MODE>  (5380) 
P

>  <INCHIKEY>  (5380) 
XYZOPPYWEMJIAD-UHFFFAOYSA-N

>  <FORMULA>  (5380) 
C10H16OSi

>  <EXACT MASS>  (5380) 
180.097041662

>  <MW>  (5380) 
180

>  <ID>  (5380) 
JP001428

>  <CONTRIBUTOR>  (5380) 
University of Tokyo Team, {Faculty of Engineering, University of Tokyo

>  <COMMENT>  (5380) 
SMILES=COc(c1)ccc(c1)[Si](C)(C)C
InChI=InChI=1S/C10H16OSi/c1-11-9-5-7-10(8-6-9)12(2,3)4/h5-8H,1-4H3
computed SMILES=O(C1=CC=C(C=C1)[Si](C)(C)C)C
accession=JP001428
date=2016.01.19 (Created 2008.10.21, modified 2011.05.06)
author=MASS SPECTROSCOPY SOC. OF JAPAN (MSSJ)
license=CC BY-NC-SA
exact mass=180.09704
ionization energy=70 eV
ion type=[M]+*
computed spectral entropy=1.794526568141866
computed normalized entropy=0.5805570758797479
SPLASH=splash10-014i-1900000000-e113f0c131dc7519e86c
submitter=submitter = University of Tokyo Team (Faculty of Engineering, University of Tokyo)
MoNA Rating=3.75

>  <NUM PEAKS>  (5380) 
22

>  <MASS SPECTRAL PEAKS>  (5380) 
43 4.03
45 1.68
53 1.46
58 3.03
74 1.74
79 1.11
86 2.49
87 1.08
98 1.99
108 1.29
109 1.7
119 1.24
121 2.07
122 2.54
135 4.39
149 1.06
150 2.01
165 99.99
166 15.66
167 4.73
180 17.41
181 2.83

>  <PREDICTED SPECTRUM>  (5380) 
15 45
27 1
29 31
31 21
33 4
38 21
39 64
40 17
41 64
42 24
43 234
44 32
45 215
46 22
47 87
50 42
51 90
52 64
53 113
54 24
55 43
56 3
57 88
58 87
59 155
60 33
61 33
62 21
63 91
64 43
65 78
66 37
67 101
68 53
69 62
70 22
71 10
72 35
73 301
74 89
75 136
76 25
77 146
78 87
79 81
80 12
81 33
82 24
83 66
84 21
88 5
89 84
90 32
91 140
92 47
93 88
94 20
95 71
96 20
97 37
103 43
104 10
105 172
106 76
107 177
108 41
109 97
110 27
111 0
117 14
119 60
120 21
121 167
122 148
123 65
124 3
133 59
134 13
135 264
136 54
137 156
138 75
139 2
147 60
148 10
149 161
150 126
151 51
163 51
165 999
166 382
167 198
168 42
180 474
181 176
182 65

$$$$

     RDKit          2D

 11 11  0  0  0  0  0  0  0  0999 V2000
   -3.8981   -0.7504    0.0000 C   0  0  0  0  0  0  0  0  0  0  0  0
    3.8981    0.7504    0.0000 C   0  0  0  0  0  0  0  0  0  0  0  0
    2.5987    3.0002    0.0000 C   0  0  0  0  0  0  0  0  0  0  0  0
   -1.3000    0.7500    0.0000 C   0  0  0  0  0  0  0  0  0  0  0  0
   -0.0000   -1.5000    0.0000 C   0  0  0  0  0  0  0  0  0  0  0  0
    0.0000    1.5000    0.0000 C   0  0  0  0  0  0  0  0  0  0  0  0
    1.3000   -0.7500    0.0000 C   0  0  0  0  0  0  0  0  0  0  0  0
   -1.3000   -0.7500    0.0000 C   0  0  0  0  0  0  0  0  0  0  0  0
    1.3000    0.7500    0.0000 C   0  0  0  0  0  0  0  0  0  0  0  0
   -2.5989   -1.5002    0.0000 O   0  0  0  0  0  0  0  0  0  0  0  0
    2.5989    1.5002    0.0000 Si  0  0  0  0  0  4  0  0  0  0  0  0
  6  4  2  0
  7  5  1  0
  8  4  1  0
  8  5  2  0
  9  6  1  0
  9  7  2  0
 10  1  1  0
 10  8  1  0
 11  2  1  0
 11  3  1  0
 11  9  1  0
M  END
>  <NAME>  (5381) 
PARA-METHOXYPHENYLDIMETHYLSILANE

>  <SYNONYMS>  (5381) 


>  <SPECTRUM TYPE>  (5381) 
MS1

>  <INSTRUMENT TYPE>  (5381) 
EI-B

>  <INSTRUMENT>  (5381) 
JEOL JMS-D-3000

>  <ION MODE>  (5381) 
P

>  <INCHIKEY>  (5381) 
SMCZAFXJZGCLQH-UHFFFAOYSA-N

>  <FORMULA>  (5381) 
C9H14OSi

>  <EXACT MASS>  (5381) 
166.081391598

>  <MW>  (5381) 
166

>  <ID>  (5381) 
JP001427

>  <CONTRIBUTOR>  (5381) 
University of Tokyo Team, {Faculty of Engineering, University of Tokyo

>  <COMMENT>  (5381) 
SMILES=COc(c1)ccc(c1)[SiH](C)C
InChI=InChI=1S/C9H14OSi/c1-10-8-4-6-9(7-5-8)11(2)3/h4-7,11H,1-3H3
computed SMILES=O(C1=CC=C(C=C1)[SiH](C)C)C
accession=JP001427
date=2016.01.19 (Created 2008.10.21, modified 2011.05.06)
author=MASS SPECTROSCOPY SOC. OF JAPAN (MSSJ)
license=CC BY-NC-SA
exact mass=166.08139
ionization energy=70 eV
ion type=[M]+*
computed spectral entropy=2.50003095348797
computed normalized entropy=0.7585420805486816
SPLASH=splash10-0udi-3900000000-fed8b8b93eeb59bf4f72
submitter=submitter = University of Tokyo Team (Faculty of Engineering, University of Tokyo)
MoNA Rating=3.75

>  <NUM PEAKS>  (5381) 
27

>  <MASS SPECTRAL PEAKS>  (5381) 
43 10.83
45 2.11
53 3.97
58 4.09
59 13.42
65 1.92
66 1.89
67 2.12
75 2.82
77 3.94
89 18
90 2.05
91 6.26
93 2.99
105 2.63
108 1.95
121 15.47
122 3
135 6.84
136 2.08
150 2.19
151 99.99
152 14.19
153 4.6
165 16.25
166 23
167 4.51

>  <PREDICTED SPECTRUM>  (5381) 
15 50
27 44
28 8
29 109
31 50
38 26
39 142
40 20
41 70
42 25
43 187
44 74
45 169
46 33
47 43
50 93
51 154
52 95
53 140
54 27
55 43
57 28
58 80
59 123
60 9
62 26
63 86
64 61
65 138
66 72
67 79
68 22
72 1
73 139
74 65
75 118
76 51
77 251
78 169
79 128
80 42
81 77
82 12
83 3
84 16
86 38
88 17
89 112
90 78
91 232
92 131
93 140
94 60
95 77
104 1
105 120
106 69
107 202
108 189
109 128
110 47
119 109
120 42
121 454
122 136
123 46
134 19
135 210
136 167
137 77
149 82
150 28
151 999
152 355
153 155
154 30
165 250
166 500
167 164
168 19

$$$$

     RDKit          2D

 11 11  0  0  0  0  0  0  0  0999 V2000
   -1.3000    0.3512    0.0000 C   0  0  0  0  0  0  0  0  0  0  0  0
    2.2624    1.4997    0.0000 C   0  0  0  0  0  0  0  0  0  0  0  0
    0.3341    1.5000    0.0000 C   0  0  0  0  0  0  0  0  0  0  0  0
    5.1970   -1.8994    0.0000 C   0  0  0  0  0  0  0  0  0  0  0  0
    3.8970   -2.6494    0.0000 C   0  0  0  0  0  0  0  0  0  0  0  0
    5.1970   -0.3994    0.0000 C   0  0  0  0  0  0  0  0  0  0  0  0
    2.5970   -1.8994    0.0000 C   0  0  0  0  0  0  0  0  0  0  0  0
    3.8970    0.3506    0.0000 C   0  0  0  0  0  0  0  0  0  0  0  0
    2.5970   -0.3994    0.0000 C   0  0  0  0  0  0  0  0  0  0  0  0
   -0.0011   -0.3990    0.0000 O   0  0  0  0  0  0  0  0  0  0  0  0
    1.2981    0.3508    0.0000 Si  0  0  0  0  0  4  0  0  0  0  0  0
  5  4  2  0
  6  4  1  0
  7  5  1  0
  8  6  2  0
  9  7  2  0
  9  8  1  0
 10  1  1  0
 11  2  1  0
 11  3  1  0
 11  9  1  0
 11 10  1  0
M  END
>  <NAME>  (5382) 
PHENYLDIMETHYLMETHOXYSILANE

>  <SYNONYMS>  (5382) 


>  <SPECTRUM TYPE>  (5382) 
MS1

>  <INSTRUMENT TYPE>  (5382) 
EI-B

>  <INSTRUMENT>  (5382) 
JEOL JMS-D-3000

>  <ION MODE>  (5382) 
P

>  <INCHIKEY>  (5382) 
REQXNMOSXYEQLM-UHFFFAOYSA-N

>  <FORMULA>  (5382) 
C9H14OSi

>  <EXACT MASS>  (5382) 
166.081391598

>  <MW>  (5382) 
166

>  <ID>  (5382) 
JP001426

>  <CONTRIBUTOR>  (5382) 
University of Tokyo Team, {Faculty of Engineering, University of Tokyo

>  <COMMENT>  (5382) 
SMILES=CO[Si](C)(C)c(c1)cccc1
InChI=InChI=1S/C9H14OSi/c1-10-11(2,3)9-7-5-4-6-8-9/h4-8H,1-3H3
computed SMILES=O(C)[Si](C=1C=CC=CC1)(C)C
accession=JP001426
date=2016.01.19 (Created 2008.10.21, modified 2011.05.06)
author=MASS SPECTROSCOPY SOC. OF JAPAN (MSSJ)
license=CC BY-NC-SA
exact mass=166.08139
ionization energy=70 eV
ion type=[M]+*
computed spectral entropy=2.2500095484052847
computed normalized entropy=0.6990047677584497
SPLASH=splash10-0udi-2900000000-6b8e829bcd2b3b9aeb7c
submitter=submitter = University of Tokyo Team (Faculty of Engineering, University of Tokyo)
MoNA Rating=3.75

>  <NUM PEAKS>  (5382) 
25

>  <MASS SPECTRAL PEAKS>  (5382) 
42 1.54
43 23.52
45 2.57
51 1.79
53 2.64
58 12.79
66 1.56
77 2.26
79 1.63
95 2.73
98 9.53
100 1.46
101 1.55
108 5.35
109 1.77
119 1.9
121 37.66
122 4.94
123 1.68
135 3.26
151 99.99
152 14.18
153 4.64
166 12.46
167 1.94

>  <PREDICTED SPECTRUM>  (5382) 
27 26
29 68
31 33
38 11
39 89
40 24
41 87
42 28
43 235
44 35
45 125
47 53
50 49
51 124
52 53
53 113
54 27
55 33
57 22
58 15
59 133
61 37
63 31
65 52
66 34
67 82
73 159
74 28
75 120
76 37
77 187
78 88
79 75
83 6
88 2
89 61
90 13
91 204
92 41
93 56
105 151
107 91
108 71
109 69
121 393
122 91
123 74
135 185
136 64
149 78
150 5
151 999
152 358
153 170
165 20
166 353
167 124
168 23

$$$$

     RDKit          2D

 12 12  0  0  0  0  0  0  0  0999 V2000
   -3.8981   -0.7504    0.0000 C   0  0  0  0  0  0  0  0  0  0  0  0
    3.3491    0.2013    0.0000 C   0  0  0  0  0  0  0  0  0  0  0  0
    3.8978    2.2504    0.0000 C   0  0  0  0  0  0  0  0  0  0  0  0
   -1.3000    0.7500    0.0000 C   0  0  0  0  0  0  0  0  0  0  0  0
   -0.0000   -1.5000    0.0000 C   0  0  0  0  0  0  0  0  0  0  0  0
    0.0000    1.5000    0.0000 C   0  0  0  0  0  0  0  0  0  0  0  0
    1.3000   -0.7500    0.0000 C   0  0  0  0  0  0  0  0  0  0  0  0
   -1.3000   -0.7500    0.0000 C   0  0  0  0  0  0  0  0  0  0  0  0
    1.3000    0.7500    0.0000 C   0  0  0  0  0  0  0  0  0  0  0  0
    1.8487    2.7991    0.0000 Cl  0  0  0  0  0  0  0  0  0  0  0  0
   -2.5989   -1.5002    0.0000 O   0  0  0  0  0  0  0  0  0  0  0  0
    2.5989    1.5002    0.0000 Si  0  0  0  0  0  4  0  0  0  0  0  0
  6  4  2  0
  7  5  1  0
  8  4  1  0
  8  5  2  0
  9  6  1  0
  9  7  2  0
 11  1  1  0
 11  8  1  0
 12  2  1  0
 12  3  1  0
 12  9  1  0
 12 10  1  0
M  END
>  <NAME>  (5383) 
PARA-METHOXYPHENYLDIMETHYLCHLOROSILANE

>  <SYNONYMS>  (5383) 


>  <SPECTRUM TYPE>  (5383) 
MS1

>  <INSTRUMENT TYPE>  (5383) 
EI-B

>  <INSTRUMENT>  (5383) 
JEOL JMS-D-3000

>  <ION MODE>  (5383) 
P

>  <INCHIKEY>  (5383) 
RTYNSTRFACIKRL-UHFFFAOYSA-N

>  <FORMULA>  (5383) 
C9H13ClOSi

>  <EXACT MASS>  (5383) 
200.042419246

>  <MW>  (5383) 
200

>  <ID>  (5383) 
JP001425

>  <CONTRIBUTOR>  (5383) 
University of Tokyo Team, {Faculty of Engineering, University of Tokyo

>  <COMMENT>  (5383) 
SMILES=COc(c1)ccc(c1)[Si](C)(C)Cl
InChI=InChI=1S/C9H13ClOSi/c1-11-8-4-6-9(7-5-8)12(2,3)10/h4-7H,1-3H3
computed SMILES=Cl[Si](C1=CC=C(OC)C=C1)(C)C
accession=JP001425
date=2016.01.19 (Created 2008.10.21, modified 2011.05.06)
author=MASS SPECTROSCOPY SOC. OF JAPAN (MSSJ)
license=CC BY-NC-SA
exact mass=200.04242
ionization energy=70 eV
ion type=[M]+*
computed spectral entropy=2.2044176093382624
computed normalized entropy=0.7358526757543152
SPLASH=splash10-000i-1920000000-810040d76962c1b6971e
submitter=submitter = University of Tokyo Team (Faculty of Engineering, University of Tokyo)
MoNA Rating=3.75

>  <NUM PEAKS>  (5383) 
20

>  <MASS SPECTRAL PEAKS>  (5383) 
62 8.69
64 5.18
74 5.15
79 2.88
81 2.61
98 5.94
100 3.81
121 5.73
142 3.12
155 3.78
165 3.33
169 2.57
170 2.5
185 99.99
186 14.36
187 37.66
188 4.94
200 28.69
201 4.74
202 10.44

>  <PREDICTED SPECTRUM>  (5383) 
14 9
15 33
26 22
27 27
29 88
33 3
35 19
36 46
37 39
38 121
39 244
40 96
41 96
42 43
43 182
44 97
45 120
46 10
47 71
48 31
49 81
50 160
51 261
52 239
53 203
54 92
55 75
57 38
58 78
59 125
60 44
61 86
62 118
63 369
64 278
65 388
66 154
67 173
68 75
69 147
70 44
73 180
74 88
75 147
76 82
77 376
78 242
79 165
80 68
81 28
83 5
85 1
87 15
88 2
89 134
90 150
91 328
92 357
93 419
94 131
95 253
96 77
97 41
102 16
103 74
104 56
105 127
106 206
107 252
108 152
109 82
110 46
117 20
118 16
119 61
120 68
121 343
122 211
123 157
133 12
135 256
137 112
147 56
148 0
149 305
150 207
151 108
155 28
157 114
159 14
165 206
166 61
169 54
170 13
171 2
185 999
186 366
187 531
188 200
199 0
200 660
201 242
202 332
203 102

$$$$

     RDKit          2D

  9  8  0  0  0  0  0  0  0  0999 V2000
    2.0490    4.0981    0.0000 C   0  0  0  0  0  0  0  0  0  0  0  0
    2.0490    1.0981    0.0000 C   0  0  0  0  0  0  0  0  0  0  0  0
    3.5490    2.5981    0.0000 C   0  0  0  0  0  0  0  0  0  0  0  0
   -1.5000    2.0490    0.0000 C   0  0  0  0  0  0  0  0  0  0  0  0
   -0.9510    0.0000    0.0000 C   0  0  0  0  0  0  0  0  0  0  0  0
    1.0981    0.5490    0.0000 C   0  0  0  0  0  0  0  0  0  0  0  0
    2.0490    2.5981    0.0000 C   0  0  0  0  0  0  0  0  0  0  0  0
    0.5490    2.5981    0.0000 O   0  0  0  0  0  0  0  0  0  0  0  0
   -0.2010    1.2990    0.0000 Si  0  0  0  0  0  4  0  0  0  0  0  0
  7  1  1  0
  7  2  1  0
  7  3  1  0
  8  7  1  0
  9  4  1  0
  9  5  1  0
  9  6  1  0
  9  8  1  0
M  END
>  <NAME>  (5384) 
TERT-BUTOXYTRIMETHYLSILANE

>  <SYNONYMS>  (5384) 


>  <SPECTRUM TYPE>  (5384) 
MS1

>  <INSTRUMENT TYPE>  (5384) 
EI-B

>  <INSTRUMENT>  (5384) 
JEOL JMS-D-3000

>  <ION MODE>  (5384) 
P

>  <INCHIKEY>  (5384) 
PGZGBYCKAOEPQZ-UHFFFAOYSA-N

>  <FORMULA>  (5384) 
C7H18OSi

>  <EXACT MASS>  (5384) 
146.112691726

>  <MW>  (5384) 
146

>  <ID>  (5384) 
JP001423

>  <CONTRIBUTOR>  (5384) 
University of Tokyo Team, {Faculty of Engineering, University of Tokyo

>  <COMMENT>  (5384) 
SMILES=CC(C)(C)O[Si](C)(C)C
InChI=InChI=1S/C7H18OSi/c1-7(2,3)8-9(4,5)6/h1-6H3
computed SMILES=O(C(C)(C)C)[Si](C)(C)C
accession=JP001423
date=2016.01.19 (Created 2008.10.21, modified 2011.05.06)
author=MASS SPECTROSCOPY SOC. OF JAPAN (MSSJ)
license=CC BY-NC-SA
exact mass=146.11269
ionization energy=70 eV
ion type=[M]+*
computed spectral entropy=2.190823740516583
computed normalized entropy=0.7901726364762709
SPLASH=splash10-00c0-9100000000-49fbe8838fc4ae1208e7
submitter=submitter = University of Tokyo Team (Faculty of Engineering, University of Tokyo)
MoNA Rating=3.75

>  <NUM PEAKS>  (5384) 
16

>  <MASS SPECTRAL PEAKS>  (5384) 
41 6.77
43 29.37
44 2.82
45 13.55
47 5.64
57 6.77
58 18.64
59 13.55
61 5.93
73 68.64
74 11.58
75 99.99
76 5.64
77 3.67
131 53.1
132 4.8

>  <PREDICTED SPECTRUM>  (5384) 
14 15
15 88
26 21
27 74
28 38
29 246
30 82
31 154
32 8
38 14
39 178
40 62
41 265
42 114
43 239
44 210
45 354
46 99
47 180
49 35
50 17
53 42
55 150
56 140
57 536
58 98
59 338
60 88
61 211
62 34
63 9
71 40
72 111
73 999
74 321
75 719
76 178
77 192
78 5
89 216
90 120
91 149
92 29
103 250
104 27
115 2
131 483
132 173
133 63
146 15

$$$$

     RDKit          2D

 14 15  0  0  0  0  0  0  0  0999 V2000
    2.4838    3.1891    0.0000 C   0  0  0  0  0  0  0  0  0  0  0  0
    0.5047    3.9528    0.0000 C   0  0  0  0  0  0  0  0  0  0  0  0
   -0.2591    1.9738    0.0000 C   0  0  0  0  0  0  0  0  0  0  0  0
    3.0195    1.9591    0.0000 C   0  0  0  0  0  0  0  0  0  0  0  0
   -2.3100   -0.7500    0.0000 C   0  0  0  0  0  0  0  0  0  0  0  0
   -2.3100    0.7500    0.0000 C   0  0  0  0  0  0  0  0  0  0  0  0
   -1.0100   -1.5000    0.0000 C   0  0  0  0  0  0  0  0  0  0  0  0
   -1.0100    1.5000    0.0000 C   0  0  0  0  0  0  0  0  0  0  0  0
    1.7200   -1.2100    0.0000 C   0  0  0  0  0  0  0  0  0  0  0  0
    2.6000    0.0000    0.0000 C   0  0  0  0  0  0  0  0  0  0  0  0
    0.2900   -0.7500    0.0000 C   0  0  0  0  0  0  0  0  0  0  0  0
    0.2900    0.7500    0.0000 C   0  0  0  0  0  0  0  0  0  0  0  0
    1.1124    2.5814    0.0000 Si  0  0  0  0  0  4  0  0  0  0  0  0
    1.7200    1.2100    0.0000 Si  0  0  0  0  0  4  0  0  0  0  0  0
  6  5  2  0
  7  5  1  0
  8  6  1  0
 10  9  1  0
 11  7  2  0
 11  9  1  0
 12  8  2  0
 12 11  1  0
 13  1  1  0
 13  2  1  0
 13  3  1  0
 14  4  1  0
 14 10  1  0
 14 12  1  0
 14 13  1  0
M  END
>  <NAME>  (5385) 
1-METHYL-1-TRIMETHYLSILYL-2,3-BENZO-1-SILA-2-CYCLOPENTENE

>  <SYNONYMS>  (5385) 
1-METHYL-1-TRIMETHYLSILYL-1-SILAINDAN

>  <SPECTRUM TYPE>  (5385) 
MS1

>  <INSTRUMENT TYPE>  (5385) 
EI-B

>  <INSTRUMENT>  (5385) 
JEOL JMS-D-3000

>  <ION MODE>  (5385) 
P

>  <INCHIKEY>  (5385) 
WUMUSHPXANMKDT-UHFFFAOYSA-N

>  <FORMULA>  (5385) 
C12H20Si2

>  <EXACT MASS>  (5385) 
220.1103537

>  <MW>  (5385) 
220

>  <ID>  (5385) 
JP001386

>  <CONTRIBUTOR>  (5385) 
University of Tokyo Team, {Faculty of Engineering, University of Tokyo

>  <COMMENT>  (5385) 
SMILES=c(c2)cc(C1)c(c2)[Si](C)(C1)[Si](C)(C)C
InChI=InChI=1S/C12H20Si2/c1-13(2,3)14(4)10-9-11-7-5-6-8-12(11)14/h5-8H,9-10H2,1-4H3
computed SMILES=C=1C=CC2=C(C1)CC[Si]2(C)[Si](C)(C)C
accession=JP001386
date=2016.01.19 (Created 2008.10.21, modified 2011.05.06)
author=MASS SPECTROSCOPY SOC. OF JAPAN (MSSJ)
license=CC BY-NC-SA
exact mass=220.11035
ionization energy=70 eV
ion type=[M]+*
computed spectral entropy=2.5591119552959105
computed normalized entropy=0.7384036253970138
SPLASH=splash10-0002-1910000000-3897ed38ca9578262205
submitter=submitter = University of Tokyo Team (Faculty of Engineering, University of Tokyo)
MoNA Rating=3.75

>  <NUM PEAKS>  (5385) 
32

>  <MASS SPECTRAL PEAKS>  (5385) 
43 7.2
45 6.36
53 2.46
59 3.77
73 20.91
74 1.78
75 1.26
93 1.59
103 1.07
105 6.8
106 1.08
117 1.36
119 4.49
121 3.46
130 1.27
131 5.43
132 2.27
143 3.21
145 38
146 10.67
147 99.99
148 15.15
149 4.83
160 3.95
161 1.76
177 4.84
191 1.14
205 6.06
206 1.48
220 23.13
221 5.55
222 2.27

>  <PREDICTED SPECTRUM>  (5385) 
15 0
29 75
31 41
39 36
43 179
44 68
45 237
46 54
47 13
51 51
52 8
53 51
55 75
57 23
58 36
59 207
60 58
61 10
65 93
66 55
67 82
69 15
70 5
71 6
72 33
73 625
74 169
75 141
76 0
77 76
78 41
79 98
81 2
85 23
89 14
90 2
91 112
92 29
93 141
95 33
103 100
104 16
105 121
106 44
107 8
117 108
118 8
119 63
121 18
127 13
129 128
130 50
131 273
132 155
133 34
143 75
145 336
146 320
147 999
148 403
149 245
150 26
159 25
160 64
161 83
163 20
177 217
178 61
191 79
192 10
193 35
205 297
206 145
207 50
219 12
220 415
221 204
222 99
223 4

$$$$

     RDKit          2D

 12 12  0  0  0  0  0  0  0  0999 V2000
   -4.8450    1.2710    0.0000 C   0  0  0  0  0  0  0  0  0  0  0  0
    1.6750   -0.9173    0.0000 C   0  0  0  0  0  0  0  0  0  0  0  0
    2.9739   -0.1624    0.0000 C   0  0  0  0  0  0  0  0  0  0  0  0
    0.3631   -0.1901    0.0000 C   0  0  0  0  0  0  0  0  0  0  0  0
    2.9530    1.3470    0.0000 C   0  0  0  0  0  0  0  0  0  0  0  0
   -0.9543    2.0535    0.0000 C   0  0  0  0  0  0  0  0  0  0  0  0
   -2.2470    1.2927    0.0000 C   0  0  0  0  0  0  0  0  0  0  0  0
    0.3509    1.3144    0.0000 C   0  0  0  0  0  0  0  0  0  0  0  0
    1.6411    2.0742    0.0000 C   0  0  0  0  0  0  0  0  0  0  0  0
    1.6215    3.5741    0.0000 Cl  0  0  0  0  0  0  0  0  0  0  0  0
   -3.5648    3.5318    0.0000 Cl  0  0  0  0  0  0  0  0  0  0  0  0
   -3.5523    2.0318    0.0000 Si  0  0  0  0  0  4  0  0  0  0  0  0
  3  2  2  0
  4  2  1  0
  5  3  1  0
  7  6  1  0
  8  4  2  0
  8  6  1  0
  9  5  2  0
  9  8  1  0
 10  9  1  0
 12  1  1  0
 12  7  1  0
 12 11  1  0
M  END
>  <NAME>  (5386) 
2-CHLORO-4-(ORTHO-CHLOROPHENYL)-2-SILABUTANE

>  <SYNONYMS>  (5386) 


>  <SPECTRUM TYPE>  (5386) 
MS1

>  <INSTRUMENT TYPE>  (5386) 
EI-B

>  <INSTRUMENT>  (5386) 
JEOL JMS-D-3000

>  <ION MODE>  (5386) 
P

>  <INCHIKEY>  (5386) 
HLEZVSOYFMMODO-UHFFFAOYSA-N

>  <FORMULA>  (5386) 
C9H12Cl2Si

>  <EXACT MASS>  (5386) 
218.008532274

>  <MW>  (5386) 
218

>  <ID>  (5386) 
JP001385

>  <CONTRIBUTOR>  (5386) 
University of Tokyo Team, {Faculty of Engineering, University of Tokyo

>  <COMMENT>  (5386) 
SMILES=C[SiH](Cl)CCc(c1)c(Cl)ccc1
InChI=InChI=1S/C9H12Cl2Si/c1-12(11)7-6-8-4-2-3-5-9(8)10/h2-5,12H,6-7H2,1H3
computed SMILES=ClC=1C=CC=CC1CC[SiH](Cl)C
accession=JP001385
date=2016.01.19 (Created 2008.10.21, modified 2011.05.06)
author=MASS SPECTROSCOPY SOC. OF JAPAN (MSSJ)
license=CC BY-NC-SA
exact mass=218.00853
ionization energy=70 eV
ion type=[M]+*
computed spectral entropy=3.69454309299855
computed normalized entropy=0.8294241214882327
SPLASH=splash10-056u-5900000000-a5d0a19a0791ecec31a3
submitter=submitter = University of Tokyo Team (Faculty of Engineering, University of Tokyo)
MoNA Rating=3.75

>  <NUM PEAKS>  (5386) 
86

>  <MASS SPECTRAL PEAKS>  (5386) 
43 5.37
44 1.21
45 1.25
50 3.23
51 8.22
52 1.7
53 1.37
55 1.02
61 1.9
62 1.15
63 10.57
64 1.01
65 4.97
73 1.01
74 1.6
75 5.46
76 3.01
77 23.14
78 19.69
79 22.34
80 3.55
81 7.93
89 6.98
90 2.62
91 99.99
92 9.21
93 1.11
95 1.2
99 3.1
101 3.26
102 5.21
103 30.71
104 14.73
105 55.05
106 12.68
107 1.23
108 3.61
112 2.39
113 11.41
114 1.61
115 7.87
117 1.63
125 39.83
126 3.12
127 13.3
128 1.07
131 4.62
138 3.9
139 4.81
140 2.11
141 3.03
143 1.14
145 2.95
146 3.52
147 11.6
148 1.89
149 1.47
155 32.04
156 4.41
157 12.57
158 1.59
163 1.14
165 4.37
167 12.92
168 2
169 4.34
175 15.34
176 2.01
177 10.6
178 1.35
179 2.74
181 1.14
182 2.58
183 13
184 2.87
185 5.23
189 1.79
191 1.3
203 2.91
205 1.87
217 1.29
218 8.58
219 2.16
220 6.14
221 1.17
222 1.24

>  <PREDICTED SPECTRUM>  (5386) 
14 17
15 35
17 0
26 70
27 123
28 49
29 74
30 0
31 8
33 7
34 17
35 55
36 92
37 102
38 157
39 343
40 127
41 110
42 80
43 106
44 81
45 240
46 55
47 128
48 19
49 77
50 199
51 264
52 101
53 92
54 8
55 91
56 45
57 93
58 156
59 17
60 54
61 141
62 161
63 346
64 154
65 248
66 45
67 23
69 65
70 18
71 76
72 10
73 231
74 142
75 233
76 73
77 226
78 118
79 49
80 26
81 11
82 11
84 31
85 163
86 109
87 95
89 498
90 218
91 326
92 132
93 164
95 65
97 93
99 301
100 25
101 237
102 171
103 122
105 57
106 5
109 10
110 39
111 86
112 104
113 68
115 73
117 85
118 24
119 129
120 64
121 132
122 44
123 154
124 32
125 999
126 391
127 669
128 243
129 14
131 47
132 2
133 26
135 31
138 52
139 93
140 27
141 57
143 44
147 1
148 27
149 65
150 118
151 135
152 113
153 94
154 140
155 122
156 11
157 47
160 6
161 6
165 3
183 364
184 116
185 127
186 0
218 249
219 70
220 148
221 17

$$$$

     RDKit          2D

 10 10  0  0  0  0  0  0  0  0999 V2000
    1.6631   -1.6589    0.0000 C   0  0  0  0  0  0  0  0  0  0  0  0
    2.9619   -0.9039    0.0000 C   0  0  0  0  0  0  0  0  0  0  0  0
    0.3512   -0.9317    0.0000 C   0  0  0  0  0  0  0  0  0  0  0  0
    2.9411    0.6054    0.0000 C   0  0  0  0  0  0  0  0  0  0  0  0
   -0.9662    1.3120    0.0000 C   0  0  0  0  0  0  0  0  0  0  0  0
   -2.2590    0.5512    0.0000 C   0  0  0  0  0  0  0  0  0  0  0  0
    0.3390    0.5729    0.0000 C   0  0  0  0  0  0  0  0  0  0  0  0
    1.6291    1.3327    0.0000 C   0  0  0  0  0  0  0  0  0  0  0  0
   -3.5642    1.2903    0.0000 Cl  0  0  0  0  0  0  0  0  0  0  0  0
    1.6096    2.8325    0.0000 Cl  0  0  0  0  0  0  0  0  0  0  0  0
  2  1  2  0
  3  1  1  0
  4  2  1  0
  6  5  1  0
  7  3  2  0
  7  5  1  0
  8  4  2  0
  8  7  1  0
  9  6  1  0
 10  8  1  0
M  END
>  <NAME>  (5387) 
1-CHLORO-2-(ORTHO-CHLOROPHENYL)-ETHANE

>  <SYNONYMS>  (5387) 
1-CHLORO-2-(2-CHLOROETHYL)BENZENE

>  <SPECTRUM TYPE>  (5387) 
MS1

>  <INSTRUMENT TYPE>  (5387) 
EI-B

>  <INSTRUMENT>  (5387) 
JEOL JMS-D-3000

>  <ION MODE>  (5387) 
P

>  <INCHIKEY>  (5387) 
NFWMXIVUTWWCNO-UHFFFAOYSA-N

>  <FORMULA>  (5387) 
C8H8Cl2

>  <EXACT MASS>  (5387) 
174.000305616

>  <MW>  (5387) 
174

>  <ID>  (5387) 
JP001384

>  <CONTRIBUTOR>  (5387) 
University of Tokyo Team, {Faculty of Engineering, University of Tokyo

>  <COMMENT>  (5387) 
SMILES=ClCCc(c1)c(Cl)ccc1
InChI=InChI=1S/C8H8Cl2/c9-6-5-7-3-1-2-4-8(7)10/h1-4H,5-6H2
computed SMILES=ClC=1C=CC=CC1CCCl
accession=JP001384
date=2016.01.19 (Created 2008.10.21, modified 2011.05.06)
author=MASS SPECTROSCOPY SOC. OF JAPAN (MSSJ)
license=CC BY-NC-SA
exact mass=174.00031
ionization energy=70 eV
ion type=[M]+*
computed spectral entropy=2.0013801047228506
computed normalized entropy=0.668077091664974
SPLASH=splash10-004i-1900000000-1a01410bacc42798666c
submitter=submitter = University of Tokyo Team (Faculty of Engineering, University of Tokyo)
MoNA Rating=3.75

>  <NUM PEAKS>  (5387) 
20

>  <MASS SPECTRAL PEAKS>  (5387) 
50 1.96
51 3.74
63 2.1
75 3.08
77 4.82
89 4.41
90 1.43
99 1.89
101 2.61
102 2.13
103 5.17
125 99.99
126 8.47
127 33.95
128 2.54
138 1.16
139 2.49
174 24.42
175 2.31
176 16.37

>  <PREDICTED SPECTRUM>  (5387) 
14 12
15 25
26 48
27 94
28 49
29 25
35 16
36 26
37 21
38 72
39 150
40 16
44 7
45 75
49 87
50 128
51 199
52 58
53 16
61 57
62 67
63 260
64 68
65 85
73 85
74 67
75 155
76 48
77 182
78 58
86 23
89 253
90 122
91 5
92 42
99 179
100 4
101 162
102 120
103 150
104 23
107 5
109 13
113 32
125 999
126 366
127 579
128 198
138 13
139 192
140 59
174 413
175 106
176 308
177 82
178 101
179 8

$$$$

     RDKit          2D

 10  9  0  0  0  0  0  0  0  0999 V2000
    1.3260   -0.6495    0.0000 C   0  0  0  0  0  0  0  0  0  0  0  0
   -0.1740    1.9486    0.0000 C   0  0  0  0  0  0  0  0  0  0  0  0
   -0.7231   -0.1005    0.0000 C   0  0  0  0  0  0  0  0  0  0  0  0
    3.9240    2.3505    0.0000 C   0  0  0  0  0  0  0  0  0  0  0  0
    4.4731    4.3995    0.0000 C   0  0  0  0  0  0  0  0  0  0  0  0
    2.4240    4.9486    0.0000 C   0  0  0  0  0  0  0  0  0  0  0  0
    1.8750    1.3995    0.0000 C   0  0  0  0  0  0  0  0  0  0  0  0
    1.8750    2.8995    0.0000 C   0  0  0  0  0  0  0  0  0  0  0  0
    0.5760    0.6495    0.0000 C   0  0  0  0  0  0  0  0  0  0  0  0
    3.1740    3.6495    0.0000 Si  0  0  0  0  0  4  0  0  0  0  0  0
  7  8  2  0
  9  1  1  0
  9  2  1  0
  9  3  1  0
  9  7  1  0
 10  4  1  0
 10  5  1  0
 10  6  1  0
 10  8  1  0
M  END
>  <NAME>  (5388) 
(E)-3,3-DIMETHYL-1-TRIMETHYLSILYL-1-BUTENE

>  <SYNONYMS>  (5388) 


>  <SPECTRUM TYPE>  (5388) 
MS1

>  <INSTRUMENT TYPE>  (5388) 
EI-B

>  <INSTRUMENT>  (5388) 
JEOL JMS-D-3000

>  <ION MODE>  (5388) 
P

>  <INCHIKEY>  (5388) 
BRIDLWZGGDIJRM-BQYQJAHWSA-N

>  <FORMULA>  (5388) 
C9H20Si

>  <EXACT MASS>  (5388) 
156.13342717

>  <MW>  (5388) 
156

>  <ID>  (5388) 
JP001383

>  <CONTRIBUTOR>  (5388) 
University of Tokyo Team, {Faculty of Engineering, University of Tokyo

>  <COMMENT>  (5388) 
SMILES=CC(C)(C)C([H])=C([H])[Si](C)(C)C
InChI=InChI=1S/C9H20Si/c1-9(2,3)7-8-10(4,5)6/h7-8H,1-6H3/b8-7+
computed SMILES=C(=C[Si](C)(C)C)C(C)(C)C
accession=JP001383
date=2016.01.19 (Created 2008.10.21, modified 2011.05.06)
author=MASS SPECTROSCOPY SOC. OF JAPAN (MSSJ)
license=CC BY-NC-SA
exact mass=156.13343
ionization energy=70 eV
ion type=[M]+*
computed spectral entropy=2.018898982493211
computed normalized entropy=0.6631250134595382
SPLASH=splash10-00di-9100000000-a1064a27e58482f29652
submitter=submitter = University of Tokyo Team (Faculty of Engineering, University of Tokyo)
MoNA Rating=3.75

>  <NUM PEAKS>  (5388) 
21

>  <MASS SPECTRAL PEAKS>  (5388) 
43 1.88
45 3.64
53 1.03
55 2.22
57 2.55
58 1.35
59 15.17
60 1.69
73 99.99
74 6.78
75 3.57
82 5.66
83 3.02
85 7.72
97 1.14
99 20.7
113 3.98
125 1.21
141 20.3
142 3.11
156 2.32

>  <PREDICTED SPECTRUM>  (5388) 
26 12
27 135
28 41
29 165
31 109
39 140
40 18
41 160
42 61
43 344
44 176
45 317
46 58
51 69
52 29
53 170
54 79
55 227
56 53
57 187
58 135
59 619
60 93
61 136
63 7
65 56
66 55
67 217
68 48
69 102
70 40
71 92
72 157
73 999
74 312
75 199
76 9
79 0
81 110
82 81
83 150
84 54
85 365
86 90
87 85
95 63
97 175
98 12
99 577
100 209
101 159
102 45
111 84
113 232
114 93
125 91
139 62
141 784
142 272
143 153
144 5
155 11
156 251
157 70

$$$$

     RDKit          2D

 10  9  0  0  0  0  0  0  0  0999 V2000
    3.0099    1.0613    0.0000 C   0  0  0  0  0  0  0  0  0  0  0  0
    1.1618   -0.2377    0.0000 C   0  0  0  0  0  0  0  0  0  0  0  0
   -0.3382    2.3603    0.0000 C   0  0  0  0  0  0  0  0  0  0  0  0
   -0.8873    0.3113    0.0000 C   0  0  0  0  0  0  0  0  0  0  0  0
    3.2108    3.3113    0.0000 C   0  0  0  0  0  0  0  0  0  0  0  0
    1.7108    4.8113    0.0000 C   0  0  0  0  0  0  0  0  0  0  0  0
    0.2108    3.3113    0.0000 C   0  0  0  0  0  0  0  0  0  0  0  0
    1.7108    1.8113    0.0000 C   0  0  0  0  0  0  0  0  0  0  0  0
    0.4118    1.0613    0.0000 Si  0  0  0  0  0  4  0  0  0  0  0  0
    1.7108    3.3113    0.0000 Si  0  0  0  0  0  4  0  0  0  0  0  0
  8  1  2  0
  9  2  1  0
  9  3  1  0
  9  4  1  0
  9  8  1  0
 10  5  1  0
 10  6  1  0
 10  7  1  0
 10  8  1  0
M  END
>  <NAME>  (5389) 
1,1-BIS(TRIMETHYLSILYL)ETHYLENE

>  <SYNONYMS>  (5389) 


>  <SPECTRUM TYPE>  (5389) 
MS1

>  <INSTRUMENT TYPE>  (5389) 
EI-B

>  <INSTRUMENT>  (5389) 
JEOL JMS-D-3000

>  <ION MODE>  (5389) 
P

>  <INCHIKEY>  (5389) 
CVCQWLSMIOKNLE-UHFFFAOYSA-N

>  <FORMULA>  (5389) 
C8H20Si2

>  <EXACT MASS>  (5389) 
172.1103537

>  <MW>  (5389) 
172

>  <ID>  (5389) 
JP001382

>  <CONTRIBUTOR>  (5389) 
University of Tokyo Team, {Faculty of Engineering, University of Tokyo

>  <COMMENT>  (5389) 
SMILES=C[Si](C)(C)C(=C)[Si](C)(C)C
InChI=InChI=1S/C8H20Si2/c1-8(9(2,3)4)10(5,6)7/h1H2,2-7H3
computed SMILES=C=C([Si](C)(C)C)[Si](C)(C)C
accession=JP001382
date=2016.01.19 (Created 2008.10.21, modified 2011.05.06)
author=MASS SPECTROSCOPY SOC. OF JAPAN (MSSJ)
license=CC BY-NC-SA
exact mass=172.11035
ionization energy=70 eV
ion type=[M]+*
computed spectral entropy=1.9145234021782052
computed normalized entropy=0.6502167019675169
SPLASH=splash10-00di-9200000000-7bc498e66838fd6ea846
submitter=submitter = University of Tokyo Team (Faculty of Engineering, University of Tokyo)
MoNA Rating=3.75

>  <NUM PEAKS>  (5389) 
19

>  <MASS SPECTRAL PEAKS>  (5389) 
43 5.48
45 12.14
55 1.52
58 2.59
59 4.92
69 1.01
73 99.99
74 8.71
75 3.85
83 4.72
84 6.37
85 1.18
98 1.2
99 2.74
157 23.85
158 4.24
159 1.94
172 7.2
173 1.4

>  <PREDICTED SPECTRUM>  (5389) 
27 38
28 4
29 108
31 62
39 4
41 134
42 52
43 390
44 106
45 430
46 64
53 84
54 74
55 197
56 31
57 190
58 97
59 422
60 49
66 66
67 160
68 37
69 455
70 127
71 89
72 60
73 999
74 266
75 132
81 28
82 52
83 483
84 354
85 453
86 50
97 161
98 197
99 270
100 10
115 32
129 55
141 104
155 155
157 373
158 193
159 87
172 316
173 141
174 70

$$$$

     RDKit          2D

  9  8  0  0  0  0  0  0  0  0999 V2000
    0.0000    0.0000    0.0000 C   0  0  0  0  0  0  0  0  0  0  0  0
    1.2990    2.2500    0.0000 C   0  0  0  0  0  0  0  0  0  0  0  0
   -1.8481    5.7990    0.0000 C   0  0  0  0  0  0  0  0  0  0  0  0
   -3.8971    5.2500    0.0000 C   0  0  0  0  0  0  0  0  0  0  0  0
   -3.3481    3.2010    0.0000 C   0  0  0  0  0  0  0  0  0  0  0  0
   -1.2990    2.2500    0.0000 C   0  0  0  0  0  0  0  0  0  0  0  0
   -1.2990    3.7500    0.0000 C   0  0  0  0  0  0  0  0  0  0  0  0
    0.0000    1.5000    0.0000 Si  0  0  0  0  0  4  0  0  0  0  0  0
   -2.5981    4.5000    0.0000 Si  0  0  0  0  0  4  0  0  0  0  0  0
  6  7  2  0
  8  1  1  0
  8  2  1  0
  8  6  1  0
  9  3  1  0
  9  4  1  0
  9  5  1  0
  9  7  1  0
M  END
>  <NAME>  (5390) 
(E)-1-DIMETHYLSILYL-2-TRIMETHYLSILYLETHYLENE

>  <SYNONYMS>  (5390) 


>  <SPECTRUM TYPE>  (5390) 
MS1

>  <INSTRUMENT TYPE>  (5390) 
EI-B

>  <INSTRUMENT>  (5390) 
JEOL JMS-D-3000

>  <ION MODE>  (5390) 
P

>  <INCHIKEY>  (5390) 
CREOOXLOBAKASH-VOTSOKGWSA-N

>  <FORMULA>  (5390) 
C7H18Si2

>  <EXACT MASS>  (5390) 
158.094703636

>  <MW>  (5390) 
158

>  <ID>  (5390) 
JP001381

>  <CONTRIBUTOR>  (5390) 
University of Tokyo Team, {Faculty of Engineering, University of Tokyo

>  <COMMENT>  (5390) 
SMILES=C[SiH](C)C([H])=C([H])[Si](C)(C)C
InChI=InChI=1S/C7H18Si2/c1-8(2)6-7-9(3,4)5/h6-8H,1-5H3/b7-6+
computed SMILES=C(=C[Si](C)(C)C)[SiH](C)C
accession=JP001381
date=2016.01.19 (Created 2008.10.21, modified 2011.05.06)
author=MASS SPECTROSCOPY SOC. OF JAPAN (MSSJ)
license=CC BY-NC-SA
exact mass=158.0947
ionization energy=70 eV
ion type=[M]+*
computed spectral entropy=2.321628177525253
computed normalized entropy=0.7125719420625546
SPLASH=splash10-00di-9100000000-c50f40e20ce15b01f16c
submitter=submitter = University of Tokyo Team (Faculty of Engineering, University of Tokyo)
MoNA Rating=3.75

>  <NUM PEAKS>  (5390) 
26

>  <MASS SPECTRAL PEAKS>  (5390) 
43 7.49
45 8.25
53 1.08
55 1.77
58 2.86
59 19.06
60 1.67
69 1.26
73 99.99
74 7.9
75 3.87
83 20.77
84 3.33
85 30.69
86 3.03
87 1.2
99 4.3
116 1.22
117 1.56
127 1.45
143 17.98
144 3.1
145 1.49
158 13.88
159 2.54
160 1.16

>  <PREDICTED SPECTRUM>  (5390) 
29 5
31 35
43 234
44 13
45 241
53 35
55 98
57 36
58 97
59 500
60 51
67 14
69 37
70 23
71 41
72 114
73 999
74 254
75 110
83 227
84 314
85 278
86 52
97 96
98 16
99 137
115 86
127 99
141 19
143 478
144 193
145 73
157 69
158 331
159 117
160 38

$$$$

     RDKit          2D

 10  9  0  0  0  0  0  0  0  0999 V2000
    1.3260   -0.6495    0.0000 C   0  0  0  0  0  0  0  0  0  0  0  0
   -0.1740    1.9486    0.0000 C   0  0  0  0  0  0  0  0  0  0  0  0
   -0.7231   -0.1005    0.0000 C   0  0  0  0  0  0  0  0  0  0  0  0
    3.9240    2.3505    0.0000 C   0  0  0  0  0  0  0  0  0  0  0  0
    4.4731    4.3995    0.0000 C   0  0  0  0  0  0  0  0  0  0  0  0
    1.8750    1.3995    0.0000 C   0  0  0  0  0  0  0  0  0  0  0  0
    1.8750    2.8995    0.0000 C   0  0  0  0  0  0  0  0  0  0  0  0
    2.4240    4.9486    0.0000 Cl  0  0  0  0  0  0  0  0  0  0  0  0
    0.5760    0.6495    0.0000 Si  0  0  0  0  0  4  0  0  0  0  0  0
    3.1740    3.6495    0.0000 Si  0  0  0  0  0  4  0  0  0  0  0  0
  6  7  2  0
  9  1  1  0
  9  2  1  0
  9  3  1  0
  9  6  1  0
 10  4  1  0
 10  5  1  0
 10  7  1  0
 10  8  1  0
M  END
>  <NAME>  (5391) 
(E)-1-CHLORODIMETHYLSILYL-2-TRIMETHYLSILYLETHYLENE

>  <SYNONYMS>  (5391) 


>  <SPECTRUM TYPE>  (5391) 
MS1

>  <INSTRUMENT TYPE>  (5391) 
EI-B

>  <INSTRUMENT>  (5391) 
JEOL JMS-D-3000

>  <ION MODE>  (5391) 
P

>  <INCHIKEY>  (5391) 
WEMBKSMRXMFHPR-VOTSOKGWSA-N

>  <FORMULA>  (5391) 
C7H17ClSi2

>  <EXACT MASS>  (5391) 
192.055731284

>  <MW>  (5391) 
192

>  <ID>  (5391) 
JP001380

>  <CONTRIBUTOR>  (5391) 
University of Tokyo Team, {Faculty of Engineering, University of Tokyo

>  <COMMENT>  (5391) 
SMILES=[H]C([Si](C)(C)C)=C([H])[Si](C)(C)Cl
InChI=InChI=1S/C7H17ClSi2/c1-9(2,3)6-7-10(4,5)8/h6-7H,1-5H3/b7-6+
computed SMILES=Cl[Si](C=C[Si](C)(C)C)(C)C
accession=JP001380
date=2016.01.19 (Created 2008.10.21, modified 2011.05.06)
author=MASS SPECTROSCOPY SOC. OF JAPAN (MSSJ)
license=CC BY-NC-SA
exact mass=192.05573
ionization energy=70 eV
ion type=[M]+*
computed spectral entropy=2.7429081909615323
computed normalized entropy=0.7486998871328576
SPLASH=splash10-00ai-9200000000-7614308a4ce9d0deaa4d
submitter=submitter = University of Tokyo Team (Faculty of Engineering, University of Tokyo)
MoNA Rating=3.75

>  <NUM PEAKS>  (5391) 
39

>  <MASS SPECTRAL PEAKS>  (5391) 
43 10.64
45 6.85
53 2.1
55 3.58
57 1.15
58 8
59 12.26
60 1.76
63 2.68
65 4.49
67 2.95
69 2
72 1.59
73 67.5
74 1.08
75 4.67
81 2.27
83 99.99
84 18.12
85 5.34
93 14.71
94 1.09
95 5.79
97 1.14
98 1.86
99 52.57
100 5.77
101 2.3
157 2.53
159 2
161 2.47
177 45.14
178 7.84
179 18.52
180 2.95
181 1.29
192 7.3
193 1.28
194 2.64

>  <PREDICTED SPECTRUM>  (5391) 
31 32
33 9
39 15
43 225
44 94
45 333
46 19
47 59
53 32
54 14
55 95
57 31
58 32
59 638
60 15
61 13
63 107
64 66
65 158
66 74
67 73
70 87
71 88
72 98
73 999
74 227
75 69
79 46
80 7
83 187
84 176
85 199
86 65
87 23
91 71
93 632
94 82
95 316
96 108
97 127
99 194
100 44
113 48
141 46
149 9
150 36
152 26
153 4
157 23
161 34
177 679
178 245
179 479
180 155
181 153
192 95
193 44
194 61

$$$$

     RDKit          2D

 18 18  0  0  0  0  0  0  0  0999 V2000
    1.5000    3.0000    0.0000 C   0  0  0  0  0  0  0  0  0  0  0  0
    0.0000    4.5000    0.0000 C   0  0  0  0  0  0  0  0  0  0  0  0
   -1.5000    3.0000    0.0000 C   0  0  0  0  0  0  0  0  0  0  0  0
    1.8487   -2.7991    0.0000 C   0  0  0  0  0  0  0  0  0  0  0  0
    3.8978   -2.2504    0.0000 C   0  0  0  0  0  0  0  0  0  0  0  0
    3.3491   -0.2013    0.0000 C   0  0  0  0  0  0  0  0  0  0  0  0
   -3.3491   -0.2013    0.0000 C   0  0  0  0  0  0  0  0  0  0  0  0
   -3.8978   -2.2504    0.0000 C   0  0  0  0  0  0  0  0  0  0  0  0
   -1.8487   -2.7991    0.0000 C   0  0  0  0  0  0  0  0  0  0  0  0
    1.3000    0.7500    0.0000 C   0  0  0  0  0  0  0  0  0  0  0  0
   -1.3000    0.7500    0.0000 C   0  0  0  0  0  0  0  0  0  0  0  0
    0.0000   -1.5000    0.0000 C   0  0  0  0  0  0  0  0  0  0  0  0
    0.0000    1.5000    0.0000 C   0  0  0  0  0  0  0  0  0  0  0  0
    1.3000   -0.7500    0.0000 C   0  0  0  0  0  0  0  0  0  0  0  0
   -1.3000   -0.7500    0.0000 C   0  0  0  0  0  0  0  0  0  0  0  0
    0.0000    3.0000    0.0000 C   0  0  0  0  0  0  0  0  0  0  0  0
    2.5989   -1.5002    0.0000 C   0  0  0  0  0  0  0  0  0  0  0  0
   -2.5989   -1.5002    0.0000 C   0  0  0  0  0  0  0  0  0  0  0  0
 13 10  2  0
 13 11  1  0
 14 10  1  0
 14 12  2  0
 15 11  2  0
 15 12  1  0
 16  1  1  0
 16  2  1  0
 16  3  1  0
 16 13  1  0
 17  4  1  0
 17  5  1  0
 17  6  1  0
 17 14  1  0
 18  7  1  0
 18  8  1  0
 18  9  1  0
 18 15  1  0
M  END
>  <NAME>  (5392) 
1,3,5-TRI-TERT-BUTYLBENZENE

>  <SYNONYMS>  (5392) 


>  <SPECTRUM TYPE>  (5392) 
MS1

>  <INSTRUMENT TYPE>  (5392) 
EI-B

>  <INSTRUMENT>  (5392) 
JEOL JMS-D-3000

>  <ION MODE>  (5392) 
P

>  <INCHIKEY>  (5392) 
GUFMBISUSZUUCB-UHFFFAOYSA-N

>  <FORMULA>  (5392) 
C18H30

>  <EXACT MASS>  (5392) 
246.23475095999999

>  <MW>  (5392) 
246

>  <ID>  (5392) 
JP001377

>  <CONTRIBUTOR>  (5392) 
University of Tokyo Team, {Faculty of Engineering, University of Tokyo

>  <COMMENT>  (5392) 
computed SMILES=C=1C(=CC(=CC1C(C)(C)C)C(C)(C)C)C(C)(C)C
SMILES=CC(C)(C)c(c1)cc(cc1C(C)(C)C)C(C)(C)C
InChI=InChI=1S/C18H30/c1-16(2,3)13-10-14(17(4,5)6)12-15(11-13)18(7,8)9/h10-12H,1-9H3
accession=JP001377
date=2016.01.19 (Created 2008.10.21, modified 2011.05.06)
author=MASS SPECTROSCOPY SOC. OF JAPAN (MSSJ)
license=CC BY-NC-SA
exact mass=246.23475
ionization energy=70 eV
ion type=[M]+*
computed spectral entropy=1.9314263353478514
computed normalized entropy=0.6159878482746639
SPLASH=splash10-001i-3190000000-424fee2a2ebac213a9f6
submitter=submitter = University of Tokyo Team (Faculty of Engineering, University of Tokyo)
MoNA Rating=3.75

>  <NUM PEAKS>  (5392) 
23

>  <MASS SPECTRAL PEAKS>  (5392) 
40 4.72
55 1.59
57 47.87
58 2.35
91 1.99
94 4.31
100 1.5
108 6.66
109 1.22
115 1.23
117 1.12
128 1.26
129 1.26
131 1.1
159 1.25
175 2.05
203 1.22
215 2.32
231 99.99
232 19.79
233 2.04
246 17.03
247 3.67

>  <PREDICTED SPECTRUM>  (5392) 
15 31
27 59
29 149
39 126
40 41
41 352
42 53
43 157
44 52
50 27
51 91
52 39
53 85
54 24
55 176
56 60
57 649
58 123
59 12
61 1
62 19
63 49
64 44
65 87
66 53
67 75
68 9
69 114
70 62
71 42
72 33
73 29
74 41
75 71
76 64
77 149
78 90
79 104
80 41
81 56
82 8
83 57
84 34
85 32
86 7
87 25
88 45
89 97
90 52
91 189
92 78
93 58
95 7
96 22
97 39
99 16
100 75
101 57
102 91
103 123
104 89
105 97
106 45
107 15
108 26
109 26
112 8
113 30
114 43
115 177
116 112
117 111
118 56
119 140
120 47
121 5
125 20
126 16
127 86
128 125
129 123
130 58
131 94
132 49
133 64
134 53
135 66
139 7
141 94
142 66
143 40
144 48
145 48
146 18
147 103
148 37
151 4
152 85
153 91
154 27
155 8
156 0
157 75
158 37
159 122
160 30
161 33
163 12
165 61
166 40
167 84
168 87
169 36
171 55
172 5
173 126
174 23
175 196
176 4
177 7
180 2
181 36
183 16
184 1
185 99
187 79
189 103
190 50
199 33
200 32
201 126
202 47
203 203
204 80
215 159
216 125
217 102
219 9
229 48
231 999
232 420
233 168
234 13
246 336
247 126

$$$$

     RDKit          2D

 18 18  0  0  0  0  0  0  0  0999 V2000
    1.5000    3.0000    0.0000 C   0  0  0  0  0  0  0  0  0  0  0  0
    0.0000    4.5000    0.0000 C   0  0  0  0  0  0  0  0  0  0  0  0
   -1.5000    3.0000    0.0000 C   0  0  0  0  0  0  0  0  0  0  0  0
   -3.3491   -0.2013    0.0000 C   0  0  0  0  0  0  0  0  0  0  0  0
   -3.8978   -2.2504    0.0000 C   0  0  0  0  0  0  0  0  0  0  0  0
   -1.8487   -2.7991    0.0000 C   0  0  0  0  0  0  0  0  0  0  0  0
    1.8487   -2.7991    0.0000 C   0  0  0  0  0  0  0  0  0  0  0  0
    3.8978   -2.2504    0.0000 C   0  0  0  0  0  0  0  0  0  0  0  0
    3.3491   -0.2013    0.0000 C   0  0  0  0  0  0  0  0  0  0  0  0
   -1.3000    0.7500    0.0000 C   0  0  0  0  0  0  0  0  0  0  0  0
    1.3000    0.7500    0.0000 C   0  0  0  0  0  0  0  0  0  0  0  0
    0.0000   -1.5000    0.0000 C   0  0  0  0  0  0  0  0  0  0  0  0
    0.0000    1.5000    0.0000 C   0  0  0  0  0  0  0  0  0  0  0  0
   -1.3000   -0.7500    0.0000 C   0  0  0  0  0  0  0  0  0  0  0  0
    1.3000   -0.7500    0.0000 C   0  0  0  0  0  0  0  0  0  0  0  0
    0.0000    3.0000    0.0000 C   0  0  0  0  0  0  0  0  0  0  0  0
   -2.5989   -1.5002    0.0000 C   0  0  0  0  0  0  0  0  0  0  0  0
    2.5989   -1.5002    0.0000 Si  0  0  0  0  0  4  0  0  0  0  0  0
 13 10  2  0
 13 11  1  0
 14 10  1  0
 14 12  2  0
 15 11  2  0
 15 12  1  0
 16  1  1  0
 16  2  1  0
 16  3  1  0
 16 13  1  0
 17  4  1  0
 17  5  1  0
 17  6  1  0
 17 14  1  0
 18  7  1  0
 18  8  1  0
 18  9  1  0
 18 15  1  0
M  END
>  <NAME>  (5393) 
(3,5-DI-TERT-BUTYLPHENYL)TRIMETHYLSILANE

>  <SYNONYMS>  (5393) 


>  <SPECTRUM TYPE>  (5393) 
MS1

>  <INSTRUMENT TYPE>  (5393) 
EI-B

>  <INSTRUMENT>  (5393) 
JEOL JMS-D-3000

>  <ION MODE>  (5393) 
P

>  <INCHIKEY>  (5393) 
ZVCPSTJBKOWAOL-UHFFFAOYSA-N

>  <FORMULA>  (5393) 
C17H30Si

>  <EXACT MASS>  (5393) 
262.21167749

>  <MW>  (5393) 
262

>  <ID>  (5393) 
JP001376

>  <CONTRIBUTOR>  (5393) 
University of Tokyo Team, {Faculty of Engineering, University of Tokyo

>  <COMMENT>  (5393) 
SMILES=CC(C)(C)c(c1)cc(cc1C(C)(C)C)[Si](C)(C)C
InChI=InChI=1S/C17H30Si/c1-16(2,3)13-10-14(17(4,5)6)12-15(11-13)18(7,8)9/h10-12H,1-9H3
computed SMILES=C=1C(=CC(=CC1C(C)(C)C)[Si](C)(C)C)C(C)(C)C
accession=JP001376
date=2016.01.19 (Created 2008.10.21, modified 2011.05.06)
author=MASS SPECTROSCOPY SOC. OF JAPAN (MSSJ)
license=CC BY-NC-SA
exact mass=262.21168
ionization energy=70 eV
ion type=[M]+*
computed spectral entropy=1.920061386380238
computed normalized entropy=0.6642956502515118
SPLASH=splash10-0002-2090000000-1a71fda8d38eac52e92e
submitter=submitter = University of Tokyo Team (Faculty of Engineering, University of Tokyo)
MoNA Rating=3.75

>  <NUM PEAKS>  (5393) 
18

>  <MASS SPECTRAL PEAKS>  (5393) 
45 2.32
57 8.6
59 3.56
73 25.28
74 2.14
75 1.18
102 5.54
116 4.6
117 1.12
175 2.6
215 1.24
231 4.16
232 1.46
247 99.99
248 23.88
249 6.33
262 11.88
263 3.09

>  <PREDICTED SPECTRUM>  (5393) 
15 6
27 18
29 25
39 50
41 135
42 4
43 58
44 33
45 145
46 7
47 27
51 5
52 3
53 36
55 62
56 3
57 195
58 21
59 45
61 18
63 4
64 10
65 38
66 31
67 31
69 33
71 22
73 416
74 88
75 168
76 48
77 57
78 38
79 54
80 18
81 41
82 21
83 43
84 19
85 20
87 5
88 12
89 41
91 109
92 12
93 15
95 15
97 24
99 26
101 33
102 36
103 105
104 33
105 43
115 100
116 61
117 74
118 15
119 31
120 13
127 27
128 52
129 43
130 38
131 46
132 22
133 35
135 45
141 50
142 16
143 36
144 0
145 54
146 20
147 33
151 13
155 59
157 27
159 40
160 7
163 32
169 29
170 37
171 45
175 48
176 19
177 0
185 38
186 32
187 31
189 49
190 35
191 72
192 22
201 87
203 41
204 4
215 9
216 25
217 87
218 6
219 57
220 53
231 146
232 73
233 18
245 41
247 999
248 484
249 245
250 89
261 3
262 337
263 167
264 51

$$$$

     RDKit          2D

 14 14  0  0  0  0  0  0  0  0999 V2000
   -0.8462    1.9961    0.0000 C   0  0  0  0  0  0  0  0  0  0  0  0
   -2.8943    1.4437    0.0000 C   0  0  0  0  0  0  0  0  0  0  0  0
   -2.3418   -0.6045    0.0000 C   0  0  0  0  0  0  0  0  0  0  0  0
    4.3538   -0.6005    0.0000 C   0  0  0  0  0  0  0  0  0  0  0  0
    4.9032    1.4484    0.0000 C   0  0  0  0  0  0  0  0  0  0  0  0
    2.8542    1.9978    0.0000 C   0  0  0  0  0  0  0  0  0  0  0  0
    1.0098   -2.2942    0.0000 C   0  0  0  0  0  0  0  0  0  0  0  0
   -0.2892   -1.5442    0.0000 C   0  0  0  0  0  0  0  0  0  0  0  0
    2.3044   -1.5520    0.0000 C   0  0  0  0  0  0  0  0  0  0  0  0
    1.0058    0.6988    0.0000 C   0  0  0  0  0  0  0  0  0  0  0  0
   -0.2937   -0.0520    0.0000 C   0  0  0  0  0  0  0  0  0  0  0  0
    2.3048   -0.0512    0.0000 C   0  0  0  0  0  0  0  0  0  0  0  0
   -1.5940    0.6958    0.0000 C   0  0  0  0  0  0  0  0  0  0  0  0
    3.6040    0.6986    0.0000 C   0  0  0  0  0  0  0  0  0  0  0  0
  8  7  2  0
  9  7  1  0
 11  8  1  0
 11 10  2  0
 12  9  2  0
 12 10  1  0
 13  1  1  0
 13  2  1  0
 13  3  1  0
 13 11  1  0
 14  4  1  0
 14  5  1  0
 14  6  1  0
 14 12  1  0
M  END
>  <NAME>  (5394) 
1,3-DI-TERT-BUTYLBENZENE

>  <SYNONYMS>  (5394) 


>  <SPECTRUM TYPE>  (5394) 
MS1

>  <INSTRUMENT TYPE>  (5394) 
EI-B

>  <INSTRUMENT>  (5394) 
JEOL JMS-D-3000

>  <ION MODE>  (5394) 
P

>  <INCHIKEY>  (5394) 
ILNDSSCEZZFNGE-UHFFFAOYSA-N

>  <FORMULA>  (5394) 
C14H22

>  <EXACT MASS>  (5394) 
190.172150704

>  <MW>  (5394) 
190

>  <ID>  (5394) 
JP001375

>  <CONTRIBUTOR>  (5394) 
University of Tokyo Team, {Faculty of Engineering, University of Tokyo

>  <COMMENT>  (5394) 
SMILES=CC(C)(C)c(c1)cc(cc1)C(C)(C)C
InChI=InChI=1S/C14H22/c1-13(2,3)11-8-7-9-12(10-11)14(4,5)6/h7-10H,1-6H3
computed SMILES=C=1C=C(C=C(C1)C(C)(C)C)C(C)(C)C
accession=JP001375
date=2016.01.19 (Created 2008.10.21, modified 2011.05.06)
author=MASS SPECTROSCOPY SOC. OF JAPAN (MSSJ)
license=CC BY-NC-SA
exact mass=190.17215
ionization energy=70 eV
ion type=[M]+*
computed spectral entropy=2.1325486850544877
computed normalized entropy=0.6470431552760253
SPLASH=splash10-004i-4900000000-8003861a59b25e32ed80
submitter=submitter = University of Tokyo Team (Faculty of Engineering, University of Tokyo)
MoNA Rating=3.75

>  <NUM PEAKS>  (5394) 
27

>  <MASS SPECTRAL PEAKS>  (5394) 
40 4.66
55 1.05
57 36.04
58 2.54
64 2.14
65 5.2
66 4.88
77 1.26
79 1.66
80 5.25
91 5.1
103 1.07
105 2.09
115 2.5
116 1.01
117 2.48
119 1.56
128 1.5
129 1.04
145 1.11
147 4.01
159 1.33
175 99.99
176 15.1
177 1.1
190 17.42
191 2.82

>  <PREDICTED SPECTRUM>  (5394) 
14 17
15 62
16 6
18 2
26 32
27 174
28 67
29 269
30 37
38 18
39 202
40 24
41 373
42 23
43 79
45 3
50 74
51 124
52 79
53 91
54 11
55 114
56 58
57 503
58 107
59 40
61 8
62 28
63 117
64 89
65 146
66 102
67 65
69 89
70 62
71 58
72 15
73 58
74 74
75 85
76 74
77 190
78 155
79 139
80 54
81 27
84 22
85 7
86 29
87 38
88 44
89 171
90 92
91 291
92 121
93 39
96 3
97 28
98 12
100 47
101 71
102 131
103 172
104 118
105 163
106 91
107 35
109 31
115 263
116 161
117 208
118 88
119 272
120 71
127 82
128 176
129 170
130 28
131 161
132 98
133 160
134 73
135 60
141 15
143 47
144 30
145 131
146 10
147 427
148 145
149 58
159 178
160 82
173 53
174 17
175 999
176 352
177 106
190 426
191 148

$$$$

     RDKit          2D

 14 14  0  0  0  0  0  0  0  0999 V2000
   -3.3491   -0.2013    0.0000 C   0  0  0  0  0  0  0  0  0  0  0  0
   -3.8978   -2.2504    0.0000 C   0  0  0  0  0  0  0  0  0  0  0  0
   -1.8487   -2.7991    0.0000 C   0  0  0  0  0  0  0  0  0  0  0  0
    3.3491    0.2013    0.0000 C   0  0  0  0  0  0  0  0  0  0  0  0
    3.8978    2.2504    0.0000 C   0  0  0  0  0  0  0  0  0  0  0  0
    1.8487    2.7991    0.0000 C   0  0  0  0  0  0  0  0  0  0  0  0
   -1.3000    0.7500    0.0000 C   0  0  0  0  0  0  0  0  0  0  0  0
   -0.0000   -1.5000    0.0000 C   0  0  0  0  0  0  0  0  0  0  0  0
    0.0000    1.5000    0.0000 C   0  0  0  0  0  0  0  0  0  0  0  0
    1.3000   -0.7500    0.0000 C   0  0  0  0  0  0  0  0  0  0  0  0
   -1.3000   -0.7500    0.0000 C   0  0  0  0  0  0  0  0  0  0  0  0
    1.3000    0.7500    0.0000 C   0  0  0  0  0  0  0  0  0  0  0  0
   -2.5989   -1.5002    0.0000 C   0  0  0  0  0  0  0  0  0  0  0  0
    2.5989    1.5002    0.0000 C   0  0  0  0  0  0  0  0  0  0  0  0
  9  7  2  0
 10  8  1  0
 11  7  1  0
 11  8  2  0
 12  9  1  0
 12 10  2  0
 13  1  1  0
 13  2  1  0
 13  3  1  0
 13 11  1  0
 14  4  1  0
 14  5  1  0
 14  6  1  0
 14 12  1  0
M  END
>  <NAME>  (5395) 
1,4-DI-TERT-BUTYLBENZENE

>  <SYNONYMS>  (5395) 


>  <SPECTRUM TYPE>  (5395) 
MS1

>  <INSTRUMENT TYPE>  (5395) 
EI-B

>  <INSTRUMENT>  (5395) 
JEOL JMS-D-3000

>  <ION MODE>  (5395) 
P

>  <INCHIKEY>  (5395) 
OOWNNCMFKFBNOF-UHFFFAOYSA-N

>  <FORMULA>  (5395) 
C14H22

>  <EXACT MASS>  (5395) 
190.172150704

>  <MW>  (5395) 
190

>  <ID>  (5395) 
JP001374

>  <CONTRIBUTOR>  (5395) 
University of Tokyo Team, {Faculty of Engineering, University of Tokyo

>  <COMMENT>  (5395) 
SMILES=CC(C)(C)c(c1)ccc(c1)C(C)(C)C
InChI=InChI=1S/C14H22/c1-13(2,3)11-7-9-12(10-8-11)14(4,5)6/h7-10H,1-6H3
computed SMILES=C=1C=C(C=CC1C(C)(C)C)C(C)(C)C
accession=JP001374
date=2016.01.19 (Created 2008.10.21, modified 2011.05.06)
author=MASS SPECTROSCOPY SOC. OF JAPAN (MSSJ)
license=CC BY-NC-SA
exact mass=190.17215
ionization energy=70 eV
ion type=[M]+*
computed spectral entropy=2.349265219412996
computed normalized entropy=0.6778546563560104
SPLASH=splash10-004i-2900000000-ce4322b3716f2a2f4069
submitter=submitter = University of Tokyo Team (Faculty of Engineering, University of Tokyo)
MoNA Rating=3.75

>  <NUM PEAKS>  (5395) 
32

>  <MASS SPECTRAL PEAKS>  (5395) 
40 4.37
55 1.25
57 21.96
58 1.25
64 2.31
65 5.23
66 3.26
71 1.18
77 1.59
79 2.17
80 5.27
91 5.82
103 1.1
105 2.26
115 2.59
116 1.11
117 4.09
119 1.24
128 1.7
129 1.4
131 1.24
133 1.15
145 5.67
147 2.19
159 2.21
160 8.85
161 1.3
175 99.99
176 14.37
177 1.23
190 15.45
191 2.69

>  <PREDICTED SPECTRUM>  (5395) 
15 17
27 95
28 10
29 218
30 13
39 162
40 2
41 425
43 45
50 19
51 81
52 39
53 78
55 194
56 65
57 644
58 104
59 13
62 6
63 68
64 42
65 116
66 58
67 52
69 68
71 56
74 21
75 37
76 42
77 189
78 116
79 95
80 0
88 5
89 87
90 46
91 301
92 89
93 49
97 23
98 9
101 10
102 115
103 106
104 74
105 232
106 123
107 37
115 259
116 157
117 242
118 117
119 271
120 76
127 72
128 174
129 150
130 57
131 140
132 138
133 143
134 26
135 11
142 16
143 42
144 56
145 98
146 22
147 186
148 41
159 207
160 80
173 15
175 999
176 317
177 42
190 422
191 125

$$$$

     RDKit          2D

 17 17  0  0  0  0  0  0  0  0999 V2000
   -2.6985    0.9238    0.0000 C   0  0  0  0  0  0  0  0  0  0  0  0
   -3.2475   -1.1253    0.0000 C   0  0  0  0  0  0  0  0  0  0  0  0
   -1.1985   -1.6743    0.0000 C   0  0  0  0  0  0  0  0  0  0  0  0
    2.4985   -1.6750    0.0000 C   0  0  0  0  0  0  0  0  0  0  0  0
    4.5474   -1.1257    0.0000 C   0  0  0  0  0  0  0  0  0  0  0  0
    3.9981    0.9233    0.0000 C   0  0  0  0  0  0  0  0  0  0  0  0
    0.6501   -0.3761    0.0000 C   0  0  0  0  0  0  0  0  0  0  0  0
   -0.6499    1.8756    0.0000 C   0  0  0  0  0  0  0  0  0  0  0  0
    1.9486    1.8747    0.0000 C   0  0  0  0  0  0  0  0  0  0  0  0
   -0.6494    0.3747    0.0000 C   0  0  0  0  0  0  0  0  0  0  0  0
    1.9491    0.3739    0.0000 C   0  0  0  0  0  0  0  0  0  0  0  0
    0.6491    2.6256    0.0000 C   0  0  0  0  0  0  0  0  0  0  0  0
   -1.9485   -0.3753    0.0000 C   0  0  0  0  0  0  0  0  0  0  0  0
    3.2483   -0.3759    0.0000 C   0  0  0  0  0  0  0  0  0  0  0  0
    0.6494    4.1256    0.0000 N   0  0  0  0  0  0  0  0  0  0  0  0
   -0.6495    4.8758    0.0000 O   0  0  0  0  0  0  0  0  0  0  0  0
    1.9485    4.8754    0.0000 O   0  0  0  0  0  0  0  0  0  0  0  0
 10  7  2  0
 10  8  1  0
 11  7  1  0
 11  9  2  0
 12  8  2  0
 12  9  1  0
 13  1  1  0
 13  2  1  0
 13  3  1  0
 13 10  1  0
 14  4  1  0
 14  5  1  0
 14  6  1  0
 14 11  1  0
 15 12  1  0
 16 15  1  0
 17 15  2  0
M  CHG  2  15   1  16  -1
M  END
>  <NAME>  (5396) 
3,5-DI-T-BUTYL-NITROBENZENE

>  <SYNONYMS>  (5396) 
1,3-DI-TERT-BUTYL-5-NITROBENZENE

>  <SPECTRUM TYPE>  (5396) 
MS1

>  <INSTRUMENT TYPE>  (5396) 
EI-B

>  <INSTRUMENT>  (5396) 
JEOL JMS-D-3000

>  <ION MODE>  (5396) 
P

>  <INCHIKEY>  (5396) 
LUYJFRAXBOUNPV-UHFFFAOYSA-N

>  <FORMULA>  (5396) 
C14H21NO2

>  <EXACT MASS>  (5396) 
235.157228912

>  <MW>  (5396) 
235

>  <ID>  (5396) 
JP001373

>  <CONTRIBUTOR>  (5396) 
University of Tokyo Team, {Faculty of Engineering, University of Tokyo

>  <COMMENT>  (5396) 
SMILES=[O-1][N+1](=O)c(c1)cc(cc1C(C)(C)C)C(C)(C)C
InChI=InChI=1S/C14H21NO2/c1-13(2,3)10-7-11(14(4,5)6)9-12(8-10)15(16)17/h7-9H,1-6H3
computed SMILES=O=N(=O)C=1C=C(C=C(C1)C(C)(C)C)C(C)(C)C
accession=JP001373
date=2016.01.19 (Created 2008.10.21, modified 2011.05.06)
author=MASS SPECTROSCOPY SOC. OF JAPAN (MSSJ)
license=CC BY-NC-SA
exact mass=235.15723
ionization energy=70 eV
ion type=[M]+*
computed spectral entropy=2.877175570886361
computed normalized entropy=0.7281696032456643
SPLASH=splash10-00di-7590000000-bffbcd520343a7138caf
submitter=submitter = University of Tokyo Team (Faculty of Engineering, University of Tokyo)
MoNA Rating=3.75

>  <NUM PEAKS>  (5396) 
52

>  <MASS SPECTRAL PEAKS>  (5396) 
40 7.68
43 2.41
51 2.79
53 2.78
55 3.92
57 49.58
58 2.39
63 1.71
64 2.38
65 3.04
67 1
71 1.09
75 1.3
77 4.55
78 1.26
79 1.89
88 3.89
89 2.6
91 7.44
102 3.81
103 3.95
105 2.73
115 5.5
116 2.44
117 1.72
118 1.23
127 1.29
128 4.27
129 3.95
130 1.49
131 4.26
132 1.09
133 3
141 1.32
142 1.04
143 1.92
144 1.7
147 1.5
158 1.08
159 4.83
174 1.5
189 1.32
192 12.51
193 1.6
195 3.9
204 1.07
210 1.66
220 99.99
221 15.29
222 1.7
235 10.54
236 2.12

>  <PREDICTED SPECTRUM>  (5396) 
15 16
27 79
28 12
29 190
30 47
38 13
39 176
40 72
41 328
42 65
43 201
44 76
45 27
46 7
50 70
51 123
52 64
53 108
54 11
55 126
56 41
57 435
58 73
59 29
62 23
63 89
64 59
65 131
66 60
67 67
69 52
70 22
71 19
72 16
73 16
74 57
75 127
76 74
77 209
78 118
79 120
80 15
81 49
82 2
83 0
84 2
85 13
86 12
87 6
88 49
89 130
90 58
91 282
92 84
93 48
94 4
98 2
100 28
101 40
102 109
103 135
104 105
105 166
106 61
107 12
108 31
113 8
114 43
115 275
116 190
117 179
118 115
119 64
120 2
126 23
127 84
128 185
129 131
130 110
131 150
132 116
133 72
134 30
140 13
141 69
142 124
143 118
144 128
145 59
146 119
147 68
148 14
152 38
153 10
155 1
156 77
157 86
158 75
159 99
160 94
161 69
162 66
164 27
165 3
170 16
172 14
173 59
174 246
175 64
176 53
177 44
178 41
179 22
188 59
189 117
190 137
191 23
192 218
193 83
194 0
202 29
203 39
204 80
205 0
217 1
218 77
220 999
221 391
222 138
235 327
236 116
237 7

$$$$

     RDKit          2D

 15 15  0  0  0  0  0  0  0  0999 V2000
    1.5000    3.0000    0.0000 C   0  0  0  0  0  0  0  0  0  0  0  0
    0.0000    4.5000    0.0000 C   0  0  0  0  0  0  0  0  0  0  0  0
   -1.5000    3.0000    0.0000 C   0  0  0  0  0  0  0  0  0  0  0  0
   -3.3491   -0.2013    0.0000 C   0  0  0  0  0  0  0  0  0  0  0  0
   -3.8978   -2.2504    0.0000 C   0  0  0  0  0  0  0  0  0  0  0  0
   -1.8487   -2.7991    0.0000 C   0  0  0  0  0  0  0  0  0  0  0  0
   -1.3000    0.7500    0.0000 C   0  0  0  0  0  0  0  0  0  0  0  0
    1.3000    0.7500    0.0000 C   0  0  0  0  0  0  0  0  0  0  0  0
    0.0000   -1.5000    0.0000 C   0  0  0  0  0  0  0  0  0  0  0  0
    0.0000    1.5000    0.0000 C   0  0  0  0  0  0  0  0  0  0  0  0
   -1.3000   -0.7500    0.0000 C   0  0  0  0  0  0  0  0  0  0  0  0
    1.3000   -0.7500    0.0000 C   0  0  0  0  0  0  0  0  0  0  0  0
    0.0000    3.0000    0.0000 C   0  0  0  0  0  0  0  0  0  0  0  0
   -2.5989   -1.5002    0.0000 C   0  0  0  0  0  0  0  0  0  0  0  0
    2.5989   -1.5002    0.0000 Br  0  0  0  0  0  0  0  0  0  0  0  0
 10  7  2  0
 10  8  1  0
 11  7  1  0
 11  9  2  0
 12  8  2  0
 12  9  1  0
 13  1  1  0
 13  2  1  0
 13  3  1  0
 13 10  1  0
 14  4  1  0
 14  5  1  0
 14  6  1  0
 14 11  1  0
 15 12  1  0
M  END
>  <NAME>  (5397) 
1-BROMO-3,5-DI-TERT-BUTYLBENZENE

>  <SYNONYMS>  (5397) 


>  <SPECTRUM TYPE>  (5397) 
MS1

>  <INSTRUMENT TYPE>  (5397) 
EI-B

>  <INSTRUMENT>  (5397) 
JEOL JMS-D-3000

>  <ION MODE>  (5397) 
P

>  <INCHIKEY>  (5397) 
BUOWTUULDKULFI-UHFFFAOYSA-N

>  <FORMULA>  (5397) 
C14H21Br

>  <EXACT MASS>  (5397) 
268.082662772

>  <MW>  (5397) 
268

>  <ID>  (5397) 
JP001372

>  <CONTRIBUTOR>  (5397) 
University of Tokyo Team, {Faculty of Engineering, University of Tokyo

>  <COMMENT>  (5397) 
SMILES=CC(C)(C)c(c1)cc(cc(Br)1)C(C)(C)C
InChI=InChI=1S/C14H21Br/c1-13(2,3)10-7-11(14(4,5)6)9-12(15)8-10/h7-9H,1-6H3
computed SMILES=BrC=1C=C(C=C(C1)C(C)(C)C)C(C)(C)C
accession=JP001372
date=2016.01.19 (Created 2008.10.21, modified 2011.05.06)
author=MASS SPECTROSCOPY SOC. OF JAPAN (MSSJ)
license=CC BY-NC-SA
exact mass=268.08266
ionization energy=70 eV
ion type=[M]+*
computed spectral entropy=2.971092185833989
computed normalized entropy=0.7143966604211078
SPLASH=splash10-0pb9-4290000000-1418068362807f9571c9
submitter=submitter = University of Tokyo Team (Faculty of Engineering, University of Tokyo)
MoNA Rating=3.75

>  <NUM PEAKS>  (5397) 
64

>  <MASS SPECTRAL PEAKS>  (5397) 
50 1.08
51 4.17
52 1.52
53 2.14
55 5.04
56 1.56
57 95.31
58 3.59
63 2.9
64 7.95
65 5.08
70 1.77
71 2.06
75 2.25
76 1.67
77 3.95
78 2.79
79 2.03
89 1.63
91 6.02
92 1.01
97 1.23
98 1.16
102 2.57
103 2.14
104 3.01
105 8.02
106 5.3
115 8.2
116 3.05
117 4.32
118 2.21
119 4.75
120 4.13
127 1.85
128 5.33
129 5.15
130 1.7
131 2.9
132 1.27
133 1.7
141 2.21
142 1.23
143 2.32
144 2.57
158 1.88
159 2.46
169 1.08
171 1.01
189 1.19
197 1.63
209 1.01
225 5.33
227 4.79
239 1.08
253 99.99
254 15.14
255 97.53
256 15.28
257 1.16
268 21.06
269 3.66
270 19.78
271 3.05

>  <PREDICTED SPECTRUM>  (5397) 
14 11
15 81
16 9
26 9
27 133
28 69
29 214
38 12
39 205
40 98
41 426
42 119
43 126
44 44
50 70
51 113
52 52
53 101
54 12
55 180
56 43
57 471
58 66
59 7
61 23
62 34
63 113
64 57
65 87
66 41
67 41
68 12
69 77
70 51
71 13
73 47
74 57
75 159
76 85
77 178
78 119
79 69
80 16
82 45
83 30
84 26
85 39
88 34
89 151
90 78
91 153
92 25
100 5
101 20
102 99
103 104
104 65
105 137
106 33
107 7
111 31
113 19
114 115
115 277
116 122
117 204
118 102
119 53
120 17
123 11
125 67
127 126
128 142
129 192
130 90
131 176
132 42
133 114
134 2
139 84
140 37
141 166
142 74
143 107
144 55
145 128
146 149
147 53
148 29
156 105
157 164
158 80
159 249
160 57
161 56
169 162
171 96
172 7
173 106
174 274
175 144
176 21
184 32
185 9
188 35
190 3
196 3
197 110
199 63
203 36
211 50
212 70
223 5
225 367
226 116
227 300
228 93
237 121
238 60
239 85
240 57
241 66
242 15
251 21
253 987
254 353
255 999
256 351
257 91
268 489
269 171
270 471
271 175

$$$$

     RDKit          2D

 11 11  0  0  0  0  0  0  0  0999 V2000
   -3.4349    3.0684    0.0000 C   0  0  0  0  0  0  0  0  0  0  0  0
   -3.9839    1.0193    0.0000 C   0  0  0  0  0  0  0  0  0  0  0  0
   -1.9349    0.4703    0.0000 C   0  0  0  0  0  0  0  0  0  0  0  0
    2.5113    0.2693    0.0000 C   0  0  0  0  0  0  0  0  0  0  0  0
    1.2118   -0.4815    0.0000 C   0  0  0  0  0  0  0  0  0  0  0  0
    2.5118    1.7702    0.0000 C   0  0  0  0  0  0  0  0  0  0  0  0
   -0.0873    0.2685    0.0000 C   0  0  0  0  0  0  0  0  0  0  0  0
    1.2127    2.5202    0.0000 C   0  0  0  0  0  0  0  0  0  0  0  0
   -0.0868    1.7693    0.0000 C   0  0  0  0  0  0  0  0  0  0  0  0
   -2.6849    1.7693    0.0000 C   0  0  0  0  0  0  0  0  0  0  0  0
   -1.3858    2.5193    0.0000 N   0  0  0  0  0  0  0  0  0  0  0  0
  5  4  2  0
  6  4  1  0
  7  5  1  0
  8  6  2  0
  9  7  2  0
  9  8  1  0
 10  1  1  0
 10  2  1  0
 10  3  1  0
 11  9  1  0
 11 10  1  0
M  END
>  <NAME>  (5398) 
N-TERT-BUTYLANILINE

>  <SYNONYMS>  (5398) 


>  <SPECTRUM TYPE>  (5398) 
MS1

>  <INSTRUMENT TYPE>  (5398) 
EI-B

>  <INSTRUMENT>  (5398) 
JEOL JMS-D-3000

>  <ION MODE>  (5398) 
P

>  <INCHIKEY>  (5398) 
ABRWESLGGMHKEA-UHFFFAOYSA-N

>  <FORMULA>  (5398) 
C10H15N

>  <EXACT MASS>  (5398) 
149.12044948

>  <MW>  (5398) 
149

>  <ID>  (5398) 
JP001371

>  <CONTRIBUTOR>  (5398) 
University of Tokyo Team, {Faculty of Engineering, University of Tokyo

>  <COMMENT>  (5398) 
SMILES=CC(C)(C)Nc(c1)cccc1
InChI=InChI=1S/C10H15N/c1-10(2,3)11-9-7-5-4-6-8-9/h4-8,11H,1-3H3
computed SMILES=C=1C=CC(=CC1)NC(C)(C)C
accession=JP001371
date=2016.01.19 (Created 2008.10.21, modified 2011.05.06)
author=MASS SPECTROSCOPY SOC. OF JAPAN (MSSJ)
license=CC BY-NC-SA
exact mass=149.12045
ionization energy=70 eV
ion type=[M]+*
computed spectral entropy=2.6788308723504897
computed normalized entropy=0.7418697785873564
SPLASH=splash10-000x-9500000000-c70a9949471e11cb177d
submitter=submitter = University of Tokyo Team (Faculty of Engineering, University of Tokyo)
MoNA Rating=3.75

>  <NUM PEAKS>  (5398) 
37

>  <MASS SPECTRAL PEAKS>  (5398) 
42 6.9
46 1.19
50 3.14
51 10.98
52 3.47
53 2.86
54 1.97
55 4.18
56 11.46
57 11.04
58 1.22
60 2.33
63 2.58
64 2.14
65 12.92
66 18.44
67 5.26
76 1.24
77 14.05
78 2.34
79 1.28
91 3.98
92 6.44
93 99.99
94 11.57
106 2.3
115 1.57
117 2.77
118 6.75
119 1.84
132 2.38
133 1.93
134 84.35
135 9.16
148 1.34
149 23
150 2.85

>  <PREDICTED SPECTRUM>  (5398) 
29 15
38 49
39 248
40 74
41 413
42 169
50 161
51 332
52 145
53 104
55 58
56 96
57 560
58 179
59 83
62 28
63 167
64 220
65 506
66 236
67 6
75 19
76 83
77 538
78 176
90 61
91 217
92 559
93 999
94 287
104 40
105 22
106 90
107 29
116 12
117 1
118 220
119 87
132 34
133 17
134 975
135 281
148 119
149 637
150 180

$$$$

     RDKit          2D

  9  9  0  0  0  0  0  0  0  0999 V2000
    2.2736    0.1321    0.0000 C   0  0  0  0  0  0  0  0  0  0  0  0
    0.9740   -0.6187    0.0000 C   0  0  0  0  0  0  0  0  0  0  0  0
    2.2740    1.6329    0.0000 C   0  0  0  0  0  0  0  0  0  0  0  0
   -0.3250    0.1313    0.0000 C   0  0  0  0  0  0  0  0  0  0  0  0
    0.9750    2.3829    0.0000 C   0  0  0  0  0  0  0  0  0  0  0  0
   -2.9226    1.6321    0.0000 C   0  0  0  0  0  0  0  0  0  0  0  0
   -0.3245    1.6321    0.0000 C   0  0  0  0  0  0  0  0  0  0  0  0
   -1.6236    2.3821    0.0000 N   0  0  0  0  0  0  0  0  0  0  0  0
   -4.2216    0.8821    0.0000 O   0  0  0  0  0  0  0  0  0  0  0  0
  2  1  2  0
  3  1  1  0
  4  2  1  0
  5  3  2  0
  7  4  2  0
  7  5  1  0
  8  6  2  0
  8  7  1  0
  9  6  2  0
M  END
>  <NAME>  (5399) 
PHENYL ISOCYANATE

>  <SYNONYMS>  (5399) 


>  <SPECTRUM TYPE>  (5399) 
MS1

>  <INSTRUMENT TYPE>  (5399) 
EI-B

>  <INSTRUMENT>  (5399) 
JEOL JMS-D-3000

>  <ION MODE>  (5399) 
P

>  <INCHIKEY>  (5399) 
DGTNSSLYPYDJGL-UHFFFAOYSA-N

>  <FORMULA>  (5399) 
C7H5NO

>  <EXACT MASS>  (5399) 
119.03711378

>  <MW>  (5399) 
119

>  <ID>  (5399) 
JP001370

>  <CONTRIBUTOR>  (5399) 
University of Tokyo Team, {Faculty of Engineering, University of Tokyo

>  <COMMENT>  (5399) 
SMILES=O=C=Nc(c1)cccc1
InChI=InChI=1S/C7H5NO/c9-6-8-7-4-2-1-3-5-7/h1-5H
computed SMILES=O=C=NC=1C=CC=CC1
accession=JP001370
date=2016.01.19 (Created 2008.10.21, modified 2011.05.06)
author=MASS SPECTROSCOPY SOC. OF JAPAN (MSSJ)
license=CC BY-NC-SA
exact mass=119.03711
ionization energy=70 eV
ion type=[M]+*
computed spectral entropy=1.8357772416898661
computed normalized entropy=0.6621166806906975
SPLASH=splash10-014i-9800000000-e9dab12b4b75a24bbf57
submitter=submitter = University of Tokyo Team (Faculty of Engineering, University of Tokyo)
MoNA Rating=3.75

>  <NUM PEAKS>  (5399) 
16

>  <MASS SPECTRAL PEAKS>  (5399) 
45 2.43
50 4.49
51 5.71
52 3.48
59 3.54
61 1.36
62 2.54
63 8.85
64 26.36
65 5.1
77 1.03
90 2.1
91 41.03
92 2.8
119 99.99
120 8.67

>  <PREDICTED SPECTRUM>  (5399) 
14 24
15 30
16 10
17 8
18 18
25 52
26 138
27 161
28 146
29 81
31 4
32 28
36 58
37 303
38 354
39 551
40 197
41 164
43 3
44 41
48 7
49 114
50 465
51 567
52 363
53 61
61 122
62 289
63 538
64 476
65 294
66 55
74 141
75 51
76 153
77 166
78 19
79 12
87 28
90 250
91 600
92 165
93 43
118 90
119 999
120 255
121 5

$$$$

     RDKit          2D

 30 31  0  0  0  0  0  0  0  0999 V2000
   -3.3819   -1.4421    0.0000 C   0  0  0  0  0  0  0  0  0  0  0  0
   -0.7840   -5.9430    0.0000 C   0  0  0  0  0  0  0  0  0  0  0  0
    1.8149   -1.4415    0.0000 C   0  0  0  0  0  0  0  0  0  0  0  0
    8.5918   -2.7412    0.0000 C   0  0  0  0  0  0  0  0  0  0  0  0
    9.1408   -0.6921    0.0000 C   0  0  0  0  0  0  0  0  0  0  0  0
    7.0918   -0.1431    0.0000 C   0  0  0  0  0  0  0  0  0  0  0  0
    3.7590   -0.0781    0.0000 C   0  0  0  0  0  0  0  0  0  0  0  0
    1.6458   -0.2633    0.0000 C   0  0  0  0  0  0  0  0  0  0  0  0
    1.8310   -2.3765    0.0000 C   0  0  0  0  0  0  0  0  0  0  0  0
    3.7439   -6.4227    0.0000 C   0  0  0  0  0  0  0  0  0  0  0  0
    5.2437   -7.9230    0.0000 C   0  0  0  0  0  0  0  0  0  0  0  0
    6.7439   -6.4232    0.0000 C   0  0  0  0  0  0  0  0  0  0  0  0
   -2.0833   -3.6930    0.0000 C   0  0  0  0  0  0  0  0  0  0  0  0
   -0.7833   -1.4413    0.0000 C   0  0  0  0  0  0  0  0  0  0  0  0
    5.2433   -1.4413    0.0000 C   0  0  0  0  0  0  0  0  0  0  0  0
    6.5433   -3.6930    0.0000 C   0  0  0  0  0  0  0  0  0  0  0  0
   -2.0828   -2.1921    0.0000 C   0  0  0  0  0  0  0  0  0  0  0  0
   -0.7843   -4.4430    0.0000 C   0  0  0  0  0  0  0  0  0  0  0  0
    0.5157   -2.1913    0.0000 C   0  0  0  0  0  0  0  0  0  0  0  0
    6.5428   -2.1921    0.0000 C   0  0  0  0  0  0  0  0  0  0  0  0
    3.9442   -2.1913    0.0000 C   0  0  0  0  0  0  0  0  0  0  0  0
    5.2442   -4.4430    0.0000 C   0  0  0  0  0  0  0  0  0  0  0  0
    0.5152   -3.6921    0.0000 C   0  0  0  0  0  0  0  0  0  0  0  0
    3.9447   -3.6921    0.0000 C   0  0  0  0  0  0  0  0  0  0  0  0
    7.8418   -1.4421    0.0000 C   0  0  0  0  0  0  0  0  0  0  0  0
    2.7950   -1.2273    0.0000 C   0  0  0  0  0  0  0  0  0  0  0  0
    5.2439   -6.4230    0.0000 C   0  0  0  0  0  0  0  0  0  0  0  0
    1.2658   -5.8312    0.0000 F   0  0  0  0  0  0  0  0  0  0  0  0
    3.1941   -5.8312    0.0000 O   0  0  0  0  0  0  0  0  0  0  0  0
    2.2300   -4.6821    0.0000 Si  0  0  0  0  0  4  0  0  0  0  0  0
 17  1  1  0
 17 13  2  0
 17 14  1  0
 18  2  1  0
 18 13  1  0
 19  3  1  0
 19 14  2  0
 20 15  2  0
 20 16  1  0
 21 15  1  0
 22 16  2  0
 23 18  2  0
 23 19  1  0
 24 21  2  0
 24 22  1  0
 25  4  1  0
 25  5  1  0
 25  6  1  0
 25 20  1  0
 26  7  1  0
 26  8  1  0
 26  9  1  0
 26 21  1  0
 27 10  1  0
 27 11  1  0
 27 12  1  0
 27 22  1  0
 30 23  1  0
 30 24  1  0
 30 28  1  0
 30 29  1  0
M  END
>  <NAME>  (5400) 
FLUOROMESITYL(2,4,6-TRI-TERT-BUTYLPHENYL)SILANOL

>  <SYNONYMS>  (5400) 


>  <SPECTRUM TYPE>  (5400) 
MS1

>  <INSTRUMENT TYPE>  (5400) 
EI-B

>  <INSTRUMENT>  (5400) 
JEOL JMS-D-3000

>  <ION MODE>  (5400) 
P

>  <INCHIKEY>  (5400) 
BLFNVIZZHRCALN-UHFFFAOYSA-N

>  <FORMULA>  (5400) 
C27H41FOSi

>  <EXACT MASS>  (5400) 
428.291070682

>  <MW>  (5400) 
428

>  <ID>  (5400) 
JP001369

>  <CONTRIBUTOR>  (5400) 
University of Tokyo Team, {Faculty of Engineering, University of Tokyo

>  <COMMENT>  (5400) 
SMILES=c(c1)(cc(c([Si](O)(F)c(c2C(C)(C)C)c(cc(C(C)(C)C)c2)C(C)(C)C)c1C)C)C
InChI=InChI=1S/C27H41FOSi/c1-17-13-18(2)23(19(3)14-17)30(28,29)24-21(26(7,8)9)15-20(25(4,5)6)16-22(24)27(10,11)12/h13-16,29H,1-12H3
computed SMILES=F[Si](O)(C=1C(=CC(=CC1C)C)C)C=2C(=CC(=CC2C(C)(C)C)C(C)(C)C)C(C)(C)C
accession=JP001369
date=2016.01.19 (Created 2008.10.21, modified 2011.05.06)
author=MASS SPECTROSCOPY SOC. OF JAPAN (MSSJ)
license=CC BY-NC-SA
exact mass=428.29107
ionization energy=70 eV
ion type=[M]+*
computed spectral entropy=3.42278031985205
computed normalized entropy=0.7606500209154033
SPLASH=splash10-053r-5961000000-871c4ef79fa96d2072d8
submitter=submitter = University of Tokyo Team (Faculty of Engineering, University of Tokyo)
MoNA Rating=3.75

>  <NUM PEAKS>  (5400) 
90

>  <MASS SPECTRAL PEAKS>  (5400) 
43 1.47
51 1.47
53 1.86
55 3.37
56 1.82
57 99.99
58 4.92
59 1.16
63 1.31
65 2.13
73 1.08
77 4.49
78 1.55
79 4.49
91 6.43
92 1.12
93 1.27
94 2.09
103 2.79
104 1.51
105 16.43
106 2.09
108 3.21
115 2.63
116 1.74
117 3.68
118 3.44
119 46.55
120 15.85
121 2.05
128 2.01
129 2.44
130 1.35
131 2.28
133 1.04
139 1.12
141 1.58
142 1.2
143 1.66
145 1.35
155 1.2
157 1.08
159 1.62
163 1.08
165 1.78
173 2.01
175 22.71
176 3.72
177 1.2
178 1.12
179 1.12
181 2.17
182 13.06
183 48.56
184 8.13
185 2.71
187 1.55
189 1.24
190 17.17
191 2.82
199 1.47
203 2.24
215 2.48
219 1.16
221 1
229 7.44
231 95.93
232 18.87
233 2.71
237 5.77
238 1.58
244 2.9
245 1.35
246 24.26
247 5.5
259 1.04
275 2.67
293 10.73
294 2.67
295 1
308 1.27
315 5.38
316 1.62
355 1
357 11.55
358 3.64
371 3.25
372 6.16
373 2.09
428 1.47

>  <PREDICTED SPECTRUM>  (5400) 
29 76
39 98
40 36
41 485
42 17
43 156
44 64
50 4
51 79
53 110
55 215
56 42
57 999
58 176
60 16
63 27
65 98
66 11
67 13
69 37
70 23
71 53
73 2
77 257
78 85
79 92
81 29
82 41
83 59
91 411
92 90
93 13
94 48
97 40
101 79
102 32
103 92
104 53
105 305
106 55
108 3
113 23
115 210
116 70
117 371
118 215
119 775
120 477
121 122
122 49
127 23
128 99
129 89
130 0
131 114
132 90
133 4
137 25
139 14
141 88
142 38
143 53
145 5
148 64
149 59
150 23
155 95
157 12
165 16
167 32
168 27
169 25
175 361
176 114
177 42
179 6
180 2
181 90
182 97
183 162
184 93
187 4
190 83
191 117
192 46
198 25
203 72
204 70
207 57
209 55
211 28
217 44
218 13
219 12
223 79
224 59
231 848
232 625
233 55
245 49
246 432
247 310
248 8
259 20
260 38
261 76
262 50
263 6
275 65
294 10
295 54
309 20
315 203
316 46
336 2
357 299
358 143
371 122
372 186
373 130
428 90

$$$$

     RDKit          2D

 30 31  0  0  0  0  0  0  0  0999 V2000
   -3.3819   -1.4421    0.0000 C   0  0  0  0  0  0  0  0  0  0  0  0
   -0.7840   -5.9430    0.0000 C   0  0  0  0  0  0  0  0  0  0  0  0
    1.8149   -1.4415    0.0000 C   0  0  0  0  0  0  0  0  0  0  0  0
    8.5918   -2.7412    0.0000 C   0  0  0  0  0  0  0  0  0  0  0  0
    9.1408   -0.6921    0.0000 C   0  0  0  0  0  0  0  0  0  0  0  0
    7.0918   -0.1431    0.0000 C   0  0  0  0  0  0  0  0  0  0  0  0
    3.7590   -0.0781    0.0000 C   0  0  0  0  0  0  0  0  0  0  0  0
    1.6458   -0.2633    0.0000 C   0  0  0  0  0  0  0  0  0  0  0  0
    1.8310   -2.3765    0.0000 C   0  0  0  0  0  0  0  0  0  0  0  0
    3.7439   -6.4227    0.0000 C   0  0  0  0  0  0  0  0  0  0  0  0
    5.2437   -7.9230    0.0000 C   0  0  0  0  0  0  0  0  0  0  0  0
    6.7439   -6.4232    0.0000 C   0  0  0  0  0  0  0  0  0  0  0  0
   -2.0833   -3.6930    0.0000 C   0  0  0  0  0  0  0  0  0  0  0  0
   -0.7833   -1.4413    0.0000 C   0  0  0  0  0  0  0  0  0  0  0  0
    5.2433   -1.4413    0.0000 C   0  0  0  0  0  0  0  0  0  0  0  0
    6.5433   -3.6930    0.0000 C   0  0  0  0  0  0  0  0  0  0  0  0
   -2.0828   -2.1921    0.0000 C   0  0  0  0  0  0  0  0  0  0  0  0
   -0.7843   -4.4430    0.0000 C   0  0  0  0  0  0  0  0  0  0  0  0
    0.5157   -2.1913    0.0000 C   0  0  0  0  0  0  0  0  0  0  0  0
    6.5428   -2.1921    0.0000 C   0  0  0  0  0  0  0  0  0  0  0  0
    3.9442   -2.1913    0.0000 C   0  0  0  0  0  0  0  0  0  0  0  0
    5.2442   -4.4430    0.0000 C   0  0  0  0  0  0  0  0  0  0  0  0
    0.5152   -3.6921    0.0000 C   0  0  0  0  0  0  0  0  0  0  0  0
    3.9447   -3.6921    0.0000 C   0  0  0  0  0  0  0  0  0  0  0  0
    7.8418   -1.4421    0.0000 C   0  0  0  0  0  0  0  0  0  0  0  0
    2.7950   -1.2273    0.0000 C   0  0  0  0  0  0  0  0  0  0  0  0
    5.2439   -6.4230    0.0000 C   0  0  0  0  0  0  0  0  0  0  0  0
    1.2658   -5.8312    0.0000 F   0  0  0  0  0  0  0  0  0  0  0  0
    3.1941   -5.8312    0.0000 F   0  0  0  0  0  0  0  0  0  0  0  0
    2.2300   -4.6821    0.0000 Si  0  0  0  0  0  4  0  0  0  0  0  0
 17  1  1  0
 17 13  2  0
 17 14  1  0
 18  2  1  0
 18 13  1  0
 19  3  1  0
 19 14  2  0
 20 15  2  0
 20 16  1  0
 21 15  1  0
 22 16  2  0
 23 18  2  0
 23 19  1  0
 24 21  2  0
 24 22  1  0
 25  4  1  0
 25  5  1  0
 25  6  1  0
 25 20  1  0
 26  7  1  0
 26  8  1  0
 26  9  1  0
 26 21  1  0
 27 10  1  0
 27 11  1  0
 27 12  1  0
 27 22  1  0
 30 23  1  0
 30 24  1  0
 30 28  1  0
 30 29  1  0
M  END
>  <NAME>  (5401) 
DIFLUOROMESITYL(2,4,6-TRI-TERT-BUTYLPHENYL)SILANE

>  <SYNONYMS>  (5401) 


>  <SPECTRUM TYPE>  (5401) 
MS1

>  <INSTRUMENT TYPE>  (5401) 
EI-B

>  <INSTRUMENT>  (5401) 
JEOL JMS-D-3000

>  <ION MODE>  (5401) 
P

>  <INCHIKEY>  (5401) 
JGNYTBUXBLOFHF-UHFFFAOYSA-N

>  <FORMULA>  (5401) 
C27H40F2Si

>  <EXACT MASS>  (5401) 
430.28673425

>  <MW>  (5401) 
430

>  <ID>  (5401) 
JP001368

>  <CONTRIBUTOR>  (5401) 
University of Tokyo Team, {Faculty of Engineering, University of Tokyo

>  <COMMENT>  (5401) 
SMILES=c(c1)(cc(C)c([Si](F)(F)c(c2C(C)(C)C)c(cc(C(C)(C)C)c2)C(C)(C)C)c1C)C
InChI=InChI=1S/C27H40F2Si/c1-17-13-18(2)23(19(3)14-17)30(28,29)24-21(26(7,8)9)15-20(25(4,5)6)16-22(24)27(10,11)12/h13-16H,1-12H3
computed SMILES=F[Si](F)(C=1C(=CC(=CC1C)C)C)C=2C(=CC(=CC2C(C)(C)C)C(C)(C)C)C(C)(C)C
accession=JP001368
date=2016.01.19 (Created 2008.10.21, modified 2011.05.06)
author=MASS SPECTROSCOPY SOC. OF JAPAN (MSSJ)
license=CC BY-NC-SA
exact mass=430.28673
ionization energy=70 eV
ion type=[M]+*
computed spectral entropy=2.3868446931522076
computed normalized entropy=0.6713392477675747
SPLASH=splash10-0a4i-9217000000-3bebf9cec4bc784a2b77
submitter=submitter = University of Tokyo Team (Faculty of Engineering, University of Tokyo)
MoNA Rating=3.75

>  <NUM PEAKS>  (5401) 
35

>  <MASS SPECTRAL PEAKS>  (5401) 
43 1.36
55 2.25
57 99.99
58 4.46
77 1.06
91 2.5
105 2.36
115 1.11
117 1.41
118 1.03
119 15.75
120 6.53
129 1.31
131 1.15
143 1.06
175 1.09
185 2.32
189 1
200 1.01
229 1.26
231 3.89
239 3.48
261 1.12
295 4.07
303 1.6
315 1.22
317 7.89
318 2.87
359 47.12
360 14.22
361 3.68
373 6.42
374 8.18
375 2.37
430 1.85

>  <PREDICTED SPECTRUM>  (5401) 
41 321
51 17
53 46
55 186
56 46
57 837
58 117
65 34
69 40
71 3
77 198
78 55
79 18
84 17
85 37
91 372
92 74
93 19
103 4
104 22
105 261
106 31
115 144
116 28
117 151
118 72
119 545
120 268
121 49
122 4
128 79
129 82
130 42
131 91
132 15
143 66
144 7
145 55
150 56
157 8
169 12
175 68
177 38
178 34
183 29
184 2
185 81
193 24
206 14
209 49
213 9
231 661
232 160
246 58
249 17
303 122
315 1
316 47
317 212
318 123
331 2
344 75
357 26
359 999
360 411
361 194
373 187
374 303
375 222
415 14
430 152
431 0

$$$$

     RDKit          2D

 26 26  0  0  0  0  0  0  0  0999 V2000
    3.9976    0.7860    0.0000 C   0  0  0  0  0  0  0  0  0  0  0  0
    4.5466    2.8350    0.0000 C   0  0  0  0  0  0  0  0  0  0  0  0
    2.4976    3.3840    0.0000 C   0  0  0  0  0  0  0  0  0  0  0  0
   -1.1994    3.3848    0.0000 C   0  0  0  0  0  0  0  0  0  0  0  0
   -3.2483    2.8354    0.0000 C   0  0  0  0  0  0  0  0  0  0  0  0
   -2.6990    0.7865    0.0000 C   0  0  0  0  0  0  0  0  0  0  0  0
   -0.8502   -2.4156    0.0000 C   0  0  0  0  0  0  0  0  0  0  0  0
    0.6495   -3.9158    0.0000 C   0  0  0  0  0  0  0  0  0  0  0  0
    2.1498   -2.4161    0.0000 C   0  0  0  0  0  0  0  0  0  0  0  0
   -4.2799   -3.3750    0.0000 C   0  0  0  0  0  0  0  0  0  0  0  0
   -2.7799   -4.8750    0.0000 C   0  0  0  0  0  0  0  0  0  0  0  0
   -1.2799   -3.3750    0.0000 C   0  0  0  0  0  0  0  0  0  0  0  0
    0.6490    2.0858    0.0000 C   0  0  0  0  0  0  0  0  0  0  0  0
    1.9490   -0.1658    0.0000 C   0  0  0  0  0  0  0  0  0  0  0  0
   -5.3780   -1.3950    0.0000 C   0  0  0  0  0  0  0  0  0  0  0  0
    1.9486    1.3350    0.0000 C   0  0  0  0  0  0  0  0  0  0  0  0
   -0.6500    1.3358    0.0000 C   0  0  0  0  0  0  0  0  0  0  0  0
    0.6500   -0.9158    0.0000 C   0  0  0  0  0  0  0  0  0  0  0  0
   -0.6495   -0.1650    0.0000 C   0  0  0  0  0  0  0  0  0  0  0  0
    3.2476    2.0850    0.0000 C   0  0  0  0  0  0  0  0  0  0  0  0
   -1.9492    2.0856    0.0000 C   0  0  0  0  0  0  0  0  0  0  0  0
    0.6498   -2.4158    0.0000 C   0  0  0  0  0  0  0  0  0  0  0  0
   -2.7799   -3.3750    0.0000 C   0  0  0  0  0  0  0  0  0  0  0  0
   -6.6771   -0.6450    0.0000 F   0  0  0  0  0  0  0  0  0  0  0  0
   -4.0790   -0.6450    0.0000 O   0  0  0  0  0  0  0  0  0  0  0  0
   -2.7799   -1.3950    0.0000 Si  0  0  0  0  0  4  0  0  0  0  0  0
 16 13  2  0
 16 14  1  0
 17 13  1  0
 18 14  2  0
 19 17  2  0
 19 18  1  0
 20  1  1  0
 20  2  1  0
 20  3  1  0
 20 16  1  0
 21  4  1  0
 21  5  1  0
 21  6  1  0
 21 17  1  0
 22  7  1  0
 22  8  1  0
 22  9  1  0
 22 18  1  0
 23 10  1  0
 23 11  1  0
 23 12  1  0
 24 15  1  0
 25 15  1  0
 26 19  1  0
 26 23  1  0
 26 25  1  0
M  END
>  <NAME>  (5402) 
TERT-BUTYLFLUOROMETHOXY(2,4,6-TRI-TERT-BUTYLPHENYL)SILANE

>  <SYNONYMS>  (5402) 


>  <SPECTRUM TYPE>  (5402) 
MS1

>  <INSTRUMENT TYPE>  (5402) 
EI-B

>  <INSTRUMENT>  (5402) 
JEOL JMS-D-3000

>  <ION MODE>  (5402) 
P

>  <INCHIKEY>  (5402) 
DMIAYICLLVFFMQ-UHFFFAOYSA-N

>  <FORMULA>  (5402) 
C23H41FOSi

>  <EXACT MASS>  (5402) 
380.291070682

>  <MW>  (5402) 
380

>  <ID>  (5402) 
JP001367

>  <CONTRIBUTOR>  (5402) 
University of Tokyo Team, {Faculty of Engineering, University of Tokyo

>  <COMMENT>  (5402) 
SMILES=FCO[SiH](C(C)(C)C)c(c1C(C)(C)C)c(cc(C(C)(C)C)c1)C(C)(C)C
InChI=InChI=1S/C23H41FOSi/c1-20(2,3)16-13-17(21(4,5)6)19(18(14-16)22(7,8)9)26(25-15-24)23(10,11)12/h13-14,26H,15H2,1-12H3
computed SMILES=FCO[SiH](C=1C(=CC(=CC1C(C)(C)C)C(C)(C)C)C(C)(C)C)C(C)(C)C
accession=JP001367
date=2016.01.19 (Created 2008.10.21, modified 2011.05.06)
author=MASS SPECTROSCOPY SOC. OF JAPAN (MSSJ)
license=CC BY-NC-SA
exact mass=380.29107
ionization energy=70 eV
ion type=[M]+*
computed spectral entropy=2.9581466231611495
computed normalized entropy=0.7381833469855448
SPLASH=splash10-052f-9171000000-262e0ac31bdfb4c5460e
submitter=submitter = University of Tokyo Team (Faculty of Engineering, University of Tokyo)
MoNA Rating=3.75

>  <NUM PEAKS>  (5402) 
55

>  <MASS SPECTRAL PEAKS>  (5402) 
43 2.13
44 1.69
55 3.81
56 2.65
57 99.99
58 4.68
59 1.15
63 6.81
77 27.67
78 2.42
79 3.46
91 2.6
93 71.51
94 5.61
95 2.88
105 1.74
115 1.75
117 1.61
119 1.4
128 2.37
129 2.28
131 2.49
135 1.98
141 1.43
142 1.19
143 1.72
155 1.32
157 1.54
159 1.43
173 2.74
175 1.6
199 1.44
211 3.24
215 3.57
229 3.38
231 8.31
232 1.61
235 3.81
251 1.59
253 7.42
267 47.52
268 14.28
269 3.86
271 3.89
272 1.11
275 1.12
291 70.7
292 18.2
293 5.14
309 7.65
310 1.91
323 15.14
324 11.26
325 3.12
380 1.21

>  <PREDICTED SPECTRUM>  (5402) 
29 61
39 28
41 352
43 77
45 19
55 209
57 999
58 138
59 2
65 41
73 10
77 190
79 13
81 1
91 163
93 129
101 75
103 36
105 112
115 63
119 43
128 3
129 117
131 13
143 40
153 0
155 140
156 72
157 125
159 39
169 70
171 83
173 23
179 2
181 77
183 78
184 37
185 20
193 47
197 43
199 95
200 26
201 7
211 188
213 68
229 23
231 386
232 69
233 1
235 131
251 175
252 92
253 199
266 60
267 771
268 300
269 139
271 57
290 112
291 849
292 502
293 135
305 131
308 9
309 275
310 38
323 394
324 359
325 134
380 88
381 74

$$$$

     RDKit          2D

 11 10  0  0  0  0  0  0  0  0999 V2000
   -3.1974   -0.2880    0.0000 C   0  0  0  0  0  0  0  0  0  0  0  0
    0.1507    1.4130    0.0000 C   0  0  0  0  0  0  0  0  0  0  0  0
    0.6998    3.4620    0.0000 C   0  0  0  0  0  0  0  0  0  0  0  0
   -1.3493    4.0111    0.0000 C   0  0  0  0  0  0  0  0  0  0  0  0
   -2.4474    4.0111    0.0000 C   0  0  0  0  0  0  0  0  0  0  0  0
   -4.4964    3.4620    0.0000 C   0  0  0  0  0  0  0  0  0  0  0  0
   -3.9474    1.4130    0.0000 C   0  0  0  0  0  0  0  0  0  0  0  0
   -1.8983    0.4620    0.0000 C   0  0  0  0  0  0  0  0  0  0  0  0
   -1.8983    1.9620    0.0000 C   0  0  0  0  0  0  0  0  0  0  0  0
   -0.5993    2.7120    0.0000 Si  0  0  0  0  0  4  0  0  0  0  0  0
   -3.1974    2.7120    0.0000 Si  0  0  0  0  0  4  0  0  0  0  0  0
  8  1  1  0
  9  8  2  3
 10  2  1  0
 10  3  1  0
 10  4  1  0
 10  9  1  0
 11  5  1  0
 11  6  1  0
 11  7  1  0
 11  9  1  0
M  END
>  <NAME>  (5403) 
1,1-BIS(TRIMETHYLSILYL)PROPENE

>  <SYNONYMS>  (5403) 


>  <SPECTRUM TYPE>  (5403) 
MS1

>  <INSTRUMENT TYPE>  (5403) 
EI-B

>  <INSTRUMENT>  (5403) 
JEOL JMS-D-3000

>  <ION MODE>  (5403) 
P

>  <INCHIKEY>  (5403) 
XSBNQCZGJKAOHO-UHFFFAOYSA-N

>  <FORMULA>  (5403) 
C9H22Si2

>  <EXACT MASS>  (5403) 
186.126003764

>  <MW>  (5403) 
186

>  <ID>  (5403) 
JP001366

>  <CONTRIBUTOR>  (5403) 
University of Tokyo Team, {Faculty of Engineering, University of Tokyo

>  <COMMENT>  (5403) 
SMILES=CC=C([Si](C)(C)C)[Si](C)(C)C
InChI=InChI=1S/C9H22Si2/c1-8-9(10(2,3)4)11(5,6)7/h8H,1-7H3
computed SMILES=C(=C([Si](C)(C)C)[Si](C)(C)C)C
ionization energy=70 eV
ion type=[M]+*
accession=JP001366
date=2016.01.19 (Created 2008.10.21, modified 2011.05.06)
author=MASS SPECTROSCOPY SOC. OF JAPAN (MSSJ)
license=CC BY-NC-SA
exact mass=186.126
computed spectral entropy=2.243480427789921
computed normalized entropy=0.6969763823933104
SPLASH=splash10-00dj-9100000000-2eabad8f4588931e5ab0
submitter=submitter = University of Tokyo Team (Faculty of Engineering, University of Tokyo)
MoNA Rating=3.75

>  <NUM PEAKS>  (5403) 
25

>  <MASS SPECTRAL PEAKS>  (5403) 
43 5.76
45 16.03
46 1.3
55 1.32
58 2.17
59 4.95
67 1.45
69 1.96
72 1.51
73 99.99
74 7.44
75 3.21
83 7.39
85 2.42
97 55.44
98 13.23
99 4.3
100 1.64
113 2.97
155 1.13
171 23.48
172 4.62
173 2.29
186 8.39
187 1.71

>  <PREDICTED SPECTRUM>  (5403) 
29 38
31 77
43 184
44 64
45 353
46 39
53 86
54 36
55 153
56 28
57 80
58 65
59 338
66 25
67 100
68 35
69 101
70 2
71 31
72 49
73 999
74 308
75 174
79 49
80 19
81 86
82 18
83 387
84 102
85 93
96 9
97 432
98 398
99 263
100 50
111 20
112 203
113 90
155 181
169 1
171 312
172 158
173 72
186 366
187 130
188 93
189 18

$$$$

     RDKit          2D

  7  6  0  0  0  0  0  0  0  0999 V2000
   -2.5111    2.0993    0.0000 C   0  0  0  0  0  0  0  0  0  0  0  0
   -1.2120   -0.1507    0.0000 C   0  0  0  0  0  0  0  0  0  0  0  0
    0.8370    0.8002    0.0000 C   0  0  0  0  0  0  0  0  0  0  0  0
    1.3861    2.8493    0.0000 C   0  0  0  0  0  0  0  0  0  0  0  0
   -0.6630    3.3983    0.0000 C   0  0  0  0  0  0  0  0  0  0  0  0
   -1.2120    1.3493    0.0000 C   0  0  0  0  0  0  0  0  0  0  0  0
    0.0870    2.0993    0.0000 Si  0  0  0  0  0  4  0  0  0  0  0  0
  6  1  2  0
  6  2  1  0
  7  3  1  0
  7  4  1  0
  7  5  1  0
  7  6  1  0
M  END
>  <NAME>  (5404) 
2-TRIMETHYLSILYLPROPENE

>  <SYNONYMS>  (5404) 


>  <SPECTRUM TYPE>  (5404) 
MS1

>  <INSTRUMENT TYPE>  (5404) 
EI-B

>  <INSTRUMENT>  (5404) 
JEOL JMS-D-3000

>  <ION MODE>  (5404) 
P

>  <INCHIKEY>  (5404) 
IIWSLXWOGWUDPL-UHFFFAOYSA-N

>  <FORMULA>  (5404) 
C6H14Si

>  <EXACT MASS>  (5404) 
114.086476978

>  <MW>  (5404) 
114

>  <ID>  (5404) 
JP001365

>  <CONTRIBUTOR>  (5404) 
University of Tokyo Team, {Faculty of Engineering, University of Tokyo

>  <COMMENT>  (5404) 
SMILES=CC(=C)[Si](C)(C)C
InChI=InChI=1S/C6H14Si/c1-6(2)7(3,4)5/h1H2,2-5H3
computed SMILES=C=C(C)[Si](C)(C)C
accession=JP001365
date=2016.01.19 (Created 2008.10.21, modified 2011.05.06)
author=MASS SPECTROSCOPY SOC. OF JAPAN (MSSJ)
license=CC BY-NC-SA
exact mass=114.08648
ionization energy=70 eV
ion type=[M]+*
computed spectral entropy=2.1890765606242675
computed normalized entropy=0.7082000954874973
SPLASH=splash10-05fs-9000000000-903eb7e64c5f69f32155
submitter=submitter = University of Tokyo Team (Faculty of Engineering, University of Tokyo)
MoNA Rating=3.75

>  <NUM PEAKS>  (5404) 
22

>  <MASS SPECTRAL PEAKS>  (5404) 
42 1.57
43 12.99
45 50.24
46 1.34
53 1.69
55 2.54
57 1.16
58 2.53
59 71.34
60 3.39
67 1.3
72 4.89
73 99.99
74 37.56
75 4.84
83 1.33
86 9.68
99 55.44
100 6.27
101 2.23
114 8.51
115 1.08

>  <PREDICTED SPECTRUM>  (5404) 
27 23
31 193
39 64
42 14
43 474
44 177
45 304
46 8
53 103
55 50
57 59
58 271
59 683
60 106
61 59
69 39
71 117
72 289
73 999
74 210
75 324
76 5
83 47
97 100
99 994
100 223
101 73
113 94
114 342
115 190
116 53

$$$$

     RDKit          2D

 23 25  0  0  0  0  0  0  0  0999 V2000
   -2.5522    1.1725    0.0000 C   0  0  0  0  0  0  0  0  0  0  0  0
   -2.9695   -0.7911    0.0000 C   0  0  0  0  0  0  0  0  0  0  0  0
    0.4314   -2.7546    0.0000 C   0  0  0  0  0  0  0  0  0  0  0  0
    1.9232   -1.4114    0.0000 C   0  0  0  0  0  0  0  0  0  0  0  0
   -2.4870   -1.8749    0.0000 C   0  0  0  0  0  0  0  0  0  0  0  0
   -0.7485   -2.8786    0.0000 C   0  0  0  0  0  0  0  0  0  0  0  0
   -1.0262    5.4380    0.0000 C   0  0  0  0  0  0  0  0  0  0  0  0
    4.8542    2.0430    0.0000 C   0  0  0  0  0  0  0  0  0  0  0  0
   -2.2406    4.5562    0.0000 C   0  0  0  0  0  0  0  0  0  0  0  0
    0.3451    4.8280    0.0000 C   0  0  0  0  0  0  0  0  0  0  0  0
    3.6403    2.9255    0.0000 C   0  0  0  0  0  0  0  0  0  0  0  0
    4.6978    0.5503    0.0000 C   0  0  0  0  0  0  0  0  0  0  0  0
   -2.0838    3.0644    0.0000 C   0  0  0  0  0  0  0  0  0  0  0  0
    0.5019    3.3362    0.0000 C   0  0  0  0  0  0  0  0  0  0  0  0
    2.2700    2.3154    0.0000 C   0  0  0  0  0  0  0  0  0  0  0  0
    3.3275   -0.0598    0.0000 C   0  0  0  0  0  0  0  0  0  0  0  0
   -0.7126    2.4544    0.0000 C   0  0  0  0  0  0  0  0  0  0  0  0
    2.1136    0.8227    0.0000 C   0  0  0  0  0  0  0  0  0  0  0  0
   -0.5558    0.9626    0.0000 C   0  0  0  0  0  0  0  0  0  0  0  0
    0.7433    0.2126    0.0000 C   0  0  0  0  0  0  0  0  0  0  0  0
   -1.6705   -0.0411    0.0000 Si  0  0  0  0  0  4  0  0  0  0  0  0
    0.4314   -1.2546    0.0000 Si  0  0  0  0  0  4  0  0  0  0  0  0
   -1.0604   -1.4114    0.0000 Si  0  0  0  0  0  4  0  0  0  0  0  0
  9  7  2  0
 10  7  1  0
 11  8  2  0
 12  8  1  0
 13  9  1  0
 14 10  2  0
 15 11  1  0
 16 12  2  0
 17 13  2  0
 17 14  1  0
 18 15  2  0
 18 16  1  0
 19 17  1  0
 20 18  1  0
 20 19  2  0
 21  1  1  0
 21  2  1  0
 21 19  1  0
 22  3  1  0
 22  4  1  0
 22 20  1  0
 23  5  1  0
 23  6  1  0
 23 21  1  0
 23 22  1  0
M  END
>  <NAME>  (5405) 
1,1,2,2,3,3-HEXAMETHYL-4,5-DIPHENYL-1,2,3-TRISILACYCLOPENT-4-ENE

>  <SYNONYMS>  (5405) 


>  <SPECTRUM TYPE>  (5405) 
MS1

>  <INSTRUMENT TYPE>  (5405) 
EI-B

>  <INSTRUMENT>  (5405) 
JEOL JMS-D-3000

>  <ION MODE>  (5405) 
P

>  <INCHIKEY>  (5405) 
YSFSRQJKMIFGKF-UHFFFAOYSA-N

>  <FORMULA>  (5405) 
C20H28Si3

>  <EXACT MASS>  (5405) 
352.149880486

>  <MW>  (5405) 
352

>  <ID>  (5405) 
JP001364

>  <CONTRIBUTOR>  (5405) 
University of Tokyo Team, {Faculty of Engineering, University of Tokyo

>  <COMMENT>  (5405) 
SMILES=c(c3)ccc(c3)C(=C(c(c2)cccc2)1)[Si](C)(C)[Si](C)(C)[Si](C)(C)1
InChI=InChI=1S/C20H28Si3/c1-21(2)19(17-13-9-7-10-14-17)20(18-15-11-8-12-16-18)22(3,4)23(21,5)6/h7-16H,1-6H3
computed SMILES=C=1C=CC(=CC1)C2=C(C=3C=CC=CC3)[Si](C)(C)[Si](C)(C)[Si]2(C)C
accession=JP001364
date=2016.01.19 (Created 2008.10.21, modified 2011.05.06)
author=MASS SPECTROSCOPY SOC. OF JAPAN (MSSJ)
license=CC BY-NC-SA
exact mass=352.14988
ionization energy=70 eV
ion type=[M]+*
computed spectral entropy=3.5741742386337343
computed normalized entropy=0.8110737349225564
SPLASH=splash10-00di-6932000000-f0fead2e3cb18e0bf037
submitter=submitter = University of Tokyo Team (Faculty of Engineering, University of Tokyo)
MoNA Rating=3.75

>  <NUM PEAKS>  (5405) 
82

>  <MASS SPECTRAL PEAKS>  (5405) 
40 4.81
44 2.8
45 8.06
58 1.36
59 11.76
60 1.06
73 99.99
74 6.64
75 3.33
76 1
77 1
85 1.8
99 4.07
100 1.84
101 5.1
102 1.27
105 5.85
107 1.15
113 1.51
114 1.16
115 5.76
116 23.19
117 6.32
118 2.29
119 1.31
129 5.95
130 1.16
131 4.91
133 1.4
135 25.62
136 3.04
140 1.2
143 1.06
145 2.88
147 1.41
157 1.51
159 9.02
160 1.87
161 1.49
163 7.19
164 1.32
165 1.15
174 5.6
175 2.71
176 2.63
177 4.81
178 25.76
179 5.24
180 1.78
187 1.45
191 2.5
193 2.37
197 5.55
198 1.13
202 4.99
203 1.48
204 1.08
207 1.35
217 7.96
218 1.94
219 1.43
221 3.04
233 1.38
263 2.37
264 2.57
265 1.18
277 2.49
278 1.77
279 12.84
280 3.88
281 1.28
293 3.94
294 1.54
295 5.94
296 1.68
310 2.04
337 5.15
338 1.86
352 31.6
353 12.67
354 5.49
355 1.45

>  <PREDICTED SPECTRUM>  (5405) 
18 9
26 2
27 41
29 100
31 50
32 13
39 59
41 139
43 439
44 95
45 280
46 65
47 33
51 86
52 20
53 91
55 99
56 12
57 155
58 203
59 385
60 75
61 104
62 5
63 48
64 12
65 97
66 43
67 62
69 19
71 49
72 48
73 999
74 303
75 312
76 64
77 212
78 73
79 43
81 5
83 29
85 94
86 59
87 103
89 98
90 7
91 179
92 73
93 109
95 51
97 66
99 150
100 27
101 125
102 105
103 198
104 21
105 153
106 4
107 53
113 72
114 22
115 221
116 367
117 239
118 125
119 165
120 57
121 115
123 12
126 53
127 6
128 77
129 365
130 109
131 236
132 81
133 107
135 592
136 118
137 23
139 8
140 18
141 75
142 20
143 131
144 51
145 301
146 131
147 169
148 91
149 86
150 32
151 114
152 95
157 155
158 27
159 166
160 31
161 87
162 6
163 95
164 21
165 48
169 28
173 11
174 74
175 102
176 161
177 245
178 538
179 175
180 15
187 47
188 16
189 93
191 105
192 34
193 140
194 26
195 8
197 38
201 27
202 115
203 162
204 51
205 103
206 41
207 133
208 8
217 283
218 90
219 178
220 6
221 185
222 28
223 36
233 30
235 88
236 54
245 16
247 19
249 21
261 78
263 125
264 192
265 126
266 10
275 41
276 52
277 194
278 135
279 356
280 298
281 204
282 45
293 136
294 198
295 260
296 102
297 7
321 20
337 288
338 211
339 122
340 16
352 700
353 431
354 242
355 153
356 7

$$$$

     RDKit          2D

 21 23  0  0  0  0  0  0  0  0999 V2000
   -2.3778    0.8705    0.0000 C   0  0  0  0  0  0  0  0  0  0  0  0
   -2.7952   -1.0930    0.0000 C   0  0  0  0  0  0  0  0  0  0  0  0
    0.6057   -3.0565    0.0000 C   0  0  0  0  0  0  0  0  0  0  0  0
    2.0975   -1.7133    0.0000 C   0  0  0  0  0  0  0  0  0  0  0  0
   -0.8518    5.1360    0.0000 C   0  0  0  0  0  0  0  0  0  0  0  0
    5.0286    1.7410    0.0000 C   0  0  0  0  0  0  0  0  0  0  0  0
   -2.0663    4.2542    0.0000 C   0  0  0  0  0  0  0  0  0  0  0  0
    0.5195    4.5260    0.0000 C   0  0  0  0  0  0  0  0  0  0  0  0
    3.8146    2.6235    0.0000 C   0  0  0  0  0  0  0  0  0  0  0  0
    4.8721    0.2483    0.0000 C   0  0  0  0  0  0  0  0  0  0  0  0
   -1.9095    2.7625    0.0000 C   0  0  0  0  0  0  0  0  0  0  0  0
    0.6762    3.0342    0.0000 C   0  0  0  0  0  0  0  0  0  0  0  0
    2.4443    2.0134    0.0000 C   0  0  0  0  0  0  0  0  0  0  0  0
    3.5018   -0.3618    0.0000 C   0  0  0  0  0  0  0  0  0  0  0  0
   -0.5382    2.1525    0.0000 C   0  0  0  0  0  0  0  0  0  0  0  0
    2.2879    0.5208    0.0000 C   0  0  0  0  0  0  0  0  0  0  0  0
   -0.3814    0.6607    0.0000 C   0  0  0  0  0  0  0  0  0  0  0  0
    0.9176   -0.0893    0.0000 C   0  0  0  0  0  0  0  0  0  0  0  0
   -0.8861   -1.7133    0.0000 O   0  0  0  0  0  0  0  0  0  0  0  0
   -1.4962   -0.3430    0.0000 Si  0  0  0  0  0  4  0  0  0  0  0  0
    0.6057   -1.5565    0.0000 Si  0  0  0  0  0  4  0  0  0  0  0  0
  7  5  2  0
  8  5  1  0
  9  6  2  0
 10  6  1  0
 11  7  1  0
 12  8  2  0
 13  9  1  0
 14 10  2  0
 15 11  2  0
 15 12  1  0
 16 13  2  0
 16 14  1  0
 17 15  1  0
 18 16  1  0
 18 17  2  0
 20  1  1  0
 20  2  1  0
 20 17  1  0
 20 19  1  0
 21  3  1  0
 21  4  1  0
 21 18  1  0
 21 19  1  0
M  END
>  <NAME>  (5406) 
2,2,5,5-TETRAMETHYL-3,4-DIPHENYL-1-OXA-2,5-DISILACYCLOPENT-3-ENE

>  <SYNONYMS>  (5406) 


>  <SPECTRUM TYPE>  (5406) 
MS1

>  <INSTRUMENT TYPE>  (5406) 
EI-B

>  <INSTRUMENT>  (5406) 
JEOL JMS-D-3000

>  <ION MODE>  (5406) 
P

>  <INCHIKEY>  (5406) 
KYNANOAHFJKIQU-UHFFFAOYSA-N

>  <FORMULA>  (5406) 
C18H22OSi2

>  <EXACT MASS>  (5406) 
310.12091838399994

>  <MW>  (5406) 
310

>  <ID>  (5406) 
JP001363

>  <CONTRIBUTOR>  (5406) 
University of Tokyo Team, {Faculty of Engineering, University of Tokyo

>  <COMMENT>  (5406) 
SMILES=c(c3)ccc(c3)C([Si](C)(C)1)=C(c(c2)cccc2)[Si](C)(C)O1
InChI=InChI=1S/C18H22OSi2/c1-20(2)17(15-11-7-5-8-12-15)18(21(3,4)19-20)16-13-9-6-10-14-16/h5-14H,1-4H3
computed SMILES=O1[Si](C(C=2C=CC=CC2)=C(C=3C=CC=CC3)[Si]1(C)C)(C)C
accession=JP001363
date=2016.01.19 (Created 2008.10.21, modified 2011.05.06)
author=MASS SPECTROSCOPY SOC. OF JAPAN (MSSJ)
license=CC BY-NC-SA
exact mass=310.12092
ionization energy=70 eV
ion type=[M]+*
computed spectral entropy=2.432467413557142
computed normalized entropy=0.7018617349325783
SPLASH=splash10-01ot-1395000000-4701f17b2e5f959f7a10
submitter=submitter = University of Tokyo Team (Faculty of Engineering, University of Tokyo)
MoNA Rating=3.75

>  <NUM PEAKS>  (5406) 
32

>  <MASS SPECTRAL PEAKS>  (5406) 
45 8.26
59 1.2
73 19.45
74 1.76
75 1.03
105 1.11
117 16.44
118 1.84
119 1.15
131 1.89
148 1.11
155 3.71
156 1.19
159 1.25
176 1.24
178 8.38
179 1.77
193 16.42
194 2.73
195 1.28
219 1.07
221 1.01
233 1.42
293 1.47
295 99.99
296 32.9
297 16.55
298 2.2
310 65.34
311 16.79
312 8.33
313 1.31

>  <PREDICTED SPECTRUM>  (5406) 
27 15
29 19
43 48
44 1
45 50
47 11
55 52
57 34
59 39
69 19
73 326
74 32
75 79
76 6
77 77
83 24
103 53
104 25
105 140
106 9
107 35
115 0
119 11
121 25
131 46
132 11
133 24
135 94
145 42
147 22
148 8
155 4
165 0
175 17
177 57
178 201
179 61
191 74
192 21
193 181
194 52
207 18
208 20
217 21
219 70
221 33
223 3
233 113
234 30
235 118
236 32
237 126
238 56
239 8
251 32
279 6
293 4
295 999
296 548
297 386
298 158
299 16
310 780
311 367
312 292
313 107

$$$$

     RDKit          2D

  6  5  0  0  0  0  0  0  0  0999 V2000
    0.8002    0.0135    0.0000 C   0  0  0  0  0  0  0  0  0  0  0  0
   -0.6998    2.6115    0.0000 C   0  0  0  0  0  0  0  0  0  0  0  0
   -1.2488    0.5625    0.0000 C   0  0  0  0  0  0  0  0  0  0  0  0
    1.3493    2.0625    0.0000 C   0  0  0  0  0  0  0  0  0  0  0  0
    1.3493    3.5625    0.0000 Cl  0  0  0  0  0  0  0  0  0  0  0  0
    0.0502    1.3125    0.0000 Si  0  0  0  0  0  4  0  0  0  0  0  0
  5  4  1  0
  6  1  1  0
  6  2  1  0
  6  3  1  0
  6  4  1  0
M  END
>  <NAME>  (5407) 
(CHLOROMETHYL)TRIMETHYLSILANE

>  <SYNONYMS>  (5407) 


>  <SPECTRUM TYPE>  (5407) 
MS1

>  <INSTRUMENT TYPE>  (5407) 
EI-B

>  <INSTRUMENT>  (5407) 
JEOL JMS-D-3000

>  <ION MODE>  (5407) 
P

>  <INCHIKEY>  (5407) 
OOCUOKHIVGWCTJ-UHFFFAOYSA-N

>  <FORMULA>  (5407) 
C4H11ClSi

>  <EXACT MASS>  (5407) 
122.031854562

>  <MW>  (5407) 
122

>  <ID>  (5407) 
JP001362

>  <CONTRIBUTOR>  (5407) 
University of Tokyo Team, {Faculty of Engineering, University of Tokyo

>  <COMMENT>  (5407) 
SMILES=ClC[Si](C)(C)C
InChI=InChI=1S/C4H11ClSi/c1-6(2,3)4-5/h4H2,1-3H3
computed SMILES=ClC[Si](C)(C)C
accession=JP001362
date=2016.01.19 (Created 2008.10.21, modified 2011.05.06)
author=MASS SPECTROSCOPY SOC. OF JAPAN (MSSJ)
license=CC BY-NC-SA
exact mass=122.03185
ionization energy=70 eV
ion type=[M]+*
computed spectral entropy=1.9037014130064598
computed normalized entropy=0.6354711433368514
SPLASH=splash10-00di-9000000000-743877b6fb9565db1aac
submitter=submitter = University of Tokyo Team (Faculty of Engineering, University of Tokyo)
MoNA Rating=3.75

>  <NUM PEAKS>  (5407) 
20

>  <MASS SPECTRAL PEAKS>  (5407) 
41 1.86
43 5.23
44 1.96
45 12.29
55 1.02
59 2.06
63 3.6
65 3.09
72 1.05
73 99.99
74 8.71
75 3.56
78 1.12
79 34.65
80 2.64
81 11.99
93 1.26
107 6.74
109 2.42
122 0.89

>  <PREDICTED SPECTRUM>  (5407) 
14 1
15 13
29 200
36 37
38 57
39 226
40 53
41 119
42 273
43 496
44 190
45 495
47 161
49 146
50 116
51 227
52 53
53 167
54 87
55 248
56 57
57 285
58 295
59 684
60 109
61 137
63 339
64 118
65 392
66 73
67 205
68 66
69 128
70 37
71 254
72 451
73 999
74 342
75 291
76 170
77 110
78 110
79 591
80 259
81 420
82 81
83 136
93 922
94 148
95 711
107 465
108 119
109 359
110 84
122 177
123 56
124 108
125 9

$$$$

     RDKit          2D

  6  5  0  0  0  0  0  0  0  0999 V2000
    0.8002    0.0135    0.0000 C   0  0  0  0  0  0  0  0  0  0  0  0
   -0.6998    2.6115    0.0000 C   0  0  0  0  0  0  0  0  0  0  0  0
    1.3493    2.0625    0.0000 C   0  0  0  0  0  0  0  0  0  0  0  0
    1.3493    3.5625    0.0000 Cl  0  0  0  0  0  0  0  0  0  0  0  0
   -1.2488    0.5625    0.0000 Cl  0  0  0  0  0  0  0  0  0  0  0  0
    0.0502    1.3125    0.0000 Si  0  0  0  0  0  4  0  0  0  0  0  0
  4  3  1  0
  6  1  1  0
  6  2  1  0
  6  3  1  0
  6  5  1  0
M  END
>  <NAME>  (5408) 
CHLORO(CHLOROMETHYL)DIMETHYLSILANE

>  <SYNONYMS>  (5408) 


>  <SPECTRUM TYPE>  (5408) 
MS1

>  <INSTRUMENT TYPE>  (5408) 
EI-B

>  <INSTRUMENT>  (5408) 
JEOL JMS-D-3000

>  <ION MODE>  (5408) 
P

>  <INCHIKEY>  (5408) 
ITKVLPYNJQOCPW-UHFFFAOYSA-N

>  <FORMULA>  (5408) 
C3H8Cl2Si

>  <EXACT MASS>  (5408) 
141.977232146

>  <MW>  (5408) 
142

>  <ID>  (5408) 
JP001361

>  <CONTRIBUTOR>  (5408) 
University of Tokyo Team, {Faculty of Engineering, University of Tokyo

>  <COMMENT>  (5408) 
SMILES=ClC[Si](C)(C)Cl
InChI=InChI=1S/C3H8Cl2Si/c1-6(2,5)3-4/h3H2,1-2H3
computed SMILES=ClC[Si](Cl)(C)C
accession=JP001361
date=2016.01.19 (Created 2008.10.21, modified 2011.05.06)
author=MASS SPECTROSCOPY SOC. OF JAPAN (MSSJ)
license=CC BY-NC-SA
exact mass=141.97723
ionization energy=70 eV
ion type=[M]+*
computed spectral entropy=2.3545754684465
computed normalized entropy=0.6856680960753663
SPLASH=splash10-0007-9100000000-a59f89ba4b3cce46a233
submitter=submitter = University of Tokyo Team (Faculty of Engineering, University of Tokyo)
MoNA Rating=3.75

>  <NUM PEAKS>  (5408) 
31

>  <MASS SPECTRAL PEAKS>  (5408) 
42 1.13
43 2.18
63 10.46
64 1.22
65 13.69
67 3.8
75 2.29
77 1.48
78 2.02
79 13.66
80 1.52
81 5.24
92 1.07
93 99.99
94 7.95
95 37.32
96 2.59
97 1.21
98 1.05
99 14.01
100 1.08
101 9.41
103 1.79
107 4.97
109 1.82
113 1.62
115 1.16
127 2.1
129 1.41
142 2.45
144 1.62

>  <PREDICTED SPECTRUM>  (5408) 
14 7
15 40
26 12
27 25
29 43
35 3
36 10
38 30
39 75
42 108
43 95
44 32
45 107
47 90
49 121
50 41
51 97
52 41
53 77
54 35
57 67
58 43
59 281
60 40
61 67
62 13
63 329
64 113
65 284
66 74
67 57
71 20
72 128
73 163
74 48
75 9
76 62
77 88
78 174
79 292
80 137
81 129
83 58
84 25
85 49
89 69
91 211
92 187
93 999
94 358
95 482
96 144
97 105
98 30
99 273
100 70
101 128
102 43
106 12
107 121
109 20
110 33
113 77
115 33
127 256
128 70
129 232
130 36
131 7
141 51
142 191
143 79
144 152
145 28

$$$$

     RDKit          2D

 30 34  0  0  0  0  0  0  0  0999 V2000
   -4.3394    4.9068    0.0000 C   0  0  0  0  0  0  0  0  0  0  0  0
    2.9961    2.6768    0.0000 C   0  0  0  0  0  0  0  0  0  0  0  0
   -7.9270   -3.1158    0.0000 C   0  0  0  0  0  0  0  0  0  0  0  0
   -5.7885    0.8792    0.0000 C   0  0  0  0  0  0  0  0  0  0  0  0
   -4.6519    3.4389    0.0000 C   0  0  0  0  0  0  0  0  0  0  0  0
   -2.9122    5.3711    0.0000 C   0  0  0  0  0  0  0  0  0  0  0  0
    1.5282    2.9894    0.0000 C   0  0  0  0  0  0  0  0  0  0  0  0
    3.4604    1.2496    0.0000 C   0  0  0  0  0  0  0  0  0  0  0  0
   -6.9232   -4.2315    0.0000 C   0  0  0  0  0  0  0  0  0  0  0  0
   -7.4637   -1.6883    0.0000 C   0  0  0  0  0  0  0  0  0  0  0  0
   -4.6730    1.8833    0.0000 C   0  0  0  0  0  0  0  0  0  0  0  0
   -5.4764   -0.5880    0.0000 C   0  0  0  0  0  0  0  0  0  0  0  0
   -3.5372    2.4352    0.0000 C   0  0  0  0  0  0  0  0  0  0  0  0
   -1.7975    4.3674    0.0000 C   0  0  0  0  0  0  0  0  0  0  0  0
    0.5245    1.8746    0.0000 C   0  0  0  0  0  0  0  0  0  0  0  0
    2.4567    0.1349    0.0000 C   0  0  0  0  0  0  0  0  0  0  0  0
   -5.4559   -3.9196    0.0000 C   0  0  0  0  0  0  0  0  0  0  0  0
   -5.9965   -1.3764    0.0000 C   0  0  0  0  0  0  0  0  0  0  0  0
   -3.2454    1.4202    0.0000 C   0  0  0  0  0  0  0  0  0  0  0  0
   -4.0488   -1.0511    0.0000 C   0  0  0  0  0  0  0  0  0  0  0  0
    0.2969   -2.1345    0.0000 C   0  0  0  0  0  0  0  0  0  0  0  0
   -1.0021   -2.8845    0.0000 C   0  0  0  0  0  0  0  0  0  0  0  0
   -0.9953    1.8957    0.0000 C   0  0  0  0  0  0  0  0  0  0  0  0
   -2.1100    2.8994    0.0000 C   0  0  0  0  0  0  0  0  0  0  0  0
    0.9887    0.4474    0.0000 C   0  0  0  0  0  0  0  0  0  0  0  0
   -4.9926   -2.4921    0.0000 C   0  0  0  0  0  0  0  0  0  0  0  0
   -2.9333   -0.0470    0.0000 C   0  0  0  0  0  0  0  0  0  0  0  0
   -0.0150   -0.6673    0.0000 C   0  0  0  0  0  0  0  0  0  0  0  0
   -2.1169   -1.8808    0.0000 C   0  0  0  0  0  0  0  0  0  0  0  0
   -1.5067   -0.5105    0.0000 Si  0  0  0  0  0  4  0  0  0  0  0  0
  5  1  2  0
  6  1  1  0
  7  2  2  0
  8  2  1  0
  9  3  2  0
 10  3  1  0
 11  4  2  0
 12  4  1  0
 13  5  1  0
 14  6  2  0
 15  7  1  0
 16  8  2  0
 17  9  1  0
 18 10  2  0
 19 11  1  0
 20 12  2  0
 22 21  1  0
 24 13  2  0
 24 14  1  0
 24 23  1  0
 25 15  2  0
 25 16  1  0
 26 17  2  0
 26 18  1  0
 27 19  2  0
 27 20  1  0
 28 21  2  0
 28 25  1  0
 29 22  2  0
 29 26  1  0
 30 23  1  0
 30 27  1  0
 30 28  1  0
 30 29  1  0
M  END
>  <NAME>  (5409) 
1-BENZYL-1,2,5-TRIPHENYL-1-SILACYCLOPENTA-2,4-DIENE

>  <SYNONYMS>  (5409) 
1-BENZYL-1,2,5-TRIPHENYLSILOLE

>  <SPECTRUM TYPE>  (5409) 
MS1

>  <INSTRUMENT TYPE>  (5409) 
EI-B

>  <INSTRUMENT>  (5409) 
JEOL JMS-D-3000

>  <ION MODE>  (5409) 
P

>  <INCHIKEY>  (5409) 
FKYJOIQFIUOZLC-UHFFFAOYSA-N

>  <FORMULA>  (5409) 
C29H24Si

>  <EXACT MASS>  (5409) 
400.164727298

>  <MW>  (5409) 
400

>  <ID>  (5409) 
JP001360

>  <CONTRIBUTOR>  (5409) 
University of Tokyo Team, {Faculty of Engineering, University of Tokyo

>  <COMMENT>  (5409) 
SMILES=c(c1[Si](C(c(c5)cccc5)=3)(C(c(c4)cccc4)=C([H])C3[H])Cc(c2)cccc2)cccc1
InChI=InChI=1S/C29H24Si/c1-5-13-24(14-6-1)23-30(27-19-11-4-12-20-27)28(25-15-7-2-8-16-25)21-22-29(30)26-17-9-3-10-18-26/h1-22H,23H2
computed SMILES=C=1C=CC(=CC1)C2=CC=C(C=3C=CC=CC3)[Si]2(C=4C=CC=CC4)CC=5C=CC=CC5
accession=JP001360
date=2016.01.19 (Created 2008.10.21, modified 2011.05.06)
author=MASS SPECTROSCOPY SOC. OF JAPAN (MSSJ)
license=CC BY-NC-SA
exact mass=400.16473
ionization energy=70 eV
ion type=[M]+*
computed spectral entropy=2.9459514546917314
computed normalized entropy=0.7138007100923477
SPLASH=splash10-0pb9-2926600000-040a8afa0447d25880ab
submitter=submitter = University of Tokyo Team (Faculty of Engineering, University of Tokyo)
MoNA Rating=3.75

>  <NUM PEAKS>  (5409) 
62

>  <MASS SPECTRAL PEAKS>  (5409) 
42 1.13
43 2.31
44 10.18
51 1.12
53 3.98
55 1.29
56 2.9
57 2.32
65 2.18
69 1.14
77 2.63
78 1.95
79 3.13
91 5.21
102 1.2
103 2.18
105 99.99
106 12.06
107 4.45
115 1.37
129 5.65
130 1.38
131 4.63
161 9.48
162 3.01
165 2.16
178 1.68
179 1.33
180 1.02
181 2.99
183 13.55
184 2.63
191 1.41
202 2.02
203 1.67
204 1.64
205 2.89
206 1.47
207 14.96
208 3.52
209 1.59
215 1.02
217 1.03
220 2.45
231 1.98
233 2.4
245 1.08
259 3.2
283 2.76
284 1.06
296 1.1
307 1.58
309 87.82
310 25.73
311 6.69
312 1.23
322 2.72
325 1.31
400 80.92
401 30.92
402 8.41
403 1.65

>  <PREDICTED SPECTRUM>  (5409) 
43 2
50 0
51 67
52 37
57 0
63 47
65 103
69 8
75 33
76 34
77 262
78 96
83 22
85 16
89 31
91 275
92 63
101 1
102 75
103 87
104 82
105 583
106 133
107 72
115 97
117 18
119 6
121 54
127 32
128 36
129 102
130 13
131 99
132 18
133 24
134 22
139 0
141 12
145 5
146 32
147 5
148 16
149 3
150 22
152 20
153 7
161 47
162 36
163 32
164 5
165 112
166 20
167 35
168 13
169 0
176 107
177 22
178 171
179 123
180 0
181 63
187 4
189 75
190 62
191 42
192 18
194 3
202 101
203 116
204 111
205 176
206 90
207 276
208 30
215 2
217 105
218 122
219 88
220 113
221 10
230 59
231 161
232 113
233 129
234 64
235 13
236 9
246 9
267 13
271 23
279 0
281 9
283 63
296 42
307 57
308 47
309 999
310 470
311 268
312 13
322 32
324 20
397 1
398 9
400 794
401 461
402 234
403 69

$$$$

     RDKit          2D

 19 21  0  0  0  0  0  0  0  0999 V2000
   -3.5362   -0.0577    0.0000 C   0  0  0  0  0  0  0  0  0  0  0  0
   -1.7977   -1.0614    0.0000 C   0  0  0  0  0  0  0  0  0  0  0  0
   -7.1213    2.7118    0.0000 C   0  0  0  0  0  0  0  0  0  0  0  0
    2.3933   -2.7815    0.0000 C   0  0  0  0  0  0  0  0  0  0  0  0
   -6.6580    1.2843    0.0000 C   0  0  0  0  0  0  0  0  0  0  0  0
   -6.1174    3.8274    0.0000 C   0  0  0  0  0  0  0  0  0  0  0  0
    2.8575   -1.3543    0.0000 C   0  0  0  0  0  0  0  0  0  0  0  0
    0.9254   -3.0940    0.0000 C   0  0  0  0  0  0  0  0  0  0  0  0
   -5.1908    0.9724    0.0000 C   0  0  0  0  0  0  0  0  0  0  0  0
   -4.6502    3.5156    0.0000 C   0  0  0  0  0  0  0  0  0  0  0  0
    1.8538   -0.2396    0.0000 C   0  0  0  0  0  0  0  0  0  0  0  0
   -0.0783   -1.9793    0.0000 C   0  0  0  0  0  0  0  0  0  0  0  0
   -1.6050    2.7799    0.0000 C   0  0  0  0  0  0  0  0  0  0  0  0
   -0.3059    2.0299    0.0000 C   0  0  0  0  0  0  0  0  0  0  0  0
   -4.1869    2.0880    0.0000 C   0  0  0  0  0  0  0  0  0  0  0  0
    0.3859   -0.5521    0.0000 C   0  0  0  0  0  0  0  0  0  0  0  0
   -2.7197    1.7762    0.0000 C   0  0  0  0  0  0  0  0  0  0  0  0
   -0.6178    0.5627    0.0000 C   0  0  0  0  0  0  0  0  0  0  0  0
   -2.1096    0.4059    0.0000 Si  0  0  0  0  0  4  0  0  0  0  0  0
  5  3  2  0
  6  3  1  0
  7  4  2  0
  8  4  1  0
  9  5  1  0
 10  6  2  0
 11  7  1  0
 12  8  2  0
 14 13  1  0
 15  9  2  0
 15 10  1  0
 16 11  2  0
 16 12  1  0
 17 13  2  0
 17 15  1  0
 18 14  2  0
 18 16  1  0
 19  1  1  0
 19  2  1  0
 19 17  1  0
 19 18  1  0
M  END
>  <NAME>  (5410) 
1,1-DIMETHYL-2,5DIPHENYL-1-SILACYCLOPENTA-2,4-DIENE

>  <SYNONYMS>  (5410) 
1,1-DIMETHYL-2,5-DIPHENYLSILOLE

>  <SPECTRUM TYPE>  (5410) 
MS1

>  <INSTRUMENT TYPE>  (5410) 
EI-B

>  <INSTRUMENT>  (5410) 
JEOL JMS-D-3000

>  <ION MODE>  (5410) 
P

>  <INCHIKEY>  (5410) 
YCBUIVXZVYHASK-UHFFFAOYSA-N

>  <FORMULA>  (5410) 
C18H18Si

>  <EXACT MASS>  (5410) 
262.117777106

>  <MW>  (5410) 
262

>  <ID>  (5410) 
JP001359

>  <CONTRIBUTOR>  (5410) 
University of Tokyo Team, {Faculty of Engineering, University of Tokyo

>  <COMMENT>  (5410) 
SMILES=c(c3)ccc(c3)C(=C([H])1)[Si](C)(C)C(c(c2)cccc2)=C([H])1
InChI=InChI=1S/C18H18Si/c1-19(2)17(15-9-5-3-6-10-15)13-14-18(19)16-11-7-4-8-12-16/h3-14H,1-2H3
computed SMILES=C=1C=CC(=CC1)C2=CC=C(C=3C=CC=CC3)[Si]2(C)C
accession=JP001359
date=2016.01.19 (Created 2008.10.21, modified 2011.05.06)
author=MASS SPECTROSCOPY SOC. OF JAPAN (MSSJ)
license=CC BY-NC-SA
exact mass=262.11778
ionization energy=70 eV
ion type=[M]+*
computed spectral entropy=3.27278518585205
computed normalized entropy=0.7756319965566826
SPLASH=splash10-03di-1790000000-8671f152938eb56b0f13
submitter=submitter = University of Tokyo Team (Faculty of Engineering, University of Tokyo)
MoNA Rating=3.75

>  <NUM PEAKS>  (5410) 
68

>  <MASS SPECTRAL PEAKS>  (5410) 
43 15.68
44 4.91
45 1.02
51 1.37
53 3.24
58 1.42
59 1.59
67 1.19
69 1.31
77 2.42
91 1.95
92 1.01
93 1.02
102 2.38
103 1.69
105 25.98
106 3.03
107 1.68
115 2.5
116 1.78
117 2.23
119 2.48
120 1.44
121 30.5
122 4.83
123 4.31
124 1.55
129 4.44
130 1.72
131 7.7
132 1.19
143 4.01
144 1.04
145 15.55
146 2.84
147 1.12
158 3.63
159 3.36
160 1.14
167 1.38
169 6.56
170 1.18
171 3.57
183 3.65
184 6.13
185 2.09
197 2.63
202 3.31
203 2.88
204 2.13
205 1.13
207 2.41
215 2.1
217 1.85
218 1.62
219 1.62
220 1.53
221 3.98
234 2.31
245 4.42
246 1.18
247 28.19
248 6.75
249 1.75
262 99.99
263 25.86
264 6.67
265 1.02

>  <PREDICTED SPECTRUM>  (5410) 
15 0
17 1
18 2
26 19
27 71
28 53
29 14
31 0
39 35
41 26
43 18
47 5
50 7
51 121
52 40
53 16
55 19
57 24
59 19
63 48
64 13
65 70
66 5
67 29
73 5
75 36
76 64
77 256
78 106
79 29
80 26
81 18
82 28
83 47
85 11
86 5
88 3
91 108
92 53
93 16
94 1
95 3
97 17
99 40
101 39
102 92
103 166
104 176
105 280
106 84
107 78
108 26
113 12
115 163
116 96
117 120
118 95
119 57
120 52
121 160
122 31
126 20
127 34
128 109
129 191
130 106
131 107
132 26
133 24
134 16
135 35
141 43
142 76
143 162
144 110
145 234
146 89
147 48
151 0
152 80
157 33
158 118
159 148
160 69
165 86
166 41
167 13
169 165
170 103
171 219
172 80
173 101
175 12
176 2
178 52
183 15
184 162
185 171
186 128
187 78
188 78
189 41
190 28
202 139
203 48
204 24
205 35
206 17
215 61
216 8
217 52
219 180
220 156
221 115
229 49
230 36
231 33
232 61
233 48
234 157
235 115
236 34
245 126
246 56
247 655
248 316
249 121
250 18
260 31
261 121
262 999
263 494
264 237
265 84

$$$$

     RDKit          2D

 22 22  0  0  0  0  0  0  0  0999 V2000
    1.2990   -5.0490    0.0000 C   0  0  0  0  0  0  0  0  0  0  0  0
   -1.2990   -5.0490    0.0000 C   0  0  0  0  0  0  0  0  0  0  0  0
    2.5987    1.7012    0.0000 C   0  0  0  0  0  0  0  0  0  0  0  0
    3.8981   -0.5486    0.0000 C   0  0  0  0  0  0  0  0  0  0  0  0
   -3.8981   -0.5486    0.0000 C   0  0  0  0  0  0  0  0  0  0  0  0
   -2.5987    1.7012    0.0000 C   0  0  0  0  0  0  0  0  0  0  0  0
   -0.5490    3.7500    0.0000 C   0  0  0  0  0  0  0  0  0  0  0  0
   -2.5981    3.2010    0.0000 C   0  0  0  0  0  0  0  0  0  0  0  0
   -2.0490    1.1519    0.0000 C   0  0  0  0  0  0  0  0  0  0  0  0
    1.3000   -2.0490    0.0000 C   0  0  0  0  0  0  0  0  0  0  0  0
   -1.3000   -2.0490    0.0000 C   0  0  0  0  0  0  0  0  0  0  0  0
   -0.0000   -4.2990    0.0000 C   0  0  0  0  0  0  0  0  0  0  0  0
    2.5989    0.2012    0.0000 C   0  0  0  0  0  0  0  0  0  0  0  0
   -2.5989    0.2012    0.0000 C   0  0  0  0  0  0  0  0  0  0  0  0
    0.0000   -2.7990    0.0000 C   0  0  0  0  0  0  0  0  0  0  0  0
    1.3000   -0.5490    0.0000 C   0  0  0  0  0  0  0  0  0  0  0  0
   -1.3000   -0.5490    0.0000 C   0  0  0  0  0  0  0  0  0  0  0  0
    0.0000    0.2010    0.0000 C   0  0  0  0  0  0  0  0  0  0  0  0
   -1.2990    2.4510    0.0000 C   0  0  0  0  0  0  0  0  0  0  0  0
    1.4772    1.4405    0.0000 F   0  0  0  0  0  0  0  0  0  0  0  0
    0.5130    3.1105    0.0000 F   0  0  0  0  0  0  0  0  0  0  0  0
    0.0000    1.7010    0.0000 Si  0  0  0  0  0  4  0  0  0  0  0  0
 12  1  1  0
 12  2  1  0
 13  3  1  0
 13  4  1  0
 14  5  1  0
 14  6  1  0
 15 10  2  0
 15 11  1  0
 15 12  1  0
 16 10  1  0
 16 13  1  0
 17 11  2  0
 17 14  1  0
 18 16  2  0
 18 17  1  0
 19  7  1  0
 19  8  1  0
 19  9  1  0
 22 18  1  0
 22 19  1  0
 22 20  1  0
 22 21  1  0
M  END
>  <NAME>  (5411) 
TERT-BUTYLDIFLUORO(2,4,6-TRIISOPROPYLPHENYL)SILANE

>  <SYNONYMS>  (5411) 


>  <SPECTRUM TYPE>  (5411) 
MS1

>  <INSTRUMENT TYPE>  (5411) 
EI-B

>  <INSTRUMENT>  (5411) 
JEOL JMS-D-3000

>  <ION MODE>  (5411) 
P

>  <INCHIKEY>  (5411) 
UZVOOYYAXOKYBB-UHFFFAOYSA-N

>  <FORMULA>  (5411) 
C19H32F2Si

>  <EXACT MASS>  (5411) 
326.224133994

>  <MW>  (5411) 
326

>  <ID>  (5411) 
JP001358

>  <CONTRIBUTOR>  (5411) 
University of Tokyo Team, {Faculty of Engineering, University of Tokyo

>  <COMMENT>  (5411) 
SMILES=CC(C)c(c1)cc(C(C)C)c(c(C(C)C)1)[Si](F)(F)C(C)(C)C
InChI=InChI=1S/C19H32F2Si/c1-12(2)15-10-16(13(3)4)18(17(11-15)14(5)6)22(20,21)19(7,8)9/h10-14H,1-9H3
computed SMILES=F[Si](F)(C=1C(=CC(=CC1C(C)C)C(C)C)C(C)C)C(C)(C)C
accession=JP001358
date=2016.01.19 (Created 2008.10.21, modified 2011.05.06)
author=MASS SPECTROSCOPY SOC. OF JAPAN (MSSJ)
license=CC BY-NC-SA
exact mass=326.22413
ionization energy=70 eV
ion type=[M]+*
computed spectral entropy=3.6307659112087367
computed normalized entropy=0.795462081090954
SPLASH=splash10-0ftf-4391000000-5cc66460524f8960f346
submitter=submitter = University of Tokyo Team (Faculty of Engineering, University of Tokyo)
MoNA Rating=3.75

>  <NUM PEAKS>  (5411) 
96

>  <MASS SPECTRAL PEAKS>  (5411) 
41 1.02
43 99.99
44 1.46
53 1.75
55 2.75
57 16.73
63 1.1
65 1.49
67 1.28
77 4.03
78 1.18
79 2.07
81 14.37
82 1.15
91 6.84
93 1.02
103 1.94
105 4.43
107 1.78
115 4.24
116 1.83
117 6.87
119 1.91
121 1.73
127 1.65
128 4.72
129 5.9
130 2.33
131 4.48
132 1.04
133 1.49
141 2.38
142 1.99
143 3.98
144 1.33
145 5.37
146 1.04
147 1.86
155 1.41
157 1.83
159 2.85
160 1.18
161 17.02
162 2.33
165 1.36
169 1.07
171 6.61
172 1.04
173 2.57
175 1.78
183 1.52
185 8.13
186 1.6
187 3.56
188 1.15
189 8.91
190 2.38
197 1.46
199 4.51
201 1.02
202 1.83
203 49.34
204 24.13
205 3.51
211 2.22
213 15.73
214 2.91
215 1.18
225 2.38
227 17.75
228 7.68
229 2.17
235 1.15
239 1.78
241 5.01
242 1.28
249 4.03
250 1.02
253 2.49
255 26.67
256 6.19
257 1.75
269 83.84
270 28.46
271 6.79
272 1.33
283 10.57
284 16.97
285 4.06
286 1.12
311 8.44
312 3.72
313 1.6
326 44.56
327 12.25
328 3.17

>  <PREDICTED SPECTRUM>  (5411) 
27 72
29 122
39 214
40 66
41 570
43 674
44 15
51 103
52 1
53 146
54 1
55 320
56 43
57 387
63 41
65 147
66 54
67 216
68 3
69 220
70 20
71 53
75 0
77 343
78 131
79 284
80 72
81 191
82 28
83 108
84 13
91 427
92 87
93 83
94 62
95 176
96 36
97 45
102 16
103 214
104 20
105 290
106 44
107 78
109 59
115 242
116 103
117 125
118 2
119 209
120 56
121 112
123 140
125 57
127 160
128 245
129 317
130 147
131 256
132 90
133 83
137 41
139 23
141 286
142 159
143 160
144 46
145 190
146 75
147 159
153 96
154 22
155 157
156 96
157 200
158 89
159 199
160 54
161 171
162 7
163 33
165 65
167 7
168 13
169 90
170 80
171 260
172 107
173 125
175 251
176 65
177 73
183 16
184 1
185 146
187 183
188 90
189 459
190 242
191 82
196 3
197 76
199 277
200 20
201 159
202 190
203 857
204 598
205 113
207 43
209 45
211 99
212 46
213 397
214 106
215 137
225 207
226 28
227 558
228 164
229 103
233 5
234 18
239 111
240 51
241 333
242 42
243 59
251 28
252 4
253 129
254 6
255 621
256 270
257 106
267 90
268 53
269 999
270 577
271 271
272 45
283 534
284 342
285 14
298 7
311 371
312 143
324 50
326 888
327 455
328 191

$$$$

     RDKit          2D

 18 18  0  0  0  0  0  0  0  0999 V2000
   -5.1459    2.4830    0.0000 C   0  0  0  0  0  0  0  0  0  0  0  0
   -0.4988    6.0320    0.0000 C   0  0  0  0  0  0  0  0  0  0  0  0
   -2.5478    5.4830    0.0000 C   0  0  0  0  0  0  0  0  0  0  0  0
   -1.9988    3.4339    0.0000 C   0  0  0  0  0  0  0  0  0  0  0  0
    1.5275    3.7225    0.0000 C   0  0  0  0  0  0  0  0  0  0  0  0
    0.5633    5.3925    0.0000 C   0  0  0  0  0  0  0  0  0  0  0  0
   -3.8469    1.7330    0.0000 C   0  0  0  0  0  0  0  0  0  0  0  0
   -2.5478    2.4830    0.0000 C   0  0  0  0  0  0  0  0  0  0  0  0
    3.9474    0.2330    0.0000 C   0  0  0  0  0  0  0  0  0  0  0  0
    2.6478   -0.5179    0.0000 C   0  0  0  0  0  0  0  0  0  0  0  0
    3.9478    1.7338    0.0000 C   0  0  0  0  0  0  0  0  0  0  0  0
    1.3488    0.2321    0.0000 C   0  0  0  0  0  0  0  0  0  0  0  0
    2.6488    2.4838    0.0000 C   0  0  0  0  0  0  0  0  0  0  0  0
   -1.2488    1.7330    0.0000 C   0  0  0  0  0  0  0  0  0  0  0  0
    1.3493    1.7330    0.0000 C   0  0  0  0  0  0  0  0  0  0  0  0
   -1.2488    4.7330    0.0000 C   0  0  0  0  0  0  0  0  0  0  0  0
    0.0502    2.4830    0.0000 N   0  0  0  0  0  0  0  0  0  0  0  0
    0.0502    3.9830    0.0000 Si  0  0  0  0  0  4  0  0  0  0  0  0
  7  1  1  0
  8  7  1  0
 10  9  2  0
 11  9  1  0
 12 10  1  0
 13 11  2  0
 14  8  1  0
 15 12  2  0
 15 13  1  0
 16  2  1  0
 16  3  1  0
 16  4  1  0
 17 14  1  0
 17 15  1  0
 18  5  1  0
 18  6  1  0
 18 16  1  0
 18 17  1  0
M  END
>  <NAME>  (5412) 
N-BUTYL-N-(TERT-BUTYLDIMETHYLSILYL)ANILINE

>  <SYNONYMS>  (5412) 


>  <SPECTRUM TYPE>  (5412) 
MS1

>  <INSTRUMENT TYPE>  (5412) 
EI-B

>  <INSTRUMENT>  (5412) 
JEOL JMS-D-3000

>  <ION MODE>  (5412) 
P

>  <INCHIKEY>  (5412) 
BJYXUWNDSGJBDX-UHFFFAOYSA-N

>  <FORMULA>  (5412) 
C16H29NSi

>  <EXACT MASS>  (5412) 
263.206926458

>  <MW>  (5412) 
263

>  <ID>  (5412) 
JP001357

>  <CONTRIBUTOR>  (5412) 
University of Tokyo Team, {Faculty of Engineering, University of Tokyo

>  <COMMENT>  (5412) 
SMILES=CCCCN(c(c1)cccc1)[Si](C)(C)C(C)(C)C
InChI=InChI=1S/C16H29NSi/c1-7-8-14-17(15-12-10-9-11-13-15)18(5,6)16(2,3)4/h9-13H,7-8,14H2,1-6H3
computed SMILES=C=1C=CC(=CC1)N(CCCC)[Si](C)(C)C(C)(C)C
accession=JP001357
date=2016.01.19 (Created 2008.10.21, modified 2011.05.06)
author=MASS SPECTROSCOPY SOC. OF JAPAN (MSSJ)
license=CC BY-NC-SA
exact mass=263.20693
ionization energy=70 eV
ion type=[M]+*
computed spectral entropy=3.108924983121347
computed normalized entropy=0.7624516085727038
SPLASH=splash10-0a4i-8690000000-dc0c0891826ffc5ecba0
submitter=submitter = University of Tokyo Team (Faculty of Engineering, University of Tokyo)
MoNA Rating=3.75

>  <NUM PEAKS>  (5412) 
59

>  <MASS SPECTRAL PEAKS>  (5412) 
43 3.47
45 3.44
50 1.46
51 4.5
52 1.3
53 1.26
55 1.93
56 3.6
57 1.87
58 2.6
59 34.53
60 2.73
61 1.5
65 2.03
73 26.21
74 2.43
75 5.21
76 1
77 11.92
78 1.5
79 2.67
83 1.03
84 1.36
85 1.67
91 1.53
92 1.2
93 1.93
99 1.33
104 5.01
105 2.2
106 30.16
107 3.37
115 1.26
117 1.13
118 2.6
119 4.84
120 2.4
121 1.67
132 2.6
133 1.3
134 1.9
135 4.34
136 1.2
146 4.7
147 2
148 4.4
149 7.54
150 4.04
162 1.43
164 9.61
165 1.8
204 1.2
206 99.99
207 18.8
208 5.01
220 4.07
248 1.7
263 7.44
264 1.77

>  <PREDICTED SPECTRUM>  (5412) 
27 63
29 133
30 50
31 33
38 1
39 80
40 11
41 152
42 78
43 163
44 41
45 116
46 53
47 60
50 0
51 86
52 11
53 56
54 23
55 74
56 77
57 220
58 146
59 347
60 142
61 69
63 6
65 92
66 0
67 0
68 16
71 40
72 49
73 544
74 193
75 226
76 53
77 214
78 95
79 111
83 21
84 53
85 121
86 133
87 9
89 37
90 39
91 130
92 77
93 116
99 110
100 91
101 67
102 90
103 85
104 141
105 184
106 425
107 141
114 13
115 34
116 50
117 30
118 152
119 155
120 250
121 100
122 16
130 84
131 69
132 209
133 112
134 173
135 114
136 71
146 34
147 49
148 218
149 285
150 135
151 30
158 68
159 37
160 33
161 86
162 118
163 93
164 248
165 132
176 53
188 28
190 122
191 23
192 89
204 99
206 999
207 429
208 205
220 22
248 127
249 35
262 19
263 237
264 92
265 21

$$$$

     RDKit          2D

 21 21  0  0  0  0  0  0  0  0999 V2000
    1.1086    1.4120    0.0000 C   0  0  0  0  0  0  0  0  0  0  0  0
    1.6576   -0.6370    0.0000 C   0  0  0  0  0  0  0  0  0  0  0  0
   -0.3914   -1.1861    0.0000 C   0  0  0  0  0  0  0  0  0  0  0  0
   -4.7042    3.4220    0.0000 C   0  0  0  0  0  0  0  0  0  0  0  0
   -5.2533    1.3730    0.0000 C   0  0  0  0  0  0  0  0  0  0  0  0
   -3.2042    0.8239    0.0000 C   0  0  0  0  0  0  0  0  0  0  0  0
   -1.4535   -0.5466    0.0000 C   0  0  0  0  0  0  0  0  0  0  0  0
   -2.4177    1.1235    0.0000 C   0  0  0  0  0  0  0  0  0  0  0  0
   -1.2753    4.2620    0.0000 C   0  0  0  0  0  0  0  0  0  0  0  0
   -3.2037    4.2620    0.0000 C   0  0  0  0  0  0  0  0  0  0  0  0
    2.9566    4.6130    0.0000 C   0  0  0  0  0  0  0  0  0  0  0  0
    2.9571    3.1121    0.0000 C   0  0  0  0  0  0  0  0  0  0  0  0
    1.6571    5.3638    0.0000 C   0  0  0  0  0  0  0  0  0  0  0  0
    1.6581    2.3621    0.0000 C   0  0  0  0  0  0  0  0  0  0  0  0
    0.3581    4.6138    0.0000 C   0  0  0  0  0  0  0  0  0  0  0  0
    0.3586    3.1130    0.0000 C   0  0  0  0  0  0  0  0  0  0  0  0
    0.3586    0.1130    0.0000 C   0  0  0  0  0  0  0  0  0  0  0  0
   -3.9542    2.1230    0.0000 C   0  0  0  0  0  0  0  0  0  0  0  0
   -0.9405    2.3630    0.0000 N   0  0  0  0  0  0  0  0  0  0  0  0
   -0.9405    0.8630    0.0000 Si  0  0  0  0  0  4  0  0  0  0  0  0
   -2.2395    3.1130    0.0000 Si  0  0  0  0  0  4  0  0  0  0  0  0
 12 11  2  0
 13 11  1  0
 14 12  1  0
 15 13  2  0
 16 14  2  0
 16 15  1  0
 17  1  1  0
 17  2  1  0
 17  3  1  0
 18  4  1  0
 18  5  1  0
 18  6  1  0
 19 16  1  0
 20  7  1  0
 20  8  1  0
 20 17  1  0
 20 19  1  0
 21  9  1  0
 21 10  1  0
 21 18  1  0
 21 19  1  0
M  END
>  <NAME>  (5413) 
N,N-BIS(TERT-BUTYLDIMETHYLSILYL)ANILINE

>  <SYNONYMS>  (5413) 


>  <SPECTRUM TYPE>  (5413) 
MS1

>  <INSTRUMENT TYPE>  (5413) 
EI-B

>  <INSTRUMENT>  (5413) 
JEOL JMS-D-3000

>  <ION MODE>  (5413) 
P

>  <INCHIKEY>  (5413) 
PUCQSUCIXUFKSK-UHFFFAOYSA-N

>  <FORMULA>  (5413) 
C18H35NSi2

>  <EXACT MASS>  (5413) 
321.23080317999995

>  <MW>  (5413) 
321

>  <ID>  (5413) 
JP001356

>  <CONTRIBUTOR>  (5413) 
University of Tokyo Team, {Faculty of Engineering, University of Tokyo

>  <COMMENT>  (5413) 
SMILES=c(c1)ccc(c1)N([Si](C)(C)C(C)(C)C)[Si](C)(C)C(C)(C)C
InChI=InChI=1S/C18H35NSi2/c1-17(2,3)20(7,8)19(16-14-12-11-13-15-16)21(9,10)18(4,5)6/h11-15H,1-10H3
computed SMILES=C=1C=CC(=CC1)N([Si](C)(C)C(C)(C)C)[Si](C)(C)C(C)(C)C
accession=JP001356
date=2016.01.19 (Created 2008.10.21, modified 2011.05.06)
author=MASS SPECTROSCOPY SOC. OF JAPAN (MSSJ)
license=CC BY-NC-SA
exact mass=321.2308
ionization energy=70 eV
ion type=[M]+*
computed spectral entropy=3.1110798047395596
computed normalized entropy=0.7347665443374292
SPLASH=splash10-0229-6290000000-4d916f0b986e99383db6
submitter=submitter = University of Tokyo Team (Faculty of Engineering, University of Tokyo)
MoNA Rating=3.75

>  <NUM PEAKS>  (5413) 
69

>  <MASS SPECTRAL PEAKS>  (5413) 
43 2.92
45 9.74
46 1.08
50 1.18
51 1.57
52 1.05
53 1.57
55 1.97
56 5.49
57 7.86
58 2.53
59 14.11
60 1.38
65 1.38
66 1.67
70 1.44
73 82.42
74 7.43
75 3.91
77 1.08
84 2.73
85 1.67
86 1.28
91 1.87
93 4.37
95 1.64
97 1.15
99 2.5
100 4.21
103 1.08
105 1.28
107 1.11
113 1.08
119 4.31
120 2.13
121 1.64
130 4.6
131 1.15
132 1.44
134 1.84
135 1.48
146 1.15
148 1.51
149 1.44
150 11.64
151 1.8
160 3.09
162 1.77
176 2.5
178 1.54
190 1.02
192 13.58
193 3.29
194 1.64
206 12.07
207 1.21
208 5.33
222 60.44
223 13.45
224 5.33
225 1.08
248 4.57
249 1.38
264 99.99
265 25.73
266 9.77
267 2.04
306 3.55
307 1.31

>  <PREDICTED SPECTRUM>  (5413) 
27 31
29 92
31 30
38 8
39 143
40 59
41 165
42 67
43 137
44 65
45 143
46 57
47 54
48 1
50 8
51 37
52 3
53 51
54 27
55 26
56 106
57 208
58 173
59 331
60 132
61 62
63 31
64 2
65 60
66 85
67 44
68 34
69 48
70 33
71 16
72 63
73 713
74 225
75 154
76 49
77 70
78 15
79 13
82 5
83 77
84 62
85 138
86 78
87 65
89 24
90 43
91 87
92 68
93 63
95 52
96 30
97 37
98 41
99 150
100 108
101 34
102 39
103 63
104 63
105 109
106 90
107 14
109 39
110 40
111 42
112 23
113 39
114 3
115 14
116 89
117 81
118 88
119 93
120 120
121 49
122 51
123 43
124 17
125 0
130 46
131 63
132 100
133 89
134 170
135 81
136 98
137 78
138 74
143 17
144 26
145 38
146 75
147 64
148 264
149 240
150 292
151 136
152 129
153 36
158 48
159 6
160 42
162 8
164 138
165 107
166 30
167 9
174 6
176 85
178 104
179 50
181 39
190 110
191 89
192 256
193 114
194 148
195 11
206 230
207 151
208 269
209 183
210 92
211 32
220 56
222 744
223 368
224 275
225 61
234 16
248 156
250 41
251 20
262 20
264 999
265 542
266 334
267 93
268 12
269 9
306 191
307 102
308 25
320 16
321 66
322 25

$$$$

     RDKit          2D

 14 14  0  0  0  0  0  0  0  0999 V2000
   -2.5476    4.3306    0.0000 C   0  0  0  0  0  0  0  0  0  0  0  0
   -4.5966    3.7816    0.0000 C   0  0  0  0  0  0  0  0  0  0  0  0
   -4.0476    1.7326    0.0000 C   0  0  0  0  0  0  0  0  0  0  0  0
   -2.9627    1.1325    0.0000 C   0  0  0  0  0  0  0  0  0  0  0  0
   -1.0344    1.1325    0.0000 C   0  0  0  0  0  0  0  0  0  0  0  0
    3.1976    0.7816    0.0000 C   0  0  0  0  0  0  0  0  0  0  0  0
    1.8981    0.0308    0.0000 C   0  0  0  0  0  0  0  0  0  0  0  0
    3.1981    2.2824    0.0000 C   0  0  0  0  0  0  0  0  0  0  0  0
    0.5990    0.7808    0.0000 C   0  0  0  0  0  0  0  0  0  0  0  0
    1.8990    3.0324    0.0000 C   0  0  0  0  0  0  0  0  0  0  0  0
    0.5995    2.2816    0.0000 C   0  0  0  0  0  0  0  0  0  0  0  0
   -3.2976    3.0316    0.0000 C   0  0  0  0  0  0  0  0  0  0  0  0
   -0.6995    3.0316    0.0000 N   0  0  0  0  0  0  0  0  0  0  0  0
   -1.9986    2.2816    0.0000 Si  0  0  0  0  0  4  0  0  0  0  0  0
  7  6  2  0
  8  6  1  0
  9  7  1  0
 10  8  2  0
 11  9  2  0
 11 10  1  0
 12  1  1  0
 12  2  1  0
 12  3  1  0
 13 11  1  0
 14  4  1  0
 14  5  1  0
 14 12  1  0
 14 13  1  0
M  END
>  <NAME>  (5414) 
N-(TERT-BUTYLDIMETHYLSILYL)ANILINE

>  <SYNONYMS>  (5414) 


>  <SPECTRUM TYPE>  (5414) 
MS1

>  <INSTRUMENT TYPE>  (5414) 
EI-B

>  <INSTRUMENT>  (5414) 
JEOL JMS-D-3000

>  <ION MODE>  (5414) 
P

>  <INCHIKEY>  (5414) 
UITYJPORVGLJRW-UHFFFAOYSA-N

>  <FORMULA>  (5414) 
C12H21NSi

>  <EXACT MASS>  (5414) 
207.14432620199997

>  <MW>  (5414) 
207

>  <ID>  (5414) 
JP001355

>  <CONTRIBUTOR>  (5414) 
University of Tokyo Team, {Faculty of Engineering, University of Tokyo

>  <COMMENT>  (5414) 
SMILES=c(c1)ccc(c1)N[Si](C)(C)C(C)(C)C
InChI=InChI=1S/C12H21NSi/c1-12(2,3)14(4,5)13-11-9-7-6-8-10-11/h6-10,13H,1-5H3
computed SMILES=C=1C=CC(=CC1)N[Si](C)(C)C(C)(C)C
accession=JP001355
date=2016.01.19 (Created 2008.10.21, modified 2011.05.06)
author=MASS SPECTROSCOPY SOC. OF JAPAN (MSSJ)
license=CC BY-NC-SA
exact mass=207.14433
ionization energy=70 eV
ion type=[M]+*
computed spectral entropy=2.183497358817252
computed normalized entropy=0.6244795186147016
SPLASH=splash10-0udi-2900000000-772214a2368ffad10364
submitter=submitter = University of Tokyo Team (Faculty of Engineering, University of Tokyo)
MoNA Rating=3.75

>  <NUM PEAKS>  (5414) 
33

>  <MASS SPECTRAL PEAKS>  (5414) 
43 2.8
45 1.49
51 1.07
56 1.19
57 1.43
58 1.09
59 2.74
65 1.99
66 2.37
73 2.43
74 1.4
75 2.23
77 2.44
84 2.07
91 1.96
92 1.04
93 6.61
95 1.21
119 1.39
120 4.14
132 1.54
133 1.13
134 4.83
135 1.35
136 1.74
148 1.82
149 1.99
150 99.99
151 14.77
152 4.15
192 1.07
207 11.86
208 2.32

>  <PREDICTED SPECTRUM>  (5414) 
27 40
28 51
29 79
31 35
38 12
39 84
40 16
41 156
42 59
43 132
44 57
45 111
46 70
47 75
48 21
49 1
50 23
51 90
52 52
53 87
54 29
55 45
56 63
57 130
58 81
59 129
60 33
61 24
63 33
64 23
65 131
66 80
67 85
68 23
69 78
70 54
71 54
72 28
73 200
74 84
75 109
76 35
77 142
78 79
79 52
80 17
81 57
82 37
83 97
84 42
85 41
89 19
90 75
91 125
92 129
93 171
94 71
95 82
96 24
97 19
99 18
102 4
103 33
104 123
105 64
106 132
107 52
108 78
109 52
110 39
118 58
119 116
120 149
121 57
122 40
123 43
124 9
131 12
132 98
133 64
134 228
135 113
136 148
137 16
138 2
148 102
149 147
150 999
151 444
152 247
153 68
191 4
192 109
193 36
194 2
206 16
207 390
208 153
209 52

$$$$

     RDKit          2D

 16 16  0  0  0  0  0  0  0  0999 V2000
   -1.9986    5.2816    0.0000 C   0  0  0  0  0  0  0  0  0  0  0  0
   -2.5476    4.3306    0.0000 C   0  0  0  0  0  0  0  0  0  0  0  0
   -4.5966    3.7816    0.0000 C   0  0  0  0  0  0  0  0  0  0  0  0
   -4.0476    1.7326    0.0000 C   0  0  0  0  0  0  0  0  0  0  0  0
   -2.9627    1.1325    0.0000 C   0  0  0  0  0  0  0  0  0  0  0  0
   -1.0344    1.1325    0.0000 C   0  0  0  0  0  0  0  0  0  0  0  0
   -0.6995    4.5316    0.0000 C   0  0  0  0  0  0  0  0  0  0  0  0
    3.1976    0.7816    0.0000 C   0  0  0  0  0  0  0  0  0  0  0  0
    1.8981    0.0308    0.0000 C   0  0  0  0  0  0  0  0  0  0  0  0
    3.1981    2.2824    0.0000 C   0  0  0  0  0  0  0  0  0  0  0  0
    0.5990    0.7808    0.0000 C   0  0  0  0  0  0  0  0  0  0  0  0
    1.8990    3.0324    0.0000 C   0  0  0  0  0  0  0  0  0  0  0  0
    0.5995    2.2816    0.0000 C   0  0  0  0  0  0  0  0  0  0  0  0
   -3.2976    3.0316    0.0000 C   0  0  0  0  0  0  0  0  0  0  0  0
   -0.6995    3.0316    0.0000 N   0  0  0  0  0  0  0  0  0  0  0  0
   -1.9986    2.2816    0.0000 Si  0  0  0  0  0  4  0  0  0  0  0  0
  7  1  1  0
  9  8  2  0
 10  8  1  0
 11  9  1  0
 12 10  2  0
 13 11  2  0
 13 12  1  0
 14  2  1  0
 14  3  1  0
 14  4  1  0
 15  7  1  0
 15 13  1  0
 16  5  1  0
 16  6  1  0
 16 14  1  0
 16 15  1  0
M  END
>  <NAME>  (5415) 
N-(TERT-BUTYLDIMETHYLSILYL)-N-ETHYLANILINE

>  <SYNONYMS>  (5415) 


>  <SPECTRUM TYPE>  (5415) 
MS1

>  <INSTRUMENT TYPE>  (5415) 
EI-B

>  <INSTRUMENT>  (5415) 
JEOL JMS-D-3000

>  <ION MODE>  (5415) 
P

>  <INCHIKEY>  (5415) 
NGNXCQKDIRSRJC-UHFFFAOYSA-N

>  <FORMULA>  (5415) 
C14H25NSi

>  <EXACT MASS>  (5415) 
235.17562633

>  <MW>  (5415) 
235

>  <ID>  (5415) 
JP001354

>  <CONTRIBUTOR>  (5415) 
University of Tokyo Team, {Faculty of Engineering, University of Tokyo

>  <COMMENT>  (5415) 
SMILES=CCN(c(c1)cccc1)[Si](C)(C)C(C)(C)C
InChI=InChI=1S/C14H25NSi/c1-7-15(13-11-9-8-10-12-13)16(5,6)14(2,3)4/h8-12H,7H2,1-6H3
computed SMILES=C=1C=CC(=CC1)N(CC)[Si](C)(C)C(C)(C)C
accession=JP001354
date=2016.01.19 (Created 2008.10.21, modified 2011.05.06)
author=MASS SPECTROSCOPY SOC. OF JAPAN (MSSJ)
license=CC BY-NC-SA
exact mass=235.17563
ionization energy=70 eV
ion type=[M]+*
computed spectral entropy=2.3238432158518334
computed normalized entropy=0.6767186589445212
SPLASH=splash10-004i-3900000000-dfac95c00669196ddeab
submitter=submitter = University of Tokyo Team (Faculty of Engineering, University of Tokyo)
MoNA Rating=3.75

>  <NUM PEAKS>  (5415) 
31

>  <MASS SPECTRAL PEAKS>  (5415) 
43 3.42
45 2.66
51 1.4
57 1.18
58 1.71
59 24.72
60 1.95
73 8.89
74 1
75 2.28
77 4.25
84 1.48
104 1.32
106 3.12
118 7.07
119 3.63
120 7.46
121 4.39
134 1.93
135 2.2
149 2.56
150 2.62
162 1.16
164 1.12
176 1.38
178 99.99
179 16.37
180 4.74
220 1.66
235 5.74
236 1.26

>  <PREDICTED SPECTRUM>  (5415) 
15 3
27 34
28 7
29 62
31 22
39 18
40 6
41 52
42 11
43 55
44 40
45 90
46 12
47 25
51 62
52 13
53 28
54 26
55 6
56 41
57 94
58 111
59 245
60 68
61 9
63 12
65 69
66 31
67 28
70 27
71 36
72 3
73 338
74 124
75 89
76 7
77 144
78 56
79 41
81 6
84 21
85 19
86 19
90 15
91 125
92 46
93 101
95 20
99 35
100 37
102 42
103 55
104 145
105 114
106 90
107 29
108 37
109 33
117 1
118 90
119 109
120 159
121 82
122 39
123 26
130 39
131 3
132 66
133 86
134 116
135 192
136 120
137 45
144 18
146 25
147 62
148 107
149 150
150 35
151 19
160 37
161 44
162 154
163 71
164 103
165 16
175 10
176 122
177 55
178 999
179 429
180 239
181 78
204 6
220 146
221 56
222 21
234 44
235 224
236 85
237 3

$$$$

     RDKit          2D

 14 15  0  0  0  0  0  0  0  0999 V2000
    0.7001   -2.8466    0.0000 C   0  0  0  0  0  0  0  0  0  0  0  0
    2.1348   -4.1352    0.0000 C   0  0  0  0  0  0  0  0  0  0  0  0
   -2.3100    0.7500    0.0000 C   0  0  0  0  0  0  0  0  0  0  0  0
   -2.3100   -0.7500    0.0000 C   0  0  0  0  0  0  0  0  0  0  0  0
   -1.0100    1.5000    0.0000 C   0  0  0  0  0  0  0  0  0  0  0  0
   -1.0100   -1.5000    0.0000 C   0  0  0  0  0  0  0  0  0  0  0  0
    1.7200    1.2100    0.0000 C   0  0  0  0  0  0  0  0  0  0  0  0
    2.6000   -0.0000    0.0000 C   0  0  0  0  0  0  0  0  0  0  0  0
    3.6529   -2.9461    0.0000 C   0  0  0  0  0  0  0  0  0  0  0  0
    0.2900    0.7500    0.0000 C   0  0  0  0  0  0  0  0  0  0  0  0
    0.2900   -0.7500    0.0000 C   0  0  0  0  0  0  0  0  0  0  0  0
    4.1182   -4.3721    0.0000 Cl  0  0  0  0  0  0  0  0  0  0  0  0
    1.7200   -1.2100    0.0000 N   0  0  0  0  0  0  0  0  0  0  0  0
    2.1853   -2.6360    0.0000 Si  0  0  0  0  0  4  0  0  0  0  0  0
  4  3  2  0
  5  3  1  0
  6  4  1  0
  8  7  1  0
 10  5  2  0
 10  7  1  0
 11  6  2  0
 11 10  1  0
 12  9  1  0
 13  8  1  0
 13 11  1  0
 14  1  1  0
 14  2  1  0
 14  9  1  0
 14 13  1  0
M  END
>  <NAME>  (5416) 
N-(CHLOROMETHYLDIMETHYLSILYL)INDOLINE

>  <SYNONYMS>  (5416) 


>  <SPECTRUM TYPE>  (5416) 
MS1

>  <INSTRUMENT TYPE>  (5416) 
EI-B

>  <INSTRUMENT>  (5416) 
JEOL JMS-D-3000

>  <ION MODE>  (5416) 
P

>  <INCHIKEY>  (5416) 
HXPQWHXZBPQXHD-UHFFFAOYSA-N

>  <FORMULA>  (5416) 
C11H16ClNSi

>  <EXACT MASS>  (5416) 
225.074053722

>  <MW>  (5416) 
225

>  <ID>  (5416) 
JP001353

>  <CONTRIBUTOR>  (5416) 
University of Tokyo Team, {Faculty of Engineering, University of Tokyo

>  <COMMENT>  (5416) 
SMILES=ClC[Si](C)(C)N(C1)c(c2)c(ccc2)C1
InChI=InChI=1S/C11H16ClNSi/c1-14(2,9-12)13-8-7-10-5-3-4-6-11(10)13/h3-6H,7-9H2,1-2H3
computed SMILES=ClC[Si](N1C=2C=CC=CC2CC1)(C)C
accession=JP001353
date=2016.01.19 (Created 2008.10.21, modified 2011.05.06)
author=MASS SPECTROSCOPY SOC. OF JAPAN (MSSJ)
license=CC BY-NC-SA
exact mass=225.07405
ionization energy=70 eV
ion type=[M]+*
computed spectral entropy=3.205926539668842
computed normalized entropy=0.7830133714806131
SPLASH=splash10-014i-9700000000-066af58f7604babd1fad
submitter=submitter = University of Tokyo Team (Faculty of Engineering, University of Tokyo)
MoNA Rating=3.75

>  <NUM PEAKS>  (5416) 
60

>  <MASS SPECTRAL PEAKS>  (5416) 
43 2.33
45 4.51
47 4.35
49 2.23
50 3.84
51 5.26
52 1.45
53 1.02
57 1.58
59 26.72
60 2.31
61 2.93
62 4.46
63 12.87
64 5.18
65 4.94
74 2.17
75 36.63
76 6.29
77 3.38
78 1.29
79 5.34
80 1.37
81 9.19
83 2.31
86 1.02
87 1.88
88 3.01
89 27.15
90 44.91
91 12.68
92 1.47
93 2.55
103 2.39
104 1.96
105 1.26
107 1.23
109 1.12
115 1.66
117 99.99
118 25.8
119 9.48
120 1.42
130 2.12
131 3.14
132 4.3
133 1.98
146 1.1
147 1.1
173 2.31
174 9.08
175 1.69
176 20.48
177 3.27
178 1.1
223 2.44
224 1.26
225 9.11
226 1.88
227 2.87

>  <PREDICTED SPECTRUM>  (5416) 
14 12
26 21
27 46
28 51
29 18
31 12
35 37
36 50
37 25
38 95
39 255
40 89
41 117
42 87
43 87
44 166
45 177
46 54
47 77
48 13
49 152
50 202
51 296
52 190
53 150
54 77
55 147
56 152
57 98
58 113
59 340
60 52
61 195
62 157
63 351
64 188
65 319
66 82
67 48
68 13
69 37
70 50
71 22
72 25
73 173
74 188
75 367
76 188
77 251
78 230
79 175
80 69
81 141
82 37
86 0
87 48
88 7
89 421
90 353
91 515
92 177
93 220
94 7
95 54
97 33
98 26
102 115
103 63
104 172
105 134
106 91
107 90
109 53
115 151
116 63
117 999
118 606
119 428
120 52
121 19
128 3
129 20
130 64
131 54
132 110
133 59
135 19
144 54
146 121
147 27
148 18
158 39
160 52
174 252
175 131
176 806
177 352
178 172
212 21
225 336
226 158
227 230
228 103

$$$$

     RDKit          2D

 15 16  0  0  0  0  0  0  0  0999 V2000
    3.6113    2.1707    0.0000 C   0  0  0  0  0  0  0  0  0  0  0  0
    2.6506    4.0620    0.0000 C   0  0  0  0  0  0  0  0  0  0  0  0
    0.7593    3.1013    0.0000 C   0  0  0  0  0  0  0  0  0  0  0  0
    3.7146   -1.0039    0.0000 C   0  0  0  0  0  0  0  0  0  0  0  0
    3.7146    1.0039    0.0000 C   0  0  0  0  0  0  0  0  0  0  0  0
   -2.3100   -0.7500    0.0000 C   0  0  0  0  0  0  0  0  0  0  0  0
   -2.3100    0.7500    0.0000 C   0  0  0  0  0  0  0  0  0  0  0  0
   -1.0100   -1.5000    0.0000 C   0  0  0  0  0  0  0  0  0  0  0  0
   -1.0100    1.5000    0.0000 C   0  0  0  0  0  0  0  0  0  0  0  0
    1.7200   -1.2100    0.0000 C   0  0  0  0  0  0  0  0  0  0  0  0
    0.2900   -0.7500    0.0000 C   0  0  0  0  0  0  0  0  0  0  0  0
    0.2900    0.7500    0.0000 C   0  0  0  0  0  0  0  0  0  0  0  0
    1.7200    1.2100    0.0000 N   0  0  0  0  0  0  0  0  0  0  0  0
    2.1853    2.6360    0.0000 Si  0  0  0  0  0  4  0  0  0  0  0  0
    2.6000    0.0000    0.0000 Si  0  0  0  0  0  4  0  0  0  0  0  0
  7  6  2  0
  8  6  1  0
  9  7  1  0
 11  8  2  0
 11 10  1  0
 12  9  2  0
 12 11  1  0
 13 12  1  0
 14  1  1  0
 14  2  1  0
 14  3  1  0
 14 13  1  0
 15  4  1  0
 15  5  1  0
 15 10  1  0
 15 13  1  0
M  END
>  <NAME>  (5417) 
2,2-DIMETHYL-1-TRIMETHYLSILYL-2-SILAINDOLINE

>  <SYNONYMS>  (5417) 
2,2-DIMETHYL-1-TRIMETHYLSILYL-1-AZA-2-SILAINDAN

>  <SPECTRUM TYPE>  (5417) 
MS1

>  <INSTRUMENT TYPE>  (5417) 
EI-B

>  <INSTRUMENT>  (5417) 
JEOL JMS-D-3000

>  <ION MODE>  (5417) 
P

>  <INCHIKEY>  (5417) 
NEIMZHHLBBODEX-UHFFFAOYSA-N

>  <FORMULA>  (5417) 
C12H21NSi2

>  <EXACT MASS>  (5417) 
235.121252732

>  <MW>  (5417) 
235

>  <ID>  (5417) 
JP001352

>  <CONTRIBUTOR>  (5417) 
University of Tokyo Team, {Faculty of Engineering, University of Tokyo

>  <COMMENT>  (5417) 
SMILES=c(c2)cc(C1)c(c2)N([Si](C)(C)C)[Si](C)(C)1
InChI=InChI=1S/C12H21NSi2/c1-14(2,3)13-12-9-7-6-8-11(12)10-15(13,4)5/h6-9H,10H2,1-5H3
computed SMILES=C=1C=CC2=C(C1)N([Si](C)(C)C)[Si](C)(C)C2
accession=JP001352
date=2016.01.19 (Created 2008.10.21, modified 2011.05.06)
author=MASS SPECTROSCOPY SOC. OF JAPAN (MSSJ)
license=CC BY-NC-SA
exact mass=235.12125
ionization energy=70 eV
ion type=[M]+*
computed spectral entropy=3.2681178115956797
computed normalized entropy=0.7718553626478833
SPLASH=splash10-00di-3390000000-6d151730b14a2816539a
submitter=submitter = University of Tokyo Team (Faculty of Engineering, University of Tokyo)
MoNA Rating=3.75

>  <NUM PEAKS>  (5417) 
69

>  <MASS SPECTRAL PEAKS>  (5417) 
43 5.82
45 9.61
47 2.1
51 1.01
53 1.22
59 9.88
60 1.13
65 1.08
70 2.84
72 1.04
73 24.82
74 3.01
75 19.31
76 2.13
77 3.19
78 1.2
84 1.49
86 1.92
91 1.88
93 1.7
100 3.38
104 2.14
105 3.72
106 1.58
110 3.19
111 1.46
116 1.78
117 2.23
118 1.01
119 2.47
120 1.93
121 1.43
130 1.69
131 2.09
132 3.45
133 2.82
134 2.04
135 1.03
145 1.91
146 4.38
147 14.96
148 7.95
149 3.18
160 8.11
161 1.7
162 3.06
163 2.91
164 1.12
176 1.38
178 1.64
190 2.1
192 5.4
193 1.37
202 1.37
204 2.92
205 2.49
206 2.3
216 1.13
218 3.34
220 99.99
221 23.76
222 12.48
223 2.2
234 1.21
235 57.65
236 15.16
237 5.7
238 3.19
253 3.24

>  <PREDICTED SPECTRUM>  (5417) 
15 21
18 0
26 14
27 56
28 66
29 55
31 53
38 8
39 55
41 39
42 19
43 165
44 104
45 273
46 63
47 26
50 0
51 41
52 44
53 69
54 44
55 59
56 19
57 65
58 124
59 198
60 53
61 27
62 4
63 43
64 27
65 87
66 48
67 38
68 22
69 47
70 40
71 16
72 51
73 753
74 191
75 225
76 59
77 94
78 63
79 49
80 22
81 15
83 66
84 79
85 34
86 46
88 7
89 36
90 22
91 88
92 70
93 71
94 23
95 42
96 9
100 3
101 8
102 50
103 81
104 58
105 89
106 92
107 99
108 35
109 18
115 25
116 84
117 96
118 95
119 108
120 84
121 41
122 32
123 36
129 68
130 149
131 130
132 141
133 90
134 94
135 64
136 67
137 6
142 29
144 175
145 137
146 224
147 208
148 180
149 85
150 8
158 92
159 52
160 141
161 85
162 259
163 181
164 112
165 43
172 10
174 86
176 122
177 59
178 23
188 32
189 39
190 144
191 104
192 175
193 59
194 6
200 16
202 39
203 10
204 280
205 155
206 142
207 37
218 187
219 150
220 999
221 464
222 301
223 113
224 5
234 132
235 829
236 396
237 208
238 59

$$$$

     RDKit          2D

 12 13  0  0  0  0  0  0  0  0999 V2000
    2.1853    2.6360    0.0000 C   0  0  0  0  0  0  0  0  0  0  0  0
    3.7146   -1.0039    0.0000 C   0  0  0  0  0  0  0  0  0  0  0  0
    3.7146    1.0039    0.0000 C   0  0  0  0  0  0  0  0  0  0  0  0
   -2.3100   -0.7500    0.0000 C   0  0  0  0  0  0  0  0  0  0  0  0
   -2.3100    0.7500    0.0000 C   0  0  0  0  0  0  0  0  0  0  0  0
   -1.0100   -1.5000    0.0000 C   0  0  0  0  0  0  0  0  0  0  0  0
   -1.0100    1.5000    0.0000 C   0  0  0  0  0  0  0  0  0  0  0  0
    1.7200   -1.2100    0.0000 C   0  0  0  0  0  0  0  0  0  0  0  0
    0.2900   -0.7500    0.0000 C   0  0  0  0  0  0  0  0  0  0  0  0
    0.2900    0.7500    0.0000 C   0  0  0  0  0  0  0  0  0  0  0  0
    1.7200    1.2100    0.0000 N   0  0  0  0  0  0  0  0  0  0  0  0
    2.6000    0.0000    0.0000 Si  0  0  0  0  0  4  0  0  0  0  0  0
  5  4  2  0
  6  4  1  0
  7  5  1  0
  9  6  2  0
  9  8  1  0
 10  7  2  0
 10  9  1  0
 11  1  1  0
 11 10  1  0
 12  2  1  0
 12  3  1  0
 12  8  1  0
 12 11  1  0
M  END
>  <NAME>  (5418) 
1,2,2-TRIMETHYL-2-SILAINDOLINE

>  <SYNONYMS>  (5418) 


>  <SPECTRUM TYPE>  (5418) 
MS1

>  <INSTRUMENT TYPE>  (5418) 
EI-B

>  <INSTRUMENT>  (5418) 
JEOL JMS-D-3000

>  <ION MODE>  (5418) 
P

>  <INCHIKEY>  (5418) 
UOMQNMMLQAXCRY-UHFFFAOYSA-N

>  <FORMULA>  (5418) 
C10H15NSi

>  <EXACT MASS>  (5418) 
177.09737601

>  <MW>  (5418) 
177

>  <ID>  (5418) 
JP001351

>  <CONTRIBUTOR>  (5418) 
University of Tokyo Team, {Faculty of Engineering, University of Tokyo

>  <COMMENT>  (5418) 
SMILES=c(c2)cc(C1)c(c2)N(C)[Si](C)(C)1
InChI=InChI=1S/C10H15NSi/c1-11-10-7-5-4-6-9(10)8-12(11,2)3/h4-7H,8H2,1-3H3
computed SMILES=C=1C=CC2=C(C1)N(C)[Si](C)(C)C2
accession=JP001351
date=2016.01.19 (Created 2008.10.21, modified 2011.05.06)
author=MASS SPECTROSCOPY SOC. OF JAPAN (MSSJ)
license=CC BY-NC-SA
exact mass=177.09738
ionization energy=70 eV
ion type=[M]+*
computed spectral entropy=2.947269001261062
computed normalized entropy=0.745909189909244
SPLASH=splash10-01t9-2900000000-84c40c07d8c9d6c2e9e4
submitter=submitter = University of Tokyo Team (Faculty of Engineering, University of Tokyo)
MoNA Rating=3.75

>  <NUM PEAKS>  (5418) 
52

>  <MASS SPECTRAL PEAKS>  (5418) 
43 9.5
44 11.88
45 3.01
50 1.04
51 3
53 2.91
54 1.84
59 12.63
60 1.12
63 1.68
65 3.58
66 1.01
67 1.73
69 1.06
74 3.91
75 1.52
77 3.23
78 1.99
79 1.83
81 12.96
82 1.71
83 1.07
84 8.31
89 4.76
90 1.37
91 7.78
93 1.99
105 3.07
106 2.53
107 2.57
117 3.49
118 12.86
119 7.9
120 3.25
121 1.68
131 1.29
132 4.39
133 2.38
134 6.19
135 2.25
146 6.35
147 2.91
148 3.33
160 4.29
161 1.99
162 99.96
163 13.69
164 3.83
176 25.21
177 99.99
178 16.22
179 4.06

>  <PREDICTED SPECTRUM>  (5418) 
15 31
27 4
28 11
29 16
39 98
40 11
41 48
42 149
43 147
44 167
45 88
50 70
51 143
52 113
53 91
54 67
55 67
56 78
57 50
58 145
59 108
62 18
63 93
64 32
65 141
66 89
67 73
70 8
71 53
72 71
73 163
74 35
75 72
76 58
77 154
78 149
79 123
80 84
81 73
82 51
83 26
84 35
85 45
86 60
88 5
89 85
90 88
91 148
92 88
93 84
94 65
95 4
96 40
100 24
101 7
102 66
103 61
104 156
105 181
106 154
107 140
108 18
116 64
117 167
118 187
119 190
120 166
121 129
129 8
130 136
131 97
132 166
133 120
134 289
135 163
136 58
144 43
145 76
146 155
147 144
148 191
149 66
150 20
160 212
161 145
162 999
163 384
164 162
165 5
174 74
175 45
176 461
177 942
178 396
179 127
180 14

$$$$

     RDKit          2D

 15 15  0  0  0  0  0  0  0  0999 V2000
   -1.6764    5.8417    0.0000 C   0  0  0  0  0  0  0  0  0  0  0  0
   -3.6047    5.8417    0.0000 C   0  0  0  0  0  0  0  0  0  0  0  0
   -4.6896    5.2416    0.0000 C   0  0  0  0  0  0  0  0  0  0  0  0
   -5.2386    3.1926    0.0000 C   0  0  0  0  0  0  0  0  0  0  0  0
   -3.1896    2.6436    0.0000 C   0  0  0  0  0  0  0  0  0  0  0  0
    3.8546    0.9426    0.0000 C   0  0  0  0  0  0  0  0  0  0  0  0
    3.8551    2.4434    0.0000 C   0  0  0  0  0  0  0  0  0  0  0  0
    2.5551    0.1918    0.0000 C   0  0  0  0  0  0  0  0  0  0  0  0
    2.5561    3.1934    0.0000 C   0  0  0  0  0  0  0  0  0  0  0  0
    1.2561    0.9418    0.0000 C   0  0  0  0  0  0  0  0  0  0  0  0
   -0.0425    3.1926    0.0000 C   0  0  0  0  0  0  0  0  0  0  0  0
   -1.3415    3.9426    0.0000 C   0  0  0  0  0  0  0  0  0  0  0  0
    1.2566    2.4426    0.0000 C   0  0  0  0  0  0  0  0  0  0  0  0
   -2.6406    4.6926    0.0000 Ge  0  0  0  0  0  4  0  0  0  0  0  0
   -3.9396    3.9426    0.0000 Si  0  0  0  0  0  4  0  0  0  0  0  0
  7  6  2  0
  8  6  1  0
  9  7  1  0
 10  8  2  0
 12 11  3  0
 13  9  2  0
 13 10  1  0
 13 11  1  0
 14  1  1  0
 14  2  1  0
 14 12  1  0
 15  3  1  0
 15  4  1  0
 15  5  1  0
 15 14  1  0
M  END
>  <NAME>  (5419) 
DIMETHYL(PHENYLETHYNYL)TRIMETHYLSILYLGERMANE

>  <SYNONYMS>  (5419) 


>  <SPECTRUM TYPE>  (5419) 
MS1

>  <INSTRUMENT TYPE>  (5419) 
EI-B

>  <INSTRUMENT>  (5419) 
JEOL JMS-D-3000

>  <ION MODE>  (5419) 
P

>  <INCHIKEY>  (5419) 
LBNYGBSLQZPBGK-UHFFFAOYSA-N

>  <FORMULA>  (5419) 
C13H20GeSi

>  <EXACT MASS>  (5419) 
278.05460497

>  <MW>  (5419) 
278

>  <ID>  (5419) 
JP001349

>  <CONTRIBUTOR>  (5419) 
University of Tokyo Team, {Faculty of Engineering, University of Tokyo

>  <COMMENT>  (5419) 
SMILES=c(c1)ccc(c1)C#C[Ge](C)(C)[Si](C)(C)C
InChI=InChI=1S/C13H20GeSi/c1-14(2,15(3,4)5)12-11-13-9-7-6-8-10-13/h6-10H,1-5H3
computed SMILES=C(#C[Ge](C)(C)[Si](C)(C)C)C=1C=CC=CC1
accession=JP001349
date=2016.01.19 (Created 2008.10.21, modified 2011.05.06)
author=MASS SPECTROSCOPY SOC. OF JAPAN (MSSJ)
license=CC BY-NC-SA
exact mass=278.05461
ionization energy=70 eV
ion type=[M]+*
computed spectral entropy=3.3427642019560357
computed normalized entropy=0.8164345113499281
SPLASH=splash10-0bvi-1590000000-30c5448e5e1e5d45b521
submitter=submitter = University of Tokyo Team (Faculty of Engineering, University of Tokyo)
MoNA Rating=3.75

>  <NUM PEAKS>  (5419) 
60

>  <MASS SPECTRAL PEAKS>  (5419) 
45 1.99
73 32.37
74 2.88
75 2.09
85 3.48
87 4.23
88 1.49
89 5.72
91 1.44
100 2.98
102 4.78
103 1.24
104 5.27
105 2.14
106 1.09
119 1.24
131 2.34
135 1.14
145 2.39
147 12.99
149 17.67
150 6.42
151 23.3
152 1.49
153 5.27
159 99.99
160 16.13
161 4.78
171 5.72
173 8.46
174 2.98
175 10.05
177 2.19
188 1.44
189 1.49
190 1.39
201 3.08
203 4.08
204 1.69
205 5.52
207 1.84
233 1.24
245 1.04
247 1.34
259 33.31
260 6.32
261 46.41
262 20.61
263 64.44
264 12.59
265 15.28
266 2.83
274 26.99
275 5.82
276 36.65
277 18.32
278 54.38
279 10.7
280 13.74
281 2.68

>  <PREDICTED SPECTRUM>  (5419) 
39 33
43 6
45 22
51 59
59 130
73 734
74 237
75 123
76 84
77 95
85 235
86 37
87 246
88 98
89 269
91 49
93 75
97 26
100 186
101 9
102 95
103 39
104 168
105 155
113 86
115 163
117 57
119 132
120 32
121 67
129 20
130 30
131 261
132 53
133 9
135 74
141 31
143 66
144 31
145 120
146 61
147 207
148 193
149 463
150 230
151 526
152 110
153 295
158 126
159 829
160 419
161 305
162 16
163 1
166 70
167 142
171 175
172 84
173 341
174 190
175 305
176 129
177 204
178 30
185 75
186 7
187 164
188 82
189 185
195 55
197 123
201 88
202 68
203 246
204 125
205 85
231 18
233 47
235 28
243 125
244 68
247 180
248 5
259 728
260 294
261 848
262 509
263 999
264 451
265 529
266 213
267 84
273 118
274 632
275 434
276 728
277 739
278 882
279 441
280 477
281 179

$$$$

     RDKit          2D

 15 15  0  0  0  0  0  0  0  0999 V2000
   -4.6896    5.2416    0.0000 C   0  0  0  0  0  0  0  0  0  0  0  0
   -5.2386    3.1926    0.0000 C   0  0  0  0  0  0  0  0  0  0  0  0
   -3.1896    2.6436    0.0000 C   0  0  0  0  0  0  0  0  0  0  0  0
   -1.6764    5.8417    0.0000 C   0  0  0  0  0  0  0  0  0  0  0  0
   -3.6047    5.8417    0.0000 C   0  0  0  0  0  0  0  0  0  0  0  0
    3.8546    0.9426    0.0000 C   0  0  0  0  0  0  0  0  0  0  0  0
    3.8551    2.4434    0.0000 C   0  0  0  0  0  0  0  0  0  0  0  0
    2.5551    0.1918    0.0000 C   0  0  0  0  0  0  0  0  0  0  0  0
    2.5561    3.1934    0.0000 C   0  0  0  0  0  0  0  0  0  0  0  0
    1.2561    0.9418    0.0000 C   0  0  0  0  0  0  0  0  0  0  0  0
   -0.0425    3.1926    0.0000 C   0  0  0  0  0  0  0  0  0  0  0  0
   -1.3415    3.9426    0.0000 C   0  0  0  0  0  0  0  0  0  0  0  0
    1.2566    2.4426    0.0000 C   0  0  0  0  0  0  0  0  0  0  0  0
   -3.9396    3.9426    0.0000 Ge  0  0  0  0  0  4  0  0  0  0  0  0
   -2.6406    4.6926    0.0000 Si  0  0  0  0  0  4  0  0  0  0  0  0
  7  6  2  0
  8  6  1  0
  9  7  1  0
 10  8  2  0
 12 11  3  0
 13  9  2  0
 13 10  1  0
 13 11  1  0
 14  1  1  0
 14  2  1  0
 14  3  1  0
 15  4  1  0
 15  5  1  0
 15 12  1  0
 15 14  1  0
M  END
>  <NAME>  (5420) 
(DIMETHYL(PHENYLETHYNYL)SILYL)TRIMETHYLGERMANE

>  <SYNONYMS>  (5420) 


>  <SPECTRUM TYPE>  (5420) 
MS1

>  <INSTRUMENT TYPE>  (5420) 
EI-B

>  <INSTRUMENT>  (5420) 
JEOL JMS-D-3000

>  <ION MODE>  (5420) 
P

>  <INCHIKEY>  (5420) 
OSGGAEACJZIQGF-UHFFFAOYSA-N

>  <FORMULA>  (5420) 
C13H20GeSi

>  <EXACT MASS>  (5420) 
278.05460497

>  <MW>  (5420) 
278

>  <ID>  (5420) 
JP001348

>  <CONTRIBUTOR>  (5420) 
University of Tokyo Team, {Faculty of Engineering, University of Tokyo

>  <COMMENT>  (5420) 
SMILES=c(c1)ccc(c1)C#C[Si](C)(C)[Ge](C)(C)C
InChI=InChI=1S/C13H20GeSi/c1-14(2,3)15(4,5)12-11-13-9-7-6-8-10-13/h6-10H,1-5H3
computed SMILES=C(#C[Si](C)(C)[Ge](C)(C)C)C=1C=CC=CC1
accession=JP001348
date=2016.01.19 (Created 2008.10.21, modified 2011.05.06)
author=MASS SPECTROSCOPY SOC. OF JAPAN (MSSJ)
license=CC BY-NC-SA
exact mass=278.05461
ionization energy=70 eV
ion type=[M]+*
computed spectral entropy=3.1467772143900397
computed normalized entropy=0.8003348846906181
SPLASH=splash10-0a4i-2940000000-b0cdd6bd73631d1042aa
submitter=submitter = University of Tokyo Team (Faculty of Engineering, University of Tokyo)
MoNA Rating=3.75

>  <NUM PEAKS>  (5420) 
51

>  <MASS SPECTRAL PEAKS>  (5420) 
43 4.69
45 1.68
73 31.13
74 2.53
75 1.1
85 3.3
87 4.74
88 1.43
89 6.16
91 1.41
100 1.42
102 1.94
104 2.47
105 6.47
107 1.01
115 2.86
117 3.81
118 1.22
119 4.87
121 1.16
129 4.11
131 4.79
133 1.3
143 2.49
144 1.2
145 2.24
147 6.54
149 11.25
150 3.9
151 16.68
153 3.21
159 99.99
160 16.24
161 4.56
171 1.3
173 2.09
175 2.48
259 10.35
260 1.85
261 14.71
262 6.42
263 18.94
264 3.43
265 4.6
274 7.23
275 1.49
276 9.51
277 4.69
278 14.84
279 2.61
280 3.11

>  <PREDICTED SPECTRUM>  (5420) 
39 31
43 40
51 73
59 84
63 14
65 15
73 661
74 174
75 106
76 21
77 59
85 85
86 31
87 268
88 69
89 289
90 4
91 138
93 60
100 113
102 153
103 6
104 49
105 199
115 421
117 197
119 387
120 20
121 196
123 5
129 317
131 76
141 79
143 156
144 114
145 151
146 27
147 159
148 111
149 359
150 61
151 132
153 5
157 46
158 127
159 999
160 487
161 381
162 70
166 16
171 12
172 11
173 254
174 35
175 179
177 9
195 21
259 346
260 102
261 467
262 313
263 543
264 211
265 241
266 36
274 346
275 178
276 438
277 188
278 406
279 168
280 191
281 30

$$$$

     RDKit          2D

 13 13  0  0  0  0  0  0  0  0999 V2000
   -2.5989    1.5002    0.0000 C   0  0  0  0  0  0  0  0  0  0  0  0
    0.0000    3.0000    0.0000 C   0  0  0  0  0  0  0  0  0  0  0  0
   -2.5989   -1.5002    0.0000 C   0  0  0  0  0  0  0  0  0  0  0  0
    2.5989    1.5002    0.0000 C   0  0  0  0  0  0  0  0  0  0  0  0
   -0.0000   -3.0000    0.0000 C   0  0  0  0  0  0  0  0  0  0  0  0
   -1.3000    0.7500    0.0000 C   0  0  0  0  0  0  0  0  0  0  0  0
    0.0000    1.5000    0.0000 C   0  0  0  0  0  0  0  0  0  0  0  0
   -1.3000   -0.7500    0.0000 C   0  0  0  0  0  0  0  0  0  0  0  0
    1.3000    0.7500    0.0000 C   0  0  0  0  0  0  0  0  0  0  0  0
    0.0000   -1.5000    0.0000 C   0  0  0  0  0  0  0  0  0  0  0  0
    1.3000   -0.7500    0.0000 C   0  0  0  0  0  0  0  0  0  0  0  0
    3.8981   -0.7504    0.0000 Si  0  0  0  0  0  4  0  0  0  0  0  0
    2.5989   -1.5002    0.0000 Si  0  0  0  0  0  4  0  0  0  0  0  0
  6  1  1  0
  7  2  1  0
  7  6  2  0
  8  3  1  0
  8  6  1  0
  9  4  1  0
  9  7  1  0
 10  5  1  0
 10  8  2  0
 11  9  2  0
 11 10  1  0
 13 11  1  0
 13 12  1  0
M  END
>  <NAME>  (5421) 
PENTAMETHYLPHENYLDISILANE

>  <SYNONYMS>  (5421) 


>  <SPECTRUM TYPE>  (5421) 
MS1

>  <INSTRUMENT TYPE>  (5421) 
EI-B

>  <INSTRUMENT>  (5421) 
JEOL JMS-D-3000

>  <ION MODE>  (5421) 
P

>  <INCHIKEY>  (5421) 
DRMCADSYZXWPER-UHFFFAOYSA-N

>  <FORMULA>  (5421) 
C11H20Si2

>  <EXACT MASS>  (5421) 
208.1103537

>  <MW>  (5421) 
208

>  <ID>  (5421) 
JP001347

>  <CONTRIBUTOR>  (5421) 
University of Tokyo Team, {Faculty of Engineering, University of Tokyo

>  <COMMENT>  (5421) 
SMILES=[SiH3][SiH2]c(c(C)1)c(C)c(C)c(C)c(C)1
InChI=InChI=1S/C11H20Si2/c1-6-7(2)9(4)11(13-12)10(5)8(6)3/h13H2,1-5,12H3
computed SMILES=C=1(C(=C(C(=C(C1C)C)[SiH2][SiH3])C)C)C
accession=JP001347
date=2016.01.19 (Created 2008.10.21, modified 2011.05.06)
author=MASS SPECTROSCOPY SOC. OF JAPAN (MSSJ)
license=CC BY-NC-SA
exact mass=208.11035
ionization energy=70 eV
ion type=[M]+*
computed spectral entropy=1.8627259462523498
computed normalized entropy=0.6217931965070105
SPLASH=splash10-000i-1910000000-2c8e33975d7d33e2cd80
submitter=submitter = University of Tokyo Team (Faculty of Engineering, University of Tokyo)
MoNA Rating=3.75

>  <NUM PEAKS>  (5421) 
20

>  <MASS SPECTRAL PEAKS>  (5421) 
43 2.24
45 1.49
73 19.01
74 1.56
105 2.83
107 2.44
119 1.21
120 1.84
134 1.2
135 99.99
136 14.24
137 4.23
177 1.59
179 1.35
191 1.16
193 9.59
194 2.21
208 19.47
209 4.35
210 1.96

>  <PREDICTED SPECTRUM>  (5421) 
14 22
15 69
16 18
17 7
18 16
26 41
27 182
28 80
29 104
32 0
34 2
36 5
37 18
38 67
39 254
40 115
41 227
42 62
43 146
44 8
45 37
50 126
51 201
52 101
53 183
54 65
55 74
56 4
57 35
58 64
59 44
60 10
61 5
62 76
63 157
64 142
65 197
66 99
67 154
68 32
69 41
70 18
71 57
72 13
74 58
75 103
76 98
77 261
78 133
79 207
80 116
81 86
82 95
83 80
84 19
85 58
86 19
87 47
89 107
90 40
91 344
92 162
93 154
94 63
95 66
96 63
97 66
98 49
99 17
101 40
102 109
103 143
104 98
105 263
106 128
107 161
108 105
109 163
110 86
111 45
112 2
115 285
116 118
117 68
118 114
119 271
120 122
121 138
122 67
123 123
124 85
125 47
126 53
127 153
128 209
129 172
130 124
131 150
132 187
133 296
134 228
135 255
136 140
137 107
138 46
139 117
140 66
141 39
142 32
143 33
144 4
145 94
146 132
147 209
148 191
149 312
150 231
151 160
152 124
153 125
154 51
159 100
160 182
161 204
162 157
163 260
164 169
165 269
166 179
167 90
168 50
175 117
176 169
177 226
178 264
179 224
180 117
181 114
182 1
191 150
192 141
193 999
194 382
195 146
196 9
205 58
206 6
207 218
208 610
209 232
210 89

$$$$

     RDKit          2D

 13 13  0  0  0  0  0  0  0  0999 V2000
    1.6346   -2.6491    0.0000 C   0  0  0  0  0  0  0  0  0  0  0  0
    3.5629   -2.6494    0.0000 C   0  0  0  0  0  0  0  0  0  0  0  0
    4.6479   -2.0496    0.0000 C   0  0  0  0  0  0  0  0  0  0  0  0
    5.1972   -0.0006    0.0000 C   0  0  0  0  0  0  0  0  0  0  0  0
    3.1483    0.5487    0.0000 C   0  0  0  0  0  0  0  0  0  0  0  0
   -1.3000    0.7500    0.0000 C   0  0  0  0  0  0  0  0  0  0  0  0
    0.0000    1.5000    0.0000 C   0  0  0  0  0  0  0  0  0  0  0  0
   -1.3000   -0.7500    0.0000 C   0  0  0  0  0  0  0  0  0  0  0  0
    1.3000    0.7500    0.0000 C   0  0  0  0  0  0  0  0  0  0  0  0
   -0.0000   -1.5000    0.0000 C   0  0  0  0  0  0  0  0  0  0  0  0
    1.3000   -0.7500    0.0000 C   0  0  0  0  0  0  0  0  0  0  0  0
    2.5989   -1.5002    0.0000 Ge  0  0  0  0  0  4  0  0  0  0  0  0
    3.8981   -0.7504    0.0000 Si  0  0  0  0  0  4  0  0  0  0  0  0
  7  6  2  0
  8  6  1  0
  9  7  1  0
 10  8  2  0
 11  9  2  0
 11 10  1  0
 12  1  1  0
 12  2  1  0
 12 11  1  0
 13  3  1  0
 13  4  1  0
 13  5  1  0
 13 12  1  0
M  END
>  <NAME>  (5422) 
DIMETHYLPHENYL(TRIMETHYLSILYL)GERMANE

>  <SYNONYMS>  (5422) 


>  <SPECTRUM TYPE>  (5422) 
MS1

>  <INSTRUMENT TYPE>  (5422) 
EI-B

>  <INSTRUMENT>  (5422) 
JEOL JMS-D-3000

>  <ION MODE>  (5422) 
P

>  <INCHIKEY>  (5422) 
JVMCSXQIPYOLCJ-UHFFFAOYSA-N

>  <FORMULA>  (5422) 
C11H20GeSi

>  <EXACT MASS>  (5422) 
254.05460497

>  <MW>  (5422) 
254

>  <ID>  (5422) 
JP001346

>  <CONTRIBUTOR>  (5422) 
University of Tokyo Team, {Faculty of Engineering, University of Tokyo

>  <COMMENT>  (5422) 
SMILES=c(c1)ccc(c1)[Ge](C)(C)[Si](C)(C)C
InChI=InChI=1S/C11H20GeSi/c1-12(2,13(3,4)5)11-9-7-6-8-10-11/h6-10H,1-5H3
computed SMILES=C=1C=CC(=CC1)[Ge](C)(C)[Si](C)(C)C
accession=JP001346
date=2016.01.19 (Created 2008.10.21, modified 2011.05.06)
author=MASS SPECTROSCOPY SOC. OF JAPAN (MSSJ)
license=CC BY-NC-SA
exact mass=254.05461
ionization energy=70 eV
ion type=[M]+*
computed spectral entropy=3.035524910827609
computed normalized entropy=0.7759476124285701
SPLASH=splash10-000i-2930000000-964b15387fecaff1ab3d
submitter=submitter = University of Tokyo Team (Faculty of Engineering, University of Tokyo)
MoNA Rating=3.75

>  <NUM PEAKS>  (5422) 
50

>  <MASS SPECTRAL PEAKS>  (5422) 
43 1.15
44 1.09
45 3.91
73 33.44
74 2.18
75 1.66
78 1.28
85 2.18
87 3.33
89 3.27
91 1.09
100 1.34
102 1.47
104 2.88
107 1.73
119 1.02
121 1.02
135 99.99
136 13.28
137 4.87
147 3.46
149 4.23
150 2.31
151 5.39
153 1.54
162 2.63
164 3.78
165 1.66
166 4.49
168 1.02
177 6.16
179 8.47
180 3.78
181 11.29
182 1.21
183 2.75
235 8.08
236 1.92
237 12.32
238 5.07
239 14.76
240 2.63
241 3.27
250 6.41
251 1.41
252 8.27
253 4.55
254 10.71
255 2.37
256 2.82

>  <PREDICTED SPECTRUM>  (5422) 
15 23
26 7
27 62
28 106
29 69
31 54
39 106
40 30
41 63
43 325
44 110
45 196
47 15
50 62
51 218
52 7
53 72
55 106
56 2
57 90
58 82
59 239
63 61
65 83
67 8
69 79
70 27
71 111
72 99
73 932
74 273
75 151
76 91
77 330
78 80
79 12
81 64
83 69
85 296
86 54
87 235
88 70
89 289
90 29
91 307
92 19
93 68
95 10
97 85
98 95
99 118
100 237
101 176
102 165
103 116
104 175
105 306
106 92
107 139
108 63
109 67
110 11
111 123
115 312
116 38
117 167
118 60
119 397
120 138
121 305
122 2
123 76
124 36
125 184
126 120
127 170
128 64
129 38
131 215
133 48
134 88
135 639
136 287
137 251
138 82
139 88
141 26
142 14
143 220
144 98
145 285
146 88
147 260
148 110
149 266
150 126
151 295
152 114
153 221
154 94
155 172
156 43
158 20
159 174
161 158
162 74
163 68
165 24
171 129
173 84
175 151
177 83
179 147
180 56
181 17
207 79
209 112
211 136
221 101
222 128
223 378
224 178
225 139
226 75
233 9
235 718
236 247
237 946
238 438
239 999
240 364
241 540
242 164
243 14
250 272
251 133
252 285
253 156
254 352
255 141
256 235
257 44

$$$$

     RDKit          2D

 12 12  0  0  0  0  0  0  0  0999 V2000
    3.3481    2.7710    0.0000 C   0  0  0  0  0  0  0  0  0  0  0  0
    3.8971    4.8200    0.0000 C   0  0  0  0  0  0  0  0  0  0  0  0
    1.8481    5.3690    0.0000 C   0  0  0  0  0  0  0  0  0  0  0  0
   -3.8971    0.3200    0.0000 C   0  0  0  0  0  0  0  0  0  0  0  0
   -2.5976   -0.4308    0.0000 C   0  0  0  0  0  0  0  0  0  0  0  0
   -3.8976    1.8208    0.0000 C   0  0  0  0  0  0  0  0  0  0  0  0
   -1.2986    0.3192    0.0000 C   0  0  0  0  0  0  0  0  0  0  0  0
   -2.5986    2.5708    0.0000 C   0  0  0  0  0  0  0  0  0  0  0  0
    0.0000    2.5700    0.0000 C   0  0  0  0  0  0  0  0  0  0  0  0
    1.2990    3.3200    0.0000 C   0  0  0  0  0  0  0  0  0  0  0  0
   -1.2990    1.8200    0.0000 C   0  0  0  0  0  0  0  0  0  0  0  0
    2.5981    4.0700    0.0000 Si  0  0  0  0  0  4  0  0  0  0  0  0
  5  4  2  0
  6  4  1  0
  7  5  1  0
  8  6  2  0
 10  9  3  0
 11  7  2  0
 11  8  1  0
 11  9  1  0
 12  1  1  0
 12  2  1  0
 12  3  1  0
 12 10  1  0
M  END
>  <NAME>  (5423) 
TRIMETHYL(PHENYLETHYNYL)SILANE

>  <SYNONYMS>  (5423) 


>  <SPECTRUM TYPE>  (5423) 
MS1

>  <INSTRUMENT TYPE>  (5423) 
EI-B

>  <INSTRUMENT>  (5423) 
JEOL JMS-D-3000

>  <ION MODE>  (5423) 
P

>  <INCHIKEY>  (5423) 
UZIXCCMXZQWTPB-UHFFFAOYSA-N

>  <FORMULA>  (5423) 
C11H14Si

>  <EXACT MASS>  (5423) 
174.086476978

>  <MW>  (5423) 
174

>  <ID>  (5423) 
JP001345

>  <CONTRIBUTOR>  (5423) 
University of Tokyo Team, {Faculty of Engineering, University of Tokyo

>  <COMMENT>  (5423) 
SMILES=c(c1)ccc(c1)C#C[Si](C)(C)C
InChI=InChI=1S/C11H14Si/c1-12(2,3)10-9-11-7-5-4-6-8-11/h4-8H,1-3H3
computed SMILES=C(#C[Si](C)(C)C)C=1C=CC=CC1
accession=JP001345
date=2016.01.19 (Created 2008.10.21, modified 2011.05.06)
author=MASS SPECTROSCOPY SOC. OF JAPAN (MSSJ)
license=CC BY-NC-SA
exact mass=174.08648
ionization energy=70 eV
ion type=[M]+*
computed spectral entropy=1.6313459527965977
computed normalized entropy=0.6024060972476136
SPLASH=splash10-0a4i-0900000000-eb85ea523e793e5b1c6a
submitter=submitter = University of Tokyo Team (Faculty of Engineering, University of Tokyo)
MoNA Rating=3.75

>  <NUM PEAKS>  (5423) 
15

>  <MASS SPECTRAL PEAKS>  (5423) 
43 3.67
105 5.25
107 1.07
129 6.37
130 1.18
131 2.99
143 3.79
144 1.18
145 1.47
159 99.99
160 16.33
161 4.51
174 26.82
175 4.52
176 1.23

>  <PREDICTED SPECTRUM>  (5423) 
14 10
15 71
16 8
17 1
18 6
26 12
27 61
28 33
29 54
31 25
32 3
37 6
38 37
39 148
40 23
41 56
42 69
43 291
44 72
45 134
46 6
47 27
48 5
49 6
50 137
51 210
52 92
53 155
54 41
55 89
56 32
57 80
58 79
59 67
61 37
62 82
63 131
64 57
65 93
66 57
67 100
68 21
69 26
70 22
71 40
72 51
73 166
74 129
75 155
76 90
77 249
78 132
79 103
80 30
81 45
83 11
85 76
86 65
87 28
88 36
89 50
90 17
91 97
93 15
98 13
99 62
100 54
101 107
102 147
103 158
104 97
105 172
106 40
107 8
114 7
115 191
116 106
117 17
127 58
128 126
129 246
130 92
131 148
132 62
133 17
141 21
142 37
143 82
144 11
157 70
159 999
160 382
161 203
162 33
173 89
174 348
175 135
176 42

$$$$

     RDKit          2D

 15 14  0  0  0  0  0  0  0  0999 V2000
    5.0418    3.0405    0.0000 C   0  0  0  0  0  0  0  0  0  0  0  0
    3.3718    4.0047    0.0000 C   0  0  0  0  0  0  0  0  0  0  0  0
    2.3118    4.3396    0.0000 C   0  0  0  0  0  0  0  0  0  0  0  0
    0.6418    5.3037    0.0000 C   0  0  0  0  0  0  0  0  0  0  0  0
    5.6813    1.9785    0.0000 C   0  0  0  0  0  0  0  0  0  0  0  0
    3.0832    0.4785    0.0000 C   0  0  0  0  0  0  0  0  0  0  0  0
    5.1323   -0.0706    0.0000 C   0  0  0  0  0  0  0  0  0  0  0  0
   -0.5977    5.3265    0.0000 C   0  0  0  0  0  0  0  0  0  0  0  0
   -2.0977    3.8265    0.0000 C   0  0  0  0  0  0  0  0  0  0  0  0
   -0.5977    2.3265    0.0000 C   0  0  0  0  0  0  0  0  0  0  0  0
    3.6323    2.5275    0.0000 Ge  0  0  0  0  0  4  0  0  0  0  0  0
    0.9023    3.8265    0.0000 Ge  0  0  0  0  0  4  0  0  0  0  0  0
    1.6523    2.5275    0.0000 O   0  0  0  0  0  0  0  0  0  0  0  0
    4.3823    1.2285    0.0000 Si  0  0  0  0  0  4  0  0  0  0  0  0
   -0.5977    3.8265    0.0000 Si  0  0  0  0  0  4  0  0  0  0  0  0
 11  1  1  0
 11  2  1  0
 12  3  1  0
 12  4  1  0
 13 11  1  0
 13 12  1  0
 14  5  1  0
 14  6  1  0
 14  7  1  0
 14 11  1  0
 15  8  1  0
 15  9  1  0
 15 10  1  0
 15 12  1  0
M  END
>  <NAME>  (5424) 
1,1,3,3-TETRAMETHYL-1,3-BIS(TRIMETHYLSILYL)DIGERMOXANE

>  <SYNONYMS>  (5424) 


>  <SPECTRUM TYPE>  (5424) 
MS1

>  <INSTRUMENT TYPE>  (5424) 
EI-B

>  <INSTRUMENT>  (5424) 
JEOL JMS-D-3000

>  <ION MODE>  (5424) 
P

>  <INCHIKEY>  (5424) 
VWJRZDAXOVPKFT-UHFFFAOYSA-N

>  <FORMULA>  (5424) 
C10H30Ge2OSi2

>  <EXACT MASS>  (5424) 
370.02587423999995

>  <MW>  (5424) 
370

>  <ID>  (5424) 
JP001344

>  <CONTRIBUTOR>  (5424) 
University of Tokyo Team, {Faculty of Engineering, University of Tokyo

>  <COMMENT>  (5424) 
SMILES=C[Si](C)(C)[Ge](C)(C)O[Ge](C)(C)[Si](C)(C)C
InChI=InChI=1S/C10H30Ge2OSi2/c1-11(2,14(5,6)7)13-12(3,4)15(8,9)10/h1-10H3
computed SMILES=O([Ge](C)(C)[Si](C)(C)C)[Ge](C)(C)[Si](C)(C)C
accession=JP001344
date=2016.01.19 (Created 2008.10.21, modified 2011.05.06)
author=MASS SPECTROSCOPY SOC. OF JAPAN (MSSJ)
license=CC BY-NC-SA
exact mass=370.02588
ionization energy=70 eV
ion type=[M]+*
computed spectral entropy=3.9937589142207006
computed normalized entropy=0.8635205168664906
SPLASH=splash10-0kor-5973000000-369f97edd39d4819609f
submitter=submitter = University of Tokyo Team (Faculty of Engineering, University of Tokyo)
MoNA Rating=3.75

>  <NUM PEAKS>  (5424) 
102

>  <MASS SPECTRAL PEAKS>  (5424) 
45 2.62
52 1.5
58 1.03
63 1.68
71 1.5
73 99.99
74 9.28
75 5.06
76 3.56
85 9.28
87 10.78
88 3.75
89 13.69
102 16.88
103 1.59
115 10.78
117 10.6
118 2.9
119 15
121 4.03
145 2.43
147 4.03
149 4.87
150 1.5
151 5.15
153 1.59
158 1.5
159 27.01
160 5.44
161 2.62
162 1.59
171 4.5
173 22.32
174 4.03
175 29.36
176 9.94
177 35.36
178 4.31
179 8.81
180 1.68
181 1.87
185 1.87
187 3.75
188 1.5
189 4.87
190 1.5
191 5.25
192 1.59
193 4.12
200 7.12
201 5.53
202 16.6
203 11.91
204 36.58
205 15.66
206 37.05
207 10.41
208 24.29
209 3.56
229 2.53
231 3.09
232 1.5
233 3.75
247 1.59
259 5.06
260 1.59
261 6.47
262 3
263 8.16
264 2.43
265 1.78
273 1.4
275 3.09
276 1.78
277 3.56
278 1.68
279 2.62
303 1.59
305 3.47
307 1.87
308 1.5
309 1.68
359 1.78
361 3
362 1.87
363 6.47
364 2.62
365 7.31
366 2.9
367 5.34
368 1.87
369 1.87
374 2.53
376 6.56
377 3.56
378 13.03
379 5.06
380 13.22
381 6.09
382 10.03
383 3.09
384 4.31

>  <PREDICTED SPECTRUM>  (5424) 
27 0
41 11
43 49
45 93
47 6
55 61
57 27
59 335
69 20
71 30
73 999
74 211
75 246
77 60
83 76
85 310
87 525
88 114
89 255
91 83
95 49
97 95
99 138
100 70
101 330
102 166
103 131
104 115
105 88
106 92
107 23
111 14
112 29
113 83
115 611
116 50
117 831
118 426
119 757
121 226
123 40
125 99
126 22
127 56
129 146
130 72
131 112
132 105
133 121
135 16
139 21
141 44
143 85
145 221
146 69
149 48
154 0
155 67
156 12
157 122
159 49
161 85
167 31
169 47
171 48
172 46
173 98
174 54
175 45
179 38
183 46
185 100
186 34
187 217
189 74
190 14
191 18
195 95
203 37
205 67
207 2
209 43
211 15
213 137
214 107
215 236
216 54
217 173
219 142
221 31
222 3
223 56
227 1
229 12
230 107
231 68
232 106
233 172
234 66
235 163
236 56
237 45
238 42
243 40
247 55
250 17
251 271
252 46
253 117
258 59
259 49
260 0
261 30
263 141
264 36
265 50
266 3
267 162
269 36
271 0
275 18
278 71
281 52
282 71
283 169
323 57
325 62
339 14
342 18
349 162
350 9
351 525
353 599
354 283
355 404
356 98
357 311
358 39
366 120
367 105
368 321
369 121
370 231
371 27
372 174
373 22

$$$$

     RDKit          2D

 13 12  0  0  0  0  0  0  0  0999 V2000
    2.0490    3.0000    0.0000 C   0  0  0  0  0  0  0  0  0  0  0  0
    2.0490   -0.0000    0.0000 C   0  0  0  0  0  0  0  0  0  0  0  0
    3.5490    1.5000    0.0000 C   0  0  0  0  0  0  0  0  0  0  0  0
   -1.5000    0.9510    0.0000 C   0  0  0  0  0  0  0  0  0  0  0  0
   -0.9510   -1.0981    0.0000 C   0  0  0  0  0  0  0  0  0  0  0  0
    1.0981   -0.5490    0.0000 C   0  0  0  0  0  0  0  0  0  0  0  0
    1.0981    3.5490    0.0000 C   0  0  0  0  0  0  0  0  0  0  0  0
   -0.9510    4.0981    0.0000 C   0  0  0  0  0  0  0  0  0  0  0  0
   -1.5000    2.0490    0.0000 C   0  0  0  0  0  0  0  0  0  0  0  0
    0.5490    1.5000    0.0000 Si  0  0  0  0  0  4  0  0  0  0  0  0
    2.0490    1.5000    0.0000 Si  0  0  0  0  0  4  0  0  0  0  0  0
   -0.2010    0.2010    0.0000 Si  0  0  0  0  0  4  0  0  0  0  0  0
   -0.2010    2.7990    0.0000 Si  0  0  0  0  0  4  0  0  0  0  0  0
 11  1  1  0
 11  2  1  0
 11  3  1  0
 11 10  1  0
 12  4  1  0
 12  5  1  0
 12  6  1  0
 12 10  1  0
 13  7  1  0
 13  8  1  0
 13  9  1  0
 13 10  1  0
M  END
>  <NAME>  (5425) 
TRIS(TRIMETHYLSILYL)SILANE

>  <SYNONYMS>  (5425) 


>  <SPECTRUM TYPE>  (5425) 
MS1

>  <INSTRUMENT TYPE>  (5425) 
EI-B

>  <INSTRUMENT>  (5425) 
JEOL JMS-D-3000

>  <ION MODE>  (5425) 
P

>  <INCHIKEY>  (5425) 
SQMFULTZZQBFBM-UHFFFAOYSA-N

>  <FORMULA>  (5425) 
C9H28Si4

>  <EXACT MASS>  (5425) 
248.126807016

>  <MW>  (5425) 
248

>  <ID>  (5425) 
JP001341

>  <CONTRIBUTOR>  (5425) 
University of Tokyo Team, {Faculty of Engineering, University of Tokyo

>  <COMMENT>  (5425) 
SMILES=C[Si](C)(C)[SiH]([Si](C)(C)C)[Si](C)(C)C
InChI=InChI=1S/C9H28Si4/c1-11(2,3)10(12(4,5)6)13(7,8)9/h10H,1-9H3
computed SMILES=C[Si](C)(C)[SiH]([Si](C)(C)C)[Si](C)(C)C
accession=JP001341
date=2016.01.19 (Created 2008.10.21, modified 2011.05.06)
author=MASS SPECTROSCOPY SOC. OF JAPAN (MSSJ)
license=CC BY-NC-SA
exact mass=248.12681
ionization energy=70 eV
ion type=[M]+*
computed spectral entropy=3.083283158027008
computed normalized entropy=0.7841861379520612
SPLASH=splash10-00di-2920000000-4c1d76d873b84fcc22fa
submitter=submitter = University of Tokyo Team (Faculty of Engineering, University of Tokyo)
MoNA Rating=3.75

>  <NUM PEAKS>  (5425) 
51

>  <MASS SPECTRAL PEAKS>  (5425) 
44 1.54
45 2.84
59 4.79
73 96.72
74 6.85
75 3.2
86 2.57
99 7.53
100 9.3
101 7.75
102 1.97
103 1.41
113 4.88
114 9.16
115 25.3
116 7.39
117 8.69
118 1.59
129 31.46
130 5.08
131 16.98
132 2.64
133 1.43
143 3.87
144 1.54
145 12.39
146 2.48
147 1.07
157 8.04
158 4.48
159 97.69
160 97.64
161 2.51
162 10.15
163 1.86
171 2.86
172 1.86
173 22.94
174 99.99
175 25.84
176 12.84
177 2.01
187 1.05
233 33.37
234 10.33
235 5.58
236 1.36
248 50.62
249 16.15
250 9.18
251 2.17

>  <PREDICTED SPECTRUM>  (5425) 
27 17
28 23
31 36
43 100
44 52
45 289
46 80
47 13
55 6
57 64
58 43
59 359
60 100
61 24
66 2
70 18
71 52
72 130
73 999
74 243
75 236
83 1
85 99
86 147
87 101
91 25
99 23
100 136
101 115
102 104
103 112
104 39
113 13
115 78
116 17
117 140
118 43
129 249
130 239
131 205
132 174
133 57
141 48
142 53
143 122
144 55
145 325
146 137
147 252
148 0
159 346
160 361
161 115
162 13
173 52
174 309
175 137
176 51
188 48
219 31
233 197
234 126
235 33
236 3
248 184
249 82
250 37

$$$$

     RDKit          2D

 10  9  0  0  0  0  0  0  0  0999 V2000
    1.0514   -0.9240    0.0000 C   0  0  0  0  0  0  0  0  0  0  0  0
   -0.4486    1.6740    0.0000 C   0  0  0  0  0  0  0  0  0  0  0  0
   -0.9976   -0.3750    0.0000 C   0  0  0  0  0  0  0  0  0  0  0  0
    4.9486    1.3260    0.0000 C   0  0  0  0  0  0  0  0  0  0  0  0
    5.4976    3.3750    0.0000 C   0  0  0  0  0  0  0  0  0  0  0  0
    3.4486    3.9240    0.0000 C   0  0  0  0  0  0  0  0  0  0  0  0
    1.6005    1.1250    0.0000 C   0  0  0  0  0  0  0  0  0  0  0  0
    2.8995    1.8750    0.0000 C   0  0  0  0  0  0  0  0  0  0  0  0
    0.3014    0.3750    0.0000 C   0  0  0  0  0  0  0  0  0  0  0  0
    4.1986    2.6250    0.0000 Si  0  0  0  0  0  4  0  0  0  0  0  0
  8  7  3  0
  9  1  1  0
  9  2  1  0
  9  3  1  0
  9  7  1  0
 10  4  1  0
 10  5  1  0
 10  6  1  0
 10  8  1  0
M  END
>  <NAME>  (5426) 
3,3-DIMETHYL-1-TRIMETHYLSILYL-1-BUTYNE

>  <SYNONYMS>  (5426) 


>  <SPECTRUM TYPE>  (5426) 
MS1

>  <INSTRUMENT TYPE>  (5426) 
EI-B

>  <INSTRUMENT>  (5426) 
JEOL JMS-D-3000

>  <ION MODE>  (5426) 
P

>  <INCHIKEY>  (5426) 
GKWFJPNWRGGCSB-UHFFFAOYSA-N

>  <FORMULA>  (5426) 
C9H18Si

>  <EXACT MASS>  (5426) 
154.117777106

>  <MW>  (5426) 
154

>  <ID>  (5426) 
JP001340

>  <CONTRIBUTOR>  (5426) 
University of Tokyo Team, {Faculty of Engineering, University of Tokyo

>  <COMMENT>  (5426) 
SMILES=CC(C)(C)C#C[Si](C)(C)C
InChI=InChI=1S/C9H18Si/c1-9(2,3)7-8-10(4,5)6/h1-6H3
computed SMILES=C(#C[Si](C)(C)C)C(C)(C)C
accession=JP001340
date=2016.01.19 (Created 2008.10.21, modified 2011.05.06)
author=MASS SPECTROSCOPY SOC. OF JAPAN (MSSJ)
license=CC BY-NC-SA
exact mass=154.11778
ionization energy=70 eV
ion type=[M]+*
computed spectral entropy=2.066264070984723
computed normalized entropy=0.6589915109674094
SPLASH=splash10-000i-5900000000-8502336b1a5e6e3f0925
submitter=submitter = University of Tokyo Team (Faculty of Engineering, University of Tokyo)
MoNA Rating=3.75

>  <NUM PEAKS>  (5426) 
23

>  <MASS SPECTRAL PEAKS>  (5426) 
43 3.75
45 1.42
53 1.79
55 1.83
61 1.88
62 1.24
67 3.53
69 2.79
73 12.26
81 1.17
83 3.92
95 1.06
97 45.39
98 5.18
99 2.51
109 2.81
123 3.95
124 2.18
139 99.99
140 14.45
141 4.71
154 12.28
155 2.23

>  <PREDICTED SPECTRUM>  (5426) 
14 1
15 48
26 7
27 119
28 39
29 118
31 88
39 130
40 15
41 173
42 97
43 344
44 122
45 233
46 15
47 55
49 4
50 22
51 90
52 77
53 230
54 67
55 239
56 82
57 216
58 153
59 368
60 75
61 66
63 31
65 87
66 83
67 211
68 78
69 224
70 126
71 81
72 41
73 521
74 163
75 192
76 9
77 93
78 49
79 131
80 56
81 184
82 67
83 364
84 125
85 124
86 40
91 48
93 55
95 160
96 60
97 208
98 40
99 65
107 12
109 196
110 66
111 304
112 82
113 22
121 43
123 128
124 12
125 29
137 39
138 7
139 999
140 357
141 177
142 26
154 363
155 145

$$$$

     RDKit          2D

 10  9  0  0  0  0  0  0  0  0999 V2000
    1.3260   -0.6495    0.0000 C   0  0  0  0  0  0  0  0  0  0  0  0
   -0.1740    1.9486    0.0000 C   0  0  0  0  0  0  0  0  0  0  0  0
   -0.7231   -0.1005    0.0000 C   0  0  0  0  0  0  0  0  0  0  0  0
    3.9240    2.3505    0.0000 C   0  0  0  0  0  0  0  0  0  0  0  0
    4.4731    4.3995    0.0000 C   0  0  0  0  0  0  0  0  0  0  0  0
    2.4240    4.9486    0.0000 C   0  0  0  0  0  0  0  0  0  0  0  0
    1.8750    1.3995    0.0000 C   0  0  0  0  0  0  0  0  0  0  0  0
    1.8750    2.8995    0.0000 C   0  0  0  0  0  0  0  0  0  0  0  0
    0.5760    0.6495    0.0000 Ge  0  0  0  0  0  4  0  0  0  0  0  0
    3.1740    3.6495    0.0000 Si  0  0  0  0  0  4  0  0  0  0  0  0
  7  8  2  0
  9  1  1  0
  9  2  1  0
  9  3  1  0
  9  7  1  0
 10  4  1  0
 10  5  1  0
 10  6  1  0
 10  8  1  0
M  END
>  <NAME>  (5427) 
(E)-1-TRIMETHYLGERMYL-2-TRIMETHYLSILYLETHYLENE

>  <SYNONYMS>  (5427) 


>  <SPECTRUM TYPE>  (5427) 
MS1

>  <INSTRUMENT TYPE>  (5427) 
EI-B

>  <INSTRUMENT>  (5427) 
JEOL JMS-D-3000

>  <ION MODE>  (5427) 
P

>  <INCHIKEY>  (5427) 
VPXZBSSDIIKKIR-BQYQJAHWSA-N

>  <FORMULA>  (5427) 
C8H20GeSi

>  <EXACT MASS>  (5427) 
218.05460496999999

>  <MW>  (5427) 
218

>  <ID>  (5427) 
JP001339

>  <CONTRIBUTOR>  (5427) 
University of Tokyo Team, {Faculty of Engineering, University of Tokyo

>  <COMMENT>  (5427) 
SMILES=C[Si](C)(C)C([H])=C([H])[Ge](C)(C)C
InChI=InChI=1S/C8H20GeSi/c1-9(2,3)7-8-10(4,5)6/h7-8H,1-6H3/b8-7+
computed SMILES=C(=C[Ge](C)(C)C)[Si](C)(C)C
accession=JP001339
date=2016.01.19 (Created 2008.10.21, modified 2011.05.06)
author=MASS SPECTROSCOPY SOC. OF JAPAN (MSSJ)
license=CC BY-NC-SA
exact mass=218.05461
ionization energy=70 eV
ion type=[M]+*
computed spectral entropy=3.2753308021809726
computed normalized entropy=0.8173342846187535
SPLASH=splash10-0v4i-5940000000-1acf6a48f48b8f0ee7f1
submitter=submitter = University of Tokyo Team (Faculty of Engineering, University of Tokyo)
MoNA Rating=3.75

>  <NUM PEAKS>  (5427) 
55

>  <MASS SPECTRAL PEAKS>  (5427) 
43 6.5
45 14.06
53 1.17
55 2.45
58 2.19
59 3.08
67 1.02
69 1.14
73 99.99
74 7.91
75 3.92
83 10.12
84 1.56
85 4.36
87 6.51
88 1.94
89 8.83
91 3.09
93 1.33
94 1.7
97 2.09
99 8.1
100 2.72
101 16.57
102 3.63
103 22.55
104 10.28
105 28.34
106 1.66
107 6.2
115 31.56
116 1.41
117 42.04
118 13.68
119 55
120 2.09
121 11.9
125 2.91
127 4.12
128 1.61
129 5.53
131 1.45
199 29.93
200 3.92
201 42.06
202 17.07
203 57.53
204 7.94
205 14.41
206 1.74
214 3.02
216 4.24
217 1.77
218 5.68
220 1.38

>  <PREDICTED SPECTRUM>  (5427) 
39 53
40 6
41 67
43 203
45 27
51 22
53 23
55 95
58 61
59 233
69 59
70 10
71 131
72 48
73 741
74 266
75 154
76 32
81 4
83 151
84 98
85 521
86 22
87 508
88 301
89 494
90 71
91 269
93 77
95 90
97 91
98 59
99 418
100 290
101 440
102 403
103 383
104 344
105 382
106 143
107 180
108 39
109 108
111 19
112 5
113 172
114 82
115 706
116 29
117 709
118 421
119 999
120 33
121 235
123 49
125 42
126 47
127 80
128 23
129 161
131 53
133 1
135 63
137 23
143 37
144 16
161 29
171 57
173 81
183 18
184 75
185 19
187 102
197 50
198 5
199 667
200 189
201 795
202 441
203 809
204 260
205 455
206 96
214 242
215 4
216 254
217 116
218 211
219 73
220 116

$$$$

     RDKit          2D

 10 10  0  0  0  0  0  0  0  0999 V2000
    1.8487   -2.7991    0.0000 C   0  0  0  0  0  0  0  0  0  0  0  0
    3.8978   -2.2504    0.0000 C   0  0  0  0  0  0  0  0  0  0  0  0
   -1.3000    0.7500    0.0000 C   0  0  0  0  0  0  0  0  0  0  0  0
    0.0000    1.5000    0.0000 C   0  0  0  0  0  0  0  0  0  0  0  0
   -1.3000   -0.7500    0.0000 C   0  0  0  0  0  0  0  0  0  0  0  0
    1.3000    0.7500    0.0000 C   0  0  0  0  0  0  0  0  0  0  0  0
    0.0000   -1.5000    0.0000 C   0  0  0  0  0  0  0  0  0  0  0  0
    1.3000   -0.7500    0.0000 C   0  0  0  0  0  0  0  0  0  0  0  0
    3.3491   -0.2013    0.0000 Cl  0  0  0  0  0  0  0  0  0  0  0  0
    2.5989   -1.5002    0.0000 Ge  0  0  0  0  0  4  0  0  0  0  0  0
  4  3  2  0
  5  3  1  0
  6  4  1  0
  7  5  2  0
  8  6  2  0
  8  7  1  0
 10  1  1  0
 10  2  1  0
 10  8  1  0
 10  9  1  0
M  END
>  <NAME>  (5428) 
CHLORODIMETHYLPHENYLGERMANE

>  <SYNONYMS>  (5428) 


>  <SPECTRUM TYPE>  (5428) 
MS1

>  <INSTRUMENT TYPE>  (5428) 
EI-B

>  <INSTRUMENT>  (5428) 
JEOL JMS-D-3000

>  <ION MODE>  (5428) 
P

>  <INCHIKEY>  (5428) 
QBQSJNDUKDWNNK-UHFFFAOYSA-N

>  <FORMULA>  (5428) 
C8H11ClGe

>  <EXACT MASS>  (5428) 
215.976105832

>  <MW>  (5428) 
216

>  <ID>  (5428) 
JP001338

>  <CONTRIBUTOR>  (5428) 
University of Tokyo Team, {Faculty of Engineering, University of Tokyo

>  <COMMENT>  (5428) 
SMILES=c(c1)ccc(c1)[Ge](C)(C)Cl
InChI=InChI=1S/C8H11ClGe/c1-10(2,9)8-6-4-3-5-7-8/h3-7H,1-2H3
computed SMILES=Cl[Ge](C=1C=CC=CC1)(C)C
accession=JP001338
date=2016.01.19 (Created 2008.10.21, modified 2011.05.06)
author=MASS SPECTROSCOPY SOC. OF JAPAN (MSSJ)
license=CC BY-NC-SA
exact mass=215.97611
ionization energy=70 eV
ion type=[M]+*
computed spectral entropy=3.5679584286641393
computed normalized entropy=0.8263968156571817
SPLASH=splash10-0udj-4960000000-8d50a3ac33a52498a0fb
submitter=submitter = University of Tokyo Team (Faculty of Engineering, University of Tokyo)
MoNA Rating=3.75

>  <NUM PEAKS>  (5428) 
75

>  <MASS SPECTRAL PEAKS>  (5428) 
50 7.69
51 26.76
52 2.4
63 2.89
65 9.27
70 1.11
72 1.42
74 2.23
75 1.57
76 1.08
77 19.25
78 4.56
85 6.76
87 8.69
88 3.08
89 11.25
90 1.03
91 15.44
92 1.49
95 3.76
97 5.13
98 1.68
99 6.53
100 2.75
101 2.01
105 11.31
107 18.6
108 4.65
109 24.84
110 1.85
111 11.28
113 1.95
121 2.81
122 1.85
123 3.8
124 2.55
125 3.28
135 3.27
137 4.13
138 1.38
139 5.13
141 2.11
147 6.16
149 7.54
150 2.66
151 9.47
153 1.95
159 1.13
163 1.37
165 1.28
177 6.36
179 8.6
180 3.16
181 11.25
182 3.11
183 3.43
184 3.43
185 1.8
186 4.24
188 1.8
197 45.77
198 4.06
199 74.21
200 23.39
201 99.99
202 13.51
203 42.37
204 3.32
205 5.74
212 5.17
214 8.36
215 2.66
216 11.11
217 1.63
218 4.88

>  <PREDICTED SPECTRUM>  (5428) 
14 2
26 19
27 40
28 42
31 56
36 33
37 7
38 54
39 149
40 46
41 40
43 111
44 36
45 29
49 13
50 154
51 356
52 36
53 63
55 37
57 10
61 11
62 72
63 233
64 28
65 202
66 36
67 45
69 77
70 91
71 71
72 39
73 35
74 178
75 82
76 22
77 379
78 150
79 9
80 32
81 69
83 93
84 26
85 220
86 25
87 260
88 116
89 317
90 94
91 355
93 43
95 109
97 190
98 166
99 211
100 189
101 176
102 131
103 123
104 65
105 276
106 73
107 255
108 73
109 269
110 80
111 229
112 15
113 84
114 75
115 124
116 112
117 97
118 108
119 99
120 122
121 165
122 78
123 223
124 191
125 191
126 23
127 27
130 5
131 73
132 27
133 117
134 45
135 220
136 107
137 317
138 59
139 249
141 101
149 12
150 27
151 151
152 59
153 54
163 121
164 73
165 153
167 53
169 52
171 3
177 137
178 61
179 235
181 327
182 156
183 263
184 133
185 135
187 53
195 67
197 666
198 162
199 938
200 471
201 999
202 350
203 662
204 189
205 118
212 231
213 72
214 237
215 128
216 323
217 139
218 232
219 15

$$$$

     RDKit          2D

  7  6  0  0  0  0  0  0  0  0999 V2000
   -0.0000   -0.0000    0.0000 C   0  0  0  0  0  0  0  0  0  0  0  0
   -1.8481    0.2010    0.0000 C   0  0  0  0  0  0  0  0  0  0  0  0
   -3.8971    0.7500    0.0000 C   0  0  0  0  0  0  0  0  0  0  0  0
   -3.3481    2.7990    0.0000 C   0  0  0  0  0  0  0  0  0  0  0  0
   -0.0000    1.5000    0.0000 C   0  0  0  0  0  0  0  0  0  0  0  0
   -1.2990    2.2500    0.0000 C   0  0  0  0  0  0  0  0  0  0  0  0
   -2.5981    1.5000    0.0000 Si  0  0  0  0  0  4  0  0  0  0  0  0
  5  1  1  0
  5  6  2  0
  7  2  1  0
  7  3  1  0
  7  4  1  0
  7  6  1  0
M  END
>  <NAME>  (5429) 
(Z)-1-TRIMETHYSILYLPROPENE

>  <SYNONYMS>  (5429) 


>  <SPECTRUM TYPE>  (5429) 
MS1

>  <INSTRUMENT TYPE>  (5429) 
EI-B

>  <INSTRUMENT>  (5429) 
JEOL JMS-D-3000

>  <ION MODE>  (5429) 
P

>  <INCHIKEY>  (5429) 
UDYJJCZCPMQSQG-WAYWQWQTSA-N

>  <FORMULA>  (5429) 
C6H14Si

>  <EXACT MASS>  (5429) 
114.086476978

>  <MW>  (5429) 
114

>  <ID>  (5429) 
JP001337

>  <CONTRIBUTOR>  (5429) 
University of Tokyo Team, {Faculty of Engineering, University of Tokyo

>  <COMMENT>  (5429) 
SMILES=[H]C(C)=C([H])[Si](C)(C)C
InChI=InChI=1S/C6H14Si/c1-5-6-7(2,3)4/h5-6H,1-4H3/b6-5-
computed SMILES=C(=C[Si](C)(C)C)C
accession=JP001337
date=2016.01.19 (Created 2008.10.21, modified 2011.05.06)
author=MASS SPECTROSCOPY SOC. OF JAPAN (MSSJ)
license=CC BY-NC-SA
exact mass=114.08648
ionization energy=70 eV
ion type=[M]+*
computed spectral entropy=1.8114146671807054
computed normalized entropy=0.6393498996398782
SPLASH=splash10-0002-9000000000-07ffa1f0050bcd2ba9e6
submitter=submitter = University of Tokyo Team (Faculty of Engineering, University of Tokyo)
MoNA Rating=3.75

>  <NUM PEAKS>  (5429) 
17

>  <MASS SPECTRAL PEAKS>  (5429) 
43 2.94
46 1.38
57 1.43
58 3.07
59 33.85
60 3.38
61 1.43
67 3.03
73 38.23
75 4.33
78 5.37
82 1.6
83 1.99
99 99.99
100 7.23
101 2.86
114 6.37

>  <PREDICTED SPECTRUM>  (5429) 
14 1
15 40
26 2
27 49
28 3
29 68
31 112
39 94
41 14
42 61
43 293
44 118
45 259
46 7
53 81
55 146
57 91
58 141
59 640
60 121
61 104
67 82
69 68
71 100
72 175
73 749
74 183
75 136
83 131
85 16
97 124
98 32
99 999
100 293
101 191
113 60
114 277
115 104
116 1

$$$$

     RDKit          2D

 14 14  0  0  0  0  0  0  0  0999 V2000
   -9.0942    0.7512    0.0000 C   0  0  0  0  0  0  0  0  0  0  0  0
   -7.7951    1.5010    0.0000 C   0  0  0  0  0  0  0  0  0  0  0  0
   -6.4962    0.7508    0.0000 C   0  0  0  0  0  0  0  0  0  0  0  0
   -1.3000   -0.7500    0.0000 C   0  0  0  0  0  0  0  0  0  0  0  0
    0.0000    1.5000    0.0000 C   0  0  0  0  0  0  0  0  0  0  0  0
    0.0000   -1.5000    0.0000 C   0  0  0  0  0  0  0  0  0  0  0  0
    1.3000    0.7500    0.0000 C   0  0  0  0  0  0  0  0  0  0  0  0
   -5.1970    1.5006    0.0000 C   0  0  0  0  0  0  0  0  0  0  0  0
   -1.3000    0.7500    0.0000 C   0  0  0  0  0  0  0  0  0  0  0  0
    1.3000   -0.7500    0.0000 C   0  0  0  0  0  0  0  0  0  0  0  0
   -2.5989    1.5002    0.0000 C   0  0  0  0  0  0  0  0  0  0  0  0
    2.5989   -1.5002    0.0000 N   0  0  0  0  0  0  0  0  0  0  0  0
   -2.5987    3.0002    0.0000 O   0  0  0  0  0  0  0  0  0  0  0  0
   -3.8981    0.7504    0.0000 O   0  0  0  0  0  0  0  0  0  0  0  0
  2  1  1  0
  3  2  1  0
  6  4  2  0
  7  5  1  0
  8  3  1  0
  9  4  1  0
  9  5  2  0
 10  6  1  0
 10  7  2  0
 11  9  1  0
 12 10  1  0
 13 11  2  0
 14  8  1  0
 14 11  1  0
M  END
>  <NAME>  (5430) 
PARA-AMINOBENZOIC ACID BUTYL ESTER

>  <SYNONYMS>  (5430) 
BUTYL 4-AMINOBENZOATE

>  <SPECTRUM TYPE>  (5430) 
MS1

>  <INSTRUMENT TYPE>  (5430) 
EI-B

>  <INSTRUMENT>  (5430) 
HITACHI RMU-7M

>  <ION MODE>  (5430) 
P

>  <INCHIKEY>  (5430) 
IUWVALYLNVXWKX-UHFFFAOYSA-N

>  <FORMULA>  (5430) 
C11H15NO2

>  <EXACT MASS>  (5430) 
193.11027872

>  <MW>  (5430) 
193

>  <ID>  (5430) 
JP001336

>  <CONTRIBUTOR>  (5430) 
University of Tokyo Team, {Faculty of Engineering, University of Tokyo

>  <COMMENT>  (5430) 
SMILES=CCCCOC(=O)c(c1)ccc(N)c1
InChI=InChI=1S/C11H15NO2/c1-2-3-8-14-11(13)9-4-6-10(12)7-5-9/h4-7H,2-3,8,12H2,1H3
computed SMILES=O=C(OCCCC)C1=CC=C(N)C=C1
accession=JP001336
date=2016.01.19 (Created 2008.10.21, modified 2011.05.06)
author=TAJIMA S, GUNMA COLLEGE OF TECHNOLOGY
license=CC BY-NC-SA
exact mass=193.11028
ionization energy=70 eV
ion type=[M]+*
computed spectral entropy=2.1770676330386616
computed normalized entropy=0.6850317047022163
SPLASH=splash10-00dr-2900000000-906b8d78dc5d3ad39b7d
submitter=submitter = University of Tokyo Team (Faculty of Engineering, University of Tokyo)
MoNA Rating=3.75

>  <NUM PEAKS>  (5430) 
24

>  <MASS SPECTRAL PEAKS>  (5430) 
27 1.64
29 2.34
39 5.07
41 3.98
43 1.56
55 1.72
57 1.56
63 2.18
64 2.42
65 15.83
66 4.13
91 3.28
92 21.06
93 8.19
106 6.16
107 4.06
108 2.26
119 3.82
120 99.99
121 9.2
137 87.6
138 8.11
193 11.7
194 1.48

>  <PREDICTED SPECTRUM>  (5430) 
26 25
27 108
28 58
29 197
37 16
38 61
39 256
40 72
41 357
42 118
43 24
50 26
51 69
52 116
53 92
54 50
55 75
56 188
57 100
61 40
62 47
63 155
64 184
65 487
66 145
73 64
74 5
75 63
76 16
77 50
78 15
79 17
80 100
81 59
90 77
91 120
92 568
93 345
94 104
106 112
108 43
109 94
118 56
119 128
120 999
121 261
122 118
136 20
137 911
138 316
150 116
193 482
194 177

$$$$

     RDKit          2D

 10 10  0  0  0  0  0  0  0  0999 V2000
    2.2872   -2.0404    0.0000 C   0  0  0  0  0  0  0  0  0  0  0  0
    1.0155   -2.7876    0.0000 C   0  0  0  0  0  0  0  0  0  0  0  0
    2.2741   -0.5582    0.0000 C   0  0  0  0  0  0  0  0  0  0  0  0
   -0.3012   -2.0691    0.0000 C   0  0  0  0  0  0  0  0  0  0  0  0
    0.9894    0.1768    0.0000 C   0  0  0  0  0  0  0  0  0  0  0  0
   -0.2823   -0.5704    0.0000 C   0  0  0  0  0  0  0  0  0  0  0  0
    0.9807    1.6767    0.0000 C   0  0  0  0  0  0  0  0  0  0  0  0
   -1.5794    0.1829    0.0000 N   0  0  0  0  0  0  0  0  0  0  0  0
   -0.3226    2.4192    0.0000 O   0  0  0  0  0  0  0  0  0  0  0  0
    2.2754    2.4342    0.0000 O   0  0  0  0  0  0  0  0  0  0  0  0
  2  1  2  0
  3  1  1  0
  4  2  1  0
  5  3  2  0
  6  4  2  0
  6  5  1  0
  7  5  1  0
  8  6  1  0
  9  7  2  0
 10  7  1  0
M  END
>  <NAME>  (5431) 
ORTH0-AMINOBENZOIC ACID

>  <SYNONYMS>  (5431) 
ANTHRANILIC ACID

>  <SPECTRUM TYPE>  (5431) 
MS1

>  <INSTRUMENT TYPE>  (5431) 
EI-B

>  <INSTRUMENT>  (5431) 
HITACHI RMU-7M

>  <ION MODE>  (5431) 
P

>  <INCHIKEY>  (5431) 
RWZYAGGXGHYGMB-UHFFFAOYSA-N

>  <FORMULA>  (5431) 
C7H7NO2

>  <EXACT MASS>  (5431) 
137.047678464

>  <MW>  (5431) 
137

>  <ID>  (5431) 
JP001335

>  <CONTRIBUTOR>  (5431) 
University of Tokyo Team, {Faculty of Engineering, University of Tokyo

>  <COMMENT>  (5431) 
SMILES=OC(=O)c(c1)c(N)ccc1
InChI=InChI=1S/C7H7NO2/c8-6-4-2-1-3-5(6)7(9)10/h1-4H,8H2,(H,9,10)
computed SMILES=O=C(O)C=1C=CC=CC1N
accession=JP001335
date=2016.01.19 (Created 2008.10.21, modified 2011.05.06)
author=TAJIMA S, GUNMA COLLEGE OF TECHNOLOGY
license=CC BY-NC-SA
exact mass=137.04768
ionization energy=70 eV
ion type=[M]+*
computed spectral entropy=2.803444149960206
computed normalized entropy=0.7763799171793643
SPLASH=splash10-00kf-9400000000-b65ee27505e8c4bcca28
submitter=submitter = University of Tokyo Team (Faculty of Engineering, University of Tokyo)
MoNA Rating=3.75

>  <NUM PEAKS>  (5431) 
37

>  <MASS SPECTRAL PEAKS>  (5431) 
29 2.41
38 3.46
39 10.2
40 2.41
41 7.99
42 2.21
43 5.44
44 10.89
50 2.76
51 2.89
52 4.2
55 5.86
56 3.79
57 5.03
62 2.76
63 7.72
64 10.89
65 21.57
66 25.5
67 3.51
69 4.96
70 4.14
71 2.69
77 3.31
83 4.07
90 2.41
91 12.34
92 72.64
93 77.74
94 5.93
97 4.07
105 2.62
115 3.38
119 99.99
120 13.99
137 49.9
138 4.34

>  <PREDICTED SPECTRUM>  (5431) 
17 26
18 28
25 19
26 82
27 126
28 151
29 114
36 93
37 191
38 258
39 506
40 196
41 387
42 123
43 172
44 117
45 207
49 106
50 285
51 298
52 385
53 319
54 149
55 141
56 35
57 26
58 23
60 38
61 152
62 260
63 549
64 493
65 634
66 121
67 103
70 44
71 4
73 20
74 149
75 230
76 77
77 200
79 133
80 49
83 53
87 2
90 397
91 999
92 768
93 196
118 128
119 950
120 409
137 992
138 299
139 52

$$$$

     RDKit          2D

 20 20  0  0  0  0  0  0  0  0999 V2000
   -2.9381    6.9356    0.0000 C   0  0  0  0  0  0  0  0  0  0  0  0
   -4.2334    4.6835    0.0000 C   0  0  0  0  0  0  0  0  0  0  0  0
    7.4651    0.9410    0.0000 C   0  0  0  0  0  0  0  0  0  0  0  0
    6.1664   -1.3092    0.0000 C   0  0  0  0  0  0  0  0  0  0  0  0
   -1.6200   -1.3100    0.0000 C   0  0  0  0  0  0  0  0  0  0  0  0
   -0.3300   -2.0600    0.0000 C   0  0  0  0  0  0  0  0  0  0  0  0
   -1.6200    0.1900    0.0000 C   0  0  0  0  0  0  0  0  0  0  0  0
    0.9700   -1.3100    0.0000 C   0  0  0  0  0  0  0  0  0  0  0  0
   -1.6353    4.6878    0.0000 C   0  0  0  0  0  0  0  0  0  0  0  0
    4.8670    0.9406    0.0000 C   0  0  0  0  0  0  0  0  0  0  0  0
   -2.9356    5.4356    0.0000 C   0  0  0  0  0  0  0  0  0  0  0  0
    6.1662    0.1908    0.0000 C   0  0  0  0  0  0  0  0  0  0  0  0
   -0.3300    0.9400    0.0000 C   0  0  0  0  0  0  0  0  0  0  0  0
    0.9700    0.1900    0.0000 C   0  0  0  0  0  0  0  0  0  0  0  0
   -0.3325    2.4400    0.0000 C   0  0  0  0  0  0  0  0  0  0  0  0
    2.2689    0.9402    0.0000 C   0  0  0  0  0  0  0  0  0  0  0  0
    0.9653    3.1922    0.0000 O   0  0  0  0  0  0  0  0  0  0  0  0
    2.2687    2.4402    0.0000 O   0  0  0  0  0  0  0  0  0  0  0  0
   -1.6328    3.1878    0.0000 O   0  0  0  0  0  0  0  0  0  0  0  0
    3.5681    0.1904    0.0000 O   0  0  0  0  0  0  0  0  0  0  0  0
  6  5  2  0
  7  5  1  0
  8  6  1  0
 11  1  1  0
 11  2  1  0
 11  9  1  0
 12  3  1  0
 12  4  1  0
 12 10  1  0
 13  7  2  0
 14  8  2  0
 14 13  1  0
 15 13  1  0
 16 14  1  0
 17 15  2  0
 18 16  2  0
 19  9  1  0
 19 15  1  0
 20 10  1  0
 20 16  1  0
M  END
>  <NAME>  (5432) 
DIISOBUTYL PHTHALATE

>  <SYNONYMS>  (5432) 
PHTHALIC ACID DIISOBUTYL ESTER

>  <SPECTRUM TYPE>  (5432) 
MS1

>  <INSTRUMENT TYPE>  (5432) 
EI-B

>  <INSTRUMENT>  (5432) 
HITACHI RMU-7M

>  <ION MODE>  (5432) 
P

>  <INCHIKEY>  (5432) 
MGWAVDBGNNKXQV-UHFFFAOYSA-N

>  <FORMULA>  (5432) 
C16H22O4

>  <EXACT MASS>  (5432) 
278.151809184

>  <MW>  (5432) 
278

>  <ID>  (5432) 
JP001328

>  <CONTRIBUTOR>  (5432) 
University of Tokyo Team, {Faculty of Engineering, University of Tokyo

>  <COMMENT>  (5432) 
SMILES=CC(C)COC(=O)c(c1)c(ccc1)C(=O)OCC(C)C
InChI=InChI=1S/C16H22O4/c1-11(2)9-19-15(17)13-7-5-6-8-14(13)16(18)20-10-12(3)4/h5-8,11-12H,9-10H2,1-4H3
computed SMILES=O=C(OCC(C)C)C=1C=CC=CC1C(=O)OCC(C)C
accession=JP001328
date=2016.01.19 (Created 2008.10.21, modified 2011.05.06)
author=TAJIMA S, GUNMA COLLEGE OF TECHNOLOGY
license=CC BY-NC-SA
exact mass=278.15181
ionization energy=70 eV
ion type=[M]+*
computed spectral entropy=1.5473212745383393
computed normalized entropy=0.5713783569848744
SPLASH=splash10-0002-2900000000-abec18892ce4da3756e0
submitter=submitter = University of Tokyo Team (Faculty of Engineering, University of Tokyo)
MoNA Rating=3.75

>  <NUM PEAKS>  (5432) 
15

>  <MASS SPECTRAL PEAKS>  (5432) 
29 2.74
41 6.13
56 2.74
57 14.51
65 1.75
76 3.61
93 2.35
104 5.15
105 1.37
121 2.68
149 99.99
150 8.87
167 3.67
205 1.59
223 2.25

>  <PREDICTED SPECTRUM>  (5432) 
27 66
28 14
29 167
39 84
40 7
41 182
42 51
43 98
44 16
50 90
51 25
53 34
55 70
56 157
57 312
58 31
63 16
65 178
66 31
69 4
70 18
73 46
74 54
75 27
76 177
77 98
78 2
83 11
93 109
104 256
105 137
121 189
122 97
123 25
132 72
133 20
149 999
150 296
151 43
167 155
205 175
206 110
223 231
224 45

$$$$

     RDKit          2D

 10 10  0  0  0  0  0  0  0  0999 V2000
   -1.6700   -0.9600    0.0000 C   0  0  0  0  0  0  0  0  0  0  0  0
   -0.3700   -1.7100    0.0000 C   0  0  0  0  0  0  0  0  0  0  0  0
   -1.6700    0.5400    0.0000 C   0  0  0  0  0  0  0  0  0  0  0  0
    0.9300   -0.9600    0.0000 C   0  0  0  0  0  0  0  0  0  0  0  0
   -0.3700    1.2900    0.0000 C   0  0  0  0  0  0  0  0  0  0  0  0
    0.9300    0.5400    0.0000 C   0  0  0  0  0  0  0  0  0  0  0  0
    2.9791   -0.0087    0.0000 Cl  0  0  0  0  0  0  0  0  0  0  0  0
    3.5278    2.0404    0.0000 O   0  0  0  0  0  0  0  0  0  0  0  0
    1.4787    2.5891    0.0000 O   0  0  0  0  0  0  0  0  0  0  0  0
    2.2289    1.2902    0.0000 S   0  0  0  0  0  0  0  0  0  0  0  0
  2  1  2  0
  3  1  1  0
  4  2  1  0
  5  3  2  0
  6  4  2  0
  6  5  1  0
 10  6  1  0
 10  7  1  0
 10  8  2  0
 10  9  2  0
M  END
>  <NAME>  (5433) 
BENZENESULFONYL CHLORIDE

>  <SYNONYMS>  (5433) 


>  <SPECTRUM TYPE>  (5433) 
MS1

>  <INSTRUMENT TYPE>  (5433) 
EI-B

>  <INSTRUMENT>  (5433) 
HITACHI RMU-7M

>  <ION MODE>  (5433) 
P

>  <INCHIKEY>  (5433) 
CSKNSYBAZOQPLR-UHFFFAOYSA-N

>  <FORMULA>  (5433) 
C6H5ClO2S

>  <EXACT MASS>  (5433) 
175.96987808

>  <MW>  (5433) 
176

>  <ID>  (5433) 
JP001327

>  <CONTRIBUTOR>  (5433) 
University of Tokyo Team, {Faculty of Engineering, University of Tokyo

>  <COMMENT>  (5433) 
SMILES=c(c1)ccc(c1)S(=O)(=O)Cl
InChI=InChI=1S/C6H5ClO2S/c7-10(8,9)6-4-2-1-3-5-6/h1-5H
computed SMILES=O=S(=O)(Cl)C=1C=CC=CC1
accession=JP001327
date=2016.01.19 (Created 2008.10.21, modified 2011.05.06)
author=TAJIMA S, GUNMA COLLEGE OF TECHNOLOGY
license=CC BY-NC-SA
exact mass=175.96988
ionization energy=70 eV
ion type=[M]+*
computed spectral entropy=1.9093002889920905
computed normalized entropy=0.6484428111777703
SPLASH=splash10-004i-9200000000-65e45e0abad3c984d30c
submitter=submitter = University of Tokyo Team (Faculty of Engineering, University of Tokyo)
MoNA Rating=3.75

>  <NUM PEAKS>  (5433) 
19

>  <MASS SPECTRAL PEAKS>  (5433) 
27 1.14
36 5.4
38 2.58
39 2.74
50 11.02
51 28.42
52 1.14
64 1.67
65 1.44
74 2.89
75 1.67
76 1.9
77 99.99
78 7.75
141 36.09
142 2.66
143 1.44
176 8.74
178 2.89

>  <PREDICTED SPECTRUM>  (5433) 
14 0
25 3
26 50
27 66
33 18
35 25
36 66
37 78
38 141
39 191
40 31
41 35
44 24
45 23
48 115
49 75
50 382
51 610
52 185
53 95
54 21
55 49
57 10
60 21
61 46
62 60
64 119
65 83
73 2
74 93
75 238
77 999
78 343
79 117
83 8
85 79
93 28
125 306
141 598
142 188
143 201
176 442
177 142
178 274
179 109
180 71

$$$$

     RDKit          2D

 11 12  0  0  0  0  0  0  0  0999 V2000
   -2.7200   -1.0200    0.0000 C   0  0  0  0  0  0  0  0  0  0  0  0
   -2.7200    0.4800    0.0000 C   0  0  0  0  0  0  0  0  0  0  0  0
    2.4800   -1.0200    0.0000 C   0  0  0  0  0  0  0  0  0  0  0  0
   -1.4200   -1.7700    0.0000 C   0  0  0  0  0  0  0  0  0  0  0  0
    1.1800   -1.7700    0.0000 C   0  0  0  0  0  0  0  0  0  0  0  0
   -1.4200    1.2300    0.0000 C   0  0  0  0  0  0  0  0  0  0  0  0
    2.4800    0.4800    0.0000 C   0  0  0  0  0  0  0  0  0  0  0  0
   -0.1200   -1.0200    0.0000 C   0  0  0  0  0  0  0  0  0  0  0  0
   -0.1200    0.4800    0.0000 C   0  0  0  0  0  0  0  0  0  0  0  0
    1.1800    1.2300    0.0000 C   0  0  0  0  0  0  0  0  0  0  0  0
    1.1800    2.7300    0.0000 N   0  0  0  0  0  0  0  0  0  0  0  0
  2  1  2  0
  4  1  1  0
  5  3  2  0
  6  2  1  0
  7  3  1  0
  8  4  2  0
  8  5  1  0
  9  6  2  0
  9  8  1  0
 10  7  2  0
 10  9  1  0
 11 10  1  0
M  END
>  <NAME>  (5434) 
1-NAPHTHYLAMINE

>  <SYNONYMS>  (5434) 
1-AMINONAPHTHALENE

>  <SPECTRUM TYPE>  (5434) 
MS1

>  <INSTRUMENT TYPE>  (5434) 
EI-B

>  <INSTRUMENT>  (5434) 
HITACHI RMU-7M

>  <ION MODE>  (5434) 
P

>  <INCHIKEY>  (5434) 
RUFPHBVGCFYCNW-UHFFFAOYSA-N

>  <FORMULA>  (5434) 
C10H9N

>  <EXACT MASS>  (5434) 
143.073499288

>  <MW>  (5434) 
143

>  <ID>  (5434) 
JP001326

>  <CONTRIBUTOR>  (5434) 
University of Tokyo Team, {Faculty of Engineering, University of Tokyo

>  <COMMENT>  (5434) 
SMILES=Nc(c1)c(c2)c(ccc2)cc1
InChI=InChI=1S/C10H9N/c11-10-7-3-5-8-4-1-2-6-9(8)10/h1-7H,11H2
computed SMILES=NC1=CC=CC=2C=CC=CC12
accession=JP001326
date=2016.01.19 (Created 2008.10.21, modified 2011.05.06)
author=TAJIMA S, GUNMA COLLEGE OF TECHNOLOGY
license=CC BY-NC-SA
exact mass=143.0735
ionization energy=70 eV
ion type=[M]+*
computed spectral entropy=2.137616635235923
computed normalized entropy=0.6348169995044687
SPLASH=splash10-0006-1900000000-580592994b0603f7b390
submitter=submitter = University of Tokyo Team (Faculty of Engineering, University of Tokyo)
MoNA Rating=3.75

>  <NUM PEAKS>  (5434) 
29

>  <MASS SPECTRAL PEAKS>  (5434) 
18 1.81
28 1.19
39 2.33
50 1.04
51 1.5
57.5 1.55
58.5 3.37
62 1.09
63 3.37
65 1.76
70.5 4.15
71.5 7.51
77 1.09
89 3.89
107 1.3
108 1.3
113 1.3
114 2.44
115 35.65
116 19.64
117 3.11
120 1.97
126 1.09
137 1
140 1.81
141 1.14
142 4.97
143 99.99
144 10.67

>  <PREDICTED SPECTRUM>  (5434) 
16 6
26 2
28 31
36 3
37 63
38 103
39 172
40 72
41 133
42 33
43 3
44 67
49 62
50 194
51 231
52 204
53 37
54 22
56 33
57 81
58 45
61 98
62 208
63 308
64 152
65 188
66 63
67 51
68 31
69 2
71 66
72 53
73 34
74 176
75 217
76 139
77 172
78 9
79 77
80 22
83 14
84 62
85 58
86 85
87 148
88 202
89 362
90 141
91 42
92 26
96 26
97 54
98 55
99 72
100 39
101 28
102 74
103 161
104 82
112 5
113 151
114 255
115 644
116 433
117 182
125 31
126 129
127 79
140 148
141 161
142 296
143 999
144 354
145 62

$$$$

     RDKit          2D

 20 20  0  0  0  0  0  0  0  0999 V2000
   -5.1970   -1.5006    0.0000 C   0  0  0  0  0  0  0  0  0  0  0  0
   -5.9472   -0.2017    0.0000 H   0  0  0  0  0  0  0  0  0  0  0  0
   -6.4959   -2.2508    0.0000 H   0  0  0  0  0  0  0  0  0  0  0  0
   -4.4468   -2.7995    0.0000 H   0  0  0  0  0  0  0  0  0  0  0  0
    5.1970    1.5006    0.0000 C   0  0  0  0  0  0  0  0  0  0  0  0
    5.9472    0.2017    0.0000 H   0  0  0  0  0  0  0  0  0  0  0  0
    6.4959    2.2508    0.0000 H   0  0  0  0  0  0  0  0  0  0  0  0
    4.4468    2.7995    0.0000 H   0  0  0  0  0  0  0  0  0  0  0  0
   -1.3000    0.7500    0.0000 C   0  0  0  0  0  0  0  0  0  0  0  0
   -0.0000   -1.5000    0.0000 C   0  0  0  0  0  0  0  0  0  0  0  0
    0.0000    1.5000    0.0000 C   0  0  0  0  0  0  0  0  0  0  0  0
    1.3000   -0.7500    0.0000 C   0  0  0  0  0  0  0  0  0  0  0  0
   -1.3000   -0.7500    0.0000 C   0  0  0  0  0  0  0  0  0  0  0  0
    1.3000    0.7500    0.0000 C   0  0  0  0  0  0  0  0  0  0  0  0
   -2.5989   -1.5002    0.0000 C   0  0  0  0  0  0  0  0  0  0  0  0
    2.5989    1.5002    0.0000 C   0  0  0  0  0  0  0  0  0  0  0  0
   -2.5987   -3.0002    0.0000 O   0  0  0  0  0  0  0  0  0  0  0  0
    2.5987    3.0002    0.0000 O   0  0  0  0  0  0  0  0  0  0  0  0
   -3.8981   -0.7504    0.0000 O   0  0  0  0  0  0  0  0  0  0  0  0
    3.8981    0.7504    0.0000 O   0  0  0  0  0  0  0  0  0  0  0  0
  1  2  1  0
  1  3  1  0
  1  4  1  0
  5  6  1  0
  5  7  1  0
  5  8  1  0
 11  9  2  0
 12 10  1  0
 13  9  1  0
 13 10  2  0
 14 11  1  0
 14 12  2  0
 15 13  1  0
 16 14  1  0
 17 15  2  0
 18 16  2  0
 19  1  1  0
 19 15  1  0
 20  5  1  0
 20 16  1  0
M  ISO  6   2   2   3   2   4   2   6   2   7   2   8   2
M  END
>  <NAME>  (5435) 
TEREPHTHALIC ACID DIMETHYL ESTER (D6)

>  <SYNONYMS>  (5435) 
DI(2H3)METHYL TEREPHTHALATE

>  <SPECTRUM TYPE>  (5435) 
MS1

>  <INSTRUMENT TYPE>  (5435) 
EI-B

>  <INSTRUMENT>  (5435) 
HITACHI RMU-7M

>  <ION MODE>  (5435) 
P

>  <INCHIKEY>  (5435) 
WOZVHXUHUFLZGK-WFGJKAKNSA-N

>  <FORMULA>  (5435) 
C10H10O4

>  <EXACT MASS>  (5435) 
200.095569276

>  <MW>  (5435) 
200

>  <ID>  (5435) 
JP001325

>  <CONTRIBUTOR>  (5435) 
University of Tokyo Team, {Faculty of Engineering, University of Tokyo

>  <COMMENT>  (5435) 
SMILES=[2H]C([2H])([2H])OC(=O)c(c1)ccc(c1)C(=O)OC([2H])([2H])[2H]
InChI=InChI=1S/C10H10O4/c1-13-9(11)7-3-5-8(6-4-7)10(12)14-2/h3-6H,1-2H3/i1D3,2D3
computed SMILES=[H]C([H])([H])OC(=O)C1=CC=C(C=C1)C(=O)OC([H])([H])[H]
date=2016.01.19 (Created 2008.10.21, modified 2011.05.06)
accession=JP001325
author=TAJIMA S, GUNMA COLLEGE OF TECHNOLOGY
license=CC BY-NC-SA
exact mass=194.05791
ionization energy=70 eV
ion type=[M]+*
computed spectral entropy=2.182682524929932
computed normalized entropy=0.7061315261323957
SPLASH=splash10-014i-2910000000-b66dc699681b5861f86b
submitter=submitter = University of Tokyo Team (Faculty of Engineering, University of Tokyo)
MoNA Rating=3.75

>  <NUM PEAKS>  (5435) 
22

>  <MASS SPECTRAL PEAKS>  (5435) 
18 5.06
50 8.43
52 1.97
62 1.46
66 1.63
74 3.2
75 7.36
76 8.99
78 3.03
92 2.25
103 12.42
104 5.51
119 3.09
120 5.28
138 20.79
139 1.46
165 1.35
166 99.99
167 9.49
182 1.12
200 23.48
201 2.25

>  <PREDICTED SPECTRUM>  (5435) 
26 119
27 18
28 3
30 112
32 15
38 57
45 106
47 56
48 96
49 222
50 628
51 608
52 391
53 274
54 402
55 96
62 37
63 441
64 538
65 775
66 220
69 261
70 17
71 230
72 54
74 77
75 582
76 724
77 93
78 234
79 50
82 232
83 14
87 32
90 253
91 21
92 152
93 444
103 341
104 741
105 4
108 197
109 85
110 52
120 865
121 796
122 174
126 90
127 290
136 321
137 829
148 70
149 157
150 149
152 227
166 661
167 999
174 145
182 256
200 567
201 107

$$$$

     RDKit          2D

 20 20  0  0  0  0  0  0  0  0999 V2000
    5.9253    0.6258    0.0000 C   0  0  0  0  0  0  0  0  0  0  0  0
    5.1775   -0.6745    0.0000 H   0  0  0  0  0  0  0  0  0  0  0  0
    7.2256   -0.1220    0.0000 H   0  0  0  0  0  0  0  0  0  0  0  0
    6.6732    1.9261    0.0000 H   0  0  0  0  0  0  0  0  0  0  0  0
   -4.4688    0.6191    0.0000 C   0  0  0  0  0  0  0  0  0  0  0  0
   -5.2186    1.9182    0.0000 H   0  0  0  0  0  0  0  0  0  0  0  0
   -5.7680   -0.1307    0.0000 H   0  0  0  0  0  0  0  0  0  0  0  0
   -3.7190   -0.6801    0.0000 H   0  0  0  0  0  0  0  0  0  0  0  0
    0.7234    3.6115    0.0000 C   0  0  0  0  0  0  0  0  0  0  0  0
    2.0225    2.8615    0.0000 C   0  0  0  0  0  0  0  0  0  0  0  0
   -0.5711    2.8693    0.0000 C   0  0  0  0  0  0  0  0  0  0  0  0
    0.7275    0.6184    0.0000 C   0  0  0  0  0  0  0  0  0  0  0  0
    2.0270    1.3693    0.0000 C   0  0  0  0  0  0  0  0  0  0  0  0
   -0.5716    1.3684    0.0000 C   0  0  0  0  0  0  0  0  0  0  0  0
    3.3273    0.6215    0.0000 C   0  0  0  0  0  0  0  0  0  0  0  0
   -1.8707    0.6187    0.0000 C   0  0  0  0  0  0  0  0  0  0  0  0
    3.3298   -0.8785    0.0000 O   0  0  0  0  0  0  0  0  0  0  0  0
   -1.8710   -0.8813    0.0000 O   0  0  0  0  0  0  0  0  0  0  0  0
    4.6250    1.3736    0.0000 O   0  0  0  0  0  0  0  0  0  0  0  0
   -3.1697    1.3689    0.0000 O   0  0  0  0  0  0  0  0  0  0  0  0
  1  2  1  0
  1  3  1  0
  1  4  1  0
  5  6  1  0
  5  7  1  0
  5  8  1  0
 10  9  2  0
 11  9  1  0
 13 10  1  0
 13 12  2  0
 14 11  2  0
 14 12  1  0
 15 13  1  0
 16 14  1  0
 17 15  2  0
 18 16  2  0
 19  1  1  0
 19 15  1  0
 20  5  1  0
 20 16  1  0
M  ISO  6   2   2   3   2   4   2   6   2   7   2   8   2
M  END
>  <NAME>  (5436) 
ISOPHTHALIC ACID DIMETHYL ESTER (D6)

>  <SYNONYMS>  (5436) 
DI(2H3)METHYL ISOPHTHALATE

>  <SPECTRUM TYPE>  (5436) 
MS1

>  <INSTRUMENT TYPE>  (5436) 
EI-B

>  <INSTRUMENT>  (5436) 
HITACHI RMU-7M

>  <ION MODE>  (5436) 
P

>  <INCHIKEY>  (5436) 
VNGOYPQMJFJDLV-WFGJKAKNSA-N

>  <FORMULA>  (5436) 
C10H10O4

>  <EXACT MASS>  (5436) 
200.095569276

>  <MW>  (5436) 
200

>  <ID>  (5436) 
JP001324

>  <CONTRIBUTOR>  (5436) 
University of Tokyo Team, {Faculty of Engineering, University of Tokyo

>  <COMMENT>  (5436) 
SMILES=[2H]C([2H])([2H])OC(=O)c(c1)cc(cc1)C(=O)OC([2H])([2H])[2H]
InChI=InChI=1S/C10H10O4/c1-13-9(11)7-4-3-5-8(6-7)10(12)14-2/h3-6H,1-2H3/i1D3,2D3
computed SMILES=[H]C([H])([H])OC(=O)C1=CC=CC(=C1)C(=O)OC([H])([H])[H]
accession=JP001324
date=2016.01.19 (Created 2008.10.21, modified 2011.05.06)
author=TAJIMA S, GUNMA COLLEGE OF TECHNOLOGY
license=CC BY-NC-SA
exact mass=194.05791
ionization energy=70 eV
ion type=[M]+*
computed spectral entropy=2.3691655915010075
computed normalized entropy=0.7271624900776302
SPLASH=splash10-014i-3910000000-0b4b1e1dc8c57a2d19ce
submitter=submitter = University of Tokyo Team (Faculty of Engineering, University of Tokyo)
MoNA Rating=3.75

>  <NUM PEAKS>  (5436) 
26

>  <MASS SPECTRAL PEAKS>  (5436) 
18 5.26
50 9.87
51 1.05
52 2.63
62 1.46
66 2.34
74 3.8
75 9.29
76 13.49
77 1.69
78 5.2
79 1.23
92 3.15
103 10.22
104 3.56
110 2.28
119 5.26
120 7.3
138 29.26
139 2.39
165 1.29
166 99.99
167 9.81
199 1.4
200 22.14
201 1.93

>  <PREDICTED SPECTRUM>  (5436) 
26 204
31 223
32 14
48 140
49 172
50 897
51 964
52 567
53 328
54 589
62 77
63 535
64 586
65 997
66 258
69 569
70 45
72 351
74 279
75 761
76 999
77 57
78 335
80 73
82 328
87 2
90 196
93 385
103 316
104 821
108 233
109 201
110 278
121 374
122 538
126 115
127 261
136 718
137 704
152 36
167 804
168 650
182 508
200 920
201 136

$$$$

     RDKit          2D

 20 20  0  0  0  0  0  0  0  0999 V2000
   -1.6353    4.6878    0.0000 C   0  0  0  0  0  0  0  0  0  0  0  0
   -0.1353    4.6903    0.0000 H   0  0  0  0  0  0  0  0  0  0  0  0
   -1.6378    6.1878    0.0000 H   0  0  0  0  0  0  0  0  0  0  0  0
   -3.1353    4.6853    0.0000 H   0  0  0  0  0  0  0  0  0  0  0  0
    4.8670    0.9406    0.0000 C   0  0  0  0  0  0  0  0  0  0  0  0
    5.6172   -0.3583    0.0000 H   0  0  0  0  0  0  0  0  0  0  0  0
    6.1659    1.6908    0.0000 H   0  0  0  0  0  0  0  0  0  0  0  0
    4.1168    2.2395    0.0000 H   0  0  0  0  0  0  0  0  0  0  0  0
   -1.6200   -1.3100    0.0000 C   0  0  0  0  0  0  0  0  0  0  0  0
   -0.3300   -2.0600    0.0000 C   0  0  0  0  0  0  0  0  0  0  0  0
   -1.6200    0.1900    0.0000 C   0  0  0  0  0  0  0  0  0  0  0  0
    0.9700   -1.3100    0.0000 C   0  0  0  0  0  0  0  0  0  0  0  0
   -0.3300    0.9400    0.0000 C   0  0  0  0  0  0  0  0  0  0  0  0
    0.9700    0.1900    0.0000 C   0  0  0  0  0  0  0  0  0  0  0  0
   -0.3325    2.4400    0.0000 C   0  0  0  0  0  0  0  0  0  0  0  0
    2.2689    0.9402    0.0000 C   0  0  0  0  0  0  0  0  0  0  0  0
    0.9653    3.1922    0.0000 O   0  0  0  0  0  0  0  0  0  0  0  0
    2.2687    2.4402    0.0000 O   0  0  0  0  0  0  0  0  0  0  0  0
   -1.6328    3.1878    0.0000 O   0  0  0  0  0  0  0  0  0  0  0  0
    3.5681    0.1904    0.0000 O   0  0  0  0  0  0  0  0  0  0  0  0
  1  2  1  0
  1  3  1  0
  1  4  1  0
  5  6  1  0
  5  7  1  0
  5  8  1  0
 10  9  2  0
 11  9  1  0
 12 10  1  0
 13 11  2  0
 14 12  2  0
 14 13  1  0
 15 13  1  0
 16 14  1  0
 17 15  2  0
 18 16  2  0
 19  1  1  0
 19 15  1  0
 20  5  1  0
 20 16  1  0
M  ISO  6   2   2   3   2   4   2   6   2   7   2   8   2
M  END
>  <NAME>  (5437) 
PHTHALIC ACID DIMETHYL ESTER (D6)

>  <SYNONYMS>  (5437) 
DI(2H3)METHYL PHTHALATE

>  <SPECTRUM TYPE>  (5437) 
MS1

>  <INSTRUMENT TYPE>  (5437) 
EI-B

>  <INSTRUMENT>  (5437) 
HITACHI RMU-7M

>  <ION MODE>  (5437) 
P

>  <INCHIKEY>  (5437) 
NIQCNGHVCWTJSM-WFGJKAKNSA-N

>  <FORMULA>  (5437) 
C10H10O4

>  <EXACT MASS>  (5437) 
200.095569276

>  <MW>  (5437) 
200

>  <ID>  (5437) 
JP001323

>  <CONTRIBUTOR>  (5437) 
University of Tokyo Team, {Faculty of Engineering, University of Tokyo

>  <COMMENT>  (5437) 
SMILES=[2H]C([2H])([2H])OC(=O)c(c1)c(ccc1)C(=O)OC([2H])([2H])[2H]
InChI=InChI=1S/C10H10O4/c1-13-9(11)7-5-3-4-6-8(7)10(12)14-2/h3-6H,1-2H3/i1D3,2D3
computed SMILES=[H]C([H])([H])OC(=O)C=1C=CC=CC1C(=O)OC([H])([H])[H]
accession=JP001323
date=2016.01.19 (Created 2008.10.21, modified 2011.05.06)
author=TAJIMA S, GUNMA COLLEGE OF TECHNOLOGY
license=CC BY-NC-SA
exact mass=194.05791
ionization energy=70 eV
ion type=[M]+*
computed spectral entropy=2.0074792552579845
computed normalized entropy=0.6316693682429533
SPLASH=splash10-014i-4900000000-8f6b7990a7ff0c457426
submitter=submitter = University of Tokyo Team (Faculty of Engineering, University of Tokyo)
MoNA Rating=3.75

>  <NUM PEAKS>  (5437) 
24

>  <MASS SPECTRAL PEAKS>  (5437) 
18 4.38
28 2.46
31 1.64
32 1.31
50 6.13
52 1.15
64 1.7
74 1.64
75 1.7
76 6.3
77 1.1
78 18.07
79 1.42
82 1.37
92 7.12
104 2.46
106 1.37
120 1.1
134 3.89
138 7.72
165 1.1
166 99.99
167 9.42
200 6.79

>  <PREDICTED SPECTRUM>  (5437) 
25 67
26 246
27 263
28 196
29 40
30 162
31 242
32 16
33 5
37 80
38 195
39 193
43 26
48 61
49 227
50 749
51 800
52 447
53 323
54 536
55 538
56 194
61 21
62 225
63 349
64 692
65 644
66 268
68 231
70 261
71 484
72 321
74 306
75 481
76 999
77 438
78 352
79 216
80 408
82 97
86 29
89 73
90 164
92 344
93 271
102 190
103 185
104 802
105 520
106 166
107 103
108 470
109 244
110 516
120 536
121 59
122 398
126 414
127 616
136 750
137 541
138 695
146 148
149 519
152 193
154 215
167 74
182 675
200 130

$$$$

     RDKit          2D

 13 13  0  0  0  0  0  0  0  0999 V2000
   -7.7951    1.5010    0.0000 C   0  0  0  0  0  0  0  0  0  0  0  0
   -6.4962    0.7508    0.0000 C   0  0  0  0  0  0  0  0  0  0  0  0
   -1.3000   -0.7500    0.0000 C   0  0  0  0  0  0  0  0  0  0  0  0
    0.0000    1.5000    0.0000 C   0  0  0  0  0  0  0  0  0  0  0  0
    0.0000   -1.5000    0.0000 C   0  0  0  0  0  0  0  0  0  0  0  0
    1.3000    0.7500    0.0000 C   0  0  0  0  0  0  0  0  0  0  0  0
   -5.1970    1.5006    0.0000 C   0  0  0  0  0  0  0  0  0  0  0  0
   -1.3000    0.7500    0.0000 C   0  0  0  0  0  0  0  0  0  0  0  0
    1.3000   -0.7500    0.0000 C   0  0  0  0  0  0  0  0  0  0  0  0
   -2.5989    1.5002    0.0000 C   0  0  0  0  0  0  0  0  0  0  0  0
    2.5989   -1.5002    0.0000 N   0  0  0  0  0  0  0  0  0  0  0  0
   -2.5987    3.0002    0.0000 O   0  0  0  0  0  0  0  0  0  0  0  0
   -3.8981    0.7504    0.0000 O   0  0  0  0  0  0  0  0  0  0  0  0
  2  1  1  0
  5  3  2  0
  6  4  1  0
  7  2  1  0
  8  3  1  0
  8  4  2  0
  9  5  1  0
  9  6  2  0
 10  8  1  0
 11  9  1  0
 12 10  2  0
 13  7  1  0
 13 10  1  0
M  END
>  <NAME>  (5438) 
PARA-AMINOBENZOIC ACID PROPYL ESTER

>  <SYNONYMS>  (5438) 


>  <SPECTRUM TYPE>  (5438) 
MS1

>  <INSTRUMENT TYPE>  (5438) 
EI-B

>  <INSTRUMENT>  (5438) 
HITACHI RMU-7M

>  <ION MODE>  (5438) 
P

>  <INCHIKEY>  (5438) 
NBFQYHKHPBMJJV-UHFFFAOYSA-N

>  <FORMULA>  (5438) 
C10H13NO2

>  <EXACT MASS>  (5438) 
179.094628656

>  <MW>  (5438) 
179

>  <ID>  (5438) 
JP001321

>  <CONTRIBUTOR>  (5438) 
University of Tokyo Team, {Faculty of Engineering, University of Tokyo

>  <COMMENT>  (5438) 
SMILES=CCCOC(=O)c(c1)ccc(N)c1
InChI=InChI=1S/C10H13NO2/c1-2-7-13-10(12)8-3-5-9(11)6-4-8/h3-6H,2,7,11H2,1H3
computed SMILES=O=C(OCCC)C1=CC=C(N)C=C1
accession=JP001321
date=2016.01.19 (Created 2008.10.21, modified 2011.05.06)
author=TAJIMA S, GUNMA COLLEGE OF TECHNOLOGY
license=CC BY-NC-SA
exact mass=179.09463
ionization energy=70 eV
ion type=[M]+*
computed spectral entropy=2.0729368464626106
computed normalized entropy=0.6808742221038362
SPLASH=splash10-00di-3900000000-3fde0cf3b4d99f06e7f0
submitter=submitter = University of Tokyo Team (Faculty of Engineering, University of Tokyo)
MoNA Rating=3.75

>  <NUM PEAKS>  (5438) 
21

>  <MASS SPECTRAL PEAKS>  (5438) 
27 2.23
28 1.21
39 5.48
41 3.89
43 1.15
52 1.15
63 1.85
64 2.04
65 18.47
66 2.04
78 1.91
91 2.04
92 21.08
93 2.55
108 3.82
120 99.99
121 9.43
137 46.37
138 3.38
179 24.84
180 2.42

>  <PREDICTED SPECTRUM>  (5438) 
14 1
15 32
16 11
25 13
26 48
27 165
28 71
29 105
31 38
36 47
37 47
38 107
39 261
40 81
41 268
42 184
43 218
44 92
45 39
49 12
50 81
51 117
52 99
53 99
54 21
59 48
60 92
61 128
62 109
63 227
64 206
65 476
66 162
74 106
75 62
76 64
77 100
78 35
79 1
80 42
89 43
90 148
91 261
92 574
93 261
94 98
104 18
106 107
107 52
108 89
109 12
118 24
119 227
120 999
121 319
122 87
123 4
134 21
136 127
137 632
138 298
139 128
150 29
179 447
180 137

$$$$

     RDKit          2D

  8  8  0  0  0  0  0  0  0  0999 V2000
    0.7500    1.3100    0.0000 C   0  0  0  0  0  0  0  0  0  0  0  0
   -0.7600    1.2900    0.0000 C   0  0  0  0  0  0  0  0  0  0  0  0
    0.7500   -1.2900    0.0000 C   0  0  0  0  0  0  0  0  0  0  0  0
   -0.7300   -1.3000    0.0000 C   0  0  0  0  0  0  0  0  0  0  0  0
    1.4900    0.0200    0.0000 C   0  0  0  0  0  0  0  0  0  0  0  0
   -1.5000   -0.0100    0.0000 C   0  0  0  0  0  0  0  0  0  0  0  0
    2.9900    0.0250    0.0000 N   0  0  0  0  0  0  0  0  0  0  0  0
   -2.9999   -0.0255    0.0000 N   0  0  0  0  0  0  0  0  0  0  0  0
  2  1  2  0
  4  3  1  0
  5  1  1  0
  5  3  2  0
  6  2  1  0
  6  4  2  0
  7  5  1  0
  8  6  1  0
M  END
>  <NAME>  (5439) 
PARA-PHENYLENEDIAMINE

>  <SYNONYMS>  (5439) 
PARA-DIAMINOBENZENE

>  <SPECTRUM TYPE>  (5439) 
MS1

>  <INSTRUMENT TYPE>  (5439) 
EI-B

>  <INSTRUMENT>  (5439) 
HITACHI RMU-7M

>  <ION MODE>  (5439) 
P

>  <INCHIKEY>  (5439) 
CBCKQZAAMUWICA-UHFFFAOYSA-N

>  <FORMULA>  (5439) 
C6H8N2

>  <EXACT MASS>  (5439) 
108.06874825599999

>  <MW>  (5439) 
108

>  <ID>  (5439) 
JP001299

>  <CONTRIBUTOR>  (5439) 
University of Tokyo Team, {Faculty of Engineering, University of Tokyo

>  <COMMENT>  (5439) 
SMILES=Nc(c1)ccc(N)c1
InChI=InChI=1S/C6H8N2/c7-5-1-2-6(8)4-3-5/h1-4H,7-8H2
computed SMILES=NC1=CC=C(N)C=C1
accession=JP001299
date=2016.01.19 (Created 2008.10.21, modified 2011.05.06)
author=TAJIMA S, GUNMA COLLEGE OF TECHNOLOGY
license=CC BY-NC-SA
exact mass=108.06875
ionization energy=70 eV
ion type=[M]+*
computed spectral entropy=2.351750551769452
computed normalized entropy=0.6848454614792449
SPLASH=splash10-0a4i-8900000000-5b42adf83e422cffefb6
submitter=submitter = University of Tokyo Team (Faculty of Engineering, University of Tokyo)
MoNA Rating=3.75

>  <NUM PEAKS>  (5439) 
31

>  <MASS SPECTRAL PEAKS>  (5439) 
27 2.32
28 5.54
38 1.02
39 2.83
40 1.87
41 3.11
42 1.58
50 1.13
51 2.15
52 7.52
53 11.99
53.5 1.41
54 12.1
55 1.81
63 1.98
64 2.26
65 2.21
66 1.3
67 2.49
78 1.02
79 1.81
80 33.88
81 15.27
82 1.47
90 1.19
91 2.83
105 1.07
106 1
107 25.4
108 99.99
109 6.79

>  <PREDICTED SPECTRUM>  (5439) 
15 2
16 9
25 4
26 34
27 137
28 60
36 6
37 56
38 88
39 256
40 90
41 252
42 31
50 111
51 153
52 332
53 280
54 240
55 121
56 73
60 7
61 74
62 65
63 128
64 109
65 333
66 180
67 126
68 62
69 9
74 47
75 31
76 43
77 41
78 117
79 274
80 414
81 196
82 53
87 0
89 3
90 80
91 165
92 194
93 169
104 12
105 130
106 302
107 498
108 999
109 320
110 84

$$$$

     RDKit          2D

  8  8  0  0  0  0  0  0  0  0999 V2000
   -1.3000    0.7500    0.0000 C   0  0  0  0  0  0  0  0  0  0  0  0
    0.0000    1.5000    0.0000 C   0  0  0  0  0  0  0  0  0  0  0  0
   -1.3000   -0.7500    0.0000 C   0  0  0  0  0  0  0  0  0  0  0  0
    1.3000   -0.7500    0.0000 C   0  0  0  0  0  0  0  0  0  0  0  0
    1.3000    0.7500    0.0000 C   0  0  0  0  0  0  0  0  0  0  0  0
   -0.0000   -1.5000    0.0000 C   0  0  0  0  0  0  0  0  0  0  0  0
    2.5989    1.5002    0.0000 N   0  0  0  0  0  0  0  0  0  0  0  0
   -0.0000   -3.0000    0.0000 N   0  0  0  0  0  0  0  0  0  0  0  0
  2  1  2  0
  3  1  1  0
  5  2  1  0
  5  4  2  0
  6  3  2  0
  6  4  1  0
  7  5  1  0
  8  6  1  0
M  END
>  <NAME>  (5440) 
META-PHENYLENEDIAMINE

>  <SYNONYMS>  (5440) 
META-DIAMINOBENZENE

>  <SPECTRUM TYPE>  (5440) 
MS1

>  <INSTRUMENT TYPE>  (5440) 
EI-B

>  <INSTRUMENT>  (5440) 
HITACHI RMU-7M

>  <ION MODE>  (5440) 
P

>  <INCHIKEY>  (5440) 
WZCQRUWWHSTZEM-UHFFFAOYSA-N

>  <FORMULA>  (5440) 
C6H8N2

>  <EXACT MASS>  (5440) 
108.06874825599999

>  <MW>  (5440) 
108

>  <ID>  (5440) 
JP001298

>  <CONTRIBUTOR>  (5440) 
University of Tokyo Team, {Faculty of Engineering, University of Tokyo

>  <COMMENT>  (5440) 
SMILES=Nc(c1)cc(N)cc1
InChI=InChI=1S/C6H8N2/c7-5-2-1-3-6(8)4-5/h1-4H,7-8H2
computed SMILES=NC1=CC=CC(N)=C1
accession=JP001298
date=2016.01.19 (Created 2008.10.21, modified 2011.05.06)
author=TAJIMA S, GUNMA COLLEGE OF TECHNOLOGY
license=CC BY-NC-SA
exact mass=108.06875
ionization energy=70 eV
ion type=[M]+*
computed spectral entropy=2.7236619222120715
computed normalized entropy=0.7542851950953303
SPLASH=splash10-0a59-9400000000-30184968c7a5baeb3b5e
submitter=submitter = University of Tokyo Team (Faculty of Engineering, University of Tokyo)
MoNA Rating=3.75

>  <NUM PEAKS>  (5440) 
37

>  <MASS SPECTRAL PEAKS>  (5440) 
26 1.37
27 7.1
28 18.66
29 1.56
30 1.82
37 1.82
38 4.1
39 8.98
40 3.78
41 7.88
42 3.65
43 1.82
44 2.34
50 2.47
51 4.75
52 9.11
53 15.82
54 11.33
55 1.5
62 1.69
63 4.82
64 5.92
65 5.34
66 2.99
67 3.91
68 1.37
78 2.54
79 2.34
80 67.51
81 43.62
82 3.26
90 1.63
91 7.03
92 1.17
107 14
108 99.99
109 7.29

>  <PREDICTED SPECTRUM>  (5440) 
16 23
17 14
18 4
25 32
26 85
27 180
28 185
29 62
30 43
31 15
34 5
36 23
37 114
38 178
39 396
40 193
41 387
42 153
43 16
44 73
46 21
49 29
50 151
51 126
52 408
53 360
54 348
55 122
56 70
57 30
60 8
61 139
62 137
63 240
64 225
65 478
66 274
67 245
68 188
69 3
74 11
75 73
77 9
78 103
79 250
80 536
81 441
82 111
89 12
90 86
91 153
92 346
93 109
106 37
107 337
108 999
109 298
110 14

$$$$

     RDKit          2D

 13 12  0  0  0  0  0  0  0  0999 V2000
    3.5724    4.3125    0.0000 C   0  0  0  0  0  0  0  0  0  0  0  0
   -5.5209    6.5625    0.0000 C   0  0  0  0  0  0  0  0  0  0  0  0
   -1.6238    2.8125    0.0000 C   0  0  0  0  0  0  0  0  0  0  0  0
   -6.8200    4.3125    0.0000 C   0  0  0  0  0  0  0  0  0  0  0  0
    0.9743    4.3125    0.0000 C   0  0  0  0  0  0  0  0  0  0  0  0
   -2.9228    5.0625    0.0000 C   0  0  0  0  0  0  0  0  0  0  0  0
    2.2733    5.0625    0.0000 C   0  0  0  0  0  0  0  0  0  0  0  0
   -5.5209    5.0625    0.0000 C   0  0  0  0  0  0  0  0  0  0  0  0
   -1.6238    4.3125    0.0000 C   0  0  0  0  0  0  0  0  0  0  0  0
   -8.1190    5.0625    0.0000 O   0  0  0  0  0  0  0  0  0  0  0  0
    2.2733    6.5625    0.0000 O   0  0  0  0  0  0  0  0  0  0  0  0
   -0.3248    5.0625    0.0000 O   0  0  0  0  0  0  0  0  0  0  0  0
   -4.2219    4.3125    0.0000 O   0  0  0  0  0  0  0  0  0  0  0  0
  7  1  1  0
  7  5  1  0
  8  2  1  0
  8  4  1  0
  9  3  1  0
  9  6  1  0
 10  4  1  0
 11  7  1  0
 12  5  1  0
 12  9  1  0
 13  6  1  0
 13  8  1  0
M  END
>  <NAME>  (5441) 
1,4,7-TRIMETHYL-3,6-DIOXAOCTANE-1,8-DIOL

>  <SYNONYMS>  (5441) 
TRIPROPYLENE GLYCOL

>  <SPECTRUM TYPE>  (5441) 
MS1

>  <INSTRUMENT TYPE>  (5441) 
EI-B

>  <INSTRUMENT>  (5441) 
HITACHI RMU-7M

>  <ION MODE>  (5441) 
P

>  <INCHIKEY>  (5441) 
LCZVSXRMYJUNFX-UHFFFAOYSA-N

>  <FORMULA>  (5441) 
C9H20O4

>  <EXACT MASS>  (5441) 
192.13615912

>  <MW>  (5441) 
192

>  <ID>  (5441) 
JP001290

>  <CONTRIBUTOR>  (5441) 
University of Tokyo Team, {Faculty of Engineering, University of Tokyo

>  <COMMENT>  (5441) 
SMILES=OCC(C)OCC(C)OCC(C)O
InChI=InChI=1S/C9H20O4/c1-7(11)5-12-9(3)6-13-8(2)4-10/h7-11H,4-6H2,1-3H3
computed SMILES=OCC(OCC(OCC(O)C)C)C
accession=JP001290
date=2016.01.19 (Created 2008.10.21, modified 2011.05.06)
author=TAJIMA S, GUNMA COLLEGE OF TECHNOLOGY
license=CC BY-NC-SA
exact mass=192.13616
ionization energy=70 eV
ion type=[M]+*
computed spectral entropy=1.9114326201116552
computed normalized entropy=0.6491670004493605
SPLASH=splash10-0a4i-9000000000-79aca2cf931627b945ac
submitter=submitter = University of Tokyo Team (Faculty of Engineering, University of Tokyo)
MoNA Rating=3.75

>  <NUM PEAKS>  (5441) 
19

>  <MASS SPECTRAL PEAKS>  (5441) 
15 1.14
27 1.99
28 1.34
29 2.85
31 15.03
39 1.64
41 11.61
42 5.84
43 5.7
45 15.38
57 5.2
58 4.34
59 99.99
60 3.21
72 1
73 1.14
103 9.47
104 1.07
117 4.63

>  <PREDICTED SPECTRUM>  (5441) 
14 8
15 48
19 38
26 8
27 116
28 76
29 143
30 22
31 318
32 10
33 58
39 53
40 31
41 227
42 143
43 258
44 77
45 189
46 28
47 60
56 31
57 131
58 219
59 999
60 223
61 71
71 4
72 21
73 162
74 49
75 98
88 5
90 8
101 27
103 235
104 81
117 192

$$$$

     RDKit          2D

 11 10  0  0  0  0  0  0  0  0999 V2000
    3.2476    5.6250    0.0000 C   0  0  0  0  0  0  0  0  0  0  0  0
   -8.4437    6.3750    0.0000 C   0  0  0  0  0  0  0  0  0  0  0  0
   -7.1447    5.6250    0.0000 C   0  0  0  0  0  0  0  0  0  0  0  0
    0.6495    5.6250    0.0000 C   0  0  0  0  0  0  0  0  0  0  0  0
   -0.6495    6.3750    0.0000 C   0  0  0  0  0  0  0  0  0  0  0  0
   -4.5466    5.6250    0.0000 C   0  0  0  0  0  0  0  0  0  0  0  0
   -3.2476    6.3750    0.0000 C   0  0  0  0  0  0  0  0  0  0  0  0
   -9.7428    5.6250    0.0000 O   0  0  0  0  0  0  0  0  0  0  0  0
    1.9486    6.3750    0.0000 O   0  0  0  0  0  0  0  0  0  0  0  0
   -5.8457    6.3750    0.0000 O   0  0  0  0  0  0  0  0  0  0  0  0
   -1.9486    5.6250    0.0000 O   0  0  0  0  0  0  0  0  0  0  0  0
  3  2  1  0
  5  4  1  0
  7  6  1  0
  8  2  1  0
  9  1  1  0
  9  4  1  0
 10  3  1  0
 10  6  1  0
 11  5  1  0
 11  7  1  0
M  END
>  <NAME>  (5442) 
3,6,9-TRIOXADECANE-1-OL

>  <SYNONYMS>  (5442) 
TRIETHYLENE GLYCOL MONOMETHYL ETHER

>  <SPECTRUM TYPE>  (5442) 
MS1

>  <INSTRUMENT TYPE>  (5442) 
EI-B

>  <INSTRUMENT>  (5442) 
HITACHI RMU-7M

>  <ION MODE>  (5442) 
P

>  <INCHIKEY>  (5442) 
JLGLQAWTXXGVEM-UHFFFAOYSA-N

>  <FORMULA>  (5442) 
C7H16O4

>  <EXACT MASS>  (5442) 
164.104858992

>  <MW>  (5442) 
164

>  <ID>  (5442) 
JP001289

>  <CONTRIBUTOR>  (5442) 
University of Tokyo Team, {Faculty of Engineering, University of Tokyo

>  <COMMENT>  (5442) 
SMILES=COCCOCCOCCO
InChI=InChI=1S/C7H16O4/c1-9-4-5-11-7-6-10-3-2-8/h8H,2-7H2,1H3
computed SMILES=OCCOCCOCCOC
accession=JP001289
date=2016.01.19 (Created 2008.10.21, modified 2011.05.06)
author=TAJIMA S, GUNMA COLLEGE OF TECHNOLOGY
license=CC BY-NC-SA
exact mass=164.10486
ionization energy=70 eV
ion type=[M]+*
computed spectral entropy=2.4181295225327957
computed normalized entropy=0.7181220910259343
SPLASH=splash10-0a4j-9000000000-562841fb0856c2a8cd69
submitter=submitter = University of Tokyo Team (Faculty of Engineering, University of Tokyo)
MoNA Rating=3.75

>  <NUM PEAKS>  (5442) 
29

>  <MASS SPECTRAL PEAKS>  (5442) 
15 9.44
19 3.25
26 1.27
27 7.94
28 8.57
29 24.21
30 1.83
31 26.59
33 1.19
41 1.43
42 1.19
43 10.48
44 9.6
45 99.99
46 2.3
57 1.59
58 33.02
59 79.37
60 3.57
73 1.19
75 3.17
87 4.21
88 3.17
89 16.75
90 1.19
101 1.19
102 2.22
103 3.1
119 2.06

>  <PREDICTED SPECTRUM>  (5442) 
14 10
15 75
16 5
19 36
25 1
26 40
27 142
28 135
29 226
30 114
31 355
32 38
33 54
38 18
39 89
40 33
41 125
42 117
43 342
44 212
45 999
46 166
47 53
51 8
55 62
56 28
57 112
58 375
59 801
60 132
61 106
62 34
63 88
64 19
70 99
71 78
72 122
73 159
74 64
75 231
76 94
77 79
78 4
85 56
86 41
87 219
88 129
89 557
90 161
91 79
101 43
102 96
103 207
104 52
105 104
117 55
118 41
119 118
120 6
131 8
132 4
133 142
134 51
163 26
164 100
165 45

$$$$

     RDKit          2D

 19 19  0  0  0  0  0  0  0  0999 V2000
   -3.8533    2.6915    0.0000 C   0  0  0  0  0  0  0  0  0  0  0  0
   -4.3663    4.1010    0.0000 H   0  0  0  0  0  0  0  0  0  0  0  0
   -5.2628    2.1785    0.0000 H   0  0  0  0  0  0  0  0  0  0  0  0
   -3.3403    1.2819    0.0000 H   0  0  0  0  0  0  0  0  0  0  0  0
   -3.7165    4.7213    0.0000 C   0  0  0  0  0  0  0  0  0  0  0  0
   -2.5674    5.6855    0.0000 H   0  0  0  0  0  0  0  0  0  0  0  0
   -4.6807    5.8703    0.0000 H   0  0  0  0  0  0  0  0  0  0  0  0
   -5.4312    3.7313    0.0000 H   0  0  0  0  0  0  0  0  0  0  0  0
    4.0514    0.9545    0.0000 C   0  0  0  0  0  0  0  0  0  0  0  0
    4.0519    2.4553    0.0000 C   0  0  0  0  0  0  0  0  0  0  0  0
    2.7519    0.2037    0.0000 C   0  0  0  0  0  0  0  0  0  0  0  0
    2.7529    3.2053    0.0000 C   0  0  0  0  0  0  0  0  0  0  0  0
    1.4529    0.9537    0.0000 C   0  0  0  0  0  0  0  0  0  0  0  0
   -2.4438    3.2045    0.0000 C   0  0  0  0  0  0  0  0  0  0  0  0
   -1.4796    4.3536    0.0000 H   0  0  0  0  0  0  0  0  0  0  0  0
    1.4534    2.4545    0.0000 C   0  0  0  0  0  0  0  0  0  0  0  0
    0.1543    3.2045    0.0000 C   0  0  0  0  0  0  0  0  0  0  0  0
    0.1543    4.7045    0.0000 O   0  0  0  0  0  0  0  0  0  0  0  0
   -1.1447    2.4545    0.0000 O   0  0  0  0  0  0  0  0  0  0  0  0
  1  2  1  0
  1  3  1  0
  1  4  1  0
  5  6  1  0
  5  7  1  0
  5  8  1  0
 14 15  1  0
 10  9  2  0
 11  9  1  0
 12 10  1  0
 13 11  2  0
 14  1  1  0
 14  5  1  0
 16 12  2  0
 16 13  1  0
 17 16  1  0
 18 17  2  0
 19 14  1  0
 19 17  1  0
M  ISO  7   2   2   3   2   4   2   6   2   7   2   8   2  15   2
M  END
>  <NAME>  (5443) 
(1,1,1,2,3,3,3-2H7)ISOPROPYL BENZOATE

>  <SYNONYMS>  (5443) 
ISOPROPYL BENZOATE (1,1,1,2,3,3,3-D7)

>  <SPECTRUM TYPE>  (5443) 
MS1

>  <INSTRUMENT TYPE>  (5443) 
EI-B

>  <INSTRUMENT>  (5443) 
HITACHI RMU-7M

>  <ION MODE>  (5443) 
P

>  <INCHIKEY>  (5443) 
FEXQDZTYJVXMOS-UNAVHCQLSA-N

>  <FORMULA>  (5443) 
C10H12O2

>  <EXACT MASS>  (5443) 
171.127666846

>  <MW>  (5443) 
171

>  <ID>  (5443) 
JP001285

>  <CONTRIBUTOR>  (5443) 
University of Tokyo Team, {Faculty of Engineering, University of Tokyo

>  <COMMENT>  (5443) 
SMILES=[2H]C([2H])([2H])C([2H])(C([2H])([2H])[2H])OC(=O)c(c1)cccc1
InChI=InChI=1S/C10H12O2/c1-8(2)12-10(11)9-6-4-3-5-7-9/h3-8H,1-2H3/i1D3,2D3,8D
computed SMILES=[H]C(OC(=O)C=1C=CC=CC1)(C([H])([H])[H])C([H])([H])[H]
accession=JP001285
date=2016.01.19 (Created 2008.10.21, modified 2011.05.06)
author=TAJIMA S, GUNMA COLLEGE OF TECHNOLOGY
license=CC BY-NC-SA
exact mass=164.08373
ionization energy=70 eV
ion type=[M]+*
computed spectral entropy=2.4036210133538503
computed normalized entropy=0.7467268525191613
SPLASH=splash10-0a6r-5900000000-b80a39a2bcb69dca2a09
submitter=submitter = University of Tokyo Team (Faculty of Engineering, University of Tokyo)
MoNA Rating=3.75

>  <NUM PEAKS>  (5443) 
25

>  <MASS SPECTRAL PEAKS>  (5443) 
18 1.87
30 5.13
42 1.68
46 8.19
48 1.87
50 16.07
51 14
66 20.02
76 1.87
77 31.46
78 3.16
79 1.78
81 1.28
105 99.99
106 13.12
107 3.75
122 3.35
123 20.91
124 1.87
125 26.43
126 1.87
152 1.38
153 1.97
171 10.95
172 1.08

>  <PREDICTED SPECTRUM>  (5443) 
25 17
26 64
28 74
29 0
31 29
38 69
39 121
41 49
43 76
47 47
48 25
49 74
50 203
51 302
52 211
53 147
54 215
55 114
60 0
63 128
64 194
65 25
66 132
67 65
68 23
69 185
71 169
72 179
76 93
77 583
78 354
79 262
80 33
81 118
82 108
83 58
85 65
86 6
90 60
91 9
97 66
103 128
105 999
106 278
107 200
108 38
113 156
119 94
120 209
122 215
139 111
140 9
141 93
153 307
155 180
171 511
172 139

$$$$

     RDKit          2D

  7  6  0  0  0  0  0  0  0  0999 V2000
   -3.8971    2.2500    0.0000 C   0  0  0  0  0  0  0  0  0  0  0  0
   -2.5981    1.5000    0.0000 C   0  0  0  0  0  0  0  0  0  0  0  0
   -1.2990    2.2500    0.0000 C   0  0  0  0  0  0  0  0  0  0  0  0
    0.0000    1.5000    0.0000 C   0  0  0  0  0  0  0  0  0  0  0  0
   -1.2990    3.7500    0.0000 O   0  0  0  0  0  0  0  0  0  0  0  0
   -0.0000    0.0000    0.0000 O   0  0  0  0  0  0  0  0  0  0  0  0
    1.2990    2.2500    0.0000 O   0  0  0  0  0  0  0  0  0  0  0  0
  2  1  1  0
  3  2  1  0
  4  3  1  0
  5  3  1  0
  6  4  2  0
  7  4  1  0
M  END
>  <NAME>  (5444) 
DL-2-HYDROXYBUTANOIC ACID

>  <SYNONYMS>  (5444) 
DL-2-HYDROXYBUTYRIC ACID

>  <SPECTRUM TYPE>  (5444) 
MS1

>  <INSTRUMENT TYPE>  (5444) 
EI-B

>  <INSTRUMENT>  (5444) 
HITACHI RMU-7M

>  <ION MODE>  (5444) 
P

>  <INCHIKEY>  (5444) 
AFENDNXGAFYKQO-UHFFFAOYSA-N

>  <FORMULA>  (5444) 
C4H8O3

>  <EXACT MASS>  (5444) 
104.04734411599999

>  <MW>  (5444) 
104

>  <ID>  (5444) 
JP001283

>  <CONTRIBUTOR>  (5444) 
University of Tokyo Team, {Faculty of Engineering, University of Tokyo

>  <COMMENT>  (5444) 
SMILES=CCC(O)C(O)=O
InChI=InChI=1S/C4H8O3/c1-2-3(5)4(6)7/h3,5H,2H2,1H3,(H,6,7)
computed SMILES=O=C(O)C(O)CC
accession=JP001283
date=2016.01.19 (Created 2008.10.21, modified 2011.05.06)
author=TAJIMA S, GUNMA COLLEGE OF TECHNOLOGY
license=CC BY-NC-SA
exact mass=104.04734
ionization energy=70 eV
ion type=[M]+*
computed spectral entropy=2.4162252614266007
computed normalized entropy=0.750642582344889
SPLASH=splash10-0a4i-9000000000-4d935da8e593ec61fd96
submitter=submitter = University of Tokyo Team (Faculty of Engineering, University of Tokyo)
MoNA Rating=3.75

>  <NUM PEAKS>  (5444) 
25

>  <MASS SPECTRAL PEAKS>  (5444) 
15 1.59
19 3.19
26 1.67
27 8.37
28 7.24
29 11.63
30 1.83
31 28.84
39 6.45
40 1.27
41 31.87
42 6.22
43 5.58
44 6.53
45 5.42
55 15.3
56 1.27
57 9.64
58 7.81
59 99.99
60 4.46
70 8.37
76 1.59
92 1.43
105 1

>  <PREDICTED SPECTRUM>  (5444) 
14 34
15 67
16 12
17 28
18 73
19 50
25 39
26 139
27 373
28 255
29 515
30 240
31 462
32 47
33 77
34 2
35 47
36 55
37 37
38 92
39 96
40 109
41 737
42 331
43 435
44 129
45 432
46 166
47 185
48 24
53 11
57 472
58 169
59 999
60 310
61 39
75 251
76 36
86 17
104 115
105 17

$$$$

     RDKit          2D

 19 21  0  0  1  0  0  0  0  0999 V2000
   -5.1981    0.7504    0.0000 C   0  0  0  0  0  0  0  0  0  0  0  0
    6.4968   -3.0006    0.0000 C   0  0  0  0  0  0  0  0  0  0  0  0
    6.4975   -1.4998    0.0000 C   0  0  0  0  0  0  0  0  0  0  0  0
    5.1971   -3.7512    0.0000 C   0  0  0  0  0  0  0  0  0  0  0  0
    5.1986   -0.7496    0.0000 C   0  0  0  0  0  0  0  0  0  0  0  0
    3.8982   -3.0010    0.0000 C   0  0  0  0  0  0  0  0  0  0  0  0
   -2.6000   -0.7500    0.0000 C   0  0  0  0  0  0  0  0  0  0  0  0
   -1.3000   -1.5000    0.0000 C   0  0  0  0  0  0  0  0  0  0  0  0
   -1.3000    1.5000    0.0000 C   0  0  0  0  0  0  0  0  0  0  0  0
    2.6000    0.7500    0.0000 C   0  0  0  0  0  0  0  0  0  0  0  0
    3.8989   -1.5002    0.0000 C   0  0  0  0  0  0  0  0  0  0  0  0
   -2.6000    0.7500    0.0000 C   0  0  0  0  0  0  0  0  0  0  0  0
    0.0000   -0.7500    0.0000 C   0  0  0  0  0  0  0  0  0  0  0  0
    2.6000   -0.7500    0.0000 C   0  0  0  0  0  0  0  0  0  0  0  0
    0.0000    0.7500    0.0000 C   0  0  0  0  0  0  0  0  0  0  0  0
    1.3000   -1.5000    0.0000 C   0  0  0  0  0  0  0  0  0  0  0  0
    1.3000   -3.0000    0.0000 O   0  0  0  0  0  0  0  0  0  0  0  0
   -3.8989    1.5002    0.0000 O   0  0  0  0  0  0  0  0  0  0  0  0
    1.3000    1.5000    0.0000 O   0  0  0  0  0  0  0  0  0  0  0  0
  3  2  2  0
  4  2  1  0
  5  3  1  0
  6  4  2  0
  8  7  2  0
 11  5  2  0
 11  6  1  0
 12  7  1  0
 12  9  2  0
 13  8  1  0
 14 10  1  0
 14 11  1  0
 15  9  1  0
 15 13  2  0
 16 13  1  0
 16 14  1  0
 16 17  1  6
 18  1  1  0
 18 12  1  0
 19 10  1  0
 19 15  1  0
M  END
>  <NAME>  (5445) 
7-METHOXYISOFLAVAN-4ALPHA-OL

>  <SYNONYMS>  (5445) 
7-METHOXY-3-PHENYLCHROMAN-4(S)-OL

>  <SPECTRUM TYPE>  (5445) 
MS1

>  <INSTRUMENT TYPE>  (5445) 
EI-B

>  <INSTRUMENT>  (5445) 
HITACHI RMU-6D

>  <ION MODE>  (5445) 
P

>  <INCHIKEY>  (5445) 
FNCVQDHRTCWUHR-BZSJEYESSA-N

>  <FORMULA>  (5445) 
C16H16O3

>  <EXACT MASS>  (5445) 
256.109944372

>  <MW>  (5445) 
256

>  <ID>  (5445) 
JP001270

>  <CONTRIBUTOR>  (5445) 
University of Tokyo Team, {Faculty of Engineering, University of Tokyo

>  <COMMENT>  (5445) 
SMILES=COc(c3)cc(O2)c(c3)C([H])(O)C(C2)c(c1)cccc1
InChI=InChI=1S/C16H16O3/c1-18-12-7-8-13-15(9-12)19-10-14(16(13)17)11-5-3-2-4-6-11/h2-9,14,16-17H,10H2,1H3/t14?,16-/m1/s1
computed SMILES=OC1C2=CC=C(OC)C=C2OCC1C=3C=CC=CC3
accession=JP001270
date=2016.01.19 (Created 2008.10.21, modified 2011.05.06)
author=SASAKI S, TOYOHASHI UNIV. OF TECH.
license=CC BY-NC-SA
exact mass=256.10994
ionization energy=70 eV
ion type=[M]+*
computed spectral entropy=2.8893049074328045
computed normalized entropy=0.7210044121313042
SPLASH=splash10-000i-1890000000-373601ba82c154e9907f
submitter=submitter = University of Tokyo Team (Faculty of Engineering, University of Tokyo)
MoNA Rating=3.75

>  <NUM PEAKS>  (5445) 
55

>  <MASS SPECTRAL PEAKS>  (5445) 
28 2
39 3
50 2
51 0.5
63 4.7
64 1.3
65 2.7
69 0.4
74 1
75 2.7
76 5
77 0.9
78 1
88 1.7
89 4
91 0.3
102 2
103 1
105 7
115 0.5
118 3
119 7
126 1
127 0.13
128 2
139 4
140 1
141 0.1
146 1
151 2
152 8
153 0.2
160 1.3
161 43
162 7
163 0.27
164 2
165 17.3
166 5.3
167 0.3
176 2
177 3
178 5
179 0.13
194 12
195 5
207 4
210 0.1
222 3.3
223 9
224 2
237 8.9
238 99.99
239 21
240 2

>  <PREDICTED SPECTRUM>  (5445) 
17 2
18 5
39 69
41 17
43 22
50 44
51 153
52 31
57 19
62 18
63 97
64 36
65 137
74 13
75 62
76 98
77 235
78 53
89 93
90 22
91 189
92 106
102 85
103 139
105 211
106 29
107 69
108 60
109 15
115 92
116 39
117 23
118 36
119 161
120 9
121 51
133 41
134 2
135 62
137 38
138 17
139 68
143 78
144 123
145 62
147 57
151 234
152 248
153 107
161 341
162 156
164 57
165 331
166 171
167 156
176 116
177 117
178 157
179 204
180 88
181 11
193 17
194 152
195 136
207 52
208 22
209 0
222 74
223 321
224 184
235 25
236 71
237 839
238 999
239 359
240 30
255 23
256 75

$$$$

     RDKit          2D

 20 22  0  0  1  0  0  0  0  0999 V2000
   -5.1981    0.7504    0.0000 C   0  0  0  0  0  0  0  0  0  0  0  0
    6.4968   -3.0006    0.0000 C   0  0  0  0  0  0  0  0  0  0  0  0
    6.4975   -1.4998    0.0000 C   0  0  0  0  0  0  0  0  0  0  0  0
    5.1971   -3.7512    0.0000 C   0  0  0  0  0  0  0  0  0  0  0  0
    5.1986   -0.7496    0.0000 C   0  0  0  0  0  0  0  0  0  0  0  0
    3.8982   -3.0010    0.0000 C   0  0  0  0  0  0  0  0  0  0  0  0
   -2.6000   -0.7500    0.0000 C   0  0  0  0  0  0  0  0  0  0  0  0
   -1.3000   -1.5000    0.0000 C   0  0  0  0  0  0  0  0  0  0  0  0
   -1.3000    1.5000    0.0000 C   0  0  0  0  0  0  0  0  0  0  0  0
    2.6000    0.7500    0.0000 C   0  0  0  0  0  0  0  0  0  0  0  0
    3.8989   -1.5002    0.0000 C   0  0  0  0  0  0  0  0  0  0  0  0
   -2.6000    0.7500    0.0000 C   0  0  0  0  0  0  0  0  0  0  0  0
    0.0000   -0.7500    0.0000 C   0  0  0  0  0  0  0  0  0  0  0  0
    2.6000   -0.7500    0.0000 C   0  0  0  0  0  0  0  0  0  0  0  0
    0.0000    0.7500    0.0000 C   0  0  0  0  0  0  0  0  0  0  0  0
    1.3000   -1.5000    0.0000 C   0  0  0  0  0  0  0  0  0  0  0  0
    0.3359   -2.6492    0.0000 O   0  0  0  0  0  0  0  0  0  0  0  0
   -3.8989    1.5002    0.0000 O   0  0  0  0  0  0  0  0  0  0  0  0
    1.3000    1.5000    0.0000 O   0  0  0  0  0  0  0  0  0  0  0  0
    2.2641   -2.6492    0.0000 H   0  0  0  0  0  0  0  0  0  0  0  0
  3  2  2  0
  4  2  1  0
  5  3  1  0
  6  4  2  0
  8  7  2  0
 11  5  2  0
 11  6  1  0
 12  7  1  0
 12  9  2  0
 13  8  1  0
 14 10  1  0
 14 11  1  0
 15  9  1  0
 15 13  2  0
 16 13  1  0
 16 14  1  0
 16 17  1  0
 18  1  1  0
 18 12  1  0
 19 10  1  0
 19 15  1  0
 16 20  1  6
M  ISO  1  20   2
M  END
>  <NAME>  (5446) 
4ALPHA-DEUTERO-7-METHOXYISOFLAVAN-4-OL

>  <SYNONYMS>  (5446) 
7-METHOXY-3-PHENYL-4(2H1)CHROMAN-4(R)-OL

>  <SPECTRUM TYPE>  (5446) 
MS1

>  <INSTRUMENT TYPE>  (5446) 
EI-B

>  <INSTRUMENT>  (5446) 
HITACHI RMU-6D

>  <ION MODE>  (5446) 
P

>  <INCHIKEY>  (5446) 
FNCVQDHRTCWUHR-FRSDTZJCSA-N

>  <FORMULA>  (5446) 
C16H16O3

>  <EXACT MASS>  (5446) 
257.116221118

>  <MW>  (5446) 
257

>  <ID>  (5446) 
JP001267

>  <CONTRIBUTOR>  (5446) 
University of Tokyo Team, {Faculty of Engineering, University of Tokyo

>  <COMMENT>  (5446) 
SMILES=COc(c3)cc(O2)c(c3)C([2H])(O)C(C2)c(c1)cccc1
InChI=InChI=1S/C16H16O3/c1-18-12-7-8-13-15(9-12)19-10-14(16(13)17)11-5-3-2-4-6-11/h2-9,14,16-17H,10H2,1H3/t14?,16-/m0/s1/i16D
computed SMILES=[H]C1(O)C2=CC=C(OC)C=C2OCC1C=3C=CC=CC3
accession=JP001267
date=2016.01.19 (Created 2008.10.21, modified 2011.05.06)
author=SASAKI S, TOYOHASHI UNIV. OF TECH.
license=CC BY-NC-SA
exact mass=256.10994
ionization energy=70 eV
ion type=[M]+*
computed spectral entropy=3.0620426457507066
computed normalized entropy=0.7183374623655859
SPLASH=splash10-000i-2890000000-a02519dc7dc49a913393
submitter=submitter = University of Tokyo Team (Faculty of Engineering, University of Tokyo)
MoNA Rating=3.75

>  <NUM PEAKS>  (5446) 
71

>  <MASS SPECTRAL PEAKS>  (5446) 
28 4
31 2.3
39 2
45 0.1
50 1
51 4.6
52 2
63 0.3
64 2
65 2.5
66 1
69 0.33
75 1.7
76 2
77 9
78 0.2
79 1
83 2
89 1.7
90 0.2
91 3
92 1.3
93 1
102 0.15
103 2.3
104 1
105 7
109 0.1
115 2
116 4
119 4.7
120 0.1
127 0.7
128 1
129 1.3
139 0.1
140 3
141 1.7
142 1.3
147 0.15
151 1.5
152 4
153 7
154 0.2
161 1.3
162 48
163 6
164 0.2
165 4.7
166 19
167 5
168 0.3
169 1
176 2
177 3
178 0.5
179 1.7
194 2
195 13
196 0.5
208 4.7
211 1.7
222 1
223 0.3
224 10
225 1
237 14
238 8.1
239 99.99
240 16
241 1.3

>  <PREDICTED SPECTRUM>  (5446) 
39 103
40 34
41 64
42 53
43 188
44 46
50 66
51 257
52 94
53 111
55 24
56 3
62 38
63 188
64 40
65 164
66 25
67 5
76 42
77 358
78 206
79 92
89 101
91 390
92 59
93 3
95 18
102 143
103 46
105 54
107 15
108 86
109 231
110 55
112 15
115 280
120 18
121 148
122 92
123 146
124 74
136 153
138 182
139 114
140 95
148 59
150 33
151 324
152 753
153 593
154 240
155 168
156 28
162 21
166 209
168 285
178 2
179 118
180 474
181 163
182 75
183 9
184 18
196 216
209 174
210 1
211 92
212 71
224 195
225 157
238 617
239 999
240 395
241 127
256 181
257 278
258 44

$$$$

     RDKit          2D

 18 20  0  0  0  0  0  0  0  0999 V2000
   -5.1981    0.7504    0.0000 C   0  0  0  0  0  0  0  0  0  0  0  0
    6.4968   -3.0006    0.0000 C   0  0  0  0  0  0  0  0  0  0  0  0
    6.4975   -1.4998    0.0000 C   0  0  0  0  0  0  0  0  0  0  0  0
    5.1971   -3.7512    0.0000 C   0  0  0  0  0  0  0  0  0  0  0  0
    5.1986   -0.7496    0.0000 C   0  0  0  0  0  0  0  0  0  0  0  0
    3.8982   -3.0010    0.0000 C   0  0  0  0  0  0  0  0  0  0  0  0
   -1.3000   -1.5000    0.0000 C   0  0  0  0  0  0  0  0  0  0  0  0
   -2.6000   -0.7500    0.0000 C   0  0  0  0  0  0  0  0  0  0  0  0
    1.3000   -1.5000    0.0000 C   0  0  0  0  0  0  0  0  0  0  0  0
   -1.3000    1.5000    0.0000 C   0  0  0  0  0  0  0  0  0  0  0  0
    2.6000    0.7500    0.0000 C   0  0  0  0  0  0  0  0  0  0  0  0
    3.8989   -1.5002    0.0000 C   0  0  0  0  0  0  0  0  0  0  0  0
    0.0000   -0.7500    0.0000 C   0  0  0  0  0  0  0  0  0  0  0  0
    2.6000   -0.7500    0.0000 C   0  0  0  0  0  0  0  0  0  0  0  0
   -2.6000    0.7500    0.0000 C   0  0  0  0  0  0  0  0  0  0  0  0
    0.0000    0.7500    0.0000 C   0  0  0  0  0  0  0  0  0  0  0  0
   -3.8989    1.5002    0.0000 O   0  0  0  0  0  0  0  0  0  0  0  0
    1.3000    1.5000    0.0000 O   0  0  0  0  0  0  0  0  0  0  0  0
  3  2  2  0
  4  2  1  0
  5  3  1  0
  6  4  2  0
  8  7  2  0
 12  5  2  0
 12  6  1  0
 13  7  1  0
 13  9  1  0
 14  9  2  0
 14 11  1  0
 14 12  1  0
 15  8  1  0
 15 10  2  0
 16 10  1  0
 16 13  2  0
 17  1  1  0
 17 15  1  0
 18 11  1  0
 18 16  1  0
M  END
>  <NAME>  (5447) 
7-METHOXYISOFLOVENE

>  <SYNONYMS>  (5447) 
7-METHOXY-3-PHENYL-2H-CHROMENE

>  <SPECTRUM TYPE>  (5447) 
MS1

>  <INSTRUMENT TYPE>  (5447) 
EI-B

>  <INSTRUMENT>  (5447) 
HITACHI RMU-6D

>  <ION MODE>  (5447) 
P

>  <INCHIKEY>  (5447) 
LSZIRYVRGHKUGG-UHFFFAOYSA-N

>  <FORMULA>  (5447) 
C16H14O2

>  <EXACT MASS>  (5447) 
238.099379688

>  <MW>  (5447) 
238

>  <ID>  (5447) 
JP001264

>  <CONTRIBUTOR>  (5447) 
University of Tokyo Team, {Faculty of Engineering, University of Tokyo

>  <COMMENT>  (5447) 
SMILES=COc(c3)cc(O2)c(c3)C=C(C2)c(c1)cccc1
InChI=InChI=1S/C16H14O2/c1-17-15-8-7-13-9-14(11-18-16(13)10-15)12-5-3-2-4-6-12/h2-10H,11H2,1H3
computed SMILES=O(C=1C=CC=2C=C(C=3C=CC=CC3)COC2C1)C
accession=JP001264
date=2016.01.19 (Created 2008.10.21, modified 2011.05.06)
author=SASAKI S, TOYOHASHI UNIV. OF TECH.
license=CC BY-NC-SA
exact mass=238.09938
ionization energy=70 eV
ion type=[M]+*
computed spectral entropy=3.004790937369948
computed normalized entropy=0.6568263987581935
SPLASH=splash10-000i-2490000000-32ae6261903eccd4295e
submitter=submitter = University of Tokyo Team (Faculty of Engineering, University of Tokyo)
MoNA Rating=3.75

>  <NUM PEAKS>  (5447) 
97

>  <MASS SPECTRAL PEAKS>  (5447) 
15 1.7
18 2
27 1
28 0.2
39 3
41 1.3
42 0.3
43 0.33
44 0.3
45 1
50 2
51 0.6
52 1.3
53 1
55 1
57 0.08
59 0.7
61 1
63 5
64 0.1
65 2.7
69 5
73 0.3
74 0.1
75 2.3
76 5
77 9.3
81 0.03
82 2.3
89 5
90 1
91 0.3
92 1
101 0.3
102 2.7
103 0.13
105 7
113 1
114 0.8
115 0.6
116 0.7
117 1
118 3
119 0.87
126 1.7
127 1.8
128 2
129 0.08
137 0.3
138 0.3
139 4.7
140 0.08
141 1
145 0.3
146 2
149 0.1
150 1
151 3
152 9
153 0.23
154 0.3
155 0.3
160 1.7
161 4.7
162 5
163 2.7
164 2
165 2
166 5
167 3
168 1
176 0.23
177 3.3
178 5.3
179 2
180 0.03
181 0.3
193 0.7
194 14
195 0.5
196 0.7
205 0.7
206 0.7
207 0.5
208 1.3
209 1.3
210 2
211 0.1
221 1
222 4
223 10.7
224 0.2
236 2.3
237 94
238 99.99
239 1.6
240 2

>  <PREDICTED SPECTRUM>  (5447) 
15 19
26 7
27 20
37 0
38 42
39 165
40 38
43 62
44 7
49 3
50 153
51 261
52 104
53 100
55 39
57 51
62 142
63 258
64 90
65 141
66 27
69 84
74 133
75 188
76 211
77 312
78 120
79 33
81 26
82 106
83 45
84 36
85 27
86 81
87 118
88 123
89 221
90 135
91 161
92 45
93 5
94 8
95 37
96 55
97 49
98 97
99 57
100 48
101 102
102 185
103 134
104 125
105 194
106 85
107 44
108 24
109 36
110 96
111 67
112 23
113 93
114 32
115 178
116 37
117 107
118 193
119 78
120 18
121 128
122 73
126 142
127 65
128 38
129 24
131 76
132 64
133 84
134 66
135 21
136 3
137 76
138 44
139 256
140 81
141 181
142 16
145 27
146 28
147 3
149 87
150 111
151 193
152 356
153 102
155 0
160 13
161 100
162 63
163 145
164 87
165 325
166 214
167 170
168 25
169 0
170 3
176 182
177 235
178 403
179 194
180 128
189 34
190 25
191 89
192 51
193 133
194 219
195 366
196 63
205 161
206 114
207 274
208 114
209 81
210 19
211 14
220 42
221 135
222 154
223 370
224 129
236 17
237 935
238 999
239 366
240 104

$$$$

     RDKit          2D

 17 19  0  0  0  0  0  0  0  0999 V2000
    6.4968   -3.0006    0.0000 C   0  0  0  0  0  0  0  0  0  0  0  0
    6.4975   -1.4998    0.0000 C   0  0  0  0  0  0  0  0  0  0  0  0
    5.1971   -3.7512    0.0000 C   0  0  0  0  0  0  0  0  0  0  0  0
   -2.6000   -0.7500    0.0000 C   0  0  0  0  0  0  0  0  0  0  0  0
   -2.6000    0.7500    0.0000 C   0  0  0  0  0  0  0  0  0  0  0  0
    5.1986   -0.7496    0.0000 C   0  0  0  0  0  0  0  0  0  0  0  0
    3.8982   -3.0010    0.0000 C   0  0  0  0  0  0  0  0  0  0  0  0
   -1.3000   -1.5000    0.0000 C   0  0  0  0  0  0  0  0  0  0  0  0
   -1.3000    1.5000    0.0000 C   0  0  0  0  0  0  0  0  0  0  0  0
    2.6000    0.7500    0.0000 C   0  0  0  0  0  0  0  0  0  0  0  0
    3.8989   -1.5002    0.0000 C   0  0  0  0  0  0  0  0  0  0  0  0
    0.0000   -0.7500    0.0000 C   0  0  0  0  0  0  0  0  0  0  0  0
    2.6000   -0.7500    0.0000 C   0  0  0  0  0  0  0  0  0  0  0  0
    0.0000    0.7500    0.0000 C   0  0  0  0  0  0  0  0  0  0  0  0
    1.3000   -1.5000    0.0000 C   0  0  0  0  0  0  0  0  0  0  0  0
    1.3000   -3.0000    0.0000 O   0  0  0  0  0  0  0  0  0  0  0  0
    1.3000    1.5000    0.0000 O   0  0  0  0  0  0  0  0  0  0  0  0
  2  1  2  0
  3  1  1  0
  5  4  2  0
  6  2  1  0
  7  3  2  0
  8  4  1  0
  9  5  1  0
 11  6  2  0
 11  7  1  0
 12  8  2  0
 13 10  1  0
 13 11  1  0
 14  9  2  0
 14 12  1  0
 15 12  1  0
 15 13  1  0
 16 15  2  0
 17 10  1  0
 17 14  1  0
M  END
>  <NAME>  (5448) 
ISOFLAVANONE

>  <SYNONYMS>  (5448) 
3-PHENYLCHROMAN-4-ONE

>  <SPECTRUM TYPE>  (5448) 
MS1

>  <INSTRUMENT TYPE>  (5448) 
EI-B

>  <INSTRUMENT>  (5448) 
HITACHI RMU-6D

>  <ION MODE>  (5448) 
P

>  <INCHIKEY>  (5448) 
RTRZOHKLISMNRD-UHFFFAOYSA-N

>  <FORMULA>  (5448) 
C15H12O2

>  <EXACT MASS>  (5448) 
224.083729624

>  <MW>  (5448) 
224

>  <ID>  (5448) 
JP001259

>  <CONTRIBUTOR>  (5448) 
University of Tokyo Team, {Faculty of Engineering, University of Tokyo

>  <COMMENT>  (5448) 
SMILES=c(c3)ccc(c3)C(C1)C(=O)c(c2)c(ccc2)O1
InChI=InChI=1S/C15H12O2/c16-15-12-8-4-5-9-14(12)17-10-13(15)11-6-2-1-3-7-11/h1-9,13H,10H2
computed SMILES=O=C1C=2C=CC=CC2OCC1C=3C=CC=CC3
accession=JP001259
date=2016.01.19 (Created 2008.10.21, modified 2011.05.06)
author=SASAKI S, TOYOHASHI UNIV. OF TECH.
license=CC BY-NC-SA
exact mass=224.08373
ionization energy=70 eV
ion type=[M]+*
computed spectral entropy=1.9705062390562347
computed normalized entropy=0.5542372237475806
SPLASH=splash10-00di-0910000000-efdd68e8dafbf84c1681
submitter=submitter = University of Tokyo Team (Faculty of Engineering, University of Tokyo)
MoNA Rating=3.75

>  <NUM PEAKS>  (5448) 
35

>  <MASS SPECTRAL PEAKS>  (5448) 
89 2.3
90 1
91 3
92 4.8
93 4
94 0.7
101 0.3
102 0.3
103 14.3
104 39
105 3.7
112 0.03
113 0.3
115 1
118 0.3
119 0.03
120 99.99
121 10
122 0.7
139 0.08
146 0.7
147 2.3
151 0.8
163 0.03
164 0.3
165 2
166 0.3
167 0.03
207 0.7
208 0.3
222 0.3
223 0.27
224 31
225 5
226 0.7

>  <PREDICTED SPECTRUM>  (5448) 
27 1
28 12
38 100
39 245
40 38
41 3
50 235
51 343
52 209
53 56
62 104
63 274
64 156
65 216
66 40
74 44
75 105
76 327
77 375
78 329
79 84
87 1
89 224
91 415
92 229
102 225
103 490
104 871
105 306
106 76
113 6
115 14
118 6
119 62
120 772
121 387
122 98
131 29
133 65
147 234
148 32
165 57
166 21
167 75
168 14
177 13
181 115
193 14
195 67
196 85
207 9
223 251
224 999
225 338
226 90

$$$$

     RDKit          2D

 19 21  0  0  1  0  0  0  0  0999 V2000
   -5.1981    0.7504    0.0000 C   0  0  0  0  0  0  0  0  0  0  0  0
    6.4968    3.0006    0.0000 C   0  0  0  0  0  0  0  0  0  0  0  0
    5.1971    3.7512    0.0000 C   0  0  0  0  0  0  0  0  0  0  0  0
    6.4975    1.4998    0.0000 C   0  0  0  0  0  0  0  0  0  0  0  0
    3.8982    3.0010    0.0000 C   0  0  0  0  0  0  0  0  0  0  0  0
    5.1986    0.7496    0.0000 C   0  0  0  0  0  0  0  0  0  0  0  0
   -2.6000   -0.7500    0.0000 C   0  0  0  0  0  0  0  0  0  0  0  0
   -1.3000   -1.5000    0.0000 C   0  0  0  0  0  0  0  0  0  0  0  0
   -1.3000    1.5000    0.0000 C   0  0  0  0  0  0  0  0  0  0  0  0
    2.6000   -0.7500    0.0000 C   0  0  0  0  0  0  0  0  0  0  0  0
    3.8989    1.5002    0.0000 C   0  0  0  0  0  0  0  0  0  0  0  0
   -2.6000    0.7500    0.0000 C   0  0  0  0  0  0  0  0  0  0  0  0
    0.0000   -0.7500    0.0000 C   0  0  0  0  0  0  0  0  0  0  0  0
    1.3000   -1.5000    0.0000 C   0  0  0  0  0  0  0  0  0  0  0  0
    2.6000    0.7500    0.0000 C   0  0  0  0  0  0  0  0  0  0  0  0
    0.0000    0.7500    0.0000 C   0  0  0  0  0  0  0  0  0  0  0  0
    1.3000   -3.0000    0.0000 O   0  0  0  0  0  0  0  0  0  0  0  0
   -3.8989    1.5002    0.0000 O   0  0  0  0  0  0  0  0  0  0  0  0
    1.3000    1.5000    0.0000 O   0  0  0  0  0  0  0  0  0  0  0  0
  3  2  2  0
  4  2  1  0
  5  3  1  0
  6  4  2  0
  8  7  2  0
 11  5  2  0
 11  6  1  0
 12  7  1  0
 12  9  2  0
 13  8  1  0
 14 10  1  0
 14 13  1  0
 15 10  1  0
 15 11  1  1
 16  9  1  0
 16 13  2  0
 14 17  1  6
 18  1  1  0
 18 12  1  0
 19 15  1  0
 19 16  1  0
M  END
>  <NAME>  (5449) 
7-METHOXY(TRANS)FLAVAN-4ALPHA-OL

>  <SYNONYMS>  (5449) 
7-METHOXY-TRANS-2-PHENYLCHROMAN-4(S)-OL

>  <SPECTRUM TYPE>  (5449) 
MS1

>  <INSTRUMENT TYPE>  (5449) 
EI-B

>  <INSTRUMENT>  (5449) 
HITACHI RMU-6D

>  <ION MODE>  (5449) 
P

>  <INCHIKEY>  (5449) 
GMKMWNMOLXKFNU-LSDHHAIUSA-N

>  <FORMULA>  (5449) 
C16H16O3

>  <EXACT MASS>  (5449) 
256.109944372

>  <MW>  (5449) 
256

>  <ID>  (5449) 
JP001254

>  <CONTRIBUTOR>  (5449) 
University of Tokyo Team, {Faculty of Engineering, University of Tokyo

>  <COMMENT>  (5449) 
SMILES=COc(c3)cc(O1)c(c3)C([H])(O)CC([H])(c(c2)cccc2)1
InChI=InChI=1S/C16H16O3/c1-18-12-7-8-13-14(17)10-15(19-16(13)9-12)11-5-3-2-4-6-11/h2-9,14-15,17H,10H2,1H3/t14-,15+/m0/s1
computed SMILES=OC1C2=CC=C(OC)C=C2OC(C=3C=CC=CC3)C1
accession=JP001254
date=2016.01.19 (Created 2008.10.21, modified 2011.05.06)
author=SASAKI S, TOYOHASHI UNIV. OF TECH.
license=CC BY-NC-SA
exact mass=256.10994
ionization energy=70 eV
ion type=[M]+*
computed spectral entropy=2.879369224821298
computed normalized entropy=0.7218302182234367
SPLASH=splash10-01p9-3980000000-a6c7cf30d607db4ddb05
submitter=submitter = University of Tokyo Team (Faculty of Engineering, University of Tokyo)
MoNA Rating=3.75

>  <NUM PEAKS>  (5449) 
54

>  <MASS SPECTRAL PEAKS>  (5449) 
28 8
39 4
43 3
44 0.2
50 2
51 6
52 1
63 0.5
64 1.3
65 3
69 4
75 0.2
76 6
77 10.7
78 2
79 0.1
88 1.3
89 6
91 2.3
102 0.2
105 6
115 5.3
118 5
119 0.8
128 1
139 3
140 1
141 0.1
146 2
151 2
152 6
153 0.17
160 2
161 60
162 6
163 0.1
164 1
165 16
166 4
167 0.2
176 2
177 3
178 4
179 0.1
194 12
195 4
207 5
222 0.4
223 10
224 1.3
237 99.99
238 8.8
239 14
240 1.3

>  <PREDICTED SPECTRUM>  (5449) 
39 115
41 44
43 61
50 83
51 264
52 121
53 77
55 93
62 20
63 151
64 73
65 214
66 9
75 30
76 99
77 397
78 292
79 75
80 62
81 7
82 35
91 405
92 146
96 26
102 109
103 366
104 699
105 358
106 59
107 86
108 44
109 112
111 8
115 154
116 7
117 90
118 10
119 82
121 27
122 125
123 5
124 130
134 13
135 187
136 60
137 98
151 887
152 999
153 221
161 329
165 142
166 13
207 41
224 64
237 687
238 859
239 266
240 88
256 625
257 211
258 37

$$$$

     RDKit          2D

 19 21  0  0  0  0  0  0  0  0999 V2000
    6.4968    3.0006    0.0000 C   0  0  0  0  0  0  0  0  0  0  0  0
    5.1971    3.7512    0.0000 C   0  0  0  0  0  0  0  0  0  0  0  0
    6.4975    1.4998    0.0000 C   0  0  0  0  0  0  0  0  0  0  0  0
   -2.6000   -0.7500    0.0000 C   0  0  0  0  0  0  0  0  0  0  0  0
   -2.6000    0.7500    0.0000 C   0  0  0  0  0  0  0  0  0  0  0  0
    3.8982    3.0010    0.0000 C   0  0  0  0  0  0  0  0  0  0  0  0
    5.1986    0.7496    0.0000 C   0  0  0  0  0  0  0  0  0  0  0  0
   -1.3000   -1.5000    0.0000 C   0  0  0  0  0  0  0  0  0  0  0  0
   -1.3000    1.5000    0.0000 C   0  0  0  0  0  0  0  0  0  0  0  0
    2.6000   -0.7500    0.0000 C   0  0  0  0  0  0  0  0  0  0  0  0
    3.1127   -2.1596    0.0000 H   0  0  0  0  0  0  0  0  0  0  0  0
    4.0772   -0.4897    0.0000 H   0  0  0  0  0  0  0  0  0  0  0  0
    3.8989    1.5002    0.0000 C   0  0  0  0  0  0  0  0  0  0  0  0
    0.0000   -0.7500    0.0000 C   0  0  0  0  0  0  0  0  0  0  0  0
    1.3000   -1.5000    0.0000 C   0  0  0  0  0  0  0  0  0  0  0  0
    0.0000    0.7500    0.0000 C   0  0  0  0  0  0  0  0  0  0  0  0
    2.6000    0.7500    0.0000 C   0  0  0  0  0  0  0  0  0  0  0  0
    1.3000   -3.0000    0.0000 O   0  0  0  0  0  0  0  0  0  0  0  0
    1.3000    1.5000    0.0000 O   0  0  0  0  0  0  0  0  0  0  0  0
 10 11  1  0
 10 12  1  0
  2  1  2  0
  3  1  1  0
  5  4  2  0
  6  2  1  0
  7  3  2  0
  8  4  1  0
  9  5  1  0
 13  6  2  0
 13  7  1  0
 14  8  2  0
 15 10  1  0
 15 14  1  0
 16  9  2  0
 16 14  1  0
 17 10  1  0
 17 13  1  0
 18 15  1  0
 19 16  1  0
 19 17  1  0
M  ISO  2  11   2  12   2
M  END
>  <NAME>  (5450) 
3,3-DIDEUTEROFLAVAN-4-OL

>  <SYNONYMS>  (5450) 
2-PHENYL(3,3-2H2)CHROMAN-4-OL

>  <SPECTRUM TYPE>  (5450) 
MS1

>  <INSTRUMENT TYPE>  (5450) 
EI-B

>  <INSTRUMENT>  (5450) 
HITACHI RMU-6D

>  <ION MODE>  (5450) 
P

>  <INCHIKEY>  (5450) 
YTMFRMLVZQOBDR-KBMKNGFXSA-N

>  <FORMULA>  (5450) 
C15H14O2

>  <EXACT MASS>  (5450) 
228.11193318

>  <MW>  (5450) 
228

>  <ID>  (5450) 
JP001248

>  <CONTRIBUTOR>  (5450) 
University of Tokyo Team, {Faculty of Engineering, University of Tokyo

>  <COMMENT>  (5450) 
SMILES=c(c3)ccc(c3)C(O1)C([2H])([2H])C(O)c(c2)c(ccc2)1
InChI=InChI=1S/C15H14O2/c16-13-10-15(11-6-2-1-3-7-11)17-14-9-5-4-8-12(13)14/h1-9,13,15-16H,10H2/i10D2
computed SMILES=[H]C1([H])C(O)C=2C=CC=CC2OC1C=3C=CC=CC3
accession=JP001248
date=2016.01.19 (Created 2008.10.21, modified 2011.05.06)
author=SASAKI S, TOYOHASHI UNIV. OF TECH.
license=CC BY-NC-SA
exact mass=226.09938
ionization energy=70 eV
ion type=[M]+*
computed spectral entropy=2.033202464954838
computed normalized entropy=0.624046108280611
SPLASH=splash10-0a4i-0940000000-c299d5775caed9fe255a
submitter=submitter = University of Tokyo Team (Faculty of Engineering, University of Tokyo)
MoNA Rating=3.75

>  <NUM PEAKS>  (5450) 
26

>  <MASS SPECTRAL PEAKS>  (5450) 
104 4
105 25
106 99.99
107 1.3
108 1
109 0.3
120 0.5
121 0.6
122 25
123 3
131 1
132 0.5
133 0.3
150 4.3
206 0.3
207 0.5
208 21
209 30
210 7
211 0.1
212 0.3
225 0.3
226 1.3
227 0.43
228 18
229 3.3

>  <PREDICTED SPECTRUM>  (5450) 
27 69
29 15
38 49
39 280
40 20
41 31
43 169
50 233
51 527
52 273
53 171
55 49
62 22
63 276
64 231
65 298
66 88
72 3
74 70
75 70
76 248
77 917
78 628
79 506
80 175
81 24
89 137
90 314
91 625
92 254
93 153
94 251
95 61
102 197
103 70
104 274
105 999
106 433
107 954
108 335
109 0
115 337
118 31
119 221
120 193
121 347
122 553
123 102
128 141
131 221
133 235
137 84
139 23
152 333
153 239
154 211
165 470
166 476
167 677
168 374
181 713
182 341
183 242
195 281
196 695
199 91
209 279
210 373
211 180
227 232
228 850
229 217

$$$$

     RDKit          2D

 12 13  0  0  1  0  0  0  0  0999 V2000
    3.8989    1.5002    0.0000 C   0  0  0  0  0  0  0  0  0  0  0  0
   -2.6000   -0.7500    0.0000 C   0  0  0  0  0  0  0  0  0  0  0  0
   -2.6000    0.7500    0.0000 C   0  0  0  0  0  0  0  0  0  0  0  0
   -1.3000   -1.5000    0.0000 C   0  0  0  0  0  0  0  0  0  0  0  0
   -1.3000    1.5000    0.0000 C   0  0  0  0  0  0  0  0  0  0  0  0
    2.6000   -0.7500    0.0000 C   0  0  0  0  0  0  0  0  0  0  0  0
    2.6000    0.7500    0.0000 C   0  0  0  0  0  0  0  0  0  0  0  0
    0.0000   -0.7500    0.0000 C   0  0  0  0  0  0  0  0  0  0  0  0
    1.3000   -1.5000    0.0000 C   0  0  0  0  0  0  0  0  0  0  0  0
    0.0000    0.7500    0.0000 C   0  0  0  0  0  0  0  0  0  0  0  0
    1.3000   -3.0000    0.0000 O   0  0  0  0  0  0  0  0  0  0  0  0
    1.3000    1.5000    0.0000 O   0  0  0  0  0  0  0  0  0  0  0  0
  3  2  2  0
  4  2  1  0
  5  3  1  0
  7  1  1  1
  7  6  1  0
  8  4  2  0
  9  6  1  0
  9  8  1  0
 10  5  2  0
 10  8  1  0
  9 11  1  6
 12  7  1  0
 12 10  1  0
M  END
>  <NAME>  (5451) 
TRANS-2-METHYLCHROMAN-4-OL

>  <SYNONYMS>  (5451) 


>  <SPECTRUM TYPE>  (5451) 
MS1

>  <INSTRUMENT TYPE>  (5451) 
EI-B

>  <INSTRUMENT>  (5451) 
HITACHI RMU-6D

>  <ION MODE>  (5451) 
P

>  <INCHIKEY>  (5451) 
DWBIZQGILMWHRS-CBAPKCEASA-N

>  <FORMULA>  (5451) 
C10H12O2

>  <EXACT MASS>  (5451) 
164.083729624

>  <MW>  (5451) 
164

>  <ID>  (5451) 
JP001246

>  <CONTRIBUTOR>  (5451) 
University of Tokyo Team, {Faculty of Engineering, University of Tokyo

>  <COMMENT>  (5451) 
SMILES=CC(C1)Oc(c2)c(ccc2)C(O)1
InChI=InChI=1S/C10H12O2/c1-7-6-9(11)8-4-2-3-5-10(8)12-7/h2-5,7,9,11H,6H2,1H3/t7-,9-/m0/s1
computed SMILES=OC1C=2C=CC=CC2OC(C)C1
accession=JP001246
date=2016.01.19 (Created 2008.10.21, modified 2011.05.06)
author=SASAKI S, TOYOHASHI UNIV. OF TECH.
license=CC BY-NC-SA
exact mass=164.08373
ionization energy=70 eV
ion type=[M]+*
computed spectral entropy=3.425854299666234
computed normalized entropy=0.7632282986359781
SPLASH=splash10-00e9-7900000000-64dbe6db6a61b6c2b2a1
submitter=submitter = University of Tokyo Team (Faculty of Engineering, University of Tokyo)
MoNA Rating=3.75

>  <NUM PEAKS>  (5451) 
89

>  <MASS SPECTRAL PEAKS>  (5451) 
15 1
17 0.7
18 3
26 0.1
27 10
28 2
29 3
31 0.1
37 1
38 5
39 35
40 0.6
41 10
42 2
43 6
45 0.13
50 9
51 23
52 5.3
53 0.4
54 0.7
55 5
57 0.7
58 0.07
61 1
62 4.7
63 14
64 0.6
65 30
66 8
67 1
68 0.07
69 1.7
72 0.7
73 0.7
74 0.4
75 5
76 12
77 32
78 0.6
79 3.7
86 0.7
87 0.7
88 0.07
89 5.3
90 2
91 20
92 0.6
93 8
94 10
95 8
96 0.1
101 1
102 4
103 7
104 1.4
105 7
106 0.7
107 7
108 0.07
115 10
116 2
117 4
118 0.27
119 3
120 6.7
121 89.7
122 6
123 20
124 1.3
126 0.7
127 0.2
128 2.3
129 1
130 0.7
131 99.99
132 10
133 0.8
135 1
144 0.1
145 15
146 11.7
147 5
148 0.08
149 0.8
163 6.7
164 49
165 0.6
166 0.7

>  <PREDICTED SPECTRUM>  (5451) 
38 63
39 256
40 96
41 188
42 206
43 360
44 90
50 263
51 463
52 274
53 239
54 122
55 221
62 63
63 341
64 292
65 481
66 225
67 208
68 118
69 84
74 101
75 212
76 252
77 617
78 277
79 213
80 41
89 70
90 87
91 242
92 365
93 334
94 332
95 455
96 3
101 127
102 244
103 319
104 464
105 357
106 126
107 546
108 179
109 135
110 119
111 3
115 13
117 223
118 196
119 331
120 805
121 697
122 492
123 181
129 45
130 221
131 522
132 304
135 293
136 152
145 425
146 518
147 451
148 91
149 73
163 172
164 999
165 322
166 20

$$$$

     RDKit          2D

 28 31  0  0  0  0  0  0  0  0999 V2000
   -5.3647   -0.4558    0.0000 C   0  0  0  0  0  0  0  0  0  0  0  0
   -4.4198   -2.1333    0.0000 C   0  0  0  0  0  0  0  0  0  0  0  0
   10.4119    3.0403    0.0000 C   0  0  0  0  0  0  0  0  0  0  0  0
   -1.3166    3.7456    0.0000 C   0  0  0  0  0  0  0  0  0  0  0  0
    5.1940    2.9986    0.0000 C   0  0  0  0  0  0  0  0  0  0  0  0
    6.4727    0.7536    0.0000 C   0  0  0  0  0  0  0  0  0  0  0  0
    6.4611    3.7535    0.0000 C   0  0  0  0  0  0  0  0  0  0  0  0
    7.8198    1.5088    0.0000 C   0  0  0  0  0  0  0  0  0  0  0  0
   -2.5800    1.5000    0.0000 C   0  0  0  0  0  0  0  0  0  0  0  0
   -3.8800    0.7600    0.0000 C   0  0  0  0  0  0  0  0  0  0  0  0
   -0.0000   -1.5000    0.0000 C   0  0  0  0  0  0  0  0  0  0  0  0
    5.1998    1.4986    0.0000 C   0  0  0  0  0  0  0  0  0  0  0  0
    7.8140    3.0088    0.0000 C   0  0  0  0  0  0  0  0  0  0  0  0
   -1.2900    0.7500    0.0000 C   0  0  0  0  0  0  0  0  0  0  0  0
   -1.3000   -0.7500    0.0000 C   0  0  0  0  0  0  0  0  0  0  0  0
    1.2900   -0.7600    0.0000 C   0  0  0  0  0  0  0  0  0  0  0  0
    3.9000    0.7500    0.0000 C   0  0  0  0  0  0  0  0  0  0  0  0
    1.2900    0.7500    0.0000 C   0  0  0  0  0  0  0  0  0  0  0  0
    2.5900    1.5100    0.0000 C   0  0  0  0  0  0  0  0  0  0  0  0
   -0.0100    1.5000    0.0000 C   0  0  0  0  0  0  0  0  0  0  0  0
    3.9000   -0.7600    0.0000 C   0  0  0  0  0  0  0  0  0  0  0  0
   -3.8900   -0.7300    0.0000 C   0  0  0  0  0  0  0  0  0  0  0  0
    2.5875    3.0100    0.0000 O   0  0  0  0  0  0  0  0  0  0  0  0
    5.1977   -1.5124    0.0000 O   0  0  0  0  0  0  0  0  0  0  0  0
    9.1038    3.7745    0.0000 O   0  0  0  0  0  0  0  0  0  0  0  0
   -0.0151    3.0000    0.0000 O   0  0  0  0  0  0  0  0  0  0  0  0
    2.5900   -1.5100    0.0000 O   0  0  0  0  0  0  0  0  0  0  0  0
   -2.6000   -1.5000    0.0000 O   0  0  0  0  0  0  0  0  0  0  0  0
  7  5  2  0
  8  6  1  0
 10  9  2  0
 12  5  1  0
 12  6  2  0
 13  7  1  0
 13  8  2  0
 14  9  1  0
 15 11  1  0
 15 14  2  0
 16 11  2  0
 17 12  1  0
 18 16  1  0
 19 17  2  0
 19 18  1  0
 20 14  1  0
 20 18  2  0
 21 17  1  0
 22  1  1  0
 22  2  1  0
 22 10  1  0
 23 19  1  0
 24 21  2  0
 25  3  1  0
 25 13  1  0
 26  4  1  0
 26 20  1  0
 27 16  1  0
 27 21  1  0
 28 15  1  0
 28 22  1  0
M  END
>  <NAME>  (5452) 
ROBUSTIC ACID

>  <SYNONYMS>  (5452) 


>  <SPECTRUM TYPE>  (5452) 
MS1

>  <INSTRUMENT TYPE>  (5452) 
EI-B

>  <INSTRUMENT>  (5452) 
HITACHI RMU-6D

>  <ION MODE>  (5452) 
P

>  <INCHIKEY>  (5452) 
MBZKDBQDALOSRP-UHFFFAOYSA-N

>  <FORMULA>  (5452) 
C22H20O6

>  <EXACT MASS>  (5452) 
380.12598835999995

>  <MW>  (5452) 
380

>  <ID>  (5452) 
JP001230

>  <CONTRIBUTOR>  (5452) 
University of Tokyo Team, {Faculty of Engineering, University of Tokyo

>  <COMMENT>  (5452) 
SMILES=COc(c4)ccc(c4)C(C(=O)3)=C(O)c(c(O3)1)c(OC)c(C=2)c(OC(C)(C)C2)c1
cas=5307-59-5
InChI=InChI=1S/C22H20O6/c1-22(2)10-9-14-15(28-22)11-16-18(20(14)26-4)19(23)17(21(24)27-16)12-5-7-13(25-3)8-6-12/h5-11,23H,1-4H3
computed SMILES=O=C1OC=2C=C3OC(C=CC3=C(OC)C2C(O)=C1C=4C=CC(OC)=CC4)(C)C
accession=JP001230
date=2016.01.19 (Created 2008.10.21, modified 2011.05.06)
author=SASAKI S, TOYOHASHI UNIV. OF TECH.
license=CC BY-NC-SA
exact mass=380.12599
ionization energy=70 eV
ion type=[M]+*
computed spectral entropy=2.5045280458916626
computed normalized entropy=0.7437802237594678
SPLASH=splash10-0159-1469000000-e858f52a87e1a1831002
submitter=submitter = University of Tokyo Team (Faculty of Engineering, University of Tokyo)
MoNA Rating=3.75

>  <NUM PEAKS>  (5452) 
29

>  <MASS SPECTRAL PEAKS>  (5452) 
77 18
91 10
105 6
115 0.4
120 7
135 7
148 23
162 0.2
165 12
175 13
190 6
201 0.08
202 8
203 13
217 95
233 0.32
294 5
307 6
323 14
337 0.19
350 8
351 6
352 1
365 0.73
366 4
367 3
378 17
380 99.99
382 7

>  <PREDICTED SPECTRUM>  (5452) 
15 43
26 23
27 53
28 49
29 47
31 6
37 11
38 57
39 183
40 70
41 130
42 21
43 167
44 61
50 106
51 179
52 92
53 134
54 41
55 134
56 98
57 68
58 21
62 98
63 214
64 151
65 197
66 58
67 36
69 168
70 68
71 94
72 16
74 91
75 116
76 162
77 240
78 178
79 158
80 60
81 89
82 58
83 108
84 48
85 42
86 61
87 53
88 104
89 266
90 188
91 304
92 201
93 103
94 79
95 56
96 3
97 61
98 66
99 65
100 68
101 78
102 147
103 167
104 167
105 191
106 180
107 154
108 127
109 103
110 47
111 129
112 52
113 83
114 91
115 274
116 143
117 180
118 235
119 315
120 221
121 335
122 142
123 91
124 40
125 48
126 71
127 73
128 144
129 113
130 112
131 210
132 306
133 263
134 217
135 256
136 160
137 150
138 52
139 121
140 91
141 93
142 44
143 92
144 115
145 208
146 180
147 324
148 416
149 181
150 118
151 95
152 74
153 38
154 31
155 62
156 75
157 48
158 204
159 268
160 297
161 337
162 305
163 243
164 183
165 141
166 34
167 102
168 68
169 57
170 16
171 49
172 105
173 227
174 258
175 326
176 276
177 203
178 43
179 108
180 21
181 30
182 17
183 26
184 22
185 92
186 77
187 207
188 214
189 281
190 259
191 222
192 111
193 2
195 9
200 124
201 281
202 279
203 357
204 193
205 164
206 44
215 164
216 307
217 681
218 439
219 250
220 107
230 66
231 431
232 350
233 415
234 144
245 49
246 74
247 84
248 39
249 16
250 52
251 58
252 5
261 7
262 73
263 60
264 62
265 37
266 12
277 19
278 50
279 102
281 40
282 4
291 100
292 55
293 170
294 145
295 48
305 5
306 95
307 173
308 96
309 118
310 4
319 117
320 78
321 240
322 133
323 176
324 66
325 8
331 3
334 27
335 135
336 130
337 368
338 167
347 72
348 57
349 192
350 163
351 259
352 109
353 21
361 10
362 8
363 105
364 77
365 943
366 271
367 122
379 190
380 999
381 106
382 157
383 40

$$$$

     RDKit          2D

 16 15  0  0  0  0  0  0  0  0999 V2000
    1.5269   -0.3014    0.0000 C   0  0  0  0  0  0  0  0  0  0  0  0
    2.2769   -1.6005    0.0000 H   0  0  0  0  0  0  0  0  0  0  0  0
    0.7769    0.9976    0.0000 H   0  0  0  0  0  0  0  0  0  0  0  0
    0.2279   -1.0514    0.0000 H   0  0  0  0  0  0  0  0  0  0  0  0
    6.7231    7.1986    0.0000 C   0  0  0  0  0  0  0  0  0  0  0  0
    7.4731    5.8995    0.0000 H   0  0  0  0  0  0  0  0  0  0  0  0
    8.0221    7.9486    0.0000 H   0  0  0  0  0  0  0  0  0  0  0  0
    5.9731    8.4976    0.0000 H   0  0  0  0  0  0  0  0  0  0  0  0
    4.1250    2.6986    0.0000 C   0  0  0  0  0  0  0  0  0  0  0  0
    4.1250    4.1986    0.0000 C   0  0  0  0  0  0  0  0  0  0  0  0
    2.8260    0.4486    0.0000 C   0  0  0  0  0  0  0  0  0  0  0  0
    5.4240    6.4486    0.0000 C   0  0  0  0  0  0  0  0  0  0  0  0
    4.1250   -0.3014    0.0000 O   0  0  0  0  0  0  0  0  0  0  0  0
    4.1250    7.1986    0.0000 O   0  0  0  0  0  0  0  0  0  0  0  0
    2.8260    1.9486    0.0000 O   0  0  0  0  0  0  0  0  0  0  0  0
    5.4240    4.9486    0.0000 O   0  0  0  0  0  0  0  0  0  0  0  0
  1  2  1  0
  1  3  1  0
  1  4  1  0
  5  6  1  0
  5  7  1  0
  5  8  1  0
 10  9  1  0
 11  1  1  0
 12  5  1  0
 13 11  2  0
 14 12  2  0
 15  9  1  0
 15 11  1  0
 16 10  1  0
 16 12  1  0
M  ISO  6   2   2   3   2   4   2   6   2   7   2   8   2
M  END
>  <NAME>  (5453) 
ETHYLENE GLYCOL DIDEUTEROACETYL ESTER

>  <SYNONYMS>  (5453) 
ETHYLENE DI((2H3)ACETATE)

>  <SPECTRUM TYPE>  (5453) 
MS1

>  <INSTRUMENT TYPE>  (5453) 
EI-B

>  <INSTRUMENT>  (5453) 
HITACHI RMU-6D

>  <ION MODE>  (5453) 
P

>  <INCHIKEY>  (5453) 
JTXMVXSTHSMVQF-WFGJKAKNSA-N

>  <FORMULA>  (5453) 
C6H10O4

>  <EXACT MASS>  (5453) 
152.09556927600002

>  <MW>  (5453) 
152

>  <ID>  (5453) 
JP001229

>  <CONTRIBUTOR>  (5453) 
University of Tokyo Team, {Faculty of Engineering, University of Tokyo

>  <COMMENT>  (5453) 
SMILES=[2H]C([2H])([2H])C(=O)OCCOC(=O)C([2H])([2H])[2H]
InChI=InChI=1S/C6H10O4/c1-5(7)9-3-4-10-6(2)8/h3-4H2,1-2H3/i1D3,2D3
computed SMILES=[H]C([H])([H])C(=O)OCCOC(=O)C([H])([H])[H]
accession=JP001229
date=2016.01.19 (Created 2008.10.21, modified 2011.05.06)
author=SASAKI S, TOYOHASHI UNIV. OF TECH.
license=CC BY-NC-SA
exact mass=146.05791
ionization energy=70 eV
ion type=[M]+*
computed spectral entropy=0.9896758679904061
computed normalized entropy=0.41272689396290574
SPLASH=splash10-0002-9000000000-ce9b675b4670b1a271d0
submitter=submitter = University of Tokyo Team (Faculty of Engineering, University of Tokyo)
MoNA Rating=3.75

>  <NUM PEAKS>  (5453) 
11

>  <MASS SPECTRAL PEAKS>  (5453) 
18 6.6
28 2.4
44 2.2
45 0.42
46 99.99
47 2.2
76 3.4
89 0.52
92 4.2
109 2.8
122 3.4

>  <PREDICTED SPECTRUM>  (5453) 
16 24
26 130
27 79
28 145
29 254
30 123
31 247
32 9
34 8
40 14
41 262
42 139
43 170
44 720
45 524
46 78
47 36
48 56
54 325
55 490
57 34
59 999
60 146
61 368
62 188
76 35
77 183
78 286
79 482
80 19
82 357
85 401
89 268
99 726
134 0

$$$$

     RDKit          2D

 18 18  0  0  0  0  0  0  0  0999 V2000
    6.3000   -0.9371    0.0000 C   0  0  0  0  0  0  0  0  0  0  0  0
    5.0010    1.3129    0.0000 C   0  0  0  0  0  0  0  0  0  0  0  0
   -0.1952   -3.1871    0.0000 C   0  0  0  0  0  0  0  0  0  0  0  0
   -2.7938   -0.1869    0.0000 C   0  0  0  0  0  0  0  0  0  0  0  0
    1.1040    3.5639    0.0000 C   0  0  0  0  0  0  0  0  0  0  0  0
    2.4034   -3.1880    0.0000 C   0  0  0  0  0  0  0  0  0  0  0  0
    3.7024   -2.4380    0.0000 C   0  0  0  0  0  0  0  0  0  0  0  0
    5.0010   -0.1871    0.0000 C   0  0  0  0  0  0  0  0  0  0  0  0
    1.1039   -2.4371    0.0000 C   0  0  0  0  0  0  0  0  0  0  0  0
   -1.4947   -0.9367    0.0000 C   0  0  0  0  0  0  0  0  0  0  0  0
    1.1038    2.0639    0.0000 C   0  0  0  0  0  0  0  0  0  0  0  0
    3.7020   -0.9371    0.0000 C   0  0  0  0  0  0  0  0  0  0  0  0
    1.1034   -0.9363    0.0000 C   0  0  0  0  0  0  0  0  0  0  0  0
    2.4024   -0.1863    0.0000 C   0  0  0  0  0  0  0  0  0  0  0  0
   -1.4944   -2.4367    0.0000 O   0  0  0  0  0  0  0  0  0  0  0  0
   -0.1954    1.3141    0.0000 O   0  0  0  0  0  0  0  0  0  0  0  0
   -0.1958   -0.1865    0.0000 O   0  0  0  0  0  0  0  0  0  0  0  0
    2.4027    1.3137    0.0000 O   0  0  0  0  0  0  0  0  0  0  0  0
  7  6  1  0
  8  1  1  0
  8  2  1  0
  9  3  1  0
  9  6  1  0
 10  4  1  0
 11  5  1  0
 12  7  1  0
 12  8  1  0
 13  9  1  0
 14 12  1  0
 14 13  1  0
 15 10  2  0
 16 11  2  0
 17 10  1  0
 17 13  1  0
 18 11  1  0
 18 14  1  0
M  END
>  <NAME>  (5454) 
PARA-MENTH-2,3-YLENE DIACETATE

>  <SYNONYMS>  (5454) 


>  <SPECTRUM TYPE>  (5454) 
MS1

>  <INSTRUMENT TYPE>  (5454) 
EI-B

>  <INSTRUMENT>  (5454) 
HITACHI RMU-6D

>  <ION MODE>  (5454) 
P

>  <INCHIKEY>  (5454) 
UQPARNPFQUTRPS-UHFFFAOYSA-N

>  <FORMULA>  (5454) 
C14H24O4

>  <EXACT MASS>  (5454) 
256.167459248

>  <MW>  (5454) 
256

>  <ID>  (5454) 
JP001228

>  <CONTRIBUTOR>  (5454) 
University of Tokyo Team, {Faculty of Engineering, University of Tokyo

>  <COMMENT>  (5454) 
SMILES=CC(=O)OC(C(C)1)C(OC(C)=O)C(C(C)C)CC1
InChI=InChI=1S/C14H24O4/c1-8(2)12-7-6-9(3)13(17-10(4)15)14(12)18-11(5)16/h8-9,12-14H,6-7H2,1-5H3
computed SMILES=O=C(OC1C(OC(=O)C)C(CCC1C)C(C)C)C
accession=JP001228
date=2016.01.19 (Created 2008.10.21, modified 2011.05.06)
author=SASAKI S, TOYOHASHI UNIV. OF TECH.
license=CC BY-NC-SA
exact mass=256.16746
ionization energy=70 eV
ion type=[M]+*
computed spectral entropy=2.677565602027845
computed normalized entropy=0.6844452597320047
SPLASH=splash10-0006-9600000000-56f6818b0ce1050283d5
submitter=submitter = University of Tokyo Team (Faculty of Engineering, University of Tokyo)
MoNA Rating=3.75

>  <NUM PEAKS>  (5454) 
50

>  <MASS SPECTRAL PEAKS>  (5454) 
15 1
17 1.3
27 2
28 0.2
29 2.7
39 1.3
41 10
42 0.2
43 99.99
44 3
54 1.3
55 0.8
56 1.3
57 3.3
67 2.7
68 0.13
69 8
70 2.3
71 4.7
78 0.1
80 2
82 5.3
83 1.3
84 0.3
85 9.3
86 1.3
90 0.7
93 0.53
94 1.7
95 4.3
96 1
97 0.27
105 1
107 1.3
110 49.7
111 1
121 6.7
136 2
137 3
138 0.13
139 17
140 1
153 11
154 3.77
155 4
173 4
174 12
195 0.1
196 5
197 1.3

>  <PREDICTED SPECTRUM>  (5454) 
27 122
28 45
29 127
39 126
40 37
41 484
42 140
43 999
44 157
45 130
50 22
51 82
52 40
53 176
54 139
55 479
56 160
57 253
58 106
59 67
60 1
61 53
65 116
66 99
67 355
68 285
69 543
70 198
71 182
72 93
73 12
77 147
78 30
79 157
80 83
81 392
82 425
83 317
84 117
85 185
86 79
87 49
91 46
92 7
93 145
94 142
95 419
96 158
97 334
98 141
99 108
100 54
101 34
103 20
105 1
107 110
108 21
109 383
110 497
111 314
112 175
113 146
114 57
115 111
119 52
121 116
122 40
123 83
124 17
125 238
126 162
127 107
128 119
129 25
131 17
135 14
136 43
137 156
138 181
139 290
140 177
141 129
142 58
143 35
147 56
149 17
151 70
152 90
153 456
154 276
155 112
156 20
157 54
167 18
168 51
171 103
172 5
179 22
181 403
182 82
196 477
197 166
198 36
199 34
214 13

$$$$

     RDKit          2D

 14 14  0  0  0  0  0  0  0  0999 V2000
   -1.6353    4.6878    0.0000 C   0  0  0  0  0  0  0  0  0  0  0  0
    4.8670    0.9406    0.0000 C   0  0  0  0  0  0  0  0  0  0  0  0
   -1.6200   -1.3100    0.0000 C   0  0  0  0  0  0  0  0  0  0  0  0
   -0.3300   -2.0600    0.0000 C   0  0  0  0  0  0  0  0  0  0  0  0
   -1.6200    0.1900    0.0000 C   0  0  0  0  0  0  0  0  0  0  0  0
    0.9700   -1.3100    0.0000 C   0  0  0  0  0  0  0  0  0  0  0  0
   -1.6328    3.1878    0.0000 C   0  0  0  0  0  0  0  0  0  0  0  0
    3.5681    0.1904    0.0000 C   0  0  0  0  0  0  0  0  0  0  0  0
   -0.3300    0.9400    0.0000 C   0  0  0  0  0  0  0  0  0  0  0  0
    0.9700    0.1900    0.0000 C   0  0  0  0  0  0  0  0  0  0  0  0
   -2.9306    2.4356    0.0000 O   0  0  0  0  0  0  0  0  0  0  0  0
    3.5683   -1.3096    0.0000 O   0  0  0  0  0  0  0  0  0  0  0  0
   -0.3325    2.4400    0.0000 O   0  0  0  0  0  0  0  0  0  0  0  0
    2.2689    0.9402    0.0000 O   0  0  0  0  0  0  0  0  0  0  0  0
  4  3  1  0
  5  3  1  0
  6  4  1  0
  7  1  1  0
  8  2  1  0
  9  5  1  0
 10  6  1  0
 10  9  1  0
 11  7  2  0
 12  8  2  0
 13  7  1  0
 13  9  1  0
 14  8  1  0
 14 10  1  0
M  END
>  <NAME>  (5455) 
1,2-CYCLOHEXYLENE DIACETATE

>  <SYNONYMS>  (5455) 


>  <SPECTRUM TYPE>  (5455) 
MS1

>  <INSTRUMENT TYPE>  (5455) 
EI-B

>  <INSTRUMENT>  (5455) 
HITACHI RMU-6D

>  <ION MODE>  (5455) 
P

>  <INCHIKEY>  (5455) 
NSTPWRQTPXJRSP-UHFFFAOYSA-N

>  <FORMULA>  (5455) 
C10H16O4

>  <EXACT MASS>  (5455) 
200.104858992

>  <MW>  (5455) 
200

>  <ID>  (5455) 
JP001226

>  <CONTRIBUTOR>  (5455) 
University of Tokyo Team, {Faculty of Engineering, University of Tokyo

>  <COMMENT>  (5455) 
SMILES=CC(=O)OC(C1)C(CCC1)OC(C)=O
InChI=InChI=1S/C10H16O4/c1-7(11)13-9-5-3-4-6-10(9)14-8(2)12/h9-10H,3-6H2,1-2H3
computed SMILES=O=C(OC1CCCCC1OC(=O)C)C
accession=JP001226
date=2016.01.19 (Created 2008.10.21, modified 2011.05.06)
author=SASAKI S, TOYOHASHI UNIV. OF TECH.
license=CC BY-NC-SA
exact mass=200.10486
ionization energy=70 eV
ion type=[M]+*
computed spectral entropy=2.5738022796198505
computed normalized entropy=0.7239241376951511
SPLASH=splash10-0007-9200000000-591eb504bfcdbfb1b86b
submitter=submitter = University of Tokyo Team (Faculty of Engineering, University of Tokyo)
MoNA Rating=3.75

>  <NUM PEAKS>  (5455) 
35

>  <MASS SPECTRAL PEAKS>  (5455) 
16 6
18 5.5
19 16
27 0.3
28 4
29 2
39 4
41 0.7
42 2
43 99.99
44 3
55 0.15
57 3
61 4
66 3
68 0.4
69 8
77 5
78 3.5
79 0.2
81 3.5
96 18
97 42
98 0.3
110 1
111 20
112 2
114 1.4
115 6
123 1
131 2
141 7.35
142 7
157 8
158 6.5

>  <PREDICTED SPECTRUM>  (5455) 
14 16
15 87
26 37
27 159
28 79
29 133
31 51
38 49
39 176
40 80
41 214
42 155
43 999
44 156
51 9
52 37
53 112
54 156
55 192
56 114
57 81
58 22
59 16
60 42
61 140
65 61
66 80
67 180
68 120
69 233
70 227
71 75
73 62
74 22
77 11
78 14
79 178
80 325
81 178
82 75
83 141
84 62
86 15
87 24
96 36
97 323
98 467
99 151
100 27
101 2
102 21
103 35
112 105
113 55
114 17
115 93
116 80
140 81
141 96
157 150
158 22

$$$$

     RDKit          2D

 14 15  0  0  0  0  0  0  0  0999 V2000
    3.2876    3.5904    0.0000 C   0  0  0  0  0  0  0  0  0  0  0  0
    1.2027   -2.3196    0.0000 C   0  0  0  0  0  0  0  0  0  0  0  0
    2.1672   -0.6497    0.0000 C   0  0  0  0  0  0  0  0  0  0  0  0
   -0.6100    2.8400    0.0000 C   0  0  0  0  0  0  0  0  0  0  0  0
   -1.9100   -0.9100    0.0000 C   0  0  0  0  0  0  0  0  0  0  0  0
   -1.9100    0.5900    0.0000 C   0  0  0  0  0  0  0  0  0  0  0  0
   -1.3600   -0.1500    0.0000 C   0  0  0  0  0  0  0  0  0  0  0  0
    1.9887    2.8402    0.0000 C   0  0  0  0  0  0  0  0  0  0  0  0
   -0.6100   -1.6600    0.0000 C   0  0  0  0  0  0  0  0  0  0  0  0
    0.6900    0.5900    0.0000 C   0  0  0  0  0  0  0  0  0  0  0  0
    0.6900   -0.9100    0.0000 C   0  0  0  0  0  0  0  0  0  0  0  0
   -0.6100    1.3400    0.0000 C   0  0  0  0  0  0  0  0  0  0  0  0
    0.6895    3.5900    0.0000 O   0  0  0  0  0  0  0  0  0  0  0  0
    1.9889    1.3402    0.0000 O   0  0  0  0  0  0  0  0  0  0  0  0
  6  5  1  0
  8  1  1  0
  9  5  1  0
  9  7  1  0
 11  2  1  0
 11  3  1  0
 11  9  1  0
 11 10  1  0
 12  4  1  0
 12  6  1  0
 12  7  1  0
 12 10  1  0
 13  8  2  0
 14  8  1  0
 14 10  1  0
M  END
>  <NAME>  (5456) 
3,3-DIMETHYL-8,9-DINORBORNAN-2-YL ACETATE

>  <SYNONYMS>  (5456) 
1,3,3-TRIMETHYLBICYCLO(2.2.1)HEPT-2-YL ACETATE

>  <SPECTRUM TYPE>  (5456) 
MS1

>  <INSTRUMENT TYPE>  (5456) 
EI-B

>  <INSTRUMENT>  (5456) 
HITACHI RMU-6D

>  <ION MODE>  (5456) 
P

>  <INCHIKEY>  (5456) 
JUWUWIGZUVEFQB-UHFFFAOYSA-N

>  <FORMULA>  (5456) 
C12H20O2

>  <EXACT MASS>  (5456) 
196.14632988

>  <MW>  (5456) 
196

>  <ID>  (5456) 
JP001224

>  <CONTRIBUTOR>  (5456) 
University of Tokyo Team, {Faculty of Engineering, University of Tokyo

>  <COMMENT>  (5456) 
SMILES=CC(=O)OC(C(C)(C)1)C(C)(C2)CC(C2)1
InChI=InChI=1S/C12H20O2/c1-8(13)14-10-11(2,3)9-5-6-12(10,4)7-9/h9-10H,5-7H2,1-4H3
computed SMILES=O=C(OC1C(C)(C)C2CCC1(C)C2)C
accession=JP001224
date=2016.01.19 (Created 2008.10.21, modified 2011.05.06)
author=SASAKI S, TOYOHASHI UNIV. OF TECH.
license=CC BY-NC-SA
exact mass=196.14633
ionization energy=70 eV
ion type=[M]+*
computed spectral entropy=3.087786718702112
computed normalized entropy=0.7317883825438444
SPLASH=splash10-001l-9100000000-63f2f1bf541d7335ffbe
submitter=submitter = University of Tokyo Team (Faculty of Engineering, University of Tokyo)
MoNA Rating=3.75

>  <NUM PEAKS>  (5456) 
68

>  <MASS SPECTRAL PEAKS>  (5456) 
14 0.5
15 2
18 5
26 0.5
27 58.5
28 6
31 12
38 0.7
40 25.5
41 1.5
42 76
43 0.2
44 2
50 0.5
51 0.5
52 0.03
53 6
54 0.3
55 12
56 0.1
57 3
59 1
66 2
67 0.05
68 14
69 1
70 14.5
71 0.05
72 6.5
73 13.5
77 4
78 0.05
79 0.5
80 8
81 42
82 99.99
83 12
85 5
86 5
87 0.15
88 1
91 3
92 4
93 1.2
94 4
95 6
96 0.5
97 0.23
99 1
105 1
107 12
108 0.2
109 8
110 0.5
111 4
114 0.05
115 2
116 3
121 20
122 0.2
123 3
134 4
135 34
136 0.35
137 0.5
138 2
157 1.8
158 3

>  <PREDICTED SPECTRUM>  (5456) 
26 7
27 193
28 56
29 143
38 20
39 241
40 117
41 708
42 197
43 999
44 113
45 68
50 82
51 141
52 117
53 302
54 153
55 469
56 174
57 311
59 42
62 22
63 60
64 10
65 213
66 195
67 522
68 354
69 568
70 164
71 203
72 51
73 47
77 279
78 100
79 424
80 464
81 874
82 525
83 289
84 7
85 51
91 238
92 240
93 750
94 303
95 254
96 188
97 126
98 109
99 91
105 52
107 537
108 462
109 370
110 141
111 224
112 115
113 152
114 44
115 29
121 675
122 202
123 167
124 40
125 101
135 25
136 693
137 210
138 87
139 134
140 76
152 72
153 173
154 30
181 14
196 111
197 17

$$$$

     RDKit          2D

 14 14  0  0  0  0  0  0  0  0999 V2000
   -1.5890   -3.5800    0.0000 C   0  0  0  0  0  0  0  0  0  0  0  0
    1.0090   -3.5800    0.0000 C   0  0  0  0  0  0  0  0  0  0  0  0
   -0.2900    3.1700    0.0000 C   0  0  0  0  0  0  0  0  0  0  0  0
    4.9070   -1.3306    0.0000 C   0  0  0  0  0  0  0  0  0  0  0  0
   -1.5900    0.9200    0.0000 C   0  0  0  0  0  0  0  0  0  0  0  0
   -1.5900   -0.5800    0.0000 C   0  0  0  0  0  0  0  0  0  0  0  0
    1.0100    0.9200    0.0000 C   0  0  0  0  0  0  0  0  0  0  0  0
   -0.2900   -2.8300    0.0000 C   0  0  0  0  0  0  0  0  0  0  0  0
   -0.2900    1.6700    0.0000 C   0  0  0  0  0  0  0  0  0  0  0  0
    3.6081   -0.5804    0.0000 C   0  0  0  0  0  0  0  0  0  0  0  0
   -0.2900   -1.3300    0.0000 C   0  0  0  0  0  0  0  0  0  0  0  0
    1.0100   -0.5800    0.0000 C   0  0  0  0  0  0  0  0  0  0  0  0
    3.6083    0.9196    0.0000 O   0  0  0  0  0  0  0  0  0  0  0  0
    2.3089   -1.3302    0.0000 O   0  0  0  0  0  0  0  0  0  0  0  0
  6  5  1  0
  8  1  1  0
  8  2  1  0
  9  3  1  0
  9  5  1  0
  9  7  1  0
 10  4  1  0
 11  6  1  0
 11  8  2  0
 12  7  1  0
 12 11  1  0
 13 10  2  0
 14 10  1  0
 14 12  1  0
M  END
>  <NAME>  (5457) 
4(8)-PARA-MENTHEN-3-YL ACETATE

>  <SYNONYMS>  (5457) 


>  <SPECTRUM TYPE>  (5457) 
MS1

>  <INSTRUMENT TYPE>  (5457) 
EI-B

>  <INSTRUMENT>  (5457) 
HITACHI RMU-6D

>  <ION MODE>  (5457) 
P

>  <INCHIKEY>  (5457) 
ZAPTZQHAWAYFSW-UHFFFAOYSA-N

>  <FORMULA>  (5457) 
C12H20O2

>  <EXACT MASS>  (5457) 
196.14632988

>  <MW>  (5457) 
196

>  <ID>  (5457) 
JP001222

>  <CONTRIBUTOR>  (5457) 
University of Tokyo Team, {Faculty of Engineering, University of Tokyo

>  <COMMENT>  (5457) 
SMILES=CC(=O)OC(C1)C(CCC(C)1)=C(C)C
InChI=InChI=1S/C12H20O2/c1-8(2)11-6-5-9(3)7-12(11)14-10(4)13/h9,12H,5-7H2,1-4H3
computed SMILES=O=C(OC1C(=C(C)C)CCC(C)C1)C
accession=JP001222
date=2016.01.19 (Created 2008.10.21, modified 2011.05.06)
author=SASAKI S, TOYOHASHI UNIV. OF TECH.
license=CC BY-NC-SA
exact mass=196.14633
ionization energy=70 eV
ion type=[M]+*
computed spectral entropy=3.405926894862564
computed normalized entropy=0.7938373364394113
SPLASH=splash10-004u-9200000000-7fe44a4cee4d40830a9c
submitter=submitter = University of Tokyo Team (Faculty of Engineering, University of Tokyo)
MoNA Rating=3.75

>  <NUM PEAKS>  (5457) 
73

>  <MASS SPECTRAL PEAKS>  (5457) 
13 3
14 12
15 2
16 0.6
17 27
25 3
26 18
27 5.9
28 12
31 22.5
35 1
36 0.2
37 29
38 4
39 28
40 0.3
41 52
42 20
43 8.5
50 0.2
51 12
52 6
53 16
54 0.2
55 17
56 1
57 0.5
58 2.5
59 1
60 8
63 0.5
64 0.3
65 1
66 12
67 5
68 1.4
69 15.5
70 2
71 0.5
72 0.05
73 0.5
74 0.5
77 29
78 0.6
79 99.99
80 13
81 11
82 0.2
89 1
91 30
92 8
93 7
94 24
95 7
96 1
104 0.2
105 2.5
106 13
107 3
108 5.85
109 14
110 1
115 0.5
117 0.05
119 2
120 0.5
121 61
122 0.6
123 1
134 1
135 60
137 0.2
138 2

>  <PREDICTED SPECTRUM>  (5457) 
14 2
16 6
17 4
25 3
26 31
27 210
28 83
29 192
30 31
31 22
36 5
37 1
38 54
39 285
40 124
41 520
42 182
43 999
44 150
45 88
50 88
51 179
52 138
53 280
54 166
55 451
56 191
57 235
58 115
59 87
60 61
61 73
62 14
63 78
64 32
65 191
66 101
67 344
68 210
69 330
70 173
71 211
72 135
73 43
76 6
77 243
78 146
79 318
80 247
81 360
82 212
83 274
84 117
85 139
86 34
87 9
91 268
92 186
93 568
94 344
95 256
96 181
97 137
98 103
99 38
103 22
105 77
106 61
107 267
108 200
109 91
110 107
111 160
112 57
115 77
119 109
120 36
121 819
122 280
123 54
135 59
136 768
137 344
138 127
139 109
153 39
154 58
196 43
197 2

$$$$

     RDKit          2D

 14 14  0  0  0  0  0  0  0  0999 V2000
   -1.5890   -3.5800    0.0000 C   0  0  0  0  0  0  0  0  0  0  0  0
    1.0090   -3.5800    0.0000 C   0  0  0  0  0  0  0  0  0  0  0  0
   -0.2900    3.1700    0.0000 C   0  0  0  0  0  0  0  0  0  0  0  0
    4.9070   -1.3306    0.0000 C   0  0  0  0  0  0  0  0  0  0  0  0
   -1.5900    0.9200    0.0000 C   0  0  0  0  0  0  0  0  0  0  0  0
   -1.5900   -0.5800    0.0000 C   0  0  0  0  0  0  0  0  0  0  0  0
    1.0100    0.9200    0.0000 C   0  0  0  0  0  0  0  0  0  0  0  0
   -0.2900   -2.8300    0.0000 C   0  0  0  0  0  0  0  0  0  0  0  0
   -0.2900    1.6700    0.0000 C   0  0  0  0  0  0  0  0  0  0  0  0
    3.6081   -0.5804    0.0000 C   0  0  0  0  0  0  0  0  0  0  0  0
   -0.2900   -1.3300    0.0000 C   0  0  0  0  0  0  0  0  0  0  0  0
    1.0100   -0.5800    0.0000 C   0  0  0  0  0  0  0  0  0  0  0  0
    3.6083    0.9196    0.0000 O   0  0  0  0  0  0  0  0  0  0  0  0
    2.3089   -1.3302    0.0000 O   0  0  0  0  0  0  0  0  0  0  0  0
  6  5  1  0
  8  1  1  0
  8  2  1  0
  9  3  1  0
  9  5  1  0
  9  7  1  0
 10  4  1  0
 11  6  2  0
 11  8  1  0
 12  7  1  0
 12 11  1  0
 13 10  2  0
 14 10  1  0
 14 12  1  0
M  END
>  <NAME>  (5458) 
3-PARA-MENTHEN-5-YL ACETATE

>  <SYNONYMS>  (5458) 


>  <SPECTRUM TYPE>  (5458) 
MS1

>  <INSTRUMENT TYPE>  (5458) 
EI-B

>  <INSTRUMENT>  (5458) 
HITACHI RMU-6D

>  <ION MODE>  (5458) 
P

>  <INCHIKEY>  (5458) 
UWINAUQIAJDQEK-UHFFFAOYSA-N

>  <FORMULA>  (5458) 
C12H20O2

>  <EXACT MASS>  (5458) 
196.14632988

>  <MW>  (5458) 
196

>  <ID>  (5458) 
JP001220

>  <CONTRIBUTOR>  (5458) 
University of Tokyo Team, {Faculty of Engineering, University of Tokyo

>  <COMMENT>  (5458) 
SMILES=CC(=O)OC(C1)C(=CCC(C)1)C(C)C
InChI=InChI=1S/C12H20O2/c1-8(2)11-6-5-9(3)7-12(11)14-10(4)13/h6,8-9,12H,5,7H2,1-4H3
computed SMILES=O=C(OC1C(=CCC(C)C1)C(C)C)C
accession=JP001220
date=2016.01.19 (Created 2008.10.21, modified 2011.05.06)
author=SASAKI S, TOYOHASHI UNIV. OF TECH.
license=CC BY-NC-SA
exact mass=196.14633
ionization energy=70 eV
ion type=[M]+*
computed spectral entropy=3.3734774750762537
computed normalized entropy=0.8308151268997321
SPLASH=splash10-0006-9300000000-1e8123d56eb2494a0e82
submitter=submitter = University of Tokyo Team (Faculty of Engineering, University of Tokyo)
MoNA Rating=3.75

>  <NUM PEAKS>  (5458) 
58

>  <MASS SPECTRAL PEAKS>  (5458) 
15 6
17 16
18 45
27 1.8
28 22
29 14
39 14
40 0.15
41 42
42 5
43 99.99
44 0.3
53 10
54 2
55 19
56 0.6
57 8
64 4
65 1
67 2
68 8
69 21
70 4
71 2
78 11
79 2
80 17.5
81 0.4
82 40
83 16
84 8
85 0.05
86 2
87 0.5
91 11
92 0.8
93 53
94 12
95 55
96 1.4
97 6
105 5
107 36.5
108 0.75
109 10
110 2
111 23
112 0.5
121 63
122 7
123 20
137 5.8
138 10
139 33
140 11.5
153 0.1
154 2
196 1.5

>  <PREDICTED SPECTRUM>  (5458) 
14 1
26 29
27 220
28 72
29 170
31 51
38 10
39 271
40 122
41 428
42 117
43 999
44 137
45 40
49 18
50 80
51 189
52 135
53 265
54 154
55 296
56 50
57 109
58 29
59 47
60 0
63 75
64 21
65 213
66 176
67 278
68 107
69 226
70 76
71 114
72 54
75 44
77 290
78 216
79 479
80 279
81 305
82 42
83 106
84 49
89 34
90 26
91 500
92 346
93 721
94 384
95 162
96 67
97 65
98 45
103 110
104 11
105 166
106 71
107 280
108 121
110 3
111 71
115 113
117 51
118 1
119 92
120 73
121 690
122 113
135 46
136 466
137 100
138 21
139 6
153 29

$$$$

     RDKit          2D

 14 14  0  0  0  0  0  0  0  0999 V2000
   -1.5890   -3.5800    0.0000 C   0  0  0  0  0  0  0  0  0  0  0  0
    1.0090   -3.5800    0.0000 C   0  0  0  0  0  0  0  0  0  0  0  0
   -0.2900    3.1700    0.0000 C   0  0  0  0  0  0  0  0  0  0  0  0
    4.9070   -1.3306    0.0000 C   0  0  0  0  0  0  0  0  0  0  0  0
   -1.5900    0.9200    0.0000 C   0  0  0  0  0  0  0  0  0  0  0  0
   -1.5900   -0.5800    0.0000 C   0  0  0  0  0  0  0  0  0  0  0  0
    1.0100    0.9200    0.0000 C   0  0  0  0  0  0  0  0  0  0  0  0
   -0.2900   -2.8300    0.0000 C   0  0  0  0  0  0  0  0  0  0  0  0
   -0.2900    1.6700    0.0000 C   0  0  0  0  0  0  0  0  0  0  0  0
    3.6081   -0.5804    0.0000 C   0  0  0  0  0  0  0  0  0  0  0  0
   -0.2900   -1.3300    0.0000 C   0  0  0  0  0  0  0  0  0  0  0  0
    1.0100   -0.5800    0.0000 C   0  0  0  0  0  0  0  0  0  0  0  0
    3.6083    0.9196    0.0000 O   0  0  0  0  0  0  0  0  0  0  0  0
    2.3089   -1.3302    0.0000 O   0  0  0  0  0  0  0  0  0  0  0  0
  6  5  1  0
  8  1  1  0
  8  2  1  0
  9  3  1  0
  9  5  1  0
  9  7  2  0
 10  4  1  0
 11  6  1  0
 11  8  1  0
 12  7  1  0
 12 11  1  0
 13 10  2  0
 14 10  1  0
 14 12  1  0
M  END
>  <NAME>  (5459) 
1-PARA-MENTHEN-3-YL ACETATE

>  <SYNONYMS>  (5459) 


>  <SPECTRUM TYPE>  (5459) 
MS1

>  <INSTRUMENT TYPE>  (5459) 
EI-B

>  <INSTRUMENT>  (5459) 
HITACHI RMU-6D

>  <ION MODE>  (5459) 
P

>  <INCHIKEY>  (5459) 
NADGBBLSBLDJEH-UHFFFAOYSA-N

>  <FORMULA>  (5459) 
C12H20O2

>  <EXACT MASS>  (5459) 
196.14632988

>  <MW>  (5459) 
196

>  <ID>  (5459) 
JP001218

>  <CONTRIBUTOR>  (5459) 
University of Tokyo Team, {Faculty of Engineering, University of Tokyo

>  <COMMENT>  (5459) 
SMILES=CC(=O)OC(C=1)C(CCC(C)1)C(C)C
InChI=InChI=1S/C12H20O2/c1-8(2)11-6-5-9(3)7-12(11)14-10(4)13/h7-8,11-12H,5-6H2,1-4H3
computed SMILES=O=C(OC1C=C(C)CCC1C(C)C)C
accession=JP001218
date=2016.01.19 (Created 2008.10.21, modified 2011.05.06)
author=SASAKI S, TOYOHASHI UNIV. OF TECH.
license=CC BY-NC-SA
exact mass=196.14633
ionization energy=70 eV
ion type=[M]+*
computed spectral entropy=3.4596011606168053
computed normalized entropy=0.8037985220249766
SPLASH=splash10-006t-9300000000-b9ef0d50e24a36ee4c6b
submitter=submitter = University of Tokyo Team (Faculty of Engineering, University of Tokyo)
MoNA Rating=3.75

>  <NUM PEAKS>  (5459) 
74

>  <MASS SPECTRAL PEAKS>  (5459) 
15 4.5
17 1
18 5
27 1.8
28 11
29 14
31 2
40 1.5
41 3
42 50
43 6
44 8.8
45 4
46 2
51 3
52 0.1
53 11
54 7
55 39
56 1.15
57 18
58 2
59 2
61 1
63 0.05
65 4
67 0.5
68 23
69 1.4
70 32
71 7
72 53
73 0.4
77 14
78 13
79 11
80 6.4
81 35
82 15
83 8
84 0.75
85 3
91 12
92 8
93 4.5
94 16
95 99.99
96 30
97 0.6
99 3
100 0.5
105 1
106 0.2
108 10
109 8
110 4
111 0.2
112 5
118 3
120 12
122 3.35
123 3
128 64
136 9
137 0.4
138 64
139 9
140 0.5
141 0.15
154 0.5
155 0.5
156 2.5
157 0.1
158 1.5

>  <PREDICTED SPECTRUM>  (5459) 
27 122
28 24
29 57
39 243
40 102
41 437
42 118
43 608
44 97
45 59
50 69
51 193
52 133
53 303
54 110
55 286
56 12
57 16
59 15
60 33
63 106
64 43
65 277
66 179
67 328
68 208
69 281
70 91
71 128
77 440
78 212
79 448
80 233
81 252
82 54
83 150
84 11
85 44
89 1
90 26
91 584
92 354
93 999
94 378
95 179
96 85
97 25
103 99
105 231
106 39
107 247
108 192
109 79
110 79
111 303
112 45
115 99
119 133
120 25
121 916
122 230
136 769
137 253
138 35
139 56
153 85
154 4
196 37

$$$$

     RDKit          2D

 16 15  0  0  0  0  0  0  0  0999 V2000
    2.5981    5.2500    0.0000 C   0  0  0  0  0  0  0  0  0  0  0  0
   -9.0933    4.5000    0.0000 C   0  0  0  0  0  0  0  0  0  0  0  0
   -0.3349    7.1491    0.0000 C   0  0  0  0  0  0  0  0  0  0  0  0
   -2.2632    7.1491    0.0000 C   0  0  0  0  0  0  0  0  0  0  0  0
   -6.1603    2.6009    0.0000 C   0  0  0  0  0  0  0  0  0  0  0  0
   -4.2320    2.6009    0.0000 C   0  0  0  0  0  0  0  0  0  0  0  0
   -2.5981    5.2500    0.0000 C   0  0  0  0  0  0  0  0  0  0  0  0
   -3.8971    4.5000    0.0000 C   0  0  0  0  0  0  0  0  0  0  0  0
    1.2990    6.0000    0.0000 C   0  0  0  0  0  0  0  0  0  0  0  0
   -7.7942    3.7500    0.0000 C   0  0  0  0  0  0  0  0  0  0  0  0
   -1.2990    6.0000    0.0000 C   0  0  0  0  0  0  0  0  0  0  0  0
   -5.1962    3.7500    0.0000 C   0  0  0  0  0  0  0  0  0  0  0  0
    1.2990    7.5000    0.0000 O   0  0  0  0  0  0  0  0  0  0  0  0
   -7.7942    2.2500    0.0000 O   0  0  0  0  0  0  0  0  0  0  0  0
    0.0000    5.2500    0.0000 O   0  0  0  0  0  0  0  0  0  0  0  0
   -6.4952    4.5000    0.0000 O   0  0  0  0  0  0  0  0  0  0  0  0
  8  7  3  0
  9  1  1  0
 10  2  1  0
 11  3  1  0
 11  4  1  0
 11  7  1  0
 12  5  1  0
 12  6  1  0
 12  8  1  0
 13  9  2  0
 14 10  2  0
 15  9  1  0
 15 11  1  0
 16 10  1  0
 16 12  1  0
M  END
>  <NAME>  (5460) 
2,5-DIACETOXY-2,5-DIMETHYL-3-HEXYNE

>  <SYNONYMS>  (5460) 
1,1,4,4-TETRAMETHYL-2-BUTYNYLENE DIACETATE

>  <SPECTRUM TYPE>  (5460) 
MS1

>  <INSTRUMENT TYPE>  (5460) 
EI-B

>  <INSTRUMENT>  (5460) 
HITACHI RMU-6D

>  <ION MODE>  (5460) 
P

>  <INCHIKEY>  (5460) 
JTSBDFUPOCMOBR-UHFFFAOYSA-N

>  <FORMULA>  (5460) 
C12H18O4

>  <EXACT MASS>  (5460) 
226.120509056

>  <MW>  (5460) 
226

>  <ID>  (5460) 
JP001216

>  <CONTRIBUTOR>  (5460) 
University of Tokyo Team, {Faculty of Engineering, University of Tokyo

>  <COMMENT>  (5460) 
SMILES=CC(=O)OC(C)(C)C#CC(C)(C)OC(C)=O
InChI=InChI=1S/C12H18O4/c1-9(13)15-11(3,4)7-8-12(5,6)16-10(2)14/h1-6H3
computed SMILES=O=C(OC(C#CC(OC(=O)C)(C)C)(C)C)C
accession=JP001216
date=2016.01.19 (Created 2008.10.21, modified 2011.05.06)
author=SASAKI S, TOYOHASHI UNIV. OF TECH.
license=CC BY-NC-SA
exact mass=226.12051
ionization energy=70 eV
ion type=[M]+*
computed spectral entropy=3.018422795065845
computed normalized entropy=0.7342533229666106
SPLASH=splash10-0006-9600000000-a89708c4f97853614770
submitter=submitter = University of Tokyo Team (Faculty of Engineering, University of Tokyo)
MoNA Rating=3.75

>  <NUM PEAKS>  (5460) 
61

>  <MASS SPECTRAL PEAKS>  (5460) 
14 5
18 4
25 2
26 1.4
27 2.5
30 1
31 1.5
39 0.75
40 1.5
41 16
42 3
43 99.99
44 2
45 1
50 1
51 0.35
52 2.5
53 11
54 1
55 0.15
57 7.5
61 1.5
63 4.5
64 0.2
65 6
66 4
67 11
68 1.8
69 4
76 4.5
77 1.5
78 0.6
79 1
80 27
81 2
82 1.85
83 3
92 8
93 1
94 0.3
96 6
97 1
98 1
99 4.4
100 2
105 1
106 21
107 0.3
108 48
109 5
122 6
123 2
124 18
125 2
126 5
139 0.15
140 74
141 6
163 6
182 1.6
183 2

>  <PREDICTED SPECTRUM>  (5460) 
14 35
15 77
16 18
25 5
26 65
27 185
28 85
29 151
31 39
37 33
38 67
39 320
40 143
41 405
42 151
43 999
44 114
45 96
49 27
50 70
51 161
52 144
53 257
54 138
55 275
56 109
57 107
59 69
60 62
61 49
62 4
63 94
64 58
65 151
66 149
67 309
68 210
69 265
70 99
71 102
72 9
77 180
78 81
79 209
80 102
81 272
82 132
83 185
84 105
85 150
86 57
87 111
89 37
91 199
92 51
93 175
94 91
95 305
96 191
97 197
98 82
99 130
100 16
103 17
105 75
106 117
107 244
108 154
109 393
110 169
111 139
112 48
113 71
115 99
121 73
122 88
123 475
124 499
125 317
126 109
127 235
128 28
137 103
138 108
139 40
140 23
141 54
142 99
151 292
152 45
166 336
167 210
168 65
169 192
183 7

$$$$

     RDKit          2D

 10  9  0  0  0  0  0  0  0  0999 V2000
    1.6238    3.1875    0.0000 C   0  0  0  0  0  0  0  0  0  0  0  0
    0.3248    0.9375    0.0000 C   0  0  0  0  0  0  0  0  0  0  0  0
   -2.2733    0.9375    0.0000 C   0  0  0  0  0  0  0  0  0  0  0  0
   -4.8714    3.9375    0.0000 C   0  0  0  0  0  0  0  0  0  0  0  0
    0.3248    3.9375    0.0000 C   0  0  0  0  0  0  0  0  0  0  0  0
   -0.9743    1.6875    0.0000 C   0  0  0  0  0  0  0  0  0  0  0  0
   -3.5724    3.1875    0.0000 C   0  0  0  0  0  0  0  0  0  0  0  0
   -0.9743    3.1875    0.0000 C   0  0  0  0  0  0  0  0  0  0  0  0
   -3.5724    1.6875    0.0000 O   0  0  0  0  0  0  0  0  0  0  0  0
   -2.2733    3.9375    0.0000 O   0  0  0  0  0  0  0  0  0  0  0  0
  5  1  2  0
  6  2  1  0
  6  3  1  0
  7  4  1  0
  8  5  1  0
  8  6  1  0
  9  7  2  0
 10  7  1  0
 10  8  1  0
M  END
>  <NAME>  (5461) 
1-ISOPROPYLALLYL ACETATE

>  <SYNONYMS>  (5461) 


>  <SPECTRUM TYPE>  (5461) 
MS1

>  <INSTRUMENT TYPE>  (5461) 
EI-B

>  <INSTRUMENT>  (5461) 
HITACHI RMU-6D

>  <ION MODE>  (5461) 
P

>  <INCHIKEY>  (5461) 
XAKHEXKHMNYRCG-UHFFFAOYSA-N

>  <FORMULA>  (5461) 
C8H14O2

>  <EXACT MASS>  (5461) 
142.099379688

>  <MW>  (5461) 
142

>  <ID>  (5461) 
JP001210

>  <CONTRIBUTOR>  (5461) 
University of Tokyo Team, {Faculty of Engineering, University of Tokyo

>  <COMMENT>  (5461) 
SMILES=C=CC(C(C)C)OC(C)=O
InChI=InChI=1S/C8H14O2/c1-5-8(6(2)3)10-7(4)9/h5-6,8H,1H2,2-4H3
computed SMILES=O=C(OC(C=C)C(C)C)C
accession=JP001210
date=2016.01.19 (Created 2008.10.21, modified 2011.05.06)
author=SASAKI S, TOYOHASHI UNIV. OF TECH.
license=CC BY-NC-SA
exact mass=142.09938
ionization energy=70 eV
ion type=[M]+*
computed spectral entropy=1.7445995938488121
computed normalized entropy=0.573028982224666
SPLASH=splash10-0006-9000000000-edd73f5a91f38aa9c889
submitter=submitter = University of Tokyo Team (Faculty of Engineering, University of Tokyo)
MoNA Rating=3.75

>  <NUM PEAKS>  (5461) 
21

>  <MASS SPECTRAL PEAKS>  (5461) 
15 3
18 1.5
25 5.5
26 0.4
27 2.5
29 1
39 4
41 0.9
43 99.99
44 1
55 6
56 0.1
57 6
58 2
65 8
66 0.2
80 12
81 1
99 16
100 1.35
101 2

>  <PREDICTED SPECTRUM>  (5461) 
14 17
15 56
16 3
25 11
26 61
27 226
28 114
29 166
31 40
37 14
38 65
39 360
40 157
41 505
42 230
43 999
44 211
45 135
50 24
51 112
52 80
53 260
54 270
55 456
56 185
57 276
58 98
59 90
60 19
66 3
67 297
68 80
69 161
70 93
71 207
72 188
73 85
81 144
82 413
83 291
84 56
85 249
87 1
99 406
100 661
101 145
102 2

$$$$

     RDKit          2D

  9  8  0  0  0  0  0  0  0  0999 V2000
    0.0000    0.0000    0.0000 C   0  0  0  0  0  0  0  0  0  0  0  0
   -1.8481    5.7990    0.0000 C   0  0  0  0  0  0  0  0  0  0  0  0
   -3.8971    5.2500    0.0000 C   0  0  0  0  0  0  0  0  0  0  0  0
   -3.3481    3.2010    0.0000 C   0  0  0  0  0  0  0  0  0  0  0  0
   -1.2990    3.7500    0.0000 C   0  0  0  0  0  0  0  0  0  0  0  0
    0.0000    1.5000    0.0000 C   0  0  0  0  0  0  0  0  0  0  0  0
   -2.5981    4.5000    0.0000 C   0  0  0  0  0  0  0  0  0  0  0  0
    1.2990    2.2500    0.0000 O   0  0  0  0  0  0  0  0  0  0  0  0
   -1.2990    2.2500    0.0000 O   0  0  0  0  0  0  0  0  0  0  0  0
  6  1  1  0
  7  2  1  0
  7  3  1  0
  7  4  1  0
  7  5  1  0
  8  6  2  0
  9  5  1  0
  9  6  1  0
M  END
>  <NAME>  (5462) 
2,2-DIMETHYLPROPYL ACETATE

>  <SYNONYMS>  (5462) 


>  <SPECTRUM TYPE>  (5462) 
MS1

>  <INSTRUMENT TYPE>  (5462) 
EI-B

>  <INSTRUMENT>  (5462) 
HITACHI RMU-6D

>  <ION MODE>  (5462) 
P

>  <INCHIKEY>  (5462) 
QLNYTCSELYEEPV-UHFFFAOYSA-N

>  <FORMULA>  (5462) 
C7H14O2

>  <EXACT MASS>  (5462) 
130.099379688

>  <MW>  (5462) 
130

>  <ID>  (5462) 
JP001206

>  <CONTRIBUTOR>  (5462) 
University of Tokyo Team, {Faculty of Engineering, University of Tokyo

>  <COMMENT>  (5462) 
SMILES=CC(=O)OCC(C)(C)C
InChI=InChI=1S/C7H14O2/c1-6(8)9-5-7(2,3)4/h5H2,1-4H3
computed SMILES=O=C(OCC(C)(C)C)C
accession=JP001206
date=2016.01.19 (Created 2008.10.21, modified 2011.05.06)
author=SASAKI S, TOYOHASHI UNIV. OF TECH.
license=CC BY-NC-SA
exact mass=130.09938
ionization energy=70 eV
ion type=[M]+*
computed spectral entropy=2.2024171618396315
computed normalized entropy=0.6930081362399397
SPLASH=splash10-056u-9000000000-57c7e79400e1883fee9f
submitter=submitter = University of Tokyo Team (Faculty of Engineering, University of Tokyo)
MoNA Rating=3.75

>  <NUM PEAKS>  (5462) 
24

>  <MASS SPECTRAL PEAKS>  (5462) 
14 1.5
15 3.5
18 3
25 0.6
26 99.99
27 13.5
29 20
38 0.55
40 26.5
42 3
43 97.5
44 0.3
54 11.5
55 16.5
57 71.5
58 0.25
66 4
68 3.5
71 5
72 0.25
73 28
98 1.5
115 3.5
129 1

>  <PREDICTED SPECTRUM>  (5462) 
14 67
15 150
16 3
25 2
26 104
27 335
28 174
29 363
31 172
32 31
33 7
37 2
38 36
39 241
40 116
41 467
42 269
43 999
44 143
45 10
50 2
51 13
52 1
53 64
54 17
55 299
56 163
57 834
58 114
59 43
60 13
61 69
69 43
70 260
71 314
72 100
73 288
74 109
75 195
87 36
115 63

$$$$

     RDKit          2D

 19 22  0  0  1  0  0  0  0  0999 V2000
    1.7613   -0.0171    0.0000 C   0  0  0  0  0  0  0  0  0  0  0  0
   -4.7177    1.4247    0.0000 C   0  0  0  0  0  0  0  0  0  0  0  0
   -1.3697    5.7238    0.0000 C   0  0  0  0  0  0  0  0  0  0  0  0
   -4.7177    4.4247    0.0000 C   0  0  0  0  0  0  0  0  0  0  0  0
   -3.4187    5.1747    0.0000 C   0  0  0  0  0  0  0  0  0  0  0  0
   -0.8206    2.1747    0.0000 C   0  0  0  0  0  0  0  0  0  0  0  0
   -3.4187    0.6747    0.0000 C   0  0  0  0  0  0  0  0  0  0  0  0
    0.2941   -0.3289    0.0000 C   0  0  0  0  0  0  0  0  0  0  0  0
   -0.8206    0.6747    0.0000 C   0  0  0  0  0  0  0  0  0  0  0  0
   -2.1197   -0.0753    0.0000 C   0  0  0  0  0  0  0  0  0  0  0  0
   -4.7177    2.9247    0.0000 C   0  0  0  0  0  0  0  0  0  0  0  0
   -0.3160   -1.6993    0.0000 C   0  0  0  0  0  0  0  0  0  0  0  0
   -3.4187    2.1747    0.0000 C   0  0  0  0  0  0  0  0  0  0  0  0
   -2.1197    4.4247    0.0000 C   0  0  0  0  0  0  0  0  0  0  0  0
   -2.1197    2.9247    0.0000 C   0  0  0  0  0  0  0  0  0  0  0  0
   -6.0168    2.1747    0.0000 O   0  0  0  0  0  0  0  0  0  0  0  0
    0.4340   -2.9983    0.0000 O   0  0  0  0  0  0  0  0  0  0  0  0
   -1.8078   -1.5425    0.0000 O   0  0  0  0  0  0  0  0  0  0  0  0
   -0.8206    3.6747    0.0000 O   0  0  0  0  0  0  0  0  0  0  0  0
  5  4  1  0
  8  1  2  0
  9  6  1  1
  9  8  1  0
 10  7  1  6
 10  9  1  0
 11  4  1  0
 12  8  1  0
 13  2  1  6
 13  7  1  0
 13 11  1  0
 14  3  1  6
 14  5  1  0
 15  6  1  6
 15 13  1  0
 15 14  1  0
 11 16  1  6
 17 12  2  0
 10 18  1  0
 18 12  1  0
 19 14  1  0
 15 19  1  0
M  END
>  <NAME>  (5463) 
1-BETA-HYDROXY-4,5-ALPHA-EPOXY-ALANTOLACTONE

>  <SYNONYMS>  (5463) 
MERIDIANONE

>  <SPECTRUM TYPE>  (5463) 
MS1

>  <INSTRUMENT TYPE>  (5463) 
EI-B

>  <INSTRUMENT>  (5463) 
Unknown

>  <ION MODE>  (5463) 
P

>  <INCHIKEY>  (5463) 
HGCXXEYNHRNBTF-JQRSIXJKSA-N

>  <FORMULA>  (5463) 
C15H20O4

>  <EXACT MASS>  (5463) 
264.13615912

>  <MW>  (5463) 
264

>  <ID>  (5463) 
JP001192

>  <CONTRIBUTOR>  (5463) 
University of Tokyo Team, {Faculty of Engineering, University of Tokyo

>  <COMMENT>  (5463) 
SMILES=O=C(O1)C(=C)C([H])(C2)C([H])1CC(C)(C([H])(O)4)C2(O3)C(C)(CC4)3
InChI=InChI=1S/C15H20O4/c1-8-9-6-15-13(2,7-10(9)18-12(8)17)11(16)4-5-14(15,3)19-15/h9-11,16H,1,4-7H2,2-3H3/t9-,10+,11+,13-,14+,15-/m0/s1
computed SMILES=O=C1OC2CC3(C)C(O)CCC4(OC43CC2C1=C)C
accession=JP001192
date=2016.01.19 (Created 2008.10.21, modified 2011.05.06)
author=NAGAKI M, DEPT. OF GENERAL EDUC., HIROSAKI UNIV.
license=CC BY-NC-SA
exact mass=264.13616
ionization energy=70 eV
ion type=[M]+*
computed spectral entropy=3.3075720114173195
computed normalized entropy=0.825379837046278
SPLASH=splash10-0fka-0090000000-ff3c9ae9aeaf8899b61a
submitter=submitter = University of Tokyo Team (Faculty of Engineering, University of Tokyo)
MoNA Rating=3.75

>  <NUM PEAKS>  (5463) 
55

>  <MASS SPECTRAL PEAKS>  (5463) 
199 14.96
200 13.24
201 7.91
202 84.32
203 17.99
204 14.1
205 6.33
206 57.27
207 15.11
208 5.03
210 3.45
211 3.17
212 11.94
213 3.17
214 7.48
215 4.46
216 20.29
217 17.84
218 8.49
219 16.26
220 79.71
221 68.78
222 13.96
223 2.73
224 4.75
226 1.73
227 11.8
228 2.3
229 5.61
230 27.34
231 15.25
232 7.91
233 3.02
234 44.46
235 9.21
237 1.58
239 1.29
241 2.58
243 2.59
244 2.88
245 9.93
246 5.47
247 8.49
248 99.99
249 16.69
250 2.16
252 2.59
253 1.58
255 1.58
257 2.16
260 1.73
262 3.6
263 11.8
264 4.17
265 1.44

>  <PREDICTED SPECTRUM>  (5463) 
17 19
18 35
26 28
27 210
28 122
29 226
31 131
32 0
38 19
39 271
40 125
41 616
42 227
43 999
44 216
45 353
46 39
47 137
49 15
50 75
51 211
52 134
53 446
54 132
55 622
56 225
57 372
58 168
59 224
60 150
61 67
62 35
63 124
64 93
65 352
66 190
67 489
68 200
69 520
70 221
71 452
72 171
73 114
74 132
75 120
76 89
77 521
78 256
79 580
80 192
81 574
82 277
83 359
84 235
85 316
86 156
87 118
88 56
89 139
90 38
91 748
92 291
93 592
94 336
95 662
96 359
97 453
98 241
99 230
100 76
101 119
102 126
103 323
104 156
105 691
106 386
107 808
108 539
109 735
110 372
111 465
112 349
113 284
114 109
115 447
116 268
117 561
118 353
119 659
120 358
121 775
122 569
123 858
124 447
125 472
126 267
127 260
128 356
129 370
130 266
131 642
132 297
133 613
134 356
135 580
136 311
137 638
138 527
139 483
140 212
141 370
142 205
143 417
144 211
145 598
146 357
147 533
148 428
149 605
150 469
151 532
152 580
153 363
154 180
155 157
156 165
157 364
158 330
159 590
160 313
161 561
162 279
163 512
164 378
165 432
166 276
167 231
168 124
169 226
170 168
171 312
172 226
173 314
174 296
175 519
176 489
177 569
178 450
179 293
180 203
181 82
182 72
183 17
184 52
185 312
186 196
187 270
188 216
189 387
190 294
191 490
192 259
193 306
194 256
195 140
196 78
199 170
200 210
201 298
202 307
203 452
204 324
205 245
206 232
207 192
208 148
209 6
210 1
211 12
213 289
214 109
215 78
216 92
217 123
218 236
219 253
220 264
221 172
222 68
226 54
228 337
229 101
230 89
231 474
232 152
233 37
234 41
235 114
236 168
237 73
246 490
247 193
248 52
249 89
264 329
265 122

$$$$

     RDKit          2D

 18 20  0  0  1  0  0  0  0  0999 V2000
   -2.2875   -2.9900    0.0000 C   0  0  0  0  0  0  0  0  0  0  0  0
   -0.9882    2.2600    0.0000 C   0  0  0  0  0  0  0  0  0  0  0  0
    2.3977   -2.6048    0.0000 C   0  0  0  0  0  0  0  0  0  0  0  0
   -3.5900    0.7600    0.0000 C   0  0  0  0  0  0  0  0  0  0  0  0
   -3.5900   -0.7400    0.0000 C   0  0  0  0  0  0  0  0  0  0  0  0
   -2.2900    1.5100    0.0000 C   0  0  0  0  0  0  0  0  0  0  0  0
    0.2900   -1.4900    0.0000 C   0  0  0  0  0  0  0  0  0  0  0  0
    0.3000    1.5000    0.0000 C   0  0  0  0  0  0  0  0  0  0  0  0
   -2.2900   -1.4900    0.0000 C   0  0  0  0  0  0  0  0  0  0  0  0
   -1.0000   -0.7400    0.0000 C   0  0  0  0  0  0  0  0  0  0  0  0
    1.5900   -0.7600    0.0000 C   0  0  0  0  0  0  0  0  0  0  0  0
    1.6000    0.7500    0.0000 C   0  0  0  0  0  0  0  0  0  0  0  0
    3.9200   -0.0200    0.0000 C   0  0  0  0  0  0  0  0  0  0  0  0
   -0.9900    0.7600    0.0000 C   0  0  0  0  0  0  0  0  0  0  0  0
    3.0200   -1.2400    0.0000 C   0  0  0  0  0  0  0  0  0  0  0  0
    5.4200   -0.0280    0.0000 O   0  0  0  0  0  0  0  0  0  0  0  0
    4.3129   -2.0005    0.0000 O   0  0  0  0  0  0  0  0  0  0  0  0
    3.0400    1.2000    0.0000 O   0  0  0  0  0  0  0  0  0  0  0  0
  5  4  1  0
  6  4  1  0
  9  1  1  1
  9  5  1  0
 10  7  1  0
 10  9  1  0
 11  7  1  1
 12  8  1  1
 12 11  1  0
 14  2  1  1
 14  6  1  0
 14  8  1  0
 14 10  1  0
 15  3  1  6
 15 11  1  0
 15 13  1  0
 16 13  2  0
 15 17  1  0
 12 18  1  0
 18 13  1  0
M  END
>  <NAME>  (5464) 
3-BETA-HYDROXY-TETRAHYDROALANTOLACTONE

>  <SYNONYMS>  (5464) 


>  <SPECTRUM TYPE>  (5464) 
MS1

>  <INSTRUMENT TYPE>  (5464) 
EI-B

>  <INSTRUMENT>  (5464) 
Unknown

>  <ION MODE>  (5464) 
P

>  <INCHIKEY>  (5464) 
UQPYSUOAPAJVOE-SQGOOWKJSA-N

>  <FORMULA>  (5464) 
C15H24O3

>  <EXACT MASS>  (5464) 
252.17254462799997

>  <MW>  (5464) 
252

>  <ID>  (5464) 
JP001191

>  <CONTRIBUTOR>  (5464) 
University of Tokyo Team, {Faculty of Engineering, University of Tokyo

>  <COMMENT>  (5464) 
SMILES=[H]C(C)(C3)C(C1)C(C)(CC3)CC([H])(O2)C([H])1C(C)(O)C(=O)2
InChI=InChI=1S/C15H24O3/c1-9-5-4-6-14(2)8-12-11(7-10(9)14)15(3,17)13(16)18-12/h9-12,17H,4-8H2,1-3H3/t9-,10?,11-,12+,14+,15-/m0/s1
computed SMILES=O=C1OC2CC3(C)CCCC(C)C3CC2C1(O)C
accession=JP001191
date=2016.01.19 (Created 2008.10.21, modified 2011.05.06)
author=NAGAKI M, DEPT. OF GENERAL EDUC., HIROSAKI UNIV.
license=CC BY-NC-SA
exact mass=252.17254
ionization energy=70 eV
ion type=[M]+*
computed spectral entropy=4.133930729240724
computed normalized entropy=0.8829164601992152
SPLASH=splash10-0aba-3910000000-bd31c658dfbb48b381f5
submitter=submitter = University of Tokyo Team (Faculty of Engineering, University of Tokyo)
MoNA Rating=3.75

>  <NUM PEAKS>  (5464) 
108

>  <MASS SPECTRAL PEAKS>  (5464) 
43 13.64
44 3.58
45 1.61
55 3.58
56 1.61
57 6.7
58 1.38
59 2.08
67 4.39
68 4.5
69 8.32
70 2.77
71 2.31
74 19.88
75 5.54
79 3.35
80 6.7
81 19.53
82 13.35
83 8.44
84 12.25
85 4.39
91 5.31
92 2.08
93 23.81
94 25.66
95 40.69
96 48.32
97 46.12
98 5.55
99 1.61
105 20.69
106 7.63
107 25.54
108 85.2
109 58.84
110 10.75
111 5.66
112 2.77
113 2.42
117 1.5
118 1.96
119 22.08
120 19.19
121 99.99
122 43.69
123 24.97
124 9.48
125 10.75
126 4.62
131 6.35
132 1.84
133 13.52
134 13.17
135 20.57
136 10.98
137 7.05
138 21.5
139 21.73
140 3.23
143 10.63
144 1.5
145 25.08
146 3.23
147 14.56
148 8.78
149 13.52
150 4.85
151 9.94
152 5.08
153 3.69
159 3.35
160 15.72
161 67.39
162 13.41
163 3.93
164 5.2
165 3.93
166 10.17
167 5.08
173 8.43
174 1.38
175 21.04
176 3.12
177 8.43
178 8.55
179 21.61
180 4.85
189 1.61
190 24.39
191 5.66
192 3.81
193 26.93
194 8.44
195 31.56
196 9.82
201 1.38
205 4.85
206 3.12
208 89.94
209 14.1
210 1.38
219 25.08
220 3.35
234 15.95
235 2.65
252 15.26
253 2.66

>  <PREDICTED SPECTRUM>  (5464) 
27 89
28 32
29 74
30 69
31 46
39 36
40 23
41 224
42 89
43 385
44 115
45 96
51 7
52 11
53 249
54 93
55 322
56 152
57 192
58 132
59 94
65 119
66 55
67 305
68 188
69 293
70 184
71 225
72 38
74 30
77 163
78 24
79 328
80 203
81 444
82 190
83 187
84 169
85 139
86 56
91 333
92 138
93 527
94 409
95 645
96 447
97 366
98 223
99 178
100 36
103 51
105 311
106 347
107 605
108 670
109 724
110 378
111 257
112 162
113 86
117 211
118 98
119 488
120 337
121 746
122 624
123 509
124 283
125 392
126 189
127 37
128 9
129 18
130 47
131 83
132 53
133 312
134 247
135 321
136 212
137 334
138 390
139 245
140 84
143 4
144 23
145 309
146 109
147 276
148 150
149 273
150 140
151 323
152 217
153 146
154 25
159 53
160 259
161 645
162 268
163 226
164 110
165 357
166 290
167 209
168 38
173 168
174 164
175 229
176 103
177 218
178 279
179 410
180 267
181 128
190 270
191 199
192 69
193 500
194 344
195 360
196 98
201 59
202 19
204 6
205 105
206 145
207 99
208 999
209 394
210 81
219 330
220 99
223 15
224 52
234 251
235 107
237 93
252 269
253 84

$$$$

     RDKit          2D

 19 22  0  0  1  0  0  0  0  0999 V2000
   -4.4882    3.3901    0.0000 C   0  0  0  0  0  0  0  0  0  0  0  0
    1.2990    3.7500    0.0000 C   0  0  0  0  0  0  0  0  0  0  0  0
   -0.0000   -1.5000    0.0000 C   0  0  0  0  0  0  0  0  0  0  0  0
   -1.2990    2.2500    0.0000 C   0  0  0  0  0  0  0  0  0  0  0  0
   -1.2990   -0.7500    0.0000 C   0  0  0  0  0  0  0  0  0  0  0  0
   -4.0247    1.9635    0.0000 C   0  0  0  0  0  0  0  0  0  0  0  0
    1.2990    2.2500    0.0000 C   0  0  0  0  0  0  0  0  0  0  0  0
   -2.5981    1.5000    0.0000 C   0  0  0  0  0  0  0  0  0  0  0  0
    0.0000    1.5000    0.0000 C   0  0  0  0  0  0  0  0  0  0  0  0
   -2.5981   -0.0000    0.0000 C   0  0  0  0  0  0  0  0  0  0  0  0
    2.5981    1.5000    0.0000 C   0  0  0  0  0  0  0  0  0  0  0  0
    2.5981   -0.0000    0.0000 C   0  0  0  0  0  0  0  0  0  0  0  0
    1.2990   -0.7500    0.0000 C   0  0  0  0  0  0  0  0  0  0  0  0
   -4.9063    0.7500    0.0000 C   0  0  0  0  0  0  0  0  0  0  0  0
    0.0000    0.0000    0.0000 C   0  0  0  0  0  0  0  0  0  0  0  0
    3.8971    2.2500    0.0000 O   0  0  0  0  0  0  0  0  0  0  0  0
   -6.4063    0.7500    0.0000 O   0  0  0  0  0  0  0  0  0  0  0  0
   -4.0247   -0.4635    0.0000 O   0  0  0  0  0  0  0  0  0  0  0  0
    2.5981   -1.5000    0.0000 O   0  0  0  0  0  0  0  0  0  0  0  0
  6  1  2  0
  7  2  1  1
  8  4  1  1
  8  6  1  0
  9  4  1  1
  9  7  1  0
 10  5  1  1
 10  8  1  0
 11  7  1  0
 12 11  1  0
 13 12  1  0
 14  6  1  0
 15  3  1  1
 15  5  1  0
 15  9  1  0
 15 13  1  0
 16 11  2  0
 17 14  2  0
 10 18  1  0
 18 14  1  0
 12 19  1  6
 13 19  1  6
M  END
>  <NAME>  (5465) 
1-ALPHA-2-ALPHA-EPOXY-3-OXO-5,6-DIHYDROALANTOLACTONE

>  <SYNONYMS>  (5465) 
HIMEYOSHIN

>  <SPECTRUM TYPE>  (5465) 
MS1

>  <INSTRUMENT TYPE>  (5465) 
EI-B

>  <INSTRUMENT>  (5465) 
JEOL JMS-D-100

>  <ION MODE>  (5465) 
P

>  <INCHIKEY>  (5465) 
ILXNJGJFJRUHHW-SVWYSVCKSA-N

>  <FORMULA>  (5465) 
C15H18O4

>  <EXACT MASS>  (5465) 
262.120509056

>  <MW>  (5465) 
262

>  <ID>  (5465) 
JP001189

>  <CONTRIBUTOR>  (5465) 
University of Tokyo Team, {Faculty of Engineering, University of Tokyo

>  <COMMENT>  (5465) 
SMILES=O=C(O1)C(=C)C([H])(C4)C([H])1CC(C)(C([H])43)C([H])(O2)C([H])(C(=O)C([H])(C)3)2
InChI=InChI=1S/C15H18O4/c1-6-8-4-9-7(2)11(16)12-13(19-12)15(9,3)5-10(8)18-14(6)17/h7-10,12-13H,1,4-5H2,2-3H3/t7-,8-,9+,10-,12+,13+,15-/m1/s1
computed SMILES=O=C1OC2CC3(C)C4OC4C(=O)C(C)C3CC2C1=C
accession=JP001189
date=2016.01.19 (Created 2008.10.21, modified 2011.05.06)
author=NAGAKI M, DEPT. OF GENERAL EDUC., HIROSAKI UNIV.
license=CC BY-NC-SA
exact mass=262.12051
ionization energy=70 eV
ion type=[M]+*
computed spectral entropy=4.229510981362533
computed normalized entropy=0.9470662783444661
SPLASH=splash10-0ce9-2950000000-8a601d71efa53085f70f
submitter=submitter = University of Tokyo Team (Faculty of Engineering, University of Tokyo)
MoNA Rating=3.75

>  <NUM PEAKS>  (5465) 
87

>  <MASS SPECTRAL PEAKS>  (5465) 
43 38.6
56 18.18
57 9.09
69 32.39
70 9.09
71 15.91
82 15.91
85 9.66
91 17.05
93 10.8
95 20.45
96 17.05
97 12.5
98 9.66
105 16.47
106 13.64
107 14.21
109 14.77
110 9.66
112 9.66
117 8.52
119 14.77
120 15.91
121 14.77
122 15.91
123 21.59
124 9.09
131 26.14
132 11.36
133 23.86
134 11.36
135 20.45
136 20.45
137 16.48
143 14.44
144 10.23
145 30.68
147 17.05
148 9.09
149 69.32
150 14.77
151 16.47
155 10.23
159 48.86
160 16.47
161 32.95
162 11.36
163 16.47
164 9.66
165 13.64
169 11.36
170 16.47
171 18.18
172 9.66
173 18.18
174 9.66
175 7.95
176 26.14
177 47.73
178 26.14
183 10.23
187 23.86
188 16.48
189 14.2
190 16.48
191 25
192 47.61
198 13.64
199 15.91
201 23.29
203 9.09
204 9.66
205 51.14
206 44.32
211 9.66
215 27.27
216 42.05
217 15.91
219 99.99
220 15.91
223 18.18
233 94.76
244 23.9
246 13.19
247 10.02
262 78.7
263 9.66

>  <PREDICTED SPECTRUM>  (5465) 
26 31
27 201
28 11
29 191
31 53
38 56
39 603
40 302
41 999
42 218
43 695
44 187
45 101
46 4
50 144
51 339
52 247
53 638
54 303
55 779
56 238
57 368
58 24
63 146
64 43
65 462
66 341
67 714
68 395
69 669
70 212
71 163
76 14
77 632
78 256
79 662
80 310
81 812
82 458
83 525
84 112
85 93
86 0
89 15
91 760
92 307
93 505
94 425
95 814
96 559
97 468
98 146
99 96
103 221
104 146
105 582
106 289
107 565
108 337
109 765
110 514
111 392
112 154
113 7
115 358
116 221
117 374
118 175
119 421
120 217
121 368
122 251
123 439
124 213
125 242
126 43
127 88
128 155
129 157
130 62
131 313
132 144
133 381
134 158
135 354
136 231
137 327
138 198
139 225
140 16
142 8
143 135
144 73
145 267
146 240
147 396
148 283
149 319
150 292
151 298
152 115
154 10
155 15
157 42
158 121
159 303
160 146
161 324
162 243
163 280
164 158
165 161
166 56
171 18
172 72
173 267
174 213
175 266
176 198
177 225
178 167
179 102
180 27
186 7
187 213
188 161
189 324
190 279
191 328
192 178
193 85
194 19
199 9
200 31
201 210
203 203
204 57
205 92
206 74
215 51
216 124
217 183
218 257
219 236
220 100
221 1
229 84
233 200
234 284
235 56
244 72
245 34
247 165
262 504
263 147

$$$$

     RDKit          2D

 25 28  0  0  1  0  0  0  0  0999 V2000
   -7.5923   -3.3728    0.0000 C   0  0  0  0  0  0  0  0  0  0  0  0
    2.2683    2.0011    0.0000 C   0  0  0  0  0  0  0  0  0  0  0  0
   -0.3297    2.0007    0.0000 C   0  0  0  0  0  0  0  0  0  0  0  0
    0.9704   -4.7491    0.0000 C   0  0  0  0  0  0  0  0  0  0  0  0
   -7.7491   -1.8810    0.0000 C   0  0  0  0  0  0  0  0  0  0  0  0
   -4.6044    3.3382    0.0000 C   0  0  0  0  0  0  0  0  0  0  0  0
   -3.3054    2.5882    0.0000 C   0  0  0  0  0  0  0  0  0  0  0  0
    2.2700   -2.4989    0.0000 C   0  0  0  0  0  0  0  0  0  0  0  0
    2.2698   -0.9989    0.0000 C   0  0  0  0  0  0  0  0  0  0  0  0
   -5.7191    2.3345    0.0000 C   0  0  0  0  0  0  0  0  0  0  0  0
   -0.3300   -2.4993    0.0000 C   0  0  0  0  0  0  0  0  0  0  0  0
   -6.5356    0.5007    0.0000 C   0  0  0  0  0  0  0  0  0  0  0  0
    0.9694    1.2509    0.0000 C   0  0  0  0  0  0  0  0  0  0  0  0
    0.9701   -3.2491    0.0000 C   0  0  0  0  0  0  0  0  0  0  0  0
   -6.5356   -0.9993    0.0000 C   0  0  0  0  0  0  0  0  0  0  0  0
    0.9697   -0.2491    0.0000 C   0  0  0  0  0  0  0  0  0  0  0  0
   -0.3302   -0.9993    0.0000 C   0  0  0  0  0  0  0  0  0  0  0  0
   -3.6172    1.1210    0.0000 C   0  0  0  0  0  0  0  0  0  0  0  0
   -5.1090   -1.4628    0.0000 C   0  0  0  0  0  0  0  0  0  0  0  0
   -2.9283   -0.9993    0.0000 C   0  0  0  0  0  0  0  0  0  0  0  0
   -5.1090    0.9642    0.0000 C   0  0  0  0  0  0  0  0  0  0  0  0
   -4.2273   -0.2493    0.0000 C   0  0  0  0  0  0  0  0  0  0  0  0
   -4.6455   -2.8894    0.0000 O   0  0  0  0  0  0  0  0  0  0  0  0
   -2.9283   -2.4993    0.0000 O   0  0  0  0  0  0  0  0  0  0  0  0
   -1.6293   -0.2493    0.0000 O   0  0  0  0  0  0  0  0  0  0  0  0
  5  1  1  0
  7  6  1  0
  9  8  1  0
 10  6  1  0
 13  2  1  0
 13  3  1  0
 14  4  1  1
 14  8  1  0
 14 11  1  0
 15  5  1  6
 15 12  1  0
 16  9  1  0
 16 13  1  0
 17 11  1  0
 17 16  1  0
 18  7  1  6
 19 15  1  0
 21 10  1  6
 21 12  1  0
 21 18  1  0
 22 18  1  0
 22 19  1  0
 22 20  1  0
 22 21  1  0
 19 23  1  1
 24 20  2  0
 17 25  1  1
 25 20  1  0
M  END
>  <NAME>  (5466) 
L-MENTHYL 3-ETHYL-4-HYDROXYTRICYCLO(4.3.0.O(1,5))NONANE-5-CARBOXYLATE

>  <SYNONYMS>  (5466) 


>  <SPECTRUM TYPE>  (5466) 
MS1

>  <INSTRUMENT TYPE>  (5466) 
EI-B

>  <INSTRUMENT>  (5466) 
HITACHI RMU-6L

>  <ION MODE>  (5466) 
P

>  <INCHIKEY>  (5466) 
QWNGCUFGYYKGMH-FHYZNXDSSA-N

>  <FORMULA>  (5466) 
C22H36O3

>  <EXACT MASS>  (5466) 
348.26644501199996

>  <MW>  (5466) 
348

>  <ID>  (5466) 
JP001158

>  <CONTRIBUTOR>  (5466) 
University of Tokyo Team, {Faculty of Engineering, University of Tokyo

>  <COMMENT>  (5466) 
SMILES=CC(C4)CC(C(C4)C(C)C)OC(=O)C(C(O)2)(C31)C(CCC3)(CC(CC)2)1
InChI=InChI=1S/C22H36O3/c1-5-15-12-21-10-6-7-18(21)22(21,19(15)23)20(24)25-17-11-14(4)8-9-16(17)13(2)3/h13-19,23H,5-12H2,1-4H3/t14-,15-,16?,17-,18+,19+,21+,22?/m1/s1
computed SMILES=O=C(OC1CC(C)CCC1C(C)C)C23C(O)C(CC)CC43CCCC24
accession=JP001158
date=2016.01.19 (Created 2008.10.21, modified 2011.05.06)
author=NAKAYAMA M, MASS SPECTROSCOPY SOC. OF JAPAN (MSSJ)
license=CC BY-NC-SA
exact mass=348.26645
ionization energy=70 eV
ion type=[M]+*
computed spectral entropy=3.704601532513923
computed normalized entropy=0.8430184084790174
SPLASH=splash10-0536-9700000000-4da25b25af4072f28966
submitter=submitter = University of Tokyo Team (Faculty of Engineering, University of Tokyo)
MoNA Rating=3.75

>  <NUM PEAKS>  (5466) 
81

>  <MASS SPECTRAL PEAKS>  (5466) 
40 2
41 55
42 3
43 45
44 2
51 2
53 11
54 6
55 74
56 7
57 37
58 2
65 4
66 3
67 22
68 5
69 45
70 3
71 7
77 12
78 3
79 19
80 4
81 36
82 7
83 99.99
84 7
91 20
92 3
93 13
94 4
95 25
96 6
97 17
105 9
107 7
108 6
109 3
117 5
119 16
120 3
121 4
123 8
126 3
131 2
133 2
135 6
136 38
137 11
138 18
139 13
140 2
145 2
147 34
148 5
149 2
150 2
151 2
154 40
155 3
162 2
163 30
164 16
165 38
166 4
174 3
175 8
176 3
191 12
192 98
193 36
194 4
210 3
211 37
212 5
213 1
292 0.3
330 0.3
347 0.1
348 0.2
349 0.1

>  <PREDICTED SPECTRUM>  (5466) 
26 2
27 157
28 52
29 233
30 18
39 256
40 105
41 676
42 197
43 527
44 236
45 32
49 14
50 18
51 156
52 81
53 343
54 173
55 883
56 310
57 831
58 106
59 7
63 96
65 232
66 89
67 501
68 189
69 663
70 232
71 202
72 8
73 51
76 20
77 327
78 107
79 380
80 257
81 656
82 221
83 999
84 342
85 110
89 32
90 27
91 352
92 77
93 317
94 205
95 595
96 195
97 423
98 88
101 77
103 36
104 80
105 157
106 49
107 228
108 118
109 231
110 138
111 33
112 24
116 43
117 134
118 116
119 239
120 161
121 176
122 127
123 316
124 28
131 106
132 76
133 176
134 46
135 186
136 262
137 315
138 397
139 537
140 219
145 34
146 104
147 380
148 173
149 154
150 63
151 199
153 2
154 324
155 235
156 133
157 12
163 281
164 673
165 485
166 185
167 53
174 53
175 193
176 96
177 48
182 19
190 58
191 325
192 707
193 812
194 340
195 159
201 0
202 10
203 10
210 270
211 507
212 57
213 25
231 110
275 7
302 2
348 95

$$$$

     RDKit          2D

 25 28  0  0  1  0  0  0  0  0999 V2000
   -7.5923   -3.3728    0.0000 C   0  0  0  0  0  0  0  0  0  0  0  0
    2.2683    2.0011    0.0000 C   0  0  0  0  0  0  0  0  0  0  0  0
   -0.3297    2.0007    0.0000 C   0  0  0  0  0  0  0  0  0  0  0  0
    0.9704   -4.7491    0.0000 C   0  0  0  0  0  0  0  0  0  0  0  0
   -7.7491   -1.8810    0.0000 C   0  0  0  0  0  0  0  0  0  0  0  0
   -4.6044    3.3382    0.0000 C   0  0  0  0  0  0  0  0  0  0  0  0
   -3.3054    2.5882    0.0000 C   0  0  0  0  0  0  0  0  0  0  0  0
    2.2700   -2.4989    0.0000 C   0  0  0  0  0  0  0  0  0  0  0  0
    2.2698   -0.9989    0.0000 C   0  0  0  0  0  0  0  0  0  0  0  0
   -5.7191    2.3345    0.0000 C   0  0  0  0  0  0  0  0  0  0  0  0
   -0.3300   -2.4993    0.0000 C   0  0  0  0  0  0  0  0  0  0  0  0
   -6.5356    0.5007    0.0000 C   0  0  0  0  0  0  0  0  0  0  0  0
    0.9694    1.2509    0.0000 C   0  0  0  0  0  0  0  0  0  0  0  0
    0.9701   -3.2491    0.0000 C   0  0  0  0  0  0  0  0  0  0  0  0
   -6.5356   -0.9993    0.0000 C   0  0  0  0  0  0  0  0  0  0  0  0
    0.9697   -0.2491    0.0000 C   0  0  0  0  0  0  0  0  0  0  0  0
   -0.3302   -0.9993    0.0000 C   0  0  0  0  0  0  0  0  0  0  0  0
   -3.6172    1.1210    0.0000 C   0  0  0  0  0  0  0  0  0  0  0  0
   -5.1090   -1.4628    0.0000 C   0  0  0  0  0  0  0  0  0  0  0  0
   -2.9283   -0.9993    0.0000 C   0  0  0  0  0  0  0  0  0  0  0  0
   -5.1090    0.9642    0.0000 C   0  0  0  0  0  0  0  0  0  0  0  0
   -4.2273   -0.2493    0.0000 C   0  0  0  0  0  0  0  0  0  0  0  0
   -4.6455   -2.8894    0.0000 O   0  0  0  0  0  0  0  0  0  0  0  0
   -2.9283   -2.4993    0.0000 O   0  0  0  0  0  0  0  0  0  0  0  0
   -1.6293   -0.2493    0.0000 O   0  0  0  0  0  0  0  0  0  0  0  0
  5  1  1  0
  7  6  1  0
  9  8  1  0
 10  6  1  0
 13  2  1  0
 13  3  1  0
 14  4  1  1
 14  8  1  0
 14 11  1  0
 15  5  1  0
 15 12  1  0
 16  9  1  0
 16 13  1  0
 17 11  1  0
 17 16  1  0
 18  7  1  0
 19 15  1  0
 21 10  1  0
 21 12  1  0
 21 18  1  0
 22 18  1  0
 22 19  1  0
 22 20  1  0
 22 21  1  0
 23 19  2  0
 24 20  2  0
 17 25  1  1
 25 20  1  0
M  END
>  <NAME>  (5467) 
L-MENTHYL 3-ETHYL-4-OXOTRICYCLO(4.3.0.0(1,))NONANE-5-CARBOXYLATE

>  <SYNONYMS>  (5467) 


>  <SPECTRUM TYPE>  (5467) 
MS1

>  <INSTRUMENT TYPE>  (5467) 
EI-B

>  <INSTRUMENT>  (5467) 
HITACHI RMU-6L

>  <ION MODE>  (5467) 
P

>  <INCHIKEY>  (5467) 
QYTWWGBGNCCYSF-UPJDIYRESA-N

>  <FORMULA>  (5467) 
C22H34O3

>  <EXACT MASS>  (5467) 
346.25079494799996

>  <MW>  (5467) 
346

>  <ID>  (5467) 
JP001157

>  <CONTRIBUTOR>  (5467) 
University of Tokyo Team, {Faculty of Engineering, University of Tokyo

>  <COMMENT>  (5467) 
SMILES=CC(C4)CC(C(C4)C(C)C)OC(=O)C(C(=O)2)(C31)C(CCC3)(CC(CC)2)1
InChI=InChI=1S/C22H34O3/c1-5-15-12-21-10-6-7-18(21)22(21,19(15)23)20(24)25-17-11-14(4)8-9-16(17)13(2)3/h13-18H,5-12H2,1-4H3/t14-,15?,16?,17-,18?,21?,22?/m1/s1
computed SMILES=O=C(OC1CC(C)CCC1C(C)C)C23C(=O)C(CC)CC43CCCC24
accession=JP001157
date=2016.01.19 (Created 2008.10.21, modified 2011.05.06)
author=NAKAYAMA M, MASS SPECTROSCOPY SOC. OF JAPAN (MSSJ)
license=CC BY-NC-SA
exact mass=346.25079
ionization energy=70 eV
ion type=[M]+*
computed spectral entropy=3.977347698553187
computed normalized entropy=0.8511648595429868
SPLASH=splash10-0a5c-9610000000-7ee2a7929e776e7517d6
submitter=submitter = University of Tokyo Team (Faculty of Engineering, University of Tokyo)
MoNA Rating=3.75

>  <NUM PEAKS>  (5467) 
107

>  <MASS SPECTRAL PEAKS>  (5467) 
39 12
40 3
41 44
42 7
43 36
44 7
45 2
50 2
51 4
52 3
53 8
54 5
55 62
56 12
57 48
58 3
60 2
63 2
64 2
65 4
66 3
67 26
68 8
69 42
70 7
71 11
73 2
77 16
78 5
79 19
80 13
81 42
82 13
83 89
84 8
85 4
86 2
91 10
92 3
93 17
94 10
95 45
96 11
97 17
98 3
99 3
102 2
103 2
104 2
105 5
106 3
107 8
108 4
109 6
110 3
111 3
113 2
115 2
117 3
119 3
120 4
121 8
122 3
123 19
124 4
125 3
127 2
129 2
131 2
133 3
134 5
135 13
136 6
137 4
138 40
139 22
140 3
141 3
143 2
145 2
147 2
149 7
151 2
152 20
153 3
161 3
162 12
163 10
164 44
165 8
166 2
167 2
175 2
179 2
180 21
181 3
186 2
189 3
190 23
191 99.99
192 5
193 3
208 38
209 52
210 2
346 0.8
347 0.6

>  <PREDICTED SPECTRUM>  (5467) 
25 0
26 73
27 265
28 78
29 266
31 7
36 26
38 11
39 272
40 136
41 658
42 279
43 599
44 205
45 77
49 3
50 74
51 231
52 167
53 356
54 261
55 908
56 379
57 761
58 148
59 57
62 13
63 99
64 24
65 256
66 153
67 616
68 357
69 624
70 278
71 289
72 109
73 95
74 69
76 70
77 462
78 233
79 471
80 386
81 778
82 505
83 962
84 339
85 145
86 52
87 4
89 83
90 57
91 363
92 158
93 350
94 318
95 806
96 422
97 464
98 136
99 123
100 70
101 73
102 25
103 105
104 150
105 200
106 179
107 314
108 208
109 279
110 255
111 132
112 69
114 31
115 102
116 68
117 159
118 77
119 154
120 148
121 313
122 249
123 600
124 102
125 108
126 24
127 72
128 49
129 72
130 35
131 143
132 5
133 187
134 254
135 319
136 240
137 215
138 602
139 491
140 119
141 73
142 21
143 103
144 81
145 194
146 58
147 106
148 92
149 249
150 88
151 75
152 158
153 45
154 1
155 58
161 197
162 365
163 498
164 822
165 348
166 168
167 15
174 10
175 74
178 66
179 124
180 308
181 97
182 34
183 22
188 52
189 332
190 672
191 999
192 371
193 250
199 23
207 162
208 727
209 876
210 127
229 30
318 31
346 193
347 19

$$$$

     RDKit          2D

 25 26  0  0  1  0  0  0  0  0999 V2000
    6.7091    2.3701    0.0000 C   0  0  0  0  0  0  0  0  0  0  0  0
   -1.0853    2.3069    0.0000 C   0  0  0  0  0  0  0  0  0  0  0  0
    1.5127    2.3282    0.0000 C   0  0  0  0  0  0  0  0  0  0  0  0
    0.1582    9.0673    0.0000 C   0  0  0  0  0  0  0  0  0  0  0  0
    8.0021    3.1305    0.0000 C   0  0  0  0  0  0  0  0  0  0  0  0
   12.2430    2.8582    0.0000 C   0  0  0  0  0  0  0  0  0  0  0  0
   12.9562    4.1733    0.0000 C   0  0  0  0  0  0  0  0  0  0  0  0
   10.7578    3.1626    0.0000 C   0  0  0  0  0  0  0  0  0  0  0  0
   11.9444    5.2672    0.0000 C   0  0  0  0  0  0  0  0  0  0  0  0
   -1.1233    6.8067    0.0000 C   0  0  0  0  0  0  0  0  0  0  0  0
   -1.1109    5.3068    0.0000 C   0  0  0  0  0  0  0  0  0  0  0  0
    1.4767    6.8281    0.0000 C   0  0  0  0  0  0  0  0  0  0  0  0
    9.2830    5.3909    0.0000 C   0  0  0  0  0  0  0  0  0  0  0  0
    5.3920    4.6096    0.0000 C   0  0  0  0  0  0  0  0  0  0  0  0
    0.2075    3.0675    0.0000 C   0  0  0  0  0  0  0  0  0  0  0  0
    0.1705    7.5674    0.0000 C   0  0  0  0  0  0  0  0  0  0  0  0
   10.5880    4.6514    0.0000 C   0  0  0  0  0  0  0  0  0  0  0  0
    7.9900    4.6305    0.0000 C   0  0  0  0  0  0  0  0  0  0  0  0
    0.1952    4.5675    0.0000 C   0  0  0  0  0  0  0  0  0  0  0  0
    6.6850    5.3700    0.0000 C   0  0  0  0  0  0  0  0  0  0  0  0
    1.4890    5.3281    0.0000 C   0  0  0  0  0  0  0  0  0  0  0  0
    4.0870    5.3491    0.0000 C   0  0  0  0  0  0  0  0  0  0  0  0
    6.6729    6.8699    0.0000 O   0  0  0  0  0  0  0  0  0  0  0  0
    4.0749    6.8490    0.0000 O   0  0  0  0  0  0  0  0  0  0  0  0
    2.7940    4.5886    0.0000 O   0  0  0  0  0  0  0  0  0  0  0  0
  5  1  1  0
  7  6  1  0
  8  6  1  0
  9  7  1  0
 11 10  1  0
 15  2  1  0
 15  3  1  0
 16  4  1  1
 16 10  1  0
 16 12  1  0
 17  8  2  0
 17  9  1  0
 17 13  1  0
 18  5  1  0
 18 13  1  0
 19 11  1  0
 19 15  1  6
 20 14  1  0
 20 18  1  0
 21 12  1  0
 21 19  1  0
 22 14  1  0
 23 20  2  0
 24 22  2  0
 21 25  1  1
 25 22  1  0
M  END
>  <NAME>  (5468) 
L-MENTHYL 4-(1-CYCLOPENTENYLMETHYL)-3-OXOHEXANOATE

>  <SYNONYMS>  (5468) 


>  <SPECTRUM TYPE>  (5468) 
MS1

>  <INSTRUMENT TYPE>  (5468) 
EI-B

>  <INSTRUMENT>  (5468) 
HITACHI RMU-6L

>  <ION MODE>  (5468) 
P

>  <INCHIKEY>  (5468) 
SFMNHMUJLBEBKS-GSYZTTQLSA-N

>  <FORMULA>  (5468) 
C22H36O3

>  <EXACT MASS>  (5468) 
348.26644501199996

>  <MW>  (5468) 
348

>  <ID>  (5468) 
JP001156

>  <CONTRIBUTOR>  (5468) 
University of Tokyo Team, {Faculty of Engineering, University of Tokyo

>  <COMMENT>  (5468) 
SMILES=CCC(CC(C2)=CCC2)C(=O)CC(=O)OC(C1)C(CCC(C)1)C(C)C
InChI=InChI=1S/C22H36O3/c1-5-18(13-17-8-6-7-9-17)20(23)14-22(24)25-21-12-16(4)10-11-19(21)15(2)3/h8,15-16,18-19,21H,5-7,9-14H2,1-4H3/t16-,18?,19+,21-/m1/s1
computed SMILES=O=C(OC1CC(C)CCC1C(C)C)CC(=O)C(CC2=CCCC2)CC
accession=JP001156
date=2016.01.19 (Created 2008.10.21, modified 2011.05.06)
author=NAKAYAMA M, MASS SPECTROSCOPY SOC. OF JAPAN (MSSJ)
license=CC BY-NC-SA
exact mass=348.26645
ionization energy=70 eV
ion type=[M]+*
computed spectral entropy=3.606637713363643
computed normalized entropy=0.8433292693406312
SPLASH=splash10-001l-9400000000-b823208eccdfb0b6e399
submitter=submitter = University of Tokyo Team (Faculty of Engineering, University of Tokyo)
MoNA Rating=3.75

>  <NUM PEAKS>  (5468) 
72

>  <MASS SPECTRAL PEAKS>  (5468) 
40 2
41 47
42 5
43 33
51 2
53 12
54 4
55 55
56 7
57 31
58 2
65 4
66 3
67 30
68 5
69 43
70 5
71 21
77 8
78 2
79 4
80 17
81 99.99
82 15
83 65
84 7
85 2
87 2
91 5
93 9
94 5
95 28
96 7
97 19
98 2
105 2
107 4
108 3
109 4
110 2
111 2
112 3
121 8
122 15
123 87
124 10
129 12
130 40
131 4
132 3
133 3
135 3
136 2
137 2
138 17
139 12
150 9
151 10
152 3
163 7
164 3
180 18
181 2
191 5
192 33
193 8
210 56
211 8
269 3
330 1
348 2.5
349 0.5

>  <PREDICTED SPECTRUM>  (5468) 
26 49
27 220
28 89
29 248
33 4
36 24
37 10
38 38
39 309
40 97
41 704
42 160
43 680
44 78
45 27
50 22
51 91
52 64
53 363
54 245
55 867
56 264
57 771
63 6
65 188
66 141
67 684
68 306
69 781
70 293
71 628
72 169
73 19
76 19
77 307
78 150
79 449
80 361
81 999
82 449
83 979
84 341
85 119
87 14
91 329
92 126
93 425
94 338
95 867
96 404
97 521
98 145
101 9
105 50
106 108
107 197
108 113
109 424
110 158
111 275
112 97
113 6
115 2
116 29
117 86
118 46
119 11
120 41
121 223
122 317
123 795
124 183
125 28
129 21
130 42
131 90
132 28
133 288
134 28
135 71
136 119
137 243
138 622
139 478
140 219
145 55
146 4
147 12
149 132
150 317
151 297
152 180
154 10
162 17
163 208
164 344
165 223
166 108
167 37
177 18
178 50
179 29
180 159
181 9
182 170
190 62
191 364
192 577
193 426
194 144
209 216
210 759
211 318
348 169
349 30

$$$$

     RDKit          2D

 19 19  0  0  1  0  0  0  0  0999 V2000
   -1.5900    0.9215    0.0000 C   0  0  0  0  0  0  0  0  0  0  0  0
   10.1022    3.1700    0.0000 C   0  0  0  0  0  0  0  0  0  0  0  0
    7.5041    3.1700    0.0000 C   0  0  0  0  0  0  0  0  0  0  0  0
    8.8031   -3.5800    0.0000 C   0  0  0  0  0  0  0  0  0  0  0  0
   -0.2911    0.1712    0.0000 C   0  0  0  0  0  0  0  0  0  0  0  0
    1.0081    0.9210    0.0000 C   0  0  0  0  0  0  0  0  0  0  0  0
   10.1031   -1.3300    0.0000 C   0  0  0  0  0  0  0  0  0  0  0  0
   10.1031    0.1700    0.0000 C   0  0  0  0  0  0  0  0  0  0  0  0
    7.5031   -1.3300    0.0000 C   0  0  0  0  0  0  0  0  0  0  0  0
    3.6062    0.9206    0.0000 C   0  0  0  0  0  0  0  0  0  0  0  0
    8.8031    2.4200    0.0000 C   0  0  0  0  0  0  0  0  0  0  0  0
    8.8031   -2.0800    0.0000 C   0  0  0  0  0  0  0  0  0  0  0  0
    2.3070    0.1708    0.0000 C   0  0  0  0  0  0  0  0  0  0  0  0
    8.8031    0.9200    0.0000 C   0  0  0  0  0  0  0  0  0  0  0  0
    7.5031    0.1700    0.0000 C   0  0  0  0  0  0  0  0  0  0  0  0
    4.9051    0.1704    0.0000 C   0  0  0  0  0  0  0  0  0  0  0  0
    2.3068   -1.3292    0.0000 O   0  0  0  0  0  0  0  0  0  0  0  0
    4.9048   -1.3296    0.0000 O   0  0  0  0  0  0  0  0  0  0  0  0
    6.2042    0.9202    0.0000 O   0  0  0  0  0  0  0  0  0  0  0  0
  5  1  1  0
  6  5  1  0
  8  7  1  0
 11  2  1  0
 11  3  1  0
 12  4  1  6
 12  7  1  0
 12  9  1  0
 13  6  1  0
 13 10  1  0
 14  8  1  0
 14 11  1  0
 15  9  1  0
 15 14  1  0
 16 10  1  0
 17 13  2  0
 18 16  2  0
 15 19  1  6
 19 16  1  0
M  END
>  <NAME>  (5469) 
L-MENTHYL 3-OXOHEXANOATE

>  <SYNONYMS>  (5469) 


>  <SPECTRUM TYPE>  (5469) 
MS1

>  <INSTRUMENT TYPE>  (5469) 
EI-B

>  <INSTRUMENT>  (5469) 
HITACHI RMU-6L

>  <ION MODE>  (5469) 
P

>  <INCHIKEY>  (5469) 
VUQAUGNLGQCAEF-JDLVMGNASA-N

>  <FORMULA>  (5469) 
C16H28O3

>  <EXACT MASS>  (5469) 
268.20384475599997

>  <MW>  (5469) 
268

>  <ID>  (5469) 
JP001155

>  <CONTRIBUTOR>  (5469) 
University of Tokyo Team, {Faculty of Engineering, University of Tokyo

>  <COMMENT>  (5469) 
SMILES=CCCC(=O)CC(=O)OC(C1)C(CCC(C)1)C(C)C
InChI=InChI=1S/C16H28O3/c1-5-6-13(17)10-16(18)19-15-9-12(4)7-8-14(15)11(2)3/h11-12,14-15H,5-10H2,1-4H3/t12-,14?,15-/m0/s1
computed SMILES=O=C(OC1CC(C)CCC1C(C)C)CC(=O)CCC
accession=JP001155
date=2016.01.19 (Created 2008.10.21, modified 2011.05.06)
author=NAKAYAMA M, MASS SPECTROSCOPY SOC. OF JAPAN (MSSJ)
license=CC BY-NC-SA
exact mass=268.20384
ionization energy=70 eV
ion type=[M]+*
computed spectral entropy=3.4329979559480384
computed normalized entropy=0.77273631391452
SPLASH=splash10-0536-9200000000-21b063f4e8468de4e087
submitter=submitter = University of Tokyo Team (Faculty of Engineering, University of Tokyo)
MoNA Rating=3.75

>  <NUM PEAKS>  (5469) 
85

>  <MASS SPECTRAL PEAKS>  (5469) 
40 4
41 70
42 13
43 99.99
44 3
45 2
51 1
52 1
53 8
54 8
55 58
56 9
57 35
58 6
59 2
60 1
65 3
66 2
67 19
68 9
69 41
70 6
71 72
72 3
74 1
77 3
78 1
79 6
80 8
81 65
82 26
83 70
84 8
85 3
86 2
87 2
91 2
94 3
95 68
96 20
97 14
98 2
99 1
102 2
105 1
107 1
109 8
110 5
111 3
112 3
113 16
114 1
115 1
121 1
122 1
123 30
124 3
125 1
127 1
128 1
129 3
130 4
131 15
132 2
137 4
138 77
139 24
140 2
141 2
145 6
146 1
149 1
150 1
151 1
152 1
153 1
154 1
155 5
156 1
157 1
170 1
171 1
267 0.4
268 0.9
269 0.1

>  <PREDICTED SPECTRUM>  (5469) 
25 5
26 51
27 262
28 114
29 270
30 53
31 37
38 4
39 262
40 94
41 627
42 225
43 777
44 136
45 110
51 81
52 48
53 243
54 206
55 742
56 292
57 666
58 126
59 68
62 5
63 25
65 151
66 106
67 493
68 288
69 645
70 248
71 618
72 193
73 26
74 71
77 229
78 72
79 248
80 257
81 870
82 507
83 840
84 251
85 254
86 100
87 160
88 64
91 115
92 52
93 196
94 323
95 999
96 474
97 383
98 108
99 105
101 31
102 11
107 60
108 56
109 337
110 225
111 124
112 178
113 260
114 111
115 186
116 53
121 79
122 13
123 643
124 189
127 13
129 84
130 141
131 397
132 0
137 216
138 960
139 459
140 126
141 114
151 54
152 34
153 20
155 92
181 35
183 15
268 53

$$$$

     RDKit          2D

 16 18  0  0  0  0  0  0  0  0999 V2000
    4.5583   -0.5490    0.0000 C   0  0  0  0  0  0  0  0  0  0  0  0
   -2.7120   -2.8974    0.0000 C   0  0  0  0  0  0  0  0  0  0  0  0
    3.8083    0.7500    0.0000 C   0  0  0  0  0  0  0  0  0  0  0  0
   -1.8037    3.1240    0.0000 C   0  0  0  0  0  0  0  0  0  0  0  0
   -2.4138    1.7537    0.0000 C   0  0  0  0  0  0  0  0  0  0  0  0
   -0.3119    2.9672    0.0000 C   0  0  0  0  0  0  0  0  0  0  0  0
    1.4266    1.9635    0.0000 C   0  0  0  0  0  0  0  0  0  0  0  0
    2.3083    0.7500    0.0000 C   0  0  0  0  0  0  0  0  0  0  0  0
   -1.2990    0.7500    0.0000 C   0  0  0  0  0  0  0  0  0  0  0  0
    1.4266   -0.4635    0.0000 C   0  0  0  0  0  0  0  0  0  0  0  0
   -0.6101   -1.3703    0.0000 C   0  0  0  0  0  0  0  0  0  0  0  0
    0.0000    1.5000    0.0000 C   0  0  0  0  0  0  0  0  0  0  0  0
   -0.0000    0.0000    0.0000 C   0  0  0  0  0  0  0  0  0  0  0  0
    1.8901   -1.8901    0.0000 O   0  0  0  0  0  0  0  0  0  0  0  0
    0.2716   -2.5838    0.0000 O   0  0  0  0  0  0  0  0  0  0  0  0
   -2.1019   -1.5271    0.0000 O   0  0  0  0  0  0  0  0  0  0  0  0
  3  1  1  0
  5  4  1  0
  6  4  1  0
  8  3  1  0
  8  7  1  0
  9  5  1  0
 10  8  1  0
 12  6  1  0
 12  7  1  0
 12  9  1  0
 13  9  1  0
 13 10  1  0
 13 11  1  0
 13 12  1  0
 14 10  1  0
 15 11  2  0
 16  2  1  0
 16 11  1  0
M  END
>  <NAME>  (5470) 
METHYL 3-ETHYL-4-HYDROXYTRICYCLO(4.3.0.0(1,5))NONANE-5-CARBOXYLATE

>  <SYNONYMS>  (5470) 


>  <SPECTRUM TYPE>  (5470) 
MS1

>  <INSTRUMENT TYPE>  (5470) 
EI-B

>  <INSTRUMENT>  (5470) 
HITACHI RMU-6L

>  <ION MODE>  (5470) 
P

>  <INCHIKEY>  (5470) 
DGQYWWMBLOMTPO-UHFFFAOYSA-N

>  <FORMULA>  (5470) 
C13H20O3

>  <EXACT MASS>  (5470) 
224.14124449999997

>  <MW>  (5470) 
224

>  <ID>  (5470) 
JP001154

>  <CONTRIBUTOR>  (5470) 
University of Tokyo Team, {Faculty of Engineering, University of Tokyo

>  <COMMENT>  (5470) 
SMILES=CCC(C1)C(O)C(C(=O)OC)(C32)C(CCC3)12
InChI=InChI=1S/C13H20O3/c1-3-8-7-12-6-4-5-9(12)13(12,10(8)14)11(15)16-2/h8-10,14H,3-7H2,1-2H3
computed SMILES=O=C(OC)C12C(O)C(CC)CC32CCCC31
accession=JP001154
date=2016.01.19 (Created 2008.10.21, modified 2011.05.06)
author=NAKAYAMA M, MASS SPECTROSCOPY SOC. OF JAPAN (MSSJ)
license=CC BY-NC-SA
exact mass=224.14124
ionization energy=70 eV
ion type=[M]+*
computed spectral entropy=4.037749760948262
computed normalized entropy=0.886662036998792
SPLASH=splash10-054x-5900000000-918f5467eb90dfe538e3
submitter=submitter = University of Tokyo Team (Faculty of Engineering, University of Tokyo)
MoNA Rating=3.75

>  <NUM PEAKS>  (5470) 
95

>  <MASS SPECTRAL PEAKS>  (5470) 
40 4
41 40
42 3
43 13
45 3
51 7
52 4
53 14
54 3
55 26
56 2
57 17
58 2
59 15
63 3
65 12
66 7
67 20
68 3
69 8
71 5
77 27
78 7
79 31
80 7
81 18
82 3
83 6
85 2
90 2
91 41
92 7
93 32
94 6
95 9
96 2
97 3
103 4
104 2
105 43
106 5
107 14
108 32
109 8
111 2
115 8
116 3
117 26
118 6
119 27
120 4
121 18
122 4
123 4
127 2
128 2
129 2
131 6
132 2
133 7
135 10
136 99.99
137 13
140 21
141 2
144 2
145 12
146 7
147 56
148 7
149 5
150 3
151 3
152 3
153 6
154 2
163 7
164 16
165 48
166 6
168 9
169 4
174 5
175 6
176 4
177 43
178 7
190 10
191 25
192 11
206 18
207 4
223 3
224 14
225 2

>  <PREDICTED SPECTRUM>  (5470) 
26 59
27 394
28 77
29 454
30 70
31 227
33 50
38 10
39 489
40 200
41 714
42 70
43 364
44 86
45 277
50 78
51 341
52 228
53 477
54 155
55 708
56 160
57 456
58 114
59 515
60 31
63 123
64 86
65 451
66 335
67 621
68 191
69 446
70 104
71 262
76 51
77 788
78 428
79 807
80 338
81 642
82 193
83 286
84 100
85 130
87 166
89 94
90 108
91 992
92 397
93 754
94 363
95 536
96 188
97 284
98 112
101 61
102 99
103 305
104 265
105 720
106 337
107 821
108 518
109 656
110 170
111 172
112 34
115 436
116 208
117 599
118 421
119 643
120 285
121 593
122 399
123 238
124 79
127 47
128 150
129 168
130 96
131 383
132 267
133 240
134 59
135 805
136 916
137 492
138 141
139 186
140 146
141 75
142 26
144 42
145 346
146 568
147 999
148 431
149 534
150 248
151 158
152 165
153 165
154 111
163 410
164 732
165 890
166 303
167 72
168 318
169 145
173 62
174 312
175 456
176 264
177 567
178 367
179 30
190 47
191 533
192 479
193 204
194 19
195 151
196 102
204 161
206 611
207 276
208 43
209 77
224 534
225 195

$$$$

     RDKit          2D

 18 20  0  0  0  0  0  0  0  0999 V2000
   -2.7120    0.0168    0.0000 C   0  0  0  0  0  0  0  0  0  0  0  0
   -2.7120   -1.0636    0.0000 C   0  0  0  0  0  0  0  0  0  0  0  0
    4.8496    3.1240    0.0000 C   0  0  0  0  0  0  0  0  0  0  0  0
   -1.2854    0.4803    0.0000 C   0  0  0  0  0  0  0  0  0  0  0  0
   -1.2854   -1.5271    0.0000 C   0  0  0  0  0  0  0  0  0  0  0  0
    3.9412   -2.8974    0.0000 C   0  0  0  0  0  0  0  0  0  0  0  0
    4.5513   -1.5271    0.0000 C   0  0  0  0  0  0  0  0  0  0  0  0
    2.4494   -2.7406    0.0000 C   0  0  0  0  0  0  0  0  0  0  0  0
    0.7110   -1.7369    0.0000 C   0  0  0  0  0  0  0  0  0  0  0  0
    3.4366   -0.5234    0.0000 C   0  0  0  0  0  0  0  0  0  0  0  0
    0.7110    0.6901    0.0000 C   0  0  0  0  0  0  0  0  0  0  0  0
    2.7477    1.5969    0.0000 C   0  0  0  0  0  0  0  0  0  0  0  0
   -0.1707   -0.5234    0.0000 C   0  0  0  0  0  0  0  0  0  0  0  0
    2.1376   -1.2734    0.0000 C   0  0  0  0  0  0  0  0  0  0  0  0
    2.1376    0.2266    0.0000 C   0  0  0  0  0  0  0  0  0  0  0  0
    0.2475    2.1167    0.0000 O   0  0  0  0  0  0  0  0  0  0  0  0
    1.8660    2.8104    0.0000 O   0  0  0  0  0  0  0  0  0  0  0  0
    4.2395    1.7537    0.0000 O   0  0  0  0  0  0  0  0  0  0  0  0
  4  1  1  0
  5  2  1  0
  7  6  1  0
  8  6  1  0
 10  7  1  0
 13  4  1  0
 13  5  1  0
 13  9  1  0
 13 11  1  0
 14  8  1  0
 14  9  1  0
 14 10  1  0
 15 10  1  0
 15 11  1  0
 15 12  1  0
 15 14  1  0
 16 11  2  0
 17 12  2  0
 18  3  1  0
 18 12  1  0
M  END
>  <NAME>  (5471) 
METHYL 3,3-DIETHYL-4-OXOTRICYCLO(4.3.0.0(1,5))NONANE-5-CARBOXYLATE

>  <SYNONYMS>  (5471) 


>  <SPECTRUM TYPE>  (5471) 
MS1

>  <INSTRUMENT TYPE>  (5471) 
EI-B

>  <INSTRUMENT>  (5471) 
HITACHI RMU-6L

>  <ION MODE>  (5471) 
P

>  <INCHIKEY>  (5471) 
WCOJHCWNWYBOOQ-UHFFFAOYSA-N

>  <FORMULA>  (5471) 
C15H22O3

>  <EXACT MASS>  (5471) 
250.15689456399997

>  <MW>  (5471) 
250

>  <ID>  (5471) 
JP001153

>  <CONTRIBUTOR>  (5471) 
University of Tokyo Team, {Faculty of Engineering, University of Tokyo

>  <COMMENT>  (5471) 
SMILES=COC(=O)C(C(=O)2)(C31)C(CCC3)(CC(CC)(CC)2)1
InChI=InChI=1S/C15H22O3/c1-4-13(5-2)9-14-8-6-7-10(14)15(14,11(13)16)12(17)18-3/h10H,4-9H2,1-3H3
computed SMILES=O=C(OC)C12C(=O)C(CC)(CC)CC32CCCC13
accession=JP001153
date=2016.01.19 (Created 2008.10.21, modified 2011.05.06)
author=NAKAYAMA M, MASS SPECTROSCOPY SOC. OF JAPAN (MSSJ)
license=CC BY-NC-SA
exact mass=250.15689
ionization energy=70 eV
ion type=[M]+*
computed spectral entropy=4.032415949970645
computed normalized entropy=0.8351603001307151
SPLASH=splash10-014m-9710000000-4f9789ca7562bab7ce39
submitter=submitter = University of Tokyo Team (Faculty of Engineering, University of Tokyo)
MoNA Rating=3.75

>  <NUM PEAKS>  (5471) 
125

>  <MASS SPECTRAL PEAKS>  (5471) 
39 15
40 3
41 30
42 3
43 6
45 2
50 2
51 6
52 3
53 13
54 2
55 28
56 2
57 3
59 8
63 2
64 2
65 9
66 5
67 10
68 2
69 7
70 3
71 2
75 1
76 1
77 24
78 9
79 24
80 4
81 8
82 1
83 33
84 3
85 1
89 1
90 1
91 25
92 6
93 23
94 3
95 4
96 1
97 8
98 77
99 6
101 1
102 1
103 3
104 1
105 11
106 6
107 10
108 4
109 3
110 2
111 2
115 3
116 1
117 4
118 1
119 5
120 3
121 10
122 2
123 3
124 1
125 1
127 1
128 2
129 1
131 3
132 1
133 9
134 10
135 3
136 1
137 3
138 6
139 2
140 1
141 1
143 1
144 1
145 2
146 1
147 5
148 3
149 3
150 1
151 3
152 9
153 2
159 1
160 1
161 15
162 12
163 5
164 1
165 3
166 99.99
167 11
168 2
173 2
175 3
176 1
177 1
179 1
180 1
189 6
190 10
191 6
192 1
193 5
194 1
204 1
206 1
208 2
217 1
218 6
219 11
220 2
221 3
222 19
223 3

>  <PREDICTED SPECTRUM>  (5471) 
26 31
27 186
28 40
29 206
33 1
39 269
40 153
41 696
42 171
43 291
44 103
45 46
50 44
51 189
52 122
53 484
54 135
55 909
56 172
57 286
58 113
59 446
60 82
63 27
64 4
65 260
66 224
67 580
68 219
69 610
70 210
71 99
72 36
73 67
74 11
75 59
77 494
78 238
79 617
80 213
81 550
82 193
83 228
84 217
85 194
86 81
87 146
88 59
89 12
91 672
92 255
93 567
94 264
95 479
96 189
97 246
98 116
99 13
100 125
101 172
102 108
103 230
104 40
105 426
106 211
107 505
108 328
109 437
110 173
111 249
112 191
113 204
114 93
115 199
116 21
117 198
118 128
119 398
120 235
121 541
122 317
123 283
124 103
125 191
126 64
127 47
128 28
129 113
130 82
131 404
132 278
133 412
134 212
135 427
136 295
137 227
138 90
139 76
140 32
141 95
143 102
144 117
145 212
146 151
147 356
148 286
149 341
150 194
151 230
153 174
154 80
155 78
156 2
157 180
158 26
159 143
160 58
161 517
162 572
163 752
164 356
165 317
166 125
167 66
171 37
172 126
173 274
174 80
175 293
176 256
177 68
178 138
179 499
180 206
181 157
182 19
189 185
190 516
191 911
192 388
193 268
194 185
195 22
200 71
203 181
204 21
206 53
207 322
208 30
217 205
218 305
219 384
220 117
221 477
222 999
223 436
224 10
231 27
232 157
233 92
235 311
236 90
250 574
251 376
252 15

$$$$

     RDKit          2D

 16 18  0  0  0  0  0  0  0  0999 V2000
    4.5583   -0.5490    0.0000 C   0  0  0  0  0  0  0  0  0  0  0  0
   -2.7120   -2.8974    0.0000 C   0  0  0  0  0  0  0  0  0  0  0  0
    3.8083    0.7500    0.0000 C   0  0  0  0  0  0  0  0  0  0  0  0
   -1.8037    3.1240    0.0000 C   0  0  0  0  0  0  0  0  0  0  0  0
   -2.4138    1.7537    0.0000 C   0  0  0  0  0  0  0  0  0  0  0  0
   -0.3119    2.9672    0.0000 C   0  0  0  0  0  0  0  0  0  0  0  0
    1.4266    1.9635    0.0000 C   0  0  0  0  0  0  0  0  0  0  0  0
    2.3083    0.7500    0.0000 C   0  0  0  0  0  0  0  0  0  0  0  0
   -1.2990    0.7500    0.0000 C   0  0  0  0  0  0  0  0  0  0  0  0
    1.4266   -0.4635    0.0000 C   0  0  0  0  0  0  0  0  0  0  0  0
   -0.6101   -1.3703    0.0000 C   0  0  0  0  0  0  0  0  0  0  0  0
    0.0000    1.5000    0.0000 C   0  0  0  0  0  0  0  0  0  0  0  0
   -0.0000    0.0000    0.0000 C   0  0  0  0  0  0  0  0  0  0  0  0
    1.8901   -1.8901    0.0000 O   0  0  0  0  0  0  0  0  0  0  0  0
    0.2716   -2.5838    0.0000 O   0  0  0  0  0  0  0  0  0  0  0  0
   -2.1019   -1.5271    0.0000 O   0  0  0  0  0  0  0  0  0  0  0  0
  3  1  1  0
  5  4  1  0
  6  4  1  0
  8  3  1  0
  8  7  1  0
  9  5  1  0
 10  8  1  0
 12  6  1  0
 12  7  1  0
 12  9  1  0
 13  9  1  0
 13 10  1  0
 13 11  1  0
 13 12  1  0
 14 10  2  0
 15 11  2  0
 16  2  1  0
 16 11  1  0
M  END
>  <NAME>  (5472) 
METHYL 3-ETHYL-4-OXOTRICYCLO(4.3.0.0(1,5))NONANE-5-CARBOXYLATE

>  <SYNONYMS>  (5472) 


>  <SPECTRUM TYPE>  (5472) 
MS1

>  <INSTRUMENT TYPE>  (5472) 
EI-B

>  <INSTRUMENT>  (5472) 
HITACHI RMU-6L

>  <ION MODE>  (5472) 
P

>  <INCHIKEY>  (5472) 
CRFJZZJUYVEICX-UHFFFAOYSA-N

>  <FORMULA>  (5472) 
C13H18O3

>  <EXACT MASS>  (5472) 
222.12559443599997

>  <MW>  (5472) 
222

>  <ID>  (5472) 
JP001152

>  <CONTRIBUTOR>  (5472) 
University of Tokyo Team, {Faculty of Engineering, University of Tokyo

>  <COMMENT>  (5472) 
SMILES=CCC(C1)C(=O)C(C(=O)OC)(C32)C(CCC3)12
InChI=InChI=1S/C13H18O3/c1-3-8-7-12-6-4-5-9(12)13(12,10(8)14)11(15)16-2/h8-9H,3-7H2,1-2H3
computed SMILES=O=C(OC)C12C(=O)C(CC)CC32CCCC13
accession=JP001152
date=2016.01.19 (Created 2008.10.21, modified 2011.05.06)
author=NAKAYAMA M, MASS SPECTROSCOPY SOC. OF JAPAN (MSSJ)
license=CC BY-NC-SA
exact mass=222.12559
ionization energy=70 eV
ion type=[M]+*
computed spectral entropy=3.710909510048553
computed normalized entropy=0.9178487395328302
SPLASH=splash10-0006-6900000000-7d015d6c029741ec36a3
submitter=submitter = University of Tokyo Team (Faculty of Engineering, University of Tokyo)
MoNA Rating=3.75

>  <NUM PEAKS>  (5472) 
57

>  <MASS SPECTRAL PEAKS>  (5472) 
40 6
41 28
42 6
43 8
45 6
51 12
52 10
53 16
54 6
55 24
59 13
65 14
66 12
67 18
68 7
69 10
77 32
78 16
79 38
80 10
81 12
83 10
91 30
92 16
93 70
94 12
105 16
106 17
107 15
108 8
119 9
120 12
121 11
122 6
123 8
133 12
134 36
135 15
137 10
138 11
151 9
152 54
153 10
161 11
162 40
163 18
165 13
166 99.99
167 13
190 39
191 39
194 80
195 15
196 5
221 5
222 12
223 4

>  <PREDICTED SPECTRUM>  (5472) 
27 61
29 18
33 20
38 49
39 469
40 226
41 650
42 205
43 409
44 69
50 161
51 412
52 338
53 588
54 169
55 510
56 112
57 136
59 500
60 25
61 40
62 54
63 223
64 99
65 493
66 428
67 575
68 151
69 337
74 93
77 797
78 421
79 919
80 349
81 457
82 150
83 191
84 78
85 8
87 1
91 658
92 463
93 802
94 441
95 146
96 69
101 32
103 115
104 153
105 521
106 728
107 800
108 311
109 65
113 31
117 124
118 51
119 491
120 302
121 297
122 59
123 310
124 259
125 151
126 22
133 446
134 897
135 495
136 212
137 284
138 236
139 140
145 6
146 18
147 313
148 172
149 179
151 512
152 665
153 258
154 9
161 357
162 713
163 546
164 152
165 338
166 847
167 281
175 44
177 58
179 189
190 743
191 615
192 83
193 97
194 999
195 355
196 88
207 11
222 479
223 200

$$$$

     RDKit          2D

 14 16  0  0  0  0  0  0  0  0999 V2000
    2.8693   -2.4321    0.0000 C   0  0  0  0  0  0  0  0  0  0  0  0
   -3.9931   -0.1619    0.0000 C   0  0  0  0  0  0  0  0  0  0  0  0
   -3.1115   -1.3754    0.0000 C   0  0  0  0  0  0  0  0  0  0  0  0
    0.1188    2.2122    0.0000 C   0  0  0  0  0  0  0  0  0  0  0  0
   -3.1115    1.0517    0.0000 C   0  0  0  0  0  0  0  0  0  0  0  0
   -1.3730    2.0554    0.0000 C   0  0  0  0  0  0  0  0  0  0  0  0
   -1.6849   -0.9119    0.0000 C   0  0  0  0  0  0  0  0  0  0  0  0
    0.7289    0.8418    0.0000 C   0  0  0  0  0  0  0  0  0  0  0  0
    0.4958   -1.3754    0.0000 C   0  0  0  0  0  0  0  0  0  0  0  0
   -1.6849    0.5881    0.0000 C   0  0  0  0  0  0  0  0  0  0  0  0
   -0.3858   -0.1619    0.0000 C   0  0  0  0  0  0  0  0  0  0  0  0
    2.1961    0.5300    0.0000 O   0  0  0  0  0  0  0  0  0  0  0  0
   -0.1143   -2.7457    0.0000 O   0  0  0  0  0  0  0  0  0  0  0  0
    1.9876   -1.2186    0.0000 O   0  0  0  0  0  0  0  0  0  0  0  0
  3  2  1  0
  5  2  1  0
  6  4  1  0
  7  3  1  0
  8  4  1  0
 10  5  1  0
 10  6  1  0
 10  7  1  0
 11  7  1  0
 11  8  1  0
 11  9  1  0
 11 10  1  0
 12  8  2  0
 13  9  2  0
 14  1  1  0
 14  9  1  0
M  END
>  <NAME>  (5473) 
METHYL 4-OXOTRICYCLO(4.3.0.0(1,5))NONANE-5-CARBOXYLATE

>  <SYNONYMS>  (5473) 


>  <SPECTRUM TYPE>  (5473) 
MS1

>  <INSTRUMENT TYPE>  (5473) 
EI-B

>  <INSTRUMENT>  (5473) 
HITACHI RMU-6L

>  <ION MODE>  (5473) 
P

>  <INCHIKEY>  (5473) 
JHOMMICRSSKRMH-UHFFFAOYSA-N

>  <FORMULA>  (5473) 
C11H14O3

>  <EXACT MASS>  (5473) 
194.094294308

>  <MW>  (5473) 
194

>  <ID>  (5473) 
JP001151

>  <CONTRIBUTOR>  (5473) 
University of Tokyo Team, {Faculty of Engineering, University of Tokyo

>  <COMMENT>  (5473) 
SMILES=COC(=O)C(C(=O)2)(C31)C(CCC3)(CC2)1
InChI=InChI=1S/C11H14O3/c1-14-9(13)11-7-3-2-5-10(7,11)6-4-8(11)12/h7H,2-6H2,1H3
computed SMILES=O=C(OC)C12C(=O)CCC32CCCC13
accession=JP001151
date=2016.01.19 (Created 2008.10.21, modified 2011.05.06)
author=NAKAYAMA M, MASS SPECTROSCOPY SOC. OF JAPAN (MSSJ)
license=CC BY-NC-SA
exact mass=194.09429
ionization energy=70 eV
ion type=[M]+*
computed spectral entropy=3.573509179167279
computed normalized entropy=0.8877507988661356
SPLASH=splash10-03dl-8900000000-d1435e053228702ed3ea
submitter=submitter = University of Tokyo Team (Faculty of Engineering, University of Tokyo)
MoNA Rating=3.75

>  <NUM PEAKS>  (5473) 
56

>  <MASS SPECTRAL PEAKS>  (5473) 
40 5
41 21
42 5
43 9
44 5
50 7
51 16
52 11
53 16
54 4
55 21
56 3
59 12
60 3
65 13
66 10
67 12
68 4
77 32
78 17
79 37
80 7
91 47
92 23
93 78
94 12
95 8
105 14
106 20
107 21
108 8
109 4
119 8
120 9
121 8
122 4
133 10
134 25
135 28
136 4
137 8
138 7
139 3
151 7
152 48
153 8
154 4
161 4
162 99.99
163 43
164 4
165 3
166 36
167 4
194 10
195 3

>  <PREDICTED SPECTRUM>  (5473) 
26 91
27 340
28 89
29 164
31 29
33 36
38 106
39 526
40 265
41 559
42 234
43 276
44 92
45 60
50 99
51 331
52 319
53 508
54 175
55 393
56 93
57 53
59 451
62 26
63 153
64 86
65 417
66 450
67 504
68 186
74 36
75 72
77 592
78 466
79 850
80 289
81 146
82 55
84 10
87 77
91 646
92 476
93 623
94 279
95 259
96 111
101 39
103 68
104 39
105 411
106 746
107 691
108 363
109 227
110 95
111 14
113 62
117 115
118 182
119 433
120 490
121 296
122 195
123 257
124 335
125 159
126 42
133 152
134 676
135 678
136 272
137 343
138 349
139 172
149 104
150 218
151 362
152 550
153 159
154 20
161 54
162 999
163 764
164 252
165 151
166 549
167 242
179 59
193 27
194 427
195 156

$$$$

     RDKit          2D

 14 14  0  0  0  0  0  0  0  0999 V2000
   -3.0352    3.4078    0.0000 C   0  0  0  0  0  0  0  0  0  0  0  0
    7.7187    0.9378    0.0000 C   0  0  0  0  0  0  0  0  0  0  0  0
    8.4320    2.2529    0.0000 C   0  0  0  0  0  0  0  0  0  0  0  0
    6.2336    1.2423    0.0000 C   0  0  0  0  0  0  0  0  0  0  0  0
    7.4201    3.3468    0.0000 C   0  0  0  0  0  0  0  0  0  0  0  0
    4.7587    3.4706    0.0000 C   0  0  0  0  0  0  0  0  0  0  0  0
    3.4658    2.7101    0.0000 C   0  0  0  0  0  0  0  0  0  0  0  0
    0.8678    2.6892    0.0000 C   0  0  0  0  0  0  0  0  0  0  0  0
    6.0638    2.7310    0.0000 C   0  0  0  0  0  0  0  0  0  0  0  0
    2.1607    3.4496    0.0000 C   0  0  0  0  0  0  0  0  0  0  0  0
   -0.4373    3.4287    0.0000 C   0  0  0  0  0  0  0  0  0  0  0  0
    2.1486    4.9496    0.0000 O   0  0  0  0  0  0  0  0  0  0  0  0
   -0.4493    4.9286    0.0000 O   0  0  0  0  0  0  0  0  0  0  0  0
   -1.7302    2.6682    0.0000 O   0  0  0  0  0  0  0  0  0  0  0  0
  3  2  1  0
  4  2  1  0
  5  3  1  0
  7  6  1  0
  9  4  2  0
  9  5  1  0
  9  6  1  0
 10  7  1  0
 10  8  1  0
 11  8  1  0
 12 10  2  0
 13 11  2  0
 14  1  1  0
 14 11  1  0
M  END
>  <NAME>  (5474) 
METHYL 3-OXO-5-(1-CYCLOPENTENYL)PENTANOATE

>  <SYNONYMS>  (5474) 


>  <SPECTRUM TYPE>  (5474) 
MS1

>  <INSTRUMENT TYPE>  (5474) 
EI-B

>  <INSTRUMENT>  (5474) 
HITACHI RMU-6L

>  <ION MODE>  (5474) 
P

>  <INCHIKEY>  (5474) 
XIEUINFEKFZBLX-UHFFFAOYSA-N

>  <FORMULA>  (5474) 
C11H16O3

>  <EXACT MASS>  (5474) 
196.10994437199997

>  <MW>  (5474) 
196

>  <ID>  (5474) 
JP001150

>  <CONTRIBUTOR>  (5474) 
University of Tokyo Team, {Faculty of Engineering, University of Tokyo

>  <COMMENT>  (5474) 
SMILES=COC(=O)CC(=O)CCC(C1)=CCC1
InChI=InChI=1S/C11H16O3/c1-14-11(13)8-10(12)7-6-9-4-2-3-5-9/h4H,2-3,5-8H2,1H3
computed SMILES=O=C(OC)CC(=O)CCC1=CCCC1
accession=JP001150
date=2016.01.19 (Created 2008.10.21, modified 2011.05.06)
author=NAKAYAMA M, MASS SPECTROSCOPY SOC. OF JAPAN (MSSJ)
license=CC BY-NC-SA
exact mass=196.10994
ionization energy=70 eV
ion type=[M]+*
computed spectral entropy=3.6389013172659217
computed normalized entropy=0.8086789406359144
SPLASH=splash10-003v-9200000000-9cace6806cdfca6bb200
submitter=submitter = University of Tokyo Team (Faculty of Engineering, University of Tokyo)
MoNA Rating=3.75

>  <NUM PEAKS>  (5474) 
90

>  <MASS SPECTRAL PEAKS>  (5474) 
39 49
40 10
41 58
42 15
43 28
44 3
45 3
46 1
47 1
50 3
51 10
52 8
53 31
54 5
55 26
56 3
57 9
59 34
60 1
61 1
62 1
63 3
64 1
65 16
66 14
67 34
68 4
69 49
70 1
71 2
74 9
75 3
77 26
78 9
79 99.99
80 97
81 49
82 3
83 1
84 6
85 3
91 16
92 3
93 16
94 70
95 80
96 8
97 1
98 1
101 24
102 1
103 2
104 5
105 10
106 2
107 4
108 5
109 2
115 1
116 7
117 5
118 5
119 8
120 1
121 5
122 60
123 24
124 3
127 1
129 1
133 1
134 1
135 2
136 4
137 2
138 1
146 1
147 1
148 1
149 1
153 1
159 1
163 1
164 4
165 3
178 26
179 3
184 1
196 17
197 3

>  <PREDICTED SPECTRUM>  (5474) 
27 100
29 111
31 47
33 2
39 377
40 173
41 691
42 216
43 495
44 81
45 31
50 43
51 151
52 156
53 550
54 314
55 598
56 152
57 118
59 496
60 21
63 68
65 324
66 276
67 827
68 213
69 533
70 36
71 71
74 389
77 430
78 175
79 693
80 279
81 999
82 345
83 69
87 28
91 541
92 232
93 653
94 492
95 750
96 364
97 267
100 86
101 339
102 71
103 116
104 146
105 215
107 270
108 535
109 832
110 329
111 9
115 117
116 24
117 26
118 183
119 439
120 220
121 362
122 459
123 751
124 213
125 173
126 34
135 19
136 819
137 412
138 214
139 45
140 61
141 36
147 272
149 27
152 106
153 114
163 143
164 631
165 326
166 96
178 157
179 30
181 23
196 540
197 181
198 3

$$$$

     RDKit          2D

  7  7  0  0  0  0  0  0  0  0999 V2000
    1.7166   -1.1990    0.0000 C   0  0  0  0  0  0  0  0  0  0  0  0
    2.6877   -0.0610    0.0000 C   0  0  0  0  0  0  0  0  0  0  0  0
    0.3272   -0.5925    0.0000 C   0  0  0  0  0  0  0  0  0  0  0  0
    1.9254    1.2193    0.0000 C   0  0  0  0  0  0  0  0  0  0  0  0
   -0.6521    1.8937    0.0000 C   0  0  0  0  0  0  0  0  0  0  0  0
    0.4707    0.8991    0.0000 C   0  0  0  0  0  0  0  0  0  0  0  0
   -2.0749    1.4187    0.0000 O   0  0  0  0  0  0  0  0  0  0  0  0
  2  1  1  0
  3  1  1  0
  4  2  1  0
  6  3  2  0
  6  4  1  0
  6  5  1  0
  7  5  1  0
M  END
>  <NAME>  (5475) 
1-CYCLOPENTENYLMETHANOL

>  <SYNONYMS>  (5475) 
1-HYDROXYMETHYLCYCLOPENTENE

>  <SPECTRUM TYPE>  (5475) 
MS1

>  <INSTRUMENT TYPE>  (5475) 
EI-B

>  <INSTRUMENT>  (5475) 
HITACHI RMU-6L

>  <ION MODE>  (5475) 
P

>  <INCHIKEY>  (5475) 
WJDFLCXFDSYKID-UHFFFAOYSA-N

>  <FORMULA>  (5475) 
C6H10O

>  <EXACT MASS>  (5475) 
98.07316494

>  <MW>  (5475) 
98

>  <ID>  (5475) 
JP001149

>  <CONTRIBUTOR>  (5475) 
University of Tokyo Team, {Faculty of Engineering, University of Tokyo

>  <COMMENT>  (5475) 
SMILES=OCC(C1)=C([H])CC1
InChI=InChI=1S/C6H10O/c7-5-6-3-1-2-4-6/h3,7H,1-2,4-5H2
computed SMILES=OCC1=CCCC1
accession=JP001149
date=2016.01.19 (Created 2008.10.21, modified 2011.05.06)
author=NAKAYAMA M, MASS SPECTROSCOPY SOC. OF JAPAN (MSSJ)
license=CC BY-NC-SA
exact mass=98.07316
ionization energy=70 eV
ion type=[M]+*
computed spectral entropy=3.148769105852046
computed normalized entropy=0.8479084421395089
SPLASH=splash10-05ur-9000000000-01038d9e4c8274665893
submitter=submitter = University of Tokyo Team (Faculty of Engineering, University of Tokyo)
MoNA Rating=3.75

>  <NUM PEAKS>  (5475) 
41

>  <MASS SPECTRAL PEAKS>  (5475) 
30 15
31 85
32 23
33 5
41 5
42 10
43 3
48 3
49 3
50 10
51 15
52 10
53 18
54 8
55 23
56 8
57 63
58 5
61 3
62 5
63 6
64 3
65 19
66 18
67 99.99
68 10
69 25
70 86
71 6
77 15
78 5
79 21
80 28
81 6
83 26
85 3
95 3
96 2
97 16
98 64
99 6

>  <PREDICTED SPECTRUM>  (5475) 
19 8
25 5
26 125
27 421
28 164
29 357
30 121
31 324
32 6
33 1
34 3
36 44
37 121
38 234
39 767
40 353
41 892
42 395
43 498
44 291
45 161
46 60
47 57
48 28
49 87
50 242
51 371
52 332
53 550
54 499
55 753
56 424
57 446
58 99
59 43
60 76
61 58
62 138
63 219
64 99
65 365
66 325
67 999
68 636
69 658
70 444
71 125
77 451
78 316
79 695
80 605
81 713
82 105
83 267
84 57
92 94
95 169
96 147
97 364
98 640
99 186

$$$$

     RDKit          2D

 16 17  0  0  1  0  0  0  0  0999 V2000
   -2.6522   -0.4131    0.0000 C   0  0  0  0  0  0  0  0  0  0  0  0
    6.8373   -2.7383    0.0000 C   0  0  0  0  0  0  0  0  0  0  0  0
    2.3003   -0.0018    0.0000 C   0  0  0  0  0  0  0  0  0  0  0  0
    0.0167    0.2381    0.0000 C   0  0  0  0  0  0  0  0  0  0  0  0
   -2.9987   -4.2801    0.0000 C   0  0  0  0  0  0  0  0  0  0  0  0
   -3.6066   -2.9130    0.0000 C   0  0  0  0  0  0  0  0  0  0  0  0
   -1.5108   -4.1230    0.0000 C   0  0  0  0  0  0  0  0  0  0  0  0
    4.2530   -2.4708    0.0000 C   0  0  0  0  0  0  0  0  0  0  0  0
    2.8837   -3.0830    0.0000 C   0  0  0  0  0  0  0  0  0  0  0  0
   -2.4933   -1.9046    0.0000 C   0  0  0  0  0  0  0  0  0  0  0  0
    5.4679   -3.3506    0.0000 C   0  0  0  0  0  0  0  0  0  0  0  0
   -1.1942   -2.6546    0.0000 C   0  0  0  0  0  0  0  0  0  0  0  0
    1.6688   -2.2032    0.0000 C   0  0  0  0  0  0  0  0  0  0  0  0
    0.1770   -2.0465    0.0000 C   0  0  0  0  0  0  0  0  0  0  0  0
    1.0577   -0.8419    0.0000 C   0  0  0  0  0  0  0  0  0  0  0  0
    5.3135   -4.8426    0.0000 O   0  0  0  0  0  0  0  0  0  0  0  0
  6  5  1  0
  7  5  1  0
  9  8  1  0
 10  1  2  0
 10  6  1  0
 11  2  1  0
 11  8  1  0
 12  7  2  0
 12 10  1  0
 13  9  1  1
 14 12  1  1
 14 13  1  0
 15  3  1  0
 15  4  1  0
 15 13  1  0
 15 14  1  0
 16 11  2  0
M  END
>  <NAME>  (5476) 
TAYLORIONE

>  <SYNONYMS>  (5476) 
1,10-SECOAROMADENDRA1(5),4(15)-DIEN-10-ONE

>  <SPECTRUM TYPE>  (5476) 
MS1

>  <INSTRUMENT TYPE>  (5476) 
EI-B

>  <INSTRUMENT>  (5476) 
HITACHI RMU-6L

>  <ION MODE>  (5476) 
P

>  <INCHIKEY>  (5476) 
CDXNKWAMDXZEKB-UONOGXRCSA-N

>  <FORMULA>  (5476) 
C15H22O

>  <EXACT MASS>  (5476) 
218.167065324

>  <MW>  (5476) 
218

>  <ID>  (5476) 
JP001148

>  <CONTRIBUTOR>  (5476) 
University of Tokyo Team, {Faculty of Engineering, University of Tokyo

>  <COMMENT>  (5476) 
SMILES=CC(=O)CCC([H])(C(C)(C)1)C([H])(C(=C([H])2)C(=C)CC2)1
InChI=InChI=1S/C15H22O/c1-10-6-5-7-12(10)14-13(15(14,3)4)9-8-11(2)16/h7,13-14H,1,5-6,8-9H2,2-4H3/t13-,14+/m0/s1
computed SMILES=O=C(C)CCC1C(C2=CCCC2=C)C1(C)C
accession=JP001148
date=2016.01.19 (Created 2008.10.21, modified 2011.05.06)
author=NAKAYAMA M, MASS SPECTROSCOPY SOC. OF JAPAN (MSSJ)
license=CC BY-NC-SA
exact mass=218.16707
ionization energy=70 eV
ion type=[M]+*
computed spectral entropy=3.9992066306902365
computed normalized entropy=0.8229137871867146
SPLASH=splash10-0007-7900000000-df0d4a57657b47e23247
submitter=submitter = University of Tokyo Team (Faculty of Engineering, University of Tokyo)
MoNA Rating=3.75

>  <NUM PEAKS>  (5476) 
129

>  <MASS SPECTRAL PEAKS>  (5476) 
38 1.5
39 22
40 4
41 41
42 3
43 99.99
44 3
45 2
50 2
51 3
52 4
53 16
54 2
55 21
56 2
57 2
58 2
59 2
62 1
63 4
64 2
65 14
66 3
67 10
68 1
69 9
70 1
71 5
72 1
73 1
75 1
76 1
77 22
78 8
79 18
80 5
81 10
82 2
83 2
84 1
85 2
88 1
89 2
90 1
91 46
92 12
93 18
94 4
95 7
96 1
97 2
98 1
99 1
101 1
102 2
103 7
104 5
105 41
106 9
107 8.5
108 2
109 4
110 1
111 1
113 2
114 1
115 11
116 6
117 28
118 9
119 23
120 6
121 5
122 1
123 3
124 1
125 3
126 1
127 2
128 5
129 7
130 6
131 19
132 10
133 15
134 3
135 2
136 1
137 1
139 3
140 1
141 1
142 1
143 5
144 3
145 83
146 16
147 54
148 9
149 1
150 1
155 1
156 1
157 3
158 2
159 7
160 40
161 13
162 2
163 1
171 1
172 1
173 1
174 2
175 13
176 2
177 1
185 6
186 1
189 1
190 1
200 2
201 1
203 5
204 1
205 2
218 19
219 3.5
220 1

>  <PREDICTED SPECTRUM>  (5476) 
26 29
27 215
28 23
29 156
31 21
38 84
39 386
40 161
41 567
42 134
43 999
44 99
45 113
50 150
51 294
52 166
53 332
54 68
55 335
56 15
57 91
58 110
59 214
62 82
63 230
64 142
65 324
66 149
67 320
68 103
69 232
70 86
71 284
72 102
74 59
75 109
76 126
77 541
78 249
79 451
80 147
81 285
82 119
83 120
84 82
85 120
86 99
87 68
88 46
89 155
90 72
91 662
92 254
93 250
94 151
95 250
96 154
97 89
98 2
99 132
100 8
101 151
102 146
103 273
104 182
105 553
106 219
107 401
108 211
109 134
110 117
111 64
112 1
115 344
116 238
117 463
118 235
119 595
120 318
121 179
122 118
123 177
124 82
125 145
126 58
127 155
128 175
129 329
130 203
131 379
132 292
133 428
134 178
135 90
136 89
137 62
138 60
139 23
141 85
142 150
143 267
144 182
145 811
146 373
147 731
148 277
149 164
150 3
155 42
156 6
157 186
158 119
159 213
160 795
161 373
162 183
163 16
167 17
169 2
170 42
171 78
173 36
174 57
175 441
176 141
177 92
185 286
186 73
188 14
189 38
199 11
200 126
201 84
203 253
204 76
217 18
218 429
219 169
220 49

$$$$

     RDKit          2D

 16 17  0  0  0  0  0  0  0  0999 V2000
   -8.2996    0.3125    0.0000 C   0  0  0  0  0  0  0  0  0  0  0  0
   -3.1344   -0.8676    0.0000 C   0  0  0  0  0  0  0  0  0  0  0  0
   -0.8903   -0.3812    0.0000 C   0  0  0  0  0  0  0  0  0  0  0  0
    0.5651    4.8409    0.0000 C   0  0  0  0  0  0  0  0  0  0  0  0
   -0.8106    4.2380    0.0000 C   0  0  0  0  0  0  0  0  0  0  0  0
    1.5649    3.7325    0.0000 C   0  0  0  0  0  0  0  0  0  0  0  0
   -5.7613    0.8667    0.0000 C   0  0  0  0  0  0  0  0  0  0  0  0
   -4.6522    1.8766    0.0000 C   0  0  0  0  0  0  0  0  0  0  0  0
   -7.1904    1.3224    0.0000 C   0  0  0  0  0  0  0  0  0  0  0  0
   -0.6449    2.7451    0.0000 C   0  0  0  0  0  0  0  0  0  0  0  0
   -3.2230    1.4209    0.0000 C   0  0  0  0  0  0  0  0  0  0  0  0
    0.8149    2.4335    0.0000 C   0  0  0  0  0  0  0  0  0  0  0  0
   -1.7571    1.7386    0.0000 C   0  0  0  0  0  0  0  0  0  0  0  0
   -2.2168    0.3191    0.0000 C   0  0  0  0  0  0  0  0  0  0  0  0
   -7.5104    2.7878    0.0000 O   0  0  0  0  0  0  0  0  0  0  0  0
    1.4244    1.0629    0.0000 O   0  0  0  0  0  0  0  0  0  0  0  0
  5  4  1  0
  6  4  1  0
  8  7  1  0
  9  1  1  0
  9  7  1  0
 10  5  2  0
 11  8  1  0
 12  6  1  0
 12 10  1  0
 13 10  1  0
 13 11  1  0
 14  2  1  0
 14  3  1  0
 14 11  1  0
 14 13  1  0
 15  9  1  0
 16 12  2  0
M  END
>  <NAME>  (5477) 
2-(3-(3-HYDROXYBUTYL)-2,2-DIMETHYLCYCLOPROPYL)CYCLOPENT-2-ENE-1-ONE

>  <SYNONYMS>  (5477) 


>  <SPECTRUM TYPE>  (5477) 
MS1

>  <INSTRUMENT TYPE>  (5477) 
EI-B

>  <INSTRUMENT>  (5477) 
HITACHI RMU-6L

>  <ION MODE>  (5477) 
P

>  <INCHIKEY>  (5477) 
IOUIEWFXKAZFEN-UHFFFAOYSA-N

>  <FORMULA>  (5477) 
C14H22O2

>  <EXACT MASS>  (5477) 
222.161979944

>  <MW>  (5477) 
222

>  <ID>  (5477) 
JP001147

>  <CONTRIBUTOR>  (5477) 
University of Tokyo Team, {Faculty of Engineering, University of Tokyo

>  <COMMENT>  (5477) 
SMILES=CC(O)CCC(C(C)(C)1)C(C(=C2)C(=O)CC2)1
InChI=InChI=1S/C14H22O2/c1-9(15)7-8-11-13(14(11,2)3)10-5-4-6-12(10)16/h5,9,11,13,15H,4,6-8H2,1-3H3
computed SMILES=O=C1C(=CCC1)C2C(CCC(O)C)C2(C)C
accession=JP001147
license=CC BY-NC-SA
date=2016.01.19 (Created 2008.10.21, modified 2011.05.06)
author=NAKAYAMA M, MASS SPECTROSCOPY SOC. OF JAPAN (MSSJ)
exact mass=222.16198
ionization energy=70 eV
ion type=[M]+*
computed spectral entropy=3.9441548207520754
computed normalized entropy=0.8701750125308756
SPLASH=splash10-052f-9800000000-04e9f3d9181f631b8df9
submitter=submitter = University of Tokyo Team (Faculty of Engineering, University of Tokyo)
MoNA Rating=3.75

>  <NUM PEAKS>  (5477) 
93

>  <MASS SPECTRAL PEAKS>  (5477) 
40 4.7
41 68.6
42 9.3
43 99.99
44 2.4
45 48.2
51 11.4
52 4.3
53 17.6
54 1.6
55 57.6
56 2.7
57 12.1
59 3.9
61 2.4
63 2.4
65 16
66 4.3
67 17.6
68 5.4
69 39.6
70 2
71 8.2
73 3.1
77 41.2
78 11.8
79 36.9
80 5
81 15.7
82 4.7
83 6.3
85 5
91 64.3
92 16.5
93 25.7
94 5
95 16.9
96 9.8
97 9
99 4.7
103 3.1
104 2
105 44.3
106 38.8
107 87.5
108 12.9
109 22.3
111 3.9
115 2.4
117 7.8
118 4.3
119 53.3
120 28.2
121 37.6
122 6.3
123 12.2
124 1.6
125 2
129 3.1
130 1
131 11
132 2
133 34.5
134 12.9
135 19.2
136 7.5
137 13.3
139 1
143 1.6
145 3.1
146 2
147 31.4
148 21.6
149 16.7
150 4.7
151 2.7
161 23.9
162 35.3
163 11.2
164 7.8
165 5
171 2
175 6.7
176 2
177 1.6
179 23.5
180 2.4
189 8.2
203 1
204 9
205 1.6
222 3.5
223 0.5

>  <PREDICTED SPECTRUM>  (5477) 
17 1
25 6
26 46
27 302
28 94
29 329
30 20
31 182
38 70
39 519
40 226
41 836
42 262
43 999
44 252
45 480
46 24
50 151
51 322
52 258
53 547
54 197
55 592
56 194
57 292
58 171
59 333
60 44
61 23
62 53
63 221
64 142
65 428
66 249
67 586
68 283
69 523
70 161
71 286
72 72
74 30
75 5
76 44
77 608
78 291
79 651
80 310
81 603
82 276
83 262
84 53
85 181
86 34
87 23
89 100
90 7
91 796
92 382
93 712
94 325
95 579
96 275
97 216
98 35
99 83
102 43
103 260
104 129
105 717
106 409
107 816
108 466
109 483
110 147
111 122
112 25
113 55
115 216
116 83
117 334
118 157
119 854
120 456
121 764
122 509
123 517
124 207
125 153
126 74
127 69
128 98
129 199
130 106
131 307
132 155
133 622
134 320
135 423
136 315
137 283
138 101
139 24
143 134
145 212
146 90
147 567
148 413
149 780
150 307
151 271
152 117
153 43
154 2
159 96
160 32
161 518
162 496
163 408
164 515
165 330
166 173
175 123
176 64
177 192
178 63
179 490
180 178
181 46
182 7
189 338
190 86
193 45
194 45
204 255
205 124
207 216
208 39
222 251
223 81

$$$$

     RDKit          2D

 16 17  0  0  0  0  0  0  0  0999 V2000
    3.8989   -1.5002    0.0000 C   0  0  0  0  0  0  0  0  0  0  0  0
   -5.1981    0.7504    0.0000 C   0  0  0  0  0  0  0  0  0  0  0  0
    2.5990   -3.7500    0.0000 C   0  0  0  0  0  0  0  0  0  0  0  0
   -2.6000   -0.7500    0.0000 C   0  0  0  0  0  0  0  0  0  0  0  0
   -1.3000   -1.5000    0.0000 C   0  0  0  0  0  0  0  0  0  0  0  0
   -1.3000    1.5000    0.0000 C   0  0  0  0  0  0  0  0  0  0  0  0
    2.6000   -0.7500    0.0000 C   0  0  0  0  0  0  0  0  0  0  0  0
   -2.6000    0.7500    0.0000 C   0  0  0  0  0  0  0  0  0  0  0  0
    0.0000   -0.7500    0.0000 C   0  0  0  0  0  0  0  0  0  0  0  0
    0.0000    0.7500    0.0000 C   0  0  0  0  0  0  0  0  0  0  0  0
    1.3000   -1.5000    0.0000 C   0  0  0  0  0  0  0  0  0  0  0  0
    2.6000    0.7500    0.0000 C   0  0  0  0  0  0  0  0  0  0  0  0
    3.8989    1.5002    0.0000 O   0  0  0  0  0  0  0  0  0  0  0  0
   -3.8989    1.5002    0.0000 O   0  0  0  0  0  0  0  0  0  0  0  0
    1.3000   -3.0000    0.0000 O   0  0  0  0  0  0  0  0  0  0  0  0
    1.3000    1.5000    0.0000 O   0  0  0  0  0  0  0  0  0  0  0  0
  5  4  2  0
  7  1  1  0
  8  4  1  0
  8  6  2  0
  9  5  1  0
 10  6  1  0
 10  9  2  0
 11  7  2  0
 11  9  1  0
 12  7  1  0
 13 12  2  0
 14  2  1  0
 14  8  1  0
 15  3  1  0
 15 11  1  0
 16 10  1  0
 16 12  1  0
M  END
>  <NAME>  (5478) 
4,7-DIMETHOXY-3-METHYLCOUMARIN

>  <SYNONYMS>  (5478) 


>  <SPECTRUM TYPE>  (5478) 
MS1

>  <INSTRUMENT TYPE>  (5478) 
EI-B

>  <INSTRUMENT>  (5478) 
HITACHI RMU-7L

>  <ION MODE>  (5478) 
P

>  <INCHIKEY>  (5478) 
RTHGEQXOKQQJIL-UHFFFAOYSA-N

>  <FORMULA>  (5478) 
C12H12O4

>  <EXACT MASS>  (5478) 
220.073558864

>  <MW>  (5478) 
220

>  <ID>  (5478) 
JP001142

>  <CONTRIBUTOR>  (5478) 
University of Tokyo Team, {Faculty of Engineering, University of Tokyo

>  <COMMENT>  (5478) 
SMILES=COc(c2)cc(O1)c(c2)C(OC)=C(C)C(=O)1
InChI=InChI=1S/C12H12O4/c1-7-11(15-3)9-5-4-8(14-2)6-10(9)16-12(7)13/h4-6H,1-3H3
computed SMILES=O=C1OC=2C=C(OC)C=CC2C(OC)=C1C
accession=JP001142
date=2016.01.19 (Created 2008.10.21, modified 2011.05.06)
author=NAKAYAMA M, MASS SPECTROSCOPY SOC. OF JAPAN (MSSJ)
license=CC BY-NC-SA
exact mass=220.07356
ionization energy=70 eV
ion type=[M]+*
computed spectral entropy=2.9933098399111095
computed normalized entropy=0.7613027940501708
SPLASH=splash10-00di-2890000000-8d531b97bdd75c41d177
submitter=submitter = University of Tokyo Team (Faculty of Engineering, University of Tokyo)
MoNA Rating=3.75

>  <NUM PEAKS>  (5478) 
51

>  <MASS SPECTRAL PEAKS>  (5478) 
17 1.4
18 4.1
27 1.9
28 1.4
32 1
39 3.3
43 4.6
51 3.7
55 1.4
63 4.7
65 3.3
75 1.4
76 1.9
77 2.8
78 1.9
79 2.3
89 2.8
90 2.8
91 3.3
92 1.4
106 1.9
110 1.4
121 7
133 2.8
134 1.4
135 2.4
145 1.9
147 3.7
148 1.9
149 1.4
150 1.4
151 10.7
161 3.3
162 4.2
163 1.9
175 2.3
176 1.9
177 50.5
178 5.6
189 1
190 9.3
191 14.5
192 23.4
193 3.3
202 2.8
205 21.5
206 3.3
219 10.7
220 99.99
221 18.7
222 3.7

>  <PREDICTED SPECTRUM>  (5478) 
15 36
26 14
27 41
28 18
29 21
38 17
39 104
40 19
41 79
42 17
43 81
50 83
51 197
52 112
53 171
54 34
55 105
59 22
62 55
63 179
64 88
65 197
66 74
67 23
69 158
74 39
75 97
76 59
77 230
78 148
79 231
80 78
81 15
83 21
89 146
90 82
91 189
92 89
93 116
94 26
95 93
97 24
102 49
103 69
104 25
105 115
106 170
107 118
108 41
109 61
117 21
118 41
119 75
120 25
121 169
122 112
123 27
128 1
130 3
131 166
132 36
133 138
134 153
135 106
136 6
144 6
145 111
146 108
147 162
148 126
149 282
150 79
151 298
159 82
160 54
161 137
162 162
163 53
164 11
173 43
174 70
175 165
176 45
177 743
178 198
179 35
187 27
189 163
190 158
191 338
192 460
193 151
202 19
203 93
204 55
205 462
206 153
218 13
219 331
220 999
221 359
222 90

$$$$

     RDKit          2D

 15 16  0  0  0  0  0  0  0  0999 V2000
    3.8989   -1.5002    0.0000 C   0  0  0  0  0  0  0  0  0  0  0  0
   -5.1981    0.7504    0.0000 C   0  0  0  0  0  0  0  0  0  0  0  0
   -2.6000   -0.7500    0.0000 C   0  0  0  0  0  0  0  0  0  0  0  0
   -1.3000   -1.5000    0.0000 C   0  0  0  0  0  0  0  0  0  0  0  0
   -1.3000    1.5000    0.0000 C   0  0  0  0  0  0  0  0  0  0  0  0
    2.6000   -0.7500    0.0000 C   0  0  0  0  0  0  0  0  0  0  0  0
   -2.6000    0.7500    0.0000 C   0  0  0  0  0  0  0  0  0  0  0  0
    0.0000   -0.7500    0.0000 C   0  0  0  0  0  0  0  0  0  0  0  0
    0.0000    0.7500    0.0000 C   0  0  0  0  0  0  0  0  0  0  0  0
    1.3000   -1.5000    0.0000 C   0  0  0  0  0  0  0  0  0  0  0  0
    2.6000    0.7500    0.0000 C   0  0  0  0  0  0  0  0  0  0  0  0
    1.3000   -3.0000    0.0000 O   0  0  0  0  0  0  0  0  0  0  0  0
    3.8989    1.5002    0.0000 O   0  0  0  0  0  0  0  0  0  0  0  0
   -3.8989    1.5002    0.0000 O   0  0  0  0  0  0  0  0  0  0  0  0
    1.3000    1.5000    0.0000 O   0  0  0  0  0  0  0  0  0  0  0  0
  4  3  2  0
  6  1  1  0
  7  3  1  0
  7  5  2  0
  8  4  1  0
  9  5  1  0
  9  8  2  0
 10  6  2  0
 10  8  1  0
 11  6  1  0
 12 10  1  0
 13 11  2  0
 14  2  1  0
 14  7  1  0
 15  9  1  0
 15 11  1  0
M  END
>  <NAME>  (5479) 
4-HYDROXY-7-METHOXY-3-METHYLCOUMARINE

>  <SYNONYMS>  (5479) 


>  <SPECTRUM TYPE>  (5479) 
MS1

>  <INSTRUMENT TYPE>  (5479) 
EI-B

>  <INSTRUMENT>  (5479) 
HITACHI RMU-7L

>  <ION MODE>  (5479) 
P

>  <INCHIKEY>  (5479) 
UOJHKPDAGSUGJI-UHFFFAOYSA-N

>  <FORMULA>  (5479) 
C11H10O4

>  <EXACT MASS>  (5479) 
206.0579088

>  <MW>  (5479) 
206

>  <ID>  (5479) 
JP001141

>  <CONTRIBUTOR>  (5479) 
University of Tokyo Team, {Faculty of Engineering, University of Tokyo

>  <COMMENT>  (5479) 
SMILES=COc(c2)cc(O1)c(c2)C(O)=C(C)C(=O)1
InChI=InChI=1S/C11H10O4/c1-6-10(12)8-4-3-7(14-2)5-9(8)15-11(6)13/h3-5,12H,1-2H3
computed SMILES=O=C1OC=2C=C(OC)C=CC2C(O)=C1C
accession=JP001141
date=2016.01.19 (Created 2008.10.21, modified 2011.05.06)
author=NAKAYAMA M, MASS SPECTROSCOPY SOC. OF JAPAN (MSSJ)
license=CC BY-NC-SA
exact mass=206.05791
ionization energy=70 eV
ion type=[M]+*
computed spectral entropy=2.4288911011735204
computed normalized entropy=0.6584360186844156
SPLASH=splash10-0zfr-2940000000-dcc37abe3b0441123e25
submitter=submitter = University of Tokyo Team (Faculty of Engineering, University of Tokyo)
MoNA Rating=3.75

>  <NUM PEAKS>  (5479) 
40

>  <MASS SPECTRAL PEAKS>  (5479) 
18 1.1
27 4.2
28 2.8
29 1.1
32 1.7
39 5.6
41 1.7
43 2.2
50 2.8
51 3.9
52 2.2
53 2.2
55 2.8
62 2.2
63 5.6
64 2.2
65 2.2
77 2.8
79 5.6
90 1.2
91 2.2
92 1.1
95 2.2
106 2.2
108 3.9
120 1.1
122 10.6
123 1.7
134 2.2
135 2.2
150 78.2
151 97.2
152 7.8
163 6.1
177 3.9
178 10.6
179 1.1
206 99.99
207 11.2
208 0.6

>  <PREDICTED SPECTRUM>  (5479) 
15 38
26 25
27 53
28 34
29 58
30 3
37 20
38 51
39 166
40 46
41 180
42 40
43 77
44 72
49 5
50 167
51 260
52 170
53 190
54 45
55 280
56 98
57 63
58 4
61 58
62 147
63 266
64 156
65 219
66 74
67 35
69 106
71 12
72 8
74 101
75 131
76 120
77 249
78 167
79 269
80 107
81 75
82 21
89 99
90 81
91 144
92 120
93 109
94 113
95 138
96 24
102 12
103 3
105 37
106 115
107 297
108 195
109 130
110 1
117 10
119 49
120 17
121 53
122 321
123 158
124 30
134 25
135 232
136 195
137 101
148 43
149 83
150 999
151 973
152 239
163 273
164 74
176 29
177 210
178 321
179 179
180 14
191 80
192 2
205 135
206 857
207 320
208 87
209 1

$$$$

     RDKit          2D

 14 15  0  0  0  0  0  0  0  0999 V2000
   -3.8989   -1.5002    0.0000 C   0  0  0  0  0  0  0  0  0  0  0  0
   -5.1981    0.7504    0.0000 C   0  0  0  0  0  0  0  0  0  0  0  0
    1.3000   -1.5000    0.0000 C   0  0  0  0  0  0  0  0  0  0  0  0
    2.6000   -0.7500    0.0000 C   0  0  0  0  0  0  0  0  0  0  0  0
   -1.3000   -1.5000    0.0000 C   0  0  0  0  0  0  0  0  0  0  0  0
   -1.3000    1.5000    0.0000 C   0  0  0  0  0  0  0  0  0  0  0  0
   -2.6000   -0.7500    0.0000 C   0  0  0  0  0  0  0  0  0  0  0  0
    0.0000   -0.7500    0.0000 C   0  0  0  0  0  0  0  0  0  0  0  0
   -2.6000    0.7500    0.0000 C   0  0  0  0  0  0  0  0  0  0  0  0
    0.0000    0.7500    0.0000 C   0  0  0  0  0  0  0  0  0  0  0  0
    2.6000    0.7500    0.0000 C   0  0  0  0  0  0  0  0  0  0  0  0
    3.8989    1.5002    0.0000 O   0  0  0  0  0  0  0  0  0  0  0  0
   -3.8989    1.5002    0.0000 O   0  0  0  0  0  0  0  0  0  0  0  0
    1.3000    1.5000    0.0000 O   0  0  0  0  0  0  0  0  0  0  0  0
  4  3  2  0
  7  1  1  0
  7  5  1  0
  8  3  1  0
  8  5  2  0
  9  6  1  0
  9  7  2  0
 10  6  2  0
 10  8  1  0
 11  4  1  0
 12 11  2  0
 13  2  1  0
 13  9  1  0
 14 10  1  0
 14 11  1  0
M  END
>  <NAME>  (5480) 
7-METHOXY-6-METHYLCOUMARIN

>  <SYNONYMS>  (5480) 


>  <SPECTRUM TYPE>  (5480) 
MS1

>  <INSTRUMENT TYPE>  (5480) 
EI-B

>  <INSTRUMENT>  (5480) 
HITACHI RMU-7L

>  <ION MODE>  (5480) 
P

>  <INCHIKEY>  (5480) 
XROAZTOPXRDRAO-UHFFFAOYSA-N

>  <FORMULA>  (5480) 
C11H10O3

>  <EXACT MASS>  (5480) 
190.06299417999998

>  <MW>  (5480) 
190

>  <ID>  (5480) 
JP001140

>  <CONTRIBUTOR>  (5480) 
University of Tokyo Team, {Faculty of Engineering, University of Tokyo

>  <COMMENT>  (5480) 
SMILES=COc(c1)c(C)cc(C=2)c(OC(=O)C2)1
InChI=InChI=1S/C11H10O3/c1-7-5-8-3-4-11(12)14-10(8)6-9(7)13-2/h3-6H,1-2H3
computed SMILES=O=C1OC=2C=C(OC)C(=CC2C=C1)C
ion type=[M]+*
accession=JP001140
date=2016.01.19 (Created 2008.10.21, modified 2011.05.06)
author=NAKAYAMA M, MASS SPECTROSCOPY SOC. OF JAPAN (MSSJ)
license=CC BY-NC-SA
exact mass=190.06299
ionization energy=70 eV
computed spectral entropy=3.3257773563682704
computed normalized entropy=0.7938070225709529
SPLASH=splash10-01oy-8900000000-ca2e5b9ca6816091d2db
submitter=submitter = University of Tokyo Team (Faculty of Engineering, University of Tokyo)
MoNA Rating=3.75

>  <NUM PEAKS>  (5480) 
66

>  <MASS SPECTRAL PEAKS>  (5480) 
15 5
17 1.7
18 14.4
27 6.1
28 8.8
29 5.6
31 1.1
32 1.1
38 3.3
39 16.6
40 1.1
41 14.4
43 6.1
44 1.2
50 13.3
51 32
52 8.3
53 5.5
55 5.5
57 3.9
62 7.2
63 10.5
64 2.8
65 22.1
66 1.1
67 5.5
68 1.1
69 7.2
70 1.1
74 6.1
75 3.9
76 7.2
77 21
78 4.4
79 3.3
81 1.7
82 1.1
86 1.1
87 1.7
89 8.8
90 7.2
91 30.4
92 2.8
93 1.1
101 1.1
102 5.5
103 7.2
104 2.2
105 1.7
118 2.2
119 9.9
131 8.3
132 1.1
133 1.7
134 1.1
146 1.1
147 96.1
148 11.1
159 1.7
162 99.99
163 8.8
175 5.5
189 1.1
190 70.7
191 7.7
192 0.6

>  <PREDICTED SPECTRUM>  (5480) 
14 20
15 96
16 1
26 44
27 107
28 83
29 100
30 9
31 38
37 93
38 164
39 286
40 109
41 152
42 89
43 80
44 27
49 68
50 300
51 461
52 305
53 280
54 76
55 120
56 60
57 67
58 4
59 12
61 104
62 243
63 387
64 227
65 303
66 185
67 75
68 23
69 187
70 6
72 17
73 3
74 166
75 222
76 246
77 490
78 230
79 276
80 55
85 23
86 86
87 120
88 91
89 313
90 187
91 494
92 142
93 92
101 85
102 172
103 212
104 286
105 216
106 138
107 47
115 158
116 43
117 135
118 147
119 540
120 72
129 10
130 51
131 177
132 180
133 153
134 109
145 57
146 13
147 985
148 312
149 45
159 81
160 29
161 176
162 999
163 365
164 32
175 199
176 79
189 73
190 813
191 300
192 45

$$$$

     RDKit          2D

 16 17  0  0  0  0  0  0  0  0999 V2000
   -3.8989   -1.5002    0.0000 C   0  0  0  0  0  0  0  0  0  0  0  0
   -6.4970    1.5006    0.0000 C   0  0  0  0  0  0  0  0  0  0  0  0
    1.3000   -1.5000    0.0000 C   0  0  0  0  0  0  0  0  0  0  0  0
    2.6000   -0.7500    0.0000 C   0  0  0  0  0  0  0  0  0  0  0  0
   -1.3000   -1.5000    0.0000 C   0  0  0  0  0  0  0  0  0  0  0  0
   -1.3000    1.5000    0.0000 C   0  0  0  0  0  0  0  0  0  0  0  0
   -2.6000   -0.7500    0.0000 C   0  0  0  0  0  0  0  0  0  0  0  0
   -5.1981    0.7504    0.0000 C   0  0  0  0  0  0  0  0  0  0  0  0
    0.0000   -0.7500    0.0000 C   0  0  0  0  0  0  0  0  0  0  0  0
   -2.6000    0.7500    0.0000 C   0  0  0  0  0  0  0  0  0  0  0  0
    0.0000    0.7500    0.0000 C   0  0  0  0  0  0  0  0  0  0  0  0
    2.6000    0.7500    0.0000 C   0  0  0  0  0  0  0  0  0  0  0  0
   -5.1983   -0.7496    0.0000 O   0  0  0  0  0  0  0  0  0  0  0  0
    3.8989    1.5002    0.0000 O   0  0  0  0  0  0  0  0  0  0  0  0
   -3.8989    1.5002    0.0000 O   0  0  0  0  0  0  0  0  0  0  0  0
    1.3000    1.5000    0.0000 O   0  0  0  0  0  0  0  0  0  0  0  0
  4  3  2  0
  7  1  1  0
  7  5  1  0
  8  2  1  0
  9  3  1  0
  9  5  2  0
 10  6  1  0
 10  7  2  0
 11  6  2  0
 11  9  1  0
 12  4  1  0
 13  8  2  0
 14 12  2  0
 15  8  1  0
 15 10  1  0
 16 11  1  0
 16 12  1  0
M  END
>  <NAME>  (5481) 
7-ACETOXY-6-METHYLCOUMARIN

>  <SYNONYMS>  (5481) 


>  <SPECTRUM TYPE>  (5481) 
MS1

>  <INSTRUMENT TYPE>  (5481) 
EI-B

>  <INSTRUMENT>  (5481) 
HITACHI RMU-7L

>  <ION MODE>  (5481) 
P

>  <INCHIKEY>  (5481) 
AYHSRSLMDCLHKM-UHFFFAOYSA-N

>  <FORMULA>  (5481) 
C12H10O4

>  <EXACT MASS>  (5481) 
218.0579088

>  <MW>  (5481) 
218

>  <ID>  (5481) 
JP001139

>  <CONTRIBUTOR>  (5481) 
University of Tokyo Team, {Faculty of Engineering, University of Tokyo

>  <COMMENT>  (5481) 
SMILES=CC(=O)Oc(c1)c(C)cc(C=2)c(OC(=O)C2)1
InChI=InChI=1S/C12H10O4/c1-7-5-9-3-4-12(14)16-11(9)6-10(7)15-8(2)13/h3-6H,1-2H3
computed SMILES=O=C1OC=2C=C(OC(=O)C)C(=CC2C=C1)C
accession=JP001139
date=2016.01.19 (Created 2008.10.21, modified 2011.05.06)
author=NAKAYAMA M, MASS SPECTROSCOPY SOC. OF JAPAN (MSSJ)
license=CC BY-NC-SA
exact mass=218.05791
ionization energy=70 eV
ion type=[M]+*
computed spectral entropy=2.3546653623548135
computed normalized entropy=0.7066389098161948
SPLASH=splash10-004i-4900000000-5ca6ccc237b7bb9adcce
submitter=submitter = University of Tokyo Team (Faculty of Engineering, University of Tokyo)
MoNA Rating=3.75

>  <NUM PEAKS>  (5481) 
28

>  <MASS SPECTRAL PEAKS>  (5481) 
18 1
27 1.6
28 3.6
39 5.2
41 1.5
43 38.5
50 1
51 8.3
52 2.1
53 2.6
63 2.6
64 1
65 8.3
76 2.1
77 4.2
78 1
79 1
91 10.4
119 4.7
120 1.6
147 9.9
148 47.4
149 3.2
175 3.6
176 99.99
177 10.4
218 14.1
219 2.1

>  <PREDICTED SPECTRUM>  (5481) 
14 23
15 79
25 7
26 37
27 22
28 25
37 51
38 97
39 167
40 79
41 84
42 101
43 551
44 83
45 47
49 90
50 199
51 284
52 205
53 147
54 25
61 85
62 154
63 217
64 122
65 135
66 79
67 48
68 9
69 109
74 110
75 142
76 154
77 261
78 119
86 72
87 96
88 32
89 166
90 114
91 337
92 169
93 56
101 10
102 171
103 150
104 89
105 30
106 66
118 35
119 207
120 200
121 7
131 53
147 341
148 787
149 252
150 44
174 14
175 150
176 999
177 314
178 75
218 308
219 112
220 12

$$$$

     RDKit          2D

 13 14  0  0  0  0  0  0  0  0999 V2000
   -3.8989   -1.5002    0.0000 C   0  0  0  0  0  0  0  0  0  0  0  0
    1.3000   -1.5000    0.0000 C   0  0  0  0  0  0  0  0  0  0  0  0
    2.6000   -0.7500    0.0000 C   0  0  0  0  0  0  0  0  0  0  0  0
   -1.3000   -1.5000    0.0000 C   0  0  0  0  0  0  0  0  0  0  0  0
   -1.3000    1.5000    0.0000 C   0  0  0  0  0  0  0  0  0  0  0  0
   -2.6000   -0.7500    0.0000 C   0  0  0  0  0  0  0  0  0  0  0  0
    0.0000   -0.7500    0.0000 C   0  0  0  0  0  0  0  0  0  0  0  0
   -2.6000    0.7500    0.0000 C   0  0  0  0  0  0  0  0  0  0  0  0
    0.0000    0.7500    0.0000 C   0  0  0  0  0  0  0  0  0  0  0  0
    2.6000    0.7500    0.0000 C   0  0  0  0  0  0  0  0  0  0  0  0
   -3.8989    1.5002    0.0000 O   0  0  0  0  0  0  0  0  0  0  0  0
    3.8989    1.5002    0.0000 O   0  0  0  0  0  0  0  0  0  0  0  0
    1.3000    1.5000    0.0000 O   0  0  0  0  0  0  0  0  0  0  0  0
  3  2  2  0
  6  1  1  0
  6  4  1  0
  7  2  1  0
  7  4  2  0
  8  5  1  0
  8  6  2  0
  9  5  2  0
  9  7  1  0
 10  3  1  0
 11  8  1  0
 12 10  2  0
 13  9  1  0
 13 10  1  0
M  END
>  <NAME>  (5482) 
7-HYDROXY-6-METHYLCOUMARIN

>  <SYNONYMS>  (5482) 


>  <SPECTRUM TYPE>  (5482) 
MS1

>  <INSTRUMENT TYPE>  (5482) 
EI-B

>  <INSTRUMENT>  (5482) 
HITACHI RMU-7L

>  <ION MODE>  (5482) 
P

>  <INCHIKEY>  (5482) 
QWQWBHZHRMHXOC-UHFFFAOYSA-N

>  <FORMULA>  (5482) 
C10H8O3

>  <EXACT MASS>  (5482) 
176.04734411599998

>  <MW>  (5482) 
176

>  <ID>  (5482) 
JP001138

>  <CONTRIBUTOR>  (5482) 
University of Tokyo Team, {Faculty of Engineering, University of Tokyo

>  <COMMENT>  (5482) 
SMILES=O=C(C=2)Oc(c1)c(C2)cc(C)c(O)1
InChI=InChI=1S/C10H8O3/c1-6-4-7-2-3-10(12)13-9(7)5-8(6)11/h2-5,11H,1H3
computed SMILES=O=C1OC=2C=C(O)C(=CC2C=C1)C
accession=JP001138
date=2016.01.19 (Created 2008.10.21, modified 2011.05.06)
author=NAKAYAMA M, MASS SPECTROSCOPY SOC. OF JAPAN (MSSJ)
license=CC BY-NC-SA
exact mass=176.04734
ionization energy=70 eV
ion type=[M]+*
computed spectral entropy=3.0400098011888432
computed normalized entropy=0.781127998809371
SPLASH=splash10-002b-7900000000-14647595b20b9b27acdd
submitter=submitter = University of Tokyo Team (Faculty of Engineering, University of Tokyo)
MoNA Rating=3.75

>  <NUM PEAKS>  (5482) 
49

>  <MASS SPECTRAL PEAKS>  (5482) 
17 1.5
18 13.5
26 2.3
27 7.5
28 9
29 3
32 1.5
37 1.5
38 5.3
39 18.8
40 2.3
41 4.5
42 2.3
49 1.5
50 10.5
51 33.1
52 7.5
53 5.3
55 3.1
61 1.5
62 3
63 6
65 13.5
66 3.8
76 1.5
77 7.5
78 3
79 4.6
88 3.8
89 3
90 2.3
91 18.8
92 3.8
94 1.5
103 0.8
105 0.8
106 0.8
118 1.5
119 6.8
120 6.8
130 1.5
131 3.8
147 36.1
148 64.7
149 6
175 3.8
176 99.99
177 7.5
178 0.8

>  <PREDICTED SPECTRUM>  (5482) 
15 14
17 7
18 17
26 73
27 130
28 92
29 98
36 15
37 107
38 187
39 333
40 114
41 133
42 36
43 64
44 73
45 8
49 93
50 332
51 492
52 313
53 272
54 135
55 120
57 21
58 43
59 52
60 47
61 124
62 211
63 338
64 164
65 273
66 194
67 104
68 62
69 176
70 53
71 34
72 17
73 94
74 202
75 192
76 221
77 493
78 191
79 203
80 54
81 53
82 31
85 1
86 72
87 132
88 68
89 254
90 133
91 425
92 167
93 76
94 55
98 31
99 16
101 34
102 88
103 24
104 52
105 94
106 114
115 15
117 80
118 85
119 293
120 309
121 73
147 540
148 999
149 290
150 35
174 1
175 143
176 902
177 278
178 56

$$$$

     RDKit          2D

 14 15  0  0  0  0  0  0  0  0999 V2000
    1.1801   -3.0200    0.0000 C   0  0  0  0  0  0  0  0  0  0  0  0
   -5.2881    0.7636    0.0000 C   0  0  0  0  0  0  0  0  0  0  0  0
   -2.6900   -0.7400    0.0000 C   0  0  0  0  0  0  0  0  0  0  0  0
   -1.4000   -1.5100    0.0000 C   0  0  0  0  0  0  0  0  0  0  0  0
    2.5200   -0.7600    0.0000 C   0  0  0  0  0  0  0  0  0  0  0  0
   -1.4000    1.5000    0.0000 C   0  0  0  0  0  0  0  0  0  0  0  0
    1.1900   -1.5200    0.0000 C   0  0  0  0  0  0  0  0  0  0  0  0
   -2.6900    0.7600    0.0000 C   0  0  0  0  0  0  0  0  0  0  0  0
   -0.1000   -0.7600    0.0000 C   0  0  0  0  0  0  0  0  0  0  0  0
   -0.1000    0.7600    0.0000 C   0  0  0  0  0  0  0  0  0  0  0  0
    2.5200    0.7600    0.0000 C   0  0  0  0  0  0  0  0  0  0  0  0
    3.8174    1.5129    0.0000 O   0  0  0  0  0  0  0  0  0  0  0  0
   -3.9880    1.5118    0.0000 O   0  0  0  0  0  0  0  0  0  0  0  0
    1.1900    1.5200    0.0000 O   0  0  0  0  0  0  0  0  0  0  0  0
  4  3  2  0
  7  1  1  0
  7  5  2  0
  8  3  1  0
  8  6  2  0
  9  4  1  0
  9  7  1  0
 10  6  1  0
 10  9  2  0
 11  5  1  0
 12 11  2  0
 13  2  1  0
 13  8  1  0
 14 10  1  0
 14 11  1  0
M  END
>  <NAME>  (5483) 
7-METHOXY-4-METHYLCOUMARIN

>  <SYNONYMS>  (5483) 


>  <SPECTRUM TYPE>  (5483) 
MS1

>  <INSTRUMENT TYPE>  (5483) 
EI-B

>  <INSTRUMENT>  (5483) 
HITACHI RMU-7L

>  <ION MODE>  (5483) 
P

>  <INCHIKEY>  (5483) 
UDFPKNSWSYBIHO-UHFFFAOYSA-N

>  <FORMULA>  (5483) 
C11H10O3

>  <EXACT MASS>  (5483) 
190.06299417999998

>  <MW>  (5483) 
190

>  <ID>  (5483) 
JP001137

>  <CONTRIBUTOR>  (5483) 
University of Tokyo Team, {Faculty of Engineering, University of Tokyo

>  <COMMENT>  (5483) 
SMILES=COc(c2)cc(O1)c(c2)C(C)=CC(=O)1
InChI=InChI=1S/C11H10O3/c1-7-5-11(12)14-10-6-8(13-2)3-4-9(7)10/h3-6H,1-2H3
computed SMILES=O=C1OC=2C=C(OC)C=CC2C(=C1)C
accession=JP001137
date=2016.01.19 (Created 2008.10.21, modified 2011.05.06)
author=NAKAYAMA M, MASS SPECTROSCOPY SOC. OF JAPAN (MSSJ)
license=CC BY-NC-SA
exact mass=190.06299
ionization energy=70 eV
ion type=[M]+*
computed spectral entropy=2.329955949561593
computed normalized entropy=0.6722831787844492
SPLASH=splash10-0007-1900000000-b85b901e25734ab436ef
submitter=submitter = University of Tokyo Team (Faculty of Engineering, University of Tokyo)
MoNA Rating=3.75

>  <NUM PEAKS>  (5483) 
32

>  <MASS SPECTRAL PEAKS>  (5483) 
18 4.5
28 1.8
39 3.2
41 3.2
50 2.3
51 6.3
52 1.8
62 2.3
63 2.7
64 1.8
65 7.2
77 6.8
78 0.9
80 0.9
81 0.9
89 3.2
91 11.7
92 0.9
103 2.3
118 0.9
119 3.6
131 0.9
141 2.3
146 1.4
147 73.4
148 4.1
161 9
162 62.2
163 9
190 99.99
191 14
192 0.9

>  <PREDICTED SPECTRUM>  (5483) 
14 15
15 69
26 41
27 84
28 65
29 87
37 83
38 152
39 269
40 110
41 122
42 55
43 0
44 12
49 20
50 250
51 356
52 218
53 220
54 49
55 72
56 14
59 1
61 69
62 220
63 354
64 194
65 234
66 115
67 37
69 177
74 140
75 201
76 191
77 294
78 140
79 216
80 47
86 33
87 76
88 53
89 177
90 160
91 404
92 137
93 86
95 19
101 66
102 77
103 165
104 174
105 94
106 35
107 79
115 169
116 22
117 87
118 103
119 452
120 85
121 32
130 27
131 79
132 93
133 83
134 95
135 27
145 36
147 999
148 319
149 64
159 37
160 8
161 122
162 869
163 315
164 44
175 126
176 39
189 32
190 867
191 312
192 74

$$$$

     RDKit          2D

 16 17  0  0  0  0  0  0  0  0999 V2000
    1.1801   -3.0200    0.0000 C   0  0  0  0  0  0  0  0  0  0  0  0
   -6.5861    1.5154    0.0000 C   0  0  0  0  0  0  0  0  0  0  0  0
   -2.6900   -0.7400    0.0000 C   0  0  0  0  0  0  0  0  0  0  0  0
   -1.4000   -1.5100    0.0000 C   0  0  0  0  0  0  0  0  0  0  0  0
    2.5200   -0.7600    0.0000 C   0  0  0  0  0  0  0  0  0  0  0  0
   -1.4000    1.5000    0.0000 C   0  0  0  0  0  0  0  0  0  0  0  0
    1.1900   -1.5200    0.0000 C   0  0  0  0  0  0  0  0  0  0  0  0
   -5.2881    0.7636    0.0000 C   0  0  0  0  0  0  0  0  0  0  0  0
   -2.6900    0.7600    0.0000 C   0  0  0  0  0  0  0  0  0  0  0  0
   -0.1000   -0.7600    0.0000 C   0  0  0  0  0  0  0  0  0  0  0  0
   -0.1000    0.7600    0.0000 C   0  0  0  0  0  0  0  0  0  0  0  0
    2.5200    0.7600    0.0000 C   0  0  0  0  0  0  0  0  0  0  0  0
   -5.2902   -0.7364    0.0000 O   0  0  0  0  0  0  0  0  0  0  0  0
    3.8174    1.5129    0.0000 O   0  0  0  0  0  0  0  0  0  0  0  0
   -3.9880    1.5118    0.0000 O   0  0  0  0  0  0  0  0  0  0  0  0
    1.1900    1.5200    0.0000 O   0  0  0  0  0  0  0  0  0  0  0  0
  4  3  2  0
  7  1  1  0
  7  5  2  0
  8  2  1  0
  9  3  1  0
  9  6  2  0
 10  4  1  0
 10  7  1  0
 11  6  1  0
 11 10  2  0
 12  5  1  0
 13  8  2  0
 14 12  2  0
 15  8  1  0
 15  9  1  0
 16 11  1  0
 16 12  1  0
M  END
>  <NAME>  (5484) 
7-ACETOXY-4-METHYLCOUMARIN

>  <SYNONYMS>  (5484) 


>  <SPECTRUM TYPE>  (5484) 
MS1

>  <INSTRUMENT TYPE>  (5484) 
EI-B

>  <INSTRUMENT>  (5484) 
HITACHI RMU-7L

>  <ION MODE>  (5484) 
P

>  <INCHIKEY>  (5484) 
HXVZGASCDAGAPS-UHFFFAOYSA-N

>  <FORMULA>  (5484) 
C12H10O4

>  <EXACT MASS>  (5484) 
218.0579088

>  <MW>  (5484) 
218

>  <ID>  (5484) 
JP001136

>  <CONTRIBUTOR>  (5484) 
University of Tokyo Team, {Faculty of Engineering, University of Tokyo

>  <COMMENT>  (5484) 
SMILES=CC(=O)Oc(c2)cc(O1)c(c2)C(C)=CC(=O)1
InChI=InChI=1S/C12H10O4/c1-7-5-12(14)16-11-6-9(15-8(2)13)3-4-10(7)11/h3-6H,1-2H3
computed SMILES=O=C1OC=2C=C(OC(=O)C)C=CC2C(=C1)C
accession=JP001136
date=2016.01.19 (Created 2008.10.21, modified 2011.05.06)
author=NAKAYAMA M, MASS SPECTROSCOPY SOC. OF JAPAN (MSSJ)
license=CC BY-NC-SA
exact mass=218.05791
ionization energy=70 eV
ion type=[M]+*
computed spectral entropy=2.2639748043774333
computed normalized entropy=0.6723421162513444
SPLASH=splash10-004j-2900000000-f75610fc78ca3d32dd79
submitter=submitter = University of Tokyo Team (Faculty of Engineering, University of Tokyo)
MoNA Rating=3.75

>  <NUM PEAKS>  (5484) 
29

>  <MASS SPECTRAL PEAKS>  (5484) 
15 2.9
28 2.9
32 1
39 4
42 1
43 18.3
50 2
51 2.4
52 1.5
53 1.5
63 1.5
65 6.4
76 1.5
77 2.4
89 1.5
91 8.9
103 1
105 1
119 3.5
120 3
147 14.6
148 70.8
149 7.9
175 1
176 99.99
177 11.9
178 1
218 18.3
219 2.5

>  <PREDICTED SPECTRUM>  (5484) 
14 16
15 60
26 41
27 88
28 36
29 22
37 52
38 113
39 223
40 79
41 108
42 113
43 537
44 29
49 19
50 186
51 271
52 187
53 151
54 70
55 23
60 6
61 86
62 153
63 245
64 150
65 192
66 124
67 86
68 37
69 130
74 122
75 167
76 149
77 243
78 122
79 73
80 74
81 8
86 61
87 68
88 30
89 183
90 159
91 298
92 135
93 94
94 27
99 27
101 29
102 161
103 125
104 42
105 98
106 88
107 77
108 47
115 42
117 25
118 45
119 197
120 221
121 79
126 1
128 78
129 7
131 59
132 12
133 9
134 9
135 16
136 23
146 2
147 483
148 999
149 307
150 66
159 30
161 2
174 30
175 224
176 919
177 287
178 87
190 22
218 325
219 123
220 28

$$$$

     RDKit          2D

 13 14  0  0  0  0  0  0  0  0999 V2000
    1.1801   -3.0200    0.0000 C   0  0  0  0  0  0  0  0  0  0  0  0
   -2.6900   -0.7400    0.0000 C   0  0  0  0  0  0  0  0  0  0  0  0
   -1.4000   -1.5100    0.0000 C   0  0  0  0  0  0  0  0  0  0  0  0
    2.5200   -0.7600    0.0000 C   0  0  0  0  0  0  0  0  0  0  0  0
   -1.4000    1.5000    0.0000 C   0  0  0  0  0  0  0  0  0  0  0  0
    1.1900   -1.5200    0.0000 C   0  0  0  0  0  0  0  0  0  0  0  0
   -2.6900    0.7600    0.0000 C   0  0  0  0  0  0  0  0  0  0  0  0
   -0.1000   -0.7600    0.0000 C   0  0  0  0  0  0  0  0  0  0  0  0
   -0.1000    0.7600    0.0000 C   0  0  0  0  0  0  0  0  0  0  0  0
    2.5200    0.7600    0.0000 C   0  0  0  0  0  0  0  0  0  0  0  0
   -3.9880    1.5118    0.0000 O   0  0  0  0  0  0  0  0  0  0  0  0
    3.8174    1.5129    0.0000 O   0  0  0  0  0  0  0  0  0  0  0  0
    1.1900    1.5200    0.0000 O   0  0  0  0  0  0  0  0  0  0  0  0
  3  2  2  0
  6  1  1  0
  6  4  2  0
  7  2  1  0
  7  5  2  0
  8  3  1  0
  8  6  1  0
  9  5  1  0
  9  8  2  0
 10  4  1  0
 11  7  1  0
 12 10  2  0
 13  9  1  0
 13 10  1  0
M  END
>  <NAME>  (5485) 
7-HYDROXY-4-METHYLCOUMARIN

>  <SYNONYMS>  (5485) 


>  <SPECTRUM TYPE>  (5485) 
MS1

>  <INSTRUMENT TYPE>  (5485) 
EI-B

>  <INSTRUMENT>  (5485) 
HITACHI RMU-7L

>  <ION MODE>  (5485) 
P

>  <INCHIKEY>  (5485) 
HSHNITRMYYLLCV-UHFFFAOYSA-N

>  <FORMULA>  (5485) 
C10H8O3

>  <EXACT MASS>  (5485) 
176.04734411599998

>  <MW>  (5485) 
176

>  <ID>  (5485) 
JP001135

>  <CONTRIBUTOR>  (5485) 
University of Tokyo Team, {Faculty of Engineering, University of Tokyo

>  <COMMENT>  (5485) 
SMILES=Oc(c2)cc(O1)c(c2)C(C)=CC(=O)1
InChI=InChI=1S/C10H8O3/c1-6-4-10(12)13-9-5-7(11)2-3-8(6)9/h2-5,11H,1H3
computed SMILES=O=C1OC=2C=C(O)C=CC2C(=C1)C
accession=JP001135
date=2016.01.19 (Created 2008.10.21, modified 2011.05.06)
author=NAKAYAMA M, MASS SPECTROSCOPY SOC. OF JAPAN (MSSJ)
license=CC BY-NC-SA
exact mass=176.04734
ionization energy=70 eV
ion type=[M]+*
computed spectral entropy=2.6068736335546747
computed normalized entropy=0.701985470250535
SPLASH=splash10-002b-3900000000-9efd3962e332f4fe7d26
submitter=submitter = University of Tokyo Team (Faculty of Engineering, University of Tokyo)
MoNA Rating=3.75

>  <NUM PEAKS>  (5485) 
41

>  <MASS SPECTRAL PEAKS>  (5485) 
17 2.2
18 9.4
26 1.3
27 3.5
32 1.3
39 9
41 1.7
43 2.2
50 4.3
51 8.6
52 3
53 2.6
55 1.7
61 1.3
62 2.6
63 6
64 1.3
65 8.6
66 1
67 1
75 3
77 4.3
78 2.2
79 2.2
89 1.7
90 1.3
91 12
92 1
94 1.3
102 1
105 1.3
118 1
119 5.6
120 9.4
131 1.3
147 44.6
148 72.5
149 8.6
176 99.99
177 11.2
178 0.8

>  <PREDICTED SPECTRUM>  (5485) 
14 9
15 31
17 5
18 11
26 58
27 136
28 69
29 99
31 8
33 1
36 0
37 89
38 162
39 338
40 132
41 157
42 104
43 155
44 65
45 24
49 66
50 281
51 405
52 261
53 240
54 107
55 142
56 1
57 50
58 38
59 29
60 66
61 109
62 204
63 332
64 179
65 303
66 185
67 121
68 87
69 155
70 27
71 48
72 19
73 90
74 198
75 191
76 175
77 369
78 135
79 185
80 94
81 121
82 50
84 5
85 25
86 108
87 117
88 63
89 190
90 133
91 363
92 132
93 88
94 93
95 23
96 16
97 22
98 17
99 37
100 33
101 101
102 159
103 80
104 69
105 137
106 55
107 41
115 175
116 6
117 16
118 106
119 355
120 271
121 89
126 25
127 14
129 9
130 40
131 108
132 3
133 123
134 88
136 13
145 9
147 734
148 999
149 314
150 33
159 6
175 82
176 838
177 275
178 76

$$$$

     RDKit          2D

 25 28  0  0  0  0  0  0  0  0999 V2000
    4.0772    0.4897    0.0000 C   0  0  0  0  0  0  0  0  0  0  0  0
    3.1127    2.1596    0.0000 C   0  0  0  0  0  0  0  0  0  0  0  0
   -2.6000    0.7500    0.0000 C   0  0  0  0  0  0  0  0  0  0  0  0
   -1.3000    1.5000    0.0000 C   0  0  0  0  0  0  0  0  0  0  0  0
    1.3000   -1.5000    0.0000 C   0  0  0  0  0  0  0  0  0  0  0  0
    2.6000   -0.7500    0.0000 C   0  0  0  0  0  0  0  0  0  0  0  0
   -1.3000   -1.5000    0.0000 C   0  0  0  0  0  0  0  0  0  0  0  0
   -6.4975   -6.0044    0.0000 C   0  0  0  0  0  0  0  0  0  0  0  0
   -7.7968   -3.7540    0.0000 C   0  0  0  0  0  0  0  0  0  0  0  0
   -5.1982   -0.7506    0.0000 C   0  0  0  0  0  0  0  0  0  0  0  0
   -2.6000   -0.7500    0.0000 C   0  0  0  0  0  0  0  0  0  0  0  0
    0.0000   -0.7500    0.0000 C   0  0  0  0  0  0  0  0  0  0  0  0
   -7.7968   -5.2548    0.0000 C   0  0  0  0  0  0  0  0  0  0  0  0
   -3.8989   -1.5002    0.0000 C   0  0  0  0  0  0  0  0  0  0  0  0
   -5.1982   -5.2531    0.0000 C   0  0  0  0  0  0  0  0  0  0  0  0
    0.0000    0.7500    0.0000 C   0  0  0  0  0  0  0  0  0  0  0  0
   -6.4975   -3.0027    0.0000 C   0  0  0  0  0  0  0  0  0  0  0  0
   -5.1982   -3.7523    0.0000 C   0  0  0  0  0  0  0  0  0  0  0  0
   -3.8989   -3.0010    0.0000 C   0  0  0  0  0  0  0  0  0  0  0  0
    2.6000    0.7500    0.0000 C   0  0  0  0  0  0  0  0  0  0  0  0
   -9.0957   -6.0050    0.0000 O   0  0  0  0  0  0  0  0  0  0  0  0
   -3.8989   -6.0027    0.0000 O   0  0  0  0  0  0  0  0  0  0  0  0
   -2.5996   -3.7506    0.0000 O   0  0  0  0  0  0  0  0  0  0  0  0
   -6.4975   -1.5019    0.0000 O   0  0  0  0  0  0  0  0  0  0  0  0
    1.3000    1.5000    0.0000 O   0  0  0  0  0  0  0  0  0  0  0  0
  4  3  2  0
  6  5  1  0
 11  3  1  0
 11  7  2  0
 12  5  1  0
 12  7  1  0
 13  8  2  0
 13  9  1  0
 14 10  2  0
 14 11  1  0
 15  8  1  0
 16  4  1  0
 16 12  2  0
 17  9  2  0
 18 15  2  0
 18 17  1  0
 19 14  1  0
 19 18  1  0
 20  1  1  0
 20  2  1  0
 20  6  1  0
 21 13  1  0
 22 15  1  0
 23 19  2  0
 24 10  1  0
 24 17  1  0
 25 16  1  0
 25 20  1  0
M  END
>  <NAME>  (5486) 
2',3'-DIHYDRO-5,7-DIHYDROXY-2',2'-DIMETHYL-3,6'-BI(4H-1-BENZOPYRAN)-4-ONE

>  <SYNONYMS>  (5486) 


>  <SPECTRUM TYPE>  (5486) 
MS1

>  <INSTRUMENT TYPE>  (5486) 
EI-B

>  <INSTRUMENT>  (5486) 
HITACHI RMS-4

>  <ION MODE>  (5486) 
P

>  <INCHIKEY>  (5486) 
VEFSEOVEILGQAE-UHFFFAOYSA-N

>  <FORMULA>  (5486) 
C20H18O5

>  <EXACT MASS>  (5486) 
338.115423676

>  <MW>  (5486) 
338

>  <ID>  (5486) 
JP001124

>  <CONTRIBUTOR>  (5486) 
University of Tokyo Team, {Faculty of Engineering, University of Tokyo

>  <COMMENT>  (5486) 
SMILES=Oc(c4)cc(O3)c(c(O)4)C(=O)C(=C([H])3)c(c2)cc(C1)c(c2)OC(C)(C)C1
InChI=InChI=1S/C20H18O5/c1-20(2)6-5-12-7-11(3-4-16(12)25-20)14-10-24-17-9-13(21)8-15(22)18(17)19(14)23/h3-4,7-10,21-22H,5-6H2,1-2H3
computed SMILES=O=C1C(=COC=2C=C(O)C=C(O)C12)C=3C=CC=4OC(C)(C)CCC4C3
accession=JP001124
date=2016.01.19 (Created 2008.10.21, modified 2011.05.06)
author=NAKAYAMA M, MASS SPECTROSCOPY SOC. OF JAPAN (MSSJ)
license=CC BY-NC-SA
exact mass=338.11542
ionization energy=70 eV
ion type=[M]+*
computed spectral entropy=4.0624292590280024
computed normalized entropy=0.898412030948864
SPLASH=splash10-0ugi-9221000000-8a0aac3e99d246bb8407
submitter=submitter = University of Tokyo Team (Faculty of Engineering, University of Tokyo)
MoNA Rating=3.75

>  <NUM PEAKS>  (5486) 
92

>  <MASS SPECTRAL PEAKS>  (5486) 
41 68
42 13
43 33
44 8
45 8
47 8
48 8
49 18
50 89
51 75
52 62
53 18
54 8
55 25
56 15
57 15
58 8
61 8
62 10
63 30
64 8
65 15
67 9
68 8
69 15
70 5
71 5
73 8
74 22
75 12
76 31
77 68
78 90
79 31
80 4
81 9
82 6
83 7
85 6
89 6
91 15
92 7
93 9
95 6
96 6
102 6
103 5
104 11
105 11
107 5
109 10
115 10
117 10
119 9
121 6
122 5
123 6
127 6
128 6
129 6
131 11
133 8
139 11
141 10
149 48
150 10
152 10
153 17
154 5
155 5
169 5
205 12
223 8
253 30
254 13
255 11
265 5
269 14
281 5
282 39
283 78
284 18
295 14
296 7
306 6
309 15
310 6
321 8
323 16
337 8
338 99.99
339 25

>  <PREDICTED SPECTRUM>  (5486) 
41 153
43 83
44 19
51 64
53 60
55 194
56 17
63 67
65 72
67 8
69 195
77 189
78 45
79 86
81 22
89 154
90 5
91 222
93 4
95 34
102 17
103 81
105 64
106 3
107 46
109 21
114 14
115 200
116 9
117 121
118 47
119 96
120 2
121 63
122 19
123 59
128 69
129 24
131 48
133 161
134 30
135 26
137 48
141 82
147 86
148 32
149 331
153 42
161 578
163 35
176 25
177 99
253 3
255 102
267 122
270 43
281 172
282 265
283 831
284 199
295 257
296 62
305 1
307 43
309 253
310 17
320 34
321 241
322 110
323 372
324 36
336 12
337 173
338 999
339 368
340 36

$$$$

     RDKit          2D

 25 27  0  0  0  0  0  0  0  0999 V2000
    7.7970   -8.2502    0.0000 C   0  0  0  0  0  0  0  0  0  0  0  0
    5.1989   -8.2502    0.0000 C   0  0  0  0  0  0  0  0  0  0  0  0
    6.4980   -6.0002    0.0000 C   0  0  0  0  0  0  0  0  0  0  0  0
    5.1989   -5.2502    0.0000 C   0  0  0  0  0  0  0  0  0  0  0  0
    5.1989   -0.7502    0.0000 C   0  0  0  0  0  0  0  0  0  0  0  0
    6.4989   -1.5002    0.0000 C   0  0  0  0  0  0  0  0  0  0  0  0
    3.8989   -3.0002    0.0000 C   0  0  0  0  0  0  0  0  0  0  0  0
   -2.6000   -0.7500    0.0000 C   0  0  0  0  0  0  0  0  0  0  0  0
   -1.3000    1.5000    0.0000 C   0  0  0  0  0  0  0  0  0  0  0  0
    2.6000    0.7500    0.0000 C   0  0  0  0  0  0  0  0  0  0  0  0
    6.4980   -7.5002    0.0000 C   0  0  0  0  0  0  0  0  0  0  0  0
    3.8989   -1.5002    0.0000 C   0  0  0  0  0  0  0  0  0  0  0  0
    5.1989   -3.7502    0.0000 C   0  0  0  0  0  0  0  0  0  0  0  0
   -2.6000    0.7500    0.0000 C   0  0  0  0  0  0  0  0  0  0  0  0
    2.6000   -0.7500    0.0000 C   0  0  0  0  0  0  0  0  0  0  0  0
    6.4989   -3.0002    0.0000 C   0  0  0  0  0  0  0  0  0  0  0  0
   -1.3000   -1.5000    0.0000 C   0  0  0  0  0  0  0  0  0  0  0  0
    0.0000    0.7500    0.0000 C   0  0  0  0  0  0  0  0  0  0  0  0
    0.0000   -0.7500    0.0000 C   0  0  0  0  0  0  0  0  0  0  0  0
    1.3000   -1.5000    0.0000 C   0  0  0  0  0  0  0  0  0  0  0  0
   -3.8989    1.5002    0.0000 O   0  0  0  0  0  0  0  0  0  0  0  0
    7.7978   -3.7504    0.0000 O   0  0  0  0  0  0  0  0  0  0  0  0
   -1.3000   -3.0000    0.0000 O   0  0  0  0  0  0  0  0  0  0  0  0
    1.3000   -3.0000    0.0000 O   0  0  0  0  0  0  0  0  0  0  0  0
    1.3000    1.5000    0.0000 O   0  0  0  0  0  0  0  0  0  0  0  0
  4  3  1  0
  6  5  2  0
 11  1  1  0
 11  2  1  0
 11  3  2  0
 12  5  1  0
 12  7  2  0
 13  4  1  0
 13  7  1  0
 14  8  2  0
 14  9  1  0
 15 10  2  0
 15 12  1  0
 16  6  1  0
 16 13  2  0
 17  8  1  0
 18  9  2  0
 19 17  2  0
 19 18  1  0
 20 15  1  0
 20 19  1  0
 21 14  1  0
 22 16  1  0
 23 17  1  0
 24 20  2  0
 25 10  1  0
 25 18  1  0
M  END
>  <NAME>  (5487) 
4',5,7-TRIHYDROXY-3'-(3-METHYL-2-BUTENYL)ISOFLAVONE

>  <SYNONYMS>  (5487) 


>  <SPECTRUM TYPE>  (5487) 
MS1

>  <INSTRUMENT TYPE>  (5487) 
EI-B

>  <INSTRUMENT>  (5487) 
HITACHI RMS-4

>  <ION MODE>  (5487) 
P

>  <INCHIKEY>  (5487) 
SWDSVBNAMCDHTF-UHFFFAOYSA-N

>  <FORMULA>  (5487) 
C20H18O5

>  <EXACT MASS>  (5487) 
338.115423676

>  <MW>  (5487) 
338

>  <ID>  (5487) 
JP001123

>  <CONTRIBUTOR>  (5487) 
University of Tokyo Team, {Faculty of Engineering, University of Tokyo

>  <COMMENT>  (5487) 
SMILES=CC(C)=CCc(c(O)3)cc(cc3)C(=C1)C(=O)c(c(O)2)c(cc(O)c2)O1
InChI=InChI=1S/C20H18O5/c1-11(2)3-4-13-7-12(5-6-16(13)22)15-10-25-18-9-14(21)8-17(23)19(18)20(15)24/h3,5-10,21-23H,4H2,1-2H3
computed SMILES=O=C1C(=COC=2C=C(O)C=C(O)C12)C=3C=CC(O)=C(C3)CC=C(C)C
accession=JP001123
date=2016.01.19 (Created 2008.10.21, modified 2011.05.06)
author=NAKAYAMA M, MASS SPECTROSCOPY SOC. OF JAPAN (MSSJ)
license=CC BY-NC-SA
exact mass=338.11542
ionization energy=70 eV
ion type=[M]+*
computed spectral entropy=3.99508601344511
computed normalized entropy=0.9372240301136712
SPLASH=splash10-0uel-9653000000-9e7c1c95ff1fcbcaec3b
submitter=submitter = University of Tokyo Team (Faculty of Engineering, University of Tokyo)
MoNA Rating=3.75

>  <NUM PEAKS>  (5487) 
71

>  <MASS SPECTRAL PEAKS>  (5487) 
41 35
42 12
43 48
45 12
50 20
51 23
52 14
53 17
55 30
57 23
63 15
65 15
69 26
71 12
76 12
77 33
78 21
79 12
81 12
83 12
89 9
91 15
93 9
95 9
96 15
97 9
102 9
103 13
104 9
105 13
107 9
108 9
109 9
111 9
115 25
123 9
124 21
127 9
128 15
131 17
133 9
139 13
141 15
152 21
153 63
154 11
155 9
165 8
169 7
181 8
185 7
197 8
253 40
254 19
255 15
269 13
270 8
282 20
283 93
284 19
295 25
296 11
297 8
305 7
309 20
321 10
323 23
337 11
338 99.99
339 25
340 5

>  <PREDICTED SPECTRUM>  (5487) 
29 53
41 119
42 3
43 40
44 4
51 44
52 32
53 86
54 11
55 107
57 28
63 36
65 52
67 62
69 367
77 118
78 51
79 78
80 26
81 57
82 1
89 57
90 55
91 118
93 8
95 18
102 9
103 78
105 36
106 57
107 105
108 8
109 17
114 9
115 283
116 73
117 158
118 146
119 93
120 9
121 56
122 37
123 180
124 8
125 16
127 97
128 100
129 7
133 102
134 78
135 59
136 52
137 47
138 49
140 1
141 97
142 10
149 99
150 30
151 63
152 117
153 315
160 71
161 121
174 6
176 14
177 23
179 7
225 12
227 23
229 14
239 55
240 13
255 62
267 360
268 135
269 102
270 128
271 2
281 118
282 129
283 339
284 53
293 29
294 28
295 317
296 128
297 51
305 66
309 96
320 18
321 205
322 101
323 347
324 104
336 118
337 311
338 999
339 414
340 91

$$$$

     RDKit          2D

 31 35  0  0  0  0  0  0  0  0999 V2000
    4.0772    0.4897    0.0000 C   0  0  0  0  0  0  0  0  0  0  0  0
    3.1127    2.1596    0.0000 C   0  0  0  0  0  0  0  0  0  0  0  0
  -15.5937    5.2512    0.0000 C   0  0  0  0  0  0  0  0  0  0  0  0
  -15.5945    3.7504    0.0000 C   0  0  0  0  0  0  0  0  0  0  0  0
  -14.2941    6.0019    0.0000 C   0  0  0  0  0  0  0  0  0  0  0  0
  -14.2956    3.0002    0.0000 C   0  0  0  0  0  0  0  0  0  0  0  0
  -12.9952    5.2517    0.0000 C   0  0  0  0  0  0  0  0  0  0  0  0
   -1.3000   -1.5000    0.0000 C   0  0  0  0  0  0  0  0  0  0  0  0
   -2.6000   -0.7500    0.0000 C   0  0  0  0  0  0  0  0  0  0  0  0
   -9.0989    1.5002    0.0000 C   0  0  0  0  0  0  0  0  0  0  0  0
   -7.7989    0.7502    0.0000 C   0  0  0  0  0  0  0  0  0  0  0  0
    1.3000   -1.5000    0.0000 C   0  0  0  0  0  0  0  0  0  0  0  0
    2.6000   -0.7500    0.0000 C   0  0  0  0  0  0  0  0  0  0  0  0
   -1.3000    1.5000    0.0000 C   0  0  0  0  0  0  0  0  0  0  0  0
   -7.7989    3.7502    0.0000 C   0  0  0  0  0  0  0  0  0  0  0  0
  -11.6970    3.0006    0.0000 C   0  0  0  0  0  0  0  0  0  0  0  0
   -3.8989    3.0002    0.0000 C   0  0  0  0  0  0  0  0  0  0  0  0
  -12.9959    3.7508    0.0000 C   0  0  0  0  0  0  0  0  0  0  0  0
    0.0000   -0.7500    0.0000 C   0  0  0  0  0  0  0  0  0  0  0  0
   -2.6000    0.7500    0.0000 C   0  0  0  0  0  0  0  0  0  0  0  0
   -9.0989    3.0002    0.0000 C   0  0  0  0  0  0  0  0  0  0  0  0
   -6.4989    1.5002    0.0000 C   0  0  0  0  0  0  0  0  0  0  0  0
   -3.8989    1.5002    0.0000 C   0  0  0  0  0  0  0  0  0  0  0  0
    0.0000    0.7500    0.0000 C   0  0  0  0  0  0  0  0  0  0  0  0
   -6.4989    3.0002    0.0000 C   0  0  0  0  0  0  0  0  0  0  0  0
   -5.1989    0.7502    0.0000 C   0  0  0  0  0  0  0  0  0  0  0  0
    2.6000    0.7500    0.0000 C   0  0  0  0  0  0  0  0  0  0  0  0
   -5.1989   -0.7498    0.0000 O   0  0  0  0  0  0  0  0  0  0  0  0
  -10.3978    3.7504    0.0000 O   0  0  0  0  0  0  0  0  0  0  0  0
   -5.1989    3.7502    0.0000 O   0  0  0  0  0  0  0  0  0  0  0  0
    1.3000    1.5000    0.0000 O   0  0  0  0  0  0  0  0  0  0  0  0
  4  3  2  0
  5  3  1  0
  6  4  1  0
  7  5  2  0
  9  8  2  0
 11 10  2  0
 13 12  1  0
 18  6  2  0
 18  7  1  0
 18 16  1  0
 19  8  1  0
 19 12  1  0
 20  9  1  0
 20 14  2  0
 21 10  1  0
 21 15  2  0
 22 11  1  0
 23 17  2  0
 23 20  1  0
 24 14  1  0
 24 19  2  0
 25 15  1  0
 25 22  2  0
 26 22  1  0
 26 23  1  0
 27  1  1  0
 27  2  1  0
 27 13  1  0
 28 26  2  0
 29 16  1  0
 29 21  1  0
 30 17  1  0
 30 25  1  0
 31 24  1  0
 31 27  1  0
M  END
>  <NAME>  (5488) 
7-BENZYLOXY-2',3'-DIHYDRO-2',2'-DIMETHYL-O,6'-BI(4H-1-BENZOPYRAN)-4-ONE

>  <SYNONYMS>  (5488) 
7-BENZYLOXYISONEOBAVAISOFLAVONE

>  <SPECTRUM TYPE>  (5488) 
MS1

>  <INSTRUMENT TYPE>  (5488) 
EI-B

>  <INSTRUMENT>  (5488) 
HITACHI RMS-4

>  <ION MODE>  (5488) 
P

>  <INCHIKEY>  (5488) 
NVODLKVRPZHUMH-UHFFFAOYSA-N

>  <FORMULA>  (5488) 
C27H24O4

>  <EXACT MASS>  (5488) 
412.167459248

>  <MW>  (5488) 
412

>  <ID>  (5488) 
JP001122

>  <CONTRIBUTOR>  (5488) 
University of Tokyo Team, {Faculty of Engineering, University of Tokyo

>  <COMMENT>  (5488) 
SMILES=c(c23)cc(cc(OC=C(c(c4)cc(O5)c(CCC5(C)C)c4)C3=O)2)OCc(c1)cccc1
InChI=InChI=1S/C27H24O4/c1-27(2)13-12-19-8-9-20(14-24(19)31-27)23-17-30-25-15-21(10-11-22(25)26(23)28)29-16-18-6-4-3-5-7-18/h3-11,14-15,17H,12-13,16H2,1-2H3
computed SMILES=O=C1C(=COC2=CC(OCC=3C=CC=CC3)=CC=C21)C=4C=CC5=C(OC(C)(C)CC5)C4
accession=JP001122
date=2016.01.19 (Created 2008.10.21, modified 2011.05.06)
author=NAKAYAMA M, MASS SPECTROSCOPY SOC. OF JAPAN (MSSJ)
license=CC BY-NC-SA
exact mass=412.16746
ion type=[M]+*
ionization energy=70 eV
computed spectral entropy=2.7362114213532287
computed normalized entropy=0.7106770192752947
SPLASH=splash10-01ox-9112400000-ef581d6354699d377bb8
submitter=submitter = University of Tokyo Team (Faculty of Engineering, University of Tokyo)
MoNA Rating=3.75

>  <NUM PEAKS>  (5488) 
47

>  <MASS SPECTRAL PEAKS>  (5488) 
51 1.2
55 1.7
63 2.9
65 8.3
69 2.9
77 2.1
79 1.2
89 1.2
91 99.99
92 9.9
102 1
103 1
107 1.7
115 2.5
119 1.7
131 2.5
137 1.7
149 1.7
151 1.2
152 3.3
153 1.7
165 1.2
181 1.2
209 1.7
210 1.2
227 1.2
237 2.5
238 2.3
253 2.9
265 4.1
266 5.8
267 2.1
279 1.7
321 6.6
322 2.1
356 2.1
357 10.4
358 3.3
369 2.9
383 5
384 1.7
395 2.5
397 3.3
411 2.5
412 43.5
413 15.7
414 2.5

>  <PREDICTED SPECTRUM>  (5488) 
29 17
39 82
40 23
41 156
42 42
43 90
44 72
50 20
51 89
52 44
53 26
55 94
56 16
57 28
62 26
63 119
64 34
65 296
66 40
67 20
68 24
69 39
71 14
75 36
76 19
77 120
78 28
79 47
80 24
81 7
83 2
89 137
90 19
91 999
92 324
93 60
96 0
97 38
101 19
102 27
103 48
104 30
105 84
106 13
107 24
108 29
109 26
110 17
111 0
114 13
115 118
116 67
117 7
118 68
119 61
120 110
121 62
122 14
123 12
125 4
126 13
127 11
128 17
131 36
132 63
133 16
137 46
139 18
145 41
146 48
147 28
148 22
149 34
150 14
151 41
152 85
153 46
158 12
160 48
161 44
165 7
166 11
168 1
172 9
173 38
174 40
175 50
176 31
179 7
180 26
182 15
185 6
192 7
193 17
194 43
195 40
196 24
197 5
199 74
200 16
209 55
210 55
211 85
212 22
221 60
222 48
223 30
230 9
237 105
238 109
246 8
248 33
250 24
251 32
252 38
264 29
265 181
266 166
267 70
276 27
278 55
279 69
280 91
282 1
293 116
294 100
295 16
320 3
321 203
322 113
323 21
342 16
355 42
356 144
357 267
358 104
369 59
383 66
384 38
395 156
396 96
397 133
398 61
410 43
411 176
412 627
413 358
414 123
415 7

$$$$

     RDKit          2D

 24 27  0  0  0  0  0  0  0  0999 V2000
    4.0772    0.4897    0.0000 C   0  0  0  0  0  0  0  0  0  0  0  0
    3.1127    2.1596    0.0000 C   0  0  0  0  0  0  0  0  0  0  0  0
   -2.6000    0.7500    0.0000 C   0  0  0  0  0  0  0  0  0  0  0  0
   -6.4975   -6.0044    0.0000 C   0  0  0  0  0  0  0  0  0  0  0  0
   -5.1982   -5.2531    0.0000 C   0  0  0  0  0  0  0  0  0  0  0  0
   -1.3000    1.5000    0.0000 C   0  0  0  0  0  0  0  0  0  0  0  0
    1.3000   -1.5000    0.0000 C   0  0  0  0  0  0  0  0  0  0  0  0
    2.6000   -0.7500    0.0000 C   0  0  0  0  0  0  0  0  0  0  0  0
   -1.3000   -1.5000    0.0000 C   0  0  0  0  0  0  0  0  0  0  0  0
   -7.7968   -3.7540    0.0000 C   0  0  0  0  0  0  0  0  0  0  0  0
   -5.1982   -0.7506    0.0000 C   0  0  0  0  0  0  0  0  0  0  0  0
   -2.6000   -0.7500    0.0000 C   0  0  0  0  0  0  0  0  0  0  0  0
    0.0000   -0.7500    0.0000 C   0  0  0  0  0  0  0  0  0  0  0  0
   -7.7968   -5.2548    0.0000 C   0  0  0  0  0  0  0  0  0  0  0  0
   -5.1982   -3.7523    0.0000 C   0  0  0  0  0  0  0  0  0  0  0  0
   -3.8989   -1.5002    0.0000 C   0  0  0  0  0  0  0  0  0  0  0  0
    0.0000    0.7500    0.0000 C   0  0  0  0  0  0  0  0  0  0  0  0
   -6.4975   -3.0027    0.0000 C   0  0  0  0  0  0  0  0  0  0  0  0
   -3.8989   -3.0010    0.0000 C   0  0  0  0  0  0  0  0  0  0  0  0
    2.6000    0.7500    0.0000 C   0  0  0  0  0  0  0  0  0  0  0  0
   -9.0957   -6.0050    0.0000 O   0  0  0  0  0  0  0  0  0  0  0  0
   -2.5996   -3.7506    0.0000 O   0  0  0  0  0  0  0  0  0  0  0  0
   -6.4975   -1.5019    0.0000 O   0  0  0  0  0  0  0  0  0  0  0  0
    1.3000    1.5000    0.0000 O   0  0  0  0  0  0  0  0  0  0  0  0
  5  4  2  0
  6  3  2  0
  8  7  1  0
 12  3  1  0
 12  9  2  0
 13  7  1  0
 13  9  1  0
 14  4  1  0
 14 10  2  0
 15  5  1  0
 16 11  2  0
 16 12  1  0
 17  6  1  0
 17 13  2  0
 18 10  1  0
 18 15  2  0
 19 15  1  0
 19 16  1  0
 20  1  1  0
 20  2  1  0
 20  8  1  0
 21 14  1  0
 22 19  2  0
 23 11  1  0
 23 18  1  0
 24 17  1  0
 24 20  1  0
M  END
>  <NAME>  (5489) 
ISONEOBAVAISOFLAVONE

>  <SYNONYMS>  (5489) 
2',3'-DIHYDRO-7-HYDROXY-2',2'-DIMETHYL-3,6'-BI(4H-1-BENZOPYRAN)-4-ONE

>  <SPECTRUM TYPE>  (5489) 
MS1

>  <INSTRUMENT TYPE>  (5489) 
EI-B

>  <INSTRUMENT>  (5489) 
HITACHI RMU-7L

>  <ION MODE>  (5489) 
P

>  <INCHIKEY>  (5489) 
XYQGRDVFZGPOQG-UHFFFAOYSA-N

>  <FORMULA>  (5489) 
C20H18O4

>  <EXACT MASS>  (5489) 
322.120509056

>  <MW>  (5489) 
322

>  <ID>  (5489) 
JP001121

>  <CONTRIBUTOR>  (5489) 
University of Tokyo Team, {Faculty of Engineering, University of Tokyo

>  <COMMENT>  (5489) 
SMILES=Oc(c4)cc(O3)c(c4)C(=O)C(=C([H])3)c(c2)cc(C1)c(c2)OC(C)(C)C1
InChI=InChI=1S/C20H18O4/c1-20(2)8-7-13-9-12(3-6-17(13)24-20)16-11-23-18-10-14(21)4-5-15(18)19(16)22/h3-6,9-11,21H,7-8H2,1-2H3
computed SMILES=O=C1C2=CC=C(O)C=C2OC=C1C=3C=CC=4OC(C)(C)CCC4C3
accession=JP001121
date=2016.01.19 (Created 2008.10.21, modified 2011.05.06)
author=NAKAYAMA M, MASS SPECTROSCOPY SOC. OF JAPAN (MSSJ)
license=CC BY-NC-SA
exact mass=322.12051
ionization energy=70 eV
ion type=[M]+*
computed spectral entropy=2.148101781259516
computed normalized entropy=0.7295453553150677
SPLASH=splash10-00xr-0279000000-71d6025bffb3860e644e
submitter=submitter = University of Tokyo Team (Faculty of Engineering, University of Tokyo)
MoNA Rating=3.75

>  <NUM PEAKS>  (5489) 
19

>  <MASS SPECTRAL PEAKS>  (5489) 
63 1.1
77 1.7
95 0.8
131 6.7
137 31.7
146 1.1
237 18.3
238 3.3
239 1.7
266 6.7
267 56.7
268 11.1
279 7.2
293 10.1
305 2.8
307 11.1
321 2.8
322 99.99
323 15

>  <PREDICTED SPECTRUM>  (5489) 
29 4
39 65
41 146
43 43
50 12
51 100
52 4
53 76
55 182
56 61
62 22
63 157
64 62
65 189
66 23
69 39
74 34
75 52
76 68
77 198
78 74
79 110
81 30
87 19
88 46
89 219
90 81
91 309
92 101
93 137
95 49
101 31
102 76
103 85
104 30
105 119
106 15
107 80
108 6
109 65
113 4
115 203
116 36
117 79
118 81
119 119
120 134
121 138
122 14
126 6
127 47
128 61
129 42
130 7
131 74
132 68
133 155
137 140
141 17
145 19
146 37
147 197
148 2
149 75
160 134
161 466
162 80
175 532
176 231
211 16
223 56
235 22
236 47
237 126
238 66
239 195
249 51
251 117
254 29
265 203
266 270
267 775
268 255
279 228
280 74
282 7
289 17
291 81
293 219
294 14
304 1
305 274
306 136
307 399
308 116
320 16
321 269
322 999
323 414
324 87

$$$$

     RDKit          2D

 32 35  0  0  0  0  0  0  0  0999 V2000
    7.7970   -8.2502    0.0000 C   0  0  0  0  0  0  0  0  0  0  0  0
    5.1989   -8.2502    0.0000 C   0  0  0  0  0  0  0  0  0  0  0  0
   -9.0948    3.0010    0.0000 C   0  0  0  0  0  0  0  0  0  0  0  0
   -9.0956    1.5002    0.0000 C   0  0  0  0  0  0  0  0  0  0  0  0
   -7.7952    3.7517    0.0000 C   0  0  0  0  0  0  0  0  0  0  0  0
   -7.7966    0.7500    0.0000 C   0  0  0  0  0  0  0  0  0  0  0  0
   -6.4963    3.0015    0.0000 C   0  0  0  0  0  0  0  0  0  0  0  0
    6.4980   -6.0002    0.0000 C   0  0  0  0  0  0  0  0  0  0  0  0
    5.1989   -5.2502    0.0000 C   0  0  0  0  0  0  0  0  0  0  0  0
    5.1989   -0.7502    0.0000 C   0  0  0  0  0  0  0  0  0  0  0  0
   -2.6000   -0.7500    0.0000 C   0  0  0  0  0  0  0  0  0  0  0  0
   -1.3000   -1.5000    0.0000 C   0  0  0  0  0  0  0  0  0  0  0  0
    6.4989   -1.5002    0.0000 C   0  0  0  0  0  0  0  0  0  0  0  0
    3.8989   -3.0002    0.0000 C   0  0  0  0  0  0  0  0  0  0  0  0
   -1.3000    1.5000    0.0000 C   0  0  0  0  0  0  0  0  0  0  0  0
    2.6000    0.7500    0.0000 C   0  0  0  0  0  0  0  0  0  0  0  0
    6.4980   -7.5002    0.0000 C   0  0  0  0  0  0  0  0  0  0  0  0
   -6.4970    1.5006    0.0000 C   0  0  0  0  0  0  0  0  0  0  0  0
    3.8989   -1.5002    0.0000 C   0  0  0  0  0  0  0  0  0  0  0  0
    5.1989   -3.7502    0.0000 C   0  0  0  0  0  0  0  0  0  0  0  0
   -2.6000    0.7500    0.0000 C   0  0  0  0  0  0  0  0  0  0  0  0
    0.0000   -0.7500    0.0000 C   0  0  0  0  0  0  0  0  0  0  0  0
    2.6000   -0.7500    0.0000 C   0  0  0  0  0  0  0  0  0  0  0  0
    6.4989   -3.0002    0.0000 C   0  0  0  0  0  0  0  0  0  0  0  0
    0.0000    0.7500    0.0000 C   0  0  0  0  0  0  0  0  0  0  0  0
    1.3000   -1.5000    0.0000 C   0  0  0  0  0  0  0  0  0  0  0  0
   -5.1981    0.7504    0.0000 C   0  0  0  0  0  0  0  0  0  0  0  0
    7.7978   -3.7504    0.0000 O   0  0  0  0  0  0  0  0  0  0  0  0
    1.3000   -3.0000    0.0000 O   0  0  0  0  0  0  0  0  0  0  0  0
   -5.1983   -0.7496    0.0000 O   0  0  0  0  0  0  0  0  0  0  0  0
    1.3000    1.5000    0.0000 O   0  0  0  0  0  0  0  0  0  0  0  0
   -3.8989    1.5002    0.0000 O   0  0  0  0  0  0  0  0  0  0  0  0
  4  3  2  0
  5  3  1  0
  6  4  1  0
  7  5  2  0
  9  8  1  0
 12 11  2  0
 13 10  2  0
 17  1  1  0
 17  2  1  0
 17  8  2  0
 18  6  2  0
 18  7  1  0
 19 10  1  0
 19 14  2  0
 20  9  1  0
 20 14  1  0
 21 11  1  0
 21 15  2  0
 22 12  1  0
 23 16  2  0
 23 19  1  0
 24 13  1  0
 24 20  2  0
 25 15  1  0
 25 22  2  0
 26 22  1  0
 26 23  1  0
 27 18  1  0
 28 24  1  0
 29 26  2  0
 30 27  2  0
 31 16  1  0
 31 25  1  0
 32 21  1  0
 32 27  1  0
M  END
>  <NAME>  (5490) 
7-BENZOYLNEOBAVAISOFLAVONE

>  <SYNONYMS>  (5490) 
7-BENZOYLOXY-4'-HYDROXY-3'-(3-METHYL-2-BUTENYL)ISOFLAVONE

>  <SPECTRUM TYPE>  (5490) 
MS1

>  <INSTRUMENT TYPE>  (5490) 
EI-B

>  <INSTRUMENT>  (5490) 
HITACHI RMS-4

>  <ION MODE>  (5490) 
P

>  <INCHIKEY>  (5490) 
YCNLHISKOPZIFS-UHFFFAOYSA-N

>  <FORMULA>  (5490) 
C27H22O5

>  <EXACT MASS>  (5490) 
426.146723804

>  <MW>  (5490) 
426

>  <ID>  (5490) 
JP001120

>  <CONTRIBUTOR>  (5490) 
University of Tokyo Team, {Faculty of Engineering, University of Tokyo

>  <COMMENT>  (5490) 
SMILES=c(c(CC=C(C)C)1)c(C(=C4)C(c(c2)c(O4)cc(OC(=O)c(c3)cccc3)c2)=O)ccc1O
InChI=InChI=1S/C27H22O5/c1-17(2)8-9-20-14-19(10-13-24(20)28)23-16-31-25-15-21(11-12-22(25)26(23)29)32-27(30)18-6-4-3-5-7-18/h3-8,10-16,28H,9H2,1-2H3
computed SMILES=O=C(OC1=CC=C2C(OC=C(C2=O)C=3C=CC(O)=C(C3)CC=C(C)C)=C1)C=4C=CC=CC4
accession=JP001120
date=2016.01.19 (Created 2008.10.21, modified 2011.05.06)
author=NAKAYAMA M, MASS SPECTROSCOPY SOC. OF JAPAN (MSSJ)
license=CC BY-NC-SA
exact mass=426.14672
ionization energy=70 eV
ion type=[M]+*
computed spectral entropy=1.4936961331554197
computed normalized entropy=0.6229196704709541
SPLASH=splash10-0a4i-3900000000-8122e77fcfe721009150
submitter=submitter = University of Tokyo Team (Faculty of Engineering, University of Tokyo)
MoNA Rating=3.75

>  <NUM PEAKS>  (5490) 
11

>  <MASS SPECTRAL PEAKS>  (5490) 
51 2.7
70 6.7
77 50.6
95 2.4
105 99.99
106 10.6
133 44.3
321 0.8
371 0.8
425 3.1
426 1

>  <PREDICTED SPECTRUM>  (5490) 
27 18
29 29
39 70
40 25
41 116
43 253
44 40
45 37
49 3
50 35
51 199
52 35
53 86
55 41
57 76
60 23
63 36
64 36
65 83
66 26
67 13
69 53
75 50
76 108
77 589
78 138
79 21
81 15
83 1
85 0
86 24
87 14
88 17
89 89
90 23
91 123
92 6
96 18
102 84
103 84
104 60
105 999
106 298
107 29
108 27
109 14
114 4
115 143
116 48
117 57
118 26
119 70
120 10
121 26
122 4
123 1
127 35
128 50
129 48
130 15
131 19
132 26
133 20
134 19
135 27
137 14
139 26
140 4
141 59
145 70
146 38
147 82
148 26
149 19
151 19
153 31
155 44
156 17
157 31
158 7
159 51
160 30
161 33
165 47
166 22
167 29
168 9
169 22
170 1
171 9
172 30
173 64
174 103
175 54
176 67
177 3
179 6
180 15
181 30
182 45
183 26
184 16
185 6
187 159
188 69
189 67
190 2
195 20
196 44
197 9
202 45
203 37
204 25
205 30
206 3
207 55
209 0
211 11
215 5
221 1
223 3
224 41
225 14
238 18
246 22
248 8
251 82
252 85
253 69
265 51
266 50
267 28
268 10
275 3
277 0
279 62
280 74
281 61
289 35
290 13
291 18
292 7
293 48
305 48
307 76
308 28
310 11
321 92
322 45
323 4
327 38
335 6
370 75
371 84
383 257
384 234
385 112
386 12
389 21
406 8
407 22
408 13
409 60
411 98
412 17
424 42
425 139
426 682
427 210
428 130
429 25

$$$$

     RDKit          2D

 18 18  0  0  0  0  0  0  0  0999 V2000
    7.4125   -2.2267    0.0000 C   0  0  0  0  0  0  0  0  0  0  0  0
   -4.8347    2.0532    0.0000 C   0  0  0  0  0  0  0  0  0  0  0  0
   -6.8864    1.5142    0.0000 C   0  0  0  0  0  0  0  0  0  0  0  0
   -6.3475   -0.5375    0.0000 C   0  0  0  0  0  0  0  0  0  0  0  0
    6.1073   -1.4875    0.0000 C   0  0  0  0  0  0  0  0  0  0  0  0
    4.8145   -2.2482    0.0000 C   0  0  0  0  0  0  0  0  0  0  0  0
   -0.3987    0.7386    0.0000 C   0  0  0  0  0  0  0  0  0  0  0  0
   -1.7122   -1.4862    0.0000 C   0  0  0  0  0  0  0  0  0  0  0  0
    0.8858    0.0138    0.0000 C   0  0  0  0  0  0  0  0  0  0  0  0
   -0.3877   -2.2803    0.0000 C   0  0  0  0  0  0  0  0  0  0  0  0
    3.5093   -1.5089    0.0000 C   0  0  0  0  0  0  0  0  0  0  0  0
   -1.6977   -0.0114    0.0000 C   0  0  0  0  0  0  0  0  0  0  0  0
    0.9113   -1.5303    0.0000 C   0  0  0  0  0  0  0  0  0  0  0  0
   -2.9930    0.7450    0.0000 C   0  0  0  0  0  0  0  0  0  0  0  0
   -2.9857    2.2450    0.0000 O   0  0  0  0  0  0  0  0  0  0  0  0
    2.2165   -2.2696    0.0000 O   0  0  0  0  0  0  0  0  0  0  0  0
   -4.2958    0.0014    0.0000 O   0  0  0  0  0  0  0  0  0  0  0  0
   -5.5911    0.7578    0.0000 Si  0  0  0  0  0  4  0  0  0  0  0  0
  5  1  1  0
  6  5  1  0
  9  7  2  0
 10  8  1  0
 11  6  1  0
 12  7  1  0
 12  8  2  0
 13  9  1  0
 13 10  2  0
 14 12  1  0
 15 14  2  0
 16 11  1  0
 16 13  1  0
 17 14  1  0
 18  2  1  0
 18  3  1  0
 18  4  1  0
 18 17  1  0
M  END
>  <NAME>  (5491) 
4-BUTOXYBENZOIC ACID TRIMETHYLSILYL ESTER

>  <SYNONYMS>  (5491) 
TRIMETHYLSILYL 4-BUTOXYBENZOATE

>  <SPECTRUM TYPE>  (5491) 
MS1

>  <INSTRUMENT TYPE>  (5491) 
EI-B

>  <INSTRUMENT>  (5491) 
JEOL JMS-01-SG

>  <ION MODE>  (5491) 
P

>  <INCHIKEY>  (5491) 
SJNBPQNORONGJJ-UHFFFAOYSA-N

>  <FORMULA>  (5491) 
C14H22O3Si

>  <EXACT MASS>  (5491) 
266.133821094

>  <MW>  (5491) 
266

>  <ID>  (5491) 
JP001117

>  <CONTRIBUTOR>  (5491) 
University of Tokyo Team, {Faculty of Engineering, University of Tokyo

>  <COMMENT>  (5491) 
SMILES=CCCCOc(c1)ccc(c1)C(=O)O[Si](C)(C)C
InChI=InChI=1S/C14H22O3Si/c1-5-6-11-16-13-9-7-12(8-10-13)14(15)17-18(2,3)4/h7-10H,5-6,11H2,1-4H3
computed SMILES=O=C(O[Si](C)(C)C)C1=CC=C(OCCCC)C=C1
accession=JP001117
date=2016.01.19 (Created 2008.10.21, modified 2011.05.06)
author=KOGA M, UNIV. OF OCCUPATIONAL AND ENVIRONMENTAL HEALTH
license=CC BY-NC-SA
exact mass=266.13382
ionization energy=70 eV
ion type=[M]+*
computed spectral entropy=2.360266968975177
computed normalized entropy=0.8165963297029866
SPLASH=splash10-0002-3940000000-e57dab3b63b62ac25a37
submitter=submitter = University of Tokyo Team (Faculty of Engineering, University of Tokyo)
MoNA Rating=3.75

>  <NUM PEAKS>  (5491) 
18

>  <MASS SPECTRAL PEAKS>  (5491) 
57 3.2
65 5.8
73 14.1
75 2.32
77 18
92 5.1
93 10.3
121 4.9
122 5.1
151 34.8
177 10.9
195 99.99
196 12.9
207 34.8
208 4.5
251 7.61
252 12.9
266 22.5

>  <PREDICTED SPECTRUM>  (5491) 
15 0
26 9
27 113
28 26
29 189
38 47
39 161
40 29
41 358
42 96
43 227
44 49
45 246
46 59
47 140
49 0
50 109
51 99
52 58
53 159
54 76
55 251
56 167
57 260
58 86
59 130
60 56
61 113
62 64
63 201
64 214
65 285
66 69
67 76
68 51
69 162
70 74
71 70
72 40
73 495
74 188
75 415
76 212
77 212
78 66
79 117
80 59
81 86
83 30
85 32
89 62
90 52
91 195
92 279
93 187
94 37
95 113
96 74
97 5
102 48
103 198
104 176
105 131
106 37
107 79
108 98
109 63
110 84
111 32
112 4
117 46
118 36
119 101
120 157
121 341
122 209
123 47
128 5
131 78
132 75
133 72
135 162
136 70
137 104
138 130
139 325
140 78
148 24
149 243
150 88
151 197
152 158
153 93
154 105
163 30
164 7
165 105
166 142
167 150
168 68
176 40
177 472
178 146
179 235
180 71
181 103
191 47
192 27
193 293
194 203
195 541
196 203
197 65
205 5
207 340
208 215
209 394
210 307
211 73
223 62
224 41
237 4
249 18
251 999
252 429
253 244
254 66
265 34
266 672
267 302
268 128
269 34

$$$$

     RDKit          2D

 28 28  0  0  1  0  0  0  0  0999 V2000
   -4.6479   -1.7496    0.0000 C   0  0  0  0  0  0  0  0  0  0  0  0
   -5.1972    0.2994    0.0000 C   0  0  0  0  0  0  0  0  0  0  0  0
   -3.1483    0.8487    0.0000 C   0  0  0  0  0  0  0  0  0  0  0  0
    4.6479   -1.7496    0.0000 C   0  0  0  0  0  0  0  0  0  0  0  0
    5.1972    0.2994    0.0000 C   0  0  0  0  0  0  0  0  0  0  0  0
    3.1483    0.8487    0.0000 C   0  0  0  0  0  0  0  0  0  0  0  0
   -2.0490   -2.1510    0.0000 C   0  0  0  0  0  0  0  0  0  0  0  0
   -2.5981   -4.2000    0.0000 C   0  0  0  0  0  0  0  0  0  0  0  0
   -0.5490   -4.7490    0.0000 C   0  0  0  0  0  0  0  0  0  0  0  0
    0.2010    5.5500    0.0000 C   0  0  0  0  0  0  0  0  0  0  0  0
   -1.2990    7.0500    0.0000 C   0  0  0  0  0  0  0  0  0  0  0  0
   -2.7990    5.5500    0.0000 C   0  0  0  0  0  0  0  0  0  0  0  0
   -1.3000    1.0500    0.0000 C   0  0  0  0  0  0  0  0  0  0  0  0
    1.3000    1.0500    0.0000 C   0  0  0  0  0  0  0  0  0  0  0  0
    0.0000    1.8000    0.0000 C   0  0  0  0  0  0  0  0  0  0  0  0
   -1.3000   -0.4500    0.0000 C   0  0  0  0  0  0  0  0  0  0  0  0
    1.3000   -0.4500    0.0000 C   0  0  0  0  0  0  0  0  0  0  0  0
    0.0000   -1.2000    0.0000 C   0  0  0  0  0  0  0  0  0  0  0  0
    0.0000    3.3000    0.0000 C   0  0  0  0  0  0  0  0  0  0  0  0
    1.2990    4.0500    0.0000 O   0  0  0  0  0  0  0  0  0  0  0  0
   -2.5989   -1.2002    0.0000 O   0  0  0  0  0  0  0  0  0  0  0  0
    2.5989   -1.2002    0.0000 O   0  0  0  0  0  0  0  0  0  0  0  0
   -0.0000   -2.7000    0.0000 O   0  0  0  0  0  0  0  0  0  0  0  0
   -1.2990    4.0500    0.0000 O   0  0  0  0  0  0  0  0  0  0  0  0
   -3.8981   -0.4504    0.0000 Si  0  0  0  0  0  4  0  0  0  0  0  0
    3.8981   -0.4504    0.0000 Si  0  0  0  0  0  4  0  0  0  0  0  0
   -1.2990   -3.4500    0.0000 Si  0  0  0  0  0  4  0  0  0  0  0  0
   -1.2990    5.5500    0.0000 Si  0  0  0  0  0  4  0  0  0  0  0  0
 15 13  2  0
 15 14  1  0
 16 13  1  0
 17 14  1  0
 18 16  1  0
 18 17  1  0
 19 15  1  0
 20 19  2  0
 16 21  1  1
 17 22  1  6
 18 23  1  1
 24 19  1  0
 25  1  1  0
 25  2  1  0
 25  3  1  0
 25 21  1  0
 26  4  1  0
 26  5  1  0
 26  6  1  0
 26 22  1  0
 27  7  1  0
 27  8  1  0
 27  9  1  0
 27 23  1  0
 28 10  1  0
 28 11  1  0
 28 12  1  0
 28 24  1  0
M  END
>  <NAME>  (5492) 
3ALPHA,4ALPHA,5BETA-TRI(TRIMETHYLSILYLOXY)-1-CYCLOHEXENE-1-CARBOXYLIC ACID TRIMETHYLSILYL ESTER

>  <SYNONYMS>  (5492) 
TRIMETHYLSILYL 3ALPHA,4ALPHA,5BETA-TRI(TRIMETHYLSILOXY)-1-CYCLOHEXENE-1-CARBOXYLATE

>  <SPECTRUM TYPE>  (5492) 
MS1

>  <INSTRUMENT TYPE>  (5492) 
EI-B

>  <INSTRUMENT>  (5492) 
JEOL JMS-01-SG

>  <ION MODE>  (5492) 
P

>  <INCHIKEY>  (5492) 
LMFAUEGOCMAFIW-BZSNNMDCSA-N

>  <FORMULA>  (5492) 
C19H42O5Si4

>  <EXACT MASS>  (5492) 
462.210930564

>  <MW>  (5492) 
462

>  <ID>  (5492) 
JP001096

>  <CONTRIBUTOR>  (5492) 
University of Tokyo Team, {Faculty of Engineering, University of Tokyo

>  <COMMENT>  (5492) 
SMILES=C[Si](C)(C)OC(=O)C(C1)=CC(O[Si](C)(C)C)C(O[Si](C)(C)C)C(O[Si](C)(C)C)1
InChI=InChI=1S/C19H42O5Si4/c1-25(2,3)21-16-13-15(19(20)24-28(10,11)12)14-17(22-26(4,5)6)18(16)23-27(7,8)9/h13,16-18H,14H2,1-12H3/t16-,17-,18-/m0/s1
computed SMILES=O=C(O[Si](C)(C)C)C1=CC(O[Si](C)(C)C)C(O[Si](C)(C)C)C(O[Si](C)(C)C)C1
accession=JP001096
date=2016.01.19 (Created 2008.10.21, modified 2011.05.06)
author=KOGA M, UNIV. OF OCCUPATIONAL AND ENVIRONMENTAL HEALTH
license=CC BY-NC-SA
exact mass=462.21093
ionization energy=70 eV
ion type=[M]+*
computed spectral entropy=2.5161820972299003
computed normalized entropy=0.8140237913899083
SPLASH=splash10-052b-4980000000-3d3f2102d2032dcab880
submitter=submitter = University of Tokyo Team (Faculty of Engineering, University of Tokyo)
MoNA Rating=3.75

>  <NUM PEAKS>  (5492) 
22

>  <MASS SPECTRAL PEAKS>  (5492) 
45 38.3
73 15
74 33.5
75 3.15
103 6.8
133 17.1
147 99.99
148 1.5
149 9.5
189 24.6
191 10.9
193 0.82
204 7.5
205 73.9
206 32.1
254 1.43
255 22.6
282 9.5
283 6.1
357 1.3
372 11.6
373 4.7

>  <PREDICTED SPECTRUM>  (5492) 
14 1
15 3
18 11
26 11
27 57
28 34
29 66
30 12
31 52
38 2
39 83
40 45
41 145
42 84
43 195
44 107
45 335
46 106
47 149
48 25
49 45
50 13
51 21
52 41
53 77
54 48
55 116
56 78
57 145
58 84
59 225
60 100
61 109
62 18
63 21
64 18
65 12
66 119
67 77
68 84
69 87
70 75
71 99
72 176
73 999
74 295
75 428
76 103
77 104
78 11
79 73
80 28
81 76
82 60
83 59
84 23
85 94
87 63
88 35
89 45
91 76
93 65
94 7
95 81
96 19
97 78
98 54
99 88
100 45
101 136
102 49
103 219
104 39
105 48
106 1
107 38
109 69
111 106
112 21
113 65
114 4
115 119
116 139
117 140
118 41
119 55
120 9
121 27
122 14
123 42
125 101
126 37
127 35
128 2
129 213
130 123
131 224
132 46
133 331
134 85
135 84
137 26
138 31
139 39
140 39
141 95
142 64
143 250
144 74
145 41
146 21
147 723
148 303
149 203
150 81
151 54
152 21
153 40
154 43
155 116
156 42
157 129
158 60
159 50
161 22
163 69
164 24
165 101
166 55
167 65
168 105
169 83
170 74
171 80
172 43
173 49
174 31
175 16
177 98
178 18
179 61
180 31
181 59
182 24
183 118
184 64
185 106
186 35
187 17
188 33
189 92
190 46
191 422
192 157
193 153
194 107
195 109
196 25
197 26
198 36
199 110
200 119
201 74
202 30
203 30
204 130
205 78
206 39
207 136
208 17
209 47
210 48
211 60
212 31
213 141
214 96
215 120
216 71
217 369
218 86
219 105
220 21
221 141
222 17
223 28
224 25
225 55
226 30
227 140
228 100
229 68
230 199
231 86
232 55
233 13
239 70
240 41
241 163
242 79
243 97
244 39
245 129
246 54
247 55
248 14
249 18
253 46
254 125
255 225
256 219
257 157
258 109
259 61
263 31
264 17
267 167
268 99
269 41
270 6
271 14
273 73
282 192
283 182
284 44
285 63
288 3
289 51
292 7
299 32
300 105
301 96
302 32
303 95
304 48
313 27
314 38
315 35
316 56
319 6
320 2
327 13
328 69
329 205
330 127
331 156
332 70
344 66
345 258
346 198
347 117
348 69
349 35
357 269
358 159
359 151
360 51
361 65
371 1
372 232
373 165
374 113
375 66
376 35
377 26
392 5
403 35
405 21
419 15
420 2
445 7
447 317
448 171
449 90
462 24
463 70
465 11

$$$$

     RDKit          2D

 33 33  0  0  0  0  0  0  0  0999 V2000
   -8.1546    1.7841    0.0000 C   0  0  0  0  0  0  0  0  0  0  0  0
   -8.7036   -0.2650    0.0000 C   0  0  0  0  0  0  0  0  0  0  0  0
   -6.6546   -0.8140    0.0000 C   0  0  0  0  0  0  0  0  0  0  0  0
    2.1994    5.3287    0.0000 C   0  0  0  0  0  0  0  0  0  0  0  0
    1.4383    7.3088    0.0000 C   0  0  0  0  0  0  0  0  0  0  0  0
   -0.5418    6.5477    0.0000 C   0  0  0  0  0  0  0  0  0  0  0  0
   -1.5394   -3.0762    0.0000 C   0  0  0  0  0  0  0  0  0  0  0  0
    0.2426   -4.2272    0.0000 C   0  0  0  0  0  0  0  0  0  0  0  0
    1.3935   -2.4452    0.0000 C   0  0  0  0  0  0  0  0  0  0  0  0
    2.5763    1.1470    0.0000 C   0  0  0  0  0  0  0  0  0  0  0  0
    4.2254    2.4813    0.0000 C   0  0  0  0  0  0  0  0  0  0  0  0
    2.8912    4.1305    0.0000 C   0  0  0  0  0  0  0  0  0  0  0  0
   -3.3417    2.7279    0.0000 C   0  0  0  0  0  0  0  0  0  0  0  0
   -3.5075    1.2350    0.0000 C   0  0  0  0  0  0  0  0  0  0  0  0
   -1.8819    3.0396    0.0000 C   0  0  0  0  0  0  0  0  0  0  0  0
   -2.1317    0.6321    0.0000 C   0  0  0  0  0  0  0  0  0  0  0  0
   -1.1319    1.7405    0.0000 C   0  0  0  0  0  0  0  0  0  0  0  0
   -4.8065    0.4850    0.0000 C   0  0  0  0  0  0  0  0  0  0  0  0
   -1.2724    4.4101    0.0000 C   0  0  0  0  0  0  0  0  0  0  0  0
   -1.8162   -0.8343    0.0000 C   0  0  0  0  0  0  0  0  0  0  0  0
    0.3598    1.5831    0.0000 C   0  0  0  0  0  0  0  0  0  0  0  0
   -4.8065   -1.0150    0.0000 O   0  0  0  0  0  0  0  0  0  0  0  0
   -2.1546    5.6233    0.0000 O   0  0  0  0  0  0  0  0  0  0  0  0
   -2.9284   -1.8408    0.0000 O   0  0  0  0  0  0  0  0  0  0  0  0
    0.9693    0.2125    0.0000 O   0  0  0  0  0  0  0  0  0  0  0  0
   -6.1055    1.2350    0.0000 O   0  0  0  0  0  0  0  0  0  0  0  0
    0.2193    4.5676    0.0000 O   0  0  0  0  0  0  0  0  0  0  0  0
   -0.3884   -1.2943    0.0000 O   0  0  0  0  0  0  0  0  0  0  0  0
    1.2420    2.7962    0.0000 O   0  0  0  0  0  0  0  0  0  0  0  0
   -7.4046    0.4850    0.0000 Si  0  0  0  0  0  4  0  0  0  0  0  0
    0.8288    5.9382    0.0000 Si  0  0  0  0  0  4  0  0  0  0  0  0
   -0.0729   -2.7607    0.0000 Si  0  0  0  0  0  4  0  0  0  0  0  0
    2.7337    2.6387    0.0000 Si  0  0  0  0  0  4  0  0  0  0  0  0
 14 13  1  0
 15 13  1  0
 16 14  1  0
 17 15  1  0
 17 16  1  0
 18 14  1  0
 19 15  1  0
 20 16  1  0
 21 17  1  0
 22 18  2  0
 23 19  2  0
 24 20  2  0
 25 21  2  0
 26 18  1  0
 27 19  1  0
 28 20  1  0
 29 21  1  0
 30  1  1  0
 30  2  1  0
 30  3  1  0
 30 26  1  0
 31  4  1  0
 31  5  1  0
 31  6  1  0
 31 27  1  0
 32  7  1  0
 32  8  1  0
 32  9  1  0
 32 28  1  0
 33 10  1  0
 33 11  1  0
 33 12  1  0
 33 29  1  0
M  END
>  <NAME>  (5493) 
1,2,3,4-CYCLOPENTANETETRACARBOXYLIC ACID TETRA(TRIMETHYLSILYL) ESTER

>  <SYNONYMS>  (5493) 
TETRA(TRIMETHYLSILYL) 1,2,3,4-CYCLOPENTANETETRACARBOXYLATE

>  <SPECTRUM TYPE>  (5493) 
MS1

>  <INSTRUMENT TYPE>  (5493) 
EI-B

>  <INSTRUMENT>  (5493) 
JEOL JMS-01-SG

>  <ION MODE>  (5493) 
P

>  <INCHIKEY>  (5493) 
ZZWJSMOLYCPOFX-UHFFFAOYSA-N

>  <FORMULA>  (5493) 
C21H42O8Si4

>  <EXACT MASS>  (5493) 
534.195674424

>  <MW>  (5493) 
534

>  <ID>  (5493) 
JP001086

>  <CONTRIBUTOR>  (5493) 
University of Tokyo Team, {Faculty of Engineering, University of Tokyo

>  <COMMENT>  (5493) 
SMILES=C[Si](C)(C)OC(=O)C(C1)C(C(=O)O[Si](C)(C)C)C(C(=O)O[Si](C)(C)C)C(C(=O)O[Si](C)(C)C)1
InChI=InChI=1S/C21H42O8Si4/c1-30(2,3)26-18(22)14-13-15(19(23)27-31(4,5)6)17(21(25)29-33(10,11)12)16(14)20(24)28-32(7,8)9/h14-17H,13H2,1-12H3
computed SMILES=O=C(O[Si](C)(C)C)C1CC(C(=O)O[Si](C)(C)C)C(C(=O)O[Si](C)(C)C)C1C(=O)O[Si](C)(C)C
accession=JP001086
date=2016.01.19 (Created 2008.10.21, modified 2011.05.06)
author=KOGA M, UNIV. OF OCCUPATIONAL AND ENVIRONMENTAL HEALTH
license=CC BY-NC-SA
exact mass=534.19567
ionization energy=70 eV
ion type=[M]+*
computed spectral entropy=2.593448803555086
computed normalized entropy=0.7960012152156758
SPLASH=splash10-0095-9201000000-17a0d05f0e475ef24937
submitter=submitter = University of Tokyo Team (Faculty of Engineering, University of Tokyo)
MoNA Rating=3.75

>  <NUM PEAKS>  (5493) 
26

>  <MASS SPECTRAL PEAKS>  (5493) 
43 6.8
44 66.6
45 41.6
47 0.98
55 8.3
57 7.5
73 99.99
74 0.98
75 65.9
76 8.3
77 31
78 0.9
93 38.6
95 8.3
147 87.1
148 0.83
149 7.5
217 7.5
221 9
255 1.13
283 12.1
327 8.3
333 8.3
357 1.13
373 28
374 8.3

>  <PREDICTED SPECTRUM>  (5493) 
15 9
18 1
27 8
29 8
41 74
42 2
43 47
44 50
45 198
46 62
47 72
52 20
53 54
54 43
55 249
56 98
57 98
58 58
59 69
60 46
61 77
62 4
65 14
66 45
67 29
68 30
69 65
70 140
71 60
72 151
73 999
74 290
75 434
76 76
77 80
78 20
79 43
81 89
82 50
83 79
84 107
85 98
86 24
87 62
88 82
89 20
91 57
93 63
94 2
95 35
96 50
97 106
98 75
99 86
100 39
101 71
103 76
105 55
107 55
109 25
110 2
111 38
112 39
113 87
114 35
115 132
116 24
117 65
119 69
121 31
122 9
123 56
124 3
125 38
126 75
127 53
128 43
129 100
130 18
131 116
132 18
133 157
135 43
136 25
137 34
138 6
139 60
140 76
141 70
142 83
143 126
144 35
145 67
146 55
147 605
148 315
149 285
150 54
151 48
152 18
153 83
154 7
155 46
156 3
157 35
158 23
159 59
160 19
161 33
162 16
163 58
164 53
165 67
167 91
168 65
169 30
170 43
171 67
172 34
173 64
174 46
175 56
176 37
178 68
179 53
180 33
181 56
182 4
183 63
184 79
185 36
186 15
188 10
189 78
190 29
191 36
192 5
193 42
197 23
199 37
201 10
203 54
205 28
207 7
209 2
211 106
212 36
213 58
214 25
215 20
216 48
217 115
219 13
221 27
225 15
226 5
228 3
229 52
230 11
231 72
241 23
243 73
244 62
245 85
246 52
248 30
249 8
253 11
254 11
255 124
256 22
257 84
258 26
259 20
261 27
263 22
265 30
271 77
272 106
273 16
277 10
279 6
281 68
282 29
283 32
285 77
286 6
287 10
295 28
297 24
299 121
313 83
321 14
323 6
325 4
326 74
327 231
328 100
329 78
330 4
331 20
334 76
335 6
336 3
338 30
339 1
340 16
345 134
346 35
348 56
349 50
350 18
354 44
355 92
356 24
357 100
359 73
369 26
371 12
372 92
373 159
374 122
375 159
376 112
385 25
387 52
388 18
391 24
400 34
401 55
402 36
403 6
415 27
416 88
417 57
429 96
430 6
444 156
445 10
449 46
461 7
474 63
475 43
476 11
477 22
508 11
517 20
519 394
520 51
521 70
522 32
523 12
534 118
535 41
536 13
537 33

$$$$

     RDKit          2D

 33 34  0  0  0  0  0  0  0  0999 V2000
    5.2198    3.1698    0.0000 C   0  0  0  0  0  0  0  0  0  0  0  0
   11.5130   -1.5212    0.0000 C   0  0  0  0  0  0  0  0  0  0  0  0
   12.0451    0.5323    0.0000 C   0  0  0  0  0  0  0  0  0  0  0  0
    9.9916    1.0644    0.0000 C   0  0  0  0  0  0  0  0  0  0  0  0
    2.3007    7.5524    0.0000 C   0  0  0  0  0  0  0  0  0  0  0  0
    1.3884    9.4676    0.0000 C   0  0  0  0  0  0  0  0  0  0  0  0
   -0.5267    8.5552    0.0000 C   0  0  0  0  0  0  0  0  0  0  0  0
   -2.9925    2.6102    0.0000 C   0  0  0  0  0  0  0  0  0  0  0  0
   -3.5516    0.5639    0.0000 C   0  0  0  0  0  0  0  0  0  0  0  0
   -1.5053    0.0048    0.0000 C   0  0  0  0  0  0  0  0  0  0  0  0
    6.8443    2.0191    0.0000 C   0  0  0  0  0  0  0  0  0  0  0  0
    5.5307   -0.2057    0.0000 C   0  0  0  0  0  0  0  0  0  0  0  0
    1.8142    2.9188    0.0000 C   0  0  0  0  0  0  0  0  0  0  0  0
    3.8095    4.5602    0.0000 C   0  0  0  0  0  0  0  0  0  0  0  0
    8.1288    1.2943    0.0000 C   0  0  0  0  0  0  0  0  0  0  0  0
    6.8553   -0.9999    0.0000 C   0  0  0  0  0  0  0  0  0  0  0  0
    0.8551    4.0393    0.0000 C   0  0  0  0  0  0  0  0  0  0  0  0
    2.8365    5.7595    0.0000 C   0  0  0  0  0  0  0  0  0  0  0  0
    1.6519    2.0383    0.0000 C   0  0  0  0  0  0  0  0  0  0  0  0
    2.9472    1.2819    0.0000 C   0  0  0  0  0  0  0  0  0  0  0  0
    5.5453    1.2691    0.0000 C   0  0  0  0  0  0  0  0  0  0  0  0
    3.2914    3.1793    0.0000 C   0  0  0  0  0  0  0  0  0  0  0  0
    8.1543   -0.2499    0.0000 C   0  0  0  0  0  0  0  0  0  0  0  0
    1.3592    5.4990    0.0000 C   0  0  0  0  0  0  0  0  0  0  0  0
    0.3492    1.2947    0.0000 C   0  0  0  0  0  0  0  0  0  0  0  0
    4.2499    2.0255    0.0000 C   0  0  0  0  0  0  0  0  0  0  0  0
    0.3418   -0.2053    0.0000 O   0  0  0  0  0  0  0  0  0  0  0  0
    9.4595   -0.9891    0.0000 O   0  0  0  0  0  0  0  0  0  0  0  0
    0.3856    6.6401    0.0000 O   0  0  0  0  0  0  0  0  0  0  0  0
   -0.9462    2.0511    0.0000 O   0  0  0  0  0  0  0  0  0  0  0  0
   10.7523   -0.2284    0.0000 Si  0  0  0  0  0  4  0  0  0  0  0  0
    0.8870    8.0538    0.0000 Si  0  0  0  0  0  4  0  0  0  0  0  0
   -2.2489    1.3075    0.0000 Si  0  0  0  0  0  4  0  0  0  0  0  0
 15 11  2  0
 16 12  1  0
 17 13  2  0
 18 14  1  0
 20 19  1  0
 21 11  1  0
 21 12  2  0
 22 13  1  0
 22 14  2  0
 23 15  1  0
 23 16  2  0
 24 17  1  0
 24 18  2  0
 25 19  1  0
 26  1  1  0
 26 20  1  0
 26 21  1  0
 26 22  1  0
 27 25  2  0
 28 23  1  0
 29 24  1  0
 30 25  1  0
 31  2  1  0
 31  3  1  0
 31  4  1  0
 31 28  1  0
 32  5  1  0
 32  6  1  0
 32  7  1  0
 32 29  1  0
 33  8  1  0
 33  9  1  0
 33 10  1  0
 33 30  1  0
M  END
>  <NAME>  (5494) 
4,4-BIS(PARA-(TRIMETHYLSILYL)OXY-PHENYL)-VALERIC ACID TRIMETHYLSILYL ESTER

>  <SYNONYMS>  (5494) 
TRIMETHYLSILYL 4,4-BIS(PARA-TRIMETHYLSILOXYPHENYL)PENTANOATE

>  <SPECTRUM TYPE>  (5494) 
MS1

>  <INSTRUMENT TYPE>  (5494) 
EI-B

>  <INSTRUMENT>  (5494) 
JEOL JMS-01-SG

>  <ION MODE>  (5494) 
P

>  <INCHIKEY>  (5494) 
HPGZDRRKNPSYSR-UHFFFAOYSA-N

>  <FORMULA>  (5494) 
C26H42O4Si3

>  <EXACT MASS>  (5494) 
502.239089414

>  <MW>  (5494) 
502

>  <ID>  (5494) 
JP001085

>  <CONTRIBUTOR>  (5494) 
University of Tokyo Team, {Faculty of Engineering, University of Tokyo

>  <COMMENT>  (5494) 
SMILES=c(O[Si](C)(C)C)(c2)ccc(c2)C(CCC(=O)O[Si](C)(C)C)(c(c1)ccc(O[Si](C)(C)C)c1)C
InChI=InChI=1S/C26H42O4Si3/c1-26(20-19-25(27)30-33(8,9)10,21-11-15-23(16-12-21)28-31(2,3)4)22-13-17-24(18-14-22)29-32(5,6)7/h11-18H,19-20H2,1-10H3
computed SMILES=O=C(O[Si](C)(C)C)CCC(C1=CC=C(O[Si](C)(C)C)C=C1)(C2=CC=C(O[Si](C)(C)C)C=C2)C
accession=JP001085
date=2016.01.19 (Created 2008.10.21, modified 2011.05.06)
author=KOGA M, UNIV. OF OCCUPATIONAL AND ENVIRONMENTAL HEALTH
license=CC BY-NC-SA
exact mass=502.23909
ionization energy=70 eV
ion type=[M]+*
computed spectral entropy=1.8065734036070524
computed normalized entropy=0.6671122281528439
SPLASH=splash10-0a4i-3009000000-6228a9a7bd937e9eb574
submitter=submitter = University of Tokyo Team (Faculty of Engineering, University of Tokyo)
MoNA Rating=3.75

>  <NUM PEAKS>  (5494) 
15

>  <MASS SPECTRAL PEAKS>  (5494) 
44 20.4
45 4.2
73 23.8
74 0.3
75 4
135 3.1
191 7
193 0.35
219 2.7
321 6.2
357 99.99
358 3.95
359 19.1
369 3.1
487 5

>  <PREDICTED SPECTRUM>  (5494) 
27 20
41 38
43 43
44 65
45 180
46 36
47 11
51 13
55 42
56 5
57 12
58 10
59 68
60 9
61 37
65 8
69 32
71 28
73 999
74 277
75 306
76 36
77 117
78 31
79 14
81 21
83 45
84 21
85 31
86 15
89 37
90 25
91 90
92 68
93 60
95 49
96 20
97 77
99 22
104 17
105 58
106 9
107 99
108 15
111 3
115 30
116 19
117 50
118 21
119 82
121 46
123 37
127 3
131 73
132 5
133 57
134 0
135 136
136 101
137 74
141 0
143 48
144 17
145 32
146 41
147 169
148 35
149 108
150 57
151 79
152 23
153 22
155 37
157 79
159 32
160 22
161 48
162 32
163 92
164 55
165 105
166 11
167 51
168 57
169 71
170 12
171 38
175 32
176 34
177 150
178 57
179 172
180 55
181 50
182 13
183 66
184 28
185 71
186 54
188 9
189 15
190 44
191 63
192 122
193 192
194 269
195 127
196 44
197 65
198 19
199 13
201 4
203 11
205 39
206 44
207 188
208 220
209 109
210 89
211 40
212 34
213 72
214 24
215 71
216 89
217 76
218 23
219 9
220 43
221 64
222 45
223 107
224 59
225 70
231 29
233 28
234 9
235 76
236 37
237 99
238 61
239 121
240 38
241 2
244 0
247 27
248 57
249 87
250 59
251 93
252 67
253 126
254 79
255 65
257 11
263 19
265 124
266 64
267 140
268 72
269 23
279 62
280 81
281 227
282 178
283 104
284 2
285 23
287 22
291 14
293 48
294 36
295 158
296 128
297 72
298 28
299 2
305 23
306 35
307 130
308 53
309 68
310 58
311 53
312 20
314 15
322 68
323 164
324 126
325 121
326 76
327 62
329 3
339 35
340 3
341 73
353 6
354 49
355 18
356 83
357 46
371 75
372 55
373 3
382 4
383 34
384 109
385 55
397 82
398 1
413 8
430 10
473 67
474 105
475 99
476 5
487 380
488 201
489 115
490 31
502 313
503 223
504 125
505 27

$$$$

     RDKit          2D

 33 32  0  0  0  0  0  0  0  0999 V2000
    7.7942   14.2500    0.0000 C   0  0  0  0  0  0  0  0  0  0  0  0
  -20.2356   13.2990    0.0000 C   0  0  0  0  0  0  0  0  0  0  0  0
  -20.7846   11.2500    0.0000 C   0  0  0  0  0  0  0  0  0  0  0  0
  -18.7356   10.7010    0.0000 C   0  0  0  0  0  0  0  0  0  0  0  0
  -21.3336   16.2990    0.0000 C   0  0  0  0  0  0  0  0  0  0  0  0
  -23.3827   15.7500    0.0000 C   0  0  0  0  0  0  0  0  0  0  0  0
  -22.8336   13.7010    0.0000 C   0  0  0  0  0  0  0  0  0  0  0  0
    6.4952   15.0000    0.0000 C   0  0  0  0  0  0  0  0  0  0  0  0
    5.1962   14.2500    0.0000 C   0  0  0  0  0  0  0  0  0  0  0  0
    3.8971   15.0000    0.0000 C   0  0  0  0  0  0  0  0  0  0  0  0
    2.5981   14.2500    0.0000 C   0  0  0  0  0  0  0  0  0  0  0  0
    1.2990   15.0000    0.0000 C   0  0  0  0  0  0  0  0  0  0  0  0
    0.0000   14.2500    0.0000 C   0  0  0  0  0  0  0  0  0  0  0  0
   -1.2990   15.0000    0.0000 C   0  0  0  0  0  0  0  0  0  0  0  0
   -2.5981   14.2500    0.0000 C   0  0  0  0  0  0  0  0  0  0  0  0
   -3.8971   15.0000    0.0000 C   0  0  0  0  0  0  0  0  0  0  0  0
   -5.1962   14.2500    0.0000 C   0  0  0  0  0  0  0  0  0  0  0  0
   -6.4952   15.0000    0.0000 C   0  0  0  0  0  0  0  0  0  0  0  0
   -7.7942   14.2500    0.0000 C   0  0  0  0  0  0  0  0  0  0  0  0
   -9.0933   15.0000    0.0000 C   0  0  0  0  0  0  0  0  0  0  0  0
  -10.3923   14.2500    0.0000 C   0  0  0  0  0  0  0  0  0  0  0  0
  -11.6913   15.0000    0.0000 C   0  0  0  0  0  0  0  0  0  0  0  0
  -12.9904   14.2500    0.0000 C   0  0  0  0  0  0  0  0  0  0  0  0
  -14.2894   15.0000    0.0000 C   0  0  0  0  0  0  0  0  0  0  0  0
  -15.5885   14.2500    0.0000 C   0  0  0  0  0  0  0  0  0  0  0  0
  -16.8875   15.0000    0.0000 C   0  0  0  0  0  0  0  0  0  0  0  0
  -18.1865   14.2500    0.0000 C   0  0  0  0  0  0  0  0  0  0  0  0
  -19.4856   15.0000    0.0000 C   0  0  0  0  0  0  0  0  0  0  0  0
  -19.4856   16.5000    0.0000 O   0  0  0  0  0  0  0  0  0  0  0  0
  -18.1865   12.7500    0.0000 O   0  0  0  0  0  0  0  0  0  0  0  0
  -20.7846   14.2500    0.0000 O   0  0  0  0  0  0  0  0  0  0  0  0
  -19.4856   12.0000    0.0000 Si  0  0  0  0  0  4  0  0  0  0  0  0
  -22.0836   15.0000    0.0000 Si  0  0  0  0  0  4  0  0  0  0  0  0
  8  1  1  0
  9  8  1  0
 10  9  1  0
 11 10  1  0
 12 11  1  0
 13 12  1  0
 14 13  1  0
 15 14  1  0
 16 15  1  0
 17 16  1  0
 18 17  1  0
 19 18  1  0
 20 19  1  0
 21 20  1  0
 22 21  1  0
 23 22  1  0
 24 23  1  0
 25 24  1  0
 26 25  1  0
 27 26  1  0
 28 27  1  0
 29 28  2  0
 30 27  1  0
 31 28  1  0
 32  2  1  0
 32  3  1  0
 32  4  1  0
 32 30  1  0
 33  5  1  0
 33  6  1  0
 33  7  1  0
 33 31  1  0
M  END
>  <NAME>  (5495) 
2-(TRIMETHYLSILYL)OXY-DOCOSANOIC ACID TRIMETHYLSILYL ESTER

>  <SYNONYMS>  (5495) 
TRIMETHYLSILYL 2-TRIMETHYLSILOXYDOCOSANOATE

>  <SPECTRUM TYPE>  (5495) 
MS1

>  <INSTRUMENT TYPE>  (5495) 
EI-B

>  <INSTRUMENT>  (5495) 
JEOL JMS-01-SG

>  <ION MODE>  (5495) 
P

>  <INCHIKEY>  (5495) 
RSDJSUMKDHUJPY-UHFFFAOYSA-N

>  <FORMULA>  (5495) 
C28H60O3Si2

>  <EXACT MASS>  (5495) 
500.40809884

>  <MW>  (5495) 
500

>  <ID>  (5495) 
JP001084

>  <CONTRIBUTOR>  (5495) 
University of Tokyo Team, {Faculty of Engineering, University of Tokyo

>  <COMMENT>  (5495) 
computed SMILES=O=C(O[Si](C)(C)C)C(O[Si](C)(C)C)CCCCCCCCCCCCCCCCCCCC
SMILES=C[Si](C)(C)OC(=O)C(CCCCCCCCCCCCCCCCCCCC)O[Si](C)(C)C
InChI=InChI=1S/C28H60O3Si2/c1-8-9-10-11-12-13-14-15-16-17-18-19-20-21-22-23-24-25-26-27(30-32(2,3)4)28(29)31-33(5,6)7/h27H,8-26H2,1-7H3
accession=JP001084
date=2016.01.19 (Created 2008.10.21, modified 2011.05.06)
author=KOGA M, UNIV. OF OCCUPATIONAL AND ENVIRONMENTAL HEALTH
license=CC BY-NC-SA
exact mass=500.4081
ionization energy=70 eV
ion type=[M]+*
computed spectral entropy=2.749894942272376
computed normalized entropy=0.8166478625916933
SPLASH=splash10-001i-9407000000-4ec6dcdafcd1e6c52c76
submitter=submitter = University of Tokyo Team (Faculty of Engineering, University of Tokyo)
MoNA Rating=3.75

>  <NUM PEAKS>  (5495) 
29

>  <MASS SPECTRAL PEAKS>  (5495) 
43 12.2
44 1.6
55 14.4
57 2.58
67 5
69 15.2
71 15.2
73 5.67
75 22
77 2.1
81 5
82 0.5
83 23.3
85 11
91 9.7
95 0.88
96 4.6
97 23.7
103 19.9
111 1.39
129 13.9
147 37.7
148 5
149 0.5
383 99.99
384 29.2
385 7.2
457 0.46
485 5.5

>  <PREDICTED SPECTRUM>  (5495) 
29 56
39 2
40 30
41 174
42 60
43 151
44 120
45 151
47 44
52 7
53 20
55 217
56 19
57 93
58 13
59 102
60 46
61 10
66 15
67 163
68 61
69 160
70 40
71 162
73 672
74 148
75 267
76 17
77 125
78 2
79 60
81 174
82 26
83 190
84 25
85 74
86 41
87 7
89 11
91 45
93 43
95 110
96 17
97 117
98 29
99 40
101 68
102 14
103 72
105 13
107 3
109 79
110 16
111 63
113 17
114 6
115 18
117 40
118 11
119 77
128 1
129 245
130 82
131 89
133 111
134 58
135 60
141 2
142 14
143 99
144 41
145 25
146 45
147 424
148 184
149 148
151 18
154 47
155 8
156 4
157 50
158 41
159 21
161 28
163 45
165 73
166 3
167 47
169 23
171 37
175 11
181 3
183 41
185 6
190 69
191 40
192 1
193 6
195 24
199 23
203 65
204 47
205 46
207 28
211 17
221 100
222 113
223 75
224 252
231 3
234 3
235 16
236 75
237 38
239 10
240 0
249 41
251 79
252 27
263 13
265 42
266 30
267 30
268 11
274 6
275 13
276 32
277 43
279 23
280 1
293 80
294 38
295 159
373 1
381 18
383 999
384 460
385 186
386 23
397 19
457 158
458 27
485 143
486 99
487 26
500 15

$$$$

     RDKit          2D

 29 29  0  0  0  0  0  0  0  0999 V2000
   -4.3873    5.4205    0.0000 C   0  0  0  0  0  0  0  0  0  0  0  0
   -2.8873    6.9205    0.0000 C   0  0  0  0  0  0  0  0  0  0  0  0
   -1.3873    5.4205    0.0000 C   0  0  0  0  0  0  0  0  0  0  0  0
   -1.3881   -0.5804    0.0000 C   0  0  0  0  0  0  0  0  0  0  0  0
   -2.8883   -2.0802    0.0000 C   0  0  0  0  0  0  0  0  0  0  0  0
   -4.3881   -0.5799    0.0000 C   0  0  0  0  0  0  0  0  0  0  0  0
    2.8579   -2.6286    0.0000 C   0  0  0  0  0  0  0  0  0  0  0  0
    4.9070   -2.0795    0.0000 C   0  0  0  0  0  0  0  0  0  0  0  0
    4.3579   -0.0305    0.0000 C   0  0  0  0  0  0  0  0  0  0  0  0
    6.9560    0.3714    0.0000 C   0  0  0  0  0  0  0  0  0  0  0  0
    7.5050    2.4205    0.0000 C   0  0  0  0  0  0  0  0  0  0  0  0
    5.4560    2.9695    0.0000 C   0  0  0  0  0  0  0  0  0  0  0  0
    1.0103    3.1713    0.0000 C   0  0  0  0  0  0  0  0  0  0  0  0
   -0.2887    3.9213    0.0000 C   0  0  0  0  0  0  0  0  0  0  0  0
   -0.2897    0.9196    0.0000 C   0  0  0  0  0  0  0  0  0  0  0  0
    1.0098    1.6705    0.0000 C   0  0  0  0  0  0  0  0  0  0  0  0
   -1.5882    3.1705    0.0000 C   0  0  0  0  0  0  0  0  0  0  0  0
   -1.5887    1.6696    0.0000 C   0  0  0  0  0  0  0  0  0  0  0  0
    2.3089    0.9205    0.0000 C   0  0  0  0  0  0  0  0  0  0  0  0
    3.6079    1.6705    0.0000 C   0  0  0  0  0  0  0  0  0  0  0  0
    3.6079    3.1705    0.0000 O   0  0  0  0  0  0  0  0  0  0  0  0
   -2.8873    3.9205    0.0000 O   0  0  0  0  0  0  0  0  0  0  0  0
   -2.8879    0.9198    0.0000 O   0  0  0  0  0  0  0  0  0  0  0  0
    2.3089   -0.5795    0.0000 O   0  0  0  0  0  0  0  0  0  0  0  0
    4.9070    0.9205    0.0000 O   0  0  0  0  0  0  0  0  0  0  0  0
   -2.8873    5.4205    0.0000 Si  0  0  0  0  0  4  0  0  0  0  0  0
   -2.8881   -0.5802    0.0000 Si  0  0  0  0  0  4  0  0  0  0  0  0
    3.6079   -1.3295    0.0000 Si  0  0  0  0  0  4  0  0  0  0  0  0
    6.2060    1.6705    0.0000 Si  0  0  0  0  0  4  0  0  0  0  0  0
 14 13  2  0
 16 13  1  0
 16 15  2  0
 17 14  1  0
 18 15  1  0
 18 17  2  0
 19 16  1  0
 20 19  1  0
 21 20  2  0
 22 17  1  0
 23 18  1  0
 24 19  1  0
 25 20  1  0
 26  1  1  0
 26  2  1  0
 26  3  1  0
 26 22  1  0
 27  4  1  0
 27  5  1  0
 27  6  1  0
 27 23  1  0
 28  7  1  0
 28  8  1  0
 28  9  1  0
 28 24  1  0
 29 10  1  0
 29 11  1  0
 29 12  1  0
 29 25  1  0
M  END
>  <NAME>  (5496) 
DL-ALPHA,3,4-TRI(TRIMETHYLSILYL)OXY-PHENYLACETIC ACID TRIMETHYLSILYL ESTER

>  <SYNONYMS>  (5496) 
TRIMETHYLSILYL DL-ALPHA-(3,4-DI(TRIMETHYLSILOXY)PHENYL)-ALPHA-TRIMETHYLSILOXYACETATE

>  <SPECTRUM TYPE>  (5496) 
MS1

>  <INSTRUMENT TYPE>  (5496) 
EI-B

>  <INSTRUMENT>  (5496) 
JEOL JMS-01-SG

>  <ION MODE>  (5496) 
P

>  <INCHIKEY>  (5496) 
MDAKQGIALDYWHV-UHFFFAOYSA-N

>  <FORMULA>  (5496) 
C20H40O5Si4

>  <EXACT MASS>  (5496) 
472.19528049999997

>  <MW>  (5496) 
472

>  <ID>  (5496) 
JP001083

>  <CONTRIBUTOR>  (5496) 
University of Tokyo Team, {Faculty of Engineering, University of Tokyo

>  <COMMENT>  (5496) 
SMILES=C[Si](C)(C)OC(=O)C(O[Si](C)(C)C)c(c1)cc(O[Si](C)(C)C)c(c1)O[Si](C)(C)C
InChI=InChI=1S/C20H40O5Si4/c1-26(2,3)22-17-14-13-16(15-18(17)23-27(4,5)6)19(24-28(7,8)9)20(21)25-29(10,11)12/h13-15,19H,1-12H3
computed SMILES=O=C(O[Si](C)(C)C)C(O[Si](C)(C)C)C1=CC=C(O[Si](C)(C)C)C(O[Si](C)(C)C)=C1
accession=JP001083
date=2016.01.19 (Created 2008.10.21, modified 2011.05.06)
author=KOGA M, UNIV. OF OCCUPATIONAL AND ENVIRONMENTAL HEALTH
license=CC BY-NC-SA
exact mass=472.19528
ionization energy=70 eV
ion type=[M]+*
computed spectral entropy=1.7836903686536363
computed normalized entropy=0.7438566600000215
SPLASH=splash10-0a4i-2009000000-1e4170547e90b786418a
submitter=submitter = University of Tokyo Team (Faculty of Engineering, University of Tokyo)
MoNA Rating=3.75

>  <NUM PEAKS>  (5496) 
11

>  <MASS SPECTRAL PEAKS>  (5496) 
45 16.4
73 39.1
147 10.2
267 0.71
355 99.99
356 55.1
357 36.5
358 0.59
429 9.6
430 3.9
457 3.3

>  <PREDICTED SPECTRUM>  (5496) 
43 8
44 86
45 336
46 25
55 48
57 98
58 70
59 130
61 11
72 5
73 999
74 271
75 321
76 43
77 136
85 8
86 30
89 22
91 13
93 6
100 1
103 40
105 30
114 2
115 93
116 18
117 89
131 28
133 108
135 48
147 370
148 86
149 113
150 30
151 39
163 35
165 60
166 10
167 3
175 7
177 21
179 66
180 18
190 4
193 141
194 61
205 48
206 41
207 48
212 8
221 39
223 21
224 48
237 71
238 69
239 2
240 12
252 29
253 52
254 74
265 171
266 69
267 164
268 68
281 32
283 38
293 25
295 66
296 8
309 31
339 111
340 56
341 6
353 10
355 914
356 417
357 281
358 39
413 3
429 303
430 129
431 55
457 274
458 150
459 84
460 17
472 404
473 223
474 163
475 69
476 47

$$$$

     RDKit          2D

 30 29  0  0  0  0  0  0  0  0999 V2000
   -2.3899    7.0712    0.0000 C   0  0  0  0  0  0  0  0  0  0  0  0
   -0.8899    9.6692    0.0000 C   0  0  0  0  0  0  0  0  0  0  0  0
   -2.9389    9.1202    0.0000 C   0  0  0  0  0  0  0  0  0  0  0  0
   24.8899    6.3212    0.0000 C   0  0  0  0  0  0  0  0  0  0  0  0
   26.9389    6.8702    0.0000 C   0  0  0  0  0  0  0  0  0  0  0  0
   26.3899    8.9192    0.0000 C   0  0  0  0  0  0  0  0  0  0  0  0
   11.3505    8.3702    0.0000 C   0  0  0  0  0  0  0  0  0  0  0  0
   12.6495    7.6202    0.0000 C   0  0  0  0  0  0  0  0  0  0  0  0
   10.0514    7.6202    0.0000 C   0  0  0  0  0  0  0  0  0  0  0  0
   13.9486    8.3702    0.0000 C   0  0  0  0  0  0  0  0  0  0  0  0
    8.7524    8.3702    0.0000 C   0  0  0  0  0  0  0  0  0  0  0  0
   15.2476    7.6202    0.0000 C   0  0  0  0  0  0  0  0  0  0  0  0
    7.4534    7.6202    0.0000 C   0  0  0  0  0  0  0  0  0  0  0  0
   16.5466    8.3702    0.0000 C   0  0  0  0  0  0  0  0  0  0  0  0
    6.1543    8.3702    0.0000 C   0  0  0  0  0  0  0  0  0  0  0  0
   17.8457    7.6202    0.0000 C   0  0  0  0  0  0  0  0  0  0  0  0
    4.8553    7.6202    0.0000 C   0  0  0  0  0  0  0  0  0  0  0  0
   19.1447    8.3702    0.0000 C   0  0  0  0  0  0  0  0  0  0  0  0
    3.5563    8.3702    0.0000 C   0  0  0  0  0  0  0  0  0  0  0  0
   20.4437    7.6202    0.0000 C   0  0  0  0  0  0  0  0  0  0  0  0
    2.2572    7.6202    0.0000 C   0  0  0  0  0  0  0  0  0  0  0  0
   21.7428    8.3702    0.0000 C   0  0  0  0  0  0  0  0  0  0  0  0
    0.9582    8.3702    0.0000 C   0  0  0  0  0  0  0  0  0  0  0  0
   23.0418    7.6202    0.0000 C   0  0  0  0  0  0  0  0  0  0  0  0
    0.9582    9.8702    0.0000 O   0  0  0  0  0  0  0  0  0  0  0  0
   23.0418    6.1202    0.0000 O   0  0  0  0  0  0  0  0  0  0  0  0
   -0.3409    7.6202    0.0000 O   0  0  0  0  0  0  0  0  0  0  0  0
   24.3409    8.3702    0.0000 O   0  0  0  0  0  0  0  0  0  0  0  0
   -1.6399    8.3702    0.0000 Si  0  0  0  0  0  4  0  0  0  0  0  0
   25.6399    7.6202    0.0000 Si  0  0  0  0  0  4  0  0  0  0  0  0
  8  7  1  0
  9  7  1  0
 10  8  1  0
 11  9  1  0
 12 10  1  0
 13 11  1  0
 14 12  1  0
 15 13  1  0
 16 14  1  0
 17 15  1  0
 18 16  1  0
 19 17  1  0
 20 18  1  0
 21 19  1  0
 22 20  1  0
 23 21  1  0
 24 22  1  0
 25 23  2  0
 26 24  2  0
 27 23  1  0
 28 24  1  0
 29  1  1  0
 29  2  1  0
 29  3  1  0
 29 27  1  0
 30  4  1  0
 30  5  1  0
 30  6  1  0
 30 28  1  0
M  END
>  <NAME>  (5497) 
OCTADECANEDIOIC ACID BIS(TRIMETHYLSILYL) ESTER

>  <SYNONYMS>  (5497) 
DI(TRIMETHYLSILYL) OCTADECANEDIOATE

>  <SPECTRUM TYPE>  (5497) 
MS1

>  <INSTRUMENT TYPE>  (5497) 
EI-B

>  <INSTRUMENT>  (5497) 
JEOL JMS-01-SG

>  <ION MODE>  (5497) 
P

>  <INCHIKEY>  (5497) 
VDMOBMJETWUJLJ-UHFFFAOYSA-N

>  <FORMULA>  (5497) 
C24H50O4Si2

>  <EXACT MASS>  (5497) 
458.32476313999996

>  <MW>  (5497) 
458

>  <ID>  (5497) 
JP001081

>  <CONTRIBUTOR>  (5497) 
University of Tokyo Team, {Faculty of Engineering, University of Tokyo

>  <COMMENT>  (5497) 
SMILES=C(CCCCCCCCC(=O)O[Si](C)(C)C)CCCCCCCC(=O)O[Si](C)(C)C
InChI=InChI=1S/C24H50O4Si2/c1-29(2,3)27-23(25)21-19-17-15-13-11-9-7-8-10-12-14-16-18-20-22-24(26)28-30(4,5)6/h7-22H2,1-6H3
computed SMILES=O=C(O[Si](C)(C)C)CCCCCCCCCCCCCCCCC(=O)O[Si](C)(C)C
accession=JP001081
date=2016.01.19 (Created 2008.10.21, modified 2011.05.06)
author=KOGA M, UNIV. OF OCCUPATIONAL AND ENVIRONMENTAL HEALTH
license=CC BY-NC-SA
exact mass=458.32476
ionization energy=70 eV
ion type=[M]+*
computed spectral entropy=2.605973539852796
computed normalized entropy=0.8430727106389274
SPLASH=splash10-00vi-9220000000-4b2cbc1de56492fa8f90
submitter=submitter = University of Tokyo Team (Faculty of Engineering, University of Tokyo)
MoNA Rating=3.75

>  <NUM PEAKS>  (5497) 
22

>  <MASS SPECTRAL PEAKS>  (5497) 
45 11.9
47 10.5
55 35.9
67 1.05
69 15.4
73 94.3
75 99.99
77 1.54
81 14
83 13.3
95 21.8
97 1.05
117 32.3
129 28.1
147 16.9
149 1.76
204 57
217 42.9
327 16.1
443 5.28
444 16.9
445 7.7

>  <PREDICTED SPECTRUM>  (5497) 
15 19
29 83
39 46
41 149
42 67
43 133
44 68
45 124
46 39
47 94
48 6
49 53
53 85
54 74
55 471
56 150
57 239
58 167
59 179
60 96
61 165
62 11
66 13
67 260
68 86
69 357
70 85
71 123
72 305
73 999
74 221
75 860
76 229
77 225
78 0
79 191
80 86
81 380
82 96
83 320
84 236
85 164
86 29
87 60
88 85
89 144
90 28
91 118
93 208
94 102
95 291
96 178
97 261
98 317
99 166
100 62
101 162
102 25
103 94
105 96
106 53
107 224
108 113
109 221
110 132
111 203
112 202
113 50
114 57
115 127
116 288
117 549
118 189
119 224
120 37
121 234
122 85
123 137
124 30
125 107
126 33
127 0
128 33
129 583
130 169
131 227
132 330
133 292
134 96
135 172
136 113
137 107
138 86
139 93
140 54
142 51
143 181
144 44
145 363
146 117
147 337
148 174
149 299
150 103
151 94
152 56
153 87
154 92
155 105
156 189
157 125
158 93
159 108
160 56
161 127
162 76
163 114
164 60
165 82
166 92
167 92
168 94
169 134
170 176
171 223
172 78
173 88
175 67
177 75
178 27
179 71
180 3
181 107
182 89
183 106
184 74
185 166
186 94
187 100
188 69
189 157
190 54
191 46
193 12
194 2
195 74
196 76
197 88
198 59
199 102
200 40
201 137
202 74
203 129
204 763
205 363
206 241
207 107
208 25
209 94
210 41
211 23
212 26
213 117
214 68
215 120
216 123
217 583
218 318
219 159
220 83
221 46
222 46
223 46
224 2
225 4
226 58
227 102
228 27
229 85
230 46
231 116
232 74
233 104
234 13
235 98
236 56
237 128
239 5
240 0
241 123
242 67
243 104
244 40
245 74
246 41
249 48
250 103
251 44
253 42
254 9
255 140
256 62
257 122
258 34
259 155
260 50
261 61
262 35
263 48
269 148
270 99
271 163
272 65
273 98
274 39
276 4
277 3
278 121
279 128
283 117
284 81
285 122
286 57
287 101
288 18
291 25
295 5
297 176
298 135
299 120
300 56
301 71
302 39
309 102
310 33
311 310
312 189
313 160
314 123
315 81
324 13
325 262
326 291
327 418
328 241
329 231
335 129
336 54
339 27
340 81
341 19
343 67
353 138
354 26
355 46
357 102
368 111
369 105
370 97
371 111
372 86
373 8
385 40
386 48
399 205
400 46
413 11
414 38
427 203
428 147
429 72
443 850
444 520
445 310
446 145
447 15
458 202
459 135
460 72

$$$$

     RDKit          2D

 28 27  0  0  0  0  0  0  0  0999 V2000
   23.9659    8.2697    0.0000 C   0  0  0  0  0  0  0  0  0  0  0  0
   22.4659    5.6716    0.0000 C   0  0  0  0  0  0  0  0  0  0  0  0
   24.5149    6.2207    0.0000 C   0  0  0  0  0  0  0  0  0  0  0  0
   -0.7159    9.0197    0.0000 C   0  0  0  0  0  0  0  0  0  0  0  0
   -2.7649    8.4707    0.0000 C   0  0  0  0  0  0  0  0  0  0  0  0
   -2.2159    6.4216    0.0000 C   0  0  0  0  0  0  0  0  0  0  0  0
   11.5245    7.7207    0.0000 C   0  0  0  0  0  0  0  0  0  0  0  0
   10.2255    6.9707    0.0000 C   0  0  0  0  0  0  0  0  0  0  0  0
   12.8236    6.9707    0.0000 C   0  0  0  0  0  0  0  0  0  0  0  0
    8.9264    7.7207    0.0000 C   0  0  0  0  0  0  0  0  0  0  0  0
   14.1226    7.7207    0.0000 C   0  0  0  0  0  0  0  0  0  0  0  0
    7.6274    6.9707    0.0000 C   0  0  0  0  0  0  0  0  0  0  0  0
   15.4216    6.9707    0.0000 C   0  0  0  0  0  0  0  0  0  0  0  0
    6.3284    7.7207    0.0000 C   0  0  0  0  0  0  0  0  0  0  0  0
   16.7207    7.7207    0.0000 C   0  0  0  0  0  0  0  0  0  0  0  0
    5.0293    6.9707    0.0000 C   0  0  0  0  0  0  0  0  0  0  0  0
   18.0197    6.9707    0.0000 C   0  0  0  0  0  0  0  0  0  0  0  0
    3.7303    7.7207    0.0000 C   0  0  0  0  0  0  0  0  0  0  0  0
   19.3187    7.7207    0.0000 C   0  0  0  0  0  0  0  0  0  0  0  0
    2.4313    6.9707    0.0000 C   0  0  0  0  0  0  0  0  0  0  0  0
   20.6178    6.9707    0.0000 C   0  0  0  0  0  0  0  0  0  0  0  0
    1.1322    7.7207    0.0000 C   0  0  0  0  0  0  0  0  0  0  0  0
   20.6178    5.4707    0.0000 O   0  0  0  0  0  0  0  0  0  0  0  0
    1.1322    9.2207    0.0000 O   0  0  0  0  0  0  0  0  0  0  0  0
   21.9168    7.7207    0.0000 O   0  0  0  0  0  0  0  0  0  0  0  0
   -0.1668    6.9707    0.0000 O   0  0  0  0  0  0  0  0  0  0  0  0
   23.2159    6.9707    0.0000 Si  0  0  0  0  0  4  0  0  0  0  0  0
   -1.4659    7.7207    0.0000 Si  0  0  0  0  0  4  0  0  0  0  0  0
  8  7  1  0
  9  7  1  0
 10  8  1  0
 11  9  1  0
 12 10  1  0
 13 11  1  0
 14 12  1  0
 15 13  1  0
 16 14  1  0
 17 15  1  0
 18 16  1  0
 19 17  1  0
 20 18  1  0
 21 19  1  0
 22 20  1  0
 23 21  2  0
 24 22  2  0
 25 21  1  0
 26 22  1  0
 27  1  1  0
 27  2  1  0
 27  3  1  0
 27 25  1  0
 28  4  1  0
 28  5  1  0
 28  6  1  0
 28 26  1  0
M  END
>  <NAME>  (5498) 
HEXADECANEDIOIC ACID BIS(TRIMETHYLSILYL) ESTER

>  <SYNONYMS>  (5498) 
DI(TRIMETHYLSILYL) HEXADECANEDIOATE

>  <SPECTRUM TYPE>  (5498) 
MS1

>  <INSTRUMENT TYPE>  (5498) 
EI-B

>  <INSTRUMENT>  (5498) 
JEOL JMS-01-SG

>  <ION MODE>  (5498) 
P

>  <INCHIKEY>  (5498) 
YANZXOCRRABPGY-UHFFFAOYSA-N

>  <FORMULA>  (5498) 
C22H46O4Si2

>  <EXACT MASS>  (5498) 
430.29346301199996

>  <MW>  (5498) 
430

>  <ID>  (5498) 
JP001078

>  <CONTRIBUTOR>  (5498) 
University of Tokyo Team, {Faculty of Engineering, University of Tokyo

>  <COMMENT>  (5498) 
SMILES=C(CCCCCCCC(=O)O[Si](C)(C)C)CCCCCCC(=O)O[Si](C)(C)C
InChI=InChI=1S/C22H46O4Si2/c1-27(2,3)25-21(23)19-17-15-13-11-9-7-8-10-12-14-16-18-20-22(24)26-28(4,5)6/h7-20H2,1-6H3
computed SMILES=O=C(O[Si](C)(C)C)CCCCCCCCCCCCCCC(=O)O[Si](C)(C)C
accession=JP001078
date=2016.01.19 (Created 2008.10.21, modified 2011.05.06)
author=KOGA M, UNIV. OF OCCUPATIONAL AND ENVIRONMENTAL HEALTH
license=CC BY-NC-SA
exact mass=430.29346
ionization energy=70 eV
ion type=[M]+*
computed spectral entropy=2.4692647607394047
computed normalized entropy=0.8242608268228153
SPLASH=splash10-01di-9220200000-e0dc85c93c78115e3a1b
submitter=submitter = University of Tokyo Team (Faculty of Engineering, University of Tokyo)
MoNA Rating=3.75

>  <NUM PEAKS>  (5498) 
20

>  <MASS SPECTRAL PEAKS>  (5498) 
45 9.8
55 25
67 9.3
69 1.43
73 99.99
75 79.7
81 11.7
83 1.11
95 11.4
117 27.9
129 24.7
147 1.25
149 15.1
204 33.5
217 32.1
299 1.51
399 4.7
415 41.2
416 13.8
417 4.5

>  <PREDICTED SPECTRUM>  (5498) 
15 4
29 43
39 58
40 2
41 162
42 63
43 137
44 57
45 139
46 32
47 88
48 13
49 53
53 93
54 75
55 478
56 161
57 245
58 127
59 182
60 90
61 195
62 20
66 18
67 260
68 84
69 355
70 103
71 114
72 308
73 999
74 226
75 864
76 230
77 230
78 25
79 214
80 118
81 380
82 102
83 307
84 232
85 162
86 82
87 79
88 64
89 173
90 26
91 62
93 201
94 89
95 291
96 172
97 251
98 308
99 160
100 102
101 169
102 32
103 134
105 131
106 4
107 217
108 107
109 206
110 138
111 202
112 190
113 43
114 45
115 152
116 292
117 537
118 185
119 230
120 23
121 221
122 100
123 136
124 74
125 114
126 52
127 6
128 4
129 589
130 180
131 215
132 303
133 286
134 117
135 171
136 95
137 102
138 93
139 89
140 68
142 74
143 170
144 67
145 350
146 66
147 340
148 181
149 300
150 100
151 91
152 3
153 114
154 95
155 132
156 189
157 132
158 89
159 102
160 33
161 155
162 49
163 52
164 1
165 21
166 17
167 70
168 79
169 137
170 145
171 221
172 62
173 70
174 7
175 88
176 5
177 59
178 12
179 122
180 39
181 97
182 55
183 19
184 40
185 142
186 112
187 120
188 28
189 136
190 67
191 132
192 43
193 40
194 48
195 59
196 13
198 69
199 112
200 71
201 139
202 87
203 139
204 753
205 362
206 235
207 109
208 56
209 137
210 7
211 23
212 26
213 143
214 91
215 140
216 137
217 576
218 321
219 113
220 26
221 61
222 113
223 71
224 47
225 45
226 43
227 146
228 29
229 116
230 51
231 169
232 71
233 88
234 56
235 42
241 135
242 99
243 170
244 79
245 104
246 46
250 150
251 123
253 29
255 116
256 98
257 112
258 71
259 91
260 17
262 7
267 8
268 2
269 225
270 138
271 133
272 59
273 76
281 123
282 87
283 323
284 189
285 155
286 121
287 103
288 0
296 51
297 218
298 280
299 420
300 298
301 215
302 56
307 143
308 34
311 37
312 82
313 41
315 69
325 153
326 32
327 48
328 11
329 99
340 116
341 109
342 87
343 97
344 75
345 1
357 27
358 53
359 20
371 249
372 132
373 38
385 24
386 49
387 1
399 283
400 53
401 5
415 910
416 518
417 307
418 110
419 45
430 165
431 111
432 32

$$$$

     RDKit          2D

 27 26  0  0  0  0  0  0  0  0999 V2000
  -20.9353   13.4130    0.0000 C   0  0  0  0  0  0  0  0  0  0  0  0
  -19.6363   11.1630    0.0000 C   0  0  0  0  0  0  0  0  0  0  0  0
    5.5945   11.3639    0.0000 C   0  0  0  0  0  0  0  0  0  0  0  0
    7.6435   11.9130    0.0000 C   0  0  0  0  0  0  0  0  0  0  0  0
    7.0945   13.9620    0.0000 C   0  0  0  0  0  0  0  0  0  0  0  0
   -7.9450   13.4130    0.0000 C   0  0  0  0  0  0  0  0  0  0  0  0
   -9.2440   12.6630    0.0000 C   0  0  0  0  0  0  0  0  0  0  0  0
   -6.6459   12.6630    0.0000 C   0  0  0  0  0  0  0  0  0  0  0  0
  -10.5430   13.4130    0.0000 C   0  0  0  0  0  0  0  0  0  0  0  0
   -5.3469   13.4130    0.0000 C   0  0  0  0  0  0  0  0  0  0  0  0
  -11.8421   12.6630    0.0000 C   0  0  0  0  0  0  0  0  0  0  0  0
   -4.0478   12.6630    0.0000 C   0  0  0  0  0  0  0  0  0  0  0  0
  -13.1411   13.4130    0.0000 C   0  0  0  0  0  0  0  0  0  0  0  0
   -2.7488   13.4130    0.0000 C   0  0  0  0  0  0  0  0  0  0  0  0
  -14.4401   12.6630    0.0000 C   0  0  0  0  0  0  0  0  0  0  0  0
   -1.4498   12.6630    0.0000 C   0  0  0  0  0  0  0  0  0  0  0  0
  -15.7392   13.4130    0.0000 C   0  0  0  0  0  0  0  0  0  0  0  0
   -0.1507   13.4130    0.0000 C   0  0  0  0  0  0  0  0  0  0  0  0
  -17.0382   12.6630    0.0000 C   0  0  0  0  0  0  0  0  0  0  0  0
    1.1483   12.6630    0.0000 C   0  0  0  0  0  0  0  0  0  0  0  0
  -18.3373   13.4130    0.0000 C   0  0  0  0  0  0  0  0  0  0  0  0
    2.4474   13.4130    0.0000 C   0  0  0  0  0  0  0  0  0  0  0  0
  -19.6363   12.6630    0.0000 C   0  0  0  0  0  0  0  0  0  0  0  0
    3.7464   12.6630    0.0000 C   0  0  0  0  0  0  0  0  0  0  0  0
    3.7464   11.1630    0.0000 O   0  0  0  0  0  0  0  0  0  0  0  0
    5.0454   13.4130    0.0000 O   0  0  0  0  0  0  0  0  0  0  0  0
    6.3445   12.6630    0.0000 Si  0  0  0  0  0  4  0  0  0  0  0  0
  7  6  1  0
  8  6  1  0
  9  7  1  0
 10  8  1  0
 11  9  1  0
 12 10  1  0
 13 11  1  0
 14 12  1  0
 15 13  1  0
 16 14  1  0
 17 15  1  0
 18 16  1  0
 19 17  1  0
 20 18  1  0
 21 19  1  0
 22 20  1  0
 23  1  1  0
 23  2  1  0
 23 21  1  0
 24 22  1  0
 25 24  2  0
 26 24  1  0
 27  3  1  0
 27  4  1  0
 27  5  1  0
 27 26  1  0
M  END
>  <NAME>  (5499) 
19-METHYLEICOSANOIC ACID TRIMETHYLSILYL ESTER

>  <SYNONYMS>  (5499) 
TRIMETHYLSILYL 19-METHYLEICOSANOATE

>  <SPECTRUM TYPE>  (5499) 
MS1

>  <INSTRUMENT TYPE>  (5499) 
EI-B

>  <INSTRUMENT>  (5499) 
JEOL JMS-01-SG

>  <ION MODE>  (5499) 
P

>  <INCHIKEY>  (5499) 
WECMMLXJSWEMQD-UHFFFAOYSA-N

>  <FORMULA>  (5499) 
C24H50O2Si

>  <EXACT MASS>  (5499) 
398.35800737

>  <MW>  (5499) 
398

>  <ID>  (5499) 
JP001074

>  <CONTRIBUTOR>  (5499) 
University of Tokyo Team, {Faculty of Engineering, University of Tokyo

>  <COMMENT>  (5499) 
SMILES=CC(C)CCCCCCCCCCCCCCCCCC(=O)O[Si](C)(C)C
InChI=InChI=1S/C24H50O2Si/c1-23(2)21-19-17-15-13-11-9-7-6-8-10-12-14-16-18-20-22-24(25)26-27(3,4)5/h23H,6-22H2,1-5H3
computed SMILES=O=C(O[Si](C)(C)C)CCCCCCCCCCCCCCCCCC(C)C
accession=JP001074
date=2016.01.19 (Created 2008.10.21, modified 2011.05.06)
author=KOGA M, UNIV. OF OCCUPATIONAL AND ENVIRONMENTAL HEALTH
license=CC BY-NC-SA
exact mass=398.35801
ionization energy=70 eV
ion type=[M]+*
computed spectral entropy=2.5882158201303707
computed normalized entropy=0.804074453613428
SPLASH=splash10-01di-9500000000-37428e5544427a6ca4eb
submitter=submitter = University of Tokyo Team (Faculty of Engineering, University of Tokyo)
MoNA Rating=3.75

>  <NUM PEAKS>  (5499) 
25

>  <MASS SPECTRAL PEAKS>  (5499) 
43 44
55 26.3
56 6.5
57 2.1
67 6.8
69 16.5
71 6.8
73 99.99
74 8.2
75 70.1
77 5.9
81 0.76
83 10.6
95 7.3
97 7.6
98 0.59
117 91.7
118 7.8
129 35.7
131 3.49
133 7.9
145 34.6
201 6.8
383 4.79
384 13.9

>  <PREDICTED SPECTRUM>  (5499) 
27 41
28 16
29 68
39 60
41 237
42 130
43 398
44 121
45 114
46 58
47 81
53 88
54 94
55 508
56 270
57 564
58 205
59 154
60 92
61 197
62 20
67 221
68 121
69 393
70 214
71 315
72 189
73 999
74 265
75 799
76 219
77 224
78 56
79 105
80 32
81 301
82 144
83 368
84 205
85 180
86 31
87 76
88 41
89 157
90 38
91 138
92 36
93 122
94 31
95 335
96 210
97 277
98 258
99 144
100 17
101 98
102 56
103 140
104 18
105 126
106 45
107 196
108 41
109 138
110 104
111 150
112 153
113 62
115 110
116 219
117 970
118 277
119 191
121 189
123 80
125 110
126 25
127 3
129 675
130 195
131 324
132 682
133 370
134 148
135 126
137 29
139 42
141 41
143 277
144 42
145 668
146 293
147 152
148 48
149 99
151 17
152 30
153 52
155 1
157 98
158 87
159 261
160 115
161 32
163 9
165 10
171 188
172 90
173 149
174 66
175 61
176 16
177 26
181 67
182 30
183 2
185 190
186 45
187 157
188 76
189 61
190 2
195 42
196 3
199 112
200 29
201 215
202 98
209 52
213 77
215 55
223 30
224 50
227 108
229 101
230 64
231 1
237 61
241 97
243 37
251 5
255 48
257 50
265 0
267 93
268 22
269 125
271 59
272 15
273 42
276 48
277 18
280 2
283 63
285 84
286 0
297 68
299 94
300 68
308 100
309 29
310 7
311 60
313 95
325 9
327 56
328 35
339 162
340 46
341 127
342 36
343 11
355 239
356 196
357 19
365 28
367 46
369 48
383 890
384 498
385 229
386 98
398 292
399 164
400 70

$$$$

     RDKit          2D

 25 25  0  0  0  0  0  0  0  0999 V2000
    5.7937   -2.3182    0.0000 C   0  0  0  0  0  0  0  0  0  0  0  0
    4.2937   -3.8182    0.0000 C   0  0  0  0  0  0  0  0  0  0  0  0
    2.7937   -2.3182    0.0000 C   0  0  0  0  0  0  0  0  0  0  0  0
    2.7945    3.6827    0.0000 C   0  0  0  0  0  0  0  0  0  0  0  0
    4.2948    5.1824    0.0000 C   0  0  0  0  0  0  0  0  0  0  0  0
    5.7945    3.6822    0.0000 C   0  0  0  0  0  0  0  0  0  0  0  0
   -5.3486    3.4808    0.0000 C   0  0  0  0  0  0  0  0  0  0  0  0
   -7.3977    2.9318    0.0000 C   0  0  0  0  0  0  0  0  0  0  0  0
   -6.8486    0.8828    0.0000 C   0  0  0  0  0  0  0  0  0  0  0  0
    0.3961   -0.0690    0.0000 C   0  0  0  0  0  0  0  0  0  0  0  0
   -0.9025    2.1818    0.0000 C   0  0  0  0  0  0  0  0  0  0  0  0
    1.6951   -0.8190    0.0000 C   0  0  0  0  0  0  0  0  0  0  0  0
   -2.2015    1.4318    0.0000 C   0  0  0  0  0  0  0  0  0  0  0  0
    1.6961    2.1826    0.0000 C   0  0  0  0  0  0  0  0  0  0  0  0
    0.3966    1.4318    0.0000 C   0  0  0  0  0  0  0  0  0  0  0  0
    2.9946   -0.0682    0.0000 C   0  0  0  0  0  0  0  0  0  0  0  0
    2.9951    1.4326    0.0000 C   0  0  0  0  0  0  0  0  0  0  0  0
   -3.5005    2.1818    0.0000 C   0  0  0  0  0  0  0  0  0  0  0  0
   -3.5005    3.6818    0.0000 O   0  0  0  0  0  0  0  0  0  0  0  0
    4.2937   -0.8182    0.0000 O   0  0  0  0  0  0  0  0  0  0  0  0
    4.2943    2.1824    0.0000 O   0  0  0  0  0  0  0  0  0  0  0  0
   -4.7996    1.4318    0.0000 O   0  0  0  0  0  0  0  0  0  0  0  0
    4.2937   -2.3182    0.0000 Si  0  0  0  0  0  4  0  0  0  0  0  0
    4.2945    3.6824    0.0000 Si  0  0  0  0  0  4  0  0  0  0  0  0
   -6.0986    2.1818    0.0000 Si  0  0  0  0  0  4  0  0  0  0  0  0
 12 10  2  0
 11 13  2  0
 15 10  1  0
 15 11  1  0
 15 14  2  0
 16 12  1  0
 17 14  1  0
 17 16  2  0
 18 13  1  0
 19 18  2  0
 20 16  1  0
 21 17  1  0
 22 18  1  0
 23  1  1  0
 23  2  1  0
 23  3  1  0
 23 20  1  0
 24  4  1  0
 24  5  1  0
 24  6  1  0
 24 21  1  0
 25  7  1  0
 25  8  1  0
 25  9  1  0
 25 22  1  0
M  END
>  <NAME>  (5500) 
3,4-BIS(TRIMETHYLSILYL)OXY-CINNAMIC ACID TRIMETHYLSILYL ESTER

>  <SYNONYMS>  (5500) 
TRIMETHYLSILYL 3,4-BIS(TRIMETHYLSILOXY)CINNAMATE

>  <SPECTRUM TYPE>  (5500) 
MS1

>  <INSTRUMENT TYPE>  (5500) 
EI-B

>  <INSTRUMENT>  (5500) 
JEOL JMS-01-SG

>  <ION MODE>  (5500) 
P

>  <INCHIKEY>  (5500) 
MBIYCWDFSLHMSI-ACCUITESSA-N

>  <FORMULA>  (5500) 
C18H32O4Si3

>  <EXACT MASS>  (5500) 
396.160839094

>  <MW>  (5500) 
396

>  <ID>  (5500) 
JP001072

>  <CONTRIBUTOR>  (5500) 
University of Tokyo Team, {Faculty of Engineering, University of Tokyo

>  <COMMENT>  (5500) 
SMILES=O=C(C=Cc(c1)cc(O[Si](C)(C)C)c(c1)O[Si](C)(C)C)O[Si](C)(C)C
InChI=InChI=1S/C18H32O4Si3/c1-23(2,3)20-16-12-10-15(14-17(16)21-24(4,5)6)11-13-18(19)22-25(7,8)9/h10-14H,1-9H3/b13-11+
computed SMILES=O=C(O[Si](C)(C)C)C=CC1=CC=C(O[Si](C)(C)C)C(O[Si](C)(C)C)=C1
accession=JP001072
date=2016.01.19 (Created 2008.10.21, modified 2011.05.06)
author=KOGA M, UNIV. OF OCCUPATIONAL AND ENVIRONMENTAL HEALTH
license=CC BY-NC-SA
exact mass=396.16084
ionization energy=70 eV
ion type=[M]+*
computed spectral entropy=1.949717907221653
computed normalized entropy=0.7032120889702718
SPLASH=splash10-00xs-9063000000-9f266cfae4257f60b8a5
submitter=submitter = University of Tokyo Team (Faculty of Engineering, University of Tokyo)
MoNA Rating=3.75

>  <NUM PEAKS>  (5500) 
16

>  <MASS SPECTRAL PEAKS>  (5500) 
45 39.6
73 99.99
74 6.9
75 1.53
147 3.9
191 9.4
219 91.5
220 1.28
221 3.9
249 5.9
307 6.9
381 0.94
382 3.4
396 37.6
397 12.8
398 3.9

>  <PREDICTED SPECTRUM>  (5500) 
2 1
15 9
27 21
28 16
29 68
30 11
31 15
32 9
39 8
40 21
41 11
43 61
44 170
45 433
46 54
47 56
50 29
51 60
53 27
54 0
55 73
56 50
57 115
58 96
59 120
60 38
61 74
62 13
63 61
64 4
65 9
69 57
70 17
71 37
72 108
73 999
74 300
75 337
76 104
77 128
78 40
79 28
80 6
81 25
82 37
83 20
85 45
86 18
87 31
88 27
89 124
90 28
91 55
92 13
93 44
94 4
95 2
96 8
100 9
101 65
102 102
103 117
104 46
105 96
106 42
107 45
109 8
114 6
115 177
116 91
117 130
118 29
119 77
121 67
122 10
123 53
124 29
127 17
128 38
129 90
130 59
131 157
132 86
133 217
134 91
135 92
136 50
137 39
141 46
143 58
144 10
145 91
146 36
147 318
148 147
149 176
150 70
151 46
152 60
153 19
154 19
155 40
156 44
157 34
158 23
159 95
160 62
161 134
162 79
163 112
164 96
165 47
166 10
167 10
168 1
170 7
173 60
174 28
175 130
176 81
177 160
178 99
179 61
180 52
181 48
187 12
188 12
189 104
190 106
191 178
192 115
193 68
194 46
195 2
196 5
201 51
202 2
203 125
204 50
205 109
206 55
207 41
208 13
209 9
217 44
218 64
219 334
220 173
221 131
222 44
232 21
233 171
234 149
235 213
236 142
237 53
247 46
248 49
249 76
250 28
251 3
252 10
261 3
263 91
264 170
265 92
266 68
277 57
278 72
279 58
280 85
291 102
292 94
293 123
294 32
295 66
296 45
305 47
306 79
307 241
308 212
309 118
310 40
324 35
337 20
338 38
350 20
351 128
352 68
367 25
368 19
369 2
379 58
380 18
381 240
382 164
383 77
384 9
395 12
396 745
397 399
398 292
399 120
400 55

$$$$

     RDKit          2D

 24 23  0  0  0  0  0  0  0  0999 V2000
    2.9130   -1.5772    0.0000 C   0  0  0  0  0  0  0  0  0  0  0  0
    1.4130    1.0209    0.0000 C   0  0  0  0  0  0  0  0  0  0  0  0
    0.8639   -1.0281    0.0000 C   0  0  0  0  0  0  0  0  0  0  0  0
    8.8591    8.7219    0.0000 C   0  0  0  0  0  0  0  0  0  0  0  0
    7.3591   10.2219    0.0000 C   0  0  0  0  0  0  0  0  0  0  0  0
    5.8591    8.7219    0.0000 C   0  0  0  0  0  0  0  0  0  0  0  0
    2.9130    8.5209    0.0000 C   0  0  0  0  0  0  0  0  0  0  0  0
    0.8639    7.9719    0.0000 C   0  0  0  0  0  0  0  0  0  0  0  0
    1.4130    5.9228    0.0000 C   0  0  0  0  0  0  0  0  0  0  0  0
    4.7611    2.7219    0.0000 C   0  0  0  0  0  0  0  0  0  0  0  0
    6.0601    4.9719    0.0000 C   0  0  0  0  0  0  0  0  0  0  0  0
    4.7611    4.2219    0.0000 C   0  0  0  0  0  0  0  0  0  0  0  0
    3.4620    1.9719    0.0000 C   0  0  0  0  0  0  0  0  0  0  0  0
    6.0601    6.4719    0.0000 C   0  0  0  0  0  0  0  0  0  0  0  0
    3.4620    4.9719    0.0000 C   0  0  0  0  0  0  0  0  0  0  0  0
    2.1630    2.7219    0.0000 O   0  0  0  0  0  0  0  0  0  0  0  0
    4.7611    7.2219    0.0000 O   0  0  0  0  0  0  0  0  0  0  0  0
    2.1630    4.2219    0.0000 O   0  0  0  0  0  0  0  0  0  0  0  0
    3.4620    0.4719    0.0000 O   0  0  0  0  0  0  0  0  0  0  0  0
    7.3591    7.2219    0.0000 O   0  0  0  0  0  0  0  0  0  0  0  0
    3.4620    6.4719    0.0000 O   0  0  0  0  0  0  0  0  0  0  0  0
    2.1630   -0.2781    0.0000 Si  0  0  0  0  0  4  0  0  0  0  0  0
    7.3591    8.7219    0.0000 Si  0  0  0  0  0  4  0  0  0  0  0  0
    2.1630    7.2219    0.0000 Si  0  0  0  0  0  4  0  0  0  0  0  0
 12 10  1  0
 12 11  1  0
 13 10  1  0
 14 11  1  0
 15 12  1  0
 16 13  2  0
 17 14  2  0
 18 15  2  0
 19 13  1  0
 20 14  1  0
 21 15  1  0
 22  1  1  0
 22  2  1  0
 22  3  1  0
 22 19  1  0
 23  4  1  0
 23  5  1  0
 23  6  1  0
 23 20  1  0
 24  7  1  0
 24  8  1  0
 24  9  1  0
 24 21  1  0
M  END
>  <NAME>  (5501) 
1,2,3-PROPANETRICARBOXYLIC ACID TRIS(TRIMETHYLSILYL) ESTER

>  <SYNONYMS>  (5501) 
TRI(TRIMETHYLSILYL) 1,2,3-PROPANETRICARBOXYLATE

>  <SPECTRUM TYPE>  (5501) 
MS1

>  <INSTRUMENT TYPE>  (5501) 
EI-B

>  <INSTRUMENT>  (5501) 
JEOL JMS-01-SG

>  <ION MODE>  (5501) 
P

>  <INCHIKEY>  (5501) 
VEXAYJWEIRRBOE-UHFFFAOYSA-N

>  <FORMULA>  (5501) 
C15H32O6Si3

>  <EXACT MASS>  (5501) 
392.150668334

>  <MW>  (5501) 
392

>  <ID>  (5501) 
JP001071

>  <CONTRIBUTOR>  (5501) 
University of Tokyo Team, {Faculty of Engineering, University of Tokyo

>  <COMMENT>  (5501) 
SMILES=O=C(O[Si](C)(C)C)CC(CC(=O)O[Si](C)(C)C)C(=O)O[Si](C)(C)C
InChI=InChI=1S/C15H32O6Si3/c1-22(2,3)19-13(16)10-12(15(18)21-24(7,8)9)11-14(17)20-23(4,5)6/h12H,10-11H2,1-9H3
computed SMILES=O=C(O[Si](C)(C)C)CC(C(=O)O[Si](C)(C)C)CC(=O)O[Si](C)(C)C
accession=JP001071
date=2016.01.19 (Created 2008.10.21, modified 2011.05.06)
author=KOGA M, UNIV. OF OCCUPATIONAL AND ENVIRONMENTAL HEALTH
license=CC BY-NC-SA
exact mass=392.15067
ionization energy=70 eV
ion type=[M]+*
computed spectral entropy=2.5894404938701046
computed normalized entropy=0.8147881162814044
SPLASH=splash10-00b9-9100000000-a5b0260da9b7aab55cae
submitter=submitter = University of Tokyo Team (Faculty of Engineering, University of Tokyo)
MoNA Rating=3.75

>  <NUM PEAKS>  (5501) 
24

>  <MASS SPECTRAL PEAKS>  (5501) 
43 8.1
45 30.8
47 8.8
49 0.88
55 20.7
69 15
73 99.99
74 0.88
75 42.1
77 71.6
78 6.9
93 0.69
95 8.8
133 6.9
141 6.9
147 8.3
148 10
149 10
184 6.9
185 2.38
215 6.9
217 18.8
377 27.6
378 6.9

>  <PREDICTED SPECTRUM>  (5501) 
18 13
27 4
28 14
29 29
39 15
41 54
42 18
43 105
44 147
45 279
46 54
47 89
49 14
51 1
53 77
54 54
55 255
56 37
57 19
58 42
59 156
60 62
61 115
66 68
67 72
68 82
69 166
70 73
71 52
72 219
73 999
74 293
75 458
76 120
77 118
79 34
81 98
82 86
83 54
84 27
85 73
86 63
87 50
88 33
89 64
91 17
95 121
96 18
97 37
98 23
99 142
100 45
101 121
102 38
103 60
104 13
105 33
106 1
107 42
108 3
109 65
111 32
112 12
113 110
114 21
115 117
116 120
117 142
119 59
120 7
121 22
123 103
124 13
125 31
127 34
128 24
129 218
130 89
131 102
132 31
133 226
134 109
135 69
137 14
139 2
140 19
141 93
142 105
143 213
144 92
145 72
146 40
147 675
148 275
149 365
150 191
151 72
152 12
153 30
154 13
155 117
156 53
157 186
158 80
159 56
160 23
161 38
162 13
163 20
169 98
170 37
171 144
172 60
173 64
174 2
175 75
176 23
177 57
178 70
183 8
184 127
185 283
186 158
187 43
188 31
189 84
190 86
191 126
192 53
193 40
196 10
203 65
204 253
205 119
206 70
207 35
212 45
213 90
214 42
215 110
216 61
217 311
218 94
219 78
220 45
221 34
222 5
230 77
231 267
232 92
233 96
234 84
235 47
243 31
244 23
245 194
246 126
247 73
248 53
249 57
251 38
258 67
259 348
260 159
261 164
262 47
273 19
274 178
275 175
276 88
277 61
278 11
287 139
288 98
289 79
290 27
291 15
292 3
293 6
302 193
303 85
304 12
305 35
320 15
333 118
334 38
335 9
336 5
348 121
349 88
350 43
351 3
377 468
378 236
379 196
380 66
381 6
392 15
393 1

$$$$

     RDKit          2D

 24 23  0  0  0  0  0  0  0  0999 V2000
    2.9130   -1.5772    0.0000 C   0  0  0  0  0  0  0  0  0  0  0  0
    1.4130    1.0209    0.0000 C   0  0  0  0  0  0  0  0  0  0  0  0
    0.8639   -1.0281    0.0000 C   0  0  0  0  0  0  0  0  0  0  0  0
    8.8591    8.7219    0.0000 C   0  0  0  0  0  0  0  0  0  0  0  0
    7.3591   10.2219    0.0000 C   0  0  0  0  0  0  0  0  0  0  0  0
    5.8591    8.7219    0.0000 C   0  0  0  0  0  0  0  0  0  0  0  0
    2.9130    8.5209    0.0000 C   0  0  0  0  0  0  0  0  0  0  0  0
    0.8639    7.9719    0.0000 C   0  0  0  0  0  0  0  0  0  0  0  0
    1.4130    5.9228    0.0000 C   0  0  0  0  0  0  0  0  0  0  0  0
    4.7611    2.7219    0.0000 C   0  0  0  0  0  0  0  0  0  0  0  0
    6.0601    4.9719    0.0000 C   0  0  0  0  0  0  0  0  0  0  0  0
    4.7611    4.2219    0.0000 C   0  0  0  0  0  0  0  0  0  0  0  0
    3.4620    1.9719    0.0000 C   0  0  0  0  0  0  0  0  0  0  0  0
    6.0601    6.4719    0.0000 C   0  0  0  0  0  0  0  0  0  0  0  0
    3.4620    4.9719    0.0000 C   0  0  0  0  0  0  0  0  0  0  0  0
    2.1630    2.7219    0.0000 O   0  0  0  0  0  0  0  0  0  0  0  0
    4.7611    7.2219    0.0000 O   0  0  0  0  0  0  0  0  0  0  0  0
    2.1630    4.2219    0.0000 O   0  0  0  0  0  0  0  0  0  0  0  0
    3.4620    0.4719    0.0000 O   0  0  0  0  0  0  0  0  0  0  0  0
    7.3591    7.2219    0.0000 O   0  0  0  0  0  0  0  0  0  0  0  0
    3.4620    6.4719    0.0000 O   0  0  0  0  0  0  0  0  0  0  0  0
    2.1630   -0.2781    0.0000 Si  0  0  0  0  0  4  0  0  0  0  0  0
    7.3591    8.7219    0.0000 Si  0  0  0  0  0  4  0  0  0  0  0  0
    2.1630    7.2219    0.0000 Si  0  0  0  0  0  4  0  0  0  0  0  0
 10 12  2  0
 12 11  1  0
 13 10  1  0
 14 11  1  0
 15 12  1  0
 16 13  2  0
 17 14  2  0
 18 15  2  0
 19 13  1  0
 20 14  1  0
 21 15  1  0
 22  1  1  0
 22  2  1  0
 22  3  1  0
 22 19  1  0
 23  4  1  0
 23  5  1  0
 23  6  1  0
 23 20  1  0
 24  7  1  0
 24  8  1  0
 24  9  1  0
 24 21  1  0
M  END
>  <NAME>  (5502) 
CIS-1-PROPENE-1,2,3-TRICARBOXYLIC ACID TRI(TRIMETHYLSILYL) ESTER

>  <SYNONYMS>  (5502) 
TRI(TRIMETHYLSILYL) CIS-1-PROPENE-1,2,3-TRICARBOXYLATE

>  <SPECTRUM TYPE>  (5502) 
MS1

>  <INSTRUMENT TYPE>  (5502) 
EI-B

>  <INSTRUMENT>  (5502) 
JEOL JMS-01-SG

>  <ION MODE>  (5502) 
P

>  <INCHIKEY>  (5502) 
RHDPKJMZPKZKTA-BENRWUELSA-N

>  <FORMULA>  (5502) 
C15H30O6Si3

>  <EXACT MASS>  (5502) 
390.13501826999993

>  <MW>  (5502) 
390

>  <ID>  (5502) 
JP001070

>  <CONTRIBUTOR>  (5502) 
University of Tokyo Team, {Faculty of Engineering, University of Tokyo

>  <COMMENT>  (5502) 
SMILES=O=C(O[Si](C)(C)C)CC(=CC(=O)O[Si](C)(C)C)C(=O)O[Si](C)(C)C
InChI=InChI=1S/C15H30O6Si3/c1-22(2,3)19-13(16)10-12(15(18)21-24(7,8)9)11-14(17)20-23(4,5)6/h10H,11H2,1-9H3/b12-10-
computed SMILES=O=C(O[Si](C)(C)C)C=C(C(=O)O[Si](C)(C)C)CC(=O)O[Si](C)(C)C
accession=JP001070
date=2016.01.19 (Created 2008.10.21, modified 2011.05.06)
author=KOGA M, UNIV. OF OCCUPATIONAL AND ENVIRONMENTAL HEALTH
license=CC BY-NC-SA
exact mass=390.13502
ionization energy=70 eV
ion type=[M]+*
computed spectral entropy=2.275029727649622
computed normalized entropy=0.8205435264887696
SPLASH=splash10-0092-9320000000-16612049a672bbd2b30b
submitter=submitter = University of Tokyo Team (Faculty of Engineering, University of Tokyo)
MoNA Rating=3.75

>  <NUM PEAKS>  (5502) 
16

>  <MASS SPECTRAL PEAKS>  (5502) 
44 24.7
45 18.9
47 17.1
67 1.1
73 99.99
74 10.1
75 69.1
77 2.55
93 13.6
147 95.5
148 15.4
211 2.01
229 43.1
285 19.3
375 20.2
376 6.1

>  <PREDICTED SPECTRUM>  (5502) 
14 14
15 30
18 19
26 11
27 41
28 23
31 16
39 51
40 28
41 46
42 64
43 221
44 157
45 372
46 98
47 103
48 13
49 29
50 3
51 9
52 18
53 81
54 51
55 151
56 21
57 99
58 93
59 215
60 41
61 123
62 10
63 2
65 8
66 76
67 77
68 51
69 96
70 85
71 65
72 177
73 999
74 308
75 429
76 86
77 74
79 17
81 53
82 62
83 101
84 69
85 91
86 12
87 14
89 51
93 84
94 0
95 37
96 13
97 71
98 67
99 121
100 44
101 69
102 22
103 14
105 26
106 1
107 17
109 76
111 142
112 66
113 84
115 91
116 69
117 94
121 65
123 31
125 59
126 73
127 86
128 78
129 96
130 22
131 150
132 38
133 274
134 76
135 73
137 43
138 61
139 80
140 68
141 181
142 95
143 141
144 27
145 61
146 20
147 672
148 314
149 286
150 144
153 30
154 42
155 182
156 100
157 99
158 100
159 7
164 1
167 60
168 12
169 140
170 75
171 52
172 21
173 77
174 43
175 51
181 31
182 113
183 337
184 191
185 153
186 80
187 26
188 18
189 43
190 54
191 121
199 26
200 54
201 8
203 15
204 89
205 36
210 48
211 97
212 42
213 170
214 105
215 110
216 41
217 111
218 55
221 36
222 30
225 54
226 23
227 37
228 57
229 213
230 129
231 98
232 52
241 112
242 39
243 135
244 69
245 90
246 48
247 48
248 49
255 94
256 110
257 303
258 176
259 161
260 75
271 75
272 108
273 414
274 266
275 135
276 68
285 223
286 161
287 131
288 72
289 32
290 33
299 57
300 176
301 130
302 54
303 44
305 23
319 1
329 0
331 132
332 44
333 126
334 36
345 51
346 56
347 135
348 100
349 32
359 21
375 492
376 243
377 191
378 70
379 12
390 143
391 60
392 37

$$$$

     RDKit          2D

 25 24  0  0  0  0  0  0  0  0999 V2000
   19.9046    7.8579    0.0000 C   0  0  0  0  0  0  0  0  0  0  0  0
   18.4046    5.2599    0.0000 C   0  0  0  0  0  0  0  0  0  0  0  0
   20.4536    5.8089    0.0000 C   0  0  0  0  0  0  0  0  0  0  0  0
   -2.3800    7.8579    0.0000 C   0  0  0  0  0  0  0  0  0  0  0  0
   -2.9291    5.8089    0.0000 C   0  0  0  0  0  0  0  0  0  0  0  0
   -0.8800    5.2599    0.0000 C   0  0  0  0  0  0  0  0  0  0  0  0
    8.7623    6.5589    0.0000 C   0  0  0  0  0  0  0  0  0  0  0  0
   10.0613    7.3089    0.0000 C   0  0  0  0  0  0  0  0  0  0  0  0
    7.4632    7.3089    0.0000 C   0  0  0  0  0  0  0  0  0  0  0  0
   11.3603    6.5589    0.0000 C   0  0  0  0  0  0  0  0  0  0  0  0
    6.1642    6.5589    0.0000 C   0  0  0  0  0  0  0  0  0  0  0  0
   12.6594    7.3089    0.0000 C   0  0  0  0  0  0  0  0  0  0  0  0
    4.8651    7.3089    0.0000 C   0  0  0  0  0  0  0  0  0  0  0  0
   13.9584    6.5589    0.0000 C   0  0  0  0  0  0  0  0  0  0  0  0
    3.5661    6.5589    0.0000 C   0  0  0  0  0  0  0  0  0  0  0  0
   15.2575    7.3089    0.0000 C   0  0  0  0  0  0  0  0  0  0  0  0
    2.2671    7.3089    0.0000 C   0  0  0  0  0  0  0  0  0  0  0  0
   16.5565    6.5589    0.0000 C   0  0  0  0  0  0  0  0  0  0  0  0
    0.9680    6.5589    0.0000 C   0  0  0  0  0  0  0  0  0  0  0  0
   16.5565    5.0589    0.0000 O   0  0  0  0  0  0  0  0  0  0  0  0
    0.9680    5.0589    0.0000 O   0  0  0  0  0  0  0  0  0  0  0  0
   17.8555    7.3089    0.0000 O   0  0  0  0  0  0  0  0  0  0  0  0
   -0.3310    7.3089    0.0000 O   0  0  0  0  0  0  0  0  0  0  0  0
   19.1546    6.5589    0.0000 Si  0  0  0  0  0  4  0  0  0  0  0  0
   -1.6300    6.5589    0.0000 Si  0  0  0  0  0  4  0  0  0  0  0  0
  8  7  1  0
  9  7  1  0
 10  8  1  0
 11  9  1  0
 12 10  1  0
 13 11  1  0
 14 12  1  0
 15 13  1  0
 16 14  1  0
 17 15  1  0
 18 16  1  0
 19 17  1  0
 20 18  2  0
 21 19  2  0
 22 18  1  0
 23 19  1  0
 24  1  1  0
 24  2  1  0
 24  3  1  0
 24 22  1  0
 25  4  1  0
 25  5  1  0
 25  6  1  0
 25 23  1  0
M  END
>  <NAME>  (5503) 
TRIDECANEDIOIC ACID BIS(TRIMETHYLSILYL) ESTER

>  <SYNONYMS>  (5503) 
DI(TRIMETHYLSILYL) TRIDECANEDIOATE

>  <SPECTRUM TYPE>  (5503) 
MS1

>  <INSTRUMENT TYPE>  (5503) 
EI-B

>  <INSTRUMENT>  (5503) 
JEOL JMS-01-SG

>  <ION MODE>  (5503) 
P

>  <INCHIKEY>  (5503) 
QMAWNDBFLCEGKZ-UHFFFAOYSA-N

>  <FORMULA>  (5503) 
C19H40O4Si2

>  <EXACT MASS>  (5503) 
388.24651282

>  <MW>  (5503) 
388

>  <ID>  (5503) 
JP001068

>  <CONTRIBUTOR>  (5503) 
University of Tokyo Team, {Faculty of Engineering, University of Tokyo

>  <COMMENT>  (5503) 
SMILES=C(CCCCCC(=O)O[Si](C)(C)C)CCCCCC(=O)O[Si](C)(C)C
InChI=InChI=1S/C19H40O4Si2/c1-24(2,3)22-18(20)16-14-12-10-8-7-9-11-13-15-17-19(21)23-25(4,5)6/h7-17H2,1-6H3
computed SMILES=O=C(O[Si](C)(C)C)CCCCCCCCCCCC(=O)O[Si](C)(C)C
accession=JP001068
date=2016.01.19 (Created 2008.10.21, modified 2011.05.06)
author=KOGA M, UNIV. OF OCCUPATIONAL AND ENVIRONMENTAL HEALTH
license=CC BY-NC-SA
exact mass=388.24651
ionization energy=70 eV
ion type=[M]+*
computed spectral entropy=2.487008331075832
computed normalized entropy=0.8446459066303675
SPLASH=splash10-00fr-9211000000-b2de9157431d1d188ae5
submitter=submitter = University of Tokyo Team (Faculty of Engineering, University of Tokyo)
MoNA Rating=3.75

>  <NUM PEAKS>  (5503) 
19

>  <MASS SPECTRAL PEAKS>  (5503) 
45 10
55 28.9
69 12.1
73 99.99
75 79.2
81 14.4
83 15.3
95 1.16
97 10.7
117 27.9
129 24.7
147 1.46
149 20.7
204 18.1
217 22.1
257 1.65
373 39.6
374 12.1
375 3.4

>  <PREDICTED SPECTRUM>  (5503) 
15 10
26 8
27 19
29 76
38 5
39 78
40 9
41 185
42 90
43 156
44 81
45 185
46 56
47 149
48 21
49 55
52 14
53 110
54 90
55 478
56 137
57 209
58 185
59 199
60 77
61 210
62 10
65 8
66 32
67 274
68 105
69 352
70 101
71 100
72 307
73 999
74 227
75 881
76 235
77 237
78 10
79 213
80 119
81 380
82 122
83 274
84 217
85 136
86 73
87 71
88 69
89 140
90 15
91 154
92 16
93 186
94 93
95 283
96 171
97 252
98 293
99 191
100 106
101 172
102 26
103 93
105 131
106 61
107 203
108 85
109 191
110 104
111 199
112 184
113 53
114 42
115 133
116 308
117 519
118 173
119 229
120 64
121 216
122 74
123 106
124 18
125 118
126 63
127 56
128 11
129 590
130 197
131 201
132 257
133 269
134 113
135 155
136 72
137 138
138 63
139 90
140 40
142 58
143 164
144 65
145 334
146 63
147 353
148 193
149 302
150 118
151 90
152 37
153 88
154 67
155 100
156 183
157 136
158 122
159 92
160 40
161 91
162 84
163 119
164 34
165 120
166 67
167 125
168 17
169 54
170 106
171 220
172 97
173 144
174 54
175 55
177 61
179 70
180 126
181 103
182 72
183 62
184 53
185 175
186 118
187 141
188 56
189 151
190 81
191 104
192 56
193 44
199 128
200 99
201 185
202 105
203 151
204 721
205 321
206 214
207 59
208 168
209 148
210 6
211 49
213 142
214 111
215 144
216 140
217 558
218 316
219 22
221 4
225 45
226 46
227 220
228 68
229 123
230 84
231 110
239 84
240 54
241 311
242 197
243 167
244 119
245 97
246 2
254 39
255 244
256 258
257 395
258 267
259 216
262 9
265 116
269 84
270 111
271 55
273 71
283 155
284 39
285 75
287 103
288 4
298 129
299 109
300 71
301 77
302 99
303 6
315 19
316 53
318 3
328 7
329 243
330 122
331 53
344 41
345 39
357 305
358 112
359 78
373 552
374 334
375 272
377 17
388 124
389 83
390 12

$$$$

     RDKit          2D

 26 27  0  0  0  0  0  0  0  0999 V2000
   -6.2797    3.7383    0.0000 C   0  0  0  0  0  0  0  0  0  0  0  0
   -6.8284    1.6892    0.0000 C   0  0  0  0  0  0  0  0  0  0  0  0
   -4.7793    1.1405    0.0000 C   0  0  0  0  0  0  0  0  0  0  0  0
    5.6172   -0.3583    0.0000 C   0  0  0  0  0  0  0  0  0  0  0  0
    6.1659    1.6908    0.0000 C   0  0  0  0  0  0  0  0  0  0  0  0
    4.1168    2.2395    0.0000 C   0  0  0  0  0  0  0  0  0  0  0  0
    0.9575    4.6900    0.0000 C   0  0  0  0  0  0  0  0  0  0  0  0
   -1.6200   -1.3100    0.0000 C   0  0  0  0  0  0  0  0  0  0  0  0
   -0.3325    5.4400    0.0000 C   0  0  0  0  0  0  0  0  0  0  0  0
   -0.3300   -2.0600    0.0000 C   0  0  0  0  0  0  0  0  0  0  0  0
    0.9575    3.1900    0.0000 C   0  0  0  0  0  0  0  0  0  0  0  0
   -1.6200    0.1900    0.0000 C   0  0  0  0  0  0  0  0  0  0  0  0
   -1.6325    4.6900    0.0000 C   0  0  0  0  0  0  0  0  0  0  0  0
    0.9700   -1.3100    0.0000 C   0  0  0  0  0  0  0  0  0  0  0  0
   -0.3325    2.4400    0.0000 C   0  0  0  0  0  0  0  0  0  0  0  0
   -0.3300    0.9400    0.0000 C   0  0  0  0  0  0  0  0  0  0  0  0
   -1.6325    3.1900    0.0000 C   0  0  0  0  0  0  0  0  0  0  0  0
    0.9700    0.1900    0.0000 C   0  0  0  0  0  0  0  0  0  0  0  0
   -2.9314    2.4398    0.0000 C   0  0  0  0  0  0  0  0  0  0  0  0
    2.2689    0.9402    0.0000 C   0  0  0  0  0  0  0  0  0  0  0  0
   -2.9312    0.9398    0.0000 O   0  0  0  0  0  0  0  0  0  0  0  0
    2.2687    2.4402    0.0000 O   0  0  0  0  0  0  0  0  0  0  0  0
   -4.2306    3.1896    0.0000 O   0  0  0  0  0  0  0  0  0  0  0  0
    3.5681    0.1904    0.0000 O   0  0  0  0  0  0  0  0  0  0  0  0
   -5.5295    2.4394    0.0000 Si  0  0  0  0  0  4  0  0  0  0  0  0
    4.8670    0.9406    0.0000 Si  0  0  0  0  0  4  0  0  0  0  0  0
  9  7  2  0
 10  8  2  0
 11  7  1  0
 12  8  1  0
 13  9  1  0
 14 10  1  0
 15 11  2  0
 16 12  2  0
 16 15  1  0
 17 13  2  0
 17 15  1  0
 18 14  2  0
 18 16  1  0
 19 17  1  0
 20 18  1  0
 21 19  2  0
 22 20  2  0
 23 19  1  0
 24 20  1  0
 25  1  1  0
 25  2  1  0
 25  3  1  0
 25 23  1  0
 26  4  1  0
 26  5  1  0
 26  6  1  0
 26 24  1  0
M  END
>  <NAME>  (5504) 
2,2'-BIPHENYLDICARBOXYLIC ACID BIS(TRIMETHYLSILYL) ESTER

>  <SYNONYMS>  (5504) 
DI(TRIMETHYLSILYL) BIPHENYL-2,2'-DICARBOXYLATE

>  <SPECTRUM TYPE>  (5504) 
MS1

>  <INSTRUMENT TYPE>  (5504) 
EI-B

>  <INSTRUMENT>  (5504) 
JEOL JMS-01-SG

>  <ION MODE>  (5504) 
P

>  <INCHIKEY>  (5504) 
WEMHCCRHWUYMOB-UHFFFAOYSA-N

>  <FORMULA>  (5504) 
C20H26O4Si2

>  <EXACT MASS>  (5504) 
386.13696237199997

>  <MW>  (5504) 
386

>  <ID>  (5504) 
JP001067

>  <CONTRIBUTOR>  (5504) 
University of Tokyo Team, {Faculty of Engineering, University of Tokyo

>  <COMMENT>  (5504) 
SMILES=C[Si](C)(C)OC(=O)c(c2)c(ccc2)c(c1)c(ccc1)C(=O)O[Si](C)(C)C
InChI=InChI=1S/C20H26O4Si2/c1-25(2,3)23-19(21)17-13-9-7-11-15(17)16-12-8-10-14-18(16)20(22)24-26(4,5)6/h7-14H,1-6H3
computed SMILES=O=C(O[Si](C)(C)C)C=1C=CC=CC1C=2C=CC=CC2C(=O)O[Si](C)(C)C
accession=JP001067
date=2016.01.19 (Created 2008.10.21, modified 2011.05.06)
author=KOGA M, UNIV. OF OCCUPATIONAL AND ENVIRONMENTAL HEALTH
license=CC BY-NC-SA
exact mass=386.13696
ionization energy=70 eV
ion type=[M]+*
computed spectral entropy=3.3058524438278485
computed normalized entropy=0.8684385476021836
SPLASH=splash10-00fs-4931000000-0b3544d9a8e52018a695
submitter=submitter = University of Tokyo Team (Faculty of Engineering, University of Tokyo)
MoNA Rating=3.75

>  <NUM PEAKS>  (5504) 
45

>  <MASS SPECTRAL PEAKS>  (5504) 
45 65.1
47 9
63 11
72 1.06
73 40.1
74 46.3
75 34.4
76 5.12
77 6.1
104 20
119 29
127 0.86
131 15.5
133 32.3
139 9
147 2.82
148 85.2
149 45
150 15.9
151 2.45
152 22.9
153 7.3
156 19.6
164 4.67
165 20.9
178 99.99
179 25.8
180 2.09
181 11
195 10.6
211 12.2
237 0.69
251 7.7
253 29.5
254 6.9
267 1.02
269 45.4
270 10.2
271 84
272 1.06
327 38.1
328 9.4
371 50.8
372 1.43
373 6.1

>  <PREDICTED SPECTRUM>  (5504) 
31 9
36 1
38 20
39 67
40 41
41 93
42 24
43 141
44 135
45 331
46 66
47 213
48 17
49 44
50 92
51 61
52 49
53 61
55 106
56 26
57 70
58 115
59 290
60 66
61 171
62 89
63 112
64 83
65 122
66 96
67 86
68 24
69 168
70 72
71 63
72 73
73 835
74 259
75 517
76 294
77 284
78 88
79 93
80 13
81 34
82 68
83 72
84 63
85 59
86 82
87 74
88 73
89 210
90 117
91 168
92 143
93 94
94 23
95 41
97 56
98 76
99 154
100 125
101 158
102 67
103 203
104 157
105 151
106 40
107 21
110 4
111 154
112 90
113 81
114 72
115 106
116 117
117 85
118 82
119 169
120 46
121 47
122 60
123 12
124 52
125 96
126 88
127 76
128 81
129 76
130 32
131 178
132 30
133 259
134 135
135 276
136 139
137 56
138 92
139 102
140 59
141 94
142 83
143 85
144 16
145 31
146 56
147 656
148 338
149 364
150 357
151 420
152 325
153 231
154 123
155 105
156 197
157 82
158 29
159 1
160 33
161 27
162 1
163 142
164 112
165 204
166 74
167 45
168 104
169 74
170 57
171 69
172 13
173 6
176 128
177 177
178 264
179 366
180 240
181 185
182 83
183 48
184 3
185 24
187 69
191 20
192 3
193 50
194 14
195 165
196 91
197 124
198 70
199 39
205 45
206 52
207 164
208 69
209 162
210 141
211 255
212 116
213 96
221 48
223 131
224 108
225 96
226 89
227 75
228 13
235 125
236 37
237 121
238 117
239 138
240 44
241 20
243 23
251 165
252 127
253 303
254 150
255 125
256 6
265 1
267 135
268 96
269 999
270 655
271 485
272 208
281 133
282 77
283 51
295 18
296 21
311 23
327 105
328 102
329 36
343 52
371 337
372 204
373 91
374 28
386 40
387 89
388 15

$$$$

     RDKit          2D

 24 24  0  0  0  0  0  0  0  0999 V2000
   -2.3390   -2.6210    0.0000 C   0  0  0  0  0  0  0  0  0  0  0  0
   -2.8881   -4.6700    0.0000 C   0  0  0  0  0  0  0  0  0  0  0  0
   -0.8390   -5.2190    0.0000 C   0  0  0  0  0  0  0  0  0  0  0  0
   -0.8390    4.8790    0.0000 C   0  0  0  0  0  0  0  0  0  0  0  0
   -2.8881    4.3300    0.0000 C   0  0  0  0  0  0  0  0  0  0  0  0
   -2.3390    2.2810    0.0000 C   0  0  0  0  0  0  0  0  0  0  0  0
    5.4564   -0.7183    0.0000 C   0  0  0  0  0  0  0  0  0  0  0  0
    7.5053   -0.1690    0.0000 C   0  0  0  0  0  0  0  0  0  0  0  0
    6.9559    1.8800    0.0000 C   0  0  0  0  0  0  0  0  0  0  0  0
   -1.5900   -0.9200    0.0000 C   0  0  0  0  0  0  0  0  0  0  0  0
   -1.5900    0.5800    0.0000 C   0  0  0  0  0  0  0  0  0  0  0  0
    1.0100   -0.9200    0.0000 C   0  0  0  0  0  0  0  0  0  0  0  0
    2.3089    1.3302    0.0000 C   0  0  0  0  0  0  0  0  0  0  0  0
    1.0100    0.5800    0.0000 C   0  0  0  0  0  0  0  0  0  0  0  0
   -0.2900   -1.6700    0.0000 C   0  0  0  0  0  0  0  0  0  0  0  0
   -0.2900    1.3300    0.0000 C   0  0  0  0  0  0  0  0  0  0  0  0
    3.6081    0.5804    0.0000 C   0  0  0  0  0  0  0  0  0  0  0  0
    3.6083   -0.9196    0.0000 O   0  0  0  0  0  0  0  0  0  0  0  0
   -0.2900   -3.1700    0.0000 O   0  0  0  0  0  0  0  0  0  0  0  0
   -0.2900    2.8300    0.0000 O   0  0  0  0  0  0  0  0  0  0  0  0
    4.9070    1.3306    0.0000 O   0  0  0  0  0  0  0  0  0  0  0  0
   -1.5890   -3.9200    0.0000 Si  0  0  0  0  0  4  0  0  0  0  0  0
   -1.5890    3.5800    0.0000 Si  0  0  0  0  0  4  0  0  0  0  0  0
    6.2062    0.5808    0.0000 Si  0  0  0  0  0  4  0  0  0  0  0  0
 11 10  2  0
 14 12  1  0
 14 13  1  0
 15 10  1  0
 15 12  2  0
 16 11  1  0
 16 14  2  0
 17 13  1  0
 18 17  2  0
 19 15  1  0
 20 16  1  0
 21 17  1  0
 22  1  1  0
 22  2  1  0
 22  3  1  0
 22 19  1  0
 23  4  1  0
 23  5  1  0
 23  6  1  0
 23 20  1  0
 24  7  1  0
 24  8  1  0
 24  9  1  0
 24 21  1  0
M  END
>  <NAME>  (5505) 
2,5-BIS(TRIMETHYLSILYL)OXY-PHENYLACETIC ACID TRIMETHYLSILYL ESTER

>  <SYNONYMS>  (5505) 
TRIMETHYLSILYL 2,5-BIS(TRIMETHYLSILOXY)PHENYLACETATE

>  <SPECTRUM TYPE>  (5505) 
MS1

>  <INSTRUMENT TYPE>  (5505) 
EI-B

>  <INSTRUMENT>  (5505) 
JEOL JMS-01-SG

>  <ION MODE>  (5505) 
P

>  <INCHIKEY>  (5505) 
NLTJSNRUCPSKFR-UHFFFAOYSA-N

>  <FORMULA>  (5505) 
C17H32O4Si3

>  <EXACT MASS>  (5505) 
384.160839094

>  <MW>  (5505) 
384

>  <ID>  (5505) 
JP001066

>  <CONTRIBUTOR>  (5505) 
University of Tokyo Team, {Faculty of Engineering, University of Tokyo

>  <COMMENT>  (5505) 
SMILES=O=C(O[Si](C)(C)C)Cc(c1)c(ccc(O[Si](C)(C)C)1)O[Si](C)(C)C
InChI=InChI=1S/C17H32O4Si3/c1-22(2,3)19-15-10-11-16(20-23(4,5)6)14(12-15)13-17(18)21-24(7,8)9/h10-12H,13H2,1-9H3
computed SMILES=O=C(O[Si](C)(C)C)CC1=CC(O[Si](C)(C)C)=CC=C1O[Si](C)(C)C
accession=JP001066
date=2016.01.19 (Created 2008.10.21, modified 2011.05.06)
author=KOGA M, UNIV. OF OCCUPATIONAL AND ENVIRONMENTAL HEALTH
license=CC BY-NC-SA
exact mass=384.16084
ionization energy=70 eV
ion type=[M]+*
computed spectral entropy=2.152557810443486
computed normalized entropy=0.7597584611689501
SPLASH=splash10-00di-9115000000-7c0d44de143ef3494e67
submitter=submitter = University of Tokyo Team (Faculty of Engineering, University of Tokyo)
MoNA Rating=3.75

>  <NUM PEAKS>  (5505) 
17

>  <MASS SPECTRAL PEAKS>  (5505) 
45 14.6
47 5.2
73 99.99
74 0.73
75 23.9
77 6.5
147 24.3
194 0.93
237 11.7
252 16.6
341 30.8
342 0.77
343 4
369 4
384 39.4
385 1.09
386 5.2

>  <PREDICTED SPECTRUM>  (5505) 
28 4
29 26
43 68
44 85
45 309
46 38
47 90
51 14
53 1
55 24
57 79
58 73
59 117
60 16
61 40
66 19
67 20
69 58
70 7
71 7
72 56
73 999
74 286
75 344
76 50
77 164
78 36
79 29
80 14
81 35
84 8
87 11
88 4
89 30
91 68
93 28
95 7
96 14
97 18
99 35
101 60
102 22
103 79
104 50
105 65
106 16
107 3
109 0
111 2
114 2
115 59
116 42
117 108
118 0
119 29
121 4
129 30
131 100
132 9
133 130
134 30
135 85
136 3
137 34
139 6
145 11
146 20
147 330
148 131
149 119
150 49
151 78
152 35
155 0
161 40
163 100
164 71
165 119
166 61
167 66
168 51
169 37
171 12
175 19
176 9
177 122
178 83
179 123
180 73
181 49
182 12
183 11
185 12
189 72
190 60
191 94
192 45
193 153
194 95
195 60
197 2
204 18
205 49
206 44
207 154
208 75
209 136
210 48
219 69
220 29
221 229
222 96
223 133
224 26
225 33
235 53
236 55
237 117
238 79
239 86
240 0
249 8
250 23
251 222
252 116
253 161
254 63
255 28
265 142
266 162
267 381
268 202
269 105
279 86
280 50
281 98
282 6
283 37
293 36
294 136
295 159
296 113
297 56
298 0
309 33
310 17
311 54
312 37
325 67
326 11
339 60
340 77
341 136
342 75
355 25
367 2
369 307
370 190
371 80
372 25
384 925
385 499
386 323
387 174
388 57

$$$$

     RDKit          2D

 24 24  0  0  0  0  0  0  0  0999 V2000
   -4.3873    5.4205    0.0000 C   0  0  0  0  0  0  0  0  0  0  0  0
   -2.8873    6.9205    0.0000 C   0  0  0  0  0  0  0  0  0  0  0  0
   -1.3873    5.4205    0.0000 C   0  0  0  0  0  0  0  0  0  0  0  0
   -1.3881   -0.5804    0.0000 C   0  0  0  0  0  0  0  0  0  0  0  0
   -2.8883   -2.0802    0.0000 C   0  0  0  0  0  0  0  0  0  0  0  0
   -4.3881   -0.5799    0.0000 C   0  0  0  0  0  0  0  0  0  0  0  0
    6.9560    0.3714    0.0000 C   0  0  0  0  0  0  0  0  0  0  0  0
    7.5050    2.4205    0.0000 C   0  0  0  0  0  0  0  0  0  0  0  0
    5.4560    2.9695    0.0000 C   0  0  0  0  0  0  0  0  0  0  0  0
    1.0103    3.1713    0.0000 C   0  0  0  0  0  0  0  0  0  0  0  0
   -0.2887    3.9213    0.0000 C   0  0  0  0  0  0  0  0  0  0  0  0
   -0.2897    0.9196    0.0000 C   0  0  0  0  0  0  0  0  0  0  0  0
    2.3089    0.9205    0.0000 C   0  0  0  0  0  0  0  0  0  0  0  0
    1.0098    1.6705    0.0000 C   0  0  0  0  0  0  0  0  0  0  0  0
   -1.5882    3.1705    0.0000 C   0  0  0  0  0  0  0  0  0  0  0  0
   -1.5887    1.6696    0.0000 C   0  0  0  0  0  0  0  0  0  0  0  0
    3.6079    1.6705    0.0000 C   0  0  0  0  0  0  0  0  0  0  0  0
    3.6079    3.1705    0.0000 O   0  0  0  0  0  0  0  0  0  0  0  0
   -2.8873    3.9205    0.0000 O   0  0  0  0  0  0  0  0  0  0  0  0
   -2.8879    0.9198    0.0000 O   0  0  0  0  0  0  0  0  0  0  0  0
    4.9070    0.9205    0.0000 O   0  0  0  0  0  0  0  0  0  0  0  0
   -2.8873    5.4205    0.0000 Si  0  0  0  0  0  4  0  0  0  0  0  0
   -2.8881   -0.5802    0.0000 Si  0  0  0  0  0  4  0  0  0  0  0  0
    6.2060    1.6705    0.0000 Si  0  0  0  0  0  4  0  0  0  0  0  0
 11 10  2  0
 14 10  1  0
 14 12  2  0
 14 13  1  0
 15 11  1  0
 16 12  1  0
 16 15  2  0
 17 13  1  0
 18 17  2  0
 19 15  1  0
 20 16  1  0
 21 17  1  0
 22  1  1  0
 22  2  1  0
 22  3  1  0
 22 19  1  0
 23  4  1  0
 23  5  1  0
 23  6  1  0
 23 20  1  0
 24  7  1  0
 24  8  1  0
 24  9  1  0
 24 21  1  0
M  END
>  <NAME>  (5506) 
3,4-BIS(TRIMETHYLSILYL)OXY-PHENYLACETIC ACID TRIMETHYLSILYL ESTER

>  <SYNONYMS>  (5506) 
TRIMETHYLSILYL 3,4-BIS(TRIMETHYLSILOXY)PHENYLACETATE

>  <SPECTRUM TYPE>  (5506) 
MS1

>  <INSTRUMENT TYPE>  (5506) 
EI-B

>  <INSTRUMENT>  (5506) 
JEOL JMS-01-SG

>  <ION MODE>  (5506) 
P

>  <INCHIKEY>  (5506) 
RYYDTJQPEUISHG-UHFFFAOYSA-N

>  <FORMULA>  (5506) 
C17H32O4Si3

>  <EXACT MASS>  (5506) 
384.160839094

>  <MW>  (5506) 
384

>  <ID>  (5506) 
JP001065

>  <CONTRIBUTOR>  (5506) 
University of Tokyo Team, {Faculty of Engineering, University of Tokyo

>  <COMMENT>  (5506) 
SMILES=O=C(O[Si](C)(C)C)Cc(c1)cc(O[Si](C)(C)C)c(c1)O[Si](C)(C)C
InChI=InChI=1S/C17H32O4Si3/c1-22(2,3)19-15-11-10-14(12-16(15)20-23(4,5)6)13-17(18)21-24(7,8)9/h10-12H,13H2,1-9H3
computed SMILES=O=C(O[Si](C)(C)C)CC1=CC=C(O[Si](C)(C)C)C(O[Si](C)(C)C)=C1
accession=JP001065
date=2016.01.19 (Created 2008.10.21, modified 2011.05.06)
author=KOGA M, UNIV. OF OCCUPATIONAL AND ENVIRONMENTAL HEALTH
license=CC BY-NC-SA
exact mass=384.16084
ionization energy=70 eV
ion type=[M]+*
computed spectral entropy=1.991561559566914
computed normalized entropy=0.7546488426824963
SPLASH=splash10-00di-9322000000-b440b7bb3df48685d539
submitter=submitter = University of Tokyo Team (Faculty of Engineering, University of Tokyo)
MoNA Rating=3.75

>  <NUM PEAKS>  (5506) 
14

>  <MASS SPECTRAL PEAKS>  (5506) 
45 29.4
73 99.99
74 8.5
75 1.44
77 5.8
179 49.5
180 7.4
237 1.21
267 32
268 7.9
340 3.3
369 0.71
384 29.4
385 9.8

>  <PREDICTED SPECTRUM>  (5506) 
28 5
29 46
43 63
44 160
45 300
46 57
47 46
53 4
55 40
56 4
57 62
58 31
59 111
60 55
61 89
63 37
69 22
71 6
72 20
73 999
74 279
75 307
76 87
77 120
78 27
81 8
82 0
88 10
89 43
90 3
91 77
92 28
99 7
101 5
102 48
103 65
104 24
105 97
106 19
115 38
116 21
117 91
119 80
129 5
131 38
133 98
135 74
147 248
148 122
149 184
150 8
151 20
163 68
164 53
165 54
166 16
177 87
178 78
179 559
180 133
181 64
189 83
190 41
191 66
192 0
193 202
194 69
205 97
206 90
207 160
208 67
209 41
221 89
223 100
224 31
225 6
251 53
252 91
253 130
254 40
265 190
266 93
267 737
268 317
269 111
270 2
279 11
280 74
281 197
282 41
293 41
294 43
295 83
296 62
297 14
311 10
312 30
369 311
370 174
371 90
384 839
385 401
386 321
387 120
388 56

$$$$

     RDKit          2D

 24 24  0  0  0  0  0  0  0  0999 V2000
    7.4346   -1.4102    0.0000 C   0  0  0  0  0  0  0  0  0  0  0  0
    7.9668    0.6433    0.0000 C   0  0  0  0  0  0  0  0  0  0  0  0
    5.9133    1.1754    0.0000 C   0  0  0  0  0  0  0  0  0  0  0  0
   -0.3600    5.6883    0.0000 C   0  0  0  0  0  0  0  0  0  0  0  0
   -2.4117    5.1493    0.0000 C   0  0  0  0  0  0  0  0  0  0  0  0
   -1.8727    3.0976    0.0000 C   0  0  0  0  0  0  0  0  0  0  0  0
   -4.4728    2.7085    0.0000 C   0  0  0  0  0  0  0  0  0  0  0  0
   -5.0319    0.6622    0.0000 C   0  0  0  0  0  0  0  0  0  0  0  0
   -2.9856    0.1030    0.0000 C   0  0  0  0  0  0  0  0  0  0  0  0
    2.7660    2.1302    0.0000 C   0  0  0  0  0  0  0  0  0  0  0  0
    1.4524   -0.0947    0.0000 C   0  0  0  0  0  0  0  0  0  0  0  0
    4.0505    1.4053    0.0000 C   0  0  0  0  0  0  0  0  0  0  0  0
    2.7769   -0.8888    0.0000 C   0  0  0  0  0  0  0  0  0  0  0  0
    1.4669    1.3802    0.0000 C   0  0  0  0  0  0  0  0  0  0  0  0
    4.0760   -0.1388    0.0000 C   0  0  0  0  0  0  0  0  0  0  0  0
    0.1716    2.1366    0.0000 C   0  0  0  0  0  0  0  0  0  0  0  0
   -1.1311    1.3930    0.0000 C   0  0  0  0  0  0  0  0  0  0  0  0
   -1.1385   -0.1070    0.0000 O   0  0  0  0  0  0  0  0  0  0  0  0
    5.3811   -0.8781    0.0000 O   0  0  0  0  0  0  0  0  0  0  0  0
    0.1790    3.6365    0.0000 O   0  0  0  0  0  0  0  0  0  0  0  0
   -2.4265    2.1493    0.0000 O   0  0  0  0  0  0  0  0  0  0  0  0
    6.6740   -0.1174    0.0000 Si  0  0  0  0  0  4  0  0  0  0  0  0
   -1.1164    4.3929    0.0000 Si  0  0  0  0  0  4  0  0  0  0  0  0
   -3.7292    1.4058    0.0000 Si  0  0  0  0  0  4  0  0  0  0  0  0
 12 10  2  0
 13 11  1  0
 14 10  1  0
 14 11  2  0
 15 12  1  0
 15 13  2  0
 16 14  1  0
 17 16  1  0
 18 17  2  0
 19 15  1  0
 20 16  1  0
 21 17  1  0
 22  1  1  0
 22  2  1  0
 22  3  1  0
 22 19  1  0
 23  4  1  0
 23  5  1  0
 23  6  1  0
 23 20  1  0
 24  7  1  0
 24  8  1  0
 24  9  1  0
 24 21  1  0
M  END
>  <NAME>  (5507) 
DL-PARA-ALPHA-BIS(TRIMETHYLSILYL)OXY-PHENYLACETIC ACID TRIMETHYLSILYL ESTER

>  <SYNONYMS>  (5507) 
TRIMETHYLSILYL ALPHA-TRIMETHYLSILOXY-ALPHA-(4-TRIMETHYLSILOXYPHENYL)ACETATE

>  <SPECTRUM TYPE>  (5507) 
MS1

>  <INSTRUMENT TYPE>  (5507) 
EI-B

>  <INSTRUMENT>  (5507) 
JEOL JMS-01-SG

>  <ION MODE>  (5507) 
P

>  <INCHIKEY>  (5507) 
YPRXSYQBVBCYJZ-UHFFFAOYSA-N

>  <FORMULA>  (5507) 
C17H32O4Si3

>  <EXACT MASS>  (5507) 
384.160839094

>  <MW>  (5507) 
384

>  <ID>  (5507) 
JP001064

>  <CONTRIBUTOR>  (5507) 
University of Tokyo Team, {Faculty of Engineering, University of Tokyo

>  <COMMENT>  (5507) 
SMILES=C[Si](C)(C)Oc(c1)ccc(c1)C(O[Si](C)(C)C)C(=O)O[Si](C)(C)C
InChI=InChI=1S/C17H32O4Si3/c1-22(2,3)19-15-12-10-14(11-13-15)16(20-23(4,5)6)17(18)21-24(7,8)9/h10-13,16H,1-9H3
computed SMILES=O=C(O[Si](C)(C)C)C(O[Si](C)(C)C)C1=CC=C(O[Si](C)(C)C)C=C1
accession=JP001064
date=2016.01.19 (Created 2008.10.21, modified 2011.05.06)
author=KOGA M, UNIV. OF OCCUPATIONAL AND ENVIRONMENTAL HEALTH
license=CC BY-NC-SA
exact mass=384.16084
ionization energy=70 eV
ion type=[M]+*
computed spectral entropy=1.4989485668854454
computed normalized entropy=0.6509850912551363
SPLASH=splash10-01b9-7190000000-9e5c412c5839d9736824
submitter=submitter = University of Tokyo Team (Faculty of Engineering, University of Tokyo)
MoNA Rating=3.75

>  <NUM PEAKS>  (5507) 
10

>  <MASS SPECTRAL PEAKS>  (5507) 
45 9.4
73 73.9
74 6
75 0.96
148 13.1
193 6.4
267 99.99
268 2.26
269 8.5
341 5

>  <PREDICTED SPECTRUM>  (5507) 
29 50
40 5
41 4
42 8
43 66
44 99
45 273
46 67
47 105
48 2
51 12
52 7
55 28
57 12
58 29
59 89
61 51
66 1
69 51
71 25
73 678
74 170
75 226
76 35
77 142
78 33
79 16
87 40
88 32
89 19
91 22
93 0
99 12
100 23
101 9
102 24
103 3
105 39
117 72
118 13
119 80
120 6
121 4
125 16
133 110
134 7
135 38
145 3
147 311
148 134
149 128
150 28
151 31
163 12
177 115
178 33
179 103
193 235
194 50
195 29
196 6
205 38
207 10
221 58
237 46
251 39
252 9
265 11
267 999
268 411
269 282
270 91
341 264
342 144
343 80
369 116
370 36
371 26
384 85
385 15

$$$$

     RDKit          2D

 26 25  0  0  0  0  0  0  0  0999 V2000
  -20.0481   12.2243    0.0000 C   0  0  0  0  0  0  0  0  0  0  0  0
  -18.7490    9.9743    0.0000 C   0  0  0  0  0  0  0  0  0  0  0  0
    6.6827   10.9252    0.0000 C   0  0  0  0  0  0  0  0  0  0  0  0
    7.2317   12.9743    0.0000 C   0  0  0  0  0  0  0  0  0  0  0  0
    5.1827   13.5233    0.0000 C   0  0  0  0  0  0  0  0  0  0  0  0
   -8.3567   11.4743    0.0000 C   0  0  0  0  0  0  0  0  0  0  0  0
   -7.0577   12.2243    0.0000 C   0  0  0  0  0  0  0  0  0  0  0  0
   -9.6558   12.2243    0.0000 C   0  0  0  0  0  0  0  0  0  0  0  0
   -5.7587   11.4743    0.0000 C   0  0  0  0  0  0  0  0  0  0  0  0
  -10.9548   11.4743    0.0000 C   0  0  0  0  0  0  0  0  0  0  0  0
   -4.4596   12.2243    0.0000 C   0  0  0  0  0  0  0  0  0  0  0  0
  -12.2538   12.2243    0.0000 C   0  0  0  0  0  0  0  0  0  0  0  0
   -3.1606   11.4743    0.0000 C   0  0  0  0  0  0  0  0  0  0  0  0
  -13.5529   11.4743    0.0000 C   0  0  0  0  0  0  0  0  0  0  0  0
   -1.8615   12.2243    0.0000 C   0  0  0  0  0  0  0  0  0  0  0  0
  -14.8519   12.2243    0.0000 C   0  0  0  0  0  0  0  0  0  0  0  0
   -0.5625   11.4743    0.0000 C   0  0  0  0  0  0  0  0  0  0  0  0
  -16.1510   11.4743    0.0000 C   0  0  0  0  0  0  0  0  0  0  0  0
    0.7365   12.2243    0.0000 C   0  0  0  0  0  0  0  0  0  0  0  0
  -17.4500   12.2243    0.0000 C   0  0  0  0  0  0  0  0  0  0  0  0
    2.0356   11.4743    0.0000 C   0  0  0  0  0  0  0  0  0  0  0  0
  -18.7490   11.4743    0.0000 C   0  0  0  0  0  0  0  0  0  0  0  0
    3.3346   12.2243    0.0000 C   0  0  0  0  0  0  0  0  0  0  0  0
    3.3346   13.7243    0.0000 O   0  0  0  0  0  0  0  0  0  0  0  0
    4.6337   11.4743    0.0000 O   0  0  0  0  0  0  0  0  0  0  0  0
    5.9327   12.2243    0.0000 Si  0  0  0  0  0  4  0  0  0  0  0  0
  7  6  1  0
  8  6  1  0
  9  7  1  0
 10  8  1  0
 11  9  1  0
 12 10  1  0
 13 11  1  0
 14 12  1  0
 15 13  1  0
 16 14  1  0
 17 15  1  0
 18 16  1  0
 19 17  1  0
 20 18  1  0
 21 19  1  0
 22  1  1  0
 22  2  1  0
 22 20  1  0
 23 21  1  0
 24 23  2  0
 25 23  1  0
 26  3  1  0
 26  4  1  0
 26  5  1  0
 26 25  1  0
M  END
>  <NAME>  (5508) 
18-METHYLNONADECANOIC ACID TRIMETHYLSILYLESTER

>  <SYNONYMS>  (5508) 
TRIMETHYLSILYL 18-METHYLNONADECANOATE

>  <SPECTRUM TYPE>  (5508) 
MS1

>  <INSTRUMENT TYPE>  (5508) 
EI-B

>  <INSTRUMENT>  (5508) 
JEOL JMS-01-SG

>  <ION MODE>  (5508) 
P

>  <INCHIKEY>  (5508) 
UHFRRFHGAYNJOT-UHFFFAOYSA-N

>  <FORMULA>  (5508) 
C23H48O2Si

>  <EXACT MASS>  (5508) 
384.342357306

>  <MW>  (5508) 
384

>  <ID>  (5508) 
JP001063

>  <CONTRIBUTOR>  (5508) 
University of Tokyo Team, {Faculty of Engineering, University of Tokyo

>  <COMMENT>  (5508) 
SMILES=CC(C)CCCCCCCCCCCCCCCCC(=O)O[Si](C)(C)C
InChI=InChI=1S/C23H48O2Si/c1-22(2)20-18-16-14-12-10-8-6-7-9-11-13-15-17-19-21-23(24)25-26(3,4)5/h22H,6-21H2,1-5H3
computed SMILES=O=C(O[Si](C)(C)C)CCCCCCCCCCCCCCCCC(C)C
accession=JP001063
date=2016.01.19 (Created 2008.10.21, modified 2011.05.06)
author=KOGA M, UNIV. OF OCCUPATIONAL AND ENVIRONMENTAL HEALTH
license=CC BY-NC-SA
exact mass=384.34236
ionization energy=70 eV
ion type=[M]+*
computed spectral entropy=2.8788278280183706
computed normalized entropy=0.7607514703319843
SPLASH=splash10-01di-9500000000-a348f3919f0dc4b9e0a9
submitter=submitter = University of Tokyo Team (Faculty of Engineering, University of Tokyo)
MoNA Rating=3.75

>  <NUM PEAKS>  (5508) 
44

>  <MASS SPECTRAL PEAKS>  (5508) 
43 33.7
45 4.9
47 3.6
55 2.68
56 6.6
57 21.4
61 4.1
67 0.73
69 17.9
71 6.8
73 99.99
74 0.91
75 75.6
76 4.9
77 5.1
81 0.73
83 10.5
84 3.6
85 3.2
95 0.71
97 7.6
98 6.1
109 3.2
111 0.44
116 4.1
117 92.6
118 8.3
119 0.34
129 30.5
130 4.4
131 11.5
132 4.18
133 9.1
134 2.7
143 2.9
145 3.17
146 4.4
159 2.9
185 2.7
187 0.24
201 6.1
369 22.4
370 6.8
384 2.2

>  <PREDICTED SPECTRUM>  (5508) 
15 7
27 43
28 1
29 84
39 64
40 4
41 239
42 128
43 402
44 119
45 122
46 52
47 84
53 82
54 91
55 496
56 240
57 531
58 184
59 168
60 49
61 160
62 20
67 222
68 123
69 390
70 219
71 291
72 178
73 999
74 249
75 798
76 220
77 232
78 56
79 91
80 35
81 295
82 132
83 356
84 196
85 170
86 46
87 70
88 55
89 153
90 23
91 144
92 34
93 167
94 42
95 324
96 203
97 266
98 256
99 129
101 91
102 28
103 121
104 21
105 94
107 184
108 27
109 131
110 87
111 141
112 141
113 59
114 2
115 101
116 221
117 947
118 266
119 187
120 19
121 217
123 78
125 104
126 24
127 2
129 663
130 206
131 335
132 659
133 357
134 167
135 99
137 18
138 1
139 52
141 14
143 291
144 17
145 651
146 279
147 132
148 20
149 97
151 29
152 28
153 30
155 0
157 30
158 117
159 253
160 115
161 74
162 26
163 42
167 65
168 36
169 19
171 209
172 73
173 152
174 60
175 35
176 1
181 46
182 5
183 10
185 187
186 65
187 186
188 101
189 23
195 62
199 102
201 154
202 42
209 24
210 32
213 47
215 98
216 51
217 15
223 86
224 8
225 17
227 141
229 54
230 0
237 44
241 59
243 48
253 73
254 0
255 85
257 43
258 22
259 22
265 10
269 109
271 118
273 25
277 10
283 77
285 81
286 63
294 72
295 20
297 67
299 96
300 4
311 20
312 0
313 90
314 34
325 164
326 26
327 90
328 45
329 12
341 230
342 190
343 12
351 25
353 55
355 48
369 873
370 500
371 245
372 94
384 254
385 139
386 58

$$$$

     RDKit          2D

 23 22  0  0  0  0  0  0  0  0999 V2000
    5.5010    5.1834    0.0000 C   0  0  0  0  0  0  0  0  0  0  0  0
   -1.4094    2.7353    0.0000 C   0  0  0  0  0  0  0  0  0  0  0  0
    0.0906    5.3334    0.0000 C   0  0  0  0  0  0  0  0  0  0  0  0
   -1.9584    4.7844    0.0000 C   0  0  0  0  0  0  0  0  0  0  0  0
   10.4829    2.7353    0.0000 C   0  0  0  0  0  0  0  0  0  0  0  0
   11.0320    4.7844    0.0000 C   0  0  0  0  0  0  0  0  0  0  0  0
    8.9829    5.3334    0.0000 C   0  0  0  0  0  0  0  0  0  0  0  0
    5.4952    6.0799    0.0000 C   0  0  0  0  0  0  0  0  0  0  0  0
    4.5987    8.0025    0.0000 C   0  0  0  0  0  0  0  0  0  0  0  0
    2.6761    7.1060    0.0000 C   0  0  0  0  0  0  0  0  0  0  0  0
    3.2377    3.2844    0.0000 C   0  0  0  0  0  0  0  0  0  0  0  0
    5.8358    3.2844    0.0000 C   0  0  0  0  0  0  0  0  0  0  0  0
    1.9387    4.0344    0.0000 C   0  0  0  0  0  0  0  0  0  0  0  0
    7.1349    4.0344    0.0000 C   0  0  0  0  0  0  0  0  0  0  0  0
    4.5368    4.0344    0.0000 C   0  0  0  0  0  0  0  0  0  0  0  0
    1.9387    5.5344    0.0000 O   0  0  0  0  0  0  0  0  0  0  0  0
    7.1349    5.5344    0.0000 O   0  0  0  0  0  0  0  0  0  0  0  0
    0.6397    3.2844    0.0000 O   0  0  0  0  0  0  0  0  0  0  0  0
    8.4339    3.2844    0.0000 O   0  0  0  0  0  0  0  0  0  0  0  0
    3.5726    5.1834    0.0000 O   0  0  0  0  0  0  0  0  0  0  0  0
   -0.6594    4.0344    0.0000 Si  0  0  0  0  0  4  0  0  0  0  0  0
    9.7329    4.0344    0.0000 Si  0  0  0  0  0  4  0  0  0  0  0  0
    4.0856    6.5930    0.0000 Si  0  0  0  0  0  4  0  0  0  0  0  0
 13 11  1  0
 14 12  1  0
 15  1  1  0
 15 11  1  0
 15 12  1  0
 16 13  2  0
 17 14  2  0
 18 13  1  0
 19 14  1  0
 20 15  1  0
 21  2  1  0
 21  3  1  0
 21  4  1  0
 21 18  1  0
 22  5  1  0
 22  6  1  0
 22  7  1  0
 22 19  1  0
 23  8  1  0
 23  9  1  0
 23 10  1  0
 23 20  1  0
M  END
>  <NAME>  (5509) 
3-METHYL-3-(TRIMETHYLSILYL)OXYGLUTARIC ACID BIS(TRIMETHYLSILYL) ESTER

>  <SYNONYMS>  (5509) 
DI(TRIMETHYLSILYL) 3-METHYL-3-TRIMETHYLSILOXYPENTANEDIOATE

>  <SPECTRUM TYPE>  (5509) 
MS1

>  <INSTRUMENT TYPE>  (5509) 
EI-B

>  <INSTRUMENT>  (5509) 
JEOL JMS-01-SG

>  <ION MODE>  (5509) 
P

>  <INCHIKEY>  (5509) 
SWDDFRVEZJUJJD-UHFFFAOYSA-N

>  <FORMULA>  (5509) 
C15H34O5Si3

>  <EXACT MASS>  (5509) 
378.17140377799996

>  <MW>  (5509) 
378

>  <ID>  (5509) 
JP001062

>  <CONTRIBUTOR>  (5509) 
University of Tokyo Team, {Faculty of Engineering, University of Tokyo

>  <COMMENT>  (5509) 
SMILES=O=C(O[Si](C)(C)C)CC(C)(CC(=O)O[Si](C)(C)C)O[Si](C)(C)C
InChI=InChI=1S/C15H34O5Si3/c1-15(20-23(8,9)10,11-13(16)18-21(2,3)4)12-14(17)19-22(5,6)7/h11-12H2,1-10H3
computed SMILES=O=C(O[Si](C)(C)C)CC(O[Si](C)(C)C)(C)CC(=O)O[Si](C)(C)C
accession=JP001062
date=2016.01.19 (Created 2008.10.21, modified 2011.05.06)
author=KOGA M, UNIV. OF OCCUPATIONAL AND ENVIRONMENTAL HEALTH
license=CC BY-NC-SA
exact mass=378.1714
ionization energy=70 eV
ion type=[M]+*
computed spectral entropy=2.5700136565484044
computed normalized entropy=0.8196518569519431
SPLASH=splash10-00dj-9620000000-873e16d7029f10b64b9e
submitter=submitter = University of Tokyo Team (Faculty of Engineering, University of Tokyo)
MoNA Rating=3.75

>  <NUM PEAKS>  (5509) 
23

>  <MASS SPECTRAL PEAKS>  (5509) 
43 5.2
45 10.4
55 7
73 99.99
74 10
75 29.7
83 5.5
85 0.53
109 15.5
115 20.9
117 7.2
133 0.55
147 48
148 7.5
149 7.8
183 0.69
199 21.7
203 10
231 17.8
247 3.34
248 7.2
273 15.4
363 8.9

>  <PREDICTED SPECTRUM>  (5509) 
14 0
15 1
18 11
27 55
28 36
29 32
31 12
39 52
41 100
42 9
43 198
44 142
45 246
46 41
47 125
51 0
52 3
53 82
54 39
55 186
56 64
57 98
58 62
59 158
60 58
61 89
65 10
66 54
67 51
69 48
70 30
71 41
72 101
73 999
74 333
75 512
76 104
77 109
79 30
81 102
82 41
83 64
85 76
86 48
87 68
88 19
89 48
91 44
93 29
95 5
97 94
99 168
100 37
101 151
102 107
103 31
104 9
105 80
109 67
111 82
113 82
114 13
115 216
116 176
117 195
118 27
119 74
127 102
128 45
129 294
130 155
131 259
132 44
133 239
134 45
135 76
141 9
142 9
143 187
144 53
145 182
146 91
147 623
148 292
149 366
150 143
151 47
155 63
156 26
157 169
158 80
159 85
161 70
169 24
170 29
171 229
172 76
173 95
174 0
175 63
177 31
179 4
189 101
190 59
191 61
199 110
201 104
203 82
204 52
205 121
206 53
207 21
208 27
209 64
216 21
217 197
218 102
219 97
220 40
221 83
229 58
230 61
231 242
232 182
233 253
234 160
235 145
236 52
237 11
245 256
246 89
247 355
248 175
249 42
259 44
260 31
261 319
262 176
263 151
264 38
265 53
273 205
274 64
275 34
288 6
291 11
306 10
320 11
335 71
349 26
363 302
364 130
365 83
366 8
378 60
379 7

$$$$

     RDKit          2D

 24 23  0  0  0  0  0  0  0  0999 V2000
   19.1178    6.9707    0.0000 C   0  0  0  0  0  0  0  0  0  0  0  0
   17.6178    4.3726    0.0000 C   0  0  0  0  0  0  0  0  0  0  0  0
   19.6668    4.9216    0.0000 C   0  0  0  0  0  0  0  0  0  0  0  0
   -0.3678    7.7207    0.0000 C   0  0  0  0  0  0  0  0  0  0  0  0
   -2.4168    7.1716    0.0000 C   0  0  0  0  0  0  0  0  0  0  0  0
   -1.8678    5.1226    0.0000 C   0  0  0  0  0  0  0  0  0  0  0  0
    9.2745    6.4216    0.0000 C   0  0  0  0  0  0  0  0  0  0  0  0
    7.9755    5.6716    0.0000 C   0  0  0  0  0  0  0  0  0  0  0  0
   10.5736    5.6716    0.0000 C   0  0  0  0  0  0  0  0  0  0  0  0
    6.6764    6.4216    0.0000 C   0  0  0  0  0  0  0  0  0  0  0  0
   11.8726    6.4216    0.0000 C   0  0  0  0  0  0  0  0  0  0  0  0
    5.3774    5.6716    0.0000 C   0  0  0  0  0  0  0  0  0  0  0  0
   13.1716    5.6716    0.0000 C   0  0  0  0  0  0  0  0  0  0  0  0
    4.0784    6.4216    0.0000 C   0  0  0  0  0  0  0  0  0  0  0  0
   14.4707    6.4216    0.0000 C   0  0  0  0  0  0  0  0  0  0  0  0
    2.7793    5.6716    0.0000 C   0  0  0  0  0  0  0  0  0  0  0  0
   15.7697    5.6716    0.0000 C   0  0  0  0  0  0  0  0  0  0  0  0
    1.4803    6.4216    0.0000 C   0  0  0  0  0  0  0  0  0  0  0  0
   15.7697    4.1716    0.0000 O   0  0  0  0  0  0  0  0  0  0  0  0
    1.4803    7.9216    0.0000 O   0  0  0  0  0  0  0  0  0  0  0  0
   17.0687    6.4216    0.0000 O   0  0  0  0  0  0  0  0  0  0  0  0
    0.1813    5.6716    0.0000 O   0  0  0  0  0  0  0  0  0  0  0  0
   18.3678    5.6716    0.0000 Si  0  0  0  0  0  4  0  0  0  0  0  0
   -1.1178    6.4216    0.0000 Si  0  0  0  0  0  4  0  0  0  0  0  0
  8  7  1  0
  9  7  1  0
 10  8  1  0
 11  9  1  0
 12 10  1  0
 13 11  1  0
 14 12  1  0
 15 13  1  0
 16 14  1  0
 17 15  1  0
 18 16  1  0
 19 17  2  0
 20 18  2  0
 21 17  1  0
 22 18  1  0
 23  1  1  0
 23  2  1  0
 23  3  1  0
 23 21  1  0
 24  4  1  0
 24  5  1  0
 24  6  1  0
 24 22  1  0
M  END
>  <NAME>  (5510) 
DODECANEDIOIC ACID BIS(TRIMETHYLSILYL) EST

>  <SYNONYMS>  (5510) 
ERDI(TRIMETHYLSILYL) DODECANEDIOATE

>  <SPECTRUM TYPE>  (5510) 
MS1

>  <INSTRUMENT TYPE>  (5510) 
EI-B

>  <INSTRUMENT>  (5510) 
JEOL JMS-01-SG

>  <ION MODE>  (5510) 
P

>  <INCHIKEY>  (5510) 
RJYFZCUYOIINDS-UHFFFAOYSA-N

>  <FORMULA>  (5510) 
C18H38O4Si2

>  <EXACT MASS>  (5510) 
374.23086275599996

>  <MW>  (5510) 
374

>  <ID>  (5510) 
JP001060

>  <CONTRIBUTOR>  (5510) 
University of Tokyo Team, {Faculty of Engineering, University of Tokyo

>  <COMMENT>  (5510) 
SMILES=C(CCCCCC(=O)O[Si](C)(C)C)CCCCC(=O)O[Si](C)(C)C
InChI=InChI=1S/C18H38O4Si2/c1-23(2,3)21-17(19)15-13-11-9-7-8-10-12-14-16-18(20)22-24(4,5)6/h7-16H2,1-6H3
computed SMILES=O=C(O[Si](C)(C)C)CCCCCCCCCCC(=O)O[Si](C)(C)C
accession=JP001060
date=2016.01.19 (Created 2008.10.21, modified 2011.05.06)
author=KOGA M, UNIV. OF OCCUPATIONAL AND ENVIRONMENTAL HEALTH
license=CC BY-NC-SA
exact mass=374.23086
ionization energy=70 eV
ion type=[M]+*
computed spectral entropy=2.308672925062153
computed normalized entropy=0.8148602469014578
SPLASH=splash10-00b9-9210000000-427a20ce9b1d3b87e51f
submitter=submitter = University of Tokyo Team (Faculty of Engineering, University of Tokyo)
MoNA Rating=3.75

>  <NUM PEAKS>  (5510) 
17

>  <MASS SPECTRAL PEAKS>  (5510) 
45 12.5
55 31.1
67 10.9
73 99.99
74 10.5
75 85.3
81 13.2
83 1.55
117 26.7
129 23.3
147 14.6
149 1.89
204 10.7
217 16
243 13.5
359 2.56
360 7

>  <PREDICTED SPECTRUM>  (5510) 
15 5
27 32
29 87
39 81
40 13
41 189
42 85
43 117
44 89
45 195
46 58
47 150
48 15
49 56
52 21
53 115
54 94
55 481
56 141
57 210
58 168
59 227
60 79
61 211
62 27
66 36
67 278
68 123
69 351
70 104
71 91
72 302
73 999
74 225
75 883
76 230
77 242
78 39
79 222
80 110
81 383
82 120
83 275
84 214
85 152
86 106
87 79
88 82
89 123
90 6
91 117
92 11
93 175
94 86
95 281
96 153
97 258
98 284
99 187
100 65
101 168
102 15
103 108
105 167
106 50
107 194
108 68
109 150
110 96
111 192
112 184
113 57
114 45
115 123
116 307
117 512
118 167
119 217
120 93
121 214
122 81
123 156
124 46
125 127
126 40
127 2
129 584
130 213
131 222
132 244
133 263
134 101
135 186
136 93
137 79
138 65
139 93
140 33
142 79
143 171
144 84
145 315
146 74
147 359
148 195
149 304
150 119
151 129
152 46
153 148
154 60
155 114
156 145
157 149
158 128
159 135
160 70
161 74
162 55
163 55
165 65
166 124
167 84
168 67
169 91
170 114
171 222
172 84
173 154
174 43
175 108
177 101
178 51
179 52
184 3
185 152
186 133
187 174
188 106
189 119
190 60
193 23
194 180
195 156
196 11
197 21
199 125
200 96
201 136
202 89
203 153
204 703
205 314
206 199
207 47
211 62
212 36
213 228
214 135
215 156
216 133
217 548
218 296
220 1
225 117
226 71
227 291
228 101
229 146
230 132
231 121
232 0
240 40
241 243
242 243
243 385
244 263
245 207
251 124
255 62
256 103
257 55
258 14
259 75
260 5
262 23
269 174
270 70
271 58
273 93
274 5
284 117
285 117
286 64
287 86
288 67
301 21
302 86
303 13
304 2
315 239
316 119
317 60
330 44
331 26
343 288
344 104
345 61
359 570
360 113
361 277
362 98
363 12
374 57
375 67

$$$$

     RDKit          2D

 26 28  0  0  1  0  0  0  0  0999 V2000
    4.4724    4.5780    0.0000 C   0  0  0  0  0  0  0  0  0  0  0  0
    5.7681    2.3261    0.0000 C   0  0  0  0  0  0  0  0  0  0  0  0
   -0.7200    1.5800    0.0000 C   0  0  0  0  0  0  0  0  0  0  0  0
   -2.9841   -3.3192    0.0000 C   0  0  0  0  0  0  0  0  0  0  0  0
    0.5441   -4.9138    0.0000 C   0  0  0  0  0  0  0  0  0  0  0  0
    0.3590   -7.0270    0.0000 C   0  0  0  0  0  0  0  0  0  0  0  0
   -1.7542   -6.8419    0.0000 C   0  0  0  0  0  0  0  0  0  0  0  0
   -3.3200    0.0800    0.0000 C   0  0  0  0  0  0  0  0  0  0  0  0
    1.8800    3.0800    0.0000 C   0  0  0  0  0  0  0  0  0  0  0  0
    1.8800   -1.4200    0.0000 C   0  0  0  0  0  0  0  0  0  0  0  0
    0.5800    2.3300    0.0000 C   0  0  0  0  0  0  0  0  0  0  0  0
    0.5800   -2.1700    0.0000 C   0  0  0  0  0  0  0  0  0  0  0  0
   -2.0200    0.8300    0.0000 C   0  0  0  0  0  0  0  0  0  0  0  0
   -3.3200   -1.4200    0.0000 C   0  0  0  0  0  0  0  0  0  0  0  0
    3.1700    0.8300    0.0000 C   0  0  0  0  0  0  0  0  0  0  0  0
    4.4702    3.0780    0.0000 C   0  0  0  0  0  0  0  0  0  0  0  0
    3.1700    2.3300    0.0000 C   0  0  0  0  0  0  0  0  0  0  0  0
    1.8800    0.0800    0.0000 C   0  0  0  0  0  0  0  0  0  0  0  0
    0.5800    0.8300    0.0000 C   0  0  0  0  0  0  0  0  0  0  0  0
   -0.7200   -1.4200    0.0000 C   0  0  0  0  0  0  0  0  0  0  0  0
   -1.0559   -3.3192    0.0000 C   0  0  0  0  0  0  0  0  0  0  0  0
   -0.7200    0.0800    0.0000 C   0  0  0  0  0  0  0  0  0  0  0  0
   -2.0200   -2.1700    0.0000 C   0  0  0  0  0  0  0  0  0  0  0  0
    0.4213   -3.0589    0.0000 O   0  0  0  0  0  0  0  0  0  0  0  0
   -1.5691   -4.7287    0.0000 O   0  0  0  0  0  0  0  0  0  0  0  0
   -0.6051   -5.8778    0.0000 Si  0  0  0  0  0  4  0  0  0  0  0  0
 11  9  1  0
 12 10  1  0
 13  8  1  0
 14  8  1  0
 16  1  1  0
 16  2  1  0
 17  9  1  0
 17 15  2  0
 17 16  1  0
 18 10  2  0
 18 15  1  0
 19 11  1  1
 19 18  1  0
 20 12  1  1
 22  3  1  1
 22 13  1  0
 22 19  1  0
 22 20  1  0
 23  4  1  1
 23 14  1  0
 23 20  1  0
 23 21  1  0
 24 21  2  0
 25 21  1  0
 26  5  1  0
 26  6  1  0
 26  7  1  0
 26 25  1  0
M  END
>  <NAME>  (5511) 
ABIETIC ACID TRIMETHYLSILYL ESTER

>  <SYNONYMS>  (5511) 
TRIMETHYLSILYL 7-ISOPROPYL-1,4A-DIMETHYL-1,2,3,4,4A,4B,5,6,10,10A-DECAHYDROPHENANTHRENE-1-CARBOXYLATE

>  <SPECTRUM TYPE>  (5511) 
MS1

>  <INSTRUMENT TYPE>  (5511) 
EI-B

>  <INSTRUMENT>  (5511) 
JEOL JMS-01-SG

>  <ION MODE>  (5511) 
P

>  <INCHIKEY>  (5511) 
RXWFRYPIQODUHW-KKSHJYNMSA-N

>  <FORMULA>  (5511) 
C23H38O2Si

>  <EXACT MASS>  (5511) 
374.264106986

>  <MW>  (5511) 
374

>  <ID>  (5511) 
JP001059

>  <CONTRIBUTOR>  (5511) 
University of Tokyo Team, {Faculty of Engineering, University of Tokyo

>  <COMMENT>  (5511) 
SMILES=CC(C)C(C3)=CC(=C2)C([H])(C3)C(C)(C1)C([H])(C2)C(C)(CC1)C(=O)O[Si](C)(C)C
InChI=InChI=1S/C23H38O2Si/c1-16(2)17-9-11-19-18(15-17)10-12-20-22(19,3)13-8-14-23(20,4)21(24)25-26(5,6)7/h10,15-16,19-20H,8-9,11-14H2,1-7H3/t19-,20+,22+,23+/m0/s1
computed SMILES=O=C(O[Si](C)(C)C)C1(C)CCCC2(C)C3C(C=C(CC3)C(C)C)=CCC12
accession=JP001059
date=2016.01.19 (Created 2008.10.21, modified 2011.05.06)
author=KOGA M, UNIV. OF OCCUPATIONAL AND ENVIRONMENTAL HEALTH
license=CC BY-NC-SA
exact mass=374.26411
ionization energy=70 eV
ion type=[M]+*
computed spectral entropy=3.286783818077492
computed normalized entropy=0.8793671334672543
SPLASH=splash10-0076-9880000000-24b5fd6530a234689cb4
submitter=submitter = University of Tokyo Team (Faculty of Engineering, University of Tokyo)
MoNA Rating=3.75

>  <NUM PEAKS>  (5511) 
42

>  <MASS SPECTRAL PEAKS>  (5511) 
43 39.6
45 15.9
55 13.6
67 1.06
69 23.6
73 89.3
75 26.6
79 1.3
81 17.1
91 17.1
93 18.3
103 1.3
105 24.2
107 14.2
109 17.7
115 1.53
117 22.4
119 10.6
129 13.6
131 2.42
133 19.5
141 14.2
143 26.6
159 1.42
173 18.9
185 36
186 11.8
193 1.12
213 23.6
237 16.5
239 99.99
240 2.13
241 34.9
243 42
255 18.9
256 6.44
257 18.3
357 5.9
359 5.9
361 0.41
372 4.1
374 5.9

>  <PREDICTED SPECTRUM>  (5511) 
29 68
39 33
41 221
42 95
43 252
44 145
45 201
47 93
48 8
49 11
50 13
51 45
52 25
53 220
54 124
55 488
56 111
57 152
58 57
59 154
60 129
61 136
63 37
64 63
65 201
66 58
67 328
68 115
69 241
70 107
71 115
72 139
73 831
74 148
75 460
76 160
77 309
78 152
79 332
80 120
81 323
82 191
83 321
84 123
85 90
86 33
89 41
91 481
92 249
93 291
94 60
95 234
96 140
97 156
98 34
99 58
101 47
103 148
104 123
105 389
106 220
107 279
108 181
109 343
110 137
111 185
112 51
115 193
116 173
117 344
118 179
119 231
120 130
121 362
122 168
123 221
124 112
125 108
127 79
128 159
129 282
130 146
131 286
132 184
133 295
134 199
135 207
136 186
137 69
138 1
139 23
141 74
142 67
143 426
144 140
145 236
146 146
147 223
148 187
149 198
150 81
151 120
152 61
153 135
154 49
155 117
156 111
157 215
158 167
159 250
160 209
161 291
162 140
163 66
164 39
165 127
166 81
167 115
168 67
169 99
170 92
171 231
172 207
173 203
174 119
175 199
176 154
177 130
178 47
180 34
183 33
184 10
185 338
186 189
187 286
188 150
189 152
190 68
191 78
192 54
193 42
194 27
195 47
196 11
197 145
198 109
199 213
200 233
201 143
202 84
203 3
205 16
206 85
207 55
209 39
211 84
212 29
213 280
214 217
215 138
219 57
220 127
222 10
223 21
224 89
225 94
226 41
227 286
228 106
229 128
233 62
234 51
235 27
238 36
239 247
240 81
241 641
242 386
243 113
244 37
251 9
255 77
256 999
257 763
258 326
269 0
273 32
284 111
285 86
324 30
359 398
360 188
361 29
374 634
375 323
376 144
377 33

$$$$

     RDKit          2D

 24 23  0  0  0  0  0  0  0  0999 V2000
   19.1178    6.9707    0.0000 C   0  0  0  0  0  0  0  0  0  0  0  0
   17.6178    4.3726    0.0000 C   0  0  0  0  0  0  0  0  0  0  0  0
   19.6668    4.9216    0.0000 C   0  0  0  0  0  0  0  0  0  0  0  0
   -0.3678    7.7207    0.0000 C   0  0  0  0  0  0  0  0  0  0  0  0
   -2.4168    7.1716    0.0000 C   0  0  0  0  0  0  0  0  0  0  0  0
   -1.8678    5.1226    0.0000 C   0  0  0  0  0  0  0  0  0  0  0  0
    9.2745    6.4216    0.0000 C   0  0  0  0  0  0  0  0  0  0  0  0
    7.9755    5.6716    0.0000 C   0  0  0  0  0  0  0  0  0  0  0  0
   10.5736    5.6716    0.0000 C   0  0  0  0  0  0  0  0  0  0  0  0
    6.6764    6.4216    0.0000 C   0  0  0  0  0  0  0  0  0  0  0  0
   11.8726    6.4216    0.0000 C   0  0  0  0  0  0  0  0  0  0  0  0
    5.3774    5.6716    0.0000 C   0  0  0  0  0  0  0  0  0  0  0  0
   13.1716    5.6716    0.0000 C   0  0  0  0  0  0  0  0  0  0  0  0
    4.0784    6.4216    0.0000 C   0  0  0  0  0  0  0  0  0  0  0  0
   14.4707    6.4216    0.0000 C   0  0  0  0  0  0  0  0  0  0  0  0
    2.7793    5.6716    0.0000 C   0  0  0  0  0  0  0  0  0  0  0  0
   15.7697    5.6716    0.0000 C   0  0  0  0  0  0  0  0  0  0  0  0
    1.4803    6.4216    0.0000 C   0  0  0  0  0  0  0  0  0  0  0  0
   15.7697    4.1716    0.0000 O   0  0  0  0  0  0  0  0  0  0  0  0
    1.4803    7.9216    0.0000 O   0  0  0  0  0  0  0  0  0  0  0  0
   17.0687    6.4216    0.0000 O   0  0  0  0  0  0  0  0  0  0  0  0
    0.1813    5.6716    0.0000 O   0  0  0  0  0  0  0  0  0  0  0  0
   18.3678    5.6716    0.0000 Si  0  0  0  0  0  4  0  0  0  0  0  0
   -1.1178    6.4216    0.0000 Si  0  0  0  0  0  4  0  0  0  0  0  0
  8  7  1  0
  9  7  1  0
 10  8  1  0
 11  9  1  0
 12 10  1  0
 13 11  1  0
 14 12  1  0
 13 15  2  0
 16 14  1  0
 17 15  1  0
 18 16  1  0
 19 17  2  0
 20 18  2  0
 21 17  1  0
 22 18  1  0
 23  1  1  0
 23  2  1  0
 23  3  1  0
 23 21  1  0
 24  4  1  0
 24  5  1  0
 24  6  1  0
 24 22  1  0
M  END
>  <NAME>  (5512) 
1-DECENE-1,10-DICARBOXYLIC ACID BIS(TRIMETHYLSILYL) ESTER

>  <SYNONYMS>  (5512) 
DI(TRIMETHYLSILYL) 2-DODECENEDIOATE

>  <SPECTRUM TYPE>  (5512) 
MS1

>  <INSTRUMENT TYPE>  (5512) 
EI-B

>  <INSTRUMENT>  (5512) 
JEOL JMS-01-SG

>  <ION MODE>  (5512) 
P

>  <INCHIKEY>  (5512) 
XUSCELGAZUEVPT-FYWRMAATSA-N

>  <FORMULA>  (5512) 
C18H36O4Si2

>  <EXACT MASS>  (5512) 
372.215212692

>  <MW>  (5512) 
372

>  <ID>  (5512) 
JP001058

>  <CONTRIBUTOR>  (5512) 
University of Tokyo Team, {Faculty of Engineering, University of Tokyo

>  <COMMENT>  (5512) 
SMILES=C(CCCC=CC(=O)O[Si](C)(C)C)CCCCC(=O)O[Si](C)(C)C
InChI=InChI=1S/C18H36O4Si2/c1-23(2,3)21-17(19)15-13-11-9-7-8-10-12-14-16-18(20)22-24(4,5)6/h13,15H,7-12,14,16H2,1-6H3/b15-13+
computed SMILES=O=C(O[Si](C)(C)C)C=CCCCCCCCCC(=O)O[Si](C)(C)C
accession=JP001058
date=2016.01.19 (Created 2008.10.21, modified 2011.05.06)
author=KOGA M, UNIV. OF OCCUPATIONAL AND ENVIRONMENTAL HEALTH
license=CC BY-NC-SA
exact mass=372.21521
ionization energy=70 eV
ion type=[M]+*
computed spectral entropy=2.8839618948611503
computed normalized entropy=0.8321355047657839
SPLASH=splash10-004i-9400000000-bfacb6d0bffcb541bbd9
submitter=submitter = University of Tokyo Team (Faculty of Engineering, University of Tokyo)
MoNA Rating=3.75

>  <NUM PEAKS>  (5512) 
32

>  <MASS SPECTRAL PEAKS>  (5512) 
43 10.3
47 20.4
49 12.6
55 1.97
67 17.8
69 9.3
73 99.99
74 1.13
75 86.2
76 8.2
77 95
79 0.99
81 34.2
82 9.5
95 17.8
97 0.84
117 25.6
129 27.5
132 9.1
145 1.01
147 40
149 15.7
155 13.4
164 3.79
165 18
192 40.4
193 7.8
239 1.6
240 4.5
313 13.6
357 9
358 5.1

>  <PREDICTED SPECTRUM>  (5512) 
26 24
27 36
28 22
29 112
31 25
38 20
39 135
40 76
41 301
42 132
43 142
44 173
45 345
46 83
47 252
48 74
49 46
50 33
51 57
52 93
53 215
54 180
55 528
56 136
57 185
58 154
59 275
60 144
61 243
62 34
63 30
64 5
65 92
66 102
67 377
68 214
69 328
70 61
71 100
72 295
73 999
74 301
75 899
76 237
77 253
78 68
79 354
80 239
81 547
82 272
83 246
84 155
85 133
86 107
87 61
88 60
89 114
91 191
92 73
93 281
94 182
95 364
96 154
97 210
98 149
99 197
100 50
101 143
103 195
104 26
105 191
106 84
107 274
108 211
109 268
110 165
111 199
112 125
113 78
115 159
116 268
117 518
118 143
119 262
120 119
121 314
122 179
123 207
124 130
125 100
126 36
127 70
128 4
129 517
130 189
131 262
132 149
133 273
134 120
135 248
136 254
137 230
138 132
139 76
140 66
141 76
142 123
143 209
144 94
145 266
146 104
147 576
148 263
149 402
150 252
151 200
152 55
153 60
154 72
155 257
156 233
157 167
158 101
159 98
160 44
161 80
163 137
164 209
165 245
166 182
167 101
168 63
169 232
170 164
171 197
172 93
173 111
174 81
175 101
176 46
177 95
178 39
179 36
180 13
181 3
182 11
183 133
184 103
185 197
186 139
187 99
188 76
190 29
191 93
192 336
193 194
194 113
195 109
196 21
197 110
198 95
199 88
200 51
201 74
202 15
203 145
204 340
205 104
206 74
207 20
209 62
210 16
211 148
212 94
213 100
214 63
215 60
216 0
217 169
218 49
219 22
221 48
223 99
225 163
226 121
227 109
228 65
229 91
230 14
231 44
237 13
238 89
239 203
240 215
241 221
242 57
243 209
244 42
245 0
249 79
253 32
254 169
255 95
256 26
257 55
258 30
259 22
267 295
268 162
269 35
271 59
272 60
282 202
283 95
284 9
285 32
286 31
300 28
302 1
313 201
314 94
315 60
316 14
317 15
327 1
328 126
329 69
334 9
341 145
342 54
343 11
344 13
355 12
357 566
358 165
359 123
372 78
373 30

$$$$

     RDKit          2D

 25 26  0  0  0  0  0  0  0  0999 V2000
   -2.3208    6.9524    0.0000 C   0  0  0  0  0  0  0  0  0  0  0  0
   -4.3698    6.4034    0.0000 C   0  0  0  0  0  0  0  0  0  0  0  0
   -3.8208    4.3543    0.0000 C   0  0  0  0  0  0  0  0  0  0  0  0
    1.0045    2.9138    0.0000 C   0  0  0  0  0  0  0  0  0  0  0  0
    2.9947    4.5838    0.0000 C   0  0  0  0  0  0  0  0  0  0  0  0
    1.2571    5.8006    0.0000 C   0  0  0  0  0  0  0  0  0  0  0  0
   -0.4727   -1.8466    0.0000 C   0  0  0  0  0  0  0  0  0  0  0  0
    4.4316    1.7886    0.0000 C   0  0  0  0  0  0  0  0  0  0  0  0
    0.8273   -1.0966    0.0000 C   0  0  0  0  0  0  0  0  0  0  0  0
   -1.7727   -1.0966    0.0000 C   0  0  0  0  0  0  0  0  0  0  0  0
    3.9188    3.1991    0.0000 C   0  0  0  0  0  0  0  0  0  0  0  0
    3.4673    0.6386    0.0000 C   0  0  0  0  0  0  0  0  0  0  0  0
    0.8273    0.4034    0.0000 C   0  0  0  0  0  0  0  0  0  0  0  0
   -1.7727    0.4034    0.0000 C   0  0  0  0  0  0  0  0  0  0  0  0
    2.4416    3.4595    0.0000 C   0  0  0  0  0  0  0  0  0  0  0  0
    1.9901    0.8990    0.0000 C   0  0  0  0  0  0  0  0  0  0  0  0
   -0.4727    1.1534    0.0000 C   0  0  0  0  0  0  0  0  0  0  0  0
    1.4772    2.3095    0.0000 C   0  0  0  0  0  0  0  0  0  0  0  0
   -1.7717    3.4034    0.0000 C   0  0  0  0  0  0  0  0  0  0  0  0
   -0.4727    2.6534    0.0000 C   0  0  0  0  0  0  0  0  0  0  0  0
   -3.0708    2.6534    0.0000 O   0  0  0  0  0  0  0  0  0  0  0  0
   -1.7717    4.9034    0.0000 O   0  0  0  0  0  0  0  0  0  0  0  0
    0.0403    4.0629    0.0000 O   0  0  0  0  0  0  0  0  0  0  0  0
   -3.0708    5.6534    0.0000 Si  0  0  0  0  0  4  0  0  0  0  0  0
    1.5175    4.3234    0.0000 Si  0  0  0  0  0  4  0  0  0  0  0  0
  9  7  2  0
 10  7  1  0
 11  8  2  0
 12  8  1  0
 13  9  1  0
 14 10  2  0
 15 11  1  0
 16 12  2  0
 17 13  2  0
 17 14  1  0
 18 15  2  0
 18 16  1  0
 20 17  1  0
 20 18  1  0
 20 19  1  0
 21 19  2  0
 22 19  1  0
 23 20  1  0
 24  1  1  0
 24  2  1  0
 24  3  1  0
 24 22  1  0
 25  4  1  0
 25  5  1  0
 25  6  1  0
 25 23  1  0
M  END
>  <NAME>  (5513) 
ALPHA-(TRIMETHYLSILYL)OXY-DIPHENYLACETIC ACID TRIMETHYLSILYL ESTER

>  <SYNONYMS>  (5513) 
TRIMETHYLSILYL ALPHA,ALPHA-DIPHENYL-ALPHA-TRIMETHYLSILOXYACETATE

>  <SPECTRUM TYPE>  (5513) 
MS1

>  <INSTRUMENT TYPE>  (5513) 
EI-B

>  <INSTRUMENT>  (5513) 
JEOL JMS-01-SG

>  <ION MODE>  (5513) 
P

>  <INCHIKEY>  (5513) 
HDZAYJSSMMEYNX-UHFFFAOYSA-N

>  <FORMULA>  (5513) 
C20H28O3Si2

>  <EXACT MASS>  (5513) 
372.157697816

>  <MW>  (5513) 
372

>  <ID>  (5513) 
JP001057

>  <CONTRIBUTOR>  (5513) 
University of Tokyo Team, {Faculty of Engineering, University of Tokyo

>  <COMMENT>  (5513) 
SMILES=C[Si](C)(C)OC(=O)C(O[Si](C)(C)C)(c(c2)cccc2)c(c1)cccc1
InChI=InChI=1S/C20H28O3Si2/c1-24(2,3)22-19(21)20(23-25(4,5)6,17-13-9-7-10-14-17)18-15-11-8-12-16-18/h7-16H,1-6H3
computed SMILES=O=C(O[Si](C)(C)C)C(O[Si](C)(C)C)(C=1C=CC=CC1)C=2C=CC=CC2
accession=JP001057
date=2016.01.19 (Created 2008.10.21, modified 2011.05.06)
author=KOGA M, UNIV. OF OCCUPATIONAL AND ENVIRONMENTAL HEALTH
license=CC BY-NC-SA
exact mass=372.1577
ionization energy=70 eV
ion type=[M]+*
computed spectral entropy=1.8884626069230097
computed normalized entropy=0.6811189094780175
SPLASH=splash10-0ab9-9180000000-f4070e0cdcd70849f979
submitter=submitter = University of Tokyo Team (Faculty of Engineering, University of Tokyo)
MoNA Rating=3.75

>  <NUM PEAKS>  (5513) 
16

>  <MASS SPECTRAL PEAKS>  (5513) 
43 7.5
45 19.7
73 85.6
74 0.35
75 10
77 10.4
105 8.2
147 1.79
148 1.7
165 6.8
166 2.1
239 0.17
255 99.99
256 22.3
257 5
329 5.3

>  <PREDICTED SPECTRUM>  (5513) 
15 1
27 19
29 6
43 105
44 19
45 210
46 3
47 86
50 9
51 63
52 34
53 12
55 18
59 48
61 31
63 7
64 12
65 23
66 18
69 23
70 25
72 82
73 999
74 237
75 283
76 124
77 216
78 60
79 14
81 2
90 78
91 32
97 1
103 147
104 131
105 126
115 21
131 11
133 137
147 455
148 132
149 160
151 36
163 23
165 218
166 34
168 24
177 67
178 38
184 17
193 29
211 13
225 72
226 77
239 176
240 58
253 87
254 34
255 478
256 148
267 157
268 18
269 55
282 44
283 38
329 132
357 273
358 149
359 100
360 10

$$$$

     RDKit          2D

 23 23  0  0  0  0  0  0  0  0999 V2000
    2.1442   -3.4432    0.0000 C   0  0  0  0  0  0  0  0  0  0  0  0
    3.6442   -4.9432    0.0000 C   0  0  0  0  0  0  0  0  0  0  0  0
    5.1442   -3.4432    0.0000 C   0  0  0  0  0  0  0  0  0  0  0  0
    5.1450    2.5572    0.0000 C   0  0  0  0  0  0  0  0  0  0  0  0
    3.6452    4.0574    0.0000 C   0  0  0  0  0  0  0  0  0  0  0  0
    2.1450    2.5577    0.0000 C   0  0  0  0  0  0  0  0  0  0  0  0
   -3.4001    2.3558    0.0000 C   0  0  0  0  0  0  0  0  0  0  0  0
   -5.4491    1.8068    0.0000 C   0  0  0  0  0  0  0  0  0  0  0  0
   -4.9001   -0.2422    0.0000 C   0  0  0  0  0  0  0  0  0  0  0  0
   -0.2534   -1.1940    0.0000 C   0  0  0  0  0  0  0  0  0  0  0  0
    1.0456   -1.9440    0.0000 C   0  0  0  0  0  0  0  0  0  0  0  0
    1.0466    1.0576    0.0000 C   0  0  0  0  0  0  0  0  0  0  0  0
   -0.2530    0.3068    0.0000 C   0  0  0  0  0  0  0  0  0  0  0  0
    2.3451   -1.1932    0.0000 C   0  0  0  0  0  0  0  0  0  0  0  0
    2.3456    0.3076    0.0000 C   0  0  0  0  0  0  0  0  0  0  0  0
   -1.5520    1.0568    0.0000 C   0  0  0  0  0  0  0  0  0  0  0  0
   -1.5520    2.5568    0.0000 O   0  0  0  0  0  0  0  0  0  0  0  0
    3.6442   -1.9432    0.0000 O   0  0  0  0  0  0  0  0  0  0  0  0
    3.6448    1.0574    0.0000 O   0  0  0  0  0  0  0  0  0  0  0  0
   -2.8510    0.3068    0.0000 O   0  0  0  0  0  0  0  0  0  0  0  0
    3.6442   -3.4432    0.0000 Si  0  0  0  0  0  4  0  0  0  0  0  0
    3.6450    2.5574    0.0000 Si  0  0  0  0  0  4  0  0  0  0  0  0
   -4.1501    1.0568    0.0000 Si  0  0  0  0  0  4  0  0  0  0  0  0
 11 10  2  0
 13 10  1  0
 13 12  2  0
 14 11  1  0
 15 12  1  0
 15 14  2  0
 16 13  1  0
 17 16  2  0
 18 14  1  0
 19 15  1  0
 20 16  1  0
 21  1  1  0
 21  2  1  0
 21  3  1  0
 21 18  1  0
 22  4  1  0
 22  5  1  0
 22  6  1  0
 22 19  1  0
 23  7  1  0
 23  8  1  0
 23  9  1  0
 23 20  1  0
M  END
>  <NAME>  (5514) 
3,4-BIS(TRIMETHYLSILYL)OXY-BENZOIC ACID TRIMETHYLSILYL ESTER

>  <SYNONYMS>  (5514) 
TRIMETHYLSILYL 3,4-BIS(TRIMETHYLSILOXY)BENZOATE

>  <SPECTRUM TYPE>  (5514) 
MS1

>  <INSTRUMENT TYPE>  (5514) 
EI-B

>  <INSTRUMENT>  (5514) 
JEOL JMS-01-SG

>  <ION MODE>  (5514) 
P

>  <INCHIKEY>  (5514) 
DVAGRNBRUDZPDF-UHFFFAOYSA-N

>  <FORMULA>  (5514) 
C16H30O4Si3

>  <EXACT MASS>  (5514) 
370.14518903

>  <MW>  (5514) 
370

>  <ID>  (5514) 
JP001056

>  <CONTRIBUTOR>  (5514) 
University of Tokyo Team, {Faculty of Engineering, University of Tokyo

>  <COMMENT>  (5514) 
SMILES=C[Si](C)(C)OC(=O)c(c1)cc(O[Si](C)(C)C)c(c1)O[Si](C)(C)C
InChI=InChI=1S/C16H30O4Si3/c1-21(2,3)18-14-11-10-13(16(17)20-23(7,8)9)12-15(14)19-22(4,5)6/h10-12H,1-9H3
computed SMILES=O=C(O[Si](C)(C)C)C1=CC=C(O[Si](C)(C)C)C(O[Si](C)(C)C)=C1
accession=JP001056
date=2016.01.19 (Created 2008.10.21, modified 2011.05.06)
author=KOGA M, UNIV. OF OCCUPATIONAL AND ENVIRONMENTAL HEALTH
license=CC BY-NC-SA
exact mass=370.14519
ionization energy=70 eV
ion type=[M]+*
computed spectral entropy=2.4641924383861102
computed normalized entropy=0.7175892895487838
SPLASH=splash10-00di-9115000000-c974a45e00f795d09fbf
submitter=submitter = University of Tokyo Team (Faculty of Engineering, University of Tokyo)
MoNA Rating=3.75

>  <NUM PEAKS>  (5514) 
31

>  <MASS SPECTRAL PEAKS>  (5514) 
43 2.5
44 2.5
45 22.8
47 0.28
59 2.5
73 99.99
74 7.8
75 1.03
77 1.8
133 2.8
137 4.3
147 0.43
165 5.9
179 2.5
193 6.5
194 1.41
195 5.6
207 2.1
223 5.6
267 0.25
281 6.5
282 2.1
311 16.6
312 0.34
313 2.1
355 22.2
356 6.8
357 0.25
370 29.4
371 9.7
372 3.1

>  <PREDICTED SPECTRUM>  (5514) 
15 49
27 1
28 4
29 98
31 5
32 11
39 2
41 21
43 136
44 135
45 360
46 81
47 98
49 0
50 9
51 40
52 6
53 44
54 32
55 108
56 56
57 135
58 85
59 169
60 79
61 78
62 4
63 39
65 28
66 11
67 28
68 17
69 41
70 21
71 24
72 41
73 999
74 263
75 285
76 88
77 139
78 66
79 79
80 31
81 53
82 23
83 43
84 32
85 38
87 26
88 5
89 103
90 27
91 115
92 64
93 77
94 18
95 46
96 24
97 34
98 11
99 46
101 12
102 13
103 111
104 85
105 136
106 60
107 102
108 32
109 42
111 21
115 60
116 29
117 40
119 143
120 54
121 95
122 24
123 51
124 14
125 14
128 0
129 28
131 106
132 42
133 257
134 95
135 159
136 65
137 100
138 21
139 11
141 12
145 19
147 256
148 109
149 242
150 122
151 147
152 44
153 6
155 14
159 5
161 85
162 22
163 97
164 91
165 110
166 61
167 57
168 0
169 4
175 13
177 96
178 47
179 100
180 65
181 32
182 22
191 71
192 22
193 497
194 140
195 103
196 25
205 47
206 6
207 93
208 94
209 118
210 85
211 33
221 72
222 59
223 135
224 44
225 47
235 13
236 22
237 152
238 207
239 141
240 69
249 5
251 76
265 130
266 66
267 177
268 102
269 88
279 35
281 214
282 185
283 145
284 66
295 10
297 18
298 28
311 143
312 42
323 4
325 97
326 36
339 57
340 38
341 35
342 30
343 12
353 44
355 879
356 511
357 320
358 136
359 26
369 31
370 619
371 349
372 262
373 101
374 58

$$$$

     RDKit          2D

 23 23  0  0  0  0  0  0  0  0999 V2000
    3.1483   -1.2187    0.0000 C   0  0  0  0  0  0  0  0  0  0  0  0
    5.1972   -0.6694    0.0000 C   0  0  0  0  0  0  0  0  0  0  0  0
    4.6479    1.3796    0.0000 C   0  0  0  0  0  0  0  0  0  0  0  0
   -0.5490    4.3790    0.0000 C   0  0  0  0  0  0  0  0  0  0  0  0
   -2.5981    3.8300    0.0000 C   0  0  0  0  0  0  0  0  0  0  0  0
   -2.0490    1.7810    0.0000 C   0  0  0  0  0  0  0  0  0  0  0  0
   -4.4468    2.1295    0.0000 C   0  0  0  0  0  0  0  0  0  0  0  0
   -6.4959    1.5808    0.0000 C   0  0  0  0  0  0  0  0  0  0  0  0
   -5.9472   -0.4683    0.0000 C   0  0  0  0  0  0  0  0  0  0  0  0
   -0.0000   -2.1700    0.0000 C   0  0  0  0  0  0  0  0  0  0  0  0
   -1.3000   -1.4200    0.0000 C   0  0  0  0  0  0  0  0  0  0  0  0
    1.3000   -1.4200    0.0000 C   0  0  0  0  0  0  0  0  0  0  0  0
   -1.3000    0.0800    0.0000 C   0  0  0  0  0  0  0  0  0  0  0  0
    1.3000    0.0800    0.0000 C   0  0  0  0  0  0  0  0  0  0  0  0
   -0.0000    0.8300    0.0000 C   0  0  0  0  0  0  0  0  0  0  0  0
   -2.5989    0.8302    0.0000 C   0  0  0  0  0  0  0  0  0  0  0  0
   -2.5987    2.3302    0.0000 O   0  0  0  0  0  0  0  0  0  0  0  0
    2.5989    0.8302    0.0000 O   0  0  0  0  0  0  0  0  0  0  0  0
    0.0000    2.3300    0.0000 O   0  0  0  0  0  0  0  0  0  0  0  0
   -3.8981    0.0804    0.0000 O   0  0  0  0  0  0  0  0  0  0  0  0
    3.8981    0.0804    0.0000 Si  0  0  0  0  0  4  0  0  0  0  0  0
   -1.2990    3.0800    0.0000 Si  0  0  0  0  0  4  0  0  0  0  0  0
   -5.1970    0.8306    0.0000 Si  0  0  0  0  0  4  0  0  0  0  0  0
 11 10  2  0
 12 10  1  0
 13 11  1  0
 14 12  2  0
 15 13  2  0
 15 14  1  0
 16 13  1  0
 17 16  2  0
 18 14  1  0
 19 15  1  0
 20 16  1  0
 21  1  1  0
 21  2  1  0
 21  3  1  0
 21 18  1  0
 22  4  1  0
 22  5  1  0
 22  6  1  0
 22 19  1  0
 23  7  1  0
 23  8  1  0
 23  9  1  0
 23 20  1  0
M  END
>  <NAME>  (5515) 
2,3-BIS(TRIMETHYLSILYL)OXY-BENZOIC ACID TRIMETHYLSILYL ESTER

>  <SYNONYMS>  (5515) 
TRIMETHYLSILYL 2,3-BIS(TRIMETHYLSILOXY)BENZOATE

>  <SPECTRUM TYPE>  (5515) 
MS1

>  <INSTRUMENT TYPE>  (5515) 
EI-B

>  <INSTRUMENT>  (5515) 
JEOL JMS-01-SG

>  <ION MODE>  (5515) 
P

>  <INCHIKEY>  (5515) 
IPIPJXIWUUYKNS-UHFFFAOYSA-N

>  <FORMULA>  (5515) 
C16H30O4Si3

>  <EXACT MASS>  (5515) 
370.14518903

>  <MW>  (5515) 
370

>  <ID>  (5515) 
JP001055

>  <CONTRIBUTOR>  (5515) 
University of Tokyo Team, {Faculty of Engineering, University of Tokyo

>  <COMMENT>  (5515) 
SMILES=C[Si](C)(C)OC(=O)c(c1)c(O[Si](C)(C)C)c(cc1)O[Si](C)(C)C
InChI=InChI=1S/C16H30O4Si3/c1-21(2,3)18-14-12-10-11-13(15(14)19-22(4,5)6)16(17)20-23(7,8)9/h10-12H,1-9H3
computed SMILES=O=C(O[Si](C)(C)C)C=1C=CC=C(O[Si](C)(C)C)C1O[Si](C)(C)C
accession=JP001055
date=2016.01.19 (Created 2008.10.21, modified 2011.05.06)
author=KOGA M, UNIV. OF OCCUPATIONAL AND ENVIRONMENTAL HEALTH
license=CC BY-NC-SA
exact mass=370.14519
ionization energy=70 eV
ion type=[M]+*
computed spectral entropy=1.951903280788115
computed normalized entropy=0.7609909626909214
SPLASH=splash10-00di-9100000000-8433019282588bea0b22
submitter=submitter = University of Tokyo Team (Faculty of Engineering, University of Tokyo)
MoNA Rating=3.75

>  <NUM PEAKS>  (5515) 
13

>  <MASS SPECTRAL PEAKS>  (5515) 
44 2.4
45 25
47 11.8
49 0.9
73 99.99
74 10
75 22.2
77 3.22
78 8.3
147 11.1
193 25
355 3.81
356 11.8

>  <PREDICTED SPECTRUM>  (5515) 
15 32
27 5
29 50
31 7
39 10
41 4
43 125
44 98
45 374
46 88
47 122
49 16
50 27
51 58
52 13
53 30
55 47
56 0
57 67
58 31
59 99
60 17
61 72
63 49
64 15
65 58
66 26
67 26
69 40
70 4
71 39
72 28
73 890
74 263
75 256
76 70
77 140
78 66
79 54
81 34
83 22
85 45
89 74
90 52
91 133
92 65
93 88
95 47
96 0
99 25
101 22
103 37
104 39
105 125
106 87
107 63
109 15
111 9
113 4
115 64
116 15
117 57
118 23
119 134
120 83
121 77
122 5
123 16
127 1
129 18
131 121
132 3
133 188
134 74
135 186
136 59
137 20
141 2
147 512
148 185
149 216
150 52
151 81
152 20
153 0
155 5
161 51
162 22
163 77
164 18
165 75
166 5
169 25
171 20
177 72
178 49
179 119
180 38
181 43
182 16
183 0
189 30
191 74
192 21
193 336
194 90
195 71
196 25
197 3
205 72
206 32
207 72
208 83
209 25
211 11
221 100
222 15
223 156
224 42
225 16
235 10
236 35
237 43
238 48
239 35
240 25
249 25
251 64
252 25
253 5
263 13
265 108
266 61
267 209
268 92
269 53
280 7
281 147
282 141
283 106
284 39
297 56
298 33
308 9
321 1
339 7
355 999
356 579
357 386
358 159
359 68
370 12

$$$$

     RDKit          2D

 23 22  0  0  0  0  0  0  0  0999 V2000
    4.5466    8.6250    0.0000 C   0  0  0  0  0  0  0  0  0  0  0  0
  -10.4928    7.6740    0.0000 C   0  0  0  0  0  0  0  0  0  0  0  0
  -11.0418    5.6250    0.0000 C   0  0  0  0  0  0  0  0  0  0  0  0
   -8.9928    5.0760    0.0000 C   0  0  0  0  0  0  0  0  0  0  0  0
  -11.5909   10.6740    0.0000 C   0  0  0  0  0  0  0  0  0  0  0  0
  -13.6399   10.1250    0.0000 C   0  0  0  0  0  0  0  0  0  0  0  0
  -13.0909    8.0760    0.0000 C   0  0  0  0  0  0  0  0  0  0  0  0
    3.2476    9.3750    0.0000 C   0  0  0  0  0  0  0  0  0  0  0  0
    1.9486    8.6250    0.0000 C   0  0  0  0  0  0  0  0  0  0  0  0
    0.6495    9.3750    0.0000 C   0  0  0  0  0  0  0  0  0  0  0  0
   -0.6495    8.6250    0.0000 C   0  0  0  0  0  0  0  0  0  0  0  0
   -1.9486    9.3750    0.0000 C   0  0  0  0  0  0  0  0  0  0  0  0
   -3.2476    8.6250    0.0000 C   0  0  0  0  0  0  0  0  0  0  0  0
   -4.5466    9.3750    0.0000 C   0  0  0  0  0  0  0  0  0  0  0  0
   -5.8457    8.6250    0.0000 C   0  0  0  0  0  0  0  0  0  0  0  0
   -7.1447    9.3750    0.0000 C   0  0  0  0  0  0  0  0  0  0  0  0
   -8.4437    8.6250    0.0000 C   0  0  0  0  0  0  0  0  0  0  0  0
   -9.7428    9.3750    0.0000 C   0  0  0  0  0  0  0  0  0  0  0  0
   -9.7428   10.8750    0.0000 O   0  0  0  0  0  0  0  0  0  0  0  0
   -8.4437    7.1250    0.0000 O   0  0  0  0  0  0  0  0  0  0  0  0
  -11.0418    8.6250    0.0000 O   0  0  0  0  0  0  0  0  0  0  0  0
   -9.7428    6.3750    0.0000 Si  0  0  0  0  0  4  0  0  0  0  0  0
  -12.3409    9.3750    0.0000 Si  0  0  0  0  0  4  0  0  0  0  0  0
  8  1  1  0
  9  8  1  0
 10  9  1  0
 11 10  1  0
 12 11  1  0
 13 12  1  0
 14 13  1  0
 15 14  1  0
 16 15  1  0
 17 16  1  0
 18 17  1  0
 19 18  2  0
 20 17  1  0
 21 18  1  0
 22  2  1  0
 22  3  1  0
 22  4  1  0
 22 20  1  0
 23  5  1  0
 23  6  1  0
 23  7  1  0
 23 21  1  0
M  END
>  <NAME>  (5516) 
2-(TRIMETHYLSILYL)OXYDODECANOIC ACID TRIMETHYLSILYL ESTER

>  <SYNONYMS>  (5516) 
TRIMETHYLSILYL 2-TRIMETHYLSILOXYDODECANOATE

>  <SPECTRUM TYPE>  (5516) 
MS1

>  <INSTRUMENT TYPE>  (5516) 
EI-B

>  <INSTRUMENT>  (5516) 
JEOL JMS-01-SG

>  <ION MODE>  (5516) 
P

>  <INCHIKEY>  (5516) 
YLQUHHPRDMSJTR-UHFFFAOYSA-N

>  <FORMULA>  (5516) 
C18H40O3Si2

>  <EXACT MASS>  (5516) 
360.2515982

>  <MW>  (5516) 
360

>  <ID>  (5516) 
JP001052

>  <CONTRIBUTOR>  (5516) 
University of Tokyo Team, {Faculty of Engineering, University of Tokyo

>  <COMMENT>  (5516) 
SMILES=CCCCCCCCCCC(O[Si](C)(C)C)C(=O)O[Si](C)(C)C
InChI=InChI=1S/C18H40O3Si2/c1-8-9-10-11-12-13-14-15-16-17(20-22(2,3)4)18(19)21-23(5,6)7/h17H,8-16H2,1-7H3
computed SMILES=O=C(O[Si](C)(C)C)C(O[Si](C)(C)C)CCCCCCCCCC
accession=JP001052
date=2016.01.19 (Created 2008.10.21, modified 2011.05.06)
author=KOGA M, UNIV. OF OCCUPATIONAL AND ENVIRONMENTAL HEALTH
license=CC BY-NC-SA
exact mass=360.2516
ionization energy=70 eV
ion type=[M]+*
computed spectral entropy=2.948988572778181
computed normalized entropy=0.8670442323276806
SPLASH=splash10-00dm-9120000000-3afa02b2982fcd4d40c9
submitter=submitter = University of Tokyo Team (Faculty of Engineering, University of Tokyo)
MoNA Rating=3.75

>  <NUM PEAKS>  (5516) 
30

>  <MASS SPECTRAL PEAKS>  (5516) 
43 13.3
45 14
47 15.9
55 1.84
57 12.1
59 15.2
67 14.6
69 2.35
70 14.6
71 11.4
73 99.99
75 2.54
77 22.2
81 14.6
82 14
83 3.75
91 14.6
95 15.9
97 37.5
103 3.43
111 19.1
115 14.6
129 13.3
147 4.07
148 14.6
221 14
243 61.1
244 1.46
282 3.8
355 3.8

>  <PREDICTED SPECTRUM>  (5516) 
28 20
29 46
39 6
40 31
41 158
42 39
43 154
44 92
45 217
46 17
47 94
52 23
53 56
55 249
56 38
57 54
58 67
59 184
60 70
61 83
66 62
67 111
68 35
69 132
70 38
71 106
72 42
73 757
74 198
75 320
76 64
77 103
78 8
79 75
80 1
81 109
82 62
83 188
84 82
85 65
86 5
87 8
91 71
93 58
94 13
95 114
96 31
97 105
98 40
99 70
100 14
101 104
102 26
103 160
105 19
109 82
110 44
111 126
112 46
113 38
116 39
117 54
119 45
123 0
125 74
127 48
128 23
129 235
130 105
131 95
132 25
133 191
134 115
135 103
136 22
137 23
138 18
139 20
143 80
145 69
146 19
147 553
148 269
149 254
150 104
153 162
154 94
155 141
156 39
157 62
159 42
160 0
161 11
170 7
171 61
173 30
175 53
181 39
190 63
191 110
192 10
199 17
200 0
201 63
206 2
207 36
219 7
222 1
224 120
227 48
229 4
243 999
244 465
245 210
246 43
317 212
318 60
345 232
346 107
347 54

$$$$

     RDKit          2D

 23 22  0  0  0  0  0  0  0  0999 V2000
   17.4805    7.2084    0.0000 C   0  0  0  0  0  0  0  0  0  0  0  0
   15.9805    4.6103    0.0000 C   0  0  0  0  0  0  0  0  0  0  0  0
   18.0296    5.1594    0.0000 C   0  0  0  0  0  0  0  0  0  0  0  0
   -2.2060    7.2084    0.0000 C   0  0  0  0  0  0  0  0  0  0  0  0
   -2.7550    5.1594    0.0000 C   0  0  0  0  0  0  0  0  0  0  0  0
   -0.7060    4.6103    0.0000 C   0  0  0  0  0  0  0  0  0  0  0  0
    7.6373    6.6594    0.0000 C   0  0  0  0  0  0  0  0  0  0  0  0
    8.9363    5.9094    0.0000 C   0  0  0  0  0  0  0  0  0  0  0  0
    6.3382    5.9094    0.0000 C   0  0  0  0  0  0  0  0  0  0  0  0
   10.2353    6.6594    0.0000 C   0  0  0  0  0  0  0  0  0  0  0  0
    5.0392    6.6594    0.0000 C   0  0  0  0  0  0  0  0  0  0  0  0
   11.5344    5.9094    0.0000 C   0  0  0  0  0  0  0  0  0  0  0  0
    3.7401    5.9094    0.0000 C   0  0  0  0  0  0  0  0  0  0  0  0
   12.8334    6.6594    0.0000 C   0  0  0  0  0  0  0  0  0  0  0  0
    2.4411    6.6594    0.0000 C   0  0  0  0  0  0  0  0  0  0  0  0
   14.1325    5.9094    0.0000 C   0  0  0  0  0  0  0  0  0  0  0  0
    1.1421    5.9094    0.0000 C   0  0  0  0  0  0  0  0  0  0  0  0
   14.1325    4.4094    0.0000 O   0  0  0  0  0  0  0  0  0  0  0  0
    1.1421    4.4094    0.0000 O   0  0  0  0  0  0  0  0  0  0  0  0
   15.4315    6.6594    0.0000 O   0  0  0  0  0  0  0  0  0  0  0  0
   -0.1570    6.6594    0.0000 O   0  0  0  0  0  0  0  0  0  0  0  0
   16.7305    5.9094    0.0000 Si  0  0  0  0  0  4  0  0  0  0  0  0
   -1.4560    5.9094    0.0000 Si  0  0  0  0  0  4  0  0  0  0  0  0
  8  7  1  0
  9  7  1  0
 10  8  1  0
 11  9  1  0
 12 10  1  0
 13 11  1  0
 14 12  1  0
 15 13  1  0
 16 14  1  0
 17 15  1  0
 18 16  2  0
 19 17  2  0
 20 16  1  0
 21 17  1  0
 22  1  1  0
 22  2  1  0
 22  3  1  0
 22 20  1  0
 23  4  1  0
 23  5  1  0
 23  6  1  0
 23 21  1  0
M  END
>  <NAME>  (5517) 
UNDECANEDIOIC ACID BIS(TRIMETHYLSILYL) ESTER

>  <SYNONYMS>  (5517) 
DI(TRIMETHYLSILYL) UNDECANEDIOATE

>  <SPECTRUM TYPE>  (5517) 
MS1

>  <INSTRUMENT TYPE>  (5517) 
EI-B

>  <INSTRUMENT>  (5517) 
JEOL JMS-01-SG

>  <ION MODE>  (5517) 
P

>  <INCHIKEY>  (5517) 
WANRKRMIBVTYBU-UHFFFAOYSA-N

>  <FORMULA>  (5517) 
C17H36O4Si2

>  <EXACT MASS>  (5517) 
360.215212692

>  <MW>  (5517) 
360

>  <ID>  (5517) 
JP001051

>  <CONTRIBUTOR>  (5517) 
University of Tokyo Team, {Faculty of Engineering, University of Tokyo

>  <COMMENT>  (5517) 
SMILES=C(CCCCC(=O)O[Si](C)(C)C)CCCCC(=O)O[Si](C)(C)C
InChI=InChI=1S/C17H36O4Si2/c1-22(2,3)20-16(18)14-12-10-8-7-9-11-13-15-17(19)21-23(4,5)6/h7-15H2,1-6H3
computed SMILES=O=C(O[Si](C)(C)C)CCCCCCCCCC(=O)O[Si](C)(C)C
accession=JP001051
date=2016.01.19 (Created 2008.10.21, modified 2011.05.06)
author=KOGA M, UNIV. OF OCCUPATIONAL AND ENVIRONMENTAL HEALTH
license=CC BY-NC-SA
exact mass=360.21521
ionization energy=70 eV
ion type=[M]+*
computed spectral entropy=2.5406721044656297
computed normalized entropy=0.8345059550178408
SPLASH=splash10-00xs-9312000000-3ab60e56d16e37638dc1
submitter=submitter = University of Tokyo Team (Faculty of Engineering, University of Tokyo)
MoNA Rating=3.75

>  <NUM PEAKS>  (5517) 
21

>  <MASS SPECTRAL PEAKS>  (5517) 
43 9.8
45 14.3
55 30.5
67 0.98
69 19.2
73 99.99
74 10.1
75 7.85
83 8.4
94 8.4
117 25.4
129 2.07
135 10.1
147 16.2
149 18.5
204 1.01
217 16.7
229 19.5
345 42.1
346 1.27
347 3.7

>  <PREDICTED SPECTRUM>  (5517) 
15 8
26 2
27 19
29 57
39 83
40 22
41 192
42 91
43 127
44 94
45 209
46 59
47 150
48 25
49 53
52 22
53 121
54 100
55 478
56 145
57 196
58 156
59 200
60 86
61 211
62 16
65 11
66 35
67 274
68 113
69 355
70 108
71 110
72 308
73 999
74 228
75 881
76 222
77 235
78 33
79 221
80 106
81 384
82 96
83 273
84 203
85 139
86 69
87 75
88 55
89 131
90 5
91 167
92 8
93 153
94 72
95 258
96 143
97 251
98 272
99 194
100 68
101 152
102 8
103 72
105 142
106 79
107 191
108 76
109 207
110 108
111 191
112 174
113 43
114 18
115 125
116 311
117 504
118 164
119 210
120 72
121 219
122 88
123 121
124 50
125 145
126 41
128 15
129 573
130 224
131 209
132 228
133 255
134 99
135 178
136 82
137 132
138 70
139 124
140 17
142 56
143 190
144 83
145 319
146 90
147 367
148 193
149 300
150 112
151 96
152 88
153 116
154 92
155 137
156 139
157 154
158 117
159 134
160 53
161 139
162 79
163 113
164 60
165 48
170 63
171 214
172 110
173 210
174 84
175 79
179 35
180 184
181 164
182 24
183 61
185 141
186 124
187 124
188 81
189 104
190 43
195 1
197 36
198 22
199 224
200 123
201 144
202 81
203 154
204 672
205 290
206 187
207 22
211 131
212 61
213 278
214 184
215 176
216 133
217 534
218 283
219 19
226 63
227 217
228 115
229 297
230 253
231 198
237 151
238 6
241 90
242 101
243 66
244 9
245 79
246 9
255 160
256 58
257 50
259 95
260 19
262 21
270 138
271 111
272 57
273 62
274 64
287 42
288 51
290 6
301 213
302 117
303 68
316 47
317 36
327 7
328 30
329 267
330 92
331 38
345 675
346 442
347 250
348 97
360 14
361 57

$$$$

     RDKit          2D

 24 25  0  0  0  0  0  0  0  0999 V2000
    0.7702   -0.4339    0.0000 C   0  0  0  0  0  0  0  0  0  0  0  0
    1.2906    1.6226    0.0000 C   0  0  0  0  0  0  0  0  0  0  0  0
   -0.7659    2.1430    0.0000 C   0  0  0  0  0  0  0  0  0  0  0  0
    4.7005   -2.6757    0.0000 C   0  0  0  0  0  0  0  0  0  0  0  0
    5.2452   -0.6256    0.0000 C   0  0  0  0  0  0  0  0  0  0  0  0
    3.1950   -0.0808    0.0000 C   0  0  0  0  0  0  0  0  0  0  0  0
   -6.4661    0.0614    0.0000 C   0  0  0  0  0  0  0  0  0  0  0  0
   -6.4597   -1.4394    0.0000 C   0  0  0  0  0  0  0  0  0  0  0  0
   -5.1699    0.8181    0.0000 C   0  0  0  0  0  0  0  0  0  0  0  0
   -1.2770   -4.3736    0.0000 C   0  0  0  0  0  0  0  0  0  0  0  0
   -5.1573   -2.1835    0.0000 C   0  0  0  0  0  0  0  0  0  0  0  0
   -3.8675    0.0740    0.0000 C   0  0  0  0  0  0  0  0  0  0  0  0
   -2.5546   -3.6512    0.0000 C   0  0  0  0  0  0  0  0  0  0  0  0
    0.0257   -3.6563    0.0000 C   0  0  0  0  0  0  0  0  0  0  0  0
   -3.8612   -1.4268    0.0000 C   0  0  0  0  0  0  0  0  0  0  0  0
   -2.5588   -2.1709    0.0000 C   0  0  0  0  0  0  0  0  0  0  0  0
    0.0522   -2.1365    0.0000 C   0  0  0  0  0  0  0  0  0  0  0  0
   -1.2654   -1.4134    0.0000 C   0  0  0  0  0  0  0  0  0  0  0  0
    1.3497   -1.3838    0.0000 C   0  0  0  0  0  0  0  0  0  0  0  0
    1.3465    0.1162    0.0000 O   0  0  0  0  0  0  0  0  0  0  0  0
   -1.2863    0.0865    0.0000 O   0  0  0  0  0  0  0  0  0  0  0  0
    2.6503   -2.1310    0.0000 O   0  0  0  0  0  0  0  0  0  0  0  0
    0.0021    0.8545    0.0000 Si  0  0  0  0  0  4  0  0  0  0  0  0
    3.9477   -1.3783    0.0000 Si  0  0  0  0  0  4  0  0  0  0  0  0
  8  7  2  0
  9  7  1  0
 11  8  1  0
 12  9  2  0
 13 10  2  0
 14 10  1  0
 15 11  2  0
 15 12  1  0
 16 13  1  0
 16 15  1  0
 17 14  2  0
 18 16  2  0
 18 17  1  0
 19 17  1  0
 20 19  2  0
 21 18  1  0
 22 19  1  0
 23  1  1  0
 23  2  1  0
 23  3  1  0
 23 21  1  0
 24  4  1  0
 24  5  1  0
 24  6  1  0
 24 22  1  0
M  END
>  <NAME>  (5518) 
3-PHENYL-2-(TRIMETHYLSILYL)OXYBENZOIC ACIDTRIMETHYLSILYL ESTER

>  <SYNONYMS>  (5518) 
TRIMETHYLSILYL 3-PHENYL-2-TRIMETHYLSILOXYBENZOATE

>  <SPECTRUM TYPE>  (5518) 
MS1

>  <INSTRUMENT TYPE>  (5518) 
EI-B

>  <INSTRUMENT>  (5518) 
JEOL JMS-01-SG

>  <ION MODE>  (5518) 
P

>  <INCHIKEY>  (5518) 
DUSFUWDBRHTRHV-UHFFFAOYSA-N

>  <FORMULA>  (5518) 
C19H26O3Si2

>  <EXACT MASS>  (5518) 
358.14204775199994

>  <MW>  (5518) 
358

>  <ID>  (5518) 
JP001050

>  <CONTRIBUTOR>  (5518) 
University of Tokyo Team, {Faculty of Engineering, University of Tokyo

>  <COMMENT>  (5518) 
SMILES=c(c2)ccc(c2)c(c1)c(O[Si](C)(C)C)c(cc1)C(=O)O[Si](C)(C)C
InChI=InChI=1S/C19H26O3Si2/c1-23(2,3)21-18-16(15-11-8-7-9-12-15)13-10-14-17(18)19(20)22-24(4,5)6/h7-14H,1-6H3
computed SMILES=O=C(O[Si](C)(C)C)C1=CC=CC(C=2C=CC=CC2)=C1O[Si](C)(C)C
accession=JP001050
date=2016.01.19 (Created 2008.10.21, modified 2011.05.06)
author=KOGA M, UNIV. OF OCCUPATIONAL AND ENVIRONMENTAL HEALTH
license=CC BY-NC-SA
exact mass=358.14205
ionization energy=70 eV
ion type=[M]+*
computed spectral entropy=1.7365526137021636
computed normalized entropy=0.6129268794195356
SPLASH=splash10-00dl-9106000000-9f944a06ae9f254f3d84
submitter=submitter = University of Tokyo Team (Faculty of Engineering, University of Tokyo)
MoNA Rating=3.75

>  <NUM PEAKS>  (5518) 
17

>  <MASS SPECTRAL PEAKS>  (5518) 
45 18
73 99.99
74 7.4
75 0.82
133 3.1
139 3.5
147 5.4
149 0.58
152 3.1
165 3.5
211 8.2
269 0.39
285 3.1
309 3.1
343 84.7
344 2.35
345 7.4

>  <PREDICTED SPECTRUM>  (5518) 
15 31
18 6
27 21
29 74
31 31
36 3
39 49
41 27
43 126
44 102
45 374
46 97
47 135
49 45
50 58
51 94
52 19
53 48
54 14
55 81
56 42
57 84
58 86
59 204
60 36
61 83
62 31
63 84
64 27
65 29
66 0
67 41
69 71
70 27
71 71
72 72
73 765
74 225
75 275
76 121
77 182
78 51
79 59
81 41
82 14
83 73
84 36
85 28
86 35
87 29
88 48
89 126
90 64
91 79
92 35
93 75
95 58
96 17
97 53
98 18
99 66
100 19
101 31
102 85
103 103
104 87
105 166
106 46
107 65
109 1
110 0
111 42
112 12
113 59
114 28
115 95
116 37
117 62
118 35
119 104
120 37
121 62
122 14
123 64
124 27
125 40
126 131
127 92
128 70
129 86
130 25
131 70
132 23
133 80
134 29
135 219
136 103
137 97
138 28
139 153
140 89
141 52
142 18
143 50
144 2
145 51
146 25
147 146
148 85
149 121
150 105
151 177
152 164
153 134
154 61
155 50
157 32
159 35
160 12
161 51
162 14
163 125
164 81
165 175
166 118
167 90
168 54
169 38
170 29
171 37
172 4
173 5
175 60
176 91
177 73
178 48
179 102
180 61
181 106
182 40
183 99
184 71
185 86
186 18
187 31
188 40
189 12
190 9
191 14
192 4
193 174
194 84
195 120
196 94
197 68
198 26
199 29
203 38
207 28
208 46
209 99
210 56
211 121
212 61
213 80
214 37
215 15
221 23
222 20
223 101
224 60
225 95
226 61
227 59
228 29
235 19
237 46
238 47
239 148
240 87
241 186
242 95
243 17
251 10
252 4
253 136
254 100
255 113
256 67
257 80
267 70
268 56
269 228
270 140
271 95
272 29
281 74
282 38
283 70
284 29
285 115
286 50
287 58
296 23
297 23
298 10
299 125
300 20
309 16
311 37
312 45
313 146
314 33
315 11
326 19
327 103
328 51
329 50
341 17
343 999
344 554
345 343
346 141
347 77
357 90
358 259
359 142
360 65
361 34

$$$$

     RDKit          2D

 21 20  0  0  0  0  0  0  0  0999 V2000
    1.7010    3.1471    0.0000 C   0  0  0  0  0  0  0  0  0  0  0  0
    1.1519    1.0981    0.0000 C   0  0  0  0  0  0  0  0  0  0  0  0
    3.2010    0.5490    0.0000 C   0  0  0  0  0  0  0  0  0  0  0  0
    9.6962    5.3971    0.0000 C   0  0  0  0  0  0  0  0  0  0  0  0
    8.1962    2.7990    0.0000 C   0  0  0  0  0  0  0  0  0  0  0  0
   10.2452    3.3481    0.0000 C   0  0  0  0  0  0  0  0  0  0  0  0
    0.6029    6.1471    0.0000 C   0  0  0  0  0  0  0  0  0  0  0  0
   -1.4462    5.5981    0.0000 C   0  0  0  0  0  0  0  0  0  0  0  0
   -0.8971    3.5490    0.0000 C   0  0  0  0  0  0  0  0  0  0  0  0
    5.0490    4.8481    0.0000 C   0  0  0  0  0  0  0  0  0  0  0  0
    3.7500    4.0981    0.0000 C   0  0  0  0  0  0  0  0  0  0  0  0
    6.3481    4.0981    0.0000 C   0  0  0  0  0  0  0  0  0  0  0  0
    2.4510    4.8481    0.0000 C   0  0  0  0  0  0  0  0  0  0  0  0
    6.3481    2.5981    0.0000 O   0  0  0  0  0  0  0  0  0  0  0  0
    2.4510    6.3481    0.0000 O   0  0  0  0  0  0  0  0  0  0  0  0
    3.7500    2.5981    0.0000 O   0  0  0  0  0  0  0  0  0  0  0  0
    7.6471    4.8481    0.0000 O   0  0  0  0  0  0  0  0  0  0  0  0
    1.1519    4.0981    0.0000 O   0  0  0  0  0  0  0  0  0  0  0  0
    2.4510    1.8481    0.0000 Si  0  0  0  0  0  4  0  0  0  0  0  0
    8.9462    4.0981    0.0000 Si  0  0  0  0  0  4  0  0  0  0  0  0
   -0.1471    4.8481    0.0000 Si  0  0  0  0  0  4  0  0  0  0  0  0
 11 10  1  0
 12 10  1  0
 13 11  1  0
 14 12  2  0
 15 13  2  0
 16 11  1  0
 17 12  1  0
 18 13  1  0
 19  1  1  0
 19  2  1  0
 19  3  1  0
 19 16  1  0
 20  4  1  0
 20  5  1  0
 20  6  1  0
 20 17  1  0
 21  7  1  0
 21  8  1  0
 21  9  1  0
 21 18  1  0
M  END
>  <NAME>  (5519) 
2-(TRIMETHYLSILYL)OXYBUTANEDIOIC ACID BIS(TRIMETHYLSILYL) ESTER

>  <SYNONYMS>  (5519) 
DI(TRIMETHYLSILYL) 2-TRIMETHYLSILOXYBUTANEDIOATE

>  <SPECTRUM TYPE>  (5519) 
MS1

>  <INSTRUMENT TYPE>  (5519) 
EI-B

>  <INSTRUMENT>  (5519) 
JEOL JMS-01-SG

>  <ION MODE>  (5519) 
P

>  <INCHIKEY>  (5519) 
QCOBWZRPFJZHGU-UHFFFAOYSA-N

>  <FORMULA>  (5519) 
C13H30O5Si3

>  <EXACT MASS>  (5519) 
350.14010364999996

>  <MW>  (5519) 
350

>  <ID>  (5519) 
JP001048

>  <CONTRIBUTOR>  (5519) 
University of Tokyo Team, {Faculty of Engineering, University of Tokyo

>  <COMMENT>  (5519) 
SMILES=O=C(O[Si](C)(C)C)CC(O[Si](C)(C)C)C(=O)O[Si](C)(C)C
InChI=InChI=1S/C13H30O5Si3/c1-19(2,3)16-11(13(15)18-21(7,8)9)10-12(14)17-20(4,5)6/h11H,10H2,1-9H3
computed SMILES=O=C(O[Si](C)(C)C)CC(O[Si](C)(C)C)C(=O)O[Si](C)(C)C
accession=JP001048
date=2016.01.19 (Created 2008.10.21, modified 2011.05.06)
author=KOGA M, UNIV. OF OCCUPATIONAL AND ENVIRONMENTAL HEALTH
license=CC BY-NC-SA
exact mass=350.1401
ionization energy=70 eV
ion type=[M]+*
computed spectral entropy=2.6855194480886317
computed normalized entropy=0.7680576692253142
SPLASH=splash10-00di-9200000000-29d1b68c4f492895d186
submitter=submitter = University of Tokyo Team (Faculty of Engineering, University of Tokyo)
MoNA Rating=3.75

>  <NUM PEAKS>  (5519) 
33

>  <MASS SPECTRAL PEAKS>  (5519) 
43 3.7
44 3.9
45 12.3
47 0.77
49 4.8
55 13.4
59 6.5
72 0.33
73 99.99
74 9
75 17.4
77 3.36
78 3.5
93 7.3
95 3.1
101 0.75
117 4.8
131 4.2
133 12.1
147 4.89
148 10.5
149 7.9
175 6.9
189 0.75
190 5.8
191 3.7
217 5.6
233 1.38
234 2.3
245 7.7
247 3.7
307 0.23
335 2.5

>  <PREDICTED SPECTRUM>  (5519) 
15 7
18 8
29 19
39 25
40 20
41 65
42 0
43 231
44 174
45 369
46 83
47 140
49 3
52 3
53 73
54 45
55 146
56 1
57 65
58 85
59 183
60 75
61 99
65 23
66 147
67 30
68 6
69 44
70 9
71 109
72 195
73 999
74 322
75 381
76 93
77 106
79 2
81 71
82 39
83 52
84 1
85 56
86 26
87 78
88 29
89 91
91 53
93 21
98 1
99 141
100 53
101 202
102 120
103 137
104 7
105 46
113 23
115 214
116 175
117 207
118 71
119 70
127 69
128 24
129 208
130 148
131 247
132 5
133 288
134 170
135 120
142 16
143 303
144 167
145 166
146 81
147 850
148 362
149 306
150 151
151 67
161 31
163 11
165 28
171 132
173 94
174 32
175 106
177 75
178 6
179 9
189 148
190 106
191 149
192 29
193 12
201 49
203 88
204 82
205 78
206 8
207 79
217 357
218 209
219 207
220 143
221 176
222 93
233 707
234 323
235 285
236 112
237 55
245 267
246 123
247 92
248 30
263 21
265 12
307 200
308 68
309 20
335 436
336 219
337 143
338 42
350 31

$$$$

     RDKit          2D

 22 21  0  0  0  0  0  0  0  0999 V2000
   16.6937    6.3212    0.0000 C   0  0  0  0  0  0  0  0  0  0  0  0
   15.1937    3.7231    0.0000 C   0  0  0  0  0  0  0  0  0  0  0  0
   17.2428    4.2721    0.0000 C   0  0  0  0  0  0  0  0  0  0  0  0
   -0.1937    7.0712    0.0000 C   0  0  0  0  0  0  0  0  0  0  0  0
   -2.2428    6.5221    0.0000 C   0  0  0  0  0  0  0  0  0  0  0  0
   -1.6937    4.4731    0.0000 C   0  0  0  0  0  0  0  0  0  0  0  0
    8.1495    5.0221    0.0000 C   0  0  0  0  0  0  0  0  0  0  0  0
    6.8505    5.7721    0.0000 C   0  0  0  0  0  0  0  0  0  0  0  0
    9.4486    5.7721    0.0000 C   0  0  0  0  0  0  0  0  0  0  0  0
    5.5514    5.0221    0.0000 C   0  0  0  0  0  0  0  0  0  0  0  0
   10.7476    5.0221    0.0000 C   0  0  0  0  0  0  0  0  0  0  0  0
    4.2524    5.7721    0.0000 C   0  0  0  0  0  0  0  0  0  0  0  0
   12.0466    5.7721    0.0000 C   0  0  0  0  0  0  0  0  0  0  0  0
    2.9534    5.0221    0.0000 C   0  0  0  0  0  0  0  0  0  0  0  0
   13.3457    5.0221    0.0000 C   0  0  0  0  0  0  0  0  0  0  0  0
    1.6543    5.7721    0.0000 C   0  0  0  0  0  0  0  0  0  0  0  0
   13.3457    3.5221    0.0000 O   0  0  0  0  0  0  0  0  0  0  0  0
    1.6543    7.2721    0.0000 O   0  0  0  0  0  0  0  0  0  0  0  0
   14.6447    5.7721    0.0000 O   0  0  0  0  0  0  0  0  0  0  0  0
    0.3553    5.0221    0.0000 O   0  0  0  0  0  0  0  0  0  0  0  0
   15.9437    5.0221    0.0000 Si  0  0  0  0  0  4  0  0  0  0  0  0
   -0.9437    5.7721    0.0000 Si  0  0  0  0  0  4  0  0  0  0  0  0
  8  7  1  0
  9  7  1  0
 10  8  1  0
 11  9  1  0
 12 10  1  0
 13 11  1  0
 14 12  1  0
 15 13  1  0
 16 14  1  0
 17 15  2  0
 18 16  2  0
 19 15  1  0
 20 16  1  0
 21  1  1  0
 21  2  1  0
 21  3  1  0
 21 19  1  0
 22  4  1  0
 22  5  1  0
 22  6  1  0
 22 20  1  0
M  END
>  <NAME>  (5520) 
DECANEDIOIC ACID BIS(TRIMETHYLSILYL) ESTER

>  <SYNONYMS>  (5520) 
DI(TRIMETHYLSILYL) DECANEDIOATE

>  <SPECTRUM TYPE>  (5520) 
MS1

>  <INSTRUMENT TYPE>  (5520) 
EI-B

>  <INSTRUMENT>  (5520) 
JEOL JMS-01-SG

>  <ION MODE>  (5520) 
P

>  <INCHIKEY>  (5520) 
BDACUOPQFMCPLO-UHFFFAOYSA-N

>  <FORMULA>  (5520) 
C16H34O4Si2

>  <EXACT MASS>  (5520) 
346.19956262799997

>  <MW>  (5520) 
346

>  <ID>  (5520) 
JP001047

>  <CONTRIBUTOR>  (5520) 
University of Tokyo Team, {Faculty of Engineering, University of Tokyo

>  <COMMENT>  (5520) 
SMILES=C(CCCCC(=O)O[Si](C)(C)C)CCCC(=O)O[Si](C)(C)C
InChI=InChI=1S/C16H34O4Si2/c1-21(2,3)19-15(17)13-11-9-7-8-10-12-14-16(18)20-22(4,5)6/h7-14H2,1-6H3
computed SMILES=O=C(O[Si](C)(C)C)CCCCCCCCC(=O)O[Si](C)(C)C
accession=JP001047
date=2016.01.19 (Created 2008.10.21, modified 2011.05.06)
author=KOGA M, UNIV. OF OCCUPATIONAL AND ENVIRONMENTAL HEALTH
license=CC BY-NC-SA
exact mass=346.19956
ionization energy=70 eV
ion type=[M]+*
computed spectral entropy=2.730542304243025
computed normalized entropy=0.8591869269703574
SPLASH=splash10-00us-9524000000-26ae5bb74fad073c6743
submitter=submitter = University of Tokyo Team (Faculty of Engineering, University of Tokyo)
MoNA Rating=3.75

>  <NUM PEAKS>  (5520) 
24

>  <MASS SPECTRAL PEAKS>  (5520) 
47 8.6
55 27
69 18.6
73 99.99
74 9.9
75 63.6
81 8
97 1.47
117 28.2
121 13.1
125 15.4
129 2.54
138 8
147 30.2
149 31.5
166 0.9
185 14.7
204 20.2
215 44.6
217 2.73
315 14.4
331 82.6
332 22.1
333 6.4

>  <PREDICTED SPECTRUM>  (5520) 
26 12
27 44
29 62
39 87
40 31
41 194
42 98
43 114
44 102
45 218
46 60
47 153
48 21
49 58
52 20
53 123
54 101
55 474
56 144
57 207
58 181
59 208
60 101
61 207
65 15
66 38
67 268
68 72
69 361
70 87
71 104
72 298
73 999
74 214
75 874
76 225
77 238
78 33
79 217
80 95
81 371
82 90
83 252
84 195
85 142
86 73
87 61
88 39
89 92
91 124
92 31
93 146
94 81
95 274
96 144
97 249
98 258
99 165
100 43
101 142
102 10
103 127
105 140
106 59
107 202
108 85
109 155
110 103
111 195
112 175
113 37
114 39
115 131
116 305
117 487
118 158
119 193
120 79
121 211
122 75
123 147
124 56
125 180
126 26
127 12
129 554
130 220
131 224
132 205
133 245
134 85
135 144
136 33
137 78
138 109
139 114
140 63
142 61
143 179
144 54
145 308
146 74
147 381
148 193
149 306
150 128
151 89
154 15
155 93
156 87
157 149
158 136
159 183
160 108
161 95
162 55
164 0
165 34
166 178
167 124
168 15
169 110
170 53
171 208
172 97
173 154
174 69
175 72
181 11
183 70
184 53
185 227
186 135
187 133
188 75
189 86
197 115
198 43
199 267
200 170
201 159
202 98
203 152
204 636
205 270
206 157
211 1
212 47
213 207
214 206
215 309
216 143
217 516
218 251
219 0
223 145
224 6
226 2
227 81
228 61
229 79
230 23
231 93
232 11
241 174
242 65
243 54
245 101
246 36
256 132
257 104
258 55
259 50
260 43
262 14
273 17
274 49
275 3
276 10
287 209
288 100
289 65
302 72
303 47
313 40
315 239
316 75
317 39
331 738
332 426
333 231
334 18
346 80
347 44

$$$$

     RDKit          2D

 22 22  0  0  0  0  0  0  0  0999 V2000
   -1.7792   -1.1452    0.0000 C   0  0  0  0  0  0  0  0  0  0  0  0
   -0.1554   -2.3260    0.0000 C   0  0  0  0  0  0  0  0  0  0  0  0
   -1.5265    1.8822    0.0000 C   0  0  0  0  0  0  0  0  0  0  0  0
    3.2312   -3.9852    0.0000 C   0  0  0  0  0  0  0  0  0  0  0  0
    5.3266   -4.3161    0.0000 C   0  0  0  0  0  0  0  0  0  0  0  0
    5.6575   -2.2208    0.0000 C   0  0  0  0  0  0  0  0  0  0  0  0
   -5.7757    1.4156    0.0000 C   0  0  0  0  0  0  0  0  0  0  0  0
   -6.5332   -0.5659    0.0000 C   0  0  0  0  0  0  0  0  0  0  0  0
   -4.5517   -1.3234    0.0000 C   0  0  0  0  0  0  0  0  0  0  0  0
    1.6482    0.5858    0.0000 C   0  0  0  0  0  0  0  0  0  0  0  0
    0.4382    1.4758    0.0000 C   0  0  0  0  0  0  0  0  0  0  0  0
    1.1882   -0.8342    0.0000 C   0  0  0  0  0  0  0  0  0  0  0  0
    2.0704   -2.0473    0.0000 C   0  0  0  0  0  0  0  0  0  0  0  0
   -2.5795   -0.2220    0.0000 C   0  0  0  0  0  0  0  0  0  0  0  0
   -0.3118   -0.8342    0.0000 C   0  0  0  0  0  0  0  0  0  0  0  0
   -0.7718    0.5858    0.0000 C   0  0  0  0  0  0  0  0  0  0  0  0
    1.4609   -3.4179    0.0000 O   0  0  0  0  0  0  0  0  0  0  0  0
   -2.7342   -1.7140    0.0000 O   0  0  0  0  0  0  0  0  0  0  0  0
    3.5622   -1.8899    0.0000 O   0  0  0  0  0  0  0  0  0  0  0  0
   -3.7942    0.6580    0.0000 O   0  0  0  0  0  0  0  0  0  0  0  0
    4.4444   -3.1030    0.0000 Si  0  0  0  0  0  4  0  0  0  0  0  0
   -5.1637    0.0461    0.0000 Si  0  0  0  0  0  4  0  0  0  0  0  0
 11 10  1  0
 12 10  1  0
 13 12  1  0
 15  1  1  0
 15  2  1  0
 15 12  1  0
 16  3  1  0
 16 11  1  0
 16 14  1  0
 16 15  1  0
 17 13  2  0
 18 14  2  0
 19 13  1  0
 20 14  1  0
 21  4  1  0
 21  5  1  0
 21  6  1  0
 21 19  1  0
 22  7  1  0
 22  8  1  0
 22  9  1  0
 22 20  1  0
M  END
>  <NAME>  (5521) 
CAMPHORIC ACID BIS(TRIMETHYLSILYL) ESTER

>  <SYNONYMS>  (5521) 
DI(TRIMETHYLSILYL) 1,2,2-TRIMETHYL-1,3-CYCLOPENTANEDICARBOXYLATE

>  <SPECTRUM TYPE>  (5521) 
MS1

>  <INSTRUMENT TYPE>  (5521) 
EI-B

>  <INSTRUMENT>  (5521) 
JEOL JMS-01-SG

>  <ION MODE>  (5521) 
P

>  <INCHIKEY>  (5521) 
CFIGMGJVGDCELR-UHFFFAOYSA-N

>  <FORMULA>  (5521) 
C16H32O4Si2

>  <EXACT MASS>  (5521) 
344.183912564

>  <MW>  (5521) 
344

>  <ID>  (5521) 
JP001046

>  <CONTRIBUTOR>  (5521) 
University of Tokyo Team, {Faculty of Engineering, University of Tokyo

>  <COMMENT>  (5521) 
SMILES=C[Si](C)(C)OC(=O)C(C1)C(C)(C)C(C)(C1)C(=O)O[Si](C)(C)C
InChI=InChI=1S/C16H32O4Si2/c1-15(2)12(13(17)19-21(4,5)6)10-11-16(15,3)14(18)20-22(7,8)9/h12H,10-11H2,1-9H3
computed SMILES=O=C(O[Si](C)(C)C)C1CCC(C(=O)O[Si](C)(C)C)(C)C1(C)C
accession=JP001046
date=2016.01.19 (Created 2008.10.21, modified 2011.05.06)
author=KOGA M, UNIV. OF OCCUPATIONAL AND ENVIRONMENTAL HEALTH
license=CC BY-NC-SA
exact mass=344.18391
ionization energy=70 eV
ion type=[M]+*
computed spectral entropy=2.270363424172532
computed normalized entropy=0.8188605132673495
SPLASH=splash10-00fr-9300000000-7944925d91f9078bfe03
submitter=submitter = University of Tokyo Team (Faculty of Engineering, University of Tokyo)
MoNA Rating=3.75

>  <NUM PEAKS>  (5521) 
16

>  <MASS SPECTRAL PEAKS>  (5521) 
45 9.2
55 12.9
69 25.9
73 99.99
74 7
75 24
77 10
108 3.11
109 31.1
137 18.8
138 10
148 3.88
198 6.2
226 10.7
329 11.8
330 2.5

>  <PREDICTED SPECTRUM>  (5521) 
15 19
18 8
26 12
27 65
28 44
29 75
39 57
40 38
41 126
42 40
43 101
44 64
45 279
46 71
47 170
48 33
49 35
52 38
53 151
54 82
55 176
56 85
57 80
58 110
59 136
60 42
61 148
62 6
63 0
64 7
65 80
66 105
67 167
68 93
69 196
70 73
71 94
72 224
73 999
74 278
75 540
76 127
77 133
78 24
79 90
80 83
81 236
82 149
83 133
84 84
85 59
86 54
87 68
89 73
91 111
92 17
93 101
94 81
95 197
96 103
97 99
98 72
99 123
100 16
101 86
102 50
103 122
104 24
105 63
106 43
107 74
108 102
109 257
110 102
111 137
112 52
113 89
114 9
115 110
116 98
117 263
118 69
119 111
120 44
121 85
122 39
123 149
124 48
125 64
126 13
127 122
128 81
129 245
130 151
131 256
132 94
133 127
134 71
135 97
136 94
137 285
138 138
139 68
140 9
141 61
142 29
143 218
144 60
145 134
146 49
147 525
148 223
149 202
150 64
153 41
154 61
155 157
156 146
157 114
158 114
159 13
164 23
165 61
167 119
168 66
169 146
170 135
171 120
172 126
173 94
174 67
175 4
178 47
179 5
181 33
182 70
183 178
184 100
185 193
186 104
187 69
195 18
197 102
198 96
199 146
200 29
203 9
204 19
209 37
210 62
211 315
212 123
213 75
217 26
225 46
226 300
227 622
228 215
229 126
230 35
231 35
232 8
239 100
245 33
247 6
254 70
255 49
256 0
257 169
258 77
259 63
260 15
261 41
271 7
272 41
273 22
276 32
285 62
287 82
288 73
289 39
300 54
301 99
302 61
303 21
329 382
330 169
331 112
332 36
344 52
345 64

$$$$

     RDKit          2D

 22 22  0  0  0  0  0  0  0  0999 V2000
    1.9854   -2.9387    0.0000 C   0  0  0  0  0  0  0  0  0  0  0  0
    4.5841    1.5623    0.0000 C   0  0  0  0  0  0  0  0  0  0  0  0
    5.3336   -1.2371    0.0000 C   0  0  0  0  0  0  0  0  0  0  0  0
    5.8827    0.8119    0.0000 C   0  0  0  0  0  0  0  0  0  0  0  0
    3.8336    1.3609    0.0000 C   0  0  0  0  0  0  0  0  0  0  0  0
   -3.7596    3.6109    0.0000 C   0  0  0  0  0  0  0  0  0  0  0  0
   -5.8087    3.0619    0.0000 C   0  0  0  0  0  0  0  0  0  0  0  0
   -5.2596    1.0129    0.0000 C   0  0  0  0  0  0  0  0  0  0  0  0
   -0.6130    0.0611    0.0000 C   0  0  0  0  0  0  0  0  0  0  0  0
    0.6870    2.3127    0.0000 C   0  0  0  0  0  0  0  0  0  0  0  0
   -0.6125    1.5619    0.0000 C   0  0  0  0  0  0  0  0  0  0  0  0
    0.6860   -0.6889    0.0000 C   0  0  0  0  0  0  0  0  0  0  0  0
    1.9860    1.5627    0.0000 C   0  0  0  0  0  0  0  0  0  0  0  0
    1.9855    0.0619    0.0000 C   0  0  0  0  0  0  0  0  0  0  0  0
   -1.9116    2.3119    0.0000 C   0  0  0  0  0  0  0  0  0  0  0  0
   -1.9116    3.8119    0.0000 O   0  0  0  0  0  0  0  0  0  0  0  0
    0.6863   -2.1889    0.0000 O   0  0  0  0  0  0  0  0  0  0  0  0
    3.2852    2.3125    0.0000 O   0  0  0  0  0  0  0  0  0  0  0  0
    3.2846   -0.6881    0.0000 O   0  0  0  0  0  0  0  0  0  0  0  0
   -3.2106    1.5619    0.0000 O   0  0  0  0  0  0  0  0  0  0  0  0
    4.5836    0.0619    0.0000 Si  0  0  0  0  0  4  0  0  0  0  0  0
   -4.5096    2.3119    0.0000 Si  0  0  0  0  0  4  0  0  0  0  0  0
 11  9  2  0
 11 10  1  0
 12  9  1  0
 13 10  2  0
 14 12  2  0
 14 13  1  0
 15 11  1  0
 16 15  2  0
 17  1  1  0
 17 12  1  0
 18  2  1  0
 18 13  1  0
 19 14  1  0
 20 15  1  0
 21  3  1  0
 21  4  1  0
 21  5  1  0
 21 19  1  0
 22  6  1  0
 22  7  1  0
 22  8  1  0
 22 20  1  0
M  END
>  <NAME>  (5522) 
3,5-DIMETHOXY-4-(TRIMETHYLSILYL)OXYBENZOICACID TRIMETHYLSILYL ESTR

>  <SYNONYMS>  (5522) 
TRIMETHYLSILYL 3,5-DIMETHOXY-4-TRIMETHYLSILOXYBENZOATE

>  <SPECTRUM TYPE>  (5522) 
MS1

>  <INSTRUMENT TYPE>  (5522) 
EI-B

>  <INSTRUMENT>  (5522) 
JEOL JMS-01-SG

>  <ION MODE>  (5522) 
P

>  <INCHIKEY>  (5522) 
KWOFGVXBWXVAJU-UHFFFAOYSA-N

>  <FORMULA>  (5522) 
C15H26O5Si2

>  <EXACT MASS>  (5522) 
342.131876992

>  <MW>  (5522) 
342

>  <ID>  (5522) 
JP001045

>  <CONTRIBUTOR>  (5522) 
University of Tokyo Team, {Faculty of Engineering, University of Tokyo

>  <COMMENT>  (5522) 
SMILES=COc(c1)c(O[Si](C)(C)C)c(OC)cc1C(=O)O[Si](C)(C)C
InChI=InChI=1S/C15H26O5Si2/c1-17-12-9-11(15(16)20-22(6,7)8)10-13(18-2)14(12)19-21(3,4)5/h9-10H,1-8H3
computed SMILES=O=C(O[Si](C)(C)C)C1=CC(OC)=C(O[Si](C)(C)C)C(OC)=C1
accession=JP001045
date=2016.01.19 (Created 2008.10.21, modified 2011.05.06)
author=KOGA M, UNIV. OF OCCUPATIONAL AND ENVIRONMENTAL HEALTH
license=CC BY-NC-SA
exact mass=342.13188
ionization energy=70 eV
ion type=[M]+*
computed spectral entropy=2.757537080905967
computed normalized entropy=0.827541368630156
SPLASH=splash10-0095-4169000000-ceffc22b3a4652d6ec7c
submitter=submitter = University of Tokyo Team (Faculty of Engineering, University of Tokyo)
MoNA Rating=3.75

>  <NUM PEAKS>  (5522) 
28

>  <MASS SPECTRAL PEAKS>  (5522) 
45 15
59 9.7
73 72.5
75 1.59
77 13.2
89 9.1
137 6.4
142 3
149 17.9
156 8.2
179 6.1
195 0.73
223 16.5
253 40.4
254 9.1
283 2.21
297 66.6
298 16.5
299 7.6
312 7.9
313 20
314 6.1
327 99.99
328 2.65
329 10.6
342 59.8
343 15.9
344 4.4

>  <PREDICTED SPECTRUM>  (5522) 
15 58
27 32
28 16
29 117
30 46
31 45
39 45
41 25
42 20
43 178
44 149
45 427
46 83
47 156
49 45
50 29
51 74
52 52
53 137
54 42
55 120
56 95
57 150
58 141
59 257
60 72
61 148
62 62
63 139
64 66
65 80
66 95
67 53
68 35
69 155
70 107
71 105
72 122
73 945
74 256
75 407
76 133
77 238
78 85
79 152
80 69
81 120
82 103
83 134
84 99
85 39
86 30
87 29
88 73
89 166
90 37
91 92
92 78
93 107
94 58
95 105
96 82
97 96
98 70
99 79
100 78
101 35
102 104
103 87
104 118
105 167
106 84
107 182
108 129
109 134
110 107
111 112
112 28
113 32
115 75
116 58
117 45
118 49
119 154
120 131
121 157
122 127
123 151
124 120
125 82
126 160
127 139
128 62
129 34
130 28
131 87
132 79
133 200
134 112
135 128
136 125
137 241
138 140
139 134
140 116
141 100
142 56
143 49
144 53
145 106
146 67
147 201
148 116
149 192
150 161
151 199
152 159
153 156
154 111
155 119
156 73
157 50
158 37
159 1
160 7
161 13
162 5
163 67
164 105
165 210
166 154
167 206
168 144
169 114
170 89
171 33
172 26
173 20
175 95
176 96
177 88
178 123
179 244
180 264
181 278
182 178
183 227
184 59
185 12
191 31
192 94
193 232
194 246
195 260
196 229
197 136
198 45
199 15
205 33
206 100
207 160
208 171
209 362
210 270
211 229
212 76
213 24
214 32
215 3
221 70
222 125
223 238
224 230
225 444
226 210
227 152
228 17
234 13
235 75
236 38
237 266
238 99
239 158
240 92
241 138
251 118
252 125
253 400
254 263
255 242
256 96
265 79
266 83
267 188
268 105
269 152
270 94
271 33
279 20
280 17
281 113
282 100
283 281
284 173
285 52
286 24
293 85
294 56
295 123
296 53
297 564
298 311
299 276
300 97
307 22
308 30
311 130
312 358
313 206
314 139
315 116
316 2
325 39
327 999
328 491
329 319
330 136
331 35
341 49
342 849
343 431
344 288
345 98
346 19

$$$$

     RDKit          2D

 22 22  0  0  0  0  0  0  0  0999 V2000
    4.9436    2.5573    0.0000 C   0  0  0  0  0  0  0  0  0  0  0  0
    5.6931   -0.2421    0.0000 C   0  0  0  0  0  0  0  0  0  0  0  0
    6.2422    1.8069    0.0000 C   0  0  0  0  0  0  0  0  0  0  0  0
    4.1931    2.3559    0.0000 C   0  0  0  0  0  0  0  0  0  0  0  0
   -5.9982    4.6059    0.0000 C   0  0  0  0  0  0  0  0  0  0  0  0
   -8.0472    4.0569    0.0000 C   0  0  0  0  0  0  0  0  0  0  0  0
   -7.4982    2.0079    0.0000 C   0  0  0  0  0  0  0  0  0  0  0  0
   -0.2535    1.0561    0.0000 C   0  0  0  0  0  0  0  0  0  0  0  0
   -1.5520    3.3069    0.0000 C   0  0  0  0  0  0  0  0  0  0  0  0
    1.0455    0.3061    0.0000 C   0  0  0  0  0  0  0  0  0  0  0  0
   -2.8511    2.5569    0.0000 C   0  0  0  0  0  0  0  0  0  0  0  0
    1.0465    3.3077    0.0000 C   0  0  0  0  0  0  0  0  0  0  0  0
   -0.2530    2.5569    0.0000 C   0  0  0  0  0  0  0  0  0  0  0  0
    2.3451    1.0569    0.0000 C   0  0  0  0  0  0  0  0  0  0  0  0
    2.3455    2.5577    0.0000 C   0  0  0  0  0  0  0  0  0  0  0  0
   -4.1501    3.3069    0.0000 C   0  0  0  0  0  0  0  0  0  0  0  0
   -4.1501    4.8069    0.0000 O   0  0  0  0  0  0  0  0  0  0  0  0
    3.6447    3.3075    0.0000 O   0  0  0  0  0  0  0  0  0  0  0  0
    3.6441    0.3069    0.0000 O   0  0  0  0  0  0  0  0  0  0  0  0
   -5.4492    2.5569    0.0000 O   0  0  0  0  0  0  0  0  0  0  0  0
    4.9431    1.0569    0.0000 Si  0  0  0  0  0  4  0  0  0  0  0  0
   -6.7482    3.3069    0.0000 Si  0  0  0  0  0  4  0  0  0  0  0  0
 10  8  2  0
  9 11  2  0
 13  8  1  0
 13  9  1  0
 13 12  2  0
 14 10  1  0
 15 12  1  0
 15 14  2  0
 16 11  1  0
 17 16  2  0
 18  1  1  0
 18 15  1  0
 19 14  1  0
 20 16  1  0
 21  2  1  0
 21  3  1  0
 21  4  1  0
 21 19  1  0
 22  5  1  0
 22  6  1  0
 22  7  1  0
 22 20  1  0
M  END
>  <NAME>  (5523) 
3-METHOXY-4-(TRIMETHYLSILYL)OXYCINNAMIC ACID TRIMETHYLSILYL ESTER

>  <SYNONYMS>  (5523) 
TRIMETHYLSILYL 3-METHOXY-4-TRIMETHYLSILOXYCINNAMATE

>  <SPECTRUM TYPE>  (5523) 
MS1

>  <INSTRUMENT TYPE>  (5523) 
EI-B

>  <INSTRUMENT>  (5523) 
JEOL JMS-01-SG

>  <ION MODE>  (5523) 
P

>  <INCHIKEY>  (5523) 
UQBSUVIBJIXFQT-PKNBQFBNSA-N

>  <FORMULA>  (5523) 
C16H26O4Si2

>  <EXACT MASS>  (5523) 
338.13696237199997

>  <MW>  (5523) 
338

>  <ID>  (5523) 
JP001044

>  <CONTRIBUTOR>  (5523) 
University of Tokyo Team, {Faculty of Engineering, University of Tokyo

>  <COMMENT>  (5523) 
SMILES=COc(c1)c(ccc(C=CC(=O)O[Si](C)(C)C)1)O[Si](C)(C)C
InChI=InChI=1S/C16H26O4Si2/c1-18-15-12-13(8-10-14(15)19-21(2,3)4)9-11-16(17)20-22(5,6)7/h8-12H,1-7H3/b11-9+
computed SMILES=O=C(O[Si](C)(C)C)C=CC1=CC=C(O[Si](C)(C)C)C(OC)=C1
accession=JP001044
date=2016.01.19 (Created 2008.10.21, modified 2011.05.06)
author=KOGA M, UNIV. OF OCCUPATIONAL AND ENVIRONMENTAL HEALTH
license=CC BY-NC-SA
exact mass=338.13696
ionization energy=70 eV
ion type=[M]+*
computed spectral entropy=2.9081301768713206
computed normalized entropy=0.8179593464762043
SPLASH=splash10-00di-9247000000-338e1064028745b35814
submitter=submitter = University of Tokyo Team (Faculty of Engineering, University of Tokyo)
MoNA Rating=3.75

>  <NUM PEAKS>  (5523) 
35

>  <MASS SPECTRAL PEAKS>  (5523) 
45 23.5
47 5.4
59 10.4
73 99.99
74 8.1
75 23.1
77 6.5
89 0.92
117 6.9
139 3.8
145 7.3
147 0.88
154 6.1
175 6.5
179 10
190 0.5
191 8.8
192 5.4
218 5
219 1.54
249 41.6
250 8.8
251 3
279 1.23
293 29.3
294 6.9
308 37.4
309 1
310 4.2
323 37.8
324 10.8
325 0.42
338 43.2
339 11.9
340 4.2

>  <PREDICTED SPECTRUM>  (5523) 
15 21
29 44
30 56
31 56
39 28
43 141
44 181
45 510
46 124
47 161
49 30
50 91
51 148
52 56
53 107
54 3
55 43
57 84
58 117
59 361
60 109
61 178
62 98
63 195
64 78
65 126
66 27
67 39
68 13
69 19
70 58
71 45
72 140
73 999
74 333
75 459
76 169
77 223
78 94
79 122
80 49
81 57
82 88
83 80
84 63
85 17
86 96
87 85
88 103
89 394
90 124
91 178
92 104
93 70
94 58
95 83
96 67
97 45
98 48
99 78
100 72
101 144
102 216
103 203
104 146
105 176
106 100
107 100
108 48
109 53
110 94
111 52
112 29
113 63
114 74
115 236
116 146
117 216
118 144
119 182
120 112
121 131
122 74
123 70
124 45
125 20
126 137
127 128
128 118
129 161
130 153
131 241
132 135
133 238
134 66
135 188
136 109
137 67
138 42
139 96
140 86
141 87
142 47
143 140
144 94
145 235
146 192
147 271
148 143
149 156
150 103
151 61
152 63
153 86
154 113
156 25
157 20
158 87
159 173
160 182
161 218
162 137
163 190
164 87
165 16
166 90
167 55
168 29
171 57
172 76
173 139
174 162
175 347
176 253
177 284
178 133
179 134
180 35
182 3
188 83
189 147
190 275
191 307
192 211
193 106
194 83
201 57
202 100
203 221
204 170
205 256
206 215
207 104
208 50
209 70
210 57
211 1
216 30
217 77
218 314
219 308
220 236
221 308
222 117
223 37
231 61
232 124
233 211
234 173
235 112
236 83
237 63
246 55
247 118
248 173
249 577
250 257
251 214
259 22
261 60
262 75
263 137
264 162
265 93
266 78
275 25
277 130
278 101
279 275
280 182
291 56
292 53
293 415
294 228
295 219
296 57
307 106
308 756
309 359
310 241
311 151
312 3
323 626
324 299
325 218
326 94
327 16
337 37
338 813
339 417
340 275
341 94

$$$$

     RDKit          2D

 22 22  0  0  0  0  0  0  0  0999 V2000
    2.9731    6.6214    0.0000 C   0  0  0  0  0  0  0  0  0  0  0  0
    3.5221    8.6705    0.0000 C   0  0  0  0  0  0  0  0  0  0  0  0
    1.4731    9.2195    0.0000 C   0  0  0  0  0  0  0  0  0  0  0  0
    1.4731   -0.8786    0.0000 C   0  0  0  0  0  0  0  0  0  0  0  0
    3.5221   -0.3295    0.0000 C   0  0  0  0  0  0  0  0  0  0  0  0
    2.9731    1.7195    0.0000 C   0  0  0  0  0  0  0  0  0  0  0  0
   -4.2721    1.1705    0.0000 C   0  0  0  0  0  0  0  0  0  0  0  0
   -2.9726    0.4196    0.0000 C   0  0  0  0  0  0  0  0  0  0  0  0
   -4.2726    2.6713    0.0000 C   0  0  0  0  0  0  0  0  0  0  0  0
   -1.6736    1.1696    0.0000 C   0  0  0  0  0  0  0  0  0  0  0  0
   -2.9736    3.4213    0.0000 C   0  0  0  0  0  0  0  0  0  0  0  0
   -0.3750    4.9205    0.0000 C   0  0  0  0  0  0  0  0  0  0  0  0
   -1.6740    2.6705    0.0000 C   0  0  0  0  0  0  0  0  0  0  0  0
   -0.3750    3.4205    0.0000 C   0  0  0  0  0  0  0  0  0  0  0  0
    0.9240    5.6705    0.0000 C   0  0  0  0  0  0  0  0  0  0  0  0
    0.9240    2.6705    0.0000 C   0  0  0  0  0  0  0  0  0  0  0  0
    2.2231    4.9205    0.0000 O   0  0  0  0  0  0  0  0  0  0  0  0
    2.2231    3.4205    0.0000 O   0  0  0  0  0  0  0  0  0  0  0  0
    0.9240    7.1705    0.0000 O   0  0  0  0  0  0  0  0  0  0  0  0
    0.9240    1.1705    0.0000 O   0  0  0  0  0  0  0  0  0  0  0  0
    2.2231    7.9205    0.0000 Si  0  0  0  0  0  4  0  0  0  0  0  0
    2.2231    0.4205    0.0000 Si  0  0  0  0  0  4  0  0  0  0  0  0
  8  7  2  0
  9  7  1  0
 10  8  1  0
 11  9  2  0
 13 10  2  0
 13 11  1  0
 14 12  1  0
 14 13  1  0
 15 12  1  0
 16 14  1  0
 17 15  2  0
 18 16  2  0
 19 15  1  0
 20 16  1  0
 21  1  1  0
 21  2  1  0
 21  3  1  0
 21 19  1  0
 22  4  1  0
 22  5  1  0
 22  6  1  0
 22 20  1  0
M  END
>  <NAME>  (5524) 
2-PHENYLBUTANEDIOIC ACID BIS(TRIMETHYLSILYL) ESTER

>  <SYNONYMS>  (5524) 
DI(TRIMETHYLSILYL) 2-PHENYLSUCCINATE

>  <SPECTRUM TYPE>  (5524) 
MS1

>  <INSTRUMENT TYPE>  (5524) 
EI-B

>  <INSTRUMENT>  (5524) 
JEOL JMS-01-SG

>  <ION MODE>  (5524) 
P

>  <INCHIKEY>  (5524) 
QSFAPKMHJXZWEF-UHFFFAOYSA-N

>  <FORMULA>  (5524) 
C16H26O4Si2

>  <EXACT MASS>  (5524) 
338.13696237199997

>  <MW>  (5524) 
338

>  <ID>  (5524) 
JP001043

>  <CONTRIBUTOR>  (5524) 
University of Tokyo Team, {Faculty of Engineering, University of Tokyo

>  <COMMENT>  (5524) 
SMILES=O=C(O[Si](C)(C)C)CC(c(c1)cccc1)C(=O)O[Si](C)(C)C
InChI=InChI=1S/C16H26O4Si2/c1-21(2,3)19-15(17)12-14(13-10-8-7-9-11-13)16(18)20-22(4,5)6/h7-11,14H,12H2,1-6H3
computed SMILES=O=C(O[Si](C)(C)C)CC(C(=O)O[Si](C)(C)C)C=1C=CC=CC1
accession=JP001043
date=2016.01.19 (Created 2008.10.21, modified 2011.05.06)
author=KOGA M, UNIV. OF OCCUPATIONAL AND ENVIRONMENTAL HEALTH
license=CC BY-NC-SA
exact mass=338.13696
ionization energy=70 eV
ion type=[M]+*
computed spectral entropy=2.196867243327128
computed normalized entropy=0.7923523693598638
SPLASH=splash10-006t-6920000000-5fa54c78afcd52c3ed1f
submitter=submitter = University of Tokyo Team (Faculty of Engineering, University of Tokyo)
MoNA Rating=3.75

>  <NUM PEAKS>  (5524) 
16

>  <MASS SPECTRAL PEAKS>  (5524) 
45 12.3
73 97.4
75 26.4
77 2.3
103 11.1
104 31.6
131 11.9
132 1.15
147 99.99
148 15.3
190 15.3
205 0.89
248 11.5
294 27.3
295 8.1
323 8.9

>  <PREDICTED SPECTRUM>  (5524) 
14 2
15 45
18 10
26 6
27 36
28 25
29 69
31 7
38 16
39 64
40 9
41 33
42 4
43 69
44 146
45 234
46 86
47 143
48 38
49 19
50 71
51 121
52 91
53 98
54 47
55 113
56 38
57 67
58 106
59 207
60 76
61 145
62 64
63 100
64 37
65 75
66 114
67 53
68 26
69 83
70 30
71 7
72 178
73 999
74 331
75 498
76 181
77 260
78 153
79 118
83 44
84 34
85 81
86 71
87 116
88 75
89 178
90 134
91 164
92 32
93 103
94 4
95 65
97 26
99 16
100 14
101 136
102 97
103 240
104 282
105 157
106 55
107 10
115 105
116 79
117 200
118 194
119 63
120 15
121 48
129 121
130 152
131 380
132 218
133 182
134 132
135 82
137 20
138 18
139 8
145 99
146 62
147 797
148 381
149 226
150 122
151 30
153 16
159 73
160 6
161 89
162 36
163 141
164 88
165 37
166 14
173 23
175 105
176 64
177 156
178 82
179 75
180 43
181 32
189 81
190 160
191 230
192 216
195 35
201 5
202 2
203 75
204 135
205 267
206 146
207 77
208 64
209 20
210 5
217 12
218 56
219 96
220 176
221 230
222 100
223 50
232 7
233 115
248 218
249 8
250 53
251 34
252 4
266 26
279 91
280 21
281 28
293 85
294 532
295 269
296 119
297 17
308 9
323 383
324 162
325 91
326 31
338 47
339 25

$$$$

     RDKit          2D

 22 22  0  0  0  0  0  0  0  0999 V2000
   -0.0998    0.1464    0.0000 C   0  0  0  0  0  0  0  0  0  0  0  0
    1.9493    0.6954    0.0000 C   0  0  0  0  0  0  0  0  0  0  0  0
    1.4002    2.7445    0.0000 C   0  0  0  0  0  0  0  0  0  0  0  0
   -0.4478    5.9454    0.0000 C   0  0  0  0  0  0  0  0  0  0  0  0
   -1.9478    7.4454    0.0000 C   0  0  0  0  0  0  0  0  0  0  0  0
   -3.4478    5.9454    0.0000 C   0  0  0  0  0  0  0  0  0  0  0  0
   -8.4430    3.6954    0.0000 C   0  0  0  0  0  0  0  0  0  0  0  0
   -8.4435    2.1946    0.0000 C   0  0  0  0  0  0  0  0  0  0  0  0
   -7.1435    4.4462    0.0000 C   0  0  0  0  0  0  0  0  0  0  0  0
   -7.1445    1.4446    0.0000 C   0  0  0  0  0  0  0  0  0  0  0  0
   -5.8445    3.6962    0.0000 C   0  0  0  0  0  0  0  0  0  0  0  0
   -4.5459    1.4454    0.0000 C   0  0  0  0  0  0  0  0  0  0  0  0
   -5.8450    2.1954    0.0000 C   0  0  0  0  0  0  0  0  0  0  0  0
   -3.2469    2.1954    0.0000 C   0  0  0  0  0  0  0  0  0  0  0  0
   -1.9478    1.4454    0.0000 C   0  0  0  0  0  0  0  0  0  0  0  0
   -3.2469    3.6954    0.0000 C   0  0  0  0  0  0  0  0  0  0  0  0
   -1.9478   -0.0546    0.0000 O   0  0  0  0  0  0  0  0  0  0  0  0
   -4.5459    4.4454    0.0000 O   0  0  0  0  0  0  0  0  0  0  0  0
   -0.6488    2.1954    0.0000 O   0  0  0  0  0  0  0  0  0  0  0  0
   -1.9478    4.4454    0.0000 O   0  0  0  0  0  0  0  0  0  0  0  0
    0.6502    1.4454    0.0000 Si  0  0  0  0  0  4  0  0  0  0  0  0
   -1.9478    5.9454    0.0000 Si  0  0  0  0  0  4  0  0  0  0  0  0
  8  7  2  0
  9  7  1  0
 10  8  1  0
 11  9  2  0
 13 10  2  0
 13 11  1  0
 13 12  1  0
 14 12  1  0
 15 14  1  0
 16 14  1  0
 17 15  2  0
 18 16  2  0
 19 15  1  0
 20 16  1  0
 21  1  1  0
 21  2  1  0
 21  3  1  0
 21 19  1  0
 22  4  1  0
 22  5  1  0
 22  6  1  0
 22 20  1  0
M  END
>  <NAME>  (5525) 
BENZYLMALONIC ACID BIS(TRIMETHYLSILYL) ESTER

>  <SYNONYMS>  (5525) 
DI(TRIMETHYLSILYL) BENZYLMALONATE

>  <SPECTRUM TYPE>  (5525) 
MS1

>  <INSTRUMENT TYPE>  (5525) 
EI-B

>  <INSTRUMENT>  (5525) 
JEOL JMS-01-SG

>  <ION MODE>  (5525) 
P

>  <INCHIKEY>  (5525) 
AKZYXWZPWVNMMW-UHFFFAOYSA-N

>  <FORMULA>  (5525) 
C16H26O4Si2

>  <EXACT MASS>  (5525) 
338.13696237199997

>  <MW>  (5525) 
338

>  <ID>  (5525) 
JP001042

>  <CONTRIBUTOR>  (5525) 
University of Tokyo Team, {Faculty of Engineering, University of Tokyo

>  <COMMENT>  (5525) 
SMILES=c(c1)ccc(c1)CC(C(=O)O[Si](C)(C)C)C(=O)O[Si](C)(C)C
InChI=InChI=1S/C16H26O4Si2/c1-21(2,3)19-15(17)14(16(18)20-22(4,5)6)12-13-10-8-7-9-11-13/h7-11,14H,12H2,1-6H3
computed SMILES=O=C(O[Si](C)(C)C)C(C(=O)O[Si](C)(C)C)CC=1C=CC=CC1
ion type=[M]+*
accession=JP001042
date=2016.01.19 (Created 2008.10.21, modified 2011.05.06)
author=KOGA M, UNIV. OF OCCUPATIONAL AND ENVIRONMENTAL HEALTH
license=CC BY-NC-SA
exact mass=338.13696
ionization energy=70 eV
computed spectral entropy=2.530409650917455
computed normalized entropy=0.8311351624688955
SPLASH=splash10-004i-9200000000-4bfc829390bd732a19ac
submitter=submitter = University of Tokyo Team (Faculty of Engineering, University of Tokyo)
MoNA Rating=3.75

>  <NUM PEAKS>  (5525) 
21

>  <MASS SPECTRAL PEAKS>  (5525) 
43 12.9
44 25.5
45 30.1
47 2.23
49 11.4
51 12.4
73 33.3
75 99.99
76 10.4
77 67.5
78 11.6
91 1.19
93 12.4
103 14.8
104 24.4
131 2.02
132 13.6
147 17.5
161 5.3
205 0.77
207 3.8

>  <PREDICTED SPECTRUM>  (5525) 
29 67
38 2
39 49
40 14
41 90
42 7
43 215
44 151
45 244
46 48
47 165
49 1
50 44
51 81
52 44
53 73
54 4
55 82
56 31
57 92
58 107
59 185
60 82
61 180
62 55
63 107
64 49
65 234
66 130
67 6
69 80
70 29
71 48
72 69
73 999
74 303
75 553
76 133
77 247
78 103
79 50
83 41
85 80
86 23
87 105
88 19
89 192
90 51
91 651
92 213
93 33
95 5
97 4
101 164
102 154
103 357
104 146
105 184
106 60
107 7
111 1
115 219
116 128
117 189
118 183
119 76
120 70
121 49
123 2
124 31
128 11
129 194
130 268
131 555
132 273
133 311
134 84
135 105
137 29
143 35
145 9
146 57
147 814
148 418
149 361
150 83
157 4
158 75
159 207
160 62
161 97
162 47
163 161
164 65
165 36
173 77
175 101
177 208
178 137
179 126
187 48
189 155
190 106
191 171
192 133
193 45
203 95
204 195
205 623
206 369
207 172
208 50
209 57
217 27
219 171
220 275
221 929
222 468
223 343
224 68
225 2
232 21
233 222
234 67
247 105
248 197
251 10
279 118
280 28
281 52
293 155
294 196
295 245
296 153
297 12
323 455
324 213
325 114
337 13
338 343
339 139
340 52

$$$$

     RDKit          2D

 21 20  0  0  0  0  0  0  0  0999 V2000
   15.0565    6.5589    0.0000 C   0  0  0  0  0  0  0  0  0  0  0  0
   13.5565    3.9608    0.0000 C   0  0  0  0  0  0  0  0  0  0  0  0
   15.6055    4.5099    0.0000 C   0  0  0  0  0  0  0  0  0  0  0  0
   -2.0320    6.5589    0.0000 C   0  0  0  0  0  0  0  0  0  0  0  0
   -2.5810    4.5099    0.0000 C   0  0  0  0  0  0  0  0  0  0  0  0
   -0.5320    3.9608    0.0000 C   0  0  0  0  0  0  0  0  0  0  0  0
    6.5123    5.2599    0.0000 C   0  0  0  0  0  0  0  0  0  0  0  0
    7.8113    6.0099    0.0000 C   0  0  0  0  0  0  0  0  0  0  0  0
    5.2132    6.0099    0.0000 C   0  0  0  0  0  0  0  0  0  0  0  0
    9.1103    5.2599    0.0000 C   0  0  0  0  0  0  0  0  0  0  0  0
    3.9142    5.2599    0.0000 C   0  0  0  0  0  0  0  0  0  0  0  0
   10.4094    6.0099    0.0000 C   0  0  0  0  0  0  0  0  0  0  0  0
    2.6151    6.0099    0.0000 C   0  0  0  0  0  0  0  0  0  0  0  0
   11.7084    5.2599    0.0000 C   0  0  0  0  0  0  0  0  0  0  0  0
    1.3161    5.2599    0.0000 C   0  0  0  0  0  0  0  0  0  0  0  0
   11.7084    3.7599    0.0000 O   0  0  0  0  0  0  0  0  0  0  0  0
    1.3161    3.7599    0.0000 O   0  0  0  0  0  0  0  0  0  0  0  0
   13.0075    6.0099    0.0000 O   0  0  0  0  0  0  0  0  0  0  0  0
    0.0171    6.0099    0.0000 O   0  0  0  0  0  0  0  0  0  0  0  0
   14.3065    5.2599    0.0000 Si  0  0  0  0  0  4  0  0  0  0  0  0
   -1.2820    5.2599    0.0000 Si  0  0  0  0  0  4  0  0  0  0  0  0
  8  7  1  0
  9  7  1  0
 10  8  1  0
 11  9  1  0
 12 10  1  0
 13 11  1  0
 14 12  1  0
 15 13  1  0
 16 14  2  0
 17 15  2  0
 18 14  1  0
 19 15  1  0
 20  1  1  0
 20  2  1  0
 20  3  1  0
 20 18  1  0
 21  4  1  0
 21  5  1  0
 21  6  1  0
 21 19  1  0
M  END
>  <NAME>  (5526) 
NONANEDIOIC ACID BIS(TRIMETHYLSILYL) ESTER

>  <SYNONYMS>  (5526) 
DI(TRIMETHYLSILYL) NONANEDIOATE

>  <SPECTRUM TYPE>  (5526) 
MS1

>  <INSTRUMENT TYPE>  (5526) 
EI-B

>  <INSTRUMENT>  (5526) 
JEOL JMS-01-SG

>  <ION MODE>  (5526) 
P

>  <INCHIKEY>  (5526) 
UGESQDAUQLNVHU-UHFFFAOYSA-N

>  <FORMULA>  (5526) 
C15H32O4Si2

>  <EXACT MASS>  (5526) 
332.18391256399997

>  <MW>  (5526) 
332

>  <ID>  (5526) 
JP001041

>  <CONTRIBUTOR>  (5526) 
University of Tokyo Team, {Faculty of Engineering, University of Tokyo

>  <COMMENT>  (5526) 
SMILES=C(CCCC(=O)O[Si](C)(C)C)CCCC(=O)O[Si](C)(C)C
InChI=InChI=1S/C15H32O4Si2/c1-20(2,3)18-14(16)12-10-8-7-9-11-13-15(17)19-21(4,5)6/h7-13H2,1-6H3
computed SMILES=O=C(O[Si](C)(C)C)CCCCCCCC(=O)O[Si](C)(C)C
accession=JP001041
date=2016.01.19 (Created 2008.10.21, modified 2011.05.06)
author=KOGA M, UNIV. OF OCCUPATIONAL AND ENVIRONMENTAL HEALTH
license=CC BY-NC-SA
exact mass=332.18391
ionization energy=70 eV
ion type=[M]+*
computed spectral entropy=2.6611925767496474
computed normalized entropy=0.8609369223830456
SPLASH=splash10-0g6r-9431000000-6a3111d8305aafff5dc0
submitter=submitter = University of Tokyo Team (Faculty of Engineering, University of Tokyo)
MoNA Rating=3.75

>  <NUM PEAKS>  (5526) 
22

>  <MASS SPECTRAL PEAKS>  (5526) 
45 11
55 28.2
67 11
73 99.99
75 66.1
81 9.3
83 15.9
97 1.34
111 12.5
117 28.9
129 25.9
147 3.23
152 27
153 11.2
171 11.4
183 1
201 43.8
204 23.6
217 18.9
273 0.74
317 20.8
318 8.2

>  <PREDICTED SPECTRUM>  (5526) 
26 22
27 46
29 49
39 89
40 33
41 201
42 108
43 154
44 130
45 241
46 72
47 159
48 17
49 54
51 4
52 23
53 126
54 98
55 469
56 124
57 177
58 155
59 205
60 88
61 213
62 23
65 22
66 37
67 233
68 65
69 357
70 87
71 113
72 294
73 999
74 208
75 856
76 213
77 225
78 45
79 209
80 98
81 366
82 102
83 233
84 178
85 112
86 65
87 65
88 64
89 132
91 128
92 22
93 164
94 85
95 231
96 132
97 263
98 243
99 155
100 65
101 130
102 11
103 81
104 2
105 110
106 60
107 180
108 62
109 174
110 95
111 216
112 165
113 42
114 9
115 160
116 286
117 468
118 156
119 171
120 45
121 181
122 26
123 104
124 113
125 199
126 73
127 40
128 1
129 517
130 203
131 220
132 171
133 233
134 80
135 172
136 84
137 66
139 19
142 36
143 161
144 92
145 301
146 111
147 392
148 191
149 298
150 124
151 82
152 117
153 165
154 68
155 160
156 63
157 146
158 118
159 101
160 73
161 77
162 23
167 3
169 123
170 106
171 231
172 109
173 184
174 75
175 57
183 163
184 48
185 248
186 152
187 145
188 102
189 84
190 23
198 34
199 184
200 175
201 289
202 156
203 150
204 579
205 228
206 129
207 27
209 119
213 84
214 102
215 101
216 87
217 477
218 225
219 23
227 160
228 59
229 53
231 109
232 55
242 129
243 107
244 42
245 48
246 53
259 14
260 37
261 19
262 33
273 229
274 90
275 73
276 1
287 0
288 37
289 50
290 0
299 16
301 176
302 64
303 31
317 685
318 336
319 181
320 73
332 61
333 31

$$$$

     RDKit          2D

 22 23  0  0  0  0  0  0  0  0999 V2000
    5.3987    3.0004    0.0000 C   0  0  0  0  0  0  0  0  0  0  0  0
    3.8984    4.5002    0.0000 C   0  0  0  0  0  0  0  0  0  0  0  0
    2.3987    3.0000    0.0000 C   0  0  0  0  0  0  0  0  0  0  0  0
    5.7468   -2.7995    0.0000 C   0  0  0  0  0  0  0  0  0  0  0  0
    7.7959   -2.2508    0.0000 C   0  0  0  0  0  0  0  0  0  0  0  0
    7.2472   -0.2017    0.0000 C   0  0  0  0  0  0  0  0  0  0  0  0
   -2.6000   -0.7500    0.0000 C   0  0  0  0  0  0  0  0  0  0  0  0
   -2.6000    0.7500    0.0000 C   0  0  0  0  0  0  0  0  0  0  0  0
   -1.3000   -1.5000    0.0000 C   0  0  0  0  0  0  0  0  0  0  0  0
   -1.3000    1.5000    0.0000 C   0  0  0  0  0  0  0  0  0  0  0  0
    1.3000   -1.5000    0.0000 C   0  0  0  0  0  0  0  0  0  0  0  0
    1.3000    1.5000    0.0000 C   0  0  0  0  0  0  0  0  0  0  0  0
    0.0000   -0.7500    0.0000 C   0  0  0  0  0  0  0  0  0  0  0  0
    0.0000    0.7500    0.0000 C   0  0  0  0  0  0  0  0  0  0  0  0
    2.6000   -0.7500    0.0000 C   0  0  0  0  0  0  0  0  0  0  0  0
    2.6000    0.7500    0.0000 C   0  0  0  0  0  0  0  0  0  0  0  0
    3.8989   -1.5002    0.0000 C   0  0  0  0  0  0  0  0  0  0  0  0
    3.8987   -3.0002    0.0000 O   0  0  0  0  0  0  0  0  0  0  0  0
    3.8989    1.5002    0.0000 O   0  0  0  0  0  0  0  0  0  0  0  0
    5.1981   -0.7504    0.0000 O   0  0  0  0  0  0  0  0  0  0  0  0
    3.8987    3.0002    0.0000 Si  0  0  0  0  0  4  0  0  0  0  0  0
    6.4970   -1.5006    0.0000 Si  0  0  0  0  0  4  0  0  0  0  0  0
  8  7  2  0
  9  7  1  0
 10  8  1  0
 13  9  2  0
 13 11  1  0
 14 10  2  0
 14 12  1  0
 14 13  1  0
 15 11  2  0
 16 12  2  0
 16 15  1  0
 17 15  1  0
 18 17  2  0
 19 16  1  0
 20 17  1  0
 21  1  1  0
 21  2  1  0
 21  3  1  0
 21 19  1  0
 22  4  1  0
 22  5  1  0
 22  6  1  0
 22 20  1  0
M  END
>  <NAME>  (5527) 
3-(TRIMETHYLSILYL)OXY-2-NAPHTHOIC ACID TRIMETHYLSILYL ESTER

>  <SYNONYMS>  (5527) 
TRIMETHYLSILYL 3-TRIMETHYLSILOXY-2-NAPHTHOATE

>  <SPECTRUM TYPE>  (5527) 
MS1

>  <INSTRUMENT TYPE>  (5527) 
EI-B

>  <INSTRUMENT>  (5527) 
JEOL JMS-01-SG

>  <ION MODE>  (5527) 
P

>  <INCHIKEY>  (5527) 
SGSKFENRYUZSIQ-UHFFFAOYSA-N

>  <FORMULA>  (5527) 
C17H24O3Si2

>  <EXACT MASS>  (5527) 
332.126397688

>  <MW>  (5527) 
332

>  <ID>  (5527) 
JP001040

>  <CONTRIBUTOR>  (5527) 
University of Tokyo Team, {Faculty of Engineering, University of Tokyo

>  <COMMENT>  (5527) 
SMILES=C[Si](C)(C)OC(=O)c(c1)c(O[Si](C)(C)C)cc(c2)c(ccc2)1
InChI=InChI=1S/C17H24O3Si2/c1-21(2,3)19-16-12-14-10-8-7-9-13(14)11-15(16)17(18)20-22(4,5)6/h7-12H,1-6H3
computed SMILES=O=C(O[Si](C)(C)C)C1=CC=2C=CC=CC2C=C1O[Si](C)(C)C
accession=JP001040
date=2016.01.19 (Created 2008.10.21, modified 2011.05.06)
author=KOGA M, UNIV. OF OCCUPATIONAL AND ENVIRONMENTAL HEALTH
license=CC BY-NC-SA
exact mass=332.1264
ionization energy=70 eV
ion type=[M]+*
computed spectral entropy=2.011378738892038
computed normalized entropy=0.7427405659146872
SPLASH=splash10-00xr-9215000000-b825f2d7c282ee8b6cde
submitter=submitter = University of Tokyo Team (Faculty of Engineering, University of Tokyo)
MoNA Rating=3.75

>  <NUM PEAKS>  (5527) 
15

>  <MASS SPECTRAL PEAKS>  (5527) 
73 99.99
74 7.3
75 17
77 1.11
115 7.1
141 12.2
149 12.7
185 0.89
243 8.9
259 11.5
260 6.3
299 0.71
317 58.6
318 13.3
319 8

>  <PREDICTED SPECTRUM>  (5527) 
15 21
18 3
27 14
29 74
39 31
41 13
43 153
44 115
45 351
46 74
47 122
49 48
50 26
51 41
53 42
54 2
55 52
57 48
58 48
59 80
60 55
61 82
62 27
63 63
64 16
69 21
70 33
71 50
72 40
73 691
74 190
75 242
76 51
77 82
79 8
83 11
84 19
85 9
86 11
87 39
88 50
89 57
90 3
91 45
93 34
95 2
97 11
98 28
99 72
100 42
101 97
102 73
103 88
105 51
106 12
107 42
109 19
110 7
111 18
112 2
113 58
114 107
115 165
116 67
117 67
118 22
119 74
120 58
121 10
123 10
124 12
125 27
126 82
127 109
128 74
129 30
130 23
131 71
132 16
133 64
134 0
135 76
136 10
137 18
139 88
140 97
141 70
142 80
143 53
144 19
145 83
146 53
147 230
148 93
149 103
150 25
151 88
152 89
153 69
154 33
155 81
156 10
157 48
158 7
159 84
160 61
161 52
162 44
164 18
165 65
166 15
167 73
168 53
169 102
170 128
171 108
172 53
173 58
176 26
178 3
183 8
184 24
185 179
186 97
187 126
188 101
189 52
190 68
191 2
197 19
198 9
199 114
200 74
201 83
202 61
203 29
211 12
212 5
213 64
214 94
215 166
216 89
217 25
227 80
228 50
229 127
230 65
231 71
241 38
242 62
243 323
244 146
245 78
256 17
257 48
258 29
259 82
260 81
261 21
271 27
273 44
275 0
283 8
285 23
287 39
288 18
301 69
303 30
315 24
317 999
318 522
319 316
320 117
321 45
331 49
332 345
333 177
334 103
335 35

$$$$

     RDKit          2D

 21 20  0  0  0  0  0  0  0  0999 V2000
    1.8195   -0.6684    0.0000 C   0  0  0  0  0  0  0  0  0  0  0  0
    7.7181    2.7372    0.0000 C   0  0  0  0  0  0  0  0  0  0  0  0
   -0.0000    0.0000    0.0000 C   0  0  0  0  0  0  0  0  0  0  0  0
    0.0000    3.0000    0.0000 C   0  0  0  0  0  0  0  0  0  0  0  0
   -1.5000    1.5000    0.0000 C   0  0  0  0  0  0  0  0  0  0  0  0
    8.0490    4.6471    0.0000 C   0  0  0  0  0  0  0  0  0  0  0  0
    7.5000    6.6962    0.0000 C   0  0  0  0  0  0  0  0  0  0  0  0
    5.4510    6.1471    0.0000 C   0  0  0  0  0  0  0  0  0  0  0  0
    2.0800    0.8088    0.0000 C   0  0  0  0  0  0  0  0  0  0  0  0
    6.3086    3.2502    0.0000 C   0  0  0  0  0  0  0  0  0  0  0  0
    3.4895    1.3218    0.0000 C   0  0  0  0  0  0  0  0  0  0  0  0
    5.1595    2.2860    0.0000 C   0  0  0  0  0  0  0  0  0  0  0  0
    2.2500    2.7990    0.0000 C   0  0  0  0  0  0  0  0  0  0  0  0
    4.5000    4.0981    0.0000 C   0  0  0  0  0  0  0  0  0  0  0  0
    3.7500    2.7990    0.0000 C   0  0  0  0  0  0  0  0  0  0  0  0
    1.5000    4.0981    0.0000 O   0  0  0  0  0  0  0  0  0  0  0  0
    3.7500    5.3971    0.0000 O   0  0  0  0  0  0  0  0  0  0  0  0
    1.5000    1.5000    0.0000 O   0  0  0  0  0  0  0  0  0  0  0  0
    6.0000    4.0981    0.0000 O   0  0  0  0  0  0  0  0  0  0  0  0
   -0.0000    1.5000    0.0000 Si  0  0  0  0  0  4  0  0  0  0  0  0
    6.7500    5.3971    0.0000 Si  0  0  0  0  0  4  0  0  0  0  0  0
  9  1  1  0
 10  2  1  0
 11  9  1  0
 12 10  1  0
 15 11  1  0
 15 12  1  0
 15 13  1  0
 15 14  1  0
 16 13  2  0
 17 14  2  0
 18 13  1  0
 19 14  1  0
 20  3  1  0
 20  4  1  0
 20  5  1  0
 20 18  1  0
 21  6  1  0
 21  7  1  0
 21  8  1  0
 21 19  1  0
M  END
>  <NAME>  (5528) 
HEPTANE-4,4-DICARBOXYLIC ACID BIS(TRIMETHYLSILYL) ESTER

>  <SYNONYMS>  (5528) 
DI(TRIMETHYLSILYL) 4,4-HEPTANEDICARBOXYLATE

>  <SPECTRUM TYPE>  (5528) 
MS1

>  <INSTRUMENT TYPE>  (5528) 
EI-B

>  <INSTRUMENT>  (5528) 
JEOL JMS-01-SG

>  <ION MODE>  (5528) 
P

>  <INCHIKEY>  (5528) 
DWLIUIJNJMCHOA-UHFFFAOYSA-N

>  <FORMULA>  (5528) 
C15H32O4Si2

>  <EXACT MASS>  (5528) 
332.183912564

>  <MW>  (5528) 
332

>  <ID>  (5528) 
JP001039

>  <CONTRIBUTOR>  (5528) 
University of Tokyo Team, {Faculty of Engineering, University of Tokyo

>  <COMMENT>  (5528) 
SMILES=CCCC(CCC)(C(=O)O[Si](C)(C)C)C(=O)O[Si](C)(C)C
InChI=InChI=1S/C15H32O4Si2/c1-9-11-15(12-10-2,13(16)18-20(3,4)5)14(17)19-21(6,7)8/h9-12H2,1-8H3
computed SMILES=O=C(O[Si](C)(C)C)C(C(=O)O[Si](C)(C)C)(CCC)CCC
accession=JP001039
date=2016.01.19 (Created 2008.10.21, modified 2011.05.06)
author=KOGA M, UNIV. OF OCCUPATIONAL AND ENVIRONMENTAL HEALTH
license=CC BY-NC-SA
exact mass=332.18391
ionization energy=70 eV
ion type=[M]+*
computed spectral entropy=2.1847775885202294
computed normalized entropy=0.8278628751269843
SPLASH=splash10-0002-9510000000-2402664434fca0bbb6dc
submitter=submitter = University of Tokyo Team (Faculty of Engineering, University of Tokyo)
MoNA Rating=3.75

>  <NUM PEAKS>  (5528) 
14

>  <MASS SPECTRAL PEAKS>  (5528) 
44 12.7
45 20.5
55 10.4
69 1.94
73 79.3
75 20.1
97 83.1
147 99.99
148 14.6
171 16.1
199 10.3
259 5.04
260 15.8
261 25.7

>  <PREDICTED SPECTRUM>  (5528) 
14 10
15 75
18 20
25 8
26 34
27 161
28 109
29 175
30 22
31 61
39 101
40 46
41 189
42 86
43 166
44 134
45 340
46 73
47 137
51 41
52 25
53 95
54 69
55 255
56 129
57 176
58 150
59 148
60 47
61 136
62 5
63 25
65 29
66 79
67 134
68 66
69 254
70 94
71 139
72 149
73 981
74 232
75 433
76 120
77 192
78 56
79 61
81 100
82 79
83 168
84 75
85 163
86 78
87 89
88 33
89 62
95 153
96 100
97 265
98 129
99 180
100 99
101 73
102 22
103 45
104 22
105 46
109 71
110 16
111 174
112 103
113 159
114 34
115 155
116 104
117 77
119 98
123 3
124 10
125 210
126 120
127 139
128 68
129 107
130 29
131 171
132 48
133 217
134 126
135 22
137 17
140 15
141 98
142 117
143 246
144 108
145 72
146 58
147 477
148 251
149 191
153 21
154 15
155 118
156 91
157 166
158 65
159 88
160 37
161 73
169 113
170 83
171 315
172 195
173 145
174 66
175 54
185 159
186 93
187 34
189 10
190 55
191 47
198 15
199 265
200 186
201 110
202 57
203 49
205 7
213 69
214 40
215 184
216 53
217 119
218 61
219 4
227 49
228 0
229 81
230 18
231 52
232 56
233 31
243 89
244 19
245 236
246 132
247 88
248 34
257 1
259 999
260 543
261 487
262 281
263 97
264 43
273 170
274 80
275 90
288 41
289 200
290 236
291 133
292 52
293 12
317 545
318 281
319 230
320 110

$$$$

     RDKit          2D

 21 21  0  0  0  0  0  0  0  0999 V2000
   -6.0399   -4.0403    0.0000 C   0  0  0  0  0  0  0  0  0  0  0  0
   -5.0779   -5.9309    0.0000 C   0  0  0  0  0  0  0  0  0  0  0  0
   -3.1872   -4.9690    0.0000 C   0  0  0  0  0  0  0  0  0  0  0  0
    1.6925   -6.6048    0.0000 C   0  0  0  0  0  0  0  0  0  0  0  0
    3.6731   -5.8452    0.0000 C   0  0  0  0  0  0  0  0  0  0  0  0
    2.9135   -3.8645    0.0000 C   0  0  0  0  0  0  0  0  0  0  0  0
    1.2100    0.3900    0.0000 C   0  0  0  0  0  0  0  0  0  0  0  0
    0.0000    1.2800    0.0000 C   0  0  0  0  0  0  0  0  0  0  0  0
    0.7500   -1.0300    0.0000 C   0  0  0  0  0  0  0  0  0  0  0  0
   -1.2100    0.3900    0.0000 C   0  0  0  0  0  0  0  0  0  0  0  0
   -2.2174   -1.3410    0.0000 C   0  0  0  0  0  0  0  0  0  0  0  0
   -0.5936   -2.5218    0.0000 C   0  0  0  0  0  0  0  0  0  0  0  0
   -2.6818   -2.7673    0.0000 C   0  0  0  0  0  0  0  0  0  0  0  0
    0.7765   -3.1323    0.0000 C   0  0  0  0  0  0  0  0  0  0  0  0
   -0.7500   -1.0300    0.0000 C   0  0  0  0  0  0  0  0  0  0  0  0
   -1.6787   -3.8826    0.0000 O   0  0  0  0  0  0  0  0  0  0  0  0
    1.9903   -2.2510    0.0000 O   0  0  0  0  0  0  0  0  0  0  0  0
   -4.1492   -3.0783    0.0000 O   0  0  0  0  0  0  0  0  0  0  0  0
    0.9328   -4.6242    0.0000 O   0  0  0  0  0  0  0  0  0  0  0  0
   -4.6135   -4.5046    0.0000 Si  0  0  0  0  0  4  0  0  0  0  0  0
    2.3030   -5.2347    0.0000 Si  0  0  0  0  0  4  0  0  0  0  0  0
  8  7  1  0
  9  7  1  0
 10  8  1  0
 13 11  1  0
 14 12  1  0
 15  9  1  0
 15 10  1  0
 15 11  1  0
 15 12  1  0
 16 13  2  0
 17 14  2  0
 18 13  1  0
 19 14  1  0
 20  1  1  0
 20  2  1  0
 20  3  1  0
 20 18  1  0
 21  4  1  0
 21  5  1  0
 21  6  1  0
 21 19  1  0
M  END
>  <NAME>  (5529) 
1,1-CYCLOPENTANEDIACETIC ACID BIS(TRIMETHYLSILYL) ESTER

>  <SYNONYMS>  (5529) 
DI(TRIMETHYLSILYL) 1,1-CYCLOPENTANEDIACETATE

>  <SPECTRUM TYPE>  (5529) 
MS1

>  <INSTRUMENT TYPE>  (5529) 
EI-B

>  <INSTRUMENT>  (5529) 
JEOL JMS-01-SG

>  <ION MODE>  (5529) 
P

>  <INCHIKEY>  (5529) 
FWYIOQBWIAFANE-UHFFFAOYSA-N

>  <FORMULA>  (5529) 
C15H30O4Si2

>  <EXACT MASS>  (5529) 
330.16826249999997

>  <MW>  (5529) 
330

>  <ID>  (5529) 
JP001038

>  <CONTRIBUTOR>  (5529) 
University of Tokyo Team, {Faculty of Engineering, University of Tokyo

>  <COMMENT>  (5529) 
SMILES=O=C(O[Si](C)(C)C)CC(C1)(CCC1)CC(=O)O[Si](C)(C)C
InChI=InChI=1S/C15H30O4Si2/c1-20(2,3)18-13(16)11-15(9-7-8-10-15)12-14(17)19-21(4,5)6/h7-12H2,1-6H3
computed SMILES=O=C(O[Si](C)(C)C)CC1(CC(=O)O[Si](C)(C)C)CCCC1
accession=JP001038
date=2016.01.19 (Created 2008.10.21, modified 2011.05.06)
author=KOGA M, UNIV. OF OCCUPATIONAL AND ENVIRONMENTAL HEALTH
license=CC BY-NC-SA
exact mass=330.16826
ionization energy=70 eV
ion type=[M]+*
computed spectral entropy=2.3410555693807416
computed normalized entropy=0.8099496415937659
SPLASH=splash10-00di-9300000000-1caa8fd0b2852e524e47
submitter=submitter = University of Tokyo Team (Faculty of Engineering, University of Tokyo)
MoNA Rating=3.75

>  <NUM PEAKS>  (5529) 
18

>  <MASS SPECTRAL PEAKS>  (5529) 
43 9.4
45 21
67 5.1
73 99.99
74 7.2
75 30
77 18
81 1.28
95 6
109 43.3
117 14.1
147 3.21
170 10.3
183 5.5
198 7.2
199 2.06
212 13.7
315 15

>  <PREDICTED SPECTRUM>  (5529) 
14 6
15 35
18 20
26 19
27 82
28 55
29 86
30 10
31 11
33 0
38 12
39 148
40 70
41 263
42 127
43 198
44 203
45 371
46 108
47 225
48 63
49 64
50 19
51 48
52 60
53 150
54 87
55 278
56 132
57 132
58 110
59 151
60 134
61 179
62 48
63 47
65 45
66 122
67 220
68 142
69 226
70 76
71 82
72 203
73 999
74 303
75 661
76 149
77 171
78 61
79 139
80 92
81 252
82 151
83 163
84 110
85 143
86 108
87 63
88 38
89 94
90 0
91 99
92 8
93 119
94 86
95 237
96 154
97 135
98 81
99 166
100 27
101 94
102 60
103 77
104 70
105 101
106 51
107 108
108 52
109 209
110 114
111 131
112 78
113 77
114 17
115 151
116 159
117 317
118 100
119 64
121 88
122 101
123 267
124 143
125 134
126 45
127 92
128 74
129 290
130 247
131 234
132 148
133 250
134 82
135 58
136 9
137 25
138 35
139 104
140 49
141 127
142 121
143 122
144 79
145 67
146 33
147 524
148 221
149 213
150 220
151 147
152 83
153 149
154 135
155 254
156 193
157 221
158 173
159 48
160 61
161 21
165 45
166 26
167 106
168 109
169 293
170 228
171 160
172 77
173 37
174 25
175 8
176 58
180 27
181 154
182 75
183 183
184 190
185 210
186 98
187 64
188 40
189 49
190 64
195 60
196 103
197 365
198 348
199 395
200 181
201 69
202 35
203 137
204 177
205 1
206 75
207 21
211 96
212 247
213 333
214 167
215 130
216 61
217 78
218 26
219 10
225 193
226 105
227 97
228 15
229 80
230 53
231 63
232 9
235 43
240 281
241 196
242 98
243 160
244 61
245 53
255 73
257 80
258 60
259 31
262 23
271 136
272 68
273 83
274 21
275 7
285 8
286 43
287 105
288 36
297 66
299 16
315 446
316 220
317 147
318 42
330 122
331 46
332 16

$$$$

     RDKit          2D

 22 21  0  0  0  0  0  0  0  0999 V2000
    5.4339    9.8873    0.0000 C   0  0  0  0  0  0  0  0  0  0  0  0
  -11.4536   12.1373    0.0000 C   0  0  0  0  0  0  0  0  0  0  0  0
  -16.1007   11.1863    0.0000 C   0  0  0  0  0  0  0  0  0  0  0  0
  -16.6498    9.1373    0.0000 C   0  0  0  0  0  0  0  0  0  0  0  0
  -14.6007    8.5882    0.0000 C   0  0  0  0  0  0  0  0  0  0  0  0
    4.1349   10.6373    0.0000 C   0  0  0  0  0  0  0  0  0  0  0  0
    2.8358    9.8873    0.0000 C   0  0  0  0  0  0  0  0  0  0  0  0
    1.5368   10.6373    0.0000 C   0  0  0  0  0  0  0  0  0  0  0  0
    0.2377    9.8873    0.0000 C   0  0  0  0  0  0  0  0  0  0  0  0
   -1.0613   10.6373    0.0000 C   0  0  0  0  0  0  0  0  0  0  0  0
   -2.3603    9.8873    0.0000 C   0  0  0  0  0  0  0  0  0  0  0  0
   -3.6594   10.6373    0.0000 C   0  0  0  0  0  0  0  0  0  0  0  0
   -4.9584    9.8873    0.0000 C   0  0  0  0  0  0  0  0  0  0  0  0
   -6.2575   10.6373    0.0000 C   0  0  0  0  0  0  0  0  0  0  0  0
   -7.5565    9.8873    0.0000 C   0  0  0  0  0  0  0  0  0  0  0  0
   -8.8555   10.6373    0.0000 C   0  0  0  0  0  0  0  0  0  0  0  0
  -10.1546    9.8873    0.0000 C   0  0  0  0  0  0  0  0  0  0  0  0
  -11.4536   10.6373    0.0000 C   0  0  0  0  0  0  0  0  0  0  0  0
  -12.7526    9.8873    0.0000 C   0  0  0  0  0  0  0  0  0  0  0  0
  -12.7526    8.3873    0.0000 O   0  0  0  0  0  0  0  0  0  0  0  0
  -14.0517   10.6373    0.0000 O   0  0  0  0  0  0  0  0  0  0  0  0
  -15.3507    9.8873    0.0000 Si  0  0  0  0  0  4  0  0  0  0  0  0
  6  1  1  0
  7  6  1  0
  8  7  1  0
  9  8  1  0
 10  9  1  0
 11 10  1  0
 12 11  1  0
 13 12  1  0
 14 13  1  0
 15 14  1  0
 16 15  1  0
 17 16  1  0
 18  2  1  0
 18 17  1  0
 19 18  1  0
 20 19  2  0
 21 19  1  0
 22  3  1  0
 22  4  1  0
 22  5  1  0
 22 21  1  0
M  END
>  <NAME>  (5530) 
2-METHYLPENTADECANOIC ACID TRIMETHYLSILYLESTER

>  <SYNONYMS>  (5530) 
TRIMETHYLSILYL 2-METHYLPENTADECANOATE

>  <SPECTRUM TYPE>  (5530) 
MS1

>  <INSTRUMENT TYPE>  (5530) 
EI-B

>  <INSTRUMENT>  (5530) 
JEOL JMS-01-SG

>  <ION MODE>  (5530) 
P

>  <INCHIKEY>  (5530) 
VTUHRCMSKKPSFY-UHFFFAOYSA-N

>  <FORMULA>  (5530) 
C19H40O2Si

>  <EXACT MASS>  (5530) 
328.27975705

>  <MW>  (5530) 
328

>  <ID>  (5530) 
JP001037

>  <CONTRIBUTOR>  (5530) 
University of Tokyo Team, {Faculty of Engineering, University of Tokyo

>  <COMMENT>  (5530) 
SMILES=CCCCCCCCCCCCCC(C)C(=O)O[Si](C)(C)C
InChI=InChI=1S/C19H40O2Si/c1-6-7-8-9-10-11-12-13-14-15-16-17-18(2)19(20)21-22(3,4)5/h18H,6-17H2,1-5H3
computed SMILES=O=C(O[Si](C)(C)C)C(C)CCCCCCCCCCCCC
accession=JP001037
date=2016.01.19 (Created 2008.10.21, modified 2011.05.06)
author=KOGA M, UNIV. OF OCCUPATIONAL AND ENVIRONMENTAL HEALTH
license=CC BY-NC-SA
exact mass=328.27976
ionization energy=70 eV
ion type=[M]+*
computed spectral entropy=2.767522986155522
computed normalized entropy=0.7915106538464878
SPLASH=splash10-00vi-9400000000-dff11f6f17320f8bd3d6
submitter=submitter = University of Tokyo Team (Faculty of Engineering, University of Tokyo)
MoNA Rating=3.75

>  <NUM PEAKS>  (5530) 
33

>  <MASS SPECTRAL PEAKS>  (5530) 
43 19.9
44 3.3
45 6.1
47 0.52
55 21.8
56 6.1
57 13.2
61 0.56
67 6.1
69 13.7
71 4.7
73 99.99
74 9.4
75 68.7
76 6.6
77 0.99
81 7.1
83 9
95 6.6
97 6.1
98 5.6
116 4.7
117 82.9
118 0.75
129 32.7
130 5.2
131 14.6
132 3.69
133 6.6
145 24.1
201 4.2
313 2.13
314 5.6

>  <PREDICTED SPECTRUM>  (5530) 
15 20
25 0
26 40
27 148
28 78
29 94
31 2
39 85
40 17
41 289
42 101
43 373
44 172
45 232
46 37
47 73
53 85
54 82
55 433
56 128
57 321
58 133
59 105
60 12
61 180
62 10
63 11
66 16
67 185
68 110
69 356
70 148
71 211
72 78
73 999
74 295
75 633
76 156
77 157
78 27
79 41
80 11
81 146
82 63
83 285
84 84
85 141
86 45
87 76
88 0
89 25
91 70
93 91
95 184
96 118
97 244
98 123
99 109
100 9
101 107
102 96
103 215
104 113
105 81
106 0
107 43
109 87
110 45
111 150
112 86
113 56
115 100
116 79
117 401
118 112
119 72
120 5
125 98
126 12
129 269
130 227
131 269
132 142
133 43
137 5
138 10
139 26
141 13
142 3
143 239
144 88
145 361
146 172
147 259
148 59
149 76
151 8
153 20
154 22
157 103
158 133
159 167
160 77
167 69
168 11
169 18
171 67
172 27
173 80
174 32
183 6
184 11
185 128
186 68
187 90
190 7
199 129
200 72
201 59
209 24
210 96
211 108
212 11
213 53
215 53
217 5
227 21
229 31
230 23
238 71
241 120
242 132
243 46
244 81
245 77
256 23
257 28
258 16
269 53
271 29
272 28
273 15
284 40
285 181
286 132
297 49
299 88
313 725
314 363
315 174
316 19
328 70
329 17

$$$$

     RDKit          2D

 21 21  0  0  0  0  0  0  0  0999 V2000
   -1.8481    6.8690    0.0000 C   0  0  0  0  0  0  0  0  0  0  0  0
   -3.8971    6.3200    0.0000 C   0  0  0  0  0  0  0  0  0  0  0  0
   -3.3481    4.2710    0.0000 C   0  0  0  0  0  0  0  0  0  0  0  0
    3.3481    4.2710    0.0000 C   0  0  0  0  0  0  0  0  0  0  0  0
    3.8971    6.3200    0.0000 C   0  0  0  0  0  0  0  0  0  0  0  0
    1.8481    6.8690    0.0000 C   0  0  0  0  0  0  0  0  0  0  0  0
    0.0000   -1.9300    0.0000 C   0  0  0  0  0  0  0  0  0  0  0  0
    1.3000   -1.1800    0.0000 C   0  0  0  0  0  0  0  0  0  0  0  0
   -1.3000   -1.1800    0.0000 C   0  0  0  0  0  0  0  0  0  0  0  0
    1.3000    0.3200    0.0000 C   0  0  0  0  0  0  0  0  0  0  0  0
   -1.3000    0.3200    0.0000 C   0  0  0  0  0  0  0  0  0  0  0  0
    0.0000    1.0700    0.0000 C   0  0  0  0  0  0  0  0  0  0  0  0
    0.0000    2.5700    0.0000 C   0  0  0  0  0  0  0  0  0  0  0  0
   -1.2990    3.3200    0.0000 C   0  0  0  0  0  0  0  0  0  0  0  0
    1.2990    3.3200    0.0000 C   0  0  0  0  0  0  0  0  0  0  0  0
   -2.5981    2.5700    0.0000 O   0  0  0  0  0  0  0  0  0  0  0  0
    2.5981    2.5700    0.0000 O   0  0  0  0  0  0  0  0  0  0  0  0
   -1.2990    4.8200    0.0000 O   0  0  0  0  0  0  0  0  0  0  0  0
    1.2990    4.8200    0.0000 O   0  0  0  0  0  0  0  0  0  0  0  0
   -2.5981    5.5700    0.0000 Si  0  0  0  0  0  4  0  0  0  0  0  0
    2.5981    5.5700    0.0000 Si  0  0  0  0  0  4  0  0  0  0  0  0
  8  7  2  0
  9  7  1  0
 10  8  1  0
 11  9  2  0
 12 10  2  0
 12 11  1  0
 13 12  1  0
 14 13  1  0
 15 13  1  0
 16 14  2  0
 17 15  2  0
 18 14  1  0
 19 15  1  0
 20  1  1  0
 20  2  1  0
 20  3  1  0
 20 18  1  0
 21  4  1  0
 21  5  1  0
 21  6  1  0
 21 19  1  0
M  END
>  <NAME>  (5531) 
PHENYL-MALONIC ACID BIS(TRIMETHYLSILYL) ESTER

>  <SYNONYMS>  (5531) 
DI(TRIMETHYLSILYL) PHENYLMALONATE

>  <SPECTRUM TYPE>  (5531) 
MS1

>  <INSTRUMENT TYPE>  (5531) 
EI-B

>  <INSTRUMENT>  (5531) 
JEOL JMS-01-SG

>  <ION MODE>  (5531) 
P

>  <INCHIKEY>  (5531) 
AIZHQFQKWQSRKR-UHFFFAOYSA-N

>  <FORMULA>  (5531) 
C15H24O4Si2

>  <EXACT MASS>  (5531) 
324.12131230800003

>  <MW>  (5531) 
324

>  <ID>  (5531) 
JP001035

>  <CONTRIBUTOR>  (5531) 
University of Tokyo Team, {Faculty of Engineering, University of Tokyo

>  <COMMENT>  (5531) 
SMILES=c(c1)ccc(c1)C(C(=O)O[Si](C)(C)C)C(=O)O[Si](C)(C)C
InChI=InChI=1S/C15H24O4Si2/c1-20(2,3)18-14(16)13(12-10-8-7-9-11-12)15(17)19-21(4,5)6/h7-11,13H,1-6H3
computed SMILES=O=C(O[Si](C)(C)C)C(C(=O)O[Si](C)(C)C)C=1C=CC=CC1
accession=JP001035
date=2016.01.19 (Created 2008.10.21, modified 2011.05.06)
author=KOGA M, UNIV. OF OCCUPATIONAL AND ENVIRONMENTAL HEALTH
license=CC BY-NC-SA
exact mass=324.12131
ionization energy=70 eV
ion type=[M]+*
computed spectral entropy=2.7338747407974395
computed normalized entropy=0.7961225764693337
SPLASH=splash10-00dj-9220000000-12f638bd72ab80dc58e5
submitter=submitter = University of Tokyo Team (Faculty of Engineering, University of Tokyo)
MoNA Rating=3.75

>  <NUM PEAKS>  (5531) 
31

>  <MASS SPECTRAL PEAKS>  (5531) 
43 27.1
44 4.7
45 25
47 0.43
73 99.99
74 8.2
75 24.6
77 1.2
89 8.2
90 12
117 4.3
118 1.51
119 4.3
133 6.4
145 17.3
147 7.1
148 11.8
149 7.2
163 4.1
206 1.42
207 7.2
234 18.6
235 2.4
265 3.95
266 9.7
267 2.2
279 4.7
281 0.99
282 1.6
309 9.1
310 1.4

>  <PREDICTED SPECTRUM>  (5531) 
15 16
27 32
29 24
43 147
44 112
45 348
46 69
47 157
49 7
50 20
51 59
52 26
53 51
55 82
56 7
57 31
58 88
59 192
60 45
61 104
62 14
63 46
64 14
65 66
66 87
71 27
72 119
73 999
74 279
75 399
76 97
77 196
78 91
79 77
83 18
87 77
88 11
89 164
90 31
91 130
92 39
93 20
101 77
102 59
103 181
104 99
105 91
106 29
107 10
115 129
116 30
117 308
118 135
119 146
120 70
121 56
123 12
130 22
131 234
132 10
133 230
134 58
135 61
145 86
146 33
147 729
148 338
149 267
150 106
159 56
161 35
162 67
163 157
164 51
165 86
175 106
176 47
177 178
178 138
190 50
191 321
192 154
193 74
194 39
205 90
206 110
207 642
208 220
209 199
210 18
219 158
220 30
222 8
234 73
263 3
265 9
280 170
281 188
282 47
309 286
310 91
311 30
324 150
325 69
326 0

$$$$

     RDKit          2D

 19 18  0  0  0  0  0  0  0  0999 V2000
   -0.9608    2.0123    0.0000 C   0  0  0  0  0  0  0  0  0  0  0  0
    0.5392    4.6103    0.0000 C   0  0  0  0  0  0  0  0  0  0  0  0
   -1.5099    4.0613    0.0000 C   0  0  0  0  0  0  0  0  0  0  0  0
    1.6373    1.6103    0.0000 C   0  0  0  0  0  0  0  0  0  0  0  0
    1.0882   -0.4387    0.0000 C   0  0  0  0  0  0  0  0  0  0  0  0
    3.1373   -0.9877    0.0000 C   0  0  0  0  0  0  0  0  0  0  0  0
    8.3334    2.0123    0.0000 C   0  0  0  0  0  0  0  0  0  0  0  0
    8.8825    4.0613    0.0000 C   0  0  0  0  0  0  0  0  0  0  0  0
    6.8334    4.6103    0.0000 C   0  0  0  0  0  0  0  0  0  0  0  0
    2.3873    3.3113    0.0000 C   0  0  0  0  0  0  0  0  0  0  0  0
    3.6863    2.5613    0.0000 C   0  0  0  0  0  0  0  0  0  0  0  0
    4.9853    3.3113    0.0000 C   0  0  0  0  0  0  0  0  0  0  0  0
    4.9853    4.8113    0.0000 O   0  0  0  0  0  0  0  0  0  0  0  0
    1.0882    2.5613    0.0000 O   0  0  0  0  0  0  0  0  0  0  0  0
    3.6863    1.0613    0.0000 O   0  0  0  0  0  0  0  0  0  0  0  0
    6.2844    2.5613    0.0000 O   0  0  0  0  0  0  0  0  0  0  0  0
   -0.2108    3.3113    0.0000 Si  0  0  0  0  0  4  0  0  0  0  0  0
    2.3873    0.3113    0.0000 Si  0  0  0  0  0  4  0  0  0  0  0  0
    7.5834    3.3113    0.0000 Si  0  0  0  0  0  4  0  0  0  0  0  0
 11 10  1  0
 12 11  1  0
 13 12  2  0
 14 10  1  0
 15 11  1  0
 16 12  1  0
 17  1  1  0
 17  2  1  0
 17  3  1  0
 17 14  1  0
 18  4  1  0
 18  5  1  0
 18  6  1  0
 18 15  1  0
 19  7  1  0
 19  8  1  0
 19  9  1  0
 19 16  1  0
M  END
>  <NAME>  (5532) 
DL-2,3-BIS(TRIMETHYLSILYL)OXY-PROPIONIC ACID TRIMETHYLSILYL ESTER

>  <SYNONYMS>  (5532) 
TRIMETHYLSILYL DL-2,3-BIS(TRIMETHYLSILOXY)PROPIONATE

>  <SPECTRUM TYPE>  (5532) 
MS1

>  <INSTRUMENT TYPE>  (5532) 
EI-B

>  <INSTRUMENT>  (5532) 
JEOL JMS-01-SG

>  <ION MODE>  (5532) 
P

>  <INCHIKEY>  (5532) 
VTLZEKUPFUIGJQ-UHFFFAOYSA-N

>  <FORMULA>  (5532) 
C12H30O4Si3

>  <EXACT MASS>  (5532) 
322.14518903

>  <MW>  (5532) 
322

>  <ID>  (5532) 
JP001034

>  <CONTRIBUTOR>  (5532) 
University of Tokyo Team, {Faculty of Engineering, University of Tokyo

>  <COMMENT>  (5532) 
SMILES=C[Si](C)(C)OCC(O[Si](C)(C)C)C(=O)O[Si](C)(C)C
InChI=InChI=1S/C12H30O4Si3/c1-17(2,3)14-10-11(15-18(4,5)6)12(13)16-19(7,8)9/h11H,10H2,1-9H3
computed SMILES=O=C(O[Si](C)(C)C)C(O[Si](C)(C)C)CO[Si](C)(C)C
accession=JP001034
date=2016.01.19 (Created 2008.10.21, modified 2011.05.06)
author=KOGA M, UNIV. OF OCCUPATIONAL AND ENVIRONMENTAL HEALTH
license=CC BY-NC-SA
exact mass=322.14519
ionization energy=70 eV
ion type=[M]+*
computed spectral entropy=2.659548234288274
computed normalized entropy=0.7898172208703614
SPLASH=splash10-000g-2950000000-b62cb5fdc067f2f7be80
submitter=submitter = University of Tokyo Team (Faculty of Engineering, University of Tokyo)
MoNA Rating=3.75

>  <NUM PEAKS>  (5532) 
29

>  <MASS SPECTRAL PEAKS>  (5532) 
45 22.2
58 6.8
70 6
73 5.75
74 7
75 12.1
77 8.8
102 1.59
103 19.1
116 6
117 13.1
130 0.88
131 6.3
133 20.2
147 99.99
148 1.51
149 10.6
175 6
189 87.1
190 1.91
191 11.1
205 37.6
206 6.8
217 0.78
292 99.2
293 27.7
294 13.8
307 2.29
308 6

>  <PREDICTED SPECTRUM>  (5532) 
14 0
15 3
18 24
27 7
28 1
29 10
31 9
39 36
40 13
41 14
43 166
44 160
45 391
46 83
47 189
51 25
52 18
53 32
54 8
55 98
57 31
58 119
59 244
60 73
61 120
65 17
66 159
71 48
72 142
73 999
74 309
75 399
76 84
77 87
81 3
85 59
86 20
87 99
88 32
89 66
91 32
99 77
100 28
101 180
102 124
103 228
104 32
105 30
113 59
114 36
115 251
116 186
117 171
118 61
119 49
127 23
129 187
130 156
131 289
132 31
133 279
134 110
135 32
142 86
143 143
144 7
145 51
147 905
148 414
149 286
150 63
151 32
161 0
164 3
175 61
176 8
177 29
178 47
179 42
189 257
190 145
191 322
192 154
193 12
203 58
204 44
205 423
206 132
207 141
208 28
217 248
218 100
219 219
220 90
221 260
222 135
232 130
233 107
234 33
279 74
291 5
307 406
308 173
309 116
322 137
323 52

$$$$

     RDKit          2D

 20 19  0  0  0  0  0  0  0  0999 V2000
   14.2697    5.6716    0.0000 C   0  0  0  0  0  0  0  0  0  0  0  0
   12.7697    3.0736    0.0000 C   0  0  0  0  0  0  0  0  0  0  0  0
   14.8187    3.6226    0.0000 C   0  0  0  0  0  0  0  0  0  0  0  0
   -0.0197    6.4216    0.0000 C   0  0  0  0  0  0  0  0  0  0  0  0
   -2.0687    5.8726    0.0000 C   0  0  0  0  0  0  0  0  0  0  0  0
   -1.5197    3.8236    0.0000 C   0  0  0  0  0  0  0  0  0  0  0  0
    7.0245    5.1226    0.0000 C   0  0  0  0  0  0  0  0  0  0  0  0
    5.7255    4.3726    0.0000 C   0  0  0  0  0  0  0  0  0  0  0  0
    8.3236    4.3726    0.0000 C   0  0  0  0  0  0  0  0  0  0  0  0
    4.4264    5.1226    0.0000 C   0  0  0  0  0  0  0  0  0  0  0  0
    9.6226    5.1226    0.0000 C   0  0  0  0  0  0  0  0  0  0  0  0
    3.1274    4.3726    0.0000 C   0  0  0  0  0  0  0  0  0  0  0  0
   10.9216    4.3726    0.0000 C   0  0  0  0  0  0  0  0  0  0  0  0
    1.8284    5.1226    0.0000 C   0  0  0  0  0  0  0  0  0  0  0  0
   10.9216    2.8726    0.0000 O   0  0  0  0  0  0  0  0  0  0  0  0
    1.8284    6.6226    0.0000 O   0  0  0  0  0  0  0  0  0  0  0  0
   12.2207    5.1226    0.0000 O   0  0  0  0  0  0  0  0  0  0  0  0
    0.5293    4.3726    0.0000 O   0  0  0  0  0  0  0  0  0  0  0  0
   13.5197    4.3726    0.0000 Si  0  0  0  0  0  4  0  0  0  0  0  0
   -0.7697    5.1226    0.0000 Si  0  0  0  0  0  4  0  0  0  0  0  0
  8  7  1  0
  9  7  1  0
 10  8  1  0
 11  9  1  0
 12 10  1  0
 13 11  1  0
 14 12  1  0
 15 13  2  0
 16 14  2  0
 17 13  1  0
 18 14  1  0
 19  1  1  0
 19  2  1  0
 19  3  1  0
 19 17  1  0
 20  4  1  0
 20  5  1  0
 20  6  1  0
 20 18  1  0
M  END
>  <NAME>  (5533) 
OCTANEDIOIC ACID BIS(TRIMETHYLSILYL) ESTER

>  <SYNONYMS>  (5533) 
DI(TRIMETHYLSILYL) OCTANEDIOATE

>  <SPECTRUM TYPE>  (5533) 
MS1

>  <INSTRUMENT TYPE>  (5533) 
EI-B

>  <INSTRUMENT>  (5533) 
JEOL JMS-01-SG

>  <ION MODE>  (5533) 
P

>  <INCHIKEY>  (5533) 
LWDVKORSFQXPHL-UHFFFAOYSA-N

>  <FORMULA>  (5533) 
C14H30O4Si2

>  <EXACT MASS>  (5533) 
318.16826249999997

>  <MW>  (5533) 
318

>  <ID>  (5533) 
JP001033

>  <CONTRIBUTOR>  (5533) 
University of Tokyo Team, {Faculty of Engineering, University of Tokyo

>  <COMMENT>  (5533) 
SMILES=O=C(CCCCCCC(=O)O[Si](C)(C)C)O[Si](C)(C)C
InChI=InChI=1S/C14H30O4Si2/c1-19(2,3)17-13(15)11-9-7-8-10-12-14(16)18-20(4,5)6/h7-12H2,1-6H3
computed SMILES=O=C(O[Si](C)(C)C)CCCCCCC(=O)O[Si](C)(C)C
accession=JP001033
date=2016.01.19 (Created 2008.10.21, modified 2011.05.06)
author=KOGA M, UNIV. OF OCCUPATIONAL AND ENVIRONMENTAL HEALTH
license=CC BY-NC-SA
exact mass=318.16826
ionization energy=70 eV
ion type=[M]+*
computed spectral entropy=2.8773796635142044
computed normalized entropy=0.8635063228345834
SPLASH=splash10-0fia-9602000000-2a4e63e7573011fdd3c5
submitter=submitter = University of Tokyo Team (Faculty of Engineering, University of Tokyo)
MoNA Rating=3.75

>  <NUM PEAKS>  (5533) 
28

>  <MASS SPECTRAL PEAKS>  (5533) 
43 10.6
45 12.4
55 32.5
69 1.09
73 99.99
74 13
75 77.2
76 0.88
83 22.7
93 13.9
95 18.3
97 1.59
111 10.6
117 22.7
129 28.4
138 1.83
139 33.1
147 36
149 29.5
169 4.67
185 13.9
187 49.4
204 11.2
217 2.48
259 5.9
303 54.7
304 13
305 5.6

>  <PREDICTED SPECTRUM>  (5533) 
26 7
27 53
28 10
29 71
39 98
40 40
41 215
42 107
43 152
44 150
45 278
46 66
47 169
48 47
49 60
51 10
52 25
53 121
54 89
55 475
56 133
57 149
58 154
59 174
60 75
61 211
62 10
63 7
65 39
66 47
67 229
68 98
69 364
70 81
71 108
72 308
73 999
74 214
75 823
76 198
77 206
78 38
79 190
80 86
81 301
82 107
83 254
84 163
85 98
86 83
87 62
88 68
89 91
91 72
92 14
93 136
94 49
95 204
96 113
97 295
98 217
99 160
100 39
101 153
102 5
103 100
104 20
105 68
106 18
107 90
109 128
110 139
111 264
112 179
113 53
114 10
115 131
116 265
117 447
118 146
119 164
120 63
121 164
122 42
123 89
125 197
126 2
129 474
130 220
131 230
132 132
133 222
134 49
135 33
136 26
137 42
138 153
139 183
140 44
141 75
142 39
143 174
144 76
145 263
146 85
147 432
148 185
149 299
150 101
151 61
153 45
154 51
155 155
156 94
157 201
158 126
159 112
160 74
161 33
169 207
170 71
171 239
172 129
173 226
174 96
175 67
176 9
183 0
184 55
185 196
186 144
187 263
188 174
189 108
190 11
195 86
199 74
200 96
201 98
202 19
203 136
204 500
205 212
206 81
213 155
214 105
215 67
216 56
217 440
218 214
228 102
229 115
230 29
231 63
232 43
245 39
246 63
258 5
259 241
260 51
261 60
262 13
274 26
275 64
276 9
285 32
287 123
288 20
289 18
303 592
304 312
305 160
306 47
318 36
319 5

$$$$

     RDKit          2D

 20 20  0  0  0  0  0  0  0  0999 V2000
    0.3460    5.2495    0.0000 C   0  0  0  0  0  0  0  0  0  0  0  0
   -1.6986    4.6840    0.0000 C   0  0  0  0  0  0  0  0  0  0  0  0
   -1.1331    2.6394    0.0000 C   0  0  0  0  0  0  0  0  0  0  0  0
    6.8800    0.4539    0.0000 C   0  0  0  0  0  0  0  0  0  0  0  0
    7.4125    2.5073    0.0000 C   0  0  0  0  0  0  0  0  0  0  0  0
    5.3591    3.0398    0.0000 C   0  0  0  0  0  0  0  0  0  0  0  0
    1.5152   -2.8643    0.0000 C   0  0  0  0  0  0  0  0  0  0  0  0
    3.0107   -2.8245    0.0000 C   0  0  0  0  0  0  0  0  0  0  0  0
    1.0363   -1.4259    0.0000 C   0  0  0  0  0  0  0  0  0  0  0  0
    3.4521   -1.4012    0.0000 C   0  0  0  0  0  0  0  0  0  0  0  0
    2.2407   -0.5345    0.0000 C   0  0  0  0  0  0  0  0  0  0  0  0
    2.2286    0.9655    0.0000 C   0  0  0  0  0  0  0  0  0  0  0  0
    0.9236    1.7050    0.0000 C   0  0  0  0  0  0  0  0  0  0  0  0
    3.5216    1.7259    0.0000 C   0  0  0  0  0  0  0  0  0  0  0  0
   -0.3694    0.9446    0.0000 O   0  0  0  0  0  0  0  0  0  0  0  0
    3.5095    3.2259    0.0000 O   0  0  0  0  0  0  0  0  0  0  0  0
    0.9115    3.2049    0.0000 O   0  0  0  0  0  0  0  0  0  0  0  0
    4.8266    0.9864    0.0000 O   0  0  0  0  0  0  0  0  0  0  0  0
   -0.3935    3.9445    0.0000 Si  0  0  0  0  0  4  0  0  0  0  0  0
    6.1196    1.7469    0.0000 Si  0  0  0  0  0  4  0  0  0  0  0  0
  8  7  1  0
  9  7  1  0
 10  8  1  0
 11  9  1  0
 11 10  1  0
 12 11  1  0
 13 12  1  0
 14 12  1  0
 15 13  2  0
 16 14  2  0
 17 13  1  0
 18 14  1  0
 19  1  1  0
 19  2  1  0
 19  3  1  0
 19 17  1  0
 20  4  1  0
 20  5  1  0
 20  6  1  0
 20 18  1  0
M  END
>  <NAME>  (5534) 
CYCLOPENTYLMALONIC ACID BIS(TRIMETHYLSILYL) ESTER

>  <SYNONYMS>  (5534) 
DI(TRIMETHYLSILYL) CYCLOPENTYLMALONATE

>  <SPECTRUM TYPE>  (5534) 
MS1

>  <INSTRUMENT TYPE>  (5534) 
EI-B

>  <INSTRUMENT>  (5534) 
JEOL JMS-01-SG

>  <ION MODE>  (5534) 
P

>  <INCHIKEY>  (5534) 
UPRVYQOMRQKYCY-UHFFFAOYSA-N

>  <FORMULA>  (5534) 
C14H28O4Si2

>  <EXACT MASS>  (5534) 
316.152612436

>  <MW>  (5534) 
316

>  <ID>  (5534) 
JP001032

>  <CONTRIBUTOR>  (5534) 
University of Tokyo Team, {Faculty of Engineering, University of Tokyo

>  <COMMENT>  (5534) 
SMILES=C[Si](C)(C)OC(=O)C(C(C1)CCC1)C(=O)O[Si](C)(C)C
InChI=InChI=1S/C14H28O4Si2/c1-19(2,3)17-13(15)12(11-9-7-8-10-11)14(16)18-20(4,5)6/h11-12H,7-10H2,1-6H3
computed SMILES=O=C(O[Si](C)(C)C)C(C(=O)O[Si](C)(C)C)C1CCCC1
accession=JP001032
date=2016.01.19 (Created 2008.10.21, modified 2011.05.06)
author=KOGA M, UNIV. OF OCCUPATIONAL AND ENVIRONMENTAL HEALTH
license=CC BY-NC-SA
exact mass=316.15261
ionization energy=70 eV
ion type=[M]+*
computed spectral entropy=2.3817784263657575
computed normalized entropy=0.7950571709601177
SPLASH=splash10-0002-4941000000-da23c147b325535eec80
submitter=submitter = University of Tokyo Team (Faculty of Engineering, University of Tokyo)
MoNA Rating=3.75

>  <NUM PEAKS>  (5534) 
20

>  <MASS SPECTRAL PEAKS>  (5534) 
43 3.6
44 11.9
45 6.7
73 2.9
75 17.4
77 4.2
81 14.3
143 1.19
147 99.99
148 16.5
149 13.7
204 1.46
217 7.3
233 12.8
243 16.8
248 2.29
249 7.3
257 7.3
272 7
301 14.6

>  <PREDICTED SPECTRUM>  (5534) 
14 11
15 49
18 51
25 18
26 61
27 146
28 137
29 158
30 51
31 80
35 7
36 2
38 32
39 134
40 70
41 217
42 105
43 202
44 248
45 356
46 120
47 217
48 59
49 59
50 22
51 30
52 52
53 176
54 156
55 288
56 124
57 117
58 134
59 230
60 112
61 211
62 23
63 11
65 84
66 204
67 206
68 144
69 167
70 107
71 101
72 201
73 999
74 349
75 571
76 125
77 178
78 38
79 139
80 69
81 267
82 168
83 136
84 120
85 119
86 65
87 63
89 46
91 55
92 5
93 122
94 50
95 187
96 74
97 66
98 52
99 209
100 89
101 173
102 95
103 134
104 52
105 40
106 0
107 74
108 85
109 310
110 146
111 93
112 53
113 88
114 2
115 143
116 150
117 174
118 78
119 32
120 19
125 51
127 98
128 61
129 194
130 159
131 200
132 87
133 258
134 43
136 11
137 86
139 113
140 65
141 191
142 120
143 223
144 73
145 108
146 57
147 679
148 313
149 355
150 151
151 70
153 4
154 81
155 267
156 166
157 256
158 137
159 51
162 35
167 17
169 95
170 121
171 128
181 67
182 113
183 340
184 135
185 55
189 24
190 12
191 18
193 9
197 106
198 223
199 654
200 266
201 172
202 1
203 42
204 1
211 96
217 137
218 52
226 35
229 75
230 37
231 142
232 97
233 115
234 49
244 58
245 227
246 134
257 59
259 27
272 77
273 111
274 74
301 406
302 187
303 95
304 10
316 83
317 32

$$$$

     RDKit          2D

 18 17  0  0  0  0  0  0  0  0999 V2000
   -1.3457    3.1740    0.0000 C   0  0  0  0  0  0  0  0  0  0  0  0
    0.1543    5.7721    0.0000 C   0  0  0  0  0  0  0  0  0  0  0  0
   -1.8947    5.2231    0.0000 C   0  0  0  0  0  0  0  0  0  0  0  0
   10.3457    2.4240    0.0000 C   0  0  0  0  0  0  0  0  0  0  0  0
   12.3947    2.9731    0.0000 C   0  0  0  0  0  0  0  0  0  0  0  0
   11.8457    5.0221    0.0000 C   0  0  0  0  0  0  0  0  0  0  0  0
    4.6005    4.4731    0.0000 C   0  0  0  0  0  0  0  0  0  0  0  0
    5.8995    3.7231    0.0000 C   0  0  0  0  0  0  0  0  0  0  0  0
    3.3014    3.7231    0.0000 C   0  0  0  0  0  0  0  0  0  0  0  0
    7.1986    4.4731    0.0000 C   0  0  0  0  0  0  0  0  0  0  0  0
    2.0024    4.4731    0.0000 C   0  0  0  0  0  0  0  0  0  0  0  0
    8.4976    3.7231    0.0000 C   0  0  0  0  0  0  0  0  0  0  0  0
    2.0024    5.9731    0.0000 O   0  0  0  0  0  0  0  0  0  0  0  0
    8.4976    2.2231    0.0000 O   0  0  0  0  0  0  0  0  0  0  0  0
    0.7034    3.7231    0.0000 O   0  0  0  0  0  0  0  0  0  0  0  0
    9.7966    4.4731    0.0000 O   0  0  0  0  0  0  0  0  0  0  0  0
   -0.5957    4.4731    0.0000 Si  0  0  0  0  0  4  0  0  0  0  0  0
   11.0957    3.7231    0.0000 Si  0  0  0  0  0  4  0  0  0  0  0  0
  7  8  2  0
  9  7  1  0
 10  8  1  0
 11  9  1  0
 12 10  1  0
 13 11  2  0
 14 12  2  0
 15 11  1  0
 16 12  1  0
 17  1  1  0
 17  2  1  0
 17  3  1  0
 17 15  1  0
 18  4  1  0
 18  5  1  0
 18  6  1  0
 18 16  1  0
M  END
>  <NAME>  (5535) 
TRANS-2-BUTENE-1,4-DICARBOXYLIC ACID BIS(TRIMETHYLSILYL) ESTER

>  <SYNONYMS>  (5535) 
DI(TRIMETHYLSILYL) TRANS-3-HEXENEDIOATE

>  <SPECTRUM TYPE>  (5535) 
MS1

>  <INSTRUMENT TYPE>  (5535) 
EI-B

>  <INSTRUMENT>  (5535) 
JEOL JMS-01-SG

>  <ION MODE>  (5535) 
P

>  <INCHIKEY>  (5535) 
ZHDWBZJDVFQQQO-BQYQJAHWSA-N

>  <FORMULA>  (5535) 
C12H24O4Si2

>  <EXACT MASS>  (5535) 
288.121312308

>  <MW>  (5535) 
288

>  <ID>  (5535) 
JP001030

>  <CONTRIBUTOR>  (5535) 
University of Tokyo Team, {Faculty of Engineering, University of Tokyo

>  <COMMENT>  (5535) 
SMILES=O=C(CC=CCC(=O)O[Si](C)(C)C)O[Si](C)(C)C
InChI=InChI=1S/C12H24O4Si2/c1-17(2,3)15-11(13)9-7-8-10-12(14)16-18(4,5)6/h7-8H,9-10H2,1-6H3/b8-7+
computed SMILES=O=C(O[Si](C)(C)C)CC=CCC(=O)O[Si](C)(C)C
accession=JP001030
date=2016.01.19 (Created 2008.10.21, modified 2011.05.06)
author=KOGA M, UNIV. OF OCCUPATIONAL AND ENVIRONMENTAL HEALTH
license=CC BY-NC-SA
exact mass=288.12131
ionization energy=70 eV
ion type=[M]+*
computed spectral entropy=2.067219023159201
computed normalized entropy=0.8319101336605806
SPLASH=splash10-00fs-9200000000-1703356353df764b9728
submitter=submitter = University of Tokyo Team (Faculty of Engineering, University of Tokyo)
MoNA Rating=3.75

>  <NUM PEAKS>  (5535) 
12

>  <MASS SPECTRAL PEAKS>  (5535) 
45 17.9
47 17
54 11.1
73 99.99
74 11.1
75 47
77 30.7
82 1.88
93 9.4
147 61.5
244 8.5
273 12.8

>  <PREDICTED SPECTRUM>  (5535) 
14 3
15 15
26 13
27 44
28 30
29 36
31 16
39 45
40 29
41 52
42 31
43 95
44 119
45 301
46 71
47 102
48 4
51 21
52 23
53 111
54 84
55 122
56 51
57 50
58 93
59 180
60 82
61 131
62 7
65 8
66 57
67 103
68 18
69 79
70 24
71 27
72 174
73 999
74 252
75 494
76 73
77 116
78 16
79 72
80 62
81 231
82 149
83 118
84 26
85 53
86 20
89 39
90 26
91 40
93 36
95 11
96 22
97 24
98 40
99 50
100 6
101 54
102 23
103 22
104 39
108 36
109 88
110 9
111 95
113 52
116 43
117 122
118 1
119 69
123 14
125 19
126 14
127 41
129 12
130 17
131 62
132 4
133 121
134 67
135 13
137 18
141 25
145 4
147 578
148 237
149 223
150 74
154 5
155 95
156 88
157 75
169 0
170 80
171 55
175 39
176 30
183 64
198 42
204 8
217 37
229 26
230 46
231 25
244 192
245 173
246 35
273 275
274 116
275 74
276 3
288 26
289 15

$$$$

     RDKit          2D

 20 20  0  0  0  0  0  0  0  0999 V2000
    4.2941    1.4323    0.0000 C   0  0  0  0  0  0  0  0  0  0  0  0
    1.4946   -2.3181    0.0000 C   0  0  0  0  0  0  0  0  0  0  0  0
    2.9946   -3.8181    0.0000 C   0  0  0  0  0  0  0  0  0  0  0  0
    4.4946   -2.3181    0.0000 C   0  0  0  0  0  0  0  0  0  0  0  0
   -4.0496    3.4809    0.0000 C   0  0  0  0  0  0  0  0  0  0  0  0
   -6.0987    2.9319    0.0000 C   0  0  0  0  0  0  0  0  0  0  0  0
   -5.5496    0.8829    0.0000 C   0  0  0  0  0  0  0  0  0  0  0  0
   -0.9030   -0.0689    0.0000 C   0  0  0  0  0  0  0  0  0  0  0  0
    0.3960   -0.8189    0.0000 C   0  0  0  0  0  0  0  0  0  0  0  0
    0.3970    2.1827    0.0000 C   0  0  0  0  0  0  0  0  0  0  0  0
   -0.9025    1.4319    0.0000 C   0  0  0  0  0  0  0  0  0  0  0  0
    1.6955   -0.0681    0.0000 C   0  0  0  0  0  0  0  0  0  0  0  0
    1.6960    1.4327    0.0000 C   0  0  0  0  0  0  0  0  0  0  0  0
   -2.2016    2.1819    0.0000 C   0  0  0  0  0  0  0  0  0  0  0  0
   -2.2016    3.6819    0.0000 O   0  0  0  0  0  0  0  0  0  0  0  0
    2.9952    2.1825    0.0000 O   0  0  0  0  0  0  0  0  0  0  0  0
    2.9946   -0.8181    0.0000 O   0  0  0  0  0  0  0  0  0  0  0  0
   -3.5006    1.4319    0.0000 O   0  0  0  0  0  0  0  0  0  0  0  0
    2.9946   -2.3181    0.0000 Si  0  0  0  0  0  4  0  0  0  0  0  0
   -4.7996    2.1819    0.0000 Si  0  0  0  0  0  4  0  0  0  0  0  0
  9  8  2  0
 11  8  1  0
 11 10  2  0
 12  9  1  0
 13 10  1  0
 13 12  2  0
 14 11  1  0
 15 14  2  0
 16  1  1  0
 16 13  1  0
 17 12  1  0
 18 14  1  0
 19  2  1  0
 19  3  1  0
 19  4  1  0
 19 17  1  0
 20  5  1  0
 20  6  1  0
 20  7  1  0
 20 18  1  0
M  END
>  <NAME>  (5536) 
3-METHOXY-4-(TRIMETHYLSILYL)OXYBENZOIC ACID TRIMETHYLSILYL ESTER

>  <SYNONYMS>  (5536) 
TRIMETHYLSILYL 3-METHOXY-4-TRIMETHYLSILOXYBENZOATE

>  <SPECTRUM TYPE>  (5536) 
MS1

>  <INSTRUMENT TYPE>  (5536) 
EI-B

>  <INSTRUMENT>  (5536) 
JEOL JMS-01-SG

>  <ION MODE>  (5536) 
P

>  <INCHIKEY>  (5536) 
UQZKEPFYTGMPKU-UHFFFAOYSA-N

>  <FORMULA>  (5536) 
C14H24O4Si2

>  <EXACT MASS>  (5536) 
312.12131230800003

>  <MW>  (5536) 
312

>  <ID>  (5536) 
JP001027

>  <CONTRIBUTOR>  (5536) 
University of Tokyo Team, {Faculty of Engineering, University of Tokyo

>  <COMMENT>  (5536) 
SMILES=COc(c1)c(ccc1C(=O)O[Si](C)(C)C)O[Si](C)(C)C
InChI=InChI=1S/C14H24O4Si2/c1-16-13-10-11(14(15)18-20(5,6)7)8-9-12(13)17-19(2,3)4/h8-10H,1-7H3
computed SMILES=O=C(O[Si](C)(C)C)C1=CC=C(O[Si](C)(C)C)C(OC)=C1
accession=JP001027
date=2016.01.19 (Created 2008.10.21, modified 2011.05.06)
author=KOGA M, UNIV. OF OCCUPATIONAL AND ENVIRONMENTAL HEALTH
license=CC BY-NC-SA
exact mass=312.12131
ionization energy=70 eV
ion type=[M]+*
computed spectral entropy=2.785869313274204
computed normalized entropy=0.8273313227977935
SPLASH=splash10-02ft-2291000000-ab9d487438709c9dba71
submitter=submitter = University of Tokyo Team (Faculty of Engineering, University of Tokyo)
MoNA Rating=3.75

>  <NUM PEAKS>  (5536) 
29

>  <MASS SPECTRAL PEAKS>  (5536) 
45 12.9
59 9.5
73 58.4
75 0.95
77 13.4
89 5
126 26.9
134 0.84
141 7.3
147 13.4
148 7.8
149 0.61
165 7.8
193 15.7
223 51.1
224 0.84
253 41
254 8.4
267 61.2
268 1.23
269 5.6
282 39.8
283 8.9
297 99.99
298 21.9
299 9.5
312 62.9
313 1.46
314 5.6

>  <PREDICTED SPECTRUM>  (5536) 
15 70
26 2
27 75
28 52
29 94
30 15
31 47
39 45
41 77
42 49
43 188
44 130
45 312
46 75
47 153
49 19
50 66
51 107
52 44
53 133
54 42
55 114
56 70
57 104
58 152
59 288
60 47
61 117
62 58
63 145
64 87
65 122
66 82
67 96
68 63
69 111
70 76
71 70
72 115
73 781
74 210
75 357
76 154
77 252
78 123
79 261
80 85
81 123
82 113
83 138
84 70
85 16
88 22
89 192
90 78
91 248
92 193
93 172
94 123
95 132
96 84
97 127
98 62
99 57
100 29
101 19
102 56
103 165
104 207
105 178
106 118
107 244
108 132
109 130
110 93
111 113
112 25
113 22
115 117
116 67
117 111
118 28
119 244
120 197
121 217
122 148
123 131
124 87
125 88
126 141
127 91
128 49
129 5
130 11
131 67
132 33
133 217
134 120
135 251
136 156
137 260
138 66
139 96
140 43
141 77
143 21
145 67
146 51
147 97
148 64
149 251
150 191
151 249
152 144
153 134
154 30
156 7
162 58
163 138
164 220
165 302
166 180
167 80
168 18
177 120
178 182
179 301
180 283
181 227
182 30
190 8
191 66
192 132
193 855
194 303
195 296
196 103
197 34
206 57
207 226
208 109
209 179
210 112
211 131
221 90
222 78
223 573
224 271
225 206
226 65
235 63
236 59
237 242
238 150
239 119
240 56
249 17
251 118
252 8
253 603
254 355
255 144
256 18
265 45
266 4
267 492
268 272
269 189
270 59
280 20
281 84
282 616
283 280
284 163
285 111
295 7
297 999
298 463
299 301
300 125
311 26
312 692
313 336
314 198
315 60

$$$$

     RDKit          2D

 20 20  0  0  0  0  0  0  0  0999 V2000
   -4.7341    3.0688    0.0000 C   0  0  0  0  0  0  0  0  0  0  0  0
   -5.2832    1.0198    0.0000 C   0  0  0  0  0  0  0  0  0  0  0  0
   -3.2341    0.4707    0.0000 C   0  0  0  0  0  0  0  0  0  0  0  0
    0.1139    6.2698    0.0000 C   0  0  0  0  0  0  0  0  0  0  0  0
   -1.3861    7.7698    0.0000 C   0  0  0  0  0  0  0  0  0  0  0  0
   -2.8861    6.2698    0.0000 C   0  0  0  0  0  0  0  0  0  0  0  0
    3.8101    0.2698    0.0000 C   0  0  0  0  0  0  0  0  0  0  0  0
    3.8106    1.7706    0.0000 C   0  0  0  0  0  0  0  0  0  0  0  0
    2.5106   -0.4811    0.0000 C   0  0  0  0  0  0  0  0  0  0  0  0
    2.5115    2.5206    0.0000 C   0  0  0  0  0  0  0  0  0  0  0  0
    1.2115    0.2689    0.0000 C   0  0  0  0  0  0  0  0  0  0  0  0
   -1.3861    1.7698    0.0000 C   0  0  0  0  0  0  0  0  0  0  0  0
    1.2120    1.7698    0.0000 C   0  0  0  0  0  0  0  0  0  0  0  0
   -0.0870    2.5198    0.0000 C   0  0  0  0  0  0  0  0  0  0  0  0
   -0.0870    4.0198    0.0000 C   0  0  0  0  0  0  0  0  0  0  0  0
    1.2120    4.7698    0.0000 O   0  0  0  0  0  0  0  0  0  0  0  0
   -2.6851    2.5198    0.0000 O   0  0  0  0  0  0  0  0  0  0  0  0
   -1.3861    4.7698    0.0000 O   0  0  0  0  0  0  0  0  0  0  0  0
   -3.9841    1.7698    0.0000 Si  0  0  0  0  0  4  0  0  0  0  0  0
   -1.3861    6.2698    0.0000 Si  0  0  0  0  0  4  0  0  0  0  0  0
  8  7  2  0
  9  7  1  0
 10  8  1  0
 11  9  2  0
 13 10  2  0
 13 11  1  0
 14 12  1  0
 14 13  1  0
 15 14  1  0
 16 15  2  0
 17 12  1  0
 18 15  1  0
 19  1  1  0
 19  2  1  0
 19  3  1  0
 19 17  1  0
 20  4  1  0
 20  5  1  0
 20  6  1  0
 20 18  1  0
M  END
>  <NAME>  (5537) 
DL-ALPHA-PHENYL-BETA-(TRIMETHYLSILYL)OXY-PROPIONIC ACID TRIMETHYLSILYL ESTER

>  <SYNONYMS>  (5537) 
TRIMETHYLSILYL DL-ALPHA-PHENYL-BETA-TRIMETHYLSILOXYPROPIONATE

>  <SPECTRUM TYPE>  (5537) 
MS1

>  <INSTRUMENT TYPE>  (5537) 
EI-B

>  <INSTRUMENT>  (5537) 
JEOL JMS-01-SG

>  <ION MODE>  (5537) 
P

>  <INCHIKEY>  (5537) 
PASLIDCFUAELRD-UHFFFAOYSA-N

>  <FORMULA>  (5537) 
C15H26O3Si2

>  <EXACT MASS>  (5537) 
310.142047752

>  <MW>  (5537) 
310

>  <ID>  (5537) 
JP001026

>  <CONTRIBUTOR>  (5537) 
University of Tokyo Team, {Faculty of Engineering, University of Tokyo

>  <COMMENT>  (5537) 
SMILES=c(c1)ccc(c1)C(CO[Si](C)(C)C)C(=O)O[Si](C)(C)C
InChI=InChI=1S/C15H26O3Si2/c1-19(2,3)17-12-14(13-10-8-7-9-11-13)15(16)18-20(4,5)6/h7-11,14H,12H2,1-6H3
computed SMILES=O=C(O[Si](C)(C)C)C(C=1C=CC=CC1)CO[Si](C)(C)C
accession=JP001026
date=2016.01.19 (Created 2008.10.21, modified 2011.05.06)
author=KOGA M, UNIV. OF OCCUPATIONAL AND ENVIRONMENTAL HEALTH
license=CC BY-NC-SA
exact mass=310.14205
ionization energy=70 eV
ion type=[M]+*
computed spectral entropy=2.0779935412978436
computed normalized entropy=0.7673393722361848
SPLASH=splash10-0fk9-9830000000-2e81bdd085f704d4818a
submitter=submitter = University of Tokyo Team (Faculty of Engineering, University of Tokyo)
MoNA Rating=3.75

>  <NUM PEAKS>  (5537) 
15

>  <MASS SPECTRAL PEAKS>  (5537) 
45 8.5
73 99.99
75 19.3
97 0.81
103 45.4
104 23.6
118 43.7
147 5.23
148 8.1
205 3.4
220 3.4
267 0.38
280 33
281 8.5
295 3.8

>  <PREDICTED SPECTRUM>  (5537) 
15 20
26 9
27 80
28 25
29 40
30 3
31 30
37 23
38 51
39 145
40 55
41 76
42 60
43 154
44 177
45 366
46 114
47 210
48 46
49 39
50 136
51 204
52 113
53 39
54 13
55 89
56 57
57 59
58 179
59 304
60 85
61 179
62 96
63 158
64 96
65 126
66 118
67 19
68 5
69 67
70 52
71 15
72 96
73 999
74 313
75 468
76 182
77 293
78 148
79 79
85 7
87 62
88 89
89 280
90 192
91 178
92 70
93 1
99 9
101 130
102 158
103 631
104 299
105 183
106 89
107 37
113 22
115 106
116 70
117 251
118 384
119 135
120 26
121 14
129 27
130 93
131 222
132 104
133 223
134 50
135 141
145 43
146 10
147 800
148 341
149 266
150 86
161 77
162 63
163 144
164 70
167 4
175 73
176 58
177 205
178 115
179 61
180 38
189 31
190 51
191 220
192 133
193 105
204 61
205 242
206 115
207 107
217 8
220 180
221 118
222 21
234 7
235 15
251 45
265 55
266 157
267 167
268 70
280 451
281 192
282 119
283 8
295 193
296 90
297 50
310 135
311 43
312 10

$$$$

     RDKit          2D

 20 20  0  0  0  0  0  0  0  0999 V2000
    2.8593    4.5686    0.0000 C   0  0  0  0  0  0  0  0  0  0  0  0
    4.9083    4.0196    0.0000 C   0  0  0  0  0  0  0  0  0  0  0  0
    4.3593    1.9705    0.0000 C   0  0  0  0  0  0  0  0  0  0  0  0
   -3.4350    4.5686    0.0000 C   0  0  0  0  0  0  0  0  0  0  0  0
   -5.4840    4.0196    0.0000 C   0  0  0  0  0  0  0  0  0  0  0  0
   -4.9350    1.9705    0.0000 C   0  0  0  0  0  0  0  0  0  0  0  0
    1.0112    7.7696    0.0000 C   0  0  0  0  0  0  0  0  0  0  0  0
    2.3112    7.0196    0.0000 C   0  0  0  0  0  0  0  0  0  0  0  0
   -0.2888    7.0196    0.0000 C   0  0  0  0  0  0  0  0  0  0  0  0
    2.3112    5.5196    0.0000 C   0  0  0  0  0  0  0  0  0  0  0  0
   -0.2888    5.5196    0.0000 C   0  0  0  0  0  0  0  0  0  0  0  0
   -0.2879    2.5196    0.0000 C   0  0  0  0  0  0  0  0  0  0  0  0
    1.0112    4.7696    0.0000 C   0  0  0  0  0  0  0  0  0  0  0  0
    1.0112    3.2696    0.0000 C   0  0  0  0  0  0  0  0  0  0  0  0
   -1.5869    3.2696    0.0000 C   0  0  0  0  0  0  0  0  0  0  0  0
   -1.5869    4.7696    0.0000 O   0  0  0  0  0  0  0  0  0  0  0  0
    2.3102    2.5196    0.0000 O   0  0  0  0  0  0  0  0  0  0  0  0
   -2.8859    2.5196    0.0000 O   0  0  0  0  0  0  0  0  0  0  0  0
    3.6093    3.2696    0.0000 Si  0  0  0  0  0  4  0  0  0  0  0  0
   -4.1850    3.2696    0.0000 Si  0  0  0  0  0  4  0  0  0  0  0  0
  8  7  2  0
  9  7  1  0
 10  8  1  0
 11  9  2  0
 13 10  2  0
 13 11  1  0
 12 14  2  0
 14 13  1  0
 15 12  1  0
 16 15  2  0
 17 14  1  0
 18 15  1  0
 19  1  1  0
 19  2  1  0
 19  3  1  0
 19 17  1  0
 20  4  1  0
 20  5  1  0
 20  6  1  0
 20 18  1  0
M  END
>  <NAME>  (5538) 
BETA-(TRIMETHYLSILYL)OXY-CINNAMIC ACID TRIMETHYLSILYL ESTER

>  <SYNONYMS>  (5538) 
TRIMETHYLSILYL BETA-TRIMETHYLSILOXYCINNAMATE

>  <SPECTRUM TYPE>  (5538) 
MS1

>  <INSTRUMENT TYPE>  (5538) 
EI-B

>  <INSTRUMENT>  (5538) 
JEOL JMS-01-SG

>  <ION MODE>  (5538) 
P

>  <INCHIKEY>  (5538) 
KBQOSPPQSQZAEJ-WYMLVPIESA-N

>  <FORMULA>  (5538) 
C15H24O3Si2

>  <EXACT MASS>  (5538) 
308.126397688

>  <MW>  (5538) 
308

>  <ID>  (5538) 
JP001025

>  <CONTRIBUTOR>  (5538) 
University of Tokyo Team, {Faculty of Engineering, University of Tokyo

>  <COMMENT>  (5538) 
SMILES=O=C(O[Si](C)(C)C)C=C(O[Si](C)(C)C)c(c1)cccc1
InChI=InChI=1S/C15H24O3Si2/c1-19(2,3)17-14(13-10-8-7-9-11-13)12-15(16)18-20(4,5)6/h7-12H,1-6H3/b14-12+
computed SMILES=O=C(O[Si](C)(C)C)C=C(O[Si](C)(C)C)C=1C=CC=CC1
accession=JP001025
date=2016.01.19 (Created 2008.10.21, modified 2011.05.06)
license=CC BY-NC-SA
author=KOGA M, UNIV. OF OCCUPATIONAL AND ENVIRONMENTAL HEALTH
exact mass=308.1264
ionization energy=70 eV
ion type=[M]+*
computed spectral entropy=1.7107990731202793
computed normalized entropy=0.5918958585332742
SPLASH=splash10-0002-2920000000-a5852df4b73f535e5e16
submitter=submitter = University of Tokyo Team (Faculty of Engineering, University of Tokyo)
MoNA Rating=3.75

>  <NUM PEAKS>  (5538) 
18

>  <MASS SPECTRAL PEAKS>  (5538) 
45 7.9
73 26.2
74 2.1
75 0.16
77 1.3
90 2
118 2.1
131 0.21
133 2.1
147 99.99
148 18.5
149 0.81
237 1.9
265 1.9
293 29.2
294 0.71
295 3
308 2.1

>  <PREDICTED SPECTRUM>  (5538) 
15 43
18 7
27 23
28 27
29 76
31 52
32 2
38 17
39 75
40 27
41 40
42 47
43 180
44 172
45 416
46 99
47 225
48 14
49 19
50 53
51 98
52 54
53 83
54 24
55 107
56 59
57 117
58 108
59 225
60 65
61 94
62 20
63 80
64 34
65 86
66 112
67 44
68 13
69 56
70 85
71 87
72 132
73 999
74 260
75 425
76 129
77 250
78 106
79 82
80 9
82 25
83 55
84 49
85 57
86 31
87 36
88 8
89 71
90 27
91 138
92 66
93 89
94 2
95 34
97 22
98 30
99 74
100 69
101 159
102 109
103 142
104 80
105 177
106 66
107 49
109 7
112 2
113 52
115 169
116 101
117 151
118 120
119 82
120 65
121 59
122 15
127 44
128 40
129 138
130 60
131 193
132 52
133 240
134 130
135 226
136 93
137 9
142 42
143 82
144 19
145 180
146 119
147 769
148 366
149 326
150 161
151 73
152 50
157 45
158 20
159 101
160 51
161 122
162 59
163 38
164 12
165 45
168 22
173 41
174 12
175 154
176 100
177 89
178 59
179 45
187 15
189 127
190 111
191 588
192 282
193 173
194 44
203 108
204 85
205 23
206 22
207 50
217 61
218 42
219 325
220 126
221 165
222 46
231 31
233 52
234 101
235 1
236 10
249 117
250 7
251 1
263 23
264 91
265 155
266 48
277 13
279 3
280 32
281 24
293 591
294 330
295 186
296 54
307 184
308 426
309 217
310 124
311 30

$$$$

     RDKit          2D

 20 20  0  0  0  0  0  0  0  0999 V2000
    7.6878   -1.0100    0.0000 C   0  0  0  0  0  0  0  0  0  0  0  0
    8.2199    1.0435    0.0000 C   0  0  0  0  0  0  0  0  0  0  0  0
    6.1664    1.5756    0.0000 C   0  0  0  0  0  0  0  0  0  0  0  0
   -4.0149    3.8576    0.0000 C   0  0  0  0  0  0  0  0  0  0  0  0
   -6.0666    3.3187    0.0000 C   0  0  0  0  0  0  0  0  0  0  0  0
   -5.5277    1.2670    0.0000 C   0  0  0  0  0  0  0  0  0  0  0  0
    3.0191    2.5303    0.0000 C   0  0  0  0  0  0  0  0  0  0  0  0
    1.7056    0.3055    0.0000 C   0  0  0  0  0  0  0  0  0  0  0  0
    0.4248    2.5367    0.0000 C   0  0  0  0  0  0  0  0  0  0  0  0
    4.3037    1.8055    0.0000 C   0  0  0  0  0  0  0  0  0  0  0  0
    3.0301   -0.4887    0.0000 C   0  0  0  0  0  0  0  0  0  0  0  0
   -0.8779    1.7931    0.0000 C   0  0  0  0  0  0  0  0  0  0  0  0
    1.7201    1.7803    0.0000 C   0  0  0  0  0  0  0  0  0  0  0  0
    4.3291    0.2613    0.0000 C   0  0  0  0  0  0  0  0  0  0  0  0
   -2.1733    2.5495    0.0000 C   0  0  0  0  0  0  0  0  0  0  0  0
   -2.1659    4.0495    0.0000 O   0  0  0  0  0  0  0  0  0  0  0  0
    5.6343   -0.4779    0.0000 O   0  0  0  0  0  0  0  0  0  0  0  0
   -3.4760    1.8059    0.0000 O   0  0  0  0  0  0  0  0  0  0  0  0
    6.9271    0.2828    0.0000 Si  0  0  0  0  0  4  0  0  0  0  0  0
   -4.7713    2.5623    0.0000 Si  0  0  0  0  0  4  0  0  0  0  0  0
 10  7  2  0
 11  8  1  0
  9 12  2  0
 13  7  1  0
 13  8  2  0
 13  9  1  0
 14 10  1  0
 14 11  2  0
 15 12  1  0
 16 15  2  0
 17 14  1  0
 18 15  1  0
 19  1  1  0
 19  2  1  0
 19  3  1  0
 19 17  1  0
 20  4  1  0
 20  5  1  0
 20  6  1  0
 20 18  1  0
M  END
>  <NAME>  (5539) 
4-(TRIMETHYLSILYL)OXY-CINNAMIC ACID TRIMETHYLSILYL ESTER

>  <SYNONYMS>  (5539) 
TRIMETHYLSILYL 4-TRIMETHYLSILOXYCINNAMATE

>  <SPECTRUM TYPE>  (5539) 
MS1

>  <INSTRUMENT TYPE>  (5539) 
EI-B

>  <INSTRUMENT>  (5539) 
JEOL JMS-01-SG

>  <ION MODE>  (5539) 
P

>  <INCHIKEY>  (5539) 
RKLSIGFDXPECDB-FMIVXFBMSA-N

>  <FORMULA>  (5539) 
C15H24O3Si2

>  <EXACT MASS>  (5539) 
308.126397688

>  <MW>  (5539) 
308

>  <ID>  (5539) 
JP001024

>  <CONTRIBUTOR>  (5539) 
University of Tokyo Team, {Faculty of Engineering, University of Tokyo

>  <COMMENT>  (5539) 
SMILES=O=C(C=Cc(c1)ccc(c1)O[Si](C)(C)C)O[Si](C)(C)C
InChI=InChI=1S/C15H24O3Si2/c1-19(2,3)17-14-10-7-13(8-11-14)9-12-15(16)18-20(4,5)6/h7-12H,1-6H3/b12-9+
computed SMILES=O=C(O[Si](C)(C)C)C=CC1=CC=C(O[Si](C)(C)C)C=C1
accession=JP001024
date=2016.01.19 (Created 2008.10.21, modified 2011.05.06)
author=KOGA M, UNIV. OF OCCUPATIONAL AND ENVIRONMENTAL HEALTH
license=CC BY-NC-SA
exact mass=308.1264
ionization energy=70 eV
ion type=[M]+*
computed spectral entropy=2.525187598904858
computed normalized entropy=0.7750499622820594
SPLASH=splash10-00xv-3190000000-f6833b83d397a6498e3b
submitter=submitter = University of Tokyo Team (Faculty of Engineering, University of Tokyo)
MoNA Rating=3.75

>  <NUM PEAKS>  (5539) 
26

>  <MASS SPECTRAL PEAKS>  (5539) 
45 13.5
73 99.99
74 8.5
75 1.15
115 6
139 10.5
147 9.5
175 0.65
179 21.5
191 8
192 6.5
203 0.9
219 97
220 18.5
221 5.5
223 0.6
233 6.5
249 56
250 14
251 0.55
293 86
294 21
295 8
308 5.15
309 15
310 6

>  <PREDICTED SPECTRUM>  (5539) 
15 34
26 3
27 38
28 15
29 87
31 39
38 16
39 80
40 14
41 15
42 26
43 163
44 166
45 446
46 112
47 223
48 44
49 59
50 62
51 124
52 61
53 114
54 52
55 168
56 102
57 161
58 109
59 253
60 99
61 193
62 100
63 187
64 111
65 151
66 79
67 40
68 17
69 80
70 64
71 91
72 102
73 999
74 295
75 515
76 191
77 253
78 101
79 95
80 33
81 58
82 83
83 103
84 88
85 73
86 77
87 116
88 71
89 219
90 114
91 180
92 110
93 106
94 50
95 119
96 82
97 75
98 22
99 104
100 92
101 140
102 205
103 178
104 85
105 185
106 89
107 95
108 28
109 110
110 72
111 89
112 18
113 77
114 46
115 310
116 194
117 218
118 162
119 124
120 71
121 123
122 68
123 96
124 70
126 34
127 75
128 103
129 155
130 124
131 247
132 108
133 258
134 101
135 184
136 81
137 67
138 20
139 38
140 41
141 78
142 71
143 59
144 91
145 263
146 196
147 434
148 176
149 239
150 68
151 55
152 49
158 28
159 129
160 132
161 217
162 146
163 174
164 90
165 74
166 50
171 42
172 17
173 182
174 89
175 265
176 245
177 236
178 155
179 83
180 68
181 75
188 17
189 172
190 267
191 486
192 221
193 138
194 23
201 2
203 209
204 106
205 121
206 82
207 86
209 30
217 110
218 152
219 590
220 245
221 193
222 76
223 9
231 51
233 143
234 85
235 49
236 71
237 54
247 38
248 3
249 207
250 123
251 109
252 73
259 1
261 48
263 177
264 126
265 119
266 37
275 34
277 61
278 60
279 54
280 136
281 115
282 33
283 4
291 142
292 79
293 732
294 365
295 231
296 98
297 16
307 223
308 726
309 406
310 229
311 88
312 15

$$$$

     RDKit          2D

 19 18  0  0  0  0  0  0  0  0999 V2000
   -1.5834    3.3849    0.0000 C   0  0  0  0  0  0  0  0  0  0  0  0
   -0.0834    5.9829    0.0000 C   0  0  0  0  0  0  0  0  0  0  0  0
   -2.1325    5.4339    0.0000 C   0  0  0  0  0  0  0  0  0  0  0  0
   12.9070    3.3849    0.0000 C   0  0  0  0  0  0  0  0  0  0  0  0
   13.4560    5.4339    0.0000 C   0  0  0  0  0  0  0  0  0  0  0  0
   11.4070    5.9829    0.0000 C   0  0  0  0  0  0  0  0  0  0  0  0
    5.6618    3.9339    0.0000 C   0  0  0  0  0  0  0  0  0  0  0  0
    4.3627    4.6839    0.0000 C   0  0  0  0  0  0  0  0  0  0  0  0
    6.9608    4.6839    0.0000 C   0  0  0  0  0  0  0  0  0  0  0  0
    3.0637    3.9339    0.0000 C   0  0  0  0  0  0  0  0  0  0  0  0
    8.2599    3.9339    0.0000 C   0  0  0  0  0  0  0  0  0  0  0  0
    1.7647    4.6839    0.0000 C   0  0  0  0  0  0  0  0  0  0  0  0
    9.5589    4.6839    0.0000 C   0  0  0  0  0  0  0  0  0  0  0  0
    1.7647    6.1839    0.0000 O   0  0  0  0  0  0  0  0  0  0  0  0
    9.5589    6.1839    0.0000 O   0  0  0  0  0  0  0  0  0  0  0  0
    0.4656    3.9339    0.0000 O   0  0  0  0  0  0  0  0  0  0  0  0
   10.8579    3.9339    0.0000 O   0  0  0  0  0  0  0  0  0  0  0  0
   -0.8334    4.6839    0.0000 Si  0  0  0  0  0  4  0  0  0  0  0  0
   12.1570    4.6839    0.0000 Si  0  0  0  0  0  4  0  0  0  0  0  0
  8  7  1  0
  9  7  1  0
 10  8  1  0
 11  9  1  0
 12 10  1  0
 13 11  1  0
 14 12  2  0
 15 13  2  0
 16 12  1  0
 17 13  1  0
 18  1  1  0
 18  2  1  0
 18  3  1  0
 18 16  1  0
 19  4  1  0
 19  5  1  0
 19  6  1  0
 19 17  1  0
M  END
>  <NAME>  (5540) 
HEPTANEDIOIC ACID BIS(TRIMETHYLSILYL)ESTER

>  <SYNONYMS>  (5540) 
DI(TRIMETHYLSILYL) HEPTANEDIOATE

>  <SPECTRUM TYPE>  (5540) 
MS1

>  <INSTRUMENT TYPE>  (5540) 
EI-B

>  <INSTRUMENT>  (5540) 
JEOL JMS-01-SG

>  <ION MODE>  (5540) 
P

>  <INCHIKEY>  (5540) 
VOLKRTUGJXKFMI-UHFFFAOYSA-N

>  <FORMULA>  (5540) 
C13H28O4Si2

>  <EXACT MASS>  (5540) 
304.152612436

>  <MW>  (5540) 
304

>  <ID>  (5540) 
JP001023

>  <CONTRIBUTOR>  (5540) 
University of Tokyo Team, {Faculty of Engineering, University of Tokyo

>  <COMMENT>  (5540) 
SMILES=O=C(CCCCCC(=O)O[Si](C)(C)C)O[Si](C)(C)C
InChI=InChI=1S/C13H28O4Si2/c1-18(2,3)16-12(14)10-8-7-9-11-13(15)17-19(4,5)6/h7-11H2,1-6H3
computed SMILES=O=C(O[Si](C)(C)C)CCCCCC(=O)O[Si](C)(C)C
accession=JP001023
date=2016.01.19 (Created 2008.10.21, modified 2011.05.06)
author=KOGA M, UNIV. OF OCCUPATIONAL AND ENVIRONMENTAL HEALTH
license=CC BY-NC-SA
exact mass=304.15261
ionization energy=70 eV
ion type=[M]+*
computed spectral entropy=2.8233658307054723
computed normalized entropy=0.8384668212287167
SPLASH=splash10-05i1-7920000000-422ad7fdc670c6f5ffbf
submitter=submitter = University of Tokyo Team (Faculty of Engineering, University of Tokyo)
MoNA Rating=3.75

>  <NUM PEAKS>  (5540) 
29

>  <MASS SPECTRAL PEAKS>  (5540) 
43 9.8
45 11.7
55 28.4
69 2.39
73 99.99
74 11.9
75 73
81 1.17
83 9.1
97 23.9
116 9.4
117 2.08
125 63.1
129 19.1
147 57.3
148 1.11
149 20.6
155 82.9
156 13
157 1
171 11.7
173 37.3
186 14.2
199 1.21
204 10
217 21.6
289 47.8
290 1.11
291 4.9

>  <PREDICTED SPECTRUM>  (5540) 
26 8
27 62
28 11
29 44
31 5
39 91
40 48
41 231
42 119
43 204
44 170
45 304
46 55
47 169
48 52
49 58
50 3
51 30
52 32
53 143
54 89
55 524
56 143
57 124
58 177
59 206
60 116
61 221
62 14
63 24
65 27
66 43
67 164
68 115
69 390
70 110
71 101
72 325
73 999
74 221
75 785
76 187
77 199
78 33
79 165
80 70
81 243
82 95
83 258
84 131
85 115
86 89
87 105
88 52
89 108
91 8
93 32
95 123
96 154
97 340
98 215
99 155
100 40
101 125
102 5
103 86
104 32
105 122
106 44
107 109
108 7
109 81
111 218
112 76
113 48
114 4
115 142
116 259
117 427
118 130
119 112
120 24
123 46
124 129
125 351
126 91
127 133
128 25
129 420
130 235
131 224
132 122
133 225
134 31
135 34
139 48
140 10
141 55
142 100
143 223
144 103
145 247
146 95
147 487
148 179
149 286
150 127
151 80
153 21
154 35
155 225
156 40
157 205
158 155
159 155
160 80
161 44
162 6
169 101
170 123
171 260
172 145
173 331
174 148
175 83
176 23
181 52
185 74
186 111
187 122
188 38
189 81
190 46
191 33
199 166
200 127
201 63
202 15
203 125
204 438
205 118
206 36
214 205
215 140
216 49
217 395
218 129
219 9
227 17
228 46
229 12
231 59
232 60
244 11
245 252
246 106
247 54
248 2
260 36
261 62
262 1
271 2
273 46
289 520
290 242
291 126
292 28

$$$$

     RDKit          2D

 19 19  0  0  0  0  0  0  0  0999 V2000
   -2.7132   -5.1809    0.0000 C   0  0  0  0  0  0  0  0  0  0  0  0
   -0.6641    1.3690    0.0000 C   0  0  0  0  0  0  0  0  0  0  0  0
   -2.7132    0.8203    0.0000 C   0  0  0  0  0  0  0  0  0  0  0  0
   -2.1645   -1.2288    0.0000 C   0  0  0  0  0  0  0  0  0  0  0  0
    5.8310   -3.4800    0.0000 C   0  0  0  0  0  0  0  0  0  0  0  0
    6.3800   -1.4309    0.0000 C   0  0  0  0  0  0  0  0  0  0  0  0
    4.3310   -0.8819    0.0000 C   0  0  0  0  0  0  0  0  0  0  0  0
   -0.1147   -5.1818    0.0000 C   0  0  0  0  0  0  0  0  0  0  0  0
    1.1844   -4.4318    0.0000 C   0  0  0  0  0  0  0  0  0  0  0  0
   -1.4147   -2.9301    0.0000 C   0  0  0  0  0  0  0  0  0  0  0  0
   -1.4142   -4.4309    0.0000 C   0  0  0  0  0  0  0  0  0  0  0  0
    1.1839   -2.9309    0.0000 C   0  0  0  0  0  0  0  0  0  0  0  0
   -0.1156   -2.1801    0.0000 C   0  0  0  0  0  0  0  0  0  0  0  0
    2.4829   -2.1809    0.0000 C   0  0  0  0  0  0  0  0  0  0  0  0
    2.4829   -0.6809    0.0000 O   0  0  0  0  0  0  0  0  0  0  0  0
   -0.1154   -0.6801    0.0000 O   0  0  0  0  0  0  0  0  0  0  0  0
    3.7820   -2.9309    0.0000 O   0  0  0  0  0  0  0  0  0  0  0  0
   -1.4143    0.0701    0.0000 Si  0  0  0  0  0  4  0  0  0  0  0  0
    5.0810   -2.1809    0.0000 Si  0  0  0  0  0  4  0  0  0  0  0  0
  9  8  2  0
 11  1  1  0
 11  8  1  0
 11 10  2  0
 12  9  1  0
 13 10  1  0
 13 12  2  0
 14 12  1  0
 15 14  2  0
 16 13  1  0
 17 14  1  0
 18  2  1  0
 18  3  1  0
 18  4  1  0
 18 16  1  0
 19  5  1  0
 19  6  1  0
 19  7  1  0
 19 17  1  0
M  END
>  <NAME>  (5541) 
4-METHYL-2-(TRIMETHYLSILYL)OXYBENZOIC ACIDTRIMETHYLSILYL ESTER

>  <SYNONYMS>  (5541) 
TRIMETHYLSILYL 4-METHYL-2-TRIMETHYLSILOXYBENZOATE

>  <SPECTRUM TYPE>  (5541) 
MS1

>  <INSTRUMENT TYPE>  (5541) 
EI-B

>  <INSTRUMENT>  (5541) 
JEOL JMS-01-SG

>  <ION MODE>  (5541) 
P

>  <INCHIKEY>  (5541) 
WMMUZRDZZSRQEF-UHFFFAOYSA-N

>  <FORMULA>  (5541) 
C14H24O3Si2

>  <EXACT MASS>  (5541) 
296.126397688

>  <MW>  (5541) 
296

>  <ID>  (5541) 
JP001021

>  <CONTRIBUTOR>  (5541) 
University of Tokyo Team, {Faculty of Engineering, University of Tokyo

>  <COMMENT>  (5541) 
SMILES=Cc(c1)cc(O[Si](C)(C)C)c(c1)C(=O)O[Si](C)(C)C
InChI=InChI=1S/C14H24O3Si2/c1-11-8-9-12(14(15)17-19(5,6)7)13(10-11)16-18(2,3)4/h8-10H,1-7H3
computed SMILES=O=C(O[Si](C)(C)C)C1=CC=C(C=C1O[Si](C)(C)C)C
accession=JP001021
date=2016.01.19 (Created 2008.10.21, modified 2011.05.06)
author=KOGA M, UNIV. OF OCCUPATIONAL AND ENVIRONMENTAL HEALTH
license=CC BY-NC-SA
exact mass=296.1264
ionization energy=70 eV
ion type=[M]+*
computed spectral entropy=1.979910128060666
computed normalized entropy=0.7502338451849062
SPLASH=splash10-00di-9240000000-e9808a7e02b9fd39b4ba
submitter=submitter = University of Tokyo Team (Faculty of Engineering, University of Tokyo)
MoNA Rating=3.75

>  <NUM PEAKS>  (5541) 
14

>  <MASS SPECTRAL PEAKS>  (5541) 
43 5.6
73 99.99
74 8.3
75 1.27
77 5.9
105 7.8
133 6.7
147 0.54
149 20.2
207 15.1
223 13.5
281 8.56
282 21
283 8.6

>  <PREDICTED SPECTRUM>  (5541) 
15 34
18 0
27 54
29 30
38 5
39 13
41 19
42 22
43 203
44 99
45 331
46 64
47 147
49 14
50 22
51 57
52 40
53 99
54 32
55 93
57 64
58 23
59 92
60 27
61 112
62 11
63 65
64 26
65 69
66 55
67 51
68 1
69 74
70 33
71 91
72 76
73 757
74 207
75 261
76 44
77 163
78 74
79 58
80 21
81 24
82 11
83 68
84 18
85 57
87 22
88 44
89 72
90 26
91 122
92 48
93 91
95 46
96 23
97 46
99 52
101 40
102 35
103 84
104 63
105 222
106 103
107 89
108 9
109 61
110 11
111 41
112 26
113 23
115 114
116 33
117 94
118 35
119 162
120 73
121 83
122 22
123 64
124 54
125 21
126 24
127 0
128 2
129 47
130 11
131 119
132 71
133 178
134 82
135 143
136 55
137 64
138 0
141 4
145 41
146 1
147 178
148 84
149 265
150 80
151 42
152 45
153 42
154 28
155 3
159 41
160 13
161 63
162 49
163 121
164 48
165 77
166 34
167 41
173 25
174 4
175 71
176 21
177 74
178 47
179 90
181 16
189 44
190 14
191 101
192 29
193 128
194 45
195 70
197 14
199 1
205 58
206 48
207 224
208 130
209 108
210 30
219 36
220 31
221 71
222 50
223 168
224 93
225 53
235 84
237 72
238 13
239 39
247 95
248 25
249 25
251 79
263 114
264 47
265 78
266 24
267 2
279 50
281 999
282 508
283 328
284 111
285 81
295 11
296 104
297 36

$$$$

     RDKit          2D

 19 19  0  0  0  0  0  0  0  0999 V2000
   -6.3900   -1.4488    0.0000 C   0  0  0  0  0  0  0  0  0  0  0  0
   -4.4550    2.1400    0.0000 C   0  0  0  0  0  0  0  0  0  0  0  0
   -6.4858    1.5269    0.0000 C   0  0  0  0  0  0  0  0  0  0  0  0
   -5.8727   -0.5039    0.0000 C   0  0  0  0  0  0  0  0  0  0  0  0
    2.1921   -2.5481    0.0000 C   0  0  0  0  0  0  0  0  0  0  0  0
    2.7010   -0.4887    0.0000 C   0  0  0  0  0  0  0  0  0  0  0  0
    0.6416    0.0202    0.0000 C   0  0  0  0  0  0  0  0  0  0  0  0
   -3.7548   -4.3500    0.0000 C   0  0  0  0  0  0  0  0  0  0  0  0
   -5.0448   -3.6500    0.0000 C   0  0  0  0  0  0  0  0  0  0  0  0
   -2.4648   -3.6100    0.0000 C   0  0  0  0  0  0  0  0  0  0  0  0
   -5.0748   -2.1700    0.0000 C   0  0  0  0  0  0  0  0  0  0  0  0
   -2.4648   -2.0900    0.0000 C   0  0  0  0  0  0  0  0  0  0  0  0
   -3.7948   -1.3900    0.0000 C   0  0  0  0  0  0  0  0  0  0  0  0
   -1.1807   -1.3148    0.0000 C   0  0  0  0  0  0  0  0  0  0  0  0
   -1.2100    0.1849    0.0000 O   0  0  0  0  0  0  0  0  0  0  0  0
   -3.8419    0.1092    0.0000 O   0  0  0  0  0  0  0  0  0  0  0  0
    0.1327   -2.0392    0.0000 O   0  0  0  0  0  0  0  0  0  0  0  0
   -5.1639    0.8181    0.0000 Si  0  0  0  0  0  4  0  0  0  0  0  0
    1.4169   -1.2640    0.0000 Si  0  0  0  0  0  4  0  0  0  0  0  0
  9  8  2  0
 10  8  1  0
 11  1  1  0
 11  9  1  0
 12 10  2  0
 13 11  2  0
 13 12  1  0
 14 12  1  0
 15 14  2  0
 16 13  1  0
 17 14  1  0
 18  2  1  0
 18  3  1  0
 18  4  1  0
 18 16  1  0
 19  5  1  0
 19  6  1  0
 19  7  1  0
 19 17  1  0
M  END
>  <NAME>  (5542) 
3-METHYL-2-(TRIMETHYLSILYL)OXYBENZOIC ACIDTRIMETHYLSILYL ESTER

>  <SYNONYMS>  (5542) 
TRIMETHYLSILYL 3-METHYL-2-TRIMETHYLSILOXYBENZOATE

>  <SPECTRUM TYPE>  (5542) 
MS1

>  <INSTRUMENT TYPE>  (5542) 
EI-B

>  <INSTRUMENT>  (5542) 
JEOL JMS-01-SG

>  <ION MODE>  (5542) 
P

>  <INCHIKEY>  (5542) 
MMUCIJOPDDWEJV-UHFFFAOYSA-N

>  <FORMULA>  (5542) 
C14H24O3Si2

>  <EXACT MASS>  (5542) 
296.126397688

>  <MW>  (5542) 
296

>  <ID>  (5542) 
JP001020

>  <CONTRIBUTOR>  (5542) 
University of Tokyo Team, {Faculty of Engineering, University of Tokyo

>  <COMMENT>  (5542) 
SMILES=Cc(c1)c(O[Si](C)(C)C)c(cc1)C(=O)O[Si](C)(C)C
InChI=InChI=1S/C14H24O3Si2/c1-11-9-8-10-12(13(11)16-18(2,3)4)14(15)17-19(5,6)7/h8-10H,1-7H3
computed SMILES=O=C(O[Si](C)(C)C)C1=CC=CC(=C1O[Si](C)(C)C)C
accession=JP001020
date=2016.01.19 (Created 2008.10.21, modified 2011.05.06)
author=KOGA M, UNIV. OF OCCUPATIONAL AND ENVIRONMENTAL HEALTH
license=CC BY-NC-SA
exact mass=296.1264
ionization energy=70 eV
ion type=[M]+*
computed spectral entropy=2.4379481902537914
computed normalized entropy=0.7316322220947977
SPLASH=splash10-00ea-9350000000-7615202b99b602f70ddb
submitter=submitter = University of Tokyo Team (Faculty of Engineering, University of Tokyo)
MoNA Rating=3.75

>  <NUM PEAKS>  (5542) 
28

>  <MASS SPECTRAL PEAKS>  (5542) 
43 3.7
45 19
47 5
51 0.31
59 3.1
73 99.99
74 8.2
75 1.13
77 10
78 3.1
79 2.6
91 0.37
105 7.1
106 3.1
133 5
134 0.34
135 2.9
147 10.8
149 24.6
150 0.34
193 3.1
207 4.2
208 12.1
209 0.31
223 7.6
281 56.8
282 13.7
283 5.8

>  <PREDICTED SPECTRUM>  (5542) 
15 31
27 40
29 41
39 42
41 49
42 27
43 185
44 103
45 341
46 73
47 161
49 25
50 41
51 79
52 44
53 81
54 17
55 99
56 16
57 82
58 40
59 92
60 27
61 108
62 9
63 73
64 19
65 91
66 61
67 39
69 47
70 7
71 76
72 56
73 779
74 245
75 297
76 75
77 177
78 87
79 55
80 10
81 38
82 5
83 36
84 7
85 62
87 20
88 21
89 102
90 60
91 180
92 58
93 72
95 44
96 14
97 22
99 40
101 7
102 10
103 84
104 71
105 218
106 106
107 77
108 1
109 56
111 21
112 0
113 21
115 100
116 21
117 97
118 40
119 162
120 70
121 82
122 17
123 35
124 20
131 111
132 64
133 190
134 110
135 142
136 53
137 38
147 256
148 164
149 338
150 90
151 51
152 18
153 9
161 51
162 38
163 76
164 65
165 69
166 28
175 61
176 10
177 58
178 23
179 36
189 11
190 10
191 114
192 33
193 130
194 19
195 30
205 2
206 41
207 217
208 151
209 73
219 41
221 33
222 6
223 167
224 84
225 18
234 2
235 18
237 5
247 32
251 39
263 5
265 51
266 15
279 25
281 999
282 507
283 320
284 94
285 50
296 48
297 16

$$$$

     RDKit          2D

 19 19  0  0  0  0  0  0  0  0999 V2000
   -0.9106    6.5443    0.0000 C   0  0  0  0  0  0  0  0  0  0  0  0
   -2.9596    5.9952    0.0000 C   0  0  0  0  0  0  0  0  0  0  0  0
   -2.4106    3.9462    0.0000 C   0  0  0  0  0  0  0  0  0  0  0  0
   -5.0087    3.5443    0.0000 C   0  0  0  0  0  0  0  0  0  0  0  0
   -5.5577    1.4952    0.0000 C   0  0  0  0  0  0  0  0  0  0  0  0
   -3.5087    0.9462    0.0000 C   0  0  0  0  0  0  0  0  0  0  0  0
    3.5356    0.7452    0.0000 C   0  0  0  0  0  0  0  0  0  0  0  0
    3.5361    2.2461    0.0000 C   0  0  0  0  0  0  0  0  0  0  0  0
    2.2361   -0.0056    0.0000 C   0  0  0  0  0  0  0  0  0  0  0  0
    2.2370    2.9961    0.0000 C   0  0  0  0  0  0  0  0  0  0  0  0
    0.9370    0.7444    0.0000 C   0  0  0  0  0  0  0  0  0  0  0  0
    0.9375    2.2452    0.0000 C   0  0  0  0  0  0  0  0  0  0  0  0
   -0.3615    2.9952    0.0000 C   0  0  0  0  0  0  0  0  0  0  0  0
   -1.6606    2.2452    0.0000 C   0  0  0  0  0  0  0  0  0  0  0  0
   -1.6606    0.7452    0.0000 O   0  0  0  0  0  0  0  0  0  0  0  0
   -0.3615    4.4952    0.0000 O   0  0  0  0  0  0  0  0  0  0  0  0
   -2.9596    2.9952    0.0000 O   0  0  0  0  0  0  0  0  0  0  0  0
   -1.6606    5.2452    0.0000 Si  0  0  0  0  0  4  0  0  0  0  0  0
   -4.2587    2.2452    0.0000 Si  0  0  0  0  0  4  0  0  0  0  0  0
  8  7  2  0
  9  7  1  0
 10  8  1  0
 11  9  2  0
 12 10  2  0
 12 11  1  0
 13 12  1  0
 14 13  1  0
 15 14  2  0
 16 13  1  0
 17 14  1  0
 18  1  1  0
 18  2  1  0
 18  3  1  0
 18 16  1  0
 19  4  1  0
 19  5  1  0
 19  6  1  0
 19 17  1  0
M  END
>  <NAME>  (5543) 
ALPHA-(TRIMETHYLSILYL)OXY-PHENYLACETIC ACID TRIMETHYLSILYL ESTER

>  <SYNONYMS>  (5543) 
TRIMETHYLSILYL ALPHA-PHENYL-ALPHA-TRIMETHYLSILOXYACETATE

>  <SPECTRUM TYPE>  (5543) 
MS1

>  <INSTRUMENT TYPE>  (5543) 
EI-B

>  <INSTRUMENT>  (5543) 
JEOL JMS-01-SG

>  <ION MODE>  (5543) 
P

>  <INCHIKEY>  (5543) 
QGQNCTUAZAEYNK-UHFFFAOYSA-N

>  <FORMULA>  (5543) 
C14H24O3Si2

>  <EXACT MASS>  (5543) 
296.126397688

>  <MW>  (5543) 
296

>  <ID>  (5543) 
JP001019

>  <CONTRIBUTOR>  (5543) 
University of Tokyo Team, {Faculty of Engineering, University of Tokyo

>  <COMMENT>  (5543) 
SMILES=c(c1)ccc(c1)C(O[Si](C)(C)C)C(=O)O[Si](C)(C)C
InChI=InChI=1S/C14H24O3Si2/c1-18(2,3)16-13(12-10-8-7-9-11-12)14(15)17-19(4,5)6/h7-11,13H,1-6H3
computed SMILES=O=C(O[Si](C)(C)C)C(O[Si](C)(C)C)C=1C=CC=CC1
accession=JP001019
license=CC BY-NC-SA
date=2016.01.19 (Created 2008.10.21, modified 2011.05.06)
author=KOGA M, UNIV. OF OCCUPATIONAL AND ENVIRONMENTAL HEALTH
exact mass=296.1264
ionization energy=70 eV
ion type=[M]+*
computed spectral entropy=1.6875574556115958
computed normalized entropy=0.6579301266523746
SPLASH=splash10-00b9-9700000000-3cb0740842e9dae2707d
submitter=submitter = University of Tokyo Team (Faculty of Engineering, University of Tokyo)
MoNA Rating=3.75

>  <NUM PEAKS>  (5543) 
13

>  <MASS SPECTRAL PEAKS>  (5543) 
44 4.4
45 12.9
73 99.99
74 0.96
75 14.1
77 8.7
105 5.6
147 3.58
148 5.4
149 5.6
179 91.2
180 1.93
253 8

>  <PREDICTED SPECTRUM>  (5543) 
39 25
40 3
41 1
43 126
44 118
45 332
46 67
47 174
50 18
51 48
52 46
58 57
59 145
60 3
61 92
62 1
63 12
72 27
73 987
74 260
75 359
76 68
77 184
78 29
79 17
89 181
90 27
91 125
103 22
104 11
105 95
106 0
117 72
118 50
119 60
131 129
133 118
134 28
135 19
147 522
148 289
149 213
150 22
163 93
164 0
177 10
179 999
180 404
181 236
182 37
191 47
252 14
253 355
254 181
255 1
281 155
282 45
283 4

$$$$

     RDKit          2D

  6  5  0  0  0  0  0  0  0  0999 V2000
   -1.2990    1.5000    0.0000 C   0  0  0  0  0  0  0  0  0  0  0  0
    0.0000    3.7500    0.0000 C   0  0  0  0  0  0  0  0  0  0  0  0
    0.0000    2.2500    0.0000 C   0  0  0  0  0  0  0  0  0  0  0  0
    1.2990    1.5000    0.0000 C   0  0  0  0  0  0  0  0  0  0  0  0
    2.5981    2.2500    0.0000 Cl  0  0  0  0  0  0  0  0  0  0  0  0
    1.2990   -0.0000    0.0000 O   0  0  0  0  0  0  0  0  0  0  0  0
  3  1  2  0
  3  2  1  0
  4  3  1  0
  5  4  1  0
  6  4  2  0
M  END
>  <NAME>  (5544) 
METHACRYLOYL CHLORIDE

>  <SYNONYMS>  (5544) 


>  <SPECTRUM TYPE>  (5544) 
MS1

>  <INSTRUMENT TYPE>  (5544) 
EI-B

>  <INSTRUMENT>  (5544) 
HITACHI RMU-7M

>  <ION MODE>  (5544) 
P

>  <INCHIKEY>  (5544) 
VHRYZQNGTZXDNX-UHFFFAOYSA-N

>  <FORMULA>  (5544) 
C4H5ClO

>  <EXACT MASS>  (5544) 
104.00289246

>  <MW>  (5544) 
104

>  <ID>  (5544) 
JP001015

>  <CONTRIBUTOR>  (5544) 
University of Tokyo Team, {Faculty of Engineering, University of Tokyo

>  <COMMENT>  (5544) 
SMILES=CC(=C)C(=O)Cl
InChI=InChI=1S/C4H5ClO/c1-3(2)4(5)6/h1H2,2H3
computed SMILES=O=C(Cl)C(=C)C
accession=JP001015
date=2016.01.19 (Created 2008.10.21, modified 2011.05.06)
author=TAJIMA S, GUNMA COLLEGE OF TECHNOLOGY
license=CC BY-NC-SA
exact mass=104.00289
ionization energy=70 eV
ion type=[M]+*
computed spectral entropy=2.176409389327633
computed normalized entropy=0.6680002768270591
SPLASH=splash10-014u-9000000000-86d3bce1beb00dfb7e7d
submitter=submitter = University of Tokyo Team (Faculty of Engineering, University of Tokyo)
MoNA Rating=3.75

>  <NUM PEAKS>  (5544) 
26

>  <MASS SPECTRAL PEAKS>  (5544) 
15 2.46
26 4.73
27 4.67
35 2.21
36 3.34
37 7.69
38 11.6
39 58.64
40 9.02
41 76.04
42 3.34
43 3.97
49 1.77
50 1.26
51 1.39
53 3.4
55 1.26
63 3.66
69 99.99
70 4.35
76 7.69
77 3.47
78 2.52
79 1.77
81 2.59
89 1.2

>  <PREDICTED SPECTRUM>  (5544) 
14 52
15 117
25 71
26 201
27 393
28 174
29 163
35 115
36 145
37 192
38 260
39 693
40 295
41 722
42 257
43 298
44 93
47 19
49 131
50 168
51 87
61 192
62 144
63 187
64 96
67 56
68 20
69 999
70 161
75 174
76 140
77 41
78 41
89 167
91 17
104 547
105 117
106 259
107 32

$$$$

     RDKit          2D

 12 12  0  0  0  0  0  0  0  0999 V2000
   -6.4962   -0.7508    0.0000 C   0  0  0  0  0  0  0  0  0  0  0  0
   -5.1970   -1.5006    0.0000 C   0  0  0  0  0  0  0  0  0  0  0  0
   -1.3000    0.7500    0.0000 C   0  0  0  0  0  0  0  0  0  0  0  0
   -0.0000   -1.5000    0.0000 C   0  0  0  0  0  0  0  0  0  0  0  0
    0.0000    1.5000    0.0000 C   0  0  0  0  0  0  0  0  0  0  0  0
    1.3000   -0.7500    0.0000 C   0  0  0  0  0  0  0  0  0  0  0  0
   -1.3000   -0.7500    0.0000 C   0  0  0  0  0  0  0  0  0  0  0  0
    1.3000    0.7500    0.0000 C   0  0  0  0  0  0  0  0  0  0  0  0
   -2.5989   -1.5002    0.0000 C   0  0  0  0  0  0  0  0  0  0  0  0
    2.5989    1.5002    0.0000 I   0  0  0  0  0  0  0  0  0  0  0  0
   -2.5987   -3.0002    0.0000 O   0  0  0  0  0  0  0  0  0  0  0  0
   -3.8981   -0.7504    0.0000 O   0  0  0  0  0  0  0  0  0  0  0  0
  2  1  1  0
  5  3  2  0
  6  4  1  0
  7  3  1  0
  7  4  2  0
  8  5  1  0
  8  6  2  0
  9  7  1  0
 10  8  1  0
 11  9  2  0
 12  2  1  0
 12  9  1  0
M  END
>  <NAME>  (5545) 
PARA-IODOBENZOIC ACID ETHYL ESTER

>  <SYNONYMS>  (5545) 
ETHYL PARA-IODOBENZOATE

>  <SPECTRUM TYPE>  (5545) 
MS1

>  <INSTRUMENT TYPE>  (5545) 
EI-B

>  <INSTRUMENT>  (5545) 
HITACHI RMU-7M

>  <ION MODE>  (5545) 
P

>  <INCHIKEY>  (5545) 
YCBJOQUNPLTBGG-UHFFFAOYSA-N

>  <FORMULA>  (5545) 
C9H9IO2

>  <EXACT MASS>  (5545) 
275.96472752799997

>  <MW>  (5545) 
276

>  <ID>  (5545) 
JP001014

>  <CONTRIBUTOR>  (5545) 
University of Tokyo Team, {Faculty of Engineering, University of Tokyo

>  <COMMENT>  (5545) 
SMILES=CCOC(=O)c(c1)ccc(I)c1
InChI=InChI=1S/C9H9IO2/c1-2-12-9(11)7-3-5-8(10)6-4-7/h3-6H,2H2,1H3
computed SMILES=O=C(OCC)C1=CC=C(I)C=C1
ion type=[M]+*
accession=JP001014
date=2016.01.19 (Created 2008.10.21, modified 2011.05.06)
author=TAJIMA S, GUNMA COLLEGE OF TECHNOLOGY
license=CC BY-NC-SA
exact mass=275.96472
ionization energy=70 eV
computed spectral entropy=2.6269974474873883
computed normalized entropy=0.7801504768584412
SPLASH=splash10-0fai-5190000000-b7b7daf8876009dafbf8
submitter=submitter = University of Tokyo Team (Faculty of Engineering, University of Tokyo)
MoNA Rating=3.75

>  <NUM PEAKS>  (5545) 
29

>  <MASS SPECTRAL PEAKS>  (5545) 
27 6.09
28 1
29 10.34
38 1.72
39 1.72
45 4.02
50 27.52
51 4.02
65 7.41
73 1.72
74 10.63
75 11.38
76 45.29
77 5.46
103 3.45
104 10.57
105 2.3
121 2.93
127 1.95
128 1.61
149 5.63
203 22.07
204 1.67
231 99.99
232 11.49
248 38.79
249 2.82
276 40.4
277 3.97

>  <PREDICTED SPECTRUM>  (5545) 
14 28
15 78
16 4
17 12
18 42
25 20
26 100
27 268
28 134
29 373
30 76
31 44
36 43
37 111
38 158
39 219
40 71
41 2
42 14
43 169
44 62
45 259
49 128
50 483
51 279
52 105
53 171
61 74
62 90
63 119
64 132
65 200
66 71
73 266
74 354
75 419
76 716
77 329
78 109
79 48
82 41
83 4
85 19
88 30
90 17
91 42
92 107
93 186
94 94
95 19
103 173
104 280
105 166
106 22
119 72
120 125
121 231
122 82
127 300
128 63
149 246
150 21
203 483
204 68
220 46
231 999
232 329
233 70
247 0
248 605
249 239
250 69
276 725
277 260
278 61

$$$$

     RDKit          2D

 18 18  0  0  0  0  0  0  0  0999 V2000
   -2.9381    6.9356    0.0000 C   0  0  0  0  0  0  0  0  0  0  0  0
    7.4651    0.9410    0.0000 C   0  0  0  0  0  0  0  0  0  0  0  0
   -2.9356    5.4356    0.0000 C   0  0  0  0  0  0  0  0  0  0  0  0
    6.1662    0.1908    0.0000 C   0  0  0  0  0  0  0  0  0  0  0  0
   -1.6200   -1.3100    0.0000 C   0  0  0  0  0  0  0  0  0  0  0  0
   -0.3300   -2.0600    0.0000 C   0  0  0  0  0  0  0  0  0  0  0  0
   -1.6200    0.1900    0.0000 C   0  0  0  0  0  0  0  0  0  0  0  0
    0.9700   -1.3100    0.0000 C   0  0  0  0  0  0  0  0  0  0  0  0
   -1.6353    4.6878    0.0000 C   0  0  0  0  0  0  0  0  0  0  0  0
    4.8670    0.9406    0.0000 C   0  0  0  0  0  0  0  0  0  0  0  0
   -0.3300    0.9400    0.0000 C   0  0  0  0  0  0  0  0  0  0  0  0
    0.9700    0.1900    0.0000 C   0  0  0  0  0  0  0  0  0  0  0  0
   -0.3325    2.4400    0.0000 C   0  0  0  0  0  0  0  0  0  0  0  0
    2.2689    0.9402    0.0000 C   0  0  0  0  0  0  0  0  0  0  0  0
    0.9653    3.1922    0.0000 O   0  0  0  0  0  0  0  0  0  0  0  0
    2.2687    2.4402    0.0000 O   0  0  0  0  0  0  0  0  0  0  0  0
   -1.6328    3.1878    0.0000 O   0  0  0  0  0  0  0  0  0  0  0  0
    3.5681    0.1904    0.0000 O   0  0  0  0  0  0  0  0  0  0  0  0
  3  1  1  0
  4  2  1  0
  6  5  2  0
  7  5  1  0
  8  6  1  0
  9  3  1  0
 10  4  1  0
 11  7  2  0
 12  8  2  0
 12 11  1  0
 13 11  1  0
 14 12  1  0
 15 13  2  0
 16 14  2  0
 17  9  1  0
 17 13  1  0
 18 10  1  0
 18 14  1  0
M  END
>  <NAME>  (5546) 
PHTHALIC ACID DIPROPYL ESTER

>  <SYNONYMS>  (5546) 
DIPROPYL PHTHALATE

>  <SPECTRUM TYPE>  (5546) 
MS1

>  <INSTRUMENT TYPE>  (5546) 
EI-B

>  <INSTRUMENT>  (5546) 
HITACHI RMU-7M

>  <ION MODE>  (5546) 
P

>  <INCHIKEY>  (5546) 
MQHNKCZKNAJROC-UHFFFAOYSA-N

>  <FORMULA>  (5546) 
C14H18O4

>  <EXACT MASS>  (5546) 
250.120509056

>  <MW>  (5546) 
250

>  <ID>  (5546) 
JP001012

>  <CONTRIBUTOR>  (5546) 
University of Tokyo Team, {Faculty of Engineering, University of Tokyo

>  <COMMENT>  (5546) 
SMILES=CCCOC(=O)c(c1)c(ccc1)C(=O)OCCC
InChI=InChI=1S/C14H18O4/c1-3-9-17-13(15)11-7-5-6-8-12(11)14(16)18-10-4-2/h5-8H,3-4,9-10H2,1-2H3
computed SMILES=O=C(OCCC)C=1C=CC=CC1C(=O)OCCC
accession=JP001012
date=2016.01.19 (Created 2008.10.21, modified 2011.05.06)
license=CC BY-NC-SA
author=TAJIMA S, GUNMA COLLEGE OF TECHNOLOGY
exact mass=250.12051
ionization energy=70 eV
ion type=[M]+*
computed spectral entropy=1.8883302857270938
computed normalized entropy=0.6022432687433676
SPLASH=splash10-0002-2900000000-bf0ca540c11ac034703b
submitter=submitter = University of Tokyo Team (Faculty of Engineering, University of Tokyo)
MoNA Rating=3.75

>  <NUM PEAKS>  (5546) 
23

>  <MASS SPECTRAL PEAKS>  (5546) 
27 3.39
29 1.29
31 1.54
39 1.85
41 5.73
42 1.91
43 9.25
50 1.23
65 2.77
76 3.02
77 1.85
93 3.33
104 3.08
105 4.07
121 2.96
122 2.16
123 1.23
149 99.99
150 8.82
151 1.11
191 6.23
192 1
209 4.5

>  <PREDICTED SPECTRUM>  (5546) 
26 15
27 134
29 82
31 38
38 28
39 161
40 38
41 230
42 126
43 252
44 40
50 119
51 62
53 30
54 18
55 81
56 80
57 31
58 38
59 51
63 20
65 193
66 51
67 3
68 11
69 20
70 72
74 58
75 17
76 208
77 175
78 50
79 10
81 2
83 17
91 41
92 43
93 168
104 229
105 175
106 0
107 2
121 153
122 162
123 64
132 38
148 0
149 999
150 292
151 135
164 6
167 35
191 326
192 187
193 0
209 341
210 134

$$$$

     RDKit          2D

 10 10  0  0  0  0  0  0  0  0999 V2000
    1.3013    2.6340    0.0000 C   0  0  0  0  0  0  0  0  0  0  0  0
    0.0013    1.8740    0.0000 C   0  0  0  0  0  0  0  0  0  0  0  0
    2.6013    1.8740    0.0000 C   0  0  0  0  0  0  0  0  0  0  0  0
    1.3013   -0.3660    0.0000 C   0  0  0  0  0  0  0  0  0  0  0  0
    0.0013    0.3740    0.0000 C   0  0  0  0  0  0  0  0  0  0  0  0
    2.6013    0.3740    0.0000 C   0  0  0  0  0  0  0  0  0  0  0  0
   -1.2954   -0.3800    0.0000 C   0  0  0  0  0  0  0  0  0  0  0  0
    3.8981   -0.3800    0.0000 Cl  0  0  0  0  0  0  0  0  0  0  0  0
   -1.2908   -1.8800    0.0000 O   0  0  0  0  0  0  0  0  0  0  0  0
   -2.5967    0.3660    0.0000 O   0  0  0  0  0  0  0  0  0  0  0  0
  2  1  2  0
  3  1  1  0
  5  2  1  0
  5  4  2  0
  6  3  2  0
  6  4  1  0
  7  5  1  0
  8  6  1  0
  9  7  2  0
 10  7  1  0
M  END
>  <NAME>  (5547) 
META-CHLOROBENZOIC ACID

>  <SYNONYMS>  (5547) 


>  <SPECTRUM TYPE>  (5547) 
MS1

>  <INSTRUMENT TYPE>  (5547) 
EI-B

>  <INSTRUMENT>  (5547) 
HITACHI RMU-7M

>  <ION MODE>  (5547) 
P

>  <INCHIKEY>  (5547) 
LULAYUGMBFYYEX-UHFFFAOYSA-N

>  <FORMULA>  (5547) 
C7H5ClO2

>  <EXACT MASS>  (5547) 
155.99780708

>  <MW>  (5547) 
156

>  <ID>  (5547) 
JP001008

>  <CONTRIBUTOR>  (5547) 
University of Tokyo Team, {Faculty of Engineering, University of Tokyo

>  <COMMENT>  (5547) 
SMILES=OC(=O)c(c1)cc(Cl)cc1
InChI=InChI=1S/C7H5ClO2/c8-6-3-1-2-5(4-6)7(9)10/h1-4H,(H,9,10)
computed SMILES=O=C(O)C=1C=CC=C(Cl)C1
accession=JP001008
date=2016.01.19 (Created 2008.10.21, modified 2011.05.06)
author=TAJIMA S, GUNMA COLLEGE OF TECHNOLOGY
license=CC BY-NC-SA
exact mass=155.99781
ionization energy=70 eV
ion type=[M]+*
computed spectral entropy=2.7726013949300228
computed normalized entropy=0.7516107342130532
SPLASH=splash10-0bti-3900000000-ff604323020f2ae9a71a
submitter=submitter = University of Tokyo Team (Faculty of Engineering, University of Tokyo)
MoNA Rating=3.75

>  <NUM PEAKS>  (5547) 
40

>  <MASS SPECTRAL PEAKS>  (5547) 
27 1.19
37 3.46
37.5 2.51
38 6.69
39 3.58
45 2.57
49 2.27
50 17.56
51 9.98
55.5 2.51
61 1.79
63 1.79
64 2.69
65 4.66
69.5 2.39
73 3.46
74 9.74
75 27.3
76 7.41
77 9.02
84 1.37
85 2.93
110 2.09
111 52.09
112 4.42
113 16.31
114 1.14
121 1.55
123 1.02
128 2.09
130 1.79
139 99.99
140 8.24
141 32.44
142 2.39
155 1.19
156 81.96
157 6.33
158 26.11
159 1.85

>  <PREDICTED SPECTRUM>  (5547) 
16 7
17 22
18 17
19 1
25 15
26 33
28 6
35 72
36 115
37 183
38 189
39 127
41 0
44 58
45 324
46 56
47 97
48 68
49 243
50 593
51 437
52 137
53 199
56 4
57 84
60 105
61 206
62 79
63 209
64 6
65 225
66 0
68 22
69 130
72 52
73 292
74 475
75 809
76 383
77 304
78 138
79 75
81 39
82 1
83 26
84 221
85 286
86 132
92 110
93 65
99 64
101 14
103 80
109 9
110 237
111 641
112 280
113 383
114 20
121 317
122 5
127 81
128 112
129 80
130 2
138 41
139 999
140 281
141 392
142 68
155 125
156 972
157 313
158 457
159 152

$$$$

     RDKit          2D

 10 10  0  0  0  0  0  0  0  0999 V2000
    1.3000   -0.7500    0.0000 C   0  0  0  0  0  0  0  0  0  0  0  0
    0.0000    1.5000    0.0000 C   0  0  0  0  0  0  0  0  0  0  0  0
   -0.0000   -1.5000    0.0000 C   0  0  0  0  0  0  0  0  0  0  0  0
   -1.3000    0.7500    0.0000 C   0  0  0  0  0  0  0  0  0  0  0  0
    1.3000    0.7500    0.0000 C   0  0  0  0  0  0  0  0  0  0  0  0
   -1.3000   -0.7500    0.0000 C   0  0  0  0  0  0  0  0  0  0  0  0
    2.5989    1.5002    0.0000 C   0  0  0  0  0  0  0  0  0  0  0  0
   -2.5989   -1.5002    0.0000 F   0  0  0  0  0  0  0  0  0  0  0  0
    3.8981    0.7504    0.0000 O   0  0  0  0  0  0  0  0  0  0  0  0
    2.5987    3.0002    0.0000 O   0  0  0  0  0  0  0  0  0  0  0  0
  3  1  2  0
  4  2  1  0
  5  1  1  0
  5  2  2  0
  6  3  1  0
  6  4  2  0
  7  5  1  0
  8  6  1  0
  9  7  1  0
 10  7  2  0
M  END
>  <NAME>  (5548) 
PARA-FLUOROBENZOIC ACID

>  <SYNONYMS>  (5548) 


>  <SPECTRUM TYPE>  (5548) 
MS1

>  <INSTRUMENT TYPE>  (5548) 
EI-B

>  <INSTRUMENT>  (5548) 
HITACHI RMU-7M

>  <ION MODE>  (5548) 
P

>  <INCHIKEY>  (5548) 
BBYDXOIZLAWGSL-UHFFFAOYSA-N

>  <FORMULA>  (5548) 
C7H5FO2

>  <EXACT MASS>  (5548) 
140.02735762

>  <MW>  (5548) 
140

>  <ID>  (5548) 
JP001006

>  <CONTRIBUTOR>  (5548) 
University of Tokyo Team, {Faculty of Engineering, University of Tokyo

>  <COMMENT>  (5548) 
SMILES=OC(=O)c(c1)ccc(F)c1
InChI=InChI=1S/C7H5FO2/c8-6-3-1-5(2-4-6)7(9)10/h1-4H,(H,9,10)
computed SMILES=O=C(O)C1=CC=C(F)C=C1
accession=JP001006
date=2016.01.19 (Created 2008.10.21, modified 2011.05.06)
author=TAJIMA S, GUNMA COLLEGE OF TECHNOLOGY
license=CC BY-NC-SA
exact mass=140.02736
ionization energy=70 eV
ion type=[M]+*
computed spectral entropy=2.3066666513138427
computed normalized entropy=0.6717167286765352
SPLASH=splash10-00dm-8900000000-6424b0b84f9881cdbb73
submitter=submitter = University of Tokyo Team (Faculty of Engineering, University of Tokyo)
MoNA Rating=3.75

>  <NUM PEAKS>  (5548) 
31

>  <MASS SPECTRAL PEAKS>  (5548) 
28 5.23
31 1.31
37 2.24
38 1.74
39 2.24
45 2.62
47.5 1.04
49 1.25
50 10.91
51 4.36
56 1.53
57 2.89
61 1.36
61.5 1.09
62 1.53
63 2.02
68 3.92
69 5.83
70 3.82
73 1.53
74 7.09
75 27.7
76 2.51
83 2.07
94 1.31
95 76.12
96 6.54
123 99.99
124 7.31
140 69.85
141 5.89

>  <PREDICTED SPECTRUM>  (5548) 
16 20
17 23
25 36
26 118
27 126
28 95
29 205
31 34
36 49
37 212
38 212
39 254
40 29
41 106
42 71
43 111
44 114
45 257
46 65
47 9
48 18
49 218
50 455
51 293
52 77
53 132
55 29
56 159
57 455
60 8
61 237
62 288
63 313
64 179
65 121
67 8
68 413
69 453
70 295
73 215
74 382
75 671
76 282
77 91
81 244
82 102
83 222
84 131
85 48
86 62
92 137
93 137
94 343
95 999
96 428
97 165
110 38
111 110
112 215
123 960
124 207
138 3
139 191
140 970
141 266
142 26

$$$$

     RDKit          2D

 12 12  0  0  0  0  0  0  0  0999 V2000
   -4.8803    1.6781    0.0000 C   0  0  0  0  0  0  0  0  0  0  0  0
   -3.5825    2.4302    0.0000 C   0  0  0  0  0  0  0  0  0  0  0  0
    1.6194   -0.5554    0.0000 C   0  0  0  0  0  0  0  0  0  0  0  0
    0.3204    0.1946    0.0000 C   0  0  0  0  0  0  0  0  0  0  0  0
    2.9139    0.1868    0.0000 C   0  0  0  0  0  0  0  0  0  0  0  0
    1.6154    2.4376    0.0000 C   0  0  0  0  0  0  0  0  0  0  0  0
    0.3159    1.6868    0.0000 C   0  0  0  0  0  0  0  0  0  0  0  0
    2.9144    1.6876    0.0000 C   0  0  0  0  0  0  0  0  0  0  0  0
   -0.9844    2.4346    0.0000 C   0  0  0  0  0  0  0  0  0  0  0  0
    4.2136    2.4374    0.0000 F   0  0  0  0  0  0  0  0  0  0  0  0
   -0.9869    3.9346    0.0000 O   0  0  0  0  0  0  0  0  0  0  0  0
   -2.2822    1.6824    0.0000 O   0  0  0  0  0  0  0  0  0  0  0  0
  2  1  1  0
  4  3  2  0
  5  3  1  0
  7  4  1  0
  7  6  2  0
  8  5  2  0
  8  6  1  0
  9  7  1  0
 10  8  1  0
 11  9  2  0
 12  2  1  0
 12  9  1  0
M  END
>  <NAME>  (5549) 
META-FLUOROBENZOIC ACID ETHYL ESTER

>  <SYNONYMS>  (5549) 
ETHYL META-FLUOROBENZOATE

>  <SPECTRUM TYPE>  (5549) 
MS1

>  <INSTRUMENT TYPE>  (5549) 
EI-B

>  <INSTRUMENT>  (5549) 
Unknown

>  <ION MODE>  (5549) 
P

>  <INCHIKEY>  (5549) 
SMMIKBXLEWTSJD-UHFFFAOYSA-N

>  <FORMULA>  (5549) 
C9H9FO2

>  <EXACT MASS>  (5549) 
168.058657748

>  <MW>  (5549) 
168

>  <ID>  (5549) 
JP001005

>  <CONTRIBUTOR>  (5549) 
University of Tokyo Team, {Faculty of Engineering, University of Tokyo

>  <COMMENT>  (5549) 
SMILES=CCOC(=O)c(c1)cc(F)cc1
InChI=InChI=1S/C9H9FO2/c1-2-12-9(11)7-4-3-5-8(10)6-7/h3-6H,2H2,1H3
computed SMILES=O=C(OCC)C=1C=CC=C(F)C1
accession=JP001005
date=2016.01.19 (Created 2008.10.21, modified 2011.05.06)
author=TAJIMA S, GUNMA COLLEGE OF TECHNOLOGY
license=CC BY-NC-SA
exact mass=168.05866
ionization energy=70 eV
ion type=[M]+*
computed spectral entropy=2.172989800728526
computed normalized entropy=0.7029957800701326
SPLASH=splash10-00di-6900000000-9a5de1c782e7fc6a8261
submitter=submitter = University of Tokyo Team (Faculty of Engineering, University of Tokyo)
MoNA Rating=3.75

>  <NUM PEAKS>  (5549) 
22

>  <MASS SPECTRAL PEAKS>  (5549) 
27 6.62
28 2.77
29 9.8
45 7.76
50 3.88
51 2.48
68 1.34
69 2.86
74 1.65
75 15.78
76 1.27
94 2.67
95 48.54
96 4.71
123 99.99
124 9.16
140 33.84
141 2.54
150 2.04
153 1.78
168 10.31
169 0.76

>  <PREDICTED SPECTRUM>  (5549) 
25 5
26 90
27 190
28 24
29 271
31 19
37 61
38 106
39 120
40 9
41 38
43 125
44 60
45 164
49 84
50 259
51 198
52 80
53 67
55 29
56 71
57 137
61 86
62 93
63 60
64 36
65 24
68 140
69 231
70 40
73 72
74 177
75 403
76 173
77 13
82 16
83 95
84 68
85 24
92 0
94 153
95 785
96 276
97 60
122 167
123 999
124 290
125 122
140 607
141 281
142 71
153 125
154 1
168 463
169 168
170 11

$$$$

     RDKit          2D

 10 10  0  0  0  0  0  0  0  0999 V2000
    0.9737   -1.6804    0.0000 C   0  0  0  0  0  0  0  0  0  0  0  0
   -0.3254   -0.9304    0.0000 C   0  0  0  0  0  0  0  0  0  0  0  0
    2.2682   -0.9382    0.0000 C   0  0  0  0  0  0  0  0  0  0  0  0
    0.9696    1.3126    0.0000 C   0  0  0  0  0  0  0  0  0  0  0  0
   -0.3299    0.5618    0.0000 C   0  0  0  0  0  0  0  0  0  0  0  0
    2.2687    0.5626    0.0000 C   0  0  0  0  0  0  0  0  0  0  0  0
   -1.6302    1.3096    0.0000 C   0  0  0  0  0  0  0  0  0  0  0  0
    3.5678    1.3124    0.0000 F   0  0  0  0  0  0  0  0  0  0  0  0
   -1.6327    2.8096    0.0000 O   0  0  0  0  0  0  0  0  0  0  0  0
   -2.9280    0.5574    0.0000 O   0  0  0  0  0  0  0  0  0  0  0  0
  2  1  2  0
  3  1  1  0
  5  2  1  0
  5  4  2  0
  6  3  2  0
  6  4  1  0
  7  5  1  0
  8  6  1  0
  9  7  2  0
 10  7  1  0
M  END
>  <NAME>  (5550) 
META-FLUOROBENZOIC ACID

>  <SYNONYMS>  (5550) 


>  <SPECTRUM TYPE>  (5550) 
MS1

>  <INSTRUMENT TYPE>  (5550) 
EI-B

>  <INSTRUMENT>  (5550) 
HITACHI RMU-7M

>  <ION MODE>  (5550) 
P

>  <INCHIKEY>  (5550) 
MXNBDFWNYRNIBH-UHFFFAOYSA-N

>  <FORMULA>  (5550) 
C7H5FO2

>  <EXACT MASS>  (5550) 
140.02735762

>  <MW>  (5550) 
140

>  <ID>  (5550) 
JP001004

>  <CONTRIBUTOR>  (5550) 
University of Tokyo Team, {Faculty of Engineering, University of Tokyo

>  <COMMENT>  (5550) 
SMILES=OC(=O)c(c1)cc(F)cc1
InChI=InChI=1S/C7H5FO2/c8-6-3-1-2-5(4-6)7(9)10/h1-4H,(H,9,10)
computed SMILES=O=C(O)C=1C=CC=C(F)C1
accession=JP001004
date=2016.01.19 (Created 2008.10.21, modified 2011.05.06)
author=TAJIMA S, GUNMA COLLEGE OF TECHNOLOGY
license=CC BY-NC-SA
exact mass=140.02736
ionization energy=70 eV
ion type=[M]+*
computed spectral entropy=2.499735666512251
computed normalized entropy=0.703091687024605
SPLASH=splash10-00dm-9800000000-bcd947f71235a27b2fc8
submitter=submitter = University of Tokyo Team (Faculty of Engineering, University of Tokyo)
MoNA Rating=3.75

>  <NUM PEAKS>  (5550) 
35

>  <MASS SPECTRAL PEAKS>  (5550) 
27 1
28 2.77
31 2.09
37 2.72
38 2.56
39 3.55
45 4.29
47.5 2.25
49 1.88
50 13.23
51 5.85
56 2.14
57 4.08
61 1.83
61.5 2.14
62 2.09
63 2.61
68 4.81
69 6.69
70 5.91
73 1.57
74 6.38
75 25.35
76 3.03
83 2.14
92 1.46
93 1.57
94 5.75
95 72.66
96 8.52
112 2.2
123 99.99
124 7.42
140 78.25
141 5.91

>  <PREDICTED SPECTRUM>  (5550) 
16 17
17 22
25 25
26 70
31 62
33 22
35 14
36 105
37 214
38 211
39 189
40 20
41 52
42 36
43 68
44 133
45 317
46 80
47 15
48 40
49 236
50 448
51 283
52 88
53 104
54 3
55 32
56 168
57 398
61 240
62 323
63 364
64 199
65 52
67 6
68 378
69 406
70 230
73 115
74 328
75 614
76 311
77 142
80 2
81 267
82 20
83 222
84 127
85 42
86 87
87 43
92 118
93 108
94 352
95 771
96 394
97 139
98 7
99 45
111 28
112 177
113 12
114 7
122 100
123 882
124 193
139 87
140 999
141 304
142 28

$$$$

     RDKit          2D

 10 10  0  0  0  0  0  0  0  0999 V2000
    2.9118   -0.1743    0.0000 C   0  0  0  0  0  0  0  0  0  0  0  0
    2.9163    1.3179    0.0000 C   0  0  0  0  0  0  0  0  0  0  0  0
    1.6128   -0.9243    0.0000 C   0  0  0  0  0  0  0  0  0  0  0  0
    1.6168    2.0687    0.0000 C   0  0  0  0  0  0  0  0  0  0  0  0
    0.3183   -0.1821    0.0000 C   0  0  0  0  0  0  0  0  0  0  0  0
    0.3178    1.3187    0.0000 C   0  0  0  0  0  0  0  0  0  0  0  0
   -0.9795   -0.9343    0.0000 C   0  0  0  0  0  0  0  0  0  0  0  0
   -0.9814    2.0685    0.0000 F   0  0  0  0  0  0  0  0  0  0  0  0
   -2.2798   -0.1865    0.0000 O   0  0  0  0  0  0  0  0  0  0  0  0
   -0.9770   -2.4343    0.0000 O   0  0  0  0  0  0  0  0  0  0  0  0
  2  1  2  0
  3  1  1  0
  4  2  1  0
  5  3  2  0
  6  4  2  0
  6  5  1  0
  7  5  1  0
  8  6  1  0
  9  7  2  0
 10  7  1  0
M  END
>  <NAME>  (5551) 
ORTHO-FLUOROBENZOIC ACID

>  <SYNONYMS>  (5551) 


>  <SPECTRUM TYPE>  (5551) 
MS1

>  <INSTRUMENT TYPE>  (5551) 
EI-B

>  <INSTRUMENT>  (5551) 
HITACHI RMU-7M

>  <ION MODE>  (5551) 
P

>  <INCHIKEY>  (5551) 
NSTREUWFTAOOKS-UHFFFAOYSA-N

>  <FORMULA>  (5551) 
C7H5FO2

>  <EXACT MASS>  (5551) 
140.02735762

>  <MW>  (5551) 
140

>  <ID>  (5551) 
JP001003

>  <CONTRIBUTOR>  (5551) 
University of Tokyo Team, {Faculty of Engineering, University of Tokyo

>  <COMMENT>  (5551) 
SMILES=OC(=O)c(c1)c(F)ccc1
InChI=InChI=1S/C7H5FO2/c8-6-4-2-1-3-5(6)7(9)10/h1-4H,(H,9,10)
computed SMILES=O=C(O)C=1C=CC=CC1F
accession=JP001003
date=2016.01.19 (Created 2008.10.21, modified 2011.05.06)
author=TAJIMA S, GUNMA COLLEGE OF TECHNOLOGY
license=CC BY-NC-SA
exact mass=140.02736
ionization energy=70 eV
ion type=[M]+*
computed spectral entropy=2.464907083215418
computed normalized entropy=0.7049626062245963
SPLASH=splash10-00dl-7900000000-5f127250a62e47ac459c
submitter=submitter = University of Tokyo Team (Faculty of Engineering, University of Tokyo)
MoNA Rating=3.75

>  <NUM PEAKS>  (5551) 
33

>  <MASS SPECTRAL PEAKS>  (5551) 
27 1.06
31 1.41
37 2.18
38 2.04
39 3.38
45 3.03
50 11.62
51 4.79
56 1.97
57 2.82
61 1.41
61.5 2.18
62 1.55
63 2.75
64 2.18
65 1.27
68 4.23
69 5.49
70 4.79
74 5.49
75 20.99
76 6.13
92 3.38
93 2.04
94 3.73
95 46.55
96 5.7
112 1.41
120 2.11
123 99.99
124 7.54
140 69.01
141 7.04

>  <PREDICTED SPECTRUM>  (5551) 
16 18
17 0
25 35
26 88
27 48
28 12
29 47
36 54
37 181
38 184
39 186
40 26
41 66
43 86
44 160
45 226
46 40
47 40
48 54
49 210
50 425
51 287
52 114
53 107
54 1
55 18
56 110
57 353
58 12
60 80
61 288
62 286
63 317
64 150
65 171
68 340
69 392
70 255
71 2
73 96
74 320
75 601
76 351
77 178
80 2
81 244
83 159
84 69
85 88
86 71
87 25
92 266
93 192
94 360
95 740
96 393
97 183
98 23
99 9
112 102
113 24
120 73
122 278
123 999
124 143
139 4
140 884
141 271

$$$$

     RDKit          2D

 12 12  0  0  0  0  0  0  0  0999 V2000
   -4.8803    1.6781    0.0000 C   0  0  0  0  0  0  0  0  0  0  0  0
   -3.5825    2.4302    0.0000 C   0  0  0  0  0  0  0  0  0  0  0  0
    1.6194   -0.5554    0.0000 C   0  0  0  0  0  0  0  0  0  0  0  0
    0.3204    0.1946    0.0000 C   0  0  0  0  0  0  0  0  0  0  0  0
    2.9139    0.1868    0.0000 C   0  0  0  0  0  0  0  0  0  0  0  0
    1.6154    2.4376    0.0000 C   0  0  0  0  0  0  0  0  0  0  0  0
    0.3159    1.6868    0.0000 C   0  0  0  0  0  0  0  0  0  0  0  0
    2.9144    1.6876    0.0000 C   0  0  0  0  0  0  0  0  0  0  0  0
   -0.9844    2.4346    0.0000 C   0  0  0  0  0  0  0  0  0  0  0  0
    4.2136    2.4374    0.0000 N   0  0  0  0  0  0  0  0  0  0  0  0
   -0.9869    3.9346    0.0000 O   0  0  0  0  0  0  0  0  0  0  0  0
   -2.2822    1.6824    0.0000 O   0  0  0  0  0  0  0  0  0  0  0  0
  2  1  1  0
  4  3  2  0
  5  3  1  0
  7  4  1  0
  7  6  2  0
  8  5  2  0
  8  6  1  0
  9  7  1  0
 10  8  1  0
 11  9  2  0
 12  2  1  0
 12  9  1  0
M  END
>  <NAME>  (5552) 
META-AMINOBENZOIC ACID ETHYL ESTER

>  <SYNONYMS>  (5552) 
ETHYL META-AMINOBENZOATE

>  <SPECTRUM TYPE>  (5552) 
MS1

>  <INSTRUMENT TYPE>  (5552) 
EI-B

>  <INSTRUMENT>  (5552) 
HITACHI RMU-7M

>  <ION MODE>  (5552) 
P

>  <INCHIKEY>  (5552) 
ZMCBYSBVJIMENC-UHFFFAOYSA-N

>  <FORMULA>  (5552) 
C9H11NO2

>  <EXACT MASS>  (5552) 
165.078978592

>  <MW>  (5552) 
165

>  <ID>  (5552) 
JP001002

>  <CONTRIBUTOR>  (5552) 
University of Tokyo Team, {Faculty of Engineering, University of Tokyo

>  <COMMENT>  (5552) 
SMILES=CCOC(=O)c(c1)cc(N)cc1
InChI=InChI=1S/C9H11NO2/c1-2-12-9(11)7-4-3-5-8(10)6-7/h3-6H,2,10H2,1H3
computed SMILES=O=C(OCC)C=1C=CC=C(N)C1
accession=JP001002
date=2016.01.19 (Created 2008.10.21, modified 2011.05.06)
author=TAJIMA S, GUNMA COLLEGE OF TECHNOLOGY
license=CC BY-NC-SA
exact mass=165.07898
ionization energy=70 eV
ion type=[M]+*
computed spectral entropy=2.5799315958000877
computed normalized entropy=0.7444109038187072
SPLASH=splash10-01bc-8900000000-bf2dac372aedc49840de
submitter=submitter = University of Tokyo Team (Faculty of Engineering, University of Tokyo)
MoNA Rating=3.75

>  <NUM PEAKS>  (5552) 
32

>  <MASS SPECTRAL PEAKS>  (5552) 
27 6.13
28 4.53
29 6.33
38 2.72
39 14.85
40 1.43
41 4.5
42 1.36
43 1.36
46 3.27
50 1.23
51 1.23
52 3.41
60 4.09
62 1.5
63 6.06
64 6.13
65 42.44
66 7.08
91 7.36
92 78.54
93 36.99
94 2.59
109 1.7
119 1.98
120 99.99
121 16.42
137 30.99
138 2.25
150 4.29
165 80.52
166 8.04

>  <PREDICTED SPECTRUM>  (5552) 
14 15
15 65
25 4
26 63
27 171
28 62
29 202
36 19
37 132
38 212
39 410
40 141
41 228
42 110
43 71
44 77
45 159
46 24
49 38
50 171
51 199
52 237
53 177
54 57
55 4
61 72
62 180
63 322
64 343
65 563
66 232
67 63
73 58
74 63
75 95
76 2
77 59
78 13
79 100
80 107
81 23
82 3
90 177
91 334
92 643
93 368
94 78
104 27
106 48
107 18
108 77
109 71
118 31
119 221
120 999
121 356
122 13
134 39
136 185
137 679
138 244
139 34
150 123
151 57
165 704
166 218
167 43

$$$$

     RDKit          2D

 12 12  0  0  0  0  0  0  0  0999 V2000
   -2.5989    0.7492    0.0000 C   0  0  0  0  0  0  0  0  0  0  0  0
   -1.2998   -0.0006    0.0000 C   0  0  0  0  0  0  0  0  0  0  0  0
    2.5972    2.2500    0.0000 C   0  0  0  0  0  0  0  0  0  0  0  0
    3.8972   -0.0000    0.0000 C   0  0  0  0  0  0  0  0  0  0  0  0
    3.8972    3.0000    0.0000 C   0  0  0  0  0  0  0  0  0  0  0  0
    5.1972    0.7500    0.0000 C   0  0  0  0  0  0  0  0  0  0  0  0
    2.5972    0.7500    0.0000 C   0  0  0  0  0  0  0  0  0  0  0  0
    5.1972    2.2500    0.0000 C   0  0  0  0  0  0  0  0  0  0  0  0
    1.2983   -0.0002    0.0000 C   0  0  0  0  0  0  0  0  0  0  0  0
    6.4962    3.0002    0.0000 F   0  0  0  0  0  0  0  0  0  0  0  0
    1.2986   -1.5002    0.0000 O   0  0  0  0  0  0  0  0  0  0  0  0
   -0.0008    0.7496    0.0000 O   0  0  0  0  0  0  0  0  0  0  0  0
  2  1  1  0
  5  3  2  0
  6  4  1  0
  7  3  1  0
  7  4  2  0
  8  5  1  0
  8  6  2  0
  9  7  1  0
 10  8  1  0
 11  9  2  0
 12  2  1  0
 12  9  1  0
M  END
>  <NAME>  (5553) 
PARA-FLUOROBENZOIC ACID ETHYL ESTER

>  <SYNONYMS>  (5553) 
ETHYL PARA-FLUOROBENZOATE

>  <SPECTRUM TYPE>  (5553) 
MS1

>  <INSTRUMENT TYPE>  (5553) 
EI-B

>  <INSTRUMENT>  (5553) 
HITACHI RMU-7M

>  <ION MODE>  (5553) 
P

>  <INCHIKEY>  (5553) 
UMPRJGKLMUDRHL-UHFFFAOYSA-N

>  <FORMULA>  (5553) 
C9H9FO2

>  <EXACT MASS>  (5553) 
168.058657748

>  <MW>  (5553) 
168

>  <ID>  (5553) 
JP001001

>  <CONTRIBUTOR>  (5553) 
University of Tokyo Team, {Faculty of Engineering, University of Tokyo

>  <COMMENT>  (5553) 
SMILES=CCOC(=O)c(c1)ccc(F)c1
InChI=InChI=1S/C9H9FO2/c1-2-12-9(11)7-3-5-8(10)6-4-7/h3-6H,2H2,1H3
computed SMILES=O=C(OCC)C1=CC=C(F)C=C1
accession=JP001001
date=2016.01.19 (Created 2008.10.21, modified 2011.05.06)
author=TAJIMA S, GUNMA COLLEGE OF TECHNOLOGY
license=CC BY-NC-SA
exact mass=168.05866
ionization energy=70 eV
ion type=[M]+*
computed spectral entropy=2.0932433997786215
computed normalized entropy=0.6675960010209506
SPLASH=splash10-00di-5900000000-77d87ae4890959208fbc
submitter=submitter = University of Tokyo Team (Faculty of Engineering, University of Tokyo)
MoNA Rating=3.75

>  <NUM PEAKS>  (5553) 
23

>  <MASS SPECTRAL PEAKS>  (5553) 
27 3
28 10.38
29 3.83
32 2.11
45 3.33
50 2.89
51 1.78
68 1.16
69 2.22
74 1.16
75 13.21
76 1.11
94 2.22
95 36.63
96 2.83
123 99.99
124 9.04
140 27.75
141 2.66
153 1.17
167 1.11
168 8.27
169 1.11

>  <PREDICTED SPECTRUM>  (5553) 
14 0
26 85
27 188
28 13
29 248
31 17
37 51
38 92
39 107
41 15
43 89
44 44
45 181
49 43
50 227
51 170
52 51
53 57
56 15
57 124
61 62
62 74
63 60
64 31
65 8
68 108
69 131
70 3
73 25
74 180
75 364
76 152
77 3
82 11
83 55
84 51
93 19
94 178
95 724
96 250
97 56
100 15
121 77
122 136
123 999
124 291
125 103
140 637
141 266
142 36
153 162
154 22
168 459
169 160
170 8

$$$$

     RDKit          2D

 16 16  0  0  0  0  0  0  0  0999 V2000
   -7.7951    1.5010    0.0000 C   0  0  0  0  0  0  0  0  0  0  0  0
   -6.4964   -0.7492    0.0000 C   0  0  0  0  0  0  0  0  0  0  0  0
   -1.3000   -0.7500    0.0000 C   0  0  0  0  0  0  0  0  0  0  0  0
    0.0000    1.5000    0.0000 C   0  0  0  0  0  0  0  0  0  0  0  0
    0.0000   -1.5000    0.0000 C   0  0  0  0  0  0  0  0  0  0  0  0
    1.3000    0.7500    0.0000 C   0  0  0  0  0  0  0  0  0  0  0  0
   -5.1970    1.5006    0.0000 C   0  0  0  0  0  0  0  0  0  0  0  0
   -6.4962    0.7508    0.0000 C   0  0  0  0  0  0  0  0  0  0  0  0
   -1.3000    0.7500    0.0000 C   0  0  0  0  0  0  0  0  0  0  0  0
    1.3000   -0.7500    0.0000 C   0  0  0  0  0  0  0  0  0  0  0  0
   -2.5989    1.5002    0.0000 C   0  0  0  0  0  0  0  0  0  0  0  0
    2.5989   -1.5002    0.0000 N   0  0  0  0  0  0  0  0  0  0  0  0
   -2.5987    3.0002    0.0000 O   0  0  0  0  0  0  0  0  0  0  0  0
    3.8981   -0.7504    0.0000 O   0  0  0  0  0  0  0  0  0  0  0  0
    2.5987   -3.0002    0.0000 O   0  0  0  0  0  0  0  0  0  0  0  0
   -3.8981    0.7504    0.0000 O   0  0  0  0  0  0  0  0  0  0  0  0
  5  3  2  0
  6  4  1  0
  8  1  1  0
  8  2  1  0
  8  7  1  0
  9  3  1  0
  9  4  2  0
 10  5  1  0
 10  6  2  0
 11  9  1  0
 12 10  1  0
 13 11  2  0
 14 12  1  0
 15 12  2  0
 16  7  1  0
 16 11  1  0
M  CHG  2  12   1  14  -1
M  END
>  <NAME>  (5554) 
PARA-NITROBENZOIC ACID ISOBUTYL ESTER

>  <SYNONYMS>  (5554) 
ISOBUTYL PARA-NITROBENZOATE

>  <SPECTRUM TYPE>  (5554) 
MS1

>  <INSTRUMENT TYPE>  (5554) 
EI-B

>  <INSTRUMENT>  (5554) 
HITACHI RMU-7M

>  <ION MODE>  (5554) 
P

>  <INCHIKEY>  (5554) 
DCZWILGYHRWANR-UHFFFAOYSA-N

>  <FORMULA>  (5554) 
C11H13NO4

>  <EXACT MASS>  (5554) 
223.08445789599998

>  <MW>  (5554) 
223

>  <ID>  (5554) 
JP001000

>  <CONTRIBUTOR>  (5554) 
University of Tokyo Team, {Faculty of Engineering, University of Tokyo

>  <COMMENT>  (5554) 
SMILES=CC(C)COC(=O)c(c1)ccc(c1)[N+1]([O-1])=O
InChI=InChI=1S/C11H13NO4/c1-8(2)7-16-11(13)9-3-5-10(6-4-9)12(14)15/h3-6,8H,7H2,1-2H3
computed SMILES=O=C(OCC(C)C)C1=CC=C(C=C1)N(=O)=O
accession=JP001000
date=2016.01.19 (Created 2008.10.21, modified 2011.05.06)
author=TAJIMA S, GUNMA COLLEGE OF TECHNOLOGY
license=CC BY-NC-SA
exact mass=223.08446
ionization energy=70 eV
ion type=[M]+*
computed spectral entropy=2.6623558142584023
computed normalized entropy=0.7614328776517149
SPLASH=splash10-0zfr-9500000000-86bdfe4a4f48df333fd7
submitter=submitter = University of Tokyo Team (Faculty of Engineering, University of Tokyo)
MoNA Rating=3.75

>  <NUM PEAKS>  (5554) 
33

>  <MASS SPECTRAL PEAKS>  (5554) 
27 3.54
28 1.81
29 7.24
39 5.67
41 18.5
42 2.36
43 7.56
50 10.63
51 1.81
55 4.09
56 99.99
57 9.45
63 1.57
64 2.91
65 6.85
73 2.36
74 2.99
75 7.87
76 24.65
77 2.36
92 13.94
93 2.36
103 1.73
104 27
105 2.36
120 13.23
121 5.67
122 1.26
134 3.86
150 80
151 11.18
152 1.57
168 3.78

>  <PREDICTED SPECTRUM>  (5554) 
14 7
15 6
19 1
25 13
26 83
27 229
28 157
29 313
30 218
31 84
36 61
37 79
38 151
39 273
40 134
41 464
42 134
43 356
44 156
45 38
46 5
49 101
50 368
51 226
52 98
53 138
54 119
55 314
56 742
57 429
58 108
59 36
60 21
61 11
62 106
63 190
64 165
65 284
66 93
67 15
69 64
71 1
73 105
74 199
75 333
76 504
77 210
78 58
79 101
81 61
82 18
83 2
90 44
92 338
93 148
94 40
95 70
103 85
104 552
105 207
107 25
109 26
119 28
120 254
121 223
122 266
123 84
134 299
135 113
136 6
137 199
150 999
151 462
152 208
167 122
168 386
169 173
170 42

$$$$

     RDKit          2D

 15 15  0  0  0  0  0  0  0  0999 V2000
   -3.8978   -0.7512    0.0000 C   0  0  0  0  0  0  0  0  0  0  0  0
   -2.5992    1.4990    0.0000 C   0  0  0  0  0  0  0  0  0  0  0  0
    5.1972   -0.0002    0.0000 C   0  0  0  0  0  0  0  0  0  0  0  0
    3.8972    2.2498    0.0000 C   0  0  0  0  0  0  0  0  0  0  0  0
    3.8972   -0.7502    0.0000 C   0  0  0  0  0  0  0  0  0  0  0  0
    2.5972    1.4998    0.0000 C   0  0  0  0  0  0  0  0  0  0  0  0
    6.4962    2.2500    0.0000 C   0  0  0  0  0  0  0  0  0  0  0  0
   -1.2998   -0.7508    0.0000 C   0  0  0  0  0  0  0  0  0  0  0  0
   -2.5989   -0.0010    0.0000 C   0  0  0  0  0  0  0  0  0  0  0  0
    5.1972    1.4998    0.0000 C   0  0  0  0  0  0  0  0  0  0  0  0
    2.5972   -0.0002    0.0000 C   0  0  0  0  0  0  0  0  0  0  0  0
    1.2983   -0.7504    0.0000 C   0  0  0  0  0  0  0  0  0  0  0  0
    7.7951    3.0002    0.0000 N   0  0  0  0  0  0  0  0  0  0  0  0
    1.2986   -2.2504    0.0000 O   0  0  0  0  0  0  0  0  0  0  0  0
   -0.0008   -0.0006    0.0000 O   0  0  0  0  0  0  0  0  0  0  0  0
  5  3  2  0
  6  4  1  0
  9  1  1  0
  9  2  1  0
  9  8  1  0
 10  3  1  0
 10  4  2  0
 10  7  1  0
 11  5  1  0
 11  6  2  0
 12 11  1  0
 13  7  3  0
 14 12  2  0
 15  8  1  0
 15 12  1  0
M  END
>  <NAME>  (5555) 
PARA-CYANOBENZOIC ACID ISOBUTYL ESTER

>  <SYNONYMS>  (5555) 
ISOBUTYL PARA-CYANOBENZOATE

>  <SPECTRUM TYPE>  (5555) 
MS1

>  <INSTRUMENT TYPE>  (5555) 
EI-B

>  <INSTRUMENT>  (5555) 
HITACHI RMU-7M

>  <ION MODE>  (5555) 
P

>  <INCHIKEY>  (5555) 
RYFXHNFLVQQUPO-UHFFFAOYSA-N

>  <FORMULA>  (5555) 
C12H13NO2

>  <EXACT MASS>  (5555) 
203.094628656

>  <MW>  (5555) 
203

>  <ID>  (5555) 
JP000999

>  <CONTRIBUTOR>  (5555) 
University of Tokyo Team, {Faculty of Engineering, University of Tokyo

>  <COMMENT>  (5555) 
SMILES=N#Cc(c1)ccc(c1)C(=O)OCC(C)C
InChI=InChI=1S/C12H13NO2/c1-9(2)8-15-12(14)11-5-3-10(7-13)4-6-11/h3-6,9H,8H2,1-2H3
computed SMILES=N#CC1=CC=C(C=C1)C(=O)OCC(C)C
accession=JP000999
date=2016.01.19 (Created 2008.10.21, modified 2011.05.06)
author=TAJIMA S, GUNMA COLLEGE OF TECHNOLOGY
license=CC BY-NC-SA
exact mass=203.09463
ionization energy=70 eV
ion type=[M]+*
computed spectral entropy=2.2601046837236236
computed normalized entropy=0.6857453131360947
SPLASH=splash10-053r-8900000000-d71280c8ff88dd9363fd
submitter=submitter = University of Tokyo Team (Faculty of Engineering, University of Tokyo)
MoNA Rating=3.75

>  <NUM PEAKS>  (5555) 
27

>  <MASS SPECTRAL PEAKS>  (5555) 
27 4.36
28 1.06
29 4.79
31 1.06
39 4.31
41 13.15
42 2.45
43 6.33
50 3.19
51 5.32
52 1.06
55 2.77
56 80.95
57 6.28
73 2.24
74 1.17
75 8.04
76 5.38
101 1.01
102 34.59
103 5.85
104 1.33
130 99.99
131 9.58
135 1.06
148 10.22
149 1.54

>  <PREDICTED SPECTRUM>  (5555) 
25 5
26 95
27 194
28 153
29 312
30 55
31 99
36 29
37 27
38 50
39 185
40 72
41 325
42 114
43 208
44 80
49 46
50 156
51 185
52 94
53 86
54 65
55 275
56 674
57 269
58 3
62 24
63 18
64 16
69 163
73 125
74 91
75 229
76 230
77 74
87 26
95 13
100 2
101 194
102 619
103 275
104 97
105 9
129 19
130 999
131 336
132 56
147 160
148 361
149 64
160 11
203 4

$$$$

     RDKit          2D

 11 11  0  0  0  0  0  0  0  0999 V2000
   -1.3000    0.7500    0.0000 C   0  0  0  0  0  0  0  0  0  0  0  0
   -0.0000   -1.5000    0.0000 C   0  0  0  0  0  0  0  0  0  0  0  0
    0.0000    1.5000    0.0000 C   0  0  0  0  0  0  0  0  0  0  0  0
    1.3000   -0.7500    0.0000 C   0  0  0  0  0  0  0  0  0  0  0  0
   -2.5989   -1.5002    0.0000 C   0  0  0  0  0  0  0  0  0  0  0  0
   -1.3000   -0.7500    0.0000 C   0  0  0  0  0  0  0  0  0  0  0  0
    1.3000    0.7500    0.0000 C   0  0  0  0  0  0  0  0  0  0  0  0
    2.5989    1.5002    0.0000 C   0  0  0  0  0  0  0  0  0  0  0  0
   -3.8978   -2.2504    0.0000 N   0  0  0  0  0  0  0  0  0  0  0  0
    3.8981    0.7504    0.0000 O   0  0  0  0  0  0  0  0  0  0  0  0
    2.5987    3.0002    0.0000 O   0  0  0  0  0  0  0  0  0  0  0  0
  3  1  2  0
  4  2  1  0
  6  1  1  0
  6  2  2  0
  6  5  1  0
  7  3  1  0
  7  4  2  0
  8  7  1  0
  9  5  3  0
 10  8  1  0
 11  8  2  0
M  END
>  <NAME>  (5556) 
PARA-CYANOBENZOIC ACID

>  <SYNONYMS>  (5556) 


>  <SPECTRUM TYPE>  (5556) 
MS1

>  <INSTRUMENT TYPE>  (5556) 
EI-B

>  <INSTRUMENT>  (5556) 
HITACHI RMU-7M

>  <ION MODE>  (5556) 
P

>  <INCHIKEY>  (5556) 
ADCUEPOHPCPMCE-UHFFFAOYSA-N

>  <FORMULA>  (5556) 
C8H5NO2

>  <EXACT MASS>  (5556) 
147.0320284

>  <MW>  (5556) 
147

>  <ID>  (5556) 
JP000998

>  <CONTRIBUTOR>  (5556) 
University of Tokyo Team, {Faculty of Engineering, University of Tokyo

>  <COMMENT>  (5556) 
SMILES=N#Cc(c1)ccc(c1)C(O)=O
InChI=InChI=1S/C8H5NO2/c9-5-6-1-3-7(4-2-6)8(10)11/h1-4H,(H,10,11)
computed SMILES=N#CC1=CC=C(C=C1)C(=O)O
accession=JP000998
date=2016.01.19 (Created 2008.10.21, modified 2011.05.06)
author=TAJIMA S, GUNMA COLLEGE OF TECHNOLOGY
license=CC BY-NC-SA
exact mass=147.03203
ionization energy=70 eV
ion type=[M]+*
computed spectral entropy=2.30209294302515
computed normalized entropy=0.7151853840523379
SPLASH=splash10-0f8a-3900000000-418d21ad5a0f6a34519d
submitter=submitter = University of Tokyo Team (Faculty of Engineering, University of Tokyo)
MoNA Rating=3.75

>  <NUM PEAKS>  (5556) 
25

>  <MASS SPECTRAL PEAKS>  (5556) 
27 2.2
28 4.62
37 1.81
38 1.98
39 2.86
45 2.58
50 14.45
51 12.42
52 2.69
63 2.03
64 1.37
65 2.64
74 3.57
75 17.03
76 14.78
77 1.15
101 1.43
102 51.87
103 5.16
119 3.02
120 3.57
130 99.99
131 8.24
147 55.27
148 4.4

>  <PREDICTED SPECTRUM>  (5556) 
14 26
15 49
16 31
17 46
18 58
25 72
26 176
27 279
28 304
29 279
30 191
31 35
32 13
33 1
34 9
35 4
36 168
37 360
38 411
39 371
40 185
41 200
42 37
44 283
45 345
46 177
48 50
49 283
50 669
51 668
52 376
53 294
54 46
55 211
56 49
60 37
61 261
62 305
63 204
64 274
65 166
66 82
68 18
69 244
70 56
73 237
74 505
75 698
76 590
77 94
78 2
79 57
84 54
86 26
89 86
90 50
91 159
92 123
98 14
99 10
101 296
102 880
103 411
104 252
117 76
119 210
120 155
130 999
131 215
146 142
147 979
148 273
149 23

$$$$

     RDKit          2D

 15 15  0  0  0  0  0  0  0  0999 V2000
   -4.5417    2.6398    0.0000 C   0  0  0  0  0  0  0  0  0  0  0  0
   -3.2538    0.3834    0.0000 C   0  0  0  0  0  0  0  0  0  0  0  0
    7.1567    0.3603    0.0000 C   0  0  0  0  0  0  0  0  0  0  0  0
    3.2487    2.6078    0.0000 C   0  0  0  0  0  0  0  0  0  0  0  0
    1.9352    0.3830    0.0000 C   0  0  0  0  0  0  0  0  0  0  0  0
    4.5332    1.8830    0.0000 C   0  0  0  0  0  0  0  0  0  0  0  0
    3.2597   -0.4112    0.0000 C   0  0  0  0  0  0  0  0  0  0  0  0
   -1.9437    2.6270    0.0000 C   0  0  0  0  0  0  0  0  0  0  0  0
   -3.2464    1.8834    0.0000 C   0  0  0  0  0  0  0  0  0  0  0  0
    1.9497    1.8578    0.0000 C   0  0  0  0  0  0  0  0  0  0  0  0
    4.5587    0.3388    0.0000 C   0  0  0  0  0  0  0  0  0  0  0  0
    0.6544    2.6142    0.0000 C   0  0  0  0  0  0  0  0  0  0  0  0
    0.6617    4.1142    0.0000 O   0  0  0  0  0  0  0  0  0  0  0  0
    5.8639   -0.4004    0.0000 O   0  0  0  0  0  0  0  0  0  0  0  0
   -0.6484    1.8706    0.0000 O   0  0  0  0  0  0  0  0  0  0  0  0
  6  4  2  0
  7  5  1  0
  9  1  1  0
  9  2  1  0
  9  8  1  0
 10  4  1  0
 10  5  2  0
 11  6  1  0
 11  7  2  0
 12 10  1  0
 13 12  2  0
 14  3  1  0
 14 11  1  0
 15  8  1  0
 15 12  1  0
M  END
>  <NAME>  (5557) 
PARA-METHOXYBENZOIC ACID ISOBUTYL ESTER

>  <SYNONYMS>  (5557) 
ISOBUTYL PARA-METHOXYBENZOATE

>  <SPECTRUM TYPE>  (5557) 
MS1

>  <INSTRUMENT TYPE>  (5557) 
EI-B

>  <INSTRUMENT>  (5557) 
HITACHI RMU-7M

>  <ION MODE>  (5557) 
P

>  <INCHIKEY>  (5557) 
HQYSDZUOGBUYJA-UHFFFAOYSA-N

>  <FORMULA>  (5557) 
C12H16O3

>  <EXACT MASS>  (5557) 
208.109944372

>  <MW>  (5557) 
208

>  <ID>  (5557) 
JP000997

>  <CONTRIBUTOR>  (5557) 
University of Tokyo Team, {Faculty of Engineering, University of Tokyo

>  <COMMENT>  (5557) 
SMILES=COc(c1)ccc(c1)C(=O)OCC(C)C
InChI=InChI=1S/C12H16O3/c1-9(2)8-15-12(13)10-4-6-11(14-3)7-5-10/h4-7,9H,8H2,1-3H3
computed SMILES=O=C(OCC(C)C)C1=CC=C(OC)C=C1
accession=JP000997
date=2016.01.19 (Created 2008.10.21, modified 2011.05.06)
author=TAJIMA S, GUNMA COLLEGE OF TECHNOLOGY
license=CC BY-NC-SA
exact mass=208.10994
ionization energy=70 eV
ion type=[M]+*
computed spectral entropy=2.1798205951820058
computed normalized entropy=0.6541677104528597
SPLASH=splash10-0f79-3900000000-e7e6d59561043f2affd8
submitter=submitter = University of Tokyo Team (Faculty of Engineering, University of Tokyo)
MoNA Rating=3.75

>  <NUM PEAKS>  (5557) 
28

>  <MASS SPECTRAL PEAKS>  (5557) 
27 2.49
28 2.18
29 4.98
39 2.8
41 5.91
42 1.24
43 2.8
50 1.87
51 1.24
56 2.18
57 2.05
63 2.99
64 5.47
65 1.37
76 1.87
77 13.81
78 1.37
92 8.71
93 1
107 8.21
108 1.06
135 99.99
136 9.64
137 1.12
152 68.41
153 9.2
208 4.29
209 0.62

>  <PREDICTED SPECTRUM>  (5557) 
14 18
15 62
17 8
25 14
26 68
27 205
28 102
29 293
31 20
36 20
37 69
38 138
39 207
40 70
41 325
42 107
43 141
44 38
49 29
50 189
51 175
52 90
53 98
54 40
55 97
56 211
57 81
61 23
62 107
63 238
64 245
65 139
66 46
73 40
74 92
75 123
76 197
77 449
78 162
79 144
80 21
81 58
89 32
90 21
91 73
92 345
93 34
94 14
103 81
104 166
105 244
106 111
107 365
108 164
109 111
119 69
120 63
121 19
122 44
123 146
124 30
133 79
134 60
135 999
136 323
137 144
138 10
149 17
151 40
152 977
153 439
154 87
208 281
209 95

$$$$

     RDKit          2D

 15 14  0  0  0  0  0  0  0  0999 V2000
   -4.2219    0.1875    0.0000 C   0  0  0  0  0  0  0  0  0  0  0  0
   -1.6238    0.1875    0.0000 C   0  0  0  0  0  0  0  0  0  0  0  0
   -0.3248    5.4375    0.0000 C   0  0  0  0  0  0  0  0  0  0  0  0
    0.4252    4.1385    0.0000 H   0  0  0  0  0  0  0  0  0  0  0  0
    0.9743    6.1875    0.0000 H   0  0  0  0  0  0  0  0  0  0  0  0
   -1.0748    6.7365    0.0000 H   0  0  0  0  0  0  0  0  0  0  0  0
   -2.9228    5.4375    0.0000 C   0  0  0  0  0  0  0  0  0  0  0  0
   -2.1728    6.7365    0.0000 H   0  0  0  0  0  0  0  0  0  0  0  0
   -4.2219    6.1875    0.0000 H   0  0  0  0  0  0  0  0  0  0  0  0
   -3.6728    4.1385    0.0000 H   0  0  0  0  0  0  0  0  0  0  0  0
   -2.9228    0.9375    0.0000 C   0  0  0  0  0  0  0  0  0  0  0  0
   -1.6238    4.6875    0.0000 C   0  0  0  0  0  0  0  0  0  0  0  0
   -2.9228    2.4375    0.0000 C   0  0  0  0  0  0  0  0  0  0  0  0
   -4.2219    3.1875    0.0000 O   0  0  0  0  0  0  0  0  0  0  0  0
   -1.6238    3.1875    0.0000 O   0  0  0  0  0  0  0  0  0  0  0  0
  3  4  1  0
  3  5  1  0
  3  6  1  0
  7  8  1  0
  7  9  1  0
  7 10  1  0
 11  1  2  0
 11  2  1  0
 12  3  1  0
 12  7  1  0
 13 11  1  0
 14 13  2  0
 15 12  1  0
 15 13  1  0
M  ISO  6   4   2   5   2   6   2   8   2   9   2  10   2
M  END
>  <NAME>  (5558) 
METHACRYLIC ACID ISOPROPYL ESTER-D6

>  <SYNONYMS>  (5558) 
ISOPROPYL METHACRYLATE-D6

>  <SPECTRUM TYPE>  (5558) 
MS1

>  <INSTRUMENT TYPE>  (5558) 
EI-B

>  <INSTRUMENT>  (5558) 
HITACHI RMU-5B

>  <ION MODE>  (5558) 
P

>  <INCHIKEY>  (5558) 
BOQSSGDQNWEFSX-LIJFRPJRSA-N

>  <FORMULA>  (5558) 
C7H12O2

>  <EXACT MASS>  (5558) 
134.12139009999999

>  <MW>  (5558) 
134

>  <ID>  (5558) 
JP000993

>  <CONTRIBUTOR>  (5558) 
University of Tokyo Team, {Faculty of Engineering, University of Tokyo

>  <COMMENT>  (5558) 
SMILES=[2H]C([2H])([2H])C([H])(C([2H])([2H])[2H])OC(=O)C(C)=C
InChI=InChI=1S/C7H12O2/c1-5(2)7(8)9-6(3)4/h6H,1H2,2-4H3/i3D3,4D3
computed SMILES=[H]C([H])([H])C(OC(=O)C(=C)C)C([H])([H])[H]
accession=JP000993
date=2016.01.19 (Created 2008.10.21, modified 2011.05.06)
author=TAJIMA S, GUNMA COLLEGE OF TECHNOLOGY
license=CC BY-NC-SA
exact mass=128.08373
ionization energy=70 eV
ion type=[M]+*
computed spectral entropy=2.7806154738219906
computed normalized entropy=0.7952551009658806
SPLASH=splash10-00kn-9000000000-af2134a62cd578e2fd10
submitter=submitter = University of Tokyo Team (Faculty of Engineering, University of Tokyo)
MoNA Rating=3.75

>  <NUM PEAKS>  (5558) 
33

>  <MASS SPECTRAL PEAKS>  (5558) 
15 4.94
18 11.92
26 2.38
27 3.49
29 18.91
30 17.89
31 1.96
33 2.9
37 2.47
38 5.88
39 46.25
40 10.99
41 86.46
42 13.46
43 5.2
44 2.98
45 19.59
46 18.48
47 10.22
48 10.22
49 99.99
50 2.81
65 17.89
69 75.21
70 7.84
71 2.81
72 1.87
87 5.96
88 4.6
89 31.35
90 1.87
116 1.87
134 2.07

>  <PREDICTED SPECTRUM>  (5558) 
26 119
28 30
34 8
38 25
39 538
40 228
41 999
42 602
43 421
44 270
45 133
46 120
47 160
48 208
49 89
53 177
54 539
55 242
58 57
59 311
60 360
61 152
67 327
68 417
69 627
70 353
71 960
72 486
73 230
74 84
75 26
76 92
77 32
81 14
85 205
86 186
87 115
88 156
101 410
104 219
105 56
107 3
115 52
116 738
133 2
134 583
135 31

$$$$

     RDKit          2D

 10  9  0  0  0  0  0  0  0  0999 V2000
   -4.4596    3.2243    0.0000 C   0  0  0  0  0  0  0  0  0  0  0  0
   -3.1606    0.9743    0.0000 C   0  0  0  0  0  0  0  0  0  0  0  0
    1.4865    1.9252    0.0000 C   0  0  0  0  0  0  0  0  0  0  0  0
   -0.0135    4.5233    0.0000 C   0  0  0  0  0  0  0  0  0  0  0  0
   -3.1606    2.4743    0.0000 C   0  0  0  0  0  0  0  0  0  0  0  0
    0.7365    3.2243    0.0000 C   0  0  0  0  0  0  0  0  0  0  0  0
    2.0356    3.9743    0.0000 H   0  0  0  0  0  0  0  0  0  0  0  0
   -1.8615    3.2243    0.0000 C   0  0  0  0  0  0  0  0  0  0  0  0
   -1.8615    4.7243    0.0000 O   0  0  0  0  0  0  0  0  0  0  0  0
   -0.5625    2.4743    0.0000 O   0  0  0  0  0  0  0  0  0  0  0  0
  6  7  1  0
  5  1  2  0
  5  2  1  0
  6  3  1  0
  6  4  1  0
  8  5  1  0
  9  8  2  0
 10  6  1  0
 10  8  1  0
M  ISO  1   7   2
M  END
>  <NAME>  (5559) 
METHACRYLIC ACID ISOPROPYL ESTER-D1

>  <SYNONYMS>  (5559) 
ISOPROPYL METHACRYLATE-D1

>  <SPECTRUM TYPE>  (5559) 
MS1

>  <INSTRUMENT TYPE>  (5559) 
EI-B

>  <INSTRUMENT>  (5559) 
HITACHI RMU-5B

>  <ION MODE>  (5559) 
P

>  <INCHIKEY>  (5559) 
BOQSSGDQNWEFSX-RAMDWTOOSA-N

>  <FORMULA>  (5559) 
C7H12O2

>  <EXACT MASS>  (5559) 
129.09000637

>  <MW>  (5559) 
129

>  <ID>  (5559) 
JP000992

>  <CONTRIBUTOR>  (5559) 
University of Tokyo Team, {Faculty of Engineering, University of Tokyo

>  <COMMENT>  (5559) 
SMILES=CC(=C)C(=O)OC([2H])(C)C
InChI=InChI=1S/C7H12O2/c1-5(2)7(8)9-6(3)4/h6H,1H2,2-4H3/i6D
computed SMILES=[H]C(OC(=O)C(=C)C)(C)C
accession=JP000992
date=2016.01.19 (Created 2008.10.21, modified 2011.05.06)
author=TAJIMA S, GUNMA COLLEGE OF TECHNOLOGY
license=CC BY-NC-SA
exact mass=128.08373
ionization energy=70 eV
ion type=[M]+*
computed spectral entropy=2.4781438284992685
computed normalized entropy=0.7286092368118332
SPLASH=splash10-0006-9000000000-3cb627ffb390219031de
submitter=submitter = University of Tokyo Team (Faculty of Engineering, University of Tokyo)
MoNA Rating=3.75

>  <NUM PEAKS>  (5559) 
30

>  <MASS SPECTRAL PEAKS>  (5559) 
15 1.75
27 1.16
28 5.58
29 9.19
30 1.22
31 1.45
33 2.04
37 1.4
38 3.49
39 39.27
40 14.54
41 88.37
42 29.9
43 16.87
44 99.99
45 3.2
46 5.81
58 1.16
59 4.94
60 14.53
68 1.74
69 99.94
70 5.99
71 3.55
84 1.74
86 4.53
87 45.93
88 3.37
114 3.55
129 3.08

>  <PREDICTED SPECTRUM>  (5559) 
14 11
15 35
25 7
26 73
27 202
28 75
29 136
31 29
33 13
36 24
37 112
38 173
39 537
40 229
41 772
42 223
43 310
44 92
45 126
46 33
49 80
50 112
51 71
52 68
53 8
54 27
56 60
57 45
58 71
59 114
60 20
61 33
62 10
63 25
68 30
69 999
70 178
72 5
75 14
85 4
86 72
96 14
98 59
99 13
114 270
115 25
128 124
129 144
130 0

$$$$

     RDKit          2D

 16 15  0  0  0  0  0  0  0  0999 V2000
    0.8967    7.6277    0.0000 C   0  0  0  0  0  0  0  0  0  0  0  0
    2.1958    5.3777    0.0000 C   0  0  0  0  0  0  0  0  0  0  0  0
   -3.0004    3.8777    0.0000 C   0  0  0  0  0  0  0  0  0  0  0  0
   -2.2504    5.1768    0.0000 H   0  0  0  0  0  0  0  0  0  0  0  0
   -4.2994    4.6277    0.0000 H   0  0  0  0  0  0  0  0  0  0  0  0
   -3.7504    2.5787    0.0000 H   0  0  0  0  0  0  0  0  0  0  0  0
   -0.7372    1.9787    0.0000 C   0  0  0  0  0  0  0  0  0  0  0  0
   -1.8862    1.0145    0.0000 H   0  0  0  0  0  0  0  0  0  0  0  0
    0.2270    0.8296    0.0000 H   0  0  0  0  0  0  0  0  0  0  0  0
    0.4119    2.9428    0.0000 H   0  0  0  0  0  0  0  0  0  0  0  0
    0.8967    6.1277    0.0000 C   0  0  0  0  0  0  0  0  0  0  0  0
   -1.7013    3.1277    0.0000 C   0  0  0  0  0  0  0  0  0  0  0  0
   -2.6655    1.9787    0.0000 H   0  0  0  0  0  0  0  0  0  0  0  0
   -0.4023    5.3777    0.0000 C   0  0  0  0  0  0  0  0  0  0  0  0
   -1.7013    6.1277    0.0000 O   0  0  0  0  0  0  0  0  0  0  0  0
   -0.4023    3.8777    0.0000 O   0  0  0  0  0  0  0  0  0  0  0  0
  3  4  1  0
  3  5  1  0
  3  6  1  0
  7  8  1  0
  7  9  1  0
  7 10  1  0
 12 13  1  0
 11  1  2  0
 11  2  1  0
 12  3  1  0
 12  7  1  0
 14 11  1  0
 15 14  2  0
 16 12  1  0
 16 14  1  0
M  ISO  7   4   2   5   2   6   2   8   2   9   2  10   2  13   2
M  END
>  <NAME>  (5560) 
METHACRYLIC ACID ISOPROPYL ESTER-D7

>  <SYNONYMS>  (5560) 
ISOPROPYL METHACRYLATE-D7

>  <SPECTRUM TYPE>  (5560) 
MS1

>  <INSTRUMENT TYPE>  (5560) 
EI-B

>  <INSTRUMENT>  (5560) 
HITACHI RMU-5B

>  <ION MODE>  (5560) 
P

>  <INCHIKEY>  (5560) 
BOQSSGDQNWEFSX-XHTSFSSMSA-N

>  <FORMULA>  (5560) 
C7H12O2

>  <EXACT MASS>  (5560) 
135.127666846

>  <MW>  (5560) 
135

>  <ID>  (5560) 
JP000991

>  <CONTRIBUTOR>  (5560) 
University of Tokyo Team, {Faculty of Engineering, University of Tokyo

>  <COMMENT>  (5560) 
SMILES=[2H]C([2H])([2H])C([2H])(C([2H])([2H])[2H])OC(=O)C(C)=C
InChI=InChI=1S/C7H12O2/c1-5(2)7(8)9-6(3)4/h6H,1H2,2-4H3/i3D3,4D3,6D
computed SMILES=[H]C(OC(=O)C(=C)C)(C([H])([H])[H])C([H])([H])[H]
accession=JP000991
date=2016.01.19 (Created 2008.10.21, modified 2011.05.06)
author=TAJIMA S, GUNMA COLLEGE OF TECHNOLOGY
license=CC BY-NC-SA
exact mass=128.08373
ionization energy=70 eV
ion type=[M]+*
computed spectral entropy=2.6584341162036305
computed normalized entropy=0.7477282308866137
SPLASH=splash10-0frf-9000000000-ed3bd461435f3053c69c
submitter=submitter = University of Tokyo Team (Faculty of Engineering, University of Tokyo)
MoNA Rating=3.75

>  <NUM PEAKS>  (5560) 
35

>  <MASS SPECTRAL PEAKS>  (5560) 
15 0.88
18 4.23
26 1.15
27 1.23
28 1.59
30 26.28
37 1.76
38 4.76
39 41.09
40 10.49
41 76.72
42 14.11
43 4.32
44 2.82
45 1.59
46 32.54
47 1.59
48 10.49
49 8.73
50 99.99
51 2.91
59 1.59
61 2.03
65 3
66 11.73
69 79.72
70 3.97
71 4.23
72 2.03
87 4.76
88 2.29
89 32.98
90 2.82
117 2.56
135 5.11

>  <PREDICTED SPECTRUM>  (5560) 
16 6
25 34
26 186
28 117
32 61
34 17
36 13
38 41
40 182
41 999
42 413
43 775
44 377
45 168
46 110
47 406
48 75
49 226
50 209
51 99
54 570
55 103
60 46
61 76
62 227
63 0
64 61
69 837
70 306
71 765
72 533
73 128
74 187
77 24
81 123
82 109
85 377
88 142
89 331
90 114
91 45
92 16
103 164
105 403
116 24
117 460
118 144
119 215
120 354
135 897
136 73

$$$$

     RDKit          2D

 13 13  0  0  1  0  0  0  0  0999 V2000
   -4.1581   -0.3004    0.0000 C   0  0  0  0  0  0  0  0  0  0  0  0
    1.0390   -3.3000    0.0000 C   0  0  0  0  0  0  0  0  0  0  0  0
    2.3387    3.4502    0.0000 C   0  0  0  0  0  0  0  0  0  0  0  0
   -1.5600    1.2000    0.0000 C   0  0  0  0  0  0  0  0  0  0  0  0
   -1.5600   -0.3000    0.0000 C   0  0  0  0  0  0  0  0  0  0  0  0
    1.0400   -0.3000    0.0000 C   0  0  0  0  0  0  0  0  0  0  0  0
   -0.2600   -1.0500    0.0000 C   0  0  0  0  0  0  0  0  0  0  0  0
    1.0400    1.2000    0.0000 C   0  0  0  0  0  0  0  0  0  0  0  0
    2.3389   -1.0502    0.0000 O   0  0  0  0  0  0  0  0  0  0  0  0
   -2.8589   -1.0502    0.0000 O   0  0  0  0  0  0  0  0  0  0  0  0
   -0.2600   -2.5500    0.0000 O   0  0  0  0  0  0  0  0  0  0  0  0
    2.3389    1.9502    0.0000 O   0  0  0  0  0  0  0  0  0  0  0  0
   -0.2600    1.9500    0.0000 O   0  0  0  0  0  0  0  0  0  0  0  0
  5  4  1  0
  7  5  1  0
  7  6  1  0
  8  6  1  0
  6  9  1  6
 10  1  1  0
  5 10  1  6
 11  2  1  0
  7 11  1  1
 12  3  1  0
 12  8  1  0
 13  4  1  0
 13  8  1  0
M  END
>  <NAME>  (5561) 
METHYL-3,4-DI-O-METHYLXYLOSIDE

>  <SYNONYMS>  (5561) 


>  <SPECTRUM TYPE>  (5561) 
MS1

>  <INSTRUMENT TYPE>  (5561) 
EI-B

>  <INSTRUMENT>  (5561) 
SHIMADZU LKB-9000

>  <ION MODE>  (5561) 
P

>  <INCHIKEY>  (5561) 
VXOPRCAXQLGBIS-HBFKVTOISA-N

>  <FORMULA>  (5561) 
C8H16O5

>  <EXACT MASS>  (5561) 
192.09977361199998

>  <MW>  (5561) 
192

>  <ID>  (5561) 
JP000982

>  <CONTRIBUTOR>  (5561) 
University of Tokyo Team, {Faculty of Engineering, University of Tokyo

>  <COMMENT>  (5561) 
SMILES=COC(C1)C(OC)C(O)C(OC)O1
InChI=InChI=1S/C8H16O5/c1-10-5-4-13-8(12-3)6(9)7(5)11-2/h5-9H,4H2,1-3H3/t5-,6-,7+,8?/m1/s1
computed SMILES=OC1C(OC)OCC(OC)C1OC
accession=JP000982
date=2016.01.19 (Created 2008.10.21, modified 2011.05.06)
author=HORI T, DEPT. OF CHEMISTRY, FAC. OF LIBERAL ARTS AND EDUCATION, SHIGA UNIV.
license=CC BY-NC-SA
exact mass=192.09977
ionization energy=70 eV
ion type=[M]+*
computed spectral entropy=3.0246913677372143
computed normalized entropy=0.8041825148086978
SPLASH=splash10-05i9-9000000000-b983cf373e93d4f33bd8
submitter=submitter = University of Tokyo Team (Faculty of Engineering, University of Tokyo)
MoNA Rating=3.75

>  <NUM PEAKS>  (5561) 
43

>  <MASS SPECTRAL PEAKS>  (5561) 
41 24
42 8
43 18.5
44 4
45 36
47 2
53 1
54 0.5
55 10
56 5.5
57 10
58 39
59 30
60 2
61 4
68 8
69 16.5
70 4
71 34.5
72 6
73 12
74 99.99
75 68
76 3
83 2
85 5
87 56.5
88 22
89 3
97 2
99 4
100 8.5
101 16
102 1
114 2
115 1
128 2
129 2
130 3
131 1
160 1
161 13
162 1

>  <PREDICTED SPECTRUM>  (5561) 
33 27
41 237
42 198
43 220
44 22
45 478
51 1
53 44
55 252
56 94
57 254
58 485
59 502
60 91
61 218
68 104
69 290
70 108
71 468
72 166
73 266
74 999
75 690
76 59
83 5
84 25
85 170
87 553
88 332
89 150
90 2
97 42
99 5
100 171
101 508
102 52
114 15
115 44
117 59
119 41
129 178
130 75
133 19
160 26
161 291
162 221
192 16

$$$$

     RDKit          2D

 20 20  0  0  0  0  0  0  0  0999 V2000
   -5.1109    4.0281    0.0000 C   0  0  0  0  0  0  0  0  0  0  0  0
   -7.1600    3.4791    0.0000 C   0  0  0  0  0  0  0  0  0  0  0  0
   -6.6109    1.4301    0.0000 C   0  0  0  0  0  0  0  0  0  0  0  0
    1.9328   -0.2717    0.0000 C   0  0  0  0  0  0  0  0  0  0  0  0
    0.6338    0.4783    0.0000 C   0  0  0  0  0  0  0  0  0  0  0  0
   -1.9638    1.9791    0.0000 C   0  0  0  0  0  0  0  0  0  0  0  0
   -3.2628    2.7291    0.0000 C   0  0  0  0  0  0  0  0  0  0  0  0
    3.2328    1.9799    0.0000 C   0  0  0  0  0  0  0  0  0  0  0  0
    3.2324    0.4791    0.0000 C   0  0  0  0  0  0  0  0  0  0  0  0
    0.6343    1.9791    0.0000 C   0  0  0  0  0  0  0  0  0  0  0  0
    1.9338    2.7299    0.0000 C   0  0  0  0  0  0  0  0  0  0  0  0
   -0.6648    2.7291    0.0000 N   0  0  0  0  0  0  0  0  0  0  0  0
    4.5314   -0.2709    0.0000 N   0  0  0  0  0  0  0  0  0  0  0  0
    1.9336    4.2299    0.0000 N   0  0  0  0  0  0  0  0  0  0  0  0
    5.8304    0.4791    0.0000 O   0  0  0  0  0  0  0  0  0  0  0  0
    4.5314   -1.7709    0.0000 O   0  0  0  0  0  0  0  0  0  0  0  0
    3.2325    4.9801    0.0000 O   0  0  0  0  0  0  0  0  0  0  0  0
    0.6344    4.9797    0.0000 O   0  0  0  0  0  0  0  0  0  0  0  0
   -4.5619    1.9791    0.0000 O   0  0  0  0  0  0  0  0  0  0  0  0
   -5.8609    2.7291    0.0000 Si  0  0  0  0  0  4  0  0  0  0  0  0
  5  4  2  0
  7  6  1  0
  9  4  1  0
  9  8  2  0
 10  5  1  0
 11  8  1  0
 11 10  2  0
 12  6  1  0
 12 10  1  0
 13  9  1  0
 14 11  1  0
 15 13  1  0
 16 13  2  0
 17 14  1  0
 18 14  2  0
 19  7  1  0
 20  1  1  0
 20  2  1  0
 20  3  1  0
 20 19  1  0
M  CHG  4  13   1  14   1  15  -1  17  -1
M  END
>  <NAME>  (5562) 
N-2,4-DINITROPHENYL-O-TRIMETHYLSILYL-ETHANOLAMINE

>  <SYNONYMS>  (5562) 
N-(2,4-DINITROPHENYL)-2-TRIMETHYLSILYLOXYETHYLAMINE

>  <SPECTRUM TYPE>  (5562) 
MS1

>  <INSTRUMENT TYPE>  (5562) 
EI-B

>  <INSTRUMENT>  (5562) 
SHIMADZU LKB-9000

>  <ION MODE>  (5562) 
P

>  <INCHIKEY>  (5562) 
PPBSFFPMABCFSN-UHFFFAOYSA-N

>  <FORMULA>  (5562) 
C11H17N3O5Si

>  <EXACT MASS>  (5562) 
299.093747174

>  <MW>  (5562) 
299

>  <ID>  (5562) 
JP000979

>  <CONTRIBUTOR>  (5562) 
University of Tokyo Team, {Faculty of Engineering, University of Tokyo

>  <COMMENT>  (5562) 
SMILES=[O-1][N+1](=O)c(c1)cc([N+1]([O-1])=O)c(NCCO[Si](C)(C)C)c1
InChI=InChI=1S/C11H17N3O5Si/c1-20(2,3)19-7-6-12-10-5-4-9(13(15)16)8-11(10)14(17)18/h4-5,8,12H,6-7H2,1-3H3
computed SMILES=O=N(=O)C1=CC=C(NCCO[Si](C)(C)C)C(=C1)N(=O)=O
ion type=[M]+*
accession=JP000979
date=2016.01.19 (Created 2008.10.21, modified 2011.05.06)
author=HORI T, DEPT. OF CHEMISTRY, FAC. OF LIBERAL ARTS AND EDUCATION, SHIGA UNIV.
license=CC BY-NC-SA
exact mass=299.09375
ionization energy=70 eV
computed spectral entropy=2.406366646253624
computed normalized entropy=0.8032649203991877
SPLASH=splash10-0fmi-9710000000-cb589807fac06503f140
submitter=submitter = University of Tokyo Team (Faculty of Engineering, University of Tokyo)
MoNA Rating=3.75

>  <NUM PEAKS>  (5562) 
20

>  <MASS SPECTRAL PEAKS>  (5562) 
59 5.5
61 4.5
73 99.99
74 9
75 44
103 50
104 9
105 7.5
117 13.5
133 6
150 6
166 9
179 16.5
180 6
196 18
197 3
241 3
269 4.5
284 6
299 12

>  <PREDICTED SPECTRUM>  (5562) 
14 21
15 68
16 11
17 19
18 36
19 20
25 8
26 42
27 140
28 165
29 177
30 318
31 139
39 116
40 3
41 147
42 162
43 247
44 267
45 392
46 160
47 328
48 22
49 30
50 145
51 208
52 180
53 140
54 121
55 122
56 97
57 160
58 131
59 263
60 130
61 267
62 158
63 253
64 154
65 165
66 131
67 54
68 98
69 137
70 99
71 84
72 172
73 874
74 286
75 999
76 443
77 476
78 316
79 216
80 158
81 57
84 50
85 50
86 57
87 56
88 239
89 271
90 270
91 278
92 194
93 130
94 94
95 81
96 65
97 41
98 37
99 9
100 163
101 78
102 256
103 700
104 608
105 547
106 231
107 107
108 98
109 7
110 36
111 89
112 5
114 34
115 158
116 365
117 377
118 348
119 326
120 344
121 209
122 121
123 21
129 47
130 224
131 194
132 304
133 315
134 407
135 260
136 232
137 199
138 134
143 21
144 68
145 154
146 198
147 155
148 237
149 334
150 308
151 232
152 149
158 24
159 114
160 127
161 200
162 471
163 315
164 343
165 176
166 230
167 33
175 110
176 75
177 262
178 371
179 389
180 554
181 191
182 80
190 83
191 160
192 234
193 273
194 364
195 184
196 334
205 96
206 111
207 259
208 374
209 423
210 142
218 53
220 95
221 46
222 21
223 116
224 188
225 25
236 132
237 187
238 331
239 229
240 180
241 37
253 56
254 247
255 14
266 153
267 127
268 7
269 105
281 3
282 35
283 31
284 554
285 208
286 46
299 490
300 196
301 43

$$$$

     RDKit          2D

 37 37  0  0  0  0  0  0  0  0999 V2000
    2.6013    3.2745    0.0000 C   0  0  0  0  0  0  0  0  0  0  0  0
   -4.1151   -2.7124    0.0000 C   0  0  0  0  0  0  0  0  0  0  0  0
   -2.6192   -4.2165    0.0000 C   0  0  0  0  0  0  0  0  0  0  0  0
   -1.1151   -2.7205    0.0000 C   0  0  0  0  0  0  0  0  0  0  0  0
    0.5273   -4.7808    0.0000 C   0  0  0  0  0  0  0  0  0  0  0  0
    2.5781   -4.2386    0.0000 C   0  0  0  0  0  0  0  0  0  0  0  0
    2.0359   -2.1877    0.0000 C   0  0  0  0  0  0  0  0  0  0  0  0
    4.6573   -1.7710    0.0000 C   0  0  0  0  0  0  0  0  0  0  0  0
    5.2076    0.2777    0.0000 C   0  0  0  0  0  0  0  0  0  0  0  0
    3.1589    0.8279    0.0000 C   0  0  0  0  0  0  0  0  0  0  0  0
   -7.0549    3.0700    0.0000 C   0  0  0  0  0  0  0  0  0  0  0  0
   -9.1040    2.5212    0.0000 C   0  0  0  0  0  0  0  0  0  0  0  0
   -8.5553    0.4721    0.0000 C   0  0  0  0  0  0  0  0  0  0  0  0
   -7.0672    4.8426    0.0000 C   0  0  0  0  0  0  0  0  0  0  0  0
   -5.1445    5.7388    0.0000 C   0  0  0  0  0  0  0  0  0  0  0  0
   -4.2483    3.8160    0.0000 C   0  0  0  0  0  0  0  0  0  0  0  0
   -2.6089    1.7702    0.0000 C   0  0  0  0  0  0  0  0  0  0  0  0
   -1.3100    1.0200    0.0000 C   0  0  0  0  0  0  0  0  0  0  0  0
   -1.3100   -0.4700    0.0000 C   0  0  0  0  0  0  0  0  0  0  0  0
   -0.0100   -1.2300    0.0000 C   0  0  0  0  0  0  0  0  0  0  0  0
    1.3100   -0.4700    0.0000 C   0  0  0  0  0  0  0  0  0  0  0  0
    1.3100    1.0200    0.0000 C   0  0  0  0  0  0  0  0  0  0  0  0
   -4.2426    2.9195    0.0000 O   0  0  0  0  0  0  0  0  0  0  0  0
    2.6064    1.7745    0.0000 O   0  0  0  0  0  0  0  0  0  0  0  0
   -3.9081    1.0204    0.0000 O   0  0  0  0  0  0  0  0  0  0  0  0
   -0.0100    1.7700    0.0000 O   0  0  0  0  0  0  0  0  0  0  0  0
   -2.6111   -1.2165    0.0000 O   0  0  0  0  0  0  0  0  0  0  0  0
   -0.0150   -2.7300    0.0000 O   0  0  0  0  0  0  0  0  0  0  0  0
    2.6086   -1.2208    0.0000 O   0  0  0  0  0  0  0  0  0  0  0  0
   -6.5062    1.0208    0.0000 O   0  0  0  0  0  0  0  0  0  0  0  0
   -6.1710    2.9198    0.0000 O   0  0  0  0  0  0  0  0  0  0  0  0
   -5.2070    1.7706    0.0000 P   0  0  0  0  0  0  0  0  0  0  0  0
   -2.6151   -2.7165    0.0000 Si  0  0  0  0  0  4  0  0  0  0  0  0
    1.2816   -3.4843    0.0000 Si  0  0  0  0  0  4  0  0  0  0  0  0
    3.9081   -0.4716    0.0000 Si  0  0  0  0  0  4  0  0  0  0  0  0
   -7.8051    1.7710    0.0000 Si  0  0  0  0  0  4  0  0  0  0  0  0
   -5.6577    4.3293    0.0000 Si  0  0  0  0  0  4  0  0  0  0  0  0
 18 17  1  0
 19 18  1  0
 20 19  1  0
 21 20  1  0
 22 21  1  0
 24  1  1  0
 24 22  1  0
 25 17  1  0
 26 18  1  0
 26 22  1  0
 27 19  1  0
 28 20  1  0
 29 21  1  0
 32 23  2  0
 32 25  1  0
 32 30  1  0
 32 31  1  0
 33  2  1  0
 33  3  1  0
 33  4  1  0
 33 27  1  0
 34  5  1  0
 34  6  1  0
 34  7  1  0
 34 28  1  0
 35  8  1  0
 35  9  1  0
 35 10  1  0
 35 29  1  0
 36 11  1  0
 36 12  1  0
 36 13  1  0
 36 30  1  0
 37 14  1  0
 37 15  1  0
 37 16  1  0
 37 31  1  0
M  END
>  <NAME>  (5563) 
PENTAKIS(TRIMETHYLSILYL)-METHYL-6-PHOSPHOMANNOSIDE

>  <SYNONYMS>  (5563) 


>  <SPECTRUM TYPE>  (5563) 
MS1

>  <INSTRUMENT TYPE>  (5563) 
EI-B

>  <INSTRUMENT>  (5563) 
SHIMADZU LKB-9000

>  <ION MODE>  (5563) 
P

>  <INCHIKEY>  (5563) 
RJXOEHNQWFJEQZ-UHFFFAOYSA-N

>  <FORMULA>  (5563) 
C22H55O9PSi5

>  <EXACT MASS>  (5563) 
634.24300262

>  <MW>  (5563) 
634

>  <ID>  (5563) 
JP000978

>  <CONTRIBUTOR>  (5563) 
University of Tokyo Team, {Faculty of Engineering, University of Tokyo

>  <COMMENT>  (5563) 
SMILES=COC(O1)C([H])(O[Si](C)(C)C)C(O[Si](C)(C)C)C(O[Si](C)(C)C)C(COP(=O)(O[Si](C)(C)C)O[Si](C)(C)C)1
InChI=InChI=1S/C22H55O9PSi5/c1-24-22-21(29-35(8,9)10)20(28-34(5,6)7)19(27-33(2,3)4)18(26-22)17-25-32(23,30-36(11,12)13)31-37(14,15)16/h18-22H,17H2,1-16H3
computed SMILES=O=P(OCC1OC(OC)C(O[Si](C)(C)C)C(O[Si](C)(C)C)C1O[Si](C)(C)C)(O[Si](C)(C)C)O[Si](C)(C)C
accession=JP000978
date=2016.01.19 (Created 2008.10.21, modified 2011.05.06)
author=HORI T, DEPT. OF CHEMISTRY, FAC. OF LIBERAL ARTS AND EDUCATION, SHIGA UNIV.
license=CC BY-NC-SA
exact mass=634.243
ionization energy=70 eV
ion type=[M]+*
computed spectral entropy=2.1079199017371955
computed normalized entropy=0.8218173569802363
SPLASH=splash10-00di-9485000000-e80d4fc65964733dc4b7
submitter=submitter = University of Tokyo Team (Faculty of Engineering, University of Tokyo)
MoNA Rating=3.75

>  <NUM PEAKS>  (5563) 
13

>  <MASS SPECTRAL PEAKS>  (5563) 
73 99.99
129 30
147 20
204 50
217 15
287 5
299 25
315 15
357 5
370 15
387 25
529 1
619 3

>  <PREDICTED SPECTRUM>  (5563) 
18 6
26 6
27 30
28 33
31 23
39 6
41 117
42 59
43 111
44 131
45 285
46 63
47 78
49 27
51 13
52 16
53 58
54 44
55 78
56 60
57 77
58 94
59 222
60 126
61 117
62 1
63 34
66 29
67 31
68 31
69 73
70 41
71 42
72 117
73 999
74 313
75 374
76 81
77 103
78 23
79 73
80 21
81 128
82 72
83 83
84 59
85 58
86 22
87 40
89 79
91 62
93 41
94 8
95 57
96 19
97 58
98 63
99 95
100 49
101 171
102 65
103 143
104 62
105 88
107 10
108 44
109 44
110 24
111 73
112 31
113 142
114 36
115 88
116 183
117 154
118 61
119 123
120 38
121 60
123 23
125 69
126 29
127 87
128 34
129 382
130 88
131 125
132 72
133 336
134 159
135 139
136 46
137 50
138 16
139 42
140 53
141 61
142 77
143 162
144 72
145 108
146 66
147 509
148 189
149 224
150 74
151 90
152 16
153 41
154 11
155 46
156 13
157 109
158 31
159 70
160 65
161 105
163 66
164 31
165 24
167 60
168 15
169 216
170 114
171 144
172 25
173 103
174 75
175 77
177 70
181 69
182 41
183 35
184 88
185 122
186 75
187 59
188 74
189 107
190 32
191 211
192 75
193 89
194 12
195 99
196 28
197 65
198 16
199 66
200 17
201 21
202 21
203 59
204 524
205 194
206 110
207 165
208 63
209 65
210 27
211 223
212 112
213 88
214 13
215 153
216 92
217 494
218 235
219 124
220 51
221 36
223 9
225 153
226 68
227 187
228 92
229 31
230 122
231 82
232 62
233 47
234 9
235 0
239 33
240 50
241 90
242 61
243 210
244 103
245 142
246 33
247 76
253 45
254 56
255 59
256 71
257 89
258 85
259 151
260 100
261 77
263 10
265 58
267 10
269 32
270 0
271 66
272 29
273 37
274 61
275 39
276 32
278 11
279 41
282 34
283 57
284 40
285 158
286 66
287 149
288 94
289 71
290 25
291 28
292 8
293 16
297 12
298 89
299 613
300 303
301 201
302 145
303 136
304 75
305 121
306 57
307 31
313 123
314 212
315 511
316 284
317 254
318 184
319 139
320 88
321 15
327 9
328 150
329 131
330 110
331 71
332 53
333 47
334 36
335 43
341 68
342 33
343 72
344 17
345 52
346 36
347 29
348 3
349 62
356 14
357 246
358 208
359 122
360 77
361 51
362 35
369 39
370 79
371 49
372 40
373 104
374 44
375 60
376 0
377 15
378 41
379 25
380 2
383 6
385 29
386 52
387 353
388 238
389 184
390 127
391 91
392 45
393 5
394 2
395 15
404 5
413 11
416 3
417 34
418 7
426 49
429 2
430 42
431 61
432 28
433 15
435 12
436 5
440 0
445 79
446 21
447 13
448 6
449 1
452 0
454 41
455 1
459 9
460 23
461 66
462 28
473 20
500 10
516 15
518 5
542 3
544 12
557 4
575 19
588 23
619 183
620 83
621 44
622 20

$$$$

     RDKit          2D

  3  2  0  0  0  0  0  0  0  0999 V2000
   -1.2990    0.0000    0.0000 C   0  0  0  0  0  0  0  0  0  0  0  0
   -0.0000    0.7500    0.0000 C   0  0  0  0  0  0  0  0  0  0  0  0
    0.0000    2.2500    0.0000 Cl  0  0  0  0  0  0  0  0  0  0  0  0
  2  1  2  0
  3  2  1  0
M  END
>  <NAME>  (5564) 
CHLOROETHYLENE

>  <SYNONYMS>  (5564) 
VINYL CHLORIDE

>  <SPECTRUM TYPE>  (5564) 
MS1

>  <INSTRUMENT TYPE>  (5564) 
EI-B

>  <INSTRUMENT>  (5564) 
JEOL JMS-01-SG

>  <ION MODE>  (5564) 
P

>  <INCHIKEY>  (5564) 
BZHJMEDXRYGGRV-UHFFFAOYSA-N

>  <FORMULA>  (5564) 
C2H3Cl

>  <EXACT MASS>  (5564) 
61.992327775999996

>  <MW>  (5564) 
62

>  <ID>  (5564) 
JP000977

>  <CONTRIBUTOR>  (5564) 
University of Tokyo Team, {Faculty of Engineering, University of Tokyo

>  <COMMENT>  (5564) 
SMILES=C=CCl
cas=75-01-4
InChI=InChI=1S/C2H3Cl/c1-2-3/h2H,1H2
computed SMILES=ClC=C
accession=JP000977
date=2016.01.19 (Created 2008.10.21, modified 2011.05.06)
author=KOGA M, UNIV. OF OCCUPATIONAL AND ENVIRONMENTAL HEALTH
license=CC BY-NC-SA
exact mass=61.99233
ionization energy=70 eV
ion type=[M]+*
computed spectral entropy=1.8374334294456673
computed normalized entropy=0.6627140241562164
SPLASH=splash10-03di-9000000000-6b0b48d1f48056c738a2
submitter=submitter = University of Tokyo Team (Faculty of Engineering, University of Tokyo)
MoNA Rating=3.75

>  <NUM PEAKS>  (5564) 
16

>  <MASS SPECTRAL PEAKS>  (5564) 
24 2.4
25 10.3
26 24.2
27 7.64
28 2.3
35 7.3
36 2.7
37 0.26
47 4.8
49 1.7
59 2
60 0.65
61 8.4
62 99.99
63 5
64 30.8

>  <PREDICTED SPECTRUM>  (5564) 
14 31
15 33
18 12
19 8
25 133
26 261
27 999
28 261
29 13
31 87
33 34
34 59
35 192
36 233
37 208
38 124
41 110
43 5
44 7
49 42
61 288
62 788
63 245
64 485
65 54

$$$$

     RDKit          2D

 14 14  0  0  0  0  0  0  0  0999 V2000
    2.3389    1.6502    0.0000 C   0  0  0  0  0  0  0  0  0  0  0  0
   -0.2600    1.6500    0.0000 C   0  0  0  0  0  0  0  0  0  0  0  0
   -1.5600   -0.6000    0.0000 C   0  0  0  0  0  0  0  0  0  0  0  0
    1.0400    0.9000    0.0000 C   0  0  0  0  0  0  0  0  0  0  0  0
   -1.5600    0.9000    0.0000 C   0  0  0  0  0  0  0  0  0  0  0  0
   -0.2600   -1.3500    0.0000 C   0  0  0  0  0  0  0  0  0  0  0  0
    1.0400   -0.6000    0.0000 C   0  0  0  0  0  0  0  0  0  0  0  0
   -2.8589    1.6502    0.0000 N   0  0  0  0  0  0  0  0  0  0  0  0
   -0.2600   -2.8500    0.0000 N   0  0  0  0  0  0  0  0  0  0  0  0
    2.3389   -1.3502    0.0000 O   0  0  0  0  0  0  0  0  0  0  0  0
   -4.1581    0.9004    0.0000 O   0  0  0  0  0  0  0  0  0  0  0  0
   -2.8587    3.1502    0.0000 O   0  0  0  0  0  0  0  0  0  0  0  0
    1.0390   -3.6000    0.0000 O   0  0  0  0  0  0  0  0  0  0  0  0
   -1.5590   -3.6000    0.0000 O   0  0  0  0  0  0  0  0  0  0  0  0
  4  1  1  0
  4  2  2  0
  5  2  1  0
  5  3  2  0
  6  3  1  0
  7  4  1  0
  7  6  2  0
  8  5  1  0
  9  6  1  0
 10  7  1  0
 11  8  1  0
 12  8  2  0
 13  9  1  0
 14  9  2  0
M  CHG  4   8   1   9   1  11  -1  13  -1
M  END
>  <NAME>  (5565) 
4,6-DINITRO-ORTHO-CRESOL

>  <SYNONYMS>  (5565) 


>  <SPECTRUM TYPE>  (5565) 
MS1

>  <INSTRUMENT TYPE>  (5565) 
EI-B

>  <INSTRUMENT>  (5565) 
JEOL JMS-01-SG

>  <ION MODE>  (5565) 
P

>  <INCHIKEY>  (5565) 
ZXVONLUNISGICL-UHFFFAOYSA-N

>  <FORMULA>  (5565) 
C7H6N2O5

>  <EXACT MASS>  (5565) 
198.02767129199998

>  <MW>  (5565) 
198

>  <ID>  (5565) 
JP000976

>  <CONTRIBUTOR>  (5565) 
University of Tokyo Team, {Faculty of Engineering, University of Tokyo

>  <COMMENT>  (5565) 
SMILES=[O-1][N+1](=O)c(c1)cc([N+1]([O-1])=O)c(O)c(C)1
cas=534-52-1
InChI=InChI=1S/C7H6N2O5/c1-4-2-5(8(11)12)3-6(7(4)10)9(13)14/h2-3,10H,1H3
computed SMILES=O=N(=O)C=1C=C(C(O)=C(C1)C)N(=O)=O
accession=JP000976
date=2016.01.19 (Created 2008.10.21, modified 2011.05.06)
author=KOGA M, UNIV. OF OCCUPATIONAL AND ENVIRONMENTAL HEALTH
license=CC BY-NC-SA
exact mass=198.02767
ionization energy=70 eV
ion type=[M]+*
computed spectral entropy=3.00977465653915
computed normalized entropy=0.8274098603799233
SPLASH=splash10-0f6t-9600000000-f2c55979371950d98009
submitter=submitter = University of Tokyo Team (Faculty of Engineering, University of Tokyo)
MoNA Rating=3.75

>  <NUM PEAKS>  (5565) 
38

>  <MASS SPECTRAL PEAKS>  (5565) 
43 5.2
46 3.8
50 24.2
51 5.23
52 24.2
53 41.9
54 3.2
55 0.41
61 2.9
62 7.9
63 11.4
64 0.71
65 18.1
66 13.9
67 21.3
68 0.39
69 5.3
74 10.9
75 8.2
76 1.04
77 24.7
78 10.2
79 6.5
80 0.27
93 17.2
94 4
104 4
105 4.45
106 22.2
107 8.7
121 41.5
122 0.39
134 2.9
152 5.3
168 12.8
182 0.22
198 99.99
199 8.5

>  <PREDICTED SPECTRUM>  (5565) 
14 13
16 6
17 1
18 0
26 13
27 63
28 24
29 53
30 227
37 132
38 215
39 387
40 163
41 279
42 134
43 246
44 70
45 128
46 242
49 145
50 495
51 715
52 490
53 614
54 130
55 225
56 73
57 30
59 184
60 12
61 311
62 449
63 627
64 380
65 555
66 325
67 258
68 128
69 235
70 12
73 52
74 227
75 287
76 305
77 772
78 536
79 622
80 220
81 216
82 70
83 49
84 36
85 44
86 98
87 87
88 56
89 290
90 125
91 305
92 204
93 434
94 340
95 201
96 31
97 0
104 108
105 508
106 537
107 418
108 132
120 116
121 202
122 365
123 176
124 63
134 105
135 304
136 84
137 40
138 2
140 75
150 152
151 162
152 94
153 48
154 37
163 37
164 18
168 184
169 2
181 338
182 100
198 999
199 297
200 74

$$$$

     RDKit          2D

 11 11  0  0  0  0  0  0  0  0999 V2000
    1.2100    0.3900    0.0000 C   0  0  0  0  0  0  0  0  0  0  0  0
    0.0000    1.2800    0.0000 C   0  0  0  0  0  0  0  0  0  0  0  0
    0.7500   -1.0300    0.0000 C   0  0  0  0  0  0  0  0  0  0  0  0
   -1.2100    0.3900    0.0000 C   0  0  0  0  0  0  0  0  0  0  0  0
   -0.7500   -1.0300    0.0000 C   0  0  0  0  0  0  0  0  0  0  0  0
    2.6377    0.8500    0.0000 Cl  0  0  0  0  0  0  0  0  0  0  0  0
    0.0000    2.7800    0.0000 Cl  0  0  0  0  0  0  0  0  0  0  0  0
    1.6322   -2.2431    0.0000 Cl  0  0  0  0  0  0  0  0  0  0  0  0
   -2.6377    0.8500    0.0000 Cl  0  0  0  0  0  0  0  0  0  0  0  0
   -2.2174   -1.3410    0.0000 Cl  0  0  0  0  0  0  0  0  0  0  0  0
   -0.5936   -2.5218    0.0000 Cl  0  0  0  0  0  0  0  0  0  0  0  0
  2  1  1  0
  3  1  2  0
  4  2  2  0
  5  3  1  0
  5  4  1  0
  6  1  1  0
  7  2  1  0
  8  3  1  0
  9  4  1  0
 10  5  1  0
 11  5  1  0
M  END
>  <NAME>  (5566) 
1,2,3,4,5,5-HEXACHLORO-1,3-CYCLOPENTADIENE

>  <SYNONYMS>  (5566) 


>  <SPECTRUM TYPE>  (5566) 
MS1

>  <INSTRUMENT TYPE>  (5566) 
EI-B

>  <INSTRUMENT>  (5566) 
JEOL JMS-01-SG

>  <ION MODE>  (5566) 
P

>  <INCHIKEY>  (5566) 
VUNCWTMEJYMOOR-UHFFFAOYSA-N

>  <FORMULA>  (5566) 
C5Cl6

>  <EXACT MASS>  (5566) 
269.81311608

>  <MW>  (5566) 
270

>  <ID>  (5566) 
JP000974

>  <CONTRIBUTOR>  (5566) 
University of Tokyo Team, {Faculty of Engineering, University of Tokyo

>  <COMMENT>  (5566) 
SMILES=ClC(C(Cl)=1)=C(Cl)C(Cl)(Cl)C(Cl)1
cas=77-47-4
InChI=InChI=1S/C5Cl6/c6-1-2(7)4(9)5(10,11)3(1)8
computed SMILES=ClC=1C(Cl)=C(Cl)C(Cl)(Cl)C1Cl
exact mass=269.81312
accession=JP000974
date=2016.01.19 (Created 2008.10.21, modified 2011.05.06)
author=KOGA M, UNIV. OF OCCUPATIONAL AND ENVIRONMENTAL HEALTH
license=CC BY-NC-SA
ionization energy=70 eV
ion type=[M]+*
computed spectral entropy=3.073715503606714
computed normalized entropy=0.7817527506877168
SPLASH=splash10-000i-2290000000-54dcd500e27687551135
submitter=submitter = University of Tokyo Team (Faculty of Engineering, University of Tokyo)
MoNA Rating=3.75

>  <NUM PEAKS>  (5566) 
51

>  <MASS SPECTRAL PEAKS>  (5566) 
47 7.3
49 3.3
59 3.3
60 1.69
61 4.6
65 5.9
66 5.3
71 0.75
83 6.8
84 2.6
85 3.1
94 0.29
95 28.4
96 5.1
97 9
100 0.44
101 6.2
102 2.9
106 7
108 0.46
117 10.5
119 13.8
121 4.4
130 2.26
131 3.1
132 12.7
134 2.4
141 1.38
143 14.5
145 4.2
165 14.5
167 1.34
169 5.9
201 8.4
202 2.2
203 1.21
205 6.2
207 2.4
235 73
236 0.51
237 99.99
238 9.2
239 69.7
240 0.53
241 22.2
242 2.2
243 3.3
270 0.97
272 17.8
274 12.5
276 5.9

>  <PREDICTED SPECTRUM>  (5566) 
31 33
32 14
35 135
36 91
37 77
38 82
39 60
43 72
44 37
47 303
48 1
49 156
50 15
51 37
55 9
59 31
60 144
61 15
62 82
68 44
69 103
71 149
72 80
73 110
79 136
80 26
82 4
83 47
84 32
85 106
86 96
87 54
92 33
93 65
94 205
95 257
96 141
97 291
98 125
99 19
102 28
103 4
104 100
105 55
106 255
107 109
108 296
110 16
111 22
112 17
115 45
118 138
120 352
122 0
125 108
127 28
128 45
129 181
130 249
131 144
132 342
133 80
134 145
137 42
139 157
141 237
142 234
143 123
144 123
165 407
166 113
167 448
168 77
169 253
170 62
172 106
174 149
176 128
178 17
195 16
200 545
201 82
202 723
203 205
204 546
205 31
206 221
207 116
209 108
211 43
213 22
235 754
236 228
237 999
238 321
239 657
240 198
241 426
242 150
243 229
244 8
245 39
253 25
270 462
271 129
272 634
273 175
274 552
275 149

$$$$

     RDKit          2D

 10  9  0  0  0  0  0  0  0  0999 V2000
   -1.2990    2.2500    0.0000 C   0  0  0  0  0  0  0  0  0  0  0  0
   -1.2990    3.7500    0.0000 C   0  0  0  0  0  0  0  0  0  0  0  0
    0.0000    1.5000    0.0000 C   0  0  0  0  0  0  0  0  0  0  0  0
   -2.5981    4.5000    0.0000 C   0  0  0  0  0  0  0  0  0  0  0  0
   -2.5981    1.5000    0.0000 Cl  0  0  0  0  0  0  0  0  0  0  0  0
    0.0000    4.5000    0.0000 Cl  0  0  0  0  0  0  0  0  0  0  0  0
    0.0000    0.0000    0.0000 Cl  0  0  0  0  0  0  0  0  0  0  0  0
    1.2990    2.2500    0.0000 Cl  0  0  0  0  0  0  0  0  0  0  0  0
   -2.5981    6.0000    0.0000 Cl  0  0  0  0  0  0  0  0  0  0  0  0
   -3.8971    3.7500    0.0000 Cl  0  0  0  0  0  0  0  0  0  0  0  0
  2  1  1  0
  3  1  2  0
  4  2  2  0
  5  1  1  0
  6  2  1  0
  7  3  1  0
  8  3  1  0
  9  4  1  0
 10  4  1  0
M  END
>  <NAME>  (5567) 
1,1,2,3,4,4-HEXACHLORO-1,3-BUTADIENE

>  <SYNONYMS>  (5567) 


>  <SPECTRUM TYPE>  (5567) 
MS1

>  <INSTRUMENT TYPE>  (5567) 
EI-B

>  <INSTRUMENT>  (5567) 
JEOL JMS-01-SG

>  <ION MODE>  (5567) 
P

>  <INCHIKEY>  (5567) 
RWNKSTSCBHKHTB-UHFFFAOYSA-N

>  <FORMULA>  (5567) 
C4Cl6

>  <EXACT MASS>  (5567) 
257.81311608

>  <MW>  (5567) 
258

>  <ID>  (5567) 
JP000973

>  <CONTRIBUTOR>  (5567) 
University of Tokyo Team, {Faculty of Engineering, University of Tokyo

>  <COMMENT>  (5567) 
SMILES=ClC(Cl)=C(Cl)C(Cl)=C(Cl)Cl
cas=87-68-3
InChI=InChI=1S/C4Cl6/c5-1(3(7)8)2(6)4(9)10
computed SMILES=ClC(Cl)=C(Cl)C(Cl)=C(Cl)Cl
accession=JP000973
date=2016.01.19 (Created 2008.10.21, modified 2011.05.06)
author=KOGA M, UNIV. OF OCCUPATIONAL AND ENVIRONMENTAL HEALTH
license=CC BY-NC-SA
exact mass=257.81312
ionization energy=70 eV
ion type=[M]+*
computed spectral entropy=3.2147474281307593
computed normalized entropy=0.8304263764843414
SPLASH=splash10-004i-3790000000-0aab7381eb2bf932ea24
submitter=submitter = University of Tokyo Team (Faculty of Engineering, University of Tokyo)
MoNA Rating=3.75

>  <NUM PEAKS>  (5567) 
48

>  <MASS SPECTRAL PEAKS>  (5567) 
47 13.1
48 4
49 6.6
71 0.85
73 4
82 5.4
83 19.1
84 0.51
85 7.7
94 10.8
95 6.6
96 0.68
106 6.6
108 6
117 2.8
118 3.48
119 4.3
120 21.4
121 2.3
122 0.37
129 3.1
130 2.6
131 2.6
141 2.11
143 21.9
145 8.5
153 16.2
155 1.71
157 5.4
166 2.3
188 37.9
190 4.59
191 2.8
192 21.1
194 4.6
223 6.72
224 3.1
225 99.99
226 4.3
227 6.41
228 3.1
229 20.5
231 3.7
258 2.08
260 33.6
262 23.6
264 10.8
266 3.1

>  <PREDICTED SPECTRUM>  (5567) 
25 7
26 25
31 45
32 33
35 156
36 34
37 53
38 38
39 129
40 8
41 28
43 21
44 8
45 2
47 248
48 136
49 190
50 120
51 37
55 114
56 1
57 115
58 120
59 173
60 206
61 35
62 27
67 47
68 142
69 29
70 81
71 226
72 70
73 159
75 12
76 44
79 179
80 65
81 77
82 174
83 399
84 193
85 306
86 132
87 153
89 26
92 98
93 139
94 308
95 366
96 197
98 36
99 24
100 19
101 2
103 84
106 246
107 251
108 220
115 11
117 202
118 434
119 234
120 503
121 211
122 229
129 211
130 145
131 84
132 134
141 81
142 342
143 110
144 33
152 63
153 424
154 143
155 496
156 204
157 299
158 43
159 50
160 76
162 32
163 6
164 120
166 136
173 12
175 47
177 76
179 75
181 125
188 749
189 161
190 828
191 273
192 569
193 160
194 331
195 46
208 108
213 0
223 738
224 156
225 999
226 260
227 783
228 222
229 566
230 190
231 209
232 58
233 46
258 366
259 8
260 553
261 67
262 490
263 31

$$$$

     RDKit          2D

 17 19  0  0  0  0  0  0  0  0999 V2000
    1.1329    1.9275    0.0000 C   0  0  0  0  0  0  0  0  0  0  0  0
    2.0129    0.7175    0.0000 C   0  0  0  0  0  0  0  0  0  0  0  0
   -0.2971    1.4675    0.0000 C   0  0  0  0  0  0  0  0  0  0  0  0
    1.1329   -0.5025    0.0000 C   0  0  0  0  0  0  0  0  0  0  0  0
   -0.2971   -0.0325    0.0000 C   0  0  0  0  0  0  0  0  0  0  0  0
   -2.8971    1.4675    0.0000 C   0  0  0  0  0  0  0  0  0  0  0  0
   -2.8971   -0.0325    0.0000 C   0  0  0  0  0  0  0  0  0  0  0  0
   -1.5971    2.2175    0.0000 C   0  0  0  0  0  0  0  0  0  0  0  0
   -1.5971   -0.7825    0.0000 C   0  0  0  0  0  0  0  0  0  0  0  0
   -0.9771    0.6475    0.0000 C   0  0  0  0  0  0  0  0  0  0  0  0
    1.5964   -1.9291    0.0000 Cl  0  0  0  0  0  0  0  0  0  0  0  0
   -4.1961    2.2177    0.0000 Cl  0  0  0  0  0  0  0  0  0  0  0  0
   -4.1961   -0.7828    0.0000 Cl  0  0  0  0  0  0  0  0  0  0  0  0
   -1.5971    3.7175    0.0000 Cl  0  0  0  0  0  0  0  0  0  0  0  0
   -1.5971   -2.2825    0.0000 Cl  0  0  0  0  0  0  0  0  0  0  0  0
    0.3103   -1.4488    0.0000 Cl  0  0  0  0  0  0  0  0  0  0  0  0
    0.4607    1.0748    0.0000 Cl  0  0  0  0  0  0  0  0  0  0  0  0
  2  1  2  0
  3  1  1  0
  4  2  1  0
  5  3  1  0
  5  4  1  0
  7  6  2  0
  8  3  1  0
  8  6  1  0
  9  5  1  0
  9  7  1  0
 10  8  1  0
 10  9  1  0
 11  4  1  0
 12  6  1  0
 13  7  1  0
 14  8  1  0
 15  9  1  0
 16 10  1  0
 17 10  1  0
M  END
>  <NAME>  (5568) 
1,4,5,6,7,8,8-HEPTACHLORO-3A,4,7,7A-TETRAHYDRO-4,7-METHANOINDENE

>  <SYNONYMS>  (5568) 
HEPTACHLOR

>  <SPECTRUM TYPE>  (5568) 
MS1

>  <INSTRUMENT TYPE>  (5568) 
EI-B

>  <INSTRUMENT>  (5568) 
JEOL JMS-01-SG

>  <ION MODE>  (5568) 
P

>  <INCHIKEY>  (5568) 
FRCCEHPWNOQAEU-UHFFFAOYSA-N

>  <FORMULA>  (5568) 
C10H5Cl7

>  <EXACT MASS>  (5568) 
369.82109391999995

>  <MW>  (5568) 
370

>  <ID>  (5568) 
JP000972

>  <CONTRIBUTOR>  (5568) 
University of Tokyo Team, {Faculty of Engineering, University of Tokyo

>  <COMMENT>  (5568) 
SMILES=[H]C(=C([H])3)C(Cl)C(C31)C(Cl)(C(Cl)=2)C(Cl)(Cl)C(Cl)(C(Cl)2)1
cas=76-44-8
InChI=InChI=1S/C10H5Cl7/c11-4-2-1-3-5(4)9(15)7(13)6(12)8(3,14)10(9,16)17/h1-5H
computed SMILES=ClC1=C(Cl)C2(Cl)C3C(Cl)C=CC3C1(Cl)C2(Cl)Cl
accession=JP000972
date=2016.01.19 (Created 2008.10.21, modified 2011.05.06)
author=KOGA M, UNIV. OF OCCUPATIONAL AND ENVIRONMENTAL HEALTH
license=CC BY-NC-SA
exact mass=369.82109
ionization energy=70 eV
ion type=[M]+*
computed spectral entropy=3.7867146769341766
computed normalized entropy=0.8258978268766582
SPLASH=splash10-0uk9-4960000000-c6b20243c40e209f4664
submitter=submitter = University of Tokyo Team (Faculty of Engineering, University of Tokyo)
MoNA Rating=3.75

>  <NUM PEAKS>  (5568) 
98

>  <MASS SPECTRAL PEAKS>  (5568) 
49 3.9
50 6
51 5.9
60 0.24
61 7.1
62 6.3
63 9.7
64 0.38
65 47.8
66 7.3
72 2.2
73 1.03
74 7.2
75 8.2
83 2.4
85 0.79
86 5.1
87 2.5
95 3
96 0.43
97 11
98 10.4
99 10.5
100 99.99
101 7.4
102 34.1
103 3
106 0.21
107 2.9
108 6.6
109 5.9
110 0.3
111 3.4
114 4.4
115 6.5
116 0.41
117 5.7
119 6.1
120 5.8
121 0.42
122 3
123 3.6
124 2.2
130 0.32
132 10.6
133 12.5
134 8.7
135 1.77
136 3.8
137 10.3
141 5.2
143 0.62
145 3
151 2.3
159 3.4
160 0.86
161 2.1
162 3.1
165 2.5
167 0.37
169 4.5
171 2.7
183 2.5
194 0.88
195 4.2
196 5.1
197 2.3
217 0.24
219 2.4
230 9
231 2.4
232 0.78
235 15.5
236 7.3
238 11.9
239 1.42
240 7
241 4.8
242 2.5
264 0.58
265 3
266 7.5
267 2.9
268 0.35
270 28.5
272 52.8
274 45
275 0.23
276 15.9
278 4.5
335 5.2
337 0.88
339 5.8
341 3
370 2.2
372 0.36
374 3.5
376 2.2

>  <PREDICTED SPECTRUM>  (5568) 
14 19
15 25
17 2
18 1
25 10
26 85
27 34
28 27
29 114
35 164
36 260
37 159
38 237
39 276
40 73
41 67
42 28
43 280
44 20
47 170
48 43
49 412
50 426
51 563
52 172
53 219
54 83
55 327
56 100
57 242
60 159
61 444
62 434
63 431
64 61
65 173
66 101
67 175
68 209
69 291
70 51
71 298
72 299
73 484
74 403
75 539
76 175
77 332
78 119
79 164
80 81
81 180
82 179
83 381
84 358
85 644
86 461
87 332
88 68
89 195
90 72
91 82
92 47
94 69
95 204
96 352
97 522
98 482
99 614
100 301
101 231
102 261
103 185
104 48
105 94
106 210
107 442
108 330
109 559
110 335
111 397
112 158
113 290
114 152
115 268
116 190
117 426
118 283
119 488
120 273
121 262
122 280
123 233
124 138
125 265
126 217
127 221
128 162
129 148
130 237
131 288
132 272
133 309
134 207
135 207
136 260
137 128
138 50
139 167
141 504
142 95
143 326
144 102
145 413
146 109
147 187
148 246
149 207
150 17
151 66
152 29
154 52
155 155
156 113
157 284
158 118
159 327
160 139
161 67
162 76
163 38
164 88
165 143
166 38
167 382
168 135
169 399
170 370
171 307
172 182
173 176
177 49
178 34
179 132
180 218
181 345
182 235
183 476
184 122
185 140
186 61
187 92
188 201
189 157
190 108
191 320
192 149
193 555
194 271
195 654
196 314
197 139
198 114
199 195
200 89
201 332
202 168
203 444
204 299
205 367
206 366
207 297
208 56
209 86
210 35
211 35
212 118
213 63
214 72
215 202
216 169
217 362
218 314
219 325
220 244
221 263
222 87
223 28
225 45
227 96
228 211
229 414
230 457
231 431
232 355
233 233
234 162
235 698
236 350
237 774
238 350
239 461
240 473
241 408
242 252
243 296
244 79
245 103
249 83
250 14
251 210
252 169
253 327
254 81
255 134
256 162
257 86
258 36
259 0
261 307
262 148
263 628
264 617
265 689
266 657
267 583
268 433
269 290
270 443
271 257
272 789
273 137
274 546
275 223
276 652
277 125
278 493
279 55
280 65
281 131
282 236
283 160
289 74
291 22
295 58
296 105
298 103
299 33
300 327
301 340
302 373
303 429
304 225
305 273
306 9
307 209
309 249
311 61
312 10
317 1
319 16
323 45
325 12
333 59
334 13
335 519
336 377
337 999
338 380
339 876
340 381
341 239
342 277
343 358
344 139
345 308
370 55
371 56
372 190
373 54
374 285
375 43

$$$$

     RDKit          2D

  5  4  0  0  0  0  0  0  0  0999 V2000
    0.0000    1.5000    0.0000 C   0  0  0  0  0  0  0  0  0  0  0  0
   -1.2990    0.7500    0.0000 Cl  0  0  0  0  0  0  0  0  0  0  0  0
    0.7500    0.2010    0.0000 Cl  0  0  0  0  0  0  0  0  0  0  0  0
    1.2990    2.2500    0.0000 Cl  0  0  0  0  0  0  0  0  0  0  0  0
   -0.7500    2.7990    0.0000 F   0  0  0  0  0  0  0  0  0  0  0  0
  2  1  1  0
  3  1  1  0
  4  1  1  0
  5  1  1  0
M  END
>  <NAME>  (5569) 
TRICHLOROFLUOROMETHANE

>  <SYNONYMS>  (5569) 


>  <SPECTRUM TYPE>  (5569) 
MS1

>  <INSTRUMENT TYPE>  (5569) 
EI-B

>  <INSTRUMENT>  (5569) 
JEOL JMS-01-SG

>  <ION MODE>  (5569) 
P

>  <INCHIKEY>  (5569) 
CYRMSUTZVYGINF-UHFFFAOYSA-N

>  <FORMULA>  (5569) 
CCl3F

>  <EXACT MASS>  (5569) 
135.90496126

>  <MW>  (5569) 
136

>  <ID>  (5569) 
JP000971

>  <CONTRIBUTOR>  (5569) 
University of Tokyo Team, {Faculty of Engineering, University of Tokyo

>  <COMMENT>  (5569) 
SMILES=FC(Cl)(Cl)Cl
cas=75-69-4
InChI=InChI=1S/CCl3F/c2-1(3,4)5
computed SMILES=FC(Cl)(Cl)Cl
accession=JP000971
date=2016.01.19 (Created 2008.10.21, modified 2011.05.06)
author=KOGA M, UNIV. OF OCCUPATIONAL AND ENVIRONMENTAL HEALTH
license=CC BY-NC-SA
exact mass=135.90496
ionization energy=70 eV
ion type=[M]+*
computed spectral entropy=1.6762313136080556
computed normalized entropy=0.6745651043877496
SPLASH=splash10-0udi-3900000000-60273cc56dd64fe65e4d
submitter=submitter = University of Tokyo Team (Faculty of Engineering, University of Tokyo)
MoNA Rating=3.75

>  <NUM PEAKS>  (5569) 
12

>  <MASS SPECTRAL PEAKS>  (5569) 
31 9.3
35 12.8
37 4.5
47 1.09
49 3.9
66 17.6
68 6
82 0.41
84 2.5
101 99.99
103 59.1
105 11

>  <PREDICTED SPECTRUM>  (5569) 
14 11
25 28
26 53
27 5
28 5
31 136
32 43
33 37
35 232
36 83
37 153
38 75
39 19
40 43
41 96
42 16
44 58
45 108
46 76
47 315
48 76
49 259
50 94
51 123
57 32
60 38
62 40
63 187
64 38
65 53
66 94
67 123
68 71
69 182
70 11
75 59
79 32
81 125
82 319
83 51
84 206
85 226
86 39
87 256
99 16
101 999
102 132
103 917
104 162
105 445
107 171
110 41
117 414
119 356
121 61
136 165
137 7
138 141
140 64

$$$$

     RDKit          2D

  2  1  0  0  0  0  0  0  0  0999 V2000
    0.0000    0.0000    0.0000 C   0  0  0  0  0  0  0  0  0  0  0  0
    1.5000    0.0000    0.0000 Cl  0  0  0  0  0  0  0  0  0  0  0  0
  2  1  1  0
M  END
>  <NAME>  (5570) 
CHLOROMETHANE

>  <SYNONYMS>  (5570) 


>  <SPECTRUM TYPE>  (5570) 
MS1

>  <INSTRUMENT TYPE>  (5570) 
EI-B

>  <INSTRUMENT>  (5570) 
JEOL JMS-01-SG

>  <ION MODE>  (5570) 
P

>  <INCHIKEY>  (5570) 
NEHMKBQYUWJMIP-UHFFFAOYSA-N

>  <FORMULA>  (5570) 
CH3Cl

>  <EXACT MASS>  (5570) 
49.992327775999996

>  <MW>  (5570) 
50

>  <ID>  (5570) 
JP000969

>  <CONTRIBUTOR>  (5570) 
University of Tokyo Team, {Faculty of Engineering, University of Tokyo

>  <COMMENT>  (5570) 
SMILES=CCl
cas=74-87-3
InChI=InChI=1S/CH3Cl/c1-2/h1H3
computed SMILES=ClC
accession=JP000969
date=2016.01.19 (Created 2008.10.21, modified 2011.05.06)
author=KOGA M, UNIV. OF OCCUPATIONAL AND ENVIRONMENTAL HEALTH
license=CC BY-NC-SA
exact mass=49.99233
ionization energy=70 eV
ion type=[M]+*
computed spectral entropy=1.3436184127264288
computed normalized entropy=0.6461438736291731
SPLASH=splash10-0udi-9000000000-f4883c753908aef32411
submitter=submitter = University of Tokyo Team (Faculty of Engineering, University of Tokyo)
MoNA Rating=3.75

>  <NUM PEAKS>  (5570) 
8

>  <MASS SPECTRAL PEAKS>  (5570) 
35 8.4
37 3
47 11.9
48 0.5
49 13.3
50 99.99
51 4.6
52 34.2

>  <PREDICTED SPECTRUM>  (5570) 
14 66
15 163
25 66
26 258
27 165
35 9
36 65
37 199
38 384
39 999
40 131
49 136
50 478
51 548
52 394
53 361
54 186

$$$$

     RDKit          2D

  2  1  0  0  0  0  0  0  0  0999 V2000
    0.0000    0.0000    0.0000 C   0  0  0  0  0  0  0  0  0  0  0  0
    1.5000    0.0000    0.0000 Br  0  0  0  0  0  0  0  0  0  0  0  0
  2  1  1  0
M  END
>  <NAME>  (5571) 
BROMOMETHANE

>  <SYNONYMS>  (5571) 


>  <SPECTRUM TYPE>  (5571) 
MS1

>  <INSTRUMENT TYPE>  (5571) 
EI-B

>  <INSTRUMENT>  (5571) 
JEOL JMS-01-SG

>  <ION MODE>  (5571) 
P

>  <INCHIKEY>  (5571) 
GZUXJHMPEANEGY-UHFFFAOYSA-N

>  <FORMULA>  (5571) 
CH3Br

>  <EXACT MASS>  (5571) 
93.941812196

>  <MW>  (5571) 
94

>  <ID>  (5571) 
JP000968

>  <CONTRIBUTOR>  (5571) 
University of Tokyo Team, {Faculty of Engineering, University of Tokyo

>  <COMMENT>  (5571) 
SMILES=CBr
cas=74-83-9
InChI=InChI=1S/CH3Br/c1-2/h1H3
computed SMILES=BrC
accession=JP000968
date=2016.01.19 (Created 2008.10.21, modified 2011.05.06)
author=KOGA M, UNIV. OF OCCUPATIONAL AND ENVIRONMENTAL HEALTH
license=CC BY-NC-SA
exact mass=93.94181
ionization energy=70 eV
ion type=[M]+*
computed spectral entropy=1.7037606549275177
computed normalized entropy=0.7399338509188913
SPLASH=splash10-0007-9000000000-745f8b23626d21db04f3
submitter=submitter = University of Tokyo Team (Faculty of Engineering, University of Tokyo)
MoNA Rating=3.75

>  <NUM PEAKS>  (5571) 
10

>  <MASS SPECTRAL PEAKS>  (5571) 
79 21.3
80 4.3
81 20.5
82 0.39
91 9
92 4.3
93 21.6
94 99.99
95 14.1
96 89.3

>  <PREDICTED SPECTRUM>  (5571) 
14 112
15 276
16 41
18 10
25 73
26 79
27 78
28 109
31 18
32 30
41 162
42 238
45 24
51 44
52 61
54 50
66 148
68 36
75 180
77 417
78 169
79 727
80 167
81 501
82 61
91 87
93 439
94 999
95 494
96 975
97 124

$$$$

     RDKit          2D

  5  4  0  0  0  0  0  0  0  0999 V2000
    0.0000    1.5000    0.0000 C   0  0  0  0  0  0  0  0  0  0  0  0
   -1.2990    0.7500    0.0000 Cl  0  0  0  0  0  0  0  0  0  0  0  0
    0.7500    0.2010    0.0000 Cl  0  0  0  0  0  0  0  0  0  0  0  0
    1.2990    2.2500    0.0000 F   0  0  0  0  0  0  0  0  0  0  0  0
   -0.7500    2.7990    0.0000 F   0  0  0  0  0  0  0  0  0  0  0  0
  2  1  1  0
  3  1  1  0
  4  1  1  0
  5  1  1  0
M  END
>  <NAME>  (5572) 
DICHLORODIFLUOROMETHANE

>  <SYNONYMS>  (5572) 


>  <SPECTRUM TYPE>  (5572) 
MS1

>  <INSTRUMENT TYPE>  (5572) 
EI-B

>  <INSTRUMENT>  (5572) 
JEOL JMS-01-SG

>  <ION MODE>  (5572) 
P

>  <INCHIKEY>  (5572) 
PXBRQCKWGAHEHS-UHFFFAOYSA-N

>  <FORMULA>  (5572) 
CCl2F2

>  <EXACT MASS>  (5572) 
119.9345118

>  <MW>  (5572) 
120

>  <ID>  (5572) 
JP000967

>  <CONTRIBUTOR>  (5572) 
University of Tokyo Team, {Faculty of Engineering, University of Tokyo

>  <COMMENT>  (5572) 
SMILES=FC(F)(Cl)Cl
cas=75-71-8
InChI=InChI=1S/CCl2F2/c2-1(3,4)5
computed SMILES=FC(F)(Cl)Cl
accession=JP000967
date=2016.01.19 (Created 2008.10.21, modified 2011.05.06)
author=KOGA M, UNIV. OF OCCUPATIONAL AND ENVIRONMENTAL HEALTH
license=CC BY-NC-SA
exact mass=119.93451
ionization energy=70 eV
ion type=[M]+*
computed spectral entropy=1.7750502785813813
computed normalized entropy=0.7143327813673884
SPLASH=splash10-000i-9000000000-7ce8490add18c2d34cdb
submitter=submitter = University of Tokyo Team (Faculty of Engineering, University of Tokyo)
MoNA Rating=3.75

>  <NUM PEAKS>  (5572) 
12

>  <MASS SPECTRAL PEAKS>  (5572) 
31 16.3
35 22
37 6.7
47 0.87
49 2.2
50 24.6
66 6.8
68 0.21
85 99.99
87 30.9
101 7.6
103 4.3

>  <PREDICTED SPECTRUM>  (5572) 
14 30
15 50
19 6
25 41
26 33
28 8
31 243
32 100
33 54
35 220
36 52
37 96
45 15
46 42
47 210
48 48
49 212
50 198
51 186
52 0
53 14
61 111
63 93
64 44
66 35
67 3
68 25
69 347
70 10
75 37
81 53
82 78
83 116
84 25
85 999
86 167
87 417
88 181
89 244
101 188
103 110
107 7
119 5
120 273
121 33
122 214
124 66

$$$$

     RDKit          2D

 14 15  0  0  0  0  0  0  0  0999 V2000
   -1.6700   -0.9600    0.0000 C   0  0  0  0  0  0  0  0  0  0  0  0
   -1.6700    0.5400    0.0000 C   0  0  0  0  0  0  0  0  0  0  0  0
   -0.3700   -1.7100    0.0000 C   0  0  0  0  0  0  0  0  0  0  0  0
   -0.3700    1.2900    0.0000 C   0  0  0  0  0  0  0  0  0  0  0  0
    0.9300   -0.9600    0.0000 C   0  0  0  0  0  0  0  0  0  0  0  0
    4.8281   -1.7112    0.0000 C   0  0  0  0  0  0  0  0  0  0  0  0
    6.1266    0.5396    0.0000 C   0  0  0  0  0  0  0  0  0  0  0  0
    3.5286   -0.9604    0.0000 C   0  0  0  0  0  0  0  0  0  0  0  0
    4.8271    1.2904    0.0000 C   0  0  0  0  0  0  0  0  0  0  0  0
    6.1271   -0.9612    0.0000 C   0  0  0  0  0  0  0  0  0  0  0  0
    0.9300    0.5400    0.0000 C   0  0  0  0  0  0  0  0  0  0  0  0
    3.5281    0.5404    0.0000 C   0  0  0  0  0  0  0  0  0  0  0  0
    7.4263   -1.7110    0.0000 Cl  0  0  0  0  0  0  0  0  0  0  0  0
    2.2289    1.2902    0.0000 O   0  0  0  0  0  0  0  0  0  0  0  0
  2  1  2  0
  3  1  1  0
  4  2  1  0
  5  3  2  0
  8  6  2  0
  9  7  1  0
 10  6  1  0
 10  7  2  0
 11  4  2  0
 11  5  1  0
 12  8  1  0
 12  9  2  0
 13 10  1  0
 14 11  1  0
 14 12  1  0
M  END
>  <NAME>  (5573) 
4-CHLOROPHENYL PHENYL ETHER

>  <SYNONYMS>  (5573) 


>  <SPECTRUM TYPE>  (5573) 
MS1

>  <INSTRUMENT TYPE>  (5573) 
EI-B

>  <INSTRUMENT>  (5573) 
JEOL JMS-01-SG

>  <ION MODE>  (5573) 
P

>  <INCHIKEY>  (5573) 
PGPNJCAMHOJTEF-UHFFFAOYSA-N

>  <FORMULA>  (5573) 
C12H9ClO

>  <EXACT MASS>  (5573) 
204.034192588

>  <MW>  (5573) 
204

>  <ID>  (5573) 
JP000965

>  <CONTRIBUTOR>  (5573) 
University of Tokyo Team, {Faculty of Engineering, University of Tokyo

>  <COMMENT>  (5573) 
SMILES=Clc(c2)ccc(c2)Oc(c1)cccc1
cas=7005-72-3
InChI=InChI=1S/C12H9ClO/c13-10-6-8-12(9-7-10)14-11-4-2-1-3-5-11/h1-9H
computed SMILES=ClC1=CC=C(OC=2C=CC=CC2)C=C1
accession=JP000965
date=2016.01.19 (Created 2008.10.21, modified 2011.05.06)
author=KOGA M, UNIV. OF OCCUPATIONAL AND ENVIRONMENTAL HEALTH
license=CC BY-NC-SA
exact mass=204.03419
ionization energy=70 eV
ion type=[M]+*
computed spectral entropy=2.586957457828526
computed normalized entropy=0.7464381390799869
SPLASH=splash10-0udi-4590000000-3b9a6537774326d15431
submitter=submitter = University of Tokyo Team (Faculty of Engineering, University of Tokyo)
MoNA Rating=3.75

>  <NUM PEAKS>  (5573) 
32

>  <MASS SPECTRAL PEAKS>  (5573) 
50 10.3
51 20.3
62 3.2
63 0.9
64 2.4
65 5.3
70 5.1
73 0.48
74 5.3
75 12.7
76 2.9
77 2.87
78 2.2
84 3.8
99 6.1
101 0.22
111 3.2
115 12.7
128 3.4
139 0.7
140 2.2
141 50
142 7.2
168 0.75
169 11.5
175 2.7
176 6.4
178 0.26
204 99.99
205 12
206 36.9
207 4.7

>  <PREDICTED SPECTRUM>  (5573) 
26 32
27 68
28 36
35 9
36 38
37 39
38 99
39 238
40 27
41 29
44 34
47 13
49 72
50 260
51 421
52 59
53 20
55 101
57 79
61 48
62 100
63 236
64 128
65 227
66 50
68 10
69 13
70 35
71 51
72 14
73 126
74 145
75 240
76 138
77 499
78 92
82 27
83 95
84 144
85 67
89 19
91 31
92 59
93 90
94 37
99 101
100 57
101 146
102 13
111 134
113 110
114 66
115 126
116 28
127 14
128 216
129 63
130 145
139 273
140 277
141 523
142 191
143 95
149 46
150 1
151 55
167 91
168 354
169 300
170 124
175 158
176 130
177 108
178 84
203 115
204 999
205 389
206 615
207 203
208 31

$$$$

     RDKit          2D

 14 15  0  0  0  0  0  0  0  0999 V2000
   -1.6700   -0.9600    0.0000 C   0  0  0  0  0  0  0  0  0  0  0  0
   -1.6700    0.5400    0.0000 C   0  0  0  0  0  0  0  0  0  0  0  0
   -0.3700   -1.7100    0.0000 C   0  0  0  0  0  0  0  0  0  0  0  0
   -0.3700    1.2900    0.0000 C   0  0  0  0  0  0  0  0  0  0  0  0
    0.9300   -0.9600    0.0000 C   0  0  0  0  0  0  0  0  0  0  0  0
    4.8281   -1.7112    0.0000 C   0  0  0  0  0  0  0  0  0  0  0  0
    6.1266    0.5396    0.0000 C   0  0  0  0  0  0  0  0  0  0  0  0
    3.5286   -0.9604    0.0000 C   0  0  0  0  0  0  0  0  0  0  0  0
    4.8271    1.2904    0.0000 C   0  0  0  0  0  0  0  0  0  0  0  0
    6.1271   -0.9612    0.0000 C   0  0  0  0  0  0  0  0  0  0  0  0
    0.9300    0.5400    0.0000 C   0  0  0  0  0  0  0  0  0  0  0  0
    3.5281    0.5404    0.0000 C   0  0  0  0  0  0  0  0  0  0  0  0
    7.4263   -1.7110    0.0000 Br  0  0  0  0  0  0  0  0  0  0  0  0
    2.2289    1.2902    0.0000 O   0  0  0  0  0  0  0  0  0  0  0  0
  2  1  2  0
  3  1  1  0
  4  2  1  0
  5  3  2  0
  8  6  2  0
  9  7  1  0
 10  6  1  0
 10  7  2  0
 11  4  2  0
 11  5  1  0
 12  8  1  0
 12  9  2  0
 13 10  1  0
 14 11  1  0
 14 12  1  0
M  END
>  <NAME>  (5574) 
4-BROMOPHENYL PHENYL ETHER

>  <SYNONYMS>  (5574) 


>  <SPECTRUM TYPE>  (5574) 
MS1

>  <INSTRUMENT TYPE>  (5574) 
EI-B

>  <INSTRUMENT>  (5574) 
JEOL JMS-01-SG

>  <ION MODE>  (5574) 
P

>  <INCHIKEY>  (5574) 
JDUYPUMQALQRCN-UHFFFAOYSA-N

>  <FORMULA>  (5574) 
C12H9BrO

>  <EXACT MASS>  (5574) 
247.983677008

>  <MW>  (5574) 
248

>  <ID>  (5574) 
JP000964

>  <CONTRIBUTOR>  (5574) 
University of Tokyo Team, {Faculty of Engineering, University of Tokyo

>  <COMMENT>  (5574) 
SMILES=c(c2)ccc(c2)Oc(c1)ccc(Br)c1
cas=101-55-3
InChI=InChI=1S/C12H9BrO/c13-10-6-8-12(9-7-10)14-11-4-2-1-3-5-11/h1-9H
computed SMILES=BrC1=CC=C(OC=2C=CC=CC2)C=C1
accession=JP000964
date=2016.01.19 (Created 2008.10.21, modified 2011.05.06)
author=KOGA M, UNIV. OF OCCUPATIONAL AND ENVIRONMENTAL HEALTH
license=CC BY-NC-SA
exact mass=247.98368
ionization energy=70 eV
ion type=[M]+*
computed spectral entropy=2.875258895696999
computed normalized entropy=0.774256926767739
SPLASH=splash10-0f95-9550000000-8818bfd4d6daeeeafd34
submitter=submitter = University of Tokyo Team (Faculty of Engineering, University of Tokyo)
MoNA Rating=3.75

>  <NUM PEAKS>  (5574) 
41

>  <MASS SPECTRAL PEAKS>  (5574) 
50 24.4
51 37.3
52 2.4
61 0.21
62 6.5
63 22.5
64 9.2
65 0.92
66 2.9
70 5.5
74 10.1
75 1.68
76 17.6
77 58.5
78 4.3
89 0.21
92 3.3
93 2.1
94 3.3
115 2.93
116 3.2
117 3.2
119 2.7
139 1.31
140 3.9
141 69.5
142 8.7
143 0.74
145 6.7
155 4
157 4
168 1.46
169 12.5
172 4.5
174 4.3
220 0.48
222 4.6
248 99.99
249 14
250 8.86
251 13.5

>  <PREDICTED SPECTRUM>  (5574) 
17 4
25 9
26 49
27 79
28 33
32 8
37 64
38 146
39 247
40 45
41 38
43 2
49 38
50 314
51 411
52 95
53 97
55 39
57 36
61 81
62 183
63 367
64 226
65 240
66 96
67 6
69 19
70 38
71 34
73 18
74 189
75 266
76 252
77 510
78 220
79 68
80 17
81 36
83 41
84 112
85 34
86 45
87 18
89 39
90 105
91 146
92 144
93 165
94 89
95 31
97 18
98 85
99 67
100 55
101 82
102 123
107 17
109 22
112 24
113 76
114 107
115 166
116 44
117 17
118 43
119 16
121 25
122 28
123 7
126 23
127 66
129 33
134 70
135 9
136 26
139 231
140 142
141 341
142 142
143 143
144 35
145 20
150 29
151 82
152 110
153 66
154 90
155 143
157 86
168 185
169 249
170 94
171 68
172 42
195 32
215 14
216 18
219 82
220 74
221 127
222 80
231 36
233 74
247 160
248 968
249 408
250 999
251 381
252 191
253 26

$$$$

     RDKit          2D

  9  8  0  0  0  0  0  0  0  0999 V2000
    2.0490    4.0981    0.0000 C   0  0  0  0  0  0  0  0  0  0  0  0
    2.0490    1.0981    0.0000 C   0  0  0  0  0  0  0  0  0  0  0  0
   -1.5000    2.0490    0.0000 C   0  0  0  0  0  0  0  0  0  0  0  0
   -0.9510    0.0000    0.0000 C   0  0  0  0  0  0  0  0  0  0  0  0
    2.0490    2.5981    0.0000 C   0  0  0  0  0  0  0  0  0  0  0  0
   -0.2010    1.2990    0.0000 C   0  0  0  0  0  0  0  0  0  0  0  0
    3.5490    2.5981    0.0000 Cl  0  0  0  0  0  0  0  0  0  0  0  0
    1.0981    0.5490    0.0000 Cl  0  0  0  0  0  0  0  0  0  0  0  0
    0.5490    2.5981    0.0000 O   0  0  0  0  0  0  0  0  0  0  0  0
  5  1  1  0
  5  2  1  0
  6  3  1  0
  6  4  1  0
  7  5  1  0
  8  6  1  0
  9  5  1  0
  9  6  1  0
M  END
>  <NAME>  (5575) 
2,2'-OXYBIS(2-CHLORO)PROPANE

>  <SYNONYMS>  (5575) 
BIS(2-CHLORO-2-PROPYL) ETHER

>  <SPECTRUM TYPE>  (5575) 
MS1

>  <INSTRUMENT TYPE>  (5575) 
EI-B

>  <INSTRUMENT>  (5575) 
JEOL JMS-01-SG

>  <ION MODE>  (5575) 
P

>  <INCHIKEY>  (5575) 
BULHJTXRZFEUDQ-UHFFFAOYSA-N

>  <FORMULA>  (5575) 
C6H12Cl2O

>  <EXACT MASS>  (5575) 
170.026520364

>  <MW>  (5575) 
170

>  <ID>  (5575) 
JP000963

>  <CONTRIBUTOR>  (5575) 
University of Tokyo Team, {Faculty of Engineering, University of Tokyo

>  <COMMENT>  (5575) 
SMILES=CC(C)(Cl)OC(C)(C)Cl
cas=39638-32-9
InChI=InChI=1S/C6H12Cl2O/c1-5(2,7)9-6(3,4)8/h1-4H3
computed SMILES=ClC(OC(Cl)(C)C)(C)C
accession=JP000963
date=2016.01.19 (Created 2008.10.21, modified 2011.05.06)
author=KOGA M, UNIV. OF OCCUPATIONAL AND ENVIRONMENTAL HEALTH
license=CC BY-NC-SA
exact mass=170.02652
ionization energy=70 eV
ion type=[M]+*
computed spectral entropy=2.121280293603992
computed normalized entropy=0.696753049778869
SPLASH=splash10-006w-9400000000-3c810548cdc38782d29b
submitter=submitter = University of Tokyo Team (Faculty of Engineering, University of Tokyo)
MoNA Rating=3.75

>  <NUM PEAKS>  (5575) 
21

>  <MASS SPECTRAL PEAKS>  (5575) 
41 64.1
42 8.3
43 10.5
45 99.99
46 2
49 11.1
51 3.5
57 0.21
59 2.5
71 3.5
76 2.2
77 2.64
79 18.3
81 3.2
89 2.1
93 0.24
107 10.7
109 3
121 69.1
122 0.37
123 24

>  <PREDICTED SPECTRUM>  (5575) 
14 9
15 23
25 16
26 78
27 236
28 73
29 378
31 74
35 26
36 70
37 21
38 50
39 213
40 79
41 478
42 167
43 158
44 86
50 45
51 90
52 12
53 108
54 15
55 271
56 346
57 999
58 137
59 30
61 45
63 78
65 49
67 23
69 88
70 8
71 81
78 41
79 44
83 88
85 151
87 83
98 1
99 34
113 43
141 165
142 9
143 143
145 13
155 59
157 90
159 28

$$$$

     RDKit          2D

  9  8  0  0  0  0  0  0  0  0999 V2000
    1.2990    5.2500    0.0000 C   0  0  0  0  0  0  0  0  0  0  0  0
   -6.4952    5.2500    0.0000 C   0  0  0  0  0  0  0  0  0  0  0  0
    0.0000    4.5000    0.0000 C   0  0  0  0  0  0  0  0  0  0  0  0
   -5.1962    4.5000    0.0000 C   0  0  0  0  0  0  0  0  0  0  0  0
   -2.5981    4.5000    0.0000 C   0  0  0  0  0  0  0  0  0  0  0  0
    2.5981    4.5000    0.0000 Cl  0  0  0  0  0  0  0  0  0  0  0  0
   -7.7942    4.5000    0.0000 Cl  0  0  0  0  0  0  0  0  0  0  0  0
   -1.2990    5.2500    0.0000 O   0  0  0  0  0  0  0  0  0  0  0  0
   -3.8971    5.2500    0.0000 O   0  0  0  0  0  0  0  0  0  0  0  0
  3  1  1  0
  4  2  1  0
  6  1  1  0
  7  2  1  0
  8  3  1  0
  8  5  1  0
  9  4  1  0
  9  5  1  0
M  END
>  <NAME>  (5576) 
BIS(2-CHLOROETHOXY)METHANE

>  <SYNONYMS>  (5576) 


>  <SPECTRUM TYPE>  (5576) 
MS1

>  <INSTRUMENT TYPE>  (5576) 
EI-B

>  <INSTRUMENT>  (5576) 
JEOL JMS-01-SG

>  <ION MODE>  (5576) 
P

>  <INCHIKEY>  (5576) 
NLXGURFLBLRZRO-UHFFFAOYSA-N

>  <FORMULA>  (5576) 
C5H10Cl2O2

>  <EXACT MASS>  (5576) 
172.00578492

>  <MW>  (5576) 
172

>  <ID>  (5576) 
JP000962

>  <CONTRIBUTOR>  (5576) 
University of Tokyo Team, {Faculty of Engineering, University of Tokyo

>  <COMMENT>  (5576) 
SMILES=ClCCOCOCCCl
cas=111-91-1
InChI=InChI=1S/C5H10Cl2O2/c6-1-3-8-5-9-4-2-7/h1-5H2
computed SMILES=ClCCOCOCCCl
accession=JP000962
date=2016.01.19 (Created 2008.10.21, modified 2011.05.06)
author=KOGA M, UNIV. OF OCCUPATIONAL AND ENVIRONMENTAL HEALTH
license=CC BY-NC-SA
exact mass=172.00578
ionization energy=70 eV
ion type=[M]+*
computed spectral entropy=1.8503500923261527
computed normalized entropy=0.6832776185511765
SPLASH=splash10-01ox-9100000000-c31715bf440cf579c172
submitter=submitter = University of Tokyo Team (Faculty of Engineering, University of Tokyo)
MoNA Rating=3.75

>  <NUM PEAKS>  (5576) 
15

>  <MASS SPECTRAL PEAKS>  (5576) 
43 2.8
44 3.8
49 4.5
61 0.21
62 3.2
63 68.7
65 22.1
93 99.99
94 3.4
95 30.4
96 2.1
106 0.49
123 24.9
125 7.2
171 3

>  <PREDICTED SPECTRUM>  (5576) 
14 60
15 95
16 12
17 31
18 61
19 28
25 34
26 146
27 418
28 193
29 295
31 391
32 20
33 30
35 24
36 74
37 64
38 125
39 76
40 38
41 40
42 97
43 271
44 125
45 382
46 106
47 80
48 50
49 271
50 142
51 221
53 29
59 222
60 1
61 136
62 308
63 999
64 340
65 506
66 70
67 86
73 116
75 9
77 12
79 123
80 22
81 57
93 250
95 226
96 21
97 128
99 29
105 55
107 104
109 160
110 50
111 33
123 302
125 203
127 149
157 71

$$$$

     RDKit          2D

 19 23  0  0  1  0  0  0  0  0999 V2000
   -3.5977    0.7598    0.0000 C   0  0  0  0  0  0  0  0  0  0  0  0
   -4.0177    2.2698    0.0000 C   0  0  0  0  0  0  0  0  0  0  0  0
   -4.0177   -0.7302    0.0000 C   0  0  0  0  0  0  0  0  0  0  0  0
   -2.7177    1.5198    0.0000 C   0  0  0  0  0  0  0  0  0  0  0  0
   -2.7177    0.0198    0.0000 C   0  0  0  0  0  0  0  0  0  0  0  0
   -5.3177    1.5198    0.0000 C   0  0  0  0  0  0  0  0  0  0  0  0
   -5.3177    0.0198    0.0000 C   0  0  0  0  0  0  0  0  0  0  0  0
   -0.1177    1.5198    0.0000 C   0  0  0  0  0  0  0  0  0  0  0  0
   -0.1177    0.0198    0.0000 C   0  0  0  0  0  0  0  0  0  0  0  0
   -1.4177    2.2698    0.0000 C   0  0  0  0  0  0  0  0  0  0  0  0
   -1.4177   -0.7302    0.0000 C   0  0  0  0  0  0  0  0  0  0  0  0
   -0.9077    0.7798    0.0000 C   0  0  0  0  0  0  0  0  0  0  0  0
    1.5968    2.5101    0.0000 Cl  0  0  0  0  0  0  0  0  0  0  0  0
    1.5968   -0.9705    0.0000 Cl  0  0  0  0  0  0  0  0  0  0  0  0
   -1.4177    3.7698    0.0000 Cl  0  0  0  0  0  0  0  0  0  0  0  0
   -1.4177   -2.2302    0.0000 Cl  0  0  0  0  0  0  0  0  0  0  0  0
    0.2814   -1.9090    0.0000 Cl  0  0  0  0  0  0  0  0  0  0  0  0
    2.0141    1.1063    0.0000 Cl  0  0  0  0  0  0  0  0  0  0  0  0
   -6.6177    0.7698    0.0000 O   0  0  0  0  0  0  0  0  0  0  0  0
  2  1  1  1
  3  1  1  1
  4  2  1  0
  5  3  1  0
  5  4  1  0
  6  2  1  0
  7  3  1  0
  7  6  1  0
  9  8  2  0
  4 10  1  6
 10  8  1  0
  5 11  1  6
 11  9  1  0
 12 10  1  0
 12 11  1  0
 13  8  1  0
 14  9  1  0
 10 15  1  1
 11 16  1  1
 17 12  1  0
 18 12  1  0
  6 19  1  1
  7 19  1  1
M  END
>  <NAME>  (5577) 
1,2,3,4,10,10-HEXACHLORO-6,7-EPOXY-1,4,4A,5,6,7,8,8A-OCTAHYDRO-ENDO,ENDO-,1,4:5,8-DIMETHANONAPHTHALENE

>  <SYNONYMS>  (5577) 
ENDRIN

>  <SPECTRUM TYPE>  (5577) 
MS1

>  <INSTRUMENT TYPE>  (5577) 
EI-B

>  <INSTRUMENT>  (5577) 
JEOL JMS-01-SG

>  <ION MODE>  (5577) 
P

>  <INCHIKEY>  (5577) 
DFBKLUNHFCTMDC-GKRDHZSOSA-N

>  <FORMULA>  (5577) 
C12H8Cl6O

>  <EXACT MASS>  (5577) 
377.870630956

>  <MW>  (5577) 
378

>  <ID>  (5577) 
JP000960

>  <CONTRIBUTOR>  (5577) 
University of Tokyo Team, {Faculty of Engineering, University of Tokyo

>  <COMMENT>  (5577) 
SMILES=ClC(=C(Cl)1)C(Cl)(C(Cl)(Cl)2)C([H])(C([H])54)C([H])(C([H])(C5)C([H])(O3)C([H])34)C(Cl)12
cas=72-20-8
InChI=InChI=1S/C12H8Cl6O/c13-8-9(14)11(16)5-3-1-2(6-7(3)19-6)4(5)10(8,15)12(11,17)18/h2-7H,1H2/t2-,3+,4-,5+,6-,7+,10-,11+
computed SMILES=ClC1=C(Cl)C2(Cl)C3C4CC(C5OC54)C3C1(Cl)C2(Cl)Cl
accession=JP000960
date=2016.01.19 (Created 2008.10.21, modified 2011.05.06)
author=KOGA M, UNIV. OF OCCUPATIONAL AND ENVIRONMENTAL HEALTH
license=CC BY-NC-SA
exact mass=377.87063
ionization energy=70 eV
ion type=[M]+*
computed spectral entropy=4.800208547093479
computed normalized entropy=0.8907301271450933
SPLASH=splash10-014i-9853000000-1dea6686531cd948b9c7
submitter=submitter = University of Tokyo Team (Faculty of Engineering, University of Tokyo)
MoNA Rating=3.75

>  <NUM PEAKS>  (5577) 
219

>  <MASS SPECTRAL PEAKS>  (5577) 
50 11.9
51 17.4
52 3.3
53 0.71
54 2.2
55 18.2
56 3
57 0.42
60 3.5
61 6.5
62 10.3
63 1.99
64 2.5
65 17.1
66 23.8
67 99.99
68 10.9
69 9.2
71 2.6
72 0.44
73 28.9
74 17.1
75 26.5
76 0.44
77 24.6
78 4.8
79 18.3
80 0.36
81 6.1
82 5.4
83 55.6
84 0.76
85 45.7
86 15.7
87 20.4
88 0.49
89 6.3
91 4.9
93 2.4
94 0.36
95 7.7
96 8.5
97 9.6
98 1.63
99 16.3
100 5.6
101 19.1
102 0.7
103 10.4
104 11.5
105 9.2
106 0.48
107 13.2
108 11.2
109 16.4
110 0.59
111 16.6
112 5.2
113 20.6
114 0.49
115 8.7
117 4.2
118 3.2
119 0.57
120 4.8
121 8.4
122 8.9
123 1.04
124 3.2
125 4.7
126 4.8
127 0.39
128 2.1
129 4.5
131 4.1
132 0.22
133 12.4
134 3.7
135 9.5
136 0.72
137 12.3
138 9.4
139 24.6
140 0.62
141 5
143 5.6
145 7.3
146 0.48
147 22.5
148 6.9
149 28.2
150 0.4
151 5.6
155 2.2
157 3.9
159 0.74
160 3.8
161 5.3
162 5.6
163 0.41
164 3.2
167 5.5
168 2.6
169 0.75
170 7.3
171 7.2
172 6.2
173 1.91
174 6.7
175 16.2
176 3.5
177 0.65
178 2.8
179 2.9
180 7.2
181 0.84
182 9.5
183 14
184 5.1
185 1.2
186 2.5
187 5.4
191 4.4
193 1.24
194 5.2
195 11.3
196 9.6
197 0.78
198 6.8
199 3.3
201 2.7
203 0.36
204 3.2
205 3.6
206 5.9
207 3.16
208 11.9
209 28.2
210 9.1
211 1.69
212 3.9
213 4.9
214 6
215 0.47
216 7.2
217 12
218 5.3
219 1.13
220 3.4
221 6
223 2.4
227 0.27
229 3.6
230 3.2
231 3.6
232 0.35
236 2.4
237 2.8
238 2.9
239 0.26
241 3.2
242 2.4
243 18
244 0.95
245 21.5
246 10.1
247 8.5
248 2.51
249 5.4
250 36.1
251 7.6
252 2.28
253 7
254 9.4
255 3.8
256 0.32
257 2
258 2.9
259 2.2
261 0.26
263 3.5
265 3.9
267 3.4
271 0.28
273 3.1
275 2.5
277 3.5
278 0.59
279 17.3
280 7.8
281 25.5
282 0.76
283 12.7
284 2.8
285 3.7
307 0.45
309 5.6
311 4.5
313 3
315 3.33
316 5.5
317 50.8
318 7
319 3.37
320 9.1
323 2.1
343 21.7
344 0.51
345 35.6
346 5.9
347 24.5
348 0.3
349 7.1
350 2.8
352 2.8
354 0.22
378 2.8
380 6
382 4.8

>  <PREDICTED SPECTRUM>  (5577) 
14 27
15 61
16 7
17 21
18 20
25 41
26 186
27 323
28 200
29 491
31 131
34 0
35 135
36 394
37 158
38 244
39 532
40 234
41 631
42 266
43 372
44 93
45 209
47 186
48 96
49 341
50 275
51 499
52 296
53 624
54 404
55 644
56 412
57 697
58 114
59 32
60 261
61 339
62 334
63 361
64 61
65 378
66 285
67 592
68 436
69 636
70 354
71 516
72 266
73 537
74 325
75 496
76 101
77 511
78 231
79 635
80 432
81 892
82 520
83 731
84 578
85 756
86 425
87 356
88 163
89 225
90 96
91 381
92 313
93 312
94 237
95 532
96 486
97 544
98 546
99 743
100 294
101 276
102 156
103 225
104 135
105 311
106 266
107 665
108 540
109 790
110 456
111 577
112 237
113 696
114 246
115 312
116 138
117 614
118 455
119 478
120 305
121 348
122 304
123 367
124 201
125 355
126 303
127 288
128 166
129 288
130 243
131 437
132 284
133 369
134 127
135 292
136 154
137 224
138 211
139 347
140 137
141 460
142 150
143 423
144 209
145 450
146 132
147 377
148 175
149 481
150 210
151 262
152 153
153 177
154 149
155 238
156 42
157 379
158 128
159 271
160 122
161 265
162 220
163 230
164 180
165 368
166 144
167 387
168 262
169 209
170 142
171 200
172 113
173 293
174 8
175 176
176 80
177 371
178 295
179 389
180 344
181 350
182 207
183 366
184 186
185 184
186 85
187 160
188 55
189 71
190 138
191 478
192 222
193 452
194 267
195 379
196 463
197 139
198 235
199 207
200 291
201 304
202 191
203 400
204 195
205 325
206 439
207 411
208 272
209 468
210 219
211 299
212 291
213 290
214 266
215 366
216 202
217 437
218 336
219 572
220 396
221 464
222 84
223 156
224 21
225 226
226 155
227 318
228 359
229 578
230 361
231 369
232 575
233 194
234 130
235 899
236 348
237 984
238 450
239 682
240 302
241 277
242 287
243 562
244 349
245 571
246 436
247 572
248 507
249 501
250 457
251 400
252 348
253 379
254 179
255 288
256 161
257 225
258 100
259 298
260 150
261 833
262 456
263 999
264 520
265 850
266 543
267 531
268 215
269 60
270 613
271 288
272 816
273 303
274 737
275 479
276 540
277 635
278 427
279 867
280 389
281 735
282 447
283 532
284 517
285 516
286 396
287 499
288 200
289 318
290 150
291 283
292 123
293 159
295 203
297 198
298 279
299 187
300 116
301 255
302 167
303 171
305 39
306 63
307 465
308 132
309 540
310 106
311 502
312 327
313 588
314 311
315 584
316 257
317 570
318 164
319 392
320 81
321 201
323 226
325 406
327 461
328 185
329 277
330 99
331 249
333 49
334 38
335 43
337 5
339 47
341 45
342 338
343 937
344 435
345 251
346 323
347 586
348 212
349 367
350 185
351 300
352 93
353 184
354 25
363 24
364 80
378 353
379 166
380 354
381 203
382 500
383 134

$$$$

     RDKit          2D

 16 17  0  0  0  0  0  0  0  0999 V2000
   -1.3000    0.7500    0.0000 C   0  0  0  0  0  0  0  0  0  0  0  0
   -2.5989   -3.0002    0.0000 C   0  0  0  0  0  0  0  0  0  0  0  0
    0.0000    1.5000    0.0000 C   0  0  0  0  0  0  0  0  0  0  0  0
   -3.8989   -3.7502    0.0000 C   0  0  0  0  0  0  0  0  0  0  0  0
   -0.0000   -1.5000    0.0000 C   0  0  0  0  0  0  0  0  0  0  0  0
   -3.8989   -0.7502    0.0000 C   0  0  0  0  0  0  0  0  0  0  0  0
   -1.3000   -0.7500    0.0000 C   0  0  0  0  0  0  0  0  0  0  0  0
   -2.5989   -1.5002    0.0000 C   0  0  0  0  0  0  0  0  0  0  0  0
    1.3000   -0.7500    0.0000 C   0  0  0  0  0  0  0  0  0  0  0  0
   -5.1989   -1.5002    0.0000 C   0  0  0  0  0  0  0  0  0  0  0  0
    1.3000    0.7500    0.0000 C   0  0  0  0  0  0  0  0  0  0  0  0
   -5.1989   -3.0002    0.0000 C   0  0  0  0  0  0  0  0  0  0  0  0
    2.5989   -1.5002    0.0000 Cl  0  0  0  0  0  0  0  0  0  0  0  0
   -6.4978   -0.7500    0.0000 Cl  0  0  0  0  0  0  0  0  0  0  0  0
    2.5989    1.5002    0.0000 N   0  0  0  0  0  0  0  0  0  0  0  0
   -6.4978   -3.7504    0.0000 N   0  0  0  0  0  0  0  0  0  0  0  0
  3  1  2  0
  4  2  2  0
  7  1  1  0
  7  5  2  0
  8  2  1  0
  8  6  2  0
  8  7  1  0
  9  5  1  0
 10  6  1  0
 11  3  1  0
 11  9  2  0
 12  4  1  0
 12 10  2  0
 13  9  1  0
 14 10  1  0
 15 11  1  0
 16 12  1  0
M  END
>  <NAME>  (5578) 
3,3'-DICHLOROBENZIDINE

>  <SYNONYMS>  (5578) 
4,4'-DIAMINO-3,3'-DICHLOROBIPHENYL

>  <SPECTRUM TYPE>  (5578) 
MS1

>  <INSTRUMENT TYPE>  (5578) 
EI-B

>  <INSTRUMENT>  (5578) 
JEOL JMS-01-SG

>  <ION MODE>  (5578) 
P

>  <INCHIKEY>  (5578) 
HUWXDEQWWKGHRV-UHFFFAOYSA-N

>  <FORMULA>  (5578) 
C12H10Cl2N2

>  <EXACT MASS>  (5578) 
252.02210368

>  <MW>  (5578) 
252

>  <ID>  (5578) 
JP000959

>  <CONTRIBUTOR>  (5578) 
University of Tokyo Team, {Faculty of Engineering, University of Tokyo

>  <COMMENT>  (5578) 
SMILES=Nc(c2)c(Cl)cc(c2)c(c1)cc(Cl)c(N)c1
cas=91-94-1
InChI=InChI=1S/C12H10Cl2N2/c13-9-5-7(1-3-11(9)15)8-2-4-12(16)10(14)6-8/h1-6H,15-16H2
computed SMILES=ClC=1C=C(C=CC1N)C2=CC=C(N)C(Cl)=C2
accession=JP000959
date=2016.01.19 (Created 2008.10.21, modified 2011.05.06)
author=KOGA M, UNIV. OF OCCUPATIONAL AND ENVIRONMENTAL HEALTH
license=CC BY-NC-SA
exact mass=252.0221
ionization energy=70 eV
ion type=[M]+*
computed spectral entropy=3.070916998140574
computed normalized entropy=0.7470229200910132
SPLASH=splash10-0udi-2490000000-f4b5d329208c866ae89e
submitter=submitter = University of Tokyo Team (Faculty of Engineering, University of Tokyo)
MoNA Rating=3.75

>  <NUM PEAKS>  (5578) 
61

>  <MASS SPECTRAL PEAKS>  (5578) 
50 2.6
51 3.5
52 4.1
54 0.2
55 2.6
62 2.3
63 7.6
64 0.23
65 2.6
73 2.3
74 3.5
75 0.47
76 5
77 9.6
78 2
82 0.23
87 2.3
89 2.3
90 3.5
91 1.26
94 2.3
95 2.6
98 2.3
99 0.23
100 2.3
101 3.8
102 2.9
108 0.56
109 3.8
117 4.4
125 2.6
126 1.73
127 15.5
128 4.7
129 2
130 0.2
131 2
151 2.3
152 4.4
153 0.47
154 13.7
155 4.1
164 4.4
165 0.23
179 2.6
181 10.8
182 9.9
183 0.23
188 2.9
190 4.1
215 5
216 0.58
217 4.7
224 2.3
226 2
251 0.61
252 99.99
253 17.8
254 59.1
255 0.88
256 9.6

>  <PREDICTED SPECTRUM>  (5578) 
26 13
27 23
28 37
29 4
33 1
34 0
35 31
36 69
37 41
38 85
39 112
40 48
41 95
42 60
43 57
44 32
45 20
47 36
49 68
50 160
51 238
52 179
53 121
54 47
55 37
56 13
57 37
60 68
61 121
62 199
63 280
64 142
65 137
66 77
67 49
68 71
69 85
70 53
71 42
72 60
73 97
74 146
75 222
76 138
77 188
78 126
79 71
80 101
81 82
82 110
83 64
84 120
85 79
86 94
87 119
88 158
89 142
90 153
91 45
92 86
93 76
94 69
95 87
96 126
97 136
98 102
99 125
100 66
101 77
102 97
103 60
104 85
105 91
106 78
107 108
108 44
109 127
110 120
111 134
112 68
113 60
114 100
115 71
116 22
117 76
118 114
119 40
120 20
121 48
122 50
123 101
124 75
125 64
126 98
127 128
128 140
129 105
130 56
131 3
136 11
137 24
138 53
139 80
140 119
141 44
142 74
145 11
147 17
148 21
149 73
150 28
151 58
152 46
153 132
154 131
155 150
156 27
157 40
161 4
162 48
163 58
164 123
165 150
166 140
167 111
176 1
177 63
178 74
179 192
180 222
181 387
182 708
183 208
184 255
185 11
186 80
187 13
188 31
189 124
190 115
191 50
192 42
200 41
201 143
202 223
203 133
204 104
205 11
206 7
215 81
216 221
217 248
218 167
219 162
220 49
221 12
224 18
225 16
226 74
227 41
236 38
237 14
251 148
252 999
253 401
254 851
255 338
256 414
257 136

$$$$

     RDKit          2D

  5  4  0  0  0  0  0  0  0  0999 V2000
    0.0000    1.5000    0.0000 C   0  0  0  0  0  0  0  0  0  0  0  0
   -1.2990    2.2500    0.0000 C   0  0  0  0  0  0  0  0  0  0  0  0
   -0.0000   -0.0000    0.0000 Cl  0  0  0  0  0  0  0  0  0  0  0  0
   -1.2990    3.7500    0.0000 Cl  0  0  0  0  0  0  0  0  0  0  0  0
   -2.5981    1.5000    0.0000 Cl  0  0  0  0  0  0  0  0  0  0  0  0
  2  1  1  0
  3  1  1  0
  4  2  1  0
  5  2  1  0
M  END
>  <NAME>  (5579) 
1,1,2-TRICHLOROETHANE

>  <SYNONYMS>  (5579) 


>  <SPECTRUM TYPE>  (5579) 
MS1

>  <INSTRUMENT TYPE>  (5579) 
EI-B

>  <INSTRUMENT>  (5579) 
JEOL JMS-01-SG

>  <ION MODE>  (5579) 
P

>  <INCHIKEY>  (5579) 
UBOXGVDOUJQMTN-UHFFFAOYSA-N

>  <FORMULA>  (5579) 
C2H3Cl3

>  <EXACT MASS>  (5579) 
131.930033136

>  <MW>  (5579) 
132

>  <ID>  (5579) 
JP000958

>  <CONTRIBUTOR>  (5579) 
University of Tokyo Team, {Faculty of Engineering, University of Tokyo

>  <COMMENT>  (5579) 
SMILES=ClCC(Cl)Cl
cas=79-00-5
InChI=InChI=1S/C2H3Cl3/c3-1-2(4)5/h2H,1H2
computed SMILES=ClCC(Cl)Cl
accession=JP000958
date=2016.01.19 (Created 2008.10.21, modified 2011.05.06)
author=KOGA M, UNIV. OF OCCUPATIONAL AND ENVIRONMENTAL HEALTH
license=CC BY-NC-SA
exact mass=131.93003
ionization energy=70 eV
ion type=[M]+*
computed spectral entropy=2.473915995194802
computed normalized entropy=0.7593132880884852
SPLASH=splash10-0002-9000000000-b36dd60ff3a07b029065
submitter=submitter = University of Tokyo Team (Faculty of Engineering, University of Tokyo)
MoNA Rating=3.75

>  <NUM PEAKS>  (5579) 
26

>  <MASS SPECTRAL PEAKS>  (5579) 
25 2.9
26 10.2
27 7.8
35 0.75
36 2.3
37 2.6
47 4.1
48 0.32
49 7.8
60 9.3
61 54.7
62 0.96
63 17.7
83 76
85 53
87 0.78
95 5
96 28.3
97 99.99
98 2.06
99 61.7
100 4.4
101 9.8
132 1.57
134 15.8
136 4.9

>  <PREDICTED SPECTRUM>  (5579) 
14 55
25 123
26 178
27 495
28 153
32 23
35 410
36 419
37 349
38 393
39 319
41 61
47 324
48 245
49 845
50 397
51 784
52 207
53 178
55 35
60 83
61 791
62 522
63 649
64 274
65 205
67 153
68 61
69 6
75 71
81 5
83 946
85 692
87 442
95 10
96 714
97 999
98 510
99 533
100 200
101 138
132 242
134 153

$$$$

     RDKit          2D

  5  4  0  0  0  0  0  0  0  0999 V2000
   -1.2990    0.7500    0.0000 C   0  0  0  0  0  0  0  0  0  0  0  0
    0.0000    1.5000    0.0000 C   0  0  0  0  0  0  0  0  0  0  0  0
    0.7500    0.2010    0.0000 Cl  0  0  0  0  0  0  0  0  0  0  0  0
    1.2990    2.2500    0.0000 Cl  0  0  0  0  0  0  0  0  0  0  0  0
   -0.7500    2.7990    0.0000 Cl  0  0  0  0  0  0  0  0  0  0  0  0
  2  1  1  0
  3  2  1  0
  4  2  1  0
  5  2  1  0
M  END
>  <NAME>  (5580) 
1,1,1-TRICHLOROETHANE

>  <SYNONYMS>  (5580) 


>  <SPECTRUM TYPE>  (5580) 
MS1

>  <INSTRUMENT TYPE>  (5580) 
EI-B

>  <INSTRUMENT>  (5580) 
JEOL JMS-01-SG

>  <ION MODE>  (5580) 
P

>  <INCHIKEY>  (5580) 
UOCLXMDMGBRAIB-UHFFFAOYSA-N

>  <FORMULA>  (5580) 
C2H3Cl3

>  <EXACT MASS>  (5580) 
131.930033136

>  <MW>  (5580) 
132

>  <ID>  (5580) 
JP000957

>  <CONTRIBUTOR>  (5580) 
University of Tokyo Team, {Faculty of Engineering, University of Tokyo

>  <COMMENT>  (5580) 
SMILES=CC(Cl)(Cl)Cl
cas=71-55-6
InChI=InChI=1S/C2H3Cl3/c1-2(3,4)5/h1H3
computed SMILES=ClC(Cl)(Cl)C
accession=JP000957
date=2016.01.19 (Created 2008.10.21, modified 2011.05.06)
author=KOGA M, UNIV. OF OCCUPATIONAL AND ENVIRONMENTAL HEALTH
license=CC BY-NC-SA
exact mass=131.93003
ionization energy=70 eV
ion type=[M]+*
computed spectral entropy=2.054795874071044
computed normalized entropy=0.6978564978285775
SPLASH=splash10-0002-9000000000-acdd1de2f2f494cc9f33
submitter=submitter = University of Tokyo Team (Faculty of Engineering, University of Tokyo)
MoNA Rating=3.75

>  <NUM PEAKS>  (5580) 
19

>  <MASS SPECTRAL PEAKS>  (5580) 
25 3.7
26 11.8
27 7.5
35 0.87
36 2.7
37 3.3
47 3.8
60 0.96
61 51.2
62 6.9
63 16.3
82 0.23
97 99.99
98 3.2
99 60.9
101 1.02
117 10.7
119 10.2
121 3.3

>  <PREDICTED SPECTRUM>  (5580) 
14 37
15 109
25 56
26 131
27 195
28 82
29 64
32 27
35 185
36 227
37 195
38 186
39 13
40 30
41 179
42 112
44 34
47 221
48 73
49 236
50 6
51 130
52 30
53 69
55 1
57 7
59 26
60 81
61 462
62 130
63 313
64 71
65 31
69 23
70 96
71 127
73 104
75 75
81 71
82 218
83 136
84 136
85 134
95 7
96 148
97 999
98 165
99 962
100 157
101 473
103 80
107 4
117 299
119 239
121 136
132 205
133 38
134 207
135 10
136 101

$$$$

     RDKit          2D

  8  7  0  0  0  0  0  0  0  0999 V2000
    0.3750    0.8505    0.0000 C   0  0  0  0  0  0  0  0  0  0  0  0
    1.1250    2.1495    0.0000 C   0  0  0  0  0  0  0  0  0  0  0  0
    1.6740    0.1005    0.0000 Cl  0  0  0  0  0  0  0  0  0  0  0  0
   -0.9240    1.6005    0.0000 Cl  0  0  0  0  0  0  0  0  0  0  0  0
   -0.3750   -0.4486    0.0000 Cl  0  0  0  0  0  0  0  0  0  0  0  0
    2.4240    1.3995    0.0000 Cl  0  0  0  0  0  0  0  0  0  0  0  0
    1.8750    3.4486    0.0000 Cl  0  0  0  0  0  0  0  0  0  0  0  0
   -0.1740    2.8995    0.0000 Cl  0  0  0  0  0  0  0  0  0  0  0  0
  2  1  1  0
  3  1  1  0
  4  1  1  0
  5  1  1  0
  6  2  1  0
  7  2  1  0
  8  2  1  0
M  END
>  <NAME>  (5581) 
HEXACHLOROETHANE

>  <SYNONYMS>  (5581) 


>  <SPECTRUM TYPE>  (5581) 
MS1

>  <INSTRUMENT TYPE>  (5581) 
EI-B

>  <INSTRUMENT>  (5581) 
JEOL JMS-01-SG

>  <ION MODE>  (5581) 
P

>  <INCHIKEY>  (5581) 
VHHHONWQHHHLTI-UHFFFAOYSA-N

>  <FORMULA>  (5581) 
C2Cl6

>  <EXACT MASS>  (5581) 
233.81311608

>  <MW>  (5581) 
234

>  <ID>  (5581) 
JP000955

>  <CONTRIBUTOR>  (5581) 
University of Tokyo Team, {Faculty of Engineering, University of Tokyo

>  <COMMENT>  (5581) 
SMILES=ClC(Cl)(Cl)C(Cl)(Cl)Cl
cas=67-72-1
InChI=InChI=1S/C2Cl6/c3-1(4,5)2(6,7)8
computed SMILES=ClC(Cl)(Cl)C(Cl)(Cl)Cl
accession=JP000955
date=2016.01.19 (Created 2008.10.21, modified 2011.05.06)
author=KOGA M, UNIV. OF OCCUPATIONAL AND ENVIRONMENTAL HEALTH
license=CC BY-NC-SA
exact mass=233.81312
ionization energy=70 eV
ion type=[M]+*
computed spectral entropy=2.663416268348276
computed normalized entropy=0.8274367863995907
SPLASH=splash10-014j-4920000000-137222e716f44e0cd526
submitter=submitter = University of Tokyo Team (Faculty of Engineering, University of Tokyo)
MoNA Rating=3.75

>  <NUM PEAKS>  (5581) 
25

>  <MASS SPECTRAL PEAKS>  (5581) 
47 30.4
49 9.9
59 14
61 0.44
82 21.7
83 8.2
84 13.7
94 3.05
96 17.9
98 3
117 99.99
119 8.3
121 28.6
123 3.1
129 10.1
131 0.94
133 3.1
164 23.1
166 32.3
168 1.57
170 3.1
199 34.7
201 57.8
203 3.75
205 11.6

>  <PREDICTED SPECTRUM>  (5581) 
15 2
25 14
26 30
31 31
32 24
35 268
36 208
37 116
38 103
39 84
44 40
45 54
46 45
47 409
48 70
49 233
52 42
56 100
57 168
58 6
59 267
60 116
61 82
62 25
63 78
64 16
70 23
72 33
74 45
75 4
76 61
78 81
79 280
81 222
82 495
83 137
84 371
85 113
86 97
87 225
88 32
89 129
91 45
94 192
95 115
96 170
98 33
108 105
114 57
116 128
117 999
118 220
119 796
120 172
121 609
122 65
123 252
124 20
125 65
127 147
128 55
129 376
130 71
131 410
132 67
133 251
135 80
140 105
155 50
157 86
164 258
166 261
168 211
199 436
201 712
203 607
205 363
207 58

$$$$

     RDKit          2D

  4  3  0  0  0  0  0  0  0  0999 V2000
    0.9743    0.5625    0.0000 C   0  0  0  0  0  0  0  0  0  0  0  0
   -0.3248    1.3125    0.0000 C   0  0  0  0  0  0  0  0  0  0  0  0
   -1.6238    0.5625    0.0000 Cl  0  0  0  0  0  0  0  0  0  0  0  0
   -0.3248    2.8125    0.0000 Cl  0  0  0  0  0  0  0  0  0  0  0  0
  2  1  1  0
  3  2  1  0
  4  2  1  0
M  END
>  <NAME>  (5582) 
1,1-DICHLOROETHANE

>  <SYNONYMS>  (5582) 


>  <SPECTRUM TYPE>  (5582) 
MS1

>  <INSTRUMENT TYPE>  (5582) 
EI-B

>  <INSTRUMENT>  (5582) 
JEOL JMS-01-SG

>  <ION MODE>  (5582) 
P

>  <INCHIKEY>  (5582) 
SCYULBFZEHDVBN-UHFFFAOYSA-N

>  <FORMULA>  (5582) 
C2H4Cl2

>  <EXACT MASS>  (5582) 
97.969005488

>  <MW>  (5582) 
98

>  <ID>  (5582) 
JP000953

>  <CONTRIBUTOR>  (5582) 
University of Tokyo Team, {Faculty of Engineering, University of Tokyo

>  <COMMENT>  (5582) 
SMILES=CC(Cl)Cl
cas=75-34-3
InChI=InChI=1S/C2H4Cl2/c1-2(3)4/h2H,1H3
computed SMILES=ClC(Cl)C
accession=JP000953
date=2016.01.19 (Created 2008.10.21, modified 2011.05.06)
author=KOGA M, UNIV. OF OCCUPATIONAL AND ENVIRONMENTAL HEALTH
license=CC BY-NC-SA
exact mass=97.96901
ionization energy=70 eV
ion type=[M]+*
computed spectral entropy=2.026610410677775
computed normalized entropy=0.7011590827862567
SPLASH=splash10-03fr-9000000000-3f6cecc18b30923c43a7
submitter=submitter = University of Tokyo Team (Faculty of Engineering, University of Tokyo)
MoNA Rating=3.75

>  <NUM PEAKS>  (5582) 
18

>  <MASS SPECTRAL PEAKS>  (5582) 
25 3.1
26 13.2
27 42.8
28 0.37
35 5.8
36 2.9
37 2.4
47 0.29
60 3.5
61 8.9
62 8.4
63 99.99
64 4.2
65 31.4
83 12.9
85 0.83
98 6.8
100 3.6

>  <PREDICTED SPECTRUM>  (5582) 
14 56
15 25
25 84
26 146
27 531
28 173
35 236
36 239
37 193
38 116
39 70
41 126
42 82
44 107
47 200
48 148
49 266
51 217
60 71
61 243
62 212
63 999
64 286
65 630
66 42
67 35
83 285
85 96
87 69
98 379
99 5
100 252
102 38

$$$$

     RDKit          2D

  3  2  0  0  0  0  0  0  0  0999 V2000
   -1.2990    0.0000    0.0000 C   0  0  0  0  0  0  0  0  0  0  0  0
   -0.0000    0.7500    0.0000 C   0  0  0  0  0  0  0  0  0  0  0  0
    0.0000    2.2500    0.0000 Cl  0  0  0  0  0  0  0  0  0  0  0  0
  2  1  1  0
  3  2  1  0
M  END
>  <NAME>  (5583) 
CHLOROETHANE

>  <SYNONYMS>  (5583) 


>  <SPECTRUM TYPE>  (5583) 
MS1

>  <INSTRUMENT TYPE>  (5583) 
EI-B

>  <INSTRUMENT>  (5583) 
JEOL JMS-01-SG

>  <ION MODE>  (5583) 
P

>  <INCHIKEY>  (5583) 
HRYZWHHZPQKTII-UHFFFAOYSA-N

>  <FORMULA>  (5583) 
C2H5Cl

>  <EXACT MASS>  (5583) 
64.00797784

>  <MW>  (5583) 
64

>  <ID>  (5583) 
JP000952

>  <CONTRIBUTOR>  (5583) 
University of Tokyo Team, {Faculty of Engineering, University of Tokyo

>  <COMMENT>  (5583) 
SMILES=CCCl
cas=75-00-3
InChI=InChI=1S/C2H5Cl/c1-2-3/h2H2,1H3
computed SMILES=ClCC
accession=JP000952
date=2016.01.19 (Created 2008.10.21, modified 2011.05.06)
author=KOGA M, UNIV. OF OCCUPATIONAL AND ENVIRONMENTAL HEALTH
license=CC BY-NC-SA
exact mass=64.00798
ionization energy=70 eV
ion type=[M]+*
computed spectral entropy=2.157224391967576
computed normalized entropy=0.7326436062119644
SPLASH=splash10-004i-9000000000-189a942366091e0718c5
submitter=submitter = University of Tokyo Team (Faculty of Engineering, University of Tokyo)
MoNA Rating=3.75

>  <NUM PEAKS>  (5583) 
19

>  <MASS SPECTRAL PEAKS>  (5583) 
25 7.6
26 39.8
27 82.7
28 8.49
29 78.1
35 7.6
36 4.4
37 0.31
47 4.3
48 4.1
49 27
51 0.88
60 3.8
61 4
62 3.7
63 0.63
64 99.99
65 4.2
66 35

>  <PREDICTED SPECTRUM>  (5583) 
14 156
15 358
16 25
25 122
26 460
27 908
28 416
29 999
30 281
31 286
32 8
33 151
34 58
35 186
36 262
37 254
38 421
39 356
40 13
45 27
49 341
50 144
51 316
63 251
64 627
65 408
66 497
67 46

$$$$

     RDKit          2D

  9  9  0  0  0  0  0  0  0  0999 V2000
   -1.3000    0.7500    0.0000 C   0  0  0  0  0  0  0  0  0  0  0  0
    0.0000    1.5000    0.0000 C   0  0  0  0  0  0  0  0  0  0  0  0
   -0.0000   -1.5000    0.0000 C   0  0  0  0  0  0  0  0  0  0  0  0
   -1.3000   -0.7500    0.0000 C   0  0  0  0  0  0  0  0  0  0  0  0
    1.3000    0.7500    0.0000 C   0  0  0  0  0  0  0  0  0  0  0  0
    1.3000   -0.7500    0.0000 C   0  0  0  0  0  0  0  0  0  0  0  0
   -2.5989   -1.5002    0.0000 Cl  0  0  0  0  0  0  0  0  0  0  0  0
    2.5989    1.5002    0.0000 Cl  0  0  0  0  0  0  0  0  0  0  0  0
    2.5989   -1.5002    0.0000 Cl  0  0  0  0  0  0  0  0  0  0  0  0
  2  1  2  0
  4  1  1  0
  4  3  2  0
  5  2  1  0
  6  3  1  0
  6  5  2  0
  7  4  1  0
  8  5  1  0
  9  6  1  0
M  END
>  <NAME>  (5584) 
1,2,4-TRICHLOROBENZENE

>  <SYNONYMS>  (5584) 


>  <SPECTRUM TYPE>  (5584) 
MS1

>  <INSTRUMENT TYPE>  (5584) 
EI-B

>  <INSTRUMENT>  (5584) 
JEOL JMS-01-SG

>  <ION MODE>  (5584) 
P

>  <INCHIKEY>  (5584) 
PBKONEOXTCPAFI-UHFFFAOYSA-N

>  <FORMULA>  (5584) 
C6H3Cl3

>  <EXACT MASS>  (5584) 
179.930033136

>  <MW>  (5584) 
180

>  <ID>  (5584) 
JP000951

>  <CONTRIBUTOR>  (5584) 
University of Tokyo Team, {Faculty of Engineering, University of Tokyo

>  <COMMENT>  (5584) 
SMILES=Clc(c1)cc(Cl)c(Cl)c1
cas=120-82-1
InChI=InChI=1S/C6H3Cl3/c7-4-1-2-5(8)6(9)3-4/h1-3H
computed SMILES=ClC1=CC=C(Cl)C(Cl)=C1
accession=JP000951
date=2016.01.19 (Created 2008.10.21, modified 2011.05.06)
author=KOGA M, UNIV. OF OCCUPATIONAL AND ENVIRONMENTAL HEALTH
license=CC BY-NC-SA
exact mass=179.93003
ionization energy=70 eV
ion type=[M]+*
computed spectral entropy=2.4078292311928444
computed normalized entropy=0.7150631702004383
SPLASH=splash10-001i-2900000000-c9cb3f8f606230da9665
submitter=submitter = University of Tokyo Team (Faculty of Engineering, University of Tokyo)
MoNA Rating=3.75

>  <NUM PEAKS>  (5584) 
29

>  <MASS SPECTRAL PEAKS>  (5584) 
49 3.8
50 6.2
60 2.3
61 0.23
72 6.5
73 11.4
74 21.6
75 1.28
84 8.4
85 3.8
86 2.9
90 0.42
91 4.7
108 3.4
109 22.1
110 0.52
111 7.4
144 3
145 29
146 0.36
147 17.1
149 2.8
180 99.99
181 0.63
182 96.3
183 6.1
184 30.2
185 0.21
186 3

>  <PREDICTED SPECTRUM>  (5584) 
25 19
26 9
35 112
36 89
37 164
38 118
39 60
40 6
43 39
47 105
48 32
49 174
50 314
51 150
52 15
60 133
61 225
62 165
63 110
64 15
72 214
73 279
74 489
75 529
76 187
77 129
79 9
80 11
83 17
84 234
85 188
86 129
92 40
96 53
97 105
98 80
99 67
100 118
103 0
109 506
110 395
111 279
112 160
113 141
114 77
122 13
133 81
135 247
144 53
145 523
146 269
147 443
148 152
149 249
150 96
151 14
153 3
159 23
180 999
181 366
182 950
183 297
184 553
185 175

$$$$

     RDKit          2D

  5  4  0  0  0  0  0  0  0  0999 V2000
   -1.2990    2.2500    0.0000 C   0  0  0  0  0  0  0  0  0  0  0  0
   -2.5981    1.5000    0.0000 C   0  0  0  0  0  0  0  0  0  0  0  0
    0.0000    1.5000    0.0000 C   0  0  0  0  0  0  0  0  0  0  0  0
   -3.8971    2.2500    0.0000 Cl  0  0  0  0  0  0  0  0  0  0  0  0
    1.2990    2.2500    0.0000 Cl  0  0  0  0  0  0  0  0  0  0  0  0
  1  2  2  0
  3  1  1  0
  4  2  1  0
  5  3  1  0
M  END
>  <NAME>  (5585) 
1,3-DICHLOROPROPENE

>  <SYNONYMS>  (5585) 


>  <SPECTRUM TYPE>  (5585) 
MS1

>  <INSTRUMENT TYPE>  (5585) 
EI-B

>  <INSTRUMENT>  (5585) 
JEOL JMS-01-SG

>  <ION MODE>  (5585) 
P

>  <INCHIKEY>  (5585) 
UOORRWUZONOOLO-OWOJBTEDSA-N

>  <FORMULA>  (5585) 
C3H4Cl2

>  <EXACT MASS>  (5585) 
109.969005488

>  <MW>  (5585) 
110

>  <ID>  (5585) 
JP000943

>  <CONTRIBUTOR>  (5585) 
University of Tokyo Team, {Faculty of Engineering, University of Tokyo

>  <COMMENT>  (5585) 
SMILES=ClCC=CCl
cas=542-75-6
InChI=InChI=1S/C3H4Cl2/c4-2-1-3-5/h1-2H,3H2/b2-1+
computed SMILES=ClC=CCCl
accession=JP000943
date=2016.01.19 (Created 2008.10.21, modified 2011.05.06)
author=KOGA M, UNIV. OF OCCUPATIONAL AND ENVIRONMENTAL HEALTH
license=CC BY-NC-SA
exact mass=109.96901
ionization energy=70 eV
ion type=[M]+*
computed spectral entropy=1.9968337545891546
computed normalized entropy=0.7047947020221057
SPLASH=splash10-004i-9000000000-355c6cbb69f7195b26e7
submitter=submitter = University of Tokyo Team (Faculty of Engineering, University of Tokyo)
MoNA Rating=3.75

>  <NUM PEAKS>  (5585) 
17

>  <MASS SPECTRAL PEAKS>  (5585) 
35 3.2
36 4.7
37 12
38 1.39
39 50.5
40 2.2
47 3.6
48 0.34
49 21
51 6.5
73 6.3
75 99.99
76 2.7
77 28.6
83 2.8
110 1.98
112 12.4

>  <PREDICTED SPECTRUM>  (5585) 
14 61
15 53
25 63
26 123
27 161
28 82
29 58
31 0
32 20
33 12
35 143
36 128
37 184
38 128
39 789
40 220
41 229
42 102
45 8
46 71
47 192
48 176
49 345
50 191
51 210
54 5
55 80
56 28
57 10
58 76
59 56
60 152
61 253
62 48
63 196
64 21
70 48
71 8
72 60
73 169
74 207
75 999
76 297
77 599
78 139
79 70
82 15
83 47
84 34
85 18
86 34
109 36
110 309
111 88
112 270
113 51
114 123
115 15

$$$$

     RDKit          2D

  5  4  0  0  0  0  0  0  0  0999 V2000
    0.0000    0.0000    0.0000 C   0  0  0  0  0  0  0  0  0  0  0  0
   -1.2990    2.2500    0.0000 C   0  0  0  0  0  0  0  0  0  0  0  0
    0.0000    1.5000    0.0000 C   0  0  0  0  0  0  0  0  0  0  0  0
   -1.2990    3.7500    0.0000 Cl  0  0  0  0  0  0  0  0  0  0  0  0
    1.2990    2.2500    0.0000 Cl  0  0  0  0  0  0  0  0  0  0  0  0
  3  1  1  0
  3  2  1  0
  4  2  1  0
  5  3  1  0
M  END
>  <NAME>  (5586) 
1,2-DICHLOROPROPANE

>  <SYNONYMS>  (5586) 


>  <SPECTRUM TYPE>  (5586) 
MS1

>  <INSTRUMENT TYPE>  (5586) 
EI-B

>  <INSTRUMENT>  (5586) 
JEOL JMS-01-SG

>  <ION MODE>  (5586) 
P

>  <INCHIKEY>  (5586) 
KNKRKFALVUDBJE-UHFFFAOYSA-N

>  <FORMULA>  (5586) 
C3H6Cl2

>  <EXACT MASS>  (5586) 
111.98465555199999

>  <MW>  (5586) 
112

>  <ID>  (5586) 
JP000942

>  <CONTRIBUTOR>  (5586) 
University of Tokyo Team, {Faculty of Engineering, University of Tokyo

>  <COMMENT>  (5586) 
SMILES=CC(Cl)CCl
cas=78-87-5
InChI=InChI=1S/C3H6Cl2/c1-3(5)2-4/h3H,2H2,1H3
computed SMILES=ClCC(Cl)C
accession=JP000942
date=2016.01.19 (Created 2008.10.21, modified 2011.05.06)
author=KOGA M, UNIV. OF OCCUPATIONAL AND ENVIRONMENTAL HEALTH
license=CC BY-NC-SA
exact mass=111.98466
ionization energy=70 eV
ion type=[M]+*
computed spectral entropy=2.538609236490481
computed normalized entropy=0.7702472360436139
SPLASH=splash10-03di-9000000000-bad4a570768fedc57170
submitter=submitter = University of Tokyo Team (Faculty of Engineering, University of Tokyo)
MoNA Rating=3.75

>  <NUM PEAKS>  (5586) 
27

>  <MASS SPECTRAL PEAKS>  (5586) 
35 4
36 5.8
37 12
38 1.64
39 54.7
40 8.2
41 71.2
42 0.51
47 2.7
48 2
49 18.1
51 0.58
60 2.2
61 16.2
62 78.1
63 99.99
64 26.1
65 30.6
75 4.2
76 6.38
77 12.8
78 21.2
79 3.6
97 0.51
99 3.4
112 5.9
114 2.8

>  <PREDICTED SPECTRUM>  (5586) 
14 78
15 122
25 42
26 225
27 588
28 52
29 131
35 94
36 412
37 147
38 316
39 828
40 333
41 999
42 500
43 76
47 207
48 211
49 574
50 270
51 499
52 12
53 228
55 72
61 285
62 246
63 837
64 324
65 587
66 112
67 11
70 117
72 127
75 223
76 513
77 600
78 263
79 363
80 6
83 65
112 170
113 15
114 83

$$$$

     RDKit          2D

  4  3  0  0  0  0  0  0  0  0999 V2000
    0.9743    0.5625    0.0000 C   0  0  0  0  0  0  0  0  0  0  0  0
   -0.3248    1.3125    0.0000 C   0  0  0  0  0  0  0  0  0  0  0  0
   -1.6238    0.5625    0.0000 Cl  0  0  0  0  0  0  0  0  0  0  0  0
   -0.3248    2.8125    0.0000 Cl  0  0  0  0  0  0  0  0  0  0  0  0
  2  1  2  0
  3  2  1  0
  4  2  1  0
M  END
>  <NAME>  (5587) 
1,1-DICHLOROETHYLENE

>  <SYNONYMS>  (5587) 


>  <SPECTRUM TYPE>  (5587) 
MS1

>  <INSTRUMENT TYPE>  (5587) 
EI-B

>  <INSTRUMENT>  (5587) 
JEOL JMS-01-SG

>  <ION MODE>  (5587) 
P

>  <INCHIKEY>  (5587) 
LGXVIGDEPROXKC-UHFFFAOYSA-N

>  <FORMULA>  (5587) 
C2H2Cl2

>  <EXACT MASS>  (5587) 
95.953355424

>  <MW>  (5587) 
96

>  <ID>  (5587) 
JP000941

>  <CONTRIBUTOR>  (5587) 
University of Tokyo Team, {Faculty of Engineering, University of Tokyo

>  <COMMENT>  (5587) 
SMILES=C=C(Cl)Cl
cas=75-35-4
InChI=InChI=1S/C2H2Cl2/c1-2(3)4/h1H2
computed SMILES=ClC(Cl)=C
accession=JP000941
date=2016.01.19 (Created 2008.10.21, modified 2011.05.06)
author=KOGA M, UNIV. OF OCCUPATIONAL AND ENVIRONMENTAL HEALTH
license=CC BY-NC-SA
exact mass=95.95336
ionization energy=70 eV
ion type=[M]+*
computed spectral entropy=1.7739215108572117
computed normalized entropy=0.6916009884159332
SPLASH=splash10-03di-9000000000-0d5a050d03ed2131a00d
submitter=submitter = University of Tokyo Team (Faculty of Engineering, University of Tokyo)
MoNA Rating=3.75

>  <NUM PEAKS>  (5587) 
13

>  <MASS SPECTRAL PEAKS>  (5587) 
35 9.2
36 2.3
37 3.5
47 0.6
49 2.8
59 3.9
60 18.9
61 99.99
62 8.4
63 31.9
96 44.3
98 2.89
100 4.1

>  <PREDICTED SPECTRUM>  (5587) 
25 146
26 164
27 101
35 217
36 208
37 134
41 69
42 3
44 107
45 1
47 194
48 64
49 341
50 287
51 169
53 64
56 179
57 105
58 95
59 64
60 456
61 880
62 470
63 707
64 203
65 222
67 26
68 98
69 79
70 110
71 7
72 111
81 57
82 14
83 243
84 39
85 137
95 234
96 941
97 290
98 999
99 223
100 430
101 80

$$$$

     RDKit          2D

 18 19  0  0  0  0  0  0  0  0999 V2000
   -0.6581    1.1505    0.0000 C   0  0  0  0  0  0  0  0  0  0  0  0
    0.6369    3.3935    0.0000 C   0  0  0  0  0  0  0  0  0  0  0  0
   -4.5552    3.3545    0.0000 C   0  0  0  0  0  0  0  0  0  0  0  0
   -3.2602    1.1115    0.0000 C   0  0  0  0  0  0  0  0  0  0  0  0
    0.6410    0.4005    0.0000 C   0  0  0  0  0  0  0  0  0  0  0  0
    1.9360    2.6435    0.0000 C   0  0  0  0  0  0  0  0  0  0  0  0
   -5.8542    2.6045    0.0000 C   0  0  0  0  0  0  0  0  0  0  0  0
   -4.5592    0.3615    0.0000 C   0  0  0  0  0  0  0  0  0  0  0  0
   -0.6676    2.6340    0.0000 C   0  0  0  0  0  0  0  0  0  0  0  0
   -3.2656    2.6210    0.0000 C   0  0  0  0  0  0  0  0  0  0  0  0
    1.9391    1.1290    0.0000 C   0  0  0  0  0  0  0  0  0  0  0  0
   -5.8724    1.1160    0.0000 C   0  0  0  0  0  0  0  0  0  0  0  0
   -1.9704    3.3775    0.0000 C   0  0  0  0  0  0  0  0  0  0  0  0
   -1.9779    4.8775    0.0000 C   0  0  0  0  0  0  0  0  0  0  0  0
    3.2344    0.3725    0.0000 Cl  0  0  0  0  0  0  0  0  0  0  0  0
   -7.1752    0.3725    0.0000 Cl  0  0  0  0  0  0  0  0  0  0  0  0
   -3.2807    5.6209    0.0000 Cl  0  0  0  0  0  0  0  0  0  0  0  0
   -0.6827    5.6340    0.0000 Cl  0  0  0  0  0  0  0  0  0  0  0  0
  5  1  2  0
  6  2  1  0
  7  3  2  0
  8  4  1  0
  9  1  1  0
  9  2  2  0
 10  3  1  0
 10  4  2  0
 11  5  1  0
 11  6  2  0
 12  7  1  0
 12  8  2  0
 13  9  1  0
 13 10  1  0
 14 13  1  0
 15 11  1  0
 16 12  1  0
 17 14  1  0
 18 14  1  0
M  END
>  <NAME>  (5588) 
1,1-DICHLORO-2,2-BIS(PARA-CHLOROPHENYL)ETHANE

>  <SYNONYMS>  (5588) 
4,4'-DDD

>  <SPECTRUM TYPE>  (5588) 
MS1

>  <INSTRUMENT TYPE>  (5588) 
EI-B

>  <INSTRUMENT>  (5588) 
JEOL JMS-01-SG

>  <ION MODE>  (5588) 
P

>  <INCHIKEY>  (5588) 
AHJKRLASYNVKDZ-UHFFFAOYSA-N

>  <FORMULA>  (5588) 
C14H10Cl4

>  <EXACT MASS>  (5588) 
317.95366104

>  <MW>  (5588) 
318

>  <ID>  (5588) 
JP000938

>  <CONTRIBUTOR>  (5588) 
University of Tokyo Team, {Faculty of Engineering, University of Tokyo

>  <COMMENT>  (5588) 
SMILES=Clc(c2)ccc(c2)C(C(Cl)Cl)c(c1)ccc(Cl)c1
cas=72-54-8
InChI=InChI=1S/C14H10Cl4/c15-11-5-1-9(2-6-11)13(14(17)18)10-3-7-12(16)8-4-10/h1-8,13-14H
computed SMILES=ClC1=CC=C(C=C1)C(C2=CC=C(Cl)C=C2)C(Cl)Cl
accession=JP000938
date=2016.01.19 (Created 2008.10.21, modified 2011.05.06)
author=KOGA M, UNIV. OF OCCUPATIONAL AND ENVIRONMENTAL HEALTH
license=CC BY-NC-SA
exact mass=317.95366
ionization energy=70 eV
ion type=[M]+*
computed spectral entropy=3.0198742467524724
computed normalized entropy=0.7606176856780955
SPLASH=splash10-000i-3690000000-3105d9bda69f6226e551
submitter=submitter = University of Tokyo Team (Faculty of Engineering, University of Tokyo)
MoNA Rating=3.75

>  <NUM PEAKS>  (5588) 
53

>  <MASS SPECTRAL PEAKS>  (5588) 
50 9.2
51 9.2
62 3.6
63 0.69
67 3.4
73 2.6
74 6.8
75 2.12
76 4.6
77 2.8
82 10.2
83 0.58
85 3.9
86 2.7
87 5.3
88 1.23
89 3.1
93 2.3
98 2
99 0.55
100 4.8
101 9.6
102 5.6
106 0.41
111 2.8
136 6
137 5.5
138 0.3
139 3.3
150 2.2
151 2.9
163 0.76
164 7.8
165 58.4
166 8.3
174 0.23
175 2.4
176 9.2
177 4.3
178 0.75
199 13.5
200 8
201 5.5
202 0.22
212 5.8
214 2.1
235 99.99
236 1.22
237 57
238 9.1
239 10
318 0.26
320 3.5

>  <PREDICTED SPECTRUM>  (5588) 
26 3
35 41
36 142
37 63
38 155
39 156
40 10
43 51
45 9
49 127
50 349
51 372
52 103
56 139
57 176
60 17
61 12
62 223
63 402
64 97
69 185
70 40
71 63
73 191
74 325
75 499
76 354
77 275
78 65
80 22
81 94
82 334
83 219
84 54
85 205
86 193
87 268
88 314
89 433
90 108
91 56
93 49
94 9
97 82
98 167
99 338
100 305
101 554
102 490
103 308
104 54
105 106
106 149
107 67
108 45
109 19
110 68
111 107
112 99
113 335
114 202
115 238
116 12
118 14
120 38
121 7
122 37
123 89
124 72
125 360
126 288
127 316
128 102
129 138
130 124
131 137
134 122
136 171
137 203
138 300
139 353
140 84
141 79
142 85
143 168
144 5
146 39
147 20
148 75
149 397
150 272
151 287
152 19
156 45
157 28
158 81
161 156
162 52
163 470
164 225
165 999
166 415
167 42
169 54
170 18
171 42
172 43
174 23
175 327
176 524
177 367
178 479
179 458
180 346
184 29
186 24
189 40
190 10
196 62
197 87
198 131
199 508
200 264
201 295
202 143
203 757
209 197
210 178
211 297
212 444
213 497
214 223
215 67
222 17
224 34
231 27
233 105
235 582
236 291
237 394
238 161
246 259
247 407
248 477
249 409
250 413
251 370
252 199
282 68
283 298
284 215
285 384
286 96
287 124
318 149
320 149
321 33
322 88

$$$$

     RDKit          2D

  9  9  0  0  0  0  0  0  0  0999 V2000
    2.5989   -1.5002    0.0000 C   0  0  0  0  0  0  0  0  0  0  0  0
   -1.3000    0.7500    0.0000 C   0  0  0  0  0  0  0  0  0  0  0  0
    0.0000    1.5000    0.0000 C   0  0  0  0  0  0  0  0  0  0  0  0
   -0.0000   -1.5000    0.0000 C   0  0  0  0  0  0  0  0  0  0  0  0
    1.3000   -0.7500    0.0000 C   0  0  0  0  0  0  0  0  0  0  0  0
   -1.3000   -0.7500    0.0000 C   0  0  0  0  0  0  0  0  0  0  0  0
    1.3000    0.7500    0.0000 C   0  0  0  0  0  0  0  0  0  0  0  0
    2.5989    1.5002    0.0000 Cl  0  0  0  0  0  0  0  0  0  0  0  0
   -2.5989   -1.5002    0.0000 O   0  0  0  0  0  0  0  0  0  0  0  0
  3  2  2  0
  5  1  1  0
  5  4  1  0
  6  2  1  0
  6  4  2  0
  7  3  1  0
  7  5  2  0
  8  7  1  0
  9  6  1  0
M  END
>  <NAME>  (5589) 
4-CHLORO-META-CRESOL

>  <SYNONYMS>  (5589) 


>  <SPECTRUM TYPE>  (5589) 
MS1

>  <INSTRUMENT TYPE>  (5589) 
EI-B

>  <INSTRUMENT>  (5589) 
JEOL JMS-01-SG

>  <ION MODE>  (5589) 
P

>  <INCHIKEY>  (5589) 
CFKMVGJGLGKFKI-UHFFFAOYSA-N

>  <FORMULA>  (5589) 
C7H7ClO

>  <EXACT MASS>  (5589) 
142.018542524

>  <MW>  (5589) 
142

>  <ID>  (5589) 
JP000936

>  <CONTRIBUTOR>  (5589) 
University of Tokyo Team, {Faculty of Engineering, University of Tokyo

>  <COMMENT>  (5589) 
SMILES=Oc(c1)cc(C)c(Cl)c1
cas=59-50-7
InChI=InChI=1S/C7H7ClO/c1-5-4-6(9)2-3-7(5)8/h2-4,9H,1H3
computed SMILES=ClC1=CC=C(O)C=C1C
accession=JP000936
date=2016.01.19 (Created 2008.10.21, modified 2011.05.06)
author=KOGA M, UNIV. OF OCCUPATIONAL AND ENVIRONMENTAL HEALTH
license=CC BY-NC-SA
exact mass=142.01854
ionization energy=70 eV
ion type=[M]+*
computed spectral entropy=2.250941534155178
computed normalized entropy=0.7082767172350684
SPLASH=splash10-052f-3900000000-8cf263e1d6fb0ce457d9
submitter=submitter = University of Tokyo Team (Faculty of Engineering, University of Tokyo)
MoNA Rating=3.75

>  <NUM PEAKS>  (5589) 
24

>  <MASS SPECTRAL PEAKS>  (5589) 
50 8.5
51 17.4
52 3.6
53 0.77
61 2.9
62 4.9
63 7.3
71 0.22
73 3.9
74 3.1
75 4.1
77 4.37
78 12.1
79 11.8
89 2.6
105 0.63
107 99.99
108 8.3
113 3.4
141 0.78
142 76.4
143 9
144 24.8
145 2.2

>  <PREDICTED SPECTRUM>  (5589) 
14 21
15 52
18 11
25 32
26 108
27 188
28 58
29 67
31 57
32 12
33 23
34 16
35 95
36 125
37 242
38 305
39 528
40 139
41 168
42 18
43 154
44 95
45 100
47 132
48 38
49 205
50 411
51 593
52 335
53 244
54 95
55 45
56 44
57 77
58 27
60 133
61 272
62 217
63 351
64 84
65 117
66 18
67 56
69 18
70 26
71 35
72 131
73 214
74 240
75 308
76 75
77 782
78 382
79 608
80 180
81 54
84 100
85 140
86 135
87 127
88 32
89 269
90 72
96 58
97 133
98 13
99 114
105 202
106 106
107 999
108 389
109 108
113 216
114 68
115 116
127 12
141 362
142 920
143 337
144 490
145 131

$$$$

     RDKit          2D

 11 12  0  0  0  0  0  0  0  0999 V2000
   -2.6000   -0.7500    0.0000 C   0  0  0  0  0  0  0  0  0  0  0  0
   -2.6000    0.7500    0.0000 C   0  0  0  0  0  0  0  0  0  0  0  0
   -1.3000   -1.5000    0.0000 C   0  0  0  0  0  0  0  0  0  0  0  0
   -1.3000    1.5000    0.0000 C   0  0  0  0  0  0  0  0  0  0  0  0
    1.3000   -1.5000    0.0000 C   0  0  0  0  0  0  0  0  0  0  0  0
    2.6000   -0.7500    0.0000 C   0  0  0  0  0  0  0  0  0  0  0  0
    1.3000    1.5000    0.0000 C   0  0  0  0  0  0  0  0  0  0  0  0
    0.0000   -0.7500    0.0000 C   0  0  0  0  0  0  0  0  0  0  0  0
    0.0000    0.7500    0.0000 C   0  0  0  0  0  0  0  0  0  0  0  0
    2.6000    0.7500    0.0000 C   0  0  0  0  0  0  0  0  0  0  0  0
    3.8989    1.5002    0.0000 Cl  0  0  0  0  0  0  0  0  0  0  0  0
  2  1  2  0
  3  1  1  0
  4  2  1  0
  6  5  2  0
  8  3  2  0
  8  5  1  0
  9  4  2  0
  9  7  1  0
  9  8  1  0
 10  6  1  0
 10  7  2  0
 11 10  1  0
M  END
>  <NAME>  (5590) 
2-CHLORONAPHTHALENE

>  <SYNONYMS>  (5590) 


>  <SPECTRUM TYPE>  (5590) 
MS1

>  <INSTRUMENT TYPE>  (5590) 
EI-B

>  <INSTRUMENT>  (5590) 
JEOL JMS-01-SG

>  <ION MODE>  (5590) 
P

>  <INCHIKEY>  (5590) 
CGYGETOMCSJHJU-UHFFFAOYSA-N

>  <FORMULA>  (5590) 
C10H7Cl

>  <EXACT MASS>  (5590) 
162.023627904

>  <MW>  (5590) 
162

>  <ID>  (5590) 
JP000935

>  <CONTRIBUTOR>  (5590) 
University of Tokyo Team, {Faculty of Engineering, University of Tokyo

>  <COMMENT>  (5590) 
SMILES=Clc(c1)cc(c2)c(ccc2)c1
cas=91-58-7
InChI=InChI=1S/C10H7Cl/c11-10-6-5-8-3-1-2-4-9(8)7-10/h1-7H
computed SMILES=ClC=1C=CC=2C=CC=CC2C1
accession=JP000935
date=2016.01.19 (Created 2008.10.21, modified 2011.05.06)
author=KOGA M, UNIV. OF OCCUPATIONAL AND ENVIRONMENTAL HEALTH
license=CC BY-NC-SA
exact mass=162.02363
ionization energy=70 eV
ion type=[M]+*
computed spectral entropy=2.159873639744808
computed normalized entropy=0.6796214774966025
SPLASH=splash10-03di-2900000000-ed06c8c14948b09f9d31
submitter=submitter = University of Tokyo Team (Faculty of Engineering, University of Tokyo)
MoNA Rating=3.75

>  <NUM PEAKS>  (5590) 
24

>  <MASS SPECTRAL PEAKS>  (5590) 
50 4.3
51 4.1
61 2.2
62 0.38
63 8.2
68 2.6
74 6.2
75 0.78
76 2.8
77 5.3
81 6.8
82 0.29
87 2.2
98 2.5
99 2.4
101 0.38
125 2.1
126 17.2
127 33.4
128 0.35
162 99.99
163 10.7
164 28.8
165 3.2

>  <PREDICTED SPECTRUM>  (5590) 
37 25
38 16
39 37
49 98
50 252
51 249
57 37
61 105
62 267
63 397
64 28
65 44
72 63
73 154
74 282
75 341
76 151
77 9
82 66
84 48
85 115
86 212
87 164
88 61
89 115
95 41
96 60
98 137
99 171
100 223
101 306
102 15
107 1
108 8
110 38
113 24
123 35
125 254
126 513
127 882
128 365
136 21
137 21
150 161
151 191
160 9
161 144
162 999
163 460
164 848
165 275
166 58

$$$$

     RDKit          2D

  6  5  0  0  0  0  0  0  0  0999 V2000
   -4.5466    3.3750    0.0000 C   0  0  0  0  0  0  0  0  0  0  0  0
   -3.2476    2.6250    0.0000 C   0  0  0  0  0  0  0  0  0  0  0  0
    0.6495    3.3750    0.0000 C   0  0  0  0  0  0  0  0  0  0  0  0
   -0.6495    2.6250    0.0000 C   0  0  0  0  0  0  0  0  0  0  0  0
    1.9486    2.6250    0.0000 Cl  0  0  0  0  0  0  0  0  0  0  0  0
   -1.9486    3.3750    0.0000 O   0  0  0  0  0  0  0  0  0  0  0  0
  2  1  2  0
  4  3  1  0
  5  3  1  0
  6  2  1  0
  6  4  1  0
M  END
>  <NAME>  (5591) 
2-CHLOROETHYL VINYL ETHER

>  <SYNONYMS>  (5591) 


>  <SPECTRUM TYPE>  (5591) 
MS1

>  <INSTRUMENT TYPE>  (5591) 
EI-B

>  <INSTRUMENT>  (5591) 
JEOL JMS-01-SG

>  <ION MODE>  (5591) 
P

>  <INCHIKEY>  (5591) 
DNJRKFKAFWSXSE-UHFFFAOYSA-N

>  <FORMULA>  (5591) 
C4H7ClO

>  <EXACT MASS>  (5591) 
106.018542524

>  <MW>  (5591) 
106

>  <ID>  (5591) 
JP000934

>  <CONTRIBUTOR>  (5591) 
University of Tokyo Team, {Faculty of Engineering, University of Tokyo

>  <COMMENT>  (5591) 
SMILES=C=COCCCl
cas=110-75-8
InChI=InChI=1S/C4H7ClO/c1-2-6-4-3-5/h2H,1,3-4H2
computed SMILES=ClCCOC=C
accession=JP000934
date=2016.01.19 (Created 2008.10.21, modified 2011.05.06)
author=KOGA M, UNIV. OF OCCUPATIONAL AND ENVIRONMENTAL HEALTH
license=CC BY-NC-SA
exact mass=106.01854
ionization energy=70 eV
ion type=[M]+*
computed spectral entropy=2.2617696732876023
computed normalized entropy=0.7317174407715636
SPLASH=splash10-01ox-9000000000-5f1c4b8ea30bbf7cf0ff
submitter=submitter = University of Tokyo Team (Faculty of Engineering, University of Tokyo)
MoNA Rating=3.75

>  <NUM PEAKS>  (5591) 
22

>  <MASS SPECTRAL PEAKS>  (5591) 
36 4.5
37 2.1
38 2.6
39 0.39
41 7.2
42 24.6
43 98.7
44 7.21
45 12.1
48 2.2
49 12.8
50 0.31
51 4.1
57 21.8
61 3.3
62 2.42
63 99.99
64 9.3
65 33.4
79 0.28
106 25.2
108 8.4

>  <PREDICTED SPECTRUM>  (5591) 
14 178
15 353
16 28
17 24
18 46
19 107
25 133
26 424
27 932
28 581
29 682
30 161
31 467
32 79
33 79
35 83
36 249
37 139
38 78
39 341
40 118
41 329
42 319
43 537
44 541
45 639
47 100
48 52
49 282
50 147
51 310
52 169
53 202
54 144
55 111
56 136
57 682
58 178
61 171
62 201
63 999
64 641
65 578
66 137
68 9
69 54
70 113
71 360
77 99
79 409
80 93
81 154
91 333
92 290
93 252
105 113
106 335
107 89
108 203

$$$$

     RDKit          2D

  5  4  0  0  0  0  0  0  0  0999 V2000
   -2.5981    1.5000    0.0000 C   0  0  0  0  0  0  0  0  0  0  0  0
    0.0000    1.5000    0.0000 C   0  0  0  0  0  0  0  0  0  0  0  0
   -3.8971    2.2500    0.0000 Cl  0  0  0  0  0  0  0  0  0  0  0  0
    1.2990    2.2500    0.0000 Cl  0  0  0  0  0  0  0  0  0  0  0  0
   -1.2990    2.2500    0.0000 O   0  0  0  0  0  0  0  0  0  0  0  0
  3  1  1  0
  4  2  1  0
  5  1  1  0
  5  2  1  0
M  END
>  <NAME>  (5592) 
BIS(CHLOROMETHYL) ETHER

>  <SYNONYMS>  (5592) 


>  <SPECTRUM TYPE>  (5592) 
MS1

>  <INSTRUMENT TYPE>  (5592) 
EI-B

>  <INSTRUMENT>  (5592) 
JEOL JMS-01-SG

>  <ION MODE>  (5592) 
P

>  <INCHIKEY>  (5592) 
HRQGCQVOJVTVLU-UHFFFAOYSA-N

>  <FORMULA>  (5592) 
C2H4Cl2O

>  <EXACT MASS>  (5592) 
113.963920108

>  <MW>  (5592) 
114

>  <ID>  (5592) 
JP000933

>  <CONTRIBUTOR>  (5592) 
University of Tokyo Team, {Faculty of Engineering, University of Tokyo

>  <COMMENT>  (5592) 
SMILES=ClCOCCl
cas=542-88-1
InChI=InChI=1S/C2H4Cl2O/c3-1-5-2-4/h1-2H2
computed SMILES=ClCOCCl
accession=JP000933
date=2016.01.19 (Created 2008.10.21, modified 2011.05.06)
author=KOGA M, UNIV. OF OCCUPATIONAL AND ENVIRONMENTAL HEALTH
license=CC BY-NC-SA
exact mass=113.96392
ionization energy=70 eV
ion type=[M]+*
computed spectral entropy=1.4314773020327745
computed normalized entropy=0.6216826932425885
SPLASH=splash10-004i-9000000000-d5d941f685485b075d8d
submitter=submitter = University of Tokyo Team (Faculty of Engineering, University of Tokyo)
MoNA Rating=3.75

>  <NUM PEAKS>  (5592) 
10

>  <MASS SPECTRAL PEAKS>  (5592) 
29 9.3
35 2.8
48 2.9
49 3.78
50 1.9
51 11.9
78 5.6
79 99.99
80 3.7
81 33.2

>  <PREDICTED SPECTRUM>  (5592) 
14 71
15 78
25 50
26 152
27 22
28 94
29 85
31 117
32 24
33 4
35 240
37 208
38 300
39 111
40 131
41 189
42 382
44 122
45 16
47 307
48 213
49 999
50 237
51 647
52 85
53 156
54 123
61 226
63 100
65 259
66 45
67 52
76 400
78 50
79 374
81 106
83 306
85 41

$$$$

     RDKit          2D

 12 12  0  0  0  0  0  0  0  0999 V2000
   -1.3000    0.7500    0.0000 C   0  0  0  0  0  0  0  0  0  0  0  0
    0.0000    1.5000    0.0000 C   0  0  0  0  0  0  0  0  0  0  0  0
   -1.3000   -0.7500    0.0000 C   0  0  0  0  0  0  0  0  0  0  0  0
    1.3000    0.7500    0.0000 C   0  0  0  0  0  0  0  0  0  0  0  0
   -0.0000   -1.5000    0.0000 C   0  0  0  0  0  0  0  0  0  0  0  0
    1.3000   -0.7500    0.0000 C   0  0  0  0  0  0  0  0  0  0  0  0
   -2.5989    1.5002    0.0000 Cl  0  0  0  0  0  0  0  0  0  0  0  0
    0.0000    3.0000    0.0000 Cl  0  0  0  0  0  0  0  0  0  0  0  0
   -2.5989   -1.5002    0.0000 Cl  0  0  0  0  0  0  0  0  0  0  0  0
    2.5989    1.5002    0.0000 Cl  0  0  0  0  0  0  0  0  0  0  0  0
   -0.0000   -3.0000    0.0000 Cl  0  0  0  0  0  0  0  0  0  0  0  0
    2.5989   -1.5002    0.0000 O   0  0  0  0  0  0  0  0  0  0  0  0
  2  1  2  0
  3  1  1  0
  4  2  1  0
  5  3  2  0
  6  4  2  0
  6  5  1  0
  7  1  1  0
  8  2  1  0
  9  3  1  0
 10  4  1  0
 11  5  1  0
 12  6  1  0
M  END
>  <NAME>  (5593) 
PENTACHLOROPHENOL

>  <SYNONYMS>  (5593) 


>  <SPECTRUM TYPE>  (5593) 
MS1

>  <INSTRUMENT TYPE>  (5593) 
EI-B

>  <INSTRUMENT>  (5593) 
JEOL JMS-01-SG

>  <ION MODE>  (5593) 
P

>  <INCHIKEY>  (5593) 
IZUPBVBPLAPZRR-UHFFFAOYSA-N

>  <FORMULA>  (5593) 
C6HCl5O

>  <EXACT MASS>  (5593) 
263.847003052

>  <MW>  (5593) 
264

>  <ID>  (5593) 
JP000931

>  <CONTRIBUTOR>  (5593) 
University of Tokyo Team, {Faculty of Engineering, University of Tokyo

>  <COMMENT>  (5593) 
SMILES=Oc(c(Cl)1)c(Cl)c(Cl)c(Cl)c(Cl)1
cas=87-86-5
InChI=InChI=1S/C6HCl5O/c7-1-2(8)4(10)6(12)5(11)3(1)9/h12H
computed SMILES=ClC=1C(Cl)=C(Cl)C(O)=C(Cl)C1Cl
accession=JP000931
date=2016.01.19 (Created 2008.10.21, modified 2011.05.06)
author=KOGA M, UNIV. OF OCCUPATIONAL AND ENVIRONMENTAL HEALTH
license=CC BY-NC-SA
exact mass=263.847
ionization energy=70 eV
ion type=[M]+*
computed spectral entropy=3.5300043209408276
computed normalized entropy=0.8126524966291945
SPLASH=splash10-014i-3590000000-e28db0931c3a64c5acdc
submitter=submitter = University of Tokyo Team (Faculty of Engineering, University of Tokyo)
MoNA Rating=3.75

>  <NUM PEAKS>  (5593) 
77

>  <MASS SPECTRAL PEAKS>  (5593) 
45 4
47 9.2
48 3.1
49 0.43
59 2.2
60 27.1
61 9.8
63 0.29
65 18.2
66 7.7
70 2.9
71 1.1
72 5.2
73 9.4
81 2.6
84 0.58
87 6.2
89 3.1
93 4.1
95 3.81
96 10.9
97 11.8
98 4.5
100 1.33
101 13
102 6.5
103 3.9
106 0.57
107 8.7
108 4.3
109 4.8
111 0.37
114 5.8
115 6.3
116 2.2
118 0.35
119 2.6
120 3.3
124 4.2
130 2.26
131 8.9
132 17.1
133 12.3
134 0.65
135 2.2
141 4.9
142 3.3
143 0.76
158 2.6
165 45.5
167 38.7
168 0.42
169 12.8
171 2.2
194 2.7
196 0.29
200 16.8
201 4.8
202 22.3
203 0.81
204 12.6
205 3.7
206 3.8
228 1.23
230 16.8
232 7.8
234 2.2
237 0.43
253 2.8
264 72
265 6.2
266 99.99
267 9.2
268 73.8
269 5.2
270 2.58
272 3.2

>  <PREDICTED SPECTRUM>  (5593) 
17 7
18 28
25 19
26 26
27 6
29 4
32 0
35 46
36 112
37 53
38 50
39 11
43 25
47 80
48 31
49 85
50 65
51 73
52 16
53 78
54 1
60 140
61 189
62 151
63 120
64 95
65 23
66 27
67 2
68 25
71 63
72 83
73 108
74 38
75 40
76 70
77 89
78 39
79 23
80 12
82 24
83 47
84 100
85 32
86 126
87 112
88 22
89 70
90 1
94 36
95 107
96 162
97 130
98 116
99 72
101 8
102 58
103 34
104 6
106 128
107 157
108 67
109 164
110 19
111 102
112 75
114 91
118 167
119 76
120 133
121 98
122 64
123 50
124 65
125 66
126 50
127 27
128 13
129 119
130 154
131 276
132 165
133 283
134 89
135 122
136 79
137 47
138 68
139 130
140 104
141 157
142 179
143 125
144 175
145 5
149 53
159 31
163 26
164 13
165 328
166 132
167 311
168 116
169 153
170 108
171 90
172 74
173 53
174 28
175 111
176 58
177 173
179 66
193 36
194 278
195 139
196 308
197 69
198 163
199 102
200 155
201 188
202 124
203 216
204 122
205 202
206 33
207 90
208 4
210 17
228 163
229 315
230 248
231 396
232 205
233 216
234 58
235 149
236 59
237 91
238 50
239 69
240 54
263 44
264 848
265 237
266 999
267 282
268 814
269 198

$$$$

     RDKit          2D

 14 15  0  0  0  0  0  0  0  0999 V2000
   -1.3000   -0.7500    0.0000 C   0  0  0  0  0  0  0  0  0  0  0  0
    0.0000    1.5000    0.0000 C   0  0  0  0  0  0  0  0  0  0  0  0
   -2.5989    3.0002    0.0000 C   0  0  0  0  0  0  0  0  0  0  0  0
   -3.8989    0.7502    0.0000 C   0  0  0  0  0  0  0  0  0  0  0  0
    0.0000   -1.5000    0.0000 C   0  0  0  0  0  0  0  0  0  0  0  0
    1.3000    0.7500    0.0000 C   0  0  0  0  0  0  0  0  0  0  0  0
   -3.8989    3.7502    0.0000 C   0  0  0  0  0  0  0  0  0  0  0  0
   -5.1989    1.5002    0.0000 C   0  0  0  0  0  0  0  0  0  0  0  0
   -1.3000    0.7500    0.0000 C   0  0  0  0  0  0  0  0  0  0  0  0
   -2.5989    1.5002    0.0000 C   0  0  0  0  0  0  0  0  0  0  0  0
    1.3000   -0.7500    0.0000 C   0  0  0  0  0  0  0  0  0  0  0  0
   -5.1989    3.0002    0.0000 C   0  0  0  0  0  0  0  0  0  0  0  0
    2.5989   -1.5002    0.0000 N   0  0  0  0  0  0  0  0  0  0  0  0
   -6.4978    3.7504    0.0000 N   0  0  0  0  0  0  0  0  0  0  0  0
  5  1  2  0
  6  2  1  0
  7  3  2  0
  8  4  1  0
  9  1  1  0
  9  2  2  0
 10  3  1  0
 10  4  2  0
 10  9  1  0
 11  5  1  0
 11  6  2  0
 12  7  1  0
 12  8  2  0
 13 11  1  0
 14 12  1  0
M  END
>  <NAME>  (5594) 
(1,1'-BIPHENYL)-4,4'-DIAMINE

>  <SYNONYMS>  (5594) 
BENZIDINE

>  <SPECTRUM TYPE>  (5594) 
MS1

>  <INSTRUMENT TYPE>  (5594) 
EI-B

>  <INSTRUMENT>  (5594) 
JEOL JMS-01-SG

>  <ION MODE>  (5594) 
P

>  <INCHIKEY>  (5594) 
HFACYLZERDEVSX-UHFFFAOYSA-N

>  <FORMULA>  (5594) 
C12H12N2

>  <EXACT MASS>  (5594) 
184.100048384

>  <MW>  (5594) 
184

>  <ID>  (5594) 
JP000930

>  <CONTRIBUTOR>  (5594) 
University of Tokyo Team, {Faculty of Engineering, University of Tokyo

>  <COMMENT>  (5594) 
SMILES=Nc(c2)ccc(c2)c(c1)ccc(N)c1
cas=92-87-5
InChI=InChI=1S/C12H12N2/c13-11-5-1-9(2-6-11)10-3-7-12(14)8-4-10/h1-8H,13-14H2
computed SMILES=NC=1C=CC(=CC1)C2=CC=C(N)C=C2
accession=JP000930
date=2016.01.19 (Created 2008.10.21, modified 2011.05.06)
author=KOGA M, UNIV. OF OCCUPATIONAL AND ENVIRONMENTAL HEALTH
license=CC BY-NC-SA
exact mass=184.10005
ionization energy=70 eV
ion type=[M]+*
computed spectral entropy=2.1429146927222398
computed normalized entropy=0.636390385911192
SPLASH=splash10-001i-1900000000-46465bd7171400dfc550
submitter=submitter = University of Tokyo Team (Faculty of Engineering, University of Tokyo)
MoNA Rating=3.75

>  <NUM PEAKS>  (5594) 
29

>  <MASS SPECTRAL PEAKS>  (5594) 
41 2.1
43 1.8
51 2.1
52 0.22
63 2.4
65 3
77 3.4
78 0.33
91 5.9
92 6.7
93 2.8
115 0.23
117 3.7
127 3.1
128 3.9
129 0.22
130 4.5
139 2.4
154 2.5
156 0.64
157 2.1
166 4.9
167 5.3
168 0.2
181 2.2
182 3.3
183 12.3
184 99.99
185 12.8

>  <PREDICTED SPECTRUM>  (5594) 
3 3
24 1
26 3
27 69
28 45
30 1
38 28
39 113
40 60
41 91
42 30
43 53
44 37
45 10
46 4
50 74
51 118
52 127
53 87
54 61
55 56
56 15
57 36
61 7
62 49
63 119
64 73
65 155
66 92
67 42
68 0
69 10
70 22
71 54
72 11
73 22
74 86
75 68
76 92
77 93
78 74
79 69
80 55
81 10
82 16
83 68
84 72
85 80
86 34
87 42
88 28
89 89
90 90
91 94
92 79
93 79
94 27
97 24
98 46
99 34
100 40
101 49
102 42
103 12
104 75
105 29
106 64
107 53
111 33
112 30
113 43
114 31
115 71
116 48
117 63
118 86
126 67
127 105
128 120
129 137
130 129
131 94
132 41
137 28
138 15
139 139
140 110
141 67
142 22
143 30
144 39
150 18
151 71
152 60
153 28
154 109
155 158
156 229
157 131
158 86
164 34
165 116
166 136
167 161
168 177
169 118
170 20
180 79
181 177
182 212
183 389
184 999
185 411
186 88
187 7

$$$$

     RDKit          2D

 12 11  0  0  0  0  0  0  0  0999 V2000
  -11.0418    5.6250    0.0000 C   0  0  0  0  0  0  0  0  0  0  0  0
   -3.2476    5.6250    0.0000 C   0  0  0  0  0  0  0  0  0  0  0  0
   -1.9486    4.8750    0.0000 C   0  0  0  0  0  0  0  0  0  0  0  0
   -4.5466    4.8750    0.0000 C   0  0  0  0  0  0  0  0  0  0  0  0
   -0.6495    5.6250    0.0000 C   0  0  0  0  0  0  0  0  0  0  0  0
   -5.8457    5.6250    0.0000 C   0  0  0  0  0  0  0  0  0  0  0  0
    0.6495    4.8750    0.0000 C   0  0  0  0  0  0  0  0  0  0  0  0
   -7.1447    4.8750    0.0000 C   0  0  0  0  0  0  0  0  0  0  0  0
    1.9486    5.6250    0.0000 C   0  0  0  0  0  0  0  0  0  0  0  0
   -8.4437    5.6250    0.0000 C   0  0  0  0  0  0  0  0  0  0  0  0
    3.2476    6.3750    0.0000 N   0  0  0  0  0  0  0  0  0  0  0  0
   -9.7428    4.8750    0.0000 S   0  0  0  0  0  0  0  0  0  0  0  0
  3  2  1  0
  4  2  1  0
  5  3  1  0
  6  4  1  0
  7  5  1  0
  8  6  1  0
  9  7  1  0
 10  8  1  0
 11  9  3  0
 12  1  1  0
 12 10  1  0
M  END
>  <NAME>  (5595) 
9-METHYLTHIONONANENITRILE

>  <SYNONYMS>  (5595) 


>  <SPECTRUM TYPE>  (5595) 
MS1

>  <INSTRUMENT TYPE>  (5595) 
EI-B

>  <INSTRUMENT>  (5595) 
SHIMADZU LKB-9000B

>  <ION MODE>  (5595) 
P

>  <INCHIKEY>  (5595) 
KQKRRHTVZQEXBX-UHFFFAOYSA-N

>  <FORMULA>  (5595) 
C10H19NS

>  <EXACT MASS>  (5595) 
185.123820608

>  <MW>  (5595) 
185

>  <ID>  (5595) 
JP000927

>  <CONTRIBUTOR>  (5595) 
University of Tokyo Team, {Faculty of Engineering, University of Tokyo

>  <COMMENT>  (5595) 
SMILES=N#CCCCCCCCCSC
InChI=InChI=1S/C10H19NS/c1-12-10-8-6-4-2-3-5-7-9-11/h2-8,10H2,1H3
computed SMILES=N#CCCCCCCCCSC
accession=JP000927
date=2016.01.19 (Created 2008.10.21, modified 2011.05.06)
author=KAMEOKA H, DEPT. OF APPLIED CHEMISTRY, FAC. OF SCI. AND ENGINEERING, KINKI UNIV.
license=CC BY-NC-SA
exact mass=185.12382
ionization energy=70 eV
ion type=[M]+*
computed spectral entropy=2.6699420811812455
computed normalized entropy=0.8401185831672744
SPLASH=splash10-03ea-9200000000-67ed2376446a82b0f7bb
submitter=submitter = University of Tokyo Team (Faculty of Engineering, University of Tokyo)
MoNA Rating=3.75

>  <NUM PEAKS>  (5595) 
24

>  <MASS SPECTRAL PEAKS>  (5595) 
41 10.5
48 7
55 41.5
61 99.99
62 13
63 10.5
69 25
75 1.45
81 18.5
82 23.5
83 33
94 1.8
95 12.5
96 99
97 19.5
108 2
109 9
110 35
122 11.5
138 4.3
170 11.5
185 40
186 7.5
187 2

>  <PREDICTED SPECTRUM>  (5595) 
15 41
25 15
26 116
27 345
28 149
29 256
30 88
31 1
32 8
33 38
34 52
35 202
36 45
37 69
38 92
39 447
40 186
41 842
42 357
43 263
44 124
45 327
46 285
47 300
48 181
49 184
50 100
51 141
52 149
53 372
54 497
55 769
56 356
57 125
58 84
59 249
60 274
61 999
62 292
63 252
64 59
66 186
67 687
68 588
69 427
70 230
71 40
72 97
73 118
74 198
75 359
76 276
77 152
78 95
79 156
80 221
81 424
82 522
83 341
84 165
85 86
86 169
87 383
88 215
89 150
90 91
92 123
93 138
94 317
95 305
96 377
97 147
98 86
99 62
100 123
101 167
102 134
103 113
104 139
105 17
108 208
109 248
110 394
111 149
112 84
113 66
114 237
115 125
116 90
117 36
118 5
122 195
123 140
124 133
125 55
126 97
127 33
128 162
129 132
130 47
136 221
137 131
138 395
139 164
140 48
142 169
143 26
144 106
145 125
152 14
156 48
157 60
170 363
171 98
172 111
184 124
185 393
186 111
187 52
188 2

$$$$

     RDKit          2D

 11 10  0  0  0  0  0  0  0  0999 V2000
   -9.0933    6.7500    0.0000 C   0  0  0  0  0  0  0  0  0  0  0  0
   -1.2990    6.7500    0.0000 C   0  0  0  0  0  0  0  0  0  0  0  0
   -2.5981    6.0000    0.0000 C   0  0  0  0  0  0  0  0  0  0  0  0
    0.0000    6.0000    0.0000 C   0  0  0  0  0  0  0  0  0  0  0  0
   -3.8971    6.7500    0.0000 C   0  0  0  0  0  0  0  0  0  0  0  0
    1.2990    6.7500    0.0000 C   0  0  0  0  0  0  0  0  0  0  0  0
   -5.1962    6.0000    0.0000 C   0  0  0  0  0  0  0  0  0  0  0  0
    2.5981    6.0000    0.0000 C   0  0  0  0  0  0  0  0  0  0  0  0
   -6.4952    6.7500    0.0000 C   0  0  0  0  0  0  0  0  0  0  0  0
    3.8971    5.2500    0.0000 N   0  0  0  0  0  0  0  0  0  0  0  0
   -7.7942    6.0000    0.0000 S   0  0  0  0  0  0  0  0  0  0  0  0
  3  2  1  0
  4  2  1  0
  5  3  1  0
  6  4  1  0
  7  5  1  0
  8  6  1  0
  9  7  1  0
 10  8  3  0
 11  1  1  0
 11  9  1  0
M  END
>  <NAME>  (5596) 
8-METHYLTHIOOCTANENITRILE

>  <SYNONYMS>  (5596) 


>  <SPECTRUM TYPE>  (5596) 
MS1

>  <INSTRUMENT TYPE>  (5596) 
EI-B

>  <INSTRUMENT>  (5596) 
SHIMADZU LKB-9000B

>  <ION MODE>  (5596) 
P

>  <INCHIKEY>  (5596) 
BWZCPICNIWWLFX-UHFFFAOYSA-N

>  <FORMULA>  (5596) 
C9H17NS

>  <EXACT MASS>  (5596) 
171.108170544

>  <MW>  (5596) 
171

>  <ID>  (5596) 
JP000926

>  <CONTRIBUTOR>  (5596) 
University of Tokyo Team, {Faculty of Engineering, University of Tokyo

>  <COMMENT>  (5596) 
SMILES=N#CCCCCCCCSC
InChI=InChI=1S/C9H17NS/c1-11-9-7-5-3-2-4-6-8-10/h2-7,9H2,1H3
computed SMILES=N#CCCCCCCCSC
accession=JP000926
date=2016.01.19 (Created 2008.10.21, modified 2011.05.06)
author=KAMEOKA H, DEPT. OF APPLIED CHEMISTRY, FAC. OF SCI. AND ENGINEERING, KINKI UNIV.
license=CC BY-NC-SA
exact mass=171.10817
ionization energy=70 eV
ion type=[M]+*
computed spectral entropy=2.6155630106483585
computed normalized entropy=0.8591045276066929
SPLASH=splash10-08mj-9300000000-b7f4cd2ba8c288de6d19
submitter=submitter = University of Tokyo Team (Faculty of Engineering, University of Tokyo)
MoNA Rating=3.75

>  <NUM PEAKS>  (5596) 
21

>  <MASS SPECTRAL PEAKS>  (5596) 
41 11.5
48 10.5
55 55.5
61 99.99
69 21.5
75 16.5
82 17.5
83 3.6
84 26.5
94 27
95 18.5
96 9.9
97 33.5
110 14.5
124 32
125 0.3
126 2
156 20.5
171 54
172 0.95
173 3

>  <PREDICTED SPECTRUM>  (5596) 
15 57
25 16
26 120
27 346
28 146
29 229
30 97
31 10
32 15
33 44
34 46
35 218
36 42
37 80
38 109
39 458
40 197
41 808
42 349
43 224
44 143
45 363
46 318
47 356
48 222
49 209
50 106
51 129
52 179
53 400
54 519
55 690
56 332
57 68
58 49
59 231
60 279
61 999
62 290
63 252
64 125
65 140
66 212
67 687
68 591
69 334
70 199
71 89
72 130
73 178
74 246
75 360
76 268
77 52
78 126
79 119
80 338
81 394
82 450
83 249
84 103
85 64
86 85
87 304
88 171
89 170
90 150
91 39
92 23
93 27
94 208
95 290
96 421
97 196
98 90
99 85
100 239
101 181
102 79
103 16
104 35
106 14
108 108
109 120
110 160
111 67
112 93
113 47
114 200
115 181
116 98
117 64
122 285
123 184
124 409
125 198
126 71
127 3
128 153
129 21
130 113
131 158
138 15
142 51
143 77
156 327
157 79
158 94
170 133
171 396
172 111
173 59
174 2

$$$$

     RDKit          2D

 11 11  0  0  0  0  0  0  0  0999 V2000
   -5.5202    3.1329    0.0000 C   0  0  0  0  0  0  0  0  0  0  0  0
   -5.5207    1.6321    0.0000 C   0  0  0  0  0  0  0  0  0  0  0  0
   -4.2207    3.8837    0.0000 C   0  0  0  0  0  0  0  0  0  0  0  0
   -4.2216    0.8821    0.0000 C   0  0  0  0  0  0  0  0  0  0  0  0
   -2.9216    3.1337    0.0000 C   0  0  0  0  0  0  0  0  0  0  0  0
   -1.6231    0.8829    0.0000 C   0  0  0  0  0  0  0  0  0  0  0  0
   -0.3240    1.6329    0.0000 C   0  0  0  0  0  0  0  0  0  0  0  0
    2.2740    1.6329    0.0000 C   0  0  0  0  0  0  0  0  0  0  0  0
   -2.9221    1.6329    0.0000 C   0  0  0  0  0  0  0  0  0  0  0  0
    0.9750    0.8829    0.0000 N   0  0  0  0  0  0  0  0  0  0  0  0
    3.5731    2.3829    0.0000 S   0  0  0  0  0  0  0  0  0  0  0  0
  2  1  2  0
  3  1  1  0
  4  2  1  0
  5  3  2  0
  7  6  1  0
  9  4  2  0
  9  5  1  0
  9  6  1  0
 10  7  1  0
 10  8  2  0
 11  8  2  0
M  END
>  <NAME>  (5597) 
2-PHENYLETHYL ISOTHIOCYANATE

>  <SYNONYMS>  (5597) 


>  <SPECTRUM TYPE>  (5597) 
MS1

>  <INSTRUMENT TYPE>  (5597) 
EI-B

>  <INSTRUMENT>  (5597) 
SHIMADZU LKB-9000B

>  <ION MODE>  (5597) 
P

>  <INCHIKEY>  (5597) 
IZJDOKYDEWTZSO-UHFFFAOYSA-N

>  <FORMULA>  (5597) 
C9H9NS

>  <EXACT MASS>  (5597) 
163.045570288

>  <MW>  (5597) 
163

>  <ID>  (5597) 
JP000925

>  <CONTRIBUTOR>  (5597) 
University of Tokyo Team, {Faculty of Engineering, University of Tokyo

>  <COMMENT>  (5597) 
SMILES=S=C=NCCc(c1)cccc1
InChI=InChI=1S/C9H9NS/c11-8-10-7-6-9-4-2-1-3-5-9/h1-5H,6-7H2
computed SMILES=S=C=NCCC=1C=CC=CC1
accession=JP000925
date=2016.01.19 (Created 2008.10.21, modified 2011.05.06)
author=KAMEOKA H, DEPT. OF APPLIED CHEMISTRY, FAC. OF SCI. AND ENGINEERING, KINKI UNIV.
license=CC BY-NC-SA
exact mass=163.04557
ionization energy=70 eV
ion type=[M]+*
computed spectral entropy=2.736177365191009
computed normalized entropy=0.8500412920722233
SPLASH=splash10-0lxx-9600000000-1487c40cb717ac50d540
submitter=submitter = University of Tokyo Team (Faculty of Engineering, University of Tokyo)
MoNA Rating=3.75

>  <NUM PEAKS>  (5597) 
25

>  <MASS SPECTRAL PEAKS>  (5597) 
39 9.1
50 14.1
51 29.3
58 0.61
63 27.3
65 45.5
72 47.5
77 5.25
78 30.3
79 40.4
89 22.2
90 0.91
91 91.9
92 54.6
101 3
102 1.01
103 44.4
104 23.2
105 75.8
106 1.41
128 6.1
135 9.1
163 99.99
164 3.33
165 15.2

>  <PREDICTED SPECTRUM>  (5597) 
14 11
15 48
18 28
26 67
27 129
28 64
29 42
32 72
33 13
34 14
37 49
38 91
39 321
40 94
41 124
42 21
43 66
44 111
45 123
46 40
47 64
49 10
50 205
51 349
52 135
53 32
57 2
58 213
59 228
60 13
61 96
62 111
63 290
64 108
65 465
66 36
69 31
70 66
71 174
72 451
73 130
74 110
75 105
76 111
77 293
78 272
79 105
86 17
87 11
89 262
90 130
91 999
92 404
93 34
101 15
102 202
103 384
104 541
105 404
106 73
115 43
117 91
130 190
131 78
160 8
161 61
162 157
163 874
164 296
165 181
166 43

$$$$

     RDKit          2D

 10  9  0  0  0  0  0  0  0  0999 V2000
    2.5981    5.2500    0.0000 C   0  0  0  0  0  0  0  0  0  0  0  0
   -3.8971    6.0000    0.0000 C   0  0  0  0  0  0  0  0  0  0  0  0
   -5.1962    5.2500    0.0000 C   0  0  0  0  0  0  0  0  0  0  0  0
   -2.5981    5.2500    0.0000 C   0  0  0  0  0  0  0  0  0  0  0  0
   -6.4952    6.0000    0.0000 C   0  0  0  0  0  0  0  0  0  0  0  0
   -1.2990    6.0000    0.0000 C   0  0  0  0  0  0  0  0  0  0  0  0
   -7.7942    5.2500    0.0000 C   0  0  0  0  0  0  0  0  0  0  0  0
    0.0000    5.2500    0.0000 C   0  0  0  0  0  0  0  0  0  0  0  0
   -9.0933    4.5000    0.0000 N   0  0  0  0  0  0  0  0  0  0  0  0
    1.2990    6.0000    0.0000 S   0  0  0  0  0  0  0  0  0  0  0  0
  3  2  1  0
  4  2  1  0
  5  3  1  0
  6  4  1  0
  7  5  1  0
  8  6  1  0
  9  7  3  0
 10  1  1  0
 10  8  1  0
M  END
>  <NAME>  (5598) 
7-METHYLTHIOHEPTANENITRILE

>  <SYNONYMS>  (5598) 


>  <SPECTRUM TYPE>  (5598) 
MS1

>  <INSTRUMENT TYPE>  (5598) 
EI-B

>  <INSTRUMENT>  (5598) 
SHIMADZU LKB-9000B

>  <ION MODE>  (5598) 
P

>  <INCHIKEY>  (5598) 
MAMGGQVRQMBXMB-UHFFFAOYSA-N

>  <FORMULA>  (5598) 
C8H15NS

>  <EXACT MASS>  (5598) 
157.09252048

>  <MW>  (5598) 
157

>  <ID>  (5598) 
JP000924

>  <CONTRIBUTOR>  (5598) 
University of Tokyo Team, {Faculty of Engineering, University of Tokyo

>  <COMMENT>  (5598) 
SMILES=N#CCCCCCCSC
InChI=InChI=1S/C8H15NS/c1-10-8-6-4-2-3-5-7-9/h2-6,8H2,1H3
computed SMILES=N#CCCCCCCSC
accession=JP000924
date=2016.01.19 (Created 2008.10.21, modified 2011.05.06)
author=KAMEOKA H, DEPT. OF APPLIED CHEMISTRY, FAC. OF SCI. AND ENGINEERING, KINKI UNIV.
license=CC BY-NC-SA
exact mass=157.09252
ionization energy=70 eV
ion type=[M]+*
computed spectral entropy=1.943319637093152
computed normalized entropy=0.7176084240617832
SPLASH=splash10-03e9-9000000000-6a5898b538c7fbb464ae
submitter=submitter = University of Tokyo Team (Faculty of Engineering, University of Tokyo)
MoNA Rating=3.75

>  <NUM PEAKS>  (5598) 
15

>  <MASS SPECTRAL PEAKS>  (5598) 
41 11
55 16.5
61 99.99
62 0.8
63 5.5
69 32.5
81 11
82 4.35
83 99
96 18.5
110 14
142 0.25
157 13.5
158 1.5
159 1

>  <PREDICTED SPECTRUM>  (5598) 
14 6
15 51
25 17
26 131
27 348
28 148
29 203
30 107
31 12
32 23
33 54
34 56
35 231
36 43
37 82
38 129
39 469
40 211
41 766
42 359
43 163
44 104
45 394
46 345
47 409
48 233
49 237
50 112
51 160
52 202
53 405
54 517
55 579
56 276
57 98
58 78
59 247
60 312
61 999
62 273
63 185
64 146
65 86
66 293
67 680
68 542
69 262
70 151
71 74
72 91
73 153
74 223
75 379
76 285
77 142
78 59
79 9
80 250
81 385
82 497
83 287
84 92
85 95
86 237
87 292
88 109
89 73
90 49
92 50
94 96
95 135
96 202
97 108
98 101
99 65
100 208
101 216
102 92
103 54
104 5
108 290
109 229
110 435
111 246
112 88
113 25
114 168
115 73
116 148
117 226
124 41
128 50
129 66
142 290
143 73
144 90
156 138
157 400
158 114
159 69
160 3

$$$$

     RDKit          2D

  9  8  0  0  0  0  0  0  0  0999 V2000
    3.2476    4.1250    0.0000 C   0  0  0  0  0  0  0  0  0  0  0  0
   -3.2476    4.8750    0.0000 C   0  0  0  0  0  0  0  0  0  0  0  0
   -1.9486    4.1250    0.0000 C   0  0  0  0  0  0  0  0  0  0  0  0
   -4.5466    4.1250    0.0000 C   0  0  0  0  0  0  0  0  0  0  0  0
   -0.6495    4.8750    0.0000 C   0  0  0  0  0  0  0  0  0  0  0  0
   -5.8457    4.8750    0.0000 C   0  0  0  0  0  0  0  0  0  0  0  0
    0.6495    4.1250    0.0000 C   0  0  0  0  0  0  0  0  0  0  0  0
   -7.1447    5.6250    0.0000 N   0  0  0  0  0  0  0  0  0  0  0  0
    1.9486    4.8750    0.0000 S   0  0  0  0  0  0  0  0  0  0  0  0
  3  2  1  0
  4  2  1  0
  5  3  1  0
  6  4  1  0
  7  5  1  0
  8  6  3  0
  9  1  1  0
  9  7  1  0
M  END
>  <NAME>  (5599) 
6-METHYLTHIOHEXANENITRILE

>  <SYNONYMS>  (5599) 


>  <SPECTRUM TYPE>  (5599) 
MS1

>  <INSTRUMENT TYPE>  (5599) 
EI-B

>  <INSTRUMENT>  (5599) 
SHIMADZU LKB-9000B

>  <ION MODE>  (5599) 
P

>  <INCHIKEY>  (5599) 
ULSCBSNSXYDREI-UHFFFAOYSA-N

>  <FORMULA>  (5599) 
C7H13NS

>  <EXACT MASS>  (5599) 
143.076870416

>  <MW>  (5599) 
143

>  <ID>  (5599) 
JP000923

>  <CONTRIBUTOR>  (5599) 
University of Tokyo Team, {Faculty of Engineering, University of Tokyo

>  <COMMENT>  (5599) 
SMILES=N#CCCCCCSC
InChI=InChI=1S/C7H13NS/c1-9-7-5-3-2-4-6-8/h2-5,7H2,1H3
computed SMILES=N#CCCCCCSC
accession=JP000923
date=2016.01.19 (Created 2008.10.21, modified 2011.05.06)
author=KAMEOKA H, DEPT. OF APPLIED CHEMISTRY, FAC. OF SCI. AND ENGINEERING, KINKI UNIV.
license=CC BY-NC-SA
exact mass=143.07687
ionization energy=70 eV
ion type=[M]+*
computed spectral entropy=2.4648368281534325
computed normalized entropy=0.8227827466134916
SPLASH=splash10-01ox-9100000000-1b714c059fb8b0326888
submitter=submitter = University of Tokyo Team (Faculty of Engineering, University of Tokyo)
MoNA Rating=3.75

>  <NUM PEAKS>  (5599) 
20

>  <MASS SPECTRAL PEAKS>  (5599) 
32 22.5
39 21
41 52
45 2
48 21
55 37.5
61 99.99
62 1.15
63 6
69 26
73 6.5
75 1
82 13.5
85 6
96 27.5
97 1.9
128 7.5
143 54.5
144 8.5
145 5

>  <PREDICTED SPECTRUM>  (5599) 
14 17
15 68
25 22
26 149
27 369
28 163
29 197
30 58
31 15
32 29
33 67
34 58
35 254
36 59
37 109
38 160
39 488
40 232
41 730
42 342
43 207
44 144
45 449
46 400
47 448
48 256
49 232
50 125
51 166
52 236
53 405
54 507
55 476
56 186
57 88
58 60
59 258
60 333
61 999
62 275
63 207
64 43
65 58
66 222
67 660
68 583
69 354
70 119
71 114
72 180
73 184
74 133
75 271
76 217
77 43
78 59
80 147
81 239
82 312
83 191
84 106
85 65
86 202
87 284
88 112
89 117
90 29
92 43
94 293
95 261
96 447
97 285
98 87
99 46
100 154
101 104
102 160
103 252
110 33
114 75
115 78
116 3
128 245
129 45
130 76
142 124
143 425
144 127
145 79
146 1

$$$$

     RDKit          2D

 10 10  0  0  0  0  0  0  0  0999 V2000
   -3.5724    4.2575    0.0000 C   0  0  0  0  0  0  0  0  0  0  0  0
   -3.5728    2.7567    0.0000 C   0  0  0  0  0  0  0  0  0  0  0  0
   -2.2728    5.0083    0.0000 C   0  0  0  0  0  0  0  0  0  0  0  0
    1.6238    2.7575    0.0000 C   0  0  0  0  0  0  0  0  0  0  0  0
   -2.2738    2.0067    0.0000 C   0  0  0  0  0  0  0  0  0  0  0  0
   -0.9738    4.2583    0.0000 C   0  0  0  0  0  0  0  0  0  0  0  0
    0.3248    2.0075    0.0000 C   0  0  0  0  0  0  0  0  0  0  0  0
    2.9228    2.0075    0.0000 C   0  0  0  0  0  0  0  0  0  0  0  0
   -0.9743    2.7575    0.0000 C   0  0  0  0  0  0  0  0  0  0  0  0
    4.2219    1.2575    0.0000 N   0  0  0  0  0  0  0  0  0  0  0  0
  2  1  2  0
  3  1  1  0
  5  2  1  0
  6  3  2  0
  7  4  1  0
  8  4  1  0
  9  5  2  0
  9  6  1  0
  9  7  1  0
 10  8  3  0
M  END
>  <NAME>  (5600) 
3-PHENYLPROPIONONITRILE

>  <SYNONYMS>  (5600) 


>  <SPECTRUM TYPE>  (5600) 
MS1

>  <INSTRUMENT TYPE>  (5600) 
EI-B

>  <INSTRUMENT>  (5600) 
SHIMADZU LKB-9000B

>  <ION MODE>  (5600) 
P

>  <INCHIKEY>  (5600) 
ACRWYXSKEHUQDB-UHFFFAOYSA-N

>  <FORMULA>  (5600) 
C9H9N

>  <EXACT MASS>  (5600) 
131.073499288

>  <MW>  (5600) 
131

>  <ID>  (5600) 
JP000922

>  <CONTRIBUTOR>  (5600) 
University of Tokyo Team, {Faculty of Engineering, University of Tokyo

>  <COMMENT>  (5600) 
SMILES=N#CCCc(c1)cccc1
InChI=InChI=1S/C9H9N/c10-8-4-7-9-5-2-1-3-6-9/h1-3,5-6H,4,7H2
computed SMILES=N#CCCC=1C=CC=CC1
accession=JP000922
date=2016.01.19 (Created 2008.10.21, modified 2011.05.06)
author=KAMEOKA H, DEPT. OF APPLIED CHEMISTRY, FAC. OF SCI. AND ENGINEERING, KINKI UNIV.
license=CC BY-NC-SA
exact mass=131.0735
ionization energy=70 eV
ion type=[M]+*
computed spectral entropy=1.693946298896206
computed normalized entropy=0.7064304759729358
SPLASH=splash10-0006-9200000000-c15196ced049b8e3681a
submitter=submitter = University of Tokyo Team (Faculty of Engineering, University of Tokyo)
MoNA Rating=3.75

>  <NUM PEAKS>  (5600) 
11

>  <MASS SPECTRAL PEAKS>  (5600) 
39 13.4
50 9.6
51 13.5
63 0.58
65 17.3
77 7.7
91 99.99
92 1.15
103 3.9
131 30.8
132 5.8

>  <PREDICTED SPECTRUM>  (5600) 
14 54
15 51
16 0
17 15
18 62
25 21
26 127
27 229
28 178
29 5
32 13
37 88
38 156
39 280
40 175
41 171
49 64
50 213
51 356
52 244
53 153
54 134
57 23
61 78
62 123
63 226
64 176
65 417
66 72
74 119
75 140
76 126
77 295
78 216
79 102
89 171
90 84
91 999
92 418
102 52
103 178
104 343
105 43
130 60
131 403
132 138

$$$$

     RDKit          2D

  8  7  0  0  0  0  0  0  0  0999 V2000
    1.9486    4.1250    0.0000 C   0  0  0  0  0  0  0  0  0  0  0  0
   -3.2476    4.1250    0.0000 C   0  0  0  0  0  0  0  0  0  0  0  0
   -4.5466    4.8750    0.0000 C   0  0  0  0  0  0  0  0  0  0  0  0
   -1.9486    4.8750    0.0000 C   0  0  0  0  0  0  0  0  0  0  0  0
   -5.8457    4.1250    0.0000 C   0  0  0  0  0  0  0  0  0  0  0  0
   -0.6495    4.1250    0.0000 C   0  0  0  0  0  0  0  0  0  0  0  0
   -7.1447    3.3750    0.0000 N   0  0  0  0  0  0  0  0  0  0  0  0
    0.6495    4.8750    0.0000 S   0  0  0  0  0  0  0  0  0  0  0  0
  3  2  1  0
  4  2  1  0
  5  3  1  0
  6  4  1  0
  7  5  3  0
  8  1  1  0
  8  6  1  0
M  END
>  <NAME>  (5601) 
5-METHYLTHIOPENTANENITRILE

>  <SYNONYMS>  (5601) 


>  <SPECTRUM TYPE>  (5601) 
MS1

>  <INSTRUMENT TYPE>  (5601) 
EI-B

>  <INSTRUMENT>  (5601) 
SHIMADZU LKB-9000B

>  <ION MODE>  (5601) 
P

>  <INCHIKEY>  (5601) 
XPUDGEZWSNPCMM-UHFFFAOYSA-N

>  <FORMULA>  (5601) 
C6H11NS

>  <EXACT MASS>  (5601) 
129.061220352

>  <MW>  (5601) 
129

>  <ID>  (5601) 
JP000921

>  <CONTRIBUTOR>  (5601) 
University of Tokyo Team, {Faculty of Engineering, University of Tokyo

>  <COMMENT>  (5601) 
SMILES=N#CCCCCSC
InChI=InChI=1S/C6H11NS/c1-8-6-4-2-3-5-7/h2-4,6H2,1H3
computed SMILES=N#CCCCCSC
accession=JP000921
date=2016.01.19 (Created 2008.10.21, modified 2011.05.06)
author=KAMEOKA H, DEPT. OF APPLIED CHEMISTRY, FAC. OF SCI. AND ENGINEERING, KINKI UNIV.
license=CC BY-NC-SA
exact mass=129.06122
ionization energy=70 eV
ion type=[M]+*
computed spectral entropy=2.703679354228883
computed normalized entropy=0.8622817227642993
SPLASH=splash10-03gi-9100000000-c83faf1b967891a0cc4b
submitter=submitter = University of Tokyo Team (Faculty of Engineering, University of Tokyo)
MoNA Rating=3.75

>  <NUM PEAKS>  (5601) 
23

>  <MASS SPECTRAL PEAKS>  (5601) 
32 24
35 15.5
39 21
41 2.4
45 20
46 15
47 20
48 2.5
53 10
54 20
55 29.5
61 99.99
62 9.5
63 10
73 9.5
75 1.05
82 43
83 20.5
87 16.5
114 0.12
129 55
130 8
131 7

>  <PREDICTED SPECTRUM>  (5601) 
14 23
15 58
25 27
26 150
27 342
28 157
29 155
30 20
31 17
32 49
33 93
34 75
35 288
36 74
37 127
38 200
39 509
40 249
41 649
42 291
43 165
44 153
45 559
46 480
47 571
48 322
49 293
50 110
51 184
52 227
53 414
54 539
55 488
56 176
57 98
58 155
59 288
60 286
61 999
62 222
63 148
64 26
65 46
66 178
67 521
68 393
69 193
70 108
71 50
72 149
73 235
74 104
75 229
76 151
77 35
78 63
80 307
81 345
82 496
83 325
84 108
85 63
86 150
87 194
88 175
89 364
94 34
95 47
96 62
100 49
101 74
114 187
115 18
116 70
128 51
129 495
130 145
131 88

$$$$

     RDKit          2D

  8  7  0  0  0  0  0  0  0  0999 V2000
    1.9486    4.1250    0.0000 C   0  0  0  0  0  0  0  0  0  0  0  0
    0.6495    4.8750    0.0000 C   0  0  0  0  0  0  0  0  0  0  0  0
   -0.6495    4.1250    0.0000 C   0  0  0  0  0  0  0  0  0  0  0  0
   -1.9486    4.8750    0.0000 C   0  0  0  0  0  0  0  0  0  0  0  0
   -3.2476    4.1250    0.0000 C   0  0  0  0  0  0  0  0  0  0  0  0
   -5.8457    4.1250    0.0000 C   0  0  0  0  0  0  0  0  0  0  0  0
   -4.5466    4.8750    0.0000 N   0  0  0  0  0  0  0  0  0  0  0  0
   -7.1447    3.3750    0.0000 S   0  0  0  0  0  0  0  0  0  0  0  0
  2  1  2  0
  3  2  1  0
  4  3  1  0
  5  4  1  0
  7  5  1  0
  7  6  2  0
  8  6  2  0
M  END
>  <NAME>  (5602) 
4-PENTENYL ISOTHIOCYANATE

>  <SYNONYMS>  (5602) 


>  <SPECTRUM TYPE>  (5602) 
MS1

>  <INSTRUMENT TYPE>  (5602) 
EI-B

>  <INSTRUMENT>  (5602) 
SHIMADZU LKB-9000B

>  <ION MODE>  (5602) 
P

>  <INCHIKEY>  (5602) 
DBISBKDNOKIADM-UHFFFAOYSA-N

>  <FORMULA>  (5602) 
C6H9NS

>  <EXACT MASS>  (5602) 
127.045570288

>  <MW>  (5602) 
127

>  <ID>  (5602) 
JP000920

>  <CONTRIBUTOR>  (5602) 
University of Tokyo Team, {Faculty of Engineering, University of Tokyo

>  <COMMENT>  (5602) 
SMILES=C=CCCCN=C=S
InChI=InChI=1S/C6H9NS/c1-2-3-4-5-7-6-8/h2H,1,3-5H2
computed SMILES=S=C=NCCCC=C
accession=JP000920
date=2016.01.19 (Created 2008.10.21, modified 2011.05.06)
author=KAMEOKA H, DEPT. OF APPLIED CHEMISTRY, FAC. OF SCI. AND ENGINEERING, KINKI UNIV.
license=CC BY-NC-SA
exact mass=127.04557
ionization energy=70 eV
ion type=[M]+*
computed spectral entropy=2.537273998170783
computed normalized entropy=0.8469628680004454
SPLASH=splash10-0076-9100000000-b80ff5278e20ade2da97
submitter=submitter = University of Tokyo Team (Faculty of Engineering, University of Tokyo)
MoNA Rating=3.75

>  <NUM PEAKS>  (5602) 
20

>  <MASS SPECTRAL PEAKS>  (5602) 
39 53.2
41 99.99
42 12.8
45 1.49
53 23.4
55 19.2
58 10.6
59 0.85
60 12.8
67 34
68 14.9
69 1.06
70 34
72 25.5
85 21.3
99 1.7
126 14.9
127 17
128 6
129 7.5

>  <PREDICTED SPECTRUM>  (5602) 
14 55
15 112
16 18
17 13
18 64
25 48
26 226
27 573
28 370
29 399
30 183
31 52
32 98
33 35
34 48
35 21
36 15
37 117
38 202
39 750
40 318
41 999
42 371
43 165
44 195
45 245
46 146
47 112
48 18
49 53
50 73
51 138
52 157
53 258
54 409
55 196
56 271
57 192
58 259
59 136
60 348
61 25
64 15
65 1
66 192
67 325
68 208
69 268
70 337
71 308
72 735
73 286
74 68
78 7
79 39
80 5
81 10
82 40
83 58
84 259
85 266
86 442
87 222
88 31
93 27
94 490
95 147
98 301
99 274
100 219
101 67
102 1
112 391
113 83
114 33
126 308
127 453
128 133
129 91

$$$$

     RDKit          2D

  7  6  0  0  0  0  0  0  0  0999 V2000
    2.5981    3.0000    0.0000 C   0  0  0  0  0  0  0  0  0  0  0  0
    1.2990    3.7500    0.0000 C   0  0  0  0  0  0  0  0  0  0  0  0
    0.0000    3.0000    0.0000 C   0  0  0  0  0  0  0  0  0  0  0  0
   -1.2990    3.7500    0.0000 C   0  0  0  0  0  0  0  0  0  0  0  0
   -3.8971    3.7500    0.0000 C   0  0  0  0  0  0  0  0  0  0  0  0
   -2.5981    3.0000    0.0000 N   0  0  0  0  0  0  0  0  0  0  0  0
   -5.1962    4.5000    0.0000 S   0  0  0  0  0  0  0  0  0  0  0  0
  2  1  2  0
  3  2  1  0
  4  3  1  0
  6  4  1  0
  6  5  2  0
  7  5  2  0
M  END
>  <NAME>  (5603) 
3-BUTENYL ISOTHIOCYANATE

>  <SYNONYMS>  (5603) 


>  <SPECTRUM TYPE>  (5603) 
MS1

>  <INSTRUMENT TYPE>  (5603) 
EI-B

>  <INSTRUMENT>  (5603) 
SHIMADZU LKB-9000B

>  <ION MODE>  (5603) 
P

>  <INCHIKEY>  (5603) 
SKIHGKNFJKJXPX-UHFFFAOYSA-N

>  <FORMULA>  (5603) 
C5H7NS

>  <EXACT MASS>  (5603) 
113.029920224

>  <MW>  (5603) 
113

>  <ID>  (5603) 
JP000919

>  <CONTRIBUTOR>  (5603) 
University of Tokyo Team, {Faculty of Engineering, University of Tokyo

>  <COMMENT>  (5603) 
SMILES=C=CCCN=C=S
InChI=InChI=1S/C5H7NS/c1-2-3-4-6-5-7/h2H,1,3-4H2
computed SMILES=S=C=NCCC=C
accession=JP000919
date=2016.01.19 (Created 2008.10.21, modified 2011.05.06)
license=CC BY-NC-SA
author=KAMEOKA H, DEPT. OF APPLIED CHEMISTRY, FAC. OF SCI. AND ENGINEERING, KINKI UNIV.
exact mass=113.02992
ionization energy=70 eV
ion type=[M]+*
computed spectral entropy=2.178666400279756
computed normalized entropy=0.8045147757574849
SPLASH=splash10-05fr-9200000000-1a40200ada4e3470682d
submitter=submitter = University of Tokyo Team (Faculty of Engineering, University of Tokyo)
MoNA Rating=3.75

>  <NUM PEAKS>  (5603) 
15

>  <MASS SPECTRAL PEAKS>  (5603) 
39 49.1
41 28.3
51 13.2
53 1.89
55 49.1
58 7.6
59 11.3
60 0.94
72 99.99
73 9.4
74 17
85 1.51
113 50.9
114 9.4
115 7.7

>  <PREDICTED SPECTRUM>  (5603) 
14 54
15 89
18 50
25 30
26 177
27 419
28 273
29 220
30 110
31 42
32 93
33 38
34 15
37 84
38 191
39 727
40 303
41 999
42 213
43 18
44 86
45 246
46 171
47 75
49 38
50 8
52 61
53 140
54 356
55 343
56 292
57 134
58 280
59 187
60 39
66 7
67 96
68 252
69 57
70 190
71 201
72 839
73 398
74 164
80 314
81 53
84 115
85 141
86 246
87 127
98 215
100 16
112 265
113 432
114 114
115 125

$$$$

     RDKit          2D

  6  5  0  0  0  0  0  0  0  0999 V2000
    1.2990    3.0000    0.0000 C   0  0  0  0  0  0  0  0  0  0  0  0
    0.0000    3.7500    0.0000 C   0  0  0  0  0  0  0  0  0  0  0  0
   -1.2990    3.0000    0.0000 C   0  0  0  0  0  0  0  0  0  0  0  0
   -2.5981    3.7500    0.0000 C   0  0  0  0  0  0  0  0  0  0  0  0
   -3.8971    3.0000    0.0000 C   0  0  0  0  0  0  0  0  0  0  0  0
   -5.1962    2.2500    0.0000 N   0  0  0  0  0  0  0  0  0  0  0  0
  2  1  2  0
  3  2  1  0
  4  3  1  0
  5  4  1  0
  6  5  3  0
M  END
>  <NAME>  (5604) 
4-PENTENENITRILE

>  <SYNONYMS>  (5604) 


>  <SPECTRUM TYPE>  (5604) 
MS1

>  <INSTRUMENT TYPE>  (5604) 
EI-B

>  <INSTRUMENT>  (5604) 
SHIMADZU LKB-9000B

>  <ION MODE>  (5604) 
P

>  <INCHIKEY>  (5604) 
CFEYBLWMNFZOPB-UHFFFAOYSA-N

>  <FORMULA>  (5604) 
C5H7N

>  <EXACT MASS>  (5604) 
81.057849224

>  <MW>  (5604) 
81

>  <ID>  (5604) 
JP000918

>  <CONTRIBUTOR>  (5604) 
University of Tokyo Team, {Faculty of Engineering, University of Tokyo

>  <COMMENT>  (5604) 
SMILES=C=CCCC#N
InChI=InChI=1S/C5H7N/c1-2-3-4-5-6/h2H,1,3-4H2
computed SMILES=N#CCCC=C
accession=JP000918
date=2016.01.19 (Created 2008.10.21, modified 2011.05.06)
author=KAMEOKA H, DEPT. OF APPLIED CHEMISTRY, FAC. OF SCI. AND ENGINEERING, KINKI UNIV.
license=CC BY-NC-SA
exact mass=81.05785
ionization energy=70 eV
ion type=[M]+*
computed spectral entropy=1.9372972380287365
computed normalized entropy=0.8413575002822908
SPLASH=splash10-0f7x-9000000000-dae056a0485d22dde566
submitter=submitter = University of Tokyo Team (Faculty of Engineering, University of Tokyo)
MoNA Rating=3.75

>  <NUM PEAKS>  (5604) 
10

>  <MASS SPECTRAL PEAKS>  (5604) 
39 80
40 23
41 99.99
50 2
51 26
52 26
53 40
54 7.4
81 63
82 6

>  <PREDICTED SPECTRUM>  (5604) 
14 73
15 63
18 6
25 120
26 339
27 583
28 534
29 64
30 36
36 73
37 216
38 382
39 852
40 590
41 999
42 320
44 45
46 4
49 156
50 221
51 424
52 580
53 660
54 625
55 33
62 104
63 100
64 189
65 94
66 121
78 85
80 328
81 551
82 118

$$$$

     RDKit          2D

  6  5  0  0  0  0  0  0  0  0999 V2000
   -4.5466    3.3750    0.0000 C   0  0  0  0  0  0  0  0  0  0  0  0
    1.9486    2.6250    0.0000 C   0  0  0  0  0  0  0  0  0  0  0  0
   -3.2476    2.6250    0.0000 S   0  0  0  0  0  0  0  0  0  0  0  0
    0.6495    3.3750    0.0000 S   0  0  0  0  0  0  0  0  0  0  0  0
   -1.9486    3.3750    0.0000 S   0  0  0  0  0  0  0  0  0  0  0  0
   -0.6495    2.6250    0.0000 S   0  0  0  0  0  0  0  0  0  0  0  0
  3  1  1  0
  4  2  1  0
  5  3  1  0
  6  4  1  0
  6  5  1  0
M  END
>  <NAME>  (5605) 
DIMETHYL TETRASULFIDE

>  <SYNONYMS>  (5605) 


>  <SPECTRUM TYPE>  (5605) 
MS1

>  <INSTRUMENT TYPE>  (5605) 
EI-B

>  <INSTRUMENT>  (5605) 
SHIMADZU LKB-9000B

>  <ION MODE>  (5605) 
P

>  <INCHIKEY>  (5605) 
NPNIZCVKXVRCHF-UHFFFAOYSA-N

>  <FORMULA>  (5605) 
C2H6S4

>  <EXACT MASS>  (5605) 
157.935234192

>  <MW>  (5605) 
158

>  <ID>  (5605) 
JP000917

>  <CONTRIBUTOR>  (5605) 
University of Tokyo Team, {Faculty of Engineering, University of Tokyo

>  <COMMENT>  (5605) 
SMILES=CSSSSC
InChI=InChI=1S/C2H6S4/c1-3-5-6-4-2/h1-2H3
computed SMILES=S(SSC)SC
accession=JP000917
date=2016.01.19 (Created 2008.10.21, modified 2011.05.06)
author=KAMEOKA H, DEPT. OF APPLIED CHEMISTRY, FAC. OF SCI. AND ENGINEERING, KINKI UNIV.
license=CC BY-NC-SA
exact mass=157.93523
ionization energy=70 eV
ion type=[M]+*
computed spectral entropy=2.3983923079582183
computed normalized entropy=0.7759169743373935
SPLASH=splash10-004j-9200000000-d2c11999acc2236bfc1b
submitter=submitter = University of Tokyo Team (Faculty of Engineering, University of Tokyo)
MoNA Rating=3.75

>  <NUM PEAKS>  (5605) 
22

>  <MASS SPECTRAL PEAKS>  (5605) 
45 31.2
46 15.6
47 24.8
48 0.57
61 13.9
64 26.6
65 2
66 0.46
79 99.99
80 16.1
81 10.2
94 5.5
95 2.2
96 5.8
111 10.2
112 0.2
126 43.1
127 2.3
128 5.7
158 4.42
159 2.3
160 7.9

>  <PREDICTED SPECTRUM>  (5605) 
15 98
31 55
32 119
33 101
34 71
35 107
37 15
38 76
40 9
41 144
43 21
44 320
45 751
46 561
47 728
48 447
49 118
50 33
52 66
53 23
54 50
57 96
58 18
61 126
62 137
63 218
64 543
65 251
66 226
67 84
68 90
73 12
75 106
77 70
78 84
79 999
80 345
81 289
82 82
93 109
94 773
95 223
96 204
108 68
110 166
111 310
112 177
113 140
114 104
126 315
142 1
143 74
158 794
159 153
160 278
161 11

$$$$

     RDKit          2D

  8  7  0  0  0  0  0  0  0  0999 V2000
   -6.4952    4.5000    0.0000 C   0  0  0  0  0  0  0  0  0  0  0  0
    2.5981    3.7500    0.0000 C   0  0  0  0  0  0  0  0  0  0  0  0
   -5.1962    3.7500    0.0000 C   0  0  0  0  0  0  0  0  0  0  0  0
   -3.8971    4.5000    0.0000 C   0  0  0  0  0  0  0  0  0  0  0  0
   -2.5981    3.7500    0.0000 C   0  0  0  0  0  0  0  0  0  0  0  0
   -1.2990    4.5000    0.0000 C   0  0  0  0  0  0  0  0  0  0  0  0
    1.2990    4.5000    0.0000 S   0  0  0  0  0  0  0  0  0  0  0  0
    0.0000    3.7500    0.0000 S   0  0  0  0  0  0  0  0  0  0  0  0
  3  1  1  0
  4  3  1  0
  5  4  1  0
  6  5  1  0
  7  2  1  0
  8  6  1  0
  8  7  1  0
M  END
>  <NAME>  (5606) 
METHYL PENTYL DISULFIDE

>  <SYNONYMS>  (5606) 


>  <SPECTRUM TYPE>  (5606) 
MS1

>  <INSTRUMENT TYPE>  (5606) 
EI-B

>  <INSTRUMENT>  (5606) 
SHIMADZU LKB-9000B

>  <ION MODE>  (5606) 
P

>  <INCHIKEY>  (5606) 
VDJXDNLYBDHPHP-UHFFFAOYSA-N

>  <FORMULA>  (5606) 
C6H14S2

>  <EXACT MASS>  (5606) 
150.053692448

>  <MW>  (5606) 
150

>  <ID>  (5606) 
JP000916

>  <CONTRIBUTOR>  (5606) 
University of Tokyo Team, {Faculty of Engineering, University of Tokyo

>  <COMMENT>  (5606) 
SMILES=CCCCCSSC
InChI=InChI=1S/C6H14S2/c1-3-4-5-6-8-7-2/h3-6H2,1-2H3
computed SMILES=S(SCCCCC)C
accession=JP000916
date=2016.01.19 (Created 2008.10.21, modified 2011.05.06)
author=KAMEOKA H, DEPT. OF APPLIED CHEMISTRY, FAC. OF SCI. AND ENGINEERING, KINKI UNIV.
license=CC BY-NC-SA
exact mass=150.05369
ionization energy=70 eV
ion type=[M]+*
computed spectral entropy=1.9671551127885758
computed normalized entropy=0.7916414537972296
SPLASH=splash10-007o-9400000000-793ea6fa0781fadaeedb
submitter=submitter = University of Tokyo Team (Faculty of Engineering, University of Tokyo)
MoNA Rating=3.75

>  <NUM PEAKS>  (5606) 
12

>  <MASS SPECTRAL PEAKS>  (5606) 
41 9.5
43 99.99
47 20
61 1.27
79 16.4
80 70.9
94 21.8
108 1.82
122 61.8
150 41.8
151 5.5
152 3.6

>  <PREDICTED SPECTRUM>  (5606) 
14 14
15 67
25 10
26 140
27 612
28 173
29 685
30 161
31 88
32 106
33 30
34 56
35 116
37 61
38 112
39 545
40 177
41 840
42 423
43 999
44 245
45 432
46 344
47 481
48 206
49 95
51 36
52 37
53 161
54 120
55 475
57 194
58 120
59 71
60 58
61 285
62 6
63 253
64 195
65 134
66 58
67 165
68 102
69 207
70 358
71 578
72 182
79 258
80 706
81 219
82 233
91 5
93 173
94 66
105 29
107 70
108 4
135 9
150 666
151 223
152 168
153 31

$$$$

     RDKit          2D

  7  6  0  0  0  0  0  0  0  0999 V2000
    1.9486    3.3750    0.0000 C   0  0  0  0  0  0  0  0  0  0  0  0
    0.6495    4.1250    0.0000 C   0  0  0  0  0  0  0  0  0  0  0  0
   -0.6495    3.3750    0.0000 C   0  0  0  0  0  0  0  0  0  0  0  0
   -1.9486    4.1250    0.0000 C   0  0  0  0  0  0  0  0  0  0  0  0
   -3.2476    3.3750    0.0000 C   0  0  0  0  0  0  0  0  0  0  0  0
   -5.8457    3.3750    0.0000 S   0  0  0  0  0  0  0  0  0  0  0  0
   -4.5466    4.1250    0.0000 S   0  0  0  0  0  0  0  0  0  0  0  0
  2  1  1  0
  3  2  1  0
  4  3  1  0
  5  4  1  0
  7  5  1  0
  7  6  1  0
M  END
>  <NAME>  (5607) 
PENTYL HYDRODISULFIDE

>  <SYNONYMS>  (5607) 


>  <SPECTRUM TYPE>  (5607) 
MS1

>  <INSTRUMENT TYPE>  (5607) 
EI-B

>  <INSTRUMENT>  (5607) 
SHIMADZU LKB-9000B

>  <ION MODE>  (5607) 
P

>  <INCHIKEY>  (5607) 
DPLYGYOSWLFGGY-UHFFFAOYSA-N

>  <FORMULA>  (5607) 
C5H12S2

>  <EXACT MASS>  (5607) 
136.038042384

>  <MW>  (5607) 
136

>  <ID>  (5607) 
JP000915

>  <CONTRIBUTOR>  (5607) 
University of Tokyo Team, {Faculty of Engineering, University of Tokyo

>  <COMMENT>  (5607) 
SMILES=CCCCCSS
InChI=InChI=1S/C5H12S2/c1-2-3-4-5-7-6/h6H,2-5H2,1H3
computed SMILES=SSCCCCC
accession=JP000915
date=2016.01.19 (Created 2008.10.21, modified 2011.05.06)
author=KAMEOKA H, DEPT. OF APPLIED CHEMISTRY, FAC. OF SCI. AND ENGINEERING, KINKI UNIV.
license=CC BY-NC-SA
exact mass=136.03804
ionization energy=70 eV
ion type=[M]+*
computed spectral entropy=1.4903464414524052
computed normalized entropy=0.716705140096633
SPLASH=splash10-00dr-9800000000-d326095cea1b84498082
submitter=submitter = University of Tokyo Team (Faculty of Engineering, University of Tokyo)
MoNA Rating=3.75

>  <NUM PEAKS>  (5607) 
8

>  <MASS SPECTRAL PEAKS>  (5607) 
55 12
70 7.2
71 99.99
72 0.72
103 26.5
136 74.7
137 7.2
138 10.8

>  <PREDICTED SPECTRUM>  (5607) 
26 68
27 398
28 13
29 358
32 71
33 62
34 71
35 89
38 28
39 345
40 54
41 668
42 297
43 400
44 123
45 372
46 275
47 248
48 65
53 135
54 189
55 517
57 238
58 76
59 120
60 291
61 128
65 194
66 45
67 197
68 269
69 351
70 575
71 965
72 76
73 49
74 59
75 89
76 22
79 70
81 21
82 171
90 69
91 5
93 18
103 337
136 999
137 298
138 296
139 13

$$$$

     RDKit          2D

  5  4  0  0  0  0  0  0  0  0999 V2000
   -3.8971    2.2500    0.0000 C   0  0  0  0  0  0  0  0  0  0  0  0
    1.2990    2.2500    0.0000 C   0  0  0  0  0  0  0  0  0  0  0  0
   -2.5981    1.5000    0.0000 S   0  0  0  0  0  0  0  0  0  0  0  0
    0.0000    1.5000    0.0000 S   0  0  0  0  0  0  0  0  0  0  0  0
   -1.2990    2.2500    0.0000 S   0  0  0  0  0  0  0  0  0  0  0  0
  3  1  1  0
  4  2  1  0
  5  3  1  0
  5  4  1  0
M  END
>  <NAME>  (5608) 
DIMETHYL TRISULFIDE

>  <SYNONYMS>  (5608) 


>  <SPECTRUM TYPE>  (5608) 
MS1

>  <INSTRUMENT TYPE>  (5608) 
EI-B

>  <INSTRUMENT>  (5608) 
SHIMADZU LKB-9000B

>  <ION MODE>  (5608) 
P

>  <INCHIKEY>  (5608) 
YWHLKYXPLRWGSE-UHFFFAOYSA-N

>  <FORMULA>  (5608) 
C2H6S3

>  <EXACT MASS>  (5608) 
125.963163192

>  <MW>  (5608) 
126

>  <ID>  (5608) 
JP000914

>  <CONTRIBUTOR>  (5608) 
University of Tokyo Team, {Faculty of Engineering, University of Tokyo

>  <COMMENT>  (5608) 
SMILES=CSSSC
InChI=InChI=1S/C2H6S3/c1-3-5-4-2/h1-2H3
computed SMILES=S(SC)SC
accession=JP000914
ionization energy=70 eV
date=2016.01.19 (Created 2008.10.21, modified 2011.05.06)
author=KAMEOKA H, DEPT. OF APPLIED CHEMISTRY, FAC. OF SCI. AND ENGINEERING, KINKI UNIV.
license=CC BY-NC-SA
exact mass=125.96316
ion type=[M]+*
computed spectral entropy=2.007791952003584
computed normalized entropy=0.7086624649060476
SPLASH=splash10-004i-8900000000-51e17f5b584d2fdfd191
submitter=submitter = University of Tokyo Team (Faculty of Engineering, University of Tokyo)
MoNA Rating=3.75

>  <NUM PEAKS>  (5608) 
17

>  <MASS SPECTRAL PEAKS>  (5608) 
45 14.9
46 4.6
47 19.4
48 0.1
61 11
62 0.8
64 7.6
78 0.95
79 39.1
80 16.5
81 4.2
82 0.1
111 14.8
113 1.9
126 99.99
127 0.48
128 13.3

>  <PREDICTED SPECTRUM>  (5608) 
14 10
15 175
25 11
31 41
32 121
33 88
34 90
35 142
36 91
37 75
38 52
40 61
41 300
42 44
43 4
44 495
45 875
46 626
47 914
48 502
49 240
50 141
51 2
52 39
57 166
61 169
62 402
63 238
64 390
65 106
66 70
67 126
70 28
76 115
77 99
78 389
79 999
80 421
81 325
82 138
84 8
93 59
94 238
95 71
110 44
111 433
112 89
113 70
126 929
127 176
128 284

$$$$

     RDKit          2D

  6  5  0  0  0  0  0  0  0  0999 V2000
   -4.5466    3.3750    0.0000 C   0  0  0  0  0  0  0  0  0  0  0  0
    1.9486    2.6250    0.0000 C   0  0  0  0  0  0  0  0  0  0  0  0
   -3.2476    2.6250    0.0000 C   0  0  0  0  0  0  0  0  0  0  0  0
   -1.9486    3.3750    0.0000 C   0  0  0  0  0  0  0  0  0  0  0  0
    0.6495    3.3750    0.0000 S   0  0  0  0  0  0  0  0  0  0  0  0
   -0.6495    2.6250    0.0000 S   0  0  0  0  0  0  0  0  0  0  0  0
  3  1  2  0
  4  3  1  0
  5  2  1  0
  6  4  1  0
  6  5  1  0
M  END
>  <NAME>  (5609) 
ALLYL METHYL DISULFIDE

>  <SYNONYMS>  (5609) 


>  <SPECTRUM TYPE>  (5609) 
MS1

>  <INSTRUMENT TYPE>  (5609) 
EI-B

>  <INSTRUMENT>  (5609) 
SHIMADZU LKB-9000B

>  <ION MODE>  (5609) 
P

>  <INCHIKEY>  (5609) 
XNZOTQPMYMCTBZ-UHFFFAOYSA-N

>  <FORMULA>  (5609) 
C4H8S2

>  <EXACT MASS>  (5609) 
120.006742256

>  <MW>  (5609) 
120

>  <ID>  (5609) 
JP000913

>  <CONTRIBUTOR>  (5609) 
University of Tokyo Team, {Faculty of Engineering, University of Tokyo

>  <COMMENT>  (5609) 
SMILES=C=CCSSC
InChI=InChI=1S/C4H8S2/c1-3-4-6-5-2/h3H,1,4H2,2H3
computed SMILES=S(SCC=C)C
accession=JP000913
date=2016.01.19 (Created 2008.10.21, modified 2011.05.06)
author=KAMEOKA H, DEPT. OF APPLIED CHEMISTRY, FAC. OF SCI. AND ENGINEERING, KINKI UNIV.
license=CC BY-NC-SA
exact mass=120.00674
ionization energy=70 eV
ion type=[M]+*
computed spectral entropy=1.8092750613823882
computed normalized entropy=0.6144719161049101
SPLASH=splash10-006x-9400000000-b22656c2fc50d291c433
submitter=submitter = University of Tokyo Team (Faculty of Engineering, University of Tokyo)
MoNA Rating=3.75

>  <NUM PEAKS>  (5609) 
19

>  <MASS SPECTRAL PEAKS>  (5609) 
39 9.6
41 99.99
42 3.6
43 0.25
45 8.1
57 6
64 1.5
70 0.16
71 4.3
72 2.9
73 8.7
74 0.27
79 5.2
80 5
85 2.6
87 0.3
120 71.6
121 4.5
122 6.3

>  <PREDICTED SPECTRUM>  (5609) 
14 51
15 110
18 21
25 32
26 146
27 390
28 116
29 244
30 7
31 56
32 76
33 37
34 49
35 116
36 44
37 178
38 290
39 876
40 260
41 999
42 122
43 14
44 161
45 835
46 414
47 519
48 198
49 64
50 61
51 109
52 30
53 26
55 90
57 23
59 77
61 316
63 104
64 238
66 7
71 445
72 515
73 453
74 374
75 196
76 38
77 161
78 251
79 758
80 420
81 300
82 111
87 163
92 34
93 81
94 101
105 434
106 46
107 68
120 822
121 218
122 192
123 1

$$$$

     RDKit          2D

 13 13  0  0  0  0  0  0  0  0999 V2000
    4.0110   -3.7906    0.0000 C   0  0  0  0  0  0  0  0  0  0  0  0
   -5.1343    1.4111    0.0000 C   0  0  0  0  0  0  0  0  0  0  0  0
    2.5833   -4.2506    0.0000 C   0  0  0  0  0  0  0  0  0  0  0  0
    1.4711   -3.2441    0.0000 C   0  0  0  0  0  0  0  0  0  0  0  0
    0.0433   -3.7041    0.0000 C   0  0  0  0  0  0  0  0  0  0  0  0
   -1.0689   -2.6976    0.0000 C   0  0  0  0  0  0  0  0  0  0  0  0
   -2.4966   -3.1576    0.0000 C   0  0  0  0  0  0  0  0  0  0  0  0
   -5.8186   -1.1637    0.0000 C   0  0  0  0  0  0  0  0  0  0  0  0
   -4.8188   -0.0554    0.0000 C   0  0  0  0  0  0  0  0  0  0  0  0
   -5.0686   -2.4628    0.0000 C   0  0  0  0  0  0  0  0  0  0  0  0
   -3.6088   -2.1511    0.0000 C   0  0  0  0  0  0  0  0  0  0  0  0
   -5.6781   -3.8334    0.0000 O   0  0  0  0  0  0  0  0  0  0  0  0
   -3.4431   -0.6583    0.0000 O   0  0  0  0  0  0  0  0  0  0  0  0
  3  1  1  0
  4  3  1  0
  5  4  1  0
  6  5  1  0
  7  6  1  0
  9  2  1  0
  9  8  2  0
 10  8  1  0
 11  7  1  0
 11 10  1  0
 12 10  2  0
 13  9  1  0
 13 11  1  0
M  END
>  <NAME>  (5610) 
2,3-DIHYDRO-2-HEXYL-5-METHYLFURAN-3-ONE

>  <SYNONYMS>  (5610) 


>  <SPECTRUM TYPE>  (5610) 
MS1

>  <INSTRUMENT TYPE>  (5610) 
EI-B

>  <INSTRUMENT>  (5610) 
SHIMADZU LKB-9000B

>  <ION MODE>  (5610) 
P

>  <INCHIKEY>  (5610) 
AAUWBAWSKVOBFL-UHFFFAOYSA-N

>  <FORMULA>  (5610) 
C11H18O2

>  <EXACT MASS>  (5610) 
182.130679816

>  <MW>  (5610) 
182

>  <ID>  (5610) 
JP000911

>  <CONTRIBUTOR>  (5610) 
University of Tokyo Team, {Faculty of Engineering, University of Tokyo

>  <COMMENT>  (5610) 
SMILES=CCCCCCC(O1)C(=O)C=C(C)1
InChI=InChI=1S/C11H18O2/c1-3-4-5-6-7-11-10(12)8-9(2)13-11/h8,11H,3-7H2,1-2H3
computed SMILES=O=C1C=C(OC1CCCCCC)C
accession=JP000911
date=2016.01.19 (Created 2008.10.21, modified 2011.05.06)
author=KAMEOKA H, DEPT. OF APPLIED CHEMISTRY, FAC. OF SCI. AND ENGINEERING, KINKI UNIV.
license=CC BY-NC-SA
exact mass=182.13068
ionization energy=70 eV
ion type=[M]+*
computed spectral entropy=2.218487901643277
computed normalized entropy=0.7405494547119096
SPLASH=splash10-01ot-9200000000-4ff289414ebf1926a506
submitter=submitter = University of Tokyo Team (Faculty of Engineering, University of Tokyo)
MoNA Rating=3.75

>  <NUM PEAKS>  (5610) 
20

>  <MASS SPECTRAL PEAKS>  (5610) 
39 20.3
40 20
41 25.8
42 0.62
43 2.2
55 10.6
56 4.1
57 0.6
67 2.6
68 17
69 7.6
70 0.2
71 4.6
85 6.4
97 5.4
98 99.99
99 5.8
111 52.2
112 4
182 4

>  <PREDICTED SPECTRUM>  (5610) 
26 2
27 188
28 17
29 236
38 21
39 407
40 199
41 835
42 517
43 999
44 119
45 113
50 40
51 220
52 253
53 380
54 243
55 707
56 508
57 427
58 127
59 270
63 38
64 30
65 351
66 234
67 351
68 262
69 614
70 554
71 268
77 150
78 270
79 150
81 245
82 283
83 610
84 523
85 203
91 42
93 173
94 64
95 312
96 218
97 524
98 373
99 119
107 69
108 29
109 227
110 100
111 270
112 86
123 25
125 169
126 116
139 143
140 17
153 151
154 44
167 313
168 50
181 195
182 730
183 252

$$$$

     RDKit          2D

  9  9  0  0  0  0  0  0  0  0999 V2000
   -4.4201   -1.5763    0.0000 C   0  0  0  0  0  0  0  0  0  0  0  0
    3.1201    0.5774    0.0000 C   0  0  0  0  0  0  0  0  0  0  0  0
   -2.9283   -1.7338    0.0000 C   0  0  0  0  0  0  0  0  0  0  0  0
   -2.0461   -0.5207    0.0000 C   0  0  0  0  0  0  0  0  0  0  0  0
    0.1956   -1.9771    0.0000 C   0  0  0  0  0  0  0  0  0  0  0  0
    0.4453    0.4303    0.0000 C   0  0  0  0  0  0  0  0  0  0  0  0
   -0.5544   -0.6781    0.0000 C   0  0  0  0  0  0  0  0  0  0  0  0
    1.6553   -1.6655    0.0000 N   0  0  0  0  0  0  0  0  0  0  0  0
    1.8211   -0.1726    0.0000 N   0  0  0  0  0  0  0  0  0  0  0  0
  3  1  1  0
  4  3  1  0
  7  4  1  0
  7  5  1  0
  7  6  1  0
  8  5  2  0
  9  2  1  0
  9  6  1  0
  9  8  1  0
M  END
>  <NAME>  (5611) 
1-METHYL-4-PROPYL-2-PYRAZOLINE

>  <SYNONYMS>  (5611) 


>  <SPECTRUM TYPE>  (5611) 
MS1

>  <INSTRUMENT TYPE>  (5611) 
EI-B

>  <INSTRUMENT>  (5611) 
SHIMADZU LKB-2091

>  <ION MODE>  (5611) 
P

>  <INCHIKEY>  (5611) 
SUETXQJIPUGALV-UHFFFAOYSA-N

>  <FORMULA>  (5611) 
C7H14N2

>  <EXACT MASS>  (5611) 
126.115698448

>  <MW>  (5611) 
126

>  <ID>  (5611) 
JP000907

>  <CONTRIBUTOR>  (5611) 
University of Tokyo Team, {Faculty of Engineering, University of Tokyo

>  <COMMENT>  (5611) 
SMILES=CCCC(C1)C([H])=NN(C)1
InChI=InChI=1S/C7H14N2/c1-3-4-7-5-8-9(2)6-7/h5,7H,3-4,6H2,1-2H3
computed SMILES=N1=CC(CN1C)CCC
accession=JP000907
date=2016.01.19 (Created 2008.10.21, modified 2011.05.06)
author=SASAKI S, TOYOHASHI UNIV. OF TECH.
license=CC BY-NC-SA
exact mass=126.1157
ionization energy=70 eV
ion type=[M]+*
computed spectral entropy=2.2285358869371756
computed normalized entropy=0.6218847800752233
SPLASH=splash10-001i-9100000000-a2c09fd82ce642f33382
submitter=submitter = University of Tokyo Team (Faculty of Engineering, University of Tokyo)
MoNA Rating=3.75

>  <NUM PEAKS>  (5611) 
36

>  <MASS SPECTRAL PEAKS>  (5611) 
26 0.8
27 7.2
28 9
29 0.35
30 2
38 0.6
39 5.8
40 0.16
41 9.2
42 31.8
43 10.1
44 0.3
51 0.5
52 0.6
53 1.1
54 0.2
55 3.2
56 15.8
57 1.5
66 0.07
67 0.7
68 1.7
69 2
70 0.09
81 1.5
82 0.3
83 99.99
84 0.9
85 5
95 1.4
96 0.5
97 0.32
98 0.3
125 2.5
126 20.7
127 1.9

>  <PREDICTED SPECTRUM>  (5611) 
30 19
39 85
40 101
41 330
42 488
43 398
44 14
45 31
52 45
53 138
54 185
55 381
56 268
57 173
59 179
67 177
68 148
69 223
70 13
71 36
81 22
82 34
83 999
84 295
85 83
95 19
97 489
98 210
99 81
111 242
112 49
125 99
126 501
127 140

$$$$

     RDKit          2D

  9  9  0  0  0  0  0  0  0  0999 V2000
   -3.7156    1.9424    0.0000 C   0  0  0  0  0  0  0  0  0  0  0  0
    4.0488    0.8444    0.0000 C   0  0  0  0  0  0  0  0  0  0  0  0
   -2.4165    1.1924    0.0000 C   0  0  0  0  0  0  0  0  0  0  0  0
    1.8070   -0.6121    0.0000 C   0  0  0  0  0  0  0  0  0  0  0  0
   -1.1175    1.9424    0.0000 C   0  0  0  0  0  0  0  0  0  0  0  0
    0.3473   -0.3004    0.0000 C   0  0  0  0  0  0  0  0  0  0  0  0
    2.5570    0.6870    0.0000 C   0  0  0  0  0  0  0  0  0  0  0  0
    1.5573    1.7953    0.0000 N   0  0  0  0  0  0  0  0  0  0  0  0
    0.1815    1.1924    0.0000 N   0  0  0  0  0  0  0  0  0  0  0  0
  3  1  1  0
  5  3  1  0
  6  4  1  0
  7  2  1  0
  7  4  1  0
  8  7  2  0
  9  5  1  0
  9  6  1  0
  9  8  1  0
M  END
>  <NAME>  (5612) 
3-METHYL-1-PROPYL-2-PYRAZOLINE

>  <SYNONYMS>  (5612) 


>  <SPECTRUM TYPE>  (5612) 
MS1

>  <INSTRUMENT TYPE>  (5612) 
EI-B

>  <INSTRUMENT>  (5612) 
SHIMADZU LKB-2091

>  <ION MODE>  (5612) 
P

>  <INCHIKEY>  (5612) 
XXCCMDLLIVHSJT-UHFFFAOYSA-N

>  <FORMULA>  (5612) 
C7H14N2

>  <EXACT MASS>  (5612) 
126.11569844799999

>  <MW>  (5612) 
126

>  <ID>  (5612) 
JP000905

>  <CONTRIBUTOR>  (5612) 
University of Tokyo Team, {Faculty of Engineering, University of Tokyo

>  <COMMENT>  (5612) 
SMILES=CCCN(C1)N=C(C)C1
InChI=InChI=1S/C7H14N2/c1-3-5-9-6-4-7(2)8-9/h3-6H2,1-2H3
computed SMILES=N1=C(C)CCN1CCC
accession=JP000905
date=2016.01.19 (Created 2008.10.21, modified 2011.05.06)
author=SASAKI S, TOYOHASHI UNIV. OF TECH.
license=CC BY-NC-SA
exact mass=126.1157
ionization energy=70 eV
ion type=[M]+*
computed spectral entropy=2.11257208236607
computed normalized entropy=0.615195094380908
SPLASH=splash10-0002-9100000000-b8e38d463b5001cc6714
submitter=submitter = University of Tokyo Team (Faculty of Engineering, University of Tokyo)
MoNA Rating=3.75

>  <NUM PEAKS>  (5612) 
31

>  <MASS SPECTRAL PEAKS>  (5612) 
26 1.3
27 9.3
28 3.5
29 0.38
30 1.8
39 4
41 8.8
42 3.33
43 2.7
52 0.5
53 0.9
54 0.27
55 2.2
56 7
57 0.7
58 0.04
68 3.3
69 20
70 1.3
81 0.05
82 0.7
83 5
84 0.9
95 0.17
96 1.5
97 99.99
98 7.3
124 0.05
125 1.3
126 21.5
127 1.8

>  <PREDICTED SPECTRUM>  (5612) 
27 7
28 75
29 2
30 128
38 50
39 291
40 281
41 542
42 907
43 358
44 245
45 12
51 104
52 145
53 20
54 287
55 420
56 448
57 153
58 22
65 6
67 6
68 308
69 478
70 285
71 31
81 39
82 257
83 598
84 999
85 468
86 50
96 112
97 730
98 240
99 39
111 268
125 265
126 792
127 150

$$$$

     RDKit          2D

  9  9  0  0  0  0  0  0  0  0999 V2000
   -3.0661    0.8174    0.0000 C   0  0  0  0  0  0  0  0  0  0  0  0
   -1.7670    3.0674    0.0000 C   0  0  0  0  0  0  0  0  0  0  0  0
    3.3992    0.4694    0.0000 C   0  0  0  0  0  0  0  0  0  0  0  0
    1.1575   -0.9871    0.0000 C   0  0  0  0  0  0  0  0  0  0  0  0
   -0.3022   -0.6754    0.0000 C   0  0  0  0  0  0  0  0  0  0  0  0
   -1.7670    1.5674    0.0000 C   0  0  0  0  0  0  0  0  0  0  0  0
    1.9075    0.3120    0.0000 C   0  0  0  0  0  0  0  0  0  0  0  0
    0.9078    1.4203    0.0000 N   0  0  0  0  0  0  0  0  0  0  0  0
   -0.4680    0.8174    0.0000 N   0  0  0  0  0  0  0  0  0  0  0  0
  5  4  1  0
  6  1  1  0
  6  2  1  0
  7  3  1  0
  7  4  1  0
  8  7  2  0
  9  5  1  0
  9  6  1  0
  9  8  1  0
M  END
>  <NAME>  (5613) 
1-ISOPROPYL-3-METHYL-2-PYRAZOLINE

>  <SYNONYMS>  (5613) 


>  <SPECTRUM TYPE>  (5613) 
MS1

>  <INSTRUMENT TYPE>  (5613) 
EI-B

>  <INSTRUMENT>  (5613) 
SHIMADZU LKB-2091

>  <ION MODE>  (5613) 
P

>  <INCHIKEY>  (5613) 
CKWZASMUQGBSSE-UHFFFAOYSA-N

>  <FORMULA>  (5613) 
C7H14N2

>  <EXACT MASS>  (5613) 
126.11569844799999

>  <MW>  (5613) 
126

>  <ID>  (5613) 
JP000904

>  <CONTRIBUTOR>  (5613) 
University of Tokyo Team, {Faculty of Engineering, University of Tokyo

>  <COMMENT>  (5613) 
SMILES=CC(C)N(C1)N=C(C)C1
InChI=InChI=1S/C7H14N2/c1-6(2)9-5-4-7(3)8-9/h6H,4-5H2,1-3H3
computed SMILES=N1=C(C)CCN1C(C)C
accession=JP000904
date=2016.01.19 (Created 2008.10.21, modified 2011.05.06)
author=SASAKI S, TOYOHASHI UNIV. OF TECH.
license=CC BY-NC-SA
exact mass=126.1157
ionization energy=70 eV
ion type=[M]+*
computed spectral entropy=2.3046778072584355
computed normalized entropy=0.6649894486757191
SPLASH=splash10-03di-6900000000-9c071a21da0f81ab40a2
submitter=submitter = University of Tokyo Team (Faculty of Engineering, University of Tokyo)
MoNA Rating=3.75

>  <NUM PEAKS>  (5613) 
32

>  <MASS SPECTRAL PEAKS>  (5613) 
26 1.5
27 6.4
28 11.9
29 0.43
30 2.4
39 5.5
40 1.9
41 1.07
42 33.3
43 6.7
44 2.4
45 0.13
53 1.2
54 3.6
55 3.1
56 1.53
57 1.6
58 1.4
68 3.1
69 0.33
70 3.6
71 1.4
82 1.6
83 2.38
84 4.5
100 1.4
109 1.1
111 99.99
112 8.6
125 2.2
126 23.8
127 2.4

>  <PREDICTED SPECTRUM>  (5613) 
14 32
15 66
26 2
27 87
28 69
38 38
39 422
40 309
41 630
42 864
43 999
51 6
52 33
53 62
54 295
55 143
56 367
67 121
68 330
69 418
82 106
83 798
84 927
85 431
86 61
111 676
112 51
125 162
126 565
127 254

$$$$

     RDKit          2D

  9  9  0  0  0  0  0  0  0  0999 V2000
    3.1044    0.5479    0.0000 C   0  0  0  0  0  0  0  0  0  0  0  0
   -2.6880   -2.2503    0.0000 C   0  0  0  0  0  0  0  0  0  0  0  0
    1.8478   -1.1377    0.0000 C   0  0  0  0  0  0  0  0  0  0  0  0
    1.6370    0.8589    0.0000 C   0  0  0  0  0  0  0  0  0  0  0  0
   -0.1160   -1.5554    0.0000 C   0  0  0  0  0  0  0  0  0  0  0  0
   -1.5758   -1.2438    0.0000 C   0  0  0  0  0  0  0  0  0  0  0  0
    0.6340   -0.2564    0.0000 C   0  0  0  0  0  0  0  0  0  0  0  0
   -1.7415    0.2491    0.0000 N   0  0  0  0  0  0  0  0  0  0  0  0
   -0.3658    0.8520    0.0000 N   0  0  0  0  0  0  0  0  0  0  0  0
  4  1  1  0
  6  2  1  0
  6  5  1  0
  7  3  1  0
  7  4  1  0
  7  5  1  0
  8  6  2  0
  9  7  1  0
  9  8  1  0
M  END
>  <NAME>  (5614) 
5-ETHYL-3,5-DIMETHYL-2-PYRAZOLINE

>  <SYNONYMS>  (5614) 


>  <SPECTRUM TYPE>  (5614) 
MS1

>  <INSTRUMENT TYPE>  (5614) 
EI-B

>  <INSTRUMENT>  (5614) 
SHIMADZU LKB-2091

>  <ION MODE>  (5614) 
P

>  <INCHIKEY>  (5614) 
DKISPJYYXPWNTG-UHFFFAOYSA-N

>  <FORMULA>  (5614) 
C7H14N2

>  <EXACT MASS>  (5614) 
126.11569844799999

>  <MW>  (5614) 
126

>  <ID>  (5614) 
JP000903

>  <CONTRIBUTOR>  (5614) 
University of Tokyo Team, {Faculty of Engineering, University of Tokyo

>  <COMMENT>  (5614) 
SMILES=CCC(C)(N1)CC(C)=N1
InChI=InChI=1S/C7H14N2/c1-4-7(3)5-6(2)8-9-7/h9H,4-5H2,1-3H3
computed SMILES=N=1NC(C)(CC1C)CC
accession=JP000903
date=2016.01.19 (Created 2008.10.21, modified 2011.05.06)
author=SASAKI S, TOYOHASHI UNIV. OF TECH.
license=CC BY-NC-SA
exact mass=126.1157
ionization energy=70 eV
ion type=[M]+*
computed spectral entropy=2.644898133452418
computed normalized entropy=0.7076329380516951
SPLASH=splash10-0002-9100000000-ccf60ad9b398575505ff
submitter=submitter = University of Tokyo Team (Faculty of Engineering, University of Tokyo)
MoNA Rating=3.75

>  <NUM PEAKS>  (5614) 
42

>  <MASS SPECTRAL PEAKS>  (5614) 
26 2.1
27 14.2
28 21.4
29 1.29
30 6.9
31 1
39 12
40 0.28
41 15.7
42 21.4
43 5
44 0.11
51 1.4
52 0.9
53 3.6
54 0.36
55 4.6
56 30
57 7
65 0.09
66 0.6
67 2
68 1.1
69 0.09
70 4.2
71 0.8
79 0.5
80 0.05
81 1.6
82 1.7
83 11.3
84 0.21
95 2.4
96 2.6
97 99.99
98 0.72
99 1.1
109 0.7
111 12.9
112 0.25
126 14.3
127 3.5

>  <PREDICTED SPECTRUM>  (5614) 
14 7
15 38
26 64
27 178
28 154
29 186
30 121
32 4
36 6
37 8
38 54
39 323
40 202
41 520
42 612
43 292
44 162
45 125
50 15
51 68
52 122
53 241
54 281
55 524
56 565
57 349
58 148
65 8
66 49
67 190
68 233
69 372
70 322
71 244
72 15
79 24
80 51
81 233
82 253
83 386
84 275
85 27
94 29
95 101
96 156
97 781
98 254
99 48
109 104
110 131
111 999
112 317
125 109
126 378
127 113

$$$$

     RDKit          2D

  9  9  0  0  0  0  0  0  0  0999 V2000
   -3.7499   -0.1565    0.0000 C   0  0  0  0  0  0  0  0  0  0  0  0
   -1.6322   -2.2431    0.0000 C   0  0  0  0  0  0  0  0  0  0  0  0
    0.0000    2.7800    0.0000 C   0  0  0  0  0  0  0  0  0  0  0  0
   -2.6377    0.8500    0.0000 C   0  0  0  0  0  0  0  0  0  0  0  0
    0.7500   -1.0300    0.0000 C   0  0  0  0  0  0  0  0  0  0  0  0
   -0.7500   -1.0300    0.0000 C   0  0  0  0  0  0  0  0  0  0  0  0
   -1.2100    0.3900    0.0000 C   0  0  0  0  0  0  0  0  0  0  0  0
    1.2100    0.3900    0.0000 N   0  0  0  0  0  0  0  0  0  0  0  0
    0.0000    1.2800    0.0000 N   0  0  0  0  0  0  0  0  0  0  0  0
  4  1  1  0
  6  2  1  0
  6  5  1  0
  7  4  1  0
  7  6  1  0
  8  5  2  0
  9  3  1  0
  9  7  1  0
  9  8  1  0
M  END
>  <NAME>  (5615) 
5-ETHYL-1,4-DIMETHYL-2-PYRAZOLINE

>  <SYNONYMS>  (5615) 


>  <SPECTRUM TYPE>  (5615) 
MS1

>  <INSTRUMENT TYPE>  (5615) 
EI-B

>  <INSTRUMENT>  (5615) 
SHIMADZU LKB-2091

>  <ION MODE>  (5615) 
P

>  <INCHIKEY>  (5615) 
LSAFIEKJCBNDJB-UHFFFAOYSA-N

>  <FORMULA>  (5615) 
C7H14N2

>  <EXACT MASS>  (5615) 
126.11569844799999

>  <MW>  (5615) 
126

>  <ID>  (5615) 
JP000902

>  <CONTRIBUTOR>  (5615) 
University of Tokyo Team, {Faculty of Engineering, University of Tokyo

>  <COMMENT>  (5615) 
SMILES=CCC(C(C)1)N(C)N=C1
InChI=InChI=1S/C7H14N2/c1-4-7-6(2)5-8-9(7)3/h5-7H,4H2,1-3H3
computed SMILES=N1=CC(C)C(N1C)CC
accession=JP000902
date=2016.01.19 (Created 2008.10.21, modified 2011.05.06)
author=SASAKI S, TOYOHASHI UNIV. OF TECH.
license=CC BY-NC-SA
exact mass=126.1157
ionization energy=70 eV
ion type=[M]+*
computed spectral entropy=2.006375783503284
computed normalized entropy=0.5556414828699451
SPLASH=splash10-0002-9000000000-79f9e4a0011fcce73a10
submitter=submitter = University of Tokyo Team (Faculty of Engineering, University of Tokyo)
MoNA Rating=3.75

>  <NUM PEAKS>  (5615) 
37

>  <MASS SPECTRAL PEAKS>  (5615) 
26 0.6
27 4.5
28 11.4
29 0.39
30 3.6
38 0.4
39 4.5
40 0.04
41 6.1
42 15.2
43 2.8
44 0.05
51 0.4
52 0.4
53 1.4
54 0.15
55 2.2
56 18.1
57 1.3
67 0.06
68 1.8
69 0.7
70 3.9
71 0.05
80 0.4
81 1
82 1.8
83 0.18
95 2
96 0.8
97 99.99
98 0.63
109 0.5
111 0.8
125 0.5
126 1.36
127 1.3

>  <PREDICTED SPECTRUM>  (5615) 
15 33
26 36
27 115
28 53
29 121
30 40
31 38
38 0
39 172
40 71
41 221
42 335
43 123
44 49
45 14
50 4
51 76
52 55
53 146
54 158
55 215
56 292
57 123
65 35
66 57
67 182
68 141
69 141
70 161
71 49
78 29
80 13
81 122
82 209
83 112
94 14
95 60
96 12
97 999
98 192
99 5
109 25
111 147
125 36
126 253
127 103

$$$$

     RDKit          2D

  9  9  0  0  0  0  0  0  0  0999 V2000
    2.6377   -2.2431    0.0000 C   0  0  0  0  0  0  0  0  0  0  0  0
    1.3167    2.3164    0.0000 C   0  0  0  0  0  0  0  0  0  0  0  0
   -2.9533   -0.7767    0.0000 C   0  0  0  0  0  0  0  0  0  0  0  0
    2.3222   -0.7767    0.0000 C   0  0  0  0  0  0  0  0  0  0  0  0
   -1.0655    1.1033    0.0000 C   0  0  0  0  0  0  0  0  0  0  0  0
    0.4345    1.1033    0.0000 C   0  0  0  0  0  0  0  0  0  0  0  0
    0.8945   -0.3167    0.0000 C   0  0  0  0  0  0  0  0  0  0  0  0
   -0.3155   -1.2067    0.0000 N   0  0  0  0  0  0  0  0  0  0  0  0
   -1.5255   -0.3167    0.0000 N   0  0  0  0  0  0  0  0  0  0  0  0
  4  1  1  0
  6  2  1  0
  6  5  1  0
  7  4  1  0
  7  6  1  0
  8  7  2  0
  9  3  1  0
  9  5  1  0
  9  8  1  0
M  END
>  <NAME>  (5616) 
3-ETHYL-1,4-DIMETHYL-2-PYRAZOLINE

>  <SYNONYMS>  (5616) 


>  <SPECTRUM TYPE>  (5616) 
MS1

>  <INSTRUMENT TYPE>  (5616) 
EI-B

>  <INSTRUMENT>  (5616) 
SHIMADZU LKB-2091

>  <ION MODE>  (5616) 
P

>  <INCHIKEY>  (5616) 
VEXJHDVLCQKJJU-UHFFFAOYSA-N

>  <FORMULA>  (5616) 
C7H14N2

>  <EXACT MASS>  (5616) 
126.115698448

>  <MW>  (5616) 
126

>  <ID>  (5616) 
JP000901

>  <CONTRIBUTOR>  (5616) 
University of Tokyo Team, {Faculty of Engineering, University of Tokyo

>  <COMMENT>  (5616) 
SMILES=CCC(=N1)C(C)CN(C)1
InChI=InChI=1S/C7H14N2/c1-4-7-6(2)5-9(3)8-7/h6H,4-5H2,1-3H3
computed SMILES=N1=C(CC)C(C)CN1C
accession=JP000901
date=2016.01.19 (Created 2008.10.21, modified 2011.05.06)
author=SASAKI S, TOYOHASHI UNIV. OF TECH.
license=CC BY-NC-SA
exact mass=126.1157
ionization energy=70 eV
ion type=[M]+*
computed spectral entropy=2.7058075674430264
computed normalized entropy=0.7493406476974165
SPLASH=splash10-03dl-9600000000-f8e254bac35dbdd4c20e
submitter=submitter = University of Tokyo Team (Faculty of Engineering, University of Tokyo)
MoNA Rating=3.75

>  <NUM PEAKS>  (5616) 
37

>  <MASS SPECTRAL PEAKS>  (5616) 
26 1.7
27 10.4
28 16.1
29 0.88
30 4.4
39 9.4
40 2.1
41 1.66
42 30.1
43 20.3
44 5.2
51 0.09
52 1.2
53 2.4
54 6.2
55 1.4
56 17.1
57 1.7
67 2.1
68 0.78
69 3
70 2.6
81 1.4
82 0.44
83 30.6
84 6
95 3.2
96 0.35
97 11.9
98 1
109 2.5
110 0.16
111 99.99
112 7.3
125 20.8
126 5.19
127 4.7

>  <PREDICTED SPECTRUM>  (5616) 
14 28
15 101
16 4
26 49
27 174
28 183
29 141
30 241
37 31
38 103
39 355
40 247
41 505
42 734
43 458
44 86
45 9
50 39
51 131
52 125
53 232
54 254
55 392
56 380
57 333
58 23
65 27
66 1
67 97
68 239
69 290
70 212
71 132
77 15
81 109
82 198
83 455
84 209
95 108
96 191
97 298
98 136
109 132
110 85
111 999
112 282
125 440
126 714
127 225

$$$$

     RDKit          2D

  8  8  0  0  0  0  0  0  0  0999 V2000
   -1.4605    2.3426    0.0000 C   0  0  0  0  0  0  0  0  0  0  0  0
   -0.3483    1.3361    0.0000 C   0  0  0  0  0  0  0  0  0  0  0  0
    4.4015   -0.1978    0.0000 C   0  0  0  0  0  0  0  0  0  0  0  0
    3.4017   -1.3062    0.0000 C   0  0  0  0  0  0  0  0  0  0  0  0
    1.0795    1.7961    0.0000 C   0  0  0  0  0  0  0  0  0  0  0  0
    3.6515    1.1012    0.0000 C   0  0  0  0  0  0  0  0  0  0  0  0
    2.0259   -0.7033    0.0000 N   0  0  0  0  0  0  0  0  0  0  0  0
    2.1917    0.7896    0.0000 N   0  0  0  0  0  0  0  0  0  0  0  0
  2  1  2  0
  4  3  1  0
  5  2  1  0
  6  3  1  0
  7  4  2  0
  8  5  1  0
  8  6  1  0
  8  7  1  0
M  END
>  <NAME>  (5617) 
1-ALLYL-2-PYRAZOLINE

>  <SYNONYMS>  (5617) 


>  <SPECTRUM TYPE>  (5617) 
MS1

>  <INSTRUMENT TYPE>  (5617) 
EI-B

>  <INSTRUMENT>  (5617) 
SHIMADZU LKB-2091

>  <ION MODE>  (5617) 
P

>  <INCHIKEY>  (5617) 
ZWAMZBCFMBMWPU-UHFFFAOYSA-N

>  <FORMULA>  (5617) 
C6H10N2

>  <EXACT MASS>  (5617) 
110.08439831999999

>  <MW>  (5617) 
110

>  <ID>  (5617) 
JP000900

>  <CONTRIBUTOR>  (5617) 
University of Tokyo Team, {Faculty of Engineering, University of Tokyo

>  <COMMENT>  (5617) 
SMILES=C=CCN(C1)N=C([H])C1
InChI=InChI=1S/C6H10N2/c1-2-5-8-6-3-4-7-8/h2,4H,1,3,5-6H2
computed SMILES=N1=CCCN1CC=C
accession=JP000900
date=2016.01.19 (Created 2008.10.21, modified 2011.05.06)
author=SASAKI S, TOYOHASHI UNIV. OF TECH.
license=CC BY-NC-SA
exact mass=110.0844
ionization energy=70 eV
ion type=[M]+*
computed spectral entropy=2.385415931190142
computed normalized entropy=0.7321501690796167
SPLASH=splash10-001l-9100000000-79fcd27bc25999ec3f70
submitter=submitter = University of Tokyo Team (Faculty of Engineering, University of Tokyo)
MoNA Rating=3.75

>  <NUM PEAKS>  (5617) 
26

>  <MASS SPECTRAL PEAKS>  (5617) 
29 3.2
30 3.6
38 2.7
39 2.57
40 4.9
41 50
42 26.6
43 0.43
44 3.3
52 1.9
53 1.6
54 1.58
55 19.1
56 8.3
57 7.5
67 0.67
68 10
69 20
70 1.8
81 1
82 9.2
83 99.99
84 4.2
109 1.75
110 41.5
111 3.3

>  <PREDICTED SPECTRUM>  (5617) 
14 22
15 67
18 5
25 26
26 191
27 448
28 415
29 238
30 261
36 52
37 90
38 222
39 770
40 482
41 999
42 659
43 400
44 145
45 34
50 101
51 260
52 243
53 402
54 643
55 482
56 412
57 86
64 32
65 125
66 44
67 373
68 651
69 616
70 477
71 175
77 55
78 20
79 40
80 91
81 299
82 530
83 420
84 266
93 93
94 110
95 364
96 55
107 72
108 102
109 765
110 667
111 164

$$$$

     RDKit          2D

  8  8  0  0  0  0  0  0  0  0999 V2000
   -1.8887   -2.1234    0.0000 C   0  0  0  0  0  0  0  0  0  0  0  0
   -0.3969   -1.9659    0.0000 C   0  0  0  0  0  0  0  0  0  0  0  0
    0.2126   -0.5953    0.0000 C   0  0  0  0  0  0  0  0  0  0  0  0
    2.4543    0.8612    0.0000 C   0  0  0  0  0  0  0  0  0  0  0  0
    3.9140    0.5495    0.0000 C   0  0  0  0  0  0  0  0  0  0  0  0
    1.7043   -0.4379    0.0000 C   0  0  0  0  0  0  0  0  0  0  0  0
    4.0798   -0.9434    0.0000 N   0  0  0  0  0  0  0  0  0  0  0  0
    2.7040   -1.5462    0.0000 N   0  0  0  0  0  0  0  0  0  0  0  0
  2  1  1  0
  3  2  1  0
  5  4  1  0
  6  3  1  0
  6  4  1  0
  7  5  2  0
  8  6  1  0
  8  7  1  0
M  END
>  <NAME>  (5618) 
5-PROPYL-2-PYRAZOLINE

>  <SYNONYMS>  (5618) 


>  <SPECTRUM TYPE>  (5618) 
MS1

>  <INSTRUMENT TYPE>  (5618) 
EI-B

>  <INSTRUMENT>  (5618) 
SHIMADZU LKB-2091

>  <ION MODE>  (5618) 
P

>  <INCHIKEY>  (5618) 
YJMMTFQSMKYWSB-UHFFFAOYSA-N

>  <FORMULA>  (5618) 
C6H12N2

>  <EXACT MASS>  (5618) 
112.10004838399999

>  <MW>  (5618) 
112

>  <ID>  (5618) 
JP000899

>  <CONTRIBUTOR>  (5618) 
University of Tokyo Team, {Faculty of Engineering, University of Tokyo

>  <COMMENT>  (5618) 
SMILES=CCCC(C1)NN=C1
InChI=InChI=1S/C6H12N2/c1-2-3-6-4-5-7-8-6/h5-6,8H,2-4H2,1H3
computed SMILES=N1=CCC(N1)CCC
accession=JP000899
date=2016.01.19 (Created 2008.10.21, modified 2011.05.06)
author=SASAKI S, TOYOHASHI UNIV. OF TECH.
license=CC BY-NC-SA
exact mass=112.10005
ionization energy=70 eV
ion type=[M]+*
computed spectral entropy=1.2945623454976634
computed normalized entropy=0.43966349945012245
SPLASH=splash10-014i-9000000000-b8b5faace7e3b380e8a8
submitter=submitter = University of Tokyo Team (Faculty of Engineering, University of Tokyo)
MoNA Rating=3.75

>  <NUM PEAKS>  (5618) 
19

>  <MASS SPECTRAL PEAKS>  (5618) 
26 0.7
27 5.2
28 3.2
29 0.17
30 0.7
39 3.6
41 5
42 2.16
43 3.2
53 0.6
54 0.6
55 0.07
56 0.9
68 3.2
69 99.99
70 0.41
83 0.7
112 9.2
113 0.8

>  <PREDICTED SPECTRUM>  (5618) 
26 35
27 129
28 81
29 59
30 229
37 18
38 98
39 449
40 276
41 606
42 779
43 434
44 49
50 44
51 162
52 243
53 242
54 502
55 503
56 365
57 157
58 44
65 106
66 90
67 392
68 369
69 999
70 435
71 107
77 71
78 16
80 130
81 186
82 103
83 761
84 548
85 116
95 26
97 620
98 136
109 11
111 251
112 520
113 138

$$$$

     RDKit          2D

  8  8  0  0  0  0  0  0  0  0999 V2000
   -3.3855   -1.3124    0.0000 C   0  0  0  0  0  0  0  0  0  0  0  0
    2.6630    0.9987    0.0000 C   0  0  0  0  0  0  0  0  0  0  0  0
   -2.5033   -0.0993    0.0000 C   0  0  0  0  0  0  0  0  0  0  0  0
   -0.2615   -1.5558    0.0000 C   0  0  0  0  0  0  0  0  0  0  0  0
   -0.0118    0.8516    0.0000 C   0  0  0  0  0  0  0  0  0  0  0  0
   -1.0115   -0.2567    0.0000 C   0  0  0  0  0  0  0  0  0  0  0  0
    1.1982   -1.2441    0.0000 N   0  0  0  0  0  0  0  0  0  0  0  0
    1.3640    0.2487    0.0000 N   0  0  0  0  0  0  0  0  0  0  0  0
  3  1  1  0
  6  3  1  0
  6  4  1  0
  6  5  1  0
  7  4  2  0
  8  2  1  0
  8  5  1  0
  8  7  1  0
M  END
>  <NAME>  (5619) 
4-ETHYL-1-METHYL-2-PYRAZOLINE

>  <SYNONYMS>  (5619) 


>  <SPECTRUM TYPE>  (5619) 
MS1

>  <INSTRUMENT TYPE>  (5619) 
EI-B

>  <INSTRUMENT>  (5619) 
SHIMADZU LKB-2091

>  <ION MODE>  (5619) 
P

>  <INCHIKEY>  (5619) 
DHEAFGCWGYSLFH-UHFFFAOYSA-N

>  <FORMULA>  (5619) 
C6H12N2

>  <EXACT MASS>  (5619) 
112.10004838399999

>  <MW>  (5619) 
112

>  <ID>  (5619) 
JP000898

>  <CONTRIBUTOR>  (5619) 
University of Tokyo Team, {Faculty of Engineering, University of Tokyo

>  <COMMENT>  (5619) 
SMILES=CCC(C=1)CN(C)N1
InChI=InChI=1S/C6H12N2/c1-3-6-4-7-8(2)5-6/h4,6H,3,5H2,1-2H3
computed SMILES=N1=CC(CN1C)CC
accession=JP000898
date=2016.01.19 (Created 2008.10.21, modified 2011.05.06)
author=SASAKI S, TOYOHASHI UNIV. OF TECH.
license=CC BY-NC-SA
exact mass=112.10005
ionization energy=70 eV
ion type=[M]+*
computed spectral entropy=2.2352265530275073
computed normalized entropy=0.6338621753006403
SPLASH=splash10-001l-9100000000-976c2d676558d9b240f2
submitter=submitter = University of Tokyo Team (Faculty of Engineering, University of Tokyo)
MoNA Rating=3.75

>  <NUM PEAKS>  (5619) 
34

>  <MASS SPECTRAL PEAKS>  (5619) 
26 1.3
27 8
28 17.8
29 0.56
30 2.6
38 1
39 7.2
40 0.24
41 9.3
42 47
43 10.3
44 0.34
51 0.6
52 0.8
53 1.2
54 0.24
55 2.5
56 21.5
57 1.6
66 0.08
67 0.7
68 2.4
69 1.1
70 0.09
81 1.6
82 2.1
83 99.99
84 0.58
95 1.3
96 0.6
97 1.2
111 0.34
112 28.6
113 2.6

>  <PREDICTED SPECTRUM>  (5619) 
33 14
34 18
38 19
39 187
40 158
41 361
42 505
43 236
44 233
45 82
50 42
51 89
52 150
53 203
54 243
55 364
56 208
57 75
59 65
60 38
61 18
65 50
66 88
67 260
68 262
69 246
70 137
80 59
81 106
82 120
83 999
84 268
85 114
96 1
97 296
98 53
110 50
111 206
112 590
113 168
114 41

$$$$

     RDKit          2D

  8  8  0  0  0  0  0  0  0  0999 V2000
   -2.6377    0.8500    0.0000 C   0  0  0  0  0  0  0  0  0  0  0  0
    0.5936   -2.5218    0.0000 C   0  0  0  0  0  0  0  0  0  0  0  0
    2.2174   -1.3410    0.0000 C   0  0  0  0  0  0  0  0  0  0  0  0
   -0.7500   -1.0300    0.0000 C   0  0  0  0  0  0  0  0  0  0  0  0
   -1.2100    0.3900    0.0000 C   0  0  0  0  0  0  0  0  0  0  0  0
    0.7500   -1.0300    0.0000 C   0  0  0  0  0  0  0  0  0  0  0  0
    0.0000    1.2800    0.0000 N   0  0  0  0  0  0  0  0  0  0  0  0
    1.2100    0.3900    0.0000 N   0  0  0  0  0  0  0  0  0  0  0  0
  5  1  1  0
  5  4  1  0
  6  2  1  0
  6  3  1  0
  6  4  1  0
  7  5  2  0
  8  6  1  0
  8  7  1  0
M  END
>  <NAME>  (5620) 
3,5,5-TRIMETHYL-2-PYRAZOLINE

>  <SYNONYMS>  (5620) 


>  <SPECTRUM TYPE>  (5620) 
MS1

>  <INSTRUMENT TYPE>  (5620) 
EI-B

>  <INSTRUMENT>  (5620) 
SHIMADZU LKB-2091

>  <ION MODE>  (5620) 
P

>  <INCHIKEY>  (5620) 
MEVTUZFUVAZEPY-UHFFFAOYSA-N

>  <FORMULA>  (5620) 
C6H12N2

>  <EXACT MASS>  (5620) 
112.10004838399999

>  <MW>  (5620) 
112

>  <ID>  (5620) 
JP000897

>  <CONTRIBUTOR>  (5620) 
University of Tokyo Team, {Faculty of Engineering, University of Tokyo

>  <COMMENT>  (5620) 
SMILES=CC(=N1)CC(C)(C)N1
InChI=InChI=1S/C6H12N2/c1-5-4-6(2,3)8-7-5/h8H,4H2,1-3H3
computed SMILES=N=1NC(C)(C)CC1C
accession=JP000897
date=2016.01.19 (Created 2008.10.21, modified 2011.05.06)
author=SASAKI S, TOYOHASHI UNIV. OF TECH.
license=CC BY-NC-SA
exact mass=112.10005
ionization energy=70 eV
ion type=[M]+*
computed spectral entropy=2.2648312551315297
computed normalized entropy=0.6422574320809279
SPLASH=splash10-0002-9000000000-553364374fb26393499b
submitter=submitter = University of Tokyo Team (Faculty of Engineering, University of Tokyo)
MoNA Rating=3.75

>  <NUM PEAKS>  (5620) 
34

>  <MASS SPECTRAL PEAKS>  (5620) 
26 1.5
27 8.2
28 15.7
29 0.62
30 5.1
38 0.9
39 10.3
40 0.22
41 11.5
42 14
43 3.1
44 0.04
51 1
52 0.6
53 2.4
54 0.31
55 3.1
56 41.9
57 3.5
58 0.06
67 1.4
68 0.7
69 0.5
70 0.4
80 0.6
81 1.1
83 1.9
95 0.17
96 1.3
97 99.99
98 6.2
111 0.05
112 23.5
113 2.4

>  <PREDICTED SPECTRUM>  (5620) 
14 2
15 40
18 7
26 43
27 155
28 144
29 172
30 153
31 31
32 5
33 5
34 2
36 2
37 37
38 104
39 347
40 239
41 464
42 511
43 280
44 200
45 54
49 11
50 101
51 175
52 230
53 300
54 305
55 456
56 354
57 219
58 96
63 30
64 25
65 120
66 181
67 355
68 308
69 257
70 181
71 45
78 31
79 113
80 149
81 180
82 161
83 177
84 88
93 35
94 6
95 181
96 144
97 999
98 288
99 59
109 18
111 145
112 526
113 162
114 10

$$$$

     RDKit          2D

  8  8  0  0  0  0  0  0  0  0999 V2000
   -1.4636    1.3774    0.0000 C   0  0  0  0  0  0  0  0  0  0  0  0
    1.7179    0.7016    0.0000 C   0  0  0  0  0  0  0  0  0  0  0  0
   -3.0958   -1.4497    0.0000 C   0  0  0  0  0  0  0  0  0  0  0  0
   -0.8541    0.0068    0.0000 C   0  0  0  0  0  0  0  0  0  0  0  0
    0.6057   -0.3049    0.0000 C   0  0  0  0  0  0  0  0  0  0  0  0
   -1.6041   -1.2923    0.0000 C   0  0  0  0  0  0  0  0  0  0  0  0
    0.7714   -1.7978    0.0000 N   0  0  0  0  0  0  0  0  0  0  0  0
   -0.6043   -2.4006    0.0000 N   0  0  0  0  0  0  0  0  0  0  0  0
  4  1  1  0
  5  2  1  0
  5  4  1  0
  6  3  1  0
  6  4  1  0
  7  5  1  0
  8  6  2  0
  8  7  1  0
M  END
>  <NAME>  (5621) 
3,4,5-TRIMETHYL-2-PYRAZOLINE

>  <SYNONYMS>  (5621) 


>  <SPECTRUM TYPE>  (5621) 
MS1

>  <INSTRUMENT TYPE>  (5621) 
EI-B

>  <INSTRUMENT>  (5621) 
SHIMADZU LKB-2091

>  <ION MODE>  (5621) 
P

>  <INCHIKEY>  (5621) 
NBUOBRBXCTZHFM-UHFFFAOYSA-N

>  <FORMULA>  (5621) 
C6H12N2

>  <EXACT MASS>  (5621) 
112.10004838399999

>  <MW>  (5621) 
112

>  <ID>  (5621) 
JP000896

>  <CONTRIBUTOR>  (5621) 
University of Tokyo Team, {Faculty of Engineering, University of Tokyo

>  <COMMENT>  (5621) 
SMILES=CC(N1)C(C)C(C)=N1
InChI=InChI=1S/C6H12N2/c1-4-5(2)7-8-6(4)3/h4-5,7H,1-3H3
computed SMILES=N=1NC(C)C(C1C)C
accession=JP000896
date=2016.01.19 (Created 2008.10.21, modified 2011.05.06)
author=SASAKI S, TOYOHASHI UNIV. OF TECH.
license=CC BY-NC-SA
exact mass=112.10005
ionization energy=70 eV
ion type=[M]+*
computed spectral entropy=2.4652984608766992
computed normalized entropy=0.7248325175623636
SPLASH=splash10-0002-9100000000-c6719480b41777ca674e
submitter=submitter = University of Tokyo Team (Faculty of Engineering, University of Tokyo)
MoNA Rating=3.75

>  <NUM PEAKS>  (5621) 
30

>  <MASS SPECTRAL PEAKS>  (5621) 
26 2.4
27 13
28 17
29 0.8
30 5.2
39 8
41 12.5
42 3.15
43 5.9
44 3.1
53 2.9
54 0.37
55 4.8
56 24
57 2.1
67 0.14
68 11
69 17
70 6.2
81 0.14
82 2.2
83 1.8
95 1.9
96 0.19
97 99.99
98 5.6
109 0.8
111 0.48
112 30
113 2.4

>  <PREDICTED SPECTRUM>  (5621) 
14 42
15 119
16 32
17 21
18 53
25 3
26 113
27 281
28 289
29 242
30 206
36 29
37 61
38 127
39 410
40 254
41 432
42 496
43 323
44 143
50 59
51 117
52 170
53 178
54 300
55 255
56 465
57 222
63 31
64 53
65 51
66 119
67 208
68 267
69 206
70 307
71 37
78 8
79 25
80 148
81 157
82 179
83 159
84 118
95 230
96 158
97 999
98 265
109 109
110 88
111 529
112 618
113 149

$$$$

     RDKit          2D

  8  8  0  0  0  0  0  0  0  0999 V2000
   -1.6322   -2.2431    0.0000 C   0  0  0  0  0  0  0  0  0  0  0  0
   -2.6377    0.8500    0.0000 C   0  0  0  0  0  0  0  0  0  0  0  0
    0.0000    2.7800    0.0000 C   0  0  0  0  0  0  0  0  0  0  0  0
    0.7500   -1.0300    0.0000 C   0  0  0  0  0  0  0  0  0  0  0  0
   -0.7500   -1.0300    0.0000 C   0  0  0  0  0  0  0  0  0  0  0  0
   -1.2100    0.3900    0.0000 C   0  0  0  0  0  0  0  0  0  0  0  0
    1.2100    0.3900    0.0000 N   0  0  0  0  0  0  0  0  0  0  0  0
    0.0000    1.2800    0.0000 N   0  0  0  0  0  0  0  0  0  0  0  0
  5  1  1  0
  5  4  1  0
  6  2  1  0
  6  5  1  0
  7  4  2  0
  8  3  1  0
  8  6  1  0
  8  7  1  0
M  END
>  <NAME>  (5622) 
1,4,5-TRIMETHYL-2-PYRAZOLINE

>  <SYNONYMS>  (5622) 


>  <SPECTRUM TYPE>  (5622) 
MS1

>  <INSTRUMENT TYPE>  (5622) 
EI-B

>  <INSTRUMENT>  (5622) 
SHIMADZU LKB-2091

>  <ION MODE>  (5622) 
P

>  <INCHIKEY>  (5622) 
QZXPNIFNBFPOML-UHFFFAOYSA-N

>  <FORMULA>  (5622) 
C6H12N2

>  <EXACT MASS>  (5622) 
112.10004838399999

>  <MW>  (5622) 
112

>  <ID>  (5622) 
JP000895

>  <CONTRIBUTOR>  (5622) 
University of Tokyo Team, {Faculty of Engineering, University of Tokyo

>  <COMMENT>  (5622) 
SMILES=[H]C(=N1)C(C)C(C)N(C)1
InChI=InChI=1S/C6H12N2/c1-5-4-7-8(3)6(5)2/h4-6H,1-3H3
computed SMILES=N1=CC(C)C(N1C)C
accession=JP000895
date=2016.01.19 (Created 2008.10.21, modified 2011.05.06)
author=SASAKI S, TOYOHASHI UNIV. OF TECH.
license=CC BY-NC-SA
exact mass=112.10005
ionization energy=70 eV
ion type=[M]+*
computed spectral entropy=2.410376130663462
computed normalized entropy=0.6779578508141064
SPLASH=splash10-052b-9000000000-b37a27c1dacffafdae4b
submitter=submitter = University of Tokyo Team (Faculty of Engineering, University of Tokyo)
MoNA Rating=3.75

>  <NUM PEAKS>  (5622) 
35

>  <MASS SPECTRAL PEAKS>  (5622) 
26 2.1
27 10.4
28 25
29 0.75
30 9.6
38 0.8
39 8.3
40 0.17
41 15
42 25.4
43 6.7
44 0.12
51 1
52 1
53 3.1
54 0.33
55 4.6
56 50
57 5
58 0.14
67 0.8
68 1.9
69 1.9
70 0.5
80 0.5
81 1.2
82 2.4
83 0.08
95 2.2
96 0.9
97 99.99
98 0.62
111 4.2
112 25
113 2

>  <PREDICTED SPECTRUM>  (5622) 
14 50
15 187
16 20
17 14
18 49
25 4
26 116
27 294
28 335
29 225
30 178
31 102
32 19
33 2
36 6
37 24
38 61
39 267
40 173
41 458
42 884
43 335
44 132
45 191
49 18
50 25
51 77
52 81
53 158
54 269
55 168
56 467
57 206
58 5
67 242
68 491
69 304
70 336
71 147
72 49
78 4
80 28
81 103
82 216
83 97
84 6
85 35
95 134
96 80
97 999
98 258
99 121
111 246
112 381
113 146
114 10

$$$$

     RDKit          2D

  8  8  0  0  0  0  0  0  0  0999 V2000
   -1.6322   -2.2431    0.0000 C   0  0  0  0  0  0  0  0  0  0  0  0
   -2.6377    0.8500    0.0000 C   0  0  0  0  0  0  0  0  0  0  0  0
    2.6377    0.8500    0.0000 C   0  0  0  0  0  0  0  0  0  0  0  0
    0.7500   -1.0300    0.0000 C   0  0  0  0  0  0  0  0  0  0  0  0
   -0.7500   -1.0300    0.0000 C   0  0  0  0  0  0  0  0  0  0  0  0
   -1.2100    0.3900    0.0000 C   0  0  0  0  0  0  0  0  0  0  0  0
    0.0000    1.2800    0.0000 N   0  0  0  0  0  0  0  0  0  0  0  0
    1.2100    0.3900    0.0000 N   0  0  0  0  0  0  0  0  0  0  0  0
  5  1  1  0
  5  4  1  0
  6  2  1  0
  6  5  1  0
  7  6  2  0
  8  3  1  0
  8  4  1  0
  8  7  1  0
M  END
>  <NAME>  (5623) 
1,3,4-TRIMETHYL-2-PYRAZOLINE

>  <SYNONYMS>  (5623) 


>  <SPECTRUM TYPE>  (5623) 
MS1

>  <INSTRUMENT TYPE>  (5623) 
EI-B

>  <INSTRUMENT>  (5623) 
SHIMADZU LKB-2091

>  <ION MODE>  (5623) 
P

>  <INCHIKEY>  (5623) 
UWCOGVAFZZBWAT-UHFFFAOYSA-N

>  <FORMULA>  (5623) 
C6H12N2

>  <EXACT MASS>  (5623) 
112.10004838399999

>  <MW>  (5623) 
112

>  <ID>  (5623) 
JP000894

>  <CONTRIBUTOR>  (5623) 
University of Tokyo Team, {Faculty of Engineering, University of Tokyo

>  <COMMENT>  (5623) 
SMILES=CN(C1)N=C(C)C(C)1
InChI=InChI=1S/C6H12N2/c1-5-4-8(3)7-6(5)2/h5H,4H2,1-3H3
computed SMILES=N1=C(C)C(C)CN1C
accession=JP000894
date=2016.01.19 (Created 2008.10.21, modified 2011.05.06)
author=SASAKI S, TOYOHASHI UNIV. OF TECH.
license=CC BY-NC-SA
exact mass=112.10005
ionization energy=70 eV
ion type=[M]+*
computed spectral entropy=2.5166443846777606
computed normalized entropy=0.6969541943518891
SPLASH=splash10-0005-9100000000-a97ca73759cbb7b0601f
submitter=submitter = University of Tokyo Team (Faculty of Engineering, University of Tokyo)
MoNA Rating=3.75

>  <NUM PEAKS>  (5623) 
37

>  <MASS SPECTRAL PEAKS>  (5623) 
26 1.8
27 8.1
28 18.7
29 0.44
30 7.8
38 1
39 9.4
40 0.28
41 17.8
42 62.5
43 14.1
44 0.3
51 1
52 1
53 3.1
54 0.31
55 2.6
56 26
57 1.4
66 0.05
67 1.1
68 10.8
69 8.8
70 1.37
71 1
80 0.4
81 1
82 0.23
95 2.8
96 1.7
97 99.99
98 0.63
109 1.4
110 2.3
111 43.8
112 7.34
113 5.3

>  <PREDICTED SPECTRUM>  (5623) 
14 16
15 72
16 12
26 45
27 131
28 176
29 77
30 168
31 58
36 31
37 42
38 111
39 431
40 304
41 532
42 829
43 613
44 267
45 75
49 15
50 67
51 142
52 170
53 203
54 375
55 410
56 493
57 295
58 102
63 74
64 11
65 120
66 147
67 261
68 411
69 400
70 339
71 119
78 19
79 62
80 233
81 213
82 170
83 93
84 99
93 74
95 256
96 172
97 522
98 87
108 40
109 311
110 355
111 999
112 977
113 228

$$$$

     RDKit          2D

  7  7  0  0  0  0  0  0  0  0999 V2000
   -1.5157   -1.5562    0.0000 C   0  0  0  0  0  0  0  0  0  0  0  0
   -0.9062   -0.1856    0.0000 C   0  0  0  0  0  0  0  0  0  0  0  0
    1.3355    1.2709    0.0000 C   0  0  0  0  0  0  0  0  0  0  0  0
    2.7952    0.9593    0.0000 C   0  0  0  0  0  0  0  0  0  0  0  0
    0.5855   -0.0281    0.0000 C   0  0  0  0  0  0  0  0  0  0  0  0
    2.9610   -0.5336    0.0000 N   0  0  0  0  0  0  0  0  0  0  0  0
    1.5852   -1.1365    0.0000 N   0  0  0  0  0  0  0  0  0  0  0  0
  2  1  1  0
  4  3  1  0
  5  2  1  0
  5  3  1  0
  6  4  1  0
  7  5  2  0
  7  6  1  0
M  END
>  <NAME>  (5624) 
3-ETHYL-2-PYRAZOLINE

>  <SYNONYMS>  (5624) 


>  <SPECTRUM TYPE>  (5624) 
MS1

>  <INSTRUMENT TYPE>  (5624) 
EI-B

>  <INSTRUMENT>  (5624) 
SHIMADZU LKB-2091

>  <ION MODE>  (5624) 
P

>  <INCHIKEY>  (5624) 
WYAQEFBMDQTMID-UHFFFAOYSA-N

>  <FORMULA>  (5624) 
C5H10N2

>  <EXACT MASS>  (5624) 
98.08439831999999

>  <MW>  (5624) 
98

>  <ID>  (5624) 
JP000893

>  <CONTRIBUTOR>  (5624) 
University of Tokyo Team, {Faculty of Engineering, University of Tokyo

>  <COMMENT>  (5624) 
SMILES=CCC(C1)=NNC1
InChI=InChI=1S/C5H10N2/c1-2-5-3-4-6-7-5/h6H,2-4H2,1H3
computed SMILES=N=1NCCC1CC
accession=JP000893
date=2016.01.19 (Created 2008.10.21, modified 2011.05.06)
author=SASAKI S, TOYOHASHI UNIV. OF TECH.
license=CC BY-NC-SA
exact mass=98.0844
ionization energy=70 eV
ion type=[M]+*
computed spectral entropy=2.6837238554474085
computed normalized entropy=0.7743590194738771
SPLASH=splash10-0035-9000000000-1e8df536c8deec3eb447
submitter=submitter = University of Tokyo Team (Faculty of Engineering, University of Tokyo)
MoNA Rating=3.75

>  <NUM PEAKS>  (5624) 
32

>  <MASS SPECTRAL PEAKS>  (5624) 
26 4.1
27 23.1
28 38.5
29 2.02
30 9.6
38 2.6
39 17.3
40 0.38
41 50
42 41.3
43 8.6
44 0.21
51 1.9
52 2.1
53 5.7
54 1.06
55 12.5
56 7.7
57 3.3
67 0.23
68 5.4
69 34.6
70 12.5
81 0.35
82 3.2
83 99.99
84 5.3
95 0.36
96 2.2
97 36.5
98 70.2
99 4.4

>  <PREDICTED SPECTRUM>  (5624) 
14 31
15 78
16 7
18 19
26 100
27 263
28 243
29 179
30 209
36 65
37 89
38 170
39 399
40 289
41 558
42 525
43 370
44 280
49 50
50 155
51 308
52 337
53 395
54 453
55 595
56 412
57 213
58 34
63 97
64 89
65 195
66 158
67 322
68 430
69 999
70 336
71 103
77 41
79 82
80 103
81 169
82 143
83 757
84 185
95 252
96 249
97 819
98 911
99 276

$$$$

     RDKit          2D

  7  7  0  0  0  0  0  0  0  0999 V2000
    2.1949   -1.4935    0.0000 C   0  0  0  0  0  0  0  0  0  0  0  0
    1.9842    0.5032    0.0000 C   0  0  0  0  0  0  0  0  0  0  0  0
    0.2311   -1.9112    0.0000 C   0  0  0  0  0  0  0  0  0  0  0  0
   -1.2286   -1.5996    0.0000 C   0  0  0  0  0  0  0  0  0  0  0  0
    0.9811   -0.6122    0.0000 C   0  0  0  0  0  0  0  0  0  0  0  0
   -1.3944   -0.1067    0.0000 N   0  0  0  0  0  0  0  0  0  0  0  0
   -0.0186    0.4962    0.0000 N   0  0  0  0  0  0  0  0  0  0  0  0
  4  3  1  0
  5  1  1  0
  5  2  1  0
  5  3  1  0
  6  4  2  0
  7  5  1  0
  7  6  1  0
M  END
>  <NAME>  (5625) 
5,5-DIMETHYL-2-PYRAZOLINE

>  <SYNONYMS>  (5625) 


>  <SPECTRUM TYPE>  (5625) 
MS1

>  <INSTRUMENT TYPE>  (5625) 
EI-B

>  <INSTRUMENT>  (5625) 
SHIMADZU LKB-2091

>  <ION MODE>  (5625) 
P

>  <INCHIKEY>  (5625) 
FLYZAKYDSFYRRD-UHFFFAOYSA-N

>  <FORMULA>  (5625) 
C5H10N2

>  <EXACT MASS>  (5625) 
98.08439831999999

>  <MW>  (5625) 
98

>  <ID>  (5625) 
JP000892

>  <CONTRIBUTOR>  (5625) 
University of Tokyo Team, {Faculty of Engineering, University of Tokyo

>  <COMMENT>  (5625) 
SMILES=CC(C)(C1)NN=C1
InChI=InChI=1S/C5H10N2/c1-5(2)3-4-6-7-5/h4,7H,3H2,1-2H3
computed SMILES=N1=CCC(N1)(C)C
accession=JP000892
date=2016.01.19 (Created 2008.10.21, modified 2011.05.06)
author=SASAKI S, TOYOHASHI UNIV. OF TECH.
license=CC BY-NC-SA
exact mass=98.0844
ionization energy=70 eV
ion type=[M]+*
computed spectral entropy=2.257988459086489
computed normalized entropy=0.6638804531782323
SPLASH=splash10-001l-9000000000-ee3a443e49a2b7cc05b3
submitter=submitter = University of Tokyo Team (Faculty of Engineering, University of Tokyo)
MoNA Rating=3.75

>  <NUM PEAKS>  (5625) 
30

>  <MASS SPECTRAL PEAKS>  (5625) 
26 1.9
27 10
28 24.4
29 0.65
30 3.6
38 1.5
39 11
40 0.32
41 16.6
42 50
43 7.5
50 0.09
51 1.3
52 0.8
53 2.6
54 0.26
55 1.9
56 23.4
57 2.4
58 0.07
66 0.9
67 1
68 1.2
81 0.19
82 0.5
83 99.99
84 5.2
97 0.06
98 30.1
99 2.6

>  <PREDICTED SPECTRUM>  (5625) 
14 19
15 34
16 3
25 5
26 83
27 195
28 219
29 129
30 153
36 5
37 35
38 110
39 308
40 286
41 583
42 690
43 385
44 161
45 52
49 4
50 82
51 146
52 229
53 355
54 369
55 384
56 515
57 300
58 108
63 14
64 24
65 122
66 188
67 196
68 305
69 310
70 369
71 146
72 53
79 119
80 40
81 273
82 158
83 999
84 294
95 25
96 90
97 417
98 784
99 242
100 54

$$$$

     RDKit          2D

  7  7  0  0  0  0  0  0  0  0999 V2000
   -2.6986   -0.5670    0.0000 C   0  0  0  0  0  0  0  0  0  0  0  0
   -0.5227    1.8503    0.0000 C   0  0  0  0  0  0  0  0  0  0  0  0
   -0.4569   -2.0235    0.0000 C   0  0  0  0  0  0  0  0  0  0  0  0
   -1.2069   -0.7245    0.0000 C   0  0  0  0  0  0  0  0  0  0  0  0
   -0.2071    0.3839    0.0000 C   0  0  0  0  0  0  0  0  0  0  0  0
    1.0029   -1.7119    0.0000 N   0  0  0  0  0  0  0  0  0  0  0  0
    1.1686   -0.2190    0.0000 N   0  0  0  0  0  0  0  0  0  0  0  0
  4  1  1  0
  4  3  1  0
  5  2  1  0
  5  4  1  0
  6  3  2  0
  7  5  1  0
  7  6  1  0
M  END
>  <NAME>  (5626) 
4,5-DIMETHYL-2-PYRAZOLINE

>  <SYNONYMS>  (5626) 


>  <SPECTRUM TYPE>  (5626) 
MS1

>  <INSTRUMENT TYPE>  (5626) 
EI-B

>  <INSTRUMENT>  (5626) 
SHIMADZU LKB-2091

>  <ION MODE>  (5626) 
P

>  <INCHIKEY>  (5626) 
SOAGQMUXRXXXPM-UHFFFAOYSA-N

>  <FORMULA>  (5626) 
C5H10N2

>  <EXACT MASS>  (5626) 
98.08439831999999

>  <MW>  (5626) 
98

>  <ID>  (5626) 
JP000891

>  <CONTRIBUTOR>  (5626) 
University of Tokyo Team, {Faculty of Engineering, University of Tokyo

>  <COMMENT>  (5626) 
SMILES=CC(C=1)C(C)NN1
InChI=InChI=1S/C5H10N2/c1-4-3-6-7-5(4)2/h3-5,7H,1-2H3
computed SMILES=N1=CC(C)C(N1)C
accession=JP000891
date=2016.01.19 (Created 2008.10.21, modified 2011.05.06)
author=SASAKI S, TOYOHASHI UNIV. OF TECH.
license=CC BY-NC-SA
exact mass=98.0844
ionization energy=70 eV
ion type=[M]+*
computed spectral entropy=2.347215265737081
computed normalized entropy=0.6772631647555515
SPLASH=splash10-003u-9000000000-b3d0cad97ebacedfab08
submitter=submitter = University of Tokyo Team (Faculty of Engineering, University of Tokyo)
MoNA Rating=3.75

>  <NUM PEAKS>  (5626) 
32

>  <MASS SPECTRAL PEAKS>  (5626) 
26 3.2
27 12.1
28 44.1
29 0.78
30 3.5
38 1.2
39 8.8
40 0.15
41 14.4
42 44.1
43 8.8
44 1.15
51 1.2
52 1.2
53 2.4
54 0.5
55 2.6
56 26
57 1.7
66 0.06
67 0.7
68 1.4
69 4.1
70 0.22
81 1.7
82 0.9
83 99.99
84 0.52
95 0.4
97 5.6
98 47.1
99 2.9

>  <PREDICTED SPECTRUM>  (5626) 
14 38
15 112
16 3
26 104
27 236
28 298
29 154
30 57
38 18
39 175
40 180
41 328
42 539
43 375
44 129
51 32
52 97
53 129
54 295
55 586
56 520
57 95
63 7
67 81
68 175
69 285
70 196
71 3
81 33
83 999
84 154
97 304
98 525
99 115

$$$$

     RDKit          2D

  7  7  0  0  0  0  0  0  0  0999 V2000
   -1.2709   -0.3961    0.0000 C   0  0  0  0  0  0  0  0  0  0  0  0
    0.9051   -2.8135    0.0000 C   0  0  0  0  0  0  0  0  0  0  0  0
    0.9708    1.0604    0.0000 C   0  0  0  0  0  0  0  0  0  0  0  0
    2.4306    0.7488    0.0000 C   0  0  0  0  0  0  0  0  0  0  0  0
    0.2208   -0.2386    0.0000 C   0  0  0  0  0  0  0  0  0  0  0  0
    2.5964   -0.7441    0.0000 N   0  0  0  0  0  0  0  0  0  0  0  0
    1.2206   -1.3470    0.0000 N   0  0  0  0  0  0  0  0  0  0  0  0
  4  3  1  0
  5  1  1  0
  5  3  1  0
  6  4  2  0
  7  2  1  0
  7  5  1  0
  7  6  1  0
M  END
>  <NAME>  (5627) 
1,5-DIMETHYL-2-PYRAZOLINE

>  <SYNONYMS>  (5627) 


>  <SPECTRUM TYPE>  (5627) 
MS1

>  <INSTRUMENT TYPE>  (5627) 
EI-B

>  <INSTRUMENT>  (5627) 
SHIMADZU LKB-2091

>  <ION MODE>  (5627) 
P

>  <INCHIKEY>  (5627) 
YTDZUPBPWJAQDV-UHFFFAOYSA-N

>  <FORMULA>  (5627) 
C5H10N2

>  <EXACT MASS>  (5627) 
98.08439831999999

>  <MW>  (5627) 
98

>  <ID>  (5627) 
JP000890

>  <CONTRIBUTOR>  (5627) 
University of Tokyo Team, {Faculty of Engineering, University of Tokyo

>  <COMMENT>  (5627) 
SMILES=[H]C(C1)=NN(C)C(C)1
InChI=InChI=1S/C5H10N2/c1-5-3-4-6-7(5)2/h4-5H,3H2,1-2H3
computed SMILES=N1=CCC(N1C)C
accession=JP000890
date=2016.01.19 (Created 2008.10.21, modified 2011.05.06)
author=SASAKI S, TOYOHASHI UNIV. OF TECH.
license=CC BY-NC-SA
exact mass=98.0844
ionization energy=70 eV
ion type=[M]+*
computed spectral entropy=2.1829137120444826
computed normalized entropy=0.619027378739753
SPLASH=splash10-001l-9000000000-9b14009eafd0917baa36
submitter=submitter = University of Tokyo Team (Faculty of Engineering, University of Tokyo)
MoNA Rating=3.75

>  <NUM PEAKS>  (5627) 
34

>  <MASS SPECTRAL PEAKS>  (5627) 
26 2.9
27 14
28 13.5
29 0.88
30 5.7
37 0.7
38 1.8
39 0.92
40 3.1
41 8.2
42 72.5
43 0.59
44 0.6
45 0.9
50 0.7
51 0.11
52 1.3
53 2.2
54 3.5
55 0.61
56 47
57 2.5
65 0.8
67 0.2
68 0.6
69 0.6
81 1.4
82 0.1
83 99.99
84 5.2
95 0.5
97 0.39
98 35.3
99 2.2

>  <PREDICTED SPECTRUM>  (5627) 
14 18
15 49
26 64
27 133
28 167
29 119
30 147
36 6
37 23
38 98
39 199
40 232
41 312
42 514
43 210
44 76
45 22
51 8
52 157
53 198
54 306
55 145
56 208
57 92
58 50
66 110
67 126
68 176
69 83
70 55
81 121
82 49
83 999
84 214
97 117
98 326
99 67

$$$$

     RDKit          2D

  6  6  0  0  0  0  0  0  0  0999 V2000
   -2.0250   -0.8315    0.0000 C   0  0  0  0  0  0  0  0  0  0  0  0
    0.2167    0.6250    0.0000 C   0  0  0  0  0  0  0  0  0  0  0  0
    1.6765    0.3134    0.0000 C   0  0  0  0  0  0  0  0  0  0  0  0
   -0.5333   -0.6740    0.0000 C   0  0  0  0  0  0  0  0  0  0  0  0
    1.8422   -1.1795    0.0000 N   0  0  0  0  0  0  0  0  0  0  0  0
    0.4665   -1.7824    0.0000 N   0  0  0  0  0  0  0  0  0  0  0  0
  3  2  1  0
  4  1  1  0
  4  2  1  0
  5  3  2  0
  6  4  1  0
  6  5  1  0
M  END
>  <NAME>  (5628) 
5-METHYL-2-PYRAZOLINE

>  <SYNONYMS>  (5628) 


>  <SPECTRUM TYPE>  (5628) 
MS1

>  <INSTRUMENT TYPE>  (5628) 
EI-B

>  <INSTRUMENT>  (5628) 
SHIMADZU LKB-2091

>  <ION MODE>  (5628) 
P

>  <INCHIKEY>  (5628) 
KDTSAMBCRXSULF-UHFFFAOYSA-N

>  <FORMULA>  (5628) 
C4H8N2

>  <EXACT MASS>  (5628) 
84.06874825599999

>  <MW>  (5628) 
84

>  <ID>  (5628) 
JP000889

>  <CONTRIBUTOR>  (5628) 
University of Tokyo Team, {Faculty of Engineering, University of Tokyo

>  <COMMENT>  (5628) 
SMILES=CC(C1)NN=C1
InChI=InChI=1S/C4H8N2/c1-4-2-3-5-6-4/h3-4,6H,2H2,1H3
computed SMILES=N1=CCC(N1)C
accession=JP000889
date=2016.01.19 (Created 2008.10.21, modified 2011.05.06)
author=SASAKI S, TOYOHASHI UNIV. OF TECH.
license=CC BY-NC-SA
exact mass=84.06875
ionization energy=70 eV
ion type=[M]+*
computed spectral entropy=2.1143327041244877
computed normalized entropy=0.6568543861772178
SPLASH=splash10-014l-9000000000-294c5107dcb60f35fe1d
submitter=submitter = University of Tokyo Team (Faculty of Engineering, University of Tokyo)
MoNA Rating=3.75

>  <NUM PEAKS>  (5628) 
25

>  <MASS SPECTRAL PEAKS>  (5628) 
26 4.3
27 15.7
28 21.5
29 0.91
30 2.5
38 1.7
39 8.6
40 0.43
41 11
42 76.1
43 8.6
44 0.21
50 1.3
51 1.5
52 1.1
53 0.23
54 1.6
55 2.8
56 6.7
68 0.14
69 99.99
70 4.8
83 7.2
84 4.76
85 5.2

>  <PREDICTED SPECTRUM>  (5628) 
14 71
15 170
16 44
17 18
18 14
25 38
26 212
27 415
28 462
29 228
30 261
32 0
36 31
37 49
38 135
39 233
40 329
41 480
42 650
43 221
44 208
45 11
50 12
51 65
52 209
53 108
54 348
55 201
56 267
57 61
63 12
65 20
67 74
68 184
69 999
70 196
71 0
83 375
84 748
85 192

$$$$

     RDKit          2D

  6  6  0  0  0  0  0  0  0  0999 V2000
   -2.0250   -0.8315    0.0000 C   0  0  0  0  0  0  0  0  0  0  0  0
    0.2167    0.6250    0.0000 C   0  0  0  0  0  0  0  0  0  0  0  0
    1.6765    0.3134    0.0000 C   0  0  0  0  0  0  0  0  0  0  0  0
   -0.5333   -0.6740    0.0000 C   0  0  0  0  0  0  0  0  0  0  0  0
    1.8422   -1.1795    0.0000 N   0  0  0  0  0  0  0  0  0  0  0  0
    0.4665   -1.7824    0.0000 N   0  0  0  0  0  0  0  0  0  0  0  0
  3  2  1  0
  4  1  1  0
  4  2  1  0
  5  3  1  0
  6  4  2  0
  6  5  1  0
M  END
>  <NAME>  (5629) 
3-METHYL-2-PYRAZOLINE

>  <SYNONYMS>  (5629) 


>  <SPECTRUM TYPE>  (5629) 
MS1

>  <INSTRUMENT TYPE>  (5629) 
EI-B

>  <INSTRUMENT>  (5629) 
SHIMADZU LKB-2091

>  <ION MODE>  (5629) 
P

>  <INCHIKEY>  (5629) 
MWCHLFKQTXSQJV-UHFFFAOYSA-N

>  <FORMULA>  (5629) 
C4H8N2

>  <EXACT MASS>  (5629) 
84.06874825599999

>  <MW>  (5629) 
84

>  <ID>  (5629) 
JP000888

>  <CONTRIBUTOR>  (5629) 
University of Tokyo Team, {Faculty of Engineering, University of Tokyo

>  <COMMENT>  (5629) 
SMILES=CC(C1)=NNC1
InChI=InChI=1S/C4H8N2/c1-4-2-3-5-6-4/h5H,2-3H2,1H3
computed SMILES=N=1NCCC1C
accession=JP000888
date=2016.01.19 (Created 2008.10.21, modified 2011.05.06)
author=SASAKI S, TOYOHASHI UNIV. OF TECH.
license=CC BY-NC-SA
exact mass=84.06875
ionization energy=70 eV
ion type=[M]+*
computed spectral entropy=2.305321611772566
computed normalized entropy=0.7075670057255271
SPLASH=splash10-001i-9000000000-0e65ffa0c8d5d368a80b
submitter=submitter = University of Tokyo Team (Faculty of Engineering, University of Tokyo)
MoNA Rating=3.75

>  <NUM PEAKS>  (5629) 
26

>  <MASS SPECTRAL PEAKS>  (5629) 
26 6.8
27 21.9
28 28
29 1.37
30 3.3
38 1.7
39 9.6
40 0.38
41 10.6
42 45.1
43 5.5
50 0.17
51 2.2
52 1.6
53 0.4
54 1.98
55 17.8
56 45.8
57 2.2
69 0.62
70 0.5
81 2.5
82 2.9
83 99.99
84 84.2
85 5.1

>  <PREDICTED SPECTRUM>  (5629) 
14 45
15 90
16 19
18 0
19 2
25 29
26 112
27 234
28 286
29 180
30 220
31 37
36 83
37 137
38 236
39 491
40 336
41 459
42 616
43 336
44 204
49 10
50 129
51 272
52 330
53 255
54 375
55 341
56 351
57 191
63 149
64 17
65 137
66 99
67 78
68 201
69 401
70 65
81 134
82 218
83 999
84 883
85 180

$$$$

     RDKit          2D

 15 14  0  0  0  0  0  0  0  0999 V2000
    1.9486    4.8750    0.0000 C   0  0  0  0  0  0  0  0  0  0  0  0
   -8.4437    4.8750    0.0000 C   0  0  0  0  0  0  0  0  0  0  0  0
   -0.6495   -1.1250    0.0000 C   0  0  0  0  0  0  0  0  0  0  0  0
    0.6495    1.1250    0.0000 C   0  0  0  0  0  0  0  0  0  0  0  0
    0.6495    5.6250    0.0000 C   0  0  0  0  0  0  0  0  0  0  0  0
   -7.1447    5.6250    0.0000 C   0  0  0  0  0  0  0  0  0  0  0  0
   -0.6495    4.8750    0.0000 C   0  0  0  0  0  0  0  0  0  0  0  0
   -5.8457    4.8750    0.0000 C   0  0  0  0  0  0  0  0  0  0  0  0
   -1.9486    1.1250    0.0000 C   0  0  0  0  0  0  0  0  0  0  0  0
   -1.9486    2.6250    0.0000 C   0  0  0  0  0  0  0  0  0  0  0  0
   -1.9486    5.6250    0.0000 C   0  0  0  0  0  0  0  0  0  0  0  0
   -4.5466    5.6250    0.0000 C   0  0  0  0  0  0  0  0  0  0  0  0
   -0.6495    0.3750    0.0000 C   0  0  0  0  0  0  0  0  0  0  0  0
   -3.2476    3.3750    0.0000 N   0  0  0  0  0  0  0  0  0  0  0  0
   -3.2476    4.8750    0.0000 N   0  0  0  0  0  0  0  0  0  0  0  0
  5  1  1  0
  6  2  1  0
  7  5  1  0
  8  6  1  0
 10  9  1  0
 11  7  1  0
 12  8  1  0
 13  3  1  0
 13  4  1  0
 13  9  2  0
 10 14  2  0
 15 11  1  0
 15 12  1  0
 15 14  1  0
M  END
>  <NAME>  (5630) 
DI-N-BUTYLHYDRAZONE BETA.BETA-DIMETHYLACRYLALDEHYDE

>  <SYNONYMS>  (5630) 
3-METHYL-2-BUTENAL DIBUTYLHYDRAZONE

>  <SPECTRUM TYPE>  (5630) 
MS1

>  <INSTRUMENT TYPE>  (5630) 
EI-B

>  <INSTRUMENT>  (5630) 
SHIMADZU LKB-2091

>  <ION MODE>  (5630) 
P

>  <INCHIKEY>  (5630) 
YRNUSWNJDPYSFU-GXDHUFHOSA-N

>  <FORMULA>  (5630) 
C13H26N2

>  <EXACT MASS>  (5630) 
210.20959883199998

>  <MW>  (5630) 
210

>  <ID>  (5630) 
JP000887

>  <CONTRIBUTOR>  (5630) 
University of Tokyo Team, {Faculty of Engineering, University of Tokyo

>  <COMMENT>  (5630) 
SMILES=CCCCN(CCCC)N=CC=C(C)C
InChI=InChI=1S/C13H26N2/c1-5-7-11-15(12-8-6-2)14-10-9-13(3)4/h9-10H,5-8,11-12H2,1-4H3/b14-10+
computed SMILES=N(=CC=C(C)C)N(CCCC)CCCC
accession=JP000887
date=2016.01.19 (Created 2008.10.21, modified 2011.05.06)
author=SASAKI S, TOYOHASHI UNIV. OF TECH.
license=CC BY-NC-SA
exact mass=210.2096
ionization energy=70 eV
ion type=[M]+*
computed spectral entropy=2.9126981279647897
computed normalized entropy=0.7524016757997516
SPLASH=splash10-014i-8920000000-516511cb384da800aecc
submitter=submitter = University of Tokyo Team (Faculty of Engineering, University of Tokyo)
MoNA Rating=3.75

>  <NUM PEAKS>  (5630) 
48

>  <MASS SPECTRAL PEAKS>  (5630) 
28 3.3
29 17.6
30 8.5
39 0.45
40 1.3
41 15.2
42 7.6
43 0.74
44 5.9
53 3.9
54 1.3
55 1.41
56 3.3
57 11.1
58 0.8
65 0.09
67 5.9
68 3
69 22.8
70 0.41
72 1.4
80 2.1
81 2
82 1.63
83 5.2
84 9.3
86 8.2
94 0.3
95 1
96 5.2
97 3.9
101 0.24
109 1
110 1.2
111 15.9
112 0.18
124 1.3
125 24.7
126 3.9
128 0.19
138 3.3
139 1.4
153 1.9
167 99.99
168 12.6
209 1.8
210 44.5
211 7.6

>  <PREDICTED SPECTRUM>  (5630) 
25 0
26 81
27 379
28 287
29 608
30 406
31 62
37 40
38 87
39 453
40 195
41 999
42 681
43 695
44 694
49 32
50 123
51 257
52 177
53 327
54 298
55 590
56 497
57 911
58 487
62 8
63 83
64 54
65 226
66 132
67 317
68 302
69 359
70 323
71 180
72 62
77 184
78 128
79 179
80 149
81 284
82 354
83 385
84 307
85 297
86 992
87 304
92 29
93 223
94 143
95 247
96 150
97 189
98 201
99 118
100 317
104 19
107 137
108 77
109 303
110 378
111 479
112 224
113 146
119 45
120 43
121 34
122 158
123 192
124 259
125 351
126 208
127 144
137 227
138 108
139 59
140 23
150 10
151 142
153 356
154 250
155 120
166 115
167 507
168 226
169 107
181 10
193 18
195 143
196 8
209 144
210 738
211 296
212 68

$$$$

     RDKit          2D

 13 12  0  0  0  0  0  0  0  0999 V2000
    3.2476    3.3750    0.0000 C   0  0  0  0  0  0  0  0  0  0  0  0
    0.6495    7.8750    0.0000 C   0  0  0  0  0  0  0  0  0  0  0  0
   -7.1447    3.3750    0.0000 C   0  0  0  0  0  0  0  0  0  0  0  0
   -5.8457    5.6250    0.0000 C   0  0  0  0  0  0  0  0  0  0  0  0
    1.9486    4.1250    0.0000 C   0  0  0  0  0  0  0  0  0  0  0  0
    0.6495    6.3750    0.0000 C   0  0  0  0  0  0  0  0  0  0  0  0
   -4.5466    3.3750    0.0000 C   0  0  0  0  0  0  0  0  0  0  0  0
   -3.2476    4.1250    0.0000 C   0  0  0  0  0  0  0  0  0  0  0  0
    0.6495    3.3750    0.0000 C   0  0  0  0  0  0  0  0  0  0  0  0
   -0.6495    5.6250    0.0000 C   0  0  0  0  0  0  0  0  0  0  0  0
   -5.8457    4.1250    0.0000 C   0  0  0  0  0  0  0  0  0  0  0  0
   -1.9486    3.3750    0.0000 N   0  0  0  0  0  0  0  0  0  0  0  0
   -0.6495    4.1250    0.0000 N   0  0  0  0  0  0  0  0  0  0  0  0
  5  1  1  0
  6  2  1  0
  8  7  1  0
  9  5  1  0
 10  6  1  0
 11  3  1  0
 11  4  1  0
 11  7  2  0
  8 12  2  0
 13  9  1  0
 13 10  1  0
 13 12  1  0
M  END
>  <NAME>  (5631) 
DI-N-PROPYLHYDRAZONE BETA.BETA-DIMETHYLACRYLALDEHYDE

>  <SYNONYMS>  (5631) 
3-METHYL-2-BUTENAL DIPROPYLHYDRAZONE

>  <SPECTRUM TYPE>  (5631) 
MS1

>  <INSTRUMENT TYPE>  (5631) 
EI-B

>  <INSTRUMENT>  (5631) 
SHIMADZU LKB-2091

>  <ION MODE>  (5631) 
P

>  <INCHIKEY>  (5631) 
FTMKRAVFLAKCFZ-XYOKQWHBSA-N

>  <FORMULA>  (5631) 
C11H22N2

>  <EXACT MASS>  (5631) 
182.17829870399999

>  <MW>  (5631) 
182

>  <ID>  (5631) 
JP000886

>  <CONTRIBUTOR>  (5631) 
University of Tokyo Team, {Faculty of Engineering, University of Tokyo

>  <COMMENT>  (5631) 
SMILES=CCCN(CCC)N=CC=C(C)C
InChI=InChI=1S/C11H22N2/c1-5-9-13(10-6-2)12-8-7-11(3)4/h7-8H,5-6,9-10H2,1-4H3/b12-8+
computed SMILES=N(=CC=C(C)C)N(CCC)CCC
accession=JP000886
date=2016.01.19 (Created 2008.10.21, modified 2011.05.06)
author=SASAKI S, TOYOHASHI UNIV. OF TECH.
license=CC BY-NC-SA
exact mass=182.1783
ionization energy=70 eV
ion type=[M]+*
computed spectral entropy=3.0499151240730806
computed normalized entropy=0.7966050638406317
SPLASH=splash10-0f89-9600000000-97bbcb14a6976615905b
submitter=submitter = University of Tokyo Team (Faculty of Engineering, University of Tokyo)
MoNA Rating=3.75

>  <NUM PEAKS>  (5631) 
46

>  <MASS SPECTRAL PEAKS>  (5631) 
28 12.4
29 14.6
30 26
39 1.39
40 4.4
41 34.7
42 19.6
43 4.13
44 5.4
51 1.2
53 10
54 0.33
55 30.4
56 9.6
57 2.4
58 0.72
65 2.6
67 13.9
68 6.1
69 4.13
70 13.2
71 1.5
72 26
73 0.22
80 5
81 4.6
82 30.4
83 0.74
84 6.3
87 2
94 4.9
95 0.24
96 3.6
97 8.1
98 2.4
100 0.33
109 2
110 3
111 54.2
112 0.63
124 5.4
125 3
153 99.99
154 1.24
182 56.4
183 10

>  <PREDICTED SPECTRUM>  (5631) 
15 36
26 75
27 377
28 280
29 399
30 273
31 51
38 59
39 465
40 234
41 999
42 741
43 981
44 314
45 284
46 83
50 24
51 123
52 141
53 383
54 357
55 655
56 422
57 310
58 249
59 96
60 5
64 21
65 146
66 141
67 389
68 386
69 443
70 439
71 383
72 492
73 102
74 15
77 90
78 57
79 159
80 141
81 439
82 363
83 387
84 264
85 56
86 28
91 99
92 59
93 286
94 226
95 318
96 170
97 221
98 131
99 192
100 4
105 66
106 36
107 312
108 94
109 559
110 281
111 373
112 329
113 232
114 116
119 53
120 129
121 125
122 250
123 561
124 288
125 393
126 102
127 158
128 58
135 164
136 97
137 416
138 224
139 523
140 153
150 22
151 303
152 219
153 865
154 348
155 133
165 256
166 169
167 606
168 231
181 187
182 881
183 346
184 61

$$$$

     RDKit          2D

 12 11  0  0  0  0  0  0  0  0999 V2000
   -7.4695    3.9375    0.0000 C   0  0  0  0  0  0  0  0  0  0  0  0
   -6.1704    6.1875    0.0000 C   0  0  0  0  0  0  0  0  0  0  0  0
    1.6238    3.1875    0.0000 C   0  0  0  0  0  0  0  0  0  0  0  0
    0.3248    5.4375    0.0000 C   0  0  0  0  0  0  0  0  0  0  0  0
   -0.9743    1.6875    0.0000 C   0  0  0  0  0  0  0  0  0  0  0  0
   -6.1704    3.1875    0.0000 C   0  0  0  0  0  0  0  0  0  0  0  0
   -4.8714    5.4375    0.0000 C   0  0  0  0  0  0  0  0  0  0  0  0
   -2.2733    3.9375    0.0000 C   0  0  0  0  0  0  0  0  0  0  0  0
    0.3248    3.9375    0.0000 C   0  0  0  0  0  0  0  0  0  0  0  0
   -0.9743    3.1875    0.0000 C   0  0  0  0  0  0  0  0  0  0  0  0
   -3.5724    3.1875    0.0000 N   0  0  0  0  0  0  0  0  0  0  0  0
   -4.8714    3.9375    0.0000 N   0  0  0  0  0  0  0  0  0  0  0  0
  6  1  1  0
  7  2  1  0
  9  3  1  0
  9  4  1  0
 10  5  2  0
 10  8  1  0
 10  9  1  0
  8 11  2  0
 12  6  1  0
 12  7  1  0
 12 11  1  0
M  END
>  <NAME>  (5632) 
DIETHYLHYDRAZONE ALPHA-ISOPROPYLACRYLALDEHYDE

>  <SYNONYMS>  (5632) 
2-ISOPROPYL-2-PROPENAL DIETHYLHYDRAZONE

>  <SPECTRUM TYPE>  (5632) 
MS1

>  <INSTRUMENT TYPE>  (5632) 
EI-B

>  <INSTRUMENT>  (5632) 
SHIMADZU LKB-2091

>  <ION MODE>  (5632) 
P

>  <INCHIKEY>  (5632) 
WQOIIQRGAJMOOT-DHZHZOJOSA-N

>  <FORMULA>  (5632) 
C10H20N2

>  <EXACT MASS>  (5632) 
168.16264864

>  <MW>  (5632) 
168

>  <ID>  (5632) 
JP000885

>  <CONTRIBUTOR>  (5632) 
University of Tokyo Team, {Faculty of Engineering, University of Tokyo

>  <COMMENT>  (5632) 
SMILES=CCN(CC)N=CC(=C)C(C)C
InChI=InChI=1S/C10H20N2/c1-6-12(7-2)11-8-10(5)9(3)4/h8-9H,5-7H2,1-4H3/b11-8+
computed SMILES=N(=CC(=C)C(C)C)N(CC)CC
accession=JP000885
date=2016.01.19 (Created 2008.10.21, modified 2011.05.06)
author=SASAKI S, TOYOHASHI UNIV. OF TECH.
license=CC BY-NC-SA
exact mass=168.16265
ionization energy=70 eV
ion type=[M]+*
computed spectral entropy=3.370022771692537
computed normalized entropy=0.8230921263411068
SPLASH=splash10-00ke-9300000000-8e9997f1983eca61ad2e
submitter=submitter = University of Tokyo Team (Faculty of Engineering, University of Tokyo)
MoNA Rating=3.75

>  <NUM PEAKS>  (5632) 
60

>  <MASS SPECTRAL PEAKS>  (5632) 
30 27.2
39 17.2
40 3.9
41 5.43
42 35.7
43 27.2
44 31.5
52 0.19
53 10
54 6.4
55 12.2
56 2.93
57 8.6
58 48
59 5
65 0.28
67 10
68 6.4
69 39.3
70 1
71 4.6
72 19.3
73 3.8
74 0.57
77 1.3
79 3.1
80 5.7
81 1.36
82 9.3
83 6.4
84 6.4
85 0.26
86 3.2
87 6.4
93 1.2
94 0.86
95 11.4
96 32.1
97 99.99
98 1.07
99 1.9
108 3.4
109 7.2
110 0.72
111 20.7
112 10
122 6.4
123 0.86
124 11.4
125 1.6
136 1.6
137 0.14
138 6.8
139 64.2
140 7.9
153 4.65
154 5.7
167 1.9
168 57.9
169 7.9

>  <PREDICTED SPECTRUM>  (5632) 
14 18
15 98
17 0
18 36
26 152
27 632
28 462
29 743
30 526
31 18
32 7
34 6
37 14
38 110
39 608
40 339
41 903
42 932
43 670
44 938
45 118
46 58
51 77
52 85
53 368
54 304
55 723
56 689
57 574
58 812
59 128
65 101
66 31
67 308
68 386
69 408
70 425
71 500
72 634
73 251
74 76
77 35
78 43
79 148
80 175
81 366
82 338
83 390
84 259
85 243
86 94
87 52
93 48
94 173
95 154
96 400
97 430
98 305
99 192
108 196
109 232
110 261
111 411
112 182
113 50
123 154
124 303
125 577
126 164
137 81
138 41
139 466
140 127
141 7
153 999
154 326
155 6
167 198
168 960
169 301

$$$$

     RDKit          2D

 12 11  0  0  0  0  0  0  0  0999 V2000
    2.2733    5.0625    0.0000 C   0  0  0  0  0  0  0  0  0  0  0  0
   -8.1190    5.0625    0.0000 C   0  0  0  0  0  0  0  0  0  0  0  0
   -6.8200    2.8125    0.0000 C   0  0  0  0  0  0  0  0  0  0  0  0
   -1.6238    7.3125    0.0000 C   0  0  0  0  0  0  0  0  0  0  0  0
    0.9743    5.8125    0.0000 C   0  0  0  0  0  0  0  0  0  0  0  0
   -6.8200    5.8125    0.0000 C   0  0  0  0  0  0  0  0  0  0  0  0
   -5.5209    3.5625    0.0000 C   0  0  0  0  0  0  0  0  0  0  0  0
   -0.3248    5.0625    0.0000 C   0  0  0  0  0  0  0  0  0  0  0  0
   -2.9228    5.0625    0.0000 C   0  0  0  0  0  0  0  0  0  0  0  0
   -1.6238    5.8125    0.0000 C   0  0  0  0  0  0  0  0  0  0  0  0
   -4.2219    5.8125    0.0000 N   0  0  0  0  0  0  0  0  0  0  0  0
   -5.5209    5.0625    0.0000 N   0  0  0  0  0  0  0  0  0  0  0  0
  5  1  1  0
  6  2  1  0
  7  3  1  0
  8  5  1  0
 10  4  2  0
 10  8  1  0
 10  9  1  0
 11  9  2  3
 12  6  1  0
 12  7  1  0
 12 11  1  0
M  END
>  <NAME>  (5633) 
DIETHYLHYDRAZONE ALPHA-PROPYLACRYLALDEHYDE

>  <SYNONYMS>  (5633) 
2-PROPYL-2-PROPENAL DIETHYLHYDRAZONE

>  <SPECTRUM TYPE>  (5633) 
MS1

>  <INSTRUMENT TYPE>  (5633) 
EI-B

>  <INSTRUMENT>  (5633) 
SHIMADZU LKB-2091

>  <ION MODE>  (5633) 
P

>  <INCHIKEY>  (5633) 
OKCMQBMWYJSETE-UHFFFAOYSA-N

>  <FORMULA>  (5633) 
C10H20N2

>  <EXACT MASS>  (5633) 
168.16264864

>  <MW>  (5633) 
168

>  <ID>  (5633) 
JP000884

>  <CONTRIBUTOR>  (5633) 
University of Tokyo Team, {Faculty of Engineering, University of Tokyo

>  <COMMENT>  (5633) 
SMILES=CCCC(=C)C=NN(CC)CC
InChI=InChI=1S/C10H20N2/c1-5-8-10(4)9-11-12(6-2)7-3/h9H,4-8H2,1-3H3
computed SMILES=N(=CC(=C)CCC)N(CC)CC
computed InChI=InChI=1S/C10H20N2/c1-5-8-10(4)9-11-12(6-2)7-3/h9H,4-8H2,1-3H3/b11-9+
accession=JP000884
date=2016.01.19 (Created 2008.10.21, modified 2011.05.06)
author=SASAKI S, TOYOHASHI UNIV. OF TECH.
license=CC BY-NC-SA
exact mass=168.16265
ionization energy=70 eV
ion type=[M]+*
computed spectral entropy=3.4135729216709265
computed normalized entropy=0.8337287860839678
SPLASH=splash10-002u-9500000000-20c7ad8d899b8d52b910
submitter=submitter = University of Tokyo Team (Faculty of Engineering, University of Tokyo)
MoNA Rating=3.75

>  <NUM PEAKS>  (5633) 
60

>  <MASS SPECTRAL PEAKS>  (5633) 
27 15
28 26.9
29 36.4
30 2.76
31 1.1
39 14.5
40 4.4
41 4.36
42 32.7
43 17.1
44 27.6
45 0.11
51 1.9
52 2
53 9.1
54 0.58
55 12
56 25.8
57 4.4
58 3.13
59 5.8
67 8.4
68 7.3
69 2.54
70 9.4
71 4
72 12
73 0.16
74 1.6
79 2.9
80 5.4
81 0.98
82 7.6
83 5.8
84 6.2
85 0.33
86 1.4
87 8
94 4.5
95 0.58
96 22.5
97 26.5
98 4.4
108 0.4
109 8.4
110 6.2
111 20.4
112 0.29
123 2.5
124 3.6
125 9.8
126 0.17
138 1.8
139 99.99
140 11.6
153 2.91
154 3.6
167 1.4
168 38.2
169 5.8

>  <PREDICTED SPECTRUM>  (5633) 
14 24
15 103
16 20
17 21
18 33
25 11
26 131
27 464
28 351
29 558
30 367
31 109
32 14
34 3
36 16
37 49
38 99
39 356
40 224
41 532
42 570
43 427
44 555
45 94
46 58
50 42
51 98
52 107
53 284
54 198
55 386
56 454
57 237
58 307
59 124
63 17
64 32
65 81
66 58
67 233
68 293
69 310
70 277
71 280
72 326
73 144
74 77
77 23
78 16
79 79
80 140
81 222
82 235
83 298
84 204
85 110
86 6
87 118
93 52
94 133
95 192
96 406
97 355
98 175
99 83
108 130
109 252
110 173
111 358
112 132
113 17
123 218
124 306
125 317
126 105
137 7
138 108
139 999
140 275
141 37
153 379
154 136
167 164
168 613
169 199

$$$$

     RDKit          2D

 12 11  0  0  0  0  0  0  0  0999 V2000
   -7.4695    3.9375    0.0000 C   0  0  0  0  0  0  0  0  0  0  0  0
   -6.1704    6.1875    0.0000 C   0  0  0  0  0  0  0  0  0  0  0  0
    1.6238    3.1875    0.0000 C   0  0  0  0  0  0  0  0  0  0  0  0
    0.3248    5.4375    0.0000 C   0  0  0  0  0  0  0  0  0  0  0  0
   -0.9743    1.6875    0.0000 C   0  0  0  0  0  0  0  0  0  0  0  0
   -6.1704    3.1875    0.0000 C   0  0  0  0  0  0  0  0  0  0  0  0
   -4.8714    5.4375    0.0000 C   0  0  0  0  0  0  0  0  0  0  0  0
   -2.2733    3.9375    0.0000 C   0  0  0  0  0  0  0  0  0  0  0  0
    0.3248    3.9375    0.0000 C   0  0  0  0  0  0  0  0  0  0  0  0
   -0.9743    3.1875    0.0000 C   0  0  0  0  0  0  0  0  0  0  0  0
   -3.5724    3.1875    0.0000 N   0  0  0  0  0  0  0  0  0  0  0  0
   -4.8714    3.9375    0.0000 N   0  0  0  0  0  0  0  0  0  0  0  0
  6  1  1  0
  7  2  1  0
  9  3  1  0
  9  4  1  0
 10  5  1  0
 10  8  1  0
 10  9  2  0
  8 11  2  0
 12  6  1  0
 12  7  1  0
 12 11  1  0
M  END
>  <NAME>  (5634) 
DIETHYLHYDRAZONE TRIMETHYLACRYLALDEHYDE

>  <SYNONYMS>  (5634) 
2,3-DIMETHYL-2-BUTENAL DIETHYLHYDRAZONE

>  <SPECTRUM TYPE>  (5634) 
MS1

>  <INSTRUMENT TYPE>  (5634) 
EI-B

>  <INSTRUMENT>  (5634) 
SHIMADZU LKB-2091

>  <ION MODE>  (5634) 
P

>  <INCHIKEY>  (5634) 
MJRKGYWACUZMMJ-DHZHZOJOSA-N

>  <FORMULA>  (5634) 
C10H20N2

>  <EXACT MASS>  (5634) 
168.16264864

>  <MW>  (5634) 
168

>  <ID>  (5634) 
JP000883

>  <CONTRIBUTOR>  (5634) 
University of Tokyo Team, {Faculty of Engineering, University of Tokyo

>  <COMMENT>  (5634) 
SMILES=CCN(CC)N=CC(C)=C(C)C
InChI=InChI=1S/C10H20N2/c1-6-12(7-2)11-8-10(5)9(3)4/h8H,6-7H2,1-5H3/b11-8+
computed SMILES=N(=CC(=C(C)C)C)N(CC)CC
accession=JP000883
author=SASAKI S, TOYOHASHI UNIV. OF TECH.
date=2016.01.19 (Created 2008.10.21, modified 2011.05.06)
license=CC BY-NC-SA
exact mass=168.16265
ionization energy=70 eV
ion type=[M]+*
computed spectral entropy=3.396073102514404
computed normalized entropy=0.8294546418612293
SPLASH=splash10-05mo-9300000000-9aa6db1e39570bfc4284
submitter=submitter = University of Tokyo Team (Faculty of Engineering, University of Tokyo)
MoNA Rating=3.75

>  <NUM PEAKS>  (5634) 
60

>  <MASS SPECTRAL PEAKS>  (5634) 
29 42
30 30.9
31 2.5
39 2.1
40 3.7
41 99.99
42 40.7
43 1.85
44 39.5
51 3.4
52 2.8
53 1.6
54 6.7
55 16.7
56 30.9
57 1.85
58 96.2
59 7.8
65 4.4
67 2.1
68 7.9
69 37
70 14.8
71 0.44
72 33.3
73 4.9
74 11.1
79 0.76
80 8.4
81 34.6
82 9.3
83 0.56
84 18.6
85 4.2
86 6.2
87 0.85
94 18.5
95 19.7
96 82.7
97 4.07
98 8
108 4.1
109 5.8
110 0.99
111 25.9
112 17.3
113 0.6
122 0.42
123 4.8
124 11.1
125 6.9
136 0.27
137 2.7
138 9.9
139 48.1
140 0.53
154 3.4
155 33.3
168 83.9
169 9.9

>  <PREDICTED SPECTRUM>  (5634) 
14 2
15 55
17 1
18 9
25 2
26 145
27 538
28 396
29 662
30 565
31 84
37 39
38 103
39 594
40 329
41 820
42 773
43 533
44 598
45 64
46 32
50 87
51 194
52 172
53 465
54 421
55 585
56 616
57 427
58 985
59 267
62 18
63 32
64 66
65 204
66 134
67 550
68 603
69 522
70 396
71 199
72 494
73 210
74 190
77 113
78 97
79 295
80 450
81 478
82 574
83 385
84 320
85 238
86 178
87 84
91 48
93 171
94 379
95 432
96 999
97 500
98 239
99 23
105 53
107 44
108 273
109 432
110 579
111 542
112 225
113 40
114 33
122 197
123 362
124 388
125 367
137 69
138 213
139 814
140 204
151 80
152 29
153 888
154 289
155 44
167 66
168 990
169 337
170 14

$$$$

     RDKit          2D

 12 11  0  0  0  0  0  0  0  0999 V2000
    2.2733    5.0625    0.0000 C   0  0  0  0  0  0  0  0  0  0  0  0
   -8.1190    5.0625    0.0000 C   0  0  0  0  0  0  0  0  0  0  0  0
   -6.8200    2.8125    0.0000 C   0  0  0  0  0  0  0  0  0  0  0  0
   -1.6238    7.3125    0.0000 C   0  0  0  0  0  0  0  0  0  0  0  0
    0.9743    5.8125    0.0000 C   0  0  0  0  0  0  0  0  0  0  0  0
   -6.8200    5.8125    0.0000 C   0  0  0  0  0  0  0  0  0  0  0  0
   -5.5209    3.5625    0.0000 C   0  0  0  0  0  0  0  0  0  0  0  0
   -0.3248    5.0625    0.0000 C   0  0  0  0  0  0  0  0  0  0  0  0
   -2.9228    5.0625    0.0000 C   0  0  0  0  0  0  0  0  0  0  0  0
   -1.6238    5.8125    0.0000 C   0  0  0  0  0  0  0  0  0  0  0  0
   -4.2219    5.8125    0.0000 N   0  0  0  0  0  0  0  0  0  0  0  0
   -5.5209    5.0625    0.0000 N   0  0  0  0  0  0  0  0  0  0  0  0
  5  1  1  0
  6  2  1  0
  7  3  1  0
  8  5  1  0
 10  4  1  0
  8 10  2  0
 10  9  1  0
  9 11  2  0
 12  6  1  0
 12  7  1  0
 12 11  1  0
M  END
>  <NAME>  (5635) 
DIETHYLHYDRAZONE ALPHA-METHYL-BETA-ETHYLACRYLALDEHYDE

>  <SYNONYMS>  (5635) 
2-METHYL-2-PENTENAL DIETHYLHYDRAZONE

>  <SPECTRUM TYPE>  (5635) 
MS1

>  <INSTRUMENT TYPE>  (5635) 
EI-B

>  <INSTRUMENT>  (5635) 
SHIMADZU LKB-2091

>  <ION MODE>  (5635) 
P

>  <INCHIKEY>  (5635) 
UNYHHDLZDYMYLQ-GFULKKFKSA-N

>  <FORMULA>  (5635) 
C10H20N2

>  <EXACT MASS>  (5635) 
168.16264864

>  <MW>  (5635) 
168

>  <ID>  (5635) 
JP000882

>  <CONTRIBUTOR>  (5635) 
University of Tokyo Team, {Faculty of Engineering, University of Tokyo

>  <COMMENT>  (5635) 
SMILES=CCC=C(C)C=NN(CC)CC
InChI=InChI=1S/C10H20N2/c1-5-8-10(4)9-11-12(6-2)7-3/h8-9H,5-7H2,1-4H3/b10-8+,11-9+
computed SMILES=N(=CC(=CCC)C)N(CC)CC
accession=JP000882
date=2016.01.19 (Created 2008.10.21, modified 2011.05.06)
author=SASAKI S, TOYOHASHI UNIV. OF TECH.
license=CC BY-NC-SA
exact mass=168.16265
ionization energy=70 eV
ion type=[M]+*
computed spectral entropy=3.3315902988015305
computed normalized entropy=0.8431750952577624
SPLASH=splash10-05my-9300000000-c66e7fd68e5314bc1895
submitter=submitter = University of Tokyo Team (Faculty of Engineering, University of Tokyo)
MoNA Rating=3.75

>  <NUM PEAKS>  (5635) 
52

>  <MASS SPECTRAL PEAKS>  (5635) 
28 28.9
29 56.7
30 33.3
39 2.56
40 6.4
41 85.6
42 54.4
43 0.89
53 18.9
54 7.8
55 23.3
56 3.56
57 7.4
58 75.6
59 11.1
65 0.51
67 18.9
68 7.8
69 20
70 1.67
71 4.8
72 35.6
73 4.8
74 0.78
79 8.3
80 7.8
81 31.1
82 2
83 20
84 22.2
85 11.1
94 1.56
95 17.8
96 99.99
97 23.3
98 0.89
108 9
109 8.9
110 9
111 2.56
112 9.4
113 6.6
124 8.9
125 0.94
138 6.7
139 88.9
140 10
153 5.56
154 6.3
167 3
168 83.3
169 8.6

>  <PREDICTED SPECTRUM>  (5635) 
14 17
15 117
16 13
17 11
18 18
25 3
26 158
27 583
28 486
29 799
30 849
31 91
32 27
37 16
38 99
39 536
40 321
41 770
42 894
43 463
44 615
46 21
50 29
51 139
52 139
53 385
54 398
55 647
56 752
57 448
58 999
59 245
63 12
64 21
65 161
66 126
67 441
68 533
69 470
70 399
71 220
72 330
73 8
74 40
77 121
78 59
79 275
80 318
81 395
82 442
83 338
84 317
85 153
86 185
87 68
92 45
93 140
94 322
95 266
96 686
97 316
98 183
107 103
108 374
109 447
110 347
111 596
112 258
122 131
123 411
124 412
125 425
126 53
137 50
138 181
139 848
140 185
141 15
153 646
154 189
167 80
168 956
169 323

$$$$

     RDKit          2D

 11 10  0  0  0  0  0  0  0  0999 V2000
   -6.4952    4.5000    0.0000 C   0  0  0  0  0  0  0  0  0  0  0  0
   -5.1962    2.2500    0.0000 C   0  0  0  0  0  0  0  0  0  0  0  0
    2.5981    3.7500    0.0000 C   0  0  0  0  0  0  0  0  0  0  0  0
    1.2990    6.0000    0.0000 C   0  0  0  0  0  0  0  0  0  0  0  0
   -3.8971    6.0000    0.0000 C   0  0  0  0  0  0  0  0  0  0  0  0
   -2.5981    3.7500    0.0000 C   0  0  0  0  0  0  0  0  0  0  0  0
   -5.1962    3.7500    0.0000 C   0  0  0  0  0  0  0  0  0  0  0  0
    1.2990    4.5000    0.0000 C   0  0  0  0  0  0  0  0  0  0  0  0
   -3.8971    4.5000    0.0000 C   0  0  0  0  0  0  0  0  0  0  0  0
   -1.2990    4.5000    0.0000 N   0  0  0  0  0  0  0  0  0  0  0  0
    0.0000    3.7500    0.0000 N   0  0  0  0  0  0  0  0  0  0  0  0
  7  1  1  0
  7  2  1  0
  8  3  1  0
  8  4  1  0
  9  5  2  0
  9  6  1  0
  9  7  1  0
  6 10  2  0
 11  8  1  0
 11 10  1  0
M  END
>  <NAME>  (5636) 
ISOPROPYLHYDRAZONE ALPHA-ISOPROPYLACRYLALDEHYDE

>  <SYNONYMS>  (5636) 
2-ISOPROPYL-2-PROPENAL ISOPROPYLHYDRAZONE

>  <SPECTRUM TYPE>  (5636) 
MS1

>  <INSTRUMENT TYPE>  (5636) 
EI-B

>  <INSTRUMENT>  (5636) 
SHIMADZU LKB-2091

>  <ION MODE>  (5636) 
P

>  <INCHIKEY>  (5636) 
OATICRMJGGIIEI-UXBLZVDNSA-N

>  <FORMULA>  (5636) 
C9H18N2

>  <EXACT MASS>  (5636) 
154.146998576

>  <MW>  (5636) 
154

>  <ID>  (5636) 
JP000881

>  <CONTRIBUTOR>  (5636) 
University of Tokyo Team, {Faculty of Engineering, University of Tokyo

>  <COMMENT>  (5636) 
SMILES=CC(C)NN=CC(=C)C(C)C
InChI=InChI=1S/C9H18N2/c1-7(2)9(5)6-10-11-8(3)4/h6-8,11H,5H2,1-4H3/b10-6+
computed SMILES=N(=CC(=C)C(C)C)NC(C)C
accession=JP000881
date=2016.01.19 (Created 2008.10.21, modified 2011.05.06)
author=SASAKI S, TOYOHASHI UNIV. OF TECH.
license=CC BY-NC-SA
exact mass=154.147
ionization energy=70 eV
ion type=[M]+*
computed spectral entropy=2.7127818728105044
computed normalized entropy=0.7404766549176021
SPLASH=splash10-014l-9200000000-9d7190b83b8d28c1f29b
submitter=submitter = University of Tokyo Team (Faculty of Engineering, University of Tokyo)
MoNA Rating=3.75

>  <NUM PEAKS>  (5636) 
39

>  <MASS SPECTRAL PEAKS>  (5636) 
27 13.7
28 3.2
29 3.7
30 0.39
39 10
40 2.2
41 32.6
42 1.74
43 24.2
44 22.1
53 3.9
54 0.28
55 22.9
56 5.8
57 1.7
58 0.37
67 4.2
68 2.9
69 99.99
70 0.58
71 1.2
80 1.5
81 3.1
82 0.18
83 4.2
84 1.4
94 2.2
95 0.39
96 7.9
97 7.1
98 1.4
110 0.12
111 23.1
112 1.8
139 35.8
140 0.37
153 1.4
154 18.7
155 2.1

>  <PREDICTED SPECTRUM>  (5636) 
14 14
15 59
16 9
18 3
25 0
26 72
27 382
28 243
29 371
30 414
31 10
37 40
38 102
39 548
40 262
41 915
42 819
43 923
44 552
45 101
50 20
51 80
52 111
53 231
54 317
55 587
56 365
57 265
58 228
59 30
65 126
66 48
67 269
68 296
69 407
70 236
71 199
72 35
79 111
80 92
81 178
82 142
83 88
84 131
85 2
93 42
94 259
95 351
96 472
97 650
98 141
109 121
110 107
111 971
112 311
139 999
140 261
153 248
154 785
155 235

$$$$

     RDKit          2D

 11 10  0  0  0  0  0  0  0  0999 V2000
    2.5981    4.5000    0.0000 C   0  0  0  0  0  0  0  0  0  0  0  0
   -7.7942    4.5000    0.0000 C   0  0  0  0  0  0  0  0  0  0  0  0
   -6.4952    6.7500    0.0000 C   0  0  0  0  0  0  0  0  0  0  0  0
   -1.2990    6.7500    0.0000 C   0  0  0  0  0  0  0  0  0  0  0  0
    1.2990    5.2500    0.0000 C   0  0  0  0  0  0  0  0  0  0  0  0
    0.0000    4.5000    0.0000 C   0  0  0  0  0  0  0  0  0  0  0  0
   -2.5981    4.5000    0.0000 C   0  0  0  0  0  0  0  0  0  0  0  0
   -6.4952    5.2500    0.0000 C   0  0  0  0  0  0  0  0  0  0  0  0
   -1.2990    5.2500    0.0000 C   0  0  0  0  0  0  0  0  0  0  0  0
   -3.8971    5.2500    0.0000 N   0  0  0  0  0  0  0  0  0  0  0  0
   -5.1962    4.5000    0.0000 N   0  0  0  0  0  0  0  0  0  0  0  0
  5  1  1  0
  6  5  1  0
  8  2  1  0
  8  3  1  0
  9  4  2  0
  9  6  1  0
  9  7  1  0
 10  7  2  3
 11  8  1  0
 11 10  1  0
M  END
>  <NAME>  (5637) 
ISOPROPYLHYDRAZONE ALPHA-PROPYLACRYLALDEHYDE

>  <SYNONYMS>  (5637) 
2-PROPYL-2-PROPENAL ISOPROPYLHYDRAZONE

>  <SPECTRUM TYPE>  (5637) 
MS1

>  <INSTRUMENT TYPE>  (5637) 
EI-B

>  <INSTRUMENT>  (5637) 
SHIMADZU LKB-2091

>  <ION MODE>  (5637) 
P

>  <INCHIKEY>  (5637) 
IMGUGCJNSIIXAW-UHFFFAOYSA-N

>  <FORMULA>  (5637) 
C9H18N2

>  <EXACT MASS>  (5637) 
154.146998576

>  <MW>  (5637) 
154

>  <ID>  (5637) 
JP000880

>  <CONTRIBUTOR>  (5637) 
University of Tokyo Team, {Faculty of Engineering, University of Tokyo

>  <COMMENT>  (5637) 
SMILES=CCCC(=C)C=NNC(C)C
InChI=InChI=1S/C9H18N2/c1-5-6-9(4)7-10-11-8(2)3/h7-8,11H,4-6H2,1-3H3
computed SMILES=N(=CC(=C)CCC)NC(C)C
computed InChI=InChI=1S/C9H18N2/c1-5-6-9(4)7-10-11-8(2)3/h7-8,11H,4-6H2,1-3H3/b10-7+
accession=JP000880
date=2016.01.19 (Created 2008.10.21, modified 2011.05.06)
author=SASAKI S, TOYOHASHI UNIV. OF TECH.
license=CC BY-NC-SA
exact mass=154.147
ionization energy=70 eV
ion type=[M]+*
computed spectral entropy=2.9180274194608455
computed normalized entropy=0.766557956557086
SPLASH=splash10-06tf-9300000000-b4ad5fbf40c9767c84dc
submitter=submitter = University of Tokyo Team (Faculty of Engineering, University of Tokyo)
MoNA Rating=3.75

>  <NUM PEAKS>  (5637) 
45

>  <MASS SPECTRAL PEAKS>  (5637) 
27 25.4
28 69.2
29 9.6
30 0.85
31 2.8
39 18.5
40 4.8
41 6.48
42 24.6
43 34.6
44 52.3
45 0.15
51 1.5
52 1.7
53 7.7
54 0.62
55 77
56 10
57 2.3
58 0.69
65 1.7
67 8.5
68 3.9
69 3.89
70 4.8
73 1.9
79 2.2
80 0.28
81 10.8
82 4.8
83 15.4
84 0.27
94 3.4
95 3
96 12.3
97 0.48
110 3.8
111 99.99
112 6.9
125 0.48
139 27.7
140 2.7
153 2.3
154 2.93
155 3.8

>  <PREDICTED SPECTRUM>  (5637) 
14 29
15 87
16 15
17 16
18 20
26 109
27 425
28 311
29 404
30 506
31 75
32 27
37 59
38 126
39 513
40 254
41 778
42 642
43 620
44 467
50 47
51 126
52 167
53 337
54 316
55 623
56 405
57 219
58 148
59 2
65 125
66 71
67 251
68 311
69 415
70 383
71 228
72 73
79 155
80 131
81 271
82 381
83 430
84 297
85 83
94 165
95 257
96 412
97 349
98 105
109 193
110 210
111 999
112 261
123 69
124 0
125 206
126 83
127 54
137 63
139 514
140 171
153 179
154 487
155 174

$$$$

     RDKit          2D

 11 10  0  0  0  0  0  0  0  0999 V2000
    2.2733    4.3125    0.0000 C   0  0  0  0  0  0  0  0  0  0  0  0
   -6.8200    5.0625    0.0000 C   0  0  0  0  0  0  0  0  0  0  0  0
   -5.5209    2.8125    0.0000 C   0  0  0  0  0  0  0  0  0  0  0  0
   -0.3248    2.8125    0.0000 C   0  0  0  0  0  0  0  0  0  0  0  0
   -1.6238    6.5625    0.0000 C   0  0  0  0  0  0  0  0  0  0  0  0
    0.9743    5.0625    0.0000 C   0  0  0  0  0  0  0  0  0  0  0  0
   -5.5209    4.3125    0.0000 C   0  0  0  0  0  0  0  0  0  0  0  0
   -0.3248    4.3125    0.0000 C   0  0  0  0  0  0  0  0  0  0  0  0
   -1.6238    5.0625    0.0000 C   0  0  0  0  0  0  0  0  0  0  0  0
   -4.2219    5.0625    0.0000 N   0  0  0  0  0  0  0  0  0  0  0  0
   -2.9228    4.3125    0.0000 N   0  0  0  0  0  0  0  0  0  0  0  0
  6  1  1  0
  7  2  1  0
  7  3  1  0
  8  4  1  0
  6  8  2  0
  9  5  1  0
  9  8  1  0
 10  7  1  0
  9 11  2  0
 11 10  1  0
M  END
>  <NAME>  (5638) 
ISOPROPYLHYDRAZONE METHYL-SEC-BUTENYLKETONE

>  <SYNONYMS>  (5638) 
3-METHYL-3-PENTEN-2-ONE ISOPROPYLHYDRAZONE

>  <SPECTRUM TYPE>  (5638) 
MS1

>  <INSTRUMENT TYPE>  (5638) 
EI-B

>  <INSTRUMENT>  (5638) 
SHIMADZU LKB-2091

>  <ION MODE>  (5638) 
P

>  <INCHIKEY>  (5638) 
ZMWUOVWPBZTVIZ-ZOIFJEAISA-N

>  <FORMULA>  (5638) 
C9H18N2

>  <EXACT MASS>  (5638) 
154.146998576

>  <MW>  (5638) 
154

>  <ID>  (5638) 
JP000879

>  <CONTRIBUTOR>  (5638) 
University of Tokyo Team, {Faculty of Engineering, University of Tokyo

>  <COMMENT>  (5638) 
SMILES=CC=C(C)C(C)=NNC(C)C
InChI=InChI=1S/C9H18N2/c1-6-8(4)9(5)11-10-7(2)3/h6-7,10H,1-5H3/b8-6+,11-9+
computed SMILES=N(NC(C)C)=C(C(=CC)C)C
accession=JP000879
date=2016.01.19 (Created 2008.10.21, modified 2011.05.06)
author=SASAKI S, TOYOHASHI UNIV. OF TECH.
license=CC BY-NC-SA
exact mass=154.147
ionization energy=70 eV
ion type=[M]+*
computed spectral entropy=2.79300268991345
computed normalized entropy=0.7380715450619458
SPLASH=splash10-052f-9000000000-eb20f1c6ec08260fcc7a
submitter=submitter = University of Tokyo Team (Faculty of Engineering, University of Tokyo)
MoNA Rating=3.75

>  <NUM PEAKS>  (5638) 
44

>  <MASS SPECTRAL PEAKS>  (5638) 
26 1.3
27 36.1
28 13.6
29 2.14
30 17.5
31 1.1
39 17.1
40 0.3
41 31.5
42 99.99
43 21.1
44 1
51 1.9
52 1.3
53 10
54 0.5
55 60.9
56 71.6
57 2.4
58 0.54
65 1.8
67 6.8
68 1.7
69 0.21
70 10.8
77 1
79 1.4
80 0.12
81 4.5
82 1.6
83 4.2
84 0.16
94 2.7
95 2.4
96 10.7
97 0.79
98 1.1
109 1.6
110 3.2
111 8.95
112 7.5
139 4.7
154 16.4
155 1.9

>  <PREDICTED SPECTRUM>  (5638) 
14 11
15 33
26 72
27 326
28 279
29 273
30 219
31 31
33 2
37 31
38 71
39 423
40 196
41 498
42 590
43 345
44 172
50 54
51 123
52 123
53 221
54 261
55 584
56 374
57 175
58 311
65 33
66 71
67 256
68 180
69 243
70 132
71 209
72 83
73 149
77 44
79 27
80 34
81 100
82 233
83 751
84 203
95 53
96 115
97 510
98 199
99 86
109 0
110 1
111 239
112 67
125 12
137 3
139 999
140 320
153 72
154 471
155 133

$$$$

     RDKit          2D

 11 10  0  0  0  0  0  0  0  0999 V2000
   -6.4952    4.5000    0.0000 C   0  0  0  0  0  0  0  0  0  0  0  0
    2.5981    3.7500    0.0000 C   0  0  0  0  0  0  0  0  0  0  0  0
    1.2990    1.5000    0.0000 C   0  0  0  0  0  0  0  0  0  0  0  0
   -3.8971    6.0000    0.0000 C   0  0  0  0  0  0  0  0  0  0  0  0
   -5.1962    3.7500    0.0000 C   0  0  0  0  0  0  0  0  0  0  0  0
    1.2990    4.5000    0.0000 C   0  0  0  0  0  0  0  0  0  0  0  0
   -0.0000    2.2500    0.0000 C   0  0  0  0  0  0  0  0  0  0  0  0
   -2.5981    3.7500    0.0000 C   0  0  0  0  0  0  0  0  0  0  0  0
   -3.8971    4.5000    0.0000 C   0  0  0  0  0  0  0  0  0  0  0  0
   -1.2990    4.5000    0.0000 N   0  0  0  0  0  0  0  0  0  0  0  0
    0.0000    3.7500    0.0000 N   0  0  0  0  0  0  0  0  0  0  0  0
  5  1  1  0
  6  2  1  0
  7  3  1  0
  9  4  2  0
  9  5  1  0
  9  8  1  0
 10  8  2  3
 11  6  1  0
 11  7  1  0
 11 10  1  0
M  END
>  <NAME>  (5639) 
DIETHYLHYDRAZONE ALPHA-ETHYLACRYLALDEHYDE

>  <SYNONYMS>  (5639) 
2-ETHYL-2-PROPENAL DIETHYLHYDRAZONE

>  <SPECTRUM TYPE>  (5639) 
MS1

>  <INSTRUMENT TYPE>  (5639) 
EI-B

>  <INSTRUMENT>  (5639) 
SHIMADZU LKB-2091

>  <ION MODE>  (5639) 
P

>  <INCHIKEY>  (5639) 
OMRAIPQMRLJSRZ-UHFFFAOYSA-N

>  <FORMULA>  (5639) 
C9H18N2

>  <EXACT MASS>  (5639) 
154.146998576

>  <MW>  (5639) 
154

>  <ID>  (5639) 
JP000878

>  <CONTRIBUTOR>  (5639) 
University of Tokyo Team, {Faculty of Engineering, University of Tokyo

>  <COMMENT>  (5639) 
SMILES=CCC(=C)C=NN(CC)CC
InChI=InChI=1S/C9H18N2/c1-5-9(4)8-10-11(6-2)7-3/h8H,4-7H2,1-3H3
computed SMILES=N(=CC(=C)CC)N(CC)CC
computed InChI=InChI=1S/C9H18N2/c1-5-9(4)8-10-11(6-2)7-3/h8H,4-7H2,1-3H3/b10-8+
accession=JP000878
date=2016.01.19 (Created 2008.10.21, modified 2011.05.06)
author=SASAKI S, TOYOHASHI UNIV. OF TECH.
license=CC BY-NC-SA
exact mass=154.147
ionization energy=70 eV
ion type=[M]+*
computed spectral entropy=3.217920806526977
computed normalized entropy=0.8184291744131362
SPLASH=splash10-004i-9400000000-63cdb4c654bff670dc04
submitter=submitter = University of Tokyo Team (Faculty of Engineering, University of Tokyo)
MoNA Rating=3.75

>  <NUM PEAKS>  (5639) 
51

>  <MASS SPECTRAL PEAKS>  (5639) 
28 29.6
29 59.2
30 31.5
31 0.16
38 1.5
39 18.9
40 6.7
41 2.4
42 37
43 7.8
44 30.7
45 0.18
51 2.6
52 2.4
53 13.7
54 0.59
55 30.4
56 33.3
57 4.1
58 3.41
59 4.8
65 2.1
67 12.2
68 0.59
69 31.5
70 9.6
71 4.8
72 0.81
73 1.6
80 3.7
81 5.9
82 1.96
83 6.7
84 7.8
94 11.8
95 0.56
96 4.8
97 33.3
98 3.3
109 0.48
110 7.8
111 17.4
112 3
124 0.17
125 99.99
126 9.6
139 40.7
140 0.46
153 1.8
154 55.6
155 5.6

>  <PREDICTED SPECTRUM>  (5639) 
14 41
15 123
16 27
17 28
18 46
25 15
26 182
27 629
28 499
29 841
30 463
31 101
32 16
37 18
38 100
39 530
40 307
41 697
42 708
43 476
44 587
50 50
51 151
52 163
53 373
54 336
55 556
56 610
57 366
58 488
59 131
64 4
65 168
66 150
67 463
68 362
69 481
70 322
71 257
72 130
73 51
77 51
79 135
80 231
81 417
82 504
83 418
84 199
85 43
93 3
94 210
95 429
96 284
97 495
98 159
108 4
109 262
110 404
111 488
112 133
122 5
123 0
124 56
125 999
126 283
127 9
137 81
139 919
140 283
153 190
154 936
155 286

$$$$

     RDKit          2D

 11 10  0  0  0  0  0  0  0  0999 V2000
   -7.7942    3.0000    0.0000 C   0  0  0  0  0  0  0  0  0  0  0  0
    0.0000    1.5000    0.0000 C   0  0  0  0  0  0  0  0  0  0  0  0
   -1.2990    3.7500    0.0000 C   0  0  0  0  0  0  0  0  0  0  0  0
   -6.4952   -0.7500    0.0000 C   0  0  0  0  0  0  0  0  0  0  0  0
   -7.7942    1.5000    0.0000 C   0  0  0  0  0  0  0  0  0  0  0  0
   -1.2990    0.7500    0.0000 C   0  0  0  0  0  0  0  0  0  0  0  0
   -2.5981    3.0000    0.0000 C   0  0  0  0  0  0  0  0  0  0  0  0
   -5.1962    1.5000    0.0000 C   0  0  0  0  0  0  0  0  0  0  0  0
   -6.4952    0.7500    0.0000 C   0  0  0  0  0  0  0  0  0  0  0  0
   -3.8971    0.7500    0.0000 N   0  0  0  0  0  0  0  0  0  0  0  0
   -2.5981    1.5000    0.0000 N   0  0  0  0  0  0  0  0  0  0  0  0
  5  1  1  0
  6  2  1  0
  7  3  1  0
  9  4  1  0
  5  9  2  0
  9  8  1  0
  8 10  2  0
 11  6  1  0
 11  7  1  0
 11 10  1  0
M  END
>  <NAME>  (5640) 
DIETHYLHYDRAZONE ALPHA,BETA-DIMETHYLACRYLALDEHYDE

>  <SYNONYMS>  (5640) 
2-METHYL-2-BUTENAL DIETHYLHYDRAZONE

>  <SPECTRUM TYPE>  (5640) 
MS1

>  <INSTRUMENT TYPE>  (5640) 
EI-B

>  <INSTRUMENT>  (5640) 
SHIMADZU LKB-2091

>  <ION MODE>  (5640) 
P

>  <INCHIKEY>  (5640) 
GJHYEYLGKWDLMY-APQBBXBWSA-N

>  <FORMULA>  (5640) 
C9H18N2

>  <EXACT MASS>  (5640) 
154.146998576

>  <MW>  (5640) 
154

>  <ID>  (5640) 
JP000877

>  <CONTRIBUTOR>  (5640) 
University of Tokyo Team, {Faculty of Engineering, University of Tokyo

>  <COMMENT>  (5640) 
SMILES=CC=C(C)C=NN(CC)CC
InChI=InChI=1S/C9H18N2/c1-5-9(4)8-10-11(6-2)7-3/h5,8H,6-7H2,1-4H3/b9-5-,10-8+
computed SMILES=N(=CC(=CC)C)N(CC)CC
accession=JP000877
date=2016.01.19 (Created 2008.10.21, modified 2011.05.06)
author=SASAKI S, TOYOHASHI UNIV. OF TECH.
license=CC BY-NC-SA
exact mass=154.147
ionization energy=70 eV
ion type=[M]+*
computed spectral entropy=3.2884601908010147
computed normalized entropy=0.8133609922196973
SPLASH=splash10-056u-9300000000-d9b8d6e45b547ba1ef60
submitter=submitter = University of Tokyo Team (Faculty of Engineering, University of Tokyo)
MoNA Rating=3.75

>  <NUM PEAKS>  (5640) 
57

>  <MASS SPECTRAL PEAKS>  (5640) 
26 4.2
27 50
28 56
29 8.35
30 50
39 32.1
40 8.4
41 4.29
42 61
43 11.7
44 44
45 0.17
46 1.7
51 3.9
52 3.2
53 2.84
54 8.9
55 66.7
56 5.6
57 0.72
58 94.5
59 8.3
65 5
66 0.23
67 28.4
68 6.7
69 10
70 2.17
71 5.6
72 24
73 2.8
74 0.33
77 2.8
80 6.7
81 10
82 6.1
83 14
84 11.1
85 2
94 1.39
95 10
96 13.9
97 50
98 0.72
109 5.6
110 7.2
111 21.7
112 0.39
124 3.3
125 99.99
126 8.9
139 6.67
140 6.7
153 3.9
154 94.5
155 1.1
156 0.6

>  <PREDICTED SPECTRUM>  (5640) 
14 32
15 137
16 20
17 25
18 52
25 27
26 219
27 718
28 579
29 868
30 783
31 163
32 33
33 0
34 9
37 57
38 150
39 668
40 352
41 790
42 821
43 494
44 675
45 54
46 49
50 119
51 214
52 215
53 419
54 447
55 724
56 622
57 320
58 993
59 272
63 39
64 40
65 236
66 146
67 492
68 439
69 375
70 393
71 354
72 466
73 181
74 49
77 226
78 50
79 241
80 305
81 381
82 676
83 427
84 317
85 107
92 45
93 142
94 328
95 475
96 401
97 668
98 206
99 35
108 9
109 368
110 377
111 469
112 175
124 148
125 789
126 234
138 26
139 663
140 211
153 167
154 999
155 321
156 6

$$$$

     RDKit          2D

 10  9  0  0  0  0  0  0  0  0999 V2000
   -6.4952    4.5000    0.0000 C   0  0  0  0  0  0  0  0  0  0  0  0
    2.5981    3.7500    0.0000 C   0  0  0  0  0  0  0  0  0  0  0  0
    1.2990    1.5000    0.0000 C   0  0  0  0  0  0  0  0  0  0  0  0
   -5.1962    3.7500    0.0000 C   0  0  0  0  0  0  0  0  0  0  0  0
    1.2990    4.5000    0.0000 C   0  0  0  0  0  0  0  0  0  0  0  0
   -0.0000    2.2500    0.0000 C   0  0  0  0  0  0  0  0  0  0  0  0
   -3.8971    4.5000    0.0000 C   0  0  0  0  0  0  0  0  0  0  0  0
   -2.5981    3.7500    0.0000 C   0  0  0  0  0  0  0  0  0  0  0  0
   -1.2990    4.5000    0.0000 N   0  0  0  0  0  0  0  0  0  0  0  0
    0.0000    3.7500    0.0000 N   0  0  0  0  0  0  0  0  0  0  0  0
  4  1  1  0
  5  2  1  0
  6  3  1  0
  4  7  2  0
  8  7  1  0
  8  9  2  0
 10  5  1  0
 10  6  1  0
 10  9  1  0
M  END
>  <NAME>  (5641) 
DIETHYLHYDRAZONE BETA-METHYLACRYLALDEHYDE

>  <SYNONYMS>  (5641) 
2-BUTENAL DIETHYLHYDRAZONE

>  <SPECTRUM TYPE>  (5641) 
MS1

>  <INSTRUMENT TYPE>  (5641) 
EI-B

>  <INSTRUMENT>  (5641) 
SHIMADZU LKB-2091

>  <ION MODE>  (5641) 
P

>  <INCHIKEY>  (5641) 
DJLGQXBRZAYBJR-NUXDXBQRSA-N

>  <FORMULA>  (5641) 
C8H16N2

>  <EXACT MASS>  (5641) 
140.131348512

>  <MW>  (5641) 
140

>  <ID>  (5641) 
JP000876

>  <CONTRIBUTOR>  (5641) 
University of Tokyo Team, {Faculty of Engineering, University of Tokyo

>  <COMMENT>  (5641) 
SMILES=CC=CC=NN(CC)CC
InChI=InChI=1S/C8H16N2/c1-4-7-8-9-10(5-2)6-3/h4,7-8H,5-6H2,1-3H3/b7-4+,9-8+
computed SMILES=N(=CC=CC)N(CC)CC
accession=JP000876
date=2016.01.19 (Created 2008.10.21, modified 2011.05.06)
author=SASAKI S, TOYOHASHI UNIV. OF TECH.
license=CC BY-NC-SA
exact mass=140.13135
ionization energy=70 eV
ion type=[M]+*
computed spectral entropy=3.0490449284028243
computed normalized entropy=0.8057325935977879
SPLASH=splash10-004l-9400000000-fc8bc7ffe7015b59f806
submitter=submitter = University of Tokyo Team (Faculty of Engineering, University of Tokyo)
MoNA Rating=3.75

>  <NUM PEAKS>  (5641) 
44

>  <MASS SPECTRAL PEAKS>  (5641) 
26 2.8
27 26.9
28 53.8
29 2
30 31.5
39 24.6
40 5.5
41 3.85
42 33.8
43 6.5
44 21.1
51 0.18
52 1.8
53 10
54 8.1
55 0.77
56 29.6
57 3.9
58 33.1
59 0.21
67 3.7
68 26.9
69 11.5
70 1.46
71 3.2
72 7.7
80 6.9
81 0.43
82 10.8
83 20.8
84 5
94 0.19
95 5.8
96 27.7
97 4.1
110 0.36
111 17.7
112 2
125 99.99
126 0.61
139 3.1
140 92.3
141 7.3
142 0.5

>  <PREDICTED SPECTRUM>  (5641) 
14 12
15 56
26 125
27 487
28 362
29 591
30 391
38 62
39 328
40 202
41 477
42 507
43 203
44 428
45 38
50 48
51 105
52 108
53 278
54 264
55 407
56 393
57 267
58 581
59 86
63 11
64 9
65 139
66 99
67 323
68 564
69 359
70 263
71 136
72 44
73 12
77 65
79 92
80 168
81 294
82 209
83 349
84 187
85 69
86 106
87 2
95 190
96 168
97 446
98 90
99 3
109 66
110 54
111 278
112 87
113 43
125 999
126 283
139 197
140 737
141 220

$$$$

     RDKit          2D

 10  9  0  0  0  0  0  0  0  0999 V2000
    1.9486    3.3750    0.0000 C   0  0  0  0  0  0  0  0  0  0  0  0
    0.6495    1.1250    0.0000 C   0  0  0  0  0  0  0  0  0  0  0  0
   -4.5466    5.6250    0.0000 C   0  0  0  0  0  0  0  0  0  0  0  0
   -5.8457    3.3750    0.0000 C   0  0  0  0  0  0  0  0  0  0  0  0
    0.6495    4.1250    0.0000 C   0  0  0  0  0  0  0  0  0  0  0  0
   -0.6495    1.8750    0.0000 C   0  0  0  0  0  0  0  0  0  0  0  0
   -3.2476    3.3750    0.0000 C   0  0  0  0  0  0  0  0  0  0  0  0
   -4.5466    4.1250    0.0000 C   0  0  0  0  0  0  0  0  0  0  0  0
   -1.9486    4.1250    0.0000 N   0  0  0  0  0  0  0  0  0  0  0  0
   -0.6495    3.3750    0.0000 N   0  0  0  0  0  0  0  0  0  0  0  0
  5  1  1  0
  6  2  1  0
  8  3  2  0
  8  4  1  0
  8  7  1  0
  7  9  2  0
 10  5  1  0
 10  6  1  0
 10  9  1  0
M  END
>  <NAME>  (5642) 
DIETHYLHYDRAZONE ALPHA-METHYLACRYLALDEHYDE

>  <SYNONYMS>  (5642) 
2-METHYL-2-PROPENAL DIETHYLHYDRAZONE

>  <SPECTRUM TYPE>  (5642) 
MS1

>  <INSTRUMENT TYPE>  (5642) 
EI-B

>  <INSTRUMENT>  (5642) 
SHIMADZU LKB-2091

>  <ION MODE>  (5642) 
P

>  <INCHIKEY>  (5642) 
PYAFLBXZPSGUKT-VQHVLOKHSA-N

>  <FORMULA>  (5642) 
C8H16N2

>  <EXACT MASS>  (5642) 
140.131348512

>  <MW>  (5642) 
140

>  <ID>  (5642) 
JP000875

>  <CONTRIBUTOR>  (5642) 
University of Tokyo Team, {Faculty of Engineering, University of Tokyo

>  <COMMENT>  (5642) 
SMILES=CCN(CC)N=CC(C)=C
InChI=InChI=1S/C8H16N2/c1-5-10(6-2)9-7-8(3)4/h7H,3,5-6H2,1-2,4H3/b9-7+
computed SMILES=N(=CC(=C)C)N(CC)CC
accession=JP000875
date=2016.01.19 (Created 2008.10.21, modified 2011.05.06)
author=SASAKI S, TOYOHASHI UNIV. OF TECH.
license=CC BY-NC-SA
exact mass=140.13135
ionization energy=70 eV
ion type=[M]+*
computed spectral entropy=3.115875400356853
computed normalized entropy=0.8048859750700736
SPLASH=splash10-01r6-9400000000-a609ad37cb78f5b4fcdd
submitter=submitter = University of Tokyo Team (Faculty of Engineering, University of Tokyo)
MoNA Rating=3.75

>  <NUM PEAKS>  (5642) 
48

>  <MASS SPECTRAL PEAKS>  (5642) 
27 21.6
28 32.5
29 35.1
30 2.43
38 1.5
39 24.3
40 3.5
41 2.97
42 35.1
43 8.4
44 21.6
50 0.08
51 2.2
52 2.2
53 10
54 0.65
55 8.2
56 32.5
57 4.3
58 2.03
59 2.4
67 2.4
68 9.7
69 0.68
70 16.2
71 4
72 3.5
73 0.08
80 10
81 7
82 15.1
83 4.05
84 4
94 0.9
95 3
96 0.43
97 27
98 3.8
99 1
109 0.24
110 3.5
111 99.99
112 8.9
125 4.32
126 4.3
139 2.3
140 56.9
141 8.1

>  <PREDICTED SPECTRUM>  (5642) 
14 42
15 164
16 21
17 10
18 38
25 15
26 199
27 713
28 581
29 874
30 803
31 115
32 0
37 62
38 146
39 637
40 369
41 787
42 911
43 381
44 635
45 107
50 57
51 135
52 159
53 380
54 395
55 625
56 629
57 358
58 594
59 149
63 6
65 93
66 88
67 338
68 693
69 477
70 381
71 180
72 254
77 40
79 32
80 287
81 309
82 344
83 458
84 198
85 28
86 7
94 17
95 308
96 385
97 484
98 44
109 58
110 205
111 885
112 245
113 42
124 24
125 908
126 250
139 235
140 999
141 284

$$$$

     RDKit          2D

  9  8  0  0  0  0  0  0  0  0999 V2000
   -7.4695    3.9375    0.0000 C   0  0  0  0  0  0  0  0  0  0  0  0
    1.6238    3.1875    0.0000 C   0  0  0  0  0  0  0  0  0  0  0  0
    0.3248    5.4375    0.0000 C   0  0  0  0  0  0  0  0  0  0  0  0
   -6.1704    3.1875    0.0000 C   0  0  0  0  0  0  0  0  0  0  0  0
   -4.8714    3.9375    0.0000 C   0  0  0  0  0  0  0  0  0  0  0  0
   -3.5724    3.1875    0.0000 C   0  0  0  0  0  0  0  0  0  0  0  0
    0.3248    3.9375    0.0000 C   0  0  0  0  0  0  0  0  0  0  0  0
   -2.2733    3.9375    0.0000 N   0  0  0  0  0  0  0  0  0  0  0  0
   -0.9743    3.1875    0.0000 N   0  0  0  0  0  0  0  0  0  0  0  0
  4  1  1  0
  4  5  2  0
  6  5  1  0
  7  2  1  0
  7  3  1  0
  6  8  2  0
  9  7  1  0
  9  8  1  0
M  END
>  <NAME>  (5643) 
ISOPROPYLHYDRAZONE CROTONE ALDEHYDE

>  <SYNONYMS>  (5643) 
2-BUTENAL ISOPROPYLHYDRAZONE

>  <SPECTRUM TYPE>  (5643) 
MS1

>  <INSTRUMENT TYPE>  (5643) 
EI-B

>  <INSTRUMENT>  (5643) 
SHIMADZU LKB-2091

>  <ION MODE>  (5643) 
P

>  <INCHIKEY>  (5643) 
VFPIMXUWBJRDMY-DVBIZMGNSA-N

>  <FORMULA>  (5643) 
C7H14N2

>  <EXACT MASS>  (5643) 
126.115698448

>  <MW>  (5643) 
126

>  <ID>  (5643) 
JP000874

>  <CONTRIBUTOR>  (5643) 
University of Tokyo Team, {Faculty of Engineering, University of Tokyo

>  <COMMENT>  (5643) 
SMILES=CC=CC=NNC(C)C
InChI=InChI=1S/C7H14N2/c1-4-5-6-8-9-7(2)3/h4-7,9H,1-3H3/b5-4+,8-6+
computed SMILES=N(=CC=CC)NC(C)C
accession=JP000874
date=2016.01.19 (Created 2008.10.21, modified 2011.05.06)
author=SASAKI S, TOYOHASHI UNIV. OF TECH.
license=CC BY-NC-SA
exact mass=126.1157
ionization energy=70 eV
ion type=[M]+*
computed spectral entropy=2.744951208175092
computed normalized entropy=0.8070543694331678
SPLASH=splash10-01r6-9300000000-4181488a212155c6a426
submitter=submitter = University of Tokyo Team (Faculty of Engineering, University of Tokyo)
MoNA Rating=3.75

>  <NUM PEAKS>  (5643) 
30

>  <MASS SPECTRAL PEAKS>  (5643) 
26 29.5
27 29.5
28 18
29 0.98
30 8.4
39 32.8
40 5.1
41 6.07
42 36.1
43 27
44 86.9
45 0.25
53 7.9
54 4.9
55 13.1
56 2.13
57 3.6
58 6.4
67 6.2
68 2.95
69 27.9
70 6.6
81 2.3
82 0.9
83 55.9
84 4.6
111 99.99
112 0.72
126 59.9
127 5.1

>  <PREDICTED SPECTRUM>  (5643) 
14 40
15 72
16 20
17 3
18 14
25 17
26 94
27 323
28 262
29 319
30 340
31 47
32 3
33 7
36 34
37 91
38 154
39 453
40 259
41 651
42 596
43 516
44 381
45 38
49 10
50 47
51 125
52 161
53 295
54 284
55 303
56 178
57 254
58 114
65 71
66 104
67 229
68 353
69 367
70 226
71 184
72 25
77 5
79 89
81 127
82 114
83 381
84 336
85 105
86 64
94 144
95 142
96 83
97 106
98 52
99 69
109 224
110 91
111 999
112 230
113 4
123 15
125 230
126 542
127 141

$$$$

     RDKit          2D

  9  8  0  0  0  0  0  0  0  0999 V2000
    2.2733    2.0625    0.0000 C   0  0  0  0  0  0  0  0  0  0  0  0
    0.9743    4.3125    0.0000 C   0  0  0  0  0  0  0  0  0  0  0  0
   -0.3248    0.5625    0.0000 C   0  0  0  0  0  0  0  0  0  0  0  0
   -2.9228    5.0625    0.0000 C   0  0  0  0  0  0  0  0  0  0  0  0
   -0.3248    5.0625    0.0000 C   0  0  0  0  0  0  0  0  0  0  0  0
    0.9743    2.8125    0.0000 C   0  0  0  0  0  0  0  0  0  0  0  0
   -0.3248    2.0625    0.0000 C   0  0  0  0  0  0  0  0  0  0  0  0
   -1.6238    2.8125    0.0000 N   0  0  0  0  0  0  0  0  0  0  0  0
   -1.6238    4.3125    0.0000 N   0  0  0  0  0  0  0  0  0  0  0  0
  6  1  2  0
  6  2  1  0
  7  3  1  0
  7  6  1  0
  7  8  2  0
  9  4  1  0
  9  5  1  0
  9  8  1  0
M  END
>  <NAME>  (5644) 
DIMETHYLHYDRAZONE METHYLISOPROPENYLKETONE

>  <SYNONYMS>  (5644) 
3-METHYL-3-BUTEN-2-ONE DIMETHYLHYDRAZONE

>  <SPECTRUM TYPE>  (5644) 
MS1

>  <INSTRUMENT TYPE>  (5644) 
EI-B

>  <INSTRUMENT>  (5644) 
SHIMADZU LKB-2091

>  <ION MODE>  (5644) 
P

>  <INCHIKEY>  (5644) 
JLTPVBBSSSBMDA-FPLPWBNLSA-N

>  <FORMULA>  (5644) 
C7H14N2

>  <EXACT MASS>  (5644) 
126.11569844799999

>  <MW>  (5644) 
126

>  <ID>  (5644) 
JP000873

>  <CONTRIBUTOR>  (5644) 
University of Tokyo Team, {Faculty of Engineering, University of Tokyo

>  <COMMENT>  (5644) 
SMILES=CN(C)N=C(C)C(C)=C
InChI=InChI=1S/C7H14N2/c1-6(2)7(3)8-9(4)5/h1H2,2-5H3/b8-7-
computed SMILES=N(=C(C(=C)C)C)N(C)C
accession=JP000873
date=2016.01.19 (Created 2008.10.21, modified 2011.05.06)
author=SASAKI S, TOYOHASHI UNIV. OF TECH.
license=CC BY-NC-SA
exact mass=126.1157
ionization energy=70 eV
ion type=[M]+*
computed spectral entropy=2.7627572435347885
computed normalized entropy=0.7216025105062768
SPLASH=splash10-03fu-9600000000-3141612566cd46eb94a8
submitter=submitter = University of Tokyo Team (Faculty of Engineering, University of Tokyo)
MoNA Rating=3.75

>  <NUM PEAKS>  (5644) 
46

>  <MASS SPECTRAL PEAKS>  (5644) 
28 13.1
29 2.5
30 18
38 0.16
39 14.7
40 4.9
41 21.3
42 6.56
43 21.3
44 36.1
45 10.7
50 0.07
51 1.5
52 1.1
53 5.9
54 0.18
55 3.4
56 5.6
57 1.5
58 1.25
59 2.1
65 1
66 0.8
67 0.46
68 4.1
69 1.6
70 18
71 0.21
72 1.5
80 0.4
81 0.9
82 0.28
83 1.3
84 2.3
85 0.8
94 0.06
95 4.1
96 4.4
97 0.7
109 0.18
110 1
111 99.99
112 8.9
125 0.3
126 42.6
127 5.4

>  <PREDICTED SPECTRUM>  (5644) 
14 8
15 37
18 2
26 39
27 164
28 136
29 178
30 203
31 17
33 8
36 3
37 30
38 88
39 330
40 192
41 470
42 637
43 347
44 476
45 200
46 64
49 11
50 44
51 108
52 115
53 180
54 163
55 234
56 272
57 121
58 58
64 12
65 68
66 110
67 218
68 254
69 213
70 210
71 113
78 22
79 66
80 99
81 157
82 151
83 148
84 153
85 46
86 49
87 29
92 7
94 96
95 199
96 195
97 90
98 37
99 19
109 136
110 132
111 999
112 304
113 40
125 163
126 621
127 197

$$$$

     RDKit          2D

  9  8  0  0  0  0  0  0  0  0999 V2000
    2.2733    2.8125    0.0000 C   0  0  0  0  0  0  0  0  0  0  0  0
    0.9743    5.0625    0.0000 C   0  0  0  0  0  0  0  0  0  0  0  0
   -5.5209    2.8125    0.0000 C   0  0  0  0  0  0  0  0  0  0  0  0
   -4.2219    5.0625    0.0000 C   0  0  0  0  0  0  0  0  0  0  0  0
   -0.3248    2.8125    0.0000 C   0  0  0  0  0  0  0  0  0  0  0  0
   -1.6238    3.5625    0.0000 C   0  0  0  0  0  0  0  0  0  0  0  0
    0.9743    3.5625    0.0000 C   0  0  0  0  0  0  0  0  0  0  0  0
   -2.9228    2.8125    0.0000 N   0  0  0  0  0  0  0  0  0  0  0  0
   -4.2219    3.5625    0.0000 N   0  0  0  0  0  0  0  0  0  0  0  0
  6  5  1  0
  7  1  1  0
  7  2  1  0
  7  5  2  0
  6  8  2  0
  9  3  1  0
  9  4  1  0
  9  8  1  0
M  END
>  <NAME>  (5645) 
DIMETHYLHYDRAZONE BETA.BETA-DIMETHYLACRYLALDEHYDE

>  <SYNONYMS>  (5645) 
3-METHYL-2-BUTENAL DIMETHYLHYDRAZONE

>  <SPECTRUM TYPE>  (5645) 
MS1

>  <INSTRUMENT TYPE>  (5645) 
EI-B

>  <INSTRUMENT>  (5645) 
SHIMADZU LKB-2091

>  <ION MODE>  (5645) 
P

>  <INCHIKEY>  (5645) 
KZFYEQGUCXROPI-SOFGYWHQSA-N

>  <FORMULA>  (5645) 
C7H14N2

>  <EXACT MASS>  (5645) 
126.11569844799999

>  <MW>  (5645) 
126

>  <ID>  (5645) 
JP000872

>  <CONTRIBUTOR>  (5645) 
University of Tokyo Team, {Faculty of Engineering, University of Tokyo

>  <COMMENT>  (5645) 
SMILES=CC(C)=CC=NN(C)C
InChI=InChI=1S/C7H14N2/c1-7(2)5-6-8-9(3)4/h5-6H,1-4H3/b8-6+
computed SMILES=N(=CC=C(C)C)N(C)C
accession=JP000872
date=2016.01.19 (Created 2008.10.21, modified 2011.05.06)
author=SASAKI S, TOYOHASHI UNIV. OF TECH.
license=CC BY-NC-SA
exact mass=126.1157
ionization energy=70 eV
ion type=[M]+*
computed spectral entropy=3.274375780654779
computed normalized entropy=0.8370032016967701
SPLASH=splash10-0036-9100000000-3b0ee1965f90cb8e9eef
submitter=submitter = University of Tokyo Team (Faculty of Engineering, University of Tokyo)
MoNA Rating=3.75

>  <NUM PEAKS>  (5645) 
50

>  <MASS SPECTRAL PEAKS>  (5645) 
26 9
27 24.5
28 67.8
29 2.2
30 23.7
38 3.6
39 30.5
40 0.68
41 35.6
42 74.6
43 63.6
44 8.3
45 23.7
46 16.9
51 5.2
52 0.32
53 20.3
54 6.3
55 39
56 1.86
57 5.4
58 27.1
59 15.2
63 0.68
65 4.4
66 3
67 30.5
68 2.2
69 3.9
70 12.7
71 6.4
80 2.37
81 22
82 57.6
83 54.2
84 5.68
85 3.7
94 7.4
95 6.9
96 2.54
97 5.4
98 6.4
108 3.6
109 0.34
110 2.7
111 20.3
112 1
125 0.27
126 99.99
127 8.5

>  <PREDICTED SPECTRUM>  (5645) 
14 33
15 112
16 17
18 2
25 3
26 79
27 295
28 291
29 294
30 292
31 42
33 11
36 31
37 39
38 110
39 433
40 266
41 536
42 977
43 601
44 752
45 250
46 98
50 61
51 110
52 177
53 285
54 323
55 356
56 366
57 232
58 36
63 12
65 115
66 152
67 509
68 471
69 335
70 193
71 84
72 32
77 33
78 9
79 125
80 144
81 311
82 515
83 394
84 190
94 117
95 251
96 111
97 192
98 21
99 4
109 221
110 170
111 999
112 280
113 6
125 216
126 930
127 279
128 4

$$$$

     RDKit          2D

  9  8  0  0  0  0  0  0  0  0999 V2000
   -6.4952    3.7500    0.0000 C   0  0  0  0  0  0  0  0  0  0  0  0
   -5.1962    0.0000    0.0000 C   0  0  0  0  0  0  0  0  0  0  0  0
    0.0000    1.5000    0.0000 C   0  0  0  0  0  0  0  0  0  0  0  0
   -1.2990    3.7500    0.0000 C   0  0  0  0  0  0  0  0  0  0  0  0
   -6.4952    2.2500    0.0000 C   0  0  0  0  0  0  0  0  0  0  0  0
   -3.8971    2.2500    0.0000 C   0  0  0  0  0  0  0  0  0  0  0  0
   -5.1962    1.5000    0.0000 C   0  0  0  0  0  0  0  0  0  0  0  0
   -2.5981    1.5000    0.0000 N   0  0  0  0  0  0  0  0  0  0  0  0
   -1.2990    2.2500    0.0000 N   0  0  0  0  0  0  0  0  0  0  0  0
  5  1  1  0
  7  2  1  0
  5  7  2  0
  7  6  1  0
  6  8  2  0
  9  3  1  0
  9  4  1  0
  9  8  1  0
M  END
>  <NAME>  (5646) 
DIMETHYLHYDRAZONE TIGLYLALDEHYDE

>  <SYNONYMS>  (5646) 
2-METHYL-2-BUTENAL DIMETHYLHYDRAZONE

>  <SPECTRUM TYPE>  (5646) 
MS1

>  <INSTRUMENT TYPE>  (5646) 
EI-B

>  <INSTRUMENT>  (5646) 
SHIMADZU LKB-2091

>  <ION MODE>  (5646) 
P

>  <INCHIKEY>  (5646) 
OQGHKNMZJCKZBC-CGXWXWIYSA-N

>  <FORMULA>  (5646) 
C7H14N2

>  <EXACT MASS>  (5646) 
126.115698448

>  <MW>  (5646) 
126

>  <ID>  (5646) 
JP000871

>  <CONTRIBUTOR>  (5646) 
University of Tokyo Team, {Faculty of Engineering, University of Tokyo

>  <COMMENT>  (5646) 
SMILES=CC=C(C)C=NN(C)C
InChI=InChI=1S/C7H14N2/c1-5-7(2)6-8-9(3)4/h5-6H,1-4H3/b7-5-,8-6+
computed SMILES=N(=CC(=CC)C)N(C)C
accession=JP000871
date=2016.01.19 (Created 2008.10.21, modified 2011.05.06)
author=SASAKI S, TOYOHASHI UNIV. OF TECH.
license=CC BY-NC-SA
exact mass=126.1157
ionization energy=70 eV
ion type=[M]+*
computed spectral entropy=3.1808141524303086
computed normalized entropy=0.7973995672331542
SPLASH=splash10-002f-9100000000-ba0e6e30518b3ff9ee91
submitter=submitter = University of Tokyo Team (Faculty of Engineering, University of Tokyo)
MoNA Rating=3.75

>  <NUM PEAKS>  (5646) 
54

>  <MASS SPECTRAL PEAKS>  (5646) 
26 1.3
28 32.5
29 27
30 2.98
31 1.1
37 1.1
38 0.3
39 2.7
40 6.5
41 29.8
42 76
43 5.15
44 99.99
45 30
46 17.6
49 0.1
50 2.4
51 3.5
52 3.8
53 2.22
54 11.6
55 40.6
56 21.4
57 0.57
58 11.1
59 8.1
63 6.2
65 0.46
66 2.2
67 27
68 9
69 0.32
70 21.4
71 5.4
72 4.6
80 0.13
81 25.7
82 93
83 22.7
84 1.08
85 1.1
94 4.6
95 6.8
96 1.02
97 4.6
98 3.5
108 0.7
109 0.32
110 24.3
111 46
112 3.8
125 0.3
126 67.6
127 6.6

>  <PREDICTED SPECTRUM>  (5646) 
14 23
15 116
16 6
17 12
18 37
25 2
26 72
27 204
28 262
29 223
30 303
31 22
32 5
36 37
37 31
38 91
39 367
40 235
41 544
42 975
43 650
44 999
45 507
46 267
50 73
51 118
52 177
53 326
54 355
55 480
56 475
57 336
58 218
59 116
63 38
64 2
65 86
66 159
67 381
68 474
69 297
70 274
71 280
72 140
78 7
79 61
80 249
81 472
82 972
83 491
84 249
85 13
86 27
92 7
93 6
94 122
95 344
96 317
97 245
98 103
99 56
108 5
109 275
110 346
111 617
112 148
113 6
124 71
125 213
126 891
127 241
128 1

$$$$

     RDKit          2D

  8  7  0  0  0  0  0  0  0  0999 V2000
    1.9486    3.3750    0.0000 C   0  0  0  0  0  0  0  0  0  0  0  0
   -5.8457    3.3750    0.0000 C   0  0  0  0  0  0  0  0  0  0  0  0
   -4.5466    5.6250    0.0000 C   0  0  0  0  0  0  0  0  0  0  0  0
    0.6495    4.1250    0.0000 C   0  0  0  0  0  0  0  0  0  0  0  0
   -0.6495    3.3750    0.0000 C   0  0  0  0  0  0  0  0  0  0  0  0
   -1.9486    4.1250    0.0000 C   0  0  0  0  0  0  0  0  0  0  0  0
   -3.2476    3.3750    0.0000 N   0  0  0  0  0  0  0  0  0  0  0  0
   -4.5466    4.1250    0.0000 N   0  0  0  0  0  0  0  0  0  0  0  0
  4  1  1  0
  4  5  2  0
  6  5  1  0
  6  7  2  0
  8  2  1  0
  8  3  1  0
  8  7  1  0
M  END
>  <NAME>  (5647) 
DIMETHYLHYDRAZONE BETA-METHYLACRYLALDEHYDE

>  <SYNONYMS>  (5647) 
2-BUTENAL DIMETHYLHYDRAZONE

>  <SPECTRUM TYPE>  (5647) 
MS1

>  <INSTRUMENT TYPE>  (5647) 
EI-B

>  <INSTRUMENT>  (5647) 
SHIMADZU LKB-2091

>  <ION MODE>  (5647) 
P

>  <INCHIKEY>  (5647) 
KVKJBRFOURXWON-YTXTXJHMSA-N

>  <FORMULA>  (5647) 
C6H12N2

>  <EXACT MASS>  (5647) 
112.10004838399999

>  <MW>  (5647) 
112

>  <ID>  (5647) 
JP000870

>  <CONTRIBUTOR>  (5647) 
University of Tokyo Team, {Faculty of Engineering, University of Tokyo

>  <COMMENT>  (5647) 
SMILES=CC=CC=NN(C)C
InChI=InChI=1S/C6H12N2/c1-4-5-6-7-8(2)3/h4-6H,1-3H3/b5-4+,7-6+
computed SMILES=N(=CC=CC)N(C)C
accession=JP000870
date=2016.01.19 (Created 2008.10.21, modified 2011.05.06)
author=SASAKI S, TOYOHASHI UNIV. OF TECH.
license=CC BY-NC-SA
exact mass=112.10005
ionization energy=70 eV
ion type=[M]+*
computed spectral entropy=3.0035569635281174
computed normalized entropy=0.803590811995734
SPLASH=splash10-0296-9100000000-1e311aa008df93b3b319
submitter=submitter = University of Tokyo Team (Faculty of Engineering, University of Tokyo)
MoNA Rating=3.75

>  <NUM PEAKS>  (5647) 
42

>  <MASS SPECTRAL PEAKS>  (5647) 
28 47.7
29 8.7
30 21.3
37 0.21
38 5.2
39 34.8
40 6.1
41 5.11
42 78.1
43 47.7
44 74
45 2.83
46 11.7
50 1.9
51 3.9
52 0.27
53 14.8
54 9.6
55 6.5
56 4.35
57 10
58 7.8
59 7.4
67 2.35
68 69.5
69 31.3
70 36.1
71 0.48
80 4.3
81 4.6
82 13
83 0.76
84 9.3
85 1.2
94 1.7
95 0.41
96 4.3
97 30
98 2
111 0.65
112 99.99
113 10

>  <PREDICTED SPECTRUM>  (5647) 
15 4
26 1
27 107
28 97
29 119
30 149
37 8
38 67
39 327
40 215
41 599
42 900
43 651
44 999
45 370
46 115
49 13
50 40
51 107
52 188
53 250
54 327
55 374
56 239
57 237
65 30
66 146
67 285
68 519
69 365
70 260
71 175
72 122
80 91
81 162
82 104
83 123
84 1
85 50
95 176
96 116
97 711
98 173
111 184
112 915
113 207
114 14

$$$$

     RDKit          2D

 11 10  0  0  0  0  0  0  0  0999 V2000
   -8.4437    3.3750    0.0000 C   0  0  0  0  0  0  0  0  0  0  0  0
    0.6495    2.6250    0.0000 C   0  0  0  0  0  0  0  0  0  0  0  0
   -1.9486    7.1250    0.0000 C   0  0  0  0  0  0  0  0  0  0  0  0
   -7.1447    2.6250    0.0000 C   0  0  0  0  0  0  0  0  0  0  0  0
   -0.6495    3.3750    0.0000 C   0  0  0  0  0  0  0  0  0  0  0  0
   -1.9486    5.6250    0.0000 C   0  0  0  0  0  0  0  0  0  0  0  0
   -5.8457    3.3750    0.0000 C   0  0  0  0  0  0  0  0  0  0  0  0
   -1.9486    2.6250    0.0000 C   0  0  0  0  0  0  0  0  0  0  0  0
   -3.2476    4.8750    0.0000 C   0  0  0  0  0  0  0  0  0  0  0  0
   -4.5466    2.6250    0.0000 N   0  0  0  0  0  0  0  0  0  0  0  0
   -3.2476    3.3750    0.0000 N   0  0  0  0  0  0  0  0  0  0  0  0
  4  1  2  0
  5  2  2  0
  6  3  2  0
  7  4  1  0
  8  5  1  0
  9  6  1  0
  7 10  2  0
 11  8  1  0
 11  9  1  0
 11 10  1  0
M  END
>  <NAME>  (5648) 
DIALLYLHYDRAZONE ACRYLALDEHYDE

>  <SYNONYMS>  (5648) 
ACRYLALDEHYDE DIALLYLHYDRAZONE

>  <SPECTRUM TYPE>  (5648) 
MS1

>  <INSTRUMENT TYPE>  (5648) 
EI-B

>  <INSTRUMENT>  (5648) 
SHIMADZU LKB-2091

>  <ION MODE>  (5648) 
P

>  <INCHIKEY>  (5648) 
UBWAKKDBDWRUAI-JXMROGBWSA-N

>  <FORMULA>  (5648) 
C9H14N2

>  <EXACT MASS>  (5648) 
150.115698448

>  <MW>  (5648) 
150

>  <ID>  (5648) 
JP000869

>  <CONTRIBUTOR>  (5648) 
University of Tokyo Team, {Faculty of Engineering, University of Tokyo

>  <COMMENT>  (5648) 
SMILES=C=CC=NN(CC=C)CC=C
InChI=InChI=1S/C9H14N2/c1-4-7-10-11(8-5-2)9-6-3/h4-7H,1-3,8-9H2/b10-7+
computed SMILES=N(=CC=C)N(CC=C)CC=C
accession=JP000869
date=2016.01.19 (Created 2008.10.21, modified 2011.05.06)
author=SASAKI S, TOYOHASHI UNIV. OF TECH.
license=CC BY-NC-SA
exact mass=150.1157
ionization energy=70 eV
ion type=[M]+*
computed spectral entropy=2.2630678193120506
computed normalized entropy=0.6590204577222208
SPLASH=splash10-0006-9100000000-52853bb32d9b4121556a
submitter=submitter = University of Tokyo Team (Faculty of Engineering, University of Tokyo)
MoNA Rating=3.75

>  <NUM PEAKS>  (5648) 
31

>  <MASS SPECTRAL PEAKS>  (5648) 
29 4
38 1.8
39 31.5
40 1.4
41 99.99
42 6.2
52 0.9
53 1.65
54 7.5
55 8.8
56 2.3
65 0.18
66 2.2
67 2.9
68 5.5
69 0.45
77 2
79 7.8
80 2.1
81 2.48
82 2.7
94 1.8
95 0.9
107 0.07
109 12.2
110 0.9
123 3.3
124 0.03
149 0.9
150 22
151 2.2

>  <PREDICTED SPECTRUM>  (5648) 
14 2
25 12
26 117
27 338
28 223
29 218
30 24
34 3
36 27
37 69
38 103
39 607
40 258
41 999
42 297
43 149
44 20
45 6
49 20
50 80
51 132
52 163
53 276
54 437
55 344
56 425
57 51
63 37
64 39
65 136
66 190
67 329
68 368
69 220
70 176
71 111
77 16
78 45
79 109
80 247
81 411
82 283
83 200
91 61
92 54
93 104
94 223
95 199
96 291
105 60
106 110
107 125
108 384
109 617
110 267
111 131
117 84
120 7
121 193
122 187
123 373
124 122
125 3
133 46
135 206
136 79
148 1
149 124
150 262
151 108
152 30

$$$$

     RDKit          2D

 11 10  0  0  0  0  0  0  0  0999 V2000
   -8.4437    3.3750    0.0000 C   0  0  0  0  0  0  0  0  0  0  0  0
    0.6495    2.6250    0.0000 C   0  0  0  0  0  0  0  0  0  0  0  0
   -1.9486    7.1250    0.0000 C   0  0  0  0  0  0  0  0  0  0  0  0
   -7.1447    2.6250    0.0000 C   0  0  0  0  0  0  0  0  0  0  0  0
   -0.6495    3.3750    0.0000 C   0  0  0  0  0  0  0  0  0  0  0  0
   -1.9486    5.6250    0.0000 C   0  0  0  0  0  0  0  0  0  0  0  0
   -5.8457    3.3750    0.0000 C   0  0  0  0  0  0  0  0  0  0  0  0
   -1.9486    2.6250    0.0000 C   0  0  0  0  0  0  0  0  0  0  0  0
   -3.2476    4.8750    0.0000 C   0  0  0  0  0  0  0  0  0  0  0  0
   -4.5466    2.6250    0.0000 N   0  0  0  0  0  0  0  0  0  0  0  0
   -3.2476    3.3750    0.0000 N   0  0  0  0  0  0  0  0  0  0  0  0
  4  1  1  0
  5  2  2  0
  6  3  2  0
  7  4  1  0
  8  5  1  0
  9  6  1  0
  7 10  2  0
 11  8  1  0
 11  9  1  0
 11 10  1  0
M  END
>  <NAME>  (5649) 
DIALLYLHYDRAZONE PROPIONALDEHYDE

>  <SYNONYMS>  (5649) 
PROPIONALDEHYDE DIALLYLHYDRAZONE

>  <SPECTRUM TYPE>  (5649) 
MS1

>  <INSTRUMENT TYPE>  (5649) 
EI-B

>  <INSTRUMENT>  (5649) 
SHIMADZU LKB-2091

>  <ION MODE>  (5649) 
P

>  <INCHIKEY>  (5649) 
QOVUMEUQTMXUOS-JXMROGBWSA-N

>  <FORMULA>  (5649) 
C9H16N2

>  <EXACT MASS>  (5649) 
152.131348512

>  <MW>  (5649) 
152

>  <ID>  (5649) 
JP000868

>  <CONTRIBUTOR>  (5649) 
University of Tokyo Team, {Faculty of Engineering, University of Tokyo

>  <COMMENT>  (5649) 
SMILES=CCC=NN(CC=C)CC=C
InChI=InChI=1S/C9H16N2/c1-4-7-10-11(8-5-2)9-6-3/h5-7H,2-4,8-9H2,1H3/b10-7+
computed SMILES=N(=CCC)N(CC=C)CC=C
accession=JP000868
date=2016.01.19 (Created 2008.10.21, modified 2011.05.06)
author=SASAKI S, TOYOHASHI UNIV. OF TECH.
license=CC BY-NC-SA
exact mass=152.13135
ionization energy=70 eV
ion type=[M]+*
computed spectral entropy=2.5169978934480106
computed normalized entropy=0.6870357691693497
SPLASH=splash10-0006-9100000000-ac4ee319bf01d9e5b2dd
submitter=submitter = University of Tokyo Team (Faculty of Engineering, University of Tokyo)
MoNA Rating=3.75

>  <NUM PEAKS>  (5649) 
39

>  <MASS SPECTRAL PEAKS>  (5649) 
28 11.8
29 10.2
30 2.6
38 0.12
39 21.4
40 4.6
41 99.99
42 0.9
43 6.9
53 2.4
54 5.6
55 5.62
56 9.6
57 0.8
58 0.8
67 0.33
68 4.7
69 4
70 3
73 0.14
81 2.2
82 2.2
83 9
84 0.14
94 1.5
95 1.1
96 2.1
97 0.1
109 1.1
110 0.7
111 2
123 0.32
124 2.7
125 9.6
126 1
137 0.1
151 1.4
152 16.9
153 2.7

>  <PREDICTED SPECTRUM>  (5649) 
15 2
26 40
27 221
28 145
29 193
30 69
37 5
38 28
39 488
40 186
41 999
42 331
43 317
44 61
49 3
51 6
52 48
53 179
54 260
55 328
56 460
57 163
63 11
65 57
67 142
68 227
69 184
70 504
71 323
77 7
80 112
81 196
82 242
83 398
84 166
85 92
94 91
95 142
96 282
97 60
98 1
108 149
109 106
110 132
111 550
112 179
113 20
122 61
123 260
124 129
125 261
126 21
137 194
138 16
151 83
152 377
153 137

$$$$

     RDKit          2D

 10  9  0  0  0  0  0  0  0  0999 V2000
   -7.7942    3.7500    0.0000 C   0  0  0  0  0  0  0  0  0  0  0  0
    0.0000    6.7500    0.0000 C   0  0  0  0  0  0  0  0  0  0  0  0
   -0.0000    3.7500    0.0000 C   0  0  0  0  0  0  0  0  0  0  0  0
   -3.8971    6.0000    0.0000 C   0  0  0  0  0  0  0  0  0  0  0  0
   -6.4952    4.5000    0.0000 C   0  0  0  0  0  0  0  0  0  0  0  0
   -1.2990    6.0000    0.0000 C   0  0  0  0  0  0  0  0  0  0  0  0
   -5.1962    3.7500    0.0000 C   0  0  0  0  0  0  0  0  0  0  0  0
   -1.2990    4.5000    0.0000 C   0  0  0  0  0  0  0  0  0  0  0  0
   -2.5981    3.7500    0.0000 N   0  0  0  0  0  0  0  0  0  0  0  0
   -3.8971    4.5000    0.0000 N   0  0  0  0  0  0  0  0  0  0  0  0
  5  1  2  0
  6  2  1  0
  7  5  1  0
  8  3  1  0
  8  6  1  0
  8  9  2  0
 10  4  1  0
 10  7  1  0
 10  9  1  0
M  END
>  <NAME>  (5650) 
METHYLALLYLHYDRAZONE METHYLETHYLKETONE

>  <SYNONYMS>  (5650) 
2-BUTANONE ALLYLMETHYLHYDRAZONE

>  <SPECTRUM TYPE>  (5650) 
MS1

>  <INSTRUMENT TYPE>  (5650) 
EI-B

>  <INSTRUMENT>  (5650) 
SHIMADZU LKB-2091

>  <ION MODE>  (5650) 
P

>  <INCHIKEY>  (5650) 
CQUSZUHIHJRXMG-HJWRWDBZSA-N

>  <FORMULA>  (5650) 
C8H16N2

>  <EXACT MASS>  (5650) 
140.131348512

>  <MW>  (5650) 
140

>  <ID>  (5650) 
JP000867

>  <CONTRIBUTOR>  (5650) 
University of Tokyo Team, {Faculty of Engineering, University of Tokyo

>  <COMMENT>  (5650) 
SMILES=C=CCN(C)N=C(C)CC
InChI=InChI=1S/C8H16N2/c1-5-7-10(4)9-8(3)6-2/h5H,1,6-7H2,2-4H3/b9-8-
computed SMILES=N(=C(C)CC)N(C)CC=C
accession=JP000867
date=2016.01.19 (Created 2008.10.21, modified 2011.05.06)
author=SASAKI S, TOYOHASHI UNIV. OF TECH.
license=CC BY-NC-SA
exact mass=140.13135
ionization energy=70 eV
ion type=[M]+*
computed spectral entropy=2.879986704557176
computed normalized entropy=0.7755300429952566
SPLASH=splash10-0006-9000000000-234bde46d2f74e4c22ae
submitter=submitter = University of Tokyo Team (Faculty of Engineering, University of Tokyo)
MoNA Rating=3.75

>  <NUM PEAKS>  (5650) 
41

>  <MASS SPECTRAL PEAKS>  (5650) 
26 2
27 15
28 12.4
29 1.67
30 19
31 0.8
32 2.9
39 1.57
40 2.9
41 34.8
42 99.99
43 4.29
44 19.3
45 1.9
53 2.3
54 0.33
55 30
56 12.9
57 2.7
58 2.29
59 1.2
68 15.7
69 5.2
70 3.39
71 10.5
72 3.6
82 1.6
83 0.22
84 2
97 12.9
98 2.1
99 6.2
100 4.3
111 3.6
112 1.6
113 3.39
114 2.4
125 3.3
139 2.2
140 4.29
141 5.2

>  <PREDICTED SPECTRUM>  (5650) 
14 16
15 99
18 13
26 82
27 293
28 280
29 339
30 380
31 113
32 34
38 80
39 482
40 264
41 872
42 999
43 472
44 576
45 129
51 5
52 7
53 148
54 251
55 506
56 378
57 268
58 166
59 8
67 197
68 431
69 237
70 614
71 372
72 234
82 140
83 120
84 157
85 122
86 107
95 21
96 125
97 233
98 86
99 788
100 330
101 113
111 239
112 122
113 378
114 93
125 280
126 33
139 224
140 571
141 210
142 14

$$$$

     RDKit          2D

 10  9  0  0  0  0  0  0  0  0999 V2000
   -7.7942    3.7500    0.0000 C   0  0  0  0  0  0  0  0  0  0  0  0
    0.0000    6.7500    0.0000 C   0  0  0  0  0  0  0  0  0  0  0  0
   -5.1962    2.2500    0.0000 C   0  0  0  0  0  0  0  0  0  0  0  0
   -0.0000    3.7500    0.0000 C   0  0  0  0  0  0  0  0  0  0  0  0
   -6.4952    4.5000    0.0000 C   0  0  0  0  0  0  0  0  0  0  0  0
   -1.2990    6.0000    0.0000 C   0  0  0  0  0  0  0  0  0  0  0  0
   -5.1962    3.7500    0.0000 C   0  0  0  0  0  0  0  0  0  0  0  0
   -1.2990    4.5000    0.0000 C   0  0  0  0  0  0  0  0  0  0  0  0
   -3.8971    4.5000    0.0000 N   0  0  0  0  0  0  0  0  0  0  0  0
   -2.5981    3.7500    0.0000 N   0  0  0  0  0  0  0  0  0  0  0  0
  5  1  2  0
  6  2  1  0
  7  3  1  0
  7  5  1  0
  8  4  1  0
  8  6  1  0
  9  7  1  0
  8 10  2  0
 10  9  1  0
M  END
>  <NAME>  (5651) 
ISOCROTYLHYDRAZONE METHYLETHYLKETONE

>  <SYNONYMS>  (5651) 
2-BUTANONE (1-METHYL-2-PROPENYL)HYDRAZONE

>  <SPECTRUM TYPE>  (5651) 
MS1

>  <INSTRUMENT TYPE>  (5651) 
EI-B

>  <INSTRUMENT>  (5651) 
SHIMADZU LKB-2091

>  <ION MODE>  (5651) 
P

>  <INCHIKEY>  (5651) 
FZUFUZKXCVIZON-NTMALXAHSA-N

>  <FORMULA>  (5651) 
C8H16N2

>  <EXACT MASS>  (5651) 
140.131348512

>  <MW>  (5651) 
140

>  <ID>  (5651) 
JP000866

>  <CONTRIBUTOR>  (5651) 
University of Tokyo Team, {Faculty of Engineering, University of Tokyo

>  <COMMENT>  (5651) 
SMILES=CCC(C)=NNC(C)C=C
InChI=InChI=1S/C8H16N2/c1-5-7(3)9-10-8(4)6-2/h5,7,9H,1,6H2,2-4H3/b10-8-
computed SMILES=N(NC(C=C)C)=C(C)CC
accession=JP000866
date=2016.01.19 (Created 2008.10.21, modified 2011.05.06)
author=SASAKI S, TOYOHASHI UNIV. OF TECH.
license=CC BY-NC-SA
exact mass=140.13135
ionization energy=70 eV
ion type=[M]+*
computed spectral entropy=2.947604696055784
computed normalized entropy=0.7743278275856895
SPLASH=splash10-0006-9200000000-3f3480c74328a6255ad1
submitter=submitter = University of Tokyo Team (Faculty of Engineering, University of Tokyo)
MoNA Rating=3.75

>  <NUM PEAKS>  (5651) 
45

>  <MASS SPECTRAL PEAKS>  (5651) 
27 18.5
28 13
29 33.3
30 1.35
31 1
39 11.7
40 2.2
41 2.41
42 99.99
43 8.2
44 22.3
45 0.1
51 1.1
52 1
53 4.8
54 0.72
55 33.3
56 27.8
57 13.9
58 0.24
62.5 1.2
68 18.5
69 7.2
70 2.41
71 5
72 2.2
82 2.2
83 0.15
84 3.2
85 25.9
86 4.3
96 0.11
97 2.2
98 1.5
111 6.7
112 0.1
113 14.6
114 1.1
124 1.7
125 8.9
126 8.9
139 2
140 48.2
141 0.89
142 1.1

>  <PREDICTED SPECTRUM>  (5651) 
14 49
15 128
16 5
17 12
18 45
26 177
27 622
28 501
29 636
30 380
31 194
32 37
37 16
38 112
39 525
40 329
41 736
42 927
43 480
44 493
45 198
51 88
52 148
53 258
54 332
55 706
56 573
57 378
58 133
59 139
66 10
67 210
68 506
69 267
70 443
71 238
72 29
81 19
82 80
83 231
84 227
85 350
86 104
95 123
96 237
97 342
98 192
111 392
112 189
113 399
114 40
123 75
124 78
125 999
126 282
127 0
139 138
140 862
141 279
142 59

$$$$

     RDKit          2D

 10  9  0  0  0  0  0  0  0  0999 V2000
   -8.4437    5.6250    0.0000 C   0  0  0  0  0  0  0  0  0  0  0  0
    3.2476    4.8750    0.0000 C   0  0  0  0  0  0  0  0  0  0  0  0
   -7.1447    4.8750    0.0000 C   0  0  0  0  0  0  0  0  0  0  0  0
    1.9486    5.6250    0.0000 C   0  0  0  0  0  0  0  0  0  0  0  0
   -5.8457    5.6250    0.0000 C   0  0  0  0  0  0  0  0  0  0  0  0
    0.6495    4.8750    0.0000 C   0  0  0  0  0  0  0  0  0  0  0  0
   -4.5466    4.8750    0.0000 C   0  0  0  0  0  0  0  0  0  0  0  0
   -0.6495    5.6250    0.0000 C   0  0  0  0  0  0  0  0  0  0  0  0
   -3.2476    5.6250    0.0000 N   0  0  0  0  0  0  0  0  0  0  0  0
   -1.9486    4.8750    0.0000 N   0  0  0  0  0  0  0  0  0  0  0  0
  3  1  1  0
  4  2  1  0
  3  5  2  0
  6  4  1  0
  7  5  1  0
  8  6  1  0
  9  7  1  0
  8 10  2  0
 10  9  1  0
M  END
>  <NAME>  (5652) 
CROTYLHYDRAZONE BUTYRALDEHYDE

>  <SYNONYMS>  (5652) 
BUTYRALDEHYDE 2-BUTENYLHYDRAZONE

>  <SPECTRUM TYPE>  (5652) 
MS1

>  <INSTRUMENT TYPE>  (5652) 
EI-B

>  <INSTRUMENT>  (5652) 
SHIMADZU LKB-2091

>  <ION MODE>  (5652) 
P

>  <INCHIKEY>  (5652) 
NJOLUQSSLMAZEB-KWRXBJJZSA-N

>  <FORMULA>  (5652) 
C8H16N2

>  <EXACT MASS>  (5652) 
140.131348512

>  <MW>  (5652) 
140

>  <ID>  (5652) 
JP000865

>  <CONTRIBUTOR>  (5652) 
University of Tokyo Team, {Faculty of Engineering, University of Tokyo

>  <COMMENT>  (5652) 
SMILES=CCCC=NNCC=CC
InChI=InChI=1S/C8H16N2/c1-3-5-7-9-10-8-6-4-2/h3,5,8-9H,4,6-7H2,1-2H3/b5-3+,10-8+
computed SMILES=N(=CCCC)NCC=CC
accession=JP000865
date=2016.01.19 (Created 2008.10.21, modified 2011.05.06)
author=SASAKI S, TOYOHASHI UNIV. OF TECH.
license=CC BY-NC-SA
exact mass=140.13135
ionization energy=70 eV
ion type=[M]+*
computed spectral entropy=3.1488425104323907
computed normalized entropy=0.8271924602967311
SPLASH=splash10-0a6r-9000000000-53a5e46919eb226af54c
submitter=submitter = University of Tokyo Team (Faculty of Engineering, University of Tokyo)
MoNA Rating=3.75

>  <NUM PEAKS>  (5652) 
45

>  <MASS SPECTRAL PEAKS>  (5652) 
27 59
28 43.3
29 66.8
30 3.78
31 3.4
39 32.2
40 5.3
41 8.56
42 20
43 65.6
44 41.1
45 0.21
51 1.9
53 10
54 6.8
55 99.99
56 43.4
57 41.5
58 35.6
67 0.2
68 26.6
69 21.1
70 26.6
71 1.56
72 6.1
80 1.4
81 1.7
82 0.37
83 5.4
84 4.1
85 24.5
86 3.33
87 1.8
95 1.8
96 1.9
97 2.78
98 5.4
99 11.1
111 17.8
112 0.66
113 1.8
125 15.6
139 4.3
140 5.68
141 6.3

>  <PREDICTED SPECTRUM>  (5652) 
14 44
15 148
16 24
17 32
18 69
25 29
26 213
27 712
28 540
29 805
30 833
31 107
32 30
37 51
38 124
39 522
40 260
41 863
42 611
43 673
44 512
45 91
46 3
50 15
51 75
52 116
53 337
54 397
55 999
56 641
57 516
58 457
59 120
65 55
66 60
67 330
68 434
69 235
70 475
71 390
72 231
73 21
77 0
80 119
81 180
82 284
83 311
84 219
85 586
86 448
87 59
95 153
96 180
97 475
98 263
99 112
100 16
109 30
110 98
111 520
112 245
113 190
124 0
125 599
126 169
139 227
140 755
141 271
142 25

$$$$

     RDKit          2D

  9  8  0  0  0  0  0  0  0  0999 V2000
   -6.1704    3.9375    0.0000 C   0  0  0  0  0  0  0  0  0  0  0  0
    1.6238    2.4375    0.0000 C   0  0  0  0  0  0  0  0  0  0  0  0
    0.3248    4.6875    0.0000 C   0  0  0  0  0  0  0  0  0  0  0  0
   -2.2733    4.6875    0.0000 C   0  0  0  0  0  0  0  0  0  0  0  0
   -4.8714    3.1875    0.0000 C   0  0  0  0  0  0  0  0  0  0  0  0
   -3.5724    2.4375    0.0000 C   0  0  0  0  0  0  0  0  0  0  0  0
    0.3248    3.1875    0.0000 C   0  0  0  0  0  0  0  0  0  0  0  0
   -0.9743    2.4375    0.0000 N   0  0  0  0  0  0  0  0  0  0  0  0
   -2.2733    3.1875    0.0000 N   0  0  0  0  0  0  0  0  0  0  0  0
  5  1  3  0
  6  5  1  0
  7  2  1  0
  7  3  1  0
  8  7  2  0
  9  4  1  0
  9  6  1  0
  9  8  1  0
M  END
>  <NAME>  (5653) 
METHYLPROPARGYLHYDRAZONE ACETONE

>  <SYNONYMS>  (5653) 
ACETONE METHYL(2-PROPYNYL)HYDRAZONE

>  <SPECTRUM TYPE>  (5653) 
MS1

>  <INSTRUMENT TYPE>  (5653) 
EI-B

>  <INSTRUMENT>  (5653) 
SHIMADZU LKB-2091

>  <ION MODE>  (5653) 
P

>  <INCHIKEY>  (5653) 
DACHQBBVFBDBSA-UHFFFAOYSA-N

>  <FORMULA>  (5653) 
C7H12N2

>  <EXACT MASS>  (5653) 
124.10004838399999

>  <MW>  (5653) 
124

>  <ID>  (5653) 
JP000864

>  <CONTRIBUTOR>  (5653) 
University of Tokyo Team, {Faculty of Engineering, University of Tokyo

>  <COMMENT>  (5653) 
SMILES=C#CCN(C)N=C(C)C
InChI=InChI=1S/C7H12N2/c1-5-6-9(4)8-7(2)3/h1H,6H2,2-4H3
computed SMILES=C#CCN(N=C(C)C)C
accession=JP000864
date=2016.01.19 (Created 2008.10.21, modified 2011.05.06)
author=SASAKI S, TOYOHASHI UNIV. OF TECH.
license=CC BY-NC-SA
exact mass=124.10005
ionization energy=70 eV
ion type=[M]+*
computed spectral entropy=2.6455217611085726
computed normalized entropy=0.7272739792114135
SPLASH=splash10-05ac-9100000000-146f67eb33cdcdb3dd9f
submitter=submitter = University of Tokyo Team (Faculty of Engineering, University of Tokyo)
MoNA Rating=3.75

>  <NUM PEAKS>  (5653) 
38

>  <MASS SPECTRAL PEAKS>  (5653) 
26 3.1
27 12.5
28 15
29 0.88
37 3
38 8.1
39 48.8
40 1
41 40
42 65.6
43 18.8
44 3.75
45 2.5
51 1.2
52 3.4
53 0.62
54 4.9
55 3.8
56 98.8
57 0.49
65 1.6
66 8.8
67 3.6
68 1
69 2.4
70 2.4
79 8.8
80 0.19
81 88.8
82 8.8
85 99.99
86 0.58
94 1.2
99 0.8
109 9.4
123 1
124 83.8
125 7.8

>  <PREDICTED SPECTRUM>  (5653) 
14 29
15 103
25 18
26 101
27 276
28 245
29 197
30 230
36 20
37 48
38 128
39 485
40 290
41 556
42 999
43 607
44 141
50 43
51 134
52 226
53 317
54 399
55 256
56 381
57 290
58 63
63 22
64 14
65 150
66 203
67 383
68 496
69 259
70 72
79 198
80 214
81 395
82 299
83 160
84 111
85 316
92 66
93 88
94 211
95 135
96 44
97 32
107 198
108 132
109 806
110 214
122 7
123 323
124 608
125 163

$$$$

     RDKit          2D

  9  8  0  0  0  0  0  0  0  0999 V2000
    1.9486    3.3750    0.0000 C   0  0  0  0  0  0  0  0  0  0  0  0
   -5.8457    3.3750    0.0000 C   0  0  0  0  0  0  0  0  0  0  0  0
   -4.5466    5.6250    0.0000 C   0  0  0  0  0  0  0  0  0  0  0  0
   -1.9486    5.6250    0.0000 C   0  0  0  0  0  0  0  0  0  0  0  0
    0.6495    4.1250    0.0000 C   0  0  0  0  0  0  0  0  0  0  0  0
   -0.6495    3.3750    0.0000 C   0  0  0  0  0  0  0  0  0  0  0  0
   -4.5466    4.1250    0.0000 C   0  0  0  0  0  0  0  0  0  0  0  0
   -3.2476    3.3750    0.0000 N   0  0  0  0  0  0  0  0  0  0  0  0
   -1.9486    4.1250    0.0000 N   0  0  0  0  0  0  0  0  0  0  0  0
  5  1  2  0
  6  5  1  0
  7  2  1  0
  7  3  1  0
  8  7  2  0
  9  4  1  0
  9  6  1  0
  9  8  1  0
M  END
>  <NAME>  (5654) 
METHYLALLYLHYDRAZONE ACETONE

>  <SYNONYMS>  (5654) 
ACETONE ALLYLMETHYLHYDRAZONE

>  <SPECTRUM TYPE>  (5654) 
MS1

>  <INSTRUMENT TYPE>  (5654) 
EI-B

>  <INSTRUMENT>  (5654) 
SHIMADZU LKB-2091

>  <ION MODE>  (5654) 
P

>  <INCHIKEY>  (5654) 
NLCRTRDPCWXYKO-UHFFFAOYSA-N

>  <FORMULA>  (5654) 
C7H14N2

>  <EXACT MASS>  (5654) 
126.11569844799999

>  <MW>  (5654) 
126

>  <ID>  (5654) 
JP000863

>  <CONTRIBUTOR>  (5654) 
University of Tokyo Team, {Faculty of Engineering, University of Tokyo

>  <COMMENT>  (5654) 
SMILES=C=CCN(C)N=C(C)C
InChI=InChI=1S/C7H14N2/c1-5-6-9(4)8-7(2)3/h5H,1,6H2,2-4H3
computed SMILES=N(=C(C)C)N(C)CC=C
accession=JP000863
date=2016.01.19 (Created 2008.10.21, modified 2011.05.06)
author=SASAKI S, TOYOHASHI UNIV. OF TECH.
license=CC BY-NC-SA
exact mass=126.1157
ionization energy=70 eV
ion type=[M]+*
computed spectral entropy=2.5556448514476213
computed normalized entropy=0.7843981360354556
SPLASH=splash10-0a4l-9100000000-e06a818aab6c6c75ffa1
submitter=submitter = University of Tokyo Team (Faculty of Engineering, University of Tokyo)
MoNA Rating=3.75

>  <NUM PEAKS>  (5654) 
26

>  <MASS SPECTRAL PEAKS>  (5654) 
29 8.3
30 9.4
39 25.4
40 0.62
41 46.1
42 59.3
43 16.5
44 3.52
54 3.2
55 23
56 99.99
57 0.57
58 5.1
68 8.3
69 3.1
70 1.04
71 2.4
83 31
84 5
85 5.53
86 3.4
99 20.1
111 3.6
125 0.31
126 44.6
127 4.6

>  <PREDICTED SPECTRUM>  (5654) 
14 28
15 79
18 14
26 39
27 137
28 178
29 160
30 324
31 19
32 5
36 0
37 14
38 91
39 421
40 233
41 690
42 999
43 529
44 506
45 3
51 47
52 41
53 152
54 224
55 256
56 428
57 266
58 2
67 100
68 335
69 147
70 202
71 163
72 71
80 57
81 89
82 296
83 236
84 109
85 428
86 123
87 44
94 20
95 34
96 100
97 85
98 8
99 142
109 18
110 43
111 654
112 190
113 1
125 161
126 626
127 190
128 20

$$$$

     RDKit          2D

  9  8  0  0  0  0  0  0  0  0999 V2000
   -7.4695    3.9375    0.0000 C   0  0  0  0  0  0  0  0  0  0  0  0
    1.6238    3.1875    0.0000 C   0  0  0  0  0  0  0  0  0  0  0  0
    0.3248    5.4375    0.0000 C   0  0  0  0  0  0  0  0  0  0  0  0
   -6.1704    3.1875    0.0000 C   0  0  0  0  0  0  0  0  0  0  0  0
   -4.8714    3.9375    0.0000 C   0  0  0  0  0  0  0  0  0  0  0  0
   -0.9743    3.1875    0.0000 C   0  0  0  0  0  0  0  0  0  0  0  0
    0.3248    3.9375    0.0000 C   0  0  0  0  0  0  0  0  0  0  0  0
   -3.5724    3.1875    0.0000 N   0  0  0  0  0  0  0  0  0  0  0  0
   -2.2733    3.9375    0.0000 N   0  0  0  0  0  0  0  0  0  0  0  0
  4  1  2  0
  5  4  1  0
  7  2  1  0
  7  3  1  0
  7  6  1  0
  8  5  1  0
  6  9  2  0
  9  8  1  0
M  END
>  <NAME>  (5655) 
ALLYLHYDRAZONE ISOBUTYRALDEHYDE

>  <SYNONYMS>  (5655) 
ISOBUTYRALDEHYDE ALLYLHYDRAZONE

>  <SPECTRUM TYPE>  (5655) 
MS1

>  <INSTRUMENT TYPE>  (5655) 
EI-B

>  <INSTRUMENT>  (5655) 
SHIMADZU LKB-2091

>  <ION MODE>  (5655) 
P

>  <INCHIKEY>  (5655) 
WPPLATYTIDUBIO-RMKNXTFCSA-N

>  <FORMULA>  (5655) 
C7H14N2

>  <EXACT MASS>  (5655) 
126.115698448

>  <MW>  (5655) 
126

>  <ID>  (5655) 
JP000862

>  <CONTRIBUTOR>  (5655) 
University of Tokyo Team, {Faculty of Engineering, University of Tokyo

>  <COMMENT>  (5655) 
SMILES=C=CCNN=CC(C)C
InChI=InChI=1S/C7H14N2/c1-4-5-8-9-6-7(2)3/h4,6-8H,1,5H2,2-3H3/b9-6+
computed SMILES=N(=CC(C)C)NCC=C
accession=JP000862
date=2016.01.19 (Created 2008.10.21, modified 2011.05.06)
author=SASAKI S, TOYOHASHI UNIV. OF TECH.
license=CC BY-NC-SA
exact mass=126.1157
ionization energy=70 eV
ion type=[M]+*
computed spectral entropy=2.8298294580869383
computed normalized entropy=0.795935984085187
SPLASH=splash10-056u-9100000000-f1c4e8e4a4158c396f43
submitter=submitter = University of Tokyo Team (Faculty of Engineering, University of Tokyo)
MoNA Rating=3.75

>  <NUM PEAKS>  (5655) 
35

>  <MASS SPECTRAL PEAKS>  (5655) 
28 57.9
29 53.3
30 30.6
39 3.38
40 6.7
41 99.99
42 21.3
43 3.6
44 8.9
52 1.8
53 4
54 0.89
55 53.3
56 49
57 23.6
58 0.8
66 2.2
67 2.1
68 9.8
69 0.89
70 6.2
81 5.3
82 2.8
83 1.33
84 4.9
85 40
86 2.4
97 3.02
98 3.6
99 10.7
111 19.1
112 0.15
125 2.8
126 40
127 5.3

>  <PREDICTED SPECTRUM>  (5655) 
14 25
15 97
18 13
26 112
27 394
28 337
29 355
30 592
31 33
34 8
37 23
38 104
39 560
40 244
41 999
42 789
43 754
44 385
45 68
51 48
52 64
53 253
54 315
55 448
56 785
57 319
58 132
65 152
66 67
67 244
68 341
69 652
70 301
71 104
72 76
79 62
80 113
81 219
82 273
83 691
84 649
85 438
86 76
94 38
95 43
97 247
98 118
99 140
109 87
110 47
111 519
112 152
125 173
126 538
127 148

$$$$

     RDKit          2D

  8  7  0  0  0  0  0  0  0  0999 V2000
    1.9486    3.3750    0.0000 C   0  0  0  0  0  0  0  0  0  0  0  0
   -5.8457    3.3750    0.0000 C   0  0  0  0  0  0  0  0  0  0  0  0
   -0.6495    1.8750    0.0000 C   0  0  0  0  0  0  0  0  0  0  0  0
    0.6495    4.1250    0.0000 C   0  0  0  0  0  0  0  0  0  0  0  0
   -4.5466    4.1250    0.0000 C   0  0  0  0  0  0  0  0  0  0  0  0
   -0.6495    3.3750    0.0000 C   0  0  0  0  0  0  0  0  0  0  0  0
   -3.2476    3.3750    0.0000 N   0  0  0  0  0  0  0  0  0  0  0  0
   -1.9486    4.1250    0.0000 N   0  0  0  0  0  0  0  0  0  0  0  0
  4  1  2  0
  5  2  1  0
  6  3  1  0
  6  4  1  0
  5  7  2  0
  8  6  1  0
  8  7  1  0
M  END
>  <NAME>  (5656) 
ISOCROTYLHYDRAZONE ACETALDEHYDE

>  <SYNONYMS>  (5656) 
ACETALDEHYDE (1-METHYL-2-PROPENYL)HYDRAZONE

>  <SPECTRUM TYPE>  (5656) 
MS1

>  <INSTRUMENT TYPE>  (5656) 
EI-B

>  <INSTRUMENT>  (5656) 
SHIMADZU LKB-2091

>  <ION MODE>  (5656) 
P

>  <INCHIKEY>  (5656) 
GDILWUJKAMSFQD-FNORWQNLSA-N

>  <FORMULA>  (5656) 
C6H12N2

>  <EXACT MASS>  (5656) 
112.10004838399999

>  <MW>  (5656) 
112

>  <ID>  (5656) 
JP000861

>  <CONTRIBUTOR>  (5656) 
University of Tokyo Team, {Faculty of Engineering, University of Tokyo

>  <COMMENT>  (5656) 
SMILES=CC=NNC(C)C=C
InChI=InChI=1S/C6H12N2/c1-4-6(3)8-7-5-2/h4-6,8H,1H2,2-3H3/b7-5+
computed SMILES=N(=CC)NC(C=C)C
accession=JP000861
date=2016.01.19 (Created 2008.10.21, modified 2011.05.06)
author=SASAKI S, TOYOHASHI UNIV. OF TECH.
license=CC BY-NC-SA
exact mass=112.10005
ionization energy=70 eV
ion type=[M]+*
computed spectral entropy=2.9169242091473175
computed normalized entropy=0.7961990245827826
SPLASH=splash10-057m-9000000000-e330b001312955fbf0df
submitter=submitter = University of Tokyo Team (Faculty of Engineering, University of Tokyo)
MoNA Rating=3.75

>  <NUM PEAKS>  (5656) 
39

>  <MASS SPECTRAL PEAKS>  (5656) 
26 0.9
27 35.3
28 64.9
29 3.83
30 24.7
31 2.6
38 1.6
39 1.79
40 4.7
41 22.3
42 38.3
43 1.7
44 29.5
48.5 1.5
50 1.3
51 0.25
52 2.1
53 9.1
54 11.2
55 7.66
56 41.2
57 44.1
58 24.4
59 0.15
68 4.4
69 5.3
70 8.5
71 0.34
80 1.5
82 2.6
83 41.2
84 0.35
85 24.1
86 1.6
97 99.99
98 0.74
111 2.6
112 38.2
113 5.9

>  <PREDICTED SPECTRUM>  (5656) 
14 22
15 33
16 12
18 31
25 30
26 186
27 530
28 402
29 508
30 340
31 259
32 79
37 38
38 91
39 424
40 223
41 520
42 322
43 367
44 217
45 33
49 0
50 41
51 139
52 135
53 369
54 331
55 686
56 507
57 999
58 348
59 56
65 36
66 47
67 117
68 182
69 327
70 253
71 189
72 49
79 63
80 10
81 85
82 104
83 210
84 110
85 211
95 109
96 126
97 561
98 164
110 26
111 226
112 540
113 153

$$$$

     RDKit          2D

  8  7  0  0  0  0  0  0  0  0999 V2000
    1.9486    3.3750    0.0000 C   0  0  0  0  0  0  0  0  0  0  0  0
   -5.8457    3.3750    0.0000 C   0  0  0  0  0  0  0  0  0  0  0  0
   -4.5466    5.6250    0.0000 C   0  0  0  0  0  0  0  0  0  0  0  0
    0.6495    4.1250    0.0000 C   0  0  0  0  0  0  0  0  0  0  0  0
   -0.6495    3.3750    0.0000 C   0  0  0  0  0  0  0  0  0  0  0  0
   -4.5466    4.1250    0.0000 C   0  0  0  0  0  0  0  0  0  0  0  0
   -1.9486    4.1250    0.0000 N   0  0  0  0  0  0  0  0  0  0  0  0
   -3.2476    3.3750    0.0000 N   0  0  0  0  0  0  0  0  0  0  0  0
  4  1  2  0
  5  4  1  0
  6  2  1  0
  6  3  1  0
  7  5  1  0
  8  6  2  0
  8  7  1  0
M  END
>  <NAME>  (5657) 
ALLYLHYDRAZONE ACETONE

>  <SYNONYMS>  (5657) 
ACETONE ALLYLHYDRAZONE

>  <SPECTRUM TYPE>  (5657) 
MS1

>  <INSTRUMENT TYPE>  (5657) 
EI-B

>  <INSTRUMENT>  (5657) 
SHIMADZU LKB-2091

>  <ION MODE>  (5657) 
P

>  <INCHIKEY>  (5657) 
ODEDRFAFCSZTSO-UHFFFAOYSA-N

>  <FORMULA>  (5657) 
C6H12N2

>  <EXACT MASS>  (5657) 
112.10004838399999

>  <MW>  (5657) 
112

>  <ID>  (5657) 
JP000860

>  <CONTRIBUTOR>  (5657) 
University of Tokyo Team, {Faculty of Engineering, University of Tokyo

>  <COMMENT>  (5657) 
SMILES=C=CCNN=C(C)C
InChI=InChI=1S/C6H12N2/c1-4-5-7-8-6(2)3/h4,7H,1,5H2,2-3H3
computed SMILES=N(NCC=C)=C(C)C
accession=JP000860
date=2016.01.19 (Created 2008.10.21, modified 2011.05.06)
author=SASAKI S, TOYOHASHI UNIV. OF TECH.
license=CC BY-NC-SA
exact mass=112.10005
ionization energy=70 eV
ion type=[M]+*
computed spectral entropy=2.859657177894615
computed normalized entropy=0.8251226458382178
SPLASH=splash10-0bvr-9100000000-3d83fb711f76eeabbc89
submitter=submitter = University of Tokyo Team (Faculty of Engineering, University of Tokyo)
MoNA Rating=3.75

>  <NUM PEAKS>  (5657) 
32

>  <MASS SPECTRAL PEAKS>  (5657) 
27 22.7
28 60
29 20
30 5.34
31 5.3
39 36
40 8.7
41 5.07
42 46
43 12
44 8.7
54 1.14
55 13.4
56 99.99
57 1.14
58 6
68 6.7
69 8
70 13.4
71 8.67
72 6.7
80 1.7
81 1.5
82 0.19
83 37.4
84 6.7
85 30.7
96 0.25
97 13.4
111 10.7
112 80
113 9.3

>  <PREDICTED SPECTRUM>  (5657) 
14 13
15 48
16 7
25 2
26 68
27 224
28 234
29 168
30 258
37 38
38 89
39 387
40 204
41 578
42 615
43 229
44 126
49 2
50 60
51 108
52 101
53 193
54 266
55 363
56 462
57 251
58 96
65 79
66 81
67 278
68 263
69 317
70 325
71 175
72 74
78 46
79 66
80 195
81 160
82 272
83 273
84 150
85 145
86 18
93 19
95 165
96 81
97 999
98 267
111 170
112 375
113 83

$$$$

     RDKit          2D

  8  7  0  0  0  0  0  0  0  0999 V2000
   -6.4952    4.5000    0.0000 C   0  0  0  0  0  0  0  0  0  0  0  0
    2.5981    3.7500    0.0000 C   0  0  0  0  0  0  0  0  0  0  0  0
   -5.1962    3.7500    0.0000 C   0  0  0  0  0  0  0  0  0  0  0  0
    1.2990    4.5000    0.0000 C   0  0  0  0  0  0  0  0  0  0  0  0
   -3.8971    4.5000    0.0000 C   0  0  0  0  0  0  0  0  0  0  0  0
    0.0000    3.7500    0.0000 C   0  0  0  0  0  0  0  0  0  0  0  0
   -2.5981    3.7500    0.0000 N   0  0  0  0  0  0  0  0  0  0  0  0
   -1.2990    4.5000    0.0000 N   0  0  0  0  0  0  0  0  0  0  0  0
  3  1  2  0
  4  2  1  0
  5  3  1  0
  6  4  1  0
  7  5  1  0
  6  8  2  0
  8  7  1  0
M  END
>  <NAME>  (5658) 
ALLYLHYDRAZONE PROPIONALDEHYDE

>  <SYNONYMS>  (5658) 
PROPIONALDEHYDE ALLYLHYDRAZONE

>  <SPECTRUM TYPE>  (5658) 
MS1

>  <INSTRUMENT TYPE>  (5658) 
EI-B

>  <INSTRUMENT>  (5658) 
SHIMADZU LKB-2091

>  <ION MODE>  (5658) 
P

>  <INCHIKEY>  (5658) 
POQUCILEWSEAQS-SOFGYWHQSA-N

>  <FORMULA>  (5658) 
C6H12N2

>  <EXACT MASS>  (5658) 
112.10004838399999

>  <MW>  (5658) 
112

>  <ID>  (5658) 
JP000859

>  <CONTRIBUTOR>  (5658) 
University of Tokyo Team, {Faculty of Engineering, University of Tokyo

>  <COMMENT>  (5658) 
SMILES=CCC=NNCC=C
InChI=InChI=1S/C6H12N2/c1-3-5-7-8-6-4-2/h3,6-7H,1,4-5H2,2H3/b8-6+
computed SMILES=N(=CCC)NCC=C
accession=JP000859
date=2016.01.19 (Created 2008.10.21, modified 2011.05.06)
author=SASAKI S, TOYOHASHI UNIV. OF TECH.
license=CC BY-NC-SA
exact mass=112.10005
ionization energy=70 eV
ion type=[M]+*
computed spectral entropy=2.6083459689880617
computed normalized entropy=0.7827688729858053
SPLASH=splash10-00di-9000000000-0791746953d64017c639
submitter=submitter = University of Tokyo Team (Faculty of Engineering, University of Tokyo)
MoNA Rating=3.75

>  <NUM PEAKS>  (5658) 
28

>  <MASS SPECTRAL PEAKS>  (5658) 
26 2.3
27 15.1
28 20.8
29 1.42
30 17
31 1.7
39 10.2
40 0.25
41 26.5
42 7.8
43 4.3
44 0.46
54 5.1
55 14.5
56 15.3
57 0.25
58 1.2
69 16
70 20.8
71 99.99
72 9.4
83 20.8
84 2.5
85 0.76
97 1.5
111 1.9
112 15.1
113 2.5

>  <PREDICTED SPECTRUM>  (5658) 
14 59
15 156
16 5
17 13
18 71
25 28
26 215
27 645
28 604
29 750
30 902
31 148
32 27
37 55
38 166
39 685
40 351
41 985
42 859
43 503
44 421
45 22
51 105
52 80
53 194
54 463
55 732
56 848
57 649
58 477
65 48
66 95
67 423
68 517
69 610
70 451
71 619
72 236
80 16
81 100
82 244
83 626
84 362
85 351
86 20
95 21
96 37
97 999
98 247
111 404
112 778
113 212

$$$$

     RDKit          2D

  7  6  0  0  0  0  0  0  0  0999 V2000
    1.9486    3.3750    0.0000 C   0  0  0  0  0  0  0  0  0  0  0  0
   -5.8457    3.3750    0.0000 C   0  0  0  0  0  0  0  0  0  0  0  0
    0.6495    4.1250    0.0000 C   0  0  0  0  0  0  0  0  0  0  0  0
   -4.5466    4.1250    0.0000 C   0  0  0  0  0  0  0  0  0  0  0  0
   -0.6495    3.3750    0.0000 C   0  0  0  0  0  0  0  0  0  0  0  0
   -3.2476    3.3750    0.0000 N   0  0  0  0  0  0  0  0  0  0  0  0
   -1.9486    4.1250    0.0000 N   0  0  0  0  0  0  0  0  0  0  0  0
  3  1  2  0
  4  2  1  0
  5  3  1  0
  4  6  2  0
  7  5  1  0
  7  6  1  0
M  END
>  <NAME>  (5659) 
ALLYLHYDRAZONE ACETALDEHYDE

>  <SYNONYMS>  (5659) 
ACETALDEHYDE ALLYLHYDRAZONE

>  <SPECTRUM TYPE>  (5659) 
MS1

>  <INSTRUMENT TYPE>  (5659) 
EI-B

>  <INSTRUMENT>  (5659) 
SHIMADZU LKB-2091

>  <ION MODE>  (5659) 
P

>  <INCHIKEY>  (5659) 
KEZWDEMPHZSOJV-GQCTYLIASA-N

>  <FORMULA>  (5659) 
C5H10N2

>  <EXACT MASS>  (5659) 
98.08439831999999

>  <MW>  (5659) 
98

>  <ID>  (5659) 
JP000858

>  <CONTRIBUTOR>  (5659) 
University of Tokyo Team, {Faculty of Engineering, University of Tokyo

>  <COMMENT>  (5659) 
SMILES=C=CCNN=CC
InChI=InChI=1S/C5H10N2/c1-3-5-7-6-4-2/h3-4,7H,1,5H2,2H3/b6-4+
computed SMILES=N(=CC)NCC=C
accession=JP000858
date=2016.01.19 (Created 2008.10.21, modified 2011.05.06)
author=SASAKI S, TOYOHASHI UNIV. OF TECH.
license=CC BY-NC-SA
exact mass=98.0844
ionization energy=70 eV
ion type=[M]+*
computed spectral entropy=2.727065320008723
computed normalized entropy=0.7941396276744686
SPLASH=splash10-05r3-9000000000-e2bf71f45c1167c45192
submitter=submitter = University of Tokyo Team (Faculty of Engineering, University of Tokyo)
MoNA Rating=3.75

>  <NUM PEAKS>  (5659) 
31

>  <MASS SPECTRAL PEAKS>  (5659) 
27 29.2
28 79.1
29 26.3
30 7.3
31 2.5
38 3.3
39 26.6
40 0.71
41 45.9
42 33.4
43 7.9
44 1.46
52 2
53 1.7
54 10.5
55 0.92
56 37.5
57 70.9
58 4
67 0.11
68 17.5
69 99.99
70 9.6
71 3.3
72 1.5
82 1.1
83 17.1
84 0.09
97 7.9
98 56.1
99 6.3

>  <PREDICTED SPECTRUM>  (5659) 
14 51
15 167
16 2
18 28
25 22
26 201
27 577
28 511
29 532
30 520
31 84
36 4
37 64
38 167
39 552
40 277
41 999
42 606
43 318
44 219
50 35
51 82
52 65
53 245
54 407
55 396
56 747
57 564
58 198
65 5
66 50
67 182
68 345
69 787
70 378
71 325
72 65
81 90
82 107
83 670
84 174
97 403
98 502
99 114

$$$$

     RDKit          2D

 12 11  0  0  0  0  0  0  0  0999 V2000
   -4.5466    2.6250    0.0000 C   0  0  0  0  0  0  0  0  0  0  0  0
    5.8457    5.6250    0.0000 C   0  0  0  0  0  0  0  0  0  0  0  0
   -4.5466    5.6250    0.0000 C   0  0  0  0  0  0  0  0  0  0  0  0
   -0.6495    3.3750    0.0000 C   0  0  0  0  0  0  0  0  0  0  0  0
   -3.2476    3.3750    0.0000 C   0  0  0  0  0  0  0  0  0  0  0  0
    4.5466    4.8750    0.0000 C   0  0  0  0  0  0  0  0  0  0  0  0
    0.6495    5.6250    0.0000 C   0  0  0  0  0  0  0  0  0  0  0  0
    1.9486    4.8750    0.0000 C   0  0  0  0  0  0  0  0  0  0  0  0
   -3.2476    4.8750    0.0000 C   0  0  0  0  0  0  0  0  0  0  0  0
   -1.9486    5.6250    0.0000 N   0  0  0  0  0  0  0  0  0  0  0  0
   -0.6495    4.8750    0.0000 N   0  0  0  0  0  0  0  0  0  0  0  0
    3.2476    5.6250    0.0000 O   0  0  0  0  0  0  0  0  0  0  0  0
  5  1  1  0
  6  2  1  0
  8  7  1  0
  9  3  1  0
  9  5  1  0
  9 10  2  0
 11  4  1  0
 11  7  1  0
 11 10  1  0
 12  6  1  0
 12  8  1  0
M  END
>  <NAME>  (5660) 
METHYL(BETA-ETHOXYETHYL)HYDRAZONE METHYLETHYLKETONE

>  <SYNONYMS>  (5660) 
2-BUTANONE (2-ETHOXYETHYL)METHYLHYDRAZONE

>  <SPECTRUM TYPE>  (5660) 
MS1

>  <INSTRUMENT TYPE>  (5660) 
EI-B

>  <INSTRUMENT>  (5660) 
SHIMADZU LKB-2091

>  <ION MODE>  (5660) 
P

>  <INCHIKEY>  (5660) 
XKAMZPQHAMBEET-KTKRTIGZSA-N

>  <FORMULA>  (5660) 
C9H20N2O

>  <EXACT MASS>  (5660) 
172.15756326

>  <MW>  (5660) 
172

>  <ID>  (5660) 
JP000857

>  <CONTRIBUTOR>  (5660) 
University of Tokyo Team, {Faculty of Engineering, University of Tokyo

>  <COMMENT>  (5660) 
SMILES=CCOCCN(C)N=C(C)CC
InChI=InChI=1S/C9H20N2O/c1-5-9(3)10-11(4)7-8-12-6-2/h5-8H2,1-4H3/b10-9-
computed SMILES=N(=C(C)CC)N(C)CCOCC
accession=JP000857
date=2016.01.19 (Created 2008.10.21, modified 2011.05.06)
author=SASAKI S, TOYOHASHI UNIV. OF TECH.
license=CC BY-NC-SA
exact mass=172.15756
ionization energy=70 eV
ion type=[M]+*
computed spectral entropy=2.1165175907460356
computed normalized entropy=0.6285511275540461
SPLASH=splash10-03di-6900000000-55fe6347c9f614cdc248
submitter=submitter = University of Tokyo Team (Faculty of Engineering, University of Tokyo)
MoNA Rating=3.75

>  <NUM PEAKS>  (5660) 
29

>  <MASS SPECTRAL PEAKS>  (5660) 
27 6.5
28 3.8
29 10.4
30 0.43
31 4.9
39 1.5
41 4.2
42 9.66
43 7.8
44 9.1
45 4
54 0.09
55 1.7
56 2.7
57 1.1
58 0.17
59 1.5
68 0.7
70 13.6
71 0.15
72 1.9
86 0.8
97 0.7
99 0.07
100 4.1
113 99.99
114 6.1
172 0.91
173 1.4

>  <PREDICTED SPECTRUM>  (5660) 
14 3
15 71
16 5
18 2
26 24
27 172
28 213
29 256
30 220
31 142
32 41
38 11
39 170
40 75
41 300
42 487
43 211
44 334
45 167
46 15
54 92
55 210
56 243
57 102
58 35
59 60
68 84
69 92
70 350
71 116
72 133
83 6
85 68
100 164
113 999
114 304
115 13
172 213
173 47

$$$$

     RDKit          2D

 13 12  0  0  0  0  0  0  0  0999 V2000
   -0.0000   -0.0000    0.0000 C   0  0  0  0  0  0  0  0  0  0  0  0
    1.2990    2.2500    0.0000 C   0  0  0  0  0  0  0  0  0  0  0  0
   -5.1962    4.5000    0.0000 C   0  0  0  0  0  0  0  0  0  0  0  0
   -3.8971    2.2500    0.0000 C   0  0  0  0  0  0  0  0  0  0  0  0
    1.2990    6.7500    0.0000 C   0  0  0  0  0  0  0  0  0  0  0  0
   -1.2990    6.7500    0.0000 C   0  0  0  0  0  0  0  0  0  0  0  0
   -1.2990    2.2500    0.0000 C   0  0  0  0  0  0  0  0  0  0  0  0
   -2.5981    4.5000    0.0000 C   0  0  0  0  0  0  0  0  0  0  0  0
   -0.0000    1.5000    0.0000 C   0  0  0  0  0  0  0  0  0  0  0  0
   -3.8971    3.7500    0.0000 C   0  0  0  0  0  0  0  0  0  0  0  0
    0.0000    6.0000    0.0000 C   0  0  0  0  0  0  0  0  0  0  0  0
    0.0000    4.5000    0.0000 N   0  0  0  0  0  0  0  0  0  0  0  0
   -1.2990    3.7500    0.0000 N   0  0  0  0  0  0  0  0  0  0  0  0
  9  1  1  0
  9  2  1  0
  9  7  1  0
 10  3  1  0
 10  4  1  0
 10  8  1  0
 11  5  1  0
 11  6  1  0
 12 11  2  0
 13  7  1  0
 13  8  1  0
 13 12  1  0
M  END
>  <NAME>  (5661) 
DIISOBUTYLHYDRAZONE ACETONE

>  <SYNONYMS>  (5661) 
ACETONE DIISOBUTYLHYDRAZONE

>  <SPECTRUM TYPE>  (5661) 
MS1

>  <INSTRUMENT TYPE>  (5661) 
EI-B

>  <INSTRUMENT>  (5661) 
SHIMADZU LKB-2091

>  <ION MODE>  (5661) 
P

>  <INCHIKEY>  (5661) 
PTVAXZOEUGRZMV-UHFFFAOYSA-N

>  <FORMULA>  (5661) 
C11H24N2

>  <EXACT MASS>  (5661) 
184.19394876799998

>  <MW>  (5661) 
184

>  <ID>  (5661) 
JP000856

>  <CONTRIBUTOR>  (5661) 
University of Tokyo Team, {Faculty of Engineering, University of Tokyo

>  <COMMENT>  (5661) 
SMILES=CC(C)CN(CC(C)C)N=C(C)C
InChI=InChI=1S/C11H24N2/c1-9(2)7-13(8-10(3)4)12-11(5)6/h9-10H,7-8H2,1-6H3
computed SMILES=N(=C(C)C)N(CC(C)C)CC(C)C
accession=JP000856
date=2016.01.19 (Created 2008.10.21, modified 2011.05.06)
author=SASAKI S, TOYOHASHI UNIV. OF TECH.
license=CC BY-NC-SA
exact mass=184.19395
ionization energy=70 eV
ion type=[M]+*
computed spectral entropy=2.269808469789527
computed normalized entropy=0.6549282846266234
SPLASH=splash10-000f-9500000000-4415d230c867a0ad770a
submitter=submitter = University of Tokyo Team (Faculty of Engineering, University of Tokyo)
MoNA Rating=3.75

>  <NUM PEAKS>  (5661) 
32

>  <MASS SPECTRAL PEAKS>  (5661) 
28 4.5
29 15.5
30 6.3
39 0.47
40 1.2
41 16.5
42 12.6
43 0.63
44 2.7
53 0.5
54 0.7
55 0.38
56 19.4
57 20.4
58 5.2
68 0.1
69 0.8
70 2.4
71 0.9
72 0.05
83 1.1
84 3.1
85 83.6
86 0.54
99 3
113 0.7
127 0.8
141 99.99
142 9.7
169 0.6
184 12.6
185 2.4

>  <PREDICTED SPECTRUM>  (5661) 
27 80
29 147
30 244
39 202
40 98
41 434
42 393
43 396
44 63
51 16
52 39
53 114
54 95
55 206
56 302
57 488
58 6
66 6
67 129
68 48
69 11
70 130
71 43
72 99
73 56
74 1
84 147
85 450
86 146
97 98
99 196
100 63
111 41
125 47
127 163
128 79
139 20
140 21
141 999
142 221
153 1
154 25
169 54
184 210
185 51

$$$$

     RDKit          2D

 13 12  0  0  0  0  0  0  0  0999 V2000
    2.5981    4.5000    0.0000 C   0  0  0  0  0  0  0  0  0  0  0  0
   -7.7942    4.5000    0.0000 C   0  0  0  0  0  0  0  0  0  0  0  0
   -1.2990    0.7500    0.0000 C   0  0  0  0  0  0  0  0  0  0  0  0
    0.0000    3.0000    0.0000 C   0  0  0  0  0  0  0  0  0  0  0  0
    1.2990    5.2500    0.0000 C   0  0  0  0  0  0  0  0  0  0  0  0
   -6.4952    5.2500    0.0000 C   0  0  0  0  0  0  0  0  0  0  0  0
    0.0000    4.5000    0.0000 C   0  0  0  0  0  0  0  0  0  0  0  0
   -5.1962    4.5000    0.0000 C   0  0  0  0  0  0  0  0  0  0  0  0
   -1.2990    5.2500    0.0000 C   0  0  0  0  0  0  0  0  0  0  0  0
   -3.8971    5.2500    0.0000 C   0  0  0  0  0  0  0  0  0  0  0  0
   -1.2990    2.2500    0.0000 C   0  0  0  0  0  0  0  0  0  0  0  0
   -2.5981    3.0000    0.0000 N   0  0  0  0  0  0  0  0  0  0  0  0
   -2.5981    4.5000    0.0000 N   0  0  0  0  0  0  0  0  0  0  0  0
  5  1  1  0
  6  2  1  0
  7  5  1  0
  8  6  1  0
  9  7  1  0
 10  8  1  0
 11  3  1  0
 11  4  1  0
 12 11  2  0
 13  9  1  0
 13 10  1  0
 13 12  1  0
M  END
>  <NAME>  (5662) 
DI-N-BUTYLHYDRAZONE ACETONE

>  <SYNONYMS>  (5662) 
ACETONE DIBUTYLHYDRAZONE

>  <SPECTRUM TYPE>  (5662) 
MS1

>  <INSTRUMENT TYPE>  (5662) 
EI-B

>  <INSTRUMENT>  (5662) 
SHIMADZU LKB-2091

>  <ION MODE>  (5662) 
P

>  <INCHIKEY>  (5662) 
SKQMJBSBCUKOPF-UHFFFAOYSA-N

>  <FORMULA>  (5662) 
C11H24N2

>  <EXACT MASS>  (5662) 
184.19394876799998

>  <MW>  (5662) 
184

>  <ID>  (5662) 
JP000855

>  <CONTRIBUTOR>  (5662) 
University of Tokyo Team, {Faculty of Engineering, University of Tokyo

>  <COMMENT>  (5662) 
SMILES=CCCCN(CCCC)N=C(C)C
InChI=InChI=1S/C11H24N2/c1-5-7-9-13(10-8-6-2)12-11(3)4/h5-10H2,1-4H3
computed SMILES=N(=C(C)C)N(CCCC)CCCC
accession=JP000855
date=2016.01.19 (Created 2008.10.21, modified 2011.05.06)
author=SASAKI S, TOYOHASHI UNIV. OF TECH.
license=CC BY-NC-SA
exact mass=184.19395
ionization energy=70 eV
ion type=[M]+*
computed spectral entropy=2.651747271344311
computed normalized entropy=0.7399841655327668
SPLASH=splash10-0006-9600000000-e708c77921cff8708de7
submitter=submitter = University of Tokyo Team (Faculty of Engineering, University of Tokyo)
MoNA Rating=3.75

>  <NUM PEAKS>  (5662) 
36

>  <MASS SPECTRAL PEAKS>  (5662) 
27 10.8
28 10.5
29 31
30 1.2
39 6.8
40 2
41 25.6
42 2.03
43 10.8
44 5.7
53 0.8
54 0.16
55 5
56 36.8
57 16.2
58 0.93
68 1.1
69 1.2
70 4.9
71 0.26
72 1.2
83 1.9
84 5.7
85 4.32
86 4.5
97 1.1
98 1.1
99 4.45
100 3.5
111 1.2
127 1.2
141 99.99
142 11.1
169 0.8
184 12.8
185 2.2

>  <PREDICTED SPECTRUM>  (5662) 
15 12
26 40
27 222
28 146
29 297
30 276
38 50
39 298
40 149
41 569
42 535
43 385
44 421
51 3
52 38
53 123
54 186
55 383
56 377
57 519
58 255
59 50
67 152
68 112
69 141
70 315
71 107
72 43
82 135
83 169
84 514
85 252
86 319
87 30
96 30
97 85
98 54
99 641
100 289
101 60
111 8
125 105
127 257
128 74
139 101
140 51
141 999
142 351
143 1
155 12
169 136
170 32
183 129
184 359
185 127

$$$$

     RDKit          2D

 11 10  0  0  0  0  0  0  0  0999 V2000
    0.0000    0.0000    0.0000 C   0  0  0  0  0  0  0  0  0  0  0  0
    1.2990    2.2500    0.0000 C   0  0  0  0  0  0  0  0  0  0  0  0
   -2.5981    6.0000    0.0000 C   0  0  0  0  0  0  0  0  0  0  0  0
   -3.8971    3.7500    0.0000 C   0  0  0  0  0  0  0  0  0  0  0  0
    0.0000    6.0000    0.0000 C   0  0  0  0  0  0  0  0  0  0  0  0
    1.2990    3.7500    0.0000 C   0  0  0  0  0  0  0  0  0  0  0  0
    0.0000    1.5000    0.0000 C   0  0  0  0  0  0  0  0  0  0  0  0
   -2.5981    4.5000    0.0000 C   0  0  0  0  0  0  0  0  0  0  0  0
    0.0000    4.5000    0.0000 C   0  0  0  0  0  0  0  0  0  0  0  0
   -1.2990    2.2500    0.0000 N   0  0  0  0  0  0  0  0  0  0  0  0
   -1.2990    3.7500    0.0000 N   0  0  0  0  0  0  0  0  0  0  0  0
  7  1  1  0
  7  2  1  0
  8  3  1  0
  8  4  1  0
  9  5  1  0
  9  6  1  0
 10  7  2  0
 11  8  1  0
 11  9  1  0
 11 10  1  0
M  END
>  <NAME>  (5663) 
DIISOPROPYLHYDRAZONE ACETONE

>  <SYNONYMS>  (5663) 
ACETONE DIISOPROPYLHYDRAZONE

>  <SPECTRUM TYPE>  (5663) 
MS1

>  <INSTRUMENT TYPE>  (5663) 
EI-B

>  <INSTRUMENT>  (5663) 
SHIMADZU LKB-2091

>  <ION MODE>  (5663) 
P

>  <INCHIKEY>  (5663) 
BMWCIZCYWKLTLD-UHFFFAOYSA-N

>  <FORMULA>  (5663) 
C9H20N2

>  <EXACT MASS>  (5663) 
156.16264864

>  <MW>  (5663) 
156

>  <ID>  (5663) 
JP000854

>  <CONTRIBUTOR>  (5663) 
University of Tokyo Team, {Faculty of Engineering, University of Tokyo

>  <COMMENT>  (5663) 
SMILES=CC(C)=NN(C(C)C)C(C)C
InChI=InChI=1S/C9H20N2/c1-7(2)10-11(8(3)4)9(5)6/h8-9H,1-6H3
computed SMILES=N(=C(C)C)N(C(C)C)C(C)C
accession=JP000854
date=2016.01.19 (Created 2008.10.21, modified 2011.05.06)
author=SASAKI S, TOYOHASHI UNIV. OF TECH.
license=CC BY-NC-SA
exact mass=156.16265
ionization energy=70 eV
ion type=[M]+*
computed spectral entropy=2.549049795892355
computed normalized entropy=0.7734150382821182
SPLASH=splash10-052g-9100000000-7efc13f68e065601291a
submitter=submitter = University of Tokyo Team (Faculty of Engineering, University of Tokyo)
MoNA Rating=3.75

>  <NUM PEAKS>  (5663) 
27

>  <MASS SPECTRAL PEAKS>  (5663) 
27 22.3
29 6.6
30 9.6
31 0.25
39 11.5
40 3.7
41 37.5
42 2.88
43 55.5
44 12.2
54 1.6
55 0.16
56 33.1
57 3.6
58 15.1
70 0.39
71 12.2
84 3.3
85 5.2
99 99.99
100 6.8
113 2.6
127 1.9
141 5.61
142 6.3
156 14.4
157 1.6

>  <PREDICTED SPECTRUM>  (5663) 
15 20
26 10
27 183
28 155
29 119
30 172
38 14
39 281
40 134
41 626
42 650
43 547
44 271
52 45
53 108
54 169
55 76
56 446
57 423
58 308
59 48
67 17
68 49
69 44
70 128
71 157
72 59
81 17
82 136
83 157
84 197
85 42
86 2
95 38
96 64
97 130
98 103
99 999
100 235
113 252
141 801
142 260
156 348
157 134

$$$$

     RDKit          2D

 10  9  0  0  0  0  0  0  0  0999 V2000
   -4.8714    1.6875    0.0000 C   0  0  0  0  0  0  0  0  0  0  0  0
   -3.5724   -0.5625    0.0000 C   0  0  0  0  0  0  0  0  0  0  0  0
   -0.9743   -0.5625    0.0000 C   0  0  0  0  0  0  0  0  0  0  0  0
    1.6238    3.9375    0.0000 C   0  0  0  0  0  0  0  0  0  0  0  0
   -0.9743    3.9375    0.0000 C   0  0  0  0  0  0  0  0  0  0  0  0
   -2.2733    1.6875    0.0000 C   0  0  0  0  0  0  0  0  0  0  0  0
   -3.5724    0.9375    0.0000 C   0  0  0  0  0  0  0  0  0  0  0  0
   -0.9743    0.9375    0.0000 C   0  0  0  0  0  0  0  0  0  0  0  0
    0.3248    1.6875    0.0000 N   0  0  0  0  0  0  0  0  0  0  0  0
    0.3248    3.1875    0.0000 N   0  0  0  0  0  0  0  0  0  0  0  0
  7  1  1  0
  7  2  1  0
  7  6  1  0
  8  3  1  0
  8  6  1  0
  8  9  2  0
 10  4  1  0
 10  5  1  0
 10  9  1  0
M  END
>  <NAME>  (5664) 
DIMETHYLHYDRAZONE METHYLISOBUTYLKETONE

>  <SYNONYMS>  (5664) 
4-METHYL-2-PENTANONE DIMETHYLHYDRAZONE

>  <SPECTRUM TYPE>  (5664) 
MS1

>  <INSTRUMENT TYPE>  (5664) 
EI-B

>  <INSTRUMENT>  (5664) 
SHIMADZU LKB-2091

>  <ION MODE>  (5664) 
P

>  <INCHIKEY>  (5664) 
ILLZUURQEMRVTN-HJWRWDBZSA-N

>  <FORMULA>  (5664) 
C8H18N2

>  <EXACT MASS>  (5664) 
142.146998576

>  <MW>  (5664) 
142

>  <ID>  (5664) 
JP000853

>  <CONTRIBUTOR>  (5664) 
University of Tokyo Team, {Faculty of Engineering, University of Tokyo

>  <COMMENT>  (5664) 
SMILES=CC(C)CC(C)=NN(C)C
InChI=InChI=1S/C8H18N2/c1-7(2)6-8(3)9-10(4)5/h7H,6H2,1-5H3/b9-8-
computed SMILES=N(=C(C)CC(C)C)N(C)C
accession=JP000853
date=2016.01.19 (Created 2008.10.21, modified 2011.05.06)
author=SASAKI S, TOYOHASHI UNIV. OF TECH.
license=CC BY-NC-SA
exact mass=142.147
ionization energy=70 eV
ion type=[M]+*
computed spectral entropy=2.8613079234498753
computed normalized entropy=0.7865952304110094
SPLASH=splash10-0006-9100000000-ab632ae1f906e63a6315
submitter=submitter = University of Tokyo Team (Faculty of Engineering, University of Tokyo)
MoNA Rating=3.75

>  <NUM PEAKS>  (5664) 
38

>  <MASS SPECTRAL PEAKS>  (5664) 
28 14.1
29 15.6
30 6.9
39 1.41
40 3.4
41 29.7
42 56.2
43 3.13
44 99.99
45 78.1
46 9.4
53 0.22
54 2
55 5.3
56 59.5
57 1.5
58 46.9
59 9.4
69 1.8
70 0.31
71 5.9
81 1.3
82 5.9
83 0.22
84 12.5
85 25
86 22.5
87 0.14
96 2.8
97 2
98 6.3
99 2.66
100 29.7
101 2.2
127 9.4
141 0.12
142 50
143 6.9

>  <PREDICTED SPECTRUM>  (5664) 
14 14
15 98
18 5
26 20
27 197
28 157
29 238
30 236
31 42
33 2
37 13
38 80
39 318
40 180
41 514
42 790
43 672
44 999
45 505
46 214
50 18
51 45
52 46
53 109
54 114
55 335
56 509
57 564
58 624
59 326
67 19
68 174
69 189
70 233
71 202
72 150
82 120
83 170
84 289
85 671
86 372
87 158
96 56
97 126
98 253
99 363
100 493
101 25
110 36
111 37
113 10
125 84
127 312
128 69
141 145
142 710
143 215

$$$$

     RDKit          2D

 10  9  0  0  0  0  0  0  0  0999 V2000
    0.0000    6.7500    0.0000 C   0  0  0  0  0  0  0  0  0  0  0  0
   -1.2990    0.0000    0.0000 C   0  0  0  0  0  0  0  0  0  0  0  0
   -2.5981    2.2500    0.0000 C   0  0  0  0  0  0  0  0  0  0  0  0
    2.5981    5.2500    0.0000 C   0  0  0  0  0  0  0  0  0  0  0  0
    0.0000    5.2500    0.0000 C   0  0  0  0  0  0  0  0  0  0  0  0
   -0.0000    0.7500    0.0000 C   0  0  0  0  0  0  0  0  0  0  0  0
   -1.2990    3.0000    0.0000 C   0  0  0  0  0  0  0  0  0  0  0  0
    1.2990    4.5000    0.0000 C   0  0  0  0  0  0  0  0  0  0  0  0
    1.2990    3.0000    0.0000 N   0  0  0  0  0  0  0  0  0  0  0  0
   -0.0000    2.2500    0.0000 N   0  0  0  0  0  0  0  0  0  0  0  0
  5  1  1  0
  6  2  1  0
  7  3  1  0
  8  4  1  0
  8  5  1  0
  8  9  2  0
 10  6  1  0
 10  7  1  0
 10  9  1  0
M  END
>  <NAME>  (5665) 
DIETHYLHYDRAZONE METHYLETHYLKETONE

>  <SYNONYMS>  (5665) 
2-BUTANONE DIETHYLHYDRAZONE

>  <SPECTRUM TYPE>  (5665) 
MS1

>  <INSTRUMENT TYPE>  (5665) 
EI-B

>  <INSTRUMENT>  (5665) 
SHIMADZU LKB-2091

>  <ION MODE>  (5665) 
P

>  <INCHIKEY>  (5665) 
KMWQDYIEBWJWIC-HJWRWDBZSA-N

>  <FORMULA>  (5665) 
C8H18N2

>  <EXACT MASS>  (5665) 
142.146998576

>  <MW>  (5665) 
142

>  <ID>  (5665) 
JP000852

>  <CONTRIBUTOR>  (5665) 
University of Tokyo Team, {Faculty of Engineering, University of Tokyo

>  <COMMENT>  (5665) 
SMILES=CCC(C)=NN(CC)CC
InChI=InChI=1S/C8H18N2/c1-5-8(4)9-10(6-2)7-3/h5-7H2,1-4H3/b9-8-
computed SMILES=N(=C(C)CC)N(CC)CC
accession=JP000852
date=2016.01.19 (Created 2008.10.21, modified 2011.05.06)
author=SASAKI S, TOYOHASHI UNIV. OF TECH.
license=CC BY-NC-SA
exact mass=142.147
ionization energy=70 eV
ion type=[M]+*
computed spectral entropy=2.2400901556994173
computed normalized entropy=0.672254703713139
SPLASH=splash10-0006-9100000000-25f9ee7c240722862a96
submitter=submitter = University of Tokyo Team (Faculty of Engineering, University of Tokyo)
MoNA Rating=3.75

>  <NUM PEAKS>  (5665) 
28

>  <MASS SPECTRAL PEAKS>  (5665) 
29 25.7
30 5
39 3.6
40 0.11
41 11
42 99.99
43 4.3
44 1.6
53 1.1
54 3.2
55 7.1
56 0.48
57 18.9
58 1.1
68 1.2
70 1.39
71 1.4
72 8.2
73 2.9
85 0.07
86 1
99 1.5
113 3.6
127 5.38
128 4.3
141 1.2
142 20
143 1.9

>  <PREDICTED SPECTRUM>  (5665) 
14 41
15 227
16 21
18 26
26 65
27 361
28 368
29 617
30 370
31 33
32 42
38 62
39 357
40 222
41 566
42 999
43 302
44 595
45 8
52 27
54 172
55 354
56 629
57 469
58 210
67 5
68 209
69 127
70 738
71 213
72 409
82 87
83 128
85 182
86 89
97 3
98 0
99 8
111 15
113 382
127 786
128 279
141 116
142 655
143 211

$$$$

     RDKit          2D

 10  9  0  0  0  0  0  0  0  0999 V2000
    1.6238    3.1875    0.0000 C   0  0  0  0  0  0  0  0  0  0  0  0
   -4.8714    3.9375    0.0000 C   0  0  0  0  0  0  0  0  0  0  0  0
   -3.5724    1.6875    0.0000 C   0  0  0  0  0  0  0  0  0  0  0  0
    0.3248    0.9375    0.0000 C   0  0  0  0  0  0  0  0  0  0  0  0
   -2.2733    0.9375    0.0000 C   0  0  0  0  0  0  0  0  0  0  0  0
    0.3248    3.9375    0.0000 C   0  0  0  0  0  0  0  0  0  0  0  0
   -3.5724    3.1875    0.0000 C   0  0  0  0  0  0  0  0  0  0  0  0
   -0.9743    1.6875    0.0000 C   0  0  0  0  0  0  0  0  0  0  0  0
   -2.2733    3.9375    0.0000 N   0  0  0  0  0  0  0  0  0  0  0  0
   -0.9743    3.1875    0.0000 N   0  0  0  0  0  0  0  0  0  0  0  0
  6  1  1  0
  7  2  1  0
  7  3  1  0
  8  4  1  0
  8  5  1  0
  9  7  2  0
 10  6  1  0
 10  8  1  0
 10  9  1  0
M  END
>  <NAME>  (5666) 
ETHYLISOPROPYLHYDRAZONE ACETONE

>  <SYNONYMS>  (5666) 
ACETONE ETHYLISOPROPYLHYDRAZONE

>  <SPECTRUM TYPE>  (5666) 
MS1

>  <INSTRUMENT TYPE>  (5666) 
EI-B

>  <INSTRUMENT>  (5666) 
SHIMADZU LKB-2091

>  <ION MODE>  (5666) 
P

>  <INCHIKEY>  (5666) 
FQBTUCJQGSWWGU-UHFFFAOYSA-N

>  <FORMULA>  (5666) 
C8H18N2

>  <EXACT MASS>  (5666) 
142.146998576

>  <MW>  (5666) 
142

>  <ID>  (5666) 
JP000851

>  <CONTRIBUTOR>  (5666) 
University of Tokyo Team, {Faculty of Engineering, University of Tokyo

>  <COMMENT>  (5666) 
SMILES=CCN(N=C(C)C)C(C)C
InChI=InChI=1S/C8H18N2/c1-6-10(8(4)5)9-7(2)3/h8H,6H2,1-5H3
computed SMILES=N(=C(C)C)N(CC)C(C)C
accession=JP000851
date=2016.01.19 (Created 2008.10.21, modified 2011.05.06)
author=SASAKI S, TOYOHASHI UNIV. OF TECH.
license=CC BY-NC-SA
exact mass=142.147
ionization energy=70 eV
ion type=[M]+*
computed spectral entropy=2.6526195468175255
computed normalized entropy=0.7724605215048347
SPLASH=splash10-004l-9400000000-6e7aeb1a25d637fb7159
submitter=submitter = University of Tokyo Team (Faculty of Engineering, University of Tokyo)
MoNA Rating=3.75

>  <NUM PEAKS>  (5666) 
31

>  <MASS SPECTRAL PEAKS>  (5666) 
27 15.5
28 12.6
29 11.9
30 0.81
39 8.5
40 3.1
41 20.7
42 3.45
43 25.9
44 9.7
54 1.5
55 0.15
56 53.5
57 4.1
58 10.8
59 0.1
70 16.4
71 7.1
72 8.5
82 0.36
83 1.5
84 2.8
85 28.5
86 0.27
99 10.2
100 0.8
127 99.99
128 1
141 0.9
142 25.9
143 3.3

>  <PREDICTED SPECTRUM>  (5666) 
14 17
15 65
16 9
18 5
26 20
27 175
28 197
29 206
30 357
31 26
32 2
37 0
38 68
39 388
40 231
41 701
42 923
43 625
44 340
45 35
51 15
52 73
53 67
54 247
55 212
56 644
57 225
58 225
59 18
67 163
68 221
69 336
70 580
71 231
72 275
82 176
83 357
84 370
85 588
86 179
97 136
98 84
99 146
110 65
111 70
112 86
113 133
127 999
128 297
129 14
141 132
142 524
143 178

$$$$

     RDKit          2D

  9  8  0  0  0  0  0  0  0  0999 V2000
   -5.5209    2.8125    0.0000 C   0  0  0  0  0  0  0  0  0  0  0  0
   -4.2219    5.0625    0.0000 C   0  0  0  0  0  0  0  0  0  0  0  0
    0.9743    2.0625    0.0000 C   0  0  0  0  0  0  0  0  0  0  0  0
   -0.3248    4.3125    0.0000 C   0  0  0  0  0  0  0  0  0  0  0  0
   -4.2219    2.0625    0.0000 C   0  0  0  0  0  0  0  0  0  0  0  0
   -2.9228    4.3125    0.0000 C   0  0  0  0  0  0  0  0  0  0  0  0
   -2.9228    2.8125    0.0000 C   0  0  0  0  0  0  0  0  0  0  0  0
   -1.6238    2.0625    0.0000 N   0  0  0  0  0  0  0  0  0  0  0  0
   -0.3248    2.8125    0.0000 N   0  0  0  0  0  0  0  0  0  0  0  0
  5  1  1  0
  6  2  1  0
  7  5  1  0
  7  6  1  0
  8  7  2  0
  9  3  1  0
  9  4  1  0
  9  8  1  0
M  END
>  <NAME>  (5667) 
DIMETHYLHYDRAZONE DIETHYLKETONE

>  <SYNONYMS>  (5667) 
3-PENTANONE DIMETHYLHYDRAZONE

>  <SPECTRUM TYPE>  (5667) 
MS1

>  <INSTRUMENT TYPE>  (5667) 
EI-B

>  <INSTRUMENT>  (5667) 
SHIMADZU LKB-2091

>  <ION MODE>  (5667) 
P

>  <INCHIKEY>  (5667) 
LXFGNBFOJJSPPZ-UHFFFAOYSA-N

>  <FORMULA>  (5667) 
C7H16N2

>  <EXACT MASS>  (5667) 
128.131348512

>  <MW>  (5667) 
128

>  <ID>  (5667) 
JP000850

>  <CONTRIBUTOR>  (5667) 
University of Tokyo Team, {Faculty of Engineering, University of Tokyo

>  <COMMENT>  (5667) 
SMILES=CCC(CC)=NN(C)C
InChI=InChI=1S/C7H16N2/c1-5-7(6-2)8-9(3)4/h5-6H2,1-4H3
computed SMILES=N(=C(CC)CC)N(C)C
accession=JP000850
date=2016.01.19 (Created 2008.10.21, modified 2011.05.06)
author=SASAKI S, TOYOHASHI UNIV. OF TECH.
license=CC BY-NC-SA
exact mass=128.13135
ionization energy=70 eV
ion type=[M]+*
computed spectral entropy=2.533483214774628
computed normalized entropy=0.7184413496831533
SPLASH=splash10-0007-9100000000-b91983d7ebec95b0a41f
submitter=submitter = University of Tokyo Team (Faculty of Engineering, University of Tokyo)
MoNA Rating=3.75

>  <NUM PEAKS>  (5667) 
34

>  <MASS SPECTRAL PEAKS>  (5667) 
29 14.3
30 5.4
39 4.5
40 0.13
41 9.4
42 28.5
43 17.8
44 99.99
45 94
46 8.3
52 0.7
53 0.14
54 9.2
55 8.1
56 32.3
57 0.98
58 8.7
59 2.4
67 1.2
68 0.42
69 1.4
70 2.3
71 0.7
72 0.19
82 5.6
83 2.6
84 17.8
85 0.58
97 0.7
99 6.4
113 2.7
127 0.09
128 42.8
129 6.1

>  <PREDICTED SPECTRUM>  (5667) 
14 34
15 162
16 26
17 22
18 52
26 94
27 333
28 343
29 655
30 381
31 100
32 66
38 122
39 323
40 265
41 530
42 996
43 537
44 999
45 337
46 200
50 31
52 71
53 44
54 182
55 445
56 726
57 902
58 92
59 62
66 4
67 123
68 225
69 270
70 318
71 523
72 315
73 2
82 165
83 207
84 418
85 81
97 31
98 63
99 674
100 73
101 2
112 95
113 292
114 119
127 104
128 735
129 215

$$$$

     RDKit          2D

  9  8  0  0  0  0  0  0  0  0999 V2000
   -5.5209    2.8125    0.0000 C   0  0  0  0  0  0  0  0  0  0  0  0
   -4.2219    5.0625    0.0000 C   0  0  0  0  0  0  0  0  0  0  0  0
    0.9743    2.0625    0.0000 C   0  0  0  0  0  0  0  0  0  0  0  0
   -0.3248    4.3125    0.0000 C   0  0  0  0  0  0  0  0  0  0  0  0
   -4.2219    2.0625    0.0000 C   0  0  0  0  0  0  0  0  0  0  0  0
   -2.9228    4.3125    0.0000 C   0  0  0  0  0  0  0  0  0  0  0  0
   -0.3248    2.8125    0.0000 C   0  0  0  0  0  0  0  0  0  0  0  0
   -1.6238    2.0625    0.0000 N   0  0  0  0  0  0  0  0  0  0  0  0
   -2.9228    2.8125    0.0000 N   0  0  0  0  0  0  0  0  0  0  0  0
  5  1  1  0
  6  2  1  0
  7  3  1  0
  7  4  1  0
  8  7  2  0
  9  5  1  0
  9  6  1  0
  9  8  1  0
M  END
>  <NAME>  (5668) 
DIETHYLHYDRAZONE ACETONE

>  <SYNONYMS>  (5668) 
ACETONE DIETHYLHYDRAZONE

>  <SPECTRUM TYPE>  (5668) 
MS1

>  <INSTRUMENT TYPE>  (5668) 
EI-B

>  <INSTRUMENT>  (5668) 
SHIMADZU LKB-2091

>  <ION MODE>  (5668) 
P

>  <INCHIKEY>  (5668) 
GGVIFVVMUPEGHJ-UHFFFAOYSA-N

>  <FORMULA>  (5668) 
C7H16N2

>  <EXACT MASS>  (5668) 
128.131348512

>  <MW>  (5668) 
128

>  <ID>  (5668) 
JP000849

>  <CONTRIBUTOR>  (5668) 
University of Tokyo Team, {Faculty of Engineering, University of Tokyo

>  <COMMENT>  (5668) 
SMILES=CCN(CC)N=C(C)C
InChI=InChI=1S/C7H16N2/c1-5-9(6-2)8-7(3)4/h5-6H2,1-4H3
computed SMILES=N(=C(C)C)N(CC)CC
accession=JP000849
date=2016.01.19 (Created 2008.10.21, modified 2011.05.06)
author=SASAKI S, TOYOHASHI UNIV. OF TECH.
license=CC BY-NC-SA
exact mass=128.13135
ionization energy=70 eV
ion type=[M]+*
computed spectral entropy=2.4230376466689165
computed normalized entropy=0.7271575436831504
SPLASH=splash10-08i0-9600000000-49174a2db21bf1851184
submitter=submitter = University of Tokyo Team (Faculty of Engineering, University of Tokyo)
MoNA Rating=3.75

>  <NUM PEAKS>  (5668) 
28

>  <MASS SPECTRAL PEAKS>  (5668) 
27 14.7
28 14.7
29 16.9
30 0.44
39 5
40 2.5
41 11.2
42 1.89
43 10.5
44 9.9
54 1.1
55 0.1
56 76.9
57 4.2
58 12.2
70 0.3
71 2.7
72 3.6
85 6.1
97 0.08
99 9.3
100 0.9
112 1
113 99.99
114 10
127 3.2
128 33.7
129 3.4

>  <PREDICTED SPECTRUM>  (5668) 
14 54
15 224
16 8
18 34
26 123
27 390
28 437
29 525
30 405
32 46
37 6
38 79
39 320
40 213
41 463
42 803
43 284
44 343
51 26
53 22
54 150
55 258
56 689
57 362
58 361
67 9
68 115
69 248
70 289
71 170
72 393
73 96
82 8
83 130
84 119
99 151
113 999
114 279
115 11
127 94
128 469
129 165

$$$$

     RDKit          2D

  7  6  0  0  0  0  0  0  0  0999 V2000
    1.6238    1.6875    0.0000 C   0  0  0  0  0  0  0  0  0  0  0  0
    0.3248    3.9375    0.0000 C   0  0  0  0  0  0  0  0  0  0  0  0
   -3.5724    1.6875    0.0000 C   0  0  0  0  0  0  0  0  0  0  0  0
   -2.2733    3.9375    0.0000 C   0  0  0  0  0  0  0  0  0  0  0  0
    0.3248    2.4375    0.0000 C   0  0  0  0  0  0  0  0  0  0  0  0
   -0.9743    1.6875    0.0000 N   0  0  0  0  0  0  0  0  0  0  0  0
   -2.2733    2.4375    0.0000 N   0  0  0  0  0  0  0  0  0  0  0  0
  5  1  1  0
  5  2  1  0
  6  5  2  0
  7  3  1  0
  7  4  1  0
  7  6  1  0
M  END
>  <NAME>  (5669) 
DIMETHYLHYDRAZONE ACETONE

>  <SYNONYMS>  (5669) 
ACETONE DIMETHYLHYDRAZONE

>  <SPECTRUM TYPE>  (5669) 
MS1

>  <INSTRUMENT TYPE>  (5669) 
EI-B

>  <INSTRUMENT>  (5669) 
SHIMADZU LKB-2091

>  <ION MODE>  (5669) 
P

>  <INCHIKEY>  (5669) 
IDSMDKUVIBSETN-UHFFFAOYSA-N

>  <FORMULA>  (5669) 
C5H12N2

>  <EXACT MASS>  (5669) 
100.10004838399999

>  <MW>  (5669) 
100

>  <ID>  (5669) 
JP000848

>  <CONTRIBUTOR>  (5669) 
University of Tokyo Team, {Faculty of Engineering, University of Tokyo

>  <COMMENT>  (5669) 
SMILES=CC(C)=NN(C)C
InChI=InChI=1S/C5H12N2/c1-5(2)6-7(3)4/h1-4H3
computed SMILES=N(=C(C)C)N(C)C
accession=JP000848
date=2016.01.19 (Created 2008.10.21, modified 2011.05.06)
author=SASAKI S, TOYOHASHI UNIV. OF TECH.
license=CC BY-NC-SA
exact mass=100.10005
ionization energy=70 eV
ion type=[M]+*
computed spectral entropy=2.5390202308089296
computed normalized entropy=0.7326063791409588
SPLASH=splash10-0006-9200000000-0ca50be469db3a27e06f
submitter=submitter = University of Tokyo Team (Faculty of Engineering, University of Tokyo)
MoNA Rating=3.75

>  <NUM PEAKS>  (5669) 
32

>  <MASS SPECTRAL PEAKS>  (5669) 
28 23.5
29 10.6
30 11.5
31 0.16
38 1.5
39 12.9
40 5.9
41 2.29
42 58.9
43 25.9
44 99.99
45 7.06
46 2.5
54 3.4
55 2.6
56 7.06
57 18.8
58 8.8
59 5.8
60 0.25
69 3.2
70 1.6
71 0.9
72 0.08
73 1.4
74 1.6
84 1.1
85 2.12
86 1.8
99 16.8
100 82.4
101 5.9

>  <PREDICTED SPECTRUM>  (5669) 
14 30
15 118
16 11
18 14
26 24
27 114
28 185
29 150
30 384
31 54
32 28
36 0
38 75
39 256
40 203
41 445
42 970
43 614
44 734
45 344
46 145
51 11
52 95
53 114
54 169
55 352
56 528
57 301
58 177
59 56
68 86
69 165
70 180
71 95
72 9
83 127
84 128
85 999
86 297
99 119
100 732
101 228
102 19

$$$$

     RDKit          2D

 12 11  0  0  0  0  0  0  0  0999 V2000
    3.2476    5.6250    0.0000 C   0  0  0  0  0  0  0  0  0  0  0  0
   -9.7428    5.6250    0.0000 C   0  0  0  0  0  0  0  0  0  0  0  0
   -3.2476    7.8750    0.0000 C   0  0  0  0  0  0  0  0  0  0  0  0
    1.9486    6.3750    0.0000 C   0  0  0  0  0  0  0  0  0  0  0  0
   -8.4437    6.3750    0.0000 C   0  0  0  0  0  0  0  0  0  0  0  0
    0.6495    5.6250    0.0000 C   0  0  0  0  0  0  0  0  0  0  0  0
   -0.6495    6.3750    0.0000 C   0  0  0  0  0  0  0  0  0  0  0  0
   -4.5466    5.6250    0.0000 C   0  0  0  0  0  0  0  0  0  0  0  0
   -5.8457    6.3750    0.0000 C   0  0  0  0  0  0  0  0  0  0  0  0
   -1.9486    5.6250    0.0000 N   0  0  0  0  0  0  0  0  0  0  0  0
   -3.2476    6.3750    0.0000 N   0  0  0  0  0  0  0  0  0  0  0  0
   -7.1447    5.6250    0.0000 O   0  0  0  0  0  0  0  0  0  0  0  0
  4  1  1  0
  5  2  1  0
  6  4  1  0
  7  6  1  0
  9  8  1  0
  7 10  2  0
 11  3  1  0
 11  8  1  0
 11 10  1  0
 12  5  1  0
 12  9  1  0
M  END
>  <NAME>  (5670) 
BUTYRALDEHYDE (2-ETHOXYETHYL)METHYLHYDRAZONE

>  <SYNONYMS>  (5670) 


>  <SPECTRUM TYPE>  (5670) 
MS1

>  <INSTRUMENT TYPE>  (5670) 
EI-B

>  <INSTRUMENT>  (5670) 
SHIMADZU LKB-2091

>  <ION MODE>  (5670) 
P

>  <INCHIKEY>  (5670) 
FDQLPAGFGLXPAD-JXMROGBWSA-N

>  <FORMULA>  (5670) 
C9H20N2O

>  <EXACT MASS>  (5670) 
172.15756326

>  <MW>  (5670) 
172

>  <ID>  (5670) 
JP000847

>  <CONTRIBUTOR>  (5670) 
University of Tokyo Team, {Faculty of Engineering, University of Tokyo

>  <COMMENT>  (5670) 
SMILES=CCCC=NN(C)CCOCC
InChI=InChI=1S/C9H20N2O/c1-4-6-7-10-11(3)8-9-12-5-2/h7H,4-6,8-9H2,1-3H3/b10-7+
computed SMILES=N(=CCCC)N(C)CCOCC
accession=JP000847
date=2016.01.19 (Created 2008.10.21, modified 2011.05.06)
author=SASAKI S, TOYOHASHI UNIV. OF TECH.
license=CC BY-NC-SA
exact mass=172.15756
ionization energy=70 eV
ion type=[M]+*
computed spectral entropy=2.1376566506972843
computed normalized entropy=0.6415142420489938
SPLASH=splash10-03dl-8900000000-3c96c07db9f7c0b10174
submitter=submitter = University of Tokyo Team (Faculty of Engineering, University of Tokyo)
MoNA Rating=3.75

>  <NUM PEAKS>  (5670) 
28

>  <MASS SPECTRAL PEAKS>  (5670) 
27 7.8
28 5
29 6.3
30 0.33
31 4.7
39 1.6
41 6.3
42 1
43 14.4
44 46.7
45 5.9
55 0.13
56 2.6
57 1.7
58 2.8
59 0.17
70 4.4
71 1.9
72 1.6
83 0.19
84 0.7
85 0.9
86 1.4
100 0.13
113 99.99
114 8.5
172 12.2
173 1.8

>  <PREDICTED SPECTRUM>  (5670) 
27 40
28 103
29 191
30 272
31 196
32 43
39 210
40 130
41 577
42 690
43 815
44 853
45 553
46 284
54 201
55 389
56 424
57 505
58 277
59 819
60 171
61 110
68 135
69 279
70 527
71 586
72 999
73 278
74 74
82 18
83 240
84 337
85 544
86 361
87 105
97 70
98 147
99 171
100 277
101 303
102 162
112 58
113 609
114 326
115 191
126 179
127 260
128 436
129 263
130 40
143 191
144 6
157 77
172 512
173 160

$$$$

     RDKit          2D

 23 25  0  0  0  0  0  0  0  0999 V2000
   -6.4951   -1.1798    0.0000 C   0  0  0  0  0  0  0  0  0  0  0  0
   -5.1960    7.0702    0.0000 C   0  0  0  0  0  0  0  0  0  0  0  0
    3.8972    4.8202    0.0000 C   0  0  0  0  0  0  0  0  0  0  0  0
   -5.1956   -1.9306    0.0000 C   0  0  0  0  0  0  0  0  0  0  0  0
   -6.4956    0.3210    0.0000 C   0  0  0  0  0  0  0  0  0  0  0  0
   -3.8965    7.8210    0.0000 C   0  0  0  0  0  0  0  0  0  0  0  0
   -5.1965    5.5694    0.0000 C   0  0  0  0  0  0  0  0  0  0  0  0
    2.5977    5.5710    0.0000 C   0  0  0  0  0  0  0  0  0  0  0  0
    3.8977    3.3194    0.0000 C   0  0  0  0  0  0  0  0  0  0  0  0
   -3.8965   -1.1806    0.0000 C   0  0  0  0  0  0  0  0  0  0  0  0
   -5.1965    1.0710    0.0000 C   0  0  0  0  0  0  0  0  0  0  0  0
   -2.5975    7.0710    0.0000 C   0  0  0  0  0  0  0  0  0  0  0  0
   -3.8975    4.8194    0.0000 C   0  0  0  0  0  0  0  0  0  0  0  0
    1.2987    4.8210    0.0000 C   0  0  0  0  0  0  0  0  0  0  0  0
    2.5987    2.5694    0.0000 C   0  0  0  0  0  0  0  0  0  0  0  0
   -2.5980    1.0702    0.0000 C   0  0  0  0  0  0  0  0  0  0  0  0
   -1.2989    4.8202    0.0000 C   0  0  0  0  0  0  0  0  0  0  0  0
    0.0001    2.5702    0.0000 C   0  0  0  0  0  0  0  0  0  0  0  0
   -3.8970    0.3202    0.0000 C   0  0  0  0  0  0  0  0  0  0  0  0
   -2.5980    5.5702    0.0000 C   0  0  0  0  0  0  0  0  0  0  0  0
    1.2992    3.3202    0.0000 C   0  0  0  0  0  0  0  0  0  0  0  0
   -2.5980    2.5702    0.0000 N   0  0  0  0  0  0  0  0  0  0  0  0
   -1.2989    3.3202    0.0000 N   0  0  0  0  0  0  0  0  0  0  0  0
  4  1  2  0
  5  1  1  0
  6  2  2  0
  7  2  1  0
  8  3  2  0
  9  3  1  0
 10  4  1  0
 11  5  2  0
 12  6  1  0
 13  7  2  0
 14  8  1  0
 15  9  2  0
 19 10  2  0
 19 11  1  0
 19 16  1  0
 20 12  2  0
 20 13  1  0
 20 17  1  0
 21 14  2  0
 21 15  1  0
 21 18  1  0
 16 22  2  0
 23 17  1  0
 23 18  1  0
 23 22  1  0
M  END
>  <NAME>  (5671) 
DIBENZYLHYDRAZONE BENZALDEHYDE

>  <SYNONYMS>  (5671) 
BENZALDEHYDE DIBENZYLHYDRAZONE

>  <SPECTRUM TYPE>  (5671) 
MS1

>  <INSTRUMENT TYPE>  (5671) 
EI-B

>  <INSTRUMENT>  (5671) 
SHIMADZU LKB-2091

>  <ION MODE>  (5671) 
P

>  <INCHIKEY>  (5671) 
GLRHIFIUOXQKIX-CJLVFECKSA-N

>  <FORMULA>  (5671) 
C21H20N2

>  <EXACT MASS>  (5671) 
300.16264864

>  <MW>  (5671) 
300

>  <ID>  (5671) 
JP000846

>  <CONTRIBUTOR>  (5671) 
University of Tokyo Team, {Faculty of Engineering, University of Tokyo

>  <COMMENT>  (5671) 
SMILES=c(c3)ccc(c3)C=NN(Cc(c2)cccc2)Cc(c1)cccc1
InChI=InChI=1S/C21H20N2/c1-4-10-19(11-5-1)16-22-23(17-20-12-6-2-7-13-20)18-21-14-8-3-9-15-21/h1-16H,17-18H2/b22-16+
computed SMILES=N(=CC=1C=CC=CC1)N(CC=2C=CC=CC2)CC=3C=CC=CC3
accession=JP000846
date=2016.01.19 (Created 2008.10.21, modified 2011.05.06)
author=SASAKI S, TOYOHASHI UNIV. OF TECH.
license=CC BY-NC-SA
exact mass=300.16265
ionization energy=70 eV
ion type=[M]+*
computed spectral entropy=2.2577568385763342
computed normalized entropy=0.6457177051347208
SPLASH=splash10-0f6x-9303000000-be842162780b407e6a5b
submitter=submitter = University of Tokyo Team (Faculty of Engineering, University of Tokyo)
MoNA Rating=3.75

>  <NUM PEAKS>  (5671) 
33

>  <MASS SPECTRAL PEAKS>  (5671) 
27 1
29 0.8
39 2.8
41 0.22
42 0.8
43 2
51 2.6
55 0.13
57 2.6
63 1.5
65 9.5
71 0.16
77 4.6
89 4.1
90 6.7
91 99.99
92 9.5
103 9
104 1.9
153 0.15
165 5.6
166 11.3
167 2.2
178 0.1
179 3.6
180 1.4
181 22.3
182 0.36
209 2.1
223 1.4
300 56.4
301 1.44
302 1.6

>  <PREDICTED SPECTRUM>  (5671) 
26 15
27 72
28 40
29 4
34 1
38 29
39 174
40 53
41 160
42 60
43 18
44 13
45 5
50 100
51 205
52 130
53 32
54 9
57 26
62 72
63 189
64 94
65 398
66 83
74 33
75 2
76 87
77 201
78 175
79 125
80 30
82 4
87 18
89 207
90 143
91 999
92 325
93 46
102 49
103 150
104 210
105 119
106 205
107 16
108 10
115 107
116 67
117 185
118 140
119 74
120 72
126 25
131 41
132 124
133 117
134 67
140 17
152 36
153 25
165 58
166 83
167 82
168 30
178 21
179 5
180 143
181 214
182 88
183 10
193 1
195 30
196 17
206 15
207 66
208 95
209 329
210 113
221 15
222 71
223 207
224 117
299 244
300 452
301 244
302 69

$$$$

     RDKit          2D

 14 13  0  0  0  0  0  0  0  0999 V2000
    2.2733    5.0625    0.0000 C   0  0  0  0  0  0  0  0  0  0  0  0
   -6.8200    2.8125    0.0000 C   0  0  0  0  0  0  0  0  0  0  0  0
   -4.2219    2.8125    0.0000 C   0  0  0  0  0  0  0  0  0  0  0  0
   -5.5209    9.5625    0.0000 C   0  0  0  0  0  0  0  0  0  0  0  0
   -6.8200    7.3125    0.0000 C   0  0  0  0  0  0  0  0  0  0  0  0
    0.9743    5.8125    0.0000 C   0  0  0  0  0  0  0  0  0  0  0  0
   -0.3248    5.0625    0.0000 C   0  0  0  0  0  0  0  0  0  0  0  0
   -1.6238    5.8125    0.0000 C   0  0  0  0  0  0  0  0  0  0  0  0
   -5.5209    5.0625    0.0000 C   0  0  0  0  0  0  0  0  0  0  0  0
   -4.2219    7.3125    0.0000 C   0  0  0  0  0  0  0  0  0  0  0  0
   -5.5209    3.5625    0.0000 C   0  0  0  0  0  0  0  0  0  0  0  0
   -5.5209    8.0625    0.0000 C   0  0  0  0  0  0  0  0  0  0  0  0
   -2.9228    5.0625    0.0000 N   0  0  0  0  0  0  0  0  0  0  0  0
   -4.2219    5.8125    0.0000 N   0  0  0  0  0  0  0  0  0  0  0  0
  6  1  1  0
  7  6  1  0
  8  7  1  0
 11  2  1  0
 11  3  1  0
 11  9  1  0
 12  4  1  0
 12  5  1  0
 12 10  1  0
  8 13  2  0
 14  9  1  0
 14 10  1  0
 14 13  1  0
M  END
>  <NAME>  (5672) 
DIISOBUTYLHYDRAZONE ISOBUTYRALDEHYDE

>  <SYNONYMS>  (5672) 
ISOBUTYRALDEHYDE DIISOBUTYLHYDRAZONE

>  <SPECTRUM TYPE>  (5672) 
MS1

>  <INSTRUMENT TYPE>  (5672) 
EI-B

>  <INSTRUMENT>  (5672) 
SHIMADZU LKB-2091

>  <ION MODE>  (5672) 
P

>  <INCHIKEY>  (5672) 
ASPGBKIEGSGRKE-MDWZMJQESA-N

>  <FORMULA>  (5672) 
C12H26N2

>  <EXACT MASS>  (5672) 
198.20959883199998

>  <MW>  (5672) 
198

>  <ID>  (5672) 
JP000845

>  <CONTRIBUTOR>  (5672) 
University of Tokyo Team, {Faculty of Engineering, University of Tokyo

>  <COMMENT>  (5672) 
SMILES=CCCC=NN(CC(C)C)CC(C)C
InChI=InChI=1S/C12H26N2/c1-6-7-8-13-14(9-11(2)3)10-12(4)5/h8,11-12H,6-7,9-10H2,1-5H3/b13-8+
computed SMILES=N(=CCCC)N(CC(C)C)CC(C)C
accession=JP000845
date=2016.01.19 (Created 2008.10.21, modified 2011.05.06)
author=SASAKI S, TOYOHASHI UNIV. OF TECH.
license=CC BY-NC-SA
exact mass=198.2096
ionization energy=70 eV
ion type=[M]+*
computed spectral entropy=2.313937627902819
computed normalized entropy=0.6361189883339754
SPLASH=splash10-0a4i-9800000000-a686e7e6d1b74d5e10ab
submitter=submitter = University of Tokyo Team (Faculty of Engineering, University of Tokyo)
MoNA Rating=3.75

>  <NUM PEAKS>  (5672) 
38

>  <MASS SPECTRAL PEAKS>  (5672) 
27 4.4
28 2.4
29 12.4
30 1.1
39 3
40 0.6
41 14.8
42 0.84
43 12.9
44 1.4
53 0.5
54 0.05
55 3.7
56 2.5
57 18.6
58 0.17
68 0.8
69 0.8
70 7.1
71 0.07
72 1.9
82 0.7
83 0.6
84 0.22
86 2
97 0.7
99 42.2
100 0.27
111 0.7
113 1.6
127 0.5
141 0.05
155 99.99
156 11
183 1.2
197 0.05
198 10.8
199 1.8

>  <PREDICTED SPECTRUM>  (5672) 
26 12
27 156
28 79
29 233
30 148
39 170
40 49
41 395
42 206
43 266
44 80
52 9
53 73
54 43
55 207
56 189
57 552
58 60
67 50
68 69
69 182
70 198
71 139
72 170
73 55
74 29
81 87
82 37
83 14
84 124
85 63
86 84
87 77
97 74
99 772
100 288
101 17
111 50
113 129
125 41
139 13
141 78
142 81
154 26
155 999
156 275
167 100
183 59
198 304
199 97

$$$$

     RDKit          2D

 14 13  0  0  0  0  0  0  0  0999 V2000
   -8.4437    5.6250    0.0000 C   0  0  0  0  0  0  0  0  0  0  0  0
    3.2476    4.8750    0.0000 C   0  0  0  0  0  0  0  0  0  0  0  0
    0.6495    0.3750    0.0000 C   0  0  0  0  0  0  0  0  0  0  0  0
   -7.1447    4.8750    0.0000 C   0  0  0  0  0  0  0  0  0  0  0  0
    1.9486    5.6250    0.0000 C   0  0  0  0  0  0  0  0  0  0  0  0
   -0.6495    1.1250    0.0000 C   0  0  0  0  0  0  0  0  0  0  0  0
   -5.8457    5.6250    0.0000 C   0  0  0  0  0  0  0  0  0  0  0  0
    0.6495    4.8750    0.0000 C   0  0  0  0  0  0  0  0  0  0  0  0
   -0.6495    2.6250    0.0000 C   0  0  0  0  0  0  0  0  0  0  0  0
   -4.5466    4.8750    0.0000 C   0  0  0  0  0  0  0  0  0  0  0  0
   -0.6495    5.6250    0.0000 C   0  0  0  0  0  0  0  0  0  0  0  0
   -1.9486    3.3750    0.0000 C   0  0  0  0  0  0  0  0  0  0  0  0
   -3.2476    5.6250    0.0000 N   0  0  0  0  0  0  0  0  0  0  0  0
   -1.9486    4.8750    0.0000 N   0  0  0  0  0  0  0  0  0  0  0  0
  4  1  1  0
  5  2  1  0
  6  3  1  0
  7  4  1  0
  8  5  1  0
  9  6  1  0
 10  7  1  0
 11  8  1  0
 12  9  1  0
 10 13  2  0
 14 11  1  0
 14 12  1  0
 14 13  1  0
M  END
>  <NAME>  (5673) 
DI-N-BUTYLHYDRAZONE BUTYRALDEHYDE

>  <SYNONYMS>  (5673) 
BUTYRALDEHYDE DIBUTYLHYDRAZONE

>  <SPECTRUM TYPE>  (5673) 
MS1

>  <INSTRUMENT TYPE>  (5673) 
EI-B

>  <INSTRUMENT>  (5673) 
SHIMADZU LKB-2091

>  <ION MODE>  (5673) 
P

>  <INCHIKEY>  (5673) 
SUXRDGHXUJLOLZ-JLHYYAGUSA-N

>  <FORMULA>  (5673) 
C12H26N2

>  <EXACT MASS>  (5673) 
198.20959883199998

>  <MW>  (5673) 
198

>  <ID>  (5673) 
JP000844

>  <CONTRIBUTOR>  (5673) 
University of Tokyo Team, {Faculty of Engineering, University of Tokyo

>  <COMMENT>  (5673) 
SMILES=CCCC=NN(CCCC)CCCC
InChI=InChI=1S/C12H26N2/c1-4-7-10-13-14(11-8-5-2)12-9-6-3/h10H,4-9,11-12H2,1-3H3/b13-10+
computed SMILES=N(=CCCC)N(CCCC)CCCC
accession=JP000844
date=2016.01.19 (Created 2008.10.21, modified 2011.05.06)
author=SASAKI S, TOYOHASHI UNIV. OF TECH.
license=CC BY-NC-SA
exact mass=198.2096
ionization energy=70 eV
ion type=[M]+*
computed spectral entropy=2.5840244594853945
computed normalized entropy=0.7053312347603802
SPLASH=splash10-0a4i-8900000000-26fb81a2a229393d825f
submitter=submitter = University of Tokyo Team (Faculty of Engineering, University of Tokyo)
MoNA Rating=3.75

>  <NUM PEAKS>  (5673) 
39

>  <MASS SPECTRAL PEAKS>  (5673) 
27 9.8
28 6.9
29 23.4
30 1.69
39 3.6
41 20.8
42 9.6
43 1.05
44 7.7
53 0.7
54 0.8
55 0.52
56 3.9
57 15.6
58 1.3
68 0.11
69 1.2
70 7.1
71 1.2
72 0.21
83 1.8
84 4.3
85 1
86 0.32
99 19.5
100 1.8
111 0.6
112 0.06
113 27.3
114 2.3
126 0.7
127 0.05
128 0.7
155 99.99
156 10.5
169 0.17
197 0.6
198 13.6
199 2.5

>  <PREDICTED SPECTRUM>  (5673) 
25 16
26 104
27 361
28 221
29 486
30 332
31 88
36 0
37 35
38 69
39 364
40 167
41 733
42 466
43 461
44 541
45 123
46 38
47 6
49 13
50 17
51 92
52 86
53 182
54 216
55 453
56 344
57 688
58 238
59 85
66 14
67 170
68 169
69 242
70 329
71 294
72 178
73 123
74 30
81 72
82 136
83 115
84 320
85 200
86 422
87 171
88 92
96 31
97 155
98 202
99 394
100 389
101 141
102 50
111 141
112 95
113 606
114 170
115 121
125 4
126 0
127 97
128 128
129 13
139 46
141 201
142 180
143 152
153 147
154 161
155 999
156 406
157 73
158 9
169 147
181 4
183 34
197 76
198 318
199 129

$$$$

     RDKit          2D

 13 12  0  0  0  0  0  0  0  0999 V2000
    2.9228    6.1875    0.0000 C   0  0  0  0  0  0  0  0  0  0  0  0
  -10.0675    6.1875    0.0000 C   0  0  0  0  0  0  0  0  0  0  0  0
   -8.7685    3.9375    0.0000 C   0  0  0  0  0  0  0  0  0  0  0  0
    1.6238    6.9375    0.0000 C   0  0  0  0  0  0  0  0  0  0  0  0
   -8.7685    6.9375    0.0000 C   0  0  0  0  0  0  0  0  0  0  0  0
   -7.4695    4.6875    0.0000 C   0  0  0  0  0  0  0  0  0  0  0  0
    0.3248    6.1875    0.0000 C   0  0  0  0  0  0  0  0  0  0  0  0
   -0.9743    6.9375    0.0000 C   0  0  0  0  0  0  0  0  0  0  0  0
   -2.2733    6.1875    0.0000 C   0  0  0  0  0  0  0  0  0  0  0  0
   -3.5724    6.9375    0.0000 C   0  0  0  0  0  0  0  0  0  0  0  0
   -4.8714    6.1875    0.0000 C   0  0  0  0  0  0  0  0  0  0  0  0
   -6.1704    6.9375    0.0000 N   0  0  0  0  0  0  0  0  0  0  0  0
   -7.4695    6.1875    0.0000 N   0  0  0  0  0  0  0  0  0  0  0  0
  4  1  1  0
  5  2  1  0
  6  3  1  0
  7  4  1  0
  8  7  1  0
  9  8  1  0
 10  9  1  0
 11 10  1  0
 11 12  2  0
 13  5  1  0
 13  6  1  0
 13 12  1  0
M  END
>  <NAME>  (5674) 
DIETHYLHYDRAZONE HEXANECARBALDEHYDE

>  <SYNONYMS>  (5674) 
HEPTANAL DIETHYLHYDRAZONE

>  <SPECTRUM TYPE>  (5674) 
MS1

>  <INSTRUMENT TYPE>  (5674) 
EI-B

>  <INSTRUMENT>  (5674) 
SHIMADZU LKB-2091

>  <ION MODE>  (5674) 
P

>  <INCHIKEY>  (5674) 
SJQVGFKERUZNDC-VAWYXSNFSA-N

>  <FORMULA>  (5674) 
C11H24N2

>  <EXACT MASS>  (5674) 
184.19394876799998

>  <MW>  (5674) 
184

>  <ID>  (5674) 
JP000843

>  <CONTRIBUTOR>  (5674) 
University of Tokyo Team, {Faculty of Engineering, University of Tokyo

>  <COMMENT>  (5674) 
SMILES=CCCCCCC=NN(CC)CC
InChI=InChI=1S/C11H24N2/c1-4-7-8-9-10-11-12-13(5-2)6-3/h11H,4-10H2,1-3H3/b12-11+
computed SMILES=N(=CCCCCCC)N(CC)CC
accession=JP000843
date=2016.01.19 (Created 2008.10.21, modified 2011.05.06)
author=SASAKI S, TOYOHASHI UNIV. OF TECH.
license=CC BY-NC-SA
exact mass=184.19395
ionization energy=70 eV
ion type=[M]+*
computed spectral entropy=3.1145392242884777
computed normalized entropy=0.7844610149841543
SPLASH=splash10-014i-9700000000-3e397ac0be01e08e4712
submitter=submitter = University of Tokyo Team (Faculty of Engineering, University of Tokyo)
MoNA Rating=3.75

>  <NUM PEAKS>  (5674) 
53

>  <MASS SPECTRAL PEAKS>  (5674) 
28 15.6
29 25.6
30 24.4
39 0.38
40 1.1
41 15
42 17.5
43 1.88
44 22.8
45 0.9
53 1.1
54 0.15
55 7.8
56 17.2
57 6.6
58 3.75
59 5.9
67 1
68 1.5
69 0.47
70 7.8
71 6.6
72 9.4
73 0.55
82 1.2
83 2.5
84 1.2
85 0.88
86 1.4
87 24.4
88 2.8
95 0.12
97 2.2
99 12.8
100 1.2
110 0.06
111 1.1
112 2.5
113 25
114 3.44
115 2.5
127 7.5
128 1.5
141 0.41
142 1.4
155 16.2
156 2.2
169 99.99
170 13.4
171 0.7
183 3.1
184 3.75
185 5.6

>  <PREDICTED SPECTRUM>  (5674) 
26 16
27 172
28 141
29 291
30 347
31 15
39 118
40 44
41 364
42 310
43 352
44 452
45 124
53 79
54 132
55 390
56 456
57 373
58 506
59 144
67 95
68 132
69 245
70 272
71 285
72 247
73 320
74 98
81 47
82 75
83 138
84 180
85 381
86 227
87 188
88 16
95 25
96 32
97 136
98 47
99 366
100 110
101 58
110 53
111 68
112 82
113 456
114 246
115 60
125 81
127 321
128 37
139 27
141 201
142 62
153 1
155 397
156 114
157 33
167 3
169 999
170 378
171 129
183 172
184 554
185 193

$$$$

     RDKit          2D

 13 12  0  0  0  0  0  0  0  0999 V2000
    2.5981    4.5000    0.0000 C   0  0  0  0  0  0  0  0  0  0  0  0
   -7.7942    4.5000    0.0000 C   0  0  0  0  0  0  0  0  0  0  0  0
   -6.4952    6.7500    0.0000 C   0  0  0  0  0  0  0  0  0  0  0  0
   -5.1962    7.5000    0.0000 C   0  0  0  0  0  0  0  0  0  0  0  0
   -2.5981    7.5000    0.0000 C   0  0  0  0  0  0  0  0  0  0  0  0
    1.2990    5.2500    0.0000 C   0  0  0  0  0  0  0  0  0  0  0  0
    0.0000    4.5000    0.0000 C   0  0  0  0  0  0  0  0  0  0  0  0
   -1.2990    5.2500    0.0000 C   0  0  0  0  0  0  0  0  0  0  0  0
   -5.1962    4.5000    0.0000 C   0  0  0  0  0  0  0  0  0  0  0  0
   -6.4952    5.2500    0.0000 C   0  0  0  0  0  0  0  0  0  0  0  0
   -3.8971    6.7500    0.0000 C   0  0  0  0  0  0  0  0  0  0  0  0
   -2.5981    4.5000    0.0000 N   0  0  0  0  0  0  0  0  0  0  0  0
   -3.8971    5.2500    0.0000 N   0  0  0  0  0  0  0  0  0  0  0  0
  6  1  1  0
  7  6  1  0
  8  7  1  0
 10  2  1  0
 10  3  1  0
 10  9  1  0
 11  4  1  0
 11  5  1  0
  8 12  2  0
 13  9  1  0
 13 11  1  0
 13 12  1  0
M  END
>  <NAME>  (5675) 
ISOPROPYLISOBUTYLHYDRAZONE ISOBUTYRALDEHYDE

>  <SYNONYMS>  (5675) 
ISOBUTYRALDEHYDE ISOBUTYLISOPROPYLHYDRAZONE

>  <SPECTRUM TYPE>  (5675) 
MS1

>  <INSTRUMENT TYPE>  (5675) 
EI-B

>  <INSTRUMENT>  (5675) 
SHIMADZU LKB-2091

>  <ION MODE>  (5675) 
P

>  <INCHIKEY>  (5675) 
RUIGJZCKVBPILW-XYOKQWHBSA-N

>  <FORMULA>  (5675) 
C11H24N2

>  <EXACT MASS>  (5675) 
184.19394876799998

>  <MW>  (5675) 
184

>  <ID>  (5675) 
JP000842

>  <CONTRIBUTOR>  (5675) 
University of Tokyo Team, {Faculty of Engineering, University of Tokyo

>  <COMMENT>  (5675) 
SMILES=CCCC=NN(CC(C)C)C(C)C
InChI=InChI=1S/C11H24N2/c1-6-7-8-12-13(11(4)5)9-10(2)3/h8,10-11H,6-7,9H2,1-5H3/b12-8+
computed SMILES=N(=CCCC)N(CC(C)C)C(C)C
accession=JP000842
date=2016.01.19 (Created 2008.10.21, modified 2011.05.06)
author=SASAKI S, TOYOHASHI UNIV. OF TECH.
license=CC BY-NC-SA
exact mass=184.19395
ionization energy=70 eV
ion type=[M]+*
computed spectral entropy=2.448474843526188
computed normalized entropy=0.6637448780809533
SPLASH=splash10-0007-9700000000-21ac91cadc9d6780219d
submitter=submitter = University of Tokyo Team (Faculty of Engineering, University of Tokyo)
MoNA Rating=3.75

>  <NUM PEAKS>  (5675) 
40

>  <MASS SPECTRAL PEAKS>  (5675) 
28 5.4
29 9.4
30 15.2
31 0.04
39 4.2
41 17.4
42 5.3
43 2.28
44 4.9
53 0.6
54 0.9
55 0.52
56 7.5
57 8.2
58 3.8
68 0.08
69 1.2
70 13
71 1.7
82 0.1
83 0.9
84 0.6
85 0.6
98 0.06
99 70.6
100 5.3
111 0.3
112 0.04
113 7.8
114 0.8
125 0.8
127 0.13
141 99.99
142 7.9
143 0.5
169 1.09
170 1.2
183 0.6
184 18.5
185 3.3

>  <PREDICTED SPECTRUM>  (5675) 
26 25
27 192
28 91
29 168
30 223
39 229
40 86
41 394
42 229
43 207
44 108
52 16
53 105
54 103
55 180
56 218
57 330
58 119
66 27
67 84
68 88
69 124
70 278
71 226
72 126
73 17
74 8
82 17
83 141
84 115
85 219
86 126
97 137
98 22
99 894
100 230
101 55
111 78
113 149
114 25
125 114
127 140
139 56
141 999
142 343
153 5
155 2
169 198
170 99
183 110
184 376
185 136

$$$$

     RDKit          2D

 11 10  0  0  0  0  0  0  0  0999 V2000
   -8.4437    3.3750    0.0000 C   0  0  0  0  0  0  0  0  0  0  0  0
    0.6495    2.6250    0.0000 C   0  0  0  0  0  0  0  0  0  0  0  0
   -1.9486    7.1250    0.0000 C   0  0  0  0  0  0  0  0  0  0  0  0
   -7.1447    2.6250    0.0000 C   0  0  0  0  0  0  0  0  0  0  0  0
   -0.6495    3.3750    0.0000 C   0  0  0  0  0  0  0  0  0  0  0  0
   -1.9486    5.6250    0.0000 C   0  0  0  0  0  0  0  0  0  0  0  0
   -5.8457    3.3750    0.0000 C   0  0  0  0  0  0  0  0  0  0  0  0
   -1.9486    2.6250    0.0000 C   0  0  0  0  0  0  0  0  0  0  0  0
   -3.2476    4.8750    0.0000 C   0  0  0  0  0  0  0  0  0  0  0  0
   -4.5466    2.6250    0.0000 N   0  0  0  0  0  0  0  0  0  0  0  0
   -3.2476    3.3750    0.0000 N   0  0  0  0  0  0  0  0  0  0  0  0
  4  1  1  0
  5  2  1  0
  6  3  1  0
  7  4  1  0
  8  5  1  0
  9  6  1  0
  7 10  2  0
 11  8  1  0
 11  9  1  0
 11 10  1  0
M  END
>  <NAME>  (5676) 
DI-N-PROPYLHYDRAZONE PROPIONALDEHYDE

>  <SYNONYMS>  (5676) 
PROPIONALDEHYDE DIPROPYLHYDRAZONE

>  <SPECTRUM TYPE>  (5676) 
MS1

>  <INSTRUMENT TYPE>  (5676) 
EI-B

>  <INSTRUMENT>  (5676) 
SHIMADZU LKB-2091

>  <ION MODE>  (5676) 
P

>  <INCHIKEY>  (5676) 
HZLLEYSUZNQXGX-JXMROGBWSA-N

>  <FORMULA>  (5676) 
C9H20N2

>  <EXACT MASS>  (5676) 
156.16264864

>  <MW>  (5676) 
156

>  <ID>  (5676) 
JP000840

>  <CONTRIBUTOR>  (5676) 
University of Tokyo Team, {Faculty of Engineering, University of Tokyo

>  <COMMENT>  (5676) 
SMILES=CCC=NN(CCC)CCC
InChI=InChI=1S/C9H20N2/c1-4-7-10-11(8-5-2)9-6-3/h7H,4-6,8-9H2,1-3H3/b10-7+
computed SMILES=N(=CCC)N(CCC)CCC
accession=JP000840
date=2016.01.19 (Created 2008.10.21, modified 2011.05.06)
author=SASAKI S, TOYOHASHI UNIV. OF TECH.
license=CC BY-NC-SA
exact mass=156.16265
ionization energy=70 eV
ion type=[M]+*
computed spectral entropy=2.335766113920714
computed normalized entropy=0.67395963784598
SPLASH=splash10-004i-9700000000-6b7dba942c451a621227
submitter=submitter = University of Tokyo Team (Faculty of Engineering, University of Tokyo)
MoNA Rating=3.75

>  <NUM PEAKS>  (5676) 
32

>  <MASS SPECTRAL PEAKS>  (5676) 
28 12.6
29 4.3
30 24
31 0.05
32 1.8
39 3.3
40 0.8
41 1.92
42 8.1
43 25.3
44 2.3
54 0.09
55 0.8
56 7.4
57 1.1
58 0.39
59 0.7
70 4.7
71 0.8
72 0.39
83 0.6
85 32.9
86 1.5
97 0.05
98 0.6
99 24.7
100 0.6
113 0.85
127 99.99
128 6.9
156 15.8
157 1.5

>  <PREDICTED SPECTRUM>  (5676) 
26 40
27 282
28 147
29 301
30 361
31 88
39 280
40 121
41 657
42 496
43 693
44 227
45 188
46 120
53 100
54 100
55 327
56 357
57 448
58 123
59 284
67 79
68 146
69 276
70 479
71 363
72 789
73 30
81 132
83 245
84 176
85 727
86 323
87 152
95 24
97 153
98 87
99 220
100 14
111 374
112 194
113 294
114 72
126 86
127 999
128 287
129 88
139 17
141 255
142 50
155 188
156 543
157 165
158 4

$$$$

     RDKit          2D

 10  9  0  0  0  0  0  0  0  0999 V2000
    1.9486    3.3750    0.0000 C   0  0  0  0  0  0  0  0  0  0  0  0
    0.6495    1.1250    0.0000 C   0  0  0  0  0  0  0  0  0  0  0  0
   -5.8457    3.3750    0.0000 C   0  0  0  0  0  0  0  0  0  0  0  0
   -4.5466    5.6250    0.0000 C   0  0  0  0  0  0  0  0  0  0  0  0
    0.6495    4.1250    0.0000 C   0  0  0  0  0  0  0  0  0  0  0  0
   -0.6495    1.8750    0.0000 C   0  0  0  0  0  0  0  0  0  0  0  0
   -3.2476    3.3750    0.0000 C   0  0  0  0  0  0  0  0  0  0  0  0
   -4.5466    4.1250    0.0000 C   0  0  0  0  0  0  0  0  0  0  0  0
   -1.9486    4.1250    0.0000 N   0  0  0  0  0  0  0  0  0  0  0  0
   -0.6495    3.3750    0.0000 N   0  0  0  0  0  0  0  0  0  0  0  0
  5  1  1  0
  6  2  1  0
  8  3  1  0
  8  4  1  0
  8  7  1  0
  7  9  2  0
 10  5  1  0
 10  6  1  0
 10  9  1  0
M  END
>  <NAME>  (5677) 
DIETHYLHYDRAZONE ISOBUTYRALDEHYDE

>  <SYNONYMS>  (5677) 
ISOBUTYRALDEHYDE DIETHYLHYDRAZONE

>  <SPECTRUM TYPE>  (5677) 
MS1

>  <INSTRUMENT TYPE>  (5677) 
EI-B

>  <INSTRUMENT>  (5677) 
SHIMADZU LKB-2091

>  <ION MODE>  (5677) 
P

>  <INCHIKEY>  (5677) 
KDMGAIKQJYFJMZ-VQHVLOKHSA-N

>  <FORMULA>  (5677) 
C8H18N2

>  <EXACT MASS>  (5677) 
142.146998576

>  <MW>  (5677) 
142

>  <ID>  (5677) 
JP000839

>  <CONTRIBUTOR>  (5677) 
University of Tokyo Team, {Faculty of Engineering, University of Tokyo

>  <COMMENT>  (5677) 
SMILES=CCN(CC)N=CC(C)C
InChI=InChI=1S/C8H18N2/c1-5-10(6-2)9-7-8(3)4/h7-8H,5-6H2,1-4H3/b9-7+
computed SMILES=N(=CC(C)C)N(CC)CC
accession=JP000839
date=2016.01.19 (Created 2008.10.21, modified 2011.05.06)
author=SASAKI S, TOYOHASHI UNIV. OF TECH.
license=CC BY-NC-SA
exact mass=142.147
ionization energy=70 eV
ion type=[M]+*
computed spectral entropy=2.7645192831735987
computed normalized entropy=0.7444366861653591
SPLASH=splash10-056r-9400000000-5ff380ba5e9d95a637ad
submitter=submitter = University of Tokyo Team (Faculty of Engineering, University of Tokyo)
MoNA Rating=3.75

>  <NUM PEAKS>  (5677) 
41

>  <MASS SPECTRAL PEAKS>  (5677) 
26 1.6
27 16.4
28 18.2
29 4.55
30 25.9
31 1.8
39 7.3
40 0.17
41 17.7
42 2
43 40.9
44 2.64
45 1.9
53 1.2
54 1.6
55 0.54
56 14.5
57 8.2
58 56.9
59 0.39
68 1.5
69 1.6
70 12.3
71 0.28
72 14.8
73 4.6
74 0.9
83 0.11
84 0.8
85 1.1
86 2
97 0.11
99 4.6
111 1
113 19.5
114 0.19
127 99.99
128 11.7
141 3.4
142 5
143 4.8

>  <PREDICTED SPECTRUM>  (5677) 
14 27
15 129
16 6
17 20
18 60
26 81
27 394
28 329
29 509
30 457
31 29
32 8
39 157
40 110
41 291
42 443
43 294
44 450
53 52
54 105
55 281
56 379
57 270
58 488
59 14
67 43
68 121
69 175
70 417
71 345
72 342
73 42
82 90
83 208
84 122
85 232
97 162
98 67
99 297
112 37
113 399
114 16
127 999
128 269
141 146
142 621
143 213

$$$$

     RDKit          2D

 10  9  0  0  0  0  0  0  0  0999 V2000
    1.9486    2.6250    0.0000 C   0  0  0  0  0  0  0  0  0  0  0  0
   -4.5466    3.3750    0.0000 C   0  0  0  0  0  0  0  0  0  0  0  0
   -3.2476    1.1250    0.0000 C   0  0  0  0  0  0  0  0  0  0  0  0
   -3.2476    5.6250    0.0000 C   0  0  0  0  0  0  0  0  0  0  0  0
   -0.6495    5.6250    0.0000 C   0  0  0  0  0  0  0  0  0  0  0  0
    0.6495    3.3750    0.0000 C   0  0  0  0  0  0  0  0  0  0  0  0
   -3.2476    2.6250    0.0000 C   0  0  0  0  0  0  0  0  0  0  0  0
   -1.9486    4.8750    0.0000 C   0  0  0  0  0  0  0  0  0  0  0  0
   -0.6495    2.6250    0.0000 N   0  0  0  0  0  0  0  0  0  0  0  0
   -1.9486    3.3750    0.0000 N   0  0  0  0  0  0  0  0  0  0  0  0
  6  1  1  0
  7  2  1  0
  7  3  1  0
  8  4  1  0
  8  5  1  0
  6  9  2  0
 10  7  1  0
 10  8  1  0
 10  9  1  0
M  END
>  <NAME>  (5678) 
DIISOPROPYLHYDRAZONE ACETALDEHYDE

>  <SYNONYMS>  (5678) 
ACETALDEHYDE DIISOPROPYLHYDRAZONE

>  <SPECTRUM TYPE>  (5678) 
MS1

>  <INSTRUMENT TYPE>  (5678) 
EI-B

>  <INSTRUMENT>  (5678) 
SHIMADZU LKB-2091

>  <ION MODE>  (5678) 
P

>  <INCHIKEY>  (5678) 
APXNZZVBAPDZPY-RMKNXTFCSA-N

>  <FORMULA>  (5678) 
C8H18N2

>  <EXACT MASS>  (5678) 
142.146998576

>  <MW>  (5678) 
142

>  <ID>  (5678) 
JP000838

>  <CONTRIBUTOR>  (5678) 
University of Tokyo Team, {Faculty of Engineering, University of Tokyo

>  <COMMENT>  (5678) 
SMILES=CC=NN(C(C)C)C(C)C
InChI=InChI=1S/C8H18N2/c1-6-9-10(7(2)3)8(4)5/h6-8H,1-5H3/b9-6+
computed SMILES=N(=CC)N(C(C)C)C(C)C
accession=JP000838
date=2016.01.19 (Created 2008.10.21, modified 2011.05.06)
author=SASAKI S, TOYOHASHI UNIV. OF TECH.
license=CC BY-NC-SA
exact mass=142.147
ionization energy=70 eV
ion type=[M]+*
computed spectral entropy=2.2732365893784094
computed normalized entropy=0.6750926274830865
SPLASH=splash10-002u-9100000000-9e875d86da94b73b0134
submitter=submitter = University of Tokyo Team (Faculty of Engineering, University of Tokyo)
MoNA Rating=3.75

>  <NUM PEAKS>  (5678) 
29

>  <MASS SPECTRAL PEAKS>  (5678) 
26 1.9
27 19.7
28 4.6
29 1.62
30 3.5
39 6.4
40 1.8
41 2.2
42 20.5
43 27.8
44 33.3
45 0.09
54 0.8
55 1.2
56 5.8
57 1.16
58 4
68 1.3
69 1.2
70 0.32
83 0.8
84 1.2
85 99.99
86 0.56
100 2.4
127 41.6
128 3.7
142 1.61
143 1.9

>  <PREDICTED SPECTRUM>  (5678) 
14 17
15 118
18 10
26 44
27 354
28 293
29 356
30 206
39 286
40 143
41 609
42 608
43 465
44 595
45 7
54 153
55 59
56 287
57 140
58 108
68 74
69 100
70 287
71 67
72 39
83 13
84 115
85 999
86 144
99 15
127 586
128 156
142 479
143 137

$$$$

     RDKit          2D

 10 10  0  0  0  0  0  0  0  0999 V2000
   -3.6979    2.5950    0.0000 C   0  0  0  0  0  0  0  0  0  0  0  0
   -2.3989    1.8450    0.0000 C   0  0  0  0  0  0  0  0  0  0  0  0
    3.4234    0.8495    0.0000 C   0  0  0  0  0  0  0  0  0  0  0  0
    2.6734   -0.4495    0.0000 C   0  0  0  0  0  0  0  0  0  0  0  0
    2.8802    2.2486    0.0000 C   0  0  0  0  0  0  0  0  0  0  0  0
    1.1902   -0.6786    0.0000 C   0  0  0  0  0  0  0  0  0  0  0  0
    1.4371    2.6891    0.0000 C   0  0  0  0  0  0  0  0  0  0  0  0
    0.0871    0.3509    0.0000 C   0  0  0  0  0  0  0  0  0  0  0  0
   -1.0999    2.5950    0.0000 N   0  0  0  0  0  0  0  0  0  0  0  0
    0.1992    1.8450    0.0000 N   0  0  0  0  0  0  0  0  0  0  0  0
  2  1  1  0
  4  3  1  0
  5  3  1  0
  6  4  1  0
  7  5  1  0
  8  6  1  0
  2  9  2  0
 10  7  1  0
 10  8  1  0
 10  9  1  0
M  END
>  <NAME>  (5679) 
HEXAMETHYLENEHYDRAZONE ACETALDEHYDE

>  <SYNONYMS>  (5679) 
ACETALDEHYDE HEXAMETHYLENEHYDRAZONE

>  <SPECTRUM TYPE>  (5679) 
MS1

>  <INSTRUMENT TYPE>  (5679) 
EI-B

>  <INSTRUMENT>  (5679) 
SHIMADZU LKB-2091

>  <ION MODE>  (5679) 
P

>  <INCHIKEY>  (5679) 
XLYFNXWSNVFHET-XNWCZRBMSA-N

>  <FORMULA>  (5679) 
C8H16N2

>  <EXACT MASS>  (5679) 
140.131348512

>  <MW>  (5679) 
140

>  <ID>  (5679) 
JP000837

>  <CONTRIBUTOR>  (5679) 
University of Tokyo Team, {Faculty of Engineering, University of Tokyo

>  <COMMENT>  (5679) 
SMILES=CC=NN(C1)CCCCC1
InChI=InChI=1S/C8H16N2/c1-2-9-10-7-5-3-4-6-8-10/h2H,3-8H2,1H3/b9-2+
computed SMILES=N(=CC)N1CCCCCC1
accession=JP000837
date=2016.01.19 (Created 2008.10.21, modified 2011.05.06)
author=SASAKI S, TOYOHASHI UNIV. OF TECH.
license=CC BY-NC-SA
exact mass=140.13135
ionization energy=70 eV
ion type=[M]+*
computed spectral entropy=2.905002079037065
computed normalized entropy=0.8170795176155259
SPLASH=splash10-0006-9100000000-f132c35a2f699f06b8d9
submitter=submitter = University of Tokyo Team (Faculty of Engineering, University of Tokyo)
MoNA Rating=3.75

>  <NUM PEAKS>  (5679) 
35

>  <MASS SPECTRAL PEAKS>  (5679) 
28 26.2
29 14.2
30 19.6
39 1.31
40 4.6
41 42.3
42 99.99
43 1.89
44 20.8
53 2.7
54 3.5
55 1.73
56 15
57 6.5
58 3.5
67 0.23
68 8.5
69 42.3
70 16.2
71 1.83
72 4.2
82 7.3
83 5.8
84 0.66
85 13.5
96 9.6
97 19.2
98 2.31
99 2.3
111 13.1
112 2.2
125 0.81
139 11.2
140 42.3
141 5

>  <PREDICTED SPECTRUM>  (5679) 
14 42
15 149
16 19
17 19
18 68
25 9
26 122
27 412
28 394
29 439
30 600
31 125
32 28
34 9
36 46
37 44
38 109
39 416
40 227
41 775
42 787
43 435
44 425
45 119
46 71
49 7
50 36
51 102
52 53
53 144
54 327
55 575
56 571
57 451
58 233
59 85
66 4
67 67
68 270
69 464
70 508
71 210
73 39
77 30
78 23
80 10
81 129
82 361
83 374
84 564
85 253
86 186
96 324
97 311
98 279
99 128
109 33
110 56
111 239
112 82
123 110
124 55
125 282
126 5
139 344
140 999
141 292
142 66

$$$$

     RDKit          2D

  9  8  0  0  0  0  0  0  0  0999 V2000
   -5.5209    5.0625    0.0000 C   0  0  0  0  0  0  0  0  0  0  0  0
    2.2733    2.0625    0.0000 C   0  0  0  0  0  0  0  0  0  0  0  0
   -0.3248    2.0625    0.0000 C   0  0  0  0  0  0  0  0  0  0  0  0
   -4.2219    4.3125    0.0000 C   0  0  0  0  0  0  0  0  0  0  0  0
   -2.9228    5.0625    0.0000 C   0  0  0  0  0  0  0  0  0  0  0  0
   -1.6238    4.3125    0.0000 C   0  0  0  0  0  0  0  0  0  0  0  0
   -0.3248    5.0625    0.0000 C   0  0  0  0  0  0  0  0  0  0  0  0
    0.9743    4.3125    0.0000 N   0  0  0  0  0  0  0  0  0  0  0  0
    0.9743    2.8125    0.0000 N   0  0  0  0  0  0  0  0  0  0  0  0
  4  1  1  0
  5  4  1  0
  6  5  1  0
  7  6  1  0
  7  8  2  0
  9  2  1  0
  9  3  1  0
  9  8  1  0
M  END
>  <NAME>  (5680) 
DIMETHYLHYDRAZONE VALERALDEHYDE

>  <SYNONYMS>  (5680) 
PENTANAL DIMETHYLHYDRAZONE

>  <SPECTRUM TYPE>  (5680) 
MS1

>  <INSTRUMENT TYPE>  (5680) 
EI-B

>  <INSTRUMENT>  (5680) 
SHIMADZU LKB-2091

>  <ION MODE>  (5680) 
P

>  <INCHIKEY>  (5680) 
GETAETQIBNJCHL-FPLPWBNLSA-N

>  <FORMULA>  (5680) 
C7H16N2

>  <EXACT MASS>  (5680) 
128.131348512

>  <MW>  (5680) 
128

>  <ID>  (5680) 
JP000836

>  <CONTRIBUTOR>  (5680) 
University of Tokyo Team, {Faculty of Engineering, University of Tokyo

>  <COMMENT>  (5680) 
SMILES=CCCCC=NN(C)C
InChI=InChI=1S/C7H16N2/c1-4-5-6-7-8-9(2)3/h7H,4-6H2,1-3H3/b8-7-
computed SMILES=N(=CCCCC)N(C)C
accession=JP000836
date=2016.01.19 (Created 2008.10.21, modified 2011.05.06)
author=SASAKI S, TOYOHASHI UNIV. OF TECH.
license=CC BY-NC-SA
exact mass=128.13135
ionization energy=70 eV
ion type=[M]+*
computed spectral entropy=2.599374117848404
computed normalized entropy=0.7719470605167605
SPLASH=splash10-0006-9000000000-0f0ce54b2c4984a4d6df
submitter=submitter = University of Tokyo Team (Faculty of Engineering, University of Tokyo)
MoNA Rating=3.75

>  <NUM PEAKS>  (5680) 
29

>  <MASS SPECTRAL PEAKS>  (5680) 
27 19.4
29 12.5
30 10
39 0.76
41 17.5
42 46.2
43 48.8
44 99.99
45 36.2
46 4.1
55 5.5
56 0.75
57 5.5
58 8.8
70 2.8
71 1.56
72 3.2
83 2.4
84 3.1
85 8.11
86 83.9
87 4.8
99 17.5
100 0.3
113 11.3
114 1
127 2.2
128 6.61
129 6.1

>  <PREDICTED SPECTRUM>  (5680) 
30 24
39 116
40 98
41 659
42 837
43 838
44 999
45 646
46 238
52 11
53 141
54 165
55 352
56 350
57 663
58 575
59 664
60 141
61 18
68 238
69 244
70 281
71 662
72 475
73 184
82 0
83 146
84 504
85 726
86 537
87 25
99 120
100 56
113 182
127 105
128 848
129 224
130 50

$$$$

     RDKit          2D

  9  8  0  0  0  0  0  0  0  0999 V2000
    1.6238    3.9375    0.0000 C   0  0  0  0  0  0  0  0  0  0  0  0
   -6.1704    3.9375    0.0000 C   0  0  0  0  0  0  0  0  0  0  0  0
   -4.8714    1.6875    0.0000 C   0  0  0  0  0  0  0  0  0  0  0  0
    0.3248    4.6875    0.0000 C   0  0  0  0  0  0  0  0  0  0  0  0
   -4.8714    4.6875    0.0000 C   0  0  0  0  0  0  0  0  0  0  0  0
   -3.5724    2.4375    0.0000 C   0  0  0  0  0  0  0  0  0  0  0  0
   -0.9743    3.9375    0.0000 C   0  0  0  0  0  0  0  0  0  0  0  0
   -2.2733    4.6875    0.0000 N   0  0  0  0  0  0  0  0  0  0  0  0
   -3.5724    3.9375    0.0000 N   0  0  0  0  0  0  0  0  0  0  0  0
  4  1  1  0
  5  2  1  0
  6  3  1  0
  7  4  1  0
  7  8  2  0
  9  5  1  0
  9  6  1  0
  9  8  1  0
M  END
>  <NAME>  (5681) 
DIETHYLHYDRAZONE PROPIONALDEHYDE

>  <SYNONYMS>  (5681) 
PROPIONALDEHYDE DIETHYLHYDRAZONE

>  <SPECTRUM TYPE>  (5681) 
MS1

>  <INSTRUMENT TYPE>  (5681) 
EI-B

>  <INSTRUMENT>  (5681) 
SHIMADZU LKB-2091

>  <ION MODE>  (5681) 
P

>  <INCHIKEY>  (5681) 
KIKLTTLXIQUYDB-BQYQJAHWSA-N

>  <FORMULA>  (5681) 
C7H16N2

>  <EXACT MASS>  (5681) 
128.131348512

>  <MW>  (5681) 
128

>  <ID>  (5681) 
JP000835

>  <CONTRIBUTOR>  (5681) 
University of Tokyo Team, {Faculty of Engineering, University of Tokyo

>  <COMMENT>  (5681) 
SMILES=CCC=NN(CC)CC
InChI=InChI=1S/C7H16N2/c1-4-7-8-9(5-2)6-3/h7H,4-6H2,1-3H3/b8-7+
computed SMILES=N(=CCC)N(CC)CC
accession=JP000835
date=2016.01.19 (Created 2008.10.21, modified 2011.05.06)
author=SASAKI S, TOYOHASHI UNIV. OF TECH.
license=CC BY-NC-SA
exact mass=128.13135
ionization energy=70 eV
ion type=[M]+*
computed spectral entropy=2.551006289887365
computed normalized entropy=0.711871859392605
SPLASH=splash10-03fr-9600000000-5a10eea91a8798e862e8
submitter=submitter = University of Tokyo Team (Faculty of Engineering, University of Tokyo)
MoNA Rating=3.75

>  <NUM PEAKS>  (5681) 
36

>  <MASS SPECTRAL PEAKS>  (5681) 
28 22.2
29 28.9
30 44.5
31 0.13
39 5.1
40 2
41 14.9
42 1.91
43 10.2
44 18
45 0.8
54 0.2
55 1.6
56 22.2
57 3.1
58 3.34
59 2.4
69 0.9
70 4.4
71 0.2
72 4
73 0.9
83 0.7
84 0.07
85 7.6
86 1.9
87 1.4
97 0.06
99 5.5
100 0.7
113 99.99
114 0.85
115 0.5
127 3.1
128 35.5
129 3.8

>  <PREDICTED SPECTRUM>  (5681) 
15 17
18 0
26 51
27 315
28 275
29 516
30 480
39 184
40 91
41 311
42 366
43 202
44 527
45 56
53 74
54 88
55 314
56 471
57 348
58 630
59 94
67 82
68 134
69 265
70 184
71 364
72 166
73 185
74 33
82 47
83 191
84 152
85 245
86 2
87 111
97 32
98 40
99 375
100 56
101 39
113 999
114 286
115 57
127 161
128 646
129 217
130 17

$$$$

     RDKit          2D

  9  8  0  0  0  0  0  0  0  0999 V2000
    2.2733    2.0625    0.0000 C   0  0  0  0  0  0  0  0  0  0  0  0
   -4.2219    2.8125    0.0000 C   0  0  0  0  0  0  0  0  0  0  0  0
   -2.9228    5.0625    0.0000 C   0  0  0  0  0  0  0  0  0  0  0  0
   -0.3248    5.0625    0.0000 C   0  0  0  0  0  0  0  0  0  0  0  0
    0.9743    2.8125    0.0000 C   0  0  0  0  0  0  0  0  0  0  0  0
   -2.9228    2.0625    0.0000 C   0  0  0  0  0  0  0  0  0  0  0  0
   -1.6238    4.3125    0.0000 C   0  0  0  0  0  0  0  0  0  0  0  0
   -0.3248    2.0625    0.0000 N   0  0  0  0  0  0  0  0  0  0  0  0
   -1.6238    2.8125    0.0000 N   0  0  0  0  0  0  0  0  0  0  0  0
  5  1  1  0
  6  2  1  0
  7  3  1  0
  7  4  1  0
  5  8  2  0
  9  6  1  0
  9  7  1  0
  9  8  1  0
M  END
>  <NAME>  (5682) 
ETHYLISOPROPYLHYDRAZONE ACETALDEHYDE

>  <SYNONYMS>  (5682) 
ACETALDEHYDE ETHYLISOPROPYLHYDRAZONE

>  <SPECTRUM TYPE>  (5682) 
MS1

>  <INSTRUMENT TYPE>  (5682) 
EI-B

>  <INSTRUMENT>  (5682) 
SHIMADZU LKB-2091

>  <ION MODE>  (5682) 
P

>  <INCHIKEY>  (5682) 
KBQAGUKZIMHXKW-VMPITWQZSA-N

>  <FORMULA>  (5682) 
C7H16N2

>  <EXACT MASS>  (5682) 
128.131348512

>  <MW>  (5682) 
128

>  <ID>  (5682) 
JP000834

>  <CONTRIBUTOR>  (5682) 
University of Tokyo Team, {Faculty of Engineering, University of Tokyo

>  <COMMENT>  (5682) 
SMILES=CC=NN(CC)C(C)C
InChI=InChI=1S/C7H16N2/c1-5-8-9(6-2)7(3)4/h5,7H,6H2,1-4H3/b8-5+
computed SMILES=N(=CC)N(CC)C(C)C
accession=JP000834
date=2016.01.19 (Created 2008.10.21, modified 2011.05.06)
author=SASAKI S, TOYOHASHI UNIV. OF TECH.
license=CC BY-NC-SA
exact mass=128.13135
ionization energy=70 eV
ion type=[M]+*
computed spectral entropy=2.613991622877184
computed normalized entropy=0.7762880824426062
SPLASH=splash10-03fu-9400000000-867c772cc2a47ff3416c
submitter=submitter = University of Tokyo Team (Faculty of Engineering, University of Tokyo)
MoNA Rating=3.75

>  <NUM PEAKS>  (5682) 
29

>  <MASS SPECTRAL PEAKS>  (5682) 
27 15.8
28 15.8
29 28.5
30 1.16
39 4.9
40 1.8
41 13.3
42 4.25
43 17
44 27.9
45 1.1
54 0.11
55 1.9
56 14.6
57 6.9
58 0.38
68 1.7
69 2.1
70 19.4
71 4.49
72 4.8
84 15.8
85 12.1
86 0.12
113 99.99
114 8.4
127 1
128 3.27
129 4.1

>  <PREDICTED SPECTRUM>  (5682) 
14 40
15 153
16 14
17 29
18 63
26 89
27 411
28 385
29 427
30 376
32 13
38 39
39 320
40 181
41 612
42 746
43 586
44 579
45 42
54 161
55 247
56 569
57 253
58 198
59 24
68 49
69 263
70 468
71 653
72 246
83 65
84 105
85 385
86 132
99 43
113 999
114 232
127 131
128 572
129 172

$$$$

     RDKit          2D

  9  8  0  0  0  0  0  0  0  0999 V2000
    1.9486    3.3750    0.0000 C   0  0  0  0  0  0  0  0  0  0  0  0
   -5.8457    3.3750    0.0000 C   0  0  0  0  0  0  0  0  0  0  0  0
   -3.2476    6.3750    0.0000 C   0  0  0  0  0  0  0  0  0  0  0  0
    0.6495    4.1250    0.0000 C   0  0  0  0  0  0  0  0  0  0  0  0
   -4.5466    4.1250    0.0000 C   0  0  0  0  0  0  0  0  0  0  0  0
   -0.6495    3.3750    0.0000 C   0  0  0  0  0  0  0  0  0  0  0  0
   -3.2476    3.3750    0.0000 C   0  0  0  0  0  0  0  0  0  0  0  0
   -1.9486    5.6250    0.0000 N   0  0  0  0  0  0  0  0  0  0  0  0
   -1.9486    4.1250    0.0000 N   0  0  0  0  0  0  0  0  0  0  0  0
  4  1  1  0
  5  2  1  0
  6  4  1  0
  7  5  1  0
  8  3  2  0
  9  6  1  0
  9  7  1  0
  9  8  1  0
M  END
>  <NAME>  (5683) 
DI-N-PROPYLHYDRAZONE FORMALDEHYDE

>  <SYNONYMS>  (5683) 
FORMALDEHYDE DIPROPYLHYDRAZONE

>  <SPECTRUM TYPE>  (5683) 
MS1

>  <INSTRUMENT TYPE>  (5683) 
EI-B

>  <INSTRUMENT>  (5683) 
SHIMADZU LKB-2091

>  <ION MODE>  (5683) 
P

>  <INCHIKEY>  (5683) 
GFWCHVXFEKXRSY-UHFFFAOYSA-N

>  <FORMULA>  (5683) 
C7H16N2

>  <EXACT MASS>  (5683) 
128.131348512

>  <MW>  (5683) 
128

>  <ID>  (5683) 
JP000833

>  <CONTRIBUTOR>  (5683) 
University of Tokyo Team, {Faculty of Engineering, University of Tokyo

>  <COMMENT>  (5683) 
SMILES=CCCN(N=C)CCC
InChI=InChI=1S/C7H16N2/c1-4-6-9(8-3)7-5-2/h3-7H2,1-2H3
computed SMILES=N(=C)N(CCC)CCC
accession=JP000833
date=2016.01.19 (Created 2008.10.21, modified 2011.05.06)
author=SASAKI S, TOYOHASHI UNIV. OF TECH.
license=CC BY-NC-SA
exact mass=128.13135
ionization energy=70 eV
ion type=[M]+*
computed spectral entropy=2.034142411433112
computed normalized entropy=0.648746982564702
SPLASH=splash10-052b-9100000000-34cd1c6e9b30db55393c
submitter=submitter = University of Tokyo Team (Faculty of Engineering, University of Tokyo)
MoNA Rating=3.75

>  <NUM PEAKS>  (5683) 
23

>  <MASS SPECTRAL PEAKS>  (5683) 
28 10.7
29 6.9
30 2.5
31 0.69
39 4
40 0.6
41 13.4
42 0.99
43 28
44 1.5
54 0.7
55 0.08
56 3.3
57 80
58 3.6
70 0.39
71 3.7
85 1.2
86 2.4
99 99.99
100 6.5
128 25.3
129 2.8

>  <PREDICTED SPECTRUM>  (5683) 
14 3
15 107
18 23
26 85
27 432
28 309
29 517
30 700
31 101
32 15
38 70
39 430
40 201
41 875
42 804
43 890
44 318
45 286
46 38
52 29
53 263
54 143
55 327
56 449
57 686
58 269
59 89
67 32
68 126
69 181
70 632
71 429
72 770
73 68
82 17
83 334
84 283
85 504
86 151
98 67
99 999
100 372
101 69
113 34
127 170
128 614
129 163

$$$$

     RDKit          2D

  9  9  0  0  0  0  0  0  0  0999 V2000
    3.5724   -2.4375    0.0000 C   0  0  0  0  0  0  0  0  0  0  0  0
    2.2733   -1.6875    0.0000 C   0  0  0  0  0  0  0  0  0  0  0  0
   -2.9228   -0.1875    0.0000 C   0  0  0  0  0  0  0  0  0  0  0  0
   -2.9233   -1.6883    0.0000 C   0  0  0  0  0  0  0  0  0  0  0  0
   -1.6233    0.5633    0.0000 C   0  0  0  0  0  0  0  0  0  0  0  0
   -1.6243   -2.4383    0.0000 C   0  0  0  0  0  0  0  0  0  0  0  0
   -0.3243   -0.1867    0.0000 C   0  0  0  0  0  0  0  0  0  0  0  0
    0.9743   -2.4375    0.0000 N   0  0  0  0  0  0  0  0  0  0  0  0
   -0.3248   -1.6875    0.0000 N   0  0  0  0  0  0  0  0  0  0  0  0
  2  1  1  0
  4  3  1  0
  5  3  1  0
  6  4  1  0
  7  5  1  0
  2  8  2  0
  9  6  1  0
  9  7  1  0
  9  8  1  0
M  END
>  <NAME>  (5684) 
PENTAMETHYLENEHYDRAZONE ACETALDEHYDE

>  <SYNONYMS>  (5684) 
ACETALDEHYDE PENTAMETHYLENEHYDRAZONE

>  <SPECTRUM TYPE>  (5684) 
MS1

>  <INSTRUMENT TYPE>  (5684) 
EI-B

>  <INSTRUMENT>  (5684) 
SHIMADZU LKB-2091

>  <ION MODE>  (5684) 
P

>  <INCHIKEY>  (5684) 
ANZXBMPSDRAZTQ-KRXBUXKQSA-N

>  <FORMULA>  (5684) 
C7H14N2

>  <EXACT MASS>  (5684) 
126.11569844799999

>  <MW>  (5684) 
126

>  <ID>  (5684) 
JP000832

>  <CONTRIBUTOR>  (5684) 
University of Tokyo Team, {Faculty of Engineering, University of Tokyo

>  <COMMENT>  (5684) 
SMILES=CC=NN(C1)CCCC1
InChI=InChI=1S/C7H14N2/c1-2-8-9-6-4-3-5-7-9/h2H,3-7H2,1H3/b8-2+
computed SMILES=N(=CC)N1CCCCC1
accession=JP000832
date=2016.01.19 (Created 2008.10.21, modified 2011.05.06)
author=SASAKI S, TOYOHASHI UNIV. OF TECH.
license=CC BY-NC-SA
exact mass=126.1157
ionization energy=70 eV
ion type=[M]+*
computed spectral entropy=2.7216204725666526
computed normalized entropy=0.8167627359773163
SPLASH=splash10-004i-9500000000-cd63234b3b920dbcd00a
submitter=submitter = University of Tokyo Team (Faculty of Engineering, University of Tokyo)
MoNA Rating=3.75

>  <NUM PEAKS>  (5684) 
28

>  <MASS SPECTRAL PEAKS>  (5684) 
29 24.4
30 13.7
39 13.1
40 0.42
41 31.1
42 61.9
43 8.3
44 1.66
53 3.1
54 5.7
55 36.3
56 1.84
57 10.1
67 2.3
68 3.3
69 3.58
70 28.5
71 10.9
73 3.2
82 1.19
83 15.5
84 25
85 20.2
97 2.73
111 20.2
125 99.99
126 81
127 6.2

>  <PREDICTED SPECTRUM>  (5684) 
14 41
15 143
16 19
17 26
18 62
25 6
26 117
27 385
28 375
29 383
30 502
31 115
32 19
34 11
36 9
37 47
38 100
39 379
40 221
41 702
42 758
43 392
44 372
45 90
46 15
49 20
50 40
51 89
52 55
53 109
54 322
55 579
56 524
57 438
58 83
59 71
67 84
68 245
69 479
70 492
71 279
72 112
81 83
82 356
83 319
84 647
85 170
86 68
95 102
96 178
97 253
98 119
109 102
110 79
111 265
112 6
125 428
126 999
127 293
128 74

$$$$

     RDKit          2D

  8  7  0  0  0  0  0  0  0  0999 V2000
    0.0000    0.0000    0.0000 C   0  0  0  0  0  0  0  0  0  0  0  0
    1.2990    2.2500    0.0000 C   0  0  0  0  0  0  0  0  0  0  0  0
   -2.5981    6.0000    0.0000 C   0  0  0  0  0  0  0  0  0  0  0  0
   -3.8971    3.7500    0.0000 C   0  0  0  0  0  0  0  0  0  0  0  0
   -1.2990    2.2500    0.0000 C   0  0  0  0  0  0  0  0  0  0  0  0
    0.0000    1.5000    0.0000 C   0  0  0  0  0  0  0  0  0  0  0  0
   -1.2990    3.7500    0.0000 N   0  0  0  0  0  0  0  0  0  0  0  0
   -2.5981    4.5000    0.0000 N   0  0  0  0  0  0  0  0  0  0  0  0
  6  1  1  0
  6  2  1  0
  6  5  1  0
  5  7  2  0
  8  3  1  0
  8  4  1  0
  8  7  1  0
M  END
>  <NAME>  (5685) 
DIMETHYLHYDRAZONE ISOBUTYRALDEHYDE

>  <SYNONYMS>  (5685) 
ISOBUTYRALDEHYDE DIMETHYLHYDRAZONE

>  <SPECTRUM TYPE>  (5685) 
MS1

>  <INSTRUMENT TYPE>  (5685) 
EI-B

>  <INSTRUMENT>  (5685) 
SHIMADZU LKB-2091

>  <ION MODE>  (5685) 
P

>  <INCHIKEY>  (5685) 
WQDBBOLZIXTESN-FNORWQNLSA-N

>  <FORMULA>  (5685) 
C6H14N2

>  <EXACT MASS>  (5685) 
114.11569844799999

>  <MW>  (5685) 
114

>  <ID>  (5685) 
JP000831

>  <CONTRIBUTOR>  (5685) 
University of Tokyo Team, {Faculty of Engineering, University of Tokyo

>  <COMMENT>  (5685) 
SMILES=CC(C)C=NN(C)C
InChI=InChI=1S/C6H14N2/c1-6(2)5-7-8(3)4/h5-6H,1-4H3/b7-5+
computed SMILES=N(=CC(C)C)N(C)C
accession=JP000831
date=2016.01.19 (Created 2008.10.21, modified 2011.05.06)
author=SASAKI S, TOYOHASHI UNIV. OF TECH.
license=CC BY-NC-SA
exact mass=114.1157
ionization energy=70 eV
ion type=[M]+*
computed spectral entropy=2.5598872157959134
computed normalized entropy=0.7200102975919382
SPLASH=splash10-0006-9100000000-1ddf632d048c5ce78ebd
submitter=submitter = University of Tokyo Team (Faculty of Engineering, University of Tokyo)
MoNA Rating=3.75

>  <NUM PEAKS>  (5685) 
35

>  <MASS SPECTRAL PEAKS>  (5685) 
27 13.3
28 22.9
29 7.6
30 0.53
39 9.7
40 2.7
41 15.7
42 3.37
43 99.99
44 95.2
45 37
46 0.78
52 0.8
53 1.4
54 1.9
55 0.35
56 15.7
57 2.7
58 28.9
59 0.55
68 1.7
69 1.5
70 6.4
71 0.68
72 9.4
73 0.6
83 1.9
85 0.46
86 1.6
97 0.8
99 42.2
100 0.33
113 2.1
114 49.5
115 5.8

>  <PREDICTED SPECTRUM>  (5685) 
14 11
15 100
26 11
27 144
28 156
29 175
30 240
38 7
39 198
40 151
41 458
42 751
43 723
44 999
45 395
46 90
54 108
55 152
56 468
57 392
58 214
59 199
68 20
69 126
70 219
71 583
72 295
73 0
83 5
98 6
99 473
100 117
113 153
114 850
115 249
116 34

$$$$

     RDKit          2D

  8  7  0  0  0  0  0  0  0  0999 V2000
    1.9486    3.3750    0.0000 C   0  0  0  0  0  0  0  0  0  0  0  0
   -5.8457    3.3750    0.0000 C   0  0  0  0  0  0  0  0  0  0  0  0
   -4.5466    5.6250    0.0000 C   0  0  0  0  0  0  0  0  0  0  0  0
    0.6495    4.1250    0.0000 C   0  0  0  0  0  0  0  0  0  0  0  0
   -0.6495    3.3750    0.0000 C   0  0  0  0  0  0  0  0  0  0  0  0
   -1.9486    4.1250    0.0000 C   0  0  0  0  0  0  0  0  0  0  0  0
   -3.2476    3.3750    0.0000 N   0  0  0  0  0  0  0  0  0  0  0  0
   -4.5466    4.1250    0.0000 N   0  0  0  0  0  0  0  0  0  0  0  0
  4  1  1  0
  5  4  1  0
  6  5  1  0
  6  7  2  0
  8  2  1  0
  8  3  1  0
  8  7  1  0
M  END
>  <NAME>  (5686) 
DIMETHYLHYDRAZONE BUTYRALDEHYDE

>  <SYNONYMS>  (5686) 
BUTYRALDEHYDE DIMETHYLHYDRAZONE

>  <SPECTRUM TYPE>  (5686) 
MS1

>  <INSTRUMENT TYPE>  (5686) 
EI-B

>  <INSTRUMENT>  (5686) 
SHIMADZU LKB-2091

>  <ION MODE>  (5686) 
P

>  <INCHIKEY>  (5686) 
SEEKWDSXURZRIV-VOTSOKGWSA-N

>  <FORMULA>  (5686) 
C6H14N2

>  <EXACT MASS>  (5686) 
114.115698448

>  <MW>  (5686) 
114

>  <ID>  (5686) 
JP000830

>  <CONTRIBUTOR>  (5686) 
University of Tokyo Team, {Faculty of Engineering, University of Tokyo

>  <COMMENT>  (5686) 
SMILES=CCCC=NN(C)C
InChI=InChI=1S/C6H14N2/c1-4-5-6-7-8(2)3/h6H,4-5H2,1-3H3/b7-6+
computed SMILES=N(=CCCC)N(C)C
accession=JP000830
date=2016.01.19 (Created 2008.10.21, modified 2011.05.06)
author=SASAKI S, TOYOHASHI UNIV. OF TECH.
license=CC BY-NC-SA
exact mass=114.1157
ionization energy=70 eV
ion type=[M]+*
computed spectral entropy=2.529470669647871
computed normalized entropy=0.7298509582350138
SPLASH=splash10-000f-9100000000-6a8c8e631faa653e66a1
submitter=submitter = University of Tokyo Team (Faculty of Engineering, University of Tokyo)
MoNA Rating=3.75

>  <NUM PEAKS>  (5686) 
32

>  <MASS SPECTRAL PEAKS>  (5686) 
28 12.5
29 7.5
30 6.7
39 0.71
40 2.3
41 15.4
42 45.8
43 4.58
44 99.99
45 37.5
46 1.9
53 0.1
54 0.9
55 3.8
56 5.6
57 0.42
58 12.3
59 9.4
68 1.5
69 0.1
70 4.6
71 8.7
72 5.8
73 0.14
83 1.2
85 79.1
86 16.2
99 1.12
100 0.8
113 2.8
114 58.2
115 5.2

>  <PREDICTED SPECTRUM>  (5686) 
15 39
27 85
28 118
29 117
30 157
32 13
39 177
40 153
41 573
42 741
43 789
44 999
45 668
46 240
52 22
53 80
54 225
55 394
56 409
57 315
58 139
59 435
60 20
67 36
68 189
69 227
70 582
71 660
72 413
85 51
86 287
87 56
99 378
100 128
113 105
114 757
115 209
116 18

$$$$

     RDKit          2D

  8  7  0  0  0  0  0  0  0  0999 V2000
    1.9486    2.6250    0.0000 C   0  0  0  0  0  0  0  0  0  0  0  0
   -4.5466    3.3750    0.0000 C   0  0  0  0  0  0  0  0  0  0  0  0
   -3.2476    5.6250    0.0000 C   0  0  0  0  0  0  0  0  0  0  0  0
    0.6495    3.3750    0.0000 C   0  0  0  0  0  0  0  0  0  0  0  0
   -3.2476    2.6250    0.0000 C   0  0  0  0  0  0  0  0  0  0  0  0
   -1.9486    4.8750    0.0000 C   0  0  0  0  0  0  0  0  0  0  0  0
   -0.6495    2.6250    0.0000 N   0  0  0  0  0  0  0  0  0  0  0  0
   -1.9486    3.3750    0.0000 N   0  0  0  0  0  0  0  0  0  0  0  0
  4  1  1  0
  5  2  1  0
  6  3  1  0
  4  7  2  0
  8  5  1  0
  8  6  1  0
  8  7  1  0
M  END
>  <NAME>  (5687) 
DIETHYLHYDRAZONE ACETALDEHYDE

>  <SYNONYMS>  (5687) 
ACETALDEHYDE DIETHYLHYDRAZONE

>  <SPECTRUM TYPE>  (5687) 
MS1

>  <INSTRUMENT TYPE>  (5687) 
EI-B

>  <INSTRUMENT>  (5687) 
SHIMADZU LKB-2091

>  <ION MODE>  (5687) 
P

>  <INCHIKEY>  (5687) 
XUPJINYFRLDNCY-QPJJXVBHSA-N

>  <FORMULA>  (5687) 
C6H14N2

>  <EXACT MASS>  (5687) 
114.11569844799999

>  <MW>  (5687) 
114

>  <ID>  (5687) 
JP000829

>  <CONTRIBUTOR>  (5687) 
University of Tokyo Team, {Faculty of Engineering, University of Tokyo

>  <COMMENT>  (5687) 
SMILES=CC=NN(CC)CC
InChI=InChI=1S/C6H14N2/c1-4-7-8(5-2)6-3/h4H,5-6H2,1-3H3/b7-4+
computed SMILES=N(=CC)N(CC)CC
accession=JP000829
date=2016.01.19 (Created 2008.10.21, modified 2011.05.06)
author=SASAKI S, TOYOHASHI UNIV. OF TECH.
license=CC BY-NC-SA
exact mass=114.1157
ionization energy=70 eV
ion type=[M]+*
computed spectral entropy=2.303734201334438
computed normalized entropy=0.6989830792588179
SPLASH=splash10-0002-9100000000-4ab1ccb0ac3e41104f40
submitter=submitter = University of Tokyo Team (Faculty of Engineering, University of Tokyo)
MoNA Rating=3.75

>  <NUM PEAKS>  (5687) 
27

>  <MASS SPECTRAL PEAKS>  (5687) 
26 3
27 16
28 19.5
29 3.25
30 41
31 1
39 0.9
40 0.16
41 4.8
42 27
43 3.2
44 1.8
54 0.8
55 1.1
56 20
57 0.48
58 9
69 0.9
70 4.5
71 1.8
72 1.5
85 1.8
99 99.99
100 0.62
113 3
114 38
115 3.2

>  <PREDICTED SPECTRUM>  (5687) 
14 47
15 162
16 17
17 28
18 69
25 11
26 144
27 485
28 469
29 624
30 502
31 88
38 17
39 230
40 158
41 316
42 504
43 308
44 452
45 27
53 55
54 144
55 336
56 287
57 408
58 238
59 53
67 24
68 8
69 306
70 216
71 453
72 162
73 15
83 35
84 96
85 365
86 79
99 999
100 243
101 31
113 51
114 680
115 180

$$$$

     RDKit          2D

  8  8  0  0  0  0  0  0  0  0999 V2000
    3.2958   -2.4286    0.0000 C   0  0  0  0  0  0  0  0  0  0  0  0
    1.9968   -1.6786    0.0000 C   0  0  0  0  0  0  0  0  0  0  0  0
   -2.2268    0.1260    0.0000 C   0  0  0  0  0  0  0  0  0  0  0  0
   -2.9768   -1.1731    0.0000 C   0  0  0  0  0  0  0  0  0  0  0  0
   -0.7670   -0.1857    0.0000 C   0  0  0  0  0  0  0  0  0  0  0  0
   -1.9770   -2.2814    0.0000 C   0  0  0  0  0  0  0  0  0  0  0  0
    0.6978   -2.4286    0.0000 N   0  0  0  0  0  0  0  0  0  0  0  0
   -0.6013   -1.6786    0.0000 N   0  0  0  0  0  0  0  0  0  0  0  0
  2  1  1  0
  4  3  1  0
  5  3  1  0
  6  4  1  0
  2  7  2  0
  8  5  1  0
  8  6  1  0
  8  7  1  0
M  END
>  <NAME>  (5688) 
TETRAMETHYLENEHYDRAZONE ACETALDEHYDE

>  <SYNONYMS>  (5688) 
ACETALDEHYDE TETRAMETHYLENEHYDRAZONE

>  <SPECTRUM TYPE>  (5688) 
MS1

>  <INSTRUMENT TYPE>  (5688) 
EI-B

>  <INSTRUMENT>  (5688) 
SHIMADZU LKB-2091

>  <ION MODE>  (5688) 
P

>  <INCHIKEY>  (5688) 
OKUPUIZUELNRNE-FARCUNLSSA-N

>  <FORMULA>  (5688) 
C6H12N2

>  <EXACT MASS>  (5688) 
112.10004838399999

>  <MW>  (5688) 
112

>  <ID>  (5688) 
JP000828

>  <CONTRIBUTOR>  (5688) 
University of Tokyo Team, {Faculty of Engineering, University of Tokyo

>  <COMMENT>  (5688) 
SMILES=CC=NN(C1)CCC1
InChI=InChI=1S/C6H12N2/c1-2-7-8-5-3-4-6-8/h2H,3-6H2,1H3/b7-2+
computed SMILES=N(=CC)N1CCCC1
accession=JP000828
date=2016.01.19 (Created 2008.10.21, modified 2011.05.06)
author=SASAKI S, TOYOHASHI UNIV. OF TECH.
license=CC BY-NC-SA
exact mass=112.10005
ionization energy=70 eV
ion type=[M]+*
computed spectral entropy=2.4181295779396677
computed normalized entropy=0.7041754770609913
SPLASH=splash10-01ox-9300000000-1c5f7bd3695b29ff5d20
submitter=submitter = University of Tokyo Team (Faculty of Engineering, University of Tokyo)
MoNA Rating=3.75

>  <NUM PEAKS>  (5688) 
31

>  <MASS SPECTRAL PEAKS>  (5688) 
27 19.4
28 38.8
29 4
30 0.48
32 0.6
38 0.7
39 7.8
40 0.31
41 28.4
42 99.99
43 23.9
44 0.27
53 1.1
54 0.8
55 3.9
56 0.75
57 4.6
67 0.5
68 4.8
69 0.63
70 19.4
71 3.6
82 0.5
83 0.11
84 2
97 14.9
98 0.8
110 0.05
111 44.8
112 55.2
113 3.7

>  <PREDICTED SPECTRUM>  (5688) 
14 52
15 157
16 20
17 36
18 69
25 0
26 138
27 407
28 426
29 419
30 346
31 74
32 13
33 2
37 56
38 117
39 439
40 259
41 714
42 825
43 543
44 344
45 85
50 58
51 132
52 68
53 133
54 259
55 515
56 468
57 476
58 156
68 210
69 352
70 841
71 260
81 65
82 142
83 232
84 215
85 6
95 76
96 89
97 212
110 40
111 465
112 999
113 269
114 60

$$$$

     RDKit          2D

  7  6  0  0  0  0  0  0  0  0999 V2000
    1.6238    3.1875    0.0000 C   0  0  0  0  0  0  0  0  0  0  0  0
   -4.8714    3.9375    0.0000 C   0  0  0  0  0  0  0  0  0  0  0  0
   -3.5724    1.6875    0.0000 C   0  0  0  0  0  0  0  0  0  0  0  0
    0.3248    3.9375    0.0000 C   0  0  0  0  0  0  0  0  0  0  0  0
   -0.9743    3.1875    0.0000 C   0  0  0  0  0  0  0  0  0  0  0  0
   -2.2733    3.9375    0.0000 N   0  0  0  0  0  0  0  0  0  0  0  0
   -3.5724    3.1875    0.0000 N   0  0  0  0  0  0  0  0  0  0  0  0
  4  1  1  0
  5  4  1  0
  5  6  2  0
  7  2  1  0
  7  3  1  0
  7  6  1  0
M  END
>  <NAME>  (5689) 
DIMETHYLHYDRAZONE PROPIONALDEHYDE

>  <SYNONYMS>  (5689) 
PROPIONALDEHYDE DIMETHYLHYDRAZONE

>  <SPECTRUM TYPE>  (5689) 
MS1

>  <INSTRUMENT TYPE>  (5689) 
EI-B

>  <INSTRUMENT>  (5689) 
SHIMADZU LKB-2091

>  <ION MODE>  (5689) 
P

>  <INCHIKEY>  (5689) 
FWXVUFLNENPJHD-AATRIKPKSA-N

>  <FORMULA>  (5689) 
C5H12N2

>  <EXACT MASS>  (5689) 
100.10004838399999

>  <MW>  (5689) 
100

>  <ID>  (5689) 
JP000827

>  <CONTRIBUTOR>  (5689) 
University of Tokyo Team, {Faculty of Engineering, University of Tokyo

>  <COMMENT>  (5689) 
SMILES=CCC=NN(C)C
InChI=InChI=1S/C5H12N2/c1-4-5-6-7(2)3/h5H,4H2,1-3H3/b6-5+
computed SMILES=N(=CCC)N(C)C
accession=JP000827
date=2016.01.19 (Created 2008.10.21, modified 2011.05.06)
author=SASAKI S, TOYOHASHI UNIV. OF TECH.
license=CC BY-NC-SA
exact mass=100.10005
ionization energy=70 eV
ion type=[M]+*
computed spectral entropy=2.4585282787205305
computed normalized entropy=0.7637847535858879
SPLASH=splash10-0006-9000000000-4217686f38b85f2bcb82
submitter=submitter = University of Tokyo Team (Faculty of Engineering, University of Tokyo)
MoNA Rating=3.75

>  <NUM PEAKS>  (5689) 
25

>  <MASS SPECTRAL PEAKS>  (5689) 
27 15.8
28 26.7
29 11.1
30 0.91
39 6.9
40 3.3
41 10.6
42 4.54
43 66.1
44 99.99
45 49.1
46 0.27
54 2.6
55 2.4
56 10.3
57 0.35
58 15.7
59 2.8
71 5.9
72 0.15
85 34.6
86 2.2
99 9
100 7.24
101 6.4

>  <PREDICTED SPECTRUM>  (5689) 
15 22
26 10
27 115
28 137
29 238
30 333
31 51
32 4
39 105
40 88
41 313
42 595
43 502
44 999
45 407
46 232
53 31
54 72
55 164
56 400
57 250
58 178
59 228
60 18
68 63
69 79
70 6
71 267
72 96
73 75
83 38
84 11
85 591
86 150
87 54
99 195
100 714
101 207
102 7

$$$$

     RDKit          2D

  6  5  0  0  0  0  0  0  0  0999 V2000
    1.2990    2.2500    0.0000 C   0  0  0  0  0  0  0  0  0  0  0  0
   -3.8971    2.2500    0.0000 C   0  0  0  0  0  0  0  0  0  0  0  0
   -2.5981    4.5000    0.0000 C   0  0  0  0  0  0  0  0  0  0  0  0
    0.0000    3.0000    0.0000 C   0  0  0  0  0  0  0  0  0  0  0  0
   -1.2990    2.2500    0.0000 N   0  0  0  0  0  0  0  0  0  0  0  0
   -2.5981    3.0000    0.0000 N   0  0  0  0  0  0  0  0  0  0  0  0
  4  1  1  0
  4  5  2  0
  6  2  1  0
  6  3  1  0
  6  5  1  0
M  END
>  <NAME>  (5690) 
DIMETHYLHYDRAZONE ACETALDEHYDE

>  <SYNONYMS>  (5690) 
ACETALDEHYDE DIMETHYLHYDRAZONE

>  <SPECTRUM TYPE>  (5690) 
MS1

>  <INSTRUMENT TYPE>  (5690) 
EI-B

>  <INSTRUMENT>  (5690) 
SHIMADZU LKB-2091

>  <ION MODE>  (5690) 
P

>  <INCHIKEY>  (5690) 
FDWQPDLACZBQBC-SNAWJCMRSA-N

>  <FORMULA>  (5690) 
C4H10N2

>  <EXACT MASS>  (5690) 
86.08439831999999

>  <MW>  (5690) 
86

>  <ID>  (5690) 
JP000826

>  <CONTRIBUTOR>  (5690) 
University of Tokyo Team, {Faculty of Engineering, University of Tokyo

>  <COMMENT>  (5690) 
SMILES=CC=NN(C)C
InChI=InChI=1S/C4H10N2/c1-4-5-6(2)3/h4H,1-3H3/b5-4+
computed SMILES=N(=CC)N(C)C
accession=JP000826
date=2016.01.19 (Created 2008.10.21, modified 2011.05.06)
author=SASAKI S, TOYOHASHI UNIV. OF TECH.
license=CC BY-NC-SA
exact mass=86.0844
ionization energy=70 eV
ion type=[M]+*
computed spectral entropy=2.304586201574386
computed normalized entropy=0.7692897732948403
SPLASH=splash10-000f-9000000000-8b0beada9b8a9c41ffc9
submitter=submitter = University of Tokyo Team (Faculty of Engineering, University of Tokyo)
MoNA Rating=3.75

>  <NUM PEAKS>  (5690) 
20

>  <MASS SPECTRAL PEAKS>  (5690) 
27 15.2
28 32.6
29 3.3
30 3.48
39 2.6
40 6.1
41 10
42 7.81
43 32.6
44 91.1
45 19.6
55 0.18
56 9.4
58 3.5
71 26.1
72 0.13
83 1.5
85 30.5
86 99.99
87 7.2

>  <PREDICTED SPECTRUM>  (5690) 
14 8
15 51
26 5
27 80
28 146
29 116
30 322
31 13
38 31
39 99
40 144
41 295
42 709
43 542
44 999
45 428
46 112
54 73
55 192
56 203
57 232
58 21
59 229
69 138
70 93
71 466
72 149
85 44
86 683
87 144

$$$$

     RDKit          2D

  5  4  0  0  0  0  0  0  0  0999 V2000
   -0.0000   -0.0000    0.0000 C   0  0  0  0  0  0  0  0  0  0  0  0
   -1.2990    3.7500    0.0000 C   0  0  0  0  0  0  0  0  0  0  0  0
   -2.5981    1.5000    0.0000 C   0  0  0  0  0  0  0  0  0  0  0  0
    0.0000    1.5000    0.0000 N   0  0  0  0  0  0  0  0  0  0  0  0
   -1.2990    2.2500    0.0000 N   0  0  0  0  0  0  0  0  0  0  0  0
  4  1  2  0
  5  2  1  0
  5  3  1  0
  5  4  1  0
M  END
>  <NAME>  (5691) 
DIMETHYLHYDRAZONE FORMALDEHYDE

>  <SYNONYMS>  (5691) 
FORMALDEHYDE DIMETHYLHYDRAZONE

>  <SPECTRUM TYPE>  (5691) 
MS1

>  <INSTRUMENT TYPE>  (5691) 
EI-B

>  <INSTRUMENT>  (5691) 
SHIMADZU LKB-2091

>  <ION MODE>  (5691) 
P

>  <INCHIKEY>  (5691) 
NDNVSJIXYFNRDR-UHFFFAOYSA-N

>  <FORMULA>  (5691) 
C3H8N2

>  <EXACT MASS>  (5691) 
72.06874825599999

>  <MW>  (5691) 
72

>  <ID>  (5691) 
JP000825

>  <CONTRIBUTOR>  (5691) 
University of Tokyo Team, {Faculty of Engineering, University of Tokyo

>  <COMMENT>  (5691) 
SMILES=C=NN(C)C
InChI=InChI=1S/C3H8N2/c1-4-5(2)3/h1H2,2-3H3
computed SMILES=N(=C)N(C)C
accession=JP000825
date=2016.01.19 (Created 2008.10.21, modified 2011.05.06)
author=SASAKI S, TOYOHASHI UNIV. OF TECH.
license=CC BY-NC-SA
exact mass=72.06875
ionization energy=70 eV
ion type=[M]+*
computed spectral entropy=1.6310568540517218
computed normalized entropy=0.6180452526544808
SPLASH=splash10-00dl-9000000000-723c800636ac77ee3e1e
submitter=submitter = University of Tokyo Team (Faculty of Engineering, University of Tokyo)
MoNA Rating=3.75

>  <NUM PEAKS>  (5691) 
14

>  <MASS SPECTRAL PEAKS>  (5691) 
27 8.8
28 2.2
29 4.3
30 3.6
40 3.4
41 5
42 97.8
43 1.86
44 4.2
57 26.6
58 0.7
71 5.17
72 99.99
73 4.6

>  <PREDICTED SPECTRUM>  (5691) 
14 44
15 131
16 14
18 9
25 3
26 59
27 180
28 241
29 227
30 346
31 65
32 44
38 67
39 71
40 201
41 330
42 999
43 803
44 894
45 345
46 262
53 22
54 37
55 184
56 280
57 406
58 61
59 7
71 381
72 849
73 210

$$$$

     RDKit          2D

 10  9  0  0  0  0  0  0  0  0999 V2000
   -7.7942    3.7500    0.0000 C   0  0  0  0  0  0  0  0  0  0  0  0
    0.0000    6.7500    0.0000 C   0  0  0  0  0  0  0  0  0  0  0  0
   -5.1962    2.2500    0.0000 C   0  0  0  0  0  0  0  0  0  0  0  0
   -0.0000    3.7500    0.0000 C   0  0  0  0  0  0  0  0  0  0  0  0
   -6.4952    4.5000    0.0000 C   0  0  0  0  0  0  0  0  0  0  0  0
   -1.2990    6.0000    0.0000 C   0  0  0  0  0  0  0  0  0  0  0  0
   -5.1962    3.7500    0.0000 C   0  0  0  0  0  0  0  0  0  0  0  0
   -1.2990    4.5000    0.0000 C   0  0  0  0  0  0  0  0  0  0  0  0
   -3.8971    4.5000    0.0000 N   0  0  0  0  0  0  0  0  0  0  0  0
   -2.5981    3.7500    0.0000 N   0  0  0  0  0  0  0  0  0  0  0  0
  5  1  1  0
  6  2  1  0
  7  3  1  0
  7  5  1  0
  8  4  1  0
  8  6  1  0
  9  7  1  0
  8 10  2  0
 10  9  1  0
M  END
>  <NAME>  (5692) 
SEC-BUTYLHYDRAZONE METHYLETHYLKETONE

>  <SYNONYMS>  (5692) 
2-BUTANONE SEC-BUTYLHYDRAZONE

>  <SPECTRUM TYPE>  (5692) 
MS1

>  <INSTRUMENT TYPE>  (5692) 
EI-B

>  <INSTRUMENT>  (5692) 
SHIMADZU LKB-2091

>  <ION MODE>  (5692) 
P

>  <INCHIKEY>  (5692) 
PSEJHDMQAHLTJM-NTMALXAHSA-N

>  <FORMULA>  (5692) 
C8H18N2

>  <EXACT MASS>  (5692) 
142.146998576

>  <MW>  (5692) 
142

>  <ID>  (5692) 
JP000824

>  <CONTRIBUTOR>  (5692) 
University of Tokyo Team, {Faculty of Engineering, University of Tokyo

>  <COMMENT>  (5692) 
SMILES=CCC(C)NN=C(C)CC
InChI=InChI=1S/C8H18N2/c1-5-7(3)9-10-8(4)6-2/h7,9H,5-6H2,1-4H3/b10-8-
computed SMILES=N(NC(C)CC)=C(C)CC
accession=JP000824
date=2016.01.19 (Created 2008.10.21, modified 2011.05.06)
author=SASAKI S, TOYOHASHI UNIV. OF TECH.
license=CC BY-NC-SA
exact mass=142.147
ionization energy=70 eV
ion type=[M]+*
computed spectral entropy=2.380397594884215
computed normalized entropy=0.6868375610966946
SPLASH=splash10-01ox-9400000000-dc5c8ff61e8a6cebba69
submitter=submitter = University of Tokyo Team (Faculty of Engineering, University of Tokyo)
MoNA Rating=3.75

>  <NUM PEAKS>  (5692) 
32

>  <MASS SPECTRAL PEAKS>  (5692) 
27 9.5
28 7.8
29 18.9
30 0.34
39 4.5
40 1
41 11.4
42 99.99
43 5.1
44 12.8
53 1
54 0.24
55 4.4
56 3.8
57 6.5
58 0.19
68 2.7
69 1.7
70 18.9
71 0.32
72 5.7
84 1
85 1.7
86 0.1
97 0.9
111 2.1
113 71.6
114 0.56
127 5.5
140 1.7
142 14.9
143 2.3

>  <PREDICTED SPECTRUM>  (5692) 
14 20
15 158
26 53
27 304
28 275
29 488
30 315
31 100
32 4
38 17
39 288
40 153
41 345
42 696
43 223
44 450
52 72
53 24
54 142
55 242
56 400
57 431
58 127
65 0
66 8
67 35
68 60
69 131
70 405
71 175
72 146
82 33
83 15
85 179
86 63
97 104
98 80
111 17
113 999
114 204
127 307
128 51
141 177
142 464
143 120

$$$$

     RDKit          2D

  8  7  0  0  0  0  0  0  0  0999 V2000
   -3.2476    1.1250    0.0000 C   0  0  0  0  0  0  0  0  0  0  0  0
    3.2476    3.3750    0.0000 C   0  0  0  0  0  0  0  0  0  0  0  0
   -3.2476    4.1250    0.0000 C   0  0  0  0  0  0  0  0  0  0  0  0
   -1.9486    1.8750    0.0000 C   0  0  0  0  0  0  0  0  0  0  0  0
    1.9486    4.1250    0.0000 C   0  0  0  0  0  0  0  0  0  0  0  0
   -1.9486    3.3750    0.0000 C   0  0  0  0  0  0  0  0  0  0  0  0
    0.6495    3.3750    0.0000 N   0  0  0  0  0  0  0  0  0  0  0  0
   -0.6495    4.1250    0.0000 N   0  0  0  0  0  0  0  0  0  0  0  0
  4  1  1  0
  5  2  1  0
  6  3  1  0
  6  4  1  0
  7  5  1  0
  6  8  2  0
  8  7  1  0
M  END
>  <NAME>  (5693) 
ETHYLHYDRAZONE METHYLETHYLKETONE

>  <SYNONYMS>  (5693) 
2-BUTANONE ETHYLHYDRAZONE

>  <SPECTRUM TYPE>  (5693) 
MS1

>  <INSTRUMENT TYPE>  (5693) 
EI-B

>  <INSTRUMENT>  (5693) 
SHIMADZU LKB-2091

>  <ION MODE>  (5693) 
P

>  <INCHIKEY>  (5693) 
PCKXYWXISYJOTB-VURMDHGXSA-N

>  <FORMULA>  (5693) 
C6H14N2

>  <EXACT MASS>  (5693) 
114.11569844799999

>  <MW>  (5693) 
114

>  <ID>  (5693) 
JP000823

>  <CONTRIBUTOR>  (5693) 
University of Tokyo Team, {Faculty of Engineering, University of Tokyo

>  <COMMENT>  (5693) 
SMILES=CCNN=C(C)CC
InChI=InChI=1S/C6H14N2/c1-4-6(3)8-7-5-2/h7H,4-5H2,1-3H3/b8-6-
computed SMILES=N(NCC)=C(C)CC
accession=JP000823
date=2016.01.19 (Created 2008.10.21, modified 2011.05.06)
author=SASAKI S, TOYOHASHI UNIV. OF TECH.
license=CC BY-NC-SA
exact mass=114.1157
ionization energy=70 eV
ion type=[M]+*
computed spectral entropy=2.5327997914408162
computed normalized entropy=0.7521762029001741
SPLASH=splash10-0006-9000000000-6cf9dbf5c7bf963c2bca
submitter=submitter = University of Tokyo Team (Faculty of Engineering, University of Tokyo)
MoNA Rating=3.75

>  <NUM PEAKS>  (5693) 
29

>  <MASS SPECTRAL PEAKS>  (5693) 
27 14.5
29 20
30 15
31 0.17
39 5.5
40 1.7
41 12.1
42 99.99
43 9.2
44 38.5
45 3.4
46 0.1
53 1.3
54 2.6
55 4.7
56 0.84
57 4.2
58 2.5
68 8.4
69 0.33
70 26.3
71 7.1
85 6.6
86 0.18
99 50
100 4
113 2.7
114 5
115 5.3

>  <PREDICTED SPECTRUM>  (5693) 
14 29
15 114
16 10
17 3
18 34
26 78
27 377
28 320
29 448
30 401
31 26
32 38
38 72
39 254
40 250
41 517
42 925
43 323
44 618
45 151
46 78
51 7
52 94
54 240
55 338
56 367
57 247
58 67
68 112
69 226
70 454
71 257
72 135
85 646
86 131
87 37
98 39
99 999
100 257
113 241
114 778
115 211

$$$$

     RDKit          2D

  8  7  0  0  0  0  0  0  0  0999 V2000
    0.0000    0.0000    0.0000 C   0  0  0  0  0  0  0  0  0  0  0  0
    1.2990    2.2500    0.0000 C   0  0  0  0  0  0  0  0  0  0  0  0
   -2.5981    6.0000    0.0000 C   0  0  0  0  0  0  0  0  0  0  0  0
   -3.8971    3.7500    0.0000 C   0  0  0  0  0  0  0  0  0  0  0  0
    0.0000    1.5000    0.0000 C   0  0  0  0  0  0  0  0  0  0  0  0
   -2.5981    4.5000    0.0000 C   0  0  0  0  0  0  0  0  0  0  0  0
   -1.2990    2.2500    0.0000 N   0  0  0  0  0  0  0  0  0  0  0  0
   -1.2990    3.7500    0.0000 N   0  0  0  0  0  0  0  0  0  0  0  0
  5  1  1  0
  5  2  1  0
  6  3  1  0
  6  4  1  0
  7  5  1  0
  8  6  2  0
  8  7  1  0
M  END
>  <NAME>  (5694) 
ISOPROPYLHYDRAZONE ACETONE

>  <SYNONYMS>  (5694) 
ACETONE ISOPROPYLHYDRAZONE

>  <SPECTRUM TYPE>  (5694) 
MS1

>  <INSTRUMENT TYPE>  (5694) 
EI-B

>  <INSTRUMENT>  (5694) 
SHIMADZU LKB-2091

>  <ION MODE>  (5694) 
P

>  <INCHIKEY>  (5694) 
NEMJPYNJMBONJU-UHFFFAOYSA-N

>  <FORMULA>  (5694) 
C6H14N2

>  <EXACT MASS>  (5694) 
114.11569844799999

>  <MW>  (5694) 
114

>  <ID>  (5694) 
JP000822

>  <CONTRIBUTOR>  (5694) 
University of Tokyo Team, {Faculty of Engineering, University of Tokyo

>  <COMMENT>  (5694) 
SMILES=CC(C)NN=C(C)C
InChI=InChI=1S/C6H14N2/c1-5(2)7-8-6(3)4/h5,7H,1-4H3
computed SMILES=N(NC(C)C)=C(C)C
accession=JP000822
date=2016.01.19 (Created 2008.10.21, modified 2011.05.06)
author=SASAKI S, TOYOHASHI UNIV. OF TECH.
license=CC BY-NC-SA
exact mass=114.1157
ionization energy=70 eV
ion type=[M]+*
computed spectral entropy=2.3329484847112645
computed normalized entropy=0.7160464576436324
SPLASH=splash10-0a4j-9000000000-351807f0bc5477cf4896
submitter=submitter = University of Tokyo Team (Faculty of Engineering, University of Tokyo)
MoNA Rating=3.75

>  <NUM PEAKS>  (5694) 
26

>  <MASS SPECTRAL PEAKS>  (5694) 
27 11.4
28 16.9
29 6.9
30 1.29
31 2.9
32 2.9
39 9.7
40 0.34
41 19.7
42 21.7
43 12
44 0.94
54 3.7
55 6.9
56 99.99
57 1.74
58 11.1
71 5.7
72 4.6
82 0.1
83 0.9
99 88.6
100 0.7
113 0.18
114 31.5
115 3.1

>  <PREDICTED SPECTRUM>  (5694) 
14 38
15 128
16 10
26 63
27 276
28 290
29 263
30 362
31 37
37 5
38 43
39 310
40 197
41 473
42 784
43 462
44 86
54 155
55 236
56 496
57 504
58 296
59 30
69 83
70 79
71 350
72 129
99 999
100 224
113 84
114 518
115 123

$$$$

     RDKit          2D

  8  7  0  0  0  0  0  0  0  0999 V2000
    1.9486    3.3750    0.0000 C   0  0  0  0  0  0  0  0  0  0  0  0
   -5.8457    3.3750    0.0000 C   0  0  0  0  0  0  0  0  0  0  0  0
   -4.5466    5.6250    0.0000 C   0  0  0  0  0  0  0  0  0  0  0  0
    0.6495    4.1250    0.0000 C   0  0  0  0  0  0  0  0  0  0  0  0
   -0.6495    3.3750    0.0000 C   0  0  0  0  0  0  0  0  0  0  0  0
   -4.5466    4.1250    0.0000 C   0  0  0  0  0  0  0  0  0  0  0  0
   -1.9486    4.1250    0.0000 N   0  0  0  0  0  0  0  0  0  0  0  0
   -3.2476    3.3750    0.0000 N   0  0  0  0  0  0  0  0  0  0  0  0
  4  1  1  0
  5  4  1  0
  6  2  1  0
  6  3  1  0
  7  5  1  0
  8  6  2  0
  8  7  1  0
M  END
>  <NAME>  (5695) 
N-PROPYLHYDRAZONE ACETONE

>  <SYNONYMS>  (5695) 
ACETONE PROPYLHYDRAZONE

>  <SPECTRUM TYPE>  (5695) 
MS1

>  <INSTRUMENT TYPE>  (5695) 
EI-B

>  <INSTRUMENT>  (5695) 
SHIMADZU LKB-2091

>  <ION MODE>  (5695) 
P

>  <INCHIKEY>  (5695) 
BBXDSCHJVVIYFF-UHFFFAOYSA-N

>  <FORMULA>  (5695) 
C6H14N2

>  <EXACT MASS>  (5695) 
114.115698448

>  <MW>  (5695) 
114

>  <ID>  (5695) 
JP000821

>  <CONTRIBUTOR>  (5695) 
University of Tokyo Team, {Faculty of Engineering, University of Tokyo

>  <COMMENT>  (5695) 
SMILES=CCCNN=C(C)C
InChI=InChI=1S/C6H14N2/c1-4-5-7-8-6(2)3/h7H,4-5H2,1-3H3
computed SMILES=N(NCCC)=C(C)C
accession=JP000821
date=2016.01.19 (Created 2008.10.21, modified 2011.05.06)
author=SASAKI S, TOYOHASHI UNIV. OF TECH.
license=CC BY-NC-SA
exact mass=114.1157
ionization energy=70 eV
ion type=[M]+*
computed spectral entropy=2.1511090490819527
computed normalized entropy=0.6602349021825606
SPLASH=splash10-0a4r-9000000000-39f2eb9ae97344bf0598
submitter=submitter = University of Tokyo Team (Faculty of Engineering, University of Tokyo)
MoNA Rating=3.75

>  <NUM PEAKS>  (5695) 
26

>  <MASS SPECTRAL PEAKS>  (5695) 
27 9.9
28 15.5
29 8
30 1.27
31 1.7
32 1.1
39 7.1
40 0.25
41 12.7
42 12
43 5.6
44 0.15
54 3
55 2.1
56 99.99
57 0.69
58 3.9
71 2.1
72 5.6
83 0.13
85 91.5
86 5.6
99 1.5
113 0.06
114 26.8
115 3.4

>  <PREDICTED SPECTRUM>  (5695) 
14 47
15 161
16 8
18 4
25 1
26 109
27 357
28 356
29 338
30 748
32 12
38 47
39 253
40 197
41 412
42 797
43 517
44 350
52 61
53 5
54 223
55 165
56 607
57 254
58 112
68 50
69 181
70 245
71 273
72 96
84 111
85 999
86 150
99 505
100 47
113 121
114 536
115 142

$$$$

     RDKit          2D

  7  6  0  0  0  0  0  0  0  0999 V2000
    1.6238    3.1875    0.0000 C   0  0  0  0  0  0  0  0  0  0  0  0
   -4.8714    3.9375    0.0000 C   0  0  0  0  0  0  0  0  0  0  0  0
   -3.5724    1.6875    0.0000 C   0  0  0  0  0  0  0  0  0  0  0  0
    0.3248    3.9375    0.0000 C   0  0  0  0  0  0  0  0  0  0  0  0
   -3.5724    3.1875    0.0000 C   0  0  0  0  0  0  0  0  0  0  0  0
   -0.9743    3.1875    0.0000 N   0  0  0  0  0  0  0  0  0  0  0  0
   -2.2733    3.9375    0.0000 N   0  0  0  0  0  0  0  0  0  0  0  0
  4  1  1  0
  5  2  1  0
  5  3  1  0
  6  4  1  0
  7  5  2  0
  7  6  1  0
M  END
>  <NAME>  (5696) 
ETHYLHYDRAZONE ACETONE

>  <SYNONYMS>  (5696) 
ACETONE ETHYLHYDRAZONE

>  <SPECTRUM TYPE>  (5696) 
MS1

>  <INSTRUMENT TYPE>  (5696) 
EI-B

>  <INSTRUMENT>  (5696) 
SHIMADZU LKB-2091

>  <ION MODE>  (5696) 
P

>  <INCHIKEY>  (5696) 
USOUWWPTYXEQDQ-UHFFFAOYSA-N

>  <FORMULA>  (5696) 
C5H12N2

>  <EXACT MASS>  (5696) 
100.10004838399999

>  <MW>  (5696) 
100

>  <ID>  (5696) 
JP000820

>  <CONTRIBUTOR>  (5696) 
University of Tokyo Team, {Faculty of Engineering, University of Tokyo

>  <COMMENT>  (5696) 
SMILES=CCNN=C(C)C
InChI=InChI=1S/C5H12N2/c1-4-6-7-5(2)3/h6H,4H2,1-3H3
computed SMILES=N(NCC)=C(C)C
accession=JP000820
date=2016.01.19 (Created 2008.10.21, modified 2011.05.06)
author=SASAKI S, TOYOHASHI UNIV. OF TECH.
license=CC BY-NC-SA
exact mass=100.10005
ionization energy=70 eV
ion type=[M]+*
computed spectral entropy=2.281146178712455
computed normalized entropy=0.7177808496914938
SPLASH=splash10-0a4i-9100000000-968bf91e8a7be0ed5f27
submitter=submitter = University of Tokyo Team (Faculty of Engineering, University of Tokyo)
MoNA Rating=3.75

>  <NUM PEAKS>  (5696) 
24

>  <MASS SPECTRAL PEAKS>  (5696) 
28 13
29 10.4
30 13
31 0.23
38 0.8
39 9.1
40 3.5
41 1.1
42 15.6
43 5.3
44 15.6
45 0.18
54 3.4
55 2.2
56 99.99
57 0.65
58 1.9
71 4.7
72 4.2
85 6.38
86 3.9
99 3.5
100 40.3
101 4.4

>  <PREDICTED SPECTRUM>  (5696) 
14 35
15 118
16 14
17 1
18 20
26 89
27 300
28 345
29 338
30 502
31 25
32 14
38 30
39 80
40 178
41 371
42 728
43 286
44 294
45 13
52 21
54 162
55 235
56 339
57 238
58 138
71 269
72 162
73 21
85 999
86 180
99 161
100 571
101 144

$$$$

     RDKit          2D

  6  5  0  0  0  0  0  0  0  0999 V2000
    0.0000    0.0000    0.0000 C   0  0  0  0  0  0  0  0  0  0  0  0
    1.2990    2.2500    0.0000 C   0  0  0  0  0  0  0  0  0  0  0  0
   -2.5981    4.5000    0.0000 C   0  0  0  0  0  0  0  0  0  0  0  0
    0.0000    1.5000    0.0000 C   0  0  0  0  0  0  0  0  0  0  0  0
   -1.2990    3.7500    0.0000 N   0  0  0  0  0  0  0  0  0  0  0  0
   -1.2990    2.2500    0.0000 N   0  0  0  0  0  0  0  0  0  0  0  0
  4  1  1  0
  4  2  1  0
  5  3  1  0
  6  4  2  0
  6  5  1  0
M  END
>  <NAME>  (5697) 
METHYLHYDRAZONE ACETONE

>  <SYNONYMS>  (5697) 
ACETONE METHYLHYDRAZONE

>  <SPECTRUM TYPE>  (5697) 
MS1

>  <INSTRUMENT TYPE>  (5697) 
EI-B

>  <INSTRUMENT>  (5697) 
SHIMADZU LKB-2091

>  <ION MODE>  (5697) 
P

>  <INCHIKEY>  (5697) 
JXSSEZYJBTUIGX-UHFFFAOYSA-N

>  <FORMULA>  (5697) 
C4H10N2

>  <EXACT MASS>  (5697) 
86.08439831999999

>  <MW>  (5697) 
86

>  <ID>  (5697) 
JP000819

>  <CONTRIBUTOR>  (5697) 
University of Tokyo Team, {Faculty of Engineering, University of Tokyo

>  <COMMENT>  (5697) 
SMILES=CNN=C(C)C
InChI=InChI=1S/C4H10N2/c1-4(2)6-5-3/h5H,1-3H3
computed SMILES=N(NC)=C(C)C
accession=JP000819
date=2016.01.19 (Created 2008.10.21, modified 2011.05.06)
author=SASAKI S, TOYOHASHI UNIV. OF TECH.
license=CC BY-NC-SA
exact mass=86.0844
ionization energy=70 eV
ion type=[M]+*
computed spectral entropy=2.480048717075276
computed normalized entropy=0.770470453664308
SPLASH=splash10-053u-9000000000-8efc8321a7bdf66987e0
submitter=submitter = University of Tokyo Team (Faculty of Engineering, University of Tokyo)
MoNA Rating=3.75

>  <NUM PEAKS>  (5697) 
25

>  <MASS SPECTRAL PEAKS>  (5697) 
26 3.5
27 11.7
28 36.9
29 1.52
30 99.99
31 11.3
38 2.4
39 0.78
40 5.7
41 17.8
42 53.9
43 0.87
44 7.8
45 3.5
54 10.8
55 0.81
56 45.6
57 13
58 3
69 0.65
71 33.9
72 1.6
85 5.7
86 8.7
87 6.5

>  <PREDICTED SPECTRUM>  (5697) 
14 57
15 145
16 18
18 19
25 16
26 118
27 276
28 318
29 272
30 366
31 100
32 35
37 32
38 111
39 381
40 248
41 455
42 655
43 252
44 210
45 44
51 59
52 132
53 96
54 234
55 62
56 565
57 234
58 97
67 55
68 36
69 190
70 87
71 999
72 269
73 39
83 12
85 287
86 609
87 165

$$$$

     RDKit          2D

 12 12  0  0  0  0  0  0  0  0999 V2000
   -6.8197    3.1321    0.0000 C   0  0  0  0  0  0  0  0  0  0  0  0
   -5.5207    3.8821    0.0000 C   0  0  0  0  0  0  0  0  0  0  0  0
    3.5726    1.6321    0.0000 C   0  0  0  0  0  0  0  0  0  0  0  0
    3.5731    3.1329    0.0000 C   0  0  0  0  0  0  0  0  0  0  0  0
    2.2731    0.8813    0.0000 C   0  0  0  0  0  0  0  0  0  0  0  0
    2.2740    3.8829    0.0000 C   0  0  0  0  0  0  0  0  0  0  0  0
    0.9740    1.6313    0.0000 C   0  0  0  0  0  0  0  0  0  0  0  0
   -4.2216    3.1321    0.0000 C   0  0  0  0  0  0  0  0  0  0  0  0
   -0.3245    3.8821    0.0000 C   0  0  0  0  0  0  0  0  0  0  0  0
    0.9745    3.1321    0.0000 C   0  0  0  0  0  0  0  0  0  0  0  0
   -2.9226    3.8821    0.0000 N   0  0  0  0  0  0  0  0  0  0  0  0
   -1.6236    3.1321    0.0000 N   0  0  0  0  0  0  0  0  0  0  0  0
  2  1  1  0
  4  3  2  0
  5  3  1  0
  6  4  1  0
  7  5  2  0
  8  2  1  0
 10  6  2  0
 10  7  1  0
 10  9  1  0
 11  8  1  0
  9 12  2  0
 12 11  1  0
M  END
>  <NAME>  (5698) 
N-PROPYLHYDRAZONE BENZALDEHYDE

>  <SYNONYMS>  (5698) 
BENZALDEHYDE PROPYLHYDRAZONE

>  <SPECTRUM TYPE>  (5698) 
MS1

>  <INSTRUMENT TYPE>  (5698) 
EI-B

>  <INSTRUMENT>  (5698) 
SHIMADZU LKB-2091

>  <ION MODE>  (5698) 
P

>  <INCHIKEY>  (5698) 
RQQZJBZKGMZQOG-FMIVXFBMSA-N

>  <FORMULA>  (5698) 
C10H14N2

>  <EXACT MASS>  (5698) 
162.115698448

>  <MW>  (5698) 
162

>  <ID>  (5698) 
JP000818

>  <CONTRIBUTOR>  (5698) 
University of Tokyo Team, {Faculty of Engineering, University of Tokyo

>  <COMMENT>  (5698) 
SMILES=CCCNN=Cc(c1)cccc1
InChI=InChI=1S/C10H14N2/c1-2-8-11-12-9-10-6-4-3-5-7-10/h3-7,9,11H,2,8H2,1H3/b12-9+
computed SMILES=N(=CC=1C=CC=CC1)NCCC
accession=JP000818
date=2016.01.19 (Created 2008.10.21, modified 2011.05.06)
author=SASAKI S, TOYOHASHI UNIV. OF TECH.
license=CC BY-NC-SA
exact mass=162.1157
ionization energy=70 eV
ion type=[M]+*
computed spectral entropy=2.4284688906659144
computed normalized entropy=0.7287874688514325
SPLASH=splash10-001i-4900000000-87881ba38599e9c2804a
submitter=submitter = University of Tokyo Team (Faculty of Engineering, University of Tokyo)
MoNA Rating=3.75

>  <NUM PEAKS>  (5698) 
28

>  <MASS SPECTRAL PEAKS>  (5698) 
30 4.4
39 7
41 7.2
42 0.39
43 3.7
50 4.4
51 14.8
55 0.78
63 3.9
65 7.4
66.5 6.3
76 0.35
77 4.4
78 5.9
89 6.5
90 0.5
91 4.4
92 5.9
103 3.5
104 3.48
105 4.8
106 3.5
111 4.4
119 0.7
133 99.99
134 11.3
162 47.9
163 7

>  <PREDICTED SPECTRUM>  (5698) 
14 2
15 20
17 12
18 12
25 9
26 67
27 205
28 161
29 235
30 248
31 91
32 26
34 0
37 78
38 141
39 342
40 151
41 352
42 243
43 375
44 205
45 63
49 17
50 333
51 481
52 248
53 71
54 50
55 88
56 58
57 190
58 173
59 60
60 11
61 25
62 151
63 363
64 297
65 406
66 140
67 21
71 40
74 89
75 163
76 296
77 629
78 408
79 225
80 0
85 239
86 59
89 424
90 477
91 550
92 428
93 137
94 26
102 28
103 162
104 606
105 533
106 371
107 143
108 16
115 1
116 76
117 117
118 178
119 284
120 193
131 60
132 159
133 999
134 305
135 46
147 78
148 7
160 49
161 252
162 793
163 257
164 13

$$$$

     RDKit          2D

 12 12  0  0  0  0  0  0  0  0999 V2000
   -5.8454    3.6946    0.0000 C   0  0  0  0  0  0  0  0  0  0  0  0
   -4.5464    1.4446    0.0000 C   0  0  0  0  0  0  0  0  0  0  0  0
    3.2478    1.4446    0.0000 C   0  0  0  0  0  0  0  0  0  0  0  0
    1.9483    0.6938    0.0000 C   0  0  0  0  0  0  0  0  0  0  0  0
    3.2483    2.9454    0.0000 C   0  0  0  0  0  0  0  0  0  0  0  0
    0.6493    1.4438    0.0000 C   0  0  0  0  0  0  0  0  0  0  0  0
    1.9493    3.6954    0.0000 C   0  0  0  0  0  0  0  0  0  0  0  0
   -3.2474    3.6946    0.0000 C   0  0  0  0  0  0  0  0  0  0  0  0
   -4.5464    2.9446    0.0000 C   0  0  0  0  0  0  0  0  0  0  0  0
    0.6498    2.9446    0.0000 C   0  0  0  0  0  0  0  0  0  0  0  0
   -1.9483    2.9446    0.0000 N   0  0  0  0  0  0  0  0  0  0  0  0
   -0.6493    3.6946    0.0000 N   0  0  0  0  0  0  0  0  0  0  0  0
  4  3  2  0
  5  3  1  0
  6  4  1  0
  7  5  2  0
  9  1  1  0
  9  2  1  0
  9  8  1  0
 10  6  2  0
 10  7  1  0
  8 11  2  0
 12 10  1  0
 12 11  1  0
M  END
>  <NAME>  (5699) 
PHENYLHYDRAZONE ISOBUTYRALDEHYDE

>  <SYNONYMS>  (5699) 
ISOBUTYRALDEHYDE PHENYLHYDRAZONE

>  <SPECTRUM TYPE>  (5699) 
MS1

>  <INSTRUMENT TYPE>  (5699) 
EI-B

>  <INSTRUMENT>  (5699) 
SHIMADZU LKB-2091

>  <ION MODE>  (5699) 
P

>  <INCHIKEY>  (5699) 
JRPJYFGSRTYOBF-DHZHZOJOSA-N

>  <FORMULA>  (5699) 
C10H14N2

>  <EXACT MASS>  (5699) 
162.115698448

>  <MW>  (5699) 
162

>  <ID>  (5699) 
JP000817

>  <CONTRIBUTOR>  (5699) 
University of Tokyo Team, {Faculty of Engineering, University of Tokyo

>  <COMMENT>  (5699) 
SMILES=CC(C)C=NNc(c1)cccc1
InChI=InChI=1S/C10H14N2/c1-9(2)8-11-12-10-6-4-3-5-7-10/h3-9,12H,1-2H3/b11-8+
computed SMILES=N(=CC(C)C)NC=1C=CC=CC1
accession=JP000817
date=2016.01.19 (Created 2008.10.21, modified 2011.05.06)
author=SASAKI S, TOYOHASHI UNIV. OF TECH.
license=CC BY-NC-SA
exact mass=162.1157
ionization energy=70 eV
ion type=[M]+*
computed spectral entropy=2.7198652996857127
computed normalized entropy=0.8252426956383648
SPLASH=splash10-03gl-9700000000-c3a0f1fcb115753fb12d
submitter=submitter = University of Tokyo Team (Faculty of Engineering, University of Tokyo)
MoNA Rating=3.75

>  <NUM PEAKS>  (5699) 
27

>  <MASS SPECTRAL PEAKS>  (5699) 
27 19.2
29 6.9
39 27.7
41 1.42
43 6.9
51 15.4
52 6.2
65 6.16
66 19.2
77 34.6
91 12.7
92 7.31
93 77
94 8.5
105 8.2
106 4.23
107 8.5
117 6.2
118 9.2
119 1.23
120 5.4
133 35.4
134 15
147 0.3
161 3.8
162 99.99
163 12.7

>  <PREDICTED SPECTRUM>  (5699) 
15 18
26 45
27 218
28 107
29 128
37 22
38 89
39 357
40 114
41 473
42 330
43 450
44 161
45 66
46 33
47 48
50 129
51 245
52 166
53 80
54 99
55 105
56 80
57 180
58 53
59 34
61 16
62 77
63 244
64 299
65 597
66 326
67 48
68 22
69 188
70 291
71 239
72 67
74 50
75 103
76 97
77 439
78 160
79 96
85 8
87 2
89 83
90 164
91 418
92 816
93 759
94 218
103 77
104 153
105 127
106 181
107 94
117 198
118 179
119 578
120 424
121 21
131 50
133 194
134 181
135 95
145 16
146 46
147 266
148 72
159 22
160 33
161 169
162 999
163 344
164 75

$$$$

     RDKit          2D

 23 22  0  0  0  0  0  0  0  0999 V2000
  -20.1351   12.3750    0.0000 C   0  0  0  0  0  0  0  0  0  0  0  0
    7.1447   11.6250    0.0000 C   0  0  0  0  0  0  0  0  0  0  0  0
  -18.8361   11.6250    0.0000 C   0  0  0  0  0  0  0  0  0  0  0  0
  -17.5370   12.3750    0.0000 C   0  0  0  0  0  0  0  0  0  0  0  0
  -16.2380   11.6250    0.0000 C   0  0  0  0  0  0  0  0  0  0  0  0
  -14.9389   12.3750    0.0000 C   0  0  0  0  0  0  0  0  0  0  0  0
  -13.6399   11.6250    0.0000 C   0  0  0  0  0  0  0  0  0  0  0  0
  -12.3409   12.3750    0.0000 C   0  0  0  0  0  0  0  0  0  0  0  0
  -11.0418   11.6250    0.0000 C   0  0  0  0  0  0  0  0  0  0  0  0
   -9.7428   12.3750    0.0000 C   0  0  0  0  0  0  0  0  0  0  0  0
   -8.4437   11.6250    0.0000 C   0  0  0  0  0  0  0  0  0  0  0  0
   -7.1447   12.3750    0.0000 C   0  0  0  0  0  0  0  0  0  0  0  0
   -5.8457   11.6250    0.0000 C   0  0  0  0  0  0  0  0  0  0  0  0
   -4.5466   12.3750    0.0000 C   0  0  0  0  0  0  0  0  0  0  0  0
   -3.2476   11.6250    0.0000 C   0  0  0  0  0  0  0  0  0  0  0  0
   -1.9486   12.3750    0.0000 C   0  0  0  0  0  0  0  0  0  0  0  0
   -0.6495   11.6250    0.0000 C   0  0  0  0  0  0  0  0  0  0  0  0
    0.6495   12.3750    0.0000 C   0  0  0  0  0  0  0  0  0  0  0  0
    1.9486   11.6250    0.0000 C   0  0  0  0  0  0  0  0  0  0  0  0
    3.2476   12.3750    0.0000 C   0  0  0  0  0  0  0  0  0  0  0  0
    4.5466   11.6250    0.0000 C   0  0  0  0  0  0  0  0  0  0  0  0
    4.5466   10.1250    0.0000 O   0  0  0  0  0  0  0  0  0  0  0  0
    5.8457   12.3750    0.0000 O   0  0  0  0  0  0  0  0  0  0  0  0
  3  1  1  0
  4  3  1  0
  5  4  1  0
  6  5  1  0
  7  6  1  0
  8  7  1  0
  9  8  1  0
 10  9  1  0
 10 11  2  0
 12 11  1  0
 13 12  1  0
 14 13  1  0
 15 14  1  0
 16 15  1  0
 17 16  1  0
 18 17  1  0
 19 18  1  0
 20 19  1  0
 21 20  1  0
 22 21  2  0
 23  2  1  0
 23 21  1  0
M  END
>  <NAME>  (5700) 
11-EICOSENOIC ACID METHYL ESTER

>  <SYNONYMS>  (5700) 


>  <SPECTRUM TYPE>  (5700) 
MS1

>  <INSTRUMENT TYPE>  (5700) 
EI-B

>  <INSTRUMENT>  (5700) 
SHIMADZU LKB-9000B

>  <ION MODE>  (5700) 
P

>  <INCHIKEY>  (5700) 
RBKMRGOHCLRTLZ-ZHACJKMWSA-N

>  <FORMULA>  (5700) 
C21H40O2

>  <EXACT MASS>  (5700) 
324.30283052

>  <MW>  (5700) 
324

>  <ID>  (5700) 
JP000808

>  <CONTRIBUTOR>  (5700) 
University of Tokyo Team, {Faculty of Engineering, University of Tokyo

>  <COMMENT>  (5700) 
SMILES=CCCCCCCCC=CCCCCCCCCCC(=O)OC
cas=3946-08-5
InChI=InChI=1S/C21H40O2/c1-3-4-5-6-7-8-9-10-11-12-13-14-15-16-17-18-19-20-21(22)23-2/h10-11H,3-9,12-20H2,1-2H3/b11-10+
computed SMILES=O=C(OC)CCCCCCCCCC=CCCCCCCCC
accession=JP000808
date=2016.01.19 (Created 2008.10.21, modified 2011.05.06)
author=HAYASHI A, DEPT. OF CHEMISTRY, FAC. OF SCI. AND TECHNOLOGY, KINKI UNIV.
license=CC BY-NC-SA
exact mass=324.30283
ionization energy=70 eV
ion type=[M]+*
computed spectral entropy=3.719347239907695
computed normalized entropy=0.8417020594373289
SPLASH=splash10-05mo-9100000000-fa5288e8aa40ecc6ee17
submitter=submitter = University of Tokyo Team (Faculty of Engineering, University of Tokyo)
MoNA Rating=3.75

>  <NUM PEAKS>  (5700) 
83

>  <MASS SPECTRAL PEAKS>  (5700) 
39 15
41 99.99
42 7.2
43 54.6
53 9.2
54 27.4
55 78.8
57 39.4
58 1.8
59 22.4
65 3.8
66 2.8
67 38.7
68 21.1
69 75.6
70 18.7
71 13.5
72 0.9
73 2.6
74 60.3
75 9.3
77 0.9
79 9.1
80 5.5
81 30.2
82 20.4
83 54.8
84 31.5
85 7.5
87 40.5
88 3.8
91 2.4
93 5.7
94 5.2
95 25.9
96 36.7
97 43.4
98 25.3
105 0.6
107 3
108 3.2
109 14
110 16.8
111 19.1
112 7.2
113 1.9
115 6.1
119 2.2
121 3.7
123 11.1
124 9.3
125 9.1
127 0.6
128 3.9
129 2.4
133 1.6
134 1.3
135 3.7
137 5.6
138 5.1
139 5.8
141 4.1
143 2.2
147 1.7
149 1.9
151 4.2
152 5
153 3.8
165 0.8
166 2.5
167 1.6
179 0.9
180 0.8
181 1.3
194 2.4
208 5.5
209 1.2
248 1.4
249 1.1
250 6
292 19.4
293 9.3
324 0.9

>  <PREDICTED SPECTRUM>  (5700) 
14 3
15 42
16 9
17 21
18 30
25 2
26 46
27 177
28 185
29 296
30 27
31 47
32 40
33 18
36 0
38 3
39 215
40 116
41 590
42 289
43 599
44 173
45 136
50 36
51 89
52 101
53 293
54 490
55 999
56 510
57 620
58 141
59 461
60 99
61 91
62 59
63 41
65 154
66 138
67 595
68 468
69 823
70 423
71 352
72 136
73 155
74 759
75 318
76 71
77 136
78 91
79 302
80 238
81 572
82 524
83 740
84 596
85 335
86 55
87 625
88 158
89 37
91 162
92 81
93 161
94 190
95 506
96 649
97 672
98 567
99 217
100 129
101 253
102 95
103 11
104 8
105 108
106 53
107 141
108 138
109 414
110 483
111 481
112 254
113 175
114 240
115 285
116 92
117 46
118 53
119 180
120 85
121 202
122 118
123 373
124 302
125 348
126 138
127 149
128 149
129 237
130 100
131 32
133 149
134 149
135 160
136 125
137 263
138 286
139 270
140 113
141 288
142 128
143 194
144 74
145 14
146 3
147 105
148 121
149 170
150 101
151 231
152 288
153 190
154 125
155 96
156 73
157 123
158 47
161 121
162 99
163 128
164 111
165 196
166 235
167 167
168 95
169 129
170 1
171 139
172 64
173 24
174 17
175 131
176 89
177 58
178 57
179 154
180 203
181 113
182 48
183 98
185 109
186 37
189 137
190 56
191 62
192 92
193 142
194 215
195 130
196 65
197 137
198 45
199 90
200 29
202 14
203 32
206 60
207 169
208 354
209 160
210 27
211 59
213 74
214 46
217 0
220 3
221 142
222 116
223 74
224 64
225 54
227 79
228 65
232 31
235 126
236 128
237 61
238 35
239 18
241 55
242 43
248 226
249 193
250 401
251 176
252 39
253 16
255 19
256 22
262 2
263 149
264 140
265 43
266 14
267 9
269 2
274 131
275 123
276 70
277 2
281 61
282 3
283 19
292 606
293 491
294 220
295 62
296 0
324 219
325 136
326 38

$$$$

     RDKit          2D

 30 29  0  0  0  0  0  0  0  0999 V2000
    7.1447   13.1250    0.0000 C   0  0  0  0  0  0  0  0  0  0  0  0
  -19.3851   15.1740    0.0000 C   0  0  0  0  0  0  0  0  0  0  0  0
  -21.4341   14.6250    0.0000 C   0  0  0  0  0  0  0  0  0  0  0  0
  -20.8851   12.5760    0.0000 C   0  0  0  0  0  0  0  0  0  0  0  0
  -18.2870   12.1740    0.0000 C   0  0  0  0  0  0  0  0  0  0  0  0
  -18.8361   10.1250    0.0000 C   0  0  0  0  0  0  0  0  0  0  0  0
  -16.7870    9.5760    0.0000 C   0  0  0  0  0  0  0  0  0  0  0  0
    5.8457   13.8750    0.0000 C   0  0  0  0  0  0  0  0  0  0  0  0
    4.5466   13.1250    0.0000 C   0  0  0  0  0  0  0  0  0  0  0  0
    3.2476   13.8750    0.0000 C   0  0  0  0  0  0  0  0  0  0  0  0
    1.9486   13.1250    0.0000 C   0  0  0  0  0  0  0  0  0  0  0  0
    0.6495   13.8750    0.0000 C   0  0  0  0  0  0  0  0  0  0  0  0
   -0.6495   13.1250    0.0000 C   0  0  0  0  0  0  0  0  0  0  0  0
   -1.9486   13.8750    0.0000 C   0  0  0  0  0  0  0  0  0  0  0  0
   -3.2476   13.1250    0.0000 C   0  0  0  0  0  0  0  0  0  0  0  0
   -4.5466   13.8750    0.0000 C   0  0  0  0  0  0  0  0  0  0  0  0
   -5.8457   13.1250    0.0000 C   0  0  0  0  0  0  0  0  0  0  0  0
   -7.1447   13.8750    0.0000 C   0  0  0  0  0  0  0  0  0  0  0  0
   -8.4437   13.1250    0.0000 C   0  0  0  0  0  0  0  0  0  0  0  0
   -9.7428   13.8750    0.0000 C   0  0  0  0  0  0  0  0  0  0  0  0
  -11.0418   13.1250    0.0000 C   0  0  0  0  0  0  0  0  0  0  0  0
  -12.3409   13.8750    0.0000 C   0  0  0  0  0  0  0  0  0  0  0  0
  -14.9389   13.8750    0.0000 C   0  0  0  0  0  0  0  0  0  0  0  0
  -17.5370   13.8750    0.0000 C   0  0  0  0  0  0  0  0  0  0  0  0
  -16.2380   13.1250    0.0000 C   0  0  0  0  0  0  0  0  0  0  0  0
  -13.6399   13.1250    0.0000 O   0  0  0  0  0  0  0  0  0  0  0  0
  -18.8361   13.1250    0.0000 O   0  0  0  0  0  0  0  0  0  0  0  0
  -16.2380   11.6250    0.0000 O   0  0  0  0  0  0  0  0  0  0  0  0
  -20.1351   13.8750    0.0000 Si  0  0  0  0  0  4  0  0  0  0  0  0
  -17.5370   10.8750    0.0000 Si  0  0  0  0  0  4  0  0  0  0  0  0
  8  1  1  0
  9  8  1  0
 10  9  1  0
 11 10  1  0
 12 11  1  0
 13 12  1  0
 14 13  1  0
 15 14  1  0
 16 15  1  0
 17 16  1  0
 18 17  1  0
 19 18  1  0
 20 19  1  0
 21 20  1  0
 22 21  1  0
 25 23  1  0
 25 24  1  0
 26 22  1  0
 26 23  1  0
 27 24  1  0
 28 25  1  0
 29  2  1  0
 29  3  1  0
 29  4  1  0
 29 27  1  0
 30  5  1  0
 30  6  1  0
 30  7  1  0
 30 28  1  0
M  END
>  <NAME>  (5701) 
1-O-HEXADECYLGLYCEROL 2,3-DITRIMETHYLSILYLETHER

>  <SYNONYMS>  (5701) 
1-O-HEXADECYL-2,3-DI-O-TRIMETHYLSILYLGLYCEROL

>  <SPECTRUM TYPE>  (5701) 
MS1

>  <INSTRUMENT TYPE>  (5701) 
EI-B

>  <INSTRUMENT>  (5701) 
SHIMADZU LKB-9000B

>  <ION MODE>  (5701) 
P

>  <INCHIKEY>  (5701) 
DDZWTAIRKULPRO-UHFFFAOYSA-N

>  <FORMULA>  (5701) 
C25H56O3Si2

>  <EXACT MASS>  (5701) 
460.376798712

>  <MW>  (5701) 
460

>  <ID>  (5701) 
JP000803

>  <CONTRIBUTOR>  (5701) 
University of Tokyo Team, {Faculty of Engineering, University of Tokyo

>  <COMMENT>  (5701) 
SMILES=CCCCCCCCCCCCCCCCOCC(CO[Si](C)(C)C)O[Si](C)(C)C
InChI=InChI=1S/C25H56O3Si2/c1-8-9-10-11-12-13-14-15-16-17-18-19-20-21-22-26-23-25(28-30(5,6)7)24-27-29(2,3)4/h25H,8-24H2,1-7H3
computed SMILES=O(CCCCCCCCCCCCCCCC)CC(O[Si](C)(C)C)CO[Si](C)(C)C
accession=JP000803
date=2016.01.19 (Created 2008.10.21, modified 2011.05.06)
author=HAYASHI A, DEPT. OF CHEMISTRY, FAC. OF SCI. AND TECHNOLOGY, KINKI UNIV.
license=CC BY-NC-SA
exact mass=460.3768
ionization energy=70 eV
ion type=[M]+*
computed spectral entropy=3.298591515923423
computed normalized entropy=0.7845024153992051
SPLASH=splash10-0a59-3960000000-300368bed35249f23f84
submitter=submitter = University of Tokyo Team (Faculty of Engineering, University of Tokyo)
MoNA Rating=3.75

>  <NUM PEAKS>  (5701) 
67

>  <MASS SPECTRAL PEAKS>  (5701) 
55 2.3
56 0.9
57 4.9
67 1.1
69 3.9
70 1.7
71 7
73 15.7
74 1.2
75 5.5
81 1.6
82 1.5
83 4.7
84 1.2
85 6.9
89 1.6
95 1.9
96 1.3
97 4.8
98 1.1
99 3.1
101 3.9
103 10
104 0.8
105 2
109 1.4
111 2
112 1
113 1.8
115 2.8
116 6.7
117 27.8
118 3.1
119 3
125 1.2
127 1.3
129 10
130 17.4
131 16.2
132 4.1
133 28.3
134 3.1
135 1.9
141 1
145 1.9
147 32.6
148 4.9
149 5.3
155 0.8
175 2.4
177 2.8
189 1.3
204 7.9
205 99.99
206 19.6
207 8.8
208 1.1
219 1.2
221 0.8
313 4.9
314 1.2
355 1
356 1.6
357 1.6
370 1
445 2.4
446 0.8

>  <PREDICTED SPECTRUM>  (5701) 
26 13
27 14
29 76
30 1
39 40
41 134
42 60
43 191
44 65
45 22
47 45
51 4
54 5
55 209
56 99
57 392
58 126
59 191
61 15
66 27
67 41
68 86
69 260
70 64
71 303
72 62
73 585
74 158
75 279
76 24
77 71
79 38
80 12
81 94
82 44
83 253
84 58
85 216
86 41
87 14
88 9
89 175
91 170
93 0
95 80
96 25
97 237
98 38
99 132
101 247
102 10
103 335
104 78
105 117
106 36
107 18
108 8
109 56
110 4
111 199
112 65
113 189
114 9
115 200
116 250
117 528
118 132
119 164
120 9
121 27
123 99
124 37
125 109
126 20
127 43
129 241
130 291
131 373
132 112
133 387
134 139
135 127
137 33
139 16
141 0
144 0
145 81
146 11
147 693
148 270
149 271
150 85
151 41
152 5
153 3
157 18
161 73
162 85
163 149
165 32
167 29
169 12
173 44
174 0
175 110
176 5
177 193
181 8
183 3
187 8
189 70
191 37
193 5
195 8
204 337
205 999
206 473
207 340
208 119
209 0
219 4
221 172
223 56
225 142
233 19
237 17
239 39
243 8
252 36
257 7
267 63
269 7
299 46
312 39
313 197
314 115
315 60
354 21
355 89
356 198
357 255
358 80
359 17
369 74
370 162
444 1
445 163
446 68
460 13
461 26

$$$$

     RDKit          2D

 28 27  0  0  0  0  0  0  0  0999 V2000
    6.4952   12.0000    0.0000 C   0  0  0  0  0  0  0  0  0  0  0  0
  -17.4365   14.0490    0.0000 C   0  0  0  0  0  0  0  0  0  0  0  0
  -19.4856   13.5000    0.0000 C   0  0  0  0  0  0  0  0  0  0  0  0
  -18.9365   11.4510    0.0000 C   0  0  0  0  0  0  0  0  0  0  0  0
  -16.3385   11.0490    0.0000 C   0  0  0  0  0  0  0  0  0  0  0  0
  -16.8875    9.0000    0.0000 C   0  0  0  0  0  0  0  0  0  0  0  0
  -14.8385    8.4510    0.0000 C   0  0  0  0  0  0  0  0  0  0  0  0
    5.1962   12.7500    0.0000 C   0  0  0  0  0  0  0  0  0  0  0  0
    3.8971   12.0000    0.0000 C   0  0  0  0  0  0  0  0  0  0  0  0
    2.5981   12.7500    0.0000 C   0  0  0  0  0  0  0  0  0  0  0  0
    1.2990   12.0000    0.0000 C   0  0  0  0  0  0  0  0  0  0  0  0
    0.0000   12.7500    0.0000 C   0  0  0  0  0  0  0  0  0  0  0  0
   -1.2990   12.0000    0.0000 C   0  0  0  0  0  0  0  0  0  0  0  0
   -2.5981   12.7500    0.0000 C   0  0  0  0  0  0  0  0  0  0  0  0
   -3.8971   12.0000    0.0000 C   0  0  0  0  0  0  0  0  0  0  0  0
   -5.1962   12.7500    0.0000 C   0  0  0  0  0  0  0  0  0  0  0  0
   -6.4952   12.0000    0.0000 C   0  0  0  0  0  0  0  0  0  0  0  0
   -7.7942   12.7500    0.0000 C   0  0  0  0  0  0  0  0  0  0  0  0
   -9.0933   12.0000    0.0000 C   0  0  0  0  0  0  0  0  0  0  0  0
  -10.3923   12.7500    0.0000 C   0  0  0  0  0  0  0  0  0  0  0  0
  -12.9904   12.7500    0.0000 C   0  0  0  0  0  0  0  0  0  0  0  0
  -15.5885   12.7500    0.0000 C   0  0  0  0  0  0  0  0  0  0  0  0
  -14.2894   12.0000    0.0000 C   0  0  0  0  0  0  0  0  0  0  0  0
  -11.6913   12.0000    0.0000 O   0  0  0  0  0  0  0  0  0  0  0  0
  -16.8875   12.0000    0.0000 O   0  0  0  0  0  0  0  0  0  0  0  0
  -14.2894   10.5000    0.0000 O   0  0  0  0  0  0  0  0  0  0  0  0
  -18.1865   12.7500    0.0000 Si  0  0  0  0  0  4  0  0  0  0  0  0
  -15.5885    9.7500    0.0000 Si  0  0  0  0  0  4  0  0  0  0  0  0
  8  1  1  0
  9  8  1  0
 10  9  1  0
 11 10  1  0
 12 11  1  0
 13 12  1  0
 14 13  1  0
 15 14  1  0
 16 15  1  0
 17 16  1  0
 18 17  1  0
 19 18  1  0
 20 19  1  0
 23 21  1  0
 23 22  1  0
 24 20  1  0
 24 21  1  0
 25 22  1  0
 26 23  1  0
 27  2  1  0
 27  3  1  0
 27  4  1  0
 27 25  1  0
 28  5  1  0
 28  6  1  0
 28  7  1  0
 28 26  1  0
M  END
>  <NAME>  (5702) 
1-O-TETRADECYLGLYCEROL 2,3-DITRIMETHYLSILYL ETHER

>  <SYNONYMS>  (5702) 
1-O-TETRADECYL-2,3-DI-O-TRIMETHYLSILYLGLYCEROL

>  <SPECTRUM TYPE>  (5702) 
MS1

>  <INSTRUMENT TYPE>  (5702) 
EI-B

>  <INSTRUMENT>  (5702) 
SHIMADZU LKB-9000B

>  <ION MODE>  (5702) 
P

>  <INCHIKEY>  (5702) 
YCRROHFKFUKIRO-UHFFFAOYSA-N

>  <FORMULA>  (5702) 
C23H52O3Si2

>  <EXACT MASS>  (5702) 
432.345498584

>  <MW>  (5702) 
432

>  <ID>  (5702) 
JP000801

>  <CONTRIBUTOR>  (5702) 
University of Tokyo Team, {Faculty of Engineering, University of Tokyo

>  <COMMENT>  (5702) 
SMILES=CCCCCCCCCCCCCCOCC(CO[Si](C)(C)C)O[Si](C)(C)C
InChI=InChI=1S/C23H52O3Si2/c1-8-9-10-11-12-13-14-15-16-17-18-19-20-24-21-23(26-28(5,6)7)22-25-27(2,3)4/h23H,8-22H2,1-7H3
computed SMILES=O(CCCCCCCCCCCCCC)CC(O[Si](C)(C)C)CO[Si](C)(C)C
accession=JP000801
date=2016.01.19 (Created 2008.10.21, modified 2011.05.06)
author=HAYASHI A, DEPT. OF CHEMISTRY, FAC. OF SCI. AND TECHNOLOGY, KINKI UNIV.
license=CC BY-NC-SA
exact mass=432.3455
ionization energy=70 eV
ion type=[M]+*
computed spectral entropy=3.3150840992334207
computed normalized entropy=0.7829477354039174
SPLASH=splash10-0a59-3950000000-33dd73a12b01f1f72495
submitter=submitter = University of Tokyo Team (Faculty of Engineering, University of Tokyo)
MoNA Rating=3.75

>  <NUM PEAKS>  (5702) 
69

>  <MASS SPECTRAL PEAKS>  (5702) 
55 2.9
56 1.4
57 6.2
67 1.3
68 1
69 4.4
70 1.8
71 8.3
73 18.2
74 1.8
75 6.3
76 0.8
81 1.6
82 1.6
83 4.9
84 1.6
85 8.3
89 1.8
95 1.5
96 1.4
97 4.6
98 1.3
99 2.9
101 5.1
102 0.8
103 10.9
104 1.1
105 2.3
109 1.3
111 1.9
113 1.8
115 3.3
116 7.2
117 32.4
118 3.5
119 3.2
123 0.9
125 1.3
127 1.4
129 9.9
130 17.6
131 17.3
132 4.3
133 29.8
134 3.3
135 2
141 1.3
145 2.2
147 36.3
148 5.9
149 5.2
150 0.8
175 2.6
177 3.4
189 1.3
204 7.7
205 99.99
206 1.91
207 8.5
208 1.1
221 1.1
252 0.9
285 4.5
286 1.1
327 0.8
328 1.5
329 1.4
342 0.8
417 2

>  <PREDICTED SPECTRUM>  (5702) 
26 1
27 18
29 69
39 50
40 15
41 137
42 56
43 193
44 35
45 76
47 30
51 18
53 3
54 12
55 207
56 98
57 369
58 143
59 201
61 38
66 28
67 36
68 76
69 244
70 54
71 284
72 61
73 602
74 166
75 285
76 29
77 82
79 50
80 11
81 92
82 61
83 228
84 52
85 182
86 32
87 12
89 164
91 145
93 10
95 72
96 21
97 199
98 34
99 143
100 7
101 254
102 20
103 318
104 81
105 120
106 45
107 16
109 48
110 2
111 173
112 49
113 167
114 15
115 211
116 267
117 545
118 152
119 151
121 24
123 79
124 29
125 73
129 232
130 292
131 378
132 120
133 401
134 179
135 163
137 33
141 28
145 74
146 31
147 691
148 268
149 273
150 88
151 13
155 25
159 29
161 45
162 4
163 54
165 14
167 38
175 80
176 26
177 193
183 37
189 29
191 0
195 50
196 23
197 175
198 10
204 316
205 999
206 490
207 354
208 100
211 5
215 6
221 128
229 11
237 17
239 76
252 78
253 25
254 3
271 58
284 19
285 187
286 113
287 62
326 14
327 79
328 164
329 222
330 45
341 50
342 153
417 151
418 30
432 10
433 27

$$$$

     RDKit          2D

 15 17  0  0  0  0  0  0  0  0999 V2000
    4.1468   -1.5685    0.0000 C   0  0  0  0  0  0  0  0  0  0  0  0
    0.2479   -0.8183    0.0000 C   0  0  0  0  0  0  0  0  0  0  0  0
    0.2491    3.6819    0.0000 C   0  0  0  0  0  0  0  0  0  0  0  0
    1.5479   -1.5683    0.0000 C   0  0  0  0  0  0  0  0  0  0  0  0
    1.5479    2.9317    0.0000 C   0  0  0  0  0  0  0  0  0  0  0  0
    2.8479    0.6817    0.0000 C   0  0  0  0  0  0  0  0  0  0  0  0
    0.2479    0.6817    0.0000 C   0  0  0  0  0  0  0  0  0  0  0  0
   -1.0500    2.9324    0.0000 C   0  0  0  0  0  0  0  0  0  0  0  0
    0.8479    0.3917    0.0000 C   0  0  0  0  0  0  0  0  0  0  0  0
    2.8479   -0.8183    0.0000 C   0  0  0  0  0  0  0  0  0  0  0  0
    1.5479    1.4317    0.0000 C   0  0  0  0  0  0  0  0  0  0  0  0
   -2.3488    3.6829    0.0000 O   0  0  0  0  0  0  0  0  0  0  0  0
   -2.0878    0.5515    0.0000 O   0  0  0  0  0  0  0  0  0  0  0  0
   -1.0507    1.4325    0.0000 O   0  0  0  0  0  0  0  0  0  0  0  0
    1.3679   -0.5983    0.0000 O   0  0  0  0  0  0  0  0  0  0  0  0
  4  2  2  0
  5  3  2  0
  7  2  1  0
  8  3  1  0
 10  1  1  0
 10  4  1  0
 10  6  1  0
 11  5  1  0
 11  6  1  0
 11  7  1  0
 11  9  1  0
 12  8  2  0
 13  9  2  0
 14  7  1  0
 14  8  1  0
 15  9  1  0
 15 10  1  0
M  END
>  <NAME>  (5703) 
8-METHYL-3-OXO-2-OXABICYCLO(4.4.0)DECA-4,9-DIENE-6,8-CARBOLACTONE

>  <SYNONYMS>  (5703) 


>  <SPECTRUM TYPE>  (5703) 
MS1

>  <INSTRUMENT TYPE>  (5703) 
EI-B

>  <INSTRUMENT>  (5703) 
HITACHI RMU-6L

>  <ION MODE>  (5703) 
P

>  <INCHIKEY>  (5703) 
CKKDYPCQXYYSIM-UHFFFAOYSA-N

>  <FORMULA>  (5703) 
C11H10O4

>  <EXACT MASS>  (5703) 
206.0579088

>  <MW>  (5703) 
206

>  <ID>  (5703) 
JP000753

>  <CONTRIBUTOR>  (5703) 
University of Tokyo Team, {Faculty of Engineering, University of Tokyo

>  <COMMENT>  (5703) 
SMILES=O=C(C=3)OC(C=2)C(C3)(C1)C(=O)OC(C)(C2)1
InChI=InChI=1S/C11H10O4/c1-10-4-2-7-11(6-10,9(13)15-10)5-3-8(12)14-7/h2-5,7H,6H2,1H3
computed SMILES=O=C1OC2C=CC3(OC(=O)C2(C=C1)C3)C
accession=JP000753
date=2016.01.19 (Created 2008.10.21, modified 2011.05.06)
author=NAKAYAMA M, MASS SPECTROSCOPY SOC. OF JAPAN (MSSJ)
license=CC BY-NC-SA
exact mass=206.05791
ionization energy=70 eV
ion type=[M]+*
computed spectral entropy=3.361709635953399
computed normalized entropy=0.8351343917826595
SPLASH=splash10-0gx3-9600000000-c5df5f55f05ab32b4045
submitter=submitter = University of Tokyo Team (Faculty of Engineering, University of Tokyo)
MoNA Rating=3.75

>  <NUM PEAKS>  (5703) 
56

>  <MASS SPECTRAL PEAKS>  (5703) 
39 71
40 7
42 4
43 33
44 2
49 2
50 36
51 65.5
52 4.8
53 2.2
54 7
55 15.5
61 3
62 9
63 26
64 6
65 28
66 9
67 3
68 2
74 8
75 6
76 5
77 33
78 16
79 28
80 12
81 4
82 3
89 7
90 3
91 81
92 17
93 3
94 3
102 4
103 14
104 3
105 53
106 10
107 3
108 2
115 10
116 3
117 7
118 2
119 31
120 2
132 2
133 91.5
134 53
135 5
147 14
161 3
162 99.99
163 10

>  <PREDICTED SPECTRUM>  (5703) 
25 0
26 63
27 135
28 67
29 128
34 5
37 101
38 198
39 495
40 224
41 275
42 129
43 421
44 258
45 148
49 71
50 378
51 498
52 355
53 471
54 194
55 246
56 65
57 59
60 6
61 149
62 219
63 351
64 237
65 474
66 207
67 63
68 96
69 29
70 34
74 165
75 167
76 203
77 614
78 411
79 433
80 181
81 213
82 137
83 89
84 8
85 58
88 12
89 205
90 158
91 776
92 411
93 180
94 84
95 18
102 96
103 267
104 275
105 577
106 245
107 308
108 169
115 246
116 103
117 237
118 111
119 497
120 173
131 88
132 119
133 974
134 725
135 113
145 53
147 325
148 40
161 20
162 999
163 259
164 55
191 4
206 50

$$$$

     RDKit          2D

 16 18  0  0  0  0  0  0  0  0999 V2000
    4.1474    2.1821    0.0000 C   0  0  0  0  0  0  0  0  0  0  0  0
   -2.3485    1.4318    0.0000 C   0  0  0  0  0  0  0  0  0  0  0  0
   -1.0494    2.1815    0.0000 C   0  0  0  0  0  0  0  0  0  0  0  0
    1.5482   -0.8194    0.0000 C   0  0  0  0  0  0  0  0  0  0  0  0
    1.5492    2.1823    0.0000 C   0  0  0  0  0  0  0  0  0  0  0  0
    2.8477   -0.0685    0.0000 C   0  0  0  0  0  0  0  0  0  0  0  0
    0.2492   -0.0694    0.0000 C   0  0  0  0  0  0  0  0  0  0  0  0
   -2.3489   -0.0681    0.0000 C   0  0  0  0  0  0  0  0  0  0  0  0
    0.8003    0.3052    0.0000 C   0  0  0  0  0  0  0  0  0  0  0  0
    2.8482    1.4323    0.0000 C   0  0  0  0  0  0  0  0  0  0  0  0
    0.2497    1.4315    0.0000 C   0  0  0  0  0  0  0  0  0  0  0  0
    4.1468   -0.8185    0.0000 I   0  0  0  0  0  0  0  0  0  0  0  0
   -3.6483   -0.8176    0.0000 O   0  0  0  0  0  0  0  0  0  0  0  0
   -0.8059   -2.1572    0.0000 O   0  0  0  0  0  0  0  0  0  0  0  0
   -1.0503   -0.8185    0.0000 O   0  0  0  0  0  0  0  0  0  0  0  0
    1.9177    0.2606    0.0000 O   0  0  0  0  0  0  0  0  0  0  0  0
  3  2  2  0
  6  4  1  0
  7  4  1  0
  8  2  1  0
 10  1  1  0
 10  5  1  0
 10  6  1  0
 11  3  1  0
 11  5  1  0
 11  7  1  0
 11  9  1  0
 12  6  1  0
 13  8  2  0
 14  9  2  0
 15  7  1  0
 15  8  1  0
 16  9  1  0
 16 10  1  0
M  END
>  <NAME>  (5704) 
9-IODO-8-METHYL-3-OXO-2-OXABICYCLO(4.4.0)DEC-4-ENE-6,8-CARBOLACTONE

>  <SYNONYMS>  (5704) 


>  <SPECTRUM TYPE>  (5704) 
MS1

>  <INSTRUMENT TYPE>  (5704) 
EI-B

>  <INSTRUMENT>  (5704) 
HITACHI RMU-6L

>  <ION MODE>  (5704) 
P

>  <INCHIKEY>  (5704) 
LEUOKTNTKDLUQE-UHFFFAOYSA-N

>  <FORMULA>  (5704) 
C11H11IO4

>  <EXACT MASS>  (5704) 
333.97020683200003

>  <MW>  (5704) 
334

>  <ID>  (5704) 
JP000752

>  <CONTRIBUTOR>  (5704) 
University of Tokyo Team, {Faculty of Engineering, University of Tokyo

>  <COMMENT>  (5704) 
SMILES=O=C(C=3)OC(C1)C(C3)(C(=O)2)CC(C)(O2)C(I)1
InChI=InChI=1S/C11H11IO4/c1-10-5-11(9(14)16-10)3-2-8(13)15-7(11)4-6(10)12/h2-3,6-7H,4-5H2,1H3
computed SMILES=O=C1OC2CC(I)C3(OC(=O)C2(C=C1)C3)C
accession=JP000752
date=2016.01.19 (Created 2008.10.21, modified 2011.05.06)
author=NAKAYAMA M, MASS SPECTROSCOPY SOC. OF JAPAN (MSSJ)
license=CC BY-NC-SA
exact mass=333.9702
ionization energy=70 eV
ion type=[M]+*
computed spectral entropy=3.3392457234946176
computed normalized entropy=0.7734232580803918
SPLASH=splash10-0a6r-9730000000-b89584f2bfbb3b534e47
submitter=submitter = University of Tokyo Team (Faculty of Engineering, University of Tokyo)
MoNA Rating=3.75

>  <NUM PEAKS>  (5704) 
75

>  <MASS SPECTRAL PEAKS>  (5704) 
39 18
40 2
41 15
42 0.1
43 35
44 2
45 1
50 0.4
51 12
52 12
53 19
54 0.2
55 15
56 1
57 12
62 0.1
63 4
64 1
65 9
66 0.1
67 7
69 10
71 1
74 0.1
75 1
77 14
78 4
79 2
80 7
81 52
82 2
83 0.1
89 1
90 1
91 25
92 0.3
93 4
94 1
95 10
96 0.1
97 1
103 2
105 12
106 0.1
107 9
108 25
109 11
110 0.6
115 1
117 2
119 2
123 0.1
133 12
134 1
135 12
136 0.1
137 1
138 1
145 1
147 0.1
149 1
150 17
151 12
152 0.1
161 10
162 2
163 17
164 0.2
179 78
180 8
188 1
207 99.99
208 1
334 5
335 0.5

>  <PREDICTED SPECTRUM>  (5704) 
26 40
27 75
29 2
37 7
38 87
39 338
40 158
41 430
42 164
43 447
44 178
45 52
48 2
49 42
50 117
51 245
52 218
53 434
54 260
55 379
56 84
57 82
59 55
60 49
61 9
62 80
63 182
64 171
65 321
66 198
67 490
68 186
69 220
70 71
71 87
73 1
74 27
75 67
76 35
77 384
78 172
79 424
80 233
81 537
82 173
83 77
84 0
85 65
87 4
89 140
90 98
91 491
92 184
93 213
94 127
95 263
96 113
97 104
98 35
99 52
103 174
104 21
105 296
106 107
107 326
108 331
109 183
110 98
111 1
112 3
113 11
115 87
117 70
118 10
119 222
120 94
121 183
122 130
123 208
124 79
125 47
128 43
129 7
131 0
133 235
134 110
135 365
136 159
137 209
138 81
147 132
148 36
149 195
150 202
151 395
152 143
153 3
161 240
162 112
163 368
164 93
165 148
166 67
178 25
179 966
180 368
189 32
191 0
192 3
207 999
208 108
247 29
290 61
334 198
335 70

$$$$

     RDKit          2D

 17 18  0  0  0  0  0  0  0  0999 V2000
   -5.1981    0.7504    0.0000 C   0  0  0  0  0  0  0  0  0  0  0  0
   -2.5990   -3.7500    0.0000 C   0  0  0  0  0  0  0  0  0  0  0  0
   -1.3000    1.5000    0.0000 C   0  0  0  0  0  0  0  0  0  0  0  0
   -2.6000   -0.7500    0.0000 C   0  0  0  0  0  0  0  0  0  0  0  0
    2.6000   -0.7500    0.0000 C   0  0  0  0  0  0  0  0  0  0  0  0
   -2.6000    0.7500    0.0000 C   0  0  0  0  0  0  0  0  0  0  0  0
    0.0000    0.7500    0.0000 C   0  0  0  0  0  0  0  0  0  0  0  0
    1.3000   -1.5000    0.0000 C   0  0  0  0  0  0  0  0  0  0  0  0
    2.6000    0.7500    0.0000 C   0  0  0  0  0  0  0  0  0  0  0  0
   -1.3000   -1.5000    0.0000 C   0  0  0  0  0  0  0  0  0  0  0  0
    0.0000   -0.7500    0.0000 C   0  0  0  0  0  0  0  0  0  0  0  0
    1.3000    1.5000    0.0000 C   0  0  0  0  0  0  0  0  0  0  0  0
    1.3000   -3.0000    0.0000 O   0  0  0  0  0  0  0  0  0  0  0  0
    3.8989    1.5002    0.0000 O   0  0  0  0  0  0  0  0  0  0  0  0
    1.3000    3.0000    0.0000 O   0  0  0  0  0  0  0  0  0  0  0  0
   -3.8989    1.5002    0.0000 O   0  0  0  0  0  0  0  0  0  0  0  0
   -1.3000   -3.0000    0.0000 O   0  0  0  0  0  0  0  0  0  0  0  0
  6  3  2  0
  6  4  1  0
  7  3  1  0
  8  5  1  0
  9  5  2  0
 10  4  2  0
 11  7  2  0
 11  8  1  0
 11 10  1  0
 12  7  1  0
 12  9  1  0
 13  8  2  0
 14  9  1  0
 15 12  2  0
 16  1  1  0
 16  6  1  0
 17  2  1  0
 17 10  1  0
M  END
>  <NAME>  (5705) 
2-HYDROXY-5,7-DIMETHOXY-1,4-NAPHTHOQUINONE

>  <SYNONYMS>  (5705) 


>  <SPECTRUM TYPE>  (5705) 
MS1

>  <INSTRUMENT TYPE>  (5705) 
EI-B

>  <INSTRUMENT>  (5705) 
HITACHI RMS-4

>  <ION MODE>  (5705) 
P

>  <INCHIKEY>  (5705) 
ADTSNWYKAAWAQG-UHFFFAOYSA-N

>  <FORMULA>  (5705) 
C12H10O5

>  <EXACT MASS>  (5705) 
234.05282341999998

>  <MW>  (5705) 
234

>  <ID>  (5705) 
JP000750

>  <CONTRIBUTOR>  (5705) 
University of Tokyo Team, {Faculty of Engineering, University of Tokyo

>  <COMMENT>  (5705) 
SMILES=COc(c1)cc(c(=O)2)c(c(=O)cc(O)2)c(OC)1
InChI=InChI=1S/C12H10O5/c1-16-6-3-7-11(10(4-6)17-2)8(13)5-9(14)12(7)15/h3-5,14H,1-2H3
computed SMILES=O=C1C=C(O)C(=O)C=2C=C(OC)C=C(OC)C12
date=2016.01.19 (Created 2008.10.21, modified 2011.05.06)
accession=JP000750
author=NAKAYAMA M, MASS SPECTROSCOPY SOC. OF JAPAN (MSSJ)
license=CC BY-NC-SA
exact mass=234.05282
ionization energy=70 eV
ion type=[M]+*
computed spectral entropy=4.400479930969665
computed normalized entropy=0.8854416988551846
SPLASH=splash10-001i-8940000000-95ede05813ff16a24c61
submitter=submitter = University of Tokyo Team (Faculty of Engineering, University of Tokyo)
MoNA Rating=3.75

>  <NUM PEAKS>  (5705) 
144

>  <MASS SPECTRAL PEAKS>  (5705) 
39 15
40 5
41 12
42 0.8
43 23
44 5
45 6
46 0.2
50 10
51 18
52 7
53 0.9
54 5
55 20
56 4
57 0.9
58 2
59 10
60 4
61 0.5
62 9
63 15
64 6
65 1.3
66 4
67 2
68 4
69 0.3
70 14
71 5
72 6
73 0.6
74 5
75 7
76 8
77 2.3
78 8
79 6
80 8
81 0.3
82 3
83 6
84 3
85 0.6
86 3
87 4
88 4
89 1
90 7
91 12
92 10
93 0.6
94 4
95 4
96 3
97 0.4
98 3
99 4
100 5
101 0.5
102 6
103 12
104 5
105 1
106 6
107 8
108 3
109 0.3
110 2
111 2
112 2
113 0.1
114 1
115 5
116 3
117 0.6
118 6
119 8
120 6
121 0.6
122 3
123 2
124 2
125 0.2
126 2
127 3
128 3
129 0.3
130 4
131 10
132 9
133 0.8
134 9
135 14
136 5
137 0.4
138 4
139 2
140 2
141 0.2
142 2
143 3
144 4
145 0.5
146 7
147 9
148 10
149 0.9
150 5
151 4
152 2
153 0.1
158 3
159 6
160 10
161 9.4
162 16
163 9
164 11
173 0.5
174 13
175 27
176 13
177 0.6
178 3
187 4
188 6
189 0.5
190 6
191 6
192 3
202 2.1
203 14
204 5
205 16
206 0.7
216 3
217 3
218 3
219 0.2
233 11
234 99.99
235 16
236 3

>  <PREDICTED SPECTRUM>  (5705) 
15 14
25 2
26 32
28 1
30 24
33 12
36 8
37 59
38 137
39 278
40 150
41 229
42 261
43 146
44 192
45 146
46 57
47 49
49 136
50 322
51 388
52 314
53 496
54 230
55 264
56 153
57 65
58 113
59 157
60 105
61 169
62 288
63 408
64 324
65 311
66 259
67 373
68 470
69 999
70 405
71 144
72 85
73 60
74 238
75 292
76 226
77 338
78 276
79 372
80 263
81 275
82 248
83 230
84 29
85 38
86 16
87 126
88 189
89 293
90 231
91 332
92 257
93 312
94 244
95 398
96 233
97 135
98 59
99 71
101 147
102 204
103 278
104 274
105 250
106 330
107 368
108 332
109 142
110 70
111 8
116 226
117 288
118 216
119 333
120 179
121 138
122 174
123 86
124 20
125 51
129 8
130 78
131 175
132 306
133 149
134 140
135 568
136 259
137 241
138 164
139 124
140 10
143 49
144 80
145 197
146 106
147 159
148 265
149 213
150 3
151 94
158 58
159 307
160 280
161 177
162 296
163 432
164 47
165 240
167 25
173 141
174 65
175 132
176 247
177 286
178 108
187 285
188 656
189 354
190 213
191 359
192 50
202 0
203 9
204 254
205 511
206 578
207 174
215 79
216 136
217 143
218 77
219 3
220 13
233 141
234 929
235 334
236 147

$$$$

     RDKit          2D

 15 16  0  0  0  0  0  0  0  0999 V2000
   -1.3000    1.5000    0.0000 C   0  0  0  0  0  0  0  0  0  0  0  0
   -2.6000   -0.7500    0.0000 C   0  0  0  0  0  0  0  0  0  0  0  0
    2.6000   -0.7500    0.0000 C   0  0  0  0  0  0  0  0  0  0  0  0
   -2.6000    0.7500    0.0000 C   0  0  0  0  0  0  0  0  0  0  0  0
    0.0000    0.7500    0.0000 C   0  0  0  0  0  0  0  0  0  0  0  0
   -1.3000   -1.5000    0.0000 C   0  0  0  0  0  0  0  0  0  0  0  0
    1.3000   -1.5000    0.0000 C   0  0  0  0  0  0  0  0  0  0  0  0
    2.6000    0.7500    0.0000 C   0  0  0  0  0  0  0  0  0  0  0  0
    0.0000   -0.7500    0.0000 C   0  0  0  0  0  0  0  0  0  0  0  0
    1.3000    1.5000    0.0000 C   0  0  0  0  0  0  0  0  0  0  0  0
   -3.8989    1.5002    0.0000 O   0  0  0  0  0  0  0  0  0  0  0  0
   -1.3000   -3.0000    0.0000 O   0  0  0  0  0  0  0  0  0  0  0  0
    1.3000   -3.0000    0.0000 O   0  0  0  0  0  0  0  0  0  0  0  0
    3.8989    1.5002    0.0000 O   0  0  0  0  0  0  0  0  0  0  0  0
    1.3000    3.0000    0.0000 O   0  0  0  0  0  0  0  0  0  0  0  0
  4  1  2  0
  4  2  1  0
  5  1  1  0
  6  2  2  0
  7  3  1  0
  8  3  2  0
  9  5  2  0
  9  6  1  0
  9  7  1  0
 10  5  1  0
 10  8  1  0
 11  4  1  0
 12  6  1  0
 13  7  2  0
 14  8  1  0
 15 10  2  0
M  END
>  <NAME>  (5706) 
2,5,7-TRIHYDROXY-1,4-NAPHTHOQUINONE

>  <SYNONYMS>  (5706) 
FLAVIOLIN

>  <SPECTRUM TYPE>  (5706) 
MS1

>  <INSTRUMENT TYPE>  (5706) 
EI-B

>  <INSTRUMENT>  (5706) 
HITACHI RMS-4

>  <ION MODE>  (5706) 
P

>  <INCHIKEY>  (5706) 
RROPNRTUMVVUED-UHFFFAOYSA-N

>  <FORMULA>  (5706) 
C10H6O5

>  <EXACT MASS>  (5706) 
206.02152329199998

>  <MW>  (5706) 
206

>  <ID>  (5706) 
JP000749

>  <CONTRIBUTOR>  (5706) 
University of Tokyo Team, {Faculty of Engineering, University of Tokyo

>  <COMMENT>  (5706) 
SMILES=Oc(c2)cc(c(=O)1)c(c(O)2)c(=O)cc(O)1
InChI=InChI=1S/C10H6O5/c11-4-1-5-9(6(12)2-4)7(13)3-8(14)10(5)15/h1-3,11-12,14H
computed SMILES=O=C1C=C(O)C(=O)C=2C=C(O)C=C(O)C12
accession=JP000749
date=2016.01.19 (Created 2008.10.21, modified 2011.05.06)
author=NAKAYAMA M, MASS SPECTROSCOPY SOC. OF JAPAN (MSSJ)
license=CC BY-NC-SA
exact mass=206.02152
ionization energy=70 eV
ion type=[M]+*
computed spectral entropy=3.0733854964083474
computed normalized entropy=0.7669403451986875
SPLASH=splash10-0a4i-9750000000-e30fdde7df39448f8877
submitter=submitter = University of Tokyo Team (Faculty of Engineering, University of Tokyo)
MoNA Rating=3.75

>  <NUM PEAKS>  (5706) 
55

>  <MASS SPECTRAL PEAKS>  (5706) 
39 11
41 8
42 4
43 0.5
50 10
51 12
52 8
53 1.2
54 2
55 9
61 5
62 0.6
63 7
64 2
65 8
66 0.7
67 2
68 2
69 36
70 0.2
75 12
76 5
77 6
79 0.7
80 2
81 7
82 1
88 0.1
89 6
90 2
92 1
93 0.2
94 3
103 1
104 2
105 0.1
108 12
109 11
110 1
120 0.8
121 9
122 1
135 1
136 1.3
137 45
138 6
139 1
149 1.1
150 19
151 2
178 35
179 0.5
180 1
206 99.99
207 15

>  <PREDICTED SPECTRUM>  (5706) 
25 1
26 44
27 34
28 44
29 6
37 53
38 97
39 152
40 82
41 182
42 156
43 30
44 36
49 75
50 203
51 312
52 274
53 386
54 197
55 205
56 50
60 22
61 120
62 159
63 248
64 125
65 258
66 199
67 219
68 193
69 627
70 96
74 36
75 116
76 170
77 232
78 81
79 247
80 175
81 290
82 203
83 58
89 159
90 85
91 80
92 114
93 139
94 143
95 93
96 17
97 14
103 57
104 169
107 85
108 243
109 364
110 261
111 133
121 159
122 196
123 14
132 32
136 269
137 570
138 217
139 64
149 181
150 367
151 41
159 17
160 117
161 18
164 44
165 38
166 11
177 60
178 605
179 173
180 18
206 999
207 328
208 87

$$$$

     RDKit          2D

 12 12  0  0  0  0  0  0  0  0999 V2000
    6.3801   -4.3545    0.0000 C   0  0  0  0  0  0  0  0  0  0  0  0
    1.2100    0.3900    0.0000 C   0  0  0  0  0  0  0  0  0  0  0  0
    1.6322   -2.2431    0.0000 C   0  0  0  0  0  0  0  0  0  0  0  0
    0.0000    1.2800    0.0000 C   0  0  0  0  0  0  0  0  0  0  0  0
    3.1239   -2.0857    0.0000 C   0  0  0  0  0  0  0  0  0  0  0  0
   -0.7500   -1.0300    0.0000 C   0  0  0  0  0  0  0  0  0  0  0  0
    0.7500   -1.0300    0.0000 C   0  0  0  0  0  0  0  0  0  0  0  0
   -1.2100    0.3900    0.0000 C   0  0  0  0  0  0  0  0  0  0  0  0
    4.0061   -3.2988    0.0000 C   0  0  0  0  0  0  0  0  0  0  0  0
   -2.6377    0.8500    0.0000 O   0  0  0  0  0  0  0  0  0  0  0  0
    3.3966   -4.6694    0.0000 O   0  0  0  0  0  0  0  0  0  0  0  0
    5.4979   -3.1414    0.0000 O   0  0  0  0  0  0  0  0  0  0  0  0
  4  2  1  0
  5  3  1  0
  7  2  1  0
  7  3  1  0
  7  6  2  0
  8  4  1  0
  8  6  1  0
  9  5  1  0
 10  8  2  0
 11  9  2  0
 12  1  1  0
 12  9  1  0
M  END
>  <NAME>  (5707) 
3-(2-(METHOXY(ARBONYL)ETHYL)-2-CYCLOPENTEN-1-ONE

>  <SYNONYMS>  (5707) 


>  <SPECTRUM TYPE>  (5707) 
MS1

>  <INSTRUMENT TYPE>  (5707) 
EI-B

>  <INSTRUMENT>  (5707) 
HITACHI RMS-4

>  <ION MODE>  (5707) 
P

>  <INCHIKEY>  (5707) 
KGVGYHPHMLHEME-UHFFFAOYSA-N

>  <FORMULA>  (5707) 
C9H12O3

>  <EXACT MASS>  (5707) 
168.07864424399997

>  <MW>  (5707) 
168

>  <ID>  (5707) 
JP000742

>  <CONTRIBUTOR>  (5707) 
University of Tokyo Team, {Faculty of Engineering, University of Tokyo

>  <COMMENT>  (5707) 
SMILES=COC(=O)CCC(C1)=CC(=O)C1
InChI=InChI=1S/C9H12O3/c1-12-9(11)5-3-7-2-4-8(10)6-7/h6H,2-5H2,1H3
computed SMILES=O=C(OC)CCC1=CC(=O)CC1
accession=JP000742
license=CC BY-NC-SA
date=2016.01.19 (Created 2008.10.21, modified 2011.05.06)
author=NAKAYAMA M, MASS SPECTROSCOPY SOC. OF JAPAN (MSSJ)
exact mass=168.07864
ionization energy=70 eV
ion type=[M]+*
computed spectral entropy=3.4307637293649753
computed normalized entropy=0.8188655010044111
SPLASH=splash10-00lr-9200000000-ee05b126202e1c6bcd5d
submitter=submitter = University of Tokyo Team (Faculty of Engineering, University of Tokyo)
MoNA Rating=3.75

>  <NUM PEAKS>  (5707) 
66

>  <MASS SPECTRAL PEAKS>  (5707) 
39 34
40 8
41 33
42 0.6
43 17
44 2
45 8
50 0.7
51 15
52 17
53 48
54 0.7
55 18
56 3
57 3
58 0.3
59 18
60 2
61 2
62 0.2
63 3
64 2
65 11
66 1.5
67 25
68 6
69 6
71 0.3
74 4
75 2
77 9
78 0.4
79 30
80 30
81 99.99
82 1
83 7
84 3
85 2
87 0.3
91 3
92 1
93 3
94 1.5
95 18
96 3
97 8
98 1.8
99 5
107 7
108 27
109 3.8
110 6
111 4
112 3
123 0.3
125 10
126 2
136 15
137 1.7
138 3
139 3
140 18
141 0.3
168 52
169 5

>  <PREDICTED SPECTRUM>  (5707) 
26 92
27 270
28 104
29 183
30 6
31 86
32 27
33 59
37 75
38 196
39 594
40 268
41 553
42 240
43 295
44 4
45 184
49 20
50 198
51 361
52 343
53 564
54 264
55 401
56 53
57 79
58 28
59 434
61 31
62 90
63 179
64 100
65 381
66 324
67 456
68 260
69 285
71 55
73 46
74 335
75 103
76 57
77 267
78 234
79 509
80 747
81 999
82 479
83 192
84 126
85 37
91 224
92 99
93 248
94 199
95 416
96 113
97 411
98 242
99 26
107 113
108 786
109 330
110 241
111 256
112 312
113 88
124 33
125 109
126 26
136 358
137 424
138 163
139 134
140 295
141 84
168 737
169 247
170 53

$$$$

     RDKit          2D

 12 12  0  0  0  0  0  0  0  0999 V2000
    0.0052    1.2314    0.0000 C   0  0  0  0  0  0  0  0  0  0  0  0
    4.2435   -1.2600    0.0000 C   0  0  0  0  0  0  0  0  0  0  0  0
   -2.5695    0.5395    0.0000 C   0  0  0  0  0  0  0  0  0  0  0  0
   -3.3195   -0.7595    0.0000 C   0  0  0  0  0  0  0  0  0  0  0  0
    0.3464   -2.0100    0.0000 C   0  0  0  0  0  0  0  0  0  0  0  0
   -1.1097    0.2279    0.0000 C   0  0  0  0  0  0  0  0  0  0  0  0
   -0.9526   -1.2600    0.0000 C   0  0  0  0  0  0  0  0  0  0  0  0
   -2.3197   -1.8679    0.0000 C   0  0  0  0  0  0  0  0  0  0  0  0
    1.6454   -1.2600    0.0000 C   0  0  0  0  0  0  0  0  0  0  0  0
   -2.6313   -3.3352    0.0000 O   0  0  0  0  0  0  0  0  0  0  0  0
    1.6454    0.2400    0.0000 O   0  0  0  0  0  0  0  0  0  0  0  0
    2.9445   -2.0100    0.0000 O   0  0  0  0  0  0  0  0  0  0  0  0
  4  3  1  0
  6  1  1  0
  6  3  1  0
  7  5  1  0
  7  6  2  0
  8  4  1  0
  8  7  1  0
  9  5  1  0
 10  8  2  0
 11  9  2  0
 12  2  1  0
 12  9  1  0
M  END
>  <NAME>  (5708) 
2-METHOXYCARBONYLMETHYL-3-METHYL-2-CYCLOPENTEN-1-ONE

>  <SYNONYMS>  (5708) 


>  <SPECTRUM TYPE>  (5708) 
MS1

>  <INSTRUMENT TYPE>  (5708) 
EI-B

>  <INSTRUMENT>  (5708) 
HITACHI RMS-4

>  <ION MODE>  (5708) 
P

>  <INCHIKEY>  (5708) 
BKYLKYCUGLTFMT-UHFFFAOYSA-N

>  <FORMULA>  (5708) 
C9H12O3

>  <EXACT MASS>  (5708) 
168.07864424399997

>  <MW>  (5708) 
168

>  <ID>  (5708) 
JP000741

>  <CONTRIBUTOR>  (5708) 
University of Tokyo Team, {Faculty of Engineering, University of Tokyo

>  <COMMENT>  (5708) 
SMILES=COC(=O)CC(=C(C)1)C(=O)CC1
InChI=InChI=1S/C9H12O3/c1-6-3-4-8(10)7(6)5-9(11)12-2/h3-5H2,1-2H3
computed SMILES=O=C(OC)CC=1C(=O)CCC1C
accession=JP000741
date=2016.01.19 (Created 2008.10.21, modified 2011.05.06)
author=NAKAYAMA M, MASS SPECTROSCOPY SOC. OF JAPAN (MSSJ)
license=CC BY-NC-SA
exact mass=168.07864
ionization energy=70 eV
ion type=[M]+*
computed spectral entropy=3.3126616485536
computed normalized entropy=0.7771312282668729
SPLASH=splash10-0553-9300000000-6b968f2713791173ae9c
submitter=submitter = University of Tokyo Team (Faculty of Engineering, University of Tokyo)
MoNA Rating=3.75

>  <NUM PEAKS>  (5708) 
71

>  <MASS SPECTRAL PEAKS>  (5708) 
39 52
40 15
41 77
42 0.7
43 17
44 2
45 5
47 1
48 5
49 4
50 13
51 2.7
52 14
53 54
54 8
55 1.7
56 2
57 2
58 1
59 3.3
60 2
61 2
62 4
63 0.6
64 2
65 19
66 13
67 4.8
68 6
69 3
70 0.1
71 2
74 2
75 2
77 1.7
78 6
79 81
80 18
81 8.3
82 9
83 23
84 2
85 1.6
87 4
91 3
93 6
94 0.6
95 9
96 2
97 5
98 0.4
99 3
107 5
108 99.99
109 5.6
110 9
111 3
112 2
121 0.2
123 4
125 6
135 1
136 52
137 23
138 0.3
139 1
140 1
141 1
168 2.7
169 5
170 1

>  <PREDICTED SPECTRUM>  (5708) 
14 26
15 76
25 21
26 202
27 562
28 198
29 401
30 30
31 164
33 55
36 7
37 179
38 335
39 929
40 447
41 776
42 315
43 351
44 104
45 122
49 59
50 319
51 516
52 437
53 733
54 394
55 506
56 186
57 67
59 635
61 82
62 141
63 219
64 120
65 450
66 339
67 640
68 334
69 382
70 56
71 108
74 94
75 8
76 0
77 409
78 165
79 567
80 521
81 757
82 325
83 148
84 88
85 24
91 179
92 109
93 285
94 128
95 324
96 152
97 236
98 141
99 110
107 323
108 700
109 999
110 358
111 249
112 132
113 30
123 99
124 10
125 417
126 286
127 54
135 122
136 411
137 576
138 167
139 174
140 292
141 41
153 372
154 106
167 232
168 700
169 255
170 1

$$$$

     RDKit          2D

 18 17  0  0  0  0  0  0  0  0999 V2000
    4.2219    6.1875    0.0000 C   0  0  0  0  0  0  0  0  0  0  0  0
    2.9228    8.4375    0.0000 C   0  0  0  0  0  0  0  0  0  0  0  0
   -6.5053    8.0866    0.0000 C   0  0  0  0  0  0  0  0  0  0  0  0
   -8.4337    8.0866    0.0000 C   0  0  0  0  0  0  0  0  0  0  0  0
   -1.3091    8.0866    0.0000 C   0  0  0  0  0  0  0  0  0  0  0  0
   -3.2375    8.0866    0.0000 C   0  0  0  0  0  0  0  0  0  0  0  0
    1.6238    6.1875    0.0000 C   0  0  0  0  0  0  0  0  0  0  0  0
   -8.7685    6.1875    0.0000 C   0  0  0  0  0  0  0  0  0  0  0  0
   -3.5724    6.1875    0.0000 C   0  0  0  0  0  0  0  0  0  0  0  0
  -10.0675    6.9375    0.0000 C   0  0  0  0  0  0  0  0  0  0  0  0
    0.3248    6.9375    0.0000 C   0  0  0  0  0  0  0  0  0  0  0  0
   -4.8714    6.9375    0.0000 C   0  0  0  0  0  0  0  0  0  0  0  0
    2.9228    6.9375    0.0000 C   0  0  0  0  0  0  0  0  0  0  0  0
   -7.4695    6.9375    0.0000 C   0  0  0  0  0  0  0  0  0  0  0  0
   -2.2733    6.9375    0.0000 C   0  0  0  0  0  0  0  0  0  0  0  0
  -11.3666    6.1875    0.0000 O   0  0  0  0  0  0  0  0  0  0  0  0
   -0.9743    6.1875    0.0000 O   0  0  0  0  0  0  0  0  0  0  0  0
   -6.1704    6.1875    0.0000 O   0  0  0  0  0  0  0  0  0  0  0  0
 10  8  1  0
 11  7  1  0
 12  9  1  0
 13  1  2  0
 13  2  1  0
 13  7  1  0
 14  3  1  0
 14  4  1  0
 14  8  1  0
 15  5  1  0
 15  6  1  0
 15  9  1  0
 16 10  1  0
 17 11  1  0
 17 15  1  0
 18 12  1  0
 18 14  1  0
M  END
>  <NAME>  (5709) 
3,3,7,7,11-PENTAMETHYL-4,8-DIOXA-11-DODECEN-1-OL

>  <SYNONYMS>  (5709) 


>  <SPECTRUM TYPE>  (5709) 
MS1

>  <INSTRUMENT TYPE>  (5709) 
EI-B

>  <INSTRUMENT>  (5709) 
HITACHI RMS-4

>  <ION MODE>  (5709) 
P

>  <INCHIKEY>  (5709) 
AMHIUBLQGDHLIM-UHFFFAOYSA-N

>  <FORMULA>  (5709) 
C15H30O3

>  <EXACT MASS>  (5709) 
258.21949481999997

>  <MW>  (5709) 
258

>  <ID>  (5709) 
JP000740

>  <CONTRIBUTOR>  (5709) 
University of Tokyo Team, {Faculty of Engineering, University of Tokyo

>  <COMMENT>  (5709) 
SMILES=OCCC(C)(C)OCCC(C)(C)OCCC(C)=C
InChI=InChI=1S/C15H30O3/c1-13(2)7-11-17-15(5,6)9-12-18-14(3,4)8-10-16/h16H,1,7-12H2,2-6H3
computed SMILES=OCCC(OCCC(OCCC(=C)C)(C)C)(C)C
accession=JP000740
date=2016.01.19 (Created 2008.10.21, modified 2011.05.06)
author=NAKAYAMA M, MASS SPECTROSCOPY SOC. OF JAPAN (MSSJ)
license=CC BY-NC-SA
exact mass=258.21949
ionization energy=70 eV
ion type=[M]+*
computed spectral entropy=2.9894788750798
computed normalized entropy=0.8342299640162525
SPLASH=splash10-014i-9100000000-26854205aa61bac3bc4a
submitter=submitter = University of Tokyo Team (Faculty of Engineering, University of Tokyo)
MoNA Rating=3.75

>  <NUM PEAKS>  (5709) 
36

>  <MASS SPECTRAL PEAKS>  (5709) 
31 6
39 6
40 3
41 32
42 4
43 13
44 2
45 5
53 4
55 8
56 9
57 9
58 2
59 6
67 5
68 6
69 99.99
70 12
71 18
81 5
85 8
86 8
87 22
88 2
89 7
99 20
103 2
105 11
115 6
117 4
127 5
137 3
139 6
155 7
173 5
258 1.5

>  <PREDICTED SPECTRUM>  (5709) 
26 7
27 70
29 110
31 107
38 16
39 193
40 94
41 615
42 147
43 248
44 52
45 101
53 118
54 79
55 248
56 177
57 245
58 169
59 252
60 57
61 29
67 159
68 366
69 999
70 195
71 347
72 67
73 190
81 170
83 23
85 212
86 136
87 577
88 56
89 127
91 5
95 16
97 31
99 146
100 1
113 39
115 212
116 52
127 56
139 17
140 12
141 110
154 92
155 193
157 33
171 12
172 14
173 98
213 9
258 60

$$$$

     RDKit          2D

 12 11  0  0  0  0  0  0  0  0999 V2000
   -6.8200    5.0625    0.0000 C   0  0  0  0  0  0  0  0  0  0  0  0
   -5.5209    2.8125    0.0000 C   0  0  0  0  0  0  0  0  0  0  0  0
   -1.2889    3.1634    0.0000 C   0  0  0  0  0  0  0  0  0  0  0  0
    0.6394    3.1634    0.0000 C   0  0  0  0  0  0  0  0  0  0  0  0
   -4.2219    5.0625    0.0000 C   0  0  0  0  0  0  0  0  0  0  0  0
    0.9743    5.0625    0.0000 C   0  0  0  0  0  0  0  0  0  0  0  0
    2.2733    4.3125    0.0000 C   0  0  0  0  0  0  0  0  0  0  0  0
   -2.9228    4.3125    0.0000 C   0  0  0  0  0  0  0  0  0  0  0  0
   -5.5209    4.3125    0.0000 C   0  0  0  0  0  0  0  0  0  0  0  0
   -0.3248    4.3125    0.0000 C   0  0  0  0  0  0  0  0  0  0  0  0
    3.5724    5.0625    0.0000 O   0  0  0  0  0  0  0  0  0  0  0  0
   -1.6238    5.0625    0.0000 O   0  0  0  0  0  0  0  0  0  0  0  0
  7  6  1  0
  8  5  1  0
  9  1  2  0
  9  2  1  0
  9  5  1  0
 10  3  1  0
 10  4  1  0
 10  6  1  0
 11  7  1  0
 12  8  1  0
 12 10  1  0
M  END
>  <NAME>  (5710) 
3,3,7-TRIMETHYL-4-OXA-7-OCTEN-1-OL

>  <SYNONYMS>  (5710) 


>  <SPECTRUM TYPE>  (5710) 
MS1

>  <INSTRUMENT TYPE>  (5710) 
EI-B

>  <INSTRUMENT>  (5710) 
HITACHI RMS-4

>  <ION MODE>  (5710) 
P

>  <INCHIKEY>  (5710) 
OYSGDRSBCITWNM-UHFFFAOYSA-N

>  <FORMULA>  (5710) 
C10H20O2

>  <EXACT MASS>  (5710) 
172.14632988

>  <MW>  (5710) 
172

>  <ID>  (5710) 
JP000739

>  <CONTRIBUTOR>  (5710) 
University of Tokyo Team, {Faculty of Engineering, University of Tokyo

>  <COMMENT>  (5710) 
SMILES=OCCC(C)(C)OCCC(C)=C
InChI=InChI=1S/C10H20O2/c1-9(2)5-8-12-10(3,4)6-7-11/h11H,1,5-8H2,2-4H3
computed SMILES=OCCC(OCCC(=C)C)(C)C
accession=JP000739
date=2016.01.19 (Created 2008.10.21, modified 2011.05.06)
author=NAKAYAMA M, MASS SPECTROSCOPY SOC. OF JAPAN (MSSJ)
license=CC BY-NC-SA
exact mass=172.14633
ionization energy=70 eV
ion type=[M]+*
computed spectral entropy=2.7982018902703025
computed normalized entropy=0.7486488042127856
SPLASH=splash10-014i-9000000000-4086e06943bfb6ed2a05
submitter=submitter = University of Tokyo Team (Faculty of Engineering, University of Tokyo)
MoNA Rating=3.75

>  <NUM PEAKS>  (5710) 
42

>  <MASS SPECTRAL PEAKS>  (5710) 
31 41
39 5
40 2
41 30
42 3
43 10
44 1
45 4
53 3
54 1
55 7
56 6
57 7
58 1
59 6
60 1
67 4
68 6
69 99.99
70 11
71 10
81 4
87 22
88 1
89 5
97 1
99 16
100 1
103 3
105 3
115 3
116 1
117 5
127 5
138 1
139 1
143 1
147 1
155 3
156 1
157 1
172 2

>  <PREDICTED SPECTRUM>  (5710) 
19 10
26 33
27 201
28 43
29 179
30 15
31 195
32 10
33 29
37 25
38 57
39 350
40 160
41 784
42 245
43 342
44 100
45 417
46 45
47 77
50 5
51 35
52 43
53 273
54 188
55 362
56 277
57 215
58 163
59 261
60 69
61 39
65 21
66 4
67 361
68 446
69 999
70 157
71 382
72 117
73 246
74 23
81 168
82 49
83 115
84 41
85 177
86 182
87 447
88 51
89 119
95 117
96 41
97 30
98 40
99 82
100 12
101 3
108 12
109 76
110 47
111 141
113 69
115 10
125 31
126 106
127 46
129 3
139 38
142 27

$$$$

     RDKit          2D

 15 14  0  0  0  0  0  0  0  0999 V2000
    3.5724    4.3125    0.0000 C   0  0  0  0  0  0  0  0  0  0  0  0
    2.2733    6.5625    0.0000 C   0  0  0  0  0  0  0  0  0  0  0  0
   -4.5567    6.2116    0.0000 C   0  0  0  0  0  0  0  0  0  0  0  0
   -6.4851    6.2116    0.0000 C   0  0  0  0  0  0  0  0  0  0  0  0
   -2.5880    3.1634    0.0000 C   0  0  0  0  0  0  0  0  0  0  0  0
   -0.6596    3.1634    0.0000 C   0  0  0  0  0  0  0  0  0  0  0  0
    0.9743    4.3125    0.0000 C   0  0  0  0  0  0  0  0  0  0  0  0
   -6.8200    4.3125    0.0000 C   0  0  0  0  0  0  0  0  0  0  0  0
   -2.9228    5.0625    0.0000 C   0  0  0  0  0  0  0  0  0  0  0  0
    2.2733    5.0625    0.0000 C   0  0  0  0  0  0  0  0  0  0  0  0
   -5.5209    5.0625    0.0000 C   0  0  0  0  0  0  0  0  0  0  0  0
   -1.6238    4.3125    0.0000 C   0  0  0  0  0  0  0  0  0  0  0  0
   -8.1190    5.0625    0.0000 O   0  0  0  0  0  0  0  0  0  0  0  0
   -0.3248    5.0625    0.0000 O   0  0  0  0  0  0  0  0  0  0  0  0
   -4.2219    4.3125    0.0000 O   0  0  0  0  0  0  0  0  0  0  0  0
 10  1  2  0
 10  2  1  0
 10  7  1  0
 11  3  1  0
 11  4  1  0
 11  8  1  0
 12  5  1  0
 12  6  1  0
 12  9  1  0
 13  8  1  0
 14  7  1  0
 14 12  1  0
 15  9  1  0
 15 11  1  0
M  END
>  <NAME>  (5711) 
2,2,5,5,8-PENTAMETHYL-3,6-DIOXA-8-NONEN-1-OL

>  <SYNONYMS>  (5711) 


>  <SPECTRUM TYPE>  (5711) 
MS1

>  <INSTRUMENT TYPE>  (5711) 
EI-B

>  <INSTRUMENT>  (5711) 
HITACHI RMS-4

>  <ION MODE>  (5711) 
P

>  <INCHIKEY>  (5711) 
QSZCPGMPLJTNHH-UHFFFAOYSA-N

>  <FORMULA>  (5711) 
C12H24O3

>  <EXACT MASS>  (5711) 
216.17254462799997

>  <MW>  (5711) 
216

>  <ID>  (5711) 
JP000738

>  <CONTRIBUTOR>  (5711) 
University of Tokyo Team, {Faculty of Engineering, University of Tokyo

>  <COMMENT>  (5711) 
SMILES=CC(=C)COC(C)(C)COC(C)(C)CO
InChI=InChI=1S/C12H24O3/c1-10(2)7-14-12(5,6)9-15-11(3,4)8-13/h13H,1,7-9H2,2-6H3
computed SMILES=OCC(OCC(OCC(=C)C)(C)C)(C)C
accession=JP000738
date=2016.01.19 (Created 2008.10.21, modified 2011.05.06)
author=NAKAYAMA M, MASS SPECTROSCOPY SOC. OF JAPAN (MSSJ)
license=CC BY-NC-SA
exact mass=216.17254
ionization energy=70 eV
ion type=[M]+*
computed spectral entropy=3.0195567002988444
computed normalized entropy=0.8426233409554024
SPLASH=splash10-0a4i-9100000000-19ba1d8d29b5bdd0030b
submitter=submitter = University of Tokyo Team (Faculty of Engineering, University of Tokyo)
MoNA Rating=3.75

>  <NUM PEAKS>  (5711) 
36

>  <MASS SPECTRAL PEAKS>  (5711) 
39 11
40 5
41 13
42 6
43 17
44 5
45 18
46 6
47 6
53 4
54 3
55 99.99
56 14
57 11
58 4
59 11
69 4
70 5
71 12
72 10
73 21
74 4
81 4
83 4
85 3
95 4
96 4
97 4
101 9
109 6
113 28
114 6
127 6
143 4
185 5
216 0.1

>  <PREDICTED SPECTRUM>  (5711) 
27 104
28 2
29 209
31 129
32 9
33 22
39 379
40 120
41 827
42 265
43 623
44 195
45 358
47 144
51 0
52 9
53 292
54 190
55 872
56 456
57 474
58 245
59 406
60 24
65 40
67 335
68 184
69 364
70 234
71 892
72 487
73 999
74 74
75 5
77 14
81 447
82 109
83 350
84 198
85 386
86 184
87 51
89 62
95 26
96 1
97 218
98 64
99 83
100 110
101 99
103 15
109 139
111 87
112 197
113 468
114 385
115 186
125 95
126 52
127 142
142 52
143 59
145 131
153 26
185 276
216 54

$$$$

     RDKit          2D

 19 18  0  0  0  0  0  0  0  0999 V2000
    3.8971    6.0000    0.0000 C   0  0  0  0  0  0  0  0  0  0  0  0
    2.5981    8.2500    0.0000 C   0  0  0  0  0  0  0  0  0  0  0  0
   -9.0933    4.5000    0.0000 C   0  0  0  0  0  0  0  0  0  0  0  0
  -10.3923    6.7500    0.0000 C   0  0  0  0  0  0  0  0  0  0  0  0
    0.0000    3.7500    0.0000 C   0  0  0  0  0  0  0  0  0  0  0  0
   -2.5981    3.7500    0.0000 C   0  0  0  0  0  0  0  0  0  0  0  0
   -4.2320    7.8991    0.0000 C   0  0  0  0  0  0  0  0  0  0  0  0
   -6.1603    7.8991    0.0000 C   0  0  0  0  0  0  0  0  0  0  0  0
    1.2990    6.0000    0.0000 C   0  0  0  0  0  0  0  0  0  0  0  0
   -7.7942    6.7500    0.0000 C   0  0  0  0  0  0  0  0  0  0  0  0
   -3.8971    6.0000    0.0000 C   0  0  0  0  0  0  0  0  0  0  0  0
    2.5981    6.7500    0.0000 C   0  0  0  0  0  0  0  0  0  0  0  0
   -9.0933    6.0000    0.0000 C   0  0  0  0  0  0  0  0  0  0  0  0
   -1.2990    4.5000    0.0000 C   0  0  0  0  0  0  0  0  0  0  0  0
   -1.2990    6.0000    0.0000 C   0  0  0  0  0  0  0  0  0  0  0  0
   -5.1962    6.7500    0.0000 C   0  0  0  0  0  0  0  0  0  0  0  0
    0.0000    6.7500    0.0000 O   0  0  0  0  0  0  0  0  0  0  0  0
   -2.5981    6.7500    0.0000 O   0  0  0  0  0  0  0  0  0  0  0  0
   -6.4952    6.0000    0.0000 O   0  0  0  0  0  0  0  0  0  0  0  0
 12  1  2  0
 12  2  1  0
 12  9  1  0
 13  3  2  0
 13  4  1  0
 13 10  1  0
 14  5  1  0
 14  6  1  0
 15 14  1  0
 16  7  1  0
 16  8  1  0
 16 11  1  0
 17  9  1  0
 17 15  1  0
 18 11  1  0
 18 15  1  0
 19 10  1  0
 19 16  1  0
M  END
>  <NAME>  (5712) 
2,5,5,11-TETRAMETHYL-8-ISOPROPYL-4,7,9-TRIOXA-1,11-DODECADIENE

>  <SYNONYMS>  (5712) 


>  <SPECTRUM TYPE>  (5712) 
MS1

>  <INSTRUMENT TYPE>  (5712) 
EI-B

>  <INSTRUMENT>  (5712) 
HITACHI RMS-4

>  <ION MODE>  (5712) 
P

>  <INCHIKEY>  (5712) 
GELZIAQNOBTODO-UHFFFAOYSA-N

>  <FORMULA>  (5712) 
C16H30O3

>  <EXACT MASS>  (5712) 
270.21949482

>  <MW>  (5712) 
270

>  <ID>  (5712) 
JP000737

>  <CONTRIBUTOR>  (5712) 
University of Tokyo Team, {Faculty of Engineering, University of Tokyo

>  <COMMENT>  (5712) 
SMILES=CC(=C)COC(C(C)C)OCC(C)(C)OCC(C)=C
InChI=InChI=1S/C16H30O3/c1-12(2)9-17-15(14(5)6)18-11-16(7,8)19-10-13(3)4/h14-15H,1,3,9-11H2,2,4-8H3
computed SMILES=O(CC(=C)C)C(OCC(OCC(=C)C)(C)C)C(C)C
accession=JP000737
date=2016.01.19 (Created 2008.10.21, modified 2011.05.06)
author=NAKAYAMA M, MASS SPECTROSCOPY SOC. OF JAPAN (MSSJ)
license=CC BY-NC-SA
exact mass=270.21949
ionization energy=70 eV
ion type=[M]+*
computed spectral entropy=3.1182187970306208
computed normalized entropy=0.8396817783579338
SPLASH=splash10-0a4i-9200000000-85da374239b48eb1d6ed
submitter=submitter = University of Tokyo Team (Faculty of Engineering, University of Tokyo)
MoNA Rating=3.75

>  <NUM PEAKS>  (5712) 
41

>  <MASS SPECTRAL PEAKS>  (5712) 
39 11
40 4
41 14
42 6
43 10
44 4
45 3
53 7
54 5
55 99.99
56 13
57 17
58 4
59 5
67 4
69 6
70 12
71 16
72 10
73 6
81 7
83 4
85 5
94 4
95 4
96 5
97 3
99 3.5
101 12
111 6
113 4
115 27
116 5
125 5
126 6
127 7
142 3
143 2
155 3
227 2
270 0.1

>  <PREDICTED SPECTRUM>  (5712) 
27 69
29 137
39 294
40 87
41 578
42 213
43 504
44 260
45 273
46 2
51 26
52 34
53 271
54 197
55 999
56 317
57 455
58 54
59 44
67 278
68 48
69 121
70 293
71 597
72 331
73 483
74 36
79 3
81 115
82 19
83 286
84 136
85 104
86 102
87 91
95 105
96 16
97 157
98 122
99 217
100 44
101 248
109 22
111 159
112 44
113 156
114 37
115 263
116 101
117 24
125 94
126 172
127 274
128 172
129 72
139 59
141 109
142 133
143 207
144 59
155 202
157 39
159 18
171 65
181 20
197 76
199 82
215 76

$$$$

     RDKit          2D

 10  9  0  0  0  0  0  0  0  0999 V2000
    2.2288    2.8897    0.0000 C   0  0  0  0  0  0  0  0  0  0  0  0
    0.9297    5.1397    0.0000 C   0  0  0  0  0  0  0  0  0  0  0  0
   -3.9316    1.7406    0.0000 C   0  0  0  0  0  0  0  0  0  0  0  0
   -2.0032    1.7406    0.0000 C   0  0  0  0  0  0  0  0  0  0  0  0
   -0.3693    2.8897    0.0000 C   0  0  0  0  0  0  0  0  0  0  0  0
   -4.2664    3.6397    0.0000 C   0  0  0  0  0  0  0  0  0  0  0  0
    0.9297    3.6397    0.0000 C   0  0  0  0  0  0  0  0  0  0  0  0
   -2.9674    2.8897    0.0000 C   0  0  0  0  0  0  0  0  0  0  0  0
   -5.5655    2.8897    0.0000 O   0  0  0  0  0  0  0  0  0  0  0  0
   -1.6683    3.6397    0.0000 O   0  0  0  0  0  0  0  0  0  0  0  0
  7  1  2  0
  7  2  1  0
  7  5  1  0
  8  3  1  0
  8  4  1  0
  8  6  1  0
  9  6  1  0
 10  5  1  0
 10  8  1  0
M  END
>  <NAME>  (5713) 
2,2,5-TRIMETHYL-3-OXA-5-HEXEN-1-OL

>  <SYNONYMS>  (5713) 


>  <SPECTRUM TYPE>  (5713) 
MS1

>  <INSTRUMENT TYPE>  (5713) 
EI-B

>  <INSTRUMENT>  (5713) 
HITACHI RMS-4

>  <ION MODE>  (5713) 
P

>  <INCHIKEY>  (5713) 
VIYJKNBZRRVSLZ-UHFFFAOYSA-N

>  <FORMULA>  (5713) 
C8H16O2

>  <EXACT MASS>  (5713) 
144.115029752

>  <MW>  (5713) 
144

>  <ID>  (5713) 
JP000736

>  <CONTRIBUTOR>  (5713) 
University of Tokyo Team, {Faculty of Engineering, University of Tokyo

>  <COMMENT>  (5713) 
SMILES=OCC(C)(C)OCC(C)=C
InChI=InChI=1S/C8H16O2/c1-7(2)5-10-8(3,4)6-9/h9H,1,5-6H2,2-4H3
computed SMILES=OCC(OCC(=C)C)(C)C
accession=JP000736
date=2016.01.19 (Created 2008.10.21, modified 2011.05.06)
author=NAKAYAMA M, MASS SPECTROSCOPY SOC. OF JAPAN (MSSJ)
license=CC BY-NC-SA
exact mass=144.11503
ionization energy=70 eV
ion type=[M]+*
computed spectral entropy=2.603336021593551
computed normalized entropy=0.7990358760745799
SPLASH=splash10-0a4i-9100000000-e4a22138ac868e3704d8
submitter=submitter = University of Tokyo Team (Faculty of Engineering, University of Tokyo)
MoNA Rating=3.75

>  <NUM PEAKS>  (5713) 
26

>  <MASS SPECTRAL PEAKS>  (5713) 
39 11
40 6
41 10
42 4
43 14
44 4
45 5
53 6.5
54 5
55 99.99
56 12
57 16
58 13
59 10
70 4
71 4
72 7
73 3
74 12
95 5
101 4
109 3
113 32
114 6.5
126 2
144 0.1

>  <PREDICTED SPECTRUM>  (5713) 
26 48
27 241
28 73
29 326
30 67
31 240
32 37
33 9
37 4
38 46
39 420
40 154
41 770
42 323
43 506
44 204
45 219
50 32
51 30
52 74
53 311
54 228
55 999
56 498
57 477
58 94
67 190
68 119
69 241
70 249
71 480
72 168
73 217
74 20
79 21
81 185
82 112
83 140
85 150
86 49
89 104
97 9
98 30
113 591
114 199
144 61

$$$$

     RDKit          2D

 14 13  0  0  0  0  0  0  0  0999 V2000
    2.9228    3.9375    0.0000 C   0  0  0  0  0  0  0  0  0  0  0  0
    1.6238    6.1875    0.0000 C   0  0  0  0  0  0  0  0  0  0  0  0
   -6.1704    6.1875    0.0000 C   0  0  0  0  0  0  0  0  0  0  0  0
   -7.4695    3.9375    0.0000 C   0  0  0  0  0  0  0  0  0  0  0  0
   -0.9743    1.6875    0.0000 C   0  0  0  0  0  0  0  0  0  0  0  0
   -3.5724    1.6875    0.0000 C   0  0  0  0  0  0  0  0  0  0  0  0
    0.3248    3.9375    0.0000 C   0  0  0  0  0  0  0  0  0  0  0  0
   -4.8714    3.9375    0.0000 C   0  0  0  0  0  0  0  0  0  0  0  0
    1.6238    4.6875    0.0000 C   0  0  0  0  0  0  0  0  0  0  0  0
   -6.1704    4.6875    0.0000 C   0  0  0  0  0  0  0  0  0  0  0  0
   -2.2733    2.4375    0.0000 C   0  0  0  0  0  0  0  0  0  0  0  0
   -2.2733    3.9375    0.0000 C   0  0  0  0  0  0  0  0  0  0  0  0
   -0.9743    4.6875    0.0000 O   0  0  0  0  0  0  0  0  0  0  0  0
   -3.5724    4.6875    0.0000 O   0  0  0  0  0  0  0  0  0  0  0  0
  9  1  2  0
  9  2  1  0
  9  7  1  0
 10  3  2  0
 10  4  1  0
 10  8  1  0
 11  5  1  0
 11  6  1  0
 12 11  1  0
 13  7  1  0
 13 12  1  0
 14  8  1  0
 14 12  1  0
M  END
>  <NAME>  (5714) 
2,8-DIMETHYL-5-ISOPROPYL-4,6-DIOXA-1,8-NONADIENE

>  <SYNONYMS>  (5714) 


>  <SPECTRUM TYPE>  (5714) 
MS1

>  <INSTRUMENT TYPE>  (5714) 
EI-B

>  <INSTRUMENT>  (5714) 
HITACHI RMS-4

>  <ION MODE>  (5714) 
P

>  <INCHIKEY>  (5714) 
RTUVALNOUGJLOR-UHFFFAOYSA-N

>  <FORMULA>  (5714) 
C12H22O2

>  <EXACT MASS>  (5714) 
198.161979944

>  <MW>  (5714) 
198

>  <ID>  (5714) 
JP000735

>  <CONTRIBUTOR>  (5714) 
University of Tokyo Team, {Faculty of Engineering, University of Tokyo

>  <COMMENT>  (5714) 
SMILES=CC(=C)COC(OCC(C)=C)C(C)C
InChI=InChI=1S/C12H22O2/c1-9(2)7-13-12(11(5)6)14-8-10(3)4/h11-12H,1,3,7-8H2,2,4-6H3
computed SMILES=O(CC(=C)C)C(OCC(=C)C)C(C)C
accession=JP000735
date=2016.01.19 (Created 2008.10.21, modified 2011.05.06)
author=NAKAYAMA M, MASS SPECTROSCOPY SOC. OF JAPAN (MSSJ)
license=CC BY-NC-SA
exact mass=198.16198
ionization energy=70 eV
ion type=[M]+*
computed spectral entropy=2.9734327462673615
computed normalized entropy=0.8504007767740293
SPLASH=splash10-0a4i-9100000000-ddb59bdf7e718e38b98a
submitter=submitter = University of Tokyo Team (Faculty of Engineering, University of Tokyo)
MoNA Rating=3.75

>  <NUM PEAKS>  (5714) 
33

>  <MASS SPECTRAL PEAKS>  (5714) 
39 14
40 6
41 14
42 7
43 21
44 5
45 3
53 8
54 7
55 99.99
56 18
57 14
58 4
67 8
68 3
69 8
70 13
71 31
72 9
73 6
81 5
83 5
85 4
97 4
99 6
109 24
110 5
111 5
126 8
127 9
143 4
155 12
198 0.1

>  <PREDICTED SPECTRUM>  (5714) 
26 29
27 184
28 51
29 175
30 11
38 8
39 220
40 86
41 430
42 233
43 688
44 264
45 31
53 238
54 190
55 857
56 272
57 230
58 18
59 24
67 148
68 11
69 109
70 242
71 999
72 457
73 300
74 5
81 62
82 71
83 153
84 75
85 159
87 80
93 93
97 20
99 222
109 261
110 158
111 140
126 66
127 485
128 100
129 53
155 142

$$$$

     RDKit          2D

 13 13  0  0  0  0  0  0  0  0999 V2000
   -2.5989    1.5002    0.0000 C   0  0  0  0  0  0  0  0  0  0  0  0
    2.5989    1.5002    0.0000 C   0  0  0  0  0  0  0  0  0  0  0  0
    3.8981   -0.7504    0.0000 C   0  0  0  0  0  0  0  0  0  0  0  0
   -1.3000    0.7500    0.0000 C   0  0  0  0  0  0  0  0  0  0  0  0
    1.3000    0.7500    0.0000 C   0  0  0  0  0  0  0  0  0  0  0  0
    0.0000    1.5000    0.0000 C   0  0  0  0  0  0  0  0  0  0  0  0
   -1.3000   -0.7500    0.0000 C   0  0  0  0  0  0  0  0  0  0  0  0
    0.0000   -1.5000    0.0000 C   0  0  0  0  0  0  0  0  0  0  0  0
    1.3000   -0.7500    0.0000 C   0  0  0  0  0  0  0  0  0  0  0  0
    0.0000    3.0000    0.0000 O   0  0  0  0  0  0  0  0  0  0  0  0
   -2.5989   -1.5002    0.0000 O   0  0  0  0  0  0  0  0  0  0  0  0
   -0.0000   -3.0000    0.0000 O   0  0  0  0  0  0  0  0  0  0  0  0
    2.5989   -1.5002    0.0000 O   0  0  0  0  0  0  0  0  0  0  0  0
  4  1  1  0
  5  2  1  0
  6  4  1  0
  6  5  1  0
  7  4  2  0
  8  7  1  0
  9  5  2  0
  9  8  1  0
 10  6  2  0
 11  7  1  0
 12  8  2  0
 13  3  1  0
 13  9  1  0
M  END
>  <NAME>  (5715) 
2-HYDROXY-6-METHOXY-3,5-DIMETHYL-1,4-BENZOQUINONE

>  <SYNONYMS>  (5715) 


>  <SPECTRUM TYPE>  (5715) 
MS1

>  <INSTRUMENT TYPE>  (5715) 
EI-B

>  <INSTRUMENT>  (5715) 
HITACHI RMU-6L

>  <ION MODE>  (5715) 
P

>  <INCHIKEY>  (5715) 
BUFFKORPJSMABA-UHFFFAOYSA-N

>  <FORMULA>  (5715) 
C9H10O4

>  <EXACT MASS>  (5715) 
182.0579088

>  <MW>  (5715) 
182

>  <ID>  (5715) 
JP000734

>  <CONTRIBUTOR>  (5715) 
University of Tokyo Team, {Faculty of Engineering, University of Tokyo

>  <COMMENT>  (5715) 
SMILES=COc(c(C)1)c(=O)c(O)c(C)c(=O)1
InChI=InChI=1S/C9H10O4/c1-4-6(10)5(2)9(13-3)8(12)7(4)11/h11H,1-3H3
computed SMILES=O=C1C(O)=C(C(=O)C(=C1OC)C)C
accession=JP000734
date=2016.01.19 (Created 2008.10.21, modified 2011.05.06)
author=NAKAYAMA M, MASS SPECTROSCOPY SOC. OF JAPAN (MSSJ)
license=CC BY-NC-SA
exact mass=182.05791
ionization energy=70 eV
ion type=[M]+*
computed spectral entropy=3.644386413199558
computed normalized entropy=0.8203179144155047
SPLASH=splash10-0540-9400000000-3c71d5f304d961b54ec3
submitter=submitter = University of Tokyo Team (Faculty of Engineering, University of Tokyo)
MoNA Rating=3.75

>  <NUM PEAKS>  (5715) 
85

>  <MASS SPECTRAL PEAKS>  (5715) 
37 5
38 12
39 47
40 7
41 16
42 3
43 25
44 1
45 2
49 1
50 6
51 9
52 6
53 24
54 14
55 66
56 18
57 2
59 1
61 1
62 2
63 5
64 2
65 18
66 15
67 28
68 6
69 9
70 3
71 3
77 6
78 10
79 7
80 6
81 6
82 6
83 99.99
84 8
85 4
90 1
91 2
92 1
93 6
94 6
95 10
96 10
97 6
98 1
99 4
105 1
106 3
107 5
108 6
109 4
110 1
111 69
112 6
121 1
122 2
123 3
124 4
125 4
126 2
127 1
135 2
136 8
137 2
138 1
139 65
140 7
141 1
151 1
152 3
153 5
154 13
155 1
163 1
164 3
165 2
167 7
168 1
181 3
182 44
183 10
184 1

>  <PREDICTED SPECTRUM>  (5715) 
14 9
15 33
25 13
26 109
27 238
28 116
29 124
32 6
33 19
36 53
37 130
38 219
39 545
40 354
41 461
42 249
43 390
44 156
45 78
47 5
48 23
49 128
50 387
51 594
52 462
53 801
54 449
55 773
56 341
57 203
58 29
59 109
61 67
62 125
63 259
64 226
65 396
66 327
67 745
68 295
69 478
70 234
71 203
72 121
73 48
75 17
76 47
77 437
78 314
79 362
80 167
81 463
82 317
83 999
84 274
85 165
90 32
91 143
92 188
93 363
94 160
95 211
96 309
97 225
98 161
99 114
105 110
106 187
107 327
108 256
109 443
110 201
111 930
112 209
113 20
121 210
122 61
123 184
124 202
125 350
126 189
127 22
134 74
135 224
136 257
137 328
138 109
139 861
140 264
141 38
149 101
151 40
152 125
153 290
154 395
155 161
163 70
164 58
167 321
168 60
180 2
181 69
182 769
183 250
184 57

$$$$

     RDKit          2D

 25 24  0  0  0  0  0  0  0  0999 V2000
  -19.9611   11.7255    0.0000 C   0  0  0  0  0  0  0  0  0  0  0  0
  -17.3630   13.2255    0.0000 C   0  0  0  0  0  0  0  0  0  0  0  0
    3.9707    9.6764    0.0000 C   0  0  0  0  0  0  0  0  0  0  0  0
    6.0197   10.2255    0.0000 C   0  0  0  0  0  0  0  0  0  0  0  0
    5.4707   12.2745    0.0000 C   0  0  0  0  0  0  0  0  0  0  0  0
  -18.6620   10.9755    0.0000 C   0  0  0  0  0  0  0  0  0  0  0  0
   -8.2697   10.9755    0.0000 C   0  0  0  0  0  0  0  0  0  0  0  0
   -6.9707   11.7255    0.0000 C   0  0  0  0  0  0  0  0  0  0  0  0
   -9.5687   11.7255    0.0000 C   0  0  0  0  0  0  0  0  0  0  0  0
   -5.6716   10.9755    0.0000 C   0  0  0  0  0  0  0  0  0  0  0  0
  -10.8678   10.9755    0.0000 C   0  0  0  0  0  0  0  0  0  0  0  0
   -4.3726   11.7255    0.0000 C   0  0  0  0  0  0  0  0  0  0  0  0
  -12.1668   11.7255    0.0000 C   0  0  0  0  0  0  0  0  0  0  0  0
   -3.0736   10.9755    0.0000 C   0  0  0  0  0  0  0  0  0  0  0  0
  -13.4659   10.9755    0.0000 C   0  0  0  0  0  0  0  0  0  0  0  0
   -1.7745   11.7255    0.0000 C   0  0  0  0  0  0  0  0  0  0  0  0
  -14.7649   11.7255    0.0000 C   0  0  0  0  0  0  0  0  0  0  0  0
   -0.4755   10.9755    0.0000 C   0  0  0  0  0  0  0  0  0  0  0  0
  -16.0639   10.9755    0.0000 C   0  0  0  0  0  0  0  0  0  0  0  0
    0.8236   11.7255    0.0000 C   0  0  0  0  0  0  0  0  0  0  0  0
  -17.3630   11.7255    0.0000 C   0  0  0  0  0  0  0  0  0  0  0  0
    2.1226   10.9755    0.0000 C   0  0  0  0  0  0  0  0  0  0  0  0
    2.1226    9.4755    0.0000 O   0  0  0  0  0  0  0  0  0  0  0  0
    3.4216   11.7255    0.0000 O   0  0  0  0  0  0  0  0  0  0  0  0
    4.7207   10.9755    0.0000 Si  0  0  0  0  0  4  0  0  0  0  0  0
  6  1  1  0
  8  7  1  0
  9  7  1  0
 10  8  1  0
 11  9  1  0
 12 10  1  0
 13 11  1  0
 14 12  1  0
 15 13  1  0
 16 14  1  0
 17 15  1  0
 18 16  1  0
 19 17  1  0
 20 18  1  0
 21  2  1  0
 21  6  1  0
 21 19  1  0
 22 20  1  0
 23 22  2  0
 24 22  1  0
 25  3  1  0
 25  4  1  0
 25  5  1  0
 25 24  1  0
M  END
>  <NAME>  (5716) 
16-METHYLOCTADECANOIC ACID TRIMETHYLSILYLESTER

>  <SYNONYMS>  (5716) 


>  <SPECTRUM TYPE>  (5716) 
MS1

>  <INSTRUMENT TYPE>  (5716) 
EI-B

>  <INSTRUMENT>  (5716) 
JEOL JMS-01-SG

>  <ION MODE>  (5716) 
P

>  <INCHIKEY>  (5716) 
HNKZWPWPYTXLNR-UHFFFAOYSA-N

>  <FORMULA>  (5716) 
C22H46O2Si

>  <EXACT MASS>  (5716) 
370.326707242

>  <MW>  (5716) 
370

>  <ID>  (5716) 
JP000619

>  <CONTRIBUTOR>  (5716) 
University of Tokyo Team, {Faculty of Engineering, University of Tokyo

>  <COMMENT>  (5716) 
SMILES=CCC(C)CCCCCCCCCCCCCCC(=O)O[Si](C)(C)C
InChI=InChI=1S/C22H46O2Si/c1-6-21(2)19-17-15-13-11-9-7-8-10-12-14-16-18-20-22(23)24-25(3,4)5/h21H,6-20H2,1-5H3
computed SMILES=O=C(O[Si](C)(C)C)CCCCCCCCCCCCCCC(C)CC
accession=JP000619
date=2016.01.19 (Created 2008.10.21, modified 2011.05.06)
author=KOGA M, UNIV. OF OCCUPATIONAL AND ENVIRONMENTAL HEALTH
license=CC BY-NC-SA
exact mass=370.32671
ionization energy=70 eV
ion type=[M]+*
computed spectral entropy=2.6435481341319624
computed normalized entropy=0.8212644034630334
SPLASH=splash10-01e9-7900000000-9b779faac6d78a75c86a
submitter=submitter = University of Tokyo Team (Faculty of Engineering, University of Tokyo)
MoNA Rating=3.75

>  <NUM PEAKS>  (5716) 
25

>  <MASS SPECTRAL PEAKS>  (5716) 
43 18
55 19.2
57 13
69 1.2
73 64.1
75 45
76 6
81 0.64
83 8.9
95 6.8
97 8.2
98 0.87
117 99.99
118 13.2
129 37.7
130 0.64
131 14.5
132 49.1
133 9.5
145 3.79
146 7.8
201 15.9
355 12.6
370 6.09
371 4.9

>  <PREDICTED SPECTRUM>  (5716) 
0 1
27 53
28 56
29 140
39 33
41 207
42 70
43 339
44 45
45 139
46 25
47 56
52 5
53 85
54 103
55 437
56 203
57 454
58 154
59 133
60 23
61 146
62 30
63 10
67 201
68 105
69 352
70 206
71 248
72 129
73 999
74 269
75 844
76 223
77 227
78 81
79 112
80 48
81 281
82 109
83 355
84 139
85 130
86 46
87 49
88 31
89 126
90 47
91 57
92 0
93 82
95 258
96 169
97 216
98 179
99 103
101 80
102 10
103 92
104 34
105 82
107 182
109 134
110 25
111 131
112 80
113 72
115 61
116 69
117 841
118 248
119 158
120 40
121 117
123 39
129 618
130 94
131 255
132 438
133 219
135 61
137 22
138 15
139 0
143 225
144 106
145 656
146 216
147 94
148 6
149 24
152 4
153 52
155 22
157 49
158 10
159 237
160 103
169 10
171 115
172 53
173 176
181 36
182 19
185 50
187 53
188 15
196 3
199 33
201 102
202 60
209 28
211 2
213 53
227 84
228 5
239 13
241 24
255 56
257 3
269 60
270 3
271 104
272 39
273 12
285 43
288 17
298 3
299 38
300 20
311 98
312 39
313 223
314 117
315 90
323 13
327 131
328 29
337 38
339 111
341 170
342 63
355 761
356 428
357 193
358 75
370 258
371 130
372 60

$$$$

     RDKit          2D

 24 23  0  0  0  0  0  0  0  0999 V2000
    6.0834   11.0123    0.0000 C   0  0  0  0  0  0  0  0  0  0  0  0
    3.4853    9.5123    0.0000 C   0  0  0  0  0  0  0  0  0  0  0  0
  -18.0493   12.3113    0.0000 C   0  0  0  0  0  0  0  0  0  0  0  0
  -18.5983   10.2623    0.0000 C   0  0  0  0  0  0  0  0  0  0  0  0
  -16.5493    9.7132    0.0000 C   0  0  0  0  0  0  0  0  0  0  0  0
    4.7844   11.7623    0.0000 C   0  0  0  0  0  0  0  0  0  0  0  0
   -5.6079   11.7623    0.0000 C   0  0  0  0  0  0  0  0  0  0  0  0
   -4.3089   11.0123    0.0000 C   0  0  0  0  0  0  0  0  0  0  0  0
   -6.9070   11.0123    0.0000 C   0  0  0  0  0  0  0  0  0  0  0  0
   -3.0099   11.7623    0.0000 C   0  0  0  0  0  0  0  0  0  0  0  0
   -8.2060   11.7623    0.0000 C   0  0  0  0  0  0  0  0  0  0  0  0
   -1.7108   11.0123    0.0000 C   0  0  0  0  0  0  0  0  0  0  0  0
   -9.5050   11.0123    0.0000 C   0  0  0  0  0  0  0  0  0  0  0  0
   -0.4118   11.7623    0.0000 C   0  0  0  0  0  0  0  0  0  0  0  0
  -10.8041   11.7623    0.0000 C   0  0  0  0  0  0  0  0  0  0  0  0
    0.8873   11.0123    0.0000 C   0  0  0  0  0  0  0  0  0  0  0  0
  -12.1031   11.0123    0.0000 C   0  0  0  0  0  0  0  0  0  0  0  0
    2.1863   11.7623    0.0000 C   0  0  0  0  0  0  0  0  0  0  0  0
  -13.4022   11.7623    0.0000 C   0  0  0  0  0  0  0  0  0  0  0  0
    3.4853   11.0123    0.0000 C   0  0  0  0  0  0  0  0  0  0  0  0
  -14.7012   11.0123    0.0000 C   0  0  0  0  0  0  0  0  0  0  0  0
  -14.7012    9.5123    0.0000 O   0  0  0  0  0  0  0  0  0  0  0  0
  -16.0002   11.7623    0.0000 O   0  0  0  0  0  0  0  0  0  0  0  0
  -17.2993   11.0123    0.0000 Si  0  0  0  0  0  4  0  0  0  0  0  0
  6  1  1  0
  8  7  1  0
  9  7  1  0
 10  8  1  0
 11  9  1  0
 12 10  1  0
 13 11  1  0
 14 12  1  0
 15 13  1  0
 16 14  1  0
 17 15  1  0
 18 16  1  0
 19 17  1  0
 20  2  1  0
 20  6  1  0
 20 18  1  0
 21 19  1  0
 22 21  2  0
 23 21  1  0
 24  3  1  0
 24  4  1  0
 24  5  1  0
 24 23  1  0
M  END
>  <NAME>  (5717) 
15-METHYLHEPTADECANOIC ACID TRIMETHYLSILYLESTER

>  <SYNONYMS>  (5717) 


>  <SPECTRUM TYPE>  (5717) 
MS1

>  <INSTRUMENT TYPE>  (5717) 
EI-B

>  <INSTRUMENT>  (5717) 
JEOL JMS-01-SG

>  <ION MODE>  (5717) 
P

>  <INCHIKEY>  (5717) 
YEGUXTXZHGLIGR-UHFFFAOYSA-N

>  <FORMULA>  (5717) 
C21H44O2Si

>  <EXACT MASS>  (5717) 
356.311057178

>  <MW>  (5717) 
356

>  <ID>  (5717) 
JP000617

>  <CONTRIBUTOR>  (5717) 
University of Tokyo Team, {Faculty of Engineering, University of Tokyo

>  <COMMENT>  (5717) 
SMILES=CCC(C)CCCCCCCCCCCCCC(=O)O[Si](C)(C)C
InChI=InChI=1S/C21H44O2Si/c1-6-20(2)18-16-14-12-10-8-7-9-11-13-15-17-19-21(22)23-24(3,4)5/h20H,6-19H2,1-5H3
computed SMILES=O=C(O[Si](C)(C)C)CCCCCCCCCCCCCC(C)CC
ion type=[M]+*
accession=JP000617
date=2016.01.19 (Created 2008.10.21, modified 2011.05.06)
author=KOGA M, UNIV. OF OCCUPATIONAL AND ENVIRONMENTAL HEALTH
license=CC BY-NC-SA
exact mass=356.31106
ionization energy=70 eV
computed spectral entropy=2.8329945096485125
computed normalized entropy=0.8329403418110466
SPLASH=splash10-0629-9501000000-8a8f37108b30e10f1566
submitter=submitter = University of Tokyo Team (Faculty of Engineering, University of Tokyo)
MoNA Rating=3.75

>  <NUM PEAKS>  (5717) 
30

>  <MASS SPECTRAL PEAKS>  (5717) 
43 36.1
47 9.7
55 24.3
57 1.34
59 9.3
61 8.5
69 12.1
70 0.89
73 99.99
74 9.7
75 52.8
76 0.93
81 7.7
84 9.3
87 8.9
97 1.05
98 9.7
105 7.3
109 9.7
111 0.93
117 68.6
118 12.6
129 25.2
131 1.21
132 37.8
145 24.3
201 12.1
281 0.81
283 9.3
356 42.2

>  <PREDICTED SPECTRUM>  (5717) 
15 3
27 16
28 0
29 102
39 29
41 199
42 63
43 329
44 45
45 143
46 20
47 52
52 3
53 79
54 97
55 424
56 180
57 410
58 113
59 114
60 31
61 142
62 12
63 5
65 1
67 197
68 99
69 348
70 203
71 221
72 131
73 999
74 262
75 841
76 220
77 208
78 66
79 97
80 41
81 265
82 90
83 342
84 108
85 111
86 32
87 39
88 10
89 99
90 56
91 75
93 94
95 243
96 158
97 210
98 172
99 86
101 67
102 8
103 128
104 38
105 90
106 10
107 152
108 11
109 126
110 10
111 116
112 66
113 54
115 41
116 35
117 811
118 235
119 133
121 109
123 35
125 0
129 593
130 140
131 240
132 413
133 198
134 40
135 87
139 14
143 248
144 63
145 647
146 203
147 83
153 4
155 17
157 63
158 40
159 240
160 92
167 31
168 5
169 7
171 69
172 3
173 55
182 26
185 47
187 92
188 64
195 30
199 55
201 8
213 53
214 23
225 28
227 43
241 49
255 28
257 28
271 92
272 28
273 57
274 24
284 1
285 31
286 23
297 96
298 30
299 200
300 97
301 73
313 149
314 35
323 53
325 130
327 135
328 33
341 729
342 420
343 182
344 66
356 225
357 106
358 39

$$$$

     RDKit          2D

 23 22  0  0  0  0  0  0  0  0999 V2000
  -18.0125   10.6005    0.0000 C   0  0  0  0  0  0  0  0  0  0  0  0
  -15.4144   12.1005    0.0000 C   0  0  0  0  0  0  0  0  0  0  0  0
    3.3212    8.5514    0.0000 C   0  0  0  0  0  0  0  0  0  0  0  0
    5.3702    9.1005    0.0000 C   0  0  0  0  0  0  0  0  0  0  0  0
    4.8212   11.1495    0.0000 C   0  0  0  0  0  0  0  0  0  0  0  0
  -16.7135    9.8505    0.0000 C   0  0  0  0  0  0  0  0  0  0  0  0
   -7.6202   10.6005    0.0000 C   0  0  0  0  0  0  0  0  0  0  0  0
   -6.3212    9.8505    0.0000 C   0  0  0  0  0  0  0  0  0  0  0  0
   -8.9192    9.8505    0.0000 C   0  0  0  0  0  0  0  0  0  0  0  0
   -5.0221   10.6005    0.0000 C   0  0  0  0  0  0  0  0  0  0  0  0
  -10.2183   10.6005    0.0000 C   0  0  0  0  0  0  0  0  0  0  0  0
   -3.7231    9.8505    0.0000 C   0  0  0  0  0  0  0  0  0  0  0  0
  -11.5173    9.8505    0.0000 C   0  0  0  0  0  0  0  0  0  0  0  0
   -2.4240   10.6005    0.0000 C   0  0  0  0  0  0  0  0  0  0  0  0
  -12.8163   10.6005    0.0000 C   0  0  0  0  0  0  0  0  0  0  0  0
   -1.1250    9.8505    0.0000 C   0  0  0  0  0  0  0  0  0  0  0  0
  -14.1154    9.8505    0.0000 C   0  0  0  0  0  0  0  0  0  0  0  0
    0.1740   10.6005    0.0000 C   0  0  0  0  0  0  0  0  0  0  0  0
  -15.4144   10.6005    0.0000 C   0  0  0  0  0  0  0  0  0  0  0  0
    1.4731    9.8505    0.0000 C   0  0  0  0  0  0  0  0  0  0  0  0
    1.4731    8.3505    0.0000 O   0  0  0  0  0  0  0  0  0  0  0  0
    2.7721   10.6005    0.0000 O   0  0  0  0  0  0  0  0  0  0  0  0
    4.0712    9.8505    0.0000 Si  0  0  0  0  0  4  0  0  0  0  0  0
  6  1  1  0
  8  7  1  0
  9  7  1  0
 10  8  1  0
 11  9  1  0
 12 10  1  0
 13 11  1  0
 14 12  1  0
 15 13  1  0
 16 14  1  0
 17 15  1  0
 18 16  1  0
 19  2  1  0
 19  6  1  0
 19 17  1  0
 20 18  1  0
 21 20  2  0
 22 20  1  0
 23  3  1  0
 23  4  1  0
 23  5  1  0
 23 22  1  0
M  END
>  <NAME>  (5718) 
14-METHYLHEXADECANOIC ACID TRIMETHYLSILYLESTER

>  <SYNONYMS>  (5718) 


>  <SPECTRUM TYPE>  (5718) 
MS1

>  <INSTRUMENT TYPE>  (5718) 
EI-B

>  <INSTRUMENT>  (5718) 
JEOL JMS-01-SG

>  <ION MODE>  (5718) 
P

>  <INCHIKEY>  (5718) 
GBSVQRPDHICZLY-UHFFFAOYSA-N

>  <FORMULA>  (5718) 
C20H42O2Si

>  <EXACT MASS>  (5718) 
342.295407114

>  <MW>  (5718) 
342

>  <ID>  (5718) 
JP000616

>  <CONTRIBUTOR>  (5718) 
University of Tokyo Team, {Faculty of Engineering, University of Tokyo

>  <COMMENT>  (5718) 
SMILES=CCC(C)CCCCCCCCCCCCC(=O)O[Si](C)(C)C
InChI=InChI=1S/C20H42O2Si/c1-6-19(2)17-15-13-11-9-7-8-10-12-14-16-18-20(21)22-23(3,4)5/h19H,6-18H2,1-5H3
computed SMILES=O=C(O[Si](C)(C)C)CCCCCCCCCCCCC(C)CC
accession=JP000616
date=2016.01.19 (Created 2008.10.21, modified 2011.05.06)
author=KOGA M, UNIV. OF OCCUPATIONAL AND ENVIRONMENTAL HEALTH
license=CC BY-NC-SA
exact mass=342.29541
ionization energy=70 eV
ion type=[M]+*
computed spectral entropy=2.3242568692883308
computed normalized entropy=0.7893717226723846
SPLASH=splash10-00fr-9501000000-5a4acf891dd097d7d0c2
submitter=submitter = University of Tokyo Team (Faculty of Engineering, University of Tokyo)
MoNA Rating=3.75

>  <NUM PEAKS>  (5718) 
19

>  <MASS SPECTRAL PEAKS>  (5718) 
43 18.4
55 14.3
57 8.2
69 0.78
73 99.99
75 45.5
117 49.5
118 0.65
129 20.3
131 8.8
132 26
133 0.5
145 17.7
201 5.2
327 17.8
328 1.38
329 4.2
330 6
342 4.3

>  <PREDICTED SPECTRUM>  (5718) 
27 88
28 25
29 101
39 22
41 191
42 54
43 289
44 28
45 147
46 21
47 43
52 2
53 83
54 90
55 413
56 172
57 380
58 106
59 113
60 15
61 149
67 180
68 85
69 344
70 181
71 194
72 118
73 999
74 258
75 829
76 221
77 196
78 61
79 95
80 29
81 258
82 85
83 340
84 106
85 94
86 31
87 23
88 7
89 118
90 50
91 81
92 6
93 63
95 226
96 144
97 199
98 155
99 47
101 51
103 100
104 24
105 59
107 132
109 121
110 48
111 112
112 60
113 47
114 4
115 20
116 79
117 782
118 224
119 122
120 22
121 121
123 13
125 11
129 581
130 103
131 259
132 386
133 179
134 1
135 38
143 244
144 84
145 629
146 192
147 46
153 37
155 16
157 28
159 143
160 49
168 9
171 63
172 17
173 101
181 31
182 8
183 3
185 60
188 4
199 61
200 13
201 3
211 27
213 8
216 0
217 12
224 19
227 60
241 26
243 11
252 3
257 4
269 3
270 13
271 77
272 59
273 16
283 80
284 18
285 108
286 78
287 62
299 137
300 17
309 37
311 133
313 155
314 47
327 541
328 225
329 168
330 59
342 195
343 85
344 23

$$$$

     RDKit          2D

 21 20  0  0  0  0  0  0  0  0999 V2000
    5.4707    9.2745    0.0000 C   0  0  0  0  0  0  0  0  0  0  0  0
    2.8726    7.7745    0.0000 C   0  0  0  0  0  0  0  0  0  0  0  0
  -13.2649   11.3236    0.0000 C   0  0  0  0  0  0  0  0  0  0  0  0
  -15.3139   10.7745    0.0000 C   0  0  0  0  0  0  0  0  0  0  0  0
  -14.7649    8.7255    0.0000 C   0  0  0  0  0  0  0  0  0  0  0  0
    4.1716   10.0245    0.0000 C   0  0  0  0  0  0  0  0  0  0  0  0
   -3.6226   10.0245    0.0000 C   0  0  0  0  0  0  0  0  0  0  0  0
   -4.9216    9.2745    0.0000 C   0  0  0  0  0  0  0  0  0  0  0  0
   -2.3236    9.2745    0.0000 C   0  0  0  0  0  0  0  0  0  0  0  0
   -6.2207   10.0245    0.0000 C   0  0  0  0  0  0  0  0  0  0  0  0
   -1.0245   10.0245    0.0000 C   0  0  0  0  0  0  0  0  0  0  0  0
   -7.5197    9.2745    0.0000 C   0  0  0  0  0  0  0  0  0  0  0  0
    0.2745    9.2745    0.0000 C   0  0  0  0  0  0  0  0  0  0  0  0
   -8.8187   10.0245    0.0000 C   0  0  0  0  0  0  0  0  0  0  0  0
    1.5736   10.0245    0.0000 C   0  0  0  0  0  0  0  0  0  0  0  0
  -10.1178    9.2745    0.0000 C   0  0  0  0  0  0  0  0  0  0  0  0
    2.8726    9.2745    0.0000 C   0  0  0  0  0  0  0  0  0  0  0  0
  -11.4168   10.0245    0.0000 C   0  0  0  0  0  0  0  0  0  0  0  0
  -11.4168   11.5245    0.0000 O   0  0  0  0  0  0  0  0  0  0  0  0
  -12.7159    9.2745    0.0000 O   0  0  0  0  0  0  0  0  0  0  0  0
  -14.0149   10.0245    0.0000 Si  0  0  0  0  0  4  0  0  0  0  0  0
  6  1  1  0
  8  7  1  0
  9  7  1  0
 10  8  1  0
 11  9  1  0
 12 10  1  0
 13 11  1  0
 14 12  1  0
 15 13  1  0
 16 14  1  0
 17  2  1  0
 17  6  1  0
 17 15  1  0
 18 16  1  0
 19 18  2  0
 20 18  1  0
 21  3  1  0
 21  4  1  0
 21  5  1  0
 21 20  1  0
M  END
>  <NAME>  (5719) 
12-METHYLTETRADECANOIC ACID TRIMETHYLSILYLESTER

>  <SYNONYMS>  (5719) 


>  <SPECTRUM TYPE>  (5719) 
MS1

>  <INSTRUMENT TYPE>  (5719) 
EI-B

>  <INSTRUMENT>  (5719) 
JEOL JMS-01-SG

>  <ION MODE>  (5719) 
P

>  <INCHIKEY>  (5719) 
DAZJVRZDDOKGCP-UHFFFAOYSA-N

>  <FORMULA>  (5719) 
C18H38O2Si

>  <EXACT MASS>  (5719) 
314.264106986

>  <MW>  (5719) 
314

>  <ID>  (5719) 
JP000615

>  <CONTRIBUTOR>  (5719) 
University of Tokyo Team, {Faculty of Engineering, University of Tokyo

>  <COMMENT>  (5719) 
computed SMILES=O=C(O[Si](C)(C)C)CCCCCCCCCCC(C)CC
SMILES=CCC(C)CCCCCCCCCCC(=O)O[Si](C)(C)C
InChI=InChI=1S/C18H38O2Si/c1-6-17(2)15-13-11-9-7-8-10-12-14-16-18(19)20-21(3,4)5/h17H,6-16H2,1-5H3
date=2016.01.19 (Created 2008.10.21, modified 2011.05.06)
license=CC BY-NC-SA
ionization energy=70 eV
ion type=[M]+*
author=KOGA M, UNIV. OF OCCUPATIONAL AND ENVIRONMENTAL HEALTH
exact mass=314.26411
computed spectral entropy=2.593650374725736
computed normalized entropy=0.8161127888893477
accession=JP000615
SPLASH=splash10-00xr-9510000000-acf1ab9a0aefcf7b91f6
submitter=submitter = University of Tokyo Team (Faculty of Engineering, University of Tokyo)
MoNA Rating=3.75

>  <NUM PEAKS>  (5719) 
24

>  <MASS SPECTRAL PEAKS>  (5719) 
43 35.2
45 8.1
55 27.5
57 1.41
61 9.7
69 16.7
73 99.99
75 7.38
76 9.8
81 7.6
83 7.1
95 0.79
117 71.7
129 26.8
131 13.4
132 3.45
145 19.1
146 5
159 5.5
201 0.57
271 5.2
283 5.2
299 28.3
300 9.5

>  <PREDICTED SPECTRUM>  (5719) 
27 49
28 34
29 39
39 16
41 191
42 41
43 290
44 36
45 167
46 10
47 49
53 75
54 73
55 401
56 141
57 317
58 87
59 102
60 11
61 157
62 6
67 159
68 66
69 343
70 163
71 127
72 114
73 999
74 252
75 820
76 213
77 168
78 45
79 75
80 13
81 239
82 74
83 318
84 83
85 56
86 26
87 3
88 34
89 88
90 28
91 25
93 83
95 186
96 116
97 195
98 138
99 46
101 51
103 124
104 14
105 25
107 82
109 84
111 95
112 53
113 33
115 65
116 75
117 762
118 210
119 76
121 22
123 4
125 6
129 543
130 102
131 239
132 358
133 137
134 1
135 53
137 16
143 199
144 38
145 590
146 186
147 79
153 32
155 20
157 36
159 65
160 43
169 26
170 0
171 78
172 38
173 11
183 51
185 7
187 9
188 13
189 28
196 20
199 23
213 17
214 3
216 1
224 17
244 1
255 54
257 115
258 45
259 31
271 161
272 51
281 33
283 138
285 85
286 28
299 732
300 377
301 147
302 45
314 125
315 42
316 6

$$$$

     RDKit          2D

 20 19  0  0  0  0  0  0  0  0999 V2000
    4.7844    8.7623    0.0000 C   0  0  0  0  0  0  0  0  0  0  0  0
    2.1863    7.2623    0.0000 C   0  0  0  0  0  0  0  0  0  0  0  0
  -14.1522   10.0613    0.0000 C   0  0  0  0  0  0  0  0  0  0  0  0
  -14.7012    8.0123    0.0000 C   0  0  0  0  0  0  0  0  0  0  0  0
  -12.6522    7.4632    0.0000 C   0  0  0  0  0  0  0  0  0  0  0  0
    3.4853    9.5123    0.0000 C   0  0  0  0  0  0  0  0  0  0  0  0
   -4.3089    9.5123    0.0000 C   0  0  0  0  0  0  0  0  0  0  0  0
   -3.0099    8.7623    0.0000 C   0  0  0  0  0  0  0  0  0  0  0  0
   -5.6079    8.7623    0.0000 C   0  0  0  0  0  0  0  0  0  0  0  0
   -1.7108    9.5123    0.0000 C   0  0  0  0  0  0  0  0  0  0  0  0
   -6.9070    9.5123    0.0000 C   0  0  0  0  0  0  0  0  0  0  0  0
   -0.4118    8.7623    0.0000 C   0  0  0  0  0  0  0  0  0  0  0  0
   -8.2060    8.7623    0.0000 C   0  0  0  0  0  0  0  0  0  0  0  0
    0.8873    9.5123    0.0000 C   0  0  0  0  0  0  0  0  0  0  0  0
   -9.5050    9.5123    0.0000 C   0  0  0  0  0  0  0  0  0  0  0  0
    2.1863    8.7623    0.0000 C   0  0  0  0  0  0  0  0  0  0  0  0
  -10.8041    8.7623    0.0000 C   0  0  0  0  0  0  0  0  0  0  0  0
  -10.8041    7.2623    0.0000 O   0  0  0  0  0  0  0  0  0  0  0  0
  -12.1031    9.5123    0.0000 O   0  0  0  0  0  0  0  0  0  0  0  0
  -13.4022    8.7623    0.0000 Si  0  0  0  0  0  4  0  0  0  0  0  0
  6  1  1  0
  8  7  1  0
  9  7  1  0
 10  8  1  0
 11  9  1  0
 12 10  1  0
 13 11  1  0
 14 12  1  0
 15 13  1  0
 16  2  1  0
 16  6  1  0
 16 14  1  0
 17 15  1  0
 18 17  2  0
 19 17  1  0
 20  3  1  0
 20  4  1  0
 20  5  1  0
 20 19  1  0
M  END
>  <NAME>  (5720) 
11-METHYLTRIDECANOIC ACID TRIMETHYLSILYL ESTER

>  <SYNONYMS>  (5720) 


>  <SPECTRUM TYPE>  (5720) 
MS1

>  <INSTRUMENT TYPE>  (5720) 
EI-B

>  <INSTRUMENT>  (5720) 
JEOL JMS-01-SG

>  <ION MODE>  (5720) 
P

>  <INCHIKEY>  (5720) 
ISWALEPYECAUOV-UHFFFAOYSA-N

>  <FORMULA>  (5720) 
C17H36O2Si

>  <EXACT MASS>  (5720) 
300.248456922

>  <MW>  (5720) 
300

>  <ID>  (5720) 
JP000614

>  <CONTRIBUTOR>  (5720) 
University of Tokyo Team, {Faculty of Engineering, University of Tokyo

>  <COMMENT>  (5720) 
SMILES=CCC(C)CCCCCCCCCC(=O)O[Si](C)(C)C
InChI=InChI=1S/C17H36O2Si/c1-6-16(2)14-12-10-8-7-9-11-13-15-17(18)19-20(3,4)5/h16H,6-15H2,1-5H3
computed SMILES=O=C(O[Si](C)(C)C)CCCCCCCCCC(C)CC
accession=JP000614
date=2016.01.19 (Created 2008.10.21, modified 2011.05.06)
author=KOGA M, UNIV. OF OCCUPATIONAL AND ENVIRONMENTAL HEALTH
license=CC BY-NC-SA
exact mass=300.24846
ionization energy=70 eV
ion type=[M]+*
computed spectral entropy=2.11498427949601
computed normalized entropy=0.8014165724108572
SPLASH=splash10-00fr-9210000000-4246d524c225bb6c8082
submitter=submitter = University of Tokyo Team (Faculty of Engineering, University of Tokyo)
MoNA Rating=3.75

>  <NUM PEAKS>  (5720) 
14

>  <MASS SPECTRAL PEAKS>  (5720) 
43 24.1
55 19.7
57 8
69 1.27
73 99.99
74 7.8
75 68.7
117 6.37
129 23
131 11.1
132 24.3
145 1.49
285 24.3
286 5.4

>  <PREDICTED SPECTRUM>  (5720) 
27 6
29 42
39 19
41 196
42 45
43 290
44 45
45 185
46 14
47 62
53 78
54 68
55 399
56 124
57 278
58 75
59 101
60 4
61 154
67 154
68 74
69 345
70 163
71 116
72 135
73 999
74 261
75 825
76 216
77 155
78 46
79 77
80 4
81 217
82 47
83 316
84 80
85 42
86 14
87 7
88 0
89 108
90 14
91 16
93 20
95 168
96 99
97 179
98 129
99 45
101 55
102 26
103 170
104 12
107 63
109 94
110 5
111 95
112 59
113 28
115 38
116 43
117 747
118 205
119 76
121 58
123 21
126 6
129 525
130 114
131 272
132 361
133 124
143 183
145 570
146 172
147 92
155 35
156 15
157 64
158 36
159 77
169 76
170 8
171 34
173 26
175 40
182 36
185 21
199 22
200 5
201 1
202 15
210 15
228 13
230 2
241 48
243 95
244 29
245 21
257 115
267 19
269 151
270 0
271 149
272 67
285 406
286 349
287 142
288 47
300 88
301 21

$$$$

     RDKit          2D

 19 18  0  0  0  0  0  0  0  0999 V2000
  -14.1154    8.3505    0.0000 C   0  0  0  0  0  0  0  0  0  0  0  0
  -11.5173    9.8505    0.0000 C   0  0  0  0  0  0  0  0  0  0  0  0
    2.0221    6.3014    0.0000 C   0  0  0  0  0  0  0  0  0  0  0  0
    4.0712    6.8505    0.0000 C   0  0  0  0  0  0  0  0  0  0  0  0
    3.5221    8.8995    0.0000 C   0  0  0  0  0  0  0  0  0  0  0  0
  -12.8163    7.6005    0.0000 C   0  0  0  0  0  0  0  0  0  0  0  0
   -6.3212    8.3505    0.0000 C   0  0  0  0  0  0  0  0  0  0  0  0
   -5.0221    7.6005    0.0000 C   0  0  0  0  0  0  0  0  0  0  0  0
   -7.6202    7.6005    0.0000 C   0  0  0  0  0  0  0  0  0  0  0  0
   -3.7231    8.3505    0.0000 C   0  0  0  0  0  0  0  0  0  0  0  0
   -8.9192    8.3505    0.0000 C   0  0  0  0  0  0  0  0  0  0  0  0
   -2.4240    7.6005    0.0000 C   0  0  0  0  0  0  0  0  0  0  0  0
  -10.2183    7.6005    0.0000 C   0  0  0  0  0  0  0  0  0  0  0  0
   -1.1250    8.3505    0.0000 C   0  0  0  0  0  0  0  0  0  0  0  0
  -11.5173    8.3505    0.0000 C   0  0  0  0  0  0  0  0  0  0  0  0
    0.1740    7.6005    0.0000 C   0  0  0  0  0  0  0  0  0  0  0  0
    0.1740    6.1005    0.0000 O   0  0  0  0  0  0  0  0  0  0  0  0
    1.4731    8.3505    0.0000 O   0  0  0  0  0  0  0  0  0  0  0  0
    2.7721    7.6005    0.0000 Si  0  0  0  0  0  4  0  0  0  0  0  0
  6  1  1  0
  8  7  1  0
  9  7  1  0
 10  8  1  0
 11  9  1  0
 12 10  1  0
 13 11  1  0
 14 12  1  0
 15  2  1  0
 15  6  1  0
 15 13  1  0
 16 14  1  0
 17 16  2  0
 18 16  1  0
 19  3  1  0
 19  4  1  0
 19  5  1  0
 19 18  1  0
M  END
>  <NAME>  (5721) 
10-METHYLDODECANOIC ACID TRIMETHYLSILYL ESTER

>  <SYNONYMS>  (5721) 


>  <SPECTRUM TYPE>  (5721) 
MS1

>  <INSTRUMENT TYPE>  (5721) 
EI-B

>  <INSTRUMENT>  (5721) 
JEOL JMS-01-SG

>  <ION MODE>  (5721) 
P

>  <INCHIKEY>  (5721) 
IHHDEEVODWBADL-UHFFFAOYSA-N

>  <FORMULA>  (5721) 
C16H34O2Si

>  <EXACT MASS>  (5721) 
286.232806858

>  <MW>  (5721) 
286

>  <ID>  (5721) 
JP000613

>  <CONTRIBUTOR>  (5721) 
University of Tokyo Team, {Faculty of Engineering, University of Tokyo

>  <COMMENT>  (5721) 
SMILES=CCC(C)CCCCCCCCC(=O)O[Si](C)(C)C
InChI=InChI=1S/C16H34O2Si/c1-6-15(2)13-11-9-7-8-10-12-14-16(17)18-19(3,4)5/h15H,6-14H2,1-5H3
computed SMILES=O=C(O[Si](C)(C)C)CCCCCCCCC(C)CC
accession=JP000613
date=2016.01.19 (Created 2008.10.21, modified 2011.05.06)
author=KOGA M, UNIV. OF OCCUPATIONAL AND ENVIRONMENTAL HEALTH
license=CC BY-NC-SA
exact mass=286.23281
ionization energy=70 eV
ion type=[M]+*
computed spectral entropy=2.302792218993437
computed normalized entropy=0.8305567286348808
SPLASH=splash10-00xr-9610000000-56f9136d7f2cc8a12825
submitter=submitter = University of Tokyo Team (Faculty of Engineering, University of Tokyo)
MoNA Rating=3.75

>  <NUM PEAKS>  (5721) 
16

>  <MASS SPECTRAL PEAKS>  (5721) 
43 27.6
45 11.3
55 24.2
57 0.98
69 13.5
73 99.99
74 10.2
75 8.11
95 7.7
117 72.6
129 24.2
131 1.35
132 27.8
145 14.4
271 22.6
272 6.6

>  <PREDICTED SPECTRUM>  (5721) 
27 32
28 17
29 48
39 25
41 202
42 48
43 278
44 49
45 202
46 11
47 62
53 85
54 72
55 403
56 135
57 273
58 95
59 109
60 38
61 164
65 5
67 141
68 61
69 349
70 166
71 105
72 123
73 999
74 255
75 833
76 217
77 149
78 35
79 55
81 197
82 21
83 288
84 81
85 43
86 14
87 13
88 43
89 165
90 23
93 3
95 168
96 109
97 183
98 126
99 40
101 36
102 3
103 91
104 3
107 86
108 1
109 107
111 82
112 64
113 23
115 37
116 42
117 759
118 215
119 83
125 23
129 503
130 63
131 220
132 350
133 108
142 0
143 203
144 60
145 558
146 152
147 47
155 72
156 28
157 7
159 77
160 42
161 57
168 33
171 48
173 9
185 18
186 13
188 27
196 41
199 7
214 13
227 51
229 82
230 17
231 10
243 115
253 10
255 130
257 101
271 689
272 304
273 143
274 56
286 67
287 12

$$$$

     RDKit          2D

 18 17  0  0  0  0  0  0  0  0999 V2000
    4.1349    7.6373    0.0000 C   0  0  0  0  0  0  0  0  0  0  0  0
    1.5368    6.1373    0.0000 C   0  0  0  0  0  0  0  0  0  0  0  0
  -12.2036    8.9363    0.0000 C   0  0  0  0  0  0  0  0  0  0  0  0
  -12.7526    6.8873    0.0000 C   0  0  0  0  0  0  0  0  0  0  0  0
  -10.7036    6.3382    0.0000 C   0  0  0  0  0  0  0  0  0  0  0  0
    2.8358    8.3873    0.0000 C   0  0  0  0  0  0  0  0  0  0  0  0
   -3.6594    7.6373    0.0000 C   0  0  0  0  0  0  0  0  0  0  0  0
   -2.3603    8.3873    0.0000 C   0  0  0  0  0  0  0  0  0  0  0  0
   -4.9584    8.3873    0.0000 C   0  0  0  0  0  0  0  0  0  0  0  0
   -1.0613    7.6373    0.0000 C   0  0  0  0  0  0  0  0  0  0  0  0
   -6.2575    7.6373    0.0000 C   0  0  0  0  0  0  0  0  0  0  0  0
    0.2377    8.3873    0.0000 C   0  0  0  0  0  0  0  0  0  0  0  0
   -7.5565    8.3873    0.0000 C   0  0  0  0  0  0  0  0  0  0  0  0
    1.5368    7.6373    0.0000 C   0  0  0  0  0  0  0  0  0  0  0  0
   -8.8555    7.6373    0.0000 C   0  0  0  0  0  0  0  0  0  0  0  0
   -8.8555    6.1373    0.0000 O   0  0  0  0  0  0  0  0  0  0  0  0
  -10.1546    8.3873    0.0000 O   0  0  0  0  0  0  0  0  0  0  0  0
  -11.4536    7.6373    0.0000 Si  0  0  0  0  0  4  0  0  0  0  0  0
  6  1  1  0
  8  7  1  0
  9  7  1  0
 10  8  1  0
 11  9  1  0
 12 10  1  0
 13 11  1  0
 14  2  1  0
 14  6  1  0
 14 12  1  0
 15 13  1  0
 16 15  2  0
 17 15  1  0
 18  3  1  0
 18  4  1  0
 18  5  1  0
 18 17  1  0
M  END
>  <NAME>  (5722) 
9-METHYLUNDECANOIC ACID TRIMETHYLSILYL ESTER

>  <SYNONYMS>  (5722) 


>  <SPECTRUM TYPE>  (5722) 
MS1

>  <INSTRUMENT TYPE>  (5722) 
EI-B

>  <INSTRUMENT>  (5722) 
JEOL JMS-01-SG

>  <ION MODE>  (5722) 
P

>  <INCHIKEY>  (5722) 
QESOHYICRZEKLH-UHFFFAOYSA-N

>  <FORMULA>  (5722) 
C15H32O2Si

>  <EXACT MASS>  (5722) 
272.217156794

>  <MW>  (5722) 
272

>  <ID>  (5722) 
JP000612

>  <CONTRIBUTOR>  (5722) 
University of Tokyo Team, {Faculty of Engineering, University of Tokyo

>  <COMMENT>  (5722) 
SMILES=CCC(C)CCCCCCCC(=O)O[Si](C)(C)C
InChI=InChI=1S/C15H32O2Si/c1-6-14(2)12-10-8-7-9-11-13-15(16)17-18(3,4)5/h14H,6-13H2,1-5H3
computed SMILES=O=C(O[Si](C)(C)C)CCCCCCCC(C)CC
accession=JP000612
date=2016.01.19 (Created 2008.10.21, modified 2011.05.06)
author=KOGA M, UNIV. OF OCCUPATIONAL AND ENVIRONMENTAL HEALTH
license=CC BY-NC-SA
exact mass=272.21716
ionization energy=70 eV
ion type=[M]+*
computed spectral entropy=2.653243518533377
computed normalized entropy=0.8461962726814133
SPLASH=splash10-00b9-9110000000-bf8632d72a4f8085e822
submitter=submitter = University of Tokyo Team (Faculty of Engineering, University of Tokyo)
MoNA Rating=3.75

>  <NUM PEAKS>  (5722) 
23

>  <MASS SPECTRAL PEAKS>  (5722) 
43 30.2
45 14.5
47 17.8
55 2.75
56 13.5
61 12.4
67 13.5
69 1.67
73 99.99
75 83.2
76 11.8
77 1.13
81 12.4
95 12.9
97 11.8
117 6.27
118 11.8
119 11.3
129 23.7
131 2.59
145 19.4
257 29.1
258 11.3

>  <PREDICTED SPECTRUM>  (5722) 
27 1
39 34
41 208
42 54
43 299
44 68
45 215
46 31
47 70
53 84
54 71
55 405
56 130
57 260
58 79
59 115
60 23
61 172
67 127
68 42
69 349
70 166
71 101
72 125
73 999
74 261
75 845
76 227
77 137
78 21
79 45
81 199
82 42
83 289
84 84
85 29
86 9
88 25
89 86
90 15
93 70
95 173
96 105
97 170
98 124
99 29
101 29
103 115
104 11
107 4
109 82
111 88
112 53
113 26
115 22
117 760
118 211
119 82
127 16
129 490
130 135
131 242
132 338
133 79
135 2
141 19
142 12
143 148
144 12
145 541
146 159
147 181
154 28
157 19
159 55
171 43
172 33
182 59
185 9
200 11
213 37
215 62
216 5
217 18
229 114
241 123
243 89
257 745
258 375
259 147
260 0
272 87
273 30

$$$$

     RDKit          2D

 31 30  0  0  0  0  0  0  0  0999 V2000
    7.1447   13.1250    0.0000 C   0  0  0  0  0  0  0  0  0  0  0  0
  -18.2870   12.1740    0.0000 C   0  0  0  0  0  0  0  0  0  0  0  0
  -18.8361   10.1250    0.0000 C   0  0  0  0  0  0  0  0  0  0  0  0
  -16.7870    9.5760    0.0000 C   0  0  0  0  0  0  0  0  0  0  0  0
  -19.3851   15.1740    0.0000 C   0  0  0  0  0  0  0  0  0  0  0  0
  -21.4341   14.6250    0.0000 C   0  0  0  0  0  0  0  0  0  0  0  0
  -20.8851   12.5760    0.0000 C   0  0  0  0  0  0  0  0  0  0  0  0
    5.8457   13.8750    0.0000 C   0  0  0  0  0  0  0  0  0  0  0  0
    4.5466   13.1250    0.0000 C   0  0  0  0  0  0  0  0  0  0  0  0
    3.2476   13.8750    0.0000 C   0  0  0  0  0  0  0  0  0  0  0  0
    1.9486   13.1250    0.0000 C   0  0  0  0  0  0  0  0  0  0  0  0
    0.6495   13.8750    0.0000 C   0  0  0  0  0  0  0  0  0  0  0  0
   -0.6495   13.1250    0.0000 C   0  0  0  0  0  0  0  0  0  0  0  0
   -1.9486   13.8750    0.0000 C   0  0  0  0  0  0  0  0  0  0  0  0
   -3.2476   13.1250    0.0000 C   0  0  0  0  0  0  0  0  0  0  0  0
   -4.5466   13.8750    0.0000 C   0  0  0  0  0  0  0  0  0  0  0  0
   -5.8457   13.1250    0.0000 C   0  0  0  0  0  0  0  0  0  0  0  0
   -7.1447   13.8750    0.0000 C   0  0  0  0  0  0  0  0  0  0  0  0
   -8.4437   13.1250    0.0000 C   0  0  0  0  0  0  0  0  0  0  0  0
   -9.7428   13.8750    0.0000 C   0  0  0  0  0  0  0  0  0  0  0  0
  -11.0418   13.1250    0.0000 C   0  0  0  0  0  0  0  0  0  0  0  0
  -12.3409   13.8750    0.0000 C   0  0  0  0  0  0  0  0  0  0  0  0
  -13.6399   13.1250    0.0000 C   0  0  0  0  0  0  0  0  0  0  0  0
  -14.9389   13.8750    0.0000 C   0  0  0  0  0  0  0  0  0  0  0  0
  -16.2380   13.1250    0.0000 C   0  0  0  0  0  0  0  0  0  0  0  0
  -17.5370   13.8750    0.0000 C   0  0  0  0  0  0  0  0  0  0  0  0
  -17.5370   15.3750    0.0000 O   0  0  0  0  0  0  0  0  0  0  0  0
  -16.2380   11.6250    0.0000 O   0  0  0  0  0  0  0  0  0  0  0  0
  -18.8361   13.1250    0.0000 O   0  0  0  0  0  0  0  0  0  0  0  0
  -17.5370   10.8750    0.0000 Si  0  0  0  0  0  4  0  0  0  0  0  0
  -20.1351   13.8750    0.0000 Si  0  0  0  0  0  4  0  0  0  0  0  0
  8  1  1  0
  9  8  1  0
 10  9  1  0
 11 10  1  0
 12 11  1  0
 13 12  1  0
 14 13  1  0
 15 14  1  0
 16 15  1  0
 17 16  1  0
 18 17  1  0
 19 18  1  0
 20 19  1  0
 21 20  1  0
 22 21  1  0
 23 22  1  0
 24 23  1  0
 25 24  1  0
 26 25  1  0
 27 26  2  0
 28 25  1  0
 29 26  1  0
 30  2  1  0
 30  3  1  0
 30  4  1  0
 30 28  1  0
 31  5  1  0
 31  6  1  0
 31  7  1  0
 31 29  1  0
M  END
>  <NAME>  (5723) 
2-(TRIMETHYLSILYL)OXY-EICOSANOIC ACID TRIMETHYLSILYL ESTER

>  <SYNONYMS>  (5723) 


>  <SPECTRUM TYPE>  (5723) 
MS1

>  <INSTRUMENT TYPE>  (5723) 
EI-B

>  <INSTRUMENT>  (5723) 
JEOL JMS-01-SG

>  <ION MODE>  (5723) 
P

>  <INCHIKEY>  (5723) 
UVWFZVLVNGBIJE-UHFFFAOYSA-N

>  <FORMULA>  (5723) 
C26H56O3Si2

>  <EXACT MASS>  (5723) 
472.376798712

>  <MW>  (5723) 
472

>  <ID>  (5723) 
JP000611

>  <CONTRIBUTOR>  (5723) 
University of Tokyo Team, {Faculty of Engineering, University of Tokyo

>  <COMMENT>  (5723) 
SMILES=C(CCCCCCCCCCCCCCCCCC)(O[Si](C)(C)C)C(=O)O[Si](C)(C)C
InChI=InChI=1S/C26H56O3Si2/c1-8-9-10-11-12-13-14-15-16-17-18-19-20-21-22-23-24-25(28-30(2,3)4)26(27)29-31(5,6)7/h25H,8-24H2,1-7H3
computed SMILES=O=C(O[Si](C)(C)C)C(O[Si](C)(C)C)CCCCCCCCCCCCCCCCCC
accession=JP000611
date=2016.01.19 (Created 2008.10.21, modified 2011.05.06)
author=KOGA M, UNIV. OF OCCUPATIONAL AND ENVIRONMENTAL HEALTH
license=CC BY-NC-SA
exact mass=472.3768
ionization energy=70 eV
ion type=[M]+*
computed spectral entropy=2.432707306238297
computed normalized entropy=0.812057648713799
SPLASH=splash10-0ab9-9304000000-1269595d14b0d3057219
submitter=submitter = University of Tokyo Team (Faculty of Engineering, University of Tokyo)
MoNA Rating=3.75

>  <NUM PEAKS>  (5723) 
20

>  <MASS SPECTRAL PEAKS>  (5723) 
43 11.2
57 25.1
69 14.2
71 1.29
73 99.99
75 19.9
83 19.4
97 1.86
99 10.8
103 15.1
111 10.3
117 1.6
129 14.7
147 38
148 10.8
221 1.25
355 90
356 12.9
430 13.4
457 5.1

>  <PREDICTED SPECTRUM>  (5723) 
40 27
41 152
42 43
43 138
44 91
45 147
47 5
52 2
53 24
55 206
56 32
57 118
58 62
59 123
60 50
61 40
66 14
67 135
68 51
69 146
70 26
71 121
72 9
73 656
74 147
75 248
76 18
77 102
79 60
81 154
82 27
83 174
84 0
85 46
86 21
87 0
89 5
91 53
93 39
95 99
97 64
98 19
99 40
100 17
101 79
102 32
103 102
105 32
107 8
109 57
111 12
113 0
114 2
115 86
116 64
117 54
118 33
119 67
127 4
129 211
130 89
131 81
133 116
134 32
135 77
136 3
137 51
138 17
139 23
141 19
143 63
147 431
148 192
149 165
150 21
151 20
152 7
154 8
155 45
157 32
165 4
167 31
170 0
171 31
172 8
175 75
176 16
183 29
190 78
191 67
192 41
193 73
194 3
195 90
196 44
197 3
203 22
205 35
206 2
207 86
208 90
209 57
210 5
211 17
212 9
221 137
222 147
223 109
224 257
235 3
237 63
238 22
239 41
240 23
245 2
246 29
247 27
248 44
249 27
251 33
252 8
265 129
266 60
267 191
268 10
313 14
355 999
356 490
357 208
358 15
405 4
429 161
430 19
457 157
458 90
459 27
472 29
474 5

$$$$

     RDKit          2D

 29 28  0  0  0  0  0  0  0  0999 V2000
    6.4952   12.0000    0.0000 C   0  0  0  0  0  0  0  0  0  0  0  0
  -16.3385   11.0490    0.0000 C   0  0  0  0  0  0  0  0  0  0  0  0
  -16.8875    9.0000    0.0000 C   0  0  0  0  0  0  0  0  0  0  0  0
  -14.8385    8.4510    0.0000 C   0  0  0  0  0  0  0  0  0  0  0  0
  -17.4365   14.0490    0.0000 C   0  0  0  0  0  0  0  0  0  0  0  0
  -19.4856   13.5000    0.0000 C   0  0  0  0  0  0  0  0  0  0  0  0
  -18.9365   11.4510    0.0000 C   0  0  0  0  0  0  0  0  0  0  0  0
    5.1962   12.7500    0.0000 C   0  0  0  0  0  0  0  0  0  0  0  0
    3.8971   12.0000    0.0000 C   0  0  0  0  0  0  0  0  0  0  0  0
    2.5981   12.7500    0.0000 C   0  0  0  0  0  0  0  0  0  0  0  0
    1.2990   12.0000    0.0000 C   0  0  0  0  0  0  0  0  0  0  0  0
    0.0000   12.7500    0.0000 C   0  0  0  0  0  0  0  0  0  0  0  0
   -1.2990   12.0000    0.0000 C   0  0  0  0  0  0  0  0  0  0  0  0
   -2.5981   12.7500    0.0000 C   0  0  0  0  0  0  0  0  0  0  0  0
   -3.8971   12.0000    0.0000 C   0  0  0  0  0  0  0  0  0  0  0  0
   -5.1962   12.7500    0.0000 C   0  0  0  0  0  0  0  0  0  0  0  0
   -6.4952   12.0000    0.0000 C   0  0  0  0  0  0  0  0  0  0  0  0
   -7.7942   12.7500    0.0000 C   0  0  0  0  0  0  0  0  0  0  0  0
   -9.0933   12.0000    0.0000 C   0  0  0  0  0  0  0  0  0  0  0  0
  -10.3923   12.7500    0.0000 C   0  0  0  0  0  0  0  0  0  0  0  0
  -11.6913   12.0000    0.0000 C   0  0  0  0  0  0  0  0  0  0  0  0
  -12.9904   12.7500    0.0000 C   0  0  0  0  0  0  0  0  0  0  0  0
  -14.2894   12.0000    0.0000 C   0  0  0  0  0  0  0  0  0  0  0  0
  -15.5885   12.7500    0.0000 C   0  0  0  0  0  0  0  0  0  0  0  0
  -15.5885   14.2500    0.0000 O   0  0  0  0  0  0  0  0  0  0  0  0
  -14.2894   10.5000    0.0000 O   0  0  0  0  0  0  0  0  0  0  0  0
  -16.8875   12.0000    0.0000 O   0  0  0  0  0  0  0  0  0  0  0  0
  -15.5885    9.7500    0.0000 Si  0  0  0  0  0  4  0  0  0  0  0  0
  -18.1865   12.7500    0.0000 Si  0  0  0  0  0  4  0  0  0  0  0  0
  8  1  1  0
  9  8  1  0
 10  9  1  0
 11 10  1  0
 12 11  1  0
 13 12  1  0
 14 13  1  0
 15 14  1  0
 16 15  1  0
 17 16  1  0
 18 17  1  0
 19 18  1  0
 20 19  1  0
 21 20  1  0
 22 21  1  0
 23 22  1  0
 24 23  1  0
 25 24  2  0
 26 23  1  0
 27 24  1  0
 28  2  1  0
 28  3  1  0
 28  4  1  0
 28 26  1  0
 29  5  1  0
 29  6  1  0
 29  7  1  0
 29 27  1  0
M  END
>  <NAME>  (5724) 
2-(TRIMETHYLSILYL)OXY-OCTADECANOIC ACID TRIMETHYLSILYL ESTER

>  <SYNONYMS>  (5724) 


>  <SPECTRUM TYPE>  (5724) 
MS1

>  <INSTRUMENT TYPE>  (5724) 
EI-B

>  <INSTRUMENT>  (5724) 
JEOL JMS-01-SG

>  <ION MODE>  (5724) 
P

>  <INCHIKEY>  (5724) 
ZCCYWXIRPWEWFM-UHFFFAOYSA-N

>  <FORMULA>  (5724) 
C24H52O3Si2

>  <EXACT MASS>  (5724) 
444.345498584

>  <MW>  (5724) 
444

>  <ID>  (5724) 
JP000610

>  <CONTRIBUTOR>  (5724) 
University of Tokyo Team, {Faculty of Engineering, University of Tokyo

>  <COMMENT>  (5724) 
SMILES=CCCCCCCCCCCCCCCCC(O[Si](C)(C)C)C(=O)O[Si](C)(C)C
InChI=InChI=1S/C24H52O3Si2/c1-8-9-10-11-12-13-14-15-16-17-18-19-20-21-22-23(26-28(2,3)4)24(25)27-29(5,6)7/h23H,8-22H2,1-7H3
computed SMILES=O=C(O[Si](C)(C)C)C(O[Si](C)(C)C)CCCCCCCCCCCCCCCC
accession=JP000610
license=CC BY-NC-SA
date=2016.01.19 (Created 2008.10.21, modified 2011.05.06)
author=KOGA M, UNIV. OF OCCUPATIONAL AND ENVIRONMENTAL HEALTH
exact mass=444.3455
ionization energy=70 eV
ion type=[M]+*
computed spectral entropy=2.8802812512216964
computed normalized entropy=0.8840380319027568
SPLASH=splash10-00dj-9300000000-9b8fcc392b18fed5e72c
submitter=submitter = University of Tokyo Team (Faculty of Engineering, University of Tokyo)
MoNA Rating=3.75

>  <NUM PEAKS>  (5724) 
26

>  <MASS SPECTRAL PEAKS>  (5724) 
43 20.9
45 13.8
55 26.8
57 4.18
67 11.4
69 29.6
71 20.1
73 99.99
74 13
75 31.6
81 10.2
83 4.18
85 13.8
91 15.4
97 39.1
103 3.95
111 16.6
117 13.4
125 11.8
129 1.77
131 10.2
147 51.3
148 11
327 6.16
328 18.5
429 2.7

>  <PREDICTED SPECTRUM>  (5724) 
28 2
29 93
40 42
41 217
42 47
43 184
44 132
45 233
46 11
47 42
52 8
53 49
55 313
56 26
57 120
58 85
59 201
60 81
61 65
66 23
67 181
68 49
69 183
71 151
72 90
73 999
74 231
75 376
76 4
77 147
78 20
79 112
81 198
82 0
83 198
84 11
85 51
86 29
87 67
88 49
89 30
91 62
93 50
95 147
96 8
97 77
98 71
99 78
101 114
102 55
103 165
105 98
107 8
109 120
110 41
111 103
113 29
115 74
116 41
117 36
119 133
121 1
125 35
127 70
129 286
130 53
131 88
133 186
134 31
135 23
137 0
139 11
143 97
144 25
147 687
148 309
149 287
150 65
155 65
165 133
166 34
167 142
168 84
169 20
175 41
178 26
179 88
180 114
181 98
183 38
184 26
185 17
190 71
191 87
192 94
193 140
194 57
195 187
196 84
197 35
207 112
208 32
209 125
210 63
211 79
212 52
217 45
218 51
219 48
220 78
221 177
222 221
223 75
224 382
231 8
237 245
238 95
239 288
240 33
255 13
259 10
265 13
285 42
290 10
329 298
330 12
429 261
430 137
431 52
444 44

$$$$

     RDKit          2D

 27 26  0  0  0  0  0  0  0  0999 V2000
    5.8457   10.8750    0.0000 C   0  0  0  0  0  0  0  0  0  0  0  0
  -14.3899    9.9240    0.0000 C   0  0  0  0  0  0  0  0  0  0  0  0
  -14.9389    7.8750    0.0000 C   0  0  0  0  0  0  0  0  0  0  0  0
  -12.8899    7.3260    0.0000 C   0  0  0  0  0  0  0  0  0  0  0  0
  -15.4880   12.9240    0.0000 C   0  0  0  0  0  0  0  0  0  0  0  0
  -17.5370   12.3750    0.0000 C   0  0  0  0  0  0  0  0  0  0  0  0
  -16.9880   10.3260    0.0000 C   0  0  0  0  0  0  0  0  0  0  0  0
    4.5466   11.6250    0.0000 C   0  0  0  0  0  0  0  0  0  0  0  0
    3.2476   10.8750    0.0000 C   0  0  0  0  0  0  0  0  0  0  0  0
    1.9486   11.6250    0.0000 C   0  0  0  0  0  0  0  0  0  0  0  0
    0.6495   10.8750    0.0000 C   0  0  0  0  0  0  0  0  0  0  0  0
   -0.6495   11.6250    0.0000 C   0  0  0  0  0  0  0  0  0  0  0  0
   -1.9486   10.8750    0.0000 C   0  0  0  0  0  0  0  0  0  0  0  0
   -3.2476   11.6250    0.0000 C   0  0  0  0  0  0  0  0  0  0  0  0
   -4.5466   10.8750    0.0000 C   0  0  0  0  0  0  0  0  0  0  0  0
   -5.8457   11.6250    0.0000 C   0  0  0  0  0  0  0  0  0  0  0  0
   -7.1447   10.8750    0.0000 C   0  0  0  0  0  0  0  0  0  0  0  0
   -8.4437   11.6250    0.0000 C   0  0  0  0  0  0  0  0  0  0  0  0
   -9.7428   10.8750    0.0000 C   0  0  0  0  0  0  0  0  0  0  0  0
  -11.0418   11.6250    0.0000 C   0  0  0  0  0  0  0  0  0  0  0  0
  -12.3409   10.8750    0.0000 C   0  0  0  0  0  0  0  0  0  0  0  0
  -13.6399   11.6250    0.0000 C   0  0  0  0  0  0  0  0  0  0  0  0
  -13.6399   13.1250    0.0000 O   0  0  0  0  0  0  0  0  0  0  0  0
  -12.3409    9.3750    0.0000 O   0  0  0  0  0  0  0  0  0  0  0  0
  -14.9389   10.8750    0.0000 O   0  0  0  0  0  0  0  0  0  0  0  0
  -13.6399    8.6250    0.0000 Si  0  0  0  0  0  4  0  0  0  0  0  0
  -16.2380   11.6250    0.0000 Si  0  0  0  0  0  4  0  0  0  0  0  0
  8  1  1  0
  9  8  1  0
 10  9  1  0
 11 10  1  0
 12 11  1  0
 13 12  1  0
 14 13  1  0
 15 14  1  0
 16 15  1  0
 17 16  1  0
 18 17  1  0
 19 18  1  0
 20 19  1  0
 21 20  1  0
 22 21  1  0
 23 22  2  0
 24 21  1  0
 25 22  1  0
 26  2  1  0
 26  3  1  0
 26  4  1  0
 26 24  1  0
 27  5  1  0
 27  6  1  0
 27  7  1  0
 27 25  1  0
M  END
>  <NAME>  (5725) 
2-(TRIMETHYLSILYL)OXY-HEXADECANOIC ACID TRIMETHYLSILYL ESTER

>  <SYNONYMS>  (5725) 


>  <SPECTRUM TYPE>  (5725) 
MS1

>  <INSTRUMENT TYPE>  (5725) 
EI-B

>  <INSTRUMENT>  (5725) 
JEOL JMS-01-SG

>  <ION MODE>  (5725) 
P

>  <INCHIKEY>  (5725) 
ZDIZSQOYKPNOIV-UHFFFAOYSA-N

>  <FORMULA>  (5725) 
C22H48O3Si2

>  <EXACT MASS>  (5725) 
416.314198456

>  <MW>  (5725) 
416

>  <ID>  (5725) 
JP000609

>  <CONTRIBUTOR>  (5725) 
University of Tokyo Team, {Faculty of Engineering, University of Tokyo

>  <COMMENT>  (5725) 
SMILES=CCCCCCCCCCCCCCC(O[Si](C)(C)C)C(=O)O[Si](C)(C)C
InChI=InChI=1S/C22H48O3Si2/c1-8-9-10-11-12-13-14-15-16-17-18-19-20-21(24-26(2,3)4)22(23)25-27(5,6)7/h21H,8-20H2,1-7H3
computed SMILES=O=C(O[Si](C)(C)C)C(O[Si](C)(C)C)CCCCCCCCCCCCCC
accession=JP000609
date=2016.01.19 (Created 2008.10.21, modified 2011.05.06)
author=KOGA M, UNIV. OF OCCUPATIONAL AND ENVIRONMENTAL HEALTH
license=CC BY-NC-SA
exact mass=416.3142
ionization energy=70 eV
ion type=[M]+*
computed spectral entropy=2.6441816394246493
computed normalized entropy=0.8433061767396983
SPLASH=splash10-006t-9410000000-7f3cc68509e8c82c445b
submitter=submitter = University of Tokyo Team (Faculty of Engineering, University of Tokyo)
MoNA Rating=3.75

>  <NUM PEAKS>  (5725) 
23

>  <MASS SPECTRAL PEAKS>  (5725) 
43 14.4
55 13.1
57 27.3
69 1.96
71 15.9
73 99.99
75 19.3
83 3.25
91 11.6
97 27.6
103 22
111 1.19
115 7.3
125 7
131 7.6
135 0.7
147 29.7
148 10.1
149 29.4
150 0.7
177 7
299 49.3
300 12.2

>  <PREDICTED SPECTRUM>  (5725) 
28 3
29 35
40 25
41 138
42 13
43 118
44 113
45 166
46 12
47 71
52 14
53 29
55 198
56 25
57 68
58 60
59 166
60 57
61 55
66 38
67 116
68 37
69 120
70 71
71 93
72 25
73 677
74 162
75 257
76 26
77 95
78 8
79 83
80 12
81 124
82 41
83 172
84 4
85 52
87 19
91 64
93 39
95 97
96 33
97 85
98 49
99 82
101 77
103 115
105 25
109 62
110 6
111 61
112 0
115 41
116 58
117 11
119 129
120 36
121 5
125 8
127 43
129 183
130 41
131 73
132 11
133 142
134 46
135 54
137 54
138 31
139 59
140 20
141 19
143 44
146 13
147 478
148 216
149 210
150 71
151 72
152 56
153 36
154 2
155 36
156 29
157 39
159 5
165 100
166 53
167 127
168 57
169 35
179 27
180 2
181 89
182 36
183 66
184 51
189 30
190 110
191 119
192 95
193 58
194 19
195 61
196 19
197 4
201 8
203 5
207 34
208 9
209 190
210 90
211 187
212 31
213 7
217 11
221 12
222 98
224 229
227 27
231 29
233 6
237 19
257 42
262 17
299 999
300 465
301 186
302 13
373 36
374 20
402 8
403 36
416 24
419 17

$$$$

     RDKit          2D

 25 24  0  0  0  0  0  0  0  0999 V2000
  -16.8875    9.0000    0.0000 C   0  0  0  0  0  0  0  0  0  0  0  0
    0.7500    9.9510    0.0000 C   0  0  0  0  0  0  0  0  0  0  0  0
    1.2990   12.0000    0.0000 C   0  0  0  0  0  0  0  0  0  0  0  0
   -0.7500   12.5490    0.0000 C   0  0  0  0  0  0  0  0  0  0  0  0
    1.8481    6.9510    0.0000 C   0  0  0  0  0  0  0  0  0  0  0  0
    3.8971    7.5000    0.0000 C   0  0  0  0  0  0  0  0  0  0  0  0
    3.3481    9.5490    0.0000 C   0  0  0  0  0  0  0  0  0  0  0  0
  -15.5885    8.2500    0.0000 C   0  0  0  0  0  0  0  0  0  0  0  0
  -14.2894    9.0000    0.0000 C   0  0  0  0  0  0  0  0  0  0  0  0
  -12.9904    8.2500    0.0000 C   0  0  0  0  0  0  0  0  0  0  0  0
  -11.6913    9.0000    0.0000 C   0  0  0  0  0  0  0  0  0  0  0  0
  -10.3923    8.2500    0.0000 C   0  0  0  0  0  0  0  0  0  0  0  0
   -9.0933    9.0000    0.0000 C   0  0  0  0  0  0  0  0  0  0  0  0
   -7.7942    8.2500    0.0000 C   0  0  0  0  0  0  0  0  0  0  0  0
   -6.4952    9.0000    0.0000 C   0  0  0  0  0  0  0  0  0  0  0  0
   -5.1962    8.2500    0.0000 C   0  0  0  0  0  0  0  0  0  0  0  0
   -3.8971    9.0000    0.0000 C   0  0  0  0  0  0  0  0  0  0  0  0
   -2.5981    8.2500    0.0000 C   0  0  0  0  0  0  0  0  0  0  0  0
   -1.2990    9.0000    0.0000 C   0  0  0  0  0  0  0  0  0  0  0  0
    0.0000    8.2500    0.0000 C   0  0  0  0  0  0  0  0  0  0  0  0
    0.0000    6.7500    0.0000 O   0  0  0  0  0  0  0  0  0  0  0  0
   -1.2990   10.5000    0.0000 O   0  0  0  0  0  0  0  0  0  0  0  0
    1.2990    9.0000    0.0000 O   0  0  0  0  0  0  0  0  0  0  0  0
    0.0000   11.2500    0.0000 Si  0  0  0  0  0  4  0  0  0  0  0  0
    2.5981    8.2500    0.0000 Si  0  0  0  0  0  4  0  0  0  0  0  0
  8  1  1  0
  9  8  1  0
 10  9  1  0
 11 10  1  0
 12 11  1  0
 13 12  1  0
 14 13  1  0
 15 14  1  0
 16 15  1  0
 17 16  1  0
 18 17  1  0
 19 18  1  0
 20 19  1  0
 21 20  2  0
 22 19  1  0
 23 20  1  0
 24  2  1  0
 24  3  1  0
 24  4  1  0
 24 22  1  0
 25  5  1  0
 25  6  1  0
 25  7  1  0
 25 23  1  0
M  END
>  <NAME>  (5726) 
2-(TRIMETHYLSILYL)OXY-TETRADECANOIC ACID TRIMETHYLSILYL ESTER

>  <SYNONYMS>  (5726) 


>  <SPECTRUM TYPE>  (5726) 
MS1

>  <INSTRUMENT TYPE>  (5726) 
EI-B

>  <INSTRUMENT>  (5726) 
JEOL JMS-01-SG

>  <ION MODE>  (5726) 
P

>  <INCHIKEY>  (5726) 
RDVMVTBJXWMHMH-UHFFFAOYSA-N

>  <FORMULA>  (5726) 
C20H44O3Si2

>  <EXACT MASS>  (5726) 
388.282898328

>  <MW>  (5726) 
388

>  <ID>  (5726) 
JP000608

>  <CONTRIBUTOR>  (5726) 
University of Tokyo Team, {Faculty of Engineering, University of Tokyo

>  <COMMENT>  (5726) 
SMILES=CCCCCCCCCCCCC(O[Si](C)(C)C)C(=O)O[Si](C)(C)C
InChI=InChI=1S/C20H44O3Si2/c1-8-9-10-11-12-13-14-15-16-17-18-19(22-24(2,3)4)20(21)23-25(5,6)7/h19H,8-18H2,1-7H3
computed SMILES=O=C(O[Si](C)(C)C)C(O[Si](C)(C)C)CCCCCCCCCCCC
accession=JP000608
date=2016.01.19 (Created 2008.10.21, modified 2011.05.06)
author=KOGA M, UNIV. OF OCCUPATIONAL AND ENVIRONMENTAL HEALTH
license=CC BY-NC-SA
exact mass=388.2829
ionization energy=70 eV
ion type=[M]+*
computed spectral entropy=2.9308960816336715
computed normalized entropy=0.861724784758405
SPLASH=splash10-00di-9310000000-09d9002766bad3768e11
submitter=submitter = University of Tokyo Team (Faculty of Engineering, University of Tokyo)
MoNA Rating=3.75

>  <NUM PEAKS>  (5726) 
30

>  <MASS SPECTRAL PEAKS>  (5726) 
43 48.7
45 11.6
47 10.7
55 2.05
56 14.7
57 29.4
59 12
67 1.47
69 40.6
70 10.7
73 99.99
77 1.74
82 10.2
83 41.5
91 12.9
93 1.02
95 11.6
97 34.8
103 37
111 2.63
115 10.2
125 10.2
129 16.5
132 1.02
147 43.7
148 12
149 16.5
265 1.02
271 68.3
272 16.5

>  <PREDICTED SPECTRUM>  (5726) 
28 14
29 31
40 27
41 144
42 39
43 129
44 92
45 186
46 21
47 82
52 25
53 49
55 232
56 29
57 85
58 26
59 173
60 60
61 61
66 52
67 117
68 50
69 140
70 69
71 108
72 13
73 709
74 175
75 282
76 23
77 95
79 56
81 113
82 26
83 170
84 10
85 29
86 7
87 13
88 15
91 115
93 43
95 81
97 60
98 37
99 81
101 77
102 4
103 140
104 3
105 33
109 94
110 44
111 98
112 64
113 25
115 19
116 12
117 23
118 23
119 101
121 19
122 9
123 46
124 22
125 62
127 30
129 213
130 73
131 92
133 162
134 35
135 38
137 53
138 47
139 95
140 18
141 40
143 16
145 17
147 513
148 237
149 229
150 88
151 41
153 53
154 30
155 72
156 64
157 6
158 1
161 31
162 32
163 30
164 12
165 44
166 27
167 46
168 7
173 19
175 6
181 212
182 95
183 172
184 34
185 27
189 13
190 75
191 93
192 40
197 9
199 46
201 15
203 45
204 25
205 22
207 25
209 32
219 6
222 52
224 185
229 47
234 25
255 19
271 999
272 440
273 195
274 12
345 195
346 36
373 47
374 79
375 48
388 22

$$$$

     RDKit          2D

 22 23  0  0  0  0  0  0  0  0999 V2000
    4.4483   -0.5487    0.0000 C   0  0  0  0  0  0  0  0  0  0  0  0
    6.4972    0.0006    0.0000 C   0  0  0  0  0  0  0  0  0  0  0  0
    5.9479    2.0496    0.0000 C   0  0  0  0  0  0  0  0  0  0  0  0
    4.0990    5.2500    0.0000 C   0  0  0  0  0  0  0  0  0  0  0  0
    2.5990    6.7500    0.0000 C   0  0  0  0  0  0  0  0  0  0  0  0
    1.0990    5.2500    0.0000 C   0  0  0  0  0  0  0  0  0  0  0  0
   -2.6000   -0.7500    0.0000 C   0  0  0  0  0  0  0  0  0  0  0  0
   -2.6000    0.7500    0.0000 C   0  0  0  0  0  0  0  0  0  0  0  0
   -1.3000   -1.5000    0.0000 C   0  0  0  0  0  0  0  0  0  0  0  0
   -1.3000    1.5000    0.0000 C   0  0  0  0  0  0  0  0  0  0  0  0
    1.3000   -1.5000    0.0000 C   0  0  0  0  0  0  0  0  0  0  0  0
    2.6000   -0.7500    0.0000 C   0  0  0  0  0  0  0  0  0  0  0  0
    0.0000   -0.7500    0.0000 C   0  0  0  0  0  0  0  0  0  0  0  0
    0.0000    0.7500    0.0000 C   0  0  0  0  0  0  0  0  0  0  0  0
    2.6000    0.7500    0.0000 C   0  0  0  0  0  0  0  0  0  0  0  0
    1.3000    1.5000    0.0000 C   0  0  0  0  0  0  0  0  0  0  0  0
    1.3000    3.0000    0.0000 C   0  0  0  0  0  0  0  0  0  0  0  0
    0.0010    3.7500    0.0000 O   0  0  0  0  0  0  0  0  0  0  0  0
    3.8989    1.5002    0.0000 O   0  0  0  0  0  0  0  0  0  0  0  0
    2.5990    3.7500    0.0000 O   0  0  0  0  0  0  0  0  0  0  0  0
    5.1981    0.7504    0.0000 Si  0  0  0  0  0  4  0  0  0  0  0  0
    2.5990    5.2500    0.0000 Si  0  0  0  0  0  4  0  0  0  0  0  0
  8  7  2  0
  9  7  1  0
 10  8  1  0
 12 11  2  0
 13  9  2  0
 13 11  1  0
 14 10  2  0
 14 13  1  0
 15 12  1  0
 16 14  1  0
 16 15  2  0
 17 16  1  0
 18 17  2  0
 19 15  1  0
 20 17  1  0
 21  1  1  0
 21  2  1  0
 21  3  1  0
 21 19  1  0
 22  4  1  0
 22  5  1  0
 22  6  1  0
 22 20  1  0
M  END
>  <NAME>  (5727) 
2-(TRIMETHYLSILYL)OXY-1-NAPHTHOIC ACID TRIMETHYLSILYL ESTER

>  <SYNONYMS>  (5727) 


>  <SPECTRUM TYPE>  (5727) 
MS1

>  <INSTRUMENT TYPE>  (5727) 
EI-B

>  <INSTRUMENT>  (5727) 
JEOL JMS-01-SG

>  <ION MODE>  (5727) 
P

>  <INCHIKEY>  (5727) 
DZGQTVQTZLFKGN-UHFFFAOYSA-N

>  <FORMULA>  (5727) 
C17H24O3Si2

>  <EXACT MASS>  (5727) 
332.126397688

>  <MW>  (5727) 
332

>  <ID>  (5727) 
JP000605

>  <CONTRIBUTOR>  (5727) 
University of Tokyo Team, {Faculty of Engineering, University of Tokyo

>  <COMMENT>  (5727) 
SMILES=C[Si](C)(C)OC(=O)c(c1O[Si](C)(C)C)c(c2)c(ccc2)cc1
InChI=InChI=1S/C17H24O3Si2/c1-21(2,3)19-15-12-11-13-9-7-8-10-14(13)16(15)17(18)20-22(4,5)6/h7-12H,1-6H3
computed SMILES=O=C(O[Si](C)(C)C)C1=C(O[Si](C)(C)C)C=CC=2C=CC=CC21
accession=JP000605
date=2016.01.19 (Created 2008.10.21, modified 2011.05.06)
author=KOGA M, UNIV. OF OCCUPATIONAL AND ENVIRONMENTAL HEALTH
license=CC BY-NC-SA
exact mass=332.1264
ionization energy=70 eV
ion type=[M]+*
computed spectral entropy=2.2405278886465325
computed normalized entropy=0.8273583287837906
SPLASH=splash10-004i-9102000000-f149fa4a85cc081e4ae4
submitter=submitter = University of Tokyo Team (Faculty of Engineering, University of Tokyo)
MoNA Rating=3.75

>  <NUM PEAKS>  (5727) 
15

>  <MASS SPECTRAL PEAKS>  (5727) 
40 15.6
43 17.6
47 17.6
73 6.53
75 99.99
76 11.7
77 39.8
93 3.72
95 9.8
141 9.8
144 7.8
147 3.33
149 10.4
317 49
318 13.7

>  <PREDICTED SPECTRUM>  (5727) 
14 7
15 47
18 19
27 37
28 33
29 110
31 19
38 15
39 76
40 20
41 38
42 27
43 213
44 165
45 470
46 125
47 212
48 34
49 57
50 51
51 88
52 35
53 90
54 37
55 101
56 40
57 114
58 99
59 139
60 82
61 137
62 57
63 108
64 41
65 69
66 52
67 29
68 17
69 54
70 74
71 84
72 109
73 964
74 296
75 431
76 126
77 174
78 44
79 74
80 12
81 19
82 33
83 79
84 64
85 63
86 65
87 67
88 34
89 110
90 69
91 70
92 18
93 45
95 18
96 3
97 66
98 53
99 91
100 84
101 99
102 108
103 77
104 22
105 60
106 38
107 34
109 30
110 21
111 48
112 24
113 97
114 120
115 239
116 121
117 142
118 58
119 106
120 42
121 18
124 11
125 29
126 104
127 135
128 122
129 96
130 70
131 109
132 50
133 134
134 23
135 62
136 22
137 48
139 73
140 103
141 109
142 95
143 80
144 40
145 155
146 90
147 466
148 187
149 152
150 26
151 61
152 46
153 35
154 45
155 114
156 60
157 95
158 35
159 97
160 73
161 53
162 47
163 3
164 17
165 27
166 2
167 71
168 53
169 172
170 163
171 177
172 107
173 83
174 7
175 20
176 44
177 1
181 20
183 56
184 39
185 166
186 102
187 127
188 86
189 65
190 102
196 22
197 52
198 46
199 204
200 96
201 97
202 77
203 49
204 5
213 67
214 150
215 337
216 179
217 121
218 30
227 131
228 91
229 149
230 93
231 110
241 86
242 195
243 375
244 221
245 179
246 60
255 4
257 91
258 48
259 110
260 99
261 2
271 58
272 26
273 102
274 1
283 7
285 11
287 70
288 54
289 28
299 19
301 79
302 42
303 77
304 23
305 11
315 73
316 28
317 999
318 522
319 349
320 120
321 25
331 153
332 437
333 243
334 164
335 68

$$$$

     RDKit          2D

 22 23  0  0  0  0  0  0  0  0999 V2000
    0.2624    4.6829    0.0000 C   0  0  0  0  0  0  0  0  0  0  0  0
   -1.7805    4.1116    0.0000 C   0  0  0  0  0  0  0  0  0  0  0  0
   -1.2093    2.0686    0.0000 C   0  0  0  0  0  0  0  0  0  0  0  0
    6.7992   -0.1507    0.0000 C   0  0  0  0  0  0  0  0  0  0  0  0
    7.3402    1.9005    0.0000 C   0  0  0  0  0  0  0  0  0  0  0  0
    5.2890    2.4415    0.0000 C   0  0  0  0  0  0  0  0  0  0  0  0
   -3.0200   -1.1200    0.0000 C   0  0  0  0  0  0  0  0  0  0  0  0
   -3.0200    0.3600    0.0000 C   0  0  0  0  0  0  0  0  0  0  0  0
   -1.7200   -1.8800    0.0000 C   0  0  0  0  0  0  0  0  0  0  0  0
   -1.7500    1.1100    0.0000 C   0  0  0  0  0  0  0  0  0  0  0  0
    0.8800   -1.8800    0.0000 C   0  0  0  0  0  0  0  0  0  0  0  0
    2.1700   -1.1200    0.0000 C   0  0  0  0  0  0  0  0  0  0  0  0
   -0.4200   -1.1200    0.0000 C   0  0  0  0  0  0  0  0  0  0  0  0
   -0.4200    0.3600    0.0000 C   0  0  0  0  0  0  0  0  0  0  0  0
    2.1500    0.3800    0.0000 C   0  0  0  0  0  0  0  0  0  0  0  0
    0.8500    1.1400    0.0000 C   0  0  0  0  0  0  0  0  0  0  0  0
    3.4461    1.1351    0.0000 C   0  0  0  0  0  0  0  0  0  0  0  0
    3.4401    2.6351    0.0000 O   0  0  0  0  0  0  0  0  0  0  0  0
    0.8337    2.6399    0.0000 O   0  0  0  0  0  0  0  0  0  0  0  0
    4.7481    0.3903    0.0000 O   0  0  0  0  0  0  0  0  0  0  0  0
   -0.4734    3.3757    0.0000 Si  0  0  0  0  0  4  0  0  0  0  0  0
    6.0441    1.1454    0.0000 Si  0  0  0  0  0  4  0  0  0  0  0  0
  8  7  2  0
  9  7  1  0
 10  8  1  0
 12 11  2  0
 13  9  2  0
 13 11  1  0
 14 10  2  0
 14 13  1  0
 15 12  1  0
 16 14  1  0
 16 15  2  0
 17 15  1  0
 18 17  2  0
 19 16  1  0
 20 17  1  0
 21  1  1  0
 21  2  1  0
 21  3  1  0
 21 19  1  0
 22  4  1  0
 22  5  1  0
 22  6  1  0
 22 20  1  0
M  END
>  <NAME>  (5728) 
1-(TRIMETHYLSILYL)OXY-2-NAPHTHOIC ACID TRIMETHYLSILYL ESTER

>  <SYNONYMS>  (5728) 


>  <SPECTRUM TYPE>  (5728) 
MS1

>  <INSTRUMENT TYPE>  (5728) 
EI-B

>  <INSTRUMENT>  (5728) 
JEOL JMS-01-SG

>  <ION MODE>  (5728) 
P

>  <INCHIKEY>  (5728) 
VOQDDXJNIUGFKD-UHFFFAOYSA-N

>  <FORMULA>  (5728) 
C17H24O3Si2

>  <EXACT MASS>  (5728) 
332.126397688

>  <MW>  (5728) 
332

>  <ID>  (5728) 
JP000604

>  <CONTRIBUTOR>  (5728) 
University of Tokyo Team, {Faculty of Engineering, University of Tokyo

>  <COMMENT>  (5728) 
SMILES=C[Si](C)(C)OC(=O)c(c1)c(O[Si](C)(C)C)c(c2)c(ccc2)c1
InChI=InChI=1S/C17H24O3Si2/c1-21(2,3)19-16-14-10-8-7-9-13(14)11-12-15(16)17(18)20-22(4,5)6/h7-12H,1-6H3
computed SMILES=O=C(O[Si](C)(C)C)C=1C=CC=2C=CC=CC2C1O[Si](C)(C)C
accession=JP000604
date=2016.01.19 (Created 2008.10.21, modified 2011.05.06)
author=KOGA M, UNIV. OF OCCUPATIONAL AND ENVIRONMENTAL HEALTH
license=CC BY-NC-SA
exact mass=332.1264
ionization energy=70 eV
ion type=[M]+*
computed spectral entropy=2.4446245138982805
computed normalized entropy=0.8160357103600907
SPLASH=splash10-004i-9001000000-8b3733bd43fa254cd5f6
submitter=submitter = University of Tokyo Team (Faculty of Engineering, University of Tokyo)
MoNA Rating=3.75

>  <NUM PEAKS>  (5728) 
20

>  <MASS SPECTRAL PEAKS>  (5728) 
40 8.9
43 22
47 25.8
49 1.31
63 9.3
65 12.5
73 49.8
74 0.89
75 99.99
76 12.3
77 12.2
93 4.19
94 8.2
95 13.1
115 8.6
147 1.53
170 9.7
317 38.9
318 10.4
319 4.1

>  <PREDICTED SPECTRUM>  (5728) 
15 18
18 10
27 11
29 115
31 11
39 12
43 155
44 137
45 441
46 89
47 171
49 27
50 18
51 50
52 2
53 41
55 79
56 34
57 107
58 73
59 130
60 56
61 84
62 10
63 32
65 0
66 18
67 12
68 7
69 39
70 53
71 91
72 72
73 867
74 239
75 341
76 69
77 119
78 9
79 27
81 34
82 1
83 67
84 24
85 49
86 14
87 12
89 44
91 33
93 21
95 20
97 48
98 39
99 63
100 45
101 78
102 84
103 77
104 10
105 64
106 43
107 21
111 33
113 63
114 50
115 114
116 69
117 93
118 34
119 78
120 6
125 6
126 93
127 139
128 101
129 86
130 59
131 100
132 22
133 108
134 34
135 72
136 32
137 19
139 40
140 72
141 120
142 76
143 78
144 23
145 74
146 25
147 469
148 142
149 149
150 54
151 66
152 92
153 88
154 54
155 138
156 56
157 80
158 34
159 82
160 37
162 34
165 3
167 87
168 57
169 152
170 136
171 114
172 27
173 51
176 13
183 48
184 40
185 188
186 79
187 72
188 34
190 22
197 33
198 7
199 113
200 23
201 42
202 45
213 60
214 110
215 313
216 170
217 69
227 117
228 78
229 136
230 95
231 69
241 51
242 71
243 281
244 139
245 134
246 39
257 32
259 56
260 55
273 23
287 54
289 11
301 6
315 30
317 999
318 511
319 318
320 95
321 46
331 84
332 233
333 127
334 79
335 16

$$$$

     RDKit          2D

 17 18  0  0  0  0  0  0  0  0999 V2000
    6.8872    0.0617    0.0000 C   0  0  0  0  0  0  0  0  0  0  0  0
    7.4359    2.1108    0.0000 C   0  0  0  0  0  0  0  0  0  0  0  0
    5.3868    2.6595    0.0000 C   0  0  0  0  0  0  0  0  0  0  0  0
   -2.9500   -0.8900    0.0000 C   0  0  0  0  0  0  0  0  0  0  0  0
   -2.9500    0.6100    0.0000 C   0  0  0  0  0  0  0  0  0  0  0  0
   -1.6500   -1.6400    0.0000 C   0  0  0  0  0  0  0  0  0  0  0  0
   -1.6500    1.3600    0.0000 C   0  0  0  0  0  0  0  0  0  0  0  0
    0.9400   -1.6400    0.0000 C   0  0  0  0  0  0  0  0  0  0  0  0
    2.2400   -0.8900    0.0000 C   0  0  0  0  0  0  0  0  0  0  0  0
    0.9400    1.3600    0.0000 C   0  0  0  0  0  0  0  0  0  0  0  0
   -0.3500   -0.8900    0.0000 C   0  0  0  0  0  0  0  0  0  0  0  0
   -0.3500    0.6100    0.0000 C   0  0  0  0  0  0  0  0  0  0  0  0
    2.2400    0.6100    0.0000 C   0  0  0  0  0  0  0  0  0  0  0  0
    3.5389    1.3602    0.0000 C   0  0  0  0  0  0  0  0  0  0  0  0
    3.5387    2.8602    0.0000 O   0  0  0  0  0  0  0  0  0  0  0  0
    4.8381    0.6104    0.0000 O   0  0  0  0  0  0  0  0  0  0  0  0
    6.1370    1.3606    0.0000 Si  0  0  0  0  0  4  0  0  0  0  0  0
  5  4  2  0
  6  4  1  0
  7  5  1  0
  9  8  2  0
 11  6  2  0
 11  8  1  0
 12  7  2  0
 12 10  1  0
 12 11  1  0
 13  9  1  0
 13 10  2  0
 14 13  1  0
 15 14  2  0
 16 14  1  0
 17  1  1  0
 17  2  1  0
 17  3  1  0
 17 16  1  0
M  END
>  <NAME>  (5729) 
2-NAPHTHOIC ACID TRIMETHYLSILYL ESTER

>  <SYNONYMS>  (5729) 


>  <SPECTRUM TYPE>  (5729) 
MS1

>  <INSTRUMENT TYPE>  (5729) 
EI-B

>  <INSTRUMENT>  (5729) 
JEOL JMS-01-SG

>  <ION MODE>  (5729) 
P

>  <INCHIKEY>  (5729) 
LCECHEBBTQXPPG-UHFFFAOYSA-N

>  <FORMULA>  (5729) 
C14H16O2Si

>  <EXACT MASS>  (5729) 
244.091956282

>  <MW>  (5729) 
244

>  <ID>  (5729) 
JP000603

>  <CONTRIBUTOR>  (5729) 
University of Tokyo Team, {Faculty of Engineering, University of Tokyo

>  <COMMENT>  (5729) 
SMILES=O=C(O[Si](C)(C)C)c(c1)cc(c2)c(ccc2)c1
InChI=InChI=1S/C14H16O2Si/c1-17(2,3)16-14(15)13-9-8-11-6-4-5-7-12(11)10-13/h4-10H,1-3H3
computed SMILES=O=C(O[Si](C)(C)C)C=1C=CC=2C=CC=CC2C1
accession=JP000603
date=2016.01.19 (Created 2008.10.21, modified 2011.05.06)
author=KOGA M, UNIV. OF OCCUPATIONAL AND ENVIRONMENTAL HEALTH
license=CC BY-NC-SA
exact mass=244.09196
ionization energy=70 eV
ion type=[M]+*
computed spectral entropy=2.4567072680732975
computed normalized entropy=0.7540314534587617
SPLASH=splash10-004i-2930000000-2721426b7bb4347e7943
submitter=submitter = University of Tokyo Team (Faculty of Engineering, University of Tokyo)
MoNA Rating=3.75

>  <NUM PEAKS>  (5729) 
26

>  <MASS SPECTRAL PEAKS>  (5729) 
44 8.4
45 12.5
47 4.3
51 0.5
63 6.9
64 5.3
73 7.7
74 0.48
75 11.2
76 5.9
77 16.6
101 0.77
115 12.3
126 18.8
127 99.99
128 0.97
155 92
156 12.1
185 88.9
186 1.42
187 4.7
229 76.5
230 15
231 0.42
244 22.3
245 4.3

>  <PREDICTED SPECTRUM>  (5729) 
15 43
27 63
28 19
29 87
38 17
39 19
41 1
43 93
44 89
45 143
46 29
47 144
49 23
50 97
51 96
57 6
58 88
59 76
60 48
61 16
62 49
63 133
64 105
65 32
68 4
73 266
74 119
75 393
76 186
77 310
82 6
89 99
92 66
96 22
98 18
100 36
101 149
102 41
110 28
114 68
115 220
125 33
126 461
127 926
128 241
129 9
142 57
154 34
155 999
156 378
157 108
158 1
170 6
171 15
185 946
186 374
187 258
188 12
201 9
215 7
229 981
230 392
231 187
232 58
243 62
244 520
245 199
246 64

$$$$

     RDKit          2D

 17 18  0  0  0  0  0  0  0  0999 V2000
    3.9790    4.9800    0.0000 C   0  0  0  0  0  0  0  0  0  0  0  0
    2.4790    6.4800    0.0000 C   0  0  0  0  0  0  0  0  0  0  0  0
    0.9790    4.9800    0.0000 C   0  0  0  0  0  0  0  0  0  0  0  0
   -2.7200   -1.0200    0.0000 C   0  0  0  0  0  0  0  0  0  0  0  0
   -2.7200    0.4800    0.0000 C   0  0  0  0  0  0  0  0  0  0  0  0
    2.4800   -1.0200    0.0000 C   0  0  0  0  0  0  0  0  0  0  0  0
   -1.4200   -1.7700    0.0000 C   0  0  0  0  0  0  0  0  0  0  0  0
    1.1800   -1.7700    0.0000 C   0  0  0  0  0  0  0  0  0  0  0  0
   -1.4200    1.2300    0.0000 C   0  0  0  0  0  0  0  0  0  0  0  0
    2.4800    0.4800    0.0000 C   0  0  0  0  0  0  0  0  0  0  0  0
   -0.1200   -1.0200    0.0000 C   0  0  0  0  0  0  0  0  0  0  0  0
   -0.1200    0.4800    0.0000 C   0  0  0  0  0  0  0  0  0  0  0  0
    1.1800    1.2300    0.0000 C   0  0  0  0  0  0  0  0  0  0  0  0
    1.1800    2.7300    0.0000 C   0  0  0  0  0  0  0  0  0  0  0  0
   -0.1190    3.4800    0.0000 O   0  0  0  0  0  0  0  0  0  0  0  0
    2.4790    3.4800    0.0000 O   0  0  0  0  0  0  0  0  0  0  0  0
    2.4790    4.9800    0.0000 Si  0  0  0  0  0  4  0  0  0  0  0  0
  5  4  2  0
  7  4  1  0
  8  6  2  0
  9  5  1  0
 10  6  1  0
 11  7  2  0
 11  8  1  0
 12  9  2  0
 12 11  1  0
 13 10  2  0
 13 12  1  0
 14 13  1  0
 15 14  2  0
 16 14  1  0
 17  1  1  0
 17  2  1  0
 17  3  1  0
 17 16  1  0
M  END
>  <NAME>  (5730) 
1-NAPHTHOIC ACID TRIMETHYLSILYL ESTER

>  <SYNONYMS>  (5730) 


>  <SPECTRUM TYPE>  (5730) 
MS1

>  <INSTRUMENT TYPE>  (5730) 
EI-B

>  <INSTRUMENT>  (5730) 
JEOL JMS-01-SG

>  <ION MODE>  (5730) 
P

>  <INCHIKEY>  (5730) 
UUTZVQNCBBAIBO-UHFFFAOYSA-N

>  <FORMULA>  (5730) 
C14H16O2Si

>  <EXACT MASS>  (5730) 
244.091956282

>  <MW>  (5730) 
244

>  <ID>  (5730) 
JP000602

>  <CONTRIBUTOR>  (5730) 
University of Tokyo Team, {Faculty of Engineering, University of Tokyo

>  <COMMENT>  (5730) 
SMILES=C[Si](C)(C)OC(=O)c(c1)c(c2)c(ccc2)cc1
InChI=InChI=1S/C14H16O2Si/c1-17(2,3)16-14(15)13-10-6-8-11-7-4-5-9-12(11)13/h4-10H,1-3H3
computed SMILES=O=C(O[Si](C)(C)C)C1=CC=CC=2C=CC=CC21
accession=JP000602
date=2016.01.19 (Created 2008.10.21, modified 2011.05.06)
author=KOGA M, UNIV. OF OCCUPATIONAL AND ENVIRONMENTAL HEALTH
license=CC BY-NC-SA
exact mass=244.09196
ionization energy=70 eV
ion type=[M]+*
computed spectral entropy=2.2746036011156963
computed normalized entropy=0.7471134299856097
SPLASH=splash10-004i-1920000000-8f23ce0d47513701c8a5
submitter=submitter = University of Tokyo Team (Faculty of Engineering, University of Tokyo)
MoNA Rating=3.75

>  <NUM PEAKS>  (5730) 
21

>  <MASS SPECTRAL PEAKS>  (5730) 
45 13.3
63 6.4
73 10.2
74 0.51
75 12.1
76 5.2
77 12
101 0.71
114 12.5
126 16.4
127 99.6
128 1.11
155 99.99
156 11.7
185 73.2
186 1.37
187 4.4
229 69.7
230 12.8
244 2.04
245 4.3

>  <PREDICTED SPECTRUM>  (5730) 
14 0
15 33
27 47
29 95
38 16
39 29
41 25
42 15
43 129
44 75
45 219
46 34
47 186
48 9
49 47
50 89
51 116
53 17
55 5
56 62
57 69
58 80
59 126
60 64
61 100
62 83
63 164
64 81
65 42
71 18
73 413
74 210
75 461
76 150
77 356
78 35
82 4
84 2
86 29
87 62
88 0
89 102
98 67
99 78
100 120
101 209
102 27
107 6
113 4
114 77
115 213
117 121
118 26
125 102
126 468
127 962
128 341
129 122
130 8
140 12
141 42
142 103
143 93
144 26
153 117
154 119
155 999
156 420
157 157
158 37
168 16
169 81
170 50
171 48
172 64
173 22
182 4
183 58
184 84
185 623
186 238
187 172
201 13
225 36
227 11
229 884
230 381
231 233
232 76
243 56
244 549
245 207
246 96

$$$$

     RDKit          2D

 34 34  0  0  0  0  0  0  0  0999 V2000
    5.9472    0.2017    0.0000 C   0  0  0  0  0  0  0  0  0  0  0  0
    6.4959    2.2508    0.0000 C   0  0  0  0  0  0  0  0  0  0  0  0
    4.4468    2.7995    0.0000 C   0  0  0  0  0  0  0  0  0  0  0  0
    3.1474   -5.0493    0.0000 C   0  0  0  0  0  0  0  0  0  0  0  0
    5.1965   -4.5006    0.0000 C   0  0  0  0  0  0  0  0  0  0  0  0
    4.6478   -2.4515    0.0000 C   0  0  0  0  0  0  0  0  0  0  0  0
   -4.4468    2.7995    0.0000 C   0  0  0  0  0  0  0  0  0  0  0  0
   -6.4959    2.2508    0.0000 C   0  0  0  0  0  0  0  0  0  0  0  0
   -5.9472    0.2017    0.0000 C   0  0  0  0  0  0  0  0  0  0  0  0
   -3.1474   -5.0493    0.0000 C   0  0  0  0  0  0  0  0  0  0  0  0
   -5.1965   -4.5006    0.0000 C   0  0  0  0  0  0  0  0  0  0  0  0
   -4.6478   -2.4515    0.0000 C   0  0  0  0  0  0  0  0  0  0  0  0
   -0.0000    1.5000    0.0000 C   0  0  0  0  0  0  0  0  0  0  0  0
   -0.0000   -1.5000    0.0000 C   0  0  0  0  0  0  0  0  0  0  0  0
    1.3000    0.7500    0.0000 C   0  0  0  0  0  0  0  0  0  0  0  0
    1.3000   -0.7500    0.0000 C   0  0  0  0  0  0  0  0  0  0  0  0
   -1.3000    0.7500    0.0000 C   0  0  0  0  0  0  0  0  0  0  0  0
   -1.3000   -0.7500    0.0000 C   0  0  0  0  0  0  0  0  0  0  0  0
    2.5989    1.5002    0.0000 C   0  0  0  0  0  0  0  0  0  0  0  0
    2.5989   -1.5002    0.0000 C   0  0  0  0  0  0  0  0  0  0  0  0
   -2.5989    1.5002    0.0000 C   0  0  0  0  0  0  0  0  0  0  0  0
   -2.5989   -1.5002    0.0000 C   0  0  0  0  0  0  0  0  0  0  0  0
    2.5987    3.0002    0.0000 O   0  0  0  0  0  0  0  0  0  0  0  0
    3.8981   -0.7504    0.0000 O   0  0  0  0  0  0  0  0  0  0  0  0
   -2.5987    3.0002    0.0000 O   0  0  0  0  0  0  0  0  0  0  0  0
   -3.8981   -0.7504    0.0000 O   0  0  0  0  0  0  0  0  0  0  0  0
    3.8981    0.7504    0.0000 O   0  0  0  0  0  0  0  0  0  0  0  0
    2.5987   -3.0002    0.0000 O   0  0  0  0  0  0  0  0  0  0  0  0
   -3.8981    0.7504    0.0000 O   0  0  0  0  0  0  0  0  0  0  0  0
   -2.5987   -3.0002    0.0000 O   0  0  0  0  0  0  0  0  0  0  0  0
    5.1970    1.5006    0.0000 Si  0  0  0  0  0  4  0  0  0  0  0  0
    3.8976   -3.7504    0.0000 Si  0  0  0  0  0  4  0  0  0  0  0  0
   -5.1970    1.5006    0.0000 Si  0  0  0  0  0  4  0  0  0  0  0  0
   -3.8976   -3.7504    0.0000 Si  0  0  0  0  0  4  0  0  0  0  0  0
 15 13  2  0
 16 14  2  0
 16 15  1  0
 17 13  1  0
 18 14  1  0
 18 17  2  0
 19 15  1  0
 20 16  1  0
 21 17  1  0
 22 18  1  0
 23 19  2  0
 24 20  2  0
 25 21  2  0
 26 22  2  0
 27 19  1  0
 28 20  1  0
 29 21  1  0
 30 22  1  0
 31  1  1  0
 31  2  1  0
 31  3  1  0
 31 27  1  0
 32  4  1  0
 32  5  1  0
 32  6  1  0
 32 28  1  0
 33  7  1  0
 33  8  1  0
 33  9  1  0
 33 29  1  0
 34 10  1  0
 34 11  1  0
 34 12  1  0
 34 30  1  0
M  END
>  <NAME>  (5731) 
BENZENE-1,2,4,5-TETRACARBOXYLIC ACID TETRA(TRIMETHYLSILYL) ESTER

>  <SYNONYMS>  (5731) 


>  <SPECTRUM TYPE>  (5731) 
MS1

>  <INSTRUMENT TYPE>  (5731) 
EI-B

>  <INSTRUMENT>  (5731) 
JEOL JMS-01-SG

>  <ION MODE>  (5731) 
P

>  <INCHIKEY>  (5731) 
BKFGZLAJFGESBT-UHFFFAOYSA-N

>  <FORMULA>  (5731) 
C22H38O8Si4

>  <EXACT MASS>  (5731) 
542.164374296

>  <MW>  (5731) 
542

>  <ID>  (5731) 
JP000601

>  <CONTRIBUTOR>  (5731) 
University of Tokyo Team, {Faculty of Engineering, University of Tokyo

>  <COMMENT>  (5731) 
SMILES=C[Si](C)(C)OC(=O)c(c1)c(C(=O)O[Si](C)(C)C)cc(C(=O)O[Si](C)(C)C)c(C(=O)O[Si](C)(C)C)1
InChI=InChI=1S/C22H38O8Si4/c1-31(2,3)27-19(23)15-13-17(21(25)29-33(7,8)9)18(22(26)30-34(10,11)12)14-16(15)20(24)28-32(4,5)6/h13-14H,1-12H3
computed SMILES=O=C(O[Si](C)(C)C)C=1C=C(C(=O)O[Si](C)(C)C)C(=CC1C(=O)O[Si](C)(C)C)C(=O)O[Si](C)(C)C
author=KOGA M, UNIV. OF OCCUPATIONAL AND ENVIRONMENTAL HEALTH
license=CC BY-NC-SA
accession=JP000601
date=2016.01.19 (Created 2008.10.21, modified 2011.05.06)
exact mass=542.16437
ionization energy=70 eV
ion type=[M]+*
computed spectral entropy=1.906038416426439
computed normalized entropy=0.6874580427805691
SPLASH=splash10-00dj-9500000000-2489dd5266ca8544d09a
submitter=submitter = University of Tokyo Team (Faculty of Engineering, University of Tokyo)
MoNA Rating=3.75

>  <NUM PEAKS>  (5731) 
16

>  <MASS SPECTRAL PEAKS>  (5731) 
54 4.1
66 4.8
72 4.1
73 99.99
74 10.2
75 19.3
77 18.8
89 0.68
93 7.5
131 5.7
147 89.9
148 1.36
149 7.8
221 4.3
291 4.1
527 5.5

>  <PREDICTED SPECTRUM>  (5731) 
14 4
15 46
29 5
30 17
41 60
43 159
44 125
45 380
46 89
47 113
52 32
53 35
55 84
56 34
57 21
58 11
59 183
60 31
61 60
62 21
63 42
65 12
66 16
67 31
68 7
69 83
70 5
71 51
72 78
73 999
74 412
75 472
76 123
77 155
79 16
81 54
82 41
83 75
84 3
85 29
86 35
87 27
89 11
90 4
91 23
93 8
95 28
96 10
97 79
98 75
103 54
107 12
109 82
111 81
112 48
113 40
115 44
119 31
125 30
126 9
127 87
129 33
131 60
133 256
134 7
135 64
139 40
143 58
144 43
145 29
147 869
148 326
149 214
150 21
151 7
152 22
155 86
156 54
157 112
158 38
159 0
165 8
171 56
172 100
177 30
179 36
181 3
183 54
185 4
191 53
192 13
194 30
195 9
199 9
205 53
207 138
208 4
209 139
215 29
217 67
219 112
220 0
221 373
222 144
226 14
229 45
231 19
232 18
233 64
234 38
235 71
236 47
243 55
245 66
246 35
247 62
249 31
253 7
255 39
257 33
258 49
259 46
260 75
261 121
262 74
263 143
264 15
265 68
269 33
273 91
274 21
280 6
281 72
282 30
283 18
285 30
289 62
291 74
293 71
294 5
297 12
299 21
303 10
305 69
306 21
307 74
308 120
309 116
310 26
313 79
315 4
321 146
322 20
323 2
325 14
331 20
333 35
334 64
335 236
336 143
337 168
338 44
339 75
341 15
343 15
345 47
349 43
352 3
353 63
362 8
363 64
365 252
366 192
367 141
368 55
378 2
379 0
380 105
381 61
393 11
394 7
395 89
396 40
399 15
400 93
409 255
410 129
411 5
412 28
424 56
425 275
426 152
427 75
437 172
438 73
439 316
440 272
441 168
442 14
451 10
452 46
453 162
454 42
455 82
457 35
483 55
485 70
499 93
527 297
528 144
529 83
530 136
531 89
542 71
543 14
544 9

$$$$

     RDKit          2D

 27 27  0  0  0  0  0  0  0  0999 V2000
   -4.0346    3.7869    0.0000 C   0  0  0  0  0  0  0  0  0  0  0  0
   -6.0836    3.2378    0.0000 C   0  0  0  0  0  0  0  0  0  0  0  0
   -5.5346    1.1888    0.0000 C   0  0  0  0  0  0  0  0  0  0  0  0
    6.3581    1.1889    0.0000 C   0  0  0  0  0  0  0  0  0  0  0  0
    6.9075    3.2378    0.0000 C   0  0  0  0  0  0  0  0  0  0  0  0
    4.8585    3.7872    0.0000 C   0  0  0  0  0  0  0  0  0  0  0  0
   -2.3874   -4.2635    0.0000 C   0  0  0  0  0  0  0  0  0  0  0  0
   -0.8871   -5.7632    0.0000 C   0  0  0  0  0  0  0  0  0  0  0  0
    0.6126   -4.2630    0.0000 C   0  0  0  0  0  0  0  0  0  0  0  0
    0.4120    2.4887    0.0000 C   0  0  0  0  0  0  0  0  0  0  0  0
   -0.8880    0.2370    0.0000 C   0  0  0  0  0  0  0  0  0  0  0  0
    1.7106    0.2378    0.0000 C   0  0  0  0  0  0  0  0  0  0  0  0
   -0.8875    1.7378    0.0000 C   0  0  0  0  0  0  0  0  0  0  0  0
    1.7111    1.7387    0.0000 C   0  0  0  0  0  0  0  0  0  0  0  0
    0.4111   -0.5130    0.0000 C   0  0  0  0  0  0  0  0  0  0  0  0
   -2.1865    2.4878    0.0000 C   0  0  0  0  0  0  0  0  0  0  0  0
    3.0102    2.4884    0.0000 C   0  0  0  0  0  0  0  0  0  0  0  0
    0.4113   -2.0130    0.0000 C   0  0  0  0  0  0  0  0  0  0  0  0
   -2.1865    3.9878    0.0000 O   0  0  0  0  0  0  0  0  0  0  0  0
    3.0105    3.9884    0.0000 O   0  0  0  0  0  0  0  0  0  0  0  0
    1.7105   -2.7628    0.0000 O   0  0  0  0  0  0  0  0  0  0  0  0
   -3.4856    1.7378    0.0000 O   0  0  0  0  0  0  0  0  0  0  0  0
    4.3092    1.7382    0.0000 O   0  0  0  0  0  0  0  0  0  0  0  0
   -0.8876   -2.7632    0.0000 O   0  0  0  0  0  0  0  0  0  0  0  0
   -4.7846    2.4878    0.0000 Si  0  0  0  0  0  4  0  0  0  0  0  0
    5.6083    2.4880    0.0000 Si  0  0  0  0  0  4  0  0  0  0  0  0
   -0.8874   -4.2632    0.0000 Si  0  0  0  0  0  4  0  0  0  0  0  0
 13 10  2  0
 13 11  1  0
 14 10  1  0
 14 12  2  0
 15 11  2  0
 15 12  1  0
 16 13  1  0
 17 14  1  0
 18 15  1  0
 19 16  2  0
 20 17  2  0
 21 18  2  0
 22 16  1  0
 23 17  1  0
 24 18  1  0
 25  1  1  0
 25  2  1  0
 25  3  1  0
 25 22  1  0
 26  4  1  0
 26  5  1  0
 26  6  1  0
 26 23  1  0
 27  7  1  0
 27  8  1  0
 27  9  1  0
 27 24  1  0
M  END
>  <NAME>  (5732) 
1,3,5-BENZENETRICARBOXYLIC ACID TRI(TRIMETHYLSILYL) ESTER

>  <SYNONYMS>  (5732) 


>  <SPECTRUM TYPE>  (5732) 
MS1

>  <INSTRUMENT TYPE>  (5732) 
EI-B

>  <INSTRUMENT>  (5732) 
JEOL JMS-01-SG

>  <ION MODE>  (5732) 
P

>  <INCHIKEY>  (5732) 
NIFKKMJOBRRANX-UHFFFAOYSA-N

>  <FORMULA>  (5732) 
C18H30O6Si3

>  <EXACT MASS>  (5732) 
426.13501827

>  <MW>  (5732) 
426

>  <ID>  (5732) 
JP000600

>  <CONTRIBUTOR>  (5732) 
University of Tokyo Team, {Faculty of Engineering, University of Tokyo

>  <COMMENT>  (5732) 
SMILES=C[Si](C)(C)OC(=O)c(c1)cc(cc1C(=O)O[Si](C)(C)C)C(=O)O[Si](C)(C)C
InChI=InChI=1S/C18H30O6Si3/c1-25(2,3)22-16(19)13-10-14(17(20)23-26(4,5)6)12-15(11-13)18(21)24-27(7,8)9/h10-12H,1-9H3
computed SMILES=O=C(O[Si](C)(C)C)C=1C=C(C=C(C1)C(=O)O[Si](C)(C)C)C(=O)O[Si](C)(C)C
accession=JP000600
date=2016.01.19 (Created 2008.10.21, modified 2011.05.06)
author=KOGA M, UNIV. OF OCCUPATIONAL AND ENVIRONMENTAL HEALTH
license=CC BY-NC-SA
exact mass=426.13502
ionization energy=70 eV
ion type=[M]+*
computed spectral entropy=2.163703650596513
computed normalized entropy=0.7348441132269786
SPLASH=splash10-004i-9000000000-bf4b1989ded36fc308a5
submitter=submitter = University of Tokyo Team (Faculty of Engineering, University of Tokyo)
MoNA Rating=3.75

>  <NUM PEAKS>  (5732) 
19

>  <MASS SPECTRAL PEAKS>  (5732) 
43 17.2
45 14.1
47 21.5
49 1.18
59 5.1
61 5.1
63 5.5
65 0.61
73 28.4
74 5.3
75 71.9
76 0.61
77 99.99
78 6.3
81 6.3
93 3.25
95 12
100 5.5
147 2.4

>  <PREDICTED SPECTRUM>  (5732) 
15 10
26 14
27 49
28 74
29 80
31 3
38 0
41 9
43 156
44 82
45 293
46 63
47 89
50 51
51 51
52 36
53 38
55 88
56 46
57 50
58 81
59 225
61 109
62 20
63 56
64 30
65 16
66 4
69 42
71 8
72 9
73 999
74 399
75 466
76 234
77 168
78 93
79 7
83 43
85 6
88 6
89 131
90 90
91 78
93 58
101 19
102 21
103 276
104 197
105 91
106 21
112 18
115 15
116 88
117 122
118 59
119 168
120 55
121 62
129 27
130 9
131 135
132 89
133 345
134 166
135 67
136 30
137 51
139 56
144 53
145 43
146 80
147 584
148 354
149 193
150 170
151 16
153 29
157 28
159 22
161 38
162 7
163 22
164 92
165 111
166 41
167 51
172 6
175 54
176 45
177 159
178 211
179 31
181 30
183 59
189 62
190 136
191 253
192 194
193 123
197 24
203 1
204 127
205 170
206 116
207 97
208 38
209 81
218 93
219 235
220 247
221 378
222 229
223 206
224 32
233 82
234 216
235 226
236 162
237 59
247 35
249 321
250 332
251 197
252 96
263 176
264 98
265 177
266 16
267 14
268 77
269 28
277 26
278 88
279 200
280 112
281 26
291 66
292 126
293 281
294 265
295 56
296 110
307 114
308 87
309 206
310 104
323 331
324 318
325 266
337 372
338 175
339 154
367 513
368 156
369 49
381 71
382 56
383 141
384 42
395 141
396 39
397 175
398 169
399 114
411 740
412 733
413 525
414 291
415 121
425 213
426 495
427 184
428 155
429 82

$$$$

     RDKit          2D

 27 27  0  0  0  0  0  0  0  0999 V2000
   -2.4107   -0.0769    0.0000 C   0  0  0  0  0  0  0  0  0  0  0  0
   -4.4597   -0.6263    0.0000 C   0  0  0  0  0  0  0  0  0  0  0  0
   -3.9103   -2.6752    0.0000 C   0  0  0  0  0  0  0  0  0  0  0  0
    7.9824   -2.6753    0.0000 C   0  0  0  0  0  0  0  0  0  0  0  0
    8.5314   -0.6263    0.0000 C   0  0  0  0  0  0  0  0  0  0  0  0
    6.4824   -0.0773    0.0000 C   0  0  0  0  0  0  0  0  0  0  0  0
    2.2373    2.3745    0.0000 C   0  0  0  0  0  0  0  0  0  0  0  0
    0.7376    3.8747    0.0000 C   0  0  0  0  0  0  0  0  0  0  0  0
   -0.7627    2.3750    0.0000 C   0  0  0  0  0  0  0  0  0  0  0  0
    2.0367   -4.3771    0.0000 C   0  0  0  0  0  0  0  0  0  0  0  0
    0.7372   -3.6263    0.0000 C   0  0  0  0  0  0  0  0  0  0  0  0
    3.3358   -3.6271    0.0000 C   0  0  0  0  0  0  0  0  0  0  0  0
    0.7367   -2.1255    0.0000 C   0  0  0  0  0  0  0  0  0  0  0  0
    3.3353   -2.1263    0.0000 C   0  0  0  0  0  0  0  0  0  0  0  0
    2.0358   -1.3755    0.0000 C   0  0  0  0  0  0  0  0  0  0  0  0
   -0.5624   -1.3757    0.0000 C   0  0  0  0  0  0  0  0  0  0  0  0
    4.6343   -1.3763    0.0000 C   0  0  0  0  0  0  0  0  0  0  0  0
    2.0360    0.1245    0.0000 C   0  0  0  0  0  0  0  0  0  0  0  0
   -0.5627    0.1243    0.0000 O   0  0  0  0  0  0  0  0  0  0  0  0
    4.6343    0.1237    0.0000 O   0  0  0  0  0  0  0  0  0  0  0  0
    3.3352    0.8743    0.0000 O   0  0  0  0  0  0  0  0  0  0  0  0
   -1.8613   -2.1259    0.0000 O   0  0  0  0  0  0  0  0  0  0  0  0
    5.9334   -2.1263    0.0000 O   0  0  0  0  0  0  0  0  0  0  0  0
    0.7371    0.8747    0.0000 O   0  0  0  0  0  0  0  0  0  0  0  0
   -3.1605   -1.3761    0.0000 Si  0  0  0  0  0  4  0  0  0  0  0  0
    7.2324   -1.3763    0.0000 Si  0  0  0  0  0  4  0  0  0  0  0  0
    0.7373    2.3747    0.0000 Si  0  0  0  0  0  4  0  0  0  0  0  0
 11 10  2  0
 12 10  1  0
 13 11  1  0
 14 12  2  0
 15 13  2  0
 15 14  1  0
 16 13  1  0
 17 14  1  0
 18 15  1  0
 19 16  2  0
 20 17  2  0
 21 18  2  0
 22 16  1  0
 23 17  1  0
 24 18  1  0
 25  1  1  0
 25  2  1  0
 25  3  1  0
 25 22  1  0
 26  4  1  0
 26  5  1  0
 26  6  1  0
 26 23  1  0
 27  7  1  0
 27  8  1  0
 27  9  1  0
 27 24  1  0
M  END
>  <NAME>  (5733) 
1,2,3-BENZENETRICARBOXYLIC ACID TRI(TRIMETHYLSILYL) ESTER

>  <SYNONYMS>  (5733) 


>  <SPECTRUM TYPE>  (5733) 
MS1

>  <INSTRUMENT TYPE>  (5733) 
EI-B

>  <INSTRUMENT>  (5733) 
JEOL JMS-01-SG

>  <ION MODE>  (5733) 
P

>  <INCHIKEY>  (5733) 
MCOGBFHSUQCHJJ-UHFFFAOYSA-N

>  <FORMULA>  (5733) 
C18H30O6Si3

>  <EXACT MASS>  (5733) 
426.13501827

>  <MW>  (5733) 
426

>  <ID>  (5733) 
JP000599

>  <CONTRIBUTOR>  (5733) 
University of Tokyo Team, {Faculty of Engineering, University of Tokyo

>  <COMMENT>  (5733) 
SMILES=C[Si](C)(C)OC(=O)c(c1)c(C(=O)O[Si](C)(C)C)c(cc1)C(=O)O[Si](C)(C)C
InChI=InChI=1S/C18H30O6Si3/c1-25(2,3)22-16(19)13-11-10-12-14(17(20)23-26(4,5)6)15(13)18(21)24-27(7,8)9/h10-12H,1-9H3
computed SMILES=O=C(O[Si](C)(C)C)C1=CC=CC(C(=O)O[Si](C)(C)C)=C1C(=O)O[Si](C)(C)C
accession=JP000599
date=2016.01.19 (Created 2008.10.21, modified 2011.05.06)
author=KOGA M, UNIV. OF OCCUPATIONAL AND ENVIRONMENTAL HEALTH
license=CC BY-NC-SA
exact mass=426.13502
ionization energy=70 eV
ion type=[M]+*
computed spectral entropy=2.2670480655549787
computed normalized entropy=0.8371514178844477
SPLASH=splash10-004m-9000000000-269c457c4020cfa02b7f
submitter=submitter = University of Tokyo Team (Faculty of Engineering, University of Tokyo)
MoNA Rating=3.75

>  <NUM PEAKS>  (5733) 
15

>  <MASS SPECTRAL PEAKS>  (5733) 
43 22.4
45 8.5
47 24.7
49 1.28
63 12.6
65 17.9
73 43.1
75 9.14
76 13.3
77 99.99
93 75
94 0.88
95 27.2
147 12.1
249 17.6

>  <PREDICTED SPECTRUM>  (5733) 
15 12
29 20
37 5
38 5
39 32
41 21
43 185
44 120
45 417
46 117
47 147
49 40
50 49
51 52
52 20
53 51
55 107
56 38
57 53
58 12
59 180
60 46
61 128
62 44
63 74
64 34
65 63
66 31
67 48
69 80
70 5
71 77
72 91
73 999
74 360
75 427
76 158
77 234
78 79
79 90
81 42
82 17
83 73
84 14
85 97
86 13
87 51
89 111
90 63
91 79
92 65
93 147
95 88
97 49
98 15
99 70
101 8
102 20
103 179
104 40
105 133
106 25
107 101
109 54
111 53
113 55
115 59
116 22
117 95
118 58
119 146
120 58
121 53
126 10
127 59
129 64
131 164
132 34
133 267
134 112
135 155
136 32
137 25
139 3
141 23
143 43
144 25
145 133
146 103
147 935
148 421
149 374
150 221
151 100
152 96
153 5
155 27
157 112
158 37
159 84
160 2
161 65
162 16
163 61
164 57
165 112
167 26
169 28
171 9
172 51
173 100
174 10
175 168
176 45
177 189
178 140
179 95
181 88
182 0
183 70
189 117
190 88
191 205
192 151
193 314
194 164
195 87
196 16
197 53
203 81
204 16
205 141
206 69
207 253
208 73
209 107
210 25
211 24
217 50
218 80
219 269
220 214
221 546
222 293
223 88
224 79
225 71
227 31
233 12
234 113
235 172
236 55
237 92
238 45
239 49
245 1
246 8
247 80
248 49
249 279
250 188
251 152
256 14
263 66
264 51
265 74
267 12
279 156
280 24
281 11
284 15
292 19
293 235
294 175
295 75
296 29
308 41
309 232
310 169
311 101
321 223
322 116
323 257
324 204
325 175
326 47
336 44
337 163
338 97
339 104
340 1
341 31
353 13
354 9
366 24
367 58
369 10
381 18
395 109
397 26
411 496
412 532
413 249
414 180
415 64
426 169
427 90

$$$$

     RDKit          2D

 20 20  0  0  0  0  0  0  0  0999 V2000
   -5.9472   -0.2017    0.0000 C   0  0  0  0  0  0  0  0  0  0  0  0
   -6.4959   -2.2508    0.0000 C   0  0  0  0  0  0  0  0  0  0  0  0
   -4.4468   -2.7995    0.0000 C   0  0  0  0  0  0  0  0  0  0  0  0
    5.9472    0.2017    0.0000 C   0  0  0  0  0  0  0  0  0  0  0  0
    6.4959    2.2508    0.0000 C   0  0  0  0  0  0  0  0  0  0  0  0
    4.4468    2.7995    0.0000 C   0  0  0  0  0  0  0  0  0  0  0  0
   -1.3000    0.7500    0.0000 C   0  0  0  0  0  0  0  0  0  0  0  0
   -0.0000   -1.5000    0.0000 C   0  0  0  0  0  0  0  0  0  0  0  0
    0.0000    1.5000    0.0000 C   0  0  0  0  0  0  0  0  0  0  0  0
    1.3000   -0.7500    0.0000 C   0  0  0  0  0  0  0  0  0  0  0  0
   -1.3000   -0.7500    0.0000 C   0  0  0  0  0  0  0  0  0  0  0  0
    1.3000    0.7500    0.0000 C   0  0  0  0  0  0  0  0  0  0  0  0
   -2.5989   -1.5002    0.0000 C   0  0  0  0  0  0  0  0  0  0  0  0
    2.5989    1.5002    0.0000 C   0  0  0  0  0  0  0  0  0  0  0  0
   -2.5987   -3.0002    0.0000 O   0  0  0  0  0  0  0  0  0  0  0  0
    2.5987    3.0002    0.0000 O   0  0  0  0  0  0  0  0  0  0  0  0
   -3.8981   -0.7504    0.0000 O   0  0  0  0  0  0  0  0  0  0  0  0
    3.8981    0.7504    0.0000 O   0  0  0  0  0  0  0  0  0  0  0  0
   -5.1970   -1.5006    0.0000 Si  0  0  0  0  0  4  0  0  0  0  0  0
    5.1970    1.5006    0.0000 Si  0  0  0  0  0  4  0  0  0  0  0  0
  9  7  2  0
 10  8  1  0
 11  7  1  0
 11  8  2  0
 12  9  1  0
 12 10  2  0
 13 11  1  0
 14 12  1  0
 15 13  2  0
 16 14  2  0
 17 13  1  0
 18 14  1  0
 19  1  1  0
 19  2  1  0
 19  3  1  0
 19 17  1  0
 20  4  1  0
 20  5  1  0
 20  6  1  0
 20 18  1  0
M  END
>  <NAME>  (5734) 
TEREPHTHALIC ACID BIS(TRIMETHYLSILYL) ESTER

>  <SYNONYMS>  (5734) 


>  <SPECTRUM TYPE>  (5734) 
MS1

>  <INSTRUMENT TYPE>  (5734) 
EI-B

>  <INSTRUMENT>  (5734) 
JEOL JMS-01-SG

>  <ION MODE>  (5734) 
P

>  <INCHIKEY>  (5734) 
XNDCJULFVFHXBR-UHFFFAOYSA-N

>  <FORMULA>  (5734) 
C14H22O4Si2

>  <EXACT MASS>  (5734) 
310.105662244

>  <MW>  (5734) 
310

>  <ID>  (5734) 
JP000598

>  <CONTRIBUTOR>  (5734) 
University of Tokyo Team, {Faculty of Engineering, University of Tokyo

>  <COMMENT>  (5734) 
SMILES=O=C(O[Si](C)(C)C)c(c1)ccc(c1)C(=O)O[Si](C)(C)C
InChI=InChI=1S/C14H22O4Si2/c1-19(2,3)17-13(15)11-7-9-12(10-8-11)14(16)18-20(4,5)6/h7-10H,1-6H3
computed SMILES=O=C(O[Si](C)(C)C)C1=CC=C(C=C1)C(=O)O[Si](C)(C)C
accession=JP000598
date=2016.01.19 (Created 2008.10.21, modified 2011.05.06)
author=KOGA M, UNIV. OF OCCUPATIONAL AND ENVIRONMENTAL HEALTH
license=CC BY-NC-SA
exact mass=310.10566
ionization energy=70 eV
ion type=[M]+*
computed spectral entropy=2.423609324533169
computed normalized entropy=0.838511280741706
SPLASH=splash10-004j-9130000000-a708c8ed2ca54752a6cb
submitter=submitter = University of Tokyo Team (Faculty of Engineering, University of Tokyo)
MoNA Rating=3.75

>  <NUM PEAKS>  (5734) 
18

>  <MASS SPECTRAL PEAKS>  (5734) 
43 11.8
47 11.1
49 8.6
63 0.99
65 11.1
73 36
75 36.6
76 1.61
77 99.99
78 19.2
93 38.5
95 1.42
103 34.1
104 10.5
221 25.4
251 1.8
295 64.5
296 16.7

>  <PREDICTED SPECTRUM>  (5734) 
15 5
27 10
28 15
29 45
31 1
41 18
42 25
43 141
44 81
45 218
46 60
47 126
48 8
49 22
50 63
51 50
52 1
53 30
54 8
55 58
56 52
57 52
58 60
59 146
60 28
61 78
62 23
63 53
64 40
65 72
66 1
67 14
71 6
72 52
73 590
74 184
75 289
76 184
77 214
78 78
79 78
81 23
82 8
83 16
87 6
89 143
90 113
91 156
92 98
93 46
95 17
96 24
102 63
103 228
104 286
105 221
106 66
107 51
109 20
110 14
117 83
118 156
119 172
120 127
121 89
122 34
123 55
131 88
132 91
133 206
134 141
135 202
136 45
137 46
140 6
145 30
146 1
147 197
148 98
149 269
150 200
151 51
152 30
161 9
162 43
163 145
164 45
165 51
175 24
176 68
177 130
178 252
179 99
180 8
191 0
192 37
193 216
194 47
205 34
206 23
207 44
208 23
209 24
221 541
222 225
223 187
224 14
225 8
236 17
237 95
238 31
239 8
251 554
252 212
253 102
265 24
279 118
281 44
295 999
296 471
297 333
298 130
309 59
310 241
311 101
312 79
313 38

$$$$

     RDKit          2D

 20 20  0  0  0  0  0  0  0  0999 V2000
   -0.1353    4.6903    0.0000 C   0  0  0  0  0  0  0  0  0  0  0  0
   -1.6378    6.1878    0.0000 C   0  0  0  0  0  0  0  0  0  0  0  0
   -3.1353    4.6853    0.0000 C   0  0  0  0  0  0  0  0  0  0  0  0
    5.6172   -0.3583    0.0000 C   0  0  0  0  0  0  0  0  0  0  0  0
    6.1659    1.6908    0.0000 C   0  0  0  0  0  0  0  0  0  0  0  0
    4.1168    2.2395    0.0000 C   0  0  0  0  0  0  0  0  0  0  0  0
   -1.6200   -1.3100    0.0000 C   0  0  0  0  0  0  0  0  0  0  0  0
   -0.3300   -2.0600    0.0000 C   0  0  0  0  0  0  0  0  0  0  0  0
   -1.6200    0.1900    0.0000 C   0  0  0  0  0  0  0  0  0  0  0  0
    0.9700   -1.3100    0.0000 C   0  0  0  0  0  0  0  0  0  0  0  0
   -0.3300    0.9400    0.0000 C   0  0  0  0  0  0  0  0  0  0  0  0
    0.9700    0.1900    0.0000 C   0  0  0  0  0  0  0  0  0  0  0  0
   -0.3325    2.4400    0.0000 C   0  0  0  0  0  0  0  0  0  0  0  0
    2.2689    0.9402    0.0000 C   0  0  0  0  0  0  0  0  0  0  0  0
    0.9653    3.1922    0.0000 O   0  0  0  0  0  0  0  0  0  0  0  0
    2.2687    2.4402    0.0000 O   0  0  0  0  0  0  0  0  0  0  0  0
   -1.6328    3.1878    0.0000 O   0  0  0  0  0  0  0  0  0  0  0  0
    3.5681    0.1904    0.0000 O   0  0  0  0  0  0  0  0  0  0  0  0
   -1.6353    4.6878    0.0000 Si  0  0  0  0  0  4  0  0  0  0  0  0
    4.8670    0.9406    0.0000 Si  0  0  0  0  0  4  0  0  0  0  0  0
  8  7  2  0
  9  7  1  0
 10  8  1  0
 11  9  2  0
 12 10  2  0
 12 11  1  0
 13 11  1  0
 14 12  1  0
 15 13  2  0
 16 14  2  0
 17 13  1  0
 18 14  1  0
 19  1  1  0
 19  2  1  0
 19  3  1  0
 19 17  1  0
 20  4  1  0
 20  5  1  0
 20  6  1  0
 20 18  1  0
M  END
>  <NAME>  (5735) 
ORTHO-PHTHALIC ACID BIS(TRIMETHYLSILYL) ESTER

>  <SYNONYMS>  (5735) 


>  <SPECTRUM TYPE>  (5735) 
MS1

>  <INSTRUMENT TYPE>  (5735) 
EI-B

>  <INSTRUMENT>  (5735) 
JEOL JMS-01-SG

>  <ION MODE>  (5735) 
P

>  <INCHIKEY>  (5735) 
JUZOFKLPPHUUMC-UHFFFAOYSA-N

>  <FORMULA>  (5735) 
C14H22O4Si2

>  <EXACT MASS>  (5735) 
310.105662244

>  <MW>  (5735) 
310

>  <ID>  (5735) 
JP000597

>  <CONTRIBUTOR>  (5735) 
University of Tokyo Team, {Faculty of Engineering, University of Tokyo

>  <COMMENT>  (5735) 
SMILES=C[Si](C)(C)OC(=O)c(c1)c(ccc1)C(=O)O[Si](C)(C)C
InChI=InChI=1S/C14H22O4Si2/c1-19(2,3)17-13(15)11-9-7-8-10-12(11)14(16)18-20(4,5)6/h7-10H,1-6H3
computed SMILES=O=C(O[Si](C)(C)C)C=1C=CC=CC1C(=O)O[Si](C)(C)C
accession=JP000597
date=2016.01.19 (Created 2008.10.21, modified 2011.05.06)
author=KOGA M, UNIV. OF OCCUPATIONAL AND ENVIRONMENTAL HEALTH
license=CC BY-NC-SA
exact mass=310.10566
ionization energy=70 eV
ion type=[M]+*
computed spectral entropy=2.2239770492471176
computed normalized entropy=0.7694432535093338
SPLASH=splash10-004i-9000000000-3feb64209e817aaae155
submitter=submitter = University of Tokyo Team (Faculty of Engineering, University of Tokyo)
MoNA Rating=3.75

>  <NUM PEAKS>  (5735) 
18

>  <MASS SPECTRAL PEAKS>  (5735) 
43 11.1
47 11.6
49 20.3
63 0.65
65 8.1
73 30.4
75 9.1
76 1.16
77 99.99
78 7.6
79 14.2
93 3.6
94 6
95 12.6
221 5.5
279 5.5
295 2.43
296 6

>  <PREDICTED SPECTRUM>  (5735) 
14 1
15 86
18 0
29 112
30 0
31 32
37 18
38 34
39 112
40 32
41 83
42 66
43 212
44 197
45 446
46 168
47 250
48 1
49 82
50 138
51 125
52 53
53 77
55 104
56 36
57 150
58 187
59 168
60 78
61 197
62 85
63 153
64 62
65 169
66 87
67 71
69 27
71 79
72 114
73 930
74 346
75 639
76 288
77 285
78 108
79 105
81 93
82 40
83 49
84 5
85 21
87 27
88 18
89 216
90 136
91 232
92 45
93 159
94 27
95 86
96 30
97 11
99 33
101 34
102 22
103 248
104 195
105 251
106 96
107 47
109 23
111 13
115 97
116 6
117 91
118 33
119 316
120 126
121 75
122 68
125 0
129 12
130 57
131 240
132 49
133 279
134 129
135 238
136 42
147 976
148 379
149 601
150 223
151 181
161 40
162 1
163 323
164 98
165 58
166 40
167 52
168 55
176 47
177 130
178 162
179 149
180 87
192 88
193 312
194 119
195 16
196 30
205 169
206 91
207 138
208 42
219 19
220 264
221 999
222 526
223 854
224 403
225 155
226 70
234 15
235 31
237 37
238 43
251 7
265 99
279 72
283 4
293 8
295 637
296 275
297 206
298 36
309 60
310 141
311 49

$$$$

     RDKit          2D

 23 23  0  0  0  0  0  0  0  0999 V2000
    3.5304    3.3183    0.0000 C   0  0  0  0  0  0  0  0  0  0  0  0
    2.0313    4.8192    0.0000 C   0  0  0  0  0  0  0  0  0  0  0  0
    0.5304    3.3201    0.0000 C   0  0  0  0  0  0  0  0  0  0  0  0
   -2.6198   -2.1194    0.0000 C   0  0  0  0  0  0  0  0  0  0  0  0
   -3.1704   -4.1680    0.0000 C   0  0  0  0  0  0  0  0  0  0  0  0
   -1.1217   -4.7186    0.0000 C   0  0  0  0  0  0  0  0  0  0  0  0
    3.8768   -2.4695    0.0000 C   0  0  0  0  0  0  0  0  0  0  0  0
    5.9259   -1.9208    0.0000 C   0  0  0  0  0  0  0  0  0  0  0  0
    5.3772    0.1283    0.0000 C   0  0  0  0  0  0  0  0  0  0  0  0
   -1.9000    1.1000    0.0000 C   0  0  0  0  0  0  0  0  0  0  0  0
   -0.6000    1.8400    0.0000 C   0  0  0  0  0  0  0  0  0  0  0  0
   -1.9000   -0.4000    0.0000 C   0  0  0  0  0  0  0  0  0  0  0  0
    0.7300    1.0700    0.0000 C   0  0  0  0  0  0  0  0  0  0  0  0
   -0.5700   -1.1700    0.0000 C   0  0  0  0  0  0  0  0  0  0  0  0
    0.7300   -0.4200    0.0000 C   0  0  0  0  0  0  0  0  0  0  0  0
    2.0289   -1.1702    0.0000 C   0  0  0  0  0  0  0  0  0  0  0  0
    2.0287   -2.6702    0.0000 O   0  0  0  0  0  0  0  0  0  0  0  0
    2.0295    1.8192    0.0000 O   0  0  0  0  0  0  0  0  0  0  0  0
   -0.5711   -2.6700    0.0000 O   0  0  0  0  0  0  0  0  0  0  0  0
    3.3281   -0.4204    0.0000 O   0  0  0  0  0  0  0  0  0  0  0  0
    2.0304    3.3192    0.0000 Si  0  0  0  0  0  4  0  0  0  0  0  0
   -1.8707   -3.4190    0.0000 Si  0  0  0  0  0  4  0  0  0  0  0  0
    4.6270   -1.1706    0.0000 Si  0  0  0  0  0  4  0  0  0  0  0  0
 11 10  2  0
 12 10  1  0
 13 11  1  0
 14 12  2  0
 15 13  2  0
 15 14  1  0
 16 15  1  0
 17 16  2  0
 18 13  1  0
 19 14  1  0
 20 16  1  0
 21  1  1  0
 21  2  1  0
 21  3  1  0
 21 18  1  0
 22  4  1  0
 22  5  1  0
 22  6  1  0
 22 19  1  0
 23  7  1  0
 23  8  1  0
 23  9  1  0
 23 20  1  0
M  END
>  <NAME>  (5736) 
2,6-BIS(TRIMETHYLSILYLOXY)BENZOIC ACID TRIMETHYLSILYL ESTER

>  <SYNONYMS>  (5736) 


>  <SPECTRUM TYPE>  (5736) 
MS1

>  <INSTRUMENT TYPE>  (5736) 
EI-B

>  <INSTRUMENT>  (5736) 
JEOL JMS-01-SG

>  <ION MODE>  (5736) 
P

>  <INCHIKEY>  (5736) 
APVNJYLNHAHELF-UHFFFAOYSA-N

>  <FORMULA>  (5736) 
C16H30O4Si3

>  <EXACT MASS>  (5736) 
370.14518903

>  <MW>  (5736) 
370

>  <ID>  (5736) 
JP000596

>  <CONTRIBUTOR>  (5736) 
University of Tokyo Team, {Faculty of Engineering, University of Tokyo

>  <COMMENT>  (5736) 
SMILES=C[Si](C)(C)OC(=O)c(c1O[Si](C)(C)C)c(ccc1)O[Si](C)(C)C
InChI=InChI=1S/C16H30O4Si3/c1-21(2,3)18-13-11-10-12-14(19-22(4,5)6)15(13)16(17)20-23(7,8)9/h10-12H,1-9H3
computed SMILES=O=C(O[Si](C)(C)C)C=1C(O[Si](C)(C)C)=CC=CC1O[Si](C)(C)C
accession=JP000596
date=2016.01.19 (Created 2008.10.21, modified 2011.05.06)
author=KOGA M, UNIV. OF OCCUPATIONAL AND ENVIRONMENTAL HEALTH
license=CC BY-NC-SA
exact mass=370.14519
ionization energy=70 eV
ion type=[M]+*
computed spectral entropy=1.993414806041724
computed normalized entropy=0.755351080733187
SPLASH=splash10-00di-9012000000-2cba1c7d30947fa74a3b
submitter=submitter = University of Tokyo Team (Faculty of Engineering, University of Tokyo)
MoNA Rating=3.75

>  <NUM PEAKS>  (5736) 
14

>  <MASS SPECTRAL PEAKS>  (5736) 
45 38.9
47 6.8
73 99.99
74 0.97
75 19.1
77 13.4
133 6.8
147 1.65
149 7.1
249 10.2
265 12.3
267 1.6
355 44.9
356 5.8

>  <PREDICTED SPECTRUM>  (5736) 
29 52
43 54
44 42
45 220
46 56
47 79
55 36
57 30
59 46
61 24
63 14
65 32
67 9
69 0
71 6
73 679
74 171
75 212
76 20
77 40
78 7
79 17
81 29
83 9
85 37
89 58
90 25
91 77
92 12
93 57
95 32
99 13
101 22
103 17
104 3
105 58
106 0
107 42
109 21
111 14
115 58
116 2
117 39
118 4
119 62
120 38
121 43
123 16
131 72
133 80
134 8
135 81
136 25
137 21
143 35
145 4
147 214
148 112
149 134
150 14
151 64
152 15
155 9
161 63
162 32
163 50
164 6
165 77
166 16
167 3
171 15
174 0
177 41
178 17
179 61
180 13
181 40
182 8
187 7
189 15
190 13
191 68
192 31
193 99
194 12
195 33
203 13
205 75
206 4
207 65
208 56
209 65
211 1
219 52
221 0
222 10
223 101
224 30
225 4
235 10
236 40
237 70
238 30
239 5
240 13
249 28
251 11
252 15
253 18
254 11
263 49
264 9
265 83
266 48
267 119
268 74
269 24
279 25
280 34
281 112
282 73
283 109
284 41
285 6
298 35
321 30
339 18
355 999
356 603
357 398
358 183
359 62
370 52
371 28

$$$$

     RDKit          2D

 15 15  0  0  0  0  0  0  0  0999 V2000
    0.0000    3.0000    0.0000 C   0  0  0  0  0  0  0  0  0  0  0  0
    2.5989   -1.5002    0.0000 C   0  0  0  0  0  0  0  0  0  0  0  0
   -5.9472   -0.2017    0.0000 C   0  0  0  0  0  0  0  0  0  0  0  0
   -6.4959   -2.2508    0.0000 C   0  0  0  0  0  0  0  0  0  0  0  0
   -4.4468   -2.7995    0.0000 C   0  0  0  0  0  0  0  0  0  0  0  0
    1.3000    0.7500    0.0000 C   0  0  0  0  0  0  0  0  0  0  0  0
   -1.3000    0.7500    0.0000 C   0  0  0  0  0  0  0  0  0  0  0  0
    0.0000   -1.5000    0.0000 C   0  0  0  0  0  0  0  0  0  0  0  0
    0.0000    1.5000    0.0000 C   0  0  0  0  0  0  0  0  0  0  0  0
    1.3000   -0.7500    0.0000 C   0  0  0  0  0  0  0  0  0  0  0  0
   -1.3000   -0.7500    0.0000 C   0  0  0  0  0  0  0  0  0  0  0  0
   -2.5989   -1.5002    0.0000 C   0  0  0  0  0  0  0  0  0  0  0  0
   -2.5987   -3.0002    0.0000 O   0  0  0  0  0  0  0  0  0  0  0  0
   -3.8981   -0.7504    0.0000 O   0  0  0  0  0  0  0  0  0  0  0  0
   -5.1970   -1.5006    0.0000 Si  0  0  0  0  0  4  0  0  0  0  0  0
  9  1  1  0
  9  6  2  0
  9  7  1  0
 10  2  1  0
 10  6  1  0
 10  8  2  0
 11  7  2  0
 11  8  1  0
 12 11  1  0
 13 12  2  0
 14 12  1  0
 15  3  1  0
 15  4  1  0
 15  5  1  0
 15 14  1  0
M  END
>  <NAME>  (5737) 
3,5-DIMETHYLBENZOIC ACID TRIMETHYLSILYL ESTER

>  <SYNONYMS>  (5737) 


>  <SPECTRUM TYPE>  (5737) 
MS1

>  <INSTRUMENT TYPE>  (5737) 
EI-B

>  <INSTRUMENT>  (5737) 
JEOL JMS-01-SG

>  <ION MODE>  (5737) 
P

>  <INCHIKEY>  (5737) 
GBGATKYBYBVWNS-UHFFFAOYSA-N

>  <FORMULA>  (5737) 
C12H18O2Si

>  <EXACT MASS>  (5737) 
222.107606346

>  <MW>  (5737) 
222

>  <ID>  (5737) 
JP000594

>  <CONTRIBUTOR>  (5737) 
University of Tokyo Team, {Faculty of Engineering, University of Tokyo

>  <COMMENT>  (5737) 
SMILES=Cc(c1)cc(cc(C)1)C(=O)O[Si](C)(C)C
InChI=InChI=1S/C12H18O2Si/c1-9-6-10(2)8-11(7-9)12(13)14-15(3,4)5/h6-8H,1-5H3
computed SMILES=O=C(O[Si](C)(C)C)C=1C=C(C=C(C1)C)C
accession=JP000594
date=2016.01.19 (Created 2008.10.21, modified 2011.05.06)
author=KOGA M, UNIV. OF OCCUPATIONAL AND ENVIRONMENTAL HEALTH
license=CC BY-NC-SA
exact mass=222.10761
ionization energy=70 eV
ion type=[M]+*
computed spectral entropy=2.698580771444705
computed normalized entropy=0.8491299756081394
SPLASH=splash10-06us-8940000000-88ac9f828d0097d2b069
submitter=submitter = University of Tokyo Team (Faculty of Engineering, University of Tokyo)
MoNA Rating=3.75

>  <NUM PEAKS>  (5737) 
24

>  <MASS SPECTRAL PEAKS>  (5737) 
44 36.2
45 31.3
47 13.5
58 1.18
63 11.3
65 11.8
73 12.4
75 1.24
77 38.9
78 15.6
79 43.7
81 1.29
96 19.4
103 22.1
104 12.4
105 6.1
133 99.99
134 12.9
163 96.2
164 1.45
207 75.1
208 21
209 11.8
222 11.8

>  <PREDICTED SPECTRUM>  (5737) 
15 17
26 4
27 9
28 7
29 59
38 37
39 121
40 41
41 42
43 85
44 69
45 220
46 39
47 178
49 13
50 54
51 157
52 79
53 126
54 65
55 74
57 44
58 71
59 129
60 45
61 68
62 37
63 125
64 66
65 162
66 79
67 42
73 300
74 68
75 275
76 61
77 352
78 197
79 208
80 44
82 40
83 1
89 168
90 76
91 146
92 71
93 25
96 53
97 49
98 1
101 19
102 57
103 186
104 226
105 530
106 182
107 21
115 15
117 77
118 20
119 68
120 6
121 17
131 64
132 287
133 999
134 275
135 134
136 30
137 25
147 56
148 63
149 55
150 18
163 664
164 218
165 55
179 34
191 8
206 61
207 754
208 292
209 160
210 33
221 75
222 399
223 169
224 87
225 33

$$$$

     RDKit          2D

 15 15  0  0  0  0  0  0  0  0999 V2000
   -2.5989   -1.5002    0.0000 C   0  0  0  0  0  0  0  0  0  0  0  0
   -0.0000   -3.0000    0.0000 C   0  0  0  0  0  0  0  0  0  0  0  0
    4.6478    2.4515    0.0000 C   0  0  0  0  0  0  0  0  0  0  0  0
    5.1965    4.5006    0.0000 C   0  0  0  0  0  0  0  0  0  0  0  0
    3.1474    5.0493    0.0000 C   0  0  0  0  0  0  0  0  0  0  0  0
   -1.3000    0.7500    0.0000 C   0  0  0  0  0  0  0  0  0  0  0  0
    0.0000    1.5000    0.0000 C   0  0  0  0  0  0  0  0  0  0  0  0
    1.3000   -0.7500    0.0000 C   0  0  0  0  0  0  0  0  0  0  0  0
   -1.3000   -0.7500    0.0000 C   0  0  0  0  0  0  0  0  0  0  0  0
   -0.0000   -1.5000    0.0000 C   0  0  0  0  0  0  0  0  0  0  0  0
    1.3000    0.7500    0.0000 C   0  0  0  0  0  0  0  0  0  0  0  0
    2.5989    1.5002    0.0000 C   0  0  0  0  0  0  0  0  0  0  0  0
    3.8981    0.7504    0.0000 O   0  0  0  0  0  0  0  0  0  0  0  0
    2.5987    3.0002    0.0000 O   0  0  0  0  0  0  0  0  0  0  0  0
    3.8976    3.7504    0.0000 Si  0  0  0  0  0  4  0  0  0  0  0  0
  7  6  2  0
  9  1  1  0
  9  6  1  0
 10  2  1  0
 10  8  1  0
 10  9  2  0
 11  7  1  0
 11  8  2  0
 12 11  1  0
 13 12  2  0
 14 12  1  0
 15  3  1  0
 15  4  1  0
 15  5  1  0
 15 14  1  0
M  END
>  <NAME>  (5738) 
3,4-DIMETHYLBENZOIC ACID TRIMETHYLSILYL ESTER

>  <SYNONYMS>  (5738) 


>  <SPECTRUM TYPE>  (5738) 
MS1

>  <INSTRUMENT TYPE>  (5738) 
EI-B

>  <INSTRUMENT>  (5738) 
JEOL JMS-01-SG

>  <ION MODE>  (5738) 
P

>  <INCHIKEY>  (5738) 
GVQLTVPJABMNKV-UHFFFAOYSA-N

>  <FORMULA>  (5738) 
C12H18O2Si

>  <EXACT MASS>  (5738) 
222.107606346

>  <MW>  (5738) 
222

>  <ID>  (5738) 
JP000593

>  <CONTRIBUTOR>  (5738) 
University of Tokyo Team, {Faculty of Engineering, University of Tokyo

>  <COMMENT>  (5738) 
SMILES=Cc(c1)c(C)cc(c1)C(=O)O[Si](C)(C)C
InChI=InChI=1S/C12H18O2Si/c1-9-6-7-11(8-10(9)2)12(13)14-15(3,4)5/h6-8H,1-5H3
computed SMILES=O=C(O[Si](C)(C)C)C1=CC=C(C(=C1)C)C
accession=JP000593
date=2016.01.19 (Created 2008.10.21, modified 2011.05.06)
author=KOGA M, UNIV. OF OCCUPATIONAL AND ENVIRONMENTAL HEALTH
license=CC BY-NC-SA
exact mass=222.10761
ionization energy=70 eV
ion type=[M]+*
computed spectral entropy=2.4734632628156614
computed normalized entropy=0.8124306236564386
SPLASH=splash10-0a7i-6940000000-a23337deba408574f651
submitter=submitter = University of Tokyo Team (Faculty of Engineering, University of Tokyo)
MoNA Rating=3.75

>  <NUM PEAKS>  (5738) 
21

>  <MASS SPECTRAL PEAKS>  (5738) 
45 14.8
47 7.5
51 6.5
53 0.65
73 10
75 8.4
77 32.6
78 0.92
79 30
96 25
103 20.5
104 0.83
105 38.5
133 99.99
134 10
163 9.44
164 14.8
165 6.3
207 78.8
208 1.36
222 10.2

>  <PREDICTED SPECTRUM>  (5738) 
26 1
27 56
28 11
29 92
31 0
38 36
39 112
40 38
41 56
43 105
44 62
45 164
46 31
47 138
49 17
50 80
51 182
52 97
53 136
54 54
55 55
57 53
58 94
59 191
60 68
61 32
62 28
63 97
64 80
65 124
66 68
67 91
68 31
70 13
71 24
72 44
73 254
74 85
75 223
76 78
77 378
78 199
79 297
80 61
81 38
82 60
89 120
90 52
91 128
92 2
95 25
96 77
97 57
98 3
101 1
102 116
103 347
104 275
105 668
106 190
107 69
117 85
118 42
119 93
120 76
121 32
131 73
132 297
133 999
134 274
135 124
136 40
137 27
145 47
147 94
148 66
150 42
163 833
164 321
165 53
178 0
179 59
206 17
207 863
208 288
209 195
210 49
221 99
222 369
223 148
224 60
225 5

$$$$

     RDKit          2D

 15 15  0  0  0  0  0  0  0  0999 V2000
   -2.5989   -1.5002    0.0000 C   0  0  0  0  0  0  0  0  0  0  0  0
    2.5989   -1.5002    0.0000 C   0  0  0  0  0  0  0  0  0  0  0  0
    4.6478    2.4515    0.0000 C   0  0  0  0  0  0  0  0  0  0  0  0
    5.1965    4.5006    0.0000 C   0  0  0  0  0  0  0  0  0  0  0  0
    3.1474    5.0493    0.0000 C   0  0  0  0  0  0  0  0  0  0  0  0
   -1.3000    0.7500    0.0000 C   0  0  0  0  0  0  0  0  0  0  0  0
    0.0000    1.5000    0.0000 C   0  0  0  0  0  0  0  0  0  0  0  0
   -0.0000   -1.5000    0.0000 C   0  0  0  0  0  0  0  0  0  0  0  0
   -1.3000   -0.7500    0.0000 C   0  0  0  0  0  0  0  0  0  0  0  0
    1.3000   -0.7500    0.0000 C   0  0  0  0  0  0  0  0  0  0  0  0
    1.3000    0.7500    0.0000 C   0  0  0  0  0  0  0  0  0  0  0  0
    2.5989    1.5002    0.0000 C   0  0  0  0  0  0  0  0  0  0  0  0
    3.8981    0.7504    0.0000 O   0  0  0  0  0  0  0  0  0  0  0  0
    2.5987    3.0002    0.0000 O   0  0  0  0  0  0  0  0  0  0  0  0
    3.8976    3.7504    0.0000 Si  0  0  0  0  0  4  0  0  0  0  0  0
  7  6  2  0
  9  1  1  0
  9  6  1  0
  9  8  2  0
 10  2  1  0
 10  8  1  0
 11  7  1  0
 11 10  2  0
 12 11  1  0
 13 12  2  0
 14 12  1  0
 15  3  1  0
 15  4  1  0
 15  5  1  0
 15 14  1  0
M  END
>  <NAME>  (5739) 
2,4-DIMETHYLBENZOIC ACID TRIMETHYLSILYL ESTER

>  <SYNONYMS>  (5739) 


>  <SPECTRUM TYPE>  (5739) 
MS1

>  <INSTRUMENT TYPE>  (5739) 
EI-B

>  <INSTRUMENT>  (5739) 
JEOL JMS-01-SG

>  <ION MODE>  (5739) 
P

>  <INCHIKEY>  (5739) 
MYTFEBMPQUXFJH-UHFFFAOYSA-N

>  <FORMULA>  (5739) 
C12H18O2Si

>  <EXACT MASS>  (5739) 
222.107606346

>  <MW>  (5739) 
222

>  <ID>  (5739) 
JP000592

>  <CONTRIBUTOR>  (5739) 
University of Tokyo Team, {Faculty of Engineering, University of Tokyo

>  <COMMENT>  (5739) 
computed SMILES=O=C(O[Si](C)(C)C)C1=CC=C(C=C1C)C
SMILES=Cc(c1)cc(C)c(c1)C(=O)O[Si](C)(C)C
InChI=InChI=1S/C12H18O2Si/c1-9-6-7-11(10(2)8-9)12(13)14-15(3,4)5/h6-8H,1-5H3
accession=JP000592
date=2016.01.19 (Created 2008.10.21, modified 2011.05.06)
author=KOGA M, UNIV. OF OCCUPATIONAL AND ENVIRONMENTAL HEALTH
license=CC BY-NC-SA
exact mass=222.10761
ionization energy=70 eV
ion type=[M]+*
computed spectral entropy=2.0905322978046117
computed normalized entropy=0.792151149709728
SPLASH=splash10-001i-2910000000-49bdde97d7a8054550bc
submitter=submitter = University of Tokyo Team (Faculty of Engineering, University of Tokyo)
MoNA Rating=3.75

>  <NUM PEAKS>  (5739) 
14

>  <MASS SPECTRAL PEAKS>  (5739) 
45 13.5
73 10.9
77 13.5
79 1.41
96 9.7
103 9.2
104 9.5
105 2.19
132 24.2
133 99.99
163 39.4
207 4.84
208 11.2
222 12.1

>  <PREDICTED SPECTRUM>  (5739) 
27 10
29 24
38 16
39 83
40 13
41 11
43 120
44 18
45 244
46 14
47 206
50 19
51 98
52 56
53 129
54 44
55 49
57 6
58 56
59 175
60 65
61 65
63 45
64 30
65 117
66 81
67 104
73 470
74 78
75 338
76 88
77 331
78 161
79 232
80 43
81 22
89 146
90 22
91 130
96 26
97 39
102 34
103 279
104 293
105 517
106 101
107 3
117 275
118 128
119 167
120 22
121 44
131 184
132 642
133 945
134 257
135 137
147 124
148 103
149 101
150 65
161 18
162 8
163 531
164 187
165 53
177 42
179 43
191 104
193 49
205 48
206 104
207 999
208 397
209 253
210 50
222 550
223 241
224 140
225 33

$$$$

     RDKit          2D

 14 14  0  0  0  0  0  0  0  0999 V2000
   -2.5989   -1.5002    0.0000 C   0  0  0  0  0  0  0  0  0  0  0  0
    5.9472    0.2017    0.0000 C   0  0  0  0  0  0  0  0  0  0  0  0
    6.4959    2.2508    0.0000 C   0  0  0  0  0  0  0  0  0  0  0  0
    4.4468    2.7995    0.0000 C   0  0  0  0  0  0  0  0  0  0  0  0
   -1.3000    0.7500    0.0000 C   0  0  0  0  0  0  0  0  0  0  0  0
   -0.0000   -1.5000    0.0000 C   0  0  0  0  0  0  0  0  0  0  0  0
    0.0000    1.5000    0.0000 C   0  0  0  0  0  0  0  0  0  0  0  0
    1.3000   -0.7500    0.0000 C   0  0  0  0  0  0  0  0  0  0  0  0
   -1.3000   -0.7500    0.0000 C   0  0  0  0  0  0  0  0  0  0  0  0
    1.3000    0.7500    0.0000 C   0  0  0  0  0  0  0  0  0  0  0  0
    2.5989    1.5002    0.0000 C   0  0  0  0  0  0  0  0  0  0  0  0
    2.5987    3.0002    0.0000 O   0  0  0  0  0  0  0  0  0  0  0  0
    3.8981    0.7504    0.0000 O   0  0  0  0  0  0  0  0  0  0  0  0
    5.1970    1.5006    0.0000 Si  0  0  0  0  0  4  0  0  0  0  0  0
  7  5  2  0
  8  6  1  0
  9  1  1  0
  9  5  1  0
  9  6  2  0
 10  7  1  0
 10  8  2  0
 11 10  1  0
 12 11  2  0
 13 11  1  0
 14  2  1  0
 14  3  1  0
 14  4  1  0
 14 13  1  0
M  END
>  <NAME>  (5740) 
4-METHYLBENZOIC ACID TRIMETHYLSILYL ESTER

>  <SYNONYMS>  (5740) 


>  <SPECTRUM TYPE>  (5740) 
MS1

>  <INSTRUMENT TYPE>  (5740) 
EI-B

>  <INSTRUMENT>  (5740) 
JEOL JMS-01-SG

>  <ION MODE>  (5740) 
P

>  <INCHIKEY>  (5740) 
GKODXEXJNJLBCA-UHFFFAOYSA-N

>  <FORMULA>  (5740) 
C11H16O2Si

>  <EXACT MASS>  (5740) 
208.091956282

>  <MW>  (5740) 
208

>  <ID>  (5740) 
JP000591

>  <CONTRIBUTOR>  (5740) 
University of Tokyo Team, {Faculty of Engineering, University of Tokyo

>  <COMMENT>  (5740) 
SMILES=Cc(c1)ccc(c1)C(=O)O[Si](C)(C)C
InChI=InChI=1S/C11H16O2Si/c1-9-5-7-10(8-6-9)11(12)13-14(2,3)4/h5-8H,1-4H3
computed SMILES=O=C(O[Si](C)(C)C)C1=CC=C(C=C1)C
accession=JP000591
date=2016.01.19 (Created 2008.10.21, modified 2011.05.06)
author=KOGA M, UNIV. OF OCCUPATIONAL AND ENVIRONMENTAL HEALTH
license=CC BY-NC-SA
exact mass=208.09196
ionization energy=70 eV
ion type=[M]+*
computed spectral entropy=2.481776864392844
computed normalized entropy=0.842869178798681
SPLASH=splash10-014m-5900000000-89136479ed34b21c62a5
submitter=submitter = University of Tokyo Team (Faculty of Engineering, University of Tokyo)
MoNA Rating=3.75

>  <NUM PEAKS>  (5740) 
19

>  <MASS SPECTRAL PEAKS>  (5740) 
43 10.2
44 27.4
45 24.5
47 1.42
63 12.5
65 48
89 13.1
91 6.91
92 13.1
93 13.1
96 13.7
119 99.99
120 13.7
141 13.1
149 89.7
150 1.48
193 66.8
194 13.7
208 13.1

>  <PREDICTED SPECTRUM>  (5740) 
15 48
27 15
29 27
38 42
39 170
40 39
41 99
43 115
44 44
45 185
46 35
47 158
49 3
50 95
51 149
52 90
53 102
54 45
55 36
59 64
60 60
61 55
62 67
63 188
64 96
65 289
66 95
67 41
73 211
74 41
75 212
76 62
77 102
78 89
79 100
82 10
89 259
90 193
91 580
92 202
93 17
95 80
96 72
97 31
104 56
105 104
106 29
107 30
109 11
117 86
118 110
119 937
120 298
121 124
122 34
123 88
133 36
134 82
135 72
136 5
149 868
150 310
151 134
165 10
177 9
193 999
194 385
195 160
196 11
207 115
208 343
209 119
210 48
211 1

$$$$

     RDKit          2D

 14 14  0  0  0  0  0  0  0  0999 V2000
   -2.8401   -0.8961    0.0000 C   0  0  0  0  0  0  0  0  0  0  0  0
    5.7058   -2.1929    0.0000 C   0  0  0  0  0  0  0  0  0  0  0  0
    6.2552   -0.1439    0.0000 C   0  0  0  0  0  0  0  0  0  0  0  0
    4.2062    0.4055    0.0000 C   0  0  0  0  0  0  0  0  0  0  0  0
   -0.2362   -3.8861    0.0000 C   0  0  0  0  0  0  0  0  0  0  0  0
   -1.5353   -3.1361    0.0000 C   0  0  0  0  0  0  0  0  0  0  0  0
    1.0583   -3.1439    0.0000 C   0  0  0  0  0  0  0  0  0  0  0  0
   -0.2403   -0.8931    0.0000 C   0  0  0  0  0  0  0  0  0  0  0  0
   -1.5398   -1.6439    0.0000 C   0  0  0  0  0  0  0  0  0  0  0  0
    1.0588   -1.6431    0.0000 C   0  0  0  0  0  0  0  0  0  0  0  0
    2.3579   -0.8933    0.0000 C   0  0  0  0  0  0  0  0  0  0  0  0
    2.3582    0.6067    0.0000 O   0  0  0  0  0  0  0  0  0  0  0  0
    3.6568   -1.6435    0.0000 O   0  0  0  0  0  0  0  0  0  0  0  0
    4.9560   -0.8937    0.0000 Si  0  0  0  0  0  4  0  0  0  0  0  0
  6  5  2  0
  7  5  1  0
  9  1  1  0
  9  6  1  0
  9  8  2  0
 10  7  2  0
 10  8  1  0
 11 10  1  0
 12 11  2  0
 13 11  1  0
 14  2  1  0
 14  3  1  0
 14  4  1  0
 14 13  1  0
M  END
>  <NAME>  (5741) 
3-METHYLBENZOIC ACID TRIMETHYLSILYL ESTER

>  <SYNONYMS>  (5741) 


>  <SPECTRUM TYPE>  (5741) 
MS1

>  <INSTRUMENT TYPE>  (5741) 
EI-B

>  <INSTRUMENT>  (5741) 
JEOL JMS-01-SG

>  <ION MODE>  (5741) 
P

>  <INCHIKEY>  (5741) 
MFPKMKJUNGWICD-UHFFFAOYSA-N

>  <FORMULA>  (5741) 
C11H16O2Si

>  <EXACT MASS>  (5741) 
208.091956282

>  <MW>  (5741) 
208

>  <ID>  (5741) 
JP000590

>  <CONTRIBUTOR>  (5741) 
University of Tokyo Team, {Faculty of Engineering, University of Tokyo

>  <COMMENT>  (5741) 
SMILES=Cc(c1)cc(cc1)C(=O)O[Si](C)(C)C
InChI=InChI=1S/C11H16O2Si/c1-9-6-5-7-10(8-9)11(12)13-14(2,3)4/h5-8H,1-4H3
computed SMILES=O=C(O[Si](C)(C)C)C1=CC=CC(=C1)C
accession=JP000590
date=2016.01.19 (Created 2008.10.21, modified 2011.05.06)
author=KOGA M, UNIV. OF OCCUPATIONAL AND ENVIRONMENTAL HEALTH
license=CC BY-NC-SA
exact mass=208.09196
ionization energy=70 eV
ion type=[M]+*
computed spectral entropy=2.4354301380805246
computed normalized entropy=0.8426010015587816
SPLASH=splash10-014j-6900000000-d76a8446c600a79a26bd
submitter=submitter = University of Tokyo Team (Faculty of Engineering, University of Tokyo)
MoNA Rating=3.75

>  <NUM PEAKS>  (5741) 
18

>  <MASS SPECTRAL PEAKS>  (5741) 
43 15.4
44 32.5
45 28.1
47 1.27
63 12.7
65 42.5
73 17.6
91 5.91
92 12.7
96 12.7
119 99.99
120 1.32
147 12.1
149 83.9
150 16
193 8.06
194 15.4
208 13.2

>  <PREDICTED SPECTRUM>  (5741) 
15 54
18 6
26 2
27 19
28 4
29 39
38 42
39 161
40 34
41 65
43 50
44 43
45 189
46 40
47 131
50 88
51 123
52 63
53 99
54 81
55 53
59 98
60 50
61 79
62 69
63 195
64 83
65 274
66 81
67 62
68 20
73 210
74 35
75 204
76 70
77 60
78 37
79 100
82 57
89 273
90 184
91 569
92 190
93 55
95 100
96 114
97 13
104 7
105 78
106 34
107 9
117 87
118 103
119 888
120 285
121 90
123 14
133 58
134 75
135 77
147 21
149 806
150 303
151 142
165 15
177 64
192 4
193 999
194 390
195 186
196 48
207 139
208 296
209 96
210 25

$$$$

     RDKit          2D

 14 14  0  0  0  0  0  0  0  0999 V2000
   -0.3325    2.4400    0.0000 C   0  0  0  0  0  0  0  0  0  0  0  0
    5.6172   -0.3583    0.0000 C   0  0  0  0  0  0  0  0  0  0  0  0
    6.1659    1.6908    0.0000 C   0  0  0  0  0  0  0  0  0  0  0  0
    4.1168    2.2395    0.0000 C   0  0  0  0  0  0  0  0  0  0  0  0
   -1.6200   -1.3100    0.0000 C   0  0  0  0  0  0  0  0  0  0  0  0
   -0.3300   -2.0600    0.0000 C   0  0  0  0  0  0  0  0  0  0  0  0
   -1.6200    0.1900    0.0000 C   0  0  0  0  0  0  0  0  0  0  0  0
    0.9700   -1.3100    0.0000 C   0  0  0  0  0  0  0  0  0  0  0  0
   -0.3300    0.9400    0.0000 C   0  0  0  0  0  0  0  0  0  0  0  0
    0.9700    0.1900    0.0000 C   0  0  0  0  0  0  0  0  0  0  0  0
    2.2689    0.9402    0.0000 C   0  0  0  0  0  0  0  0  0  0  0  0
    2.2687    2.4402    0.0000 O   0  0  0  0  0  0  0  0  0  0  0  0
    3.5681    0.1904    0.0000 O   0  0  0  0  0  0  0  0  0  0  0  0
    4.8670    0.9406    0.0000 Si  0  0  0  0  0  4  0  0  0  0  0  0
  6  5  2  0
  7  5  1  0
  8  6  1  0
  9  1  1  0
  9  7  2  0
 10  8  2  0
 10  9  1  0
 11 10  1  0
 12 11  2  0
 13 11  1  0
 14  2  1  0
 14  3  1  0
 14  4  1  0
 14 13  1  0
M  END
>  <NAME>  (5742) 
2-METHYLBENZOIC ACID TRIMETHYLSILYL ESTER

>  <SYNONYMS>  (5742) 


>  <SPECTRUM TYPE>  (5742) 
MS1

>  <INSTRUMENT TYPE>  (5742) 
EI-B

>  <INSTRUMENT>  (5742) 
JEOL JMS-01-SG

>  <ION MODE>  (5742) 
P

>  <INCHIKEY>  (5742) 
QWDJSIANUZLFHV-UHFFFAOYSA-N

>  <FORMULA>  (5742) 
C11H16O2Si

>  <EXACT MASS>  (5742) 
208.091956282

>  <MW>  (5742) 
208

>  <ID>  (5742) 
JP000589

>  <CONTRIBUTOR>  (5742) 
University of Tokyo Team, {Faculty of Engineering, University of Tokyo

>  <COMMENT>  (5742) 
SMILES=Cc(c1)c(ccc1)C(=O)O[Si](C)(C)C
InChI=InChI=1S/C11H16O2Si/c1-9-7-5-6-8-10(9)11(12)13-14(2,3)4/h5-8H,1-4H3
computed SMILES=O=C(O[Si](C)(C)C)C=1C=CC=CC1C
accession=JP000589
date=2016.01.19 (Created 2008.10.21, modified 2011.05.06)
author=KOGA M, UNIV. OF OCCUPATIONAL AND ENVIRONMENTAL HEALTH
license=CC BY-NC-SA
exact mass=208.09196
ionization energy=70 eV
ion type=[M]+*
computed spectral entropy=2.789545583613487
computed normalized entropy=0.8777527796966473
SPLASH=splash10-014l-9600000000-d5478c4a4aafb01ac358
submitter=submitter = University of Tokyo Team (Faculty of Engineering, University of Tokyo)
MoNA Rating=3.75

>  <NUM PEAKS>  (5742) 
24

>  <MASS SPECTRAL PEAKS>  (5742) 
43 14.3
44 23.2
45 32.8
47 1.57
63 14.3
65 41
71 15
73 1.64
75 10.2
81 15
89 15.7
90 1.84
91 58.2
92 15.7
96 15
118 3.97
119 99.99
120 16.4
147 15
149 4.1
186 15.7
193 43.8
194 15
208 20.5

>  <PREDICTED SPECTRUM>  (5742) 
15 26
26 24
27 38
28 34
29 24
37 1
38 56
39 246
40 59
41 142
43 215
44 136
45 310
46 110
47 246
48 15
49 38
50 142
51 221
52 110
53 87
54 49
55 70
57 65
58 73
59 174
60 125
61 165
62 105
63 264
64 130
65 383
66 164
67 77
71 17
72 43
73 500
74 155
75 431
76 161
77 238
78 124
79 143
81 27
82 21
88 1
89 303
90 295
91 654
92 207
93 51
99 26
104 51
105 46
106 1
117 185
118 372
119 999
120 185
121 69
123 6
133 44
134 119
135 155
136 114
147 22
148 63
149 524
150 182
151 81
163 18
164 56
165 28
177 46
193 966
194 386
195 190
196 8
207 35
208 570
209 226
210 124
211 22

$$$$

     RDKit          2D

 30 29  0  0  0  0  0  0  0  0999 V2000
  -12.6154    8.1495    0.0000 C   0  0  0  0  0  0  0  0  0  0  0  0
   13.9144   19.1986    0.0000 C   0  0  0  0  0  0  0  0  0  0  0  0
   15.9635   18.6495    0.0000 C   0  0  0  0  0  0  0  0  0  0  0  0
   15.4144   16.6005    0.0000 C   0  0  0  0  0  0  0  0  0  0  0  0
  -11.3163    8.8995    0.0000 C   0  0  0  0  0  0  0  0  0  0  0  0
  -11.3163   10.3995    0.0000 C   0  0  0  0  0  0  0  0  0  0  0  0
  -10.0173   11.1495    0.0000 C   0  0  0  0  0  0  0  0  0  0  0  0
  -10.0173   12.6495    0.0000 C   0  0  0  0  0  0  0  0  0  0  0  0
   -8.7183   13.3995    0.0000 C   0  0  0  0  0  0  0  0  0  0  0  0
   -8.7183   14.8995    0.0000 C   0  0  0  0  0  0  0  0  0  0  0  0
   -7.4192   15.6495    0.0000 C   0  0  0  0  0  0  0  0  0  0  0  0
   -7.4192   17.1495    0.0000 C   0  0  0  0  0  0  0  0  0  0  0  0
   -6.1202   17.8995    0.0000 C   0  0  0  0  0  0  0  0  0  0  0  0
   -4.8212   17.1495    0.0000 C   0  0  0  0  0  0  0  0  0  0  0  0
   -3.5221   17.8995    0.0000 C   0  0  0  0  0  0  0  0  0  0  0  0
   -2.2231   17.1495    0.0000 C   0  0  0  0  0  0  0  0  0  0  0  0
   -0.9240   17.8995    0.0000 C   0  0  0  0  0  0  0  0  0  0  0  0
    0.3750   17.1495    0.0000 C   0  0  0  0  0  0  0  0  0  0  0  0
    1.6740   17.8995    0.0000 C   0  0  0  0  0  0  0  0  0  0  0  0
    2.9731   17.1495    0.0000 C   0  0  0  0  0  0  0  0  0  0  0  0
    4.2721   17.8995    0.0000 C   0  0  0  0  0  0  0  0  0  0  0  0
    5.5712   17.1495    0.0000 C   0  0  0  0  0  0  0  0  0  0  0  0
    6.8702   17.8995    0.0000 C   0  0  0  0  0  0  0  0  0  0  0  0
    8.1692   17.1495    0.0000 C   0  0  0  0  0  0  0  0  0  0  0  0
    9.4683   17.8995    0.0000 C   0  0  0  0  0  0  0  0  0  0  0  0
   10.7673   17.1495    0.0000 C   0  0  0  0  0  0  0  0  0  0  0  0
   12.0663   17.8995    0.0000 C   0  0  0  0  0  0  0  0  0  0  0  0
   12.0663   19.3995    0.0000 O   0  0  0  0  0  0  0  0  0  0  0  0
   13.3654   17.1495    0.0000 O   0  0  0  0  0  0  0  0  0  0  0  0
   14.6644   17.8995    0.0000 Si  0  0  0  0  0  4  0  0  0  0  0  0
  5  1  1  0
  6  5  1  0
  7  6  1  0
  8  7  1  0
  9  8  1  0
 10  9  1  0
 11 10  1  0
 12 11  1  0
 12 13  2  0
 14 13  1  0
 15 14  1  0
 16 15  1  0
 17 16  1  0
 18 17  1  0
 19 18  1  0
 20 19  1  0
 21 20  1  0
 22 21  1  0
 23 22  1  0
 24 23  1  0
 25 24  1  0
 26 25  1  0
 27 26  1  0
 28 27  2  0
 29 27  1  0
 30  2  1  0
 30  3  1  0
 30  4  1  0
 30 29  1  0
M  END
>  <NAME>  (5743) 
NERVONIC ACID TRIMETHYLSILYL ESTER

>  <SYNONYMS>  (5743) 
CIS-15-TETRACOSENOIC ACID TRIMETHYLSILYL ESTER

>  <SPECTRUM TYPE>  (5743) 
MS1

>  <INSTRUMENT TYPE>  (5743) 
EI-B

>  <INSTRUMENT>  (5743) 
JEOL JMS-01-SG

>  <ION MODE>  (5743) 
P

>  <INCHIKEY>  (5743) 
OQABBMMAIBXADF-SEYXRHQNSA-N

>  <FORMULA>  (5743) 
C27H54O2Si

>  <EXACT MASS>  (5743) 
438.389307498

>  <MW>  (5743) 
438

>  <ID>  (5743) 
JP000588

>  <CONTRIBUTOR>  (5743) 
University of Tokyo Team, {Faculty of Engineering, University of Tokyo

>  <COMMENT>  (5743) 
SMILES=CCCCCCCCC=CCCCCCCCCCCCCCC(=O)O[Si](C)(C)C
InChI=InChI=1S/C27H54O2Si/c1-5-6-7-8-9-10-11-12-13-14-15-16-17-18-19-20-21-22-23-24-25-26-27(28)29-30(2,3)4/h12-13H,5-11,14-26H2,1-4H3/b13-12-
computed SMILES=O=C(O[Si](C)(C)C)CCCCCCCCCCCCCC=CCCCCCCCC
accession=JP000588
license=CC BY-NC-SA
date=2016.01.19 (Created 2008.10.21, modified 2011.05.06)
author=KOGA M, UNIV. OF OCCUPATIONAL AND ENVIRONMENTAL HEALTH
exact mass=438.38931
ionization energy=70 eV
ion type=[M]+*
computed spectral entropy=3.0111673430588723
computed normalized entropy=0.8688392386235663
SPLASH=splash10-06fr-9300000000-1dff2469d31e4d8b09e3
submitter=submitter = University of Tokyo Team (Faculty of Engineering, University of Tokyo)
MoNA Rating=3.75

>  <NUM PEAKS>  (5743) 
32

>  <MASS SPECTRAL PEAKS>  (5743) 
54 20.3
55 99.99
56 15.1
57 1.38
67 25.9
68 16.1
69 40.4
70 1.18
73 88.8
75 73.6
81 26.6
82 1.8
83 24.3
84 17.7
85 10.5
95 2.79
96 20.7
97 24
98 19.4
109 1.25
110 14.4
111 16.7
117 57.5
121 1.21
123 11.5
129 40.1
131 10.1
132 1.97
145 23.3
185 11.5
423 16.4
424 7.8

>  <PREDICTED SPECTRUM>  (5743) 
26 55
27 156
28 86
29 187
31 11
32 9
38 25
39 227
40 106
41 483
42 249
43 508
44 154
45 161
46 76
47 144
48 6
49 1
51 33
52 40
53 225
54 389
55 887
56 418
57 472
58 188
59 231
60 113
61 207
62 15
63 15
65 108
66 126
67 570
68 392
69 613
70 302
71 280
72 288
73 999
74 244
75 897
76 232
77 272
78 114
79 277
80 222
81 534
82 445
83 580
84 357
85 268
86 131
87 131
88 92
89 200
90 33
91 220
92 119
93 258
94 193
95 518
96 500
97 448
98 379
99 214
100 116
101 178
102 91
103 118
104 50
105 138
106 89
107 212
108 157
109 420
110 354
111 338
112 207
113 113
114 56
115 165
116 302
117 775
118 242
119 242
120 81
121 221
122 156
123 366
124 231
125 221
126 137
127 102
128 45
129 863
130 256
131 349
132 482
133 309
134 143
135 187
136 138
137 253
138 242
139 173
140 90
141 104
142 69
143 256
144 88
145 589
146 223
147 144
148 100
149 132
150 121
151 147
152 220
153 120
154 61
155 126
156 157
157 172
158 71
159 121
160 43
161 111
162 89
163 83
164 101
165 126
166 110
167 97
168 104
169 152
170 98
171 251
172 157
173 136
174 72
175 136
176 70
177 112
178 93
179 99
180 96
181 162
182 33
183 156
184 76
185 312
186 104
187 101
188 86
189 106
190 69
191 76
192 73
193 72
194 91
195 103
196 34
197 109
199 313
200 129
201 179
202 59
203 68
204 63
205 85
206 79
207 93
208 77
209 88
210 42
211 91
212 18
213 154
214 96
215 112
216 70
217 126
218 63
219 64
220 70
221 151
222 146
223 93
224 33
225 47
226 28
227 189
228 53
229 114
230 65
231 29
232 18
233 14
234 61
235 114
236 156
237 99
238 27
239 96
240 56
241 225
242 96
243 70
244 17
245 45
246 0
247 25
248 30
249 133
250 129
251 100
252 32
253 40
254 46
255 147
256 106
257 113
258 85
259 4
261 3
262 31
263 143
264 210
265 125
266 27
267 130
268 92
269 178
270 138
271 139
272 94
273 25
275 48
276 32
277 114
278 87
279 56
281 86
282 66
283 155
284 79
285 143
286 22
288 11
289 53
291 151
292 96
293 10
294 4
295 97
296 14
297 121
298 24
299 73
300 47
301 60
302 73
303 15
304 144
305 184
306 300
307 103
308 41
309 95
310 52
311 132
312 77
313 102
314 12
319 103
320 136
323 78
325 126
326 58
327 74
328 66
329 17
330 83
337 81
338 42
339 146
340 45
341 120
342 61
348 361
349 175
350 90
351 65
352 44
353 86
355 44
356 89
364 6
365 67
366 54
367 67
368 5
370 21
379 147
380 80
381 63
382 25
383 58
394 17
395 80
396 20
407 24
409 28
421 4
423 782
424 449
425 252
426 98
438 113
439 159
440 85
441 1

$$$$

     RDKit          2D

 26 25  0  0  0  0  0  0  0  0999 V2000
    8.7685   10.3125    0.0000 C   0  0  0  0  0  0  0  0  0  0  0  0
  -15.3642   16.5135    0.0000 C   0  0  0  0  0  0  0  0  0  0  0  0
  -15.9132   18.5625    0.0000 C   0  0  0  0  0  0  0  0  0  0  0  0
  -13.8642   19.1115    0.0000 C   0  0  0  0  0  0  0  0  0  0  0  0
    7.4695   11.0625    0.0000 C   0  0  0  0  0  0  0  0  0  0  0  0
    6.1704   10.3125    0.0000 C   0  0  0  0  0  0  0  0  0  0  0  0
    4.8714   11.0625    0.0000 C   0  0  0  0  0  0  0  0  0  0  0  0
    3.5724   10.3125    0.0000 C   0  0  0  0  0  0  0  0  0  0  0  0
    2.2733   11.0625    0.0000 C   0  0  0  0  0  0  0  0  0  0  0  0
    0.9743   10.3125    0.0000 C   0  0  0  0  0  0  0  0  0  0  0  0
   -0.3248   11.0625    0.0000 C   0  0  0  0  0  0  0  0  0  0  0  0
   -1.6238   10.3125    0.0000 C   0  0  0  0  0  0  0  0  0  0  0  0
   -2.9228   11.0625    0.0000 C   0  0  0  0  0  0  0  0  0  0  0  0
   -4.2219   10.3125    0.0000 C   0  0  0  0  0  0  0  0  0  0  0  0
   -5.5209   11.0625    0.0000 C   0  0  0  0  0  0  0  0  0  0  0  0
   -6.8200   10.3125    0.0000 C   0  0  0  0  0  0  0  0  0  0  0  0
   -8.1190   11.0625    0.0000 C   0  0  0  0  0  0  0  0  0  0  0  0
   -9.4180   10.3125    0.0000 C   0  0  0  0  0  0  0  0  0  0  0  0
  -10.7171   11.0625    0.0000 C   0  0  0  0  0  0  0  0  0  0  0  0
  -10.7171   12.5625    0.0000 C   0  0  0  0  0  0  0  0  0  0  0  0
  -12.0161   13.3125    0.0000 C   0  0  0  0  0  0  0  0  0  0  0  0
  -12.0161   14.8125    0.0000 C   0  0  0  0  0  0  0  0  0  0  0  0
  -13.3151   15.5625    0.0000 C   0  0  0  0  0  0  0  0  0  0  0  0
  -14.6142   14.8125    0.0000 O   0  0  0  0  0  0  0  0  0  0  0  0
  -13.3151   17.0625    0.0000 O   0  0  0  0  0  0  0  0  0  0  0  0
  -14.6142   17.8125    0.0000 Si  0  0  0  0  0  4  0  0  0  0  0  0
  5  1  1  0
  6  5  1  0
  7  6  1  0
  8  7  1  0
  9  8  1  0
 10  9  1  0
 11 10  1  0
 12 11  1  0
 13 12  1  0
 14 13  1  0
 15 14  1  0
 16 15  1  0
 17 16  1  0
 18 17  1  0
 18 19  2  0
 20 19  1  0
 21 20  1  0
 22 21  1  0
 23 22  1  0
 24 23  2  0
 25 23  1  0
 26  2  1  0
 26  3  1  0
 26  4  1  0
 26 25  1  0
M  END
>  <NAME>  (5744) 
CIS-5-EICOSENOIC ACID TRIMETHYLSILYL ESTER

>  <SYNONYMS>  (5744) 


>  <SPECTRUM TYPE>  (5744) 
MS1

>  <INSTRUMENT TYPE>  (5744) 
EI-B

>  <INSTRUMENT>  (5744) 
JEOL JMS-01-SG

>  <ION MODE>  (5744) 
P

>  <INCHIKEY>  (5744) 
RJXIKISKUHWPGB-HNENSFHCSA-N

>  <FORMULA>  (5744) 
C23H46O2Si

>  <EXACT MASS>  (5744) 
382.326707242

>  <MW>  (5744) 
382

>  <ID>  (5744) 
JP000587

>  <CONTRIBUTOR>  (5744) 
University of Tokyo Team, {Faculty of Engineering, University of Tokyo

>  <COMMENT>  (5744) 
SMILES=CCCCCCCCCCCCCCC=CCCCC(=O)O[Si](C)(C)C
InChI=InChI=1S/C23H46O2Si/c1-5-6-7-8-9-10-11-12-13-14-15-16-17-18-19-20-21-22-23(24)25-26(2,3)4/h18-19H,5-17,20-22H2,1-4H3/b19-18-
computed SMILES=O=C(O[Si](C)(C)C)CCCC=CCCCCCCCCCCCCCC
accession=JP000587
date=2016.01.19 (Created 2008.10.21, modified 2011.05.06)
author=KOGA M, UNIV. OF OCCUPATIONAL AND ENVIRONMENTAL HEALTH
license=CC BY-NC-SA
exact mass=382.32671
ionization energy=70 eV
ion type=[M]+*
computed spectral entropy=2.3362077986964596
computed normalized entropy=0.7673478670248809
SPLASH=splash10-01di-9600000000-35061bc8c7a99c18909d
submitter=submitter = University of Tokyo Team (Faculty of Engineering, University of Tokyo)
MoNA Rating=3.75

>  <NUM PEAKS>  (5744) 
21

>  <MASS SPECTRAL PEAKS>  (5744) 
54 10.5
55 28.3
67 13.4
69 0.97
73 67.2
75 45.1
81 12.8
83 0.9
84 10.5
96 18.8
117 99.99
118 0.97
129 13.1
132 7.2
137 6.1
152 0.64
169 6.4
193 5.9
199 5.9
250 0.54
367 5.9

>  <PREDICTED SPECTRUM>  (5744) 
15 27
18 0
25 2
26 62
27 160
28 125
29 229
30 33
31 51
32 10
37 1
38 18
39 210
40 89
41 485
42 247
43 505
44 170
45 200
46 78
47 142
48 11
51 31
52 41
53 223
54 392
55 821
56 367
57 410
58 181
59 206
60 108
61 204
62 21
63 7
65 98
66 131
67 565
68 412
69 569
70 251
71 214
72 272
73 999
74 261
75 895
76 217
77 212
78 101
79 269
80 224
81 553
82 480
83 515
84 306
85 228
86 65
87 61
88 60
89 163
90 43
91 181
92 100
93 221
94 199
95 508
96 511
97 398
98 279
99 209
100 78
101 160
102 46
103 63
104 10
105 141
106 87
107 210
108 139
109 415
110 350
111 276
112 140
113 80
114 52
115 181
116 257
117 789
118 237
119 245
120 120
121 221
122 162
123 323
124 199
125 192
126 105
127 74
128 33
129 759
130 227
131 310
132 410
133 273
134 139
135 177
136 143
137 255
138 201
139 141
140 45
141 92
142 53
143 249
144 75
145 509
146 182
147 172
148 93
149 160
150 167
151 143
152 192
153 92
154 64
155 107
156 93
157 142
158 77
159 182
160 101
161 166
162 84
163 92
164 95
165 147
166 104
167 65
168 56
169 83
170 65
171 221
172 134
173 118
174 59
175 39
176 10
177 14
178 65
179 94
180 111
181 101
182 13
183 123
184 68
185 284
186 98
187 108
188 30
189 74
191 30
192 29
193 69
194 101
195 82
196 52
197 98
199 284
200 127
201 171
202 85
203 21
204 34
205 32
206 40
207 127
208 209
209 120
210 60
211 125
212 53
213 175
214 147
215 99
216 59
217 28
218 8
219 29
220 22
221 136
222 101
223 52
224 1
225 70
226 24
227 164
228 86
229 177
230 39
231 22
232 45
233 43
235 112
236 113
237 3
238 20
239 86
241 168
242 85
243 43
244 37
245 49
246 83
247 17
248 123
249 179
250 288
251 79
252 47
253 33
254 31
255 115
256 81
257 143
258 28
263 116
264 157
265 40
267 50
269 125
270 62
271 69
272 78
273 16
274 48
277 10
281 82
282 45
283 159
284 39
285 120
286 109
287 46
292 336
293 174
294 30
295 87
296 62
297 83
299 50
300 82
307 1
309 89
310 61
311 57
312 6
314 15
323 105
324 29
325 49
326 6
327 53
337 13
338 56
339 102
340 26
351 26
353 28
366 4
367 838
368 455
369 219
370 83
382 307
383 146
384 73
385 15

$$$$

     RDKit          2D

 28 27  0  0  0  0  0  0  0  0999 V2000
  -11.9659    7.0245    0.0000 C   0  0  0  0  0  0  0  0  0  0  0  0
   11.9659   18.0736    0.0000 C   0  0  0  0  0  0  0  0  0  0  0  0
   14.0149   17.5245    0.0000 C   0  0  0  0  0  0  0  0  0  0  0  0
   13.4659   15.4755    0.0000 C   0  0  0  0  0  0  0  0  0  0  0  0
  -10.6668    7.7745    0.0000 C   0  0  0  0  0  0  0  0  0  0  0  0
  -10.6668    9.2745    0.0000 C   0  0  0  0  0  0  0  0  0  0  0  0
   -9.3678   10.0245    0.0000 C   0  0  0  0  0  0  0  0  0  0  0  0
   -9.3678   11.5245    0.0000 C   0  0  0  0  0  0  0  0  0  0  0  0
   -8.0687   12.2745    0.0000 C   0  0  0  0  0  0  0  0  0  0  0  0
   -8.0687   13.7745    0.0000 C   0  0  0  0  0  0  0  0  0  0  0  0
   -6.7697   14.5245    0.0000 C   0  0  0  0  0  0  0  0  0  0  0  0
   -6.7697   16.0245    0.0000 C   0  0  0  0  0  0  0  0  0  0  0  0
   -5.4707   16.7745    0.0000 C   0  0  0  0  0  0  0  0  0  0  0  0
   -4.1716   16.0245    0.0000 C   0  0  0  0  0  0  0  0  0  0  0  0
   -2.8726   16.7745    0.0000 C   0  0  0  0  0  0  0  0  0  0  0  0
   -1.5736   16.0245    0.0000 C   0  0  0  0  0  0  0  0  0  0  0  0
   -0.2745   16.7745    0.0000 C   0  0  0  0  0  0  0  0  0  0  0  0
    1.0245   16.0245    0.0000 C   0  0  0  0  0  0  0  0  0  0  0  0
    2.3236   16.7745    0.0000 C   0  0  0  0  0  0  0  0  0  0  0  0
    3.6226   16.0245    0.0000 C   0  0  0  0  0  0  0  0  0  0  0  0
    4.9216   16.7745    0.0000 C   0  0  0  0  0  0  0  0  0  0  0  0
    6.2207   16.0245    0.0000 C   0  0  0  0  0  0  0  0  0  0  0  0
    7.5197   16.7745    0.0000 C   0  0  0  0  0  0  0  0  0  0  0  0
    8.8187   16.0245    0.0000 C   0  0  0  0  0  0  0  0  0  0  0  0
   10.1178   16.7745    0.0000 C   0  0  0  0  0  0  0  0  0  0  0  0
   10.1178   18.2745    0.0000 O   0  0  0  0  0  0  0  0  0  0  0  0
   11.4168   16.0245    0.0000 O   0  0  0  0  0  0  0  0  0  0  0  0
   12.7159   16.7745    0.0000 Si  0  0  0  0  0  4  0  0  0  0  0  0
  5  1  1  0
  6  5  1  0
  7  6  1  0
  8  7  1  0
  9  8  1  0
 10  9  1  0
 11 10  1  0
 12 11  1  0
 12 13  2  0
 14 13  1  0
 15 14  1  0
 16 15  1  0
 17 16  1  0
 18 17  1  0
 19 18  1  0
 20 19  1  0
 21 20  1  0
 22 21  1  0
 23 22  1  0
 24 23  1  0
 25 24  1  0
 26 25  2  0
 27 25  1  0
 28  2  1  0
 28  3  1  0
 28  4  1  0
 28 27  1  0
M  END
>  <NAME>  (5745) 
ERUCIC ACID TRIMETHYLSILYL ESTER

>  <SYNONYMS>  (5745) 
CIS-13-DOCOSENOIC ACID TRIMETHYLSILYL ESTER

>  <SPECTRUM TYPE>  (5745) 
MS1

>  <INSTRUMENT TYPE>  (5745) 
EI-B

>  <INSTRUMENT>  (5745) 
JEOL JMS-01-SG

>  <ION MODE>  (5745) 
P

>  <INCHIKEY>  (5745) 
AYZOMQWLRBJULM-SEYXRHQNSA-N

>  <FORMULA>  (5745) 
C25H50O2Si

>  <EXACT MASS>  (5745) 
410.35800737

>  <MW>  (5745) 
410

>  <ID>  (5745) 
JP000586

>  <CONTRIBUTOR>  (5745) 
University of Tokyo Team, {Faculty of Engineering, University of Tokyo

>  <COMMENT>  (5745) 
SMILES=CCCCCCCCC=CCCCCCCCCCCCC(=O)O[Si](C)(C)C
InChI=InChI=1S/C25H50O2Si/c1-5-6-7-8-9-10-11-12-13-14-15-16-17-18-19-20-21-22-23-24-25(26)27-28(2,3)4/h12-13H,5-11,14-24H2,1-4H3/b13-12-
computed SMILES=O=C(O[Si](C)(C)C)CCCCCCCCCCCC=CCCCCCCCC
accession=JP000586
date=2016.01.19 (Created 2008.10.21, modified 2011.05.06)
author=KOGA M, UNIV. OF OCCUPATIONAL AND ENVIRONMENTAL HEALTH
license=CC BY-NC-SA
exact mass=410.35801
ionization energy=70 eV
ion type=[M]+*
computed spectral entropy=2.953885623731262
computed normalized entropy=0.8523112281420588
SPLASH=splash10-06fr-9300000000-d71844c01bb6ec9f7276
submitter=submitter = University of Tokyo Team (Faculty of Engineering, University of Tokyo)
MoNA Rating=3.75

>  <NUM PEAKS>  (5745) 
32

>  <MASS SPECTRAL PEAKS>  (5745) 
53 12.6
54 23.5
55 99.99
56 1.56
57 15.6
61 10
67 35.1
68 1.09
69 36.5
73 91.4
75 94.9
81 3.53
82 20.3
83 32.4
84 13.2
95 2.94
96 23.5
97 22.7
98 17.6
109 1.65
111 11.5
117 86.7
129 58.4
130 1.06
131 13.8
132 13.5
137 10
143 1
145 25.9
199 10
395 20.9
396 6.4

>  <PREDICTED SPECTRUM>  (5745) 
15 15
26 56
27 108
28 103
29 199
30 2
31 27
32 11
37 4
38 26
39 240
40 105
41 495
42 256
43 489
44 149
45 183
46 83
47 141
48 14
49 1
51 41
52 51
53 231
54 396
55 870
56 413
57 439
58 203
59 251
60 117
61 214
62 27
63 26
64 8
65 118
66 134
67 566
68 394
69 602
70 289
71 261
72 308
73 999
74 245
75 888
76 226
77 226
78 108
79 262
80 225
81 525
82 436
83 566
84 360
85 255
86 84
87 97
88 95
89 176
90 52
91 225
92 112
93 255
94 200
95 518
96 500
97 435
98 369
99 219
100 100
101 161
102 91
103 75
104 32
105 131
106 94
107 207
108 145
109 407
110 355
111 323
112 199
113 101
114 53
115 143
116 309
117 786
118 250
119 213
120 93
121 184
122 142
123 337
124 238
125 208
126 124
127 105
128 45
129 835
130 228
131 331
132 469
133 296
134 143
135 184
136 140
137 234
138 224
139 148
140 97
141 98
142 78
143 278
144 88
145 570
146 224
147 194
148 139
149 187
150 138
151 140
152 213
153 165
154 64
155 138
156 129
157 146
158 75
159 107
160 76
161 132
162 86
163 91
164 89
165 134
166 114
167 96
168 49
169 144
170 77
171 240
172 151
173 111
174 60
175 106
176 45
177 91
178 103
179 113
180 92
181 104
182 38
183 102
184 54
185 301
186 108
187 146
188 105
189 133
190 66
191 73
192 82
193 99
194 120
195 100
196 59
197 34
199 324
200 128
201 177
202 76
203 31
204 43
205 19
206 71
207 121
208 127
209 105
210 22
211 111
212 34
213 221
214 112
215 69
216 38
217 65
218 9
219 46
220 50
221 146
222 163
223 90
224 41
225 124
226 30
227 171
228 77
229 104
230 96
231 38
232 6
233 41
234 24
235 129
236 215
237 120
238 40
239 89
240 67
241 190
242 151
243 132
244 98
245 49
246 6
247 34
248 24
249 163
250 104
251 87
252 21
253 19
254 41
255 159
256 124
257 197
258 21
260 16
261 28
262 18
263 149
264 110
265 40
266 26
267 89
268 21
269 144
270 75
271 82
272 52
273 52
274 70
275 36
276 145
277 135
278 305
279 95
280 16
281 105
282 68
283 137
284 54
285 95
286 24
287 0
290 3
291 114
292 133
293 5
295 89
297 103
298 20
299 70
300 86
301 39
302 92
305 6
309 89
310 34
311 140
312 47
313 140
314 76
315 11
318 3
320 380
321 206
322 86
323 88
324 27
325 110
327 64
328 88
336 12
337 69
338 82
339 67
340 9
342 24
351 97
352 82
353 49
354 9
355 53
366 40
367 87
368 19
379 23
381 36
393 0
395 869
396 475
397 249
398 94
410 322
411 164
412 74

$$$$

     RDKit          2D

 24 23  0  0  0  0  0  0  0  0999 V2000
    3.0099   -5.0123    0.0000 C   0  0  0  0  0  0  0  0  0  0  0  0
   12.6522    3.7868    0.0000 C   0  0  0  0  0  0  0  0  0  0  0  0
   14.7012    3.2377    0.0000 C   0  0  0  0  0  0  0  0  0  0  0  0
   14.1522    1.1887    0.0000 C   0  0  0  0  0  0  0  0  0  0  0  0
    1.7108   -4.2623    0.0000 C   0  0  0  0  0  0  0  0  0  0  0  0
    0.4118   -5.0123    0.0000 C   0  0  0  0  0  0  0  0  0  0  0  0
   -0.8873   -4.2623    0.0000 C   0  0  0  0  0  0  0  0  0  0  0  0
   -0.8873   -2.7623    0.0000 C   0  0  0  0  0  0  0  0  0  0  0  0
   -2.1863   -2.0123    0.0000 C   0  0  0  0  0  0  0  0  0  0  0  0
   -2.1863   -0.5123    0.0000 C   0  0  0  0  0  0  0  0  0  0  0  0
   -0.8873    0.2377    0.0000 C   0  0  0  0  0  0  0  0  0  0  0  0
   -0.8873    1.7377    0.0000 C   0  0  0  0  0  0  0  0  0  0  0  0
    0.4118    2.4877    0.0000 C   0  0  0  0  0  0  0  0  0  0  0  0
    1.7108    1.7377    0.0000 C   0  0  0  0  0  0  0  0  0  0  0  0
    3.0099    2.4877    0.0000 C   0  0  0  0  0  0  0  0  0  0  0  0
    4.3089    1.7377    0.0000 C   0  0  0  0  0  0  0  0  0  0  0  0
    5.6079    2.4877    0.0000 C   0  0  0  0  0  0  0  0  0  0  0  0
    6.9070    1.7377    0.0000 C   0  0  0  0  0  0  0  0  0  0  0  0
    8.2060    2.4877    0.0000 C   0  0  0  0  0  0  0  0  0  0  0  0
    9.5050    1.7377    0.0000 C   0  0  0  0  0  0  0  0  0  0  0  0
   10.8041    2.4877    0.0000 C   0  0  0  0  0  0  0  0  0  0  0  0
   10.8041    3.9877    0.0000 O   0  0  0  0  0  0  0  0  0  0  0  0
   12.1031    1.7377    0.0000 O   0  0  0  0  0  0  0  0  0  0  0  0
   13.4022    2.4877    0.0000 Si  0  0  0  0  0  4  0  0  0  0  0  0
  5  1  1  0
  6  5  1  0
  6  7  2  0
  8  7  1  0
  9  8  1  0
  9 10  2  0
 11 10  1  0
 12 11  1  0
 12 13  2  0
 14 13  1  0
 15 14  1  0
 16 15  1  0
 17 16  1  0
 18 17  1  0
 19 18  1  0
 20 19  1  0
 21 20  1  0
 22 21  2  0
 23 21  1  0
 24  2  1  0
 24  3  1  0
 24  4  1  0
 24 23  1  0
M  END
>  <NAME>  (5746) 
LINOLENIC ACID TRIMETHYLSILYL ESTER

>  <SYNONYMS>  (5746) 
9,12,15-OCTADECATRIENOIC ACID TRIMETHYLSILYL ESTER

>  <SPECTRUM TYPE>  (5746) 
MS1

>  <INSTRUMENT TYPE>  (5746) 
EI-B

>  <INSTRUMENT>  (5746) 
JEOL JMS-01-SG

>  <ION MODE>  (5746) 
P

>  <INCHIKEY>  (5746) 
DCFAEXKJEMZTKR-QNEBEIHSSA-N

>  <FORMULA>  (5746) 
C21H38O2Si

>  <EXACT MASS>  (5746) 
350.264106986

>  <MW>  (5746) 
350

>  <ID>  (5746) 
JP000585

>  <CONTRIBUTOR>  (5746) 
University of Tokyo Team, {Faculty of Engineering, University of Tokyo

>  <COMMENT>  (5746) 
SMILES=CCC=CCC=CCC=CCCCCCCCC(=O)O[Si](C)(C)C
InChI=InChI=1S/C21H38O2Si/c1-5-6-7-8-9-10-11-12-13-14-15-16-17-18-19-20-21(22)23-24(2,3)4/h6-7,9-10,12-13H,5,8,11,14-20H2,1-4H3/b7-6-,10-9-,13-12-
computed SMILES=O=C(O[Si](C)(C)C)CCCCCCCC=CCC=CCC=CCC
accession=JP000585
date=2016.01.19 (Created 2008.10.21, modified 2011.05.06)
author=KOGA M, UNIV. OF OCCUPATIONAL AND ENVIRONMENTAL HEALTH
license=CC BY-NC-SA
exact mass=350.26411
ionization energy=70 eV
ion type=[M]+*
computed spectral entropy=2.9814385202556006
computed normalized entropy=0.8602613135776168
SPLASH=splash10-056u-9300000000-a650b2ffd380dfe61768
submitter=submitter = University of Tokyo Team (Faculty of Engineering, University of Tokyo)
MoNA Rating=3.75

>  <NUM PEAKS>  (5746) 
32

>  <MASS SPECTRAL PEAKS>  (5746) 
53 17.6
54 11.6
55 50.4
67 5.97
69 14.3
73 89.3
75 96.3
77 2.15
78 12.5
79 99.99
80 34.8
81 4.82
91 28.3
93 60.7
94 23.7
95 5.34
105 15.8
107 25
108 29.3
109 1.23
117 22.7
119 11.1
121 18.5
122 1.03
129 20.3
131 14.1
135 13.1
136 1.01
145 12.5
149 10.6
173 7.3
335 5

>  <PREDICTED SPECTRUM>  (5746) 
26 10
27 97
28 19
29 167
30 26
31 20
38 3
39 163
40 74
41 434
42 172
43 230
44 119
45 249
46 58
47 217
48 17
49 49
50 65
51 141
52 113
53 282
54 216
55 545
56 156
57 183
58 180
59 214
60 133
61 236
62 69
63 72
64 39
65 259
66 257
67 722
68 309
69 360
70 95
71 142
72 242
73 999
74 323
75 945
76 299
77 506
78 281
79 765
80 523
81 626
82 354
83 228
84 105
85 164
86 59
87 104
88 24
89 132
90 27
91 621
92 351
93 704
94 485
95 558
96 322
97 207
98 118
99 177
100 44
101 146
102 77
103 160
104 100
105 422
106 322
107 502
108 477
109 366
110 217
111 145
112 34
113 86
114 57
115 185
116 207
117 566
118 235
119 454
120 239
121 530
122 350
123 215
124 107
125 93
126 17
127 89
128 49
129 670
130 177
131 402
132 222
133 335
134 251
135 393
136 289
137 129
138 96
139 76
141 88
142 103
143 231
144 119
145 338
146 122
147 226
148 164
149 270
150 300
151 109
152 62
153 60
154 25
155 189
156 101
157 201
158 79
159 241
160 145
161 259
162 138
163 219
164 170
165 98
166 19
167 23
168 36
169 250
170 105
171 228
172 51
173 138
174 59
175 136
176 89
177 152
178 109
179 15
180 24
181 34
182 16
183 90
184 39
185 186
186 60
187 95
188 10
189 124
190 58
191 120
192 58
193 28
194 50
195 38
196 13
197 96
199 173
200 47
201 136
203 109
204 130
205 72
206 24
207 6
209 54
210 31
211 78
212 84
213 109
214 72
215 66
216 65
217 155
218 197
219 109
220 31
221 30
222 32
223 94
224 38
225 156
226 60
227 110
228 19
229 28
231 70
232 148
233 71
234 6
235 8
237 79
238 15
239 54
240 7
241 145
242 56
243 72
245 56
249 141
250 12
251 97
252 49
253 62
254 33
255 50
259 41
260 99
261 103
263 36
265 50
266 27
267 29
268 59
269 30
270 41
277 72
278 41
279 90
280 44
281 58
282 50
291 54
293 126
294 228
295 109
296 75
297 13
305 83
306 15
307 102
308 45
309 9
319 51
321 114
322 47
323 51
335 472
336 242
337 113
338 31
349 14
350 216
351 107
352 46

$$$$

     RDKit          2D

 24 23  0  0  0  0  0  0  0  0999 V2000
  -19.9611   11.7255    0.0000 C   0  0  0  0  0  0  0  0  0  0  0  0
    3.9707    9.6764    0.0000 C   0  0  0  0  0  0  0  0  0  0  0  0
    6.0197   10.2255    0.0000 C   0  0  0  0  0  0  0  0  0  0  0  0
    5.4707   12.2745    0.0000 C   0  0  0  0  0  0  0  0  0  0  0  0
  -18.6620   10.9755    0.0000 C   0  0  0  0  0  0  0  0  0  0  0  0
  -17.3630   11.7255    0.0000 C   0  0  0  0  0  0  0  0  0  0  0  0
  -16.0639   10.9755    0.0000 C   0  0  0  0  0  0  0  0  0  0  0  0
  -14.7649   11.7255    0.0000 C   0  0  0  0  0  0  0  0  0  0  0  0
  -13.4659   10.9755    0.0000 C   0  0  0  0  0  0  0  0  0  0  0  0
  -12.1668   11.7255    0.0000 C   0  0  0  0  0  0  0  0  0  0  0  0
  -10.8678   10.9755    0.0000 C   0  0  0  0  0  0  0  0  0  0  0  0
   -9.5687   11.7255    0.0000 C   0  0  0  0  0  0  0  0  0  0  0  0
   -8.2697   10.9755    0.0000 C   0  0  0  0  0  0  0  0  0  0  0  0
   -6.9707   11.7255    0.0000 C   0  0  0  0  0  0  0  0  0  0  0  0
   -5.6716   10.9755    0.0000 C   0  0  0  0  0  0  0  0  0  0  0  0
   -4.3726   11.7255    0.0000 C   0  0  0  0  0  0  0  0  0  0  0  0
   -3.0736   10.9755    0.0000 C   0  0  0  0  0  0  0  0  0  0  0  0
   -1.7745   11.7255    0.0000 C   0  0  0  0  0  0  0  0  0  0  0  0
   -0.4755   10.9755    0.0000 C   0  0  0  0  0  0  0  0  0  0  0  0
    0.8236   11.7255    0.0000 C   0  0  0  0  0  0  0  0  0  0  0  0
    2.1226   10.9755    0.0000 C   0  0  0  0  0  0  0  0  0  0  0  0
    2.1226    9.4755    0.0000 O   0  0  0  0  0  0  0  0  0  0  0  0
    3.4216   11.7255    0.0000 O   0  0  0  0  0  0  0  0  0  0  0  0
    4.7207   10.9755    0.0000 Si  0  0  0  0  0  4  0  0  0  0  0  0
  5  1  1  0
  6  5  1  0
  7  6  1  0
  8  7  1  0
  9  8  1  0
  9 10  2  0
 11 10  1  0
 12 11  1  0
 12 13  2  0
 14 13  1  0
 15 14  1  0
 16 15  1  0
 17 16  1  0
 18 17  1  0
 19 18  1  0
 20 19  1  0
 21 20  1  0
 22 21  2  0
 23 21  1  0
 24  2  1  0
 24  3  1  0
 24  4  1  0
 24 23  1  0
M  END
>  <NAME>  (5747) 
LINOLELADIC ACID TRIMETHYLSILYL ESTER

>  <SYNONYMS>  (5747) 
TRANS-9,TRANS-12-OCTADECADIENOIC ACID TRIMETHYLSILYL ESTER

>  <SPECTRUM TYPE>  (5747) 
MS1

>  <INSTRUMENT TYPE>  (5747) 
EI-B

>  <INSTRUMENT>  (5747) 
JEOL JMS-01-SG

>  <ION MODE>  (5747) 
P

>  <INCHIKEY>  (5747) 
MXGBYOVWUYSJSN-OKLKQMLOSA-N

>  <FORMULA>  (5747) 
C21H40O2Si

>  <EXACT MASS>  (5747) 
352.27975705

>  <MW>  (5747) 
352

>  <ID>  (5747) 
JP000584

>  <CONTRIBUTOR>  (5747) 
University of Tokyo Team, {Faculty of Engineering, University of Tokyo

>  <COMMENT>  (5747) 
SMILES=CCCCCC=CCC=CCCCCCCCC(=O)O[Si](C)(C)C
InChI=InChI=1S/C21H40O2Si/c1-5-6-7-8-9-10-11-12-13-14-15-16-17-18-19-20-21(22)23-24(2,3)4/h9-10,12-13H,5-8,11,14-20H2,1-4H3/b10-9+,13-12+
computed SMILES=O=C(O[Si](C)(C)C)CCCCCCCC=CCC=CCCCCC
computed spectral entropy=3.187376513732218
accession=JP000584
date=2016.01.19 (Created 2008.10.21, modified 2011.05.06)
author=KOGA M, UNIV. OF OCCUPATIONAL AND ENVIRONMENTAL HEALTH
license=CC BY-NC-SA
exact mass=352.27976
ionization energy=70 eV
ion type=[M]+*
computed normalized entropy=0.8894543515669092
SPLASH=splash10-00c0-9200000000-ba89de42b95b177559bc
submitter=submitter = University of Tokyo Team (Faculty of Engineering, University of Tokyo)
MoNA Rating=3.75

>  <NUM PEAKS>  (5747) 
36

>  <MASS SPECTRAL PEAKS>  (5747) 
53 14.3
54 40
55 41.1
67 9.31
68 30.5
69 25.9
73 99.2
75 99.99
79 38.1
80 27.3
81 83.6
82 3.87
83 19.5
93 23.3
94 21.4
95 5.88
96 31.4
97 16.7
107 16.3
108 1.41
109 24.9
110 16.3
117 41.4
121 2.06
123 12.5
129 28.7
131 12.5
135 1.84
136 11.9
145 10
149 11.4
150 1.55
178 12
262 11.1
337 15.5
338 5.8

>  <PREDICTED SPECTRUM>  (5747) 
14 2
15 57
26 54
27 196
28 94
29 241
30 53
31 53
36 2
37 17
38 33
39 261
40 123
41 537
42 246
43 319
44 149
45 276
46 79
47 248
48 45
49 26
50 37
51 97
52 119
53 311
54 438
55 709
56 269
57 210
58 153
59 167
60 111
61 239
62 63
63 42
64 25
65 188
66 237
67 797
68 485
69 479
70 152
71 167
72 302
73 994
74 276
75 999
76 297
77 411
78 201
79 538
80 463
81 766
82 549
83 345
84 169
85 179
86 56
87 68
88 60
89 200
90 61
91 384
92 224
93 476
94 414
95 720
96 553
97 268
98 166
99 166
100 34
101 89
102 58
103 148
104 93
105 282
106 191
107 392
108 266
109 493
110 401
111 203
112 78
113 70
114 31
115 162
116 254
117 669
118 249
119 309
120 122
121 431
122 293
123 355
124 320
125 151
126 60
127 84
128 18
129 691
130 192
131 313
132 258
133 202
134 214
135 406
136 315
137 267
138 181
139 106
140 39
141 75
142 43
143 207
144 104
145 356
146 130
147 160
148 126
149 259
150 326
151 201
152 176
153 111
154 52
155 166
156 100
157 132
158 46
159 202
160 79
161 181
162 57
163 195
164 187
165 185
166 125
167 93
168 52
169 179
170 77
171 201
172 132
173 171
174 77
175 74
176 53
177 119
178 190
179 167
180 123
181 108
182 79
183 116
184 63
185 206
186 81
187 157
188 67
189 54
190 1
191 128
192 111
193 59
194 77
195 89
196 62
197 67
199 211
200 34
201 161
202 66
203 31
204 22
205 144
206 88
207 30
208 27
211 81
212 38
213 114
214 131
215 100
216 83
217 62
218 125
219 198
220 312
221 147
222 48
223 17
224 25
225 98
226 19
227 127
228 85
229 136
230 68
233 102
234 212
235 63
236 36
237 12
238 14
239 12
240 21
241 99
242 69
243 152
244 53
245 41
247 40
248 7
249 74
251 56
252 37
253 62
254 77
255 133
256 85
257 153
261 7
262 282
263 176
264 32
265 17
266 17
267 67
268 51
269 9
270 69
279 38
280 62
281 111
282 46
293 64
294 10
295 90
296 60
297 23
308 6
309 68
310 23
319 0
323 52
337 683
338 324
339 180
340 60
352 235
353 126
354 63
355 16

$$$$

     RDKit          2D

 24 23  0  0  0  0  0  0  0  0999 V2000
  -10.6668    4.7745    0.0000 C   0  0  0  0  0  0  0  0  0  0  0  0
    8.0687   15.8236    0.0000 C   0  0  0  0  0  0  0  0  0  0  0  0
   10.1178   15.2745    0.0000 C   0  0  0  0  0  0  0  0  0  0  0  0
    9.5687   13.2255    0.0000 C   0  0  0  0  0  0  0  0  0  0  0  0
   -9.3678    5.5245    0.0000 C   0  0  0  0  0  0  0  0  0  0  0  0
   -9.3678    7.0245    0.0000 C   0  0  0  0  0  0  0  0  0  0  0  0
   -8.0687    7.7745    0.0000 C   0  0  0  0  0  0  0  0  0  0  0  0
   -8.0687    9.2745    0.0000 C   0  0  0  0  0  0  0  0  0  0  0  0
   -6.7697   10.0245    0.0000 C   0  0  0  0  0  0  0  0  0  0  0  0
   -6.7697   11.5245    0.0000 C   0  0  0  0  0  0  0  0  0  0  0  0
   -5.4707   12.2745    0.0000 C   0  0  0  0  0  0  0  0  0  0  0  0
   -5.4707   13.7745    0.0000 C   0  0  0  0  0  0  0  0  0  0  0  0
   -4.1716   14.5245    0.0000 C   0  0  0  0  0  0  0  0  0  0  0  0
   -2.8726   13.7745    0.0000 C   0  0  0  0  0  0  0  0  0  0  0  0
   -1.5736   14.5245    0.0000 C   0  0  0  0  0  0  0  0  0  0  0  0
   -0.2745   13.7745    0.0000 C   0  0  0  0  0  0  0  0  0  0  0  0
    1.0245   14.5245    0.0000 C   0  0  0  0  0  0  0  0  0  0  0  0
    2.3236   13.7745    0.0000 C   0  0  0  0  0  0  0  0  0  0  0  0
    3.6226   14.5245    0.0000 C   0  0  0  0  0  0  0  0  0  0  0  0
    4.9216   13.7745    0.0000 C   0  0  0  0  0  0  0  0  0  0  0  0
    6.2207   14.5245    0.0000 C   0  0  0  0  0  0  0  0  0  0  0  0
    6.2207   16.0245    0.0000 O   0  0  0  0  0  0  0  0  0  0  0  0
    7.5197   13.7745    0.0000 O   0  0  0  0  0  0  0  0  0  0  0  0
    8.8187   14.5245    0.0000 Si  0  0  0  0  0  4  0  0  0  0  0  0
  5  1  1  0
  6  5  1  0
  7  6  1  0
  8  7  1  0
  9  8  1  0
 10  9  1  0
 11 10  1  0
 12 11  1  0
 12 13  2  0
 14 13  1  0
 15 14  1  0
 16 15  1  0
 17 16  1  0
 18 17  1  0
 19 18  1  0
 20 19  1  0
 21 20  1  0
 22 21  2  0
 23 21  1  0
 24  2  1  0
 24  3  1  0
 24  4  1  0
 24 23  1  0
M  END
>  <NAME>  (5748) 
OLEIC ACID TRIMETHYLSILYL ESTER

>  <SYNONYMS>  (5748) 
CIS-9-OCTADECENOIC ACID TRIMETHYLSILYL ESTER

>  <SPECTRUM TYPE>  (5748) 
MS1

>  <INSTRUMENT TYPE>  (5748) 
EI-B

>  <INSTRUMENT>  (5748) 
JEOL JMS-01-SG

>  <ION MODE>  (5748) 
P

>  <INCHIKEY>  (5748) 
GAODWSYPSJBKGB-SEYXRHQNSA-N

>  <FORMULA>  (5748) 
C21H42O2Si

>  <EXACT MASS>  (5748) 
354.295407114

>  <MW>  (5748) 
354

>  <ID>  (5748) 
JP000582

>  <CONTRIBUTOR>  (5748) 
University of Tokyo Team, {Faculty of Engineering, University of Tokyo

>  <COMMENT>  (5748) 
SMILES=CCCCCCCCC=CCCCCCCCC(=O)O[Si](C)(C)C
InChI=InChI=1S/C21H42O2Si/c1-5-6-7-8-9-10-11-12-13-14-15-16-17-18-19-20-21(22)23-24(2,3)4/h12-13H,5-11,14-20H2,1-4H3/b13-12-
computed SMILES=O=C(O[Si](C)(C)C)CCCCCCCC=CCCCCCCCC
accession=JP000582
date=2016.01.19 (Created 2008.10.21, modified 2011.05.06)
author=KOGA M, UNIV. OF OCCUPATIONAL AND ENVIRONMENTAL HEALTH
license=CC BY-NC-SA
exact mass=354.29541
ionization energy=70 eV
ion type=[M]+*
computed spectral entropy=3.3093850336778305
computed normalized entropy=0.879874755897582
SPLASH=splash10-00vj-9300000000-82e8a94947f53154c4c7
submitter=submitter = University of Tokyo Team (Faculty of Engineering, University of Tokyo)
MoNA Rating=3.75

>  <NUM PEAKS>  (5748) 
43

>  <MASS SPECTRAL PEAKS>  (5748) 
43 11.8
45 11.1
47 10.2
54 1.16
55 57.1
56 11.1
57 19.1
61 1.07
67 40.1
68 13.3
69 31.6
71 1.07
73 99.99
74 10.7
75 70
76 1.06
79 10.7
81 22.7
82 16.9
83 2.54
84 31.6
85 10.2
93 11.1
95 2.27
96 33.4
97 26.7
98 21.4
105 1.07
109 13.8
110 18.3
111 11.1
117 6.42
118 12.5
119 12.5
121 10.7
123 1.11
129 56.2
131 11.1
145 35.2
147 11.1
199 10.7
339 2.9
340 9.8

>  <PREDICTED SPECTRUM>  (5748) 
15 26
26 55
27 162
28 82
29 222
31 41
32 18
36 3
37 10
38 34
39 251
40 105
41 487
42 250
43 424
44 157
45 214
46 84
47 170
48 18
49 0
51 48
52 65
53 244
54 394
55 808
56 368
57 334
58 136
59 199
60 109
61 215
62 33
63 42
64 21
65 99
66 139
67 542
68 396
69 568
70 253
71 215
72 295
73 999
74 237
75 893
76 225
77 230
78 117
79 262
80 227
81 505
82 417
83 502
84 352
85 204
86 97
87 107
88 79
89 184
90 77
91 252
92 117
93 289
94 208
95 501
96 489
97 397
98 323
99 221
100 70
101 156
102 69
103 64
104 40
105 152
106 104
107 184
108 137
109 369
110 352
111 291
112 168
113 102
114 51
115 133
116 307
117 808
118 261
119 241
120 106
121 190
122 150
123 299
124 222
125 181
126 122
127 74
128 27
129 761
130 235
131 317
132 437
133 266
134 142
135 177
136 128
137 248
138 222
139 141
140 69
141 48
142 59
143 281
144 75
145 532
146 226
147 157
148 95
149 104
150 129
151 165
152 216
153 144
154 52
155 138
156 133
157 193
158 98
159 155
160 48
161 109
162 16
163 68
164 79
165 136
166 146
167 84
168 76
169 152
170 85
171 241
172 187
173 142
174 90
175 95
176 36
177 59
178 43
179 135
180 217
181 150
182 68
183 154
184 93
185 285
186 141
187 139
188 93
189 70
190 22
191 56
192 33
193 106
194 120
195 107
196 38
197 65
198 26
199 318
200 135
201 183
202 57
203 10
204 57
205 72
206 4
207 138
208 100
209 14
210 19
211 62
213 134
214 94
215 64
216 56
217 103
218 90
219 66
220 173
221 212
222 299
223 137
224 53
225 71
226 31
227 142
228 63
229 119
230 38
231 19
232 9
234 8
235 113
236 153
239 50
240 6
241 130
242 58
243 74
244 85
245 72
246 82
251 29
253 26
254 29
255 154
256 59
257 171
258 91
259 47
262 42
263 41
264 356
265 145
266 43
267 76
268 66
269 115
270 21
271 99
272 110
281 95
282 66
283 66
284 20
285 15
286 41
295 112
296 72
297 26
299 43
310 38
311 88
312 24
323 39
325 39
339 869
340 451
341 223
342 81
354 272
355 123
356 47
357 0

$$$$

     RDKit          2D

 22 21  0  0  0  0  0  0  0  0999 V2000
  -18.0125   10.6005    0.0000 C   0  0  0  0  0  0  0  0  0  0  0  0
    3.3212    8.5514    0.0000 C   0  0  0  0  0  0  0  0  0  0  0  0
    5.3702    9.1005    0.0000 C   0  0  0  0  0  0  0  0  0  0  0  0
    4.8212   11.1495    0.0000 C   0  0  0  0  0  0  0  0  0  0  0  0
  -16.7135    9.8505    0.0000 C   0  0  0  0  0  0  0  0  0  0  0  0
  -15.4144   10.6005    0.0000 C   0  0  0  0  0  0  0  0  0  0  0  0
  -14.1154    9.8505    0.0000 C   0  0  0  0  0  0  0  0  0  0  0  0
  -12.8163   10.6005    0.0000 C   0  0  0  0  0  0  0  0  0  0  0  0
  -11.5173    9.8505    0.0000 C   0  0  0  0  0  0  0  0  0  0  0  0
  -10.2183   10.6005    0.0000 C   0  0  0  0  0  0  0  0  0  0  0  0
   -8.9192    9.8505    0.0000 C   0  0  0  0  0  0  0  0  0  0  0  0
   -7.6202   10.6005    0.0000 C   0  0  0  0  0  0  0  0  0  0  0  0
   -6.3212    9.8505    0.0000 C   0  0  0  0  0  0  0  0  0  0  0  0
   -5.0221   10.6005    0.0000 C   0  0  0  0  0  0  0  0  0  0  0  0
   -3.7231    9.8505    0.0000 C   0  0  0  0  0  0  0  0  0  0  0  0
   -2.4240   10.6005    0.0000 C   0  0  0  0  0  0  0  0  0  0  0  0
   -1.1250    9.8505    0.0000 C   0  0  0  0  0  0  0  0  0  0  0  0
    0.1740   10.6005    0.0000 C   0  0  0  0  0  0  0  0  0  0  0  0
    1.4731    9.8505    0.0000 C   0  0  0  0  0  0  0  0  0  0  0  0
    1.4731    8.3505    0.0000 O   0  0  0  0  0  0  0  0  0  0  0  0
    2.7721   10.6005    0.0000 O   0  0  0  0  0  0  0  0  0  0  0  0
    4.0712    9.8505    0.0000 Si  0  0  0  0  0  4  0  0  0  0  0  0
  5  1  1  0
  6  5  1  0
  7  6  1  0
  8  7  1  0
  9  8  1  0
 10  9  1  0
 10 11  2  0
 12 11  1  0
 13 12  1  0
 14 13  1  0
 15 14  1  0
 16 15  1  0
 17 16  1  0
 18 17  1  0
 19 18  1  0
 20 19  2  0
 21 19  1  0
 22  2  1  0
 22  3  1  0
 22  4  1  0
 22 21  1  0
M  END
>  <NAME>  (5749) 
PALMITELADIC ACID TRIMETHYLSILYL ESTER

>  <SYNONYMS>  (5749) 
TRANS-9-HEXADECENOIC ACID TRIMETHYLSILYL ESTER

>  <SPECTRUM TYPE>  (5749) 
MS1

>  <INSTRUMENT TYPE>  (5749) 
EI-B

>  <INSTRUMENT>  (5749) 
JEOL JMS-01-SG

>  <ION MODE>  (5749) 
P

>  <INCHIKEY>  (5749) 
UNUADFKHVGBUHA-ZHACJKMWSA-N

>  <FORMULA>  (5749) 
C19H38O2Si

>  <EXACT MASS>  (5749) 
326.264106986

>  <MW>  (5749) 
326

>  <ID>  (5749) 
JP000580

>  <CONTRIBUTOR>  (5749) 
University of Tokyo Team, {Faculty of Engineering, University of Tokyo

>  <COMMENT>  (5749) 
SMILES=CCCCCCC=CCCCCCCCC(=O)O[Si](C)(C)C
InChI=InChI=1S/C19H38O2Si/c1-5-6-7-8-9-10-11-12-13-14-15-16-17-18-19(20)21-22(2,3)4/h10-11H,5-9,12-18H2,1-4H3/b11-10+
computed SMILES=O=C(O[Si](C)(C)C)CCCCCCCC=CCCCCCC
accession=JP000580
date=2016.01.19 (Created 2008.10.21, modified 2011.05.06)
author=KOGA M, UNIV. OF OCCUPATIONAL AND ENVIRONMENTAL HEALTH
license=CC BY-NC-SA
exact mass=326.26411
ionization energy=70 eV
ion type=[M]+*
computed spectral entropy=2.9262227642093586
computed normalized entropy=0.8603507635241451
SPLASH=splash10-00or-9400000000-b1ee438aa05e5f425da0
submitter=submitter = University of Tokyo Team (Faculty of Engineering, University of Tokyo)
MoNA Rating=3.75

>  <NUM PEAKS>  (5749) 
30

>  <MASS SPECTRAL PEAKS>  (5749) 
43 17.2
45 13.2
54 13.8
55 6.67
56 11.1
67 28.4
68 11.5
69 2.81
73 79.6
74 14.2
75 97.6
79 1.49
81 20
82 21
83 23.3
84 2.2
93 11.5
95 24.7
96 25
97 1.69
98 22.3
109 10.8
110 12.8
117 99.99
129 66.4
131 16.7
132 12.8
145 2.16
311 19.3
312 7.1

>  <PREDICTED SPECTRUM>  (5749) 
15 30
26 64
27 154
28 89
29 198
31 38
32 17
36 6
37 8
38 31
39 252
40 110
41 483
42 250
43 394
44 154
45 237
46 63
47 190
48 21
49 0
50 0
51 50
52 72
53 253
54 399
55 787
56 360
57 292
58 150
59 222
60 104
61 217
62 35
63 43
64 33
65 145
66 149
67 530
68 403
69 565
70 244
71 200
72 284
73 999
74 248
75 921
76 238
77 246
78 129
79 260
80 225
81 499
82 410
83 465
84 341
85 186
86 81
87 78
88 57
89 152
90 70
91 240
92 107
93 260
94 203
95 506
96 486
97 347
98 299
99 200
100 57
101 151
102 79
103 148
104 68
105 192
106 100
107 171
108 122
109 351
110 357
111 269
112 147
113 92
114 48
115 154
116 300
117 840
118 276
119 242
120 87
121 126
122 128
123 292
124 250
125 187
126 111
127 85
128 39
129 737
130 233
131 281
132 424
133 234
134 116
135 158
136 112
137 247
138 221
139 142
140 79
141 86
142 79
143 288
144 130
145 519
146 240
147 182
148 111
149 129
150 106
151 162
152 239
153 152
154 86
155 156
156 157
157 184
158 136
159 186
160 111
161 106
162 31
163 65
164 35
165 146
166 132
167 104
168 45
169 109
170 91
171 235
172 176
173 207
174 62
175 50
176 44
177 75
179 153
180 97
181 33
182 28
183 81
184 26
185 267
186 96
187 110
188 66
189 98
190 82
191 71
192 176
193 140
194 306
195 152
196 73
197 65
198 25
199 310
200 104
201 158
202 75
203 3
204 20
206 8
207 109
208 141
211 80
212 7
213 133
214 74
215 69
216 57
217 83
218 71
225 84
226 29
227 165
228 54
229 148
230 93
231 55
236 303
237 143
238 29
239 29
240 50
241 109
242 27
243 110
244 118
251 47
253 30
254 58
255 66
256 31
257 74
258 44
265 1
267 117
268 68
269 38
271 53
281 34
282 60
283 109
284 21
293 7
295 20
297 22
311 657
312 427
313 202
314 75
326 247
327 99
328 31

$$$$

     RDKit          2D

 20 19  0  0  0  0  0  0  0  0999 V2000
   -7.4192    5.8995    0.0000 C   0  0  0  0  0  0  0  0  0  0  0  0
    8.7183   12.4486    0.0000 C   0  0  0  0  0  0  0  0  0  0  0  0
   10.7673   11.8995    0.0000 C   0  0  0  0  0  0  0  0  0  0  0  0
   10.2183    9.8505    0.0000 C   0  0  0  0  0  0  0  0  0  0  0  0
   -6.1202    6.6495    0.0000 C   0  0  0  0  0  0  0  0  0  0  0  0
   -6.1202    8.1495    0.0000 C   0  0  0  0  0  0  0  0  0  0  0  0
   -4.8212    8.8995    0.0000 C   0  0  0  0  0  0  0  0  0  0  0  0
   -4.8212   10.3995    0.0000 C   0  0  0  0  0  0  0  0  0  0  0  0
   -3.5221   11.1495    0.0000 C   0  0  0  0  0  0  0  0  0  0  0  0
   -2.2231   10.3995    0.0000 C   0  0  0  0  0  0  0  0  0  0  0  0
   -0.9240   11.1495    0.0000 C   0  0  0  0  0  0  0  0  0  0  0  0
    0.3750   10.3995    0.0000 C   0  0  0  0  0  0  0  0  0  0  0  0
    1.6740   11.1495    0.0000 C   0  0  0  0  0  0  0  0  0  0  0  0
    2.9731   10.3995    0.0000 C   0  0  0  0  0  0  0  0  0  0  0  0
    4.2721   11.1495    0.0000 C   0  0  0  0  0  0  0  0  0  0  0  0
    5.5712   10.3995    0.0000 C   0  0  0  0  0  0  0  0  0  0  0  0
    6.8702   11.1495    0.0000 C   0  0  0  0  0  0  0  0  0  0  0  0
    6.8702   12.6495    0.0000 O   0  0  0  0  0  0  0  0  0  0  0  0
    8.1692   10.3995    0.0000 O   0  0  0  0  0  0  0  0  0  0  0  0
    9.4683   11.1495    0.0000 Si  0  0  0  0  0  4  0  0  0  0  0  0
  5  1  1  0
  6  5  1  0
  7  6  1  0
  8  7  1  0
  8  9  2  0
 10  9  1  0
 11 10  1  0
 12 11  1  0
 13 12  1  0
 14 13  1  0
 15 14  1  0
 16 15  1  0
 17 16  1  0
 18 17  2  0
 19 17  1  0
 20  2  1  0
 20  3  1  0
 20  4  1  0
 20 19  1  0
M  END
>  <NAME>  (5750) 
MYRISTOLEIC ACID TRIMETHYLSILYL ESTER

>  <SYNONYMS>  (5750) 
TRIMETHYLSILYL 9-TETRADECENOATE

>  <SPECTRUM TYPE>  (5750) 
MS1

>  <INSTRUMENT TYPE>  (5750) 
EI-B

>  <INSTRUMENT>  (5750) 
JEOL JMS-01-SG

>  <ION MODE>  (5750) 
P

>  <INCHIKEY>  (5750) 
LMYWVFVYLKKYSP-HJWRWDBZSA-N

>  <FORMULA>  (5750) 
C17H34O2Si

>  <EXACT MASS>  (5750) 
298.232806858

>  <MW>  (5750) 
298

>  <ID>  (5750) 
JP000578

>  <CONTRIBUTOR>  (5750) 
University of Tokyo Team, {Faculty of Engineering, University of Tokyo

>  <COMMENT>  (5750) 
SMILES=CCCCC=CCCCCCCCC(=O)O[Si](C)(C)C
InChI=InChI=1S/C17H34O2Si/c1-5-6-7-8-9-10-11-12-13-14-15-16-17(18)19-20(2,3)4/h8-9H,5-7,10-16H2,1-4H3/b9-8-
computed SMILES=O=C(O[Si](C)(C)C)CCCCCCCC=CCCCC
accession=JP000578
date=2016.01.19 (Created 2008.10.21, modified 2011.05.06)
author=KOGA M, UNIV. OF OCCUPATIONAL AND ENVIRONMENTAL HEALTH
license=CC BY-NC-SA
exact mass=298.23281
ionization energy=70 eV
ion type=[M]+*
computed spectral entropy=2.6264753112575394
computed normalized entropy=0.837659115400163
SPLASH=splash10-01b9-9400000000-bbf2515986dcfb0e85f1
submitter=submitter = University of Tokyo Team (Faculty of Engineering, University of Tokyo)
MoNA Rating=3.75

>  <NUM PEAKS>  (5750) 
23

>  <MASS SPECTRAL PEAKS>  (5750) 
45 12.3
55 50.4
67 20.1
68 1.06
69 18.1
73 99.99
74 9.1
75 8.33
81 22.9
82 12.3
83 10.6
84 1.43
95 18.8
96 17.5
98 18.8
109 1.12
117 88.4
129 50.6
131 15.5
145 1.3
166 10.6
283 19.2
284 4.8

>  <PREDICTED SPECTRUM>  (5750) 
15 38
26 61
27 144
28 101
29 179
31 28
32 8
36 5
37 19
38 41
39 244
40 99
41 457
42 248
43 328
44 137
45 229
46 78
47 219
48 27
49 23
50 17
51 64
52 85
53 254
54 378
55 774
56 284
57 229
58 130
59 167
60 90
61 241
62 46
63 61
64 39
65 110
66 138
67 505
68 394
69 559
70 235
71 153
72 261
73 999
74 278
75 966
76 262
77 285
78 125
79 243
80 195
81 479
82 393
83 399
84 308
85 153
86 81
87 109
88 70
89 153
90 73
91 227
92 108
93 204
94 200
95 465
96 447
97 302
98 273
99 192
100 73
101 138
102 68
103 75
104 12
105 158
106 55
107 149
108 122
109 306
110 339
111 238
112 139
113 91
114 45
115 151
116 315
117 894
118 303
119 251
120 105
121 163
122 105
123 259
124 252
125 182
126 102
127 107
128 41
129 739
130 275
131 296
132 437
133 228
134 105
135 154
136 90
137 219
138 180
139 125
140 27
141 37
142 58
143 277
144 111
145 542
146 229
147 130
148 92
149 114
150 51
151 151
152 167
153 58
154 16
155 121
156 62
157 153
158 74
159 163
160 75
161 126
162 75
163 77
164 166
165 148
166 252
167 127
168 76
169 116
170 73
171 213
172 101
173 140
174 74
175 64
176 25
178 2
179 119
180 140
183 111
184 27
185 236
186 62
187 80
188 71
189 100
190 71
191 7
193 8
197 45
198 3
199 266
200 70
201 173
202 91
203 23
208 317
209 131
210 9
211 42
212 10
213 106
214 42
215 98
216 78
217 0
225 60
226 34
227 71
228 24
229 22
230 38
239 46
240 51
241 100
242 6
243 71
251 3
254 50
255 140
256 54
257 23
265 20
267 0
269 32
281 4
283 759
284 242
285 146
286 51
298 201
299 98
300 28

$$$$

     RDKit          2D

 29 28  0  0  0  0  0  0  0  0999 V2000
    8.0320   14.3873    0.0000 C   0  0  0  0  0  0  0  0  0  0  0  0
  -23.8949   15.6863    0.0000 C   0  0  0  0  0  0  0  0  0  0  0  0
  -24.4440   13.6373    0.0000 C   0  0  0  0  0  0  0  0  0  0  0  0
  -22.3949   13.0882    0.0000 C   0  0  0  0  0  0  0  0  0  0  0  0
    6.7329   15.1373    0.0000 C   0  0  0  0  0  0  0  0  0  0  0  0
    5.4339   14.3873    0.0000 C   0  0  0  0  0  0  0  0  0  0  0  0
    4.1349   15.1373    0.0000 C   0  0  0  0  0  0  0  0  0  0  0  0
    2.8358   14.3873    0.0000 C   0  0  0  0  0  0  0  0  0  0  0  0
    1.5368   15.1373    0.0000 C   0  0  0  0  0  0  0  0  0  0  0  0
    0.2377   14.3873    0.0000 C   0  0  0  0  0  0  0  0  0  0  0  0
   -1.0613   15.1373    0.0000 C   0  0  0  0  0  0  0  0  0  0  0  0
   -2.3603   14.3873    0.0000 C   0  0  0  0  0  0  0  0  0  0  0  0
   -3.6594   15.1373    0.0000 C   0  0  0  0  0  0  0  0  0  0  0  0
   -4.9584   14.3873    0.0000 C   0  0  0  0  0  0  0  0  0  0  0  0
   -6.2575   15.1373    0.0000 C   0  0  0  0  0  0  0  0  0  0  0  0
   -7.5565   14.3873    0.0000 C   0  0  0  0  0  0  0  0  0  0  0  0
   -8.8555   15.1373    0.0000 C   0  0  0  0  0  0  0  0  0  0  0  0
  -10.1546   14.3873    0.0000 C   0  0  0  0  0  0  0  0  0  0  0  0
  -11.4536   15.1373    0.0000 C   0  0  0  0  0  0  0  0  0  0  0  0
  -12.7526   14.3873    0.0000 C   0  0  0  0  0  0  0  0  0  0  0  0
  -14.0517   15.1373    0.0000 C   0  0  0  0  0  0  0  0  0  0  0  0
  -15.3507   14.3873    0.0000 C   0  0  0  0  0  0  0  0  0  0  0  0
  -16.6498   15.1373    0.0000 C   0  0  0  0  0  0  0  0  0  0  0  0
  -17.9488   14.3873    0.0000 C   0  0  0  0  0  0  0  0  0  0  0  0
  -19.2478   15.1373    0.0000 C   0  0  0  0  0  0  0  0  0  0  0  0
  -20.5469   14.3873    0.0000 C   0  0  0  0  0  0  0  0  0  0  0  0
  -20.5469   12.8873    0.0000 O   0  0  0  0  0  0  0  0  0  0  0  0
  -21.8459   15.1373    0.0000 O   0  0  0  0  0  0  0  0  0  0  0  0
  -23.1449   14.3873    0.0000 Si  0  0  0  0  0  4  0  0  0  0  0  0
  5  1  1  0
  6  5  1  0
  7  6  1  0
  8  7  1  0
  9  8  1  0
 10  9  1  0
 11 10  1  0
 12 11  1  0
 13 12  1  0
 14 13  1  0
 15 14  1  0
 16 15  1  0
 17 16  1  0
 18 17  1  0
 19 18  1  0
 20 19  1  0
 21 20  1  0
 22 21  1  0
 23 22  1  0
 24 23  1  0
 25 24  1  0
 26 25  1  0
 27 26  2  0
 28 26  1  0
 29  2  1  0
 29  3  1  0
 29  4  1  0
 29 28  1  0
M  END
>  <NAME>  (5751) 
TRICOSANOIC ACID TRIMETHYLSILYL ESTER

>  <SYNONYMS>  (5751) 


>  <SPECTRUM TYPE>  (5751) 
MS1

>  <INSTRUMENT TYPE>  (5751) 
EI-B

>  <INSTRUMENT>  (5751) 
JEOL JMS-01-SG

>  <ION MODE>  (5751) 
P

>  <INCHIKEY>  (5751) 
KYTCCEWJBLIPMI-UHFFFAOYSA-N

>  <FORMULA>  (5751) 
C26H54O2Si

>  <EXACT MASS>  (5751) 
426.389307498

>  <MW>  (5751) 
426

>  <ID>  (5751) 
JP000577

>  <CONTRIBUTOR>  (5751) 
University of Tokyo Team, {Faculty of Engineering, University of Tokyo

>  <COMMENT>  (5751) 
SMILES=CCCCCCCCCCCCCCCCCCCCCCC(=O)O[Si](C)(C)C
InChI=InChI=1S/C26H54O2Si/c1-5-6-7-8-9-10-11-12-13-14-15-16-17-18-19-20-21-22-23-24-25-26(27)28-29(2,3)4/h5-25H2,1-4H3
computed SMILES=O=C(O[Si](C)(C)C)CCCCCCCCCCCCCCCCCCCCCC
accession=JP000577
date=2016.01.19 (Created 2008.10.21, modified 2011.05.06)
author=KOGA M, UNIV. OF OCCUPATIONAL AND ENVIRONMENTAL HEALTH
license=CC BY-NC-SA
exact mass=426.38931
ionization energy=70 eV
ion type=[M]+*
computed spectral entropy=2.8621747189435194
computed normalized entropy=0.9006061167409984
SPLASH=splash10-00dj-9401200000-72f4f072f0f7506aee13
submitter=submitter = University of Tokyo Team (Faculty of Engineering, University of Tokyo)
MoNA Rating=3.75

>  <NUM PEAKS>  (5751) 
24

>  <MASS SPECTRAL PEAKS>  (5751) 
43 26.1
55 22.3
57 20.8
69 1.64
73 99.99
75 12.6
77 16.4
81 2.08
83 21.6
91 16.4
97 22.3
117 8.43
118 18.6
129 36.5
131 10.4
132 5.22
145 37.3
147 24.6
201 20.1
282 1.64
315 17.1
326 15.6
411 48.5
412 19.4

>  <PREDICTED SPECTRUM>  (5751) 
15 16
26 3
27 89
28 52
29 135
39 91
40 34
41 373
42 209
43 684
44 172
45 153
46 58
47 100
53 100
54 128
55 647
56 323
57 642
58 257
59 172
60 28
61 209
62 45
66 14
67 260
68 169
69 453
70 267
71 387
72 206
73 987
74 293
75 857
76 276
77 232
78 43
79 104
80 55
81 289
82 177
83 415
84 286
85 265
86 78
87 123
88 125
89 227
90 48
91 135
92 55
93 151
94 34
95 308
96 214
97 324
98 272
99 164
100 28
101 158
102 78
103 150
104 70
105 136
106 59
107 140
108 24
109 144
110 95
111 201
112 154
113 87
114 18
115 135
116 236
117 999
118 285
119 206
120 53
121 146
123 112
124 0
125 102
126 26
127 24
129 804
130 284
131 420
132 768
133 469
134 154
135 119
136 30
138 9
139 51
141 68
143 242
144 62
145 824
146 387
147 134
149 31
151 24
152 3
153 20
155 26
156 0
157 73
158 55
159 243
160 91
161 71
163 38
167 1
168 0
169 20
171 266
172 79
173 184
174 98
175 76
176 20
177 14
181 39
185 265
186 62
187 224
188 135
189 29
191 16
199 92
200 55
201 356
202 118
203 68
209 49
211 37
213 111
214 19
215 174
216 51
217 21
218 3
223 32
225 9
227 170
228 1
229 118
230 59
237 25
241 104
243 89
244 15
255 77
257 116
258 91
259 24
265 54
267 2
269 179
270 26
271 89
273 23
283 126
284 29
285 114
293 25
294 0
295 15
296 26
297 84
299 49
300 41
311 93
313 90
325 95
327 97
328 34
336 106
337 45
338 38
339 96
341 42
353 35
354 6
355 60
367 247
368 126
369 119
370 22
383 149
384 124
395 16
397 118
411 930
412 510
413 261
414 88
424 11
426 470
427 247
428 139
429 36

$$$$

     RDKit          2D

 28 27  0  0  0  0  0  0  0  0999 V2000
    8.0687   13.7745    0.0000 C   0  0  0  0  0  0  0  0  0  0  0  0
  -21.0591   15.8236    0.0000 C   0  0  0  0  0  0  0  0  0  0  0  0
  -23.1082   15.2745    0.0000 C   0  0  0  0  0  0  0  0  0  0  0  0
  -22.5591   13.2255    0.0000 C   0  0  0  0  0  0  0  0  0  0  0  0
    6.7697   14.5245    0.0000 C   0  0  0  0  0  0  0  0  0  0  0  0
    5.4707   13.7745    0.0000 C   0  0  0  0  0  0  0  0  0  0  0  0
    4.1716   14.5245    0.0000 C   0  0  0  0  0  0  0  0  0  0  0  0
    2.8726   13.7745    0.0000 C   0  0  0  0  0  0  0  0  0  0  0  0
    1.5736   14.5245    0.0000 C   0  0  0  0  0  0  0  0  0  0  0  0
    0.2745   13.7745    0.0000 C   0  0  0  0  0  0  0  0  0  0  0  0
   -1.0245   14.5245    0.0000 C   0  0  0  0  0  0  0  0  0  0  0  0
   -2.3236   13.7745    0.0000 C   0  0  0  0  0  0  0  0  0  0  0  0
   -3.6226   14.5245    0.0000 C   0  0  0  0  0  0  0  0  0  0  0  0
   -4.9216   13.7745    0.0000 C   0  0  0  0  0  0  0  0  0  0  0  0
   -6.2207   14.5245    0.0000 C   0  0  0  0  0  0  0  0  0  0  0  0
   -7.5197   13.7745    0.0000 C   0  0  0  0  0  0  0  0  0  0  0  0
   -8.8187   14.5245    0.0000 C   0  0  0  0  0  0  0  0  0  0  0  0
  -10.1178   13.7745    0.0000 C   0  0  0  0  0  0  0  0  0  0  0  0
  -11.4168   14.5245    0.0000 C   0  0  0  0  0  0  0  0  0  0  0  0
  -12.7159   13.7745    0.0000 C   0  0  0  0  0  0  0  0  0  0  0  0
  -14.0149   14.5245    0.0000 C   0  0  0  0  0  0  0  0  0  0  0  0
  -15.3139   13.7745    0.0000 C   0  0  0  0  0  0  0  0  0  0  0  0
  -16.6130   14.5245    0.0000 C   0  0  0  0  0  0  0  0  0  0  0  0
  -17.9120   13.7745    0.0000 C   0  0  0  0  0  0  0  0  0  0  0  0
  -19.2111   14.5245    0.0000 C   0  0  0  0  0  0  0  0  0  0  0  0
  -19.2111   16.0245    0.0000 O   0  0  0  0  0  0  0  0  0  0  0  0
  -20.5101   13.7745    0.0000 O   0  0  0  0  0  0  0  0  0  0  0  0
  -21.8091   14.5245    0.0000 Si  0  0  0  0  0  4  0  0  0  0  0  0
  5  1  1  0
  6  5  1  0
  7  6  1  0
  8  7  1  0
  9  8  1  0
 10  9  1  0
 11 10  1  0
 12 11  1  0
 13 12  1  0
 14 13  1  0
 15 14  1  0
 16 15  1  0
 17 16  1  0
 18 17  1  0
 19 18  1  0
 20 19  1  0
 21 20  1  0
 22 21  1  0
 23 22  1  0
 24 23  1  0
 25 24  1  0
 26 25  2  0
 27 25  1  0
 28  2  1  0
 28  3  1  0
 28  4  1  0
 28 27  1  0
M  END
>  <NAME>  (5752) 
DOCOSANOIC ACID TRIMETHYLSILYL ESTER

>  <SYNONYMS>  (5752) 


>  <SPECTRUM TYPE>  (5752) 
MS1

>  <INSTRUMENT TYPE>  (5752) 
EI-B

>  <INSTRUMENT>  (5752) 
JEOL JMS-01-SG

>  <ION MODE>  (5752) 
P

>  <INCHIKEY>  (5752) 
BJBBFOVJCKMBAL-UHFFFAOYSA-N

>  <FORMULA>  (5752) 
C25H52O2Si

>  <EXACT MASS>  (5752) 
412.373657434

>  <MW>  (5752) 
412

>  <ID>  (5752) 
JP000576

>  <CONTRIBUTOR>  (5752) 
University of Tokyo Team, {Faculty of Engineering, University of Tokyo

>  <COMMENT>  (5752) 
SMILES=CCCCCCCCCCCCCCCCCCCCCC(=O)O[Si](C)(C)C
InChI=InChI=1S/C25H52O2Si/c1-5-6-7-8-9-10-11-12-13-14-15-16-17-18-19-20-21-22-23-24-25(26)27-28(2,3)4/h5-24H2,1-4H3
computed SMILES=O=C(O[Si](C)(C)C)CCCCCCCCCCCCCCCCCCCCC
accession=JP000576
date=2016.01.19 (Created 2008.10.21, modified 2011.05.06)
author=KOGA M, UNIV. OF OCCUPATIONAL AND ENVIRONMENTAL HEALTH
license=CC BY-NC-SA
exact mass=412.37366
ionization energy=70 eV
ion type=[M]+*
computed spectral entropy=2.869412451182729
computed normalized entropy=0.8611153494392991
SPLASH=splash10-05xr-9601000000-732887437f9745216b51
submitter=submitter = University of Tokyo Team (Faculty of Engineering, University of Tokyo)
MoNA Rating=3.75

>  <NUM PEAKS>  (5752) 
28

>  <MASS SPECTRAL PEAKS>  (5752) 
43 35.8
45 16.6
55 30.7
56 1.53
57 26.9
67 15.3
69 14.1
71 1.66
73 99.99
74 12.8
75 70.5
81 1.53
83 15.3
95 14.1
97 15.3
98 1.41
117 93.5
118 14.1
129 41
131 1.53
132 50
133 15.3
135 28.2
145 4.35
197 14.1
315 6.4
396 7.6
397 39.7

>  <PREDICTED SPECTRUM>  (5752) 
15 12
16 1
26 0
27 93
28 36
29 86
39 96
40 38
41 382
42 212
43 679
44 170
45 160
46 57
47 121
53 101
54 127
55 642
56 310
57 625
58 251
59 199
60 124
61 214
62 58
63 0
66 28
67 261
68 171
69 446
70 278
71 373
72 213
73 999
74 290
75 873
76 274
77 227
78 37
79 105
80 42
81 281
82 170
83 409
84 285
85 253
86 66
87 141
88 80
89 183
90 55
91 146
92 63
93 174
94 37
95 307
96 211
97 316
98 276
99 155
101 119
102 74
103 139
104 87
105 144
106 33
107 111
108 8
109 127
110 86
111 197
112 150
113 78
114 21
115 108
116 250
117 995
118 282
119 249
120 97
121 191
123 104
125 94
126 28
129 809
130 283
131 403
132 764
133 459
134 77
135 63
137 46
138 3
139 45
141 69
143 218
144 53
145 816
146 389
147 156
148 9
149 96
151 4
153 24
155 35
157 135
158 89
159 250
160 143
161 101
162 32
163 17
167 32
168 10
171 262
172 57
173 231
174 85
175 17
177 18
185 228
186 79
187 140
188 107
189 60
190 1
195 71
196 23
199 157
200 50
201 362
202 133
203 63
204 13
209 25
211 13
213 129
214 45
215 124
216 51
223 51
225 0
227 143
229 95
230 25
238 21
241 86
243 114
244 88
245 15
251 35
255 105
257 74
258 10
265 15
269 187
270 55
271 148
273 22
280 0
281 14
282 5
283 93
284 15
285 65
286 52
297 89
299 88
311 98
313 109
314 52
322 70
323 55
325 103
327 59
339 46
340 11
341 64
353 239
354 121
355 128
356 25
369 146
370 127
381 37
383 119
397 955
398 523
399 254
400 84
410 7
412 454
413 243
414 151
415 23

$$$$

     RDKit          2D

 27 26  0  0  0  0  0  0  0  0999 V2000
    7.3825   13.2623    0.0000 C   0  0  0  0  0  0  0  0  0  0  0  0
  -21.9464   14.5613    0.0000 C   0  0  0  0  0  0  0  0  0  0  0  0
  -22.4954   12.5123    0.0000 C   0  0  0  0  0  0  0  0  0  0  0  0
  -20.4464   11.9632    0.0000 C   0  0  0  0  0  0  0  0  0  0  0  0
    6.0834   14.0123    0.0000 C   0  0  0  0  0  0  0  0  0  0  0  0
    4.7844   13.2623    0.0000 C   0  0  0  0  0  0  0  0  0  0  0  0
    3.4853   14.0123    0.0000 C   0  0  0  0  0  0  0  0  0  0  0  0
    2.1863   13.2623    0.0000 C   0  0  0  0  0  0  0  0  0  0  0  0
    0.8873   14.0123    0.0000 C   0  0  0  0  0  0  0  0  0  0  0  0
   -0.4118   13.2623    0.0000 C   0  0  0  0  0  0  0  0  0  0  0  0
   -1.7108   14.0123    0.0000 C   0  0  0  0  0  0  0  0  0  0  0  0
   -3.0099   13.2623    0.0000 C   0  0  0  0  0  0  0  0  0  0  0  0
   -4.3089   14.0123    0.0000 C   0  0  0  0  0  0  0  0  0  0  0  0
   -5.6079   13.2623    0.0000 C   0  0  0  0  0  0  0  0  0  0  0  0
   -6.9070   14.0123    0.0000 C   0  0  0  0  0  0  0  0  0  0  0  0
   -8.2060   13.2623    0.0000 C   0  0  0  0  0  0  0  0  0  0  0  0
   -9.5050   14.0123    0.0000 C   0  0  0  0  0  0  0  0  0  0  0  0
  -10.8041   13.2623    0.0000 C   0  0  0  0  0  0  0  0  0  0  0  0
  -12.1031   14.0123    0.0000 C   0  0  0  0  0  0  0  0  0  0  0  0
  -13.4022   13.2623    0.0000 C   0  0  0  0  0  0  0  0  0  0  0  0
  -14.7012   14.0123    0.0000 C   0  0  0  0  0  0  0  0  0  0  0  0
  -16.0002   13.2623    0.0000 C   0  0  0  0  0  0  0  0  0  0  0  0
  -17.2993   14.0123    0.0000 C   0  0  0  0  0  0  0  0  0  0  0  0
  -18.5983   13.2623    0.0000 C   0  0  0  0  0  0  0  0  0  0  0  0
  -18.5983   11.7623    0.0000 O   0  0  0  0  0  0  0  0  0  0  0  0
  -19.8974   14.0123    0.0000 O   0  0  0  0  0  0  0  0  0  0  0  0
  -21.1964   13.2623    0.0000 Si  0  0  0  0  0  4  0  0  0  0  0  0
  5  1  1  0
  6  5  1  0
  7  6  1  0
  8  7  1  0
  9  8  1  0
 10  9  1  0
 11 10  1  0
 12 11  1  0
 13 12  1  0
 14 13  1  0
 15 14  1  0
 16 15  1  0
 17 16  1  0
 18 17  1  0
 19 18  1  0
 20 19  1  0
 21 20  1  0
 22 21  1  0
 23 22  1  0
 24 23  1  0
 25 24  2  0
 26 24  1  0
 27  2  1  0
 27  3  1  0
 27  4  1  0
 27 26  1  0
M  END
>  <NAME>  (5753) 
HENEICOSANOIC ACID TRIMETHYLSILYL ESTER

>  <SYNONYMS>  (5753) 


>  <SPECTRUM TYPE>  (5753) 
MS1

>  <INSTRUMENT TYPE>  (5753) 
EI-B

>  <INSTRUMENT>  (5753) 
JEOL JMS-01-SG

>  <ION MODE>  (5753) 
P

>  <INCHIKEY>  (5753) 
RZWSAJMDACSTKQ-UHFFFAOYSA-N

>  <FORMULA>  (5753) 
C24H50O2Si

>  <EXACT MASS>  (5753) 
398.35800737

>  <MW>  (5753) 
398

>  <ID>  (5753) 
JP000575

>  <CONTRIBUTOR>  (5753) 
University of Tokyo Team, {Faculty of Engineering, University of Tokyo

>  <COMMENT>  (5753) 
SMILES=CCCCCCCCCCCCCCCCCCCCC(=O)O[Si](C)(C)C
InChI=InChI=1S/C24H50O2Si/c1-5-6-7-8-9-10-11-12-13-14-15-16-17-18-19-20-21-22-23-24(25)26-27(2,3)4/h5-23H2,1-4H3
computed SMILES=O=C(O[Si](C)(C)C)CCCCCCCCCCCCCCCCCCCC
accession=JP000575
date=2016.01.19 (Created 2008.10.21, modified 2011.05.06)
author=KOGA M, UNIV. OF OCCUPATIONAL AND ENVIRONMENTAL HEALTH
license=CC BY-NC-SA
exact mass=398.35801
ionization energy=70 eV
ion type=[M]+*
computed spectral entropy=2.783922747482583
computed normalized entropy=0.8446785628858022
SPLASH=splash10-017i-7902000000-5ee59add83267bba0208
submitter=submitter = University of Tokyo Team (Faculty of Engineering, University of Tokyo)
MoNA Rating=3.75

>  <NUM PEAKS>  (5753) 
27

>  <MASS SPECTRAL PEAKS>  (5753) 
43 20.4
45 7.6
55 15.7
57 1.73
67 7.6
69 8.9
71 9.4
73 4.96
74 9.1
75 50.3
81 9.9
83 0.91
85 6
95 10.2
97 9.9
117 99.99
118 9.1
129 35.6
131 14.6
132 4.14
133 10.2
145 31.7
201 10.2
207 1.18
355 6
383 36.4
398 6.5

>  <PREDICTED SPECTRUM>  (5753) 
26 3
27 63
28 55
29 105
39 102
40 36
41 385
42 211
43 660
44 165
45 167
46 89
47 126
53 104
54 126
55 626
56 307
57 597
58 241
59 187
60 108
61 235
62 44
63 5
66 2
67 246
68 148
69 434
70 244
71 351
72 194
73 999
74 274
75 876
76 276
77 234
78 51
79 117
80 45
81 282
82 164
83 400
84 284
85 242
86 56
87 91
88 70
89 170
90 71
91 155
92 58
93 125
94 32
95 295
96 204
97 302
98 276
99 147
100 2
101 103
102 64
103 168
104 75
105 186
106 77
107 144
108 31
109 105
110 73
111 189
112 144
113 61
114 6
115 144
116 263
117 973
118 275
119 207
121 143
123 112
125 85
129 796
130 276
131 416
132 745
133 446
134 115
135 130
137 31
139 49
141 73
143 268
144 98
145 794
146 388
147 180
148 63
149 73
151 12
152 13
153 51
155 23
157 102
158 66
159 283
160 119
161 47
163 27
165 5
170 12
171 242
172 80
173 144
174 66
175 41
176 7
181 81
182 27
183 44
185 229
186 65
187 209
188 128
189 58
190 16
195 37
199 177
200 67
201 345
202 128
203 10
209 49
211 6
213 91
215 97
216 28
223 4
224 45
227 128
229 106
230 91
231 17
237 81
238 4
239 5
241 107
243 78
244 15
251 9
255 116
256 6
257 130
265 10
267 20
268 26
269 164
270 35
271 94
272 47
273 41
283 94
285 85
297 98
299 103
300 51
308 70
309 91
310 15
311 105
313 47
325 53
326 6
327 74
339 231
340 127
341 127
342 25
355 145
356 120
367 37
369 116
383 961
384 498
385 238
386 83
398 435
399 220
400 135

$$$$

     RDKit          2D

 26 25  0  0  0  0  0  0  0  0999 V2000
  -21.9096   12.8505    0.0000 C   0  0  0  0  0  0  0  0  0  0  0  0
    4.6202   10.8014    0.0000 C   0  0  0  0  0  0  0  0  0  0  0  0
    6.6692   11.3505    0.0000 C   0  0  0  0  0  0  0  0  0  0  0  0
    6.1202   13.3995    0.0000 C   0  0  0  0  0  0  0  0  0  0  0  0
  -20.6106   12.1005    0.0000 C   0  0  0  0  0  0  0  0  0  0  0  0
  -19.3115   12.8505    0.0000 C   0  0  0  0  0  0  0  0  0  0  0  0
  -18.0125   12.1005    0.0000 C   0  0  0  0  0  0  0  0  0  0  0  0
  -16.7135   12.8505    0.0000 C   0  0  0  0  0  0  0  0  0  0  0  0
  -15.4144   12.1005    0.0000 C   0  0  0  0  0  0  0  0  0  0  0  0
  -14.1154   12.8505    0.0000 C   0  0  0  0  0  0  0  0  0  0  0  0
  -12.8163   12.1005    0.0000 C   0  0  0  0  0  0  0  0  0  0  0  0
  -11.5173   12.8505    0.0000 C   0  0  0  0  0  0  0  0  0  0  0  0
  -10.2183   12.1005    0.0000 C   0  0  0  0  0  0  0  0  0  0  0  0
   -8.9192   12.8505    0.0000 C   0  0  0  0  0  0  0  0  0  0  0  0
   -7.6202   12.1005    0.0000 C   0  0  0  0  0  0  0  0  0  0  0  0
   -6.3212   12.8505    0.0000 C   0  0  0  0  0  0  0  0  0  0  0  0
   -5.0221   12.1005    0.0000 C   0  0  0  0  0  0  0  0  0  0  0  0
   -3.7231   12.8505    0.0000 C   0  0  0  0  0  0  0  0  0  0  0  0
   -2.4240   12.1005    0.0000 C   0  0  0  0  0  0  0  0  0  0  0  0
   -1.1250   12.8505    0.0000 C   0  0  0  0  0  0  0  0  0  0  0  0
    0.1740   12.1005    0.0000 C   0  0  0  0  0  0  0  0  0  0  0  0
    1.4731   12.8505    0.0000 C   0  0  0  0  0  0  0  0  0  0  0  0
    2.7721   12.1005    0.0000 C   0  0  0  0  0  0  0  0  0  0  0  0
    2.7721   10.6005    0.0000 O   0  0  0  0  0  0  0  0  0  0  0  0
    4.0712   12.8505    0.0000 O   0  0  0  0  0  0  0  0  0  0  0  0
    5.3702   12.1005    0.0000 Si  0  0  0  0  0  4  0  0  0  0  0  0
  5  1  1  0
  6  5  1  0
  7  6  1  0
  8  7  1  0
  9  8  1  0
 10  9  1  0
 11 10  1  0
 12 11  1  0
 13 12  1  0
 14 13  1  0
 15 14  1  0
 16 15  1  0
 17 16  1  0
 18 17  1  0
 19 18  1  0
 20 19  1  0
 21 20  1  0
 22 21  1  0
 23 22  1  0
 24 23  2  0
 25 23  1  0
 26  2  1  0
 26  3  1  0
 26  4  1  0
 26 25  1  0
M  END
>  <NAME>  (5754) 
EICOSANOIC ACID TRIMETHYLSILYL ESTER

>  <SYNONYMS>  (5754) 


>  <SPECTRUM TYPE>  (5754) 
MS1

>  <INSTRUMENT TYPE>  (5754) 
EI-B

>  <INSTRUMENT>  (5754) 
JEOL JMS-01-SG

>  <ION MODE>  (5754) 
P

>  <INCHIKEY>  (5754) 
AYSGFBVOWSXJCN-UHFFFAOYSA-N

>  <FORMULA>  (5754) 
C23H48O2Si

>  <EXACT MASS>  (5754) 
384.342357306

>  <MW>  (5754) 
384

>  <ID>  (5754) 
JP000574

>  <CONTRIBUTOR>  (5754) 
University of Tokyo Team, {Faculty of Engineering, University of Tokyo

>  <COMMENT>  (5754) 
SMILES=CCCCCCCCCCCCCCCCCCCC(=O)O[Si](C)(C)C
cas=55530-70-6
InChI=InChI=1S/C23H48O2Si/c1-5-6-7-8-9-10-11-12-13-14-15-16-17-18-19-20-21-22-23(24)25-26(2,3)4/h5-22H2,1-4H3
computed SMILES=O=C(O[Si](C)(C)C)CCCCCCCCCCCCCCCCCCC
accession=JP000574
date=2016.01.19 (Created 2008.10.21, modified 2011.05.06)
author=KOGA M, UNIV. OF OCCUPATIONAL AND ENVIRONMENTAL HEALTH
license=CC BY-NC-SA
exact mass=384.34236
ionization energy=70 eV
ion type=[M]+*
computed spectral entropy=2.71083399207639
computed normalized entropy=0.8421679305343776
SPLASH=splash10-01e9-9610000000-9c498a62c7ed6c4756c3
submitter=submitter = University of Tokyo Team (Faculty of Engineering, University of Tokyo)
MoNA Rating=3.75

>  <NUM PEAKS>  (5754) 
25

>  <MASS SPECTRAL PEAKS>  (5754) 
43 28.6
45 10.5
55 29.6
56 0.95
57 10
67 10.5
69 20.7
71 1.08
73 88.8
74 11.5
75 70.7
83 1.31
95 10.5
117 99.99
118 10.5
129 4.57
131 19.4
132 49.7
133 13.1
145 4.21
201 12.5
209 17.4
220 17.1
369 6.08
370 19.4

>  <PREDICTED SPECTRUM>  (5754) 
15 5
27 78
28 34
29 119
39 104
40 39
41 384
42 211
43 640
44 160
45 171
46 80
47 141
53 97
54 122
55 612
56 288
57 562
58 213
59 203
60 67
61 196
62 43
63 11
66 11
67 244
68 145
69 423
70 236
71 327
72 182
73 999
74 270
75 882
76 280
77 244
78 49
79 103
80 42
81 275
82 154
83 388
84 281
85 229
86 62
87 70
88 58
89 182
90 65
91 201
92 65
93 169
94 44
95 283
96 197
97 290
98 277
99 127
101 123
102 59
103 123
104 60
105 144
107 116
108 7
109 123
110 56
111 178
112 132
113 57
114 13
115 110
116 280
117 956
118 275
119 218
120 44
121 185
123 104
125 83
126 7
127 10
129 785
130 309
131 405
132 729
133 430
134 146
135 107
136 6
137 40
138 19
139 68
141 57
143 243
144 59
145 773
146 372
147 146
148 22
149 86
151 24
152 26
153 25
155 17
156 22
157 52
158 84
159 214
160 88
161 60
163 6
167 75
168 44
169 55
170 6
171 256
172 64
173 211
174 84
175 43
176 16
181 40
183 16
185 222
186 81
187 166
188 125
195 72
196 3
199 156
201 328
202 110
209 0
210 29
213 80
215 97
216 76
217 20
223 113
224 19
225 19
227 136
229 87
230 29
237 38
241 116
242 6
243 131
251 4
253 5
255 93
257 81
258 55
259 24
269 156
271 110
273 16
283 110
284 27
285 91
286 55
294 75
295 86
296 28
297 106
299 46
311 59
312 11
313 70
325 231
326 96
327 112
328 22
341 136
342 114
353 48
355 118
369 952
370 519
371 260
372 83
384 383
385 191
386 123
387 6

$$$$

     RDKit          2D

 25 24  0  0  0  0  0  0  0  0999 V2000
    6.7329   12.1373    0.0000 C   0  0  0  0  0  0  0  0  0  0  0  0
  -19.9978   13.4363    0.0000 C   0  0  0  0  0  0  0  0  0  0  0  0
  -20.5469   11.3873    0.0000 C   0  0  0  0  0  0  0  0  0  0  0  0
  -18.4978   10.8382    0.0000 C   0  0  0  0  0  0  0  0  0  0  0  0
    5.4339   12.8873    0.0000 C   0  0  0  0  0  0  0  0  0  0  0  0
    4.1349   12.1373    0.0000 C   0  0  0  0  0  0  0  0  0  0  0  0
    2.8358   12.8873    0.0000 C   0  0  0  0  0  0  0  0  0  0  0  0
    1.5368   12.1373    0.0000 C   0  0  0  0  0  0  0  0  0  0  0  0
    0.2377   12.8873    0.0000 C   0  0  0  0  0  0  0  0  0  0  0  0
   -1.0613   12.1373    0.0000 C   0  0  0  0  0  0  0  0  0  0  0  0
   -2.3603   12.8873    0.0000 C   0  0  0  0  0  0  0  0  0  0  0  0
   -3.6594   12.1373    0.0000 C   0  0  0  0  0  0  0  0  0  0  0  0
   -4.9584   12.8873    0.0000 C   0  0  0  0  0  0  0  0  0  0  0  0
   -6.2575   12.1373    0.0000 C   0  0  0  0  0  0  0  0  0  0  0  0
   -7.5565   12.8873    0.0000 C   0  0  0  0  0  0  0  0  0  0  0  0
   -8.8555   12.1373    0.0000 C   0  0  0  0  0  0  0  0  0  0  0  0
  -10.1546   12.8873    0.0000 C   0  0  0  0  0  0  0  0  0  0  0  0
  -11.4536   12.1373    0.0000 C   0  0  0  0  0  0  0  0  0  0  0  0
  -12.7526   12.8873    0.0000 C   0  0  0  0  0  0  0  0  0  0  0  0
  -14.0517   12.1373    0.0000 C   0  0  0  0  0  0  0  0  0  0  0  0
  -15.3507   12.8873    0.0000 C   0  0  0  0  0  0  0  0  0  0  0  0
  -16.6498   12.1373    0.0000 C   0  0  0  0  0  0  0  0  0  0  0  0
  -16.6498   10.6373    0.0000 O   0  0  0  0  0  0  0  0  0  0  0  0
  -17.9488   12.8873    0.0000 O   0  0  0  0  0  0  0  0  0  0  0  0
  -19.2478   12.1373    0.0000 Si  0  0  0  0  0  4  0  0  0  0  0  0
  5  1  1  0
  6  5  1  0
  7  6  1  0
  8  7  1  0
  9  8  1  0
 10  9  1  0
 11 10  1  0
 12 11  1  0
 13 12  1  0
 14 13  1  0
 15 14  1  0
 16 15  1  0
 17 16  1  0
 18 17  1  0
 19 18  1  0
 20 19  1  0
 21 20  1  0
 22 21  1  0
 23 22  2  0
 24 22  1  0
 25  2  1  0
 25  3  1  0
 25  4  1  0
 25 24  1  0
M  END
>  <NAME>  (5755) 
NONADECANOIC ACID TRIMETHYLSILYL ESTER

>  <SYNONYMS>  (5755) 


>  <SPECTRUM TYPE>  (5755) 
MS1

>  <INSTRUMENT TYPE>  (5755) 
EI-B

>  <INSTRUMENT>  (5755) 
JEOL JMS-01-SG

>  <ION MODE>  (5755) 
P

>  <INCHIKEY>  (5755) 
DQTLRECATIBSSN-UHFFFAOYSA-N

>  <FORMULA>  (5755) 
C22H46O2Si

>  <EXACT MASS>  (5755) 
370.326707242

>  <MW>  (5755) 
370

>  <ID>  (5755) 
JP000573

>  <CONTRIBUTOR>  (5755) 
University of Tokyo Team, {Faculty of Engineering, University of Tokyo

>  <COMMENT>  (5755) 
SMILES=CCCCCCCCCCCCCCCCCCC(=O)O[Si](C)(C)C
InChI=InChI=1S/C22H46O2Si/c1-5-6-7-8-9-10-11-12-13-14-15-16-17-18-19-20-21-22(23)24-25(2,3)4/h5-21H2,1-4H3
computed SMILES=O=C(O[Si](C)(C)C)CCCCCCCCCCCCCCCCCC
accession=JP000573
date=2016.01.19 (Created 2008.10.21, modified 2011.05.06)
author=KOGA M, UNIV. OF OCCUPATIONAL AND ENVIRONMENTAL HEALTH
license=CC BY-NC-SA
exact mass=370.32671
ionization energy=70 eV
ion type=[M]+*
computed spectral entropy=2.8445296892997205
computed normalized entropy=0.8283460362299742
SPLASH=splash10-05ir-9301000000-5950726c32dfaab02002
submitter=submitter = University of Tokyo Team (Faculty of Engineering, University of Tokyo)
MoNA Rating=3.75

>  <NUM PEAKS>  (5755) 
31

>  <MASS SPECTRAL PEAKS>  (5755) 
43 27.5
45 9
55 24.1
56 0.58
57 16.9
61 5.8
67 10.1
69 1.21
70 5.4
71 5.8
73 99.99
74 0.6
75 51.6
77 9
83 13
85 0.56
88 5.6
95 7.9
98 8.1
117 8.98
118 10.8
119 7.4
129 33.6
131 1.35
132 38.1
133 5.8
143 5.8
145 3.06
201 9
355 32.9
370 5.1

>  <PREDICTED SPECTRUM>  (5755) 
15 13
18 6
26 10
27 67
28 55
29 139
32 2
39 102
40 33
41 374
42 204
43 604
44 146
45 176
46 64
47 114
53 101
54 121
55 601
56 280
57 522
58 185
59 163
60 62
61 199
62 55
63 16
66 6
67 237
68 135
69 414
70 230
71 302
72 181
73 999
74 268
75 885
76 275
77 258
78 58
79 120
80 48
81 267
82 144
83 376
84 277
85 209
86 55
87 92
88 51
89 144
90 55
91 139
92 44
93 131
94 34
95 275
96 189
97 279
98 275
99 124
101 109
102 49
103 158
104 64
105 165
106 33
107 149
108 10
109 107
110 46
111 170
112 129
113 55
114 11
115 161
116 337
117 935
118 274
119 215
120 72
121 153
123 100
125 87
126 20
129 761
130 279
131 409
132 706
133 408
134 128
135 123
136 19
137 50
138 33
139 48
141 44
142 4
143 215
144 84
145 741
146 349
147 157
148 43
149 74
151 8
152 24
153 90
154 21
155 64
156 10
157 87
158 70
159 263
160 105
161 66
162 3
167 25
169 24
171 259
172 83
173 182
174 90
181 80
182 11
183 19
185 189
186 4
187 139
188 87
195 9
196 66
199 158
200 27
201 307
202 130
203 47
209 108
210 5
211 31
213 97
215 88
216 36
223 58
224 4
227 135
229 126
230 3
237 25
238 45
239 28
240 24
241 98
242 1
243 91
244 57
245 29
255 98
257 83
269 157
270 31
271 116
272 45
273 1
280 72
281 100
282 18
283 118
284 33
285 56
297 60
298 12
299 68
311 204
312 102
313 117
314 18
327 119
328 79
338 4
339 63
341 112
355 979
356 506
357 255
358 77
370 358
371 179
372 103
373 2

$$$$

     RDKit          2D

 24 23  0  0  0  0  0  0  0  0999 V2000
  -19.9611   11.7255    0.0000 C   0  0  0  0  0  0  0  0  0  0  0  0
    3.9707    9.6764    0.0000 C   0  0  0  0  0  0  0  0  0  0  0  0
    6.0197   10.2255    0.0000 C   0  0  0  0  0  0  0  0  0  0  0  0
    5.4707   12.2745    0.0000 C   0  0  0  0  0  0  0  0  0  0  0  0
  -18.6620   10.9755    0.0000 C   0  0  0  0  0  0  0  0  0  0  0  0
  -17.3630   11.7255    0.0000 C   0  0  0  0  0  0  0  0  0  0  0  0
  -16.0639   10.9755    0.0000 C   0  0  0  0  0  0  0  0  0  0  0  0
  -14.7649   11.7255    0.0000 C   0  0  0  0  0  0  0  0  0  0  0  0
  -13.4659   10.9755    0.0000 C   0  0  0  0  0  0  0  0  0  0  0  0
  -12.1668   11.7255    0.0000 C   0  0  0  0  0  0  0  0  0  0  0  0
  -10.8678   10.9755    0.0000 C   0  0  0  0  0  0  0  0  0  0  0  0
   -9.5687   11.7255    0.0000 C   0  0  0  0  0  0  0  0  0  0  0  0
   -8.2697   10.9755    0.0000 C   0  0  0  0  0  0  0  0  0  0  0  0
   -6.9707   11.7255    0.0000 C   0  0  0  0  0  0  0  0  0  0  0  0
   -5.6716   10.9755    0.0000 C   0  0  0  0  0  0  0  0  0  0  0  0
   -4.3726   11.7255    0.0000 C   0  0  0  0  0  0  0  0  0  0  0  0
   -3.0736   10.9755    0.0000 C   0  0  0  0  0  0  0  0  0  0  0  0
   -1.7745   11.7255    0.0000 C   0  0  0  0  0  0  0  0  0  0  0  0
   -0.4755   10.9755    0.0000 C   0  0  0  0  0  0  0  0  0  0  0  0
    0.8236   11.7255    0.0000 C   0  0  0  0  0  0  0  0  0  0  0  0
    2.1226   10.9755    0.0000 C   0  0  0  0  0  0  0  0  0  0  0  0
    2.1226    9.4755    0.0000 O   0  0  0  0  0  0  0  0  0  0  0  0
    3.4216   11.7255    0.0000 O   0  0  0  0  0  0  0  0  0  0  0  0
    4.7207   10.9755    0.0000 Si  0  0  0  0  0  4  0  0  0  0  0  0
  5  1  1  0
  6  5  1  0
  7  6  1  0
  8  7  1  0
  9  8  1  0
 10  9  1  0
 11 10  1  0
 12 11  1  0
 13 12  1  0
 14 13  1  0
 15 14  1  0
 16 15  1  0
 17 16  1  0
 18 17  1  0
 19 18  1  0
 20 19  1  0
 21 20  1  0
 22 21  2  0
 23 21  1  0
 24  2  1  0
 24  3  1  0
 24  4  1  0
 24 23  1  0
M  END
>  <NAME>  (5756) 
OCTADECANOIC ACID TRIMETHYLSILYL ESTER

>  <SYNONYMS>  (5756) 


>  <SPECTRUM TYPE>  (5756) 
MS1

>  <INSTRUMENT TYPE>  (5756) 
EI-B

>  <INSTRUMENT>  (5756) 
JEOL JMS-01-SG

>  <ION MODE>  (5756) 
P

>  <INCHIKEY>  (5756) 
DDLPZVTUKLKVQB-UHFFFAOYSA-N

>  <FORMULA>  (5756) 
C21H44O2Si

>  <EXACT MASS>  (5756) 
356.311057178

>  <MW>  (5756) 
356

>  <ID>  (5756) 
JP000572

>  <CONTRIBUTOR>  (5756) 
University of Tokyo Team, {Faculty of Engineering, University of Tokyo

>  <COMMENT>  (5756) 
SMILES=CCCCCCCCCCCCCCCCCC(=O)O[Si](C)(C)C
cas=18748-91-9
InChI=InChI=1S/C21H44O2Si/c1-5-6-7-8-9-10-11-12-13-14-15-16-17-18-19-20-21(22)23-24(2,3)4/h5-20H2,1-4H3
computed SMILES=O=C(O[Si](C)(C)C)CCCCCCCCCCCCCCCCC
accession=JP000572
date=2016.01.19 (Created 2008.10.21, modified 2011.05.06)
author=KOGA M, UNIV. OF OCCUPATIONAL AND ENVIRONMENTAL HEALTH
license=CC BY-NC-SA
exact mass=356.31106
ionization energy=70 eV
ion type=[M]+*
computed spectral entropy=2.1913497567498816
computed normalized entropy=0.8091983508496169
SPLASH=splash10-00xr-9600000000-b8666b4a871511e0a1cd
submitter=submitter = University of Tokyo Team (Faculty of Engineering, University of Tokyo)
MoNA Rating=3.75

>  <NUM PEAKS>  (5756) 
15

>  <MASS SPECTRAL PEAKS>  (5756) 
43 30.6
55 25.4
57 16.9
67 1.01
69 11.1
73 99.99
74 10
75 6.33
117 83.2
129 35.1
131 10.6
132 3.52
145 17.9
341 16.6
356 2

>  <PREDICTED SPECTRUM>  (5756) 
15 19
18 9
26 1
27 60
28 34
29 122
32 5
39 98
40 32
41 361
42 195
43 560
44 130
45 178
46 59
47 114
53 101
54 122
55 587
56 273
57 481
58 167
59 150
60 56
61 210
62 45
63 22
66 23
67 231
68 129
69 402
70 218
71 273
72 170
73 999
74 267
75 881
76 268
77 242
78 39
79 105
80 43
81 264
82 131
83 360
84 267
85 201
86 68
87 74
88 40
89 167
90 60
91 161
92 50
93 178
94 33
95 263
96 183
97 267
98 273
99 122
101 133
102 96
103 140
104 73
105 163
106 60
107 124
108 3
109 108
110 63
111 164
112 124
113 44
115 124
116 316
117 913
118 269
119 186
120 25
121 148
123 94
124 16
125 78
129 732
130 289
131 370
132 681
133 388
134 142
135 112
136 11
137 30
138 24
139 82
141 68
143 237
144 64
145 719
146 337
147 166
148 45
149 8
152 0
153 44
155 52
157 118
158 86
159 247
160 122
167 65
168 23
169 29
171 243
173 167
174 64
181 10
182 65
185 174
186 56
187 119
188 121
189 53
195 132
196 40
199 166
200 1
201 285
202 105
203 1
209 51
213 106
214 16
215 115
216 12
223 37
224 60
225 53
226 3
227 117
229 101
230 62
231 38
238 4
241 99
243 80
255 118
256 3
257 77
258 43
266 29
267 97
268 25
269 151
270 25
271 89
273 3
283 65
284 48
285 70
297 191
298 93
299 109
300 13
313 126
314 103
323 27
325 74
327 108
341 949
342 506
343 245
344 64
356 307
357 152
358 74
359 19

$$$$

     RDKit          2D

 23 22  0  0  0  0  0  0  0  0999 V2000
    6.0834   11.0123    0.0000 C   0  0  0  0  0  0  0  0  0  0  0  0
  -18.0493   12.3113    0.0000 C   0  0  0  0  0  0  0  0  0  0  0  0
  -18.5983   10.2623    0.0000 C   0  0  0  0  0  0  0  0  0  0  0  0
  -16.5493    9.7132    0.0000 C   0  0  0  0  0  0  0  0  0  0  0  0
    4.7844   11.7623    0.0000 C   0  0  0  0  0  0  0  0  0  0  0  0
    3.4853   11.0123    0.0000 C   0  0  0  0  0  0  0  0  0  0  0  0
    2.1863   11.7623    0.0000 C   0  0  0  0  0  0  0  0  0  0  0  0
    0.8873   11.0123    0.0000 C   0  0  0  0  0  0  0  0  0  0  0  0
   -0.4118   11.7623    0.0000 C   0  0  0  0  0  0  0  0  0  0  0  0
   -1.7108   11.0123    0.0000 C   0  0  0  0  0  0  0  0  0  0  0  0
   -3.0099   11.7623    0.0000 C   0  0  0  0  0  0  0  0  0  0  0  0
   -4.3089   11.0123    0.0000 C   0  0  0  0  0  0  0  0  0  0  0  0
   -5.6079   11.7623    0.0000 C   0  0  0  0  0  0  0  0  0  0  0  0
   -6.9070   11.0123    0.0000 C   0  0  0  0  0  0  0  0  0  0  0  0
   -8.2060   11.7623    0.0000 C   0  0  0  0  0  0  0  0  0  0  0  0
   -9.5050   11.0123    0.0000 C   0  0  0  0  0  0  0  0  0  0  0  0
  -10.8041   11.7623    0.0000 C   0  0  0  0  0  0  0  0  0  0  0  0
  -12.1031   11.0123    0.0000 C   0  0  0  0  0  0  0  0  0  0  0  0
  -13.4022   11.7623    0.0000 C   0  0  0  0  0  0  0  0  0  0  0  0
  -14.7012   11.0123    0.0000 C   0  0  0  0  0  0  0  0  0  0  0  0
  -14.7012    9.5123    0.0000 O   0  0  0  0  0  0  0  0  0  0  0  0
  -16.0002   11.7623    0.0000 O   0  0  0  0  0  0  0  0  0  0  0  0
  -17.2993   11.0123    0.0000 Si  0  0  0  0  0  4  0  0  0  0  0  0
  5  1  1  0
  6  5  1  0
  7  6  1  0
  8  7  1  0
  9  8  1  0
 10  9  1  0
 11 10  1  0
 12 11  1  0
 13 12  1  0
 14 13  1  0
 15 14  1  0
 16 15  1  0
 17 16  1  0
 18 17  1  0
 19 18  1  0
 20 19  1  0
 21 20  2  0
 22 20  1  0
 23  2  1  0
 23  3  1  0
 23  4  1  0
 23 22  1  0
M  END
>  <NAME>  (5757) 
HEPTADECANOIC ACID TRIMETHYLSILYL ESTER

>  <SYNONYMS>  (5757) 


>  <SPECTRUM TYPE>  (5757) 
MS1

>  <INSTRUMENT TYPE>  (5757) 
EI-B

>  <INSTRUMENT>  (5757) 
JEOL JMS-01-SG

>  <ION MODE>  (5757) 
P

>  <INCHIKEY>  (5757) 
KCEZRIREPDDPDI-UHFFFAOYSA-N

>  <FORMULA>  (5757) 
C20H42O2Si

>  <EXACT MASS>  (5757) 
342.295407114

>  <MW>  (5757) 
342

>  <ID>  (5757) 
JP000571

>  <CONTRIBUTOR>  (5757) 
University of Tokyo Team, {Faculty of Engineering, University of Tokyo

>  <COMMENT>  (5757) 
SMILES=CCCCCCCCCCCCCCCCC(=O)O[Si](C)(C)C
cas=55517-58-3
InChI=InChI=1S/C20H42O2Si/c1-5-6-7-8-9-10-11-12-13-14-15-16-17-18-19-20(21)22-23(2,3)4/h5-19H2,1-4H3
computed SMILES=O=C(O[Si](C)(C)C)CCCCCCCCCCCCCCCC
accession=JP000571
date=2016.01.19 (Created 2008.10.21, modified 2011.05.06)
author=KOGA M, UNIV. OF OCCUPATIONAL AND ENVIRONMENTAL HEALTH
license=CC BY-NC-SA
exact mass=342.29541
ionization energy=70 eV
ion type=[M]+*
computed spectral entropy=2.7521023435381298
computed normalized entropy=0.8903476367812616
SPLASH=splash10-004l-9400000000-6066e276b259f23368f9
submitter=submitter = University of Tokyo Team (Faculty of Engineering, University of Tokyo)
MoNA Rating=3.75

>  <NUM PEAKS>  (5757) 
22

>  <MASS SPECTRAL PEAKS>  (5757) 
41 50
43 38.9
55 23.7
56 1.94
69 16.9
70 17.7
73 32.2
75 99.99
76 19.4
79 18.6
81 10.1
85 1.94
95 21.1
105 20.3
109 17.7
111 1.94
117 58.4
129 41.5
132 27.9
145 1.44
207 11.8
327 22.8

>  <PREDICTED SPECTRUM>  (5757) 
15 12
17 1
18 8
26 8
27 98
28 37
29 102
32 7
39 92
40 26
41 342
42 185
43 515
44 117
45 179
46 54
47 113
49 0
53 100
54 122
55 574
56 264
57 441
58 141
59 170
60 55
61 201
62 34
63 15
66 13
67 229
68 116
69 391
70 190
71 249
72 182
73 999
74 264
75 879
76 267
77 253
78 52
79 123
80 45
81 257
82 119
83 347
84 257
85 193
86 67
87 98
88 85
89 148
90 66
91 140
92 51
93 150
94 25
95 255
96 179
97 258
98 272
99 113
101 112
102 60
103 158
104 58
105 146
106 23
107 125
108 10
109 112
110 72
111 153
112 108
113 38
114 20
115 88
116 335
117 891
118 265
119 177
120 34
121 132
123 79
125 88
126 36
127 34
129 714
130 272
131 395
132 659
133 365
134 141
135 49
139 46
141 50
143 264
144 87
145 696
146 331
147 106
149 10
152 5
153 84
154 13
155 57
157 100
158 10
159 223
160 79
168 76
171 234
172 50
173 143
174 87
175 37
181 135
182 43
183 44
185 163
186 30
187 122
188 87
189 4
195 65
196 18
199 172
200 44
201 273
202 83
203 8
209 29
210 25
211 67
212 28
213 89
214 15
215 99
216 55
217 54
224 4
227 107
229 81
241 122
242 6
243 66
244 39
253 47
255 123
256 7
257 60
269 96
270 30
271 102
273 5
283 189
284 90
285 97
286 12
299 120
300 99
309 14
311 76
313 107
327 691
328 346
329 240
330 70
342 264
343 122
344 45

$$$$

     RDKit          2D

 21 20  0  0  0  0  0  0  0  0999 V2000
    5.4339    9.8873    0.0000 C   0  0  0  0  0  0  0  0  0  0  0  0
  -16.1007   11.1863    0.0000 C   0  0  0  0  0  0  0  0  0  0  0  0
  -16.6498    9.1373    0.0000 C   0  0  0  0  0  0  0  0  0  0  0  0
  -14.6007    8.5882    0.0000 C   0  0  0  0  0  0  0  0  0  0  0  0
    4.1349   10.6373    0.0000 C   0  0  0  0  0  0  0  0  0  0  0  0
    2.8358    9.8873    0.0000 C   0  0  0  0  0  0  0  0  0  0  0  0
    1.5368   10.6373    0.0000 C   0  0  0  0  0  0  0  0  0  0  0  0
    0.2377    9.8873    0.0000 C   0  0  0  0  0  0  0  0  0  0  0  0
   -1.0613   10.6373    0.0000 C   0  0  0  0  0  0  0  0  0  0  0  0
   -2.3603    9.8873    0.0000 C   0  0  0  0  0  0  0  0  0  0  0  0
   -3.6594   10.6373    0.0000 C   0  0  0  0  0  0  0  0  0  0  0  0
   -4.9584    9.8873    0.0000 C   0  0  0  0  0  0  0  0  0  0  0  0
   -6.2575   10.6373    0.0000 C   0  0  0  0  0  0  0  0  0  0  0  0
   -7.5565    9.8873    0.0000 C   0  0  0  0  0  0  0  0  0  0  0  0
   -8.8555   10.6373    0.0000 C   0  0  0  0  0  0  0  0  0  0  0  0
  -10.1546    9.8873    0.0000 C   0  0  0  0  0  0  0  0  0  0  0  0
  -11.4536   10.6373    0.0000 C   0  0  0  0  0  0  0  0  0  0  0  0
  -12.7526    9.8873    0.0000 C   0  0  0  0  0  0  0  0  0  0  0  0
  -12.7526    8.3873    0.0000 O   0  0  0  0  0  0  0  0  0  0  0  0
  -14.0517   10.6373    0.0000 O   0  0  0  0  0  0  0  0  0  0  0  0
  -15.3507    9.8873    0.0000 Si  0  0  0  0  0  4  0  0  0  0  0  0
  5  1  1  0
  6  5  1  0
  7  6  1  0
  8  7  1  0
  9  8  1  0
 10  9  1  0
 11 10  1  0
 12 11  1  0
 13 12  1  0
 14 13  1  0
 15 14  1  0
 16 15  1  0
 17 16  1  0
 18 17  1  0
 19 18  2  0
 20 18  1  0
 21  2  1  0
 21  3  1  0
 21  4  1  0
 21 20  1  0
M  END
>  <NAME>  (5758) 
PENTADECANOIC ACID TRIMETHYLSILYL ESTER

>  <SYNONYMS>  (5758) 


>  <SPECTRUM TYPE>  (5758) 
MS1

>  <INSTRUMENT TYPE>  (5758) 
EI-B

>  <INSTRUMENT>  (5758) 
JEOL JMS-01-SG

>  <ION MODE>  (5758) 
P

>  <INCHIKEY>  (5758) 
SHDTWSQDHLKGEO-UHFFFAOYSA-N

>  <FORMULA>  (5758) 
C18H38O2Si

>  <EXACT MASS>  (5758) 
314.264106986

>  <MW>  (5758) 
314

>  <ID>  (5758) 
JP000569

>  <CONTRIBUTOR>  (5758) 
University of Tokyo Team, {Faculty of Engineering, University of Tokyo

>  <COMMENT>  (5758) 
SMILES=CCCCCCCCCCCCCCC(=O)O[Si](C)(C)C
InChI=InChI=1S/C18H38O2Si/c1-5-6-7-8-9-10-11-12-13-14-15-16-17-18(19)20-21(2,3)4/h5-17H2,1-4H3
computed SMILES=O=C(O[Si](C)(C)C)CCCCCCCCCCCCCC
accession=JP000569
date=2016.01.19 (Created 2008.10.21, modified 2011.05.06)
author=KOGA M, UNIV. OF OCCUPATIONAL AND ENVIRONMENTAL HEALTH
license=CC BY-NC-SA
exact mass=314.26411
ionization energy=70 eV
ion type=[M]+*
computed spectral entropy=2.2683923052720525
computed normalized entropy=0.8006429554734736
SPLASH=splash10-00vl-9300000000-6f7de1f221ae383e1914
submitter=submitter = University of Tokyo Team (Faculty of Engineering, University of Tokyo)
MoNA Rating=3.75

>  <NUM PEAKS>  (5758) 
17

>  <MASS SPECTRAL PEAKS>  (5758) 
43 99.99
45 11.3
47 8.2
55 2.66
57 13.6
69 12.9
73 97.1
74 0.74
75 84.7
77 18
117 74.4
129 2.71
131 12.6
132 29.1
145 20.6
298 1.26
299 22.4

>  <PREDICTED SPECTRUM>  (5758) 
15 2
18 5
26 4
27 83
28 42
29 63
32 12
39 83
40 14
41 316
42 175
43 440
44 120
45 195
46 53
47 123
49 2
53 97
54 115
55 552
56 240
57 386
58 119
59 173
60 95
61 211
62 34
63 13
66 4
67 209
68 112
69 373
70 183
71 197
72 180
73 999
74 269
75 883
76 262
77 231
78 42
79 107
80 39
81 250
82 105
83 321
84 242
85 160
86 76
87 49
88 68
89 104
90 45
91 88
92 31
93 164
94 24
95 238
96 168
97 245
98 264
99 122
101 97
102 68
103 134
104 44
105 144
106 23
107 65
109 55
110 25
111 138
112 91
113 49
115 150
116 349
117 869
118 266
119 130
121 60
123 58
125 82
126 24
127 22
129 680
130 204
131 396
132 642
133 331
134 141
135 85
137 45
139 21
140 2
141 16
143 241
144 60
145 665
146 308
147 153
148 35
149 28
151 34
152 9
153 122
154 39
155 66
157 82
158 3
159 181
160 83
161 9
167 38
168 23
169 3
171 217
172 57
173 170
174 43
175 0
181 39
182 47
183 75
184 36
185 146
186 68
187 132
188 80
189 77
199 161
201 238
202 60
203 4
213 118
214 16
215 51
216 40
218 14
224 129
225 95
227 127
228 4
229 65
231 2
241 63
242 20
243 68
255 158
256 61
257 87
271 128
272 81
281 8
283 78
284 17
285 83
299 981
300 484
301 228
302 54
314 194
315 84
316 26

$$$$

     RDKit          2D

 18 17  0  0  0  0  0  0  0  0999 V2000
  -14.1154    8.3505    0.0000 C   0  0  0  0  0  0  0  0  0  0  0  0
    2.0221    6.3014    0.0000 C   0  0  0  0  0  0  0  0  0  0  0  0
    4.0712    6.8505    0.0000 C   0  0  0  0  0  0  0  0  0  0  0  0
    3.5221    8.8995    0.0000 C   0  0  0  0  0  0  0  0  0  0  0  0
  -12.8163    7.6005    0.0000 C   0  0  0  0  0  0  0  0  0  0  0  0
  -11.5173    8.3505    0.0000 C   0  0  0  0  0  0  0  0  0  0  0  0
  -10.2183    7.6005    0.0000 C   0  0  0  0  0  0  0  0  0  0  0  0
   -8.9192    8.3505    0.0000 C   0  0  0  0  0  0  0  0  0  0  0  0
   -7.6202    7.6005    0.0000 C   0  0  0  0  0  0  0  0  0  0  0  0
   -6.3212    8.3505    0.0000 C   0  0  0  0  0  0  0  0  0  0  0  0
   -5.0221    7.6005    0.0000 C   0  0  0  0  0  0  0  0  0  0  0  0
   -3.7231    8.3505    0.0000 C   0  0  0  0  0  0  0  0  0  0  0  0
   -2.4240    7.6005    0.0000 C   0  0  0  0  0  0  0  0  0  0  0  0
   -1.1250    8.3505    0.0000 C   0  0  0  0  0  0  0  0  0  0  0  0
    0.1740    7.6005    0.0000 C   0  0  0  0  0  0  0  0  0  0  0  0
    0.1740    6.1005    0.0000 O   0  0  0  0  0  0  0  0  0  0  0  0
    1.4731    8.3505    0.0000 O   0  0  0  0  0  0  0  0  0  0  0  0
    2.7721    7.6005    0.0000 Si  0  0  0  0  0  4  0  0  0  0  0  0
  5  1  1  0
  6  5  1  0
  7  6  1  0
  8  7  1  0
  9  8  1  0
 10  9  1  0
 11 10  1  0
 12 11  1  0
 13 12  1  0
 14 13  1  0
 15 14  1  0
 16 15  2  0
 17 15  1  0
 18  2  1  0
 18  3  1  0
 18  4  1  0
 18 17  1  0
M  END
>  <NAME>  (5759) 
DODECANOIC ACID TRIMETHYLSILYL ESTER

>  <SYNONYMS>  (5759) 


>  <SPECTRUM TYPE>  (5759) 
MS1

>  <INSTRUMENT TYPE>  (5759) 
EI-B

>  <INSTRUMENT>  (5759) 
JEOL JMS-01-SG

>  <ION MODE>  (5759) 
P

>  <INCHIKEY>  (5759) 
RHDZBWSXEZTMPK-UHFFFAOYSA-N

>  <FORMULA>  (5759) 
C15H32O2Si

>  <EXACT MASS>  (5759) 
272.217156794

>  <MW>  (5759) 
272

>  <ID>  (5759) 
JP000567

>  <CONTRIBUTOR>  (5759) 
University of Tokyo Team, {Faculty of Engineering, University of Tokyo

>  <COMMENT>  (5759) 
SMILES=CCCCCCCCCCCC(=O)O[Si](C)(C)C
cas=55520-95-1
InChI=InChI=1S/C15H32O2Si/c1-5-6-7-8-9-10-11-12-13-14-15(16)17-18(2,3)4/h5-14H2,1-4H3
computed SMILES=O=C(O[Si](C)(C)C)CCCCCCCCCCC
accession=JP000567
date=2016.01.19 (Created 2008.10.21, modified 2011.05.06)
author=KOGA M, UNIV. OF OCCUPATIONAL AND ENVIRONMENTAL HEALTH
license=CC BY-NC-SA
exact mass=272.21716
ionization energy=70 eV
ion type=[M]+*
computed spectral entropy=2.598419597269317
computed normalized entropy=0.7797899526679095
SPLASH=splash10-00vl-9310000000-a00b1885215ace3170cb
submitter=submitter = University of Tokyo Team (Faculty of Engineering, University of Tokyo)
MoNA Rating=3.75

>  <NUM PEAKS>  (5759) 
28

>  <MASS SPECTRAL PEAKS>  (5759) 
43 64.4
45 12.1
47 12.5
55 1.75
56 5
57 8.7
61 7.1
67 0.58
69 10.4
72 5
73 99.99
74 1.12
75 90.3
76 8.3
77 7.5
81 0.75
83 5.8
95 7.5
97 5
98 0.5
117 69.4
118 6.6
129 23
131 1.38
132 23.8
145 14.2
257 33.8
258 5.8

>  <PREDICTED SPECTRUM>  (5759) 
15 15
18 0
26 4
27 80
28 40
29 73
32 13
39 89
40 21
41 302
42 168
43 343
44 119
45 223
46 68
47 149
49 1
51 1
53 100
54 104
55 538
56 215
57 293
58 87
59 134
60 77
61 216
62 7
63 7
67 182
68 93
69 357
70 154
71 146
72 192
73 999
74 282
75 919
76 283
77 212
78 34
79 91
80 10
81 233
82 70
83 276
84 214
85 138
86 67
87 63
88 25
89 132
90 39
91 54
92 19
93 155
94 22
95 231
96 137
97 217
98 237
99 107
101 96
102 72
103 93
104 66
105 143
106 7
107 51
109 95
110 34
111 136
112 97
113 53
115 115
116 299
117 852
118 241
119 144
123 53
125 61
126 15
127 6
129 642
130 245
131 400
132 612
133 303
134 99
135 38
139 38
141 49
142 39
143 213
144 56
145 639
146 293
147 140
148 15
149 31
153 20
154 11
155 4
157 89
159 155
160 8
161 32
171 202
172 35
173 147
174 58
176 12
182 127
183 107
184 1
185 158
186 58
187 79
188 24
189 43
199 147
200 39
201 220
202 71
203 3
213 129
214 40
215 69
229 103
230 63
239 2
240 0
241 76
243 70
257 963
258 459
259 216
260 31
272 155
273 51

$$$$

     RDKit          2D

 17 16  0  0  0  0  0  0  0  0999 V2000
    4.1349    7.6373    0.0000 C   0  0  0  0  0  0  0  0  0  0  0  0
  -12.2036    8.9363    0.0000 C   0  0  0  0  0  0  0  0  0  0  0  0
  -12.7526    6.8873    0.0000 C   0  0  0  0  0  0  0  0  0  0  0  0
  -10.7036    6.3382    0.0000 C   0  0  0  0  0  0  0  0  0  0  0  0
    2.8358    8.3873    0.0000 C   0  0  0  0  0  0  0  0  0  0  0  0
    1.5368    7.6373    0.0000 C   0  0  0  0  0  0  0  0  0  0  0  0
    0.2377    8.3873    0.0000 C   0  0  0  0  0  0  0  0  0  0  0  0
   -1.0613    7.6373    0.0000 C   0  0  0  0  0  0  0  0  0  0  0  0
   -2.3603    8.3873    0.0000 C   0  0  0  0  0  0  0  0  0  0  0  0
   -3.6594    7.6373    0.0000 C   0  0  0  0  0  0  0  0  0  0  0  0
   -4.9584    8.3873    0.0000 C   0  0  0  0  0  0  0  0  0  0  0  0
   -6.2575    7.6373    0.0000 C   0  0  0  0  0  0  0  0  0  0  0  0
   -7.5565    8.3873    0.0000 C   0  0  0  0  0  0  0  0  0  0  0  0
   -8.8555    7.6373    0.0000 C   0  0  0  0  0  0  0  0  0  0  0  0
   -8.8555    6.1373    0.0000 O   0  0  0  0  0  0  0  0  0  0  0  0
  -10.1546    8.3873    0.0000 O   0  0  0  0  0  0  0  0  0  0  0  0
  -11.4536    7.6373    0.0000 Si  0  0  0  0  0  4  0  0  0  0  0  0
  5  1  1  0
  6  5  1  0
  7  6  1  0
  8  7  1  0
  9  8  1  0
 10  9  1  0
 11 10  1  0
 12 11  1  0
 13 12  1  0
 14 13  1  0
 15 14  2  0
 16 14  1  0
 17  2  1  0
 17  3  1  0
 17  4  1  0
 17 16  1  0
M  END
>  <NAME>  (5760) 
UNDECANOIC ACID TRIMETHYLSILYL ESTER

>  <SYNONYMS>  (5760) 


>  <SPECTRUM TYPE>  (5760) 
MS1

>  <INSTRUMENT TYPE>  (5760) 
EI-B

>  <INSTRUMENT>  (5760) 
JEOL JMS-01-SG

>  <ION MODE>  (5760) 
P

>  <INCHIKEY>  (5760) 
PVQUEUNCRLSHJP-UHFFFAOYSA-N

>  <FORMULA>  (5760) 
C14H30O2Si

>  <EXACT MASS>  (5760) 
258.20150673

>  <MW>  (5760) 
258

>  <ID>  (5760) 
JP000566

>  <CONTRIBUTOR>  (5760) 
University of Tokyo Team, {Faculty of Engineering, University of Tokyo

>  <COMMENT>  (5760) 
SMILES=CCCCCCCCCCC(=O)O[Si](C)(C)C
InChI=InChI=1S/C14H30O2Si/c1-5-6-7-8-9-10-11-12-13-14(15)16-17(2,3)4/h5-13H2,1-4H3
computed SMILES=O=C(O[Si](C)(C)C)CCCCCCCCCC
accession=JP000566
date=2016.01.19 (Created 2008.10.21, modified 2011.05.06)
author=KOGA M, UNIV. OF OCCUPATIONAL AND ENVIRONMENTAL HEALTH
license=CC BY-NC-SA
exact mass=258.20151
ionization energy=70 eV
ion type=[M]+*
computed spectral entropy=2.5162890649570597
computed normalized entropy=0.8025175272764459
SPLASH=splash10-00bc-9210000000-13f51ae4716da3969108
submitter=submitter = University of Tokyo Team (Faculty of Engineering, University of Tokyo)
MoNA Rating=3.75

>  <NUM PEAKS>  (5760) 
23

>  <MASS SPECTRAL PEAKS>  (5760) 
43 65.5
45 14.5
47 17.7
55 1.95
56 7.4
57 9.3
67 7.1
69 1.14
73 88.5
74 10.5
75 99.99
76 0.69
77 22.3
81 7.4
83 7.1
95 0.74
117 64.9
129 21.4
131 13.9
132 2.2
145 13
243 45.9
244 6.8

>  <PREDICTED SPECTRUM>  (5760) 
15 11
26 9
27 89
28 33
29 66
32 13
39 90
40 20
41 294
42 168
43 331
44 105
45 233
46 63
47 155
49 3
51 0
53 97
54 100
55 529
56 198
57 263
58 91
59 161
60 101
61 235
62 40
63 0
67 181
68 99
69 356
70 161
71 134
72 204
73 999
74 271
75 930
76 282
77 222
78 49
79 99
80 26
81 228
82 59
83 243
84 205
85 104
86 57
87 44
88 67
89 94
90 50
91 98
92 10
93 142
94 1
95 223
96 126
97 218
98 222
99 128
101 103
102 29
103 103
104 52
105 120
109 60
111 107
112 74
113 41
115 148
116 338
117 850
118 237
119 160
121 42
123 45
125 62
126 50
127 64
128 10
129 623
130 220
131 426
132 601
133 296
134 94
135 20
139 15
143 208
144 0
145 621
146 262
147 58
149 14
155 0
157 115
158 50
159 136
160 80
161 7
162 8
168 136
169 108
170 0
171 196
172 38
173 164
174 32
175 45
185 121
186 55
187 102
188 27
189 27
199 189
200 48
201 207
202 56
215 107
216 59
225 21
226 0
227 69
229 67
243 962
244 447
245 209
246 47
258 154
259 49

$$$$

     RDKit          2D

 16 15  0  0  0  0  0  0  0  0999 V2000
    4.1716    7.0245    0.0000 C   0  0  0  0  0  0  0  0  0  0  0  0
   -9.3678    9.0736    0.0000 C   0  0  0  0  0  0  0  0  0  0  0  0
  -11.4168    8.5245    0.0000 C   0  0  0  0  0  0  0  0  0  0  0  0
  -10.8678    6.4755    0.0000 C   0  0  0  0  0  0  0  0  0  0  0  0
    2.8726    7.7745    0.0000 C   0  0  0  0  0  0  0  0  0  0  0  0
    1.5736    7.0245    0.0000 C   0  0  0  0  0  0  0  0  0  0  0  0
    0.2745    7.7745    0.0000 C   0  0  0  0  0  0  0  0  0  0  0  0
   -1.0245    7.0245    0.0000 C   0  0  0  0  0  0  0  0  0  0  0  0
   -2.3236    7.7745    0.0000 C   0  0  0  0  0  0  0  0  0  0  0  0
   -3.6226    7.0245    0.0000 C   0  0  0  0  0  0  0  0  0  0  0  0
   -4.9216    7.7745    0.0000 C   0  0  0  0  0  0  0  0  0  0  0  0
   -6.2207    7.0245    0.0000 C   0  0  0  0  0  0  0  0  0  0  0  0
   -7.5197    7.7745    0.0000 C   0  0  0  0  0  0  0  0  0  0  0  0
   -7.5197    9.2745    0.0000 O   0  0  0  0  0  0  0  0  0  0  0  0
   -8.8187    7.0245    0.0000 O   0  0  0  0  0  0  0  0  0  0  0  0
  -10.1178    7.7745    0.0000 Si  0  0  0  0  0  4  0  0  0  0  0  0
  5  1  1  0
  6  5  1  0
  7  6  1  0
  8  7  1  0
  9  8  1  0
 10  9  1  0
 11 10  1  0
 12 11  1  0
 13 12  1  0
 14 13  2  0
 15 13  1  0
 16  2  1  0
 16  3  1  0
 16  4  1  0
 16 15  1  0
M  END
>  <NAME>  (5761) 
DECANOIC ACID TRIMETHYLSILYL ESTER

>  <SYNONYMS>  (5761) 


>  <SPECTRUM TYPE>  (5761) 
MS1

>  <INSTRUMENT TYPE>  (5761) 
EI-B

>  <INSTRUMENT>  (5761) 
JEOL JMS-01-SG

>  <ION MODE>  (5761) 
P

>  <INCHIKEY>  (5761) 
FGTNBYWFNITQJR-UHFFFAOYSA-N

>  <FORMULA>  (5761) 
C13H28O2Si

>  <EXACT MASS>  (5761) 
244.185856666

>  <MW>  (5761) 
244

>  <ID>  (5761) 
JP000565

>  <CONTRIBUTOR>  (5761) 
University of Tokyo Team, {Faculty of Engineering, University of Tokyo

>  <COMMENT>  (5761) 
SMILES=CCCCCCCCCC(=O)O[Si](C)(C)C
cas=55494-15-0
InChI=InChI=1S/C13H28O2Si/c1-5-6-7-8-9-10-11-12-13(14)15-16(2,3)4/h5-12H2,1-4H3
computed SMILES=O=C(O[Si](C)(C)C)CCCCCCCCC
accession=JP000565
date=2016.01.19 (Created 2008.10.21, modified 2011.05.06)
author=KOGA M, UNIV. OF OCCUPATIONAL AND ENVIRONMENTAL HEALTH
license=CC BY-NC-SA
exact mass=244.18586
ionization energy=70 eV
ion type=[M]+*
computed spectral entropy=2.200640230238081
computed normalized entropy=0.7937131867363065
SPLASH=splash10-00vi-9410000000-55e39b3c9e43d3024524
submitter=submitter = University of Tokyo Team (Faculty of Engineering, University of Tokyo)
MoNA Rating=3.75

>  <NUM PEAKS>  (5761) 
16

>  <MASS SPECTRAL PEAKS>  (5761) 
43 10.6
45 11
55 19.3
61 0.76
73 99.99
74 10.8
75 85.6
76 0.72
81 8.4
95 7.2
117 63.5
129 2.03
131 16.5
132 19.5
145 11.8
229 38.7

>  <PREDICTED SPECTRUM>  (5761) 
15 12
26 2
27 100
28 48
29 84
32 14
39 92
40 23
41 285
42 167
43 331
44 110
45 247
46 77
47 183
49 5
51 8
53 104
54 99
55 519
56 194
57 240
58 108
59 167
60 69
61 232
62 13
63 7
65 2
66 1
67 179
68 94
69 349
70 167
71 106
72 191
73 999
74 281
75 950
76 297
77 232
78 45
79 86
80 3
81 213
82 49
83 244
84 192
85 120
86 54
87 44
88 26
89 98
90 35
91 50
93 96
95 204
96 93
97 195
98 200
99 118
101 121
102 80
103 110
104 48
105 128
107 37
109 45
110 6
111 100
112 87
113 59
114 15
115 123
116 315
117 847
118 242
119 197
121 23
123 29
125 42
126 30
129 606
130 179
131 389
132 581
133 273
134 63
135 1
143 207
144 54
145 595
146 274
147 18
148 32
149 38
154 113
155 124
156 9
157 116
158 55
159 140
160 50
161 78
171 172
172 34
173 198
174 34
175 25
185 178
186 56
187 83
199 60
201 210
202 88
211 23
212 5
213 56
215 62
229 927
230 431
231 168
232 40
244 152
245 48

$$$$

     RDKit          2D

 15 14  0  0  0  0  0  0  0  0999 V2000
  -11.2796    6.0368    0.0000 C   0  0  0  0  0  0  0  0  0  0  0  0
    2.4608    4.7377    0.0000 C   0  0  0  0  0  0  0  0  0  0  0  0
    3.0099    6.7868    0.0000 C   0  0  0  0  0  0  0  0  0  0  0  0
    0.9608    7.3358    0.0000 C   0  0  0  0  0  0  0  0  0  0  0  0
   -9.9805    5.2868    0.0000 C   0  0  0  0  0  0  0  0  0  0  0  0
   -8.6815    6.0368    0.0000 C   0  0  0  0  0  0  0  0  0  0  0  0
   -7.3825    5.2868    0.0000 C   0  0  0  0  0  0  0  0  0  0  0  0
   -6.0834    6.0368    0.0000 C   0  0  0  0  0  0  0  0  0  0  0  0
   -4.7844    5.2868    0.0000 C   0  0  0  0  0  0  0  0  0  0  0  0
   -3.4853    6.0368    0.0000 C   0  0  0  0  0  0  0  0  0  0  0  0
   -2.1863    5.2868    0.0000 C   0  0  0  0  0  0  0  0  0  0  0  0
   -0.8873    6.0368    0.0000 C   0  0  0  0  0  0  0  0  0  0  0  0
   -0.8873    7.5368    0.0000 O   0  0  0  0  0  0  0  0  0  0  0  0
    0.4118    5.2868    0.0000 O   0  0  0  0  0  0  0  0  0  0  0  0
    1.7108    6.0368    0.0000 Si  0  0  0  0  0  4  0  0  0  0  0  0
  5  1  1  0
  6  5  1  0
  7  6  1  0
  8  7  1  0
  9  8  1  0
 10  9  1  0
 11 10  1  0
 12 11  1  0
 13 12  2  0
 14 12  1  0
 15  2  1  0
 15  3  1  0
 15  4  1  0
 15 14  1  0
M  END
>  <NAME>  (5762) 
NONANOIC ACID TRIMETHYLSILYL ESTER

>  <SYNONYMS>  (5762) 


>  <SPECTRUM TYPE>  (5762) 
MS1

>  <INSTRUMENT TYPE>  (5762) 
EI-B

>  <INSTRUMENT>  (5762) 
JEOL JMS-01-SG

>  <ION MODE>  (5762) 
P

>  <INCHIKEY>  (5762) 
ISTGUORKGWWKMI-UHFFFAOYSA-N

>  <FORMULA>  (5762) 
C12H26O2Si

>  <EXACT MASS>  (5762) 
230.17020660199998

>  <MW>  (5762) 
230

>  <ID>  (5762) 
JP000564

>  <CONTRIBUTOR>  (5762) 
University of Tokyo Team, {Faculty of Engineering, University of Tokyo

>  <COMMENT>  (5762) 
SMILES=CCCCCCCCC(=O)O[Si](C)(C)C
InChI=InChI=1S/C12H26O2Si/c1-5-6-7-8-9-10-11-12(13)14-15(2,3)4/h5-11H2,1-4H3
computed SMILES=O=C(O[Si](C)(C)C)CCCCCCCC
accession=JP000564
date=2016.01.19 (Created 2008.10.21, modified 2011.05.06)
author=KOGA M, UNIV. OF OCCUPATIONAL AND ENVIRONMENTAL HEALTH
license=CC BY-NC-SA
exact mass=230.17021
ionization energy=70 eV
ion type=[M]+*
computed spectral entropy=2.418796659842359
computed normalized entropy=0.8074141608698618
SPLASH=splash10-00or-9310000000-46174efc15350e7985f4
submitter=submitter = University of Tokyo Team (Faculty of Engineering, University of Tokyo)
MoNA Rating=3.75

>  <NUM PEAKS>  (5762) 
20

>  <MASS SPECTRAL PEAKS>  (5762) 
43 39.7
45 10.6
47 10.6
55 2.02
57 6
61 6.3
69 6
73 9.57
74 9.9
75 99.99
76 7.8
77 1.7
81 8.5
117 48.9
129 14.8
131 1.41
132 14.8
145 7.8
215 33.6
216 6

>  <PREDICTED SPECTRUM>  (5762) 
14 0
15 19
26 0
27 91
28 42
29 101
31 9
32 15
39 99
40 31
41 278
42 168
43 330
44 127
45 262
46 70
47 187
49 11
51 17
53 109
54 95
55 503
56 190
57 204
58 90
59 150
60 90
61 238
62 24
63 13
67 167
68 93
69 349
70 158
71 105
72 184
73 999
74 278
75 977
76 306
77 224
78 42
79 46
81 192
82 19
83 208
84 169
85 101
86 56
87 55
88 72
89 109
90 28
91 73
93 146
94 0
95 184
96 94
97 181
98 195
99 135
100 45
101 105
102 68
103 173
104 60
105 156
106 2
107 23
109 14
111 75
112 76
113 22
115 137
116 286
117 850
118 232
119 154
123 35
129 588
130 217
131 361
132 570
133 246
134 81
135 33
140 26
141 67
142 16
143 206
144 58
145 573
146 245
147 87
155 50
157 86
158 47
159 163
160 47
161 55
171 220
172 30
173 189
174 2
185 33
186 15
187 136
188 61
197 20
198 0
199 114
201 154
202 21
215 922
216 413
217 203
218 41
230 142
231 39

$$$$

     RDKit          2D

 14 13  0  0  0  0  0  0  0  0999 V2000
  -10.2183    6.1005    0.0000 C   0  0  0  0  0  0  0  0  0  0  0  0
    0.7231    4.0514    0.0000 C   0  0  0  0  0  0  0  0  0  0  0  0
    2.7721    4.6005    0.0000 C   0  0  0  0  0  0  0  0  0  0  0  0
    2.2231    6.6495    0.0000 C   0  0  0  0  0  0  0  0  0  0  0  0
   -8.9192    5.3505    0.0000 C   0  0  0  0  0  0  0  0  0  0  0  0
   -7.6202    6.1005    0.0000 C   0  0  0  0  0  0  0  0  0  0  0  0
   -6.3212    5.3505    0.0000 C   0  0  0  0  0  0  0  0  0  0  0  0
   -5.0221    6.1005    0.0000 C   0  0  0  0  0  0  0  0  0  0  0  0
   -3.7231    5.3505    0.0000 C   0  0  0  0  0  0  0  0  0  0  0  0
   -2.4240    6.1005    0.0000 C   0  0  0  0  0  0  0  0  0  0  0  0
   -1.1250    5.3505    0.0000 C   0  0  0  0  0  0  0  0  0  0  0  0
   -1.1250    3.8505    0.0000 O   0  0  0  0  0  0  0  0  0  0  0  0
    0.1740    6.1005    0.0000 O   0  0  0  0  0  0  0  0  0  0  0  0
    1.4731    5.3505    0.0000 Si  0  0  0  0  0  4  0  0  0  0  0  0
  5  1  1  0
  6  5  1  0
  7  6  1  0
  8  7  1  0
  9  8  1  0
 10  9  1  0
 11 10  1  0
 12 11  2  0
 13 11  1  0
 14  2  1  0
 14  3  1  0
 14  4  1  0
 14 13  1  0
M  END
>  <NAME>  (5763) 
OCTANOIC ACID TRIMETHYLSILYL ESTER

>  <SYNONYMS>  (5763) 


>  <SPECTRUM TYPE>  (5763) 
MS1

>  <INSTRUMENT TYPE>  (5763) 
EI-B

>  <INSTRUMENT>  (5763) 
JEOL JMS-01-SG

>  <ION MODE>  (5763) 
P

>  <INCHIKEY>  (5763) 
GRHSLTISTCPPAT-UHFFFAOYSA-N

>  <FORMULA>  (5763) 
C11H24O2Si

>  <EXACT MASS>  (5763) 
216.15455653799998

>  <MW>  (5763) 
216

>  <ID>  (5763) 
JP000563

>  <CONTRIBUTOR>  (5763) 
University of Tokyo Team, {Faculty of Engineering, University of Tokyo

>  <COMMENT>  (5763) 
SMILES=CCCCCCCC(=O)O[Si](C)(C)C
cas=55494-06-9
InChI=InChI=1S/C11H24O2Si/c1-5-6-7-8-9-10-11(12)13-14(2,3)4/h5-10H2,1-4H3
computed SMILES=O=C(O[Si](C)(C)C)CCCCCCC
accession=JP000563
date=2016.01.19 (Created 2008.10.21, modified 2011.05.06)
author=KOGA M, UNIV. OF OCCUPATIONAL AND ENVIRONMENTAL HEALTH
license=CC BY-NC-SA
exact mass=216.15456
ionization energy=70 eV
ion type=[M]+*
computed spectral entropy=2.3125544625132544
computed normalized entropy=0.8000889353404524
SPLASH=splash10-0umi-9550000000-506e27dc447a93122bb5
submitter=submitter = University of Tokyo Team (Faculty of Engineering, University of Tokyo)
MoNA Rating=3.75

>  <NUM PEAKS>  (5763) 
18

>  <MASS SPECTRAL PEAKS>  (5763) 
43 8.8
45 8.4
55 12.6
67 0.84
73 68.3
74 9.8
75 86.9
76 0.88
109 8
117 53.5
118 8.4
129 2.07
131 23.9
132 19.7
145 11.9
201 99.99
202 18.6
203 8.4

>  <PREDICTED SPECTRUM>  (5763) 
14 1
15 29
26 9
27 115
28 52
29 108
31 28
32 15
38 0
39 107
40 39
41 261
42 161
43 291
44 113
45 275
46 76
47 194
49 18
51 24
52 0
53 112
54 87
55 472
56 161
57 189
58 80
59 146
60 54
61 241
62 10
63 11
67 144
68 73
69 327
70 127
71 83
72 180
73 970
74 278
75 999
76 315
77 236
78 50
79 70
81 165
82 33
83 184
84 147
85 111
86 68
87 42
88 58
89 155
90 39
91 134
92 5
93 140
94 2
95 144
96 61
97 143
98 167
99 111
101 116
102 43
103 142
104 27
105 98
109 30
111 11
113 5
115 127
116 298
117 822
118 235
119 117
120 11
121 13
126 94
127 68
129 562
130 215
131 338
132 529
133 219
134 26
141 25
143 173
144 47
145 523
146 208
147 52
148 4
155 33
156 12
157 159
158 41
159 133
160 14
171 114
173 239
174 64
183 35
184 7
185 86
187 61
199 41
201 749
202 330
203 168
204 37
216 117
217 28

$$$$

     RDKit          2D

 13 12  0  0  0  0  0  0  0  0999 V2000
    2.8358    5.3873    0.0000 C   0  0  0  0  0  0  0  0  0  0  0  0
   -8.3065    6.6863    0.0000 C   0  0  0  0  0  0  0  0  0  0  0  0
   -8.8555    4.6373    0.0000 C   0  0  0  0  0  0  0  0  0  0  0  0
   -6.8065    4.0882    0.0000 C   0  0  0  0  0  0  0  0  0  0  0  0
    1.5368    6.1373    0.0000 C   0  0  0  0  0  0  0  0  0  0  0  0
    0.2377    5.3873    0.0000 C   0  0  0  0  0  0  0  0  0  0  0  0
   -1.0613    6.1373    0.0000 C   0  0  0  0  0  0  0  0  0  0  0  0
   -2.3603    5.3873    0.0000 C   0  0  0  0  0  0  0  0  0  0  0  0
   -3.6594    6.1373    0.0000 C   0  0  0  0  0  0  0  0  0  0  0  0
   -4.9584    5.3873    0.0000 C   0  0  0  0  0  0  0  0  0  0  0  0
   -4.9584    3.8873    0.0000 O   0  0  0  0  0  0  0  0  0  0  0  0
   -6.2575    6.1373    0.0000 O   0  0  0  0  0  0  0  0  0  0  0  0
   -7.5565    5.3873    0.0000 Si  0  0  0  0  0  4  0  0  0  0  0  0
  5  1  1  0
  6  5  1  0
  7  6  1  0
  8  7  1  0
  9  8  1  0
 10  9  1  0
 11 10  2  0
 12 10  1  0
 13  2  1  0
 13  3  1  0
 13  4  1  0
 13 12  1  0
M  END
>  <NAME>  (5764) 
HEPTANOIC ACID TRIMETHYLSILYL ESTER

>  <SYNONYMS>  (5764) 


>  <SPECTRUM TYPE>  (5764) 
MS1

>  <INSTRUMENT TYPE>  (5764) 
EI-B

>  <INSTRUMENT>  (5764) 
JEOL JMS-01-SG

>  <ION MODE>  (5764) 
P

>  <INCHIKEY>  (5764) 
AMUGRUMFZAKWNM-UHFFFAOYSA-N

>  <FORMULA>  (5764) 
C10H22O2Si

>  <EXACT MASS>  (5764) 
202.138906474

>  <MW>  (5764) 
202

>  <ID>  (5764) 
JP000562

>  <CONTRIBUTOR>  (5764) 
University of Tokyo Team, {Faculty of Engineering, University of Tokyo

>  <COMMENT>  (5764) 
SMILES=CCCCCCC(=O)O[Si](C)(C)C
InChI=InChI=1S/C10H22O2Si/c1-5-6-7-8-9-10(11)12-13(2,3)4/h5-9H2,1-4H3
computed SMILES=O=C(O[Si](C)(C)C)CCCCCC
accession=JP000562
date=2016.01.19 (Created 2008.10.21, modified 2011.05.06)
author=KOGA M, UNIV. OF OCCUPATIONAL AND ENVIRONMENTAL HEALTH
license=CC BY-NC-SA
exact mass=202.13891
ionization energy=70 eV
ion type=[M]+*
computed spectral entropy=2.545264307758273
computed normalized entropy=0.7812120598808023
SPLASH=splash10-00bc-9000000000-f037a425ddffce519b23
submitter=submitter = University of Tokyo Team (Faculty of Engineering, University of Tokyo)
MoNA Rating=3.75

>  <NUM PEAKS>  (5764) 
26

>  <MASS SPECTRAL PEAKS>  (5764) 
42 8.1
43 86.3
45 54.8
47 1.98
49 7.7
51 7.1
55 21.7
56 1.23
57 8.4
58 13.6
59 7.7
60 0.97
61 7.7
68 7.1
69 8.7
72 1.07
73 73.7
74 8.4
75 99.99
76 1
77 40.5
78 7.7
115 6.8
117 1.81
131 7.4
187 17.5

>  <PREDICTED SPECTRUM>  (5764) 
14 4
15 33
26 10
27 62
28 61
29 51
31 37
32 14
36 5
38 21
39 131
40 58
41 242
42 159
43 279
44 124
45 293
46 62
47 226
49 30
50 18
51 41
52 16
53 114
54 62
55 385
56 135
57 143
58 118
59 159
60 78
61 255
62 10
63 28
65 1
66 0
67 96
68 73
69 259
70 93
71 69
72 180
73 866
74 256
75 999
76 317
77 261
78 59
79 67
81 75
82 6
83 138
84 116
85 90
86 66
87 56
88 46
89 116
90 24
91 29
93 16
95 84
97 51
98 42
99 99
101 104
102 65
103 53
104 39
105 35
112 100
113 58
115 155
116 265
117 749
118 216
119 99
127 59
129 473
130 220
131 311
132 442
133 119
134 19
141 1
142 22
143 217
144 42
145 347
146 114
147 13
157 24
158 54
159 192
160 77
169 38
170 18
171 153
173 128
187 814
188 329
189 155
190 17
202 81
203 5

$$$$

     RDKit          2D

  9  8  0  0  0  0  0  0  0  0999 V2000
    2.5981    4.5000    0.0000 C   0  0  0  0  0  0  0  0  0  0  0  0
   -7.7942    4.5000    0.0000 C   0  0  0  0  0  0  0  0  0  0  0  0
    1.2990    5.2500    0.0000 C   0  0  0  0  0  0  0  0  0  0  0  0
   -6.4952    5.2500    0.0000 C   0  0  0  0  0  0  0  0  0  0  0  0
    0.0000    4.5000    0.0000 C   0  0  0  0  0  0  0  0  0  0  0  0
   -5.1962    4.5000    0.0000 C   0  0  0  0  0  0  0  0  0  0  0  0
   -1.2990    5.2500    0.0000 C   0  0  0  0  0  0  0  0  0  0  0  0
   -3.8971    5.2500    0.0000 N   0  0  0  0  0  0  0  0  0  0  0  0
   -2.5981    4.5000    0.0000 N   0  0  0  0  0  0  0  0  0  0  0  0
  3  1  1  0
  4  2  1  0
  5  3  1  0
  6  4  1  0
  7  5  1  0
  6  8  2  0
  9  7  1  0
  9  8  1  0
M  END
>  <NAME>  (5765) 
BUTYLHYDRAZONE PROPIONALDEHYDE

>  <SYNONYMS>  (5765) 
PROPIONALDEHYDE BUTYLHYDRAZONE

>  <SPECTRUM TYPE>  (5765) 
MS1

>  <INSTRUMENT TYPE>  (5765) 
EI-B

>  <INSTRUMENT>  (5765) 
SHIMADZU LKB-2091

>  <ION MODE>  (5765) 
P

>  <INCHIKEY>  (5765) 
HSFHCHXOARWRSD-SOFGYWHQSA-N

>  <FORMULA>  (5765) 
C7H16N2

>  <EXACT MASS>  (5765) 
128.131348512

>  <MW>  (5765) 
128

>  <ID>  (5765) 
JP000529

>  <CONTRIBUTOR>  (5765) 
University of Tokyo Team, {Faculty of Engineering, University of Tokyo

>  <COMMENT>  (5765) 
SMILES=CCCCNN=CCC
InChI=InChI=1S/C7H16N2/c1-3-5-7-9-8-6-4-2/h6,9H,3-5,7H2,1-2H3/b8-6+
computed SMILES=N(=CCC)NCCCC
accession=JP000529
date=2016.01.19 (Created 2008.10.21, modified 2011.05.06)
author=SASAKI S, TOYOHASHI UNIV. OF TECH.
license=CC BY-NC-SA
exact mass=128.13135
ionization energy=70 eV
ion type=[M]+*
computed spectral entropy=2.2451728191249978
computed normalized entropy=0.6975021533230249
SPLASH=splash10-002r-9000000000-c2f370ba6c7db1122a06
submitter=submitter = University of Tokyo Team (Faculty of Engineering, University of Tokyo)
MoNA Rating=3.75

>  <NUM PEAKS>  (5765) 
25

>  <MASS SPECTRAL PEAKS>  (5765) 
27 12
28 24
29 18
30 5.6
39 5.4
40 1.2
41 12
42 0.46
43 5.2
44 3
54 1.8
55 0.24
56 14.4
57 4.6
58 1.8
69 0.11
70 3
71 2.6
72 1.6
85 99.99
86 6.2
99 12.2
100 0.8
128 1.6
129 2.2

>  <PREDICTED SPECTRUM>  (5765) 
15 17
26 34
27 227
28 220
29 481
30 744
31 1
38 16
39 226
40 106
41 365
42 300
43 160
44 142
45 12
53 21
54 97
55 177
56 338
57 411
58 105
70 177
71 98
72 52
85 999
86 310
99 401
100 79
127 38
128 352
129 92

$$$$

     RDKit          2D

  8  7  0  0  0  0  0  0  0  0999 V2000
    1.9486    3.3750    0.0000 C   0  0  0  0  0  0  0  0  0  0  0  0
   -5.8457    3.3750    0.0000 C   0  0  0  0  0  0  0  0  0  0  0  0
   -4.5466    5.6250    0.0000 C   0  0  0  0  0  0  0  0  0  0  0  0
    0.6495    4.1250    0.0000 C   0  0  0  0  0  0  0  0  0  0  0  0
   -3.2476    3.3750    0.0000 C   0  0  0  0  0  0  0  0  0  0  0  0
   -4.5466    4.1250    0.0000 C   0  0  0  0  0  0  0  0  0  0  0  0
   -0.6495    3.3750    0.0000 N   0  0  0  0  0  0  0  0  0  0  0  0
   -1.9486    4.1250    0.0000 N   0  0  0  0  0  0  0  0  0  0  0  0
  4  1  1  0
  6  2  1  0
  6  3  1  0
  6  5  1  0
  7  4  1  0
  5  8  2  0
  8  7  1  0
M  END
>  <NAME>  (5766) 
ETHYLHYDRAZONE ISOBUTYRALDEHYDE

>  <SYNONYMS>  (5766) 
ISOBUTYRALDEHYDE ETHYLHYDRAZONE

>  <SPECTRUM TYPE>  (5766) 
MS1

>  <INSTRUMENT TYPE>  (5766) 
EI-B

>  <INSTRUMENT>  (5766) 
SHIMADZU LKB-2091

>  <ION MODE>  (5766) 
P

>  <INCHIKEY>  (5766) 
RKTNZIQSYZDTJV-VMPITWQZSA-N

>  <FORMULA>  (5766) 
C6H14N2

>  <EXACT MASS>  (5766) 
114.11569844799999

>  <MW>  (5766) 
114

>  <ID>  (5766) 
JP000528

>  <CONTRIBUTOR>  (5766) 
University of Tokyo Team, {Faculty of Engineering, University of Tokyo

>  <COMMENT>  (5766) 
SMILES=CCNN=CC(C)C
InChI=InChI=1S/C6H14N2/c1-4-7-8-5-6(2)3/h5-7H,4H2,1-3H3/b8-5+
computed SMILES=N(=CC(C)C)NCC
accession=JP000528
date=2016.01.19 (Created 2008.10.21, modified 2011.05.06)
author=SASAKI S, TOYOHASHI UNIV. OF TECH.
license=CC BY-NC-SA
exact mass=114.1157
ionization energy=70 eV
ion type=[M]+*
computed spectral entropy=2.8822431381344042
computed normalized entropy=0.8173421628374573
SPLASH=splash10-01r5-9100000000-aa4ec33902e23fa414c9
submitter=submitter = University of Tokyo Team (Faculty of Engineering, University of Tokyo)
MoNA Rating=3.75

>  <NUM PEAKS>  (5766) 
34

>  <MASS SPECTRAL PEAKS>  (5766) 
27 27.9
28 44.1
29 46.5
30 4.41
31 8.1
38 1.5
39 17
40 0.37
41 44.1
42 25.5
43 53.5
44 7.21
45 78.1
46 8.6
53 2.3
54 0.47
55 20.2
56 18.7
57 37.2
58 1.42
59 5.4
68 4.7
69 3.7
70 1.09
71 12.5
72 6.1
73 16.6
85 2.79
86 4.9
99 99.99
100 4.2
113 0.65
114 90.8
115 10

>  <PREDICTED SPECTRUM>  (5766) 
14 20
15 46
16 7
18 4
26 77
27 393
28 331
29 321
30 569
31 19
38 30
39 336
40 235
41 754
42 906
43 816
44 808
45 116
46 116
52 47
53 71
54 264
55 316
56 661
57 421
58 333
59 69
68 131
69 285
70 471
71 774
72 303
84 24
85 331
86 320
87 215
88 18
97 11
99 999
100 220
113 296
114 844
115 217

$$$$

     RDKit          2D

  8  7  0  0  0  0  0  0  0  0999 V2000
   -6.4952    4.5000    0.0000 C   0  0  0  0  0  0  0  0  0  0  0  0
    2.5981    3.7500    0.0000 C   0  0  0  0  0  0  0  0  0  0  0  0
   -5.1962    3.7500    0.0000 C   0  0  0  0  0  0  0  0  0  0  0  0
    1.2990    4.5000    0.0000 C   0  0  0  0  0  0  0  0  0  0  0  0
   -3.8971    4.5000    0.0000 C   0  0  0  0  0  0  0  0  0  0  0  0
   -2.5981    3.7500    0.0000 C   0  0  0  0  0  0  0  0  0  0  0  0
    0.0000    3.7500    0.0000 N   0  0  0  0  0  0  0  0  0  0  0  0
   -1.2990    4.5000    0.0000 N   0  0  0  0  0  0  0  0  0  0  0  0
  3  1  1  0
  4  2  1  0
  5  3  1  0
  6  5  1  0
  7  4  1  0
  6  8  2  0
  8  7  1  0
M  END
>  <NAME>  (5767) 
ETHYLHYDRAZONE BUTYRALDEHYDE

>  <SYNONYMS>  (5767) 
BUTYRALDEHYDE ETHYLHYDRAZONE

>  <SPECTRUM TYPE>  (5767) 
MS1

>  <INSTRUMENT TYPE>  (5767) 
EI-B

>  <INSTRUMENT>  (5767) 
SHIMADZU LKB-2091

>  <ION MODE>  (5767) 
P

>  <INCHIKEY>  (5767) 
YICJUYKPMNNKIA-SOFGYWHQSA-N

>  <FORMULA>  (5767) 
C6H14N2

>  <EXACT MASS>  (5767) 
114.115698448

>  <MW>  (5767) 
114

>  <ID>  (5767) 
JP000527

>  <CONTRIBUTOR>  (5767) 
University of Tokyo Team, {Faculty of Engineering, University of Tokyo

>  <COMMENT>  (5767) 
SMILES=CCCC=NNCC
InChI=InChI=1S/C6H14N2/c1-3-5-6-8-7-4-2/h6-7H,3-5H2,1-2H3/b8-6+
computed SMILES=N(=CCCC)NCC
accession=JP000527
date=2016.01.19 (Created 2008.10.21, modified 2011.05.06)
author=SASAKI S, TOYOHASHI UNIV. OF TECH.
license=CC BY-NC-SA
exact mass=114.1157
ionization energy=70 eV
ion type=[M]+*
computed spectral entropy=2.815873329329047
computed normalized entropy=0.805338835917756
SPLASH=splash10-0036-9000000000-92c6758b4a3e5afc4de0
submitter=submitter = University of Tokyo Team (Faculty of Engineering, University of Tokyo)
MoNA Rating=3.75

>  <NUM PEAKS>  (5767) 
33

>  <MASS SPECTRAL PEAKS>  (5767) 
27 43.3
28 40
29 43.3
30 99.99
31 7.3
40 4
41 33.3
42 2.63
43 50
44 83.1
45 8
46 0.27
53 1.7
54 2.8
55 6.3
56 0.93
57 22.3
58 10.7
59 4
68 0.57
69 4
70 17.3
71 14.7
72 0.6
85 46.6
86 26
87 1.3
97 0.5
99 73.1
100 5.3
113 4
114 6
115 7.5

>  <PREDICTED SPECTRUM>  (5767) 
14 29
15 87
16 21
17 22
18 44
25 7
26 147
27 555
28 464
29 636
30 830
31 164
32 34
38 33
39 73
40 219
41 624
42 780
43 823
44 934
45 221
46 77
52 11
53 76
54 283
55 430
56 529
57 488
58 329
59 90
67 3
68 205
69 252
70 415
71 591
72 217
73 18
82 26
84 107
85 747
86 543
87 150
97 8
98 11
99 999
100 237
113 267
114 828
115 214

$$$$

     RDKit          2D

  8  7  0  0  0  0  0  0  0  0999 V2000
   -6.4952    4.5000    0.0000 C   0  0  0  0  0  0  0  0  0  0  0  0
    2.5981    3.7500    0.0000 C   0  0  0  0  0  0  0  0  0  0  0  0
   -5.1962    3.7500    0.0000 C   0  0  0  0  0  0  0  0  0  0  0  0
    1.2990    4.5000    0.0000 C   0  0  0  0  0  0  0  0  0  0  0  0
   -3.8971    4.5000    0.0000 C   0  0  0  0  0  0  0  0  0  0  0  0
   -2.5981    3.7500    0.0000 C   0  0  0  0  0  0  0  0  0  0  0  0
    0.0000    3.7500    0.0000 N   0  0  0  0  0  0  0  0  0  0  0  0
   -1.2990    4.5000    0.0000 N   0  0  0  0  0  0  0  0  0  0  0  0
  3  1  1  0
  4  2  1  0
  5  3  1  0
  6  5  1  0
  4  7  2  0
  8  6  1  0
  8  7  1  0
M  END
>  <NAME>  (5768) 
BUTYLHYDRAZONE ACETALDEHYDE

>  <SYNONYMS>  (5768) 
ACETALDEHYDE BUTYLHYDRAZONE

>  <SPECTRUM TYPE>  (5768) 
MS1

>  <INSTRUMENT TYPE>  (5768) 
EI-B

>  <INSTRUMENT>  (5768) 
SHIMADZU LKB-2091

>  <ION MODE>  (5768) 
P

>  <INCHIKEY>  (5768) 
CGCWYQXCVFERRJ-QPJJXVBHSA-N

>  <FORMULA>  (5768) 
C6H14N2

>  <EXACT MASS>  (5768) 
114.11569844799999

>  <MW>  (5768) 
114

>  <ID>  (5768) 
JP000524

>  <CONTRIBUTOR>  (5768) 
University of Tokyo Team, {Faculty of Engineering, University of Tokyo

>  <COMMENT>  (5768) 
SMILES=CCCCNN=CC
InChI=InChI=1S/C6H14N2/c1-3-5-6-8-7-4-2/h4,8H,3,5-6H2,1-2H3/b7-4+
computed SMILES=N(=CC)NCCCC
accession=JP000524
date=2016.01.19 (Created 2008.10.21, modified 2011.05.06)
author=SASAKI S, TOYOHASHI UNIV. OF TECH.
license=CC BY-NC-SA
exact mass=114.1157
ionization energy=70 eV
ion type=[M]+*
computed spectral entropy=2.2673088973193773
computed normalized entropy=0.660255487952324
SPLASH=splash10-00e9-9000000000-8fa18d377b13c2002b53
submitter=submitter = University of Tokyo Team (Faculty of Engineering, University of Tokyo)
MoNA Rating=3.75

>  <NUM PEAKS>  (5768) 
31

>  <MASS SPECTRAL PEAKS>  (5768) 
28 14.2
29 11.8
30 63.1
31 2.89
39 3.7
40 1.6
41 8.7
42 2.24
43 7.9
44 5
45 0.8
54 0.04
55 2
56 4.2
57 6.3
58 0.5
59 0.5
69 1.6
70 2.1
71 99.99
72 11.8
73 2.6
83 0.7
84 0.08
85 0.6
99 7.1
100 0.5
112 0.09
113 1
114 21.3
115 2.1

>  <PREDICTED SPECTRUM>  (5768) 
14 58
15 235
16 36
17 35
18 84
25 23
26 130
27 590
28 652
29 852
30 999
31 91
38 113
39 515
40 280
41 864
42 745
43 614
44 447
52 20
53 53
54 176
55 240
56 403
57 691
58 382
59 262
70 50
71 988
72 567
73 31
84 109
85 453
86 96
99 250
100 10
113 215
114 566
115 144

$$$$

     RDKit          2D

  7  6  0  0  0  0  0  0  0  0999 V2000
   -3.5724    3.9375    0.0000 C   0  0  0  0  0  0  0  0  0  0  0  0
   -2.2733    1.6875    0.0000 C   0  0  0  0  0  0  0  0  0  0  0  0
    2.9228    3.1875    0.0000 C   0  0  0  0  0  0  0  0  0  0  0  0
   -0.9743    3.9375    0.0000 C   0  0  0  0  0  0  0  0  0  0  0  0
   -2.2733    3.1875    0.0000 C   0  0  0  0  0  0  0  0  0  0  0  0
    1.6238    3.9375    0.0000 N   0  0  0  0  0  0  0  0  0  0  0  0
    0.3248    3.1875    0.0000 N   0  0  0  0  0  0  0  0  0  0  0  0
  5  1  1  0
  5  2  1  0
  5  4  1  0
  6  3  1  0
  4  7  2  0
  7  6  1  0
M  END
>  <NAME>  (5769) 
METHYLHYDRAZONE ISOBUTYRALDEHYDE

>  <SYNONYMS>  (5769) 
ISOBUTYRALDEHYDE METHYLHYDRAZONE

>  <SPECTRUM TYPE>  (5769) 
MS1

>  <INSTRUMENT TYPE>  (5769) 
EI-B

>  <INSTRUMENT>  (5769) 
SHIMADZU LKB-2091

>  <ION MODE>  (5769) 
P

>  <INCHIKEY>  (5769) 
QLVOGAHIAVPTFB-QPJJXVBHSA-N

>  <FORMULA>  (5769) 
C5H12N2

>  <EXACT MASS>  (5769) 
100.10004838399999

>  <MW>  (5769) 
100

>  <ID>  (5769) 
JP000523

>  <CONTRIBUTOR>  (5769) 
University of Tokyo Team, {Faculty of Engineering, University of Tokyo

>  <COMMENT>  (5769) 
SMILES=CNN=CC(C)C
InChI=InChI=1S/C5H12N2/c1-5(2)4-7-6-3/h4-6H,1-3H3/b7-4+
computed SMILES=N(=CC(C)C)NC
accession=JP000523
date=2016.01.19 (Created 2008.10.21, modified 2011.05.06)
author=SASAKI S, TOYOHASHI UNIV. OF TECH.
license=CC BY-NC-SA
exact mass=100.10005
ionization energy=70 eV
ion type=[M]+*
computed spectral entropy=2.8320310895699494
computed normalized entropy=0.790293322906248
SPLASH=splash10-0kcu-9100000000-f557624018f4431477e9
submitter=submitter = University of Tokyo Team (Faculty of Engineering, University of Tokyo)
MoNA Rating=3.75

>  <NUM PEAKS>  (5769) 
36

>  <MASS SPECTRAL PEAKS>  (5769) 
26 4
27 25
28 61.6
29 3.76
30 97.7
31 10.8
32 32.9
37 0.13
38 2.7
39 23.5
40 4.2
41 5.35
42 40.9
43 36.5
44 32.6
45 1.48
51 1.4
52 2
53 2.4
54 0.8
55 6.4
56 29.9
57 69.6
58 2.03
59 1.7
68 5.7
69 5.6
70 1.29
71 12.4
72 9.9
83 1.1
85 7.47
86 4.2
99 3
100 99.99
101 12.3

>  <PREDICTED SPECTRUM>  (5769) 
14 50
15 142
16 25
17 26
18 51
25 5
26 101
27 322
28 284
29 279
30 481
31 71
32 5
37 11
38 85
39 397
40 240
41 671
42 999
43 877
44 813
45 208
46 63
52 60
53 263
54 269
55 490
56 477
57 902
58 557
59 142
67 99
68 207
69 418
70 400
71 276
72 195
73 101
83 203
84 261
85 895
86 257
99 394
100 808
101 268
102 13

$$$$

     RDKit          2D

  7  6  0  0  0  0  0  0  0  0999 V2000
    1.6238    3.1875    0.0000 C   0  0  0  0  0  0  0  0  0  0  0  0
   -4.8714    3.9375    0.0000 C   0  0  0  0  0  0  0  0  0  0  0  0
   -3.5724    1.6875    0.0000 C   0  0  0  0  0  0  0  0  0  0  0  0
    0.3248    3.9375    0.0000 C   0  0  0  0  0  0  0  0  0  0  0  0
   -3.5724    3.1875    0.0000 C   0  0  0  0  0  0  0  0  0  0  0  0
   -0.9743    3.1875    0.0000 N   0  0  0  0  0  0  0  0  0  0  0  0
   -2.2733    3.9375    0.0000 N   0  0  0  0  0  0  0  0  0  0  0  0
  4  1  1  0
  5  2  1  0
  5  3  1  0
  4  6  2  0
  7  5  1  0
  7  6  1  0
M  END
>  <NAME>  (5770) 
ISOPROPYLHYDRAZONE ACETALDEHYDE

>  <SYNONYMS>  (5770) 
ACETALDEHYDE ISOPROPYLHYDRAZONE

>  <SPECTRUM TYPE>  (5770) 
MS1

>  <INSTRUMENT TYPE>  (5770) 
EI-B

>  <INSTRUMENT>  (5770) 
SHIMADZU LKB-2091

>  <ION MODE>  (5770) 
P

>  <INCHIKEY>  (5770) 
CHDZJJJPEGMSAM-GQCTYLIASA-N

>  <FORMULA>  (5770) 
C5H12N2

>  <EXACT MASS>  (5770) 
100.10004838399999

>  <MW>  (5770) 
100

>  <ID>  (5770) 
JP000521

>  <CONTRIBUTOR>  (5770) 
University of Tokyo Team, {Faculty of Engineering, University of Tokyo

>  <COMMENT>  (5770) 
SMILES=CC=NNC(C)C
InChI=InChI=1S/C5H12N2/c1-4-6-7-5(2)3/h4-5,7H,1-3H3/b6-4+
computed SMILES=N(=CC)NC(C)C
accession=JP000521
author=SASAKI S, TOYOHASHI UNIV. OF TECH.
date=2016.01.19 (Created 2008.10.21, modified 2011.05.06)
license=CC BY-NC-SA
exact mass=100.10005
ionization energy=70 eV
ion type=[M]+*
computed spectral entropy=2.266935841724203
computed normalized entropy=0.7229915559108872
SPLASH=splash10-000f-9100000000-3b9f57646c4fc4cf7e49
submitter=submitter = University of Tokyo Team (Faculty of Engineering, University of Tokyo)
MoNA Rating=3.75

>  <NUM PEAKS>  (5770) 
23

>  <MASS SPECTRAL PEAKS>  (5770) 
28 22.8
29 8.6
30 11.9
31 0.37
39 6.1
40 3
41 19.3
42 2.81
43 22.8
44 73.8
45 3
55 0.14
56 4.2
57 10.5
58 12.4
59 0.16
68 1
69 1.1
85 99.99
86 0.61
99 2.1
100 38.5
101 4.7

>  <PREDICTED SPECTRUM>  (5770) 
14 51
15 149
16 34
17 16
18 30
25 13
26 116
27 365
28 371
29 331
30 590
31 26
38 78
39 291
40 194
41 468
42 589
43 598
44 332
45 119
54 70
55 54
56 167
57 393
58 246
85 999
86 192
99 245
100 494
101 131

$$$$

     RDKit          2D

  7  6  0  0  0  0  0  0  0  0999 V2000
    1.9486    3.3750    0.0000 C   0  0  0  0  0  0  0  0  0  0  0  0
   -5.8457    3.3750    0.0000 C   0  0  0  0  0  0  0  0  0  0  0  0
    0.6495    4.1250    0.0000 C   0  0  0  0  0  0  0  0  0  0  0  0
   -4.5466    4.1250    0.0000 C   0  0  0  0  0  0  0  0  0  0  0  0
   -0.6495    3.3750    0.0000 C   0  0  0  0  0  0  0  0  0  0  0  0
   -3.2476    3.3750    0.0000 N   0  0  0  0  0  0  0  0  0  0  0  0
   -1.9486    4.1250    0.0000 N   0  0  0  0  0  0  0  0  0  0  0  0
  3  1  1  0
  4  2  1  0
  5  3  1  0
  4  6  2  0
  7  5  1  0
  7  6  1  0
M  END
>  <NAME>  (5771) 
PROPYLHYDRAZONE ACETALDEHYDE

>  <SYNONYMS>  (5771) 
ACETALDEHYDE PROPYLHYDRAZONE

>  <SPECTRUM TYPE>  (5771) 
MS1

>  <INSTRUMENT TYPE>  (5771) 
EI-B

>  <INSTRUMENT>  (5771) 
SHIMADZU LKB-2091

>  <ION MODE>  (5771) 
P

>  <INCHIKEY>  (5771) 
JBTBOJIWJFQQPH-GQCTYLIASA-N

>  <FORMULA>  (5771) 
C5H12N2

>  <EXACT MASS>  (5771) 
100.10004838399999

>  <MW>  (5771) 
100

>  <ID>  (5771) 
JP000520

>  <CONTRIBUTOR>  (5771) 
University of Tokyo Team, {Faculty of Engineering, University of Tokyo

>  <COMMENT>  (5771) 
SMILES=CCCNN=CC
InChI=InChI=1S/C5H12N2/c1-3-5-7-6-4-2/h4,7H,3,5H2,1-2H3/b6-4+
computed SMILES=N(=CC)NCCC
accession=JP000520
date=2016.01.19 (Created 2008.10.21, modified 2011.05.06)
author=SASAKI S, TOYOHASHI UNIV. OF TECH.
license=CC BY-NC-SA
exact mass=100.10005
ionization energy=70 eV
ion type=[M]+*
computed spectral entropy=1.9090870241915976
computed normalized entropy=0.6176191537315954
SPLASH=splash10-00e9-9100000000-b0de4c68a4e09c5f6b03
submitter=submitter = University of Tokyo Team (Faculty of Engineering, University of Tokyo)
MoNA Rating=3.75

>  <NUM PEAKS>  (5771) 
22

>  <MASS SPECTRAL PEAKS>  (5771) 
28 1.5
29 6.7
30 67
31 0.18
39 3.5
40 1.6
41 9.3
42 2.68
43 7.8
44 3.7
54 0.6
55 0.09
56 2.5
57 3.7
58 4
69 0.13
71 99.99
72 5
85 2.5
99 0.08
100 28.9
101 4.5

>  <PREDICTED SPECTRUM>  (5771) 
14 77
15 227
16 44
17 50
18 79
25 41
26 235
27 658
28 599
29 702
30 770
31 173
36 1
37 10
38 164
39 429
40 240
41 623
42 657
43 597
44 402
45 31
52 69
54 179
55 100
56 177
57 304
58 130
59 94
60 36
69 35
70 179
71 999
72 242
85 222
99 182
100 559
101 131

$$$$

     RDKit          2D

  6  5  0  0  0  0  0  0  0  0999 V2000
   -4.5466    3.3750    0.0000 C   0  0  0  0  0  0  0  0  0  0  0  0
    1.9486    2.6250    0.0000 C   0  0  0  0  0  0  0  0  0  0  0  0
   -3.2476    2.6250    0.0000 C   0  0  0  0  0  0  0  0  0  0  0  0
    0.6495    3.3750    0.0000 C   0  0  0  0  0  0  0  0  0  0  0  0
   -1.9486    3.3750    0.0000 N   0  0  0  0  0  0  0  0  0  0  0  0
   -0.6495    2.6250    0.0000 N   0  0  0  0  0  0  0  0  0  0  0  0
  3  1  1  0
  4  2  1  0
  3  5  2  0
  6  4  1  0
  6  5  1  0
M  END
>  <NAME>  (5772) 
ETHYLHYDRAZONE ACETALDEHYDE

>  <SYNONYMS>  (5772) 
ACETALDEHYDE ETHYLHYDRAZONE

>  <SPECTRUM TYPE>  (5772) 
MS1

>  <INSTRUMENT TYPE>  (5772) 
EI-B

>  <INSTRUMENT>  (5772) 
SHIMADZU LKB-2091

>  <ION MODE>  (5772) 
P

>  <INCHIKEY>  (5772) 
ZVIGWRFKAYDBHV-HWKANZROSA-N

>  <FORMULA>  (5772) 
C4H10N2

>  <EXACT MASS>  (5772) 
86.08439831999999

>  <MW>  (5772) 
86

>  <ID>  (5772) 
JP000519

>  <CONTRIBUTOR>  (5772) 
University of Tokyo Team, {Faculty of Engineering, University of Tokyo

>  <COMMENT>  (5772) 
SMILES=CCNN=CC
InChI=InChI=1S/C4H10N2/c1-3-5-6-4-2/h3,6H,4H2,1-2H3/b5-3+
computed SMILES=N(=CC)NCC
accession=JP000519
date=2016.01.19 (Created 2008.10.21, modified 2011.05.06)
author=SASAKI S, TOYOHASHI UNIV. OF TECH.
license=CC BY-NC-SA
exact mass=86.0844
ionization energy=70 eV
ion type=[M]+*
computed spectral entropy=2.1580429519091076
computed normalized entropy=0.7616944754395057
SPLASH=splash10-00fr-9000000000-1ede16ad36045732e679
submitter=submitter = University of Tokyo Team (Faculty of Engineering, University of Tokyo)
MoNA Rating=3.75

>  <NUM PEAKS>  (5772) 
17

>  <MASS SPECTRAL PEAKS>  (5772) 
27 23
28 22.9
29 16.7
30 9.68
31 3.6
40 4.6
41 8.4
42 4.84
43 8.6
44 16.7
57 8.4
58 0.29
71 99.99
72 4
85 4.5
86 5.63
87 3.2

>  <PREDICTED SPECTRUM>  (5772) 
14 58
15 175
16 46
17 33
18 55
25 12
26 153
27 510
28 519
29 543
30 709
31 110
38 5
39 38
40 134
41 335
42 623
43 425
44 385
45 22
54 56
56 116
57 431
58 156
59 69
71 999
72 162
85 316
86 649
87 128

$$$$

     RDKit          2D

  5  4  0  0  0  0  0  0  0  0999 V2000
   -3.8971    2.2500    0.0000 C   0  0  0  0  0  0  0  0  0  0  0  0
    1.2990    2.2500    0.0000 C   0  0  0  0  0  0  0  0  0  0  0  0
   -2.5981    1.5000    0.0000 C   0  0  0  0  0  0  0  0  0  0  0  0
    0.0000    1.5000    0.0000 N   0  0  0  0  0  0  0  0  0  0  0  0
   -1.2990    2.2500    0.0000 N   0  0  0  0  0  0  0  0  0  0  0  0
  3  1  1  0
  4  2  1  0
  3  5  2  0
  5  4  1  0
M  END
>  <NAME>  (5773) 
METHYLHYDRAZONE ACETALDEHYDE

>  <SYNONYMS>  (5773) 
ACETALDEHYDE METHYLHYDRAZONE

>  <SPECTRUM TYPE>  (5773) 
MS1

>  <INSTRUMENT TYPE>  (5773) 
EI-B

>  <INSTRUMENT>  (5773) 
SHIMADZU LKB-2091

>  <ION MODE>  (5773) 
P

>  <INCHIKEY>  (5773) 
WIMYYXRANPYBED-HWKANZROSA-N

>  <FORMULA>  (5773) 
C3H8N2

>  <EXACT MASS>  (5773) 
72.06874825599999

>  <MW>  (5773) 
72

>  <ID>  (5773) 
JP000518

>  <CONTRIBUTOR>  (5773) 
University of Tokyo Team, {Faculty of Engineering, University of Tokyo

>  <COMMENT>  (5773) 
SMILES=CC=NNC
InChI=InChI=1S/C3H8N2/c1-3-5-4-2/h3-4H,1-2H3/b5-3+
computed SMILES=N(=CC)NC
accession=JP000518
date=2016.01.19 (Created 2008.10.21, modified 2011.05.06)
author=SASAKI S, TOYOHASHI UNIV. OF TECH.
license=CC BY-NC-SA
exact mass=72.06875
ionization energy=70 eV
ion type=[M]+*
computed spectral entropy=2.38149656358395
computed normalized entropy=0.7949630828520796
SPLASH=splash10-00fr-9000000000-610938a7a6d25ca9013f
submitter=submitter = University of Tokyo Team (Faculty of Engineering, University of Tokyo)
MoNA Rating=3.75

>  <NUM PEAKS>  (5773) 
20

>  <MASS SPECTRAL PEAKS>  (5773) 
27 16.7
28 38.6
29 20
30 8.63
31 13.1
39 3.4
40 5.4
41 1.36
42 36.3
43 19.5
44 9.5
45 0.12
55 5
56 6.5
57 36.8
58 0.19
69 1.5
71 18.1
72 99.99
73 5

>  <PREDICTED SPECTRUM>  (5773) 
14 104
15 268
16 55
17 27
18 58
25 35
26 177
27 428
28 507
29 397
30 618
31 157
38 129
39 271
40 252
41 440
42 649
43 487
44 321
45 91
52 6
53 56
54 81
55 245
56 194
57 999
58 179
59 36
71 418
72 784
73 213
74 15

$$$$

     RDKit          2D

 14 13  0  0  0  0  0  0  0  0999 V2000
   -8.4437    5.6250    0.0000 C   0  0  0  0  0  0  0  0  0  0  0  0
    3.2476    4.8750    0.0000 C   0  0  0  0  0  0  0  0  0  0  0  0
    0.6495    0.3750    0.0000 C   0  0  0  0  0  0  0  0  0  0  0  0
   -7.1447    4.8750    0.0000 C   0  0  0  0  0  0  0  0  0  0  0  0
    1.9486    5.6250    0.0000 C   0  0  0  0  0  0  0  0  0  0  0  0
   -0.6495    1.1250    0.0000 C   0  0  0  0  0  0  0  0  0  0  0  0
   -5.8457    5.6250    0.0000 C   0  0  0  0  0  0  0  0  0  0  0  0
    0.6495    4.8750    0.0000 C   0  0  0  0  0  0  0  0  0  0  0  0
   -0.6495    2.6250    0.0000 C   0  0  0  0  0  0  0  0  0  0  0  0
   -4.5466    4.8750    0.0000 C   0  0  0  0  0  0  0  0  0  0  0  0
   -0.6495    5.6250    0.0000 C   0  0  0  0  0  0  0  0  0  0  0  0
   -1.9486    3.3750    0.0000 C   0  0  0  0  0  0  0  0  0  0  0  0
   -3.2476    5.6250    0.0000 N   0  0  0  0  0  0  0  0  0  0  0  0
   -1.9486    4.8750    0.0000 N   0  0  0  0  0  0  0  0  0  0  0  0
  4  1  1  0
  5  2  1  0
  6  3  1  0
  4  7  2  0
  5  8  2  0
  6  9  2  0
 10  7  1  0
 11  8  1  0
 12  9  1  0
 13 10  1  0
 14 11  1  0
 14 12  1  0
 14 13  1  0
M  END
>  <NAME>  (5774) 
TRICROTYLHYDRAZINE

>  <SYNONYMS>  (5774) 
TRI(2-BUTENYL)HYDRAZINE

>  <SPECTRUM TYPE>  (5774) 
MS1

>  <INSTRUMENT TYPE>  (5774) 
EI-B

>  <INSTRUMENT>  (5774) 
SHIMADZU LKB-2091

>  <ION MODE>  (5774) 
P

>  <INCHIKEY>  (5774) 
ROGVVIJLTDOPKB-OTWDQPKHSA-N

>  <FORMULA>  (5774) 
C12H22N2

>  <EXACT MASS>  (5774) 
194.17829870399999

>  <MW>  (5774) 
194

>  <ID>  (5774) 
JP000517

>  <CONTRIBUTOR>  (5774) 
University of Tokyo Team, {Faculty of Engineering, University of Tokyo

>  <COMMENT>  (5774) 
SMILES=CC=CCNN(CC=CC)CC=CC
InChI=InChI=1S/C12H22N2/c1-4-7-10-13-14(11-8-5-2)12-9-6-3/h4-9,13H,10-12H2,1-3H3/b7-4+,8-5+,9-6+
computed SMILES=C(=CCNN(CC=CC)CC=CC)C
accession=JP000517
date=2016.01.19 (Created 2008.10.21, modified 2011.05.06)
author=SASAKI S, TOYOHASHI UNIV. OF TECH.
license=CC BY-NC-SA
exact mass=194.1783
ionization energy=70 eV
ion type=[M]+*
computed spectral entropy=2.245310869624144
computed normalized entropy=0.6367218705944828
SPLASH=splash10-0a4i-9200000000-e300a6737f2da8d25e24
submitter=submitter = University of Tokyo Team (Faculty of Engineering, University of Tokyo)
MoNA Rating=3.75

>  <NUM PEAKS>  (5774) 
34

>  <MASS SPECTRAL PEAKS>  (5774) 
27 9
28 4.4
29 20.1
30 0.32
31 1.2
39 8.1
40 0.9
41 1.07
42 3.5
43 4.2
44 3.6
45 0.13
53 4
54 2.1
55 99.99
56 0.74
57 1.9
58 0.9
67 1.5
68 0.67
69 3
70 2.3
81 0.9
82 0.07
83 3.4
85 10.9
86 1.2
137 0.07
139 36.3
140 5.6
141 1.1
182 0.07
184 4
185 0.6

>  <PREDICTED SPECTRUM>  (5774) 
26 74
27 317
28 164
29 368
30 199
31 81
37 39
38 70
39 320
40 152
41 466
42 171
43 176
44 174
45 22
50 40
51 128
52 98
53 306
54 154
55 653
56 265
57 185
58 70
62 25
63 20
64 6
65 47
67 150
68 169
69 97
70 156
71 116
72 57
77 39
79 51
80 63
81 132
82 135
83 406
84 241
85 108
86 81
93 110
94 35
95 113
96 90
97 150
98 47
99 59
108 44
109 100
110 46
111 287
112 115
113 88
122 91
124 24
125 36
126 32
135 21
137 86
138 75
139 999
140 353
141 64
151 84
152 90
165 75
179 179
180 38
194 368
195 147
196 5

$$$$

     RDKit          2D

 11 10  0  0  0  0  0  0  0  0999 V2000
   -8.4437    3.3750    0.0000 C   0  0  0  0  0  0  0  0  0  0  0  0
    0.6495    2.6250    0.0000 C   0  0  0  0  0  0  0  0  0  0  0  0
   -1.9486    7.1250    0.0000 C   0  0  0  0  0  0  0  0  0  0  0  0
   -7.1447    2.6250    0.0000 C   0  0  0  0  0  0  0  0  0  0  0  0
   -0.6495    3.3750    0.0000 C   0  0  0  0  0  0  0  0  0  0  0  0
   -1.9486    5.6250    0.0000 C   0  0  0  0  0  0  0  0  0  0  0  0
   -5.8457    3.3750    0.0000 C   0  0  0  0  0  0  0  0  0  0  0  0
   -1.9486    2.6250    0.0000 C   0  0  0  0  0  0  0  0  0  0  0  0
   -3.2476    4.8750    0.0000 C   0  0  0  0  0  0  0  0  0  0  0  0
   -4.5466    2.6250    0.0000 N   0  0  0  0  0  0  0  0  0  0  0  0
   -3.2476    3.3750    0.0000 N   0  0  0  0  0  0  0  0  0  0  0  0
  4  1  2  0
  5  2  2  0
  6  3  2  0
  7  4  1  0
  8  5  1  0
  9  6  1  0
 10  7  1  0
 11  8  1  0
 11  9  1  0
 11 10  1  0
M  END
>  <NAME>  (5775) 
TRIALLYLHYDRAZINE

>  <SYNONYMS>  (5775) 


>  <SPECTRUM TYPE>  (5775) 
MS1

>  <INSTRUMENT TYPE>  (5775) 
EI-B

>  <INSTRUMENT>  (5775) 
SHIMADZU LKB-2091

>  <ION MODE>  (5775) 
P

>  <INCHIKEY>  (5775) 
DQSIAGHCYOKRFM-UHFFFAOYSA-N

>  <FORMULA>  (5775) 
C9H16N2

>  <EXACT MASS>  (5775) 
152.131348512

>  <MW>  (5775) 
152

>  <ID>  (5775) 
JP000516

>  <CONTRIBUTOR>  (5775) 
University of Tokyo Team, {Faculty of Engineering, University of Tokyo

>  <COMMENT>  (5775) 
SMILES=C=CCNN(CC=C)CC=C
InChI=InChI=1S/C9H16N2/c1-4-7-10-11(8-5-2)9-6-3/h4-6,10H,1-3,7-9H2
computed SMILES=C=CCNN(CC=C)CC=C
accession=JP000516
date=2016.01.19 (Created 2008.10.21, modified 2011.05.06)
author=SASAKI S, TOYOHASHI UNIV. OF TECH.
license=CC BY-NC-SA
exact mass=152.13135
ionization energy=70 eV
ion type=[M]+*
computed spectral entropy=1.9613977311421373
computed normalized entropy=0.6020072481747946
SPLASH=splash10-0006-9300000000-1eb86cd3bdad3cb5db25
submitter=submitter = University of Tokyo Team (Faculty of Engineering, University of Tokyo)
MoNA Rating=3.75

>  <NUM PEAKS>  (5775) 
26

>  <MASS SPECTRAL PEAKS>  (5775) 
28 7.8
29 4.1
30 3.3
38 0.09
39 18.9
40 3
41 99.99
42 0.93
43 4.1
53 1.3
54 3.3
55 0.74
56 5
57 1.1
67 1.4
68 0.16
69 2.8
70 1.4
81 1.8
83 0.1
94 0.8
111 42.6
112 3.7
113 0.17
152 10.4
153 1.2

>  <PREDICTED SPECTRUM>  (5775) 
15 0
26 42
27 209
28 166
29 200
30 170
33 6
34 10
36 9
37 22
38 57
39 497
40 187
41 999
42 263
43 254
44 106
51 46
52 78
53 173
54 264
55 380
56 559
57 257
58 77
62 35
63 66
65 89
66 20
67 177
68 232
69 371
70 292
71 161
72 91
78 37
79 39
80 194
81 220
82 227
83 249
84 77
85 80
89 3
92 44
93 75
94 113
95 82
96 195
97 96
98 73
108 138
109 191
110 128
111 591
112 174
113 60
119 13
123 109
124 26
125 195
126 24
135 8
137 254
138 79
139 7
151 199
152 385
153 170
154 81

$$$$

     RDKit          2D

 12 11  0  0  0  0  0  0  0  0999 V2000
    2.2733    5.0625    0.0000 C   0  0  0  0  0  0  0  0  0  0  0  0
   -8.1190    5.0625    0.0000 C   0  0  0  0  0  0  0  0  0  0  0  0
   -6.8200    2.8125    0.0000 C   0  0  0  0  0  0  0  0  0  0  0  0
   -2.9228    3.5625    0.0000 C   0  0  0  0  0  0  0  0  0  0  0  0
    0.9743    5.8125    0.0000 C   0  0  0  0  0  0  0  0  0  0  0  0
   -6.8200    5.8125    0.0000 C   0  0  0  0  0  0  0  0  0  0  0  0
   -5.5209    3.5625    0.0000 C   0  0  0  0  0  0  0  0  0  0  0  0
   -0.3248    5.0625    0.0000 C   0  0  0  0  0  0  0  0  0  0  0  0
   -1.6238    5.8125    0.0000 C   0  0  0  0  0  0  0  0  0  0  0  0
   -2.9228    5.0625    0.0000 C   0  0  0  0  0  0  0  0  0  0  0  0
   -4.2219    5.8125    0.0000 N   0  0  0  0  0  0  0  0  0  0  0  0
   -5.5209    5.0625    0.0000 N   0  0  0  0  0  0  0  0  0  0  0  0
  5  1  1  0
  6  2  1  0
  7  3  1  0
  8  5  1  0
  9  8  1  0
 10  4  1  0
 10  9  1  0
 11 10  1  0
 12  6  1  0
 12  7  1  0
 12 11  1  0
M  END
>  <NAME>  (5776) 
1,1-DIETHYL-2-(1-METHYLPENTYL)HYDRAZINE

>  <SYNONYMS>  (5776) 


>  <SPECTRUM TYPE>  (5776) 
MS1

>  <INSTRUMENT TYPE>  (5776) 
EI-B

>  <INSTRUMENT>  (5776) 
SHIMADZU LKB-2091

>  <ION MODE>  (5776) 
P

>  <INCHIKEY>  (5776) 
XDLSHZQLGZQWAF-UHFFFAOYSA-N

>  <FORMULA>  (5776) 
C10H24N2

>  <EXACT MASS>  (5776) 
172.19394876799998

>  <MW>  (5776) 
172

>  <ID>  (5776) 
JP000515

>  <CONTRIBUTOR>  (5776) 
University of Tokyo Team, {Faculty of Engineering, University of Tokyo

>  <COMMENT>  (5776) 
SMILES=CCCCC(C)NN(CC)CC
InChI=InChI=1S/C10H24N2/c1-5-8-9-10(4)11-12(6-2)7-3/h10-11H,5-9H2,1-4H3
computed SMILES=N(N(CC)CC)C(C)CCCC
accession=JP000515
date=2016.01.19 (Created 2008.10.21, modified 2011.05.06)
author=SASAKI S, TOYOHASHI UNIV. OF TECH.
license=CC BY-NC-SA
exact mass=172.19395
ionization energy=70 eV
ion type=[M]+*
computed spectral entropy=2.1839919248593502
computed normalized entropy=0.6246209643382998
SPLASH=splash10-000i-9000000000-79cb9c830ec6b6e6ce95
submitter=submitter = University of Tokyo Team (Faculty of Engineering, University of Tokyo)
MoNA Rating=3.75

>  <NUM PEAKS>  (5776) 
33

>  <MASS SPECTRAL PEAKS>  (5776) 
27 4.6
28 2.8
29 9
30 0.31
31 3.4
39 1.1
41 4.7
42 0.72
43 8
44 10.6
45 1
55 0.13
56 2.7
57 2.6
58 3.9
59 2.62
60 1.2
70 0.9
71 1.2
72 0.51
73 6
85 1.2
86 0.6
87 99.99
88 7.2
99 0.9
100 1.1
115 0.96
116 0.8
143 2.8
157 4.1
172 2.08
173 3.3

>  <PREDICTED SPECTRUM>  (5776) 
15 10
27 134
28 122
29 219
30 275
31 36
39 138
40 48
41 291
42 275
43 275
44 423
45 205
53 29
55 153
56 234
57 324
58 188
59 621
60 113
69 130
70 49
71 159
72 206
73 96
84 28
85 158
87 999
88 161
89 9
99 64
100 50
101 161
113 51
115 489
116 47
129 55
143 38
157 112
172 475
173 175
174 7

$$$$

     RDKit          2D

 11 10  0  0  0  0  0  0  0  0999 V2000
   -8.4437    3.3750    0.0000 C   0  0  0  0  0  0  0  0  0  0  0  0
    0.6495    2.6250    0.0000 C   0  0  0  0  0  0  0  0  0  0  0  0
   -1.9486    7.1250    0.0000 C   0  0  0  0  0  0  0  0  0  0  0  0
   -7.1447    2.6250    0.0000 C   0  0  0  0  0  0  0  0  0  0  0  0
   -0.6495    3.3750    0.0000 C   0  0  0  0  0  0  0  0  0  0  0  0
   -1.9486    5.6250    0.0000 C   0  0  0  0  0  0  0  0  0  0  0  0
   -5.8457    3.3750    0.0000 C   0  0  0  0  0  0  0  0  0  0  0  0
   -1.9486    2.6250    0.0000 C   0  0  0  0  0  0  0  0  0  0  0  0
   -3.2476    4.8750    0.0000 C   0  0  0  0  0  0  0  0  0  0  0  0
   -4.5466    2.6250    0.0000 N   0  0  0  0  0  0  0  0  0  0  0  0
   -3.2476    3.3750    0.0000 N   0  0  0  0  0  0  0  0  0  0  0  0
  4  1  1  0
  5  2  1  0
  6  3  1  0
  7  4  1  0
  8  5  1  0
  9  6  1  0
 10  7  1  0
 11  8  1  0
 11  9  1  0
 11 10  1  0
M  END
>  <NAME>  (5777) 
TRIPROPYLHYDRAZINE

>  <SYNONYMS>  (5777) 


>  <SPECTRUM TYPE>  (5777) 
MS1

>  <INSTRUMENT TYPE>  (5777) 
EI-B

>  <INSTRUMENT>  (5777) 
SHIMADZU LKB-2091

>  <ION MODE>  (5777) 
P

>  <INCHIKEY>  (5777) 
JOGSSTIPCUFRHC-UHFFFAOYSA-N

>  <FORMULA>  (5777) 
C9H22N2

>  <EXACT MASS>  (5777) 
158.17829870399999

>  <MW>  (5777) 
158

>  <ID>  (5777) 
JP000514

>  <CONTRIBUTOR>  (5777) 
University of Tokyo Team, {Faculty of Engineering, University of Tokyo

>  <COMMENT>  (5777) 
SMILES=CCCNN(CCC)CCC
InChI=InChI=1S/C9H22N2/c1-4-7-10-11(8-5-2)9-6-3/h10H,4-9H2,1-3H3
computed SMILES=N(N(CCC)CCC)CCC
accession=JP000514
date=2016.01.19 (Created 2008.10.21, modified 2011.05.06)
author=SASAKI S, TOYOHASHI UNIV. OF TECH.
license=CC BY-NC-SA
exact mass=158.1783
ionization energy=70 eV
ion type=[M]+*
computed spectral entropy=2.737532770564413
computed normalized entropy=0.7421041551009329
SPLASH=splash10-004i-7900000000-4df6de3d85b96bd773eb
submitter=submitter = University of Tokyo Team (Faculty of Engineering, University of Tokyo)
MoNA Rating=3.75

>  <NUM PEAKS>  (5777) 
40

>  <MASS SPECTRAL PEAKS>  (5777) 
27 14.2
28 8.5
29 4.6
30 1.67
31 3.7
32 2.6
39 2.8
40 0.06
41 18.6
42 9.8
43 27.8
44 0.63
45 14.8
54 1
55 0.6
56 1.13
57 6.7
58 14.8
59 1.9
60 0.43
70 5.9
71 1.5
72 15.2
73 1.08
74 0.9
85 2.2
86 2
87 3.34
88 2.1
98 0.9
99 1.2
100 0.22
101 1.9
115 46.4
116 4.3
127 0.09
129 99.99
130 9.8
158 39
159 6.1

>  <PREDICTED SPECTRUM>  (5777) 
15 25
18 20
25 4
26 71
27 303
28 239
29 231
30 483
31 46
39 315
40 142
41 601
42 489
43 640
44 289
45 77
46 54
52 25
54 139
55 72
56 269
57 274
58 346
59 102
60 11
68 38
69 15
70 269
71 151
72 457
73 62
84 139
85 180
86 381
87 739
88 253
89 36
99 116
100 220
101 128
113 32
114 326
115 131
116 37
118 41
127 71
128 71
129 999
130 213
131 86
143 4
157 133
158 334
159 118

$$$$

     RDKit          2D

 11 10  0  0  0  0  0  0  0  0999 V2000
    2.2733    5.0625    0.0000 C   0  0  0  0  0  0  0  0  0  0  0  0
   -8.1190    5.0625    0.0000 C   0  0  0  0  0  0  0  0  0  0  0  0
   -6.8200    2.8125    0.0000 C   0  0  0  0  0  0  0  0  0  0  0  0
    0.9743    5.8125    0.0000 C   0  0  0  0  0  0  0  0  0  0  0  0
   -6.8200    5.8125    0.0000 C   0  0  0  0  0  0  0  0  0  0  0  0
   -5.5209    3.5625    0.0000 C   0  0  0  0  0  0  0  0  0  0  0  0
   -0.3248    5.0625    0.0000 C   0  0  0  0  0  0  0  0  0  0  0  0
   -1.6238    5.8125    0.0000 C   0  0  0  0  0  0  0  0  0  0  0  0
   -2.9228    5.0625    0.0000 C   0  0  0  0  0  0  0  0  0  0  0  0
   -4.2219    5.8125    0.0000 N   0  0  0  0  0  0  0  0  0  0  0  0
   -5.5209    5.0625    0.0000 N   0  0  0  0  0  0  0  0  0  0  0  0
  4  1  1  0
  5  2  1  0
  6  3  1  0
  7  4  1  0
  8  7  1  0
  9  8  1  0
 10  9  1  0
 11  5  1  0
 11  6  1  0
 11 10  1  0
M  END
>  <NAME>  (5778) 
1,1-DIETHYL-2-PENTYLHYDRAZINE

>  <SYNONYMS>  (5778) 


>  <SPECTRUM TYPE>  (5778) 
MS1

>  <INSTRUMENT TYPE>  (5778) 
EI-B

>  <INSTRUMENT>  (5778) 
SHIMADZU LKB-2091

>  <ION MODE>  (5778) 
P

>  <INCHIKEY>  (5778) 
MVMRYSSNWDNQEZ-UHFFFAOYSA-N

>  <FORMULA>  (5778) 
C9H22N2

>  <EXACT MASS>  (5778) 
158.17829870399999

>  <MW>  (5778) 
158

>  <ID>  (5778) 
JP000513

>  <CONTRIBUTOR>  (5778) 
University of Tokyo Team, {Faculty of Engineering, University of Tokyo

>  <COMMENT>  (5778) 
SMILES=CCCCCNN(CC)CC
InChI=InChI=1S/C9H22N2/c1-4-7-8-9-10-11(5-2)6-3/h10H,4-9H2,1-3H3
computed SMILES=N(N(CC)CC)CCCCC
accession=JP000513
date=2016.01.19 (Created 2008.10.21, modified 2011.05.06)
author=SASAKI S, TOYOHASHI UNIV. OF TECH.
license=CC BY-NC-SA
exact mass=158.1783
ionization energy=70 eV
ion type=[M]+*
computed spectral entropy=2.622398098262064
computed normalized entropy=0.7016131349422143
SPLASH=splash10-052r-9300000000-4d871ec4be143d617f73
submitter=submitter = University of Tokyo Team (Faculty of Engineering, University of Tokyo)
MoNA Rating=3.75

>  <NUM PEAKS>  (5778) 
42

>  <MASS SPECTRAL PEAKS>  (5778) 
27 5.8
28 3.9
29 12.2
30 1.1
31 4.9
32 1
39 1.7
41 0.58
42 8.4
43 12.2
44 11.6
45 0.23
46 0.5
55 1.5
56 5.1
57 0.34
58 6.5
59 24.5
60 1.6
69 0.1
70 1.5
71 2.8
72 3.6
73 2.26
74 1.4
84 0.9
85 1.6
86 0.21
87 99.99
88 5.2
99 0.5
100 0.06
101 12.9
102 0.9
115 0.4
129 1.3
130 1.3
143 18
144 2.1
157 0.08
158 33.5
159 5.3

>  <PREDICTED SPECTRUM>  (5778) 
15 10
27 150
28 108
29 254
30 328
31 27
39 191
40 68
41 409
42 334
43 391
44 443
45 356
46 67
54 54
55 259
56 385
57 293
58 485
59 215
67 7
68 35
69 91
70 130
71 229
72 599
73 30
85 45
86 138
87 999
88 193
99 98
100 75
101 389
102 109
113 74
115 65
129 353
130 121
143 160
144 8
157 143
158 327
159 94

$$$$

     RDKit          2D

 10  9  0  0  0  0  0  0  0  0999 V2000
    1.6238    3.9375    0.0000 C   0  0  0  0  0  0  0  0  0  0  0  0
   -6.1704    3.9375    0.0000 C   0  0  0  0  0  0  0  0  0  0  0  0
   -4.8714    1.6875    0.0000 C   0  0  0  0  0  0  0  0  0  0  0  0
   -0.9743    2.4375    0.0000 C   0  0  0  0  0  0  0  0  0  0  0  0
    0.3248    4.6875    0.0000 C   0  0  0  0  0  0  0  0  0  0  0  0
   -4.8714    4.6875    0.0000 C   0  0  0  0  0  0  0  0  0  0  0  0
   -3.5724    2.4375    0.0000 C   0  0  0  0  0  0  0  0  0  0  0  0
   -0.9743    3.9375    0.0000 C   0  0  0  0  0  0  0  0  0  0  0  0
   -2.2733    4.6875    0.0000 N   0  0  0  0  0  0  0  0  0  0  0  0
   -3.5724    3.9375    0.0000 N   0  0  0  0  0  0  0  0  0  0  0  0
  5  1  1  0
  6  2  1  0
  7  3  1  0
  8  4  1  0
  8  5  1  0
  9  8  1  0
 10  6  1  0
 10  7  1  0
 10  9  1  0
M  END
>  <NAME>  (5779) 
2-SEC-BUTYL-1,1-DIETHYLHYDRAZINE

>  <SYNONYMS>  (5779) 


>  <SPECTRUM TYPE>  (5779) 
MS1

>  <INSTRUMENT TYPE>  (5779) 
EI-B

>  <INSTRUMENT>  (5779) 
SHIMADZU LKB-2091

>  <ION MODE>  (5779) 
P

>  <INCHIKEY>  (5779) 
WFQSIAIFBOBSOD-UHFFFAOYSA-N

>  <FORMULA>  (5779) 
C8H20N2

>  <EXACT MASS>  (5779) 
144.16264864

>  <MW>  (5779) 
144

>  <ID>  (5779) 
JP000512

>  <CONTRIBUTOR>  (5779) 
University of Tokyo Team, {Faculty of Engineering, University of Tokyo

>  <COMMENT>  (5779) 
SMILES=CCC(C)NN(CC)CC
InChI=InChI=1S/C8H20N2/c1-5-8(4)9-10(6-2)7-3/h8-9H,5-7H2,1-4H3
computed SMILES=N(N(CC)CC)C(C)CC
accession=JP000512
date=2016.01.19 (Created 2008.10.21, modified 2011.05.06)
author=SASAKI S, TOYOHASHI UNIV. OF TECH.
license=CC BY-NC-SA
exact mass=144.16265
ion type=[M]+*
ionization energy=70 eV
computed spectral entropy=2.317505845191917
computed normalized entropy=0.681379404114253
SPLASH=splash10-000l-9100000000-a9170a3337350ae94615
submitter=submitter = University of Tokyo Team (Faculty of Engineering, University of Tokyo)
MoNA Rating=3.75

>  <NUM PEAKS>  (5779) 
30

>  <MASS SPECTRAL PEAKS>  (5779) 
27 6.3
28 6.1
29 14.9
30 0.49
31 6.3
39 1.3
40 0.6
41 0.49
42 11.4
43 2.3
44 13.7
45 0.18
55 1.4
56 3.6
57 4.6
58 0.49
59 43.4
60 1.7
70 1
71 0.17
72 8.5
73 6.2
87 99.99
88 0.59
99 0.8
115 9.9
116 0.8
129 0.4
144 26.6
145 3.2

>  <PREDICTED SPECTRUM>  (5779) 
15 18
26 37
27 288
28 235
29 410
30 539
31 134
39 226
40 60
41 367
42 448
43 229
44 677
45 233
46 25
54 55
55 115
56 526
57 438
58 565
59 679
60 7
67 0
70 244
71 343
72 991
73 510
74 63
85 315
87 537
88 23
99 109
101 92
115 999
116 257
129 234
130 6
143 54
144 629
145 204

$$$$

     RDKit          2D

  9  8  0  0  0  0  0  0  0  0999 V2000
   -5.5209    2.8125    0.0000 C   0  0  0  0  0  0  0  0  0  0  0  0
   -4.2219    5.0625    0.0000 C   0  0  0  0  0  0  0  0  0  0  0  0
    0.9743    2.0625    0.0000 C   0  0  0  0  0  0  0  0  0  0  0  0
   -0.3248    4.3125    0.0000 C   0  0  0  0  0  0  0  0  0  0  0  0
   -4.2219    2.0625    0.0000 C   0  0  0  0  0  0  0  0  0  0  0  0
   -2.9228    4.3125    0.0000 C   0  0  0  0  0  0  0  0  0  0  0  0
   -0.3248    2.8125    0.0000 C   0  0  0  0  0  0  0  0  0  0  0  0
   -1.6238    2.0625    0.0000 N   0  0  0  0  0  0  0  0  0  0  0  0
   -2.9228    2.8125    0.0000 N   0  0  0  0  0  0  0  0  0  0  0  0
  5  1  1  0
  6  2  1  0
  7  3  1  0
  7  4  1  0
  8  7  1  0
  9  5  1  0
  9  6  1  0
  9  8  1  0
M  END
>  <NAME>  (5780) 
1,1-DIETHYL-2-ISOPROPYLHYDRAZINE

>  <SYNONYMS>  (5780) 


>  <SPECTRUM TYPE>  (5780) 
MS1

>  <INSTRUMENT TYPE>  (5780) 
EI-B

>  <INSTRUMENT>  (5780) 
SHIMADZU LKB-2091

>  <ION MODE>  (5780) 
P

>  <INCHIKEY>  (5780) 
NXZICZUBTFZKTO-UHFFFAOYSA-N

>  <FORMULA>  (5780) 
C7H18N2

>  <EXACT MASS>  (5780) 
130.146998576

>  <MW>  (5780) 
130

>  <ID>  (5780) 
JP000511

>  <CONTRIBUTOR>  (5780) 
University of Tokyo Team, {Faculty of Engineering, University of Tokyo

>  <COMMENT>  (5780) 
SMILES=CCN(CC)NC(C)C
InChI=InChI=1S/C7H18N2/c1-5-9(6-2)8-7(3)4/h7-8H,5-6H2,1-4H3
computed SMILES=N(N(CC)CC)C(C)C
accession=JP000511
date=2016.01.19 (Created 2008.10.21, modified 2011.05.06)
author=SASAKI S, TOYOHASHI UNIV. OF TECH.
license=CC BY-NC-SA
exact mass=130.147
ionization energy=70 eV
ion type=[M]+*
computed spectral entropy=2.4705627631546756
computed normalized entropy=0.7005984628935784
SPLASH=splash10-000i-9200000000-ff933359903f59960049
submitter=submitter = University of Tokyo Team (Faculty of Engineering, University of Tokyo)
MoNA Rating=3.75

>  <NUM PEAKS>  (5780) 
34

>  <MASS SPECTRAL PEAKS>  (5780) 
27 8.3
28 7.2
29 12.4
30 0.65
31 9.3
39 1.3
40 0.9
41 0.53
42 12.4
43 8.1
44 10.3
45 0.24
56 4.2
57 1.8
58 9.3
59 5.37
60 2.1
70 0.9
71 2.2
72 0.56
73 4.6
85 1.1
86 0.8
87 99.99
88 6
99 2.4
101 4.9
113 0.06
114 0.9
115 7.4
116 0.6
129 0.04
130 37.1
131 4.4

>  <PREDICTED SPECTRUM>  (5780) 
15 87
26 22
27 307
28 328
29 312
30 694
31 203
39 355
40 175
41 433
42 575
43 400
44 692
45 999
55 62
56 420
57 333
58 716
59 666
60 119
70 79
71 529
72 644
73 598
85 148
87 717
88 109
101 121
115 747
116 96
129 203
130 528
131 113

$$$$

     RDKit          2D

  9  8  0  0  0  0  0  0  0  0999 V2000
    1.6238    3.9375    0.0000 C   0  0  0  0  0  0  0  0  0  0  0  0
   -6.1704    3.9375    0.0000 C   0  0  0  0  0  0  0  0  0  0  0  0
   -4.8714    1.6875    0.0000 C   0  0  0  0  0  0  0  0  0  0  0  0
    0.3248    4.6875    0.0000 C   0  0  0  0  0  0  0  0  0  0  0  0
   -4.8714    4.6875    0.0000 C   0  0  0  0  0  0  0  0  0  0  0  0
   -3.5724    2.4375    0.0000 C   0  0  0  0  0  0  0  0  0  0  0  0
   -0.9743    3.9375    0.0000 C   0  0  0  0  0  0  0  0  0  0  0  0
   -2.2733    4.6875    0.0000 N   0  0  0  0  0  0  0  0  0  0  0  0
   -3.5724    3.9375    0.0000 N   0  0  0  0  0  0  0  0  0  0  0  0
  4  1  1  0
  5  2  1  0
  6  3  1  0
  7  4  1  0
  8  7  1  0
  9  5  1  0
  9  6  1  0
  9  8  1  0
M  END
>  <NAME>  (5781) 
1,1-DIETHYL-2-PROPYLHYDRAZINE

>  <SYNONYMS>  (5781) 


>  <SPECTRUM TYPE>  (5781) 
MS1

>  <INSTRUMENT TYPE>  (5781) 
EI-B

>  <INSTRUMENT>  (5781) 
SHIMADZU LKB-2091

>  <ION MODE>  (5781) 
P

>  <INCHIKEY>  (5781) 
YFTVJZZMQIPLDM-UHFFFAOYSA-N

>  <FORMULA>  (5781) 
C7H18N2

>  <EXACT MASS>  (5781) 
130.146998576

>  <MW>  (5781) 
130

>  <ID>  (5781) 
JP000510

>  <CONTRIBUTOR>  (5781) 
University of Tokyo Team, {Faculty of Engineering, University of Tokyo

>  <COMMENT>  (5781) 
SMILES=CCCNN(CC)CC
InChI=InChI=1S/C7H18N2/c1-4-7-8-9(5-2)6-3/h8H,4-7H2,1-3H3
computed SMILES=N(N(CC)CC)CCC
accession=JP000510
date=2016.01.19 (Created 2008.10.21, modified 2011.05.06)
author=SASAKI S, TOYOHASHI UNIV. OF TECH.
license=CC BY-NC-SA
exact mass=130.147
ionization energy=70 eV
ion type=[M]+*
computed spectral entropy=2.808838816696627
computed normalized entropy=0.7666962065901123
SPLASH=splash10-0019-9200000000-0f342651babfbc36446c
submitter=submitter = University of Tokyo Team (Faculty of Engineering, University of Tokyo)
MoNA Rating=3.75

>  <NUM PEAKS>  (5781) 
39

>  <MASS SPECTRAL PEAKS>  (5781) 
27 20.6
28 14.2
29 22.2
30 2.38
31 15.8
32 2.4
39 2.5
40 0.11
41 11.9
42 20.6
43 17.4
44 2.7
45 5.6
46 1.4
54 1.1
55 0.08
56 10.3
57 5.8
58 28.5
59 5.71
60 3.5
70 2.2
71 3.3
72 0.84
73 14.3
74 0.9
85 1.7
86 0.13
87 99.99
88 6
99 0.5
101 2.06
102 2.7
113 1
115 22.2
116 0.19
129 1
130 55.6
131 6.7

>  <PREDICTED SPECTRUM>  (5781) 
15 15
26 27
27 171
28 141
29 207
30 369
31 80
39 248
40 125
41 520
42 568
43 423
44 731
45 255
46 118
52 45
54 100
55 88
56 448
57 307
58 664
59 524
60 132
69 23
70 262
71 392
72 741
73 208
85 84
87 97
101 999
102 225
103 47
115 193
129 108
130 434
131 144

$$$$

     RDKit          2D

  9  8  0  0  0  0  0  0  0  0999 V2000
    1.9486    2.6250    0.0000 C   0  0  0  0  0  0  0  0  0  0  0  0
    0.6495    4.8750    0.0000 C   0  0  0  0  0  0  0  0  0  0  0  0
   -0.6495    1.1250    0.0000 C   0  0  0  0  0  0  0  0  0  0  0  0
   -4.5466    3.3750    0.0000 C   0  0  0  0  0  0  0  0  0  0  0  0
   -3.2476    1.1250    0.0000 C   0  0  0  0  0  0  0  0  0  0  0  0
    0.6495    3.3750    0.0000 C   0  0  0  0  0  0  0  0  0  0  0  0
   -0.6495    2.6250    0.0000 C   0  0  0  0  0  0  0  0  0  0  0  0
   -1.9486    3.3750    0.0000 N   0  0  0  0  0  0  0  0  0  0  0  0
   -3.2476    2.6250    0.0000 N   0  0  0  0  0  0  0  0  0  0  0  0
  6  1  1  0
  6  2  1  0
  7  3  1  0
  7  6  1  0
  8  7  1  0
  9  4  1  0
  9  5  1  0
  9  8  1  0
M  END
>  <NAME>  (5782) 
2-(1,2-DIMETHYLPROPYL)-1,1-DIMETHYLHYDRAZINE

>  <SYNONYMS>  (5782) 


>  <SPECTRUM TYPE>  (5782) 
MS1

>  <INSTRUMENT TYPE>  (5782) 
EI-B

>  <INSTRUMENT>  (5782) 
SHIMADZU LKB-2091

>  <ION MODE>  (5782) 
P

>  <INCHIKEY>  (5782) 
GIVUQKPXEOZXCB-UHFFFAOYSA-N

>  <FORMULA>  (5782) 
C7H18N2

>  <EXACT MASS>  (5782) 
130.146998576

>  <MW>  (5782) 
130

>  <ID>  (5782) 
JP000509

>  <CONTRIBUTOR>  (5782) 
University of Tokyo Team, {Faculty of Engineering, University of Tokyo

>  <COMMENT>  (5782) 
SMILES=CN(C)NC(C)C(C)C
InChI=InChI=1S/C7H18N2/c1-6(2)7(3)8-9(4)5/h6-8H,1-5H3
computed SMILES=N(N(C)C)C(C)C(C)C
accession=JP000509
date=2016.01.19 (Created 2008.10.21, modified 2011.05.06)
author=SASAKI S, TOYOHASHI UNIV. OF TECH.
license=CC BY-NC-SA
exact mass=130.147
ionization energy=70 eV
ion type=[M]+*
computed spectral entropy=2.360811217403927
computed normalized entropy=0.6811861271647364
SPLASH=splash10-052u-9100000000-0ffc7b681a6b6b8ff5a3
submitter=submitter = University of Tokyo Team (Faculty of Engineering, University of Tokyo)
MoNA Rating=3.75

>  <NUM PEAKS>  (5782) 
32

>  <MASS SPECTRAL PEAKS>  (5782) 
27 4.9
28 3.8
29 4
30 0.35
31 0.9
39 2.7
40 0.9
41 0.64
42 14
43 19.8
44 54.6
45 2.05
46 4.7
55 2.1
56 1.3
57 0.09
58 7.3
59 99.99
60 27.6
61 0.18
70 2.9
71 4
72 1.7
85 0.12
86 2.9
87 96.4
88 10.2
99 0.16
114 1.8
115 2.7
130 43.7
131 6.4

>  <PREDICTED SPECTRUM>  (5782) 
15 14
27 126
28 143
29 80
30 152
31 1
39 139
40 102
41 322
42 383
43 537
44 843
45 513
46 246
47 87
53 7
54 31
55 182
56 169
57 254
58 295
59 745
60 311
61 134
70 156
71 229
72 211
73 159
85 117
86 85
87 999
88 313
101 20
115 84
129 3
130 693
131 252
132 85

$$$$

     RDKit          2D

  9  8  0  0  0  0  0  0  0  0999 V2000
    1.9486    3.3750    0.0000 C   0  0  0  0  0  0  0  0  0  0  0  0
   -1.9486    5.6250    0.0000 C   0  0  0  0  0  0  0  0  0  0  0  0
   -5.8457    3.3750    0.0000 C   0  0  0  0  0  0  0  0  0  0  0  0
   -4.5466    5.6250    0.0000 C   0  0  0  0  0  0  0  0  0  0  0  0
    0.6495    4.1250    0.0000 C   0  0  0  0  0  0  0  0  0  0  0  0
   -0.6495    3.3750    0.0000 C   0  0  0  0  0  0  0  0  0  0  0  0
   -1.9486    4.1250    0.0000 C   0  0  0  0  0  0  0  0  0  0  0  0
   -3.2476    3.3750    0.0000 N   0  0  0  0  0  0  0  0  0  0  0  0
   -4.5466    4.1250    0.0000 N   0  0  0  0  0  0  0  0  0  0  0  0
  5  1  1  0
  6  5  1  0
  7  2  1  0
  7  6  1  0
  8  7  1  0
  9  3  1  0
  9  4  1  0
  9  8  1  0
M  END
>  <NAME>  (5783) 
1,1-DIMETHYL-2-(1-METHYLBUTYL)HYDRAZINE

>  <SYNONYMS>  (5783) 


>  <SPECTRUM TYPE>  (5783) 
MS1

>  <INSTRUMENT TYPE>  (5783) 
EI-B

>  <INSTRUMENT>  (5783) 
SHIMADZU LKB-2091

>  <ION MODE>  (5783) 
P

>  <INCHIKEY>  (5783) 
RQRHTWNEYRZHQK-UHFFFAOYSA-N

>  <FORMULA>  (5783) 
C7H18N2

>  <EXACT MASS>  (5783) 
130.146998576

>  <MW>  (5783) 
130

>  <ID>  (5783) 
JP000508

>  <CONTRIBUTOR>  (5783) 
University of Tokyo Team, {Faculty of Engineering, University of Tokyo

>  <COMMENT>  (5783) 
SMILES=CCCC(C)NN(C)C
InChI=InChI=1S/C7H18N2/c1-5-6-7(2)8-9(3)4/h7-8H,5-6H2,1-4H3
computed SMILES=N(N(C)C)C(C)CCC
accession=JP000508
date=2016.01.19 (Created 2008.10.21, modified 2011.05.06)
author=SASAKI S, TOYOHASHI UNIV. OF TECH.
license=CC BY-NC-SA
exact mass=130.147
ionization energy=70 eV
ion type=[M]+*
computed spectral entropy=2.256387724030188
computed normalized entropy=0.6510558759562174
SPLASH=splash10-0a4i-9100000000-5f831a5839848fdd4567
submitter=submitter = University of Tokyo Team (Faculty of Engineering, University of Tokyo)
MoNA Rating=3.75

>  <NUM PEAKS>  (5783) 
32

>  <MASS SPECTRAL PEAKS>  (5783) 
27 4.4
28 3.4
29 3.3
30 0.37
39 1.7
40 0.4
41 3.9
42 0.79
43 9.3
44 20.4
45 13.9
46 0.22
55 0.8
56 0.7
57 12
58 0.3
59 99.99
60 14.8
61 0.6
70 0.1
71 1.4
72 0.7
73 0.9
85 0.08
86 1.4
87 22.2
88 1.4
101 0.03
115 3.7
116 0.6
130 27.8
131 3.6

>  <PREDICTED SPECTRUM>  (5783) 
15 29
27 154
28 165
29 189
30 212
31 16
33 7
34 13
39 157
40 103
41 361
42 361
43 385
44 999
45 487
46 204
47 13
53 34
54 80
55 193
56 199
57 260
58 324
59 423
60 186
70 115
71 248
72 269
73 171
84 23
85 96
86 106
87 922
88 261
99 9
101 107
115 83
130 438
131 111

$$$$

     RDKit          2D

  9  8  0  0  0  0  0  0  0  0999 V2000
   -7.4695    3.9375    0.0000 C   0  0  0  0  0  0  0  0  0  0  0  0
    1.6238    3.1875    0.0000 C   0  0  0  0  0  0  0  0  0  0  0  0
    0.3248    5.4375    0.0000 C   0  0  0  0  0  0  0  0  0  0  0  0
   -6.1704    3.1875    0.0000 C   0  0  0  0  0  0  0  0  0  0  0  0
   -4.8714    3.9375    0.0000 C   0  0  0  0  0  0  0  0  0  0  0  0
   -3.5724    3.1875    0.0000 C   0  0  0  0  0  0  0  0  0  0  0  0
   -2.2733    3.9375    0.0000 C   0  0  0  0  0  0  0  0  0  0  0  0
   -0.9743    3.1875    0.0000 N   0  0  0  0  0  0  0  0  0  0  0  0
    0.3248    3.9375    0.0000 N   0  0  0  0  0  0  0  0  0  0  0  0
  4  1  1  0
  5  4  1  0
  6  5  1  0
  7  6  1  0
  8  7  1  0
  9  2  1  0
  9  3  1  0
  9  8  1  0
M  END
>  <NAME>  (5784) 
1,1-DIMETHYL-2-PENTYLHYDRAZINE

>  <SYNONYMS>  (5784) 


>  <SPECTRUM TYPE>  (5784) 
MS1

>  <INSTRUMENT TYPE>  (5784) 
EI-B

>  <INSTRUMENT>  (5784) 
SHIMADZU LKB-2091

>  <ION MODE>  (5784) 
P

>  <INCHIKEY>  (5784) 
YZLOLIUOQJTNRM-UHFFFAOYSA-N

>  <FORMULA>  (5784) 
C7H18N2

>  <EXACT MASS>  (5784) 
130.146998576

>  <MW>  (5784) 
130

>  <ID>  (5784) 
JP000507

>  <CONTRIBUTOR>  (5784) 
University of Tokyo Team, {Faculty of Engineering, University of Tokyo

>  <COMMENT>  (5784) 
SMILES=CCCCCNN(C)C
InChI=InChI=1S/C7H18N2/c1-4-5-6-7-8-9(2)3/h8H,4-7H2,1-3H3
computed SMILES=N(N(C)C)CCCCC
accession=JP000507
date=2016.01.19 (Created 2008.10.21, modified 2011.05.06)
author=SASAKI S, TOYOHASHI UNIV. OF TECH.
license=CC BY-NC-SA
exact mass=130.147
ionization energy=70 eV
ion type=[M]+*
computed spectral entropy=2.1439926770798876
computed normalized entropy=0.6186255205850814
SPLASH=splash10-0a4i-9100000000-d173180874c25660cb75
submitter=submitter = University of Tokyo Team (Faculty of Engineering, University of Tokyo)
MoNA Rating=3.75

>  <NUM PEAKS>  (5784) 
32

>  <MASS SPECTRAL PEAKS>  (5784) 
27 3.7
28 3.4
29 4.1
30 0.76
31 5.2
32 2
39 1.7
40 0.04
41 7.1
42 7.5
43 9
44 0.9
45 7.6
46 4.4
55 0.8
56 0.08
57 1.6
58 1
59 99.99
60 0.52
69 0.5
70 0.5
71 1.4
72 0.08
73 38.7
74 1.8
84 0.5
86 0.08
115 2.2
129 0.5
130 29.3
131 3.5

>  <PREDICTED SPECTRUM>  (5784) 
15 3
27 120
28 113
29 173
30 265
31 19
39 149
40 69
41 367
42 420
43 413
44 999
45 211
46 90
55 158
56 212
57 147
58 413
59 840
60 157
70 7
71 336
72 171
73 491
74 18
85 276
86 195
87 328
101 69
115 98
129 233
130 587
131 94

$$$$

     RDKit          2D

  8  7  0  0  0  0  0  0  0  0999 V2000
    1.6238    3.1875    0.0000 C   0  0  0  0  0  0  0  0  0  0  0  0
   -0.9743    1.6875    0.0000 C   0  0  0  0  0  0  0  0  0  0  0  0
   -4.8714    3.9375    0.0000 C   0  0  0  0  0  0  0  0  0  0  0  0
   -3.5724    1.6875    0.0000 C   0  0  0  0  0  0  0  0  0  0  0  0
    0.3248    3.9375    0.0000 C   0  0  0  0  0  0  0  0  0  0  0  0
   -0.9743    3.1875    0.0000 C   0  0  0  0  0  0  0  0  0  0  0  0
   -2.2733    3.9375    0.0000 N   0  0  0  0  0  0  0  0  0  0  0  0
   -3.5724    3.1875    0.0000 N   0  0  0  0  0  0  0  0  0  0  0  0
  5  1  1  0
  6  2  1  0
  6  5  1  0
  7  6  1  0
  8  3  1  0
  8  4  1  0
  8  7  1  0
M  END
>  <NAME>  (5785) 
2-SEC-BUTYL-1,1-DIMETHYLHYDRAZINE

>  <SYNONYMS>  (5785) 


>  <SPECTRUM TYPE>  (5785) 
MS1

>  <INSTRUMENT TYPE>  (5785) 
EI-B

>  <INSTRUMENT>  (5785) 
SHIMADZU LKB-2091

>  <ION MODE>  (5785) 
P

>  <INCHIKEY>  (5785) 
JNQHRUNRCVMHQV-UHFFFAOYSA-N

>  <FORMULA>  (5785) 
C6H16N2

>  <EXACT MASS>  (5785) 
116.13134851199999

>  <MW>  (5785) 
116

>  <ID>  (5785) 
JP000506

>  <CONTRIBUTOR>  (5785) 
University of Tokyo Team, {Faculty of Engineering, University of Tokyo

>  <COMMENT>  (5785) 
SMILES=CCC(C)NN(C)C
InChI=InChI=1S/C6H16N2/c1-5-6(2)7-8(3)4/h6-7H,5H2,1-4H3
computed SMILES=N(N(C)C)C(C)CC
accession=JP000506
date=2016.01.19 (Created 2008.10.21, modified 2011.05.06)
author=SASAKI S, TOYOHASHI UNIV. OF TECH.
license=CC BY-NC-SA
exact mass=116.13135
ionization energy=70 eV
ion type=[M]+*
computed spectral entropy=2.047802230124338
computed normalized entropy=0.6145487841070916
SPLASH=splash10-0a4i-9100000000-2d1d8b6c5ca4d1734412
submitter=submitter = University of Tokyo Team (Faculty of Engineering, University of Tokyo)
MoNA Rating=3.75

>  <NUM PEAKS>  (5785) 
28

>  <MASS SPECTRAL PEAKS>  (5785) 
27 4
28 4.6
29 5.4
30 0.37
31 0.5
39 1.3
41 3.8
42 0.85
43 5.7
44 21
45 15
46 0.23
55 1
56 1
57 2.8
58 0.37
59 99.99
60 10
70 0.6
71 0.08
72 1.6
85 0.5
86 0.4
87 1.7
88 1
101 3
116 29
117 3.1

>  <PREDICTED SPECTRUM>  (5785) 
15 39
27 88
28 109
29 89
30 216
31 97
39 101
40 62
41 245
42 373
43 276
44 840
45 398
46 177
53 36
54 75
55 58
56 250
57 246
58 167
59 268
60 100
61 45
67 31
68 24
69 35
70 136
71 221
72 148
73 437
74 112
85 46
87 999
88 217
89 90
101 299
102 65
115 119
116 412
117 148
118 24

$$$$

     RDKit          2D

  8  7  0  0  0  0  0  0  0  0999 V2000
    1.9486    3.3750    0.0000 C   0  0  0  0  0  0  0  0  0  0  0  0
   -5.8457    3.3750    0.0000 C   0  0  0  0  0  0  0  0  0  0  0  0
   -4.5466    5.6250    0.0000 C   0  0  0  0  0  0  0  0  0  0  0  0
    0.6495    4.1250    0.0000 C   0  0  0  0  0  0  0  0  0  0  0  0
   -0.6495    3.3750    0.0000 C   0  0  0  0  0  0  0  0  0  0  0  0
   -1.9486    4.1250    0.0000 C   0  0  0  0  0  0  0  0  0  0  0  0
   -3.2476    3.3750    0.0000 N   0  0  0  0  0  0  0  0  0  0  0  0
   -4.5466    4.1250    0.0000 N   0  0  0  0  0  0  0  0  0  0  0  0
  4  1  1  0
  5  4  1  0
  6  5  1  0
  7  6  1  0
  8  2  1  0
  8  3  1  0
  8  7  1  0
M  END
>  <NAME>  (5786) 
2-BUTYL-1,1-DIMETHYLHYDRAZINE

>  <SYNONYMS>  (5786) 


>  <SPECTRUM TYPE>  (5786) 
MS1

>  <INSTRUMENT TYPE>  (5786) 
EI-B

>  <INSTRUMENT>  (5786) 
SHIMADZU LKB-2091

>  <ION MODE>  (5786) 
P

>  <INCHIKEY>  (5786) 
RDWYDKHTFLJQJJ-UHFFFAOYSA-N

>  <FORMULA>  (5786) 
C6H16N2

>  <EXACT MASS>  (5786) 
116.13134851199999

>  <MW>  (5786) 
116

>  <ID>  (5786) 
JP000505

>  <CONTRIBUTOR>  (5786) 
University of Tokyo Team, {Faculty of Engineering, University of Tokyo

>  <COMMENT>  (5786) 
SMILES=CCCCNN(C)C
InChI=InChI=1S/C6H16N2/c1-4-5-6-7-8(2)3/h7H,4-6H2,1-3H3
computed SMILES=N(N(C)C)CCCC
accession=JP000505
date=2016.01.19 (Created 2008.10.21, modified 2011.05.06)
author=SASAKI S, TOYOHASHI UNIV. OF TECH.
license=CC BY-NC-SA
exact mass=116.13135
ionization energy=70 eV
ion type=[M]+*
computed spectral entropy=1.726520578163997
computed normalized entropy=0.5363737752246751
SPLASH=splash10-0a4i-9000000000-46bfd58966f548cf89b7
submitter=submitter = University of Tokyo Team (Faculty of Engineering, University of Tokyo)
MoNA Rating=3.75

>  <NUM PEAKS>  (5786) 
25

>  <MASS SPECTRAL PEAKS>  (5786) 
28 4.4
29 4
30 6.5
32 0.17
39 1.2
40 0.3
41 3.5
42 0.71
43 4.7
44 8.1
45 6.5
46 0.32
55 0.3
56 0.4
57 2.1
58 0.07
59 99.99
60 2.9
71 0.7
72 0.07
73 18
74 0.9
101 1
116 1.8
117 1.9

>  <PREDICTED SPECTRUM>  (5786) 
15 48
26 1
27 165
28 135
29 162
30 290
31 72
32 5
33 6
39 91
40 35
41 181
42 231
43 230
44 497
45 389
46 114
55 83
56 136
57 210
58 222
59 682
60 132
71 175
72 61
73 999
74 297
101 133
102 15
115 70
116 430
117 136

$$$$

     RDKit          2D

  7  6  0  0  0  0  0  0  0  0999 V2000
    1.6238    3.1875    0.0000 C   0  0  0  0  0  0  0  0  0  0  0  0
   -4.8714    3.9375    0.0000 C   0  0  0  0  0  0  0  0  0  0  0  0
   -3.5724    1.6875    0.0000 C   0  0  0  0  0  0  0  0  0  0  0  0
    0.3248    3.9375    0.0000 C   0  0  0  0  0  0  0  0  0  0  0  0
   -0.9743    3.1875    0.0000 C   0  0  0  0  0  0  0  0  0  0  0  0
   -2.2733    3.9375    0.0000 N   0  0  0  0  0  0  0  0  0  0  0  0
   -3.5724    3.1875    0.0000 N   0  0  0  0  0  0  0  0  0  0  0  0
  4  1  1  0
  5  4  1  0
  6  5  1  0
  7  2  1  0
  7  3  1  0
  7  6  1  0
M  END
>  <NAME>  (5787) 
1,1-DIMETHYL-2-PROPYLHYDRAZINE

>  <SYNONYMS>  (5787) 


>  <SPECTRUM TYPE>  (5787) 
MS1

>  <INSTRUMENT TYPE>  (5787) 
EI-B

>  <INSTRUMENT>  (5787) 
SHIMADZU LKB-2091

>  <ION MODE>  (5787) 
P

>  <INCHIKEY>  (5787) 
OZBIETPCMMGBGS-UHFFFAOYSA-N

>  <FORMULA>  (5787) 
C5H14N2

>  <EXACT MASS>  (5787) 
102.11569844799999

>  <MW>  (5787) 
102

>  <ID>  (5787) 
JP000504

>  <CONTRIBUTOR>  (5787) 
University of Tokyo Team, {Faculty of Engineering, University of Tokyo

>  <COMMENT>  (5787) 
SMILES=CCCNN(C)C
InChI=InChI=1S/C5H14N2/c1-4-5-6-7(2)3/h6H,4-5H2,1-3H3
computed SMILES=N(N(C)C)CCC
accession=JP000504
date=2016.01.19 (Created 2008.10.21, modified 2011.05.06)
author=SASAKI S, TOYOHASHI UNIV. OF TECH.
license=CC BY-NC-SA
exact mass=102.1157
ionization energy=70 eV
ion type=[M]+*
computed spectral entropy=2.244643087985786
computed normalized entropy=0.681054062820486
SPLASH=splash10-0a4i-9100000000-b983c6c9f48eba50b540
submitter=submitter = University of Tokyo Team (Faculty of Engineering, University of Tokyo)
MoNA Rating=3.75

>  <NUM PEAKS>  (5787) 
27

>  <MASS SPECTRAL PEAKS>  (5787) 
26 0.7
27 5.6
28 9.1
29 0.33
30 11.3
31 1.1
38 4.2
39 0.14
40 0.7
41 4.9
42 14.7
43 1.28
44 15.8
45 16.9
46 6
56 0.09
57 1.8
58 2.5
59 99.99
60 0.39
71 1.1
72 0.7
73 25.3
74 0.11
87 3.3
102 38.1
103 3.3

>  <PREDICTED SPECTRUM>  (5787) 
14 4
15 80
18 16
26 20
27 156
28 195
29 187
30 323
31 155
32 6
39 92
40 72
41 266
42 530
43 590
44 999
45 434
46 129
54 10
56 94
57 220
58 222
59 846
60 244
61 32
71 214
72 24
73 534
74 80
87 213
88 9
101 166
102 679
103 196

$$$$

     RDKit          2D

  6  5  0  0  0  0  0  0  0  0999 V2000
    1.2990    2.2500    0.0000 C   0  0  0  0  0  0  0  0  0  0  0  0
   -3.8971    2.2500    0.0000 C   0  0  0  0  0  0  0  0  0  0  0  0
   -2.5981    4.5000    0.0000 C   0  0  0  0  0  0  0  0  0  0  0  0
    0.0000    3.0000    0.0000 C   0  0  0  0  0  0  0  0  0  0  0  0
   -1.2990    2.2500    0.0000 N   0  0  0  0  0  0  0  0  0  0  0  0
   -2.5981    3.0000    0.0000 N   0  0  0  0  0  0  0  0  0  0  0  0
  4  1  1  0
  5  4  1  0
  6  2  1  0
  6  3  1  0
  6  5  1  0
M  END
>  <NAME>  (5788) 
2-ETHYL-1,1-DIMETHYLHYDRAZINE

>  <SYNONYMS>  (5788) 


>  <SPECTRUM TYPE>  (5788) 
MS1

>  <INSTRUMENT TYPE>  (5788) 
EI-B

>  <INSTRUMENT>  (5788) 
SHIMADZU LKB-2091

>  <ION MODE>  (5788) 
P

>  <INCHIKEY>  (5788) 
TWWCBLSUGOSDIY-UHFFFAOYSA-N

>  <FORMULA>  (5788) 
C4H12N2

>  <EXACT MASS>  (5788) 
88.10004838399999

>  <MW>  (5788) 
88

>  <ID>  (5788) 
JP000503

>  <CONTRIBUTOR>  (5788) 
University of Tokyo Team, {Faculty of Engineering, University of Tokyo

>  <COMMENT>  (5788) 
SMILES=CCNN(C)C
InChI=InChI=1S/C4H12N2/c1-4-5-6(2)3/h5H,4H2,1-3H3
computed SMILES=N(N(C)C)CC
accession=JP000503
date=2016.01.19 (Created 2008.10.21, modified 2011.05.06)
author=SASAKI S, TOYOHASHI UNIV. OF TECH.
license=CC BY-NC-SA
exact mass=88.10005
ionization energy=70 eV
ion type=[M]+*
computed spectral entropy=2.067494719637834
computed normalized entropy=0.659384000498042
SPLASH=splash10-0a4i-9000000000-7f4c16cbfc19b7ae8fa7
submitter=submitter = University of Tokyo Team (Faculty of Engineering, University of Tokyo)
MoNA Rating=3.75

>  <NUM PEAKS>  (5788) 
23

>  <MASS SPECTRAL PEAKS>  (5788) 
29 7.5
30 13
31 4.6
32 0.32
36 2.3
36.5 1.1
40 0.9
41 0.21
42 14.8
43 11.7
44 22.2
45 1.82
46 3.3
57 1.6
58 1.3
59 99.99
60 3.7
71 0.8
73 9.8
74 0.19
87 0.6
88 46.4
89 3

>  <PREDICTED SPECTRUM>  (5788) 
28 118
29 65
30 323
31 21
41 52
42 467
43 358
44 999
45 576
46 170
56 164
57 251
59 447
60 67
71 58
72 85
73 628
74 95
87 246
88 830
89 151

$$$$

     RDKit          2D

  5  4  0  0  0  0  0  0  0  0999 V2000
   -0.0000   -0.0000    0.0000 C   0  0  0  0  0  0  0  0  0  0  0  0
   -1.2990    3.7500    0.0000 C   0  0  0  0  0  0  0  0  0  0  0  0
   -2.5981    1.5000    0.0000 C   0  0  0  0  0  0  0  0  0  0  0  0
    0.0000    1.5000    0.0000 N   0  0  0  0  0  0  0  0  0  0  0  0
   -1.2990    2.2500    0.0000 N   0  0  0  0  0  0  0  0  0  0  0  0
  4  1  1  0
  5  2  1  0
  5  3  1  0
  5  4  1  0
M  END
>  <NAME>  (5789) 
TRIMETHYLHYDRAZINE

>  <SYNONYMS>  (5789) 


>  <SPECTRUM TYPE>  (5789) 
MS1

>  <INSTRUMENT TYPE>  (5789) 
EI-B

>  <INSTRUMENT>  (5789) 
SHIMADZU LKB-2091

>  <ION MODE>  (5789) 
P

>  <INCHIKEY>  (5789) 
NIIPNAJXERMYOG-UHFFFAOYSA-N

>  <FORMULA>  (5789) 
C3H10N2

>  <EXACT MASS>  (5789) 
74.08439831999999

>  <MW>  (5789) 
74

>  <ID>  (5789) 
JP000502

>  <CONTRIBUTOR>  (5789) 
University of Tokyo Team, {Faculty of Engineering, University of Tokyo

>  <COMMENT>  (5789) 
SMILES=CNN(C)C
InChI=InChI=1S/C3H10N2/c1-4-5(2)3/h4H,1-3H3
computed SMILES=N(N(C)C)C
accession=JP000502
date=2016.01.19 (Created 2008.10.21, modified 2011.05.06)
author=SASAKI S, TOYOHASHI UNIV. OF TECH.
license=CC BY-NC-SA
exact mass=74.0844
ionization energy=70 eV
ion type=[M]+*
computed spectral entropy=1.9283251451310925
computed normalized entropy=0.623842983145065
SPLASH=splash10-0ab9-9000000000-09f2db854fd25befd30f
submitter=submitter = University of Tokyo Team (Faculty of Engineering, University of Tokyo)
MoNA Rating=3.75

>  <NUM PEAKS>  (5789) 
22

>  <MASS SPECTRAL PEAKS>  (5789) 
27 2.8
28 3.6
29 3.4
30 3.25
31 5.8
32 7.6
36 1.7
40 0.11
41 2.1
42 26.5
43 12
44 1.69
45 2.3
46 2.6
57 3.1
58 0.16
59 99.99
60 3.2
71 0.7
73 0.25
74 61.5
75 4.1

>  <PREDICTED SPECTRUM>  (5789) 
14 14
15 97
16 14
18 9
27 7
28 194
29 77
30 532
31 135
32 32
40 11
41 20
42 658
43 473
44 999
45 387
46 47
56 182
57 173
58 216
59 841
60 278
61 12
71 5
73 361
74 787
75 223

$$$$

     RDKit          2D

 16 15  0  0  0  0  0  0  0  0999 V2000
    0.0000    0.0000    0.0000 C   0  0  0  0  0  0  0  0  0  0  0  0
  -10.3923    4.5000    0.0000 C   0  0  0  0  0  0  0  0  0  0  0  0
   -7.7942    0.0000    0.0000 C   0  0  0  0  0  0  0  0  0  0  0  0
   -5.1962    1.5000    0.0000 C   0  0  0  0  0  0  0  0  0  0  0  0
    0.0000    1.5000    0.0000 C   0  0  0  0  0  0  0  0  0  0  0  0
   -9.0933    3.7500    0.0000 C   0  0  0  0  0  0  0  0  0  0  0  0
   -7.7942    1.5000    0.0000 C   0  0  0  0  0  0  0  0  0  0  0  0
   -3.8971    2.2500    0.0000 C   0  0  0  0  0  0  0  0  0  0  0  0
   -1.2990    2.2500    0.0000 C   0  0  0  0  0  0  0  0  0  0  0  0
   -7.7942    4.5000    0.0000 C   0  0  0  0  0  0  0  0  0  0  0  0
   -6.4952    2.2500    0.0000 C   0  0  0  0  0  0  0  0  0  0  0  0
   -3.8971    3.7500    0.0000 C   0  0  0  0  0  0  0  0  0  0  0  0
   -1.2990    3.7500    0.0000 N   0  0  0  0  0  0  0  0  0  0  0  0
   -2.5981    4.5000    0.0000 N   0  0  0  0  0  0  0  0  0  0  0  0
   -5.1962    4.5000    0.0000 N   0  0  0  0  0  0  0  0  0  0  0  0
   -6.4952    3.7500    0.0000 N   0  0  0  0  0  0  0  0  0  0  0  0
  5  1  1  0
  6  2  1  0
  7  3  1  0
  8  4  1  0
  9  5  1  0
 10  6  1  0
 11  7  1  0
 12  8  1  0
 13  9  1  0
 14 12  1  0
 13 14  2  0
 15 12  1  0
 16 10  1  0
 16 11  1  0
 16 15  1  0
M  END
>  <NAME>  (5790) 
3-ETHYL-1,5,5-TRIPROPYL-3,4-DIHYDROFORMAZAN

>  <SYNONYMS>  (5790) 


>  <SPECTRUM TYPE>  (5790) 
MS1

>  <INSTRUMENT TYPE>  (5790) 
EI-B

>  <INSTRUMENT>  (5790) 
SHIMADZU LKB-2091

>  <ION MODE>  (5790) 
P

>  <INCHIKEY>  (5790) 
OZKYWOIOCNSWGR-YPKPFQOOSA-N

>  <FORMULA>  (5790) 
C12H28N4

>  <EXACT MASS>  (5790) 
228.23139689599998

>  <MW>  (5790) 
228

>  <ID>  (5790) 
JP000426

>  <CONTRIBUTOR>  (5790) 
University of Tokyo Team, {Faculty of Engineering, University of Tokyo

>  <COMMENT>  (5790) 
SMILES=CCCN=NC(CC)NN(CCC)CCC
InChI=InChI=1S/C12H28N4/c1-5-9-13-14-12(8-4)15-16(10-6-2)11-7-3/h12,15H,5-11H2,1-4H3/b14-13-
computed SMILES=N(=NC(NN(CCC)CCC)CC)CCC
accession=JP000426
date=2016.01.19 (Created 2008.10.21, modified 2011.05.06)
author=SASAKI S, TOYOHASHI UNIV. OF TECH.
license=CC BY-NC-SA
exact mass=228.2314
ionization energy=70 eV
ion type=[M]+*
computed spectral entropy=2.822529965066733
computed normalized entropy=0.7876419836315323
SPLASH=splash10-0a4l-9400000000-7ead2254655aef7c06a6
submitter=submitter = University of Tokyo Team (Faculty of Engineering, University of Tokyo)
MoNA Rating=3.75

>  <NUM PEAKS>  (5790) 
36

>  <MASS SPECTRAL PEAKS>  (5790) 
29 13.3
30 50.9
39 10.8
40 0.23
41 64.1
42 29.1
43 66.8
44 0.83
45 3.5
54 3
55 2.5
56 2.75
57 6.7
58 66.8
59 3.3
60 0.43
70 15.8
71 2.8
72 25.8
73 0.58
83 1.7
85 34.1
86 3.7
87 0.4
98 8.3
99 4.2
100 44.1
101 0.35
113 1.7
114 2.1
115 12.1
127 6.68
128 8.3
156 11.7
157 99.99
158 11.7

>  <PREDICTED SPECTRUM>  (5790) 
14 16
15 70
18 7
26 43
27 235
28 198
29 198
30 410
31 40
38 53
39 294
40 173
41 657
42 662
43 724
44 404
45 63
46 78
52 32
53 17
54 197
55 102
56 424
57 281
58 528
59 90
60 52
67 14
68 63
69 81
70 442
71 292
72 643
73 158
74 53
82 35
83 136
84 209
85 270
86 338
87 79
96 69
97 88
98 260
99 247
100 585
101 125
111 40
112 67
113 91
114 151
115 172
116 68
126 149
127 343
128 453
129 95
142 54
155 44
156 133
157 999
158 296
171 6
199 127
200 21
228 22

$$$$

     RDKit          2D

 14 13  0  0  0  0  0  0  0  0999 V2000
    5.8457    5.6250    0.0000 C   0  0  0  0  0  0  0  0  0  0  0  0
   -3.2476    3.3750    0.0000 C   0  0  0  0  0  0  0  0  0  0  0  0
   -1.9486    5.6250    0.0000 C   0  0  0  0  0  0  0  0  0  0  0  0
    3.2476    5.6250    0.0000 C   0  0  0  0  0  0  0  0  0  0  0  0
    0.6495    5.6250    0.0000 C   0  0  0  0  0  0  0  0  0  0  0  0
    4.5466    4.8750    0.0000 C   0  0  0  0  0  0  0  0  0  0  0  0
   -1.9486    2.6250    0.0000 C   0  0  0  0  0  0  0  0  0  0  0  0
   -0.6495    4.8750    0.0000 C   0  0  0  0  0  0  0  0  0  0  0  0
    1.9486    4.8750    0.0000 C   0  0  0  0  0  0  0  0  0  0  0  0
    1.9486    3.3750    0.0000 C   0  0  0  0  0  0  0  0  0  0  0  0
    4.5466    3.3750    0.0000 N   0  0  0  0  0  0  0  0  0  0  0  0
    3.2476    2.6250    0.0000 N   0  0  0  0  0  0  0  0  0  0  0  0
    0.6495    2.6250    0.0000 N   0  0  0  0  0  0  0  0  0  0  0  0
   -0.6495    3.3750    0.0000 N   0  0  0  0  0  0  0  0  0  0  0  0
  6  1  1  0
  7  2  1  0
  8  3  1  0
  9  4  1  0
  9  5  1  0
 10  9  1  0
 11  6  1  0
 12 10  1  0
 11 12  2  0
 13 10  1  0
 14  7  1  0
 14  8  1  0
 14 13  1  0
M  END
>  <NAME>  (5791) 
1,5,5-TRIETHYL-3-ISOPROPYL-3,4-DIHYDROFORMAZAN

>  <SYNONYMS>  (5791) 


>  <SPECTRUM TYPE>  (5791) 
MS1

>  <INSTRUMENT TYPE>  (5791) 
EI-B

>  <INSTRUMENT>  (5791) 
SHIMADZU LKB-2091

>  <ION MODE>  (5791) 
P

>  <INCHIKEY>  (5791) 
URZKYFUVOOYNIS-QXMHVHEDSA-N

>  <FORMULA>  (5791) 
C10H24N4

>  <EXACT MASS>  (5791) 
200.20009676799998

>  <MW>  (5791) 
200

>  <ID>  (5791) 
JP000424

>  <CONTRIBUTOR>  (5791) 
University of Tokyo Team, {Faculty of Engineering, University of Tokyo

>  <COMMENT>  (5791) 
SMILES=CCN=NC(C(C)C)NN(CC)CC
InChI=InChI=1S/C10H24N4/c1-6-11-12-10(9(4)5)13-14(7-2)8-3/h9-10,13H,6-8H2,1-5H3/b12-11-
computed SMILES=N(=NC(NN(CC)CC)C(C)C)CC
accession=JP000424
date=2016.01.19 (Created 2008.10.21, modified 2011.05.06)
author=SASAKI S, TOYOHASHI UNIV. OF TECH.
license=CC BY-NC-SA
exact mass=200.2001
ionization energy=70 eV
ion type=[M]+*
computed spectral entropy=2.8989576178543257
computed normalized entropy=0.8153794136937155
SPLASH=splash10-002f-9300000000-7197568d40fe762a2989
submitter=submitter = University of Tokyo Team (Faculty of Engineering, University of Tokyo)
MoNA Rating=3.75

>  <NUM PEAKS>  (5791) 
35

>  <MASS SPECTRAL PEAKS>  (5791) 
28 40
29 61.1
30 30.5
39 0.66
41 18.8
42 30.5
43 25.9
44 8.71
45 4
54 2.1
55 18.8
56 1.88
57 15.1
58 30.5
59 23.5
68 0.12
69 1.3
70 12.7
71 8
72 0.75
73 8.7
74 9.2
86 1.7
87 5.19
88 4
99 5.7
100 2.8
101 0.28
113 4
115 3.1
127 17.9
128 0.26
142 5.9
143 99.99
144 11.1

>  <PREDICTED SPECTRUM>  (5791) 
14 9
15 103
18 23
25 5
26 73
27 278
28 238
29 356
30 167
31 73
32 26
39 133
40 124
41 398
42 520
43 391
44 467
45 149
46 105
54 114
55 225
56 321
57 260
58 527
59 272
60 25
68 2
69 61
70 245
71 121
72 419
73 79
74 5
85 34
86 23
87 287
88 62
99 72
100 160
101 55
127 224
128 37
142 195
143 999
144 278
145 73
156 14
200 12

$$$$

     RDKit          2D

 14 13  0  0  0  0  0  0  0  0999 V2000
    2.2733    5.0625    0.0000 C   0  0  0  0  0  0  0  0  0  0  0  0
   -8.1190    5.0625    0.0000 C   0  0  0  0  0  0  0  0  0  0  0  0
   -6.8200    7.3125    0.0000 C   0  0  0  0  0  0  0  0  0  0  0  0
   -6.8200    2.8125    0.0000 C   0  0  0  0  0  0  0  0  0  0  0  0
   -4.2219    2.8125    0.0000 C   0  0  0  0  0  0  0  0  0  0  0  0
   -2.9228    3.5625    0.0000 C   0  0  0  0  0  0  0  0  0  0  0  0
    0.9743    5.8125    0.0000 C   0  0  0  0  0  0  0  0  0  0  0  0
   -6.8200    5.8125    0.0000 C   0  0  0  0  0  0  0  0  0  0  0  0
   -5.5209    3.5625    0.0000 C   0  0  0  0  0  0  0  0  0  0  0  0
   -2.9228    5.0625    0.0000 C   0  0  0  0  0  0  0  0  0  0  0  0
   -0.3248    5.0625    0.0000 N   0  0  0  0  0  0  0  0  0  0  0  0
   -1.6238    5.8125    0.0000 N   0  0  0  0  0  0  0  0  0  0  0  0
   -4.2219    5.8125    0.0000 N   0  0  0  0  0  0  0  0  0  0  0  0
   -5.5209    5.0625    0.0000 N   0  0  0  0  0  0  0  0  0  0  0  0
  7  1  1  0
  8  2  1  0
  8  3  1  0
  9  4  1  0
  9  5  1  0
 10  6  1  0
 11  7  1  0
 12 10  1  0
 11 12  2  0
 13 10  1  0
 14  8  1  0
 14  9  1  0
 14 13  1  0
M  END
>  <NAME>  (5792) 
1-ETHYL-5,5-DIISOPROPYL-3-METHYL-3,4-DIHYDROFORMAZAN

>  <SYNONYMS>  (5792) 


>  <SPECTRUM TYPE>  (5792) 
MS1

>  <INSTRUMENT TYPE>  (5792) 
EI-B

>  <INSTRUMENT>  (5792) 
SHIMADZU LKB-2091

>  <ION MODE>  (5792) 
P

>  <INCHIKEY>  (5792) 
RVDGPLNVVIDJHU-VAWYXSNFSA-N

>  <FORMULA>  (5792) 
C10H24N4

>  <EXACT MASS>  (5792) 
200.20009676799998

>  <MW>  (5792) 
200

>  <ID>  (5792) 
JP000423

>  <CONTRIBUTOR>  (5792) 
University of Tokyo Team, {Faculty of Engineering, University of Tokyo

>  <COMMENT>  (5792) 
SMILES=CCN=NC(C)NN(C(C)C)C(C)C
InChI=InChI=1S/C10H24N4/c1-7-11-12-10(6)13-14(8(2)3)9(4)5/h8-10,13H,7H2,1-6H3/b12-11+
computed SMILES=N(=NC(NN(C(C)C)C(C)C)C)CC
accession=JP000423
date=2016.01.19 (Created 2008.10.21, modified 2011.05.06)
author=SASAKI S, TOYOHASHI UNIV. OF TECH.
license=CC BY-NC-SA
exact mass=200.2001
ionization energy=70 eV
ion type=[M]+*
computed spectral entropy=2.6651156849185496
computed normalized entropy=0.7557694870715589
SPLASH=splash10-052f-9200000000-2abff4e5e771862c47a3
submitter=submitter = University of Tokyo Team (Faculty of Engineering, University of Tokyo)
MoNA Rating=3.75

>  <NUM PEAKS>  (5792) 
34

>  <MASS SPECTRAL PEAKS>  (5792) 
28 11.2
29 13.7
30 6.4
31 0.25
39 3.7
40 1.4
41 14.9
42 1.74
43 26.1
44 28.6
55 0.7
56 1.12
57 5.8
58 99.99
59 8.7
69 0.08
70 6.8
71 1.2
72 1.4
73 0.53
84 3.4
85 31.1
86 13.7
87 0.1
99 2.7
100 7.7
101 16.2
102 0.12
115 2.4
127 13.7
128 1.2
142 0.6
143 47.3
144 5.2

>  <PREDICTED SPECTRUM>  (5792) 
14 5
27 57
28 232
30 271
40 26
41 581
42 818
43 999
44 843
45 8
54 150
55 77
56 595
57 254
58 747
59 186
60 126
70 653
72 153
84 64
87 453
88 37
100 800
101 336
114 48
115 166
142 160
143 591
185 640
186 7
200 309

$$$$

     RDKit          2D

 13 13  0  0  0  0  0  0  0  0999 V2000
    6.8197   -3.5621    0.0000 C   0  0  0  0  0  0  0  0  0  0  0  0
    1.6236   -2.0621    0.0000 C   0  0  0  0  0  0  0  0  0  0  0  0
    5.5207   -4.3121    0.0000 C   0  0  0  0  0  0  0  0  0  0  0  0
   -3.5726   -2.0621    0.0000 C   0  0  0  0  0  0  0  0  0  0  0  0
   -3.5731   -3.5629    0.0000 C   0  0  0  0  0  0  0  0  0  0  0  0
   -2.2731   -1.3113    0.0000 C   0  0  0  0  0  0  0  0  0  0  0  0
   -2.2740   -4.3129    0.0000 C   0  0  0  0  0  0  0  0  0  0  0  0
   -0.9740   -2.0613    0.0000 C   0  0  0  0  0  0  0  0  0  0  0  0
    1.6236   -3.5621    0.0000 C   0  0  0  0  0  0  0  0  0  0  0  0
    4.2216   -3.5621    0.0000 N   0  0  0  0  0  0  0  0  0  0  0  0
    2.9226   -4.3121    0.0000 N   0  0  0  0  0  0  0  0  0  0  0  0
    0.3245   -4.3121    0.0000 N   0  0  0  0  0  0  0  0  0  0  0  0
   -0.9745   -3.5621    0.0000 N   0  0  0  0  0  0  0  0  0  0  0  0
  3  1  1  0
  5  4  1  0
  6  4  1  0
  7  5  1  0
  8  6  1  0
  9  2  1  0
 10  3  1  0
 11  9  1  0
 10 11  2  0
 12  9  1  0
 13  7  1  0
 13  8  1  0
 13 12  1  0
M  END
>  <NAME>  (5793) 
1-ETHYL-3-METHYL-5,5-PENTAMETHYLENE-3,4-DIHYDROFORMAZAN

>  <SYNONYMS>  (5793) 


>  <SPECTRUM TYPE>  (5793) 
MS1

>  <INSTRUMENT TYPE>  (5793) 
EI-B

>  <INSTRUMENT>  (5793) 
SHIMADZU LKB-2091

>  <ION MODE>  (5793) 
P

>  <INCHIKEY>  (5793) 
MHEVJASIEPDIBM-ZHACJKMWSA-N

>  <FORMULA>  (5793) 
C9H20N4

>  <EXACT MASS>  (5793) 
184.16879663999998

>  <MW>  (5793) 
184

>  <ID>  (5793) 
JP000422

>  <CONTRIBUTOR>  (5793) 
University of Tokyo Team, {Faculty of Engineering, University of Tokyo

>  <COMMENT>  (5793) 
SMILES=CCN=NC(C)NN(C1)CCCC1
InChI=InChI=1S/C9H20N4/c1-3-10-11-9(2)12-13-7-5-4-6-8-13/h9,12H,3-8H2,1-2H3/b11-10+
computed SMILES=N(=NC(NN1CCCCC1)C)CC
accession=JP000422
date=2016.01.19 (Created 2008.10.21, modified 2011.05.06)
author=SASAKI S, TOYOHASHI UNIV. OF TECH.
license=CC BY-NC-SA
exact mass=184.1688
ionization energy=70 eV
ion type=[M]+*
computed spectral entropy=2.659219873163136
computed normalized entropy=0.7743825806019069
SPLASH=splash10-005c-9300000000-5a725332f096085969d2
submitter=submitter = University of Tokyo Team (Faculty of Engineering, University of Tokyo)
MoNA Rating=3.75

>  <NUM PEAKS>  (5793) 
31

>  <MASS SPECTRAL PEAKS>  (5793) 
29 36.5
30 28.5
39 8.7
40 0.31
41 27.1
42 86.5
43 10
44 2.15
46 3.4
53 2.4
54 4.9
55 5.14
56 30
57 7.1
58 6
67 0.33
68 2
69 12.8
70 10
71 0.6
82 9.3
83 7.9
84 83.5
85 1.64
98 2.4
99 6.4
111 5.1
125 2.72
126 17.9
127 99.99
128 7.9

>  <PREDICTED SPECTRUM>  (5793) 
14 14
15 96
16 7
17 2
18 28
27 116
28 262
29 290
30 597
31 98
32 2
38 51
39 306
40 255
41 866
42 980
43 625
44 999
45 188
46 9
54 191
55 381
56 556
57 334
58 310
59 133
67 61
68 243
69 407
70 751
71 203
72 445
73 333
74 178
83 333
84 364
85 138
99 375
112 709
113 15
126 73
127 564
128 267
129 122
155 111
169 86
183 2
184 409
185 93

$$$$

     RDKit          2D

 12 11  0  0  0  0  0  0  0  0999 V2000
   -4.8714    2.0625    0.0000 C   0  0  0  0  0  0  0  0  0  0  0  0
    0.3248    5.0625    0.0000 C   0  0  0  0  0  0  0  0  0  0  0  0
    4.2219    7.3125    0.0000 C   0  0  0  0  0  0  0  0  0  0  0  0
    2.9228    5.0625    0.0000 C   0  0  0  0  0  0  0  0  0  0  0  0
   -3.5724    2.8125    0.0000 C   0  0  0  0  0  0  0  0  0  0  0  0
   -3.5724    4.3125    0.0000 C   0  0  0  0  0  0  0  0  0  0  0  0
   -2.2733    5.0625    0.0000 C   0  0  0  0  0  0  0  0  0  0  0  0
    0.3248    6.5625    0.0000 C   0  0  0  0  0  0  0  0  0  0  0  0
   -2.2733    6.5625    0.0000 N   0  0  0  0  0  0  0  0  0  0  0  0
   -0.9743    7.3125    0.0000 N   0  0  0  0  0  0  0  0  0  0  0  0
    1.6238    7.3125    0.0000 N   0  0  0  0  0  0  0  0  0  0  0  0
    2.9228    6.5625    0.0000 N   0  0  0  0  0  0  0  0  0  0  0  0
  5  1  1  0
  6  5  1  0
  7  6  1  0
  8  2  1  0
  9  7  1  0
 10  8  1  0
  9 10  2  0
 11  8  1  0
 12  3  1  0
 12  4  1  0
 12 11  1  0
M  END
>  <NAME>  (5794) 
1-BUTYL-3,5,5-TRIMETHYL-3,4-DIHYDROFORMAZAN

>  <SYNONYMS>  (5794) 


>  <SPECTRUM TYPE>  (5794) 
MS1

>  <INSTRUMENT TYPE>  (5794) 
EI-B

>  <INSTRUMENT>  (5794) 
SHIMADZU LKB-2091

>  <ION MODE>  (5794) 
P

>  <INCHIKEY>  (5794) 
FIDAZQLHWRIURY-KTKRTIGZSA-N

>  <FORMULA>  (5794) 
C8H20N4

>  <EXACT MASS>  (5794) 
172.16879663999998

>  <MW>  (5794) 
172

>  <ID>  (5794) 
JP000421

>  <CONTRIBUTOR>  (5794) 
University of Tokyo Team, {Faculty of Engineering, University of Tokyo

>  <COMMENT>  (5794) 
SMILES=CCCCN=NC(C)NN(C)C
InChI=InChI=1S/C8H20N4/c1-5-6-7-9-10-8(2)11-12(3)4/h8,11H,5-7H2,1-4H3/b10-9-
computed SMILES=N(=NC(NN(C)C)C)CCCC
accession=JP000421
author=SASAKI S, TOYOHASHI UNIV. OF TECH.
date=2016.01.19 (Created 2008.10.21, modified 2011.05.06)
license=CC BY-NC-SA
exact mass=172.1688
ionization energy=70 eV
ion type=[M]+*
computed spectral entropy=2.251580420855886
computed normalized entropy=0.7084777480340457
SPLASH=splash10-000f-9000000000-55ae14955ed779893727
submitter=submitter = University of Tokyo Team (Faculty of Engineering, University of Tokyo)
MoNA Rating=3.75

>  <NUM PEAKS>  (5794) 
24

>  <MASS SPECTRAL PEAKS>  (5794) 
28 13.3
29 21.6
30 8.7
39 0.43
40 1.5
41 15
42 21.6
43 1.33
44 86.7
45 13.3
46 5.2
55 0.15
56 2
57 7
58 8.7
59 1.04
60 0.8
70 1.5
71 5.5
72 0.1
85 5.5
86 11
87 99.99
88 6.2

>  <PREDICTED SPECTRUM>  (5794) 
14 12
15 76
26 18
27 171
28 183
29 180
30 259
31 40
39 171
40 109
41 424
42 453
43 343
44 932
45 389
46 164
54 72
55 130
56 164
57 201
58 97
59 105
60 0
70 161
71 205
72 143
85 88
86 235
87 999
88 161
89 30
172 52

$$$$

     RDKit          2D

 12 11  0  0  0  0  0  0  0  0999 V2000
   -7.4695    3.9375    0.0000 C   0  0  0  0  0  0  0  0  0  0  0  0
   -0.9743    6.1875    0.0000 C   0  0  0  0  0  0  0  0  0  0  0  0
   -3.5724    6.1875    0.0000 C   0  0  0  0  0  0  0  0  0  0  0  0
    1.6238    3.1875    0.0000 C   0  0  0  0  0  0  0  0  0  0  0  0
    0.3248    5.4375    0.0000 C   0  0  0  0  0  0  0  0  0  0  0  0
   -6.1704    3.1875    0.0000 C   0  0  0  0  0  0  0  0  0  0  0  0
   -2.2733    5.4375    0.0000 C   0  0  0  0  0  0  0  0  0  0  0  0
   -2.2733    3.9375    0.0000 C   0  0  0  0  0  0  0  0  0  0  0  0
   -4.8714    3.9375    0.0000 N   0  0  0  0  0  0  0  0  0  0  0  0
   -3.5724    3.1875    0.0000 N   0  0  0  0  0  0  0  0  0  0  0  0
   -0.9743    3.1875    0.0000 N   0  0  0  0  0  0  0  0  0  0  0  0
    0.3248    3.9375    0.0000 N   0  0  0  0  0  0  0  0  0  0  0  0
  6  1  1  0
  7  2  1  0
  7  3  1  0
  8  7  1  0
  9  6  1  0
 10  8  1  0
  9 10  2  0
 11  8  1  0
 12  4  1  0
 12  5  1  0
 12 11  1  0
M  END
>  <NAME>  (5795) 
1-ETHYL-3-ISOPROPYL-5,5-DIMETHYL-3,4-DIHYDROFORMAZAN

>  <SYNONYMS>  (5795) 


>  <SPECTRUM TYPE>  (5795) 
MS1

>  <INSTRUMENT TYPE>  (5795) 
EI-B

>  <INSTRUMENT>  (5795) 
SHIMADZU LKB-2091

>  <ION MODE>  (5795) 
P

>  <INCHIKEY>  (5795) 
DBYJOJHQJZEVBO-MDZDMXLPSA-N

>  <FORMULA>  (5795) 
C8H20N4

>  <EXACT MASS>  (5795) 
172.16879663999998

>  <MW>  (5795) 
172

>  <ID>  (5795) 
JP000420

>  <CONTRIBUTOR>  (5795) 
University of Tokyo Team, {Faculty of Engineering, University of Tokyo

>  <COMMENT>  (5795) 
SMILES=CCN=NC(NN(C)C)C(C)C
InChI=InChI=1S/C8H20N4/c1-6-9-10-8(7(2)3)11-12(4)5/h7-8,11H,6H2,1-5H3/b10-9+
computed SMILES=N(=NC(NN(C)C)C(C)C)CC
accession=JP000420
date=2016.01.19 (Created 2008.10.21, modified 2011.05.06)
author=SASAKI S, TOYOHASHI UNIV. OF TECH.
license=CC BY-NC-SA
exact mass=172.1688
ionization energy=70 eV
ion type=[M]+*
computed spectral entropy=2.5033629318562753
computed normalized entropy=0.722317857466861
SPLASH=splash10-0aou-9200000000-3795e1f6d34a3bd9c895
submitter=submitter = University of Tokyo Team (Faculty of Engineering, University of Tokyo)
MoNA Rating=3.75

>  <NUM PEAKS>  (5795) 
32

>  <MASS SPECTRAL PEAKS>  (5795) 
27 11.2
28 18
29 13.5
30 1.01
39 3.7
40 1.1
41 9.1
42 1.46
43 21.3
44 36
45 10.1
46 1.12
54 0.9
55 9.2
56 5.4
57 0.34
58 5.4
59 99.99
60 5.4
68 0.07
70 4.4
71 2.1
72 7.9
73 0.55
85 1.8
86 0.8
99 3.3
100 0.16
113 0.9
114 2.7
115 56.1
116 4.7

>  <PREDICTED SPECTRUM>  (5795) 
27 52
28 114
29 80
30 134
33 4
39 29
40 38
41 300
42 543
43 374
44 999
45 334
46 175
54 41
55 177
56 259
57 302
58 204
59 551
70 151
71 193
72 526
73 177
85 97
87 134
89 32
114 94
115 898
116 211
117 113
128 46
129 212
130 4
172 219

$$$$

     RDKit          2D

 12 11  0  0  0  0  0  0  0  0999 V2000
    3.2476    2.6250    0.0000 C   0  0  0  0  0  0  0  0  0  0  0  0
   -5.8457    3.3750    0.0000 C   0  0  0  0  0  0  0  0  0  0  0  0
    0.6495    7.1250    0.0000 C   0  0  0  0  0  0  0  0  0  0  0  0
    1.9486    4.8750    0.0000 C   0  0  0  0  0  0  0  0  0  0  0  0
    1.9486    3.3750    0.0000 C   0  0  0  0  0  0  0  0  0  0  0  0
   -4.5466    2.6250    0.0000 C   0  0  0  0  0  0  0  0  0  0  0  0
    0.6495    2.6250    0.0000 C   0  0  0  0  0  0  0  0  0  0  0  0
   -0.6495    3.3750    0.0000 C   0  0  0  0  0  0  0  0  0  0  0  0
   -3.2476    3.3750    0.0000 N   0  0  0  0  0  0  0  0  0  0  0  0
   -1.9486    2.6250    0.0000 N   0  0  0  0  0  0  0  0  0  0  0  0
   -0.6495    4.8750    0.0000 N   0  0  0  0  0  0  0  0  0  0  0  0
    0.6495    5.6250    0.0000 N   0  0  0  0  0  0  0  0  0  0  0  0
  5  1  1  0
  6  2  1  0
  7  5  1  0
  8  7  1  0
  9  6  1  0
 10  8  1  0
  9 10  2  0
 11  8  1  0
 12  3  1  0
 12  4  1  0
 12 11  1  0
M  END
>  <NAME>  (5796) 
1-ETHYL-5,5-DIMETHYL-3-PROPYL-3,4-DIHYDROFORMAZAN

>  <SYNONYMS>  (5796) 


>  <SPECTRUM TYPE>  (5796) 
MS1

>  <INSTRUMENT TYPE>  (5796) 
EI-B

>  <INSTRUMENT>  (5796) 
SHIMADZU LKB-2091

>  <ION MODE>  (5796) 
P

>  <INCHIKEY>  (5796) 
QBKJPAWZEPDHGU-MDZDMXLPSA-N

>  <FORMULA>  (5796) 
C8H20N4

>  <EXACT MASS>  (5796) 
172.16879663999998

>  <MW>  (5796) 
172

>  <ID>  (5796) 
JP000419

>  <CONTRIBUTOR>  (5796) 
University of Tokyo Team, {Faculty of Engineering, University of Tokyo

>  <COMMENT>  (5796) 
SMILES=CCN=NC(CCC)NN(C)C
InChI=InChI=1S/C8H20N4/c1-5-7-8(10-9-6-2)11-12(3)4/h8,11H,5-7H2,1-4H3/b10-9+
computed SMILES=N(=NC(NN(C)C)CCC)CC
accession=JP000419
date=2016.01.19 (Created 2008.10.21, modified 2011.05.06)
author=SASAKI S, TOYOHASHI UNIV. OF TECH.
license=CC BY-NC-SA
exact mass=172.1688
ionization energy=70 eV
ion type=[M]+*
computed spectral entropy=2.6107257916038256
computed normalized entropy=0.7834830616283381
SPLASH=splash10-00kf-9200000000-59236589128dc65ddf21
submitter=submitter = University of Tokyo Team (Faculty of Engineering, University of Tokyo)
MoNA Rating=3.75

>  <NUM PEAKS>  (5796) 
28

>  <MASS SPECTRAL PEAKS>  (5796) 
27 19.6
28 34.9
29 2.2
30 3.92
31 1.8
39 3.9
41 12.2
42 2.7
43 34
44 99.99
45 17
46 3.31
55 3.9
56 8.7
57 3.5
58 1.18
59 34
60 2.2
70 10.9
71 1.26
72 15.7
73 7.4
85 13.5
86 1.22
99 2.3
114 7.8
115 78.1
116 7

>  <PREDICTED SPECTRUM>  (5796) 
15 7
28 74
30 218
39 97
40 86
41 360
42 752
43 346
44 999
45 205
46 137
54 101
55 165
56 309
57 232
58 595
59 375
60 50
61 222
70 250
71 298
72 461
73 323
74 41
85 60
86 104
87 551
88 50
98 6
100 56
101 347
102 57
114 54
115 205
128 19
129 100
143 0
157 8
172 247
173 17

$$$$

     RDKit          2D

 12 11  0  0  0  0  0  0  0  0999 V2000
    2.2733    5.0625    0.0000 C   0  0  0  0  0  0  0  0  0  0  0  0
   -8.1190    5.0625    0.0000 C   0  0  0  0  0  0  0  0  0  0  0  0
   -6.8200    2.8125    0.0000 C   0  0  0  0  0  0  0  0  0  0  0  0
   -2.9228    3.5625    0.0000 C   0  0  0  0  0  0  0  0  0  0  0  0
    0.9743    5.8125    0.0000 C   0  0  0  0  0  0  0  0  0  0  0  0
   -6.8200    5.8125    0.0000 C   0  0  0  0  0  0  0  0  0  0  0  0
   -5.5209    3.5625    0.0000 C   0  0  0  0  0  0  0  0  0  0  0  0
   -2.9228    5.0625    0.0000 C   0  0  0  0  0  0  0  0  0  0  0  0
   -0.3248    5.0625    0.0000 N   0  0  0  0  0  0  0  0  0  0  0  0
   -1.6238    5.8125    0.0000 N   0  0  0  0  0  0  0  0  0  0  0  0
   -4.2219    5.8125    0.0000 N   0  0  0  0  0  0  0  0  0  0  0  0
   -5.5209    5.0625    0.0000 N   0  0  0  0  0  0  0  0  0  0  0  0
  5  1  1  0
  6  2  1  0
  7  3  1  0
  8  4  1  0
  9  5  1  0
 10  8  1  0
  9 10  2  0
 11  8  1  0
 12  6  1  0
 12  7  1  0
 12 11  1  0
M  END
>  <NAME>  (5797) 
1,5,5-TRIETHYL-3-METHYL-3,4-DIHYDROFORMAZAN

>  <SYNONYMS>  (5797) 


>  <SPECTRUM TYPE>  (5797) 
MS1

>  <INSTRUMENT TYPE>  (5797) 
EI-B

>  <INSTRUMENT>  (5797) 
SHIMADZU LKB-2091

>  <ION MODE>  (5797) 
P

>  <INCHIKEY>  (5797) 
BWOHUQVAJNGKEM-MDZDMXLPSA-N

>  <FORMULA>  (5797) 
C8H20N4

>  <EXACT MASS>  (5797) 
172.16879663999998

>  <MW>  (5797) 
172

>  <ID>  (5797) 
JP000418

>  <CONTRIBUTOR>  (5797) 
University of Tokyo Team, {Faculty of Engineering, University of Tokyo

>  <COMMENT>  (5797) 
SMILES=CCN=NC(C)NN(CC)CC
InChI=InChI=1S/C8H20N4/c1-5-9-10-8(4)11-12(6-2)7-3/h8,11H,5-7H2,1-4H3/b10-9+
computed SMILES=N(=NC(NN(CC)CC)C)CC
accession=JP000418
date=2016.01.19 (Created 2008.10.21, modified 2011.05.06)
author=SASAKI S, TOYOHASHI UNIV. OF TECH.
license=CC BY-NC-SA
exact mass=172.1688
ionization energy=70 eV
ion type=[M]+*
computed spectral entropy=2.55372005830451
computed normalized entropy=0.7838073637484317
SPLASH=splash10-00mo-9100000000-2307270e746a35ee7b9c
submitter=submitter = University of Tokyo Team (Faculty of Engineering, University of Tokyo)
MoNA Rating=3.75

>  <NUM PEAKS>  (5797) 
26

>  <MASS SPECTRAL PEAKS>  (5797) 
27 22.4
28 28
29 36
30 1.84
31 4.4
41 4.4
42 31.2
43 0.68
44 99.99
45 3.6
46 4.4
56 1.16
57 4
58 28.8
59 6
70 0.44
71 11.4
72 52
73 9.6
85 0.18
86 4
87 12.4
99 18.4
114 0.52
115 76
116 6.4

>  <PREDICTED SPECTRUM>  (5797) 
14 40
15 171
16 22
17 37
18 70
25 6
26 111
27 349
28 387
29 481
30 466
31 68
32 59
33 10
38 0
39 199
40 147
41 523
42 664
43 452
44 641
45 118
46 29
54 107
55 181
56 335
57 360
58 713
59 349
60 116
68 89
70 365
71 135
72 509
86 30
87 66
99 348
100 123
101 76
102 50
113 84
114 283
115 999
116 191
117 95
157 21
172 104
173 19

$$$$

     RDKit          2D

 10  9  0  0  0  0  0  0  0  0999 V2000
   -7.4695    3.9375    0.0000 C   0  0  0  0  0  0  0  0  0  0  0  0
   -2.2733    5.4375    0.0000 C   0  0  0  0  0  0  0  0  0  0  0  0
    1.6238    3.1875    0.0000 C   0  0  0  0  0  0  0  0  0  0  0  0
    0.3248    5.4375    0.0000 C   0  0  0  0  0  0  0  0  0  0  0  0
   -6.1704    3.1875    0.0000 C   0  0  0  0  0  0  0  0  0  0  0  0
   -2.2733    3.9375    0.0000 C   0  0  0  0  0  0  0  0  0  0  0  0
   -4.8714    3.9375    0.0000 N   0  0  0  0  0  0  0  0  0  0  0  0
   -3.5724    3.1875    0.0000 N   0  0  0  0  0  0  0  0  0  0  0  0
   -0.9743    3.1875    0.0000 N   0  0  0  0  0  0  0  0  0  0  0  0
    0.3248    3.9375    0.0000 N   0  0  0  0  0  0  0  0  0  0  0  0
  5  1  1  0
  6  2  1  0
  7  5  1  0
  8  6  1  0
  7  8  2  0
  9  6  1  0
 10  3  1  0
 10  4  1  0
 10  9  1  0
M  END
>  <NAME>  (5798) 
1-ETHYL-3,5,5-TRIMETHYL-3,4-DIHYDROFORMAZAN

>  <SYNONYMS>  (5798) 


>  <SPECTRUM TYPE>  (5798) 
MS1

>  <INSTRUMENT TYPE>  (5798) 
EI-B

>  <INSTRUMENT>  (5798) 
SHIMADZU LKB-2091

>  <ION MODE>  (5798) 
P

>  <INCHIKEY>  (5798) 
BABHWMHGOCZGSO-BQYQJAHWSA-N

>  <FORMULA>  (5798) 
C6H16N4

>  <EXACT MASS>  (5798) 
144.13749651199998

>  <MW>  (5798) 
144

>  <ID>  (5798) 
JP000417

>  <CONTRIBUTOR>  (5798) 
University of Tokyo Team, {Faculty of Engineering, University of Tokyo

>  <COMMENT>  (5798) 
SMILES=CCN=NC(C)NN(C)C
InChI=InChI=1S/C6H16N4/c1-5-7-8-6(2)9-10(3)4/h6,9H,5H2,1-4H3/b8-7+
computed SMILES=N(=NC(NN(C)C)C)CC
accession=JP000417
date=2016.01.19 (Created 2008.10.21, modified 2011.05.06)
author=SASAKI S, TOYOHASHI UNIV. OF TECH.
license=CC BY-NC-SA
exact mass=144.1375
ionization energy=70 eV
ion type=[M]+*
computed spectral entropy=1.8673350429730284
computed normalized entropy=0.6133425130442953
SPLASH=splash10-0006-9000000000-5431db1680970a7eb8eb
submitter=submitter = University of Tokyo Team (Faculty of Engineering, University of Tokyo)
MoNA Rating=3.75

>  <NUM PEAKS>  (5798) 
21

>  <MASS SPECTRAL PEAKS>  (5798) 
28 11
29 9.8
30 6.3
41 0.26
42 18.9
43 3.4
44 99.99
45 0.89
46 4.6
56 1.1
57 1.2
58 0.83
59 10.6
60 1
70 1
71 0.34
72 0.6
85 3.2
86 5.5
87 5.11
88 3.1

>  <PREDICTED SPECTRUM>  (5798) 
14 30
15 122
16 3
18 10
27 63
28 217
29 102
30 47
31 85
40 59
41 224
42 610
43 394
44 999
45 296
46 51
54 42
57 58
58 58
59 270
70 40
71 108
72 8
85 33
86 245
87 845
88 123
89 35
129 38
144 28

$$$$

     RDKit          2D

 16 15  0  0  0  0  0  0  0  0999 V2000
   -6.4952    4.5000    0.0000 C   0  0  0  0  0  0  0  0  0  0  0  0
   -5.1962    2.2500    0.0000 C   0  0  0  0  0  0  0  0  0  0  0  0
   -5.1962    6.7500    0.0000 C   0  0  0  0  0  0  0  0  0  0  0  0
   -2.5981    6.7500    0.0000 C   0  0  0  0  0  0  0  0  0  0  0  0
    2.5981    3.7500    0.0000 C   0  0  0  0  0  0  0  0  0  0  0  0
    1.2990    6.0000    0.0000 C   0  0  0  0  0  0  0  0  0  0  0  0
    1.2990    1.5000    0.0000 C   0  0  0  0  0  0  0  0  0  0  0  0
   -1.2990    1.5000    0.0000 C   0  0  0  0  0  0  0  0  0  0  0  0
   -5.1962    3.7500    0.0000 C   0  0  0  0  0  0  0  0  0  0  0  0
   -3.8971    6.0000    0.0000 C   0  0  0  0  0  0  0  0  0  0  0  0
    1.2990    4.5000    0.0000 C   0  0  0  0  0  0  0  0  0  0  0  0
   -0.0000    2.2500    0.0000 C   0  0  0  0  0  0  0  0  0  0  0  0
   -2.5981    3.7500    0.0000 N   0  0  0  0  0  0  0  0  0  0  0  0
   -1.2990    4.5000    0.0000 N   0  0  0  0  0  0  0  0  0  0  0  0
   -3.8971    4.5000    0.0000 N   0  0  0  0  0  0  0  0  0  0  0  0
    0.0000    3.7500    0.0000 N   0  0  0  0  0  0  0  0  0  0  0  0
  9  1  1  0
  9  2  1  0
 10  3  1  0
 10  4  1  0
 11  5  1  0
 11  6  1  0
 12  7  1  0
 12  8  1  0
 13 14  2  0
 15  9  1  0
 15 10  1  0
 15 13  1  0
 16 11  1  0
 16 12  1  0
 16 14  1  0
M  END
>  <NAME>  (5799) 
TETRAISOPROPYL-2-TETRAZENE

>  <SYNONYMS>  (5799) 


>  <SPECTRUM TYPE>  (5799) 
MS1

>  <INSTRUMENT TYPE>  (5799) 
EI-B

>  <INSTRUMENT>  (5799) 
SHIMADZU LKB-2091

>  <ION MODE>  (5799) 
P

>  <INCHIKEY>  (5799) 
ZNDMWJNPHFHXFT-BUHFOSPRSA-N

>  <FORMULA>  (5799) 
C12H28N4

>  <EXACT MASS>  (5799) 
228.23139689599998

>  <MW>  (5799) 
228

>  <ID>  (5799) 
JP000416

>  <CONTRIBUTOR>  (5799) 
University of Tokyo Team, {Faculty of Engineering, University of Tokyo

>  <COMMENT>  (5799) 
SMILES=CC(C)N(C(C)C)N=NN(C(C)C)C(C)C
InChI=InChI=1S/C12H28N4/c1-9(2)15(10(3)4)13-14-16(11(5)6)12(7)8/h9-12H,1-8H3/b14-13+
computed SMILES=N(=NN(C(C)C)C(C)C)N(C(C)C)C(C)C
accession=JP000416
date=2016.01.19 (Created 2008.10.21, modified 2011.05.06)
author=SASAKI S, TOYOHASHI UNIV. OF TECH.
license=CC BY-NC-SA
exact mass=228.2314
ionization energy=70 eV
ion type=[M]+*
computed spectral entropy=2.2046084762121465
computed normalized entropy=0.5976363564153631
SPLASH=splash10-052f-9010000000-a4c18ed46200345da8ac
submitter=submitter = University of Tokyo Team (Faculty of Engineering, University of Tokyo)
MoNA Rating=3.75

>  <NUM PEAKS>  (5799) 
40

>  <MASS SPECTRAL PEAKS>  (5799) 
27 10.7
29 1.1
30 3.2
31 0.52
39 2.6
40 0.7
41 17.8
42 2.64
43 72.9
44 21.4
45 0.5
54 0.03
55 0.3
56 10.7
57 1.1
58 99.99
59 3.6
60 0.2
68 0.3
69 0.02
70 3.6
71 0.8
72 0.2
73 3.07
74 1.1
84 4.2
85 0.7
86 0.56
87 0.3
98 0.4
99 1
100 0.23
101 0.8
115 4.2
116 0.3
128 0.05
155 0.1
228 30.7
229 3.6
230 0.2

>  <PREDICTED SPECTRUM>  (5799) 
14 22
15 63
27 397
28 325
29 227
30 652
31 17
39 142
40 60
41 674
42 816
43 999
44 697
54 35
56 604
57 135
58 508
59 52
60 195
61 106
70 505
72 713
73 60
74 187
84 707
86 524
87 77
98 402
100 204
112 199
128 584
129 169
130 8
171 295
213 514
214 170
228 82
229 25

$$$$

     RDKit          2D

 12 11  0  0  0  0  0  0  0  0999 V2000
    2.2733    2.8125    0.0000 C   0  0  0  0  0  0  0  0  0  0  0  0
    0.9743    5.0625    0.0000 C   0  0  0  0  0  0  0  0  0  0  0  0
    0.9743    0.5625    0.0000 C   0  0  0  0  0  0  0  0  0  0  0  0
   -1.6238    0.5625    0.0000 C   0  0  0  0  0  0  0  0  0  0  0  0
   -5.5209    2.8125    0.0000 C   0  0  0  0  0  0  0  0  0  0  0  0
   -4.2219    5.0625    0.0000 C   0  0  0  0  0  0  0  0  0  0  0  0
    0.9743    3.5625    0.0000 C   0  0  0  0  0  0  0  0  0  0  0  0
   -0.3248    1.3125    0.0000 C   0  0  0  0  0  0  0  0  0  0  0  0
   -2.9228    2.8125    0.0000 N   0  0  0  0  0  0  0  0  0  0  0  0
   -1.6238    3.5625    0.0000 N   0  0  0  0  0  0  0  0  0  0  0  0
   -4.2219    3.5625    0.0000 N   0  0  0  0  0  0  0  0  0  0  0  0
   -0.3248    2.8125    0.0000 N   0  0  0  0  0  0  0  0  0  0  0  0
  7  1  1  0
  7  2  1  0
  8  3  1  0
  8  4  1  0
  9 10  2  0
 11  5  1  0
 11  6  1  0
 11  9  1  0
 12  7  1  0
 12  8  1  0
 12 10  1  0
M  END
>  <NAME>  (5800) 
1,1-DIISOPROPYL-4,4-DIMETHYL-2-TETRAZENE

>  <SYNONYMS>  (5800) 


>  <SPECTRUM TYPE>  (5800) 
MS1

>  <INSTRUMENT TYPE>  (5800) 
EI-B

>  <INSTRUMENT>  (5800) 
SHIMADZU LKB-2091

>  <ION MODE>  (5800) 
P

>  <INCHIKEY>  (5800) 
JTPWWUNKACEDTB-MDZDMXLPSA-N

>  <FORMULA>  (5800) 
C8H20N4

>  <EXACT MASS>  (5800) 
172.16879663999998

>  <MW>  (5800) 
172

>  <ID>  (5800) 
JP000415

>  <CONTRIBUTOR>  (5800) 
University of Tokyo Team, {Faculty of Engineering, University of Tokyo

>  <COMMENT>  (5800) 
SMILES=CN(C)N=NN(C(C)C)C(C)C
InChI=InChI=1S/C8H20N4/c1-7(2)12(8(3)4)10-9-11(5)6/h7-8H,1-6H3/b10-9+
computed SMILES=N(=NN(C(C)C)C(C)C)N(C)C
accession=JP000415
date=2016.01.19 (Created 2008.10.21, modified 2011.05.06)
author=SASAKI S, TOYOHASHI UNIV. OF TECH.
license=CC BY-NC-SA
exact mass=172.1688
ionization energy=70 eV
ion type=[M]+*
computed spectral entropy=2.3743012147674456
computed normalized entropy=0.7125316611022194
SPLASH=splash10-0596-9200000000-c829361bf46bac508bde
submitter=submitter = University of Tokyo Team (Faculty of Engineering, University of Tokyo)
MoNA Rating=3.75

>  <NUM PEAKS>  (5800) 
28

>  <MASS SPECTRAL PEAKS>  (5800) 
27 19.5
29 2.1
30 7.9
39 0.5
40 1.5
41 20.7
42 30
43 8.63
44 99.99
45 7.3
56 3.9
57 0.2
58 77.3
59 63.6
60 1.5
70 1.02
71 1.1
72 35.9
73 1.5
84 0.45
85 1.2
86 6.1
99 0.9
100 0.1
157 6.6
158 0.6
172 81.9
173 6.8

>  <PREDICTED SPECTRUM>  (5800) 
15 4
27 86
28 104
29 59
30 180
32 3
38 8
39 50
40 109
41 461
42 691
43 673
44 757
45 159
46 9
53 15
54 50
55 155
56 503
57 280
58 672
59 278
60 63
68 79
70 208
71 171
72 999
73 84
84 168
85 36
86 223
87 30
98 119
100 38
102 3
114 85
115 112
157 88
172 277
173 43

$$$$

     RDKit          2D

 12 11  0  0  0  0  0  0  0  0999 V2000
   -6.4952    4.5000    0.0000 C   0  0  0  0  0  0  0  0  0  0  0  0
   -5.1962    2.2500    0.0000 C   0  0  0  0  0  0  0  0  0  0  0  0
    2.5981    3.7500    0.0000 C   0  0  0  0  0  0  0  0  0  0  0  0
    1.2990    6.0000    0.0000 C   0  0  0  0  0  0  0  0  0  0  0  0
   -3.8971    6.0000    0.0000 C   0  0  0  0  0  0  0  0  0  0  0  0
   -0.0000    2.2500    0.0000 C   0  0  0  0  0  0  0  0  0  0  0  0
   -5.1962    3.7500    0.0000 C   0  0  0  0  0  0  0  0  0  0  0  0
    1.2990    4.5000    0.0000 C   0  0  0  0  0  0  0  0  0  0  0  0
   -2.5981    3.7500    0.0000 N   0  0  0  0  0  0  0  0  0  0  0  0
   -1.2990    4.5000    0.0000 N   0  0  0  0  0  0  0  0  0  0  0  0
   -3.8971    4.5000    0.0000 N   0  0  0  0  0  0  0  0  0  0  0  0
    0.0000    3.7500    0.0000 N   0  0  0  0  0  0  0  0  0  0  0  0
  7  1  1  0
  7  2  1  0
  8  3  1  0
  8  4  1  0
  9 10  2  0
 11  5  1  0
 11  7  1  0
 11  9  1  0
 12  6  1  0
 12  8  1  0
 12 10  1  0
M  END
>  <NAME>  (5801) 
1,4-DIISOPROPYL-1,4-DIMETHYL-2-TETRAZENE

>  <SYNONYMS>  (5801) 


>  <SPECTRUM TYPE>  (5801) 
MS1

>  <INSTRUMENT TYPE>  (5801) 
EI-B

>  <INSTRUMENT>  (5801) 
SHIMADZU LKB-2091

>  <ION MODE>  (5801) 
P

>  <INCHIKEY>  (5801) 
LHQPFVXOECBIPT-MDZDMXLPSA-N

>  <FORMULA>  (5801) 
C8H20N4

>  <EXACT MASS>  (5801) 
172.16879663999998

>  <MW>  (5801) 
172

>  <ID>  (5801) 
JP000414

>  <CONTRIBUTOR>  (5801) 
University of Tokyo Team, {Faculty of Engineering, University of Tokyo

>  <COMMENT>  (5801) 
SMILES=CC(C)N(C)N=NN(C)C(C)C
InChI=InChI=1S/C8H20N4/c1-7(2)11(5)9-10-12(6)8(3)4/h7-8H,1-6H3/b10-9+
computed SMILES=N(=NN(C)C(C)C)N(C)C(C)C
accession=JP000414
date=2016.01.19 (Created 2008.10.21, modified 2011.05.06)
author=SASAKI S, TOYOHASHI UNIV. OF TECH.
license=CC BY-NC-SA
exact mass=172.1688
ionization energy=70 eV
ion type=[M]+*
computed spectral entropy=2.4718600414584824
computed normalized entropy=0.7340786691344584
SPLASH=splash10-006x-9000000000-bee210aeb7218073454b
submitter=submitter = University of Tokyo Team (Faculty of Engineering, University of Tokyo)
MoNA Rating=3.75

>  <NUM PEAKS>  (5801) 
29

>  <MASS SPECTRAL PEAKS>  (5801) 
27 18.9
28 12.2
29 4
30 2.78
39 4.7
40 1.2
41 25.5
42 3.11
43 87.9
44 25.5
45 51.1
46 0.09
54 0.8
55 1.1
56 23.3
57 2
58 19.4
59 6.9
70 8.3
71 0.31
72 99.99
73 5.1
87 15.5
100 0.54
101 0.6
115 0.8
157 1.9
172 4.22
173 3.3

>  <PREDICTED SPECTRUM>  (5801) 
14 36
15 111
18 11
26 43
27 284
28 240
29 310
30 417
31 63
32 13
38 15
39 203
40 111
41 468
42 598
43 717
44 587
45 268
46 77
54 30
55 115
56 495
57 403
58 393
59 148
60 54
70 227
71 181
72 999
73 231
74 14
87 67
100 196
101 67
102 6
115 54
157 101
172 499
173 108

$$$$

     RDKit          2D

 12 11  0  0  0  0  0  0  0  0999 V2000
   -6.4952    4.5000    0.0000 C   0  0  0  0  0  0  0  0  0  0  0  0
   -5.1962    6.7500    0.0000 C   0  0  0  0  0  0  0  0  0  0  0  0
    2.5981    3.7500    0.0000 C   0  0  0  0  0  0  0  0  0  0  0  0
    1.2990    1.5000    0.0000 C   0  0  0  0  0  0  0  0  0  0  0  0
   -5.1962    3.7500    0.0000 C   0  0  0  0  0  0  0  0  0  0  0  0
   -3.8971    6.0000    0.0000 C   0  0  0  0  0  0  0  0  0  0  0  0
    1.2990    4.5000    0.0000 C   0  0  0  0  0  0  0  0  0  0  0  0
   -0.0000    2.2500    0.0000 C   0  0  0  0  0  0  0  0  0  0  0  0
   -2.5981    3.7500    0.0000 N   0  0  0  0  0  0  0  0  0  0  0  0
   -1.2990    4.5000    0.0000 N   0  0  0  0  0  0  0  0  0  0  0  0
   -3.8971    4.5000    0.0000 N   0  0  0  0  0  0  0  0  0  0  0  0
    0.0000    3.7500    0.0000 N   0  0  0  0  0  0  0  0  0  0  0  0
  5  1  1  0
  6  2  1  0
  7  3  1  0
  8  4  1  0
  9 10  2  0
 11  5  1  0
 11  6  1  0
 11  9  1  0
 12  7  1  0
 12  8  1  0
 12 10  1  0
M  END
>  <NAME>  (5802) 
TETRAETHYL-2-TETRAZENE

>  <SYNONYMS>  (5802) 


>  <SPECTRUM TYPE>  (5802) 
MS1

>  <INSTRUMENT TYPE>  (5802) 
EI-B

>  <INSTRUMENT>  (5802) 
SHIMADZU LKB-2091

>  <ION MODE>  (5802) 
P

>  <INCHIKEY>  (5802) 
DTPTYCXQWZYACS-MDZDMXLPSA-N

>  <FORMULA>  (5802) 
C8H20N4

>  <EXACT MASS>  (5802) 
172.16879663999998

>  <MW>  (5802) 
172

>  <ID>  (5802) 
JP000413

>  <CONTRIBUTOR>  (5802) 
University of Tokyo Team, {Faculty of Engineering, University of Tokyo

>  <COMMENT>  (5802) 
SMILES=CCN(CC)N=NN(CC)CC
InChI=InChI=1S/C8H20N4/c1-5-11(6-2)9-10-12(7-3)8-4/h5-8H2,1-4H3/b10-9+
computed SMILES=N(=NN(CC)CC)N(CC)CC
accession=JP000413
date=2016.01.19 (Created 2008.10.21, modified 2011.05.06)
author=SASAKI S, TOYOHASHI UNIV. OF TECH.
license=CC BY-NC-SA
exact mass=172.1688
ionization energy=70 eV
ion type=[M]+*
computed spectral entropy=2.0143615922046756
computed normalized entropy=0.6424383058884879
SPLASH=splash10-002f-9100000000-f91ecbb1b97847323e06
submitter=submitter = University of Tokyo Team (Faculty of Engineering, University of Tokyo)
MoNA Rating=3.75

>  <NUM PEAKS>  (5802) 
23

>  <MASS SPECTRAL PEAKS>  (5802) 
27 11.4
28 10.2
29 53.7
30 0.52
31 1.9
41 1.6
42 10.8
43 0.45
44 99.99
45 2.7
56 5.4
57 0.37
58 6.3
59 4.5
70 1
71 0.11
72 7.1
73 0.8
87 3.3
100 0.25
157 0.2
172 42.2
173 4.3

>  <PREDICTED SPECTRUM>  (5802) 
14 7
15 63
26 55
27 319
28 335
29 494
30 413
31 38
32 8
41 115
42 340
43 188
44 341
55 195
56 458
57 256
58 365
68 35
69 128
70 370
71 159
72 716
73 240
82 22
84 219
85 207
86 230
87 92
98 95
99 63
100 999
101 152
102 37
104 0
112 39
113 80
143 35
157 434
158 108
172 263
173 57

$$$$

     RDKit          2D

 10  9  0  0  0  0  0  0  0  0999 V2000
    1.9486    3.3750    0.0000 C   0  0  0  0  0  0  0  0  0  0  0  0
    0.6495    1.1250    0.0000 C   0  0  0  0  0  0  0  0  0  0  0  0
   -5.8457    3.3750    0.0000 C   0  0  0  0  0  0  0  0  0  0  0  0
   -4.5466    5.6250    0.0000 C   0  0  0  0  0  0  0  0  0  0  0  0
    0.6495    4.1250    0.0000 C   0  0  0  0  0  0  0  0  0  0  0  0
   -0.6495    1.8750    0.0000 C   0  0  0  0  0  0  0  0  0  0  0  0
   -3.2476    3.3750    0.0000 N   0  0  0  0  0  0  0  0  0  0  0  0
   -1.9486    4.1250    0.0000 N   0  0  0  0  0  0  0  0  0  0  0  0
   -4.5466    4.1250    0.0000 N   0  0  0  0  0  0  0  0  0  0  0  0
   -0.6495    3.3750    0.0000 N   0  0  0  0  0  0  0  0  0  0  0  0
  5  1  1  0
  6  2  1  0
  7  8  2  0
  9  3  1  0
  9  4  1  0
  9  7  1  0
 10  5  1  0
 10  6  1  0
 10  8  1  0
M  END
>  <NAME>  (5803) 
1,1-DIETHYL-4,4-DIMETHYL-2-TETRAZENE

>  <SYNONYMS>  (5803) 


>  <SPECTRUM TYPE>  (5803) 
MS1

>  <INSTRUMENT TYPE>  (5803) 
EI-B

>  <INSTRUMENT>  (5803) 
SHIMADZU LKB-2091

>  <ION MODE>  (5803) 
P

>  <INCHIKEY>  (5803) 
ACWGYOPNCRGEKM-BQYQJAHWSA-N

>  <FORMULA>  (5803) 
C6H16N4

>  <EXACT MASS>  (5803) 
144.13749651199998

>  <MW>  (5803) 
144

>  <ID>  (5803) 
JP000412

>  <CONTRIBUTOR>  (5803) 
University of Tokyo Team, {Faculty of Engineering, University of Tokyo

>  <COMMENT>  (5803) 
computed SMILES=N(=NN(CC)CC)N(C)C
SMILES=CCN(CC)N=NN(C)C
InChI=InChI=1S/C6H16N4/c1-5-10(6-2)8-7-9(3)4/h5-6H2,1-4H3/b8-7+
accession=JP000412
date=2016.01.19 (Created 2008.10.21, modified 2011.05.06)
author=SASAKI S, TOYOHASHI UNIV. OF TECH.
license=CC BY-NC-SA
exact mass=144.1375
ionization energy=70 eV
ion type=[M]+*
computed spectral entropy=2.0916605130279713
computed normalized entropy=0.5931499341677905
SPLASH=splash10-0006-9300000000-a38b2bd04bc9dc37ed32
submitter=submitter = University of Tokyo Team (Faculty of Engineering, University of Tokyo)
MoNA Rating=3.75

>  <NUM PEAKS>  (5803) 
34

>  <MASS SPECTRAL PEAKS>  (5803) 
29 40
30 7.5
31 0.6
39 0.06
40 1.4
41 2.8
42 25.4
43 3.45
44 99.99
45 5.4
46 0.9
55 0.09
56 3.4
57 3.5
58 7.7
59 1.64
60 1.6
70 0.7
71 0.7
72 1.82
73 1.2
83 1.4
84 0.5
85 0.05
87 1.6
98 1.4
99 0.4
100 0.1
101 0.8
115 0.5
129 2.1
130 0.08
144 68.2
145 4.3

>  <PREDICTED SPECTRUM>  (5803) 
15 19
27 76
28 152
29 179
30 143
31 15
40 24
41 222
42 589
43 236
44 519
45 143
46 73
54 35
55 16
56 544
57 302
58 284
59 11
70 290
71 281
72 999
73 304
74 84
84 136
85 60
86 11
87 2
98 88
99 17
100 85
129 238
130 0
144 363
145 93

$$$$

     RDKit          2D

  8  7  0  0  0  0  0  0  0  0999 V2000
    0.0000    0.0000    0.0000 C   0  0  0  0  0  0  0  0  0  0  0  0
    1.2990    2.2500    0.0000 C   0  0  0  0  0  0  0  0  0  0  0  0
   -2.5981    6.0000    0.0000 C   0  0  0  0  0  0  0  0  0  0  0  0
   -3.8971    3.7500    0.0000 C   0  0  0  0  0  0  0  0  0  0  0  0
   -1.2990    2.2500    0.0000 N   0  0  0  0  0  0  0  0  0  0  0  0
   -1.2990    3.7500    0.0000 N   0  0  0  0  0  0  0  0  0  0  0  0
    0.0000    1.5000    0.0000 N   0  0  0  0  0  0  0  0  0  0  0  0
   -2.5981    4.5000    0.0000 N   0  0  0  0  0  0  0  0  0  0  0  0
  5  6  2  0
  7  1  1  0
  7  2  1  0
  7  5  1  0
  8  3  1  0
  8  4  1  0
  8  6  1  0
M  END
>  <NAME>  (5804) 
TETRAMETHYL-2-TETRAZENE

>  <SYNONYMS>  (5804) 


>  <SPECTRUM TYPE>  (5804) 
MS1

>  <INSTRUMENT TYPE>  (5804) 
EI-B

>  <INSTRUMENT>  (5804) 
SHIMADZU LKB-2091

>  <ION MODE>  (5804) 
P

>  <INCHIKEY>  (5804) 
PRGCYUAJTPIADR-AATRIKPKSA-N

>  <FORMULA>  (5804) 
C4H12N4

>  <EXACT MASS>  (5804) 
116.10619638399999

>  <MW>  (5804) 
116

>  <ID>  (5804) 
JP000411

>  <CONTRIBUTOR>  (5804) 
University of Tokyo Team, {Faculty of Engineering, University of Tokyo

>  <COMMENT>  (5804) 
SMILES=CN(C)N=NN(C)C
InChI=InChI=1S/C4H12N4/c1-7(2)5-6-8(3)4/h1-4H3/b6-5+
computed SMILES=N(=NN(C)C)N(C)C
accession=JP000411
author=SASAKI S, TOYOHASHI UNIV. OF TECH.
date=2016.01.19 (Created 2008.10.21, modified 2011.05.06)
license=CC BY-NC-SA
exact mass=116.1062
ionization energy=70 eV
ion type=[M]+*
computed spectral entropy=1.9059216564682209
computed normalized entropy=0.6727067202569281
SPLASH=splash10-01bc-9500000000-b12d580a2ed0e7d32f04
submitter=submitter = University of Tokyo Team (Faculty of Engineering, University of Tokyo)
MoNA Rating=3.75

>  <NUM PEAKS>  (5804) 
17

>  <MASS SPECTRAL PEAKS>  (5804) 
28 19.5
29 2
30 3.3
31 0.07
41 2.2
42 27
43 57
44 4.05
45 3.6
46 1.2
58 3
59 1.5
71 3.3
72 53
73 2
116 99.99
117 6.1

>  <PREDICTED SPECTRUM>  (5804) 
14 11
15 75
16 3
17 10
18 21
26 45
27 161
28 245
29 198
30 267
31 94
32 16
40 93
41 152
42 790
43 404
44 999
45 538
46 351
53 25
54 128
55 88
56 380
57 270
58 374
59 505
60 275
61 168
70 231
71 363
72 669
73 202
74 5
87 15
98 87
99 16
101 241
116 858
117 255
118 83

$$$$

     RDKit          2D

 10 10  0  0  0  0  0  0  0  0999 V2000
   -4.0403    2.5049    0.0000 C   0  0  0  0  0  0  0  0  0  0  0  0
   -2.7413    0.2549    0.0000 C   0  0  0  0  0  0  0  0  0  0  0  0
    3.7240    1.4069    0.0000 C   0  0  0  0  0  0  0  0  0  0  0  0
    1.4823   -0.0496    0.0000 C   0  0  0  0  0  0  0  0  0  0  0  0
    0.0225    0.2621    0.0000 C   0  0  0  0  0  0  0  0  0  0  0  0
   -1.4423    2.5049    0.0000 C   0  0  0  0  0  0  0  0  0  0  0  0
   -2.7413    1.7549    0.0000 C   0  0  0  0  0  0  0  0  0  0  0  0
    2.2323    1.2495    0.0000 C   0  0  0  0  0  0  0  0  0  0  0  0
    1.2325    2.3578    0.0000 N   0  0  0  0  0  0  0  0  0  0  0  0
   -0.1432    1.7549    0.0000 N   0  0  0  0  0  0  0  0  0  0  0  0
  5  4  1  0
  7  1  1  0
  7  2  1  0
  7  6  1  0
  8  3  1  0
  8  4  1  0
  9  8  2  0
 10  5  1  0
 10  6  1  0
 10  9  1  0
M  END
>  <NAME>  (5805) 
1-ISOBUTYL-3-METHYL-2-PYRAZOLINE

>  <SYNONYMS>  (5805) 


>  <SPECTRUM TYPE>  (5805) 
MS1

>  <INSTRUMENT TYPE>  (5805) 
EI-B

>  <INSTRUMENT>  (5805) 
SHIMADZU LKB-2091

>  <ION MODE>  (5805) 
P

>  <INCHIKEY>  (5805) 
ZEWMFEJLDHQAFQ-UHFFFAOYSA-N

>  <FORMULA>  (5805) 
C8H16N2

>  <EXACT MASS>  (5805) 
140.131348512

>  <MW>  (5805) 
140

>  <ID>  (5805) 
JP000410

>  <CONTRIBUTOR>  (5805) 
University of Tokyo Team, {Faculty of Engineering, University of Tokyo

>  <COMMENT>  (5805) 
SMILES=CC(C)CN(C1)N=C(C)C1
InChI=InChI=1S/C8H16N2/c1-7(2)6-10-5-4-8(3)9-10/h7H,4-6H2,1-3H3
computed SMILES=N1=C(C)CCN1CC(C)C
accession=JP000410
date=2016.01.19 (Created 2008.10.21, modified 2011.05.06)
author=SASAKI S, TOYOHASHI UNIV. OF TECH.
license=CC BY-NC-SA
exact mass=140.13135
ionization energy=70 eV
ion type=[M]+*
computed spectral entropy=1.5350637653706856
computed normalized entropy=0.45133039724395657
SPLASH=splash10-0002-9000000000-ed22e519551b348b9dd4
submitter=submitter = University of Tokyo Team (Faculty of Engineering, University of Tokyo)
MoNA Rating=3.75

>  <NUM PEAKS>  (5805) 
30

>  <MASS SPECTRAL PEAKS>  (5805) 
26 0.4
27 3.2
28 6
29 0.31
30 0.3
39 2.2
41 4.3
42 1.16
43 1.3
53 0.5
54 1.1
55 0.14
56 3.1
57 0.6
58 0.3
68 0.16
69 6.8
70 0.5
82 0.3
83 0.31
84 0.7
95 0.7
96 0.8
97 99.99
98 4.7
99 0.2
125 0.6
139 0.03
140 7.7
141 0.8

>  <PREDICTED SPECTRUM>  (5805) 
27 10
28 0
30 55
38 5
39 228
40 176
41 453
42 520
43 380
44 109
52 48
53 59
54 149
55 310
56 460
57 275
58 29
68 24
69 131
70 130
82 143
83 343
84 410
85 200
96 110
97 999
98 522
99 66
111 23
125 264
126 54
139 83
140 584
141 140

$$$$

     RDKit          2D

 10 10  0  0  0  0  0  0  0  0999 V2000
   -2.5419    1.9359    0.0000 C   0  0  0  0  0  0  0  0  0  0  0  0
    4.6073    2.5252    0.0000 C   0  0  0  0  0  0  0  0  0  0  0  0
   -1.1141    2.3959    0.0000 C   0  0  0  0  0  0  0  0  0  0  0  0
   -0.0019    1.3895    0.0000 C   0  0  0  0  0  0  0  0  0  0  0  0
    4.7478   -0.1445    0.0000 C   0  0  0  0  0  0  0  0  0  0  0  0
    3.7480   -1.2528    0.0000 C   0  0  0  0  0  0  0  0  0  0  0  0
    1.4258    1.8494    0.0000 C   0  0  0  0  0  0  0  0  0  0  0  0
    3.9978    1.1546    0.0000 C   0  0  0  0  0  0  0  0  0  0  0  0
    2.3723   -0.6499    0.0000 N   0  0  0  0  0  0  0  0  0  0  0  0
    2.5380    0.8430    0.0000 N   0  0  0  0  0  0  0  0  0  0  0  0
  3  1  1  0
  4  3  1  0
  6  5  1  0
  7  4  1  0
  8  2  1  0
  8  5  1  0
  9  6  2  0
 10  7  1  0
 10  8  1  0
 10  9  1  0
M  END
>  <NAME>  (5806) 
1-BUTYL-5-METHYL-2-PYRAZOLINE

>  <SYNONYMS>  (5806) 


>  <SPECTRUM TYPE>  (5806) 
MS1

>  <INSTRUMENT TYPE>  (5806) 
EI-B

>  <INSTRUMENT>  (5806) 
SHIMADZU LKB-2091

>  <ION MODE>  (5806) 
P

>  <INCHIKEY>  (5806) 
IPKPLDIJSVOODS-UHFFFAOYSA-N

>  <FORMULA>  (5806) 
C8H16N2

>  <EXACT MASS>  (5806) 
140.131348512

>  <MW>  (5806) 
140

>  <ID>  (5806) 
JP000409

>  <CONTRIBUTOR>  (5806) 
University of Tokyo Team, {Faculty of Engineering, University of Tokyo

>  <COMMENT>  (5806) 
SMILES=CCCCN(N=1)C(C)CC([H])1
InChI=InChI=1S/C8H16N2/c1-3-4-7-10-8(2)5-6-9-10/h6,8H,3-5,7H2,1-2H3
computed SMILES=N1=CCC(N1CCCC)C
accession=JP000409
date=2016.01.19 (Created 2008.10.21, modified 2011.05.06)
author=SASAKI S, TOYOHASHI UNIV. OF TECH.
license=CC BY-NC-SA
exact mass=140.13135
ionization energy=70 eV
ion type=[M]+*
computed spectral entropy=1.9040436427252196
computed normalized entropy=0.5445558487299936
SPLASH=splash10-0002-9000000000-fddac03ffc5b4a4a2111
submitter=submitter = University of Tokyo Team (Faculty of Engineering, University of Tokyo)
MoNA Rating=3.75

>  <NUM PEAKS>  (5806) 
33

>  <MASS SPECTRAL PEAKS>  (5806) 
26 0.5
27 5.5
29 6.7
30 0.45
39 3.3
40 0.7
41 8.6
42 0.61
43 1.7
44 0.8
52 0.2
53 0.08
54 1.6
55 7.3
56 3.1
57 0.25
68 2.5
69 24.5
70 2.1
80 0.05
81 0.5
82 0.5
83 1.5
84 0.06
95 0.4
97 99.99
98 5
111 0.03
125 4.6
126 0.4
139 0.5
140 1.05
141 1

>  <PREDICTED SPECTRUM>  (5806) 
30 55
39 179
40 105
41 344
42 251
43 119
44 29
51 8
52 81
53 182
54 175
55 303
56 263
57 198
67 185
68 140
69 179
70 122
81 44
82 66
83 242
84 131
85 21
95 88
97 999
98 316
111 56
123 50
125 236
126 77
139 37
140 244
141 85

$$$$

     RDKit          2D

 10 10  0  0  0  0  0  0  0  0999 V2000
   -3.6880   -1.0864    0.0000 C   0  0  0  0  0  0  0  0  0  0  0  0
    3.6595    0.4748    0.0000 C   0  0  0  0  0  0  0  0  0  0  0  0
    2.3605    2.7248    0.0000 C   0  0  0  0  0  0  0  0  0  0  0  0
   -2.8058    0.1268    0.0000 C   0  0  0  0  0  0  0  0  0  0  0  0
   -0.5640   -1.3297    0.0000 C   0  0  0  0  0  0  0  0  0  0  0  0
   -0.3143    1.0777    0.0000 C   0  0  0  0  0  0  0  0  0  0  0  0
    2.3605    1.2248    0.0000 C   0  0  0  0  0  0  0  0  0  0  0  0
   -1.3140   -0.0307    0.0000 C   0  0  0  0  0  0  0  0  0  0  0  0
    0.8957   -1.0181    0.0000 N   0  0  0  0  0  0  0  0  0  0  0  0
    1.0615    0.4748    0.0000 N   0  0  0  0  0  0  0  0  0  0  0  0
  4  1  1  0
  7  2  1  0
  7  3  1  0
  8  4  1  0
  8  5  1  0
  8  6  1  0
  9  5  2  0
 10  6  1  0
 10  7  1  0
 10  9  1  0
M  END
>  <NAME>  (5807) 
4-ETHYL-1-ISOPROPYL-2-PYRAZOLINE

>  <SYNONYMS>  (5807) 


>  <SPECTRUM TYPE>  (5807) 
MS1

>  <INSTRUMENT TYPE>  (5807) 
EI-B

>  <INSTRUMENT>  (5807) 
SHIMADZU LKB-2091

>  <ION MODE>  (5807) 
P

>  <INCHIKEY>  (5807) 
YYDARPMCZIBRBD-UHFFFAOYSA-N

>  <FORMULA>  (5807) 
C8H16N2

>  <EXACT MASS>  (5807) 
140.131348512

>  <MW>  (5807) 
140

>  <ID>  (5807) 
JP000408

>  <CONTRIBUTOR>  (5807) 
University of Tokyo Team, {Faculty of Engineering, University of Tokyo

>  <COMMENT>  (5807) 
SMILES=CCC(C=1)CN(N1)C(C)C
InChI=InChI=1S/C8H16N2/c1-4-8-5-9-10(6-8)7(2)3/h5,7-8H,4,6H2,1-3H3
computed SMILES=N1=CC(CN1C(C)C)CC
accession=JP000408
date=2016.01.19 (Created 2008.10.21, modified 2011.05.06)
author=SASAKI S, TOYOHASHI UNIV. OF TECH.
license=CC BY-NC-SA
exact mass=140.13135
ionization energy=70 eV
ion type=[M]+*
computed spectral entropy=2.148131997666676
computed normalized entropy=0.614365037084525
SPLASH=splash10-004i-9800000000-0f7e4f88a58f4d4cb102
submitter=submitter = University of Tokyo Team (Faculty of Engineering, University of Tokyo)
MoNA Rating=3.75

>  <NUM PEAKS>  (5807) 
33

>  <MASS SPECTRAL PEAKS>  (5807) 
26 0.8
27 9.8
29 4.1
30 0.29
39 6.2
40 1.6
41 11.4
42 1.73
43 7.5
44 3.3
52 0.5
53 0.1
54 2.8
55 5.2
56 11.4
57 0.09
67 0.6
68 2.1
69 47.5
70 0.34
81 0.8
82 0.9
83 1.2
95 0.11
96 1.7
97 2.3
98 0.5
111 0.15
125 99.99
126 8.5
139 1.4
140 1.77
141 1.8

>  <PREDICTED SPECTRUM>  (5807) 
15 29
26 34
27 191
28 106
29 150
38 1
39 205
40 140
41 405
42 470
43 453
52 47
53 166
54 156
55 513
56 258
57 83
65 8
67 48
68 109
69 509
70 233
81 95
82 79
83 221
95 71
96 17
97 135
98 37
111 131
125 999
126 273
127 33
139 56
140 400
141 99

$$$$

     RDKit          2D

 10 10  0  0  0  0  0  0  0  0999 V2000
    3.6880   -1.0864    0.0000 C   0  0  0  0  0  0  0  0  0  0  0  0
   -3.6595    0.4748    0.0000 C   0  0  0  0  0  0  0  0  0  0  0  0
   -2.3605    2.7248    0.0000 C   0  0  0  0  0  0  0  0  0  0  0  0
    2.8058    0.1268    0.0000 C   0  0  0  0  0  0  0  0  0  0  0  0
    0.5640   -1.3297    0.0000 C   0  0  0  0  0  0  0  0  0  0  0  0
   -0.8957   -1.0181    0.0000 C   0  0  0  0  0  0  0  0  0  0  0  0
   -2.3605    1.2248    0.0000 C   0  0  0  0  0  0  0  0  0  0  0  0
    1.3140   -0.0307    0.0000 C   0  0  0  0  0  0  0  0  0  0  0  0
    0.3143    1.0777    0.0000 N   0  0  0  0  0  0  0  0  0  0  0  0
   -1.0615    0.4748    0.0000 N   0  0  0  0  0  0  0  0  0  0  0  0
  4  1  1  0
  6  5  1  0
  7  2  1  0
  7  3  1  0
  8  4  1  0
  8  5  1  0
  9  8  2  0
 10  6  1  0
 10  7  1  0
 10  9  1  0
M  END
>  <NAME>  (5808) 
3-ETHYL-1-ISOPROPYL-2-PYRAZOLINE

>  <SYNONYMS>  (5808) 


>  <SPECTRUM TYPE>  (5808) 
MS1

>  <INSTRUMENT TYPE>  (5808) 
EI-B

>  <INSTRUMENT>  (5808) 
SHIMADZU LKB-2091

>  <ION MODE>  (5808) 
P

>  <INCHIKEY>  (5808) 
UMSXSCVFMDGXJU-UHFFFAOYSA-N

>  <FORMULA>  (5808) 
C8H16N2

>  <EXACT MASS>  (5808) 
140.131348512

>  <MW>  (5808) 
140

>  <ID>  (5808) 
JP000407

>  <CONTRIBUTOR>  (5808) 
University of Tokyo Team, {Faculty of Engineering, University of Tokyo

>  <COMMENT>  (5808) 
SMILES=CCC(C1)=NN(C1)C(C)C
InChI=InChI=1S/C8H16N2/c1-4-8-5-6-10(9-8)7(2)3/h7H,4-6H2,1-3H3
computed SMILES=N1=C(CC)CCN1C(C)C
accession=JP000407
date=2016.01.19 (Created 2008.10.21, modified 2011.05.06)
author=SASAKI S, TOYOHASHI UNIV. OF TECH.
license=CC BY-NC-SA
exact mass=140.13135
ionization energy=70 eV
ion type=[M]+*
computed spectral entropy=2.0614743109258336
computed normalized entropy=0.5798234871165431
SPLASH=splash10-004i-7900000000-721c058773ea35696329
submitter=submitter = University of Tokyo Team (Faculty of Engineering, University of Tokyo)
MoNA Rating=3.75

>  <NUM PEAKS>  (5808) 
35

>  <MASS SPECTRAL PEAKS>  (5808) 
26 0.7
27 6.4
29 3.3
30 0.13
39 3.8
41 8.1
42 12.1
43 0.33
52 0.4
53 1
54 4.3
55 0.18
56 31
57 1.1
67 0.4
68 0.17
69 3.6
70 2.7
81 0.6
82 0.11
83 4
84 0.4
95 0.6
96 0.04
97 7.6
98 0.8
110 0.5
111 0.06
123 0.6
124 0.6
125 99.99
126 0.8
139 1.2
140 13.3
141 1.3

>  <PREDICTED SPECTRUM>  (5808) 
14 43
15 113
16 7
17 9
18 15
26 71
27 243
28 241
29 195
30 230
31 2
32 4
37 27
38 78
39 278
40 188
41 409
42 432
43 496
44 42
51 22
52 75
53 74
54 209
55 278
56 322
57 129
65 47
66 49
67 106
68 165
69 263
70 237
71 77
80 30
81 87
82 169
83 194
95 110
96 131
97 221
98 86
108 14
111 135
112 27
123 12
125 999
126 238
127 52
139 109
140 337
141 108

$$$$

     RDKit          2D

 10 10  0  0  0  0  0  0  0  0999 V2000
   -1.8410   -2.2431    0.0000 C   0  0  0  0  0  0  0  0  0  0  0  0
   -2.6377    0.2298    0.0000 C   0  0  0  0  0  0  0  0  0  0  0  0
    2.7444    2.3164    0.0000 C   0  0  0  0  0  0  0  0  0  0  0  0
    3.7499   -0.7767    0.0000 C   0  0  0  0  0  0  0  0  0  0  0  0
    0.3622    1.1033    0.0000 C   0  0  0  0  0  0  0  0  0  0  0  0
   -1.5255   -0.7767    0.0000 C   0  0  0  0  0  0  0  0  0  0  0  0
    1.8622    1.1033    0.0000 C   0  0  0  0  0  0  0  0  0  0  0  0
    2.3222   -0.3167    0.0000 C   0  0  0  0  0  0  0  0  0  0  0  0
    1.1122   -1.2067    0.0000 N   0  0  0  0  0  0  0  0  0  0  0  0
   -0.0978   -0.3167    0.0000 N   0  0  0  0  0  0  0  0  0  0  0  0
  6  1  1  0
  6  2  1  0
  7  3  1  0
  7  5  1  0
  8  4  1  0
  8  7  1  0
  9  8  2  0
 10  5  1  0
 10  6  1  0
 10  9  1  0
M  END
>  <NAME>  (5809) 
1-ISOPROPYL-3,4-DIMETHYL-2-PYRAZOLINE

>  <SYNONYMS>  (5809) 


>  <SPECTRUM TYPE>  (5809) 
MS1

>  <INSTRUMENT TYPE>  (5809) 
EI-B

>  <INSTRUMENT>  (5809) 
SHIMADZU LKB-2091

>  <ION MODE>  (5809) 
P

>  <INCHIKEY>  (5809) 
FLFFDGXRTTZWSA-UHFFFAOYSA-N

>  <FORMULA>  (5809) 
C8H16N2

>  <EXACT MASS>  (5809) 
140.131348512

>  <MW>  (5809) 
140

>  <ID>  (5809) 
JP000406

>  <CONTRIBUTOR>  (5809) 
University of Tokyo Team, {Faculty of Engineering, University of Tokyo

>  <COMMENT>  (5809) 
SMILES=CC(C)N(C1)N=C(C)C(C)1
InChI=InChI=1S/C8H16N2/c1-6(2)10-5-7(3)8(4)9-10/h6-7H,5H2,1-4H3
computed SMILES=N1=C(C)C(C)CN1C(C)C
accession=JP000406
date=2016.01.19 (Created 2008.10.21, modified 2011.05.06)
author=SASAKI S, TOYOHASHI UNIV. OF TECH.
license=CC BY-NC-SA
exact mass=140.13135
ionization energy=70 eV
ion type=[M]+*
computed spectral entropy=1.9970961986022697
computed normalized entropy=0.5993318214725255
SPLASH=splash10-004i-5900000000-17ebb968d01e2dc280b4
submitter=submitter = University of Tokyo Team (Faculty of Engineering, University of Tokyo)
MoNA Rating=3.75

>  <NUM PEAKS>  (5809) 
28

>  <MASS SPECTRAL PEAKS>  (5809) 
26 0.8
27 7.1
28 2.5
29 0.24
30 2.4
39 0.5
40 1.4
41 1.6
42 23.7
43 4.2
44 1
53 0.1
54 2.4
55 2.4
56 11.6
57 0.08
68 1.8
69 1.1
70 1.2
83 1.38
84 0.7
97 4.2
98 0.7
125 99.99
126 8.2
139 1.5
140 17
141 1.7

>  <PREDICTED SPECTRUM>  (5809) 
14 2
15 51
26 15
27 170
28 96
29 74
30 27
37 7
38 58
39 362
40 241
41 487
42 678
43 730
44 83
45 233
52 67
53 120
54 203
55 323
56 397
57 122
65 16
66 39
67 154
68 264
69 149
70 174
71 9
81 0
82 329
83 371
84 43
95 157
96 301
97 789
98 355
99 12
123 219
125 999
126 308
127 41
138 154
139 540
140 765
141 225
142 14

$$$$

     RDKit          2D

  9  9  0  0  0  0  0  0  0  0999 V2000
    2.9533    2.3164    0.0000 C   0  0  0  0  0  0  0  0  0  0  0  0
    3.7499   -0.1565    0.0000 C   0  0  0  0  0  0  0  0  0  0  0  0
    1.6322   -2.2431    0.0000 C   0  0  0  0  0  0  0  0  0  0  0  0
   -0.7500   -1.0300    0.0000 C   0  0  0  0  0  0  0  0  0  0  0  0
   -1.2100    0.3900    0.0000 C   0  0  0  0  0  0  0  0  0  0  0  0
    2.6377    0.8500    0.0000 C   0  0  0  0  0  0  0  0  0  0  0  0
    0.7500   -1.0300    0.0000 C   0  0  0  0  0  0  0  0  0  0  0  0
    0.0000    1.2800    0.0000 N   0  0  0  0  0  0  0  0  0  0  0  0
    1.2100    0.3900    0.0000 N   0  0  0  0  0  0  0  0  0  0  0  0
  5  4  1  0
  6  1  1  0
  6  2  1  0
  7  3  1  0
  7  4  1  0
  8  5  2  0
  9  6  1  0
  9  7  1  0
  9  8  1  0
M  END
>  <NAME>  (5810) 
1-ISOPROPYL-5-METHYL-2-PYRAZOLINE

>  <SYNONYMS>  (5810) 


>  <SPECTRUM TYPE>  (5810) 
MS1

>  <INSTRUMENT TYPE>  (5810) 
EI-B

>  <INSTRUMENT>  (5810) 
SHIMADZU LKB-2091

>  <ION MODE>  (5810) 
P

>  <INCHIKEY>  (5810) 
DUOUFHCFRWDSBE-UHFFFAOYSA-N

>  <FORMULA>  (5810) 
C7H14N2

>  <EXACT MASS>  (5810) 
126.115698448

>  <MW>  (5810) 
126

>  <ID>  (5810) 
JP000405

>  <CONTRIBUTOR>  (5810) 
University of Tokyo Team, {Faculty of Engineering, University of Tokyo

>  <COMMENT>  (5810) 
SMILES=[H]C(C1)=NN(C(C)C)C(C)1
InChI=InChI=1S/C7H14N2/c1-6(2)9-7(3)4-5-8-9/h5-7H,4H2,1-3H3
computed SMILES=N1=CCC(N1C(C)C)C
accession=JP000405
date=2016.01.19 (Created 2008.10.21, modified 2011.05.06)
author=SASAKI S, TOYOHASHI UNIV. OF TECH.
license=CC BY-NC-SA
exact mass=126.1157
ionization energy=70 eV
ion type=[M]+*
computed spectral entropy=1.9796103054166516
computed normalized entropy=0.5764757372511679
SPLASH=splash10-03xr-9700000000-5c900b061cd44e4bc951
submitter=submitter = University of Tokyo Team (Faculty of Engineering, University of Tokyo)
MoNA Rating=3.75

>  <NUM PEAKS>  (5810) 
31

>  <MASS SPECTRAL PEAKS>  (5810) 
26 0.8
27 8.3
29 2.3
30 0.09
38 0.4
39 5.3
40 1.5
41 1.04
42 31.9
43 6.8
44 6.6
52 0.04
53 0.7
54 1.7
55 1.1
56 0.26
57 0.4
58 0.5
67 0.5
68 0.34
69 76.6
70 4.2
81 0.5
82 0.08
83 3.6
84 0.9
111 99.99
112 0.55
125 0.9
126 26.6
127 2.1

>  <PREDICTED SPECTRUM>  (5810) 
14 11
15 55
26 43
27 162
28 141
29 71
30 73
37 16
38 65
39 252
40 181
41 452
42 555
43 471
44 70
45 26
51 43
52 136
53 198
54 255
55 277
56 221
57 31
65 25
67 118
68 202
69 786
70 340
80 5
81 138
82 34
83 210
84 141
94 11
111 999
112 232
125 78
126 454
127 159

$$$$

     RDKit          2D

 10  9  0  0  0  0  0  0  0  0999 V2000
   -6.4952    4.5000    0.0000 C   0  0  0  0  0  0  0  0  0  0  0  0
    2.5981    3.7500    0.0000 C   0  0  0  0  0  0  0  0  0  0  0  0
   -3.8971    6.0000    0.0000 C   0  0  0  0  0  0  0  0  0  0  0  0
   -0.0000    2.2500    0.0000 C   0  0  0  0  0  0  0  0  0  0  0  0
   -5.1962    3.7500    0.0000 C   0  0  0  0  0  0  0  0  0  0  0  0
    1.2990    4.5000    0.0000 C   0  0  0  0  0  0  0  0  0  0  0  0
   -3.8971    4.5000    0.0000 C   0  0  0  0  0  0  0  0  0  0  0  0
    0.0000    3.7500    0.0000 C   0  0  0  0  0  0  0  0  0  0  0  0
   -2.5981    3.7500    0.0000 N   0  0  0  0  0  0  0  0  0  0  0  0
   -1.2990    4.5000    0.0000 N   0  0  0  0  0  0  0  0  0  0  0  0
  5  1  1  0
  6  2  1  0
  7  3  1  0
  7  5  1  0
  8  4  1  0
  8  6  1  0
  9  7  1  0
 10  8  1  0
 10  9  1  0
M  END
>  <NAME>  (5811) 
1,2-DI-SEC-BUTYLHYDRAZINE

>  <SYNONYMS>  (5811) 


>  <SPECTRUM TYPE>  (5811) 
MS1

>  <INSTRUMENT TYPE>  (5811) 
EI-B

>  <INSTRUMENT>  (5811) 
SHIMADZU LKB-2091

>  <ION MODE>  (5811) 
P

>  <INCHIKEY>  (5811) 
GTTATNIRHPAPPY-UHFFFAOYSA-N

>  <FORMULA>  (5811) 
C8H20N2

>  <EXACT MASS>  (5811) 
144.16264864

>  <MW>  (5811) 
144

>  <ID>  (5811) 
JP000404

>  <CONTRIBUTOR>  (5811) 
University of Tokyo Team, {Faculty of Engineering, University of Tokyo

>  <COMMENT>  (5811) 
SMILES=CCC(C)NNC(C)CC
InChI=InChI=1S/C8H20N2/c1-5-7(3)9-10-8(4)6-2/h7-10H,5-6H2,1-4H3
computed SMILES=N(NC(C)CC)C(C)CC
accession=JP000404
date=2016.01.19 (Created 2008.10.21, modified 2011.05.06)
author=SASAKI S, TOYOHASHI UNIV. OF TECH.
license=CC BY-NC-SA
exact mass=144.16265
ionization energy=70 eV
ion type=[M]+*
computed spectral entropy=2.6797423194206815
computed normalized entropy=0.8041950340196207
SPLASH=splash10-05mo-9300000000-29fda2cf86c772df6d58
submitter=submitter = University of Tokyo Team (Faculty of Engineering, University of Tokyo)
MoNA Rating=3.75

>  <NUM PEAKS>  (5811) 
28

>  <MASS SPECTRAL PEAKS>  (5811) 
27 15.7
29 39.5
30 12.4
31 3.43
39 7.4
41 31
42 22
43 0.85
44 53.7
45 3.2
55 18.8
56 0.84
57 54.4
58 8
59 52.1
70 0.77
72 46.6
73 6.6
85 2.8
87 1.63
88 1.1
99 0.7
115 99.99
116 1.01
129 13.4
130 1.1
144 43.2
145 6.5

>  <PREDICTED SPECTRUM>  (5811) 
15 37
26 73
27 357
28 325
29 480
30 494
31 397
39 255
40 123
41 538
42 385
43 444
44 675
45 339
46 163
54 109
55 226
56 338
57 705
58 263
59 869
60 199
61 77
68 8
69 65
70 224
71 206
72 924
73 223
74 23
85 31
87 488
88 116
99 22
115 999
116 317
117 86
129 269
130 48
143 112
144 673
145 258
146 92

$$$$

     RDKit          2D

 10  9  0  0  0  0  0  0  0  0999 V2000
   -8.4437    5.6250    0.0000 C   0  0  0  0  0  0  0  0  0  0  0  0
    3.2476    4.8750    0.0000 C   0  0  0  0  0  0  0  0  0  0  0  0
   -7.1447    4.8750    0.0000 C   0  0  0  0  0  0  0  0  0  0  0  0
    1.9486    5.6250    0.0000 C   0  0  0  0  0  0  0  0  0  0  0  0
   -5.8457    5.6250    0.0000 C   0  0  0  0  0  0  0  0  0  0  0  0
    0.6495    4.8750    0.0000 C   0  0  0  0  0  0  0  0  0  0  0  0
   -4.5466    4.8750    0.0000 C   0  0  0  0  0  0  0  0  0  0  0  0
   -0.6495    5.6250    0.0000 C   0  0  0  0  0  0  0  0  0  0  0  0
   -3.2476    5.6250    0.0000 N   0  0  0  0  0  0  0  0  0  0  0  0
   -1.9486    4.8750    0.0000 N   0  0  0  0  0  0  0  0  0  0  0  0
  3  1  1  0
  4  2  1  0
  5  3  1  0
  6  4  1  0
  7  5  1  0
  8  6  1  0
  9  7  1  0
 10  8  1  0
 10  9  1  0
M  END
>  <NAME>  (5812) 
1,2-DIBUTYLHYDRAZINE

>  <SYNONYMS>  (5812) 


>  <SPECTRUM TYPE>  (5812) 
MS1

>  <INSTRUMENT TYPE>  (5812) 
EI-B

>  <INSTRUMENT>  (5812) 
SHIMADZU LKB-2091

>  <ION MODE>  (5812) 
P

>  <INCHIKEY>  (5812) 
FEBRIAPYLGMZSR-UHFFFAOYSA-N

>  <FORMULA>  (5812) 
C8H20N2

>  <EXACT MASS>  (5812) 
144.16264864

>  <MW>  (5812) 
144

>  <ID>  (5812) 
JP000403

>  <CONTRIBUTOR>  (5812) 
University of Tokyo Team, {Faculty of Engineering, University of Tokyo

>  <COMMENT>  (5812) 
SMILES=CCCCNNCCCC
InChI=InChI=1S/C8H20N2/c1-3-5-7-9-10-8-6-4-2/h9-10H,3-8H2,1-2H3
computed SMILES=N(NCCCC)CCCC
accession=JP000403
date=2016.01.19 (Created 2008.10.21, modified 2011.05.06)
author=SASAKI S, TOYOHASHI UNIV. OF TECH.
license=CC BY-NC-SA
exact mass=144.16265
ionization energy=70 eV
ion type=[M]+*
computed spectral entropy=2.435651354870325
computed normalized entropy=0.716115850259778
SPLASH=splash10-0udi-7900000000-769099c4151bdcff90a5
submitter=submitter = University of Tokyo Team (Faculty of Engineering, University of Tokyo)
MoNA Rating=3.75

>  <NUM PEAKS>  (5812) 
30

>  <MASS SPECTRAL PEAKS>  (5812) 
27 8.7
28 16.7
29 17.9
30 3.75
31 4.6
32 5.8
39 3.8
41 1.54
42 2.9
43 12.4
44 4.6
45 4.16
46 0.9
55 2.4
56 1.8
57 1.16
58 1.5
59 2.9
70 5
71 0.19
72 3.1
87 3.3
99 8.3
101 99.99
102 7.5
113 1.1
115 0.7
142 0.13
144 31.6
145 3.8

>  <PREDICTED SPECTRUM>  (5812) 
15 34
26 73
27 369
28 263
29 456
30 716
31 169
32 22
39 293
40 104
41 579
42 276
43 327
44 236
45 696
46 115
47 1
53 79
54 139
55 174
56 188
57 449
58 275
59 479
60 109
68 33
69 25
70 78
71 115
72 309
73 252
74 129
84 47
85 34
86 3
87 213
88 39
98 5
99 146
100 115
101 999
102 316
115 210
116 69
117 1
143 216
144 580
145 220
146 62

$$$$

     RDKit          2D

  8  7  0  0  0  0  0  0  0  0999 V2000
   -6.4952    4.5000    0.0000 C   0  0  0  0  0  0  0  0  0  0  0  0
    2.5981    3.7500    0.0000 C   0  0  0  0  0  0  0  0  0  0  0  0
   -5.1962    3.7500    0.0000 C   0  0  0  0  0  0  0  0  0  0  0  0
    1.2990    4.5000    0.0000 C   0  0  0  0  0  0  0  0  0  0  0  0
   -3.8971    4.5000    0.0000 C   0  0  0  0  0  0  0  0  0  0  0  0
   -2.5981    3.7500    0.0000 C   0  0  0  0  0  0  0  0  0  0  0  0
    0.0000    3.7500    0.0000 N   0  0  0  0  0  0  0  0  0  0  0  0
   -1.2990    4.5000    0.0000 N   0  0  0  0  0  0  0  0  0  0  0  0
  3  1  1  0
  4  2  1  0
  5  3  1  0
  6  5  1  0
  7  4  1  0
  8  6  1  0
  8  7  1  0
M  END
>  <NAME>  (5813) 
1-BUTYL-2-ETHYLHYDRAZINE

>  <SYNONYMS>  (5813) 


>  <SPECTRUM TYPE>  (5813) 
MS1

>  <INSTRUMENT TYPE>  (5813) 
EI-B

>  <INSTRUMENT>  (5813) 
SHIMADZU LKB-2091

>  <ION MODE>  (5813) 
P

>  <INCHIKEY>  (5813) 
ALNDIBLAORBEAX-UHFFFAOYSA-N

>  <FORMULA>  (5813) 
C6H16N2

>  <EXACT MASS>  (5813) 
116.131348512

>  <MW>  (5813) 
116

>  <ID>  (5813) 
JP000402

>  <CONTRIBUTOR>  (5813) 
University of Tokyo Team, {Faculty of Engineering, University of Tokyo

>  <COMMENT>  (5813) 
SMILES=CCCCNNCC
InChI=InChI=1S/C6H16N2/c1-3-5-6-8-7-4-2/h7-8H,3-6H2,1-2H3
computed SMILES=N(NCCCC)CC
accession=JP000402
date=2016.01.19 (Created 2008.10.21, modified 2011.05.06)
author=SASAKI S, TOYOHASHI UNIV. OF TECH.
license=CC BY-NC-SA
exact mass=116.13135
ionization energy=70 eV
ion type=[M]+*
computed spectral entropy=2.620232767817821
computed normalized entropy=0.7560393640211066
SPLASH=splash10-00di-9100000000-17e23cd4ce6c2426baeb
submitter=submitter = University of Tokyo Team (Faculty of Engineering, University of Tokyo)
MoNA Rating=3.75

>  <NUM PEAKS>  (5813) 
32

>  <MASS SPECTRAL PEAKS>  (5813) 
27 11.5
28 8.7
29 19.2
30 3.27
31 21.1
32 4.2
39 3.8
40 0.1
41 12.9
42 7.7
43 8.3
44 2.69
45 30.7
46 1.3
55 1.6
56 0.19
57 8.3
58 2.5
59 26.9
60 0.19
70 1.7
71 11.5
72 1.9
73 99.99
74 4.8
87 1.5
99 1.3
101 0.9
114 3
115 1.5
116 46.1
117 6.1

>  <PREDICTED SPECTRUM>  (5813) 
14 4
15 81
18 14
26 74
27 458
28 340
29 572
30 999
31 275
39 274
40 165
41 576
42 470
43 474
44 627
45 467
46 120
54 33
55 97
56 351
57 601
58 441
59 452
60 57
70 26
71 190
72 271
73 964
74 234
87 489
88 128
101 101
115 257
116 709
117 221
118 3

$$$$

     RDKit          2D

  8  7  0  0  0  0  0  0  0  0999 V2000
    0.0000    0.0000    0.0000 C   0  0  0  0  0  0  0  0  0  0  0  0
    1.2990    2.2500    0.0000 C   0  0  0  0  0  0  0  0  0  0  0  0
   -2.5981    6.0000    0.0000 C   0  0  0  0  0  0  0  0  0  0  0  0
   -3.8971    3.7500    0.0000 C   0  0  0  0  0  0  0  0  0  0  0  0
    0.0000    1.5000    0.0000 C   0  0  0  0  0  0  0  0  0  0  0  0
   -2.5981    4.5000    0.0000 C   0  0  0  0  0  0  0  0  0  0  0  0
   -1.2990    2.2500    0.0000 N   0  0  0  0  0  0  0  0  0  0  0  0
   -1.2990    3.7500    0.0000 N   0  0  0  0  0  0  0  0  0  0  0  0
  5  1  1  0
  5  2  1  0
  6  3  1  0
  6  4  1  0
  7  5  1  0
  8  6  1  0
  8  7  1  0
M  END
>  <NAME>  (5814) 
1,2-DIISOPROPYLHYDRAZINE

>  <SYNONYMS>  (5814) 


>  <SPECTRUM TYPE>  (5814) 
MS1

>  <INSTRUMENT TYPE>  (5814) 
EI-B

>  <INSTRUMENT>  (5814) 
SHIMADZU LKB-2091

>  <ION MODE>  (5814) 
P

>  <INCHIKEY>  (5814) 
QWLQTDXXEZQUBB-UHFFFAOYSA-N

>  <FORMULA>  (5814) 
C6H16N2

>  <EXACT MASS>  (5814) 
116.131348512

>  <MW>  (5814) 
116

>  <ID>  (5814) 
JP000401

>  <CONTRIBUTOR>  (5814) 
University of Tokyo Team, {Faculty of Engineering, University of Tokyo

>  <COMMENT>  (5814) 
SMILES=CC(C)NNC(C)C
InChI=InChI=1S/C6H16N2/c1-5(2)7-8-6(3)4/h5-8H,1-4H3
computed SMILES=N(NC(C)C)C(C)C
accession=JP000401
date=2016.01.19 (Created 2008.10.21, modified 2011.05.06)
author=SASAKI S, TOYOHASHI UNIV. OF TECH.
license=CC BY-NC-SA
exact mass=116.13135
ionization energy=70 eV
ion type=[M]+*
computed spectral entropy=2.463978979502246
computed normalized entropy=0.73944410433941
SPLASH=splash10-00l6-9200000000-ad76408317fa59e1f2ac
submitter=submitter = University of Tokyo Team (Faculty of Engineering, University of Tokyo)
MoNA Rating=3.75

>  <NUM PEAKS>  (5814) 
28

>  <MASS SPECTRAL PEAKS>  (5814) 
27 17.5
28 5.6
29 4.6
30 1.46
31 99.99
32 10.7
39 7.3
40 0.19
41 25.2
42 17.9
43 76.4
44 2.26
45 1.3
56 9.3
57 3.5
58 4.68
59 44.4
60 1.8
72 1.2
73 5.13
74 3.8
85 1.2
99 1.1
101 6.4
102 4.8
115 1.4
116 64
117 7.5

>  <PREDICTED SPECTRUM>  (5814) 
14 13
15 90
16 21
17 19
18 24
25 29
26 45
27 304
28 307
29 259
30 445
31 257
32 0
39 236
40 132
41 541
42 597
43 616
44 426
45 194
46 68
54 133
55 112
56 270
57 226
58 685
59 999
60 143
70 77
71 65
72 338
73 409
74 157
101 848
102 199
115 18
116 392
117 41

$$$$

     RDKit          2D

  8  7  0  0  0  0  0  0  0  0999 V2000
    1.9486    3.3750    0.0000 C   0  0  0  0  0  0  0  0  0  0  0  0
   -5.8457    3.3750    0.0000 C   0  0  0  0  0  0  0  0  0  0  0  0
   -4.5466    5.6250    0.0000 C   0  0  0  0  0  0  0  0  0  0  0  0
    0.6495    4.1250    0.0000 C   0  0  0  0  0  0  0  0  0  0  0  0
   -0.6495    3.3750    0.0000 C   0  0  0  0  0  0  0  0  0  0  0  0
   -4.5466    4.1250    0.0000 C   0  0  0  0  0  0  0  0  0  0  0  0
   -1.9486    4.1250    0.0000 N   0  0  0  0  0  0  0  0  0  0  0  0
   -3.2476    3.3750    0.0000 N   0  0  0  0  0  0  0  0  0  0  0  0
  4  1  1  0
  5  4  1  0
  6  2  1  0
  6  3  1  0
  7  5  1  0
  8  6  1  0
  8  7  1  0
M  END
>  <NAME>  (5815) 
1-ISOPROPYL-2-PROPYLHYDRAZINE

>  <SYNONYMS>  (5815) 


>  <SPECTRUM TYPE>  (5815) 
MS1

>  <INSTRUMENT TYPE>  (5815) 
EI-B

>  <INSTRUMENT>  (5815) 
SHIMADZU LKB-2091

>  <ION MODE>  (5815) 
P

>  <INCHIKEY>  (5815) 
PNBRACSSFLTMRS-UHFFFAOYSA-N

>  <FORMULA>  (5815) 
C6H16N2

>  <EXACT MASS>  (5815) 
116.131348512

>  <MW>  (5815) 
116

>  <ID>  (5815) 
JP000400

>  <CONTRIBUTOR>  (5815) 
University of Tokyo Team, {Faculty of Engineering, University of Tokyo

>  <COMMENT>  (5815) 
SMILES=CCCNNC(C)C
InChI=InChI=1S/C6H16N2/c1-4-5-7-8-6(2)3/h6-8H,4-5H2,1-3H3
computed SMILES=N(NC(C)C)CCC
accession=JP000400
date=2016.01.19 (Created 2008.10.21, modified 2011.05.06)
author=SASAKI S, TOYOHASHI UNIV. OF TECH.
license=CC BY-NC-SA
exact mass=116.13135
ionization energy=70 eV
ion type=[M]+*
computed spectral entropy=2.8031363961034996
computed normalized entropy=0.7884281222607511
SPLASH=splash10-0fsm-9200000000-16eab0c06d2005de4053
submitter=submitter = University of Tokyo Team (Faculty of Engineering, University of Tokyo)
MoNA Rating=3.75

>  <NUM PEAKS>  (5815) 
35

>  <MASS SPECTRAL PEAKS>  (5815) 
26 2.4
27 29.7
28 21.6
29 1.19
30 43.2
31 62.1
32 9.2
39 1.1
40 3
41 40.5
42 20.3
43 7.3
44 29.7
45 99.99
46 4
54 0.25
55 1
56 10.3
57 5.4
58 5.95
59 11.9
60 1.4
71 3.6
72 0.38
73 43.3
74 4.3
85 1
87 6.77
88 4.6
99 2
101 62.1
102 0.46
115 1.5
116 75.9
117 8.9

>  <PREDICTED SPECTRUM>  (5815) 
15 45
26 41
27 258
28 244
29 212
30 654
31 176
39 230
40 136
41 455
42 521
43 524
44 711
45 250
46 58
54 184
55 74
56 398
57 134
58 946
59 999
60 173
70 271
71 134
72 703
73 238
74 135
87 931
88 258
101 634
102 155
115 117
116 562
117 199

$$$$

     RDKit          2D

  8  7  0  0  0  0  0  0  0  0999 V2000
   -6.4952    4.5000    0.0000 C   0  0  0  0  0  0  0  0  0  0  0  0
    2.5981    3.7500    0.0000 C   0  0  0  0  0  0  0  0  0  0  0  0
   -5.1962    3.7500    0.0000 C   0  0  0  0  0  0  0  0  0  0  0  0
    1.2990    4.5000    0.0000 C   0  0  0  0  0  0  0  0  0  0  0  0
   -3.8971    4.5000    0.0000 C   0  0  0  0  0  0  0  0  0  0  0  0
    0.0000    3.7500    0.0000 C   0  0  0  0  0  0  0  0  0  0  0  0
   -2.5981    3.7500    0.0000 N   0  0  0  0  0  0  0  0  0  0  0  0
   -1.2990    4.5000    0.0000 N   0  0  0  0  0  0  0  0  0  0  0  0
  3  1  1  0
  4  2  1  0
  5  3  1  0
  6  4  1  0
  7  5  1  0
  8  6  1  0
  8  7  1  0
M  END
>  <NAME>  (5816) 
1,2-DIPROPYLHYDRAZINE

>  <SYNONYMS>  (5816) 


>  <SPECTRUM TYPE>  (5816) 
MS1

>  <INSTRUMENT TYPE>  (5816) 
EI-B

>  <INSTRUMENT>  (5816) 
SHIMADZU LKB-2091

>  <ION MODE>  (5816) 
P

>  <INCHIKEY>  (5816) 
BOOQVRGRSDTZRZ-UHFFFAOYSA-N

>  <FORMULA>  (5816) 
C6H16N2

>  <EXACT MASS>  (5816) 
116.13134851199999

>  <MW>  (5816) 
116

>  <ID>  (5816) 
JP000399

>  <CONTRIBUTOR>  (5816) 
University of Tokyo Team, {Faculty of Engineering, University of Tokyo

>  <COMMENT>  (5816) 
SMILES=CCCNNCCC
InChI=InChI=1S/C6H16N2/c1-3-5-7-8-6-4-2/h7-8H,3-6H2,1-2H3
computed SMILES=N(NCCC)CCC
accession=JP000399
date=2016.01.19 (Created 2008.10.21, modified 2011.05.06)
author=SASAKI S, TOYOHASHI UNIV. OF TECH.
license=CC BY-NC-SA
exact mass=116.13135
ionization energy=70 eV
ion type=[M]+*
computed spectral entropy=2.3377665588728394
computed normalized entropy=0.7175252579509126
SPLASH=splash10-000i-9100000000-19615bab35104a8865db
submitter=submitter = University of Tokyo Team (Faculty of Engineering, University of Tokyo)
MoNA Rating=3.75

>  <NUM PEAKS>  (5816) 
26

>  <MASS SPECTRAL PEAKS>  (5816) 
26 1.1
27 12.7
28 14.4
29 0.82
30 3.4
31 13.6
32 12.5
39 0.37
41 18.2
42 3.5
43 28.1
44 0.44
45 39.7
46 0.7
54 1.4
56 0.72
57 5.2
58 10.7
59 1.9
73 1.18
74 0.7
85 1.4
87 99.99
88 0.56
116 46.3
117 5.8

>  <PREDICTED SPECTRUM>  (5816) 
15 38
25 2
26 79
27 334
28 257
29 325
30 523
31 203
32 96
39 163
40 49
41 375
42 250
43 538
44 228
45 288
46 49
56 195
57 185
58 327
59 357
60 127
71 10
72 184
73 89
74 69
85 22
86 95
87 999
88 241
89 45
101 38
102 49
115 6
116 535
117 160

$$$$

     RDKit          2D

  6  5  0  0  0  0  0  0  0  0999 V2000
   -4.5466    3.3750    0.0000 C   0  0  0  0  0  0  0  0  0  0  0  0
    1.9486    2.6250    0.0000 C   0  0  0  0  0  0  0  0  0  0  0  0
   -3.2476    2.6250    0.0000 C   0  0  0  0  0  0  0  0  0  0  0  0
    0.6495    3.3750    0.0000 C   0  0  0  0  0  0  0  0  0  0  0  0
   -1.9486    3.3750    0.0000 N   0  0  0  0  0  0  0  0  0  0  0  0
   -0.6495    2.6250    0.0000 N   0  0  0  0  0  0  0  0  0  0  0  0
  3  1  1  0
  4  2  1  0
  5  3  1  0
  6  4  1  0
  6  5  1  0
M  END
>  <NAME>  (5817) 
1,2-DIETHYLHYDRAZINE

>  <SYNONYMS>  (5817) 


>  <SPECTRUM TYPE>  (5817) 
MS1

>  <INSTRUMENT TYPE>  (5817) 
EI-B

>  <INSTRUMENT>  (5817) 
SHIMADZU LKB-2091

>  <ION MODE>  (5817) 
P

>  <INCHIKEY>  (5817) 
YCBOYOYVDOUXLH-UHFFFAOYSA-N

>  <FORMULA>  (5817) 
C4H12N2

>  <EXACT MASS>  (5817) 
88.100048384

>  <MW>  (5817) 
88

>  <ID>  (5817) 
JP000398

>  <CONTRIBUTOR>  (5817) 
University of Tokyo Team, {Faculty of Engineering, University of Tokyo

>  <COMMENT>  (5817) 
SMILES=CCNNCC
InChI=InChI=1S/C4H12N2/c1-3-5-6-4-2/h5-6H,3-4H2,1-2H3
computed SMILES=N(NCC)CC
accession=JP000398
date=2016.01.19 (Created 2008.10.21, modified 2011.05.06)
author=SASAKI S, TOYOHASHI UNIV. OF TECH.
license=CC BY-NC-SA
exact mass=88.10005
ionization energy=70 eV
ion type=[M]+*
computed spectral entropy=2.259275099820527
computed normalized entropy=0.7018832731495739
SPLASH=splash10-0560-9000000000-578034c8cfa4cd4ff409
submitter=submitter = University of Tokyo Team (Faculty of Engineering, University of Tokyo)
MoNA Rating=3.75

>  <NUM PEAKS>  (5817) 
25

>  <MASS SPECTRAL PEAKS>  (5817) 
27 12.1
28 19
29 34.2
30 3.45
31 99.99
32 4.6
39 0.8
40 0.26
41 4.9
42 12.3
43 6.8
44 3.89
45 12.8
56 0.9
57 2.4
58 0.29
59 70.4
60 2.3
71 3.6
73 3.44
74 1.5
86 1.6
87 1.8
88 6.66
89 6.4

>  <PREDICTED SPECTRUM>  (5817) 
14 62
15 165
16 44
17 32
18 63
25 33
26 166
27 605
28 518
29 724
30 999
31 312
32 93
33 20
38 48
40 199
41 457
42 374
43 529
44 611
45 351
46 149
55 31
56 153
57 380
58 5
59 656
60 674
61 179
72 61
73 650
74 120
87 242
88 751
89 161

$$$$

     RDKit          2D

 10 10  0  0  0  0  0  0  0  0999 V2000
   -3.5724    2.0075    0.0000 C   0  0  0  0  0  0  0  0  0  0  0  0
   -2.2733    1.2575    0.0000 C   0  0  0  0  0  0  0  0  0  0  0  0
    2.9228   -0.2425    0.0000 C   0  0  0  0  0  0  0  0  0  0  0  0
    1.6233   -0.9933    0.0000 C   0  0  0  0  0  0  0  0  0  0  0  0
    2.9233    1.2583    0.0000 C   0  0  0  0  0  0  0  0  0  0  0  0
    0.3243   -0.2433    0.0000 C   0  0  0  0  0  0  0  0  0  0  0  0
    1.6243    2.0083    0.0000 C   0  0  0  0  0  0  0  0  0  0  0  0
    0.3248    1.2575    0.0000 C   0  0  0  0  0  0  0  0  0  0  0  0
   -0.9743    3.5075    0.0000 N   0  0  0  0  0  0  0  0  0  0  0  0
   -0.9743    2.0075    0.0000 N   0  0  0  0  0  0  0  0  0  0  0  0
  2  1  1  0
  4  3  2  0
  5  3  1  0
  6  4  1  0
  7  5  2  0
  8  6  2  0
  8  7  1  0
 10  2  1  0
 10  8  1  0
 10  9  1  0
M  END
>  <NAME>  (5818) 
1-ETHYL-1-PHENYLHYDRAZINE

>  <SYNONYMS>  (5818) 


>  <SPECTRUM TYPE>  (5818) 
MS1

>  <INSTRUMENT TYPE>  (5818) 
EI-B

>  <INSTRUMENT>  (5818) 
SHIMADZU LKB-2091

>  <ION MODE>  (5818) 
P

>  <INCHIKEY>  (5818) 
NQSIARGGPGHMCG-UHFFFAOYSA-N

>  <FORMULA>  (5818) 
C8H12N2

>  <EXACT MASS>  (5818) 
136.100048384

>  <MW>  (5818) 
136

>  <ID>  (5818) 
JP000397

>  <CONTRIBUTOR>  (5818) 
University of Tokyo Team, {Faculty of Engineering, University of Tokyo

>  <COMMENT>  (5818) 
SMILES=CCN(N)c(c1)cccc1
InChI=InChI=1S/C8H12N2/c1-2-10(9)8-6-4-3-5-7-8/h3-7H,2,9H2,1H3
computed SMILES=NN(C=1C=CC=CC1)CC
accession=JP000397
date=2016.01.19 (Created 2008.10.21, modified 2011.05.06)
author=SASAKI S, TOYOHASHI UNIV. OF TECH.
license=CC BY-NC-SA
exact mass=136.10005
ionization energy=70 eV
ion type=[M]+*
computed spectral entropy=2.70574667975203
computed normalized entropy=0.7239127467330089
SPLASH=splash10-05i9-5900000000-276421721459c08c7c0c
submitter=submitter = University of Tokyo Team (Faculty of Engineering, University of Tokyo)
MoNA Rating=3.75

>  <NUM PEAKS>  (5818) 
42

>  <MASS SPECTRAL PEAKS>  (5818) 
27 6.8
29 9.2
30 1.6
38 0.23
39 7.6
40 1.2
41 1.7
42 0.2
43 11.4
44 1.6
50 5.6
51 0.96
52 5.6
53 5.2
63 3.6
64 0.38
65 6.8
66 1.6
74 1.6
75 0.16
76 1.6
77 68
78 10.8
79 1.32
80 1.5
91 12.8
92 7.2
93 0.6
94 4.4
104 17.4
105 19.2
106 3.4
107 38
108 3.6
118 3.6
119 0.32
120 3.6
121 99.99
122 9.2
135 0.21
136 90
137 9.6

>  <PREDICTED SPECTRUM>  (5818) 
14 1
15 29
26 60
27 173
28 83
29 105
30 4
34 6
36 15
37 93
38 193
39 394
40 179
41 253
42 293
43 153
44 164
49 30
50 260
51 482
52 320
53 245
54 146
55 100
56 45
59 2
61 19
62 152
63 259
64 193
65 422
66 277
67 131
74 120
75 65
76 100
77 687
78 391
79 225
80 185
81 81
89 157
90 138
91 429
92 267
93 371
94 222
103 11
104 319
105 141
106 135
107 399
108 178
109 28
117 200
118 254
119 301
120 386
121 999
122 317
133 102
134 120
135 389
136 858
137 263
138 33

$$$$

     RDKit          2D

 10  9  0  0  0  0  0  0  0  0999 V2000
    2.5981    4.5000    0.0000 C   0  0  0  0  0  0  0  0  0  0  0  0
   -7.7942    4.5000    0.0000 C   0  0  0  0  0  0  0  0  0  0  0  0
    1.2990    5.2500    0.0000 C   0  0  0  0  0  0  0  0  0  0  0  0
   -6.4952    5.2500    0.0000 C   0  0  0  0  0  0  0  0  0  0  0  0
    0.0000    4.5000    0.0000 C   0  0  0  0  0  0  0  0  0  0  0  0
   -5.1962    4.5000    0.0000 C   0  0  0  0  0  0  0  0  0  0  0  0
   -1.2990    5.2500    0.0000 C   0  0  0  0  0  0  0  0  0  0  0  0
   -3.8971    5.2500    0.0000 C   0  0  0  0  0  0  0  0  0  0  0  0
   -2.5981    3.0000    0.0000 N   0  0  0  0  0  0  0  0  0  0  0  0
   -2.5981    4.5000    0.0000 N   0  0  0  0  0  0  0  0  0  0  0  0
  3  1  1  0
  4  2  1  0
  3  5  2  0
  4  6  2  0
  7  5  1  0
  8  6  1  0
 10  7  1  0
 10  8  1  0
 10  9  1  0
M  END
>  <NAME>  (5819) 
1,1-DICROTYLHYDRAZINE

>  <SYNONYMS>  (5819) 
1,1-DI(2-BUTENYL)HYDRAZINE

>  <SPECTRUM TYPE>  (5819) 
MS1

>  <INSTRUMENT TYPE>  (5819) 
EI-B

>  <INSTRUMENT>  (5819) 
SHIMADZU LKB-2091

>  <ION MODE>  (5819) 
P

>  <INCHIKEY>  (5819) 
HCVMGJBOKUBGRJ-GGWOSOGESA-N

>  <FORMULA>  (5819) 
C8H16N2

>  <EXACT MASS>  (5819) 
140.131348512

>  <MW>  (5819) 
140

>  <ID>  (5819) 
JP000395

>  <CONTRIBUTOR>  (5819) 
University of Tokyo Team, {Faculty of Engineering, University of Tokyo

>  <COMMENT>  (5819) 
SMILES=CC=CCN(N)CC=CC
InChI=InChI=1S/C8H16N2/c1-3-5-7-10(9)8-6-4-2/h3-6H,7-9H2,1-2H3/b5-3+,6-4+
computed SMILES=NN(CC=CC)CC=CC
accession=JP000395
date=2016.01.19 (Created 2008.10.21, modified 2011.05.06)
author=SASAKI S, TOYOHASHI UNIV. OF TECH.
license=CC BY-NC-SA
exact mass=140.13135
ionization energy=70 eV
ion type=[M]+*
computed spectral entropy=2.7253562152538526
computed normalized entropy=0.7338907570124338
SPLASH=splash10-0553-9000000000-23488172df96c7f9800e
submitter=submitter = University of Tokyo Team (Faculty of Engineering, University of Tokyo)
MoNA Rating=3.75

>  <NUM PEAKS>  (5819) 
41

>  <MASS SPECTRAL PEAKS>  (5819) 
28 15.7
29 54
30 8.8
31 0.62
32 4.2
38 1.1
39 23.2
40 0.24
41 62.1
42 19.4
43 33.8
44 3.25
45 16.8
50 1.1
51 2.4
52 0.15
53 9.5
54 4.3
55 81.1
56 1.49
57 3.4
58 8.8
59 0.8
67 0.32
68 43.2
69 10.2
70 2.3
71 0.25
80 0.8
81 0.8
82 1
83 0.34
84 2.3
85 99.99
86 10.5
97 0.08
99 1.9
108 0.8
125 2.3
140 4.6
141 6.5

>  <PREDICTED SPECTRUM>  (5819) 
14 5
15 9
17 0
18 2
25 8
26 86
27 358
28 276
29 451
30 332
31 116
32 29
37 38
38 87
39 355
40 166
41 511
42 296
43 300
44 444
45 157
49 36
50 71
51 135
52 123
53 304
54 274
55 775
56 393
57 282
58 54
59 17
62 55
63 46
67 222
68 433
69 110
70 250
71 89
77 50
80 121
81 148
82 142
83 196
84 221
85 999
86 406
87 29
97 51
98 74
108 43
111 26
123 57
124 1
125 108
140 591
141 183
142 29

$$$$

     RDKit          2D

  8  7  0  0  0  0  0  0  0  0999 V2000
    1.9486    3.3750    0.0000 C   0  0  0  0  0  0  0  0  0  0  0  0
   -5.8457    3.3750    0.0000 C   0  0  0  0  0  0  0  0  0  0  0  0
    0.6495    4.1250    0.0000 C   0  0  0  0  0  0  0  0  0  0  0  0
   -4.5466    4.1250    0.0000 C   0  0  0  0  0  0  0  0  0  0  0  0
   -0.6495    3.3750    0.0000 C   0  0  0  0  0  0  0  0  0  0  0  0
   -3.2476    3.3750    0.0000 C   0  0  0  0  0  0  0  0  0  0  0  0
   -1.9486    5.6250    0.0000 N   0  0  0  0  0  0  0  0  0  0  0  0
   -1.9486    4.1250    0.0000 N   0  0  0  0  0  0  0  0  0  0  0  0
  3  1  2  0
  4  2  2  0
  5  3  1  0
  6  4  1  0
  8  5  1  0
  8  6  1  0
  8  7  1  0
M  END
>  <NAME>  (5820) 
1,1-DIALLYLHYDRAZINE

>  <SYNONYMS>  (5820) 


>  <SPECTRUM TYPE>  (5820) 
MS1

>  <INSTRUMENT TYPE>  (5820) 
EI-B

>  <INSTRUMENT>  (5820) 
SHIMADZU LKB-2091

>  <ION MODE>  (5820) 
P

>  <INCHIKEY>  (5820) 
UPVLRUMEBXYJMQ-UHFFFAOYSA-N

>  <FORMULA>  (5820) 
C6H12N2

>  <EXACT MASS>  (5820) 
112.10004838399999

>  <MW>  (5820) 
112

>  <ID>  (5820) 
JP000394

>  <CONTRIBUTOR>  (5820) 
University of Tokyo Team, {Faculty of Engineering, University of Tokyo

>  <COMMENT>  (5820) 
SMILES=C=CCN(N)CC=C
InChI=InChI=1S/C6H12N2/c1-3-5-8(7)6-4-2/h3-4H,1-2,5-7H2
computed SMILES=C=CCN(N)CC=C
accession=JP000394
date=2016.01.19 (Created 2008.10.21, modified 2011.05.06)
author=SASAKI S, TOYOHASHI UNIV. OF TECH.
license=CC BY-NC-SA
exact mass=112.10005
ionization energy=70 eV
ion type=[M]+*
computed spectral entropy=2.3954557874642264
computed normalized entropy=0.7441901824722643
SPLASH=splash10-0006-9000000000-4e58b22b33b6d96b320e
submitter=submitter = University of Tokyo Team (Faculty of Engineering, University of Tokyo)
MoNA Rating=3.75

>  <NUM PEAKS>  (5820) 
25

>  <MASS SPECTRAL PEAKS>  (5820) 
27 31
29 16.4
30 7.6
31 1.28
38 2.5
39 29.3
40 3.6
41 99.99
42 10.7
43 16.7
44 21.5
45 0.7
54 6.7
55 4.1
56 7.4
57 0.19
67 1
68 1.8
69 2.3
70 0.16
71 47.9
72 6.9
85 5.4
112 1.98
113 1.8

>  <PREDICTED SPECTRUM>  (5820) 
14 21
15 62
16 20
17 20
18 30
26 90
27 278
28 246
29 377
30 226
31 56
32 32
33 27
37 27
38 94
39 601
40 252
41 999
42 539
43 309
44 94
45 12
46 64
53 101
54 235
55 92
56 286
57 159
66 23
67 169
68 234
69 131
70 43
71 956
72 260
80 66
81 63
83 3
85 194
97 60
111 1
112 521
113 180
114 68

$$$$

     RDKit          2D

  6  5  0  0  0  0  0  0  0  0999 V2000
   -4.2219    2.8125    0.0000 C   0  0  0  0  0  0  0  0  0  0  0  0
    0.9743    1.3125    0.0000 C   0  0  0  0  0  0  0  0  0  0  0  0
   -2.9228    2.0625    0.0000 C   0  0  0  0  0  0  0  0  0  0  0  0
   -1.6238    1.3125    0.0000 C   0  0  0  0  0  0  0  0  0  0  0  0
   -0.3248    3.5625    0.0000 N   0  0  0  0  0  0  0  0  0  0  0  0
   -0.3248    2.0625    0.0000 N   0  0  0  0  0  0  0  0  0  0  0  0
  3  1  3  0
  4  3  1  0
  6  2  1  0
  6  4  1  0
  6  5  1  0
M  END
>  <NAME>  (5821) 
1-METHYL-1-(2-PROPYNYL)HYDRAZINE

>  <SYNONYMS>  (5821) 


>  <SPECTRUM TYPE>  (5821) 
MS1

>  <INSTRUMENT TYPE>  (5821) 
EI-B

>  <INSTRUMENT>  (5821) 
SHIMADZU LKB-2091

>  <ION MODE>  (5821) 
P

>  <INCHIKEY>  (5821) 
PJDXKHMHDLLSDJ-UHFFFAOYSA-N

>  <FORMULA>  (5821) 
C4H8N2

>  <EXACT MASS>  (5821) 
84.06874825599999

>  <MW>  (5821) 
84

>  <ID>  (5821) 
JP000393

>  <CONTRIBUTOR>  (5821) 
University of Tokyo Team, {Faculty of Engineering, University of Tokyo

>  <COMMENT>  (5821) 
SMILES=C#CCN(C)N
InChI=InChI=1S/C4H8N2/c1-3-4-6(2)5/h1H,4-5H2,2H3
computed SMILES=C#CCN(N)C
accession=JP000393
date=2016.01.19 (Created 2008.10.21, modified 2011.05.06)
author=SASAKI S, TOYOHASHI UNIV. OF TECH.
license=CC BY-NC-SA
exact mass=84.06875
ionization energy=70 eV
ion type=[M]+*
computed spectral entropy=2.202569229817566
computed normalized entropy=0.641402864559536
SPLASH=splash10-0002-9000000000-e9093c0055659da5b208
submitter=submitter = University of Tokyo Team (Faculty of Engineering, University of Tokyo)
MoNA Rating=3.75

>  <NUM PEAKS>  (5821) 
31

>  <MASS SPECTRAL PEAKS>  (5821) 
26 1.5
27 4
28 15.4
29 0.74
30 3.5
31 0.9
37 3.9
38 0.69
39 22.7
40 3.5
41 5
42 0.95
43 11.8
44 6.7
45 99.99
46 0.31
51 0.9
52 1.8
53 1.3
54 0.4
55 2.5
56 1.5
57 0.5
59 0.14
66 3.7
67 1
68 0.9
69 0.04
83 6.5
84 34.5
85 3.1

>  <PREDICTED SPECTRUM>  (5821) 
14 47
15 140
16 24
18 2
25 30
26 110
27 253
28 335
29 147
30 213
37 27
38 164
39 558
40 567
41 675
42 999
43 397
44 157
45 244
53 23
54 327
55 41
56 184
57 346
58 292
66 153
67 126
68 198
69 305
83 673
84 802
85 185

$$$$

     RDKit          2D

  6  5  0  0  0  0  0  0  0  0999 V2000
    1.2990    2.2500    0.0000 C   0  0  0  0  0  0  0  0  0  0  0  0
   -3.8971    2.2500    0.0000 C   0  0  0  0  0  0  0  0  0  0  0  0
    0.0000    3.0000    0.0000 C   0  0  0  0  0  0  0  0  0  0  0  0
   -1.2990    2.2500    0.0000 C   0  0  0  0  0  0  0  0  0  0  0  0
   -2.5981    4.5000    0.0000 N   0  0  0  0  0  0  0  0  0  0  0  0
   -2.5981    3.0000    0.0000 N   0  0  0  0  0  0  0  0  0  0  0  0
  3  1  2  0
  4  3  1  0
  6  2  1  0
  6  4  1  0
  6  5  1  0
M  END
>  <NAME>  (5822) 
1-ALLYL-1-METHYLHYDRAZINE

>  <SYNONYMS>  (5822) 


>  <SPECTRUM TYPE>  (5822) 
MS1

>  <INSTRUMENT TYPE>  (5822) 
EI-B

>  <INSTRUMENT>  (5822) 
SHIMADZU LKB-2091

>  <ION MODE>  (5822) 
P

>  <INCHIKEY>  (5822) 
MTHGBQGOPUDWHI-UHFFFAOYSA-N

>  <FORMULA>  (5822) 
C4H10N2

>  <EXACT MASS>  (5822) 
86.08439831999999

>  <MW>  (5822) 
86

>  <ID>  (5822) 
JP000392

>  <CONTRIBUTOR>  (5822) 
University of Tokyo Team, {Faculty of Engineering, University of Tokyo

>  <COMMENT>  (5822) 
SMILES=C=CCN(C)N
InChI=InChI=1S/C4H10N2/c1-3-4-6(2)5/h3H,1,4-5H2,2H3
computed SMILES=C=CCN(N)C
accession=JP000392
date=2016.01.19 (Created 2008.10.21, modified 2011.05.06)
author=SASAKI S, TOYOHASHI UNIV. OF TECH.
license=CC BY-NC-SA
exact mass=86.0844
ionization energy=70 eV
ion type=[M]+*
computed spectral entropy=1.9293514510824685
computed normalized entropy=0.6809764097469204
SPLASH=splash10-0002-9000000000-3d45746edbaf83b2b60c
submitter=submitter = University of Tokyo Team (Faculty of Engineering, University of Tokyo)
MoNA Rating=3.75

>  <NUM PEAKS>  (5822) 
17

>  <MASS SPECTRAL PEAKS>  (5822) 
27 6.6
28 6
29 5.7
30 0.79
31 2.1
39 13.4
41 17.9
42 2.16
43 13.4
44 9.2
45 99.99
46 0.25
56 2.4
59 17.1
68 3.3
86 3.2
87 1.9

>  <PREDICTED SPECTRUM>  (5822) 
14 74
15 185
16 33
17 41
18 111
25 15
26 109
27 264
28 364
30 444
31 212
32 12
33 24
37 21
38 126
39 510
40 324
41 808
42 999
43 691
44 450
45 735
46 340
47 58
53 64
54 75
55 5
57 37
58 166
59 408
60 127
69 31
70 48
71 141
85 161
86 588
87 113

$$$$

     RDKit          2D

  8  8  0  0  0  0  0  0  0  0999 V2000
    0.7500   -1.5600    0.0000 C   0  0  0  0  0  0  0  0  0  0  0  0
   -0.7500   -1.5600    0.0000 C   0  0  0  0  0  0  0  0  0  0  0  0
    1.6900   -0.3900    0.0000 C   0  0  0  0  0  0  0  0  0  0  0  0
   -1.6900   -0.3900    0.0000 C   0  0  0  0  0  0  0  0  0  0  0  0
    1.3500    1.0800    0.0000 C   0  0  0  0  0  0  0  0  0  0  0  0
   -1.3500    1.0800    0.0000 C   0  0  0  0  0  0  0  0  0  0  0  0
    0.0000    3.2300    0.0000 N   0  0  0  0  0  0  0  0  0  0  0  0
    0.0000    1.7300    0.0000 N   0  0  0  0  0  0  0  0  0  0  0  0
  2  1  1  0
  3  1  1  0
  4  2  1  0
  5  3  1  0
  6  4  1  0
  8  5  1  0
  8  6  1  0
  8  7  1  0
M  END
>  <NAME>  (5823) 
1,1-HEXAMETHYLENEHYDRAZINE

>  <SYNONYMS>  (5823) 
1-AMINOPERHYDROAZEPINE

>  <SPECTRUM TYPE>  (5823) 
MS1

>  <INSTRUMENT TYPE>  (5823) 
EI-B

>  <INSTRUMENT>  (5823) 
SHIMADZU LKB-2091

>  <ION MODE>  (5823) 
P

>  <INCHIKEY>  (5823) 
UGBKOURNNQREPE-UHFFFAOYSA-N

>  <FORMULA>  (5823) 
C6H14N2

>  <EXACT MASS>  (5823) 
114.11569844799999

>  <MW>  (5823) 
114

>  <ID>  (5823) 
JP000391

>  <CONTRIBUTOR>  (5823) 
University of Tokyo Team, {Faculty of Engineering, University of Tokyo

>  <COMMENT>  (5823) 
SMILES=NN(C1)CCCCC1
InChI=InChI=1S/C6H14N2/c7-8-5-3-1-2-4-6-8/h1-7H2
computed SMILES=NN1CCCCCC1
accession=JP000391
date=2016.01.19 (Created 2008.10.21, modified 2011.05.06)
author=SASAKI S, TOYOHASHI UNIV. OF TECH.
license=CC BY-NC-SA
exact mass=114.1157
ionization energy=70 eV
ion type=[M]+*
computed spectral entropy=3.0003249247274977
computed normalized entropy=0.8133431742751733
SPLASH=splash10-01ow-9100000000-6a388ec9d5681b35dac6
submitter=submitter = University of Tokyo Team (Faculty of Engineering, University of Tokyo)
MoNA Rating=3.75

>  <NUM PEAKS>  (5823) 
40

>  <MASS SPECTRAL PEAKS>  (5823) 
27 16.1
29 10
30 12.2
31 0.29
39 13.9
40 2.8
41 38.9
42 5.61
43 22.8
44 55
45 30
46 0.54
53 2.5
54 2.7
55 11.1
56 0.71
57 8.9
58 28.9
59 22.8
60 0.22
67 2.2
68 4.4
69 10.6
70 0.38
71 18.9
72 28.3
73 6.4
82 0.16
84 1.4
85 50
86 10.6
87 0.11
96 2
97 1.4
98 99.99
99 6.44
100 0.9
113 23.3
114 72.1
115 11.1

>  <PREDICTED SPECTRUM>  (5823) 
16 0
17 3
18 19
26 24
27 82
28 120
29 219
30 522
31 87
32 21
36 16
38 82
39 290
40 212
41 716
42 761
43 576
44 616
45 207
46 76
50 37
51 94
52 173
53 247
54 310
55 679
56 713
57 566
58 372
59 146
60 12
64 18
66 96
67 235
68 362
69 541
70 612
71 380
72 154
73 134
78 9
80 104
81 50
82 373
83 376
84 994
85 566
86 244
95 25
96 384
97 367
98 474
99 368
100 91
112 4
113 165
114 999
115 332
116 32

$$$$

     RDKit          2D

  7  7  0  0  0  0  0  0  0  0999 V2000
   -0.0000   -3.0000    0.0000 C   0  0  0  0  0  0  0  0  0  0  0  0
    1.3000   -2.2500    0.0000 C   0  0  0  0  0  0  0  0  0  0  0  0
   -1.3000   -2.2500    0.0000 C   0  0  0  0  0  0  0  0  0  0  0  0
    1.3000   -0.7500    0.0000 C   0  0  0  0  0  0  0  0  0  0  0  0
   -1.3000   -0.7500    0.0000 C   0  0  0  0  0  0  0  0  0  0  0  0
    0.0000    1.5000    0.0000 N   0  0  0  0  0  0  0  0  0  0  0  0
    0.0000    0.0000    0.0000 N   0  0  0  0  0  0  0  0  0  0  0  0
  2  1  1  0
  3  1  1  0
  4  2  1  0
  5  3  1  0
  7  4  1  0
  7  5  1  0
  7  6  1  0
M  END
>  <NAME>  (5824) 
1,1-PENTAMETHYLENEHYDRAZINE

>  <SYNONYMS>  (5824) 
1-AMINOPIPERIDINE

>  <SPECTRUM TYPE>  (5824) 
MS1

>  <INSTRUMENT TYPE>  (5824) 
EI-B

>  <INSTRUMENT>  (5824) 
SHIMADZU LKB-2091

>  <ION MODE>  (5824) 
P

>  <INCHIKEY>  (5824) 
LWMPFIOTEAXAGV-UHFFFAOYSA-N

>  <FORMULA>  (5824) 
C5H12N2

>  <EXACT MASS>  (5824) 
100.10004838399999

>  <MW>  (5824) 
100

>  <ID>  (5824) 
JP000390

>  <CONTRIBUTOR>  (5824) 
University of Tokyo Team, {Faculty of Engineering, University of Tokyo

>  <COMMENT>  (5824) 
SMILES=NN(C1)CCCC1
InChI=InChI=1S/C5H12N2/c6-7-4-2-1-3-5-7/h1-6H2
computed SMILES=NN1CCCCC1
accession=JP000390
date=2016.01.19 (Created 2008.10.21, modified 2011.05.06)
author=SASAKI S, TOYOHASHI UNIV. OF TECH.
license=CC BY-NC-SA
exact mass=100.10005
ionization energy=70 eV
ion type=[M]+*
computed spectral entropy=2.599419988918894
computed normalized entropy=0.7371396006657137
SPLASH=splash10-0f6t-9200000000-07c6b5ad8f3f65e73542
submitter=submitter = University of Tokyo Team (Faculty of Engineering, University of Tokyo)
MoNA Rating=3.75

>  <NUM PEAKS>  (5824) 
34

>  <MASS SPECTRAL PEAKS>  (5824) 
26 2.1
27 13.8
28 4.6
29 1
30 7.9
31 2.5
39 9.5
40 0.18
41 15.9
42 19.2
43 15.9
44 6.93
45 13.3
53 2.1
54 4.1
55 2.21
56 6.9
57 8.5
58 11
59 1.23
67 1.2
68 1
69 1.2
70 0.16
71 4.4
72 2.3
82 3.9
83 0.17
84 7.7
85 4.1
98 1.4
99 99.99
100 72
101 5.9

>  <PREDICTED SPECTRUM>  (5824) 
15 21
16 15
17 12
18 22
26 20
27 59
28 152
29 184
30 485
31 42
32 25
36 12
37 1
38 84
39 247
40 191
41 656
42 788
43 585
44 582
45 185
46 34
50 39
51 101
52 182
53 231
54 318
55 607
56 679
57 520
58 273
59 102
66 82
67 109
68 303
69 479
70 629
71 554
72 227
73 42
80 18
81 73
82 345
83 411
84 999
85 358
86 90
96 173
97 57
98 69
99 216
100 987
101 256
102 3

$$$$

     RDKit          2D

 10  9  0  0  0  0  0  0  0  0999 V2000
    2.2733    2.8125    0.0000 C   0  0  0  0  0  0  0  0  0  0  0  0
    0.9743    5.0625    0.0000 C   0  0  0  0  0  0  0  0  0  0  0  0
   -5.5209    2.8125    0.0000 C   0  0  0  0  0  0  0  0  0  0  0  0
   -4.2219    5.0625    0.0000 C   0  0  0  0  0  0  0  0  0  0  0  0
   -0.3248    2.8125    0.0000 C   0  0  0  0  0  0  0  0  0  0  0  0
   -2.9228    2.8125    0.0000 C   0  0  0  0  0  0  0  0  0  0  0  0
    0.9743    3.5625    0.0000 C   0  0  0  0  0  0  0  0  0  0  0  0
   -4.2219    3.5625    0.0000 C   0  0  0  0  0  0  0  0  0  0  0  0
   -1.6238    5.0625    0.0000 N   0  0  0  0  0  0  0  0  0  0  0  0
   -1.6238    3.5625    0.0000 N   0  0  0  0  0  0  0  0  0  0  0  0
  7  1  1  0
  7  2  1  0
  7  5  1  0
  8  3  1  0
  8  4  1  0
  8  6  1  0
 10  5  1  0
 10  6  1  0
 10  9  1  0
M  END
>  <NAME>  (5825) 
1,1-DIISOBUTYLHYDRAZINE

>  <SYNONYMS>  (5825) 


>  <SPECTRUM TYPE>  (5825) 
MS1

>  <INSTRUMENT TYPE>  (5825) 
EI-B

>  <INSTRUMENT>  (5825) 
SHIMADZU LKB-2091

>  <ION MODE>  (5825) 
P

>  <INCHIKEY>  (5825) 
JDAGVHRXQORNKW-UHFFFAOYSA-N

>  <FORMULA>  (5825) 
C8H20N2

>  <EXACT MASS>  (5825) 
144.16264864

>  <MW>  (5825) 
144

>  <ID>  (5825) 
JP000389

>  <CONTRIBUTOR>  (5825) 
University of Tokyo Team, {Faculty of Engineering, University of Tokyo

>  <COMMENT>  (5825) 
SMILES=CC(C)CN(N)CC(C)C
InChI=InChI=1S/C8H20N2/c1-7(2)5-10(9)6-8(3)4/h7-8H,5-6,9H2,1-4H3
computed SMILES=NN(CC(C)C)CC(C)C
accession=JP000389
date=2016.01.19 (Created 2008.10.21, modified 2011.05.06)
author=SASAKI S, TOYOHASHI UNIV. OF TECH.
license=CC BY-NC-SA
exact mass=144.16265
ionization energy=70 eV
ion type=[M]+*
computed spectral entropy=2.0805137799843383
computed normalized entropy=0.6243655734908501
SPLASH=splash10-0udj-9500000000-a2b066bc800280700499
submitter=submitter = University of Tokyo Team (Faculty of Engineering, University of Tokyo)
MoNA Rating=3.75

>  <NUM PEAKS>  (5825) 
28

>  <MASS SPECTRAL PEAKS>  (5825) 
27 6.2
28 1.9
29 15.4
30 0.29
31 1.8
39 4.9
41 17.9
42 0.58
43 5.8
44 4.4
45 98.6
46 0.23
55 2.9
56 1.9
57 37.1
58 0.32
59 1.5
69 1
73 1.3
84 0.18
85 1.2
86 1.2
87 1.3
101 99.99
102 7.2
129 0.7
144 14.1
145 2

>  <PREDICTED SPECTRUM>  (5825) 
15 7
18 0
26 35
27 227
28 190
29 294
30 366
31 89
33 25
34 6
37 4
38 48
39 298
40 137
41 641
42 508
43 520
44 400
45 185
46 89
47 31
51 4
52 61
53 160
54 161
55 249
56 337
57 565
58 193
59 165
60 62
61 33
67 17
68 59
69 130
70 252
71 189
72 146
74 134
84 195
85 50
86 197
87 118
88 112
89 23
99 72
100 62
101 999
102 257
113 61
115 24
127 61
129 95
144 384
145 90

$$$$

     RDKit          2D

 10  9  0  0  0  0  0  0  0  0999 V2000
    2.5981    4.5000    0.0000 C   0  0  0  0  0  0  0  0  0  0  0  0
   -7.7942    4.5000    0.0000 C   0  0  0  0  0  0  0  0  0  0  0  0
    1.2990    5.2500    0.0000 C   0  0  0  0  0  0  0  0  0  0  0  0
   -6.4952    5.2500    0.0000 C   0  0  0  0  0  0  0  0  0  0  0  0
    0.0000    4.5000    0.0000 C   0  0  0  0  0  0  0  0  0  0  0  0
   -5.1962    4.5000    0.0000 C   0  0  0  0  0  0  0  0  0  0  0  0
   -1.2990    5.2500    0.0000 C   0  0  0  0  0  0  0  0  0  0  0  0
   -3.8971    5.2500    0.0000 C   0  0  0  0  0  0  0  0  0  0  0  0
   -2.5981    3.0000    0.0000 N   0  0  0  0  0  0  0  0  0  0  0  0
   -2.5981    4.5000    0.0000 N   0  0  0  0  0  0  0  0  0  0  0  0
  3  1  1  0
  4  2  1  0
  5  3  1  0
  6  4  1  0
  7  5  1  0
  8  6  1  0
 10  7  1  0
 10  8  1  0
 10  9  1  0
M  END
>  <NAME>  (5826) 
1,1-DIBUTYLHYDRAZINE

>  <SYNONYMS>  (5826) 


>  <SPECTRUM TYPE>  (5826) 
MS1

>  <INSTRUMENT TYPE>  (5826) 
EI-B

>  <INSTRUMENT>  (5826) 
SHIMADZU LKB-2091

>  <ION MODE>  (5826) 
P

>  <INCHIKEY>  (5826) 
DJTIANXYHUNHQV-UHFFFAOYSA-N

>  <FORMULA>  (5826) 
C8H20N2

>  <EXACT MASS>  (5826) 
144.16264864

>  <MW>  (5826) 
144

>  <ID>  (5826) 
JP000388

>  <CONTRIBUTOR>  (5826) 
University of Tokyo Team, {Faculty of Engineering, University of Tokyo

>  <COMMENT>  (5826) 
SMILES=CCCCN(N)CCCC
InChI=InChI=1S/C8H20N2/c1-3-5-7-10(9)8-6-4-2/h3-9H2,1-2H3
computed SMILES=NN(CCCC)CCCC
accession=JP000388
date=2016.01.19 (Created 2008.10.21, modified 2011.05.06)
author=SASAKI S, TOYOHASHI UNIV. OF TECH.
license=CC BY-NC-SA
exact mass=144.16265
ionization energy=70 eV
ion type=[M]+*
computed spectral entropy=2.0815620567005766
computed normalized entropy=0.6466736121409119
SPLASH=splash10-0udi-9700000000-2849b92f6877a0a2a5c2
submitter=submitter = University of Tokyo Team (Faculty of Engineering, University of Tokyo)
MoNA Rating=3.75

>  <NUM PEAKS>  (5826) 
25

>  <MASS SPECTRAL PEAKS>  (5826) 
27 5.5
28 3
29 14.3
30 0.35
31 1.2
39 2.6
41 12.1
42 0.37
43 4.8
44 4.5
45 51.3
46 0.29
55 2
56 1.2
57 14.1
58 0.18
59 15.2
70 1.2
84 1.6
86 0.12
87 1
101 99.99
102 10.1
144 1.77
145 2.9

>  <PREDICTED SPECTRUM>  (5826) 
26 4
27 264
28 173
29 323
30 376
31 106
39 266
40 87
41 631
42 277
43 305
44 109
45 719
46 157
53 89
54 73
55 240
56 134
57 586
58 173
59 536
60 76
68 8
69 34
70 47
71 85
72 70
84 51
85 24
87 117
88 84
89 14
99 51
100 49
101 999
102 221
129 72
144 484
145 165

$$$$

     RDKit          2D

  8  7  0  0  0  0  0  0  0  0999 V2000
   -2.2733    0.5625    0.0000 C   0  0  0  0  0  0  0  0  0  0  0  0
    0.3248    0.5625    0.0000 C   0  0  0  0  0  0  0  0  0  0  0  0
    0.3248    5.0625    0.0000 C   0  0  0  0  0  0  0  0  0  0  0  0
    1.6238    2.8125    0.0000 C   0  0  0  0  0  0  0  0  0  0  0  0
   -0.9743    1.3125    0.0000 C   0  0  0  0  0  0  0  0  0  0  0  0
    0.3248    3.5625    0.0000 C   0  0  0  0  0  0  0  0  0  0  0  0
   -2.2733    3.5625    0.0000 N   0  0  0  0  0  0  0  0  0  0  0  0
   -0.9743    2.8125    0.0000 N   0  0  0  0  0  0  0  0  0  0  0  0
  5  1  1  0
  5  2  1  0
  6  3  1  0
  6  4  1  0
  8  5  1  0
  8  6  1  0
  8  7  1  0
M  END
>  <NAME>  (5827) 
1,1-DIISOPROPYLHYDRAZINE

>  <SYNONYMS>  (5827) 


>  <SPECTRUM TYPE>  (5827) 
MS1

>  <INSTRUMENT TYPE>  (5827) 
EI-B

>  <INSTRUMENT>  (5827) 
SHIMADZU LKB-2091

>  <ION MODE>  (5827) 
P

>  <INCHIKEY>  (5827) 
CDLZUDXUPFCTRJ-UHFFFAOYSA-N

>  <FORMULA>  (5827) 
C6H16N2

>  <EXACT MASS>  (5827) 
116.13134851199999

>  <MW>  (5827) 
116

>  <ID>  (5827) 
JP000387

>  <CONTRIBUTOR>  (5827) 
University of Tokyo Team, {Faculty of Engineering, University of Tokyo

>  <COMMENT>  (5827) 
SMILES=CC(C)N(N)C(C)C
InChI=InChI=1S/C6H16N2/c1-5(2)8(7)6(3)4/h5-6H,7H2,1-4H3
computed SMILES=NN(C(C)C)C(C)C
accession=JP000387
date=2016.01.19 (Created 2008.10.21, modified 2011.05.06)
author=SASAKI S, TOYOHASHI UNIV. OF TECH.
license=CC BY-NC-SA
exact mass=116.13135
ionization energy=70 eV
ion type=[M]+*
computed spectral entropy=2.2510159116425252
computed normalized entropy=0.6993174120765268
SPLASH=splash10-0a4i-9100000000-af738f4e25e13095065e
submitter=submitter = University of Tokyo Team (Faculty of Engineering, University of Tokyo)
MoNA Rating=3.75

>  <NUM PEAKS>  (5827) 
25

>  <MASS SPECTRAL PEAKS>  (5827) 
27 14.4
28 8.7
29 5.2
30 0.64
31 3.9
39 7.8
40 1.7
41 1.65
42 26.1
43 21.1
44 7.3
54 0.1
55 1.4
56 19.3
57 3.6
58 0.49
59 99.99
60 3.6
70 0.9
73 0.43
84 1.4
101 38.9
102 2.7
116 1.9
117 2.2

>  <PREDICTED SPECTRUM>  (5827) 
14 7
15 74
17 10
18 22
27 131
28 177
29 110
30 261
31 137
32 9
33 6
39 212
40 124
41 446
42 527
43 506
44 285
45 73
46 6
53 30
54 128
55 51
56 380
57 116
58 189
59 999
60 226
70 252
71 65
72 69
73 157
84 91
85 20
100 34
101 510
102 137
115 2
116 443
117 110

$$$$

     RDKit          2D

  8  7  0  0  0  0  0  0  0  0999 V2000
    1.9486    3.3750    0.0000 C   0  0  0  0  0  0  0  0  0  0  0  0
   -5.8457    3.3750    0.0000 C   0  0  0  0  0  0  0  0  0  0  0  0
    0.6495    4.1250    0.0000 C   0  0  0  0  0  0  0  0  0  0  0  0
   -4.5466    4.1250    0.0000 C   0  0  0  0  0  0  0  0  0  0  0  0
   -0.6495    3.3750    0.0000 C   0  0  0  0  0  0  0  0  0  0  0  0
   -3.2476    3.3750    0.0000 C   0  0  0  0  0  0  0  0  0  0  0  0
   -1.9486    5.6250    0.0000 N   0  0  0  0  0  0  0  0  0  0  0  0
   -1.9486    4.1250    0.0000 N   0  0  0  0  0  0  0  0  0  0  0  0
  3  1  1  0
  4  2  1  0
  5  3  1  0
  6  4  1  0
  8  5  1  0
  8  6  1  0
  8  7  1  0
M  END
>  <NAME>  (5828) 
1,1-DIPROPYLHYDRAZINE

>  <SYNONYMS>  (5828) 


>  <SPECTRUM TYPE>  (5828) 
MS1

>  <INSTRUMENT TYPE>  (5828) 
EI-B

>  <INSTRUMENT>  (5828) 
SHIMADZU LKB-2091

>  <ION MODE>  (5828) 
P

>  <INCHIKEY>  (5828) 
ZHHHDUSWMATTFE-UHFFFAOYSA-N

>  <FORMULA>  (5828) 
C6H16N2

>  <EXACT MASS>  (5828) 
116.13134851199999

>  <MW>  (5828) 
116

>  <ID>  (5828) 
JP000386

>  <CONTRIBUTOR>  (5828) 
University of Tokyo Team, {Faculty of Engineering, University of Tokyo

>  <COMMENT>  (5828) 
SMILES=CCCN(N)CCC
InChI=InChI=1S/C6H16N2/c1-3-5-8(7)6-4-2/h3-7H2,1-2H3
computed SMILES=NN(CCC)CCC
accession=JP000386
date=2016.01.19 (Created 2008.10.21, modified 2011.05.06)
author=SASAKI S, TOYOHASHI UNIV. OF TECH.
license=CC BY-NC-SA
exact mass=116.13135
ionization energy=70 eV
ion type=[M]+*
computed spectral entropy=1.9356633982245282
computed normalized entropy=0.6262170214199075
SPLASH=splash10-000j-9000000000-5c1d853bd8691a1b6756
submitter=submitter = University of Tokyo Team (Faculty of Engineering, University of Tokyo)
MoNA Rating=3.75

>  <NUM PEAKS>  (5828) 
22

>  <MASS SPECTRAL PEAKS>  (5828) 
27 9.9
28 5.4
29 2.9
30 0.44
31 2.3
39 3.8
41 11.5
42 0.4
43 22.5
44 4.2
45 78.4
46 0.17
56 3.2
58 3
59 2.4
70 0.19
72 0.9
73 1.3
87 99.99
88 0.56
116 22.1
117 2.6

>  <PREDICTED SPECTRUM>  (5828) 
14 23
15 120
18 36
25 3
26 99
27 379
28 294
29 299
30 746
31 108
38 75
39 367
40 227
41 657
42 710
43 689
44 473
45 445
46 96
52 11
53 16
54 230
56 276
57 142
58 131
59 145
60 28
68 125
69 79
70 292
71 115
72 597
73 55
84 10
85 87
86 126
87 999
88 235
89 21
99 23
101 51
115 52
116 425
117 140

$$$$

     RDKit          2D

  8  7  0  0  0  0  0  0  0  0999 V2000
    1.9486    2.6250    0.0000 C   0  0  0  0  0  0  0  0  0  0  0  0
   -4.5466    3.3750    0.0000 C   0  0  0  0  0  0  0  0  0  0  0  0
   -0.6495    1.1250    0.0000 C   0  0  0  0  0  0  0  0  0  0  0  0
    0.6495    3.3750    0.0000 C   0  0  0  0  0  0  0  0  0  0  0  0
   -3.2476    2.6250    0.0000 C   0  0  0  0  0  0  0  0  0  0  0  0
   -0.6495    2.6250    0.0000 C   0  0  0  0  0  0  0  0  0  0  0  0
   -1.9486    4.8750    0.0000 N   0  0  0  0  0  0  0  0  0  0  0  0
   -1.9486    3.3750    0.0000 N   0  0  0  0  0  0  0  0  0  0  0  0
  4  1  1  0
  5  2  1  0
  6  3  1  0
  6  4  1  0
  8  5  1  0
  8  6  1  0
  8  7  1  0
M  END
>  <NAME>  (5829) 
1-SEC-BUTYL-1-ETHYLHYDRAZINE

>  <SYNONYMS>  (5829) 


>  <SPECTRUM TYPE>  (5829) 
MS1

>  <INSTRUMENT TYPE>  (5829) 
EI-B

>  <INSTRUMENT>  (5829) 
SHIMADZU LKB-2091

>  <ION MODE>  (5829) 
P

>  <INCHIKEY>  (5829) 
JETSNSHFMGMDDQ-UHFFFAOYSA-N

>  <FORMULA>  (5829) 
C6H16N2

>  <EXACT MASS>  (5829) 
116.131348512

>  <MW>  (5829) 
116

>  <ID>  (5829) 
JP000385

>  <CONTRIBUTOR>  (5829) 
University of Tokyo Team, {Faculty of Engineering, University of Tokyo

>  <COMMENT>  (5829) 
SMILES=CCC(C)N(N)CC
InChI=InChI=1S/C6H16N2/c1-4-6(3)8(7)5-2/h6H,4-5,7H2,1-3H3
computed SMILES=NN(CC)C(C)CC
accession=JP000385
date=2016.01.19 (Created 2008.10.21, modified 2011.05.06)
author=SASAKI S, TOYOHASHI UNIV. OF TECH.
license=CC BY-NC-SA
exact mass=116.13135
ionization energy=70 eV
ion type=[M]+*
computed spectral entropy=2.533769662418686
computed normalized entropy=0.7449640165195117
SPLASH=splash10-000i-9100000000-51a54457e66ab01dda85
submitter=submitter = University of Tokyo Team (Faculty of Engineering, University of Tokyo)
MoNA Rating=3.75

>  <NUM PEAKS>  (5829) 
30

>  <MASS SPECTRAL PEAKS>  (5829) 
27 9.3
28 4.4
29 18.5
30 0.71
31 3.7
39 3.5
41 11.7
42 2.39
43 12.2
44 11.4
45 28.3
54 0.09
55 2
56 7.8
57 7
58 0.46
59 17.4
60 2.4
70 7.8
71 0.12
72 1.6
73 1.2
84 2
85 0.18
87 99.99
88 5.7
101 12.2
102 0.07
116 25
117 2.4

>  <PREDICTED SPECTRUM>  (5829) 
14 3
15 90
18 13
26 62
27 286
28 215
29 463
30 316
31 318
38 34
39 342
40 136
41 446
42 557
43 202
44 668
45 295
46 4
51 7
52 54
53 76
54 179
55 80
56 417
57 506
58 231
59 460
60 184
66 21
67 7
68 87
70 205
71 192
72 375
73 51
85 72
87 999
88 229
101 366
102 59
115 76
116 463
117 141

$$$$

     RDKit          2D

  8  7  0  0  0  0  0  0  0  0999 V2000
    1.6238    3.1875    0.0000 C   0  0  0  0  0  0  0  0  0  0  0  0
   -4.8714    3.9375    0.0000 C   0  0  0  0  0  0  0  0  0  0  0  0
   -3.5724    1.6875    0.0000 C   0  0  0  0  0  0  0  0  0  0  0  0
    0.3248    3.9375    0.0000 C   0  0  0  0  0  0  0  0  0  0  0  0
   -2.2733    3.9375    0.0000 C   0  0  0  0  0  0  0  0  0  0  0  0
   -3.5724    3.1875    0.0000 C   0  0  0  0  0  0  0  0  0  0  0  0
   -0.9743    1.6875    0.0000 N   0  0  0  0  0  0  0  0  0  0  0  0
   -0.9743    3.1875    0.0000 N   0  0  0  0  0  0  0  0  0  0  0  0
  4  1  1  0
  6  2  1  0
  6  3  1  0
  6  5  1  0
  8  4  1  0
  8  5  1  0
  8  7  1  0
M  END
>  <NAME>  (5830) 
1-ETHYL-1-ISOBUTYLHYDRAZINE

>  <SYNONYMS>  (5830) 


>  <SPECTRUM TYPE>  (5830) 
MS1

>  <INSTRUMENT TYPE>  (5830) 
EI-B

>  <INSTRUMENT>  (5830) 
SHIMADZU LKB-2091

>  <ION MODE>  (5830) 
P

>  <INCHIKEY>  (5830) 
SRPRMXWUMUHGED-UHFFFAOYSA-N

>  <FORMULA>  (5830) 
C6H16N2

>  <EXACT MASS>  (5830) 
116.13134851199999

>  <MW>  (5830) 
116

>  <ID>  (5830) 
JP000384

>  <CONTRIBUTOR>  (5830) 
University of Tokyo Team, {Faculty of Engineering, University of Tokyo

>  <COMMENT>  (5830) 
SMILES=CCN(N)CC(C)C
InChI=InChI=1S/C6H16N2/c1-4-8(7)5-6(2)3/h6H,4-5,7H2,1-3H3
computed SMILES=NN(CC)CC(C)C
accession=JP000384
date=2016.01.19 (Created 2008.10.21, modified 2011.05.06)
author=SASAKI S, TOYOHASHI UNIV. OF TECH.
license=CC BY-NC-SA
exact mass=116.13135
ionization energy=70 eV
ion type=[M]+*
computed spectral entropy=2.0519749546508046
computed normalized entropy=0.6158010255327677
SPLASH=splash10-00di-9000000000-2ea4e18c1aa746b894fa
submitter=submitter = University of Tokyo Team (Faculty of Engineering, University of Tokyo)
MoNA Rating=3.75

>  <NUM PEAKS>  (5830) 
28

>  <MASS SPECTRAL PEAKS>  (5830) 
27 5.1
28 6.7
29 8.3
30 0.92
31 2.6
39 2.8
41 6.1
42 0.43
43 4.3
44 8.3
45 26.6
46 0.07
54 0.5
55 1
56 6.4
57 0.38
58 2
59 3
70 0.3
71 0.04
72 0.4
73 99.99
74 4.8
84 0.05
101 1.4
115 0.4
116 14.2
117 1.8

>  <PREDICTED SPECTRUM>  (5830) 
15 70
18 15
26 20
27 227
28 195
29 340
30 427
31 141
32 28
38 51
39 250
40 119
41 464
42 497
43 381
44 562
45 198
46 59
51 1
52 47
53 98
54 147
55 192
56 384
57 442
58 182
59 127
60 81
70 184
71 241
72 81
73 999
74 267
84 14
85 126
86 33
87 137
99 18
101 351
102 49
115 69
116 405
117 109

$$$$

     RDKit          2D

  8  7  0  0  0  0  0  0  0  0999 V2000
    1.9486    3.3750    0.0000 C   0  0  0  0  0  0  0  0  0  0  0  0
   -5.8457    3.3750    0.0000 C   0  0  0  0  0  0  0  0  0  0  0  0
    0.6495    4.1250    0.0000 C   0  0  0  0  0  0  0  0  0  0  0  0
   -4.5466    4.1250    0.0000 C   0  0  0  0  0  0  0  0  0  0  0  0
   -0.6495    3.3750    0.0000 C   0  0  0  0  0  0  0  0  0  0  0  0
   -1.9486    4.1250    0.0000 C   0  0  0  0  0  0  0  0  0  0  0  0
   -3.2476    1.8750    0.0000 N   0  0  0  0  0  0  0  0  0  0  0  0
   -3.2476    3.3750    0.0000 N   0  0  0  0  0  0  0  0  0  0  0  0
  3  1  1  0
  4  2  1  0
  5  3  1  0
  6  5  1  0
  8  4  1  0
  8  6  1  0
  8  7  1  0
M  END
>  <NAME>  (5831) 
1-BUTYL-1-ETHYLHYDRAZINE

>  <SYNONYMS>  (5831) 


>  <SPECTRUM TYPE>  (5831) 
MS1

>  <INSTRUMENT TYPE>  (5831) 
EI-B

>  <INSTRUMENT>  (5831) 
SHIMADZU LKB-2091

>  <ION MODE>  (5831) 
P

>  <INCHIKEY>  (5831) 
GGVXCUYZOPPOAM-UHFFFAOYSA-N

>  <FORMULA>  (5831) 
C6H16N2

>  <EXACT MASS>  (5831) 
116.131348512

>  <MW>  (5831) 
116

>  <ID>  (5831) 
JP000383

>  <CONTRIBUTOR>  (5831) 
University of Tokyo Team, {Faculty of Engineering, University of Tokyo

>  <COMMENT>  (5831) 
SMILES=CCCCN(N)CC
InChI=InChI=1S/C6H16N2/c1-3-5-6-8(7)4-2/h3-7H2,1-2H3
computed SMILES=NN(CC)CCCC
accession=JP000383
date=2016.01.19 (Created 2008.10.21, modified 2011.05.06)
author=SASAKI S, TOYOHASHI UNIV. OF TECH.
license=CC BY-NC-SA
exact mass=116.13135
ionization energy=70 eV
ion type=[M]+*
computed spectral entropy=1.9136418420479637
computed normalized entropy=0.6021426773121872
SPLASH=splash10-00di-9100000000-2f63212c99e2303bf119
submitter=submitter = University of Tokyo Team (Faculty of Engineering, University of Tokyo)
MoNA Rating=3.75

>  <NUM PEAKS>  (5831) 
24

>  <MASS SPECTRAL PEAKS>  (5831) 
27 4.7
28 3.3
29 8.4
30 0.44
31 2.2
39 1.6
41 4.5
42 0.39
43 2.9
44 6
45 22.6
46 0.05
55 0.7
56 3.5
57 2.5
58 0.22
59 3.3
71 0.7
73 99.99
74 0.33
101 3.5
115 4.8
116 13.3
117 1.2

>  <PREDICTED SPECTRUM>  (5831) 
15 42
26 38
27 274
28 159
29 349
30 348
31 161
32 26
39 209
40 69
41 449
42 430
43 254
44 693
45 332
46 107
54 66
55 61
56 203
57 449
58 224
59 350
60 210
61 126
70 98
71 181
72 31
73 999
74 333
87 509
88 120
99 96
100 39
101 301
102 36
115 178
116 579
117 181

$$$$

     RDKit          2D

  7  6  0  0  0  0  0  0  0  0999 V2000
    1.6238    1.6875    0.0000 C   0  0  0  0  0  0  0  0  0  0  0  0
    0.3248    3.9375    0.0000 C   0  0  0  0  0  0  0  0  0  0  0  0
   -3.5724    1.6875    0.0000 C   0  0  0  0  0  0  0  0  0  0  0  0
   -0.9743    1.6875    0.0000 C   0  0  0  0  0  0  0  0  0  0  0  0
    0.3248    2.4375    0.0000 C   0  0  0  0  0  0  0  0  0  0  0  0
   -2.2733    3.9375    0.0000 N   0  0  0  0  0  0  0  0  0  0  0  0
   -2.2733    2.4375    0.0000 N   0  0  0  0  0  0  0  0  0  0  0  0
  5  1  1  0
  5  2  1  0
  5  4  1  0
  7  3  1  0
  7  4  1  0
  7  6  1  0
M  END
>  <NAME>  (5832) 
1-ISOBUTYL-1-METHYLHYDRAZINE

>  <SYNONYMS>  (5832) 


>  <SPECTRUM TYPE>  (5832) 
MS1

>  <INSTRUMENT TYPE>  (5832) 
EI-B

>  <INSTRUMENT>  (5832) 
SHIMADZU LKB-2091

>  <ION MODE>  (5832) 
P

>  <INCHIKEY>  (5832) 
DVWYNPADZDHBSJ-UHFFFAOYSA-N

>  <FORMULA>  (5832) 
C5H14N2

>  <EXACT MASS>  (5832) 
102.11569844799999

>  <MW>  (5832) 
102

>  <ID>  (5832) 
JP000382

>  <CONTRIBUTOR>  (5832) 
University of Tokyo Team, {Faculty of Engineering, University of Tokyo

>  <COMMENT>  (5832) 
SMILES=CC(C)CN(C)N
InChI=InChI=1S/C5H14N2/c1-5(2)4-7(3)6/h5H,4,6H2,1-3H3
computed SMILES=NN(C)CC(C)C
accession=JP000382
date=2016.01.19 (Created 2008.10.21, modified 2011.05.06)
author=SASAKI S, TOYOHASHI UNIV. OF TECH.
license=CC BY-NC-SA
exact mass=102.1157
ionization energy=70 eV
ion type=[M]+*
computed spectral entropy=1.7689833395740528
computed normalized entropy=0.6007879097140758
SPLASH=splash10-0a4i-9000000000-ce974833b821c3561684
submitter=submitter = University of Tokyo Team (Faculty of Engineering, University of Tokyo)
MoNA Rating=3.75

>  <NUM PEAKS>  (5832) 
19

>  <MASS SPECTRAL PEAKS>  (5832) 
27 4.1
29 6.2
30 9.8
31 0.44
39 3.7
40 2.5
41 5.8
42 2.01
43 6.1
44 5.5
45 7.3
46 0.16
57 2.2
59 99.99
60 2.9
70 0.11
71 2.5
102 11.4
103 0.7

>  <PREDICTED SPECTRUM>  (5832) 
15 51
17 13
18 33
27 117
28 139
29 122
30 153
31 25
39 127
40 125
41 379
42 512
43 401
44 999
45 279
46 93
53 22
54 78
55 157
56 254
57 306
58 32
59 690
60 177
70 56
71 41
87 78
102 333
103 56

$$$$

     RDKit          2D

  7  6  0  0  0  0  0  0  0  0999 V2000
    1.6238    3.1875    0.0000 C   0  0  0  0  0  0  0  0  0  0  0  0
   -4.8714    3.9375    0.0000 C   0  0  0  0  0  0  0  0  0  0  0  0
    0.3248    3.9375    0.0000 C   0  0  0  0  0  0  0  0  0  0  0  0
   -0.9743    3.1875    0.0000 C   0  0  0  0  0  0  0  0  0  0  0  0
   -2.2733    3.9375    0.0000 C   0  0  0  0  0  0  0  0  0  0  0  0
   -3.5724    1.6875    0.0000 N   0  0  0  0  0  0  0  0  0  0  0  0
   -3.5724    3.1875    0.0000 N   0  0  0  0  0  0  0  0  0  0  0  0
  3  1  1  0
  4  3  1  0
  5  4  1  0
  7  2  1  0
  7  5  1  0
  7  6  1  0
M  END
>  <NAME>  (5833) 
1-BUTYL-1-METHYLHYDRAZINE

>  <SYNONYMS>  (5833) 


>  <SPECTRUM TYPE>  (5833) 
MS1

>  <INSTRUMENT TYPE>  (5833) 
EI-B

>  <INSTRUMENT>  (5833) 
SHIMADZU LKB-2091

>  <ION MODE>  (5833) 
P

>  <INCHIKEY>  (5833) 
OEEGQMYUIKPQMM-UHFFFAOYSA-N

>  <FORMULA>  (5833) 
C5H14N2

>  <EXACT MASS>  (5833) 
102.11569844799999

>  <MW>  (5833) 
102

>  <ID>  (5833) 
JP000381

>  <CONTRIBUTOR>  (5833) 
University of Tokyo Team, {Faculty of Engineering, University of Tokyo

>  <COMMENT>  (5833) 
SMILES=CCCCN(C)N
InChI=InChI=1S/C5H14N2/c1-3-4-5-7(2)6/h3-6H2,1-2H3
computed SMILES=NN(C)CCCC
accession=JP000381
date=2016.01.19 (Created 2008.10.21, modified 2011.05.06)
author=SASAKI S, TOYOHASHI UNIV. OF TECH.
license=CC BY-NC-SA
exact mass=102.1157
ionization energy=70 eV
ion type=[M]+*
computed spectral entropy=2.1044365962352627
computed normalized entropy=0.6808177590537009
SPLASH=splash10-0a4i-9000000000-9210c4279f287b99db04
submitter=submitter = University of Tokyo Team (Faculty of Engineering, University of Tokyo)
MoNA Rating=3.75

>  <NUM PEAKS>  (5833) 
22

>  <MASS SPECTRAL PEAKS>  (5833) 
27 7.1
29 11.1
30 10.8
31 1.53
39 3.1
40 7.8
41 6.1
42 2.04
43 7.9
44 10.5
45 8.5
46 0.18
55 1.2
56 1.6
57 4.5
58 0.13
59 99.99
60 3.2
71 7.7
72 0.1
102 15.3
103 1

>  <PREDICTED SPECTRUM>  (5833) 
14 17
15 70
16 12
17 12
18 29
25 9
26 42
27 260
28 189
29 254
30 323
31 225
32 43
33 10
39 180
40 101
41 413
42 458
43 375
44 361
45 329
46 89
53 20
54 11
55 182
56 124
57 271
58 98
59 999
60 219
71 80
87 99
101 38
102 547
103 157

$$$$

     RDKit          2D

  6  5  0  0  0  0  0  0  0  0999 V2000
    1.2990    2.2500    0.0000 C   0  0  0  0  0  0  0  0  0  0  0  0
   -3.8971    2.2500    0.0000 C   0  0  0  0  0  0  0  0  0  0  0  0
    0.0000    3.0000    0.0000 C   0  0  0  0  0  0  0  0  0  0  0  0
   -2.5981    3.0000    0.0000 C   0  0  0  0  0  0  0  0  0  0  0  0
   -1.2990    0.7500    0.0000 N   0  0  0  0  0  0  0  0  0  0  0  0
   -1.2990    2.2500    0.0000 N   0  0  0  0  0  0  0  0  0  0  0  0
  3  1  1  0
  4  2  1  0
  6  3  1  0
  6  4  1  0
  6  5  1  0
M  END
>  <NAME>  (5834) 
1,1-DIETHYLHYDRAZINE

>  <SYNONYMS>  (5834) 


>  <SPECTRUM TYPE>  (5834) 
MS1

>  <INSTRUMENT TYPE>  (5834) 
EI-B

>  <INSTRUMENT>  (5834) 
SHIMADZU LKB-2091

>  <ION MODE>  (5834) 
P

>  <INCHIKEY>  (5834) 
IFZHGQSUNAKKSN-UHFFFAOYSA-N

>  <FORMULA>  (5834) 
C4H12N2

>  <EXACT MASS>  (5834) 
88.100048384

>  <MW>  (5834) 
88

>  <ID>  (5834) 
JP000380

>  <CONTRIBUTOR>  (5834) 
University of Tokyo Team, {Faculty of Engineering, University of Tokyo

>  <COMMENT>  (5834) 
SMILES=CCN(N)CC
InChI=InChI=1S/C4H12N2/c1-3-6(5)4-2/h3-5H2,1-2H3
computed SMILES=NN(CC)CC
accession=JP000380
date=2016.01.19 (Created 2008.10.21, modified 2011.05.06)
author=SASAKI S, TOYOHASHI UNIV. OF TECH.
license=CC BY-NC-SA
exact mass=88.10005
ionization energy=70 eV
ion type=[M]+*
computed spectral entropy=2.2887155259985676
computed normalized entropy=0.6944262167845905
SPLASH=splash10-00di-9000000000-b6bff29609343e2f412d
submitter=submitter = University of Tokyo Team (Faculty of Engineering, University of Tokyo)
MoNA Rating=3.75

>  <NUM PEAKS>  (5834) 
27

>  <MASS SPECTRAL PEAKS>  (5834) 
26 2.5
27 12.5
28 17.5
29 1.62
30 12.5
31 8.1
39 0.5
40 0.11
41 3.4
42 22.5
43 9.1
44 1.75
45 46.3
46 1
54 0.6
55 0.06
56 10
57 1.6
58 2.6
59 0.83
70 1.5
71 0.7
73 99.99
74 0.48
87 4.9
88 48.8
89 4.8

>  <PREDICTED SPECTRUM>  (5834) 
14 66
15 225
16 54
17 53
18 73
25 9
26 153
27 483
28 456
29 604
30 440
31 198
32 79
33 28
36 28
37 23
38 95
39 395
40 263
41 448
42 825
43 564
44 777
45 325
52 11
54 111
55 40
56 450
57 275
58 259
59 418
60 20
69 66
70 98
71 329
72 265
73 999
74 223
75 9
87 195
88 775
89 213

$$$$

     RDKit          2D

  6  5  0  0  0  0  0  0  0  0999 V2000
   -0.0000   -0.0000    0.0000 C   0  0  0  0  0  0  0  0  0  0  0  0
    1.2990    2.2500    0.0000 C   0  0  0  0  0  0  0  0  0  0  0  0
   -1.2990    3.7500    0.0000 C   0  0  0  0  0  0  0  0  0  0  0  0
   -0.0000    1.5000    0.0000 C   0  0  0  0  0  0  0  0  0  0  0  0
   -2.5981    1.5000    0.0000 N   0  0  0  0  0  0  0  0  0  0  0  0
   -1.2990    2.2500    0.0000 N   0  0  0  0  0  0  0  0  0  0  0  0
  4  1  1  0
  4  2  1  0
  6  3  1  0
  6  4  1  0
  6  5  1  0
M  END
>  <NAME>  (5835) 
1-ISOPROPYL-1-METHYLHYDRAZINE

>  <SYNONYMS>  (5835) 


>  <SPECTRUM TYPE>  (5835) 
MS1

>  <INSTRUMENT TYPE>  (5835) 
EI-B

>  <INSTRUMENT>  (5835) 
SHIMADZU LKB-2091

>  <ION MODE>  (5835) 
P

>  <INCHIKEY>  (5835) 
XYQCAFWEBBSSKS-UHFFFAOYSA-N

>  <FORMULA>  (5835) 
C4H12N2

>  <EXACT MASS>  (5835) 
88.100048384

>  <MW>  (5835) 
88

>  <ID>  (5835) 
JP000379

>  <CONTRIBUTOR>  (5835) 
University of Tokyo Team, {Faculty of Engineering, University of Tokyo

>  <COMMENT>  (5835) 
SMILES=CC(C)N(C)N
InChI=InChI=1S/C4H12N2/c1-4(2)6(3)5/h4H,5H2,1-3H3
computed SMILES=NN(C)C(C)C
accession=JP000379
license=CC BY-NC-SA
date=2016.01.19 (Created 2008.10.21, modified 2011.05.06)
author=SASAKI S, TOYOHASHI UNIV. OF TECH.
exact mass=88.10005
ionization energy=70 eV
ion type=[M]+*
computed spectral entropy=2.4941030642901496
computed normalized entropy=0.7406842731427514
SPLASH=splash10-00dj-9000000000-74000c8cd6394512eac2
submitter=submitter = University of Tokyo Team (Faculty of Engineering, University of Tokyo)
MoNA Rating=3.75

>  <NUM PEAKS>  (5835) 
29

>  <MASS SPECTRAL PEAKS>  (5835) 
26 1.5
27 12.3
28 26
29 1.15
30 11.9
31 11.5
38 1
39 0.78
40 1.8
41 13.7
42 15.1
43 1.61
44 15.1
45 41.1
46 16.4
54 0.18
55 1.9
56 38.4
57 5.5
58 0.32
59 2.1
70 2.7
71 0.9
72 0.16
73 99.99
74 5.1
87 1.4
88 4.79
89 4.7

>  <PREDICTED SPECTRUM>  (5835) 
14 30
15 114
16 10
17 10
18 17
26 61
27 247
28 206
29 221
30 386
31 463
32 50
33 31
38 97
39 336
40 234
41 466
42 748
43 582
44 584
45 365
46 215
54 136
55 215
56 544
57 251
58 254
59 31
71 193
72 168
73 999
74 271
75 30
87 125
88 725
89 214

$$$$

     RDKit          2D

  6  5  0  0  0  0  0  0  0  0999 V2000
    1.2990    2.2500    0.0000 C   0  0  0  0  0  0  0  0  0  0  0  0
   -3.8971    2.2500    0.0000 C   0  0  0  0  0  0  0  0  0  0  0  0
    0.0000    3.0000    0.0000 C   0  0  0  0  0  0  0  0  0  0  0  0
   -1.2990    2.2500    0.0000 C   0  0  0  0  0  0  0  0  0  0  0  0
   -2.5981    4.5000    0.0000 N   0  0  0  0  0  0  0  0  0  0  0  0
   -2.5981    3.0000    0.0000 N   0  0  0  0  0  0  0  0  0  0  0  0
  3  1  1  0
  4  3  1  0
  6  2  1  0
  6  4  1  0
  6  5  1  0
M  END
>  <NAME>  (5836) 
1-METHYL-1-PROPYLHYDRAZINE

>  <SYNONYMS>  (5836) 


>  <SPECTRUM TYPE>  (5836) 
MS1

>  <INSTRUMENT TYPE>  (5836) 
EI-B

>  <INSTRUMENT>  (5836) 
SHIMADZU LKB-2091

>  <ION MODE>  (5836) 
P

>  <INCHIKEY>  (5836) 
JOFQXPUKJJQCPW-UHFFFAOYSA-N

>  <FORMULA>  (5836) 
C4H12N2

>  <EXACT MASS>  (5836) 
88.100048384

>  <MW>  (5836) 
88

>  <ID>  (5836) 
JP000378

>  <CONTRIBUTOR>  (5836) 
University of Tokyo Team, {Faculty of Engineering, University of Tokyo

>  <COMMENT>  (5836) 
SMILES=CCCN(C)N
InChI=InChI=1S/C4H12N2/c1-3-4-6(2)5/h3-5H2,1-2H3
computed SMILES=NN(C)CCC
accession=JP000378
date=2016.01.19 (Created 2008.10.21, modified 2011.05.06)
author=SASAKI S, TOYOHASHI UNIV. OF TECH.
license=CC BY-NC-SA
exact mass=88.10005
ionization energy=70 eV
ion type=[M]+*
computed spectral entropy=1.8198814504980125
computed normalized entropy=0.5726402218614292
SPLASH=splash10-0a4i-9000000000-3a19579fb9fdfeb44008
submitter=submitter = University of Tokyo Team (Faculty of Engineering, University of Tokyo)
MoNA Rating=3.75

>  <NUM PEAKS>  (5836) 
24

>  <MASS SPECTRAL PEAKS>  (5836) 
27 7.5
28 2.1
29 3.1
30 1.46
31 3
39 3.7
40 0.7
41 0.6
42 27.7
43 9.1
44 4.9
45 1.09
46 1.5
56 1.3
57 1.1
58 0.07
59 99.99
60 3.1
70 1
71 0.09
72 0.5
73 0.3
88 17.2
89 1.2

>  <PREDICTED SPECTRUM>  (5836) 
14 41
15 144
16 24
17 14
18 25
25 3
26 115
27 469
28 359
29 480
30 502
31 151
32 42
38 12
39 286
40 229
41 672
42 937
43 874
44 649
45 660
46 198
52 12
53 4
54 72
55 152
56 454
57 200
58 78
59 913
60 354
61 32
71 63
72 142
73 381
74 5
87 160
88 999
89 290

$$$$

     RDKit          2D

  4  3  0  0  0  0  0  0  0  0999 V2000
    0.9743    0.5625    0.0000 C   0  0  0  0  0  0  0  0  0  0  0  0
   -1.6238    0.5625    0.0000 C   0  0  0  0  0  0  0  0  0  0  0  0
   -0.3248    2.8125    0.0000 N   0  0  0  0  0  0  0  0  0  0  0  0
   -0.3248    1.3125    0.0000 N   0  0  0  0  0  0  0  0  0  0  0  0
  4  1  1  0
  4  2  1  0
  4  3  1  0
M  END
>  <NAME>  (5837) 
1,1-DIMETHYLHYDRAZINE

>  <SYNONYMS>  (5837) 


>  <SPECTRUM TYPE>  (5837) 
MS1

>  <INSTRUMENT TYPE>  (5837) 
EI-B

>  <INSTRUMENT>  (5837) 
SHIMADZU LKB-2091

>  <ION MODE>  (5837) 
P

>  <INCHIKEY>  (5837) 
RHUYHJGZWVXEHW-UHFFFAOYSA-N

>  <FORMULA>  (5837) 
C2H8N2

>  <EXACT MASS>  (5837) 
60.068748256

>  <MW>  (5837) 
60

>  <ID>  (5837) 
JP000377

>  <CONTRIBUTOR>  (5837) 
University of Tokyo Team, {Faculty of Engineering, University of Tokyo

>  <COMMENT>  (5837) 
SMILES=CN(C)N
InChI=InChI=1S/C2H8N2/c1-4(2)3/h3H2,1-2H3
computed SMILES=NN(C)C
accession=JP000377
date=2016.01.19 (Created 2008.10.21, modified 2011.05.06)
author=SASAKI S, TOYOHASHI UNIV. OF TECH.
license=CC BY-NC-SA
exact mass=60.06875
ionization energy=70 eV
ion type=[M]+*
computed spectral entropy=2.0609623132988713
computed normalized entropy=0.7274292695333211
SPLASH=splash10-03di-9000000000-420219681bd3aa9f101f
submitter=submitter = University of Tokyo Team (Faculty of Engineering, University of Tokyo)
MoNA Rating=3.75

>  <NUM PEAKS>  (5837) 
17

>  <MASS SPECTRAL PEAKS>  (5837) 
27 3.8
28 27.5
29 7.6
30 2.65
31 4.6
40 3
41 4.3
42 6.17
43 25.3
44 11.9
45 45.9
46 0.1
57 1.5
58 1.3
59 48.5
60 99.99
61 3.9

>  <PREDICTED SPECTRUM>  (5837) 
14 51
15 163
16 70
17 52
18 82
25 15
26 60
27 169
28 290
29 222
30 523
31 179
32 52
39 41
40 123
41 254
42 926
43 590
44 999
45 840
46 315
54 17
56 82
57 215
58 148
59 336
60 960
61 189

$$$$

     RDKit          2D

  6  5  0  0  0  0  0  0  0  0999 V2000
   -4.5466    3.3750    0.0000 C   0  0  0  0  0  0  0  0  0  0  0  0
   -0.6495    2.6250    0.0000 C   0  0  0  0  0  0  0  0  0  0  0  0
   -1.9486    3.3750    0.0000 C   0  0  0  0  0  0  0  0  0  0  0  0
    1.9486    2.6250    0.0000 N   0  0  0  0  0  0  0  0  0  0  0  0
    0.6495    3.3750    0.0000 N   0  0  0  0  0  0  0  0  0  0  0  0
   -3.2476    2.6250    0.0000 O   0  0  0  0  0  0  0  0  0  0  0  0
  3  2  1  0
  5  2  1  0
  5  4  1  0
  6  1  1  0
  6  3  1  0
M  END
>  <NAME>  (5838) 
BETA-METHOXYETHYLHYDRAZINE

>  <SYNONYMS>  (5838) 


>  <SPECTRUM TYPE>  (5838) 
MS1

>  <INSTRUMENT TYPE>  (5838) 
EI-B

>  <INSTRUMENT>  (5838) 
SHIMADZU LKB-2091

>  <ION MODE>  (5838) 
P

>  <INCHIKEY>  (5838) 
IBELBRDFPCFICX-UHFFFAOYSA-N

>  <FORMULA>  (5838) 
C3H10N2O

>  <EXACT MASS>  (5838) 
90.07931294

>  <MW>  (5838) 
90

>  <ID>  (5838) 
JP000376

>  <CONTRIBUTOR>  (5838) 
University of Tokyo Team, {Faculty of Engineering, University of Tokyo

>  <COMMENT>  (5838) 
SMILES=COCCNN
InChI=InChI=1S/C3H10N2O/c1-6-3-2-5-4/h5H,2-4H2,1H3
computed SMILES=O(C)CCNN
accession=JP000376
date=2016.01.19 (Created 2008.10.21, modified 2011.05.06)
author=SASAKI S, TOYOHASHI UNIV. OF TECH.
license=CC BY-NC-SA
exact mass=90.07931
ionization energy=70 eV
ion type=[M]+*
computed spectral entropy=1.4566361331210964
computed normalized entropy=0.47124429867940154
SPLASH=splash10-0002-9000000000-dd4812e91c4b89ebd9d8
submitter=submitter = University of Tokyo Team (Faculty of Engineering, University of Tokyo)
MoNA Rating=3.75

>  <NUM PEAKS>  (5838) 
22

>  <MASS SPECTRAL PEAKS>  (5838) 
26 0.7
27 3
28 6.5
29 0.53
30 4.8
31 7.9
32 1.6
33 0.14
40 0.6
41 1.4
42 2.6
43 0.4
44 2.1
45 99.99
46 2.5
57 0.17
58 1.4
59 1.2
69 0.3
73 0.03
90 11
91 0.9

>  <PREDICTED SPECTRUM>  (5838) 
14 34
15 169
16 7
18 1
19 10
27 81
28 217
29 303
30 296
31 349
32 153
33 99
34 3
41 89
42 184
43 488
44 224
45 999
46 131
47 116
56 55
57 228
58 598
59 688
60 229
63 79
75 212
89 61
90 429
91 141
92 7

$$$$

     RDKit          2D

  9  9  0  0  0  0  0  0  0  0999 V2000
    2.9228   -0.2425    0.0000 C   0  0  0  0  0  0  0  0  0  0  0  0
    2.9233    1.2583    0.0000 C   0  0  0  0  0  0  0  0  0  0  0  0
    1.6233   -0.9933    0.0000 C   0  0  0  0  0  0  0  0  0  0  0  0
    1.6243    2.0083    0.0000 C   0  0  0  0  0  0  0  0  0  0  0  0
    0.3243   -0.2433    0.0000 C   0  0  0  0  0  0  0  0  0  0  0  0
   -0.9743    2.0075    0.0000 C   0  0  0  0  0  0  0  0  0  0  0  0
    0.3248    1.2575    0.0000 C   0  0  0  0  0  0  0  0  0  0  0  0
   -3.5724    2.0075    0.0000 N   0  0  0  0  0  0  0  0  0  0  0  0
   -2.2733    1.2575    0.0000 N   0  0  0  0  0  0  0  0  0  0  0  0
  2  1  2  0
  3  1  1  0
  4  2  1  0
  5  3  2  0
  7  4  2  0
  7  5  1  0
  7  6  1  0
  9  6  1  0
  9  8  1  0
M  END
>  <NAME>  (5839) 
BENZYLHYDRAZINE

>  <SYNONYMS>  (5839) 


>  <SPECTRUM TYPE>  (5839) 
MS1

>  <INSTRUMENT TYPE>  (5839) 
EI-B

>  <INSTRUMENT>  (5839) 
SHIMADZU LKB-2091

>  <ION MODE>  (5839) 
P

>  <INCHIKEY>  (5839) 
NHOWLEZFTHYCTP-UHFFFAOYSA-N

>  <FORMULA>  (5839) 
C7H10N2

>  <EXACT MASS>  (5839) 
122.08439831999999

>  <MW>  (5839) 
122

>  <ID>  (5839) 
JP000375

>  <CONTRIBUTOR>  (5839) 
University of Tokyo Team, {Faculty of Engineering, University of Tokyo

>  <COMMENT>  (5839) 
SMILES=NNCc(c1)cccc1
InChI=InChI=1S/C7H10N2/c8-9-6-7-4-2-1-3-5-7/h1-5,9H,6,8H2
computed SMILES=NNCC=1C=CC=CC1
accession=JP000375
date=2016.01.19 (Created 2008.10.21, modified 2011.05.06)
author=SASAKI S, TOYOHASHI UNIV. OF TECH.
license=CC BY-NC-SA
exact mass=122.0844
ionization energy=70 eV
ion type=[M]+*
computed spectral entropy=2.0448774719599196
computed normalized entropy=0.5798832699281368
SPLASH=splash10-0006-9200000000-025a151b83e51b6616e2
submitter=submitter = University of Tokyo Team (Faculty of Engineering, University of Tokyo)
MoNA Rating=3.75

>  <NUM PEAKS>  (5839) 
34

>  <MASS SPECTRAL PEAKS>  (5839) 
27 1.4
30 1.1
31 2.7
38 0.09
39 5.6
41 1.5
43 2.5
44 0.1
45 2.7
50 2.6
51 5.8
52 0.18
62 0.8
63 2.7
64 0.8
65 1.38
66 1
76 0.9
77 5.7
78 0.22
79 1.4
89 2
90 0.8
91 99.99
92 16
93 3
103 0.8
104 0.28
105 1.1
106 2.5
107 1.5
121 0.08
122 31.8
123 3.1

>  <PREDICTED SPECTRUM>  (5839) 
14 19
15 35
16 12
17 14
18 10
25 2
26 37
27 17
28 95
29 16
30 99
31 92
37 47
38 84
39 220
40 79
41 129
42 109
43 42
44 51
45 113
49 64
50 166
51 298
52 167
53 93
61 24
62 93
63 214
64 74
65 425
66 115
74 47
75 29
76 71
77 258
78 207
79 187
89 173
90 77
91 999
92 323
93 29
104 135
105 58
106 429
107 137
119 31
120 47
121 140
122 443
123 93

$$$$

     RDKit          2D

  8  8  0  0  0  0  0  0  0  0999 V2000
    2.2733   -0.6175    0.0000 C   0  0  0  0  0  0  0  0  0  0  0  0
    0.9738   -1.3683    0.0000 C   0  0  0  0  0  0  0  0  0  0  0  0
    2.2738    0.8833    0.0000 C   0  0  0  0  0  0  0  0  0  0  0  0
   -0.3252   -0.6183    0.0000 C   0  0  0  0  0  0  0  0  0  0  0  0
    0.9748    1.6333    0.0000 C   0  0  0  0  0  0  0  0  0  0  0  0
   -0.3248    0.8825    0.0000 C   0  0  0  0  0  0  0  0  0  0  0  0
   -2.9228    0.8825    0.0000 N   0  0  0  0  0  0  0  0  0  0  0  0
   -1.6238    1.6325    0.0000 N   0  0  0  0  0  0  0  0  0  0  0  0
  2  1  2  0
  3  1  1  0
  4  2  1  0
  5  3  2  0
  6  4  2  0
  6  5  1  0
  8  6  1  0
  8  7  1  0
M  END
>  <NAME>  (5840) 
PHENYLHYDRAZINE

>  <SYNONYMS>  (5840) 


>  <SPECTRUM TYPE>  (5840) 
MS1

>  <INSTRUMENT TYPE>  (5840) 
EI-B

>  <INSTRUMENT>  (5840) 
SHIMADZU LKB-2091

>  <ION MODE>  (5840) 
P

>  <INCHIKEY>  (5840) 
HKOOXMFOFWEVGF-UHFFFAOYSA-N

>  <FORMULA>  (5840) 
C6H8N2

>  <EXACT MASS>  (5840) 
108.06874825599999

>  <MW>  (5840) 
108

>  <ID>  (5840) 
JP000374

>  <CONTRIBUTOR>  (5840) 
University of Tokyo Team, {Faculty of Engineering, University of Tokyo

>  <COMMENT>  (5840) 
SMILES=NNc(c1)cccc1
InChI=InChI=1S/C6H8N2/c7-8-6-4-2-1-3-5-6/h1-5,8H,7H2
computed SMILES=NNC=1C=CC=CC1
accession=JP000374
date=2016.01.19 (Created 2008.10.21, modified 2011.05.06)
author=SASAKI S, TOYOHASHI UNIV. OF TECH.
license=CC BY-NC-SA
exact mass=108.06875
ionization energy=70 eV
ion type=[M]+*
computed spectral entropy=2.5164641290237992
computed normalized entropy=0.682175755626108
SPLASH=splash10-0a4i-9500000000-c6d9198fcc266a5f2b32
submitter=submitter = University of Tokyo Team (Faculty of Engineering, University of Tokyo)
MoNA Rating=3.75

>  <NUM PEAKS>  (5840) 
40

>  <MASS SPECTRAL PEAKS>  (5840) 
27 2.5
28 2.2
29 2.4
30 0.08
31 1.6
37 1.5
38 3.2
39 0.95
40 1.4
41 1.7
43 1.3
50 0.44
51 11.3
52 4.6
53 2.2
54 0.41
61 0.7
62 1.4
63 4.9
64 0.7
65 31.7
66 3.6
73 0.6
74 0.16
75 0.9
76 1
77 19.7
78 1.36
79 8.4
80 3.2
81 1.4
90 0.07
91 14.9
92 34.9
93 9.8
105 0.08
106 1.9
107 4.9
108 99.99
109 7.9

>  <PREDICTED SPECTRUM>  (5840) 
14 6
15 23
16 17
17 32
18 33
25 15
26 71
27 171
28 174
29 65
30 57
31 23
37 136
38 211
39 381
40 134
41 271
42 98
43 158
44 103
46 17
48 0
49 136
50 382
51 655
52 377
53 206
54 67
55 9
61 92
62 215
63 400
64 352
65 602
66 359
67 78
74 159
75 119
76 244
77 953
78 564
79 422
80 160
81 3
90 218
91 317
92 636
93 738
94 256
104 677
105 198
106 210
107 222
108 999
109 304

$$$$

     RDKit          2D

  6  5  0  0  0  0  0  0  0  0999 V2000
    1.2990    2.2500    0.0000 C   0  0  0  0  0  0  0  0  0  0  0  0
   -1.2990    0.7500    0.0000 C   0  0  0  0  0  0  0  0  0  0  0  0
    0.0000    3.0000    0.0000 C   0  0  0  0  0  0  0  0  0  0  0  0
   -1.2990    2.2500    0.0000 C   0  0  0  0  0  0  0  0  0  0  0  0
   -3.8971    2.2500    0.0000 N   0  0  0  0  0  0  0  0  0  0  0  0
   -2.5981    3.0000    0.0000 N   0  0  0  0  0  0  0  0  0  0  0  0
  3  1  2  0
  4  2  1  0
  4  3  1  0
  6  4  1  0
  6  5  1  0
M  END
>  <NAME>  (5841) 
1-METHYL-2-PROPENYLHYDRAZINE

>  <SYNONYMS>  (5841) 


>  <SPECTRUM TYPE>  (5841) 
MS1

>  <INSTRUMENT TYPE>  (5841) 
EI-B

>  <INSTRUMENT>  (5841) 
SHIMADZU LKB-2091

>  <ION MODE>  (5841) 
P

>  <INCHIKEY>  (5841) 
ZXMKECRNTYBFFP-UHFFFAOYSA-N

>  <FORMULA>  (5841) 
C4H10N2

>  <EXACT MASS>  (5841) 
86.08439831999999

>  <MW>  (5841) 
86

>  <ID>  (5841) 
JP000373

>  <CONTRIBUTOR>  (5841) 
University of Tokyo Team, {Faculty of Engineering, University of Tokyo

>  <COMMENT>  (5841) 
SMILES=C=CC(C)NN
InChI=InChI=1S/C4H10N2/c1-3-4(2)6-5/h3-4,6H,1,5H2,2H3
computed SMILES=C=CC(NN)C
accession=JP000373
date=2016.01.19 (Created 2008.10.21, modified 2011.05.06)
license=CC BY-NC-SA
author=SASAKI S, TOYOHASHI UNIV. OF TECH.
exact mass=86.0844
ionization energy=70 eV
ion type=[M]+*
computed spectral entropy=2.738866218648503
computed normalized entropy=0.7902697422605005
SPLASH=splash10-003u-9000000000-a5bf24cc60308aa36048
submitter=submitter = University of Tokyo Team (Faculty of Engineering, University of Tokyo)
MoNA Rating=3.75

>  <NUM PEAKS>  (5841) 
32

>  <MASS SPECTRAL PEAKS>  (5841) 
26 6.7
27 40.1
28 51.7
29 5.09
30 10.2
31 28.5
32 99.99
39 2.63
40 3.9
41 31.5
42 23.1
43 0.81
44 25.2
45 3.3
50 3.2
51 0.4
52 2.4
53 12
54 11.6
55 6.2
56 20.7
57 3.5
58 1.7
59 1.44
68 3.1
69 2.2
70 2
71 5.44
72 2.4
85 1.3
86 30.1
87 2.1

>  <PREDICTED SPECTRUM>  (5841) 
14 48
15 22
16 23
17 29
18 18
25 32
26 195
27 561
28 534
29 485
30 545
31 864
32 999
33 44
37 6
38 46
39 384
40 190
41 494
42 339
43 350
44 380
50 36
51 90
52 91
53 236
54 396
55 624
56 800
57 188
58 4
59 67
68 95
69 146
70 141
71 238
84 90
85 62
86 651
87 176

$$$$

     RDKit          2D

  6  5  0  0  0  0  0  0  0  0999 V2000
   -4.5466    3.3750    0.0000 C   0  0  0  0  0  0  0  0  0  0  0  0
   -3.2476    2.6250    0.0000 C   0  0  0  0  0  0  0  0  0  0  0  0
   -1.9486    3.3750    0.0000 C   0  0  0  0  0  0  0  0  0  0  0  0
   -0.6495    2.6250    0.0000 C   0  0  0  0  0  0  0  0  0  0  0  0
    1.9486    2.6250    0.0000 N   0  0  0  0  0  0  0  0  0  0  0  0
    0.6495    3.3750    0.0000 N   0  0  0  0  0  0  0  0  0  0  0  0
  2  1  1  0
  2  3  2  0
  4  3  1  0
  6  4  1  0
  6  5  1  0
M  END
>  <NAME>  (5842) 
CROTYLHYDRAZINE

>  <SYNONYMS>  (5842) 
2-BUTENYLHYDRAZINE

>  <SPECTRUM TYPE>  (5842) 
MS1

>  <INSTRUMENT TYPE>  (5842) 
EI-B

>  <INSTRUMENT>  (5842) 
SHIMADZU LKB-2091

>  <ION MODE>  (5842) 
P

>  <INCHIKEY>  (5842) 
SHHBQSBSBLLJKJ-NSCUHMNNSA-N

>  <FORMULA>  (5842) 
C4H10N2

>  <EXACT MASS>  (5842) 
86.08439831999999

>  <MW>  (5842) 
86

>  <ID>  (5842) 
JP000372

>  <CONTRIBUTOR>  (5842) 
University of Tokyo Team, {Faculty of Engineering, University of Tokyo

>  <COMMENT>  (5842) 
SMILES=CC=CCNN
InChI=InChI=1S/C4H10N2/c1-2-3-4-6-5/h2-3,6H,4-5H2,1H3/b3-2+
computed SMILES=NNCC=CC
accession=JP000372
date=2016.01.19 (Created 2008.10.21, modified 2011.05.06)
author=SASAKI S, TOYOHASHI UNIV. OF TECH.
license=CC BY-NC-SA
exact mass=86.0844
ionization energy=70 eV
ion type=[M]+*
computed spectral entropy=2.7398504780860873
computed normalized entropy=0.7587684196564117
SPLASH=splash10-053r-9000000000-fff334fb691de133bc54
submitter=submitter = University of Tokyo Team (Faculty of Engineering, University of Tokyo)
MoNA Rating=3.75

>  <NUM PEAKS>  (5842) 
37

>  <MASS SPECTRAL PEAKS>  (5842) 
26 3.3
27 24.6
28 23.3
29 4.16
30 7.7
31 26
32 99.99
33 0.2
37 1.6
38 3.3
39 26
40 0.26
41 19.2
42 6.6
43 9.2
44 1.16
45 19.2
50 3.2
51 2.9
52 0.18
53 12
54 6.7
55 67.1
56 0.94
57 2.2
58 4.9
59 3.8
67 0.12
68 7.4
69 3.4
70 2.1
71 2.88
72 2.1
85 1.6
86 32.9
87 0.41
88 0.8

>  <PREDICTED SPECTRUM>  (5842) 
14 32
15 44
17 6
18 5
25 35
26 217
27 596
28 452
29 578
30 440
31 511
32 612
33 8
37 82
38 173
39 574
40 279
41 669
42 255
43 317
44 189
45 22
49 52
50 104
51 202
52 186
53 461
54 459
55 999
56 784
57 282
58 146
59 157
67 3
68 373
69 129
70 141
71 526
72 159
85 192
86 692
87 238
88 45

$$$$

     RDKit          2D

  5  4  0  0  0  0  0  0  0  0999 V2000
   -3.8971    2.2500    0.0000 C   0  0  0  0  0  0  0  0  0  0  0  0
   -2.5981    1.5000    0.0000 C   0  0  0  0  0  0  0  0  0  0  0  0
   -1.2990    2.2500    0.0000 C   0  0  0  0  0  0  0  0  0  0  0  0
    1.2990    2.2500    0.0000 N   0  0  0  0  0  0  0  0  0  0  0  0
    0.0000    1.5000    0.0000 N   0  0  0  0  0  0  0  0  0  0  0  0
  2  1  2  0
  3  2  1  0
  5  3  1  0
  5  4  1  0
M  END
>  <NAME>  (5843) 
ALLYLHYDRAZINE

>  <SYNONYMS>  (5843) 


>  <SPECTRUM TYPE>  (5843) 
MS1

>  <INSTRUMENT TYPE>  (5843) 
EI-B

>  <INSTRUMENT>  (5843) 
SHIMADZU LKB-2091

>  <ION MODE>  (5843) 
P

>  <INCHIKEY>  (5843) 
ZTILHLWDFSMCLZ-UHFFFAOYSA-N

>  <FORMULA>  (5843) 
C3H8N2

>  <EXACT MASS>  (5843) 
72.06874825599999

>  <MW>  (5843) 
72

>  <ID>  (5843) 
JP000371

>  <CONTRIBUTOR>  (5843) 
University of Tokyo Team, {Faculty of Engineering, University of Tokyo

>  <COMMENT>  (5843) 
SMILES=C=CCNN
InChI=InChI=1S/C3H8N2/c1-2-3-5-4/h2,5H,1,3-4H2
computed SMILES=C=CCNN
accession=JP000371
date=2016.01.19 (Created 2008.10.21, modified 2011.05.06)
author=SASAKI S, TOYOHASHI UNIV. OF TECH.
license=CC BY-NC-SA
exact mass=72.06875
ionization energy=70 eV
ion type=[M]+*
computed spectral entropy=2.426436987486644
computed normalized entropy=0.7969844325736158
SPLASH=splash10-001i-9000000000-b6177a60ce7bf3d28a98
submitter=submitter = University of Tokyo Team (Faculty of Engineering, University of Tokyo)
MoNA Rating=3.75

>  <NUM PEAKS>  (5843) 
21

>  <MASS SPECTRAL PEAKS>  (5843) 
27 19.5
28 26.4
29 9.4
30 1.52
31 99.99
38 4.3
39 29
40 0.42
41 30.3
42 9.1
43 19.1
44 1.43
45 43.9
52 2.8
54 12.3
55 1.44
56 11.8
57 4.1
71 8.2
72 5.43
73 4.6

>  <PREDICTED SPECTRUM>  (5843) 
14 83
15 220
16 59
17 45
18 76
19 32
25 78
26 294
27 687
28 668
29 615
30 717
31 443
32 251
33 19
36 12
37 104
38 259
39 726
40 422
41 967
42 478
43 460
44 251
45 452
46 68
51 39
53 206
54 540
55 596
56 596
57 389
71 432
72 999
73 214

$$$$

     RDKit          2D

  9  8  0  0  0  0  0  0  0  0999 V2000
    2.5981    4.5000    0.0000 C   0  0  0  0  0  0  0  0  0  0  0  0
    1.2990    5.2500    0.0000 C   0  0  0  0  0  0  0  0  0  0  0  0
    0.0000    4.5000    0.0000 C   0  0  0  0  0  0  0  0  0  0  0  0
   -1.2990    5.2500    0.0000 C   0  0  0  0  0  0  0  0  0  0  0  0
   -2.5981    4.5000    0.0000 C   0  0  0  0  0  0  0  0  0  0  0  0
   -3.8971    5.2500    0.0000 C   0  0  0  0  0  0  0  0  0  0  0  0
   -5.1962    4.5000    0.0000 C   0  0  0  0  0  0  0  0  0  0  0  0
   -7.7942    4.5000    0.0000 N   0  0  0  0  0  0  0  0  0  0  0  0
   -6.4952    5.2500    0.0000 N   0  0  0  0  0  0  0  0  0  0  0  0
  2  1  1  0
  3  2  1  0
  4  3  1  0
  5  4  1  0
  6  5  1  0
  7  6  1  0
  9  7  1  0
  9  8  1  0
M  END
>  <NAME>  (5844) 
HEPTYLHYDRAZINE

>  <SYNONYMS>  (5844) 


>  <SPECTRUM TYPE>  (5844) 
MS1

>  <INSTRUMENT TYPE>  (5844) 
EI-B

>  <INSTRUMENT>  (5844) 
SHIMADZU LKB-2091

>  <ION MODE>  (5844) 
P

>  <INCHIKEY>  (5844) 
AETGYOWKOXPRCB-UHFFFAOYSA-N

>  <FORMULA>  (5844) 
C7H18N2

>  <EXACT MASS>  (5844) 
130.146998576

>  <MW>  (5844) 
130

>  <ID>  (5844) 
JP000370

>  <CONTRIBUTOR>  (5844) 
University of Tokyo Team, {Faculty of Engineering, University of Tokyo

>  <COMMENT>  (5844) 
SMILES=CCCCCCCNN
InChI=InChI=1S/C7H18N2/c1-2-3-4-5-6-7-9-8/h9H,2-8H2,1H3
computed SMILES=NNCCCCCCC
accession=JP000370
date=2016.01.19 (Created 2008.10.21, modified 2011.05.06)
author=SASAKI S, TOYOHASHI UNIV. OF TECH.
license=CC BY-NC-SA
exact mass=130.147
ionization energy=70 eV
ion type=[M]+*
computed spectral entropy=2.10366241671835
computed normalized entropy=0.5916895843489033
SPLASH=splash10-0002-9000000000-eb0360fb4c0485b588b0
submitter=submitter = University of Tokyo Team (Faculty of Engineering, University of Tokyo)
MoNA Rating=3.75

>  <NUM PEAKS>  (5844) 
35

>  <MASS SPECTRAL PEAKS>  (5844) 
26 0.6
27 8.7
28 6.7
29 1.07
30 9.3
31 5.7
32 10
39 0.35
40 0.7
41 12.7
42 3.2
43 0.93
44 3.8
45 99.99
46 5.3
53 0.08
54 0.7
55 4.2
56 2.1
57 0.37
58 1.3
59 0.7
69 0.8
70 0.12
71 0.8
73 0.9
83 0.6
85 0.03
87 0.4
101 0.4
114 0.3
115 0.02
129 0.5
130 15
131 2.2

>  <PREDICTED SPECTRUM>  (5844) 
18 5
26 7
27 281
28 151
29 415
30 587
31 212
32 25
33 8
35 2
38 43
39 400
40 199
41 950
42 551
43 999
44 338
45 556
46 199
47 87
51 10
52 27
53 223
54 177
55 533
56 777
57 778
58 145
59 173
67 101
68 16
69 413
70 302
71 265
72 97
73 190
74 18
82 57
83 19
84 277
85 268
99 136
100 93
101 176
113 90
114 1
115 5
128 47
129 159
130 818
131 236

$$$$

     RDKit          2D

  6  5  0  0  0  0  0  0  0  0999 V2000
    1.2990    2.2500    0.0000 C   0  0  0  0  0  0  0  0  0  0  0  0
   -1.2990    0.7500    0.0000 C   0  0  0  0  0  0  0  0  0  0  0  0
    0.0000    3.0000    0.0000 C   0  0  0  0  0  0  0  0  0  0  0  0
   -1.2990    2.2500    0.0000 C   0  0  0  0  0  0  0  0  0  0  0  0
   -3.8971    2.2500    0.0000 N   0  0  0  0  0  0  0  0  0  0  0  0
   -2.5981    3.0000    0.0000 N   0  0  0  0  0  0  0  0  0  0  0  0
  3  1  1  0
  4  2  1  0
  4  3  1  0
  6  4  1  0
  6  5  1  0
M  END
>  <NAME>  (5845) 
SEC-BUTYLHYDRAZINE

>  <SYNONYMS>  (5845) 


>  <SPECTRUM TYPE>  (5845) 
MS1

>  <INSTRUMENT TYPE>  (5845) 
EI-B

>  <INSTRUMENT>  (5845) 
SHIMADZU LKB-2091

>  <ION MODE>  (5845) 
P

>  <INCHIKEY>  (5845) 
SFSUYFSIKDDLOL-UHFFFAOYSA-N

>  <FORMULA>  (5845) 
C4H12N2

>  <EXACT MASS>  (5845) 
88.10004838399999

>  <MW>  (5845) 
88

>  <ID>  (5845) 
JP000369

>  <CONTRIBUTOR>  (5845) 
University of Tokyo Team, {Faculty of Engineering, University of Tokyo

>  <COMMENT>  (5845) 
SMILES=CCC(C)NN
InChI=InChI=1S/C4H12N2/c1-3-4(2)6-5/h4,6H,3,5H2,1-2H3
computed SMILES=NNC(C)CC
accession=JP000369
date=2016.01.19 (Created 2008.10.21, modified 2011.05.06)
author=SASAKI S, TOYOHASHI UNIV. OF TECH.
license=CC BY-NC-SA
exact mass=88.10005
ionization energy=70 eV
ion type=[M]+*
computed spectral entropy=2.5419167127788667
computed normalized entropy=0.7208329083299133
SPLASH=splash10-0a59-9000000000-ad8e06f75e9fafa15207
submitter=submitter = University of Tokyo Team (Faculty of Engineering, University of Tokyo)
MoNA Rating=3.75

>  <NUM PEAKS>  (5845) 
34

>  <MASS SPECTRAL PEAKS>  (5845) 
26 2.1
27 14.2
28 17.7
29 2.92
30 9.2
31 16.9
32 43
33 0.22
38 0.8
39 7.7
40 1.5
41 1.92
42 30
43 6.4
44 4.5
45 3.69
46 0.8
51 0.7
53 1.1
54 0.14
55 2.6
56 7.7
57 5.5
58 0.25
59 99.99
60 4.8
70 1.3
71 0.08
72 0.8
73 10.8
74 0.6
87 0.06
88 20
89 5

>  <PREDICTED SPECTRUM>  (5845) 
14 15
15 123
17 18
18 44
26 62
27 349
28 316
29 416
30 562
31 286
32 81
33 28
38 19
39 320
40 159
41 560
42 465
43 303
44 280
45 116
46 43
52 17
53 51
54 121
55 4
56 317
57 309
58 121
59 999
60 206
70 26
71 117
72 56
73 284
74 22
87 75
88 262
89 71

$$$$

     RDKit          2D

  6  5  0  0  0  0  0  0  0  0999 V2000
    0.0000    0.0000    0.0000 C   0  0  0  0  0  0  0  0  0  0  0  0
    1.2990    2.2500    0.0000 C   0  0  0  0  0  0  0  0  0  0  0  0
   -1.2990    2.2500    0.0000 C   0  0  0  0  0  0  0  0  0  0  0  0
    0.0000    1.5000    0.0000 C   0  0  0  0  0  0  0  0  0  0  0  0
   -2.5981    4.5000    0.0000 N   0  0  0  0  0  0  0  0  0  0  0  0
   -1.2990    3.7500    0.0000 N   0  0  0  0  0  0  0  0  0  0  0  0
  4  1  1  0
  4  2  1  0
  4  3  1  0
  6  3  1  0
  6  5  1  0
M  END
>  <NAME>  (5846) 
ISOBUTYLHYDRAZINE

>  <SYNONYMS>  (5846) 


>  <SPECTRUM TYPE>  (5846) 
MS1

>  <INSTRUMENT TYPE>  (5846) 
EI-B

>  <INSTRUMENT>  (5846) 
SHIMADZU LKB-2091

>  <ION MODE>  (5846) 
P

>  <INCHIKEY>  (5846) 
NGSOWKPBNFOQCR-UHFFFAOYSA-N

>  <FORMULA>  (5846) 
C4H12N2

>  <EXACT MASS>  (5846) 
88.10004838399999

>  <MW>  (5846) 
88

>  <ID>  (5846) 
JP000368

>  <CONTRIBUTOR>  (5846) 
University of Tokyo Team, {Faculty of Engineering, University of Tokyo

>  <COMMENT>  (5846) 
SMILES=NNCC(C)C
InChI=InChI=1S/C4H12N2/c1-4(2)3-6-5/h4,6H,3,5H2,1-2H3
computed SMILES=NNCC(C)C
accession=JP000368
date=2016.01.19 (Created 2008.10.21, modified 2011.05.06)
author=SASAKI S, TOYOHASHI UNIV. OF TECH.
license=CC BY-NC-SA
exact mass=88.10005
ionization energy=70 eV
ion type=[M]+*
computed spectral entropy=2.0871222533819718
computed normalized entropy=0.6198214706280664
SPLASH=splash10-0002-9000000000-c8adf22eec5dc97c2472
submitter=submitter = University of Tokyo Team (Faculty of Engineering, University of Tokyo)
MoNA Rating=3.75

>  <NUM PEAKS>  (5846) 
29

>  <MASS SPECTRAL PEAKS>  (5846) 
26 1
27 8.7
28 16.7
29 1.2
30 6.7
31 10.7
32 8.7
38 0.09
39 7.7
40 1.1
41 12
42 0.33
43 5.3
44 4.1
45 99.99
46 0.52
53 0.6
54 1.1
55 1.5
56 0.27
57 3
58 0.7
59 1.3
70 0.05
71 1.1
73 0.7
87 0.6
88 2.8
89 4.6

>  <PREDICTED SPECTRUM>  (5846) 
14 33
15 102
16 24
17 26
18 65
25 0
26 55
27 352
28 287
29 423
30 566
31 308
32 184
33 84
39 248
40 56
41 501
42 196
43 335
44 151
45 999
46 223
55 115
56 205
57 452
73 156
88 506
89 154

$$$$

     RDKit          2D

  5  4  0  0  0  0  0  0  0  0999 V2000
    0.0000    0.0000    0.0000 C   0  0  0  0  0  0  0  0  0  0  0  0
    1.2990    2.2500    0.0000 C   0  0  0  0  0  0  0  0  0  0  0  0
    0.0000    1.5000    0.0000 C   0  0  0  0  0  0  0  0  0  0  0  0
   -1.2990    3.7500    0.0000 N   0  0  0  0  0  0  0  0  0  0  0  0
   -1.2990    2.2500    0.0000 N   0  0  0  0  0  0  0  0  0  0  0  0
  3  1  1  0
  3  2  1  0
  5  3  1  0
  5  4  1  0
M  END
>  <NAME>  (5847) 
ISOPROPYLHYDRAZINE

>  <SYNONYMS>  (5847) 


>  <SPECTRUM TYPE>  (5847) 
MS1

>  <INSTRUMENT TYPE>  (5847) 
EI-B

>  <INSTRUMENT>  (5847) 
SHIMADZU LKB-2091

>  <ION MODE>  (5847) 
P

>  <INCHIKEY>  (5847) 
KJAQRHMKLVGSCG-UHFFFAOYSA-N

>  <FORMULA>  (5847) 
C3H10N2

>  <EXACT MASS>  (5847) 
74.08439831999999

>  <MW>  (5847) 
74

>  <ID>  (5847) 
JP000367

>  <CONTRIBUTOR>  (5847) 
University of Tokyo Team, {Faculty of Engineering, University of Tokyo

>  <COMMENT>  (5847) 
SMILES=NNC(C)C
InChI=InChI=1S/C3H10N2/c1-3(2)5-4/h3,5H,4H2,1-2H3
computed SMILES=NNC(C)C
accession=JP000367
date=2016.01.19 (Created 2008.10.21, modified 2011.05.06)
author=SASAKI S, TOYOHASHI UNIV. OF TECH.
license=CC BY-NC-SA
exact mass=74.0844
ionization energy=70 eV
ion type=[M]+*
computed spectral entropy=2.262620616193769
computed normalized entropy=0.7119516336027727
SPLASH=splash10-0a5c-9000000000-b2c93d60e54e2660e847
submitter=submitter = University of Tokyo Team (Faculty of Engineering, University of Tokyo)
MoNA Rating=3.75

>  <NUM PEAKS>  (5847) 
24

>  <MASS SPECTRAL PEAKS>  (5847) 
26 1.9
27 18.7
28 5.1
29 0.64
30 9
31 23.8
32 66.1
33 0.13
38 1.3
39 8.7
40 2.7
41 2.2
42 35.6
43 15.1
44 2.2
45 0.29
56 5.1
57 1.3
58 1.5
59 99.99
60 3.2
73 1.7
74 34
75 2.7

>  <PREDICTED SPECTRUM>  (5847) 
14 53
15 143
16 47
17 32
18 34
26 3
27 128
28 221
29 165
30 499
31 347
32 104
39 156
40 97
41 288
42 545
43 516
44 289
45 3
56 171
57 238
58 162
59 999
60 214
73 220
74 368
75 48

$$$$

     RDKit          2D

  5  4  0  0  0  0  0  0  0  0999 V2000
   -3.8971    2.2500    0.0000 C   0  0  0  0  0  0  0  0  0  0  0  0
   -2.5981    1.5000    0.0000 C   0  0  0  0  0  0  0  0  0  0  0  0
   -1.2990    2.2500    0.0000 C   0  0  0  0  0  0  0  0  0  0  0  0
    1.2990    2.2500    0.0000 N   0  0  0  0  0  0  0  0  0  0  0  0
    0.0000    1.5000    0.0000 N   0  0  0  0  0  0  0  0  0  0  0  0
  2  1  1  0
  3  2  1  0
  5  3  1  0
  5  4  1  0
M  END
>  <NAME>  (5848) 
PROPYLHYDRAZINE

>  <SYNONYMS>  (5848) 


>  <SPECTRUM TYPE>  (5848) 
MS1

>  <INSTRUMENT TYPE>  (5848) 
EI-B

>  <INSTRUMENT>  (5848) 
SHIMADZU LKB-2091

>  <ION MODE>  (5848) 
P

>  <INCHIKEY>  (5848) 
UKPBXIFLSVLDPA-UHFFFAOYSA-N

>  <FORMULA>  (5848) 
C3H10N2

>  <EXACT MASS>  (5848) 
74.08439831999999

>  <MW>  (5848) 
74

>  <ID>  (5848) 
JP000366

>  <CONTRIBUTOR>  (5848) 
University of Tokyo Team, {Faculty of Engineering, University of Tokyo

>  <COMMENT>  (5848) 
SMILES=CCCNN
InChI=InChI=1S/C3H10N2/c1-2-3-5-4/h5H,2-4H2,1H3
computed SMILES=NNCCC
accession=JP000366
date=2016.01.19 (Created 2008.10.21, modified 2011.05.06)
author=SASAKI S, TOYOHASHI UNIV. OF TECH.
license=CC BY-NC-SA
exact mass=74.0844
ionization energy=70 eV
ion type=[M]+*
computed spectral entropy=1.904256805758516
computed normalized entropy=0.6467299269002356
SPLASH=splash10-0002-9000000000-f8d037835ab76e48c7cd
submitter=submitter = University of Tokyo Team (Faculty of Engineering, University of Tokyo)
MoNA Rating=3.75

>  <NUM PEAKS>  (5848) 
19

>  <MASS SPECTRAL PEAKS>  (5848) 
29 10.8
30 7.7
31 14.5
32 0.25
39 7.2
40 1.7
41 14.5
42 0.62
43 11.3
44 3.4
45 99.99
46 0.25
56 2.9
57 1.3
58 0.6
59 0.19
73 1.6
74 26.4
75 4.6

>  <PREDICTED SPECTRUM>  (5848) 
14 49
15 220
16 53
17 27
25 12
26 145
27 464
28 512
29 582
30 666
31 240
32 326
39 336
40 184
41 718
42 476
43 636
44 743
45 752
46 137
56 328
57 320
58 75
59 1
73 1
74 999
75 247
76 12

$$$$

     RDKit          2D

  4  3  0  0  0  0  0  0  0  0999 V2000
   -2.5981    2.2500    0.0000 C   0  0  0  0  0  0  0  0  0  0  0  0
   -1.2990    1.5000    0.0000 C   0  0  0  0  0  0  0  0  0  0  0  0
    1.2990    1.5000    0.0000 N   0  0  0  0  0  0  0  0  0  0  0  0
    0.0000    2.2500    0.0000 N   0  0  0  0  0  0  0  0  0  0  0  0
  2  1  1  0
  4  2  1  0
  4  3  1  0
M  END
>  <NAME>  (5849) 
ETHYLHYDRAZINE

>  <SYNONYMS>  (5849) 


>  <SPECTRUM TYPE>  (5849) 
MS1

>  <INSTRUMENT TYPE>  (5849) 
EI-B

>  <INSTRUMENT>  (5849) 
SHIMADZU LKB-2091

>  <ION MODE>  (5849) 
P

>  <INCHIKEY>  (5849) 
WHRIKZCFRVTHJH-UHFFFAOYSA-N

>  <FORMULA>  (5849) 
C2H8N2

>  <EXACT MASS>  (5849) 
60.06874825599999

>  <MW>  (5849) 
60

>  <ID>  (5849) 
JP000365

>  <CONTRIBUTOR>  (5849) 
University of Tokyo Team, {Faculty of Engineering, University of Tokyo

>  <COMMENT>  (5849) 
SMILES=CCNN
InChI=InChI=1S/C2H8N2/c1-2-4-3/h4H,2-3H2,1H3
computed SMILES=NNCC
accession=JP000365
date=2016.01.19 (Created 2008.10.21, modified 2011.05.06)
author=SASAKI S, TOYOHASHI UNIV. OF TECH.
license=CC BY-NC-SA
exact mass=60.06875
ionization energy=70 eV
ion type=[M]+*
computed spectral entropy=2.099834370852741
computed normalized entropy=0.7009419330925722
SPLASH=splash10-000t-9000000000-bee1d7bd092d172a0e4d
submitter=submitter = University of Tokyo Team (Faculty of Engineering, University of Tokyo)
MoNA Rating=3.75

>  <NUM PEAKS>  (5849) 
20

>  <MASS SPECTRAL PEAKS>  (5849) 
26 3.1
27 12.6
28 11.9
29 1.05
30 10.5
31 31
32 11.4
39 0.1
40 2.9
41 5
42 25.9
43 0.46
44 2.4
45 99.99
46 2.2
57 0.08
58 1.4
59 5.6
60 42.8
61 1.9

>  <PREDICTED SPECTRUM>  (5849) 
14 52
15 162
16 52
17 73
18 82
25 21
26 152
27 458
28 551
29 651
30 943
31 652
32 316
33 37
40 118
41 315
42 617
43 722
44 510
45 829
46 270
54 133
56 449
57 141
58 16
59 213
60 999
61 297
62 3

$$$$

     RDKit          2D

 18 19  0  0  0  0  0  0  0  0999 V2000
    8.1345    2.0393    0.0000 C   0  0  0  0  0  0  0  0  0  0  0  0
   -4.8741    2.0753    0.0000 C   0  0  0  0  0  0  0  0  0  0  0  0
   -3.5783    1.3180    0.0000 C   0  0  0  0  0  0  0  0  0  0  0  0
   -4.8672    3.5761    0.0000 C   0  0  0  0  0  0  0  0  0  0  0  0
   -2.2755    2.0616    0.0000 C   0  0  0  0  0  0  0  0  0  0  0  0
   -3.5644    4.3197    0.0000 C   0  0  0  0  0  0  0  0  0  0  0  0
   -0.9659    4.3060    0.0000 C   0  0  0  0  0  0  0  0  0  0  0  0
    4.2265    4.2869    0.0000 C   0  0  0  0  0  0  0  0  0  0  0  0
    2.9129    2.0620    0.0000 C   0  0  0  0  0  0  0  0  0  0  0  0
    5.5110    3.5620    0.0000 C   0  0  0  0  0  0  0  0  0  0  0  0
    4.2374    1.2679    0.0000 C   0  0  0  0  0  0  0  0  0  0  0  0
    0.3294    3.5497    0.0000 C   0  0  0  0  0  0  0  0  0  0  0  0
   -2.2686    3.5624    0.0000 C   0  0  0  0  0  0  0  0  0  0  0  0
    2.9274    3.5369    0.0000 C   0  0  0  0  0  0  0  0  0  0  0  0
    5.5365    2.0179    0.0000 C   0  0  0  0  0  0  0  0  0  0  0  0
    1.6321    4.2933    0.0000 C   0  0  0  0  0  0  0  0  0  0  0  0
    1.6395    5.7932    0.0000 O   0  0  0  0  0  0  0  0  0  0  0  0
    6.8417    1.2786    0.0000 O   0  0  0  0  0  0  0  0  0  0  0  0
  3  2  2  0
  4  2  1  0
  5  3  1  0
  6  4  2  0
 10  8  2  0
 11  9  1  0
  7 12  2  0
 13  5  2  0
 13  6  1  0
 13  7  1  0
 14  8  1  0
 14  9  2  0
 15 10  1  0
 15 11  2  0
 16 12  1  0
 16 14  1  0
 17 16  2  0
 18  1  1  0
 18 15  1  0
M  END
>  <NAME>  (5850) 
4'-METHOXYCHALCONE

>  <SYNONYMS>  (5850) 
1-(4-METHOXYPHENYL)-3-PHENYL-2-PROPEN-1-ONE

>  <SPECTRUM TYPE>  (5850) 
MS1

>  <INSTRUMENT TYPE>  (5850) 
EI-B

>  <INSTRUMENT>  (5850) 
HITACHI RMU-6D

>  <ION MODE>  (5850) 
P

>  <INCHIKEY>  (5850) 
KJHHAPASNNVTSN-KPKJPENVSA-N

>  <FORMULA>  (5850) 
C16H14O2

>  <EXACT MASS>  (5850) 
238.099379688

>  <MW>  (5850) 
238

>  <ID>  (5850) 
JP000364

>  <CONTRIBUTOR>  (5850) 
University of Tokyo Team, {Faculty of Engineering, University of Tokyo

>  <COMMENT>  (5850) 
SMILES=COc(c2)ccc(c2)C(=O)C=Cc(c1)cccc1
InChI=InChI=1S/C16H14O2/c1-18-15-10-8-14(9-11-15)16(17)12-7-13-5-3-2-4-6-13/h2-12H,1H3/b12-7+
computed SMILES=O=C(C=CC=1C=CC=CC1)C2=CC=C(OC)C=C2
ion type=[M]+*
accession=JP000364
date=2016.01.19 (Created 2008.10.21, modified 2011.05.06)
author=SASAKI S, TOYOHASHI UNIV. OF TECH.
license=CC BY-NC-SA
exact mass=238.09938
ionization energy=70 eV
computed spectral entropy=3.2346807231890384
computed normalized entropy=0.7153542603931341
SPLASH=splash10-002r-9640000000-b17626c6d451f2b04fe7
submitter=submitter = University of Tokyo Team (Faculty of Engineering, University of Tokyo)
MoNA Rating=3.75

>  <NUM PEAKS>  (5850) 
92

>  <MASS SPECTRAL PEAKS>  (5850) 
14 2.5
15 3
16 1
17 0.4
18 16
27 9
28 61.5
29 0.4
32 28
33 2.5
37 2
38 0.4
39 7.5
40 1
42 1.5
45 0.5
46 2
47 1
48 1.5
50 3.1
51 42
52 6
53 3
54 0.1
56 1.5
61 2
62 11
63 1.4
64 2
65 1
74 5
75 0.4
76 7
77 82
81 1
82 0.1
83 1
84 1
85 1
86 0.1
87 2
92 24
93 2.5
103 1.8
104 2
105 37
106 33
107 1.7
108 4
109 1
115 2
116 0.1
117 1
118 1
127 2
131 1.1
132 0.5
133 1.5
135 99.99
136 0.75
137 1
140 1
142 1.5
149 0.2
150 17.5
151 2
152 3
153 0.1
160 2
161 1
177 1
178 0.1
179 2
180 2
194 2
195 0.8
196 1
205 1
206 1
207 0.4
208 1
209 3
210 8.5
211 0.1
222 1
223 11
224 1
236 0.1
237 46.5
238 73
239 7
240 1.5

>  <PREDICTED SPECTRUM>  (5850) 
15 74
26 0
27 42
28 0
29 55
31 0
37 3
38 99
39 182
40 37
41 38
43 72
50 226
51 384
52 117
53 90
62 107
63 288
64 260
65 141
66 54
69 27
74 131
75 230
76 266
77 699
78 221
79 133
80 7
88 20
89 270
90 183
91 184
92 351
93 91
101 80
102 272
103 480
104 191
105 250
106 59
107 258
108 170
109 0
115 71
117 45
118 215
119 99
120 23
121 86
122 16
129 37
130 76
131 459
132 259
133 223
134 97
135 455
136 19
139 77
141 43
147 28
148 36
149 74
150 16
151 93
152 142
153 37
160 56
161 459
162 80
163 9
164 50
165 197
166 92
167 105
168 64
176 34
177 72
178 214
179 140
180 93
193 50
194 157
195 379
196 112
207 459
208 225
209 197
210 247
211 84
221 52
222 103
223 308
224 119
237 822
238 999
239 384
240 119

$$$$

     RDKit          2D

 18 19  0  0  0  0  0  0  0  0999 V2000
    8.1345    2.0393    0.0000 C   0  0  0  0  0  0  0  0  0  0  0  0
   -4.8741    2.0753    0.0000 C   0  0  0  0  0  0  0  0  0  0  0  0
   -3.5783    1.3180    0.0000 C   0  0  0  0  0  0  0  0  0  0  0  0
   -4.8672    3.5761    0.0000 C   0  0  0  0  0  0  0  0  0  0  0  0
   -2.2755    2.0616    0.0000 C   0  0  0  0  0  0  0  0  0  0  0  0
   -3.5644    4.3197    0.0000 C   0  0  0  0  0  0  0  0  0  0  0  0
    4.2265    4.2869    0.0000 C   0  0  0  0  0  0  0  0  0  0  0  0
    2.9129    2.0620    0.0000 C   0  0  0  0  0  0  0  0  0  0  0  0
    1.6321    4.2933    0.0000 C   0  0  0  0  0  0  0  0  0  0  0  0
    5.5110    3.5620    0.0000 C   0  0  0  0  0  0  0  0  0  0  0  0
    4.2374    1.2679    0.0000 C   0  0  0  0  0  0  0  0  0  0  0  0
    0.3294    3.5497    0.0000 C   0  0  0  0  0  0  0  0  0  0  0  0
    2.9274    3.5369    0.0000 C   0  0  0  0  0  0  0  0  0  0  0  0
   -2.2686    3.5624    0.0000 C   0  0  0  0  0  0  0  0  0  0  0  0
    5.5365    2.0179    0.0000 C   0  0  0  0  0  0  0  0  0  0  0  0
   -0.9659    4.3060    0.0000 C   0  0  0  0  0  0  0  0  0  0  0  0
   -0.9585    5.8060    0.0000 O   0  0  0  0  0  0  0  0  0  0  0  0
    6.8417    1.2786    0.0000 O   0  0  0  0  0  0  0  0  0  0  0  0
  3  2  2  0
  4  2  1  0
  5  3  1  0
  6  4  2  0
 10  7  2  0
 11  8  1  0
  9 12  2  0
 13  7  1  0
 13  8  2  0
 13  9  1  0
 14  5  2  0
 14  6  1  0
 15 10  1  0
 15 11  2  0
 16 12  1  0
 16 14  1  0
 17 16  2  0
 18  1  1  0
 18 15  1  0
M  END
>  <NAME>  (5851) 
4-METHOXYCHALCONE

>  <SYNONYMS>  (5851) 
3-(4-METHOXYPHENYL)-1-PHENYL-2-PROPEN-1-ONE

>  <SPECTRUM TYPE>  (5851) 
MS1

>  <INSTRUMENT TYPE>  (5851) 
EI-B

>  <INSTRUMENT>  (5851) 
HITACHI RMU-6D

>  <ION MODE>  (5851) 
P

>  <INCHIKEY>  (5851) 
XUFXKBJMCRJATM-FMIVXFBMSA-N

>  <FORMULA>  (5851) 
C16H14O2

>  <EXACT MASS>  (5851) 
238.099379688

>  <MW>  (5851) 
238

>  <ID>  (5851) 
JP000363

>  <CONTRIBUTOR>  (5851) 
University of Tokyo Team, {Faculty of Engineering, University of Tokyo

>  <COMMENT>  (5851) 
SMILES=COc(c2)ccc(c2)C=CC(=O)c(c1)cccc1
InChI=InChI=1S/C16H14O2/c1-18-15-10-7-13(8-11-15)9-12-16(17)14-5-3-2-4-6-14/h2-12H,1H3/b12-9+
computed SMILES=O=C(C=CC1=CC=C(OC)C=C1)C=2C=CC=CC2
accession=JP000363
date=2016.01.19 (Created 2008.10.21, modified 2011.05.06)
author=SASAKI S, TOYOHASHI UNIV. OF TECH.
license=CC BY-NC-SA
exact mass=238.09938
ionization energy=70 eV
ion type=[M]+*
computed spectral entropy=3.0114772832914047
computed normalized entropy=0.7514916140212845
SPLASH=splash10-000i-3970000000-42f552356e35d2c1010a
submitter=submitter = University of Tokyo Team (Faculty of Engineering, University of Tokyo)
MoNA Rating=3.75

>  <NUM PEAKS>  (5851) 
55

>  <MASS SPECTRAL PEAKS>  (5851) 
28 3
29 1.5
38 5
51 1.85
52 2.5
53 2
74 3
75 0.4
76 7
77 55
78 8
79 0.7
101 2.5
102 5.5
103 6.5
104 0.25
105 30
107 1.5
108 48
109 0.35
126 1.5
127 1.5
129 5
131 0.1
132 2
133 31
134 4.5
151 0.2
152 7
154 2
161 58
162 1.5
163 1.5
164 10
165 4
166 1
167 2
176 2
177 3
178 0.5
179 7
194 3
195 13
196 0.2
207 12
208 2
209 5
210 0.5
221 2
222 1.5
223 22
224 0.4
237 44
238 99.99
239 17

>  <PREDICTED SPECTRUM>  (5851) 
15 35
26 3
27 41
38 29
39 122
40 6
41 8
43 25
50 190
51 398
52 101
53 56
55 8
62 78
63 219
64 141
65 119
66 29
74 85
75 166
76 189
77 749
78 204
79 87
82 9
88 28
89 299
90 157
91 159
92 174
93 16
101 98
102 220
103 139
104 38
105 504
106 106
107 24
108 30
115 7
117 93
118 187
119 101
121 142
122 11
130 136
131 158
132 117
133 390
134 119
135 16
139 74
150 11
151 63
152 135
160 29
161 473
162 136
163 141
164 15
165 106
166 114
167 68
177 66
178 185
179 218
180 63
194 84
195 323
196 95
206 1
207 306
208 164
209 113
210 164
211 21
221 46
222 43
223 411
224 146
225 5
237 565
238 999
239 374
240 101

$$$$

     RDKit          2D

 11 12  0  0  0  0  0  0  0  0999 V2000
   -1.4390   -4.0000    0.0000 C   0  0  0  0  0  0  0  0  0  0  0  0
    1.1590   -4.0000    0.0000 C   0  0  0  0  0  0  0  0  0  0  0  0
   -0.8896    2.5493    0.0000 C   0  0  0  0  0  0  0  0  0  0  0  0
   -1.4400   -1.0000    0.0000 C   0  0  0  0  0  0  0  0  0  0  0  0
   -1.4400    0.5000    0.0000 C   0  0  0  0  0  0  0  0  0  0  0  0
    1.1600   -1.0000    0.0000 C   0  0  0  0  0  0  0  0  0  0  0  0
   -0.1400   -3.2500    0.0000 C   0  0  0  0  0  0  0  0  0  0  0  0
   -0.1400   -1.7500    0.0000 C   0  0  0  0  0  0  0  0  0  0  0  0
    1.1600    0.5000    0.0000 C   0  0  0  0  0  0  0  0  0  0  0  0
   -0.1400    1.2500    0.0000 C   0  0  0  0  0  0  0  0  0  0  0  0
    1.1600    2.0000    0.0000 O   0  0  0  0  0  0  0  0  0  0  0  0
  5  4  1  0
  7  1  1  0
  7  2  1  0
  8  4  1  0
  8  6  1  0
  8  7  1  0
  9  6  1  0
 10  3  1  0
 10  5  1  0
 10  9  1  0
 11  9  1  0
 11 10  1  0
M  END
>  <NAME>  (5852) 
1,2-EPOXY MENTHANE

>  <SYNONYMS>  (5852) 


>  <SPECTRUM TYPE>  (5852) 
MS1

>  <INSTRUMENT TYPE>  (5852) 
EI-B

>  <INSTRUMENT>  (5852) 
HITACHI RMU-6D

>  <ION MODE>  (5852) 
P

>  <INCHIKEY>  (5852) 
WSHVHJSDSVPPIV-UHFFFAOYSA-N

>  <FORMULA>  (5852) 
C10H18O

>  <EXACT MASS>  (5852) 
154.135765196

>  <MW>  (5852) 
154

>  <ID>  (5852) 
JP000361

>  <CONTRIBUTOR>  (5852) 
University of Tokyo Team, {Faculty of Engineering, University of Tokyo

>  <COMMENT>  (5852) 
SMILES=CC(C)C(C2)CC(O1)C(C)(C2)1
InChI=InChI=1S/C10H18O/c1-7(2)8-4-5-10(3)9(6-8)11-10/h7-9H,4-6H2,1-3H3
computed SMILES=O1C2CC(CCC12C)C(C)C
accession=JP000361
date=2016.01.19 (Created 2008.10.21, modified 2011.05.06)
author=SASAKI S, TOYOHASHI UNIV. OF TECH.
license=CC BY-NC-SA
exact mass=154.13577
ionization energy=70 eV
ion type=[M]+*
computed spectral entropy=3.7317960378790525
computed normalized entropy=0.829323085037318
SPLASH=splash10-06zc-9200000000-c24bc0b83a9c600aea53
submitter=submitter = University of Tokyo Team (Faculty of Engineering, University of Tokyo)
MoNA Rating=3.75

>  <NUM PEAKS>  (5852) 
90

>  <MASS SPECTRAL PEAKS>  (5852) 
15 12
18 2
25 2
26 4.4
27 10
28 36
29 0.5
30 0.4
31 0.5
37 0.5
38 2
39 5
40 10.5
41 65
42 20
43 8.6
44 31
45 10
50 6
51 1.65
52 3.5
53 25
54 13.5
55 7.9
56 64
57 22
58 18
59 1.3
62 0.5
63 1.7
64 0.5
65 0.7
66 3
67 46
68 29
69 8.6
70 22
71 77
72 9
73 1.3
74 2
75 1.3
76 1.5
77 3.6
78 3.5
79 11
80 4
81 4.4
82 21.5
83 59
84 54.5
85 2.9
86 5
87 0.5
91 10
92 0.3
93 32
94 8
95 51.5
96 1.6
97 21
98 14
99 3
105 4.05
106 3
107 6
108 18
109 1.3
110 16
111 99.99
112 14
113 0.4
119 1.5
121 9
122 1
123 0.55
124 0.5
125 17
126 11
127 0.1
129 1
135 1
136 14
137 0.2
138 5
139 37
140 3.5
141 0.05
154 5
155 0.5

>  <PREDICTED SPECTRUM>  (5852) 
15 7
26 91
27 389
28 198
29 299
30 48
31 88
32 17
37 16
38 78
39 440
40 234
41 748
42 385
43 684
44 267
45 122
50 124
51 247
52 181
53 371
54 280
55 568
56 435
57 406
58 237
59 121
62 9
63 126
64 72
65 249
66 209
67 578
68 403
69 583
70 523
71 563
72 334
73 126
77 298
78 178
79 386
80 252
81 432
82 528
83 701
84 661
85 372
86 283
87 104
91 236
92 99
93 445
94 320
95 534
96 387
97 504
98 328
99 226
100 113
105 15
106 30
107 338
108 266
109 336
110 405
111 999
112 517
113 167
119 15
121 449
122 81
123 145
124 79
125 416
126 349
127 101
135 87
136 287
137 159
138 37
139 529
140 186
153 68
154 307
155 128

$$$$

     RDKit          2D

 11 12  0  0  0  0  0  0  0  0999 V2000
   -0.1392    3.8481    0.0000 C   0  0  0  0  0  0  0  0  0  0  0  0
   -2.3896    2.5498    0.0000 C   0  0  0  0  0  0  0  0  0  0  0  0
   -0.1400   -3.2500    0.0000 C   0  0  0  0  0  0  0  0  0  0  0  0
   -1.4400   -1.0000    0.0000 C   0  0  0  0  0  0  0  0  0  0  0  0
   -1.4400    0.5000    0.0000 C   0  0  0  0  0  0  0  0  0  0  0  0
    1.1600   -1.0000    0.0000 C   0  0  0  0  0  0  0  0  0  0  0  0
   -0.8896    2.5493    0.0000 C   0  0  0  0  0  0  0  0  0  0  0  0
   -0.1400   -1.7500    0.0000 C   0  0  0  0  0  0  0  0  0  0  0  0
    1.1600    0.5000    0.0000 C   0  0  0  0  0  0  0  0  0  0  0  0
   -0.1400    1.2500    0.0000 C   0  0  0  0  0  0  0  0  0  0  0  0
    1.1600    2.0000    0.0000 O   0  0  0  0  0  0  0  0  0  0  0  0
  5  4  1  0
  7  1  1  0
  7  2  1  0
  8  3  1  0
  8  4  1  0
  8  6  1  0
  9  6  1  0
 10  5  1  0
 10  7  1  0
 10  9  1  0
 11  9  1  0
 11 10  1  0
M  END
>  <NAME>  (5853) 
3,4-EPOXY MENTHANE

>  <SYNONYMS>  (5853) 


>  <SPECTRUM TYPE>  (5853) 
MS1

>  <INSTRUMENT TYPE>  (5853) 
EI-B

>  <INSTRUMENT>  (5853) 
HITACHI RMU-6D

>  <ION MODE>  (5853) 
P

>  <INCHIKEY>  (5853) 
PPERHRAPFJGBED-UHFFFAOYSA-N

>  <FORMULA>  (5853) 
C10H18O

>  <EXACT MASS>  (5853) 
154.135765196

>  <MW>  (5853) 
154

>  <ID>  (5853) 
JP000360

>  <CONTRIBUTOR>  (5853) 
University of Tokyo Team, {Faculty of Engineering, University of Tokyo

>  <COMMENT>  (5853) 
SMILES=CC(C2)CC(O1)C(C2)(C(C)C)1
InChI=InChI=1S/C10H18O/c1-7(2)10-5-4-8(3)6-9(10)11-10/h7-9H,4-6H2,1-3H3
computed SMILES=O1C2CC(C)CCC12C(C)C
accession=JP000360
date=2016.01.19 (Created 2008.10.21, modified 2011.05.06)
author=SASAKI S, TOYOHASHI UNIV. OF TECH.
license=CC BY-NC-SA
exact mass=154.13577
ionization energy=70 eV
ion type=[M]+*
computed spectral entropy=3.3398911185283198
computed normalized entropy=0.7579087595838483
SPLASH=splash10-052f-9200000000-528dc9debe987dec5627
submitter=submitter = University of Tokyo Team (Faculty of Engineering, University of Tokyo)
MoNA Rating=3.75

>  <NUM PEAKS>  (5853) 
82

>  <MASS SPECTRAL PEAKS>  (5853) 
15 0.5
17 0.7
18 5
26 0.05
27 8
28 19
39 25
40 0.5
41 73
42 12
43 99.99
44 0.5
45 2
51 2.5
52 1
53 1.5
54 4.5
55 88
56 65
57 1.45
58 1.5
59 2
65 3
66 0.2
67 21.7
68 22
69 82
70 2.5
71 73
72 4.5
73 1
77 0.5
78 0.5
79 8
80 1.5
81 2.65
82 6
83 32
84 11
85 0.5
86 13
87 2
91 3
92 0.03
93 8
94 2
95 23.5
96 0.3
97 14
98 7
99 42.5
100 0.4
107 1
108 0.5
109 6
110 0.5
111 75
112 12
113 5
114 0.05
115 2
119 3
121 4
123 0.1
124 0.5
125 32.5
126 5
127 0.3
128 13
129 0.8
134 0.5
135 0.05
136 0.5
137 0.5
138 0.5
139 7
140 7
141 0.5
142 0.5
153 0.1
154 45
155 6

>  <PREDICTED SPECTRUM>  (5853) 
14 3
15 3
26 95
27 446
28 183
29 366
30 15
31 41
32 9
37 30
38 96
39 527
40 243
41 881
42 284
43 670
44 130
45 105
50 160
51 310
52 258
53 554
54 333
55 875
56 367
57 270
58 162
59 57
62 41
63 150
64 112
65 357
66 237
67 738
68 354
69 699
70 317
71 254
72 72
77 413
78 155
79 551
80 277
81 724
82 376
83 597
84 299
85 109
86 98
87 4
91 324
92 153
93 389
94 197
95 483
96 226
97 387
98 268
99 201
100 60
101 1
105 102
107 293
108 122
109 368
110 286
111 999
112 420
113 98
121 189
122 93
123 73
124 51
125 241
126 203
135 19
136 149
137 125
138 89
139 285
140 67
153 61
154 220
155 77

$$$$

     RDKit          2D

 11 12  0  0  0  0  0  0  0  0999 V2000
    1.1590   -4.0000    0.0000 C   0  0  0  0  0  0  0  0  0  0  0  0
   -1.4390   -4.0000    0.0000 C   0  0  0  0  0  0  0  0  0  0  0  0
   -0.8896    2.5493    0.0000 C   0  0  0  0  0  0  0  0  0  0  0  0
   -1.4400   -1.0000    0.0000 C   0  0  0  0  0  0  0  0  0  0  0  0
   -1.4400    0.5000    0.0000 C   0  0  0  0  0  0  0  0  0  0  0  0
    1.1600   -1.0000    0.0000 C   0  0  0  0  0  0  0  0  0  0  0  0
   -0.1400   -3.2500    0.0000 C   0  0  0  0  0  0  0  0  0  0  0  0
   -0.1400   -1.7500    0.0000 C   0  0  0  0  0  0  0  0  0  0  0  0
    1.1600    0.5000    0.0000 C   0  0  0  0  0  0  0  0  0  0  0  0
   -0.1400    1.2500    0.0000 C   0  0  0  0  0  0  0  0  0  0  0  0
    1.1600    2.0000    0.0000 O   0  0  0  0  0  0  0  0  0  0  0  0
  5  4  1  0
  7  1  2  0
  7  2  1  0
  8  4  1  0
  8  6  1  0
  8  7  1  0
  9  6  1  0
 10  3  1  0
 10  5  1  0
 10  9  1  0
 11  9  1  0
 11 10  1  0
M  END
>  <NAME>  (5854) 
D-LIMONENE 1,2-EPOXIDE

>  <SYNONYMS>  (5854) 


>  <SPECTRUM TYPE>  (5854) 
MS1

>  <INSTRUMENT TYPE>  (5854) 
EI-B

>  <INSTRUMENT>  (5854) 
HITACHI RMU-6D

>  <ION MODE>  (5854) 
P

>  <INCHIKEY>  (5854) 
CCEFMUBVSUDRLG-UHFFFAOYSA-N

>  <FORMULA>  (5854) 
C10H16O

>  <EXACT MASS>  (5854) 
152.120115132

>  <MW>  (5854) 
152

>  <ID>  (5854) 
JP000359

>  <CONTRIBUTOR>  (5854) 
University of Tokyo Team, {Faculty of Engineering, University of Tokyo

>  <COMMENT>  (5854) 
SMILES=CC(=C)C(C2)CC(O1)C(C)(C2)1
InChI=InChI=1S/C10H16O/c1-7(2)8-4-5-10(3)9(6-8)11-10/h8-9H,1,4-6H2,2-3H3
computed SMILES=O1C2CC(C(=C)C)CCC12C
accession=JP000359
date=2016.01.19 (Created 2008.10.21, modified 2011.05.06)
author=SASAKI S, TOYOHASHI UNIV. OF TECH.
license=CC BY-NC-SA
exact mass=152.12012
ionization energy=70 eV
ion type=[M]+*
computed spectral entropy=3.8560697228284564
computed normalized entropy=0.8679658834789435
SPLASH=splash10-052f-9200000000-fecff1839cd311e2483c
submitter=submitter = University of Tokyo Team (Faculty of Engineering, University of Tokyo)
MoNA Rating=3.75

>  <NUM PEAKS>  (5854) 
85

>  <MASS SPECTRAL PEAKS>  (5854) 
15 27
17 1
18 16
26 0.9
27 55
28 32
29 55
30 0.2
31 10
37 2
39 68
40 4.1
41 75
42 40
43 99.99
44 5.7
45 29
50 16
51 40
52 2.6
53 60
54 41
55 86
56 3.9
57 19
58 18
59 13
62 0.4
63 15
64 4
65 42
66 2.9
67 91
68 61
69 71
70 1.4
71 64
72 11
74 1
75 0.1
77 53
78 21
79 85
80 3.9
81 69
82 64
83 52
84 5.3
85 5
88 1
91 60
92 3.8
93 86
94 88
95 88
96 2.8
97 31
98 1
102 1
103 0.5
104 2
105 34
106 17
107 4.6
108 87
109 97
110 45
111 1.7
115 2
117 5
120 61
121 0.8
122 61
123 25
124 2
129 0.5
133 2
134 26
135 4
136 0.4
137 78
138 14
151 2
152 3.3
153 3

>  <PREDICTED SPECTRUM>  (5854) 
25 6
26 76
27 368
28 177
29 336
30 68
31 137
32 11
33 9
35 26
36 87
37 97
38 171
39 674
40 345
41 989
42 367
43 999
44 312
45 177
46 14
47 64
49 63
50 188
51 398
52 296
53 648
54 341
55 676
56 340
57 391
58 221
59 243
60 99
61 87
62 89
63 224
64 153
65 429
66 303
67 890
68 596
69 647
70 323
71 373
72 208
73 197
74 6
75 123
76 104
77 592
78 315
79 681
80 304
81 740
82 462
83 325
84 272
85 289
86 59
88 43
89 145
90 86
91 592
92 406
93 899
94 524
95 495
96 286
97 279
98 108
99 100
100 11
101 223
102 8
103 100
104 17
105 386
106 273
107 699
108 552
109 934
110 362
111 233
112 65
115 98
116 151
117 280
118 117
119 507
120 209
121 462
122 128
123 204
124 167
125 139
126 12
131 37
133 36
134 367
135 267
136 166
137 281
138 91
139 79
152 52

$$$$

     RDKit          2D

 10 10  0  0  0  0  0  0  0  0999 V2000
    0.0000    3.0000    0.0000 C   0  0  0  0  0  0  0  0  0  0  0  0
   -2.5989   -1.5002    0.0000 C   0  0  0  0  0  0  0  0  0  0  0  0
    3.8981   -0.7504    0.0000 C   0  0  0  0  0  0  0  0  0  0  0  0
    1.3000    0.7500    0.0000 C   0  0  0  0  0  0  0  0  0  0  0  0
    0.0000    1.5000    0.0000 C   0  0  0  0  0  0  0  0  0  0  0  0
   -1.3000   -0.7500    0.0000 C   0  0  0  0  0  0  0  0  0  0  0  0
    1.3000   -0.7500    0.0000 C   0  0  0  0  0  0  0  0  0  0  0  0
   -1.3000    0.7500    0.0000 N   0  0  0  0  0  0  0  0  0  0  0  0
   -0.0000   -1.5000    0.0000 N   0  0  0  0  0  0  0  0  0  0  0  0
    2.5989   -1.5002    0.0000 O   0  0  0  0  0  0  0  0  0  0  0  0
  5  1  1  0
  5  4  2  0
  6  2  1  0
  7  4  1  0
  8  5  1  0
  8  6  2  0
  9  6  1  0
  9  7  2  0
 10  3  1  0
 10  7  1  0
M  END
>  <NAME>  (5855) 
4-METHOXY-2,6-DIMETHYLPYRIMIDINE

>  <SYNONYMS>  (5855) 


>  <SPECTRUM TYPE>  (5855) 
MS1

>  <INSTRUMENT TYPE>  (5855) 
EI-B

>  <INSTRUMENT>  (5855) 
HITACHI RMU-6D

>  <ION MODE>  (5855) 
P

>  <INCHIKEY>  (5855) 
NBLOKQVJTMLMRG-UHFFFAOYSA-N

>  <FORMULA>  (5855) 
C7H10N2O

>  <EXACT MASS>  (5855) 
138.07931294

>  <MW>  (5855) 
138

>  <ID>  (5855) 
JP000350

>  <CONTRIBUTOR>  (5855) 
University of Tokyo Team, {Faculty of Engineering, University of Tokyo

>  <COMMENT>  (5855) 
SMILES=COc(c1)nc(C)nc(C)1
InChI=InChI=1S/C7H10N2O/c1-5-4-7(10-3)9-6(2)8-5/h4H,1-3H3
computed SMILES=N=1C(=NC(=CC1OC)C)C
accession=JP000350
date=2016.01.19 (Created 2008.10.21, modified 2011.05.06)
author=SASAKI S, TOYOHASHI UNIV. OF TECH.
license=CC BY-NC-SA
exact mass=138.07931
ionization energy=70 eV
ion type=[M]+*
computed spectral entropy=1.6039307538499403
computed normalized entropy=0.8951707979760045
SPLASH=splash10-00kr-8900000000-461281aa0ed7a972d570
submitter=submitter = University of Tokyo Team (Faculty of Engineering, University of Tokyo)
MoNA Rating=3.75

>  <NUM PEAKS>  (5855) 
6

>  <MASS SPECTRAL PEAKS>  (5855) 
39 55
67 99.99
108 40
109 3.5
137 54
138 68

>  <PREDICTED SPECTRUM>  (5855) 
14 36
15 115
25 10
26 88
27 164
28 113
29 50
30 98
31 2
36 24
37 117
38 227
39 472
40 340
41 425
42 592
43 216
44 10
49 43
50 115
51 295
52 343
53 254
54 318
55 286
56 171
57 56
62 18
63 39
64 84
65 69
66 167
67 377
68 380
69 270
70 110
77 12
78 37
79 70
80 173
81 209
82 193
83 48
93 108
95 302
96 186
97 195
98 122
106 92
107 313
108 357
109 412
110 198
111 2
123 181
137 591
138 999
139 277

$$$$

     RDKit          2D

 12 12  0  0  0  0  0  0  0  0999 V2000
   -3.8981   -0.7504    0.0000 C   0  0  0  0  0  0  0  0  0  0  0  0
    5.1970   -1.5006    0.0000 C   0  0  0  0  0  0  0  0  0  0  0  0
    0.0000    3.0000    0.0000 C   0  0  0  0  0  0  0  0  0  0  0  0
   -2.5989   -1.5002    0.0000 C   0  0  0  0  0  0  0  0  0  0  0  0
    3.8981   -0.7504    0.0000 C   0  0  0  0  0  0  0  0  0  0  0  0
    1.3000    0.7500    0.0000 C   0  0  0  0  0  0  0  0  0  0  0  0
    0.0000    1.5000    0.0000 C   0  0  0  0  0  0  0  0  0  0  0  0
   -1.3000   -0.7500    0.0000 C   0  0  0  0  0  0  0  0  0  0  0  0
    1.3000   -0.7500    0.0000 C   0  0  0  0  0  0  0  0  0  0  0  0
   -1.3000    0.7500    0.0000 N   0  0  0  0  0  0  0  0  0  0  0  0
    0.0000   -1.5000    0.0000 N   0  0  0  0  0  0  0  0  0  0  0  0
    2.5989   -1.5002    0.0000 O   0  0  0  0  0  0  0  0  0  0  0  0
  4  1  1  0
  5  2  1  0
  7  3  1  0
  7  6  2  0
  8  4  1  0
  9  6  1  0
 10  7  1  0
 10  8  2  0
 11  8  1  0
 11  9  2  0
 12  5  1  0
 12  9  1  0
M  END
>  <NAME>  (5856) 
4-ETHOXY-2-ETHYL-6-METHYLPRIMIDINE

>  <SYNONYMS>  (5856) 


>  <SPECTRUM TYPE>  (5856) 
MS1

>  <INSTRUMENT TYPE>  (5856) 
EI-B

>  <INSTRUMENT>  (5856) 
HITACHI RMU-6D

>  <ION MODE>  (5856) 
P

>  <INCHIKEY>  (5856) 
GFBRLSQLXXVWNF-UHFFFAOYSA-N

>  <FORMULA>  (5856) 
C9H14N2O

>  <EXACT MASS>  (5856) 
166.11061306800002

>  <MW>  (5856) 
166

>  <ID>  (5856) 
JP000349

>  <CONTRIBUTOR>  (5856) 
University of Tokyo Team, {Faculty of Engineering, University of Tokyo

>  <COMMENT>  (5856) 
SMILES=CCOc(c1)nc(CC)nc(C)1
InChI=InChI=1S/C9H14N2O/c1-4-8-10-7(3)6-9(11-8)12-5-2/h6H,4-5H2,1-3H3
computed SMILES=N=1C(OCC)=CC(=NC1CC)C
accession=JP000349
date=2016.01.19 (Created 2008.10.21, modified 2011.05.06)
author=SASAKI S, TOYOHASHI UNIV. OF TECH.
license=CC BY-NC-SA
exact mass=166.11061
ionization energy=70 eV
ion type=[M]+*
computed spectral entropy=2.361567710349296
computed normalized entropy=0.8948527505818082
SPLASH=splash10-0gba-9800000000-0085829271c95b2f40ee
submitter=submitter = University of Tokyo Team (Faculty of Engineering, University of Tokyo)
MoNA Rating=3.75

>  <NUM PEAKS>  (5856) 
14

>  <MASS SPECTRAL PEAKS>  (5856) 
28 56
39 36
41 31
42 2.9
54 36
56 51
67 90
84 2
110 24
122 24
147 99.99
148 6
151 63
166 60

>  <PREDICTED SPECTRUM>  (5856) 
26 84
27 237
28 168
29 140
30 13
37 28
38 136
39 437
40 305
41 431
42 415
43 254
44 157
50 77
51 239
52 370
53 345
54 463
55 387
56 271
57 169
58 22
63 47
64 130
65 221
66 340
67 520
68 402
69 270
70 175
71 22
76 36
77 123
78 58
79 116
80 168
81 184
82 469
83 348
84 161
85 34
91 61
92 118
93 217
94 314
95 365
96 287
97 244
98 72
104 26
105 0
106 20
107 82
108 98
109 414
110 773
111 294
112 44
119 61
120 9
121 229
122 471
123 513
124 141
135 17
136 39
137 398
138 862
139 317
149 91
150 45
151 999
152 304
153 30
163 48
164 44
165 378
166 860
167 289
168 26

$$$$

     RDKit          2D

 11 11  0  0  0  0  0  0  0  0999 V2000
   -3.8981   -0.7504    0.0000 C   0  0  0  0  0  0  0  0  0  0  0  0
    0.0000    3.0000    0.0000 C   0  0  0  0  0  0  0  0  0  0  0  0
    3.8981   -0.7504    0.0000 C   0  0  0  0  0  0  0  0  0  0  0  0
   -2.5989   -1.5002    0.0000 C   0  0  0  0  0  0  0  0  0  0  0  0
    1.3000    0.7500    0.0000 C   0  0  0  0  0  0  0  0  0  0  0  0
    0.0000    1.5000    0.0000 C   0  0  0  0  0  0  0  0  0  0  0  0
   -1.3000   -0.7500    0.0000 C   0  0  0  0  0  0  0  0  0  0  0  0
    1.3000   -0.7500    0.0000 C   0  0  0  0  0  0  0  0  0  0  0  0
   -1.3000    0.7500    0.0000 N   0  0  0  0  0  0  0  0  0  0  0  0
    0.0000   -1.5000    0.0000 N   0  0  0  0  0  0  0  0  0  0  0  0
    2.5989   -1.5002    0.0000 O   0  0  0  0  0  0  0  0  0  0  0  0
  4  1  1  0
  6  2  1  0
  6  5  2  0
  7  4  1  0
  8  5  1  0
  9  6  1  0
  9  7  2  0
 10  7  1  0
 10  8  2  0
 11  3  1  0
 11  8  1  0
M  END
>  <NAME>  (5857) 
2-ETHYL-4-METHOXY-6-METHYLPYRIMIDINE

>  <SYNONYMS>  (5857) 


>  <SPECTRUM TYPE>  (5857) 
MS1

>  <INSTRUMENT TYPE>  (5857) 
EI-B

>  <INSTRUMENT>  (5857) 
HITACHI RMU-6D

>  <ION MODE>  (5857) 
P

>  <INCHIKEY>  (5857) 
XFXYDUVPPNPVLV-UHFFFAOYSA-N

>  <FORMULA>  (5857) 
C8H12N2O

>  <EXACT MASS>  (5857) 
152.094963004

>  <MW>  (5857) 
152

>  <ID>  (5857) 
JP000348

>  <CONTRIBUTOR>  (5857) 
University of Tokyo Team, {Faculty of Engineering, University of Tokyo

>  <COMMENT>  (5857) 
SMILES=CCc(n1)nc(OC)cc(C)1
InChI=InChI=1S/C8H12N2O/c1-4-7-9-6(2)5-8(10-7)11-3/h5H,4H2,1-3H3
computed SMILES=N=1C(OC)=CC(=NC1CC)C
accession=JP000348
date=2016.01.19 (Created 2008.10.21, modified 2011.05.06)
author=SASAKI S, TOYOHASHI UNIV. OF TECH.
license=CC BY-NC-SA
exact mass=152.09496
ionization energy=70 eV
ion type=[M]+*
computed spectral entropy=2.147791237613299
computed normalized entropy=0.8643347780475125
SPLASH=splash10-0udi-6900000000-26145ad401a0d1162187
submitter=submitter = University of Tokyo Team (Faculty of Engineering, University of Tokyo)
MoNA Rating=3.75

>  <NUM PEAKS>  (5857) 
12

>  <MASS SPECTRAL PEAKS>  (5857) 
39 26
42 30
54 20
56 2
67 36
68 65
83 15
84 0.8
124 30
137 33
151 99.99
152 90

>  <PREDICTED SPECTRUM>  (5857) 
14 15
15 66
25 4
26 88
27 178
28 126
29 108
30 112
36 12
37 67
38 176
39 426
40 291
41 440
42 436
43 231
44 95
45 15
50 68
51 207
52 307
53 241
54 365
55 247
56 237
57 93
61 0
62 66
63 65
64 75
65 153
66 235
67 445
68 397
69 319
70 176
71 70
76 27
77 77
78 10
79 92
80 155
81 190
82 254
83 187
84 106
89 22
90 50
91 50
92 94
93 117
94 133
95 239
96 235
97 136
98 45
105 14
106 21
107 160
108 127
109 214
110 117
111 28
121 184
122 399
123 636
124 367
125 105
136 76
137 647
138 180
149 36
150 113
151 818
152 999
153 323
154 30

$$$$

     RDKit          2D

 13 13  0  0  0  0  0  0  0  0999 V2000
   -3.8981   -0.7504    0.0000 C   0  0  0  0  0  0  0  0  0  0  0  0
    5.1970   -1.5006    0.0000 C   0  0  0  0  0  0  0  0  0  0  0  0
    3.8983    0.7496    0.0000 C   0  0  0  0  0  0  0  0  0  0  0  0
    0.0000    3.0000    0.0000 C   0  0  0  0  0  0  0  0  0  0  0  0
   -2.5989   -1.5002    0.0000 C   0  0  0  0  0  0  0  0  0  0  0  0
    1.3000    0.7500    0.0000 C   0  0  0  0  0  0  0  0  0  0  0  0
    3.8981   -0.7504    0.0000 C   0  0  0  0  0  0  0  0  0  0  0  0
    0.0000    1.5000    0.0000 C   0  0  0  0  0  0  0  0  0  0  0  0
   -1.3000   -0.7500    0.0000 C   0  0  0  0  0  0  0  0  0  0  0  0
    1.3000   -0.7500    0.0000 C   0  0  0  0  0  0  0  0  0  0  0  0
   -1.3000    0.7500    0.0000 N   0  0  0  0  0  0  0  0  0  0  0  0
    0.0000   -1.5000    0.0000 N   0  0  0  0  0  0  0  0  0  0  0  0
    2.5989   -1.5002    0.0000 O   0  0  0  0  0  0  0  0  0  0  0  0
  5  1  1  0
  7  2  1  0
  7  3  1  0
  8  4  1  0
  8  6  2  0
  9  5  1  0
 10  6  1  0
 11  8  1  0
 11  9  2  0
 12  9  1  0
 12 10  2  0
 13  7  1  0
 13 10  1  0
M  END
>  <NAME>  (5858) 
2-ETHYL-4-ISOPROPOXY-6-METHYLPYRIMIDINE

>  <SYNONYMS>  (5858) 


>  <SPECTRUM TYPE>  (5858) 
MS1

>  <INSTRUMENT TYPE>  (5858) 
EI-B

>  <INSTRUMENT>  (5858) 
HITACHI RMU-6D

>  <ION MODE>  (5858) 
P

>  <INCHIKEY>  (5858) 
AAQLJELBECCXJR-UHFFFAOYSA-N

>  <FORMULA>  (5858) 
C10H16N2O

>  <EXACT MASS>  (5858) 
180.126263132

>  <MW>  (5858) 
180

>  <ID>  (5858) 
JP000347

>  <CONTRIBUTOR>  (5858) 
University of Tokyo Team, {Faculty of Engineering, University of Tokyo

>  <COMMENT>  (5858) 
SMILES=CCc(n1)nc(OC(C)C)cc(C)1
InChI=InChI=1S/C10H16N2O/c1-5-9-11-8(4)6-10(12-9)13-7(2)3/h6-7H,5H2,1-4H3
computed SMILES=N=1C(OC(C)C)=CC(=NC1CC)C
accession=JP000347
date=2016.01.19 (Created 2008.10.21, modified 2011.05.06)
author=SASAKI S, TOYOHASHI UNIV. OF TECH.
license=CC BY-NC-SA
exact mass=180.12626
ionization energy=70 eV
ion type=[M]+*
computed spectral entropy=1.672698613761114
computed normalized entropy=0.933550871357618
SPLASH=splash10-00kr-4900000000-7ab933df7180c07d6fe5
submitter=submitter = University of Tokyo Team (Faculty of Engineering, University of Tokyo)
MoNA Rating=3.75

>  <NUM PEAKS>  (5858) 
6

>  <MASS SPECTRAL PEAKS>  (5858) 
39 35
67 93
122 81
137 99.99
138 45
180 23

>  <PREDICTED SPECTRUM>  (5858) 
26 39
27 139
28 50
29 58
37 47
38 121
39 428
40 246
41 581
42 383
43 402
44 125
45 52
50 95
51 203
52 241
53 348
54 282
55 265
56 163
57 169
58 50
62 10
64 63
65 206
66 268
67 366
68 325
69 298
70 211
71 49
75 37
77 126
78 69
79 121
80 196
81 154
82 263
83 219
84 126
85 38
87 2
92 56
93 176
94 160
95 303
96 316
97 299
98 129
105 11
106 5
107 159
108 141
109 367
110 539
111 296
112 49
119 14
120 52
121 234
122 279
123 466
124 188
125 48
133 8
135 100
136 135
137 279
138 999
139 312
140 68
149 32
151 255
152 311
153 90
154 4
163 1
165 548
166 179
167 55
179 223
180 358
181 134

$$$$

     RDKit          2D

  9  9  0  0  0  0  0  0  0  0999 V2000
    2.5987   -0.7492    0.0000 C   0  0  0  0  0  0  0  0  0  0  0  0
   -3.8971   -1.4998    0.0000 C   0  0  0  0  0  0  0  0  0  0  0  0
    0.0005   -0.7490    0.0000 C   0  0  0  0  0  0  0  0  0  0  0  0
   -0.0005   -3.7506    0.0000 C   0  0  0  0  0  0  0  0  0  0  0  0
    1.2995   -1.4990    0.0000 C   0  0  0  0  0  0  0  0  0  0  0  0
   -1.2990   -1.4998    0.0000 C   0  0  0  0  0  0  0  0  0  0  0  0
    1.2990   -2.9998    0.0000 N   0  0  0  0  0  0  0  0  0  0  0  0
   -1.2995   -3.0006    0.0000 N   0  0  0  0  0  0  0  0  0  0  0  0
   -2.5981   -0.7498    0.0000 O   0  0  0  0  0  0  0  0  0  0  0  0
  5  1  1  0
  5  3  2  0
  6  3  1  0
  7  4  2  0
  7  5  1  0
  8  4  1  0
  8  6  2  0
  9  2  1  0
  9  6  1  0
M  END
>  <NAME>  (5859) 
4-METHOXY-6-METHYLPYRIMIDINE

>  <SYNONYMS>  (5859) 


>  <SPECTRUM TYPE>  (5859) 
MS1

>  <INSTRUMENT TYPE>  (5859) 
EI-B

>  <INSTRUMENT>  (5859) 
HITACHI RMU-6D

>  <ION MODE>  (5859) 
P

>  <INCHIKEY>  (5859) 
GGFJPYWUQCOYLQ-UHFFFAOYSA-N

>  <FORMULA>  (5859) 
C6H8N2O

>  <EXACT MASS>  (5859) 
124.063662876

>  <MW>  (5859) 
124

>  <ID>  (5859) 
JP000346

>  <CONTRIBUTOR>  (5859) 
University of Tokyo Team, {Faculty of Engineering, University of Tokyo

>  <COMMENT>  (5859) 
SMILES=COc(n1)cc(C)nc1
InChI=InChI=1S/C6H8N2O/c1-5-3-6(9-2)8-4-7-5/h3-4H,1-2H3
computed SMILES=N=1C=NC(=CC1OC)C
accession=JP000346
date=2016.01.19 (Created 2008.10.21, modified 2011.05.06)
author=SASAKI S, TOYOHASHI UNIV. OF TECH.
license=CC BY-NC-SA
exact mass=124.06366
ionization energy=70 eV
ion type=[M]+*
computed spectral entropy=1.9538285100460533
computed normalized entropy=0.8148097759773777
SPLASH=splash10-01b9-9500000000-d234b2b8809bec2243f9
submitter=submitter = University of Tokyo Team (Faculty of Engineering, University of Tokyo)
MoNA Rating=3.75

>  <NUM PEAKS>  (5859) 
11

>  <MASS SPECTRAL PEAKS>  (5859) 
17 32
19 60
40 18
66 1.7
67 99.99
68 10
94 38
95 0.23
123 60
124 86
125 4

>  <PREDICTED SPECTRUM>  (5859) 
14 21
15 38
25 15
26 92
27 155
28 116
29 21
36 35
37 86
38 190
39 414
40 301
41 365
42 489
43 208
44 61
47 50
49 30
50 26
51 216
52 259
53 249
54 437
55 327
56 159
62 20
63 80
64 122
65 148
66 287
67 350
68 359
69 222
70 126
79 74
81 326
82 167
83 144
93 457
94 733
95 772
96 347
97 85
109 127
123 337
124 999
125 273
126 39

$$$$

     RDKit          2D

 13 14  0  0  0  0  0  0  0  0999 V2000
   -4.8719   -2.0631    0.0000 C   0  0  0  0  0  0  0  0  0  0  0  0
    2.9230   -3.5625    0.0000 C   0  0  0  0  0  0  0  0  0  0  0  0
    2.9234   -2.0617    0.0000 C   0  0  0  0  0  0  0  0  0  0  0  0
    1.6234   -4.3133    0.0000 C   0  0  0  0  0  0  0  0  0  0  0  0
    1.6244   -1.3117    0.0000 C   0  0  0  0  0  0  0  0  0  0  0  0
    0.3244   -3.5633    0.0000 C   0  0  0  0  0  0  0  0  0  0  0  0
   -2.2737   -2.0633    0.0000 C   0  0  0  0  0  0  0  0  0  0  0  0
   -2.2727    0.9383    0.0000 C   0  0  0  0  0  0  0  0  0  0  0  0
   -3.5727   -1.3133    0.0000 C   0  0  0  0  0  0  0  0  0  0  0  0
    0.3249   -2.0625    0.0000 C   0  0  0  0  0  0  0  0  0  0  0  0
   -0.9742   -1.3125    0.0000 C   0  0  0  0  0  0  0  0  0  0  0  0
   -3.5722    0.1875    0.0000 N   0  0  0  0  0  0  0  0  0  0  0  0
   -0.9737    0.1883    0.0000 N   0  0  0  0  0  0  0  0  0  0  0  0
  3  2  2  0
  4  2  1  0
  5  3  1  0
  6  4  2  0
  9  1  1  0
  9  7  2  0
 10  5  2  0
 10  6  1  0
 11  7  1  0
 11 10  1  0
 12  8  2  0
 12  9  1  0
 13  8  1  0
 13 11  2  0
M  END
>  <NAME>  (5860) 
4-METHYL-6-PHENYLPYRIMIDINE

>  <SYNONYMS>  (5860) 


>  <SPECTRUM TYPE>  (5860) 
MS1

>  <INSTRUMENT TYPE>  (5860) 
EI-B

>  <INSTRUMENT>  (5860) 
HITACHI RMU-6D

>  <ION MODE>  (5860) 
P

>  <INCHIKEY>  (5860) 
MTGUMZRYKWCXGO-UHFFFAOYSA-N

>  <FORMULA>  (5860) 
C11H10N2

>  <EXACT MASS>  (5860) 
170.08439832

>  <MW>  (5860) 
170

>  <ID>  (5860) 
JP000345

>  <CONTRIBUTOR>  (5860) 
University of Tokyo Team, {Faculty of Engineering, University of Tokyo

>  <COMMENT>  (5860) 
SMILES=Cc(n2)cc(nc2)c(c1)cccc1
InChI=InChI=1S/C11H10N2/c1-9-7-11(13-8-12-9)10-5-3-2-4-6-10/h2-8H,1H3
computed SMILES=N=1C=NC(=CC1C=2C=CC=CC2)C
accession=JP000345
date=2016.01.19 (Created 2008.10.21, modified 2011.05.06)
author=SASAKI S, TOYOHASHI UNIV. OF TECH.
license=CC BY-NC-SA
exact mass=170.0844
ionization energy=70 eV
ion type=[M]+*
computed spectral entropy=2.2565180340972892
computed normalized entropy=0.813866844367168
SPLASH=splash10-00dl-3900000000-1036c5970e38eb7f07e5
submitter=submitter = University of Tokyo Team (Faculty of Engineering, University of Tokyo)
MoNA Rating=3.75

>  <NUM PEAKS>  (5860) 
16

>  <MASS SPECTRAL PEAKS>  (5860) 
39 24
40 11
50 10
51 2.4
52 10
76 27
77 14
102 0.37
103 20
104 9
115 10
116 0.16
143 54
155 22
170 99.99
171 14

>  <PREDICTED SPECTRUM>  (5860) 
14 4
15 37
26 42
27 85
28 76
38 49
39 215
40 120
41 127
42 92
43 3
50 221
51 336
52 176
53 83
54 31
62 74
63 161
64 77
65 113
66 110
67 138
68 12
74 128
75 158
76 246
77 430
78 74
88 18
89 132
90 74
91 44
101 66
102 341
103 454
104 313
115 125
116 259
117 31
128 209
129 133
130 86
142 169
143 492
144 153
155 267
156 17
168 15
169 369
170 999
171 344
172 37

$$$$

     RDKit          2D

 13 14  0  0  0  0  0  0  0  0999 V2000
   -0.0000   -3.0000    0.0000 C   0  0  0  0  0  0  0  0  0  0  0  0
    5.1968    3.0006    0.0000 C   0  0  0  0  0  0  0  0  0  0  0  0
    3.8971    3.7512    0.0000 C   0  0  0  0  0  0  0  0  0  0  0  0
    5.1975    1.4998    0.0000 C   0  0  0  0  0  0  0  0  0  0  0  0
    2.5982    3.0010    0.0000 C   0  0  0  0  0  0  0  0  0  0  0  0
    3.8986    0.7496    0.0000 C   0  0  0  0  0  0  0  0  0  0  0  0
   -1.3000   -0.7500    0.0000 C   0  0  0  0  0  0  0  0  0  0  0  0
   -1.3000    0.7500    0.0000 C   0  0  0  0  0  0  0  0  0  0  0  0
   -0.0000   -1.5000    0.0000 C   0  0  0  0  0  0  0  0  0  0  0  0
    2.5989    1.5002    0.0000 C   0  0  0  0  0  0  0  0  0  0  0  0
    1.3000    0.7500    0.0000 C   0  0  0  0  0  0  0  0  0  0  0  0
    0.0000    1.5000    0.0000 N   0  0  0  0  0  0  0  0  0  0  0  0
    1.3000   -0.7500    0.0000 N   0  0  0  0  0  0  0  0  0  0  0  0
  3  2  2  0
  4  2  1  0
  5  3  1  0
  6  4  2  0
  8  7  2  0
  9  1  1  0
  9  7  1  0
 10  5  2  0
 10  6  1  0
 11 10  1  0
 12  8  1  0
 12 11  2  0
 13  9  2  0
 13 11  1  0
M  END
>  <NAME>  (5861) 
4-METHYL-2-PHENYLPURIMIDINE

>  <SYNONYMS>  (5861) 


>  <SPECTRUM TYPE>  (5861) 
MS1

>  <INSTRUMENT TYPE>  (5861) 
EI-B

>  <INSTRUMENT>  (5861) 
HITACHI RMU-6D

>  <ION MODE>  (5861) 
P

>  <INCHIKEY>  (5861) 
XPENFJAKMNONFL-UHFFFAOYSA-N

>  <FORMULA>  (5861) 
C11H10N2

>  <EXACT MASS>  (5861) 
170.08439832

>  <MW>  (5861) 
170

>  <ID>  (5861) 
JP000344

>  <CONTRIBUTOR>  (5861) 
University of Tokyo Team, {Faculty of Engineering, University of Tokyo

>  <COMMENT>  (5861) 
SMILES=Cc(c2)nc(nc2)c(c1)cccc1
InChI=InChI=1S/C11H10N2/c1-9-7-8-12-11(13-9)10-5-3-2-4-6-10/h2-8H,1H3
computed SMILES=N=1C=CC(=NC1C=2C=CC=CC2)C
accession=JP000344
date=2016.01.19 (Created 2008.10.21, modified 2011.05.06)
author=SASAKI S, TOYOHASHI UNIV. OF TECH.
license=CC BY-NC-SA
exact mass=170.0844
ionization energy=70 eV
ion type=[M]+*
computed spectral entropy=2.0728915712876197
computed normalized entropy=0.8081608181687868
SPLASH=splash10-0fk9-2900000000-ad4fb214c4ef3efd5f6e
submitter=submitter = University of Tokyo Team (Faculty of Engineering, University of Tokyo)
MoNA Rating=3.75

>  <NUM PEAKS>  (5861) 
13

>  <MASS SPECTRAL PEAKS>  (5861) 
39 19
51 14
52 6
67 1.3
76 19
77 17
103 68
104 0.23
129 14
155 25
169 14
170 99.99
171 18

>  <PREDICTED SPECTRUM>  (5861) 
15 15
37 13
38 64
39 276
40 138
41 81
42 171
49 7
50 275
51 402
52 260
53 140
54 4
62 19
63 105
64 51
66 140
67 190
68 13
74 24
75 122
76 334
77 553
78 132
79 58
102 45
103 643
104 583
128 58
129 158
143 74
155 498
156 95
168 12
169 380
170 999
171 303
172 1

$$$$

     RDKit          2D

 14 15  0  0  0  0  0  0  0  0999 V2000
   -2.5989    1.5002    0.0000 C   0  0  0  0  0  0  0  0  0  0  0  0
    5.1968    3.0006    0.0000 C   0  0  0  0  0  0  0  0  0  0  0  0
    3.8971    3.7512    0.0000 C   0  0  0  0  0  0  0  0  0  0  0  0
    5.1975    1.4998    0.0000 C   0  0  0  0  0  0  0  0  0  0  0  0
    2.5982    3.0010    0.0000 C   0  0  0  0  0  0  0  0  0  0  0  0
    3.8986    0.7496    0.0000 C   0  0  0  0  0  0  0  0  0  0  0  0
   -1.3000   -0.7500    0.0000 C   0  0  0  0  0  0  0  0  0  0  0  0
   -1.3000    0.7500    0.0000 C   0  0  0  0  0  0  0  0  0  0  0  0
    2.5989    1.5002    0.0000 C   0  0  0  0  0  0  0  0  0  0  0  0
    0.0000   -1.5000    0.0000 C   0  0  0  0  0  0  0  0  0  0  0  0
    1.3000    0.7500    0.0000 C   0  0  0  0  0  0  0  0  0  0  0  0
   -0.0000   -3.0000    0.0000 Cl  0  0  0  0  0  0  0  0  0  0  0  0
    0.0000    1.5000    0.0000 N   0  0  0  0  0  0  0  0  0  0  0  0
    1.3000   -0.7500    0.0000 N   0  0  0  0  0  0  0  0  0  0  0  0
  3  2  2  0
  4  2  1  0
  5  3  1  0
  6  4  2  0
  8  1  1  0
  8  7  2  0
  9  5  2  0
  9  6  1  0
 10  7  1  0
 11  9  1  0
 12 10  1  0
 13  8  1  0
 13 11  2  0
 14 10  2  0
 14 11  1  0
M  END
>  <NAME>  (5862) 
4-CHLORO-6-METHYL-2-PHENYLPYRIMIDINE

>  <SYNONYMS>  (5862) 


>  <SPECTRUM TYPE>  (5862) 
MS1

>  <INSTRUMENT TYPE>  (5862) 
EI-B

>  <INSTRUMENT>  (5862) 
HITACHI RMU-6D

>  <ION MODE>  (5862) 
P

>  <INCHIKEY>  (5862) 
MOLLLUIWZOISLC-UHFFFAOYSA-N

>  <FORMULA>  (5862) 
C11H9ClN2

>  <EXACT MASS>  (5862) 
204.045425968

>  <MW>  (5862) 
204

>  <ID>  (5862) 
JP000343

>  <CONTRIBUTOR>  (5862) 
University of Tokyo Team, {Faculty of Engineering, University of Tokyo

>  <COMMENT>  (5862) 
SMILES=Cc(c2)nc(nc(Cl)2)c(c1)cccc1
InChI=InChI=1S/C11H9ClN2/c1-8-7-10(12)14-11(13-8)9-5-3-2-4-6-9/h2-7H,1H3
computed SMILES=ClC=1N=C(N=C(C1)C)C=2C=CC=CC2
accession=JP000343
date=2016.01.19 (Created 2008.10.21, modified 2011.05.06)
author=SASAKI S, TOYOHASHI UNIV. OF TECH.
license=CC BY-NC-SA
exact mass=204.04543
ionization energy=70 eV
ion type=[M]+*
computed spectral entropy=1.987121126488304
computed normalized entropy=0.7996763687914936
SPLASH=splash10-0uxr-3950000000-462996c98b064ce3ae42
submitter=submitter = University of Tokyo Team (Faculty of Engineering, University of Tokyo)
MoNA Rating=3.75

>  <NUM PEAKS>  (5862) 
12

>  <MASS SPECTRAL PEAKS>  (5862) 
50 3
51 18
66 18
76 1.7
77 26
102 12
103 23
104 0.34
169 99.99
170 16
204 69
206 25

>  <PREDICTED SPECTRUM>  (5862) 
14 27
15 98
17 7
18 7
26 20
27 30
28 65
33 18
36 38
37 79
38 162
39 345
40 186
41 136
42 320
43 65
44 157
47 24
49 109
50 291
51 464
52 299
53 132
54 58
55 8
56 32
57 11
61 61
62 172
63 179
64 179
65 109
66 190
67 218
68 155
69 104
70 69
73 57
74 164
75 257
76 350
77 556
78 182
79 41
80 23
83 3
84 109
86 151
87 82
88 151
89 66
90 84
91 42
92 10
100 84
101 246
102 136
103 477
104 425
105 61
107 52
108 27
114 30
115 38
116 68
117 36
126 21
127 126
128 350
129 323
130 132
142 217
143 95
144 0
153 5
167 83
168 93
169 851
170 285
171 191
189 135
191 95
203 197
204 999
205 356
206 694
207 214
208 84

$$$$

     RDKit          2D

 15 12  0  0  0  0  0  0  0  0999 V2000
    0.3248    3.9375    0.0000 C   0  0  0  0  0  0  0  0  0  0  0  0
   -3.5724    1.6875    0.0000 C   0  0  0  0  0  0  0  0  0  0  0  0
   -0.9743    1.6875    0.0000 C   0  0  0  0  0  0  0  0  0  0  0  0
    0.3248    2.4375    0.0000 C   0  0  0  0  0  0  0  0  0  0  0  0
   -2.2733    2.4375    0.0000 C   0  0  0  0  0  0  0  0  0  0  0  0
    1.6238    1.6875    0.0000 O   0  0  0  0  0  0  0  0  0  0  0  0
   -2.2733    3.9375    0.0000 O   0  0  0  0  0  0  0  0  0  0  0  0
    1.6238    1.6875    0.0000 C   0  0  0  0  0  0  0  0  0  0  0  0
   -3.5724    1.6875    0.0000 C   0  0  0  0  0  0  0  0  0  0  0  0
   -0.9743    1.6875    0.0000 C   0  0  0  0  0  0  0  0  0  0  0  0
    0.3248    2.4375    0.0000 C   0  0  0  0  0  0  0  0  0  0  0  0
   -2.2733    2.4375    0.0000 C   0  0  0  0  0  0  0  0  0  0  0  0
    0.3248    3.9375    0.0000 O   0  0  0  0  0  0  0  0  0  0  0  0
   -2.2733    3.9375    0.0000 O   0  0  0  0  0  0  0  0  0  0  0  0
    0.0000    0.0000    0.0000 Co  0  0  0  0  0 15  0  0  0  0  0  0
  4  1  1  0
  3  4  2  0
  5  2  1  0
  5  3  1  0
  6  4  1  0
  7  5  2  0
 11  8  1  0
 10 11  2  0
 12  9  1  0
 12 10  1  0
 13 11  1  0
 14 12  2  0
M  CHG  3   6  -1  13  -1  15   2
M  END
>  <NAME>  (5863) 
COBALT DIACETYLACETONATE

>  <SYNONYMS>  (5863) 


>  <SPECTRUM TYPE>  (5863) 
MS1

>  <INSTRUMENT TYPE>  (5863) 
EI-B

>  <INSTRUMENT>  (5863) 
HITACHI RMU-6D

>  <ION MODE>  (5863) 
P

>  <INCHIKEY>  (5863) 
UTYYEGLZLFAFDI-OHSCNOFNSA-L

>  <FORMULA>  (5863) 
C10H14CoO4

>  <EXACT MASS>  (5863) 
257.022403928

>  <MW>  (5863) 
257

>  <ID>  (5863) 
JP000342

>  <CONTRIBUTOR>  (5863) 
University of Tokyo Team, {Faculty of Engineering, University of Tokyo

>  <COMMENT>  (5863) 
SMILES=CC(=O)C=C(C)O[Co]OC(C)=CC(C)=O
InChI=InChI=1S/2C5H8O2.Co/c2*1-4(6)3-5(2)7;/h2*3,6H,1-2H3;/q;;+2/p-2/b4-3+;4-3-;
computed SMILES=[Co+2].O=C(C=C([O-])C)C.O=C(C=C([O-])C)C
accession=JP000342
date=2016.01.19 (Created 2008.10.21, modified 2011.05.06)
author=SASAKI S, TOYOHASHI UNIV. OF TECH.
license=CC BY-NC-SA
exact mass=257.02241
ionization energy=70 eV
ion type=[M]+*
computed spectral entropy=2.7365714833297377
computed normalized entropy=0.6244990529441176
SPLASH=splash10-0a4i-7950000000-df6d18c32ba6f44890f5
submitter=submitter = University of Tokyo Team (Faculty of Engineering, University of Tokyo)
MoNA Rating=3.75

>  <NUM PEAKS>  (5863) 
80

>  <MASS SPECTRAL PEAKS>  (5863) 
15 2
18 1
19 4
26 0.03
27 1.5
28 3
29 0.5
31 0.05
39 1.5
41 1.5
42 2
43 0.29
44 0.5
53 1
55 2.8
57 0.15
58 3
59 12
60 1.3
61 0.08
67 1
69 1.3
71 1
72 0.35
73 1.5
74 11.5
75 0.5
76 0.01
81 0.5
82 0.25
83 0.25
84 0.75
85 58
86 2.5
87 7.5
97 0.05
98 2
99 1.5
100 25.5
101 0.02
102 1
103 1
112 0.8
113 0.15
114 0.5
115 6
116 1
118 0.01
121 1
128 1
129 2
131 0.02
133 13
134 0.5
155 3.5
156 0.01
157 3
158 99.99
163 0.5
165 0.05
183 0.5
184 0.5
185 0.5
186 0.05
187 0.5
200 1.5
201 1
215 0.15
225 2
233 1.25
239 2
242 0.8
243 8
244 0.5
254 2.5
256 0.75
257 75
258 7.5
259 1
260 0.25

>  <PREDICTED SPECTRUM>  (5863) 
14 28
15 32
16 31
17 29
18 49
25 9
26 33
27 145
28 115
29 156
30 120
31 33
32 7
33 0
34 7
35 1
36 45
37 29
38 72
39 296
40 135
41 135
42 98
43 999
44 123
45 21
50 57
51 87
52 46
53 143
54 33
55 135
56 36
57 16
58 60
60 12
62 29
63 55
64 29
65 72
66 70
67 161
68 99
69 143
70 44
72 5
73 45
74 1
75 67
76 26
77 80
78 27
79 47
80 14
81 39
82 62
83 226
84 240
85 233
86 54
87 8
88 121
90 23
91 33
92 32
93 13
94 1
95 55
96 47
97 22
98 111
99 82
100 136
101 100
102 98
103 70
104 134
105 73
106 29
107 14
112 31
113 39
114 77
115 146
116 131
117 162
118 126
119 38
120 85
122 31
123 98
124 72
125 53
126 61
128 59
130 182
131 150
132 120
134 5
136 52
138 83
139 22
140 217
141 76
142 150
143 51
144 99
145 87
146 90
148 11
151 48
155 13
156 78
157 94
158 519
159 141
160 94
165 31
169 41
172 26
173 115
174 263
175 163
176 134
180 22
182 83
184 54
186 2
198 117
199 120
200 213
201 33
213 34
214 171
215 39
222 38
224 188
225 41
239 25
240 133
241 136
242 589
243 204
244 65
255 38
256 113
257 437
258 141
259 84

$$$$

     RDKit          2D

 22 18  0  0  0  0  0  0  0  0999 V2000
    0.3248    3.9375    0.0000 C   0  0  0  0  0  0  0  0  0  0  0  0
   -3.5724    1.6875    0.0000 C   0  0  0  0  0  0  0  0  0  0  0  0
   -0.9743    1.6875    0.0000 C   0  0  0  0  0  0  0  0  0  0  0  0
    0.3248    2.4375    0.0000 C   0  0  0  0  0  0  0  0  0  0  0  0
   -2.2733    2.4375    0.0000 C   0  0  0  0  0  0  0  0  0  0  0  0
    1.6238    1.6875    0.0000 O   0  0  0  0  0  0  0  0  0  0  0  0
   -2.2733    3.9375    0.0000 O   0  0  0  0  0  0  0  0  0  0  0  0
    0.3248    3.9375    0.0000 C   0  0  0  0  0  0  0  0  0  0  0  0
   -3.5724    1.6875    0.0000 C   0  0  0  0  0  0  0  0  0  0  0  0
   -0.9743    1.6875    0.0000 C   0  0  0  0  0  0  0  0  0  0  0  0
    0.3248    2.4375    0.0000 C   0  0  0  0  0  0  0  0  0  0  0  0
   -2.2733    2.4375    0.0000 C   0  0  0  0  0  0  0  0  0  0  0  0
    1.6238    1.6875    0.0000 O   0  0  0  0  0  0  0  0  0  0  0  0
   -2.2733    3.9375    0.0000 O   0  0  0  0  0  0  0  0  0  0  0  0
    0.3248    3.9375    0.0000 C   0  0  0  0  0  0  0  0  0  0  0  0
   -3.5724    1.6875    0.0000 C   0  0  0  0  0  0  0  0  0  0  0  0
   -0.9743    1.6875    0.0000 C   0  0  0  0  0  0  0  0  0  0  0  0
    0.3248    2.4375    0.0000 C   0  0  0  0  0  0  0  0  0  0  0  0
   -2.2733    2.4375    0.0000 C   0  0  0  0  0  0  0  0  0  0  0  0
    1.6238    1.6875    0.0000 O   0  0  0  0  0  0  0  0  0  0  0  0
   -2.2733    3.9375    0.0000 O   0  0  0  0  0  0  0  0  0  0  0  0
    0.0000    0.0000    0.0000 Al  0  0  0  0  0 15  0  0  0  0  0  0
  4  1  1  0
  3  4  2  0
  5  2  1  0
  5  3  1  0
  6  4  1  0
  7  5  2  0
 11  8  1  0
 10 11  2  0
 12  9  1  0
 12 10  1  0
 13 11  1  0
 14 12  2  0
 18 15  1  0
 17 18  2  0
 19 16  1  0
 19 17  1  0
 20 18  1  0
 21 19  2  0
M  CHG  4   6  -1  13  -1  20  -1  22   3
M  END
>  <NAME>  (5864) 
ALUMINIUM TRIACETYLACETONATE

>  <SYNONYMS>  (5864) 


>  <SPECTRUM TYPE>  (5864) 
MS1

>  <INSTRUMENT TYPE>  (5864) 
EI-B

>  <INSTRUMENT>  (5864) 
HITACHI RMU-6D

>  <ION MODE>  (5864) 
P

>  <INCHIKEY>  (5864) 
KILURZWTCGSYRE-MUCWUPSWSA-K

>  <FORMULA>  (5864) 
C15H21AlO6

>  <EXACT MASS>  (5864) 
324.115352022

>  <MW>  (5864) 
324

>  <ID>  (5864) 
JP000341

>  <CONTRIBUTOR>  (5864) 
University of Tokyo Team, {Faculty of Engineering, University of Tokyo

>  <COMMENT>  (5864) 
SMILES=CC(=O)C=C(C)O[Al](OC(C)=CC(C)=O)OC(C)=CC(C)=O
InChI=InChI=1S/3C5H8O2.Al/c3*1-4(6)3-5(2)7;/h3*3,6H,1-2H3;/q;;;+3/p-3/b3*4-3+;
computed SMILES=[Al+3].O=C(C=C([O-])C)C.O=C(C=C([O-])C)C.O=C(C=C([O-])C)C
accession=JP000341
date=2016.01.19 (Created 2008.10.21, modified 2011.05.06)
author=SASAKI S, TOYOHASHI UNIV. OF TECH.
license=CC BY-NC-SA
exact mass=324.11535
ionization energy=70 eV
ion type=[M]+*
computed spectral entropy=2.797566341153324
computed normalized entropy=0.6562928537563762
SPLASH=splash10-004l-4981000000-83dd43928fa3cbdf797c
submitter=submitter = University of Tokyo Team (Faculty of Engineering, University of Tokyo)
MoNA Rating=3.75

>  <NUM PEAKS>  (5864) 
71

>  <MASS SPECTRAL PEAKS>  (5864) 
15 2
18 2
26 0.5
27 0.2
28 6
31 0.3
32 0.3
39 0.02
41 2
42 2
43 30
44 0.01
50 0.5
51 0.5
52 0.5
53 0.05
55 0.5
56 0.1
57 1
58 0.05
59 1.3
69 1
72 0.7
77 0.05
78 3
83 1
85 6.3
97 0.01
98 0.8
99 3
100 5
101 0.05
105 3
111 1.3
113 0.7
123 0.07
125 5
126 9
127 6
140 0.23
141 37
142 3
143 21
144 0.01
147 8
151 1
155 1
156 0.08
157 9
158 1
181 1.3
182 0.02
183 6.3
184 0.7
185 1
195 0.05
196 1
207 3.3
208 1
209 0.04
210 0.5
224 5
225 99.99
226 0.12
227 1
239 0.7
251 0.7
281 0.01
324 18
325 3
326 0.7

>  <PREDICTED SPECTRUM>  (5864) 
14 30
15 38
16 22
17 12
18 28
25 11
26 21
27 86
28 46
29 141
30 66
31 12
36 13
38 18
39 180
40 74
41 232
42 37
43 999
44 86
45 10
53 34
55 47
57 106
58 50
59 8
67 69
69 136
71 68
72 83
73 65
77 26
83 176
84 103
85 278
95 4
97 6
98 24
99 83
100 41
101 65
103 51
113 9
115 35
116 12
117 95
118 8
119 70
120 53
121 89
123 1
125 54
126 0
127 81
128 31
129 21
130 31
131 19
133 1
136 2
139 3
140 65
141 71
142 64
143 195
144 55
145 84
150 69
151 62
152 20
155 175
156 109
157 138
167 88
168 84
169 132
170 81
171 155
172 62
173 55
174 50
181 36
182 40
183 150
184 80
185 23
190 32
197 64
198 32
199 36
207 172
209 102
223 116
224 99
225 507
226 95
227 102
240 1
241 165
242 177
243 83
249 16
265 102
266 32
267 81
281 73
291 78
306 28
307 35
308 120
309 489
310 177
311 24
322 34
324 467
325 222
326 98

$$$$

     RDKit          2D

 15 12  0  0  0  0  0  0  0  0999 V2000
    0.3248    3.9375    0.0000 C   0  0  0  0  0  0  0  0  0  0  0  0
   -3.5724    1.6875    0.0000 C   0  0  0  0  0  0  0  0  0  0  0  0
   -0.9743    1.6875    0.0000 C   0  0  0  0  0  0  0  0  0  0  0  0
    0.3248    2.4375    0.0000 C   0  0  0  0  0  0  0  0  0  0  0  0
   -2.2733    2.4375    0.0000 C   0  0  0  0  0  0  0  0  0  0  0  0
    1.6238    1.6875    0.0000 O   0  0  0  0  0  0  0  0  0  0  0  0
   -2.2733    3.9375    0.0000 O   0  0  0  0  0  0  0  0  0  0  0  0
    0.3248    3.9375    0.0000 C   0  0  0  0  0  0  0  0  0  0  0  0
   -3.5724    1.6875    0.0000 C   0  0  0  0  0  0  0  0  0  0  0  0
   -0.9743    1.6875    0.0000 C   0  0  0  0  0  0  0  0  0  0  0  0
    0.3248    2.4375    0.0000 C   0  0  0  0  0  0  0  0  0  0  0  0
   -2.2733    2.4375    0.0000 C   0  0  0  0  0  0  0  0  0  0  0  0
    1.6238    1.6875    0.0000 O   0  0  0  0  0  0  0  0  0  0  0  0
   -2.2733    3.9375    0.0000 O   0  0  0  0  0  0  0  0  0  0  0  0
    0.0000    0.0000    0.0000 Pt  0  0  0  0  0 15  0  0  0  0  0  0
  4  1  1  0
  3  4  2  0
  5  2  1  0
  5  3  1  0
  6  4  1  0
  7  5  2  0
 11  8  1  0
 10 11  2  0
 12  9  1  0
 12 10  1  0
 13 11  1  0
 14 12  2  0
M  CHG  3   6  -1  13  -1  15   2
M  END
>  <NAME>  (5865) 
PLATINUM DIACETYLACETONATE

>  <SYNONYMS>  (5865) 


>  <SPECTRUM TYPE>  (5865) 
MS1

>  <INSTRUMENT TYPE>  (5865) 
EI-B

>  <INSTRUMENT>  (5865) 
HITACHI RMU-6D

>  <ION MODE>  (5865) 
P

>  <INCHIKEY>  (5865) 
KLFRPGNCEJNEKU-SYWGCQIGSA-L

>  <FORMULA>  (5865) 
C10H14O4Pt

>  <EXACT MASS>  (5865) 
393.054000028

>  <MW>  (5865) 
393

>  <ID>  (5865) 
JP000340

>  <CONTRIBUTOR>  (5865) 
University of Tokyo Team, {Faculty of Engineering, University of Tokyo

>  <COMMENT>  (5865) 
SMILES=CC(=O)C=C(C)O[Pt]OC(C)=CC(C)=O
InChI=InChI=1S/2C5H8O2.Pt/c2*1-4(6)3-5(2)7;/h2*3,6H,1-2H3;/q;;+2/p-2/b2*4-3+;
computed SMILES=[Pt+2].O=C(C=C([O-])C)C.O=C(C=C([O-])C)C
accession=JP000340
date=2016.01.19 (Created 2008.10.21, modified 2011.05.06)
author=SASAKI S, TOYOHASHI UNIV. OF TECH.
license=CC BY-NC-SA
exact mass=393.05398
ionization energy=70 eV
ion type=[M]+*
computed spectral entropy=2.885155159009203
computed normalized entropy=0.6411727095998364
SPLASH=splash10-0006-9011000000-aa6218467296506d56ec
submitter=submitter = University of Tokyo Team (Faculty of Engineering, University of Tokyo)
MoNA Rating=3.75

>  <NUM PEAKS>  (5865) 
90

>  <MASS SPECTRAL PEAKS>  (5865) 
15 3
18 1.3
26 2
27 0.8
28 18.5
29 3.5
31 2
37 0.01
38 1.7
39 6
40 0.8
41 0.05
42 6
43 99.99
44 4
45 0.03
50 0.3
53 2
55 3.5
56 0.03
57 0.3
58 4
69 1.5
71 0.01
72 2
85 30
86 1
100 1.98
101 3
196 0.3
197 0.3
208 0.05
209 2
210 0.3
220 1
221 0.03
222 4
223 3
224 1
225 0.07
233 1
234 1.3
235 2
236 0.02
237 2.3
238 1
239 0.8
247 0.03
248 0.3
249 1
250 2
251 0.01
252 1
261 0.3
262 0.3
263 0.01
264 2
265 2
266 1.3
267 0.07
277 0.3
278 0.3
279 1.3
280 0.17
281 1.7
282 0.5
291 0.5
292 0.17
293 2.1
294 2
295 1.3
296 0.05
307 0.5
308 1
309 1
310 0.01
321 1
322 1.3
323 1
334 0.03
335 0.3
336 0.3
349 1
350 0.01
351 1
392 8
393 9
394 0.07
395 0.5
396 1.3

>  <PREDICTED SPECTRUM>  (5865) 
14 27
15 36
16 28
17 25
18 42
25 6
26 45
27 175
28 136
29 154
30 128
31 33
32 1
36 36
37 31
38 79
39 303
40 142
41 176
42 194
43 999
44 119
45 48
50 15
51 64
52 29
53 130
54 7
55 173
56 106
57 80
58 67
62 1
64 13
65 66
66 52
67 153
68 73
69 212
70 93
71 21
72 28
77 52
78 8
82 17
83 256
84 193
85 261
86 30
87 49
88 3
90 6
91 38
92 42
93 42
94 13
95 19
96 10
98 40
99 35
100 43
101 9
103 23
104 36
105 27
106 29
110 63
112 43
113 41
114 64
115 51
116 13
117 91
118 33
120 1
125 2
126 118
127 93
128 103
129 81
130 33
131 19
140 55
141 105
142 140
143 51
144 37
145 21
148 31
152 15
154 30
155 36
156 37
157 4
158 25
159 18
166 2
167 6
168 76
169 101
170 143
171 43
172 47
173 24
180 40
181 10
182 66
183 8
184 69
185 67
186 94
187 36
188 48
189 46
190 41
191 4
194 24
196 55
198 80
199 52
200 11
201 50
202 79
203 59
209 54
210 54
211 88
212 205
213 63
214 96
215 46
217 15
218 14
219 106
220 94
221 19
222 61
224 152
225 68
226 106
227 23
230 21
231 12
232 43
234 79
235 43
236 168
237 140
238 113
239 96
240 177
241 63
242 18
248 15
250 77
251 120
252 150
253 160
254 95
256 49
258 19
259 101
260 54
261 22
262 30
264 62
266 217
267 131
268 128
274 69
276 169
277 64
278 140
279 44
280 83
281 91
282 81
291 20
292 110
293 66
294 531
295 103
296 59
302 2
308 9
309 131
310 219
311 107
312 117
318 40
320 26
334 89
335 68
336 182
337 13
349 14
350 169
351 28
360 184
361 37
375 14
376 18
377 87
378 479
379 156
380 41
391 58
392 83
393 330
394 136
395 38

$$$$

     RDKit          2D

 21 18  0  0  0  0  0  0  0  0999 V2000
    1.2990    2.2500    0.0000 C   0  0  0  0  0  0  0  0  0  0  0  0
   -3.8971    2.2500    0.0000 C   0  0  0  0  0  0  0  0  0  0  0  0
    0.0000    3.0000    0.0000 C   0  0  0  0  0  0  0  0  0  0  0  0
   -2.5981    3.0000    0.0000 C   0  0  0  0  0  0  0  0  0  0  0  0
   -1.2990    2.2500    0.0000 C   0  0  0  0  0  0  0  0  0  0  0  0
   -1.2990    0.7500    0.0000 N   0  0  0  0  0  0  0  0  0  0  0  0
    0.0000    4.5000    0.0000 O   0  0  0  0  0  0  0  0  0  0  0  0
   -2.5981    4.5000    0.0000 O   0  0  0  0  0  0  0  0  0  0  0  0
   -0.0000    0.0000    0.0000 O   0  0  0  0  0  0  0  0  0  0  0  0
   -2.5981    0.0000    0.0000 O   0  0  0  0  0  0  0  0  0  0  0  0
    1.2990    2.2500    0.0000 C   0  0  0  0  0  0  0  0  0  0  0  0
   -3.8971    2.2500    0.0000 C   0  0  0  0  0  0  0  0  0  0  0  0
    0.0000    3.0000    0.0000 C   0  0  0  0  0  0  0  0  0  0  0  0
   -2.5981    3.0000    0.0000 C   0  0  0  0  0  0  0  0  0  0  0  0
   -1.2990    2.2500    0.0000 C   0  0  0  0  0  0  0  0  0  0  0  0
   -1.2990    0.7500    0.0000 N   0  0  0  0  0  0  0  0  0  0  0  0
    0.0000    4.5000    0.0000 O   0  0  0  0  0  0  0  0  0  0  0  0
   -2.5981    4.5000    0.0000 O   0  0  0  0  0  0  0  0  0  0  0  0
   -0.0000    0.0000    0.0000 O   0  0  0  0  0  0  0  0  0  0  0  0
   -2.5981    0.0000    0.0000 O   0  0  0  0  0  0  0  0  0  0  0  0
    0.0000    0.0000    0.0000 Cu  0  0  0  0  0 15  0  0  0  0  0  0
  3  1  1  0
  4  2  1  0
  3  5  2  0
  5  4  1  0
  6  5  1  0
  7  3  1  0
  8  4  2  0
  9  6  1  0
 10  6  2  0
 13 11  1  0
 14 12  1  0
 13 15  2  0
 15 14  1  0
 16 15  1  0
 17 13  1  0
 18 14  2  0
 19 16  1  0
 20 16  2  0
M  CHG  7   6   1   7  -1   9  -1  16   1  17  -1  19  -1  21   2
M  END
>  <NAME>  (5866) 
COPPER DI(3-NITROACETYLACETONATE)

>  <SYNONYMS>  (5866) 


>  <SPECTRUM TYPE>  (5866) 
MS1

>  <INSTRUMENT TYPE>  (5866) 
EI-B

>  <INSTRUMENT>  (5866) 
HITACHI RMU-6D

>  <ION MODE>  (5866) 
P

>  <INCHIKEY>  (5866) 
DRDZHSCSMNUNPW-MSEGBBJSSA-L

>  <FORMULA>  (5866) 
C10H12CuN2O8

>  <EXACT MASS>  (5866) 
350.98896284399996

>  <MW>  (5866) 
351

>  <ID>  (5866) 
JP000338

>  <CONTRIBUTOR>  (5866) 
University of Tokyo Team, {Faculty of Engineering, University of Tokyo

>  <COMMENT>  (5866) 
SMILES=CC(=O)C([N+1]([O-1])=O)=C(C)O[Cu]OC(C)=C(C(C)=O)[N+1]([O-1])=O
InChI=InChI=1S/2C5H7NO4.Cu/c2*1-3(7)5(4(2)8)6(9)10;/h2*7H,1-2H3;/q;;+2/p-2/b2*5-3+;
computed SMILES=[Cu+2].O=C(C(=C([O-])C)N(=O)=O)C.O=C(C(=C([O-])C)N(=O)=O)C
accession=JP000338
date=2016.01.19 (Created 2008.10.21, modified 2011.05.06)
author=SASAKI S, TOYOHASHI UNIV. OF TECH.
license=CC BY-NC-SA
exact mass=350.98897
ionization energy=70 eV
ion type=[M]+*
computed spectral entropy=2.5792851404887323
computed normalized entropy=0.6050853488625069
SPLASH=splash10-0006-9000000000-ed42282a3cdffeaf6383
submitter=submitter = University of Tokyo Team (Faculty of Engineering, University of Tokyo)
MoNA Rating=3.75

>  <NUM PEAKS>  (5866) 
71

>  <MASS SPECTRAL PEAKS>  (5866) 
12 0.5
13 0.6
14 3.4
15 0.96
16 0.8
17 3
18 12.4
24 0.01
25 0.6
26 2
27 4.2
28 1.46
29 3.8
30 7.8
31 1.6
32 0.01
37 0.4
38 1.5
39 3.4
40 0.15
41 3.6
42 10
43 99.99
44 0.2
45 7.8
46 0.2
49 0.1
50 0.11
51 1.4
52 1.1
53 0.6
54 0.46
55 1.6
56 0.2
57 0.5
58 0.14
59 0.2
60 5.8
61 0.3
63 0.02
67 0.7
68 0.4
69 6.2
70 0.14
71 0.8
72 1.6
73 0.2
74 0.02
76 0.2
77 0.8
78 4.2
79 0.04
81 0.1
82 0.2
83 0.3
84 0.04
85 14.2
86 1.4
87 0.4
88 0.02
100 10
102 0.4
104 0.4
105 0.01
127 1.5
128 1.1
129 0.4
130 0.02
134 0.1
142 0.5
145 0.8

>  <PREDICTED SPECTRUM>  (5866) 
14 20
15 30
16 13
25 4
26 22
27 91
28 100
29 83
30 141
31 40
35 9
36 14
37 31
38 77
39 192
40 120
41 63
42 100
43 999
44 133
45 86
46 123
47 2
48 12
49 29
50 67
51 96
52 114
53 175
54 123
55 82
56 103
57 91
58 95
59 15
60 49
61 62
62 26
63 37
64 21
65 69
66 69
67 118
68 63
69 62
70 69
71 101
72 85
73 61
74 52
75 62
76 31
77 63
78 64
79 89
80 92
81 106
82 53
83 74
84 60
85 101
86 94
87 41
88 71
89 23
90 10
91 80
92 34
93 72
94 22
95 65
96 81
97 44
98 58
99 24
100 21
101 3
102 19
103 32
104 72
105 104
106 57
107 93
108 176
109 99
110 36
111 58
112 52
113 24
114 40
115 50
116 78
117 79
118 28
119 61
120 18
121 38
122 17
123 22
124 77
125 60
126 24
127 65
128 55
129 80
130 75
131 98
132 91
133 82
134 56
135 36
136 37
137 31
138 56
139 104
140 41
142 8
143 57
144 64
145 38
146 56
147 95
148 36
149 41
150 23
151 14
152 2
155 43
156 8
159 42
160 44
161 42
163 63
164 42
165 35
167 21
171 67
172 55
173 89
174 62
175 117
176 58
177 33
178 12
179 2
182 19
185 56
186 47
187 75
188 116
189 168
190 53
191 97
192 1
201 40
202 50
203 140
204 34
205 32
206 46
210 3
211 19
212 26
213 58
215 50
216 37
217 101
218 83
219 99
228 2
229 51
231 34
233 17
234 6
243 54
244 3
245 134
247 20
259 63
260 55
261 87
262 37
263 7
275 61
303 55
305 164
306 61
307 33
308 2
309 25
321 22
351 92
352 14

$$$$

     RDKit          2D

 17 14  0  0  0  0  0  0  0  0999 V2000
   -2.2733    0.5625    0.0000 C   0  0  0  0  0  0  0  0  0  0  0  0
    0.3248    5.0625    0.0000 C   0  0  0  0  0  0  0  0  0  0  0  0
   -0.9743    1.3125    0.0000 C   0  0  0  0  0  0  0  0  0  0  0  0
    0.3248    3.5625    0.0000 C   0  0  0  0  0  0  0  0  0  0  0  0
   -0.9743    2.8125    0.0000 C   0  0  0  0  0  0  0  0  0  0  0  0
   -2.2733    3.5625    0.0000 Br  0  0  0  0  0  0  0  0  0  0  0  0
    0.3248    0.5625    0.0000 O   0  0  0  0  0  0  0  0  0  0  0  0
    1.6238    2.8125    0.0000 O   0  0  0  0  0  0  0  0  0  0  0  0
   -2.2733    0.5625    0.0000 C   0  0  0  0  0  0  0  0  0  0  0  0
    0.3248    5.0625    0.0000 C   0  0  0  0  0  0  0  0  0  0  0  0
   -0.9743    1.3125    0.0000 C   0  0  0  0  0  0  0  0  0  0  0  0
    0.3248    3.5625    0.0000 C   0  0  0  0  0  0  0  0  0  0  0  0
   -0.9743    2.8125    0.0000 C   0  0  0  0  0  0  0  0  0  0  0  0
   -2.2733    3.5625    0.0000 Br  0  0  0  0  0  0  0  0  0  0  0  0
    0.3248    0.5625    0.0000 O   0  0  0  0  0  0  0  0  0  0  0  0
    1.6238    2.8125    0.0000 O   0  0  0  0  0  0  0  0  0  0  0  0
    0.0000    0.0000    0.0000 Pd  0  0  0  0  0 15  0  0  0  0  0  0
  3  1  1  0
  4  2  1  0
  3  5  2  0
  5  4  1  0
  6  5  1  0
  7  3  1  0
  8  4  2  0
 11  9  1  0
 12 10  1  0
 11 13  2  0
 13 12  1  0
 14 13  1  0
 15 11  1  0
 16 12  2  0
M  CHG  3   7  -1  15  -1  17   2
M  END
>  <NAME>  (5867) 
PALLADIUM DI(3-BROMOACETYLACETONATE)

>  <SYNONYMS>  (5867) 


>  <SPECTRUM TYPE>  (5867) 
MS1

>  <INSTRUMENT TYPE>  (5867) 
EI-B

>  <INSTRUMENT>  (5867) 
HITACHI RMU-6D

>  <ION MODE>  (5867) 
P

>  <INCHIKEY>  (5867) 
QYXHETFVNFTXGP-MSEGBBJSSA-L

>  <FORMULA>  (5867) 
C10H12Br2O4Pd

>  <EXACT MASS>  (5867) 
459.813719064

>  <MW>  (5867) 
460

>  <ID>  (5867) 
JP000337

>  <CONTRIBUTOR>  (5867) 
University of Tokyo Team, {Faculty of Engineering, University of Tokyo

>  <COMMENT>  (5867) 
SMILES=CC(=O)C(Br)=C(C)O[Pd]OC(C)=C(Br)C(C)=O
InChI=InChI=1S/2C5H7BrO2.Pd/c2*1-3(7)5(6)4(2)8;/h2*7H,1-2H3;/q;;+2/p-2/b2*5-3+;
computed SMILES=[Pd+2].O=C(C(Br)=C([O-])C)C.O=C(C(Br)=C([O-])C)C
accession=JP000337
date=2016.01.19 (Created 2008.10.21, modified 2011.05.06)
author=SASAKI S, TOYOHASHI UNIV. OF TECH.
license=CC BY-NC-SA
exact mass=459.81372
ionization energy=70 eV
ion type=[M]+*
computed spectral entropy=2.915500517875267
computed normalized entropy=0.605858026744205
SPLASH=splash10-0006-9100000000-35a67068b51624903ea1
submitter=submitter = University of Tokyo Team (Faculty of Engineering, University of Tokyo)
MoNA Rating=3.75

>  <NUM PEAKS>  (5867) 
123

>  <MASS SPECTRAL PEAKS>  (5867) 
13 0.2
14 1.25
15 6.4
16 0.02
17 2
18 8.25
25 0.5
26 0.02
27 6.1
28 7.5
29 3.1
30 0.02
31 1.7
32 1.1
36 0.3
37 0.08
38 1.5
39 4.5
40 1.2
41 0.04
42 4.5
43 99.99
44 5.6
45 0.17
47 0.05
48 0.1
49 0.25
50 0.06
51 0.6
52 0.3
53 1.1
54 0.05
55 5.3
56 0.6
57 2.05
58 1.25
59 0.1
60 1.1
61 0.3
62 0.01
63 0.2
65 0.2
66 0.2
67 0.11
68 1
69 1.9
70 0.3
71 0.11
72 1.2
73 0.7
74 0.6
76 0.01
77 0.6
78 1
79 0.6
80 0.02
81 1
82 0.9
83 1.45
84 0.07
85 10
86 0.8
87 0.2
88 0.01
91 0.5
92 1.1
93 1.05
94 0.04
95 0.5
96 0.15
97 0.5
98 0.02
99 2.2
100 7.85
101 0.6
102 0.03
103 0.2
105 0.8
106 0.1
107 0.05
108 0.1
109 0.3
110 0.1
111 0.03
112 0.2
113 0.3
115 0.1
116 0.01
119 2.3
120 0.15
121 1
122 0.03
123 0.3
124 0.1
125 0.2
126 0.01
127 0.1
128 0.1
129 0.1
134 0.51
135 1.1
136 5.3
137 0.35
138 0.49
139 0.3
141 0.3
149 0.3
151 0.02
152 0.3
153 0.4
154 0.2
155 0.01
163 4.5
164 0.1
165 4.3
166 0.01
178 2.5
179 0.1
180 2.4
181 0.01
186 0.1
188 0.1
198 0.6

>  <PREDICTED SPECTRUM>  (5867) 
14 4
15 10
25 7
26 24
27 75
28 37
29 58
35 25
36 40
37 54
38 66
39 188
40 84
41 138
42 68
43 999
44 148
45 35
49 11
50 45
51 60
52 47
53 100
54 41
55 110
56 49
57 78
58 109
59 58
60 43
61 58
62 73
63 90
64 26
65 93
66 28
67 70
68 49
69 31
70 37
71 74
72 40
73 46
74 50
75 10
76 59
77 57
79 41
80 48
81 94
82 105
83 81
84 114
85 146
86 65
87 28
88 35
89 6
90 16
91 49
92 3
93 69
94 30
95 38
96 42
97 63
98 42
99 37
100 43
104 6
105 15
106 26
107 56
109 39
110 29
111 52
112 51
113 48
114 8
118 7
119 47
121 28
122 4
123 33
124 15
125 77
126 35
127 72
128 71
129 50
131 72
132 12
133 51
134 38
135 128
136 41
137 79
138 17
139 63
140 43
141 47
143 26
144 3
145 66
147 0
148 14
149 46
150 27
151 25
152 5
153 14
156 1
157 53
158 33
159 44
160 19
161 12
162 14
163 30
164 12
165 22
167 39
168 15
169 59
170 43
171 70
172 4
173 59
174 33
175 27
176 29
177 56
179 5
181 3
182 1
184 31
185 50
187 33
188 4
189 11
190 9
191 37
192 25
193 20
194 29
195 47
197 16
198 6
199 38
200 2
201 33
202 7
203 28
204 7
205 44
207 14
209 34
211 5
212 26
213 53
214 63
215 21
217 18
219 78
220 12
221 15
224 3
225 2
226 3
227 43
228 33
229 60
230 13
231 4
237 43
239 30
240 74
241 54
242 19
243 21
245 13
247 25
248 17
249 33
252 18
253 27
254 55
255 62
256 24
257 38
261 5
263 11
265 4
266 11
267 47
268 26
269 16
271 24
273 1
278 19
279 68
280 76
281 73
282 39
283 12
284 38
285 33
286 50
287 32
289 4
291 21
293 56
294 8
295 41
296 13
297 43
298 35
299 14
300 22
301 78
302 41
303 10
305 25
306 49
309 6
310 19
311 4
312 7
321 62
322 15
323 142
324 36
329 5
339 20
341 27
345 1
346 42
347 43
361 21
363 70
364 29
365 87
378 19
379 26
380 56
381 84
382 44
383 84
384 10
385 9
387 21
402 88
403 5
419 4
421 54
425 57
426 10
427 66
445 32
447 51
448 32
449 60
460 64
461 19
462 89
463 59
464 104
465 42

$$$$

     RDKit          2D

 15 12  0  0  0  0  0  0  0  0999 V2000
    0.3248    3.9375    0.0000 C   0  0  0  0  0  0  0  0  0  0  0  0
   -3.5724    1.6875    0.0000 C   0  0  0  0  0  0  0  0  0  0  0  0
   -0.9743    1.6875    0.0000 C   0  0  0  0  0  0  0  0  0  0  0  0
    0.3248    2.4375    0.0000 C   0  0  0  0  0  0  0  0  0  0  0  0
   -2.2733    2.4375    0.0000 C   0  0  0  0  0  0  0  0  0  0  0  0
    1.6238    1.6875    0.0000 O   0  0  0  0  0  0  0  0  0  0  0  0
   -2.2733    3.9375    0.0000 O   0  0  0  0  0  0  0  0  0  0  0  0
    0.3248    3.9375    0.0000 C   0  0  0  0  0  0  0  0  0  0  0  0
   -3.5724    1.6875    0.0000 C   0  0  0  0  0  0  0  0  0  0  0  0
   -0.9743    1.6875    0.0000 C   0  0  0  0  0  0  0  0  0  0  0  0
    0.3248    2.4375    0.0000 C   0  0  0  0  0  0  0  0  0  0  0  0
   -2.2733    2.4375    0.0000 C   0  0  0  0  0  0  0  0  0  0  0  0
    1.6238    1.6875    0.0000 O   0  0  0  0  0  0  0  0  0  0  0  0
   -2.2733    3.9375    0.0000 O   0  0  0  0  0  0  0  0  0  0  0  0
    0.0000    0.0000    0.0000 Pd  0  0  0  0  0 15  0  0  0  0  0  0
  4  1  1  0
  3  4  2  0
  5  2  1  0
  5  3  1  0
  6  4  1  0
  7  5  2  0
 11  8  1  0
 10 11  2  0
 12  9  1  0
 12 10  1  0
 13 11  1  0
 14 12  2  0
M  CHG  3   6  -1  13  -1  15   2
M  END
>  <NAME>  (5868) 
PALLADIUM DIACETONATE

>  <SYNONYMS>  (5868) 


>  <SPECTRUM TYPE>  (5868) 
MS1

>  <INSTRUMENT TYPE>  (5868) 
EI-B

>  <INSTRUMENT>  (5868) 
HITACHI RMU-6D

>  <ION MODE>  (5868) 
P

>  <INCHIKEY>  (5868) 
JKDRQYIYVJVOPF-SYWGCQIGSA-L

>  <FORMULA>  (5868) 
C10H14O4Pd

>  <EXACT MASS>  (5868) 
303.992694928

>  <MW>  (5868) 
304

>  <ID>  (5868) 
JP000334

>  <CONTRIBUTOR>  (5868) 
University of Tokyo Team, {Faculty of Engineering, University of Tokyo

>  <COMMENT>  (5868) 
SMILES=CC(=O)C=C(C)O[Pd]OC(C)=CC(C)=O
InChI=InChI=1S/2C5H8O2.Pd/c2*1-4(6)3-5(2)7;/h2*3,6H,1-2H3;/q;;+2/p-2/b2*4-3+;
computed SMILES=[Pd+2].O=C(C=C([O-])C)C.O=C(C=C([O-])C)C
exact mass=303.99269
accession=JP000334
date=2016.01.19 (Created 2008.10.21, modified 2011.05.06)
author=SASAKI S, TOYOHASHI UNIV. OF TECH.
license=CC BY-NC-SA
ionization energy=70 eV
ion type=[M]+*
computed spectral entropy=1.4283394057795615
computed normalized entropy=0.40504633482846564
SPLASH=splash10-0006-9100000000-f422dd9d85e5bd9124c3
submitter=submitter = University of Tokyo Team (Faculty of Engineering, University of Tokyo)
MoNA Rating=3.75

>  <NUM PEAKS>  (5868) 
34

>  <MASS SPECTRAL PEAKS>  (5868) 
14 0.6
15 3
17 0.4
18 0.2
26 0.8
27 2.6
28 4
29 0.16
31 1.4
37 0.4
38 0.6
39 0.22
40 0.6
41 2.5
42 2.8
43 99.99
44 2
45 0.2
50 0.2
51 0.01
53 0.4
55 0.8
57 0.3
58 0.16
67 0.2
69 0.5
71 1.8
85 1.94
86 0.6
98 0.2
100 13.7
101 0.07
103 0.5
159 0.2

>  <PREDICTED SPECTRUM>  (5868) 
14 24
15 48
16 26
17 28
18 43
25 4
26 41
27 149
28 132
29 132
30 110
31 28
36 26
37 37
38 71
39 268
40 140
41 206
42 150
43 999
44 99
51 79
52 48
53 167
54 15
55 138
56 30
57 32
58 35
63 31
64 10
65 63
66 51
67 122
68 90
69 231
70 43
71 20
77 41
79 64
80 50
81 132
82 67
83 162
84 162
85 242
91 58
92 54
93 113
94 37
95 107
96 85
97 122
98 67
99 51
100 33
105 30
107 85
109 57
110 47
111 42
112 60
113 70
114 41
119 15
120 93
121 84
122 102
123 191
124 59
125 103
126 37
128 24
129 8
130 61
131 100
132 23
133 69
134 21
135 173
136 100
137 115
138 8
142 6
143 27
145 95
146 61
147 181
148 145
149 117
150 91
151 156
152 74
153 62
154 7
159 23
160 20
161 111
162 144
163 207
164 167
165 108
166 4
167 76
169 68
170 96
171 65
172 45
173 57
175 71
177 245
178 141
179 105
185 63
187 183
188 73
189 131
190 59
191 92
192 84
193 77
195 1
198 11
201 13
202 30
203 122
204 92
205 522
206 93
207 40
216 5
219 27
220 92
221 207
222 98
223 88
227 3
229 73
231 27
243 25
245 108
246 68
247 211
248 20
260 29
261 171
262 33
269 19
271 211
272 20
286 29
287 113
288 97
289 569
290 185
291 58
302 31
303 69
304 306
305 157
306 64

$$$$

     RDKit          2D

 15 12  0  0  0  0  0  0  0  0999 V2000
    1.6238    1.6875    0.0000 C   0  0  0  0  0  0  0  0  0  0  0  0
   -3.5724    1.6875    0.0000 C   0  0  0  0  0  0  0  0  0  0  0  0
   -0.9743    1.6875    0.0000 C   0  0  0  0  0  0  0  0  0  0  0  0
    0.3248    2.4375    0.0000 C   0  0  0  0  0  0  0  0  0  0  0  0
   -2.2733    2.4375    0.0000 C   0  0  0  0  0  0  0  0  0  0  0  0
    0.3248    3.9375    0.0000 O   0  0  0  0  0  0  0  0  0  0  0  0
   -2.2733    3.9375    0.0000 O   0  0  0  0  0  0  0  0  0  0  0  0
    1.6238    1.6875    0.0000 C   0  0  0  0  0  0  0  0  0  0  0  0
   -3.5724    1.6875    0.0000 C   0  0  0  0  0  0  0  0  0  0  0  0
   -0.9743    1.6875    0.0000 C   0  0  0  0  0  0  0  0  0  0  0  0
    0.3248    2.4375    0.0000 C   0  0  0  0  0  0  0  0  0  0  0  0
   -2.2733    2.4375    0.0000 C   0  0  0  0  0  0  0  0  0  0  0  0
    0.3248    3.9375    0.0000 O   0  0  0  0  0  0  0  0  0  0  0  0
   -2.2733    3.9375    0.0000 O   0  0  0  0  0  0  0  0  0  0  0  0
    0.0000    0.0000    0.0000 Ni  0  0  0  0  0 15  0  0  0  0  0  0
  4  1  1  0
  3  4  2  0
  5  2  1  0
  5  3  1  0
  6  4  1  0
  7  5  2  0
 11  8  1  0
 10 11  2  0
 12  9  1  0
 12 10  1  0
 13 11  1  0
 14 12  2  0
M  CHG  3   6  -1  13  -1  15   2
M  END
>  <NAME>  (5869) 
NICKEL DIACETYLACETONATE

>  <SYNONYMS>  (5869) 


>  <SPECTRUM TYPE>  (5869) 
MS1

>  <INSTRUMENT TYPE>  (5869) 
EI-B

>  <INSTRUMENT>  (5869) 
HITACHI RMU-6D

>  <ION MODE>  (5869) 
P

>  <INCHIKEY>  (5869) 
BMGNSKKZFQMGDH-FDGPNNRMSA-L

>  <FORMULA>  (5869) 
C10H14NiO4

>  <EXACT MASS>  (5869) 
256.024551828

>  <MW>  (5869) 
256

>  <ID>  (5869) 
JP000333

>  <CONTRIBUTOR>  (5869) 
University of Tokyo Team, {Faculty of Engineering, University of Tokyo

>  <COMMENT>  (5869) 
SMILES=CC(=O)C=C(C)O[Ni]OC(C)=CC(C)=O
InChI=InChI=1S/2C5H8O2.Ni/c2*1-4(6)3-5(2)7;/h2*3,6H,1-2H3;/q;;+2/p-2/b2*4-3-;
computed SMILES=[Ni+2].O=C(C=C([O-])C)C.O=C(C=C([O-])C)C
accession=JP000333
date=2016.01.19 (Created 2008.10.21, modified 2011.05.06)
author=SASAKI S, TOYOHASHI UNIV. OF TECH.
license=CC BY-NC-SA
exact mass=256.02456
ionization energy=70 eV
ion type=[M]+*
computed spectral entropy=2.37155234070655
computed normalized entropy=0.6842853602291906
SPLASH=splash10-014l-9000000000-11f7cdf784393a8fe234
submitter=submitter = University of Tokyo Team (Faculty of Engineering, University of Tokyo)
MoNA Rating=3.75

>  <NUM PEAKS>  (5869) 
32

>  <MASS SPECTRAL PEAKS>  (5869) 
12 0.3
13 0.4
14 2
15 1.2
16 3
17 45
18 99.99
26 0.13
27 5
28 32
29 19.3
30 0.02
31 31.3
32 21
36 0.3
37 0.07
38 1
39 4
41 5
42 0.67
43 80
44 8
50 0.3
55 0.02
56 0.3
57 1
58 2.3
69 0.03
71 2.3
85 32
100 22
101 1

>  <PREDICTED SPECTRUM>  (5869) 
14 26
15 56
16 26
17 31
18 45
25 6
26 19
27 98
28 88
29 117
30 103
31 37
32 6
33 10
34 3
36 30
37 14
38 46
39 253
40 119
41 106
42 126
43 999
44 122
45 42
50 28
51 65
52 32
53 121
54 7
55 83
57 72
58 16
59 11
62 10
63 21
64 32
65 49
66 47
67 105
68 88
69 227
71 36
72 45
73 33
75 113
77 66
78 6
79 2
80 14
81 43
82 126
83 198
84 177
85 306
86 33
87 140
88 28
89 32
92 17
93 22
94 11
95 65
96 17
97 108
98 85
99 201
100 121
101 75
102 65
103 136
104 78
105 40
106 10
110 7
111 33
112 28
113 106
114 126
115 190
116 97
117 94
118 11
119 89
120 53
121 54
122 99
123 87
124 65
125 91
127 69
129 245
130 125
131 117
133 5
135 15
136 56
137 114
138 21
139 199
140 64
141 140
142 53
143 88
144 83
145 105
147 20
150 6
153 19
154 33
155 115
156 79
157 463
158 79
159 37
164 1
167 14
168 19
169 15
171 73
172 126
173 271
174 132
175 80
179 28
180 0
181 92
183 32
195 71
197 112
198 90
199 195
200 40
210 5
212 47
213 178
214 40
221 60
223 206
224 43
238 48
239 151
240 111
241 581
242 194
243 79
254 56
255 91
256 460
257 188
258 77
259 7

$$$$

     RDKit          2D

 22 18  0  0  0  0  0  0  0  0999 V2000
    0.3248    3.9375    0.0000 C   0  0  0  0  0  0  0  0  0  0  0  0
   -3.5724    1.6875    0.0000 C   0  0  0  0  0  0  0  0  0  0  0  0
   -0.9743    1.6875    0.0000 C   0  0  0  0  0  0  0  0  0  0  0  0
    0.3248    2.4375    0.0000 C   0  0  0  0  0  0  0  0  0  0  0  0
   -2.2733    2.4375    0.0000 C   0  0  0  0  0  0  0  0  0  0  0  0
    1.6238    1.6875    0.0000 O   0  0  0  0  0  0  0  0  0  0  0  0
   -2.2733    3.9375    0.0000 O   0  0  0  0  0  0  0  0  0  0  0  0
    0.3248    3.9375    0.0000 C   0  0  0  0  0  0  0  0  0  0  0  0
   -3.5724    1.6875    0.0000 C   0  0  0  0  0  0  0  0  0  0  0  0
   -0.9743    1.6875    0.0000 C   0  0  0  0  0  0  0  0  0  0  0  0
    0.3248    2.4375    0.0000 C   0  0  0  0  0  0  0  0  0  0  0  0
   -2.2733    2.4375    0.0000 C   0  0  0  0  0  0  0  0  0  0  0  0
    1.6238    1.6875    0.0000 O   0  0  0  0  0  0  0  0  0  0  0  0
   -2.2733    3.9375    0.0000 O   0  0  0  0  0  0  0  0  0  0  0  0
    1.6238    1.6875    0.0000 C   0  0  0  0  0  0  0  0  0  0  0  0
   -3.5724    1.6875    0.0000 C   0  0  0  0  0  0  0  0  0  0  0  0
   -0.9743    1.6875    0.0000 C   0  0  0  0  0  0  0  0  0  0  0  0
    0.3248    2.4375    0.0000 C   0  0  0  0  0  0  0  0  0  0  0  0
   -2.2733    2.4375    0.0000 C   0  0  0  0  0  0  0  0  0  0  0  0
    0.3248    3.9375    0.0000 O   0  0  0  0  0  0  0  0  0  0  0  0
   -2.2733    3.9375    0.0000 O   0  0  0  0  0  0  0  0  0  0  0  0
    0.0000    0.0000    0.0000 Co  0  0  0  0  0 15  0  0  0  0  0  0
  4  1  1  0
  3  4  2  0
  5  2  1  0
  5  3  1  0
  6  4  1  0
  7  5  2  0
 11  8  1  0
 10 11  2  0
 12  9  1  0
 12 10  1  0
 13 11  1  0
 14 12  2  0
 18 15  1  0
 17 18  2  0
 19 16  1  0
 19 17  1  0
 20 18  1  0
 21 19  2  0
M  CHG  4   6  -1  13  -1  20  -1  22   3
M  END
>  <NAME>  (5870) 
COBALT TRIACETYLATONATE

>  <SYNONYMS>  (5870) 


>  <SPECTRUM TYPE>  (5870) 
MS1

>  <INSTRUMENT TYPE>  (5870) 
EI-B

>  <INSTRUMENT>  (5870) 
HITACHI RMU-6D

>  <ION MODE>  (5870) 
P

>  <INCHIKEY>  (5870) 
RHCQEPWEBDOALW-AMLHQIMMSA-K

>  <FORMULA>  (5870) 
C15H21CoO6

>  <EXACT MASS>  (5870) 
356.06700839200005

>  <MW>  (5870) 
356

>  <ID>  (5870) 
JP000332

>  <CONTRIBUTOR>  (5870) 
University of Tokyo Team, {Faculty of Engineering, University of Tokyo

>  <COMMENT>  (5870) 
SMILES=CC(=O)C=C(C)O[Co](OC(C)=CC(C)=O)OC(C)=CC(C)=O
InChI=InChI=1S/3C5H8O2.Co/c3*1-4(6)3-5(2)7;/h3*3,6H,1-2H3;/q;;;+3/p-3/b2*4-3+;4-3-;
computed SMILES=[Co+3].O=C(C=C([O-])C)C.O=C(C=C([O-])C)C.O=C(C=C([O-])C)C
accession=JP000332
date=2016.01.19 (Created 2008.10.21, modified 2011.05.06)
author=SASAKI S, TOYOHASHI UNIV. OF TECH.
license=CC BY-NC-SA
exact mass=356.06701
ionization energy=70 eV
ion type=[M]+*
computed spectral entropy=2.6829989196166792
computed normalized entropy=0.6451248726735717
SPLASH=splash10-0006-9020000000-9c17df14ebe6aa07f78c
submitter=submitter = University of Tokyo Team (Faculty of Engineering, University of Tokyo)
MoNA Rating=3.75

>  <NUM PEAKS>  (5870) 
64

>  <MASS SPECTRAL PEAKS>  (5870) 
14 1.5
15 9
17 0.5
18 0.35
26 2
27 7
28 10
29 0.45
31 3.5
37 0.5
38 1.3
39 0.06
40 0.7
41 6.3
42 6.5
43 99.99
44 5.5
45 0.7
50 0.5
51 0.05
52 0.2
53 1
55 2.5
57 0.07
58 3.5
59 5.3
60 0.5
67 0.06
69 1
72 4
73 0.5
74 0.05
76 0.5
78 1.5
85 40.3
86 0.15
87 3
98 0.5
99 0.3
100 0.29
101 1.5
113 0.5
115 2.5
129 0.01
131 0.5
140 0.5
141 0.5
142 0.15
143 5
151 1.8
155 2
158 0.4
159 4
200 0.5
215 0.5
225 0.37
240 0.5
242 29
243 2.5
250 0.43
251 0.7
253 0.7
257 24.5
258 3

>  <PREDICTED SPECTRUM>  (5870) 
14 30
15 34
16 20
17 13
18 28
25 11
26 12
27 94
28 55
29 121
30 30
31 20
36 19
38 31
39 204
40 70
41 109
42 48
43 999
44 92
45 16
50 55
51 19
52 5
53 80
55 30
57 66
58 70
67 88
68 18
69 167
70 11
71 40
72 12
73 112
77 58
79 34
80 22
81 31
83 100
84 133
85 315
91 54
93 33
95 15
103 57
104 88
105 118
106 29
107 19
109 17
111 2
115 65
120 17
121 58
127 3
128 6
129 13
130 18
131 89
132 59
133 141
134 19
135 91
136 48
137 8
143 1
145 11
147 35
148 42
149 103
150 10
151 74
152 31
153 89
154 9
155 3
156 13
157 46
159 64
161 37
162 30
163 11
165 12
171 0
172 52
173 72
174 65
175 187
176 51
177 90
182 76
183 50
184 5
187 189
188 119
189 152
199 94
200 76
201 146
202 99
203 220
204 87
205 85
206 45
213 35
214 41
215 162
216 74
217 45
219 9
222 24
229 98
230 64
231 42
239 167
240 23
241 116
245 0
255 94
256 84
257 523
259 63
273 104
274 117
275 40
297 50
298 1
299 37
313 34
323 40
326 29
339 0
340 106
341 161
342 154
354 19
356 397
357 144
358 31

$$$$

     RDKit          2D

 15 17  0  0  1  0  0  0  0  0999 V2000
   -2.5990    3.7500    0.0000 C   0  0  0  0  0  0  0  0  0  0  0  0
   -0.0010    3.7500    0.0000 C   0  0  0  0  0  0  0  0  0  0  0  0
    1.3000   -3.0000    0.0000 C   0  0  0  0  0  0  0  0  0  0  0  0
   -1.3000   -3.0000    0.0000 C   0  0  0  0  0  0  0  0  0  0  0  0
    2.6000   -0.7500    0.0000 C   0  0  0  0  0  0  0  0  0  0  0  0
    2.6000    0.7500    0.0000 C   0  0  0  0  0  0  0  0  0  0  0  0
   -2.6000    0.7500    0.0000 C   0  0  0  0  0  0  0  0  0  0  0  0
   -2.6000   -0.7500    0.0000 C   0  0  0  0  0  0  0  0  0  0  0  0
   -1.3000    3.0000    0.0000 C   0  0  0  0  0  0  0  0  0  0  0  0
    1.3000   -1.5000    0.0000 C   0  0  0  0  0  0  0  0  0  0  0  0
   -1.3000    1.5000    0.0000 C   0  0  0  0  0  0  0  0  0  0  0  0
    1.3000    1.5000    0.0000 C   0  0  0  0  0  0  0  0  0  0  0  0
   -0.0000    0.7500    0.0000 C   0  0  0  0  0  0  0  0  0  0  0  0
   -0.0000   -0.7500    0.0000 C   0  0  0  0  0  0  0  0  0  0  0  0
   -1.3000   -1.5000    0.0000 C   0  0  0  0  0  0  0  0  0  0  0  0
  6  5  1  0
  8  7  1  0
  9  1  1  0
  9  2  1  0
 10  3  1  0
 10  5  2  0
 11  7  1  0
 11  9  1  1
 12  6  1  0
 13 11  1  0
 13 12  1  0
 14 10  1  6
 14 13  1  0
 15  4  1  6
 15  8  1  0
 15 12  1  0
 15 14  1  0
M  END
>  <NAME>  (5871) 
YLANGENE

>  <SYNONYMS>  (5871) 


>  <SPECTRUM TYPE>  (5871) 
MS1

>  <INSTRUMENT TYPE>  (5871) 
EI-B

>  <INSTRUMENT>  (5871) 
HITACHI RMU-6D

>  <ION MODE>  (5871) 
P

>  <INCHIKEY>  (5871) 
VLXDPFLIRFYIME-IIZVFWCOSA-N

>  <FORMULA>  (5871) 
C15H24

>  <EXACT MASS>  (5871) 
204.187800768

>  <MW>  (5871) 
204

>  <ID>  (5871) 
JP000329

>  <CONTRIBUTOR>  (5871) 
University of Tokyo Team, {Faculty of Engineering, University of Tokyo

>  <COMMENT>  (5871) 
SMILES=CC(C)C([H])(C2)C(C31)C(C(C)=CC3)C(C)(C2)1
InChI=InChI=1S/C15H24/c1-9(2)11-7-8-15(4)12-6-5-10(3)14(15)13(11)12/h5,9,11-14H,6-8H2,1-4H3/t11-,12?,13?,14-,15-/m0/s1
computed SMILES=C1=C(C)C2C3C(CCC2(C)C3C1)C(C)C
accession=JP000329
date=2016.01.19 (Created 2008.10.21, modified 2011.05.06)
author=SASAKI S, TOYOHASHI UNIV. OF TECH.
license=CC BY-NC-SA
exact mass=204.1878
ionization energy=70 eV
ion type=[M]+*
computed spectral entropy=3.2965342047484616
computed normalized entropy=0.801905948386813
SPLASH=splash10-08fu-8900000000-0ac27b6ed893c5e9ad4d
submitter=submitter = University of Tokyo Team (Faculty of Engineering, University of Tokyo)
MoNA Rating=3.75

>  <NUM PEAKS>  (5871) 
61

>  <MASS SPECTRAL PEAKS>  (5871) 
27 16
29 9
39 16
40 0.3
41 50
42 6
43 22
51 0.02
53 15
55 28
56 2
57 0.02
65 10
66 2
67 10
68 0.02
69 10
70 2
77 25
78 0.02
79 18
80 1
81 20
82 0.01
83 2
91 32
92 12
93 0.58
94 12
95 9
105 62
106 0.1
107 13
108 8
109 4
115 0.04
116 1
117 4
118 1
119 0.78
120 30
121 28
122 4
123 0.04
131 2
132 1
133 1
134 0.09
135 6
136 1
137 36
145 0.04
147 6
148 2
149 2
161 99.99
162 28
163 4
189 8
205 0.6
206 4

>  <PREDICTED SPECTRUM>  (5871) 
26 15
27 219
28 39
29 232
38 12
39 317
40 125
41 619
42 93
43 485
50 94
51 226
52 152
53 369
54 140
55 540
56 140
57 159
58 38
62 8
63 136
64 100
65 317
66 175
67 444
68 114
69 379
70 93
71 76
75 27
76 65
77 544
78 259
79 589
80 298
81 591
82 279
83 250
84 39
89 84
90 97
91 753
92 352
93 590
94 304
95 307
96 169
97 60
102 44
103 206
104 149
105 716
106 377
107 739
108 312
109 351
110 130
111 1
115 245
116 176
117 389
118 189
119 739
120 400
121 326
122 263
123 135
124 55
125 64
127 81
128 236
129 97
130 54
131 197
132 159
133 619
134 352
135 191
136 78
143 257
144 134
145 312
146 147
147 318
148 176
149 45
159 100
160 154
161 999
162 377
163 105
164 7
171 1
175 65
189 220
190 63
204 295
205 132

$$$$

     RDKit          2D

 18 19  0  0  0  0  0  0  0  0999 V2000
    0.0541    0.8434    0.0000 C   0  0  0  0  0  0  0  0  0  0  0  0
   -1.4649    6.9186    0.0000 C   0  0  0  0  0  0  0  0  0  0  0  0
   -2.9763    5.8178    0.0000 C   0  0  0  0  0  0  0  0  0  0  0  0
    3.9306    5.6101    0.0000 C   0  0  0  0  0  0  0  0  0  0  0  0
    1.0100    3.2000    0.0000 C   0  0  0  0  0  0  0  0  0  0  0  0
    2.4100    2.6700    0.0000 C   0  0  0  0  0  0  0  0  0  0  0  0
    0.8203    7.1019    0.0000 C   0  0  0  0  0  0  0  0  0  0  0  0
    2.3409    6.7542    0.0000 C   0  0  0  0  0  0  0  0  0  0  0  0
   -1.6500    2.7200    0.0000 C   0  0  0  0  0  0  0  0  0  0  0  0
   -0.2100    2.3200    0.0000 C   0  0  0  0  0  0  0  0  0  0  0  0
    3.3500    3.8500    0.0000 C   0  0  0  0  0  0  0  0  0  0  0  0
   -2.2400    4.1000    0.0000 C   0  0  0  0  0  0  0  0  0  0  0  0
   -0.0600    5.6900    0.0000 C   0  0  0  0  0  0  0  0  0  0  0  0
   -1.5300    5.4200    0.0000 C   0  0  0  0  0  0  0  0  0  0  0  0
    2.5200    5.1000    0.0000 C   0  0  0  0  0  0  0  0  0  0  0  0
    4.8486    3.7851    0.0000 O   0  0  0  0  0  0  0  0  0  0  0  0
   -3.7385    4.1671    0.0000 O   0  0  0  0  0  0  0  0  0  0  0  0
    1.0700    4.7000    0.0000 O   0  0  0  0  0  0  0  0  0  0  0  0
  6  5  1  0
  8  7  1  0
 10  1  1  0
 10  5  1  0
  9 10  2  0
 11  6  1  0
 12  9  1  0
 13  7  1  0
 14  2  1  0
 14  3  1  0
 14 12  1  0
 14 13  1  0
 15  4  1  0
 15  8  1  0
 15 11  1  0
 16 11  1  0
 17 12  1  0
 18 13  1  0
 18 15  1  0
M  END
>  <NAME>  (5872) 
ISOCAUCALOL

>  <SYNONYMS>  (5872) 


>  <SPECTRUM TYPE>  (5872) 
MS1

>  <INSTRUMENT TYPE>  (5872) 
EI-B

>  <INSTRUMENT>  (5872) 
HITACHI RMU-6D

>  <ION MODE>  (5872) 
P

>  <INCHIKEY>  (5872) 
GMYOIOXPNNQOMS-KTKRTIGZSA-N

>  <FORMULA>  (5872) 
C15H26O3

>  <EXACT MASS>  (5872) 
254.18819469199997

>  <MW>  (5872) 
254

>  <ID>  (5872) 
JP000327

>  <CONTRIBUTOR>  (5872) 
University of Tokyo Team, {Faculty of Engineering, University of Tokyo

>  <COMMENT>  (5872) 
SMILES=CC(C1)=C([H])C(O)C(C)(C)C(C2)OC(C)(C2)C(O)C1
InChI=InChI=1S/C15H26O3/c1-10-5-6-11(16)15(4)8-7-13(18-15)14(2,3)12(17)9-10/h9,11-13,16-17H,5-8H2,1-4H3/b10-9-
computed SMILES=OC1C=C(C)CCC(O)C2(OC(CC2)C1(C)C)C
accession=JP000327
date=2016.01.19 (Created 2008.10.21, modified 2011.05.06)
author=SASAKI S, TOYOHASHI UNIV. OF TECH.
license=CC BY-NC-SA
exact mass=254.18819
ionization energy=70 eV
ion type=[M]+*
computed spectral entropy=3.4167091247010934
computed normalized entropy=0.7241093444965271
SPLASH=splash10-0006-9200000000-580a290ba7b9906ee687
submitter=submitter = University of Tokyo Team (Faculty of Engineering, University of Tokyo)
MoNA Rating=3.75

>  <NUM PEAKS>  (5872) 
112

>  <MASS SPECTRAL PEAKS>  (5872) 
41 70
42 14
43 99.99
44 0.9
45 5.5
51 1.5
52 0.5
53 0.01
54 1.5
55 25
56 9
57 1.15
58 2
59 2
60 0.5
62 0.01
63 0.1
65 2
66 1
67 0.65
68 3
69 24.5
70 4
71 0.15
72 2
73 3.8
74 1
75 0.05
77 3.5
78 1
79 4.5
80 0.25
81 14
82 6.3
83 17
84 0.37
85 7
86 2
87 2.5
88 0.01
89 0.5
91 3.5
92 1
93 0.65
94 3
95 8
96 2.5
97 0.95
98 4.5
99 3
101 8.5
102 0.05
105 1.5
107 6
108 6.5
109 0.29
110 18
111 8.5
112 1.3
113 0.16
115 0.5
117 0.8
118 0.5
119 0.02
120 0.8
121 5.5
122 3
124 0.15
125 6.5
126 6
127 11.5
128 0.18
129 0.8
130 0.3
131 0.3
132 0.05
133 1
134 3
135 2.5
136 0.28
137 2
138 0.8
139 2.5
140 0.08
141 0.5
142 0.5
143 0.5
144 0.05
145 0.5
147 1.3
148 0.5
149 0.15
151 1
152 0.8
153 2
154 0.28
155 0.7
159 0.5
160 1
161 0.01
163 0.8
164 0.7
165 2.3
167 0.07
171 1
175 1
179 1
191 0.17
218 1.5
236 4.5
237 1
254 1

>  <PREDICTED SPECTRUM>  (5872) 
18 10
23 1
25 7
26 58
27 257
28 92
29 281
30 62
31 174
32 0
33 18
34 8
36 6
37 23
38 69
39 369
40 200
41 824
42 350
43 999
44 262
45 251
46 45
47 55
48 11
49 58
50 89
51 201
52 167
53 463
54 248
55 734
56 301
57 412
58 186
59 504
60 141
61 76
62 30
63 98
64 76
65 332
66 207
67 580
68 327
69 642
70 226
71 446
72 189
73 80
74 58
75 38
76 42
77 396
78 227
79 497
80 245
81 598
82 397
83 488
84 281
85 405
86 142
87 175
88 3
89 71
90 2
91 547
92 299
93 576
94 362
95 542
96 346
97 447
98 191
99 189
100 110
101 82
102 26
103 129
104 115
105 368
106 225
107 444
108 252
109 565
110 319
111 400
112 203
113 210
114 100
115 140
116 37
117 59
119 258
120 286
121 456
122 235
123 325
124 190
125 338
126 195
127 317
128 190
129 177
130 65
131 178
132 104
133 180
134 131
135 318
136 202
137 295
138 192
139 184
140 171
141 147
142 113
143 129
144 92
145 126
146 72
147 195
148 129
149 344
150 185
151 263
152 130
153 158
154 126
155 143
156 92
157 89
158 40
159 88
160 95
161 213
162 170
163 168
164 62
165 122
166 137
167 155
168 146
169 15
170 2
171 47
172 47
173 18
174 74
175 150
176 163
177 172
178 153
179 189
180 100
181 125
182 78
183 30
184 52
185 133
186 80
187 104
188 41
189 147
190 76
191 51
192 54
193 194
194 85
195 110
196 73
197 17
200 15
201 11
202 23
203 231
204 95
205 118
206 37
207 73
218 36
219 93
220 61
221 150
222 63
226 1
236 205
237 102
238 11
239 41
240 3
254 135
255 63

$$$$

     RDKit          2D

 24 25  0  0  1  0  0  0  0  0999 V2000
    2.0602    5.4489    0.0000 C   0  0  0  0  0  0  0  0  0  0  0  0
    2.0606   -4.9470    0.0000 C   0  0  0  0  0  0  0  0  0  0  0  0
    5.0600    2.8490    0.0000 C   0  0  0  0  0  0  0  0  0  0  0  0
    3.2092   -0.7141    0.0000 C   0  0  0  0  0  0  0  0  0  0  0  0
    3.3591    0.9999    0.0000 C   0  0  0  0  0  0  0  0  0  0  0  0
   -2.8671   -1.1879    0.0000 C   0  0  0  0  0  0  0  0  0  0  0  0
   -0.1900    4.1500    0.0000 C   0  0  0  0  0  0  0  0  0  0  0  0
   -0.9400    2.8500    0.0000 C   0  0  0  0  0  0  0  0  0  0  0  0
   -0.1900   -1.0500    0.0000 C   0  0  0  0  0  0  0  0  0  0  0  0
   -0.9400    0.2500    0.0000 C   0  0  0  0  0  0  0  0  0  0  0  0
    2.0600    2.8500    0.0000 C   0  0  0  0  0  0  0  0  0  0  0  0
    1.3100    4.1500    0.0000 C   0  0  0  0  0  0  0  0  0  0  0  0
    1.3104   -3.6481    0.0000 C   0  0  0  0  0  0  0  0  0  0  0  0
    3.5600    2.8490    0.0000 C   0  0  0  0  0  0  0  0  0  0  0  0
    1.3100   -1.0500    0.0000 C   0  0  0  0  0  0  0  0  0  0  0  0
   -3.1900    1.5500    0.0000 C   0  0  0  0  0  0  0  0  0  0  0  0
    1.3100    1.5500    0.0000 C   0  0  0  0  0  0  0  0  0  0  0  0
    2.0600    0.2500    0.0000 C   0  0  0  0  0  0  0  0  0  0  0  0
   -2.4400    0.2500    0.0000 C   0  0  0  0  0  0  0  0  0  0  0  0
   -0.1896   -3.6483    0.0000 O   0  0  0  0  0  0  0  0  0  0  0  0
    2.8100    4.1481    0.0000 O   0  0  0  0  0  0  0  0  0  0  0  0
    2.0602   -2.3489    0.0000 O   0  0  0  0  0  0  0  0  0  0  0  0
    2.8100    1.5500    0.0000 O   0  0  0  0  0  0  0  0  0  0  0  0
   -3.9402    0.2508    0.0000 O   0  0  0  0  0  0  0  0  0  0  0  0
  8  7  1  0
 10  9  1  0
 12  1  1  0
 12  7  1  0
 11 12  2  0
 13  2  1  0
 14  3  1  0
 15  9  1  0
 16  8  1  1
 17 11  1  0
 18  4  1  0
 18  5  1  0
 18 15  1  0
 18 17  1  0
 19  6  1  1
 19 10  1  0
 19 16  1  0
 20 13  2  0
 21 14  2  0
 22 13  1  0
 15 22  1  1
 23 14  1  0
 17 23  1  1
 16 24  1  0
 24 19  1  0
M  END
>  <NAME>  (5873) 
CAUCALOL DIACETATE

>  <SYNONYMS>  (5873) 


>  <SPECTRUM TYPE>  (5873) 
MS1

>  <INSTRUMENT TYPE>  (5873) 
EI-B

>  <INSTRUMENT>  (5873) 
HITACHI RMU-6D

>  <ION MODE>  (5873) 
P

>  <INCHIKEY>  (5873) 
LLDZPKVTWNOHBD-NXWIZDFYSA-N

>  <FORMULA>  (5873) 
C19H30O5

>  <EXACT MASS>  (5873) 
338.20932406

>  <MW>  (5873) 
338

>  <ID>  (5873) 
JP000326

>  <CONTRIBUTOR>  (5873) 
University of Tokyo Team, {Faculty of Engineering, University of Tokyo

>  <COMMENT>  (5873) 
SMILES=CC(=O)OC([H])(C2)C(C)(C)C([H])(OC(C)=O)C([H])=C(C)CCC([H])(O1)C(C)(C2)1
InChI=InChI=1S/C19H30O5/c1-12-7-8-16-19(6,24-16)10-9-15(22-13(2)20)18(4,5)17(11-12)23-14(3)21/h11,15-17H,7-10H2,1-6H3/b12-11-/t15-,16-,17-,19-/m0/s1
computed SMILES=O=C(OC1C=C(C)CCC2OC2(C)CCC(OC(=O)C)C1(C)C)C
accession=JP000326
date=2016.01.19 (Created 2008.10.21, modified 2011.05.06)
author=SASAKI S, TOYOHASHI UNIV. OF TECH.
license=CC BY-NC-SA
exact mass=338.20932
ionization energy=70 eV
ion type=[M]+*
computed spectral entropy=4.175640344131618
computed normalized entropy=0.8187744528660348
SPLASH=splash10-0apl-9600000000-fc6fb1a4523c5a527c84
submitter=submitter = University of Tokyo Team (Faculty of Engineering, University of Tokyo)
MoNA Rating=3.75

>  <NUM PEAKS>  (5873) 
164

>  <MASS SPECTRAL PEAKS>  (5873) 
41 23
42 2.5
43 99.99
44 0.2
45 3
50 2.5
51 8
52 0.05
53 9
54 7
55 78
56 0.09
57 19.5
58 2.5
59 4.5
60 0.75
61 3.5
62 1
63 2.5
64 0.15
65 13
66 5
67 42
68 1.08
69 47.5
70 6.5
71 22
72 0.85
73 2
74 0.5
75 1.5
76 0.01
77 26
78 12
79 35.5
80 1.55
81 54.5
82 33.5
83 33
84 3.05
85 17.5
87 1
89 1
90 0.29
91 7.5
92 34.5
93 12.8
94 3.35
95 12.5
96 25
97 5
99 0.45
100 3.5
101 3
102 1
103 0.05
104 1.5
105 22.5
106 8
107 0.42
109 78
110 17.5
111 23.5
112 0.85
113 1.5
114 3
115 5.5
116 0.15
117 7.5
118 4.5
119 19
120 0.85
121 24
122 15.5
123 15.5
124 0.09
125 13.5
126 11
127 1.5
128 0.03
129 3
130 2
131 7.5
132 0.45
133 16
134 5
135 17.5
136 0.12
137 10.5
138 5.5
139 6.5
140 0.35
141 1.5
142 1.5
143 3.8
144 0.02
145 1
146 3.5
147 23.5
148 0.75
149 10
150 5.5
151 8.5
152 0.06
153 6
154 6.5
155 2.5
156 0.15
157 5.3
158 2.5
159 2
160 0.75
161 11.5
162 6.5
163 4
164 0.15
165 2.5
166 1.5
167 5.5
168 0.15
169 1.8
170 1
171 2
172 0.3
173 3
174 5.5
175 17.5
176 0.04
177 2
178 1
179 1
180 0.08
185 6
186 0.8
187 1
188 0.05
189 4.5
190 4.5
191 2
192 0.01
193 1.5
200 4.3
201 2.5
202 0.07
204 1.3
206 8.5
207 0.7
208 0.07
209 1.5
211 0.7
212 0.7
216 0.07
217 2
218 15.7
219 5
220 0.02
221 1.5
222 0.8
236 4
237 0.02
238 1
278 3.2
279 1
338 1.5

>  <PREDICTED SPECTRUM>  (5873) 
0 0
13 3
14 5
15 26
16 8
17 4
18 9
25 4
26 19
27 76
28 73
29 98
30 24
31 50
33 0
34 0
36 0
37 2
38 38
39 208
40 127
41 364
42 235
43 999
44 243
45 200
46 26
47 29
48 18
49 22
50 69
51 121
52 111
53 241
54 158
55 314
56 149
57 185
58 154
59 172
60 137
61 86
62 18
63 48
64 36
65 188
66 118
67 261
68 162
69 241
70 116
71 217
72 164
73 137
74 36
75 52
76 22
77 256
78 147
79 287
80 169
81 296
82 184
83 183
84 148
85 170
86 103
87 78
89 16
90 13
91 277
92 148
93 295
94 158
95 236
96 170
97 128
98 129
99 140
100 104
101 82
102 25
103 62
104 67
105 215
106 151
107 267
108 175
109 257
110 169
111 186
112 94
113 113
114 62
115 97
116 44
117 136
118 91
119 204
120 204
121 261
122 176
123 153
124 115
125 100
126 65
127 107
128 67
129 70
130 71
131 156
132 105
133 223
134 190
135 337
136 140
137 105
138 88
139 69
140 33
141 55
142 34
143 108
144 85
145 215
146 106
147 222
148 193
149 219
150 126
151 111
152 74
153 87
154 7
155 67
156 97
157 77
158 108
159 180
160 127
161 149
162 166
163 134
164 101
165 94
166 41
167 44
168 25
169 47
171 72
172 35
173 128
174 54
175 161
176 163
177 157
178 121
179 80
180 45
181 65
182 13
183 29
184 14
185 67
186 30
187 29
188 29
189 135
190 70
191 91
192 41
193 79
194 100
195 63
196 43
197 20
200 5
201 18
202 62
203 282
204 123
205 122
207 56
208 33
209 96
210 36
211 32
212 8
217 74
218 254
219 231
220 136
221 155
222 85
223 31
224 17
225 52
226 37
227 69
228 26
235 134
236 91
237 85
238 52
239 0
245 38
249 30
250 3
252 14
253 20
260 8
261 6
263 224
264 111
265 65
266 14
277 4
278 251
279 189
280 51
281 82
294 7
295 51
296 15
323 67
324 8
338 99
339 34

$$$$

     RDKit          2D

 10 11  0  0  0  0  0  0  0  0999 V2000
   -1.4300    1.2100    0.0000 C   0  0  0  0  0  0  0  0  0  0  0  0
    1.4300    1.2100    0.0000 C   0  0  0  0  0  0  0  0  0  0  0  0
   -1.4300   -1.2100    0.0000 C   0  0  0  0  0  0  0  0  0  0  0  0
    1.4300   -1.2100    0.0000 C   0  0  0  0  0  0  0  0  0  0  0  0
    0.0000    0.7500    0.0000 C   0  0  0  0  0  0  0  0  0  0  0  0
    0.0000   -0.7500    0.0000 C   0  0  0  0  0  0  0  0  0  0  0  0
   -2.3100    0.0000    0.0000 C   0  0  0  0  0  0  0  0  0  0  0  0
    2.3100    0.0000    0.0000 C   0  0  0  0  0  0  0  0  0  0  0  0
   -3.8100    0.0000    0.0000 O   0  0  0  0  0  0  0  0  0  0  0  0
    3.8100   -0.0000    0.0000 O   0  0  0  0  0  0  0  0  0  0  0  0
  5  1  1  0
  5  2  1  0
  6  3  1  0
  6  4  1  0
  6  5  1  0
  7  1  1  0
  7  3  1  0
  8  2  1  0
  8  4  1  0
  9  7  2  0
 10  8  2  0
M  END
>  <NAME>  (5874) 
CIS-BICYCLO(3.3.0)OCTAN-3,7-DIONE

>  <SYNONYMS>  (5874) 


>  <SPECTRUM TYPE>  (5874) 
MS1

>  <INSTRUMENT TYPE>  (5874) 
EI-B

>  <INSTRUMENT>  (5874) 
ESCO EMD-05A

>  <ION MODE>  (5874) 
P

>  <INCHIKEY>  (5874) 
HAFQHNGZPQYKFF-UHFFFAOYSA-N

>  <FORMULA>  (5874) 
C8H10O2

>  <EXACT MASS>  (5874) 
138.06807956

>  <MW>  (5874) 
138

>  <ID>  (5874) 
JP000325

>  <CONTRIBUTOR>  (5874) 
University of Tokyo Team, {Faculty of Engineering, University of Tokyo

>  <COMMENT>  (5874) 
SMILES=O=C(C1)CC([H])(C2)C([H])1CC(=O)2
InChI=InChI=1S/C8H10O2/c9-7-1-5-2-8(10)4-6(5)3-7/h5-6H,1-4H2
computed SMILES=O=C1CC2CC(=O)CC2C1
accession=JP000325
date=2016.01.19 (Created 2008.10.21, modified 2011.05.06)
author=YAMAMOTO M, DEP. CHEMISTRY, FAC. SCIENCE, NARA WOMEN'S UNIV.
license=CC BY-NC-SA
exact mass=138.06808
ionization energy=70 eV
ion type=[M]+*
computed spectral entropy=2.6003422963032348
computed normalized entropy=0.7572370371406497
SPLASH=splash10-000f-9100000000-27f836d1a21a4dc1cd34
submitter=submitter = University of Tokyo Team (Faculty of Engineering, University of Tokyo)
MoNA Rating=3.75

>  <NUM PEAKS>  (5874) 
31

>  <MASS SPECTRAL PEAKS>  (5874) 
37 2.8
38 3.9
39 36.1
40 1.08
41 99.99
42 17.6
43 31.7
44 0.34
50 4.2
51 2.3
52 3.5
53 1.14
54 5.9
55 10.9
57 2.3
58 0.81
65 3.1
66 2.3
67 10.2
68 5.91
69 26.1
70 5.1
91 7.9
92 0.2
95 10.9
96 4.3
97 5.7
110 0.45
137 2.5
138 42
139 5.1

>  <PREDICTED SPECTRUM>  (5874) 
14 5
25 33
26 176
27 365
28 227
29 168
30 57
31 2
32 59
33 52
34 45
35 16
36 113
37 117
38 249
39 875
40 436
41 865
42 881
43 585
44 328
46 78
47 99
49 30
50 159
51 210
52 161
53 199
54 689
55 283
56 133
60 73
61 37
62 148
63 92
64 112
65 155
66 248
67 439
68 551
69 425
70 276
71 16
77 73
78 149
79 81
80 54
81 155
82 281
83 7
94 19
95 377
96 319
110 187
123 12
138 999
139 301
140 116

$$$$

     RDKit          2D

 10 11  0  0  0  0  0  0  0  0999 V2000
   -2.3100   -0.7500    0.0000 C   0  0  0  0  0  0  0  0  0  0  0  0
   -2.3100    0.7500    0.0000 C   0  0  0  0  0  0  0  0  0  0  0  0
   -1.0100   -1.5000    0.0000 C   0  0  0  0  0  0  0  0  0  0  0  0
   -1.0100    1.5000    0.0000 C   0  0  0  0  0  0  0  0  0  0  0  0
    1.7200   -1.2100    0.0000 C   0  0  0  0  0  0  0  0  0  0  0  0
    1.7200    1.2100    0.0000 C   0  0  0  0  0  0  0  0  0  0  0  0
    0.2900   -0.7500    0.0000 C   0  0  0  0  0  0  0  0  0  0  0  0
    0.2900    0.7500    0.0000 C   0  0  0  0  0  0  0  0  0  0  0  0
    2.6000    0.0000    0.0000 C   0  0  0  0  0  0  0  0  0  0  0  0
    4.1000   -0.0000    0.0000 O   0  0  0  0  0  0  0  0  0  0  0  0
  2  1  2  0
  3  1  1  0
  4  2  1  0
  7  3  2  0
  7  5  1  0
  8  4  2  0
  8  6  1  0
  8  7  1  0
  9  5  1  0
  9  6  1  0
 10  9  2  0
M  END
>  <NAME>  (5875) 
2-INDANONE

>  <SYNONYMS>  (5875) 


>  <SPECTRUM TYPE>  (5875) 
MS1

>  <INSTRUMENT TYPE>  (5875) 
EI-B

>  <INSTRUMENT>  (5875) 
ESCO EMD-05A

>  <ION MODE>  (5875) 
P

>  <INCHIKEY>  (5875) 
UMJJFEIKYGFCAT-UHFFFAOYSA-N

>  <FORMULA>  (5875) 
C9H8O

>  <EXACT MASS>  (5875) 
132.057514876

>  <MW>  (5875) 
132

>  <ID>  (5875) 
JP000324

>  <CONTRIBUTOR>  (5875) 
University of Tokyo Team, {Faculty of Engineering, University of Tokyo

>  <COMMENT>  (5875) 
SMILES=O=C(C1)Cc(c2)c(ccc2)1
InChI=InChI=1S/C9H8O/c10-9-5-7-3-1-2-4-8(7)6-9/h1-4H,5-6H2
computed SMILES=O=C1CC=2C=CC=CC2C1
accession=JP000324
date=2016.01.19 (Created 2008.10.21, modified 2011.05.06)
author=YAMAMOTO M, DEP. CHEMISTRY, FAC. SCIENCE, NARA WOMEN'S UNIV.
license=CC BY-NC-SA
exact mass=132.05751
ionization energy=70 eV
ion type=[M]+*
computed spectral entropy=2.059379452099978
computed normalized entropy=0.7427641307133173
SPLASH=splash10-0udi-5900000000-cf87874bc0aafaa63b25
submitter=submitter = University of Tokyo Team (Faculty of Engineering, University of Tokyo)
MoNA Rating=3.75

>  <NUM PEAKS>  (5875) 
16

>  <MASS SPECTRAL PEAKS>  (5875) 
39 9.9
43 14
50 7.8
51 2.95
52 11.8
58 2.5
63 6.7
76 0.18
77 15.3
78 27.7
102 5.2
103 3.42
104 99.99
105 7.9
132 50.5
133 1.9

>  <PREDICTED SPECTRUM>  (5875) 
25 7
26 81
27 160
28 69
29 47
31 6
36 0
37 68
38 141
39 365
40 126
41 89
42 83
43 261
44 68
49 89
50 334
51 506
52 263
53 119
54 71
55 164
56 30
57 75
58 92
61 96
62 232
63 403
64 223
65 199
66 42
70 24
72 63
73 14
74 200
75 165
76 243
77 581
78 318
79 96
85 79
86 80
87 55
88 77
89 430
90 304
91 104
92 72
101 5
102 151
103 678
104 814
105 351
106 11
114 40
115 162
116 104
117 66
130 56
131 332
132 999
133 356
134 34

$$$$

     RDKit          2D

 10 11  0  0  0  0  0  0  0  0999 V2000
   -2.5200   -1.0100    0.0000 C   0  0  0  0  0  0  0  0  0  0  0  0
   -2.5200    0.4900    0.0000 C   0  0  0  0  0  0  0  0  0  0  0  0
   -1.2300   -1.7600    0.0000 C   0  0  0  0  0  0  0  0  0  0  0  0
   -1.2300    1.2400    0.0000 C   0  0  0  0  0  0  0  0  0  0  0  0
    1.5000   -1.4800    0.0000 C   0  0  0  0  0  0  0  0  0  0  0  0
    2.3800   -0.2600    0.0000 C   0  0  0  0  0  0  0  0  0  0  0  0
    0.0700   -1.0100    0.0000 C   0  0  0  0  0  0  0  0  0  0  0  0
    0.0700    0.4900    0.0000 C   0  0  0  0  0  0  0  0  0  0  0  0
    1.5000    0.9500    0.0000 C   0  0  0  0  0  0  0  0  0  0  0  0
    1.9653    2.3760    0.0000 O   0  0  0  0  0  0  0  0  0  0  0  0
  2  1  2  0
  3  1  1  0
  4  2  1  0
  6  5  1  0
  7  3  2  0
  7  5  1  0
  8  4  2  0
  8  7  1  0
  9  6  1  0
  9  8  1  0
 10  9  2  0
M  END
>  <NAME>  (5876) 
1-INDANONE

>  <SYNONYMS>  (5876) 


>  <SPECTRUM TYPE>  (5876) 
MS1

>  <INSTRUMENT TYPE>  (5876) 
EI-B

>  <INSTRUMENT>  (5876) 
ESCO EMD-05A

>  <ION MODE>  (5876) 
P

>  <INCHIKEY>  (5876) 
QNXSIUBBGPHDDE-UHFFFAOYSA-N

>  <FORMULA>  (5876) 
C9H8O

>  <EXACT MASS>  (5876) 
132.057514876

>  <MW>  (5876) 
132

>  <ID>  (5876) 
JP000323

>  <CONTRIBUTOR>  (5876) 
University of Tokyo Team, {Faculty of Engineering, University of Tokyo

>  <COMMENT>  (5876) 
SMILES=O=C(C1)c(c2)c(ccc2)C1
InChI=InChI=1S/C9H8O/c10-9-6-5-7-3-1-2-4-8(7)9/h1-4H,5-6H2
computed SMILES=O=C1C=2C=CC=CC2CC1
accession=JP000323
date=2016.01.19 (Created 2008.10.21, modified 2011.05.06)
author=YAMAMOTO M, DEP. CHEMISTRY, FAC. SCIENCE, NARA WOMEN'S UNIV.
license=CC BY-NC-SA
exact mass=132.05751
ionization energy=70 eV
ion type=[M]+*
computed spectral entropy=2.437067555621297
computed normalized entropy=0.7668427552576972
SPLASH=splash10-0f89-5900000000-8ec8888fed124089d446
submitter=submitter = University of Tokyo Team (Faculty of Engineering, University of Tokyo)
MoNA Rating=3.75

>  <NUM PEAKS>  (5876) 
24

>  <MASS SPECTRAL PEAKS>  (5876) 
38 1.6
39 6.2
43 4.1
50 1.37
51 25.6
52 3.6
61 1
62 0.29
63 8.3
64 1
74 7.4
75 0.48
76 14
77 24.3
78 24.4
79 0.1
89 2.8
102 8.9
103 44.3
104 8.41
105 11.1
131 28.1
132 99.99
133 10.3

>  <PREDICTED SPECTRUM>  (5876) 
14 28
15 44
17 10
18 26
25 26
26 129
27 180
28 123
29 94
37 110
38 157
39 260
40 64
41 37
42 17
43 50
49 195
50 360
51 406
52 176
53 99
54 19
55 64
57 75
58 133
60 24
61 187
62 305
63 494
64 247
65 280
66 70
71 20
73 92
74 275
75 330
76 435
77 401
78 286
79 81
85 53
86 150
87 163
88 73
89 399
90 333
91 342
92 140
99 23
101 168
102 343
103 892
104 773
105 306
106 37
113 32
114 151
115 402
116 192
117 187
118 48
130 113
131 587
132 999
133 333
134 82

$$$$

     RDKit          2D

  8  7  0  0  0  0  0  0  0  0999 V2000
    1.9486    3.3750    0.0000 C   0  0  0  0  0  0  0  0  0  0  0  0
   -5.8457    3.3750    0.0000 C   0  0  0  0  0  0  0  0  0  0  0  0
    0.6495    4.1250    0.0000 C   0  0  0  0  0  0  0  0  0  0  0  0
   -0.6495    3.3750    0.0000 C   0  0  0  0  0  0  0  0  0  0  0  0
   -1.9486    4.1250    0.0000 C   0  0  0  0  0  0  0  0  0  0  0  0
   -4.5466    4.1250    0.0000 C   0  0  0  0  0  0  0  0  0  0  0  0
   -3.2476    3.3750    0.0000 N   0  0  0  0  0  0  0  0  0  0  0  0
   -4.5466    5.6250    0.0000 O   0  0  0  0  0  0  0  0  0  0  0  0
  3  1  1  0
  4  3  1  0
  5  4  1  0
  6  2  1  0
  7  5  1  0
  7  6  2  3
  8  6  1  0
M  END
>  <NAME>  (5877) 
N-BUTYLACETAMIDE

>  <SYNONYMS>  (5877) 


>  <SPECTRUM TYPE>  (5877) 
MS1

>  <INSTRUMENT TYPE>  (5877) 
EI-B

>  <INSTRUMENT>  (5877) 
HITACHI RMU-6M

>  <ION MODE>  (5877) 
P

>  <INCHIKEY>  (5877) 
GYLDXXLJMRTVSS-UHFFFAOYSA-N

>  <FORMULA>  (5877) 
C6H13NO

>  <EXACT MASS>  (5877) 
115.099714036

>  <MW>  (5877) 
115

>  <ID>  (5877) 
JP000312

>  <CONTRIBUTOR>  (5877) 
University of Tokyo Team, {Faculty of Engineering, University of Tokyo

>  <COMMENT>  (5877) 
SMILES=CCCCNC(C)=O
InChI=InChI=1S/C6H13NO/c1-3-4-5-7-6(2)8/h3-5H2,1-2H3,(H,7,8)
computed SMILES=OC(=NCCCC)C
accession=JP000312
date=2016.01.19 (Created 2008.10.21, modified 2011.05.06)
author=YAMAMOTO M, DEP. CHEMISTRY, FAC. SCIENCE, NARA WOMEN'S UNIV.
license=CC BY-NC-SA
exact mass=115.09971
ionization energy=70 eV
ion type=[M]+*
computed spectral entropy=2.1676687035209197
computed normalized entropy=0.6913323878923401
SPLASH=splash10-001l-9000000000-a4636dd5080c9c0e857a
submitter=submitter = University of Tokyo Team (Faculty of Engineering, University of Tokyo)
MoNA Rating=3.75

>  <NUM PEAKS>  (5877) 
23

>  <MASS SPECTRAL PEAKS>  (5877) 
15 6
27 6.1
28 5.2
29 0.58
30 99.99
31 2.8
39 3.4
41 0.73
42 3.1
43 33.2
44 18
45 0.18
55 1.2
56 2.4
57 2.1
58 0.3
60 7.9
72 22.1
73 16.9
86 0.67
100 5.5
115 10.4
116 1.3

>  <PREDICTED SPECTRUM>  (5877) 
14 58
15 122
16 10
17 2
18 27
26 90
27 320
28 267
29 336
30 339
31 68
32 60
38 27
39 428
40 207
41 936
42 766
43 999
44 679
45 547
46 135
52 32
53 69
54 187
55 239
56 509
57 426
58 447
59 271
60 96
68 265
69 145
70 602
71 141
72 924
73 692
82 202
83 236
84 127
86 315
87 167
98 145
100 272
101 4
114 170
115 631
116 176

$$$$

     RDKit          2D

 20 19  0  0  1  0  0  0  0  0999 V2000
   -6.8200    5.0625    0.0000 C   0  0  0  0  0  0  0  0  0  0  0  0
   -2.9228    8.8125    0.0000 C   0  0  0  0  0  0  0  0  0  0  0  0
    0.9743    5.0625    0.0000 C   0  0  0  0  0  0  0  0  0  0  0  0
  -10.7171    7.3125    0.0000 C   0  0  0  0  0  0  0  0  0  0  0  0
    4.8714    7.3125    0.0000 C   0  0  0  0  0  0  0  0  0  0  0  0
   -6.8200    6.5625    0.0000 C   0  0  0  0  0  0  0  0  0  0  0  0
   -2.9228    7.3125    0.0000 C   0  0  0  0  0  0  0  0  0  0  0  0
    0.9743    6.5625    0.0000 C   0  0  0  0  0  0  0  0  0  0  0  0
   -9.4180    6.5625    0.0000 C   0  0  0  0  0  0  0  0  0  0  0  0
   -5.5209    7.3125    0.0000 C   0  0  0  0  0  0  0  0  0  0  0  0
   -1.6238    6.5625    0.0000 C   0  0  0  0  0  0  0  0  0  0  0  0
    2.2733    7.3125    0.0000 C   0  0  0  0  0  0  0  0  0  0  0  0
   -8.1190    7.3125    0.0000 N   0  0  0  0  0  0  0  0  0  0  0  0
   -4.2219    6.5625    0.0000 N   0  0  0  0  0  0  0  0  0  0  0  0
   -0.3248    7.3125    0.0000 N   0  0  0  0  0  0  0  0  0  0  0  0
   -9.4180    5.0625    0.0000 O   0  0  0  0  0  0  0  0  0  0  0  0
   -5.5209    8.8125    0.0000 O   0  0  0  0  0  0  0  0  0  0  0  0
   -1.6238    5.0625    0.0000 O   0  0  0  0  0  0  0  0  0  0  0  0
    2.2733    8.8125    0.0000 O   0  0  0  0  0  0  0  0  0  0  0  0
    3.5724    6.5625    0.0000 O   0  0  0  0  0  0  0  0  0  0  0  0
  6  1  1  1
  7  2  1  6
  8  3  1  6
  9  4  1  0
 10  6  1  0
 11  7  1  0
 12  8  1  0
 13  6  1  0
 13  9  2  3
 14  7  1  0
 14 10  2  3
 15  8  1  0
 15 11  2  3
 16  9  1  0
 17 10  1  0
 18 11  1  0
 19 12  2  0
 20  5  1  0
 20 12  1  0
M  END
>  <NAME>  (5878) 
N-ACETYL-ALANYL-ALANYL-ALANINE METHYL ESTER

>  <SYNONYMS>  (5878) 


>  <SPECTRUM TYPE>  (5878) 
MS1

>  <INSTRUMENT TYPE>  (5878) 
EI-B

>  <INSTRUMENT>  (5878) 
HITACHI RMU-6M

>  <ION MODE>  (5878) 
P

>  <INCHIKEY>  (5878) 
FKSWBCPVKXRWMC-PRJMDXOYSA-N

>  <FORMULA>  (5878) 
C12H21N3O5

>  <EXACT MASS>  (5878) 
287.14812077199997

>  <MW>  (5878) 
287

>  <ID>  (5878) 
JP000301

>  <CONTRIBUTOR>  (5878) 
University of Tokyo Team, {Faculty of Engineering, University of Tokyo

>  <COMMENT>  (5878) 
SMILES=COC(=O)C([H])(C)NC(=O)C([H])(C)NC(=O)C([H])(C)NC(C)=O
InChI=InChI=1S/C12H21N3O5/c1-6(13-9(4)16)10(17)14-7(2)11(18)15-8(3)12(19)20-5/h6-8H,1-5H3,(H,13,16)(H,14,17)(H,15,18)/t6-,7-,8+/m1/s1
computed SMILES=O=C(OC)C(N=C(O)C(N=C(O)C(N=C(O)C)C)C)C
accession=JP000301
date=2016.01.19 (Created 2008.10.21, modified 2011.05.06)
author=YAMAMOTO M, DEP. CHEMISTRY, FAC. SCIENCE, NARA WOMEN'S UNIV.
license=CC BY-NC-SA
exact mass=287.14812
ionization energy=70 eV
ion type=[M]+*
computed spectral entropy=2.2063993403530255
computed normalized entropy=0.6487125246682286
SPLASH=splash10-0006-9100000000-52ffe69b2a7b54c596dc
submitter=submitter = University of Tokyo Team (Faculty of Engineering, University of Tokyo)
MoNA Rating=3.75

>  <NUM PEAKS>  (5878) 
30

>  <MASS SPECTRAL PEAKS>  (5878) 
15 4.4
27 1.7
28 9.8
30 0.22
32 2
41 1.2
42 5.6
43 0.79
44 99.99
45 3.6
55 1.9
56 0.18
59 1.5
70 4
71 2.6
72 0.34
86 16.3
87 11.2
99 3.4
102 0.16
104 2
113 1.3
114 11.4
141 0.34
157 9.1
158 8.5
159 3.2
185 0.44
201 2.6
228 1.6

>  <PREDICTED SPECTRUM>  (5878) 
14 12
15 36
16 15
17 44
18 61
25 19
26 37
27 145
28 184
29 211
30 185
31 209
32 40
33 85
34 37
35 3
36 42
38 35
39 199
40 176
41 678
42 837
43 999
44 571
45 735
46 194
47 73
49 36
50 0
51 85
52 88
53 200
54 290
55 360
56 382
57 266
58 499
59 625
60 425
61 125
62 33
63 71
64 34
65 30
66 19
67 114
68 341
69 456
70 313
71 187
72 101
73 207
74 149
78 39
79 59
80 115
81 80
82 272
83 162
84 68
85 136
86 240
87 232
88 40
94 59
95 92
96 239
97 365
98 299
99 306
100 149
101 200
102 124
108 67
109 134
110 174
111 242
112 140
113 257
114 59
115 43
122 94
123 185
124 399
125 264
126 194
127 154
128 113
137 21
138 175
139 93
140 318
141 68
142 163
143 125
144 61
151 6
152 213
153 155
154 279
155 151
156 19
157 113
158 155
159 6
166 64
167 42
168 119
169 275
170 141
172 94
173 31
179 45
180 10
182 179
183 215
184 103
186 63
187 22
194 191
195 94
196 291
197 51
198 100
200 128
209 23
210 17
212 65
224 27
228 7
242 268
243 67
287 68

$$$$

     RDKit          2D

 19 18  0  0  1  0  0  0  0  0999 V2000
   -2.9228    8.8125    0.0000 C   0  0  0  0  0  0  0  0  0  0  0  0
    0.9743    5.0625    0.0000 C   0  0  0  0  0  0  0  0  0  0  0  0
  -10.7171    7.3125    0.0000 C   0  0  0  0  0  0  0  0  0  0  0  0
    4.8714    7.3125    0.0000 C   0  0  0  0  0  0  0  0  0  0  0  0
   -6.8200    6.5625    0.0000 C   0  0  0  0  0  0  0  0  0  0  0  0
   -2.9228    7.3125    0.0000 C   0  0  0  0  0  0  0  0  0  0  0  0
    0.9743    6.5625    0.0000 C   0  0  0  0  0  0  0  0  0  0  0  0
   -9.4180    6.5625    0.0000 C   0  0  0  0  0  0  0  0  0  0  0  0
   -5.5209    7.3125    0.0000 C   0  0  0  0  0  0  0  0  0  0  0  0
   -1.6238    6.5625    0.0000 C   0  0  0  0  0  0  0  0  0  0  0  0
    2.2733    7.3125    0.0000 C   0  0  0  0  0  0  0  0  0  0  0  0
   -8.1190    7.3125    0.0000 N   0  0  0  0  0  0  0  0  0  0  0  0
   -4.2219    6.5625    0.0000 N   0  0  0  0  0  0  0  0  0  0  0  0
   -0.3248    7.3125    0.0000 N   0  0  0  0  0  0  0  0  0  0  0  0
   -9.4180    5.0625    0.0000 O   0  0  0  0  0  0  0  0  0  0  0  0
   -5.5209    8.8125    0.0000 O   0  0  0  0  0  0  0  0  0  0  0  0
   -1.6238    5.0625    0.0000 O   0  0  0  0  0  0  0  0  0  0  0  0
    2.2733    8.8125    0.0000 O   0  0  0  0  0  0  0  0  0  0  0  0
    3.5724    6.5625    0.0000 O   0  0  0  0  0  0  0  0  0  0  0  0
  6  1  1  6
  7  2  1  6
  8  3  1  0
  9  5  1  0
 10  6  1  0
 11  7  1  0
 12  5  1  0
 12  8  2  3
 13  6  1  0
 13  9  2  3
 14  7  1  0
 14 10  2  3
 15  8  1  0
 16  9  1  0
 17 10  1  0
 18 11  2  0
 19  4  1  0
 19 11  1  0
M  END
>  <NAME>  (5879) 
N-ACETYL-GLYCYL-ALANYL-ALANINE METHYL ESTER

>  <SYNONYMS>  (5879) 


>  <SPECTRUM TYPE>  (5879) 
MS1

>  <INSTRUMENT TYPE>  (5879) 
EI-B

>  <INSTRUMENT>  (5879) 
HITACHI RMU-6M

>  <ION MODE>  (5879) 
P

>  <INCHIKEY>  (5879) 
VLAFVIQYTNYXEZ-RQJHMYQMSA-N

>  <FORMULA>  (5879) 
C11H19N3O5

>  <EXACT MASS>  (5879) 
273.132470708

>  <MW>  (5879) 
273

>  <ID>  (5879) 
JP000300

>  <CONTRIBUTOR>  (5879) 
University of Tokyo Team, {Faculty of Engineering, University of Tokyo

>  <COMMENT>  (5879) 
SMILES=COC(=O)C([H])(C)NC(=O)C([H])(C)NC(=O)CNC(C)=O
InChI=InChI=1S/C11H19N3O5/c1-6(13-9(16)5-12-8(3)15)10(17)14-7(2)11(18)19-4/h6-7H,5H2,1-4H3,(H,12,15)(H,13,16)(H,14,17)/t6-,7+/m1/s1
computed SMILES=O=C(OC)C(N=C(O)C(N=C(O)CN=C(O)C)C)C
accession=JP000300
date=2016.01.19 (Created 2008.10.21, modified 2011.05.06)
author=YAMAMOTO M, DEP. CHEMISTRY, FAC. SCIENCE, NARA WOMEN'S UNIV.
license=CC BY-NC-SA
exact mass=273.13247
ionization energy=70 eV
ion type=[M]+*
computed spectral entropy=2.288842516232564
computed normalized entropy=0.6437745268950454
SPLASH=splash10-0006-9100000000-e3fc2a97fe6112f1edf4
submitter=submitter = University of Tokyo Team (Faculty of Engineering, University of Tokyo)
MoNA Rating=3.75

>  <NUM PEAKS>  (5879) 
35

>  <MASS SPECTRAL PEAKS>  (5879) 
15 5.4
27 1.6
28 7.7
29 0.11
30 22.3
31 1.6
32 2
41 0.11
42 4.3
43 11
44 99.99
45 0.39
55 1.4
56 1.7
57 3.7
59 0.14
60 1.2
70 3.9
71 1
72 0.94
73 4.6
85 2.8
99 1.2
100 0.9
101 1
102 1.7
104 1.6
113 0.14
141 4.5
143 9
144 13
145 0.11
171 4.4
201 1.4
214 2.8

>  <PREDICTED SPECTRUM>  (5879) 
15 19
16 11
17 26
18 42
25 11
26 46
27 145
28 173
29 210
30 149
31 131
32 64
33 87
34 39
35 40
36 113
37 25
38 92
39 343
40 246
41 755
42 999
43 886
44 716
45 862
46 263
47 142
48 17
49 27
50 79
51 113
52 157
53 339
54 436
55 526
56 693
57 350
58 664
59 601
60 448
61 89
62 31
63 10
64 39
65 100
66 103
67 213
68 430
69 479
70 543
71 498
72 412
73 397
74 288
75 82
77 77
78 21
79 90
80 135
81 131
82 282
83 301
84 255
85 248
86 275
87 325
88 89
89 31
90 51
91 140
92 8
93 139
94 236
95 242
96 308
97 391
98 409
99 579
100 191
101 276
102 165
108 117
109 176
110 316
111 259
112 132
113 235
114 257
115 263
116 36
117 42
119 68
121 19
122 34
123 149
124 179
125 237
126 218
127 121
128 181
129 197
130 56
131 55
137 33
138 194
139 157
140 155
141 135
142 354
143 202
144 46
145 31
147 23
152 78
153 87
154 55
155 163
156 131
157 71
158 283
159 175
160 39
165 82
166 41
167 69
168 153
169 129
170 39
172 42
173 175
180 143
181 155
182 134
183 55
186 21
194 47
195 5
198 28
210 72
211 80
214 41
227 64
228 171
229 151
273 34

$$$$

     RDKit          2D

 19 18  0  0  1  0  0  0  0  0999 V2000
   -2.9228    8.8125    0.0000 C   0  0  0  0  0  0  0  0  0  0  0  0
   -6.8200    5.0625    0.0000 C   0  0  0  0  0  0  0  0  0  0  0  0
  -10.7171    7.3125    0.0000 C   0  0  0  0  0  0  0  0  0  0  0  0
    4.8714    7.3125    0.0000 C   0  0  0  0  0  0  0  0  0  0  0  0
    0.9743    6.5625    0.0000 C   0  0  0  0  0  0  0  0  0  0  0  0
   -2.9228    7.3125    0.0000 C   0  0  0  0  0  0  0  0  0  0  0  0
   -6.8200    6.5625    0.0000 C   0  0  0  0  0  0  0  0  0  0  0  0
   -9.4180    6.5625    0.0000 C   0  0  0  0  0  0  0  0  0  0  0  0
    2.2733    7.3125    0.0000 C   0  0  0  0  0  0  0  0  0  0  0  0
   -1.6238    6.5625    0.0000 C   0  0  0  0  0  0  0  0  0  0  0  0
   -5.5209    7.3125    0.0000 C   0  0  0  0  0  0  0  0  0  0  0  0
   -0.3248    7.3125    0.0000 N   0  0  0  0  0  0  0  0  0  0  0  0
   -8.1190    7.3125    0.0000 N   0  0  0  0  0  0  0  0  0  0  0  0
   -4.2219    6.5625    0.0000 N   0  0  0  0  0  0  0  0  0  0  0  0
   -9.4180    5.0625    0.0000 O   0  0  0  0  0  0  0  0  0  0  0  0
    2.2733    8.8125    0.0000 O   0  0  0  0  0  0  0  0  0  0  0  0
   -1.6238    5.0625    0.0000 O   0  0  0  0  0  0  0  0  0  0  0  0
   -5.5209    8.8125    0.0000 O   0  0  0  0  0  0  0  0  0  0  0  0
    3.5724    6.5625    0.0000 O   0  0  0  0  0  0  0  0  0  0  0  0
  6  1  1  1
  7  2  1  1
  8  3  1  0
  9  5  1  0
 10  6  1  0
 11  7  1  0
 12  5  1  0
 12 10  2  3
 13  7  1  0
 13  8  2  3
 14  6  1  0
 14 11  2  3
 15  8  1  0
 16  9  2  0
 17 10  1  0
 18 11  1  0
 19  4  1  0
 19  9  1  0
M  END
>  <NAME>  (5880) 
N-ACETYL-ALANYL-ALANYL-GLYCINE METHYL ESTER

>  <SYNONYMS>  (5880) 


>  <SPECTRUM TYPE>  (5880) 
MS1

>  <INSTRUMENT TYPE>  (5880) 
EI-B

>  <INSTRUMENT>  (5880) 
HITACHI RMU-6M

>  <ION MODE>  (5880) 
P

>  <INCHIKEY>  (5880) 
AOOOWAGCBQNBPR-NKWVEPMBSA-N

>  <FORMULA>  (5880) 
C11H19N3O5

>  <EXACT MASS>  (5880) 
273.132470708

>  <MW>  (5880) 
273

>  <ID>  (5880) 
JP000298

>  <CONTRIBUTOR>  (5880) 
University of Tokyo Team, {Faculty of Engineering, University of Tokyo

>  <COMMENT>  (5880) 
SMILES=COC(=O)CNC(=O)C([H])(C)NC(=O)C([H])(C)NC(C)=O
InChI=InChI=1S/C11H19N3O5/c1-6(10(17)12-5-9(16)19-4)14-11(18)7(2)13-8(3)15/h6-7H,5H2,1-4H3,(H,12,17)(H,13,15)(H,14,18)/t6-,7+/m0/s1
computed SMILES=O=C(OC)CN=C(O)C(N=C(O)C(N=C(O)C)C)C
accession=JP000298
date=2016.01.19 (Created 2008.10.21, modified 2011.05.06)
author=YAMAMOTO M, DEP. CHEMISTRY, FAC. SCIENCE, NARA WOMEN'S UNIV.
license=CC BY-NC-SA
exact mass=273.13247
ionization energy=70 eV
ion type=[M]+*
computed spectral entropy=2.2415255332975756
computed normalized entropy=0.6467675541828802
SPLASH=splash10-0006-9100000000-ac0324a862706b670bb6
submitter=submitter = University of Tokyo Team (Faculty of Engineering, University of Tokyo)
MoNA Rating=3.75

>  <NUM PEAKS>  (5880) 
32

>  <MASS SPECTRAL PEAKS>  (5880) 
15 4
27 1.7
28 12
29 0.11
30 7
32 2
41 1.3
42 0.5
43 10.7
44 99.99
45 3.2
55 0.19
56 4
57 1.3
70 2.7
71 0.19
72 4.4
85 1.2
86 18.7
87 1.44
88 2.1
90 2.4
99 2.9
113 0.12
114 10.6
127 1.9
145 3
157 1.21
158 4.9
185 3.2
187 1.8
273 1

>  <PREDICTED SPECTRUM>  (5880) 
14 36
15 125
16 30
17 80
18 114
25 40
26 121
27 326
28 341
29 375
30 230
31 278
32 84
33 84
34 21
36 26
37 10
38 75
39 328
40 240
41 696
42 999
43 833
44 683
45 779
46 259
47 71
49 9
50 37
51 24
52 75
53 156
54 403
55 447
56 611
57 324
58 416
59 579
60 428
61 30
64 48
65 108
66 84
67 181
68 337
69 393
70 285
71 331
72 327
73 424
74 343
75 17
77 61
79 99
80 139
81 111
82 272
83 328
84 276
85 234
86 146
87 126
90 10
91 60
94 53
95 193
96 286
97 360
98 465
99 258
100 173
101 134
102 90
108 31
109 105
110 339
111 322
112 141
113 127
114 334
115 177
122 74
123 101
124 353
125 289
126 313
127 323
128 257
129 116
130 62
131 30
137 54
138 266
139 230
140 367
141 232
142 244
143 107
152 128
153 38
154 184
155 301
156 172
157 23
158 293
159 59
160 68
168 210
169 131
170 95
173 30
180 126
181 133
182 187
184 4
196 39
197 20
210 114
214 11
228 136
229 104
230 33

$$$$

     RDKit          2D

 18 17  0  0  1  0  0  0  0  0999 V2000
   -2.9228    8.8125    0.0000 C   0  0  0  0  0  0  0  0  0  0  0  0
  -10.7171    7.3125    0.0000 C   0  0  0  0  0  0  0  0  0  0  0  0
    4.8714    7.3125    0.0000 C   0  0  0  0  0  0  0  0  0  0  0  0
   -6.8200    6.5625    0.0000 C   0  0  0  0  0  0  0  0  0  0  0  0
    0.9743    6.5625    0.0000 C   0  0  0  0  0  0  0  0  0  0  0  0
   -2.9228    7.3125    0.0000 C   0  0  0  0  0  0  0  0  0  0  0  0
   -9.4180    6.5625    0.0000 C   0  0  0  0  0  0  0  0  0  0  0  0
   -5.5209    7.3125    0.0000 C   0  0  0  0  0  0  0  0  0  0  0  0
    2.2733    7.3125    0.0000 C   0  0  0  0  0  0  0  0  0  0  0  0
   -1.6238    6.5625    0.0000 C   0  0  0  0  0  0  0  0  0  0  0  0
   -8.1190    7.3125    0.0000 N   0  0  0  0  0  0  0  0  0  0  0  0
   -0.3248    7.3125    0.0000 N   0  0  0  0  0  0  0  0  0  0  0  0
   -4.2219    6.5625    0.0000 N   0  0  0  0  0  0  0  0  0  0  0  0
   -9.4180    5.0625    0.0000 O   0  0  0  0  0  0  0  0  0  0  0  0
   -5.5209    8.8125    0.0000 O   0  0  0  0  0  0  0  0  0  0  0  0
    2.2733    8.8125    0.0000 O   0  0  0  0  0  0  0  0  0  0  0  0
   -1.6238    5.0625    0.0000 O   0  0  0  0  0  0  0  0  0  0  0  0
    3.5724    6.5625    0.0000 O   0  0  0  0  0  0  0  0  0  0  0  0
  6  1  1  6
  7  2  1  0
  8  4  1  0
  9  5  1  0
 10  6  1  0
 11  4  1  0
 11  7  2  3
 12  5  1  0
 12 10  2  3
 13  6  1  0
 13  8  2  3
 14  7  1  0
 15  8  1  0
 16  9  2  0
 17 10  1  0
 18  3  1  0
 18  9  1  0
M  END
>  <NAME>  (5881) 
N-ACETYL-GLYCYL-ALANYL-GLYCINE METHYL ESTER

>  <SYNONYMS>  (5881) 


>  <SPECTRUM TYPE>  (5881) 
MS1

>  <INSTRUMENT TYPE>  (5881) 
EI-B

>  <INSTRUMENT>  (5881) 
HITACHI RMU-6M

>  <ION MODE>  (5881) 
P

>  <INCHIKEY>  (5881) 
WBVHFIJZXUJKNA-ZCFIWIBFSA-N

>  <FORMULA>  (5881) 
C10H17N3O5

>  <EXACT MASS>  (5881) 
259.116820644

>  <MW>  (5881) 
259

>  <ID>  (5881) 
JP000297

>  <CONTRIBUTOR>  (5881) 
University of Tokyo Team, {Faculty of Engineering, University of Tokyo

>  <COMMENT>  (5881) 
SMILES=COC(=O)CNC(=O)C([H])(C)NC(=O)CNC(C)=O
InChI=InChI=1S/C10H17N3O5/c1-6(10(17)12-5-9(16)18-3)13-8(15)4-11-7(2)14/h6H,4-5H2,1-3H3,(H,11,14)(H,12,17)(H,13,15)/t6-/m1/s1
computed SMILES=O=C(OC)CN=C(O)C(N=C(O)CN=C(O)C)C
accession=JP000297
date=2016.01.19 (Created 2008.10.21, modified 2011.05.06)
author=YAMAMOTO M, DEP. CHEMISTRY, FAC. SCIENCE, NARA WOMEN'S UNIV.
license=CC BY-NC-SA
exact mass=259.11682
ionization energy=70 eV
ion type=[M]+*
computed spectral entropy=2.3248867488090172
computed normalized entropy=0.6592878784173882
SPLASH=splash10-0006-9100000000-0dca19dadfbe29e6cf48
submitter=submitter = University of Tokyo Team (Faculty of Engineering, University of Tokyo)
MoNA Rating=3.75

>  <NUM PEAKS>  (5881) 
34

>  <MASS SPECTRAL PEAKS>  (5881) 
15 5.9
27 1.6
28 9.9
29 0.18
30 36.2
31 2.5
41 1.1
42 0.41
43 14.5
44 99.99
45 4.5
55 0.18
56 4.8
57 4.3
58 1.1
59 0.1
60 1
70 2.9
72 13.7
73 0.77
85 3.3
88 2
89 2.3
99 0.27
100 11.3
101 1.2
127 4.5
143 1.62
144 10.2
145 1.9
155 1.1
171 0.48
187 1.5
259 0.7

>  <PREDICTED SPECTRUM>  (5881) 
14 31
15 117
16 42
17 56
18 77
19 5
25 46
26 147
27 381
28 363
29 434
30 253
31 237
32 102
33 96
34 35
35 34
36 94
37 34
38 116
39 367
40 269
41 770
42 999
43 750
44 772
45 890
46 267
47 90
48 1
50 73
51 147
52 166
53 278
54 510
55 624
56 790
57 363
58 596
59 484
60 553
61 128
62 12
63 86
64 15
65 103
66 66
67 175
68 248
69 383
70 375
71 538
72 421
73 392
74 215
75 92
76 92
77 197
78 99
79 166
80 153
81 186
82 152
83 175
84 165
85 198
86 264
87 220
88 64
94 68
95 160
96 315
97 286
98 350
99 413
100 286
101 211
102 100
103 53
105 92
107 48
108 118
109 189
110 245
111 249
112 217
113 149
114 341
115 261
116 199
117 143
118 38
123 123
124 185
125 183
126 168
127 251
128 178
129 237
130 113
131 105
133 5
138 50
139 37
140 14
141 170
142 270
143 128
144 198
145 102
146 50
151 83
154 160
155 179
156 145
158 73
159 155
160 74
165 1
166 121
167 184
168 171
170 11
181 5
182 0
183 75
196 115
197 111
200 13
201 9
213 54
214 56
215 39
230 7
241 13
242 14

$$$$

     RDKit          2D

 18 17  0  0  1  0  0  0  0  0999 V2000
    0.9743    5.0625    0.0000 C   0  0  0  0  0  0  0  0  0  0  0  0
  -10.7171    7.3125    0.0000 C   0  0  0  0  0  0  0  0  0  0  0  0
    4.8714    7.3125    0.0000 C   0  0  0  0  0  0  0  0  0  0  0  0
   -6.8200    6.5625    0.0000 C   0  0  0  0  0  0  0  0  0  0  0  0
   -2.9228    7.3125    0.0000 C   0  0  0  0  0  0  0  0  0  0  0  0
    0.9743    6.5625    0.0000 C   0  0  0  0  0  0  0  0  0  0  0  0
   -9.4180    6.5625    0.0000 C   0  0  0  0  0  0  0  0  0  0  0  0
   -5.5209    7.3125    0.0000 C   0  0  0  0  0  0  0  0  0  0  0  0
   -1.6238    6.5625    0.0000 C   0  0  0  0  0  0  0  0  0  0  0  0
    2.2733    7.3125    0.0000 C   0  0  0  0  0  0  0  0  0  0  0  0
   -8.1190    7.3125    0.0000 N   0  0  0  0  0  0  0  0  0  0  0  0
   -4.2219    6.5625    0.0000 N   0  0  0  0  0  0  0  0  0  0  0  0
   -0.3248    7.3125    0.0000 N   0  0  0  0  0  0  0  0  0  0  0  0
   -9.4180    5.0625    0.0000 O   0  0  0  0  0  0  0  0  0  0  0  0
   -5.5209    8.8125    0.0000 O   0  0  0  0  0  0  0  0  0  0  0  0
   -1.6238    5.0625    0.0000 O   0  0  0  0  0  0  0  0  0  0  0  0
    2.2733    8.8125    0.0000 O   0  0  0  0  0  0  0  0  0  0  0  0
    3.5724    6.5625    0.0000 O   0  0  0  0  0  0  0  0  0  0  0  0
  6  1  1  1
  7  2  1  0
  8  4  1  0
  9  5  1  0
 10  6  1  0
 11  4  1  0
 11  7  2  3
 12  5  1  0
 12  8  2  3
 13  6  1  0
 13  9  2  3
 14  7  1  0
 15  8  1  0
 16  9  1  0
 17 10  2  0
 18  3  1  0
 18 10  1  0
M  END
>  <NAME>  (5882) 
N-ACETYL-GLYCYL-GLYCYL-ALANINE METHYL ESTER

>  <SYNONYMS>  (5882) 


>  <SPECTRUM TYPE>  (5882) 
MS1

>  <INSTRUMENT TYPE>  (5882) 
EI-B

>  <INSTRUMENT>  (5882) 
HITACHI RMU-6M

>  <ION MODE>  (5882) 
P

>  <INCHIKEY>  (5882) 
JLSJNENSAQOMOY-ZCFIWIBFSA-N

>  <FORMULA>  (5882) 
C10H17N3O5

>  <EXACT MASS>  (5882) 
259.11682064400003

>  <MW>  (5882) 
259

>  <ID>  (5882) 
JP000296

>  <CONTRIBUTOR>  (5882) 
University of Tokyo Team, {Faculty of Engineering, University of Tokyo

>  <COMMENT>  (5882) 
SMILES=COC(=O)C([H])(C)NC(=O)CNC(=O)CNC(C)=O
InChI=InChI=1S/C10H17N3O5/c1-6(10(17)18-3)13-9(16)5-12-8(15)4-11-7(2)14/h6H,4-5H2,1-3H3,(H,11,14)(H,12,15)(H,13,16)/t6-/m1/s1
computed SMILES=O=C(OC)C(N=C(O)CN=C(O)CN=C(O)C)C
accession=JP000296
date=2016.01.19 (Created 2008.10.21, modified 2011.05.06)
author=YAMAMOTO M, DEP. CHEMISTRY, FAC. SCIENCE, NARA WOMEN'S UNIV.
license=CC BY-NC-SA
exact mass=259.11682
ionization energy=70 eV
ion type=[M]+*
computed spectral entropy=2.8872648636672325
computed normalized entropy=0.7272172743298535
SPLASH=splash10-0f8c-9210000000-e3bc249c7c916b046636
submitter=submitter = University of Tokyo Team (Faculty of Engineering, University of Tokyo)
MoNA Rating=3.75

>  <NUM PEAKS>  (5882) 
53

>  <MASS SPECTRAL PEAKS>  (5882) 
14 1.1
15 15.8
27 3
28 2.76
29 4.9
30 99.99
31 5.8
32 0.27
40 1
41 3.8
42 9.8
43 3.51
44 93.7
45 7.3
54 1
55 0.23
56 6.8
57 5.8
58 4.2
59 0.58
60 5.2
69 1.2
70 4.7
71 0.54
72 29.9
73 28.5
74 1.7
83 0.1
85 4.2
86 3.2
87 3.3
88 0.92
99 4.6
100 50
101 4.1
102 0.48
104 5.6
113 2.2
114 1.8
127 1.65
128 2.1
129 7
130 25.4
131 0.19
145 3.3
155 3.5
156 1
157 1.41
158 1.3
187 5.6
200 40.5
201 0.43
259 1.1

>  <PREDICTED SPECTRUM>  (5882) 
14 23
15 76
16 35
17 40
18 51
19 6
25 33
26 111
27 322
28 315
29 451
30 257
31 291
32 108
33 112
34 41
35 41
36 122
37 46
38 123
39 407
40 274
41 854
42 975
43 942
44 686
45 999
46 289
47 166
48 60
49 47
50 124
51 156
52 176
53 347
54 513
55 814
56 666
57 599
58 737
59 629
60 595
61 200
62 86
63 112
64 29
65 71
66 19
67 218
68 420
69 600
70 515
71 659
72 488
73 474
74 230
75 110
76 72
77 205
78 141
79 245
80 215
81 219
82 227
83 258
84 170
85 247
86 479
87 250
88 40
89 31
90 28
91 36
94 49
95 157
96 304
97 243
98 347
99 571
100 221
101 245
102 182
103 67
104 23
105 142
106 100
107 139
108 101
109 172
110 112
111 242
112 203
113 329
114 277
115 241
116 114
117 90
118 78
119 22
123 54
124 95
125 117
126 232
127 274
128 117
129 104
130 1
131 20
133 54
136 35
138 29
139 101
140 77
141 161
142 249
143 36
144 144
145 103
147 12
148 16
151 129
152 83
153 35
154 102
155 81
156 109
158 3
159 74
160 1
166 63
167 51
168 130
170 29
183 79
196 29
197 61
200 33
210 62
212 0
213 93
214 129
215 116
228 35
229 30
230 32
242 19

$$$$

     RDKit          2D

 17 16  0  0  0  0  0  0  0  0999 V2000
  -10.7171    7.3125    0.0000 C   0  0  0  0  0  0  0  0  0  0  0  0
    4.8714    7.3125    0.0000 C   0  0  0  0  0  0  0  0  0  0  0  0
   -6.8200    6.5625    0.0000 C   0  0  0  0  0  0  0  0  0  0  0  0
   -2.9228    7.3125    0.0000 C   0  0  0  0  0  0  0  0  0  0  0  0
    0.9743    6.5625    0.0000 C   0  0  0  0  0  0  0  0  0  0  0  0
   -9.4180    6.5625    0.0000 C   0  0  0  0  0  0  0  0  0  0  0  0
   -5.5209    7.3125    0.0000 C   0  0  0  0  0  0  0  0  0  0  0  0
   -1.6238    6.5625    0.0000 C   0  0  0  0  0  0  0  0  0  0  0  0
    2.2733    7.3125    0.0000 C   0  0  0  0  0  0  0  0  0  0  0  0
   -8.1190    7.3125    0.0000 N   0  0  0  0  0  0  0  0  0  0  0  0
   -4.2219    6.5625    0.0000 N   0  0  0  0  0  0  0  0  0  0  0  0
   -0.3248    7.3125    0.0000 N   0  0  0  0  0  0  0  0  0  0  0  0
   -9.4180    5.0625    0.0000 O   0  0  0  0  0  0  0  0  0  0  0  0
   -5.5209    8.8125    0.0000 O   0  0  0  0  0  0  0  0  0  0  0  0
   -1.6238    5.0625    0.0000 O   0  0  0  0  0  0  0  0  0  0  0  0
    2.2733    8.8125    0.0000 O   0  0  0  0  0  0  0  0  0  0  0  0
    3.5724    6.5625    0.0000 O   0  0  0  0  0  0  0  0  0  0  0  0
  6  1  1  0
  7  3  1  0
  8  4  1  0
  9  5  1  0
 10  3  1  0
 10  6  2  3
 11  4  1  0
 11  7  2  3
 12  5  1  0
 12  8  2  3
 13  6  1  0
 14  7  1  0
 15  8  1  0
 16  9  2  0
 17  2  1  0
 17  9  1  0
M  END
>  <NAME>  (5883) 
N-ACETYL-GLYCYL-GLYCYL-GLYCINE METHYL ESTER

>  <SYNONYMS>  (5883) 


>  <SPECTRUM TYPE>  (5883) 
MS1

>  <INSTRUMENT TYPE>  (5883) 
EI-B

>  <INSTRUMENT>  (5883) 
HITACHI RMU-6M

>  <ION MODE>  (5883) 
P

>  <INCHIKEY>  (5883) 
RBKYCFQDIAZTQJ-UHFFFAOYSA-N

>  <FORMULA>  (5883) 
C9H15N3O5

>  <EXACT MASS>  (5883) 
245.10117057999997

>  <MW>  (5883) 
245

>  <ID>  (5883) 
JP000295

>  <CONTRIBUTOR>  (5883) 
University of Tokyo Team, {Faculty of Engineering, University of Tokyo

>  <COMMENT>  (5883) 
SMILES=COC(=O)CNC(=O)CNC(=O)CNC(C)=O
InChI=InChI=1S/C9H15N3O5/c1-6(13)10-3-7(14)11-4-8(15)12-5-9(16)17-2/h3-5H2,1-2H3,(H,10,13)(H,11,14)(H,12,15)
computed SMILES=O=C(OC)CN=C(O)CN=C(O)CN=C(O)C
accession=JP000295
date=2016.01.19 (Created 2008.10.21, modified 2011.05.06)
author=YAMAMOTO M, DEP. CHEMISTRY, FAC. SCIENCE, NARA WOMEN'S UNIV.
license=CC BY-NC-SA
exact mass=245.10117
ionization energy=70 eV
ion type=[M]+*
computed spectral entropy=2.866322411296303
computed normalized entropy=0.7290054745663415
SPLASH=splash10-0089-9300000000-e1fbf8a0f08ad24bbc28
submitter=submitter = University of Tokyo Team (Faculty of Engineering, University of Tokyo)
MoNA Rating=3.75

>  <NUM PEAKS>  (5883) 
51

>  <MASS SPECTRAL PEAKS>  (5883) 
14 1.2
15 10.8
27 1.5
28 2.02
29 4.6
30 99.99
31 6.5
32 0.17
41 1.8
42 6.1
43 29.2
44 0.85
45 5.7
55 1.7
56 9.9
57 0.18
58 2.6
59 2.9
60 3.8
71 0.49
72 29.6
73 31.7
74 2.3
85 0.47
87 1.7
88 6.7
89 1.3
90 0.65
99 1.9
100 40.5
101 2.4
103 0.16
113 9.3
114 2.2
115 1.4
129 0.6
130 27.3
131 5.9
141 4.2
146 0.25
147 1.8
149 1.1
156 1.3
157 1.24
158 1.1
173 11.8
174 1.1
186 0.17
213 2.1
245 4.1
246 1.1

>  <PREDICTED SPECTRUM>  (5883) 
14 61
15 108
16 81
17 112
18 163
19 20
25 74
26 177
27 367
28 449
29 479
30 343
31 364
32 146
33 104
34 29
35 33
36 131
37 101
38 160
39 215
40 287
41 559
42 999
43 638
44 725
45 709
46 275
47 132
48 82
49 92
50 103
51 92
52 115
53 192
54 461
55 745
56 573
57 398
58 497
59 463
60 655
61 193
62 58
63 195
64 210
65 222
66 105
67 188
68 229
69 243
70 53
71 377
72 461
73 492
74 1
76 47
77 32
78 57
80 23
81 56
82 261
83 219
84 230
85 178
86 215
87 192
88 5
90 99
91 292
92 242
93 156
94 188
95 158
96 167
97 185
98 217
99 181
100 214
101 175
102 273
103 189
104 40
106 50
108 33
109 92
110 22
111 119
112 191
113 202
114 115
115 114
116 66
117 73
118 165
119 188
120 73
121 87
122 85
123 60
125 46
126 91
127 146
128 94
129 7
130 93
131 80
132 17
136 0
137 46
138 55
140 87
142 46
154 271
155 11
156 148
183 7
186 1
200 177
201 38
228 25

$$$$

     RDKit          2D

 15 14  0  0  1  0  0  0  0  0999 V2000
   -0.3248    6.5625    0.0000 C   0  0  0  0  0  0  0  0  0  0  0  0
   -4.2219    2.8125    0.0000 C   0  0  0  0  0  0  0  0  0  0  0  0
    3.5724    4.3125    0.0000 C   0  0  0  0  0  0  0  0  0  0  0  0
   -8.1190    5.0625    0.0000 C   0  0  0  0  0  0  0  0  0  0  0  0
   -0.3248    5.0625    0.0000 C   0  0  0  0  0  0  0  0  0  0  0  0
   -4.2219    4.3125    0.0000 C   0  0  0  0  0  0  0  0  0  0  0  0
    2.2733    5.0625    0.0000 C   0  0  0  0  0  0  0  0  0  0  0  0
   -1.6238    4.3125    0.0000 C   0  0  0  0  0  0  0  0  0  0  0  0
   -5.5209    5.0625    0.0000 C   0  0  0  0  0  0  0  0  0  0  0  0
    0.9743    4.3125    0.0000 N   0  0  0  0  0  0  0  0  0  0  0  0
   -2.9228    5.0625    0.0000 N   0  0  0  0  0  0  0  0  0  0  0  0
    2.2733    6.5625    0.0000 O   0  0  0  0  0  0  0  0  0  0  0  0
   -1.6238    2.8125    0.0000 O   0  0  0  0  0  0  0  0  0  0  0  0
   -5.5209    6.5625    0.0000 O   0  0  0  0  0  0  0  0  0  0  0  0
   -6.8200    4.3125    0.0000 O   0  0  0  0  0  0  0  0  0  0  0  0
  5  1  1  1
  6  2  1  1
  7  3  1  0
  8  5  1  0
  9  6  1  0
 10  5  1  0
 10  7  2  3
 11  6  1  0
 11  8  2  3
 12  7  1  0
 13  8  1  0
 14  9  2  0
 15  4  1  0
 15  9  1  0
M  END
>  <NAME>  (5884) 
N-ACETYL-ALANYL-ALANINE METHYL ESTER

>  <SYNONYMS>  (5884) 


>  <SPECTRUM TYPE>  (5884) 
MS1

>  <INSTRUMENT TYPE>  (5884) 
EI-B

>  <INSTRUMENT>  (5884) 
HITACHI RMU-6M

>  <ION MODE>  (5884) 
P

>  <INCHIKEY>  (5884) 
CXWPLQYKHLCSPO-RITPCOANSA-N

>  <FORMULA>  (5884) 
C9H16N2O4

>  <EXACT MASS>  (5884) 
216.111006992

>  <MW>  (5884) 
216

>  <ID>  (5884) 
JP000294

>  <CONTRIBUTOR>  (5884) 
University of Tokyo Team, {Faculty of Engineering, University of Tokyo

>  <COMMENT>  (5884) 
SMILES=COC(=O)C([H])(C)NC(=O)C([H])(C)NC(C)=O
InChI=InChI=1S/C9H16N2O4/c1-5(10-7(3)12)8(13)11-6(2)9(14)15-4/h5-6H,1-4H3,(H,10,12)(H,11,13)/t5-,6+/m1/s1
computed SMILES=O=C(OC)C(N=C(O)C(N=C(O)C)C)C
accession=JP000294
date=2016.01.19 (Created 2008.10.21, modified 2011.05.06)
author=YAMAMOTO M, DEP. CHEMISTRY, FAC. SCIENCE, NARA WOMEN'S UNIV.
license=CC BY-NC-SA
exact mass=216.11101
ionization energy=70 eV
ion type=[M]+*
computed spectral entropy=1.8877306076677236
computed normalized entropy=0.6301399575430724
SPLASH=splash10-0006-9000000000-f1e5c2f4a9ce9214184f
submitter=submitter = University of Tokyo Team (Faculty of Engineering, University of Tokyo)
MoNA Rating=3.75

>  <NUM PEAKS>  (5884) 
20

>  <MASS SPECTRAL PEAKS>  (5884) 
15 6.6
27 2
28 5.3
30 0.52
41 1.1
42 6.2
43 13.3
44 99.99
45 3.4
55 1.4
59 1.9
70 0.21
72 8.6
86 20.8
87 35.3
88 0.18
99 1.2
102 1.7
114 3.2
157 1.7

>  <PREDICTED SPECTRUM>  (5884) 
14 0
15 31
17 20
18 26
25 2
26 35
27 157
28 180
29 208
30 165
31 181
32 53
33 144
34 55
35 3
36 73
37 49
38 116
39 338
40 237
41 682
42 820
43 929
44 294
45 810
46 270
47 98
49 12
50 11
51 158
52 178
53 366
54 311
55 489
56 520
57 434
58 462
59 999
60 416
61 34
62 8
65 77
66 14
67 221
68 322
69 528
70 387
71 424
72 300
73 349
74 260
75 9
79 72
80 87
81 173
82 244
83 434
84 383
85 420
86 295
87 200
88 156
93 82
95 194
96 234
97 433
98 359
99 505
100 190
101 442
102 284
108 37
109 42
110 41
111 456
112 304
113 595
114 162
115 154
116 170
118 2
123 221
124 207
125 404
126 70
127 182
128 103
129 455
130 186
131 20
138 14
139 230
140 360
141 258
142 129
143 128
144 44
153 177
154 20
155 59
157 310
158 230
166 17
167 139
169 89
170 1
171 535
172 173
183 256
184 61
185 90
201 47
216 93
217 11

$$$$

     RDKit          2D

 13 12  0  0  0  0  0  0  0  0999 V2000
    3.5724    4.3125    0.0000 C   0  0  0  0  0  0  0  0  0  0  0  0
   -8.1190    5.0625    0.0000 C   0  0  0  0  0  0  0  0  0  0  0  0
   -0.3248    5.0625    0.0000 C   0  0  0  0  0  0  0  0  0  0  0  0
   -4.2219    4.3125    0.0000 C   0  0  0  0  0  0  0  0  0  0  0  0
    2.2733    5.0625    0.0000 C   0  0  0  0  0  0  0  0  0  0  0  0
   -1.6238    4.3125    0.0000 C   0  0  0  0  0  0  0  0  0  0  0  0
   -5.5209    5.0625    0.0000 C   0  0  0  0  0  0  0  0  0  0  0  0
    0.9743    4.3125    0.0000 N   0  0  0  0  0  0  0  0  0  0  0  0
   -2.9228    5.0625    0.0000 N   0  0  0  0  0  0  0  0  0  0  0  0
    2.2733    6.5625    0.0000 O   0  0  0  0  0  0  0  0  0  0  0  0
   -1.6238    2.8125    0.0000 O   0  0  0  0  0  0  0  0  0  0  0  0
   -5.5209    6.5625    0.0000 O   0  0  0  0  0  0  0  0  0  0  0  0
   -6.8200    4.3125    0.0000 O   0  0  0  0  0  0  0  0  0  0  0  0
  5  1  1  0
  6  3  1  0
  7  4  1  0
  8  3  1  0
  8  5  2  3
  9  4  1  0
  9  6  2  3
 10  5  1  0
 11  6  1  0
 12  7  2  0
 13  2  1  0
 13  7  1  0
M  END
>  <NAME>  (5885) 
N-ACETYL-GLYCYL-GLYCINE METHYL ESTER

>  <SYNONYMS>  (5885) 


>  <SPECTRUM TYPE>  (5885) 
MS1

>  <INSTRUMENT TYPE>  (5885) 
EI-B

>  <INSTRUMENT>  (5885) 
HITACHI RMU-6M

>  <ION MODE>  (5885) 
P

>  <INCHIKEY>  (5885) 
JSBPKTULFDBSFS-UHFFFAOYSA-N

>  <FORMULA>  (5885) 
C7H12N2O4

>  <EXACT MASS>  (5885) 
188.079706864

>  <MW>  (5885) 
188

>  <ID>  (5885) 
JP000293

>  <CONTRIBUTOR>  (5885) 
University of Tokyo Team, {Faculty of Engineering, University of Tokyo

>  <COMMENT>  (5885) 
SMILES=COC(=O)CNC(=O)CNC(C)=O
InChI=InChI=1S/C7H12N2O4/c1-5(10)8-3-6(11)9-4-7(12)13-2/h3-4H2,1-2H3,(H,8,10)(H,9,11)
computed SMILES=O=C(OC)CN=C(O)CN=C(O)C
accession=JP000293
date=2016.01.19 (Created 2008.10.21, modified 2011.05.06)
author=YAMAMOTO M, DEP. CHEMISTRY, FAC. SCIENCE, NARA WOMEN'S UNIV.
license=CC BY-NC-SA
exact mass=188.07971
ionization energy=70 eV
ion type=[M]+*
computed spectral entropy=2.274595924658529
computed normalized entropy=0.6981364419728964
SPLASH=splash10-001i-9100000000-c51e30657fc24ed7bdd4
submitter=submitter = University of Tokyo Team (Faculty of Engineering, University of Tokyo)
MoNA Rating=3.75

>  <NUM PEAKS>  (5885) 
26

>  <MASS SPECTRAL PEAKS>  (5885) 
15 12.4
28 10.2
29 3.7
30 99.99
31 11.6
32 1.6
42 4.9
43 3.56
44 3.1
45 8.5
56 6.7
57 0.15
58 3.1
59 1.7
72 23.5
73 7.93
74 3.4
85 1.7
88 5.7
90 0.32
100 18.8
101 1.1
129 2.8
158 0.11
188 1
189 1

>  <PREDICTED SPECTRUM>  (5885) 
14 52
15 156
16 50
17 96
18 156
19 0
25 69
26 203
27 430
28 414
29 475
30 341
31 310
32 110
33 97
34 23
36 26
37 36
38 127
39 389
40 270
41 732
42 946
43 682
44 608
45 999
46 363
47 109
51 31
52 148
53 244
54 524
55 781
56 746
57 453
58 401
59 432
60 695
61 196
62 32
65 166
66 89
67 133
68 262
69 344
70 313
71 423
72 189
73 569
74 405
75 21
79 3
80 92
81 141
82 166
83 422
84 362
85 352
86 94
87 141
88 142
89 13
92 25
94 24
95 57
96 221
97 456
98 191
99 365
100 160
101 107
102 27
110 132
111 355
112 342
113 221
114 47
115 113
125 177
126 221
127 198
128 92
129 382
130 75
141 94
142 306
143 506
144 168
157 88
158 154
170 112
171 170
188 96
189 33

$$$$

     RDKit          2D

 28 31  0  0  0  0  0  0  0  0999 V2000
   -2.5981   10.0700    0.0000 C   0  0  0  0  0  0  0  0  0  0  0  0
   -6.4952    3.3200    0.0000 C   0  0  0  0  0  0  0  0  0  0  0  0
   -0.0000   -1.9300    0.0000 C   0  0  0  0  0  0  0  0  0  0  0  0
    3.8971    4.8200    0.0000 C   0  0  0  0  0  0  0  0  0  0  0  0
   -3.8981    9.3200    0.0000 C   0  0  0  0  0  0  0  0  0  0  0  0
   -1.2981    9.3200    0.0000 C   0  0  0  0  0  0  0  0  0  0  0  0
   -5.1957    2.5692    0.0000 C   0  0  0  0  0  0  0  0  0  0  0  0
   -6.4957    4.8208    0.0000 C   0  0  0  0  0  0  0  0  0  0  0  0
    1.3000   -1.1800    0.0000 C   0  0  0  0  0  0  0  0  0  0  0  0
   -1.3000   -1.1800    0.0000 C   0  0  0  0  0  0  0  0  0  0  0  0
    2.5976    5.5708    0.0000 C   0  0  0  0  0  0  0  0  0  0  0  0
    3.8976    3.3192    0.0000 C   0  0  0  0  0  0  0  0  0  0  0  0
   -3.8981    7.8200    0.0000 C   0  0  0  0  0  0  0  0  0  0  0  0
   -1.2981    7.8200    0.0000 C   0  0  0  0  0  0  0  0  0  0  0  0
   -3.8966    3.3192    0.0000 C   0  0  0  0  0  0  0  0  0  0  0  0
   -5.1966    5.5708    0.0000 C   0  0  0  0  0  0  0  0  0  0  0  0
    1.3000    0.3200    0.0000 C   0  0  0  0  0  0  0  0  0  0  0  0
   -1.3000    0.3200    0.0000 C   0  0  0  0  0  0  0  0  0  0  0  0
    1.2986    4.8208    0.0000 C   0  0  0  0  0  0  0  0  0  0  0  0
    2.5986    2.5692    0.0000 C   0  0  0  0  0  0  0  0  0  0  0  0
   -1.2990    4.8200    0.0000 C   0  0  0  0  0  0  0  0  0  0  0  0
   -1.2990    3.3200    0.0000 C   0  0  0  0  0  0  0  0  0  0  0  0
   -2.5981    7.0700    0.0000 C   0  0  0  0  0  0  0  0  0  0  0  0
   -3.8971    4.8200    0.0000 C   0  0  0  0  0  0  0  0  0  0  0  0
   -0.0000    1.0700    0.0000 C   0  0  0  0  0  0  0  0  0  0  0  0
    1.2990    3.3200    0.0000 C   0  0  0  0  0  0  0  0  0  0  0  0
   -2.5981    5.5700    0.0000 C   0  0  0  0  0  0  0  0  0  0  0  0
   -0.0000    2.5700    0.0000 C   0  0  0  0  0  0  0  0  0  0  0  0
  5  1  2  0
  6  1  1  0
  7  2  2  0
  8  2  1  0
  9  3  2  0
 10  3  1  0
 11  4  2  0
 12  4  1  0
 13  5  1  0
 14  6  2  0
 15  7  1  0
 16  8  2  0
 17  9  1  0
 18 10  2  0
 19 11  1  0
 20 12  2  0
 22 21  1  0
 23 13  2  0
 23 14  1  0
 24 15  2  0
 24 16  1  0
 25 17  2  0
 25 18  1  0
 26 19  2  0
 26 20  1  0
 27 21  1  0
 27 23  1  0
 27 24  1  0
 28 22  1  0
 28 25  1  0
 28 26  1  0
M  END
>  <NAME>  (5886) 
1,1,4,4-TETRAPHENYLBUTANE

>  <SYNONYMS>  (5886) 


>  <SPECTRUM TYPE>  (5886) 
MS1

>  <INSTRUMENT TYPE>  (5886) 
EI-B

>  <INSTRUMENT>  (5886) 
HITACHI RMU-6M

>  <ION MODE>  (5886) 
P

>  <INCHIKEY>  (5886) 
RYRPAXUFKAJVQC-UHFFFAOYSA-N

>  <FORMULA>  (5886) 
C28H26

>  <EXACT MASS>  (5886) 
362.203450832

>  <MW>  (5886) 
362

>  <ID>  (5886) 
JP000292

>  <CONTRIBUTOR>  (5886) 
University of Tokyo Team, {Faculty of Engineering, University of Tokyo

>  <COMMENT>  (5886) 
SMILES=C(CC(c(c4)cccc4)c(c3)cccc3)C(c(c2)cccc2)c(c1)cccc1
InChI=InChI=1S/C28H26/c1-5-13-23(14-6-1)27(24-15-7-2-8-16-24)21-22-28(25-17-9-3-10-18-25)26-19-11-4-12-20-26/h1-20,27-28H,21-22H2
computed SMILES=C=1C=CC(=CC1)C(C=2C=CC=CC2)CCC(C=3C=CC=CC3)C=4C=CC=CC4
accession=JP000292
date=2016.01.19 (Created 2008.10.21, modified 2011.05.06)
author=YAMAMOTO M, DEP. CHEMISTRY, FAC. SCIENCE, NARA WOMEN'S UNIV.
license=CC BY-NC-SA
exact mass=362.20345
ionization energy=70 eV
ion type=[M]+*
computed spectral entropy=2.4308893764508794
computed normalized entropy=0.646306844006524
SPLASH=splash10-014i-2900000000-7bdcb22a23df301c96bf
submitter=submitter = University of Tokyo Team (Faculty of Engineering, University of Tokyo)
MoNA Rating=3.75

>  <NUM PEAKS>  (5886) 
43

>  <MASS SPECTRAL PEAKS>  (5886) 
41 1.1
42 1
43 5.5
44 0.13
51 1.7
57 1.1
63 1
65 0.28
77 4.1
79 1
86 4.5
88 0.68
89 1.2
91 19
92 2.1
102 0.12
103 2.1
105 2.2
115 3.5
117 0.12
118 1
128 1.3
141 1.1
145 0.2
151 1
152 10.5
153 1.7
162 0.29
164 1
165 16.8
166 7.5
167 99.99
168 16.3
169 1.7
178 1.7
179 0.15
180 5.5
181 1.4
182 1.4
193 0.1
195 1.1
362 8.8
363 2.7

>  <PREDICTED SPECTRUM>  (5886) 
18 6
26 22
27 103
28 80
29 85
30 51
38 18
39 121
40 24
41 110
42 24
43 65
44 41
50 48
51 129
52 72
53 56
54 15
55 69
56 15
57 78
62 35
63 117
64 16
65 123
66 17
67 38
68 3
69 6
70 5
71 10
72 7
74 9
75 34
76 58
77 164
78 117
79 64
81 5
82 21
83 41
84 44
86 55
87 29
89 112
90 31
91 204
92 77
93 2
96 2
97 48
98 39
100 1
101 70
102 125
103 9
104 103
105 17
107 22
111 30
112 4
113 81
114 33
115 240
116 98
117 102
118 51
120 5
121 59
122 26
125 13
126 72
127 92
128 179
129 47
137 20
138 6
139 96
141 82
146 4
147 10
149 38
150 64
151 109
152 441
153 157
154 49
155 23
163 148
164 193
165 562
166 375
167 999
168 474
169 146
170 51
171 20
176 33
177 2
178 73
179 48
180 1
181 139
182 129
184 8
193 156
194 236
195 579
196 181
197 68
202 2
207 39
243 20
247 2
285 107
291 12
361 4
362 559
363 286
364 116
365 37

$$$$

     RDKit          2D

 14 15  0  0  0  0  0  0  0  0999 V2000
    1.2986    4.8200    0.0000 C   0  0  0  0  0  0  0  0  0  0  0  0
   -2.5986    1.0700    0.0000 C   0  0  0  0  0  0  0  0  0  0  0  0
    5.1957    1.0700    0.0000 C   0  0  0  0  0  0  0  0  0  0  0  0
   -1.2990    0.3192    0.0000 C   0  0  0  0  0  0  0  0  0  0  0  0
   -2.5990    2.5708    0.0000 C   0  0  0  0  0  0  0  0  0  0  0  0
    5.1962    2.5708    0.0000 C   0  0  0  0  0  0  0  0  0  0  0  0
    3.8962    0.3192    0.0000 C   0  0  0  0  0  0  0  0  0  0  0  0
    0.0000    1.0692    0.0000 C   0  0  0  0  0  0  0  0  0  0  0  0
   -1.3000    3.3208    0.0000 C   0  0  0  0  0  0  0  0  0  0  0  0
    3.8971    3.3208    0.0000 C   0  0  0  0  0  0  0  0  0  0  0  0
    2.5971    1.0692    0.0000 C   0  0  0  0  0  0  0  0  0  0  0  0
    1.2986    3.3200    0.0000 C   0  0  0  0  0  0  0  0  0  0  0  0
   -0.0005    2.5700    0.0000 C   0  0  0  0  0  0  0  0  0  0  0  0
    2.5976    2.5700    0.0000 C   0  0  0  0  0  0  0  0  0  0  0  0
  4  2  2  0
  5  2  1  0
  6  3  2  0
  7  3  1  0
  8  4  1  0
  9  5  2  0
 10  6  1  0
 11  7  2  0
 12  1  2  0
 13  8  2  0
 13  9  1  0
 13 12  1  0
 14 10  2  0
 14 11  1  0
 14 12  1  0
M  END
>  <NAME>  (5887) 
1,1-DIPHENYLETHYLENE

>  <SYNONYMS>  (5887) 


>  <SPECTRUM TYPE>  (5887) 
MS1

>  <INSTRUMENT TYPE>  (5887) 
EI-B

>  <INSTRUMENT>  (5887) 
HITACHI RMU-6M

>  <ION MODE>  (5887) 
P

>  <INCHIKEY>  (5887) 
ZMYIIHDQURVDRB-UHFFFAOYSA-N

>  <FORMULA>  (5887) 
C14H12

>  <EXACT MASS>  (5887) 
180.093900384

>  <MW>  (5887) 
180

>  <ID>  (5887) 
JP000291

>  <CONTRIBUTOR>  (5887) 
University of Tokyo Team, {Faculty of Engineering, University of Tokyo

>  <COMMENT>  (5887) 
SMILES=c(c2)ccc(c2)C(=C)c(c1)cccc1
InChI=InChI=1S/C14H12/c1-12(13-8-4-2-5-9-13)14-10-6-3-7-11-14/h2-11H,1H2
computed SMILES=C=C(C=1C=CC=CC1)C=2C=CC=CC2
accession=JP000291
date=2016.01.19 (Created 2008.10.21, modified 2011.05.06)
author=YAMAMOTO M, DEP. CHEMISTRY, FAC. SCIENCE, NARA WOMEN'S UNIV.
license=CC BY-NC-SA
exact mass=180.0939
ionization energy=70 eV
ion type=[M]+*
computed spectral entropy=2.6481973117936555
computed normalized entropy=0.7641082258040381
SPLASH=splash10-00pi-2900000000-a2ae7cce0b0689006172
submitter=submitter = University of Tokyo Team (Faculty of Engineering, University of Tokyo)
MoNA Rating=3.75

>  <NUM PEAKS>  (5887) 
32

>  <MASS SPECTRAL PEAKS>  (5887) 
27 2.8
28 2.8
39 6
50 0.65
51 16.8
52 4.6
63 8.5
74 0.4
75 5.4
76 19.3
77 18.8
78 0.43
83 4.3
88 6
89 23.9
90 0.48
91 4
102 9.7
103 5.4
115 0.48
139 3.4
151 6
152 11.4
153 0.34
165 76.1
166 12.5
176 9.1
177 0.94
178 56
179 77.3
180 99.99
181 16.2

>  <PREDICTED SPECTRUM>  (5887) 
26 42
27 70
37 15
38 51
39 227
40 56
41 51
42 6
44 9
49 13
50 204
51 317
52 145
53 32
54 4
55 2
56 24
57 15
61 51
62 149
63 253
64 80
65 70
74 191
75 224
76 253
77 273
78 187
80 7
81 55
82 111
83 78
84 13
86 80
87 176
88 216
89 221
90 43
94 42
95 33
98 61
99 73
100 128
101 211
102 325
103 333
104 148
110 14
111 0
113 119
114 36
115 164
123 4
125 31
126 147
127 181
128 61
137 83
138 58
139 236
140 95
141 42
149 7
150 158
151 235
152 226
153 214
154 141
155 10
162 0
163 127
164 184
165 577
166 212
167 1
175 110
176 289
177 248
178 574
179 891
180 999
181 384
182 77

$$$$

     RDKit          2D

 10 10  0  0  0  0  0  0  0  0999 V2000
   -4.8712    2.0071    0.0000 C   0  0  0  0  0  0  0  0  0  0  0  0
   -3.5721    2.7571    0.0000 C   0  0  0  0  0  0  0  0  0  0  0  0
   -2.2731    2.0071    0.0000 C   0  0  0  0  0  0  0  0  0  0  0  0
    2.9231    0.5071    0.0000 C   0  0  0  0  0  0  0  0  0  0  0  0
    2.9236    2.0079    0.0000 C   0  0  0  0  0  0  0  0  0  0  0  0
    1.6236   -0.2437    0.0000 C   0  0  0  0  0  0  0  0  0  0  0  0
   -0.9740    2.7571    0.0000 C   0  0  0  0  0  0  0  0  0  0  0  0
    1.6245    2.7579    0.0000 C   0  0  0  0  0  0  0  0  0  0  0  0
    0.3245    0.5063    0.0000 C   0  0  0  0  0  0  0  0  0  0  0  0
    0.3250    2.0071    0.0000 C   0  0  0  0  0  0  0  0  0  0  0  0
  2  1  1  0
  3  2  1  0
  5  4  1  0
  6  4  1  0
  7  3  1  0
  8  5  1  0
  9  6  1  0
 10  7  1  0
 10  8  1  0
 10  9  1  0
M  END
>  <NAME>  (5888) 
BUTYLCYCLOHEXANE

>  <SYNONYMS>  (5888) 


>  <SPECTRUM TYPE>  (5888) 
MS1

>  <INSTRUMENT TYPE>  (5888) 
EI-B

>  <INSTRUMENT>  (5888) 
HITACHI RMU-6M

>  <ION MODE>  (5888) 
P

>  <INCHIKEY>  (5888) 
GGBJHURWWWLEQH-UHFFFAOYSA-N

>  <FORMULA>  (5888) 
C10H20

>  <EXACT MASS>  (5888) 
140.15650064

>  <MW>  (5888) 
140

>  <ID>  (5888) 
JP000290

>  <CONTRIBUTOR>  (5888) 
University of Tokyo Team, {Faculty of Engineering, University of Tokyo

>  <COMMENT>  (5888) 
SMILES=CCCCC(C1)CCCC1
InChI=InChI=1S/C10H20/c1-2-3-7-10-8-5-4-6-9-10/h10H,2-9H2,1H3
computed SMILES=CCCCC1CCCCC1
accession=JP000290
date=2016.01.19 (Created 2008.10.21, modified 2011.05.06)
license=CC BY-NC-SA
author=YAMAMOTO M, DEP. CHEMISTRY, FAC. SCIENCE, NARA WOMEN'S UNIV.
exact mass=140.1565
ionization energy=70 eV
ion type=[M]+*
computed spectral entropy=2.4229962487716894
computed normalized entropy=0.7123950705817543
SPLASH=splash10-001i-9000000000-603c89bf672005100849
submitter=submitter = University of Tokyo Team (Faculty of Engineering, University of Tokyo)
MoNA Rating=3.75

>  <NUM PEAKS>  (5888) 
30

>  <MASS SPECTRAL PEAKS>  (5888) 
27 13.2
28 2.7
29 15.8
39 1.43
40 2.2
41 40.8
42 7.9
43 1
51 1.2
53 5.3
54 7.6
55 8.62
56 13.8
59 4.1
65 1.2
67 1.99
68 4.4
69 10.8
70 5.7
77 0.12
79 1.5
81 72.9
83 99.99
84 0.61
96 1.1
97 3.5
98 1.1
111 0.12
140 23.9
141 2.9

>  <PREDICTED SPECTRUM>  (5888) 
25 21
26 94
27 422
28 193
29 487
32 1
37 29
38 73
39 437
40 182
41 818
42 452
43 542
44 104
50 78
51 159
52 93
53 264
54 348
55 999
56 866
57 467
58 79
64 16
65 120
66 129
67 331
68 251
69 882
70 561
71 166
77 157
78 92
79 92
80 20
81 163
82 421
83 804
84 365
85 75
91 58
96 138
97 269
98 201
99 9
110 103
111 343
112 175
140 215
141 11

$$$$

     RDKit          2D

  9  9  0  0  0  0  0  0  0  0999 V2000
   -3.5724    2.0075    0.0000 C   0  0  0  0  0  0  0  0  0  0  0  0
   -2.2733    1.2575    0.0000 C   0  0  0  0  0  0  0  0  0  0  0  0
    2.9228   -0.2425    0.0000 C   0  0  0  0  0  0  0  0  0  0  0  0
    2.9233    1.2583    0.0000 C   0  0  0  0  0  0  0  0  0  0  0  0
    1.6233   -0.9933    0.0000 C   0  0  0  0  0  0  0  0  0  0  0  0
   -0.9743    2.0075    0.0000 C   0  0  0  0  0  0  0  0  0  0  0  0
    1.6243    2.0083    0.0000 C   0  0  0  0  0  0  0  0  0  0  0  0
    0.3243   -0.2433    0.0000 C   0  0  0  0  0  0  0  0  0  0  0  0
    0.3248    1.2575    0.0000 C   0  0  0  0  0  0  0  0  0  0  0  0
  2  1  1  0
  4  3  1  0
  5  3  1  0
  6  2  1  0
  7  4  1  0
  8  5  1  0
  9  6  1  0
  9  7  1  0
  9  8  1  0
M  END
>  <NAME>  (5889) 
PROPYLCYCLOHEXANE

>  <SYNONYMS>  (5889) 


>  <SPECTRUM TYPE>  (5889) 
MS1

>  <INSTRUMENT TYPE>  (5889) 
EI-B

>  <INSTRUMENT>  (5889) 
HITACHI RMU-6M

>  <ION MODE>  (5889) 
P

>  <INCHIKEY>  (5889) 
DEDZSLCZHWTGOR-UHFFFAOYSA-N

>  <FORMULA>  (5889) 
C9H18

>  <EXACT MASS>  (5889) 
126.14085057599999

>  <MW>  (5889) 
126

>  <ID>  (5889) 
JP000289

>  <CONTRIBUTOR>  (5889) 
University of Tokyo Team, {Faculty of Engineering, University of Tokyo

>  <COMMENT>  (5889) 
SMILES=CCCC(C1)CCCC1
InChI=InChI=1S/C9H18/c1-2-6-9-7-4-3-5-8-9/h9H,2-8H2,1H3
computed SMILES=CCCC1CCCCC1
accession=JP000289
date=2016.01.19 (Created 2008.10.21, modified 2011.05.06)
author=YAMAMOTO M, DEP. CHEMISTRY, FAC. SCIENCE, NARA WOMEN'S UNIV.
license=CC BY-NC-SA
exact mass=126.14085
ionization energy=70 eV
ion type=[M]+*
computed spectral entropy=2.455784627369596
computed normalized entropy=0.7293046858254388
SPLASH=splash10-001i-9000000000-4f3fcff75e976191cfa3
submitter=submitter = University of Tokyo Team (Faculty of Engineering, University of Tokyo)
MoNA Rating=3.75

>  <NUM PEAKS>  (5889) 
29

>  <MASS SPECTRAL PEAKS>  (5889) 
27 14.2
28 3
29 13.8
39 1.62
40 4.1
41 43.2
42 8.9
43 0.87
51 1.6
53 5.6
54 7.9
55 8.79
56 13.4
57 3.5
65 1.5
67 1.75
68 4
69 10.6
70 4.9
77 0.14
79 1.4
81 2.6
82 62.5
83 99.99
84 7.8
97 3.5
98 1.2
126 2.92
127 3

>  <PREDICTED SPECTRUM>  (5889) 
15 56
25 28
26 112
27 501
28 278
29 538
30 85
31 43
32 31
37 30
38 77
39 534
40 186
41 875
42 455
43 632
44 52
50 112
51 195
52 105
53 277
54 355
55 999
56 774
57 374
65 145
66 133
67 398
68 198
69 852
70 436
72 55
77 188
78 111
79 139
80 68
81 116
82 525
83 770
84 368
85 77
91 24
96 79
97 278
98 161
111 23
126 158
127 11

$$$$

     RDKit          2D

  7  6  0  0  0  0  0  0  0  0999 V2000
   -1.9486    4.1250    0.0000 C   0  0  0  0  0  0  0  0  0  0  0  0
   -0.6495    3.3750    0.0000 C   0  0  0  0  0  0  0  0  0  0  0  0
   -3.2476    3.3750    0.0000 C   0  0  0  0  0  0  0  0  0  0  0  0
    0.6495    4.1250    0.0000 C   0  0  0  0  0  0  0  0  0  0  0  0
   -4.5466    4.1250    0.0000 C   0  0  0  0  0  0  0  0  0  0  0  0
    1.9486    3.3750    0.0000 N   0  0  0  0  0  0  0  0  0  0  0  0
   -5.8457    3.3750    0.0000 O   0  0  0  0  0  0  0  0  0  0  0  0
  2  1  1  0
  3  1  1  0
  4  2  1  0
  5  3  1  0
  6  4  1  0
  7  5  1  0
M  END
>  <NAME>  (5890) 
5-AMINO-1-PENTANOL

>  <SYNONYMS>  (5890) 


>  <SPECTRUM TYPE>  (5890) 
MS1

>  <INSTRUMENT TYPE>  (5890) 
EI-B

>  <INSTRUMENT>  (5890) 
HITACHI RMU-6M

>  <ION MODE>  (5890) 
P

>  <INCHIKEY>  (5890) 
LQGKDMHENBFVRC-UHFFFAOYSA-N

>  <FORMULA>  (5890) 
C5H13NO

>  <EXACT MASS>  (5890) 
103.099714036

>  <MW>  (5890) 
103

>  <ID>  (5890) 
JP000288

>  <CONTRIBUTOR>  (5890) 
University of Tokyo Team, {Faculty of Engineering, University of Tokyo

>  <COMMENT>  (5890) 
SMILES=NCCCCCO
InChI=InChI=1S/C5H13NO/c6-4-2-1-3-5-7/h7H,1-6H2
computed SMILES=OCCCCCN
accession=JP000288
date=2016.01.19 (Created 2008.10.21, modified 2011.05.06)
author=YAMAMOTO M, DEP. CHEMISTRY, FAC. SCIENCE, NARA WOMEN'S UNIV.
license=CC BY-NC-SA
exact mass=103.09971
ionization energy=70 eV
ion type=[M]+*
computed spectral entropy=1.3383707678034016
computed normalized entropy=0.45454185917015993
SPLASH=splash10-001i-9000000000-077fb31840d2055ea75a
submitter=submitter = University of Tokyo Team (Faculty of Engineering, University of Tokyo)
MoNA Rating=3.75

>  <NUM PEAKS>  (5890) 
19

>  <MASS SPECTRAL PEAKS>  (5890) 
18 4.5
27 3.2
28 5.6
29 0.23
30 99.99
31 4.1
39 2.1
41 0.4
42 2.4
43 4.2
44 2.3
45 0.44
55 1.3
56 3.4
59 1.3
72 0.1
85 1.5
86 1.6
103 1

>  <PREDICTED SPECTRUM>  (5890) 
14 25
15 78
16 40
17 82
18 119
19 4
25 7
26 72
27 250
28 270
29 323
30 999
31 336
32 43
33 40
37 5
38 39
39 203
40 93
41 439
42 397
43 358
44 589
45 360
46 137
50 47
51 79
52 56
53 108
54 172
55 315
56 508
57 322
58 250
59 327
60 210
62 22
63 10
65 22
66 3
67 76
68 195
69 148
70 259
71 152
72 274
73 131
74 71
82 114
83 215
84 344
85 346
86 304
87 220
88 32
102 111
103 151
104 58

$$$$

     RDKit          2D

 10 11  0  0  0  0  0  0  0  0999 V2000
   -0.4775    2.9800    0.0000 C   0  0  0  0  0  0  0  0  0  0  0  0
    1.3259   -2.1785    0.0000 C   0  0  0  0  0  0  0  0  0  0  0  0
    2.2869   -0.5080    0.0000 C   0  0  0  0  0  0  0  0  0  0  0  0
   -1.7800    0.7300    0.0000 C   0  0  0  0  0  0  0  0  0  0  0  0
   -1.7800   -0.7700    0.0000 C   0  0  0  0  0  0  0  0  0  0  0  0
   -0.4800   -0.0200    0.0000 C   0  0  0  0  0  0  0  0  0  0  0  0
   -0.4800    1.4800    0.0000 C   0  0  0  0  0  0  0  0  0  0  0  0
   -0.4800   -1.5200    0.0000 C   0  0  0  0  0  0  0  0  0  0  0  0
    0.8100    0.7300    0.0000 C   0  0  0  0  0  0  0  0  0  0  0  0
    0.8100   -0.7700    0.0000 C   0  0  0  0  0  0  0  0  0  0  0  0
  5  4  1  0
  7  1  1  0
  7  4  1  0
  8  5  1  0
  8  6  1  0
  9  6  1  0
  9  7  1  0
 10  2  1  0
 10  3  1  0
 10  8  1  0
 10  9  1  0
M  END
>  <NAME>  (5891) 
PINANE

>  <SYNONYMS>  (5891) 
2,6,6-TRIMETHYL-BICYCLO(3,1,1)HEPTANE

>  <SPECTRUM TYPE>  (5891) 
MS1

>  <INSTRUMENT TYPE>  (5891) 
EI-B

>  <INSTRUMENT>  (5891) 
HITACHI RMU-6M

>  <ION MODE>  (5891) 
P

>  <INCHIKEY>  (5891) 
XOKSLPVRUOBDEW-UHFFFAOYSA-N

>  <FORMULA>  (5891) 
C10H18

>  <EXACT MASS>  (5891) 
138.140850576

>  <MW>  (5891) 
138

>  <ID>  (5891) 
JP000250

>  <CONTRIBUTOR>  (5891) 
University of Tokyo Team, {Faculty of Engineering, University of Tokyo

>  <COMMENT>  (5891) 
SMILES=CC(C2)C(C1)C(C)(C)C(C2)1
InChI=InChI=1S/C10H18/c1-7-4-5-8-6-9(7)10(8,2)3/h7-9H,4-6H2,1-3H3
computed SMILES=CC1CCC2CC1C2(C)C
accession=JP000250
date=2016.01.19 (Created 2008.10.21, modified 2011.05.06)
author=YAMAMOTO M, DEP. CHEMISTRY, FAC. SCIENCE, NARA WOMEN'S UNIV.
license=CC BY-NC-SA
exact mass=138.14085
ionization energy=70 eV
ion type=[M]+*
computed spectral entropy=3.06426489568268
computed normalized entropy=0.8003530700192093
SPLASH=splash10-067m-9000000000-6efb80eeed80d11aa24a
submitter=submitter = University of Tokyo Team (Faculty of Engineering, University of Tokyo)
MoNA Rating=3.75

>  <NUM PEAKS>  (5891) 
46

>  <MASS SPECTRAL PEAKS>  (5891) 
15 1.8
26 1.2
27 36.5
28 0.46
29 25.5
38 1.2
39 44.9
40 0.72
41 99.4
42 6.1
43 17.3
50 0.18
51 6.6
52 3.1
53 24.8
54 0.65
55 99.99
56 7.6
57 5.7
63 0.15
65 7.7
66 2.8
67 70.4
68 3.35
69 54.2
70 8
77 18.7
78 0.19
79 14.7
80 8.5
81 57.6
82 6.56
83 57.6
84 6.4
91 5.8
93 0.57
94 11.2
95 80
96 32
97 0.65
109 9.3
110 4.6
123 22.5
124 0.2
138 9.1
139 1

>  <PREDICTED SPECTRUM>  (5891) 
15 22
25 3
26 93
27 441
28 222
29 417
32 19
37 50
38 114
39 610
40 281
41 999
42 319
43 369
44 68
50 148
51 293
52 212
53 470
54 357
55 707
56 317
57 205
62 28
63 115
64 30
65 248
66 216
67 904
68 556
69 847
70 365
71 18
77 285
78 126
79 369
80 269
81 950
82 930
83 486
84 132
91 178
92 58
93 260
94 144
95 746
96 471
97 205
98 38
109 475
110 247
111 64
123 603
124 168
125 5
138 276
139 51

$$$$

     RDKit          2D

 13 13  0  0  0  0  0  0  0  0999 V2000
   -5.1970    1.5006    0.0000 C   0  0  0  0  0  0  0  0  0  0  0  0
   -3.8983   -0.7496    0.0000 C   0  0  0  0  0  0  0  0  0  0  0  0
    2.5989   -1.5002    0.0000 C   0  0  0  0  0  0  0  0  0  0  0  0
   -2.5989    1.5002    0.0000 C   0  0  0  0  0  0  0  0  0  0  0  0
   -3.8981    0.7504    0.0000 C   0  0  0  0  0  0  0  0  0  0  0  0
    1.3000   -0.7500    0.0000 C   0  0  0  0  0  0  0  0  0  0  0  0
   -1.3000    0.7500    0.0000 C   0  0  0  0  0  0  0  0  0  0  0  0
    1.3000    0.7500    0.0000 C   0  0  0  0  0  0  0  0  0  0  0  0
   -1.3000   -0.7500    0.0000 C   0  0  0  0  0  0  0  0  0  0  0  0
    0.0000   -1.5000    0.0000 N   0  0  0  0  0  0  0  0  0  0  0  0
    0.0000    1.5000    0.0000 N   0  0  0  0  0  0  0  0  0  0  0  0
    2.5989    1.5002    0.0000 O   0  0  0  0  0  0  0  0  0  0  0  0
   -2.5989   -1.5002    0.0000 O   0  0  0  0  0  0  0  0  0  0  0  0
  5  1  1  0
  5  2  1  0
  5  4  1  0
  6  3  1  0
  7  4  1  0
  8  6  1  0
  9  7  1  0
 10  6  1  0
 10  9  2  0
 11  7  1  0
 11  8  2  0
 12  8  1  0
 13  9  1  0
M  END
>  <NAME>  (5892) 
3-ISO-BUTYL-6-METHYL-2,5-PIPERAZINEDIONE

>  <SYNONYMS>  (5892) 
CYCLO-ALANYL-LEUCINE

>  <SPECTRUM TYPE>  (5892) 
MS1

>  <INSTRUMENT TYPE>  (5892) 
EI-B

>  <INSTRUMENT>  (5892) 
HITACHI RMU-6M

>  <ION MODE>  (5892) 
P

>  <INCHIKEY>  (5892) 
DBJPZCJQDRPOME-UHFFFAOYSA-N

>  <FORMULA>  (5892) 
C9H16N2O2

>  <EXACT MASS>  (5892) 
184.121177752

>  <MW>  (5892) 
184

>  <ID>  (5892) 
JP000244

>  <CONTRIBUTOR>  (5892) 
University of Tokyo Team, {Faculty of Engineering, University of Tokyo

>  <COMMENT>  (5892) 
SMILES=CC(C)CC(N1)C(=O)NC(C)C(=O)1
InChI=InChI=1S/C9H16N2O2/c1-5(2)4-7-9(13)10-6(3)8(12)11-7/h5-7H,4H2,1-3H3,(H,10,13)(H,11,12)
computed SMILES=OC1=NC(C(O)=NC1C)CC(C)C
accession=JP000244
date=2016.01.19 (Created 2008.10.21, modified 2011.05.06)
author=YAMAMOTO M, DEP. CHEMISTRY, FAC. SCIENCE, NARA WOMEN'S UNIV.
license=CC BY-NC-SA
exact mass=184.12118
ionization energy=70 eV
ion type=[M]+*
computed spectral entropy=2.804981259112301
computed normalized entropy=0.7285386300167966
SPLASH=splash10-002f-9300000000-152307e7d917778b95da
submitter=submitter = University of Tokyo Team (Faculty of Engineering, University of Tokyo)
MoNA Rating=3.75

>  <NUM PEAKS>  (5892) 
47

>  <MASS SPECTRAL PEAKS>  (5892) 
15 7.7
26 1.3
27 19.8
28 2.89
29 10.3
30 17.5
39 8.5
40 0.25
41 23.5
42 19.6
43 31.2
44 99.99
45 3
51 1.1
54 2.2
55 1.13
56 6
57 7
58 1.3
67 0.32
68 2.4
69 6
70 23.5
71 0.92
72 2
81 2.6
82 1.3
83 0.32
84 1.9
85 3.5
86 26.5
87 0.15
95 2.5
96 2.2
97 2.8
99 2.14
100 2.2
109 2.1
111 2.3
113 1.3
123 1.7
127 5
128 96
129 0.72
141 7.3
149 1.4
169 1.5

>  <PREDICTED SPECTRUM>  (5892) 
30 65
33 1
38 19
39 372
40 249
41 928
42 803
43 655
44 618
45 410
50 19
51 159
52 179
53 433
54 334
55 834
56 532
57 573
58 723
59 258
60 37
66 144
67 267
68 394
69 928
70 740
71 535
72 464
73 317
74 73
75 21
77 86
78 37
80 39
81 197
82 132
83 536
84 289
85 255
86 384
87 168
94 39
95 148
96 202
97 502
98 454
99 500
100 272
101 218
109 66
110 9
111 302
112 343
113 926
114 672
115 484
116 269
117 22
123 115
124 97
125 339
126 122
127 732
128 738
129 455
130 167
138 11
139 397
140 238
141 655
142 592
143 314
144 51
151 45
153 186
154 179
155 295
156 213
157 77
167 52
168 32
169 999
170 405
171 158
183 151
184 459
185 169

$$$$

     RDKit          2D

 10 10  0  0  0  0  0  0  0  0999 V2000
    1.3000   -0.7500    0.0000 C   0  0  0  0  0  0  0  0  0  0  0  0
   -2.5989    1.5002    0.0000 C   0  0  0  0  0  0  0  0  0  0  0  0
   -1.3000    0.7500    0.0000 C   0  0  0  0  0  0  0  0  0  0  0  0
    1.3000    0.7500    0.0000 C   0  0  0  0  0  0  0  0  0  0  0  0
   -1.3000   -0.7500    0.0000 C   0  0  0  0  0  0  0  0  0  0  0  0
    0.0000   -1.5000    0.0000 N   0  0  0  0  0  0  0  0  0  0  0  0
    0.0000    1.5000    0.0000 N   0  0  0  0  0  0  0  0  0  0  0  0
   -3.8981    0.7504    0.0000 O   0  0  0  0  0  0  0  0  0  0  0  0
    2.5989    1.5002    0.0000 O   0  0  0  0  0  0  0  0  0  0  0  0
   -2.5989   -1.5002    0.0000 O   0  0  0  0  0  0  0  0  0  0  0  0
  3  2  1  0
  4  1  1  0
  5  3  1  0
  6  1  1  0
  6  5  2  0
  7  3  1  0
  7  4  2  0
  8  2  1  0
  9  4  1  0
 10  5  1  0
M  END
>  <NAME>  (5893) 
3-HYDROXYMETHYL-2,5-PIPERAZINEDIONE

>  <SYNONYMS>  (5893) 
CYCLO-GLYCYL-SERINE

>  <SPECTRUM TYPE>  (5893) 
MS1

>  <INSTRUMENT TYPE>  (5893) 
EI-B

>  <INSTRUMENT>  (5893) 
HITACHI RMU-6M

>  <ION MODE>  (5893) 
P

>  <INCHIKEY>  (5893) 
MOWMPSYJSYTSSM-UHFFFAOYSA-N

>  <FORMULA>  (5893) 
C5H8N2O3

>  <EXACT MASS>  (5893) 
144.05349211599997

>  <MW>  (5893) 
144

>  <ID>  (5893) 
JP000243

>  <CONTRIBUTOR>  (5893) 
University of Tokyo Team, {Faculty of Engineering, University of Tokyo

>  <COMMENT>  (5893) 
SMILES=OCC(N1)C(=O)NCC(=O)1
InChI=InChI=1S/C5H8N2O3/c8-2-3-5(10)6-1-4(9)7-3/h3,8H,1-2H2,(H,6,10)(H,7,9)
computed SMILES=OC1=NC(C(O)=NC1)CO
accession=JP000243
date=2016.01.19 (Created 2008.10.21, modified 2011.05.06)
author=YAMAMOTO M, DEP. CHEMISTRY, FAC. SCIENCE, NARA WOMEN'S UNIV.
license=CC BY-NC-SA
exact mass=144.05349
ionization energy=70 eV
ion type=[M]+*
computed spectral entropy=2.449009956970871
computed normalized entropy=0.6782236584208295
SPLASH=splash10-03gi-9300000000-d176317583158cc03a0e
submitter=submitter = University of Tokyo Team (Faculty of Engineering, University of Tokyo)
MoNA Rating=3.75

>  <NUM PEAKS>  (5893) 
37

>  <MASS SPECTRAL PEAKS>  (5893) 
14 3.2
15 9.3
26 1.6
27 0.46
28 65.7
29 19.8
30 81.2
31 1.59
32 2.5
40 3.3
41 6.6
42 1.32
43 9
44 5.6
54 1.2
55 0.61
56 5.4
57 24
58 5.8
59 0.29
60 8.8
69 2.8
70 2.6
71 0.33
72 1.6
73 3.2
84 1.6
85 2.67
86 6.1
97 1.1
98 1.1
101 0.15
113 3.7
114 99.99
115 6.6
126 0.12
145 1.1

>  <PREDICTED SPECTRUM>  (5893) 
31 136
33 75
36 26
38 48
39 176
40 191
41 688
42 781
43 999
44 518
45 511
46 153
47 87
49 62
50 39
51 183
52 195
53 365
54 326
55 575
56 254
57 386
58 374
59 297
60 300
61 147
65 39
67 216
68 397
69 352
70 285
71 493
72 225
73 201
74 40
75 182
76 34
77 26
82 87
83 308
84 187
85 646
86 373
87 181
95 199
96 181
97 257
98 122
99 204
111 73
113 804
114 533
115 152
116 40
126 150
127 222
128 82
144 199
145 29

$$$$

     RDKit          2D

 11 11  0  0  0  0  0  0  0  0999 V2000
    2.5989   -1.5002    0.0000 C   0  0  0  0  0  0  0  0  0  0  0  0
   -2.5989    1.5002    0.0000 C   0  0  0  0  0  0  0  0  0  0  0  0
    1.3000   -0.7500    0.0000 C   0  0  0  0  0  0  0  0  0  0  0  0
   -1.3000    0.7500    0.0000 C   0  0  0  0  0  0  0  0  0  0  0  0
    1.3000    0.7500    0.0000 C   0  0  0  0  0  0  0  0  0  0  0  0
   -1.3000   -0.7500    0.0000 C   0  0  0  0  0  0  0  0  0  0  0  0
   -0.0000   -1.5000    0.0000 N   0  0  0  0  0  0  0  0  0  0  0  0
    0.0000    1.5000    0.0000 N   0  0  0  0  0  0  0  0  0  0  0  0
   -3.8981    0.7504    0.0000 O   0  0  0  0  0  0  0  0  0  0  0  0
    2.5989    1.5002    0.0000 O   0  0  0  0  0  0  0  0  0  0  0  0
   -2.5989   -1.5002    0.0000 O   0  0  0  0  0  0  0  0  0  0  0  0
  3  1  1  0
  4  2  1  0
  5  3  1  0
  6  4  1  0
  7  3  1  0
  7  6  2  0
  8  4  1  0
  8  5  2  0
  9  2  1  0
 10  5  1  0
 11  6  1  0
M  END
>  <NAME>  (5894) 
3-HYDROXYMETHYL-6-METHYL-2,5-PIPERAZINEDIONE

>  <SYNONYMS>  (5894) 
CYCLO-ALANYL-SERINE

>  <SPECTRUM TYPE>  (5894) 
MS1

>  <INSTRUMENT TYPE>  (5894) 
EI-B

>  <INSTRUMENT>  (5894) 
HITACHI RMU-6M

>  <ION MODE>  (5894) 
P

>  <INCHIKEY>  (5894) 
JJDWARJCLFFKRT-UHFFFAOYSA-N

>  <FORMULA>  (5894) 
C6H10N2O3

>  <EXACT MASS>  (5894) 
158.06914217999997

>  <MW>  (5894) 
158

>  <ID>  (5894) 
JP000242

>  <CONTRIBUTOR>  (5894) 
University of Tokyo Team, {Faculty of Engineering, University of Tokyo

>  <COMMENT>  (5894) 
SMILES=OCC(N1)C(=O)NC(C)C(=O)1
InChI=InChI=1S/C6H10N2O3/c1-3-5(10)8-4(2-9)6(11)7-3/h3-4,9H,2H2,1H3,(H,7,11)(H,8,10)
computed SMILES=OC1=NC(C(O)=NC1C)CO
accession=JP000242
date=2016.01.19 (Created 2008.10.21, modified 2011.05.06)
author=YAMAMOTO M, DEP. CHEMISTRY, FAC. SCIENCE, NARA WOMEN'S UNIV.
license=CC BY-NC-SA
exact mass=158.06914
ionization energy=70 eV
ion type=[M]+*
computed spectral entropy=2.8358582436911353
computed normalized entropy=0.7325525684924475
SPLASH=splash10-0006-9000000000-c5cb779dbd5dd7e602d3
submitter=submitter = University of Tokyo Team (Faculty of Engineering, University of Tokyo)
MoNA Rating=3.75

>  <NUM PEAKS>  (5894) 
48

>  <MASS SPECTRAL PEAKS>  (5894) 
14 2.7
15 20.5
26 3.7
27 1.22
28 58.9
29 8.3
30 10.5
31 1.12
32 1.7
39 1.5
40 4.9
41 1.14
42 34
43 11.5
44 99.99
45 0.31
54 1.8
55 6
56 6.6
57 0.64
58 3
59 1.5
60 19.6
69 0.54
70 5.3
71 8.7
72 2.1
73 0.16
83 1.2
84 1
85 8.5
86 0.1
87 2.6
97 6.4
98 1.6
99 1.57
100 2.1
111 1.3
112 2.8
113 1.56
114 1.3
115 2.4
127 2.9
128 7.45
129 5.9
140 5.1
158 1.3
159 1.1

>  <PREDICTED SPECTRUM>  (5894) 
31 66
33 31
34 32
35 30
36 96
37 36
38 125
39 281
40 288
41 789
42 999
43 892
44 485
45 591
46 115
47 166
48 63
49 75
50 74
51 221
52 316
53 452
54 344
55 655
56 361
57 574
58 524
59 390
60 204
61 7
65 100
66 166
67 317
68 400
69 568
70 443
71 462
72 336
73 514
74 304
75 264
76 20
77 38
78 46
79 184
80 162
81 106
82 247
83 359
84 362
85 367
86 285
87 238
88 276
89 309
90 80
91 27
93 78
94 45
95 170
96 19
97 195
98 64
99 258
100 29
101 133
109 246
110 338
111 241
112 197
113 175
114 236
115 91
116 183
117 114
123 121
124 23
125 186
127 978
128 773
129 405
130 143
139 135
140 125
141 305
142 112
143 111
144 42
156 19
157 75
158 204
159 41

$$$$

     RDKit          2D

 12 12  0  0  0  0  0  0  0  0999 V2000
   -6.4962    0.7508    0.0000 C   0  0  0  0  0  0  0  0  0  0  0  0
   -2.5989    1.5002    0.0000 C   0  0  0  0  0  0  0  0  0  0  0  0
   -3.8981    0.7504    0.0000 C   0  0  0  0  0  0  0  0  0  0  0  0
    1.3000   -0.7500    0.0000 C   0  0  0  0  0  0  0  0  0  0  0  0
   -1.3000    0.7500    0.0000 C   0  0  0  0  0  0  0  0  0  0  0  0
    1.3000    0.7500    0.0000 C   0  0  0  0  0  0  0  0  0  0  0  0
   -1.3000   -0.7500    0.0000 C   0  0  0  0  0  0  0  0  0  0  0  0
    0.0000   -1.5000    0.0000 N   0  0  0  0  0  0  0  0  0  0  0  0
    0.0000    1.5000    0.0000 N   0  0  0  0  0  0  0  0  0  0  0  0
    2.5989    1.5002    0.0000 O   0  0  0  0  0  0  0  0  0  0  0  0
   -2.5989   -1.5002    0.0000 O   0  0  0  0  0  0  0  0  0  0  0  0
   -5.1970    1.5006    0.0000 S   0  0  0  0  0  0  0  0  0  0  0  0
  3  2  1  0
  5  2  1  0
  6  4  1  0
  7  5  1  0
  8  4  1  0
  8  7  2  0
  9  5  1  0
  9  6  2  0
 10  6  1  0
 11  7  1  0
 12  1  1  0
 12  3  1  0
M  END
>  <NAME>  (5895) 
3-(2-METHYLTHIOETHYL)-2,5-PIPRAZINEDIONE

>  <SYNONYMS>  (5895) 
CYCLO-GLYCYL-METHIONINE

>  <SPECTRUM TYPE>  (5895) 
MS1

>  <INSTRUMENT TYPE>  (5895) 
EI-B

>  <INSTRUMENT>  (5895) 
HITACHI RMU-6M

>  <ION MODE>  (5895) 
P

>  <INCHIKEY>  (5895) 
BYJGBWBCRKWFFX-UHFFFAOYSA-N

>  <FORMULA>  (5895) 
C7H12N2O2S

>  <EXACT MASS>  (5895) 
188.061948624

>  <MW>  (5895) 
188

>  <ID>  (5895) 
JP000241

>  <CONTRIBUTOR>  (5895) 
University of Tokyo Team, {Faculty of Engineering, University of Tokyo

>  <COMMENT>  (5895) 
SMILES=CSCCC(N1)C(=O)NCC(=O)1
InChI=InChI=1S/C7H12N2O2S/c1-12-3-2-5-7(11)8-4-6(10)9-5/h5H,2-4H2,1H3,(H,8,11)(H,9,10)
computed SMILES=OC1=NC(C(O)=NC1)CCSC
accession=JP000241
date=2016.01.19 (Created 2008.10.21, modified 2011.05.06)
author=YAMAMOTO M, DEP. CHEMISTRY, FAC. SCIENCE, NARA WOMEN'S UNIV.
license=CC BY-NC-SA
exact mass=188.06195
ionization energy=70 eV
ion type=[M]+*
computed spectral entropy=3.1895167588177875
computed normalized entropy=0.7640682458524094
SPLASH=splash10-03di-9400000000-7c0ae676189164f0be22
submitter=submitter = University of Tokyo Team (Faculty of Engineering, University of Tokyo)
MoNA Rating=3.75

>  <NUM PEAKS>  (5895) 
65

>  <MASS SPECTRAL PEAKS>  (5895) 
14 1.5
15 3.9
26 1.7
27 1.42
28 40.1
29 9.2
30 44.3
31 0.15
32 5.5
35 5.3
39 5.4
40 0.17
41 11.6
42 10.9
43 3.4
44 0.41
45 10
46 4.3
47 9.9
48 0.48
49 2.4
52 1.3
54 6.9
55 0.55
56 19.5
57 21.3
58 2.9
59 0.39
60 1.6
61 25.9
62 12.9
63 0.2
67 2
68 2.9
69 2
70 0.16
71 1.3
72 1.2
73 1.6
74 0.15
75 6.3
82 1.5
83 1.4
84 0.31
85 13.5
86 10.6
87 1.3
88 0.36
97 1
98 1.2
99 19.7
100 0.16
111 1.5
113 3.2
114 99.99
115 0.56
116 1.2
126 1.7
127 15
128 0.12
140 4
141 1.4
188 28.1
189 0.31
190 1.4

>  <PREDICTED SPECTRUM>  (5895) 
30 24
33 51
34 59
35 100
36 22
39 111
40 90
41 566
42 489
43 352
44 276
45 554
46 522
47 571
48 257
49 132
51 46
52 125
53 372
54 508
55 857
56 570
57 338
58 164
59 393
60 504
61 999
62 195
63 49
67 272
68 357
69 549
70 477
71 282
72 248
73 316
74 369
75 129
76 30
77 26
79 83
80 82
81 267
82 372
83 624
84 105
85 290
86 298
87 662
88 341
89 139
90 30
93 29
95 250
96 179
97 160
98 71
99 203
100 216
101 148
102 122
103 37
108 9
109 264
110 205
111 244
112 156
113 399
114 780
115 362
116 78
118 5
122 131
123 1
125 66
126 58
127 514
128 151
129 163
130 20
131 1
139 6
140 141
141 710
142 476
143 298
154 61
155 105
159 31
172 30
173 42
188 594
189 187
190 150

$$$$

     RDKit          2D

  9  8  0  0  0  0  0  0  0  0999 V2000
    1.6238    3.9375    0.0000 C   0  0  0  0  0  0  0  0  0  0  0  0
   -6.1704    3.9375    0.0000 C   0  0  0  0  0  0  0  0  0  0  0  0
    0.3248    4.6875    0.0000 C   0  0  0  0  0  0  0  0  0  0  0  0
   -4.8714    4.6875    0.0000 C   0  0  0  0  0  0  0  0  0  0  0  0
   -0.9743    3.9375    0.0000 C   0  0  0  0  0  0  0  0  0  0  0  0
   -2.2733    4.6875    0.0000 C   0  0  0  0  0  0  0  0  0  0  0  0
   -3.5724    2.4375    0.0000 C   0  0  0  0  0  0  0  0  0  0  0  0
   -3.5724    3.9375    0.0000 C   0  0  0  0  0  0  0  0  0  0  0  0
   -4.8714    1.6875    0.0000 N   0  0  0  0  0  0  0  0  0  0  0  0
  3  1  1  0
  4  2  1  0
  5  3  1  0
  6  5  1  0
  8  4  1  0
  8  6  1  0
  8  7  1  0
  9  7  1  0
M  END
>  <NAME>  (5896) 
2-ETHYL-1-HEXYLAMINE

>  <SYNONYMS>  (5896) 


>  <SPECTRUM TYPE>  (5896) 
MS1

>  <INSTRUMENT TYPE>  (5896) 
EI-B

>  <INSTRUMENT>  (5896) 
HITACHI RMU-6M

>  <ION MODE>  (5896) 
P

>  <INCHIKEY>  (5896) 
LTHNHFOGQMKPOV-UHFFFAOYSA-N

>  <FORMULA>  (5896) 
C8H19N

>  <EXACT MASS>  (5896) 
129.151749608

>  <MW>  (5896) 
129

>  <ID>  (5896) 
JP000239

>  <CONTRIBUTOR>  (5896) 
University of Tokyo Team, {Faculty of Engineering, University of Tokyo

>  <COMMENT>  (5896) 
SMILES=CCCCC(CC)CN
InChI=InChI=1S/C8H19N/c1-3-5-6-8(4-2)7-9/h8H,3-7,9H2,1-2H3
computed SMILES=NCC(CC)CCCC
accession=JP000239
date=2016.01.19 (Created 2008.10.21, modified 2011.05.06)
author=YAMAMOTO M, DEP. CHEMISTRY, FAC. SCIENCE, NARA WOMEN'S UNIV.
license=CC BY-NC-SA
exact mass=129.15175
ionization energy=70 eV
ion type=[M]+*
computed spectral entropy=1.1737041069686105
computed normalized entropy=0.423324273648656
SPLASH=splash10-001i-9000000000-5b0bc80fdfeef2ff50d3
submitter=submitter = University of Tokyo Team (Faculty of Engineering, University of Tokyo)
MoNA Rating=3.75

>  <NUM PEAKS>  (5896) 
16

>  <MASS SPECTRAL PEAKS>  (5896) 
18 4.3
27 4.4
28 2.8
29 0.5
30 99.99
31 2
39 2.8
41 0.75
42 1.8
55 3.2
56 3.6
58 0.18
69 1.5
70 1.2
112 1.5
129 1.9

>  <PREDICTED SPECTRUM>  (5896) 
18 15
27 154
28 159
29 135
30 940
31 207
32 17
39 233
40 79
41 678
42 409
43 639
44 50
52 40
53 230
54 194
55 404
56 544
57 999
58 23
62 11
67 125
68 104
69 391
70 515
71 600
72 305
81 15
82 124
83 185
84 152
85 20
97 12
98 52
99 131
100 469
101 70
112 331
113 12
128 30
129 201
130 22

$$$$

     RDKit          2D

  9  8  0  0  0  0  0  0  0  0999 V2000
   -7.4695    3.9375    0.0000 C   0  0  0  0  0  0  0  0  0  0  0  0
    1.6238    3.1875    0.0000 C   0  0  0  0  0  0  0  0  0  0  0  0
   -6.1704    3.1875    0.0000 C   0  0  0  0  0  0  0  0  0  0  0  0
   -4.8714    3.9375    0.0000 C   0  0  0  0  0  0  0  0  0  0  0  0
   -3.5724    3.1875    0.0000 C   0  0  0  0  0  0  0  0  0  0  0  0
   -2.2733    3.9375    0.0000 C   0  0  0  0  0  0  0  0  0  0  0  0
   -0.9743    3.1875    0.0000 C   0  0  0  0  0  0  0  0  0  0  0  0
    0.3248    3.9375    0.0000 C   0  0  0  0  0  0  0  0  0  0  0  0
    0.3248    5.4375    0.0000 N   0  0  0  0  0  0  0  0  0  0  0  0
  3  1  1  0
  4  3  1  0
  5  4  1  0
  6  5  1  0
  7  6  1  0
  8  2  1  0
  8  7  1  0
  9  8  1  0
M  END
>  <NAME>  (5897) 
2-OCTYLAMINE

>  <SYNONYMS>  (5897) 


>  <SPECTRUM TYPE>  (5897) 
MS1

>  <INSTRUMENT TYPE>  (5897) 
EI-B

>  <INSTRUMENT>  (5897) 
HITACHI RMU-6M

>  <ION MODE>  (5897) 
P

>  <INCHIKEY>  (5897) 
HBXNJMZWGSCKPW-UHFFFAOYSA-N

>  <FORMULA>  (5897) 
C8H19N

>  <EXACT MASS>  (5897) 
129.151749608

>  <MW>  (5897) 
129

>  <ID>  (5897) 
JP000238

>  <CONTRIBUTOR>  (5897) 
University of Tokyo Team, {Faculty of Engineering, University of Tokyo

>  <COMMENT>  (5897) 
SMILES=CCCCCCC(C)N
InChI=InChI=1S/C8H19N/c1-3-4-5-6-7-8(2)9/h8H,3-7,9H2,1-2H3
computed SMILES=NC(C)CCCCCC
accession=JP000238
date=2016.01.19 (Created 2008.10.21, modified 2011.05.06)
author=YAMAMOTO M, DEP. CHEMISTRY, FAC. SCIENCE, NARA WOMEN'S UNIV.
license=CC BY-NC-SA
exact mass=129.15175
ionization energy=70 eV
ion type=[M]+*
computed spectral entropy=1.3511219396843117
computed normalized entropy=0.4873142305047084
SPLASH=splash10-0006-9000000000-92c857b739b3be6abe1f
submitter=submitter = University of Tokyo Team (Faculty of Engineering, University of Tokyo)
MoNA Rating=3.75

>  <NUM PEAKS>  (5897) 
16

>  <MASS SPECTRAL PEAKS>  (5897) 
15 1.1
18 5.6
27 4.2
28 0.26
29 3.6
30 6.8
39 2.5
41 0.57
42 4.2
43 4.2
44 99.99
45 0.25
55 3.1
56 2.3
58 1
114 3.4

>  <PREDICTED SPECTRUM>  (5897) 
15 5
18 15
27 47
28 93
29 22
30 104
32 10
39 83
40 62
41 205
42 205
43 160
44 999
45 180
51 4
53 54
54 18
55 100
56 108
57 176
67 42
68 28
70 67
71 15
83 15
85 19
86 25
114 69
115 3

$$$$

     RDKit          2D

  8  7  0  0  0  0  0  0  0  0999 V2000
   -6.4952    4.5000    0.0000 C   0  0  0  0  0  0  0  0  0  0  0  0
   -5.1962    3.7500    0.0000 C   0  0  0  0  0  0  0  0  0  0  0  0
   -3.8971    4.5000    0.0000 C   0  0  0  0  0  0  0  0  0  0  0  0
   -2.5981    3.7500    0.0000 C   0  0  0  0  0  0  0  0  0  0  0  0
   -1.2990    4.5000    0.0000 C   0  0  0  0  0  0  0  0  0  0  0  0
    0.0000    3.7500    0.0000 C   0  0  0  0  0  0  0  0  0  0  0  0
    1.2990    4.5000    0.0000 C   0  0  0  0  0  0  0  0  0  0  0  0
    2.5981    3.7500    0.0000 N   0  0  0  0  0  0  0  0  0  0  0  0
  2  1  1  0
  3  2  1  0
  4  3  1  0
  5  4  1  0
  6  5  1  0
  7  6  1  0
  8  7  1  0
M  END
>  <NAME>  (5898) 
1-HEPTYLAMINE

>  <SYNONYMS>  (5898) 


>  <SPECTRUM TYPE>  (5898) 
MS1

>  <INSTRUMENT TYPE>  (5898) 
EI-B

>  <INSTRUMENT>  (5898) 
HITACHI RMU-6M

>  <ION MODE>  (5898) 
P

>  <INCHIKEY>  (5898) 
WJYIASZWHGOTOU-UHFFFAOYSA-N

>  <FORMULA>  (5898) 
C7H17N

>  <EXACT MASS>  (5898) 
115.13609954399999

>  <MW>  (5898) 
115

>  <ID>  (5898) 
JP000236

>  <CONTRIBUTOR>  (5898) 
University of Tokyo Team, {Faculty of Engineering, University of Tokyo

>  <COMMENT>  (5898) 
SMILES=CCCCCCCN
InChI=InChI=1S/C7H17N/c1-2-3-4-5-6-7-8/h2-8H2,1H3
computed SMILES=NCCCCCCC
accession=JP000236
date=2016.01.19 (Created 2008.10.21, modified 2011.05.06)
author=YAMAMOTO M, DEP. CHEMISTRY, FAC. SCIENCE, NARA WOMEN'S UNIV.
license=CC BY-NC-SA
exact mass=115.1361
ionization energy=70 eV
ion type=[M]+*
computed spectral entropy=1.3534603050617502
computed normalized entropy=0.48815761753816267
SPLASH=splash10-001i-9000000000-3e4c53fea4cfa1621d3d
submitter=submitter = University of Tokyo Team (Faculty of Engineering, University of Tokyo)
MoNA Rating=3.75

>  <NUM PEAKS>  (5898) 
16

>  <MASS SPECTRAL PEAKS>  (5898) 
18 4.5
27 5.6
28 3.6
29 0.43
30 99.99
31 2
39 3.7
41 0.68
42 2.6
43 3.1
44 6.1
45 0.47
55 3.2
56 2.4
86 1.9
115 1.8

>  <PREDICTED SPECTRUM>  (5898) 
15 24
16 5
17 24
18 63
27 99
28 211
29 163
30 999
31 273
32 30
39 163
40 104
41 430
42 345
43 393
44 442
45 224
52 1
53 62
54 108
55 164
56 501
57 355
58 317
59 75
67 57
69 126
70 172
71 167
72 363
73 104
83 36
84 94
85 37
86 233
87 22
98 150
99 64
100 43
114 134
115 253
116 29

$$$$

     RDKit          2D

  7  6  0  0  0  0  0  0  0  0999 V2000
    1.9486    3.3750    0.0000 C   0  0  0  0  0  0  0  0  0  0  0  0
    0.6495    4.1250    0.0000 C   0  0  0  0  0  0  0  0  0  0  0  0
   -0.6495    3.3750    0.0000 C   0  0  0  0  0  0  0  0  0  0  0  0
   -1.9486    4.1250    0.0000 C   0  0  0  0  0  0  0  0  0  0  0  0
   -3.2476    3.3750    0.0000 C   0  0  0  0  0  0  0  0  0  0  0  0
   -4.5466    4.1250    0.0000 C   0  0  0  0  0  0  0  0  0  0  0  0
   -5.8457    3.3750    0.0000 N   0  0  0  0  0  0  0  0  0  0  0  0
  2  1  1  0
  3  2  1  0
  4  3  1  0
  5  4  1  0
  6  5  1  0
  7  6  1  0
M  END
>  <NAME>  (5899) 
1-HEXYLAMINE

>  <SYNONYMS>  (5899) 


>  <SPECTRUM TYPE>  (5899) 
MS1

>  <INSTRUMENT TYPE>  (5899) 
EI-B

>  <INSTRUMENT>  (5899) 
HITACHI RMU-6M

>  <ION MODE>  (5899) 
P

>  <INCHIKEY>  (5899) 
BMVXCPBXGZKUPN-UHFFFAOYSA-N

>  <FORMULA>  (5899) 
C6H15N

>  <EXACT MASS>  (5899) 
101.12044947999999

>  <MW>  (5899) 
101

>  <ID>  (5899) 
JP000235

>  <CONTRIBUTOR>  (5899) 
University of Tokyo Team, {Faculty of Engineering, University of Tokyo

>  <COMMENT>  (5899) 
SMILES=CCCCCCN
InChI=InChI=1S/C6H15N/c1-2-3-4-5-6-7/h2-7H2,1H3
computed SMILES=NCCCCCC
accession=JP000235
date=2016.01.19 (Created 2008.10.21, modified 2011.05.06)
author=YAMAMOTO M, DEP. CHEMISTRY, FAC. SCIENCE, NARA WOMEN'S UNIV.
license=CC BY-NC-SA
exact mass=101.12045
ionization energy=70 eV
ion type=[M]+*
computed spectral entropy=1.2116408647020005
computed normalized entropy=0.4370070667109979
SPLASH=splash10-001i-9000000000-d48d2416082ec4f57127
submitter=submitter = University of Tokyo Team (Faculty of Engineering, University of Tokyo)
MoNA Rating=3.75

>  <NUM PEAKS>  (5899) 
16

>  <MASS SPECTRAL PEAKS>  (5899) 
15 1
18 3.8
27 5
28 0.37
29 3.3
30 99.99
31 1.8
39 0.31
41 4.5
42 2.2
43 2
44 0.43
45 3.5
55 1.9
56 1.7
101 2.8

>  <PREDICTED SPECTRUM>  (5899) 
15 16
16 7
17 25
18 56
27 137
28 223
29 356
30 999
31 204
32 0
38 2
39 149
40 108
41 391
42 304
43 423
44 511
45 180
46 3
53 49
54 73
55 163
56 434
57 307
58 441
59 157
67 37
69 87
71 40
72 250
73 55
82 21
83 54
84 278
85 46
86 66
100 140
101 255
102 58

$$$$

     RDKit          2D

  6  5  0  0  0  0  0  0  0  0999 V2000
   -4.5466    3.3750    0.0000 C   0  0  0  0  0  0  0  0  0  0  0  0
   -3.2476    2.6250    0.0000 C   0  0  0  0  0  0  0  0  0  0  0  0
   -1.9486    3.3750    0.0000 C   0  0  0  0  0  0  0  0  0  0  0  0
   -0.6495    2.6250    0.0000 C   0  0  0  0  0  0  0  0  0  0  0  0
    0.6495    3.3750    0.0000 C   0  0  0  0  0  0  0  0  0  0  0  0
    1.9486    2.6250    0.0000 N   0  0  0  0  0  0  0  0  0  0  0  0
  2  1  1  0
  3  2  1  0
  4  3  1  0
  5  4  1  0
  6  5  1  0
M  END
>  <NAME>  (5900) 
1-PENTYLAMINE

>  <SYNONYMS>  (5900) 
AMYLAMINE

>  <SPECTRUM TYPE>  (5900) 
MS1

>  <INSTRUMENT TYPE>  (5900) 
EI-B

>  <INSTRUMENT>  (5900) 
HITACHI RMU-6M

>  <ION MODE>  (5900) 
P

>  <INCHIKEY>  (5900) 
DPBLXKKOBLCELK-UHFFFAOYSA-N

>  <FORMULA>  (5900) 
C5H13N

>  <EXACT MASS>  (5900) 
87.10479941599999

>  <MW>  (5900) 
87

>  <ID>  (5900) 
JP000234

>  <CONTRIBUTOR>  (5900) 
University of Tokyo Team, {Faculty of Engineering, University of Tokyo

>  <COMMENT>  (5900) 
SMILES=CCCCCN
InChI=InChI=1S/C5H13N/c1-2-3-4-5-6/h2-6H2,1H3
computed SMILES=NCCCCC
accession=JP000234
date=2016.01.19 (Created 2008.10.21, modified 2011.05.06)
author=YAMAMOTO M, DEP. CHEMISTRY, FAC. SCIENCE, NARA WOMEN'S UNIV.
license=CC BY-NC-SA
exact mass=87.1048
ionization energy=70 eV
ion type=[M]+*
computed spectral entropy=1.1469595582593488
computed normalized entropy=0.42353703701376066
SPLASH=splash10-001i-9000000000-859df44a2273d5f6066d
submitter=submitter = University of Tokyo Team (Faculty of Engineering, University of Tokyo)
MoNA Rating=3.75

>  <NUM PEAKS>  (5900) 
15

>  <MASS SPECTRAL PEAKS>  (5900) 
15 1.1
18 3.2
27 5.3
28 0.49
29 2.5
30 99.99
31 1.8
39 0.39
41 3.8
42 2.7
43 1.6
44 0.25
45 3.2
55 1
87 5.5

>  <PREDICTED SPECTRUM>  (5900) 
14 15
15 73
16 14
17 37
18 81
26 37
27 198
28 226
29 214
30 999
31 338
32 24
38 23
39 170
40 144
41 419
42 296
43 501
44 748
45 265
46 54
52 26
53 105
54 178
55 191
56 197
57 203
58 303
59 21
69 106
70 338
71 71
72 164
86 77
87 254
88 59

$$$$

     RDKit          2D

 10 10  0  0  0  0  0  0  0  0999 V2000
   -1.3000    0.7500    0.0000 C   0  0  0  0  0  0  0  0  0  0  0  0
   -0.0000   -1.5000    0.0000 C   0  0  0  0  0  0  0  0  0  0  0  0
    0.0000    1.5000    0.0000 C   0  0  0  0  0  0  0  0  0  0  0  0
    1.3000   -0.7500    0.0000 C   0  0  0  0  0  0  0  0  0  0  0  0
   -1.3000   -0.7500    0.0000 C   0  0  0  0  0  0  0  0  0  0  0  0
    1.3000    0.7500    0.0000 C   0  0  0  0  0  0  0  0  0  0  0  0
   -2.5989   -1.5002    0.0000 F   0  0  0  0  0  0  0  0  0  0  0  0
    2.5989    1.5002    0.0000 N   0  0  0  0  0  0  0  0  0  0  0  0
    3.8981    0.7504    0.0000 O   0  0  0  0  0  0  0  0  0  0  0  0
    2.5987    3.0002    0.0000 O   0  0  0  0  0  0  0  0  0  0  0  0
  3  1  2  0
  4  2  1  0
  5  1  1  0
  5  2  2  0
  6  3  1  0
  6  4  2  0
  7  5  1  0
  8  6  1  0
  9  8  1  0
 10  8  2  0
M  CHG  2   8   1   9  -1
M  END
>  <NAME>  (5901) 
PARA FLUORO NITROBENZENE

>  <SYNONYMS>  (5901) 


>  <SPECTRUM TYPE>  (5901) 
MS1

>  <INSTRUMENT TYPE>  (5901) 
EI-B

>  <INSTRUMENT>  (5901) 
HITACHI RMU-7M

>  <ION MODE>  (5901) 
P

>  <INCHIKEY>  (5901) 
WFQDTOYDVUWQMS-UHFFFAOYSA-N

>  <FORMULA>  (5901) 
C6H4FNO2

>  <EXACT MASS>  (5901) 
141.022606588

>  <MW>  (5901) 
141

>  <ID>  (5901) 
JP000224

>  <CONTRIBUTOR>  (5901) 
University of Tokyo Team, {Faculty of Engineering, University of Tokyo

>  <COMMENT>  (5901) 
SMILES=Fc(c1)ccc(c1)[N+1]([O-1])=O
InChI=InChI=1S/C6H4FNO2/c7-5-1-3-6(4-2-5)8(9)10/h1-4H
computed SMILES=O=N(=O)C1=CC=C(F)C=C1
accession=JP000224
date=2016.01.19 (Created 2008.10.21, modified 2011.05.06)
author=TAJIMA S, GUNMA COLLEGE OF TECHNOLOGY
license=CC BY-NC-SA
exact mass=141.02261
ionization energy=70 eV
ion type=[M]+*
computed spectral entropy=2.542664988661896
computed normalized entropy=0.7551059119958907
SPLASH=splash10-002e-9300000000-72d7e78945ba3bdc4392
submitter=submitter = University of Tokyo Team (Faculty of Engineering, University of Tokyo)
MoNA Rating=3.75

>  <NUM PEAKS>  (5901) 
29

>  <MASS SPECTRAL PEAKS>  (5901) 
27 1.81
30 12.32
31 2.71
37 2.55
38 2.55
39 3.12
41 1.97
43 2.38
50 15.02
51 8.21
57 9.69
61 2.55
62 2.46
63 3.04
68 6.08
69 11.25
73 1.89
74 9.85
75 69.29
76 5.75
83 20.36
93 2.3
94 5.91
95 99.99
96 6.73
111 27.01
125 3.78
141 77.59
142 7.14

>  <PREDICTED SPECTRUM>  (5901) 
14 25
16 65
18 7
19 23
25 60
26 105
27 66
28 24
29 31
30 725
31 269
32 43
33 25
36 52
37 159
38 193
39 114
40 70
41 123
42 13
43 78
44 188
45 42
46 233
49 146
50 408
51 223
52 41
55 36
56 329
57 590
60 40
61 230
62 285
63 423
64 87
65 13
68 291
69 297
70 257
72 105
73 122
74 291
75 474
76 242
81 270
82 1
83 583
84 196
85 49
92 164
93 64
94 363
95 999
96 239
97 47
111 495
112 204
125 83
141 692
142 169
143 43

$$$$

     RDKit          2D

 10 10  0  0  0  0  0  0  0  0999 V2000
    0.0005   -3.7506    0.0000 C   0  0  0  0  0  0  0  0  0  0  0  0
   -1.2990   -2.9998    0.0000 C   0  0  0  0  0  0  0  0  0  0  0  0
    1.2995   -3.0006    0.0000 C   0  0  0  0  0  0  0  0  0  0  0  0
   -0.0005   -0.7490    0.0000 C   0  0  0  0  0  0  0  0  0  0  0  0
   -1.2995   -1.4990    0.0000 C   0  0  0  0  0  0  0  0  0  0  0  0
    1.2990   -1.4998    0.0000 C   0  0  0  0  0  0  0  0  0  0  0  0
   -2.5987   -0.7492    0.0000 F   0  0  0  0  0  0  0  0  0  0  0  0
    2.5981   -0.7498    0.0000 N   0  0  0  0  0  0  0  0  0  0  0  0
    3.8971   -1.4998    0.0000 O   0  0  0  0  0  0  0  0  0  0  0  0
    2.5981    0.7502    0.0000 O   0  0  0  0  0  0  0  0  0  0  0  0
  2  1  2  0
  3  1  1  0
  5  2  1  0
  5  4  2  0
  6  3  2  0
  6  4  1  0
  7  5  1  0
  8  6  1  0
  9  8  1  0
 10  8  2  0
M  CHG  2   8   1   9  -1
M  END
>  <NAME>  (5902) 
META FLUORO NITROBENZENE

>  <SYNONYMS>  (5902) 


>  <SPECTRUM TYPE>  (5902) 
MS1

>  <INSTRUMENT TYPE>  (5902) 
EI-B

>  <INSTRUMENT>  (5902) 
HITACHI RMU-7M

>  <ION MODE>  (5902) 
P

>  <INCHIKEY>  (5902) 
WMASLRCNNKMRFP-UHFFFAOYSA-N

>  <FORMULA>  (5902) 
C6H4FNO2

>  <EXACT MASS>  (5902) 
141.022606588

>  <MW>  (5902) 
141

>  <ID>  (5902) 
JP000222

>  <CONTRIBUTOR>  (5902) 
University of Tokyo Team, {Faculty of Engineering, University of Tokyo

>  <COMMENT>  (5902) 
SMILES=Fc(c1)cc(cc1)[N+1]([O-1])=O
InChI=InChI=1S/C6H4FNO2/c7-5-2-1-3-6(4-5)8(9)10/h1-4H
computed SMILES=O=N(=O)C=1C=CC=C(F)C1
accession=JP000222
date=2016.01.19 (Created 2008.10.21, modified 2011.05.06)
author=TAJIMA S, GUNMA COLLEGE OF TECHNOLOGY
license=CC BY-NC-SA
exact mass=141.02261
ionization energy=70 eV
ion type=[M]+*
computed spectral entropy=2.5866018866826876
computed normalized entropy=0.7604974355879995
SPLASH=splash10-002b-9100000000-d9b7fb3ab398b3eac454
submitter=submitter = University of Tokyo Team (Faculty of Engineering, University of Tokyo)
MoNA Rating=3.75

>  <NUM PEAKS>  (5902) 
30

>  <MASS SPECTRAL PEAKS>  (5902) 
27 1.35
30 26.33
31 2.85
37 3.7
38 3.91
39 4.27
49 2.14
50 16.94
51 8.9
57 9.25
61 2.7
62 3.2
63 3.84
68 7.62
69 12.38
73 1.64
74 11.6
75 77.79
76 5.84
81 1.57
82 1.42
83 19.29
92 1.42
93 2.14
94 5.91
95 99.99
96 6.41
111 10.11
141 47.19
142 3.49

>  <PREDICTED SPECTRUM>  (5902) 
14 15
16 57
18 8
19 25
25 49
26 96
27 44
28 77
29 73
30 581
31 263
32 35
33 79
36 80
37 187
38 225
39 127
40 42
41 103
42 24
43 159
44 226
45 37
46 261
48 15
49 188
50 428
51 228
52 48
55 72
56 400
57 638
58 22
61 248
62 311
63 447
64 62
65 38
67 6
68 392
69 431
70 250
72 78
73 186
74 341
75 583
76 291
80 1
81 310
82 91
83 553
84 244
86 29
87 18
92 219
93 137
94 320
95 999
96 427
97 136
110 25
111 382
112 121
125 90
141 913
142 218
143 62

$$$$

     RDKit          2D

 10 10  0  0  0  0  0  0  0  0999 V2000
   -1.3000    0.7500    0.0000 C   0  0  0  0  0  0  0  0  0  0  0  0
    0.0000    1.5000    0.0000 C   0  0  0  0  0  0  0  0  0  0  0  0
   -1.3000   -0.7500    0.0000 C   0  0  0  0  0  0  0  0  0  0  0  0
    1.3000    0.7500    0.0000 C   0  0  0  0  0  0  0  0  0  0  0  0
    0.0000   -1.5000    0.0000 C   0  0  0  0  0  0  0  0  0  0  0  0
    1.3000   -0.7500    0.0000 C   0  0  0  0  0  0  0  0  0  0  0  0
   -0.0000   -3.0000    0.0000 F   0  0  0  0  0  0  0  0  0  0  0  0
    2.5989   -1.5002    0.0000 N   0  0  0  0  0  0  0  0  0  0  0  0
    3.8981   -0.7504    0.0000 O   0  0  0  0  0  0  0  0  0  0  0  0
    2.5987   -3.0002    0.0000 O   0  0  0  0  0  0  0  0  0  0  0  0
  2  1  2  0
  3  1  1  0
  4  2  1  0
  5  3  2  0
  6  4  2  0
  6  5  1  0
  7  5  1  0
  8  6  1  0
  9  8  1  0
 10  8  2  0
M  CHG  2   8   1   9  -1
M  END
>  <NAME>  (5903) 
ORTHO FLUORO NITROBENZENE

>  <SYNONYMS>  (5903) 


>  <SPECTRUM TYPE>  (5903) 
MS1

>  <INSTRUMENT TYPE>  (5903) 
EI-B

>  <INSTRUMENT>  (5903) 
HITACHI RMU-7M

>  <ION MODE>  (5903) 
P

>  <INCHIKEY>  (5903) 
PWKNBLFSJAVFAB-UHFFFAOYSA-N

>  <FORMULA>  (5903) 
C6H4FNO2

>  <EXACT MASS>  (5903) 
141.022606588

>  <MW>  (5903) 
141

>  <ID>  (5903) 
JP000221

>  <CONTRIBUTOR>  (5903) 
University of Tokyo Team, {Faculty of Engineering, University of Tokyo

>  <COMMENT>  (5903) 
SMILES=[O-1][N+1](=O)c(c1)c(F)ccc1
InChI=InChI=1S/C6H4FNO2/c7-5-3-1-2-4-6(5)8(9)10/h1-4H
computed SMILES=O=N(=O)C=1C=CC=CC1F
accession=JP000221
date=2016.01.19 (Created 2008.10.21, modified 2011.05.06)
author=TAJIMA S, GUNMA COLLEGE OF TECHNOLOGY
license=CC BY-NC-SA
exact mass=141.02261
ionization energy=70 eV
ion type=[M]+*
computed spectral entropy=2.814595087406923
computed normalized entropy=0.7737535178049593
SPLASH=splash10-005d-9200000000-3d425de96a111549d2bb
submitter=submitter = University of Tokyo Team (Faculty of Engineering, University of Tokyo)
MoNA Rating=3.75

>  <NUM PEAKS>  (5903) 
38

>  <MASS SPECTRAL PEAKS>  (5903) 
27 1.65
30 25.09
31 2.87
37 3.01
38 3.51
39 5.45
41 1.43
49 2.15
50 16.63
51 10.75
56 1.94
57 15.91
61 2.94
62 3.51
63 5.16
65 2.37
68 10.25
69 15.91
73 1.86
74 12.97
75 99.99
76 7.52
81 1.86
82 1.86
83 49.46
84 2.8
92 3.3
93 3.37
94 8.03
95 74.55
96 5.02
111 35.13
112 2.08
120 5.38
121 1.65
125 3.58
141 69.17
142 5.45

>  <PREDICTED SPECTRUM>  (5903) 
16 38
25 47
26 80
27 12
29 20
30 470
31 223
32 30
33 55
36 55
37 187
38 265
39 203
40 58
41 170
43 221
44 194
45 3
46 151
48 16
49 203
50 463
51 293
52 129
55 130
56 382
57 708
58 58
61 275
62 328
63 610
64 332
65 151
66 7
68 331
69 471
70 373
71 12
72 19
73 166
74 322
75 598
76 298
78 20
80 78
81 516
82 199
83 684
84 263
85 103
86 46
87 34
92 258
93 190
94 405
95 938
96 402
97 143
111 505
112 263
113 18
114 70
125 162
141 999
142 288
143 78

$$$$

     RDKit          2D

 11 11  0  0  0  0  0  0  0  0999 V2000
   -1.6328    3.1878    0.0000 C   0  0  0  0  0  0  0  0  0  0  0  0
   -0.3300   -2.0600    0.0000 C   0  0  0  0  0  0  0  0  0  0  0  0
   -1.6200   -1.3100    0.0000 C   0  0  0  0  0  0  0  0  0  0  0  0
    0.9700   -1.3100    0.0000 C   0  0  0  0  0  0  0  0  0  0  0  0
   -1.6200    0.1900    0.0000 C   0  0  0  0  0  0  0  0  0  0  0  0
    0.9700    0.1900    0.0000 C   0  0  0  0  0  0  0  0  0  0  0  0
   -0.3300    0.9400    0.0000 C   0  0  0  0  0  0  0  0  0  0  0  0
    2.2689    0.9402    0.0000 N   0  0  0  0  0  0  0  0  0  0  0  0
    3.5681    0.1904    0.0000 O   0  0  0  0  0  0  0  0  0  0  0  0
    2.2687    2.4402    0.0000 O   0  0  0  0  0  0  0  0  0  0  0  0
   -0.3325    2.4400    0.0000 O   0  0  0  0  0  0  0  0  0  0  0  0
  3  2  2  0
  4  2  1  0
  5  3  1  0
  6  4  2  0
  7  5  2  0
  7  6  1  0
  8  6  1  0
  9  8  1  0
 10  8  2  0
 11  1  1  0
 11  7  1  0
M  CHG  2   8   1   9  -1
M  END
>  <NAME>  (5904) 
ORTHO NITRO ANISOLE

>  <SYNONYMS>  (5904) 
ORTHO METHOXY NITROBENZENE

>  <SPECTRUM TYPE>  (5904) 
MS1

>  <INSTRUMENT TYPE>  (5904) 
EI-B

>  <INSTRUMENT>  (5904) 
HITACHI RMU-7M

>  <ION MODE>  (5904) 
P

>  <INCHIKEY>  (5904) 
CFBYEGUGFPZCNF-UHFFFAOYSA-N

>  <FORMULA>  (5904) 
C7H7NO3

>  <EXACT MASS>  (5904) 
153.04259308399998

>  <MW>  (5904) 
153

>  <ID>  (5904) 
JP000218

>  <CONTRIBUTOR>  (5904) 
University of Tokyo Team, {Faculty of Engineering, University of Tokyo

>  <COMMENT>  (5904) 
SMILES=COc(c1)c(ccc1)[N+1]([O-1])=O
InChI=InChI=1S/C7H7NO3/c1-11-7-5-3-2-4-6(7)8(9)10/h2-5H,1H3
computed SMILES=O=N(=O)C=1C=CC=CC1OC
accession=JP000218
date=2016.01.19 (Created 2008.10.21, modified 2011.05.06)
author=TAJIMA S, GUNMA COLLEGE OF TECHNOLOGY
license=CC BY-NC-SA
exact mass=153.04259
ionization energy=70 eV
ion type=[M]+*
computed spectral entropy=3.044850286834863
computed normalized entropy=0.8254133334281675
SPLASH=splash10-0m29-9300000000-b95b0befc18519860016
submitter=submitter = University of Tokyo Team (Faculty of Engineering, University of Tokyo)
MoNA Rating=3.75

>  <NUM PEAKS>  (5904) 
40

>  <MASS SPECTRAL PEAKS>  (5904) 
15 1.8
27 3.6
30 5.54
31 2.77
37 3.4
38 10.95
39 11.09
41 7.62
43 2.08
50 17.19
51 36.17
52 13.58
53 5.68
55 2.22
57 2.01
61 2.01
62 6.31
63 31.39
64 35.2
65 26.96
66 2.22
67 2.22
74 4.71
75 3.47
76 7.14
77 99.99
78 29.11
79 8.59
80 5.47
92 53.29
93 16.63
94 2.36
95 16
106 89.19
107 6.17
108 2.22
123 44.21
124 5.06
153 39.22
154 3.6

>  <PREDICTED SPECTRUM>  (5904) 
14 66
15 171
16 36
17 21
18 28
25 45
26 173
27 172
28 143
29 143
30 358
31 99
32 9
36 62
37 203
38 308
39 388
40 92
41 198
42 15
44 42
45 5
46 163
49 213
50 597
51 751
52 494
53 376
54 143
55 21
57 24
59 61
60 16
61 225
62 382
63 751
64 574
65 557
66 293
67 156
68 40
69 67
74 219
75 395
76 475
77 999
78 688
79 486
80 298
81 145
82 27
86 35
90 99
91 178
92 728
93 388
94 350
95 547
96 67
105 196
106 514
107 393
108 203
109 52
110 17
122 147
123 561
124 162
137 111
153 772
154 251
155 14

$$$$

     RDKit          2D

 10 10  0  0  0  0  0  0  0  0999 V2000
    3.5681    1.6902    0.0000 C   0  0  0  0  0  0  0  0  0  0  0  0
    2.2781    2.4402    0.0000 C   0  0  0  0  0  0  0  0  0  0  0  0
    3.5681    0.1902    0.0000 C   0  0  0  0  0  0  0  0  0  0  0  0
    0.9781    1.6902    0.0000 C   0  0  0  0  0  0  0  0  0  0  0  0
    2.2781   -0.5598    0.0000 C   0  0  0  0  0  0  0  0  0  0  0  0
    0.9781    0.1902    0.0000 C   0  0  0  0  0  0  0  0  0  0  0  0
    2.2806   -2.0598    0.0000 N   0  0  0  0  0  0  0  0  0  0  0  0
   -0.3208   -0.5600    0.0000 N   0  0  0  0  0  0  0  0  0  0  0  0
   -1.6200    0.1898    0.0000 O   0  0  0  0  0  0  0  0  0  0  0  0
   -0.3206   -2.0600    0.0000 O   0  0  0  0  0  0  0  0  0  0  0  0
  2  1  2  0
  3  1  1  0
  4  2  1  0
  5  3  2  0
  6  4  2  0
  6  5  1  0
  7  5  1  0
  8  6  1  0
  9  8  1  0
 10  8  2  0
M  CHG  2   8   1   9  -1
M  END
>  <NAME>  (5905) 
ORTHO NITRO ANILINE

>  <SYNONYMS>  (5905) 


>  <SPECTRUM TYPE>  (5905) 
MS1

>  <INSTRUMENT TYPE>  (5905) 
EI-B

>  <INSTRUMENT>  (5905) 
HITACHI RMU-7M

>  <ION MODE>  (5905) 
P

>  <INCHIKEY>  (5905) 
DPJCXCZTLWNFOH-UHFFFAOYSA-N

>  <FORMULA>  (5905) 
C6H6N2O2

>  <EXACT MASS>  (5905) 
138.042927432

>  <MW>  (5905) 
138

>  <ID>  (5905) 
JP000212

>  <CONTRIBUTOR>  (5905) 
University of Tokyo Team, {Faculty of Engineering, University of Tokyo

>  <COMMENT>  (5905) 
SMILES=[O-1][N+1](=O)c(c1)c(N)ccc1
InChI=InChI=1S/C6H6N2O2/c7-5-3-1-2-4-6(5)8(9)10/h1-4H,7H2
computed SMILES=O=N(=O)C=1C=CC=CC1N
accession=JP000212
date=2016.01.19 (Created 2008.10.21, modified 2011.05.06)
author=TAJIMA S, GUNMA COLLEGE OF TECHNOLOGY
license=CC BY-NC-SA
exact mass=138.04293
ionization energy=70 eV
ion type=[M]+*
computed spectral entropy=2.7847878447892116
computed normalized entropy=0.7712132793265164
SPLASH=splash10-00ku-9200000000-bcec312c5e8005213644
submitter=submitter = University of Tokyo Team (Faculty of Engineering, University of Tokyo)
MoNA Rating=3.75

>  <NUM PEAKS>  (5905) 
37

>  <MASS SPECTRAL PEAKS>  (5905) 
26 1.42
27 4.1
28 6.87
30 2.99
37 3.73
38 9.18
39 31.04
40 2.84
41 6.04
42 2.76
50 4.33
51 7.84
52 17.84
53 7.16
54 1.49
61 2.24
62 5.07
63 15.67
64 13.43
65 99.99
66 11.87
74 1.42
75 1.49
76 1.64
77 2.99
78 2.39
79 1.49
80 15.82
90 3.58
91 9.55
92 65.9
93 4.48
108 12.69
121 5.22
122 2.09
138 81.34
139 5.97

>  <PREDICTED SPECTRUM>  (5905) 
16 12
17 7
25 1
26 44
27 91
28 82
29 17
30 107
36 18
37 203
38 303
39 561
40 222
41 375
42 97
43 24
44 97
46 94
48 12
49 97
50 263
51 477
52 562
53 392
54 209
55 78
60 26
61 142
62 284
63 596
64 519
65 999
66 440
67 98
68 9
70 2
73 63
74 45
75 141
76 37
78 26
79 194
80 438
81 134
83 3
90 197
91 217
92 791
93 365
94 113
104 20
107 87
108 331
109 74
120 4
121 300
122 149
138 997
139 296
140 39

$$$$

     RDKit          2D

  9  9  0  0  0  0  0  0  0  0999 V2000
   -2.5989   -1.5002    0.0000 C   0  0  0  0  0  0  0  0  0  0  0  0
   -1.3000    0.7500    0.0000 C   0  0  0  0  0  0  0  0  0  0  0  0
   -0.0000   -1.5000    0.0000 C   0  0  0  0  0  0  0  0  0  0  0  0
    0.0000    1.5000    0.0000 C   0  0  0  0  0  0  0  0  0  0  0  0
    1.3000   -0.7500    0.0000 C   0  0  0  0  0  0  0  0  0  0  0  0
    2.5989    1.5002    0.0000 C   0  0  0  0  0  0  0  0  0  0  0  0
   -1.3000   -0.7500    0.0000 C   0  0  0  0  0  0  0  0  0  0  0  0
    1.3000    0.7500    0.0000 C   0  0  0  0  0  0  0  0  0  0  0  0
    3.8978    2.2504    0.0000 N   0  0  0  0  0  0  0  0  0  0  0  0
  4  2  2  0
  5  3  1  0
  7  1  1  0
  7  2  1  0
  7  3  2  0
  8  4  1  0
  8  5  2  0
  8  6  1  0
  9  6  3  0
M  END
>  <NAME>  (5906) 
PARA TOLUNITRILE

>  <SYNONYMS>  (5906) 
1-METHYL-4-CYANOBENZENE

>  <SPECTRUM TYPE>  (5906) 
MS1

>  <INSTRUMENT TYPE>  (5906) 
EI-B

>  <INSTRUMENT>  (5906) 
HITACHI RMU-7M

>  <ION MODE>  (5906) 
P

>  <INCHIKEY>  (5906) 
VCZNNAKNUVJVGX-UHFFFAOYSA-N

>  <FORMULA>  (5906) 
C8H7N

>  <EXACT MASS>  (5906) 
117.057849224

>  <MW>  (5906) 
117

>  <ID>  (5906) 
JP000211

>  <CONTRIBUTOR>  (5906) 
University of Tokyo Team, {Faculty of Engineering, University of Tokyo

>  <COMMENT>  (5906) 
SMILES=N#Cc(c1)ccc(C)c1
InChI=InChI=1S/C8H7N/c1-7-2-4-8(6-9)5-3-7/h2-5H,1H3
computed SMILES=N#CC1=CC=C(C=C1)C
accession=JP000211
date=2016.01.19 (Created 2008.10.21, modified 2011.05.06)
author=TAJIMA S, GUNMA COLLEGE OF TECHNOLOGY
license=CC BY-NC-SA
exact mass=117.05785
ionization energy=70 eV
ion type=[M]+*
computed spectral entropy=2.37274041225811
computed normalized entropy=0.6909578489864677
SPLASH=splash10-014i-9800000000-1f738088d9fd52d483d9
submitter=submitter = University of Tokyo Team (Faculty of Engineering, University of Tokyo)
MoNA Rating=3.75

>  <NUM PEAKS>  (5906) 
31

>  <MASS SPECTRAL PEAKS>  (5906) 
27 2.89
37 1.97
38 3.15
39 10.64
41 1.77
43 1.51
50 5.25
51 5.91
52 1.51
55 1.12
57 1.18
61 2.63
62 5.38
63 13.66
64 5.98
65 3.15
74 1.31
75 3.22
76 2.36
77 1.25
86 1.12
87 1.71
88 2.82
89 34.34
90 61
91 7.88
114 1.31
115 1.77
116 71.18
117 99.99
118 8.86

>  <PREDICTED SPECTRUM>  (5906) 
14 13
15 13
16 2
25 45
26 133
27 190
28 142
30 10
32 9
33 2
36 96
37 243
38 306
39 490
40 179
41 275
42 61
43 12
44 9
45 1
49 111
50 355
51 461
52 299
53 102
56 47
57 152
58 129
61 220
62 287
63 450
64 328
65 441
66 95
70 41
74 131
75 179
76 96
77 160
78 82
85 27
86 131
87 243
88 145
89 599
90 657
91 469
92 72
102 290
114 33
115 113
116 727
117 999
118 239

$$$$

     RDKit          2D

  9  9  0  0  0  0  0  0  0  0999 V2000
   -0.3325    2.8100    0.0000 C   0  0  0  0  0  0  0  0  0  0  0  0
   -1.6200   -0.9400    0.0000 C   0  0  0  0  0  0  0  0  0  0  0  0
   -1.6200    0.5600    0.0000 C   0  0  0  0  0  0  0  0  0  0  0  0
   -0.3300   -1.6900    0.0000 C   0  0  0  0  0  0  0  0  0  0  0  0
    0.9700    0.5600    0.0000 C   0  0  0  0  0  0  0  0  0  0  0  0
    2.2689   -1.6902    0.0000 C   0  0  0  0  0  0  0  0  0  0  0  0
   -0.3300    1.3100    0.0000 C   0  0  0  0  0  0  0  0  0  0  0  0
    0.9700   -0.9400    0.0000 C   0  0  0  0  0  0  0  0  0  0  0  0
    3.5678   -2.4404    0.0000 N   0  0  0  0  0  0  0  0  0  0  0  0
  3  2  2  0
  4  2  1  0
  7  1  1  0
  7  3  1  0
  7  5  2  0
  8  4  2  0
  8  5  1  0
  8  6  1  0
  9  6  3  0
M  END
>  <NAME>  (5907) 
META TOLUNITRILE

>  <SYNONYMS>  (5907) 
1-METHYL-3-CYANOBENZENE

>  <SPECTRUM TYPE>  (5907) 
MS1

>  <INSTRUMENT TYPE>  (5907) 
EI-B

>  <INSTRUMENT>  (5907) 
HITACHI RMU-7M

>  <ION MODE>  (5907) 
P

>  <INCHIKEY>  (5907) 
BOHCMQZJWOGWTA-UHFFFAOYSA-N

>  <FORMULA>  (5907) 
C8H7N

>  <EXACT MASS>  (5907) 
117.057849224

>  <MW>  (5907) 
117

>  <ID>  (5907) 
JP000210

>  <CONTRIBUTOR>  (5907) 
University of Tokyo Team, {Faculty of Engineering, University of Tokyo

>  <COMMENT>  (5907) 
SMILES=N#Cc(c1)cc(C)cc1
InChI=InChI=1S/C8H7N/c1-7-3-2-4-8(5-7)6-9/h2-5H,1H3
computed SMILES=N#CC1=CC=CC(=C1)C
accession=JP000210
date=2016.01.19 (Created 2008.10.21, modified 2011.05.06)
author=TAJIMA S, GUNMA COLLEGE OF TECHNOLOGY
license=CC BY-NC-SA
exact mass=117.05785
ionization energy=70 eV
ion type=[M]+*
computed spectral entropy=2.552898464912035
computed normalized entropy=0.7581449904632495
SPLASH=splash10-014i-9700000000-3a250e178c62c1307b3c
submitter=submitter = University of Tokyo Team (Faculty of Engineering, University of Tokyo)
MoNA Rating=3.75

>  <NUM PEAKS>  (5907) 
29

>  <MASS SPECTRAL PEAKS>  (5907) 
26 1.57
27 5.49
37 4.48
38 7.84
39 24.19
40 2.58
41 1.57
50 8.29
51 9.63
52 3.36
57.5 2.13
58 1.34
58.5 3.36
61 3.36
62 7.39
63 16.91
64 7.73
65 4.03
74 1.34
75 3.36
76 3.02
77 1.57
88 2.46
89 23.4
90 41.21
91 5.26
116 62.93
117 99.99
118 8.96

>  <PREDICTED SPECTRUM>  (5907) 
14 34
15 93
16 5
25 38
26 129
27 198
28 107
32 23
36 57
37 205
38 268
39 438
40 125
41 129
44 19
49 101
50 343
51 402
52 265
53 83
57 25
58 96
61 222
62 269
63 405
64 285
65 309
66 71
70 26
71 16
73 2
74 109
75 180
76 141
77 190
78 98
86 80
87 145
88 118
89 471
90 533
91 298
102 408
103 57
114 63
115 148
116 637
117 999
118 292
119 14

$$$$

     RDKit          2D

 10 10  0  0  0  0  0  0  0  0999 V2000
    0.9877    2.4408    0.0000 C   0  0  0  0  0  0  0  0  0  0  0  0
    2.2941   -1.2764    0.0000 C   0  0  0  0  0  0  0  0  0  0  0  0
    1.0224   -2.0235    0.0000 C   0  0  0  0  0  0  0  0  0  0  0  0
    2.2811    0.2058    0.0000 C   0  0  0  0  0  0  0  0  0  0  0  0
   -0.2943   -1.3050    0.0000 C   0  0  0  0  0  0  0  0  0  0  0  0
    0.9963    0.9408    0.0000 C   0  0  0  0  0  0  0  0  0  0  0  0
   -0.2754    0.1937    0.0000 C   0  0  0  0  0  0  0  0  0  0  0  0
   -1.5725    0.9469    0.0000 N   0  0  0  0  0  0  0  0  0  0  0  0
   -2.8734    0.2002    0.0000 O   0  0  0  0  0  0  0  0  0  0  0  0
   -1.5687    2.4469    0.0000 O   0  0  0  0  0  0  0  0  0  0  0  0
  3  2  2  0
  4  2  1  0
  5  3  1  0
  6  1  1  0
  6  4  2  0
  7  5  2  0
  7  6  1  0
  8  7  1  0
  9  8  1  0
 10  8  2  0
M  CHG  2   8   1   9  -1
M  END
>  <NAME>  (5908) 
ORTHO NITROTOLUENE

>  <SYNONYMS>  (5908) 


>  <SPECTRUM TYPE>  (5908) 
MS1

>  <INSTRUMENT TYPE>  (5908) 
EI-B

>  <INSTRUMENT>  (5908) 
HITACHI RMU-7M

>  <ION MODE>  (5908) 
P

>  <INCHIKEY>  (5908) 
PLAZTCDQAHEYBI-UHFFFAOYSA-N

>  <FORMULA>  (5908) 
C7H7NO2

>  <EXACT MASS>  (5908) 
137.047678464

>  <MW>  (5908) 
137

>  <ID>  (5908) 
JP000200

>  <CONTRIBUTOR>  (5908) 
University of Tokyo Team, {Faculty of Engineering, University of Tokyo

>  <COMMENT>  (5908) 
SMILES=[O-1][N+1](=O)c(c1)c(C)ccc1
InChI=InChI=1S/C7H7NO2/c1-6-4-2-3-5-7(6)8(9)10/h2-5H,1H3
computed SMILES=O=N(=O)C=1C=CC=CC1C
accession=JP000200
date=2016.01.19 (Created 2008.10.21, modified 2011.05.06)
author=TAJIMA S, GUNMA COLLEGE OF TECHNOLOGY
license=CC BY-NC-SA
exact mass=137.04768
ionization energy=70 eV
ion type=[M]+*
computed spectral entropy=2.5430205500967675
computed normalized entropy=0.7631646083940563
SPLASH=splash10-01bc-9200000000-784806f929d9f9137b2e
submitter=submitter = University of Tokyo Team (Faculty of Engineering, University of Tokyo)
MoNA Rating=3.75

>  <NUM PEAKS>  (5908) 
28

>  <MASS SPECTRAL PEAKS>  (5908) 
27 2.93
30 1.22
38 3.05
39 24.39
40 1.52
41 6.1
50 6.1
51 11.4
52 3.29
53 1.95
61 1.28
62 4.63
63 15.79
64 6.71
65 99.99
66 6.83
77 16.46
78 3.54
79 2.44
89 16.28
90 6.83
91 47.93
92 45.24
93 7.01
120 87.8
121 7.32
137 5
138 0.61

>  <PREDICTED SPECTRUM>  (5908) 
14 1
16 5
17 14
18 13
25 8
26 95
27 172
28 107
29 44
30 115
37 79
38 135
39 356
40 92
41 189
42 19
43 34
45 9
46 42
49 83
50 280
51 454
52 306
53 220
54 91
55 118
57 17
61 142
62 186
63 413
64 205
65 531
66 202
67 52
69 30
70 3
74 148
75 197
76 91
77 639
78 352
79 291
80 190
81 63
82 16
83 6
85 18
86 74
87 115
88 39
89 489
90 338
91 602
92 525
93 301
94 33
102 78
106 16
107 168
108 145
109 47
110 14
120 999
121 264
122 13
137 383
138 30

$$$$

     RDKit          2D

 12 12  0  0  0  0  0  0  0  0999 V2000
    5.8432   -1.1319    0.0000 C   0  0  0  0  0  0  0  0  0  0  0  0
    4.5443   -0.3817    0.0000 C   0  0  0  0  0  0  0  0  0  0  0  0
   -0.6479   -3.3741    0.0000 C   0  0  0  0  0  0  0  0  0  0  0  0
    0.6466   -2.6319    0.0000 C   0  0  0  0  0  0  0  0  0  0  0  0
   -1.9470   -2.6241    0.0000 C   0  0  0  0  0  0  0  0  0  0  0  0
   -0.6520   -0.3811    0.0000 C   0  0  0  0  0  0  0  0  0  0  0  0
    0.6471   -1.1311    0.0000 C   0  0  0  0  0  0  0  0  0  0  0  0
   -1.9515   -1.1319    0.0000 C   0  0  0  0  0  0  0  0  0  0  0  0
    1.9462   -0.3813    0.0000 C   0  0  0  0  0  0  0  0  0  0  0  0
   -3.2518   -0.3841    0.0000 O   0  0  0  0  0  0  0  0  0  0  0  0
    1.9465    1.1187    0.0000 O   0  0  0  0  0  0  0  0  0  0  0  0
    3.2452   -1.1315    0.0000 O   0  0  0  0  0  0  0  0  0  0  0  0
  2  1  1  0
  4  3  2  0
  5  3  1  0
  7  4  1  0
  7  6  2  0
  8  5  2  0
  8  6  1  0
  9  7  1  0
 10  8  1  0
 11  9  2  0
 12  2  1  0
 12  9  1  0
M  END
>  <NAME>  (5909) 
META HYDROXY ETHYLBENZOATE

>  <SYNONYMS>  (5909) 


>  <SPECTRUM TYPE>  (5909) 
MS1

>  <INSTRUMENT TYPE>  (5909) 
EI-B

>  <INSTRUMENT>  (5909) 
HITACHI RMU-7M

>  <ION MODE>  (5909) 
P

>  <INCHIKEY>  (5909) 
MWSMNBYIEBRXAL-UHFFFAOYSA-N

>  <FORMULA>  (5909) 
C9H10O3

>  <EXACT MASS>  (5909) 
166.06299417999998

>  <MW>  (5909) 
166

>  <ID>  (5909) 
JP000196

>  <CONTRIBUTOR>  (5909) 
University of Tokyo Team, {Faculty of Engineering, University of Tokyo

>  <COMMENT>  (5909) 
SMILES=CCOC(=O)c(c1)cc(O)cc1
InChI=InChI=1S/C9H10O3/c1-2-12-9(11)7-4-3-5-8(10)6-7/h3-6,10H,2H2,1H3
computed SMILES=O=C(OCC)C=1C=CC=C(O)C1
accession=JP000196
date=2016.01.19 (Created 2008.10.21, modified 2011.05.06)
author=TAJIMA S, GUNMA COLLEGE OF TECHNOLOGY
license=CC BY-NC-SA
exact mass=166.06299
ionization energy=70 eV
ion type=[M]+*
computed spectral entropy=2.730469377351041
computed normalized entropy=0.780913334048632
SPLASH=splash10-00y3-9600000000-edbe94f6523669b7f131
submitter=submitter = University of Tokyo Team (Faculty of Engineering, University of Tokyo)
MoNA Rating=3.75

>  <NUM PEAKS>  (5909) 
33

>  <MASS SPECTRAL PEAKS>  (5909) 
26 1.52
27 8.36
28 1
29 9.88
37 1.22
38 5.32
39 31.46
40 1.52
43 1.22
45 2.66
50 4.33
51 4.56
53 5.4
62 3.42
63 12.46
64 8.51
65 43.54
66 5.24
74 1.82
77 6.38
81 2.28
92 6.38
93 52.58
94 11.7
105 4.48
120 1.98
121 99.99
122 13.68
138 25.84
139 1.9
151 3.27
166 19.68
167 2.13

>  <PREDICTED SPECTRUM>  (5909) 
14 28
15 68
17 0
18 7
25 5
26 92
27 296
28 87
29 364
31 4
36 70
37 146
38 214
39 413
40 128
41 153
42 32
43 181
44 30
45 192
49 55
50 212
51 173
52 52
53 221
54 1
55 48
62 140
63 273
64 209
65 494
66 241
67 77
68 18
73 19
74 85
75 138
76 132
78 10
81 8
82 6
92 129
93 448
94 247
95 127
105 13
110 72
120 95
121 999
122 331
123 153
138 455
139 173
151 122
152 18
166 415
167 108

$$$$

     RDKit          2D

 14 14  0  0  0  0  0  0  0  0999 V2000
   -7.7951   -1.5010    0.0000 C   0  0  0  0  0  0  0  0  0  0  0  0
   -6.4964    0.7492    0.0000 C   0  0  0  0  0  0  0  0  0  0  0  0
   -1.3000    0.7500    0.0000 C   0  0  0  0  0  0  0  0  0  0  0  0
    0.0000   -1.5000    0.0000 C   0  0  0  0  0  0  0  0  0  0  0  0
    0.0000    1.5000    0.0000 C   0  0  0  0  0  0  0  0  0  0  0  0
    1.3000   -0.7500    0.0000 C   0  0  0  0  0  0  0  0  0  0  0  0
   -5.1970   -1.5006    0.0000 C   0  0  0  0  0  0  0  0  0  0  0  0
   -6.4962   -0.7508    0.0000 C   0  0  0  0  0  0  0  0  0  0  0  0
   -1.3000   -0.7500    0.0000 C   0  0  0  0  0  0  0  0  0  0  0  0
    1.3000    0.7500    0.0000 C   0  0  0  0  0  0  0  0  0  0  0  0
   -2.5989   -1.5002    0.0000 C   0  0  0  0  0  0  0  0  0  0  0  0
    2.5989    1.5002    0.0000 I   0  0  0  0  0  0  0  0  0  0  0  0
   -2.5987   -3.0002    0.0000 O   0  0  0  0  0  0  0  0  0  0  0  0
   -3.8981   -0.7504    0.0000 O   0  0  0  0  0  0  0  0  0  0  0  0
  5  3  2  0
  6  4  1  0
  8  1  1  0
  8  2  1  0
  8  7  1  0
  9  3  1  0
  9  4  2  0
 10  5  1  0
 10  6  2  0
 11  9  1  0
 12 10  1  0
 13 11  2  0
 14  7  1  0
 14 11  1  0
M  END
>  <NAME>  (5910) 
PARA IODO ISOBUTYLBENZOATE

>  <SYNONYMS>  (5910) 


>  <SPECTRUM TYPE>  (5910) 
MS1

>  <INSTRUMENT TYPE>  (5910) 
EI-B

>  <INSTRUMENT>  (5910) 
HITACHI RMU-7M

>  <ION MODE>  (5910) 
P

>  <INCHIKEY>  (5910) 
RIZYPRZSPFNPBR-UHFFFAOYSA-N

>  <FORMULA>  (5910) 
C11H13IO2

>  <EXACT MASS>  (5910) 
303.996027656

>  <MW>  (5910) 
304

>  <ID>  (5910) 
JP000195

>  <CONTRIBUTOR>  (5910) 
University of Tokyo Team, {Faculty of Engineering, University of Tokyo

>  <COMMENT>  (5910) 
SMILES=CC(C)COC(=O)c(c1)ccc(I)c1
InChI=InChI=1S/C11H13IO2/c1-8(2)7-14-11(13)9-3-5-10(12)6-4-9/h3-6,8H,7H2,1-2H3
computed SMILES=O=C(OCC(C)C)C1=CC=C(I)C=C1
accession=JP000195
date=2016.01.19 (Created 2008.10.21, modified 2011.05.06)
author=TAJIMA S, GUNMA COLLEGE OF TECHNOLOGY
license=CC BY-NC-SA
exact mass=303.99602
ionization energy=70 eV
ion type=[M]+*
computed spectral entropy=2.5353122476812997
computed normalized entropy=0.7608513342862007
SPLASH=splash10-000t-5090000000-318e7e18cdc615c0197d
submitter=submitter = University of Tokyo Team (Faculty of Engineering, University of Tokyo)
MoNA Rating=3.75

>  <NUM PEAKS>  (5910) 
28

>  <MASS SPECTRAL PEAKS>  (5910) 
27 3.47
29 10.2
39 4.42
41 15.24
43 3.4
50 18.57
51 2.38
55 3.4
56 32.93
57 5.44
65 4.08
73 1.9
74 4.63
75 6.53
76 42.86
77 4.08
78 3.06
104 11.56
105 2.24
121 4.48
203 21.09
204 1.36
231 99.99
232 8.1
248 99.46
249 22.45
250 1.5
304 3.33

>  <PREDICTED SPECTRUM>  (5910) 
14 0
15 13
18 9
25 7
26 62
27 198
28 99
29 334
30 21
31 62
36 27
37 47
38 75
39 187
40 96
41 352
42 140
43 160
44 76
45 47
49 50
50 345
51 198
52 51
53 95
55 185
56 419
57 243
64 50
65 130
66 6
67 2
68 28
69 41
73 209
74 240
75 259
76 570
77 201
78 61
79 31
85 21
91 4
92 24
93 32
103 73
104 274
105 130
106 34
119 40
120 13
121 134
122 66
123 17
203 448
204 102
231 820
232 258
247 9
248 999
249 458
250 86
304 215
305 56

$$$$

     RDKit          2D

 14 14  0  0  0  0  0  0  0  0999 V2000
   -7.7951   -1.5010    0.0000 C   0  0  0  0  0  0  0  0  0  0  0  0
   -6.4964    0.7492    0.0000 C   0  0  0  0  0  0  0  0  0  0  0  0
   -1.3000    0.7500    0.0000 C   0  0  0  0  0  0  0  0  0  0  0  0
    0.0000   -1.5000    0.0000 C   0  0  0  0  0  0  0  0  0  0  0  0
    0.0000    1.5000    0.0000 C   0  0  0  0  0  0  0  0  0  0  0  0
    1.3000   -0.7500    0.0000 C   0  0  0  0  0  0  0  0  0  0  0  0
   -5.1970   -1.5006    0.0000 C   0  0  0  0  0  0  0  0  0  0  0  0
   -6.4962   -0.7508    0.0000 C   0  0  0  0  0  0  0  0  0  0  0  0
   -1.3000   -0.7500    0.0000 C   0  0  0  0  0  0  0  0  0  0  0  0
    1.3000    0.7500    0.0000 C   0  0  0  0  0  0  0  0  0  0  0  0
   -2.5989   -1.5002    0.0000 C   0  0  0  0  0  0  0  0  0  0  0  0
    2.5989    1.5002    0.0000 Br  0  0  0  0  0  0  0  0  0  0  0  0
   -2.5987   -3.0002    0.0000 O   0  0  0  0  0  0  0  0  0  0  0  0
   -3.8981   -0.7504    0.0000 O   0  0  0  0  0  0  0  0  0  0  0  0
  5  3  2  0
  6  4  1  0
  8  1  1  0
  8  2  1  0
  8  7  1  0
  9  3  1  0
  9  4  2  0
 10  5  1  0
 10  6  2  0
 11  9  1  0
 12 10  1  0
 13 11  2  0
 14  7  1  0
 14 11  1  0
M  END
>  <NAME>  (5911) 
PARA BROMO ISOBUTYLBENZOATE

>  <SYNONYMS>  (5911) 


>  <SPECTRUM TYPE>  (5911) 
MS1

>  <INSTRUMENT TYPE>  (5911) 
EI-B

>  <INSTRUMENT>  (5911) 
HITACHI RMU-7M

>  <ION MODE>  (5911) 
P

>  <INCHIKEY>  (5911) 
NQPBBLSKHPOXEU-UHFFFAOYSA-N

>  <FORMULA>  (5911) 
C11H13BrO2

>  <EXACT MASS>  (5911) 
256.009891756

>  <MW>  (5911) 
256

>  <ID>  (5911) 
JP000194

>  <CONTRIBUTOR>  (5911) 
University of Tokyo Team, {Faculty of Engineering, University of Tokyo

>  <COMMENT>  (5911) 
SMILES=CC(C)COC(=O)c(c1)ccc(Br)c1
InChI=InChI=1S/C11H13BrO2/c1-8(2)7-14-11(13)9-3-5-10(12)6-4-9/h3-6,8H,7H2,1-2H3
computed SMILES=O=C(OCC(C)C)C1=CC=C(Br)C=C1
accession=JP000194
date=2016.01.19 (Created 2008.10.21, modified 2011.05.06)
author=TAJIMA S, GUNMA COLLEGE OF TECHNOLOGY
license=CC BY-NC-SA
exact mass=256.00989
ionization energy=70 eV
ion type=[M]+*
computed spectral entropy=2.6829894129497376
computed normalized entropy=0.7888367277404431
SPLASH=splash10-0a4i-9730000000-1685e4bc8a730ea96fa4
submitter=submitter = University of Tokyo Team (Faculty of Engineering, University of Tokyo)
MoNA Rating=3.75

>  <NUM PEAKS>  (5911) 
30

>  <MASS SPECTRAL PEAKS>  (5911) 
27 3.7
29 8.33
39 3.62
41 14.49
43 3.16
44 1.16
50 9.95
51 1.77
55 3.47
56 99.99
57 7.63
65 1.16
73 2.31
74 2.93
75 15.34
76 15.81
77 3.01
104 1.93
155 15.88
156 1.23
157 15.81
183 62.07
184 4.78
185 60.14
186 4.63
200 11.57
201 21.43
202 13.03
203 20.89
204 1.54

>  <PREDICTED SPECTRUM>  (5911) 
17 2
18 4
25 37
26 110
27 274
28 161
29 335
30 13
31 23
32 9
35 26
36 150
37 139
38 201
39 315
40 141
41 436
42 210
43 217
44 130
45 111
48 0
49 97
50 461
51 272
52 118
53 146
54 104
55 312
56 706
57 281
58 20
60 18
61 65
62 60
63 112
64 50
65 125
66 51
67 15
69 88
73 242
74 315
75 476
76 561
77 271
78 106
79 122
80 61
81 13
82 42
91 80
92 80
93 88
102 4
103 65
104 302
105 190
106 102
107 59
109 26
119 71
120 8
121 95
122 119
129 6
131 100
133 33
135 60
137 5
154 65
155 592
156 188
157 532
158 179
172 46
183 999
184 254
185 985
186 318
187 36
199 51
200 664
201 545
202 679
203 524
204 123
213 93
256 124
257 19
258 123
259 4

$$$$

     RDKit          2D

 14 14  0  0  0  0  0  0  0  0999 V2000
    6.4725    3.7703    0.0000 C   0  0  0  0  0  0  0  0  0  0  0  0
    5.1848    1.5138    0.0000 C   0  0  0  0  0  0  0  0  0  0  0  0
   -1.3084    3.7212    0.0000 C   0  0  0  0  0  0  0  0  0  0  0  0
   -0.0134    1.4782    0.0000 C   0  0  0  0  0  0  0  0  0  0  0  0
   -2.6074    2.9712    0.0000 C   0  0  0  0  0  0  0  0  0  0  0  0
   -1.3124    0.7282    0.0000 C   0  0  0  0  0  0  0  0  0  0  0  0
    3.8745    3.7573    0.0000 C   0  0  0  0  0  0  0  0  0  0  0  0
    5.1772    3.0138    0.0000 C   0  0  0  0  0  0  0  0  0  0  0  0
   -0.0188    2.9877    0.0000 C   0  0  0  0  0  0  0  0  0  0  0  0
   -2.6256    1.4827    0.0000 C   0  0  0  0  0  0  0  0  0  0  0  0
    1.2764    3.7442    0.0000 C   0  0  0  0  0  0  0  0  0  0  0  0
   -3.9284    0.7393    0.0000 Cl  0  0  0  0  0  0  0  0  0  0  0  0
    1.2689    5.2442    0.0000 O   0  0  0  0  0  0  0  0  0  0  0  0
    2.5792    3.0007    0.0000 O   0  0  0  0  0  0  0  0  0  0  0  0
  5  3  2  0
  6  4  1  0
  8  1  1  0
  8  2  1  0
  8  7  1  0
  9  3  1  0
  9  4  2  0
 10  5  1  0
 10  6  2  0
 11  9  1  0
 12 10  1  0
 13 11  2  0
 14  7  1  0
 14 11  1  0
M  END
>  <NAME>  (5912) 
PARA CHLORO ISOBUTYLBENZOATE

>  <SYNONYMS>  (5912) 


>  <SPECTRUM TYPE>  (5912) 
MS1

>  <INSTRUMENT TYPE>  (5912) 
EI-B

>  <INSTRUMENT>  (5912) 
HITACHI RMU-7M

>  <ION MODE>  (5912) 
P

>  <INCHIKEY>  (5912) 
BWLDEQAGSZRTIV-UHFFFAOYSA-N

>  <FORMULA>  (5912) 
C11H13ClO2

>  <EXACT MASS>  (5912) 
212.060407336

>  <MW>  (5912) 
212

>  <ID>  (5912) 
JP000193

>  <CONTRIBUTOR>  (5912) 
University of Tokyo Team, {Faculty of Engineering, University of Tokyo

>  <COMMENT>  (5912) 
SMILES=CC(C)COC(=O)c(c1)ccc(Cl)c1
InChI=InChI=1S/C11H13ClO2/c1-8(2)7-14-11(13)9-3-5-10(12)6-4-9/h3-6,8H,7H2,1-2H3
computed SMILES=O=C(OCC(C)C)C1=CC=C(Cl)C=C1
accession=JP000193
date=2016.01.19 (Created 2008.10.21, modified 2011.05.06)
author=TAJIMA S, GUNMA COLLEGE OF TECHNOLOGY
license=CC BY-NC-SA
exact mass=212.06041
ionization energy=70 eV
ion type=[M]+*
computed spectral entropy=2.5683677826907774
computed normalized entropy=0.7883031557592978
SPLASH=splash10-052r-6900000000-64fa16be2c798b706b53
submitter=submitter = University of Tokyo Team (Faculty of Engineering, University of Tokyo)
MoNA Rating=3.75

>  <NUM PEAKS>  (5912) 
26

>  <MASS SPECTRAL PEAKS>  (5912) 
27 5.07
29 8.21
39 5.15
41 14.63
43 3.21
50 7.84
51 3.58
55 2.39
56 67.91
57 5
73 2.09
74 3.13
75 21.79
76 5.75
77 2.24
111 32.39
112 2.24
113 11.49
139 99.99
140 7.61
141 32.76
142 2.24
156 7.46
157 25.37
158 3.96
159 8.21

>  <PREDICTED SPECTRUM>  (5912) 
25 0
26 57
27 127
28 64
29 200
31 33
35 7
36 82
37 53
38 83
39 204
40 65
41 280
42 107
43 209
44 62
49 17
50 219
51 169
52 48
53 59
54 49
55 174
56 558
57 267
61 52
63 32
65 76
66 5
69 9
73 138
74 148
75 372
76 212
77 162
78 42
79 52
82 8
83 13
84 22
85 160
87 20
93 7
96 13
104 143
105 74
110 69
111 528
112 191
113 297
114 77
139 999
140 229
141 559
142 162
155 6
156 458
157 463
158 273
159 231
160 28
212 18

$$$$

     RDKit          2D

 14 14  0  0  0  0  0  0  0  0999 V2000
    7.7951    1.5010    0.0000 C   0  0  0  0  0  0  0  0  0  0  0  0
    6.4964   -0.7492    0.0000 C   0  0  0  0  0  0  0  0  0  0  0  0
    1.3000   -0.7500    0.0000 C   0  0  0  0  0  0  0  0  0  0  0  0
    0.0000    1.5000    0.0000 C   0  0  0  0  0  0  0  0  0  0  0  0
   -0.0000   -1.5000    0.0000 C   0  0  0  0  0  0  0  0  0  0  0  0
   -1.3000    0.7500    0.0000 C   0  0  0  0  0  0  0  0  0  0  0  0
    5.1970    1.5006    0.0000 C   0  0  0  0  0  0  0  0  0  0  0  0
    6.4962    0.7508    0.0000 C   0  0  0  0  0  0  0  0  0  0  0  0
    1.3000    0.7500    0.0000 C   0  0  0  0  0  0  0  0  0  0  0  0
   -1.3000   -0.7500    0.0000 C   0  0  0  0  0  0  0  0  0  0  0  0
    2.5989    1.5002    0.0000 C   0  0  0  0  0  0  0  0  0  0  0  0
   -2.5989   -1.5002    0.0000 F   0  0  0  0  0  0  0  0  0  0  0  0
    2.5987    3.0002    0.0000 O   0  0  0  0  0  0  0  0  0  0  0  0
    3.8981    0.7504    0.0000 O   0  0  0  0  0  0  0  0  0  0  0  0
  5  3  2  0
  6  4  1  0
  8  1  1  0
  8  2  1  0
  8  7  1  0
  9  3  1  0
  9  4  2  0
 10  5  1  0
 10  6  2  0
 11  9  1  0
 12 10  1  0
 13 11  2  0
 14  7  1  0
 14 11  1  0
M  END
>  <NAME>  (5913) 
PARA FLUORO ISOBUTYLBENZOATE

>  <SYNONYMS>  (5913) 


>  <SPECTRUM TYPE>  (5913) 
MS1

>  <INSTRUMENT TYPE>  (5913) 
EI-B

>  <INSTRUMENT>  (5913) 
HITACHI RMU-7M

>  <ION MODE>  (5913) 
P

>  <INCHIKEY>  (5913) 
IGYANOACLVBRGX-UHFFFAOYSA-N

>  <FORMULA>  (5913) 
C11H13FO2

>  <EXACT MASS>  (5913) 
196.089957876

>  <MW>  (5913) 
196

>  <ID>  (5913) 
JP000192

>  <CONTRIBUTOR>  (5913) 
University of Tokyo Team, {Faculty of Engineering, University of Tokyo

>  <COMMENT>  (5913) 
SMILES=CC(C)COC(=O)c(c1)ccc(F)c1
InChI=InChI=1S/C11H13FO2/c1-8(2)7-14-11(13)9-3-5-10(12)6-4-9/h3-6,8H,7H2,1-2H3
computed SMILES=O=C(OCC(C)C)C1=CC=C(F)C=C1
accession=JP000192
date=2016.01.19 (Created 2008.10.21, modified 2011.05.06)
author=TAJIMA S, GUNMA COLLEGE OF TECHNOLOGY
license=CC BY-NC-SA
exact mass=196.08996
ionization energy=70 eV
ion type=[M]+*
computed spectral entropy=2.2819911102999346
computed normalized entropy=0.7180467141584236
SPLASH=splash10-00di-9700000000-c42cefa0da4a3d5d8ea2
submitter=submitter = University of Tokyo Team (Faculty of Engineering, University of Tokyo)
MoNA Rating=3.75

>  <NUM PEAKS>  (5913) 
24

>  <MASS SPECTRAL PEAKS>  (5913) 
27 6.01
29 7.13
39 7.04
41 14.6
43 2.75
50 3.69
51 2.15
55 2.06
56 37.8
57 3.35
68 1.12
69 2.58
74 1.72
75 19.76
76 1.37
94 2.66
95 43.64
96 2.58
97 2.15
123 99.99
124 6.96
140 1.2
141 20.62
142 1.29

>  <PREDICTED SPECTRUM>  (5913) 
25 16
26 100
27 269
28 123
29 304
31 92
36 45
37 85
38 115
39 265
40 133
41 332
42 121
43 157
44 123
45 39
49 45
50 218
51 175
52 69
53 108
54 73
55 151
56 598
57 286
58 10
61 56
62 73
63 92
64 37
65 39
66 0
67 17
68 176
69 172
73 154
74 192
75 365
76 143
77 23
79 9
92 65
93 101
94 192
95 652
96 208
97 150
122 35
123 999
124 245
125 40
140 276
141 482
142 190
143 34
153 26
154 11
196 7

$$$$

     RDKit          2D

 14 14  0  0  0  0  0  0  0  0999 V2000
    4.2225   -2.4379    0.0000 C   0  0  0  0  0  0  0  0  0  0  0  0
    2.9235   -4.6879    0.0000 C   0  0  0  0  0  0  0  0  0  0  0  0
   -3.5712   -5.4387    0.0000 C   0  0  0  0  0  0  0  0  0  0  0  0
   -4.8708   -4.6879    0.0000 C   0  0  0  0  0  0  0  0  0  0  0  0
   -2.2722   -4.6887    0.0000 C   0  0  0  0  0  0  0  0  0  0  0  0
   -4.8712   -3.1870    0.0000 C   0  0  0  0  0  0  0  0  0  0  0  0
    1.6244   -2.4379    0.0000 C   0  0  0  0  0  0  0  0  0  0  0  0
    2.9235   -3.1879    0.0000 C   0  0  0  0  0  0  0  0  0  0  0  0
   -2.2727   -3.1879    0.0000 C   0  0  0  0  0  0  0  0  0  0  0  0
   -3.5722   -2.4370    0.0000 C   0  0  0  0  0  0  0  0  0  0  0  0
   -0.9736   -2.4379    0.0000 C   0  0  0  0  0  0  0  0  0  0  0  0
   -3.5720   -0.9370    0.0000 I   0  0  0  0  0  0  0  0  0  0  0  0
   -0.9736   -0.9379    0.0000 O   0  0  0  0  0  0  0  0  0  0  0  0
    0.3254   -3.1879    0.0000 O   0  0  0  0  0  0  0  0  0  0  0  0
  4  3  2  0
  5  3  1  0
  6  4  1  0
  8  1  1  0
  8  2  1  0
  8  7  1  0
  9  5  2  0
 10  6  2  0
 10  9  1  0
 11  9  1  0
 12 10  1  0
 13 11  2  0
 14  7  1  0
 14 11  1  0
M  END
>  <NAME>  (5914) 
ORTHO IODO ISOBUTYLBENZOATE

>  <SYNONYMS>  (5914) 


>  <SPECTRUM TYPE>  (5914) 
MS1

>  <INSTRUMENT TYPE>  (5914) 
EI-B

>  <INSTRUMENT>  (5914) 
HITACHI RMU-7M

>  <ION MODE>  (5914) 
P

>  <INCHIKEY>  (5914) 
IZXVGIVNILXQPP-UHFFFAOYSA-N

>  <FORMULA>  (5914) 
C11H13IO2

>  <EXACT MASS>  (5914) 
303.996027656

>  <MW>  (5914) 
304

>  <ID>  (5914) 
JP000191

>  <CONTRIBUTOR>  (5914) 
University of Tokyo Team, {Faculty of Engineering, University of Tokyo

>  <COMMENT>  (5914) 
SMILES=CC(C)COC(=O)c(c1)c(I)ccc1
InChI=InChI=1S/C11H13IO2/c1-8(2)7-14-11(13)9-5-3-4-6-10(9)12/h3-6,8H,7H2,1-2H3
computed SMILES=O=C(OCC(C)C)C=1C=CC=CC1I
accession=JP000191
date=2016.01.19 (Created 2008.10.21, modified 2011.05.06)
author=TAJIMA S, GUNMA COLLEGE OF TECHNOLOGY
license=CC BY-NC-SA
exact mass=303.99602
ionization energy=70 eV
ion type=[M]+*
computed spectral entropy=2.6750436689543093
computed normalized entropy=0.7865005669406411
SPLASH=splash10-0f9t-8090000000-ebe750b2a3fa8be8433a
submitter=submitter = University of Tokyo Team (Faculty of Engineering, University of Tokyo)
MoNA Rating=3.75

>  <NUM PEAKS>  (5914) 
30

>  <MASS SPECTRAL PEAKS>  (5914) 
27 7.62
29 21.78
39 8.97
41 26.16
43 5.26
50 23.6
51 4.18
55 4.05
56 18.54
57 8.97
65 4.05
73 1.55
74 4.59
75 7.01
76 54.62
77 8.97
78 1.35
93 3.64
104 10.79
105 4.18
121 4.72
203 22.86
204 1.48
231 93.93
232 7.35
248 99.99
249 11.67
250 0.81
304 6.95
305 0.81

>  <PREDICTED SPECTRUM>  (5914) 
14 7
15 21
25 6
26 64
27 172
28 85
29 296
30 14
31 39
36 23
37 77
38 116
39 186
40 100
41 358
42 146
43 182
44 56
45 31
49 67
50 355
51 185
52 54
53 77
55 118
56 289
57 260
61 9
63 46
64 99
65 152
66 16
67 2
68 12
73 209
74 218
75 264
76 597
77 271
78 74
79 36
85 1
89 46
91 29
92 25
93 77
103 51
104 310
105 203
106 39
117 8
119 30
120 29
121 147
122 74
123 23
128 4
135 19
176 18
188 7
203 434
204 72
231 897
232 276
247 28
248 999
249 376
250 110
304 233
305 96

$$$$

     RDKit          2D

 14 14  0  0  0  0  0  0  0  0999 V2000
    4.2225   -2.4379    0.0000 C   0  0  0  0  0  0  0  0  0  0  0  0
    2.9235   -4.6879    0.0000 C   0  0  0  0  0  0  0  0  0  0  0  0
   -3.5712   -5.4387    0.0000 C   0  0  0  0  0  0  0  0  0  0  0  0
   -4.8708   -4.6879    0.0000 C   0  0  0  0  0  0  0  0  0  0  0  0
   -2.2722   -4.6887    0.0000 C   0  0  0  0  0  0  0  0  0  0  0  0
   -4.8712   -3.1870    0.0000 C   0  0  0  0  0  0  0  0  0  0  0  0
    1.6244   -2.4379    0.0000 C   0  0  0  0  0  0  0  0  0  0  0  0
    2.9235   -3.1879    0.0000 C   0  0  0  0  0  0  0  0  0  0  0  0
   -2.2727   -3.1879    0.0000 C   0  0  0  0  0  0  0  0  0  0  0  0
   -3.5722   -2.4370    0.0000 C   0  0  0  0  0  0  0  0  0  0  0  0
   -0.9736   -2.4379    0.0000 C   0  0  0  0  0  0  0  0  0  0  0  0
   -3.5720   -0.9370    0.0000 Br  0  0  0  0  0  0  0  0  0  0  0  0
   -0.9736   -0.9379    0.0000 O   0  0  0  0  0  0  0  0  0  0  0  0
    0.3254   -3.1879    0.0000 O   0  0  0  0  0  0  0  0  0  0  0  0
  4  3  2  0
  5  3  1  0
  6  4  1  0
  8  1  1  0
  8  2  1  0
  8  7  1  0
  9  5  2  0
 10  6  2  0
 10  9  1  0
 11  9  1  0
 12 10  1  0
 13 11  2  0
 14  7  1  0
 14 11  1  0
M  END
>  <NAME>  (5915) 
ORTHO BROMO ISOBUTYLBENZOATE

>  <SYNONYMS>  (5915) 


>  <SPECTRUM TYPE>  (5915) 
MS1

>  <INSTRUMENT TYPE>  (5915) 
EI-B

>  <INSTRUMENT>  (5915) 
HITACHI RMU-7M

>  <ION MODE>  (5915) 
P

>  <INCHIKEY>  (5915) 
SCIFVEGBPQFBFK-UHFFFAOYSA-N

>  <FORMULA>  (5915) 
C11H13BrO2

>  <EXACT MASS>  (5915) 
256.009891756

>  <MW>  (5915) 
256

>  <ID>  (5915) 
JP000190

>  <CONTRIBUTOR>  (5915) 
University of Tokyo Team, {Faculty of Engineering, University of Tokyo

>  <COMMENT>  (5915) 
SMILES=CC(C)COC(=O)c(c1)c(Br)ccc1
InChI=InChI=1S/C11H13BrO2/c1-8(2)7-14-11(13)9-5-3-4-6-10(9)12/h3-6,8H,7H2,1-2H3
computed SMILES=O=C(OCC(C)C)C=1C=CC=CC1Br
accession=JP000190
date=2016.01.19 (Created 2008.10.21, modified 2011.05.06)
author=TAJIMA S, GUNMA COLLEGE OF TECHNOLOGY
license=CC BY-NC-SA
exact mass=256.00989
ionization energy=70 eV
ion type=[M]+*
computed spectral entropy=2.739947162606291
computed normalized entropy=0.797890906240895
SPLASH=splash10-0zgr-5940000000-5e20f3af199150098b9d
submitter=submitter = University of Tokyo Team (Faculty of Engineering, University of Tokyo)
MoNA Rating=3.75

>  <NUM PEAKS>  (5915) 
31

>  <MASS SPECTRAL PEAKS>  (5915) 
27 3.88
29 8.9
39 4.9
41 15.32
43 3.24
50 9.54
51 2.29
55 3.12
56 49.9
57 5.72
73 2.42
74 2.67
75 17.04
76 20.03
77 4.64
104 3.81
105 1.34
155 23.08
156 1.97
157 23.59
158 1.53
159 1.21
183 99.99
184 7.82
185 97.27
186 7.57
200 17.99
201 50.92
202 21.55
203 49.71
204 3.56

>  <PREDICTED SPECTRUM>  (5915) 
25 20
26 90
27 240
28 145
29 271
31 9
35 8
36 120
37 100
38 153
39 238
40 108
41 347
42 154
43 162
44 102
45 85
46 9
48 2
49 84
50 372
51 216
52 102
53 122
54 94
55 228
56 527
57 241
60 7
61 39
62 52
63 132
64 42
65 115
66 37
67 5
68 10
73 162
74 252
75 428
76 490
77 286
78 138
79 84
80 36
91 100
92 101
93 80
103 71
104 256
105 184
106 89
107 37
119 16
121 96
122 102
129 43
130 2
131 128
133 54
135 35
137 15
139 3
140 11
154 53
155 490
156 146
157 498
158 158
183 999
184 232
185 912
186 277
187 73
199 33
200 595
201 708
202 634
203 648
204 165
213 19
256 143
257 37
258 102
259 4

$$$$

     RDKit          2D

 14 14  0  0  0  0  0  0  0  0999 V2000
   -5.8307    2.9676    0.0000 C   0  0  0  0  0  0  0  0  0  0  0  0
   -4.5129    0.7285    0.0000 C   0  0  0  0  0  0  0  0  0  0  0  0
    1.9946    0.0401    0.0000 C   0  0  0  0  0  0  0  0  0  0  0  0
    3.2934    0.7951    0.0000 C   0  0  0  0  0  0  0  0  0  0  0  0
    0.6826    0.7673    0.0000 C   0  0  0  0  0  0  0  0  0  0  0  0
    3.2726    2.3044    0.0000 C   0  0  0  0  0  0  0  0  0  0  0  0
   -3.2327    2.9893    0.0000 C   0  0  0  0  0  0  0  0  0  0  0  0
   -4.5255    2.2284    0.0000 C   0  0  0  0  0  0  0  0  0  0  0  0
    0.6705    2.2718    0.0000 C   0  0  0  0  0  0  0  0  0  0  0  0
    1.9606    3.0316    0.0000 C   0  0  0  0  0  0  0  0  0  0  0  0
   -0.6347    3.0110    0.0000 C   0  0  0  0  0  0  0  0  0  0  0  0
    1.9411    4.5315    0.0000 Cl  0  0  0  0  0  0  0  0  0  0  0  0
   -0.6473    4.5109    0.0000 O   0  0  0  0  0  0  0  0  0  0  0  0
   -1.9275    2.2501    0.0000 O   0  0  0  0  0  0  0  0  0  0  0  0
  4  3  2  0
  5  3  1  0
  6  4  1  0
  8  1  1  0
  8  2  1  0
  8  7  1  0
  9  5  2  0
 10  6  2  0
 10  9  1  0
 11  9  1  0
 12 10  1  0
 13 11  2  0
 14  7  1  0
 14 11  1  0
M  END
>  <NAME>  (5916) 
ORTHO CHLORO ISOBUTYLBENZOATE

>  <SYNONYMS>  (5916) 


>  <SPECTRUM TYPE>  (5916) 
MS1

>  <INSTRUMENT TYPE>  (5916) 
EI-B

>  <INSTRUMENT>  (5916) 
HITACHI RMU-7M

>  <ION MODE>  (5916) 
P

>  <INCHIKEY>  (5916) 
BESGEXPDWNNBJA-UHFFFAOYSA-N

>  <FORMULA>  (5916) 
C11H13ClO2

>  <EXACT MASS>  (5916) 
212.060407336

>  <MW>  (5916) 
212

>  <ID>  (5916) 
JP000189

>  <CONTRIBUTOR>  (5916) 
University of Tokyo Team, {Faculty of Engineering, University of Tokyo

>  <COMMENT>  (5916) 
SMILES=CC(C)COC(=O)c(c1)c(Cl)ccc1
InChI=InChI=1S/C11H13ClO2/c1-8(2)7-14-11(13)9-5-3-4-6-10(9)12/h3-6,8H,7H2,1-2H3
computed SMILES=O=C(OCC(C)C)C=1C=CC=CC1Cl
accession=JP000189
date=2016.01.19 (Created 2008.10.21, modified 2011.05.06)
author=TAJIMA S, GUNMA COLLEGE OF TECHNOLOGY
license=CC BY-NC-SA
exact mass=212.06041
ionization energy=70 eV
ion type=[M]+*
computed spectral entropy=2.5981611391021597
computed normalized entropy=0.7797123889510464
SPLASH=splash10-052r-5900000000-88171e2d2e315d7e251a
submitter=submitter = University of Tokyo Team (Faculty of Engineering, University of Tokyo)
MoNA Rating=3.75

>  <NUM PEAKS>  (5916) 
28

>  <MASS SPECTRAL PEAKS>  (5916) 
27 3.92
29 7.09
39 4.54
41 13.23
43 3.31
44 1.8
50 6.62
51 3.21
55 3.31
56 61.11
57 5.39
73 1.98
74 2.84
75 18.71
76 4.96
77 2.36
111 29.3
112 2.27
113 11.11
139 99.99
140 7.47
141 32.75
142 2.93
155 1.32
156 7.51
157 25.99
158 4.21
159 8.32

>  <PREDICTED SPECTRUM>  (5916) 
26 38
27 123
28 56
29 188
35 17
36 76
37 47
38 76
39 200
40 62
41 286
42 128
43 197
44 67
45 1
49 41
50 226
51 150
52 64
53 66
54 52
55 162
56 478
57 226
58 8
61 58
62 6
63 54
65 74
69 26
70 48
73 164
74 186
75 374
76 235
77 164
78 46
79 43
82 15
83 26
84 83
85 145
87 13
93 20
104 108
105 101
110 45
111 483
112 191
113 283
114 73
139 999
140 242
141 576
142 125
156 447
157 626
158 306
159 345
160 53
212 24
214 15

$$$$

     RDKit          2D

 14 14  0  0  0  0  0  0  0  0999 V2000
    3.8909    1.8828    0.0000 C   0  0  0  0  0  0  0  0  0  0  0  0
    2.5881    4.1306    0.0000 C   0  0  0  0  0  0  0  0  0  0  0  0
   -3.9091    4.8641    0.0000 C   0  0  0  0  0  0  0  0  0  0  0  0
   -5.2036    4.1219    0.0000 C   0  0  0  0  0  0  0  0  0  0  0  0
   -2.6100    4.1141    0.0000 C   0  0  0  0  0  0  0  0  0  0  0  0
   -5.2041    2.6210    0.0000 C   0  0  0  0  0  0  0  0  0  0  0  0
    1.2929    1.8784    0.0000 C   0  0  0  0  0  0  0  0  0  0  0  0
    2.5906    2.6306    0.0000 C   0  0  0  0  0  0  0  0  0  0  0  0
   -2.6055    2.6219    0.0000 C   0  0  0  0  0  0  0  0  0  0  0  0
   -3.9050    1.8710    0.0000 C   0  0  0  0  0  0  0  0  0  0  0  0
   -1.3052    1.8741    0.0000 C   0  0  0  0  0  0  0  0  0  0  0  0
   -3.9048    0.3710    0.0000 F   0  0  0  0  0  0  0  0  0  0  0  0
   -1.3027    0.3741    0.0000 O   0  0  0  0  0  0  0  0  0  0  0  0
   -0.0074    2.6262    0.0000 O   0  0  0  0  0  0  0  0  0  0  0  0
  4  3  2  0
  5  3  1  0
  6  4  1  0
  8  1  1  0
  8  2  1  0
  8  7  1  0
  9  5  2  0
 10  6  2  0
 10  9  1  0
 11  9  1  0
 12 10  1  0
 13 11  2  0
 14  7  1  0
 14 11  1  0
M  END
>  <NAME>  (5917) 
ORTHO FLUORO ISOBUTYLBENZOATE

>  <SYNONYMS>  (5917) 


>  <SPECTRUM TYPE>  (5917) 
MS1

>  <INSTRUMENT TYPE>  (5917) 
EI-B

>  <INSTRUMENT>  (5917) 
HITACHI RMU-7M

>  <ION MODE>  (5917) 
P

>  <INCHIKEY>  (5917) 
KQJFKNAUYPTSIY-UHFFFAOYSA-N

>  <FORMULA>  (5917) 
C11H13FO2

>  <EXACT MASS>  (5917) 
196.089957876

>  <MW>  (5917) 
196

>  <ID>  (5917) 
JP000188

>  <CONTRIBUTOR>  (5917) 
University of Tokyo Team, {Faculty of Engineering, University of Tokyo

>  <COMMENT>  (5917) 
SMILES=CC(C)COC(=O)c(c1)c(F)ccc1
InChI=InChI=1S/C11H13FO2/c1-8(2)7-14-11(13)9-5-3-4-6-10(9)12/h3-6,8H,7H2,1-2H3
computed SMILES=O=C(OCC(C)C)C=1C=CC=CC1F
accession=JP000188
date=2016.01.19 (Created 2008.10.21, modified 2011.05.06)
author=TAJIMA S, GUNMA COLLEGE OF TECHNOLOGY
license=CC BY-NC-SA
exact mass=196.08996
ionization energy=70 eV
ion type=[M]+*
computed spectral entropy=2.309483511405139
computed normalized entropy=0.7174813932127073
SPLASH=splash10-00di-8900000000-afc765ebee793480cc37
submitter=submitter = University of Tokyo Team (Faculty of Engineering, University of Tokyo)
MoNA Rating=3.75

>  <NUM PEAKS>  (5917) 
25

>  <MASS SPECTRAL PEAKS>  (5917) 
27 5.44
29 7.4
39 6.42
41 14.8
43 2.85
50 2.76
51 1.96
55 2.05
56 31.19
57 3.57
68 1.07
69 2.67
73 1.69
74 1.52
75 17.47
76 1.78
94 2.05
95 30.04
96 2.5
97 1.6
123 99.99
124 7.31
140 1.25
141 30.57
142 1.96

>  <PREDICTED SPECTRUM>  (5917) 
25 16
26 86
27 264
28 110
29 317
31 81
33 2
36 59
37 77
38 101
39 249
40 113
41 342
42 174
43 176
44 140
45 103
49 60
50 192
51 138
52 47
53 93
54 56
55 187
56 531
57 258
58 54
61 41
62 60
63 80
64 15
65 26
67 40
68 177
69 231
70 73
73 145
74 170
75 365
76 143
77 44
78 10
79 12
83 9
92 44
93 79
94 154
95 572
96 175
97 179
112 10
122 0
123 999
124 270
125 36
140 305
141 533
142 227
143 45
153 8

$$$$

     RDKit          2D

 15 15  0  0  0  0  0  0  0  0999 V2000
   10.0596    0.9157    0.0000 C   0  0  0  0  0  0  0  0  0  0  0  0
    8.7649    0.1582    0.0000 C   0  0  0  0  0  0  0  0  0  0  0  0
    7.4616    0.9007    0.0000 C   0  0  0  0  0  0  0  0  0  0  0  0
   -0.3004   -2.1193    0.0000 C   0  0  0  0  0  0  0  0  0  0  0  0
   -1.5833   -1.3916    0.0000 C   0  0  0  0  0  0  0  0  0  0  0  0
    6.1669    0.1432    0.0000 C   0  0  0  0  0  0  0  0  0  0  0  0
    0.9767   -1.3669    0.0000 C   0  0  0  0  0  0  0  0  0  0  0  0
   -1.6195    0.1080    0.0000 C   0  0  0  0  0  0  0  0  0  0  0  0
    4.8636    0.8857    0.0000 C   0  0  0  0  0  0  0  0  0  0  0  0
    0.9708    0.1132    0.0000 C   0  0  0  0  0  0  0  0  0  0  0  0
   -0.3121    0.8409    0.0000 C   0  0  0  0  0  0  0  0  0  0  0  0
    2.2655    0.8707    0.0000 C   0  0  0  0  0  0  0  0  0  0  0  0
   -0.3083    2.3409    0.0000 N   0  0  0  0  0  0  0  0  0  0  0  0
    2.2569    2.3706    0.0000 O   0  0  0  0  0  0  0  0  0  0  0  0
    3.5689    0.1282    0.0000 O   0  0  0  0  0  0  0  0  0  0  0  0
  2  1  1  0
  3  2  1  0
  5  4  2  0
  6  3  1  0
  7  4  1  0
  8  5  1  0
  9  6  1  0
 10  7  2  0
 11  8  2  0
 11 10  1  0
 12 10  1  0
 13 11  1  0
 14 12  2  0
 15  9  1  0
 15 12  1  0
M  END
>  <NAME>  (5918) 
ANTHRANILIC ACID AMYL ESTER

>  <SYNONYMS>  (5918) 
ORTHO AMINO AMYLBENZOATE

>  <SPECTRUM TYPE>  (5918) 
MS1

>  <INSTRUMENT TYPE>  (5918) 
EI-B

>  <INSTRUMENT>  (5918) 
HITACHI RMU-7M

>  <ION MODE>  (5918) 
P

>  <INCHIKEY>  (5918) 
JCKCYPSMCQDSHT-UHFFFAOYSA-N

>  <FORMULA>  (5918) 
C12H17NO2

>  <EXACT MASS>  (5918) 
207.125928784

>  <MW>  (5918) 
207

>  <ID>  (5918) 
JP000184

>  <CONTRIBUTOR>  (5918) 
University of Tokyo Team, {Faculty of Engineering, University of Tokyo

>  <COMMENT>  (5918) 
SMILES=CCCCCOC(=O)c(c1)c(N)ccc1
InChI=InChI=1S/C12H17NO2/c1-2-3-6-9-15-12(14)10-7-4-5-8-11(10)13/h4-5,7-8H,2-3,6,9,13H2,1H3
computed SMILES=O=C(OCCCCC)C=1C=CC=CC1N
accession=JP000184
date=2016.01.19 (Created 2008.10.21, modified 2011.05.06)
author=TAJIMA S, GUNMA COLLEGE OF TECHNOLOGY
license=CC BY-NC-SA
exact mass=207.12593
ionization energy=70 eV
ion type=[M]+*
computed spectral entropy=2.091046684877282
computed normalized entropy=0.6980085314488287
SPLASH=splash10-014i-3910000000-07b1f3c3665a4f2c6c9e
submitter=submitter = University of Tokyo Team (Faculty of Engineering, University of Tokyo)
MoNA Rating=3.75

>  <NUM PEAKS>  (5918) 
20

>  <MASS SPECTRAL PEAKS>  (5918) 
27 1.54
29 1.27
39 3.87
41 4.03
43 3.92
63 1.43
64 2.33
65 15.79
66 2.12
91 2.65
92 26.07
93 2.81
119 99.99
120 32.43
121 2.91
137 32.75
138 2.97
189 1.17
207 18.02
208 2.17

>  <PREDICTED SPECTRUM>  (5918) 
15 18
16 6
17 3
18 19
26 22
27 137
28 77
29 162
34 1
37 38
38 95
39 303
40 96
41 345
42 230
43 346
44 152
45 19
50 106
51 169
52 188
53 145
54 86
55 206
56 30
57 137
62 104
63 243
64 296
65 546
66 264
67 69
68 4
69 19
70 66
71 75
74 39
75 0
76 76
77 117
78 46
79 1
80 66
88 32
89 21
90 122
91 292
92 709
93 309
94 91
104 7
118 44
119 999
120 831
121 168
122 17
136 132
137 848
138 262
139 24
150 61
151 16
163 1
207 605
208 246
209 73

$$$$

     RDKit          2D

 14 14  0  0  0  0  0  0  0  0999 V2000
   -7.7951    1.5010    0.0000 C   0  0  0  0  0  0  0  0  0  0  0  0
   -6.4964   -0.7492    0.0000 C   0  0  0  0  0  0  0  0  0  0  0  0
   -1.3000   -0.7500    0.0000 C   0  0  0  0  0  0  0  0  0  0  0  0
    0.0000    1.5000    0.0000 C   0  0  0  0  0  0  0  0  0  0  0  0
    0.0000   -1.5000    0.0000 C   0  0  0  0  0  0  0  0  0  0  0  0
    1.3000    0.7500    0.0000 C   0  0  0  0  0  0  0  0  0  0  0  0
   -5.1970    1.5006    0.0000 C   0  0  0  0  0  0  0  0  0  0  0  0
   -6.4962    0.7508    0.0000 C   0  0  0  0  0  0  0  0  0  0  0  0
   -1.3000    0.7500    0.0000 C   0  0  0  0  0  0  0  0  0  0  0  0
    1.3000   -0.7500    0.0000 C   0  0  0  0  0  0  0  0  0  0  0  0
   -2.5989    1.5002    0.0000 C   0  0  0  0  0  0  0  0  0  0  0  0
    2.5989   -1.5002    0.0000 N   0  0  0  0  0  0  0  0  0  0  0  0
   -2.5987    3.0002    0.0000 O   0  0  0  0  0  0  0  0  0  0  0  0
   -3.8981    0.7504    0.0000 O   0  0  0  0  0  0  0  0  0  0  0  0
  5  3  2  0
  6  4  1  0
  8  1  1  0
  8  2  1  0
  8  7  1  0
  9  3  1  0
  9  4  2  0
 10  5  1  0
 10  6  2  0
 11  9  1  0
 12 10  1  0
 13 11  2  0
 14  7  1  0
 14 11  1  0
M  END
>  <NAME>  (5919) 
PARA AMINO ISOBUTYLBENZOATE

>  <SYNONYMS>  (5919) 


>  <SPECTRUM TYPE>  (5919) 
MS1

>  <INSTRUMENT TYPE>  (5919) 
EI-B

>  <INSTRUMENT>  (5919) 
HITACHI RMU-7M

>  <ION MODE>  (5919) 
P

>  <INCHIKEY>  (5919) 
PUYOAVGNCWPANW-UHFFFAOYSA-N

>  <FORMULA>  (5919) 
C11H15NO2

>  <EXACT MASS>  (5919) 
193.11027872

>  <MW>  (5919) 
193

>  <ID>  (5919) 
JP000182

>  <CONTRIBUTOR>  (5919) 
University of Tokyo Team, {Faculty of Engineering, University of Tokyo

>  <COMMENT>  (5919) 
SMILES=CC(C)COC(=O)c(c1)ccc(N)c1
InChI=InChI=1S/C11H15NO2/c1-8(2)7-14-11(13)9-3-5-10(12)6-4-9/h3-6,8H,7,12H2,1-2H3
computed SMILES=O=C(OCC(C)C)C1=CC=C(N)C=C1
accession=JP000182
date=2016.01.19 (Created 2008.10.21, modified 2011.05.06)
author=TAJIMA S, GUNMA COLLEGE OF TECHNOLOGY
license=CC BY-NC-SA
exact mass=193.11028
ionization energy=70 eV
ion type=[M]+*
computed spectral entropy=2.73721240812756
computed normalized entropy=0.8047790530727423
SPLASH=splash10-00rl-7900000000-e064b6bd286dbcd0b665
submitter=submitter = University of Tokyo Team (Faculty of Engineering, University of Tokyo)
MoNA Rating=3.75

>  <NUM PEAKS>  (5919) 
30

>  <MASS SPECTRAL PEAKS>  (5919) 
15 1.54
27 6.17
29 4.74
38 1.66
39 13.17
40 1.66
41 9.85
43 6.88
45 37.84
51 2.73
63 5.46
64 2.97
65 27.99
66 2.02
77 2.73
79 1.19
89 4.51
90 19.81
91 26.69
92 23.25
93 2.25
118 25.15
119 7.71
120 99.99
121 10.32
136 18.15
137 70.23
138 7
193 10.44
194 1.19

>  <PREDICTED SPECTRUM>  (5919) 
26 26
27 96
28 57
29 173
36 9
37 24
38 71
39 230
40 67
41 308
42 73
43 39
50 25
51 49
52 89
53 73
54 47
55 38
56 164
57 145
61 4
62 41
63 133
64 162
65 415
66 135
73 16
75 26
76 14
77 44
78 12
79 0
80 69
90 90
91 158
92 539
93 300
94 79
106 61
107 16
108 31
109 44
118 103
119 152
120 999
121 263
122 93
134 12
136 68
137 767
138 279
150 116
193 404
194 143
195 7

$$$$

     RDKit          2D

 13 13  0  0  0  0  0  0  0  0999 V2000
   -6.4962    0.7508    0.0000 C   0  0  0  0  0  0  0  0  0  0  0  0
   -5.1968    3.0006    0.0000 C   0  0  0  0  0  0  0  0  0  0  0  0
   -1.3000   -0.7500    0.0000 C   0  0  0  0  0  0  0  0  0  0  0  0
    0.0000    1.5000    0.0000 C   0  0  0  0  0  0  0  0  0  0  0  0
    0.0000   -1.5000    0.0000 C   0  0  0  0  0  0  0  0  0  0  0  0
    1.3000    0.7500    0.0000 C   0  0  0  0  0  0  0  0  0  0  0  0
   -5.1970    1.5006    0.0000 C   0  0  0  0  0  0  0  0  0  0  0  0
   -1.3000    0.7500    0.0000 C   0  0  0  0  0  0  0  0  0  0  0  0
    1.3000   -0.7500    0.0000 C   0  0  0  0  0  0  0  0  0  0  0  0
   -2.5989    1.5002    0.0000 C   0  0  0  0  0  0  0  0  0  0  0  0
    2.5989   -1.5002    0.0000 N   0  0  0  0  0  0  0  0  0  0  0  0
   -2.5987    3.0002    0.0000 O   0  0  0  0  0  0  0  0  0  0  0  0
   -3.8981    0.7504    0.0000 O   0  0  0  0  0  0  0  0  0  0  0  0
  5  3  2  0
  6  4  1  0
  7  1  1  0
  7  2  1  0
  8  3  1  0
  8  4  2  0
  9  5  1  0
  9  6  2  0
 10  8  1  0
 11  9  1  0
 12 10  2  0
 13  7  1  0
 13 10  1  0
M  END
>  <NAME>  (5920) 
PARA AMINO ISOPROPYLBENZOATE

>  <SYNONYMS>  (5920) 


>  <SPECTRUM TYPE>  (5920) 
MS1

>  <INSTRUMENT TYPE>  (5920) 
EI-B

>  <INSTRUMENT>  (5920) 
HITACHI RMU-7M

>  <ION MODE>  (5920) 
P

>  <INCHIKEY>  (5920) 
JWCPZKNBPMSYND-UHFFFAOYSA-N

>  <FORMULA>  (5920) 
C10H13NO2

>  <EXACT MASS>  (5920) 
179.094628656

>  <MW>  (5920) 
179

>  <ID>  (5920) 
JP000180

>  <CONTRIBUTOR>  (5920) 
University of Tokyo Team, {Faculty of Engineering, University of Tokyo

>  <COMMENT>  (5920) 
SMILES=CC(C)OC(=O)c(c1)ccc(N)c1
InChI=InChI=1S/C10H13NO2/c1-7(2)13-10(12)8-3-5-9(11)6-4-8/h3-7H,11H2,1-2H3
computed SMILES=O=C(OC(C)C)C1=CC=C(N)C=C1
accession=JP000180
date=2016.01.19 (Created 2008.10.21, modified 2011.05.06)
author=TAJIMA S, GUNMA COLLEGE OF TECHNOLOGY
license=CC BY-NC-SA
exact mass=179.09463
ionization energy=70 eV
ion type=[M]+*
computed spectral entropy=2.375251478823228
computed normalized entropy=0.7379133610786258
SPLASH=splash10-00dr-5900000000-107567990c70812b83f2
submitter=submitter = University of Tokyo Team (Faculty of Engineering, University of Tokyo)
MoNA Rating=3.75

>  <NUM PEAKS>  (5920) 
25

>  <MASS SPECTRAL PEAKS>  (5920) 
27 5.58
29 1.72
38 1.23
39 11.29
40 1.78
41 8.59
42 1.35
43 5.71
45 12.27
63 3.07
64 3.13
65 24.54
66 3.01
90 1.23
91 3.87
92 21.6
93 3.68
119 1.29
120 99.99
121 13.5
136 1.23
137 55.09
138 4.48
179 23.19
180 2.39

>  <PREDICTED SPECTRUM>  (5920) 
14 0
15 24
25 8
26 39
27 161
28 57
29 91
36 12
37 35
38 84
39 229
40 72
41 248
42 166
43 327
44 68
45 65
49 21
50 97
51 128
52 110
53 135
54 19
59 162
60 97
61 85
62 104
63 196
64 174
65 453
66 167
74 100
75 85
76 79
77 127
78 63
79 47
80 57
81 16
87 57
89 54
90 108
91 246
92 498
93 271
94 75
104 79
106 76
107 67
108 55
109 118
118 39
119 191
120 999
121 221
122 141
123 45
136 208
137 781
138 282
139 78
150 6
164 33
179 490
180 158
181 5

$$$$

     RDKit          2D

  8  8  0  0  0  0  0  0  0  0999 V2000
    2.5989    1.5002    0.0000 C   0  0  0  0  0  0  0  0  0  0  0  0
   -1.3000    0.7500    0.0000 C   0  0  0  0  0  0  0  0  0  0  0  0
    0.0000    1.5000    0.0000 C   0  0  0  0  0  0  0  0  0  0  0  0
   -1.3000   -0.7500    0.0000 C   0  0  0  0  0  0  0  0  0  0  0  0
    1.3000   -0.7500    0.0000 C   0  0  0  0  0  0  0  0  0  0  0  0
    1.3000    0.7500    0.0000 C   0  0  0  0  0  0  0  0  0  0  0  0
   -0.0000   -1.5000    0.0000 C   0  0  0  0  0  0  0  0  0  0  0  0
   -0.0000   -3.0000    0.0000 Br  0  0  0  0  0  0  0  0  0  0  0  0
  3  2  2  0
  4  2  1  0
  6  1  1  0
  6  3  1  0
  6  5  2  0
  7  4  2  0
  7  5  1  0
  8  7  1  0
M  END
>  <NAME>  (5921) 
META BROMOTOLUENE

>  <SYNONYMS>  (5921) 


>  <SPECTRUM TYPE>  (5921) 
MS1

>  <INSTRUMENT TYPE>  (5921) 
EI-B

>  <INSTRUMENT>  (5921) 
HITACHI RMU-7M

>  <ION MODE>  (5921) 
P

>  <INCHIKEY>  (5921) 
WJIFKOVZNJTSGO-UHFFFAOYSA-N

>  <FORMULA>  (5921) 
C7H7Br

>  <EXACT MASS>  (5921) 
169.973112324

>  <MW>  (5921) 
170

>  <ID>  (5921) 
JP000178

>  <CONTRIBUTOR>  (5921) 
University of Tokyo Team, {Faculty of Engineering, University of Tokyo

>  <COMMENT>  (5921) 
SMILES=Cc(c1)cc(Br)cc1
InChI=InChI=1S/C7H7Br/c1-6-3-2-4-7(8)5-6/h2-5H,1H3
computed SMILES=BrC1=CC=CC(=C1)C
accession=JP000178
date=2016.01.19 (Created 2008.10.21, modified 2011.05.06)
author=TAJIMA S, GUNMA COLLEGE OF TECHNOLOGY
license=CC BY-NC-SA
exact mass=169.97311
ionization energy=70 eV
ion type=[M]+*
computed spectral entropy=2.424256798801603
computed normalized entropy=0.753137719719544
SPLASH=splash10-00dl-9400000000-b876c593bd891755fd6c
submitter=submitter = University of Tokyo Team (Faculty of Engineering, University of Tokyo)
MoNA Rating=3.75

>  <NUM PEAKS>  (5921) 
25

>  <MASS SPECTRAL PEAKS>  (5921) 
27 1.54
37 1.34
38 3.34
39 13.16
41 2.54
43 2.47
44 2
45 4.61
50 6.01
51 5.08
61 2
62 5.34
63 13.23
64 3.34
65 31.6
66 1.74
89 12.69
90 9.75
91 99.99
92 7.68
169 4.48
170 54.31
171 8.35
172 52.71
173 3.87

>  <PREDICTED SPECTRUM>  (5921) 
14 34
15 63
16 22
17 13
18 28
25 43
26 127
27 111
28 96
29 23
31 53
32 35
36 6
37 133
38 212
39 321
40 90
43 15
44 56
45 39
46 8
49 77
50 283
51 338
52 142
53 79
57 38
58 41
61 174
62 201
63 287
64 163
65 249
66 43
71 0
73 33
74 152
75 137
76 89
77 78
78 103
79 77
80 1
84 21
85 82
86 70
87 112
89 369
90 276
91 999
92 282
93 38
102 72
155 65
157 32
169 135
170 637
171 240
172 615
173 161

$$$$

     RDKit          2D

 51 56  0  0  1  0  0  0  0  0999 V2000
    8.6274    0.2093    0.0000 C   0  0  0  0  0  0  0  0  0  0  0  0
    7.3280   -2.0405    0.0000 C   0  0  0  0  0  0  0  0  0  0  0  0
    2.1283    6.9614    0.0000 C   0  0  0  0  0  0  0  0  0  0  0  0
    6.0293    0.2097    0.0000 C   0  0  0  0  0  0  0  0  0  0  0  0
   -5.6684    6.9599    0.0000 C   0  0  0  0  0  0  0  0  0  0  0  0
   -6.4978    6.4819    0.0000 C   0  0  0  0  0  0  0  0  0  0  0  0
    7.3301    2.4603    0.0000 C   0  0  0  0  0  0  0  0  0  0  0  0
    4.7301   -0.5401    0.0000 C   0  0  0  0  0  0  0  0  0  0  0  0
   -4.3680    6.2105    0.0000 C   0  0  0  0  0  0  0  0  0  0  0  0
   -5.1983    5.7310    0.0000 C   0  0  0  0  0  0  0  0  0  0  0  0
    6.0301    1.7103    0.0000 C   0  0  0  0  0  0  0  0  0  0  0  0
   -0.4702    6.9618    0.0000 C   0  0  0  0  0  0  0  0  0  0  0  0
    0.8301    4.7103    0.0000 C   0  0  0  0  0  0  0  0  0  0  0  0
   -4.3695    9.2105    0.0000 C   0  0  0  0  0  0  0  0  0  0  0  0
   -7.7963    4.2310    0.0000 C   0  0  0  0  0  0  0  0  0  0  0  0
    6.0301    4.7103    0.0000 C   0  0  0  0  0  0  0  0  0  0  0  0
   -1.7688    0.2101    0.0000 C   0  0  0  0  0  0  0  0  0  0  0  0
    7.3282   -0.5405    0.0000 C   0  0  0  0  0  0  0  0  0  0  0  0
    0.8294    6.2112    0.0000 C   0  0  0  0  0  0  0  0  0  0  0  0
   -5.6691    8.4599    0.0000 C   0  0  0  0  0  0  0  0  0  0  0  0
   -7.7968    5.7319    0.0000 C   0  0  0  0  0  0  0  0  0  0  0  0
    7.3301    3.9603    0.0000 C   0  0  0  0  0  0  0  0  0  0  0  0
   -3.0684    6.9612    0.0000 C   0  0  0  0  0  0  0  0  0  0  0  0
   -5.1978    4.2302    0.0000 C   0  0  0  0  0  0  0  0  0  0  0  0
    4.7301    2.4603    0.0000 C   0  0  0  0  0  0  0  0  0  0  0  0
    3.4312    0.2101    0.0000 C   0  0  0  0  0  0  0  0  0  0  0  0
   -1.7691    6.2116    0.0000 C   0  0  0  0  0  0  0  0  0  0  0  0
   -0.4688    3.9601    0.0000 C   0  0  0  0  0  0  0  0  0  0  0  0
   -3.0691    8.4612    0.0000 C   0  0  0  0  0  0  0  0  0  0  0  0
   -6.4968    3.4802    0.0000 C   0  0  0  0  0  0  0  0  0  0  0  0
    4.7301    3.9603    0.0000 C   0  0  0  0  0  0  0  0  0  0  0  0
   -1.7688    1.7101    0.0000 C   0  0  0  0  0  0  0  0  0  0  0  0
   -0.4688   -0.5399    0.0000 C   0  0  0  0  0  0  0  0  0  0  0  0
   -1.7684    4.7108    0.0000 C   0  0  0  0  0  0  0  0  0  0  0  0
   -0.4688    2.4601    0.0000 C   0  0  0  0  0  0  0  0  0  0  0  0
    0.8312    0.2101    0.0000 C   0  0  0  0  0  0  0  0  0  0  0  0
   -3.8986    3.4804    0.0000 C   0  0  0  0  0  0  0  0  0  0  0  0
    2.1312   -0.5399    0.0000 C   0  0  0  0  0  0  0  0  0  0  0  0
    3.4312    1.7101    0.0000 C   0  0  0  0  0  0  0  0  0  0  0  0
    0.8312    1.7101    0.0000 C   0  0  0  0  0  0  0  0  0  0  0  0
   -6.9684    9.2095    0.0000 O   0  0  0  0  0  0  0  0  0  0  0  0
   -9.0960    6.4817    0.0000 O   0  0  0  0  0  0  0  0  0  0  0  0
    8.6291    4.7105    0.0000 O   0  0  0  0  0  0  0  0  0  0  0  0
   -1.7706    9.2120    0.0000 O   0  0  0  0  0  0  0  0  0  0  0  0
   -6.4971    1.9802    0.0000 O   0  0  0  0  0  0  0  0  0  0  0  0
    3.4312    4.7105    0.0000 O   0  0  0  0  0  0  0  0  0  0  0  0
   -3.0677    2.4603    0.0000 O   0  0  0  0  0  0  0  0  0  0  0  0
   -0.4688   -2.0399    0.0000 O   0  0  0  0  0  0  0  0  0  0  0  0
   -3.8983    1.5004    0.0000 O   0  0  0  0  0  0  0  0  0  0  0  0
    2.1312   -2.0399    0.0000 O   0  0  0  0  0  0  0  0  0  0  0  0
    2.1312    2.4601    0.0000 O   0  0  0  0  0  0  0  0  0  0  0  0
  8  4  1  0
  9  5  2  0
 10  6  2  0
 11  7  2  0
 18  1  1  0
 18  2  1  0
 18  4  2  0
 19  3  1  0
 19 12  1  0
 19 13  2  0
 20  5  1  0
 20 14  2  0
 21  6  1  0
 21 15  2  0
 22  7  1  0
 22 16  2  0
 23  9  1  0
 24 10  1  0
 25 11  1  0
 26  8  1  0
 27 12  1  0
 27 23  1  1
 28 13  1  0
 29 14  1  0
 29 23  2  0
 30 15  1  0
 30 24  2  0
 31 16  1  0
 31 25  2  0
 32 17  2  0
 33 17  1  0
 34 27  1  0
 34 28  1  0
 28 35  1  1
 35 32  1  0
 36 33  2  0
 37 24  1  0
 34 37  1  6
 38 26  1  0
 38 36  1  0
 39 25  1  0
 39 26  2  0
 40 35  2  0
 40 36  1  0
 41 20  1  0
 42 21  1  0
 43 22  1  0
 44 29  1  0
 45 30  1  0
 46 31  1  0
 47 32  1  0
 48 33  1  0
 49 37  2  0
 50 38  2  0
 51 39  1  0
 51 40  1  0
M  END
>  <NAME>  (5922) 
KUWANON-G

>  <SYNONYMS>  (5922) 


>  <SPECTRUM TYPE>  (5922) 
MS1

>  <INSTRUMENT TYPE>  (5922) 
EI-B

>  <INSTRUMENT>  (5922) 
JEOL JMS-01-SG-2

>  <ION MODE>  (5922) 
P

>  <INCHIKEY>  (5922) 
APPXYONGBIXGRO-QPFJYYDMSA-N

>  <FORMULA>  (5922) 
C40H36O11

>  <EXACT MASS>  (5922) 
692.225761972

>  <MW>  (5922) 
692

>  <ID>  (5922) 
JP000168

>  <CONTRIBUTOR>  (5922) 
University of Tokyo Team, {Faculty of Engineering, University of Tokyo

>  <COMMENT>  (5922) 
SMILES=c(c6)(cc(c(c6)C(C(C1(c(c5)c(O)cc(O)c5)[H])([H])C(c(c32)c(cc(c2C(C(=C(c(c4)c(O)cc(O)c4)O3)CC=C(C)C)=O)O)O)C=C(C)C1)=O)O)O
InChI=InChI=1S/C40H36O11/c1-18(2)4-8-26-38(50)36-33(48)17-32(47)35(40(36)51-39(26)25-11-7-22(43)16-31(25)46)28-13-19(3)12-27(23-9-5-20(41)14-29(23)44)34(28)37(49)24-10-6-21(42)15-30(24)45/h4-7,9-11,13-17,27-28,34,41-48H,8,12H2,1-3H3/t27-,28-,34-/m1/s1
computed SMILES=O=C1C2=C(O)C=C(O)C(=C2OC(C=3C=CC(O)=CC3O)=C1CC=C(C)C)C4C=C(C)CC(C5=CC=C(O)C=C5O)C4C(=O)C6=CC=C(O)C=C6O
accession=JP000168
date=2016.01.19 (Created 2008.10.21, modified 2011.05.06)
author=FUKUSHIMA K, INST. FOR CHEMOBIODYNAMICS, CHIBA UNIV.
license=CC BY-NC-SA
exact mass=692.22576
ionization energy=70 eV
ion type=[M]+*
computed spectral entropy=4.553133457461253
computed normalized entropy=0.8971384278099799
SPLASH=splash10-0ik9-7932000000-d1fcc8d92623ba859276
submitter=submitter = University of Tokyo Team (Faculty of Engineering, University of Tokyo)
MoNA Rating=3.75

>  <NUM PEAKS>  (5922) 
160

>  <MASS SPECTRAL PEAKS>  (5922) 
50 11.65
51 21.45
52 8.56
53 22.11
54 19.07
55 4.24
56 11.84
58 9.19
59 5.84
60 9.05
61 3.76
62 6.07
63 18.45
64 15.41
65 12.94
66 5.2
68 5.66
69 2.2
70 1.72
72 2.62
73 15.07
74 5.39
75 2.56
76 4.63
77 15.84
78 10.6
79 6.77
80 5.76
81 6.41
82 13.91
87 4.6
89 4.98
90 3.59
91 10.85
92 3.65
94 3.92
98 4.13
100 4.74
101 4.16
102 3.95
103 4.6
104 5.95
105 3.65
106 2.23
107 5.61
108 2.67
110 99.99
114 3.15
115 15.81
116 3.67
120 3.57
121 1.78
122 6.18
123 1.12
128 10.85
129 7.06
130 1.4
131 1.29
132 2.58
134 17.33
135 1.5
136 2.92
137 8.92
138 1.28
139 3.89
141 7.47
143 2.67
144 1.48
146 1.85
147 7.06
148 2.45
149 37.58
150 4.25
152 6.53
153 6.77
156 1.66
157 5.16
158 2.91
160 1.88
161 9.65
162 14.32
163 2.67
164 1.45
165 2.59
171 3.11
174 1.99
176 3.02
177 1.82
179 1.09
181 3.83
184 5.5
185 6.55
186 4.32
187 3
189 2.5
191 1.74
195 1.2
197 5.65
198 3.1
199 2.67
200 4.21
201 2.77
202 3.41
203 7.06
205 2.73
211 8.65
212 4.6
213 12.55
214 2.27
215 1.45
218 1.28
219 1.01
226 17.68
227 7.42
228 8.56
229 3.98
231 1.02
233 1.06
242 1.28
243 1.06
253 1.5
255 5.08
256 3.32
257 1.97
262 2.24
265 1.53
278 13.93
279 5
281 3.98
283 1.15
285 1.77
295 1.61
297 8.01
298 3.34
299 7.74
300 1.7
311 34.76
312 6.85
316 1.37
319 1.15
321 3.49
335 1.66
337 4.85
338 1.72
339 1.58
353 1.4
354 17.66
355 4.25
363 1.63
377 4.06
379 2.02
405 14.43
406 4.85
407 1.31
420 6.75
421 1.21
422 1.21
539 2.23
582 4.38
583 1.06

>  <PREDICTED SPECTRUM>  (5922) 
27 43
30 87
40 2
41 119
43 410
44 92
50 62
51 271
52 71
53 401
55 264
57 72
59 80
60 100
63 181
64 305
65 493
66 417
67 357
68 126
69 206
70 100
76 138
77 464
78 193
79 375
80 116
81 288
82 157
83 195
84 125
85 215
86 24
91 188
92 123
93 302
94 150
95 268
96 142
97 109
98 80
100 27
105 152
106 61
107 143
108 8
109 285
110 50
113 46
114 0
119 339
120 91
121 84
122 19
123 999
124 475
125 124
126 175
127 297
128 209
129 78
134 51
136 361
137 134
138 12
139 104
141 176
143 88
145 35
147 185
148 31
153 185
155 84
161 193
162 92
163 53
166 26
167 85
168 68
169 164
170 21
172 10
173 21
175 188
176 95
178 72
179 171
181 242
183 187
184 94
185 229
186 16
188 5
189 142
196 86
197 32
198 65
199 190
200 28
202 57
203 138
204 102
205 43
206 133
207 266
208 226
209 23
211 6
212 209
214 25
215 307
216 349
217 51
218 132
219 5
221 57
223 221
224 117
225 220
226 73
227 122
230 107
232 193
233 63
234 252
235 158
237 138
239 76
244 46
245 111
246 105
247 254
248 2
249 74
250 58
251 108
254 46
255 145
258 247
259 1
260 73
262 67
263 57
265 31
266 170
267 52
268 10
269 369
270 154
272 44
273 104
274 99
276 122
281 27
282 172
283 188
284 13
285 217
286 161
287 77
288 70
289 28
291 63
303 48
306 27
308 41
309 24
310 51
314 12
323 19
324 44
334 97
335 70
336 248
337 43
338 102
341 38
343 42
362 120
366 55
368 104
369 45
370 11
372 93
377 195
378 24
382 22
383 74
390 15
391 287
392 64
393 11
395 287
396 119
397 15
398 5
401 86
406 178
407 158
408 64
420 75
421 32
445 132
446 154
461 151
462 3
487 158
490 145
506 5
515 1
546 44
551 109
554 319
556 98
568 112
571 314
572 143
590 9
630 83
638 60
658 60
677 90
681 44
692 185
693 45
694 5
695 72

$$$$

     RDKit          2D

 31 33  0  0  0  0  0  0  0  0999 V2000
   -3.8981    6.0000    0.0000 C   0  0  0  0  0  0  0  0  0  0  0  0
   -1.3000    6.0000    0.0000 C   0  0  0  0  0  0  0  0  0  0  0  0
    7.7962   -0.7508    0.0000 C   0  0  0  0  0  0  0  0  0  0  0  0
    6.4968   -3.0006    0.0000 C   0  0  0  0  0  0  0  0  0  0  0  0
   -2.5990    3.7500    0.0000 C   0  0  0  0  0  0  0  0  0  0  0  0
    5.1981   -0.7504    0.0000 C   0  0  0  0  0  0  0  0  0  0  0  0
    6.4989    1.5002    0.0000 C   0  0  0  0  0  0  0  0  0  0  0  0
   -1.3000    3.0000    0.0000 C   0  0  0  0  0  0  0  0  0  0  0  0
    3.8989   -1.5002    0.0000 C   0  0  0  0  0  0  0  0  0  0  0  0
    5.1989    0.7502    0.0000 C   0  0  0  0  0  0  0  0  0  0  0  0
    5.1989    3.7502    0.0000 C   0  0  0  0  0  0  0  0  0  0  0  0
   -2.6000   -0.7500    0.0000 C   0  0  0  0  0  0  0  0  0  0  0  0
   -2.5990    5.2500    0.0000 C   0  0  0  0  0  0  0  0  0  0  0  0
    6.4970   -1.5006    0.0000 C   0  0  0  0  0  0  0  0  0  0  0  0
    6.4989    3.0002    0.0000 C   0  0  0  0  0  0  0  0  0  0  0  0
    3.8989    1.5002    0.0000 C   0  0  0  0  0  0  0  0  0  0  0  0
   -1.3000    1.5000    0.0000 C   0  0  0  0  0  0  0  0  0  0  0  0
    2.6000   -0.7500    0.0000 C   0  0  0  0  0  0  0  0  0  0  0  0
    3.8989    3.0002    0.0000 C   0  0  0  0  0  0  0  0  0  0  0  0
   -2.6000    0.7500    0.0000 C   0  0  0  0  0  0  0  0  0  0  0  0
   -1.3000   -1.5000    0.0000 C   0  0  0  0  0  0  0  0  0  0  0  0
    0.0000   -0.7500    0.0000 C   0  0  0  0  0  0  0  0  0  0  0  0
    1.3000   -1.5000    0.0000 C   0  0  0  0  0  0  0  0  0  0  0  0
    2.6000    0.7500    0.0000 C   0  0  0  0  0  0  0  0  0  0  0  0
    0.0000    0.7500    0.0000 C   0  0  0  0  0  0  0  0  0  0  0  0
    7.7978    3.7504    0.0000 O   0  0  0  0  0  0  0  0  0  0  0  0
    2.6000    3.7504    0.0000 O   0  0  0  0  0  0  0  0  0  0  0  0
   -3.8989    1.5002    0.0000 O   0  0  0  0  0  0  0  0  0  0  0  0
   -1.3000   -3.0000    0.0000 O   0  0  0  0  0  0  0  0  0  0  0  0
    1.3000   -3.0000    0.0000 O   0  0  0  0  0  0  0  0  0  0  0  0
    1.3000    1.5000    0.0000 O   0  0  0  0  0  0  0  0  0  0  0  0
  8  5  1  0
  9  6  1  0
 10  7  2  0
 13  1  1  0
 13  2  1  0
 13  5  2  0
 14  3  1  0
 14  4  1  0
 14  6  2  0
 15  7  1  0
 15 11  2  0
 16 10  1  0
 17  8  1  0
 18  9  1  0
 19 11  1  0
 19 16  2  0
 20 12  2  0
 20 17  1  0
 21 12  1  0
 22 21  2  0
 23 18  1  0
 23 22  1  0
 24 16  1  0
 24 18  2  0
 25 17  2  0
 25 22  1  0
 26 15  1  0
 27 19  1  0
 28 20  1  0
 29 21  1  0
 30 23  2  0
 31 24  1  0
 31 25  1  0
M  END
>  <NAME>  (5923) 
KUWANON-C

>  <SYNONYMS>  (5923) 


>  <SPECTRUM TYPE>  (5923) 
MS1

>  <INSTRUMENT TYPE>  (5923) 
EI-B

>  <INSTRUMENT>  (5923) 
JEOL JMS-01-SG-2

>  <ION MODE>  (5923) 
P

>  <INCHIKEY>  (5923) 
UWQYBLOHTQWSQD-UHFFFAOYSA-N

>  <FORMULA>  (5923) 
C25H26O6

>  <EXACT MASS>  (5923) 
422.172938552

>  <MW>  (5923) 
422

>  <ID>  (5923) 
JP000165

>  <CONTRIBUTOR>  (5923) 
University of Tokyo Team, {Faculty of Engineering, University of Tokyo

>  <COMMENT>  (5923) 
SMILES=CC(C)=CCc(c(O)3)c(O1)c(c(O)c3)C(=O)C(CC=C(C)C)=C(c(c2)c(O)cc(O)c2)1
InChI=InChI=1S/C25H26O6/c1-13(2)5-8-17-20(28)12-21(29)22-23(30)18(9-6-14(3)4)24(31-25(17)22)16-10-7-15(26)11-19(16)27/h5-7,10-12,26-29H,8-9H2,1-4H3
computed SMILES=O=C1C2=C(O)C=C(O)C(=C2OC(C=3C=CC(O)=CC3O)=C1CC=C(C)C)CC=C(C)C
accession=JP000165
date=2016.01.19 (Created 2008.10.21, modified 2011.05.06)
author=FUKUSHIMA K, INST. FOR CHEMOBIODYNAMICS, CHIBA UNIV.
license=CC BY-NC-SA
exact mass=422.17294
ionization energy=70 eV
ion type=[M]+*
computed spectral entropy=2.98436181971418
computed normalized entropy=0.779483245009802
SPLASH=splash10-00fr-0009400000-4210925cffaf9d547765
submitter=submitter = University of Tokyo Team (Faculty of Engineering, University of Tokyo)
MoNA Rating=3.75

>  <NUM PEAKS>  (5923) 
46

>  <MASS SPECTRAL PEAKS>  (5923) 
165 16.37
227 1.02
241 4.51
269 1.16
283 1.62
297 3.73
299 1.73
307 1.67
309 2.15
310 2.67
311 30.84
312 5.55
313 1.03
323 34.92
324 9.01
325 2.87
333 1.9
335 1.9
337 3.32
347 1.94
349 10.05
350 2.52
351 5.61
354 1.68
361 6.3
362 1.1
363 2.08
365 11.84
366 6.21
367 8.09
379 99.99
380 24.3
381 4.72
389 13.59
390 2.76
393 1.43
403 2.86
404 4.94
405 16.5
406 4.17
407 5.7
420 1.97
421 6.48
422 80.39
423 23.46
424 5.18

>  <PREDICTED SPECTRUM>  (5923) 
38 13
39 226
40 104
41 269
42 43
43 197
44 257
45 101
49 21
50 87
51 263
52 185
53 403
54 62
55 175
56 40
57 59
58 39
59 120
60 39
61 2
62 40
63 181
64 83
65 268
66 270
67 314
68 22
69 593
70 171
71 120
74 74
75 60
76 91
77 341
78 216
79 256
80 94
81 277
82 111
83 151
84 125
85 231
86 2
87 53
88 59
89 170
90 76
91 262
92 153
93 208
94 84
95 136
96 56
97 147
98 149
99 56
101 73
102 132
103 231
104 155
105 255
106 241
107 171
109 213
110 12
111 161
113 77
115 311
116 101
117 110
118 172
119 275
120 198
121 158
122 72
123 177
124 70
125 23
127 128
128 239
129 137
130 78
131 164
132 139
133 186
134 224
135 310
136 168
137 135
138 35
139 151
140 223
141 232
142 98
143 202
144 74
145 128
146 119
147 182
148 59
149 349
150 289
151 252
152 112
153 121
154 146
155 88
156 30
157 179
159 202
160 152
161 225
162 287
163 290
164 177
165 275
166 159
167 135
168 198
169 209
170 124
171 195
172 140
173 210
174 292
175 353
176 343
177 320
178 183
179 214
180 132
181 83
182 72
183 102
184 63
185 213
186 112
187 183
188 191
189 321
190 261
191 233
192 171
193 196
194 139
195 203
196 89
197 130
198 104
199 209
200 40
201 209
202 203
203 214
204 127
205 105
206 38
208 59
209 81
210 131
211 251
212 173
213 199
214 97
215 192
216 127
217 260
218 256
219 193
220 75
221 11
222 47
223 81
224 113
225 169
226 104
227 386
228 88
229 252
230 82
231 161
233 52
237 101
238 67
239 72
240 77
241 388
242 29
243 87
244 33
245 79
246 39
250 76
251 28
252 118
253 249
254 155
255 363
256 178
257 289
264 103
265 87
266 53
267 232
268 121
269 432
270 222
271 401
272 24
273 143
279 55
280 180
281 235
282 41
283 357
284 134
285 683
286 560
287 227
288 119
292 20
295 91
296 59
297 828
298 551
299 834
300 459
301 66
307 42
309 162
310 112
311 636
312 217
313 314
321 24
322 17
323 475
324 172
325 442
326 110
327 36
336 22
337 421
338 267
339 688
340 224
341 106
349 78
350 293
351 553
352 217
353 999
354 490
355 399
361 91
365 249
366 384
367 554
368 157
369 159
378 39
379 555
380 376
381 163
389 88
391 29
393 74
395 34
405 82
406 63
407 321
408 111
419 5
420 38
421 296
422 242
423 288
424 108

$$$$

     RDKit          2D

 23 25  0  0  0  0  0  0  0  0999 V2000
   11.6000    2.5981    0.0000 C   0  0  0  0  0  0  0  0  0  0  0  0
   11.6000   -0.0000    0.0000 C   0  0  0  0  0  0  0  0  0  0  0  0
    9.3500    1.2990    0.0000 C   0  0  0  0  0  0  0  0  0  0  0  0
   -1.0100    1.5000    0.0000 C   0  0  0  0  0  0  0  0  0  0  0  0
   -2.3100    0.7500    0.0000 C   0  0  0  0  0  0  0  0  0  0  0  0
    8.6000   -0.0000    0.0000 C   0  0  0  0  0  0  0  0  0  0  0  0
    4.8500   -1.3000    0.0000 C   0  0  0  0  0  0  0  0  0  0  0  0
    4.8500    1.3000    0.0000 C   0  0  0  0  0  0  0  0  0  0  0  0
    1.7200    1.2100    0.0000 C   0  0  0  0  0  0  0  0  0  0  0  0
   -1.0100   -1.5000    0.0000 C   0  0  0  0  0  0  0  0  0  0  0  0
   10.8500    1.2990    0.0000 C   0  0  0  0  0  0  0  0  0  0  0  0
    0.2900    0.7500    0.0000 C   0  0  0  0  0  0  0  0  0  0  0  0
    4.1000   -0.0000    0.0000 C   0  0  0  0  0  0  0  0  0  0  0  0
   -2.3100   -0.7500    0.0000 C   0  0  0  0  0  0  0  0  0  0  0  0
    7.1000   -0.0000    0.0000 C   0  0  0  0  0  0  0  0  0  0  0  0
    6.3500   -1.3000    0.0000 C   0  0  0  0  0  0  0  0  0  0  0  0
    6.3500    1.3000    0.0000 C   0  0  0  0  0  0  0  0  0  0  0  0
    2.6000    0.0000    0.0000 C   0  0  0  0  0  0  0  0  0  0  0  0
    0.2900   -0.7500    0.0000 C   0  0  0  0  0  0  0  0  0  0  0  0
   -3.6089   -1.5002    0.0000 O   0  0  0  0  0  0  0  0  0  0  0  0
    7.1002   -2.5989    0.0000 O   0  0  0  0  0  0  0  0  0  0  0  0
    7.1002    2.5989    0.0000 O   0  0  0  0  0  0  0  0  0  0  0  0
    1.7200   -1.2100    0.0000 O   0  0  0  0  0  0  0  0  0  0  0  0
  5  4  2  0
  6  3  1  0
 11  1  1  0
 11  2  1  0
 11  3  2  0
 12  4  1  0
 12  9  1  0
 13  7  2  0
 13  8  1  0
 14  5  1  0
 14 10  2  0
 15  6  1  0
 16  7  1  0
 16 15  2  0
 17  8  2  0
 17 15  1  0
 18  9  2  0
 18 13  1  0
 19 10  1  0
 19 12  2  0
 20 14  1  0
 21 16  1  0
 22 17  1  0
 23 18  1  0
 23 19  1  0
M  END
>  <NAME>  (5924) 
MORACIN-C

>  <SYNONYMS>  (5924) 


>  <SPECTRUM TYPE>  (5924) 
MS1

>  <INSTRUMENT TYPE>  (5924) 
EI-B

>  <INSTRUMENT>  (5924) 
JEOL JMS-01-SG-2

>  <ION MODE>  (5924) 
P

>  <INCHIKEY>  (5924) 
ZTGHWUWBQNCCOH-UHFFFAOYSA-N

>  <FORMULA>  (5924) 
C19H18O4

>  <EXACT MASS>  (5924) 
310.120509056

>  <MW>  (5924) 
310

>  <ID>  (5924) 
JP000162

>  <CONTRIBUTOR>  (5924) 
University of Tokyo Team, {Faculty of Engineering, University of Tokyo

>  <COMMENT>  (5924) 
SMILES=CC(C)=CCc(c(O)3)c(O)cc(c3)c(o1)c([H])c(c2)c(cc(O)c2)1
InChI=InChI=1S/C19H18O4/c1-11(2)3-6-15-16(21)7-13(8-17(15)22)18-9-12-4-5-14(20)10-19(12)23-18/h3-5,7-10,20-22H,6H2,1-2H3
computed SMILES=OC=1C=CC=2C=C(OC2C1)C3=CC(O)=C(C(O)=C3)CC=C(C)C
accession=JP000162
date=2016.01.19 (Created 2008.10.21, modified 2011.05.06)
author=FUKUSHIMA K, INST. FOR CHEMOBIODYNAMICS, CHIBA UNIV.
license=CC BY-NC-SA
exact mass=310.12051
ionization energy=70 eV
ion type=[M]+*
computed spectral entropy=3.0344195522158643
computed normalized entropy=0.7411246186298036
SPLASH=splash10-08fr-0195000000-f50993107453383214aa
submitter=submitter = University of Tokyo Team (Faculty of Engineering, University of Tokyo)
MoNA Rating=3.75

>  <NUM PEAKS>  (5924) 
60

>  <MASS SPECTRAL PEAKS>  (5924) 
36 1.69
40 1.6
46 1.65
59 1.64
61 2.18
64 1.05
73 3.39
87 1.68
88 1.08
89 1.03
98 3.78
101 0.24
114 1.16
115 4.66
116 1.19
120 3.02
128 4.49
129 3.46
134 10.99
141 1.7
143 1.27
147 1.83
155 1.5
157 1.06
158 1.01
161 1.05
184 1.31
185 1.27
197 4.38
198 2.6
210 1.21
213 1.34
221 1.44
225 1.34
226 8.58
227 6.23
237 1.18
239 2.95
242 16.14
244 2.42
253 3.12
254 19.13
255 82.93
256 12.78
257 1.19
265 2.03
266 7.14
267 4.66
278 4.77
279 2.88
280 2.18
293 10.84
294 2.3
295 34.89
296 6.33
308 2.61
309 10.39
310 99.99
311 20.66
312 4.27

>  <PREDICTED SPECTRUM>  (5924) 
39 23
41 64
43 65
44 18
50 2
51 93
52 15
53 67
55 84
57 23
63 73
64 20
65 83
67 42
69 94
75 72
76 45
77 126
78 43
79 38
81 13
83 30
87 52
88 28
89 101
90 34
91 79
92 31
93 55
95 37
99 32
101 46
102 19
103 32
104 19
105 39
106 59
109 10
114 32
115 215
116 44
117 75
118 7
119 3
126 13
127 85
128 197
129 112
130 16
131 18
133 14
135 1
139 4
141 51
142 21
143 2
145 42
153 14
156 20
159 25
160 30
161 35
167 2
168 48
169 114
171 42
173 10
174 12
181 52
182 40
183 107
184 82
185 7
187 73
193 14
197 102
198 141
199 154
200 11
201 13
209 47
210 0
211 80
212 9
213 45
220 1
225 168
226 212
227 280
228 78
229 22
237 162
238 136
239 168
240 43
241 32
242 272
243 41
252 5
253 197
254 367
255 932
256 291
257 54
265 99
266 173
267 182
268 73
277 2
278 29
279 110
280 125
281 99
291 20
293 283
294 175
295 787
296 348
297 37
308 130
309 290
310 999
311 468
312 147
313 4

$$$$

     RDKit          2D

 48 53  0  0  0  0  0  0  0  0999 V2000
   16.6281    5.7372    0.0000 C   0  0  0  0  0  0  0  0  0  0  0  0
   16.1766    3.1786    0.0000 C   0  0  0  0  0  0  0  0  0  0  0  0
    0.9425    2.4316    0.0000 C   0  0  0  0  0  0  0  0  0  0  0  0
   14.1866    4.8490    0.0000 C   0  0  0  0  0  0  0  0  0  0  0  0
    9.3917   -7.3837    0.0000 C   0  0  0  0  0  0  0  0  0  0  0  0
    9.1321   -8.8619    0.0000 C   0  0  0  0  0  0  0  0  0  0  0  0
    7.6941    6.3309    0.0000 C   0  0  0  0  0  0  0  0  0  0  0  0
   13.2222    3.7000    0.0000 C   0  0  0  0  0  0  0  0  0  0  0  0
    6.9431    5.0315    0.0000 C   0  0  0  0  0  0  0  0  0  0  0  0
    8.7888    4.4810    0.0000 C   0  0  0  0  0  0  0  0  0  0  0  0
    9.7539    5.6304    0.0000 C   0  0  0  0  0  0  0  0  0  0  0  0
    3.1922    3.7320    0.0000 C   0  0  0  0  0  0  0  0  0  0  0  0
    3.1927    1.1320    0.0000 C   0  0  0  0  0  0  0  0  0  0  0  0
    4.7549   -2.8362    0.0000 C   0  0  0  0  0  0  0  0  0  0  0  0
    7.1978   -1.9462    0.0000 C   0  0  0  0  0  0  0  0  0  0  0  0
    8.1847   -4.9179    0.0000 C   0  0  0  0  0  0  0  0  0  0  0  0
    5.4435    7.6298    0.0000 C   0  0  0  0  0  0  0  0  0  0  0  0
    6.5730   -8.4107    0.0000 C   0  0  0  0  0  0  0  0  0  0  0  0
   15.6638    4.5882    0.0000 C   0  0  0  0  0  0  0  0  0  0  0  0
    2.4425    2.4319    0.0000 C   0  0  0  0  0  0  0  0  0  0  0  0
    8.2420   -6.4190    0.0000 C   0  0  0  0  0  0  0  0  0  0  0  0
    6.2331   -3.0959    0.0000 C   0  0  0  0  0  0  0  0  0  0  0  0
    6.9443    7.6301    0.0000 C   0  0  0  0  0  0  0  0  0  0  0  0
    7.7227   -9.3754    0.0000 C   0  0  0  0  0  0  0  0  0  0  0  0
    5.4422    5.0313    0.0000 C   0  0  0  0  0  0  0  0  0  0  0  0
   11.7451    3.9607    0.0000 C   0  0  0  0  0  0  0  0  0  0  0  0
    9.3019    3.0715    0.0000 C   0  0  0  0  0  0  0  0  0  0  0  0
    4.6922    3.7322    0.0000 C   0  0  0  0  0  0  0  0  0  0  0  0
    4.6927    1.1322    0.0000 C   0  0  0  0  0  0  0  0  0  0  0  0
   11.2320    5.3703    0.0000 C   0  0  0  0  0  0  0  0  0  0  0  0
    4.6925    6.3304    0.0000 C   0  0  0  0  0  0  0  0  0  0  0  0
    4.2414   -1.4269    0.0000 C   0  0  0  0  0  0  0  0  0  0  0  0
    6.6843   -0.5368    0.0000 C   0  0  0  0  0  0  0  0  0  0  0  0
    6.7466   -4.5053    0.0000 C   0  0  0  0  0  0  0  0  0  0  0  0
    6.8327   -6.9325    0.0000 C   0  0  0  0  0  0  0  0  0  0  0  0
    5.4425    2.4323    0.0000 C   0  0  0  0  0  0  0  0  0  0  0  0
    5.2061   -0.2772    0.0000 C   0  0  0  0  0  0  0  0  0  0  0  0
   10.7800    2.8114    0.0000 C   0  0  0  0  0  0  0  0  0  0  0  0
    8.3379    1.9223    0.0000 C   0  0  0  0  0  0  0  0  0  0  0  0
    7.6943    8.9291    0.0000 O   0  0  0  0  0  0  0  0  0  0  0  0
    7.4625  -10.8526    0.0000 O   0  0  0  0  0  0  0  0  0  0  0  0
   12.1960    6.5195    0.0000 O   0  0  0  0  0  0  0  0  0  0  0  0
    3.1925    6.3309    0.0000 O   0  0  0  0  0  0  0  0  0  0  0  0
    2.7642   -1.1666    0.0000 O   0  0  0  0  0  0  0  0  0  0  0  0
    7.9563    0.9806    0.0000 O   0  0  0  0  0  0  0  0  0  0  0  0
   11.2930    1.4018    0.0000 O   0  0  0  0  0  0  0  0  0  0  0  0
    8.8511    0.5128    0.0000 O   0  0  0  0  0  0  0  0  0  0  0  0
    5.9109   -5.7463    0.0000 O   0  0  0  0  0  0  0  0  0  0  0  0
  6  5  2  0
  8  4  1  0
  9  7  2  0
 11 10  2  0
 19  1  1  0
 19  2  1  0
 19  4  2  0
 20  3  1  0
 20 12  1  0
 20 13  2  0
 21  5  1  0
 21 16  1  0
 22 14  2  0
 22 15  1  0
 23  7  1  0
 23 17  2  0
 24  6  1  0
 24 18  2  0
 25  9  1  0
 26  8  1  0
 27 10  1  0
 28 12  1  0
 28 25  1  0
 29 13  1  0
 30 11  1  0
 30 26  2  0
 31 17  1  0
 31 25  2  0
 32 14  1  0
 33 15  2  0
 34 16  2  0
 34 22  1  0
 35 18  1  0
 35 21  2  0
 36 28  1  0
 36 29  1  0
 37 29  1  0
 37 32  2  0
 37 33  1  0
 38 26  1  0
 38 27  2  0
 39 27  1  0
 39 36  1  0
 40 23  1  0
 41 24  1  0
 42 30  1  0
 43 31  1  0
 44 32  1  0
 45 33  1  0
 46 38  1  0
 47 39  2  0
 48 34  1  0
 48 35  1  0
M  END
>  <NAME>  (5925) 
CHALCOMORACIN

>  <SYNONYMS>  (5925) 


>  <SPECTRUM TYPE>  (5925) 
MS1

>  <INSTRUMENT TYPE>  (5925) 
EI-B

>  <INSTRUMENT>  (5925) 
JEOL JMS-01-SG-2

>  <ION MODE>  (5925) 
P

>  <INCHIKEY>  (5925) 
SEHVRKPXIDOTRX-UHFFFAOYSA-N

>  <FORMULA>  (5925) 
C39H36O9

>  <EXACT MASS>  (5925) 
648.235932732

>  <MW>  (5925) 
648

>  <ID>  (5925) 
JP000159

>  <CONTRIBUTOR>  (5925) 
University of Tokyo Team, {Faculty of Engineering, University of Tokyo

>  <COMMENT>  (5925) 
SMILES=c(c1)c(cc(o2)c1cc2c(c6)cc(c(c6O)C(C3C(=O)c(c5O)ccc(c5CC=C(C)C)O)C=C(CC(c(c(O)4)ccc(O)c4)3)C)O)O
InChI=InChI=1S/C39H36O9/c1-19(2)4-8-26-30(42)11-10-27(38(26)46)39(47)36-28(25-9-7-23(40)17-31(25)43)12-20(3)13-29(36)37-32(44)14-22(15-33(37)45)34-16-21-5-6-24(41)18-35(21)48-34/h4-7,9-11,13-18,28-29,36,40-46H,8,12H2,1-3H3
computed SMILES=O=C(C1=CC=C(O)C(=C1O)CC=C(C)C)C2C(C=C(C)CC2C3=CC=C(O)C=C3O)C4=C(O)C=C(C=C4O)C=5OC=6C=C(O)C=CC6C5
accession=JP000159
date=2016.01.19 (Created 2008.10.21, modified 2011.05.06)
author=FUKUSHIMA K, INST. FOR CHEMOBIODYNAMICS, CHIBA UNIV.
license=CC BY-NC-SA
exact mass=648.23593
ionization energy=70 eV
ion type=[M]+*
computed spectral entropy=4.56207492321697
computed normalized entropy=0.8712165542175649
SPLASH=splash10-0006-5964000000-b25faf1953c08dea8210
submitter=submitter = University of Tokyo Team (Faculty of Engineering, University of Tokyo)
MoNA Rating=3.75

>  <NUM PEAKS>  (5925) 
188

>  <MASS SPECTRAL PEAKS>  (5925) 
20 5.37
26 4.38
28 3
31 2.01
36 1.8
38 2.19
40 5.13
44 35.95
46 1.14
50 3.51
51 8.94
52 3.46
53 7.95
54 4.35
60 4.64
61 1.54
62 1.78
63 5.28
64 4.09
65 6.5
66 2.65
67 4.78
68 3.14
73 4.26
74 2.98
75 2.71
76 2.23
77 4.06
78 3.88
79 4.93
80 1.87
82 5.04
84 2.69
87 2.07
89 2.96
91 2.72
92 2.79
94 5
96 1.67
98 2.87
99 1.55
101 2.56
102 1.86
103 2.83
105 5.03
107 6.67
110 26.35
111 2.2
112 1.4
113 1.23
115 8.53
116 1.86
117 2.04
118 1.68
119 1.98
121 14.05
122 10.33
123 43.64
124 3.81
125 1.28
127 3.52
128 5.47
129 2.78
130 1.64
131 2.56
133 1.06
134 4.66
136 1.58
137 1.96
139 3.93
140 1.64
142 1.4
144 2.14
145 2.84
147 4.36
148 1.16
149 5.68
150 2.09
151 1.49
152 2.84
153 1.74
155 1.31
157 4.15
158 2.29
159 1.78
160 1.2
161 5.34
163 6.42
164 1.2
165 3.45
166 3.69
167 1.24
168 3.51
169 2.84
171 2.26
173 2.29
175 1.13
176 2.26
177 1.58
178 20.51
179 4.41
181 1.35
184 1.83
185 5.83
186 3.53
187 1.01
189 1.64
194 1.69
195 1.42
197 4.21
198 1.26
199 1.37
203 1.7
205 1.67
210 1.31
211 11.64
212 4.03
213 14.07
214 1.84
215 1.67
223 2.26
224 1.47
225 1.09
226 1.66
227 1.65
228 1.25
232 1.17
235 2.95
239 1.25
241 4.62
242 99.99
243 14.94
244 1.92
249 1.95
251 1.26
255 2.16
262 1.52
263 2.56
267 3.04
268 3.17
269 1.06
278 2.61
279 2.53
281 2.05
287 1.47
291 1.05
292 1.15
293 19.36
294 3.47
295 1
301 2.05
303 1.74
304 1.76
305 1.03
308 4.25
309 1.4
310 2.16
314 1.35
315 3.44
316 1.34
317 7.59
318 1.77
319 2.01
323 1.33
324 3.59
329 3.05
330 1.43
331 7.63
332 10.32
333 6.06
334 1.97
343 2.41
344 1.16
345 6.32
346 1.2
371 3.38
373 10.84
374 3.21
375 1
385 3.85
386 3.08
387 11.6
388 30.32
389 8.61
390 2.92
449 2.51
450 1.26
630 1.2

>  <PREDICTED SPECTRUM>  (5925) 
39 97
41 336
43 999
44 240
45 330
51 292
52 51
53 268
55 348
56 49
57 97
58 26
59 121
63 187
64 12
65 376
66 165
69 112
76 37
77 674
78 11
79 426
80 131
81 115
82 180
83 372
84 117
91 222
93 125
95 220
97 268
105 8
107 75
109 128
111 186
115 601
119 7
122 21
123 319
124 161
125 29
131 39
135 363
137 244
139 222
140 22
141 72
145 68
147 181
149 34
155 44
161 12
162 146
163 251
164 159
168 49
171 58
172 284
174 38
177 85
179 388
181 62
186 115
187 66
188 69
190 13
191 151
193 157
195 20
197 9
202 158
203 142
207 41
209 44
210 32
211 119
214 47
219 62
221 25
222 215
223 61
225 178
231 235
232 153
237 307
238 110
239 44
241 309
243 31
247 40
259 126
285 13
292 125
295 93
308 99
309 191
310 48
311 107
324 44
326 91
329 18
344 90
349 73
351 293
362 165
363 53
376 349
377 205
378 3
390 19
400 140
402 191
412 31
424 16
495 8
510 58
546 7
620 205
630 242
648 874
649 171
650 21

$$$$

     RDKit          2D

 52 58  0  0  0  0  0  0  0  0999 V2000
    3.0407    6.5694    0.0000 C   0  0  0  0  0  0  0  0  0  0  0  0
    0.4564    6.8362    0.0000 C   0  0  0  0  0  0  0  0  0  0  0  0
   -7.7946    6.8602    0.0000 C   0  0  0  0  0  0  0  0  0  0  0  0
  -11.6928    0.1079    0.0000 C   0  0  0  0  0  0  0  0  0  0  0  0
  -11.6936   -0.8494    0.0000 C   0  0  0  0  0  0  0  0  0  0  0  0
    3.5243   -1.1300    0.0000 C   0  0  0  0  0  0  0  0  0  0  0  0
  -10.3935    0.8592    0.0000 C   0  0  0  0  0  0  0  0  0  0  0  0
  -10.3935   -0.0996    0.0000 C   0  0  0  0  0  0  0  0  0  0  0  0
    2.0343   -0.9700    0.0000 C   0  0  0  0  0  0  0  0  0  0  0  0
    1.5175    4.4647    0.0000 C   0  0  0  0  0  0  0  0  0  0  0  0
    0.1483    3.8521    0.0000 C   0  0  0  0  0  0  0  0  0  0  0  0
   -9.0946    4.6102    0.0000 C   0  0  0  0  0  0  0  0  0  0  0  0
   -6.4946    4.6102    0.0000 C   0  0  0  0  0  0  0  0  0  0  0  0
  -12.9921    2.3583    0.0000 C   0  0  0  0  0  0  0  0  0  0  0  0
  -10.3940   -3.0996    0.0000 C   0  0  0  0  0  0  0  0  0  0  0  0
    3.7943    1.4600    0.0000 C   0  0  0  0  0  0  0  0  0  0  0  0
   -3.8957    0.1100    0.0000 C   0  0  0  0  0  0  0  0  0  0  0  0
    1.6715    5.9568    0.0000 C   0  0  0  0  0  0  0  0  0  0  0  0
   -7.7946    5.3602    0.0000 C   0  0  0  0  0  0  0  0  0  0  0  0
  -12.9921    0.8575    0.0000 C   0  0  0  0  0  0  0  0  0  0  0  0
  -11.6939   -2.3494    0.0000 C   0  0  0  0  0  0  0  0  0  0  0  0
    4.4043    0.0900    0.0000 C   0  0  0  0  0  0  0  0  0  0  0  0
  -10.3935    2.3600    0.0000 C   0  0  0  0  0  0  0  0  0  0  0  0
   -9.0936   -0.8498    0.0000 C   0  0  0  0  0  0  0  0  0  0  0  0
   -9.0946    3.1102    0.0000 C   0  0  0  0  0  0  0  0  0  0  0  0
   -6.4946    3.1102    0.0000 C   0  0  0  0  0  0  0  0  0  0  0  0
    1.4243    0.4000    0.0000 C   0  0  0  0  0  0  0  0  0  0  0  0
  -11.6928    3.1096    0.0000 C   0  0  0  0  0  0  0  0  0  0  0  0
   -9.0939   -2.3498    0.0000 C   0  0  0  0  0  0  0  0  0  0  0  0
   -5.1957    0.8600    0.0000 C   0  0  0  0  0  0  0  0  0  0  0  0
    2.3043    1.6100    0.0000 C   0  0  0  0  0  0  0  0  0  0  0  0
   -2.5957    0.8600    0.0000 C   0  0  0  0  0  0  0  0  0  0  0  0
   -7.7946    2.3602    0.0000 C   0  0  0  0  0  0  0  0  0  0  0  0
   -5.1957    2.3600    0.0000 C   0  0  0  0  0  0  0  0  0  0  0  0
   -2.5957    2.3600    0.0000 C   0  0  0  0  0  0  0  0  0  0  0  0
   -7.7946   -0.0998    0.0000 C   0  0  0  0  0  0  0  0  0  0  0  0
   -3.8957    3.1100    0.0000 C   0  0  0  0  0  0  0  0  0  0  0  0
   -1.3057    3.1100    0.0000 C   0  0  0  0  0  0  0  0  0  0  0  0
   -0.0057    2.3600    0.0000 C   0  0  0  0  0  0  0  0  0  0  0  0
   -0.0057    0.8600    0.0000 C   0  0  0  0  0  0  0  0  0  0  0  0
  -14.2910    0.1073    0.0000 O   0  0  0  0  0  0  0  0  0  0  0  0
  -12.9929   -3.0994    0.0000 O   0  0  0  0  0  0  0  0  0  0  0  0
    5.8964   -0.0642    0.0000 O   0  0  0  0  0  0  0  0  0  0  0  0
  -11.6935    4.6096    0.0000 O   0  0  0  0  0  0  0  0  0  0  0  0
   -7.7951   -3.1002    0.0000 O   0  0  0  0  0  0  0  0  0  0  0  0
   -6.4946    0.1098    0.0000 O   0  0  0  0  0  0  0  0  0  0  0  0
   -6.0799   -1.0898    0.0000 O   0  0  0  0  0  0  0  0  0  0  0  0
   -3.8957    4.6100    0.0000 O   0  0  0  0  0  0  0  0  0  0  0  0
   -1.3082    4.6100    0.0000 O   0  0  0  0  0  0  0  0  0  0  0  0
    0.1531   -0.6316    0.0000 O   0  0  0  0  0  0  0  0  0  0  0  0
    1.4243    2.8300    0.0000 O   0  0  0  0  0  0  0  0  0  0  0  0
   -1.3057    0.1100    0.0000 O   0  0  0  0  0  0  0  0  0  0  0  0
  7  4  2  0
  8  5  2  0
  9  6  2  0
 11 10  1  0
 18  1  1  0
 18  2  1  0
 18 10  2  0
 19  3  1  0
 19 12  1  0
 19 13  2  0
 20  4  1  0
 20 14  2  0
 21  5  1  0
 21 15  2  0
 22  6  1  0
 22 16  2  0
 23  7  1  0
 24  8  1  0
 25 12  1  0
 25 23  1  0
 26 13  1  0
 27  9  1  0
 28 14  1  0
 28 23  2  0
 29 15  1  0
 29 24  2  0
 30 17  1  0
 31 16  1  0
 31 27  2  0
 32 17  2  0
 33 25  1  0
 33 26  1  0
 34 26  1  0
 34 30  2  0
 35 32  1  0
 36 24  1  0
 36 33  1  0
 37 34  1  0
 37 35  2  0
 38 35  1  0
 39 11  1  0
 39 38  1  0
 40 27  1  0
 40 39  1  0
 41 20  1  0
 42 21  1  0
 43 22  1  0
 44 28  1  0
 45 29  1  0
 46 30  1  0
 47 36  2  0
 48 37  1  0
 49 38  2  0
 50 40  1  0
 51 31  1  0
 51 39  1  0
 52 32  1  0
 52 40  1  0
M  END
>  <NAME>  (5926) 
SANGGENON-C

>  <SYNONYMS>  (5926) 


>  <SPECTRUM TYPE>  (5926) 
MS1

>  <INSTRUMENT TYPE>  (5926) 
EI-B

>  <INSTRUMENT>  (5926) 
JEOL JMS-01-SG-2

>  <ION MODE>  (5926) 
P

>  <INCHIKEY>  (5926) 
SUOXGDJCEWTZIZ-UHFFFAOYSA-N

>  <FORMULA>  (5926) 
C40H36O12

>  <EXACT MASS>  (5926) 
708.2206765919999

>  <MW>  (5926) 
708

>  <ID>  (5926) 
JP000156

>  <CONTRIBUTOR>  (5926) 
University of Tokyo Team, {Faculty of Engineering, University of Tokyo

>  <COMMENT>  (5926) 
SMILES=c(c7)c(C12O)c(cc7O)OC(C(=O)c(c(O)3)c(cc(O)c3C(C4C(=O)c(c6)c(O)cc(c6)O)C=C(C)CC4c(c5O)ccc(O)c5)O2)1CC=C(C)C
InChI=InChI=1S/C40H36O12/c1-18(2)10-11-39-38(49)35-32(52-40(39,50)27-9-6-22(43)16-31(27)51-39)17-30(46)34(37(35)48)26-13-19(3)12-25(23-7-4-20(41)14-28(23)44)33(26)36(47)24-8-5-21(42)15-29(24)45/h4-10,13-17,25-26,33,41-46,48,50H,11-12H2,1-3H3
computed SMILES=O=C(C1=CC=C(O)C=C1O)C2C(C=C(C)CC2C3=CC=C(O)C=C3O)C4=C(O)C=C5OC6(O)C7=CC=C(O)C=C7OC6(C(=O)C5=C4O)CC=C(C)C
accession=JP000156
date=2016.01.19 (Created 2008.10.21, modified 2011.05.06)
author=FUKUSHIMA K, INST. FOR CHEMOBIODYNAMICS, CHIBA UNIV.
license=CC BY-NC-SA
exact mass=708.22068
ionization energy=70 eV
ion type=[M]+*
computed spectral entropy=4.21529032272444
computed normalized entropy=0.8368731364882286
SPLASH=splash10-03e9-4943100000-f12ea79c868cf8f3abbe
submitter=submitter = University of Tokyo Team (Faculty of Engineering, University of Tokyo)
MoNA Rating=3.75

>  <NUM PEAKS>  (5926) 
154

>  <MASS SPECTRAL PEAKS>  (5926) 
65 23.94
66 18.91
75 7.01
77 8.22
79 1.41
80 5.12
81 65.41
82 95.18
89 7.12
90 1.48
92 6.51
94 11.14
101 2.05
103 4.04
105 1.59
106 1.48
107 3.71
110 99.99
111 10.38
115 10.82
117 2.78
122 10.93
123 71.72
124 1.72
126 16.68
127 2.26
128 5.36
129 2.7
134 12.9
135 10.27
136 3.55
137 13.96
141 1.67
143 3.3
144 2.01
146 1.69
147 23.34
148 3.93
150 30.11
151 3.5
152 4.75
153 7.19
155 2.05
156 1.44
160 4.55
161 42.98
162 14.06
163 27.41
164 5.52
173 2.56
174 1.94
175 7.9
176 13.18
177 11.5
178 17.53
179 1.04
184 2.4
187 1.39
190 2.22
191 2.5
194 2.29
197 10.69
198 1.47
199 1.4
200 1.45
201 3.71
203 18.8
204 1.8
210 2.5
211 49.74
212 37.6
213 15.71
214 2.03
217 4.77
218 10.56
219 1.61
225 3.42
226 1.49
227 3.26
229 6.35
230 1.64
237 2.87
239 5
241 3.01
244 1.75
245 5.03
251 1.28
253 1.87
255 38.71
256 30.79
257 4.06
258 2.66
265 1.12
269 2.77
274 1.02
279 1.12
280 3.19
285 9.83
286 1.78
287 1.53
302 6.61
303 3.49
305 12.38
306 1.9
311 1
314 2.9
315 8.42
317 3.34
319 8.25
320 8.84
321 2.29
322 1.29
323 2.41
324 2.56
325 1.41
326 2.15
327 8.48
329 1.33
333 3.15
335 1.94
338 1.14
339 2.98
353 52.56
354 11.18
355 3.74
365 4.67
366 1.39
368 19.28
369 4.71
370 9.24
371 1.33
381 1.64
383 1.9
388 1.61
389 1.12
395 1.11
401 1.53
404 1.9
405 2.11
419 1.78
421 25.53
422 8.02
423 2.34
436 11.52
437 3.34
438 2.6
439 1.08
464 1.77
516 0.88
578 0.58
579 0.52
580 0.98
581 0.95
691 0.32

>  <PREDICTED SPECTRUM>  (5926) 
17 71
18 91
27 166
28 96
29 199
32 53
39 178
40 16
41 125
42 123
43 420
44 144
45 83
50 21
51 190
52 93
53 290
55 10
56 69
57 16
59 106
63 123
64 111
65 330
66 228
67 215
69 27
71 10
76 102
77 318
78 93
79 171
80 266
81 108
82 219
83 187
85 93
91 183
92 174
93 105
94 95
95 104
96 88
97 54
99 24
100 40
101 45
104 22
105 119
106 162
107 238
108 133
109 182
110 207
111 289
112 65
113 125
115 133
117 28
118 68
119 150
120 183
121 114
122 97
123 547
124 49
125 117
126 63
129 170
130 55
131 40
132 97
135 78
136 349
137 165
138 81
139 182
140 116
141 104
142 47
143 200
144 105
145 114
146 44
147 425
148 135
149 71
150 322
151 143
152 7
153 148
155 170
157 129
158 40
160 0
161 626
162 78
163 497
164 425
165 999
169 127
171 73
174 87
177 18
178 47
179 25
181 2
182 101
183 132
184 3
185 64
187 23
189 44
190 78
191 168
192 31
194 30
195 158
197 89
198 48
199 131
200 107
201 167
202 58
203 28
204 15
205 104
206 57
208 49
212 30
213 25
214 50
215 94
218 151
219 83
220 97
221 103
222 107
223 250
224 148
225 91
227 79
228 216
229 128
230 37
231 209
232 285
233 241
234 100
235 178
236 50
237 89
238 63
239 166
240 150
241 194
243 57
245 259
246 40
248 79
249 49
250 163
251 130
252 55
253 130
255 114
257 56
259 121
260 34
261 48
262 32
263 77
265 115
266 69
267 96
269 418
270 405
271 199
272 154
273 21
274 120
276 86
277 75
278 2
279 117
281 37
282 194
283 149
284 127
285 130
287 66
288 292
289 116
290 17
291 81
298 182
299 132
300 88
301 153
302 40
303 227
307 0
309 80
312 35
323 22
324 5
329 11
338 33
339 121
340 145
341 28
343 49
345 30
347 26
348 5
349 90
351 21
357 101
368 231
369 109
370 36
372 36
375 17
377 61
378 67
382 45
383 61
384 161
387 65
390 87
391 128
392 5
393 46
394 16
396 41
397 66
399 251
406 24
407 57
411 121
412 196
414 67
415 4
420 40
434 68
435 27
436 56
449 45
461 104
462 39
476 33
477 1
487 4
494 7
542 33
544 100
546 42
547 12
554 16
556 188
557 201
571 80
584 41
585 566
586 128
587 259
589 68
590 71
598 13
599 34
600 41
638 11
641 70
681 62
688 3
690 162
691 44
692 54
693 36
694 32
708 49

$$$$

     RDKit          2D

 48 48  0  0  1  0  0  0  0  0999 V2000
   -3.8990   -6.7500    0.0000 C   0  0  0  0  0  0  0  0  0  0  0  0
   -5.1981   -4.5000    0.0000 C   0  0  0  0  0  0  0  0  0  0  0  0
    6.4970    2.2506    0.0000 C   0  0  0  0  0  0  0  0  0  0  0  0
    5.1983    0.0004    0.0000 C   0  0  0  0  0  0  0  0  0  0  0  0
   -6.4976    6.7504    0.0000 C   0  0  0  0  0  0  0  0  0  0  0  0
   -3.8995    6.7500    0.0000 C   0  0  0  0  0  0  0  0  0  0  0  0
    2.5987   -4.5002    0.0000 C   0  0  0  0  0  0  0  0  0  0  0  0
    3.8981   -2.2504    0.0000 C   0  0  0  0  0  0  0  0  0  0  0  0
   -7.7981   -0.0004    0.0000 C   0  0  0  0  0  0  0  0  0  0  0  0
   -6.4987   -2.2502    0.0000 C   0  0  0  0  0  0  0  0  0  0  0  0
    1.2990    6.7500    0.0000 C   0  0  0  0  0  0  0  0  0  0  0  0
   -1.2990    6.7500    0.0000 C   0  0  0  0  0  0  0  0  0  0  0  0
   -1.3000   -0.7500    0.0000 C   0  0  0  0  0  0  0  0  0  0  0  0
   -2.6011    1.4998    0.0000 C   0  0  0  0  0  0  0  0  0  0  0  0
    0.0011    1.4998    0.0000 C   0  0  0  0  0  0  0  0  0  0  0  0
   -2.6000   -4.5000    0.0000 C   0  0  0  0  0  0  0  0  0  0  0  0
    3.8989    2.2502    0.0000 C   0  0  0  0  0  0  0  0  0  0  0  0
   -5.1989    4.5002    0.0000 C   0  0  0  0  0  0  0  0  0  0  0  0
   -3.8990   -5.2500    0.0000 C   0  0  0  0  0  0  0  0  0  0  0  0
    5.1981    1.5004    0.0000 C   0  0  0  0  0  0  0  0  0  0  0  0
   -5.1987    6.0002    0.0000 C   0  0  0  0  0  0  0  0  0  0  0  0
    2.5989   -3.0002    0.0000 C   0  0  0  0  0  0  0  0  0  0  0  0
   -6.4989   -0.7502    0.0000 C   0  0  0  0  0  0  0  0  0  0  0  0
    0.0000    6.0000    0.0000 C   0  0  0  0  0  0  0  0  0  0  0  0
   -2.6000   -3.0000    0.0000 C   0  0  0  0  0  0  0  0  0  0  0  0
    2.6000    1.5000    0.0000 C   0  0  0  0  0  0  0  0  0  0  0  0
   -3.9000    3.7500    0.0000 C   0  0  0  0  0  0  0  0  0  0  0  0
    1.3000   -2.2500    0.0000 C   0  0  0  0  0  0  0  0  0  0  0  0
   -5.2000    0.0000    0.0000 C   0  0  0  0  0  0  0  0  0  0  0  0
    0.0000    4.5000    0.0000 C   0  0  0  0  0  0  0  0  0  0  0  0
   -0.0000   -3.0000    0.0000 C   0  0  0  0  0  0  0  0  0  0  0  0
   -5.2000    1.5000    0.0000 C   0  0  0  0  0  0  0  0  0  0  0  0
    1.3000    3.7500    0.0000 C   0  0  0  0  0  0  0  0  0  0  0  0
   -3.9000   -2.2500    0.0000 C   0  0  0  0  0  0  0  0  0  0  0  0
    2.6000   -0.0000    0.0000 C   0  0  0  0  0  0  0  0  0  0  0  0
   -2.6000    4.5000    0.0000 C   0  0  0  0  0  0  0  0  0  0  0  0
   -1.3000   -2.2500    0.0000 N   0  0  0  0  0  0  0  0  0  0  0  0
   -3.9000    2.2500    0.0000 N   0  0  0  0  0  0  0  0  0  0  0  0
    1.3000    2.2500    0.0000 N   0  0  0  0  0  0  0  0  0  0  0  0
   -0.0000   -4.5000    0.0000 O   0  0  0  0  0  0  0  0  0  0  0  0
   -6.4989    2.2502    0.0000 O   0  0  0  0  0  0  0  0  0  0  0  0
    2.5989    4.5002    0.0000 O   0  0  0  0  0  0  0  0  0  0  0  0
   -5.1989   -3.0002    0.0000 O   0  0  0  0  0  0  0  0  0  0  0  0
    3.8989   -0.7502    0.0000 O   0  0  0  0  0  0  0  0  0  0  0  0
   -2.6000    6.0000    0.0000 O   0  0  0  0  0  0  0  0  0  0  0  0
   -3.9000   -0.7500    0.0000 O   0  0  0  0  0  0  0  0  0  0  0  0
    1.3000   -0.7500    0.0000 O   0  0  0  0  0  0  0  0  0  0  0  0
   -1.3000    3.7500    0.0000 O   0  0  0  0  0  0  0  0  0  0  0  0
 19  1  1  0
 19  2  1  0
 19 16  1  0
 20  3  1  0
 20  4  1  0
 20 17  1  0
 21  5  1  0
 21  6  1  0
 21 18  1  0
 22  7  1  0
 22  8  1  0
 23  9  1  0
 23 10  1  0
 24 11  1  0
 24 12  1  0
 25 16  1  1
 26 17  1  1
 27 18  1  1
 28 22  1  6
 29 23  1  6
 30 24  1  6
 31 28  1  0
 32 29  1  0
 33 30  1  0
 34 25  1  0
 35 26  1  0
 36 27  1  0
 37 13  1  0
 37 25  1  0
 37 31  1  0
 38 14  1  0
 38 27  1  0
 38 32  1  0
 39 15  1  0
 39 26  1  0
 39 33  1  0
 40 31  2  0
 41 32  2  0
 42 33  2  0
 43 34  2  0
 44 35  2  0
 45 36  2  0
 29 46  1  0
 46 34  1  0
 28 47  1  0
 47 35  1  0
 30 48  1  0
 48 36  1  0
M  END
>  <NAME>  (5927) 
ENNIATIN-C

>  <SYNONYMS>  (5927) 


>  <SPECTRUM TYPE>  (5927) 
MS1

>  <INSTRUMENT TYPE>  (5927) 
EI-B

>  <INSTRUMENT>  (5927) 
JEOL JMS-01-SG-2

>  <ION MODE>  (5927) 
P

>  <INCHIKEY>  (5927) 
WICJNWLMJRLFKQ-NHODMIADSA-N

>  <FORMULA>  (5927) 
C36H63N3O9

>  <EXACT MASS>  (5927) 
681.456430596

>  <MW>  (5927) 
681

>  <ID>  (5927) 
JP000153

>  <CONTRIBUTOR>  (5927) 
University of Tokyo Team, {Faculty of Engineering, University of Tokyo

>  <COMMENT>  (5927) 
SMILES=CN(C(=O)1)C([H])(CC(C)C)C(=O)OC(C(N(C)C([H])(CC(C)C)C(=O)OC(C(N(C)C([H])(CC(C)C)C(=O)OC1(C(C)C)[H])=O)(C(C)C)[H])=O)(C(C)C)[H]
InChI=InChI=1S/C36H63N3O9/c1-19(2)16-25-34(43)46-29(23(9)10)32(41)38(14)27(18-21(5)6)36(45)48-30(24(11)12)33(42)39(15)26(17-20(3)4)35(44)47-28(22(7)8)31(40)37(25)13/h19-30H,16-18H2,1-15H3/t25-,26-,27-,28+,29+,30+/m0/s1
computed SMILES=O=C1OC(C(=O)N(C)C(C(=O)OC(C(=O)N(C)C(C(=O)OC(C(=O)N(C)C1CC(C)C)C(C)C)CC(C)C)C(C)C)CC(C)C)C(C)C
accession=JP000153
date=2016.01.19 (Created 2008.10.21, modified 2011.05.06)
author=FUKUSHIMA K, INST. FOR CHEMOBIODYNAMICS, CHIBA UNIV.
license=CC BY-NC-SA
exact mass=681.45643
ionization energy=70 eV
ion type=[M]+*
computed spectral entropy=4.208888152848811
computed normalized entropy=0.850493506672675
SPLASH=splash10-0gx0-3951123000-edde1fe096dc09ba0120
submitter=submitter = University of Tokyo Team (Faculty of Engineering, University of Tokyo)
MoNA Rating=3.75

>  <NUM PEAKS>  (5927) 
141

>  <MASS SPECTRAL PEAKS>  (5927) 
27 1.93
29 1.64
39 1.62
41 6.74
42 22.59
43 8.7
44 5.34
55 9.18
56 3.78
57 24.18
58 10.51
69 11.07
82 1.64
83 12.22
84 9.36
85 1.36
88 1.8
97 4.86
98 20.23
99 3.76
100 99.99
101 7.17
112 9.56
126 4.74
127 8.91
128 2.04
140 6.77
142 5.36
144 4.47
146 1.61
153 6.73
154 4.15
155 16.31
156 6.33
163 1.65
166 1.29
168 18.88
169 3.33
170 2.86
181 4.79
182 39.38
183 76.75
184 19.59
185 1.92
194 1.61
196 22.76
197 6.43
198 4.5
200 2.18
205 7.29
206 1.43
208 1.42
209 33.51
210 97.8
211 4.08
212 8.97
226 4.85
227 2.73
228 13.08
229 1.72
253 6.53
254 2.87
255 1.59
268 2.38
269 1.64
282 7.56
283 1.56
284 1.65
296 17.35
297 5.49
309 1.28
310 6.31
311 10.58
312 2.4
324 7.8
325 4.83
326 1.81
328 2.79
353 4.35
354 1.32
367 1.27
371 3.33
373 9.22
374 2.05
380 3.37
381 4.69
382 6.28
383 1.73
397 1.21
398 1.67
399 5.96
400 1.39
410 4.09
423 1.7
436 1.6
437 15.06
438 5.74
439 1.92
453 2.88
454 17.91
455 7.24
456 1.3
470 3.17
482 2.35
495 2.79
509 2.25
510 1.57
523 1.79
524 2.93
526 6.36
527 2.32
538 1.4
542 1.59
552 5.52
553 2.83
554 1.5
569 3.5
570 2.36
580 11.09
581 2.01
582 13.15
583 5.11
584 1.26
598 16.08
599 5.29
600 1.34
609 1.21
610 2.74
623 2.4
624 31.5
626 11.85
627 2.44
637 2.05
638 3.27
639 3.3
666 6.48
667 2.62
680 3.31
681 55.08
682 23.11
683 5.79

>  <PREDICTED SPECTRUM>  (5927) 
26 44
27 78
28 26
29 127
30 114
39 89
40 61
41 324
42 362
43 355
44 358
45 110
46 89
54 29
55 194
56 245
57 347
58 191
59 8
60 126
63 55
65 26
68 112
69 125
70 121
71 17
72 31
73 11
74 75
75 23
76 3
77 4
81 57
82 124
83 283
84 214
85 60
87 5
88 100
89 11
90 19
91 6
92 62
93 35
97 80
98 554
99 154
100 999
101 279
102 116
103 23
109 12
110 69
112 434
113 32
119 1
120 27
121 13
122 95
123 40
124 48
126 551
127 286
128 99
130 23
136 56
137 54
138 64
139 46
140 210
142 185
144 173
146 102
147 4
148 30
151 52
152 12
153 254
154 224
155 592
156 289
157 103
159 11
160 15
163 115
164 55
165 22
166 101
167 15
168 360
169 190
170 172
171 10
172 43
173 11
177 13
178 6
181 207
182 628
183 741
184 416
185 144
188 2
189 7
190 95
191 54
192 73
193 63
194 84
195 7
196 475
197 142
198 126
200 214
204 19
205 230
206 110
209 595
210 884
211 114
212 314
213 53
224 14
226 171
227 159
228 363
229 109
235 3
238 26
239 38
240 23
244 41
249 7
252 47
253 281
254 218
255 184
256 18
257 6
259 15
264 5
265 43
268 198
269 179
270 21
277 15
278 9
279 45
280 46
281 43
282 268
283 158
284 121
285 0
294 8
295 23
296 571
297 229
299 34
301 74
303 14
305 0
307 7
309 134
310 358
311 358
312 164
313 61
314 8
315 43
323 41
324 267
325 188
326 139
327 105
328 208
329 22
338 0
352 12
353 223
354 91
355 53
356 69
358 5
365 7
366 26
367 131
368 6
371 128
373 247
374 107
380 224
381 187
382 204
383 133
386 10
392 24
394 16
395 43
397 82
398 87
399 178
400 104
401 44
409 35
410 116
411 23
412 49
422 29
423 81
426 158
427 35
428 84
436 151
437 462
438 171
439 101
451 7
452 28
453 164
454 495
455 295
456 150
458 15
460 6
463 23
465 13
470 104
471 16
472 1
478 17
481 34
482 151
483 14
484 47
491 25
494 12
495 136
497 2
509 162
510 116
511 21
520 2
523 111
524 68
525 1
526 219
527 183
528 46
538 130
542 143
552 241
553 232
554 124
561 19
569 194
571 4
580 320
581 124
582 275
583 214
584 129
590 25
591 25
598 485
599 336
601 19
609 107
610 194
623 202
624 667
626 558
627 276
637 148
638 160
639 165
651 18
666 276
667 176
680 182
681 675
682 461
683 282

$$$$

     RDKit          2D

 39 43  0  0  1  0  0  0  0  0999 V2000
    8.2885    3.8387    0.0000 C   0  0  0  0  0  0  0  0  0  0  0  0
    0.2405   -6.9773    0.0000 C   0  0  0  0  0  0  0  0  0  0  0  0
   -6.2153   -0.1986    0.0000 C   0  0  0  0  0  0  0  0  0  0  0  0
    5.8036    2.1026    0.0000 C   0  0  0  0  0  0  0  0  0  0  0  0
   -2.3579   -6.9612    0.0000 C   0  0  0  0  0  0  0  0  0  0  0  0
   10.1158    1.9929    0.0000 C   0  0  0  0  0  0  0  0  0  0  0  0
    3.4171    2.8926    0.0000 C   0  0  0  0  0  0  0  0  0  0  0  0
    2.8652   -2.4944    0.0000 C   0  0  0  0  0  0  0  0  0  0  0  0
   -1.0192   -0.2225    0.0000 C   0  0  0  0  0  0  0  0  0  0  0  0
    1.2048    1.2256    0.0000 C   0  0  0  0  0  0  0  0  0  0  0  0
    7.2222    2.7837    0.0000 C   0  0  0  0  0  0  0  0  0  0  0  0
    0.2496   -5.4773    0.0000 C   0  0  0  0  0  0  0  0  0  0  0  0
   -4.9197   -0.9545    0.0000 C   0  0  0  0  0  0  0  0  0  0  0  0
    1.9639    2.5113    0.0000 C   0  0  0  0  0  0  0  0  0  0  0  0
    4.7088    2.1256    0.0000 C   0  0  0  0  0  0  0  0  0  0  0  0
    1.5619   -3.2351    0.0000 C   0  0  0  0  0  0  0  0  0  0  0  0
    2.8779   -0.9946    0.0000 C   0  0  0  0  0  0  0  0  0  0  0  0
    0.2764   -0.9785    0.0000 C   0  0  0  0  0  0  0  0  0  0  0  0
    0.2683   -2.4776    0.0000 C   0  0  0  0  0  0  0  0  0  0  0  0
    5.0901    0.6724    0.0000 C   0  0  0  0  0  0  0  0  0  0  0  0
    4.3230   -0.6193    0.0000 C   0  0  0  0  0  0  0  0  0  0  0  0
    5.7758    3.1797    0.0000 C   0  0  0  0  0  0  0  0  0  0  0  0
    1.5532   -4.7351    0.0000 C   0  0  0  0  0  0  0  0  0  0  0  0
   -1.0356   -3.2192    0.0000 C   0  0  0  0  0  0  0  0  0  0  0  0
    6.5372    0.2780    0.0000 C   0  0  0  0  0  0  0  0  0  0  0  0
   -1.0450   -4.7193    0.0000 C   0  0  0  0  0  0  0  0  0  0  0  0
    7.6029    1.3331    0.0000 C   0  0  0  0  0  0  0  0  0  0  0  0
   -3.6172   -0.2105    0.0000 C   0  0  0  0  0  0  0  0  0  0  0  0
   -2.3217   -0.9665    0.0000 N   0  0  0  0  0  0  0  0  0  0  0  0
    3.9102    1.5237    0.0000 N   0  0  0  0  0  0  0  0  0  0  0  0
    1.5782   -0.2336    0.0000 N   0  0  0  0  0  0  0  0  0  0  0  0
   -4.9266   -2.4545    0.0000 O   0  0  0  0  0  0  0  0  0  0  0  0
    5.3960    4.6308    0.0000 O   0  0  0  0  0  0  0  0  0  0  0  0
    2.8478   -5.4927    0.0000 O   0  0  0  0  0  0  0  0  0  0  0  0
   -2.3299   -2.4609    0.0000 O   0  0  0  0  0  0  0  0  0  0  0  0
    6.9188   -1.1727    0.0000 O   0  0  0  0  0  0  0  0  0  0  0  0
   -3.6103    1.2894    0.0000 O   0  0  0  0  0  0  0  0  0  0  0  0
   -2.3486   -5.4612    0.0000 O   0  0  0  0  0  0  0  0  0  0  0  0
    9.0498    0.9376    0.0000 O   0  0  0  0  0  0  0  0  0  0  0  0
 11  1  1  0
 12  2  1  0
 13  3  1  0
 14  7  1  1
 14 10  1  0
 15  7  1  0
 16  8  1  0
 17  8  1  6
 18  9  1  6
 19 16  2  0
 19 18  1  0
 20 15  2  0
 21 17  1  0
 21 20  1  1
 22 11  1  0
 22 15  1  0
 23 12  1  0
 23 16  1  0
 24 19  1  0
 25 20  1  0
 26 12  2  0
 26 24  1  0
 27 11  2  0
 27 25  1  0
 28 13  1  0
 29  9  1  0
 29 28  1  0
 30  4  1  0
 14 30  1  0
 21 30  1  0
 31 10  1  0
 17 31  1  0
 31 18  1  0
 32 13  2  0
 33 22  2  0
 34 23  2  0
 35 24  2  0
 36 25  2  0
 37 28  2  0
 38  5  1  0
 38 26  1  0
 39  6  1  0
 39 27  1  0
M  END
>  <NAME>  (5928) 
SAFRAMYCIN-B

>  <SYNONYMS>  (5928) 


>  <SPECTRUM TYPE>  (5928) 
MS1

>  <INSTRUMENT TYPE>  (5928) 
EI-B

>  <INSTRUMENT>  (5928) 
JEOL JMS-01-SG-2

>  <ION MODE>  (5928) 
P

>  <INCHIKEY>  (5928) 
KOHPLTGVBZMVDW-BBTHKVSRSA-N

>  <FORMULA>  (5928) 
C28H31N3O8

>  <EXACT MASS>  (5928) 
537.211114952

>  <MW>  (5928) 
537

>  <ID>  (5928) 
JP000147

>  <CONTRIBUTOR>  (5928) 
University of Tokyo Team, {Faculty of Engineering, University of Tokyo

>  <COMMENT>  (5928) 
SMILES=CC1=C(C(=O)C2=C(C1=O)C[C@@H]3CN4[C@H]([C@H]2N3C)CC5=C([C@@H]4CNC(=O)C(=O)C)C(=O)C(=C(C5=O)C)OC)OC
InChI=InChI=1S/C28H31N3O8/c1-11-22(33)15-7-14-10-31-17(21(30(14)4)20(15)25(36)27(11)39-6)8-16-19(18(31)9-29-28(37)13(3)32)24(35)26(38-5)12(2)23(16)34/h14,17-18,21H,7-10H2,1-6H3,(H,29,37)/t14-,17+,18+,21-/m1/s1
computed SMILES=O=C(NCC1C=2C(=O)C(OC)=C(C(=O)C2CC3N1CC4N(C)C3C=5C(=O)C(OC)=C(C(=O)C5C4)C)C)C(=O)C
accession=JP000147
date=2016.01.19 (Created 2008.10.21, modified 2011.05.06)
author=FUKUSHIMA K, INST. FOR CHEMOBIODYNAMICS, CHIBA UNIV.
license=CC BY-NC-SA
exact mass=537.21111
ionization energy=70 eV
ion type=[M]+*
computed spectral entropy=4.729560438666731
computed normalized entropy=0.8837230585547772
SPLASH=splash10-000i-5691300000-5e8c712d55b0fd18ad0f
submitter=submitter = University of Tokyo Team (Faculty of Engineering, University of Tokyo)
MoNA Rating=3.75

>  <NUM PEAKS>  (5928) 
211

>  <MASS SPECTRAL PEAKS>  (5928) 
32 4.12
40 3.22
43 11.69
51 1.94
53 1.8
54 1.11
55 5.95
57 49.02
63 1.5
66 1
67 3.95
69 7.04
70 3.98
71 24.69
72 5.73
76 1.03
77 3.59
79 3.92
80 3.06
81 21.21
82 2.86
83 7.82
84 5.54
85 22.49
86 1.55
88 2.33
90 2.36
91 7.26
92 1.5
93 2.67
94 4.84
96 5.51
97 11.97
99 13.22
106 4.28
107 2.25
108 10.67
109 2.22
110 1.97
111 8.65
112 5.23
113 9.79
118 4.87
119 3.42
120 2.31
121 5.03
122 2.86
123 12.11
124 3.56
125 7.04
126 7.51
127 8.1
132 4.06
133 3.31
135 8.07
136 7.79
137 14.11
138 4.59
139 4.14
140 7.82
141 2.28
142 4.73
145 1.05
147 1.8
148 3.73
149 4.54
150 1
153 2.72
154 4.7
155 13.83
159 2.86
160 3.17
161 3.36
162 2.75
163 6.87
166 3.31
167 4.14
169 1.64
172 1.5
173 1.53
174 3.09
175 6.34
176 8.93
177 4.48
178 6.15
179 1.53
180 2.97
182 5.65
183 5.54
186 7.9
187 4.23
188 4.2
189 7.4
190 12.61
191 9.07
192 4.59
193 3.17
196 3.61
198 1.55
202 6.9
203 11.24
204 17.04
205 8.18
206 6.93
207 4.73
208 1.08
209 2.5
210 3.81
211 28.78
212 2.95
215 2.36
216 6.48
217 3.75
218 38.05
219 21.13
220 54.03
221 9.24
222 4.87
223 3.95
224 4.2
226 1.33
230 1.36
231 2.22
232 5.51
234 44.65
235 19.79
236 15.22
237 2.25
238 1.3
239 2.06
240 1.78
246 2.19
247 1.61
250 4.28
252 3.2
253 6.12
254 2.5
258 1.11
259 7.21
260 6.09
261 1.58
262 9.6
263 4.03
265 1.69
266 4.98
267 3.34
268 2.56
269 2.25
270 1.67
273 1.83
274 2.06
276 6.62
280 2.81
281 2.42
282 1.55
288 1.44
290 3.53
292 1.19
293 1.61
294 2.44
295 2.36
296 2.72
298 1.28
299 1
302 1
304 1.16
306 1.39
308 2.33
309 2.44
310 7.54
319 11.35
320 1.25
322 3
324 6.9
325 1.39
330 1.22
331 1.25
338 13.89
339 2.17
350 1.16
351 1.16
352 3.2
353 1.67
354 5.59
355 1.75
366 4.42
367 1.69
372 1.67
380 3.84
381 1.78
386 2.31
394 2.08
400 1.92
405 1.61
408 1.28
410 3.59
411 1
431 1
437 99.99
438 32.96
439 6.45
440 1.33
443 1.25
453 6.95
454 1.11
493 1.36
505 1.16
537 33.04
538 7.54
553 1.44
555 1.3

>  <PREDICTED SPECTRUM>  (5928) 
39 66
40 66
41 309
42 65
43 705
44 410
45 171
48 165
50 49
51 219
52 58
53 395
54 170
55 504
56 386
57 369
58 1
59 240
60 73
63 218
64 89
65 329
66 193
67 687
68 164
69 321
70 256
71 167
73 121
74 139
76 71
77 743
78 334
79 567
80 248
81 229
82 486
83 326
84 200
85 78
86 385
87 301
89 36
91 999
92 226
93 389
94 273
95 430
96 256
97 144
98 144
99 182
100 264
101 171
102 159
103 315
104 215
105 127
106 5
107 139
108 34
109 67
110 177
111 200
112 323
113 36
114 161
115 218
116 274
117 277
118 296
119 267
121 103
122 151
123 23
124 308
125 150
126 287
127 331
128 123
129 148
130 425
131 176
132 273
133 185
134 230
135 73
136 86
138 80
140 253
141 219
142 285
143 207
144 205
145 444
146 527
147 147
148 281
149 133
150 175
152 169
154 212
155 237
158 308
159 387
160 496
161 363
162 318
163 197
164 128
165 32
166 100
167 103
168 22
169 225
170 286
171 339
172 484
173 447
174 603
175 297
176 527
177 329
178 51
179 88
180 119
182 21
183 129
184 151
185 50
186 375
187 373
188 877
189 734
190 579
191 474
192 227
193 76
194 1
196 23
198 47
199 82
200 87
201 225
202 485
203 444
204 509
205 433
206 283
207 266
208 129
209 144
210 214
211 29
212 163
213 95
214 216
215 18
216 113
217 140
218 235
219 91
220 378
221 314
222 440
223 178
224 292
225 117
226 31
227 25
228 174
229 146
230 291
231 32
232 249
234 185
235 136
237 51
238 84
240 109
241 192
242 58
243 93
244 118
248 163
251 157
252 2
255 72
256 140
257 148
258 58
259 72
264 118
265 532
270 6
271 33
272 70
280 52
298 44
317 66
437 182
450 0
463 7
467 892
468 746
469 238
470 70
517 13
537 759
538 368
539 267

$$$$

     RDKit          2D

 41 45  0  0  1  0  0  0  0  0999 V2000
    0.2405   -6.9773    0.0000 C   0  0  0  0  0  0  0  0  0  0  0  0
    8.2885    3.8387    0.0000 C   0  0  0  0  0  0  0  0  0  0  0  0
   -6.2153   -0.1986    0.0000 C   0  0  0  0  0  0  0  0  0  0  0  0
    5.8036    2.1026    0.0000 C   0  0  0  0  0  0  0  0  0  0  0  0
   -2.3579   -6.9612    0.0000 C   0  0  0  0  0  0  0  0  0  0  0  0
   10.1158    1.9929    0.0000 C   0  0  0  0  0  0  0  0  0  0  0  0
    3.4171    2.8926    0.0000 C   0  0  0  0  0  0  0  0  0  0  0  0
    2.8652   -2.4944    0.0000 C   0  0  0  0  0  0  0  0  0  0  0  0
   -0.2802    1.4370    0.0000 C   0  0  0  0  0  0  0  0  0  0  0  0
   -1.0192   -0.2225    0.0000 C   0  0  0  0  0  0  0  0  0  0  0  0
    0.2496   -5.4773    0.0000 C   0  0  0  0  0  0  0  0  0  0  0  0
    7.2222    2.7837    0.0000 C   0  0  0  0  0  0  0  0  0  0  0  0
   -4.9197   -0.9545    0.0000 C   0  0  0  0  0  0  0  0  0  0  0  0
    1.5619   -3.2351    0.0000 C   0  0  0  0  0  0  0  0  0  0  0  0
    4.7088    2.1256    0.0000 C   0  0  0  0  0  0  0  0  0  0  0  0
    1.9639    2.5113    0.0000 C   0  0  0  0  0  0  0  0  0  0  0  0
    2.8779   -0.9946    0.0000 C   0  0  0  0  0  0  0  0  0  0  0  0
    1.2048    1.2256    0.0000 C   0  0  0  0  0  0  0  0  0  0  0  0
    0.2764   -0.9785    0.0000 C   0  0  0  0  0  0  0  0  0  0  0  0
    0.2683   -2.4776    0.0000 C   0  0  0  0  0  0  0  0  0  0  0  0
    5.0901    0.6724    0.0000 C   0  0  0  0  0  0  0  0  0  0  0  0
    4.3230   -0.6193    0.0000 C   0  0  0  0  0  0  0  0  0  0  0  0
    1.5532   -4.7351    0.0000 C   0  0  0  0  0  0  0  0  0  0  0  0
    5.7758    3.1797    0.0000 C   0  0  0  0  0  0  0  0  0  0  0  0
   -1.0356   -3.2192    0.0000 C   0  0  0  0  0  0  0  0  0  0  0  0
    6.5372    0.2780    0.0000 C   0  0  0  0  0  0  0  0  0  0  0  0
   -1.0450   -4.7193    0.0000 C   0  0  0  0  0  0  0  0  0  0  0  0
    7.6029    1.3331    0.0000 C   0  0  0  0  0  0  0  0  0  0  0  0
   -3.6172   -0.2105    0.0000 C   0  0  0  0  0  0  0  0  0  0  0  0
   -1.7652    1.6485    0.0000 N   0  0  0  0  0  0  0  0  0  0  0  0
   -2.3217   -0.9665    0.0000 N   0  0  0  0  0  0  0  0  0  0  0  0
    3.9102    1.5237    0.0000 N   0  0  0  0  0  0  0  0  0  0  0  0
    1.5782   -0.2336    0.0000 N   0  0  0  0  0  0  0  0  0  0  0  0
   -4.9266   -2.4545    0.0000 O   0  0  0  0  0  0  0  0  0  0  0  0
    2.8478   -5.4927    0.0000 O   0  0  0  0  0  0  0  0  0  0  0  0
    5.3960    4.6308    0.0000 O   0  0  0  0  0  0  0  0  0  0  0  0
   -2.3299   -2.4609    0.0000 O   0  0  0  0  0  0  0  0  0  0  0  0
    6.9188   -1.1727    0.0000 O   0  0  0  0  0  0  0  0  0  0  0  0
   -3.6103    1.2894    0.0000 O   0  0  0  0  0  0  0  0  0  0  0  0
   -2.3486   -5.4612    0.0000 O   0  0  0  0  0  0  0  0  0  0  0  0
    9.0498    0.9376    0.0000 O   0  0  0  0  0  0  0  0  0  0  0  0
 11  1  1  0
 12  2  1  0
 13  3  1  0
 14  8  1  0
 15  7  1  0
 16  7  1  0
 17  8  1  6
 18  9  1  1
 18 16  1  0
 19 10  1  6
 20 14  2  0
 20 19  1  0
 21 15  2  0
 22 17  1  0
 22 21  1  0
 23 11  1  0
 23 14  1  0
 24 12  1  0
 24 15  1  0
 25 20  1  0
 26 21  1  0
 27 11  2  0
 27 25  1  0
 28 12  2  0
 28 26  1  0
 29 13  1  0
 30  9  3  0
 31 10  1  0
 31 29  1  0
 32  4  1  0
 32 16  1  0
 32 22  1  0
 17 33  1  0
 33 18  1  0
 33 19  1  0
 34 13  2  0
 35 23  2  0
 36 24  2  0
 37 25  2  0
 38 26  2  0
 39 29  2  0
 40  5  1  0
 40 27  1  0
 41  6  1  0
 41 28  1  0
M  END
>  <NAME>  (5929) 
SAFRAMYCIN-A

>  <SYNONYMS>  (5929) 


>  <SPECTRUM TYPE>  (5929) 
MS1

>  <INSTRUMENT TYPE>  (5929) 
EI-B

>  <INSTRUMENT>  (5929) 
JEOL JMS-01-SG-2

>  <ION MODE>  (5929) 
P

>  <INCHIKEY>  (5929) 
JNEGMBHBUAJRSX-KRPZRDOVSA-N

>  <FORMULA>  (5929) 
C29H30N4O8

>  <EXACT MASS>  (5929) 
562.20636392

>  <MW>  (5929) 
562

>  <ID>  (5929) 
JP000145

>  <CONTRIBUTOR>  (5929) 
University of Tokyo Team, {Faculty of Engineering, University of Tokyo

>  <COMMENT>  (5929) 
SMILES=O=C(C(C)=O)NCC(N52)(c(c1=O)c(CC2(C(c34)(N(C)C(C5([H])C#N)([H])Cc3c(c(c(OC)c4=O)C)=O)[H])[H])c(c(c(OC)1)C)=O)[H]
InChI=InChI=1S/C29H30N4O8/c1-11-23(35)14-8-17-22-21-15(24(36)12(2)28(41-6)26(21)38)7-16(32(22)4)18(9-30)33(17)19(10-31-29(39)13(3)34)20(14)25(37)27(11)40-5/h16-19,22H,7-8,10H2,1-6H3,(H,31,39)/t16?,17-,18-,19-,22?/m0/s1
computed SMILES=N#CC1N2C(C=3C(=O)C(OC)=C(C(=O)C3CC2C4C=5C(=O)C(OC)=C(C(=O)C5CC1N4C)C)C)CNC(=O)C(=O)C
ionization energy=70 eV
accession=JP000145
date=2016.01.19 (Created 2008.10.21, modified 2011.05.06)
author=FUKUSHIMA K, INST. FOR CHEMOBIODYNAMICS, CHIBA UNIV.
license=CC BY-NC-SA
exact mass=562.20636
ion type=[M]+*
computed spectral entropy=4.348659154264947
computed normalized entropy=0.8557986812132483
SPLASH=splash10-0097-9340000000-eb43a27ba6d47e203212
submitter=submitter = University of Tokyo Team (Faculty of Engineering, University of Tokyo)
MoNA Rating=3.75

>  <NUM PEAKS>  (5929) 
161

>  <MASS SPECTRAL PEAKS>  (5929) 
14 1.75
15 9.46
16 15.21
19 17.13
20 10.52
25 1.06
26 6.75
27 51.19
28 70.29
29 15.66
30 5.44
31 22.08
32 13.22
35 1.01
36 10.11
38 1.79
39 11.91
40 3.08
41 37.07
42 9.76
43 14.67
44 78.6
45 11.2
46 7.86
50 6.16
51 5.75
52 2.3
53 4.97
54 4.14
55 20.18
56 17.85
57 10.93
58 4.1
59 7.73
60 3.52
63 4.82
64 1.49
65 7.77
67 6.02
68 4.16
69 6.91
70 3.43
71 3.81
72 2.09
73 4.56
74 3.76
75 2.05
76 5.65
77 8.82
78 4.49
79 7.14
80 1.41
81 4.92
82 2.9
83 6.01
84 2.21
87 5.8
89 3.67
90 3.43
91 5.77
92 3.22
93 5.72
94 2.78
95 4.24
98 2.43
99 2.79
100 1.93
101 5.29
102 3.33
103 3.79
104 8.14
105 7.95
106 2.26
107 2.94
109 1.79
110 1.61
115 3.48
116 3.69
117 7.52
118 2.71
119 2.39
120 1.08
121 3.23
122 1.68
123 1.13
128 2.09
129 4.16
130 2.99
131 8.23
132 3.53
133 1.28
143 2.3
144 3.66
145 3.28
146 2.49
147 3.2
148 1.54
149 99.99
150 9.27
153 1.25
156 2.92
157 2.6
158 2.09
159 2.53
160 4.22
161 2.71
162 1.19
163 2.27
167 1.19
171 1.53
172 1.75
173 2.52
174 2.35
175 2.24
176 7.5
177 1.19
181 1.86
185 2.26
186 4.62
187 2.64
188 4.38
189 2.55
190 5.65
191 1.66
192 2
199 1.77
200 3.3
201 4.8
202 3.13
203 9.82
204 13.5
205 15.02
206 4.32
213 1.66
214 1.74
215 3.97
216 7.82
218 28.01
219 9.4
220 89.94
221 17.83
222 2.03
223 8.62
227 1.46
228 1.41
229 4.72
230 1.41
242 5.58
243 50.92
244 13.07
245 6.35
259 11.83
260 9.64
278 3.86
343 1.06
460 2.16
462 11.27
463 4.75
464 7.53
465 1.69
562 1.4

>  <PREDICTED SPECTRUM>  (5929) 
33 11
39 280
40 306
41 435
42 306
43 458
44 744
45 93
48 82
49 71
50 216
51 342
52 241
53 679
54 447
55 603
56 395
57 113
58 294
59 261
60 81
62 34
63 326
64 204
65 531
66 551
67 999
68 420
69 278
70 372
71 279
73 366
74 15
75 86
76 194
77 719
78 269
79 530
80 210
81 409
82 565
83 592
84 403
85 243
86 167
87 44
89 101
91 689
92 442
93 479
94 440
95 582
96 380
97 347
98 213
99 234
100 24
101 172
102 211
103 436
104 212
105 422
106 286
107 529
108 331
109 428
110 338
111 635
112 358
113 170
115 187
116 214
117 277
118 299
119 298
120 240
121 151
122 354
123 467
124 284
125 835
126 241
127 289
128 387
129 170
130 116
133 173
134 176
135 331
136 335
137 639
138 703
139 390
140 362
141 370
143 226
144 184
147 27
148 34
149 390
150 158
151 338
152 877
153 393
154 491
155 639
156 288
157 239
158 169
159 225
160 113
161 60
162 119
163 208
164 118
165 383
166 380
167 470
168 337
169 450
170 512
171 570
172 287
173 254
174 108
175 81
177 125
178 290
179 602
180 443
181 165
182 168
183 424
184 411
185 550
186 440
187 323
188 207
189 188
190 75
191 196
192 242
193 295
194 405
195 365
196 248
197 514
198 422
199 582
200 246
201 530
202 389
203 214
204 43
205 234
206 216
208 277
209 348
210 852
211 409
212 425
213 740
214 609
215 543
216 426
217 294
218 195
219 112
220 115
221 105
223 186
224 194
225 261
226 189
227 353
228 468
229 613
230 441
231 362
232 221
233 222
234 189
235 289
236 83
237 196
238 241
239 355
240 38
241 228
242 180
243 411
244 149
245 20
246 258
247 422
248 99
249 115
250 99
251 29
252 38
253 222
254 105
255 368
256 40
257 150
258 34
259 209
260 200
262 56
263 1
264 114
265 468
266 144
267 167
268 157
269 132
274 78
275 101
276 323
277 189
278 190
280 15
281 154
282 198
283 122
284 5
295 88
296 66
297 177
309 26
317 257
324 102
336 184
338 0
340 56
350 7
364 39
365 19
366 138
424 300
437 120
466 123
467 800
468 910
469 133
484 312
499 13
509 146
510 145
517 101
562 611
563 126
564 186
565 7

$$$$

     RDKit          2D

 46 52  0  0  0  0  0  0  0  0999 V2000
    3.0000    4.3500    0.0000 C   0  0  0  0  0  0  0  0  0  0  0  0
   -6.1944    6.6023    0.0000 C   0  0  0  0  0  0  0  0  0  0  0  0
  -11.3634    0.5811    0.0000 C   0  0  0  0  0  0  0  0  0  0  0  0
  -10.0679   -4.6640    0.0000 C   0  0  0  0  0  0  0  0  0  0  0  0
   -4.8500   -1.6500    0.0000 C   0  0  0  0  0  0  0  0  0  0  0  0
   -3.5500   -2.4000    0.0000 C   0  0  0  0  0  0  0  0  0  0  0  0
   -4.8500   -0.1500    0.0000 C   0  0  0  0  0  0  0  0  0  0  0  0
    4.3000    2.1000    0.0000 C   0  0  0  0  0  0  0  0  0  0  0  0
    4.3000    0.6000    0.0000 C   0  0  0  0  0  0  0  0  0  0  0  0
    3.0000    2.8500    0.0000 C   0  0  0  0  0  0  0  0  0  0  0  0
   -6.1877    5.1023    0.0000 C   0  0  0  0  0  0  0  0  0  0  0  0
  -10.0640   -0.1683    0.0000 C   0  0  0  0  0  0  0  0  0  0  0  0
   -2.2000   -1.6500    0.0000 C   0  0  0  0  0  0  0  0  0  0  0  0
   -3.5500    0.6000    0.0000 C   0  0  0  0  0  0  0  0  0  0  0  0
    3.0000   -0.1500    0.0000 C   0  0  0  0  0  0  0  0  0  0  0  0
    1.7000    2.1000    0.0000 C   0  0  0  0  0  0  0  0  0  0  0  0
   -2.2000   -0.1500    0.0000 C   0  0  0  0  0  0  0  0  0  0  0  0
    1.7000    0.6000    0.0000 C   0  0  0  0  0  0  0  0  0  0  0  0
    0.4000   -0.1500    0.0000 C   0  0  0  0  0  0  0  0  0  0  0  0
    0.4000   -1.6500    0.0000 C   0  0  0  0  0  0  0  0  0  0  0  0
   -7.4746    4.3513    0.0000 C   0  0  0  0  0  0  0  0  0  0  0  0
  -10.0632   -1.6583    0.0000 C   0  0  0  0  0  0  0  0  0  0  0  0
   -0.9000   -2.4000    0.0000 C   0  0  0  0  0  0  0  0  0  0  0  0
   -7.4758    2.8455    0.0000 C   0  0  0  0  0  0  0  0  0  0  0  0
   -7.4432   -1.6568    0.0000 C   0  0  0  0  0  0  0  0  0  0  0  0
   -0.9000    0.6000    0.0000 C   0  0  0  0  0  0  0  0  0  0  0  0
   -8.7627   -2.4176    0.0000 C   0  0  0  0  0  0  0  0  0  0  0  0
   -6.1541    2.0884    0.0000 C   0  0  0  0  0  0  0  0  0  0  0  0
    0.4000    2.8500    0.0000 C   0  0  0  0  0  0  0  0  0  0  0  0
    1.7000   -2.4000    0.0000 C   0  0  0  0  0  0  0  0  0  0  0  0
   -7.4440   -0.1668    0.0000 C   0  0  0  0  0  0  0  0  0  0  0  0
   -4.8672    2.8394    0.0000 C   0  0  0  0  0  0  0  0  0  0  0  0
   -8.7751    5.0988    0.0000 O   0  0  0  0  0  0  0  0  0  0  0  0
  -11.3638   -2.4056    0.0000 O   0  0  0  0  0  0  0  0  0  0  0  0
   -0.9000   -3.9000    0.0000 O   0  0  0  0  0  0  0  0  0  0  0  0
   -8.7739    2.0938    0.0000 O   0  0  0  0  0  0  0  0  0  0  0  0
   -6.1441   -2.4068    0.0000 O   0  0  0  0  0  0  0  0  0  0  0  0
    0.4000    4.3500    0.0000 O   0  0  0  0  0  0  0  0  0  0  0  0
    1.7000   -3.9000    0.0000 O   0  0  0  0  0  0  0  0  0  0  0  0
   -8.7668   -3.9176    0.0000 O   0  0  0  0  0  0  0  0  0  0  0  0
   -8.7645    0.5824    0.0000 O   0  0  0  0  0  0  0  0  0  0  0  0
   -4.8847    4.3575    0.0000 O   0  0  0  0  0  0  0  0  0  0  0  0
    3.0000   -1.6500    0.0000 O   0  0  0  0  0  0  0  0  0  0  0  0
   -3.5621    2.1000    0.0000 O   0  0  0  0  0  0  0  0  0  0  0  0
   -0.9000    2.1000    0.0000 O   0  0  0  0  0  0  0  0  0  0  0  0
   -6.1480    0.5885    0.0000 O   0  0  0  0  0  0  0  0  0  0  0  0
  6  5  2  0
  7  5  1  0
  9  8  2  0
 10  1  1  0
 10  8  1  0
 11  2  1  0
 12  3  1  0
 13  6  1  0
 14  7  2  0
 15  9  1  0
 16 10  2  0
 17 13  2  0
 17 14  1  0
 18 15  2  0
 18 16  1  0
 19 18  1  0
 20 19  1  0
 21 11  1  0
 22 12  1  0
 23 13  1  0
 23 20  2  0
 24 21  1  0
 26 17  1  0
 26 19  2  0
 27 22  1  0
 27 25  1  0
 28 24  1  0
 29 16  1  0
 30 20  1  0
 31 25  1  0
 32 28  1  0
 33 21  1  0
 34 22  1  0
 35 23  1  0
 36 24  1  0
 37 25  1  0
 38 29  2  0
 39 30  2  0
 40  4  1  0
 40 27  1  0
 41 12  1  0
 41 31  1  0
 42 11  1  0
 42 32  1  0
 43 15  1  0
 43 30  1  0
 44 14  1  0
 44 32  1  0
 45 26  1  0
 45 29  1  0
 46 28  1  0
 46 31  1  0
M  END
>  <NAME>  (5930) 
CHARTREUSIN

>  <SYNONYMS>  (5930) 


>  <SPECTRUM TYPE>  (5930) 
MS1

>  <INSTRUMENT TYPE>  (5930) 
EI-B

>  <INSTRUMENT>  (5930) 
JEOL JMS-01-SG-2

>  <ION MODE>  (5930) 
P

>  <INCHIKEY>  (5930) 
PONPPNYZKHNPKZ-UHFFFAOYSA-N

>  <FORMULA>  (5930) 
C32H32O14

>  <EXACT MASS>  (5930) 
640.179205704

>  <MW>  (5930) 
640

>  <ID>  (5930) 
JP000142

>  <CONTRIBUTOR>  (5930) 
University of Tokyo Team, {Faculty of Engineering, University of Tokyo

>  <COMMENT>  (5930) 
SMILES=[H]C(O)(C(OC)7[H])C([H])(C)OC(C7([H])O)(OC([H])(C([H])(O)1)C(Oc(c25)cccc(c(O)c(c64)C(Oc(c36)ccc(c3C(=O)Oc45)C)=O)2)(OC([H])(C)C1([H])O)[H])[H]
InChI=InChI=1S/C32H32O14/c1-10-8-9-15-18-16(10)29(38)45-26-17-13(23(35)20(19(18)26)30(39)43-15)6-5-7-14(17)44-32-28(24(36)21(33)11(2)42-32)46-31-25(37)27(40-4)22(34)12(3)41-31/h5-9,11-12,21-22,24-25,27-28,31-37H,1-4H3
computed SMILES=O=C1OC2=CC=C(C=3C(=O)OC=4C=5C(OC6OC(C)C(O)C(O)C6OC7OC(C)C(O)C(OC)C7O)=CC=CC5C(O)=C1C4C23)C
accession=JP000142
date=2016.01.19 (Created 2008.10.21, modified 2011.05.06)
author=FUKUSHIMA K, INST. FOR CHEMOBIODYNAMICS, CHIBA UNIV.
license=CC BY-NC-SA
exact mass=640.17921
ionization energy=70 eV
ion type=[M]+*
computed spectral entropy=2.9039418783525845
computed normalized entropy=0.8103604105978834
SPLASH=splash10-001r-9207000000-c6a2934dedf127804e88
submitter=submitter = University of Tokyo Team (Faculty of Engineering, University of Tokyo)
MoNA Rating=3.75

>  <NUM PEAKS>  (5930) 
36

>  <MASS SPECTRAL PEAKS>  (5930) 
27 3.2
28 10.4
29 4.72
39 2.6
41 5.22
43 6.39
44 14.64
45 5.07
55 3.86
57 6.12
58 5.11
59 4.84
60 2.85
71 2.55
73 6.6
74 7.57
75 5.57
83 2.97
85 6.04
87 33.04
88 3.32
89 6.74
101 4.98
111 4.46
129 4.8
143 2.8
146 16.46
157 2.43
161 2.91
165 3.55
167 5.16
250 5.01
306 5.3
334 99.99
335 21.73
336 3.68

>  <PREDICTED SPECTRUM>  (5930) 
38 13
39 61
41 93
42 18
43 122
44 31
45 17
47 21
48 5
49 14
50 24
55 71
56 56
57 106
58 86
59 106
60 43
61 140
63 4
65 28
67 54
68 31
69 129
70 48
71 76
73 165
74 284
75 205
79 2
81 27
82 94
83 17
85 111
87 217
88 6
89 82
95 33
96 58
97 120
99 95
100 41
101 99
103 45
109 14
115 85
116 32
117 5
121 7
126 11
127 126
128 26
129 96
130 58
131 34
135 15
138 31
139 105
143 38
146 62
147 24
156 5
157 61
163 10
164 9
165 178
175 52
177 52
187 2
188 20
190 29
191 40
193 19
205 97
206 93
207 13
211 36
217 8
219 57
223 18
229 51
231 5
233 57
247 12
249 27
253 35
261 13
277 145
278 25
291 34
303 101
304 1
305 209
306 157
307 7
309 20
318 46
321 6
332 20
333 118
334 999
335 359
336 201
337 74
338 34
347 11
348 24
349 8
350 9
353 2
355 20
359 46
361 19
376 12
392 17
408 28
461 3
463 34
464 2

$$$$

     RDKit          2D

 28 32  0  0  0  0  0  0  0  0999 V2000
    1.0369    0.3559    0.0000 C   0  0  0  0  0  0  0  0  0  0  0  0
   -5.5903    1.9454    0.0000 C   0  0  0  0  0  0  0  0  0  0  0  0
   -0.2622    0.0859    0.0000 C   0  0  0  0  0  0  0  0  0  0  0  0
    1.0369    0.8359    0.0000 C   0  0  0  0  0  0  0  0  0  0  0  0
   -1.5612    0.8359    0.0000 C   0  0  0  0  0  0  0  0  0  0  0  0
    1.0369    2.3359    0.0000 C   0  0  0  0  0  0  0  0  0  0  0  0
   -4.1132    1.6845    0.0000 C   0  0  0  0  0  0  0  0  0  0  0  0
    1.0369    2.3359    0.0000 C   0  0  0  0  0  0  0  0  0  0  0  0
   -1.5612    2.3359    0.0000 C   0  0  0  0  0  0  0  0  0  0  0  0
   -0.2622    3.0859    0.0000 C   0  0  0  0  0  0  0  0  0  0  0  0
   -2.7036    2.1973    0.0000 C   0  0  0  0  0  0  0  0  0  0  0  0
    2.3359    3.0859    0.0000 C   0  0  0  0  0  0  0  0  0  0  0  0
    2.3359    3.0859    0.0000 C   0  0  0  0  0  0  0  0  0  0  0  0
   -0.2622    4.5859    0.0000 C   0  0  0  0  0  0  0  0  0  0  0  0
   -1.7394    3.3464    0.0000 C   0  0  0  0  0  0  0  0  0  0  0  0
   -0.2622    4.5859    0.0000 C   0  0  0  0  0  0  0  0  0  0  0  0
   -0.2622    3.0859    0.0000 C   0  0  0  0  0  0  0  0  0  0  0  0
    2.3359    4.5859    0.0000 C   0  0  0  0  0  0  0  0  0  0  0  0
    1.0369    5.3359    0.0000 C   0  0  0  0  0  0  0  0  0  0  0  0
   -2.8603    3.0859    0.0000 O   0  0  0  0  0  0  0  0  0  0  0  0
    3.6349    2.3359    0.0000 O   0  0  0  0  0  0  0  0  0  0  0  0
    4.0506    2.0959    0.0000 O   0  0  0  0  0  0  0  0  0  0  0  0
   -1.9769    5.5759    0.0000 O   0  0  0  0  0  0  0  0  0  0  0  0
   -2.2524    4.7559    0.0000 O   0  0  0  0  0  0  0  0  0  0  0  0
   -1.5612    5.3359    0.0000 O   0  0  0  0  0  0  0  0  0  0  0  0
   -0.7752    1.6764    0.0000 O   0  0  0  0  0  0  0  0  0  0  0  0
   -2.9639    0.7192    0.0000 O   0  0  0  0  0  0  0  0  0  0  0  0
    2.3359    6.0859    0.0000 O   0  0  0  0  0  0  0  0  0  0  0  0
  4  3  2  0
  5  3  1  0
  6  1  1  0
  7  2  1  0
  8  4  1  0
  9  5  2  0
 10  8  2  0
 10  9  1  0
 11  7  1  0
 12  6  1  0
 13  8  1  0
 14 10  1  0
 15 11  1  0
 17  6  1  0
 17 15  1  0
 17 16  1  0
 18 12  1  0
 18 13  1  0
 19 14  1  0
 19 16  1  0
 19 18  1  0
 20  9  1  0
 21 12  1  0
 22 13  2  0
 23 14  1  0
 24 15  2  0
 25 16  1  0
 26 17  1  0
 27  7  1  0
 27 11  1  0
 28 18  1  0
 28 19  1  0
M  END
>  <NAME>  (5931) 
CERVICARCIN

>  <SYNONYMS>  (5931) 


>  <SPECTRUM TYPE>  (5931) 
MS1

>  <INSTRUMENT TYPE>  (5931) 
EI-B

>  <INSTRUMENT>  (5931) 
JEOL JMS-01-SG-2

>  <ION MODE>  (5931) 
P

>  <INCHIKEY>  (5931) 
ZGZVMKCZHDIFQA-UHFFFAOYSA-N

>  <FORMULA>  (5931) 
C19H20O9

>  <EXACT MASS>  (5931) 
392.11073222

>  <MW>  (5931) 
392

>  <ID>  (5931) 
JP000138

>  <CONTRIBUTOR>  (5931) 
University of Tokyo Team, {Faculty of Engineering, University of Tokyo

>  <COMMENT>  (5931) 
SMILES=CC(O1)C1C(=O)C(O)(C(C)3)C(O)C(C(O)4)(O2)C(C(=O)c(c5)c(c(O)cc5)4)(C(O)3)2
InChI=InChI=1S/C19H20O9/c1-6-12(21)18-13(22)8-4-3-5-9(20)10(8)14(23)19(18,28-18)16(25)17(6,26)15(24)11-7(2)27-11/h3-7,11-12,14,16,20-21,23,25-26H,1-2H3
computed SMILES=O=C1C=2C=CC=C(O)C2C(O)C34OC14C(O)C(C)C(O)(C(=O)C5OC5C)C3O
accession=JP000138
date=2016.01.19 (Created 2008.10.21, modified 2011.05.06)
ionization energy=70 eV
ion type=[M]+*
computed spectral entropy=3.4154567080742013
author=FUKUSHIMA K, INST. FOR CHEMOBIODYNAMICS, CHIBA UNIV.
license=CC BY-NC-SA
exact mass=392.11073
computed normalized entropy=0.9458693857632201
SPLASH=splash10-00or-5491000000-1d27243c30d9b97928d6
submitter=submitter = University of Tokyo Team (Faculty of Engineering, University of Tokyo)
MoNA Rating=3.75

>  <NUM PEAKS>  (5931) 
37

>  <MASS SPECTRAL PEAKS>  (5931) 
27 17.51
28 11.69
29 36.3
39 20.59
41 19.96
43 30.87
44 27.97
58 11.41
65 12.48
69 38
91 11.06
111 10.84
121 14.77
147 16.12
173 11.72
175 99.99
176 21.43
187 34.54
203 25.08
204 64.31
205 10.93
213 17.82
214 11.12
215 25.36
226 10.93
242 10.65
243 36.78
254 27.34
255 12.92
265 37.5
270 11.66
271 43.38
272 14.9
289 28.7
306 16.31
322 13.64
392 22.28

>  <PREDICTED SPECTRUM>  (5931) 
17 40
18 48
27 74
29 390
30 127
31 19
38 71
39 420
40 83
41 80
43 472
44 283
50 239
51 504
52 81
53 273
55 314
57 174
59 34
62 17
63 365
64 40
65 365
66 40
69 493
70 30
71 198
73 232
74 271
75 400
76 459
77 806
78 304
79 125
81 120
82 159
83 116
85 18
89 339
90 32
91 367
92 67
95 191
96 45
101 165
102 231
103 368
104 193
105 742
106 130
107 105
109 123
111 37
113 145
115 589
116 4
117 54
118 76
119 120
120 2
121 711
123 98
126 142
127 181
128 221
129 148
131 509
132 274
133 197
139 17
140 141
141 254
142 44
143 158
144 26
145 179
148 109
149 234
151 292
152 351
153 17
155 4
159 56
161 438
165 10
168 10
169 248
171 139
172 11
173 233
174 41
175 25
176 413
177 368
178 293
179 174
183 218
184 163
185 95
187 338
189 108
190 314
193 102
195 119
196 220
197 210
198 170
199 293
200 64
201 134
203 155
204 89
205 178
206 90
211 131
212 29
213 202
214 239
215 288
216 158
217 209
218 85
219 4
221 3
229 105
230 233
231 249
232 296
233 96
234 20
241 148
243 553
244 524
245 355
246 210
247 272
248 207
249 339
250 25
251 153
255 16
257 486
259 205
261 90
262 313
263 100
264 170
265 225
267 30
268 172
269 156
270 52
271 230
272 335
273 299
274 135
275 193
277 94
283 51
284 38
285 404
286 245
287 545
288 206
289 205
290 361
291 11
295 490
300 545
301 795
302 944
303 315
304 305
313 130
315 29
317 238
318 282
320 194
327 300
328 999
329 786
330 621
331 283
338 57
340 3
345 180
346 357
356 629
357 346
358 183
359 19
363 64
374 389
375 353
376 309
391 30
392 54

$$$$

     RDKit          2D

  9 10  0  0  1  0  0  0  0  0999 V2000
   -2.3100   -0.7500    0.0000 C   0  0  0  0  0  0  0  0  0  0  0  0
   -2.3100    0.7500    0.0000 C   0  0  0  0  0  0  0  0  0  0  0  0
    2.6000    0.0000    0.0000 C   0  0  0  0  0  0  0  0  0  0  0  0
   -1.0100   -1.5000    0.0000 C   0  0  0  0  0  0  0  0  0  0  0  0
   -1.0100    1.5000    0.0000 C   0  0  0  0  0  0  0  0  0  0  0  0
    1.7200   -1.2100    0.0000 C   0  0  0  0  0  0  0  0  0  0  0  0
    1.7200    1.2100    0.0000 C   0  0  0  0  0  0  0  0  0  0  0  0
    0.2900   -0.7500    0.0000 C   0  0  0  0  0  0  0  0  0  0  0  0
    0.2900    0.7500    0.0000 C   0  0  0  0  0  0  0  0  0  0  0  0
  2  1  1  0
  4  1  1  0
  5  2  1  0
  6  3  1  0
  7  3  1  0
  8  4  1  6
  8  6  1  0
  9  5  1  6
  9  7  1  0
  9  8  1  0
M  END
>  <NAME>  (5932) 
CIS-BICYCLO(4.3.0)NONANE

>  <SYNONYMS>  (5932) 
CIS-HEXAHYDROINDANE

>  <SPECTRUM TYPE>  (5932) 
MS1

>  <INSTRUMENT TYPE>  (5932) 
EI-B

>  <INSTRUMENT>  (5932) 
HITACHI M-80

>  <ION MODE>  (5932) 
P

>  <INCHIKEY>  (5932) 
BNRNAKTVFSZAFA-DTORHVGOSA-N

>  <FORMULA>  (5932) 
C9H16

>  <EXACT MASS>  (5932) 
124.12520051199999

>  <MW>  (5932) 
124

>  <ID>  (5932) 
JP000135

>  <CONTRIBUTOR>  (5932) 
University of Tokyo Team, {Faculty of Engineering, University of Tokyo

>  <COMMENT>  (5932) 
SMILES=[H]C(C2)(C1)C([H])(CCC2)CC1
InChI=InChI=1S/C9H16/c1-2-5-9-7-3-6-8(9)4-1/h8-9H,1-7H2/t8-,9+
computed SMILES=C1CCC2CCCC2C1
accession=JP000135
date=2016.01.19 (Created 2008.10.21, modified 2011.05.06)
author=YAMAMOTO M, DEP. CHEMISTRY, FAC. SCIENCE, NARA WOMEN'S UNIV.
license=CC BY-NC-SA
exact mass=124.1252
ionization energy=70 eV
ion type=[M]+*
computed spectral entropy=2.9912833036523834
computed normalized entropy=0.8413475282640173
SPLASH=splash10-00lr-9000000000-41580a0ab58b3e14b629
submitter=submitter = University of Tokyo Team (Faculty of Engineering, University of Tokyo)
MoNA Rating=3.75

>  <NUM PEAKS>  (5932) 
35

>  <MASS SPECTRAL PEAKS>  (5932) 
26 2.51
27 36.8
28 47.84
29 27.85
31 2.85
32 8.72
39 46.95
40 9.38
41 61.9
42 7.34
43 4.95
44 4.64
51 5.8
52 2.36
53 17.68
54 37.69
55 36.51
56 3.13
65 4.32
66 13.07
67 99.6
68 36.34
69 6.47
77 5.41
79 11.42
80 4.19
81 99.99
82 95.69
83 9.12
91 1.36
95 23.54
96 79.93
97 6.61
124 22.39
125 2.29

>  <PREDICTED SPECTRUM>  (5932) 
26 16
27 135
28 80
29 114
37 7
38 63
39 436
40 220
41 581
42 262
43 115
50 79
51 201
52 164
53 391
54 624
55 601
56 231
57 93
62 3
63 104
64 3
65 217
66 235
67 999
68 756
69 365
70 101
77 259
78 132
79 280
80 199
81 981
82 938
83 416
84 61
91 119
93 127
94 82
95 649
96 824
97 196
109 265
123 66
124 509
125 158

$$$$

     RDKit          2D

 11 12  0  0  1  0  0  0  0  0999 V2000
   -2.9500   -0.8900    0.0000 C   0  0  0  0  0  0  0  0  0  0  0  0
   -2.9500    0.6100    0.0000 C   0  0  0  0  0  0  0  0  0  0  0  0
   -1.6500   -1.6400    0.0000 C   0  0  0  0  0  0  0  0  0  0  0  0
   -1.6500    1.3600    0.0000 C   0  0  0  0  0  0  0  0  0  0  0  0
    0.9400   -1.6400    0.0000 C   0  0  0  0  0  0  0  0  0  0  0  0
    2.2400   -0.8900    0.0000 C   0  0  0  0  0  0  0  0  0  0  0  0
    0.9400    1.3600    0.0000 C   0  0  0  0  0  0  0  0  0  0  0  0
   -0.3500   -0.8900    0.0000 C   0  0  0  0  0  0  0  0  0  0  0  0
   -0.3500    0.6100    0.0000 C   0  0  0  0  0  0  0  0  0  0  0  0
    2.2400    0.6100    0.0000 C   0  0  0  0  0  0  0  0  0  0  0  0
    3.5389    1.3602    0.0000 O   0  0  0  0  0  0  0  0  0  0  0  0
  2  1  1  0
  3  1  1  0
  4  2  1  0
  6  5  1  0
  8  3  1  1
  8  5  1  0
  9  4  1  1
  9  7  1  0
  9  8  1  0
 10  6  1  0
 10  7  1  0
 11 10  2  0
M  END
>  <NAME>  (5933) 
CIS-BICYCLO(4.4.0)DECANE-2-ONE

>  <SYNONYMS>  (5933) 
CIS-DECAHYDRO-2-NAPHTHALENONE

>  <SPECTRUM TYPE>  (5933) 
MS1

>  <INSTRUMENT TYPE>  (5933) 
EI-B

>  <INSTRUMENT>  (5933) 
HITACHI RMU-6M

>  <ION MODE>  (5933) 
P

>  <INCHIKEY>  (5933) 
LGVJRKCQQHOWAU-BDAKNGLRSA-N

>  <FORMULA>  (5933) 
C10H16O

>  <EXACT MASS>  (5933) 
152.120115132

>  <MW>  (5933) 
152

>  <ID>  (5933) 
JP000133

>  <CONTRIBUTOR>  (5933) 
University of Tokyo Team, {Faculty of Engineering, University of Tokyo

>  <COMMENT>  (5933) 
SMILES=C1CC[C@H]2CC(=O)CC[C@H]2C1
InChI=InChI=1S/C10H16O/c11-10-6-5-8-3-1-2-4-9(8)7-10/h8-9H,1-7H2/t8-,9+/m1/s1
computed SMILES=O=C1CCC2CCCCC2C1
accession=JP000133
date=2016.01.19 (Created 2008.10.21, modified 2011.05.06)
author=YAMAMOTO M, DEP. CHEMISTRY, FAC. SCIENCE, NARA WOMEN'S UNIV.
license=CC BY-NC-SA
exact mass=152.12012
ionization energy=70 eV
ion type=[M]+*
computed spectral entropy=3.410423070627036
computed normalized entropy=0.8110992596460055
SPLASH=splash10-0pbc-9200000000-5e204815478f91be57a6
submitter=submitter = University of Tokyo Team (Faculty of Engineering, University of Tokyo)
MoNA Rating=3.75

>  <NUM PEAKS>  (5933) 
67

>  <MASS SPECTRAL PEAKS>  (5933) 
26 2.8
27 41.1
28 12.7
29 2.59
31 1.5
38 2.5
39 56.3
40 1.14
41 83
42 9.8
43 8.3
44 0.16
50 2.9
51 8.7
52 5.4
53 3.13
54 39.3
55 99.99
56 8.7
57 0.59
58 1.3
63 2.6
65 9
66 0.94
67 77.7
68 36.6
69 17
70 1.7
71 10.3
72 1
77 10.2
78 0.85
79 38.4
80 15.2
81 92
82 3.75
83 16.1
84 4
85 1.1
91 0.72
92 5.4
93 21.4
94 51.8
95 6.43
96 38.4
97 34.8
98 5.1
105 0.45
106 3.7
107 8.1
108 93.8
109 3.13
110 21.4
111 3
119 5.7
121 0.93
122 1.4
123 12.7
124 5.4
134 1.16
135 2.7
136 28.6
137 7.9
151 0.21
152 78.6
153 9.7
154 1

>  <PREDICTED SPECTRUM>  (5933) 
26 65
27 248
28 113
29 173
34 8
36 7
37 39
38 126
39 549
40 286
41 730
42 389
43 282
44 147
45 29
49 6
50 183
51 286
52 216
53 527
54 665
55 730
56 270
57 208
58 25
60 18
61 20
62 81
63 168
64 62
65 270
66 314
67 899
68 757
69 500
70 303
71 160
74 28
75 57
76 27
77 333
78 186
79 463
80 400
81 906
82 560
83 327
84 270
85 16
86 1
90 23
91 276
92 220
93 489
94 424
95 691
96 602
97 385
98 174
99 10
105 212
106 125
107 135
108 999
109 482
110 356
111 134
115 24
119 207
121 57
122 21
123 379
124 322
125 80
133 70
134 328
135 87
136 10
137 243
138 49
151 119
152 785
153 256
154 8

$$$$

     RDKit          2D

 11 12  0  0  1  0  0  0  0  0999 V2000
   -2.7200   -1.0200    0.0000 C   0  0  0  0  0  0  0  0  0  0  0  0
   -2.7200    0.4800    0.0000 C   0  0  0  0  0  0  0  0  0  0  0  0
    2.4800   -1.0200    0.0000 C   0  0  0  0  0  0  0  0  0  0  0  0
   -1.4200   -1.7700    0.0000 C   0  0  0  0  0  0  0  0  0  0  0  0
    1.1800   -1.7700    0.0000 C   0  0  0  0  0  0  0  0  0  0  0  0
   -1.4200    1.2300    0.0000 C   0  0  0  0  0  0  0  0  0  0  0  0
    2.4800    0.4800    0.0000 C   0  0  0  0  0  0  0  0  0  0  0  0
   -0.1200   -1.0200    0.0000 C   0  0  0  0  0  0  0  0  0  0  0  0
   -0.1200    0.4800    0.0000 C   0  0  0  0  0  0  0  0  0  0  0  0
    1.1800    1.2300    0.0000 C   0  0  0  0  0  0  0  0  0  0  0  0
    1.1800    2.7300    0.0000 O   0  0  0  0  0  0  0  0  0  0  0  0
  2  1  1  0
  4  1  1  0
  5  3  1  0
  6  2  1  0
  7  3  1  0
  8  4  1  6
  8  5  1  0
  9  6  1  1
  9  8  1  0
 10  7  1  0
 10  9  1  0
 11 10  2  0
M  END
>  <NAME>  (5934) 
TRANS-BICYCLO(4.4.0)DECANE-2-ONE

>  <SYNONYMS>  (5934) 
TRANS-DECAHYDRO-2-NAPHTHALENONE

>  <SPECTRUM TYPE>  (5934) 
MS1

>  <INSTRUMENT TYPE>  (5934) 
EI-B

>  <INSTRUMENT>  (5934) 
HITACHI RMU-6M

>  <ION MODE>  (5934) 
P

>  <INCHIKEY>  (5934) 
AFEFRXAPJRCTOW-DTWKUNHWSA-N

>  <FORMULA>  (5934) 
C10H16O

>  <EXACT MASS>  (5934) 
152.120115132

>  <MW>  (5934) 
152

>  <ID>  (5934) 
JP000132

>  <CONTRIBUTOR>  (5934) 
University of Tokyo Team, {Faculty of Engineering, University of Tokyo

>  <COMMENT>  (5934) 
SMILES=O=C(C1)C([H])(C2)C([H])(CCC2)CC1
InChI=InChI=1S/C10H16O/c11-10-7-3-5-8-4-1-2-6-9(8)10/h8-9H,1-7H2/t8-,9+/m0/s1
computed SMILES=O=C1CCCC2CCCCC12
accession=JP000132
date=2016.01.19 (Created 2008.10.21, modified 2011.05.06)
author=YAMAMOTO M, DEP. CHEMISTRY, FAC. SCIENCE, NARA WOMEN'S UNIV.
license=CC BY-NC-SA
exact mass=152.12012
ionization energy=70 eV
ion type=[M]+*
computed spectral entropy=3.3784068071021838
computed normalized entropy=0.803484847268463
SPLASH=splash10-0pb9-9300000000-38bba15f9e46ba8ef4be
submitter=submitter = University of Tokyo Team (Faculty of Engineering, University of Tokyo)
MoNA Rating=3.75

>  <NUM PEAKS>  (5934) 
67

>  <MASS SPECTRAL PEAKS>  (5934) 
26 2.7
27 36.8
28 13.3
29 1.86
32 4.4
38 2.3
39 48.1
40 0.91
41 67.7
42 8.9
43 7
44 0.36
47 1.1
50 2.5
51 7.4
52 0.49
53 24.5
54 30.2
55 83.5
56 0.65
57 3.8
62 1.1
63 2.3
65 0.65
66 6.7
67 66.9
68 29.1
69 1.18
70 11
71 7
77 8.9
78 0.74
79 26.6
80 10.5
81 84.2
82 3.46
83 10.1
84 3
91 6.1
92 0.44
93 17.7
94 13.7
95 45.1
96 4.06
97 25.5
98 3.6
105 4.4
106 0.42
107 3
108 99.99
109 24.9
110 4.14
111 3.8
119 7
120 1.1
121 0.19
123 14.3
124 6.7
133 1.5
134 1.31
135 2.1
136 3.8
137 7.2
138 0.13
151 3.4
152 72.9
153 8.2

>  <PREDICTED SPECTRUM>  (5934) 
27 128
28 4
29 39
38 63
39 485
40 263
41 685
42 366
43 225
44 86
45 10
50 147
51 280
52 165
53 476
54 596
55 786
56 245
57 209
58 87
62 8
63 115
64 30
65 255
66 299
67 962
68 732
69 405
70 415
71 193
77 324
78 220
79 516
80 271
81 999
82 558
83 575
84 544
85 52
91 404
92 266
93 401
94 301
95 665
96 730
97 933
98 362
99 25
105 295
106 241
107 166
108 587
109 987
110 858
111 345
119 192
121 8
123 474
124 257
133 136
134 432
135 145
136 18
137 247
138 40
151 239
152 770
153 265
154 3

$$$$

     RDKit          2D

 10 11  0  0  0  0  0  0  0  0999 V2000
   -2.6000   -0.7500    0.0000 C   0  0  0  0  0  0  0  0  0  0  0  0
   -2.6000    0.7500    0.0000 C   0  0  0  0  0  0  0  0  0  0  0  0
    2.6000   -0.7500    0.0000 C   0  0  0  0  0  0  0  0  0  0  0  0
    2.6000    0.7500    0.0000 C   0  0  0  0  0  0  0  0  0  0  0  0
   -1.3000   -1.5000    0.0000 C   0  0  0  0  0  0  0  0  0  0  0  0
   -1.3000    1.5000    0.0000 C   0  0  0  0  0  0  0  0  0  0  0  0
    1.3000   -1.5000    0.0000 C   0  0  0  0  0  0  0  0  0  0  0  0
    1.3000    1.5000    0.0000 C   0  0  0  0  0  0  0  0  0  0  0  0
    0.0000   -0.7500    0.0000 C   0  0  0  0  0  0  0  0  0  0  0  0
    0.0000    0.7500    0.0000 C   0  0  0  0  0  0  0  0  0  0  0  0
  2  1  1  0
  4  3  1  0
  5  1  1  0
  6  2  1  0
  7  3  1  0
  8  4  1  0
  9  5  1  0
  9  7  1  0
 10  6  1  0
 10  8  1  0
 10  9  1  0
M  END
>  <NAME>  (5935) 
CIS-BICYCLO(4.4.0)DECANE

>  <SYNONYMS>  (5935) 
CIS-DECALINE

>  <SPECTRUM TYPE>  (5935) 
MS1

>  <INSTRUMENT TYPE>  (5935) 
EI-B

>  <INSTRUMENT>  (5935) 
HITACHI RMU-6M

>  <ION MODE>  (5935) 
P

>  <INCHIKEY>  (5935) 
NNBZCPXTIHJBJL-UHFFFAOYSA-N

>  <FORMULA>  (5935) 
C10H18

>  <EXACT MASS>  (5935) 
138.140850576

>  <MW>  (5935) 
138

>  <ID>  (5935) 
JP000131

>  <CONTRIBUTOR>  (5935) 
University of Tokyo Team, {Faculty of Engineering, University of Tokyo

>  <COMMENT>  (5935) 
SMILES=[H]C(C2)(C1)C([H])(CCC2)CCC1
InChI=InChI=1S/C10H18/c1-2-6-10-8-4-3-7-9(10)5-1/h9-10H,1-8H2
computed SMILES=C1CCC2CCCCC2C1
accession=JP000131
date=2016.01.19 (Created 2008.10.21, modified 2011.05.06)
author=YAMAMOTO M, DEP. CHEMISTRY, FAC. SCIENCE, NARA WOMEN'S UNIV.
license=CC BY-NC-SA
exact mass=138.14085
ionization energy=70 eV
ion type=[M]+*
computed spectral entropy=2.7861156593273573
computed normalized entropy=0.7604937294478822
SPLASH=splash10-00ls-9100000000-9d370f3f1da6a5871fbb
submitter=submitter = University of Tokyo Team (Faculty of Engineering, University of Tokyo)
MoNA Rating=3.75

>  <NUM PEAKS>  (5935) 
39

>  <MASS SPECTRAL PEAKS>  (5935) 
27 14.3
28 3.6
29 14.3
39 2.62
40 4.8
41 50
42 4.8
43 0.48
51 3
52 2.2
53 14.3
54 2.02
55 36.9
56 3
57 1.3
65 0.48
66 6
67 99.99
68 35.7
69 1.9
70 2.2
77 7.1
78 1.6
79 1.31
80 7.1
81 92.9
82 64.3
83 1.19
91 3
93 3.8
94 2.7
95 5.12
96 89.3
97 10.7
109 31
110 0.95
123 1.1
138 64.3
139 7.1

>  <PREDICTED SPECTRUM>  (5935) 
26 8
27 116
28 67
29 94
37 18
38 62
39 443
40 251
41 794
42 280
43 239
50 57
51 168
52 122
53 395
54 473
55 687
56 117
57 84
62 4
63 120
65 213
66 245
67 999
68 741
69 807
70 250
71 25
77 247
78 92
79 302
80 143
81 883
82 633
83 313
91 182
93 119
94 79
95 727
96 808
97 195
108 168
109 364
110 270
111 70
123 5
137 48
138 564
139 228
140 50

$$$$

     RDKit          2D

 14 14  0  0  1  0  0  0  0  0999 V2000
    3.5006   -2.2332    0.0000 C   0  0  0  0  0  0  0  0  0  0  0  0
   -2.2701    4.3159    0.0000 C   0  0  0  0  0  0  0  0  0  0  0  0
   -4.3218    3.7770    0.0000 C   0  0  0  0  0  0  0  0  0  0  0  0
   -3.7829    1.7253    0.0000 C   0  0  0  0  0  0  0  0  0  0  0  0
   -0.4321    3.0142    0.0000 C   0  0  0  0  0  0  0  0  0  0  0  0
   -1.7457    0.7894    0.0000 C   0  0  0  0  0  0  0  0  0  0  0  0
    0.8524    2.2894    0.0000 C   0  0  0  0  0  0  0  0  0  0  0  0
   -0.4211   -0.0048    0.0000 C   0  0  0  0  0  0  0  0  0  0  0  0
    2.1955   -1.4940    0.0000 C   0  0  0  0  0  0  0  0  0  0  0  0
   -1.7311    2.2642    0.0000 C   0  0  0  0  0  0  0  0  0  0  0  0
    0.8779    0.7452    0.0000 C   0  0  0  0  0  0  0  0  0  0  0  0
   -3.0265    3.0206    0.0000 C   0  0  0  0  0  0  0  0  0  0  0  0
    0.9027   -2.2547    0.0000 O   0  0  0  0  0  0  0  0  0  0  0  0
    2.1831    0.0060    0.0000 O   0  0  0  0  0  0  0  0  0  0  0  0
  7  5  1  0
  8  6  1  0
  9  1  1  0
 10  5  1  0
 10  6  1  0
 11  7  1  0
 11  8  1  0
 12  2  1  0
 12  3  1  0
 12  4  1  0
 10 12  1  1
 13  9  2  0
 14  9  1  0
 11 14  1  6
M  END
>  <NAME>  (5936) 
P-T-BUTYLCYCLOHEXYL ACETATE (TRANS)

>  <SYNONYMS>  (5936) 


>  <SPECTRUM TYPE>  (5936) 
MS1

>  <INSTRUMENT TYPE>  (5936) 
EI-B

>  <INSTRUMENT>  (5936) 
HITACHI RMU-6M

>  <ION MODE>  (5936) 
P

>  <INCHIKEY>  (5936) 
MBZRJSQZCBXRGK-XYPYZODXSA-N

>  <FORMULA>  (5936) 
C12H22O2

>  <EXACT MASS>  (5936) 
198.161979944

>  <MW>  (5936) 
198

>  <ID>  (5936) 
JP000129

>  <CONTRIBUTOR>  (5936) 
University of Tokyo Team, {Faculty of Engineering, University of Tokyo

>  <COMMENT>  (5936) 
SMILES=CC(=O)OC([H])(C1)CCC([H])(C1)C(C)(C)C
InChI=InChI=1S/C12H22O2/c1-9(13)14-11-7-5-10(6-8-11)12(2,3)4/h10-11H,5-8H2,1-4H3/t10-,11-
computed SMILES=O=C(OC1CCC(CC1)C(C)(C)C)C
accession=JP000129
date=2016.01.19 (Created 2008.10.21, modified 2011.05.06)
author=YAMAMOTO M, DEP. CHEMISTRY, FAC. SCIENCE, NARA WOMEN'S UNIV.
license=CC BY-NC-SA
exact mass=198.16198
ionization energy=70 eV
ion type=[M]+*
computed spectral entropy=3.052717186100338
computed normalized entropy=0.7973369323383779
SPLASH=splash10-0a59-9000000000-e765166eaf26521b1f04
submitter=submitter = University of Tokyo Team (Faculty of Engineering, University of Tokyo)
MoNA Rating=3.75

>  <NUM PEAKS>  (5936) 
46

>  <MASS SPECTRAL PEAKS>  (5936) 
14 1
15 10.9
27 11.9
28 12.3
29 24.3
39 12.8
40 2.5
42 3.7
43 68.1
44 2.5
51 1.3
53 6.7
54 8.4
55 19.6
56 27.4
57 99.99
58 4.7
61 16.8
65 1.8
66 1.5
67 39.3
68 4
69 7.3
70 2
77 2.3
79 6.7
80 27.3
81 26.9
82 41.1
83 14.7
84 1.8
91 1.2
93 1.1
94 1.2
95 4.9
96 2.3
97 1.7
99 1.3
111 1.1
124 11.9
125 1.2
139 6.8
140 1.3
142 1.3
143 1.4
144 1.4

>  <PREDICTED SPECTRUM>  (5936) 
15 49
27 102
28 73
29 230
30 113
31 30
39 153
40 29
41 439
42 129
43 455
44 42
45 1
53 140
54 282
55 258
56 450
57 999
58 113
61 470
63 26
65 32
66 23
67 496
68 151
69 155
70 97
71 40
79 193
80 527
81 682
82 778
83 411
84 49
93 22
95 155
96 129
97 91
98 19
99 40
100 7
101 13
123 514
124 8
138 402
141 40
142 52
143 100

$$$$

     RDKit          2D

 14 14  0  0  1  0  0  0  0  0999 V2000
   -1.9498    2.7991    0.0000 C   0  0  0  0  0  0  0  0  0  0  0  0
   -1.4013   -1.1526    0.0000 C   0  0  0  0  0  0  0  0  0  0  0  0
   -1.9500   -3.2017    0.0000 C   0  0  0  0  0  0  0  0  0  0  0  0
    0.0991   -3.7504    0.0000 C   0  0  0  0  0  0  0  0  0  0  0  0
    3.2478   -1.7013    0.0000 C   0  0  0  0  0  0  0  0  0  0  0  0
    3.2478   -0.2013    0.0000 C   0  0  0  0  0  0  0  0  0  0  0  0
    1.9478   -2.4513    0.0000 C   0  0  0  0  0  0  0  0  0  0  0  0
    1.9478    0.5487    0.0000 C   0  0  0  0  0  0  0  0  0  0  0  0
   -0.6508    2.0489    0.0000 C   0  0  0  0  0  0  0  0  0  0  0  0
    0.6478   -1.7013    0.0000 C   0  0  0  0  0  0  0  0  0  0  0  0
    0.6478   -0.2013    0.0000 C   0  0  0  0  0  0  0  0  0  0  0  0
   -0.6511   -2.4515    0.0000 C   0  0  0  0  0  0  0  0  0  0  0  0
    0.6483    2.7987    0.0000 O   0  0  0  0  0  0  0  0  0  0  0  0
   -0.6511    0.5489    0.0000 O   0  0  0  0  0  0  0  0  0  0  0  0
  6  5  1  0
  7  5  1  0
  8  6  1  0
  9  1  1  0
 10  7  1  0
 11  8  1  0
 11 10  1  0
 12  2  1  0
 12  3  1  0
 12  4  1  0
 10 12  1  1
 13  9  2  0
 14  9  1  0
 11 14  1  6
M  END
>  <NAME>  (5937) 
O-T-BUTYLCYCLOHEXYL ACETATE (TRANS)

>  <SYNONYMS>  (5937) 


>  <SPECTRUM TYPE>  (5937) 
MS1

>  <INSTRUMENT TYPE>  (5937) 
EI-B

>  <INSTRUMENT>  (5937) 
HITACHI RMU-6M

>  <ION MODE>  (5937) 
P

>  <INCHIKEY>  (5937) 
FINOAUDUYKVGDS-GHMZBOCLSA-N

>  <FORMULA>  (5937) 
C12H22O2

>  <EXACT MASS>  (5937) 
198.161979944

>  <MW>  (5937) 
198

>  <ID>  (5937) 
JP000127

>  <CONTRIBUTOR>  (5937) 
University of Tokyo Team, {Faculty of Engineering, University of Tokyo

>  <COMMENT>  (5937) 
SMILES=CC(=O)OC([H])(C1)C([H])(CCC1)C(C)(C)C
InChI=InChI=1S/C12H22O2/c1-9(13)14-11-8-6-5-7-10(11)12(2,3)4/h10-11H,5-8H2,1-4H3/t10-,11-/m1/s1
computed SMILES=O=C(OC1CCCCC1C(C)(C)C)C
accession=JP000127
date=2016.01.19 (Created 2008.10.21, modified 2011.05.06)
author=YAMAMOTO M, DEP. CHEMISTRY, FAC. SCIENCE, NARA WOMEN'S UNIV.
license=CC BY-NC-SA
exact mass=198.16198
ionization energy=70 eV
ion type=[M]+*
computed spectral entropy=2.9736252405305272
computed normalized entropy=0.7811633546503213
SPLASH=splash10-053u-9000000000-82b23afce5319647c48b
submitter=submitter = University of Tokyo Team (Faculty of Engineering, University of Tokyo)
MoNA Rating=3.75

>  <NUM PEAKS>  (5937) 
45

>  <MASS SPECTRAL PEAKS>  (5937) 
15 8.2
27 9.2
28 2.1
29 17.8
39 9.3
40 1.8
41 35.5
42 3
43 54.3
44 1.7
53 4.6
54 11.6
55 13.7
56 10
57 99.99
58 4.5
61 17.3
65 1.3
66 1.2
67 47.5
68 3
69 6.5
70 2.2
71 1.5
75 1.3
79 3.4
80 11.4
81 19.1
82 77.1
83 13.9
84 1.1
93 6.5
95 3.8
96 1
97 1.2
99 2.5
110 1
117 7.9
123 13.8
124 1.5
138 3.8
139 1.5
141 1.6
142 1.9
143 2.5

>  <PREDICTED SPECTRUM>  (5937) 
15 45
26 28
27 210
28 115
29 311
30 87
31 58
39 240
40 82
41 548
42 148
43 591
44 89
45 58
50 1
51 28
52 29
53 155
54 253
55 380
56 380
57 999
58 192
59 72
60 39
61 420
65 113
66 86
67 515
68 249
69 156
70 146
71 105
73 56
77 58
79 174
80 391
81 687
82 801
83 375
93 21
95 198
96 177
97 41
98 6
99 95
100 54
101 38
117 86
123 501
124 99
125 32
138 376
139 11
141 124
142 93
143 81

$$$$

     RDKit          2D

 11 10  0  0  0  0  0  0  0  0999 V2000
    3.8971    6.7500    0.0000 C   0  0  0  0  0  0  0  0  0  0  0  0
    2.5981    4.5000    0.0000 C   0  0  0  0  0  0  0  0  0  0  0  0
   -2.5981    4.5000    0.0000 C   0  0  0  0  0  0  0  0  0  0  0  0
    0.0000    6.0000    0.0000 C   0  0  0  0  0  0  0  0  0  0  0  0
    1.2990    6.7500    0.0000 C   0  0  0  0  0  0  0  0  0  0  0  0
   -1.2990    6.7500    0.0000 C   0  0  0  0  0  0  0  0  0  0  0  0
   -3.8971    6.7500    0.0000 C   0  0  0  0  0  0  0  0  0  0  0  0
   -3.8971    8.2500    0.0000 C   0  0  0  0  0  0  0  0  0  0  0  0
    2.5981    6.0000    0.0000 C   0  0  0  0  0  0  0  0  0  0  0  0
   -2.5981    6.0000    0.0000 C   0  0  0  0  0  0  0  0  0  0  0  0
   -3.8971    9.7500    0.0000 N   0  0  0  0  0  0  0  0  0  0  0  0
  5  4  1  0
  6  4  1  0
  8  7  1  0
  9  1  1  0
  9  2  1  0
  9  5  2  0
 10  3  1  0
 10  6  1  0
  7 10  2  0
 11  8  3  0
M  END
>  <NAME>  (5938) 
3,7-DIMETHYL-2,6-OCTADIENENITRILE(CIS)

>  <SYNONYMS>  (5938) 
CIS-GERANYL NITRILE

>  <SPECTRUM TYPE>  (5938) 
MS1

>  <INSTRUMENT TYPE>  (5938) 
EI-B

>  <INSTRUMENT>  (5938) 
HITACHI RMU-6M

>  <ION MODE>  (5938) 
P

>  <INCHIKEY>  (5938) 
HLCSDJLATUNSSI-YFHOEESVSA-N

>  <FORMULA>  (5938) 
C10H15N

>  <EXACT MASS>  (5938) 
149.12044948

>  <MW>  (5938) 
149

>  <ID>  (5938) 
JP000125

>  <CONTRIBUTOR>  (5938) 
University of Tokyo Team, {Faculty of Engineering, University of Tokyo

>  <COMMENT>  (5938) 
SMILES=N#CC=C(C)CCC=C(C)C
InChI=InChI=1S/C10H15N/c1-9(2)5-4-6-10(3)7-8-11/h5,7H,4,6H2,1-3H3/b10-7-
computed SMILES=N#CC=C(C)CCC=C(C)C
accession=JP000125
date=2016.01.19 (Created 2008.10.21, modified 2011.05.06)
author=YAMAMOTO M, DEP. CHEMISTRY, FAC. SCIENCE, NARA WOMEN'S UNIV.
license=CC BY-NC-SA
exact mass=149.12045
ionization energy=70 eV
ion type=[M]+*
computed spectral entropy=2.0606284721163393
computed normalized entropy=0.632463908932447
SPLASH=splash10-014l-9000000000-5845d9c35703331dbb59
submitter=submitter = University of Tokyo Team (Faculty of Engineering, University of Tokyo)
MoNA Rating=3.75

>  <NUM PEAKS>  (5938) 
26

>  <MASS SPECTRAL PEAKS>  (5938) 
27 9
28 1.3
29 3
39 12.2
40 2
41 58.1
42 1.9
43 1.8
51 2.1
52 1.3
53 7.8
55 1.1
65 1.5
66 1.3
67 2.9
68 1.5
69 99.99
70 4.4
77 1.3
79 1.1
80 1.1
81 10
121 1.2
134 9.5
148 2.4
149 3.3

>  <PREDICTED SPECTRUM>  (5938) 
26 31
27 174
28 49
29 99
36 12
37 48
38 105
39 414
40 193
41 809
42 175
43 15
50 76
51 130
52 125
53 229
54 119
55 60
56 3
62 26
63 72
64 70
65 109
66 116
67 210
68 129
69 999
70 154
77 100
78 97
79 89
80 137
81 187
82 12
84 6
90 17
91 100
92 83
93 124
94 14
95 2
105 55
106 147
107 85
108 24
109 95
134 101
148 11
149 169
150 33

$$$$

     RDKit          2D

 21 20  0  0  1  0  0  0  0  0999 V2000
   -4.2219    9.5625    0.0000 C   0  0  0  0  0  0  0  0  0  0  0  0
   -1.6238    9.5625    0.0000 C   0  0  0  0  0  0  0  0  0  0  0  0
    0.9743    5.0625    0.0000 C   0  0  0  0  0  0  0  0  0  0  0  0
  -10.7171    7.3125    0.0000 C   0  0  0  0  0  0  0  0  0  0  0  0
    4.8714    7.3125    0.0000 C   0  0  0  0  0  0  0  0  0  0  0  0
   -6.8200    6.5625    0.0000 C   0  0  0  0  0  0  0  0  0  0  0  0
   -2.9228    8.8125    0.0000 C   0  0  0  0  0  0  0  0  0  0  0  0
    0.9743    6.5625    0.0000 C   0  0  0  0  0  0  0  0  0  0  0  0
   -9.4180    6.5625    0.0000 C   0  0  0  0  0  0  0  0  0  0  0  0
   -5.5209    7.3125    0.0000 C   0  0  0  0  0  0  0  0  0  0  0  0
   -2.9228    7.3125    0.0000 C   0  0  0  0  0  0  0  0  0  0  0  0
   -1.6238    6.5625    0.0000 C   0  0  0  0  0  0  0  0  0  0  0  0
    2.2733    7.3125    0.0000 C   0  0  0  0  0  0  0  0  0  0  0  0
   -8.1190    7.3125    0.0000 N   0  0  0  0  0  0  0  0  0  0  0  0
   -0.3248    7.3125    0.0000 N   0  0  0  0  0  0  0  0  0  0  0  0
   -4.2219    6.5625    0.0000 N   0  0  0  0  0  0  0  0  0  0  0  0
   -9.4180    5.0625    0.0000 O   0  0  0  0  0  0  0  0  0  0  0  0
   -5.5209    8.8125    0.0000 O   0  0  0  0  0  0  0  0  0  0  0  0
   -1.6238    5.0625    0.0000 O   0  0  0  0  0  0  0  0  0  0  0  0
    2.2733    8.8125    0.0000 O   0  0  0  0  0  0  0  0  0  0  0  0
    3.5724    6.5625    0.0000 O   0  0  0  0  0  0  0  0  0  0  0  0
  7  1  1  0
  7  2  1  0
  8  3  1  6
  9  4  1  0
 10  6  1  0
 11  7  1  0
 12 11  1  0
 13  8  1  0
 14  6  1  0
 14  9  2  3
 15  8  1  0
 15 12  2  3
 16 10  2  3
 11 16  1  6
 17  9  1  0
 18 10  1  0
 19 12  1  0
 20 13  2  0
 21  5  1  0
 21 13  1  0
M  END
>  <NAME>  (5939) 
N-ACETYL-GLYCYL-VALYL-ALANINE METHYLESTER

>  <SYNONYMS>  (5939) 


>  <SPECTRUM TYPE>  (5939) 
MS1

>  <INSTRUMENT TYPE>  (5939) 
EI-B

>  <INSTRUMENT>  (5939) 
HITACHI RMU-6M

>  <ION MODE>  (5939) 
P

>  <INCHIKEY>  (5939) 
ODXCZVQCPDKJQW-GZMMTYOYSA-N

>  <FORMULA>  (5939) 
C13H23N3O5

>  <EXACT MASS>  (5939) 
301.163770836

>  <MW>  (5939) 
301

>  <ID>  (5939) 
JP000119

>  <CONTRIBUTOR>  (5939) 
University of Tokyo Team, {Faculty of Engineering, University of Tokyo

>  <COMMENT>  (5939) 
SMILES=COC(=O)C([H])(C)NC(=O)C([H])(C(C)C)NC(=O)CNC(C)=O
InChI=InChI=1S/C13H23N3O5/c1-7(2)11(16-10(18)6-14-9(4)17)12(19)15-8(3)13(20)21-5/h7-8,11H,6H2,1-5H3,(H,14,17)(H,15,19)(H,16,18)/t8-,11+/m0/s1
computed SMILES=O=C(OC)C(N=C(O)C(N=C(O)CN=C(O)C)C(C)C)C
accession=JP000119
date=2016.01.19 (Created 2008.10.21, modified 2011.05.06)
author=YAMAMOTO M, DEP. CHEMISTRY, FAC. SCIENCE, NARA WOMEN'S UNIV.
license=CC BY-NC-SA
exact mass=301.16377
ionization energy=70 eV
ion type=[M]+*
computed spectral entropy=2.0022674698631815
computed normalized entropy=0.572647830632291
SPLASH=splash10-00di-9100000000-5cbfba79cd99fee7281e
submitter=submitter = University of Tokyo Team (Faculty of Engineering, University of Tokyo)
MoNA Rating=3.75

>  <NUM PEAKS>  (5939) 
33

>  <MASS SPECTRAL PEAKS>  (5939) 
27 1.6
28 3.1
29 1.6
30 1.91
31 1.3
41 2.4
42 2.1
43 0.86
44 11.9
45 1.2
55 6.9
56 0.3
57 1.7
58 1.3
59 1.3
69 0.21
70 2.6
71 2.1
72 99.99
73 0.71
83 1.4
85 1.4
98 1.4
99 0.15
100 7.2
102 1.3
104 2.3
113 0.12
159 1.1
169 2.6
171 9.3
172 0.54
200 3.3

>  <PREDICTED SPECTRUM>  (5939) 
14 0
15 8
16 2
17 11
18 19
25 3
26 21
27 101
28 122
29 148
30 172
31 102
32 63
33 78
34 47
35 36
36 123
37 49
38 108
39 355
40 251
41 825
42 895
43 999
44 693
45 867
46 224
47 146
48 64
49 64
50 139
51 178
52 234
53 391
54 450
55 632
56 697
57 405
58 569
59 429
60 283
61 85
62 84
63 48
64 43
65 162
66 140
67 320
68 459
69 594
70 558
71 581
72 357
73 287
74 290
75 179
76 64
77 124
78 127
79 158
80 308
81 284
82 427
83 350
84 217
85 157
86 246
87 240
88 146
89 61
90 55
91 49
92 45
93 121
94 210
95 185
96 397
97 421
98 658
99 490
100 175
101 284
102 189
103 35
104 3
105 65
106 66
107 141
108 202
109 128
110 131
111 200
112 193
113 264
114 182
115 254
116 141
117 74
118 78
119 91
120 61
121 115
122 160
123 300
124 223
125 303
126 311
127 245
128 200
129 134
130 16
133 37
136 162
137 108
138 219
139 80
140 140
141 134
142 372
143 254
144 106
145 68
146 41
147 144
149 6
151 43
152 83
153 82
154 71
155 18
156 111
157 112
158 116
159 68
160 136
161 47
165 18
166 150
167 166
168 78
169 146
170 128
171 124
172 26
173 38
175 70
180 77
181 114
182 63
183 151
184 107
185 122
186 238
187 135
188 62
189 11
193 16
196 188
197 158
198 13
200 39
201 80
202 18
208 59
209 136
210 165
211 4
214 107
215 22
221 2
222 25
224 19
226 61
230 22
238 94
239 72
240 17
242 72
243 24
252 6
253 47
254 49
255 59
256 36
257 146
268 20
270 137
301 60
302 21

$$$$

     RDKit          2D

 21 20  0  0  1  0  0  0  0  0999 V2000
   -1.6238    9.5625    0.0000 C   0  0  0  0  0  0  0  0  0  0  0  0
   -4.2219    9.5625    0.0000 C   0  0  0  0  0  0  0  0  0  0  0  0
   -6.8200    5.0625    0.0000 C   0  0  0  0  0  0  0  0  0  0  0  0
  -10.7171    7.3125    0.0000 C   0  0  0  0  0  0  0  0  0  0  0  0
    4.8714    7.3125    0.0000 C   0  0  0  0  0  0  0  0  0  0  0  0
    0.9743    6.5625    0.0000 C   0  0  0  0  0  0  0  0  0  0  0  0
   -2.9228    8.8125    0.0000 C   0  0  0  0  0  0  0  0  0  0  0  0
   -6.8200    6.5625    0.0000 C   0  0  0  0  0  0  0  0  0  0  0  0
   -9.4180    6.5625    0.0000 C   0  0  0  0  0  0  0  0  0  0  0  0
    2.2733    7.3125    0.0000 C   0  0  0  0  0  0  0  0  0  0  0  0
   -2.9228    7.3125    0.0000 C   0  0  0  0  0  0  0  0  0  0  0  0
   -5.5209    7.3125    0.0000 C   0  0  0  0  0  0  0  0  0  0  0  0
   -1.6238    6.5625    0.0000 C   0  0  0  0  0  0  0  0  0  0  0  0
   -0.3248    7.3125    0.0000 N   0  0  0  0  0  0  0  0  0  0  0  0
   -8.1190    7.3125    0.0000 N   0  0  0  0  0  0  0  0  0  0  0  0
   -4.2219    6.5625    0.0000 N   0  0  0  0  0  0  0  0  0  0  0  0
   -9.4180    5.0625    0.0000 O   0  0  0  0  0  0  0  0  0  0  0  0
    2.2733    8.8125    0.0000 O   0  0  0  0  0  0  0  0  0  0  0  0
   -5.5209    8.8125    0.0000 O   0  0  0  0  0  0  0  0  0  0  0  0
   -1.6238    5.0625    0.0000 O   0  0  0  0  0  0  0  0  0  0  0  0
    3.5724    6.5625    0.0000 O   0  0  0  0  0  0  0  0  0  0  0  0
  7  1  1  0
  7  2  1  0
  8  3  1  6
  9  4  1  0
 10  6  1  0
 11  7  1  0
 12  8  1  0
 13 11  1  0
 14  6  1  0
 14 13  2  3
 15  8  1  0
 15  9  2  3
 11 16  1  6
 16 12  2  3
 17  9  1  0
 18 10  2  0
 19 12  1  0
 20 13  1  0
 21  5  1  0
 21 10  1  0
M  END
>  <NAME>  (5940) 
N-ACETYL-ALANYL-VALYL-GLYCINE METHYLESTER

>  <SYNONYMS>  (5940) 


>  <SPECTRUM TYPE>  (5940) 
MS1

>  <INSTRUMENT TYPE>  (5940) 
EI-B

>  <INSTRUMENT>  (5940) 
HITACHI RMU-6M

>  <ION MODE>  (5940) 
P

>  <INCHIKEY>  (5940) 
UEGJWOSKZCVBFS-GZMMTYOYSA-N

>  <FORMULA>  (5940) 
C13H23N3O5

>  <EXACT MASS>  (5940) 
301.16377083599997

>  <MW>  (5940) 
301

>  <ID>  (5940) 
JP000118

>  <CONTRIBUTOR>  (5940) 
University of Tokyo Team, {Faculty of Engineering, University of Tokyo

>  <COMMENT>  (5940) 
SMILES=COC(=O)CNC(=O)C([H])(C(C)C)NC(=O)C([H])(C)NC(C)=O
InChI=InChI=1S/C13H23N3O5/c1-7(2)11(13(20)14-6-10(18)21-5)16-12(19)8(3)15-9(4)17/h7-8,11H,6H2,1-5H3,(H,14,20)(H,15,17)(H,16,19)/t8-,11+/m0/s1
computed SMILES=O=C(OC)CN=C(O)C(N=C(O)C(N=C(O)C)C)C(C)C
accession=JP000118
date=2016.01.19 (Created 2008.10.21, modified 2011.05.06)
author=YAMAMOTO M, DEP. CHEMISTRY, FAC. SCIENCE, NARA WOMEN'S UNIV.
license=CC BY-NC-SA
exact mass=301.16377
ionization energy=70 eV
ion type=[M]+*
computed spectral entropy=2.1598222326506527
computed normalized entropy=0.6074854543906049
SPLASH=splash10-00di-9000000000-b67fdcb025e281918a93
submitter=submitter = University of Tokyo Team (Faculty of Engineering, University of Tokyo)
MoNA Rating=3.75

>  <NUM PEAKS>  (5940) 
35

>  <MASS SPECTRAL PEAKS>  (5940) 
27 1.8
28 3.7
29 2
30 0.71
39 1.2
41 3.1
42 2.9
43 0.99
44 47.3
45 1.6
55 7.4
56 0.43
57 2.2
69 2.6
70 1.7
71 0.21
72 99.99
73 5.6
82 1
83 0.16
84 1.2
85 1.3
86 12
87 1.24
88 1.9
90 2.6
114 8
127 0.19
155 1.8
159 2.4
173 1.7
185 0.9
186 1.8
213 2.5
215 1.8

>  <PREDICTED SPECTRUM>  (5940) 
14 28
15 68
16 21
17 52
18 77
19 4
25 19
26 89
27 297
28 249
29 326
30 197
31 264
32 64
33 62
34 12
36 62
37 4
38 65
39 323
40 225
41 877
42 947
43 999
44 577
45 797
46 193
47 121
48 4
49 34
50 49
51 123
52 151
53 263
54 390
55 478
56 647
57 514
58 450
59 478
60 430
61 96
62 0
65 113
66 65
67 267
68 376
69 534
70 404
71 314
72 238
73 307
74 367
75 96
77 116
78 72
79 41
80 142
81 123
82 433
83 290
84 184
85 183
86 253
87 113
88 6
91 23
92 46
93 116
94 114
95 100
96 372
97 416
98 379
99 183
100 178
101 176
102 152
105 90
106 3
107 84
108 79
109 122
110 95
111 174
112 134
113 168
114 114
115 232
116 91
118 126
119 73
120 7
122 6
123 199
124 253
125 291
126 169
127 106
128 111
133 15
136 70
137 76
138 313
139 123
140 281
141 120
142 501
143 267
144 12
147 34
151 47
152 130
153 140
154 145
155 20
156 51
158 131
160 97
165 39
166 241
167 279
168 157
169 183
170 123
171 99
180 44
181 42
182 86
183 192
184 62
185 37
186 226
187 16
193 41
196 253
197 198
198 71
201 17
208 96
209 139
210 216
211 19
214 44
226 26
228 72
229 7
238 92
242 77
243 51
252 116
253 63
257 165
270 149
301 6

$$$$

     RDKit          2D

 20 19  0  0  1  0  0  0  0  0999 V2000
   -1.6238    9.5625    0.0000 C   0  0  0  0  0  0  0  0  0  0  0  0
   -4.2219    9.5625    0.0000 C   0  0  0  0  0  0  0  0  0  0  0  0
  -10.7171    7.3125    0.0000 C   0  0  0  0  0  0  0  0  0  0  0  0
    4.8714    7.3125    0.0000 C   0  0  0  0  0  0  0  0  0  0  0  0
   -6.8200    6.5625    0.0000 C   0  0  0  0  0  0  0  0  0  0  0  0
    0.9743    6.5625    0.0000 C   0  0  0  0  0  0  0  0  0  0  0  0
   -2.9228    8.8125    0.0000 C   0  0  0  0  0  0  0  0  0  0  0  0
   -9.4180    6.5625    0.0000 C   0  0  0  0  0  0  0  0  0  0  0  0
   -5.5209    7.3125    0.0000 C   0  0  0  0  0  0  0  0  0  0  0  0
    2.2733    7.3125    0.0000 C   0  0  0  0  0  0  0  0  0  0  0  0
   -2.9228    7.3125    0.0000 C   0  0  0  0  0  0  0  0  0  0  0  0
   -1.6238    6.5625    0.0000 C   0  0  0  0  0  0  0  0  0  0  0  0
   -8.1190    7.3125    0.0000 N   0  0  0  0  0  0  0  0  0  0  0  0
   -0.3248    7.3125    0.0000 N   0  0  0  0  0  0  0  0  0  0  0  0
   -4.2219    6.5625    0.0000 N   0  0  0  0  0  0  0  0  0  0  0  0
   -9.4180    5.0625    0.0000 O   0  0  0  0  0  0  0  0  0  0  0  0
   -5.5209    8.8125    0.0000 O   0  0  0  0  0  0  0  0  0  0  0  0
    2.2733    8.8125    0.0000 O   0  0  0  0  0  0  0  0  0  0  0  0
   -1.6238    5.0625    0.0000 O   0  0  0  0  0  0  0  0  0  0  0  0
    3.5724    6.5625    0.0000 O   0  0  0  0  0  0  0  0  0  0  0  0
  7  1  1  0
  7  2  1  0
  8  3  1  0
  9  5  1  0
 10  6  1  0
 11  7  1  0
 12 11  1  0
 13  5  1  0
 13  8  2  3
 14  6  1  0
 14 12  2  3
 15  9  2  3
 11 15  1  6
 16  8  1  0
 17  9  1  0
 18 10  2  0
 19 12  1  0
 20  4  1  0
 20 10  1  0
M  END
>  <NAME>  (5941) 
N-ACETYL-GLYCYL-VALYL-GLYCINE METHYLESTER

>  <SYNONYMS>  (5941) 


>  <SPECTRUM TYPE>  (5941) 
MS1

>  <INSTRUMENT TYPE>  (5941) 
EI-B

>  <INSTRUMENT>  (5941) 
HITACHI RMU-6M

>  <ION MODE>  (5941) 
P

>  <INCHIKEY>  (5941) 
XAHIQDXYCYBQRT-LLVKDONJSA-N

>  <FORMULA>  (5941) 
C12H21N3O5

>  <EXACT MASS>  (5941) 
287.14812077199997

>  <MW>  (5941) 
287

>  <ID>  (5941) 
JP000117

>  <CONTRIBUTOR>  (5941) 
University of Tokyo Team, {Faculty of Engineering, University of Tokyo

>  <COMMENT>  (5941) 
SMILES=COC(=O)CNC(=O)C([H])(C(C)C)NC(=O)CNC(C)=O
InChI=InChI=1S/C12H21N3O5/c1-7(2)11(12(19)14-6-10(18)20-4)15-9(17)5-13-8(3)16/h7,11H,5-6H2,1-4H3,(H,13,16)(H,14,19)(H,15,17)/t11-/m1/s1
computed SMILES=O=C(OC)CN=C(O)C(N=C(O)CN=C(O)C)C(C)C
accession=JP000117
date=2016.01.19 (Created 2008.10.21, modified 2011.05.06)
author=YAMAMOTO M, DEP. CHEMISTRY, FAC. SCIENCE, NARA WOMEN'S UNIV.
license=CC BY-NC-SA
exact mass=287.14812
ionization energy=70 eV
ion type=[M]+*
computed spectral entropy=2.2198302650296102
computed normalized entropy=0.6147551173225259
SPLASH=splash10-00di-9000000000-6b54a061019a97ae30ca
submitter=submitter = University of Tokyo Team (Faculty of Engineering, University of Tokyo)
MoNA Rating=3.75

>  <NUM PEAKS>  (5941) 
37

>  <MASS SPECTRAL PEAKS>  (5941) 
15 4.1
27 2
28 6.4
29 0.3
30 42.2
31 2.2
39 1.6
41 0.38
43 16.7
44 2.7
45 2
55 1
56 6.6
57 2.2
58 1.3
59 0.14
69 3.1
70 2.7
72 99.99
73 0.88
82 1.1
83 1.8
84 1.2
85 0.26
88 2.6
90 3.5
98 2.8
100 0.82
113 1.4
114 1.1
127 1.6
145 0.13
155 2.3
171 8.3
172 1.9
199 0.28
215 1

>  <PREDICTED SPECTRUM>  (5941) 
14 27
15 106
16 29
17 37
18 49
19 15
25 23
26 104
27 367
28 288
29 413
30 303
31 274
32 106
33 67
34 17
36 104
37 25
38 111
39 425
40 257
41 965
42 999
43 975
44 684
45 925
46 173
47 84
48 17
50 17
51 124
52 188
53 392
54 510
55 736
56 785
57 287
58 484
59 451
60 442
61 201
62 18
63 80
64 56
65 144
66 104
67 390
68 444
69 548
70 427
71 486
72 328
73 426
74 346
75 148
76 68
77 123
78 95
79 165
80 227
81 231
82 342
83 224
84 242
85 152
86 261
87 219
88 150
89 28
91 87
92 54
93 183
94 140
95 157
96 255
97 350
98 496
99 321
100 140
101 262
102 223
103 99
104 80
105 160
106 127
107 189
108 287
109 279
110 155
111 125
112 133
113 164
114 237
115 210
116 117
118 39
119 60
122 69
123 164
124 150
125 120
126 114
127 104
128 243
129 208
130 115
131 47
133 115
136 49
137 111
138 192
139 129
140 185
141 6
142 320
143 176
144 135
145 41
146 92
147 32
151 135
152 146
153 93
154 57
155 131
156 175
157 182
158 87
161 11
166 58
167 78
169 77
170 111
171 101
172 186
173 49
174 66
179 52
182 176
183 186
184 34
187 22
188 31
194 72
195 89
196 89
209 15
210 44
224 119
225 75
228 35
241 58
242 250
243 161
256 32
288 3

$$$$

     RDKit          2D

 22 21  0  0  1  0  0  0  0  0999 V2000
   -6.4952    3.7500    0.0000 C   0  0  0  0  0  0  0  0  0  0  0  0
   -3.8971    3.7500    0.0000 C   0  0  0  0  0  0  0  0  0  0  0  0
   -3.8971   11.2500    0.0000 C   0  0  0  0  0  0  0  0  0  0  0  0
    3.8971    6.7500    0.0000 C   0  0  0  0  0  0  0  0  0  0  0  0
   -7.7942   13.5000    0.0000 C   0  0  0  0  0  0  0  0  0  0  0  0
   -5.1962    6.0000    0.0000 C   0  0  0  0  0  0  0  0  0  0  0  0
    0.0000    6.0000    0.0000 C   0  0  0  0  0  0  0  0  0  0  0  0
   -5.1962    4.5000    0.0000 C   0  0  0  0  0  0  0  0  0  0  0  0
   -5.1962   10.5000    0.0000 C   0  0  0  0  0  0  0  0  0  0  0  0
    2.5981    6.0000    0.0000 C   0  0  0  0  0  0  0  0  0  0  0  0
   -3.8971    6.7500    0.0000 C   0  0  0  0  0  0  0  0  0  0  0  0
   -1.2990    6.7500    0.0000 C   0  0  0  0  0  0  0  0  0  0  0  0
   -3.8971    8.2500    0.0000 C   0  0  0  0  0  0  0  0  0  0  0  0
   -6.4952   11.2500    0.0000 C   0  0  0  0  0  0  0  0  0  0  0  0
    1.2990    6.7500    0.0000 N   0  0  0  0  0  0  0  0  0  0  0  0
   -5.1962    9.0000    0.0000 N   0  0  0  0  0  0  0  0  0  0  0  0
   -2.5981    6.0000    0.0000 N   0  0  0  0  0  0  0  0  0  0  0  0
    2.5981    4.5000    0.0000 O   0  0  0  0  0  0  0  0  0  0  0  0
   -1.2990    8.2500    0.0000 O   0  0  0  0  0  0  0  0  0  0  0  0
   -2.5981    9.0000    0.0000 O   0  0  0  0  0  0  0  0  0  0  0  0
   -7.7942   10.5000    0.0000 O   0  0  0  0  0  0  0  0  0  0  0  0
   -6.4952   12.7500    0.0000 O   0  0  0  0  0  0  0  0  0  0  0  0
  8  1  1  0
  8  2  1  0
  8  6  1  0
  9  3  1  6
 10  4  1  0
 11  6  1  6
 12  7  1  0
 13 11  1  0
 14  9  1  0
 15  7  1  0
 15 10  2  3
 16  9  1  0
 16 13  2  3
 11 17  1  0
 17 12  2  3
 18 10  1  0
 19 12  1  0
 20 13  1  0
 21 14  2  0
 22  5  1  0
 22 14  1  0
M  END
>  <NAME>  (5942) 
N-ACETYL-GLYCYL-LEUCYL-ALANINE METHYLESTER

>  <SYNONYMS>  (5942) 


>  <SPECTRUM TYPE>  (5942) 
MS1

>  <INSTRUMENT TYPE>  (5942) 
EI-B

>  <INSTRUMENT>  (5942) 
HITACHI RMU-6M

>  <ION MODE>  (5942) 
P

>  <INCHIKEY>  (5942) 
ZHBQZAHXYOMCDR-GXSJLCMTSA-N

>  <FORMULA>  (5942) 
C14H25N3O5

>  <EXACT MASS>  (5942) 
315.1794209

>  <MW>  (5942) 
315

>  <ID>  (5942) 
JP000116

>  <CONTRIBUTOR>  (5942) 
University of Tokyo Team, {Faculty of Engineering, University of Tokyo

>  <COMMENT>  (5942) 
SMILES=CC(=O)NCC(=O)NC([H])(CC(C)C)C(=O)NC([H])(C)C(=O)OC
InChI=InChI=1S/C14H25N3O5/c1-8(2)6-11(17-12(19)7-15-10(4)18)13(20)16-9(3)14(21)22-5/h8-9,11H,6-7H2,1-5H3,(H,15,18)(H,16,20)(H,17,19)/t9-,11+/m0/s1
computed SMILES=O=C(OC)C(N=C(O)C(N=C(O)CN=C(O)C)CC(C)C)C
accession=JP000116
date=2016.01.19 (Created 2008.10.21, modified 2011.05.06)
author=YAMAMOTO M, DEP. CHEMISTRY, FAC. SCIENCE, NARA WOMEN'S UNIV.
license=CC BY-NC-SA
exact mass=315.17942
ionization energy=70 eV
ion type=[M]+*
computed spectral entropy=2.7337841342164655
computed normalized entropy=0.6853334338529338
SPLASH=splash10-000i-9100000000-c86f38afe7bf4ef5bbe2
submitter=submitter = University of Tokyo Team (Faculty of Engineering, University of Tokyo)
MoNA Rating=3.75

>  <NUM PEAKS>  (5942) 
54

>  <MASS SPECTRAL PEAKS>  (5942) 
15 2.7
27 2.9
28 3.1
29 0.31
30 30
31 1.3
39 1.5
41 0.86
42 3.2
43 14.1
44 19.3
45 0.13
54 1.1
55 5.9
56 10.7
57 0.74
58 1
67 1.7
68 1.1
69 0.4
70 5.3
71 3.6
72 8.7
73 0.36
81 1.7
82 1.1
83 2.9
84 0.31
85 2.3
86 99.99
87 5.7
95 0.15
97 2.1
98 2.3
99 3.8
100 0.67
101 1.1
102 1.1
104 3.3
111 0.32
112 1
113 1
127 1.1
143 0.36
149 2.9
155 1.1
167 1
169 0.1
183 2.3
185 8
186 4
213 0.32
224 1.5
259 1.7

>  <PREDICTED SPECTRUM>  (5942) 
17 15
18 32
26 27
27 204
28 125
29 261
30 165
31 146
32 41
33 76
34 30
36 36
38 21
39 323
40 193
41 849
42 744
43 999
44 584
45 565
46 216
47 86
48 6
49 4
50 45
51 115
52 93
53 307
54 371
55 582
56 617
57 343
58 418
59 386
60 325
61 80
62 0
64 0
65 105
66 53
67 237
68 446
69 634
70 521
71 509
72 340
73 259
74 259
75 76
77 3
78 8
79 105
80 186
81 235
82 322
83 380
84 283
85 300
86 522
87 242
88 195
89 56
91 78
92 4
93 40
94 106
95 167
96 320
97 453
98 532
99 371
100 172
101 285
102 123
103 26
107 31
108 141
109 127
110 256
111 187
112 270
113 410
114 324
115 188
116 138
117 7
119 29
123 111
124 173
125 297
126 366
127 254
128 167
129 210
130 77
131 14
136 133
137 147
138 204
139 194
140 211
141 79
142 211
143 70
150 29
151 125
152 203
153 181
154 152
155 217
156 225
157 93
161 4
166 72
167 261
168 112
169 49
170 185
171 164
172 46
173 19
180 76
181 90
182 63
183 189
184 119
185 148
187 19
197 63
198 108
199 23
200 207
201 106
202 55
210 80
211 146
212 114
213 90
214 60
215 78
216 27
224 20
228 43
240 68
269 21
270 138
271 37
315 145
319 7

$$$$

     RDKit          2D

 22 21  0  0  1  0  0  0  0  0999 V2000
   -1.6238   11.0625    0.0000 C   0  0  0  0  0  0  0  0  0  0  0  0
   -0.3248    8.8125    0.0000 C   0  0  0  0  0  0  0  0  0  0  0  0
   -6.8200    5.0625    0.0000 C   0  0  0  0  0  0  0  0  0  0  0  0
  -10.7171    7.3125    0.0000 C   0  0  0  0  0  0  0  0  0  0  0  0
    4.8714    7.3125    0.0000 C   0  0  0  0  0  0  0  0  0  0  0  0
   -2.9228    8.8125    0.0000 C   0  0  0  0  0  0  0  0  0  0  0  0
    0.9743    6.5625    0.0000 C   0  0  0  0  0  0  0  0  0  0  0  0
   -1.6238    9.5625    0.0000 C   0  0  0  0  0  0  0  0  0  0  0  0
   -6.8200    6.5625    0.0000 C   0  0  0  0  0  0  0  0  0  0  0  0
   -9.4180    6.5625    0.0000 C   0  0  0  0  0  0  0  0  0  0  0  0
   -2.9228    7.3125    0.0000 C   0  0  0  0  0  0  0  0  0  0  0  0
    2.2733    7.3125    0.0000 C   0  0  0  0  0  0  0  0  0  0  0  0
   -5.5209    7.3125    0.0000 C   0  0  0  0  0  0  0  0  0  0  0  0
   -1.6238    6.5625    0.0000 C   0  0  0  0  0  0  0  0  0  0  0  0
   -0.3248    7.3125    0.0000 N   0  0  0  0  0  0  0  0  0  0  0  0
   -8.1190    7.3125    0.0000 N   0  0  0  0  0  0  0  0  0  0  0  0
   -4.2219    6.5625    0.0000 N   0  0  0  0  0  0  0  0  0  0  0  0
   -9.4180    5.0625    0.0000 O   0  0  0  0  0  0  0  0  0  0  0  0
    2.2733    8.8125    0.0000 O   0  0  0  0  0  0  0  0  0  0  0  0
   -5.5209    8.8125    0.0000 O   0  0  0  0  0  0  0  0  0  0  0  0
   -1.6238    5.0625    0.0000 O   0  0  0  0  0  0  0  0  0  0  0  0
    3.5724    6.5625    0.0000 O   0  0  0  0  0  0  0  0  0  0  0  0
  8  1  1  0
  8  2  1  0
  8  6  1  0
  9  3  1  6
 10  4  1  0
 11  6  1  6
 12  7  1  0
 13  9  1  0
 14 11  1  0
 15  7  1  0
 15 14  2  3
 16  9  1  0
 16 10  2  3
 11 17  1  0
 17 13  2  3
 18 10  1  0
 19 12  2  0
 20 13  1  0
 21 14  1  0
 22  5  1  0
 22 12  1  0
M  END
>  <NAME>  (5943) 
N-ACETYL-ALANYL-LEUCYL-GLYCINE METHYLESTER

>  <SYNONYMS>  (5943) 


>  <SPECTRUM TYPE>  (5943) 
MS1

>  <INSTRUMENT TYPE>  (5943) 
EI-B

>  <INSTRUMENT>  (5943) 
HITACHI RMU-6M

>  <ION MODE>  (5943) 
P

>  <INCHIKEY>  (5943) 
YKEYCFCGBQCOIK-GXSJLCMTSA-N

>  <FORMULA>  (5943) 
C14H25N3O5

>  <EXACT MASS>  (5943) 
315.1794209

>  <MW>  (5943) 
315

>  <ID>  (5943) 
JP000115

>  <CONTRIBUTOR>  (5943) 
University of Tokyo Team, {Faculty of Engineering, University of Tokyo

>  <COMMENT>  (5943) 
SMILES=COC(=O)CNC(=O)C([H])(CC(C)C)NC(=O)C([H])(C)NC(C)=O
InChI=InChI=1S/C14H25N3O5/c1-8(2)6-11(14(21)15-7-12(19)22-5)17-13(20)9(3)16-10(4)18/h8-9,11H,6-7H2,1-5H3,(H,15,21)(H,16,18)(H,17,20)/t9-,11+/m0/s1
computed SMILES=O=C(OC)CN=C(O)C(N=C(O)C(N=C(O)C)C)CC(C)C
accession=JP000115
date=2016.01.19 (Created 2008.10.21, modified 2011.05.06)
author=YAMAMOTO M, DEP. CHEMISTRY, FAC. SCIENCE, NARA WOMEN'S UNIV.
license=CC BY-NC-SA
exact mass=315.17942
ionization energy=70 eV
ion type=[M]+*
computed spectral entropy=2.3629937067299243
computed normalized entropy=0.6363128718886061
SPLASH=splash10-000l-9000000000-17936ed2b2446c14b285
submitter=submitter = University of Tokyo Team (Faculty of Engineering, University of Tokyo)
MoNA Rating=3.75

>  <NUM PEAKS>  (5943) 
41

>  <MASS SPECTRAL PEAKS>  (5943) 
15 3
27 3
28 4.9
30 1.42
39 1.9
41 6.4
42 5.2
43 1.54
44 61.4
45 3
53 1.5
54 0.15
55 5.6
56 9.4
57 1.9
59 0.15
61 1.5
67 1.5
68 1.5
69 0.29
70 4.9
83 1.1
84 2.6
85 0.22
86 99.99
87 15.7
88 3.4
90 0.3
98 1.4
99 1.6
112 2.3
114 0.71
141 1.9
144 5.2
169 1.6
187 0.14
199 5.2
200 1.1
227 3
229 0.19
315 1.2

>  <PREDICTED SPECTRUM>  (5943) 
14 5
15 7
17 42
18 67
25 12
26 51
27 295
28 236
29 301
30 154
31 239
32 27
33 73
34 15
39 229
40 177
41 962
42 877
43 999
44 586
45 800
46 273
47 106
48 25
49 22
51 66
52 40
53 199
54 357
55 367
56 534
57 472
58 380
59 570
60 383
61 92
62 0
63 7
64 35
65 116
66 80
67 240
68 327
69 402
70 329
71 307
72 177
73 220
74 335
79 71
80 83
81 115
82 335
83 297
84 231
85 221
86 321
87 38
91 75
92 16
95 54
96 363
97 456
98 413
99 293
100 135
101 198
102 1
107 45
108 130
109 76
110 275
111 157
112 128
113 188
114 184
115 122
116 34
119 43
120 2
121 9
124 148
125 240
126 393
127 188
128 80
129 93
130 5
137 135
138 206
139 85
140 226
142 104
151 12
152 223
153 143
154 194
155 57
156 173
157 171
166 57
167 60
168 49
169 84
170 181
180 32
181 25
182 80
183 161
184 56
194 74
196 14
197 95
200 29
210 113
211 65
212 69
222 0
224 11
252 71
258 47
270 144
271 20
315 130

$$$$

     RDKit          2D

 23 22  0  0  1  0  0  0  0  0999 V2000
   -1.6238   11.0625    0.0000 C   0  0  0  0  0  0  0  0  0  0  0  0
   -0.3248    8.8125    0.0000 C   0  0  0  0  0  0  0  0  0  0  0  0
   -6.8200    5.0625    0.0000 C   0  0  0  0  0  0  0  0  0  0  0  0
    0.9743    5.0625    0.0000 C   0  0  0  0  0  0  0  0  0  0  0  0
  -10.7171    7.3125    0.0000 C   0  0  0  0  0  0  0  0  0  0  0  0
    4.8714    7.3125    0.0000 C   0  0  0  0  0  0  0  0  0  0  0  0
   -2.9228    8.8125    0.0000 C   0  0  0  0  0  0  0  0  0  0  0  0
   -1.6238    9.5625    0.0000 C   0  0  0  0  0  0  0  0  0  0  0  0
   -6.8200    6.5625    0.0000 C   0  0  0  0  0  0  0  0  0  0  0  0
    0.9743    6.5625    0.0000 C   0  0  0  0  0  0  0  0  0  0  0  0
   -9.4180    6.5625    0.0000 C   0  0  0  0  0  0  0  0  0  0  0  0
   -2.9228    7.3125    0.0000 C   0  0  0  0  0  0  0  0  0  0  0  0
   -5.5209    7.3125    0.0000 C   0  0  0  0  0  0  0  0  0  0  0  0
   -1.6238    6.5625    0.0000 C   0  0  0  0  0  0  0  0  0  0  0  0
    2.2733    7.3125    0.0000 C   0  0  0  0  0  0  0  0  0  0  0  0
   -8.1190    7.3125    0.0000 N   0  0  0  0  0  0  0  0  0  0  0  0
   -0.3248    7.3125    0.0000 N   0  0  0  0  0  0  0  0  0  0  0  0
   -4.2219    6.5625    0.0000 N   0  0  0  0  0  0  0  0  0  0  0  0
   -9.4180    5.0625    0.0000 O   0  0  0  0  0  0  0  0  0  0  0  0
   -5.5209    8.8125    0.0000 O   0  0  0  0  0  0  0  0  0  0  0  0
   -1.6238    5.0625    0.0000 O   0  0  0  0  0  0  0  0  0  0  0  0
    2.2733    8.8125    0.0000 O   0  0  0  0  0  0  0  0  0  0  0  0
    3.5724    6.5625    0.0000 O   0  0  0  0  0  0  0  0  0  0  0  0
  8  1  1  0
  8  2  1  0
  8  7  1  0
  9  3  1  6
 10  4  1  6
 11  5  1  0
 12  7  1  6
 13  9  1  0
 14 12  1  0
 15 10  1  0
 16  9  1  0
 16 11  2  3
 17 10  1  0
 17 14  2  3
 12 18  1  0
 18 13  2  3
 19 11  1  0
 20 13  1  0
 21 14  1  0
 22 15  2  0
 23  6  1  0
 23 15  1  0
M  END
>  <NAME>  (5944) 
N-ACETYL-ALANYL-LEUCYL-ALANINE METHYLESTER

>  <SYNONYMS>  (5944) 


>  <SPECTRUM TYPE>  (5944) 
MS1

>  <INSTRUMENT TYPE>  (5944) 
EI-B

>  <INSTRUMENT>  (5944) 
HITACHI RMU-6M

>  <ION MODE>  (5944) 
P

>  <INCHIKEY>  (5944) 
AUAGMYCQABLHDY-JBLDHEPKSA-N

>  <FORMULA>  (5944) 
C15H27N3O5

>  <EXACT MASS>  (5944) 
329.195070964

>  <MW>  (5944) 
329

>  <ID>  (5944) 
JP000114

>  <CONTRIBUTOR>  (5944) 
University of Tokyo Team, {Faculty of Engineering, University of Tokyo

>  <COMMENT>  (5944) 
SMILES=COC(=O)C([H])(C)NC(=O)C([H])(CC(C)C)NC(=O)C([H])(C)NC(C)=O
InChI=InChI=1S/C15H27N3O5/c1-8(2)7-12(14(21)17-10(4)15(22)23-6)18-13(20)9(3)16-11(5)19/h8-10,12H,7H2,1-6H3,(H,16,19)(H,17,21)(H,18,20)/t9-,10-,12+/m0/s1
computed SMILES=O=C(OC)C(N=C(O)C(N=C(O)C(N=C(O)C)C)CC(C)C)C
accession=JP000114
date=2016.01.19 (Created 2008.10.21, modified 2011.05.06)
author=YAMAMOTO M, DEP. CHEMISTRY, FAC. SCIENCE, NARA WOMEN'S UNIV.
license=CC BY-NC-SA
exact mass=329.19507
ionization energy=70 eV
ion type=[M]+*
computed spectral entropy=1.9470631307412902
computed normalized entropy=0.5476434647373519
SPLASH=splash10-000i-9000000000-1adbc70553247967d91b
submitter=submitter = University of Tokyo Team (Faculty of Engineering, University of Tokyo)
MoNA Rating=3.75

>  <NUM PEAKS>  (5944) 
35

>  <MASS SPECTRAL PEAKS>  (5944) 
15 2.2
27 1.6
28 2.2
29 0.1
30 7.6
41 2.9
42 3.2
43 0.8
44 48
45 1.6
55 3.5
56 0.13
57 1
59 1.3
69 1.5
70 0.41
72 2.5
84 1.3
86 99.99
87 1.18
98 1.6
99 1.1
102 1.3
104 0.22
126 1.1
141 1.6
158 3.5
183 0.29
199 4.5
200 2.2
201 1.6
227 0.32
243 2.2
273 1
329 0.5

>  <PREDICTED SPECTRUM>  (5944) 
14 2
15 10
17 14
18 17
26 26
27 203
28 128
29 277
30 151
31 195
32 25
33 78
34 20
36 14
38 15
39 206
40 157
41 732
42 551
43 999
44 447
45 565
46 162
47 56
49 42
50 17
51 43
52 60
53 145
54 237
55 268
56 323
57 289
58 329
59 434
60 211
61 84
63 53
65 35
67 153
68 241
69 468
70 312
71 293
72 227
73 215
74 213
78 45
79 64
80 118
81 97
82 238
83 201
84 213
85 201
86 365
87 164
88 54
93 21
94 82
95 103
96 245
97 381
98 337
99 320
100 144
101 94
102 48
105 22
108 18
110 100
111 65
112 105
113 248
114 92
115 140
122 15
123 8
124 199
125 172
126 328
127 188
128 184
129 22
130 12
132 22
133 12
138 116
139 73
140 450
141 99
142 172
143 94
151 51
152 99
153 77
154 49
155 7
157 18
166 94
167 136
168 77
169 63
170 115
171 12
181 3
182 78
183 367
184 136
186 133
194 53
196 115
197 114
198 48
208 18
209 35
210 36
211 106
212 79
214 126
215 38
224 64
225 52
227 14
228 25
236 62
238 129
254 21
270 95
271 27
284 52
296 25
329 126
330 24

$$$$

     RDKit          2D

 22 21  0  0  1  0  0  0  0  0999 V2000
  -13.3151    7.3125    0.0000 C   0  0  0  0  0  0  0  0  0  0  0  0
    3.5724    6.5625    0.0000 C   0  0  0  0  0  0  0  0  0  0  0  0
   -1.6238    2.0625    0.0000 C   0  0  0  0  0  0  0  0  0  0  0  0
  -12.0161    6.5625    0.0000 C   0  0  0  0  0  0  0  0  0  0  0  0
   -4.2219    5.0625    0.0000 C   0  0  0  0  0  0  0  0  0  0  0  0
   -2.9228    4.3125    0.0000 C   0  0  0  0  0  0  0  0  0  0  0  0
   -0.3248    7.3125    0.0000 C   0  0  0  0  0  0  0  0  0  0  0  0
   -8.1190    7.3125    0.0000 C   0  0  0  0  0  0  0  0  0  0  0  0
    2.2733    7.3125    0.0000 C   0  0  0  0  0  0  0  0  0  0  0  0
   -4.2219    6.5625    0.0000 C   0  0  0  0  0  0  0  0  0  0  0  0
   -1.6238    6.5625    0.0000 C   0  0  0  0  0  0  0  0  0  0  0  0
   -9.4180    6.5625    0.0000 C   0  0  0  0  0  0  0  0  0  0  0  0
   -5.5209    7.3125    0.0000 C   0  0  0  0  0  0  0  0  0  0  0  0
    0.9743    6.5625    0.0000 N   0  0  0  0  0  0  0  0  0  0  0  0
   -6.8200    6.5625    0.0000 N   0  0  0  0  0  0  0  0  0  0  0  0
   -2.9228    7.3125    0.0000 N   0  0  0  0  0  0  0  0  0  0  0  0
    2.2733    8.8125    0.0000 O   0  0  0  0  0  0  0  0  0  0  0  0
   -1.6238    5.0625    0.0000 O   0  0  0  0  0  0  0  0  0  0  0  0
   -9.4180    5.0625    0.0000 O   0  0  0  0  0  0  0  0  0  0  0  0
   -5.5209    8.8125    0.0000 O   0  0  0  0  0  0  0  0  0  0  0  0
  -10.7171    7.3125    0.0000 O   0  0  0  0  0  0  0  0  0  0  0  0
   -2.9228    2.8125    0.0000 S   0  0  0  0  0  0  0  0  0  0  0  0
  4  1  1  0
  6  5  1  0
  9  2  1  0
 10  5  1  6
 11  7  1  0
 12  8  1  0
 13 10  1  0
 14  7  1  0
 14  9  2  3
 15  8  1  0
 15 13  2  3
 10 16  1  0
 16 11  2  3
 17  9  1  0
 18 11  1  0
 19 12  2  0
 20 13  1  0
 21  4  1  0
 21 12  1  0
 22  3  1  0
 22  6  1  0
M  END
>  <NAME>  (5945) 
N-ACETYL-GLYCYL-METHIONYL-GLYCINE ETHYLESTER

>  <SYNONYMS>  (5945) 


>  <SPECTRUM TYPE>  (5945) 
MS1

>  <INSTRUMENT TYPE>  (5945) 
EI-B

>  <INSTRUMENT>  (5945) 
HITACHI RMU-6M

>  <ION MODE>  (5945) 
P

>  <INCHIKEY>  (5945) 
HHRQOICKOIKRLM-SNVBAGLBSA-N

>  <FORMULA>  (5945) 
C13H23N3O5S

>  <EXACT MASS>  (5945) 
333.13584183600005

>  <MW>  (5945) 
333

>  <ID>  (5945) 
JP000113

>  <CONTRIBUTOR>  (5945) 
University of Tokyo Team, {Faculty of Engineering, University of Tokyo

>  <COMMENT>  (5945) 
SMILES=CCOC(=O)CNC(=O)C([H])(CCSC)NC(=O)CNC(C)=O
InChI=InChI=1S/C13H23N3O5S/c1-4-21-12(19)8-15-13(20)10(5-6-22-3)16-11(18)7-14-9(2)17/h10H,4-8H2,1-3H3,(H,14,17)(H,15,20)(H,16,18)/t10-/m1/s1
computed SMILES=O=C(OCC)CN=C(O)C(N=C(O)CN=C(O)C)CCSC
accession=JP000113
date=2016.01.19 (Created 2008.10.21, modified 2011.05.06)
author=YAMAMOTO M, DEP. CHEMISTRY, FAC. SCIENCE, NARA WOMEN'S UNIV.
license=CC BY-NC-SA
exact mass=333.13584
ionization energy=70 eV
ion type=[M]+*
computed spectral entropy=3.6232877378693953
computed normalized entropy=0.7678899236177852
SPLASH=splash10-0ue9-9710000000-368e3799f2da4e1f6994
submitter=submitter = University of Tokyo Team (Faculty of Engineering, University of Tokyo)
MoNA Rating=3.75

>  <NUM PEAKS>  (5945) 
112

>  <MASS SPECTRAL PEAKS>  (5945) 
15 4
26 1.2
27 6.7
28 0.95
29 11.2
30 62.6
31 3.2
39 0.32
40 1.3
41 8.6
42 5.1
43 2.17
44 3.8
45 2.8
46 1.5
47 0.32
48 1.8
55 6.9
56 39.4
57 1.01
58 3
59 1.7
60 1.8
61 2.9
62 1.9
63 2.2
67 2.3
68 0.27
69 3.4
70 2.9
71 3.6
72 1.42
73 7.7
74 4.4
75 3.6
76 0.23
77 1.1
79 1.1
81 2.1
82 0.18
83 3.5
84 2.8
85 4.9
86 0.27
87 2.4
88 3.6
90 1.7
91 0.12
96 2
97 2.4
98 3.4
99 0.56
100 12.7
101 1.7
102 3.2
103 0.14
104 99.99
105 7.3
106 2.8
109 0.12
110 1.2
111 1.7
112 2.9
113 0.34
114 13.3
115 2.7
116 2
117 0.11
125 1.2
127 2.3
128 1.7
130 0.17
131 1.5
138 1.6
139 1.7
141 0.12
143 2.9
149 1.4
156 8
157 0.22
158 3.6
159 3.4
160 5.2
162 0.54
169 6.4
170 1
171 1
173 0.32
185 1.3
186 1.5
187 2.2
189 0.12
202 1.9
203 1.8
213 1.7
217 0.14
219 1.3
224 3.6
230 2.6
231 0.49
232 1.2
241 2
254 1.4
259 5.18
260 8.6
261 1.9
272 2.3
288 0.33
289 1
319 1.2
333 5.1
334 1.4

>  <PREDICTED SPECTRUM>  (5945) 
14 26
15 100
16 19
17 47
18 48
25 40
26 134
27 337
28 367
29 457
30 263
31 194
32 79
33 68
34 109
35 162
36 53
38 67
39 309
40 193
41 983
42 999
43 831
44 729
45 606
46 530
47 339
48 228
49 106
50 98
51 178
52 191
53 373
54 613
55 856
56 927
57 477
58 632
59 501
60 299
61 938
62 147
63 43
64 141
65 85
66 215
67 390
68 525
69 444
70 556
71 484
72 366
73 258
74 203
75 410
76 147
77 121
78 101
79 213
80 222
81 292
82 348
83 507
84 482
85 406
86 380
87 239
88 150
89 104
90 129
91 93
92 74
93 158
94 45
95 160
96 166
97 302
98 364
99 391
100 585
101 393
102 627
103 186
104 144
105 43
106 122
107 71
108 59
109 98
110 130
111 208
112 310
113 292
114 321
115 161
116 93
117 74
118 80
119 117
120 50
121 68
122 92
123 102
124 166
125 204
126 192
127 232
128 222
129 351
130 399
131 142
132 105
133 140
134 109
135 15
136 34
137 99
138 150
139 152
140 105
141 145
142 102
143 145
144 211
145 52
148 23
149 26
150 153
151 246
152 179
153 201
154 246
155 231
156 163
157 222
158 212
159 145
160 137
161 148
162 6
167 33
168 171
169 272
170 324
171 153
175 35
177 1
181 47
182 229
183 82
184 113
185 285
186 181
187 76
188 33
190 34
191 82
196 133
197 286
198 311
199 175
200 134
201 175
202 58
203 150
210 131
211 43
212 26
213 58
215 141
225 17
226 213
228 103
233 82
234 88
240 212
241 269
242 328
243 83
254 78
259 28
270 164
271 95
272 194
286 1
287 41
288 282
289 148
333 317
334 145
335 12

$$$$

     RDKit          2D

 26 26  0  0  1  0  0  0  0  0999 V2000
    1.6245    0.5079    0.0000 C   0  0  0  0  0  0  0  0  0  0  0  0
   -2.2726    7.2579    0.0000 C   0  0  0  0  0  0  0  0  0  0  0  0
    5.5216    2.7579    0.0000 C   0  0  0  0  0  0  0  0  0  0  0  0
   -6.1697    9.5079    0.0000 C   0  0  0  0  0  0  0  0  0  0  0  0
   -7.4687    4.2579    0.0000 C   0  0  0  0  0  0  0  0  0  0  0  0
   -7.4692    2.7571    0.0000 C   0  0  0  0  0  0  0  0  0  0  0  0
   -6.1692    5.0087    0.0000 C   0  0  0  0  0  0  0  0  0  0  0  0
   -6.1702    2.0071    0.0000 C   0  0  0  0  0  0  0  0  0  0  0  0
   -4.8702    4.2587    0.0000 C   0  0  0  0  0  0  0  0  0  0  0  0
   -3.5716    2.0079    0.0000 C   0  0  0  0  0  0  0  0  0  0  0  0
    1.6245    2.0079    0.0000 C   0  0  0  0  0  0  0  0  0  0  0  0
   -3.5716    6.5079    0.0000 C   0  0  0  0  0  0  0  0  0  0  0  0
    4.2226    2.0079    0.0000 C   0  0  0  0  0  0  0  0  0  0  0  0
   -4.8707    2.7579    0.0000 C   0  0  0  0  0  0  0  0  0  0  0  0
   -2.2726    2.7579    0.0000 C   0  0  0  0  0  0  0  0  0  0  0  0
    0.3255    2.7579    0.0000 C   0  0  0  0  0  0  0  0  0  0  0  0
   -2.2726    4.2579    0.0000 C   0  0  0  0  0  0  0  0  0  0  0  0
   -4.8707    7.2579    0.0000 C   0  0  0  0  0  0  0  0  0  0  0  0
    2.9236    2.7579    0.0000 N   0  0  0  0  0  0  0  0  0  0  0  0
   -3.5716    5.0079    0.0000 N   0  0  0  0  0  0  0  0  0  0  0  0
   -0.9736    2.0079    0.0000 N   0  0  0  0  0  0  0  0  0  0  0  0
    4.2226    0.5079    0.0000 O   0  0  0  0  0  0  0  0  0  0  0  0
    0.3255    4.2579    0.0000 O   0  0  0  0  0  0  0  0  0  0  0  0
   -0.9736    5.0079    0.0000 O   0  0  0  0  0  0  0  0  0  0  0  0
   -6.1697    6.5079    0.0000 O   0  0  0  0  0  0  0  0  0  0  0  0
   -4.8707    8.7579    0.0000 O   0  0  0  0  0  0  0  0  0  0  0  0
  6  5  2  0
  7  5  1  0
  8  6  1  0
  9  7  2  0
 11  1  1  1
 12  2  1  6
 13  3  1  0
 14  8  2  0
 14  9  1  0
 14 10  1  0
 15 10  1  6
 16 11  1  0
 17 15  1  0
 18 12  1  0
 19 11  1  0
 19 13  2  3
 20 12  1  0
 20 17  2  3
 15 21  1  0
 21 16  2  3
 22 13  1  0
 23 16  1  0
 24 17  1  0
 25 18  2  0
 26  4  1  0
 26 18  1  0
M  END
>  <NAME>  (5946) 
N-ACETYL-ALANYL-PHENYLALANYL-ALANINE METHYLESTER

>  <SYNONYMS>  (5946) 


>  <SPECTRUM TYPE>  (5946) 
MS1

>  <INSTRUMENT TYPE>  (5946) 
EI-B

>  <INSTRUMENT>  (5946) 
HITACHI RMU-6M

>  <ION MODE>  (5946) 
P

>  <INCHIKEY>  (5946) 
VYQSQZHRINOMNA-SLEUVZQESA-N

>  <FORMULA>  (5946) 
C18H25N3O5

>  <EXACT MASS>  (5946) 
363.1794209

>  <MW>  (5946) 
363

>  <ID>  (5946) 
JP000112

>  <CONTRIBUTOR>  (5946) 
University of Tokyo Team, {Faculty of Engineering, University of Tokyo

>  <COMMENT>  (5946) 
SMILES=COC(=O)C([H])(C)NC(=O)C([H])(Cc(c1)cccc1)NC(=O)C([H])(C)NC(C)=O
InChI=InChI=1S/C18H25N3O5/c1-11(19-13(3)22)16(23)21-15(10-14-8-6-5-7-9-14)17(24)20-12(2)18(25)26-4/h5-9,11-12,15H,10H2,1-4H3,(H,19,22)(H,20,24)(H,21,23)/t11-,12-,15+/m0/s1
computed SMILES=O=C(OC)C(N=C(O)C(N=C(O)C(N=C(O)C)C)CC=1C=CC=CC1)C
accession=JP000112
date=2016.01.19 (Created 2008.10.21, modified 2011.05.06)
author=YAMAMOTO M, DEP. CHEMISTRY, FAC. SCIENCE, NARA WOMEN'S UNIV.
license=CC BY-NC-SA
exact mass=363.17942
ionization energy=70 eV
ion type=[M]+*
computed spectral entropy=2.7684934475970837
computed normalized entropy=0.694034725453865
SPLASH=splash10-006x-9710000000-2dafa5daed5173667129
submitter=submitter = University of Tokyo Team (Faculty of Engineering, University of Tokyo)
MoNA Rating=3.75

>  <NUM PEAKS>  (5946) 
54

>  <MASS SPECTRAL PEAKS>  (5946) 
15 5.7
27 1.8
28 5.3
29 0.14
30 3
39 1.2
41 1.3
42 0.57
43 15
44 79.2
45 2.7
51 0.1
55 2.2
56 1.5
57 1.5
58 0.15
59 2.8
65 3
70 3.8
72 0.3
77 2.7
78 1.2
86 25
87 0.81
91 11
92 2.8
99 2.7
102 0.37
103 5.3
104 6.1
105 1.3
114 1.85
115 1.3
118 1.6
119 5.5
120 99.99
121 8
127 1.5
128 2.8
131 0.13
132 2.6
146 3.9
147 1.5
159 0.46
174 9.1
175 3.8
217 2.4
232 0.11
233 12.4
234 6.8
235 2.2
261 0.42
363 3.3
364 1.7

>  <PREDICTED SPECTRUM>  (5946) 
14 12
15 25
16 1
17 11
18 3
25 1
26 11
27 54
28 56
29 136
30 58
31 114
32 23
33 68
34 53
35 35
36 94
37 86
38 118
39 285
40 165
41 385
42 421
43 627
44 522
45 282
46 162
47 64
49 67
50 203
51 322
52 242
53 190
54 175
55 189
56 182
57 151
58 109
59 213
60 182
61 120
62 82
63 223
64 179
65 418
66 184
67 154
68 155
69 209
70 150
71 72
72 75
73 146
74 133
75 65
76 108
77 319
78 290
79 235
80 168
81 104
82 131
83 118
84 122
85 80
86 144
87 62
88 72
89 241
90 172
91 999
92 376
93 114
94 87
95 103
96 58
97 116
98 86
99 140
100 98
101 106
102 166
103 164
104 195
105 202
106 199
107 134
108 70
109 89
110 63
111 94
112 108
113 78
114 77
115 124
116 89
117 196
118 191
119 173
120 49
121 140
122 31
123 85
124 15
125 118
126 63
127 128
128 139
129 85
130 173
131 213
132 264
133 134
134 77
135 42
136 88
137 68
138 96
139 142
140 132
141 78
142 85
143 103
144 127
145 119
146 202
147 269
148 183
149 82
151 52
152 100
153 103
154 49
155 128
156 128
157 141
158 181
159 118
160 246
161 53
163 2
167 79
168 34
169 59
170 102
171 126
172 131
173 149
174 159
175 95
176 16
181 26
182 31
183 89
184 174
185 144
186 75
187 73
188 55
189 16
196 73
197 40
198 65
199 28
200 81
201 88
202 4
203 13
212 10
213 17
214 28
215 40
218 43
226 14
227 3
228 50
229 22
230 116
231 91
232 50
240 7
241 22
242 80
243 82
244 66
245 89
246 19
248 76
249 59
254 107
255 16
258 79
260 60
261 2
271 2
272 309
273 101
274 151
284 126
285 41
286 113
288 3
291 67
329 4
330 21
331 30
345 42
359 86
363 14
364 37

$$$$

     RDKit          2D

 25 25  0  0  1  0  0  0  0  0999 V2000
   -2.2726    7.2579    0.0000 C   0  0  0  0  0  0  0  0  0  0  0  0
    5.5216    2.7579    0.0000 C   0  0  0  0  0  0  0  0  0  0  0  0
   -6.1697    9.5079    0.0000 C   0  0  0  0  0  0  0  0  0  0  0  0
   -7.4687    4.2579    0.0000 C   0  0  0  0  0  0  0  0  0  0  0  0
   -7.4692    2.7571    0.0000 C   0  0  0  0  0  0  0  0  0  0  0  0
   -6.1692    5.0087    0.0000 C   0  0  0  0  0  0  0  0  0  0  0  0
   -6.1702    2.0071    0.0000 C   0  0  0  0  0  0  0  0  0  0  0  0
   -4.8702    4.2587    0.0000 C   0  0  0  0  0  0  0  0  0  0  0  0
   -3.5716    2.0079    0.0000 C   0  0  0  0  0  0  0  0  0  0  0  0
    1.6245    2.0079    0.0000 C   0  0  0  0  0  0  0  0  0  0  0  0
   -3.5716    6.5079    0.0000 C   0  0  0  0  0  0  0  0  0  0  0  0
    4.2226    2.0079    0.0000 C   0  0  0  0  0  0  0  0  0  0  0  0
   -4.8707    2.7579    0.0000 C   0  0  0  0  0  0  0  0  0  0  0  0
   -2.2726    2.7579    0.0000 C   0  0  0  0  0  0  0  0  0  0  0  0
    0.3255    2.7579    0.0000 C   0  0  0  0  0  0  0  0  0  0  0  0
   -2.2726    4.2579    0.0000 C   0  0  0  0  0  0  0  0  0  0  0  0
   -4.8707    7.2579    0.0000 C   0  0  0  0  0  0  0  0  0  0  0  0
    2.9236    2.7579    0.0000 N   0  0  0  0  0  0  0  0  0  0  0  0
   -3.5716    5.0079    0.0000 N   0  0  0  0  0  0  0  0  0  0  0  0
   -0.9736    2.0079    0.0000 N   0  0  0  0  0  0  0  0  0  0  0  0
    4.2226    0.5079    0.0000 O   0  0  0  0  0  0  0  0  0  0  0  0
    0.3255    4.2579    0.0000 O   0  0  0  0  0  0  0  0  0  0  0  0
   -0.9736    5.0079    0.0000 O   0  0  0  0  0  0  0  0  0  0  0  0
   -6.1697    6.5079    0.0000 O   0  0  0  0  0  0  0  0  0  0  0  0
   -4.8707    8.7579    0.0000 O   0  0  0  0  0  0  0  0  0  0  0  0
  5  4  2  0
  6  4  1  0
  7  5  1  0
  8  6  2  0
 11  1  1  6
 12  2  1  0
 13  7  2  0
 13  8  1  0
 13  9  1  0
 14  9  1  6
 15 10  1  0
 16 14  1  0
 17 11  1  0
 18 10  1  0
 18 12  2  3
 19 11  1  0
 19 16  2  3
 14 20  1  0
 20 15  2  3
 21 12  1  0
 22 15  1  0
 23 16  1  0
 24 17  2  0
 25  3  1  0
 25 17  1  0
M  END
>  <NAME>  (5947) 
N-ACETYL-GLYCYL-PHENYLALANYL-ALANINE METHYLESTER

>  <SYNONYMS>  (5947) 


>  <SPECTRUM TYPE>  (5947) 
MS1

>  <INSTRUMENT TYPE>  (5947) 
EI-B

>  <INSTRUMENT>  (5947) 
HITACHI RMU-6M

>  <ION MODE>  (5947) 
P

>  <INCHIKEY>  (5947) 
RTYWHWDOFGCNND-SMDDNHRTSA-N

>  <FORMULA>  (5947) 
C17H23N3O5

>  <EXACT MASS>  (5947) 
349.163770836

>  <MW>  (5947) 
349

>  <ID>  (5947) 
JP000111

>  <CONTRIBUTOR>  (5947) 
University of Tokyo Team, {Faculty of Engineering, University of Tokyo

>  <COMMENT>  (5947) 
SMILES=CC(=O)NCC(=O)NC([H])(Cc(c1)cccc1)C(=O)NC([H])(C)C(=O)OC
InChI=InChI=1S/C17H23N3O5/c1-11(17(24)25-3)19-16(23)14(9-13-7-5-4-6-8-13)20-15(22)10-18-12(2)21/h4-8,11,14H,9-10H2,1-3H3,(H,18,21)(H,19,23)(H,20,22)/t11-,14+/m0/s1
computed SMILES=O=C(OC)C(N=C(O)C(N=C(O)CN=C(O)C)CC=1C=CC=CC1)C
accession=JP000111
date=2016.01.19 (Created 2008.10.21, modified 2011.05.06)
author=YAMAMOTO M, DEP. CHEMISTRY, FAC. SCIENCE, NARA WOMEN'S UNIV.
license=CC BY-NC-SA
exact mass=349.16377
ionization energy=70 eV
ion type=[M]+*
computed spectral entropy=3.2615675561409785
computed normalized entropy=0.7729734803280451
SPLASH=splash10-00e9-7910000000-8159f231a0349f4efa89
submitter=submitter = University of Tokyo Team (Faculty of Engineering, University of Tokyo)
MoNA Rating=3.75

>  <NUM PEAKS>  (5947) 
68

>  <MASS SPECTRAL PEAKS>  (5947) 
15 8
27 2.1
28 8.1
29 0.19
30 38
31 2.7
39 1.9
41 0.27
42 5
43 21.7
44 21.8
45 0.17
51 1.6
55 2.3
56 1.8
57 0.24
58 2.5
59 3.2
65 4.4
70 0.48
71 2.3
72 18
73 4.4
77 0.51
78 1.7
85 1.1
89 1.1
90 0.1
91 16.6
92 4.4
93 1.3
99 0.71
100 20
101 1.6
102 4.7
103 0.75
104 7.9
105 1.8
117 2.1
118 0.4
119 8.1
120 99.99
121 10.3
127 0.36
128 3.4
131 16.1
132 3.6
133 0.19
145 4.7
146 1.1
159 11.9
160 0.1
161 1.1
174 16.4
175 2.6
189 0.11
217 2
218 1.7
219 3.7
220 0.22
233 19.5
234 4.5
247 5
290 0.1
317 1.1
318 1
349 9.5
350 2.4

>  <PREDICTED SPECTRUM>  (5947) 
13 1
14 11
15 29
16 4
17 22
18 22
21 2
22 5
23 6
26 19
27 34
28 49
29 82
30 37
31 75
32 34
33 72
34 34
35 3
36 70
37 62
38 86
39 237
40 107
41 271
42 418
43 406
44 384
45 229
46 120
47 65
48 15
49 32
50 152
51 255
52 192
53 155
54 181
55 198
56 225
57 148
58 105
59 88
60 139
61 101
62 71
63 192
64 145
65 366
66 142
67 126
68 150
69 155
70 197
71 96
72 138
73 164
74 150
75 93
76 82
77 325
78 214
79 172
80 118
81 80
82 90
83 95
84 129
85 109
86 135
87 102
88 82
89 242
90 115
91 999
92 346
93 90
94 53
95 99
96 65
97 66
98 120
99 97
100 72
101 87
102 146
103 119
104 152
105 134
106 120
107 150
108 61
109 73
110 54
111 92
112 88
113 90
114 71
115 130
116 134
117 248
118 165
119 124
120 132
121 156
122 67
123 70
124 36
125 110
126 85
127 86
128 122
129 90
130 83
131 121
132 165
133 115
134 56
135 52
137 51
138 60
139 91
140 72
141 116
142 108
143 142
144 191
145 136
146 176
147 201
148 141
149 124
150 13
151 21
153 61
154 42
155 75
156 108
157 106
158 82
159 92
160 268
161 145
162 0
163 28
165 44
166 27
167 107
168 79
169 154
170 162
171 150
172 68
173 61
174 20
175 63
176 28
180 40
181 64
182 109
183 104
184 117
185 133
186 77
187 77
188 45
189 19
195 9
196 83
197 70
198 65
199 71
200 70
201 79
202 26
203 10
204 9
205 29
206 14
207 39
212 29
213 41
214 54
215 37
216 56
217 53
218 19
227 64
228 18
229 20
230 43
231 41
232 1
234 59
240 41
241 45
244 31
246 12
249 6
258 167
259 59
260 85
270 51
272 43
286 2
291 51
314 2
316 12
317 4
331 36
332 10
349 28

$$$$

     RDKit          2D

 25 25  0  0  1  0  0  0  0  0999 V2000
    1.6245    0.5079    0.0000 C   0  0  0  0  0  0  0  0  0  0  0  0
    5.5216    2.7579    0.0000 C   0  0  0  0  0  0  0  0  0  0  0  0
   -6.1697    9.5079    0.0000 C   0  0  0  0  0  0  0  0  0  0  0  0
   -7.4687    4.2579    0.0000 C   0  0  0  0  0  0  0  0  0  0  0  0
   -7.4692    2.7571    0.0000 C   0  0  0  0  0  0  0  0  0  0  0  0
   -6.1692    5.0087    0.0000 C   0  0  0  0  0  0  0  0  0  0  0  0
   -6.1702    2.0071    0.0000 C   0  0  0  0  0  0  0  0  0  0  0  0
   -4.8702    4.2587    0.0000 C   0  0  0  0  0  0  0  0  0  0  0  0
   -3.5716    2.0079    0.0000 C   0  0  0  0  0  0  0  0  0  0  0  0
   -3.5716    6.5079    0.0000 C   0  0  0  0  0  0  0  0  0  0  0  0
    1.6245    2.0079    0.0000 C   0  0  0  0  0  0  0  0  0  0  0  0
    4.2226    2.0079    0.0000 C   0  0  0  0  0  0  0  0  0  0  0  0
   -4.8707    2.7579    0.0000 C   0  0  0  0  0  0  0  0  0  0  0  0
   -2.2726    2.7579    0.0000 C   0  0  0  0  0  0  0  0  0  0  0  0
   -4.8707    7.2579    0.0000 C   0  0  0  0  0  0  0  0  0  0  0  0
    0.3255    2.7579    0.0000 C   0  0  0  0  0  0  0  0  0  0  0  0
   -2.2726    4.2579    0.0000 C   0  0  0  0  0  0  0  0  0  0  0  0
   -3.5716    5.0079    0.0000 N   0  0  0  0  0  0  0  0  0  0  0  0
    2.9236    2.7579    0.0000 N   0  0  0  0  0  0  0  0  0  0  0  0
   -0.9736    2.0079    0.0000 N   0  0  0  0  0  0  0  0  0  0  0  0
    4.2226    0.5079    0.0000 O   0  0  0  0  0  0  0  0  0  0  0  0
   -6.1697    6.5079    0.0000 O   0  0  0  0  0  0  0  0  0  0  0  0
    0.3255    4.2579    0.0000 O   0  0  0  0  0  0  0  0  0  0  0  0
   -0.9736    5.0079    0.0000 O   0  0  0  0  0  0  0  0  0  0  0  0
   -4.8707    8.7579    0.0000 O   0  0  0  0  0  0  0  0  0  0  0  0
  5  4  2  0
  6  4  1  0
  7  5  1  0
  8  6  2  0
 11  1  1  6
 12  2  1  0
 13  7  2  0
 13  8  1  0
 13  9  1  0
 14  9  1  6
 15 10  1  0
 16 11  1  0
 17 14  1  0
 18 10  1  0
 18 17  2  3
 19 11  1  0
 19 12  2  3
 14 20  1  0
 20 16  2  3
 21 12  1  0
 22 15  2  0
 23 16  1  0
 24 17  1  0
 25  3  1  0
 25 15  1  0
M  END
>  <NAME>  (5948) 
N-ACETYL-ALANYL-PHENYLALANYL-GLYCINE METHYLESTER

>  <SYNONYMS>  (5948) 


>  <SPECTRUM TYPE>  (5948) 
MS1

>  <INSTRUMENT TYPE>  (5948) 
EI-B

>  <INSTRUMENT>  (5948) 
HITACHI RMU-6M

>  <ION MODE>  (5948) 
P

>  <INCHIKEY>  (5948) 
YJHFROAAFUSFCE-BXUZGUMPSA-N

>  <FORMULA>  (5948) 
C17H23N3O5

>  <EXACT MASS>  (5948) 
349.163770836

>  <MW>  (5948) 
349

>  <ID>  (5948) 
JP000110

>  <CONTRIBUTOR>  (5948) 
University of Tokyo Team, {Faculty of Engineering, University of Tokyo

>  <COMMENT>  (5948) 
SMILES=COC(=O)CNC(=O)C([H])(Cc(c1)cccc1)NC(=O)C([H])(C)NC(C)=O
InChI=InChI=1S/C17H23N3O5/c1-11(19-12(2)21)16(23)20-14(9-13-7-5-4-6-8-13)17(24)18-10-15(22)25-3/h4-8,11,14H,9-10H2,1-3H3,(H,18,24)(H,19,21)(H,20,23)/t11-,14-/m1/s1
computed SMILES=O=C(OC)CN=C(O)C(N=C(O)C(N=C(O)C)C)CC=1C=CC=CC1
accession=JP000110
date=2016.01.19 (Created 2008.10.21, modified 2011.05.06)
author=YAMAMOTO M, DEP. CHEMISTRY, FAC. SCIENCE, NARA WOMEN'S UNIV.
license=CC BY-NC-SA
exact mass=349.16377
ionization energy=70 eV
ion type=[M]+*
computed spectral entropy=3.3286954672392084
computed normalized entropy=0.7453569081134664
SPLASH=splash10-006x-9610000000-cb3179bef4e76d5ab994
submitter=submitter = University of Tokyo Team (Faculty of Engineering, University of Tokyo)
MoNA Rating=3.75

>  <NUM PEAKS>  (5948) 
87

>  <MASS SPECTRAL PEAKS>  (5948) 
15 5
27 2.9
28 7
29 0.38
30 10.7
31 1.3
39 2.5
41 0.32
42 7.2
43 22.2
44 96.5
45 0.42
51 2.5
55 3.9
56 6.9
57 0.43
58 1.2
59 3.1
60 1.2
63 0.13
65 3.9
68 1.3
69 2.7
70 0.26
71 1.9
72 4.9
74 1.8
77 0.46
78 3.3
83 2.1
84 1.5
85 0.31
86 35.9
87 14.9
88 4.3
89 0.23
90 4.6
91 16.6
92 4.7
93 0.19
97 1.3
99 1.3
102 1.8
103 0.77
104 4.7
105 3.5
112 1.4
113 0.37
114 29.7
115 3.7
116 1.1
117 0.27
118 4.2
119 7.2
120 99.99
121 1.07
128 4.2
130 1.6
131 16.9
132 0.42
145 5.3
146 13.4
147 3.4
149 0.13
159 1
160 3.2
175 3.2
187 0.2
189 1
203 2.3
218 7.6
219 1.9
220 11.2
221 3.4
232 1.1
233 0.41
234 1.5
236 2.8
260 1.9
261 0.59
262 1
263 2.5
305 3.4
306 0.13
318 2.5
349 6.3
350 2.3

>  <PREDICTED SPECTRUM>  (5948) 
13 5
14 21
15 43
16 10
17 25
18 29
19 2
21 3
25 9
26 31
27 90
28 92
29 121
30 20
31 87
32 28
33 66
34 40
35 10
36 62
37 72
38 120
39 297
40 168
41 223
42 449
43 406
44 422
45 268
46 162
47 60
49 42
50 186
51 314
52 235
53 183
54 162
55 208
56 144
57 97
58 104
59 180
60 191
61 112
62 92
63 221
64 172
65 418
66 171
67 137
68 129
69 114
70 75
71 58
72 67
73 103
74 119
75 81
76 103
77 352
78 276
79 216
80 150
81 96
82 74
83 93
84 93
85 98
86 109
87 88
88 58
89 231
90 95
91 999
92 399
93 123
94 94
95 77
96 34
97 66
98 73
99 60
100 41
101 34
102 112
103 200
104 159
105 193
106 229
107 158
108 75
109 57
110 78
111 103
112 73
113 71
114 29
115 113
116 121
117 195
118 176
119 144
120 119
121 156
122 106
123 61
124 40
125 71
126 47
127 67
128 99
129 84
130 109
131 86
132 159
133 113
134 42
137 27
138 68
139 100
140 66
141 123
142 68
143 107
144 151
145 82
146 88
147 126
148 96
149 81
153 34
154 1
155 45
156 49
157 79
158 68
159 100
160 172
161 36
165 59
167 65
168 30
169 70
170 84
171 122
172 52
173 49
174 21
175 3
176 3
181 1
182 47
183 46
184 53
185 41
186 103
187 70
188 31
198 4
199 41
200 34
201 46
204 10
212 20
213 38
214 7
215 32
218 3
227 60
228 43
229 66
230 45
231 47
240 4
244 73
245 24
246 68
247 7
258 137
259 37
260 34
270 50
271 2
272 55
291 22

$$$$

     RDKit          2D

 24 24  0  0  1  0  0  0  0  0999 V2000
    5.5216    2.7579    0.0000 C   0  0  0  0  0  0  0  0  0  0  0  0
   -6.1697    9.5079    0.0000 C   0  0  0  0  0  0  0  0  0  0  0  0
   -7.4687    4.2579    0.0000 C   0  0  0  0  0  0  0  0  0  0  0  0
   -7.4692    2.7571    0.0000 C   0  0  0  0  0  0  0  0  0  0  0  0
   -6.1692    5.0087    0.0000 C   0  0  0  0  0  0  0  0  0  0  0  0
   -6.1702    2.0071    0.0000 C   0  0  0  0  0  0  0  0  0  0  0  0
   -4.8702    4.2587    0.0000 C   0  0  0  0  0  0  0  0  0  0  0  0
   -3.5716    2.0079    0.0000 C   0  0  0  0  0  0  0  0  0  0  0  0
    1.6245    2.0079    0.0000 C   0  0  0  0  0  0  0  0  0  0  0  0
   -3.5716    6.5079    0.0000 C   0  0  0  0  0  0  0  0  0  0  0  0
    4.2226    2.0079    0.0000 C   0  0  0  0  0  0  0  0  0  0  0  0
   -4.8707    2.7579    0.0000 C   0  0  0  0  0  0  0  0  0  0  0  0
   -2.2726    2.7579    0.0000 C   0  0  0  0  0  0  0  0  0  0  0  0
    0.3255    2.7579    0.0000 C   0  0  0  0  0  0  0  0  0  0  0  0
   -4.8707    7.2579    0.0000 C   0  0  0  0  0  0  0  0  0  0  0  0
   -2.2726    4.2579    0.0000 C   0  0  0  0  0  0  0  0  0  0  0  0
    2.9236    2.7579    0.0000 N   0  0  0  0  0  0  0  0  0  0  0  0
   -3.5716    5.0079    0.0000 N   0  0  0  0  0  0  0  0  0  0  0  0
   -0.9736    2.0079    0.0000 N   0  0  0  0  0  0  0  0  0  0  0  0
    4.2226    0.5079    0.0000 O   0  0  0  0  0  0  0  0  0  0  0  0
    0.3255    4.2579    0.0000 O   0  0  0  0  0  0  0  0  0  0  0  0
   -6.1697    6.5079    0.0000 O   0  0  0  0  0  0  0  0  0  0  0  0
   -0.9736    5.0079    0.0000 O   0  0  0  0  0  0  0  0  0  0  0  0
   -4.8707    8.7579    0.0000 O   0  0  0  0  0  0  0  0  0  0  0  0
  4  3  2  0
  5  3  1  0
  6  4  1  0
  7  5  2  0
 11  1  1  0
 12  6  2  0
 12  7  1  0
 12  8  1  0
 13  8  1  6
 14  9  1  0
 15 10  1  0
 16 13  1  0
 17  9  1  0
 17 11  2  3
 18 10  1  0
 18 16  2  3
 13 19  1  0
 19 14  2  3
 20 11  1  0
 21 14  1  0
 22 15  2  0
 23 16  1  0
 24  2  1  0
 24 15  1  0
M  END
>  <NAME>  (5949) 
N-ACETYL-GLYCYL-PHENYLALANYL-GLYCINE METHYLESTER

>  <SYNONYMS>  (5949) 


>  <SPECTRUM TYPE>  (5949) 
MS1

>  <INSTRUMENT TYPE>  (5949) 
EI-B

>  <INSTRUMENT>  (5949) 
HITACHI RMU-6M

>  <ION MODE>  (5949) 
P

>  <INCHIKEY>  (5949) 
ZTAIDJDGBMPCMR-CYBMUJFWSA-N

>  <FORMULA>  (5949) 
C16H21N3O5

>  <EXACT MASS>  (5949) 
335.14812077199997

>  <MW>  (5949) 
335

>  <ID>  (5949) 
JP000109

>  <CONTRIBUTOR>  (5949) 
University of Tokyo Team, {Faculty of Engineering, University of Tokyo

>  <COMMENT>  (5949) 
SMILES=COC(=O)CNC(=O)C([H])(NC(=O)CNC(C)=O)Cc(c1)cccc1
InChI=InChI=1S/C16H21N3O5/c1-11(20)17-9-14(21)19-13(8-12-6-4-3-5-7-12)16(23)18-10-15(22)24-2/h3-7,13H,8-10H2,1-2H3,(H,17,20)(H,18,23)(H,19,21)/t13-/m1/s1
computed SMILES=O=C(OC)CN=C(O)C(N=C(O)CN=C(O)C)CC=1C=CC=CC1
accession=JP000109
date=2016.01.19 (Created 2008.10.21, modified 2011.05.06)
author=YAMAMOTO M, DEP. CHEMISTRY, FAC. SCIENCE, NARA WOMEN'S UNIV.
license=CC BY-NC-SA
exact mass=335.14812
ionization energy=70 eV
ion type=[M]+*
computed spectral entropy=3.2616782516477723
computed normalized entropy=0.7677255277034103
SPLASH=splash10-00di-6920000000-b559091fb0443ab4d6d2
submitter=submitter = University of Tokyo Team (Faculty of Engineering, University of Tokyo)
MoNA Rating=3.75

>  <NUM PEAKS>  (5949) 
70

>  <MASS SPECTRAL PEAKS>  (5949) 
27 1.4
28 7.6
29 2.9
30 6.37
31 4.1
39 2.4
41 3.4
42 2.45
43 24.5
44 5.4
45 2.7
51 0.22
55 3.2
56 7.2
57 3.2
58 1.3
59 1.6
63 1.1
65 5.3
69 0.15
71 1.7
72 23.3
73 5.3
77 0.48
78 2
85 5.7
86 1.5
88 0.41
89 1.5
90 4
91 20.6
92 0.54
93 1.7
100 30.7
101 1.7
102 0.14
103 9.4
104 4.2
105 1.5
113 0.42
114 1.5
117 4
118 3.9
119 0.83
120 99.99
121 9.5
128 4.1
130 0.15
131 8
132 4.3
133 1.6
145 1.27
146 18.1
147 2.2
149 1.1
160 0.27
161 1
175 1.3
186 1.1
187 0.14
203 1.7
218 10.3
219 29.9
220 0.78
221 1.1
246 1.4
247 3.9
304 0.13
335 5.5
336 1.4

>  <PREDICTED SPECTRUM>  (5949) 
7 0
13 10
14 20
15 41
16 10
17 29
18 31
25 13
26 40
27 77
28 99
29 93
30 45
31 60
32 30
33 41
34 25
36 55
37 56
38 87
39 241
40 113
41 304
42 472
43 342
44 376
45 226
46 118
47 41
48 16
49 37
50 165
51 273
52 193
53 179
54 189
55 218
56 233
57 151
58 122
59 116
60 186
61 93
62 71
63 181
64 132
65 365
66 118
67 102
68 152
69 154
70 163
71 123
72 138
73 151
74 145
75 67
76 78
77 362
78 239
79 221
80 124
81 85
82 93
83 108
84 140
85 93
86 98
87 65
88 20
89 216
90 82
91 999
92 375
93 76
94 52
95 67
96 78
97 82
98 132
99 97
100 58
101 59
102 139
103 164
104 116
105 155
106 173
107 252
108 142
109 47
110 57
111 93
112 92
113 43
114 42
115 106
116 101
117 202
118 92
119 141
120 137
121 152
122 7
123 12
124 25
125 60
126 65
127 102
128 104
129 128
130 135
131 106
132 163
133 108
134 7
135 86
137 11
139 30
140 33
141 67
142 38
143 49
144 139
145 57
146 115
147 166
148 89
149 68
150 23
151 66
152 8
153 89
154 57
155 121
156 97
157 107
160 89
161 31
162 62
163 59
167 36
168 50
169 45
170 59
171 73
172 57
173 17
174 3
175 23
177 20
181 21
182 53
183 54
184 69
185 72
186 57
187 65
190 16
191 11
192 21
193 31
199 13
203 11
213 55
220 14
227 26
230 28
232 14
244 137
245 2
246 26
291 32
317 6
318 5
334 6
335 59
336 11

$$$$

     RDKit          2D

 28 28  0  0  1  0  0  0  0  0999 V2000
    2.9236   -0.2421    0.0000 C   0  0  0  0  0  0  0  0  0  0  0  0
    0.3255   -0.2421    0.0000 C   0  0  0  0  0  0  0  0  0  0  0  0
   -2.2726    7.2579    0.0000 C   0  0  0  0  0  0  0  0  0  0  0  0
    5.5216    2.7579    0.0000 C   0  0  0  0  0  0  0  0  0  0  0  0
   -6.1697    9.5079    0.0000 C   0  0  0  0  0  0  0  0  0  0  0  0
   -7.4687    4.2579    0.0000 C   0  0  0  0  0  0  0  0  0  0  0  0
   -7.4692    2.7571    0.0000 C   0  0  0  0  0  0  0  0  0  0  0  0
   -6.1692    5.0087    0.0000 C   0  0  0  0  0  0  0  0  0  0  0  0
   -6.1702    2.0071    0.0000 C   0  0  0  0  0  0  0  0  0  0  0  0
   -4.8702    4.2587    0.0000 C   0  0  0  0  0  0  0  0  0  0  0  0
   -3.5716    2.0079    0.0000 C   0  0  0  0  0  0  0  0  0  0  0  0
    1.6245    0.5079    0.0000 C   0  0  0  0  0  0  0  0  0  0  0  0
   -3.5716    6.5079    0.0000 C   0  0  0  0  0  0  0  0  0  0  0  0
    4.2226    2.0079    0.0000 C   0  0  0  0  0  0  0  0  0  0  0  0
   -4.8707    2.7579    0.0000 C   0  0  0  0  0  0  0  0  0  0  0  0
   -2.2726    2.7579    0.0000 C   0  0  0  0  0  0  0  0  0  0  0  0
    1.6245    2.0079    0.0000 C   0  0  0  0  0  0  0  0  0  0  0  0
   -2.2726    4.2579    0.0000 C   0  0  0  0  0  0  0  0  0  0  0  0
    0.3255    2.7579    0.0000 C   0  0  0  0  0  0  0  0  0  0  0  0
   -4.8707    7.2579    0.0000 C   0  0  0  0  0  0  0  0  0  0  0  0
   -3.5716    5.0079    0.0000 N   0  0  0  0  0  0  0  0  0  0  0  0
    2.9236    2.7579    0.0000 N   0  0  0  0  0  0  0  0  0  0  0  0
   -0.9736    2.0079    0.0000 N   0  0  0  0  0  0  0  0  0  0  0  0
    4.2226    0.5079    0.0000 O   0  0  0  0  0  0  0  0  0  0  0  0
   -0.9736    5.0079    0.0000 O   0  0  0  0  0  0  0  0  0  0  0  0
    0.3255    4.2579    0.0000 O   0  0  0  0  0  0  0  0  0  0  0  0
   -6.1697    6.5079    0.0000 O   0  0  0  0  0  0  0  0  0  0  0  0
   -4.8707    8.7579    0.0000 O   0  0  0  0  0  0  0  0  0  0  0  0
  7  6  2  0
  8  6  1  0
  9  7  1  0
 10  8  2  0
 12  1  1  0
 12  2  1  0
 13  3  1  6
 14  4  1  0
 15  9  2  0
 15 10  1  0
 15 11  1  0
 16 11  1  6
 17 12  1  0
 18 16  1  0
 19 17  1  0
 20 13  1  0
 21 13  1  0
 21 18  2  3
 22 14  2  3
 17 22  1  6
 16 23  1  0
 23 19  2  3
 24 14  1  0
 25 18  1  0
 26 19  1  0
 27 20  2  0
 28  5  1  0
 28 20  1  0
M  END
>  <NAME>  (5950) 
N-ACETYL-VALYL-PHENYLALANYL-ALANINE METHYLESTER

>  <SYNONYMS>  (5950) 


>  <SPECTRUM TYPE>  (5950) 
MS1

>  <INSTRUMENT TYPE>  (5950) 
EI-B

>  <INSTRUMENT>  (5950) 
HITACHI RMU-6M

>  <ION MODE>  (5950) 
P

>  <INCHIKEY>  (5950) 
ZDXDAKFLQBLHBZ-IAOVAPTHSA-N

>  <FORMULA>  (5950) 
C20H29N3O5

>  <EXACT MASS>  (5950) 
391.210721028

>  <MW>  (5950) 
391

>  <ID>  (5950) 
JP000108

>  <CONTRIBUTOR>  (5950) 
University of Tokyo Team, {Faculty of Engineering, University of Tokyo

>  <COMMENT>  (5950) 
SMILES=COC(=O)C([H])(C)NC(=O)C([H])(Cc(c1)cccc1)NC(=O)C([H])(NC(C)=O)C(C)C
InChI=InChI=1S/C20H29N3O5/c1-12(2)17(22-14(4)24)19(26)23-16(11-15-9-7-6-8-10-15)18(25)21-13(3)20(27)28-5/h6-10,12-13,16-17H,11H2,1-5H3,(H,21,25)(H,22,24)(H,23,26)/t13-,16+,17+/m0/s1
computed SMILES=O=C(OC)C(N=C(O)C(N=C(O)C(N=C(O)C)C(C)C)CC=1C=CC=CC1)C
accession=JP000108
date=2016.01.19 (Created 2008.10.21, modified 2011.05.06)
author=YAMAMOTO M, DEP. CHEMISTRY, FAC. SCIENCE, NARA WOMEN'S UNIV.
license=CC BY-NC-SA
exact mass=391.21072
ionization energy=70 eV
ion type=[M]+*
computed spectral entropy=3.3481133530168385
computed normalized entropy=0.7684960106826496
SPLASH=splash10-00dl-5910000000-ceaf83fcc7edcc07137e
submitter=submitter = University of Tokyo Team (Faculty of Engineering, University of Tokyo)
MoNA Rating=3.75

>  <NUM PEAKS>  (5950) 
78

>  <MASS SPECTRAL PEAKS>  (5950) 
15 7.7
27 3.3
28 8.7
29 0.4
30 6.9
31 1.1
39 2.3
41 0.53
42 4.2
43 19.9
44 19.6
51 0.12
54 1.1
55 17
56 5.9
57 0.4
58 6.5
59 2.9
60 2.7
65 0.23
69 2.5
70 5.2
71 2.6
72 7.15
73 4.3
77 3.1
78 1.4
83 0.18
91 1.3
92 3.3
93 1.2
99 0.32
100 4.5
102 4.2
103 5.7
104 0.7
105 1.6
112 1.1
114 39.3
115 0.88
117 1.3
118 2.1
119 7.2
120 99.99
121 10.2
127 1.2
128 3.5
131 1.06
132 2.3
142 21.9
143 2
146 0.38
147 1.2
159 3.4
174 11.7
175 0.32
189 1.2
203 1.2
217 2.3
218 0.11
229 1.2
233 11.5
234 10.2
235 0.35
247 1.2
250 2.8
251 1.6
261 1.5
262 0.18
277 2.1
288 1.3
289 4.5
290 0.12
348 1
360 1.3
391 0.97
392 3.2
393 1

>  <PREDICTED SPECTRUM>  (5950) 
14 15
15 1
17 16
18 15
26 10
27 59
28 55
29 122
30 61
31 116
32 48
33 75
34 49
35 9
36 83
37 88
38 129
39 348
40 219
41 585
42 513
43 915
44 632
45 349
46 121
47 28
49 80
50 204
51 362
52 301
53 293
54 252
55 249
56 207
57 335
58 248
59 208
60 187
61 124
62 120
63 248
64 180
65 438
66 174
67 188
68 178
69 291
70 243
71 196
72 138
73 258
74 168
75 102
76 93
77 366
78 332
79 273
80 235
81 185
82 185
83 197
84 192
85 129
86 203
87 112
88 89
89 268
90 207
91 999
92 348
93 175
94 152
95 146
96 133
97 198
98 244
99 272
100 118
101 72
102 144
103 150
104 202
105 259
106 295
107 211
108 97
109 110
110 176
111 154
112 124
113 91
114 74
115 110
116 130
117 284
118 285
119 147
120 174
121 182
122 104
123 270
124 119
125 257
126 136
127 203
128 213
129 157
130 135
131 151
132 235
133 93
134 136
135 97
136 111
137 119
138 117
139 106
140 110
141 115
142 109
143 114
144 147
145 217
146 322
147 321
148 173
149 73
150 18
151 69
152 82
153 116
154 37
155 105
156 77
157 79
158 157
159 263
160 481
161 241
162 82
163 53
164 149
165 120
166 128
167 189
168 162
169 66
170 123
171 131
172 77
173 115
174 126
175 41
176 70
177 55
179 5
180 42
181 63
182 73
183 140
184 208
185 207
186 201
187 79
188 135
189 67
191 11
195 70
196 38
197 36
198 72
199 90
200 100
201 65
202 98
203 41
205 31
208 62
212 54
213 53
214 58
215 97
216 14
217 74
220 7
221 17
223 75
224 103
225 56
226 115
227 23
228 59
229 51
230 28
231 41
232 31
233 22
240 10
241 36
242 12
243 11
244 52
245 53
249 70
254 27
256 61
258 49
265 7
268 74
270 81
271 15
272 24
273 4
274 55
276 154
277 50
282 30
283 17
286 80
287 17
288 61
291 92
300 261
301 110
302 110
304 29
312 107
314 70
328 24
358 30
359 13
364 12
391 52
392 67

$$$$

     RDKit          2D

 25 24  0  0  1  0  0  0  0  0999 V2000
   -6.4952    3.7500    0.0000 C   0  0  0  0  0  0  0  0  0  0  0  0
   -3.8971    3.7500    0.0000 C   0  0  0  0  0  0  0  0  0  0  0  0
    1.2990    3.7500    0.0000 C   0  0  0  0  0  0  0  0  0  0  0  0
   -1.2990    3.7500    0.0000 C   0  0  0  0  0  0  0  0  0  0  0  0
   -3.8971   11.2500    0.0000 C   0  0  0  0  0  0  0  0  0  0  0  0
    3.8971    6.7500    0.0000 C   0  0  0  0  0  0  0  0  0  0  0  0
   -7.7942   13.5000    0.0000 C   0  0  0  0  0  0  0  0  0  0  0  0
   -5.1962    6.0000    0.0000 C   0  0  0  0  0  0  0  0  0  0  0  0
   -5.1962    4.5000    0.0000 C   0  0  0  0  0  0  0  0  0  0  0  0
    0.0000    4.5000    0.0000 C   0  0  0  0  0  0  0  0  0  0  0  0
   -5.1962   10.5000    0.0000 C   0  0  0  0  0  0  0  0  0  0  0  0
    2.5981    6.0000    0.0000 C   0  0  0  0  0  0  0  0  0  0  0  0
   -3.8971    6.7500    0.0000 C   0  0  0  0  0  0  0  0  0  0  0  0
    0.0000    6.0000    0.0000 C   0  0  0  0  0  0  0  0  0  0  0  0
   -3.8971    8.2500    0.0000 C   0  0  0  0  0  0  0  0  0  0  0  0
   -1.2990    6.7500    0.0000 C   0  0  0  0  0  0  0  0  0  0  0  0
   -6.4952   11.2500    0.0000 C   0  0  0  0  0  0  0  0  0  0  0  0
   -5.1962    9.0000    0.0000 N   0  0  0  0  0  0  0  0  0  0  0  0
    1.2990    6.7500    0.0000 N   0  0  0  0  0  0  0  0  0  0  0  0
   -2.5981    6.0000    0.0000 N   0  0  0  0  0  0  0  0  0  0  0  0
    2.5981    4.5000    0.0000 O   0  0  0  0  0  0  0  0  0  0  0  0
   -2.5981    9.0000    0.0000 O   0  0  0  0  0  0  0  0  0  0  0  0
   -1.2990    8.2500    0.0000 O   0  0  0  0  0  0  0  0  0  0  0  0
   -7.7942   10.5000    0.0000 O   0  0  0  0  0  0  0  0  0  0  0  0
   -6.4952   12.7500    0.0000 O   0  0  0  0  0  0  0  0  0  0  0  0
  9  1  1  0
  9  2  1  0
  9  8  1  0
 10  3  1  0
 10  4  1  0
 11  5  1  6
 12  6  1  0
 13  8  1  1
 14 10  1  0
 15 13  1  0
 16 14  1  0
 17 11  1  0
 18 11  1  0
 18 15  2  3
 19 12  2  3
 14 19  1  1
 13 20  1  0
 20 16  2  3
 21 12  1  0
 22 15  1  0
 23 16  1  0
 24 17  2  0
 25  7  1  0
 25 17  1  0
M  END
>  <NAME>  (5951) 
N-ACETYL-VALYL-LEUCYL-ALANINE METHYLESTER

>  <SYNONYMS>  (5951) 


>  <SPECTRUM TYPE>  (5951) 
MS1

>  <INSTRUMENT TYPE>  (5951) 
EI-B

>  <INSTRUMENT>  (5951) 
HITACHI RMU-6M

>  <ION MODE>  (5951) 
P

>  <INCHIKEY>  (5951) 
BIVNJYGJTYZEIL-UBHSHLNASA-N

>  <FORMULA>  (5951) 
C17H31N3O5

>  <EXACT MASS>  (5951) 
357.22637109199997

>  <MW>  (5951) 
357

>  <ID>  (5951) 
JP000107

>  <CONTRIBUTOR>  (5951) 
University of Tokyo Team, {Faculty of Engineering, University of Tokyo

>  <COMMENT>  (5951) 
SMILES=COC(=O)C([H])(C)NC(=O)C([H])(CC(C)C)NC(=O)C([H])(NC(C)=O)C(C)C
InChI=InChI=1S/C17H31N3O5/c1-9(2)8-13(15(22)18-11(5)17(24)25-7)20-16(23)14(10(3)4)19-12(6)21/h9-11,13-14H,8H2,1-7H3,(H,18,22)(H,19,21)(H,20,23)/t11-,13-,14-/m0/s1
computed SMILES=O=C(OC)C(N=C(O)C(N=C(O)C(N=C(O)C)C(C)C)CC(C)C)C
accession=JP000107
date=2016.01.19 (Created 2008.10.21, modified 2011.05.06)
author=YAMAMOTO M, DEP. CHEMISTRY, FAC. SCIENCE, NARA WOMEN'S UNIV.
license=CC BY-NC-SA
exact mass=357.22637
ionization energy=70 eV
ion type=[M]+*
computed spectral entropy=2.7245170620294674
computed normalized entropy=0.707639639794423
SPLASH=splash10-000i-9200000000-812ce3afc52d4fbd2c4d
submitter=submitter = University of Tokyo Team (Faculty of Engineering, University of Tokyo)
MoNA Rating=3.75

>  <NUM PEAKS>  (5951) 
47

>  <MASS SPECTRAL PEAKS>  (5951) 
15 5.2
27 2.7
28 4.3
29 0.27
30 12.7
39 1.2
41 5
42 0.34
43 11.9
44 16.4
55 9.5
56 0.36
57 2.6
58 3.8
59 1.7
60 0.15
69 2.5
70 5.1
71 1.5
72 3.63
73 2.3
83 1.3
84 1.6
85 0.11
86 99.99
87 6.7
98 1.9
99 0.12
100 3.4
102 2.1
104 2.5
113 0.15
114 21
115 6.1
126 1.1
141 0.15
142 6.6
158 2.7
169 1.1
183 0.2
202 1.4
227 6.3
228 3
243 0.15
255 2.7
301 3.2
357 0.6

>  <PREDICTED SPECTRUM>  (5951) 
14 2
16 4
17 17
18 23
26 25
27 177
28 89
29 206
30 138
31 114
32 25
33 49
34 33
36 25
37 21
38 57
39 210
40 171
41 690
42 483
43 999
44 428
45 358
46 120
47 77
49 31
50 55
51 105
52 108
53 211
54 206
55 383
56 274
57 423
58 333
59 256
60 167
61 91
62 22
63 65
64 61
65 84
66 60
67 128
68 222
69 400
70 268
71 306
72 178
73 174
74 203
75 81
76 75
77 104
78 106
79 90
80 134
81 187
82 248
83 192
84 199
85 176
86 323
87 107
88 83
89 52
90 13
91 98
92 53
93 42
94 53
95 158
96 255
97 307
98 272
99 280
100 213
101 158
102 139
103 35
104 70
105 20
106 44
107 21
108 106
109 135
110 186
111 163
112 185
113 143
114 69
115 114
116 68
117 1
121 38
122 80
123 251
124 163
125 464
126 320
127 209
128 201
129 111
130 126
132 14
133 58
134 23
137 13
138 157
139 87
140 299
141 29
142 135
143 122
144 38
152 144
153 126
154 109
155 126
156 91
157 110
158 154
159 26
160 78
161 55
166 97
167 256
168 114
169 124
170 95
171 123
172 39
174 11
180 8
181 67
182 91
183 134
185 15
186 113
194 29
195 36
196 142
197 131
198 169
199 28
208 10
209 67
210 167
211 55
212 52
214 19
221 49
222 48
223 81
224 166
225 199
226 112
227 33
237 73
238 2
239 49
240 112
241 64
242 132
243 46
244 32
252 223
253 170
254 106
255 36
256 62
257 21
258 75
264 27
266 17
270 81
282 73
285 31
296 86
298 130
299 59
301 3
312 125
313 52
314 137
315 30
324 44
326 47
328 42
357 50
358 34

$$$$

     RDKit          2D

 24 23  0  0  1  0  0  0  0  0999 V2000
   -4.8714    2.4375    0.0000 C   0  0  0  0  0  0  0  0  0  0  0  0
   -6.1704    4.6875    0.0000 C   0  0  0  0  0  0  0  0  0  0  0  0
    1.6238    9.1875    0.0000 C   0  0  0  0  0  0  0  0  0  0  0  0
   -0.9743    9.1875    0.0000 C   0  0  0  0  0  0  0  0  0  0  0  0
    4.2219    6.1875    0.0000 C   0  0  0  0  0  0  0  0  0  0  0  0
  -11.3666    6.1875    0.0000 C   0  0  0  0  0  0  0  0  0  0  0  0
   -3.5724    4.6875    0.0000 C   0  0  0  0  0  0  0  0  0  0  0  0
   -7.4695    6.9375    0.0000 C   0  0  0  0  0  0  0  0  0  0  0  0
   -4.8714    3.9375    0.0000 C   0  0  0  0  0  0  0  0  0  0  0  0
    0.3248    8.4375    0.0000 C   0  0  0  0  0  0  0  0  0  0  0  0
    2.9228    6.9375    0.0000 C   0  0  0  0  0  0  0  0  0  0  0  0
   -3.5724    6.1875    0.0000 C   0  0  0  0  0  0  0  0  0  0  0  0
   -8.7685    6.1875    0.0000 C   0  0  0  0  0  0  0  0  0  0  0  0
    0.3248    6.9375    0.0000 C   0  0  0  0  0  0  0  0  0  0  0  0
   -4.8714    6.9375    0.0000 C   0  0  0  0  0  0  0  0  0  0  0  0
   -0.9743    6.1875    0.0000 C   0  0  0  0  0  0  0  0  0  0  0  0
   -6.1704    6.1875    0.0000 N   0  0  0  0  0  0  0  0  0  0  0  0
    1.6238    6.1875    0.0000 N   0  0  0  0  0  0  0  0  0  0  0  0
   -2.2733    6.9375    0.0000 N   0  0  0  0  0  0  0  0  0  0  0  0
    2.9228    8.4375    0.0000 O   0  0  0  0  0  0  0  0  0  0  0  0
   -8.7685    4.6875    0.0000 O   0  0  0  0  0  0  0  0  0  0  0  0
   -4.8714    8.4375    0.0000 O   0  0  0  0  0  0  0  0  0  0  0  0
   -0.9743    4.6875    0.0000 O   0  0  0  0  0  0  0  0  0  0  0  0
  -10.0675    6.9375    0.0000 O   0  0  0  0  0  0  0  0  0  0  0  0
  9  1  1  0
  9  2  1  0
  9  7  1  0
 10  3  1  0
 10  4  1  0
 11  5  1  0
 12  7  1  1
 13  8  1  0
 14 10  1  0
 15 12  1  0
 16 14  1  0
 17  8  1  0
 17 15  2  3
 18 11  2  3
 14 18  1  6
 12 19  1  0
 19 16  2  3
 20 11  1  0
 21 13  2  0
 22 15  1  0
 23 16  1  0
 24  6  1  0
 24 13  1  0
M  END
>  <NAME>  (5952) 
N-ACETYL-VALYL-LEUCYL-GLYCINE METHYLESTER

>  <SYNONYMS>  (5952) 


>  <SPECTRUM TYPE>  (5952) 
MS1

>  <INSTRUMENT TYPE>  (5952) 
EI-B

>  <INSTRUMENT>  (5952) 
HITACHI RMU-6M

>  <ION MODE>  (5952) 
P

>  <INCHIKEY>  (5952) 
KGIAKTQRGZGRTM-JSGCOSHPSA-N

>  <FORMULA>  (5952) 
C16H29N3O5

>  <EXACT MASS>  (5952) 
343.210721028

>  <MW>  (5952) 
343

>  <ID>  (5952) 
JP000106

>  <CONTRIBUTOR>  (5952) 
University of Tokyo Team, {Faculty of Engineering, University of Tokyo

>  <COMMENT>  (5952) 
SMILES=COC(=O)CNC(=O)C([H])(CC(C)C)NC(=O)C([H])(NC(C)=O)C(C)C
InChI=InChI=1S/C16H29N3O5/c1-9(2)7-12(15(22)17-8-13(21)24-6)19-16(23)14(10(3)4)18-11(5)20/h9-10,12,14H,7-8H2,1-6H3,(H,17,22)(H,18,20)(H,19,23)/t12-,14-/m0/s1
computed SMILES=O=C(OC)CN=C(O)C(N=C(O)C(N=C(O)C)C(C)C)CC(C)C
accession=JP000106
date=2016.01.19 (Created 2008.10.21, modified 2011.05.06)
author=YAMAMOTO M, DEP. CHEMISTRY, FAC. SCIENCE, NARA WOMEN'S UNIV.
license=CC BY-NC-SA
exact mass=343.21072
ionization energy=70 eV
ion type=[M]+*
computed spectral entropy=2.534447797248216
computed normalized entropy=0.6780823497214913
SPLASH=splash10-000i-9100000000-d8abfed2af933339f07a
submitter=submitter = University of Tokyo Team (Faculty of Engineering, University of Tokyo)
MoNA Rating=3.75

>  <NUM PEAKS>  (5952) 
42

>  <MASS SPECTRAL PEAKS>  (5952) 
15 3.7
27 3
28 4.7
29 0.31
30 18
39 1.3
41 5.9
42 0.21
43 12.7
44 8.3
55 10.1
56 0.37
57 2.2
58 2.9
60 2.3
69 0.21
70 3.7
71 1.6
72 43
73 0.25
83 1.3
84 2.1
85 1.4
86 99.99
87 6.5
88 2.3
90 2.4
100 0.37
112 1.2
113 1.3
114 24.3
115 0.84
141 1.5
144 2.7
169 1.2
187 0.17
227 8.5
228 1.9
229 1.2
255 0.16
287 2.4
343 0.4

>  <PREDICTED SPECTRUM>  (5952) 
14 2
16 4
17 30
18 40
26 40
27 254
28 115
29 241
30 120
31 173
32 9
33 44
34 0
36 19
37 17
38 44
39 263
40 152
41 826
42 659
43 999
44 471
45 510
46 104
47 89
49 50
50 110
51 135
52 139
53 248
54 268
55 407
56 364
57 596
58 362
59 276
60 267
61 158
62 34
63 62
64 55
65 115
66 81
67 240
68 271
69 337
70 245
71 263
72 114
73 117
74 233
75 67
76 46
77 116
78 123
79 124
80 121
81 173
82 243
83 242
84 183
85 191
86 360
87 154
88 130
89 61
90 37
91 5
92 27
93 43
94 161
95 134
96 316
97 328
98 378
99 160
100 113
101 153
102 109
105 4
107 81
108 173
109 171
110 164
111 193
112 168
113 230
114 160
115 70
116 119
117 28
118 27
119 86
120 49
123 128
124 201
125 302
126 325
127 101
128 152
129 123
130 41
136 4
138 218
139 130
140 439
141 125
142 274
143 165
144 91
147 44
149 67
151 2
152 80
153 100
154 137
155 63
156 78
157 128
158 83
160 6
165 20
166 65
167 157
168 9
169 9
170 47
180 103
181 47
182 171
183 185
184 155
185 8
186 268
196 12
198 22
200 46
202 36
210 108
211 1
212 66
213 17
219 192
223 35
224 8
225 202
226 58
227 21
228 62
238 169
239 126
240 120
242 89
243 7
244 181
252 264
256 4
268 104
270 57
282 20
284 204
285 25
286 75
287 75
298 119
299 82
300 103
312 84
343 209
344 53

$$$$

     RDKit          2D

 21 20  0  0  1  0  0  0  0  0999 V2000
    1.6238    9.1875    0.0000 C   0  0  0  0  0  0  0  0  0  0  0  0
   -0.9743    9.1875    0.0000 C   0  0  0  0  0  0  0  0  0  0  0  0
   -7.4695    8.4375    0.0000 C   0  0  0  0  0  0  0  0  0  0  0  0
    4.2219    6.1875    0.0000 C   0  0  0  0  0  0  0  0  0  0  0  0
  -11.3666    6.1875    0.0000 C   0  0  0  0  0  0  0  0  0  0  0  0
   -3.5724    6.1875    0.0000 C   0  0  0  0  0  0  0  0  0  0  0  0
    0.3248    8.4375    0.0000 C   0  0  0  0  0  0  0  0  0  0  0  0
   -7.4695    6.9375    0.0000 C   0  0  0  0  0  0  0  0  0  0  0  0
    2.9228    6.9375    0.0000 C   0  0  0  0  0  0  0  0  0  0  0  0
   -4.8714    6.9375    0.0000 C   0  0  0  0  0  0  0  0  0  0  0  0
    0.3248    6.9375    0.0000 C   0  0  0  0  0  0  0  0  0  0  0  0
   -0.9743    6.1875    0.0000 C   0  0  0  0  0  0  0  0  0  0  0  0
   -8.7685    6.1875    0.0000 C   0  0  0  0  0  0  0  0  0  0  0  0
   -2.2733    6.9375    0.0000 N   0  0  0  0  0  0  0  0  0  0  0  0
   -6.1704    6.1875    0.0000 N   0  0  0  0  0  0  0  0  0  0  0  0
    1.6238    6.1875    0.0000 N   0  0  0  0  0  0  0  0  0  0  0  0
    2.9228    8.4375    0.0000 O   0  0  0  0  0  0  0  0  0  0  0  0
   -4.8714    8.4375    0.0000 O   0  0  0  0  0  0  0  0  0  0  0  0
   -0.9743    4.6875    0.0000 O   0  0  0  0  0  0  0  0  0  0  0  0
   -8.7685    4.6875    0.0000 O   0  0  0  0  0  0  0  0  0  0  0  0
  -10.0675    6.9375    0.0000 O   0  0  0  0  0  0  0  0  0  0  0  0
  7  1  1  0
  7  2  1  0
  8  3  1  6
  9  4  1  0
 10  6  1  0
 11  7  1  0
 12 11  1  0
 13  8  1  0
 14  6  1  0
 14 12  2  3
 15  8  1  0
 15 10  2  3
 16  9  2  3
 11 16  1  6
 17  9  1  0
 18 10  1  0
 19 12  1  0
 20 13  2  0
 21  5  1  0
 21 13  1  0
M  END
>  <NAME>  (5953) 
N-ACETYL-VALYL-GLYCYL-ALANINE METHYLESTER

>  <SYNONYMS>  (5953) 


>  <SPECTRUM TYPE>  (5953) 
MS1

>  <INSTRUMENT TYPE>  (5953) 
EI-B

>  <INSTRUMENT>  (5953) 
HITACHI RMU-6M

>  <ION MODE>  (5953) 
P

>  <INCHIKEY>  (5953) 
YJRCHSYSXSJNIJ-KWQFWETISA-N

>  <FORMULA>  (5953) 
C13H23N3O5

>  <EXACT MASS>  (5953) 
301.163770836

>  <MW>  (5953) 
301

>  <ID>  (5953) 
JP000105

>  <CONTRIBUTOR>  (5953) 
University of Tokyo Team, {Faculty of Engineering, University of Tokyo

>  <COMMENT>  (5953) 
SMILES=COC(=O)C([H])(C)NC(=O)CNC(=O)C([H])(NC(C)=O)C(C)C
InChI=InChI=1S/C13H23N3O5/c1-7(2)11(16-9(4)17)12(19)14-6-10(18)15-8(3)13(20)21-5/h7-8,11H,6H2,1-5H3,(H,14,19)(H,15,18)(H,16,17)/t8-,11-/m0/s1
computed SMILES=O=C(OC)C(N=C(O)CN=C(O)C(N=C(O)C)C(C)C)C
accession=JP000105
date=2016.01.19 (Created 2008.10.21, modified 2011.05.06)
author=YAMAMOTO M, DEP. CHEMISTRY, FAC. SCIENCE, NARA WOMEN'S UNIV.
license=CC BY-NC-SA
exact mass=301.16377
ionization energy=70 eV
ion type=[M]+*
computed spectral entropy=3.0016620177307503
computed normalized entropy=0.7524878472041251
SPLASH=splash10-00dl-9200000000-df1041cd3e7b5e1e460e
submitter=submitter = University of Tokyo Team (Faculty of Engineering, University of Tokyo)
MoNA Rating=3.75

>  <NUM PEAKS>  (5953) 
54

>  <MASS SPECTRAL PEAKS>  (5953) 
15 12.1
27 4.1
28 10.6
29 0.51
30 27.4
31 1.1
39 2.2
41 0.52
42 5.6
43 24
44 32.5
45 0.15
54 1.1
55 17.7
56 9.1
57 0.67
58 7.3
59 2.4
60 4.8
69 0.29
70 4.4
71 2.1
72 99.99
73 0.63
83 2.7
84 1.6
85 4
86 0.16
98 1.7
99 2.7
100 7
101 0.16
102 2.2
104 5.4
113 8.7
114 6.7
115 24
116 1.8
127 2.7
128 0.12
142 12.7
143 1.3
145 2.5
156 0.13
161 2.3
172 1.2
173 3.4
199 1.21
200 1.5
242 9.1
243 1.4
259 0.15
301 1.1
302 1.1

>  <PREDICTED SPECTRUM>  (5953) 
14 1
15 15
17 7
18 9
25 1
26 48
27 197
28 177
29 272
30 219
31 186
32 58
33 57
34 22
36 74
37 17
38 70
39 283
40 195
41 747
42 821
43 999
44 521
45 710
46 220
47 142
48 30
49 27
50 67
51 130
52 166
53 333
54 385
55 562
56 572
57 504
58 547
59 566
60 311
61 59
62 44
64 1
65 115
66 94
67 259
68 333
69 535
70 474
71 475
72 263
73 193
74 286
75 96
77 118
78 95
79 153
80 173
81 240
82 276
83 276
84 84
85 105
86 355
87 174
88 153
89 49
90 85
91 43
93 79
94 111
95 170
96 264
97 415
98 425
99 305
100 129
101 181
102 190
105 81
106 26
107 163
108 168
109 238
110 116
111 297
112 244
113 245
114 51
115 147
116 79
118 81
119 67
120 2
121 11
122 63
123 352
124 202
125 322
126 304
127 147
128 17
136 136
137 86
138 271
139 69
140 129
141 72
142 328
143 112
144 39
145 18
147 126
151 98
152 42
153 112
154 90
156 41
158 0
160 94
161 49
166 152
167 211
168 107
169 181
170 22
171 51
178 31
180 57
181 69
182 84
183 140
184 80
185 65
186 162
187 20
193 6
196 197
197 186
198 40
207 9
208 68
209 51
210 219
211 98
214 31
224 63
225 95
226 37
238 4
240 2
242 104
243 43
252 79
253 101
254 93
255 26
256 59
257 132
270 144
271 0
283 1
284 16
301 83
302 40

$$$$

     RDKit          2D

 21 20  0  0  1  0  0  0  0  0999 V2000
    1.6238    9.1875    0.0000 C   0  0  0  0  0  0  0  0  0  0  0  0
   -0.9743    9.1875    0.0000 C   0  0  0  0  0  0  0  0  0  0  0  0
   -3.5724    4.6875    0.0000 C   0  0  0  0  0  0  0  0  0  0  0  0
    4.2219    6.1875    0.0000 C   0  0  0  0  0  0  0  0  0  0  0  0
  -11.3666    6.1875    0.0000 C   0  0  0  0  0  0  0  0  0  0  0  0
   -7.4695    6.9375    0.0000 C   0  0  0  0  0  0  0  0  0  0  0  0
    0.3248    8.4375    0.0000 C   0  0  0  0  0  0  0  0  0  0  0  0
   -3.5724    6.1875    0.0000 C   0  0  0  0  0  0  0  0  0  0  0  0
    2.9228    6.9375    0.0000 C   0  0  0  0  0  0  0  0  0  0  0  0
   -8.7685    6.1875    0.0000 C   0  0  0  0  0  0  0  0  0  0  0  0
    0.3248    6.9375    0.0000 C   0  0  0  0  0  0  0  0  0  0  0  0
   -4.8714    6.9375    0.0000 C   0  0  0  0  0  0  0  0  0  0  0  0
   -0.9743    6.1875    0.0000 C   0  0  0  0  0  0  0  0  0  0  0  0
   -6.1704    6.1875    0.0000 N   0  0  0  0  0  0  0  0  0  0  0  0
   -2.2733    6.9375    0.0000 N   0  0  0  0  0  0  0  0  0  0  0  0
    1.6238    6.1875    0.0000 N   0  0  0  0  0  0  0  0  0  0  0  0
    2.9228    8.4375    0.0000 O   0  0  0  0  0  0  0  0  0  0  0  0
   -8.7685    4.6875    0.0000 O   0  0  0  0  0  0  0  0  0  0  0  0
   -4.8714    8.4375    0.0000 O   0  0  0  0  0  0  0  0  0  0  0  0
   -0.9743    4.6875    0.0000 O   0  0  0  0  0  0  0  0  0  0  0  0
  -10.0675    6.9375    0.0000 O   0  0  0  0  0  0  0  0  0  0  0  0
  7  1  1  0
  7  2  1  0
  8  3  1  1
  9  4  1  0
 10  6  1  0
 11  7  1  0
 12  8  1  0
 13 11  1  0
 14  6  1  0
 14 12  2  3
 15  8  1  0
 15 13  2  3
 16  9  2  3
 11 16  1  6
 17  9  1  0
 18 10  2  0
 19 12  1  0
 20 13  1  0
 21  5  1  0
 21 10  1  0
M  END
>  <NAME>  (5954) 
N-ACETYL-VALYL-ALANYL-GLYCINE METHYLESTER

>  <SYNONYMS>  (5954) 


>  <SPECTRUM TYPE>  (5954) 
MS1

>  <INSTRUMENT TYPE>  (5954) 
EI-B

>  <INSTRUMENT>  (5954) 
HITACHI RMU-6M

>  <ION MODE>  (5954) 
P

>  <INCHIKEY>  (5954) 
LISVXPDUUDDSQY-KWQFWETISA-N

>  <FORMULA>  (5954) 
C13H23N3O5

>  <EXACT MASS>  (5954) 
301.163770836

>  <MW>  (5954) 
301

>  <ID>  (5954) 
JP000104

>  <CONTRIBUTOR>  (5954) 
University of Tokyo Team, {Faculty of Engineering, University of Tokyo

>  <COMMENT>  (5954) 
SMILES=COC(=O)CNC(=O)C([H])(C)NC(=O)C([H])(NC(C)=O)C(C)C
InChI=InChI=1S/C13H23N3O5/c1-7(2)11(16-9(4)17)13(20)15-8(3)12(19)14-6-10(18)21-5/h7-8,11H,6H2,1-5H3,(H,14,19)(H,15,20)(H,16,17)/t8-,11-/m0/s1
computed SMILES=O=C(OC)CN=C(O)C(N=C(O)C(N=C(O)C)C(C)C)C
accession=JP000104
date=2016.01.19 (Created 2008.10.21, modified 2011.05.06)
author=YAMAMOTO M, DEP. CHEMISTRY, FAC. SCIENCE, NARA WOMEN'S UNIV.
license=CC BY-NC-SA
exact mass=301.16377
ionization energy=70 eV
ion type=[M]+*
computed spectral entropy=2.964799837055758
computed normalized entropy=0.7398436067111713
SPLASH=splash10-0006-9400000000-448db66fca56f7db57e2
submitter=submitter = University of Tokyo Team (Faculty of Engineering, University of Tokyo)
MoNA Rating=3.75

>  <NUM PEAKS>  (5954) 
55

>  <MASS SPECTRAL PEAKS>  (5954) 
15 9.7
27 5.1
28 12.6
29 0.53
30 17.8
31 1.2
39 2.5
41 0.58
42 6
43 25.2
44 99.99
45 0.39
53 1
54 1.3
55 18.3
56 0.98
57 6.2
58 6.6
59 1.8
60 0.38
69 2.8
70 6.3
71 3.3
72 9.08
73 6.3
74 1.2
83 1.8
84 0.14
85 1.3
88 3.4
90 3.9
98 0.13
99 4.8
100 7.6
112 1.5
113 0.26
114 56.5
115 19.4
116 2.2
126 0.11
127 3.5
142 24.3
143 2.6
145 0.35
161 1.4
170 1.2
171 2.3
185 1.57
186 5.3
187 1.8
199 2.3
214 0.4
270 1.2
301 1.8
302 1.3

>  <PREDICTED SPECTRUM>  (5954) 
14 32
15 64
16 18
17 52
18 70
25 20
26 88
27 261
28 216
29 271
30 173
31 224
32 42
33 73
34 30
36 70
37 30
38 84
39 340
40 248
41 827
42 942
43 999
44 676
45 665
46 170
47 113
48 19
49 59
50 91
51 134
52 197
53 290
54 389
55 448
56 599
57 445
58 436
59 312
60 331
61 82
62 11
65 147
66 114
67 281
68 370
69 464
70 402
71 365
72 280
73 350
74 380
75 126
76 29
77 135
78 95
79 22
80 177
81 147
82 371
83 285
84 223
85 168
86 237
87 153
88 45
89 14
91 55
92 65
93 111
94 163
95 156
96 394
97 449
98 504
99 292
100 227
101 237
102 171
105 119
106 43
107 89
108 153
109 95
110 132
111 243
112 217
113 211
114 131
115 229
116 131
117 50
118 99
119 77
122 63
123 259
124 292
125 481
126 305
127 268
128 200
129 63
130 7
132 37
133 42
136 96
137 100
138 274
139 203
140 359
141 210
142 419
143 265
144 61
147 22
151 123
152 196
153 157
154 175
155 52
156 118
158 145
159 28
160 199
165 76
166 210
167 218
168 240
169 166
170 110
171 101
172 0
180 121
181 82
182 118
183 220
184 159
185 50
186 256
187 46
188 13
193 53
194 13
196 283
197 254
198 121
200 45
201 79
207 4
208 118
209 117
210 194
214 48
224 44
225 55
226 62
228 45
229 24
238 234
239 52
240 55
242 96
243 39
252 55
256 52
257 146
270 49
301 7

$$$$

     RDKit          2D

 12 12  0  0  0  0  0  0  0  0999 V2000
   -3.8981    0.7504    0.0000 C   0  0  0  0  0  0  0  0  0  0  0  0
   -2.5987    3.0002    0.0000 C   0  0  0  0  0  0  0  0  0  0  0  0
    2.5989   -1.5002    0.0000 C   0  0  0  0  0  0  0  0  0  0  0  0
   -2.5989    1.5002    0.0000 C   0  0  0  0  0  0  0  0  0  0  0  0
    1.3000   -0.7500    0.0000 C   0  0  0  0  0  0  0  0  0  0  0  0
   -1.3000    0.7500    0.0000 C   0  0  0  0  0  0  0  0  0  0  0  0
    1.3000    0.7500    0.0000 C   0  0  0  0  0  0  0  0  0  0  0  0
   -1.3000   -0.7500    0.0000 C   0  0  0  0  0  0  0  0  0  0  0  0
    0.0000   -1.5000    0.0000 N   0  0  0  0  0  0  0  0  0  0  0  0
    0.0000    1.5000    0.0000 N   0  0  0  0  0  0  0  0  0  0  0  0
    2.5989    1.5002    0.0000 O   0  0  0  0  0  0  0  0  0  0  0  0
   -2.5989   -1.5002    0.0000 O   0  0  0  0  0  0  0  0  0  0  0  0
  4  1  1  0
  4  2  1  0
  5  3  1  0
  6  4  1  0
  7  5  1  0
  8  6  1  0
  9  5  1  0
  9  8  2  0
 10  6  1  0
 10  7  2  0
 11  7  1  0
 12  8  1  0
M  END
>  <NAME>  (5955) 
3-METHYL-6-ISOPROPYL-2,5-PIPERADINEDIONE

>  <SYNONYMS>  (5955) 
CYCLOALANYL-VALINE

>  <SPECTRUM TYPE>  (5955) 
MS1

>  <INSTRUMENT TYPE>  (5955) 
EI-B

>  <INSTRUMENT>  (5955) 
HITACHI RMU-6M

>  <ION MODE>  (5955) 
P

>  <INCHIKEY>  (5955) 
ORLDMMKUTCCBSM-UHFFFAOYSA-N

>  <FORMULA>  (5955) 
C8H14N2O2

>  <EXACT MASS>  (5955) 
170.105527688

>  <MW>  (5955) 
170

>  <ID>  (5955) 
JP000103

>  <CONTRIBUTOR>  (5955) 
University of Tokyo Team, {Faculty of Engineering, University of Tokyo

>  <COMMENT>  (5955) 
SMILES=CC(C)C(N1)C(=O)NC(C)C(=O)1
InChI=InChI=1S/C8H14N2O2/c1-4(2)6-8(12)9-5(3)7(11)10-6/h4-6H,1-3H3,(H,9,12)(H,10,11)
computed SMILES=OC1=NC(C(O)=NC1C)C(C)C
accession=JP000103
date=2016.01.19 (Created 2008.10.21, modified 2011.05.06)
author=YAMAMOTO M, DEP. CHEMISTRY, FAC. SCIENCE, NARA WOMEN'S UNIV.
license=CC BY-NC-SA
exact mass=170.10553
ionization energy=70 eV
ion type=[M]+*
computed spectral entropy=3.0103748766478984
computed normalized entropy=0.8054149200138505
SPLASH=splash10-004l-9300000000-da049db4a8457186b053
submitter=submitter = University of Tokyo Team (Faculty of Engineering, University of Tokyo)
MoNA Rating=3.75

>  <NUM PEAKS>  (5955) 
42

>  <MASS SPECTRAL PEAKS>  (5955) 
15 10.1
26 3
27 20.5
28 48.9
29 11.6
30 7.1
38 1
39 11.2
40 3
41 18
42 18
43 14.9
44 99.99
45 3.5
53 1.4
54 3.7
55 13.2
56 14
57 7.8
58 1.8
68 1.6
69 9.3
70 4.8
71 7.7
72 32.4
73 2.9
83 2.3
84 11
85 8.7
98 1.1
99 22.8
100 2.9
111 1.6
112 2.3
113 26.3
114 2.1
127 12.5
128 94.4
129 6.9
155 1.4
170 1
171 1.4

>  <PREDICTED SPECTRUM>  (5955) 
30 16
31 48
38 26
39 196
40 264
41 770
42 838
43 607
44 374
45 258
46 15
51 204
52 303
53 516
54 337
55 767
56 492
57 606
58 319
59 480
60 152
61 33
66 163
67 239
68 433
69 966
70 768
71 355
72 336
73 243
77 36
78 31
79 24
80 162
81 217
82 197
83 356
84 433
85 696
86 336
87 243
94 69
95 75
96 48
97 48
98 30
99 999
100 793
101 582
102 151
109 332
110 175
111 248
112 158
113 367
114 27
115 67
123 72
124 7
125 376
126 217
127 899
128 445
129 295
137 197
141 5
142 141
153 180
155 848
156 265
157 65
169 173
170 536
171 143

$$$$

     RDKit          2D

 12 12  0  0  0  0  0  0  0  0999 V2000
    2.5989   -1.5002    0.0000 C   0  0  0  0  0  0  0  0  0  0  0  0
    1.3002    0.7500    0.0000 C   0  0  0  0  0  0  0  0  0  0  0  0
    0.0008   -1.4998    0.0000 C   0  0  0  0  0  0  0  0  0  0  0  0
   -3.8981    0.7504    0.0000 C   0  0  0  0  0  0  0  0  0  0  0  0
    1.3000   -0.7500    0.0000 C   0  0  0  0  0  0  0  0  0  0  0  0
   -1.2981   -0.7496    0.0000 C   0  0  0  0  0  0  0  0  0  0  0  0
   -3.8981   -0.7496    0.0000 C   0  0  0  0  0  0  0  0  0  0  0  0
   -1.2981    0.7504    0.0000 C   0  0  0  0  0  0  0  0  0  0  0  0
   -2.5981    1.5004    0.0000 N   0  0  0  0  0  0  0  0  0  0  0  0
   -2.5981   -1.4996    0.0000 N   0  0  0  0  0  0  0  0  0  0  0  0
   -5.1970   -1.4998    0.0000 O   0  0  0  0  0  0  0  0  0  0  0  0
    0.0008    1.5006    0.0000 O   0  0  0  0  0  0  0  0  0  0  0  0
  5  1  1  0
  5  2  1  0
  5  3  1  0
  6  3  1  0
  7  4  1  0
  8  6  1  0
  9  4  1  0
  9  8  2  0
 10  6  1  0
 10  7  2  0
 11  7  1  0
 12  8  1  0
M  END
>  <NAME>  (5956) 
3-ISOBUTYL-2,5-PIPERADINEDIONE

>  <SYNONYMS>  (5956) 
CYCLOGLYCYL-LEUCINE

>  <SPECTRUM TYPE>  (5956) 
MS1

>  <INSTRUMENT TYPE>  (5956) 
EI-B

>  <INSTRUMENT>  (5956) 
HITACHI RMU-6M

>  <ION MODE>  (5956) 
P

>  <INCHIKEY>  (5956) 
VQFHWKRNHGHZTK-UHFFFAOYSA-N

>  <FORMULA>  (5956) 
C8H14N2O2

>  <EXACT MASS>  (5956) 
170.105527688

>  <MW>  (5956) 
170

>  <ID>  (5956) 
JP000101

>  <CONTRIBUTOR>  (5956) 
University of Tokyo Team, {Faculty of Engineering, University of Tokyo

>  <COMMENT>  (5956) 
SMILES=CC(C)CC(N1)C(=O)NCC(=O)1
InChI=InChI=1S/C8H14N2O2/c1-5(2)3-6-8(12)9-4-7(11)10-6/h5-6H,3-4H2,1-2H3,(H,9,12)(H,10,11)
computed SMILES=OC1=NC(C(O)=NC1)CC(C)C
accession=JP000101
date=2016.01.19 (Created 2008.10.21, modified 2011.05.06)
author=YAMAMOTO M, DEP. CHEMISTRY, FAC. SCIENCE, NARA WOMEN'S UNIV.
license=CC BY-NC-SA
exact mass=170.10553
ionization energy=70 eV
ion type=[M]+*
computed spectral entropy=2.769082056452003
computed normalized entropy=0.7788497802637004
SPLASH=splash10-01si-9200000000-ba9e68b58d73914a6ae0
submitter=submitter = University of Tokyo Team (Faculty of Engineering, University of Tokyo)
MoNA Rating=3.75

>  <NUM PEAKS>  (5956) 
35

>  <MASS SPECTRAL PEAKS>  (5956) 
15 5.5
27 15.9
28 33.7
29 14.1
30 99.99
31 1.3
40 9.7
41 1.9
42 19.3
43 9
44 23
45 8.6
53 1.7
54 2
55 6.7
56 15.4
57 9.7
58 2.1
59 1
67 1
68 1.9
69 1.8
70 5.3
84 15.9
85 17.9
86 5.2
98 1.3
99 7.4
113 6.2
114 78
115 4.4
127 8.5
169 0.3
170 0.3
171 1.1

>  <PREDICTED SPECTRUM>  (5956) 
30 43
31 43
33 40
38 44
39 304
40 250
41 810
42 693
43 842
44 604
45 558
46 77
47 32
51 69
52 161
53 333
54 323
55 679
56 494
57 637
58 492
59 203
60 42
66 19
67 224
68 474
69 999
70 549
71 483
72 279
73 141
80 85
81 129
82 21
83 433
84 371
85 823
86 398
87 302
95 135
96 78
97 327
98 185
99 367
100 270
101 253
102 8
103 29
109 176
110 92
111 162
113 945
114 846
115 330
116 178
123 95
124 18
125 284
126 59
127 256
128 294
129 91
130 9
137 29
139 229
140 63
141 259
142 320
143 112
153 298
154 156
155 768
156 297
157 48
169 175
170 392
171 141

$$$$

     RDKit          2D

 11 11  0  0  0  0  0  0  0  0999 V2000
   -3.8981    0.7504    0.0000 C   0  0  0  0  0  0  0  0  0  0  0  0
   -2.5987    3.0002    0.0000 C   0  0  0  0  0  0  0  0  0  0  0  0
    1.3000   -0.7500    0.0000 C   0  0  0  0  0  0  0  0  0  0  0  0
   -2.5989    1.5002    0.0000 C   0  0  0  0  0  0  0  0  0  0  0  0
    1.3000    0.7500    0.0000 C   0  0  0  0  0  0  0  0  0  0  0  0
   -1.3000    0.7500    0.0000 C   0  0  0  0  0  0  0  0  0  0  0  0
   -1.3000   -0.7500    0.0000 C   0  0  0  0  0  0  0  0  0  0  0  0
    0.0000   -1.5000    0.0000 N   0  0  0  0  0  0  0  0  0  0  0  0
    0.0000    1.5000    0.0000 N   0  0  0  0  0  0  0  0  0  0  0  0
    2.5989    1.5002    0.0000 O   0  0  0  0  0  0  0  0  0  0  0  0
   -2.5989   -1.5002    0.0000 O   0  0  0  0  0  0  0  0  0  0  0  0
  4  1  1  0
  4  2  1  0
  5  3  1  0
  6  4  1  0
  7  6  1  0
  8  3  1  0
  8  7  2  0
  9  5  2  0
  9  6  1  0
 10  5  1  0
 11  7  1  0
M  END
>  <NAME>  (5957) 
3-ISOPROPYL-2,5-PIPERADINEDIONE

>  <SYNONYMS>  (5957) 
CYCLOGLYCYL-VALINE

>  <SPECTRUM TYPE>  (5957) 
MS1

>  <INSTRUMENT TYPE>  (5957) 
EI-B

>  <INSTRUMENT>  (5957) 
HITACHI RMU-6M

>  <ION MODE>  (5957) 
P

>  <INCHIKEY>  (5957) 
IULFBTHVPRNQCG-UHFFFAOYSA-N

>  <FORMULA>  (5957) 
C7H12N2O2

>  <EXACT MASS>  (5957) 
156.089877624

>  <MW>  (5957) 
156

>  <ID>  (5957) 
JP000100

>  <CONTRIBUTOR>  (5957) 
University of Tokyo Team, {Faculty of Engineering, University of Tokyo

>  <COMMENT>  (5957) 
SMILES=CC(C)C(N1)C(=O)NCC(=O)1
InChI=InChI=1S/C7H12N2O2/c1-4(2)6-7(11)8-3-5(10)9-6/h4,6H,3H2,1-2H3,(H,8,11)(H,9,10)
computed SMILES=OC1=NC(C(O)=NC1)C(C)C
accession=JP000100
date=2016.01.19 (Created 2008.10.21, modified 2011.05.06)
author=YAMAMOTO M, DEP. CHEMISTRY, FAC. SCIENCE, NARA WOMEN'S UNIV.
license=CC BY-NC-SA
exact mass=156.08988
ionization energy=70 eV
ion type=[M]+*
computed spectral entropy=2.821127228635174
computed normalized entropy=0.7755492529274896
SPLASH=splash10-03gi-9300000000-5c047d856bfb99f819dd
submitter=submitter = University of Tokyo Team (Faculty of Engineering, University of Tokyo)
MoNA Rating=3.75

>  <NUM PEAKS>  (5957) 
38

>  <MASS SPECTRAL PEAKS>  (5957) 
15 3.7
26 1.2
27 14.9
28 49
29 16.9
30 79.9
31 2.7
38 1
39 11.9
40 2.2
41 17.2
42 9.3
43 14.4
44 1.1
52 1
53 1.4
54 3
55 8.3
56 11.3
57 28
58 3.9
59 1.8
69 5.7
70 14
71 2.1
72 7.7
73 1.4
83 1.9
84 1.6
85 21.1
86 9.4
91 3.5
98 1.2
113 11
114 99.99
115 5.8
141 1.4
156 1

>  <PREDICTED SPECTRUM>  (5957) 
28 45
30 116
31 16
33 13
38 29
39 194
40 179
41 582
42 682
43 817
44 486
45 394
46 150
47 92
51 74
52 121
53 264
54 283
55 479
56 323
57 509
58 335
59 228
60 22
66 38
67 231
68 437
69 751
70 458
71 437
72 359
73 381
74 70
75 20
77 85
80 0
81 77
82 189
83 272
84 195
85 472
86 400
87 271
88 166
89 54
93 22
95 125
96 177
97 274
98 60
99 374
100 175
101 102
109 245
110 164
111 314
112 168
113 493
114 352
115 83
123 132
125 282
126 68
127 229
128 501
129 197
130 5
139 252
140 105
141 999
142 332
143 106
155 244
156 620
157 209

$$$$

     RDKit          2D

 10 10  0  0  0  0  0  0  0  0999 V2000
    2.5989   -1.5002    0.0000 C   0  0  0  0  0  0  0  0  0  0  0  0
   -2.5989    1.5002    0.0000 C   0  0  0  0  0  0  0  0  0  0  0  0
    1.3000   -0.7500    0.0000 C   0  0  0  0  0  0  0  0  0  0  0  0
   -1.3000    0.7500    0.0000 C   0  0  0  0  0  0  0  0  0  0  0  0
    1.3000    0.7500    0.0000 C   0  0  0  0  0  0  0  0  0  0  0  0
   -1.3000   -0.7500    0.0000 C   0  0  0  0  0  0  0  0  0  0  0  0
   -0.0000   -1.5000    0.0000 N   0  0  0  0  0  0  0  0  0  0  0  0
    0.0000    1.5000    0.0000 N   0  0  0  0  0  0  0  0  0  0  0  0
    2.5989    1.5002    0.0000 O   0  0  0  0  0  0  0  0  0  0  0  0
   -2.5989   -1.5002    0.0000 O   0  0  0  0  0  0  0  0  0  0  0  0
  3  1  1  0
  4  2  1  0
  5  3  1  0
  6  4  1  0
  7  3  1  0
  7  6  2  0
  8  4  1  0
  8  5  2  0
  9  5  1  0
 10  6  1  0
M  END
>  <NAME>  (5958) 
3,6-DIMETHYL-2,5-PIPERAZINEDIONE

>  <SYNONYMS>  (5958) 
CYCLOALANYL-ALANINE

>  <SPECTRUM TYPE>  (5958) 
MS1

>  <INSTRUMENT TYPE>  (5958) 
EI-B

>  <INSTRUMENT>  (5958) 
HITACHI RMU-6M

>  <ION MODE>  (5958) 
P

>  <INCHIKEY>  (5958) 
WWISPHBAYBECQZ-UHFFFAOYSA-N

>  <FORMULA>  (5958) 
C6H10N2O2

>  <EXACT MASS>  (5958) 
142.07422756

>  <MW>  (5958) 
142

>  <ID>  (5958) 
JP000099

>  <CONTRIBUTOR>  (5958) 
University of Tokyo Team, {Faculty of Engineering, University of Tokyo

>  <COMMENT>  (5958) 
SMILES=CC(N1)C(=O)NC(C)C(=O)1
InChI=InChI=1S/C6H10N2O2/c1-3-5(9)8-4(2)6(10)7-3/h3-4H,1-2H3,(H,7,10)(H,8,9)
computed SMILES=OC1=NC(C(O)=NC1C)C
accession=JP000099
date=2016.01.19 (Created 2008.10.21, modified 2011.05.06)
author=YAMAMOTO M, DEP. CHEMISTRY, FAC. SCIENCE, NARA WOMEN'S UNIV.
license=CC BY-NC-SA
exact mass=142.07423
ionization energy=70 eV
ion type=[M]+*
computed spectral entropy=1.139532598283934
computed normalized entropy=0.5856039133344086
SPLASH=splash10-0006-9100000000-e53457cdd23f71ac38b8
submitter=submitter = University of Tokyo Team (Faculty of Engineering, University of Tokyo)
MoNA Rating=3.75

>  <NUM PEAKS>  (5958) 
7

>  <MASS SPECTRAL PEAKS>  (5958) 
44 99.99
45 2.6
71 24.8
72 1.9
114 6.1
142 20.3
143 1.7

>  <PREDICTED SPECTRUM>  (5958) 
28 9
33 56
34 53
36 56
37 41
38 121
39 283
40 342
41 891
42 999
43 790
44 520
45 187
46 34
47 58
48 28
49 54
50 83
51 212
52 228
53 321
54 268
55 581
56 573
57 454
58 294
59 261
60 135
62 18
63 29
64 62
66 84
67 207
68 426
69 723
70 401
71 563
72 404
73 349
74 147
75 14
77 53
78 33
80 8
81 101
82 62
83 250
84 202
85 96
87 20
94 61
95 20
96 144
97 295
98 161
99 300
100 173
101 62
109 63
110 103
112 286
113 138
114 78
127 548
128 145
140 8
141 90
142 501
143 127

$$$$

     RDKit          2D

 14 13  0  0  1  0  0  0  0  0999 V2000
    3.2476    2.6250    0.0000 C   0  0  0  0  0  0  0  0  0  0  0  0
   -5.8457    3.3750    0.0000 C   0  0  0  0  0  0  0  0  0  0  0  0
    0.6495    7.1250    0.0000 C   0  0  0  0  0  0  0  0  0  0  0  0
   -1.9486    2.6250    0.0000 C   0  0  0  0  0  0  0  0  0  0  0  0
    1.9486    3.3750    0.0000 C   0  0  0  0  0  0  0  0  0  0  0  0
   -0.6495    3.3750    0.0000 C   0  0  0  0  0  0  0  0  0  0  0  0
   -3.2476    3.3750    0.0000 C   0  0  0  0  0  0  0  0  0  0  0  0
   -0.6495    4.8750    0.0000 C   0  0  0  0  0  0  0  0  0  0  0  0
    0.6495    2.6250    0.0000 N   0  0  0  0  0  0  0  0  0  0  0  0
    1.9486    4.8750    0.0000 O   0  0  0  0  0  0  0  0  0  0  0  0
   -3.2476    4.8750    0.0000 O   0  0  0  0  0  0  0  0  0  0  0  0
   -1.9486    5.6250    0.0000 O   0  0  0  0  0  0  0  0  0  0  0  0
   -4.5466    2.6250    0.0000 O   0  0  0  0  0  0  0  0  0  0  0  0
    0.6495    5.6250    0.0000 O   0  0  0  0  0  0  0  0  0  0  0  0
  5  1  1  0
  6  4  1  1
  7  4  1  0
  8  6  1  0
  9  5  2  3
  6  9  1  0
 10  5  1  0
 11  7  2  0
 12  8  2  0
 13  2  1  0
 13  7  1  0
 14  3  1  0
 14  8  1  0
M  END
>  <NAME>  (5959) 
N-ACETYL-ASPARTIC ACID DIMETHYLESTER

>  <SYNONYMS>  (5959) 


>  <SPECTRUM TYPE>  (5959) 
MS1

>  <INSTRUMENT TYPE>  (5959) 
EI-B

>  <INSTRUMENT>  (5959) 
HITACHI RMU-6M

>  <ION MODE>  (5959) 
P

>  <INCHIKEY>  (5959) 
VRPXVQSXUIFMKQ-LURJTMIESA-N

>  <FORMULA>  (5959) 
C8H13NO5

>  <EXACT MASS>  (5959) 
203.079372516

>  <MW>  (5959) 
203

>  <ID>  (5959) 
JP000097

>  <CONTRIBUTOR>  (5959) 
University of Tokyo Team, {Faculty of Engineering, University of Tokyo

>  <COMMENT>  (5959) 
SMILES=COC(=O)CC([H])(NC(C)=O)C(=O)OC
InChI=InChI=1S/C8H13NO5/c1-5(10)9-6(8(12)14-3)4-7(11)13-2/h6H,4H2,1-3H3,(H,9,10)/t6-/m0/s1
computed SMILES=O=C(OC)CC(N=C(O)C)C(=O)OC
accession=JP000097
date=2016.01.19 (Created 2008.10.21, modified 2011.05.06)
author=YAMAMOTO M, DEP. CHEMISTRY, FAC. SCIENCE, NARA WOMEN'S UNIV.
license=CC BY-NC-SA
exact mass=203.07937
ionization energy=70 eV
ion type=[M]+*
computed spectral entropy=2.1364090334203474
computed normalized entropy=0.6482144354463754
SPLASH=splash10-0f6x-6900000000-003ae492a0f6ef4ed7cd
submitter=submitter = University of Tokyo Team (Faculty of Engineering, University of Tokyo)
MoNA Rating=3.75

>  <NUM PEAKS>  (5959) 
27

>  <MASS SPECTRAL PEAKS>  (5959) 
15 16.5
27 2
28 7.6
29 0.14
31 1.2
33 1.8
41 2.4
42 0.61
43 56.8
44 1.3
55 2.3
59 0.52
60 13.5
70 19.2
74 2.9
86 0.17
88 7.3
100 1
101 1.2
102 99.99
103 3.8
113 4.2
144 61.5
145 0.31
160 2.1
172 2.7
203 1.2

>  <PREDICTED SPECTRUM>  (5959) 
14 22
15 152
16 7
25 7
26 85
27 216
28 91
29 219
30 136
31 113
32 46
33 139
34 31
37 46
38 143
39 366
40 285
41 389
42 727
43 877
44 358
45 639
46 168
47 18
50 57
51 131
52 226
53 348
54 280
55 628
56 358
57 245
58 284
59 737
60 290
61 71
62 24
63 8
64 5
65 29
66 153
67 139
68 233
69 334
70 552
71 387
72 247
73 170
74 375
75 88
76 17
80 23
82 164
83 171
84 735
85 415
86 179
87 107
88 149
89 37
95 45
96 212
97 221
98 391
99 283
100 336
101 146
102 680
103 167
104 37
110 243
111 434
112 827
113 393
114 325
115 102
116 196
117 65
124 83
125 161
126 294
127 95
128 204
129 155
130 417
131 60
132 21
140 94
142 62
143 415
144 999
145 245
156 20
157 46
158 48
171 376
172 398
173 134
186 31
203 119
204 18

$$$$

     RDKit          2D

 15 14  0  0  1  0  0  0  0  0999 V2000
    3.2476    3.3750    0.0000 C   0  0  0  0  0  0  0  0  0  0  0  0
   -7.1447    3.3750    0.0000 C   0  0  0  0  0  0  0  0  0  0  0  0
    0.6495    7.8750    0.0000 C   0  0  0  0  0  0  0  0  0  0  0  0
   -1.9486    3.3750    0.0000 C   0  0  0  0  0  0  0  0  0  0  0  0
   -3.2476    4.1250    0.0000 C   0  0  0  0  0  0  0  0  0  0  0  0
    1.9486    4.1250    0.0000 C   0  0  0  0  0  0  0  0  0  0  0  0
   -0.6495    4.1250    0.0000 C   0  0  0  0  0  0  0  0  0  0  0  0
   -4.5466    3.3750    0.0000 C   0  0  0  0  0  0  0  0  0  0  0  0
   -0.6495    5.6250    0.0000 C   0  0  0  0  0  0  0  0  0  0  0  0
    0.6495    3.3750    0.0000 N   0  0  0  0  0  0  0  0  0  0  0  0
    1.9486    5.6250    0.0000 O   0  0  0  0  0  0  0  0  0  0  0  0
   -4.5466    1.8750    0.0000 O   0  0  0  0  0  0  0  0  0  0  0  0
   -1.9486    6.3750    0.0000 O   0  0  0  0  0  0  0  0  0  0  0  0
   -5.8457    4.1250    0.0000 O   0  0  0  0  0  0  0  0  0  0  0  0
    0.6495    6.3750    0.0000 O   0  0  0  0  0  0  0  0  0  0  0  0
  5  4  1  0
  6  1  1  0
  7  4  1  6
  8  5  1  0
  9  7  1  0
 10  6  2  3
  7 10  1  0
 11  6  1  0
 12  8  2  0
 13  9  2  0
 14  2  1  0
 14  8  1  0
 15  3  1  0
 15  9  1  0
M  END
>  <NAME>  (5960) 
N-ACETYL-GLUTAMIC ACID DIMETHYLESTER

>  <SYNONYMS>  (5960) 


>  <SPECTRUM TYPE>  (5960) 
MS1

>  <INSTRUMENT TYPE>  (5960) 
EI-B

>  <INSTRUMENT>  (5960) 
HITACHI RMU-6M

>  <ION MODE>  (5960) 
P

>  <INCHIKEY>  (5960) 
KAUXXCKARJMDIG-SSDOTTSWSA-N

>  <FORMULA>  (5960) 
C9H15NO5

>  <EXACT MASS>  (5960) 
217.09502257999998

>  <MW>  (5960) 
217

>  <ID>  (5960) 
JP000096

>  <CONTRIBUTOR>  (5960) 
University of Tokyo Team, {Faculty of Engineering, University of Tokyo

>  <COMMENT>  (5960) 
SMILES=COC(=O)CCC([H])(NC(C)=O)C(=O)OC
InChI=InChI=1S/C9H15NO5/c1-6(11)10-7(9(13)15-3)4-5-8(12)14-2/h7H,4-5H2,1-3H3,(H,10,11)/t7-/m1/s1
computed SMILES=O=C(OC)CCC(N=C(O)C)C(=O)OC
accession=JP000096
date=2016.01.19 (Created 2008.10.21, modified 2011.05.06)
author=YAMAMOTO M, DEP. CHEMISTRY, FAC. SCIENCE, NARA WOMEN'S UNIV.
license=CC BY-NC-SA
exact mass=217.09502
ionization energy=70 eV
ion type=[M]+*
computed spectral entropy=2.7485875787808736
computed normalized entropy=0.7026000550014808
SPLASH=splash10-00l6-9400000000-2983b1ebe15e248f1a2e
submitter=submitter = University of Tokyo Team (Faculty of Engineering, University of Tokyo)
MoNA Rating=3.75

>  <NUM PEAKS>  (5960) 
50

>  <MASS SPECTRAL PEAKS>  (5960) 
15 16
27 4.4
28 14.9
29 0.3
30 3
31 2.5
33 3.4
39 0.22
41 11.2
42 4.9
43 73.7
44 0.18
45 1.2
54 3.5
55 4.6
56 3.75
57 7.6
59 5.2
60 2.7
74 0.12
82 3.9
83 1
84 99.99
85 0.49
88 17.5
89 1
98 19.5
100 0.21
102 2
111 2.1
112 1.3
114 0.36
116 83.6
117 3.9
126 8.5
127 0.11
130 2.3
131 1.1
142 1.9
143 0.11
144 30.8
145 1.5
153 1.8
158 6.5
159 4.2
172 1.9
174 5
185 0.44
186 3.6
217 1.5

>  <PREDICTED SPECTRUM>  (5960) 
15 100
26 90
27 309
28 130
29 291
30 160
31 85
32 35
33 112
37 31
38 108
39 469
40 214
41 612
42 499
43 571
44 243
45 525
46 87
47 61
50 55
51 75
52 146
53 383
54 283
55 802
56 418
57 310
58 286
59 676
60 176
61 10
65 180
66 151
67 191
68 240
69 365
70 611
71 351
72 213
73 136
74 375
75 132
77 52
78 80
79 108
80 273
81 263
82 362
83 454
84 792
85 480
86 214
87 315
88 340
89 4
94 54
96 139
97 341
98 999
99 462
100 230
101 69
102 143
103 28
107 9
108 145
109 57
110 376
111 294
112 479
113 308
114 222
115 77
116 368
117 63
124 202
125 539
126 763
127 307
128 252
129 134
130 505
131 352
138 128
139 1
140 196
141 50
142 335
143 248
144 424
145 93
152 16
153 208
154 372
155 91
156 199
157 458
158 658
159 204
170 160
171 86
172 62
173 7
184 62
185 474
186 480
187 185
188 26
202 27
217 23

$$$$

     RDKit          2D

 16 15  0  0  1  0  0  0  0  0999 V2000
   -8.4437    5.6250    0.0000 C   0  0  0  0  0  0  0  0  0  0  0  0
    3.2476    4.8750    0.0000 C   0  0  0  0  0  0  0  0  0  0  0  0
   -0.6495    1.1250    0.0000 C   0  0  0  0  0  0  0  0  0  0  0  0
   -7.1447    4.8750    0.0000 C   0  0  0  0  0  0  0  0  0  0  0  0
    1.9486    5.6250    0.0000 C   0  0  0  0  0  0  0  0  0  0  0  0
   -3.2476    5.6250    0.0000 C   0  0  0  0  0  0  0  0  0  0  0  0
   -0.6495    2.6250    0.0000 C   0  0  0  0  0  0  0  0  0  0  0  0
   -1.9486    4.8750    0.0000 C   0  0  0  0  0  0  0  0  0  0  0  0
   -4.5466    4.8750    0.0000 C   0  0  0  0  0  0  0  0  0  0  0  0
   -0.6495    5.6250    0.0000 C   0  0  0  0  0  0  0  0  0  0  0  0
   -1.9486    3.3750    0.0000 N   0  0  0  0  0  0  0  0  0  0  0  0
    0.6495    3.3750    0.0000 O   0  0  0  0  0  0  0  0  0  0  0  0
   -4.5466    3.3750    0.0000 O   0  0  0  0  0  0  0  0  0  0  0  0
   -0.6495    7.1250    0.0000 O   0  0  0  0  0  0  0  0  0  0  0  0
   -5.8457    5.6250    0.0000 O   0  0  0  0  0  0  0  0  0  0  0  0
    0.6495    4.8750    0.0000 O   0  0  0  0  0  0  0  0  0  0  0  0
  4  1  1  0
  5  2  1  0
  7  3  1  0
  8  6  1  1
  9  6  1  0
 10  8  1  0
 11  7  2  3
  8 11  1  0
 12  7  1  0
 13  9  2  0
 14 10  2  0
 15  4  1  0
 15  9  1  0
 16  5  1  0
 16 10  1  0
M  END
>  <NAME>  (5961) 
N-ACETYL-ASPARTIC ACID DIETHYLESTER

>  <SYNONYMS>  (5961) 


>  <SPECTRUM TYPE>  (5961) 
MS1

>  <INSTRUMENT TYPE>  (5961) 
EI-B

>  <INSTRUMENT>  (5961) 
HITACHI RMU-6M

>  <ION MODE>  (5961) 
P

>  <INCHIKEY>  (5961) 
XQGDGRNHLJLQOV-QMMMGPOBSA-N

>  <FORMULA>  (5961) 
C10H17NO5

>  <EXACT MASS>  (5961) 
231.110672644

>  <MW>  (5961) 
231

>  <ID>  (5961) 
JP000095

>  <CONTRIBUTOR>  (5961) 
University of Tokyo Team, {Faculty of Engineering, University of Tokyo

>  <COMMENT>  (5961) 
SMILES=CCOC(=O)CC([H])(NC(C)=O)C(=O)OCC
InChI=InChI=1S/C10H17NO5/c1-4-15-9(13)6-8(11-7(3)12)10(14)16-5-2/h8H,4-6H2,1-3H3,(H,11,12)/t8-/m0/s1
computed SMILES=O=C(OCC)CC(N=C(O)C)C(=O)OCC
accession=JP000095
date=2016.01.19 (Created 2008.10.21, modified 2011.05.06)
author=YAMAMOTO M, DEP. CHEMISTRY, FAC. SCIENCE, NARA WOMEN'S UNIV.
license=CC BY-NC-SA
exact mass=231.11067
ionization energy=70 eV
ion type=[M]+*
computed spectral entropy=2.0268423126242636
computed normalized entropy=0.6296739678385246
SPLASH=splash10-066r-4900000000-282f05fbc89b8e675249
submitter=submitter = University of Tokyo Team (Faculty of Engineering, University of Tokyo)
MoNA Rating=3.75

>  <NUM PEAKS>  (5961) 
25

>  <MASS SPECTRAL PEAKS>  (5961) 
15 4.2
27 6.7
28 8.8
29 1.58
30 2.2
32 1.6
41 1.4
42 0.44
43 37.4
44 5.9
55 1.1
60 0.17
70 11.6
74 5.6
85 1.1
88 0.32
99 2.3
102 3.5
116 99.99
117 0.46
158 58.1
159 3.5
186 5.6
188 0.1
231 1.3

>  <PREDICTED SPECTRUM>  (5961) 
14 50
15 88
16 3
18 23
19 4
25 34
26 156
27 430
28 292
29 702
30 220
31 251
32 50
33 50
34 18
38 106
39 391
40 305
41 463
42 634
43 999
44 444
45 633
46 273
47 128
51 23
52 155
53 280
54 299
55 452
56 457
57 275
58 262
59 319
60 260
61 205
62 10
66 128
67 194
68 412
69 323
70 501
71 343
72 268
73 95
74 144
75 3
78 87
79 70
80 108
81 154
82 301
83 296
84 552
85 451
86 405
87 217
88 152
89 124
91 45
95 77
96 162
97 302
98 511
99 373
100 287
101 119
102 262
103 64
109 24
110 239
111 402
112 746
113 432
114 304
115 192
116 282
117 179
118 16
122 45
124 93
125 153
126 301
127 185
128 354
129 273
130 353
131 173
132 39
138 149
139 367
140 498
141 235
142 191
143 64
144 266
145 126
155 3
156 216
157 399
158 480
159 156
170 131
171 91
172 58
173 16
183 7
184 169
185 499
186 575
187 148
198 5
200 23
216 3
230 45
231 266
232 112

$$$$

     RDKit          2D

 17 16  0  0  1  0  0  0  0  0999 V2000
    2.9228    6.1875    0.0000 C   0  0  0  0  0  0  0  0  0  0  0  0
  -10.0675    6.1875    0.0000 C   0  0  0  0  0  0  0  0  0  0  0  0
   -6.1704    2.4375    0.0000 C   0  0  0  0  0  0  0  0  0  0  0  0
    1.6238    6.9375    0.0000 C   0  0  0  0  0  0  0  0  0  0  0  0
   -8.7685    6.9375    0.0000 C   0  0  0  0  0  0  0  0  0  0  0  0
   -3.5724    6.9375    0.0000 C   0  0  0  0  0  0  0  0  0  0  0  0
   -2.2733    6.1875    0.0000 C   0  0  0  0  0  0  0  0  0  0  0  0
   -6.1704    3.9375    0.0000 C   0  0  0  0  0  0  0  0  0  0  0  0
   -4.8714    6.1875    0.0000 C   0  0  0  0  0  0  0  0  0  0  0  0
   -0.9743    6.9375    0.0000 C   0  0  0  0  0  0  0  0  0  0  0  0
   -6.1704    6.9375    0.0000 C   0  0  0  0  0  0  0  0  0  0  0  0
   -4.8714    4.6875    0.0000 N   0  0  0  0  0  0  0  0  0  0  0  0
   -7.4695    4.6875    0.0000 O   0  0  0  0  0  0  0  0  0  0  0  0
   -0.9743    8.4375    0.0000 O   0  0  0  0  0  0  0  0  0  0  0  0
   -6.1704    8.4375    0.0000 O   0  0  0  0  0  0  0  0  0  0  0  0
    0.3248    6.1875    0.0000 O   0  0  0  0  0  0  0  0  0  0  0  0
   -7.4695    6.1875    0.0000 O   0  0  0  0  0  0  0  0  0  0  0  0
  4  1  1  0
  5  2  1  0
  7  6  1  0
  8  3  1  0
  9  6  1  1
 10  7  1  0
 11  9  1  0
 12  8  2  3
  9 12  1  0
 13  8  1  0
 14 10  2  0
 15 11  2  0
 16  4  1  0
 16 10  1  0
 17  5  1  0
 17 11  1  0
M  END
>  <NAME>  (5962) 
N-ACETYL-GLUTAMIC ACID DIETHYLESTER

>  <SYNONYMS>  (5962) 


>  <SPECTRUM TYPE>  (5962) 
MS1

>  <INSTRUMENT TYPE>  (5962) 
EI-B

>  <INSTRUMENT>  (5962) 
HITACHI RMU-6M

>  <ION MODE>  (5962) 
P

>  <INCHIKEY>  (5962) 
FBAOQDIATMHNAD-SECBINFHSA-N

>  <FORMULA>  (5962) 
C11H19NO5

>  <EXACT MASS>  (5962) 
245.12632270799998

>  <MW>  (5962) 
245

>  <ID>  (5962) 
JP000094

>  <CONTRIBUTOR>  (5962) 
University of Tokyo Team, {Faculty of Engineering, University of Tokyo

>  <COMMENT>  (5962) 
SMILES=CCOC(=O)CCC([H])(NC(C)=O)C(=O)OCC
InChI=InChI=1S/C11H19NO5/c1-4-16-10(14)7-6-9(12-8(3)13)11(15)17-5-2/h9H,4-7H2,1-3H3,(H,12,13)/t9-/m1/s1
computed SMILES=O=C(OCC)CCC(N=C(O)C)C(=O)OCC
accession=JP000094
date=2016.01.19 (Created 2008.10.21, modified 2011.05.06)
author=YAMAMOTO M, DEP. CHEMISTRY, FAC. SCIENCE, NARA WOMEN'S UNIV.
license=CC BY-NC-SA
exact mass=245.12632
ionization energy=70 eV
ion type=[M]+*
computed spectral entropy=2.642342025219433
computed normalized entropy=0.7025263064824157
SPLASH=splash10-001i-9400000000-fb913c97f7a617b7e812
submitter=submitter = University of Tokyo Team (Faculty of Engineering, University of Tokyo)
MoNA Rating=3.75

>  <NUM PEAKS>  (5962) 
43

>  <MASS SPECTRAL PEAKS>  (5962) 
15 4.7
26 1.1
27 8.9
28 1.17
29 16.1
30 2.4
31 2.9
39 0.13
41 9.1
42 2.7
43 45.5
44 0.16
45 2.3
54 1.7
55 2.6
56 2.18
57 7.3
74 2.9
82 1
84 99.99
85 4.8
98 1.8
99 1.9
100 0.21
102 7
111 1.4
112 16.4
113 0.1
126 17
127 1.2
128 1.5
130 1.85
131 2.8
153 1.4
154 1.2
158 1.93
159 1.2
172 43.3
173 3.3
199 0.47
200 6.1
202 2.1
245 1

>  <PREDICTED SPECTRUM>  (5962) 
14 44
15 191
16 25
17 38
18 83
19 21
25 30
26 173
27 466
28 322
29 709
30 273
31 206
32 59
33 28
38 49
39 318
40 190
41 480
42 405
43 539
44 226
45 403
46 92
47 108
50 0
51 3
52 103
53 237
54 284
55 541
56 391
57 294
58 164
59 182
60 204
61 90
63 2
65 66
66 137
67 203
68 199
69 209
70 396
71 216
72 136
73 173
74 180
75 111
76 2
77 28
79 0
80 213
81 124
82 247
83 259
84 459
85 451
86 324
87 146
88 160
89 31
91 35
92 79
93 69
94 143
95 71
96 208
97 246
98 689
99 411
100 280
101 183
102 167
103 74
104 67
105 1
107 38
108 169
109 81
110 170
111 420
112 542
113 292
114 212
115 64
116 152
117 98
122 45
123 16
124 180
125 466
126 999
127 476
128 288
129 55
130 145
131 137
135 13
136 0
138 10
139 140
140 271
141 25
142 227
143 197
144 289
145 117
152 11
153 420
154 412
155 148
156 96
157 168
158 343
159 134
167 37
168 38
169 47
170 120
171 257
172 437
173 107
182 37
184 59
185 52
186 40
198 95
199 436
200 482
201 116
212 37
245 47
246 12

$$$$

     RDKit          2D

 16 16  0  0  1  0  0  0  0  0999 V2000
   -6.1702    4.2571    0.0000 C   0  0  0  0  0  0  0  0  0  0  0  0
   -3.5721   -0.2429    0.0000 C   0  0  0  0  0  0  0  0  0  0  0  0
    2.9231    2.0071    0.0000 C   0  0  0  0  0  0  0  0  0  0  0  0
    2.9236    3.5079    0.0000 C   0  0  0  0  0  0  0  0  0  0  0  0
    1.6236    1.2563    0.0000 C   0  0  0  0  0  0  0  0  0  0  0  0
    1.6245    4.2579    0.0000 C   0  0  0  0  0  0  0  0  0  0  0  0
    0.3245    2.0063    0.0000 C   0  0  0  0  0  0  0  0  0  0  0  0
   -0.9740    4.2571    0.0000 C   0  0  0  0  0  0  0  0  0  0  0  0
   -4.8712    3.5071    0.0000 C   0  0  0  0  0  0  0  0  0  0  0  0
    0.3250    3.5071    0.0000 C   0  0  0  0  0  0  0  0  0  0  0  0
   -2.2731    3.5071    0.0000 C   0  0  0  0  0  0  0  0  0  0  0  0
   -2.2731    2.0071    0.0000 C   0  0  0  0  0  0  0  0  0  0  0  0
   -3.5721    4.2571    0.0000 N   0  0  0  0  0  0  0  0  0  0  0  0
   -4.8712    2.0071    0.0000 O   0  0  0  0  0  0  0  0  0  0  0  0
   -0.9740    1.2571    0.0000 O   0  0  0  0  0  0  0  0  0  0  0  0
   -3.5721    1.2571    0.0000 O   0  0  0  0  0  0  0  0  0  0  0  0
  4  3  2  0
  5  3  1  0
  6  4  1  0
  7  5  2  0
  9  1  1  0
 10  6  2  0
 10  7  1  0
 10  8  1  0
 11  8  1  6
 12 11  1  0
 13  9  2  3
 11 13  1  0
 14  9  1  0
 15 12  2  0
 16  2  1  0
 16 12  1  0
M  END
>  <NAME>  (5963) 
N-ACETYL-PHENYLALANINE METHYLESTER

>  <SYNONYMS>  (5963) 


>  <SPECTRUM TYPE>  (5963) 
MS1

>  <INSTRUMENT TYPE>  (5963) 
EI-B

>  <INSTRUMENT>  (5963) 
HITACHI RMU-6M

>  <ION MODE>  (5963) 
P

>  <INCHIKEY>  (5963) 
IKGHIFGXPVLPFD-LLVKDONJSA-N

>  <FORMULA>  (5963) 
C12H15NO3

>  <EXACT MASS>  (5963) 
221.10519333999997

>  <MW>  (5963) 
221

>  <ID>  (5963) 
JP000093

>  <CONTRIBUTOR>  (5963) 
University of Tokyo Team, {Faculty of Engineering, University of Tokyo

>  <COMMENT>  (5963) 
SMILES=COC(=O)C([H])(NC(C)=O)Cc(c1)cccc1
InChI=InChI=1S/C12H15NO3/c1-9(14)13-11(12(15)16-2)8-10-6-4-3-5-7-10/h3-7,11H,8H2,1-2H3,(H,13,14)/t11-/m1/s1
computed SMILES=O=C(OC)C(N=C(O)C)CC=1C=CC=CC1
accession=JP000093
date=2016.01.19 (Created 2008.10.21, modified 2011.05.06)
author=YAMAMOTO M, DEP. CHEMISTRY, FAC. SCIENCE, NARA WOMEN'S UNIV.
license=CC BY-NC-SA
exact mass=221.10519
ionization energy=70 eV
ion type=[M]+*
computed spectral entropy=2.9071330061804757
computed normalized entropy=0.7682313222686847
SPLASH=splash10-01p6-9600000000-3711e43a6f489dd5037b
submitter=submitter = University of Tokyo Team (Faculty of Engineering, University of Tokyo)
MoNA Rating=3.75

>  <NUM PEAKS>  (5963) 
44

>  <MASS SPECTRAL PEAKS>  (5963) 
15 13.98
27 1.94
28 13.19
29 1.29
31 1.51
33 10.32
39 7.96
41 3.08
42 3.66
43 72.76
44 2.01
50 2.01
51 6.45
52 1.72
59 2.37
60 3.23
63 3.8
64 1.15
65 16.13
66 1
77 9.25
78 2.94
88 96.06
89 7.31
90 2.8
91 57.35
92 10.75
93 2.44
102 3.73
103 11.83
104 3.8
117 4.09
118 5.66
119 5.45
120 53.05
121 5.81
130 3.3
131 32.62
132 3.8
144 1.43
161 13.05
162 99.99
163 11.54
221 0.43

>  <PREDICTED SPECTRUM>  (5963) 
14 25
15 87
16 7
26 26
27 63
28 27
29 46
30 2
31 22
33 37
34 0
37 45
38 109
39 355
40 134
41 166
42 212
43 399
44 168
45 109
50 174
51 316
52 198
53 178
54 66
55 144
56 163
57 163
58 96
59 161
60 37
61 29
62 74
63 249
64 136
65 473
66 134
69 39
70 121
71 79
73 22
74 78
75 73
76 72
77 348
78 227
79 122
80 40
82 18
83 5
84 92
85 70
86 51
87 28
88 82
89 209
90 87
91 999
92 346
93 28
98 119
99 18
101 2
102 154
103 200
104 159
105 160
106 94
107 66
112 9
114 32
115 173
116 108
117 212
118 168
119 84
120 120
121 72
129 48
130 561
131 344
132 174
133 118
134 35
135 56
142 30
144 188
145 70
146 159
147 94
148 9
158 14
159 36
160 115
161 170
162 363
163 153
188 34
189 124
190 25
206 2
220 4
221 141
222 33

$$$$

     RDKit          2D

 13 12  0  0  1  0  0  0  0  0999 V2000
    3.2476    2.6250    0.0000 C   0  0  0  0  0  0  0  0  0  0  0  0
    0.6495    7.1250    0.0000 C   0  0  0  0  0  0  0  0  0  0  0  0
   -5.8457    3.3750    0.0000 C   0  0  0  0  0  0  0  0  0  0  0  0
   -1.9486    2.6250    0.0000 C   0  0  0  0  0  0  0  0  0  0  0  0
   -3.2476    3.3750    0.0000 C   0  0  0  0  0  0  0  0  0  0  0  0
    1.9486    3.3750    0.0000 C   0  0  0  0  0  0  0  0  0  0  0  0
   -0.6495    3.3750    0.0000 C   0  0  0  0  0  0  0  0  0  0  0  0
   -0.6495    4.8750    0.0000 C   0  0  0  0  0  0  0  0  0  0  0  0
    0.6495    2.6250    0.0000 N   0  0  0  0  0  0  0  0  0  0  0  0
    1.9486    4.8750    0.0000 O   0  0  0  0  0  0  0  0  0  0  0  0
   -1.9486    5.6250    0.0000 O   0  0  0  0  0  0  0  0  0  0  0  0
    0.6495    5.6250    0.0000 O   0  0  0  0  0  0  0  0  0  0  0  0
   -4.5466    2.6250    0.0000 S   0  0  0  0  0  0  0  0  0  0  0  0
  5  4  1  0
  6  1  1  0
  7  4  1  6
  8  7  1  0
  9  6  2  3
  7  9  1  0
 10  6  1  0
 11  8  2  0
 12  2  1  0
 12  8  1  0
 13  3  1  0
 13  5  1  0
M  END
>  <NAME>  (5964) 
N-ACETYL-METHIONINE METHYLESTER

>  <SYNONYMS>  (5964) 


>  <SPECTRUM TYPE>  (5964) 
MS1

>  <INSTRUMENT TYPE>  (5964) 
EI-B

>  <INSTRUMENT>  (5964) 
HITACHI RMU-6M

>  <ION MODE>  (5964) 
P

>  <INCHIKEY>  (5964) 
YVMKSJIMTATAAS-SSDOTTSWSA-N

>  <FORMULA>  (5964) 
C8H15NO3S

>  <EXACT MASS>  (5964) 
205.07726434

>  <MW>  (5964) 
205

>  <ID>  (5964) 
JP000092

>  <CONTRIBUTOR>  (5964) 
University of Tokyo Team, {Faculty of Engineering, University of Tokyo

>  <COMMENT>  (5964) 
SMILES=COC(=O)C([H])(CCSC)NC(C)=O
InChI=InChI=1S/C8H15NO3S/c1-6(10)9-7(4-5-13-3)8(11)12-2/h7H,4-5H2,1-3H3,(H,9,10)/t7-/m1/s1
computed SMILES=O=C(OC)C(N=C(O)C)CCSC
accession=JP000092
date=2016.01.19 (Created 2008.10.21, modified 2011.05.06)
author=YAMAMOTO M, DEP. CHEMISTRY, FAC. SCIENCE, NARA WOMEN'S UNIV.
license=CC BY-NC-SA
exact mass=205.07726
ionization energy=70 eV
ion type=[M]+*
computed spectral entropy=3.5780852427532808
computed normalized entropy=0.8212817025626334
SPLASH=splash10-06s7-9300000000-794ac11e618a09d81cc3
submitter=submitter = University of Tokyo Team (Faculty of Engineering, University of Tokyo)
MoNA Rating=3.75

>  <NUM PEAKS>  (5964) 
78

>  <MASS SPECTRAL PEAKS>  (5964) 
14 3.07
15 14.72
26 4.81
27 14.66
28 27.83
29 5.15
30 8.61
31 4.72
32 2.46
33 8.54
35 7.18
39 5.24
40 1.36
41 14.34
42 12.07
43 99.99
44 4.92
45 13.24
46 5.57
47 14.56
48 7.54
49 2.98
54 7.18
55 5.21
56 67.96
57 18.77
58 2.04
59 7.35
60 6.89
61 77.35
62 4.08
63 3.98
68 1.81
70 1.55
71 12.3
72 1.68
74 11.2
75 15.53
76 1.17
77 1.04
83 3.98
84 4.05
85 2.59
86 2.52
87 4.92
88 35.28
89 30.74
90 1.65
97 1.29
98 10.81
99 85.11
100 7.22
101 1.68
102 17.8
103 1.36
104 28.16
105 1.88
106 1.36
109 1.36
112 13.56
113 1.91
114 7.93
115 2.46
116 6.83
125 3.53
126 2.2
130 1.29
131 91.59
132 5.99
144 16.51
145 1.62
146 9.09
158 5.83
162 5.83
163 1.46
173 1.91
205 8.51
206 1.29

>  <PREDICTED SPECTRUM>  (5964) 
14 35
15 129
16 17
17 23
18 37
25 34
26 161
27 393
28 214
29 321
30 82
31 134
32 53
33 124
34 92
35 282
36 20
37 83
38 151
39 502
40 238
41 696
42 400
43 369
44 219
45 444
46 354
47 447
48 194
49 111
50 100
51 113
52 78
53 186
54 223
55 361
56 335
57 261
58 261
59 461
60 268
61 999
62 250
63 233
64 78
65 60
66 73
67 113
68 256
69 290
70 232
71 326
72 147
73 284
74 320
75 576
76 112
77 114
78 53
79 136
80 54
82 173
83 196
84 345
85 261
86 193
87 399
88 210
89 148
90 158
91 177
93 26
96 77
97 255
98 663
99 558
100 327
101 287
102 296
103 104
104 84
105 50
106 5
111 90
112 337
113 240
114 314
115 95
116 225
117 23
118 22
122 1
123 59
125 153
126 282
127 136
128 144
129 63
130 377
131 498
132 163
134 8
140 94
142 163
143 94
144 517
145 318
146 479
147 141
148 60
157 71
158 139
159 359
160 179
161 36
172 74
173 17
174 84
190 172
191 11
205 411
206 151
207 86

$$$$

     RDKit          2D

 11 10  0  0  1  0  0  0  0  0999 V2000
    2.2733    2.8125    0.0000 C   0  0  0  0  0  0  0  0  0  0  0  0
   -5.5209    2.8125    0.0000 C   0  0  0  0  0  0  0  0  0  0  0  0
   -1.6238    5.0625    0.0000 C   0  0  0  0  0  0  0  0  0  0  0  0
    0.9743    3.5625    0.0000 C   0  0  0  0  0  0  0  0  0  0  0  0
   -1.6238    3.5625    0.0000 C   0  0  0  0  0  0  0  0  0  0  0  0
   -2.9228    2.8125    0.0000 C   0  0  0  0  0  0  0  0  0  0  0  0
   -0.3248    2.8125    0.0000 N   0  0  0  0  0  0  0  0  0  0  0  0
   -2.9228    5.8125    0.0000 O   0  0  0  0  0  0  0  0  0  0  0  0
    0.9743    5.0625    0.0000 O   0  0  0  0  0  0  0  0  0  0  0  0
   -2.9228    1.3125    0.0000 O   0  0  0  0  0  0  0  0  0  0  0  0
   -4.2219    3.5625    0.0000 O   0  0  0  0  0  0  0  0  0  0  0  0
  4  1  1  0
  5  3  1  1
  6  5  1  0
  7  4  2  3
  5  7  1  0
  8  3  1  0
  9  4  1  0
 10  6  2  0
 11  2  1  0
 11  6  1  0
M  END
>  <NAME>  (5965) 
N-ACETYL-SERINE METHYLESTER

>  <SYNONYMS>  (5965) 


>  <SPECTRUM TYPE>  (5965) 
MS1

>  <INSTRUMENT TYPE>  (5965) 
EI-B

>  <INSTRUMENT>  (5965) 
HITACHI RMU-6M

>  <ION MODE>  (5965) 
P

>  <INCHIKEY>  (5965) 
ONUNDAQVOOLWTH-RXMQYKEDSA-N

>  <FORMULA>  (5965) 
C6H11NO4

>  <EXACT MASS>  (5965) 
161.068807832

>  <MW>  (5965) 
161

>  <ID>  (5965) 
JP000091

>  <CONTRIBUTOR>  (5965) 
University of Tokyo Team, {Faculty of Engineering, University of Tokyo

>  <COMMENT>  (5965) 
SMILES=COC(=O)C([H])(CO)NC(C)=O
InChI=InChI=1S/C6H11NO4/c1-4(9)7-5(3-8)6(10)11-2/h5,8H,3H2,1-2H3,(H,7,9)/t5-/m1/s1
computed SMILES=O=C(OC)C(N=C(O)C)CO
accession=JP000091
date=2016.01.19 (Created 2008.10.21, modified 2011.05.06)
author=YAMAMOTO M, DEP. CHEMISTRY, FAC. SCIENCE, NARA WOMEN'S UNIV.
license=CC BY-NC-SA
exact mass=161.06881
ionization energy=70 eV
ion type=[M]+*
computed spectral entropy=2.663146387470826
computed normalized entropy=0.7321191225532769
SPLASH=splash10-0006-9200000000-5bcf38399f17afb03bdb
submitter=submitter = University of Tokyo Team (Faculty of Engineering, University of Tokyo)
MoNA Rating=3.75

>  <NUM PEAKS>  (5965) 
38

>  <MASS SPECTRAL PEAKS>  (5965) 
27 4.74
28 16.01
29 4.88
31 3.02
32 2.13
33 3.85
38 1.65
39 5.43
40 7.22
41 31.27
42 61.86
43 99.99
44 5.02
45 1.58
52 2.54
53 2.06
54 2.47
55 1.58
56 2.27
58 1.31
59 3.16
63 1.92
65 2.47
68 2.13
71 10.65
74 1.1
80 2.54
83 1.58
84 4.81
100 1.44
101 43.64
102 3.57
105 1.37
109 1.37
111 12.58
112 3.99
143 19.52
144 1.58

>  <PREDICTED SPECTRUM>  (5965) 
14 48
15 206
16 21
17 2
18 11
25 13
26 88
27 222
28 181
29 261
30 337
31 331
32 96
33 144
34 12
36 34
37 74
38 185
39 360
40 253
41 420
42 826
43 755
44 433
45 727
46 197
47 39
50 66
51 162
52 254
53 222
54 447
55 568
56 433
57 259
58 253
59 440
60 434
61 111
62 66
66 10
68 299
69 276
70 586
71 404
72 264
73 143
74 232
75 76
82 24
83 76
84 492
85 392
86 311
87 226
88 188
89 46
90 12
98 256
99 166
100 326
101 238
102 913
103 356
104 51
112 203
113 88
114 161
115 115
116 184
117 90
128 178
129 343
130 999
131 409
132 156
143 104
144 121
161 152

$$$$

     RDKit          2D

 13 12  0  0  1  0  0  0  0  0999 V2000
   -4.8714    3.9375    0.0000 C   0  0  0  0  0  0  0  0  0  0  0  0
   -3.5724    1.6875    0.0000 C   0  0  0  0  0  0  0  0  0  0  0  0
    2.9228    3.9375    0.0000 C   0  0  0  0  0  0  0  0  0  0  0  0
    0.3248   -0.5625    0.0000 C   0  0  0  0  0  0  0  0  0  0  0  0
   -2.2733    3.9375    0.0000 C   0  0  0  0  0  0  0  0  0  0  0  0
   -3.5724    3.1875    0.0000 C   0  0  0  0  0  0  0  0  0  0  0  0
    1.6238    3.1875    0.0000 C   0  0  0  0  0  0  0  0  0  0  0  0
   -0.9743    3.1875    0.0000 C   0  0  0  0  0  0  0  0  0  0  0  0
   -0.9743    1.6875    0.0000 C   0  0  0  0  0  0  0  0  0  0  0  0
    0.3248    3.9375    0.0000 N   0  0  0  0  0  0  0  0  0  0  0  0
    1.6238    1.6875    0.0000 O   0  0  0  0  0  0  0  0  0  0  0  0
   -2.2733    0.9375    0.0000 O   0  0  0  0  0  0  0  0  0  0  0  0
    0.3248    0.9375    0.0000 O   0  0  0  0  0  0  0  0  0  0  0  0
  6  1  1  0
  6  2  1  0
  6  5  1  0
  7  3  1  0
  8  5  1  1
  9  8  1  0
 10  7  2  3
  8 10  1  0
 11  7  1  0
 12  9  2  0
 13  4  1  0
 13  9  1  0
M  END
>  <NAME>  (5966) 
N-ACETYL-LEUCINE METHYLESTER

>  <SYNONYMS>  (5966) 


>  <SPECTRUM TYPE>  (5966) 
MS1

>  <INSTRUMENT TYPE>  (5966) 
EI-B

>  <INSTRUMENT>  (5966) 
HITACHI RMU-6M

>  <ION MODE>  (5966) 
P

>  <INCHIKEY>  (5966) 
IIGAKARAJMXVOZ-MRVPVSSYSA-N

>  <FORMULA>  (5966) 
C9H17NO3

>  <EXACT MASS>  (5966) 
187.12084340399997

>  <MW>  (5966) 
187

>  <ID>  (5966) 
JP000090

>  <CONTRIBUTOR>  (5966) 
University of Tokyo Team, {Faculty of Engineering, University of Tokyo

>  <COMMENT>  (5966) 
SMILES=COC(=O)C([H])(CC(C)C)NC(C)=O
InChI=InChI=1S/C9H17NO3/c1-6(2)5-8(9(12)13-4)10-7(3)11/h6,8H,5H2,1-4H3,(H,10,11)/t8-/m1/s1
computed SMILES=O=C(OC)C(N=C(O)C)CC(C)C
accession=JP000090
date=2016.01.19 (Created 2008.10.21, modified 2011.05.06)
author=YAMAMOTO M, DEP. CHEMISTRY, FAC. SCIENCE, NARA WOMEN'S UNIV.
license=CC BY-NC-SA
exact mass=187.12084
ionization energy=70 eV
ion type=[M]+*
computed spectral entropy=2.940140209420372
computed normalized entropy=0.763643505021599
SPLASH=splash10-002r-9100000000-520507d1312e82b4c47e
submitter=submitter = University of Tokyo Team (Faculty of Engineering, University of Tokyo)
MoNA Rating=3.75

>  <NUM PEAKS>  (5966) 
47

>  <MASS SPECTRAL PEAKS>  (5966) 
15 33.2
27 16
28 20
29 0.78
30 48
31 1.6
33 8.4
39 0.84
40 1.4
41 19.2
42 12
43 6.32
44 33.6
45 1
53 2
54 0.12
55 3.2
56 5
57 5
59 0.26
60 5.8
67 2.2
68 2.6
69 0.32
70 8.8
71 3.6
72 1.8
73 0.14
74 1.8
84 3.6
85 2.6
86 99.99
87 7
88 21.2
89 6.6
96 0.12
99 13.6
102 3.8
112 3.8
113 0.22
128 47.4
129 5.2
130 2
131 1.28
144 1.8
156 1.2
187 1.2

>  <PREDICTED SPECTRUM>  (5966) 
14 48
15 121
16 33
17 23
18 61
25 3
26 123
27 382
28 249
29 376
30 203
31 138
32 51
33 118
34 2
36 4
37 89
38 152
39 669
40 280
41 926
42 558
43 999
44 318
45 497
46 124
50 89
51 175
52 224
53 366
54 289
55 724
56 442
57 312
58 299
59 459
60 220
61 53
64 67
65 197
66 179
67 316
68 320
69 574
70 434
71 263
72 450
73 270
74 194
75 72
77 29
78 86
79 108
80 242
81 182
82 282
83 231
84 510
85 351
86 379
87 390
88 184
91 21
92 4
94 164
95 151
96 275
97 220
98 367
99 195
100 339
101 268
102 185
108 87
109 87
110 262
111 168
112 472
113 339
114 251
115 70
116 33
117 0
118 25
122 18
124 24
126 241
127 118
128 915
129 294
130 298
131 246
132 102
140 150
141 61
142 187
143 4
144 293
145 178
154 151
155 78
156 86
172 95
187 159
188 16

$$$$

     RDKit          2D

 12 11  0  0  1  0  0  0  0  0999 V2000
   -2.9228    5.8125    0.0000 C   0  0  0  0  0  0  0  0  0  0  0  0
   -0.3248    5.8125    0.0000 C   0  0  0  0  0  0  0  0  0  0  0  0
    2.2733    2.8125    0.0000 C   0  0  0  0  0  0  0  0  0  0  0  0
   -5.5209    2.8125    0.0000 C   0  0  0  0  0  0  0  0  0  0  0  0
   -1.6238    5.0625    0.0000 C   0  0  0  0  0  0  0  0  0  0  0  0
    0.9743    3.5625    0.0000 C   0  0  0  0  0  0  0  0  0  0  0  0
   -1.6238    3.5625    0.0000 C   0  0  0  0  0  0  0  0  0  0  0  0
   -2.9228    2.8125    0.0000 C   0  0  0  0  0  0  0  0  0  0  0  0
   -0.3248    2.8125    0.0000 N   0  0  0  0  0  0  0  0  0  0  0  0
    0.9743    5.0625    0.0000 O   0  0  0  0  0  0  0  0  0  0  0  0
   -2.9228    1.3125    0.0000 O   0  0  0  0  0  0  0  0  0  0  0  0
   -4.2219    3.5625    0.0000 O   0  0  0  0  0  0  0  0  0  0  0  0
  5  1  1  0
  5  2  1  0
  6  3  1  0
  7  5  1  0
  8  7  1  0
  9  6  2  3
  7  9  1  6
 10  6  1  0
 11  8  2  0
 12  4  1  0
 12  8  1  0
M  END
>  <NAME>  (5967) 
N-ACETYL-VALINE METHYLESTER

>  <SYNONYMS>  (5967) 


>  <SPECTRUM TYPE>  (5967) 
MS1

>  <INSTRUMENT TYPE>  (5967) 
EI-B

>  <INSTRUMENT>  (5967) 
HITACHI RMU-6M

>  <ION MODE>  (5967) 
P

>  <INCHIKEY>  (5967) 
KCHNPFJMSOGXIT-ZETCQYMHSA-N

>  <FORMULA>  (5967) 
C8H15NO3

>  <EXACT MASS>  (5967) 
173.10519333999997

>  <MW>  (5967) 
173

>  <ID>  (5967) 
JP000089

>  <CONTRIBUTOR>  (5967) 
University of Tokyo Team, {Faculty of Engineering, University of Tokyo

>  <COMMENT>  (5967) 
SMILES=COC(=O)C([H])(NC(C)=O)C(C)C
InChI=InChI=1S/C8H15NO3/c1-5(2)7(8(11)12-4)9-6(3)10/h5,7H,1-4H3,(H,9,10)/t7-/m0/s1
computed SMILES=O=C(OC)C(N=C(O)C)C(C)C
accession=JP000089
date=2016.01.19 (Created 2008.10.21, modified 2011.05.06)
author=YAMAMOTO M, DEP. CHEMISTRY, FAC. SCIENCE, NARA WOMEN'S UNIV.
license=CC BY-NC-SA
exact mass=173.10519
ionization energy=70 eV
ion type=[M]+*
computed spectral entropy=2.70861289852221
computed normalized entropy=0.7115453250192502
SPLASH=splash10-022c-9100000000-22609d8ed02f02a27152
submitter=submitter = University of Tokyo Team (Faculty of Engineering, University of Tokyo)
MoNA Rating=3.75

>  <NUM PEAKS>  (5967) 
45

>  <MASS SPECTRAL PEAKS>  (5967) 
14 1.2
15 29
27 9
28 2.37
29 5.7
30 9
31 1.1
33 0.82
39 7
40 1.7
41 9.8
42 0.45
43 58.2
44 1.7
45 1.2
53 0.1
54 2.1
55 18.7
56 10.7
57 0.8
59 2.4
60 14.3
69 1.3
70 0.52
71 4.8
72 99.99
73 5.4
74 0.26
82 1.6
83 2.8
84 1
88 3.71
89 6.5
98 1.5
99 15.8
100 0.12
102 1
114 52.1
115 4.4
116 0.14
126 1
130 1.9
131 3.7
142 0.13
173 0.9

>  <PREDICTED SPECTRUM>  (5967) 
29 44
30 110
33 89
38 5
39 367
40 135
41 778
42 658
43 864
44 456
45 386
46 138
51 79
52 183
53 324
54 364
55 815
56 512
57 366
58 405
59 611
60 121
61 35
65 156
66 109
67 317
68 341
69 709
70 467
71 409
72 776
73 404
74 230
80 240
81 230
82 602
83 417
84 349
85 162
86 214
87 285
88 120
94 26
95 131
96 356
97 275
98 612
99 999
100 741
101 246
102 104
110 72
111 47
112 204
113 78
114 901
115 296
116 273
124 135
125 64
126 357
127 262
128 233
129 3
130 373
131 983
132 244
140 73
141 279
142 401
156 77
157 9
158 60
173 288
174 61

$$$$

     RDKit          2D

 13 12  0  0  1  0  0  0  0  0999 V2000
   -4.8714    3.9375    0.0000 C   0  0  0  0  0  0  0  0  0  0  0  0
   -2.2733    5.4375    0.0000 C   0  0  0  0  0  0  0  0  0  0  0  0
    2.9228    3.9375    0.0000 C   0  0  0  0  0  0  0  0  0  0  0  0
    0.3248   -0.5625    0.0000 C   0  0  0  0  0  0  0  0  0  0  0  0
   -3.5724    3.1875    0.0000 C   0  0  0  0  0  0  0  0  0  0  0  0
   -2.2733    3.9375    0.0000 C   0  0  0  0  0  0  0  0  0  0  0  0
    1.6238    3.1875    0.0000 C   0  0  0  0  0  0  0  0  0  0  0  0
   -0.9743    3.1875    0.0000 C   0  0  0  0  0  0  0  0  0  0  0  0
   -0.9743    1.6875    0.0000 C   0  0  0  0  0  0  0  0  0  0  0  0
    0.3248    3.9375    0.0000 N   0  0  0  0  0  0  0  0  0  0  0  0
    1.6238    1.6875    0.0000 O   0  0  0  0  0  0  0  0  0  0  0  0
   -2.2733    0.9375    0.0000 O   0  0  0  0  0  0  0  0  0  0  0  0
    0.3248    0.9375    0.0000 O   0  0  0  0  0  0  0  0  0  0  0  0
  5  1  1  0
  6  2  1  6
  6  5  1  0
  7  3  1  0
  8  6  1  0
  9  8  1  0
 10  7  2  3
  8 10  1  6
 11  7  1  0
 12  9  2  0
 13  4  1  0
 13  9  1  0
M  END
>  <NAME>  (5968) 
N-ACETYL-ISOLEUCINE METHYLESTER

>  <SYNONYMS>  (5968) 


>  <SPECTRUM TYPE>  (5968) 
MS1

>  <INSTRUMENT TYPE>  (5968) 
EI-B

>  <INSTRUMENT>  (5968) 
HITACHI RMU-6M

>  <ION MODE>  (5968) 
P

>  <INCHIKEY>  (5968) 
JPQWQTHLAKUOOA-XPUUQOCRSA-N

>  <FORMULA>  (5968) 
C9H17NO3

>  <EXACT MASS>  (5968) 
187.120843404

>  <MW>  (5968) 
187

>  <ID>  (5968) 
JP000088

>  <CONTRIBUTOR>  (5968) 
University of Tokyo Team, {Faculty of Engineering, University of Tokyo

>  <COMMENT>  (5968) 
SMILES=CCC([H])(C)C([H])(NC(C)=O)C(=O)OC
InChI=InChI=1S/C9H17NO3/c1-5-6(2)8(9(12)13-4)10-7(3)11/h6,8H,5H2,1-4H3,(H,10,11)/t6-,8-/m0/s1
computed SMILES=O=C(OC)C(N=C(O)C)C(C)CC
ionization energy=70 eV
ion type=[M]+*
accession=JP000088
date=2016.01.19 (Created 2008.10.21, modified 2011.05.06)
author=YAMAMOTO M, DEP. CHEMISTRY, FAC. SCIENCE, NARA WOMEN'S UNIV.
license=CC BY-NC-SA
exact mass=187.12084
computed spectral entropy=2.9939878168735756
computed normalized entropy=0.7505639987335391
SPLASH=splash10-004u-9100000000-34da34048ae8753af128
submitter=submitter = University of Tokyo Team (Faculty of Engineering, University of Tokyo)
MoNA Rating=3.75

>  <NUM PEAKS>  (5968) 
54

>  <MASS SPECTRAL PEAKS>  (5968) 
14 1.2
15 41.3
26 1.2
27 1.47
28 32.8
29 25.3
30 41
31 0.14
33 13.9
39 10
40 1.4
41 3.04
42 6.5
43 90.9
45 10.8
46 0.15
53 2
54 3.1
55 4.6
56 1.61
57 18.9
58 3.1
59 3.7
60 2.02
67 1.9
68 2.5
69 15.8
70 0.71
71 8.3
72 4.9
74 6.2
84 0.49
85 2.8
86 99.99
87 6.9
88 5.02
89 20.9
90 3.7
96 5.9
97 0.34
98 1.9
99 55.6
100 4
113 0.17
116 2.2
126 2.8
128 89.6
129 0.85
130 1.9
131 13.1
144 1.5
155 0.12
156 1.7
187 0.8

>  <PREDICTED SPECTRUM>  (5968) 
27 20
29 138
30 38
31 3
33 94
38 22
39 304
40 116
41 731
42 474
43 499
44 321
45 400
46 92
47 38
51 55
52 107
53 248
54 241
55 632
56 446
57 735
58 243
59 360
60 228
61 148
65 40
66 126
67 255
68 273
69 582
70 411
71 337
72 318
73 231
74 167
79 19
80 132
81 83
82 230
83 212
84 338
85 161
86 616
87 356
88 122
94 51
95 61
96 346
97 291
98 412
99 271
100 239
101 346
102 133
110 158
111 79
112 213
113 175
114 149
115 39
116 21
126 303
127 67
128 999
129 295
130 485
131 379
132 46
140 63
142 180
143 11
144 16
145 118
155 77
156 142
172 27
187 215
188 56

$$$$

     RDKit          2D

 10  9  0  0  1  0  0  0  0  0999 V2000
   -1.6238    5.0625    0.0000 C   0  0  0  0  0  0  0  0  0  0  0  0
    2.2733    2.8125    0.0000 C   0  0  0  0  0  0  0  0  0  0  0  0
   -5.5209    2.8125    0.0000 C   0  0  0  0  0  0  0  0  0  0  0  0
   -1.6238    3.5625    0.0000 C   0  0  0  0  0  0  0  0  0  0  0  0
    0.9743    3.5625    0.0000 C   0  0  0  0  0  0  0  0  0  0  0  0
   -2.9228    2.8125    0.0000 C   0  0  0  0  0  0  0  0  0  0  0  0
   -0.3248    2.8125    0.0000 N   0  0  0  0  0  0  0  0  0  0  0  0
    0.9743    5.0625    0.0000 O   0  0  0  0  0  0  0  0  0  0  0  0
   -2.9228    1.3125    0.0000 O   0  0  0  0  0  0  0  0  0  0  0  0
   -4.2219    3.5625    0.0000 O   0  0  0  0  0  0  0  0  0  0  0  0
  4  1  1  1
  5  2  1  0
  6  4  1  0
  7  4  1  0
  7  5  2  3
  8  5  1  0
  9  6  2  0
 10  3  1  0
 10  6  1  0
M  END
>  <NAME>  (5969) 
N-ACETYL-ALANINE METHYLESTER

>  <SYNONYMS>  (5969) 


>  <SPECTRUM TYPE>  (5969) 
MS1

>  <INSTRUMENT TYPE>  (5969) 
EI-B

>  <INSTRUMENT>  (5969) 
HITACHI RMU-6M

>  <ION MODE>  (5969) 
P

>  <INCHIKEY>  (5969) 
FQGVVDYNRHNTCK-SCSAIBSYSA-N

>  <FORMULA>  (5969) 
C6H11NO3

>  <EXACT MASS>  (5969) 
145.07389321199997

>  <MW>  (5969) 
145

>  <ID>  (5969) 
JP000087

>  <CONTRIBUTOR>  (5969) 
University of Tokyo Team, {Faculty of Engineering, University of Tokyo

>  <COMMENT>  (5969) 
SMILES=COC(=O)C([H])(C)NC(C)=O
InChI=InChI=1S/C6H11NO3/c1-4(6(9)10-3)7-5(2)8/h4H,1-3H3,(H,7,8)/t4-/m1/s1
computed SMILES=O=C(OC)C(N=C(O)C)C
accession=JP000087
date=2016.01.19 (Created 2008.10.21, modified 2011.05.06)
author=YAMAMOTO M, DEP. CHEMISTRY, FAC. SCIENCE, NARA WOMEN'S UNIV.
license=CC BY-NC-SA
exact mass=145.07389
ionization energy=70 eV
ion type=[M]+*
computed spectral entropy=1.7314372123513309
computed normalized entropy=0.5601466943523151
SPLASH=splash10-0006-9000000000-df3a8de10fd3021cd5ec
submitter=submitter = University of Tokyo Team (Faculty of Engineering, University of Tokyo)
MoNA Rating=3.75

>  <NUM PEAKS>  (5969) 
22

>  <MASS SPECTRAL PEAKS>  (5969) 
14 1.5
15 26.3
26 1.3
27 0.35
28 10.2
29 2.3
30 1.1
31 0.2
33 1.7
41 1.9
42 11.2
43 2.88
44 99.99
45 2.3
55 1.2
59 0.21
70 1.2
86 11.2
87 1.6
88 0.39
102 1.4
145 2.8

>  <PREDICTED SPECTRUM>  (5969) 
14 11
15 66
16 1
26 54
27 177
28 107
29 211
30 190
31 163
32 37
33 157
37 43
38 124
39 487
40 257
41 701
42 564
43 999
44 345
45 679
46 172
51 44
52 199
53 271
54 288
55 419
56 312
57 272
58 426
59 715
60 192
65 87
66 20
67 48
68 370
69 393
70 433
71 357
72 260
73 182
74 205
82 121
83 14
84 109
85 73
86 612
87 290
88 193
89 50
96 85
97 0
98 261
99 231
100 366
101 117
102 11
112 172
113 296
114 282
115 80
128 59
130 325
131 50
145 273
146 45

$$$$

     RDKit          2D

  9  8  0  0  0  0  0  0  0  0999 V2000
    2.2733    2.8125    0.0000 C   0  0  0  0  0  0  0  0  0  0  0  0
   -5.5209    2.8125    0.0000 C   0  0  0  0  0  0  0  0  0  0  0  0
   -1.6238    3.5625    0.0000 C   0  0  0  0  0  0  0  0  0  0  0  0
    0.9743    3.5625    0.0000 C   0  0  0  0  0  0  0  0  0  0  0  0
   -2.9228    2.8125    0.0000 C   0  0  0  0  0  0  0  0  0  0  0  0
   -0.3248    2.8125    0.0000 N   0  0  0  0  0  0  0  0  0  0  0  0
    0.9743    5.0625    0.0000 O   0  0  0  0  0  0  0  0  0  0  0  0
   -2.9228    1.3125    0.0000 O   0  0  0  0  0  0  0  0  0  0  0  0
   -4.2219    3.5625    0.0000 O   0  0  0  0  0  0  0  0  0  0  0  0
  4  1  1  0
  5  3  1  0
  6  3  1  0
  6  4  2  3
  7  4  1  0
  8  5  2  0
  9  2  1  0
  9  5  1  0
M  END
>  <NAME>  (5970) 
N-ACETYL-GLYCINE METHYLESTER

>  <SYNONYMS>  (5970) 


>  <SPECTRUM TYPE>  (5970) 
MS1

>  <INSTRUMENT TYPE>  (5970) 
EI-B

>  <INSTRUMENT>  (5970) 
HITACHI RMU-6M

>  <ION MODE>  (5970) 
P

>  <INCHIKEY>  (5970) 
RFNODQARGNZURK-UHFFFAOYSA-N

>  <FORMULA>  (5970) 
C5H9NO3

>  <EXACT MASS>  (5970) 
131.05824314799997

>  <MW>  (5970) 
131

>  <ID>  (5970) 
JP000086

>  <CONTRIBUTOR>  (5970) 
University of Tokyo Team, {Faculty of Engineering, University of Tokyo

>  <COMMENT>  (5970) 
SMILES=COC(=O)CNC(C)=O
InChI=InChI=1S/C5H9NO3/c1-4(7)6-3-5(8)9-2/h3H2,1-2H3,(H,6,7)
computed SMILES=O=C(OC)CN=C(O)C
accession=JP000086
date=2016.01.19 (Created 2008.10.21, modified 2011.05.06)
author=YAMAMOTO M, DEP. CHEMISTRY, FAC. SCIENCE, NARA WOMEN'S UNIV.
license=CC BY-NC-SA
exact mass=131.05824
ionization energy=70 eV
ion type=[M]+*
computed spectral entropy=2.007704634862248
computed normalized entropy=0.6403152092140918
SPLASH=splash10-001i-9000000000-8eb79a1b4590896d6e2c
submitter=submitter = University of Tokyo Team (Faculty of Engineering, University of Tokyo)
MoNA Rating=3.75

>  <NUM PEAKS>  (5970) 
23

>  <MASS SPECTRAL PEAKS>  (5970) 
14 2.7
15 23.9
27 1.2
28 1.33
29 5.1
30 99.99
31 2
33 0.19
42 7.2
43 49.3
44 2.8
45 0.17
55 1.1
56 4.5
57 1.1
59 0.22
72 32.3
73 1.4
88 3
89 0.55
99 11.9
100 3.1
131 3.7

>  <PREDICTED SPECTRUM>  (5970) 
14 92
15 251
16 46
17 31
18 67
25 63
26 197
27 448
28 349
29 411
30 410
31 236
32 149
33 117
37 83
38 153
39 277
40 328
41 907
42 936
43 849
44 436
45 913
46 298
47 8
48 18
52 119
53 144
54 382
55 376
56 371
57 310
58 612
59 530
60 373
61 98
68 104
69 132
70 257
71 462
72 999
73 431
74 372
83 59
84 43
85 337
86 656
87 287
88 74
89 98
98 47
99 451
100 428
101 220
102 26
103 21
104 0
114 44
116 26
131 685
132 171
133 4

$$$$

     RDKit          2D

  8  8  0  0  0  0  0  0  0  0999 V2000
   -2.5989   -1.5002    0.0000 C   0  0  0  0  0  0  0  0  0  0  0  0
   -1.3000    0.7500    0.0000 C   0  0  0  0  0  0  0  0  0  0  0  0
   -0.0000   -1.5000    0.0000 C   0  0  0  0  0  0  0  0  0  0  0  0
    0.0000    1.5000    0.0000 C   0  0  0  0  0  0  0  0  0  0  0  0
    1.3000   -0.7500    0.0000 C   0  0  0  0  0  0  0  0  0  0  0  0
   -1.3000   -0.7500    0.0000 C   0  0  0  0  0  0  0  0  0  0  0  0
    1.3000    0.7500    0.0000 C   0  0  0  0  0  0  0  0  0  0  0  0
    2.5989    1.5002    0.0000 I   0  0  0  0  0  0  0  0  0  0  0  0
  4  2  2  0
  5  3  1  0
  6  1  1  0
  6  2  1  0
  6  3  2  0
  7  4  1  0
  7  5  2  0
  8  7  1  0
M  END
>  <NAME>  (5971) 
PARA IODOTOLUENE

>  <SYNONYMS>  (5971) 


>  <SPECTRUM TYPE>  (5971) 
MS1

>  <INSTRUMENT TYPE>  (5971) 
EI-B

>  <INSTRUMENT>  (5971) 
HITACHI RMU-7M

>  <ION MODE>  (5971) 
P

>  <INCHIKEY>  (5971) 
UDHAWRUAECEBHC-UHFFFAOYSA-N

>  <FORMULA>  (5971) 
C7H7I

>  <EXACT MASS>  (5971) 
217.959248224

>  <MW>  (5971) 
218

>  <ID>  (5971) 
JP000085

>  <CONTRIBUTOR>  (5971) 
University of Tokyo Team, {Faculty of Engineering, University of Tokyo

>  <COMMENT>  (5971) 
SMILES=Cc(c1)ccc(I)c1
InChI=InChI=1S/C7H7I/c1-6-2-4-7(8)5-3-6/h2-5H,1H3
computed SMILES=IC1=CC=C(C=C1)C
accession=JP000085
date=2016.01.19 (Created 2008.10.21, modified 2011.05.06)
author=TAJIMA S, GUNMA COLLEGE OF TECHNOLOGY
license=CC BY-NC-SA
exact mass=217.95924
ionization energy=70 eV
ion type=[M]+*
computed spectral entropy=1.9383632331739922
computed normalized entropy=0.6470415431598006
SPLASH=splash10-014i-9070000000-e91849950bd42b3b6eae
submitter=submitter = University of Tokyo Team (Faculty of Engineering, University of Tokyo)
MoNA Rating=3.75

>  <NUM PEAKS>  (5971) 
20

>  <MASS SPECTRAL PEAKS>  (5971) 
38 1.56
39 8.2
41 1.46
50 4.39
51 3.41
61 1.02
62 2.93
63 7.8
64 2.2
65 24.39
74 1.07
89 7.32
90 4.88
91 55.61
92 4
127 0.83
128 0.49
217 2.44
218 99.99
219 7.32

>  <PREDICTED SPECTRUM>  (5971) 
14 36
15 67
17 7
18 31
25 51
26 131
27 116
28 56
29 88
31 68
32 45
36 71
37 202
38 278
39 420
40 102
41 99
45 7
49 132
50 371
51 436
52 152
53 111
57 5
60 24
61 242
62 312
63 495
64 331
65 270
66 61
73 198
74 265
75 186
76 153
77 224
78 53
86 163
87 83
88 55
89 382
90 460
91 669
92 205
127 257
218 999
219 276
220 78

$$$$

     RDKit          2D

  8  8  0  0  0  0  0  0  0  0999 V2000
    2.5989    1.5002    0.0000 C   0  0  0  0  0  0  0  0  0  0  0  0
   -1.3000    0.7500    0.0000 C   0  0  0  0  0  0  0  0  0  0  0  0
    0.0000    1.5000    0.0000 C   0  0  0  0  0  0  0  0  0  0  0  0
   -1.3000   -0.7500    0.0000 C   0  0  0  0  0  0  0  0  0  0  0  0
    1.3000   -0.7500    0.0000 C   0  0  0  0  0  0  0  0  0  0  0  0
    1.3000    0.7500    0.0000 C   0  0  0  0  0  0  0  0  0  0  0  0
   -0.0000   -1.5000    0.0000 C   0  0  0  0  0  0  0  0  0  0  0  0
   -0.0000   -3.0000    0.0000 I   0  0  0  0  0  0  0  0  0  0  0  0
  3  2  2  0
  4  2  1  0
  6  1  1  0
  6  3  1  0
  6  5  2  0
  7  4  2  0
  7  5  1  0
  8  7  1  0
M  END
>  <NAME>  (5972) 
META IODOTOLUENE

>  <SYNONYMS>  (5972) 


>  <SPECTRUM TYPE>  (5972) 
MS1

>  <INSTRUMENT TYPE>  (5972) 
EI-B

>  <INSTRUMENT>  (5972) 
HITACHI RMU-7M

>  <ION MODE>  (5972) 
P

>  <INCHIKEY>  (5972) 
VLCPISYURGTGLP-UHFFFAOYSA-N

>  <FORMULA>  (5972) 
C7H7I

>  <EXACT MASS>  (5972) 
217.959248224

>  <MW>  (5972) 
218

>  <ID>  (5972) 
JP000084

>  <CONTRIBUTOR>  (5972) 
University of Tokyo Team, {Faculty of Engineering, University of Tokyo

>  <COMMENT>  (5972) 
SMILES=Cc(c1)cc(I)cc1
InChI=InChI=1S/C7H7I/c1-6-3-2-4-7(8)5-6/h2-5H,1H3
computed SMILES=IC1=CC=CC(=C1)C
accession=JP000084
date=2016.01.19 (Created 2008.10.21, modified 2011.05.06)
author=TAJIMA S, GUNMA COLLEGE OF TECHNOLOGY
license=CC BY-NC-SA
exact mass=217.95924
ionization energy=70 eV
ion type=[M]+*
computed spectral entropy=1.8894670771126079
computed normalized entropy=0.6307196052840317
SPLASH=splash10-014l-9050000000-9e67938a8ff79b4f7645
submitter=submitter = University of Tokyo Team (Faculty of Engineering, University of Tokyo)
MoNA Rating=3.75

>  <NUM PEAKS>  (5972) 
20

>  <MASS SPECTRAL PEAKS>  (5972) 
38 1.48
39 9.48
41 2.37
50 4.09
51 3.55
61 0.95
62 2.96
63 8.23
64 2.13
65 37.56
66 1.66
89 7.7
90 4.98
91 96.74
92 6.99
127 1.13
128 0.71
217 0.71
218 99.99
219 7.23

>  <PREDICTED SPECTRUM>  (5972) 
14 13
15 23
25 41
26 124
27 150
28 37
29 70
31 3
32 33
36 67
37 174
38 244
39 421
40 116
41 98
44 16
49 145
50 410
51 459
52 213
53 132
57 27
61 273
62 325
63 443
64 289
65 229
66 18
72 23
73 171
74 281
75 285
76 259
77 370
78 136
80 11
83 167
84 125
85 30
86 237
87 157
88 57
89 428
90 414
91 976
92 288
100 29
127 187
218 999
219 286
220 80

$$$$

     RDKit          2D

  8  8  0  0  0  0  0  0  0  0999 V2000
   -0.0000   -3.0000    0.0000 C   0  0  0  0  0  0  0  0  0  0  0  0
   -1.3000    0.7500    0.0000 C   0  0  0  0  0  0  0  0  0  0  0  0
    0.0000    1.5000    0.0000 C   0  0  0  0  0  0  0  0  0  0  0  0
   -1.3000   -0.7500    0.0000 C   0  0  0  0  0  0  0  0  0  0  0  0
    1.3000    0.7500    0.0000 C   0  0  0  0  0  0  0  0  0  0  0  0
    0.0000   -1.5000    0.0000 C   0  0  0  0  0  0  0  0  0  0  0  0
    1.3000   -0.7500    0.0000 C   0  0  0  0  0  0  0  0  0  0  0  0
    2.5989   -1.5002    0.0000 I   0  0  0  0  0  0  0  0  0  0  0  0
  3  2  2  0
  4  2  1  0
  5  3  1  0
  6  1  1  0
  6  4  2  0
  7  5  2  0
  7  6  1  0
  8  7  1  0
M  END
>  <NAME>  (5973) 
ORTHO IODOTOLUENE

>  <SYNONYMS>  (5973) 


>  <SPECTRUM TYPE>  (5973) 
MS1

>  <INSTRUMENT TYPE>  (5973) 
EI-B

>  <INSTRUMENT>  (5973) 
HITACHI RMU-7M

>  <ION MODE>  (5973) 
P

>  <INCHIKEY>  (5973) 
RINOYHWVBUKAQE-UHFFFAOYSA-N

>  <FORMULA>  (5973) 
C7H7I

>  <EXACT MASS>  (5973) 
217.959248224

>  <MW>  (5973) 
218

>  <ID>  (5973) 
JP000083

>  <CONTRIBUTOR>  (5973) 
University of Tokyo Team, {Faculty of Engineering, University of Tokyo

>  <COMMENT>  (5973) 
SMILES=Cc(c1)c(I)ccc1
InChI=InChI=1S/C7H7I/c1-6-4-2-3-5-7(6)8/h2-5H,1H3
computed SMILES=IC=1C=CC=CC1C
accession=JP000083
date=2016.01.19 (Created 2008.10.21, modified 2011.05.06)
author=TAJIMA S, GUNMA COLLEGE OF TECHNOLOGY
license=CC BY-NC-SA
exact mass=217.95924
ionization energy=70 eV
ion type=[M]+*
computed spectral entropy=2.2646782756206743
computed normalized entropy=0.7035618640906731
SPLASH=splash10-014l-9030000000-ba38ec16da1121a0e3e3
submitter=submitter = University of Tokyo Team (Faculty of Engineering, University of Tokyo)
MoNA Rating=3.75

>  <NUM PEAKS>  (5973) 
25

>  <MASS SPECTRAL PEAKS>  (5973) 
27 1.26
37 1.68
38 3.78
39 16.78
40 1.26
41 2.43
50 6.04
51 6.63
52 1.68
61 2.1
62 6.29
63 15.44
64 4.19
65 38
66 1.68
74 1.26
89 14.43
90 12.67
91 99.99
92 7.21
127 4.11
128 1.26
217 0.76
218 85.57
219 6.29

>  <PREDICTED SPECTRUM>  (5973) 
14 14
15 11
25 50
26 124
27 140
28 43
29 59
32 14
36 73
37 205
38 299
39 433
40 130
41 160
42 6
43 3
44 34
49 161
50 451
51 545
52 282
53 210
54 30
55 66
57 100
60 30
61 230
62 338
63 533
64 349
65 209
66 39
67 22
71 8
72 17
73 160
74 232
75 211
76 177
77 371
78 195
80 0
83 136
85 182
86 222
87 129
88 63
89 565
90 503
91 999
92 277
99 16
127 375
128 118
217 20
218 921
219 248
220 62

$$$$

     RDKit          2D

 12 12  0  0  0  0  0  0  0  0999 V2000
   -1.6208    0.2024    0.0000 C   0  0  0  0  0  0  0  0  0  0  0  0
   -0.3175   -0.5401    0.0000 C   0  0  0  0  0  0  0  0  0  0  0  0
    4.8465    2.4650    0.0000 C   0  0  0  0  0  0  0  0  0  0  0  0
    6.1294    1.7372    0.0000 C   0  0  0  0  0  0  0  0  0  0  0  0
    3.5694    1.7126    0.0000 C   0  0  0  0  0  0  0  0  0  0  0  0
    6.1656    0.2376    0.0000 C   0  0  0  0  0  0  0  0  0  0  0  0
    3.5753    0.2324    0.0000 C   0  0  0  0  0  0  0  0  0  0  0  0
    4.8581   -0.4953    0.0000 C   0  0  0  0  0  0  0  0  0  0  0  0
    2.2806   -0.5251    0.0000 C   0  0  0  0  0  0  0  0  0  0  0  0
    4.8544   -1.9953    0.0000 N   0  0  0  0  0  0  0  0  0  0  0  0
    2.2892   -2.0250    0.0000 O   0  0  0  0  0  0  0  0  0  0  0  0
    0.9772    0.2174    0.0000 O   0  0  0  0  0  0  0  0  0  0  0  0
  2  1  1  0
  4  3  2  0
  5  3  1  0
  6  4  1  0
  7  5  2  0
  8  6  2  0
  8  7  1  0
  9  7  1  0
 10  8  1  0
 11  9  2  0
 12  2  1  0
 12  9  1  0
M  END
>  <NAME>  (5974) 
ANTHRANILIC ACID ETHYL ESTER

>  <SYNONYMS>  (5974) 
ETHYL ORTHO AMINO BENZOATE

>  <SPECTRUM TYPE>  (5974) 
MS1

>  <INSTRUMENT TYPE>  (5974) 
EI-B

>  <INSTRUMENT>  (5974) 
HITACHI RMU-7M

>  <ION MODE>  (5974) 
P

>  <INCHIKEY>  (5974) 
TWLLPUMZVVGILS-UHFFFAOYSA-N

>  <FORMULA>  (5974) 
C9H11NO2

>  <EXACT MASS>  (5974) 
165.078978592

>  <MW>  (5974) 
165

>  <ID>  (5974) 
JP000081

>  <CONTRIBUTOR>  (5974) 
University of Tokyo Team, {Faculty of Engineering, University of Tokyo

>  <COMMENT>  (5974) 
SMILES=CCOC(=O)c(c1)c(N)ccc1
InChI=InChI=1S/C9H11NO2/c1-2-12-9(11)7-5-3-4-6-8(7)10/h3-6H,2,10H2,1H3
computed SMILES=O=C(OCC)C=1C=CC=CC1N
exact mass=165.07898
accession=JP000081
date=2016.01.19 (Created 2008.10.21, modified 2011.05.06)
author=TAJIMA S, GUNMA COLLEGE OF TECHNOLOGY
license=CC BY-NC-SA
ionization energy=70 eV
ion type=[M]+*
computed spectral entropy=2.1740857272908554
computed normalized entropy=0.7257276447843671
SPLASH=splash10-014i-5900000000-93092db3cfda9502465f
submitter=submitter = University of Tokyo Team (Faculty of Engineering, University of Tokyo)
MoNA Rating=3.75

>  <NUM PEAKS>  (5974) 
20

>  <MASS SPECTRAL PEAKS>  (5974) 
27 2.1
29 1.68
38 1.26
39 7.49
41 1.68
52 2.31
63 4.55
64 6.79
65 25.21
66 3.15
90 1.33
91 6.44
92 50.42
93 7.21
119 99.99
120 38.52
121 3.36
137 5.81
165 36.55
166 3.36

>  <PREDICTED SPECTRUM>  (5974) 
14 14
15 86
16 37
17 33
18 42
19 5
25 22
26 91
27 174
28 174
29 298
30 64
31 72
36 58
37 161
38 218
39 403
40 161
41 213
42 46
43 96
44 73
45 32
46 54
49 29
50 157
51 239
52 280
53 232
54 88
55 87
61 59
62 215
63 407
64 424
65 633
66 242
67 73
73 117
74 134
75 110
76 74
77 158
78 35
79 85
80 46
84 2
89 2
90 361
91 669
92 776
93 327
107 14
118 56
119 999
120 725
121 257
136 16
137 36
165 751
166 283
167 49

$$$$

     RDKit          2D

 11 11  0  0  0  0  0  0  0  0999 V2000
    4.8632    0.9310    0.0000 C   0  0  0  0  0  0  0  0  0  0  0  0
   -0.3008   -2.0740    0.0000 C   0  0  0  0  0  0  0  0  0  0  0  0
   -1.5837   -1.3463    0.0000 C   0  0  0  0  0  0  0  0  0  0  0  0
    0.9763   -1.3216    0.0000 C   0  0  0  0  0  0  0  0  0  0  0  0
   -1.6199    0.1533    0.0000 C   0  0  0  0  0  0  0  0  0  0  0  0
    0.9704    0.1585    0.0000 C   0  0  0  0  0  0  0  0  0  0  0  0
   -0.3124    0.8862    0.0000 C   0  0  0  0  0  0  0  0  0  0  0  0
    2.2651    0.9160    0.0000 C   0  0  0  0  0  0  0  0  0  0  0  0
   -0.3087    2.3862    0.0000 N   0  0  0  0  0  0  0  0  0  0  0  0
    2.2565    2.4160    0.0000 O   0  0  0  0  0  0  0  0  0  0  0  0
    3.5685    0.1735    0.0000 O   0  0  0  0  0  0  0  0  0  0  0  0
  3  2  2  0
  4  2  1  0
  5  3  1  0
  6  4  2  0
  7  5  2  0
  7  6  1  0
  8  6  1  0
  9  7  1  0
 10  8  2  0
 11  1  1  0
 11  8  1  0
M  END
>  <NAME>  (5975) 
ANTHRANILIC ACID METHYL ESTER

>  <SYNONYMS>  (5975) 
METHYL ORTHO AMINO BENZOATE

>  <SPECTRUM TYPE>  (5975) 
MS1

>  <INSTRUMENT TYPE>  (5975) 
EI-B

>  <INSTRUMENT>  (5975) 
HITACHI RMU-7M

>  <ION MODE>  (5975) 
P

>  <INCHIKEY>  (5975) 
VAMXMNNIEUEQDV-UHFFFAOYSA-N

>  <FORMULA>  (5975) 
C8H9NO2

>  <EXACT MASS>  (5975) 
151.063328528

>  <MW>  (5975) 
151

>  <ID>  (5975) 
JP000079

>  <CONTRIBUTOR>  (5975) 
University of Tokyo Team, {Faculty of Engineering, University of Tokyo

>  <COMMENT>  (5975) 
SMILES=COC(=O)c(c1)c(N)ccc1
InChI=InChI=1S/C8H9NO2/c1-11-8(10)6-4-2-3-5-7(6)9/h2-5H,9H2,1H3
computed SMILES=O=C(OC)C=1C=CC=CC1N
accession=JP000079
date=2016.01.19 (Created 2008.10.21, modified 2011.05.06)
author=TAJIMA S, GUNMA COLLEGE OF TECHNOLOGY
license=CC BY-NC-SA
exact mass=151.06333
ionization energy=70 eV
ion type=[M]+*
computed spectral entropy=2.3981067913598944
computed normalized entropy=0.7545834398586446
SPLASH=splash10-014l-9700000000-dfe3727f600ad4c1a3fc
submitter=submitter = University of Tokyo Team (Faculty of Engineering, University of Tokyo)
MoNA Rating=3.75

>  <NUM PEAKS>  (5975) 
24

>  <MASS SPECTRAL PEAKS>  (5975) 
27 1.41
29 2.25
37 1.48
38 4.78
39 16.53
40 3.52
41 5.27
50 2.04
51 2.11
52 6.68
62 2.67
63 9.99
64 13.36
65 39.94
66 4.99
90 3.09
91 10.62
92 75.25
93 6.4
119 99.99
120 29.4
121 2.25
151 41.21
152 3.66

>  <PREDICTED SPECTRUM>  (5975) 
15 35
16 14
25 10
26 46
27 76
28 79
29 85
31 16
32 16
37 119
38 215
39 335
40 118
41 263
42 33
44 55
49 26
50 216
51 288
52 262
53 207
54 52
59 7
61 103
62 165
63 399
64 398
65 576
66 229
67 58
74 78
75 73
76 4
77 157
78 96
79 44
90 315
91 395
92 709
93 297
94 30
106 75
107 7
118 197
119 824
120 796
121 198
122 103
151 999
152 309
153 51

$$$$

     RDKit          2D

 14 14  0  0  0  0  0  0  0  0999 V2000
   -3.8922    3.7647    0.0000 C   0  0  0  0  0  0  0  0  0  0  0  0
   -2.6043    1.5084    0.0000 C   0  0  0  0  0  0  0  0  0  0  0  0
    3.8982    3.7328    0.0000 C   0  0  0  0  0  0  0  0  0  0  0  0
    2.5847    1.5079    0.0000 C   0  0  0  0  0  0  0  0  0  0  0  0
    5.1827    3.0079    0.0000 C   0  0  0  0  0  0  0  0  0  0  0  0
    3.9092    0.7138    0.0000 C   0  0  0  0  0  0  0  0  0  0  0  0
   -1.2942    3.7519    0.0000 C   0  0  0  0  0  0  0  0  0  0  0  0
   -2.5969    3.0083    0.0000 C   0  0  0  0  0  0  0  0  0  0  0  0
    2.5992    2.9828    0.0000 C   0  0  0  0  0  0  0  0  0  0  0  0
    5.2082    1.4638    0.0000 C   0  0  0  0  0  0  0  0  0  0  0  0
    1.3039    3.7391    0.0000 C   0  0  0  0  0  0  0  0  0  0  0  0
    6.5134    0.7245    0.0000 O   0  0  0  0  0  0  0  0  0  0  0  0
    1.3112    5.2391    0.0000 O   0  0  0  0  0  0  0  0  0  0  0  0
    0.0011    2.9956    0.0000 O   0  0  0  0  0  0  0  0  0  0  0  0
  5  3  2  0
  6  4  1  0
  8  1  1  0
  8  2  1  0
  8  7  1  0
  9  3  1  0
  9  4  2  0
 10  5  1  0
 10  6  2  0
 11  9  1  0
 12 10  1  0
 13 11  2  0
 14  7  1  0
 14 11  1  0
M  END
>  <NAME>  (5976) 
ISOBUTYL PARA HYDROXY BENZOATE

>  <SYNONYMS>  (5976) 


>  <SPECTRUM TYPE>  (5976) 
MS1

>  <INSTRUMENT TYPE>  (5976) 
EI-B

>  <INSTRUMENT>  (5976) 
HITACHI RMU-7M

>  <ION MODE>  (5976) 
P

>  <INCHIKEY>  (5976) 
XPJVKCRENWUEJH-UHFFFAOYSA-N

>  <FORMULA>  (5976) 
C11H14O3

>  <EXACT MASS>  (5976) 
194.094294308

>  <MW>  (5976) 
194

>  <ID>  (5976) 
JP000077

>  <CONTRIBUTOR>  (5976) 
University of Tokyo Team, {Faculty of Engineering, University of Tokyo

>  <COMMENT>  (5976) 
SMILES=CC(C)COC(=O)c(c1)ccc(O)c1
InChI=InChI=1S/C11H14O3/c1-8(2)7-14-11(13)9-3-5-10(12)6-4-9/h3-6,8,12H,7H2,1-2H3
computed SMILES=O=C(OCC(C)C)C1=CC=C(O)C=C1
accession=JP000077
date=2016.01.19 (Created 2008.10.21, modified 2011.05.06)
author=TAJIMA S, GUNMA COLLEGE OF TECHNOLOGY
license=CC BY-NC-SA
exact mass=194.09429
ionization energy=70 eV
ion type=[M]+*
computed spectral entropy=2.0993724146057904
computed normalized entropy=0.7007877283089777
SPLASH=splash10-00dr-4900000000-3d0134adeb830e265010
submitter=submitter = University of Tokyo Team (Faculty of Engineering, University of Tokyo)
MoNA Rating=3.75

>  <NUM PEAKS>  (5976) 
20

>  <MASS SPECTRAL PEAKS>  (5976) 
27 4.78
29 3.18
39 12.74
41 6.37
43 3.34
59 3.03
63 3.03
64 2.39
65 19.03
66 2.39
92 1.75
93 19.51
94 3.9
95 1.43
120 1.27
121 99.99
122 9.87
123 1.27
138 48.01
139 6.85

>  <PREDICTED SPECTRUM>  (5976) 
14 9
15 13
26 49
27 163
28 39
29 270
37 47
38 105
39 267
40 80
41 291
42 75
43 73
49 28
50 105
51 72
52 36
53 141
54 9
55 105
56 286
57 122
62 80
63 166
64 154
65 411
66 120
67 17
73 39
74 40
75 76
76 112
77 53
79 28
81 56
82 21
91 33
92 112
93 441
94 134
95 134
96 3
103 23
104 47
105 11
111 46
120 6
121 999
122 336
123 37
137 75
138 797
139 398
140 39
151 51
152 62
194 227
195 76

$$$$

     RDKit          2D

 13 13  0  0  0  0  0  0  0  0999 V2000
   -2.9355    2.4474    0.0000 C   0  0  0  0  0  0  0  0  0  0  0  0
   -1.6254    4.6910    0.0000 C   0  0  0  0  0  0  0  0  0  0  0  0
    3.5596    3.1719    0.0000 C   0  0  0  0  0  0  0  0  0  0  0  0
    2.2461    0.9470    0.0000 C   0  0  0  0  0  0  0  0  0  0  0  0
    4.8441    2.4470    0.0000 C   0  0  0  0  0  0  0  0  0  0  0  0
    3.5706    0.1529    0.0000 C   0  0  0  0  0  0  0  0  0  0  0  0
   -1.6328    3.1910    0.0000 C   0  0  0  0  0  0  0  0  0  0  0  0
    2.2606    2.4219    0.0000 C   0  0  0  0  0  0  0  0  0  0  0  0
    4.8696    0.9029    0.0000 C   0  0  0  0  0  0  0  0  0  0  0  0
    0.9653    3.1783    0.0000 C   0  0  0  0  0  0  0  0  0  0  0  0
    6.1748    0.1636    0.0000 O   0  0  0  0  0  0  0  0  0  0  0  0
    0.9726    4.6782    0.0000 O   0  0  0  0  0  0  0  0  0  0  0  0
   -0.3375    2.4347    0.0000 O   0  0  0  0  0  0  0  0  0  0  0  0
  5  3  2  0
  6  4  1  0
  7  1  1  0
  7  2  1  0
  8  3  1  0
  8  4  2  0
  9  5  1  0
  9  6  2  0
 10  8  1  0
 11  9  1  0
 12 10  2  0
 13  7  1  0
 13 10  1  0
M  END
>  <NAME>  (5977) 
ISOPROPYL PARA HYDROXY BENZOATE

>  <SYNONYMS>  (5977) 


>  <SPECTRUM TYPE>  (5977) 
MS1

>  <INSTRUMENT TYPE>  (5977) 
EI-B

>  <INSTRUMENT>  (5977) 
HITACHI RMU-7M

>  <ION MODE>  (5977) 
P

>  <INCHIKEY>  (5977) 
CMHMMKSPYOOVGI-UHFFFAOYSA-N

>  <FORMULA>  (5977) 
C10H12O3

>  <EXACT MASS>  (5977) 
180.078644244

>  <MW>  (5977) 
180

>  <ID>  (5977) 
JP000073

>  <CONTRIBUTOR>  (5977) 
University of Tokyo Team, {Faculty of Engineering, University of Tokyo

>  <COMMENT>  (5977) 
SMILES=CC(C)OC(=O)c(c1)ccc(O)c1
InChI=InChI=1S/C10H12O3/c1-7(2)13-10(12)8-3-5-9(11)6-4-8/h3-7,11H,1-2H3
computed SMILES=O=C(OC(C)C)C1=CC=C(O)C=C1
accession=JP000073
date=2016.01.19 (Created 2008.10.21, modified 2011.05.06)
author=TAJIMA S, GUNMA COLLEGE OF TECHNOLOGY
license=CC BY-NC-SA
exact mass=180.07864
ionization energy=70 eV
ion type=[M]+*
computed spectral entropy=2.0596122943723634
computed normalized entropy=0.6875154741144274
SPLASH=splash10-00di-2900000000-2be2a5dce82fa940202d
submitter=submitter = University of Tokyo Team (Faculty of Engineering, University of Tokyo)
MoNA Rating=3.75

>  <NUM PEAKS>  (5977) 
20

>  <MASS SPECTRAL PEAKS>  (5977) 
39 2.11
41 5.09
42 2.4
43 9.38
59 18.55
65 5.82
66 1.31
70 1.16
71 1.24
93 9.38
94 3.05
95 1.38
121 99.99
122 16.15
123 1.45
138 53.24
139 5.16
165 5.67
180 8.8
181 1.67

>  <PREDICTED SPECTRUM>  (5977) 
14 29
15 68
16 9
17 2
25 15
26 84
27 234
28 32
29 159
31 29
37 59
38 140
39 336
40 111
41 347
42 182
43 328
44 20
45 46
46 30
49 30
50 171
51 117
52 60
53 195
54 26
58 32
59 237
60 34
61 11
62 87
63 221
64 179
65 498
66 151
67 37
68 24
73 40
74 155
75 118
76 171
77 103
81 144
82 78
83 44
91 39
92 205
93 347
94 148
95 139
101 74
103 61
104 42
105 31
108 25
109 21
110 16
120 6
121 954
122 343
123 324
124 25
137 57
138 999
139 295
140 105
165 113
166 2
180 329
181 99

$$$$

     RDKit          2D

 13 13  0  0  0  0  0  0  0  0999 V2000
   -3.8978    3.7551    0.0000 C   0  0  0  0  0  0  0  0  0  0  0  0
   -2.6024    2.9987    0.0000 C   0  0  0  0  0  0  0  0  0  0  0  0
    3.8927    3.7232    0.0000 C   0  0  0  0  0  0  0  0  0  0  0  0
    2.5791    1.4983    0.0000 C   0  0  0  0  0  0  0  0  0  0  0  0
    5.1772    2.9983    0.0000 C   0  0  0  0  0  0  0  0  0  0  0  0
    3.9037    0.7042    0.0000 C   0  0  0  0  0  0  0  0  0  0  0  0
   -1.2997    3.7423    0.0000 C   0  0  0  0  0  0  0  0  0  0  0  0
    2.5937    2.9732    0.0000 C   0  0  0  0  0  0  0  0  0  0  0  0
    5.2027    1.4542    0.0000 C   0  0  0  0  0  0  0  0  0  0  0  0
    1.2983    3.7296    0.0000 C   0  0  0  0  0  0  0  0  0  0  0  0
    6.5079    0.7149    0.0000 O   0  0  0  0  0  0  0  0  0  0  0  0
    1.3057    5.2295    0.0000 O   0  0  0  0  0  0  0  0  0  0  0  0
   -0.0044    2.9860    0.0000 O   0  0  0  0  0  0  0  0  0  0  0  0
  2  1  1  0
  5  3  2  0
  6  4  1  0
  7  2  1  0
  8  3  1  0
  8  4  2  0
  9  5  1  0
  9  6  2  0
 10  8  1  0
 11  9  1  0
 12 10  2  0
 13  7  1  0
 13 10  1  0
M  END
>  <NAME>  (5978) 
PROPYL PARA HYDROXY BENZOATE

>  <SYNONYMS>  (5978) 


>  <SPECTRUM TYPE>  (5978) 
MS1

>  <INSTRUMENT TYPE>  (5978) 
EI-B

>  <INSTRUMENT>  (5978) 
HITACHI RMU-7M

>  <ION MODE>  (5978) 
P

>  <INCHIKEY>  (5978) 
QELSKZZBTMNZEB-UHFFFAOYSA-N

>  <FORMULA>  (5978) 
C10H12O3

>  <EXACT MASS>  (5978) 
180.07864424399997

>  <MW>  (5978) 
180

>  <ID>  (5978) 
JP000071

>  <CONTRIBUTOR>  (5978) 
University of Tokyo Team, {Faculty of Engineering, University of Tokyo

>  <COMMENT>  (5978) 
SMILES=CCCOC(=O)c(c1)ccc(O)c1
InChI=InChI=1S/C10H12O3/c1-2-7-13-10(12)8-3-5-9(11)6-4-8/h3-6,11H,2,7H2,1H3
computed SMILES=O=C(OCCC)C1=CC=C(O)C=C1
accession=JP000071
date=2016.01.19 (Created 2008.10.21, modified 2011.05.06)
author=TAJIMA S, GUNMA COLLEGE OF TECHNOLOGY
license=CC BY-NC-SA
exact mass=180.07864
ionization energy=70 eV
ion type=[M]+*
computed spectral entropy=1.8083252628260116
computed normalized entropy=0.603633802255868
SPLASH=splash10-00dr-2900000000-5ad831b2650fc930116c
submitter=submitter = University of Tokyo Team (Faculty of Engineering, University of Tokyo)
MoNA Rating=3.75

>  <NUM PEAKS>  (5978) 
20

>  <MASS SPECTRAL PEAKS>  (5978) 
27 1.74
29 1.09
39 7.11
41 1.74
43 1.09
53 1.09
63 1.81
64 1.45
65 12.55
67 1.09
92 1.02
93 13.57
94 1.45
120 2.83
121 99.99
122 8.42
138 53.27
139 5.08
180 3.41
181 0.65

>  <PREDICTED SPECTRUM>  (5978) 
14 29
15 51
16 9
18 2
25 25
26 109
27 313
28 109
29 271
31 91
37 46
38 141
39 342
40 86
41 232
42 131
43 142
49 28
50 166
51 119
52 33
53 185
54 19
59 158
60 60
61 55
62 114
63 242
64 192
65 559
66 184
67 23
74 174
75 87
76 181
77 53
81 123
82 11
91 96
92 210
93 439
94 161
95 114
101 10
103 48
104 52
109 44
111 8
121 999
122 333
123 195
124 0
137 51
138 963
139 353
140 110
151 45
165 26
180 295
181 84

$$$$

     RDKit          2D

 11 11  0  0  0  0  0  0  0  0999 V2000
   -3.2538    2.6270    0.0000 C   0  0  0  0  0  0  0  0  0  0  0  0
    1.9386    2.6078    0.0000 C   0  0  0  0  0  0  0  0  0  0  0  0
    0.6251    0.3829    0.0000 C   0  0  0  0  0  0  0  0  0  0  0  0
    3.2231    1.8829    0.0000 C   0  0  0  0  0  0  0  0  0  0  0  0
    1.9496   -0.4112    0.0000 C   0  0  0  0  0  0  0  0  0  0  0  0
    0.6396    1.8578    0.0000 C   0  0  0  0  0  0  0  0  0  0  0  0
    3.2486    0.3388    0.0000 C   0  0  0  0  0  0  0  0  0  0  0  0
   -0.6558    2.6142    0.0000 C   0  0  0  0  0  0  0  0  0  0  0  0
    4.5538   -0.4005    0.0000 O   0  0  0  0  0  0  0  0  0  0  0  0
   -0.6484    4.1141    0.0000 O   0  0  0  0  0  0  0  0  0  0  0  0
   -1.9585    1.8706    0.0000 O   0  0  0  0  0  0  0  0  0  0  0  0
  4  2  2  0
  5  3  1  0
  6  2  1  0
  6  3  2  0
  7  4  1  0
  7  5  2  0
  8  6  1  0
  9  7  1  0
 10  8  2  0
 11  1  1  0
 11  8  1  0
M  END
>  <NAME>  (5979) 
METHYL PARA HYDROXY BENZOATE

>  <SYNONYMS>  (5979) 


>  <SPECTRUM TYPE>  (5979) 
MS1

>  <INSTRUMENT TYPE>  (5979) 
EI-B

>  <INSTRUMENT>  (5979) 
HITACHI RMU-7M

>  <ION MODE>  (5979) 
P

>  <INCHIKEY>  (5979) 
LXCFILQKKLGQFO-UHFFFAOYSA-N

>  <FORMULA>  (5979) 
C8H8O3

>  <EXACT MASS>  (5979) 
152.04734411599998

>  <MW>  (5979) 
152

>  <ID>  (5979) 
JP000067

>  <CONTRIBUTOR>  (5979) 
University of Tokyo Team, {Faculty of Engineering, University of Tokyo

>  <COMMENT>  (5979) 
SMILES=COC(=O)c(c1)ccc(O)c1
InChI=InChI=1S/C8H8O3/c1-11-8(10)6-2-4-7(9)5-3-6/h2-5,9H,1H3
computed SMILES=O=C(OC)C1=CC=C(O)C=C1
accession=JP000067
date=2016.01.19 (Created 2008.10.21, modified 2011.05.06)
author=TAJIMA S, GUNMA COLLEGE OF TECHNOLOGY
license=CC BY-NC-SA
exact mass=152.04734
ionization energy=70 eV
ion type=[M]+*
computed spectral entropy=1.7977397970882787
computed normalized entropy=0.6345232704977011
SPLASH=splash10-00di-4900000000-5aa5692082b66b714b5d
submitter=submitter = University of Tokyo Team (Faculty of Engineering, University of Tokyo)
MoNA Rating=3.75

>  <NUM PEAKS>  (5979) 
17

>  <MASS SPECTRAL PEAKS>  (5979) 
15 2.4
38 1.55
39 9.82
53 1.55
63 2.69
64 1.7
65 16.25
66 1.13
77 1.2
92 1.2
93 26.08
94 1.77
121 99.99
122 8.34
151 1.55
152 31.38
153 2.61

>  <PREDICTED SPECTRUM>  (5979) 
14 29
15 105
16 19
17 4
25 7
26 54
27 97
28 44
29 173
30 4
31 65
32 45
37 87
38 166
39 227
40 4
43 15
49 22
50 199
51 153
52 89
53 199
54 37
55 21
59 47
61 95
62 152
63 316
64 215
65 467
66 173
67 30
74 94
75 49
76 64
77 72
78 94
81 24
92 236
93 399
94 136
95 69
106 2
107 33
109 36
121 999
122 290
123 159
124 8
151 35
152 744
153 233
154 92

$$$$

     RDKit          2D

 11 11  0  0  0  0  0  0  0  0999 V2000
    5.1938   -0.0067    0.0000 C   0  0  0  0  0  0  0  0  0  0  0  0
    0.0016   -2.9991    0.0000 C   0  0  0  0  0  0  0  0  0  0  0  0
    1.2961   -2.2569    0.0000 C   0  0  0  0  0  0  0  0  0  0  0  0
   -1.2974   -2.2491    0.0000 C   0  0  0  0  0  0  0  0  0  0  0  0
   -0.0024   -0.0061    0.0000 C   0  0  0  0  0  0  0  0  0  0  0  0
    1.2966   -0.7561    0.0000 C   0  0  0  0  0  0  0  0  0  0  0  0
   -1.3020   -0.7569    0.0000 C   0  0  0  0  0  0  0  0  0  0  0  0
    2.5958   -0.0063    0.0000 C   0  0  0  0  0  0  0  0  0  0  0  0
   -2.6023   -0.0091    0.0000 O   0  0  0  0  0  0  0  0  0  0  0  0
    2.5960    1.4937    0.0000 O   0  0  0  0  0  0  0  0  0  0  0  0
    3.8947   -0.7565    0.0000 O   0  0  0  0  0  0  0  0  0  0  0  0
  3  2  2  0
  4  2  1  0
  6  3  1  0
  6  5  2  0
  7  4  2  0
  7  5  1  0
  8  6  1  0
  9  7  1  0
 10  8  2  0
 11  1  1  0
 11  8  1  0
M  END
>  <NAME>  (5980) 
METHYL META HYDROXY BENZOATE

>  <SYNONYMS>  (5980) 


>  <SPECTRUM TYPE>  (5980) 
MS1

>  <INSTRUMENT TYPE>  (5980) 
EI-B

>  <INSTRUMENT>  (5980) 
HITACHI RMU-7M

>  <ION MODE>  (5980) 
P

>  <INCHIKEY>  (5980) 
YKUCHDXIBAQWSF-UHFFFAOYSA-N

>  <FORMULA>  (5980) 
C8H8O3

>  <EXACT MASS>  (5980) 
152.04734411599998

>  <MW>  (5980) 
152

>  <ID>  (5980) 
JP000066

>  <CONTRIBUTOR>  (5980) 
University of Tokyo Team, {Faculty of Engineering, University of Tokyo

>  <COMMENT>  (5980) 
SMILES=COC(=O)c(c1)cc(O)cc1
InChI=InChI=1S/C8H8O3/c1-11-8(10)6-3-2-4-7(9)5-6/h2-5,9H,1H3
computed SMILES=O=C(OC)C=1C=CC=C(O)C1
accession=JP000066
date=2016.01.19 (Created 2008.10.21, modified 2011.05.06)
author=TAJIMA S, GUNMA COLLEGE OF TECHNOLOGY
license=CC BY-NC-SA
exact mass=152.04734
ionization energy=70 eV
ion type=[M]+*
computed spectral entropy=2.1095373604236274
computed normalized entropy=0.6928959807571852
SPLASH=splash10-00di-6900000000-c02b0f7c01037be5937e
submitter=submitter = University of Tokyo Team (Faculty of Engineering, University of Tokyo)
MoNA Rating=3.75

>  <NUM PEAKS>  (5980) 
21

>  <MASS SPECTRAL PEAKS>  (5980) 
38 2.79
39 14.08
41 1.52
50 1.58
51 1.16
53 2.63
62 2.1
63 6.99
64 4.57
65 25.43
66 2.15
77 1.73
92 3.84
93 45.72
94 4.31
120 2.73
121 99.99
122 8.2
151 1
152 42.98
153 4.1

>  <PREDICTED SPECTRUM>  (5980) 
14 22
15 68
16 18
17 4
25 16
26 74
27 143
28 48
29 166
31 88
32 100
37 118
38 226
39 357
40 87
41 93
42 9
43 45
44 8
45 18
49 54
50 268
51 223
52 165
53 231
54 54
55 28
59 57
61 145
62 185
63 374
64 242
65 541
66 212
67 37
74 124
75 154
76 159
77 68
78 39
81 39
83 2
92 169
93 498
94 217
95 151
107 86
108 46
109 94
119 39
120 68
121 999
122 286
123 191
124 4
137 74
151 105
152 799
153 240
154 94

$$$$

     RDKit          2D

 20 20  0  0  0  0  0  0  0  0999 V2000
    6.1662    0.1908    0.0000 C   0  0  0  0  0  0  0  0  0  0  0  0
    5.4164   -1.1083    0.0000 H   0  0  0  0  0  0  0  0  0  0  0  0
    7.4653   -0.5590    0.0000 H   0  0  0  0  0  0  0  0  0  0  0  0
    6.9159    1.4900    0.0000 H   0  0  0  0  0  0  0  0  0  0  0  0
    3.9026    2.0895    0.0000 C   0  0  0  0  0  0  0  0  0  0  0  0
    5.0515    3.0539    0.0000 H   0  0  0  0  0  0  0  0  0  0  0  0
    2.9383    3.2384    0.0000 H   0  0  0  0  0  0  0  0  0  0  0  0
    2.7537    1.1252    0.0000 H   0  0  0  0  0  0  0  0  0  0  0  0
    3.5674   -4.3124    0.0000 C   0  0  0  0  0  0  0  0  0  0  0  0
   -0.3242   -3.5536    0.0000 C   0  0  0  0  0  0  0  0  0  0  0  0
   -0.3292   -2.0615    0.0000 C   0  0  0  0  0  0  0  0  0  0  0  0
    0.9751   -4.3032    0.0000 C   0  0  0  0  0  0  0  0  0  0  0  0
    0.9701   -1.3102    0.0000 C   0  0  0  0  0  0  0  0  0  0  0  0
    4.8670    0.9406    0.0000 C   0  0  0  0  0  0  0  0  0  0  0  0
    5.8310    2.0898    0.0000 H   0  0  0  0  0  0  0  0  0  0  0  0
    2.2694   -3.5606    0.0000 C   0  0  0  0  0  0  0  0  0  0  0  0
    2.2694   -2.0598    0.0000 C   0  0  0  0  0  0  0  0  0  0  0  0
    3.5683   -1.3096    0.0000 C   0  0  0  0  0  0  0  0  0  0  0  0
    4.8675   -2.0594    0.0000 O   0  0  0  0  0  0  0  0  0  0  0  0
    3.5681    0.1904    0.0000 O   0  0  0  0  0  0  0  0  0  0  0  0
  1  2  1  0
  1  3  1  0
  1  4  1  0
  5  6  1  0
  5  7  1  0
  5  8  1  0
 14 15  1  0
 11 10  2  0
 12 10  1  0
 13 11  1  0
 14  1  1  0
 14  5  1  0
 16  9  1  0
 16 12  2  0
 17 13  2  0
 17 16  1  0
 18 17  1  0
 19 18  2  0
 20 14  1  0
 20 18  1  0
M  ISO  7   2   2   3   2   4   2   6   2   7   2   8   2  15   2
M  END
>  <NAME>  (5981) 
ISOPROPYL ORTHO TOLUATE (1,1,1,2,3,3,3-D7)

>  <SYNONYMS>  (5981) 


>  <SPECTRUM TYPE>  (5981) 
MS1

>  <INSTRUMENT TYPE>  (5981) 
EI-B

>  <INSTRUMENT>  (5981) 
HITACHI RMU-7M

>  <ION MODE>  (5981) 
P

>  <INCHIKEY>  (5981) 
GKOTWEXRHKVLLK-UNAVHCQLSA-N

>  <FORMULA>  (5981) 
C11H14O2

>  <EXACT MASS>  (5981) 
185.14331691

>  <MW>  (5981) 
185

>  <ID>  (5981) 
JP000064

>  <CONTRIBUTOR>  (5981) 
University of Tokyo Team, {Faculty of Engineering, University of Tokyo

>  <COMMENT>  (5981) 
SMILES=[2H]C([2H])([2H])C([2H])(C([2H])([2H])[2H])OC(=O)c(c1)c(C)ccc1
InChI=InChI=1S/C11H14O2/c1-8(2)13-11(12)10-7-5-4-6-9(10)3/h4-8H,1-3H3/i1D3,2D3,8D
computed SMILES=[H]C(OC(=O)C=1C=CC=CC1C)(C([H])([H])[H])C([H])([H])[H]
accession=JP000064
date=2016.01.19 (Created 2008.10.21, modified 2011.05.06)
author=TAJIMA S, GUNMA COLLEGE OF TECHNOLOGY
license=CC BY-NC-SA
exact mass=178.09938
ionization energy=70 eV
ion type=[M]+*
computed spectral entropy=2.551367242209022
computed normalized entropy=0.7656694642895354
SPLASH=splash10-014i-5900000000-2cd9037d2998bb066d1e
submitter=submitter = University of Tokyo Team (Faculty of Engineering, University of Tokyo)
MoNA Rating=3.75

>  <NUM PEAKS>  (5981) 
28

>  <MASS SPECTRAL PEAKS>  (5981) 
28 1.52
30 5.07
31 3.89
39 6.26
41 2.37
42 1.52
43 1.69
45 2.54
46 10.65
50 17.58
51 1.94
63 3.47
65 15.89
66 2.96
89 4.4
90 11.41
91 41.42
92 10.99
93 1.78
118 41.25
119 99.99
120 11.67
135 1.94
136 1.69
137 51.9
138 6.76
185 12
186 1.01

>  <PREDICTED SPECTRUM>  (5981) 
17 0
25 3
26 105
27 85
28 175
36 18
37 23
39 242
40 30
41 161
43 129
45 30
47 89
48 84
49 74
50 196
51 394
52 390
53 391
54 370
55 219
57 13
60 18
61 49
62 40
63 274
64 381
65 426
66 60
67 63
68 25
69 209
71 406
72 84
74 113
75 245
76 92
77 610
78 321
79 169
80 190
81 12
82 151
83 79
85 296
87 59
89 179
90 244
91 416
92 449
93 391
94 42
95 202
96 107
97 85
102 69
103 75
104 237
105 661
106 188
107 182
110 69
111 309
113 241
118 108
119 675
120 708
121 578
122 613
123 84
125 99
131 119
133 102
134 262
135 10
137 295
138 298
139 52
151 200
152 276
153 482
155 49
166 54
167 999
168 511
169 518
170 132
185 681
186 120

$$$$

     RDKit          2D

 19 19  0  0  0  0  0  0  0  0999 V2000
   -0.3208    1.6898    0.0000 C   0  0  0  0  0  0  0  0  0  0  0  0
    0.4290    2.9890    0.0000 H   0  0  0  0  0  0  0  0  0  0  0  0
   -1.6200    2.4396    0.0000 H   0  0  0  0  0  0  0  0  0  0  0  0
   -1.0706    0.3906    0.0000 H   0  0  0  0  0  0  0  0  0  0  0  0
    0.9786   -0.5600    0.0000 C   0  0  0  0  0  0  0  0  0  0  0  0
   -0.5214   -0.5602    0.0000 H   0  0  0  0  0  0  0  0  0  0  0  0
    0.9788   -2.0600    0.0000 H   0  0  0  0  0  0  0  0  0  0  0  0
    2.4786   -0.5598    0.0000 H   0  0  0  0  0  0  0  0  0  0  0  0
    6.1778   -0.5594    0.0000 C   0  0  0  0  0  0  0  0  0  0  0  0
    7.4653    3.1906    0.0000 C   0  0  0  0  0  0  0  0  0  0  0  0
    6.1753    3.9406    0.0000 C   0  0  0  0  0  0  0  0  0  0  0  0
    7.4653    1.6906    0.0000 C   0  0  0  0  0  0  0  0  0  0  0  0
    4.8753    3.1906    0.0000 C   0  0  0  0  0  0  0  0  0  0  0  0
    0.9783    0.9400    0.0000 C   0  0  0  0  0  0  0  0  0  0  0  0
    6.1753    0.9406    0.0000 C   0  0  0  0  0  0  0  0  0  0  0  0
    4.8753    1.6906    0.0000 C   0  0  0  0  0  0  0  0  0  0  0  0
    3.5764    0.9404    0.0000 C   0  0  0  0  0  0  0  0  0  0  0  0
    3.5766   -0.5596    0.0000 O   0  0  0  0  0  0  0  0  0  0  0  0
    2.2772    1.6902    0.0000 O   0  0  0  0  0  0  0  0  0  0  0  0
  1  2  1  0
  1  3  1  0
  1  4  1  0
  5  6  1  0
  5  7  1  0
  5  8  1  0
 11 10  2  0
 12 10  1  0
 13 11  1  0
 14  1  1  0
 14  5  1  0
 15  9  1  0
 15 12  2  0
 16 13  2  0
 16 15  1  0
 17 16  1  0
 18 17  2  0
 19 14  1  0
 19 17  1  0
M  ISO  6   2   2   3   2   4   2   6   2   7   2   8   2
M  END
>  <NAME>  (5982) 
ISOPROPYL ORTHO TOLUATE (1,1,1,3,3,3-D6)

>  <SYNONYMS>  (5982) 


>  <SPECTRUM TYPE>  (5982) 
MS1

>  <INSTRUMENT TYPE>  (5982) 
EI-B

>  <INSTRUMENT>  (5982) 
HITACHI RMU-7M

>  <ION MODE>  (5982) 
P

>  <INCHIKEY>  (5982) 
GKOTWEXRHKVLLK-WFGJKAKNSA-N

>  <FORMULA>  (5982) 
C11H14O2

>  <EXACT MASS>  (5982) 
184.137040164

>  <MW>  (5982) 
184

>  <ID>  (5982) 
JP000063

>  <CONTRIBUTOR>  (5982) 
University of Tokyo Team, {Faculty of Engineering, University of Tokyo

>  <COMMENT>  (5982) 
SMILES=[2H]C([2H])([2H])C(C([2H])([2H])[2H])OC(=O)c(c1)c(C)ccc1
InChI=InChI=1S/C11H14O2/c1-8(2)13-11(12)10-7-5-4-6-9(10)3/h4-8H,1-3H3/i1D3,2D3
computed SMILES=[H]C([H])([H])C(OC(=O)C=1C=CC=CC1C)C([H])([H])[H]
accession=JP000063
date=2016.01.19 (Created 2008.10.21, modified 2011.05.06)
author=TAJIMA S, GUNMA COLLEGE OF TECHNOLOGY
license=CC BY-NC-SA
exact mass=178.09938
ionization energy=70 eV
ion type=[M]+*
computed spectral entropy=2.5706292354231985
computed normalized entropy=0.7558012508427074
SPLASH=splash10-014i-6900000000-7c4b4374f90150bdc357
submitter=submitter = University of Tokyo Team (Faculty of Engineering, University of Tokyo)
MoNA Rating=3.75

>  <NUM PEAKS>  (5982) 
30

>  <MASS SPECTRAL PEAKS>  (5982) 
28 1.35
29 2.83
30 2.36
39 7.74
41 3.37
43 1.08
45 5.93
46 4.04
49 14.81
51 3.03
63 5.39
65 24.24
66 1.35
77 2.02
79 1.35
89 5.93
90 13.13
91 48.89
92 11.45
93 1.89
118 42.42
119 99.99
120 12.12
135 3.37
136 3.97
137 48.35
138 4.04
183 0.61
184 8.08
185 0.67

>  <PREDICTED SPECTRUM>  (5982) 
26 46
27 74
28 59
36 27
39 216
40 83
41 227
42 212
43 65
47 7
49 42
50 146
51 300
52 205
53 156
54 268
56 212
57 32
58 39
60 115
62 72
63 241
64 265
65 320
66 94
67 95
68 54
70 161
71 463
72 302
73 96
74 157
75 165
76 232
77 305
78 293
79 89
80 70
82 381
83 200
84 44
85 27
87 97
89 269
90 386
91 449
92 389
93 118
96 152
98 134
100 13
102 50
104 264
105 270
106 18
107 213
110 200
113 203
117 93
118 262
119 999
120 716
121 353
122 120
130 46
132 63
133 222
134 339
135 113
136 318
137 338
138 106
139 163
140 157
148 131
149 235
150 352
151 731
152 422
153 106
154 1
165 116
166 751
167 329
168 216
183 133
184 460
185 68

$$$$

     RDKit          2D

 14 14  0  0  0  0  0  0  0  0999 V2000
    5.6172   -0.3583    0.0000 C   0  0  0  0  0  0  0  0  0  0  0  0
    4.1168    2.2395    0.0000 C   0  0  0  0  0  0  0  0  0  0  0  0
   -0.3325    2.4400    0.0000 C   0  0  0  0  0  0  0  0  0  0  0  0
   -1.6200   -1.3100    0.0000 C   0  0  0  0  0  0  0  0  0  0  0  0
   -0.3300   -2.0600    0.0000 C   0  0  0  0  0  0  0  0  0  0  0  0
   -1.6200    0.1900    0.0000 C   0  0  0  0  0  0  0  0  0  0  0  0
    0.9700   -1.3100    0.0000 C   0  0  0  0  0  0  0  0  0  0  0  0
    4.8670    0.9406    0.0000 C   0  0  0  0  0  0  0  0  0  0  0  0
    6.1659    1.6908    0.0000 H   0  0  0  0  0  0  0  0  0  0  0  0
   -0.3300    0.9400    0.0000 C   0  0  0  0  0  0  0  0  0  0  0  0
    0.9700    0.1900    0.0000 C   0  0  0  0  0  0  0  0  0  0  0  0
    2.2689    0.9402    0.0000 C   0  0  0  0  0  0  0  0  0  0  0  0
    2.2687    2.4402    0.0000 O   0  0  0  0  0  0  0  0  0  0  0  0
    3.5681    0.1904    0.0000 O   0  0  0  0  0  0  0  0  0  0  0  0
  8  9  1  0
  5  4  2  0
  6  4  1  0
  7  5  1  0
  8  1  1  0
  8  2  1  0
 10  3  1  0
 10  6  2  0
 11  7  2  0
 11 10  1  0
 12 11  1  0
 13 12  2  0
 14  8  1  0
 14 12  1  0
M  ISO  1   9   2
M  END
>  <NAME>  (5983) 
ISOPROPYL ORTHO TOLUATE (2-D1)

>  <SYNONYMS>  (5983) 


>  <SPECTRUM TYPE>  (5983) 
MS1

>  <INSTRUMENT TYPE>  (5983) 
EI-B

>  <INSTRUMENT>  (5983) 
HITACHI RMU-7M

>  <ION MODE>  (5983) 
P

>  <INCHIKEY>  (5983) 
GKOTWEXRHKVLLK-BNEYPBHNSA-N

>  <FORMULA>  (5983) 
C11H14O2

>  <EXACT MASS>  (5983) 
179.105656434

>  <MW>  (5983) 
179

>  <ID>  (5983) 
JP000062

>  <CONTRIBUTOR>  (5983) 
University of Tokyo Team, {Faculty of Engineering, University of Tokyo

>  <COMMENT>  (5983) 
SMILES=[2H]C(C)(C)OC(=O)c(c1)c(C)ccc1
InChI=InChI=1S/C11H14O2/c1-8(2)13-11(12)10-7-5-4-6-9(10)3/h4-8H,1-3H3/i8D
computed SMILES=[H]C(OC(=O)C=1C=CC=CC1C)(C)C
accession=JP000062
date=2016.01.19 (Created 2008.10.21, modified 2011.05.06)
author=TAJIMA S, GUNMA COLLEGE OF TECHNOLOGY
license=CC BY-NC-SA
exact mass=178.09938
ionization energy=70 eV
ion type=[M]+*
computed spectral entropy=2.6002757559096845
computed normalized entropy=0.780346988898639
SPLASH=splash10-014i-7900000000-09f99c64240a8f6cfe54
submitter=submitter = University of Tokyo Team (Faculty of Engineering, University of Tokyo)
MoNA Rating=3.75

>  <NUM PEAKS>  (5983) 
28

>  <MASS SPECTRAL PEAKS>  (5983) 
27 4.01
29 1.67
39 11.75
40 2.34
41 8.81
42 9.01
43 6.14
44 17.16
51 3.67
55 3.07
57 4.14
60 2.2
63 5.87
65 24.83
77 4.01
79 2.27
89 7.74
90 26.03
91 57.61
92 6.68
118 99.99
119 77.44
120 7.34
135 3.2
136 57.34
137 7.34
179 9.48
180 1.27

>  <PREDICTED SPECTRUM>  (5983) 
14 4
15 35
16 2
17 3
18 10
25 15
26 73
27 189
28 76
29 157
36 20
37 58
38 102
39 292
40 128
41 354
42 133
43 299
44 103
45 48
49 64
50 154
51 217
52 123
53 150
54 84
55 30
56 93
57 156
58 107
60 24
61 92
62 127
63 239
64 109
65 365
66 113
67 62
68 57
69 152
74 40
75 35
76 14
77 196
78 96
79 136
80 19
81 67
82 38
84 45
85 84
86 65
87 55
88 2
89 243
90 221
91 683
92 182
93 58
94 20
96 20
97 22
99 16
105 40
118 156
119 999
120 270
135 41
136 451
137 144
138 8
164 66
179 250
180 58

$$$$

     RDKit          2D

 16 16  0  0  0  0  0  0  0  0999 V2000
    6.1662    0.1908    0.0000 C   0  0  0  0  0  0  0  0  0  0  0  0
    5.4164   -1.1083    0.0000 H   0  0  0  0  0  0  0  0  0  0  0  0
    7.4653   -0.5590    0.0000 H   0  0  0  0  0  0  0  0  0  0  0  0
    6.9159    1.4900    0.0000 H   0  0  0  0  0  0  0  0  0  0  0  0
    4.8668    2.4406    0.0000 C   0  0  0  0  0  0  0  0  0  0  0  0
   -0.3325    2.4400    0.0000 C   0  0  0  0  0  0  0  0  0  0  0  0
   -1.6200   -1.3100    0.0000 C   0  0  0  0  0  0  0  0  0  0  0  0
   -0.3300   -2.0600    0.0000 C   0  0  0  0  0  0  0  0  0  0  0  0
   -1.6200    0.1900    0.0000 C   0  0  0  0  0  0  0  0  0  0  0  0
    0.9700   -1.3100    0.0000 C   0  0  0  0  0  0  0  0  0  0  0  0
    4.8670    0.9406    0.0000 C   0  0  0  0  0  0  0  0  0  0  0  0
   -0.3300    0.9400    0.0000 C   0  0  0  0  0  0  0  0  0  0  0  0
    0.9700    0.1900    0.0000 C   0  0  0  0  0  0  0  0  0  0  0  0
    2.2689    0.9402    0.0000 C   0  0  0  0  0  0  0  0  0  0  0  0
    2.2687    2.4402    0.0000 O   0  0  0  0  0  0  0  0  0  0  0  0
    3.5681    0.1904    0.0000 O   0  0  0  0  0  0  0  0  0  0  0  0
  1  2  1  0
  1  3  1  0
  1  4  1  0
  8  7  2  0
  9  7  1  0
 10  8  1  0
 11  1  1  0
 11  5  1  0
 12  6  1  0
 12  9  2  0
 13 10  2  0
 13 12  1  0
 14 13  1  0
 15 14  2  0
 16 11  1  0
 16 14  1  0
M  ISO  3   2   2   3   2   4   2
M  END
>  <NAME>  (5984) 
ISOPROPYL ORTHO TOLUATE (ALPHA,ALPHA,ALPHA-D3)

>  <SYNONYMS>  (5984) 


>  <SPECTRUM TYPE>  (5984) 
MS1

>  <INSTRUMENT TYPE>  (5984) 
EI-B

>  <INSTRUMENT>  (5984) 
HITACHI RMU-7M

>  <ION MODE>  (5984) 
P

>  <INCHIKEY>  (5984) 
GKOTWEXRHKVLLK-FIBGUPNXSA-N

>  <FORMULA>  (5984) 
C11H14O2

>  <EXACT MASS>  (5984) 
181.118209926

>  <MW>  (5984) 
181

>  <ID>  (5984) 
JP000061

>  <CONTRIBUTOR>  (5984) 
University of Tokyo Team, {Faculty of Engineering, University of Tokyo

>  <COMMENT>  (5984) 
SMILES=[2H]C([2H])([2H])C(C)OC(=O)c(c1)c(C)ccc1
InChI=InChI=1S/C11H14O2/c1-8(2)13-11(12)10-7-5-4-6-9(10)3/h4-8H,1-3H3/i1D3
computed SMILES=[H]C([H])([H])C(OC(=O)C=1C=CC=CC1C)C
accession=JP000061
date=2016.01.19 (Created 2008.10.21, modified 2011.05.06)
author=TAJIMA S, GUNMA COLLEGE OF TECHNOLOGY
license=CC BY-NC-SA
exact mass=178.09938
ionization energy=70 eV
ion type=[M]+*
computed spectral entropy=2.6741293325046573
computed normalized entropy=0.8025105675053703
SPLASH=splash10-00dl-5900000000-f0e61d89ee1db41e3259
submitter=submitter = University of Tokyo Team (Faculty of Engineering, University of Tokyo)
MoNA Rating=3.75

>  <NUM PEAKS>  (5984) 
28

>  <MASS SPECTRAL PEAKS>  (5984) 
27 7.12
39 5.63
40 4.89
41 16.28
42 2.21
43 23.82
44 1.08
59 4.49
64 1.32
65 1.5
66 4.91
67 15.08
68 7.66
91 10.89
92 17.41
93 12.45
94 63.14
95 5.98
119 44.34
120 75.58
121 13.82
122 99.99
123 8.92
138 6.28
139 76.72
140 5.69
181 13.7
182 0.72

>  <PREDICTED SPECTRUM>  (5984) 
26 34
27 82
28 25
29 24
37 9
38 60
39 201
40 79
41 132
42 38
43 119
44 66
49 8
50 99
51 170
52 108
53 125
54 103
55 123
56 55
61 15
62 73
63 151
64 105
65 294
66 32
67 37
68 46
69 49
71 45
74 25
75 12
77 170
78 86
79 100
80 35
81 85
82 59
83 19
84 32
85 99
89 162
90 221
91 585
92 171
93 57
99 26
102 48
105 37
107 26
118 227
119 999
120 284
135 23
136 510
137 168
163 23
181 189
182 47

$$$$

     RDKit          2D

 15 15  0  0  0  0  0  0  0  0999 V2000
    9.0942    0.7512    0.0000 C   0  0  0  0  0  0  0  0  0  0  0  0
    7.7948    3.0010    0.0000 C   0  0  0  0  0  0  0  0  0  0  0  0
   -2.5989   -1.5002    0.0000 C   0  0  0  0  0  0  0  0  0  0  0  0
   -1.3000    0.7500    0.0000 C   0  0  0  0  0  0  0  0  0  0  0  0
   -0.0000   -1.5000    0.0000 C   0  0  0  0  0  0  0  0  0  0  0  0
    0.0000    1.5000    0.0000 C   0  0  0  0  0  0  0  0  0  0  0  0
    1.3000   -0.7500    0.0000 C   0  0  0  0  0  0  0  0  0  0  0  0
    6.4962    0.7508    0.0000 C   0  0  0  0  0  0  0  0  0  0  0  0
    5.1970    1.5006    0.0000 C   0  0  0  0  0  0  0  0  0  0  0  0
    7.7951    1.5010    0.0000 C   0  0  0  0  0  0  0  0  0  0  0  0
   -1.3000   -0.7500    0.0000 C   0  0  0  0  0  0  0  0  0  0  0  0
    1.3000    0.7500    0.0000 C   0  0  0  0  0  0  0  0  0  0  0  0
    2.5989    1.5002    0.0000 C   0  0  0  0  0  0  0  0  0  0  0  0
    2.5987    3.0002    0.0000 O   0  0  0  0  0  0  0  0  0  0  0  0
    3.8981    0.7504    0.0000 O   0  0  0  0  0  0  0  0  0  0  0  0
  6  4  2  0
  7  5  1  0
  9  8  1  0
 10  1  1  0
 10  2  1  0
 10  8  1  0
 11  3  1  0
 11  4  1  0
 11  5  2  0
 12  6  1  0
 12  7  2  0
 13 12  1  0
 14 13  2  0
 15  9  1  0
 15 13  1  0
M  END
>  <NAME>  (5985) 
ISOAMYL PARA TOLUATE

>  <SYNONYMS>  (5985) 
PARA TOLUIC ACID ISOAMYL ESTER

>  <SPECTRUM TYPE>  (5985) 
MS1

>  <INSTRUMENT TYPE>  (5985) 
EI-B

>  <INSTRUMENT>  (5985) 
HITACHI RMU-7M

>  <ION MODE>  (5985) 
P

>  <INCHIKEY>  (5985) 
WDNOGGRIGNCXKH-UHFFFAOYSA-N

>  <FORMULA>  (5985) 
C13H18O2

>  <EXACT MASS>  (5985) 
206.130679816

>  <MW>  (5985) 
206

>  <ID>  (5985) 
JP000060

>  <CONTRIBUTOR>  (5985) 
University of Tokyo Team, {Faculty of Engineering, University of Tokyo

>  <COMMENT>  (5985) 
SMILES=CC(C)CCOC(=O)c(c1)ccc(C)c1
InChI=InChI=1S/C13H18O2/c1-10(2)8-9-15-13(14)12-6-4-11(3)5-7-12/h4-7,10H,8-9H2,1-3H3
computed SMILES=O=C(OCCC(C)C)C1=CC=C(C=C1)C
accession=JP000060
date=2016.01.19 (Created 2008.10.21, modified 2011.05.06)
author=TAJIMA S, GUNMA COLLEGE OF TECHNOLOGY
license=CC BY-NC-SA
exact mass=206.13068
ionization energy=70 eV
ion type=[M]+*
computed spectral entropy=2.3755284740499163
computed normalized entropy=0.7685201707498331
SPLASH=splash10-01bi-9800000000-93f62af651781dfa750a
submitter=submitter = University of Tokyo Team (Faculty of Engineering, University of Tokyo)
MoNA Rating=3.75

>  <NUM PEAKS>  (5985) 
22

>  <MASS SPECTRAL PEAKS>  (5985) 
27 2.55
29 3.16
39 5.23
41 7.9
42 7.96
43 7.23
55 18.91
63 1.64
65 14.1
69 1.16
70 70.15
71 3.53
89 3.16
90 1.95
91 42.55
92 5.47
93 5.53
119 99.99
120 8.88
136 31.61
137 39.21
138 3.4

>  <PREDICTED SPECTRUM>  (5985) 
25 12
26 90
27 250
28 108
29 224
30 53
36 35
37 24
38 75
39 276
40 123
41 321
42 254
43 274
44 69
49 13
50 148
51 196
52 85
53 134
54 54
55 390
56 53
57 90
62 105
63 226
64 99
65 352
66 106
67 49
68 76
69 132
70 874
71 244
74 79
75 102
76 93
77 141
78 27
79 75
80 17
83 21
87 66
89 192
90 197
91 648
92 244
93 184
94 79
95 51
99 49
102 10
105 44
106 3
107 52
117 30
118 114
119 999
120 285
121 49
135 91
136 545
137 641
138 201
139 13
149 52

$$$$

     RDKit          2D

 15 15  0  0  0  0  0  0  0  0999 V2000
    8.7642    0.1912    0.0000 C   0  0  0  0  0  0  0  0  0  0  0  0
    7.4648    2.4410    0.0000 C   0  0  0  0  0  0  0  0  0  0  0  0
   -0.3325    2.4400    0.0000 C   0  0  0  0  0  0  0  0  0  0  0  0
   -1.6200   -1.3100    0.0000 C   0  0  0  0  0  0  0  0  0  0  0  0
   -0.3300   -2.0600    0.0000 C   0  0  0  0  0  0  0  0  0  0  0  0
   -1.6200    0.1900    0.0000 C   0  0  0  0  0  0  0  0  0  0  0  0
    0.9700   -1.3100    0.0000 C   0  0  0  0  0  0  0  0  0  0  0  0
    6.1662    0.1908    0.0000 C   0  0  0  0  0  0  0  0  0  0  0  0
    4.8670    0.9406    0.0000 C   0  0  0  0  0  0  0  0  0  0  0  0
    7.4651    0.9410    0.0000 C   0  0  0  0  0  0  0  0  0  0  0  0
   -0.3300    0.9400    0.0000 C   0  0  0  0  0  0  0  0  0  0  0  0
    0.9700    0.1900    0.0000 C   0  0  0  0  0  0  0  0  0  0  0  0
    2.2689    0.9402    0.0000 C   0  0  0  0  0  0  0  0  0  0  0  0
    2.2687    2.4402    0.0000 O   0  0  0  0  0  0  0  0  0  0  0  0
    3.5681    0.1904    0.0000 O   0  0  0  0  0  0  0  0  0  0  0  0
  5  4  2  0
  6  4  1  0
  7  5  1  0
  9  8  1  0
 10  1  1  0
 10  2  1  0
 10  8  1  0
 11  3  1  0
 11  6  2  0
 12  7  2  0
 12 11  1  0
 13 12  1  0
 14 13  2  0
 15  9  1  0
 15 13  1  0
M  END
>  <NAME>  (5986) 
ISOAMYL ORTHO TOLUATE

>  <SYNONYMS>  (5986) 
ORTHO TOLUIC ACID ISOAMYL ESTER

>  <SPECTRUM TYPE>  (5986) 
MS1

>  <INSTRUMENT TYPE>  (5986) 
EI-B

>  <INSTRUMENT>  (5986) 
HITACHI RMU-7M

>  <ION MODE>  (5986) 
P

>  <INCHIKEY>  (5986) 
ZMSLAZFPMYEGIT-UHFFFAOYSA-N

>  <FORMULA>  (5986) 
C13H18O2

>  <EXACT MASS>  (5986) 
206.130679816

>  <MW>  (5986) 
206

>  <ID>  (5986) 
JP000059

>  <CONTRIBUTOR>  (5986) 
University of Tokyo Team, {Faculty of Engineering, University of Tokyo

>  <COMMENT>  (5986) 
SMILES=CC(C)CCOC(=O)c(c1)c(C)ccc1
InChI=InChI=1S/C13H18O2/c1-10(2)8-9-15-13(14)12-7-5-4-6-11(12)3/h4-7,10H,8-9H2,1-3H3
computed SMILES=O=C(OCCC(C)C)C=1C=CC=CC1C
accession=JP000059
date=2016.01.19 (Created 2008.10.21, modified 2011.05.06)
author=TAJIMA S, GUNMA COLLEGE OF TECHNOLOGY
license=CC BY-NC-SA
exact mass=206.13068
ionization energy=70 eV
ion type=[M]+*
computed spectral entropy=2.821422409269187
computed normalized entropy=0.8000947122603961
SPLASH=splash10-01bc-9500000000-4413714fdbe328584ef2
submitter=submitter = University of Tokyo Team (Faculty of Engineering, University of Tokyo)
MoNA Rating=3.75

>  <NUM PEAKS>  (5986) 
34

>  <MASS SPECTRAL PEAKS>  (5986) 
27 8.91
29 11.88
39 15.38
40 1.32
41 21.12
42 8.32
43 87.13
44 2.64
50 1.25
51 3.56
55 23.23
63 5.35
64 1.72
65 31.02
66 1.52
69 2.11
70 70.56
71 35.78
72 1.52
77 4.09
79 1.98
89 7.13
90 12.01
91 63.37
92 5.48
93 4.62
118 77.23
119 99.99
120 8.58
135 2.77
136 57.1
137 31.68
138 2.31
206 2.64

>  <PREDICTED SPECTRUM>  (5986) 
25 11
26 91
27 228
28 68
29 248
31 7
36 33
37 29
38 72
39 297
40 123
41 352
42 206
43 415
44 100
49 37
50 150
51 218
52 107
53 129
54 80
55 322
56 68
57 138
61 13
62 122
63 225
64 96
65 354
66 96
67 59
68 115
69 136
70 598
71 368
72 66
74 87
75 116
76 84
77 201
78 81
79 164
80 11
81 33
87 83
88 18
89 304
90 327
91 736
92 261
93 149
94 11
99 0
102 56
103 0
105 92
106 61
107 106
108 14
117 45
118 660
119 999
120 310
121 77
135 145
136 802
137 464
138 159
149 12
206 224
207 65

$$$$

     RDKit          2D

 15 15  0  0  0  0  0  0  0  0999 V2000
   10.3931    1.5015    0.0000 C   0  0  0  0  0  0  0  0  0  0  0  0
   -2.5989   -1.5002    0.0000 C   0  0  0  0  0  0  0  0  0  0  0  0
    9.0942    0.7512    0.0000 C   0  0  0  0  0  0  0  0  0  0  0  0
    7.7951    1.5010    0.0000 C   0  0  0  0  0  0  0  0  0  0  0  0
    6.4962    0.7508    0.0000 C   0  0  0  0  0  0  0  0  0  0  0  0
   -1.3000    0.7500    0.0000 C   0  0  0  0  0  0  0  0  0  0  0  0
   -0.0000   -1.5000    0.0000 C   0  0  0  0  0  0  0  0  0  0  0  0
    0.0000    1.5000    0.0000 C   0  0  0  0  0  0  0  0  0  0  0  0
    1.3000   -0.7500    0.0000 C   0  0  0  0  0  0  0  0  0  0  0  0
    5.1970    1.5006    0.0000 C   0  0  0  0  0  0  0  0  0  0  0  0
   -1.3000   -0.7500    0.0000 C   0  0  0  0  0  0  0  0  0  0  0  0
    1.3000    0.7500    0.0000 C   0  0  0  0  0  0  0  0  0  0  0  0
    2.5989    1.5002    0.0000 C   0  0  0  0  0  0  0  0  0  0  0  0
    2.5987    3.0002    0.0000 O   0  0  0  0  0  0  0  0  0  0  0  0
    3.8981    0.7504    0.0000 O   0  0  0  0  0  0  0  0  0  0  0  0
  3  1  1  0
  4  3  1  0
  5  4  1  0
  8  6  2  0
  9  7  1  0
 10  5  1  0
 11  2  1  0
 11  6  1  0
 11  7  2  0
 12  8  1  0
 12  9  2  0
 13 12  1  0
 14 13  2  0
 15 10  1  0
 15 13  1  0
M  END
>  <NAME>  (5987) 
AMYL PARA TOLUATE

>  <SYNONYMS>  (5987) 
PARA TOLUIC ACID AMYL ESTER

>  <SPECTRUM TYPE>  (5987) 
MS1

>  <INSTRUMENT TYPE>  (5987) 
EI-B

>  <INSTRUMENT>  (5987) 
HITACHI RMU-7M

>  <ION MODE>  (5987) 
P

>  <INCHIKEY>  (5987) 
FXPYVDXLZGLQKU-UHFFFAOYSA-N

>  <FORMULA>  (5987) 
C13H18O2

>  <EXACT MASS>  (5987) 
206.130679816

>  <MW>  (5987) 
206

>  <ID>  (5987) 
JP000058

>  <CONTRIBUTOR>  (5987) 
University of Tokyo Team, {Faculty of Engineering, University of Tokyo

>  <COMMENT>  (5987) 
SMILES=CCCCCOC(=O)c(c1)ccc(C)c1
InChI=InChI=1S/C13H18O2/c1-3-4-5-10-15-13(14)12-8-6-11(2)7-9-12/h6-9H,3-5,10H2,1-2H3
computed SMILES=O=C(OCCCCC)C1=CC=C(C=C1)C
accession=JP000058
date=2016.01.19 (Created 2008.10.21, modified 2011.05.06)
author=TAJIMA S, GUNMA COLLEGE OF TECHNOLOGY
license=CC BY-NC-SA
exact mass=206.13068
ionization energy=70 eV
ion type=[M]+*
computed spectral entropy=2.231307605806943
computed normalized entropy=0.7328924819734386
SPLASH=splash10-00kr-4900000000-e0f50fdce45af01e1f8b
submitter=submitter = University of Tokyo Team (Faculty of Engineering, University of Tokyo)
MoNA Rating=3.75

>  <NUM PEAKS>  (5987) 
21

>  <MASS SPECTRAL PEAKS>  (5987) 
27 4.33
29 4.98
39 5.78
41 7.7
42 6.82
43 3.45
55 4.49
63 1.04
65 11.15
70 4.41
89 2.73
90 1.93
91 43.9
92 8.91
93 7.46
119 99.99
120 8.67
136 68.54
137 58.27
138 4.49
206 0.72

>  <PREDICTED SPECTRUM>  (5987) 
25 4
26 73
27 240
28 102
29 258
30 32
36 15
38 44
39 229
40 100
41 249
42 218
43 209
44 28
50 92
51 173
52 86
53 125
54 53
55 293
56 36
57 56
62 83
63 197
64 84
65 342
66 108
67 113
68 119
69 154
70 467
71 66
74 18
75 19
76 38
77 186
78 48
79 92
80 27
81 71
83 40
89 222
90 213
91 639
92 224
93 181
94 96
95 26
105 21
106 8
108 25
109 61
118 80
119 954
120 280
121 14
135 56
136 847
137 999
138 337
206 124
207 23

$$$$

     RDKit          2D

 15 15  0  0  0  0  0  0  0  0999 V2000
   10.0631    0.9415    0.0000 C   0  0  0  0  0  0  0  0  0  0  0  0
   -0.3325    2.4400    0.0000 C   0  0  0  0  0  0  0  0  0  0  0  0
    8.7642    0.1912    0.0000 C   0  0  0  0  0  0  0  0  0  0  0  0
    7.4651    0.9410    0.0000 C   0  0  0  0  0  0  0  0  0  0  0  0
   -1.6200   -1.3100    0.0000 C   0  0  0  0  0  0  0  0  0  0  0  0
   -0.3300   -2.0600    0.0000 C   0  0  0  0  0  0  0  0  0  0  0  0
    6.1662    0.1908    0.0000 C   0  0  0  0  0  0  0  0  0  0  0  0
   -1.6200    0.1900    0.0000 C   0  0  0  0  0  0  0  0  0  0  0  0
    0.9700   -1.3100    0.0000 C   0  0  0  0  0  0  0  0  0  0  0  0
    4.8670    0.9406    0.0000 C   0  0  0  0  0  0  0  0  0  0  0  0
   -0.3300    0.9400    0.0000 C   0  0  0  0  0  0  0  0  0  0  0  0
    0.9700    0.1900    0.0000 C   0  0  0  0  0  0  0  0  0  0  0  0
    2.2689    0.9402    0.0000 C   0  0  0  0  0  0  0  0  0  0  0  0
    2.2687    2.4402    0.0000 O   0  0  0  0  0  0  0  0  0  0  0  0
    3.5681    0.1904    0.0000 O   0  0  0  0  0  0  0  0  0  0  0  0
  3  1  1  0
  4  3  1  0
  6  5  2  0
  7  4  1  0
  8  5  1  0
  9  6  1  0
 10  7  1  0
 11  2  1  0
 11  8  2  0
 12  9  2  0
 12 11  1  0
 13 12  1  0
 14 13  2  0
 15 10  1  0
 15 13  1  0
M  END
>  <NAME>  (5988) 
AMYL ORTHO TOLUATE

>  <SYNONYMS>  (5988) 
ORTHO TOLUIC ACID AMYL ESTER

>  <SPECTRUM TYPE>  (5988) 
MS1

>  <INSTRUMENT TYPE>  (5988) 
EI-B

>  <INSTRUMENT>  (5988) 
HITACHI RMU-7M

>  <ION MODE>  (5988) 
P

>  <INCHIKEY>  (5988) 
YMAHRBGBVUOIMQ-UHFFFAOYSA-N

>  <FORMULA>  (5988) 
C13H18O2

>  <EXACT MASS>  (5988) 
206.130679816

>  <MW>  (5988) 
206

>  <ID>  (5988) 
JP000057

>  <CONTRIBUTOR>  (5988) 
University of Tokyo Team, {Faculty of Engineering, University of Tokyo

>  <COMMENT>  (5988) 
SMILES=CCCCCOC(=O)c(c1)c(C)ccc1
InChI=InChI=1S/C13H18O2/c1-3-4-7-10-15-13(14)12-9-6-5-8-11(12)2/h5-6,8-9H,3-4,7,10H2,1-2H3
computed SMILES=O=C(OCCCCC)C=1C=CC=CC1C
accession=JP000057
date=2016.01.19 (Created 2008.10.21, modified 2011.05.06)
author=TAJIMA S, GUNMA COLLEGE OF TECHNOLOGY
license=CC BY-NC-SA
exact mass=206.13068
ionization energy=70 eV
ion type=[M]+*
computed spectral entropy=2.570094053028945
computed normalized entropy=0.7798001410624336
SPLASH=splash10-014u-5900000000-a2b2af9ef90c8f0f77cb
submitter=submitter = University of Tokyo Team (Faculty of Engineering, University of Tokyo)
MoNA Rating=3.75

>  <NUM PEAKS>  (5988) 
27

>  <MASS SPECTRAL PEAKS>  (5988) 
27 6.19
29 9.49
39 8.14
41 12.54
42 6.69
43 38.9
55 6.78
63 2.88
65 17.63
70 6.78
71 4.49
77 2.46
79 1.1
89 4.83
90 11.02
91 55.76
92 5.08
93 3.14
118 99.99
119 90.51
120 8.05
135 3.98
136 86.36
137 32.37
138 2.54
206 11.86
207 1.86

>  <PREDICTED SPECTRUM>  (5988) 
25 11
26 75
27 209
28 101
29 253
30 20
36 15
37 8
38 53
39 253
40 88
41 273
42 169
43 304
44 52
50 87
51 154
52 96
53 107
54 58
55 233
56 54
57 138
61 29
62 82
63 186
64 90
65 308
66 70
67 64
68 96
69 110
70 272
71 155
74 17
75 11
76 16
77 197
78 71
79 126
80 26
81 56
83 30
87 59
88 4
89 264
90 307
91 616
92 213
93 133
102 34
105 56
106 61
107 51
108 17
118 770
119 816
120 275
121 63
135 198
136 999
137 622
138 219
206 355
207 138

$$$$

     RDKit          2D

 14 14  0  0  0  0  0  0  0  0999 V2000
    7.7951    1.5010    0.0000 C   0  0  0  0  0  0  0  0  0  0  0  0
    6.4964   -0.7492    0.0000 C   0  0  0  0  0  0  0  0  0  0  0  0
   -2.5989   -1.5002    0.0000 C   0  0  0  0  0  0  0  0  0  0  0  0
   -1.3000    0.7500    0.0000 C   0  0  0  0  0  0  0  0  0  0  0  0
   -0.0000   -1.5000    0.0000 C   0  0  0  0  0  0  0  0  0  0  0  0
    0.0000    1.5000    0.0000 C   0  0  0  0  0  0  0  0  0  0  0  0
    1.3000   -0.7500    0.0000 C   0  0  0  0  0  0  0  0  0  0  0  0
    5.1970    1.5006    0.0000 C   0  0  0  0  0  0  0  0  0  0  0  0
    6.4962    0.7508    0.0000 C   0  0  0  0  0  0  0  0  0  0  0  0
   -1.3000   -0.7500    0.0000 C   0  0  0  0  0  0  0  0  0  0  0  0
    1.3000    0.7500    0.0000 C   0  0  0  0  0  0  0  0  0  0  0  0
    2.5989    1.5002    0.0000 C   0  0  0  0  0  0  0  0  0  0  0  0
    2.5987    3.0002    0.0000 O   0  0  0  0  0  0  0  0  0  0  0  0
    3.8981    0.7504    0.0000 O   0  0  0  0  0  0  0  0  0  0  0  0
  6  4  2  0
  7  5  1  0
  9  1  1  0
  9  2  1  0
  9  8  1  0
 10  3  1  0
 10  4  1  0
 10  5  2  0
 11  6  1  0
 11  7  2  0
 12 11  1  0
 13 12  2  0
 14  8  1  0
 14 12  1  0
M  END
>  <NAME>  (5989) 
ISOBUTYL PARA TOLUATE

>  <SYNONYMS>  (5989) 
PARA TOLUIC ACID ISOBUTYL ESTER

>  <SPECTRUM TYPE>  (5989) 
MS1

>  <INSTRUMENT TYPE>  (5989) 
EI-B

>  <INSTRUMENT>  (5989) 
HITACHI RMU-7M

>  <ION MODE>  (5989) 
P

>  <INCHIKEY>  (5989) 
IELVQABKIBOBRG-UHFFFAOYSA-N

>  <FORMULA>  (5989) 
C12H16O2

>  <EXACT MASS>  (5989) 
192.115029752

>  <MW>  (5989) 
192

>  <ID>  (5989) 
JP000056

>  <CONTRIBUTOR>  (5989) 
University of Tokyo Team, {Faculty of Engineering, University of Tokyo

>  <COMMENT>  (5989) 
SMILES=CC(C)COC(=O)c(c1)ccc(C)c1
InChI=InChI=1S/C12H16O2/c1-9(2)8-14-12(13)11-6-4-10(3)5-7-11/h4-7,9H,8H2,1-3H3
computed SMILES=O=C(OCC(C)C)C1=CC=C(C=C1)C
accession=JP000056
date=2016.01.19 (Created 2008.10.21, modified 2011.05.06)
author=TAJIMA S, GUNMA COLLEGE OF TECHNOLOGY
license=CC BY-NC-SA
exact mass=192.11503
ionization energy=70 eV
ion type=[M]+*
computed spectral entropy=2.133146412473599
computed normalized entropy=0.7006505802166739
SPLASH=splash10-014r-5900000000-d1a4190378aed0939aeb
submitter=submitter = University of Tokyo Team (Faculty of Engineering, University of Tokyo)
MoNA Rating=3.75

>  <NUM PEAKS>  (5989) 
21

>  <MASS SPECTRAL PEAKS>  (5989) 
27 1.27
29 2.77
39 4.87
41 5.75
43 1.11
51 1.11
55 0.72
56 7.63
57 1.11
63 2.38
65 13.83
89 3.21
90 1.83
91 38.16
92 5.64
93 5.03
119 99.99
120 8.74
136 19.08
137 38.11
138 2.77

>  <PREDICTED SPECTRUM>  (5989) 
14 14
15 30
17 0
18 7
25 23
26 95
27 290
28 177
29 342
30 37
36 48
37 51
38 110
39 336
40 144
41 384
42 176
43 232
44 55
49 29
50 148
51 182
52 108
53 112
54 53
55 213
56 445
57 173
58 42
61 19
62 123
63 271
64 124
65 388
66 118
67 94
69 60
73 108
74 82
75 46
76 78
77 162
78 78
79 99
81 54
82 4
89 260
90 253
91 709
92 252
93 123
94 7
95 26
96 4
102 50
105 63
107 69
118 102
119 999
120 307
121 42
135 37
136 673
137 664
138 250
192 36

$$$$

     RDKit          2D

 14 14  0  0  0  0  0  0  0  0999 V2000
   -1.6200   -0.5608    0.0000 C   0  0  0  0  0  0  0  0  0  0  0  0
   -0.3213    1.6894    0.0000 C   0  0  0  0  0  0  0  0  0  0  0  0
    6.1776   -2.0598    0.0000 C   0  0  0  0  0  0  0  0  0  0  0  0
    7.4651    1.6902    0.0000 C   0  0  0  0  0  0  0  0  0  0  0  0
    6.1751    2.4402    0.0000 C   0  0  0  0  0  0  0  0  0  0  0  0
    7.4651    0.1902    0.0000 C   0  0  0  0  0  0  0  0  0  0  0  0
    4.8751    1.6902    0.0000 C   0  0  0  0  0  0  0  0  0  0  0  0
    0.9781   -0.5604    0.0000 C   0  0  0  0  0  0  0  0  0  0  0  0
   -0.3211    0.1894    0.0000 C   0  0  0  0  0  0  0  0  0  0  0  0
    6.1751   -0.5598    0.0000 C   0  0  0  0  0  0  0  0  0  0  0  0
    4.8751    0.1902    0.0000 C   0  0  0  0  0  0  0  0  0  0  0  0
    3.5762   -0.5600    0.0000 C   0  0  0  0  0  0  0  0  0  0  0  0
    3.5764   -2.0600    0.0000 O   0  0  0  0  0  0  0  0  0  0  0  0
    2.2770    0.1898    0.0000 O   0  0  0  0  0  0  0  0  0  0  0  0
  5  4  2  0
  6  4  1  0
  7  5  1  0
  9  1  1  0
  9  2  1  0
  9  8  1  0
 10  3  1  0
 10  6  2  0
 11  7  2  0
 11 10  1  0
 12 11  1  0
 13 12  2  0
 14  8  1  0
 14 12  1  0
M  END
>  <NAME>  (5990) 
ISOBUTYL ORTHO TOLUATE

>  <SYNONYMS>  (5990) 
ORTHO TOLUIC ACID ISOBUTYL ESTER

>  <SPECTRUM TYPE>  (5990) 
MS1

>  <INSTRUMENT TYPE>  (5990) 
EI-B

>  <INSTRUMENT>  (5990) 
HITACHI RMU-7M

>  <ION MODE>  (5990) 
P

>  <INCHIKEY>  (5990) 
WBNOXPDHXZDLCY-UHFFFAOYSA-N

>  <FORMULA>  (5990) 
C12H16O2

>  <EXACT MASS>  (5990) 
192.115029752

>  <MW>  (5990) 
192

>  <ID>  (5990) 
JP000055

>  <CONTRIBUTOR>  (5990) 
University of Tokyo Team, {Faculty of Engineering, University of Tokyo

>  <COMMENT>  (5990) 
SMILES=CC(C)COC(=O)c(c1)c(C)ccc1
InChI=InChI=1S/C12H16O2/c1-9(2)8-14-12(13)11-7-5-4-6-10(11)3/h4-7,9H,8H2,1-3H3
computed SMILES=O=C(OCC(C)C)C=1C=CC=CC1C
accession=JP000055
date=2016.01.19 (Created 2008.10.21, modified 2011.05.06)
author=TAJIMA S, GUNMA COLLEGE OF TECHNOLOGY
license=CC BY-NC-SA
exact mass=192.11503
ionization energy=70 eV
ion type=[M]+*
computed spectral entropy=2.5992183507684468
computed normalized entropy=0.7977720489359266
SPLASH=splash10-014i-8900000000-2071c1b9030dee85e8a0
submitter=submitter = University of Tokyo Team (Faculty of Engineering, University of Tokyo)
MoNA Rating=3.75

>  <NUM PEAKS>  (5990) 
26

>  <MASS SPECTRAL PEAKS>  (5990) 
27 6.66
29 15.74
39 16.46
41 25.54
43 2.54
50 1.21
51 3.63
55 1.21
56 7.38
57 28.27
63 5.69
65 28.39
77 2.42
89 6.96
90 12.11
91 63.32
92 5.33
93 2
118 63.14
119 99.99
120 8.17
136 42.86
137 17.68
138 1
192 4.78
193 0.48

>  <PREDICTED SPECTRUM>  (5990) 
14 1
18 14
25 22
26 85
27 221
28 127
29 308
30 18
36 47
37 59
38 98
39 328
40 118
41 400
42 136
43 253
44 69
49 62
50 148
51 204
52 106
53 90
54 45
55 182
56 271
57 318
58 73
61 8
62 115
63 262
64 121
65 390
66 68
67 15
69 46
71 34
73 43
74 60
75 70
76 45
77 209
78 99
79 139
80 8
81 43
82 14
83 86
85 5
86 52
89 267
90 360
91 777
92 260
93 106
96 34
97 19
101 4
102 57
105 169
106 81
107 91
118 841
119 990
120 274
135 135
136 999
137 474
138 164
147 35
192 330
193 91

$$$$

     RDKit          2D

 14 14  0  0  0  0  0  0  0  0999 V2000
    9.0942    0.7512    0.0000 C   0  0  0  0  0  0  0  0  0  0  0  0
   -2.5989   -1.5002    0.0000 C   0  0  0  0  0  0  0  0  0  0  0  0
    7.7951    1.5010    0.0000 C   0  0  0  0  0  0  0  0  0  0  0  0
    6.4962    0.7508    0.0000 C   0  0  0  0  0  0  0  0  0  0  0  0
   -1.3000    0.7500    0.0000 C   0  0  0  0  0  0  0  0  0  0  0  0
   -0.0000   -1.5000    0.0000 C   0  0  0  0  0  0  0  0  0  0  0  0
    0.0000    1.5000    0.0000 C   0  0  0  0  0  0  0  0  0  0  0  0
    1.3000   -0.7500    0.0000 C   0  0  0  0  0  0  0  0  0  0  0  0
    5.1970    1.5006    0.0000 C   0  0  0  0  0  0  0  0  0  0  0  0
   -1.3000   -0.7500    0.0000 C   0  0  0  0  0  0  0  0  0  0  0  0
    1.3000    0.7500    0.0000 C   0  0  0  0  0  0  0  0  0  0  0  0
    2.5989    1.5002    0.0000 C   0  0  0  0  0  0  0  0  0  0  0  0
    2.5987    3.0002    0.0000 O   0  0  0  0  0  0  0  0  0  0  0  0
    3.8981    0.7504    0.0000 O   0  0  0  0  0  0  0  0  0  0  0  0
  3  1  1  0
  4  3  1  0
  7  5  2  0
  8  6  1  0
  9  4  1  0
 10  2  1  0
 10  5  1  0
 10  6  2  0
 11  7  1  0
 11  8  2  0
 12 11  1  0
 13 12  2  0
 14  9  1  0
 14 12  1  0
M  END
>  <NAME>  (5991) 
BUTYL PARA TOLUATE

>  <SYNONYMS>  (5991) 
PARA TOLUIC ACID BUTYL ESTER

>  <SPECTRUM TYPE>  (5991) 
MS1

>  <INSTRUMENT TYPE>  (5991) 
EI-B

>  <INSTRUMENT>  (5991) 
HITACHI RMU-7M

>  <ION MODE>  (5991) 
P

>  <INCHIKEY>  (5991) 
UYGHRCCJWWYXMY-UHFFFAOYSA-N

>  <FORMULA>  (5991) 
C12H16O2

>  <EXACT MASS>  (5991) 
192.115029752

>  <MW>  (5991) 
192

>  <ID>  (5991) 
JP000054

>  <CONTRIBUTOR>  (5991) 
University of Tokyo Team, {Faculty of Engineering, University of Tokyo

>  <COMMENT>  (5991) 
SMILES=CCCCOC(=O)c(c1)ccc(C)c1
InChI=InChI=1S/C12H16O2/c1-3-4-9-14-12(13)11-7-5-10(2)6-8-11/h5-8H,3-4,9H2,1-2H3
computed SMILES=O=C(OCCCC)C1=CC=C(C=C1)C
accession=JP000054
date=2016.01.19 (Created 2008.10.21, modified 2011.05.06)
author=TAJIMA S, GUNMA COLLEGE OF TECHNOLOGY
license=CC BY-NC-SA
exact mass=192.11503
ionization energy=70 eV
ion type=[M]+*
computed spectral entropy=2.333945377627473
computed normalized entropy=0.7666047550540332
SPLASH=splash10-014u-6900000000-17c8d14576c74772204b
submitter=submitter = University of Tokyo Team (Faculty of Engineering, University of Tokyo)
MoNA Rating=3.75

>  <NUM PEAKS>  (5991) 
21

>  <MASS SPECTRAL PEAKS>  (5991) 
27 7.02
29 11.89
39 11.89
41 13.2
50 1.19
51 2.5
55 2.26
56 11.89
63 4.52
65 22.35
89 3.57
90 2.5
91 50.18
92 5.95
93 3.33
119 99.99
120 8.44
136 57.67
137 29.37
138 2.02
192 1.55

>  <PREDICTED SPECTRUM>  (5991) 
14 6
15 13
25 19
26 91
27 303
28 174
29 349
30 15
36 36
37 37
38 91
39 310
40 134
41 349
42 123
43 90
44 20
49 15
50 139
51 207
52 120
53 88
54 36
55 193
56 386
57 76
58 24
61 12
62 119
63 265
64 108
65 407
66 117
67 54
69 33
73 93
74 81
75 43
76 65
77 177
78 90
79 77
81 56
82 2
89 252
90 233
91 708
92 246
93 129
94 24
95 16
102 65
103 4
105 64
107 93
108 19
118 59
119 999
120 338
121 53
122 5
135 20
136 767
137 758
138 279
192 105
193 3

$$$$

     RDKit          2D

 14 14  0  0  0  0  0  0  0  0999 V2000
   -4.5452   -2.6236    0.0000 C   0  0  0  0  0  0  0  0  0  0  0  0
    7.1479   -3.3718    0.0000 C   0  0  0  0  0  0  0  0  0  0  0  0
   -3.2463   -3.3738    0.0000 C   0  0  0  0  0  0  0  0  0  0  0  0
   -1.9471   -2.6240    0.0000 C   0  0  0  0  0  0  0  0  0  0  0  0
    4.5440   -0.3818    0.0000 C   0  0  0  0  0  0  0  0  0  0  0  0
    5.8431   -1.1318    0.0000 C   0  0  0  0  0  0  0  0  0  0  0  0
    3.2495   -1.1240    0.0000 C   0  0  0  0  0  0  0  0  0  0  0  0
   -0.6482   -3.3742    0.0000 C   0  0  0  0  0  0  0  0  0  0  0  0
    4.5481   -3.3748    0.0000 C   0  0  0  0  0  0  0  0  0  0  0  0
    5.8476   -2.6240    0.0000 C   0  0  0  0  0  0  0  0  0  0  0  0
    3.2490   -2.6248    0.0000 C   0  0  0  0  0  0  0  0  0  0  0  0
    1.9499   -3.3746    0.0000 C   0  0  0  0  0  0  0  0  0  0  0  0
    1.9496   -4.8746    0.0000 O   0  0  0  0  0  0  0  0  0  0  0  0
    0.6509   -2.6244    0.0000 O   0  0  0  0  0  0  0  0  0  0  0  0
  3  1  1  0
  4  3  1  0
  6  5  2  0
  7  5  1  0
  8  4  1  0
 10  2  1  0
 10  6  1  0
 10  9  2  0
 11  7  2  0
 11  9  1  0
 12 11  1  0
 13 12  2  0
 14  8  1  0
 14 12  1  0
M  END
>  <NAME>  (5992) 
BUTYL META TOLUATE

>  <SYNONYMS>  (5992) 
META TOLUIC ACID BUTYL ESTER

>  <SPECTRUM TYPE>  (5992) 
MS1

>  <INSTRUMENT TYPE>  (5992) 
EI-B

>  <INSTRUMENT>  (5992) 
HITACHI RMU-7M

>  <ION MODE>  (5992) 
P

>  <INCHIKEY>  (5992) 
KECCQYFSODJESB-UHFFFAOYSA-N

>  <FORMULA>  (5992) 
C12H16O2

>  <EXACT MASS>  (5992) 
192.115029752

>  <MW>  (5992) 
192

>  <ID>  (5992) 
JP000053

>  <CONTRIBUTOR>  (5992) 
University of Tokyo Team, {Faculty of Engineering, University of Tokyo

>  <COMMENT>  (5992) 
SMILES=CCCCOC(=O)c(c1)cc(C)cc1
InChI=InChI=1S/C12H16O2/c1-3-4-8-14-12(13)11-7-5-6-10(2)9-11/h5-7,9H,3-4,8H2,1-2H3
computed SMILES=O=C(OCCCC)C1=CC=CC(=C1)C
accession=JP000053
date=2016.01.19 (Created 2008.10.21, modified 2011.05.06)
author=TAJIMA S, GUNMA COLLEGE OF TECHNOLOGY
license=CC BY-NC-SA
exact mass=192.11503
ionization energy=70 eV
ion type=[M]+*
computed spectral entropy=2.2496017755896456
computed normalized entropy=0.6988780860105895
SPLASH=splash10-014r-4900000000-da75d91b92d403dc111c
submitter=submitter = University of Tokyo Team (Faculty of Engineering, University of Tokyo)
MoNA Rating=3.75

>  <NUM PEAKS>  (5992) 
25

>  <MASS SPECTRAL PEAKS>  (5992) 
27 2.33
29 5.74
39 4.98
41 7.36
51 1.25
55 2.27
56 9.2
57 1.08
63 2.27
65 14.67
77 1.08
89 3.09
90 2.54
91 54.09
92 9.8
93 6.39
118 1.19
119 99.99
120 9.53
135 1.08
136 78.02
137 35.08
138 2.71
192 3.79
193 0.43

>  <PREDICTED SPECTRUM>  (5992) 
14 5
15 2
18 4
25 15
26 75
27 253
28 162
29 311
30 8
36 23
37 34
38 91
39 298
40 127
41 321
42 100
43 97
44 47
49 28
50 134
51 187
52 108
53 75
54 35
55 134
56 363
57 76
58 16
61 37
62 122
63 261
64 117
65 389
66 102
67 38
69 47
73 82
74 89
75 46
76 42
77 156
78 63
79 51
81 40
82 17
89 262
90 212
91 753
92 240
93 139
94 17
95 19
96 11
102 60
103 0
105 33
107 64
108 58
118 77
119 999
120 338
121 79
136 873
137 760
138 232
139 5
192 144
193 34

$$$$

     RDKit          2D

 14 14  0  0  0  0  0  0  0  0999 V2000
    8.7642    0.1912    0.0000 C   0  0  0  0  0  0  0  0  0  0  0  0
   -0.3325    2.4400    0.0000 C   0  0  0  0  0  0  0  0  0  0  0  0
    7.4651    0.9410    0.0000 C   0  0  0  0  0  0  0  0  0  0  0  0
    6.1662    0.1908    0.0000 C   0  0  0  0  0  0  0  0  0  0  0  0
   -1.6200   -1.3100    0.0000 C   0  0  0  0  0  0  0  0  0  0  0  0
   -0.3300   -2.0600    0.0000 C   0  0  0  0  0  0  0  0  0  0  0  0
   -1.6200    0.1900    0.0000 C   0  0  0  0  0  0  0  0  0  0  0  0
    0.9700   -1.3100    0.0000 C   0  0  0  0  0  0  0  0  0  0  0  0
    4.8670    0.9406    0.0000 C   0  0  0  0  0  0  0  0  0  0  0  0
   -0.3300    0.9400    0.0000 C   0  0  0  0  0  0  0  0  0  0  0  0
    0.9700    0.1900    0.0000 C   0  0  0  0  0  0  0  0  0  0  0  0
    2.2689    0.9402    0.0000 C   0  0  0  0  0  0  0  0  0  0  0  0
    2.2687    2.4402    0.0000 O   0  0  0  0  0  0  0  0  0  0  0  0
    3.5681    0.1904    0.0000 O   0  0  0  0  0  0  0  0  0  0  0  0
  3  1  1  0
  4  3  1  0
  6  5  2  0
  7  5  1  0
  8  6  1  0
  9  4  1  0
 10  2  1  0
 10  7  2  0
 11  8  2  0
 11 10  1  0
 12 11  1  0
 13 12  2  0
 14  9  1  0
 14 12  1  0
M  END
>  <NAME>  (5993) 
BUTYL ORTHO TOLUATE

>  <SYNONYMS>  (5993) 
ORTHO TOLUIC ACID BUTYL ESTER

>  <SPECTRUM TYPE>  (5993) 
MS1

>  <INSTRUMENT TYPE>  (5993) 
EI-B

>  <INSTRUMENT>  (5993) 
HITACHI RMU-7M

>  <ION MODE>  (5993) 
P

>  <INCHIKEY>  (5993) 
GALQLODNTKQGFE-UHFFFAOYSA-N

>  <FORMULA>  (5993) 
C12H16O2

>  <EXACT MASS>  (5993) 
192.115029752

>  <MW>  (5993) 
192

>  <ID>  (5993) 
JP000052

>  <CONTRIBUTOR>  (5993) 
University of Tokyo Team, {Faculty of Engineering, University of Tokyo

>  <COMMENT>  (5993) 
SMILES=CCCCOC(=O)c(c1)c(C)ccc1
InChI=InChI=1S/C12H16O2/c1-3-4-9-14-12(13)11-8-6-5-7-10(11)2/h5-8H,3-4,9H2,1-2H3
computed SMILES=O=C(OCCCC)C=1C=CC=CC1C
accession=JP000052
date=2016.01.19 (Created 2008.10.21, modified 2011.05.06)
author=TAJIMA S, GUNMA COLLEGE OF TECHNOLOGY
license=CC BY-NC-SA
exact mass=192.11503
ionization energy=70 eV
ion type=[M]+*
computed spectral entropy=2.5841561893967895
computed normalized entropy=0.793149054744108
SPLASH=splash10-014l-7900000000-83804270fa93cf6ad0ba
submitter=submitter = University of Tokyo Team (Faculty of Engineering, University of Tokyo)
MoNA Rating=3.75

>  <NUM PEAKS>  (5993) 
26

>  <MASS SPECTRAL PEAKS>  (5993) 
27 8.4
29 25.21
39 14.48
41 26.97
51 3.69
55 2.9
56 7.61
57 16.3
63 4.77
64 1.14
65 27.6
77 3.07
79 1.19
89 5.91
90 15.11
91 67.75
92 6.25
93 2.1
118 99.99
119 92.05
120 7.61
135 3.52
136 64.79
137 16.07
192 10.96
193 1.31

>  <PREDICTED SPECTRUM>  (5993) 
14 0
18 13
25 20
26 85
27 223
28 135
29 302
36 38
37 40
38 76
39 295
40 107
41 332
42 113
43 157
44 41
49 44
50 116
51 179
52 87
53 69
54 34
55 136
56 228
57 230
58 55
61 26
62 111
63 236
64 101
65 347
66 43
67 6
73 26
74 49
75 74
76 30
77 198
78 80
79 126
80 20
81 19
83 22
86 5
89 265
90 347
91 733
92 246
93 115
96 8
101 37
102 51
105 144
106 63
107 47
117 37
118 845
119 969
120 273
135 156
136 999
137 463
138 140
147 55
149 21
192 308
193 91

$$$$

     RDKit          2D

 13 13  0  0  0  0  0  0  0  0999 V2000
    6.4962    0.7508    0.0000 C   0  0  0  0  0  0  0  0  0  0  0  0
    5.1968    3.0006    0.0000 C   0  0  0  0  0  0  0  0  0  0  0  0
   -2.5989   -1.5002    0.0000 C   0  0  0  0  0  0  0  0  0  0  0  0
   -1.3000    0.7500    0.0000 C   0  0  0  0  0  0  0  0  0  0  0  0
   -0.0000   -1.5000    0.0000 C   0  0  0  0  0  0  0  0  0  0  0  0
    0.0000    1.5000    0.0000 C   0  0  0  0  0  0  0  0  0  0  0  0
    1.3000   -0.7500    0.0000 C   0  0  0  0  0  0  0  0  0  0  0  0
    5.1970    1.5006    0.0000 C   0  0  0  0  0  0  0  0  0  0  0  0
   -1.3000   -0.7500    0.0000 C   0  0  0  0  0  0  0  0  0  0  0  0
    1.3000    0.7500    0.0000 C   0  0  0  0  0  0  0  0  0  0  0  0
    2.5989    1.5002    0.0000 C   0  0  0  0  0  0  0  0  0  0  0  0
    2.5987    3.0002    0.0000 O   0  0  0  0  0  0  0  0  0  0  0  0
    3.8981    0.7504    0.0000 O   0  0  0  0  0  0  0  0  0  0  0  0
  6  4  2  0
  7  5  1  0
  8  1  1  0
  8  2  1  0
  9  3  1  0
  9  4  1  0
  9  5  2  0
 10  6  1  0
 10  7  2  0
 11 10  1  0
 12 11  2  0
 13  8  1  0
 13 11  1  0
M  END
>  <NAME>  (5994) 
ISOPROPYL PARA TOLUATE

>  <SYNONYMS>  (5994) 
PARA TOLUIC ACID ISOPROPYL ESTER

>  <SPECTRUM TYPE>  (5994) 
MS1

>  <INSTRUMENT TYPE>  (5994) 
EI-B

>  <INSTRUMENT>  (5994) 
HITACHI RMU-7M

>  <ION MODE>  (5994) 
P

>  <INCHIKEY>  (5994) 
ONWRVKPIVJMSHO-UHFFFAOYSA-N

>  <FORMULA>  (5994) 
C11H14O2

>  <EXACT MASS>  (5994) 
178.099379688

>  <MW>  (5994) 
178

>  <ID>  (5994) 
JP000051

>  <CONTRIBUTOR>  (5994) 
University of Tokyo Team, {Faculty of Engineering, University of Tokyo

>  <COMMENT>  (5994) 
SMILES=CC(C)OC(=O)c(c1)ccc(C)c1
InChI=InChI=1S/C11H14O2/c1-8(2)13-11(12)10-6-4-9(3)5-7-10/h4-8H,1-3H3
computed SMILES=O=C(OC(C)C)C1=CC=C(C=C1)C
accession=JP000051
date=2016.01.19 (Created 2008.10.21, modified 2011.05.06)
author=TAJIMA S, GUNMA COLLEGE OF TECHNOLOGY
license=CC BY-NC-SA
exact mass=178.09938
ionization energy=70 eV
ion type=[M]+*
computed spectral entropy=2.2279981782959166
computed normalized entropy=0.7318054715871721
SPLASH=splash10-014i-5900000000-1f2d95620c2768a08500
submitter=submitter = University of Tokyo Team (Faculty of Engineering, University of Tokyo)
MoNA Rating=3.75

>  <NUM PEAKS>  (5994) 
21

>  <MASS SPECTRAL PEAKS>  (5994) 
27 2.66
39 5
41 6.46
43 9.77
51 1.21
59 18.56
63 2.1
65 12.27
89 2.66
90 1.78
91 43.18
92 7.18
93 1.21
119 99.99
120 14.37
121 1.05
136 42.62
137 7.75
163 2.5
178 9.77
179 0.89

>  <PREDICTED SPECTRUM>  (5994) 
14 9
15 24
25 14
26 80
27 226
28 44
29 71
31 3
36 18
37 51
38 120
39 359
40 149
41 348
42 157
43 375
44 100
45 86
49 29
50 187
51 248
52 149
53 165
57 11
58 18
59 190
60 4
61 31
62 141
63 292
64 142
65 470
66 157
67 61
73 18
74 148
75 111
76 53
77 200
78 13
79 169
80 25
87 101
89 283
90 226
91 809
92 297
93 132
94 8
95 5
102 34
105 65
107 170
108 88
109 2
115 47
118 32
119 999
120 330
121 229
135 98
136 673
137 255
138 209
178 295
179 68

$$$$

     RDKit          2D

 13 13  0  0  0  0  0  0  0  0999 V2000
   -1.6200    0.1898    0.0000 C   0  0  0  0  0  0  0  0  0  0  0  0
   -0.3206   -2.0600    0.0000 C   0  0  0  0  0  0  0  0  0  0  0  0
    4.8787   -2.0594    0.0000 C   0  0  0  0  0  0  0  0  0  0  0  0
    6.1662    1.6906    0.0000 C   0  0  0  0  0  0  0  0  0  0  0  0
    4.8762    2.4406    0.0000 C   0  0  0  0  0  0  0  0  0  0  0  0
    6.1662    0.1906    0.0000 C   0  0  0  0  0  0  0  0  0  0  0  0
    3.5762    1.6906    0.0000 C   0  0  0  0  0  0  0  0  0  0  0  0
   -0.3208   -0.5600    0.0000 C   0  0  0  0  0  0  0  0  0  0  0  0
    4.8762   -0.5594    0.0000 C   0  0  0  0  0  0  0  0  0  0  0  0
    3.5762    0.1906    0.0000 C   0  0  0  0  0  0  0  0  0  0  0  0
    2.2772   -0.5596    0.0000 C   0  0  0  0  0  0  0  0  0  0  0  0
    2.2775   -2.0596    0.0000 O   0  0  0  0  0  0  0  0  0  0  0  0
    0.9781    0.1902    0.0000 O   0  0  0  0  0  0  0  0  0  0  0  0
  5  4  2  0
  6  4  1  0
  7  5  1  0
  8  1  1  0
  8  2  1  0
  9  3  1  0
  9  6  2  0
 10  7  2  0
 10  9  1  0
 11 10  1  0
 12 11  2  0
 13  8  1  0
 13 11  1  0
M  END
>  <NAME>  (5995) 
ISOPROPYL ORTHO TOLUATE

>  <SYNONYMS>  (5995) 
ORTHO TOLUIC ACID ISOPROPYL ESTER

>  <SPECTRUM TYPE>  (5995) 
MS1

>  <INSTRUMENT TYPE>  (5995) 
EI-B

>  <INSTRUMENT>  (5995) 
HITACHI RMU-7M

>  <ION MODE>  (5995) 
P

>  <INCHIKEY>  (5995) 
GKOTWEXRHKVLLK-UHFFFAOYSA-N

>  <FORMULA>  (5995) 
C11H14O2

>  <EXACT MASS>  (5995) 
178.099379688

>  <MW>  (5995) 
178

>  <ID>  (5995) 
JP000050

>  <CONTRIBUTOR>  (5995) 
University of Tokyo Team, {Faculty of Engineering, University of Tokyo

>  <COMMENT>  (5995) 
SMILES=CC(C)OC(=O)c(c1)c(C)ccc1
InChI=InChI=1S/C11H14O2/c1-8(2)13-11(12)10-7-5-4-6-9(10)3/h4-8H,1-3H3
computed SMILES=O=C(OC(C)C)C=1C=CC=CC1C
accession=JP000050
date=2016.01.19 (Created 2008.10.21, modified 2011.05.06)
author=TAJIMA S, GUNMA COLLEGE OF TECHNOLOGY
license=CC BY-NC-SA
exact mass=178.09938
ionization energy=70 eV
ion type=[M]+*
computed spectral entropy=2.3597275336042824
computed normalized entropy=0.7634083223413888
SPLASH=splash10-014i-5900000000-777b5e2de90f87313538
submitter=submitter = University of Tokyo Team (Faculty of Engineering, University of Tokyo)
MoNA Rating=3.75

>  <NUM PEAKS>  (5995) 
22

>  <MASS SPECTRAL PEAKS>  (5995) 
27 4.53
39 11.06
41 9.83
43 11.64
51 1.94
59 1.03
63 3.75
65 15.52
77 3.1
79 1.42
89 8.15
90 24.97
91 60.09
92 5.82
118 99.99
119 80.34
120 7.12
135 2.52
136 52.72
137 4.59
178 14.42
179 1.88

>  <PREDICTED SPECTRUM>  (5995) 
14 2
15 1
25 14
26 86
27 228
28 35
29 82
36 5
37 47
38 95
39 314
40 105
41 290
42 113
43 375
44 57
45 25
49 33
50 155
51 214
52 100
53 66
54 5
59 53
61 68
62 120
63 268
64 125
65 391
66 78
67 40
68 0
74 56
75 44
76 5
77 168
78 70
79 135
81 6
89 325
90 365
91 778
92 237
93 88
105 132
107 105
108 44
118 944
119 999
120 261
121 55
133 20
135 185
136 874
137 209
178 412
179 138

$$$$

     RDKit          2D

 12 12  0  0  0  0  0  0  0  0999 V2000
    6.1662    0.1908    0.0000 C   0  0  0  0  0  0  0  0  0  0  0  0
   -0.3325    2.4400    0.0000 C   0  0  0  0  0  0  0  0  0  0  0  0
    4.8670    0.9406    0.0000 C   0  0  0  0  0  0  0  0  0  0  0  0
   -1.6200   -1.3100    0.0000 C   0  0  0  0  0  0  0  0  0  0  0  0
   -0.3300   -2.0600    0.0000 C   0  0  0  0  0  0  0  0  0  0  0  0
   -1.6200    0.1900    0.0000 C   0  0  0  0  0  0  0  0  0  0  0  0
    0.9700   -1.3100    0.0000 C   0  0  0  0  0  0  0  0  0  0  0  0
   -0.3300    0.9400    0.0000 C   0  0  0  0  0  0  0  0  0  0  0  0
    0.9700    0.1900    0.0000 C   0  0  0  0  0  0  0  0  0  0  0  0
    2.2689    0.9402    0.0000 C   0  0  0  0  0  0  0  0  0  0  0  0
    2.2687    2.4402    0.0000 O   0  0  0  0  0  0  0  0  0  0  0  0
    3.5681    0.1904    0.0000 O   0  0  0  0  0  0  0  0  0  0  0  0
  3  1  1  0
  5  4  2  0
  6  4  1  0
  7  5  1  0
  8  2  1  0
  8  6  2  0
  9  7  2  0
  9  8  1  0
 10  9  1  0
 11 10  2  0
 12  3  1  0
 12 10  1  0
M  END
>  <NAME>  (5996) 
ETHYL ORTHO TOLUATE

>  <SYNONYMS>  (5996) 
ORTHO TOLUIC ACID ETHYL ESTER

>  <SPECTRUM TYPE>  (5996) 
MS1

>  <INSTRUMENT TYPE>  (5996) 
EI-B

>  <INSTRUMENT>  (5996) 
HITACHI RMU-7M

>  <ION MODE>  (5996) 
P

>  <INCHIKEY>  (5996) 
SOUAXOGPALPTTC-UHFFFAOYSA-N

>  <FORMULA>  (5996) 
C10H12O2

>  <EXACT MASS>  (5996) 
164.083729624

>  <MW>  (5996) 
164

>  <ID>  (5996) 
JP000048

>  <CONTRIBUTOR>  (5996) 
University of Tokyo Team, {Faculty of Engineering, University of Tokyo

>  <COMMENT>  (5996) 
SMILES=CCOC(=O)c(c1)c(C)ccc1
InChI=InChI=1S/C10H12O2/c1-3-12-10(11)9-7-5-4-6-8(9)2/h4-7H,3H2,1-2H3
computed SMILES=O=C(OCC)C=1C=CC=CC1C
accession=JP000048
date=2016.01.19 (Created 2008.10.21, modified 2011.05.06)
author=TAJIMA S, GUNMA COLLEGE OF TECHNOLOGY
license=CC BY-NC-SA
exact mass=164.08373
ionization energy=70 eV
ion type=[M]+*
computed spectral entropy=2.5423005525135007
computed normalized entropy=0.7803024013700168
SPLASH=splash10-014l-8900000000-460ffe9149b6d2bc5e2b
submitter=submitter = University of Tokyo Team (Faculty of Engineering, University of Tokyo)
MoNA Rating=3.75

>  <NUM PEAKS>  (5996) 
26

>  <MASS SPECTRAL PEAKS>  (5996) 
27 4.21
29 4.11
39 11.58
41 3.16
50 2
51 5.26
62 2
63 8.95
64 2.11
65 33.68
66 1.05
77 8.42
79 10.42
89 11.26
90 30
91 84.53
92 7.05
105 2.63
118 77.68
119 99.99
120 10.84
135 18.95
136 8.32
149 4.74
164 26.32
165 2.63

>  <PREDICTED SPECTRUM>  (5996) 
14 12
15 17
17 1
18 5
19 2
25 13
26 106
27 247
28 108
29 309
30 25
31 9
37 55
38 128
39 365
40 122
41 237
43 122
44 53
45 123
50 126
51 249
52 156
53 127
61 82
62 145
63 280
64 171
65 414
66 91
74 46
75 78
76 26
77 174
78 130
79 98
88 10
89 282
90 346
91 767
92 216
105 18
107 12
117 4
118 698
119 999
120 279
121 96
135 223
136 280
137 93
149 77
163 52
164 624
165 208

$$$$

     RDKit          2D

 10 10  0  0  0  0  0  0  0  0999 V2000
   -0.3325    2.8100    0.0000 C   0  0  0  0  0  0  0  0  0  0  0  0
   -1.6200   -0.9400    0.0000 C   0  0  0  0  0  0  0  0  0  0  0  0
   -1.6200    0.5600    0.0000 C   0  0  0  0  0  0  0  0  0  0  0  0
   -0.3300   -1.6900    0.0000 C   0  0  0  0  0  0  0  0  0  0  0  0
    0.9700    0.5600    0.0000 C   0  0  0  0  0  0  0  0  0  0  0  0
   -0.3300    1.3100    0.0000 C   0  0  0  0  0  0  0  0  0  0  0  0
    0.9700   -0.9400    0.0000 C   0  0  0  0  0  0  0  0  0  0  0  0
    2.2689   -1.6902    0.0000 C   0  0  0  0  0  0  0  0  0  0  0  0
    3.5681   -0.9404    0.0000 O   0  0  0  0  0  0  0  0  0  0  0  0
    2.2687   -3.1902    0.0000 O   0  0  0  0  0  0  0  0  0  0  0  0
  3  2  2  0
  4  2  1  0
  6  1  1  0
  6  3  1  0
  6  5  2  0
  7  4  2  0
  7  5  1  0
  8  7  1  0
  9  8  2  0
 10  8  1  0
M  END
>  <NAME>  (5997) 
META TOLUIC ACID

>  <SYNONYMS>  (5997) 


>  <SPECTRUM TYPE>  (5997) 
MS1

>  <INSTRUMENT TYPE>  (5997) 
EI-B

>  <INSTRUMENT>  (5997) 
HITACHI RMU-7M

>  <ION MODE>  (5997) 
P

>  <INCHIKEY>  (5997) 
GPSDUZXPYCFOSQ-UHFFFAOYSA-N

>  <FORMULA>  (5997) 
C8H8O2

>  <EXACT MASS>  (5997) 
136.052429496

>  <MW>  (5997) 
136

>  <ID>  (5997) 
JP000044

>  <CONTRIBUTOR>  (5997) 
University of Tokyo Team, {Faculty of Engineering, University of Tokyo

>  <COMMENT>  (5997) 
SMILES=Cc(c1)cc(cc1)C(O)=O
InChI=InChI=1S/C8H8O2/c1-6-3-2-4-7(5-6)8(9)10/h2-5H,1H3,(H,9,10)
computed SMILES=O=C(O)C1=CC=CC(=C1)C
accession=JP000044
date=2016.01.19 (Created 2008.10.21, modified 2011.05.06)
author=TAJIMA S, GUNMA COLLEGE OF TECHNOLOGY
license=CC BY-NC-SA
exact mass=136.05243
ionization energy=70 eV
ion type=[M]+*
computed spectral entropy=2.2898838040866374
computed normalized entropy=0.7303103263445408
SPLASH=splash10-0006-9300000000-19cda220bb49ced38298
submitter=submitter = University of Tokyo Team (Faculty of Engineering, University of Tokyo)
MoNA Rating=3.75

>  <NUM PEAKS>  (5997) 
23

>  <MASS SPECTRAL PEAKS>  (5997) 
27 1.99
38 1.81
39 14.04
41 4.16
43 2.72
45 1.81
50 3.62
51 5.43
62 2.99
63 8.61
65 20.38
77 4.53
79 1.81
89 6.34
90 5.89
91 99.99
92 16.76
118 1.02
119 27.9
120 1.81
135 2.08
136 43.57
137 3.44

>  <PREDICTED SPECTRUM>  (5997) 
14 6
15 22
16 8
17 48
18 39
25 11
26 44
27 87
28 41
29 61
36 9
37 105
38 158
39 369
40 81
41 102
43 75
44 84
45 308
49 25
50 241
51 345
52 144
53 170
58 67
60 54
61 157
62 211
63 346
64 157
65 494
66 115
67 38
69 58
70 6
74 144
75 126
76 6
77 323
78 177
79 215
80 3
81 39
86 80
87 51
89 318
90 317
91 874
92 302
93 141
105 27
107 148
108 72
115 82
117 106
118 275
119 512
120 80
121 399
122 55
133 10
134 83
135 535
136 999
137 287
138 53

$$$$

     RDKit          2D

 10 10  0  0  0  0  0  0  0  0999 V2000
    2.2806   -2.0598    0.0000 C   0  0  0  0  0  0  0  0  0  0  0  0
    3.5681    1.6902    0.0000 C   0  0  0  0  0  0  0  0  0  0  0  0
    2.2781    2.4402    0.0000 C   0  0  0  0  0  0  0  0  0  0  0  0
    3.5681    0.1902    0.0000 C   0  0  0  0  0  0  0  0  0  0  0  0
    0.9781    1.6902    0.0000 C   0  0  0  0  0  0  0  0  0  0  0  0
    2.2781   -0.5598    0.0000 C   0  0  0  0  0  0  0  0  0  0  0  0
    0.9781    0.1902    0.0000 C   0  0  0  0  0  0  0  0  0  0  0  0
   -0.3208   -0.5600    0.0000 C   0  0  0  0  0  0  0  0  0  0  0  0
   -0.3206   -2.0600    0.0000 O   0  0  0  0  0  0  0  0  0  0  0  0
   -1.6200    0.1898    0.0000 O   0  0  0  0  0  0  0  0  0  0  0  0
  3  2  2  0
  4  2  1  0
  5  3  1  0
  6  1  1  0
  6  4  2  0
  7  5  2  0
  7  6  1  0
  8  7  1  0
  9  8  2  0
 10  8  1  0
M  END
>  <NAME>  (5998) 
ORTHO TOLUIC ACID

>  <SYNONYMS>  (5998) 


>  <SPECTRUM TYPE>  (5998) 
MS1

>  <INSTRUMENT TYPE>  (5998) 
EI-B

>  <INSTRUMENT>  (5998) 
HITACHI RMU-7M

>  <ION MODE>  (5998) 
P

>  <INCHIKEY>  (5998) 
ZWLPBLYKEWSWPD-UHFFFAOYSA-N

>  <FORMULA>  (5998) 
C8H8O2

>  <EXACT MASS>  (5998) 
136.052429496

>  <MW>  (5998) 
136

>  <ID>  (5998) 
JP000043

>  <CONTRIBUTOR>  (5998) 
University of Tokyo Team, {Faculty of Engineering, University of Tokyo

>  <COMMENT>  (5998) 
SMILES=OC(=O)c(c1)c(C)ccc1
InChI=InChI=1S/C8H8O2/c1-6-4-2-3-5-7(6)8(9)10/h2-5H,1H3,(H,9,10)
computed SMILES=O=C(O)C=1C=CC=CC1C
accession=JP000043
date=2016.01.19 (Created 2008.10.21, modified 2011.05.06)
author=TAJIMA S, GUNMA COLLEGE OF TECHNOLOGY
license=CC BY-NC-SA
exact mass=136.05243
ionization energy=70 eV
ion type=[M]+*
computed spectral entropy=2.8491504078270977
computed normalized entropy=0.7832530372397851
SPLASH=splash10-00ko-9400000000-3ea21e5a2da3e36feaa4
submitter=submitter = University of Tokyo Team (Faculty of Engineering, University of Tokyo)
MoNA Rating=3.75

>  <NUM PEAKS>  (5998) 
38

>  <MASS SPECTRAL PEAKS>  (5998) 
27 4.57
29 1.36
37 2.17
38 5.43
39 29.13
40 2.61
41 4.89
43 3.59
44 2.72
45 9.4
50 8.15
51 14.46
52 2.88
53 3.75
59 8.15
61 2.66
62 7.06
63 18.64
64 4.89
65 37.07
66 2.5
77 11.68
79 4.08
89 17.93
90 75.71
91 99.99
92 8.8
93 1.58
105 2.88
107 1.09
118 84.89
119 24.73
120 2.06
121 5.43
135 2.5
136 56.3
137 4.89
138 3.42

>  <PREDICTED SPECTRUM>  (5998) 
14 18
15 27
16 2
17 30
18 22
19 12
25 11
26 79
27 87
28 53
29 89
31 38
36 29
37 141
38 200
39 454
40 138
41 155
43 55
44 74
45 285
46 4
49 70
50 317
51 460
52 223
53 191
54 20
55 21
56 14
58 78
60 37
61 234
62 280
63 481
64 235
65 497
66 116
67 32
73 24
74 186
75 98
76 7
77 386
78 232
79 233
81 43
86 97
87 119
89 546
90 583
91 999
92 316
93 141
107 119
108 58
109 4
117 174
118 658
119 575
120 55
121 141
134 7
135 189
136 653
137 187
138 11

$$$$

     RDKit          2D

 13 13  0  0  0  0  0  0  0  0999 V2000
   -2.5476    4.3306    0.0000 C   0  0  0  0  0  0  0  0  0  0  0  0
   -4.5966    3.7816    0.0000 C   0  0  0  0  0  0  0  0  0  0  0  0
   -4.0476    1.7326    0.0000 C   0  0  0  0  0  0  0  0  0  0  0  0
    3.1976    0.7816    0.0000 C   0  0  0  0  0  0  0  0  0  0  0  0
    3.1981    2.2824    0.0000 C   0  0  0  0  0  0  0  0  0  0  0  0
    1.8981    0.0308    0.0000 C   0  0  0  0  0  0  0  0  0  0  0  0
    1.8990    3.0324    0.0000 C   0  0  0  0  0  0  0  0  0  0  0  0
    0.5990    0.7808    0.0000 C   0  0  0  0  0  0  0  0  0  0  0  0
    0.5995    2.2816    0.0000 C   0  0  0  0  0  0  0  0  0  0  0  0
   -0.6995    3.0316    0.0000 C   0  0  0  0  0  0  0  0  0  0  0  0
   -3.2976    3.0316    0.0000 C   0  0  0  0  0  0  0  0  0  0  0  0
   -0.6995    4.5316    0.0000 O   0  0  0  0  0  0  0  0  0  0  0  0
   -1.9986    2.2816    0.0000 O   0  0  0  0  0  0  0  0  0  0  0  0
  5  4  2  0
  6  4  1  0
  7  5  1  0
  8  6  2  0
  9  7  2  0
  9  8  1  0
 10  9  1  0
 11  1  1  0
 11  2  1  0
 11  3  1  0
 12 10  2  0
 13 10  1  0
 13 11  1  0
M  END
>  <NAME>  (5999) 
TERTBUTYL BENZOATE

>  <SYNONYMS>  (5999) 
BENZOIC ACID TERTBUTYL ESTER

>  <SPECTRUM TYPE>  (5999) 
MS1

>  <INSTRUMENT TYPE>  (5999) 
EI-B

>  <INSTRUMENT>  (5999) 
HITACHI RMU-7M

>  <ION MODE>  (5999) 
P

>  <INCHIKEY>  (5999) 
LYDRKKWPKKEMNZ-UHFFFAOYSA-N

>  <FORMULA>  (5999) 
C11H14O2

>  <EXACT MASS>  (5999) 
178.099379688

>  <MW>  (5999) 
178

>  <ID>  (5999) 
JP000042

>  <CONTRIBUTOR>  (5999) 
University of Tokyo Team, {Faculty of Engineering, University of Tokyo

>  <COMMENT>  (5999) 
SMILES=CC(C)(C)OC(=O)c(c1)cccc1
InChI=InChI=1S/C11H14O2/c1-11(2,3)13-10(12)9-7-5-4-6-8-9/h4-8H,1-3H3
computed SMILES=O=C(OC(C)(C)C)C=1C=CC=CC1
accession=JP000042
date=2016.01.19 (Created 2008.10.21, modified 2011.05.06)
author=TAJIMA S, GUNMA COLLEGE OF TECHNOLOGY
license=CC BY-NC-SA
exact mass=178.09938
ionization energy=70 eV
ion type=[M]+*
computed spectral entropy=2.339113406619446
computed normalized entropy=0.7808152374859706
SPLASH=splash10-0a4i-9700000000-d4ff41df8e7fc8ada097
submitter=submitter = University of Tokyo Team (Faculty of Engineering, University of Tokyo)
MoNA Rating=3.75

>  <NUM PEAKS>  (5999) 
20

>  <MASS SPECTRAL PEAKS>  (5999) 
27 3.89
29 9.89
39 7.14
41 19.34
43 2.95
50 5.36
51 17.08
55 1.62
56 28.15
57 66.44
58 2.56
76 2.36
77 40.11
78 5.41
79 5.9
105 99.99
106 7.28
122 6.99
123 59.1
124 4.18

>  <PREDICTED SPECTRUM>  (5999) 
26 43
27 125
28 40
29 163
37 10
38 40
39 192
40 70
41 388
42 90
43 122
44 55
45 10
49 47
50 213
51 352
52 113
53 150
54 28
55 152
56 400
57 534
58 77
59 100
61 28
62 38
63 42
65 48
74 39
75 54
76 105
77 628
78 234
79 78
92 4
94 27
103 67
105 999
106 289
107 108
120 22
121 75
122 366
123 485
124 104
163 44

$$$$

     RDKit          2D

  8  8  0  0  0  0  0  0  0  0999 V2000
    1.9489    1.5002    0.0000 C   0  0  0  0  0  0  0  0  0  0  0  0
   -1.9500    0.7500    0.0000 C   0  0  0  0  0  0  0  0  0  0  0  0
   -1.9500   -0.7500    0.0000 C   0  0  0  0  0  0  0  0  0  0  0  0
   -0.6500    1.5000    0.0000 C   0  0  0  0  0  0  0  0  0  0  0  0
   -0.6500   -1.5000    0.0000 C   0  0  0  0  0  0  0  0  0  0  0  0
    0.6500    0.7500    0.0000 C   0  0  0  0  0  0  0  0  0  0  0  0
    0.6500   -0.7500    0.0000 C   0  0  0  0  0  0  0  0  0  0  0  0
    1.9489   -1.5002    0.0000 O   0  0  0  0  0  0  0  0  0  0  0  0
  3  2  1  0
  4  2  1  0
  5  3  1  0
  6  1  1  0
  6  4  1  0
  7  5  1  0
  7  6  1  0
  8  7  1  0
M  END
>  <NAME>  (6000) 
2-METHYLCYCLOHEXANOL

>  <SYNONYMS>  (6000) 


>  <SPECTRUM TYPE>  (6000) 
MS1

>  <INSTRUMENT TYPE>  (6000) 
EI-B

>  <INSTRUMENT>  (6000) 
VARIAN MAT-44

>  <ION MODE>  (6000) 
P

>  <INCHIKEY>  (6000) 
NDVWOBYBJYUSMF-UHFFFAOYSA-N

>  <FORMULA>  (6000) 
C7H14O

>  <EXACT MASS>  (6000) 
114.104465068

>  <MW>  (6000) 
114

>  <ID>  (6000) 
JP000035

>  <CONTRIBUTOR>  (6000) 
University of Tokyo Team, {Faculty of Engineering, University of Tokyo

>  <COMMENT>  (6000) 
SMILES=CC(C1)C(O)CCC1
InChI=InChI=1S/C7H14O/c1-6-4-2-3-5-7(6)8/h6-8H,2-5H2,1H3
computed SMILES=OC1CCCCC1C
accession=JP000035
date=2016.01.19 (Created 2008.10.21, modified 2011.05.06)
author=KOGA M, UNIV. OF OCCUPATIONAL AND ENVIRONMENTAL HEALTH
license=CC BY-NC-SA
exact mass=114.10447
ionization energy=70 eV
ion type=[M]+*
computed spectral entropy=3.120320447580244
computed normalized entropy=0.8348304602195794
SPLASH=splash10-0aor-9000000000-07d94413146b493a05cf
submitter=submitter = University of Tokyo Team (Faculty of Engineering, University of Tokyo)
MoNA Rating=3.75

>  <NUM PEAKS>  (6000) 
42

>  <MASS SPECTRAL PEAKS>  (6000) 
51 3.99
53 10.5
54 22.05
55 56.72
56 20.37
57 99.99
58 20.16
59 2.31
60 3.78
61 2.52
65 4.41
66 6.3
67 43.06
68 63.65
69 15.33
70 19.95
71 44.32
72 9.87
73 3.57
74 2.73
75 3.15
77 3.99
79 9.87
80 6.3
81 88.02
82 19.74
83 7.77
84 5.67
85 9.03
86 8.61
88 2.1
91 3.15
95 10.5
96 65.54
97 11.76
98 7.56
99 5.46
110 2.1
111 7.56
112 5.25
113 3.78
114 9.03

>  <PREDICTED SPECTRUM>  (6000) 
17 5
18 23
26 83
27 355
28 190
29 451
30 0
31 229
32 28
37 22
38 99
39 480
40 234
41 902
42 449
43 529
44 315
45 231
46 16
50 131
51 231
52 126
53 366
54 450
55 864
56 716
57 999
58 387
59 166
60 82
63 23
65 143
66 199
67 652
68 567
69 607
70 524
71 473
72 150
73 69
77 248
78 142
79 163
81 760
82 389
83 363
84 64
85 358
86 224
93 132
94 42
95 203
96 785
97 465
99 198
114 236

$$$$

     RDKit          2D

 30 33  0  0  1  0  0  0  0  0999 V2000
    9.5655    7.2342    0.0000 C   0  0  0  0  0  0  0  0  0  0  0  0
   10.0746    4.6865    0.0000 C   0  0  0  0  0  0  0  0  0  0  0  0
    8.1228    2.9718    0.0000 C   0  0  0  0  0  0  0  0  0  0  0  0
    3.2009    4.6377    0.0000 C   0  0  0  0  0  0  0  0  0  0  0  0
   -1.6125    0.9400    0.0000 C   0  0  0  0  0  0  0  0  0  0  0  0
    2.4507    3.1203    0.0000 C   0  0  0  0  0  0  0  0  0  0  0  0
    8.0946    6.9403    0.0000 C   0  0  0  0  0  0  0  0  0  0  0  0
    5.6618    3.8047    0.0000 C   0  0  0  0  0  0  0  0  0  0  0  0
    6.1427    5.2256    0.0000 C   0  0  0  0  0  0  0  0  0  0  0  0
   -0.3200   -2.8400    0.0000 C   0  0  0  0  0  0  0  0  0  0  0  0
    1.0100   -2.0900    0.0000 C   0  0  0  0  0  0  0  0  0  0  0  0
    4.5500    0.8800    0.0000 C   0  0  0  0  0  0  0  0  0  0  0  0
    3.7100   -0.3100    0.0000 C   0  0  0  0  0  0  0  0  0  0  0  0
   -4.2000   -0.5600    0.0000 C   0  0  0  0  0  0  0  0  0  0  0  0
   -0.3200    1.6300    0.0000 C   0  0  0  0  0  0  0  0  0  0  0  0
   -2.8900    0.1600    0.0000 C   0  0  0  0  0  0  0  0  0  0  0  0
    1.0100    2.3900    0.0000 C   0  0  0  0  0  0  0  0  0  0  0  0
   -2.8900   -2.8400    0.0000 C   0  0  0  0  0  0  0  0  0  0  0  0
    8.6037    4.3926    0.0000 C   0  0  0  0  0  0  0  0  0  0  0  0
    4.1909    3.5108    0.0000 C   0  0  0  0  0  0  0  0  0  0  0  0
    7.6137    5.5195    0.0000 C   0  0  0  0  0  0  0  0  0  0  0  0
   -1.6200   -2.0900    0.0000 C   0  0  0  0  0  0  0  0  0  0  0  0
   -4.2000   -2.0900    0.0000 C   0  0  0  0  0  0  0  0  0  0  0  0
    1.0100   -0.5600    0.0000 C   0  0  0  0  0  0  0  0  0  0  0  0
    3.7100    2.0900    0.0000 C   0  0  0  0  0  0  0  0  0  0  0  0
    2.2800    0.1600    0.0000 C   0  0  0  0  0  0  0  0  0  0  0  0
   -0.3200    0.1600    0.0000 C   0  0  0  0  0  0  0  0  0  0  0  0
   -1.6200   -0.5600    0.0000 C   0  0  0  0  0  0  0  0  0  0  0  0
    2.2800    1.6300    0.0000 C   0  0  0  0  0  0  0  0  0  0  0  0
   -5.4977   -2.8424    0.0000 O   0  0  0  0  0  0  0  0  0  0  0  0
  7  1  1  0
  9  8  1  0
 11 10  1  0
 13 12  1  0
 16 14  1  0
 17 15  1  0
 19  2  1  0
 19  3  1  0
 20  4  1  6
 20  8  1  0
 21  7  1  1
 21  9  1  0
 21 19  1  0
 22 10  2  0
 22 18  1  0
 23 14  1  0
 23 18  1  0
 24 11  1  6
 25 12  1  1
 25 20  1  0
 26 13  1  1
 26 24  1  0
 27 15  1  1
 27 24  1  0
 28  5  1  1
 28 16  1  0
 28 22  1  0
 28 27  1  0
 29  6  1  1
 29 17  1  0
 29 25  1  0
 29 26  1  0
 23 30  1  1
M  END
>  <NAME>  (6001) 
STIGMAST-5-ENE-3BETA-OL

>  <SYNONYMS>  (6001) 
BETA-SITOSTEROL

>  <SPECTRUM TYPE>  (6001) 
MS1

>  <INSTRUMENT TYPE>  (6001) 
EI-B

>  <INSTRUMENT>  (6001) 
VARIAN MAT-44

>  <ION MODE>  (6001) 
P

>  <INCHIKEY>  (6001) 
KZJWDPNRJALLNS-VJSFXXLFSA-N

>  <FORMULA>  (6001) 
C29H50O

>  <EXACT MASS>  (6001) 
414.38616622

>  <MW>  (6001) 
414

>  <ID>  (6001) 
JP000028

>  <CONTRIBUTOR>  (6001) 
University of Tokyo Team, {Faculty of Engineering, University of Tokyo

>  <COMMENT>  (6001) 
SMILES=C(C1=4)C(O)CCC(C)1C(C(CC4)3[H])(CCC(C)(C32[H])C(CC2)C(C)CCC(C(C)C)CC)[H]
InChI=InChI=1S/C29H50O/c1-7-21(19(2)3)9-8-20(4)25-12-13-26-24-11-10-22-18-23(30)14-16-28(22,5)27(24)15-17-29(25,26)6/h10,19-21,23-27,30H,7-9,11-18H2,1-6H3/t20-,21-,23+,24+,25-,26+,27+,28+,29-/m1/s1
computed SMILES=OC1CC2=CCC3C(CCC4(C)C(CCC34)C(C)CCC(CC)C(C)C)C2(C)CC1
accession=JP000028
date=2016.01.19 (Created 2008.10.21, modified 2011.05.06)
author=KOGA M, UNIV. OF OCCUPATIONAL AND ENVIRONMENTAL HEALTH
license=CC BY-NC-SA
exact mass=414.38617
ionization energy=70 eV
ion type=[M]+*
computed spectral entropy=4.409302180340939
computed normalized entropy=0.9242493535893284
SPLASH=splash10-0aor-9810000000-ab4d6cb3490b23c5cb70
submitter=submitter = University of Tokyo Team (Faculty of Engineering, University of Tokyo)
MoNA Rating=3.75

>  <NUM PEAKS>  (6001) 
118

>  <MASS SPECTRAL PEAKS>  (6001) 
53 6.81
54 7.15
55 99.99
56 18.48
57 93.95
58 5.62
60 10.39
65 4.42
66 5.53
67 48.63
68 22.14
69 92.67
70 17.88
71 47.61
72 4.08
73 10.39
77 10.22
78 5.45
79 36.03
80 17.03
81 77.17
82 26.06
83 41.48
84 16.95
85 31
91 32.96
92 11.92
93 41.31
94 22.65
95 62.18
96 21.97
97 36.45
98 13.54
99 9.62
104 6.21
105 40.03
106 17.63
107 53.49
108 29.38
109 36.96
110 14.73
111 21.97
112 4.94
113 4.51
115 5.02
117 10.05
118 9.71
119 27.08
120 22.48
121 33.9
122 19.5
123 25.55
124 16.18
125 12.77
127 5.19
128 7.15
129 10.56
130 6.04
131 15.67
132 8.43
133 24.36
134 15.84
135 27.42
136 16.6
137 15.92
138 8.51
139 5.11
143 10.73
144 8.94
145 23.42
146 10.73
147 22.31
148 13.2
149 22.48
150 5.62
151 8
152 5.19
157 9.02
158 9.79
159 19.67
160 15.92
161 22.4
162 8.43
163 19.84
164 5.79
165 13.37
166 6.89
171 8.26
173 11.49
174 4.85
175 7.32
177 7.58
178 13.28
179 4.34
185 8
187 6.89
189 5.19
191 7.06
199 7.41
201 6.21
205 4.08
213 16.26
214 4.85
215 21.55
216 9.45
217 6.98
229 4.77
231 10.22
232 4.17
233 19.93
234 15.41
255 10.3
273 7.41
303 6.04
329 7.15
396 2.72
414 8.43
415 2.69

>  <PREDICTED SPECTRUM>  (6001) 
29 49
39 51
40 25
41 649
42 137
43 999
44 170
45 112
49 10
50 32
51 88
52 11
53 321
54 111
55 995
56 209
57 891
58 152
59 82
60 48
65 197
66 45
67 719
68 292
69 902
70 314
71 654
72 36
73 23
75 4
77 424
78 157
79 633
80 209
81 831
82 364
83 638
84 250
85 451
86 112
91 706
92 314
93 697
94 328
95 866
96 318
97 546
98 181
99 178
100 17
103 104
104 111
105 715
106 423
107 842
108 402
109 620
110 295
111 401
112 85
113 81
115 167
116 29
117 358
118 221
119 662
120 388
121 614
122 356
123 500
124 358
125 290
126 64
127 67
128 94
129 261
130 180
131 466
132 251
133 652
134 365
135 545
136 262
137 250
138 143
139 99
140 0
141 154
142 162
143 423
144 208
145 663
146 334
147 598
148 288
149 526
150 169
151 345
152 128
155 62
156 40
157 281
158 282
159 572
160 346
161 547
162 268
163 415
164 115
165 119
166 31
167 12
168 11
169 106
171 261
172 140
173 384
174 167
175 277
176 186
177 292
178 192
179 95
183 116
184 43
185 242
186 181
187 353
188 129
189 346
190 205
191 214
192 152
193 19
197 132
198 67
199 288
200 91
201 336
202 193
203 256
204 108
205 130
211 53
212 67
213 621
214 351
215 506
216 224
217 382
218 130
219 182
220 50
227 188
228 207
229 465
230 305
231 539
232 315
233 351
234 100
239 19
241 85
242 66
243 156
244 132
245 224
246 307
247 225
248 53
255 371
256 213
257 221
258 139
259 173
260 125
261 30
269 70
270 33
271 263
272 236
273 434
274 305
275 192
281 163
282 30
283 59
285 291
286 72
287 124
288 151
289 98
290 23
297 48
299 158
300 228
301 295
302 169
303 234
304 30
310 11
311 12
314 96
315 221
316 83
327 14
329 251
330 97
341 69
342 45
353 85
354 116
355 24
357 88
371 115
372 10
381 305
382 64
383 29
384 53
385 73
396 470
397 223
398 48
399 648
400 335
401 115
412 174
413 66
414 791
415 521
416 165

$$$$

     RDKit          2D

  8  8  0  0  0  0  0  0  0  0999 V2000
   -1.3000    0.7500    0.0000 C   0  0  0  0  0  0  0  0  0  0  0  0
    0.0000    1.5000    0.0000 C   0  0  0  0  0  0  0  0  0  0  0  0
   -1.3000   -0.7500    0.0000 C   0  0  0  0  0  0  0  0  0  0  0  0
    1.3000   -0.7500    0.0000 C   0  0  0  0  0  0  0  0  0  0  0  0
    1.3000    0.7500    0.0000 C   0  0  0  0  0  0  0  0  0  0  0  0
   -0.0000   -1.5000    0.0000 C   0  0  0  0  0  0  0  0  0  0  0  0
    2.5989    1.5002    0.0000 Cl  0  0  0  0  0  0  0  0  0  0  0  0
   -0.0000   -3.0000    0.0000 O   0  0  0  0  0  0  0  0  0  0  0  0
  2  1  2  0
  3  1  1  0
  5  2  1  0
  5  4  2  0
  6  3  2  0
  6  4  1  0
  7  5  1  0
  8  6  1  0
M  END
>  <NAME>  (6002) 
3-CHLOROPHENOL

>  <SYNONYMS>  (6002) 


>  <SPECTRUM TYPE>  (6002) 
MS1

>  <INSTRUMENT TYPE>  (6002) 
EI-B

>  <INSTRUMENT>  (6002) 
VARIAN MAT-44

>  <ION MODE>  (6002) 
P

>  <INCHIKEY>  (6002) 
HORNXRXVQWOLPJ-UHFFFAOYSA-N

>  <FORMULA>  (6002) 
C6H5ClO

>  <EXACT MASS>  (6002) 
128.00289246

>  <MW>  (6002) 
128

>  <ID>  (6002) 
JP000023

>  <CONTRIBUTOR>  (6002) 
University of Tokyo Team, {Faculty of Engineering, University of Tokyo

>  <COMMENT>  (6002) 
SMILES=Oc(c1)cc(Cl)cc1
InChI=InChI=1S/C6H5ClO/c7-5-2-1-3-6(8)4-5/h1-4,8H
computed SMILES=ClC1=CC=CC(O)=C1
ion type=[M]+*
accession=JP000023
date=2016.01.19 (Created 2008.10.21, modified 2011.05.06)
author=KOGA M, UNIV. OF OCCUPATIONAL AND ENVIRONMENTAL HEALTH
license=CC BY-NC-SA
exact mass=128.00289
ionization energy=70 eV
computed spectral entropy=2.519724098532256
computed normalized entropy=0.8036130590614339
SPLASH=splash10-004i-7900000000-14ad7674ba33dd1838a4
submitter=submitter = University of Tokyo Team (Faculty of Engineering, University of Tokyo)
MoNA Rating=3.75

>  <NUM PEAKS>  (6002) 
23

>  <MASS SPECTRAL PEAKS>  (6002) 
51 2.73
53 5.61
61 4.55
62 6.96
63 19.06
64 29.67
65 43.03
66 5.38
73 6.41
74 3.12
75 3.89
92 7.11
93 5.18
94 5.66
99 7.85
100 13.63
101 3.14
102 4.52
127 16.26
128 99.99
129 10.75
130 28.84
131 2.12

>  <PREDICTED SPECTRUM>  (6002) 
14 9
16 2
17 22
18 22
25 38
26 71
27 69
28 30
29 94
31 42
32 6
35 76
36 149
37 240
38 319
39 313
40 128
41 47
42 39
43 34
47 41
49 191
50 323
51 378
52 111
53 174
54 82
55 32
56 45
57 103
60 85
61 172
62 209
63 486
64 447
65 633
66 252
67 8
68 5
70 14
71 65
72 158
73 331
74 258
75 411
81 54
82 169
84 79
91 3
92 54
93 334
94 192
96 17
99 375
100 224
101 254
102 105
110 45
111 181
127 170
128 999
129 314
130 587
131 139

$$$$

     RDKit          2D

 10 10  0  0  0  0  0  0  0  0999 V2000
   -1.5600    0.6000    0.0000 C   0  0  0  0  0  0  0  0  0  0  0  0
   -0.2600   -1.6500    0.0000 C   0  0  0  0  0  0  0  0  0  0  0  0
   -1.5600   -0.9000    0.0000 C   0  0  0  0  0  0  0  0  0  0  0  0
   -0.2600    1.3500    0.0000 C   0  0  0  0  0  0  0  0  0  0  0  0
    1.0400   -0.9000    0.0000 C   0  0  0  0  0  0  0  0  0  0  0  0
    1.0400    0.6000    0.0000 C   0  0  0  0  0  0  0  0  0  0  0  0
   -2.8589   -1.6502    0.0000 Cl  0  0  0  0  0  0  0  0  0  0  0  0
   -0.2600    2.8500    0.0000 Cl  0  0  0  0  0  0  0  0  0  0  0  0
    2.3389   -1.6502    0.0000 Cl  0  0  0  0  0  0  0  0  0  0  0  0
    2.3389    1.3502    0.0000 O   0  0  0  0  0  0  0  0  0  0  0  0
  3  1  2  0
  3  2  1  0
  4  1  1  0
  5  2  2  0
  6  4  2  0
  6  5  1  0
  7  3  1  0
  8  4  1  0
  9  5  1  0
 10  6  1  0
M  END
>  <NAME>  (6003) 
2,4,6-TRICHLOROPHENOL

>  <SYNONYMS>  (6003) 


>  <SPECTRUM TYPE>  (6003) 
MS1

>  <INSTRUMENT TYPE>  (6003) 
EI-B

>  <INSTRUMENT>  (6003) 
VARIAN MAT-44

>  <ION MODE>  (6003) 
P

>  <INCHIKEY>  (6003) 
LINPIYWFGCPVIE-UHFFFAOYSA-N

>  <FORMULA>  (6003) 
C6H3Cl3O

>  <EXACT MASS>  (6003) 
195.924947756

>  <MW>  (6003) 
196

>  <ID>  (6003) 
JP000010

>  <CONTRIBUTOR>  (6003) 
University of Tokyo Team, {Faculty of Engineering, University of Tokyo

>  <COMMENT>  (6003) 
SMILES=Clc(c1)cc(Cl)c(O)c(Cl)1
InChI=InChI=1S/C6H3Cl3O/c7-3-1-4(8)6(10)5(9)2-3/h1-2,10H
computed SMILES=ClC=1C=C(Cl)C(O)=C(Cl)C1
accession=JP000010
date=2016.01.19 (Created 2008.10.21, modified 2011.05.06)
author=KOGA M, UNIV. OF OCCUPATIONAL AND ENVIRONMENTAL HEALTH
license=CC BY-NC-SA
exact mass=195.92495
ionization energy=70 eV
ion type=[M]+*
computed spectral entropy=3.6163127010093783
computed normalized entropy=0.8631529144237464
SPLASH=splash10-0002-7900000000-85483ea8168873178de9
submitter=submitter = University of Tokyo Team (Faculty of Engineering, University of Tokyo)
MoNA Rating=3.75

>  <NUM PEAKS>  (6003) 
66

>  <MASS SPECTRAL PEAKS>  (6003) 
53 14.63
55 2.49
57 2.2
60 12.21
61 32.06
62 42.22
63 36.9
64 4.32
65 8.43
66 23
67 12.65
68 2.71
71 6.78
72 13.68
73 17.64
74 8.84
75 5.57
80 9.94
81 8.84
82 4.21
83 8.62
84 6.16
85 5.83
87 3.92
89 2.2
90 2.89
91 2.09
95 4.84
96 34.11
97 70.76
98 39.72
99 38.18
100 10.63
101 2.64
106 2.45
107 9.09
108 3.77
109 7.22
111 2.23
125 3.44
126 8.91
127 2.05
128 3.52
131 18.48
132 57.96
133 22.12
134 40.71
135 10.45
136 7.81
160 31.84
161 5.2
162 50.47
163 5.2
164 22.81
166 5.57
167 4.1
168 2.56
169 3.63
195 3.59
196 99.99
197 9.68
198 91.34
199 7.07
200 28.42
201 2.09
202 3.04

>  <PREDICTED SPECTRUM>  (6003) 
18 12
25 5
28 2
32 13
35 88
36 106
37 101
38 71
39 53
43 108
48 1
49 69
50 82
51 80
52 3
53 80
60 110
61 213
62 199
63 216
64 48
68 48
69 241
71 102
72 153
73 187
74 199
75 7
83 16
85 40
86 81
87 117
96 127
97 540
98 199
99 315
100 35
103 95
104 166
105 15
106 55
107 138
108 114
109 137
117 11
125 65
126 50
127 2
131 93
132 368
133 343
134 251
135 173
136 31
137 52
143 10
160 191
161 128
162 240
163 75
164 82
167 74
169 121
170 34
171 21
195 70
196 999
197 279
198 938
199 234
200 517
201 81

$$$$

     RDKit          2D

 10 10  0  0  0  0  0  0  0  0999 V2000
   -0.0005    1.5008    0.0000 C   0  0  0  0  0  0  0  0  0  0  0  0
    0.0005   -1.5008    0.0000 C   0  0  0  0  0  0  0  0  0  0  0  0
    1.2990    0.7500    0.0000 C   0  0  0  0  0  0  0  0  0  0  0  0
    1.2995   -0.7508    0.0000 C   0  0  0  0  0  0  0  0  0  0  0  0
   -1.2995    0.7508    0.0000 C   0  0  0  0  0  0  0  0  0  0  0  0
   -1.2990   -0.7500    0.0000 C   0  0  0  0  0  0  0  0  0  0  0  0
    2.5981    1.5000    0.0000 Cl  0  0  0  0  0  0  0  0  0  0  0  0
    2.5987   -1.5006    0.0000 Cl  0  0  0  0  0  0  0  0  0  0  0  0
   -2.5987    1.5006    0.0000 Cl  0  0  0  0  0  0  0  0  0  0  0  0
   -2.5981   -1.5000    0.0000 O   0  0  0  0  0  0  0  0  0  0  0  0
  3  1  2  0
  4  2  2  0
  4  3  1  0
  5  1  1  0
  6  2  1  0
  6  5  2  0
  7  3  1  0
  8  4  1  0
  9  5  1  0
 10  6  1  0
M  END
>  <NAME>  (6004) 
2,4,5-TRICHLOROPHENOL

>  <SYNONYMS>  (6004) 


>  <SPECTRUM TYPE>  (6004) 
MS1

>  <INSTRUMENT TYPE>  (6004) 
EI-B

>  <INSTRUMENT>  (6004) 
VARIAN MAT-44

>  <ION MODE>  (6004) 
P

>  <INCHIKEY>  (6004) 
LHJGJYXLEPZJPM-UHFFFAOYSA-N

>  <FORMULA>  (6004) 
C6H3Cl3O

>  <EXACT MASS>  (6004) 
195.924947756

>  <MW>  (6004) 
196

>  <ID>  (6004) 
JP000009

>  <CONTRIBUTOR>  (6004) 
University of Tokyo Team, {Faculty of Engineering, University of Tokyo

>  <COMMENT>  (6004) 
SMILES=Oc(c1)c(Cl)cc(Cl)c(Cl)1
InChI=InChI=1S/C6H3Cl3O/c7-3-1-5(9)6(10)2-4(3)8/h1-2,10H
computed SMILES=ClC=1C=C(Cl)C(O)=CC1Cl
accession=JP000009
date=2016.01.19 (Created 2008.10.21, modified 2011.05.06)
author=KOGA M, UNIV. OF OCCUPATIONAL AND ENVIRONMENTAL HEALTH
license=CC BY-NC-SA
exact mass=195.92495
ionization energy=70 eV
ion type=[M]+*
computed spectral entropy=3.572272550478909
computed normalized entropy=0.8557597365824228
SPLASH=splash10-0002-7900000000-1ad962df00ced72b9a73
submitter=submitter = University of Tokyo Team (Faculty of Engineering, University of Tokyo)
MoNA Rating=3.75

>  <NUM PEAKS>  (6004) 
65

>  <MASS SPECTRAL PEAKS>  (6004) 
51 2.58
53 14.73
59 2.03
60 12.75
61 30.62
62 36.79
63 19.11
64 2.15
65 5.23
66 13.42
67 7.46
69 2.46
71 6.55
72 13.85
73 16.02
74 7.55
75 4.47
79 2.34
80 8.06
81 5.21
82 3.22
83 7.1
84 6.05
85 6.38
86 2.53
87 3.44
89 1.93
95 3.8
96 33.63
97 67.27
98 25.02
99 31.7
100 5.86
106 2.03
107 8.66
108 3.94
109 6.55
131 12.51
132 48.06
133 32
134 33.42
135 18.37
136 6.55
137 2.96
149 6.48
151 3.39
160 10.69
161 4.76
162 10.76
163 3.58
164 3.61
167 4.06
169 3.89
177 4.76
179 2.94
192 6.69
194 4.64
195 6.79
196 99.99
197 11.45
198 92.58
199 7.82
200 29.54
201 2.08
202 3.15

>  <PREDICTED SPECTRUM>  (6004) 
17 7
18 44
25 56
26 43
27 64
28 97
29 135
32 39
35 153
36 206
37 213
38 137
39 74
43 159
44 72
47 174
48 97
49 205
50 233
51 209
52 53
53 187
54 6
55 89
56 43
57 53
60 265
61 379
62 331
63 325
64 93
65 83
66 5
67 28
68 94
69 234
70 26
71 173
72 213
73 314
74 307
75 169
76 46
77 49
79 54
80 22
81 69
82 22
83 177
84 229
85 147
86 140
87 148
88 58
89 180
90 9
91 123
95 71
96 219
97 551
98 280
99 291
100 77
101 72
103 139
104 73
105 62
106 132
107 254
108 166
109 318
117 44
123 7
124 1
125 55
126 195
127 50
128 55
131 64
132 265
133 355
134 259
135 270
136 69
137 52
160 205
161 293
162 274
163 237
164 204
165 34
167 67
168 114
169 133
170 137
171 51
172 57
195 48
196 999
197 294
198 994
199 268
200 532
201 115

$$$$

     RDKit          2D

  9  9  0  0  0  0  0  0  0  0999 V2000
    1.3000    0.7498    0.0000 C   0  0  0  0  0  0  0  0  0  0  0  0
   -1.3000    0.7498    0.0000 C   0  0  0  0  0  0  0  0  0  0  0  0
   -0.0000    2.9998    0.0000 C   0  0  0  0  0  0  0  0  0  0  0  0
   -0.0000   -0.0002    0.0000 C   0  0  0  0  0  0  0  0  0  0  0  0
    1.3000    2.2498    0.0000 C   0  0  0  0  0  0  0  0  0  0  0  0
   -1.3000    2.2498    0.0000 C   0  0  0  0  0  0  0  0  0  0  0  0
   -0.0000   -1.5002    0.0000 Cl  0  0  0  0  0  0  0  0  0  0  0  0
    2.5989    3.0000    0.0000 Cl  0  0  0  0  0  0  0  0  0  0  0  0
   -2.5989    3.0000    0.0000 O   0  0  0  0  0  0  0  0  0  0  0  0
  4  1  2  0
  4  2  1  0
  5  1  1  0
  5  3  2  0
  6  2  2  0
  6  3  1  0
  7  4  1  0
  8  5  1  0
  9  6  1  0
M  END
>  <NAME>  (6005) 
3,5-DICHLOROPHENOL

>  <SYNONYMS>  (6005) 


>  <SPECTRUM TYPE>  (6005) 
MS1

>  <INSTRUMENT TYPE>  (6005) 
EI-B

>  <INSTRUMENT>  (6005) 
VARIAN MAT-44

>  <ION MODE>  (6005) 
P

>  <INCHIKEY>  (6005) 
VPOMSPZBQMDLTM-UHFFFAOYSA-N

>  <FORMULA>  (6005) 
C6H4Cl2O

>  <EXACT MASS>  (6005) 
161.963920108

>  <MW>  (6005) 
162

>  <ID>  (6005) 
JP000008

>  <CONTRIBUTOR>  (6005) 
University of Tokyo Team, {Faculty of Engineering, University of Tokyo

>  <COMMENT>  (6005) 
SMILES=Oc(c1)cc(Cl)cc(Cl)1
InChI=InChI=1S/C6H4Cl2O/c7-4-1-5(8)3-6(9)2-4/h1-3,9H
computed SMILES=ClC=1C=C(Cl)C=C(O)C1
accession=JP000008
date=2016.01.19 (Created 2008.10.21, modified 2011.05.06)
author=KOGA M, UNIV. OF OCCUPATIONAL AND ENVIRONMENTAL HEALTH
license=CC BY-NC-SA
exact mass=161.96392
ionization energy=70 eV
ion type=[M]+*
computed spectral entropy=2.811619911355631
computed normalized entropy=0.8112620205954871
SPLASH=splash10-03di-6900000000-4af936cc228fde5d0777
submitter=submitter = University of Tokyo Team (Faculty of Engineering, University of Tokyo)
MoNA Rating=3.75

>  <NUM PEAKS>  (6005) 
32

>  <MASS SPECTRAL PEAKS>  (6005) 
51 1.24
53 4.19
60 3.61
61 8.59
62 16.38
63 31.53
64 4.94
72 4.88
73 10.01
74 4.53
75 3.92
81 6.85
82 4.37
83 2.46
97 7.3
98 27.86
99 28.43
100 10.31
101 9.88
126 8.1
127 4.51
128 3.3
133 4.08
134 6.58
135 2.96
136 4.15
161 3.31
162 99.99
163 8.57
164 60.06
165 4.43
166 9.68

>  <PREDICTED SPECTRUM>  (6005) 
14 7
18 21
25 36
26 4
31 5
32 6
35 104
36 119
37 237
38 195
39 182
40 13
43 75
44 44
47 139
48 60
49 224
50 289
51 226
52 128
53 139
54 17
55 98
56 56
57 58
60 147
61 327
62 318
63 445
64 254
65 155
66 35
67 35
68 39
69 222
70 55
71 136
72 331
73 339
74 347
75 326
76 98
77 84
78 0
79 57
80 26
81 36
82 23
83 108
84 106
85 111
86 114
87 72
88 84
91 98
92 154
96 86
97 187
98 222
99 465
100 273
101 298
102 104
106 3
107 129
108 76
109 274
110 38
111 51
115 46
116 39
117 2
118 34
126 89
127 551
128 202
129 346
130 71
131 35
133 219
134 219
135 218
136 200
137 77
138 77
145 56
149 2
161 68
162 999
163 303
164 826
165 237
166 353
167 67

$$$$

     RDKit          2D

  9  9  0  0  0  0  0  0  0  0999 V2000
   -1.5900    0.9200    0.0000 C   0  0  0  0  0  0  0  0  0  0  0  0
   -0.2900    1.6700    0.0000 C   0  0  0  0  0  0  0  0  0  0  0  0
   -0.2900   -1.3300    0.0000 C   0  0  0  0  0  0  0  0  0  0  0  0
   -1.5900   -0.5800    0.0000 C   0  0  0  0  0  0  0  0  0  0  0  0
    1.0100   -0.5800    0.0000 C   0  0  0  0  0  0  0  0  0  0  0  0
    1.0100    0.9200    0.0000 C   0  0  0  0  0  0  0  0  0  0  0  0
   -2.8889   -1.3302    0.0000 Cl  0  0  0  0  0  0  0  0  0  0  0  0
    2.3089   -1.3302    0.0000 Cl  0  0  0  0  0  0  0  0  0  0  0  0
    2.3089    1.6702    0.0000 O   0  0  0  0  0  0  0  0  0  0  0  0
  2  1  2  0
  4  1  1  0
  4  3  2  0
  5  3  1  0
  6  2  1  0
  6  5  2  0
  7  4  1  0
  8  5  1  0
  9  6  1  0
M  END
>  <NAME>  (6006) 
2,4-DICHLOROPHENOL

>  <SYNONYMS>  (6006) 


>  <SPECTRUM TYPE>  (6006) 
MS1

>  <INSTRUMENT TYPE>  (6006) 
EI-B

>  <INSTRUMENT>  (6006) 
VARIAN MAT-44

>  <ION MODE>  (6006) 
P

>  <INCHIKEY>  (6006) 
HFZWRUODUSTPEG-UHFFFAOYSA-N

>  <FORMULA>  (6006) 
C6H4Cl2O

>  <EXACT MASS>  (6006) 
161.963920108

>  <MW>  (6006) 
162

>  <ID>  (6006) 
JP000007

>  <CONTRIBUTOR>  (6006) 
University of Tokyo Team, {Faculty of Engineering, University of Tokyo

>  <COMMENT>  (6006) 
SMILES=Oc(c1)c(Cl)cc(Cl)c1
InChI=InChI=1S/C6H4Cl2O/c7-4-1-2-6(9)5(8)3-4/h1-3,9H
computed SMILES=ClC1=CC=C(O)C(Cl)=C1
accession=JP000007
date=2016.01.19 (Created 2008.10.21, modified 2011.05.06)
author=KOGA M, UNIV. OF OCCUPATIONAL AND ENVIRONMENTAL HEALTH
license=CC BY-NC-SA
exact mass=161.96392
ionization energy=70 eV
ion type=[M]+*
computed spectral entropy=2.9965202456440077
computed normalized entropy=0.8298500043856434
SPLASH=splash10-03di-9600000000-4fa477756aa23b7adcc6
submitter=submitter = University of Tokyo Team (Faculty of Engineering, University of Tokyo)
MoNA Rating=3.75

>  <NUM PEAKS>  (6006) 
37

>  <MASS SPECTRAL PEAKS>  (6006) 
51 3.07
53 12.34
60 6.21
61 19.31
62 35.08
63 99.99
64 10.24
66 2.25
71 3.05
72 10.59
73 19.52
74 8.59
75 6.44
81 6.82
82 4.45
83 2.77
84 2.03
91 2.34
96 3.78
97 31.79
98 38.03
99 21.59
100 13.06
101 4.67
125 4.82
126 20.32
127 3.76
128 7.38
133 4.02
134 2.72
135 2.64
161 19.22
162 94.19
163 15.34
164 55.32
165 5.54
166 9.19

>  <PREDICTED SPECTRUM>  (6006) 
35 42
36 43
37 86
38 58
39 4
43 46
47 34
49 73
50 97
51 96
52 28
53 96
60 53
61 142
62 199
63 368
64 205
65 104
69 125
70 187
71 51
72 199
73 210
74 141
75 88
81 0
87 16
97 223
98 221
99 332
100 199
101 25
107 41
109 80
116 96
126 58
127 199
128 125
129 64
130 4
133 309
134 39
135 213
136 9
161 196
162 999
163 275
164 805
165 184
166 230

$$$$

     RDKit          2D

  9  9  0  0  0  0  0  0  0  0999 V2000
    0.9737    1.6883    0.0000 C   0  0  0  0  0  0  0  0  0  0  0  0
    2.2732    0.9375    0.0000 C   0  0  0  0  0  0  0  0  0  0  0  0
   -0.3254    0.9383    0.0000 C   0  0  0  0  0  0  0  0  0  0  0  0
    2.2737   -0.5633    0.0000 C   0  0  0  0  0  0  0  0  0  0  0  0
   -0.3249   -0.5625    0.0000 C   0  0  0  0  0  0  0  0  0  0  0  0
    0.9746   -1.3133    0.0000 C   0  0  0  0  0  0  0  0  0  0  0  0
    3.5728   -1.3131    0.0000 Cl  0  0  0  0  0  0  0  0  0  0  0  0
    0.9744   -2.8133    0.0000 Cl  0  0  0  0  0  0  0  0  0  0  0  0
   -1.6239   -1.3125    0.0000 O   0  0  0  0  0  0  0  0  0  0  0  0
  2  1  2  0
  3  1  1  0
  4  2  1  0
  5  3  2  0
  6  4  2  0
  6  5  1  0
  7  4  1  0
  8  6  1  0
  9  5  1  0
M  END
>  <NAME>  (6007) 
2,3-DICHLOROPHENOL

>  <SYNONYMS>  (6007) 


>  <SPECTRUM TYPE>  (6007) 
MS1

>  <INSTRUMENT TYPE>  (6007) 
EI-B

>  <INSTRUMENT>  (6007) 
VARIAN MAT-44

>  <ION MODE>  (6007) 
P

>  <INCHIKEY>  (6007) 
UMPSXRYVXUPCOS-UHFFFAOYSA-N

>  <FORMULA>  (6007) 
C6H4Cl2O

>  <EXACT MASS>  (6007) 
161.963920108

>  <MW>  (6007) 
162

>  <ID>  (6007) 
JP000006

>  <CONTRIBUTOR>  (6007) 
University of Tokyo Team, {Faculty of Engineering, University of Tokyo

>  <COMMENT>  (6007) 
SMILES=Oc(c1)c(Cl)c(Cl)cc1
InChI=InChI=1S/C6H4Cl2O/c7-4-2-1-3-5(9)6(4)8/h1-3,9H
computed SMILES=ClC1=CC=CC(O)=C1Cl
accession=JP000006
date=2016.01.19 (Created 2008.10.21, modified 2011.05.06)
author=KOGA M, UNIV. OF OCCUPATIONAL AND ENVIRONMENTAL HEALTH
license=CC BY-NC-SA
exact mass=161.96392
ionization energy=70 eV
ion type=[M]+*
computed spectral entropy=3.1149910440602966
computed normalized entropy=0.8334045975660485
SPLASH=splash10-03di-9600000000-b51f95c4e14bee1d33be
submitter=submitter = University of Tokyo Team (Faculty of Engineering, University of Tokyo)
MoNA Rating=3.75

>  <NUM PEAKS>  (6007) 
42

>  <MASS SPECTRAL PEAKS>  (6007) 
51 4.43
53 10.39
60 9.21
61 24.93
62 43.19
63 99.99
64 12.57
65 4.81
66 3.39
71 3.67
72 15.34
73 25.07
74 11.84
75 8.79
81 4.78
82 3.25
83 2.63
84 3.87
85 2.49
87 5.09
89 2.21
91 6.02
96 3.11
97 12.05
98 35.88
99 22.09
100 13.5
101 6.26
107 3.33
109 2.73
125 3.11
126 59.16
127 5.61
128 19.32
133 5.33
135 2.84
161 2.52
162 68.96
163 6.51
164 51.64
165 2.9
166 7.58

>  <PREDICTED SPECTRUM>  (6007) 
18 28
25 34
26 4
28 17
29 30
32 1
35 119
36 133
37 188
38 173
39 118
43 198
44 77
47 57
48 12
49 103
50 69
51 150
52 25
53 114
55 30
56 31
57 58
60 135
61 200
62 220
63 443
64 231
65 153
69 205
70 122
71 158
72 228
73 221
74 148
75 80
83 11
92 53
97 110
98 307
99 367
100 219
101 103
102 2
105 5
106 19
107 23
109 64
116 7
126 129
127 435
128 214
129 246
130 81
131 6
133 162
134 170
135 183
136 123
137 50
161 29
162 999
163 250
164 756
165 171
166 256

$$$$

     RDKit          2D

  9  9  0  0  0  0  0  0  0  0999 V2000
    0.9737    1.6883    0.0000 C   0  0  0  0  0  0  0  0  0  0  0  0
    2.2732    0.9375    0.0000 C   0  0  0  0  0  0  0  0  0  0  0  0
   -0.3254    0.9383    0.0000 C   0  0  0  0  0  0  0  0  0  0  0  0
    2.2737   -0.5633    0.0000 C   0  0  0  0  0  0  0  0  0  0  0  0
   -0.3249   -0.5625    0.0000 C   0  0  0  0  0  0  0  0  0  0  0  0
    0.9746   -1.3133    0.0000 C   0  0  0  0  0  0  0  0  0  0  0  0
    3.5728   -1.3131    0.0000 Cl  0  0  0  0  0  0  0  0  0  0  0  0
   -1.6239   -1.3125    0.0000 Cl  0  0  0  0  0  0  0  0  0  0  0  0
    0.9744   -2.8133    0.0000 O   0  0  0  0  0  0  0  0  0  0  0  0
  2  1  2  0
  3  1  1  0
  4  2  1  0
  5  3  2  0
  6  4  2  0
  6  5  1  0
  7  4  1  0
  8  5  1  0
  9  6  1  0
M  END
>  <NAME>  (6008) 
2,6-DICHLOROPHENOL

>  <SYNONYMS>  (6008) 


>  <SPECTRUM TYPE>  (6008) 
MS1

>  <INSTRUMENT TYPE>  (6008) 
EI-B

>  <INSTRUMENT>  (6008) 
VARIAN MAT-44

>  <ION MODE>  (6008) 
P

>  <INCHIKEY>  (6008) 
HOLHYSJJBXSLMV-UHFFFAOYSA-N

>  <FORMULA>  (6008) 
C6H4Cl2O

>  <EXACT MASS>  (6008) 
161.963920108

>  <MW>  (6008) 
162

>  <ID>  (6008) 
JP000005

>  <CONTRIBUTOR>  (6008) 
University of Tokyo Team, {Faculty of Engineering, University of Tokyo

>  <COMMENT>  (6008) 
SMILES=Clc(c1)c(O)c(Cl)cc1
InChI=InChI=1S/C6H4Cl2O/c7-4-2-1-3-5(8)6(4)9/h1-3,9H
computed SMILES=ClC1=CC=CC(Cl)=C1O
accession=JP000005
date=2016.01.19 (Created 2008.10.21, modified 2011.05.06)
author=KOGA M, UNIV. OF OCCUPATIONAL AND ENVIRONMENTAL HEALTH
license=CC BY-NC-SA
exact mass=161.96392
ionization energy=70 eV
ion type=[M]+*
computed spectral entropy=2.789153411504809
computed normalized entropy=0.7976969483043252
SPLASH=splash10-03di-7900000000-7130f47067fc70db66c5
submitter=submitter = University of Tokyo Team (Faculty of Engineering, University of Tokyo)
MoNA Rating=3.75

>  <NUM PEAKS>  (6008) 
33

>  <MASS SPECTRAL PEAKS>  (6008) 
53 7.25
60 3
61 8.88
62 17.84
63 70.92
64 8.02
65 2.01
72 5.48
73 12.35
74 4.63
75 4.81
81 6.73
82 4.37
83 2.09
91 3.83
97 7.27
98 34.04
99 15.04
100 13.17
101 4.37
107 2.61
125 2.01
126 33.42
127 3.34
128 11.41
133 3.34
135 2.17
161 2.35
162 99.99
163 8.23
164 63.43
165 4.35
166 9.91

>  <PREDICTED SPECTRUM>  (6008) 
25 35
26 5
29 4
35 110
36 131
37 229
38 211
39 196
40 37
41 57
43 107
44 46
47 101
48 74
49 205
50 271
51 266
52 100
53 218
54 39
55 135
56 76
57 61
60 172
61 348
62 339
63 571
64 277
65 221
67 47
69 222
70 131
71 126
72 279
73 454
74 322
75 218
79 5
80 66
81 79
83 120
87 83
90 16
91 146
92 10
97 274
98 401
99 369
100 242
101 87
102 1
107 84
109 104
116 46
125 46
126 238
127 545
128 315
129 308
130 93
133 103
135 173
136 30
137 70
145 47
161 207
162 999
163 343
164 797
165 230
166 330
167 32

$$$$

     RDKit          2D

  9  9  0  0  0  0  0  0  0  0999 V2000
   -1.3000    0.7500    0.0000 C   0  0  0  0  0  0  0  0  0  0  0  0
    0.0000    1.5000    0.0000 C   0  0  0  0  0  0  0  0  0  0  0  0
   -0.0000   -1.5000    0.0000 C   0  0  0  0  0  0  0  0  0  0  0  0
   -1.3000   -0.7500    0.0000 C   0  0  0  0  0  0  0  0  0  0  0  0
    1.3000    0.7500    0.0000 C   0  0  0  0  0  0  0  0  0  0  0  0
    1.3000   -0.7500    0.0000 C   0  0  0  0  0  0  0  0  0  0  0  0
   -2.5989   -1.5002    0.0000 Cl  0  0  0  0  0  0  0  0  0  0  0  0
    2.5989    1.5002    0.0000 Cl  0  0  0  0  0  0  0  0  0  0  0  0
    2.5989   -1.5002    0.0000 O   0  0  0  0  0  0  0  0  0  0  0  0
  2  1  2  0
  4  1  1  0
  4  3  2  0
  5  2  1  0
  6  3  1  0
  6  5  2  0
  7  4  1  0
  8  5  1  0
  9  6  1  0
M  END
>  <NAME>  (6009) 
2,5-DICHLOROPHENOL

>  <SYNONYMS>  (6009) 


>  <SPECTRUM TYPE>  (6009) 
MS1

>  <INSTRUMENT TYPE>  (6009) 
EI-B

>  <INSTRUMENT>  (6009) 
VARIAN MAT-44

>  <ION MODE>  (6009) 
P

>  <INCHIKEY>  (6009) 
RANCECPPZPIPNO-UHFFFAOYSA-N

>  <FORMULA>  (6009) 
C6H4Cl2O

>  <EXACT MASS>  (6009) 
161.963920108

>  <MW>  (6009) 
162

>  <ID>  (6009) 
JP000004

>  <CONTRIBUTOR>  (6009) 
University of Tokyo Team, {Faculty of Engineering, University of Tokyo

>  <COMMENT>  (6009) 
SMILES=Oc(c1)c(Cl)ccc(Cl)1
InChI=InChI=1S/C6H4Cl2O/c7-4-1-2-5(8)6(9)3-4/h1-3,9H
computed SMILES=ClC1=CC=C(Cl)C(O)=C1
accession=JP000004
date=2016.01.19 (Created 2008.10.21, modified 2011.05.06)
author=KOGA M, UNIV. OF OCCUPATIONAL AND ENVIRONMENTAL HEALTH
license=CC BY-NC-SA
exact mass=161.96392
ionization energy=70 eV
ion type=[M]+*
computed spectral entropy=3.146050311320342
computed normalized entropy=0.831366980957249
SPLASH=splash10-03di-9400000000-f622342b16fe9e0caff0
submitter=submitter = University of Tokyo Team (Faculty of Engineering, University of Tokyo)
MoNA Rating=3.75

>  <NUM PEAKS>  (6009) 
44

>  <MASS SPECTRAL PEAKS>  (6009) 
51 5.05
52 2.29
53 22.87
59 3.69
60 16.58
61 33.26
62 62.1
63 99.99
64 11.61
65 2.73
66 4.11
71 2.98
72 12.03
73 32.28
74 12.69
75 11.42
81 6.65
82 4.64
83 3.82
84 3.02
85 2.81
87 2.86
89 2.17
90 2.05
91 6.28
96 3.57
97 15.64
98 39
99 33.72
100 13.84
101 10.87
126 9.01
127 3.11
128 3.25
133 6.28
134 4.28
135 4.21
136 2.59
161 11.74
162 89.04
163 12.37
164 52.89
165 4.62
166 8.78

>  <PREDICTED SPECTRUM>  (6009) 
25 12
35 73
36 60
37 115
38 82
39 48
43 44
47 5
49 49
50 18
51 83
53 62
57 3
60 99
61 143
62 164
63 365
64 83
65 32
69 44
70 12
71 26
72 209
73 167
74 149
75 98
81 8
91 0
92 135
97 155
98 133
99 303
100 146
101 104
109 34
116 3
126 191
127 348
128 226
129 169
130 24
133 156
134 16
135 146
136 16
145 33
162 999
163 190
164 745
165 113
166 190

$$$$

     RDKit          2D

 19 22  0  0  0  0  0  0  0  0999 V2000
   -3.2500   -1.8800    0.0000 C   0  0  0  0  0  0  0  0  0  0  0  0
   -1.9500   -2.6200    0.0000 C   0  0  0  0  0  0  0  0  0  0  0  0
   -3.2500   -0.3800    0.0000 C   0  0  0  0  0  0  0  0  0  0  0  0
    0.6500   -2.6200    0.0000 C   0  0  0  0  0  0  0  0  0  0  0  0
    1.9500   -1.8800    0.0000 C   0  0  0  0  0  0  0  0  0  0  0  0
   -1.9500    1.8800    0.0000 C   0  0  0  0  0  0  0  0  0  0  0  0
    3.2500    0.3800    0.0000 C   0  0  0  0  0  0  0  0  0  0  0  0
   -0.6500    2.6200    0.0000 C   0  0  0  0  0  0  0  0  0  0  0  0
    3.2500    1.8800    0.0000 C   0  0  0  0  0  0  0  0  0  0  0  0
   -0.6500   -1.8800    0.0000 C   0  0  0  0  0  0  0  0  0  0  0  0
   -1.9500    0.3800    0.0000 C   0  0  0  0  0  0  0  0  0  0  0  0
    1.9500   -0.3800    0.0000 C   0  0  0  0  0  0  0  0  0  0  0  0
    0.6500    1.8800    0.0000 C   0  0  0  0  0  0  0  0  0  0  0  0
    1.9500    2.6200    0.0000 C   0  0  0  0  0  0  0  0  0  0  0  0
   -0.6500   -0.3800    0.0000 C   0  0  0  0  0  0  0  0  0  0  0  0
    0.6500    0.3800    0.0000 C   0  0  0  0  0  0  0  0  0  0  0  0
    1.9500    4.1200    0.0000 N   0  0  0  0  0  0  0  0  0  0  0  0
    3.2490    4.8700    0.0000 O   0  0  0  0  0  0  0  0  0  0  0  0
    0.6510    4.8700    0.0000 O   0  0  0  0  0  0  0  0  0  0  0  0
  2  1  2  0
  3  1  1  0
  5  4  1  0
  8  6  2  0
  9  7  2  0
 10  2  1  0
 10  4  2  0
 11  3  2  0
 11  6  1  0
 12  5  2  0
 12  7  1  0
 13  8  1  0
 14  9  1  0
 14 13  2  0
 15 10  1  0
 15 11  1  0
 16 12  1  0
 16 13  1  0
 16 15  2  0
 17 14  1  0
 18 17  1  0
 19 17  2  0
M  CHG  2  17   1  18  -1
M  END
>  <NAME>  (6010) 
1-NITROPYRENE

>  <SYNONYMS>  (6010) 


>  <SPECTRUM TYPE>  (6010) 
MS1

>  <INSTRUMENT TYPE>  (6010) 
EI-B

>  <INSTRUMENT>  (6010) 
VARIAN MAT-44

>  <ION MODE>  (6010) 
P

>  <INCHIKEY>  (6010) 
ALRLPDGCPYIVHP-UHFFFAOYSA-N

>  <FORMULA>  (6010) 
C16H9NO2

>  <EXACT MASS>  (6010) 
247.063328528

>  <MW>  (6010) 
247

>  <ID>  (6010) 
JP000001

>  <CONTRIBUTOR>  (6010) 
University of Tokyo Team, {Faculty of Engineering, University of Tokyo

>  <COMMENT>  (6010) 
SMILES=[O-1][N+1](=O)c(c4)c(c1)c(c3c4)c(c2cc3)c(ccc2)c1
InChI=InChI=1S/C16H9NO2/c18-17(19)14-9-7-12-5-4-10-2-1-3-11-6-8-13(14)16(12)15(10)11/h1-9H
computed SMILES=O=N(=O)C1=CC=C2C=CC3=CC=CC=4C=CC1=C2C34
accession=JP000001
date=2016.01.19 (Created 2008.10.21, modified 2011.05.06)
author=KOGA M, UNIV. OF OCCUPATIONAL AND ENVIRONMENTAL HEALTH
license=CC BY-NC-SA
exact mass=247.06333
ionization energy=70 eV
ion type=[M]+*
computed spectral entropy=3.362470501356798
computed normalized entropy=0.7788024918504549
SPLASH=splash10-0udj-7790000000-5839a7971f0d731a8df6
submitter=submitter = University of Tokyo Team (Faculty of Engineering, University of Tokyo)
MoNA Rating=3.75

>  <NUM PEAKS>  (6010) 
75

>  <MASS SPECTRAL PEAKS>  (6010) 
51 2.66
55 8
57 7.33
58 1.33
59 1.33
60 14
61 1.33
62 3.33
63 3.33
66 1.33
68 8.66
70 2
72 5.33
73 7.33
74 3.33
75 2.66
76 2
78 1.33
80 4
81 2
82 1.33
83 3.33
86 12.66
87 8.66
92 2
93 10
94 6
98 14.66
99 83.33
100 60.66
104 4
107 1.33
108 1.33
110 3.33
112 1.33
113 1.33
115 1.33
116 1.33
120 1.33
122 4
123 2.66
124 2.66
125 2
126 1.33
134 1.33
135 2
137 1.33
147 1.33
149 2
150 4.66
151 3.33
159 2
162 2
163 2.66
173 2
174 8.66
175 4.66
177 2
187 5.33
188 4.66
189 56.66
190 12
191 16.66
198 10.66
199 9.33
200 72.66
201 99.99
202 16
203 1.33
207 1.33
214 1.33
217 25.33
218 5.33
247 52.66
248 10.16

>  <PREDICTED SPECTRUM>  (6010) 
26 2
28 20
30 178
38 16
39 44
40 23
43 143
44 78
46 67
49 6
50 160
51 154
52 2
55 58
57 67
61 114
62 133
63 177
67 22
68 66
69 57
71 59
73 1
74 232
75 217
76 76
77 74
79 34
80 13
81 111
85 92
86 200
87 196
88 28
93 27
94 60
95 39
97 75
98 172
99 230
100 107
101 65
105 14
106 103
110 226
111 252
112 245
113 113
114 17
118 40
119 89
120 3
121 1
122 67
123 219
124 276
125 428
126 72
133 4
134 164
135 198
136 99
137 77
147 86
148 145
149 372
150 206
151 43
160 56
161 110
162 80
163 122
164 128
165 141
166 97
172 74
173 139
174 302
175 210
176 80
177 32
185 8
186 85
187 256
188 281
189 999
190 496
191 402
192 137
193 95
196 107
197 181
198 401
199 438
200 897
201 975
202 404
203 257
204 85
214 112
215 125
216 133
217 761
218 356
219 278
220 76
221 8
230 22
231 134
247 952
248 408
249 204
250 13

$$$$
